
###############################################################################
#
# This file contains modified crystal structure data generated from the
# MOF subset of the Cambridge Structural Database (CSD) v543 
# hosted by the Cambridge Crystallographic Data Centre (CCDC).
#
# This work is licensed under the Creative Commons
# Attribution-NonCommercial-ShareAlike 4.0 International License.
# To view a copy of this license, visit
# http://creativecommons.org/licenses/by-nc-sa/4.0/
# or send a letter to
# Creative Commons, PO Box 1866, Mountain View, CA 94042, USA.
#
# CIF created using the CSD Python API on 29 September 2022
# The structure has been converted into the P1 space group
# The structure has a 3D framework
# The original CSD entry BUFNUM is in the cubic crystal system
# The framework has been calculated to contain at least 10.0% void space
# The void calculation uses a probe of radius 1.32A, grid spacing 0.4
# The framework is charged, counterions have been retained in the structure
# H atom positions have been added when not included in the experimental data
# Generated hydrogen atom positions removed from atoms on special positions
#
###############################################################################

data_BUFNUM
_chemical_formula_moiety         '(C2688 H3504 Cd144 O612 126+)n'
_symmetry_cell_setting           triclinic
_symmetry_space_group_name_H-M   'P 1'
_symmetry_Int_Tables_number      1
_space_group_name_Hall           'P 1'
loop_
_symmetry_equiv_pos_site_id
_symmetry_equiv_pos_as_xyz
1 x,y,z
_cell_length_a                   48.686(6)
_cell_length_b                   48.686(6)
_cell_length_c                   48.686(6)
_cell_angle_alpha                90
_cell_angle_beta                 90
_cell_angle_gamma                90
_cell_volume                     115402
loop_
_atom_site_label
_atom_site_type_symbol
_atom_site_fract_x
_atom_site_fract_y
_atom_site_fract_z
O1 O 0.5000 0.1489(13) 0.1723(14)
O1_2 O 0.1723(14) 0.5000 0.1489(13)
O1_3 O 0.1489(13) 0.1723(14) 0.5000
O1_4 O 0.6489(13) 0.0000 0.3277(14)
O1_5 O 0.6489(13) 1.0000 0.3277(14)
O1_6 O 0.6489(13) -0.0000 0.6723(14)
O1_7 O 0.6489(13) 1.0000 0.6723(14)
O1_8 O 0.3511(13) -0.0000 0.6723(14)
O1_9 O 0.3511(13) 1.0000 0.6723(14)
O1_10 O 0.0000 0.6723(14) 0.3511(13)
O1_11 O 1.0000 0.6723(14) 0.3511(13)
O1_12 O -0.0000 0.6723(14) 0.6489(13)
O1_13 O 1.0000 0.6723(14) 0.6489(13)
O1_14 O -0.0000 0.3277(14) 0.6489(13)
O1_15 O 1.0000 0.3277(14) 0.6489(13)
O1_16 O 0.6723(14) 0.6489(13) 0.0000
O1_17 O 0.6723(14) 0.6489(13) 1.0000
O1_18 O 0.6723(14) 0.3511(13) 0.0000
O1_19 O 0.6723(14) 0.3511(13) 1.0000
O1_20 O 0.3277(14) 0.6489(13) 0.0000
O1_21 O 0.3277(14) 0.6489(13) 1.0000
O1_22 O 0.5000 0.6489(13) 0.6723(14)
O1_23 O 0.1723(14) -0.0000 0.6489(13)
O1_24 O 0.1723(14) 1.0000 0.6489(13)
O1_25 O 0.1489(13) 0.6723(14) 0.0000
O1_26 O 0.1489(13) 0.6723(14) 1.0000
O1_27 O 0.6489(13) 0.5000 0.8277(14)
O1_28 O 0.6489(13) 0.5000 0.1723(14)
O1_29 O 0.3511(13) 0.5000 0.1723(14)
O1_30 O 0.0000 0.1723(14) 0.8511(13)
O1_31 O 1.0000 0.1723(14) 0.8511(13)
O1_32 O 0.0000 0.1723(14) 0.1489(13)
O1_33 O 1.0000 0.1723(14) 0.1489(13)
O1_34 O -0.0000 0.8277(14) 0.1489(13)
O1_35 O 1.0000 0.8277(14) 0.1489(13)
O1_36 O 0.6723(14) 0.1489(13) 0.5000
O1_37 O 0.6723(14) 0.8511(13) 0.5000
O1_38 O 0.3277(14) 0.1489(13) 0.5000
O1_39 O -0.0000 0.1489(13) 0.6723(14)
O1_40 O 1.0000 0.1489(13) 0.6723(14)
O1_41 O 0.6723(14) 0.5000 0.6489(13)
O1_42 O 0.6489(13) 0.1723(14) 0.0000
O1_43 O 0.6489(13) 0.1723(14) 1.0000
O1_44 O 0.1489(13) 0.0000 0.8277(14)
O1_45 O 0.1489(13) 1.0000 0.8277(14)
O1_46 O 0.1489(13) -0.0000 0.1723(14)
O1_47 O 0.1489(13) 1.0000 0.1723(14)
O1_48 O 0.8511(13) -0.0000 0.1723(14)
O1_49 O 0.8511(13) 1.0000 0.1723(14)
O1_50 O 0.5000 0.6723(14) 0.8511(13)
O1_51 O 0.5000 0.6723(14) 0.1489(13)
O1_52 O 0.5000 0.3277(14) 0.1489(13)
O1_53 O 0.1723(14) 0.6489(13) 0.5000
O1_54 O 0.1723(14) 0.3511(13) 0.5000
O1_55 O 0.8277(14) 0.6489(13) 0.5000
O1_56 O -0.0000 0.6489(13) 0.1723(14)
O1_57 O 1.0000 0.6489(13) 0.1723(14)
O1_58 O 0.6723(14) 0.0000 0.1489(13)
O1_59 O 0.6723(14) 1.0000 0.1489(13)
O1_60 O 0.6489(13) 0.6723(14) 0.5000
O1_61 O 0.1489(13) 0.5000 0.3277(14)
O1_62 O 0.1489(13) 0.5000 0.6723(14)
O1_63 O 0.8511(13) 0.5000 0.6723(14)
O1_64 O 0.5000 0.1723(14) 0.3511(13)
O1_65 O 0.5000 0.1723(14) 0.6489(13)
O1_66 O 0.5000 0.8277(14) 0.6489(13)
O1_67 O 0.1723(14) 0.1489(13) 0.0000
O1_68 O 0.1723(14) 0.1489(13) 1.0000
O1_69 O 0.1723(14) 0.8511(13) 0.0000
O1_70 O 0.1723(14) 0.8511(13) 1.0000
O1_71 O 0.8277(14) 0.1489(13) 0.0000
O1_72 O 0.8277(14) 0.1489(13) 1.0000
O1_73 O 0.5000 0.8511(13) 0.1723(14)
O1_74 O 0.5000 0.1489(13) 0.8277(14)
O1_75 O 0.5000 0.8511(13) 0.8277(14)
O1_76 O 0.1723(14) 0.5000 0.8511(13)
O1_77 O 0.8277(14) 0.5000 0.1489(13)
O1_78 O 0.8277(14) 0.5000 0.8511(13)
O1_79 O 0.8511(13) 0.1723(14) 0.5000
O1_80 O 0.1489(13) 0.8277(14) 0.5000
O1_81 O 0.8511(13) 0.8277(14) 0.5000
O1_82 O 0.3511(13) 0.0000 0.3277(14)
O1_83 O 0.3511(13) 1.0000 0.3277(14)
O1_84 O 0.0000 0.3277(14) 0.3511(13)
O1_85 O 1.0000 0.3277(14) 0.3511(13)
O1_86 O 0.3277(14) 0.3511(13) 0.0000
O1_87 O 0.3277(14) 0.3511(13) 1.0000
O1_88 O 0.5000 0.3511(13) 0.6723(14)
O1_89 O 0.5000 0.6489(13) 0.3277(14)
O1_90 O 0.5000 0.3511(13) 0.3277(14)
O1_91 O 0.1723(14) 0.0000 0.3511(13)
O1_92 O 0.1723(14) 1.0000 0.3511(13)
O1_93 O 0.8277(14) -0.0000 0.6489(13)
O1_94 O 0.8277(14) 1.0000 0.6489(13)
O1_95 O 0.8277(14) 0.0000 0.3511(13)
O1_96 O 0.8277(14) 1.0000 0.3511(13)
O1_97 O 0.8511(13) 0.6723(14) 0.0000
O1_98 O 0.8511(13) 0.6723(14) 1.0000
O1_99 O 0.1489(13) 0.3277(14) 0.0000
O1_100 O 0.1489(13) 0.3277(14) 1.0000
O1_101 O 0.8511(13) 0.3277(14) 0.0000
O1_102 O 0.8511(13) 0.3277(14) 1.0000
O1_103 O 0.3511(13) 0.5000 0.8277(14)
O1_104 O 0.0000 0.8277(14) 0.8511(13)
O1_105 O 1.0000 0.8277(14) 0.8511(13)
O1_106 O 0.3277(14) 0.8511(13) 0.5000
O1_107 O -0.0000 0.8511(13) 0.6723(14)
O1_108 O 1.0000 0.8511(13) 0.6723(14)
O1_109 O -0.0000 0.1489(13) 0.3277(14)
O1_110 O 1.0000 0.1489(13) 0.3277(14)
O1_111 O 0.0000 0.8511(13) 0.3277(14)
O1_112 O 1.0000 0.8511(13) 0.3277(14)
O1_113 O 0.6723(14) 0.5000 0.3511(13)
O1_114 O 0.3277(14) 0.5000 0.6489(13)
O1_115 O 0.3277(14) 0.5000 0.3511(13)
O1_116 O 0.3511(13) 0.1723(14) 0.0000
O1_117 O 0.3511(13) 0.1723(14) 1.0000
O1_118 O 0.6489(13) 0.8277(14) 0.0000
O1_119 O 0.6489(13) 0.8277(14) 1.0000
O1_120 O 0.3511(13) 0.8277(14) 0.0000
O1_121 O 0.3511(13) 0.8277(14) 1.0000
O1_122 O 0.8511(13) 0.0000 0.8277(14)
O1_123 O 0.8511(13) 1.0000 0.8277(14)
O1_124 O 0.5000 0.3277(14) 0.8511(13)
O1_125 O 0.8277(14) 0.3511(13) 0.5000
O1_126 O -0.0000 0.3511(13) 0.1723(14)
O1_127 O 1.0000 0.3511(13) 0.1723(14)
O1_128 O -0.0000 0.6489(13) 0.8277(14)
O1_129 O 1.0000 0.6489(13) 0.8277(14)
O1_130 O 0.0000 0.3511(13) 0.8277(14)
O1_131 O 1.0000 0.3511(13) 0.8277(14)
O1_132 O 0.6723(14) 0.0000 0.8511(13)
O1_133 O 0.6723(14) 1.0000 0.8511(13)
O1_134 O 0.3277(14) 0.0000 0.1489(13)
O1_135 O 0.3277(14) 1.0000 0.1489(13)
O1_136 O 0.3277(14) 0.0000 0.8511(13)
O1_137 O 0.3277(14) 1.0000 0.8511(13)
O1_138 O 0.3511(13) 0.6723(14) 0.5000
O1_139 O 0.6489(13) 0.3277(14) 0.5000
O1_140 O 0.3511(13) 0.3277(14) 0.5000
O1_141 O 0.8511(13) 0.5000 0.3277(14)
O1_142 O 0.5000 0.8277(14) 0.3511(13)
O1_143 O 0.8277(14) 0.8511(13) 0.0000
O1_144 O 0.8277(14) 0.8511(13) 1.0000
Cd1 Cd 0.5000 0.19908(4) 0.22418(3)
O2 O 0.46901(11) 0.19920(15) 0.26115(12)
O3 O 0.46523(11) 0.16180(14) 0.23722(13)
O4 O 0.5000 0.2500 0.2500
C1 C 0.45780(13) 0.17549(18) 0.25742(17)
C2 C 0.43584(13) 0.16641(17) 0.27575(13)
C3 C 0.42761(13) 0.18235(17) 0.29792(14)
H1 H 0.4365 0.1993 0.3017
C4 C 0.40638(12) 0.17328(14) 0.31439(13)
C5 C 0.39210(13) 0.14942(14) 0.30855(12)
C6 C 0.40102(14) 0.13364(15) 0.28682(13)
H2 H 0.3920 0.1168 0.2829
C7 C 0.42240(13) 0.14160(15) 0.27093(14)
H3 H 0.4283 0.1301 0.2563
C8 C 0.39573(15) 0.18726(14) 0.34009(15)
C9 C 0.37216(13) 0.16830(14) 0.34801(12)
C10 C 0.36976(13) 0.14642(13) 0.32925(13)
C11 C 0.41969(17) 0.1864(2) 0.36144(18)
H4 H 0.4352 0.1974 0.3542
H5 H 0.4134 0.1953 0.3786
C12 C 0.4303(2) 0.1573(2) 0.3685(2)
H6 H 0.4148 0.1455 0.3735
H7 H 0.4432 0.1584 0.3839
H8 H 0.4397 0.1496 0.3524
C13 C 0.38579(19) 0.21624(17) 0.33337(18)
H9 H 0.4015 0.2270 0.3262
H10 H 0.3796 0.2251 0.3506
C14 C 0.3622(2) 0.21732(19) 0.3122(3)
H11 H 0.3666 0.2053 0.2967
H12 H 0.3599 0.2362 0.3057
H13 H 0.3451 0.2111 0.3209
Cd2 Cd 0.5000 0.22418(3) 0.30092(4)
Cd3 Cd 0.5000 0.27582(3) 0.19908(4)
Cd4 Cd 0.5000 0.30092(4) 0.27582(3)
Cd5 Cd 0.30092(4) 0.27582(3) 0.5000
Cd6 Cd 0.27582(3) 0.19908(4) 0.5000
Cd7 Cd 0.22418(3) -0.0000 0.30092(4)
Cd8 Cd 0.30092(4) 0.0000 0.27582(3)
Cd9 Cd 0.77582(3) 0.19908(4) 0.0000
Cd10 Cd 0.69908(4) 0.22418(3) 0.0000
Cd11 Cd 0.69908(4) 0.0000 0.27582(3)
Cd12 Cd 0.72418(3) -0.0000 0.19908(4)
Cd13 Cd 0.22418(3) 0.30092(4) 0.5000
Cd14 Cd 0.30092(4) 0.5000 0.22418(3)
Cd15 Cd 0.27582(3) 0.5000 0.30092(4)
Cd16 Cd 0.77582(3) 0.5000 0.19908(4)
Cd17 Cd 0.69908(4) 0.5000 0.22418(3)
Cd18 Cd 0.72418(3) 0.30092(4) 0.0000
O5 O 0.46901(11) 0.23885(12) 0.19920(15)
O6 O 0.53099(11) 0.19920(15) 0.26115(12)
O7 O 0.53099(11) 0.23885(12) 0.19920(15)
O8 O 0.30080(15) 0.23885(12) 0.46901(11)
O9 O 0.26115(12) 0.03099(11) 0.30080(15)
O10 O 0.46901(11) 0.26115(12) 0.30080(15)
O11 O 0.53099(11) 0.30080(15) 0.23885(12)
O12 O 0.53099(11) 0.26115(12) 0.30080(15)
O13 O 0.46901(11) 0.30080(15) 0.23885(12)
O14 O 0.73885(12) 0.19920(15) 0.03099(11)
O15 O 0.69920(15) 0.03099(11) 0.23885(12)
O16 O 0.26115(12) 0.30080(15) 0.46901(11)
O17 O 0.30080(15) 0.46901(11) 0.26115(12)
O18 O 0.73885(12) 0.46901(11) 0.19920(15)
O19 O 0.69920(15) 0.26115(12) 0.03099(11)
O20 O 0.53477(11) 0.16180(14) 0.23722(13)
O21 O 0.33820(14) 0.26278(13) 0.46523(11)
O22 O 0.23722(13) 0.03477(11) 0.33820(14)
O23 O 0.53477(11) 0.33820(14) 0.26278(13)
O24 O 0.46523(11) 0.33820(14) 0.26278(13)
O25 O 0.46523(11) 0.23722(13) 0.33820(14)
O26 O 0.53477(11) 0.23722(13) 0.33820(14)
O27 O 0.46523(11) 0.26278(13) 0.16180(14)
O28 O 0.53477(11) 0.26278(13) 0.16180(14)
O29 O 0.76278(13) 0.16180(14) 0.03477(11)
O30 O 0.66180(14) 0.03477(11) 0.26278(13)
O31 O 0.23722(13) 0.33820(14) 0.46523(11)
O32 O 0.33820(14) 0.46523(11) 0.23722(13)
O33 O 0.76278(13) 0.46523(11) 0.16180(14)
O34 O 0.66180(14) 0.23722(13) 0.03477(11)
C15 C 0.32451(18) 0.24258(17) 0.45780(13)
C16 C 0.25742(17) 0.04220(13) 0.32451(18)
C17 C 0.54220(13) 0.24258(17) 0.17549(18)
C18 C 0.45780(13) 0.25742(17) 0.32451(18)
C19 C 0.54220(13) 0.32451(18) 0.24258(17)
C20 C 0.74258(17) 0.17549(18) 0.04220(13)
C21 C 0.67549(18) 0.04220(13) 0.24258(17)
C22 C 0.25742(17) 0.32451(18) 0.45780(13)
C23 C 0.32451(18) 0.45780(13) 0.25742(17)
C24 C 0.74258(17) 0.45780(13) 0.17549(18)
C25 C 0.67549(18) 0.25742(17) 0.04220(13)
C26 C 0.33359(17) 0.22425(13) 0.43584(13)
C27 C 0.27575(13) 0.06416(13) 0.33359(17)
C28 C 0.56416(13) 0.22425(13) 0.16641(17)
C29 C 0.43584(13) 0.27575(13) 0.33359(17)
C30 C 0.56416(13) 0.33359(17) 0.22425(13)
C31 C 0.72425(13) 0.16641(17) 0.06416(13)
C32 C 0.66641(17) 0.06416(13) 0.22425(13)
C33 C 0.27575(13) 0.33359(17) 0.43584(13)
C34 C 0.33359(17) 0.43584(13) 0.27575(13)
C35 C 0.72425(13) 0.43584(13) 0.16641(17)
C36 C 0.66641(17) 0.27575(13) 0.06416(13)
C37 C 0.31765(17) 0.20208(14) 0.42761(13)
C38 C 0.29792(14) 0.07239(13) 0.31765(17)
C39 C 0.57239(13) 0.20208(14) 0.18235(17)
C40 C 0.42761(13) 0.29792(14) 0.31765(17)
C41 C 0.57239(13) 0.31765(17) 0.20208(14)
C42 C 0.70208(14) 0.18235(17) 0.07239(13)
C43 C 0.68235(17) 0.07239(13) 0.20208(14)
C44 C 0.29792(14) 0.31765(17) 0.42761(13)
C45 C 0.31765(17) 0.42761(13) 0.29792(14)
C46 C 0.70208(14) 0.42761(13) 0.18235(17)
C47 C 0.68235(17) 0.29792(14) 0.07239(13)
H14 H 0.3007 0.1983 0.4365
H15 H 0.3017 0.0635 0.3007
H16 H 0.5635 0.1983 0.1993
H17 H 0.4365 0.3017 0.3007
H18 H 0.5635 0.3007 0.1983
H19 H 0.6983 0.1993 0.0635
H20 H 0.6993 0.0635 0.1983
H21 H 0.3017 0.3007 0.4365
H22 H 0.3007 0.4365 0.3017
H23 H 0.6983 0.4365 0.1993
H24 H 0.6993 0.3017 0.0635
C48 C 0.32672(14) 0.18561(13) 0.40638(12)
C49 C 0.31439(13) 0.09362(12) 0.32672(14)
C50 C 0.59362(12) 0.18561(13) 0.17328(14)
C51 C 0.40638(12) 0.31439(13) 0.32672(14)
C52 C 0.59362(12) 0.32672(14) 0.18561(13)
C53 C 0.68561(13) 0.17328(14) 0.09362(12)
C54 C 0.67328(14) 0.09362(12) 0.18561(13)
C55 C 0.31439(13) 0.32672(14) 0.40638(12)
C56 C 0.32672(14) 0.40638(12) 0.31439(13)
C57 C 0.68561(13) 0.40638(12) 0.17328(14)
C58 C 0.67328(14) 0.31439(13) 0.09362(12)
C59 C 0.35058(14) 0.19145(12) 0.39210(13)
C60 C 0.30855(12) 0.10790(13) 0.35058(14)
C61 C 0.60790(13) 0.19145(12) 0.14942(14)
C62 C 0.39210(13) 0.30855(12) 0.35058(14)
C63 C 0.60790(13) 0.35058(14) 0.19145(12)
C64 C 0.64942(14) 0.10790(13) 0.19145(12)
C65 C 0.35058(14) 0.39210(13) 0.30855(12)
C66 C 0.64942(14) 0.30855(12) 0.10790(13)
C67 C 0.69145(12) 0.14942(14) 0.10790(13)
C68 C 0.30855(12) 0.35058(14) 0.39210(13)
C69 C 0.69145(12) 0.39210(13) 0.14942(14)
C70 C 0.36636(15) 0.21318(13) 0.40102(14)
C71 C 0.28682(13) 0.09898(14) 0.36636(15)
C72 C 0.59898(14) 0.21318(13) 0.13364(15)
C73 C 0.40102(14) 0.28682(13) 0.36636(15)
C74 C 0.59898(14) 0.36636(15) 0.21318(13)
C75 C 0.63364(15) 0.09898(14) 0.21318(13)
C76 C 0.36636(15) 0.40102(14) 0.28682(13)
C77 C 0.63364(15) 0.28682(13) 0.09898(14)
C78 C 0.71318(13) 0.13364(15) 0.09898(14)
C79 C 0.28682(13) 0.36636(15) 0.40102(14)
C80 C 0.71318(13) 0.40102(14) 0.13364(15)
H25 H 0.3832 0.2171 0.3920
H26 H 0.2829 0.1080 0.3832
H27 H 0.6080 0.2171 0.1168
H28 H 0.3920 0.2829 0.3832
H29 H 0.6080 0.3832 0.2171
H30 H 0.6168 0.1080 0.2171
H31 H 0.3832 0.3920 0.2829
H32 H 0.6168 0.2829 0.1080
H33 H 0.7171 0.1168 0.1080
H34 H 0.2829 0.3832 0.3920
H35 H 0.7171 0.3920 0.1168
C81 C 0.35840(15) 0.22907(14) 0.42240(13)
C82 C 0.27093(14) 0.07760(13) 0.35840(15)
C83 C 0.57760(13) 0.22907(14) 0.14160(15)
C84 C 0.42240(13) 0.27093(14) 0.35840(15)
C85 C 0.57760(13) 0.35840(15) 0.22907(14)
C86 C 0.64160(15) 0.07760(13) 0.22907(14)
C87 C 0.35840(15) 0.42240(13) 0.27093(14)
C88 C 0.64160(15) 0.27093(14) 0.07760(13)
C89 C 0.72907(14) 0.14160(15) 0.07760(13)
C90 C 0.27093(14) 0.35840(15) 0.42240(13)
C91 C 0.72907(14) 0.42240(13) 0.14160(15)
H36 H 0.3699 0.2437 0.4283
H37 H 0.2563 0.0717 0.3699
H38 H 0.5717 0.2437 0.1301
H39 H 0.4283 0.2563 0.3699
H40 H 0.5717 0.3699 0.2437
H41 H 0.6301 0.0717 0.2437
H42 H 0.3699 0.4283 0.2563
H43 H 0.6301 0.2563 0.0717
H44 H 0.7437 0.1301 0.0717
H45 H 0.2563 0.3699 0.4283
H46 H 0.7437 0.4283 0.1301
C92 C 0.34009(15) 0.10427(15) 0.31274(14)
C93 C 0.31274(14) 0.15991(15) 0.39573(15)
C94 C 0.60427(15) 0.15991(15) 0.18726(14)
C95 C 0.39573(15) 0.34009(15) 0.31274(14)
C96 C 0.60427(15) 0.31274(14) 0.15991(15)
C97 C 0.65991(15) 0.18726(14) 0.10427(15)
C98 C 0.34009(15) 0.31274(14) 0.39573(15)
C99 C 0.65991(15) 0.39573(15) 0.18726(14)
C100 C 0.68726(14) 0.10427(15) 0.15991(15)
C101 C 0.31274(14) 0.39573(15) 0.34009(15)
C102 C 0.68726(14) 0.34009(15) 0.10427(15)
C103 C 0.34801(12) 0.12784(13) 0.33170(14)
C104 C 0.33170(14) 0.15199(12) 0.37216(13)
C105 C 0.62784(13) 0.15199(12) 0.16830(14)
C106 C 0.37216(13) 0.34801(12) 0.33170(14)
C107 C 0.62784(13) 0.33170(14) 0.15199(12)
C108 C 0.65199(12) 0.16830(14) 0.12784(13)
C109 C 0.34801(12) 0.33170(14) 0.37216(13)
C110 C 0.65199(12) 0.37216(13) 0.16830(14)
C111 C 0.66830(14) 0.12784(13) 0.15199(12)
C112 C 0.33170(14) 0.37216(13) 0.34801(12)
C113 C 0.66830(14) 0.34801(12) 0.12784(13)
C114 C 0.35358(13) 0.17075(13) 0.36976(13)
C115 C 0.32925(13) 0.13024(13) 0.35358(13)
C116 C 0.63024(13) 0.17075(13) 0.14642(13)
C117 C 0.36976(13) 0.32925(13) 0.35358(13)
C118 C 0.63024(13) 0.35358(13) 0.17075(13)
C119 C 0.64642(13) 0.13024(13) 0.17075(13)
C120 C 0.35358(13) 0.36976(13) 0.32925(13)
C121 C 0.64642(13) 0.32925(13) 0.13024(13)
C122 C 0.67075(13) 0.14642(13) 0.13024(13)
C123 C 0.32925(13) 0.35358(13) 0.36976(13)
C124 C 0.67075(13) 0.36976(13) 0.14642(13)
C125 C 0.36144(18) 0.08031(17) 0.3136(2)
C126 C 0.3136(2) 0.13856(18) 0.41969(17)
C127 C 0.58031(17) 0.13856(18) 0.1864(2)
C128 C 0.41969(17) 0.36144(18) 0.3136(2)
C129 C 0.58031(17) 0.3136(2) 0.13856(18)
C130 C 0.63856(18) 0.1864(2) 0.08031(17)
C131 C 0.36144(18) 0.3136(2) 0.41969(17)
C132 C 0.63856(18) 0.41969(17) 0.1864(2)
C133 C 0.6864(2) 0.08031(17) 0.13856(18)
C134 C 0.3136(2) 0.41969(17) 0.36144(18)
C135 C 0.6864(2) 0.36144(18) 0.08031(17)
H47 H 0.3542 0.0648 0.3026
H48 H 0.3026 0.1458 0.4352
H49 H 0.5648 0.1458 0.1974
H50 H 0.4352 0.3542 0.3026
H51 H 0.5648 0.3026 0.1458
H52 H 0.6458 0.1974 0.0648
H53 H 0.3542 0.3026 0.4352
H54 H 0.6458 0.4352 0.1974
H55 H 0.6974 0.0648 0.1458
H56 H 0.3026 0.4352 0.3542
H57 H 0.6974 0.3542 0.0648
H58 H 0.3786 0.0866 0.3047
H59 H 0.3047 0.1214 0.4134
H60 H 0.5866 0.1214 0.1953
H61 H 0.4134 0.3786 0.3047
H62 H 0.5866 0.3047 0.1214
H63 H 0.6214 0.1953 0.0866
H64 H 0.3786 0.3047 0.4134
H65 H 0.6214 0.4134 0.1953
H66 H 0.6953 0.0866 0.1214
H67 H 0.3047 0.4134 0.3786
H68 H 0.6953 0.3786 0.0866
C136 C 0.3685(2) 0.0697(2) 0.3427(2)
C137 C 0.3427(2) 0.1315(2) 0.4303(2)
C138 C 0.5697(2) 0.1315(2) 0.1573(2)
C139 C 0.4303(2) 0.3685(2) 0.3427(2)
C140 C 0.5697(2) 0.3427(2) 0.1315(2)
C141 C 0.6315(2) 0.1573(2) 0.0697(2)
C142 C 0.3685(2) 0.3427(2) 0.4303(2)
C143 C 0.6315(2) 0.4303(2) 0.1573(2)
C144 C 0.6573(2) 0.0697(2) 0.1315(2)
C145 C 0.3427(2) 0.4303(2) 0.3685(2)
C146 C 0.6573(2) 0.3685(2) 0.0697(2)
H69 H 0.3735 0.0852 0.3545
H70 H 0.3545 0.1265 0.4148
H71 H 0.5852 0.1265 0.1455
H72 H 0.4148 0.3735 0.3545
H73 H 0.5852 0.3545 0.1265
H74 H 0.6265 0.1455 0.0852
H75 H 0.3735 0.3545 0.4148
H76 H 0.6265 0.4148 0.1455
H77 H 0.6455 0.0852 0.1265
H78 H 0.3545 0.4148 0.3735
H79 H 0.6455 0.3735 0.0852
H80 H 0.3839 0.0568 0.3416
H81 H 0.3416 0.1161 0.4432
H82 H 0.5568 0.1161 0.1584
H83 H 0.4432 0.3839 0.3416
H84 H 0.5568 0.3416 0.1161
H85 H 0.6161 0.1584 0.0568
H86 H 0.3839 0.3416 0.4432
H87 H 0.6161 0.4432 0.1584
H88 H 0.6584 0.0568 0.1161
H89 H 0.3416 0.4432 0.3839
H90 H 0.6584 0.3839 0.0568
H91 H 0.3524 0.0603 0.3504
H92 H 0.3504 0.1476 0.4397
H93 H 0.5603 0.1476 0.1496
H94 H 0.4397 0.3524 0.3504
H95 H 0.5603 0.3504 0.1476
H96 H 0.6476 0.1496 0.0603
H97 H 0.3524 0.3504 0.4397
H98 H 0.6476 0.4397 0.1496
H99 H 0.6496 0.0603 0.1476
H100 H 0.3504 0.4397 0.3524
H101 H 0.6496 0.3524 0.0603
C147 C 0.33337(18) 0.11421(19) 0.28376(17)
C148 C 0.28376(17) 0.16663(18) 0.38579(19)
C149 C 0.61421(19) 0.16663(18) 0.21624(17)
C150 C 0.38579(19) 0.33337(18) 0.28376(17)
C151 C 0.61421(19) 0.28376(17) 0.16663(18)
C152 C 0.66663(18) 0.21624(17) 0.11421(19)
C153 C 0.33337(18) 0.28376(17) 0.38579(19)
C154 C 0.66663(18) 0.38579(19) 0.21624(17)
C155 C 0.71624(17) 0.11421(19) 0.16663(18)
C156 C 0.28376(17) 0.38579(19) 0.33337(18)
C157 C 0.71624(17) 0.33337(18) 0.11421(19)
H102 H 0.3262 0.0985 0.2730
H103 H 0.2730 0.1738 0.4015
H104 H 0.5985 0.1738 0.2270
H105 H 0.4015 0.3262 0.2730
H106 H 0.5985 0.2730 0.1738
H107 H 0.6738 0.2270 0.0985
H108 H 0.3262 0.2730 0.4015
H109 H 0.6738 0.4015 0.2270
H110 H 0.7270 0.0985 0.1738
H111 H 0.2730 0.4015 0.3262
H112 H 0.7270 0.3262 0.0985
H113 H 0.3506 0.1204 0.2749
H114 H 0.2749 0.1494 0.3796
H115 H 0.6204 0.1494 0.2251
H116 H 0.3796 0.3506 0.2749
H117 H 0.6204 0.2749 0.1494
H118 H 0.6494 0.2251 0.1204
H119 H 0.3506 0.2749 0.3796
H120 H 0.6494 0.3796 0.2251
H121 H 0.7251 0.1204 0.1494
H122 H 0.2749 0.3796 0.3506
H123 H 0.7251 0.3506 0.1204
C158 C 0.3122(3) 0.1378(2) 0.28268(19)
C159 C 0.28268(19) 0.1878(3) 0.3622(2)
C160 C 0.6378(2) 0.1878(3) 0.21732(19)
C161 C 0.3622(2) 0.3122(3) 0.28268(19)
C162 C 0.6378(2) 0.28268(19) 0.1878(3)
C163 C 0.6878(3) 0.21732(19) 0.1378(2)
C164 C 0.3122(3) 0.28268(19) 0.3622(2)
C165 C 0.6878(3) 0.3622(2) 0.21732(19)
C166 C 0.71732(19) 0.1378(2) 0.1878(3)
C167 C 0.28268(19) 0.3622(2) 0.3122(3)
C168 C 0.71732(19) 0.3122(3) 0.1378(2)
H124 H 0.2967 0.1334 0.2947
H125 H 0.2947 0.2033 0.3666
H126 H 0.6334 0.2033 0.2053
H127 H 0.3666 0.2967 0.2947
H128 H 0.6334 0.2947 0.2033
H129 H 0.7033 0.2053 0.1334
H130 H 0.2967 0.2947 0.3666
H131 H 0.7033 0.3666 0.2053
H132 H 0.7053 0.1334 0.2033
H133 H 0.2947 0.3666 0.2967
H134 H 0.7053 0.2967 0.1334
H135 H 0.3057 0.1401 0.2638
H136 H 0.2638 0.1943 0.3599
H137 H 0.6401 0.1943 0.2362
H138 H 0.3599 0.3057 0.2638
H139 H 0.6401 0.2638 0.1943
H140 H 0.6943 0.2362 0.1401
H141 H 0.3057 0.2638 0.3599
H142 H 0.6943 0.3599 0.2362
H143 H 0.7362 0.1401 0.1943
H144 H 0.2638 0.3599 0.3057
H145 H 0.7362 0.3057 0.1401
H146 H 0.3209 0.1549 0.2889
H147 H 0.2889 0.1791 0.3451
H148 H 0.6549 0.1791 0.2111
H149 H 0.3451 0.3209 0.2889
H150 H 0.6549 0.2889 0.1791
H151 H 0.6791 0.2111 0.1549
H152 H 0.3209 0.2889 0.3451
H153 H 0.6791 0.3451 0.2111
H154 H 0.7111 0.1549 0.1791
H155 H 0.2889 0.3451 0.3209
H156 H 0.7111 0.3209 0.1549
Cd9_2 Cd 0.77582(3) 0.19908(4) 1.0000
Cd10_2 Cd 0.69908(4) 0.22418(3) 1.0000
Cd18_2 Cd 0.72418(3) 0.30092(4) 1.0000
Cd7_2 Cd 0.22418(3) 1.0000 0.30092(4)
Cd8_2 Cd 0.30092(4) 1.0000 0.27582(3)
Cd11_2 Cd 0.69908(4) 1.0000 0.27582(3)
Cd12_2 Cd 0.72418(3) 1.0000 0.19908(4)
Cd1_2 Cd 0.22418(3) 0.5000 0.19908(4)
O2_2 O 0.26115(12) 0.46901(11) 0.19920(15)
O3_2 O 0.23722(13) 0.46523(11) 0.16180(14)
O4_2 O 0.2500 0.5000 0.2500
C1_2 C 0.25742(17) 0.45780(13) 0.17549(18)
C2_2 C 0.27575(13) 0.43584(13) 0.16641(17)
C3_2 C 0.29792(14) 0.42761(13) 0.18235(17)
H1_2 H 0.3017 0.4365 0.1993
C4_2 C 0.31439(13) 0.40638(12) 0.17328(14)
C5_2 C 0.30855(12) 0.39210(13) 0.14942(14)
C6_2 C 0.28682(13) 0.40102(14) 0.13364(15)
H2_2 H 0.2829 0.3920 0.1168
C7_2 C 0.27093(14) 0.42240(13) 0.14160(15)
H3_2 H 0.2563 0.4283 0.1301
C8_2 C 0.34009(15) 0.39573(15) 0.18726(14)
C9_2 C 0.34801(12) 0.37216(13) 0.16830(14)
C10_2 C 0.32925(13) 0.36976(13) 0.14642(13)
C11_2 C 0.36144(18) 0.41969(17) 0.1864(2)
H4_2 H 0.3542 0.4352 0.1974
H5_2 H 0.3786 0.4134 0.1953
C12_2 C 0.3685(2) 0.4303(2) 0.1573(2)
H6_2 H 0.3735 0.4148 0.1455
H7_2 H 0.3839 0.4432 0.1584
H8_2 H 0.3524 0.4397 0.1496
C13_2 C 0.33337(18) 0.38579(19) 0.21624(17)
H9_2 H 0.3262 0.4015 0.2270
H10_2 H 0.3506 0.3796 0.2251
C14_2 C 0.3122(3) 0.3622(2) 0.21732(19)
H11_2 H 0.2967 0.3666 0.2053
H12_2 H 0.3057 0.3599 0.2362
H13_2 H 0.3209 0.3451 0.2111
Cd3_2 Cd 0.19908(4) 0.5000 0.27582(3)
Cd7_3 Cd 0.30092(4) 0.22418(3) -0.0000
Cd8_3 Cd 0.27582(3) 0.30092(4) 0.0000
Cd9_3 Cd 0.0000 0.77582(3) 0.19908(4)
Cd10_3 Cd -0.0000 0.69908(4) 0.22418(3)
Cd11_3 Cd 0.27582(3) 0.69908(4) 0.0000
Cd12_3 Cd 0.19908(4) 0.72418(3) -0.0000
Cd16_2 Cd 0.19908(4) 0.77582(3) 0.5000
Cd17_2 Cd 0.22418(3) 0.69908(4) 0.5000
Cd18_3 Cd -0.0000 0.72418(3) 0.30092(4)
O5_2 O 0.19920(15) 0.46901(11) 0.23885(12)
O6_2 O 0.26115(12) 0.53099(11) 0.19920(15)
O7_2 O 0.19920(15) 0.53099(11) 0.23885(12)
O9_2 O 0.30080(15) 0.26115(12) 0.03099(11)
O11_2 O 0.23885(12) 0.53099(11) 0.30080(15)
O12_2 O 0.30080(15) 0.53099(11) 0.26115(12)
O13_2 O 0.23885(12) 0.46901(11) 0.30080(15)
O14_2 O 0.03099(11) 0.73885(12) 0.19920(15)
O15_2 O 0.23885(12) 0.69920(15) 0.03099(11)
O18_2 O 0.19920(15) 0.73885(12) 0.46901(11)
O19_2 O 0.03099(11) 0.69920(15) 0.26115(12)
O20_2 O 0.23722(13) 0.53477(11) 0.16180(14)
O22_2 O 0.33820(14) 0.23722(13) 0.03477(11)
O23_2 O 0.26278(13) 0.53477(11) 0.33820(14)
O24_2 O 0.26278(13) 0.46523(11) 0.33820(14)
O26_2 O 0.33820(14) 0.53477(11) 0.23722(13)
O27_2 O 0.16180(14) 0.46523(11) 0.26278(13)
O28_2 O 0.16180(14) 0.53477(11) 0.26278(13)
O29_2 O 0.03477(11) 0.76278(13) 0.16180(14)
O30_2 O 0.26278(13) 0.66180(14) 0.03477(11)
O33_2 O 0.16180(14) 0.76278(13) 0.46523(11)
O34_2 O 0.03477(11) 0.66180(14) 0.23722(13)
C15_2 C 0.45780(13) 0.32451(18) 0.24258(17)
C16_2 C 0.32451(18) 0.25742(17) 0.04220(13)
C17_2 C 0.17549(18) 0.54220(13) 0.24258(17)
C19_2 C 0.24258(17) 0.54220(13) 0.32451(18)
C20_2 C 0.04220(13) 0.74258(17) 0.17549(18)
C21_2 C 0.24258(17) 0.67549(18) 0.04220(13)
C24_2 C 0.17549(18) 0.74258(17) 0.45780(13)
C25_2 C 0.04220(13) 0.67549(18) 0.25742(17)
C26_2 C 0.43584(13) 0.33359(17) 0.22425(13)
C27_2 C 0.33359(17) 0.27575(13) 0.06416(13)
C28_2 C 0.16641(17) 0.56416(13) 0.22425(13)
C30_2 C 0.22425(13) 0.56416(13) 0.33359(17)
C31_2 C 0.06416(13) 0.72425(13) 0.16641(17)
C32_2 C 0.22425(13) 0.66641(17) 0.06416(13)
C35_2 C 0.16641(17) 0.72425(13) 0.43584(13)
C36_2 C 0.06416(13) 0.66641(17) 0.27575(13)
C37_2 C 0.42761(13) 0.31765(17) 0.20208(14)
C38_2 C 0.31765(17) 0.29792(14) 0.07239(13)
C39_2 C 0.18235(17) 0.57239(13) 0.20208(14)
C41_2 C 0.20208(14) 0.57239(13) 0.31765(17)
C42_2 C 0.07239(13) 0.70208(14) 0.18235(17)
C43_2 C 0.20208(14) 0.68235(17) 0.07239(13)
C46_2 C 0.18235(17) 0.70208(14) 0.42761(13)
C47_2 C 0.07239(13) 0.68235(17) 0.29792(14)
H14_2 H 0.4365 0.3007 0.1983
H15_2 H 0.3007 0.3017 0.0635
H16_2 H 0.1993 0.5635 0.1983
H18_2 H 0.1983 0.5635 0.3007
H19_2 H 0.0635 0.6983 0.1993
H20_2 H 0.1983 0.6993 0.0635
H23_2 H 0.1993 0.6983 0.4365
H24_2 H 0.0635 0.6993 0.3017
C48_2 C 0.40638(12) 0.32672(14) 0.18561(13)
C49_2 C 0.32672(14) 0.31439(13) 0.09362(12)
C50_2 C 0.17328(14) 0.59362(12) 0.18561(13)
C52_2 C 0.18561(13) 0.59362(12) 0.32672(14)
C53_2 C 0.09362(12) 0.68561(13) 0.17328(14)
C54_2 C 0.18561(13) 0.67328(14) 0.09362(12)
C57_2 C 0.17328(14) 0.68561(13) 0.40638(12)
C58_2 C 0.09362(12) 0.67328(14) 0.31439(13)
C59_2 C 0.39210(13) 0.35058(14) 0.19145(12)
C60_2 C 0.35058(14) 0.30855(12) 0.10790(13)
C61_2 C 0.14942(14) 0.60790(13) 0.19145(12)
C63_2 C 0.19145(12) 0.60790(13) 0.35058(14)
C64_2 C 0.19145(12) 0.64942(14) 0.10790(13)
C66_2 C 0.10790(13) 0.64942(14) 0.30855(12)
C67_2 C 0.10790(13) 0.69145(12) 0.14942(14)
C69_2 C 0.14942(14) 0.69145(12) 0.39210(13)
C70_2 C 0.40102(14) 0.36636(15) 0.21318(13)
C71_2 C 0.36636(15) 0.28682(13) 0.09898(14)
C72_2 C 0.13364(15) 0.59898(14) 0.21318(13)
C74_2 C 0.21318(13) 0.59898(14) 0.36636(15)
C75_2 C 0.21318(13) 0.63364(15) 0.09898(14)
C77_2 C 0.09898(14) 0.63364(15) 0.28682(13)
C78_2 C 0.09898(14) 0.71318(13) 0.13364(15)
C80_2 C 0.13364(15) 0.71318(13) 0.40102(14)
H25_2 H 0.3920 0.3832 0.2171
H26_2 H 0.3832 0.2829 0.1080
H27_2 H 0.1168 0.6080 0.2171
H29_2 H 0.2171 0.6080 0.3832
H30_2 H 0.2171 0.6168 0.1080
H32_2 H 0.1080 0.6168 0.2829
H33_2 H 0.1080 0.7171 0.1168
H35_2 H 0.1168 0.7171 0.3920
C81_2 C 0.42240(13) 0.35840(15) 0.22907(14)
C82_2 C 0.35840(15) 0.27093(14) 0.07760(13)
C83_2 C 0.14160(15) 0.57760(13) 0.22907(14)
C85_2 C 0.22907(14) 0.57760(13) 0.35840(15)
C86_2 C 0.22907(14) 0.64160(15) 0.07760(13)
C88_2 C 0.07760(13) 0.64160(15) 0.27093(14)
C89_2 C 0.07760(13) 0.72907(14) 0.14160(15)
C91_2 C 0.14160(15) 0.72907(14) 0.42240(13)
H36_2 H 0.4283 0.3699 0.2437
H37_2 H 0.3699 0.2563 0.0717
H38_2 H 0.1301 0.5717 0.2437
H40_2 H 0.2437 0.5717 0.3699
H41_2 H 0.2437 0.6301 0.0717
H43_2 H 0.0717 0.6301 0.2563
H44_2 H 0.0717 0.7437 0.1301
H46_2 H 0.1301 0.7437 0.4283
C92_2 C 0.31274(14) 0.34009(15) 0.10427(15)
C93_2 C 0.39573(15) 0.31274(14) 0.15991(15)
C94_2 C 0.18726(14) 0.60427(15) 0.15991(15)
C96_2 C 0.15991(15) 0.60427(15) 0.31274(14)
C97_2 C 0.10427(15) 0.65991(15) 0.18726(14)
C99_2 C 0.18726(14) 0.65991(15) 0.39573(15)
C100_2 C 0.15991(15) 0.68726(14) 0.10427(15)
C102_2 C 0.10427(15) 0.68726(14) 0.34009(15)
C103_2 C 0.33170(14) 0.34801(12) 0.12784(13)
C104_2 C 0.37216(13) 0.33170(14) 0.15199(12)
C105_2 C 0.16830(14) 0.62784(13) 0.15199(12)
C107_2 C 0.15199(12) 0.62784(13) 0.33170(14)
C108_2 C 0.12784(13) 0.65199(12) 0.16830(14)
C110_2 C 0.16830(14) 0.65199(12) 0.37216(13)
C111_2 C 0.15199(12) 0.66830(14) 0.12784(13)
C113_2 C 0.12784(13) 0.66830(14) 0.34801(12)
C114_2 C 0.36976(13) 0.35358(13) 0.17075(13)
C115_2 C 0.35358(13) 0.32925(13) 0.13024(13)
C116_2 C 0.14642(13) 0.63024(13) 0.17075(13)
C118_2 C 0.17075(13) 0.63024(13) 0.35358(13)
C119_2 C 0.17075(13) 0.64642(13) 0.13024(13)
C121_2 C 0.13024(13) 0.64642(13) 0.32925(13)
C122_2 C 0.13024(13) 0.67075(13) 0.14642(13)
C124_2 C 0.14642(13) 0.67075(13) 0.36976(13)
C125_2 C 0.3136(2) 0.36144(18) 0.08031(17)
C126_2 C 0.41969(17) 0.3136(2) 0.13856(18)
C127_2 C 0.1864(2) 0.58031(17) 0.13856(18)
C129_2 C 0.13856(18) 0.58031(17) 0.3136(2)
C130_2 C 0.08031(17) 0.63856(18) 0.1864(2)
C132_2 C 0.1864(2) 0.63856(18) 0.41969(17)
C133_2 C 0.13856(18) 0.6864(2) 0.08031(17)
C135_2 C 0.08031(17) 0.6864(2) 0.36144(18)
H47_2 H 0.3026 0.3542 0.0648
H48_2 H 0.4352 0.3026 0.1458
H49_2 H 0.1974 0.5648 0.1458
H51_2 H 0.1458 0.5648 0.3026
H52_2 H 0.0648 0.6458 0.1974
H54_2 H 0.1974 0.6458 0.4352
H55_2 H 0.1458 0.6974 0.0648
H57_2 H 0.0648 0.6974 0.3542
H58_2 H 0.3047 0.3786 0.0866
H59_2 H 0.4134 0.3047 0.1214
H60_2 H 0.1953 0.5866 0.1214
H62_2 H 0.1214 0.5866 0.3047
H63_2 H 0.0866 0.6214 0.1953
H65_2 H 0.1953 0.6214 0.4134
H66_2 H 0.1214 0.6953 0.0866
H68_2 H 0.0866 0.6953 0.3786
C136_2 C 0.3427(2) 0.3685(2) 0.0697(2)
C137_2 C 0.4303(2) 0.3427(2) 0.1315(2)
C138_2 C 0.1573(2) 0.5697(2) 0.1315(2)
C140_2 C 0.1315(2) 0.5697(2) 0.3427(2)
C141_2 C 0.0697(2) 0.6315(2) 0.1573(2)
C143_2 C 0.1573(2) 0.6315(2) 0.4303(2)
C144_2 C 0.1315(2) 0.6573(2) 0.0697(2)
C146_2 C 0.0697(2) 0.6573(2) 0.3685(2)
H69_2 H 0.3545 0.3735 0.0852
H70_2 H 0.4148 0.3545 0.1265
H71_2 H 0.1455 0.5852 0.1265
H73_2 H 0.1265 0.5852 0.3545
H74_2 H 0.0852 0.6265 0.1455
H76_2 H 0.1455 0.6265 0.4148
H77_2 H 0.1265 0.6455 0.0852
H79_2 H 0.0852 0.6455 0.3735
H80_2 H 0.3416 0.3839 0.0568
H81_2 H 0.4432 0.3416 0.1161
H82_2 H 0.1584 0.5568 0.1161
H84_2 H 0.1161 0.5568 0.3416
H85_2 H 0.0568 0.6161 0.1584
H87_2 H 0.1584 0.6161 0.4432
H88_2 H 0.1161 0.6584 0.0568
H90_2 H 0.0568 0.6584 0.3839
H91_2 H 0.3504 0.3524 0.0603
H92_2 H 0.4397 0.3504 0.1476
H93_2 H 0.1496 0.5603 0.1476
H95_2 H 0.1476 0.5603 0.3504
H96_2 H 0.0603 0.6476 0.1496
H98_2 H 0.1496 0.6476 0.4397
H99_2 H 0.1476 0.6496 0.0603
H101_2 H 0.0603 0.6496 0.3524
C147_2 C 0.28376(17) 0.33337(18) 0.11421(19)
C148_2 C 0.38579(19) 0.28376(17) 0.16663(18)
C149_2 C 0.21624(17) 0.61421(19) 0.16663(18)
C151_2 C 0.16663(18) 0.61421(19) 0.28376(17)
C152_2 C 0.11421(19) 0.66663(18) 0.21624(17)
C154_2 C 0.21624(17) 0.66663(18) 0.38579(19)
C155_2 C 0.16663(18) 0.71624(17) 0.11421(19)
C157_2 C 0.11421(19) 0.71624(17) 0.33337(18)
H102_2 H 0.2730 0.3262 0.0985
H103_2 H 0.4015 0.2730 0.1738
H104_2 H 0.2270 0.5985 0.1738
H106_2 H 0.1738 0.5985 0.2730
H107_2 H 0.0985 0.6738 0.2270
H109_2 H 0.2270 0.6738 0.4015
H110_2 H 0.1738 0.7270 0.0985
H112_2 H 0.0985 0.7270 0.3262
H113_2 H 0.2749 0.3506 0.1204
H114_2 H 0.3796 0.2749 0.1494
H115_2 H 0.2251 0.6204 0.1494
H117_2 H 0.1494 0.6204 0.2749
H118_2 H 0.1204 0.6494 0.2251
H120_2 H 0.2251 0.6494 0.3796
H121_2 H 0.1494 0.7251 0.1204
H123_2 H 0.1204 0.7251 0.3506
C158_2 C 0.28268(19) 0.3122(3) 0.1378(2)
C159_2 C 0.3622(2) 0.28268(19) 0.1878(3)
C160_2 C 0.21732(19) 0.6378(2) 0.1878(3)
C162_2 C 0.1878(3) 0.6378(2) 0.28268(19)
C163_2 C 0.1378(2) 0.6878(3) 0.21732(19)
C165_2 C 0.21732(19) 0.6878(3) 0.3622(2)
C166_2 C 0.1878(3) 0.71732(19) 0.1378(2)
C168_2 C 0.1378(2) 0.71732(19) 0.3122(3)
H124_2 H 0.2947 0.2967 0.1334
H125_2 H 0.3666 0.2947 0.2033
H126_2 H 0.2053 0.6334 0.2033
H128_2 H 0.2033 0.6334 0.2947
H129_2 H 0.1334 0.7033 0.2053
H131_2 H 0.2053 0.7033 0.3666
H132_2 H 0.2033 0.7053 0.1334
H134_2 H 0.1334 0.7053 0.2967
H135_2 H 0.2638 0.3057 0.1401
H136_2 H 0.3599 0.2638 0.1943
H137_2 H 0.2362 0.6401 0.1943
H139_2 H 0.1943 0.6401 0.2638
H140_2 H 0.1401 0.6943 0.2362
H142_2 H 0.2362 0.6943 0.3599
H143_2 H 0.1943 0.7362 0.1401
H145_2 H 0.1401 0.7362 0.3057
H146_2 H 0.2889 0.3209 0.1549
H147_2 H 0.3451 0.2889 0.1791
H148_2 H 0.2111 0.6549 0.1791
H150_2 H 0.1791 0.6549 0.2889
H151_2 H 0.1549 0.6791 0.2111
H153_2 H 0.2111 0.6791 0.3451
H154_2 H 0.1791 0.7111 0.1549
H156_2 H 0.1549 0.7111 0.3209
Cd7_4 Cd 0.30092(4) 0.22418(3) 1.0000
Cd8_4 Cd 0.27582(3) 0.30092(4) 1.0000
Cd11_4 Cd 0.27582(3) 0.69908(4) 1.0000
Cd12_4 Cd 0.19908(4) 0.72418(3) 1.0000
Cd9_4 Cd 1.0000 0.77582(3) 0.19908(4)
Cd10_4 Cd 1.0000 0.69908(4) 0.22418(3)
Cd18_4 Cd 1.0000 0.72418(3) 0.30092(4)
Cd1_3 Cd 0.19908(4) 0.22418(3) 0.5000
O2_3 O 0.19920(15) 0.26115(12) 0.46901(11)
O3_3 O 0.16180(14) 0.23722(13) 0.46523(11)
O4_3 O 0.2500 0.2500 0.5000
C1_3 C 0.17549(18) 0.25742(17) 0.45780(13)
C2_3 C 0.16641(17) 0.27575(13) 0.43584(13)
C3_3 C 0.18235(17) 0.29792(14) 0.42761(13)
H1_3 H 0.1993 0.3017 0.4365
C4_3 C 0.17328(14) 0.31439(13) 0.40638(12)
C5_3 C 0.14942(14) 0.30855(12) 0.39210(13)
C6_3 C 0.13364(15) 0.28682(13) 0.40102(14)
H2_3 H 0.1168 0.2829 0.3920
C7_3 C 0.14160(15) 0.27093(14) 0.42240(13)
H3_3 H 0.1301 0.2563 0.4283
C8_3 C 0.18726(14) 0.34009(15) 0.39573(15)
C9_3 C 0.16830(14) 0.34801(12) 0.37216(13)
C10_3 C 0.14642(13) 0.32925(13) 0.36976(13)
C11_3 C 0.1864(2) 0.36144(18) 0.41969(17)
H4_3 H 0.1974 0.3542 0.4352
H5_3 H 0.1953 0.3786 0.4134
C12_3 C 0.1573(2) 0.3685(2) 0.4303(2)
H6_3 H 0.1455 0.3735 0.4148
H7_3 H 0.1584 0.3839 0.4432
H8_3 H 0.1496 0.3524 0.4397
C13_3 C 0.21624(17) 0.33337(18) 0.38579(19)
H9_3 H 0.2270 0.3262 0.4015
H10_3 H 0.2251 0.3506 0.3796
C14_3 C 0.21732(19) 0.3122(3) 0.3622(2)
H11_3 H 0.2053 0.2967 0.3666
H12_3 H 0.2362 0.3057 0.3599
H13_3 H 0.2111 0.3209 0.3451
Cd7_5 Cd -0.0000 0.30092(4) 0.22418(3)
Cd8_5 Cd -0.0000 0.27582(3) 0.30092(4)
Cd9_5 Cd 0.19908(4) 0.0000 0.77582(3)
Cd10_5 Cd 0.22418(3) 0.0000 0.69908(4)
Cd11_5 Cd 0.0000 0.27582(3) 0.69908(4)
Cd12_5 Cd -0.0000 0.19908(4) 0.72418(3)
Cd16_3 Cd 0.5000 0.19908(4) 0.77582(3)
Cd17_3 Cd 0.5000 0.22418(3) 0.69908(4)
Cd18_5 Cd 0.30092(4) -0.0000 0.72418(3)
O5_3 O 0.23885(12) 0.19920(15) 0.46901(11)
O6_3 O 0.19920(15) 0.26115(12) 0.53099(11)
O7_3 O 0.23885(12) 0.19920(15) 0.53099(11)
O9_3 O 0.03099(11) 0.30080(15) 0.26115(12)
O11_3 O 0.30080(15) 0.23885(12) 0.53099(11)
O12_3 O 0.26115(12) 0.30080(15) 0.53099(11)
O14_3 O 0.19920(15) 0.03099(11) 0.73885(12)
O15_3 O 0.03099(11) 0.23885(12) 0.69920(15)
O18_3 O 0.46901(11) 0.19920(15) 0.73885(12)
O19_3 O 0.26115(12) 0.03099(11) 0.69920(15)
O20_3 O 0.16180(14) 0.23722(13) 0.53477(11)
O22_3 O 0.03477(11) 0.33820(14) 0.23722(13)
O23_3 O 0.33820(14) 0.26278(13) 0.53477(11)
O26_3 O 0.23722(13) 0.33820(14) 0.53477(11)
O27_3 O 0.26278(13) 0.16180(14) 0.46523(11)
O28_3 O 0.26278(13) 0.16180(14) 0.53477(11)
O29_3 O 0.16180(14) 0.03477(11) 0.76278(13)
O30_3 O 0.03477(11) 0.26278(13) 0.66180(14)
O33_3 O 0.46523(11) 0.16180(14) 0.76278(13)
O34_3 O 0.23722(13) 0.03477(11) 0.66180(14)
C15_3 C 0.24258(17) 0.45780(13) 0.32451(18)
C16_3 C 0.04220(13) 0.32451(18) 0.25742(17)
C17_3 C 0.24258(17) 0.17549(18) 0.54220(13)
C19_3 C 0.32451(18) 0.24258(17) 0.54220(13)
C20_3 C 0.17549(18) 0.04220(13) 0.74258(17)
C21_3 C 0.04220(13) 0.24258(17) 0.67549(18)
C24_3 C 0.45780(13) 0.17549(18) 0.74258(17)
C25_3 C 0.25742(17) 0.04220(13) 0.67549(18)
C26_3 C 0.22425(13) 0.43584(13) 0.33359(17)
C27_3 C 0.06416(13) 0.33359(17) 0.27575(13)
C28_3 C 0.22425(13) 0.16641(17) 0.56416(13)
C30_3 C 0.33359(17) 0.22425(13) 0.56416(13)
C31_3 C 0.16641(17) 0.06416(13) 0.72425(13)
C32_3 C 0.06416(13) 0.22425(13) 0.66641(17)
C35_3 C 0.43584(13) 0.16641(17) 0.72425(13)
C36_3 C 0.27575(13) 0.06416(13) 0.66641(17)
C37_3 C 0.20208(14) 0.42761(13) 0.31765(17)
C38_3 C 0.07239(13) 0.31765(17) 0.29792(14)
C39_3 C 0.20208(14) 0.18235(17) 0.57239(13)
C41_3 C 0.31765(17) 0.20208(14) 0.57239(13)
C42_3 C 0.18235(17) 0.07239(13) 0.70208(14)
C43_3 C 0.07239(13) 0.20208(14) 0.68235(17)
C46_3 C 0.42761(13) 0.18235(17) 0.70208(14)
C47_3 C 0.29792(14) 0.07239(13) 0.68235(17)
H14_3 H 0.1983 0.4365 0.3007
H15_3 H 0.0635 0.3007 0.3017
H16_3 H 0.1983 0.1993 0.5635
H18_3 H 0.3007 0.1983 0.5635
H19_3 H 0.1993 0.0635 0.6983
H20_3 H 0.0635 0.1983 0.6993
H23_3 H 0.4365 0.1993 0.6983
H24_3 H 0.3017 0.0635 0.6993
C48_3 C 0.18561(13) 0.40638(12) 0.32672(14)
C49_3 C 0.09362(12) 0.32672(14) 0.31439(13)
C50_3 C 0.18561(13) 0.17328(14) 0.59362(12)
C52_3 C 0.32672(14) 0.18561(13) 0.59362(12)
C53_3 C 0.17328(14) 0.09362(12) 0.68561(13)
C54_3 C 0.09362(12) 0.18561(13) 0.67328(14)
C57_3 C 0.40638(12) 0.17328(14) 0.68561(13)
C58_3 C 0.31439(13) 0.09362(12) 0.67328(14)
C59_3 C 0.19145(12) 0.39210(13) 0.35058(14)
C60_3 C 0.10790(13) 0.35058(14) 0.30855(12)
C61_3 C 0.19145(12) 0.14942(14) 0.60790(13)
C63_3 C 0.35058(14) 0.19145(12) 0.60790(13)
C64_3 C 0.10790(13) 0.19145(12) 0.64942(14)
C66_3 C 0.30855(12) 0.10790(13) 0.64942(14)
C67_3 C 0.14942(14) 0.10790(13) 0.69145(12)
C69_3 C 0.39210(13) 0.14942(14) 0.69145(12)
C70_3 C 0.21318(13) 0.40102(14) 0.36636(15)
C71_3 C 0.09898(14) 0.36636(15) 0.28682(13)
C72_3 C 0.21318(13) 0.13364(15) 0.59898(14)
C74_3 C 0.36636(15) 0.21318(13) 0.59898(14)
C75_3 C 0.09898(14) 0.21318(13) 0.63364(15)
C77_3 C 0.28682(13) 0.09898(14) 0.63364(15)
C78_3 C 0.13364(15) 0.09898(14) 0.71318(13)
C80_3 C 0.40102(14) 0.13364(15) 0.71318(13)
H25_3 H 0.2171 0.3920 0.3832
H26_3 H 0.1080 0.3832 0.2829
H27_3 H 0.2171 0.1168 0.6080
H29_3 H 0.3832 0.2171 0.6080
H30_3 H 0.1080 0.2171 0.6168
H32_3 H 0.2829 0.1080 0.6168
H33_3 H 0.1168 0.1080 0.7171
H35_3 H 0.3920 0.1168 0.7171
C81_3 C 0.22907(14) 0.42240(13) 0.35840(15)
C82_3 C 0.07760(13) 0.35840(15) 0.27093(14)
C83_3 C 0.22907(14) 0.14160(15) 0.57760(13)
C85_3 C 0.35840(15) 0.22907(14) 0.57760(13)
C86_3 C 0.07760(13) 0.22907(14) 0.64160(15)
C88_3 C 0.27093(14) 0.07760(13) 0.64160(15)
C89_3 C 0.14160(15) 0.07760(13) 0.72907(14)
C91_3 C 0.42240(13) 0.14160(15) 0.72907(14)
H36_3 H 0.2437 0.4283 0.3699
H37_3 H 0.0717 0.3699 0.2563
H38_3 H 0.2437 0.1301 0.5717
H40_3 H 0.3699 0.2437 0.5717
H41_3 H 0.0717 0.2437 0.6301
H43_3 H 0.2563 0.0717 0.6301
H44_3 H 0.1301 0.0717 0.7437
H46_3 H 0.4283 0.1301 0.7437
C92_3 C 0.10427(15) 0.31274(14) 0.34009(15)
C93_3 C 0.15991(15) 0.39573(15) 0.31274(14)
C94_3 C 0.15991(15) 0.18726(14) 0.60427(15)
C96_3 C 0.31274(14) 0.15991(15) 0.60427(15)
C97_3 C 0.18726(14) 0.10427(15) 0.65991(15)
C99_3 C 0.39573(15) 0.18726(14) 0.65991(15)
C100_3 C 0.10427(15) 0.15991(15) 0.68726(14)
C102_3 C 0.34009(15) 0.10427(15) 0.68726(14)
C103_3 C 0.12784(13) 0.33170(14) 0.34801(12)
C104_3 C 0.15199(12) 0.37216(13) 0.33170(14)
C105_3 C 0.15199(12) 0.16830(14) 0.62784(13)
C107_3 C 0.33170(14) 0.15199(12) 0.62784(13)
C108_3 C 0.16830(14) 0.12784(13) 0.65199(12)
C110_3 C 0.37216(13) 0.16830(14) 0.65199(12)
C111_3 C 0.12784(13) 0.15199(12) 0.66830(14)
C113_3 C 0.34801(12) 0.12784(13) 0.66830(14)
C114_3 C 0.17075(13) 0.36976(13) 0.35358(13)
C115_3 C 0.13024(13) 0.35358(13) 0.32925(13)
C116_3 C 0.17075(13) 0.14642(13) 0.63024(13)
C118_3 C 0.35358(13) 0.17075(13) 0.63024(13)
C119_3 C 0.13024(13) 0.17075(13) 0.64642(13)
C121_3 C 0.32925(13) 0.13024(13) 0.64642(13)
C122_3 C 0.14642(13) 0.13024(13) 0.67075(13)
C124_3 C 0.36976(13) 0.14642(13) 0.67075(13)
C125_3 C 0.08031(17) 0.3136(2) 0.36144(18)
C126_3 C 0.13856(18) 0.41969(17) 0.3136(2)
C127_3 C 0.13856(18) 0.1864(2) 0.58031(17)
C129_3 C 0.3136(2) 0.13856(18) 0.58031(17)
C130_3 C 0.1864(2) 0.08031(17) 0.63856(18)
C132_3 C 0.41969(17) 0.1864(2) 0.63856(18)
C133_3 C 0.08031(17) 0.13856(18) 0.6864(2)
C135_3 C 0.36144(18) 0.08031(17) 0.6864(2)
H47_3 H 0.0648 0.3026 0.3542
H48_3 H 0.1458 0.4352 0.3026
H49_3 H 0.1458 0.1974 0.5648
H51_3 H 0.3026 0.1458 0.5648
H52_3 H 0.1974 0.0648 0.6458
H54_3 H 0.4352 0.1974 0.6458
H55_3 H 0.0648 0.1458 0.6974
H57_3 H 0.3542 0.0648 0.6974
H58_3 H 0.0866 0.3047 0.3786
H59_3 H 0.1214 0.4134 0.3047
H60_3 H 0.1214 0.1953 0.5866
H62_3 H 0.3047 0.1214 0.5866
H63_3 H 0.1953 0.0866 0.6214
H65_3 H 0.4134 0.1953 0.6214
H66_3 H 0.0866 0.1214 0.6953
H68_3 H 0.3786 0.0866 0.6953
C136_3 C 0.0697(2) 0.3427(2) 0.3685(2)
C137_3 C 0.1315(2) 0.4303(2) 0.3427(2)
C138_3 C 0.1315(2) 0.1573(2) 0.5697(2)
C140_3 C 0.3427(2) 0.1315(2) 0.5697(2)
C141_3 C 0.1573(2) 0.0697(2) 0.6315(2)
C143_3 C 0.4303(2) 0.1573(2) 0.6315(2)
C144_3 C 0.0697(2) 0.1315(2) 0.6573(2)
C146_3 C 0.3685(2) 0.0697(2) 0.6573(2)
H69_3 H 0.0852 0.3545 0.3735
H70_3 H 0.1265 0.4148 0.3545
H71_3 H 0.1265 0.1455 0.5852
H73_3 H 0.3545 0.1265 0.5852
H74_3 H 0.1455 0.0852 0.6265
H76_3 H 0.4148 0.1455 0.6265
H77_3 H 0.0852 0.1265 0.6455
H79_3 H 0.3735 0.0852 0.6455
H80_3 H 0.0568 0.3416 0.3839
H81_3 H 0.1161 0.4432 0.3416
H82_3 H 0.1161 0.1584 0.5568
H84_3 H 0.3416 0.1161 0.5568
H85_3 H 0.1584 0.0568 0.6161
H87_3 H 0.4432 0.1584 0.6161
H88_3 H 0.0568 0.1161 0.6584
H90_3 H 0.3839 0.0568 0.6584
H91_3 H 0.0603 0.3504 0.3524
H92_3 H 0.1476 0.4397 0.3504
H93_3 H 0.1476 0.1496 0.5603
H95_3 H 0.3504 0.1476 0.5603
H96_3 H 0.1496 0.0603 0.6476
H98_3 H 0.4397 0.1496 0.6476
H99_3 H 0.0603 0.1476 0.6496
H101_3 H 0.3524 0.0603 0.6496
C147_3 C 0.11421(19) 0.28376(17) 0.33337(18)
C148_3 C 0.16663(18) 0.38579(19) 0.28376(17)
C149_3 C 0.16663(18) 0.21624(17) 0.61421(19)
C151_3 C 0.28376(17) 0.16663(18) 0.61421(19)
C152_3 C 0.21624(17) 0.11421(19) 0.66663(18)
C154_3 C 0.38579(19) 0.21624(17) 0.66663(18)
C155_3 C 0.11421(19) 0.16663(18) 0.71624(17)
C157_3 C 0.33337(18) 0.11421(19) 0.71624(17)
H102_3 H 0.0985 0.2730 0.3262
H103_3 H 0.1738 0.4015 0.2730
H104_3 H 0.1738 0.2270 0.5985
H106_3 H 0.2730 0.1738 0.5985
H107_3 H 0.2270 0.0985 0.6738
H109_3 H 0.4015 0.2270 0.6738
H110_3 H 0.0985 0.1738 0.7270
H112_3 H 0.3262 0.0985 0.7270
H113_3 H 0.1204 0.2749 0.3506
H114_3 H 0.1494 0.3796 0.2749
H115_3 H 0.1494 0.2251 0.6204
H117_3 H 0.2749 0.1494 0.6204
H118_3 H 0.2251 0.1204 0.6494
H120_3 H 0.3796 0.2251 0.6494
H121_3 H 0.1204 0.1494 0.7251
H123_3 H 0.3506 0.1204 0.7251
C158_3 C 0.1378(2) 0.28268(19) 0.3122(3)
C159_3 C 0.1878(3) 0.3622(2) 0.28268(19)
C160_3 C 0.1878(3) 0.21732(19) 0.6378(2)
C162_3 C 0.28268(19) 0.1878(3) 0.6378(2)
C163_3 C 0.21732(19) 0.1378(2) 0.6878(3)
C165_3 C 0.3622(2) 0.21732(19) 0.6878(3)
C166_3 C 0.1378(2) 0.1878(3) 0.71732(19)
C168_3 C 0.3122(3) 0.1378(2) 0.71732(19)
H124_3 H 0.1334 0.2947 0.2967
H125_3 H 0.2033 0.3666 0.2947
H126_3 H 0.2033 0.2053 0.6334
H128_3 H 0.2947 0.2033 0.6334
H129_3 H 0.2053 0.1334 0.7033
H131_3 H 0.3666 0.2053 0.7033
H132_3 H 0.1334 0.2033 0.7053
H134_3 H 0.2967 0.1334 0.7053
H135_3 H 0.1401 0.2638 0.3057
H136_3 H 0.1943 0.3599 0.2638
H137_3 H 0.1943 0.2362 0.6401
H139_3 H 0.2638 0.1943 0.6401
H140_3 H 0.2362 0.1401 0.6943
H142_3 H 0.3599 0.2362 0.6943
H143_3 H 0.1401 0.1943 0.7362
H145_3 H 0.3057 0.1401 0.7362
H146_3 H 0.1549 0.2889 0.3209
H147_3 H 0.1791 0.3451 0.2889
H148_3 H 0.1791 0.2111 0.6549
H150_3 H 0.2889 0.1791 0.6549
H151_3 H 0.2111 0.1549 0.6791
H153_3 H 0.3451 0.2111 0.6791
H154_3 H 0.1549 0.1791 0.7111
H156_3 H 0.3209 0.1549 0.7111
Cd9_6 Cd 0.19908(4) 1.0000 0.77582(3)
Cd10_6 Cd 0.22418(3) 1.0000 0.69908(4)
Cd18_6 Cd 0.30092(4) 1.0000 0.72418(3)
Cd7_6 Cd 1.0000 0.30092(4) 0.22418(3)
Cd8_6 Cd 1.0000 0.27582(3) 0.30092(4)
Cd11_6 Cd 1.0000 0.27582(3) 0.69908(4)
Cd12_6 Cd 1.0000 0.19908(4) 0.72418(3)
Cd17_4 Cd 0.0000 0.19908(4) 0.27582(3)
Cd14_2 Cd 0.0000 0.80092(4) 0.27582(3)
O4_4 O 0.7500 -0.0000 0.2500
Cd3_3 Cd 0.77582(3) -0.0000 0.30092(4)
Cd4_2 Cd 0.80092(4) -0.0000 0.22418(3)
Cd9_7 Cd 0.69908(4) 0.27582(3) 0.5000
Cd10_7 Cd 0.72418(3) 0.19908(4) 0.5000
Cd17_5 Cd 1.0000 0.19908(4) 0.27582(3)
Cd18_7 Cd 0.80092(4) 0.22418(3) 0.5000
O7_4 O 0.73885(12) 0.03099(11) 0.30080(15)
O11_4 O 0.80080(15) 0.03099(11) 0.26115(12)
O12_4 O 0.76115(12) 0.03099(11) 0.19920(15)
O14_4 O 0.69920(15) 0.23885(12) 0.46901(11)
O18_4 O 0.96901(11) 0.23885(12) 0.30080(15)
O19_4 O 0.76115(12) 0.19920(15) 0.46901(11)
O23_4 O 0.83820(14) 0.03477(11) 0.23722(13)
O26_4 O 0.73722(13) 0.03477(11) 0.16180(14)
O28_4 O 0.76278(13) 0.03477(11) 0.33820(14)
O29_4 O 0.66180(14) 0.26278(13) 0.46523(11)
O33_4 O 0.96523(11) 0.26278(13) 0.33820(14)
O34_4 O 0.73722(13) 0.16180(14) 0.46523(11)
C17_4 C 0.74258(17) 0.04220(13) 0.32451(18)
C19_4 C 0.82451(18) 0.04220(13) 0.25742(17)
C20_4 C 0.67549(18) 0.24258(17) 0.45780(13)
C21_4 C 0.54220(13) 0.17549(18) 0.25742(17)
C24_4 C 0.95780(13) 0.24258(17) 0.32451(18)
C25_4 C 0.75742(17) 0.17549(18) 0.45780(13)
C28_4 C 0.72425(13) 0.06416(13) 0.33359(17)
C30_4 C 0.83359(17) 0.06416(13) 0.27575(13)
C31_4 C 0.66641(17) 0.22425(13) 0.43584(13)
C32_4 C 0.56416(13) 0.16641(17) 0.27575(13)
C35_4 C 0.93584(13) 0.22425(13) 0.33359(17)
C36_4 C 0.77575(13) 0.16641(17) 0.43584(13)
C39_4 C 0.70208(14) 0.07239(13) 0.31765(17)
C41_4 C 0.81765(17) 0.07239(13) 0.29792(14)
C42_4 C 0.68235(17) 0.20208(14) 0.42761(13)
C43_4 C 0.57239(13) 0.18235(17) 0.29792(14)
C46_4 C 0.92761(13) 0.20208(14) 0.31765(17)
C47_4 C 0.79792(14) 0.18235(17) 0.42761(13)
H16_4 H 0.6983 0.0635 0.3007
H18_4 H 0.8007 0.0635 0.3017
H19_4 H 0.6993 0.1983 0.4365
H20_4 H 0.5635 0.1993 0.3017
H23_4 H 0.9365 0.1983 0.3007
H24_4 H 0.8017 0.1993 0.4365
C50_4 C 0.68561(13) 0.09362(12) 0.32672(14)
C52_4 C 0.82672(14) 0.09362(12) 0.31439(13)
C53_4 C 0.67328(14) 0.18561(13) 0.40638(12)
C54_4 C 0.59362(12) 0.17328(14) 0.31439(13)
C57_4 C 0.90638(12) 0.18561(13) 0.32672(14)
C58_4 C 0.81439(13) 0.17328(14) 0.40638(12)
C61_4 C 0.69145(12) 0.10790(13) 0.35058(14)
C63_4 C 0.85058(14) 0.10790(13) 0.30855(12)
C64_4 C 0.60790(13) 0.14942(14) 0.30855(12)
C66_4 C 0.80855(12) 0.14942(14) 0.39210(13)
C67_4 C 0.64942(14) 0.19145(12) 0.39210(13)
C69_4 C 0.89210(13) 0.19145(12) 0.35058(14)
C72_4 C 0.71318(13) 0.09898(14) 0.36636(15)
C74_4 C 0.86636(15) 0.09898(14) 0.28682(13)
C75_4 C 0.59898(14) 0.13364(15) 0.28682(13)
C77_4 C 0.78682(13) 0.13364(15) 0.40102(14)
C78_4 C 0.63364(15) 0.21318(13) 0.40102(14)
C80_4 C 0.90102(14) 0.21318(13) 0.36636(15)
H27_4 H 0.7171 0.1080 0.3832
H29_4 H 0.8832 0.1080 0.2829
H30_4 H 0.6080 0.1168 0.2829
H32_4 H 0.7829 0.1168 0.3920
H33_4 H 0.6168 0.2171 0.3920
H35_4 H 0.8920 0.2171 0.3832
C83_4 C 0.72907(14) 0.07760(13) 0.35840(15)
C85_4 C 0.85840(15) 0.07760(13) 0.27093(14)
C86_4 C 0.57760(13) 0.14160(15) 0.27093(14)
C88_4 C 0.77093(14) 0.14160(15) 0.42240(13)
C89_4 C 0.64160(15) 0.22907(14) 0.42240(13)
C91_4 C 0.92240(13) 0.22907(14) 0.35840(15)
H38_4 H 0.7437 0.0717 0.3699
H40_4 H 0.8699 0.0717 0.2563
H41_4 H 0.5717 0.1301 0.2563
H43_4 H 0.7563 0.1301 0.4283
H44_4 H 0.6301 0.2437 0.4283
H46_4 H 0.9283 0.2437 0.3699
C94_4 C 0.65991(15) 0.10427(15) 0.31274(14)
C96_4 C 0.81274(14) 0.10427(15) 0.34009(15)
C97_4 C 0.68726(14) 0.15991(15) 0.39573(15)
C99_4 C 0.89573(15) 0.15991(15) 0.31274(14)
C100_4 C 0.60427(15) 0.18726(14) 0.34009(15)
C102_4 C 0.84009(15) 0.18726(14) 0.39573(15)
C105_4 C 0.65199(12) 0.12784(13) 0.33170(14)
C107_4 C 0.83170(14) 0.12784(13) 0.34801(12)
C108_4 C 0.66830(14) 0.15199(12) 0.37216(13)
C110_4 C 0.87216(13) 0.15199(12) 0.33170(14)
C111_4 C 0.62784(13) 0.16830(14) 0.34801(12)
C113_4 C 0.84801(12) 0.16830(14) 0.37216(13)
C116_4 C 0.67075(13) 0.13024(13) 0.35358(13)
C118_4 C 0.85358(13) 0.13024(13) 0.32925(13)
C119_4 C 0.63024(13) 0.14642(13) 0.32925(13)
C121_4 C 0.82925(13) 0.14642(13) 0.36976(13)
C122_4 C 0.64642(13) 0.17075(13) 0.36976(13)
C124_4 C 0.86976(13) 0.17075(13) 0.35358(13)
C127_4 C 0.63856(18) 0.08031(17) 0.3136(2)
C129_4 C 0.8136(2) 0.08031(17) 0.36144(18)
C130_4 C 0.6864(2) 0.13856(18) 0.41969(17)
C132_4 C 0.91969(17) 0.13856(18) 0.3136(2)
C133_4 C 0.58031(17) 0.1864(2) 0.36144(18)
C135_4 C 0.86144(18) 0.1864(2) 0.41969(17)
H49_4 H 0.6458 0.0648 0.3026
H51_4 H 0.8026 0.0648 0.3542
H52_4 H 0.6974 0.1458 0.4352
H54_4 H 0.9352 0.1458 0.3026
H55_4 H 0.5648 0.1974 0.3542
H57_4 H 0.8542 0.1974 0.4352
H60_4 H 0.6214 0.0866 0.3047
H62_4 H 0.8047 0.0866 0.3786
H63_4 H 0.6953 0.1214 0.4134
H65_4 H 0.9134 0.1214 0.3047
H66_4 H 0.5866 0.1953 0.3786
H68_4 H 0.8786 0.1953 0.4134
C138_4 C 0.6315(2) 0.0697(2) 0.3427(2)
C140_4 C 0.8427(2) 0.0697(2) 0.3685(2)
C141_4 C 0.6573(2) 0.1315(2) 0.4303(2)
C143_4 C 0.9303(2) 0.1315(2) 0.3427(2)
C144_4 C 0.5697(2) 0.1573(2) 0.3685(2)
C146_4 C 0.8685(2) 0.1573(2) 0.4303(2)
H71_4 H 0.6265 0.0852 0.3545
H73_4 H 0.8545 0.0852 0.3735
H74_4 H 0.6455 0.1265 0.4148
H76_4 H 0.9148 0.1265 0.3545
H77_4 H 0.5852 0.1455 0.3735
H79_4 H 0.8735 0.1455 0.4148
H82_4 H 0.6161 0.0568 0.3416
H84_4 H 0.8416 0.0568 0.3839
H85_4 H 0.6584 0.1161 0.4432
H87_4 H 0.9432 0.1161 0.3416
H88_4 H 0.5568 0.1584 0.3839
H90_4 H 0.8839 0.1584 0.4432
H93_4 H 0.6476 0.0603 0.3504
H95_4 H 0.8504 0.0603 0.3524
H96_4 H 0.6496 0.1476 0.4397
H98_4 H 0.9397 0.1476 0.3504
H99_4 H 0.5603 0.1496 0.3524
H101_4 H 0.8524 0.1496 0.4397
C149_4 C 0.66663(18) 0.11421(19) 0.28376(17)
C151_4 C 0.78376(17) 0.11421(19) 0.33337(18)
C152_4 C 0.71624(17) 0.16663(18) 0.38579(19)
C154_4 C 0.88579(19) 0.16663(18) 0.28376(17)
C155_4 C 0.61421(19) 0.21624(17) 0.33337(18)
C157_4 C 0.83337(18) 0.21624(17) 0.38579(19)
H104_4 H 0.6738 0.0985 0.2730
H106_4 H 0.7730 0.0985 0.3262
H107_4 H 0.7270 0.1738 0.4015
H109_4 H 0.9015 0.1738 0.2730
H110_4 H 0.5985 0.2270 0.3262
H112_4 H 0.8262 0.2270 0.4015
H115_4 H 0.6494 0.1204 0.2749
H117_4 H 0.7749 0.1204 0.3506
H118_4 H 0.7251 0.1494 0.3796
H120_4 H 0.8796 0.1494 0.2749
H121_4 H 0.6204 0.2251 0.3506
H123_4 H 0.8506 0.2251 0.3796
C160_4 C 0.6878(3) 0.1378(2) 0.28268(19)
C162_4 C 0.78268(19) 0.1378(2) 0.3122(3)
C163_4 C 0.71732(19) 0.1878(3) 0.3622(2)
C165_4 C 0.8622(2) 0.1878(3) 0.28268(19)
C166_4 C 0.6378(2) 0.21732(19) 0.3122(3)
C168_4 C 0.8122(3) 0.21732(19) 0.3622(2)
H126_4 H 0.7033 0.1334 0.2947
H128_4 H 0.7947 0.1334 0.2967
H129_4 H 0.7053 0.2033 0.3666
H131_4 H 0.8666 0.2033 0.2947
H132_4 H 0.6334 0.2053 0.2967
H134_4 H 0.7967 0.2053 0.3666
H137_4 H 0.6943 0.1401 0.2638
H139_4 H 0.7638 0.1401 0.3057
H140_4 H 0.7362 0.1943 0.3599
H142_4 H 0.8599 0.1943 0.2638
H143_4 H 0.6401 0.2362 0.3057
H145_4 H 0.8057 0.2362 0.3599
H148_4 H 0.6791 0.1549 0.2889
H150_4 H 0.7889 0.1549 0.3209
H151_4 H 0.7111 0.1791 0.3451
H153_4 H 0.8451 0.1791 0.2889
H154_4 H 0.6549 0.2111 0.3209
H156_4 H 0.8209 0.2111 0.3451
O2_4 O 0.69920(15) 0.96901(11) 0.23885(12)
O3_4 O 0.66180(14) 0.96523(11) 0.26278(13)
O4_5 O 0.7500 1.0000 0.2500
C1_4 C 0.67549(18) 0.95780(13) 0.24258(17)
C2_4 C 0.66641(17) 0.93584(13) 0.22425(13)
C3_4 C 0.68235(17) 0.92761(13) 0.20208(14)
H1_4 H 0.6993 0.9365 0.1983
C4_4 C 0.67328(14) 0.90638(12) 0.18561(13)
C5_4 C 0.64942(14) 0.89210(13) 0.19145(12)
C6_4 C 0.63364(15) 0.90102(14) 0.21318(13)
H2_4 H 0.6168 0.8920 0.2171
C7_4 C 0.64160(15) 0.92240(13) 0.22907(14)
H3_4 H 0.6301 0.9283 0.2437
C8_4 C 0.68726(14) 0.89573(15) 0.15991(15)
C9_4 C 0.66830(14) 0.87216(13) 0.15199(12)
C10_4 C 0.64642(13) 0.86976(13) 0.17075(13)
C11_4 C 0.6864(2) 0.91969(17) 0.13856(18)
H4_4 H 0.6974 0.9352 0.1458
H5_4 H 0.6953 0.9134 0.1214
C12_4 C 0.6573(2) 0.9303(2) 0.1315(2)
H6_4 H 0.6455 0.9148 0.1265
H7_4 H 0.6584 0.9432 0.1161
H8_4 H 0.6496 0.9397 0.1476
C13_4 C 0.71624(17) 0.88579(19) 0.16663(18)
H9_4 H 0.7270 0.9015 0.1738
H10_4 H 0.7251 0.8796 0.1494
C14_4 C 0.71732(19) 0.8622(2) 0.1878(3)
H11_4 H 0.7053 0.8666 0.2033
H12_4 H 0.7362 0.8599 0.1943
H13_4 H 0.7111 0.8451 0.1791
Cd3_4 Cd 0.77582(3) 1.0000 0.30092(4)
Cd4_3 Cd 0.80092(4) 1.0000 0.22418(3)
Cd5_2 Cd 0.77582(3) 0.80092(4) 0.0000
Cd6_2 Cd 0.69908(4) 0.77582(3) 0.0000
Cd7_7 Cd 0.5000 0.72418(3) 0.19908(4)
Cd8_7 Cd 0.5000 0.80092(4) 0.22418(3)
Cd13_2 Cd 0.80092(4) 0.72418(3) 0.0000
Cd14_3 Cd 1.0000 0.80092(4) 0.27582(3)
O5_4 O 0.73885(12) 0.96901(11) 0.30080(15)
O8_2 O 0.73885(12) 0.80080(15) 0.03099(11)
O9_4 O 0.53099(11) 0.76115(12) 0.19920(15)
O10_2 O 0.76115(12) 0.96901(11) 0.19920(15)
O13_3 O 0.80080(15) 0.96901(11) 0.26115(12)
O16_2 O 0.80080(15) 0.76115(12) 0.03099(11)
O17_2 O 0.96901(11) 0.80080(15) 0.23885(12)
O21_2 O 0.76278(13) 0.83820(14) 0.03477(11)
O22_4 O 0.53477(11) 0.73722(13) 0.16180(14)
O24_3 O 0.83820(14) 0.96523(11) 0.23722(13)
O25_2 O 0.73722(13) 0.96523(11) 0.16180(14)
O27_4 O 0.76278(13) 0.96523(11) 0.33820(14)
O31_2 O 0.83820(14) 0.73722(13) 0.03477(11)
O32_2 O 0.96523(11) 0.83820(14) 0.26278(13)
C15_4 C 0.74258(17) 0.82451(18) 0.04220(13)
C16_4 C 0.54220(13) 0.75742(17) 0.17549(18)
C18_2 C 0.75742(17) 0.95780(13) 0.17549(18)
C22_2 C 0.82451(18) 0.75742(17) 0.04220(13)
C23_2 C 0.95780(13) 0.82451(18) 0.24258(17)
C26_4 C 0.72425(13) 0.83359(17) 0.06416(13)
C27_4 C 0.56416(13) 0.77575(13) 0.16641(17)
C29_2 C 0.77575(13) 0.93584(13) 0.16641(17)
C33_2 C 0.83359(17) 0.77575(13) 0.06416(13)
C34_2 C 0.93584(13) 0.83359(17) 0.22425(13)
C37_4 C 0.70208(14) 0.81765(17) 0.07239(13)
C38_4 C 0.57239(13) 0.79792(14) 0.18235(17)
C40_2 C 0.79792(14) 0.92761(13) 0.18235(17)
C44_2 C 0.81765(17) 0.79792(14) 0.07239(13)
C45_2 C 0.92761(13) 0.81765(17) 0.20208(14)
H14_4 H 0.6983 0.8007 0.0635
H15_4 H 0.5635 0.8017 0.1993
H17_2 H 0.8017 0.9365 0.1993
H21_2 H 0.8007 0.8017 0.0635
H22_2 H 0.9365 0.8007 0.1983
C48_4 C 0.68561(13) 0.82672(14) 0.09362(12)
C49_4 C 0.59362(12) 0.81439(13) 0.17328(14)
C51_2 C 0.81439(13) 0.90638(12) 0.17328(14)
C55_2 C 0.82672(14) 0.81439(13) 0.09362(12)
C56_2 C 0.90638(12) 0.82672(14) 0.18561(13)
C59_4 C 0.69145(12) 0.85058(14) 0.10790(13)
C60_4 C 0.60790(13) 0.80855(12) 0.14942(14)
C62_2 C 0.80855(12) 0.89210(13) 0.14942(14)
C65_2 C 0.89210(13) 0.85058(14) 0.19145(12)
C68_2 C 0.85058(14) 0.80855(12) 0.10790(13)
C70_4 C 0.71318(13) 0.86636(15) 0.09898(14)
C71_4 C 0.59898(14) 0.78682(13) 0.13364(15)
C73_2 C 0.78682(13) 0.90102(14) 0.13364(15)
C76_2 C 0.90102(14) 0.86636(15) 0.21318(13)
C79_2 C 0.86636(15) 0.78682(13) 0.09898(14)
H25_4 H 0.7171 0.8832 0.1080
H26_4 H 0.6080 0.7829 0.1168
H28_2 H 0.7829 0.8920 0.1168
H31_2 H 0.8920 0.8832 0.2171
H34_2 H 0.8832 0.7829 0.1080
C81_4 C 0.72907(14) 0.85840(15) 0.07760(13)
C82_4 C 0.57760(13) 0.77093(14) 0.14160(15)
C84_2 C 0.77093(14) 0.92240(13) 0.14160(15)
C87_2 C 0.92240(13) 0.85840(15) 0.22907(14)
C90_2 C 0.85840(15) 0.77093(14) 0.07760(13)
H36_4 H 0.7437 0.8699 0.0717
H37_4 H 0.5717 0.7563 0.1301
H39_2 H 0.7563 0.9283 0.1301
H42_2 H 0.9283 0.8699 0.2437
H45_2 H 0.8699 0.7563 0.0717
C92_4 C 0.60427(15) 0.84009(15) 0.18726(14)
C93_4 C 0.65991(15) 0.81274(14) 0.10427(15)
C95_2 C 0.84009(15) 0.89573(15) 0.18726(14)
C98_2 C 0.81274(14) 0.84009(15) 0.10427(15)
C101_2 C 0.89573(15) 0.81274(14) 0.15991(15)
C103_4 C 0.62784(13) 0.84801(12) 0.16830(14)
C104_4 C 0.65199(12) 0.83170(14) 0.12784(13)
C106_2 C 0.84801(12) 0.87216(13) 0.16830(14)
C109_2 C 0.83170(14) 0.84801(12) 0.12784(13)
C112_2 C 0.87216(13) 0.83170(14) 0.15199(12)
C114_4 C 0.67075(13) 0.85358(13) 0.13024(13)
C115_4 C 0.63024(13) 0.82925(13) 0.14642(13)
C117_2 C 0.82925(13) 0.86976(13) 0.14642(13)
C120_2 C 0.86976(13) 0.85358(13) 0.17075(13)
C123_2 C 0.85358(13) 0.82925(13) 0.13024(13)
C125_4 C 0.58031(17) 0.86144(18) 0.1864(2)
C126_4 C 0.63856(18) 0.8136(2) 0.08031(17)
C128_2 C 0.86144(18) 0.91969(17) 0.1864(2)
C131_2 C 0.8136(2) 0.86144(18) 0.08031(17)
C134_2 C 0.91969(17) 0.8136(2) 0.13856(18)
H47_4 H 0.5648 0.8542 0.1974
H48_4 H 0.6458 0.8026 0.0648
H50_2 H 0.8542 0.9352 0.1974
H53_2 H 0.8026 0.8542 0.0648
H56_2 H 0.9352 0.8026 0.1458
H58_4 H 0.5866 0.8786 0.1953
H59_4 H 0.6214 0.8047 0.0866
H61_2 H 0.8786 0.9134 0.1953
H64_2 H 0.8047 0.8786 0.0866
H67_2 H 0.9134 0.8047 0.1214
C136_4 C 0.5697(2) 0.8685(2) 0.1573(2)
C137_4 C 0.6315(2) 0.8427(2) 0.0697(2)
C139_2 C 0.8685(2) 0.9303(2) 0.1573(2)
C142_2 C 0.8427(2) 0.8685(2) 0.0697(2)
C145_2 C 0.9303(2) 0.8427(2) 0.1315(2)
H69_4 H 0.5852 0.8735 0.1455
H70_4 H 0.6265 0.8545 0.0852
H72_2 H 0.8735 0.9148 0.1455
H75_2 H 0.8545 0.8735 0.0852
H78_2 H 0.9148 0.8545 0.1265
H80_4 H 0.5568 0.8839 0.1584
H81_4 H 0.6161 0.8416 0.0568
H83_2 H 0.8839 0.9432 0.1584
H86_2 H 0.8416 0.8839 0.0568
H89_2 H 0.9432 0.8416 0.1161
H91_4 H 0.5603 0.8524 0.1496
H92_4 H 0.6476 0.8504 0.0603
H94_2 H 0.8524 0.9397 0.1496
H97_2 H 0.8504 0.8524 0.0603
H100_2 H 0.9397 0.8504 0.1476
C147_4 C 0.61421(19) 0.83337(18) 0.21624(17)
C148_4 C 0.66663(18) 0.78376(17) 0.11421(19)
C150_2 C 0.83337(18) 0.88579(19) 0.21624(17)
C153_2 C 0.78376(17) 0.83337(18) 0.11421(19)
C156_2 C 0.88579(19) 0.78376(17) 0.16663(18)
H102_4 H 0.5985 0.8262 0.2270
H103_4 H 0.6738 0.7730 0.0985
H105_2 H 0.8262 0.9015 0.2270
H108_2 H 0.7730 0.8262 0.0985
H111_2 H 0.9015 0.7730 0.1738
H113_4 H 0.6204 0.8506 0.2251
H114_4 H 0.6494 0.7749 0.1204
H116_2 H 0.8506 0.8796 0.2251
H119_2 H 0.7749 0.8506 0.1204
H122_2 H 0.8796 0.7749 0.1494
C158_4 C 0.6378(2) 0.8122(3) 0.21732(19)
C159_4 C 0.6878(3) 0.78268(19) 0.1378(2)
C161_2 C 0.8122(3) 0.8622(2) 0.21732(19)
C164_2 C 0.78268(19) 0.8122(3) 0.1378(2)
C167_2 C 0.8622(2) 0.78268(19) 0.1878(3)
H124_4 H 0.6334 0.7967 0.2053
H125_4 H 0.7033 0.7947 0.1334
H127_2 H 0.7967 0.8666 0.2053
H130_2 H 0.7947 0.7967 0.1334
H133_2 H 0.8666 0.7947 0.2033
H135_4 H 0.6401 0.8057 0.2362
H136_4 H 0.6943 0.7638 0.1401
H138_2 H 0.8057 0.8599 0.2362
H141_2 H 0.7638 0.8057 0.1401
H144_2 H 0.8599 0.7638 0.1943
H146_4 H 0.6549 0.8209 0.2111
H147_4 H 0.6791 0.7889 0.1549
H149_2 H 0.8209 0.8451 0.2111
H152_2 H 0.7889 0.8209 0.1549
H155_2 H 0.8451 0.7889 0.1791
Cd5_3 Cd 0.77582(3) 0.80092(4) 1.0000
Cd6_3 Cd 0.69908(4) 0.77582(3) 1.0000
Cd13_3 Cd 0.80092(4) 0.72418(3) 1.0000
Cd15_2 Cd -0.0000 0.22418(3) 0.80092(4)
Cd16_4 Cd -0.0000 0.72418(3) 0.69908(4)
Cd17_6 Cd 0.0000 0.80092(4) 0.72418(3)
Cd13_4 Cd 0.80092(4) 0.27582(3) 0.0000
Cd1_4 Cd 0.69908(4) -0.0000 0.72418(3)
O2_5 O 0.69920(15) 0.03099(11) 0.76115(12)
O3_5 O 0.66180(14) 0.03477(11) 0.73722(13)
O4_6 O 0.7500 0.0000 0.7500
C1_5 C 0.67549(18) 0.04220(13) 0.75742(17)
C2_5 C 0.66641(17) 0.06416(13) 0.77575(13)
C3_5 C 0.68235(17) 0.07239(13) 0.79792(14)
H1_5 H 0.6993 0.0635 0.8017
C4_5 C 0.67328(14) 0.09362(12) 0.81439(13)
C5_5 C 0.64942(14) 0.10790(13) 0.80855(12)
C6_5 C 0.63364(15) 0.09898(14) 0.78682(13)
H2_5 H 0.6168 0.1080 0.7829
C7_5 C 0.64160(15) 0.07760(13) 0.77093(14)
H3_5 H 0.6301 0.0717 0.7563
C8_5 C 0.68726(14) 0.10427(15) 0.84009(15)
C9_5 C 0.66830(14) 0.12784(13) 0.84801(12)
C10_5 C 0.64642(13) 0.13024(13) 0.82925(13)
C11_5 C 0.6864(2) 0.08031(17) 0.86144(18)
H4_5 H 0.6974 0.0648 0.8542
H5_5 H 0.6953 0.0866 0.8786
C12_5 C 0.6573(2) 0.0697(2) 0.8685(2)
H6_5 H 0.6455 0.0852 0.8735
H7_5 H 0.6584 0.0568 0.8839
H8_5 H 0.6496 0.0603 0.8524
C13_5 C 0.71624(17) 0.11421(19) 0.83337(18)
H9_5 H 0.7270 0.0985 0.8262
H10_5 H 0.7251 0.1204 0.8506
C14_5 C 0.71732(19) 0.1378(2) 0.8122(3)
H11_5 H 0.7053 0.1334 0.7967
H12_5 H 0.7362 0.1401 0.8057
H13_5 H 0.7111 0.1549 0.8209
Cd2_2 Cd 0.72418(3) -0.0000 0.80092(4)
Cd3_5 Cd 0.77582(3) 0.0000 0.69908(4)
Cd4_4 Cd 0.80092(4) 0.0000 0.77582(3)
Cd7_8 Cd 0.5000 0.27582(3) 0.80092(4)
Cd13_5 Cd 0.80092(4) 0.27582(3) 1.0000
Cd15_3 Cd 1.0000 0.22418(3) 0.80092(4)
O5_5 O 0.73885(12) 0.03099(11) 0.69920(15)
O8_3 O 0.73885(12) 0.19920(15) 0.96901(11)
O9_5 O 0.53099(11) 0.23885(12) 0.80080(15)
O10_3 O 0.76115(12) 0.03099(11) 0.80080(15)
O13_4 O 0.80080(15) 0.03099(11) 0.73885(12)
O16_3 O 0.80080(15) 0.23885(12) 0.96901(11)
O17_3 O 0.96901(11) 0.19920(15) 0.76115(12)
O21_3 O 0.76278(13) 0.16180(14) 0.96523(11)
O22_5 O 0.53477(11) 0.26278(13) 0.83820(14)
O24_4 O 0.83820(14) 0.03477(11) 0.76278(13)
O25_3 O 0.73722(13) 0.03477(11) 0.83820(14)
O27_5 O 0.76278(13) 0.03477(11) 0.66180(14)
O31_3 O 0.83820(14) 0.26278(13) 0.96523(11)
O32_3 O 0.96523(11) 0.16180(14) 0.73722(13)
C15_5 C 0.74258(17) 0.17549(18) 0.95780(13)
C16_5 C 0.54220(13) 0.24258(17) 0.82451(18)
C18_3 C 0.75742(17) 0.04220(13) 0.82451(18)
C22_3 C 0.82451(18) 0.24258(17) 0.95780(13)
C23_3 C 0.95780(13) 0.17549(18) 0.75742(17)
C26_5 C 0.72425(13) 0.16641(17) 0.93584(13)
C27_5 C 0.56416(13) 0.22425(13) 0.83359(17)
C29_3 C 0.77575(13) 0.06416(13) 0.83359(17)
C33_3 C 0.83359(17) 0.22425(13) 0.93584(13)
C34_3 C 0.93584(13) 0.16641(17) 0.77575(13)
C37_5 C 0.70208(14) 0.18235(17) 0.92761(13)
C38_5 C 0.57239(13) 0.20208(14) 0.81765(17)
C40_3 C 0.79792(14) 0.07239(13) 0.81765(17)
C44_3 C 0.81765(17) 0.20208(14) 0.92761(13)
C45_3 C 0.92761(13) 0.18235(17) 0.79792(14)
H14_5 H 0.6983 0.1993 0.9365
H15_5 H 0.5635 0.1983 0.8007
H17_3 H 0.8017 0.0635 0.8007
H21_3 H 0.8007 0.1983 0.9365
H22_3 H 0.9365 0.1993 0.8017
C48_5 C 0.68561(13) 0.17328(14) 0.90638(12)
C49_5 C 0.59362(12) 0.18561(13) 0.82672(14)
C51_3 C 0.81439(13) 0.09362(12) 0.82672(14)
C55_3 C 0.82672(14) 0.18561(13) 0.90638(12)
C56_3 C 0.90638(12) 0.17328(14) 0.81439(13)
C59_5 C 0.69145(12) 0.14942(14) 0.89210(13)
C60_5 C 0.60790(13) 0.19145(12) 0.85058(14)
C62_3 C 0.80855(12) 0.10790(13) 0.85058(14)
C65_3 C 0.89210(13) 0.14942(14) 0.80855(12)
C68_3 C 0.85058(14) 0.19145(12) 0.89210(13)
C70_5 C 0.71318(13) 0.13364(15) 0.90102(14)
C71_5 C 0.59898(14) 0.21318(13) 0.86636(15)
C73_3 C 0.78682(13) 0.09898(14) 0.86636(15)
C76_3 C 0.90102(14) 0.13364(15) 0.78682(13)
C79_3 C 0.86636(15) 0.21318(13) 0.90102(14)
H25_5 H 0.7171 0.1168 0.8920
H26_5 H 0.6080 0.2171 0.8832
H28_3 H 0.7829 0.1080 0.8832
H31_3 H 0.8920 0.1168 0.7829
H34_3 H 0.8832 0.2171 0.8920
C81_5 C 0.72907(14) 0.14160(15) 0.92240(13)
C82_5 C 0.57760(13) 0.22907(14) 0.85840(15)
C84_3 C 0.77093(14) 0.07760(13) 0.85840(15)
C87_3 C 0.92240(13) 0.14160(15) 0.77093(14)
C90_3 C 0.85840(15) 0.22907(14) 0.92240(13)
H36_5 H 0.7437 0.1301 0.9283
H37_5 H 0.5717 0.2437 0.8699
H39_3 H 0.7563 0.0717 0.8699
H42_3 H 0.9283 0.1301 0.7563
H45_3 H 0.8699 0.2437 0.9283
C92_5 C 0.60427(15) 0.15991(15) 0.81274(14)
C93_5 C 0.65991(15) 0.18726(14) 0.89573(15)
C95_3 C 0.84009(15) 0.10427(15) 0.81274(14)
C98_3 C 0.81274(14) 0.15991(15) 0.89573(15)
C101_3 C 0.89573(15) 0.18726(14) 0.84009(15)
C103_5 C 0.62784(13) 0.15199(12) 0.83170(14)
C104_5 C 0.65199(12) 0.16830(14) 0.87216(13)
C106_3 C 0.84801(12) 0.12784(13) 0.83170(14)
C109_3 C 0.83170(14) 0.15199(12) 0.87216(13)
C112_3 C 0.87216(13) 0.16830(14) 0.84801(12)
C114_5 C 0.67075(13) 0.14642(13) 0.86976(13)
C115_5 C 0.63024(13) 0.17075(13) 0.85358(13)
C117_3 C 0.82925(13) 0.13024(13) 0.85358(13)
C120_3 C 0.86976(13) 0.14642(13) 0.82925(13)
C123_3 C 0.85358(13) 0.17075(13) 0.86976(13)
C125_5 C 0.58031(17) 0.13856(18) 0.8136(2)
C126_5 C 0.63856(18) 0.1864(2) 0.91969(17)
C128_3 C 0.86144(18) 0.08031(17) 0.8136(2)
C131_3 C 0.8136(2) 0.13856(18) 0.91969(17)
C134_3 C 0.91969(17) 0.1864(2) 0.86144(18)
H47_5 H 0.5648 0.1458 0.8026
H48_5 H 0.6458 0.1974 0.9352
H50_3 H 0.8542 0.0648 0.8026
H53_3 H 0.8026 0.1458 0.9352
H56_3 H 0.9352 0.1974 0.8542
H58_5 H 0.5866 0.1214 0.8047
H59_5 H 0.6214 0.1953 0.9134
H61_3 H 0.8786 0.0866 0.8047
H64_3 H 0.8047 0.1214 0.9134
H67_3 H 0.9134 0.1953 0.8786
C136_5 C 0.5697(2) 0.1315(2) 0.8427(2)
C137_5 C 0.6315(2) 0.1573(2) 0.9303(2)
C139_3 C 0.8685(2) 0.0697(2) 0.8427(2)
C142_3 C 0.8427(2) 0.1315(2) 0.9303(2)
C145_3 C 0.9303(2) 0.1573(2) 0.8685(2)
H69_5 H 0.5852 0.1265 0.8545
H70_5 H 0.6265 0.1455 0.9148
H72_3 H 0.8735 0.0852 0.8545
H75_3 H 0.8545 0.1265 0.9148
H78_3 H 0.9148 0.1455 0.8735
H80_5 H 0.5568 0.1161 0.8416
H81_5 H 0.6161 0.1584 0.9432
H83_3 H 0.8839 0.0568 0.8416
H86_3 H 0.8416 0.1161 0.9432
H89_3 H 0.9432 0.1584 0.8839
H91_5 H 0.5603 0.1476 0.8504
H92_5 H 0.6476 0.1496 0.9397
H94_3 H 0.8524 0.0603 0.8504
H97_3 H 0.8504 0.1476 0.9397
H100_3 H 0.9397 0.1496 0.8524
C147_5 C 0.61421(19) 0.16663(18) 0.78376(17)
C148_5 C 0.66663(18) 0.21624(17) 0.88579(19)
C150_3 C 0.83337(18) 0.11421(19) 0.78376(17)
C153_3 C 0.78376(17) 0.16663(18) 0.88579(19)
C156_3 C 0.88579(19) 0.21624(17) 0.83337(18)
H102_5 H 0.5985 0.1738 0.7730
H103_5 H 0.6738 0.2270 0.9015
H105_3 H 0.8262 0.0985 0.7730
H108_3 H 0.7730 0.1738 0.9015
H111_3 H 0.9015 0.2270 0.8262
H113_5 H 0.6204 0.1494 0.7749
H114_5 H 0.6494 0.2251 0.8796
H116_3 H 0.8506 0.1204 0.7749
H119_3 H 0.7749 0.1494 0.8796
H122_3 H 0.8796 0.2251 0.8506
C158_5 C 0.6378(2) 0.1878(3) 0.78268(19)
C159_5 C 0.6878(3) 0.21732(19) 0.8622(2)
C161_3 C 0.8122(3) 0.1378(2) 0.78268(19)
C164_3 C 0.78268(19) 0.1878(3) 0.8622(2)
C167_3 C 0.8622(2) 0.21732(19) 0.8122(3)
H124_5 H 0.6334 0.2033 0.7947
H125_5 H 0.7033 0.2053 0.8666
H127_3 H 0.7967 0.1334 0.7947
H130_3 H 0.7947 0.2033 0.8666
H133_3 H 0.8666 0.2053 0.7967
H135_5 H 0.6401 0.1943 0.7638
H136_5 H 0.6943 0.2362 0.8599
H138_3 H 0.8057 0.1401 0.7638
H141_3 H 0.7638 0.1943 0.8599
H144_3 H 0.8599 0.2362 0.8057
H146_5 H 0.6549 0.1791 0.7889
H147_5 H 0.6791 0.2111 0.8451
H149_3 H 0.8209 0.1549 0.7889
H152_3 H 0.7889 0.1791 0.8451
H155_3 H 0.8451 0.2111 0.8209
Cd1_5 Cd 0.69908(4) 1.0000 0.72418(3)
O4_7 O 0.7500 1.0000 0.7500
Cd2_3 Cd 0.72418(3) 1.0000 0.80092(4)
Cd3_6 Cd 0.77582(3) 1.0000 0.69908(4)
Cd4_5 Cd 0.80092(4) 1.0000 0.77582(3)
Cd9_8 Cd 0.69908(4) 0.72418(3) 0.5000
Cd10_8 Cd 0.72418(3) 0.80092(4) 0.5000
Cd11_7 Cd 0.5000 0.80092(4) 0.77582(3)
Cd12_7 Cd 0.5000 0.77582(3) 0.69908(4)
Cd16_5 Cd 1.0000 0.72418(3) 0.69908(4)
Cd17_7 Cd 1.0000 0.80092(4) 0.72418(3)
Cd18_8 Cd 0.80092(4) 0.77582(3) 0.5000
O6_4 O 0.69920(15) 0.96901(11) 0.76115(12)
O7_5 O 0.73885(12) 0.96901(11) 0.69920(15)
O11_5 O 0.80080(15) 0.96901(11) 0.73885(12)
O12_5 O 0.76115(12) 0.96901(11) 0.80080(15)
O14_5 O 0.69920(15) 0.76115(12) 0.53099(11)
O15_4 O 0.53099(11) 0.80080(15) 0.73885(12)
O18_5 O 0.96901(11) 0.76115(12) 0.69920(15)
O19_5 O 0.76115(12) 0.80080(15) 0.53099(11)
O20_4 O 0.66180(14) 0.96523(11) 0.73722(13)
O23_5 O 0.83820(14) 0.96523(11) 0.76278(13)
O26_5 O 0.73722(13) 0.96523(11) 0.83820(14)
O28_5 O 0.76278(13) 0.96523(11) 0.66180(14)
O29_5 O 0.66180(14) 0.73722(13) 0.53477(11)
O30_4 O 0.53477(11) 0.83820(14) 0.76278(13)
O33_5 O 0.96523(11) 0.73722(13) 0.66180(14)
O34_5 O 0.73722(13) 0.83820(14) 0.53477(11)
C17_5 C 0.74258(17) 0.95780(13) 0.67549(18)
C19_5 C 0.82451(18) 0.95780(13) 0.74258(17)
C20_5 C 0.67549(18) 0.75742(17) 0.54220(13)
C21_5 C 0.54220(13) 0.82451(18) 0.74258(17)
C24_5 C 0.95780(13) 0.75742(17) 0.67549(18)
C25_5 C 0.75742(17) 0.82451(18) 0.54220(13)
C28_5 C 0.72425(13) 0.93584(13) 0.66641(17)
C30_5 C 0.83359(17) 0.93584(13) 0.72425(13)
C31_5 C 0.66641(17) 0.77575(13) 0.56416(13)
C32_5 C 0.56416(13) 0.83359(17) 0.72425(13)
C35_5 C 0.93584(13) 0.77575(13) 0.66641(17)
C36_5 C 0.77575(13) 0.83359(17) 0.56416(13)
C39_5 C 0.70208(14) 0.92761(13) 0.68235(17)
C41_5 C 0.81765(17) 0.92761(13) 0.70208(14)
C42_5 C 0.68235(17) 0.79792(14) 0.57239(13)
C43_5 C 0.57239(13) 0.81765(17) 0.70208(14)
C46_5 C 0.92761(13) 0.79792(14) 0.68235(17)
C47_5 C 0.79792(14) 0.81765(17) 0.57239(13)
H16_5 H 0.6983 0.9365 0.6993
H18_5 H 0.8007 0.9365 0.6983
H19_5 H 0.6993 0.8017 0.5635
H20_5 H 0.5635 0.8007 0.6983
H23_5 H 0.9365 0.8017 0.6993
H24_5 H 0.8017 0.8007 0.5635
C50_5 C 0.68561(13) 0.90638(12) 0.67328(14)
C52_5 C 0.82672(14) 0.90638(12) 0.68561(13)
C53_5 C 0.67328(14) 0.81439(13) 0.59362(12)
C54_5 C 0.59362(12) 0.82672(14) 0.68561(13)
C57_5 C 0.90638(12) 0.81439(13) 0.67328(14)
C58_5 C 0.81439(13) 0.82672(14) 0.59362(12)
C61_5 C 0.69145(12) 0.89210(13) 0.64942(14)
C63_5 C 0.85058(14) 0.89210(13) 0.69145(12)
C64_5 C 0.60790(13) 0.85058(14) 0.69145(12)
C66_5 C 0.80855(12) 0.85058(14) 0.60790(13)
C67_5 C 0.64942(14) 0.80855(12) 0.60790(13)
C69_5 C 0.89210(13) 0.80855(12) 0.64942(14)
C72_5 C 0.71318(13) 0.90102(14) 0.63364(15)
C74_5 C 0.86636(15) 0.90102(14) 0.71318(13)
C75_5 C 0.59898(14) 0.86636(15) 0.71318(13)
C77_5 C 0.78682(13) 0.86636(15) 0.59898(14)
C78_5 C 0.63364(15) 0.78682(13) 0.59898(14)
C80_5 C 0.90102(14) 0.78682(13) 0.63364(15)
H27_5 H 0.7171 0.8920 0.6168
H29_5 H 0.8832 0.8920 0.7171
H30_5 H 0.6080 0.8832 0.7171
H32_5 H 0.7829 0.8832 0.6080
H33_5 H 0.6168 0.7829 0.6080
H35_5 H 0.8920 0.7829 0.6168
C83_5 C 0.72907(14) 0.92240(13) 0.64160(15)
C85_5 C 0.85840(15) 0.92240(13) 0.72907(14)
C86_5 C 0.57760(13) 0.85840(15) 0.72907(14)
C88_5 C 0.77093(14) 0.85840(15) 0.57760(13)
C89_5 C 0.64160(15) 0.77093(14) 0.57760(13)
C91_5 C 0.92240(13) 0.77093(14) 0.64160(15)
H38_5 H 0.7437 0.9283 0.6301
H40_5 H 0.8699 0.9283 0.7437
H41_5 H 0.5717 0.8699 0.7437
H43_5 H 0.7563 0.8699 0.5717
H44_5 H 0.6301 0.7563 0.5717
H46_5 H 0.9283 0.7563 0.6301
C94_5 C 0.65991(15) 0.89573(15) 0.68726(14)
C96_5 C 0.81274(14) 0.89573(15) 0.65991(15)
C97_5 C 0.68726(14) 0.84009(15) 0.60427(15)
C99_5 C 0.89573(15) 0.84009(15) 0.68726(14)
C100_5 C 0.60427(15) 0.81274(14) 0.65991(15)
C102_5 C 0.84009(15) 0.81274(14) 0.60427(15)
C105_5 C 0.65199(12) 0.87216(13) 0.66830(14)
C107_5 C 0.83170(14) 0.87216(13) 0.65199(12)
C108_5 C 0.66830(14) 0.84801(12) 0.62784(13)
C110_5 C 0.87216(13) 0.84801(12) 0.66830(14)
C111_5 C 0.62784(13) 0.83170(14) 0.65199(12)
C113_5 C 0.84801(12) 0.83170(14) 0.62784(13)
C116_5 C 0.67075(13) 0.86976(13) 0.64642(13)
C118_5 C 0.85358(13) 0.86976(13) 0.67075(13)
C119_5 C 0.63024(13) 0.85358(13) 0.67075(13)
C121_5 C 0.82925(13) 0.85358(13) 0.63024(13)
C122_5 C 0.64642(13) 0.82925(13) 0.63024(13)
C124_5 C 0.86976(13) 0.82925(13) 0.64642(13)
C127_5 C 0.63856(18) 0.91969(17) 0.6864(2)
C129_5 C 0.8136(2) 0.91969(17) 0.63856(18)
C130_5 C 0.6864(2) 0.86144(18) 0.58031(17)
C132_5 C 0.91969(17) 0.86144(18) 0.6864(2)
C133_5 C 0.58031(17) 0.8136(2) 0.63856(18)
C135_5 C 0.86144(18) 0.8136(2) 0.58031(17)
H49_5 H 0.6458 0.9352 0.6974
H51_5 H 0.8026 0.9352 0.6458
H52_5 H 0.6974 0.8542 0.5648
H54_5 H 0.9352 0.8542 0.6974
H55_5 H 0.5648 0.8026 0.6458
H57_5 H 0.8542 0.8026 0.5648
H60_5 H 0.6214 0.9134 0.6953
H62_5 H 0.8047 0.9134 0.6214
H63_5 H 0.6953 0.8786 0.5866
H65_5 H 0.9134 0.8786 0.6953
H66_5 H 0.5866 0.8047 0.6214
H68_5 H 0.8786 0.8047 0.5866
C138_5 C 0.6315(2) 0.9303(2) 0.6573(2)
C140_5 C 0.8427(2) 0.9303(2) 0.6315(2)
C141_5 C 0.6573(2) 0.8685(2) 0.5697(2)
C143_5 C 0.9303(2) 0.8685(2) 0.6573(2)
C144_5 C 0.5697(2) 0.8427(2) 0.6315(2)
C146_5 C 0.8685(2) 0.8427(2) 0.5697(2)
H71_5 H 0.6265 0.9148 0.6455
H73_5 H 0.8545 0.9148 0.6265
H74_5 H 0.6455 0.8735 0.5852
H76_5 H 0.9148 0.8735 0.6455
H77_5 H 0.5852 0.8545 0.6265
H79_5 H 0.8735 0.8545 0.5852
H82_5 H 0.6161 0.9432 0.6584
H84_5 H 0.8416 0.9432 0.6161
H85_5 H 0.6584 0.8839 0.5568
H87_5 H 0.9432 0.8839 0.6584
H88_5 H 0.5568 0.8416 0.6161
H90_5 H 0.8839 0.8416 0.5568
H93_5 H 0.6476 0.9397 0.6496
H95_5 H 0.8504 0.9397 0.6476
H96_5 H 0.6496 0.8524 0.5603
H98_5 H 0.9397 0.8524 0.6496
H99_5 H 0.5603 0.8504 0.6476
H101_5 H 0.8524 0.8504 0.5603
C149_5 C 0.66663(18) 0.88579(19) 0.71624(17)
C151_5 C 0.78376(17) 0.88579(19) 0.66663(18)
C152_5 C 0.71624(17) 0.83337(18) 0.61421(19)
C154_5 C 0.88579(19) 0.83337(18) 0.71624(17)
C155_5 C 0.61421(19) 0.78376(17) 0.66663(18)
C157_5 C 0.83337(18) 0.78376(17) 0.61421(19)
H104_5 H 0.6738 0.9015 0.7270
H106_5 H 0.7730 0.9015 0.6738
H107_5 H 0.7270 0.8262 0.5985
H109_5 H 0.9015 0.8262 0.7270
H110_5 H 0.5985 0.7730 0.6738
H112_5 H 0.8262 0.7730 0.5985
H115_5 H 0.6494 0.8796 0.7251
H117_5 H 0.7749 0.8796 0.6494
H118_5 H 0.7251 0.8506 0.6204
H120_5 H 0.8796 0.8506 0.7251
H121_5 H 0.6204 0.7749 0.6494
H123_5 H 0.8506 0.7749 0.6204
C160_5 C 0.6878(3) 0.8622(2) 0.71732(19)
C162_5 C 0.78268(19) 0.8622(2) 0.6878(3)
C163_5 C 0.71732(19) 0.8122(3) 0.6378(2)
C165_5 C 0.8622(2) 0.8122(3) 0.71732(19)
C166_5 C 0.6378(2) 0.78268(19) 0.6878(3)
C168_5 C 0.8122(3) 0.78268(19) 0.6378(2)
H126_5 H 0.7033 0.8666 0.7053
H128_5 H 0.7947 0.8666 0.7033
H129_5 H 0.7053 0.7967 0.6334
H131_5 H 0.8666 0.7967 0.7053
H132_5 H 0.6334 0.7947 0.7033
H134_5 H 0.7967 0.7947 0.6334
H137_5 H 0.6943 0.8599 0.7362
H139_5 H 0.7638 0.8599 0.6943
H140_5 H 0.7362 0.8057 0.6401
H142_5 H 0.8599 0.8057 0.7362
H143_5 H 0.6401 0.7638 0.6943
H145_5 H 0.8057 0.7638 0.6401
H148_5 H 0.6791 0.8451 0.7111
H150_5 H 0.7889 0.8451 0.6791
H151_5 H 0.7111 0.8209 0.6549
H153_5 H 0.8451 0.8209 0.7111
H154_5 H 0.6549 0.7889 0.6791
H156_5 H 0.8209 0.7889 0.6549
O4_8 O 0.2500 0.0000 0.7500
Cd2_4 Cd 0.27582(3) -0.0000 0.80092(4)
O6_5 O 0.30080(15) 0.03099(11) 0.76115(12)
O12_6 O 0.23885(12) 0.03099(11) 0.80080(15)
O20_5 O 0.33820(14) 0.03477(11) 0.73722(13)
O26_6 O 0.26278(13) 0.03477(11) 0.83820(14)
Cd5_4 Cd 0.22418(3) 0.80092(4) 0.0000
Cd6_4 Cd 0.30092(4) 0.77582(3) 0.0000
O2_6 O 0.30080(15) 0.96901(11) 0.76115(12)
O3_6 O 0.33820(14) 0.96523(11) 0.73722(13)
O4_9 O 0.2500 1.0000 0.7500
C1_6 C 0.32451(18) 0.95780(13) 0.75742(17)
C2_6 C 0.33359(17) 0.93584(13) 0.77575(13)
C3_6 C 0.31765(17) 0.92761(13) 0.79792(14)
H1_6 H 0.3007 0.9365 0.8017
C4_6 C 0.32672(14) 0.90638(12) 0.81439(13)
C5_6 C 0.35058(14) 0.89210(13) 0.80855(12)
C6_6 C 0.36636(15) 0.90102(14) 0.78682(13)
H2_6 H 0.3832 0.8920 0.7829
C7_6 C 0.35840(15) 0.92240(13) 0.77093(14)
H3_6 H 0.3699 0.9283 0.7563
C8_6 C 0.31274(14) 0.89573(15) 0.84009(15)
C9_6 C 0.33170(14) 0.87216(13) 0.84801(12)
C10_6 C 0.35358(13) 0.86976(13) 0.82925(13)
C11_6 C 0.3136(2) 0.91969(17) 0.86144(18)
H4_6 H 0.3026 0.9352 0.8542
H5_6 H 0.3047 0.9134 0.8786
C12_6 C 0.3427(2) 0.9303(2) 0.8685(2)
H6_6 H 0.3545 0.9148 0.8735
H7_6 H 0.3416 0.9432 0.8839
H8_6 H 0.3504 0.9397 0.8524
C13_6 C 0.28376(17) 0.88579(19) 0.83337(18)
H9_6 H 0.2730 0.9015 0.8262
H10_6 H 0.2749 0.8796 0.8506
C14_6 C 0.28268(19) 0.8622(2) 0.8122(3)
H11_6 H 0.2947 0.8666 0.7967
H12_6 H 0.2638 0.8599 0.8057
H13_6 H 0.2889 0.8451 0.8209
Cd2_5 Cd 0.27582(3) 1.0000 0.80092(4)
Cd5_5 Cd 0.22418(3) 0.80092(4) 1.0000
Cd6_5 Cd 0.30092(4) 0.77582(3) 1.0000
Cd7_9 Cd 0.5000 0.72418(3) 0.80092(4)
Cd15_4 Cd -0.0000 0.77582(3) 0.80092(4)
O5_6 O 0.26115(12) 0.96901(11) 0.69920(15)
O8_4 O 0.26115(12) 0.80080(15) 0.96901(11)
O9_6 O 0.46901(11) 0.76115(12) 0.80080(15)
O10_4 O 0.23885(12) 0.96901(11) 0.80080(15)
O13_5 O 0.19920(15) 0.96901(11) 0.73885(12)
O16_4 O 0.19920(15) 0.76115(12) 0.96901(11)
O17_4 O 0.03099(11) 0.80080(15) 0.76115(12)
O21_4 O 0.23722(13) 0.83820(14) 0.96523(11)
O22_6 O 0.46523(11) 0.73722(13) 0.83820(14)
O24_5 O 0.16180(14) 0.96523(11) 0.76278(13)
O25_4 O 0.26278(13) 0.96523(11) 0.83820(14)
O27_6 O 0.23722(13) 0.96523(11) 0.66180(14)
O31_4 O 0.16180(14) 0.73722(13) 0.96523(11)
O32_4 O 0.03477(11) 0.83820(14) 0.73722(13)
C15_6 C 0.25742(17) 0.82451(18) 0.95780(13)
C16_6 C 0.45780(13) 0.75742(17) 0.82451(18)
C18_4 C 0.24258(17) 0.95780(13) 0.82451(18)
C22_4 C 0.17549(18) 0.75742(17) 0.95780(13)
C23_4 C 0.04220(13) 0.82451(18) 0.75742(17)
C26_6 C 0.27575(13) 0.83359(17) 0.93584(13)
C27_6 C 0.43584(13) 0.77575(13) 0.83359(17)
C29_4 C 0.22425(13) 0.93584(13) 0.83359(17)
C33_4 C 0.16641(17) 0.77575(13) 0.93584(13)
C34_4 C 0.06416(13) 0.83359(17) 0.77575(13)
C37_6 C 0.29792(14) 0.81765(17) 0.92761(13)
C38_6 C 0.42761(13) 0.79792(14) 0.81765(17)
C40_4 C 0.20208(14) 0.92761(13) 0.81765(17)
C44_4 C 0.18235(17) 0.79792(14) 0.92761(13)
C45_4 C 0.07239(13) 0.81765(17) 0.79792(14)
H14_6 H 0.3017 0.8007 0.9365
H15_6 H 0.4365 0.8017 0.8007
H17_4 H 0.1983 0.9365 0.8007
H21_4 H 0.1993 0.8017 0.9365
H22_4 H 0.0635 0.8007 0.8017
C48_6 C 0.31439(13) 0.82672(14) 0.90638(12)
C49_6 C 0.40638(12) 0.81439(13) 0.82672(14)
C51_4 C 0.18561(13) 0.90638(12) 0.82672(14)
C55_4 C 0.17328(14) 0.81439(13) 0.90638(12)
C56_4 C 0.09362(12) 0.82672(14) 0.81439(13)
C59_6 C 0.30855(12) 0.85058(14) 0.89210(13)
C60_6 C 0.39210(13) 0.80855(12) 0.85058(14)
C62_4 C 0.19145(12) 0.89210(13) 0.85058(14)
C65_4 C 0.10790(13) 0.85058(14) 0.80855(12)
C68_4 C 0.14942(14) 0.80855(12) 0.89210(13)
C70_6 C 0.28682(13) 0.86636(15) 0.90102(14)
C71_6 C 0.40102(14) 0.78682(13) 0.86636(15)
C73_4 C 0.21318(13) 0.90102(14) 0.86636(15)
C76_4 C 0.09898(14) 0.86636(15) 0.78682(13)
C79_4 C 0.13364(15) 0.78682(13) 0.90102(14)
H25_6 H 0.2829 0.8832 0.8920
H26_6 H 0.3920 0.7829 0.8832
H28_4 H 0.2171 0.8920 0.8832
H31_4 H 0.1080 0.8832 0.7829
H34_4 H 0.1168 0.7829 0.8920
C81_6 C 0.27093(14) 0.85840(15) 0.92240(13)
C82_6 C 0.42240(13) 0.77093(14) 0.85840(15)
C84_4 C 0.22907(14) 0.92240(13) 0.85840(15)
C87_4 C 0.07760(13) 0.85840(15) 0.77093(14)
C90_4 C 0.14160(15) 0.77093(14) 0.92240(13)
H36_6 H 0.2563 0.8699 0.9283
H37_6 H 0.4283 0.7563 0.8699
H39_4 H 0.2437 0.9283 0.8699
H42_4 H 0.0717 0.8699 0.7563
H45_4 H 0.1301 0.7563 0.9283
C92_6 C 0.39573(15) 0.84009(15) 0.81274(14)
C93_6 C 0.34009(15) 0.81274(14) 0.89573(15)
C95_4 C 0.15991(15) 0.89573(15) 0.81274(14)
C98_4 C 0.18726(14) 0.84009(15) 0.89573(15)
C101_4 C 0.10427(15) 0.81274(14) 0.84009(15)
C103_6 C 0.37216(13) 0.84801(12) 0.83170(14)
C104_6 C 0.34801(12) 0.83170(14) 0.87216(13)
C106_4 C 0.15199(12) 0.87216(13) 0.83170(14)
C109_4 C 0.16830(14) 0.84801(12) 0.87216(13)
C112_4 C 0.12784(13) 0.83170(14) 0.84801(12)
C114_6 C 0.32925(13) 0.85358(13) 0.86976(13)
C115_6 C 0.36976(13) 0.82925(13) 0.85358(13)
C117_4 C 0.17075(13) 0.86976(13) 0.85358(13)
C120_4 C 0.13024(13) 0.85358(13) 0.82925(13)
C123_4 C 0.14642(13) 0.82925(13) 0.86976(13)
C125_6 C 0.41969(17) 0.86144(18) 0.8136(2)
C126_6 C 0.36144(18) 0.8136(2) 0.91969(17)
C128_4 C 0.13856(18) 0.91969(17) 0.8136(2)
C131_4 C 0.1864(2) 0.86144(18) 0.91969(17)
C134_4 C 0.08031(17) 0.8136(2) 0.86144(18)
H47_6 H 0.4352 0.8542 0.8026
H48_6 H 0.3542 0.8026 0.9352
H50_4 H 0.1458 0.9352 0.8026
H53_4 H 0.1974 0.8542 0.9352
H56_4 H 0.0648 0.8026 0.8542
H58_6 H 0.4134 0.8786 0.8047
H59_6 H 0.3786 0.8047 0.9134
H61_4 H 0.1214 0.9134 0.8047
H64_4 H 0.1953 0.8786 0.9134
H67_4 H 0.0866 0.8047 0.8786
C136_6 C 0.4303(2) 0.8685(2) 0.8427(2)
C137_6 C 0.3685(2) 0.8427(2) 0.9303(2)
C139_4 C 0.1315(2) 0.9303(2) 0.8427(2)
C142_4 C 0.1573(2) 0.8685(2) 0.9303(2)
C145_4 C 0.0697(2) 0.8427(2) 0.8685(2)
H69_6 H 0.4148 0.8735 0.8545
H70_6 H 0.3735 0.8545 0.9148
H72_4 H 0.1265 0.9148 0.8545
H75_4 H 0.1455 0.8735 0.9148
H78_4 H 0.0852 0.8545 0.8735
H80_6 H 0.4432 0.8839 0.8416
H81_6 H 0.3839 0.8416 0.9432
H83_4 H 0.1161 0.9432 0.8416
H86_4 H 0.1584 0.8839 0.9432
H89_4 H 0.0568 0.8416 0.8839
H91_6 H 0.4397 0.8524 0.8504
H92_6 H 0.3524 0.8504 0.9397
H94_4 H 0.1476 0.9397 0.8504
H97_4 H 0.1496 0.8524 0.9397
H100_4 H 0.0603 0.8504 0.8524
C147_6 C 0.38579(19) 0.83337(18) 0.78376(17)
C148_6 C 0.33337(18) 0.78376(17) 0.88579(19)
C150_4 C 0.16663(18) 0.88579(19) 0.78376(17)
C153_4 C 0.21624(17) 0.83337(18) 0.88579(19)
C156_4 C 0.11421(19) 0.78376(17) 0.83337(18)
H102_6 H 0.4015 0.8262 0.7730
H103_6 H 0.3262 0.7730 0.9015
H105_4 H 0.1738 0.9015 0.7730
H108_4 H 0.2270 0.8262 0.9015
H111_4 H 0.0985 0.7730 0.8262
H113_6 H 0.3796 0.8506 0.7749
H114_6 H 0.3506 0.7749 0.8796
H116_4 H 0.1494 0.8796 0.7749
H119_4 H 0.2251 0.8506 0.8796
H122_4 H 0.1204 0.7749 0.8506
C158_6 C 0.3622(2) 0.8122(3) 0.78268(19)
C159_6 C 0.3122(3) 0.78268(19) 0.8622(2)
C161_4 C 0.1878(3) 0.8622(2) 0.78268(19)
C164_4 C 0.21732(19) 0.8122(3) 0.8622(2)
C167_4 C 0.1378(2) 0.78268(19) 0.8122(3)
H124_6 H 0.3666 0.7967 0.7947
H125_6 H 0.2967 0.7947 0.8666
H127_4 H 0.2033 0.8666 0.7947
H130_4 H 0.2053 0.7967 0.8666
H133_4 H 0.1334 0.7947 0.7967
H135_6 H 0.3599 0.8057 0.7638
H136_6 H 0.3057 0.7638 0.8599
H138_4 H 0.1943 0.8599 0.7638
H141_4 H 0.2362 0.8057 0.8599
H144_4 H 0.1401 0.7638 0.8057
H146_6 H 0.3451 0.8209 0.7889
H147_6 H 0.3209 0.7889 0.8451
H149_4 H 0.1791 0.8451 0.7889
H152_4 H 0.2111 0.8209 0.8451
H155_4 H 0.1549 0.7889 0.8209
Cd15_5 Cd 1.0000 0.77582(3) 0.80092(4)
O4_10 O -0.0000 0.7500 0.2500
O6_6 O 0.03099(11) 0.76115(12) 0.30080(15)
O12_7 O 0.03099(11) 0.80080(15) 0.23885(12)
O20_6 O 0.03477(11) 0.73722(13) 0.33820(14)
O26_7 O 0.03477(11) 0.83820(14) 0.26278(13)
O2_7 O 0.96901(11) 0.76115(12) 0.30080(15)
O3_7 O 0.96523(11) 0.73722(13) 0.33820(14)
O4_11 O 1.0000 0.7500 0.2500
C1_7 C 0.95780(13) 0.75742(17) 0.32451(18)
C2_7 C 0.93584(13) 0.77575(13) 0.33359(17)
C3_7 C 0.92761(13) 0.79792(14) 0.31765(17)
H1_7 H 0.9365 0.8017 0.3007
C4_7 C 0.90638(12) 0.81439(13) 0.32672(14)
C5_7 C 0.89210(13) 0.80855(12) 0.35058(14)
C6_7 C 0.90102(14) 0.78682(13) 0.36636(15)
H2_7 H 0.8920 0.7829 0.3832
C7_7 C 0.92240(13) 0.77093(14) 0.35840(15)
H3_7 H 0.9283 0.7563 0.3699
C8_7 C 0.89573(15) 0.84009(15) 0.31274(14)
C9_7 C 0.87216(13) 0.84801(12) 0.33170(14)
C10_7 C 0.86976(13) 0.82925(13) 0.35358(13)
C11_7 C 0.91969(17) 0.86144(18) 0.3136(2)
H4_7 H 0.9352 0.8542 0.3026
H5_7 H 0.9134 0.8786 0.3047
C12_7 C 0.9303(2) 0.8685(2) 0.3427(2)
H6_7 H 0.9148 0.8735 0.3545
H7_7 H 0.9432 0.8839 0.3416
H8_7 H 0.9397 0.8524 0.3504
C13_7 C 0.88579(19) 0.83337(18) 0.28376(17)
H9_7 H 0.9015 0.8262 0.2730
H10_7 H 0.8796 0.8506 0.2749
C14_7 C 0.8622(2) 0.8122(3) 0.28268(19)
H11_7 H 0.8666 0.7967 0.2947
H12_7 H 0.8599 0.8057 0.2638
H13_7 H 0.8451 0.8209 0.2889
O5_7 O 0.96901(11) 0.69920(15) 0.26115(12)
O9_7 O 0.76115(12) 0.80080(15) 0.46901(11)
O13_6 O 0.96901(11) 0.73885(12) 0.19920(15)
O22_7 O 0.73722(13) 0.83820(14) 0.46523(11)
O24_6 O 0.96523(11) 0.76278(13) 0.16180(14)
O27_7 O 0.96523(11) 0.66180(14) 0.23722(13)
C15_7 C 0.82451(18) 0.95780(13) 0.25742(17)
C16_7 C 0.75742(17) 0.82451(18) 0.45780(13)
C26_7 C 0.83359(17) 0.93584(13) 0.27575(13)
C27_7 C 0.77575(13) 0.83359(17) 0.43584(13)
C37_7 C 0.81765(17) 0.92761(13) 0.29792(14)
C38_7 C 0.79792(14) 0.81765(17) 0.42761(13)
H14_7 H 0.8007 0.9365 0.3017
H15_7 H 0.8017 0.8007 0.4365
C48_7 C 0.82672(14) 0.90638(12) 0.31439(13)
C49_7 C 0.81439(13) 0.82672(14) 0.40638(12)
C59_7 C 0.85058(14) 0.89210(13) 0.30855(12)
C60_7 C 0.80855(12) 0.85058(14) 0.39210(13)
C70_7 C 0.86636(15) 0.90102(14) 0.28682(13)
C71_7 C 0.78682(13) 0.86636(15) 0.40102(14)
H25_7 H 0.8832 0.8920 0.2829
H26_7 H 0.7829 0.8832 0.3920
C81_7 C 0.85840(15) 0.92240(13) 0.27093(14)
C82_7 C 0.77093(14) 0.85840(15) 0.42240(13)
H36_7 H 0.8699 0.9283 0.2563
H37_7 H 0.7563 0.8699 0.4283
C92_7 C 0.84009(15) 0.81274(14) 0.39573(15)
C93_7 C 0.81274(14) 0.89573(15) 0.34009(15)
C103_7 C 0.84801(12) 0.83170(14) 0.37216(13)
C104_7 C 0.83170(14) 0.87216(13) 0.34801(12)
C114_7 C 0.85358(13) 0.86976(13) 0.32925(13)
C115_7 C 0.82925(13) 0.85358(13) 0.36976(13)
C125_7 C 0.86144(18) 0.8136(2) 0.41969(17)
C126_7 C 0.8136(2) 0.91969(17) 0.36144(18)
H47_7 H 0.8542 0.8026 0.4352
H48_7 H 0.8026 0.9352 0.3542
H58_7 H 0.8786 0.8047 0.4134
H59_7 H 0.8047 0.9134 0.3786
C136_7 C 0.8685(2) 0.8427(2) 0.4303(2)
C137_7 C 0.8427(2) 0.9303(2) 0.3685(2)
H69_7 H 0.8735 0.8545 0.4148
H70_7 H 0.8545 0.9148 0.3735
H80_7 H 0.8839 0.8416 0.4432
H81_7 H 0.8416 0.9432 0.3839
H91_7 H 0.8524 0.8504 0.4397
H92_7 H 0.8504 0.9397 0.3524
C147_7 C 0.83337(18) 0.78376(17) 0.38579(19)
C148_7 C 0.78376(17) 0.88579(19) 0.33337(18)
H102_7 H 0.8262 0.7730 0.4015
H103_7 H 0.7730 0.9015 0.3262
H113_7 H 0.8506 0.7749 0.3796
H114_7 H 0.7749 0.8796 0.3506
C158_7 C 0.8122(3) 0.78268(19) 0.3622(2)
C159_7 C 0.78268(19) 0.8622(2) 0.3122(3)
H124_7 H 0.7967 0.7947 0.3666
H125_7 H 0.7947 0.8666 0.2967
H135_7 H 0.8057 0.7638 0.3599
H136_7 H 0.7638 0.8599 0.3057
H146_7 H 0.8209 0.7889 0.3451
H147_7 H 0.7889 0.8451 0.3209
O2_8 O 0.03099(11) 0.76115(12) 0.69920(15)
O3_8 O 0.03477(11) 0.73722(13) 0.66180(14)
O4_12 O 0.0000 0.7500 0.7500
C1_8 C 0.04220(13) 0.75742(17) 0.67549(18)
C2_8 C 0.06416(13) 0.77575(13) 0.66641(17)
C3_8 C 0.07239(13) 0.79792(14) 0.68235(17)
H1_8 H 0.0635 0.8017 0.6993
C4_8 C 0.09362(12) 0.81439(13) 0.67328(14)
C5_8 C 0.10790(13) 0.80855(12) 0.64942(14)
C6_8 C 0.09898(14) 0.78682(13) 0.63364(15)
H2_8 H 0.1080 0.7829 0.6168
C7_8 C 0.07760(13) 0.77093(14) 0.64160(15)
H3_8 H 0.0717 0.7563 0.6301
C8_8 C 0.10427(15) 0.84009(15) 0.68726(14)
C9_8 C 0.12784(13) 0.84801(12) 0.66830(14)
C10_8 C 0.13024(13) 0.82925(13) 0.64642(13)
C11_8 C 0.08031(17) 0.86144(18) 0.6864(2)
H4_8 H 0.0648 0.8542 0.6974
H5_8 H 0.0866 0.8786 0.6953
C12_8 C 0.0697(2) 0.8685(2) 0.6573(2)
H6_8 H 0.0852 0.8735 0.6455
H7_8 H 0.0568 0.8839 0.6584
H8_8 H 0.0603 0.8524 0.6496
C13_8 C 0.11421(19) 0.83337(18) 0.71624(17)
H9_8 H 0.0985 0.8262 0.7270
H10_8 H 0.1204 0.8506 0.7251
C14_8 C 0.1378(2) 0.8122(3) 0.71732(19)
H11_8 H 0.1334 0.7967 0.7053
H12_8 H 0.1401 0.8057 0.7362
H13_8 H 0.1549 0.8209 0.7111
Cd3_7 Cd 0.0000 0.69908(4) 0.77582(3)
Cd7_10 Cd 0.27582(3) 0.80092(4) 0.5000
O5_8 O 0.03099(11) 0.69920(15) 0.73885(12)
O9_8 O 0.23885(12) 0.80080(15) 0.53099(11)
O13_7 O 0.03099(11) 0.73885(12) 0.80080(15)
O22_8 O 0.26278(13) 0.83820(14) 0.53477(11)
O24_7 O 0.03477(11) 0.76278(13) 0.83820(14)
O27_8 O 0.03477(11) 0.66180(14) 0.76278(13)
C15_8 C 0.17549(18) 0.95780(13) 0.74258(17)
C16_8 C 0.24258(17) 0.82451(18) 0.54220(13)
C26_8 C 0.16641(17) 0.93584(13) 0.72425(13)
C27_8 C 0.22425(13) 0.83359(17) 0.56416(13)
C37_8 C 0.18235(17) 0.92761(13) 0.70208(14)
C38_8 C 0.20208(14) 0.81765(17) 0.57239(13)
H14_8 H 0.1993 0.9365 0.6983
H15_8 H 0.1983 0.8007 0.5635
C48_8 C 0.17328(14) 0.90638(12) 0.68561(13)
C49_8 C 0.18561(13) 0.82672(14) 0.59362(12)
C59_8 C 0.14942(14) 0.89210(13) 0.69145(12)
C60_8 C 0.19145(12) 0.85058(14) 0.60790(13)
C70_8 C 0.13364(15) 0.90102(14) 0.71318(13)
C71_8 C 0.21318(13) 0.86636(15) 0.59898(14)
H25_8 H 0.1168 0.8920 0.7171
H26_8 H 0.2171 0.8832 0.6080
C81_8 C 0.14160(15) 0.92240(13) 0.72907(14)
C82_8 C 0.22907(14) 0.85840(15) 0.57760(13)
H36_8 H 0.1301 0.9283 0.7437
H37_8 H 0.2437 0.8699 0.5717
C92_8 C 0.15991(15) 0.81274(14) 0.60427(15)
C93_8 C 0.18726(14) 0.89573(15) 0.65991(15)
C103_8 C 0.15199(12) 0.83170(14) 0.62784(13)
C104_8 C 0.16830(14) 0.87216(13) 0.65199(12)
C114_8 C 0.14642(13) 0.86976(13) 0.67075(13)
C115_8 C 0.17075(13) 0.85358(13) 0.63024(13)
C125_8 C 0.13856(18) 0.8136(2) 0.58031(17)
C126_8 C 0.1864(2) 0.91969(17) 0.63856(18)
H47_8 H 0.1458 0.8026 0.5648
H48_8 H 0.1974 0.9352 0.6458
H58_8 H 0.1214 0.8047 0.5866
H59_8 H 0.1953 0.9134 0.6214
C136_8 C 0.1315(2) 0.8427(2) 0.5697(2)
C137_8 C 0.1573(2) 0.9303(2) 0.6315(2)
H69_8 H 0.1265 0.8545 0.5852
H70_8 H 0.1455 0.9148 0.6265
H80_8 H 0.1161 0.8416 0.5568
H81_8 H 0.1584 0.9432 0.6161
H91_8 H 0.1476 0.8504 0.5603
H92_8 H 0.1496 0.9397 0.6476
C147_8 C 0.16663(18) 0.78376(17) 0.61421(19)
C148_8 C 0.21624(17) 0.88579(19) 0.66663(18)
H102_8 H 0.1738 0.7730 0.5985
H103_8 H 0.2270 0.9015 0.6738
H113_8 H 0.1494 0.7749 0.6204
H114_8 H 0.2251 0.8796 0.6494
C158_8 C 0.1878(3) 0.78268(19) 0.6378(2)
C159_8 C 0.21732(19) 0.8622(2) 0.6878(3)
H124_8 H 0.2033 0.7947 0.6334
H125_8 H 0.2053 0.8666 0.7033
H135_8 H 0.1943 0.7638 0.6401
H136_8 H 0.2362 0.8599 0.6943
H146_8 H 0.1791 0.7889 0.6549
H147_8 H 0.2111 0.8451 0.6791
Cd16_6 Cd 0.72418(3) 0.69908(4) 0.0000
O4_13 O 1.0000 0.7500 0.7500
Cd3_8 Cd 1.0000 0.69908(4) 0.77582(3)
Cd9_9 Cd 0.72418(3) 0.5000 0.69908(4)
Cd10_9 Cd 0.80092(4) 0.5000 0.72418(3)
Cd12_8 Cd 0.77582(3) 0.69908(4) 0.5000
Cd16_7 Cd 0.72418(3) 0.69908(4) 1.0000
Cd18_9 Cd 0.77582(3) 0.5000 0.80092(4)
O7_6 O 0.96901(11) 0.69920(15) 0.73885(12)
O11_6 O 0.96901(11) 0.73885(12) 0.80080(15)
O12_8 O 0.96901(11) 0.80080(15) 0.76115(12)
O14_6 O 0.76115(12) 0.53099(11) 0.69920(15)
O15_5 O 0.80080(15) 0.73885(12) 0.53099(11)
O18_6 O 0.76115(12) 0.69920(15) 0.96901(11)
O19_6 O 0.80080(15) 0.53099(11) 0.76115(12)
O23_6 O 0.96523(11) 0.76278(13) 0.83820(14)
O26_8 O 0.96523(11) 0.83820(14) 0.73722(13)
O28_6 O 0.96523(11) 0.66180(14) 0.76278(13)
O29_6 O 0.73722(13) 0.53477(11) 0.66180(14)
O30_5 O 0.83820(14) 0.76278(13) 0.53477(11)
O33_6 O 0.73722(13) 0.66180(14) 0.96523(11)
O34_6 O 0.83820(14) 0.53477(11) 0.73722(13)
C17_6 C 0.95780(13) 0.67549(18) 0.74258(17)
C19_6 C 0.95780(13) 0.74258(17) 0.82451(18)
C20_6 C 0.75742(17) 0.54220(13) 0.67549(18)
C21_6 C 0.82451(18) 0.74258(17) 0.54220(13)
C24_6 C 0.75742(17) 0.67549(18) 0.95780(13)
C25_6 C 0.82451(18) 0.54220(13) 0.75742(17)
C28_6 C 0.93584(13) 0.66641(17) 0.72425(13)
C30_6 C 0.93584(13) 0.72425(13) 0.83359(17)
C31_6 C 0.77575(13) 0.56416(13) 0.66641(17)
C32_6 C 0.83359(17) 0.72425(13) 0.56416(13)
C35_6 C 0.77575(13) 0.66641(17) 0.93584(13)
C36_6 C 0.83359(17) 0.56416(13) 0.77575(13)
C39_6 C 0.92761(13) 0.68235(17) 0.70208(14)
C41_6 C 0.92761(13) 0.70208(14) 0.81765(17)
C42_6 C 0.79792(14) 0.57239(13) 0.68235(17)
C43_6 C 0.81765(17) 0.70208(14) 0.57239(13)
C46_6 C 0.79792(14) 0.68235(17) 0.92761(13)
C47_6 C 0.81765(17) 0.57239(13) 0.79792(14)
H16_6 H 0.9365 0.6993 0.6983
H18_6 H 0.9365 0.6983 0.8007
H19_6 H 0.8017 0.5635 0.6993
H20_6 H 0.8007 0.6983 0.5635
H23_6 H 0.8017 0.6993 0.9365
H24_6 H 0.8007 0.5635 0.8017
C50_6 C 0.90638(12) 0.67328(14) 0.68561(13)
C52_6 C 0.90638(12) 0.68561(13) 0.82672(14)
C53_6 C 0.81439(13) 0.59362(12) 0.67328(14)
C54_6 C 0.82672(14) 0.68561(13) 0.59362(12)
C57_6 C 0.81439(13) 0.67328(14) 0.90638(12)
C58_6 C 0.82672(14) 0.59362(12) 0.81439(13)
C61_6 C 0.89210(13) 0.64942(14) 0.69145(12)
C63_6 C 0.89210(13) 0.69145(12) 0.85058(14)
C64_6 C 0.85058(14) 0.69145(12) 0.60790(13)
C66_6 C 0.85058(14) 0.60790(13) 0.80855(12)
C67_6 C 0.80855(12) 0.60790(13) 0.64942(14)
C69_6 C 0.80855(12) 0.64942(14) 0.89210(13)
C72_6 C 0.90102(14) 0.63364(15) 0.71318(13)
C74_6 C 0.90102(14) 0.71318(13) 0.86636(15)
C75_6 C 0.86636(15) 0.71318(13) 0.59898(14)
C77_6 C 0.86636(15) 0.59898(14) 0.78682(13)
C78_6 C 0.78682(13) 0.59898(14) 0.63364(15)
C80_6 C 0.78682(13) 0.63364(15) 0.90102(14)
H27_6 H 0.8920 0.6168 0.7171
H29_6 H 0.8920 0.7171 0.8832
H30_6 H 0.8832 0.7171 0.6080
H32_6 H 0.8832 0.6080 0.7829
H33_6 H 0.7829 0.6080 0.6168
H35_6 H 0.7829 0.6168 0.8920
C83_6 C 0.92240(13) 0.64160(15) 0.72907(14)
C85_6 C 0.92240(13) 0.72907(14) 0.85840(15)
C86_6 C 0.85840(15) 0.72907(14) 0.57760(13)
C88_6 C 0.85840(15) 0.57760(13) 0.77093(14)
C89_6 C 0.77093(14) 0.57760(13) 0.64160(15)
C91_6 C 0.77093(14) 0.64160(15) 0.92240(13)
H38_6 H 0.9283 0.6301 0.7437
H40_6 H 0.9283 0.7437 0.8699
H41_6 H 0.8699 0.7437 0.5717
H43_6 H 0.8699 0.5717 0.7563
H44_6 H 0.7563 0.5717 0.6301
H46_6 H 0.7563 0.6301 0.9283
C94_6 C 0.89573(15) 0.68726(14) 0.65991(15)
C96_6 C 0.89573(15) 0.65991(15) 0.81274(14)
C97_6 C 0.84009(15) 0.60427(15) 0.68726(14)
C99_6 C 0.84009(15) 0.68726(14) 0.89573(15)
C100_6 C 0.81274(14) 0.65991(15) 0.60427(15)
C102_6 C 0.81274(14) 0.60427(15) 0.84009(15)
C105_6 C 0.87216(13) 0.66830(14) 0.65199(12)
C107_6 C 0.87216(13) 0.65199(12) 0.83170(14)
C108_6 C 0.84801(12) 0.62784(13) 0.66830(14)
C110_6 C 0.84801(12) 0.66830(14) 0.87216(13)
C111_6 C 0.83170(14) 0.65199(12) 0.62784(13)
C113_6 C 0.83170(14) 0.62784(13) 0.84801(12)
C116_6 C 0.86976(13) 0.64642(13) 0.67075(13)
C118_6 C 0.86976(13) 0.67075(13) 0.85358(13)
C119_6 C 0.85358(13) 0.67075(13) 0.63024(13)
C121_6 C 0.85358(13) 0.63024(13) 0.82925(13)
C122_6 C 0.82925(13) 0.63024(13) 0.64642(13)
C124_6 C 0.82925(13) 0.64642(13) 0.86976(13)
C127_6 C 0.91969(17) 0.6864(2) 0.63856(18)
C129_6 C 0.91969(17) 0.63856(18) 0.8136(2)
C130_6 C 0.86144(18) 0.58031(17) 0.6864(2)
C132_6 C 0.86144(18) 0.6864(2) 0.91969(17)
C133_6 C 0.8136(2) 0.63856(18) 0.58031(17)
C135_6 C 0.8136(2) 0.58031(17) 0.86144(18)
H49_6 H 0.9352 0.6974 0.6458
H51_6 H 0.9352 0.6458 0.8026
H52_6 H 0.8542 0.5648 0.6974
H54_6 H 0.8542 0.6974 0.9352
H55_6 H 0.8026 0.6458 0.5648
H57_6 H 0.8026 0.5648 0.8542
H60_6 H 0.9134 0.6953 0.6214
H62_6 H 0.9134 0.6214 0.8047
H63_6 H 0.8786 0.5866 0.6953
H65_6 H 0.8786 0.6953 0.9134
H66_6 H 0.8047 0.6214 0.5866
H68_6 H 0.8047 0.5866 0.8786
C138_6 C 0.9303(2) 0.6573(2) 0.6315(2)
C140_6 C 0.9303(2) 0.6315(2) 0.8427(2)
C141_6 C 0.8685(2) 0.5697(2) 0.6573(2)
C143_6 C 0.8685(2) 0.6573(2) 0.9303(2)
C144_6 C 0.8427(2) 0.6315(2) 0.5697(2)
C146_6 C 0.8427(2) 0.5697(2) 0.8685(2)
H71_6 H 0.9148 0.6455 0.6265
H73_6 H 0.9148 0.6265 0.8545
H74_6 H 0.8735 0.5852 0.6455
H76_6 H 0.8735 0.6455 0.9148
H77_6 H 0.8545 0.6265 0.5852
H79_6 H 0.8545 0.5852 0.8735
H82_6 H 0.9432 0.6584 0.6161
H84_6 H 0.9432 0.6161 0.8416
H85_6 H 0.8839 0.5568 0.6584
H87_6 H 0.8839 0.6584 0.9432
H88_6 H 0.8416 0.6161 0.5568
H90_6 H 0.8416 0.5568 0.8839
H93_6 H 0.9397 0.6496 0.6476
H95_6 H 0.9397 0.6476 0.8504
H96_6 H 0.8524 0.5603 0.6496
H98_6 H 0.8524 0.6496 0.9397
H99_6 H 0.8504 0.6476 0.5603
H101_6 H 0.8504 0.5603 0.8524
C149_6 C 0.88579(19) 0.71624(17) 0.66663(18)
C151_6 C 0.88579(19) 0.66663(18) 0.78376(17)
C152_6 C 0.83337(18) 0.61421(19) 0.71624(17)
C154_6 C 0.83337(18) 0.71624(17) 0.88579(19)
C155_6 C 0.78376(17) 0.66663(18) 0.61421(19)
C157_6 C 0.78376(17) 0.61421(19) 0.83337(18)
H104_6 H 0.9015 0.7270 0.6738
H106_6 H 0.9015 0.6738 0.7730
H107_6 H 0.8262 0.5985 0.7270
H109_6 H 0.8262 0.7270 0.9015
H110_6 H 0.7730 0.6738 0.5985
H112_6 H 0.7730 0.5985 0.8262
H115_6 H 0.8796 0.7251 0.6494
H117_6 H 0.8796 0.6494 0.7749
H118_6 H 0.8506 0.6204 0.7251
H120_6 H 0.8506 0.7251 0.8796
H121_6 H 0.7749 0.6494 0.6204
H123_6 H 0.7749 0.6204 0.8506
C160_6 C 0.8622(2) 0.71732(19) 0.6878(3)
C162_6 C 0.8622(2) 0.6878(3) 0.78268(19)
C163_6 C 0.8122(3) 0.6378(2) 0.71732(19)
C165_6 C 0.8122(3) 0.71732(19) 0.8622(2)
C166_6 C 0.78268(19) 0.6878(3) 0.6378(2)
C168_6 C 0.78268(19) 0.6378(2) 0.8122(3)
H126_6 H 0.8666 0.7053 0.7033
H128_6 H 0.8666 0.7033 0.7947
H129_6 H 0.7967 0.6334 0.7053
H131_6 H 0.7967 0.7053 0.8666
H132_6 H 0.7947 0.7033 0.6334
H134_6 H 0.7947 0.6334 0.7967
H137_6 H 0.8599 0.7362 0.6943
H139_6 H 0.8599 0.6943 0.7638
H140_6 H 0.8057 0.6401 0.7362
H142_6 H 0.8057 0.7362 0.8599
H143_6 H 0.7638 0.6943 0.6401
H145_6 H 0.7638 0.6401 0.8057
H148_6 H 0.8451 0.7111 0.6791
H150_6 H 0.8451 0.6791 0.7889
H151_6 H 0.8209 0.6549 0.7111
H153_6 H 0.8209 0.7111 0.8451
H154_6 H 0.7889 0.6791 0.6549
H156_6 H 0.7889 0.6549 0.8209
Cd17_8 Cd 0.19908(4) 0.27582(3) 0.0000
O4_14 O -0.0000 0.2500 0.7500
Cd3_9 Cd 0.0000 0.30092(4) 0.77582(3)
Cd9_10 Cd 0.27582(3) 0.5000 0.69908(4)
Cd10_10 Cd 0.19908(4) 0.5000 0.72418(3)
Cd17_9 Cd 0.19908(4) 0.27582(3) 1.0000
Cd18_10 Cd 0.22418(3) 0.5000 0.80092(4)
O7_7 O 0.03099(11) 0.30080(15) 0.73885(12)
O11_7 O 0.03099(11) 0.26115(12) 0.80080(15)
O12_9 O 0.03099(11) 0.19920(15) 0.76115(12)
O14_7 O 0.23885(12) 0.46901(11) 0.69920(15)
O18_7 O 0.23885(12) 0.30080(15) 0.96901(11)
O19_7 O 0.19920(15) 0.46901(11) 0.76115(12)
O23_7 O 0.03477(11) 0.23722(13) 0.83820(14)
O26_9 O 0.03477(11) 0.16180(14) 0.73722(13)
O28_7 O 0.03477(11) 0.33820(14) 0.76278(13)
O29_7 O 0.26278(13) 0.46523(11) 0.66180(14)
O33_7 O 0.26278(13) 0.33820(14) 0.96523(11)
O34_7 O 0.16180(14) 0.46523(11) 0.73722(13)
C17_7 C 0.04220(13) 0.32451(18) 0.74258(17)
C19_7 C 0.04220(13) 0.25742(17) 0.82451(18)
C20_7 C 0.24258(17) 0.45780(13) 0.67549(18)
C21_7 C 0.17549(18) 0.25742(17) 0.54220(13)
C24_7 C 0.24258(17) 0.32451(18) 0.95780(13)
C25_7 C 0.17549(18) 0.45780(13) 0.75742(17)
C28_7 C 0.06416(13) 0.33359(17) 0.72425(13)
C30_7 C 0.06416(13) 0.27575(13) 0.83359(17)
C31_7 C 0.22425(13) 0.43584(13) 0.66641(17)
C32_7 C 0.16641(17) 0.27575(13) 0.56416(13)
C35_7 C 0.22425(13) 0.33359(17) 0.93584(13)
C36_7 C 0.16641(17) 0.43584(13) 0.77575(13)
C39_7 C 0.07239(13) 0.31765(17) 0.70208(14)
C41_7 C 0.07239(13) 0.29792(14) 0.81765(17)
C42_7 C 0.20208(14) 0.42761(13) 0.68235(17)
C43_7 C 0.18235(17) 0.29792(14) 0.57239(13)
C46_7 C 0.20208(14) 0.31765(17) 0.92761(13)
C47_7 C 0.18235(17) 0.42761(13) 0.79792(14)
H16_7 H 0.0635 0.3007 0.6983
H18_7 H 0.0635 0.3017 0.8007
H19_7 H 0.1983 0.4365 0.6993
H20_7 H 0.1993 0.3017 0.5635
H23_7 H 0.1983 0.3007 0.9365
H24_7 H 0.1993 0.4365 0.8017
C50_7 C 0.09362(12) 0.32672(14) 0.68561(13)
C52_7 C 0.09362(12) 0.31439(13) 0.82672(14)
C53_7 C 0.18561(13) 0.40638(12) 0.67328(14)
C54_7 C 0.17328(14) 0.31439(13) 0.59362(12)
C57_7 C 0.18561(13) 0.32672(14) 0.90638(12)
C58_7 C 0.17328(14) 0.40638(12) 0.81439(13)
C61_7 C 0.10790(13) 0.35058(14) 0.69145(12)
C63_7 C 0.10790(13) 0.30855(12) 0.85058(14)
C64_7 C 0.14942(14) 0.30855(12) 0.60790(13)
C66_7 C 0.14942(14) 0.39210(13) 0.80855(12)
C67_7 C 0.19145(12) 0.39210(13) 0.64942(14)
C69_7 C 0.19145(12) 0.35058(14) 0.89210(13)
C72_7 C 0.09898(14) 0.36636(15) 0.71318(13)
C74_7 C 0.09898(14) 0.28682(13) 0.86636(15)
C75_7 C 0.13364(15) 0.28682(13) 0.59898(14)
C77_7 C 0.13364(15) 0.40102(14) 0.78682(13)
C78_7 C 0.21318(13) 0.40102(14) 0.63364(15)
C80_7 C 0.21318(13) 0.36636(15) 0.90102(14)
H27_7 H 0.1080 0.3832 0.7171
H29_7 H 0.1080 0.2829 0.8832
H30_7 H 0.1168 0.2829 0.6080
H32_7 H 0.1168 0.3920 0.7829
H33_7 H 0.2171 0.3920 0.6168
H35_7 H 0.2171 0.3832 0.8920
C83_7 C 0.07760(13) 0.35840(15) 0.72907(14)
C85_7 C 0.07760(13) 0.27093(14) 0.85840(15)
C86_7 C 0.14160(15) 0.27093(14) 0.57760(13)
C88_7 C 0.14160(15) 0.42240(13) 0.77093(14)
C89_7 C 0.22907(14) 0.42240(13) 0.64160(15)
C91_7 C 0.22907(14) 0.35840(15) 0.92240(13)
H38_7 H 0.0717 0.3699 0.7437
H40_7 H 0.0717 0.2563 0.8699
H41_7 H 0.1301 0.2563 0.5717
H43_7 H 0.1301 0.4283 0.7563
H44_7 H 0.2437 0.4283 0.6301
H46_7 H 0.2437 0.3699 0.9283
C94_7 C 0.10427(15) 0.31274(14) 0.65991(15)
C96_7 C 0.10427(15) 0.34009(15) 0.81274(14)
C97_7 C 0.15991(15) 0.39573(15) 0.68726(14)
C99_7 C 0.15991(15) 0.31274(14) 0.89573(15)
C100_7 C 0.18726(14) 0.34009(15) 0.60427(15)
C102_7 C 0.18726(14) 0.39573(15) 0.84009(15)
C105_7 C 0.12784(13) 0.33170(14) 0.65199(12)
C107_7 C 0.12784(13) 0.34801(12) 0.83170(14)
C108_7 C 0.15199(12) 0.37216(13) 0.66830(14)
C110_7 C 0.15199(12) 0.33170(14) 0.87216(13)
C111_7 C 0.16830(14) 0.34801(12) 0.62784(13)
C113_7 C 0.16830(14) 0.37216(13) 0.84801(12)
C116_7 C 0.13024(13) 0.35358(13) 0.67075(13)
C118_7 C 0.13024(13) 0.32925(13) 0.85358(13)
C119_7 C 0.14642(13) 0.32925(13) 0.63024(13)
C121_7 C 0.14642(13) 0.36976(13) 0.82925(13)
C122_7 C 0.17075(13) 0.36976(13) 0.64642(13)
C124_7 C 0.17075(13) 0.35358(13) 0.86976(13)
C127_7 C 0.08031(17) 0.3136(2) 0.63856(18)
C129_7 C 0.08031(17) 0.36144(18) 0.8136(2)
C130_7 C 0.13856(18) 0.41969(17) 0.6864(2)
C132_7 C 0.13856(18) 0.3136(2) 0.91969(17)
C133_7 C 0.1864(2) 0.36144(18) 0.58031(17)
C135_7 C 0.1864(2) 0.41969(17) 0.86144(18)
H49_7 H 0.0648 0.3026 0.6458
H51_7 H 0.0648 0.3542 0.8026
H52_7 H 0.1458 0.4352 0.6974
H54_7 H 0.1458 0.3026 0.9352
H55_7 H 0.1974 0.3542 0.5648
H57_7 H 0.1974 0.4352 0.8542
H60_7 H 0.0866 0.3047 0.6214
H62_7 H 0.0866 0.3786 0.8047
H63_7 H 0.1214 0.4134 0.6953
H65_7 H 0.1214 0.3047 0.9134
H66_7 H 0.1953 0.3786 0.5866
H68_7 H 0.1953 0.4134 0.8786
C138_7 C 0.0697(2) 0.3427(2) 0.6315(2)
C140_7 C 0.0697(2) 0.3685(2) 0.8427(2)
C141_7 C 0.1315(2) 0.4303(2) 0.6573(2)
C143_7 C 0.1315(2) 0.3427(2) 0.9303(2)
C144_7 C 0.1573(2) 0.3685(2) 0.5697(2)
C146_7 C 0.1573(2) 0.4303(2) 0.8685(2)
H71_7 H 0.0852 0.3545 0.6265
H73_7 H 0.0852 0.3735 0.8545
H74_7 H 0.1265 0.4148 0.6455
H76_7 H 0.1265 0.3545 0.9148
H77_7 H 0.1455 0.3735 0.5852
H79_7 H 0.1455 0.4148 0.8735
H82_7 H 0.0568 0.3416 0.6161
H84_7 H 0.0568 0.3839 0.8416
H85_7 H 0.1161 0.4432 0.6584
H87_7 H 0.1161 0.3416 0.9432
H88_7 H 0.1584 0.3839 0.5568
H90_7 H 0.1584 0.4432 0.8839
H93_7 H 0.0603 0.3504 0.6476
H95_7 H 0.0603 0.3524 0.8504
H96_7 H 0.1476 0.4397 0.6496
H98_7 H 0.1476 0.3504 0.9397
H99_7 H 0.1496 0.3524 0.5603
H101_7 H 0.1496 0.4397 0.8524
C149_7 C 0.11421(19) 0.28376(17) 0.66663(18)
C151_7 C 0.11421(19) 0.33337(18) 0.78376(17)
C152_7 C 0.16663(18) 0.38579(19) 0.71624(17)
C154_7 C 0.16663(18) 0.28376(17) 0.88579(19)
C155_7 C 0.21624(17) 0.33337(18) 0.61421(19)
C157_7 C 0.21624(17) 0.38579(19) 0.83337(18)
H104_7 H 0.0985 0.2730 0.6738
H106_7 H 0.0985 0.3262 0.7730
H107_7 H 0.1738 0.4015 0.7270
H109_7 H 0.1738 0.2730 0.9015
H110_7 H 0.2270 0.3262 0.5985
H112_7 H 0.2270 0.4015 0.8262
H115_7 H 0.1204 0.2749 0.6494
H117_7 H 0.1204 0.3506 0.7749
H118_7 H 0.1494 0.3796 0.7251
H120_7 H 0.1494 0.2749 0.8796
H121_7 H 0.2251 0.3506 0.6204
H123_7 H 0.2251 0.3796 0.8506
C160_7 C 0.1378(2) 0.28268(19) 0.6878(3)
C162_7 C 0.1378(2) 0.3122(3) 0.78268(19)
C163_7 C 0.1878(3) 0.3622(2) 0.71732(19)
C165_7 C 0.1878(3) 0.28268(19) 0.8622(2)
C166_7 C 0.21732(19) 0.3122(3) 0.6378(2)
C168_7 C 0.21732(19) 0.3622(2) 0.8122(3)
H126_7 H 0.1334 0.2947 0.7033
H128_7 H 0.1334 0.2967 0.7947
H129_7 H 0.2033 0.3666 0.7053
H131_7 H 0.2033 0.2947 0.8666
H132_7 H 0.2053 0.2967 0.6334
H134_7 H 0.2053 0.3666 0.7967
H137_7 H 0.1401 0.2638 0.6943
H139_7 H 0.1401 0.3057 0.7638
H140_7 H 0.1943 0.3599 0.7362
H142_7 H 0.1943 0.2638 0.8599
H143_7 H 0.2362 0.3057 0.6401
H145_7 H 0.2362 0.3599 0.8057
H148_7 H 0.1549 0.2889 0.6791
H150_7 H 0.1549 0.3209 0.7889
H151_7 H 0.1791 0.3451 0.7111
H153_7 H 0.1791 0.2889 0.8451
H154_7 H 0.2111 0.3209 0.6549
H156_7 H 0.2111 0.3451 0.8209
O2_9 O 0.96901(11) 0.23885(12) 0.69920(15)
O3_9 O 0.96523(11) 0.26278(13) 0.66180(14)
O4_15 O 1.0000 0.2500 0.7500
C1_9 C 0.95780(13) 0.24258(17) 0.67549(18)
C2_9 C 0.93584(13) 0.22425(13) 0.66641(17)
C3_9 C 0.92761(13) 0.20208(14) 0.68235(17)
H1_9 H 0.9365 0.1983 0.6993
C4_9 C 0.90638(12) 0.18561(13) 0.67328(14)
C5_9 C 0.89210(13) 0.19145(12) 0.64942(14)
C6_9 C 0.90102(14) 0.21318(13) 0.63364(15)
H2_9 H 0.8920 0.2171 0.6168
C7_9 C 0.92240(13) 0.22907(14) 0.64160(15)
H3_9 H 0.9283 0.2437 0.6301
C8_9 C 0.89573(15) 0.15991(15) 0.68726(14)
C9_9 C 0.87216(13) 0.15199(12) 0.66830(14)
C10_9 C 0.86976(13) 0.17075(13) 0.64642(13)
C11_9 C 0.91969(17) 0.13856(18) 0.6864(2)
H4_9 H 0.9352 0.1458 0.6974
H5_9 H 0.9134 0.1214 0.6953
C12_9 C 0.9303(2) 0.1315(2) 0.6573(2)
H6_9 H 0.9148 0.1265 0.6455
H7_9 H 0.9432 0.1161 0.6584
H8_9 H 0.9397 0.1476 0.6496
C13_9 C 0.88579(19) 0.16663(18) 0.71624(17)
H9_9 H 0.9015 0.1738 0.7270
H10_9 H 0.8796 0.1494 0.7251
C14_9 C 0.8622(2) 0.1878(3) 0.71732(19)
H11_9 H 0.8666 0.2033 0.7053
H12_9 H 0.8599 0.1943 0.7362
H13_9 H 0.8451 0.1791 0.7111
Cd3_10 Cd 1.0000 0.30092(4) 0.77582(3)
O5_9 O 0.96901(11) 0.30080(15) 0.73885(12)
O9_9 O 0.76115(12) 0.19920(15) 0.53099(11)
O13_8 O 0.96901(11) 0.26115(12) 0.80080(15)
O22_9 O 0.73722(13) 0.16180(14) 0.53477(11)
O24_8 O 0.96523(11) 0.23722(13) 0.83820(14)
O27_9 O 0.96523(11) 0.33820(14) 0.76278(13)
C15_9 C 0.82451(18) 0.04220(13) 0.74258(17)
C16_9 C 0.75742(17) 0.17549(18) 0.54220(13)
C26_9 C 0.83359(17) 0.06416(13) 0.72425(13)
C27_9 C 0.77575(13) 0.16641(17) 0.56416(13)
C37_9 C 0.81765(17) 0.07239(13) 0.70208(14)
C38_9 C 0.79792(14) 0.18235(17) 0.57239(13)
H14_9 H 0.8007 0.0635 0.6983
H15_9 H 0.8017 0.1993 0.5635
C48_9 C 0.82672(14) 0.09362(12) 0.68561(13)
C49_9 C 0.81439(13) 0.17328(14) 0.59362(12)
C59_9 C 0.85058(14) 0.10790(13) 0.69145(12)
C60_9 C 0.80855(12) 0.14942(14) 0.60790(13)
C70_9 C 0.86636(15) 0.09898(14) 0.71318(13)
C71_9 C 0.78682(13) 0.13364(15) 0.59898(14)
H25_9 H 0.8832 0.1080 0.7171
H26_9 H 0.7829 0.1168 0.6080
C81_9 C 0.85840(15) 0.07760(13) 0.72907(14)
C82_9 C 0.77093(14) 0.14160(15) 0.57760(13)
H36_9 H 0.8699 0.0717 0.7437
H37_9 H 0.7563 0.1301 0.5717
C92_9 C 0.84009(15) 0.18726(14) 0.60427(15)
C93_9 C 0.81274(14) 0.10427(15) 0.65991(15)
C103_9 C 0.84801(12) 0.16830(14) 0.62784(13)
C104_9 C 0.83170(14) 0.12784(13) 0.65199(12)
C114_9 C 0.85358(13) 0.13024(13) 0.67075(13)
C115_9 C 0.82925(13) 0.14642(13) 0.63024(13)
C125_9 C 0.86144(18) 0.1864(2) 0.58031(17)
C126_9 C 0.8136(2) 0.08031(17) 0.63856(18)
H47_9 H 0.8542 0.1974 0.5648
H48_9 H 0.8026 0.0648 0.6458
H58_9 H 0.8786 0.1953 0.5866
H59_9 H 0.8047 0.0866 0.6214
C136_9 C 0.8685(2) 0.1573(2) 0.5697(2)
C137_9 C 0.8427(2) 0.0697(2) 0.6315(2)
H69_9 H 0.8735 0.1455 0.5852
H70_9 H 0.8545 0.0852 0.6265
H80_9 H 0.8839 0.1584 0.5568
H81_9 H 0.8416 0.0568 0.6161
H91_9 H 0.8524 0.1496 0.5603
H92_9 H 0.8504 0.0603 0.6476
C147_9 C 0.83337(18) 0.21624(17) 0.61421(19)
C148_9 C 0.78376(17) 0.11421(19) 0.66663(18)
H102_9 H 0.8262 0.2270 0.5985
H103_9 H 0.7730 0.0985 0.6738
H113_9 H 0.8506 0.2251 0.6204
H114_9 H 0.7749 0.1204 0.6494
C158_9 C 0.8122(3) 0.21732(19) 0.6378(2)
C159_9 C 0.78268(19) 0.1378(2) 0.6878(3)
H124_9 H 0.7967 0.2053 0.6334
H125_9 H 0.7947 0.1334 0.7033
H135_9 H 0.8057 0.2362 0.6401
H136_9 H 0.7638 0.1401 0.6943
H146_9 H 0.8209 0.2111 0.6549
H147_9 H 0.7889 0.1549 0.6791
O2_10 O 0.76115(12) 0.69920(15) 0.03099(11)
O3_10 O 0.73722(13) 0.66180(14) 0.03477(11)
O4_16 O 0.7500 0.7500 0.0000
C1_10 C 0.75742(17) 0.67549(18) 0.04220(13)
C2_10 C 0.77575(13) 0.66641(17) 0.06416(13)
C3_10 C 0.79792(14) 0.68235(17) 0.07239(13)
H1_10 H 0.8017 0.6993 0.0635
C4_10 C 0.81439(13) 0.67328(14) 0.09362(12)
C5_10 C 0.80855(12) 0.64942(14) 0.10790(13)
C6_10 C 0.78682(13) 0.63364(15) 0.09898(14)
H2_10 H 0.7829 0.6168 0.1080
C7_10 C 0.77093(14) 0.64160(15) 0.07760(13)
H3_10 H 0.7563 0.6301 0.0717
C8_10 C 0.84009(15) 0.68726(14) 0.10427(15)
C9_10 C 0.84801(12) 0.66830(14) 0.12784(13)
C10_10 C 0.82925(13) 0.64642(13) 0.13024(13)
C11_10 C 0.86144(18) 0.6864(2) 0.08031(17)
H4_10 H 0.8542 0.6974 0.0648
H5_10 H 0.8786 0.6953 0.0866
C12_10 C 0.8685(2) 0.6573(2) 0.0697(2)
H6_10 H 0.8735 0.6455 0.0852
H7_10 H 0.8839 0.6584 0.0568
H8_10 H 0.8524 0.6496 0.0603
C13_10 C 0.83337(18) 0.71624(17) 0.11421(19)
H9_10 H 0.8262 0.7270 0.0985
H10_10 H 0.8506 0.7251 0.1204
C14_10 C 0.8122(3) 0.71732(19) 0.1378(2)
H11_10 H 0.7967 0.7053 0.1334
H12_10 H 0.8057 0.7362 0.1401
H13_10 H 0.8209 0.7111 0.1549
Cd7_11 Cd 0.80092(4) 0.5000 0.27582(3)
O5_10 O 0.69920(15) 0.73885(12) 0.03099(11)
O9_10 O 0.80080(15) 0.53099(11) 0.23885(12)
O22_10 O 0.83820(14) 0.53477(11) 0.26278(13)
O27_10 O 0.66180(14) 0.76278(13) 0.03477(11)
C15_10 C 0.95780(13) 0.74258(17) 0.17549(18)
C16_10 C 0.82451(18) 0.54220(13) 0.24258(17)
C26_10 C 0.93584(13) 0.72425(13) 0.16641(17)
C27_10 C 0.83359(17) 0.56416(13) 0.22425(13)
C37_10 C 0.92761(13) 0.70208(14) 0.18235(17)
C38_10 C 0.81765(17) 0.57239(13) 0.20208(14)
H14_10 H 0.9365 0.6983 0.1993
H15_10 H 0.8007 0.5635 0.1983
C48_10 C 0.90638(12) 0.68561(13) 0.17328(14)
C49_10 C 0.82672(14) 0.59362(12) 0.18561(13)
C59_10 C 0.89210(13) 0.69145(12) 0.14942(14)
C60_10 C 0.85058(14) 0.60790(13) 0.19145(12)
C70_10 C 0.90102(14) 0.71318(13) 0.13364(15)
C71_10 C 0.86636(15) 0.59898(14) 0.21318(13)
H25_10 H 0.8920 0.7171 0.1168
H26_10 H 0.8832 0.6080 0.2171
C81_10 C 0.92240(13) 0.72907(14) 0.14160(15)
C82_10 C 0.85840(15) 0.57760(13) 0.22907(14)
H36_10 H 0.9283 0.7437 0.1301
H37_10 H 0.8699 0.5717 0.2437
C92_10 C 0.81274(14) 0.60427(15) 0.15991(15)
C93_10 C 0.89573(15) 0.65991(15) 0.18726(14)
C103_10 C 0.83170(14) 0.62784(13) 0.15199(12)
C104_10 C 0.87216(13) 0.65199(12) 0.16830(14)
C114_10 C 0.86976(13) 0.67075(13) 0.14642(13)
C115_10 C 0.85358(13) 0.63024(13) 0.17075(13)
C125_10 C 0.8136(2) 0.58031(17) 0.13856(18)
C126_10 C 0.91969(17) 0.63856(18) 0.1864(2)
H47_10 H 0.8026 0.5648 0.1458
H48_10 H 0.9352 0.6458 0.1974
H58_10 H 0.8047 0.5866 0.1214
H59_10 H 0.9134 0.6214 0.1953
C136_10 C 0.8427(2) 0.5697(2) 0.1315(2)
C137_10 C 0.9303(2) 0.6315(2) 0.1573(2)
H69_10 H 0.8545 0.5852 0.1265
H70_10 H 0.9148 0.6265 0.1455
H80_10 H 0.8416 0.5568 0.1161
H81_10 H 0.9432 0.6161 0.1584
H91_10 H 0.8504 0.5603 0.1476
H92_10 H 0.9397 0.6476 0.1496
C147_10 C 0.78376(17) 0.61421(19) 0.16663(18)
C148_10 C 0.88579(19) 0.66663(18) 0.21624(17)
H102_10 H 0.7730 0.5985 0.1738
H103_10 H 0.9015 0.6738 0.2270
H113_10 H 0.7749 0.6204 0.1494
H114_10 H 0.8796 0.6494 0.2251
C158_10 C 0.78268(19) 0.6378(2) 0.1878(3)
C159_10 C 0.8622(2) 0.6878(3) 0.21732(19)
H124_10 H 0.7947 0.6334 0.2033
H125_10 H 0.8666 0.7033 0.2053
H135_10 H 0.7638 0.6401 0.1943
H136_10 H 0.8599 0.6943 0.2362
H146_10 H 0.7889 0.6549 0.1791
H147_10 H 0.8451 0.6791 0.2111
O4_17 O 0.7500 0.7500 1.0000
Cd9_11 Cd 0.5000 0.69908(4) 0.72418(3)
Cd12_9 Cd 0.69908(4) 0.5000 0.77582(3)
O7_8 O 0.69920(15) 0.73885(12) 0.96901(11)
O11_8 O 0.73885(12) 0.80080(15) 0.96901(11)
O12_10 O 0.80080(15) 0.76115(12) 0.96901(11)
O14_8 O 0.53099(11) 0.69920(15) 0.76115(12)
O15_6 O 0.73885(12) 0.53099(11) 0.80080(15)
O19_8 O 0.53099(11) 0.76115(12) 0.80080(15)
O23_8 O 0.76278(13) 0.83820(14) 0.96523(11)
O26_10 O 0.83820(14) 0.73722(13) 0.96523(11)
O28_8 O 0.66180(14) 0.76278(13) 0.96523(11)
O29_8 O 0.53477(11) 0.66180(14) 0.73722(13)
O30_6 O 0.76278(13) 0.53477(11) 0.83820(14)
O34_8 O 0.53477(11) 0.73722(13) 0.83820(14)
C17_8 C 0.67549(18) 0.74258(17) 0.95780(13)
C19_8 C 0.74258(17) 0.82451(18) 0.95780(13)
C20_8 C 0.54220(13) 0.67549(18) 0.75742(17)
C21_8 C 0.74258(17) 0.54220(13) 0.82451(18)
C24_8 C 0.67549(18) 0.95780(13) 0.75742(17)
C25_8 C 0.54220(13) 0.75742(17) 0.82451(18)
C28_8 C 0.66641(17) 0.72425(13) 0.93584(13)
C30_8 C 0.72425(13) 0.83359(17) 0.93584(13)
C31_8 C 0.56416(13) 0.66641(17) 0.77575(13)
C32_8 C 0.72425(13) 0.56416(13) 0.83359(17)
C35_8 C 0.66641(17) 0.93584(13) 0.77575(13)
C36_8 C 0.56416(13) 0.77575(13) 0.83359(17)
C39_8 C 0.68235(17) 0.70208(14) 0.92761(13)
C41_8 C 0.70208(14) 0.81765(17) 0.92761(13)
C42_8 C 0.57239(13) 0.68235(17) 0.79792(14)
C43_8 C 0.70208(14) 0.57239(13) 0.81765(17)
C46_8 C 0.68235(17) 0.92761(13) 0.79792(14)
C47_8 C 0.57239(13) 0.79792(14) 0.81765(17)
H16_8 H 0.6993 0.6983 0.9365
H18_8 H 0.6983 0.8007 0.9365
H19_8 H 0.5635 0.6993 0.8017
H20_8 H 0.6983 0.5635 0.8007
H23_8 H 0.6993 0.9365 0.8017
H24_8 H 0.5635 0.8017 0.8007
C50_8 C 0.67328(14) 0.68561(13) 0.90638(12)
C52_8 C 0.68561(13) 0.82672(14) 0.90638(12)
C53_8 C 0.59362(12) 0.67328(14) 0.81439(13)
C54_8 C 0.68561(13) 0.59362(12) 0.82672(14)
C57_8 C 0.67328(14) 0.90638(12) 0.81439(13)
C58_8 C 0.59362(12) 0.81439(13) 0.82672(14)
C61_8 C 0.64942(14) 0.69145(12) 0.89210(13)
C63_8 C 0.69145(12) 0.85058(14) 0.89210(13)
C64_8 C 0.69145(12) 0.60790(13) 0.85058(14)
C66_8 C 0.60790(13) 0.80855(12) 0.85058(14)
C67_8 C 0.60790(13) 0.64942(14) 0.80855(12)
C69_8 C 0.64942(14) 0.89210(13) 0.80855(12)
C72_8 C 0.63364(15) 0.71318(13) 0.90102(14)
C74_8 C 0.71318(13) 0.86636(15) 0.90102(14)
C75_8 C 0.71318(13) 0.59898(14) 0.86636(15)
C77_8 C 0.59898(14) 0.78682(13) 0.86636(15)
C78_8 C 0.59898(14) 0.63364(15) 0.78682(13)
C80_8 C 0.63364(15) 0.90102(14) 0.78682(13)
H27_8 H 0.6168 0.7171 0.8920
H29_8 H 0.7171 0.8832 0.8920
H30_8 H 0.7171 0.6080 0.8832
H32_8 H 0.6080 0.7829 0.8832
H33_8 H 0.6080 0.6168 0.7829
H35_8 H 0.6168 0.8920 0.7829
C83_8 C 0.64160(15) 0.72907(14) 0.92240(13)
C85_8 C 0.72907(14) 0.85840(15) 0.92240(13)
C86_8 C 0.72907(14) 0.57760(13) 0.85840(15)
C88_8 C 0.57760(13) 0.77093(14) 0.85840(15)
C89_8 C 0.57760(13) 0.64160(15) 0.77093(14)
C91_8 C 0.64160(15) 0.92240(13) 0.77093(14)
H38_8 H 0.6301 0.7437 0.9283
H40_8 H 0.7437 0.8699 0.9283
H41_8 H 0.7437 0.5717 0.8699
H43_8 H 0.5717 0.7563 0.8699
H44_8 H 0.5717 0.6301 0.7563
H46_8 H 0.6301 0.9283 0.7563
C94_8 C 0.68726(14) 0.65991(15) 0.89573(15)
C96_8 C 0.65991(15) 0.81274(14) 0.89573(15)
C97_8 C 0.60427(15) 0.68726(14) 0.84009(15)
C99_8 C 0.68726(14) 0.89573(15) 0.84009(15)
C100_8 C 0.65991(15) 0.60427(15) 0.81274(14)
C102_8 C 0.60427(15) 0.84009(15) 0.81274(14)
C105_8 C 0.66830(14) 0.65199(12) 0.87216(13)
C107_8 C 0.65199(12) 0.83170(14) 0.87216(13)
C108_8 C 0.62784(13) 0.66830(14) 0.84801(12)
C110_8 C 0.66830(14) 0.87216(13) 0.84801(12)
C111_8 C 0.65199(12) 0.62784(13) 0.83170(14)
C113_8 C 0.62784(13) 0.84801(12) 0.83170(14)
C116_8 C 0.64642(13) 0.67075(13) 0.86976(13)
C118_8 C 0.67075(13) 0.85358(13) 0.86976(13)
C119_8 C 0.67075(13) 0.63024(13) 0.85358(13)
C121_8 C 0.63024(13) 0.82925(13) 0.85358(13)
C122_8 C 0.63024(13) 0.64642(13) 0.82925(13)
C124_8 C 0.64642(13) 0.86976(13) 0.82925(13)
C127_8 C 0.6864(2) 0.63856(18) 0.91969(17)
C129_8 C 0.63856(18) 0.8136(2) 0.91969(17)
C130_8 C 0.58031(17) 0.6864(2) 0.86144(18)
C132_8 C 0.6864(2) 0.91969(17) 0.86144(18)
C133_8 C 0.63856(18) 0.58031(17) 0.8136(2)
C135_8 C 0.58031(17) 0.86144(18) 0.8136(2)
H49_8 H 0.6974 0.6458 0.9352
H51_8 H 0.6458 0.8026 0.9352
H52_8 H 0.5648 0.6974 0.8542
H54_8 H 0.6974 0.9352 0.8542
H55_8 H 0.6458 0.5648 0.8026
H57_8 H 0.5648 0.8542 0.8026
H60_8 H 0.6953 0.6214 0.9134
H62_8 H 0.6214 0.8047 0.9134
H63_8 H 0.5866 0.6953 0.8786
H65_8 H 0.6953 0.9134 0.8786
H66_8 H 0.6214 0.5866 0.8047
H68_8 H 0.5866 0.8786 0.8047
C138_8 C 0.6573(2) 0.6315(2) 0.9303(2)
C140_8 C 0.6315(2) 0.8427(2) 0.9303(2)
C141_8 C 0.5697(2) 0.6573(2) 0.8685(2)
C143_8 C 0.6573(2) 0.9303(2) 0.8685(2)
C144_8 C 0.6315(2) 0.5697(2) 0.8427(2)
C146_8 C 0.5697(2) 0.8685(2) 0.8427(2)
H71_8 H 0.6455 0.6265 0.9148
H73_8 H 0.6265 0.8545 0.9148
H74_8 H 0.5852 0.6455 0.8735
H76_8 H 0.6455 0.9148 0.8735
H77_8 H 0.6265 0.5852 0.8545
H79_8 H 0.5852 0.8735 0.8545
H82_8 H 0.6584 0.6161 0.9432
H84_8 H 0.6161 0.8416 0.9432
H85_8 H 0.5568 0.6584 0.8839
H87_8 H 0.6584 0.9432 0.8839
H88_8 H 0.6161 0.5568 0.8416
H90_8 H 0.5568 0.8839 0.8416
H93_8 H 0.6496 0.6476 0.9397
H95_8 H 0.6476 0.8504 0.9397
H96_8 H 0.5603 0.6496 0.8524
H98_8 H 0.6496 0.9397 0.8524
H99_8 H 0.6476 0.5603 0.8504
H101_8 H 0.5603 0.8524 0.8504
C149_8 C 0.71624(17) 0.66663(18) 0.88579(19)
C151_8 C 0.66663(18) 0.78376(17) 0.88579(19)
C152_8 C 0.61421(19) 0.71624(17) 0.83337(18)
C154_8 C 0.71624(17) 0.88579(19) 0.83337(18)
C155_8 C 0.66663(18) 0.61421(19) 0.78376(17)
C157_8 C 0.61421(19) 0.83337(18) 0.78376(17)
H104_8 H 0.7270 0.6738 0.9015
H106_8 H 0.6738 0.7730 0.9015
H107_8 H 0.5985 0.7270 0.8262
H109_8 H 0.7270 0.9015 0.8262
H110_8 H 0.6738 0.5985 0.7730
H112_8 H 0.5985 0.8262 0.7730
H115_8 H 0.7251 0.6494 0.8796
H117_8 H 0.6494 0.7749 0.8796
H118_8 H 0.6204 0.7251 0.8506
H120_8 H 0.7251 0.8796 0.8506
H121_8 H 0.6494 0.6204 0.7749
H123_8 H 0.6204 0.8506 0.7749
C160_8 C 0.71732(19) 0.6878(3) 0.8622(2)
C162_8 C 0.6878(3) 0.78268(19) 0.8622(2)
C163_8 C 0.6378(2) 0.71732(19) 0.8122(3)
C165_8 C 0.71732(19) 0.8622(2) 0.8122(3)
C166_8 C 0.6878(3) 0.6378(2) 0.78268(19)
C168_8 C 0.6378(2) 0.8122(3) 0.78268(19)
H126_8 H 0.7053 0.7033 0.8666
H128_8 H 0.7033 0.7947 0.8666
H129_8 H 0.6334 0.7053 0.7967
H131_8 H 0.7053 0.8666 0.7967
H132_8 H 0.7033 0.6334 0.7947
H134_8 H 0.6334 0.7967 0.7947
H137_8 H 0.7362 0.6943 0.8599
H139_8 H 0.6943 0.7638 0.8599
H140_8 H 0.6401 0.7362 0.8057
H142_8 H 0.7362 0.8599 0.8057
H143_8 H 0.6943 0.6401 0.7638
H145_8 H 0.6401 0.8057 0.7638
H148_8 H 0.7111 0.6791 0.8451
H150_8 H 0.6791 0.7889 0.8451
H151_8 H 0.6549 0.7111 0.8209
H153_8 H 0.7111 0.8451 0.8209
H154_8 H 0.6791 0.6549 0.7889
H156_8 H 0.6549 0.8209 0.7889
O4_18 O 0.7500 0.2500 0.0000
O6_7 O 0.76115(12) 0.30080(15) 0.03099(11)
O12_11 O 0.80080(15) 0.23885(12) 0.03099(11)
O20_7 O 0.73722(13) 0.33820(14) 0.03477(11)
O26_11 O 0.83820(14) 0.26278(13) 0.03477(11)
O2_11 O 0.76115(12) 0.30080(15) 0.96901(11)
O3_11 O 0.73722(13) 0.33820(14) 0.96523(11)
O4_19 O 0.7500 0.2500 1.0000
C1_11 C 0.75742(17) 0.32451(18) 0.95780(13)
C2_11 C 0.77575(13) 0.33359(17) 0.93584(13)
C3_11 C 0.79792(14) 0.31765(17) 0.92761(13)
H1_11 H 0.8017 0.3007 0.9365
C4_11 C 0.81439(13) 0.32672(14) 0.90638(12)
C5_11 C 0.80855(12) 0.35058(14) 0.89210(13)
C6_11 C 0.78682(13) 0.36636(15) 0.90102(14)
H2_11 H 0.7829 0.3832 0.8920
C7_11 C 0.77093(14) 0.35840(15) 0.92240(13)
H3_11 H 0.7563 0.3699 0.9283
C8_11 C 0.84009(15) 0.31274(14) 0.89573(15)
C9_11 C 0.84801(12) 0.33170(14) 0.87216(13)
C10_11 C 0.82925(13) 0.35358(13) 0.86976(13)
C11_11 C 0.86144(18) 0.3136(2) 0.91969(17)
H4_11 H 0.8542 0.3026 0.9352
H5_11 H 0.8786 0.3047 0.9134
C12_11 C 0.8685(2) 0.3427(2) 0.9303(2)
H6_11 H 0.8735 0.3545 0.9148
H7_11 H 0.8839 0.3416 0.9432
H8_11 H 0.8524 0.3504 0.9397
C13_11 C 0.83337(18) 0.28376(17) 0.88579(19)
H9_11 H 0.8262 0.2730 0.9015
H10_11 H 0.8506 0.2749 0.8796
C14_11 C 0.8122(3) 0.28268(19) 0.8622(2)
H11_11 H 0.7967 0.2947 0.8666
H12_11 H 0.8057 0.2638 0.8599
H13_11 H 0.8209 0.2889 0.8451
O5_11 O 0.69920(15) 0.26115(12) 0.96901(11)
O9_11 O 0.80080(15) 0.46901(11) 0.76115(12)
O22_11 O 0.83820(14) 0.46523(11) 0.73722(13)
O27_11 O 0.66180(14) 0.23722(13) 0.96523(11)
C15_11 C 0.95780(13) 0.25742(17) 0.82451(18)
C16_11 C 0.82451(18) 0.45780(13) 0.75742(17)
C26_11 C 0.93584(13) 0.27575(13) 0.83359(17)
C27_11 C 0.83359(17) 0.43584(13) 0.77575(13)
C37_11 C 0.92761(13) 0.29792(14) 0.81765(17)
C38_11 C 0.81765(17) 0.42761(13) 0.79792(14)
H14_11 H 0.9365 0.3017 0.8007
H15_11 H 0.8007 0.4365 0.8017
C48_11 C 0.90638(12) 0.31439(13) 0.82672(14)
C49_11 C 0.82672(14) 0.40638(12) 0.81439(13)
C59_11 C 0.89210(13) 0.30855(12) 0.85058(14)
C60_11 C 0.85058(14) 0.39210(13) 0.80855(12)
C70_11 C 0.90102(14) 0.28682(13) 0.86636(15)
C71_11 C 0.86636(15) 0.40102(14) 0.78682(13)
H25_11 H 0.8920 0.2829 0.8832
H26_11 H 0.8832 0.3920 0.7829
C81_11 C 0.92240(13) 0.27093(14) 0.85840(15)
C82_11 C 0.85840(15) 0.42240(13) 0.77093(14)
H36_11 H 0.9283 0.2563 0.8699
H37_11 H 0.8699 0.4283 0.7563
C92_11 C 0.81274(14) 0.39573(15) 0.84009(15)
C93_11 C 0.89573(15) 0.34009(15) 0.81274(14)
C103_11 C 0.83170(14) 0.37216(13) 0.84801(12)
C104_11 C 0.87216(13) 0.34801(12) 0.83170(14)
C114_11 C 0.86976(13) 0.32925(13) 0.85358(13)
C115_11 C 0.85358(13) 0.36976(13) 0.82925(13)
C125_11 C 0.8136(2) 0.41969(17) 0.86144(18)
C126_11 C 0.91969(17) 0.36144(18) 0.8136(2)
H47_11 H 0.8026 0.4352 0.8542
H48_11 H 0.9352 0.3542 0.8026
H58_11 H 0.8047 0.4134 0.8786
H59_11 H 0.9134 0.3786 0.8047
C136_11 C 0.8427(2) 0.4303(2) 0.8685(2)
C137_11 C 0.9303(2) 0.3685(2) 0.8427(2)
H69_11 H 0.8545 0.4148 0.8735
H70_11 H 0.9148 0.3735 0.8545
H80_11 H 0.8416 0.4432 0.8839
H81_11 H 0.9432 0.3839 0.8416
H91_11 H 0.8504 0.4397 0.8524
H92_11 H 0.9397 0.3524 0.8504
C147_11 C 0.78376(17) 0.38579(19) 0.83337(18)
C148_11 C 0.88579(19) 0.33337(18) 0.78376(17)
H102_11 H 0.7730 0.4015 0.8262
H103_11 H 0.9015 0.3262 0.7730
H113_11 H 0.7749 0.3796 0.8506
H114_11 H 0.8796 0.3506 0.7749
C158_11 C 0.78268(19) 0.3622(2) 0.8122(3)
C159_11 C 0.8622(2) 0.3122(3) 0.78268(19)
H124_11 H 0.7947 0.3666 0.7967
H125_11 H 0.8666 0.2967 0.7947
H135_11 H 0.7638 0.3599 0.8057
H136_11 H 0.8599 0.3057 0.7638
H146_11 H 0.7889 0.3451 0.8209
H147_11 H 0.8451 0.3209 0.7889
Cd17_10 Cd 0.27582(3) -0.0000 0.19908(4)
O4_20 O 0.2500 0.7500 0.0000
Cd9_12 Cd 0.5000 0.69908(4) 0.27582(3)
Cd17_11 Cd 0.27582(3) 1.0000 0.19908(4)
O7_9 O 0.30080(15) 0.73885(12) 0.03099(11)
O11_9 O 0.26115(12) 0.80080(15) 0.03099(11)
O12_12 O 0.19920(15) 0.76115(12) 0.03099(11)
O14_9 O 0.46901(11) 0.69920(15) 0.23885(12)
O18_8 O 0.30080(15) 0.96901(11) 0.23885(12)
O19_9 O 0.46901(11) 0.76115(12) 0.19920(15)
O23_9 O 0.23722(13) 0.83820(14) 0.03477(11)
O26_12 O 0.16180(14) 0.73722(13) 0.03477(11)
O28_9 O 0.33820(14) 0.76278(13) 0.03477(11)
O29_9 O 0.46523(11) 0.66180(14) 0.26278(13)
O33_8 O 0.33820(14) 0.96523(11) 0.26278(13)
O34_9 O 0.46523(11) 0.73722(13) 0.16180(14)
C17_9 C 0.32451(18) 0.74258(17) 0.04220(13)
C19_9 C 0.25742(17) 0.82451(18) 0.04220(13)
C20_9 C 0.45780(13) 0.67549(18) 0.24258(17)
C21_9 C 0.25742(17) 0.54220(13) 0.17549(18)
C24_9 C 0.32451(18) 0.95780(13) 0.24258(17)
C25_9 C 0.45780(13) 0.75742(17) 0.17549(18)
C28_9 C 0.33359(17) 0.72425(13) 0.06416(13)
C30_9 C 0.27575(13) 0.83359(17) 0.06416(13)
C31_9 C 0.43584(13) 0.66641(17) 0.22425(13)
C32_9 C 0.27575(13) 0.56416(13) 0.16641(17)
C35_9 C 0.33359(17) 0.93584(13) 0.22425(13)
C36_9 C 0.43584(13) 0.77575(13) 0.16641(17)
C39_9 C 0.31765(17) 0.70208(14) 0.07239(13)
C41_9 C 0.29792(14) 0.81765(17) 0.07239(13)
C42_9 C 0.42761(13) 0.68235(17) 0.20208(14)
C43_9 C 0.29792(14) 0.57239(13) 0.18235(17)
C46_9 C 0.31765(17) 0.92761(13) 0.20208(14)
C47_9 C 0.42761(13) 0.79792(14) 0.18235(17)
H16_9 H 0.3007 0.6983 0.0635
H18_9 H 0.3017 0.8007 0.0635
H19_9 H 0.4365 0.6993 0.1983
H20_9 H 0.3017 0.5635 0.1993
H23_9 H 0.3007 0.9365 0.1983
H24_9 H 0.4365 0.8017 0.1993
C50_9 C 0.32672(14) 0.68561(13) 0.09362(12)
C52_9 C 0.31439(13) 0.82672(14) 0.09362(12)
C53_9 C 0.40638(12) 0.67328(14) 0.18561(13)
C54_9 C 0.31439(13) 0.59362(12) 0.17328(14)
C57_9 C 0.32672(14) 0.90638(12) 0.18561(13)
C58_9 C 0.40638(12) 0.81439(13) 0.17328(14)
C61_9 C 0.35058(14) 0.69145(12) 0.10790(13)
C63_9 C 0.30855(12) 0.85058(14) 0.10790(13)
C64_9 C 0.30855(12) 0.60790(13) 0.14942(14)
C66_9 C 0.39210(13) 0.80855(12) 0.14942(14)
C67_9 C 0.39210(13) 0.64942(14) 0.19145(12)
C69_9 C 0.35058(14) 0.89210(13) 0.19145(12)
C72_9 C 0.36636(15) 0.71318(13) 0.09898(14)
C74_9 C 0.28682(13) 0.86636(15) 0.09898(14)
C75_9 C 0.28682(13) 0.59898(14) 0.13364(15)
C77_9 C 0.40102(14) 0.78682(13) 0.13364(15)
C78_9 C 0.40102(14) 0.63364(15) 0.21318(13)
C80_9 C 0.36636(15) 0.90102(14) 0.21318(13)
H27_9 H 0.3832 0.7171 0.1080
H29_9 H 0.2829 0.8832 0.1080
H30_9 H 0.2829 0.6080 0.1168
H32_9 H 0.3920 0.7829 0.1168
H33_9 H 0.3920 0.6168 0.2171
H35_9 H 0.3832 0.8920 0.2171
C83_9 C 0.35840(15) 0.72907(14) 0.07760(13)
C85_9 C 0.27093(14) 0.85840(15) 0.07760(13)
C86_9 C 0.27093(14) 0.57760(13) 0.14160(15)
C88_9 C 0.42240(13) 0.77093(14) 0.14160(15)
C89_9 C 0.42240(13) 0.64160(15) 0.22907(14)
C91_9 C 0.35840(15) 0.92240(13) 0.22907(14)
H38_9 H 0.3699 0.7437 0.0717
H40_9 H 0.2563 0.8699 0.0717
H41_9 H 0.2563 0.5717 0.1301
H43_9 H 0.4283 0.7563 0.1301
H44_9 H 0.4283 0.6301 0.2437
H46_9 H 0.3699 0.9283 0.2437
C94_9 C 0.31274(14) 0.65991(15) 0.10427(15)
C96_9 C 0.34009(15) 0.81274(14) 0.10427(15)
C97_9 C 0.39573(15) 0.68726(14) 0.15991(15)
C99_9 C 0.31274(14) 0.89573(15) 0.15991(15)
C100_9 C 0.34009(15) 0.60427(15) 0.18726(14)
C102_9 C 0.39573(15) 0.84009(15) 0.18726(14)
C105_9 C 0.33170(14) 0.65199(12) 0.12784(13)
C107_9 C 0.34801(12) 0.83170(14) 0.12784(13)
C108_9 C 0.37216(13) 0.66830(14) 0.15199(12)
C110_9 C 0.33170(14) 0.87216(13) 0.15199(12)
C111_9 C 0.34801(12) 0.62784(13) 0.16830(14)
C113_9 C 0.37216(13) 0.84801(12) 0.16830(14)
C116_9 C 0.35358(13) 0.67075(13) 0.13024(13)
C118_9 C 0.32925(13) 0.85358(13) 0.13024(13)
C119_9 C 0.32925(13) 0.63024(13) 0.14642(13)
C121_9 C 0.36976(13) 0.82925(13) 0.14642(13)
C122_9 C 0.36976(13) 0.64642(13) 0.17075(13)
C124_9 C 0.35358(13) 0.86976(13) 0.17075(13)
C127_9 C 0.3136(2) 0.63856(18) 0.08031(17)
C129_9 C 0.36144(18) 0.8136(2) 0.08031(17)
C130_9 C 0.41969(17) 0.6864(2) 0.13856(18)
C132_9 C 0.3136(2) 0.91969(17) 0.13856(18)
C133_9 C 0.36144(18) 0.58031(17) 0.1864(2)
C135_9 C 0.41969(17) 0.86144(18) 0.1864(2)
H49_9 H 0.3026 0.6458 0.0648
H51_9 H 0.3542 0.8026 0.0648
H52_9 H 0.4352 0.6974 0.1458
H54_9 H 0.3026 0.9352 0.1458
H55_9 H 0.3542 0.5648 0.1974
H57_9 H 0.4352 0.8542 0.1974
H60_9 H 0.3047 0.6214 0.0866
H62_9 H 0.3786 0.8047 0.0866
H63_9 H 0.4134 0.6953 0.1214
H65_9 H 0.3047 0.9134 0.1214
H66_9 H 0.3786 0.5866 0.1953
H68_9 H 0.4134 0.8786 0.1953
C138_9 C 0.3427(2) 0.6315(2) 0.0697(2)
C140_9 C 0.3685(2) 0.8427(2) 0.0697(2)
C141_9 C 0.4303(2) 0.6573(2) 0.1315(2)
C143_9 C 0.3427(2) 0.9303(2) 0.1315(2)
C144_9 C 0.3685(2) 0.5697(2) 0.1573(2)
C146_9 C 0.4303(2) 0.8685(2) 0.1573(2)
H71_9 H 0.3545 0.6265 0.0852
H73_9 H 0.3735 0.8545 0.0852
H74_9 H 0.4148 0.6455 0.1265
H76_9 H 0.3545 0.9148 0.1265
H77_9 H 0.3735 0.5852 0.1455
H79_9 H 0.4148 0.8735 0.1455
H82_9 H 0.3416 0.6161 0.0568
H84_9 H 0.3839 0.8416 0.0568
H85_9 H 0.4432 0.6584 0.1161
H87_9 H 0.3416 0.9432 0.1161
H88_9 H 0.3839 0.5568 0.1584
H90_9 H 0.4432 0.8839 0.1584
H93_9 H 0.3504 0.6476 0.0603
H95_9 H 0.3524 0.8504 0.0603
H96_9 H 0.4397 0.6496 0.1476
H98_9 H 0.3504 0.9397 0.1476
H99_9 H 0.3524 0.5603 0.1496
H101_9 H 0.4397 0.8524 0.1496
C149_9 C 0.28376(17) 0.66663(18) 0.11421(19)
C151_9 C 0.33337(18) 0.78376(17) 0.11421(19)
C152_9 C 0.38579(19) 0.71624(17) 0.16663(18)
C154_9 C 0.28376(17) 0.88579(19) 0.16663(18)
C155_9 C 0.33337(18) 0.61421(19) 0.21624(17)
C157_9 C 0.38579(19) 0.83337(18) 0.21624(17)
H104_9 H 0.2730 0.6738 0.0985
H106_9 H 0.3262 0.7730 0.0985
H107_9 H 0.4015 0.7270 0.1738
H109_9 H 0.2730 0.9015 0.1738
H110_9 H 0.3262 0.5985 0.2270
H112_9 H 0.4015 0.8262 0.2270
H115_9 H 0.2749 0.6494 0.1204
H117_9 H 0.3506 0.7749 0.1204
H118_9 H 0.3796 0.7251 0.1494
H120_9 H 0.2749 0.8796 0.1494
H121_9 H 0.3506 0.6204 0.2251
H123_9 H 0.3796 0.8506 0.2251
C160_9 C 0.28268(19) 0.6878(3) 0.1378(2)
C162_9 C 0.3122(3) 0.78268(19) 0.1378(2)
C163_9 C 0.3622(2) 0.71732(19) 0.1878(3)
C165_9 C 0.28268(19) 0.8622(2) 0.1878(3)
C166_9 C 0.3122(3) 0.6378(2) 0.21732(19)
C168_9 C 0.3622(2) 0.8122(3) 0.21732(19)
H126_9 H 0.2947 0.7033 0.1334
H128_9 H 0.2967 0.7947 0.1334
H129_9 H 0.3666 0.7053 0.2033
H131_9 H 0.2947 0.8666 0.2033
H132_9 H 0.2967 0.6334 0.2053
H134_9 H 0.3666 0.7967 0.2053
H137_9 H 0.2638 0.6943 0.1401
H139_9 H 0.3057 0.7638 0.1401
H140_9 H 0.3599 0.7362 0.1943
H142_9 H 0.2638 0.8599 0.1943
H143_9 H 0.3057 0.6401 0.2362
H145_9 H 0.3599 0.8057 0.2362
H148_9 H 0.2889 0.6791 0.1549
H150_9 H 0.3209 0.7889 0.1549
H151_9 H 0.3451 0.7111 0.1791
H153_9 H 0.2889 0.8451 0.1791
H154_9 H 0.3209 0.6549 0.2111
H156_9 H 0.3451 0.8209 0.2111
O2_12 O 0.23885(12) 0.69920(15) 0.96901(11)
O3_12 O 0.26278(13) 0.66180(14) 0.96523(11)
O4_21 O 0.2500 0.7500 1.0000
C1_12 C 0.24258(17) 0.67549(18) 0.95780(13)
C2_12 C 0.22425(13) 0.66641(17) 0.93584(13)
C3_12 C 0.20208(14) 0.68235(17) 0.92761(13)
H1_12 H 0.1983 0.6993 0.9365
C4_12 C 0.18561(13) 0.67328(14) 0.90638(12)
C5_12 C 0.19145(12) 0.64942(14) 0.89210(13)
C6_12 C 0.21318(13) 0.63364(15) 0.90102(14)
H2_12 H 0.2171 0.6168 0.8920
C7_12 C 0.22907(14) 0.64160(15) 0.92240(13)
H3_12 H 0.2437 0.6301 0.9283
C8_12 C 0.15991(15) 0.68726(14) 0.89573(15)
C9_12 C 0.15199(12) 0.66830(14) 0.87216(13)
C10_12 C 0.17075(13) 0.64642(13) 0.86976(13)
C11_12 C 0.13856(18) 0.6864(2) 0.91969(17)
H4_12 H 0.1458 0.6974 0.9352
H5_12 H 0.1214 0.6953 0.9134
C12_12 C 0.1315(2) 0.6573(2) 0.9303(2)
H6_12 H 0.1265 0.6455 0.9148
H7_12 H 0.1161 0.6584 0.9432
H8_12 H 0.1476 0.6496 0.9397
C13_12 C 0.16663(18) 0.71624(17) 0.88579(19)
H9_12 H 0.1738 0.7270 0.9015
H10_12 H 0.1494 0.7251 0.8796
C14_12 C 0.1878(3) 0.71732(19) 0.8622(2)
H11_12 H 0.2033 0.7053 0.8666
H12_12 H 0.1943 0.7362 0.8599
H13_12 H 0.1791 0.7111 0.8451
O5_12 O 0.30080(15) 0.73885(12) 0.96901(11)
O9_12 O 0.19920(15) 0.53099(11) 0.76115(12)
O22_12 O 0.16180(14) 0.53477(11) 0.73722(13)
O27_12 O 0.33820(14) 0.76278(13) 0.96523(11)
C15_12 C 0.04220(13) 0.74258(17) 0.82451(18)
C16_12 C 0.17549(18) 0.54220(13) 0.75742(17)
C26_12 C 0.06416(13) 0.72425(13) 0.83359(17)
C27_12 C 0.16641(17) 0.56416(13) 0.77575(13)
C37_12 C 0.07239(13) 0.70208(14) 0.81765(17)
C38_12 C 0.18235(17) 0.57239(13) 0.79792(14)
H14_12 H 0.0635 0.6983 0.8007
H15_12 H 0.1993 0.5635 0.8017
C48_12 C 0.09362(12) 0.68561(13) 0.82672(14)
C49_12 C 0.17328(14) 0.59362(12) 0.81439(13)
C59_12 C 0.10790(13) 0.69145(12) 0.85058(14)
C60_12 C 0.14942(14) 0.60790(13) 0.80855(12)
C70_12 C 0.09898(14) 0.71318(13) 0.86636(15)
C71_12 C 0.13364(15) 0.59898(14) 0.78682(13)
H25_12 H 0.1080 0.7171 0.8832
H26_12 H 0.1168 0.6080 0.7829
C81_12 C 0.07760(13) 0.72907(14) 0.85840(15)
C82_12 C 0.14160(15) 0.57760(13) 0.77093(14)
H36_12 H 0.0717 0.7437 0.8699
H37_12 H 0.1301 0.5717 0.7563
C92_12 C 0.18726(14) 0.60427(15) 0.84009(15)
C93_12 C 0.10427(15) 0.65991(15) 0.81274(14)
C103_12 C 0.16830(14) 0.62784(13) 0.84801(12)
C104_12 C 0.12784(13) 0.65199(12) 0.83170(14)
C114_12 C 0.13024(13) 0.67075(13) 0.85358(13)
C115_12 C 0.14642(13) 0.63024(13) 0.82925(13)
C125_12 C 0.1864(2) 0.58031(17) 0.86144(18)
C126_12 C 0.08031(17) 0.63856(18) 0.8136(2)
H47_12 H 0.1974 0.5648 0.8542
H48_12 H 0.0648 0.6458 0.8026
H58_12 H 0.1953 0.5866 0.8786
H59_12 H 0.0866 0.6214 0.8047
C136_12 C 0.1573(2) 0.5697(2) 0.8685(2)
C137_12 C 0.0697(2) 0.6315(2) 0.8427(2)
H69_12 H 0.1455 0.5852 0.8735
H70_12 H 0.0852 0.6265 0.8545
H80_12 H 0.1584 0.5568 0.8839
H81_12 H 0.0568 0.6161 0.8416
H91_12 H 0.1496 0.5603 0.8524
H92_12 H 0.0603 0.6476 0.8504
C147_12 C 0.21624(17) 0.61421(19) 0.83337(18)
C148_12 C 0.11421(19) 0.66663(18) 0.78376(17)
H102_12 H 0.2270 0.5985 0.8262
H103_12 H 0.0985 0.6738 0.7730
H113_12 H 0.2251 0.6204 0.8506
H114_12 H 0.1204 0.6494 0.7749
C158_12 C 0.21732(19) 0.6378(2) 0.8122(3)
C159_12 C 0.1378(2) 0.6878(3) 0.78268(19)
H124_12 H 0.2053 0.6334 0.7967
H125_12 H 0.1334 0.7033 0.7947
H135_12 H 0.2362 0.6401 0.8057
H136_12 H 0.1401 0.6943 0.7638
H146_12 H 0.2111 0.6549 0.8209
H147_12 H 0.1549 0.6791 0.7889
O2_13 O 0.46901(11) 0.69920(15) 0.76115(12)
O3_13 O 0.46523(11) 0.66180(14) 0.73722(13)
O4_22 O 0.5000 0.7500 0.7500
C1_13 C 0.45780(13) 0.67549(18) 0.75742(17)
C2_13 C 0.43584(13) 0.66641(17) 0.77575(13)
C3_13 C 0.42761(13) 0.68235(17) 0.79792(14)
H1_13 H 0.4365 0.6993 0.8017
C4_13 C 0.40638(12) 0.67328(14) 0.81439(13)
C5_13 C 0.39210(13) 0.64942(14) 0.80855(12)
C6_13 C 0.40102(14) 0.63364(15) 0.78682(13)
H2_13 H 0.3920 0.6168 0.7829
C7_13 C 0.42240(13) 0.64160(15) 0.77093(14)
H3_13 H 0.4283 0.6301 0.7563
C8_13 C 0.39573(15) 0.68726(14) 0.84009(15)
C9_13 C 0.37216(13) 0.66830(14) 0.84801(12)
C10_13 C 0.36976(13) 0.64642(13) 0.82925(13)
C11_13 C 0.41969(17) 0.6864(2) 0.86144(18)
H4_13 H 0.4352 0.6974 0.8542
H5_13 H 0.4134 0.6953 0.8786
C12_13 C 0.4303(2) 0.6573(2) 0.8685(2)
H6_13 H 0.4148 0.6455 0.8735
H7_13 H 0.4432 0.6584 0.8839
H8_13 H 0.4397 0.6496 0.8524
C13_13 C 0.38579(19) 0.71624(17) 0.83337(18)
H9_13 H 0.4015 0.7270 0.8262
H10_13 H 0.3796 0.7251 0.8506
C14_13 C 0.3622(2) 0.71732(19) 0.8122(3)
H11_13 H 0.3666 0.7053 0.7967
H12_13 H 0.3599 0.7362 0.8057
H13_13 H 0.3451 0.7111 0.8209
Cd8_8 Cd 0.30092(4) 0.5000 0.77582(3)
O5_13 O 0.46901(11) 0.73885(12) 0.69920(15)
O7_10 O 0.53099(11) 0.73885(12) 0.69920(15)
O9_13 O 0.26115(12) 0.53099(11) 0.80080(15)
O13_9 O 0.46901(11) 0.80080(15) 0.73885(12)
O14_10 O 0.73885(12) 0.69920(15) 0.53099(11)
O15_7 O 0.69920(15) 0.53099(11) 0.73885(12)
O22_13 O 0.23722(13) 0.53477(11) 0.83820(14)
O24_9 O 0.46523(11) 0.83820(14) 0.76278(13)
O27_13 O 0.46523(11) 0.76278(13) 0.66180(14)
O28_10 O 0.53477(11) 0.76278(13) 0.66180(14)
O29_10 O 0.76278(13) 0.66180(14) 0.53477(11)
O30_7 O 0.66180(14) 0.53477(11) 0.76278(13)
C15_13 C 0.32451(18) 0.74258(17) 0.95780(13)
C16_13 C 0.25742(17) 0.54220(13) 0.82451(18)
C17_10 C 0.54220(13) 0.74258(17) 0.67549(18)
C20_10 C 0.74258(17) 0.67549(18) 0.54220(13)
C21_10 C 0.67549(18) 0.54220(13) 0.74258(17)
C26_13 C 0.33359(17) 0.72425(13) 0.93584(13)
C27_13 C 0.27575(13) 0.56416(13) 0.83359(17)
C28_10 C 0.56416(13) 0.72425(13) 0.66641(17)
C31_10 C 0.72425(13) 0.66641(17) 0.56416(13)
C32_10 C 0.66641(17) 0.56416(13) 0.72425(13)
C37_13 C 0.31765(17) 0.70208(14) 0.92761(13)
C38_13 C 0.29792(14) 0.57239(13) 0.81765(17)
C39_10 C 0.57239(13) 0.70208(14) 0.68235(17)
C42_10 C 0.70208(14) 0.68235(17) 0.57239(13)
C43_10 C 0.68235(17) 0.57239(13) 0.70208(14)
H14_13 H 0.3007 0.6983 0.9365
H15_13 H 0.3017 0.5635 0.8007
H16_10 H 0.5635 0.6983 0.6993
H19_10 H 0.6983 0.6993 0.5635
H20_10 H 0.6993 0.5635 0.6983
C48_13 C 0.32672(14) 0.68561(13) 0.90638(12)
C49_13 C 0.31439(13) 0.59362(12) 0.82672(14)
C50_10 C 0.59362(12) 0.68561(13) 0.67328(14)
C53_10 C 0.68561(13) 0.67328(14) 0.59362(12)
C54_10 C 0.67328(14) 0.59362(12) 0.68561(13)
C59_13 C 0.35058(14) 0.69145(12) 0.89210(13)
C60_13 C 0.30855(12) 0.60790(13) 0.85058(14)
C61_10 C 0.60790(13) 0.69145(12) 0.64942(14)
C64_10 C 0.64942(14) 0.60790(13) 0.69145(12)
C67_10 C 0.69145(12) 0.64942(14) 0.60790(13)
C70_13 C 0.36636(15) 0.71318(13) 0.90102(14)
C71_13 C 0.28682(13) 0.59898(14) 0.86636(15)
C72_10 C 0.59898(14) 0.71318(13) 0.63364(15)
C75_10 C 0.63364(15) 0.59898(14) 0.71318(13)
C78_10 C 0.71318(13) 0.63364(15) 0.59898(14)
H25_13 H 0.3832 0.7171 0.8920
H26_13 H 0.2829 0.6080 0.8832
H27_10 H 0.6080 0.7171 0.6168
H30_10 H 0.6168 0.6080 0.7171
H33_10 H 0.7171 0.6168 0.6080
C81_13 C 0.35840(15) 0.72907(14) 0.92240(13)
C82_13 C 0.27093(14) 0.57760(13) 0.85840(15)
C83_10 C 0.57760(13) 0.72907(14) 0.64160(15)
C86_10 C 0.64160(15) 0.57760(13) 0.72907(14)
C89_10 C 0.72907(14) 0.64160(15) 0.57760(13)
H36_13 H 0.3699 0.7437 0.9283
H37_13 H 0.2563 0.5717 0.8699
H38_10 H 0.5717 0.7437 0.6301
H41_10 H 0.6301 0.5717 0.7437
H44_10 H 0.7437 0.6301 0.5717
C92_13 C 0.34009(15) 0.60427(15) 0.81274(14)
C93_13 C 0.31274(14) 0.65991(15) 0.89573(15)
C94_10 C 0.60427(15) 0.65991(15) 0.68726(14)
C97_10 C 0.65991(15) 0.68726(14) 0.60427(15)
C100_10 C 0.68726(14) 0.60427(15) 0.65991(15)
C103_13 C 0.34801(12) 0.62784(13) 0.83170(14)
C104_13 C 0.33170(14) 0.65199(12) 0.87216(13)
C105_10 C 0.62784(13) 0.65199(12) 0.66830(14)
C108_10 C 0.65199(12) 0.66830(14) 0.62784(13)
C111_10 C 0.66830(14) 0.62784(13) 0.65199(12)
C114_13 C 0.35358(13) 0.67075(13) 0.86976(13)
C115_13 C 0.32925(13) 0.63024(13) 0.85358(13)
C116_10 C 0.63024(13) 0.67075(13) 0.64642(13)
C119_10 C 0.64642(13) 0.63024(13) 0.67075(13)
C122_10 C 0.67075(13) 0.64642(13) 0.63024(13)
C125_13 C 0.36144(18) 0.58031(17) 0.8136(2)
C126_13 C 0.3136(2) 0.63856(18) 0.91969(17)
C127_10 C 0.58031(17) 0.63856(18) 0.6864(2)
C130_10 C 0.63856(18) 0.6864(2) 0.58031(17)
C133_10 C 0.6864(2) 0.58031(17) 0.63856(18)
H47_13 H 0.3542 0.5648 0.8026
H48_13 H 0.3026 0.6458 0.9352
H49_10 H 0.5648 0.6458 0.6974
H52_10 H 0.6458 0.6974 0.5648
H55_10 H 0.6974 0.5648 0.6458
H58_13 H 0.3786 0.5866 0.8047
H59_13 H 0.3047 0.6214 0.9134
H60_10 H 0.5866 0.6214 0.6953
H63_10 H 0.6214 0.6953 0.5866
H66_10 H 0.6953 0.5866 0.6214
C136_13 C 0.3685(2) 0.5697(2) 0.8427(2)
C137_13 C 0.3427(2) 0.6315(2) 0.9303(2)
C138_10 C 0.5697(2) 0.6315(2) 0.6573(2)
C141_10 C 0.6315(2) 0.6573(2) 0.5697(2)
C144_10 C 0.6573(2) 0.5697(2) 0.6315(2)
H69_13 H 0.3735 0.5852 0.8545
H70_13 H 0.3545 0.6265 0.9148
H71_10 H 0.5852 0.6265 0.6455
H74_10 H 0.6265 0.6455 0.5852
H77_10 H 0.6455 0.5852 0.6265
H80_13 H 0.3839 0.5568 0.8416
H81_13 H 0.3416 0.6161 0.9432
H82_10 H 0.5568 0.6161 0.6584
H85_10 H 0.6161 0.6584 0.5568
H88_10 H 0.6584 0.5568 0.6161
H91_13 H 0.3524 0.5603 0.8504
H92_13 H 0.3504 0.6476 0.9397
H93_10 H 0.5603 0.6476 0.6496
H96_10 H 0.6476 0.6496 0.5603
H99_10 H 0.6496 0.5603 0.6476
C147_13 C 0.33337(18) 0.61421(19) 0.78376(17)
C148_13 C 0.28376(17) 0.66663(18) 0.88579(19)
C149_10 C 0.61421(19) 0.66663(18) 0.71624(17)
C152_10 C 0.66663(18) 0.71624(17) 0.61421(19)
C155_10 C 0.71624(17) 0.61421(19) 0.66663(18)
H102_13 H 0.3262 0.5985 0.7730
H103_13 H 0.2730 0.6738 0.9015
H104_10 H 0.5985 0.6738 0.7270
H107_10 H 0.6738 0.7270 0.5985
H110_10 H 0.7270 0.5985 0.6738
H113_13 H 0.3506 0.6204 0.7749
H114_13 H 0.2749 0.6494 0.8796
H115_10 H 0.6204 0.6494 0.7251
H118_10 H 0.6494 0.7251 0.6204
H121_10 H 0.7251 0.6204 0.6494
C158_13 C 0.3122(3) 0.6378(2) 0.78268(19)
C159_13 C 0.28268(19) 0.6878(3) 0.8622(2)
C160_10 C 0.6378(2) 0.6878(3) 0.71732(19)
C163_10 C 0.6878(3) 0.71732(19) 0.6378(2)
C166_10 C 0.71732(19) 0.6378(2) 0.6878(3)
H124_13 H 0.2967 0.6334 0.7947
H125_13 H 0.2947 0.7033 0.8666
H126_10 H 0.6334 0.7033 0.7053
H129_10 H 0.7033 0.7053 0.6334
H132_10 H 0.7053 0.6334 0.7033
H135_13 H 0.3057 0.6401 0.7638
H136_13 H 0.2638 0.6943 0.8599
H137_10 H 0.6401 0.6943 0.7362
H140_10 H 0.6943 0.7362 0.6401
H143_10 H 0.7362 0.6401 0.6943
H146_13 H 0.3209 0.6549 0.7889
H147_13 H 0.2889 0.6791 0.8451
H148_10 H 0.6549 0.6791 0.7111
H151_10 H 0.6791 0.7111 0.6549
H154_10 H 0.7111 0.6549 0.6791
Cd17_12 Cd 0.22418(3) 0.19908(4) 0.0000
Cd17_13 Cd 0.22418(3) 0.19908(4) 1.0000
O18_9 O 0.19920(15) 0.23885(12) 0.96901(11)
O33_9 O 0.16180(14) 0.26278(13) 0.96523(11)
C19_10 C 0.24258(17) 0.04220(13) 0.82451(18)
C24_10 C 0.17549(18) 0.24258(17) 0.95780(13)
C25_10 C 0.04220(13) 0.17549(18) 0.75742(17)
C30_10 C 0.22425(13) 0.06416(13) 0.83359(17)
C35_10 C 0.16641(17) 0.22425(13) 0.93584(13)
C36_10 C 0.06416(13) 0.16641(17) 0.77575(13)
C41_10 C 0.20208(14) 0.07239(13) 0.81765(17)
C46_10 C 0.18235(17) 0.20208(14) 0.92761(13)
C47_10 C 0.07239(13) 0.18235(17) 0.79792(14)
H18_10 H 0.1983 0.0635 0.8007
H23_10 H 0.1993 0.1983 0.9365
H24_10 H 0.0635 0.1993 0.8017
C52_10 C 0.18561(13) 0.09362(12) 0.82672(14)
C57_10 C 0.17328(14) 0.18561(13) 0.90638(12)
C58_10 C 0.09362(12) 0.17328(14) 0.81439(13)
C63_10 C 0.19145(12) 0.10790(13) 0.85058(14)
C66_10 C 0.10790(13) 0.14942(14) 0.80855(12)
C69_10 C 0.14942(14) 0.19145(12) 0.89210(13)
C74_10 C 0.21318(13) 0.09898(14) 0.86636(15)
C77_10 C 0.09898(14) 0.13364(15) 0.78682(13)
C80_10 C 0.13364(15) 0.21318(13) 0.90102(14)
H29_10 H 0.2171 0.1080 0.8832
H32_10 H 0.1080 0.1168 0.7829
H35_10 H 0.1168 0.2171 0.8920
C85_10 C 0.22907(14) 0.07760(13) 0.85840(15)
C88_10 C 0.07760(13) 0.14160(15) 0.77093(14)
C91_10 C 0.14160(15) 0.22907(14) 0.92240(13)
H40_10 H 0.2437 0.0717 0.8699
H43_10 H 0.0717 0.1301 0.7563
H46_10 H 0.1301 0.2437 0.9283
C96_10 C 0.15991(15) 0.10427(15) 0.81274(14)
C99_10 C 0.18726(14) 0.15991(15) 0.89573(15)
C102_10 C 0.10427(15) 0.18726(14) 0.84009(15)
C107_10 C 0.15199(12) 0.12784(13) 0.83170(14)
C110_10 C 0.16830(14) 0.15199(12) 0.87216(13)
C113_10 C 0.12784(13) 0.16830(14) 0.84801(12)
C118_10 C 0.17075(13) 0.13024(13) 0.85358(13)
C121_10 C 0.13024(13) 0.14642(13) 0.82925(13)
C124_10 C 0.14642(13) 0.17075(13) 0.86976(13)
C129_10 C 0.13856(18) 0.08031(17) 0.8136(2)
C132_10 C 0.1864(2) 0.13856(18) 0.91969(17)
C135_10 C 0.08031(17) 0.1864(2) 0.86144(18)
H51_10 H 0.1458 0.0648 0.8026
H54_10 H 0.1974 0.1458 0.9352
H57_10 H 0.0648 0.1974 0.8542
H62_10 H 0.1214 0.0866 0.8047
H65_10 H 0.1953 0.1214 0.9134
H68_10 H 0.0866 0.1953 0.8786
C140_10 C 0.1315(2) 0.0697(2) 0.8427(2)
C143_10 C 0.1573(2) 0.1315(2) 0.9303(2)
C146_10 C 0.0697(2) 0.1573(2) 0.8685(2)
H73_10 H 0.1265 0.0852 0.8545
H76_10 H 0.1455 0.1265 0.9148
H79_10 H 0.0852 0.1455 0.8735
H84_10 H 0.1161 0.0568 0.8416
H87_10 H 0.1584 0.1161 0.9432
H90_10 H 0.0568 0.1584 0.8839
H95_10 H 0.1476 0.0603 0.8504
H98_10 H 0.1496 0.1476 0.9397
H101_10 H 0.0603 0.1496 0.8524
C151_10 C 0.16663(18) 0.11421(19) 0.78376(17)
C154_10 C 0.21624(17) 0.16663(18) 0.88579(19)
C157_10 C 0.11421(19) 0.21624(17) 0.83337(18)
H106_10 H 0.1738 0.0985 0.7730
H109_10 H 0.2270 0.1738 0.9015
H112_10 H 0.0985 0.2270 0.8262
H117_10 H 0.1494 0.1204 0.7749
H120_10 H 0.2251 0.1494 0.8796
H123_10 H 0.1204 0.2251 0.8506
C162_10 C 0.1878(3) 0.1378(2) 0.78268(19)
C165_10 C 0.21732(19) 0.1878(3) 0.8622(2)
C168_10 C 0.1378(2) 0.21732(19) 0.8122(3)
H128_10 H 0.2033 0.1334 0.7947
H131_10 H 0.2053 0.2033 0.8666
H134_10 H 0.1334 0.2053 0.7967
H139_10 H 0.1943 0.1401 0.7638
H142_10 H 0.2362 0.1943 0.8599
H145_10 H 0.1401 0.2362 0.8057
H150_10 H 0.1791 0.1549 0.7889
H153_10 H 0.2111 0.1791 0.8451
H156_10 H 0.1549 0.2111 0.8209
C1_14 C 0.25742(17) 0.95780(13) 0.67549(18)
C2_14 C 0.27575(13) 0.93584(13) 0.66641(17)
C3_14 C 0.29792(14) 0.92761(13) 0.68235(17)
H1_14 H 0.3017 0.9365 0.6993
C4_14 C 0.31439(13) 0.90638(12) 0.67328(14)
C5_14 C 0.30855(12) 0.89210(13) 0.64942(14)
C6_14 C 0.28682(13) 0.90102(14) 0.63364(15)
H2_14 H 0.2829 0.8920 0.6168
C7_14 C 0.27093(14) 0.92240(13) 0.64160(15)
H3_14 H 0.2563 0.9283 0.6301
C8_14 C 0.34009(15) 0.89573(15) 0.68726(14)
C9_14 C 0.34801(12) 0.87216(13) 0.66830(14)
C10_14 C 0.32925(13) 0.86976(13) 0.64642(13)
C11_14 C 0.36144(18) 0.91969(17) 0.6864(2)
H4_14 H 0.3542 0.9352 0.6974
H5_14 H 0.3786 0.9134 0.6953
C12_14 C 0.3685(2) 0.9303(2) 0.6573(2)
H6_14 H 0.3735 0.9148 0.6455
H7_14 H 0.3839 0.9432 0.6584
H8_14 H 0.3524 0.9397 0.6496
C13_14 C 0.33337(18) 0.88579(19) 0.71624(17)
H9_14 H 0.3262 0.9015 0.7270
H10_14 H 0.3506 0.8796 0.7251
C14_14 C 0.3122(3) 0.8622(2) 0.71732(19)
H11_14 H 0.2967 0.8666 0.7053
H12_14 H 0.3057 0.8599 0.7362
H13_14 H 0.3209 0.8451 0.7111
Cd7_12 Cd 0.30092(4) 0.72418(3) 0.5000
O9_14 O 0.30080(15) 0.76115(12) 0.53099(11)
O22_14 O 0.33820(14) 0.73722(13) 0.53477(11)
C15_14 C 0.45780(13) 0.82451(18) 0.74258(17)
C16_14 C 0.32451(18) 0.75742(17) 0.54220(13)
C26_14 C 0.43584(13) 0.83359(17) 0.72425(13)
C27_14 C 0.33359(17) 0.77575(13) 0.56416(13)
C37_14 C 0.42761(13) 0.81765(17) 0.70208(14)
C38_14 C 0.31765(17) 0.79792(14) 0.57239(13)
H14_14 H 0.4365 0.8007 0.6983
H15_14 H 0.3007 0.8017 0.5635
C48_14 C 0.40638(12) 0.82672(14) 0.68561(13)
C49_14 C 0.32672(14) 0.81439(13) 0.59362(12)
C59_14 C 0.39210(13) 0.85058(14) 0.69145(12)
C60_14 C 0.35058(14) 0.80855(12) 0.60790(13)
C70_14 C 0.40102(14) 0.86636(15) 0.71318(13)
C71_14 C 0.36636(15) 0.78682(13) 0.59898(14)
H25_14 H 0.3920 0.8832 0.7171
H26_14 H 0.3832 0.7829 0.6080
C81_14 C 0.42240(13) 0.85840(15) 0.72907(14)
C82_14 C 0.35840(15) 0.77093(14) 0.57760(13)
H36_14 H 0.4283 0.8699 0.7437
H37_14 H 0.3699 0.7563 0.5717
C92_14 C 0.31274(14) 0.84009(15) 0.60427(15)
C93_14 C 0.39573(15) 0.81274(14) 0.65991(15)
C103_14 C 0.33170(14) 0.84801(12) 0.62784(13)
C104_14 C 0.37216(13) 0.83170(14) 0.65199(12)
C114_14 C 0.36976(13) 0.85358(13) 0.67075(13)
C115_14 C 0.35358(13) 0.82925(13) 0.63024(13)
C125_14 C 0.3136(2) 0.86144(18) 0.58031(17)
C126_14 C 0.41969(17) 0.8136(2) 0.63856(18)
H47_14 H 0.3026 0.8542 0.5648
H48_14 H 0.4352 0.8026 0.6458
H58_14 H 0.3047 0.8786 0.5866
H59_14 H 0.4134 0.8047 0.6214
C136_14 C 0.3427(2) 0.8685(2) 0.5697(2)
C137_14 C 0.4303(2) 0.8427(2) 0.6315(2)
H69_14 H 0.3545 0.8735 0.5852
H70_14 H 0.4148 0.8545 0.6265
H80_14 H 0.3416 0.8839 0.5568
H81_14 H 0.4432 0.8416 0.6161
H91_14 H 0.3504 0.8524 0.5603
H92_14 H 0.4397 0.8504 0.6476
C147_14 C 0.28376(17) 0.83337(18) 0.61421(19)
C148_14 C 0.38579(19) 0.78376(17) 0.66663(18)
H102_14 H 0.2730 0.8262 0.5985
H103_14 H 0.4015 0.7730 0.6738
H113_14 H 0.2749 0.8506 0.6204
H114_14 H 0.3796 0.7749 0.6494
C158_14 C 0.28268(19) 0.8122(3) 0.6378(2)
C159_14 C 0.3622(2) 0.78268(19) 0.6878(3)
H124_14 H 0.2947 0.7967 0.6334
H125_14 H 0.3666 0.7947 0.7033
H135_14 H 0.2638 0.8057 0.6401
H136_14 H 0.3599 0.7638 0.6943
H146_14 H 0.2889 0.8209 0.6549
H147_14 H 0.3451 0.7889 0.6791
O2_14 O 0.69920(15) 0.46901(11) 0.73885(12)
O3_14 O 0.66180(14) 0.46523(11) 0.76278(13)
O4_23 O 0.7500 0.5000 0.7500
C1_15 C 0.67549(18) 0.45780(13) 0.74258(17)
C2_15 C 0.66641(17) 0.43584(13) 0.72425(13)
C3_15 C 0.68235(17) 0.42761(13) 0.70208(14)
H1_15 H 0.6993 0.4365 0.6983
C4_15 C 0.67328(14) 0.40638(12) 0.68561(13)
C5_15 C 0.64942(14) 0.39210(13) 0.69145(12)
C6_15 C 0.63364(15) 0.40102(14) 0.71318(13)
H2_15 H 0.6168 0.3920 0.7171
C7_15 C 0.64160(15) 0.42240(13) 0.72907(14)
H3_15 H 0.6301 0.4283 0.7437
C8_15 C 0.68726(14) 0.39573(15) 0.65991(15)
C9_15 C 0.66830(14) 0.37216(13) 0.65199(12)
C10_15 C 0.64642(13) 0.36976(13) 0.67075(13)
C11_15 C 0.6864(2) 0.41969(17) 0.63856(18)
H4_15 H 0.6974 0.4352 0.6458
H5_15 H 0.6953 0.4134 0.6214
C12_15 C 0.6573(2) 0.4303(2) 0.6315(2)
H6_15 H 0.6455 0.4148 0.6265
H7_15 H 0.6584 0.4432 0.6161
H8_15 H 0.6496 0.4397 0.6476
C13_15 C 0.71624(17) 0.38579(19) 0.66663(18)
H9_15 H 0.7270 0.4015 0.6738
H10_15 H 0.7251 0.3796 0.6494
C14_15 C 0.71732(19) 0.3622(2) 0.6878(3)
H11_15 H 0.7053 0.3666 0.7033
H12_15 H 0.7362 0.3599 0.6943
H13_15 H 0.7111 0.3451 0.6791
Cd5_6 Cd 0.77582(3) 0.30092(4) 0.5000
Cd8_9 Cd 0.5000 0.30092(4) 0.72418(3)
O5_14 O 0.73885(12) 0.46901(11) 0.80080(15)
O8_5 O 0.73885(12) 0.30080(15) 0.53099(11)
O9_15 O 0.53099(11) 0.26115(12) 0.69920(15)
O10_5 O 0.76115(12) 0.46901(11) 0.69920(15)
O16_5 O 0.80080(15) 0.26115(12) 0.53099(11)
O21_5 O 0.76278(13) 0.33820(14) 0.53477(11)
O22_15 O 0.53477(11) 0.23722(13) 0.66180(14)
O25_5 O 0.73722(13) 0.46523(11) 0.66180(14)
O27_14 O 0.76278(13) 0.46523(11) 0.83820(14)
O31_5 O 0.83820(14) 0.23722(13) 0.53477(11)
C15_15 C 0.74258(17) 0.32451(18) 0.54220(13)
C16_15 C 0.54220(13) 0.25742(17) 0.67549(18)
C18_5 C 0.75742(17) 0.45780(13) 0.67549(18)
C22_5 C 0.82451(18) 0.25742(17) 0.54220(13)
C23_5 C 0.95780(13) 0.32451(18) 0.74258(17)
C26_15 C 0.72425(13) 0.33359(17) 0.56416(13)
C27_15 C 0.56416(13) 0.27575(13) 0.66641(17)
C29_5 C 0.77575(13) 0.43584(13) 0.66641(17)
C33_5 C 0.83359(17) 0.27575(13) 0.56416(13)
C34_5 C 0.93584(13) 0.33359(17) 0.72425(13)
C37_15 C 0.70208(14) 0.31765(17) 0.57239(13)
C38_15 C 0.57239(13) 0.29792(14) 0.68235(17)
C40_5 C 0.79792(14) 0.42761(13) 0.68235(17)
C44_5 C 0.81765(17) 0.29792(14) 0.57239(13)
C45_5 C 0.92761(13) 0.31765(17) 0.70208(14)
H14_15 H 0.6983 0.3007 0.5635
H15_15 H 0.5635 0.3017 0.6993
H17_5 H 0.8017 0.4365 0.6993
H21_5 H 0.8007 0.3017 0.5635
H22_5 H 0.9365 0.3007 0.6983
C48_15 C 0.68561(13) 0.32672(14) 0.59362(12)
C49_15 C 0.59362(12) 0.31439(13) 0.67328(14)
C51_5 C 0.81439(13) 0.40638(12) 0.67328(14)
C55_5 C 0.82672(14) 0.31439(13) 0.59362(12)
C56_5 C 0.90638(12) 0.32672(14) 0.68561(13)
C59_15 C 0.69145(12) 0.35058(14) 0.60790(13)
C60_15 C 0.60790(13) 0.30855(12) 0.64942(14)
C62_5 C 0.80855(12) 0.39210(13) 0.64942(14)
C65_5 C 0.89210(13) 0.35058(14) 0.69145(12)
C68_5 C 0.85058(14) 0.30855(12) 0.60790(13)
C70_15 C 0.71318(13) 0.36636(15) 0.59898(14)
C71_15 C 0.59898(14) 0.28682(13) 0.63364(15)
C73_5 C 0.78682(13) 0.40102(14) 0.63364(15)
C76_5 C 0.90102(14) 0.36636(15) 0.71318(13)
C79_5 C 0.86636(15) 0.28682(13) 0.59898(14)
H25_15 H 0.7171 0.3832 0.6080
H26_15 H 0.6080 0.2829 0.6168
H28_5 H 0.7829 0.3920 0.6168
H31_5 H 0.8920 0.3832 0.7171
H34_5 H 0.8832 0.2829 0.6080
C81_15 C 0.72907(14) 0.35840(15) 0.57760(13)
C82_15 C 0.57760(13) 0.27093(14) 0.64160(15)
C84_5 C 0.77093(14) 0.42240(13) 0.64160(15)
C87_5 C 0.92240(13) 0.35840(15) 0.72907(14)
C90_5 C 0.85840(15) 0.27093(14) 0.57760(13)
H36_15 H 0.7437 0.3699 0.5717
H37_15 H 0.5717 0.2563 0.6301
H39_5 H 0.7563 0.4283 0.6301
H42_5 H 0.9283 0.3699 0.7437
H45_5 H 0.8699 0.2563 0.5717
C92_15 C 0.60427(15) 0.34009(15) 0.68726(14)
C93_15 C 0.65991(15) 0.31274(14) 0.60427(15)
C95_5 C 0.84009(15) 0.39573(15) 0.68726(14)
C98_5 C 0.81274(14) 0.34009(15) 0.60427(15)
C101_5 C 0.89573(15) 0.31274(14) 0.65991(15)
C103_15 C 0.62784(13) 0.34801(12) 0.66830(14)
C104_15 C 0.65199(12) 0.33170(14) 0.62784(13)
C106_5 C 0.84801(12) 0.37216(13) 0.66830(14)
C109_5 C 0.83170(14) 0.34801(12) 0.62784(13)
C112_5 C 0.87216(13) 0.33170(14) 0.65199(12)
C114_15 C 0.67075(13) 0.35358(13) 0.63024(13)
C115_15 C 0.63024(13) 0.32925(13) 0.64642(13)
C117_5 C 0.82925(13) 0.36976(13) 0.64642(13)
C120_5 C 0.86976(13) 0.35358(13) 0.67075(13)
C123_5 C 0.85358(13) 0.32925(13) 0.63024(13)
C125_15 C 0.58031(17) 0.36144(18) 0.6864(2)
C126_15 C 0.63856(18) 0.3136(2) 0.58031(17)
C128_5 C 0.86144(18) 0.41969(17) 0.6864(2)
C131_5 C 0.8136(2) 0.36144(18) 0.58031(17)
C134_5 C 0.91969(17) 0.3136(2) 0.63856(18)
H47_15 H 0.5648 0.3542 0.6974
H48_15 H 0.6458 0.3026 0.5648
H50_5 H 0.8542 0.4352 0.6974
H53_5 H 0.8026 0.3542 0.5648
H56_5 H 0.9352 0.3026 0.6458
H58_15 H 0.5866 0.3786 0.6953
H59_15 H 0.6214 0.3047 0.5866
H61_5 H 0.8786 0.4134 0.6953
H64_5 H 0.8047 0.3786 0.5866
H67_5 H 0.9134 0.3047 0.6214
C136_15 C 0.5697(2) 0.3685(2) 0.6573(2)
C137_15 C 0.6315(2) 0.3427(2) 0.5697(2)
C139_5 C 0.8685(2) 0.4303(2) 0.6573(2)
C142_5 C 0.8427(2) 0.3685(2) 0.5697(2)
C145_5 C 0.9303(2) 0.3427(2) 0.6315(2)
H69_15 H 0.5852 0.3735 0.6455
H70_15 H 0.6265 0.3545 0.5852
H72_5 H 0.8735 0.4148 0.6455
H75_5 H 0.8545 0.3735 0.5852
H78_5 H 0.9148 0.3545 0.6265
H80_15 H 0.5568 0.3839 0.6584
H81_15 H 0.6161 0.3416 0.5568
H83_5 H 0.8839 0.4432 0.6584
H86_5 H 0.8416 0.3839 0.5568
H89_5 H 0.9432 0.3416 0.6161
H91_15 H 0.5603 0.3524 0.6496
H92_15 H 0.6476 0.3504 0.5603
H94_5 H 0.8524 0.4397 0.6496
H97_5 H 0.8504 0.3524 0.5603
H100_5 H 0.9397 0.3504 0.6476
C147_15 C 0.61421(19) 0.33337(18) 0.71624(17)
C148_15 C 0.66663(18) 0.28376(17) 0.61421(19)
C150_5 C 0.83337(18) 0.38579(19) 0.71624(17)
C153_5 C 0.78376(17) 0.33337(18) 0.61421(19)
C156_5 C 0.88579(19) 0.28376(17) 0.66663(18)
H102_15 H 0.5985 0.3262 0.7270
H103_15 H 0.6738 0.2730 0.5985
H105_5 H 0.8262 0.4015 0.7270
H108_5 H 0.7730 0.3262 0.5985
H111_5 H 0.9015 0.2730 0.6738
H113_15 H 0.6204 0.3506 0.7251
H114_15 H 0.6494 0.2749 0.6204
H116_5 H 0.8506 0.3796 0.7251
H119_5 H 0.7749 0.3506 0.6204
H122_5 H 0.8796 0.2749 0.6494
C158_15 C 0.6378(2) 0.3122(3) 0.71732(19)
C159_15 C 0.6878(3) 0.28268(19) 0.6378(2)
C161_5 C 0.8122(3) 0.3622(2) 0.71732(19)
C164_5 C 0.78268(19) 0.3122(3) 0.6378(2)
C167_5 C 0.8622(2) 0.28268(19) 0.6878(3)
H124_15 H 0.6334 0.2967 0.7053
H125_15 H 0.7033 0.2947 0.6334
H127_5 H 0.7967 0.3666 0.7053
H130_5 H 0.7947 0.2967 0.6334
H133_5 H 0.8666 0.2947 0.7033
H135_15 H 0.6401 0.3057 0.7362
H136_15 H 0.6943 0.2638 0.6401
H138_5 H 0.8057 0.3599 0.7362
H141_5 H 0.7638 0.3057 0.6401
H144_5 H 0.8599 0.2638 0.6943
H146_15 H 0.6549 0.3209 0.7111
H147_15 H 0.6791 0.2889 0.6549
H149_5 H 0.8209 0.3451 0.7111
H152_5 H 0.7889 0.3209 0.6549
H155_5 H 0.8451 0.2889 0.6791
Cd16_8 Cd -0.0000 0.22418(3) 0.19908(4)
O2_15 O 0.69920(15) 0.53099(11) 0.26115(12)
O3_15 O 0.66180(14) 0.53477(11) 0.23722(13)
O4_24 O 0.7500 0.5000 0.2500
C1_16 C 0.67549(18) 0.54220(13) 0.25742(17)
C2_16 C 0.66641(17) 0.56416(13) 0.27575(13)
C3_16 C 0.68235(17) 0.57239(13) 0.29792(14)
H1_16 H 0.6993 0.5635 0.3017
C4_16 C 0.67328(14) 0.59362(12) 0.31439(13)
C5_16 C 0.64942(14) 0.60790(13) 0.30855(12)
C6_16 C 0.63364(15) 0.59898(14) 0.28682(13)
H2_16 H 0.6168 0.6080 0.2829
C7_16 C 0.64160(15) 0.57760(13) 0.27093(14)
H3_16 H 0.6301 0.5717 0.2563
C8_16 C 0.68726(14) 0.60427(15) 0.34009(15)
C9_16 C 0.66830(14) 0.62784(13) 0.34801(12)
C10_16 C 0.64642(13) 0.63024(13) 0.32925(13)
C11_16 C 0.6864(2) 0.58031(17) 0.36144(18)
H4_16 H 0.6974 0.5648 0.3542
H5_16 H 0.6953 0.5866 0.3786
C12_16 C 0.6573(2) 0.5697(2) 0.3685(2)
H6_16 H 0.6455 0.5852 0.3735
H7_16 H 0.6584 0.5568 0.3839
H8_16 H 0.6496 0.5603 0.3524
C13_16 C 0.71624(17) 0.61421(19) 0.33337(18)
H9_16 H 0.7270 0.5985 0.3262
H10_16 H 0.7251 0.6204 0.3506
C14_16 C 0.71732(19) 0.6378(2) 0.3122(3)
H11_16 H 0.7053 0.6334 0.2967
H12_16 H 0.7362 0.6401 0.3057
H13_16 H 0.7111 0.6549 0.3209
Cd2_6 Cd 0.72418(3) 0.5000 0.30092(4)
Cd7_13 Cd 0.5000 0.77582(3) 0.30092(4)
Cd16_9 Cd 1.0000 0.22418(3) 0.19908(4)
O5_15 O 0.73885(12) 0.53099(11) 0.19920(15)
O6_8 O 0.69920(15) 0.46901(11) 0.26115(12)
O8_6 O 0.73885(12) 0.69920(15) 0.46901(11)
O9_16 O 0.53099(11) 0.73885(12) 0.30080(15)
O10_6 O 0.76115(12) 0.53099(11) 0.30080(15)
O11_10 O 0.80080(15) 0.46901(11) 0.23885(12)
O12_13 O 0.76115(12) 0.46901(11) 0.30080(15)
O16_6 O 0.80080(15) 0.73885(12) 0.46901(11)
O18_10 O 0.96901(11) 0.26115(12) 0.19920(15)
O20_8 O 0.66180(14) 0.46523(11) 0.23722(13)
O21_6 O 0.76278(13) 0.66180(14) 0.46523(11)
O22_16 O 0.53477(11) 0.76278(13) 0.33820(14)
O23_10 O 0.83820(14) 0.46523(11) 0.26278(13)
O25_6 O 0.73722(13) 0.53477(11) 0.33820(14)
O26_13 O 0.73722(13) 0.46523(11) 0.33820(14)
O27_15 O 0.76278(13) 0.53477(11) 0.16180(14)
O31_6 O 0.83820(14) 0.76278(13) 0.46523(11)
O33_10 O 0.96523(11) 0.23722(13) 0.16180(14)
C15_16 C 0.74258(17) 0.67549(18) 0.45780(13)
C16_16 C 0.54220(13) 0.74258(17) 0.32451(18)
C18_6 C 0.75742(17) 0.54220(13) 0.32451(18)
C19_11 C 0.82451(18) 0.45780(13) 0.24258(17)
C22_6 C 0.82451(18) 0.74258(17) 0.45780(13)
C23_6 C 0.95780(13) 0.67549(18) 0.25742(17)
C24_11 C 0.95780(13) 0.25742(17) 0.17549(18)
C25_11 C 0.75742(17) 0.32451(18) 0.04220(13)
C26_16 C 0.72425(13) 0.66641(17) 0.43584(13)
C27_16 C 0.56416(13) 0.72425(13) 0.33359(17)
C29_6 C 0.77575(13) 0.56416(13) 0.33359(17)
C30_11 C 0.83359(17) 0.43584(13) 0.22425(13)
C33_6 C 0.83359(17) 0.72425(13) 0.43584(13)
C34_6 C 0.93584(13) 0.66641(17) 0.27575(13)
C35_11 C 0.93584(13) 0.27575(13) 0.16641(17)
C36_11 C 0.77575(13) 0.33359(17) 0.06416(13)
C37_16 C 0.70208(14) 0.68235(17) 0.42761(13)
C38_16 C 0.57239(13) 0.70208(14) 0.31765(17)
C40_6 C 0.79792(14) 0.57239(13) 0.31765(17)
C41_11 C 0.81765(17) 0.42761(13) 0.20208(14)
C44_6 C 0.81765(17) 0.70208(14) 0.42761(13)
C45_6 C 0.92761(13) 0.68235(17) 0.29792(14)
C46_11 C 0.92761(13) 0.29792(14) 0.18235(17)
C47_11 C 0.79792(14) 0.31765(17) 0.07239(13)
H14_16 H 0.6983 0.6993 0.4365
H15_16 H 0.5635 0.6983 0.3007
H17_6 H 0.8017 0.5635 0.3007
H18_11 H 0.8007 0.4365 0.1983
H21_6 H 0.8007 0.6983 0.4365
H22_6 H 0.9365 0.6993 0.3017
H23_11 H 0.9365 0.3017 0.1993
H24_11 H 0.8017 0.3007 0.0635
C48_16 C 0.68561(13) 0.67328(14) 0.40638(12)
C49_16 C 0.59362(12) 0.68561(13) 0.32672(14)
C51_6 C 0.81439(13) 0.59362(12) 0.32672(14)
C52_11 C 0.82672(14) 0.40638(12) 0.18561(13)
C55_6 C 0.82672(14) 0.68561(13) 0.40638(12)
C56_6 C 0.90638(12) 0.67328(14) 0.31439(13)
C57_11 C 0.90638(12) 0.31439(13) 0.17328(14)
C58_11 C 0.81439(13) 0.32672(14) 0.09362(12)
C59_16 C 0.69145(12) 0.64942(14) 0.39210(13)
C60_16 C 0.60790(13) 0.69145(12) 0.35058(14)
C62_6 C 0.80855(12) 0.60790(13) 0.35058(14)
C63_11 C 0.85058(14) 0.39210(13) 0.19145(12)
C65_6 C 0.89210(13) 0.64942(14) 0.30855(12)
C66_11 C 0.80855(12) 0.35058(14) 0.10790(13)
C68_6 C 0.85058(14) 0.69145(12) 0.39210(13)
C69_11 C 0.89210(13) 0.30855(12) 0.14942(14)
C70_16 C 0.71318(13) 0.63364(15) 0.40102(14)
C71_16 C 0.59898(14) 0.71318(13) 0.36636(15)
C73_6 C 0.78682(13) 0.59898(14) 0.36636(15)
C74_11 C 0.86636(15) 0.40102(14) 0.21318(13)
C76_6 C 0.90102(14) 0.63364(15) 0.28682(13)
C77_11 C 0.78682(13) 0.36636(15) 0.09898(14)
C79_6 C 0.86636(15) 0.71318(13) 0.40102(14)
C80_11 C 0.90102(14) 0.28682(13) 0.13364(15)
H25_16 H 0.7171 0.6168 0.3920
H26_16 H 0.6080 0.7171 0.3832
H28_6 H 0.7829 0.6080 0.3832
H29_11 H 0.8832 0.3920 0.2171
H31_6 H 0.8920 0.6168 0.2829
H32_11 H 0.7829 0.3832 0.1080
H34_6 H 0.8832 0.7171 0.3920
H35_11 H 0.8920 0.2829 0.1168
C81_16 C 0.72907(14) 0.64160(15) 0.42240(13)
C82_16 C 0.57760(13) 0.72907(14) 0.35840(15)
C84_6 C 0.77093(14) 0.57760(13) 0.35840(15)
C85_11 C 0.85840(15) 0.42240(13) 0.22907(14)
C87_6 C 0.92240(13) 0.64160(15) 0.27093(14)
C88_11 C 0.77093(14) 0.35840(15) 0.07760(13)
C90_6 C 0.85840(15) 0.72907(14) 0.42240(13)
C91_11 C 0.92240(13) 0.27093(14) 0.14160(15)
H36_16 H 0.7437 0.6301 0.4283
H37_16 H 0.5717 0.7437 0.3699
H39_6 H 0.7563 0.5717 0.3699
H40_11 H 0.8699 0.4283 0.2437
H42_6 H 0.9283 0.6301 0.2563
H43_11 H 0.7563 0.3699 0.0717
H45_6 H 0.8699 0.7437 0.4283
H46_11 H 0.9283 0.2563 0.1301
C92_16 C 0.60427(15) 0.65991(15) 0.31274(14)
C93_16 C 0.65991(15) 0.68726(14) 0.39573(15)
C95_6 C 0.84009(15) 0.60427(15) 0.31274(14)
C96_11 C 0.81274(14) 0.39573(15) 0.15991(15)
C98_6 C 0.81274(14) 0.65991(15) 0.39573(15)
C99_11 C 0.89573(15) 0.34009(15) 0.18726(14)
C101_6 C 0.89573(15) 0.68726(14) 0.34009(15)
C102_11 C 0.84009(15) 0.31274(14) 0.10427(15)
C103_16 C 0.62784(13) 0.65199(12) 0.33170(14)
C104_16 C 0.65199(12) 0.66830(14) 0.37216(13)
C106_6 C 0.84801(12) 0.62784(13) 0.33170(14)
C107_11 C 0.83170(14) 0.37216(13) 0.15199(12)
C109_6 C 0.83170(14) 0.65199(12) 0.37216(13)
C110_11 C 0.87216(13) 0.34801(12) 0.16830(14)
C112_6 C 0.87216(13) 0.66830(14) 0.34801(12)
C113_11 C 0.84801(12) 0.33170(14) 0.12784(13)
C114_16 C 0.67075(13) 0.64642(13) 0.36976(13)
C115_16 C 0.63024(13) 0.67075(13) 0.35358(13)
C117_6 C 0.82925(13) 0.63024(13) 0.35358(13)
C118_11 C 0.85358(13) 0.36976(13) 0.17075(13)
C120_6 C 0.86976(13) 0.64642(13) 0.32925(13)
C121_11 C 0.82925(13) 0.35358(13) 0.13024(13)
C123_6 C 0.85358(13) 0.67075(13) 0.36976(13)
C124_11 C 0.86976(13) 0.32925(13) 0.14642(13)
C125_16 C 0.58031(17) 0.63856(18) 0.3136(2)
C126_16 C 0.63856(18) 0.6864(2) 0.41969(17)
C128_6 C 0.86144(18) 0.58031(17) 0.3136(2)
C129_11 C 0.8136(2) 0.41969(17) 0.13856(18)
C131_6 C 0.8136(2) 0.63856(18) 0.41969(17)
C132_11 C 0.91969(17) 0.36144(18) 0.1864(2)
C134_6 C 0.91969(17) 0.6864(2) 0.36144(18)
C135_11 C 0.86144(18) 0.3136(2) 0.08031(17)
H47_16 H 0.5648 0.6458 0.3026
H48_16 H 0.6458 0.6974 0.4352
H50_6 H 0.8542 0.5648 0.3026
H51_11 H 0.8026 0.4352 0.1458
H53_6 H 0.8026 0.6458 0.4352
H54_11 H 0.9352 0.3542 0.1974
H56_6 H 0.9352 0.6974 0.3542
H57_11 H 0.8542 0.3026 0.0648
H58_16 H 0.5866 0.6214 0.3047
H59_16 H 0.6214 0.6953 0.4134
H61_6 H 0.8786 0.5866 0.3047
H62_11 H 0.8047 0.4134 0.1214
H64_6 H 0.8047 0.6214 0.4134
H65_11 H 0.9134 0.3786 0.1953
H67_6 H 0.9134 0.6953 0.3786
H68_11 H 0.8786 0.3047 0.0866
C136_16 C 0.5697(2) 0.6315(2) 0.3427(2)
C137_16 C 0.6315(2) 0.6573(2) 0.4303(2)
C139_6 C 0.8685(2) 0.5697(2) 0.3427(2)
C140_11 C 0.8427(2) 0.4303(2) 0.1315(2)
C142_6 C 0.8427(2) 0.6315(2) 0.4303(2)
C143_11 C 0.9303(2) 0.3685(2) 0.1573(2)
C145_6 C 0.9303(2) 0.6573(2) 0.3685(2)
C146_11 C 0.8685(2) 0.3427(2) 0.0697(2)
H69_16 H 0.5852 0.6265 0.3545
H70_16 H 0.6265 0.6455 0.4148
H72_6 H 0.8735 0.5852 0.3545
H73_11 H 0.8545 0.4148 0.1265
H75_6 H 0.8545 0.6265 0.4148
H76_11 H 0.9148 0.3735 0.1455
H78_6 H 0.9148 0.6455 0.3735
H79_11 H 0.8735 0.3545 0.0852
H80_16 H 0.5568 0.6161 0.3416
H81_16 H 0.6161 0.6584 0.4432
H83_6 H 0.8839 0.5568 0.3416
H84_11 H 0.8416 0.4432 0.1161
H86_6 H 0.8416 0.6161 0.4432
H87_11 H 0.9432 0.3839 0.1584
H89_6 H 0.9432 0.6584 0.3839
H90_11 H 0.8839 0.3416 0.0568
H91_16 H 0.5603 0.6476 0.3504
H92_16 H 0.6476 0.6496 0.4397
H94_6 H 0.8524 0.5603 0.3504
H95_11 H 0.8504 0.4397 0.1476
H97_6 H 0.8504 0.6476 0.4397
H98_11 H 0.9397 0.3524 0.1496
H100_6 H 0.9397 0.6496 0.3524
H101_11 H 0.8524 0.3504 0.0603
C147_16 C 0.61421(19) 0.66663(18) 0.28376(17)
C148_16 C 0.66663(18) 0.71624(17) 0.38579(19)
C150_6 C 0.83337(18) 0.61421(19) 0.28376(17)
C151_11 C 0.78376(17) 0.38579(19) 0.16663(18)
C153_6 C 0.78376(17) 0.66663(18) 0.38579(19)
C154_11 C 0.88579(19) 0.33337(18) 0.21624(17)
C156_6 C 0.88579(19) 0.71624(17) 0.33337(18)
C157_11 C 0.83337(18) 0.28376(17) 0.11421(19)
H102_16 H 0.5985 0.6738 0.2730
H103_16 H 0.6738 0.7270 0.4015
H105_6 H 0.8262 0.5985 0.2730
H106_11 H 0.7730 0.4015 0.1738
H108_6 H 0.7730 0.6738 0.4015
H109_11 H 0.9015 0.3262 0.2270
H111_6 H 0.9015 0.7270 0.3262
H112_11 H 0.8262 0.2730 0.0985
H113_16 H 0.6204 0.6494 0.2749
H114_16 H 0.6494 0.7251 0.3796
H116_6 H 0.8506 0.6204 0.2749
H117_11 H 0.7749 0.3796 0.1494
H119_6 H 0.7749 0.6494 0.3796
H120_11 H 0.8796 0.3506 0.2251
H122_6 H 0.8796 0.7251 0.3506
H123_11 H 0.8506 0.2749 0.1204
C158_16 C 0.6378(2) 0.6878(3) 0.28268(19)
C159_16 C 0.6878(3) 0.71732(19) 0.3622(2)
C161_6 C 0.8122(3) 0.6378(2) 0.28268(19)
C162_11 C 0.78268(19) 0.3622(2) 0.1878(3)
C164_6 C 0.78268(19) 0.6878(3) 0.3622(2)
C165_11 C 0.8622(2) 0.3122(3) 0.21732(19)
C167_6 C 0.8622(2) 0.71732(19) 0.3122(3)
C168_11 C 0.8122(3) 0.28268(19) 0.1378(2)
H124_16 H 0.6334 0.7033 0.2947
H125_16 H 0.7033 0.7053 0.3666
H127_6 H 0.7967 0.6334 0.2947
H128_11 H 0.7947 0.3666 0.2033
H130_6 H 0.7947 0.7033 0.3666
H131_11 H 0.8666 0.2967 0.2053
H133_6 H 0.8666 0.7053 0.2967
H134_11 H 0.7967 0.2947 0.1334
H135_16 H 0.6401 0.6943 0.2638
H136_16 H 0.6943 0.7362 0.3599
H138_6 H 0.8057 0.6401 0.2638
H139_11 H 0.7638 0.3599 0.1943
H141_6 H 0.7638 0.6943 0.3599
H142_11 H 0.8599 0.3057 0.2362
H144_6 H 0.8599 0.7362 0.3057
H145_11 H 0.8057 0.2638 0.1401
H146_16 H 0.6549 0.6791 0.2889
H147_16 H 0.6791 0.7111 0.3451
H149_6 H 0.8209 0.6549 0.2889
H150_11 H 0.7889 0.3451 0.1791
H152_6 H 0.7889 0.6791 0.3451
H153_11 H 0.8451 0.3209 0.2111
H155_6 H 0.8451 0.7111 0.3209
H156_11 H 0.8209 0.2889 0.1549
O2_16 O 0.03099(11) 0.26115(12) 0.19920(15)
O3_16 O 0.03477(11) 0.23722(13) 0.16180(14)
O4_25 O -0.0000 0.2500 0.2500
C1_17 C 0.04220(13) 0.25742(17) 0.17549(18)
C2_17 C 0.06416(13) 0.27575(13) 0.16641(17)
C3_17 C 0.07239(13) 0.29792(14) 0.18235(17)
H1_17 H 0.0635 0.3017 0.1993
C4_17 C 0.09362(12) 0.31439(13) 0.17328(14)
C5_17 C 0.10790(13) 0.30855(12) 0.14942(14)
C6_17 C 0.09898(14) 0.28682(13) 0.13364(15)
H2_17 H 0.1080 0.2829 0.1168
C7_17 C 0.07760(13) 0.27093(14) 0.14160(15)
H3_17 H 0.0717 0.2563 0.1301
C8_17 C 0.10427(15) 0.34009(15) 0.18726(14)
C9_17 C 0.12784(13) 0.34801(12) 0.16830(14)
C10_17 C 0.13024(13) 0.32925(13) 0.14642(13)
C11_17 C 0.08031(17) 0.36144(18) 0.1864(2)
H4_17 H 0.0648 0.3542 0.1974
H5_17 H 0.0866 0.3786 0.1953
C12_17 C 0.0697(2) 0.3685(2) 0.1573(2)
H6_17 H 0.0852 0.3735 0.1455
H7_17 H 0.0568 0.3839 0.1584
H8_17 H 0.0603 0.3524 0.1496
C13_17 C 0.11421(19) 0.33337(18) 0.21624(17)
H9_17 H 0.0985 0.3262 0.2270
H10_17 H 0.1204 0.3506 0.2251
C14_17 C 0.1378(2) 0.3122(3) 0.21732(19)
H11_17 H 0.1334 0.2967 0.2053
H12_17 H 0.1401 0.3057 0.2362
H13_17 H 0.1549 0.3209 0.2111
O5_16 O 0.03099(11) 0.19920(15) 0.23885(12)
O9_17 O 0.23885(12) 0.30080(15) 0.03099(11)
O13_10 O 0.03099(11) 0.23885(12) 0.30080(15)
O22_17 O 0.26278(13) 0.33820(14) 0.03477(11)
O24_10 O 0.03477(11) 0.26278(13) 0.33820(14)
O27_16 O 0.03477(11) 0.16180(14) 0.26278(13)
C15_17 C 0.17549(18) 0.45780(13) 0.24258(17)
C16_17 C 0.24258(17) 0.32451(18) 0.04220(13)
C26_17 C 0.16641(17) 0.43584(13) 0.22425(13)
C27_17 C 0.22425(13) 0.33359(17) 0.06416(13)
C37_17 C 0.18235(17) 0.42761(13) 0.20208(14)
C38_17 C 0.20208(14) 0.31765(17) 0.07239(13)
H14_17 H 0.1993 0.4365 0.1983
H15_17 H 0.1983 0.3007 0.0635
C48_17 C 0.17328(14) 0.40638(12) 0.18561(13)
C49_17 C 0.18561(13) 0.32672(14) 0.09362(12)
C59_17 C 0.14942(14) 0.39210(13) 0.19145(12)
C60_17 C 0.19145(12) 0.35058(14) 0.10790(13)
C70_17 C 0.13364(15) 0.40102(14) 0.21318(13)
C71_17 C 0.21318(13) 0.36636(15) 0.09898(14)
H25_17 H 0.1168 0.3920 0.2171
H26_17 H 0.2171 0.3832 0.1080
C81_17 C 0.14160(15) 0.42240(13) 0.22907(14)
C82_17 C 0.22907(14) 0.35840(15) 0.07760(13)
H36_17 H 0.1301 0.4283 0.2437
H37_17 H 0.2437 0.3699 0.0717
C92_17 C 0.15991(15) 0.31274(14) 0.10427(15)
C93_17 C 0.18726(14) 0.39573(15) 0.15991(15)
C103_17 C 0.15199(12) 0.33170(14) 0.12784(13)
C104_17 C 0.16830(14) 0.37216(13) 0.15199(12)
C114_17 C 0.14642(13) 0.36976(13) 0.17075(13)
C115_17 C 0.17075(13) 0.35358(13) 0.13024(13)
C125_17 C 0.13856(18) 0.3136(2) 0.08031(17)
C126_17 C 0.1864(2) 0.41969(17) 0.13856(18)
H47_17 H 0.1458 0.3026 0.0648
H48_17 H 0.1974 0.4352 0.1458
H58_17 H 0.1214 0.3047 0.0866
H59_17 H 0.1953 0.4134 0.1214
C136_17 C 0.1315(2) 0.3427(2) 0.0697(2)
C137_17 C 0.1573(2) 0.4303(2) 0.1315(2)
H69_17 H 0.1265 0.3545 0.0852
H70_17 H 0.1455 0.4148 0.1265
H80_17 H 0.1161 0.3416 0.0568
H81_17 H 0.1584 0.4432 0.1161
H91_17 H 0.1476 0.3504 0.0603
H92_17 H 0.1496 0.4397 0.1476
C147_17 C 0.16663(18) 0.28376(17) 0.11421(19)
C148_17 C 0.21624(17) 0.38579(19) 0.16663(18)
H102_17 H 0.1738 0.2730 0.0985
H103_17 H 0.2270 0.4015 0.1738
H113_17 H 0.1494 0.2749 0.1204
H114_17 H 0.2251 0.3796 0.1494
C158_17 C 0.1878(3) 0.28268(19) 0.1378(2)
C159_17 C 0.21732(19) 0.3622(2) 0.1878(3)
H124_17 H 0.2033 0.2947 0.1334
H125_17 H 0.2053 0.3666 0.2033
H135_17 H 0.1943 0.2638 0.1401
H136_17 H 0.2362 0.3599 0.1943
H146_17 H 0.1791 0.2889 0.1549
H147_17 H 0.2111 0.3451 0.1791
O4_26 O 1.0000 0.2500 0.2500
O7_11 O 0.96901(11) 0.19920(15) 0.23885(12)
O12_14 O 0.96901(11) 0.30080(15) 0.26115(12)
O26_14 O 0.96523(11) 0.33820(14) 0.23722(13)
O28_11 O 0.96523(11) 0.16180(14) 0.26278(13)
C17_11 C 0.95780(13) 0.17549(18) 0.24258(17)
C20_11 C 0.75742(17) 0.04220(13) 0.17549(18)
C21_11 C 0.82451(18) 0.24258(17) 0.04220(13)
C28_11 C 0.93584(13) 0.16641(17) 0.22425(13)
C31_11 C 0.77575(13) 0.06416(13) 0.16641(17)
C32_11 C 0.83359(17) 0.22425(13) 0.06416(13)
C39_11 C 0.92761(13) 0.18235(17) 0.20208(14)
C42_11 C 0.79792(14) 0.07239(13) 0.18235(17)
C43_11 C 0.81765(17) 0.20208(14) 0.07239(13)
H16_11 H 0.9365 0.1993 0.1983
H19_11 H 0.8017 0.0635 0.1993
H20_11 H 0.8007 0.1983 0.0635
C50_11 C 0.90638(12) 0.17328(14) 0.18561(13)
C53_11 C 0.81439(13) 0.09362(12) 0.17328(14)
C54_11 C 0.82672(14) 0.18561(13) 0.09362(12)
C61_11 C 0.89210(13) 0.14942(14) 0.19145(12)
C64_11 C 0.85058(14) 0.19145(12) 0.10790(13)
C67_11 C 0.80855(12) 0.10790(13) 0.14942(14)
C72_11 C 0.90102(14) 0.13364(15) 0.21318(13)
C75_11 C 0.86636(15) 0.21318(13) 0.09898(14)
C78_11 C 0.78682(13) 0.09898(14) 0.13364(15)
H27_11 H 0.8920 0.1168 0.2171
H30_11 H 0.8832 0.2171 0.1080
H33_11 H 0.7829 0.1080 0.1168
C83_11 C 0.92240(13) 0.14160(15) 0.22907(14)
C86_11 C 0.85840(15) 0.22907(14) 0.07760(13)
C89_11 C 0.77093(14) 0.07760(13) 0.14160(15)
H38_11 H 0.9283 0.1301 0.2437
H41_11 H 0.8699 0.2437 0.0717
H44_11 H 0.7563 0.0717 0.1301
C94_11 C 0.89573(15) 0.18726(14) 0.15991(15)
C97_11 C 0.84009(15) 0.10427(15) 0.18726(14)
C100_11 C 0.81274(14) 0.15991(15) 0.10427(15)
C105_11 C 0.87216(13) 0.16830(14) 0.15199(12)
C108_11 C 0.84801(12) 0.12784(13) 0.16830(14)
C111_11 C 0.83170(14) 0.15199(12) 0.12784(13)
C116_11 C 0.86976(13) 0.14642(13) 0.17075(13)
C119_11 C 0.85358(13) 0.17075(13) 0.13024(13)
C122_11 C 0.82925(13) 0.13024(13) 0.14642(13)
C127_11 C 0.91969(17) 0.1864(2) 0.13856(18)
C130_11 C 0.86144(18) 0.08031(17) 0.1864(2)
C133_11 C 0.8136(2) 0.13856(18) 0.08031(17)
H49_11 H 0.9352 0.1974 0.1458
H52_11 H 0.8542 0.0648 0.1974
H55_11 H 0.8026 0.1458 0.0648
H60_11 H 0.9134 0.1953 0.1214
H63_11 H 0.8786 0.0866 0.1953
H66_11 H 0.8047 0.1214 0.0866
C138_11 C 0.9303(2) 0.1573(2) 0.1315(2)
C141_11 C 0.8685(2) 0.0697(2) 0.1573(2)
C144_11 C 0.8427(2) 0.1315(2) 0.0697(2)
H71_11 H 0.9148 0.1455 0.1265
H74_11 H 0.8735 0.0852 0.1455
H77_11 H 0.8545 0.1265 0.0852
H82_11 H 0.9432 0.1584 0.1161
H85_11 H 0.8839 0.0568 0.1584
H88_11 H 0.8416 0.1161 0.0568
H93_11 H 0.9397 0.1496 0.1476
H96_11 H 0.8524 0.0603 0.1496
H99_11 H 0.8504 0.1476 0.0603
C149_11 C 0.88579(19) 0.21624(17) 0.16663(18)
C152_11 C 0.83337(18) 0.11421(19) 0.21624(17)
C155_11 C 0.78376(17) 0.16663(18) 0.11421(19)
H104_11 H 0.9015 0.2270 0.1738
H107_11 H 0.8262 0.0985 0.2270
H110_11 H 0.7730 0.1738 0.0985
H115_11 H 0.8796 0.2251 0.1494
H118_11 H 0.8506 0.1204 0.2251
H121_11 H 0.7749 0.1494 0.1204
C160_11 C 0.8622(2) 0.21732(19) 0.1878(3)
C163_11 C 0.8122(3) 0.1378(2) 0.21732(19)
C166_11 C 0.78268(19) 0.1878(3) 0.1378(2)
H126_11 H 0.8666 0.2053 0.2033
H129_11 H 0.7967 0.1334 0.2053
H132_11 H 0.7947 0.2033 0.1334
H137_11 H 0.8599 0.2362 0.1943
H140_11 H 0.8057 0.1401 0.2362
H143_11 H 0.7638 0.1943 0.1401
H148_11 H 0.8451 0.2111 0.1791
H151_11 H 0.8209 0.1549 0.2111
H154_11 H 0.7889 0.1791 0.1549
Cd10_11 Cd 0.19908(4) -0.0000 0.22418(3)
Cd10_12 Cd 0.19908(4) 1.0000 0.22418(3)
O14_11 O 0.23885(12) 0.96901(11) 0.19920(15)
O18_11 O 0.23885(12) 0.80080(15) 0.46901(11)
O19_10 O 0.19920(15) 0.96901(11) 0.26115(12)
O29_11 O 0.26278(13) 0.96523(11) 0.16180(14)
O33_11 O 0.26278(13) 0.83820(14) 0.46523(11)
O34_10 O 0.16180(14) 0.96523(11) 0.23722(13)
C17_12 C 0.04220(13) 0.82451(18) 0.24258(17)
C19_12 C 0.04220(13) 0.75742(17) 0.32451(18)
C20_12 C 0.24258(17) 0.95780(13) 0.17549(18)
C21_12 C 0.17549(18) 0.75742(17) 0.04220(13)
C24_12 C 0.24258(17) 0.82451(18) 0.45780(13)
C25_12 C 0.17549(18) 0.95780(13) 0.25742(17)
C28_12 C 0.06416(13) 0.83359(17) 0.22425(13)
C30_12 C 0.06416(13) 0.77575(13) 0.33359(17)
C31_12 C 0.22425(13) 0.93584(13) 0.16641(17)
C32_12 C 0.16641(17) 0.77575(13) 0.06416(13)
C35_12 C 0.22425(13) 0.83359(17) 0.43584(13)
C36_12 C 0.16641(17) 0.93584(13) 0.27575(13)
C39_12 C 0.07239(13) 0.81765(17) 0.20208(14)
C41_12 C 0.07239(13) 0.79792(14) 0.31765(17)
C42_12 C 0.20208(14) 0.92761(13) 0.18235(17)
C43_12 C 0.18235(17) 0.79792(14) 0.07239(13)
C46_12 C 0.20208(14) 0.81765(17) 0.42761(13)
C47_12 C 0.18235(17) 0.92761(13) 0.29792(14)
H16_12 H 0.0635 0.8007 0.1983
H18_12 H 0.0635 0.8017 0.3007
H19_12 H 0.1983 0.9365 0.1993
H20_12 H 0.1993 0.8017 0.0635
H23_12 H 0.1983 0.8007 0.4365
H24_12 H 0.1993 0.9365 0.3017
C50_12 C 0.09362(12) 0.82672(14) 0.18561(13)
C52_12 C 0.09362(12) 0.81439(13) 0.32672(14)
C53_12 C 0.18561(13) 0.90638(12) 0.17328(14)
C54_12 C 0.17328(14) 0.81439(13) 0.09362(12)
C57_12 C 0.18561(13) 0.82672(14) 0.40638(12)
C58_12 C 0.17328(14) 0.90638(12) 0.31439(13)
C61_12 C 0.10790(13) 0.85058(14) 0.19145(12)
C63_12 C 0.10790(13) 0.80855(12) 0.35058(14)
C64_12 C 0.14942(14) 0.80855(12) 0.10790(13)
C66_12 C 0.14942(14) 0.89210(13) 0.30855(12)
C67_12 C 0.19145(12) 0.89210(13) 0.14942(14)
C69_12 C 0.19145(12) 0.85058(14) 0.39210(13)
C72_12 C 0.09898(14) 0.86636(15) 0.21318(13)
C74_12 C 0.09898(14) 0.78682(13) 0.36636(15)
C75_12 C 0.13364(15) 0.78682(13) 0.09898(14)
C77_12 C 0.13364(15) 0.90102(14) 0.28682(13)
C78_12 C 0.21318(13) 0.90102(14) 0.13364(15)
C80_12 C 0.21318(13) 0.86636(15) 0.40102(14)
H27_12 H 0.1080 0.8832 0.2171
H29_12 H 0.1080 0.7829 0.3832
H30_12 H 0.1168 0.7829 0.1080
H32_12 H 0.1168 0.8920 0.2829
H33_12 H 0.2171 0.8920 0.1168
H35_12 H 0.2171 0.8832 0.3920
C83_12 C 0.07760(13) 0.85840(15) 0.22907(14)
C85_12 C 0.07760(13) 0.77093(14) 0.35840(15)
C86_12 C 0.14160(15) 0.77093(14) 0.07760(13)
C88_12 C 0.14160(15) 0.92240(13) 0.27093(14)
C89_12 C 0.22907(14) 0.92240(13) 0.14160(15)
C91_12 C 0.22907(14) 0.85840(15) 0.42240(13)
H38_12 H 0.0717 0.8699 0.2437
H40_12 H 0.0717 0.7563 0.3699
H41_12 H 0.1301 0.7563 0.0717
H43_12 H 0.1301 0.9283 0.2563
H44_12 H 0.2437 0.9283 0.1301
H46_12 H 0.2437 0.8699 0.4283
C94_12 C 0.10427(15) 0.81274(14) 0.15991(15)
C96_12 C 0.10427(15) 0.84009(15) 0.31274(14)
C97_12 C 0.15991(15) 0.89573(15) 0.18726(14)
C99_12 C 0.15991(15) 0.81274(14) 0.39573(15)
C100_12 C 0.18726(14) 0.84009(15) 0.10427(15)
C102_12 C 0.18726(14) 0.89573(15) 0.34009(15)
C105_12 C 0.12784(13) 0.83170(14) 0.15199(12)
C107_12 C 0.12784(13) 0.84801(12) 0.33170(14)
C108_12 C 0.15199(12) 0.87216(13) 0.16830(14)
C110_12 C 0.15199(12) 0.83170(14) 0.37216(13)
C111_12 C 0.16830(14) 0.84801(12) 0.12784(13)
C113_12 C 0.16830(14) 0.87216(13) 0.34801(12)
C116_12 C 0.13024(13) 0.85358(13) 0.17075(13)
C118_12 C 0.13024(13) 0.82925(13) 0.35358(13)
C119_12 C 0.14642(13) 0.82925(13) 0.13024(13)
C121_12 C 0.14642(13) 0.86976(13) 0.32925(13)
C122_12 C 0.17075(13) 0.86976(13) 0.14642(13)
C124_12 C 0.17075(13) 0.85358(13) 0.36976(13)
C127_12 C 0.08031(17) 0.8136(2) 0.13856(18)
C129_12 C 0.08031(17) 0.86144(18) 0.3136(2)
C130_12 C 0.13856(18) 0.91969(17) 0.1864(2)
C132_12 C 0.13856(18) 0.8136(2) 0.41969(17)
C133_12 C 0.1864(2) 0.86144(18) 0.08031(17)
C135_12 C 0.1864(2) 0.91969(17) 0.36144(18)
H49_12 H 0.0648 0.8026 0.1458
H51_12 H 0.0648 0.8542 0.3026
H52_12 H 0.1458 0.9352 0.1974
H54_12 H 0.1458 0.8026 0.4352
H55_12 H 0.1974 0.8542 0.0648
H57_12 H 0.1974 0.9352 0.3542
H60_12 H 0.0866 0.8047 0.1214
H62_12 H 0.0866 0.8786 0.3047
H63_12 H 0.1214 0.9134 0.1953
H65_12 H 0.1214 0.8047 0.4134
H66_12 H 0.1953 0.8786 0.0866
H68_12 H 0.1953 0.9134 0.3786
C138_12 C 0.0697(2) 0.8427(2) 0.1315(2)
C140_12 C 0.0697(2) 0.8685(2) 0.3427(2)
C141_12 C 0.1315(2) 0.9303(2) 0.1573(2)
C143_12 C 0.1315(2) 0.8427(2) 0.4303(2)
C144_12 C 0.1573(2) 0.8685(2) 0.0697(2)
C146_12 C 0.1573(2) 0.9303(2) 0.3685(2)
H71_12 H 0.0852 0.8545 0.1265
H73_12 H 0.0852 0.8735 0.3545
H74_12 H 0.1265 0.9148 0.1455
H76_12 H 0.1265 0.8545 0.4148
H77_12 H 0.1455 0.8735 0.0852
H79_12 H 0.1455 0.9148 0.3735
H82_12 H 0.0568 0.8416 0.1161
H84_12 H 0.0568 0.8839 0.3416
H85_12 H 0.1161 0.9432 0.1584
H87_12 H 0.1161 0.8416 0.4432
H88_12 H 0.1584 0.8839 0.0568
H90_12 H 0.1584 0.9432 0.3839
H93_12 H 0.0603 0.8504 0.1476
H95_12 H 0.0603 0.8524 0.3504
H96_12 H 0.1476 0.9397 0.1496
H98_12 H 0.1476 0.8504 0.4397
H99_12 H 0.1496 0.8524 0.0603
H101_12 H 0.1496 0.9397 0.3524
C149_12 C 0.11421(19) 0.78376(17) 0.16663(18)
C151_12 C 0.11421(19) 0.83337(18) 0.28376(17)
C152_12 C 0.16663(18) 0.88579(19) 0.21624(17)
C154_12 C 0.16663(18) 0.78376(17) 0.38579(19)
C155_12 C 0.21624(17) 0.83337(18) 0.11421(19)
C157_12 C 0.21624(17) 0.88579(19) 0.33337(18)
H104_12 H 0.0985 0.7730 0.1738
H106_12 H 0.0985 0.8262 0.2730
H107_12 H 0.1738 0.9015 0.2270
H109_12 H 0.1738 0.7730 0.4015
H110_12 H 0.2270 0.8262 0.0985
H112_12 H 0.2270 0.9015 0.3262
H115_12 H 0.1204 0.7749 0.1494
H117_12 H 0.1204 0.8506 0.2749
H118_12 H 0.1494 0.8796 0.2251
H120_12 H 0.1494 0.7749 0.3796
H121_12 H 0.2251 0.8506 0.1204
H123_12 H 0.2251 0.8796 0.3506
C160_12 C 0.1378(2) 0.78268(19) 0.1878(3)
C162_12 C 0.1378(2) 0.8122(3) 0.28268(19)
C163_12 C 0.1878(3) 0.8622(2) 0.21732(19)
C165_12 C 0.1878(3) 0.78268(19) 0.3622(2)
C166_12 C 0.21732(19) 0.8122(3) 0.1378(2)
C168_12 C 0.21732(19) 0.8622(2) 0.3122(3)
H126_12 H 0.1334 0.7947 0.2033
H128_12 H 0.1334 0.7967 0.2947
H129_12 H 0.2033 0.8666 0.2053
H131_12 H 0.2033 0.7947 0.3666
H132_12 H 0.2053 0.7967 0.1334
H134_12 H 0.2053 0.8666 0.2967
H137_12 H 0.1401 0.7638 0.1943
H139_12 H 0.1401 0.8057 0.2638
H140_12 H 0.1943 0.8599 0.2362
H142_12 H 0.1943 0.7638 0.3599
H143_12 H 0.2362 0.8057 0.1401
H145_12 H 0.2362 0.8599 0.3057
H148_12 H 0.1549 0.7889 0.1791
H150_12 H 0.1549 0.8209 0.2889
H151_12 H 0.1791 0.8451 0.2111
H153_12 H 0.1791 0.7889 0.3451
H154_12 H 0.2111 0.8209 0.1549
H156_12 H 0.2111 0.8451 0.3209
O4_27 O 0.7500 0.2500 0.5000
O5_17 O 0.69920(15) 0.23885(12) 0.53099(11)
O11_11 O 0.73885(12) 0.30080(15) 0.46901(11)
O12_15 O 0.80080(15) 0.26115(12) 0.46901(11)
O23_11 O 0.76278(13) 0.33820(14) 0.46523(11)
O26_15 O 0.83820(14) 0.23722(13) 0.46523(11)
O27_17 O 0.66180(14) 0.26278(13) 0.53477(11)
C19_13 C 0.74258(17) 0.32451(18) 0.45780(13)
C24_13 C 0.67549(18) 0.45780(13) 0.25742(17)
C25_13 C 0.54220(13) 0.25742(17) 0.32451(18)
C30_13 C 0.72425(13) 0.33359(17) 0.43584(13)
C35_13 C 0.66641(17) 0.43584(13) 0.27575(13)
C36_13 C 0.56416(13) 0.27575(13) 0.33359(17)
C41_13 C 0.70208(14) 0.31765(17) 0.42761(13)
C46_13 C 0.68235(17) 0.42761(13) 0.29792(14)
C47_13 C 0.57239(13) 0.29792(14) 0.31765(17)
H18_13 H 0.6983 0.3007 0.4365
H23_13 H 0.6993 0.4365 0.3017
H24_13 H 0.5635 0.3017 0.3007
C52_13 C 0.68561(13) 0.32672(14) 0.40638(12)
C57_13 C 0.67328(14) 0.40638(12) 0.31439(13)
C58_13 C 0.59362(12) 0.31439(13) 0.32672(14)
C63_13 C 0.69145(12) 0.35058(14) 0.39210(13)
C66_13 C 0.60790(13) 0.30855(12) 0.35058(14)
C69_13 C 0.64942(14) 0.39210(13) 0.30855(12)
C74_13 C 0.71318(13) 0.36636(15) 0.40102(14)
C77_13 C 0.59898(14) 0.28682(13) 0.36636(15)
C80_13 C 0.63364(15) 0.40102(14) 0.28682(13)
H29_13 H 0.7171 0.3832 0.3920
H32_13 H 0.6080 0.2829 0.3832
H35_13 H 0.6168 0.3920 0.2829
C85_13 C 0.72907(14) 0.35840(15) 0.42240(13)
C88_13 C 0.57760(13) 0.27093(14) 0.35840(15)
C91_13 C 0.64160(15) 0.42240(13) 0.27093(14)
H40_13 H 0.7437 0.3699 0.4283
H43_13 H 0.5717 0.2563 0.3699
H46_13 H 0.6301 0.4283 0.2563
C96_13 C 0.65991(15) 0.31274(14) 0.39573(15)
C99_13 C 0.68726(14) 0.39573(15) 0.34009(15)
C102_13 C 0.60427(15) 0.34009(15) 0.31274(14)
C107_13 C 0.65199(12) 0.33170(14) 0.37216(13)
C110_13 C 0.66830(14) 0.37216(13) 0.34801(12)
C113_13 C 0.62784(13) 0.34801(12) 0.33170(14)
C118_13 C 0.67075(13) 0.35358(13) 0.36976(13)
C121_13 C 0.63024(13) 0.32925(13) 0.35358(13)
C124_13 C 0.64642(13) 0.36976(13) 0.32925(13)
C129_13 C 0.63856(18) 0.3136(2) 0.41969(17)
C132_13 C 0.6864(2) 0.41969(17) 0.36144(18)
C135_13 C 0.58031(17) 0.36144(18) 0.3136(2)
H51_13 H 0.6458 0.3026 0.4352
H54_13 H 0.6974 0.4352 0.3542
H57_13 H 0.5648 0.3542 0.3026
H62_13 H 0.6214 0.3047 0.4134
H65_13 H 0.6953 0.4134 0.3786
H68_13 H 0.5866 0.3786 0.3047
C140_13 C 0.6315(2) 0.3427(2) 0.4303(2)
C143_13 C 0.6573(2) 0.4303(2) 0.3685(2)
C146_13 C 0.5697(2) 0.3685(2) 0.3427(2)
H73_13 H 0.6265 0.3545 0.4148
H76_13 H 0.6455 0.4148 0.3735
H79_13 H 0.5852 0.3735 0.3545
H84_13 H 0.6161 0.3416 0.4432
H87_13 H 0.6584 0.4432 0.3839
H90_13 H 0.5568 0.3839 0.3416
H95_13 H 0.6476 0.3504 0.4397
H98_13 H 0.6496 0.4397 0.3524
H101_13 H 0.5603 0.3524 0.3504
C151_13 C 0.66663(18) 0.28376(17) 0.38579(19)
C154_13 C 0.71624(17) 0.38579(19) 0.33337(18)
C157_13 C 0.61421(19) 0.33337(18) 0.28376(17)
H106_13 H 0.6738 0.2730 0.4015
H109_13 H 0.7270 0.4015 0.3262
H112_13 H 0.5985 0.3262 0.2730
H117_13 H 0.6494 0.2749 0.3796
H120_13 H 0.7251 0.3796 0.3506
H123_13 H 0.6204 0.3506 0.2749
C162_13 C 0.6878(3) 0.28268(19) 0.3622(2)
C165_13 C 0.71732(19) 0.3622(2) 0.3122(3)
C168_13 C 0.6378(2) 0.3122(3) 0.28268(19)
H128_13 H 0.7033 0.2947 0.3666
H131_13 H 0.7053 0.3666 0.2967
H134_13 H 0.6334 0.2967 0.2947
H139_13 H 0.6943 0.2638 0.3599
H142_13 H 0.7362 0.3599 0.3057
H145_13 H 0.6401 0.3057 0.2638
H150_13 H 0.6791 0.2889 0.3451
H153_13 H 0.7111 0.3451 0.3209
H156_13 H 0.6549 0.3209 0.2889
O4_28 O 0.7500 0.7500 0.5000
O5_18 O 0.69920(15) 0.76115(12) 0.46901(11)
O27_18 O 0.66180(14) 0.73722(13) 0.46523(11)
C1_18 C 0.24258(17) 0.17549(18) 0.45780(13)
C2_18 C 0.22425(13) 0.16641(17) 0.43584(13)
C3_18 C 0.20208(14) 0.18235(17) 0.42761(13)
H1_18 H 0.1983 0.1993 0.4365
C4_18 C 0.18561(13) 0.17328(14) 0.40638(12)
C5_18 C 0.19145(12) 0.14942(14) 0.39210(13)
C6_18 C 0.21318(13) 0.13364(15) 0.40102(14)
H2_18 H 0.2171 0.1168 0.3920
C7_18 C 0.22907(14) 0.14160(15) 0.42240(13)
H3_18 H 0.2437 0.1301 0.4283
C8_18 C 0.15991(15) 0.18726(14) 0.39573(15)
C9_18 C 0.15199(12) 0.16830(14) 0.37216(13)
C10_18 C 0.17075(13) 0.14642(13) 0.36976(13)
C11_18 C 0.13856(18) 0.1864(2) 0.41969(17)
H4_18 H 0.1458 0.1974 0.4352
H5_18 H 0.1214 0.1953 0.4134
C12_18 C 0.1315(2) 0.1573(2) 0.4303(2)
H6_18 H 0.1265 0.1455 0.4148
H7_18 H 0.1161 0.1584 0.4432
H8_18 H 0.1476 0.1496 0.4397
C13_18 C 0.16663(18) 0.21624(17) 0.38579(19)
H9_18 H 0.1738 0.2270 0.4015
H10_18 H 0.1494 0.2251 0.3796
C14_18 C 0.1878(3) 0.21732(19) 0.3622(2)
H11_18 H 0.2033 0.2053 0.3666
H12_18 H 0.1943 0.2362 0.3599
H13_18 H 0.1791 0.2111 0.3451
O9_18 O 0.19920(15) 0.03099(11) 0.26115(12)
O18_12 O 0.30080(15) 0.46901(11) 0.73885(12)
O19_11 O 0.46901(11) 0.26115(12) 0.69920(15)
O22_18 O 0.16180(14) 0.03477(11) 0.23722(13)
O33_12 O 0.33820(14) 0.46523(11) 0.76278(13)
O34_11 O 0.46523(11) 0.23722(13) 0.66180(14)
C15_18 C 0.04220(13) 0.24258(17) 0.32451(18)
C16_18 C 0.17549(18) 0.04220(13) 0.25742(17)
C19_14 C 0.25742(17) 0.32451(18) 0.54220(13)
C24_14 C 0.32451(18) 0.45780(13) 0.74258(17)
C25_14 C 0.45780(13) 0.25742(17) 0.67549(18)
C26_18 C 0.06416(13) 0.22425(13) 0.33359(17)
C27_18 C 0.16641(17) 0.06416(13) 0.27575(13)
C30_14 C 0.27575(13) 0.33359(17) 0.56416(13)
C35_14 C 0.33359(17) 0.43584(13) 0.72425(13)
C36_14 C 0.43584(13) 0.27575(13) 0.66641(17)
C37_18 C 0.07239(13) 0.20208(14) 0.31765(17)
C38_18 C 0.18235(17) 0.07239(13) 0.29792(14)
C41_14 C 0.29792(14) 0.31765(17) 0.57239(13)
C46_14 C 0.31765(17) 0.42761(13) 0.70208(14)
C47_14 C 0.42761(13) 0.29792(14) 0.68235(17)
H14_18 H 0.0635 0.1983 0.3007
H15_18 H 0.1993 0.0635 0.3017
H18_14 H 0.3017 0.3007 0.5635
H23_14 H 0.3007 0.4365 0.6983
H24_14 H 0.4365 0.3017 0.6993
C48_18 C 0.09362(12) 0.18561(13) 0.32672(14)
C49_18 C 0.17328(14) 0.09362(12) 0.31439(13)
C52_14 C 0.31439(13) 0.32672(14) 0.59362(12)
C57_14 C 0.32672(14) 0.40638(12) 0.68561(13)
C58_14 C 0.40638(12) 0.31439(13) 0.67328(14)
C59_18 C 0.10790(13) 0.19145(12) 0.35058(14)
C60_18 C 0.14942(14) 0.10790(13) 0.30855(12)
C63_14 C 0.30855(12) 0.35058(14) 0.60790(13)
C66_14 C 0.39210(13) 0.30855(12) 0.64942(14)
C69_14 C 0.35058(14) 0.39210(13) 0.69145(12)
C70_18 C 0.09898(14) 0.21318(13) 0.36636(15)
C71_18 C 0.13364(15) 0.09898(14) 0.28682(13)
C74_14 C 0.28682(13) 0.36636(15) 0.59898(14)
C77_14 C 0.40102(14) 0.28682(13) 0.63364(15)
C80_14 C 0.36636(15) 0.40102(14) 0.71318(13)
H25_18 H 0.1080 0.2171 0.3832
H26_18 H 0.1168 0.1080 0.2829
H29_14 H 0.2829 0.3832 0.6080
H32_14 H 0.3920 0.2829 0.6168
H35_14 H 0.3832 0.3920 0.7171
C81_18 C 0.07760(13) 0.22907(14) 0.35840(15)
C82_18 C 0.14160(15) 0.07760(13) 0.27093(14)
C85_14 C 0.27093(14) 0.35840(15) 0.57760(13)
C88_14 C 0.42240(13) 0.27093(14) 0.64160(15)
C91_14 C 0.35840(15) 0.42240(13) 0.72907(14)
H36_18 H 0.0717 0.2437 0.3699
H37_18 H 0.1301 0.0717 0.2563
H40_14 H 0.2563 0.3699 0.5717
H43_14 H 0.4283 0.2563 0.6301
H46_14 H 0.3699 0.4283 0.7437
C92_18 C 0.18726(14) 0.10427(15) 0.34009(15)
C93_18 C 0.10427(15) 0.15991(15) 0.31274(14)
C96_14 C 0.34009(15) 0.31274(14) 0.60427(15)
C99_14 C 0.31274(14) 0.39573(15) 0.65991(15)
C102_14 C 0.39573(15) 0.34009(15) 0.68726(14)
C103_18 C 0.16830(14) 0.12784(13) 0.34801(12)
C104_18 C 0.12784(13) 0.15199(12) 0.33170(14)
C107_14 C 0.34801(12) 0.33170(14) 0.62784(13)
C110_14 C 0.33170(14) 0.37216(13) 0.65199(12)
C113_14 C 0.37216(13) 0.34801(12) 0.66830(14)
C114_18 C 0.13024(13) 0.17075(13) 0.35358(13)
C115_18 C 0.14642(13) 0.13024(13) 0.32925(13)
C118_14 C 0.32925(13) 0.35358(13) 0.63024(13)
C121_14 C 0.36976(13) 0.32925(13) 0.64642(13)
C124_14 C 0.35358(13) 0.36976(13) 0.67075(13)
C125_18 C 0.1864(2) 0.08031(17) 0.36144(18)
C126_18 C 0.08031(17) 0.13856(18) 0.3136(2)
C129_14 C 0.36144(18) 0.3136(2) 0.58031(17)
C132_14 C 0.3136(2) 0.41969(17) 0.63856(18)
C135_14 C 0.41969(17) 0.36144(18) 0.6864(2)
H47_18 H 0.1974 0.0648 0.3542
H48_18 H 0.0648 0.1458 0.3026
H51_14 H 0.3542 0.3026 0.5648
H54_14 H 0.3026 0.4352 0.6458
H57_14 H 0.4352 0.3542 0.6974
H58_18 H 0.1953 0.0866 0.3786
H59_18 H 0.0866 0.1214 0.3047
H62_14 H 0.3786 0.3047 0.5866
H65_14 H 0.3047 0.4134 0.6214
H68_14 H 0.4134 0.3786 0.6953
C136_18 C 0.1573(2) 0.0697(2) 0.3685(2)
C137_18 C 0.0697(2) 0.1315(2) 0.3427(2)
C140_14 C 0.3685(2) 0.3427(2) 0.5697(2)
C143_14 C 0.3427(2) 0.4303(2) 0.6315(2)
C146_14 C 0.4303(2) 0.3685(2) 0.6573(2)
H69_18 H 0.1455 0.0852 0.3735
H70_18 H 0.0852 0.1265 0.3545
H73_14 H 0.3735 0.3545 0.5852
H76_14 H 0.3545 0.4148 0.6265
H79_14 H 0.4148 0.3735 0.6455
H80_18 H 0.1584 0.0568 0.3839
H81_18 H 0.0568 0.1161 0.3416
H84_14 H 0.3839 0.3416 0.5568
H87_14 H 0.3416 0.4432 0.6161
H90_14 H 0.4432 0.3839 0.6584
H91_18 H 0.1496 0.0603 0.3524
H92_18 H 0.0603 0.1476 0.3504
H95_14 H 0.3524 0.3504 0.5603
H98_14 H 0.3504 0.4397 0.6476
H101_14 H 0.4397 0.3524 0.6496
C147_18 C 0.21624(17) 0.11421(19) 0.33337(18)
C148_18 C 0.11421(19) 0.16663(18) 0.28376(17)
C151_14 C 0.33337(18) 0.28376(17) 0.61421(19)
C154_14 C 0.28376(17) 0.38579(19) 0.66663(18)
C157_14 C 0.38579(19) 0.33337(18) 0.71624(17)
H102_18 H 0.2270 0.0985 0.3262
H103_18 H 0.0985 0.1738 0.2730
H106_14 H 0.3262 0.2730 0.5985
H109_14 H 0.2730 0.4015 0.6738
H112_14 H 0.4015 0.3262 0.7270
H113_18 H 0.2251 0.1204 0.3506
H114_18 H 0.1204 0.1494 0.2749
H117_14 H 0.3506 0.2749 0.6204
H120_14 H 0.2749 0.3796 0.6494
H123_14 H 0.3796 0.3506 0.7251
C158_18 C 0.21732(19) 0.1378(2) 0.3122(3)
C159_18 C 0.1378(2) 0.1878(3) 0.28268(19)
C162_14 C 0.3122(3) 0.28268(19) 0.6378(2)
C165_14 C 0.28268(19) 0.3622(2) 0.6878(3)
C168_14 C 0.3622(2) 0.3122(3) 0.71732(19)
H124_18 H 0.2053 0.1334 0.2967
H125_18 H 0.1334 0.2033 0.2947
H128_14 H 0.2967 0.2947 0.6334
H131_14 H 0.2947 0.3666 0.7033
H134_14 H 0.3666 0.2967 0.7053
H135_18 H 0.2362 0.1401 0.3057
H136_18 H 0.1401 0.1943 0.2638
H139_14 H 0.3057 0.2638 0.6401
H142_14 H 0.2638 0.3599 0.6943
H145_14 H 0.3599 0.3057 0.7362
H146_18 H 0.2111 0.1549 0.3209
H147_18 H 0.1549 0.1791 0.2889
H150_14 H 0.3209 0.2889 0.6549
H153_14 H 0.2889 0.3451 0.6791
H156_14 H 0.3451 0.3209 0.7111
C1_19 C 0.67549(18) 0.25742(17) 0.95780(13)
C2_19 C 0.66641(17) 0.27575(13) 0.93584(13)
C3_19 C 0.68235(17) 0.29792(14) 0.92761(13)
H1_19 H 0.6993 0.3017 0.9365
C4_19 C 0.67328(14) 0.31439(13) 0.90638(12)
C5_19 C 0.64942(14) 0.30855(12) 0.89210(13)
C6_19 C 0.63364(15) 0.28682(13) 0.90102(14)
H2_19 H 0.6168 0.2829 0.8920
C7_19 C 0.64160(15) 0.27093(14) 0.92240(13)
H3_19 H 0.6301 0.2563 0.9283
C8_19 C 0.68726(14) 0.34009(15) 0.89573(15)
C9_19 C 0.66830(14) 0.34801(12) 0.87216(13)
C10_19 C 0.64642(13) 0.32925(13) 0.86976(13)
C11_19 C 0.6864(2) 0.36144(18) 0.91969(17)
H4_19 H 0.6974 0.3542 0.9352
H5_19 H 0.6953 0.3786 0.9134
C12_19 C 0.6573(2) 0.3685(2) 0.9303(2)
H6_19 H 0.6455 0.3735 0.9148
H7_19 H 0.6584 0.3839 0.9432
H8_19 H 0.6496 0.3524 0.9397
C13_19 C 0.71624(17) 0.33337(18) 0.88579(19)
H9_19 H 0.7270 0.3262 0.9015
H10_19 H 0.7251 0.3506 0.8796
C14_19 C 0.71732(19) 0.3122(3) 0.8622(2)
H11_19 H 0.7053 0.2967 0.8666
H12_19 H 0.7362 0.3057 0.8599
H13_19 H 0.7111 0.3209 0.8451
O9_19 O 0.53099(11) 0.30080(15) 0.76115(12)
O22_19 O 0.53477(11) 0.33820(14) 0.73722(13)
C15_19 C 0.74258(17) 0.45780(13) 0.82451(18)
C16_19 C 0.54220(13) 0.32451(18) 0.75742(17)
C26_19 C 0.72425(13) 0.43584(13) 0.83359(17)
C27_19 C 0.56416(13) 0.33359(17) 0.77575(13)
C37_19 C 0.70208(14) 0.42761(13) 0.81765(17)
C38_19 C 0.57239(13) 0.31765(17) 0.79792(14)
H14_19 H 0.6983 0.4365 0.8007
H15_19 H 0.5635 0.3007 0.8017
C48_19 C 0.68561(13) 0.40638(12) 0.82672(14)
C49_19 C 0.59362(12) 0.32672(14) 0.81439(13)
C59_19 C 0.69145(12) 0.39210(13) 0.85058(14)
C60_19 C 0.60790(13) 0.35058(14) 0.80855(12)
C70_19 C 0.71318(13) 0.40102(14) 0.86636(15)
C71_19 C 0.59898(14) 0.36636(15) 0.78682(13)
H25_19 H 0.7171 0.3920 0.8832
H26_19 H 0.6080 0.3832 0.7829
C81_19 C 0.72907(14) 0.42240(13) 0.85840(15)
C82_19 C 0.57760(13) 0.35840(15) 0.77093(14)
H36_19 H 0.7437 0.4283 0.8699
H37_19 H 0.5717 0.3699 0.7563
C92_19 C 0.60427(15) 0.31274(14) 0.84009(15)
C93_19 C 0.65991(15) 0.39573(15) 0.81274(14)
C103_19 C 0.62784(13) 0.33170(14) 0.84801(12)
C104_19 C 0.65199(12) 0.37216(13) 0.83170(14)
C114_19 C 0.67075(13) 0.36976(13) 0.85358(13)
C115_19 C 0.63024(13) 0.35358(13) 0.82925(13)
C125_19 C 0.58031(17) 0.3136(2) 0.86144(18)
C126_19 C 0.63856(18) 0.41969(17) 0.8136(2)
H47_19 H 0.5648 0.3026 0.8542
H48_19 H 0.6458 0.4352 0.8026
H58_19 H 0.5866 0.3047 0.8786
H59_19 H 0.6214 0.4134 0.8047
C136_19 C 0.5697(2) 0.3427(2) 0.8685(2)
C137_19 C 0.6315(2) 0.4303(2) 0.8427(2)
H69_19 H 0.5852 0.3545 0.8735
H70_19 H 0.6265 0.4148 0.8545
H80_19 H 0.5568 0.3416 0.8839
H81_19 H 0.6161 0.4432 0.8416
H91_19 H 0.5603 0.3504 0.8524
H92_19 H 0.6476 0.4397 0.8504
C147_19 C 0.61421(19) 0.28376(17) 0.83337(18)
C148_19 C 0.66663(18) 0.38579(19) 0.78376(17)
H102_19 H 0.5985 0.2730 0.8262
H103_19 H 0.6738 0.4015 0.7730
H113_19 H 0.6204 0.2749 0.8506
H114_19 H 0.6494 0.3796 0.7749
C158_19 C 0.6378(2) 0.28268(19) 0.8122(3)
C159_19 C 0.6878(3) 0.3622(2) 0.78268(19)
H124_19 H 0.6334 0.2947 0.7967
H125_19 H 0.7033 0.3666 0.7947
H135_19 H 0.6401 0.2638 0.8057
H136_19 H 0.6943 0.3599 0.7638
H146_19 H 0.6549 0.2889 0.8209
H147_19 H 0.6791 0.3451 0.7889
O18_13 O 0.46901(11) 0.23885(12) 0.80080(15)
O19_12 O 0.26115(12) 0.19920(15) 0.96901(11)
O33_13 O 0.46523(11) 0.26278(13) 0.83820(14)
O34_12 O 0.23722(13) 0.16180(14) 0.96523(11)
C19_15 C 0.32451(18) 0.04220(13) 0.75742(17)
C24_15 C 0.45780(13) 0.24258(17) 0.82451(18)
C25_15 C 0.25742(17) 0.17549(18) 0.95780(13)
C30_15 C 0.33359(17) 0.06416(13) 0.77575(13)
C35_15 C 0.43584(13) 0.22425(13) 0.83359(17)
C36_15 C 0.27575(13) 0.16641(17) 0.93584(13)
C41_15 C 0.31765(17) 0.07239(13) 0.79792(14)
C46_15 C 0.42761(13) 0.20208(14) 0.81765(17)
C47_15 C 0.29792(14) 0.18235(17) 0.92761(13)
H18_15 H 0.3007 0.0635 0.8017
H23_15 H 0.4365 0.1983 0.8007
H24_15 H 0.3017 0.1993 0.9365
C52_15 C 0.32672(14) 0.09362(12) 0.81439(13)
C57_15 C 0.40638(12) 0.18561(13) 0.82672(14)
C58_15 C 0.31439(13) 0.17328(14) 0.90638(12)
C63_15 C 0.35058(14) 0.10790(13) 0.80855(12)
C66_15 C 0.30855(12) 0.14942(14) 0.89210(13)
C69_15 C 0.39210(13) 0.19145(12) 0.85058(14)
C74_15 C 0.36636(15) 0.09898(14) 0.78682(13)
C77_15 C 0.28682(13) 0.13364(15) 0.90102(14)
C80_15 C 0.40102(14) 0.21318(13) 0.86636(15)
H29_15 H 0.3832 0.1080 0.7829
H32_15 H 0.2829 0.1168 0.8920
H35_15 H 0.3920 0.2171 0.8832
C85_15 C 0.35840(15) 0.07760(13) 0.77093(14)
C88_15 C 0.27093(14) 0.14160(15) 0.92240(13)
C91_15 C 0.42240(13) 0.22907(14) 0.85840(15)
H40_15 H 0.3699 0.0717 0.7563
H43_15 H 0.2563 0.1301 0.9283
H46_15 H 0.4283 0.2437 0.8699
C96_15 C 0.31274(14) 0.10427(15) 0.84009(15)
C99_15 C 0.39573(15) 0.15991(15) 0.81274(14)
C102_15 C 0.34009(15) 0.18726(14) 0.89573(15)
C107_15 C 0.33170(14) 0.12784(13) 0.84801(12)
C110_15 C 0.37216(13) 0.15199(12) 0.83170(14)
C113_15 C 0.34801(12) 0.16830(14) 0.87216(13)
C118_15 C 0.35358(13) 0.13024(13) 0.82925(13)
C121_15 C 0.32925(13) 0.14642(13) 0.86976(13)
C124_15 C 0.36976(13) 0.17075(13) 0.85358(13)
C129_15 C 0.3136(2) 0.08031(17) 0.86144(18)
C132_15 C 0.41969(17) 0.13856(18) 0.8136(2)
C135_15 C 0.36144(18) 0.1864(2) 0.91969(17)
H51_15 H 0.3026 0.0648 0.8542
H54_15 H 0.4352 0.1458 0.8026
H57_15 H 0.3542 0.1974 0.9352
H62_15 H 0.3047 0.0866 0.8786
H65_15 H 0.4134 0.1214 0.8047
H68_15 H 0.3786 0.1953 0.9134
C140_15 C 0.3427(2) 0.0697(2) 0.8685(2)
C143_15 C 0.4303(2) 0.1315(2) 0.8427(2)
C146_15 C 0.3685(2) 0.1573(2) 0.9303(2)
H73_15 H 0.3545 0.0852 0.8735
H76_15 H 0.4148 0.1265 0.8545
H79_15 H 0.3735 0.1455 0.9148
H84_15 H 0.3416 0.0568 0.8839
H87_15 H 0.4432 0.1161 0.8416
H90_15 H 0.3839 0.1584 0.9432
H95_15 H 0.3504 0.0603 0.8524
H98_15 H 0.4397 0.1476 0.8504
H101_15 H 0.3524 0.1496 0.9397
C151_15 C 0.28376(17) 0.11421(19) 0.83337(18)
C154_15 C 0.38579(19) 0.16663(18) 0.78376(17)
C157_15 C 0.33337(18) 0.21624(17) 0.88579(19)
H106_15 H 0.2730 0.0985 0.8262
H109_15 H 0.4015 0.1738 0.7730
H112_15 H 0.3262 0.2270 0.9015
H117_15 H 0.2749 0.1204 0.8506
H120_15 H 0.3796 0.1494 0.7749
H123_15 H 0.3506 0.2251 0.8796
C162_15 C 0.28268(19) 0.1378(2) 0.8122(3)
C165_15 C 0.3622(2) 0.1878(3) 0.78268(19)
C168_15 C 0.3122(3) 0.21732(19) 0.8622(2)
H128_15 H 0.2947 0.1334 0.7967
H131_15 H 0.3666 0.2033 0.7947
H134_15 H 0.2967 0.2053 0.8666
H139_15 H 0.2638 0.1401 0.8057
H142_15 H 0.3599 0.1943 0.7638
H145_15 H 0.3057 0.2362 0.8599
H150_15 H 0.2889 0.1549 0.8209
H153_15 H 0.3451 0.1791 0.7889
H156_15 H 0.3209 0.2111 0.8451
O4_29 O 0.2500 -0.0000 0.2500
O5_19 O 0.23885(12) 0.03099(11) 0.19920(15)
O13_11 O 0.30080(15) 0.03099(11) 0.23885(12)
O24_11 O 0.33820(14) 0.03477(11) 0.26278(13)
O27_19 O 0.26278(13) 0.03477(11) 0.16180(14)
O4_30 O 0.2500 1.0000 0.2500
O12_16 O 0.26115(12) 0.96901(11) 0.30080(15)
O26_16 O 0.23722(13) 0.96523(11) 0.33820(14)
O17_5 O 0.53099(11) 0.80080(15) 0.26115(12)
O32_5 O 0.53477(11) 0.83820(14) 0.23722(13)
C18_7 C 0.74258(17) 0.95780(13) 0.32451(18)
C22_7 C 0.67549(18) 0.75742(17) 0.45780(13)
C23_7 C 0.54220(13) 0.82451(18) 0.25742(17)
C29_7 C 0.72425(13) 0.93584(13) 0.33359(17)
C33_7 C 0.66641(17) 0.77575(13) 0.43584(13)
C34_7 C 0.56416(13) 0.83359(17) 0.27575(13)
C40_7 C 0.70208(14) 0.92761(13) 0.31765(17)
C44_7 C 0.68235(17) 0.79792(14) 0.42761(13)
C45_7 C 0.57239(13) 0.81765(17) 0.29792(14)
H17_7 H 0.6983 0.9365 0.3007
H21_7 H 0.6993 0.8017 0.4365
H22_7 H 0.5635 0.8007 0.3017
C51_7 C 0.68561(13) 0.90638(12) 0.32672(14)
C55_7 C 0.67328(14) 0.81439(13) 0.40638(12)
C56_7 C 0.59362(12) 0.82672(14) 0.31439(13)
C62_7 C 0.69145(12) 0.89210(13) 0.35058(14)
C65_7 C 0.60790(13) 0.85058(14) 0.30855(12)
C68_7 C 0.64942(14) 0.80855(12) 0.39210(13)
C73_7 C 0.71318(13) 0.90102(14) 0.36636(15)
C76_7 C 0.59898(14) 0.86636(15) 0.28682(13)
C79_7 C 0.63364(15) 0.78682(13) 0.40102(14)
H28_7 H 0.7171 0.8920 0.3832
H31_7 H 0.6080 0.8832 0.2829
H34_7 H 0.6168 0.7829 0.3920
C84_7 C 0.72907(14) 0.92240(13) 0.35840(15)
C87_7 C 0.57760(13) 0.85840(15) 0.27093(14)
C90_7 C 0.64160(15) 0.77093(14) 0.42240(13)
H39_7 H 0.7437 0.9283 0.3699
H42_7 H 0.5717 0.8699 0.2563
H45_7 H 0.6301 0.7563 0.4283
C95_7 C 0.65991(15) 0.89573(15) 0.31274(14)
C98_7 C 0.68726(14) 0.84009(15) 0.39573(15)
C101_7 C 0.60427(15) 0.81274(14) 0.34009(15)
C106_7 C 0.65199(12) 0.87216(13) 0.33170(14)
C109_7 C 0.66830(14) 0.84801(12) 0.37216(13)
C112_7 C 0.62784(13) 0.83170(14) 0.34801(12)
C117_7 C 0.67075(13) 0.86976(13) 0.35358(13)
C120_7 C 0.63024(13) 0.85358(13) 0.32925(13)
C123_7 C 0.64642(13) 0.82925(13) 0.36976(13)
C128_7 C 0.63856(18) 0.91969(17) 0.3136(2)
C131_7 C 0.6864(2) 0.86144(18) 0.41969(17)
C134_7 C 0.58031(17) 0.8136(2) 0.36144(18)
H50_7 H 0.6458 0.9352 0.3026
H53_7 H 0.6974 0.8542 0.4352
H56_7 H 0.5648 0.8026 0.3542
H61_7 H 0.6214 0.9134 0.3047
H64_7 H 0.6953 0.8786 0.4134
H67_7 H 0.5866 0.8047 0.3786
C139_7 C 0.6315(2) 0.9303(2) 0.3427(2)
C142_7 C 0.6573(2) 0.8685(2) 0.4303(2)
C145_7 C 0.5697(2) 0.8427(2) 0.3685(2)
H72_7 H 0.6265 0.9148 0.3545
H75_7 H 0.6455 0.8735 0.4148
H78_7 H 0.5852 0.8545 0.3735
H83_7 H 0.6161 0.9432 0.3416
H86_7 H 0.6584 0.8839 0.4432
H89_7 H 0.5568 0.8416 0.3839
H94_7 H 0.6476 0.9397 0.3504
H97_7 H 0.6496 0.8524 0.4397
H100_7 H 0.5603 0.8504 0.3524
C150_7 C 0.66663(18) 0.88579(19) 0.28376(17)
C153_7 C 0.71624(17) 0.83337(18) 0.38579(19)
C156_7 C 0.61421(19) 0.78376(17) 0.33337(18)
H105_7 H 0.6738 0.9015 0.2730
H108_7 H 0.7270 0.8262 0.4015
H111_7 H 0.5985 0.7730 0.3262
H116_7 H 0.6494 0.8796 0.2749
H119_7 H 0.7251 0.8506 0.3796
H122_7 H 0.6204 0.7749 0.3506
C161_7 C 0.6878(3) 0.8622(2) 0.28268(19)
C164_7 C 0.71732(19) 0.8122(3) 0.3622(2)
C167_7 C 0.6378(2) 0.78268(19) 0.3122(3)
H127_7 H 0.7033 0.8666 0.2947
H130_7 H 0.7053 0.7967 0.3666
H133_7 H 0.6334 0.7947 0.2967
H138_7 H 0.6943 0.8599 0.2638
H141_7 H 0.7362 0.8057 0.3599
H144_7 H 0.6401 0.7638 0.3057
H149_7 H 0.6791 0.8451 0.2889
H152_7 H 0.7111 0.8209 0.3451
H155_7 H 0.6549 0.7889 0.3209
O4_31 O 0.5000 0.7500 0.2500
O5_20 O 0.53099(11) 0.69920(15) 0.23885(12)
O11_12 O 0.46901(11) 0.73885(12) 0.30080(15)
O12_17 O 0.46901(11) 0.80080(15) 0.26115(12)
O18_14 O 0.26115(12) 0.69920(15) 0.46901(11)
O23_12 O 0.46523(11) 0.76278(13) 0.33820(14)
O26_17 O 0.46523(11) 0.83820(14) 0.23722(13)
O27_20 O 0.53477(11) 0.66180(14) 0.26278(13)
O33_14 O 0.23722(13) 0.66180(14) 0.46523(11)
C19_16 C 0.45780(13) 0.74258(17) 0.32451(18)
C24_16 C 0.25742(17) 0.67549(18) 0.45780(13)
C25_16 C 0.32451(18) 0.54220(13) 0.25742(17)
C30_16 C 0.43584(13) 0.72425(13) 0.33359(17)
C35_16 C 0.27575(13) 0.66641(17) 0.43584(13)
C36_16 C 0.33359(17) 0.56416(13) 0.27575(13)
C41_16 C 0.42761(13) 0.70208(14) 0.31765(17)
C46_16 C 0.29792(14) 0.68235(17) 0.42761(13)
C47_16 C 0.31765(17) 0.57239(13) 0.29792(14)
H18_16 H 0.4365 0.6983 0.3007
H23_16 H 0.3017 0.6993 0.4365
H24_16 H 0.3007 0.5635 0.3017
C52_16 C 0.40638(12) 0.68561(13) 0.32672(14)
C57_16 C 0.31439(13) 0.67328(14) 0.40638(12)
C58_16 C 0.32672(14) 0.59362(12) 0.31439(13)
C63_16 C 0.39210(13) 0.69145(12) 0.35058(14)
C66_16 C 0.35058(14) 0.60790(13) 0.30855(12)
C69_16 C 0.30855(12) 0.64942(14) 0.39210(13)
C74_16 C 0.40102(14) 0.71318(13) 0.36636(15)
C77_16 C 0.36636(15) 0.59898(14) 0.28682(13)
C80_16 C 0.28682(13) 0.63364(15) 0.40102(14)
H29_16 H 0.3920 0.7171 0.3832
H32_16 H 0.3832 0.6080 0.2829
H35_16 H 0.2829 0.6168 0.3920
C85_16 C 0.42240(13) 0.72907(14) 0.35840(15)
C88_16 C 0.35840(15) 0.57760(13) 0.27093(14)
C91_16 C 0.27093(14) 0.64160(15) 0.42240(13)
H40_16 H 0.4283 0.7437 0.3699
H43_16 H 0.3699 0.5717 0.2563
H46_16 H 0.2563 0.6301 0.4283
C96_16 C 0.39573(15) 0.65991(15) 0.31274(14)
C99_16 C 0.34009(15) 0.68726(14) 0.39573(15)
C102_16 C 0.31274(14) 0.60427(15) 0.34009(15)
C107_16 C 0.37216(13) 0.65199(12) 0.33170(14)
C110_16 C 0.34801(12) 0.66830(14) 0.37216(13)
C113_16 C 0.33170(14) 0.62784(13) 0.34801(12)
C118_16 C 0.36976(13) 0.67075(13) 0.35358(13)
C121_16 C 0.35358(13) 0.63024(13) 0.32925(13)
C124_16 C 0.32925(13) 0.64642(13) 0.36976(13)
C129_16 C 0.41969(17) 0.63856(18) 0.3136(2)
C132_16 C 0.36144(18) 0.6864(2) 0.41969(17)
C135_16 C 0.3136(2) 0.58031(17) 0.36144(18)
H51_16 H 0.4352 0.6458 0.3026
H54_16 H 0.3542 0.6974 0.4352
H57_16 H 0.3026 0.5648 0.3542
H62_16 H 0.4134 0.6214 0.3047
H65_16 H 0.3786 0.6953 0.4134
H68_16 H 0.3047 0.5866 0.3786
C140_16 C 0.4303(2) 0.6315(2) 0.3427(2)
C143_16 C 0.3685(2) 0.6573(2) 0.4303(2)
C146_16 C 0.3427(2) 0.5697(2) 0.3685(2)
H73_16 H 0.4148 0.6265 0.3545
H76_16 H 0.3735 0.6455 0.4148
H79_16 H 0.3545 0.5852 0.3735
H84_16 H 0.4432 0.6161 0.3416
H87_16 H 0.3839 0.6584 0.4432
H90_16 H 0.3416 0.5568 0.3839
H95_16 H 0.4397 0.6476 0.3504
H98_16 H 0.3524 0.6496 0.4397
H101_16 H 0.3504 0.5603 0.3524
C151_16 C 0.38579(19) 0.66663(18) 0.28376(17)
C154_16 C 0.33337(18) 0.71624(17) 0.38579(19)
C157_16 C 0.28376(17) 0.61421(19) 0.33337(18)
H106_16 H 0.4015 0.6738 0.2730
H109_16 H 0.3262 0.7270 0.4015
H112_16 H 0.2730 0.5985 0.3262
H117_16 H 0.3796 0.6494 0.2749
H120_16 H 0.3506 0.7251 0.3796
H123_16 H 0.2749 0.6204 0.3506
C162_16 C 0.3622(2) 0.6878(3) 0.28268(19)
C165_16 C 0.3122(3) 0.71732(19) 0.3622(2)
C168_16 C 0.28268(19) 0.6378(2) 0.3122(3)
H128_16 H 0.3666 0.7033 0.2947
H131_16 H 0.2967 0.7053 0.3666
H134_16 H 0.2947 0.6334 0.2967
H139_16 H 0.3599 0.6943 0.2638
H142_16 H 0.3057 0.7362 0.3599
H145_16 H 0.2638 0.6401 0.3057
H150_16 H 0.3451 0.6791 0.2889
H153_16 H 0.3209 0.7111 0.3451
H156_16 H 0.2889 0.6549 0.3209
C1_20 C 0.45780(13) 0.24258(17) 0.17549(18)
C2_20 C 0.43584(13) 0.22425(13) 0.16641(17)
C3_20 C 0.42761(13) 0.20208(14) 0.18235(17)
H1_20 H 0.4365 0.1983 0.1993
C4_20 C 0.40638(12) 0.18561(13) 0.17328(14)
C5_20 C 0.39210(13) 0.19145(12) 0.14942(14)
C6_20 C 0.40102(14) 0.21318(13) 0.13364(15)
H2_20 H 0.3920 0.2171 0.1168
C7_20 C 0.42240(13) 0.22907(14) 0.14160(15)
H3_20 H 0.4283 0.2437 0.1301
C8_20 C 0.39573(15) 0.15991(15) 0.18726(14)
C9_20 C 0.37216(13) 0.15199(12) 0.16830(14)
C10_20 C 0.36976(13) 0.17075(13) 0.14642(13)
C11_20 C 0.41969(17) 0.13856(18) 0.1864(2)
H4_20 H 0.4352 0.1458 0.1974
H5_20 H 0.4134 0.1214 0.1953
C12_20 C 0.4303(2) 0.1315(2) 0.1573(2)
H6_20 H 0.4148 0.1265 0.1455
H7_20 H 0.4432 0.1161 0.1584
H8_20 H 0.4397 0.1476 0.1496
C13_20 C 0.38579(19) 0.16663(18) 0.21624(17)
H9_20 H 0.4015 0.1738 0.2270
H10_20 H 0.3796 0.1494 0.2251
C14_20 C 0.3622(2) 0.1878(3) 0.21732(19)
H11_20 H 0.3666 0.2033 0.2053
H12_20 H 0.3599 0.1943 0.2362
H13_20 H 0.3451 0.1791 0.2111
O9_20 O 0.26115(12) 0.19920(15) 0.03099(11)
O22_20 O 0.23722(13) 0.16180(14) 0.03477(11)
C15_20 C 0.32451(18) 0.04220(13) 0.24258(17)
C16_20 C 0.25742(17) 0.17549(18) 0.04220(13)
C26_20 C 0.33359(17) 0.06416(13) 0.22425(13)
C27_20 C 0.27575(13) 0.16641(17) 0.06416(13)
C37_20 C 0.31765(17) 0.07239(13) 0.20208(14)
C38_20 C 0.29792(14) 0.18235(17) 0.07239(13)
H14_20 H 0.3007 0.0635 0.1983
H15_20 H 0.3017 0.1993 0.0635
C48_20 C 0.32672(14) 0.09362(12) 0.18561(13)
C49_20 C 0.31439(13) 0.17328(14) 0.09362(12)
C59_20 C 0.35058(14) 0.10790(13) 0.19145(12)
C60_20 C 0.30855(12) 0.14942(14) 0.10790(13)
C70_20 C 0.36636(15) 0.09898(14) 0.21318(13)
C71_20 C 0.28682(13) 0.13364(15) 0.09898(14)
H25_20 H 0.3832 0.1080 0.2171
H26_20 H 0.2829 0.1168 0.1080
C81_20 C 0.35840(15) 0.07760(13) 0.22907(14)
C82_20 C 0.27093(14) 0.14160(15) 0.07760(13)
H36_20 H 0.3699 0.0717 0.2437
H37_20 H 0.2563 0.1301 0.0717
C92_20 C 0.34009(15) 0.18726(14) 0.10427(15)
C93_20 C 0.31274(14) 0.10427(15) 0.15991(15)
C103_20 C 0.34801(12) 0.16830(14) 0.12784(13)
C104_20 C 0.33170(14) 0.12784(13) 0.15199(12)
C114_20 C 0.35358(13) 0.13024(13) 0.17075(13)
C115_20 C 0.32925(13) 0.14642(13) 0.13024(13)
C125_20 C 0.36144(18) 0.1864(2) 0.08031(17)
C126_20 C 0.3136(2) 0.08031(17) 0.13856(18)
H47_20 H 0.3542 0.1974 0.0648
H48_20 H 0.3026 0.0648 0.1458
H58_20 H 0.3786 0.1953 0.0866
H59_20 H 0.3047 0.0866 0.1214
C136_20 C 0.3685(2) 0.1573(2) 0.0697(2)
C137_20 C 0.3427(2) 0.0697(2) 0.1315(2)
H69_20 H 0.3735 0.1455 0.0852
H70_20 H 0.3545 0.0852 0.1265
H80_20 H 0.3839 0.1584 0.0568
H81_20 H 0.3416 0.0568 0.1161
H91_20 H 0.3524 0.1496 0.0603
H92_20 H 0.3504 0.0603 0.1476
C147_20 C 0.33337(18) 0.21624(17) 0.11421(19)
C148_20 C 0.28376(17) 0.11421(19) 0.16663(18)
H102_20 H 0.3262 0.2270 0.0985
H103_20 H 0.2730 0.0985 0.1738
H113_20 H 0.3506 0.2251 0.1204
H114_20 H 0.2749 0.1204 0.1494
C158_20 C 0.3122(3) 0.21732(19) 0.1378(2)
C159_20 C 0.28268(19) 0.1378(2) 0.1878(3)
H124_20 H 0.2967 0.2053 0.1334
H125_20 H 0.2947 0.1334 0.2033
H135_20 H 0.3057 0.2362 0.1401
H136_20 H 0.2638 0.1401 0.1943
H146_20 H 0.3209 0.2111 0.1549
H147_20 H 0.2889 0.1549 0.1791
O2_17 O 0.26115(12) 0.69920(15) 0.53099(11)
O3_17 O 0.23722(13) 0.66180(14) 0.53477(11)
O4_32 O 0.2500 0.7500 0.5000
C1_21 C 0.25742(17) 0.67549(18) 0.54220(13)
C2_21 C 0.27575(13) 0.66641(17) 0.56416(13)
C3_21 C 0.29792(14) 0.68235(17) 0.57239(13)
H1_21 H 0.3017 0.6993 0.5635
C4_21 C 0.31439(13) 0.67328(14) 0.59362(12)
C5_21 C 0.30855(12) 0.64942(14) 0.60790(13)
C6_21 C 0.28682(13) 0.63364(15) 0.59898(14)
H2_21 H 0.2829 0.6168 0.6080
C7_21 C 0.27093(14) 0.64160(15) 0.57760(13)
H3_21 H 0.2563 0.6301 0.5717
C8_21 C 0.34009(15) 0.68726(14) 0.60427(15)
C9_21 C 0.34801(12) 0.66830(14) 0.62784(13)
C10_21 C 0.32925(13) 0.64642(13) 0.63024(13)
C11_21 C 0.36144(18) 0.6864(2) 0.58031(17)
H4_21 H 0.3542 0.6974 0.5648
H5_21 H 0.3786 0.6953 0.5866
C12_21 C 0.3685(2) 0.6573(2) 0.5697(2)
H6_21 H 0.3735 0.6455 0.5852
H7_21 H 0.3839 0.6584 0.5568
H8_21 H 0.3524 0.6496 0.5603
C13_21 C 0.33337(18) 0.71624(17) 0.61421(19)
H9_21 H 0.3262 0.7270 0.5985
H10_21 H 0.3506 0.7251 0.6204
C14_21 C 0.3122(3) 0.71732(19) 0.6378(2)
H11_21 H 0.2967 0.7053 0.6334
H12_21 H 0.3057 0.7362 0.6401
H13_21 H 0.3209 0.7111 0.6549
O5_21 O 0.19920(15) 0.73885(12) 0.53099(11)
O9_21 O 0.30080(15) 0.53099(11) 0.73885(12)
O12_18 O 0.30080(15) 0.76115(12) 0.46901(11)
O22_21 O 0.33820(14) 0.53477(11) 0.76278(13)
O26_18 O 0.33820(14) 0.73722(13) 0.46523(11)
O27_21 O 0.16180(14) 0.76278(13) 0.53477(11)
C15_21 C 0.45780(13) 0.74258(17) 0.67549(18)
C16_21 C 0.32451(18) 0.54220(13) 0.74258(17)
C26_21 C 0.43584(13) 0.72425(13) 0.66641(17)
C27_21 C 0.33359(17) 0.56416(13) 0.72425(13)
C37_21 C 0.42761(13) 0.70208(14) 0.68235(17)
C38_21 C 0.31765(17) 0.57239(13) 0.70208(14)
H14_21 H 0.4365 0.6983 0.6993
H15_21 H 0.3007 0.5635 0.6983
C48_21 C 0.40638(12) 0.68561(13) 0.67328(14)
C49_21 C 0.32672(14) 0.59362(12) 0.68561(13)
C59_21 C 0.39210(13) 0.69145(12) 0.64942(14)
C60_21 C 0.35058(14) 0.60790(13) 0.69145(12)
C70_21 C 0.40102(14) 0.71318(13) 0.63364(15)
C71_21 C 0.36636(15) 0.59898(14) 0.71318(13)
H25_21 H 0.3920 0.7171 0.6168
H26_21 H 0.3832 0.6080 0.7171
C81_21 C 0.42240(13) 0.72907(14) 0.64160(15)
C82_21 C 0.35840(15) 0.57760(13) 0.72907(14)
H36_21 H 0.4283 0.7437 0.6301
H37_21 H 0.3699 0.5717 0.7437
C92_21 C 0.31274(14) 0.60427(15) 0.65991(15)
C93_21 C 0.39573(15) 0.65991(15) 0.68726(14)
C103_21 C 0.33170(14) 0.62784(13) 0.65199(12)
C104_21 C 0.37216(13) 0.65199(12) 0.66830(14)
C114_21 C 0.36976(13) 0.67075(13) 0.64642(13)
C115_21 C 0.35358(13) 0.63024(13) 0.67075(13)
C125_21 C 0.3136(2) 0.58031(17) 0.63856(18)
C126_21 C 0.41969(17) 0.63856(18) 0.6864(2)
H47_21 H 0.3026 0.5648 0.6458
H48_21 H 0.4352 0.6458 0.6974
H58_21 H 0.3047 0.5866 0.6214
H59_21 H 0.4134 0.6214 0.6953
C136_21 C 0.3427(2) 0.5697(2) 0.6315(2)
C137_21 C 0.4303(2) 0.6315(2) 0.6573(2)
H69_21 H 0.3545 0.5852 0.6265
H70_21 H 0.4148 0.6265 0.6455
H80_21 H 0.3416 0.5568 0.6161
H81_21 H 0.4432 0.6161 0.6584
H91_21 H 0.3504 0.5603 0.6476
H92_21 H 0.4397 0.6476 0.6496
C147_21 C 0.28376(17) 0.61421(19) 0.66663(18)
C148_21 C 0.38579(19) 0.66663(18) 0.71624(17)
H102_21 H 0.2730 0.5985 0.6738
H103_21 H 0.4015 0.6738 0.7270
H113_21 H 0.2749 0.6204 0.6494
H114_21 H 0.3796 0.6494 0.7251
C158_21 C 0.28268(19) 0.6378(2) 0.6878(3)
C159_21 C 0.3622(2) 0.6878(3) 0.71732(19)
H124_21 H 0.2947 0.6334 0.7033
H125_21 H 0.3666 0.7033 0.7053
H135_21 H 0.2638 0.6401 0.6943
H136_21 H 0.3599 0.6943 0.7362
H146_21 H 0.2889 0.6549 0.6791
H147_21 H 0.3451 0.6791 0.7111
O4_33 O 0.2500 0.5000 0.7500
O5_22 O 0.23885(12) 0.53099(11) 0.69920(15)
O12_19 O 0.26115(12) 0.46901(11) 0.80080(15)
O26_19 O 0.23722(13) 0.46523(11) 0.83820(14)
O27_22 O 0.26278(13) 0.53477(11) 0.66180(14)
O4_34 O 0.5000 0.2500 0.7500
O5_23 O 0.53099(11) 0.19920(15) 0.73885(12)
O12_20 O 0.46901(11) 0.30080(15) 0.76115(12)
O26_20 O 0.46523(11) 0.33820(14) 0.73722(13)
O27_23 O 0.53477(11) 0.16180(14) 0.76278(13)
O4_35 O 0.2500 0.2500 0.0000
O5_24 O 0.19920(15) 0.23885(12) 0.03099(11)
O27_24 O 0.16180(14) 0.26278(13) 0.03477(11)
O4_36 O 0.2500 0.2500 1.0000
O12_21 O 0.30080(15) 0.26115(12) 0.96901(11)
O26_21 O 0.33820(14) 0.23722(13) 0.96523(11)
C1_22 C 0.54220(13) 0.17549(18) 0.74258(17)
C2_22 C 0.56416(13) 0.16641(17) 0.72425(13)
C3_22 C 0.57239(13) 0.18235(17) 0.70208(14)
H1_22 H 0.5635 0.1993 0.6983
C4_22 C 0.59362(12) 0.17328(14) 0.68561(13)
C5_22 C 0.60790(13) 0.14942(14) 0.69145(12)
C6_22 C 0.59898(14) 0.13364(15) 0.71318(13)
H2_22 H 0.6080 0.1168 0.7171
C7_22 C 0.57760(13) 0.14160(15) 0.72907(14)
H3_22 H 0.5717 0.1301 0.7437
C8_22 C 0.60427(15) 0.18726(14) 0.65991(15)
C9_22 C 0.62784(13) 0.16830(14) 0.65199(12)
C10_22 C 0.63024(13) 0.14642(13) 0.67075(13)
C11_22 C 0.58031(17) 0.1864(2) 0.63856(18)
H4_22 H 0.5648 0.1974 0.6458
H5_22 H 0.5866 0.1953 0.6214
C12_22 C 0.5697(2) 0.1573(2) 0.6315(2)
H6_22 H 0.5852 0.1455 0.6265
H7_22 H 0.5568 0.1584 0.6161
H8_22 H 0.5603 0.1496 0.6476
C13_22 C 0.61421(19) 0.21624(17) 0.66663(18)
H9_22 H 0.5985 0.2270 0.6738
H10_22 H 0.6204 0.2251 0.6494
C14_22 C 0.6378(2) 0.21732(19) 0.6878(3)
H11_22 H 0.6334 0.2053 0.7033
H12_22 H 0.6401 0.2362 0.6943
H13_22 H 0.6549 0.2111 0.6791
C15_22 C 0.67549(18) 0.24258(17) 0.54220(13)
C16_22 C 0.74258(17) 0.04220(13) 0.67549(18)
C19_17 C 0.45780(13) 0.32451(18) 0.75742(17)
C24_17 C 0.25742(17) 0.45780(13) 0.82451(18)
C25_17 C 0.32451(18) 0.25742(17) 0.95780(13)
C26_22 C 0.66641(17) 0.22425(13) 0.56416(13)
C27_22 C 0.72425(13) 0.06416(13) 0.66641(17)
C30_17 C 0.43584(13) 0.33359(17) 0.77575(13)
C35_17 C 0.27575(13) 0.43584(13) 0.83359(17)
C36_17 C 0.33359(17) 0.27575(13) 0.93584(13)
C37_22 C 0.68235(17) 0.20208(14) 0.57239(13)
C38_22 C 0.70208(14) 0.07239(13) 0.68235(17)
C41_17 C 0.42761(13) 0.31765(17) 0.79792(14)
C46_17 C 0.29792(14) 0.42761(13) 0.81765(17)
C47_17 C 0.31765(17) 0.29792(14) 0.92761(13)
H14_22 H 0.6993 0.1983 0.5635
H15_22 H 0.6983 0.0635 0.6993
H18_17 H 0.4365 0.3007 0.8017
H23_17 H 0.3017 0.4365 0.8007
H24_17 H 0.3007 0.3017 0.9365
C48_22 C 0.67328(14) 0.18561(13) 0.59362(12)
C49_22 C 0.68561(13) 0.09362(12) 0.67328(14)
C52_17 C 0.40638(12) 0.32672(14) 0.81439(13)
C57_17 C 0.31439(13) 0.40638(12) 0.82672(14)
C58_17 C 0.32672(14) 0.31439(13) 0.90638(12)
C59_22 C 0.64942(14) 0.19145(12) 0.60790(13)
C60_22 C 0.69145(12) 0.10790(13) 0.64942(14)
C63_17 C 0.39210(13) 0.35058(14) 0.80855(12)
C66_17 C 0.35058(14) 0.30855(12) 0.89210(13)
C69_17 C 0.30855(12) 0.39210(13) 0.85058(14)
C70_22 C 0.63364(15) 0.21318(13) 0.59898(14)
C71_22 C 0.71318(13) 0.09898(14) 0.63364(15)
C74_17 C 0.40102(14) 0.36636(15) 0.78682(13)
C77_17 C 0.36636(15) 0.28682(13) 0.90102(14)
C80_17 C 0.28682(13) 0.40102(14) 0.86636(15)
H25_22 H 0.6168 0.2171 0.6080
H26_22 H 0.7171 0.1080 0.6168
H29_17 H 0.3920 0.3832 0.7829
H32_17 H 0.3832 0.2829 0.8920
H35_17 H 0.2829 0.3920 0.8832
C81_22 C 0.64160(15) 0.22907(14) 0.57760(13)
C82_22 C 0.72907(14) 0.07760(13) 0.64160(15)
C85_17 C 0.42240(13) 0.35840(15) 0.77093(14)
C88_17 C 0.35840(15) 0.27093(14) 0.92240(13)
C91_17 C 0.27093(14) 0.42240(13) 0.85840(15)
H36_22 H 0.6301 0.2437 0.5717
H37_22 H 0.7437 0.0717 0.6301
H40_17 H 0.4283 0.3699 0.7563
H43_17 H 0.3699 0.2563 0.9283
H46_17 H 0.2563 0.4283 0.8699
C92_22 C 0.65991(15) 0.10427(15) 0.68726(14)
C93_22 C 0.68726(14) 0.15991(15) 0.60427(15)
C96_17 C 0.39573(15) 0.31274(14) 0.84009(15)
C99_17 C 0.34009(15) 0.39573(15) 0.81274(14)
C102_17 C 0.31274(14) 0.34009(15) 0.89573(15)
C103_22 C 0.65199(12) 0.12784(13) 0.66830(14)
C104_22 C 0.66830(14) 0.15199(12) 0.62784(13)
C107_17 C 0.37216(13) 0.33170(14) 0.84801(12)
C110_17 C 0.34801(12) 0.37216(13) 0.83170(14)
C113_17 C 0.33170(14) 0.34801(12) 0.87216(13)
C114_22 C 0.64642(13) 0.17075(13) 0.63024(13)
C115_22 C 0.67075(13) 0.13024(13) 0.64642(13)
C118_17 C 0.36976(13) 0.35358(13) 0.82925(13)
C121_17 C 0.35358(13) 0.32925(13) 0.86976(13)
C124_17 C 0.32925(13) 0.36976(13) 0.85358(13)
C125_22 C 0.63856(18) 0.08031(17) 0.6864(2)
C126_22 C 0.6864(2) 0.13856(18) 0.58031(17)
C129_17 C 0.41969(17) 0.3136(2) 0.86144(18)
C132_17 C 0.36144(18) 0.41969(17) 0.8136(2)
C135_17 C 0.3136(2) 0.36144(18) 0.91969(17)
H47_22 H 0.6458 0.0648 0.6974
H48_22 H 0.6974 0.1458 0.5648
H51_17 H 0.4352 0.3026 0.8542
H54_17 H 0.3542 0.4352 0.8026
H57_17 H 0.3026 0.3542 0.9352
H58_22 H 0.6214 0.0866 0.6953
H59_22 H 0.6953 0.1214 0.5866
H62_17 H 0.4134 0.3047 0.8786
H65_17 H 0.3786 0.4134 0.8047
H68_17 H 0.3047 0.3786 0.9134
C136_22 C 0.6315(2) 0.0697(2) 0.6573(2)
C137_22 C 0.6573(2) 0.1315(2) 0.5697(2)
C140_17 C 0.4303(2) 0.3427(2) 0.8685(2)
C143_17 C 0.3685(2) 0.4303(2) 0.8427(2)
C146_17 C 0.3427(2) 0.3685(2) 0.9303(2)
H69_22 H 0.6265 0.0852 0.6455
H70_22 H 0.6455 0.1265 0.5852
H73_17 H 0.4148 0.3545 0.8735
H76_17 H 0.3735 0.4148 0.8545
H79_17 H 0.3545 0.3735 0.9148
H80_22 H 0.6161 0.0568 0.6584
H81_22 H 0.6584 0.1161 0.5568
H84_17 H 0.4432 0.3416 0.8839
H87_17 H 0.3839 0.4432 0.8416
H90_17 H 0.3416 0.3839 0.9432
H91_22 H 0.6476 0.0603 0.6496
H92_22 H 0.6496 0.1476 0.5603
H95_17 H 0.4397 0.3504 0.8524
H98_17 H 0.3524 0.4397 0.8504
H101_17 H 0.3504 0.3524 0.9397
C147_22 C 0.66663(18) 0.11421(19) 0.71624(17)
C148_22 C 0.71624(17) 0.16663(18) 0.61421(19)
C151_17 C 0.38579(19) 0.28376(17) 0.83337(18)
C154_17 C 0.33337(18) 0.38579(19) 0.78376(17)
C157_17 C 0.28376(17) 0.33337(18) 0.88579(19)
H102_22 H 0.6738 0.0985 0.7270
H103_22 H 0.7270 0.1738 0.5985
H106_17 H 0.4015 0.2730 0.8262
H109_17 H 0.3262 0.4015 0.7730
H112_17 H 0.2730 0.3262 0.9015
H113_22 H 0.6494 0.1204 0.7251
H114_22 H 0.7251 0.1494 0.6204
H117_17 H 0.3796 0.2749 0.8506
H120_17 H 0.3506 0.3796 0.7749
H123_17 H 0.2749 0.3506 0.8796
C158_22 C 0.6878(3) 0.1378(2) 0.71732(19)
C159_22 C 0.71732(19) 0.1878(3) 0.6378(2)
C162_17 C 0.3622(2) 0.28268(19) 0.8122(3)
C165_17 C 0.3122(3) 0.3622(2) 0.78268(19)
C168_17 C 0.28268(19) 0.3122(3) 0.8622(2)
H124_22 H 0.7033 0.1334 0.7053
H125_22 H 0.7053 0.2033 0.6334
H128_17 H 0.3666 0.2947 0.7967
H131_17 H 0.2967 0.3666 0.7947
H134_17 H 0.2947 0.2967 0.8666
H135_22 H 0.6943 0.1401 0.7362
H136_22 H 0.7362 0.1943 0.6401
H139_17 H 0.3599 0.2638 0.8057
H142_17 H 0.3057 0.3599 0.7638
H145_17 H 0.2638 0.3057 0.8599
H146_22 H 0.6791 0.1549 0.7111
H147_22 H 0.7111 0.1791 0.6549
H150_17 H 0.3451 0.2889 0.8209
H153_17 H 0.3209 0.3451 0.7889
H156_17 H 0.2889 0.3209 0.8451
C1_23 C 0.74258(17) 0.54220(13) 0.17549(18)
C2_23 C 0.72425(13) 0.56416(13) 0.16641(17)
C3_23 C 0.70208(14) 0.57239(13) 0.18235(17)
H1_23 H 0.6983 0.5635 0.1993
C4_23 C 0.68561(13) 0.59362(12) 0.17328(14)
C5_23 C 0.69145(12) 0.60790(13) 0.14942(14)
C6_23 C 0.71318(13) 0.59898(14) 0.13364(15)
H2_23 H 0.7171 0.6080 0.1168
C7_23 C 0.72907(14) 0.57760(13) 0.14160(15)
H3_23 H 0.7437 0.5717 0.1301
C8_23 C 0.65991(15) 0.60427(15) 0.18726(14)
C9_23 C 0.65199(12) 0.62784(13) 0.16830(14)
C10_23 C 0.67075(13) 0.63024(13) 0.14642(13)
C11_23 C 0.63856(18) 0.58031(17) 0.1864(2)
H4_23 H 0.6458 0.5648 0.1974
H5_23 H 0.6214 0.5866 0.1953
C12_23 C 0.6315(2) 0.5697(2) 0.1573(2)
H6_23 H 0.6265 0.5852 0.1455
H7_23 H 0.6161 0.5568 0.1584
H8_23 H 0.6476 0.5603 0.1496
C13_23 C 0.66663(18) 0.61421(19) 0.21624(17)
H9_23 H 0.6738 0.5985 0.2270
H10_23 H 0.6494 0.6204 0.2251
C14_23 C 0.6878(3) 0.6378(2) 0.21732(19)
H11_23 H 0.7033 0.6334 0.2053
H12_23 H 0.6943 0.6401 0.2362
H13_23 H 0.6791 0.6549 0.2111
C15_23 C 0.54220(13) 0.67549(18) 0.24258(17)
C16_23 C 0.67549(18) 0.74258(17) 0.04220(13)
C19_18 C 0.75742(17) 0.45780(13) 0.32451(18)
C24_18 C 0.82451(18) 0.25742(17) 0.45780(13)
C25_18 C 0.95780(13) 0.32451(18) 0.25742(17)
C26_23 C 0.56416(13) 0.66641(17) 0.22425(13)
C27_23 C 0.66641(17) 0.72425(13) 0.06416(13)
C30_18 C 0.77575(13) 0.43584(13) 0.33359(17)
C35_18 C 0.83359(17) 0.27575(13) 0.43584(13)
C36_18 C 0.93584(13) 0.33359(17) 0.27575(13)
C37_23 C 0.57239(13) 0.68235(17) 0.20208(14)
C38_23 C 0.68235(17) 0.70208(14) 0.07239(13)
C41_18 C 0.79792(14) 0.42761(13) 0.31765(17)
C46_18 C 0.81765(17) 0.29792(14) 0.42761(13)
C47_18 C 0.92761(13) 0.31765(17) 0.29792(14)
H14_23 H 0.5635 0.6993 0.1983
H15_23 H 0.6993 0.6983 0.0635
H18_18 H 0.8017 0.4365 0.3007
H23_18 H 0.8007 0.3017 0.4365
H24_18 H 0.9365 0.3007 0.3017
C48_23 C 0.59362(12) 0.67328(14) 0.18561(13)
C49_23 C 0.67328(14) 0.68561(13) 0.09362(12)
C52_18 C 0.81439(13) 0.40638(12) 0.32672(14)
C57_18 C 0.82672(14) 0.31439(13) 0.40638(12)
C58_18 C 0.90638(12) 0.32672(14) 0.31439(13)
C59_23 C 0.60790(13) 0.64942(14) 0.19145(12)
C60_23 C 0.64942(14) 0.69145(12) 0.10790(13)
C63_18 C 0.80855(12) 0.39210(13) 0.35058(14)
C66_18 C 0.89210(13) 0.35058(14) 0.30855(12)
C69_18 C 0.85058(14) 0.30855(12) 0.39210(13)
C70_23 C 0.59898(14) 0.63364(15) 0.21318(13)
C71_23 C 0.63364(15) 0.71318(13) 0.09898(14)
C74_18 C 0.78682(13) 0.40102(14) 0.36636(15)
C77_18 C 0.90102(14) 0.36636(15) 0.28682(13)
C80_18 C 0.86636(15) 0.28682(13) 0.40102(14)
H25_23 H 0.6080 0.6168 0.2171
H26_23 H 0.6168 0.7171 0.1080
H29_18 H 0.7829 0.3920 0.3832
H32_18 H 0.8920 0.3832 0.2829
H35_18 H 0.8832 0.2829 0.3920
C81_23 C 0.57760(13) 0.64160(15) 0.22907(14)
C82_23 C 0.64160(15) 0.72907(14) 0.07760(13)
C85_18 C 0.77093(14) 0.42240(13) 0.35840(15)
C88_18 C 0.92240(13) 0.35840(15) 0.27093(14)
C91_18 C 0.85840(15) 0.27093(14) 0.42240(13)
H36_23 H 0.5717 0.6301 0.2437
H37_23 H 0.6301 0.7437 0.0717
H40_18 H 0.7563 0.4283 0.3699
H43_18 H 0.9283 0.3699 0.2563
H46_18 H 0.8699 0.2563 0.4283
C92_23 C 0.68726(14) 0.65991(15) 0.10427(15)
C93_23 C 0.60427(15) 0.68726(14) 0.15991(15)
C96_18 C 0.84009(15) 0.39573(15) 0.31274(14)
C99_18 C 0.81274(14) 0.34009(15) 0.39573(15)
C102_18 C 0.89573(15) 0.31274(14) 0.34009(15)
C103_23 C 0.66830(14) 0.65199(12) 0.12784(13)
C104_23 C 0.62784(13) 0.66830(14) 0.15199(12)
C107_18 C 0.84801(12) 0.37216(13) 0.33170(14)
C110_18 C 0.83170(14) 0.34801(12) 0.37216(13)
C113_18 C 0.87216(13) 0.33170(14) 0.34801(12)
C114_23 C 0.63024(13) 0.64642(13) 0.17075(13)
C115_23 C 0.64642(13) 0.67075(13) 0.13024(13)
C118_18 C 0.82925(13) 0.36976(13) 0.35358(13)
C121_18 C 0.86976(13) 0.35358(13) 0.32925(13)
C124_18 C 0.85358(13) 0.32925(13) 0.36976(13)
C125_23 C 0.6864(2) 0.63856(18) 0.08031(17)
C126_23 C 0.58031(17) 0.6864(2) 0.13856(18)
C129_18 C 0.86144(18) 0.41969(17) 0.3136(2)
C132_18 C 0.8136(2) 0.36144(18) 0.41969(17)
C135_18 C 0.91969(17) 0.3136(2) 0.36144(18)
H47_23 H 0.6974 0.6458 0.0648
H48_23 H 0.5648 0.6974 0.1458
H51_18 H 0.8542 0.4352 0.3026
H54_18 H 0.8026 0.3542 0.4352
H57_18 H 0.9352 0.3026 0.3542
H58_23 H 0.6953 0.6214 0.0866
H59_23 H 0.5866 0.6953 0.1214
H62_18 H 0.8786 0.4134 0.3047
H65_18 H 0.8047 0.3786 0.4134
H68_18 H 0.9134 0.3047 0.3786
C136_23 C 0.6573(2) 0.6315(2) 0.0697(2)
C137_23 C 0.5697(2) 0.6573(2) 0.1315(2)
C140_18 C 0.8685(2) 0.4303(2) 0.3427(2)
C143_18 C 0.8427(2) 0.3685(2) 0.4303(2)
C146_18 C 0.9303(2) 0.3427(2) 0.3685(2)
H69_23 H 0.6455 0.6265 0.0852
H70_23 H 0.5852 0.6455 0.1265
H73_18 H 0.8735 0.4148 0.3545
H76_18 H 0.8545 0.3735 0.4148
H79_18 H 0.9148 0.3545 0.3735
H80_23 H 0.6584 0.6161 0.0568
H81_23 H 0.5568 0.6584 0.1161
H84_18 H 0.8839 0.4432 0.3416
H87_18 H 0.8416 0.3839 0.4432
H90_18 H 0.9432 0.3416 0.3839
H91_23 H 0.6496 0.6476 0.0603
H92_23 H 0.5603 0.6496 0.1476
H95_18 H 0.8524 0.4397 0.3504
H98_18 H 0.8504 0.3524 0.4397
H101_18 H 0.9397 0.3504 0.3524
C147_23 C 0.71624(17) 0.66663(18) 0.11421(19)
C148_23 C 0.61421(19) 0.71624(17) 0.16663(18)
C151_18 C 0.83337(18) 0.38579(19) 0.28376(17)
C154_18 C 0.78376(17) 0.33337(18) 0.38579(19)
C157_18 C 0.88579(19) 0.28376(17) 0.33337(18)
H102_23 H 0.7270 0.6738 0.0985
H103_23 H 0.5985 0.7270 0.1738
H106_18 H 0.8262 0.4015 0.2730
H109_18 H 0.7730 0.3262 0.4015
H112_18 H 0.9015 0.2730 0.3262
H113_23 H 0.7251 0.6494 0.1204
H114_23 H 0.6204 0.7251 0.1494
H117_18 H 0.8506 0.3796 0.2749
H120_18 H 0.7749 0.3506 0.3796
H123_18 H 0.8796 0.2749 0.3506
C158_23 C 0.71732(19) 0.6878(3) 0.1378(2)
C159_23 C 0.6378(2) 0.71732(19) 0.1878(3)
C162_18 C 0.8122(3) 0.3622(2) 0.28268(19)
C165_18 C 0.78268(19) 0.3122(3) 0.3622(2)
C168_18 C 0.8622(2) 0.28268(19) 0.3122(3)
H124_23 H 0.7053 0.7033 0.1334
H125_23 H 0.6334 0.7053 0.2033
H128_18 H 0.7967 0.3666 0.2947
H131_18 H 0.7947 0.2967 0.3666
H134_18 H 0.8666 0.2947 0.2967
H135_23 H 0.7362 0.6943 0.1401
H136_23 H 0.6401 0.7362 0.1943
H139_18 H 0.8057 0.3599 0.2638
H142_18 H 0.7638 0.3057 0.3599
H145_18 H 0.8599 0.2638 0.3057
H146_23 H 0.7111 0.6791 0.1549
H147_23 H 0.6549 0.7111 0.1791
H150_18 H 0.8209 0.3451 0.2889
H153_18 H 0.7889 0.3209 0.3451
H156_18 H 0.8451 0.2889 0.3209
C1_24 C 0.17549(18) 0.74258(17) 0.54220(13)
C2_24 C 0.16641(17) 0.72425(13) 0.56416(13)
C3_24 C 0.18235(17) 0.70208(14) 0.57239(13)
H1_24 H 0.1993 0.6983 0.5635
C4_24 C 0.17328(14) 0.68561(13) 0.59362(12)
C5_24 C 0.14942(14) 0.69145(12) 0.60790(13)
C6_24 C 0.13364(15) 0.71318(13) 0.59898(14)
H2_24 H 0.1168 0.7171 0.6080
C7_24 C 0.14160(15) 0.72907(14) 0.57760(13)
H3_24 H 0.1301 0.7437 0.5717
C8_24 C 0.18726(14) 0.65991(15) 0.60427(15)
C9_24 C 0.16830(14) 0.65199(12) 0.62784(13)
C10_24 C 0.14642(13) 0.67075(13) 0.63024(13)
C11_24 C 0.1864(2) 0.63856(18) 0.58031(17)
H4_24 H 0.1974 0.6458 0.5648
H5_24 H 0.1953 0.6214 0.5866
C12_24 C 0.1573(2) 0.6315(2) 0.5697(2)
H6_24 H 0.1455 0.6265 0.5852
H7_24 H 0.1584 0.6161 0.5568
H8_24 H 0.1496 0.6476 0.5603
C13_24 C 0.21624(17) 0.66663(18) 0.61421(19)
H9_24 H 0.2270 0.6738 0.5985
H10_24 H 0.2251 0.6494 0.6204
C14_24 C 0.21732(19) 0.6878(3) 0.6378(2)
H11_24 H 0.2053 0.7033 0.6334
H12_24 H 0.2362 0.6943 0.6401
H13_24 H 0.2111 0.6791 0.6549
C15_24 C 0.24258(17) 0.54220(13) 0.67549(18)
C16_24 C 0.04220(13) 0.67549(18) 0.74258(17)
C19_19 C 0.32451(18) 0.75742(17) 0.45780(13)
C24_19 C 0.45780(13) 0.82451(18) 0.25742(17)
C25_19 C 0.25742(17) 0.95780(13) 0.32451(18)
C26_24 C 0.22425(13) 0.56416(13) 0.66641(17)
C27_24 C 0.06416(13) 0.66641(17) 0.72425(13)
C30_19 C 0.33359(17) 0.77575(13) 0.43584(13)
C35_19 C 0.43584(13) 0.83359(17) 0.27575(13)
C36_19 C 0.27575(13) 0.93584(13) 0.33359(17)
C37_24 C 0.20208(14) 0.57239(13) 0.68235(17)
C38_24 C 0.07239(13) 0.68235(17) 0.70208(14)
C41_19 C 0.31765(17) 0.79792(14) 0.42761(13)
C46_19 C 0.42761(13) 0.81765(17) 0.29792(14)
C47_19 C 0.29792(14) 0.92761(13) 0.31765(17)
H14_24 H 0.1983 0.5635 0.6993
H15_24 H 0.0635 0.6993 0.6983
H18_19 H 0.3007 0.8017 0.4365
H23_19 H 0.4365 0.8007 0.3017
H24_19 H 0.3017 0.9365 0.3007
C48_24 C 0.18561(13) 0.59362(12) 0.67328(14)
C49_24 C 0.09362(12) 0.67328(14) 0.68561(13)
C52_19 C 0.32672(14) 0.81439(13) 0.40638(12)
C57_19 C 0.40638(12) 0.82672(14) 0.31439(13)
C58_19 C 0.31439(13) 0.90638(12) 0.32672(14)
C59_24 C 0.19145(12) 0.60790(13) 0.64942(14)
C60_24 C 0.10790(13) 0.64942(14) 0.69145(12)
C63_19 C 0.35058(14) 0.80855(12) 0.39210(13)
C66_19 C 0.30855(12) 0.89210(13) 0.35058(14)
C69_19 C 0.39210(13) 0.85058(14) 0.30855(12)
C70_24 C 0.21318(13) 0.59898(14) 0.63364(15)
C71_24 C 0.09898(14) 0.63364(15) 0.71318(13)
C74_19 C 0.36636(15) 0.78682(13) 0.40102(14)
C77_19 C 0.28682(13) 0.90102(14) 0.36636(15)
C80_19 C 0.40102(14) 0.86636(15) 0.28682(13)
H25_24 H 0.2171 0.6080 0.6168
H26_24 H 0.1080 0.6168 0.7171
H29_19 H 0.3832 0.7829 0.3920
H32_19 H 0.2829 0.8920 0.3832
H35_19 H 0.3920 0.8832 0.2829
C81_24 C 0.22907(14) 0.57760(13) 0.64160(15)
C82_24 C 0.07760(13) 0.64160(15) 0.72907(14)
C85_19 C 0.35840(15) 0.77093(14) 0.42240(13)
C88_19 C 0.27093(14) 0.92240(13) 0.35840(15)
C91_19 C 0.42240(13) 0.85840(15) 0.27093(14)
H36_24 H 0.2437 0.5717 0.6301
H37_24 H 0.0717 0.6301 0.7437
H40_19 H 0.3699 0.7563 0.4283
H43_19 H 0.2563 0.9283 0.3699
H46_19 H 0.4283 0.8699 0.2563
C92_24 C 0.10427(15) 0.68726(14) 0.65991(15)
C93_24 C 0.15991(15) 0.60427(15) 0.68726(14)
C96_19 C 0.31274(14) 0.84009(15) 0.39573(15)
C99_19 C 0.39573(15) 0.81274(14) 0.34009(15)
C102_19 C 0.34009(15) 0.89573(15) 0.31274(14)
C103_24 C 0.12784(13) 0.66830(14) 0.65199(12)
C104_24 C 0.15199(12) 0.62784(13) 0.66830(14)
C107_19 C 0.33170(14) 0.84801(12) 0.37216(13)
C110_19 C 0.37216(13) 0.83170(14) 0.34801(12)
C113_19 C 0.34801(12) 0.87216(13) 0.33170(14)
C114_24 C 0.17075(13) 0.63024(13) 0.64642(13)
C115_24 C 0.13024(13) 0.64642(13) 0.67075(13)
C118_19 C 0.35358(13) 0.82925(13) 0.36976(13)
C121_19 C 0.32925(13) 0.86976(13) 0.35358(13)
C124_19 C 0.36976(13) 0.85358(13) 0.32925(13)
C125_24 C 0.08031(17) 0.6864(2) 0.63856(18)
C126_24 C 0.13856(18) 0.58031(17) 0.6864(2)
C129_19 C 0.3136(2) 0.86144(18) 0.41969(17)
C132_19 C 0.41969(17) 0.8136(2) 0.36144(18)
C135_19 C 0.36144(18) 0.91969(17) 0.3136(2)
H47_24 H 0.0648 0.6974 0.6458
H48_24 H 0.1458 0.5648 0.6974
H51_19 H 0.3026 0.8542 0.4352
H54_19 H 0.4352 0.8026 0.3542
H57_19 H 0.3542 0.9352 0.3026
H58_24 H 0.0866 0.6953 0.6214
H59_24 H 0.1214 0.5866 0.6953
H62_19 H 0.3047 0.8786 0.4134
H65_19 H 0.4134 0.8047 0.3786
H68_19 H 0.3786 0.9134 0.3047
C136_24 C 0.0697(2) 0.6573(2) 0.6315(2)
C137_24 C 0.1315(2) 0.5697(2) 0.6573(2)
C140_19 C 0.3427(2) 0.8685(2) 0.4303(2)
C143_19 C 0.4303(2) 0.8427(2) 0.3685(2)
C146_19 C 0.3685(2) 0.9303(2) 0.3427(2)
H69_24 H 0.0852 0.6455 0.6265
H70_24 H 0.1265 0.5852 0.6455
H73_19 H 0.3545 0.8735 0.4148
H76_19 H 0.4148 0.8545 0.3735
H79_19 H 0.3735 0.9148 0.3545
H80_24 H 0.0568 0.6584 0.6161
H81_24 H 0.1161 0.5568 0.6584
H84_19 H 0.3416 0.8839 0.4432
H87_19 H 0.4432 0.8416 0.3839
H90_19 H 0.3839 0.9432 0.3416
H91_24 H 0.0603 0.6496 0.6476
H92_24 H 0.1476 0.5603 0.6496
H95_19 H 0.3504 0.8524 0.4397
H98_19 H 0.4397 0.8504 0.3524
H101_19 H 0.3524 0.9397 0.3504
C147_24 C 0.11421(19) 0.71624(17) 0.66663(18)
C148_24 C 0.16663(18) 0.61421(19) 0.71624(17)
C151_19 C 0.28376(17) 0.83337(18) 0.38579(19)
C154_19 C 0.38579(19) 0.78376(17) 0.33337(18)
C157_19 C 0.33337(18) 0.88579(19) 0.28376(17)
H102_24 H 0.0985 0.7270 0.6738
H103_24 H 0.1738 0.5985 0.7270
H106_19 H 0.2730 0.8262 0.4015
H109_19 H 0.4015 0.7730 0.3262
H112_19 H 0.3262 0.9015 0.2730
H113_24 H 0.1204 0.7251 0.6494
H114_24 H 0.1494 0.6204 0.7251
H117_19 H 0.2749 0.8506 0.3796
H120_19 H 0.3796 0.7749 0.3506
H123_19 H 0.3506 0.8796 0.2749
C158_24 C 0.1378(2) 0.71732(19) 0.6878(3)
C159_24 C 0.1878(3) 0.6378(2) 0.71732(19)
C162_19 C 0.28268(19) 0.8122(3) 0.3622(2)
C165_19 C 0.3622(2) 0.78268(19) 0.3122(3)
C168_19 C 0.3122(3) 0.8622(2) 0.28268(19)
H124_24 H 0.1334 0.7053 0.7033
H125_24 H 0.2033 0.6334 0.7053
H128_19 H 0.2947 0.7967 0.3666
H131_19 H 0.3666 0.7947 0.2967
H134_19 H 0.2967 0.8666 0.2947
H135_24 H 0.1401 0.7362 0.6943
H136_24 H 0.1943 0.6401 0.7362
H139_19 H 0.2638 0.8057 0.3599
H142_19 H 0.3599 0.7638 0.3057
H145_19 H 0.3057 0.8599 0.2638
H146_24 H 0.1549 0.7111 0.6791
H147_24 H 0.1791 0.6549 0.7111
H150_19 H 0.2889 0.8209 0.3451
H153_19 H 0.3451 0.7889 0.3209
H156_19 H 0.3209 0.8451 0.2889
C18_8 C 0.24258(17) 0.04220(13) 0.17549(18)
C22_8 C 0.17549(18) 0.24258(17) 0.04220(13)
C23_8 C 0.04220(13) 0.17549(18) 0.24258(17)
C29_8 C 0.22425(13) 0.06416(13) 0.16641(17)
C33_8 C 0.16641(17) 0.22425(13) 0.06416(13)
C34_8 C 0.06416(13) 0.16641(17) 0.22425(13)
C40_8 C 0.20208(14) 0.07239(13) 0.18235(17)
C44_8 C 0.18235(17) 0.20208(14) 0.07239(13)
C45_8 C 0.07239(13) 0.18235(17) 0.20208(14)
H17_8 H 0.1983 0.0635 0.1993
H21_8 H 0.1993 0.1983 0.0635
H22_8 H 0.0635 0.1993 0.1983
C51_8 C 0.18561(13) 0.09362(12) 0.17328(14)
C55_8 C 0.17328(14) 0.18561(13) 0.09362(12)
C56_8 C 0.09362(12) 0.17328(14) 0.18561(13)
C62_8 C 0.19145(12) 0.10790(13) 0.14942(14)
C65_8 C 0.10790(13) 0.14942(14) 0.19145(12)
C68_8 C 0.14942(14) 0.19145(12) 0.10790(13)
C73_8 C 0.21318(13) 0.09898(14) 0.13364(15)
C76_8 C 0.09898(14) 0.13364(15) 0.21318(13)
C79_8 C 0.13364(15) 0.21318(13) 0.09898(14)
H28_8 H 0.2171 0.1080 0.1168
H31_8 H 0.1080 0.1168 0.2171
H34_8 H 0.1168 0.2171 0.1080
C84_8 C 0.22907(14) 0.07760(13) 0.14160(15)
C87_8 C 0.07760(13) 0.14160(15) 0.22907(14)
C90_8 C 0.14160(15) 0.22907(14) 0.07760(13)
H39_8 H 0.2437 0.0717 0.1301
H42_8 H 0.0717 0.1301 0.2437
H45_8 H 0.1301 0.2437 0.0717
C95_8 C 0.15991(15) 0.10427(15) 0.18726(14)
C98_8 C 0.18726(14) 0.15991(15) 0.10427(15)
C101_8 C 0.10427(15) 0.18726(14) 0.15991(15)
C106_8 C 0.15199(12) 0.12784(13) 0.16830(14)
C109_8 C 0.16830(14) 0.15199(12) 0.12784(13)
C112_8 C 0.12784(13) 0.16830(14) 0.15199(12)
C117_8 C 0.17075(13) 0.13024(13) 0.14642(13)
C120_8 C 0.13024(13) 0.14642(13) 0.17075(13)
C123_8 C 0.14642(13) 0.17075(13) 0.13024(13)
C128_8 C 0.13856(18) 0.08031(17) 0.1864(2)
C131_8 C 0.1864(2) 0.13856(18) 0.08031(17)
C134_8 C 0.08031(17) 0.1864(2) 0.13856(18)
H50_8 H 0.1458 0.0648 0.1974
H53_8 H 0.1974 0.1458 0.0648
H56_8 H 0.0648 0.1974 0.1458
H61_8 H 0.1214 0.0866 0.1953
H64_8 H 0.1953 0.1214 0.0866
H67_8 H 0.0866 0.1953 0.1214
C139_8 C 0.1315(2) 0.0697(2) 0.1573(2)
C142_8 C 0.1573(2) 0.1315(2) 0.0697(2)
C145_8 C 0.0697(2) 0.1573(2) 0.1315(2)
H72_8 H 0.1265 0.0852 0.1455
H75_8 H 0.1455 0.1265 0.0852
H78_8 H 0.0852 0.1455 0.1265
H83_8 H 0.1161 0.0568 0.1584
H86_8 H 0.1584 0.1161 0.0568
H89_8 H 0.0568 0.1584 0.1161
H94_8 H 0.1476 0.0603 0.1496
H97_8 H 0.1496 0.1476 0.0603
H100_8 H 0.0603 0.1496 0.1476
C150_8 C 0.16663(18) 0.11421(19) 0.21624(17)
C153_8 C 0.21624(17) 0.16663(18) 0.11421(19)
C156_8 C 0.11421(19) 0.21624(17) 0.16663(18)
H105_8 H 0.1738 0.0985 0.2270
H108_8 H 0.2270 0.1738 0.0985
H111_8 H 0.0985 0.2270 0.1738
H116_8 H 0.1494 0.1204 0.2251
H119_8 H 0.2251 0.1494 0.1204
H122_8 H 0.1204 0.2251 0.1494
C161_8 C 0.1878(3) 0.1378(2) 0.21732(19)
C164_8 C 0.21732(19) 0.1878(3) 0.1378(2)
C167_8 C 0.1378(2) 0.21732(19) 0.1878(3)
H127_8 H 0.2033 0.1334 0.2053
H130_8 H 0.2053 0.2033 0.1334
H133_8 H 0.1334 0.2053 0.2033
H138_8 H 0.1943 0.1401 0.2362
H141_8 H 0.2362 0.1943 0.1401
H144_8 H 0.1401 0.2362 0.1943
H149_8 H 0.1791 0.1549 0.2111
H152_8 H 0.2111 0.1791 0.1549
H155_8 H 0.1549 0.2111 0.1791
C19_20 C 0.75742(17) 0.95780(13) 0.82451(18)
C24_20 C 0.82451(18) 0.75742(17) 0.95780(13)
C25_20 C 0.95780(13) 0.82451(18) 0.75742(17)
C30_20 C 0.77575(13) 0.93584(13) 0.83359(17)
C35_20 C 0.83359(17) 0.77575(13) 0.93584(13)
C36_20 C 0.93584(13) 0.83359(17) 0.77575(13)
C41_20 C 0.79792(14) 0.92761(13) 0.81765(17)
C46_20 C 0.81765(17) 0.79792(14) 0.92761(13)
C47_20 C 0.92761(13) 0.81765(17) 0.79792(14)
H18_20 H 0.8017 0.9365 0.8007
H23_20 H 0.8007 0.8017 0.9365
H24_20 H 0.9365 0.8007 0.8017
C52_20 C 0.81439(13) 0.90638(12) 0.82672(14)
C57_20 C 0.82672(14) 0.81439(13) 0.90638(12)
C58_20 C 0.90638(12) 0.82672(14) 0.81439(13)
C63_20 C 0.80855(12) 0.89210(13) 0.85058(14)
C66_20 C 0.89210(13) 0.85058(14) 0.80855(12)
C69_20 C 0.85058(14) 0.80855(12) 0.89210(13)
C74_20 C 0.78682(13) 0.90102(14) 0.86636(15)
C77_20 C 0.90102(14) 0.86636(15) 0.78682(13)
C80_20 C 0.86636(15) 0.78682(13) 0.90102(14)
H29_20 H 0.7829 0.8920 0.8832
H32_20 H 0.8920 0.8832 0.7829
H35_20 H 0.8832 0.7829 0.8920
C85_20 C 0.77093(14) 0.92240(13) 0.85840(15)
C88_20 C 0.92240(13) 0.85840(15) 0.77093(14)
C91_20 C 0.85840(15) 0.77093(14) 0.92240(13)
H40_20 H 0.7563 0.9283 0.8699
H43_20 H 0.9283 0.8699 0.7563
H46_20 H 0.8699 0.7563 0.9283
C96_20 C 0.84009(15) 0.89573(15) 0.81274(14)
C99_20 C 0.81274(14) 0.84009(15) 0.89573(15)
C102_20 C 0.89573(15) 0.81274(14) 0.84009(15)
C107_20 C 0.84801(12) 0.87216(13) 0.83170(14)
C110_20 C 0.83170(14) 0.84801(12) 0.87216(13)
C113_20 C 0.87216(13) 0.83170(14) 0.84801(12)
C118_20 C 0.82925(13) 0.86976(13) 0.85358(13)
C121_20 C 0.86976(13) 0.85358(13) 0.82925(13)
C124_20 C 0.85358(13) 0.82925(13) 0.86976(13)
C129_20 C 0.86144(18) 0.91969(17) 0.8136(2)
C132_20 C 0.8136(2) 0.86144(18) 0.91969(17)
C135_20 C 0.91969(17) 0.8136(2) 0.86144(18)
H51_20 H 0.8542 0.9352 0.8026
H54_20 H 0.8026 0.8542 0.9352
H57_20 H 0.9352 0.8026 0.8542
H62_20 H 0.8786 0.9134 0.8047
H65_20 H 0.8047 0.8786 0.9134
H68_20 H 0.9134 0.8047 0.8786
C140_20 C 0.8685(2) 0.9303(2) 0.8427(2)
C143_20 C 0.8427(2) 0.8685(2) 0.9303(2)
C146_20 C 0.9303(2) 0.8427(2) 0.8685(2)
H73_20 H 0.8735 0.9148 0.8545
H76_20 H 0.8545 0.8735 0.9148
H79_20 H 0.9148 0.8545 0.8735
H84_20 H 0.8839 0.9432 0.8416
H87_20 H 0.8416 0.8839 0.9432
H90_20 H 0.9432 0.8416 0.8839
H95_20 H 0.8524 0.9397 0.8504
H98_20 H 0.8504 0.8524 0.9397
H101_20 H 0.9397 0.8504 0.8524
C151_20 C 0.83337(18) 0.88579(19) 0.78376(17)
C154_20 C 0.78376(17) 0.83337(18) 0.88579(19)
C157_20 C 0.88579(19) 0.78376(17) 0.83337(18)
H106_20 H 0.8262 0.9015 0.7730
H109_20 H 0.7730 0.8262 0.9015
H112_20 H 0.9015 0.7730 0.8262
H117_20 H 0.8506 0.8796 0.7749
H120_20 H 0.7749 0.8506 0.8796
H123_20 H 0.8796 0.7749 0.8506
C162_20 C 0.8122(3) 0.8622(2) 0.78268(19)
C165_20 C 0.78268(19) 0.8122(3) 0.8622(2)
C168_20 C 0.8622(2) 0.78268(19) 0.8122(3)
H128_20 H 0.7967 0.8666 0.7947
H131_20 H 0.7947 0.7967 0.8666
H134_20 H 0.8666 0.7947 0.7967
H139_20 H 0.8057 0.8599 0.7638
H142_20 H 0.7638 0.8057 0.8599
H145_20 H 0.8599 0.7638 0.8057
H150_20 H 0.8209 0.8451 0.7889
H153_20 H 0.7889 0.8209 0.8451
H156_20 H 0.8451 0.7889 0.8209
O35 O 0.4528(4) 0.2500 0.2500
O35_2 O 0.2500 0.4528(4) 0.2500
O35_3 O 0.2500 0.2500 0.4528(4)
O35_4 O 0.7500 0.9528(4) 0.2500
O35_5 O 0.7500 0.0472(4) 0.7500
O35_6 O 0.2500 0.9528(4) 0.7500
O35_7 O 0.9528(4) 0.7500 0.2500
O35_8 O 0.0472(4) 0.7500 0.7500
O35_9 O 0.9528(4) 0.2500 0.7500
O35_10 O 0.7500 0.7500 0.0472(4)
O35_11 O 0.7500 0.2500 0.9528(4)
O35_12 O 0.2500 0.7500 0.9528(4)
O35_13 O 0.4528(4) 0.7500 0.7500
O35_14 O 0.7500 0.4528(4) 0.7500
O35_15 O 0.7500 0.5472(4) 0.2500
O35_16 O 0.0472(4) 0.2500 0.2500
O35_17 O 0.7500 0.2500 0.5472(4)
O35_18 O 0.7500 0.7500 0.4528(4)
O35_19 O 0.2500 0.0472(4) 0.2500
O35_20 O 0.5472(4) 0.7500 0.2500
O35_21 O 0.2500 0.7500 0.5472(4)
O35_22 O 0.2500 0.5472(4) 0.7500
O35_23 O 0.5472(4) 0.2500 0.7500
O35_24 O 0.2500 0.2500 0.0472(4)
O35_25 O 0.5472(4) 0.7500 0.7500
O35_26 O 0.7500 0.5472(4) 0.7500
O35_27 O 0.7500 0.7500 0.5472(4)
O35_28 O 0.2500 0.0472(4) 0.7500
O35_29 O 0.2500 0.9528(4) 0.2500
O35_30 O 0.7500 0.0472(4) 0.2500
O35_31 O 0.0472(4) 0.2500 0.7500
O35_32 O 0.9528(4) 0.2500 0.2500
O35_33 O 0.0472(4) 0.7500 0.2500
O35_34 O 0.2500 0.2500 0.9528(4)
O35_35 O 0.2500 0.7500 0.0472(4)
O35_36 O 0.7500 0.2500 0.0472(4)
O35_37 O 0.5472(4) 0.2500 0.2500
O35_38 O 0.2500 0.5472(4) 0.2500
O35_39 O 0.2500 0.4528(4) 0.7500
O35_40 O 0.9528(4) 0.7500 0.7500
O35_41 O 0.2500 0.7500 0.4528(4)
O35_42 O 0.2500 0.2500 0.5472(4)
O35_43 O 0.7500 0.9528(4) 0.7500
O35_44 O 0.4528(4) 0.2500 0.7500
O35_45 O 0.7500 0.2500 0.4528(4)
O35_46 O 0.7500 0.4528(4) 0.2500
O35_47 O 0.4528(4) 0.7500 0.2500
O35_48 O 0.7500 0.7500 0.9528(4)
loop_
_geom_bond_atom_site_label_1
_geom_bond_atom_site_label_2
_geom_bond_site_symmetry_1
_geom_bond_site_symmetry_2
Cd1 O2 1_555 1_555
O2 C1 1_555 1_555
O3 Cd1 1_555 1_555
O4 Cd1 1_555 1_555
C1 O3 1_555 1_555
C2 C1 1_555 1_555
C3 C2 1_555 1_555
H1 C3 1_555 1_555
C4 C3 1_555 1_555
C5 C4 1_555 1_555
C6 C5 1_555 1_555
H2 C6 1_555 1_555
C7 C2 1_555 1_555
H3 C7 1_555 1_555
C8 C4 1_555 1_555
C9 C8 1_555 1_555
C10 C5 1_555 1_555
C11 C8 1_555 1_555
H4 C11 1_555 1_555
H5 C11 1_555 1_555
C12 C11 1_555 1_555
H6 C12 1_555 1_555
H7 C12 1_555 1_555
H8 C12 1_555 1_555
C13 C8 1_555 1_555
H9 C13 1_555 1_555
H10 C13 1_555 1_555
C14 C13 1_555 1_555
H11 C14 1_555 1_555
H12 C14 1_555 1_555
H13 C14 1_555 1_555
Cd2 O2 1_555 1_555
Cd3 O4 1_555 1_555
Cd4 O4 1_555 1_555
Cd5 O8 1_555 1_555
Cd6 O8 1_555 1_555
Cd7 O9 1_555 1_555
Cd8 O9 1_555 1_555
Cd9 O14 1_555 1_555
Cd10 O14 1_555 1_555
Cd11 O15 1_555 1_555
Cd12 O15 1_555 1_555
Cd13 O16 1_555 1_555
Cd14 O17 1_555 1_555
Cd15 O17 1_555 1_555
Cd16 O18 1_555 1_555
Cd17 O18 1_555 1_555
Cd18 O19 1_555 1_555
O5 Cd1 1_555 1_555
O6 Cd1 1_555 1_555
O7 Cd1 1_555 1_555
O8 C15 1_555 1_555
O9 C16 1_555 1_555
O10 Cd2 1_555 1_555
O11 Cd3 1_555 1_555
O12 Cd2 1_555 1_555
O13 Cd3 1_555 1_555
O14 C20 1_555 1_555
O15 C21 1_555 1_555
O16 Cd5 1_555 1_555
O17 C23 1_555 1_555
O18 C24 1_555 1_555
O19 Cd10 1_555 1_555
O20 Cd1 1_555 1_555
O21 Cd5 1_555 1_555
O22 Cd7 1_555 1_555
O23 Cd4 1_555 1_555
O24 Cd4 1_555 1_555
O25 Cd2 1_555 1_555
O26 Cd2 1_555 1_555
O27 Cd3 1_555 1_555
O28 Cd3 1_555 1_555
O29 Cd9 1_555 1_555
O30 Cd11 1_555 1_555
O31 Cd13 1_555 1_555
O32 Cd14 1_555 1_555
O33 Cd16 1_555 1_555
O34 Cd10 1_555 1_555
C15 O21 1_555 1_555
C16 O22 1_555 1_555
C17 O7 1_555 1_555
C18 O10 1_555 1_555
C19 O11 1_555 1_555
C20 O29 1_555 1_555
C21 O30 1_555 1_555
C22 O16 1_555 1_555
C23 O32 1_555 1_555
C24 O33 1_555 1_555
C25 O19 1_555 1_555
C26 C15 1_555 1_555
C27 C16 1_555 1_555
C28 C17 1_555 1_555
C29 C18 1_555 1_555
C30 C19 1_555 1_555
C31 C20 1_555 1_555
C32 C21 1_555 1_555
C33 C22 1_555 1_555
C34 C23 1_555 1_555
C35 C24 1_555 1_555
C36 C25 1_555 1_555
C37 C26 1_555 1_555
C38 C27 1_555 1_555
C39 C28 1_555 1_555
C40 C29 1_555 1_555
C41 C30 1_555 1_555
C42 C31 1_555 1_555
C43 C32 1_555 1_555
C44 C33 1_555 1_555
C45 C34 1_555 1_555
C46 C35 1_555 1_555
C47 C36 1_555 1_555
H14 C37 1_555 1_555
H15 C38 1_555 1_555
H16 C39 1_555 1_555
H17 C40 1_555 1_555
H18 C41 1_555 1_555
H19 C42 1_555 1_555
H20 C43 1_555 1_555
H21 C44 1_555 1_555
H22 C45 1_555 1_555
H23 C46 1_555 1_555
H24 C47 1_555 1_555
C48 C37 1_555 1_555
C49 C38 1_555 1_555
C50 C39 1_555 1_555
C51 C40 1_555 1_555
C52 C41 1_555 1_555
C53 C42 1_555 1_555
C54 C43 1_555 1_555
C55 C44 1_555 1_555
C56 C45 1_555 1_555
C57 C46 1_555 1_555
C58 C47 1_555 1_555
C59 C48 1_555 1_555
C60 C49 1_555 1_555
C61 C50 1_555 1_555
C62 C51 1_555 1_555
C63 C52 1_555 1_555
C64 C54 1_555 1_555
C65 C56 1_555 1_555
C66 C58 1_555 1_555
C67 C53 1_555 1_555
C68 C55 1_555 1_555
C69 C57 1_555 1_555
C70 C59 1_555 1_555
C71 C60 1_555 1_555
C72 C61 1_555 1_555
C73 C62 1_555 1_555
C74 C63 1_555 1_555
C75 C64 1_555 1_555
C76 C65 1_555 1_555
C77 C66 1_555 1_555
C78 C67 1_555 1_555
C79 C68 1_555 1_555
C80 C69 1_555 1_555
H25 C70 1_555 1_555
H26 C71 1_555 1_555
H27 C72 1_555 1_555
H28 C73 1_555 1_555
H29 C74 1_555 1_555
H30 C75 1_555 1_555
H31 C76 1_555 1_555
H32 C77 1_555 1_555
H33 C78 1_555 1_555
H34 C79 1_555 1_555
H35 C80 1_555 1_555
C81 C26 1_555 1_555
C82 C27 1_555 1_555
C83 C28 1_555 1_555
C84 C29 1_555 1_555
C85 C30 1_555 1_555
C86 C32 1_555 1_555
C87 C34 1_555 1_555
C88 C36 1_555 1_555
C89 C31 1_555 1_555
C90 C33 1_555 1_555
C91 C35 1_555 1_555
H36 C81 1_555 1_555
H37 C82 1_555 1_555
H38 C83 1_555 1_555
H39 C84 1_555 1_555
H40 C85 1_555 1_555
H41 C86 1_555 1_555
H42 C87 1_555 1_555
H43 C88 1_555 1_555
H44 C89 1_555 1_555
H45 C90 1_555 1_555
H46 C91 1_555 1_555
C92 C49 1_555 1_555
C93 C48 1_555 1_555
C94 C50 1_555 1_555
C95 C51 1_555 1_555
C96 C52 1_555 1_555
C97 C53 1_555 1_555
C98 C55 1_555 1_555
C99 C57 1_555 1_555
C100 C54 1_555 1_555
C101 C56 1_555 1_555
C102 C58 1_555 1_555
C103 C10 1_555 1_555
C104 C93 1_555 1_555
C105 C94 1_555 1_555
C106 C95 1_555 1_555
C107 C96 1_555 1_555
C108 C97 1_555 1_555
C109 C98 1_555 1_555
C110 C99 1_555 1_555
C111 C100 1_555 1_555
C112 C101 1_555 1_555
C113 C102 1_555 1_555
C114 C9 1_555 1_555
C115 C60 1_555 1_555
C116 C61 1_555 1_555
C117 C62 1_555 1_555
C118 C63 1_555 1_555
C119 C64 1_555 1_555
C120 C65 1_555 1_555
C121 C66 1_555 1_555
C122 C67 1_555 1_555
C123 C68 1_555 1_555
C124 C69 1_555 1_555
C125 C92 1_555 1_555
C126 C93 1_555 1_555
C127 C94 1_555 1_555
C128 C95 1_555 1_555
C129 C96 1_555 1_555
C130 C97 1_555 1_555
C131 C98 1_555 1_555
C132 C99 1_555 1_555
C133 C100 1_555 1_555
C134 C101 1_555 1_555
C135 C102 1_555 1_555
H47 C125 1_555 1_555
H48 C126 1_555 1_555
H49 C127 1_555 1_555
H50 C128 1_555 1_555
H51 C129 1_555 1_555
H52 C130 1_555 1_555
H53 C131 1_555 1_555
H54 C132 1_555 1_555
H55 C133 1_555 1_555
H56 C134 1_555 1_555
H57 C135 1_555 1_555
H58 C125 1_555 1_555
H59 C126 1_555 1_555
H60 C127 1_555 1_555
H61 C128 1_555 1_555
H62 C129 1_555 1_555
H63 C130 1_555 1_555
H64 C131 1_555 1_555
H65 C132 1_555 1_555
H66 C133 1_555 1_555
H67 C134 1_555 1_555
H68 C135 1_555 1_555
C136 C125 1_555 1_555
C137 C126 1_555 1_555
C138 C127 1_555 1_555
C139 C128 1_555 1_555
C140 C129 1_555 1_555
C141 C130 1_555 1_555
C142 C131 1_555 1_555
C143 C132 1_555 1_555
C144 C133 1_555 1_555
C145 C134 1_555 1_555
C146 C135 1_555 1_555
H69 C136 1_555 1_555
H70 C137 1_555 1_555
H71 C138 1_555 1_555
H72 C139 1_555 1_555
H73 C140 1_555 1_555
H74 C141 1_555 1_555
H75 C142 1_555 1_555
H76 C143 1_555 1_555
H77 C144 1_555 1_555
H78 C145 1_555 1_555
H79 C146 1_555 1_555
H80 C136 1_555 1_555
H81 C137 1_555 1_555
H82 C138 1_555 1_555
H83 C139 1_555 1_555
H84 C140 1_555 1_555
H85 C141 1_555 1_555
H86 C142 1_555 1_555
H87 C143 1_555 1_555
H88 C144 1_555 1_555
H89 C145 1_555 1_555
H90 C146 1_555 1_555
H91 C136 1_555 1_555
H92 C137 1_555 1_555
H93 C138 1_555 1_555
H94 C139 1_555 1_555
H95 C140 1_555 1_555
H96 C141 1_555 1_555
H97 C142 1_555 1_555
H98 C143 1_555 1_555
H99 C144 1_555 1_555
H100 C145 1_555 1_555
H101 C146 1_555 1_555
C147 C92 1_555 1_555
C148 C93 1_555 1_555
C149 C94 1_555 1_555
C150 C95 1_555 1_555
C151 C96 1_555 1_555
C152 C97 1_555 1_555
C153 C98 1_555 1_555
C154 C99 1_555 1_555
C155 C100 1_555 1_555
C156 C101 1_555 1_555
C157 C102 1_555 1_555
H102 C147 1_555 1_555
H103 C148 1_555 1_555
H104 C149 1_555 1_555
H105 C150 1_555 1_555
H106 C151 1_555 1_555
H107 C152 1_555 1_555
H108 C153 1_555 1_555
H109 C154 1_555 1_555
H110 C155 1_555 1_555
H111 C156 1_555 1_555
H112 C157 1_555 1_555
H113 C147 1_555 1_555
H114 C148 1_555 1_555
H115 C149 1_555 1_555
H116 C150 1_555 1_555
H117 C151 1_555 1_555
H118 C152 1_555 1_555
H119 C153 1_555 1_555
H120 C154 1_555 1_555
H121 C155 1_555 1_555
H122 C156 1_555 1_555
H123 C157 1_555 1_555
C158 C147 1_555 1_555
C159 C148 1_555 1_555
C160 C149 1_555 1_555
C161 C150 1_555 1_555
C162 C151 1_555 1_555
C163 C152 1_555 1_555
C164 C153 1_555 1_555
C165 C154 1_555 1_555
C166 C155 1_555 1_555
C167 C156 1_555 1_555
C168 C157 1_555 1_555
H124 C158 1_555 1_555
H125 C159 1_555 1_555
H126 C160 1_555 1_555
H127 C161 1_555 1_555
H128 C162 1_555 1_555
H129 C163 1_555 1_555
H130 C164 1_555 1_555
H131 C165 1_555 1_555
H132 C166 1_555 1_555
H133 C167 1_555 1_555
H134 C168 1_555 1_555
H135 C158 1_555 1_555
H136 C159 1_555 1_555
H137 C160 1_555 1_555
H138 C161 1_555 1_555
H139 C162 1_555 1_555
H140 C163 1_555 1_555
H141 C164 1_555 1_555
H142 C165 1_555 1_555
H143 C166 1_555 1_555
H144 C167 1_555 1_555
H145 C168 1_555 1_555
H146 C158 1_555 1_555
H147 C159 1_555 1_555
H148 C160 1_555 1_555
H149 C161 1_555 1_555
H150 C162 1_555 1_555
H151 C163 1_555 1_555
H152 C164 1_555 1_555
H153 C165 1_555 1_555
H154 C166 1_555 1_555
H155 C167 1_555 1_555
H156 C168 1_555 1_555
O4 Cd2 1_555 1_555
C6 C7 1_555 1_555
C9 C10 1_555 1_555
Cd2 O6 1_555 1_555
Cd3 O5 1_555 1_555
Cd3 O7 1_555 1_555
Cd4 O10 1_555 1_555
Cd4 O11 1_555 1_555
Cd4 O12 1_555 1_555
Cd4 O13 1_555 1_555
O23 C19 1_555 1_555
O25 C18 1_555 1_555
O28 C17 1_555 1_555
O31 C22 1_555 1_555
O34 C25 1_555 1_555
C59 C114 1_555 1_555
C70 C81 1_555 1_555
C71 C82 1_555 1_555
C72 C83 1_555 1_555
C73 C84 1_555 1_555
C74 C85 1_555 1_555
C75 C86 1_555 1_555
C76 C87 1_555 1_555
C77 C88 1_555 1_555
C78 C89 1_555 1_555
C79 C90 1_555 1_555
C80 C91 1_555 1_555
C92 C103 1_555 1_555
C103 C115 1_555 1_555
C104 C114 1_555 1_555
C104 C115 1_555 1_555
C105 C116 1_555 1_555
C105 C119 1_555 1_555
C106 C117 1_555 1_555
C106 C120 1_555 1_555
C107 C118 1_555 1_555
C107 C121 1_555 1_555
C108 C116 1_555 1_555
C108 C122 1_555 1_555
C109 C117 1_555 1_555
C109 C123 1_555 1_555
C110 C118 1_555 1_555
C110 C124 1_555 1_555
C111 C119 1_555 1_555
C111 C122 1_555 1_555
C112 C120 1_555 1_555
C112 C123 1_555 1_555
C113 C121 1_555 1_555
C113 C124 1_555 1_555
Cd1_2 O2_2 1_555 1_555
O2_2 C1_2 1_555 1_555
O3_2 Cd1_2 1_555 1_555
O4_2 Cd1_2 1_555 1_555
C1_2 O3_2 1_555 1_555
C2_2 C1_2 1_555 1_555
C3_2 C2_2 1_555 1_555
H1_2 C3_2 1_555 1_555
C4_2 C3_2 1_555 1_555
C5_2 C4_2 1_555 1_555
C6_2 C5_2 1_555 1_555
H2_2 C6_2 1_555 1_555
C7_2 C2_2 1_555 1_555
H3_2 C7_2 1_555 1_555
C8_2 C4_2 1_555 1_555
C9_2 C8_2 1_555 1_555
C10_2 C5_2 1_555 1_555
C11_2 C8_2 1_555 1_555
H4_2 C11_2 1_555 1_555
H5_2 C11_2 1_555 1_555
C12_2 C11_2 1_555 1_555
H6_2 C12_2 1_555 1_555
H7_2 C12_2 1_555 1_555
H8_2 C12_2 1_555 1_555
C13_2 C8_2 1_555 1_555
H9_2 C13_2 1_555 1_555
H10_2 C13_2 1_555 1_555
C14_2 C13_2 1_555 1_555
H11_2 C14_2 1_555 1_555
H12_2 C14_2 1_555 1_555
H13_2 C14_2 1_555 1_555
Cd14 O2_2 1_555 1_555
Cd3_2 O4_2 1_555 1_555
Cd15 O4_2 1_555 1_555
Cd7_3 O9_2 1_555 1_555
Cd8_3 O9_2 1_555 1_555
Cd9_3 O14_2 1_555 1_555
Cd10_3 O14_2 1_555 1_555
Cd11_3 O15_2 1_555 1_555
Cd12_3 O15_2 1_555 1_555
Cd16_2 O18_2 1_555 1_555
Cd17_2 O18_2 1_555 1_555
Cd18_3 O19_2 1_555 1_555
O5_2 Cd1_2 1_555 1_555
O6_2 Cd1_2 1_555 1_555
O7_2 Cd1_2 1_555 1_555
O13 C15_2 1_555 1_555
O9_2 C16_2 1_555 1_555
O11_2 Cd3_2 1_555 1_555
O12_2 Cd14 1_555 1_555
O13_2 Cd3_2 1_555 1_555
O14_2 C20_2 1_555 1_555
O15_2 C21_2 1_555 1_555
O18_2 C24_2 1_555 1_555
O19_2 Cd10_3 1_555 1_555
O20_2 Cd1_2 1_555 1_555
O22_2 Cd7_3 1_555 1_555
O23_2 Cd15 1_555 1_555
O24_2 Cd15 1_555 1_555
O26_2 Cd14 1_555 1_555
O27_2 Cd3_2 1_555 1_555
O28_2 Cd3_2 1_555 1_555
O29_2 Cd9_3 1_555 1_555
O30_2 Cd11_3 1_555 1_555
O33_2 Cd16_2 1_555 1_555
O34_2 Cd10_3 1_555 1_555
C15_2 O24 1_555 1_555
C16_2 O22_2 1_555 1_555
C17_2 O7_2 1_555 1_555
C19_2 O11_2 1_555 1_555
C20_2 O29_2 1_555 1_555
C21_2 O30_2 1_555 1_555
C24_2 O33_2 1_555 1_555
C25_2 O19_2 1_555 1_555
C26_2 C15_2 1_555 1_555
C27_2 C16_2 1_555 1_555
C28_2 C17_2 1_555 1_555
C30_2 C19_2 1_555 1_555
C31_2 C20_2 1_555 1_555
C32_2 C21_2 1_555 1_555
C35_2 C24_2 1_555 1_555
C36_2 C25_2 1_555 1_555
C37_2 C26_2 1_555 1_555
C38_2 C27_2 1_555 1_555
C39_2 C28_2 1_555 1_555
C41_2 C30_2 1_555 1_555
C42_2 C31_2 1_555 1_555
C43_2 C32_2 1_555 1_555
C46_2 C35_2 1_555 1_555
C47_2 C36_2 1_555 1_555
H14_2 C37_2 1_555 1_555
H15_2 C38_2 1_555 1_555
H16_2 C39_2 1_555 1_555
H18_2 C41_2 1_555 1_555
H19_2 C42_2 1_555 1_555
H20_2 C43_2 1_555 1_555
H23_2 C46_2 1_555 1_555
H24_2 C47_2 1_555 1_555
C48_2 C37_2 1_555 1_555
C49_2 C38_2 1_555 1_555
C50_2 C39_2 1_555 1_555
C52_2 C41_2 1_555 1_555
C53_2 C42_2 1_555 1_555
C54_2 C43_2 1_555 1_555
C57_2 C46_2 1_555 1_555
C58_2 C47_2 1_555 1_555
C59_2 C48_2 1_555 1_555
C60_2 C49_2 1_555 1_555
C61_2 C50_2 1_555 1_555
C63_2 C52_2 1_555 1_555
C64_2 C54_2 1_555 1_555
C66_2 C58_2 1_555 1_555
C67_2 C53_2 1_555 1_555
C69_2 C57_2 1_555 1_555
C70_2 C59_2 1_555 1_555
C71_2 C60_2 1_555 1_555
C72_2 C61_2 1_555 1_555
C74_2 C63_2 1_555 1_555
C75_2 C64_2 1_555 1_555
C77_2 C66_2 1_555 1_555
C78_2 C67_2 1_555 1_555
C80_2 C69_2 1_555 1_555
H25_2 C70_2 1_555 1_555
H26_2 C71_2 1_555 1_555
H27_2 C72_2 1_555 1_555
H29_2 C74_2 1_555 1_555
H30_2 C75_2 1_555 1_555
H32_2 C77_2 1_555 1_555
H33_2 C78_2 1_555 1_555
H35_2 C80_2 1_555 1_555
C81_2 C26_2 1_555 1_555
C82_2 C27_2 1_555 1_555
C83_2 C28_2 1_555 1_555
C85_2 C30_2 1_555 1_555
C86_2 C32_2 1_555 1_555
C88_2 C36_2 1_555 1_555
C89_2 C31_2 1_555 1_555
C91_2 C35_2 1_555 1_555
H36_2 C81_2 1_555 1_555
H37_2 C82_2 1_555 1_555
H38_2 C83_2 1_555 1_555
H40_2 C85_2 1_555 1_555
H41_2 C86_2 1_555 1_555
H43_2 C88_2 1_555 1_555
H44_2 C89_2 1_555 1_555
H46_2 C91_2 1_555 1_555
C92_2 C49_2 1_555 1_555
C93_2 C48_2 1_555 1_555
C94_2 C50_2 1_555 1_555
C96_2 C52_2 1_555 1_555
C97_2 C53_2 1_555 1_555
C99_2 C57_2 1_555 1_555
C100_2 C54_2 1_555 1_555
C102_2 C58_2 1_555 1_555
C103_2 C10_2 1_555 1_555
C104_2 C93_2 1_555 1_555
C105_2 C94_2 1_555 1_555
C107_2 C96_2 1_555 1_555
C108_2 C97_2 1_555 1_555
C110_2 C99_2 1_555 1_555
C111_2 C100_2 1_555 1_555
C113_2 C102_2 1_555 1_555
C114_2 C9_2 1_555 1_555
C115_2 C60_2 1_555 1_555
C116_2 C61_2 1_555 1_555
C118_2 C63_2 1_555 1_555
C119_2 C64_2 1_555 1_555
C121_2 C66_2 1_555 1_555
C122_2 C67_2 1_555 1_555
C124_2 C69_2 1_555 1_555
C125_2 C92_2 1_555 1_555
C126_2 C93_2 1_555 1_555
C127_2 C94_2 1_555 1_555
C129_2 C96_2 1_555 1_555
C130_2 C97_2 1_555 1_555
C132_2 C99_2 1_555 1_555
C133_2 C100_2 1_555 1_555
C135_2 C102_2 1_555 1_555
H47_2 C125_2 1_555 1_555
H48_2 C126_2 1_555 1_555
H49_2 C127_2 1_555 1_555
H51_2 C129_2 1_555 1_555
H52_2 C130_2 1_555 1_555
H54_2 C132_2 1_555 1_555
H55_2 C133_2 1_555 1_555
H57_2 C135_2 1_555 1_555
H58_2 C125_2 1_555 1_555
H59_2 C126_2 1_555 1_555
H60_2 C127_2 1_555 1_555
H62_2 C129_2 1_555 1_555
H63_2 C130_2 1_555 1_555
H65_2 C132_2 1_555 1_555
H66_2 C133_2 1_555 1_555
H68_2 C135_2 1_555 1_555
C136_2 C125_2 1_555 1_555
C137_2 C126_2 1_555 1_555
C138_2 C127_2 1_555 1_555
C140_2 C129_2 1_555 1_555
C141_2 C130_2 1_555 1_555
C143_2 C132_2 1_555 1_555
C144_2 C133_2 1_555 1_555
C146_2 C135_2 1_555 1_555
H69_2 C136_2 1_555 1_555
H70_2 C137_2 1_555 1_555
H71_2 C138_2 1_555 1_555
H73_2 C140_2 1_555 1_555
H74_2 C141_2 1_555 1_555
H76_2 C143_2 1_555 1_555
H77_2 C144_2 1_555 1_555
H79_2 C146_2 1_555 1_555
H80_2 C136_2 1_555 1_555
H81_2 C137_2 1_555 1_555
H82_2 C138_2 1_555 1_555
H84_2 C140_2 1_555 1_555
H85_2 C141_2 1_555 1_555
H87_2 C143_2 1_555 1_555
H88_2 C144_2 1_555 1_555
H90_2 C146_2 1_555 1_555
H91_2 C136_2 1_555 1_555
H92_2 C137_2 1_555 1_555
H93_2 C138_2 1_555 1_555
H95_2 C140_2 1_555 1_555
H96_2 C141_2 1_555 1_555
H98_2 C143_2 1_555 1_555
H99_2 C144_2 1_555 1_555
H101_2 C146_2 1_555 1_555
C147_2 C92_2 1_555 1_555
C148_2 C93_2 1_555 1_555
C149_2 C94_2 1_555 1_555
C151_2 C96_2 1_555 1_555
C152_2 C97_2 1_555 1_555
C154_2 C99_2 1_555 1_555
C155_2 C100_2 1_555 1_555
C157_2 C102_2 1_555 1_555
H102_2 C147_2 1_555 1_555
H103_2 C148_2 1_555 1_555
H104_2 C149_2 1_555 1_555
H106_2 C151_2 1_555 1_555
H107_2 C152_2 1_555 1_555
H109_2 C154_2 1_555 1_555
H110_2 C155_2 1_555 1_555
H112_2 C157_2 1_555 1_555
H113_2 C147_2 1_555 1_555
H114_2 C148_2 1_555 1_555
H115_2 C149_2 1_555 1_555
H117_2 C151_2 1_555 1_555
H118_2 C152_2 1_555 1_555
H120_2 C154_2 1_555 1_555
H121_2 C155_2 1_555 1_555
H123_2 C157_2 1_555 1_555
C158_2 C147_2 1_555 1_555
C159_2 C148_2 1_555 1_555
C160_2 C149_2 1_555 1_555
C162_2 C151_2 1_555 1_555
C163_2 C152_2 1_555 1_555
C165_2 C154_2 1_555 1_555
C166_2 C155_2 1_555 1_555
C168_2 C157_2 1_555 1_555
H124_2 C158_2 1_555 1_555
H125_2 C159_2 1_555 1_555
H126_2 C160_2 1_555 1_555
H128_2 C162_2 1_555 1_555
H129_2 C163_2 1_555 1_555
H131_2 C165_2 1_555 1_555
H132_2 C166_2 1_555 1_555
H134_2 C168_2 1_555 1_555
H135_2 C158_2 1_555 1_555
H136_2 C159_2 1_555 1_555
H137_2 C160_2 1_555 1_555
H139_2 C162_2 1_555 1_555
H140_2 C163_2 1_555 1_555
H142_2 C165_2 1_555 1_555
H143_2 C166_2 1_555 1_555
H145_2 C168_2 1_555 1_555
H146_2 C158_2 1_555 1_555
H147_2 C159_2 1_555 1_555
H148_2 C160_2 1_555 1_555
H150_2 C162_2 1_555 1_555
H151_2 C163_2 1_555 1_555
H153_2 C165_2 1_555 1_555
H154_2 C166_2 1_555 1_555
H156_2 C168_2 1_555 1_555
O4_2 Cd14 1_555 1_555
C6_2 C7_2 1_555 1_555
C9_2 C10_2 1_555 1_555
Cd14 O6_2 1_555 1_555
Cd3_2 O5_2 1_555 1_555
Cd3_2 O7_2 1_555 1_555
Cd15 O11_2 1_555 1_555
Cd15 O12_2 1_555 1_555
Cd15 O13_2 1_555 1_555
O23_2 C19_2 1_555 1_555
O28_2 C17_2 1_555 1_555
O34_2 C25_2 1_555 1_555
C59_2 C114_2 1_555 1_555
C70_2 C81_2 1_555 1_555
C71_2 C82_2 1_555 1_555
C72_2 C83_2 1_555 1_555
C74_2 C85_2 1_555 1_555
C75_2 C86_2 1_555 1_555
C77_2 C88_2 1_555 1_555
C78_2 C89_2 1_555 1_555
C80_2 C91_2 1_555 1_555
C92_2 C103_2 1_555 1_555
C103_2 C115_2 1_555 1_555
C104_2 C114_2 1_555 1_555
C104_2 C115_2 1_555 1_555
C105_2 C116_2 1_555 1_555
C105_2 C119_2 1_555 1_555
C107_2 C118_2 1_555 1_555
C107_2 C121_2 1_555 1_555
C108_2 C116_2 1_555 1_555
C108_2 C122_2 1_555 1_555
C110_2 C118_2 1_555 1_555
C110_2 C124_2 1_555 1_555
C111_2 C119_2 1_555 1_555
C111_2 C122_2 1_555 1_555
C113_2 C121_2 1_555 1_555
C113_2 C124_2 1_555 1_555
Cd1_3 O2_3 1_555 1_555
O2_3 C1_3 1_555 1_555
O3_3 Cd1_3 1_555 1_555
O4_3 Cd1_3 1_555 1_555
C1_3 O3_3 1_555 1_555
C2_3 C1_3 1_555 1_555
C3_3 C2_3 1_555 1_555
H1_3 C3_3 1_555 1_555
C4_3 C3_3 1_555 1_555
C5_3 C4_3 1_555 1_555
C6_3 C5_3 1_555 1_555
H2_3 C6_3 1_555 1_555
C7_3 C2_3 1_555 1_555
H3_3 C7_3 1_555 1_555
C8_3 C4_3 1_555 1_555
C9_3 C8_3 1_555 1_555
C10_3 C5_3 1_555 1_555
C11_3 C8_3 1_555 1_555
H4_3 C11_3 1_555 1_555
H5_3 C11_3 1_555 1_555
C12_3 C11_3 1_555 1_555
H6_3 C12_3 1_555 1_555
H7_3 C12_3 1_555 1_555
H8_3 C12_3 1_555 1_555
C13_3 C8_3 1_555 1_555
H9_3 C13_3 1_555 1_555
H10_3 C13_3 1_555 1_555
C14_3 C13_3 1_555 1_555
H11_3 C14_3 1_555 1_555
H12_3 C14_3 1_555 1_555
H13_3 C14_3 1_555 1_555
Cd13 O2_3 1_555 1_555
Cd6 O4_3 1_555 1_555
Cd5 O4_3 1_555 1_555
Cd7_5 O9_3 1_555 1_555
Cd8_5 O9_3 1_555 1_555
Cd9_5 O14_3 1_555 1_555
Cd10_5 O14_3 1_555 1_555
Cd11_5 O15_3 1_555 1_555
Cd12_5 O15_3 1_555 1_555
Cd16_3 O18_3 1_555 1_555
Cd17_3 O18_3 1_555 1_555
Cd18_5 O19_3 1_555 1_555
O5_3 Cd1_3 1_555 1_555
O6_3 Cd1_3 1_555 1_555
O7_3 Cd1_3 1_555 1_555
O13_2 C15_3 1_555 1_555
O9_3 C16_3 1_555 1_555
O11_3 Cd6 1_555 1_555
O12_3 Cd13 1_555 1_555
O14_3 C20_3 1_555 1_555
O15_3 C21_3 1_555 1_555
O18_3 C24_3 1_555 1_555
O19_3 Cd10_5 1_555 1_555
O20_3 Cd1_3 1_555 1_555
O22_3 Cd7_5 1_555 1_555
O23_3 Cd5 1_555 1_555
O26_3 Cd13 1_555 1_555
O27_3 Cd6 1_555 1_555
O28_3 Cd6 1_555 1_555
O29_3 Cd9_5 1_555 1_555
O30_3 Cd11_5 1_555 1_555
O33_3 Cd16_3 1_555 1_555
O34_3 Cd10_5 1_555 1_555
C15_3 O24_2 1_555 1_555
C16_3 O22_3 1_555 1_555
C17_3 O7_3 1_555 1_555
C19_3 O11_3 1_555 1_555
C20_3 O29_3 1_555 1_555
C21_3 O30_3 1_555 1_555
C24_3 O33_3 1_555 1_555
C25_3 O19_3 1_555 1_555
C26_3 C15_3 1_555 1_555
C27_3 C16_3 1_555 1_555
C28_3 C17_3 1_555 1_555
C30_3 C19_3 1_555 1_555
C31_3 C20_3 1_555 1_555
C32_3 C21_3 1_555 1_555
C35_3 C24_3 1_555 1_555
C36_3 C25_3 1_555 1_555
C37_3 C26_3 1_555 1_555
C38_3 C27_3 1_555 1_555
C39_3 C28_3 1_555 1_555
C41_3 C30_3 1_555 1_555
C42_3 C31_3 1_555 1_555
C43_3 C32_3 1_555 1_555
C46_3 C35_3 1_555 1_555
C47_3 C36_3 1_555 1_555
H14_3 C37_3 1_555 1_555
H15_3 C38_3 1_555 1_555
H16_3 C39_3 1_555 1_555
H18_3 C41_3 1_555 1_555
H19_3 C42_3 1_555 1_555
H20_3 C43_3 1_555 1_555
H23_3 C46_3 1_555 1_555
H24_3 C47_3 1_555 1_555
C48_3 C37_3 1_555 1_555
C49_3 C38_3 1_555 1_555
C50_3 C39_3 1_555 1_555
C52_3 C41_3 1_555 1_555
C53_3 C42_3 1_555 1_555
C54_3 C43_3 1_555 1_555
C57_3 C46_3 1_555 1_555
C58_3 C47_3 1_555 1_555
C59_3 C48_3 1_555 1_555
C60_3 C49_3 1_555 1_555
C61_3 C50_3 1_555 1_555
C63_3 C52_3 1_555 1_555
C64_3 C54_3 1_555 1_555
C66_3 C58_3 1_555 1_555
C67_3 C53_3 1_555 1_555
C69_3 C57_3 1_555 1_555
C70_3 C59_3 1_555 1_555
C71_3 C60_3 1_555 1_555
C72_3 C61_3 1_555 1_555
C74_3 C63_3 1_555 1_555
C75_3 C64_3 1_555 1_555
C77_3 C66_3 1_555 1_555
C78_3 C67_3 1_555 1_555
C80_3 C69_3 1_555 1_555
H25_3 C70_3 1_555 1_555
H26_3 C71_3 1_555 1_555
H27_3 C72_3 1_555 1_555
H29_3 C74_3 1_555 1_555
H30_3 C75_3 1_555 1_555
H32_3 C77_3 1_555 1_555
H33_3 C78_3 1_555 1_555
H35_3 C80_3 1_555 1_555
C81_3 C26_3 1_555 1_555
C82_3 C27_3 1_555 1_555
C83_3 C28_3 1_555 1_555
C85_3 C30_3 1_555 1_555
C86_3 C32_3 1_555 1_555
C88_3 C36_3 1_555 1_555
C89_3 C31_3 1_555 1_555
C91_3 C35_3 1_555 1_555
H36_3 C81_3 1_555 1_555
H37_3 C82_3 1_555 1_555
H38_3 C83_3 1_555 1_555
H40_3 C85_3 1_555 1_555
H41_3 C86_3 1_555 1_555
H43_3 C88_3 1_555 1_555
H44_3 C89_3 1_555 1_555
H46_3 C91_3 1_555 1_555
C92_3 C49_3 1_555 1_555
C93_3 C48_3 1_555 1_555
C94_3 C50_3 1_555 1_555
C96_3 C52_3 1_555 1_555
C97_3 C53_3 1_555 1_555
C99_3 C57_3 1_555 1_555
C100_3 C54_3 1_555 1_555
C102_3 C58_3 1_555 1_555
C103_3 C10_3 1_555 1_555
C104_3 C93_3 1_555 1_555
C105_3 C94_3 1_555 1_555
C107_3 C96_3 1_555 1_555
C108_3 C97_3 1_555 1_555
C110_3 C99_3 1_555 1_555
C111_3 C100_3 1_555 1_555
C113_3 C102_3 1_555 1_555
C114_3 C9_3 1_555 1_555
C115_3 C60_3 1_555 1_555
C116_3 C61_3 1_555 1_555
C118_3 C63_3 1_555 1_555
C119_3 C64_3 1_555 1_555
C121_3 C66_3 1_555 1_555
C122_3 C67_3 1_555 1_555
C124_3 C69_3 1_555 1_555
C125_3 C92_3 1_555 1_555
C126_3 C93_3 1_555 1_555
C127_3 C94_3 1_555 1_555
C129_3 C96_3 1_555 1_555
C130_3 C97_3 1_555 1_555
C132_3 C99_3 1_555 1_555
C133_3 C100_3 1_555 1_555
C135_3 C102_3 1_555 1_555
H47_3 C125_3 1_555 1_555
H48_3 C126_3 1_555 1_555
H49_3 C127_3 1_555 1_555
H51_3 C129_3 1_555 1_555
H52_3 C130_3 1_555 1_555
H54_3 C132_3 1_555 1_555
H55_3 C133_3 1_555 1_555
H57_3 C135_3 1_555 1_555
H58_3 C125_3 1_555 1_555
H59_3 C126_3 1_555 1_555
H60_3 C127_3 1_555 1_555
H62_3 C129_3 1_555 1_555
H63_3 C130_3 1_555 1_555
H65_3 C132_3 1_555 1_555
H66_3 C133_3 1_555 1_555
H68_3 C135_3 1_555 1_555
C136_3 C125_3 1_555 1_555
C137_3 C126_3 1_555 1_555
C138_3 C127_3 1_555 1_555
C140_3 C129_3 1_555 1_555
C141_3 C130_3 1_555 1_555
C143_3 C132_3 1_555 1_555
C144_3 C133_3 1_555 1_555
C146_3 C135_3 1_555 1_555
H69_3 C136_3 1_555 1_555
H70_3 C137_3 1_555 1_555
H71_3 C138_3 1_555 1_555
H73_3 C140_3 1_555 1_555
H74_3 C141_3 1_555 1_555
H76_3 C143_3 1_555 1_555
H77_3 C144_3 1_555 1_555
H79_3 C146_3 1_555 1_555
H80_3 C136_3 1_555 1_555
H81_3 C137_3 1_555 1_555
H82_3 C138_3 1_555 1_555
H84_3 C140_3 1_555 1_555
H85_3 C141_3 1_555 1_555
H87_3 C143_3 1_555 1_555
H88_3 C144_3 1_555 1_555
H90_3 C146_3 1_555 1_555
H91_3 C136_3 1_555 1_555
H92_3 C137_3 1_555 1_555
H93_3 C138_3 1_555 1_555
H95_3 C140_3 1_555 1_555
H96_3 C141_3 1_555 1_555
H98_3 C143_3 1_555 1_555
H99_3 C144_3 1_555 1_555
H101_3 C146_3 1_555 1_555
C147_3 C92_3 1_555 1_555
C148_3 C93_3 1_555 1_555
C149_3 C94_3 1_555 1_555
C151_3 C96_3 1_555 1_555
C152_3 C97_3 1_555 1_555
C154_3 C99_3 1_555 1_555
C155_3 C100_3 1_555 1_555
C157_3 C102_3 1_555 1_555
H102_3 C147_3 1_555 1_555
H103_3 C148_3 1_555 1_555
H104_3 C149_3 1_555 1_555
H106_3 C151_3 1_555 1_555
H107_3 C152_3 1_555 1_555
H109_3 C154_3 1_555 1_555
H110_3 C155_3 1_555 1_555
H112_3 C157_3 1_555 1_555
H113_3 C147_3 1_555 1_555
H114_3 C148_3 1_555 1_555
H115_3 C149_3 1_555 1_555
H117_3 C151_3 1_555 1_555
H118_3 C152_3 1_555 1_555
H120_3 C154_3 1_555 1_555
H121_3 C155_3 1_555 1_555
H123_3 C157_3 1_555 1_555
C158_3 C147_3 1_555 1_555
C159_3 C148_3 1_555 1_555
C160_3 C149_3 1_555 1_555
C162_3 C151_3 1_555 1_555
C163_3 C152_3 1_555 1_555
C165_3 C154_3 1_555 1_555
C166_3 C155_3 1_555 1_555
C168_3 C157_3 1_555 1_555
H124_3 C158_3 1_555 1_555
H125_3 C159_3 1_555 1_555
H126_3 C160_3 1_555 1_555
H128_3 C162_3 1_555 1_555
H129_3 C163_3 1_555 1_555
H131_3 C165_3 1_555 1_555
H132_3 C166_3 1_555 1_555
H134_3 C168_3 1_555 1_555
H135_3 C158_3 1_555 1_555
H136_3 C159_3 1_555 1_555
H137_3 C160_3 1_555 1_555
H139_3 C162_3 1_555 1_555
H140_3 C163_3 1_555 1_555
H142_3 C165_3 1_555 1_555
H143_3 C166_3 1_555 1_555
H145_3 C168_3 1_555 1_555
H146_3 C158_3 1_555 1_555
H147_3 C159_3 1_555 1_555
H148_3 C160_3 1_555 1_555
H150_3 C162_3 1_555 1_555
H151_3 C163_3 1_555 1_555
H153_3 C165_3 1_555 1_555
H154_3 C166_3 1_555 1_555
H156_3 C168_3 1_555 1_555
O4_3 Cd13 1_555 1_555
C6_3 C7_3 1_555 1_555
C9_3 C10_3 1_555 1_555
Cd13 O6_3 1_555 1_555
Cd6 O5_3 1_555 1_555
Cd6 O7_3 1_555 1_555
Cd5 O11_3 1_555 1_555
Cd5 O12_3 1_555 1_555
O23_3 C19_3 1_555 1_555
O28_3 C17_3 1_555 1_555
O34_3 C25_3 1_555 1_555
C59_3 C114_3 1_555 1_555
C70_3 C81_3 1_555 1_555
C71_3 C82_3 1_555 1_555
C72_3 C83_3 1_555 1_555
C74_3 C85_3 1_555 1_555
C75_3 C86_3 1_555 1_555
C77_3 C88_3 1_555 1_555
C78_3 C89_3 1_555 1_555
C80_3 C91_3 1_555 1_555
C92_3 C103_3 1_555 1_555
C103_3 C115_3 1_555 1_555
C104_3 C114_3 1_555 1_555
C104_3 C115_3 1_555 1_555
C105_3 C116_3 1_555 1_555
C105_3 C119_3 1_555 1_555
C107_3 C118_3 1_555 1_555
C107_3 C121_3 1_555 1_555
C108_3 C116_3 1_555 1_555
C108_3 C122_3 1_555 1_555
C110_3 C118_3 1_555 1_555
C110_3 C124_3 1_555 1_555
C111_3 C119_3 1_555 1_555
C111_3 C122_3 1_555 1_555
C113_3 C121_3 1_555 1_555
C113_3 C124_3 1_555 1_555
O4_4 Cd11 1_555 1_555
Cd3_3 O4_4 1_555 1_555
Cd4_2 O4_4 1_555 1_555
Cd9_7 O14_4 1_555 1_555
Cd10_7 O14_4 1_555 1_555
Cd8_6 O18_4 1_555 1_555
Cd17_5 O18_4 1_555 1_555
Cd18_7 O19_4 1_555 1_555
O7_4 Cd11 1_555 1_555
O11_4 Cd3_3 1_555 1_555
O12_4 Cd12 1_555 1_555
O14_4 C20_4 1_555 1_555
O6 C21_4 1_555 1_555
O18_4 C24_4 1_555 1_555
O19_4 Cd10_7 1_555 1_555
O23_4 Cd4_2 1_555 1_555
O26_4 Cd12 1_555 1_555
O28_4 Cd3_3 1_555 1_555
O29_4 Cd9_7 1_555 1_555
O33_4 Cd8_6 1_555 1_555
O34_4 Cd10_7 1_555 1_555
C17_4 O7_4 1_555 1_555
C19_4 O11_4 1_555 1_555
C20_4 O29_4 1_555 1_555
C21_4 O20 1_555 1_555
C24_4 O33_4 1_555 1_555
C25_4 O19_4 1_555 1_555
C28_4 C17_4 1_555 1_555
C30_4 C19_4 1_555 1_555
C31_4 C20_4 1_555 1_555
C32_4 C21_4 1_555 1_555
C35_4 C24_4 1_555 1_555
C36_4 C25_4 1_555 1_555
C39_4 C28_4 1_555 1_555
C41_4 C30_4 1_555 1_555
C42_4 C31_4 1_555 1_555
C43_4 C32_4 1_555 1_555
C46_4 C35_4 1_555 1_555
C47_4 C36_4 1_555 1_555
H16_4 C39_4 1_555 1_555
H18_4 C41_4 1_555 1_555
H19_4 C42_4 1_555 1_555
H20_4 C43_4 1_555 1_555
H23_4 C46_4 1_555 1_555
H24_4 C47_4 1_555 1_555
C50_4 C39_4 1_555 1_555
C52_4 C41_4 1_555 1_555
C53_4 C42_4 1_555 1_555
C54_4 C43_4 1_555 1_555
C57_4 C46_4 1_555 1_555
C58_4 C47_4 1_555 1_555
C61_4 C50_4 1_555 1_555
C63_4 C52_4 1_555 1_555
C64_4 C54_4 1_555 1_555
C66_4 C58_4 1_555 1_555
C67_4 C53_4 1_555 1_555
C69_4 C57_4 1_555 1_555
C72_4 C61_4 1_555 1_555
C74_4 C63_4 1_555 1_555
C75_4 C64_4 1_555 1_555
C77_4 C66_4 1_555 1_555
C78_4 C67_4 1_555 1_555
C80_4 C69_4 1_555 1_555
H27_4 C72_4 1_555 1_555
H29_4 C74_4 1_555 1_555
H30_4 C75_4 1_555 1_555
H32_4 C77_4 1_555 1_555
H33_4 C78_4 1_555 1_555
H35_4 C80_4 1_555 1_555
C83_4 C28_4 1_555 1_555
C85_4 C30_4 1_555 1_555
C86_4 C32_4 1_555 1_555
C88_4 C36_4 1_555 1_555
C89_4 C31_4 1_555 1_555
C91_4 C35_4 1_555 1_555
H38_4 C83_4 1_555 1_555
H40_4 C85_4 1_555 1_555
H41_4 C86_4 1_555 1_555
H43_4 C88_4 1_555 1_555
H44_4 C89_4 1_555 1_555
H46_4 C91_4 1_555 1_555
C94_4 C50_4 1_555 1_555
C96_4 C52_4 1_555 1_555
C97_4 C53_4 1_555 1_555
C99_4 C57_4 1_555 1_555
C100_4 C54_4 1_555 1_555
C102_4 C58_4 1_555 1_555
C105_4 C94_4 1_555 1_555
C107_4 C96_4 1_555 1_555
C108_4 C97_4 1_555 1_555
C110_4 C99_4 1_555 1_555
C111_4 C100_4 1_555 1_555
C113_4 C102_4 1_555 1_555
C116_4 C61_4 1_555 1_555
C118_4 C63_4 1_555 1_555
C119_4 C64_4 1_555 1_555
C121_4 C66_4 1_555 1_555
C122_4 C67_4 1_555 1_555
C124_4 C69_4 1_555 1_555
C127_4 C94_4 1_555 1_555
C129_4 C96_4 1_555 1_555
C130_4 C97_4 1_555 1_555
C132_4 C99_4 1_555 1_555
C133_4 C100_4 1_555 1_555
C135_4 C102_4 1_555 1_555
H49_4 C127_4 1_555 1_555
H51_4 C129_4 1_555 1_555
H52_4 C130_4 1_555 1_555
H54_4 C132_4 1_555 1_555
H55_4 C133_4 1_555 1_555
H57_4 C135_4 1_555 1_555
H60_4 C127_4 1_555 1_555
H62_4 C129_4 1_555 1_555
H63_4 C130_4 1_555 1_555
H65_4 C132_4 1_555 1_555
H66_4 C133_4 1_555 1_555
H68_4 C135_4 1_555 1_555
C138_4 C127_4 1_555 1_555
C140_4 C129_4 1_555 1_555
C141_4 C130_4 1_555 1_555
C143_4 C132_4 1_555 1_555
C144_4 C133_4 1_555 1_555
C146_4 C135_4 1_555 1_555
H71_4 C138_4 1_555 1_555
H73_4 C140_4 1_555 1_555
H74_4 C141_4 1_555 1_555
H76_4 C143_4 1_555 1_555
H77_4 C144_4 1_555 1_555
H79_4 C146_4 1_555 1_555
H82_4 C138_4 1_555 1_555
H84_4 C140_4 1_555 1_555
H85_4 C141_4 1_555 1_555
H87_4 C143_4 1_555 1_555
H88_4 C144_4 1_555 1_555
H90_4 C146_4 1_555 1_555
H93_4 C138_4 1_555 1_555
H95_4 C140_4 1_555 1_555
H96_4 C141_4 1_555 1_555
H98_4 C143_4 1_555 1_555
H99_4 C144_4 1_555 1_555
H101_4 C146_4 1_555 1_555
C149_4 C94_4 1_555 1_555
C151_4 C96_4 1_555 1_555
C152_4 C97_4 1_555 1_555
C154_4 C99_4 1_555 1_555
C155_4 C100_4 1_555 1_555
C157_4 C102_4 1_555 1_555
H104_4 C149_4 1_555 1_555
H106_4 C151_4 1_555 1_555
H107_4 C152_4 1_555 1_555
H109_4 C154_4 1_555 1_555
H110_4 C155_4 1_555 1_555
H112_4 C157_4 1_555 1_555
H115_4 C149_4 1_555 1_555
H117_4 C151_4 1_555 1_555
H118_4 C152_4 1_555 1_555
H120_4 C154_4 1_555 1_555
H121_4 C155_4 1_555 1_555
H123_4 C157_4 1_555 1_555
C160_4 C149_4 1_555 1_555
C162_4 C151_4 1_555 1_555
C163_4 C152_4 1_555 1_555
C165_4 C154_4 1_555 1_555
C166_4 C155_4 1_555 1_555
C168_4 C157_4 1_555 1_555
H126_4 C160_4 1_555 1_555
H128_4 C162_4 1_555 1_555
H129_4 C163_4 1_555 1_555
H131_4 C165_4 1_555 1_555
H132_4 C166_4 1_555 1_555
H134_4 C168_4 1_555 1_555
H137_4 C160_4 1_555 1_555
H139_4 C162_4 1_555 1_555
H140_4 C163_4 1_555 1_555
H142_4 C165_4 1_555 1_555
H143_4 C166_4 1_555 1_555
H145_4 C168_4 1_555 1_555
H148_4 C160_4 1_555 1_555
H150_4 C162_4 1_555 1_555
H151_4 C163_4 1_555 1_555
H153_4 C165_4 1_555 1_555
H154_4 C166_4 1_555 1_555
H156_4 C168_4 1_555 1_555
O4_4 Cd12 1_555 1_555
Cd3_3 O7_4 1_555 1_555
Cd4_2 O11_4 1_555 1_555
Cd4_2 O12_4 1_555 1_555
O23_4 C19_4 1_555 1_555
O28_4 C17_4 1_555 1_555
O34_4 C25_4 1_555 1_555
C72_4 C83_4 1_555 1_555
C74_4 C85_4 1_555 1_555
C75_4 C86_4 1_555 1_555
C77_4 C88_4 1_555 1_555
C78_4 C89_4 1_555 1_555
C80_4 C91_4 1_555 1_555
C105_4 C116_4 1_555 1_555
C105_4 C119_4 1_555 1_555
C107_4 C118_4 1_555 1_555
C107_4 C121_4 1_555 1_555
C108_4 C116_4 1_555 1_555
C108_4 C122_4 1_555 1_555
C110_4 C118_4 1_555 1_555
C110_4 C124_4 1_555 1_555
C111_4 C119_4 1_555 1_555
C111_4 C122_4 1_555 1_555
C113_4 C121_4 1_555 1_555
C113_4 C124_4 1_555 1_555
Cd11_2 O2_4 1_555 1_555
O2_4 C1_4 1_555 1_555
O3_4 Cd11_2 1_555 1_555
O4_5 Cd11_2 1_555 1_555
C1_4 O3_4 1_555 1_555
C2_4 C1_4 1_555 1_555
C3_4 C2_4 1_555 1_555
H1_4 C3_4 1_555 1_555
C4_4 C3_4 1_555 1_555
C5_4 C4_4 1_555 1_555
C6_4 C5_4 1_555 1_555
H2_4 C6_4 1_555 1_555
C7_4 C2_4 1_555 1_555
H3_4 C7_4 1_555 1_555
C8_4 C4_4 1_555 1_555
C9_4 C8_4 1_555 1_555
C10_4 C5_4 1_555 1_555
C11_4 C8_4 1_555 1_555
H4_4 C11_4 1_555 1_555
H5_4 C11_4 1_555 1_555
C12_4 C11_4 1_555 1_555
H6_4 C12_4 1_555 1_555
H7_4 C12_4 1_555 1_555
H8_4 C12_4 1_555 1_555
C13_4 C8_4 1_555 1_555
H9_4 C13_4 1_555 1_555
H10_4 C13_4 1_555 1_555
C14_4 C13_4 1_555 1_555
H11_4 C14_4 1_555 1_555
H12_4 C14_4 1_555 1_555
H13_4 C14_4 1_555 1_555
Cd12_2 O2_4 1_555 1_555
Cd3_4 O4_5 1_555 1_555
Cd4_3 O4_5 1_555 1_555
Cd5_2 O8_2 1_555 1_555
Cd6_2 O8_2 1_555 1_555
Cd7_7 O9_4 1_555 1_555
Cd8_7 O9_4 1_555 1_555
Cd13_2 O16_2 1_555 1_555
Cd14_3 O17_2 1_555 1_555
Cd9_4 O17_2 1_555 1_555
O5_4 Cd11_2 1_555 1_555
O8_2 C15_4 1_555 1_555
O9_4 C16_4 1_555 1_555
O10_2 Cd12_2 1_555 1_555
O13_3 Cd3_4 1_555 1_555
O16_2 Cd5_2 1_555 1_555
O17_2 C23_2 1_555 1_555
O21_2 Cd5_2 1_555 1_555
O22_4 Cd7_7 1_555 1_555
O24_3 Cd4_3 1_555 1_555
O25_2 Cd12_2 1_555 1_555
O27_4 Cd3_4 1_555 1_555
O31_2 Cd13_2 1_555 1_555
O32_2 Cd14_3 1_555 1_555
C15_4 O21_2 1_555 1_555
C16_4 O22_4 1_555 1_555
C18_2 O10_2 1_555 1_555
C22_2 O16_2 1_555 1_555
C23_2 O32_2 1_555 1_555
C26_4 C15_4 1_555 1_555
C27_4 C16_4 1_555 1_555
C29_2 C18_2 1_555 1_555
C33_2 C22_2 1_555 1_555
C34_2 C23_2 1_555 1_555
C37_4 C26_4 1_555 1_555
C38_4 C27_4 1_555 1_555
C40_2 C29_2 1_555 1_555
C44_2 C33_2 1_555 1_555
C45_2 C34_2 1_555 1_555
H14_4 C37_4 1_555 1_555
H15_4 C38_4 1_555 1_555
H17_2 C40_2 1_555 1_555
H21_2 C44_2 1_555 1_555
H22_2 C45_2 1_555 1_555
C48_4 C37_4 1_555 1_555
C49_4 C38_4 1_555 1_555
C51_2 C40_2 1_555 1_555
C55_2 C44_2 1_555 1_555
C56_2 C45_2 1_555 1_555
C59_4 C48_4 1_555 1_555
C60_4 C49_4 1_555 1_555
C62_2 C51_2 1_555 1_555
C65_2 C56_2 1_555 1_555
C68_2 C55_2 1_555 1_555
C70_4 C59_4 1_555 1_555
C71_4 C60_4 1_555 1_555
C73_2 C62_2 1_555 1_555
C76_2 C65_2 1_555 1_555
C79_2 C68_2 1_555 1_555
H25_4 C70_4 1_555 1_555
H26_4 C71_4 1_555 1_555
H28_2 C73_2 1_555 1_555
H31_2 C76_2 1_555 1_555
H34_2 C79_2 1_555 1_555
C81_4 C26_4 1_555 1_555
C82_4 C27_4 1_555 1_555
C84_2 C29_2 1_555 1_555
C87_2 C34_2 1_555 1_555
C90_2 C33_2 1_555 1_555
H36_4 C81_4 1_555 1_555
H37_4 C82_4 1_555 1_555
H39_2 C84_2 1_555 1_555
H42_2 C87_2 1_555 1_555
H45_2 C90_2 1_555 1_555
C92_4 C49_4 1_555 1_555
C93_4 C48_4 1_555 1_555
C95_2 C51_2 1_555 1_555
C98_2 C55_2 1_555 1_555
C101_2 C56_2 1_555 1_555
C103_4 C10_4 1_555 1_555
C104_4 C93_4 1_555 1_555
C106_2 C95_2 1_555 1_555
C109_2 C98_2 1_555 1_555
C112_2 C101_2 1_555 1_555
C114_4 C9_4 1_555 1_555
C115_4 C60_4 1_555 1_555
C117_2 C62_2 1_555 1_555
C120_2 C65_2 1_555 1_555
C123_2 C68_2 1_555 1_555
C125_4 C92_4 1_555 1_555
C126_4 C93_4 1_555 1_555
C128_2 C95_2 1_555 1_555
C131_2 C98_2 1_555 1_555
C134_2 C101_2 1_555 1_555
H47_4 C125_4 1_555 1_555
H48_4 C126_4 1_555 1_555
H50_2 C128_2 1_555 1_555
H53_2 C131_2 1_555 1_555
H56_2 C134_2 1_555 1_555
H58_4 C125_4 1_555 1_555
H59_4 C126_4 1_555 1_555
H61_2 C128_2 1_555 1_555
H64_2 C131_2 1_555 1_555
H67_2 C134_2 1_555 1_555
C136_4 C125_4 1_555 1_555
C137_4 C126_4 1_555 1_555
C139_2 C128_2 1_555 1_555
C142_2 C131_2 1_555 1_555
C145_2 C134_2 1_555 1_555
H69_4 C136_4 1_555 1_555
H70_4 C137_4 1_555 1_555
H72_2 C139_2 1_555 1_555
H75_2 C142_2 1_555 1_555
H78_2 C145_2 1_555 1_555
H80_4 C136_4 1_555 1_555
H81_4 C137_4 1_555 1_555
H83_2 C139_2 1_555 1_555
H86_2 C142_2 1_555 1_555
H89_2 C145_2 1_555 1_555
H91_4 C136_4 1_555 1_555
H92_4 C137_4 1_555 1_555
H94_2 C139_2 1_555 1_555
H97_2 C142_2 1_555 1_555
H100_2 C145_2 1_555 1_555
C147_4 C92_4 1_555 1_555
C148_4 C93_4 1_555 1_555
C150_2 C95_2 1_555 1_555
C153_2 C98_2 1_555 1_555
C156_2 C101_2 1_555 1_555
H102_4 C147_4 1_555 1_555
H103_4 C148_4 1_555 1_555
H105_2 C150_2 1_555 1_555
H108_2 C153_2 1_555 1_555
H111_2 C156_2 1_555 1_555
H113_4 C147_4 1_555 1_555
H114_4 C148_4 1_555 1_555
H116_2 C150_2 1_555 1_555
H119_2 C153_2 1_555 1_555
H122_2 C156_2 1_555 1_555
C158_4 C147_4 1_555 1_555
C159_4 C148_4 1_555 1_555
C161_2 C150_2 1_555 1_555
C164_2 C153_2 1_555 1_555
C167_2 C156_2 1_555 1_555
H124_4 C158_4 1_555 1_555
H125_4 C159_4 1_555 1_555
H127_2 C161_2 1_555 1_555
H130_2 C164_2 1_555 1_555
H133_2 C167_2 1_555 1_555
H135_4 C158_4 1_555 1_555
H136_4 C159_4 1_555 1_555
H138_2 C161_2 1_555 1_555
H141_2 C164_2 1_555 1_555
H144_2 C167_2 1_555 1_555
H146_4 C158_4 1_555 1_555
H147_4 C159_4 1_555 1_555
H149_2 C161_2 1_555 1_555
H152_2 C164_2 1_555 1_555
H155_2 C167_2 1_555 1_555
O4_5 Cd12_2 1_555 1_555
C6_4 C7_4 1_555 1_555
C9_4 C10_4 1_555 1_555
Cd3_4 O5_4 1_555 1_555
Cd4_3 O10_2 1_555 1_555
Cd4_3 O13_3 1_555 1_555
O25_2 C18_2 1_555 1_555
O31_2 C22_2 1_555 1_555
C59_4 C114_4 1_555 1_555
C70_4 C81_4 1_555 1_555
C71_4 C82_4 1_555 1_555
C73_2 C84_2 1_555 1_555
C76_2 C87_2 1_555 1_555
C79_2 C90_2 1_555 1_555
C92_4 C103_4 1_555 1_555
C103_4 C115_4 1_555 1_555
C104_4 C114_4 1_555 1_555
C104_4 C115_4 1_555 1_555
C106_2 C117_2 1_555 1_555
C106_2 C120_2 1_555 1_555
C109_2 C117_2 1_555 1_555
C109_2 C123_2 1_555 1_555
C112_2 C120_2 1_555 1_555
C112_2 C123_2 1_555 1_555
Cd1_4 O2_5 1_555 1_555
O2_5 C1_5 1_555 1_555
O3_5 Cd1_4 1_555 1_555
O4_6 Cd1_4 1_555 1_555
C1_5 O3_5 1_555 1_555
C2_5 C1_5 1_555 1_555
C3_5 C2_5 1_555 1_555
H1_5 C3_5 1_555 1_555
C4_5 C3_5 1_555 1_555
C5_5 C4_5 1_555 1_555
C6_5 C5_5 1_555 1_555
H2_5 C6_5 1_555 1_555
C7_5 C2_5 1_555 1_555
H3_5 C7_5 1_555 1_555
C8_5 C4_5 1_555 1_555
C9_5 C8_5 1_555 1_555
C10_5 C5_5 1_555 1_555
C11_5 C8_5 1_555 1_555
H4_5 C11_5 1_555 1_555
H5_5 C11_5 1_555 1_555
C12_5 C11_5 1_555 1_555
H6_5 C12_5 1_555 1_555
H7_5 C12_5 1_555 1_555
H8_5 C12_5 1_555 1_555
C13_5 C8_5 1_555 1_555
H9_5 C13_5 1_555 1_555
H10_5 C13_5 1_555 1_555
C14_5 C13_5 1_555 1_555
H11_5 C14_5 1_555 1_555
H12_5 C14_5 1_555 1_555
H13_5 C14_5 1_555 1_555
Cd2_2 O2_5 1_555 1_555
Cd3_5 O4_6 1_555 1_555
Cd4_4 O4_6 1_555 1_555
Cd9_2 O8_3 1_555 1_555
Cd10_2 O8_3 1_555 1_555
Cd7_8 O9_5 1_555 1_555
Cd16_3 O9_5 1_555 1_555
Cd13_5 O16_3 1_555 1_555
Cd12_6 O17_3 1_555 1_555
Cd15_3 O17_3 1_555 1_555
O5_5 Cd1_4 1_555 1_555
O8_3 C15_5 1_555 1_555
O9_5 C16_5 1_555 1_555
O10_3 Cd2_2 1_555 1_555
O13_4 Cd3_5 1_555 1_555
O16_3 Cd9_2 1_555 1_555
O17_3 C23_3 1_555 1_555
O21_3 Cd9_2 1_555 1_555
O22_5 Cd7_8 1_555 1_555
O24_4 Cd4_4 1_555 1_555
O25_3 Cd2_2 1_555 1_555
O27_5 Cd3_5 1_555 1_555
O31_3 Cd13_5 1_555 1_555
O32_3 Cd12_6 1_555 1_555
C15_5 O21_3 1_555 1_555
C16_5 O22_5 1_555 1_555
C18_3 O10_3 1_555 1_555
C22_3 O16_3 1_555 1_555
C23_3 O32_3 1_555 1_555
C26_5 C15_5 1_555 1_555
C27_5 C16_5 1_555 1_555
C29_3 C18_3 1_555 1_555
C33_3 C22_3 1_555 1_555
C34_3 C23_3 1_555 1_555
C37_5 C26_5 1_555 1_555
C38_5 C27_5 1_555 1_555
C40_3 C29_3 1_555 1_555
C44_3 C33_3 1_555 1_555
C45_3 C34_3 1_555 1_555
H14_5 C37_5 1_555 1_555
H15_5 C38_5 1_555 1_555
H17_3 C40_3 1_555 1_555
H21_3 C44_3 1_555 1_555
H22_3 C45_3 1_555 1_555
C48_5 C37_5 1_555 1_555
C49_5 C38_5 1_555 1_555
C51_3 C40_3 1_555 1_555
C55_3 C44_3 1_555 1_555
C56_3 C45_3 1_555 1_555
C59_5 C48_5 1_555 1_555
C60_5 C49_5 1_555 1_555
C62_3 C51_3 1_555 1_555
C65_3 C56_3 1_555 1_555
C68_3 C55_3 1_555 1_555
C70_5 C59_5 1_555 1_555
C71_5 C60_5 1_555 1_555
C73_3 C62_3 1_555 1_555
C76_3 C65_3 1_555 1_555
C79_3 C68_3 1_555 1_555
H25_5 C70_5 1_555 1_555
H26_5 C71_5 1_555 1_555
H28_3 C73_3 1_555 1_555
H31_3 C76_3 1_555 1_555
H34_3 C79_3 1_555 1_555
C81_5 C26_5 1_555 1_555
C82_5 C27_5 1_555 1_555
C84_3 C29_3 1_555 1_555
C87_3 C34_3 1_555 1_555
C90_3 C33_3 1_555 1_555
H36_5 C81_5 1_555 1_555
H37_5 C82_5 1_555 1_555
H39_3 C84_3 1_555 1_555
H42_3 C87_3 1_555 1_555
H45_3 C90_3 1_555 1_555
C92_5 C49_5 1_555 1_555
C93_5 C48_5 1_555 1_555
C95_3 C51_3 1_555 1_555
C98_3 C55_3 1_555 1_555
C101_3 C56_3 1_555 1_555
C103_5 C10_5 1_555 1_555
C104_5 C93_5 1_555 1_555
C106_3 C95_3 1_555 1_555
C109_3 C98_3 1_555 1_555
C112_3 C101_3 1_555 1_555
C114_5 C9_5 1_555 1_555
C115_5 C60_5 1_555 1_555
C117_3 C62_3 1_555 1_555
C120_3 C65_3 1_555 1_555
C123_3 C68_3 1_555 1_555
C125_5 C92_5 1_555 1_555
C126_5 C93_5 1_555 1_555
C128_3 C95_3 1_555 1_555
C131_3 C98_3 1_555 1_555
C134_3 C101_3 1_555 1_555
H47_5 C125_5 1_555 1_555
H48_5 C126_5 1_555 1_555
H50_3 C128_3 1_555 1_555
H53_3 C131_3 1_555 1_555
H56_3 C134_3 1_555 1_555
H58_5 C125_5 1_555 1_555
H59_5 C126_5 1_555 1_555
H61_3 C128_3 1_555 1_555
H64_3 C131_3 1_555 1_555
H67_3 C134_3 1_555 1_555
C136_5 C125_5 1_555 1_555
C137_5 C126_5 1_555 1_555
C139_3 C128_3 1_555 1_555
C142_3 C131_3 1_555 1_555
C145_3 C134_3 1_555 1_555
H69_5 C136_5 1_555 1_555
H70_5 C137_5 1_555 1_555
H72_3 C139_3 1_555 1_555
H75_3 C142_3 1_555 1_555
H78_3 C145_3 1_555 1_555
H80_5 C136_5 1_555 1_555
H81_5 C137_5 1_555 1_555
H83_3 C139_3 1_555 1_555
H86_3 C142_3 1_555 1_555
H89_3 C145_3 1_555 1_555
H91_5 C136_5 1_555 1_555
H92_5 C137_5 1_555 1_555
H94_3 C139_3 1_555 1_555
H97_3 C142_3 1_555 1_555
H100_3 C145_3 1_555 1_555
C147_5 C92_5 1_555 1_555
C148_5 C93_5 1_555 1_555
C150_3 C95_3 1_555 1_555
C153_3 C98_3 1_555 1_555
C156_3 C101_3 1_555 1_555
H102_5 C147_5 1_555 1_555
H103_5 C148_5 1_555 1_555
H105_3 C150_3 1_555 1_555
H108_3 C153_3 1_555 1_555
H111_3 C156_3 1_555 1_555
H113_5 C147_5 1_555 1_555
H114_5 C148_5 1_555 1_555
H116_3 C150_3 1_555 1_555
H119_3 C153_3 1_555 1_555
H122_3 C156_3 1_555 1_555
C158_5 C147_5 1_555 1_555
C159_5 C148_5 1_555 1_555
C161_3 C150_3 1_555 1_555
C164_3 C153_3 1_555 1_555
C167_3 C156_3 1_555 1_555
H124_5 C158_5 1_555 1_555
H125_5 C159_5 1_555 1_555
H127_3 C161_3 1_555 1_555
H130_3 C164_3 1_555 1_555
H133_3 C167_3 1_555 1_555
H135_5 C158_5 1_555 1_555
H136_5 C159_5 1_555 1_555
H138_3 C161_3 1_555 1_555
H141_3 C164_3 1_555 1_555
H144_3 C167_3 1_555 1_555
H146_5 C158_5 1_555 1_555
H147_5 C159_5 1_555 1_555
H149_3 C161_3 1_555 1_555
H152_3 C164_3 1_555 1_555
H155_3 C167_3 1_555 1_555
O4_6 Cd2_2 1_555 1_555
C6_5 C7_5 1_555 1_555
C9_5 C10_5 1_555 1_555
Cd3_5 O5_5 1_555 1_555
Cd4_4 O10_3 1_555 1_555
Cd4_4 O13_4 1_555 1_555
O25_3 C18_3 1_555 1_555
O31_3 C22_3 1_555 1_555
C59_5 C114_5 1_555 1_555
C70_5 C81_5 1_555 1_555
C71_5 C82_5 1_555 1_555
C73_3 C84_3 1_555 1_555
C76_3 C87_3 1_555 1_555
C79_3 C90_3 1_555 1_555
C92_5 C103_5 1_555 1_555
C103_5 C115_5 1_555 1_555
C104_5 C114_5 1_555 1_555
C104_5 C115_5 1_555 1_555
C106_3 C117_3 1_555 1_555
C106_3 C120_3 1_555 1_555
C109_3 C117_3 1_555 1_555
C109_3 C123_3 1_555 1_555
C112_3 C120_3 1_555 1_555
C112_3 C123_3 1_555 1_555
O4_7 Cd1_5 1_555 1_555
Cd3_6 O4_7 1_555 1_555
Cd4_5 O4_7 1_555 1_555
Cd9_8 O14_5 1_555 1_555
Cd10_8 O14_5 1_555 1_555
Cd11_7 O15_4 1_555 1_555
Cd12_7 O15_4 1_555 1_555
Cd16_5 O18_5 1_555 1_555
Cd17_7 O18_5 1_555 1_555
Cd18_8 O19_5 1_555 1_555
O6_4 Cd1_5 1_555 1_555
O7_5 Cd1_5 1_555 1_555
O11_5 Cd3_6 1_555 1_555
O12_5 Cd2_3 1_555 1_555
O14_5 C20_5 1_555 1_555
O15_4 C21_5 1_555 1_555
O18_5 C24_5 1_555 1_555
O19_5 Cd10_8 1_555 1_555
O20_4 Cd1_5 1_555 1_555
O23_5 Cd4_5 1_555 1_555
O26_5 Cd2_3 1_555 1_555
O28_5 Cd3_6 1_555 1_555
O29_5 Cd9_8 1_555 1_555
O30_4 Cd11_7 1_555 1_555
O33_5 Cd16_5 1_555 1_555
O34_5 Cd10_8 1_555 1_555
C17_5 O7_5 1_555 1_555
C19_5 O11_5 1_555 1_555
C20_5 O29_5 1_555 1_555
C21_5 O30_4 1_555 1_555
C24_5 O33_5 1_555 1_555
C25_5 O19_5 1_555 1_555
C28_5 C17_5 1_555 1_555
C30_5 C19_5 1_555 1_555
C31_5 C20_5 1_555 1_555
C32_5 C21_5 1_555 1_555
C35_5 C24_5 1_555 1_555
C36_5 C25_5 1_555 1_555
C39_5 C28_5 1_555 1_555
C41_5 C30_5 1_555 1_555
C42_5 C31_5 1_555 1_555
C43_5 C32_5 1_555 1_555
C46_5 C35_5 1_555 1_555
C47_5 C36_5 1_555 1_555
H16_5 C39_5 1_555 1_555
H18_5 C41_5 1_555 1_555
H19_5 C42_5 1_555 1_555
H20_5 C43_5 1_555 1_555
H23_5 C46_5 1_555 1_555
H24_5 C47_5 1_555 1_555
C50_5 C39_5 1_555 1_555
C52_5 C41_5 1_555 1_555
C53_5 C42_5 1_555 1_555
C54_5 C43_5 1_555 1_555
C57_5 C46_5 1_555 1_555
C58_5 C47_5 1_555 1_555
C61_5 C50_5 1_555 1_555
C63_5 C52_5 1_555 1_555
C64_5 C54_5 1_555 1_555
C66_5 C58_5 1_555 1_555
C67_5 C53_5 1_555 1_555
C69_5 C57_5 1_555 1_555
C72_5 C61_5 1_555 1_555
C74_5 C63_5 1_555 1_555
C75_5 C64_5 1_555 1_555
C77_5 C66_5 1_555 1_555
C78_5 C67_5 1_555 1_555
C80_5 C69_5 1_555 1_555
H27_5 C72_5 1_555 1_555
H29_5 C74_5 1_555 1_555
H30_5 C75_5 1_555 1_555
H32_5 C77_5 1_555 1_555
H33_5 C78_5 1_555 1_555
H35_5 C80_5 1_555 1_555
C83_5 C28_5 1_555 1_555
C85_5 C30_5 1_555 1_555
C86_5 C32_5 1_555 1_555
C88_5 C36_5 1_555 1_555
C89_5 C31_5 1_555 1_555
C91_5 C35_5 1_555 1_555
H38_5 C83_5 1_555 1_555
H40_5 C85_5 1_555 1_555
H41_5 C86_5 1_555 1_555
H43_5 C88_5 1_555 1_555
H44_5 C89_5 1_555 1_555
H46_5 C91_5 1_555 1_555
C94_5 C50_5 1_555 1_555
C96_5 C52_5 1_555 1_555
C97_5 C53_5 1_555 1_555
C99_5 C57_5 1_555 1_555
C100_5 C54_5 1_555 1_555
C102_5 C58_5 1_555 1_555
C105_5 C94_5 1_555 1_555
C107_5 C96_5 1_555 1_555
C108_5 C97_5 1_555 1_555
C110_5 C99_5 1_555 1_555
C111_5 C100_5 1_555 1_555
C113_5 C102_5 1_555 1_555
C116_5 C61_5 1_555 1_555
C118_5 C63_5 1_555 1_555
C119_5 C64_5 1_555 1_555
C121_5 C66_5 1_555 1_555
C122_5 C67_5 1_555 1_555
C124_5 C69_5 1_555 1_555
C127_5 C94_5 1_555 1_555
C129_5 C96_5 1_555 1_555
C130_5 C97_5 1_555 1_555
C132_5 C99_5 1_555 1_555
C133_5 C100_5 1_555 1_555
C135_5 C102_5 1_555 1_555
H49_5 C127_5 1_555 1_555
H51_5 C129_5 1_555 1_555
H52_5 C130_5 1_555 1_555
H54_5 C132_5 1_555 1_555
H55_5 C133_5 1_555 1_555
H57_5 C135_5 1_555 1_555
H60_5 C127_5 1_555 1_555
H62_5 C129_5 1_555 1_555
H63_5 C130_5 1_555 1_555
H65_5 C132_5 1_555 1_555
H66_5 C133_5 1_555 1_555
H68_5 C135_5 1_555 1_555
C138_5 C127_5 1_555 1_555
C140_5 C129_5 1_555 1_555
C141_5 C130_5 1_555 1_555
C143_5 C132_5 1_555 1_555
C144_5 C133_5 1_555 1_555
C146_5 C135_5 1_555 1_555
H71_5 C138_5 1_555 1_555
H73_5 C140_5 1_555 1_555
H74_5 C141_5 1_555 1_555
H76_5 C143_5 1_555 1_555
H77_5 C144_5 1_555 1_555
H79_5 C146_5 1_555 1_555
H82_5 C138_5 1_555 1_555
H84_5 C140_5 1_555 1_555
H85_5 C141_5 1_555 1_555
H87_5 C143_5 1_555 1_555
H88_5 C144_5 1_555 1_555
H90_5 C146_5 1_555 1_555
H93_5 C138_5 1_555 1_555
H95_5 C140_5 1_555 1_555
H96_5 C141_5 1_555 1_555
H98_5 C143_5 1_555 1_555
H99_5 C144_5 1_555 1_555
H101_5 C146_5 1_555 1_555
C149_5 C94_5 1_555 1_555
C151_5 C96_5 1_555 1_555
C152_5 C97_5 1_555 1_555
C154_5 C99_5 1_555 1_555
C155_5 C100_5 1_555 1_555
C157_5 C102_5 1_555 1_555
H104_5 C149_5 1_555 1_555
H106_5 C151_5 1_555 1_555
H107_5 C152_5 1_555 1_555
H109_5 C154_5 1_555 1_555
H110_5 C155_5 1_555 1_555
H112_5 C157_5 1_555 1_555
H115_5 C149_5 1_555 1_555
H117_5 C151_5 1_555 1_555
H118_5 C152_5 1_555 1_555
H120_5 C154_5 1_555 1_555
H121_5 C155_5 1_555 1_555
H123_5 C157_5 1_555 1_555
C160_5 C149_5 1_555 1_555
C162_5 C151_5 1_555 1_555
C163_5 C152_5 1_555 1_555
C165_5 C154_5 1_555 1_555
C166_5 C155_5 1_555 1_555
C168_5 C157_5 1_555 1_555
H126_5 C160_5 1_555 1_555
H128_5 C162_5 1_555 1_555
H129_5 C163_5 1_555 1_555
H131_5 C165_5 1_555 1_555
H132_5 C166_5 1_555 1_555
H134_5 C168_5 1_555 1_555
H137_5 C160_5 1_555 1_555
H139_5 C162_5 1_555 1_555
H140_5 C163_5 1_555 1_555
H142_5 C165_5 1_555 1_555
H143_5 C166_5 1_555 1_555
H145_5 C168_5 1_555 1_555
H148_5 C160_5 1_555 1_555
H150_5 C162_5 1_555 1_555
H151_5 C163_5 1_555 1_555
H153_5 C165_5 1_555 1_555
H154_5 C166_5 1_555 1_555
H156_5 C168_5 1_555 1_555
O4_7 Cd2_3 1_555 1_555
Cd2_3 O6_4 1_555 1_555
Cd3_6 O7_5 1_555 1_555
Cd4_5 O11_5 1_555 1_555
Cd4_5 O12_5 1_555 1_555
O23_5 C19_5 1_555 1_555
O28_5 C17_5 1_555 1_555
O34_5 C25_5 1_555 1_555
C72_5 C83_5 1_555 1_555
C74_5 C85_5 1_555 1_555
C75_5 C86_5 1_555 1_555
C77_5 C88_5 1_555 1_555
C78_5 C89_5 1_555 1_555
C80_5 C91_5 1_555 1_555
C105_5 C116_5 1_555 1_555
C105_5 C119_5 1_555 1_555
C107_5 C118_5 1_555 1_555
C107_5 C121_5 1_555 1_555
C108_5 C116_5 1_555 1_555
C108_5 C122_5 1_555 1_555
C110_5 C118_5 1_555 1_555
C110_5 C124_5 1_555 1_555
C111_5 C119_5 1_555 1_555
C111_5 C122_5 1_555 1_555
C113_5 C121_5 1_555 1_555
C113_5 C124_5 1_555 1_555
O4_8 Cd18_5 1_555 1_555
Cd10_5 O4_8 1_555 1_555
Cd9_5 O4_8 1_555 1_555
O6_5 Cd18_5 1_555 1_555
O12_6 Cd2_4 1_555 1_555
O20_5 Cd18_5 1_555 1_555
O26_6 Cd2_4 1_555 1_555
O4_8 Cd2_4 1_555 1_555
Cd2_4 O6_5 1_555 1_555
Cd9_5 O12_6 1_555 1_555
Cd18_6 O2_6 1_555 1_555
O2_6 C1_6 1_555 1_555
O3_6 Cd18_6 1_555 1_555
O4_9 Cd18_6 1_555 1_555
C1_6 O3_6 1_555 1_555
C2_6 C1_6 1_555 1_555
C3_6 C2_6 1_555 1_555
H1_6 C3_6 1_555 1_555
C4_6 C3_6 1_555 1_555
C5_6 C4_6 1_555 1_555
C6_6 C5_6 1_555 1_555
H2_6 C6_6 1_555 1_555
C7_6 C2_6 1_555 1_555
H3_6 C7_6 1_555 1_555
C8_6 C4_6 1_555 1_555
C9_6 C8_6 1_555 1_555
C10_6 C5_6 1_555 1_555
C11_6 C8_6 1_555 1_555
H4_6 C11_6 1_555 1_555
H5_6 C11_6 1_555 1_555
C12_6 C11_6 1_555 1_555
H6_6 C12_6 1_555 1_555
H7_6 C12_6 1_555 1_555
H8_6 C12_6 1_555 1_555
C13_6 C8_6 1_555 1_555
H9_6 C13_6 1_555 1_555
H10_6 C13_6 1_555 1_555
C14_6 C13_6 1_555 1_555
H11_6 C14_6 1_555 1_555
H12_6 C14_6 1_555 1_555
H13_6 C14_6 1_555 1_555
Cd2_5 O2_6 1_555 1_555
Cd10_6 O4_9 1_555 1_555
Cd9_6 O4_9 1_555 1_555
Cd5_5 O8_4 1_555 1_555
Cd6_5 O8_4 1_555 1_555
Cd7_9 O9_6 1_555 1_555
Cd11_7 O9_6 1_555 1_555
Cd12_4 O16_4 1_555 1_555
Cd17_6 O17_4 1_555 1_555
Cd15_4 O17_4 1_555 1_555
O5_6 Cd18_6 1_555 1_555
O8_4 C15_6 1_555 1_555
O9_6 C16_6 1_555 1_555
O10_4 Cd2_5 1_555 1_555
O13_5 Cd10_6 1_555 1_555
O16_4 Cd5_5 1_555 1_555
O17_4 C23_4 1_555 1_555
O21_4 Cd5_5 1_555 1_555
O22_6 Cd7_9 1_555 1_555
O24_5 Cd9_6 1_555 1_555
O25_4 Cd2_5 1_555 1_555
O27_6 Cd10_6 1_555 1_555
O31_4 Cd12_4 1_555 1_555
O32_4 Cd17_6 1_555 1_555
C15_6 O21_4 1_555 1_555
C16_6 O22_6 1_555 1_555
C18_4 O10_4 1_555 1_555
C22_4 O16_4 1_555 1_555
C23_4 O32_4 1_555 1_555
C26_6 C15_6 1_555 1_555
C27_6 C16_6 1_555 1_555
C29_4 C18_4 1_555 1_555
C33_4 C22_4 1_555 1_555
C34_4 C23_4 1_555 1_555
C37_6 C26_6 1_555 1_555
C38_6 C27_6 1_555 1_555
C40_4 C29_4 1_555 1_555
C44_4 C33_4 1_555 1_555
C45_4 C34_4 1_555 1_555
H14_6 C37_6 1_555 1_555
H15_6 C38_6 1_555 1_555
H17_4 C40_4 1_555 1_555
H21_4 C44_4 1_555 1_555
H22_4 C45_4 1_555 1_555
C48_6 C37_6 1_555 1_555
C49_6 C38_6 1_555 1_555
C51_4 C40_4 1_555 1_555
C55_4 C44_4 1_555 1_555
C56_4 C45_4 1_555 1_555
C59_6 C48_6 1_555 1_555
C60_6 C49_6 1_555 1_555
C62_4 C51_4 1_555 1_555
C65_4 C56_4 1_555 1_555
C68_4 C55_4 1_555 1_555
C70_6 C59_6 1_555 1_555
C71_6 C60_6 1_555 1_555
C73_4 C62_4 1_555 1_555
C76_4 C65_4 1_555 1_555
C79_4 C68_4 1_555 1_555
H25_6 C70_6 1_555 1_555
H26_6 C71_6 1_555 1_555
H28_4 C73_4 1_555 1_555
H31_4 C76_4 1_555 1_555
H34_4 C79_4 1_555 1_555
C81_6 C26_6 1_555 1_555
C82_6 C27_6 1_555 1_555
C84_4 C29_4 1_555 1_555
C87_4 C34_4 1_555 1_555
C90_4 C33_4 1_555 1_555
H36_6 C81_6 1_555 1_555
H37_6 C82_6 1_555 1_555
H39_4 C84_4 1_555 1_555
H42_4 C87_4 1_555 1_555
H45_4 C90_4 1_555 1_555
C92_6 C49_6 1_555 1_555
C93_6 C48_6 1_555 1_555
C95_4 C51_4 1_555 1_555
C98_4 C55_4 1_555 1_555
C101_4 C56_4 1_555 1_555
C103_6 C10_6 1_555 1_555
C104_6 C93_6 1_555 1_555
C106_4 C95_4 1_555 1_555
C109_4 C98_4 1_555 1_555
C112_4 C101_4 1_555 1_555
C114_6 C9_6 1_555 1_555
C115_6 C60_6 1_555 1_555
C117_4 C62_4 1_555 1_555
C120_4 C65_4 1_555 1_555
C123_4 C68_4 1_555 1_555
C125_6 C92_6 1_555 1_555
C126_6 C93_6 1_555 1_555
C128_4 C95_4 1_555 1_555
C131_4 C98_4 1_555 1_555
C134_4 C101_4 1_555 1_555
H47_6 C125_6 1_555 1_555
H48_6 C126_6 1_555 1_555
H50_4 C128_4 1_555 1_555
H53_4 C131_4 1_555 1_555
H56_4 C134_4 1_555 1_555
H58_6 C125_6 1_555 1_555
H59_6 C126_6 1_555 1_555
H61_4 C128_4 1_555 1_555
H64_4 C131_4 1_555 1_555
H67_4 C134_4 1_555 1_555
C136_6 C125_6 1_555 1_555
C137_6 C126_6 1_555 1_555
C139_4 C128_4 1_555 1_555
C142_4 C131_4 1_555 1_555
C145_4 C134_4 1_555 1_555
H69_6 C136_6 1_555 1_555
H70_6 C137_6 1_555 1_555
H72_4 C139_4 1_555 1_555
H75_4 C142_4 1_555 1_555
H78_4 C145_4 1_555 1_555
H80_6 C136_6 1_555 1_555
H81_6 C137_6 1_555 1_555
H83_4 C139_4 1_555 1_555
H86_4 C142_4 1_555 1_555
H89_4 C145_4 1_555 1_555
H91_6 C136_6 1_555 1_555
H92_6 C137_6 1_555 1_555
H94_4 C139_4 1_555 1_555
H97_4 C142_4 1_555 1_555
H100_4 C145_4 1_555 1_555
C147_6 C92_6 1_555 1_555
C148_6 C93_6 1_555 1_555
C150_4 C95_4 1_555 1_555
C153_4 C98_4 1_555 1_555
C156_4 C101_4 1_555 1_555
H102_6 C147_6 1_555 1_555
H103_6 C148_6 1_555 1_555
H105_4 C150_4 1_555 1_555
H108_4 C153_4 1_555 1_555
H111_4 C156_4 1_555 1_555
H113_6 C147_6 1_555 1_555
H114_6 C148_6 1_555 1_555
H116_4 C150_4 1_555 1_555
H119_4 C153_4 1_555 1_555
H122_4 C156_4 1_555 1_555
C158_6 C147_6 1_555 1_555
C159_6 C148_6 1_555 1_555
C161_4 C150_4 1_555 1_555
C164_4 C153_4 1_555 1_555
C167_4 C156_4 1_555 1_555
H124_6 C158_6 1_555 1_555
H125_6 C159_6 1_555 1_555
H127_4 C161_4 1_555 1_555
H130_4 C164_4 1_555 1_555
H133_4 C167_4 1_555 1_555
H135_6 C158_6 1_555 1_555
H136_6 C159_6 1_555 1_555
H138_4 C161_4 1_555 1_555
H141_4 C164_4 1_555 1_555
H144_4 C167_4 1_555 1_555
H146_6 C158_6 1_555 1_555
H147_6 C159_6 1_555 1_555
H149_4 C161_4 1_555 1_555
H152_4 C164_4 1_555 1_555
H155_4 C167_4 1_555 1_555
O4_9 Cd2_5 1_555 1_555
C6_6 C7_6 1_555 1_555
C9_6 C10_6 1_555 1_555
Cd10_6 O5_6 1_555 1_555
Cd9_6 O10_4 1_555 1_555
Cd9_6 O13_5 1_555 1_555
O25_4 C18_4 1_555 1_555
O31_4 C22_4 1_555 1_555
C59_6 C114_6 1_555 1_555
C70_6 C81_6 1_555 1_555
C71_6 C82_6 1_555 1_555
C73_4 C84_4 1_555 1_555
C76_4 C87_4 1_555 1_555
C79_4 C90_4 1_555 1_555
C92_6 C103_6 1_555 1_555
C103_6 C115_6 1_555 1_555
C104_6 C114_6 1_555 1_555
C104_6 C115_6 1_555 1_555
C106_4 C117_4 1_555 1_555
C106_4 C120_4 1_555 1_555
C109_4 C117_4 1_555 1_555
C109_4 C123_4 1_555 1_555
C112_4 C120_4 1_555 1_555
C112_4 C123_4 1_555 1_555
O4_10 Cd18_3 1_555 1_555
Cd10_3 O4_10 1_555 1_555
Cd9_3 O4_10 1_555 1_555
O6_6 Cd18_3 1_555 1_555
O12_7 Cd14_2 1_555 1_555
O20_6 Cd18_3 1_555 1_555
O26_7 Cd14_2 1_555 1_555
O4_10 Cd14_2 1_555 1_555
Cd14_2 O6_6 1_555 1_555
Cd9_3 O12_7 1_555 1_555
Cd18_4 O2_7 1_555 1_555
O2_7 C1_7 1_555 1_555
O3_7 Cd18_4 1_555 1_555
O4_11 Cd18_4 1_555 1_555
C1_7 O3_7 1_555 1_555
C2_7 C1_7 1_555 1_555
C3_7 C2_7 1_555 1_555
H1_7 C3_7 1_555 1_555
C4_7 C3_7 1_555 1_555
C5_7 C4_7 1_555 1_555
C6_7 C5_7 1_555 1_555
H2_7 C6_7 1_555 1_555
C7_7 C2_7 1_555 1_555
H3_7 C7_7 1_555 1_555
C8_7 C4_7 1_555 1_555
C9_7 C8_7 1_555 1_555
C10_7 C5_7 1_555 1_555
C11_7 C8_7 1_555 1_555
H4_7 C11_7 1_555 1_555
H5_7 C11_7 1_555 1_555
C12_7 C11_7 1_555 1_555
H6_7 C12_7 1_555 1_555
H7_7 C12_7 1_555 1_555
H8_7 C12_7 1_555 1_555
C13_7 C8_7 1_555 1_555
H9_7 C13_7 1_555 1_555
H10_7 C13_7 1_555 1_555
C14_7 C13_7 1_555 1_555
H11_7 C14_7 1_555 1_555
H12_7 C14_7 1_555 1_555
H13_7 C14_7 1_555 1_555
Cd14_3 O2_7 1_555 1_555
Cd10_4 O4_11 1_555 1_555
Cd9_4 O4_11 1_555 1_555
Cd10_8 O9_7 1_555 1_555
Cd18_8 O9_7 1_555 1_555
O5_7 Cd18_4 1_555 1_555
O13_3 C15_7 1_555 1_555
O9_7 C16_7 1_555 1_555
O13_6 Cd10_4 1_555 1_555
O22_7 Cd10_8 1_555 1_555
O24_6 Cd9_4 1_555 1_555
O27_7 Cd10_4 1_555 1_555
C15_7 O24_3 1_555 1_555
C16_7 O22_7 1_555 1_555
C26_7 C15_7 1_555 1_555
C27_7 C16_7 1_555 1_555
C37_7 C26_7 1_555 1_555
C38_7 C27_7 1_555 1_555
H14_7 C37_7 1_555 1_555
H15_7 C38_7 1_555 1_555
C48_7 C37_7 1_555 1_555
C49_7 C38_7 1_555 1_555
C59_7 C48_7 1_555 1_555
C60_7 C49_7 1_555 1_555
C70_7 C59_7 1_555 1_555
C71_7 C60_7 1_555 1_555
H25_7 C70_7 1_555 1_555
H26_7 C71_7 1_555 1_555
C81_7 C26_7 1_555 1_555
C82_7 C27_7 1_555 1_555
H36_7 C81_7 1_555 1_555
H37_7 C82_7 1_555 1_555
C92_7 C49_7 1_555 1_555
C93_7 C48_7 1_555 1_555
C103_7 C10_7 1_555 1_555
C104_7 C93_7 1_555 1_555
C114_7 C9_7 1_555 1_555
C115_7 C60_7 1_555 1_555
C125_7 C92_7 1_555 1_555
C126_7 C93_7 1_555 1_555
H47_7 C125_7 1_555 1_555
H48_7 C126_7 1_555 1_555
H58_7 C125_7 1_555 1_555
H59_7 C126_7 1_555 1_555
C136_7 C125_7 1_555 1_555
C137_7 C126_7 1_555 1_555
H69_7 C136_7 1_555 1_555
H70_7 C137_7 1_555 1_555
H80_7 C136_7 1_555 1_555
H81_7 C137_7 1_555 1_555
H91_7 C136_7 1_555 1_555
H92_7 C137_7 1_555 1_555
C147_7 C92_7 1_555 1_555
C148_7 C93_7 1_555 1_555
H102_7 C147_7 1_555 1_555
H103_7 C148_7 1_555 1_555
H113_7 C147_7 1_555 1_555
H114_7 C148_7 1_555 1_555
C158_7 C147_7 1_555 1_555
C159_7 C148_7 1_555 1_555
H124_7 C158_7 1_555 1_555
H125_7 C159_7 1_555 1_555
H135_7 C158_7 1_555 1_555
H136_7 C159_7 1_555 1_555
H146_7 C158_7 1_555 1_555
H147_7 C159_7 1_555 1_555
O4_11 Cd14_3 1_555 1_555
C6_7 C7_7 1_555 1_555
C9_7 C10_7 1_555 1_555
Cd10_4 O5_7 1_555 1_555
Cd9_4 O13_6 1_555 1_555
C59_7 C114_7 1_555 1_555
C70_7 C81_7 1_555 1_555
C71_7 C82_7 1_555 1_555
C92_7 C103_7 1_555 1_555
C103_7 C115_7 1_555 1_555
C104_7 C114_7 1_555 1_555
C104_7 C115_7 1_555 1_555
Cd16_4 O2_8 1_555 1_555
O2_8 C1_8 1_555 1_555
O3_8 Cd16_4 1_555 1_555
O4_12 Cd16_4 1_555 1_555
C1_8 O3_8 1_555 1_555
C2_8 C1_8 1_555 1_555
C3_8 C2_8 1_555 1_555
H1_8 C3_8 1_555 1_555
C4_8 C3_8 1_555 1_555
C5_8 C4_8 1_555 1_555
C6_8 C5_8 1_555 1_555
H2_8 C6_8 1_555 1_555
C7_8 C2_8 1_555 1_555
H3_8 C7_8 1_555 1_555
C8_8 C4_8 1_555 1_555
C9_8 C8_8 1_555 1_555
C10_8 C5_8 1_555 1_555
C11_8 C8_8 1_555 1_555
H4_8 C11_8 1_555 1_555
H5_8 C11_8 1_555 1_555
C12_8 C11_8 1_555 1_555
H6_8 C12_8 1_555 1_555
H7_8 C12_8 1_555 1_555
H8_8 C12_8 1_555 1_555
C13_8 C8_8 1_555 1_555
H9_8 C13_8 1_555 1_555
H10_8 C13_8 1_555 1_555
C14_8 C13_8 1_555 1_555
H11_8 C14_8 1_555 1_555
H12_8 C14_8 1_555 1_555
H13_8 C14_8 1_555 1_555
Cd17_6 O2_8 1_555 1_555
Cd3_7 O4_12 1_555 1_555
Cd15_4 O4_12 1_555 1_555
Cd7_10 O9_8 1_555 1_555
Cd16_2 O9_8 1_555 1_555
O5_8 Cd16_4 1_555 1_555
O13_5 C15_8 1_555 1_555
O9_8 C16_8 1_555 1_555
O13_7 Cd3_7 1_555 1_555
O22_8 Cd7_10 1_555 1_555
O24_7 Cd15_4 1_555 1_555
O27_8 Cd3_7 1_555 1_555
C15_8 O24_5 1_555 1_555
C16_8 O22_8 1_555 1_555
C26_8 C15_8 1_555 1_555
C27_8 C16_8 1_555 1_555
C37_8 C26_8 1_555 1_555
C38_8 C27_8 1_555 1_555
H14_8 C37_8 1_555 1_555
H15_8 C38_8 1_555 1_555
C48_8 C37_8 1_555 1_555
C49_8 C38_8 1_555 1_555
C59_8 C48_8 1_555 1_555
C60_8 C49_8 1_555 1_555
C70_8 C59_8 1_555 1_555
C71_8 C60_8 1_555 1_555
H25_8 C70_8 1_555 1_555
H26_8 C71_8 1_555 1_555
C81_8 C26_8 1_555 1_555
C82_8 C27_8 1_555 1_555
H36_8 C81_8 1_555 1_555
H37_8 C82_8 1_555 1_555
C92_8 C49_8 1_555 1_555
C93_8 C48_8 1_555 1_555
C103_8 C10_8 1_555 1_555
C104_8 C93_8 1_555 1_555
C114_8 C9_8 1_555 1_555
C115_8 C60_8 1_555 1_555
C125_8 C92_8 1_555 1_555
C126_8 C93_8 1_555 1_555
H47_8 C125_8 1_555 1_555
H48_8 C126_8 1_555 1_555
H58_8 C125_8 1_555 1_555
H59_8 C126_8 1_555 1_555
C136_8 C125_8 1_555 1_555
C137_8 C126_8 1_555 1_555
H69_8 C136_8 1_555 1_555
H70_8 C137_8 1_555 1_555
H80_8 C136_8 1_555 1_555
H81_8 C137_8 1_555 1_555
H91_8 C136_8 1_555 1_555
H92_8 C137_8 1_555 1_555
C147_8 C92_8 1_555 1_555
C148_8 C93_8 1_555 1_555
H102_8 C147_8 1_555 1_555
H103_8 C148_8 1_555 1_555
H113_8 C147_8 1_555 1_555
H114_8 C148_8 1_555 1_555
C158_8 C147_8 1_555 1_555
C159_8 C148_8 1_555 1_555
H124_8 C158_8 1_555 1_555
H125_8 C159_8 1_555 1_555
H135_8 C158_8 1_555 1_555
H136_8 C159_8 1_555 1_555
H146_8 C158_8 1_555 1_555
H147_8 C159_8 1_555 1_555
O4_12 Cd17_6 1_555 1_555
C6_8 C7_8 1_555 1_555
C9_8 C10_8 1_555 1_555
Cd3_7 O5_8 1_555 1_555
Cd15_4 O13_7 1_555 1_555
C59_8 C114_8 1_555 1_555
C70_8 C81_8 1_555 1_555
C71_8 C82_8 1_555 1_555
C92_8 C103_8 1_555 1_555
C103_8 C115_8 1_555 1_555
C104_8 C114_8 1_555 1_555
C104_8 C115_8 1_555 1_555
O4_13 Cd16_5 1_555 1_555
Cd3_8 O4_13 1_555 1_555
Cd15_5 O4_13 1_555 1_555
Cd9_9 O14_6 1_555 1_555
Cd10_9 O14_6 1_555 1_555
Cd18_8 O15_5 1_555 1_555
Cd12_8 O15_5 1_555 1_555
Cd16_7 O18_6 1_555 1_555
Cd13_3 O18_6 1_555 1_555
Cd18_9 O19_6 1_555 1_555
O7_6 Cd16_5 1_555 1_555
O11_6 Cd3_8 1_555 1_555
O12_8 Cd17_7 1_555 1_555
O14_6 C20_6 1_555 1_555
O15_5 C21_6 1_555 1_555
O18_6 C24_6 1_555 1_555
O19_6 Cd10_9 1_555 1_555
O23_6 Cd15_5 1_555 1_555
O26_8 Cd17_7 1_555 1_555
O28_6 Cd3_8 1_555 1_555
O29_6 Cd9_9 1_555 1_555
O30_5 Cd18_8 1_555 1_555
O33_6 Cd16_7 1_555 1_555
O34_6 Cd10_9 1_555 1_555
C17_6 O7_6 1_555 1_555
C19_6 O11_6 1_555 1_555
C20_6 O29_6 1_555 1_555
C21_6 O30_5 1_555 1_555
C24_6 O33_6 1_555 1_555
C25_6 O19_6 1_555 1_555
C28_6 C17_6 1_555 1_555
C30_6 C19_6 1_555 1_555
C31_6 C20_6 1_555 1_555
C32_6 C21_6 1_555 1_555
C35_6 C24_6 1_555 1_555
C36_6 C25_6 1_555 1_555
C39_6 C28_6 1_555 1_555
C41_6 C30_6 1_555 1_555
C42_6 C31_6 1_555 1_555
C43_6 C32_6 1_555 1_555
C46_6 C35_6 1_555 1_555
C47_6 C36_6 1_555 1_555
H16_6 C39_6 1_555 1_555
H18_6 C41_6 1_555 1_555
H19_6 C42_6 1_555 1_555
H20_6 C43_6 1_555 1_555
H23_6 C46_6 1_555 1_555
H24_6 C47_6 1_555 1_555
C50_6 C39_6 1_555 1_555
C52_6 C41_6 1_555 1_555
C53_6 C42_6 1_555 1_555
C54_6 C43_6 1_555 1_555
C57_6 C46_6 1_555 1_555
C58_6 C47_6 1_555 1_555
C61_6 C50_6 1_555 1_555
C63_6 C52_6 1_555 1_555
C64_6 C54_6 1_555 1_555
C66_6 C58_6 1_555 1_555
C67_6 C53_6 1_555 1_555
C69_6 C57_6 1_555 1_555
C72_6 C61_6 1_555 1_555
C74_6 C63_6 1_555 1_555
C75_6 C64_6 1_555 1_555
C77_6 C66_6 1_555 1_555
C78_6 C67_6 1_555 1_555
C80_6 C69_6 1_555 1_555
H27_6 C72_6 1_555 1_555
H29_6 C74_6 1_555 1_555
H30_6 C75_6 1_555 1_555
H32_6 C77_6 1_555 1_555
H33_6 C78_6 1_555 1_555
H35_6 C80_6 1_555 1_555
C83_6 C28_6 1_555 1_555
C85_6 C30_6 1_555 1_555
C86_6 C32_6 1_555 1_555
C88_6 C36_6 1_555 1_555
C89_6 C31_6 1_555 1_555
C91_6 C35_6 1_555 1_555
H38_6 C83_6 1_555 1_555
H40_6 C85_6 1_555 1_555
H41_6 C86_6 1_555 1_555
H43_6 C88_6 1_555 1_555
H44_6 C89_6 1_555 1_555
H46_6 C91_6 1_555 1_555
C94_6 C50_6 1_555 1_555
C96_6 C52_6 1_555 1_555
C97_6 C53_6 1_555 1_555
C99_6 C57_6 1_555 1_555
C100_6 C54_6 1_555 1_555
C102_6 C58_6 1_555 1_555
C105_6 C94_6 1_555 1_555
C107_6 C96_6 1_555 1_555
C108_6 C97_6 1_555 1_555
C110_6 C99_6 1_555 1_555
C111_6 C100_6 1_555 1_555
C113_6 C102_6 1_555 1_555
C116_6 C61_6 1_555 1_555
C118_6 C63_6 1_555 1_555
C119_6 C64_6 1_555 1_555
C121_6 C66_6 1_555 1_555
C122_6 C67_6 1_555 1_555
C124_6 C69_6 1_555 1_555
C127_6 C94_6 1_555 1_555
C129_6 C96_6 1_555 1_555
C130_6 C97_6 1_555 1_555
C132_6 C99_6 1_555 1_555
C133_6 C100_6 1_555 1_555
C135_6 C102_6 1_555 1_555
H49_6 C127_6 1_555 1_555
H51_6 C129_6 1_555 1_555
H52_6 C130_6 1_555 1_555
H54_6 C132_6 1_555 1_555
H55_6 C133_6 1_555 1_555
H57_6 C135_6 1_555 1_555
H60_6 C127_6 1_555 1_555
H62_6 C129_6 1_555 1_555
H63_6 C130_6 1_555 1_555
H65_6 C132_6 1_555 1_555
H66_6 C133_6 1_555 1_555
H68_6 C135_6 1_555 1_555
C138_6 C127_6 1_555 1_555
C140_6 C129_6 1_555 1_555
C141_6 C130_6 1_555 1_555
C143_6 C132_6 1_555 1_555
C144_6 C133_6 1_555 1_555
C146_6 C135_6 1_555 1_555
H71_6 C138_6 1_555 1_555
H73_6 C140_6 1_555 1_555
H74_6 C141_6 1_555 1_555
H76_6 C143_6 1_555 1_555
H77_6 C144_6 1_555 1_555
H79_6 C146_6 1_555 1_555
H82_6 C138_6 1_555 1_555
H84_6 C140_6 1_555 1_555
H85_6 C141_6 1_555 1_555
H87_6 C143_6 1_555 1_555
H88_6 C144_6 1_555 1_555
H90_6 C146_6 1_555 1_555
H93_6 C138_6 1_555 1_555
H95_6 C140_6 1_555 1_555
H96_6 C141_6 1_555 1_555
H98_6 C143_6 1_555 1_555
H99_6 C144_6 1_555 1_555
H101_6 C146_6 1_555 1_555
C149_6 C94_6 1_555 1_555
C151_6 C96_6 1_555 1_555
C152_6 C97_6 1_555 1_555
C154_6 C99_6 1_555 1_555
C155_6 C100_6 1_555 1_555
C157_6 C102_6 1_555 1_555
H104_6 C149_6 1_555 1_555
H106_6 C151_6 1_555 1_555
H107_6 C152_6 1_555 1_555
H109_6 C154_6 1_555 1_555
H110_6 C155_6 1_555 1_555
H112_6 C157_6 1_555 1_555
H115_6 C149_6 1_555 1_555
H117_6 C151_6 1_555 1_555
H118_6 C152_6 1_555 1_555
H120_6 C154_6 1_555 1_555
H121_6 C155_6 1_555 1_555
H123_6 C157_6 1_555 1_555
C160_6 C149_6 1_555 1_555
C162_6 C151_6 1_555 1_555
C163_6 C152_6 1_555 1_555
C165_6 C154_6 1_555 1_555
C166_6 C155_6 1_555 1_555
C168_6 C157_6 1_555 1_555
H126_6 C160_6 1_555 1_555
H128_6 C162_6 1_555 1_555
H129_6 C163_6 1_555 1_555
H131_6 C165_6 1_555 1_555
H132_6 C166_6 1_555 1_555
H134_6 C168_6 1_555 1_555
H137_6 C160_6 1_555 1_555
H139_6 C162_6 1_555 1_555
H140_6 C163_6 1_555 1_555
H142_6 C165_6 1_555 1_555
H143_6 C166_6 1_555 1_555
H145_6 C168_6 1_555 1_555
H148_6 C160_6 1_555 1_555
H150_6 C162_6 1_555 1_555
H151_6 C163_6 1_555 1_555
H153_6 C165_6 1_555 1_555
H154_6 C166_6 1_555 1_555
H156_6 C168_6 1_555 1_555
O4_13 Cd17_7 1_555 1_555
Cd3_8 O7_6 1_555 1_555
Cd15_5 O11_6 1_555 1_555
Cd15_5 O12_8 1_555 1_555
O23_6 C19_6 1_555 1_555
O28_6 C17_6 1_555 1_555
O34_6 C25_6 1_555 1_555
C72_6 C83_6 1_555 1_555
C74_6 C85_6 1_555 1_555
C75_6 C86_6 1_555 1_555
C77_6 C88_6 1_555 1_555
C78_6 C89_6 1_555 1_555
C80_6 C91_6 1_555 1_555
C105_6 C116_6 1_555 1_555
C105_6 C119_6 1_555 1_555
C107_6 C118_6 1_555 1_555
C107_6 C121_6 1_555 1_555
C108_6 C116_6 1_555 1_555
C108_6 C122_6 1_555 1_555
C110_6 C118_6 1_555 1_555
C110_6 C124_6 1_555 1_555
C111_6 C119_6 1_555 1_555
C111_6 C122_6 1_555 1_555
C113_6 C121_6 1_555 1_555
C113_6 C124_6 1_555 1_555
O4_14 Cd11_5 1_555 1_555
Cd3_9 O4_14 1_555 1_555
Cd15_2 O4_14 1_555 1_555
Cd9_10 O14_7 1_555 1_555
Cd10_10 O14_7 1_555 1_555
Cd8_4 O18_7 1_555 1_555
Cd17_9 O18_7 1_555 1_555
Cd18_10 O19_7 1_555 1_555
O7_7 Cd11_5 1_555 1_555
O11_7 Cd3_9 1_555 1_555
O12_9 Cd12_5 1_555 1_555
O14_7 C20_7 1_555 1_555
O6_3 C21_7 1_555 1_555
O18_7 C24_7 1_555 1_555
O19_7 Cd10_10 1_555 1_555
O23_7 Cd15_2 1_555 1_555
O26_9 Cd12_5 1_555 1_555
O28_7 Cd3_9 1_555 1_555
O29_7 Cd9_10 1_555 1_555
O33_7 Cd8_4 1_555 1_555
O34_7 Cd10_10 1_555 1_555
C17_7 O7_7 1_555 1_555
C19_7 O11_7 1_555 1_555
C20_7 O29_7 1_555 1_555
C21_7 O20_3 1_555 1_555
C24_7 O33_7 1_555 1_555
C25_7 O19_7 1_555 1_555
C28_7 C17_7 1_555 1_555
C30_7 C19_7 1_555 1_555
C31_7 C20_7 1_555 1_555
C32_7 C21_7 1_555 1_555
C35_7 C24_7 1_555 1_555
C36_7 C25_7 1_555 1_555
C39_7 C28_7 1_555 1_555
C41_7 C30_7 1_555 1_555
C42_7 C31_7 1_555 1_555
C43_7 C32_7 1_555 1_555
C46_7 C35_7 1_555 1_555
C47_7 C36_7 1_555 1_555
H16_7 C39_7 1_555 1_555
H18_7 C41_7 1_555 1_555
H19_7 C42_7 1_555 1_555
H20_7 C43_7 1_555 1_555
H23_7 C46_7 1_555 1_555
H24_7 C47_7 1_555 1_555
C50_7 C39_7 1_555 1_555
C52_7 C41_7 1_555 1_555
C53_7 C42_7 1_555 1_555
C54_7 C43_7 1_555 1_555
C57_7 C46_7 1_555 1_555
C58_7 C47_7 1_555 1_555
C61_7 C50_7 1_555 1_555
C63_7 C52_7 1_555 1_555
C64_7 C54_7 1_555 1_555
C66_7 C58_7 1_555 1_555
C67_7 C53_7 1_555 1_555
C69_7 C57_7 1_555 1_555
C72_7 C61_7 1_555 1_555
C74_7 C63_7 1_555 1_555
C75_7 C64_7 1_555 1_555
C77_7 C66_7 1_555 1_555
C78_7 C67_7 1_555 1_555
C80_7 C69_7 1_555 1_555
H27_7 C72_7 1_555 1_555
H29_7 C74_7 1_555 1_555
H30_7 C75_7 1_555 1_555
H32_7 C77_7 1_555 1_555
H33_7 C78_7 1_555 1_555
H35_7 C80_7 1_555 1_555
C83_7 C28_7 1_555 1_555
C85_7 C30_7 1_555 1_555
C86_7 C32_7 1_555 1_555
C88_7 C36_7 1_555 1_555
C89_7 C31_7 1_555 1_555
C91_7 C35_7 1_555 1_555
H38_7 C83_7 1_555 1_555
H40_7 C85_7 1_555 1_555
H41_7 C86_7 1_555 1_555
H43_7 C88_7 1_555 1_555
H44_7 C89_7 1_555 1_555
H46_7 C91_7 1_555 1_555
C94_7 C50_7 1_555 1_555
C96_7 C52_7 1_555 1_555
C97_7 C53_7 1_555 1_555
C99_7 C57_7 1_555 1_555
C100_7 C54_7 1_555 1_555
C102_7 C58_7 1_555 1_555
C105_7 C94_7 1_555 1_555
C107_7 C96_7 1_555 1_555
C108_7 C97_7 1_555 1_555
C110_7 C99_7 1_555 1_555
C111_7 C100_7 1_555 1_555
C113_7 C102_7 1_555 1_555
C116_7 C61_7 1_555 1_555
C118_7 C63_7 1_555 1_555
C119_7 C64_7 1_555 1_555
C121_7 C66_7 1_555 1_555
C122_7 C67_7 1_555 1_555
C124_7 C69_7 1_555 1_555
C127_7 C94_7 1_555 1_555
C129_7 C96_7 1_555 1_555
C130_7 C97_7 1_555 1_555
C132_7 C99_7 1_555 1_555
C133_7 C100_7 1_555 1_555
C135_7 C102_7 1_555 1_555
H49_7 C127_7 1_555 1_555
H51_7 C129_7 1_555 1_555
H52_7 C130_7 1_555 1_555
H54_7 C132_7 1_555 1_555
H55_7 C133_7 1_555 1_555
H57_7 C135_7 1_555 1_555
H60_7 C127_7 1_555 1_555
H62_7 C129_7 1_555 1_555
H63_7 C130_7 1_555 1_555
H65_7 C132_7 1_555 1_555
H66_7 C133_7 1_555 1_555
H68_7 C135_7 1_555 1_555
C138_7 C127_7 1_555 1_555
C140_7 C129_7 1_555 1_555
C141_7 C130_7 1_555 1_555
C143_7 C132_7 1_555 1_555
C144_7 C133_7 1_555 1_555
C146_7 C135_7 1_555 1_555
H71_7 C138_7 1_555 1_555
H73_7 C140_7 1_555 1_555
H74_7 C141_7 1_555 1_555
H76_7 C143_7 1_555 1_555
H77_7 C144_7 1_555 1_555
H79_7 C146_7 1_555 1_555
H82_7 C138_7 1_555 1_555
H84_7 C140_7 1_555 1_555
H85_7 C141_7 1_555 1_555
H87_7 C143_7 1_555 1_555
H88_7 C144_7 1_555 1_555
H90_7 C146_7 1_555 1_555
H93_7 C138_7 1_555 1_555
H95_7 C140_7 1_555 1_555
H96_7 C141_7 1_555 1_555
H98_7 C143_7 1_555 1_555
H99_7 C144_7 1_555 1_555
H101_7 C146_7 1_555 1_555
C149_7 C94_7 1_555 1_555
C151_7 C96_7 1_555 1_555
C152_7 C97_7 1_555 1_555
C154_7 C99_7 1_555 1_555
C155_7 C100_7 1_555 1_555
C157_7 C102_7 1_555 1_555
H104_7 C149_7 1_555 1_555
H106_7 C151_7 1_555 1_555
H107_7 C152_7 1_555 1_555
H109_7 C154_7 1_555 1_555
H110_7 C155_7 1_555 1_555
H112_7 C157_7 1_555 1_555
H115_7 C149_7 1_555 1_555
H117_7 C151_7 1_555 1_555
H118_7 C152_7 1_555 1_555
H120_7 C154_7 1_555 1_555
H121_7 C155_7 1_555 1_555
H123_7 C157_7 1_555 1_555
C160_7 C149_7 1_555 1_555
C162_7 C151_7 1_555 1_555
C163_7 C152_7 1_555 1_555
C165_7 C154_7 1_555 1_555
C166_7 C155_7 1_555 1_555
C168_7 C157_7 1_555 1_555
H126_7 C160_7 1_555 1_555
H128_7 C162_7 1_555 1_555
H129_7 C163_7 1_555 1_555
H131_7 C165_7 1_555 1_555
H132_7 C166_7 1_555 1_555
H134_7 C168_7 1_555 1_555
H137_7 C160_7 1_555 1_555
H139_7 C162_7 1_555 1_555
H140_7 C163_7 1_555 1_555
H142_7 C165_7 1_555 1_555
H143_7 C166_7 1_555 1_555
H145_7 C168_7 1_555 1_555
H148_7 C160_7 1_555 1_555
H150_7 C162_7 1_555 1_555
H151_7 C163_7 1_555 1_555
H153_7 C165_7 1_555 1_555
H154_7 C166_7 1_555 1_555
H156_7 C168_7 1_555 1_555
O4_14 Cd12_5 1_555 1_555
Cd3_9 O7_7 1_555 1_555
Cd15_2 O11_7 1_555 1_555
Cd15_2 O12_9 1_555 1_555
O23_7 C19_7 1_555 1_555
O28_7 C17_7 1_555 1_555
O34_7 C25_7 1_555 1_555
C72_7 C83_7 1_555 1_555
C74_7 C85_7 1_555 1_555
C75_7 C86_7 1_555 1_555
C77_7 C88_7 1_555 1_555
C78_7 C89_7 1_555 1_555
C80_7 C91_7 1_555 1_555
C105_7 C116_7 1_555 1_555
C105_7 C119_7 1_555 1_555
C107_7 C118_7 1_555 1_555
C107_7 C121_7 1_555 1_555
C108_7 C116_7 1_555 1_555
C108_7 C122_7 1_555 1_555
C110_7 C118_7 1_555 1_555
C110_7 C124_7 1_555 1_555
C111_7 C119_7 1_555 1_555
C111_7 C122_7 1_555 1_555
C113_7 C121_7 1_555 1_555
C113_7 C124_7 1_555 1_555
Cd11_6 O2_9 1_555 1_555
O2_9 C1_9 1_555 1_555
O3_9 Cd11_6 1_555 1_555
O4_15 Cd11_6 1_555 1_555
C1_9 O3_9 1_555 1_555
C2_9 C1_9 1_555 1_555
C3_9 C2_9 1_555 1_555
H1_9 C3_9 1_555 1_555
C4_9 C3_9 1_555 1_555
C5_9 C4_9 1_555 1_555
C6_9 C5_9 1_555 1_555
H2_9 C6_9 1_555 1_555
C7_9 C2_9 1_555 1_555
H3_9 C7_9 1_555 1_555
C8_9 C4_9 1_555 1_555
C9_9 C8_9 1_555 1_555
C10_9 C5_9 1_555 1_555
C11_9 C8_9 1_555 1_555
H4_9 C11_9 1_555 1_555
H5_9 C11_9 1_555 1_555
C12_9 C11_9 1_555 1_555
H6_9 C12_9 1_555 1_555
H7_9 C12_9 1_555 1_555
H8_9 C12_9 1_555 1_555
C13_9 C8_9 1_555 1_555
H9_9 C13_9 1_555 1_555
H10_9 C13_9 1_555 1_555
C14_9 C13_9 1_555 1_555
H11_9 C14_9 1_555 1_555
H12_9 C14_9 1_555 1_555
H13_9 C14_9 1_555 1_555
Cd12_6 O2_9 1_555 1_555
Cd3_10 O4_15 1_555 1_555
Cd15_3 O4_15 1_555 1_555
Cd10_7 O9_9 1_555 1_555
Cd18_7 O9_9 1_555 1_555
O5_9 Cd11_6 1_555 1_555
O13_4 C15_9 1_555 1_555
O9_9 C16_9 1_555 1_555
O13_8 Cd3_10 1_555 1_555
O22_9 Cd10_7 1_555 1_555
O24_8 Cd15_3 1_555 1_555
O27_9 Cd3_10 1_555 1_555
C15_9 O24_4 1_555 1_555
C16_9 O22_9 1_555 1_555
C26_9 C15_9 1_555 1_555
C27_9 C16_9 1_555 1_555
C37_9 C26_9 1_555 1_555
C38_9 C27_9 1_555 1_555
H14_9 C37_9 1_555 1_555
H15_9 C38_9 1_555 1_555
C48_9 C37_9 1_555 1_555
C49_9 C38_9 1_555 1_555
C59_9 C48_9 1_555 1_555
C60_9 C49_9 1_555 1_555
C70_9 C59_9 1_555 1_555
C71_9 C60_9 1_555 1_555
H25_9 C70_9 1_555 1_555
H26_9 C71_9 1_555 1_555
C81_9 C26_9 1_555 1_555
C82_9 C27_9 1_555 1_555
H36_9 C81_9 1_555 1_555
H37_9 C82_9 1_555 1_555
C92_9 C49_9 1_555 1_555
C93_9 C48_9 1_555 1_555
C103_9 C10_9 1_555 1_555
C104_9 C93_9 1_555 1_555
C114_9 C9_9 1_555 1_555
C115_9 C60_9 1_555 1_555
C125_9 C92_9 1_555 1_555
C126_9 C93_9 1_555 1_555
H47_9 C125_9 1_555 1_555
H48_9 C126_9 1_555 1_555
H58_9 C125_9 1_555 1_555
H59_9 C126_9 1_555 1_555
C136_9 C125_9 1_555 1_555
C137_9 C126_9 1_555 1_555
H69_9 C136_9 1_555 1_555
H70_9 C137_9 1_555 1_555
H80_9 C136_9 1_555 1_555
H81_9 C137_9 1_555 1_555
H91_9 C136_9 1_555 1_555
H92_9 C137_9 1_555 1_555
C147_9 C92_9 1_555 1_555
C148_9 C93_9 1_555 1_555
H102_9 C147_9 1_555 1_555
H103_9 C148_9 1_555 1_555
H113_9 C147_9 1_555 1_555
H114_9 C148_9 1_555 1_555
C158_9 C147_9 1_555 1_555
C159_9 C148_9 1_555 1_555
H124_9 C158_9 1_555 1_555
H125_9 C159_9 1_555 1_555
H135_9 C158_9 1_555 1_555
H136_9 C159_9 1_555 1_555
H146_9 C158_9 1_555 1_555
H147_9 C159_9 1_555 1_555
O4_15 Cd12_6 1_555 1_555
C6_9 C7_9 1_555 1_555
C9_9 C10_9 1_555 1_555
Cd3_10 O5_9 1_555 1_555
Cd15_3 O13_8 1_555 1_555
C59_9 C114_9 1_555 1_555
C70_9 C81_9 1_555 1_555
C71_9 C82_9 1_555 1_555
C92_9 C103_9 1_555 1_555
C103_9 C115_9 1_555 1_555
C104_9 C114_9 1_555 1_555
C104_9 C115_9 1_555 1_555
Cd16_6 O2_10 1_555 1_555
O2_10 C1_10 1_555 1_555
O3_10 Cd16_6 1_555 1_555
O4_16 Cd16_6 1_555 1_555
C1_10 O3_10 1_555 1_555
C2_10 C1_10 1_555 1_555
C3_10 C2_10 1_555 1_555
H1_10 C3_10 1_555 1_555
C4_10 C3_10 1_555 1_555
C5_10 C4_10 1_555 1_555
C6_10 C5_10 1_555 1_555
H2_10 C6_10 1_555 1_555
C7_10 C2_10 1_555 1_555
H3_10 C7_10 1_555 1_555
C8_10 C4_10 1_555 1_555
C9_10 C8_10 1_555 1_555
C10_10 C5_10 1_555 1_555
C11_10 C8_10 1_555 1_555
H4_10 C11_10 1_555 1_555
H5_10 C11_10 1_555 1_555
C12_10 C11_10 1_555 1_555
H6_10 C12_10 1_555 1_555
H7_10 C12_10 1_555 1_555
H8_10 C12_10 1_555 1_555
C13_10 C8_10 1_555 1_555
H9_10 C13_10 1_555 1_555
H10_10 C13_10 1_555 1_555
C14_10 C13_10 1_555 1_555
H11_10 C14_10 1_555 1_555
H12_10 C14_10 1_555 1_555
H13_10 C14_10 1_555 1_555
Cd13_2 O2_10 1_555 1_555
Cd6_2 O4_16 1_555 1_555
Cd5_2 O4_16 1_555 1_555
Cd7_11 O9_10 1_555 1_555
Cd16 O9_10 1_555 1_555
O5_10 Cd16_6 1_555 1_555
O13_6 C15_10 1_555 1_555
O9_10 C16_10 1_555 1_555
O22_10 Cd7_11 1_555 1_555
O27_10 Cd6_2 1_555 1_555
C15_10 O24_6 1_555 1_555
C16_10 O22_10 1_555 1_555
C26_10 C15_10 1_555 1_555
C27_10 C16_10 1_555 1_555
C37_10 C26_10 1_555 1_555
C38_10 C27_10 1_555 1_555
H14_10 C37_10 1_555 1_555
H15_10 C38_10 1_555 1_555
C48_10 C37_10 1_555 1_555
C49_10 C38_10 1_555 1_555
C59_10 C48_10 1_555 1_555
C60_10 C49_10 1_555 1_555
C70_10 C59_10 1_555 1_555
C71_10 C60_10 1_555 1_555
H25_10 C70_10 1_555 1_555
H26_10 C71_10 1_555 1_555
C81_10 C26_10 1_555 1_555
C82_10 C27_10 1_555 1_555
H36_10 C81_10 1_555 1_555
H37_10 C82_10 1_555 1_555
C92_10 C49_10 1_555 1_555
C93_10 C48_10 1_555 1_555
C103_10 C10_10 1_555 1_555
C104_10 C93_10 1_555 1_555
C114_10 C9_10 1_555 1_555
C115_10 C60_10 1_555 1_555
C125_10 C92_10 1_555 1_555
C126_10 C93_10 1_555 1_555
H47_10 C125_10 1_555 1_555
H48_10 C126_10 1_555 1_555
H58_10 C125_10 1_555 1_555
H59_10 C126_10 1_555 1_555
C136_10 C125_10 1_555 1_555
C137_10 C126_10 1_555 1_555
H69_10 C136_10 1_555 1_555
H70_10 C137_10 1_555 1_555
H80_10 C136_10 1_555 1_555
H81_10 C137_10 1_555 1_555
H91_10 C136_10 1_555 1_555
H92_10 C137_10 1_555 1_555
C147_10 C92_10 1_555 1_555
C148_10 C93_10 1_555 1_555
H102_10 C147_10 1_555 1_555
H103_10 C148_10 1_555 1_555
H113_10 C147_10 1_555 1_555
H114_10 C148_10 1_555 1_555
C158_10 C147_10 1_555 1_555
C159_10 C148_10 1_555 1_555
H124_10 C158_10 1_555 1_555
H125_10 C159_10 1_555 1_555
H135_10 C158_10 1_555 1_555
H136_10 C159_10 1_555 1_555
H146_10 C158_10 1_555 1_555
H147_10 C159_10 1_555 1_555
O4_16 Cd13_2 1_555 1_555
C6_10 C7_10 1_555 1_555
C9_10 C10_10 1_555 1_555
Cd6_2 O5_10 1_555 1_555
C59_10 C114_10 1_555 1_555
C70_10 C81_10 1_555 1_555
C71_10 C82_10 1_555 1_555
C92_10 C103_10 1_555 1_555
C103_10 C115_10 1_555 1_555
C104_10 C114_10 1_555 1_555
C104_10 C115_10 1_555 1_555
O4_17 Cd16_7 1_555 1_555
Cd6_3 O4_17 1_555 1_555
Cd5_3 O4_17 1_555 1_555
Cd9_11 O14_8 1_555 1_555
Cd7_9 O14_8 1_555 1_555
Cd18_9 O15_6 1_555 1_555
Cd12_9 O15_6 1_555 1_555
Cd11_7 O19_8 1_555 1_555
O7_8 Cd16_7 1_555 1_555
O11_8 Cd6_3 1_555 1_555
O12_10 Cd13_3 1_555 1_555
O14_8 C20_8 1_555 1_555
O15_6 C21_8 1_555 1_555
O6_4 C24_8 1_555 1_555
O19_8 Cd7_9 1_555 1_555
O23_8 Cd5_3 1_555 1_555
O26_10 Cd13_3 1_555 1_555
O28_8 Cd6_3 1_555 1_555
O29_8 Cd9_11 1_555 1_555
O30_6 Cd18_9 1_555 1_555
O34_8 Cd7_9 1_555 1_555
C17_8 O7_8 1_555 1_555
C19_8 O11_8 1_555 1_555
C20_8 O29_8 1_555 1_555
C21_8 O30_6 1_555 1_555
C24_8 O20_4 1_555 1_555
C25_8 O19_8 1_555 1_555
C28_8 C17_8 1_555 1_555
C30_8 C19_8 1_555 1_555
C31_8 C20_8 1_555 1_555
C32_8 C21_8 1_555 1_555
C35_8 C24_8 1_555 1_555
C36_8 C25_8 1_555 1_555
C39_8 C28_8 1_555 1_555
C41_8 C30_8 1_555 1_555
C42_8 C31_8 1_555 1_555
C43_8 C32_8 1_555 1_555
C46_8 C35_8 1_555 1_555
C47_8 C36_8 1_555 1_555
H16_8 C39_8 1_555 1_555
H18_8 C41_8 1_555 1_555
H19_8 C42_8 1_555 1_555
H20_8 C43_8 1_555 1_555
H23_8 C46_8 1_555 1_555
H24_8 C47_8 1_555 1_555
C50_8 C39_8 1_555 1_555
C52_8 C41_8 1_555 1_555
C53_8 C42_8 1_555 1_555
C54_8 C43_8 1_555 1_555
C57_8 C46_8 1_555 1_555
C58_8 C47_8 1_555 1_555
C61_8 C50_8 1_555 1_555
C63_8 C52_8 1_555 1_555
C64_8 C54_8 1_555 1_555
C66_8 C58_8 1_555 1_555
C67_8 C53_8 1_555 1_555
C69_8 C57_8 1_555 1_555
C72_8 C61_8 1_555 1_555
C74_8 C63_8 1_555 1_555
C75_8 C64_8 1_555 1_555
C77_8 C66_8 1_555 1_555
C78_8 C67_8 1_555 1_555
C80_8 C69_8 1_555 1_555
H27_8 C72_8 1_555 1_555
H29_8 C74_8 1_555 1_555
H30_8 C75_8 1_555 1_555
H32_8 C77_8 1_555 1_555
H33_8 C78_8 1_555 1_555
H35_8 C80_8 1_555 1_555
C83_8 C28_8 1_555 1_555
C85_8 C30_8 1_555 1_555
C86_8 C32_8 1_555 1_555
C88_8 C36_8 1_555 1_555
C89_8 C31_8 1_555 1_555
C91_8 C35_8 1_555 1_555
H38_8 C83_8 1_555 1_555
H40_8 C85_8 1_555 1_555
H41_8 C86_8 1_555 1_555
H43_8 C88_8 1_555 1_555
H44_8 C89_8 1_555 1_555
H46_8 C91_8 1_555 1_555
C94_8 C50_8 1_555 1_555
C96_8 C52_8 1_555 1_555
C97_8 C53_8 1_555 1_555
C99_8 C57_8 1_555 1_555
C100_8 C54_8 1_555 1_555
C102_8 C58_8 1_555 1_555
C105_8 C94_8 1_555 1_555
C107_8 C96_8 1_555 1_555
C108_8 C97_8 1_555 1_555
C110_8 C99_8 1_555 1_555
C111_8 C100_8 1_555 1_555
C113_8 C102_8 1_555 1_555
C116_8 C61_8 1_555 1_555
C118_8 C63_8 1_555 1_555
C119_8 C64_8 1_555 1_555
C121_8 C66_8 1_555 1_555
C122_8 C67_8 1_555 1_555
C124_8 C69_8 1_555 1_555
C127_8 C94_8 1_555 1_555
C129_8 C96_8 1_555 1_555
C130_8 C97_8 1_555 1_555
C132_8 C99_8 1_555 1_555
C133_8 C100_8 1_555 1_555
C135_8 C102_8 1_555 1_555
H49_8 C127_8 1_555 1_555
H51_8 C129_8 1_555 1_555
H52_8 C130_8 1_555 1_555
H54_8 C132_8 1_555 1_555
H55_8 C133_8 1_555 1_555
H57_8 C135_8 1_555 1_555
H60_8 C127_8 1_555 1_555
H62_8 C129_8 1_555 1_555
H63_8 C130_8 1_555 1_555
H65_8 C132_8 1_555 1_555
H66_8 C133_8 1_555 1_555
H68_8 C135_8 1_555 1_555
C138_8 C127_8 1_555 1_555
C140_8 C129_8 1_555 1_555
C141_8 C130_8 1_555 1_555
C143_8 C132_8 1_555 1_555
C144_8 C133_8 1_555 1_555
C146_8 C135_8 1_555 1_555
H71_8 C138_8 1_555 1_555
H73_8 C140_8 1_555 1_555
H74_8 C141_8 1_555 1_555
H76_8 C143_8 1_555 1_555
H77_8 C144_8 1_555 1_555
H79_8 C146_8 1_555 1_555
H82_8 C138_8 1_555 1_555
H84_8 C140_8 1_555 1_555
H85_8 C141_8 1_555 1_555
H87_8 C143_8 1_555 1_555
H88_8 C144_8 1_555 1_555
H90_8 C146_8 1_555 1_555
H93_8 C138_8 1_555 1_555
H95_8 C140_8 1_555 1_555
H96_8 C141_8 1_555 1_555
H98_8 C143_8 1_555 1_555
H99_8 C144_8 1_555 1_555
H101_8 C146_8 1_555 1_555
C149_8 C94_8 1_555 1_555
C151_8 C96_8 1_555 1_555
C152_8 C97_8 1_555 1_555
C154_8 C99_8 1_555 1_555
C155_8 C100_8 1_555 1_555
C157_8 C102_8 1_555 1_555
H104_8 C149_8 1_555 1_555
H106_8 C151_8 1_555 1_555
H107_8 C152_8 1_555 1_555
H109_8 C154_8 1_555 1_555
H110_8 C155_8 1_555 1_555
H112_8 C157_8 1_555 1_555
H115_8 C149_8 1_555 1_555
H117_8 C151_8 1_555 1_555
H118_8 C152_8 1_555 1_555
H120_8 C154_8 1_555 1_555
H121_8 C155_8 1_555 1_555
H123_8 C157_8 1_555 1_555
C160_8 C149_8 1_555 1_555
C162_8 C151_8 1_555 1_555
C163_8 C152_8 1_555 1_555
C165_8 C154_8 1_555 1_555
C166_8 C155_8 1_555 1_555
C168_8 C157_8 1_555 1_555
H126_8 C160_8 1_555 1_555
H128_8 C162_8 1_555 1_555
H129_8 C163_8 1_555 1_555
H131_8 C165_8 1_555 1_555
H132_8 C166_8 1_555 1_555
H134_8 C168_8 1_555 1_555
H137_8 C160_8 1_555 1_555
H139_8 C162_8 1_555 1_555
H140_8 C163_8 1_555 1_555
H142_8 C165_8 1_555 1_555
H143_8 C166_8 1_555 1_555
H145_8 C168_8 1_555 1_555
H148_8 C160_8 1_555 1_555
H150_8 C162_8 1_555 1_555
H151_8 C163_8 1_555 1_555
H153_8 C165_8 1_555 1_555
H154_8 C166_8 1_555 1_555
H156_8 C168_8 1_555 1_555
O4_17 Cd13_3 1_555 1_555
Cd6_3 O7_8 1_555 1_555
Cd5_3 O11_8 1_555 1_555
Cd5_3 O12_10 1_555 1_555
O23_8 C19_8 1_555 1_555
O28_8 C17_8 1_555 1_555
O34_8 C25_8 1_555 1_555
C72_8 C83_8 1_555 1_555
C74_8 C85_8 1_555 1_555
C75_8 C86_8 1_555 1_555
C77_8 C88_8 1_555 1_555
C78_8 C89_8 1_555 1_555
C80_8 C91_8 1_555 1_555
C105_8 C116_8 1_555 1_555
C105_8 C119_8 1_555 1_555
C107_8 C118_8 1_555 1_555
C107_8 C121_8 1_555 1_555
C108_8 C116_8 1_555 1_555
C108_8 C122_8 1_555 1_555
C110_8 C118_8 1_555 1_555
C110_8 C124_8 1_555 1_555
C111_8 C119_8 1_555 1_555
C111_8 C122_8 1_555 1_555
C113_8 C121_8 1_555 1_555
C113_8 C124_8 1_555 1_555
O4_18 Cd18 1_555 1_555
Cd10 O4_18 1_555 1_555
Cd9 O4_18 1_555 1_555
O6_7 Cd18 1_555 1_555
O12_11 Cd13_4 1_555 1_555
O20_7 Cd18 1_555 1_555
O26_11 Cd13_4 1_555 1_555
O4_18 Cd13_4 1_555 1_555
Cd13_4 O6_7 1_555 1_555
Cd9 O12_11 1_555 1_555
Cd18_2 O2_11 1_555 1_555
O2_11 C1_11 1_555 1_555
O3_11 Cd18_2 1_555 1_555
O4_19 Cd18_2 1_555 1_555
C1_11 O3_11 1_555 1_555
C2_11 C1_11 1_555 1_555
C3_11 C2_11 1_555 1_555
H1_11 C3_11 1_555 1_555
C4_11 C3_11 1_555 1_555
C5_11 C4_11 1_555 1_555
C6_11 C5_11 1_555 1_555
H2_11 C6_11 1_555 1_555
C7_11 C2_11 1_555 1_555
H3_11 C7_11 1_555 1_555
C8_11 C4_11 1_555 1_555
C9_11 C8_11 1_555 1_555
C10_11 C5_11 1_555 1_555
C11_11 C8_11 1_555 1_555
H4_11 C11_11 1_555 1_555
H5_11 C11_11 1_555 1_555
C12_11 C11_11 1_555 1_555
H6_11 C12_11 1_555 1_555
H7_11 C12_11 1_555 1_555
H8_11 C12_11 1_555 1_555
C13_11 C8_11 1_555 1_555
H9_11 C13_11 1_555 1_555
H10_11 C13_11 1_555 1_555
C14_11 C13_11 1_555 1_555
H11_11 C14_11 1_555 1_555
H12_11 C14_11 1_555 1_555
H13_11 C14_11 1_555 1_555
Cd13_5 O2_11 1_555 1_555
Cd10_2 O4_19 1_555 1_555
Cd9_2 O4_19 1_555 1_555
Cd10_9 O9_11 1_555 1_555
Cd18_9 O9_11 1_555 1_555
O5_11 Cd18_2 1_555 1_555
O13_8 C15_11 1_555 1_555
O9_11 C16_11 1_555 1_555
O22_11 Cd10_9 1_555 1_555
O27_11 Cd10_2 1_555 1_555
C15_11 O24_8 1_555 1_555
C16_11 O22_11 1_555 1_555
C26_11 C15_11 1_555 1_555
C27_11 C16_11 1_555 1_555
C37_11 C26_11 1_555 1_555
C38_11 C27_11 1_555 1_555
H14_11 C37_11 1_555 1_555
H15_11 C38_11 1_555 1_555
C48_11 C37_11 1_555 1_555
C49_11 C38_11 1_555 1_555
C59_11 C48_11 1_555 1_555
C60_11 C49_11 1_555 1_555
C70_11 C59_11 1_555 1_555
C71_11 C60_11 1_555 1_555
H25_11 C70_11 1_555 1_555
H26_11 C71_11 1_555 1_555
C81_11 C26_11 1_555 1_555
C82_11 C27_11 1_555 1_555
H36_11 C81_11 1_555 1_555
H37_11 C82_11 1_555 1_555
C92_11 C49_11 1_555 1_555
C93_11 C48_11 1_555 1_555
C103_11 C10_11 1_555 1_555
C104_11 C93_11 1_555 1_555
C114_11 C9_11 1_555 1_555
C115_11 C60_11 1_555 1_555
C125_11 C92_11 1_555 1_555
C126_11 C93_11 1_555 1_555
H47_11 C125_11 1_555 1_555
H48_11 C126_11 1_555 1_555
H58_11 C125_11 1_555 1_555
H59_11 C126_11 1_555 1_555
C136_11 C125_11 1_555 1_555
C137_11 C126_11 1_555 1_555
H69_11 C136_11 1_555 1_555
H70_11 C137_11 1_555 1_555
H80_11 C136_11 1_555 1_555
H81_11 C137_11 1_555 1_555
H91_11 C136_11 1_555 1_555
H92_11 C137_11 1_555 1_555
C147_11 C92_11 1_555 1_555
C148_11 C93_11 1_555 1_555
H102_11 C147_11 1_555 1_555
H103_11 C148_11 1_555 1_555
H113_11 C147_11 1_555 1_555
H114_11 C148_11 1_555 1_555
C158_11 C147_11 1_555 1_555
C159_11 C148_11 1_555 1_555
H124_11 C158_11 1_555 1_555
H125_11 C159_11 1_555 1_555
H135_11 C158_11 1_555 1_555
H136_11 C159_11 1_555 1_555
H146_11 C158_11 1_555 1_555
H147_11 C159_11 1_555 1_555
O4_19 Cd13_5 1_555 1_555
C6_11 C7_11 1_555 1_555
C9_11 C10_11 1_555 1_555
Cd10_2 O5_11 1_555 1_555
C59_11 C114_11 1_555 1_555
C70_11 C81_11 1_555 1_555
C71_11 C82_11 1_555 1_555
C92_11 C103_11 1_555 1_555
C103_11 C115_11 1_555 1_555
C104_11 C114_11 1_555 1_555
C104_11 C115_11 1_555 1_555
O4_20 Cd11_3 1_555 1_555
Cd6_4 O4_20 1_555 1_555
Cd5_4 O4_20 1_555 1_555
Cd9_12 O14_9 1_555 1_555
Cd7_7 O14_9 1_555 1_555
Cd8_2 O18_8 1_555 1_555
Cd17_11 O18_8 1_555 1_555
Cd8_7 O19_9 1_555 1_555
O7_9 Cd11_3 1_555 1_555
O11_9 Cd6_4 1_555 1_555
O12_12 Cd12_3 1_555 1_555
O14_9 C20_9 1_555 1_555
O6_2 C21_9 1_555 1_555
O18_8 C24_9 1_555 1_555
O19_9 Cd7_7 1_555 1_555
O23_9 Cd5_4 1_555 1_555
O26_12 Cd12_3 1_555 1_555
O28_9 Cd6_4 1_555 1_555
O29_9 Cd9_12 1_555 1_555
O33_8 Cd8_2 1_555 1_555
O34_9 Cd7_7 1_555 1_555
C17_9 O7_9 1_555 1_555
C19_9 O11_9 1_555 1_555
C20_9 O29_9 1_555 1_555
C21_9 O20_2 1_555 1_555
C24_9 O33_8 1_555 1_555
C25_9 O19_9 1_555 1_555
C28_9 C17_9 1_555 1_555
C30_9 C19_9 1_555 1_555
C31_9 C20_9 1_555 1_555
C32_9 C21_9 1_555 1_555
C35_9 C24_9 1_555 1_555
C36_9 C25_9 1_555 1_555
C39_9 C28_9 1_555 1_555
C41_9 C30_9 1_555 1_555
C42_9 C31_9 1_555 1_555
C43_9 C32_9 1_555 1_555
C46_9 C35_9 1_555 1_555
C47_9 C36_9 1_555 1_555
H16_9 C39_9 1_555 1_555
H18_9 C41_9 1_555 1_555
H19_9 C42_9 1_555 1_555
H20_9 C43_9 1_555 1_555
H23_9 C46_9 1_555 1_555
H24_9 C47_9 1_555 1_555
C50_9 C39_9 1_555 1_555
C52_9 C41_9 1_555 1_555
C53_9 C42_9 1_555 1_555
C54_9 C43_9 1_555 1_555
C57_9 C46_9 1_555 1_555
C58_9 C47_9 1_555 1_555
C61_9 C50_9 1_555 1_555
C63_9 C52_9 1_555 1_555
C64_9 C54_9 1_555 1_555
C66_9 C58_9 1_555 1_555
C67_9 C53_9 1_555 1_555
C69_9 C57_9 1_555 1_555
C72_9 C61_9 1_555 1_555
C74_9 C63_9 1_555 1_555
C75_9 C64_9 1_555 1_555
C77_9 C66_9 1_555 1_555
C78_9 C67_9 1_555 1_555
C80_9 C69_9 1_555 1_555
H27_9 C72_9 1_555 1_555
H29_9 C74_9 1_555 1_555
H30_9 C75_9 1_555 1_555
H32_9 C77_9 1_555 1_555
H33_9 C78_9 1_555 1_555
H35_9 C80_9 1_555 1_555
C83_9 C28_9 1_555 1_555
C85_9 C30_9 1_555 1_555
C86_9 C32_9 1_555 1_555
C88_9 C36_9 1_555 1_555
C89_9 C31_9 1_555 1_555
C91_9 C35_9 1_555 1_555
H38_9 C83_9 1_555 1_555
H40_9 C85_9 1_555 1_555
H41_9 C86_9 1_555 1_555
H43_9 C88_9 1_555 1_555
H44_9 C89_9 1_555 1_555
H46_9 C91_9 1_555 1_555
C94_9 C50_9 1_555 1_555
C96_9 C52_9 1_555 1_555
C97_9 C53_9 1_555 1_555
C99_9 C57_9 1_555 1_555
C100_9 C54_9 1_555 1_555
C102_9 C58_9 1_555 1_555
C105_9 C94_9 1_555 1_555
C107_9 C96_9 1_555 1_555
C108_9 C97_9 1_555 1_555
C110_9 C99_9 1_555 1_555
C111_9 C100_9 1_555 1_555
C113_9 C102_9 1_555 1_555
C116_9 C61_9 1_555 1_555
C118_9 C63_9 1_555 1_555
C119_9 C64_9 1_555 1_555
C121_9 C66_9 1_555 1_555
C122_9 C67_9 1_555 1_555
C124_9 C69_9 1_555 1_555
C127_9 C94_9 1_555 1_555
C129_9 C96_9 1_555 1_555
C130_9 C97_9 1_555 1_555
C132_9 C99_9 1_555 1_555
C133_9 C100_9 1_555 1_555
C135_9 C102_9 1_555 1_555
H49_9 C127_9 1_555 1_555
H51_9 C129_9 1_555 1_555
H52_9 C130_9 1_555 1_555
H54_9 C132_9 1_555 1_555
H55_9 C133_9 1_555 1_555
H57_9 C135_9 1_555 1_555
H60_9 C127_9 1_555 1_555
H62_9 C129_9 1_555 1_555
H63_9 C130_9 1_555 1_555
H65_9 C132_9 1_555 1_555
H66_9 C133_9 1_555 1_555
H68_9 C135_9 1_555 1_555
C138_9 C127_9 1_555 1_555
C140_9 C129_9 1_555 1_555
C141_9 C130_9 1_555 1_555
C143_9 C132_9 1_555 1_555
C144_9 C133_9 1_555 1_555
C146_9 C135_9 1_555 1_555
H71_9 C138_9 1_555 1_555
H73_9 C140_9 1_555 1_555
H74_9 C141_9 1_555 1_555
H76_9 C143_9 1_555 1_555
H77_9 C144_9 1_555 1_555
H79_9 C146_9 1_555 1_555
H82_9 C138_9 1_555 1_555
H84_9 C140_9 1_555 1_555
H85_9 C141_9 1_555 1_555
H87_9 C143_9 1_555 1_555
H88_9 C144_9 1_555 1_555
H90_9 C146_9 1_555 1_555
H93_9 C138_9 1_555 1_555
H95_9 C140_9 1_555 1_555
H96_9 C141_9 1_555 1_555
H98_9 C143_9 1_555 1_555
H99_9 C144_9 1_555 1_555
H101_9 C146_9 1_555 1_555
C149_9 C94_9 1_555 1_555
C151_9 C96_9 1_555 1_555
C152_9 C97_9 1_555 1_555
C154_9 C99_9 1_555 1_555
C155_9 C100_9 1_555 1_555
C157_9 C102_9 1_555 1_555
H104_9 C149_9 1_555 1_555
H106_9 C151_9 1_555 1_555
H107_9 C152_9 1_555 1_555
H109_9 C154_9 1_555 1_555
H110_9 C155_9 1_555 1_555
H112_9 C157_9 1_555 1_555
H115_9 C149_9 1_555 1_555
H117_9 C151_9 1_555 1_555
H118_9 C152_9 1_555 1_555
H120_9 C154_9 1_555 1_555
H121_9 C155_9 1_555 1_555
H123_9 C157_9 1_555 1_555
C160_9 C149_9 1_555 1_555
C162_9 C151_9 1_555 1_555
C163_9 C152_9 1_555 1_555
C165_9 C154_9 1_555 1_555
C166_9 C155_9 1_555 1_555
C168_9 C157_9 1_555 1_555
H126_9 C160_9 1_555 1_555
H128_9 C162_9 1_555 1_555
H129_9 C163_9 1_555 1_555
H131_9 C165_9 1_555 1_555
H132_9 C166_9 1_555 1_555
H134_9 C168_9 1_555 1_555
H137_9 C160_9 1_555 1_555
H139_9 C162_9 1_555 1_555
H140_9 C163_9 1_555 1_555
H142_9 C165_9 1_555 1_555
H143_9 C166_9 1_555 1_555
H145_9 C168_9 1_555 1_555
H148_9 C160_9 1_555 1_555
H150_9 C162_9 1_555 1_555
H151_9 C163_9 1_555 1_555
H153_9 C165_9 1_555 1_555
H154_9 C166_9 1_555 1_555
H156_9 C168_9 1_555 1_555
O4_20 Cd12_3 1_555 1_555
Cd6_4 O7_9 1_555 1_555
Cd5_4 O11_9 1_555 1_555
Cd5_4 O12_12 1_555 1_555
O23_9 C19_9 1_555 1_555
O28_9 C17_9 1_555 1_555
O34_9 C25_9 1_555 1_555
C72_9 C83_9 1_555 1_555
C74_9 C85_9 1_555 1_555
C75_9 C86_9 1_555 1_555
C77_9 C88_9 1_555 1_555
C78_9 C89_9 1_555 1_555
C80_9 C91_9 1_555 1_555
C105_9 C116_9 1_555 1_555
C105_9 C119_9 1_555 1_555
C107_9 C118_9 1_555 1_555
C107_9 C121_9 1_555 1_555
C108_9 C116_9 1_555 1_555
C108_9 C122_9 1_555 1_555
C110_9 C118_9 1_555 1_555
C110_9 C124_9 1_555 1_555
C111_9 C119_9 1_555 1_555
C111_9 C122_9 1_555 1_555
C113_9 C121_9 1_555 1_555
C113_9 C124_9 1_555 1_555
Cd11_4 O2_12 1_555 1_555
O2_12 C1_12 1_555 1_555
O3_12 Cd11_4 1_555 1_555
O4_21 Cd11_4 1_555 1_555
C1_12 O3_12 1_555 1_555
C2_12 C1_12 1_555 1_555
C3_12 C2_12 1_555 1_555
H1_12 C3_12 1_555 1_555
C4_12 C3_12 1_555 1_555
C5_12 C4_12 1_555 1_555
C6_12 C5_12 1_555 1_555
H2_12 C6_12 1_555 1_555
C7_12 C2_12 1_555 1_555
H3_12 C7_12 1_555 1_555
C8_12 C4_12 1_555 1_555
C9_12 C8_12 1_555 1_555
C10_12 C5_12 1_555 1_555
C11_12 C8_12 1_555 1_555
H4_12 C11_12 1_555 1_555
H5_12 C11_12 1_555 1_555
C12_12 C11_12 1_555 1_555
H6_12 C12_12 1_555 1_555
H7_12 C12_12 1_555 1_555
H8_12 C12_12 1_555 1_555
C13_12 C8_12 1_555 1_555
H9_12 C13_12 1_555 1_555
H10_12 C13_12 1_555 1_555
C14_12 C13_12 1_555 1_555
H11_12 C14_12 1_555 1_555
H12_12 C14_12 1_555 1_555
H13_12 C14_12 1_555 1_555
Cd12_4 O2_12 1_555 1_555
Cd6_5 O4_21 1_555 1_555
Cd5_5 O4_21 1_555 1_555
Cd10_10 O9_12 1_555 1_555
Cd18_10 O9_12 1_555 1_555
O5_12 Cd11_4 1_555 1_555
O13_7 C15_12 1_555 1_555
O9_12 C16_12 1_555 1_555
O22_12 Cd10_10 1_555 1_555
O27_12 Cd6_5 1_555 1_555
C15_12 O24_7 1_555 1_555
C16_12 O22_12 1_555 1_555
C26_12 C15_12 1_555 1_555
C27_12 C16_12 1_555 1_555
C37_12 C26_12 1_555 1_555
C38_12 C27_12 1_555 1_555
H14_12 C37_12 1_555 1_555
H15_12 C38_12 1_555 1_555
C48_12 C37_12 1_555 1_555
C49_12 C38_12 1_555 1_555
C59_12 C48_12 1_555 1_555
C60_12 C49_12 1_555 1_555
C70_12 C59_12 1_555 1_555
C71_12 C60_12 1_555 1_555
H25_12 C70_12 1_555 1_555
H26_12 C71_12 1_555 1_555
C81_12 C26_12 1_555 1_555
C82_12 C27_12 1_555 1_555
H36_12 C81_12 1_555 1_555
H37_12 C82_12 1_555 1_555
C92_12 C49_12 1_555 1_555
C93_12 C48_12 1_555 1_555
C103_12 C10_12 1_555 1_555
C104_12 C93_12 1_555 1_555
C114_12 C9_12 1_555 1_555
C115_12 C60_12 1_555 1_555
C125_12 C92_12 1_555 1_555
C126_12 C93_12 1_555 1_555
H47_12 C125_12 1_555 1_555
H48_12 C126_12 1_555 1_555
H58_12 C125_12 1_555 1_555
H59_12 C126_12 1_555 1_555
C136_12 C125_12 1_555 1_555
C137_12 C126_12 1_555 1_555
H69_12 C136_12 1_555 1_555
H70_12 C137_12 1_555 1_555
H80_12 C136_12 1_555 1_555
H81_12 C137_12 1_555 1_555
H91_12 C136_12 1_555 1_555
H92_12 C137_12 1_555 1_555
C147_12 C92_12 1_555 1_555
C148_12 C93_12 1_555 1_555
H102_12 C147_12 1_555 1_555
H103_12 C148_12 1_555 1_555
H113_12 C147_12 1_555 1_555
H114_12 C148_12 1_555 1_555
C158_12 C147_12 1_555 1_555
C159_12 C148_12 1_555 1_555
H124_12 C158_12 1_555 1_555
H125_12 C159_12 1_555 1_555
H135_12 C158_12 1_555 1_555
H136_12 C159_12 1_555 1_555
H146_12 C158_12 1_555 1_555
H147_12 C159_12 1_555 1_555
O4_21 Cd12_4 1_555 1_555
C6_12 C7_12 1_555 1_555
C9_12 C10_12 1_555 1_555
Cd6_5 O5_12 1_555 1_555
C59_12 C114_12 1_555 1_555
C70_12 C81_12 1_555 1_555
C71_12 C82_12 1_555 1_555
C92_12 C103_12 1_555 1_555
C103_12 C115_12 1_555 1_555
C104_12 C114_12 1_555 1_555
C104_12 C115_12 1_555 1_555
Cd9_11 O2_13 1_555 1_555
O2_13 C1_13 1_555 1_555
O3_13 Cd9_11 1_555 1_555
O4_22 Cd9_11 1_555 1_555
C1_13 O3_13 1_555 1_555
C2_13 C1_13 1_555 1_555
C3_13 C2_13 1_555 1_555
H1_13 C3_13 1_555 1_555
C4_13 C3_13 1_555 1_555
C5_13 C4_13 1_555 1_555
C6_13 C5_13 1_555 1_555
H2_13 C6_13 1_555 1_555
C7_13 C2_13 1_555 1_555
H3_13 C7_13 1_555 1_555
C8_13 C4_13 1_555 1_555
C9_13 C8_13 1_555 1_555
C10_13 C5_13 1_555 1_555
C11_13 C8_13 1_555 1_555
H4_13 C11_13 1_555 1_555
H5_13 C11_13 1_555 1_555
C12_13 C11_13 1_555 1_555
H6_13 C12_13 1_555 1_555
H7_13 C12_13 1_555 1_555
H8_13 C12_13 1_555 1_555
C13_13 C8_13 1_555 1_555
H9_13 C13_13 1_555 1_555
H10_13 C13_13 1_555 1_555
C14_13 C13_13 1_555 1_555
H11_13 C14_13 1_555 1_555
H12_13 C14_13 1_555 1_555
H13_13 C14_13 1_555 1_555
Cd7_9 O2_13 1_555 1_555
Cd12_7 O4_22 1_555 1_555
Cd11_7 O4_22 1_555 1_555
Cd18_10 O9_13 1_555 1_555
Cd8_8 O9_13 1_555 1_555
Cd12_8 O14_10 1_555 1_555
Cd9_8 O14_10 1_555 1_555
Cd12_9 O15_7 1_555 1_555
Cd9_9 O15_7 1_555 1_555
O5_13 Cd9_11 1_555 1_555
O7_10 Cd9_11 1_555 1_555
O5_12 C15_13 1_555 1_555
O9_13 C16_13 1_555 1_555
O13_9 Cd12_7 1_555 1_555
O14_10 C20_10 1_555 1_555
O15_7 C21_10 1_555 1_555
O22_13 Cd18_10 1_555 1_555
O24_9 Cd11_7 1_555 1_555
O27_13 Cd12_7 1_555 1_555
O28_10 Cd12_7 1_555 1_555
O29_10 Cd12_8 1_555 1_555
O30_7 Cd12_9 1_555 1_555
C15_13 O27_12 1_555 1_555
C16_13 O22_13 1_555 1_555
C17_10 O7_10 1_555 1_555
C20_10 O29_10 1_555 1_555
C21_10 O30_7 1_555 1_555
C26_13 C15_13 1_555 1_555
C27_13 C16_13 1_555 1_555
C28_10 C17_10 1_555 1_555
C31_10 C20_10 1_555 1_555
C32_10 C21_10 1_555 1_555
C37_13 C26_13 1_555 1_555
C38_13 C27_13 1_555 1_555
C39_10 C28_10 1_555 1_555
C42_10 C31_10 1_555 1_555
C43_10 C32_10 1_555 1_555
H14_13 C37_13 1_555 1_555
H15_13 C38_13 1_555 1_555
H16_10 C39_10 1_555 1_555
H19_10 C42_10 1_555 1_555
H20_10 C43_10 1_555 1_555
C48_13 C37_13 1_555 1_555
C49_13 C38_13 1_555 1_555
C50_10 C39_10 1_555 1_555
C53_10 C42_10 1_555 1_555
C54_10 C43_10 1_555 1_555
C59_13 C48_13 1_555 1_555
C60_13 C49_13 1_555 1_555
C61_10 C50_10 1_555 1_555
C64_10 C54_10 1_555 1_555
C67_10 C53_10 1_555 1_555
C70_13 C59_13 1_555 1_555
C71_13 C60_13 1_555 1_555
C72_10 C61_10 1_555 1_555
C75_10 C64_10 1_555 1_555
C78_10 C67_10 1_555 1_555
H25_13 C70_13 1_555 1_555
H26_13 C71_13 1_555 1_555
H27_10 C72_10 1_555 1_555
H30_10 C75_10 1_555 1_555
H33_10 C78_10 1_555 1_555
C81_13 C26_13 1_555 1_555
C82_13 C27_13 1_555 1_555
C83_10 C28_10 1_555 1_555
C86_10 C32_10 1_555 1_555
C89_10 C31_10 1_555 1_555
H36_13 C81_13 1_555 1_555
H37_13 C82_13 1_555 1_555
H38_10 C83_10 1_555 1_555
H41_10 C86_10 1_555 1_555
H44_10 C89_10 1_555 1_555
C92_13 C49_13 1_555 1_555
C93_13 C48_13 1_555 1_555
C94_10 C50_10 1_555 1_555
C97_10 C53_10 1_555 1_555
C100_10 C54_10 1_555 1_555
C103_13 C10_13 1_555 1_555
C104_13 C93_13 1_555 1_555
C105_10 C94_10 1_555 1_555
C108_10 C97_10 1_555 1_555
C111_10 C100_10 1_555 1_555
C114_13 C9_13 1_555 1_555
C115_13 C60_13 1_555 1_555
C116_10 C61_10 1_555 1_555
C119_10 C64_10 1_555 1_555
C122_10 C67_10 1_555 1_555
C125_13 C92_13 1_555 1_555
C126_13 C93_13 1_555 1_555
C127_10 C94_10 1_555 1_555
C130_10 C97_10 1_555 1_555
C133_10 C100_10 1_555 1_555
H47_13 C125_13 1_555 1_555
H48_13 C126_13 1_555 1_555
H49_10 C127_10 1_555 1_555
H52_10 C130_10 1_555 1_555
H55_10 C133_10 1_555 1_555
H58_13 C125_13 1_555 1_555
H59_13 C126_13 1_555 1_555
H60_10 C127_10 1_555 1_555
H63_10 C130_10 1_555 1_555
H66_10 C133_10 1_555 1_555
C136_13 C125_13 1_555 1_555
C137_13 C126_13 1_555 1_555
C138_10 C127_10 1_555 1_555
C141_10 C130_10 1_555 1_555
C144_10 C133_10 1_555 1_555
H69_13 C136_13 1_555 1_555
H70_13 C137_13 1_555 1_555
H71_10 C138_10 1_555 1_555
H74_10 C141_10 1_555 1_555
H77_10 C144_10 1_555 1_555
H80_13 C136_13 1_555 1_555
H81_13 C137_13 1_555 1_555
H82_10 C138_10 1_555 1_555
H85_10 C141_10 1_555 1_555
H88_10 C144_10 1_555 1_555
H91_13 C136_13 1_555 1_555
H92_13 C137_13 1_555 1_555
H93_10 C138_10 1_555 1_555
H96_10 C141_10 1_555 1_555
H99_10 C144_10 1_555 1_555
C147_13 C92_13 1_555 1_555
C148_13 C93_13 1_555 1_555
C149_10 C94_10 1_555 1_555
C152_10 C97_10 1_555 1_555
C155_10 C100_10 1_555 1_555
H102_13 C147_13 1_555 1_555
H103_13 C148_13 1_555 1_555
H104_10 C149_10 1_555 1_555
H107_10 C152_10 1_555 1_555
H110_10 C155_10 1_555 1_555
H113_13 C147_13 1_555 1_555
H114_13 C148_13 1_555 1_555
H115_10 C149_10 1_555 1_555
H118_10 C152_10 1_555 1_555
H121_10 C155_10 1_555 1_555
C158_13 C147_13 1_555 1_555
C159_13 C148_13 1_555 1_555
C160_10 C149_10 1_555 1_555
C163_10 C152_10 1_555 1_555
C166_10 C155_10 1_555 1_555
H124_13 C158_13 1_555 1_555
H125_13 C159_13 1_555 1_555
H126_10 C160_10 1_555 1_555
H129_10 C163_10 1_555 1_555
H132_10 C166_10 1_555 1_555
H135_13 C158_13 1_555 1_555
H136_13 C159_13 1_555 1_555
H137_10 C160_10 1_555 1_555
H140_10 C163_10 1_555 1_555
H143_10 C166_10 1_555 1_555
H146_13 C158_13 1_555 1_555
H147_13 C159_13 1_555 1_555
H148_10 C160_10 1_555 1_555
H151_10 C163_10 1_555 1_555
H154_10 C166_10 1_555 1_555
O4_22 Cd7_9 1_555 1_555
C6_13 C7_13 1_555 1_555
C9_13 C10_13 1_555 1_555
Cd12_7 O5_13 1_555 1_555
Cd12_7 O7_10 1_555 1_555
Cd11_7 O13_9 1_555 1_555
O28_10 C17_10 1_555 1_555
C59_13 C114_13 1_555 1_555
C70_13 C81_13 1_555 1_555
C71_13 C82_13 1_555 1_555
C72_10 C83_10 1_555 1_555
C75_10 C86_10 1_555 1_555
C78_10 C89_10 1_555 1_555
C92_13 C103_13 1_555 1_555
C103_13 C115_13 1_555 1_555
C104_13 C114_13 1_555 1_555
C104_13 C115_13 1_555 1_555
C105_10 C116_10 1_555 1_555
C105_10 C119_10 1_555 1_555
C108_10 C116_10 1_555 1_555
C108_10 C122_10 1_555 1_555
C111_10 C119_10 1_555 1_555
C111_10 C122_10 1_555 1_555
Cd17_9 O18_9 1_555 1_555
Cd17_13 O18_9 1_555 1_555
O18_9 C24_10 1_555 1_555
O33_9 Cd17_9 1_555 1_555
C19_10 O12_6 1_555 1_555
C24_10 O33_9 1_555 1_555
C25_10 O12_9 1_555 1_555
C30_10 C19_10 1_555 1_555
C35_10 C24_10 1_555 1_555
C36_10 C25_10 1_555 1_555
C41_10 C30_10 1_555 1_555
C46_10 C35_10 1_555 1_555
C47_10 C36_10 1_555 1_555
H18_10 C41_10 1_555 1_555
H23_10 C46_10 1_555 1_555
H24_10 C47_10 1_555 1_555
C52_10 C41_10 1_555 1_555
C57_10 C46_10 1_555 1_555
C58_10 C47_10 1_555 1_555
C63_10 C52_10 1_555 1_555
C66_10 C58_10 1_555 1_555
C69_10 C57_10 1_555 1_555
C74_10 C63_10 1_555 1_555
C77_10 C66_10 1_555 1_555
C80_10 C69_10 1_555 1_555
H29_10 C74_10 1_555 1_555
H32_10 C77_10 1_555 1_555
H35_10 C80_10 1_555 1_555
C85_10 C30_10 1_555 1_555
C88_10 C36_10 1_555 1_555
C91_10 C35_10 1_555 1_555
H40_10 C85_10 1_555 1_555
H43_10 C88_10 1_555 1_555
H46_10 C91_10 1_555 1_555
C96_10 C52_10 1_555 1_555
C99_10 C57_10 1_555 1_555
C102_10 C58_10 1_555 1_555
C107_10 C96_10 1_555 1_555
C110_10 C99_10 1_555 1_555
C113_10 C102_10 1_555 1_555
C118_10 C63_10 1_555 1_555
C121_10 C66_10 1_555 1_555
C124_10 C69_10 1_555 1_555
C129_10 C96_10 1_555 1_555
C132_10 C99_10 1_555 1_555
C135_10 C102_10 1_555 1_555
H51_10 C129_10 1_555 1_555
H54_10 C132_10 1_555 1_555
H57_10 C135_10 1_555 1_555
H62_10 C129_10 1_555 1_555
H65_10 C132_10 1_555 1_555
H68_10 C135_10 1_555 1_555
C140_10 C129_10 1_555 1_555
C143_10 C132_10 1_555 1_555
C146_10 C135_10 1_555 1_555
H73_10 C140_10 1_555 1_555
H76_10 C143_10 1_555 1_555
H79_10 C146_10 1_555 1_555
H84_10 C140_10 1_555 1_555
H87_10 C143_10 1_555 1_555
H90_10 C146_10 1_555 1_555
H95_10 C140_10 1_555 1_555
H98_10 C143_10 1_555 1_555
H101_10 C146_10 1_555 1_555
C151_10 C96_10 1_555 1_555
C154_10 C99_10 1_555 1_555
C157_10 C102_10 1_555 1_555
H106_10 C151_10 1_555 1_555
H109_10 C154_10 1_555 1_555
H112_10 C157_10 1_555 1_555
H117_10 C151_10 1_555 1_555
H120_10 C154_10 1_555 1_555
H123_10 C157_10 1_555 1_555
C162_10 C151_10 1_555 1_555
C165_10 C154_10 1_555 1_555
C168_10 C157_10 1_555 1_555
H128_10 C162_10 1_555 1_555
H131_10 C165_10 1_555 1_555
H134_10 C168_10 1_555 1_555
H139_10 C162_10 1_555 1_555
H142_10 C165_10 1_555 1_555
H145_10 C168_10 1_555 1_555
H150_10 C162_10 1_555 1_555
H153_10 C165_10 1_555 1_555
H156_10 C168_10 1_555 1_555
O26_6 C19_10 1_555 1_555
O26_9 C25_10 1_555 1_555
C74_10 C85_10 1_555 1_555
C77_10 C88_10 1_555 1_555
C80_10 C91_10 1_555 1_555
C107_10 C118_10 1_555 1_555
C107_10 C121_10 1_555 1_555
C110_10 C118_10 1_555 1_555
C110_10 C124_10 1_555 1_555
C113_10 C121_10 1_555 1_555
C113_10 C124_10 1_555 1_555
O5_6 C1_14 1_555 1_555
C1_14 O27_6 1_555 1_555
C2_14 C1_14 1_555 1_555
C3_14 C2_14 1_555 1_555
H1_14 C3_14 1_555 1_555
C4_14 C3_14 1_555 1_555
C5_14 C4_14 1_555 1_555
C6_14 C5_14 1_555 1_555
H2_14 C6_14 1_555 1_555
C7_14 C2_14 1_555 1_555
H3_14 C7_14 1_555 1_555
C8_14 C4_14 1_555 1_555
C9_14 C8_14 1_555 1_555
C10_14 C5_14 1_555 1_555
C11_14 C8_14 1_555 1_555
H4_14 C11_14 1_555 1_555
H5_14 C11_14 1_555 1_555
C12_14 C11_14 1_555 1_555
H6_14 C12_14 1_555 1_555
H7_14 C12_14 1_555 1_555
H8_14 C12_14 1_555 1_555
C13_14 C8_14 1_555 1_555
H9_14 C13_14 1_555 1_555
H10_14 C13_14 1_555 1_555
C14_14 C13_14 1_555 1_555
H11_14 C14_14 1_555 1_555
H12_14 C14_14 1_555 1_555
H13_14 C14_14 1_555 1_555
Cd7_12 O9_14 1_555 1_555
Cd7_10 O9_14 1_555 1_555
O13_9 C15_14 1_555 1_555
O9_14 C16_14 1_555 1_555
O22_14 Cd7_12 1_555 1_555
C15_14 O24_9 1_555 1_555
C16_14 O22_14 1_555 1_555
C26_14 C15_14 1_555 1_555
C27_14 C16_14 1_555 1_555
C37_14 C26_14 1_555 1_555
C38_14 C27_14 1_555 1_555
H14_14 C37_14 1_555 1_555
H15_14 C38_14 1_555 1_555
C48_14 C37_14 1_555 1_555
C49_14 C38_14 1_555 1_555
C59_14 C48_14 1_555 1_555
C60_14 C49_14 1_555 1_555
C70_14 C59_14 1_555 1_555
C71_14 C60_14 1_555 1_555
H25_14 C70_14 1_555 1_555
H26_14 C71_14 1_555 1_555
C81_14 C26_14 1_555 1_555
C82_14 C27_14 1_555 1_555
H36_14 C81_14 1_555 1_555
H37_14 C82_14 1_555 1_555
C92_14 C49_14 1_555 1_555
C93_14 C48_14 1_555 1_555
C103_14 C10_14 1_555 1_555
C104_14 C93_14 1_555 1_555
C114_14 C9_14 1_555 1_555
C115_14 C60_14 1_555 1_555
C125_14 C92_14 1_555 1_555
C126_14 C93_14 1_555 1_555
H47_14 C125_14 1_555 1_555
H48_14 C126_14 1_555 1_555
H58_14 C125_14 1_555 1_555
H59_14 C126_14 1_555 1_555
C136_14 C125_14 1_555 1_555
C137_14 C126_14 1_555 1_555
H69_14 C136_14 1_555 1_555
H70_14 C137_14 1_555 1_555
H80_14 C136_14 1_555 1_555
H81_14 C137_14 1_555 1_555
H91_14 C136_14 1_555 1_555
H92_14 C137_14 1_555 1_555
C147_14 C92_14 1_555 1_555
C148_14 C93_14 1_555 1_555
H102_14 C147_14 1_555 1_555
H103_14 C148_14 1_555 1_555
H113_14 C147_14 1_555 1_555
H114_14 C148_14 1_555 1_555
C158_14 C147_14 1_555 1_555
C159_14 C148_14 1_555 1_555
H124_14 C158_14 1_555 1_555
H125_14 C159_14 1_555 1_555
H135_14 C158_14 1_555 1_555
H136_14 C159_14 1_555 1_555
H146_14 C158_14 1_555 1_555
H147_14 C159_14 1_555 1_555
C6_14 C7_14 1_555 1_555
C9_14 C10_14 1_555 1_555
C59_14 C114_14 1_555 1_555
C70_14 C81_14 1_555 1_555
C71_14 C82_14 1_555 1_555
C92_14 C103_14 1_555 1_555
C103_14 C115_14 1_555 1_555
C104_14 C114_14 1_555 1_555
C104_14 C115_14 1_555 1_555
Cd12_9 O2_14 1_555 1_555
O2_14 C1_15 1_555 1_555
O3_14 Cd12_9 1_555 1_555
O4_23 Cd12_9 1_555 1_555
C1_15 O3_14 1_555 1_555
C2_15 C1_15 1_555 1_555
C3_15 C2_15 1_555 1_555
H1_15 C3_15 1_555 1_555
C4_15 C3_15 1_555 1_555
C5_15 C4_15 1_555 1_555
C6_15 C5_15 1_555 1_555
H2_15 C6_15 1_555 1_555
C7_15 C2_15 1_555 1_555
H3_15 C7_15 1_555 1_555
C8_15 C4_15 1_555 1_555
C9_15 C8_15 1_555 1_555
C10_15 C5_15 1_555 1_555
C11_15 C8_15 1_555 1_555
H4_15 C11_15 1_555 1_555
H5_15 C11_15 1_555 1_555
C12_15 C11_15 1_555 1_555
H6_15 C12_15 1_555 1_555
H7_15 C12_15 1_555 1_555
H8_15 C12_15 1_555 1_555
C13_15 C8_15 1_555 1_555
H9_15 C13_15 1_555 1_555
H10_15 C13_15 1_555 1_555
C14_15 C13_15 1_555 1_555
H11_15 C14_15 1_555 1_555
H12_15 C14_15 1_555 1_555
H13_15 C14_15 1_555 1_555
Cd9_9 O2_14 1_555 1_555
Cd18_9 O4_23 1_555 1_555
Cd10_9 O4_23 1_555 1_555
Cd5_6 O8_5 1_555 1_555
Cd9_7 O8_5 1_555 1_555
Cd17_3 O9_15 1_555 1_555
Cd8_9 O9_15 1_555 1_555
Cd18_7 O16_5 1_555 1_555
O5_14 Cd12_9 1_555 1_555
O8_5 C15_15 1_555 1_555
O9_15 C16_15 1_555 1_555
O10_5 Cd9_9 1_555 1_555
O16_5 Cd5_6 1_555 1_555
O5_9 C23_5 1_555 1_555
O21_5 Cd5_6 1_555 1_555
O22_15 Cd17_3 1_555 1_555
O25_5 Cd9_9 1_555 1_555
O27_14 Cd18_9 1_555 1_555
O31_5 Cd18_7 1_555 1_555
C15_15 O21_5 1_555 1_555
C16_15 O22_15 1_555 1_555
C18_5 O10_5 1_555 1_555
C22_5 O16_5 1_555 1_555
C23_5 O27_9 1_555 1_555
C26_15 C15_15 1_555 1_555
C27_15 C16_15 1_555 1_555
C29_5 C18_5 1_555 1_555
C33_5 C22_5 1_555 1_555
C34_5 C23_5 1_555 1_555
C37_15 C26_15 1_555 1_555
C38_15 C27_15 1_555 1_555
C40_5 C29_5 1_555 1_555
C44_5 C33_5 1_555 1_555
C45_5 C34_5 1_555 1_555
H14_15 C37_15 1_555 1_555
H15_15 C38_15 1_555 1_555
H17_5 C40_5 1_555 1_555
H21_5 C44_5 1_555 1_555
H22_5 C45_5 1_555 1_555
C48_15 C37_15 1_555 1_555
C49_15 C38_15 1_555 1_555
C51_5 C40_5 1_555 1_555
C55_5 C44_5 1_555 1_555
C56_5 C45_5 1_555 1_555
C59_15 C48_15 1_555 1_555
C60_15 C49_15 1_555 1_555
C62_5 C51_5 1_555 1_555
C65_5 C56_5 1_555 1_555
C68_5 C55_5 1_555 1_555
C70_15 C59_15 1_555 1_555
C71_15 C60_15 1_555 1_555
C73_5 C62_5 1_555 1_555
C76_5 C65_5 1_555 1_555
C79_5 C68_5 1_555 1_555
H25_15 C70_15 1_555 1_555
H26_15 C71_15 1_555 1_555
H28_5 C73_5 1_555 1_555
H31_5 C76_5 1_555 1_555
H34_5 C79_5 1_555 1_555
C81_15 C26_15 1_555 1_555
C82_15 C27_15 1_555 1_555
C84_5 C29_5 1_555 1_555
C87_5 C34_5 1_555 1_555
C90_5 C33_5 1_555 1_555
H36_15 C81_15 1_555 1_555
H37_15 C82_15 1_555 1_555
H39_5 C84_5 1_555 1_555
H42_5 C87_5 1_555 1_555
H45_5 C90_5 1_555 1_555
C92_15 C49_15 1_555 1_555
C93_15 C48_15 1_555 1_555
C95_5 C51_5 1_555 1_555
C98_5 C55_5 1_555 1_555
C101_5 C56_5 1_555 1_555
C103_15 C10_15 1_555 1_555
C104_15 C93_15 1_555 1_555
C106_5 C95_5 1_555 1_555
C109_5 C98_5 1_555 1_555
C112_5 C101_5 1_555 1_555
C114_15 C9_15 1_555 1_555
C115_15 C60_15 1_555 1_555
C117_5 C62_5 1_555 1_555
C120_5 C65_5 1_555 1_555
C123_5 C68_5 1_555 1_555
C125_15 C92_15 1_555 1_555
C126_15 C93_15 1_555 1_555
C128_5 C95_5 1_555 1_555
C131_5 C98_5 1_555 1_555
C134_5 C101_5 1_555 1_555
H47_15 C125_15 1_555 1_555
H48_15 C126_15 1_555 1_555
H50_5 C128_5 1_555 1_555
H53_5 C131_5 1_555 1_555
H56_5 C134_5 1_555 1_555
H58_15 C125_15 1_555 1_555
H59_15 C126_15 1_555 1_555
H61_5 C128_5 1_555 1_555
H64_5 C131_5 1_555 1_555
H67_5 C134_5 1_555 1_555
C136_15 C125_15 1_555 1_555
C137_15 C126_15 1_555 1_555
C139_5 C128_5 1_555 1_555
C142_5 C131_5 1_555 1_555
C145_5 C134_5 1_555 1_555
H69_15 C136_15 1_555 1_555
H70_15 C137_15 1_555 1_555
H72_5 C139_5 1_555 1_555
H75_5 C142_5 1_555 1_555
H78_5 C145_5 1_555 1_555
H80_15 C136_15 1_555 1_555
H81_15 C137_15 1_555 1_555
H83_5 C139_5 1_555 1_555
H86_5 C142_5 1_555 1_555
H89_5 C145_5 1_555 1_555
H91_15 C136_15 1_555 1_555
H92_15 C137_15 1_555 1_555
H94_5 C139_5 1_555 1_555
H97_5 C142_5 1_555 1_555
H100_5 C145_5 1_555 1_555
C147_15 C92_15 1_555 1_555
C148_15 C93_15 1_555 1_555
C150_5 C95_5 1_555 1_555
C153_5 C98_5 1_555 1_555
C156_5 C101_5 1_555 1_555
H102_15 C147_15 1_555 1_555
H103_15 C148_15 1_555 1_555
H105_5 C150_5 1_555 1_555
H108_5 C153_5 1_555 1_555
H111_5 C156_5 1_555 1_555
H113_15 C147_15 1_555 1_555
H114_15 C148_15 1_555 1_555
H116_5 C150_5 1_555 1_555
H119_5 C153_5 1_555 1_555
H122_5 C156_5 1_555 1_555
C158_15 C147_15 1_555 1_555
C159_15 C148_15 1_555 1_555
C161_5 C150_5 1_555 1_555
C164_5 C153_5 1_555 1_555
C167_5 C156_5 1_555 1_555
H124_15 C158_15 1_555 1_555
H125_15 C159_15 1_555 1_555
H127_5 C161_5 1_555 1_555
H130_5 C164_5 1_555 1_555
H133_5 C167_5 1_555 1_555
H135_15 C158_15 1_555 1_555
H136_15 C159_15 1_555 1_555
H138_5 C161_5 1_555 1_555
H141_5 C164_5 1_555 1_555
H144_5 C167_5 1_555 1_555
H146_15 C158_15 1_555 1_555
H147_15 C159_15 1_555 1_555
H149_5 C161_5 1_555 1_555
H152_5 C164_5 1_555 1_555
H155_5 C167_5 1_555 1_555
O4_23 Cd9_9 1_555 1_555
C6_15 C7_15 1_555 1_555
C9_15 C10_15 1_555 1_555
Cd18_9 O5_14 1_555 1_555
Cd10_9 O10_5 1_555 1_555
O25_5 C18_5 1_555 1_555
O31_5 C22_5 1_555 1_555
C59_15 C114_15 1_555 1_555
C70_15 C81_15 1_555 1_555
C71_15 C82_15 1_555 1_555
C73_5 C84_5 1_555 1_555
C76_5 C87_5 1_555 1_555
C79_5 C90_5 1_555 1_555
C92_15 C103_15 1_555 1_555
C103_15 C115_15 1_555 1_555
C104_15 C114_15 1_555 1_555
C104_15 C115_15 1_555 1_555
C106_5 C117_5 1_555 1_555
C106_5 C120_5 1_555 1_555
C109_5 C117_5 1_555 1_555
C109_5 C123_5 1_555 1_555
C112_5 C120_5 1_555 1_555
C112_5 C123_5 1_555 1_555
Cd17 O2_15 1_555 1_555
O2_15 C1_16 1_555 1_555
O3_15 Cd17 1_555 1_555
O4_24 Cd17 1_555 1_555
C1_16 O3_15 1_555 1_555
C2_16 C1_16 1_555 1_555
C3_16 C2_16 1_555 1_555
H1_16 C3_16 1_555 1_555
C4_16 C3_16 1_555 1_555
C5_16 C4_16 1_555 1_555
C6_16 C5_16 1_555 1_555
H2_16 C6_16 1_555 1_555
C7_16 C2_16 1_555 1_555
H3_16 C7_16 1_555 1_555
C8_16 C4_16 1_555 1_555
C9_16 C8_16 1_555 1_555
C10_16 C5_16 1_555 1_555
C11_16 C8_16 1_555 1_555
H4_16 C11_16 1_555 1_555
H5_16 C11_16 1_555 1_555
C12_16 C11_16 1_555 1_555
H6_16 C12_16 1_555 1_555
H7_16 C12_16 1_555 1_555
H8_16 C12_16 1_555 1_555
C13_16 C8_16 1_555 1_555
H9_16 C13_16 1_555 1_555
H10_16 C13_16 1_555 1_555
C14_16 C13_16 1_555 1_555
H11_16 C14_16 1_555 1_555
H12_16 C14_16 1_555 1_555
H13_16 C14_16 1_555 1_555
Cd2_6 O2_15 1_555 1_555
Cd16 O4_24 1_555 1_555
Cd7_11 O4_24 1_555 1_555
Cd12_8 O8_6 1_555 1_555
Cd9_8 O8_6 1_555 1_555
Cd7_13 O9_16 1_555 1_555
Cd9_12 O9_16 1_555 1_555
Cd18_8 O16_6 1_555 1_555
Cd16_9 O18_10 1_555 1_555
Cd7_6 O18_10 1_555 1_555
O5_15 Cd17 1_555 1_555
O6_8 Cd17 1_555 1_555
O8_6 C15_16 1_555 1_555
O9_16 C16_16 1_555 1_555
O10_6 Cd2_6 1_555 1_555
O11_10 Cd16 1_555 1_555
O12_13 Cd2_6 1_555 1_555
O16_6 Cd12_8 1_555 1_555
O5_7 C23_6 1_555 1_555
O18_10 C24_11 1_555 1_555
O20_8 Cd17 1_555 1_555
O21_6 Cd12_8 1_555 1_555
O22_16 Cd7_13 1_555 1_555
O23_10 Cd7_11 1_555 1_555
O25_6 Cd2_6 1_555 1_555
O26_13 Cd2_6 1_555 1_555
O27_15 Cd16 1_555 1_555
O31_6 Cd18_8 1_555 1_555
O33_10 Cd16_9 1_555 1_555
C15_16 O21_6 1_555 1_555
C16_16 O22_16 1_555 1_555
C18_6 O10_6 1_555 1_555
C19_11 O11_10 1_555 1_555
C22_6 O16_6 1_555 1_555
C23_6 O27_7 1_555 1_555
C24_11 O33_10 1_555 1_555
C25_11 O6_7 1_555 1_555
C26_16 C15_16 1_555 1_555
C27_16 C16_16 1_555 1_555
C29_6 C18_6 1_555 1_555
C30_11 C19_11 1_555 1_555
C33_6 C22_6 1_555 1_555
C34_6 C23_6 1_555 1_555
C35_11 C24_11 1_555 1_555
C36_11 C25_11 1_555 1_555
C37_16 C26_16 1_555 1_555
C38_16 C27_16 1_555 1_555
C40_6 C29_6 1_555 1_555
C41_11 C30_11 1_555 1_555
C44_6 C33_6 1_555 1_555
C45_6 C34_6 1_555 1_555
C46_11 C35_11 1_555 1_555
C47_11 C36_11 1_555 1_555
H14_16 C37_16 1_555 1_555
H15_16 C38_16 1_555 1_555
H17_6 C40_6 1_555 1_555
H18_11 C41_11 1_555 1_555
H21_6 C44_6 1_555 1_555
H22_6 C45_6 1_555 1_555
H23_11 C46_11 1_555 1_555
H24_11 C47_11 1_555 1_555
C48_16 C37_16 1_555 1_555
C49_16 C38_16 1_555 1_555
C51_6 C40_6 1_555 1_555
C52_11 C41_11 1_555 1_555
C55_6 C44_6 1_555 1_555
C56_6 C45_6 1_555 1_555
C57_11 C46_11 1_555 1_555
C58_11 C47_11 1_555 1_555
C59_16 C48_16 1_555 1_555
C60_16 C49_16 1_555 1_555
C62_6 C51_6 1_555 1_555
C63_11 C52_11 1_555 1_555
C65_6 C56_6 1_555 1_555
C66_11 C58_11 1_555 1_555
C68_6 C55_6 1_555 1_555
C69_11 C57_11 1_555 1_555
C70_16 C59_16 1_555 1_555
C71_16 C60_16 1_555 1_555
C73_6 C62_6 1_555 1_555
C74_11 C63_11 1_555 1_555
C76_6 C65_6 1_555 1_555
C77_11 C66_11 1_555 1_555
C79_6 C68_6 1_555 1_555
C80_11 C69_11 1_555 1_555
H25_16 C70_16 1_555 1_555
H26_16 C71_16 1_555 1_555
H28_6 C73_6 1_555 1_555
H29_11 C74_11 1_555 1_555
H31_6 C76_6 1_555 1_555
H32_11 C77_11 1_555 1_555
H34_6 C79_6 1_555 1_555
H35_11 C80_11 1_555 1_555
C81_16 C26_16 1_555 1_555
C82_16 C27_16 1_555 1_555
C84_6 C29_6 1_555 1_555
C85_11 C30_11 1_555 1_555
C87_6 C34_6 1_555 1_555
C88_11 C36_11 1_555 1_555
C90_6 C33_6 1_555 1_555
C91_11 C35_11 1_555 1_555
H36_16 C81_16 1_555 1_555
H37_16 C82_16 1_555 1_555
H39_6 C84_6 1_555 1_555
H40_11 C85_11 1_555 1_555
H42_6 C87_6 1_555 1_555
H43_11 C88_11 1_555 1_555
H45_6 C90_6 1_555 1_555
H46_11 C91_11 1_555 1_555
C92_16 C49_16 1_555 1_555
C93_16 C48_16 1_555 1_555
C95_6 C51_6 1_555 1_555
C96_11 C52_11 1_555 1_555
C98_6 C55_6 1_555 1_555
C99_11 C57_11 1_555 1_555
C101_6 C56_6 1_555 1_555
C102_11 C58_11 1_555 1_555
C103_16 C10_16 1_555 1_555
C104_16 C93_16 1_555 1_555
C106_6 C95_6 1_555 1_555
C107_11 C96_11 1_555 1_555
C109_6 C98_6 1_555 1_555
C110_11 C99_11 1_555 1_555
C112_6 C101_6 1_555 1_555
C113_11 C102_11 1_555 1_555
C114_16 C9_16 1_555 1_555
C115_16 C60_16 1_555 1_555
C117_6 C62_6 1_555 1_555
C118_11 C63_11 1_555 1_555
C120_6 C65_6 1_555 1_555
C121_11 C66_11 1_555 1_555
C123_6 C68_6 1_555 1_555
C124_11 C69_11 1_555 1_555
C125_16 C92_16 1_555 1_555
C126_16 C93_16 1_555 1_555
C128_6 C95_6 1_555 1_555
C129_11 C96_11 1_555 1_555
C131_6 C98_6 1_555 1_555
C132_11 C99_11 1_555 1_555
C134_6 C101_6 1_555 1_555
C135_11 C102_11 1_555 1_555
H47_16 C125_16 1_555 1_555
H48_16 C126_16 1_555 1_555
H50_6 C128_6 1_555 1_555
H51_11 C129_11 1_555 1_555
H53_6 C131_6 1_555 1_555
H54_11 C132_11 1_555 1_555
H56_6 C134_6 1_555 1_555
H57_11 C135_11 1_555 1_555
H58_16 C125_16 1_555 1_555
H59_16 C126_16 1_555 1_555
H61_6 C128_6 1_555 1_555
H62_11 C129_11 1_555 1_555
H64_6 C131_6 1_555 1_555
H65_11 C132_11 1_555 1_555
H67_6 C134_6 1_555 1_555
H68_11 C135_11 1_555 1_555
C136_16 C125_16 1_555 1_555
C137_16 C126_16 1_555 1_555
C139_6 C128_6 1_555 1_555
C140_11 C129_11 1_555 1_555
C142_6 C131_6 1_555 1_555
C143_11 C132_11 1_555 1_555
C145_6 C134_6 1_555 1_555
C146_11 C135_11 1_555 1_555
H69_16 C136_16 1_555 1_555
H70_16 C137_16 1_555 1_555
H72_6 C139_6 1_555 1_555
H73_11 C140_11 1_555 1_555
H75_6 C142_6 1_555 1_555
H76_11 C143_11 1_555 1_555
H78_6 C145_6 1_555 1_555
H79_11 C146_11 1_555 1_555
H80_16 C136_16 1_555 1_555
H81_16 C137_16 1_555 1_555
H83_6 C139_6 1_555 1_555
H84_11 C140_11 1_555 1_555
H86_6 C142_6 1_555 1_555
H87_11 C143_11 1_555 1_555
H89_6 C145_6 1_555 1_555
H90_11 C146_11 1_555 1_555
H91_16 C136_16 1_555 1_555
H92_16 C137_16 1_555 1_555
H94_6 C139_6 1_555 1_555
H95_11 C140_11 1_555 1_555
H97_6 C142_6 1_555 1_555
H98_11 C143_11 1_555 1_555
H100_6 C145_6 1_555 1_555
H101_11 C146_11 1_555 1_555
C147_16 C92_16 1_555 1_555
C148_16 C93_16 1_555 1_555
C150_6 C95_6 1_555 1_555
C151_11 C96_11 1_555 1_555
C153_6 C98_6 1_555 1_555
C154_11 C99_11 1_555 1_555
C156_6 C101_6 1_555 1_555
C157_11 C102_11 1_555 1_555
H102_16 C147_16 1_555 1_555
H103_16 C148_16 1_555 1_555
H105_6 C150_6 1_555 1_555
H106_11 C151_11 1_555 1_555
H108_6 C153_6 1_555 1_555
H109_11 C154_11 1_555 1_555
H111_6 C156_6 1_555 1_555
H112_11 C157_11 1_555 1_555
H113_16 C147_16 1_555 1_555
H114_16 C148_16 1_555 1_555
H116_6 C150_6 1_555 1_555
H117_11 C151_11 1_555 1_555
H119_6 C153_6 1_555 1_555
H120_11 C154_11 1_555 1_555
H122_6 C156_6 1_555 1_555
H123_11 C157_11 1_555 1_555
C158_16 C147_16 1_555 1_555
C159_16 C148_16 1_555 1_555
C161_6 C150_6 1_555 1_555
C162_11 C151_11 1_555 1_555
C164_6 C153_6 1_555 1_555
C165_11 C154_11 1_555 1_555
C167_6 C156_6 1_555 1_555
C168_11 C157_11 1_555 1_555
H124_16 C158_16 1_555 1_555
H125_16 C159_16 1_555 1_555
H127_6 C161_6 1_555 1_555
H128_11 C162_11 1_555 1_555
H130_6 C164_6 1_555 1_555
H131_11 C165_11 1_555 1_555
H133_6 C167_6 1_555 1_555
H134_11 C168_11 1_555 1_555
H135_16 C158_16 1_555 1_555
H136_16 C159_16 1_555 1_555
H138_6 C161_6 1_555 1_555
H139_11 C162_11 1_555 1_555
H141_6 C164_6 1_555 1_555
H142_11 C165_11 1_555 1_555
H144_6 C167_6 1_555 1_555
H145_11 C168_11 1_555 1_555
H146_16 C158_16 1_555 1_555
H147_16 C159_16 1_555 1_555
H149_6 C161_6 1_555 1_555
H150_11 C162_11 1_555 1_555
H152_6 C164_6 1_555 1_555
H153_11 C165_11 1_555 1_555
H155_6 C167_6 1_555 1_555
H156_11 C168_11 1_555 1_555
O4_24 Cd2_6 1_555 1_555
C6_16 C7_16 1_555 1_555
C9_16 C10_16 1_555 1_555
Cd2_6 O6_8 1_555 1_555
Cd16 O5_15 1_555 1_555
Cd7_11 O10_6 1_555 1_555
Cd7_11 O11_10 1_555 1_555
Cd7_11 O12_13 1_555 1_555
O23_10 C19_11 1_555 1_555
O25_6 C18_6 1_555 1_555
O31_6 C22_6 1_555 1_555
O20_7 C25_11 1_555 1_555
C59_16 C114_16 1_555 1_555
C70_16 C81_16 1_555 1_555
C71_16 C82_16 1_555 1_555
C73_6 C84_6 1_555 1_555
C74_11 C85_11 1_555 1_555
C76_6 C87_6 1_555 1_555
C77_11 C88_11 1_555 1_555
C79_6 C90_6 1_555 1_555
C80_11 C91_11 1_555 1_555
C92_16 C103_16 1_555 1_555
C103_16 C115_16 1_555 1_555
C104_16 C114_16 1_555 1_555
C104_16 C115_16 1_555 1_555
C106_6 C117_6 1_555 1_555
C106_6 C120_6 1_555 1_555
C107_11 C118_11 1_555 1_555
C107_11 C121_11 1_555 1_555
C109_6 C117_6 1_555 1_555
C109_6 C123_6 1_555 1_555
C110_11 C118_11 1_555 1_555
C110_11 C124_11 1_555 1_555
C112_6 C120_6 1_555 1_555
C112_6 C123_6 1_555 1_555
C113_11 C121_11 1_555 1_555
C113_11 C124_11 1_555 1_555
Cd16_8 O2_16 1_555 1_555
O2_16 C1_17 1_555 1_555
O3_16 Cd16_8 1_555 1_555
O4_25 Cd16_8 1_555 1_555
C1_17 O3_16 1_555 1_555
C2_17 C1_17 1_555 1_555
C3_17 C2_17 1_555 1_555
H1_17 C3_17 1_555 1_555
C4_17 C3_17 1_555 1_555
C5_17 C4_17 1_555 1_555
C6_17 C5_17 1_555 1_555
H2_17 C6_17 1_555 1_555
C7_17 C2_17 1_555 1_555
H3_17 C7_17 1_555 1_555
C8_17 C4_17 1_555 1_555
C9_17 C8_17 1_555 1_555
C10_17 C5_17 1_555 1_555
C11_17 C8_17 1_555 1_555
H4_17 C11_17 1_555 1_555
H5_17 C11_17 1_555 1_555
C12_17 C11_17 1_555 1_555
H6_17 C12_17 1_555 1_555
H7_17 C12_17 1_555 1_555
H8_17 C12_17 1_555 1_555
C13_17 C8_17 1_555 1_555
H9_17 C13_17 1_555 1_555
H10_17 C13_17 1_555 1_555
C14_17 C13_17 1_555 1_555
H11_17 C14_17 1_555 1_555
H12_17 C14_17 1_555 1_555
H13_17 C14_17 1_555 1_555
Cd7_5 O2_16 1_555 1_555
Cd17_4 O4_25 1_555 1_555
Cd8_5 O4_25 1_555 1_555
Cd8_3 O9_17 1_555 1_555
Cd17_8 O9_17 1_555 1_555
O5_16 Cd16_8 1_555 1_555
O5_2 C15_17 1_555 1_555
O9_17 C16_17 1_555 1_555
O13_10 Cd17_4 1_555 1_555
O22_17 Cd8_3 1_555 1_555
O24_10 Cd8_5 1_555 1_555
O27_16 Cd17_4 1_555 1_555
C15_17 O27_2 1_555 1_555
C16_17 O22_17 1_555 1_555
C26_17 C15_17 1_555 1_555
C27_17 C16_17 1_555 1_555
C37_17 C26_17 1_555 1_555
C38_17 C27_17 1_555 1_555
H14_17 C37_17 1_555 1_555
H15_17 C38_17 1_555 1_555
C48_17 C37_17 1_555 1_555
C49_17 C38_17 1_555 1_555
C59_17 C48_17 1_555 1_555
C60_17 C49_17 1_555 1_555
C70_17 C59_17 1_555 1_555
C71_17 C60_17 1_555 1_555
H25_17 C70_17 1_555 1_555
H26_17 C71_17 1_555 1_555
C81_17 C26_17 1_555 1_555
C82_17 C27_17 1_555 1_555
H36_17 C81_17 1_555 1_555
H37_17 C82_17 1_555 1_555
C92_17 C49_17 1_555 1_555
C93_17 C48_17 1_555 1_555
C103_17 C10_17 1_555 1_555
C104_17 C93_17 1_555 1_555
C114_17 C9_17 1_555 1_555
C115_17 C60_17 1_555 1_555
C125_17 C92_17 1_555 1_555
C126_17 C93_17 1_555 1_555
H47_17 C125_17 1_555 1_555
H48_17 C126_17 1_555 1_555
H58_17 C125_17 1_555 1_555
H59_17 C126_17 1_555 1_555
C136_17 C125_17 1_555 1_555
C137_17 C126_17 1_555 1_555
H69_17 C136_17 1_555 1_555
H70_17 C137_17 1_555 1_555
H80_17 C136_17 1_555 1_555
H81_17 C137_17 1_555 1_555
H91_17 C136_17 1_555 1_555
H92_17 C137_17 1_555 1_555
C147_17 C92_17 1_555 1_555
C148_17 C93_17 1_555 1_555
H102_17 C147_17 1_555 1_555
H103_17 C148_17 1_555 1_555
H113_17 C147_17 1_555 1_555
H114_17 C148_17 1_555 1_555
C158_17 C147_17 1_555 1_555
C159_17 C148_17 1_555 1_555
H124_17 C158_17 1_555 1_555
H125_17 C159_17 1_555 1_555
H135_17 C158_17 1_555 1_555
H136_17 C159_17 1_555 1_555
H146_17 C158_17 1_555 1_555
H147_17 C159_17 1_555 1_555
O4_25 Cd7_5 1_555 1_555
C6_17 C7_17 1_555 1_555
C9_17 C10_17 1_555 1_555
Cd17_4 O5_16 1_555 1_555
Cd8_5 O13_10 1_555 1_555
C59_17 C114_17 1_555 1_555
C70_17 C81_17 1_555 1_555
C71_17 C82_17 1_555 1_555
C92_17 C103_17 1_555 1_555
C103_17 C115_17 1_555 1_555
C104_17 C114_17 1_555 1_555
C104_17 C115_17 1_555 1_555
O4_26 Cd16_9 1_555 1_555
Cd17_5 O4_26 1_555 1_555
Cd8_6 O4_26 1_555 1_555
O7_11 Cd16_9 1_555 1_555
O12_14 Cd7_6 1_555 1_555
O12_4 C20_11 1_555 1_555
O12_11 C21_11 1_555 1_555
O26_14 Cd7_6 1_555 1_555
O28_11 Cd17_5 1_555 1_555
C17_11 O7_11 1_555 1_555
C20_11 O26_4 1_555 1_555
C21_11 O26_11 1_555 1_555
C28_11 C17_11 1_555 1_555
C31_11 C20_11 1_555 1_555
C32_11 C21_11 1_555 1_555
C39_11 C28_11 1_555 1_555
C42_11 C31_11 1_555 1_555
C43_11 C32_11 1_555 1_555
H16_11 C39_11 1_555 1_555
H19_11 C42_11 1_555 1_555
H20_11 C43_11 1_555 1_555
C50_11 C39_11 1_555 1_555
C53_11 C42_11 1_555 1_555
C54_11 C43_11 1_555 1_555
C61_11 C50_11 1_555 1_555
C64_11 C54_11 1_555 1_555
C67_11 C53_11 1_555 1_555
C72_11 C61_11 1_555 1_555
C75_11 C64_11 1_555 1_555
C78_11 C67_11 1_555 1_555
H27_11 C72_11 1_555 1_555
H30_11 C75_11 1_555 1_555
H33_11 C78_11 1_555 1_555
C83_11 C28_11 1_555 1_555
C86_11 C32_11 1_555 1_555
C89_11 C31_11 1_555 1_555
H38_11 C83_11 1_555 1_555
H41_11 C86_11 1_555 1_555
H44_11 C89_11 1_555 1_555
C94_11 C50_11 1_555 1_555
C97_11 C53_11 1_555 1_555
C100_11 C54_11 1_555 1_555
C105_11 C94_11 1_555 1_555
C108_11 C97_11 1_555 1_555
C111_11 C100_11 1_555 1_555
C116_11 C61_11 1_555 1_555
C119_11 C64_11 1_555 1_555
C122_11 C67_11 1_555 1_555
C127_11 C94_11 1_555 1_555
C130_11 C97_11 1_555 1_555
C133_11 C100_11 1_555 1_555
H49_11 C127_11 1_555 1_555
H52_11 C130_11 1_555 1_555
H55_11 C133_11 1_555 1_555
H60_11 C127_11 1_555 1_555
H63_11 C130_11 1_555 1_555
H66_11 C133_11 1_555 1_555
C138_11 C127_11 1_555 1_555
C141_11 C130_11 1_555 1_555
C144_11 C133_11 1_555 1_555
H71_11 C138_11 1_555 1_555
H74_11 C141_11 1_555 1_555
H77_11 C144_11 1_555 1_555
H82_11 C138_11 1_555 1_555
H85_11 C141_11 1_555 1_555
H88_11 C144_11 1_555 1_555
H93_11 C138_11 1_555 1_555
H96_11 C141_11 1_555 1_555
H99_11 C144_11 1_555 1_555
C149_11 C94_11 1_555 1_555
C152_11 C97_11 1_555 1_555
C155_11 C100_11 1_555 1_555
H104_11 C149_11 1_555 1_555
H107_11 C152_11 1_555 1_555
H110_11 C155_11 1_555 1_555
H115_11 C149_11 1_555 1_555
H118_11 C152_11 1_555 1_555
H121_11 C155_11 1_555 1_555
C160_11 C149_11 1_555 1_555
C163_11 C152_11 1_555 1_555
C166_11 C155_11 1_555 1_555
H126_11 C160_11 1_555 1_555
H129_11 C163_11 1_555 1_555
H132_11 C166_11 1_555 1_555
H137_11 C160_11 1_555 1_555
H140_11 C163_11 1_555 1_555
H143_11 C166_11 1_555 1_555
H148_11 C160_11 1_555 1_555
H151_11 C163_11 1_555 1_555
H154_11 C166_11 1_555 1_555
O4_26 Cd7_6 1_555 1_555
Cd17_5 O7_11 1_555 1_555
Cd8_6 O12_14 1_555 1_555
O28_11 C17_11 1_555 1_555
C72_11 C83_11 1_555 1_555
C75_11 C86_11 1_555 1_555
C78_11 C89_11 1_555 1_555
C105_11 C116_11 1_555 1_555
C105_11 C119_11 1_555 1_555
C108_11 C116_11 1_555 1_555
C108_11 C122_11 1_555 1_555
C111_11 C119_11 1_555 1_555
C111_11 C122_11 1_555 1_555
Cd17_11 O14_11 1_555 1_555
Cd10_12 O14_11 1_555 1_555
Cd7_10 O18_11 1_555 1_555
Cd16_2 O18_11 1_555 1_555
Cd7_2 O19_10 1_555 1_555
O14_11 C20_12 1_555 1_555
O12_12 C21_12 1_555 1_555
O18_11 C24_12 1_555 1_555
O19_10 Cd10_12 1_555 1_555
O29_11 Cd17_11 1_555 1_555
O33_11 Cd7_10 1_555 1_555
O34_10 Cd10_12 1_555 1_555
C17_12 O12_7 1_555 1_555
C19_12 O6_6 1_555 1_555
C20_12 O29_11 1_555 1_555
C21_12 O26_12 1_555 1_555
C24_12 O33_11 1_555 1_555
C25_12 O19_10 1_555 1_555
C28_12 C17_12 1_555 1_555
C30_12 C19_12 1_555 1_555
C31_12 C20_12 1_555 1_555
C32_12 C21_12 1_555 1_555
C35_12 C24_12 1_555 1_555
C36_12 C25_12 1_555 1_555
C39_12 C28_12 1_555 1_555
C41_12 C30_12 1_555 1_555
C42_12 C31_12 1_555 1_555
C43_12 C32_12 1_555 1_555
C46_12 C35_12 1_555 1_555
C47_12 C36_12 1_555 1_555
H16_12 C39_12 1_555 1_555
H18_12 C41_12 1_555 1_555
H19_12 C42_12 1_555 1_555
H20_12 C43_12 1_555 1_555
H23_12 C46_12 1_555 1_555
H24_12 C47_12 1_555 1_555
C50_12 C39_12 1_555 1_555
C52_12 C41_12 1_555 1_555
C53_12 C42_12 1_555 1_555
C54_12 C43_12 1_555 1_555
C57_12 C46_12 1_555 1_555
C58_12 C47_12 1_555 1_555
C61_12 C50_12 1_555 1_555
C63_12 C52_12 1_555 1_555
C64_12 C54_12 1_555 1_555
C66_12 C58_12 1_555 1_555
C67_12 C53_12 1_555 1_555
C69_12 C57_12 1_555 1_555
C72_12 C61_12 1_555 1_555
C74_12 C63_12 1_555 1_555
C75_12 C64_12 1_555 1_555
C77_12 C66_12 1_555 1_555
C78_12 C67_12 1_555 1_555
C80_12 C69_12 1_555 1_555
H27_12 C72_12 1_555 1_555
H29_12 C74_12 1_555 1_555
H30_12 C75_12 1_555 1_555
H32_12 C77_12 1_555 1_555
H33_12 C78_12 1_555 1_555
H35_12 C80_12 1_555 1_555
C83_12 C28_12 1_555 1_555
C85_12 C30_12 1_555 1_555
C86_12 C32_12 1_555 1_555
C88_12 C36_12 1_555 1_555
C89_12 C31_12 1_555 1_555
C91_12 C35_12 1_555 1_555
H38_12 C83_12 1_555 1_555
H40_12 C85_12 1_555 1_555
H41_12 C86_12 1_555 1_555
H43_12 C88_12 1_555 1_555
H44_12 C89_12 1_555 1_555
H46_12 C91_12 1_555 1_555
C94_12 C50_12 1_555 1_555
C96_12 C52_12 1_555 1_555
C97_12 C53_12 1_555 1_555
C99_12 C57_12 1_555 1_555
C100_12 C54_12 1_555 1_555
C102_12 C58_12 1_555 1_555
C105_12 C94_12 1_555 1_555
C107_12 C96_12 1_555 1_555
C108_12 C97_12 1_555 1_555
C110_12 C99_12 1_555 1_555
C111_12 C100_12 1_555 1_555
C113_12 C102_12 1_555 1_555
C116_12 C61_12 1_555 1_555
C118_12 C63_12 1_555 1_555
C119_12 C64_12 1_555 1_555
C121_12 C66_12 1_555 1_555
C122_12 C67_12 1_555 1_555
C124_12 C69_12 1_555 1_555
C127_12 C94_12 1_555 1_555
C129_12 C96_12 1_555 1_555
C130_12 C97_12 1_555 1_555
C132_12 C99_12 1_555 1_555
C133_12 C100_12 1_555 1_555
C135_12 C102_12 1_555 1_555
H49_12 C127_12 1_555 1_555
H51_12 C129_12 1_555 1_555
H52_12 C130_12 1_555 1_555
H54_12 C132_12 1_555 1_555
H55_12 C133_12 1_555 1_555
H57_12 C135_12 1_555 1_555
H60_12 C127_12 1_555 1_555
H62_12 C129_12 1_555 1_555
H63_12 C130_12 1_555 1_555
H65_12 C132_12 1_555 1_555
H66_12 C133_12 1_555 1_555
H68_12 C135_12 1_555 1_555
C138_12 C127_12 1_555 1_555
C140_12 C129_12 1_555 1_555
C141_12 C130_12 1_555 1_555
C143_12 C132_12 1_555 1_555
C144_12 C133_12 1_555 1_555
C146_12 C135_12 1_555 1_555
H71_12 C138_12 1_555 1_555
H73_12 C140_12 1_555 1_555
H74_12 C141_12 1_555 1_555
H76_12 C143_12 1_555 1_555
H77_12 C144_12 1_555 1_555
H79_12 C146_12 1_555 1_555
H82_12 C138_12 1_555 1_555
H84_12 C140_12 1_555 1_555
H85_12 C141_12 1_555 1_555
H87_12 C143_12 1_555 1_555
H88_12 C144_12 1_555 1_555
H90_12 C146_12 1_555 1_555
H93_12 C138_12 1_555 1_555
H95_12 C140_12 1_555 1_555
H96_12 C141_12 1_555 1_555
H98_12 C143_12 1_555 1_555
H99_12 C144_12 1_555 1_555
H101_12 C146_12 1_555 1_555
C149_12 C94_12 1_555 1_555
C151_12 C96_12 1_555 1_555
C152_12 C97_12 1_555 1_555
C154_12 C99_12 1_555 1_555
C155_12 C100_12 1_555 1_555
C157_12 C102_12 1_555 1_555
H104_12 C149_12 1_555 1_555
H106_12 C151_12 1_555 1_555
H107_12 C152_12 1_555 1_555
H109_12 C154_12 1_555 1_555
H110_12 C155_12 1_555 1_555
H112_12 C157_12 1_555 1_555
H115_12 C149_12 1_555 1_555
H117_12 C151_12 1_555 1_555
H118_12 C152_12 1_555 1_555
H120_12 C154_12 1_555 1_555
H121_12 C155_12 1_555 1_555
H123_12 C157_12 1_555 1_555
C160_12 C149_12 1_555 1_555
C162_12 C151_12 1_555 1_555
C163_12 C152_12 1_555 1_555
C165_12 C154_12 1_555 1_555
C166_12 C155_12 1_555 1_555
C168_12 C157_12 1_555 1_555
H126_12 C160_12 1_555 1_555
H128_12 C162_12 1_555 1_555
H129_12 C163_12 1_555 1_555
H131_12 C165_12 1_555 1_555
H132_12 C166_12 1_555 1_555
H134_12 C168_12 1_555 1_555
H137_12 C160_12 1_555 1_555
H139_12 C162_12 1_555 1_555
H140_12 C163_12 1_555 1_555
H142_12 C165_12 1_555 1_555
H143_12 C166_12 1_555 1_555
H145_12 C168_12 1_555 1_555
H148_12 C160_12 1_555 1_555
H150_12 C162_12 1_555 1_555
H151_12 C163_12 1_555 1_555
H153_12 C165_12 1_555 1_555
H154_12 C166_12 1_555 1_555
H156_12 C168_12 1_555 1_555
O20_6 C19_12 1_555 1_555
O26_7 C17_12 1_555 1_555
O34_10 C25_12 1_555 1_555
C72_12 C83_12 1_555 1_555
C74_12 C85_12 1_555 1_555
C75_12 C86_12 1_555 1_555
C77_12 C88_12 1_555 1_555
C78_12 C89_12 1_555 1_555
C80_12 C91_12 1_555 1_555
C105_12 C116_12 1_555 1_555
C105_12 C119_12 1_555 1_555
C107_12 C118_12 1_555 1_555
C107_12 C121_12 1_555 1_555
C108_12 C116_12 1_555 1_555
C108_12 C122_12 1_555 1_555
C110_12 C118_12 1_555 1_555
C110_12 C124_12 1_555 1_555
C111_12 C119_12 1_555 1_555
C111_12 C122_12 1_555 1_555
C113_12 C121_12 1_555 1_555
C113_12 C124_12 1_555 1_555
O4_27 Cd10_7 1_555 1_555
Cd9_7 O4_27 1_555 1_555
Cd5_6 O4_27 1_555 1_555
O5_17 Cd10_7 1_555 1_555
O11_11 Cd9_7 1_555 1_555
O12_15 Cd18_7 1_555 1_555
O6_8 C24_13 1_555 1_555
O23_11 Cd5_6 1_555 1_555
O26_15 Cd18_7 1_555 1_555
O27_17 Cd9_7 1_555 1_555
C19_13 O11_11 1_555 1_555
C24_13 O20_8 1_555 1_555
C25_13 O12 1_555 1_555
C30_13 C19_13 1_555 1_555
C35_13 C24_13 1_555 1_555
C36_13 C25_13 1_555 1_555
C41_13 C30_13 1_555 1_555
C46_13 C35_13 1_555 1_555
C47_13 C36_13 1_555 1_555
H18_13 C41_13 1_555 1_555
H23_13 C46_13 1_555 1_555
H24_13 C47_13 1_555 1_555
C52_13 C41_13 1_555 1_555
C57_13 C46_13 1_555 1_555
C58_13 C47_13 1_555 1_555
C63_13 C52_13 1_555 1_555
C66_13 C58_13 1_555 1_555
C69_13 C57_13 1_555 1_555
C74_13 C63_13 1_555 1_555
C77_13 C66_13 1_555 1_555
C80_13 C69_13 1_555 1_555
H29_13 C74_13 1_555 1_555
H32_13 C77_13 1_555 1_555
H35_13 C80_13 1_555 1_555
C85_13 C30_13 1_555 1_555
C88_13 C36_13 1_555 1_555
C91_13 C35_13 1_555 1_555
H40_13 C85_13 1_555 1_555
H43_13 C88_13 1_555 1_555
H46_13 C91_13 1_555 1_555
C96_13 C52_13 1_555 1_555
C99_13 C57_13 1_555 1_555
C102_13 C58_13 1_555 1_555
C107_13 C96_13 1_555 1_555
C110_13 C99_13 1_555 1_555
C113_13 C102_13 1_555 1_555
C118_13 C63_13 1_555 1_555
C121_13 C66_13 1_555 1_555
C124_13 C69_13 1_555 1_555
C129_13 C96_13 1_555 1_555
C132_13 C99_13 1_555 1_555
C135_13 C102_13 1_555 1_555
H51_13 C129_13 1_555 1_555
H54_13 C132_13 1_555 1_555
H57_13 C135_13 1_555 1_555
H62_13 C129_13 1_555 1_555
H65_13 C132_13 1_555 1_555
H68_13 C135_13 1_555 1_555
C140_13 C129_13 1_555 1_555
C143_13 C132_13 1_555 1_555
C146_13 C135_13 1_555 1_555
H73_13 C140_13 1_555 1_555
H76_13 C143_13 1_555 1_555
H79_13 C146_13 1_555 1_555
H84_13 C140_13 1_555 1_555
H87_13 C143_13 1_555 1_555
H90_13 C146_13 1_555 1_555
H95_13 C140_13 1_555 1_555
H98_13 C143_13 1_555 1_555
H101_13 C146_13 1_555 1_555
C151_13 C96_13 1_555 1_555
C154_13 C99_13 1_555 1_555
C157_13 C102_13 1_555 1_555
H106_13 C151_13 1_555 1_555
H109_13 C154_13 1_555 1_555
H112_13 C157_13 1_555 1_555
H117_13 C151_13 1_555 1_555
H120_13 C154_13 1_555 1_555
H123_13 C157_13 1_555 1_555
C162_13 C151_13 1_555 1_555
C165_13 C154_13 1_555 1_555
C168_13 C157_13 1_555 1_555
H128_13 C162_13 1_555 1_555
H131_13 C165_13 1_555 1_555
H134_13 C168_13 1_555 1_555
H139_13 C162_13 1_555 1_555
H142_13 C165_13 1_555 1_555
H145_13 C168_13 1_555 1_555
H150_13 C162_13 1_555 1_555
H153_13 C165_13 1_555 1_555
H156_13 C168_13 1_555 1_555
O4_27 Cd18_7 1_555 1_555
Cd9_7 O5_17 1_555 1_555
Cd5_6 O11_11 1_555 1_555
Cd5_6 O12_15 1_555 1_555
O23_11 C19_13 1_555 1_555
O26 C25_13 1_555 1_555
C74_13 C85_13 1_555 1_555
C77_13 C88_13 1_555 1_555
C80_13 C91_13 1_555 1_555
C107_13 C118_13 1_555 1_555
C107_13 C121_13 1_555 1_555
C110_13 C118_13 1_555 1_555
C110_13 C124_13 1_555 1_555
C113_13 C121_13 1_555 1_555
C113_13 C124_13 1_555 1_555
O4_28 Cd10_8 1_555 1_555
Cd9_8 O4_28 1_555 1_555
Cd12_8 O4_28 1_555 1_555
O5_18 Cd10_8 1_555 1_555
O27_18 Cd9_8 1_555 1_555
O4_28 Cd18_8 1_555 1_555
Cd9_8 O5_18 1_555 1_555
O5_3 C1_18 1_555 1_555
C1_18 O27_3 1_555 1_555
C2_18 C1_18 1_555 1_555
C3_18 C2_18 1_555 1_555
H1_18 C3_18 1_555 1_555
C4_18 C3_18 1_555 1_555
C5_18 C4_18 1_555 1_555
C6_18 C5_18 1_555 1_555
H2_18 C6_18 1_555 1_555
C7_18 C2_18 1_555 1_555
H3_18 C7_18 1_555 1_555
C8_18 C4_18 1_555 1_555
C9_18 C8_18 1_555 1_555
C10_18 C5_18 1_555 1_555
C11_18 C8_18 1_555 1_555
H4_18 C11_18 1_555 1_555
H5_18 C11_18 1_555 1_555
C12_18 C11_18 1_555 1_555
H6_18 C12_18 1_555 1_555
H7_18 C12_18 1_555 1_555
H8_18 C12_18 1_555 1_555
C13_18 C8_18 1_555 1_555
H9_18 C13_18 1_555 1_555
H10_18 C13_18 1_555 1_555
C14_18 C13_18 1_555 1_555
H11_18 C14_18 1_555 1_555
H12_18 C14_18 1_555 1_555
H13_18 C14_18 1_555 1_555
Cd10_11 O9_18 1_555 1_555
Cd7 O9_18 1_555 1_555
Cd8_8 O18_12 1_555 1_555
Cd9_10 O18_12 1_555 1_555
Cd8_9 O19_11 1_555 1_555
O13_10 C15_18 1_555 1_555
O9_18 C16_18 1_555 1_555
O18_12 C24_14 1_555 1_555
O19_11 Cd17_3 1_555 1_555
O22_18 Cd10_11 1_555 1_555
O33_12 Cd8_8 1_555 1_555
O34_11 Cd17_3 1_555 1_555
C15_18 O24_10 1_555 1_555
C16_18 O22_18 1_555 1_555
C19_14 O12_3 1_555 1_555
C24_14 O33_12 1_555 1_555
C25_14 O19_11 1_555 1_555
C26_18 C15_18 1_555 1_555
C27_18 C16_18 1_555 1_555
C30_14 C19_14 1_555 1_555
C35_14 C24_14 1_555 1_555
C36_14 C25_14 1_555 1_555
C37_18 C26_18 1_555 1_555
C38_18 C27_18 1_555 1_555
C41_14 C30_14 1_555 1_555
C46_14 C35_14 1_555 1_555
C47_14 C36_14 1_555 1_555
H14_18 C37_18 1_555 1_555
H15_18 C38_18 1_555 1_555
H18_14 C41_14 1_555 1_555
H23_14 C46_14 1_555 1_555
H24_14 C47_14 1_555 1_555
C48_18 C37_18 1_555 1_555
C49_18 C38_18 1_555 1_555
C52_14 C41_14 1_555 1_555
C57_14 C46_14 1_555 1_555
C58_14 C47_14 1_555 1_555
C59_18 C48_18 1_555 1_555
C60_18 C49_18 1_555 1_555
C63_14 C52_14 1_555 1_555
C66_14 C58_14 1_555 1_555
C69_14 C57_14 1_555 1_555
C70_18 C59_18 1_555 1_555
C71_18 C60_18 1_555 1_555
C74_14 C63_14 1_555 1_555
C77_14 C66_14 1_555 1_555
C80_14 C69_14 1_555 1_555
H25_18 C70_18 1_555 1_555
H26_18 C71_18 1_555 1_555
H29_14 C74_14 1_555 1_555
H32_14 C77_14 1_555 1_555
H35_14 C80_14 1_555 1_555
C81_18 C26_18 1_555 1_555
C82_18 C27_18 1_555 1_555
C85_14 C30_14 1_555 1_555
C88_14 C36_14 1_555 1_555
C91_14 C35_14 1_555 1_555
H36_18 C81_18 1_555 1_555
H37_18 C82_18 1_555 1_555
H40_14 C85_14 1_555 1_555
H43_14 C88_14 1_555 1_555
H46_14 C91_14 1_555 1_555
C92_18 C49_18 1_555 1_555
C93_18 C48_18 1_555 1_555
C96_14 C52_14 1_555 1_555
C99_14 C57_14 1_555 1_555
C102_14 C58_14 1_555 1_555
C103_18 C10_18 1_555 1_555
C104_18 C93_18 1_555 1_555
C107_14 C96_14 1_555 1_555
C110_14 C99_14 1_555 1_555
C113_14 C102_14 1_555 1_555
C114_18 C9_18 1_555 1_555
C115_18 C60_18 1_555 1_555
C118_14 C63_14 1_555 1_555
C121_14 C66_14 1_555 1_555
C124_14 C69_14 1_555 1_555
C125_18 C92_18 1_555 1_555
C126_18 C93_18 1_555 1_555
C129_14 C96_14 1_555 1_555
C132_14 C99_14 1_555 1_555
C135_14 C102_14 1_555 1_555
H47_18 C125_18 1_555 1_555
H48_18 C126_18 1_555 1_555
H51_14 C129_14 1_555 1_555
H54_14 C132_14 1_555 1_555
H57_14 C135_14 1_555 1_555
H58_18 C125_18 1_555 1_555
H59_18 C126_18 1_555 1_555
H62_14 C129_14 1_555 1_555
H65_14 C132_14 1_555 1_555
H68_14 C135_14 1_555 1_555
C136_18 C125_18 1_555 1_555
C137_18 C126_18 1_555 1_555
C140_14 C129_14 1_555 1_555
C143_14 C132_14 1_555 1_555
C146_14 C135_14 1_555 1_555
H69_18 C136_18 1_555 1_555
H70_18 C137_18 1_555 1_555
H73_14 C140_14 1_555 1_555
H76_14 C143_14 1_555 1_555
H79_14 C146_14 1_555 1_555
H80_18 C136_18 1_555 1_555
H81_18 C137_18 1_555 1_555
H84_14 C140_14 1_555 1_555
H87_14 C143_14 1_555 1_555
H90_14 C146_14 1_555 1_555
H91_18 C136_18 1_555 1_555
H92_18 C137_18 1_555 1_555
H95_14 C140_14 1_555 1_555
H98_14 C143_14 1_555 1_555
H101_14 C146_14 1_555 1_555
C147_18 C92_18 1_555 1_555
C148_18 C93_18 1_555 1_555
C151_14 C96_14 1_555 1_555
C154_14 C99_14 1_555 1_555
C157_14 C102_14 1_555 1_555
H102_18 C147_18 1_555 1_555
H103_18 C148_18 1_555 1_555
H106_14 C151_14 1_555 1_555
H109_14 C154_14 1_555 1_555
H112_14 C157_14 1_555 1_555
H113_18 C147_18 1_555 1_555
H114_18 C148_18 1_555 1_555
H117_14 C151_14 1_555 1_555
H120_14 C154_14 1_555 1_555
H123_14 C157_14 1_555 1_555
C158_18 C147_18 1_555 1_555
C159_18 C148_18 1_555 1_555
C162_14 C151_14 1_555 1_555
C165_14 C154_14 1_555 1_555
C168_14 C157_14 1_555 1_555
H124_18 C158_18 1_555 1_555
H125_18 C159_18 1_555 1_555
H128_14 C162_14 1_555 1_555
H131_14 C165_14 1_555 1_555
H134_14 C168_14 1_555 1_555
H135_18 C158_18 1_555 1_555
H136_18 C159_18 1_555 1_555
H139_14 C162_14 1_555 1_555
H142_14 C165_14 1_555 1_555
H145_14 C168_14 1_555 1_555
H146_18 C158_18 1_555 1_555
H147_18 C159_18 1_555 1_555
H150_14 C162_14 1_555 1_555
H153_14 C165_14 1_555 1_555
H156_14 C168_14 1_555 1_555
C6_18 C7_18 1_555 1_555
C9_18 C10_18 1_555 1_555
O26_3 C19_14 1_555 1_555
O34_11 C25_14 1_555 1_555
C59_18 C114_18 1_555 1_555
C70_18 C81_18 1_555 1_555
C71_18 C82_18 1_555 1_555
C74_14 C85_14 1_555 1_555
C77_14 C88_14 1_555 1_555
C80_14 C91_14 1_555 1_555
C92_18 C103_18 1_555 1_555
C103_18 C115_18 1_555 1_555
C104_18 C114_18 1_555 1_555
C104_18 C115_18 1_555 1_555
C107_14 C118_14 1_555 1_555
C107_14 C121_14 1_555 1_555
C110_14 C118_14 1_555 1_555
C110_14 C124_14 1_555 1_555
C113_14 C121_14 1_555 1_555
C113_14 C124_14 1_555 1_555
O5_11 C1_19 1_555 1_555
C1_19 O27_11 1_555 1_555
C2_19 C1_19 1_555 1_555
C3_19 C2_19 1_555 1_555
H1_19 C3_19 1_555 1_555
C4_19 C3_19 1_555 1_555
C5_19 C4_19 1_555 1_555
C6_19 C5_19 1_555 1_555
H2_19 C6_19 1_555 1_555
C7_19 C2_19 1_555 1_555
H3_19 C7_19 1_555 1_555
C8_19 C4_19 1_555 1_555
C9_19 C8_19 1_555 1_555
C10_19 C5_19 1_555 1_555
C11_19 C8_19 1_555 1_555
H4_19 C11_19 1_555 1_555
H5_19 C11_19 1_555 1_555
C12_19 C11_19 1_555 1_555
H6_19 C12_19 1_555 1_555
H7_19 C12_19 1_555 1_555
H8_19 C12_19 1_555 1_555
C13_19 C8_19 1_555 1_555
H9_19 C13_19 1_555 1_555
H10_19 C13_19 1_555 1_555
C14_19 C13_19 1_555 1_555
H11_19 C14_19 1_555 1_555
H12_19 C14_19 1_555 1_555
H13_19 C14_19 1_555 1_555
Cd8_9 O9_19 1_555 1_555
Cd7_8 O9_19 1_555 1_555
O5_14 C15_19 1_555 1_555
O9_19 C16_19 1_555 1_555
O22_19 Cd8_9 1_555 1_555
C15_19 O27_14 1_555 1_555
C16_19 O22_19 1_555 1_555
C26_19 C15_19 1_555 1_555
C27_19 C16_19 1_555 1_555
C37_19 C26_19 1_555 1_555
C38_19 C27_19 1_555 1_555
H14_19 C37_19 1_555 1_555
H15_19 C38_19 1_555 1_555
C48_19 C37_19 1_555 1_555
C49_19 C38_19 1_555 1_555
C59_19 C48_19 1_555 1_555
C60_19 C49_19 1_555 1_555
C70_19 C59_19 1_555 1_555
C71_19 C60_19 1_555 1_555
H25_19 C70_19 1_555 1_555
H26_19 C71_19 1_555 1_555
C81_19 C26_19 1_555 1_555
C82_19 C27_19 1_555 1_555
H36_19 C81_19 1_555 1_555
H37_19 C82_19 1_555 1_555
C92_19 C49_19 1_555 1_555
C93_19 C48_19 1_555 1_555
C103_19 C10_19 1_555 1_555
C104_19 C93_19 1_555 1_555
C114_19 C9_19 1_555 1_555
C115_19 C60_19 1_555 1_555
C125_19 C92_19 1_555 1_555
C126_19 C93_19 1_555 1_555
H47_19 C125_19 1_555 1_555
H48_19 C126_19 1_555 1_555
H58_19 C125_19 1_555 1_555
H59_19 C126_19 1_555 1_555
C136_19 C125_19 1_555 1_555
C137_19 C126_19 1_555 1_555
H69_19 C136_19 1_555 1_555
H70_19 C137_19 1_555 1_555
H80_19 C136_19 1_555 1_555
H81_19 C137_19 1_555 1_555
H91_19 C136_19 1_555 1_555
H92_19 C137_19 1_555 1_555
C147_19 C92_19 1_555 1_555
C148_19 C93_19 1_555 1_555
H102_19 C147_19 1_555 1_555
H103_19 C148_19 1_555 1_555
H113_19 C147_19 1_555 1_555
H114_19 C148_19 1_555 1_555
C158_19 C147_19 1_555 1_555
C159_19 C148_19 1_555 1_555
H124_19 C158_19 1_555 1_555
H125_19 C159_19 1_555 1_555
H135_19 C158_19 1_555 1_555
H136_19 C159_19 1_555 1_555
H146_19 C158_19 1_555 1_555
H147_19 C159_19 1_555 1_555
C6_19 C7_19 1_555 1_555
C9_19 C10_19 1_555 1_555
C59_19 C114_19 1_555 1_555
C70_19 C81_19 1_555 1_555
C71_19 C82_19 1_555 1_555
C92_19 C103_19 1_555 1_555
C103_19 C115_19 1_555 1_555
C104_19 C114_19 1_555 1_555
C104_19 C115_19 1_555 1_555
Cd7_8 O18_13 1_555 1_555
Cd16_3 O18_13 1_555 1_555
Cd7_4 O19_12 1_555 1_555
O18_13 C24_15 1_555 1_555
O19_12 Cd17_13 1_555 1_555
O33_13 Cd7_8 1_555 1_555
O34_12 Cd17_13 1_555 1_555
C19_15 O6_5 1_555 1_555
C24_15 O33_13 1_555 1_555
C25_15 O19_12 1_555 1_555
C30_15 C19_15 1_555 1_555
C35_15 C24_15 1_555 1_555
C36_15 C25_15 1_555 1_555
C41_15 C30_15 1_555 1_555
C46_15 C35_15 1_555 1_555
C47_15 C36_15 1_555 1_555
H18_15 C41_15 1_555 1_555
H23_15 C46_15 1_555 1_555
H24_15 C47_15 1_555 1_555
C52_15 C41_15 1_555 1_555
C57_15 C46_15 1_555 1_555
C58_15 C47_15 1_555 1_555
C63_15 C52_15 1_555 1_555
C66_15 C58_15 1_555 1_555
C69_15 C57_15 1_555 1_555
C74_15 C63_15 1_555 1_555
C77_15 C66_15 1_555 1_555
C80_15 C69_15 1_555 1_555
H29_15 C74_15 1_555 1_555
H32_15 C77_15 1_555 1_555
H35_15 C80_15 1_555 1_555
C85_15 C30_15 1_555 1_555
C88_15 C36_15 1_555 1_555
C91_15 C35_15 1_555 1_555
H40_15 C85_15 1_555 1_555
H43_15 C88_15 1_555 1_555
H46_15 C91_15 1_555 1_555
C96_15 C52_15 1_555 1_555
C99_15 C57_15 1_555 1_555
C102_15 C58_15 1_555 1_555
C107_15 C96_15 1_555 1_555
C110_15 C99_15 1_555 1_555
C113_15 C102_15 1_555 1_555
C118_15 C63_15 1_555 1_555
C121_15 C66_15 1_555 1_555
C124_15 C69_15 1_555 1_555
C129_15 C96_15 1_555 1_555
C132_15 C99_15 1_555 1_555
C135_15 C102_15 1_555 1_555
H51_15 C129_15 1_555 1_555
H54_15 C132_15 1_555 1_555
H57_15 C135_15 1_555 1_555
H62_15 C129_15 1_555 1_555
H65_15 C132_15 1_555 1_555
H68_15 C135_15 1_555 1_555
C140_15 C129_15 1_555 1_555
C143_15 C132_15 1_555 1_555
C146_15 C135_15 1_555 1_555
H73_15 C140_15 1_555 1_555
H76_15 C143_15 1_555 1_555
H79_15 C146_15 1_555 1_555
H84_15 C140_15 1_555 1_555
H87_15 C143_15 1_555 1_555
H90_15 C146_15 1_555 1_555
H95_15 C140_15 1_555 1_555
H98_15 C143_15 1_555 1_555
H101_15 C146_15 1_555 1_555
C151_15 C96_15 1_555 1_555
C154_15 C99_15 1_555 1_555
C157_15 C102_15 1_555 1_555
H106_15 C151_15 1_555 1_555
H109_15 C154_15 1_555 1_555
H112_15 C157_15 1_555 1_555
H117_15 C151_15 1_555 1_555
H120_15 C154_15 1_555 1_555
H123_15 C157_15 1_555 1_555
C162_15 C151_15 1_555 1_555
C165_15 C154_15 1_555 1_555
C168_15 C157_15 1_555 1_555
H128_15 C162_15 1_555 1_555
H131_15 C165_15 1_555 1_555
H134_15 C168_15 1_555 1_555
H139_15 C162_15 1_555 1_555
H142_15 C165_15 1_555 1_555
H145_15 C168_15 1_555 1_555
H150_15 C162_15 1_555 1_555
H153_15 C165_15 1_555 1_555
H156_15 C168_15 1_555 1_555
O20_5 C19_15 1_555 1_555
O34_12 C25_15 1_555 1_555
C74_15 C85_15 1_555 1_555
C77_15 C88_15 1_555 1_555
C80_15 C91_15 1_555 1_555
C107_15 C118_15 1_555 1_555
C107_15 C121_15 1_555 1_555
C110_15 C118_15 1_555 1_555
C110_15 C124_15 1_555 1_555
C113_15 C121_15 1_555 1_555
C113_15 C124_15 1_555 1_555
O4_29 Cd10_11 1_555 1_555
Cd17_10 O4_29 1_555 1_555
Cd8 O4_29 1_555 1_555
O5_19 Cd10_11 1_555 1_555
O13_11 Cd17_10 1_555 1_555
O24_11 Cd8 1_555 1_555
O27_19 Cd17_10 1_555 1_555
O4_29 Cd7 1_555 1_555
Cd17_10 O5_19 1_555 1_555
Cd8 O13_11 1_555 1_555
O4_30 Cd10_12 1_555 1_555
Cd17_11 O4_30 1_555 1_555
Cd8_2 O4_30 1_555 1_555
O12_16 Cd7_2 1_555 1_555
O26_16 Cd7_2 1_555 1_555
O4_30 Cd7_2 1_555 1_555
Cd8_2 O12_16 1_555 1_555
Cd8_7 O17_5 1_555 1_555
Cd7_13 O17_5 1_555 1_555
O17_5 C23_7 1_555 1_555
O32_5 Cd8_7 1_555 1_555
C18_7 O5_4 1_555 1_555
C22_7 O5_18 1_555 1_555
C23_7 O32_5 1_555 1_555
C29_7 C18_7 1_555 1_555
C33_7 C22_7 1_555 1_555
C34_7 C23_7 1_555 1_555
C40_7 C29_7 1_555 1_555
C44_7 C33_7 1_555 1_555
C45_7 C34_7 1_555 1_555
H17_7 C40_7 1_555 1_555
H21_7 C44_7 1_555 1_555
H22_7 C45_7 1_555 1_555
C51_7 C40_7 1_555 1_555
C55_7 C44_7 1_555 1_555
C56_7 C45_7 1_555 1_555
C62_7 C51_7 1_555 1_555
C65_7 C56_7 1_555 1_555
C68_7 C55_7 1_555 1_555
C73_7 C62_7 1_555 1_555
C76_7 C65_7 1_555 1_555
C79_7 C68_7 1_555 1_555
H28_7 C73_7 1_555 1_555
H31_7 C76_7 1_555 1_555
H34_7 C79_7 1_555 1_555
C84_7 C29_7 1_555 1_555
C87_7 C34_7 1_555 1_555
C90_7 C33_7 1_555 1_555
H39_7 C84_7 1_555 1_555
H42_7 C87_7 1_555 1_555
H45_7 C90_7 1_555 1_555
C95_7 C51_7 1_555 1_555
C98_7 C55_7 1_555 1_555
C101_7 C56_7 1_555 1_555
C106_7 C95_7 1_555 1_555
C109_7 C98_7 1_555 1_555
C112_7 C101_7 1_555 1_555
C117_7 C62_7 1_555 1_555
C120_7 C65_7 1_555 1_555
C123_7 C68_7 1_555 1_555
C128_7 C95_7 1_555 1_555
C131_7 C98_7 1_555 1_555
C134_7 C101_7 1_555 1_555
H50_7 C128_7 1_555 1_555
H53_7 C131_7 1_555 1_555
H56_7 C134_7 1_555 1_555
H61_7 C128_7 1_555 1_555
H64_7 C131_7 1_555 1_555
H67_7 C134_7 1_555 1_555
C139_7 C128_7 1_555 1_555
C142_7 C131_7 1_555 1_555
C145_7 C134_7 1_555 1_555
H72_7 C139_7 1_555 1_555
H75_7 C142_7 1_555 1_555
H78_7 C145_7 1_555 1_555
H83_7 C139_7 1_555 1_555
H86_7 C142_7 1_555 1_555
H89_7 C145_7 1_555 1_555
H94_7 C139_7 1_555 1_555
H97_7 C142_7 1_555 1_555
H100_7 C145_7 1_555 1_555
C150_7 C95_7 1_555 1_555
C153_7 C98_7 1_555 1_555
C156_7 C101_7 1_555 1_555
H105_7 C150_7 1_555 1_555
H108_7 C153_7 1_555 1_555
H111_7 C156_7 1_555 1_555
H116_7 C150_7 1_555 1_555
H119_7 C153_7 1_555 1_555
H122_7 C156_7 1_555 1_555
C161_7 C150_7 1_555 1_555
C164_7 C153_7 1_555 1_555
C167_7 C156_7 1_555 1_555
H127_7 C161_7 1_555 1_555
H130_7 C164_7 1_555 1_555
H133_7 C167_7 1_555 1_555
H138_7 C161_7 1_555 1_555
H141_7 C164_7 1_555 1_555
H144_7 C167_7 1_555 1_555
H149_7 C161_7 1_555 1_555
H152_7 C164_7 1_555 1_555
H155_7 C167_7 1_555 1_555
O27_4 C18_7 1_555 1_555
O27_18 C22_7 1_555 1_555
C73_7 C84_7 1_555 1_555
C76_7 C87_7 1_555 1_555
C79_7 C90_7 1_555 1_555
C106_7 C117_7 1_555 1_555
C106_7 C120_7 1_555 1_555
C109_7 C117_7 1_555 1_555
C109_7 C123_7 1_555 1_555
C112_7 C120_7 1_555 1_555
C112_7 C123_7 1_555 1_555
O4_31 Cd7_7 1_555 1_555
Cd9_12 O4_31 1_555 1_555
Cd7_13 O4_31 1_555 1_555
Cd17_2 O18_14 1_555 1_555
Cd7_12 O18_14 1_555 1_555
O5_20 Cd7_7 1_555 1_555
O11_12 Cd9_12 1_555 1_555
O12_17 Cd8_7 1_555 1_555
O18_14 C24_16 1_555 1_555
O23_12 Cd7_13 1_555 1_555
O26_17 Cd8_7 1_555 1_555
O27_20 Cd9_12 1_555 1_555
O33_14 Cd17_2 1_555 1_555
C19_16 O11_12 1_555 1_555
C24_16 O33_14 1_555 1_555
C25_16 O12_2 1_555 1_555
C30_16 C19_16 1_555 1_555
C35_16 C24_16 1_555 1_555
C36_16 C25_16 1_555 1_555
C41_16 C30_16 1_555 1_555
C46_16 C35_16 1_555 1_555
C47_16 C36_16 1_555 1_555
H18_16 C41_16 1_555 1_555
H23_16 C46_16 1_555 1_555
H24_16 C47_16 1_555 1_555
C52_16 C41_16 1_555 1_555
C57_16 C46_16 1_555 1_555
C58_16 C47_16 1_555 1_555
C63_16 C52_16 1_555 1_555
C66_16 C58_16 1_555 1_555
C69_16 C57_16 1_555 1_555
C74_16 C63_16 1_555 1_555
C77_16 C66_16 1_555 1_555
C80_16 C69_16 1_555 1_555
H29_16 C74_16 1_555 1_555
H32_16 C77_16 1_555 1_555
H35_16 C80_16 1_555 1_555
C85_16 C30_16 1_555 1_555
C88_16 C36_16 1_555 1_555
C91_16 C35_16 1_555 1_555
H40_16 C85_16 1_555 1_555
H43_16 C88_16 1_555 1_555
H46_16 C91_16 1_555 1_555
C96_16 C52_16 1_555 1_555
C99_16 C57_16 1_555 1_555
C102_16 C58_16 1_555 1_555
C107_16 C96_16 1_555 1_555
C110_16 C99_16 1_555 1_555
C113_16 C102_16 1_555 1_555
C118_16 C63_16 1_555 1_555
C121_16 C66_16 1_555 1_555
C124_16 C69_16 1_555 1_555
C129_16 C96_16 1_555 1_555
C132_16 C99_16 1_555 1_555
C135_16 C102_16 1_555 1_555
H51_16 C129_16 1_555 1_555
H54_16 C132_16 1_555 1_555
H57_16 C135_16 1_555 1_555
H62_16 C129_16 1_555 1_555
H65_16 C132_16 1_555 1_555
H68_16 C135_16 1_555 1_555
C140_16 C129_16 1_555 1_555
C143_16 C132_16 1_555 1_555
C146_16 C135_16 1_555 1_555
H73_16 C140_16 1_555 1_555
H76_16 C143_16 1_555 1_555
H79_16 C146_16 1_555 1_555
H84_16 C140_16 1_555 1_555
H87_16 C143_16 1_555 1_555
H90_16 C146_16 1_555 1_555
H95_16 C140_16 1_555 1_555
H98_16 C143_16 1_555 1_555
H101_16 C146_16 1_555 1_555
C151_16 C96_16 1_555 1_555
C154_16 C99_16 1_555 1_555
C157_16 C102_16 1_555 1_555
H106_16 C151_16 1_555 1_555
H109_16 C154_16 1_555 1_555
H112_16 C157_16 1_555 1_555
H117_16 C151_16 1_555 1_555
H120_16 C154_16 1_555 1_555
H123_16 C157_16 1_555 1_555
C162_16 C151_16 1_555 1_555
C165_16 C154_16 1_555 1_555
C168_16 C157_16 1_555 1_555
H128_16 C162_16 1_555 1_555
H131_16 C165_16 1_555 1_555
H134_16 C168_16 1_555 1_555
H139_16 C162_16 1_555 1_555
H142_16 C165_16 1_555 1_555
H145_16 C168_16 1_555 1_555
H150_16 C162_16 1_555 1_555
H153_16 C165_16 1_555 1_555
H156_16 C168_16 1_555 1_555
O4_31 Cd8_7 1_555 1_555
Cd9_12 O5_20 1_555 1_555
Cd7_13 O11_12 1_555 1_555
Cd7_13 O12_17 1_555 1_555
O23_12 C19_16 1_555 1_555
O26_2 C25_16 1_555 1_555
C74_16 C85_16 1_555 1_555
C77_16 C88_16 1_555 1_555
C80_16 C91_16 1_555 1_555
C107_16 C118_16 1_555 1_555
C107_16 C121_16 1_555 1_555
C110_16 C118_16 1_555 1_555
C110_16 C124_16 1_555 1_555
C113_16 C121_16 1_555 1_555
C113_16 C124_16 1_555 1_555
O5 C1_20 1_555 1_555
C1_20 O27 1_555 1_555
C2_20 C1_20 1_555 1_555
C3_20 C2_20 1_555 1_555
H1_20 C3_20 1_555 1_555
C4_20 C3_20 1_555 1_555
C5_20 C4_20 1_555 1_555
C6_20 C5_20 1_555 1_555
H2_20 C6_20 1_555 1_555
C7_20 C2_20 1_555 1_555
H3_20 C7_20 1_555 1_555
C8_20 C4_20 1_555 1_555
C9_20 C8_20 1_555 1_555
C10_20 C5_20 1_555 1_555
C11_20 C8_20 1_555 1_555
H4_20 C11_20 1_555 1_555
H5_20 C11_20 1_555 1_555
C12_20 C11_20 1_555 1_555
H6_20 C12_20 1_555 1_555
H7_20 C12_20 1_555 1_555
H8_20 C12_20 1_555 1_555
C13_20 C8_20 1_555 1_555
H9_20 C13_20 1_555 1_555
H10_20 C13_20 1_555 1_555
C14_20 C13_20 1_555 1_555
H11_20 C14_20 1_555 1_555
H12_20 C14_20 1_555 1_555
H13_20 C14_20 1_555 1_555
Cd17_12 O9_20 1_555 1_555
Cd7_3 O9_20 1_555 1_555
O13_11 C15_20 1_555 1_555
O9_20 C16_20 1_555 1_555
O22_20 Cd17_12 1_555 1_555
C15_20 O24_11 1_555 1_555
C16_20 O22_20 1_555 1_555
C26_20 C15_20 1_555 1_555
C27_20 C16_20 1_555 1_555
C37_20 C26_20 1_555 1_555
C38_20 C27_20 1_555 1_555
H14_20 C37_20 1_555 1_555
H15_20 C38_20 1_555 1_555
C48_20 C37_20 1_555 1_555
C49_20 C38_20 1_555 1_555
C59_20 C48_20 1_555 1_555
C60_20 C49_20 1_555 1_555
C70_20 C59_20 1_555 1_555
C71_20 C60_20 1_555 1_555
H25_20 C70_20 1_555 1_555
H26_20 C71_20 1_555 1_555
C81_20 C26_20 1_555 1_555
C82_20 C27_20 1_555 1_555
H36_20 C81_20 1_555 1_555
H37_20 C82_20 1_555 1_555
C92_20 C49_20 1_555 1_555
C93_20 C48_20 1_555 1_555
C103_20 C10_20 1_555 1_555
C104_20 C93_20 1_555 1_555
C114_20 C9_20 1_555 1_555
C115_20 C60_20 1_555 1_555
C125_20 C92_20 1_555 1_555
C126_20 C93_20 1_555 1_555
H47_20 C125_20 1_555 1_555
H48_20 C126_20 1_555 1_555
H58_20 C125_20 1_555 1_555
H59_20 C126_20 1_555 1_555
C136_20 C125_20 1_555 1_555
C137_20 C126_20 1_555 1_555
H69_20 C136_20 1_555 1_555
H70_20 C137_20 1_555 1_555
H80_20 C136_20 1_555 1_555
H81_20 C137_20 1_555 1_555
H91_20 C136_20 1_555 1_555
H92_20 C137_20 1_555 1_555
C147_20 C92_20 1_555 1_555
C148_20 C93_20 1_555 1_555
H102_20 C147_20 1_555 1_555
H103_20 C148_20 1_555 1_555
H113_20 C147_20 1_555 1_555
H114_20 C148_20 1_555 1_555
C158_20 C147_20 1_555 1_555
C159_20 C148_20 1_555 1_555
H124_20 C158_20 1_555 1_555
H125_20 C159_20 1_555 1_555
H135_20 C158_20 1_555 1_555
H136_20 C159_20 1_555 1_555
H146_20 C158_20 1_555 1_555
H147_20 C159_20 1_555 1_555
C6_20 C7_20 1_555 1_555
C9_20 C10_20 1_555 1_555
C59_20 C114_20 1_555 1_555
C70_20 C81_20 1_555 1_555
C71_20 C82_20 1_555 1_555
C92_20 C103_20 1_555 1_555
C103_20 C115_20 1_555 1_555
C104_20 C114_20 1_555 1_555
C104_20 C115_20 1_555 1_555
Cd17_2 O2_17 1_555 1_555
O2_17 C1_21 1_555 1_555
O3_17 Cd17_2 1_555 1_555
O4_32 Cd17_2 1_555 1_555
C1_21 O3_17 1_555 1_555
C2_21 C1_21 1_555 1_555
C3_21 C2_21 1_555 1_555
H1_21 C3_21 1_555 1_555
C4_21 C3_21 1_555 1_555
C5_21 C4_21 1_555 1_555
C6_21 C5_21 1_555 1_555
H2_21 C6_21 1_555 1_555
C7_21 C2_21 1_555 1_555
H3_21 C7_21 1_555 1_555
C8_21 C4_21 1_555 1_555
C9_21 C8_21 1_555 1_555
C10_21 C5_21 1_555 1_555
C11_21 C8_21 1_555 1_555
H4_21 C11_21 1_555 1_555
H5_21 C11_21 1_555 1_555
C12_21 C11_21 1_555 1_555
H6_21 C12_21 1_555 1_555
H7_21 C12_21 1_555 1_555
H8_21 C12_21 1_555 1_555
C13_21 C8_21 1_555 1_555
H9_21 C13_21 1_555 1_555
H10_21 C13_21 1_555 1_555
C14_21 C13_21 1_555 1_555
H11_21 C14_21 1_555 1_555
H12_21 C14_21 1_555 1_555
H13_21 C14_21 1_555 1_555
Cd7_12 O2_17 1_555 1_555
Cd16_2 O4_32 1_555 1_555
Cd7_10 O4_32 1_555 1_555
Cd8_8 O9_21 1_555 1_555
Cd9_10 O9_21 1_555 1_555
O5_21 Cd17_2 1_555 1_555
O5_13 C15_21 1_555 1_555
O9_21 C16_21 1_555 1_555
O12_18 Cd7_12 1_555 1_555
O22_21 Cd8_8 1_555 1_555
O26_18 Cd7_12 1_555 1_555
O27_21 Cd16_2 1_555 1_555
C15_21 O27_13 1_555 1_555
C16_21 O22_21 1_555 1_555
C26_21 C15_21 1_555 1_555
C27_21 C16_21 1_555 1_555
C37_21 C26_21 1_555 1_555
C38_21 C27_21 1_555 1_555
H14_21 C37_21 1_555 1_555
H15_21 C38_21 1_555 1_555
C48_21 C37_21 1_555 1_555
C49_21 C38_21 1_555 1_555
C59_21 C48_21 1_555 1_555
C60_21 C49_21 1_555 1_555
C70_21 C59_21 1_555 1_555
C71_21 C60_21 1_555 1_555
H25_21 C70_21 1_555 1_555
H26_21 C71_21 1_555 1_555
C81_21 C26_21 1_555 1_555
C82_21 C27_21 1_555 1_555
H36_21 C81_21 1_555 1_555
H37_21 C82_21 1_555 1_555
C92_21 C49_21 1_555 1_555
C93_21 C48_21 1_555 1_555
C103_21 C10_21 1_555 1_555
C104_21 C93_21 1_555 1_555
C114_21 C9_21 1_555 1_555
C115_21 C60_21 1_555 1_555
C125_21 C92_21 1_555 1_555
C126_21 C93_21 1_555 1_555
H47_21 C125_21 1_555 1_555
H48_21 C126_21 1_555 1_555
H58_21 C125_21 1_555 1_555
H59_21 C126_21 1_555 1_555
C136_21 C125_21 1_555 1_555
C137_21 C126_21 1_555 1_555
H69_21 C136_21 1_555 1_555
H70_21 C137_21 1_555 1_555
H80_21 C136_21 1_555 1_555
H81_21 C137_21 1_555 1_555
H91_21 C136_21 1_555 1_555
H92_21 C137_21 1_555 1_555
C147_21 C92_21 1_555 1_555
C148_21 C93_21 1_555 1_555
H102_21 C147_21 1_555 1_555
H103_21 C148_21 1_555 1_555
H113_21 C147_21 1_555 1_555
H114_21 C148_21 1_555 1_555
C158_21 C147_21 1_555 1_555
C159_21 C148_21 1_555 1_555
H124_21 C158_21 1_555 1_555
H125_21 C159_21 1_555 1_555
H135_21 C158_21 1_555 1_555
H136_21 C159_21 1_555 1_555
H146_21 C158_21 1_555 1_555
H147_21 C159_21 1_555 1_555
O4_32 Cd7_12 1_555 1_555
C6_21 C7_21 1_555 1_555
C9_21 C10_21 1_555 1_555
Cd16_2 O5_21 1_555 1_555
Cd7_10 O12_18 1_555 1_555
C59_21 C114_21 1_555 1_555
C70_21 C81_21 1_555 1_555
C71_21 C82_21 1_555 1_555
C92_21 C103_21 1_555 1_555
C103_21 C115_21 1_555 1_555
C104_21 C114_21 1_555 1_555
C104_21 C115_21 1_555 1_555
O4_33 Cd10_10 1_555 1_555
Cd9_10 O4_33 1_555 1_555
Cd8_8 O4_33 1_555 1_555
O5_22 Cd10_10 1_555 1_555
O12_19 Cd18_10 1_555 1_555
O26_19 Cd18_10 1_555 1_555
O27_22 Cd9_10 1_555 1_555
O4_33 Cd18_10 1_555 1_555
Cd9_10 O5_22 1_555 1_555
Cd8_8 O12_19 1_555 1_555
O4_34 Cd17_3 1_555 1_555
Cd16_3 O4_34 1_555 1_555
Cd7_8 O4_34 1_555 1_555
O5_23 Cd17_3 1_555 1_555
O12_20 Cd8_9 1_555 1_555
O26_20 Cd8_9 1_555 1_555
O27_23 Cd16_3 1_555 1_555
O4_34 Cd8_9 1_555 1_555
Cd16_3 O5_23 1_555 1_555
Cd7_8 O12_20 1_555 1_555
O4_35 Cd17_12 1_555 1_555
Cd17_8 O4_35 1_555 1_555
Cd8_3 O4_35 1_555 1_555
O5_24 Cd17_12 1_555 1_555
O27_24 Cd17_8 1_555 1_555
O4_35 Cd7_3 1_555 1_555
Cd17_8 O5_24 1_555 1_555
O4_36 Cd17_13 1_555 1_555
Cd17_9 O4_36 1_555 1_555
Cd8_4 O4_36 1_555 1_555
O12_21 Cd7_4 1_555 1_555
O26_21 Cd7_4 1_555 1_555
O4_36 Cd7_4 1_555 1_555
Cd8_4 O12_21 1_555 1_555
O5_23 C1_22 1_555 1_555
C1_22 O27_23 1_555 1_555
C2_22 C1_22 1_555 1_555
C3_22 C2_22 1_555 1_555
H1_22 C3_22 1_555 1_555
C4_22 C3_22 1_555 1_555
C5_22 C4_22 1_555 1_555
C6_22 C5_22 1_555 1_555
H2_22 C6_22 1_555 1_555
C7_22 C2_22 1_555 1_555
H3_22 C7_22 1_555 1_555
C8_22 C4_22 1_555 1_555
C9_22 C8_22 1_555 1_555
C10_22 C5_22 1_555 1_555
C11_22 C8_22 1_555 1_555
H4_22 C11_22 1_555 1_555
H5_22 C11_22 1_555 1_555
C12_22 C11_22 1_555 1_555
H6_22 C12_22 1_555 1_555
H7_22 C12_22 1_555 1_555
H8_22 C12_22 1_555 1_555
C13_22 C8_22 1_555 1_555
H9_22 C13_22 1_555 1_555
H10_22 C13_22 1_555 1_555
C14_22 C13_22 1_555 1_555
H11_22 C14_22 1_555 1_555
H12_22 C14_22 1_555 1_555
H13_22 C14_22 1_555 1_555
O5_17 C15_22 1_555 1_555
O5_5 C16_22 1_555 1_555
O12_19 C24_17 1_555 1_555
C15_22 O27_17 1_555 1_555
C16_22 O27_5 1_555 1_555
C19_17 O12_20 1_555 1_555
C24_17 O26_19 1_555 1_555
C25_17 O12_21 1_555 1_555
C26_22 C15_22 1_555 1_555
C27_22 C16_22 1_555 1_555
C30_17 C19_17 1_555 1_555
C35_17 C24_17 1_555 1_555
C36_17 C25_17 1_555 1_555
C37_22 C26_22 1_555 1_555
C38_22 C27_22 1_555 1_555
C41_17 C30_17 1_555 1_555
C46_17 C35_17 1_555 1_555
C47_17 C36_17 1_555 1_555
H14_22 C37_22 1_555 1_555
H15_22 C38_22 1_555 1_555
H18_17 C41_17 1_555 1_555
H23_17 C46_17 1_555 1_555
H24_17 C47_17 1_555 1_555
C48_22 C37_22 1_555 1_555
C49_22 C38_22 1_555 1_555
C52_17 C41_17 1_555 1_555
C57_17 C46_17 1_555 1_555
C58_17 C47_17 1_555 1_555
C59_22 C48_22 1_555 1_555
C60_22 C49_22 1_555 1_555
C63_17 C52_17 1_555 1_555
C66_17 C58_17 1_555 1_555
C69_17 C57_17 1_555 1_555
C70_22 C59_22 1_555 1_555
C71_22 C60_22 1_555 1_555
C74_17 C63_17 1_555 1_555
C77_17 C66_17 1_555 1_555
C80_17 C69_17 1_555 1_555
H25_22 C70_22 1_555 1_555
H26_22 C71_22 1_555 1_555
H29_17 C74_17 1_555 1_555
H32_17 C77_17 1_555 1_555
H35_17 C80_17 1_555 1_555
C81_22 C26_22 1_555 1_555
C82_22 C27_22 1_555 1_555
C85_17 C30_17 1_555 1_555
C88_17 C36_17 1_555 1_555
C91_17 C35_17 1_555 1_555
H36_22 C81_22 1_555 1_555
H37_22 C82_22 1_555 1_555
H40_17 C85_17 1_555 1_555
H43_17 C88_17 1_555 1_555
H46_17 C91_17 1_555 1_555
C92_22 C49_22 1_555 1_555
C93_22 C48_22 1_555 1_555
C96_17 C52_17 1_555 1_555
C99_17 C57_17 1_555 1_555
C102_17 C58_17 1_555 1_555
C103_22 C10_22 1_555 1_555
C104_22 C93_22 1_555 1_555
C107_17 C96_17 1_555 1_555
C110_17 C99_17 1_555 1_555
C113_17 C102_17 1_555 1_555
C114_22 C9_22 1_555 1_555
C115_22 C60_22 1_555 1_555
C118_17 C63_17 1_555 1_555
C121_17 C66_17 1_555 1_555
C124_17 C69_17 1_555 1_555
C125_22 C92_22 1_555 1_555
C126_22 C93_22 1_555 1_555
C129_17 C96_17 1_555 1_555
C132_17 C99_17 1_555 1_555
C135_17 C102_17 1_555 1_555
H47_22 C125_22 1_555 1_555
H48_22 C126_22 1_555 1_555
H51_17 C129_17 1_555 1_555
H54_17 C132_17 1_555 1_555
H57_17 C135_17 1_555 1_555
H58_22 C125_22 1_555 1_555
H59_22 C126_22 1_555 1_555
H62_17 C129_17 1_555 1_555
H65_17 C132_17 1_555 1_555
H68_17 C135_17 1_555 1_555
C136_22 C125_22 1_555 1_555
C137_22 C126_22 1_555 1_555
C140_17 C129_17 1_555 1_555
C143_17 C132_17 1_555 1_555
C146_17 C135_17 1_555 1_555
H69_22 C136_22 1_555 1_555
H70_22 C137_22 1_555 1_555
H73_17 C140_17 1_555 1_555
H76_17 C143_17 1_555 1_555
H79_17 C146_17 1_555 1_555
H80_22 C136_22 1_555 1_555
H81_22 C137_22 1_555 1_555
H84_17 C140_17 1_555 1_555
H87_17 C143_17 1_555 1_555
H90_17 C146_17 1_555 1_555
H91_22 C136_22 1_555 1_555
H92_22 C137_22 1_555 1_555
H95_17 C140_17 1_555 1_555
H98_17 C143_17 1_555 1_555
H101_17 C146_17 1_555 1_555
C147_22 C92_22 1_555 1_555
C148_22 C93_22 1_555 1_555
C151_17 C96_17 1_555 1_555
C154_17 C99_17 1_555 1_555
C157_17 C102_17 1_555 1_555
H102_22 C147_22 1_555 1_555
H103_22 C148_22 1_555 1_555
H106_17 C151_17 1_555 1_555
H109_17 C154_17 1_555 1_555
H112_17 C157_17 1_555 1_555
H113_22 C147_22 1_555 1_555
H114_22 C148_22 1_555 1_555
H117_17 C151_17 1_555 1_555
H120_17 C154_17 1_555 1_555
H123_17 C157_17 1_555 1_555
C158_22 C147_22 1_555 1_555
C159_22 C148_22 1_555 1_555
C162_17 C151_17 1_555 1_555
C165_17 C154_17 1_555 1_555
C168_17 C157_17 1_555 1_555
H124_22 C158_22 1_555 1_555
H125_22 C159_22 1_555 1_555
H128_17 C162_17 1_555 1_555
H131_17 C165_17 1_555 1_555
H134_17 C168_17 1_555 1_555
H135_22 C158_22 1_555 1_555
H136_22 C159_22 1_555 1_555
H139_17 C162_17 1_555 1_555
H142_17 C165_17 1_555 1_555
H145_17 C168_17 1_555 1_555
H146_22 C158_22 1_555 1_555
H147_22 C159_22 1_555 1_555
H150_17 C162_17 1_555 1_555
H153_17 C165_17 1_555 1_555
H156_17 C168_17 1_555 1_555
C6_22 C7_22 1_555 1_555
C9_22 C10_22 1_555 1_555
O26_20 C19_17 1_555 1_555
O26_21 C25_17 1_555 1_555
C59_22 C114_22 1_555 1_555
C70_22 C81_22 1_555 1_555
C71_22 C82_22 1_555 1_555
C74_17 C85_17 1_555 1_555
C77_17 C88_17 1_555 1_555
C80_17 C91_17 1_555 1_555
C92_22 C103_22 1_555 1_555
C103_22 C115_22 1_555 1_555
C104_22 C114_22 1_555 1_555
C104_22 C115_22 1_555 1_555
C107_17 C118_17 1_555 1_555
C107_17 C121_17 1_555 1_555
C110_17 C118_17 1_555 1_555
C110_17 C124_17 1_555 1_555
C113_17 C121_17 1_555 1_555
C113_17 C124_17 1_555 1_555
O5_15 C1_23 1_555 1_555
C1_23 O27_15 1_555 1_555
C2_23 C1_23 1_555 1_555
C3_23 C2_23 1_555 1_555
H1_23 C3_23 1_555 1_555
C4_23 C3_23 1_555 1_555
C5_23 C4_23 1_555 1_555
C6_23 C5_23 1_555 1_555
H2_23 C6_23 1_555 1_555
C7_23 C2_23 1_555 1_555
H3_23 C7_23 1_555 1_555
C8_23 C4_23 1_555 1_555
C9_23 C8_23 1_555 1_555
C10_23 C5_23 1_555 1_555
C11_23 C8_23 1_555 1_555
H4_23 C11_23 1_555 1_555
H5_23 C11_23 1_555 1_555
C12_23 C11_23 1_555 1_555
H6_23 C12_23 1_555 1_555
H7_23 C12_23 1_555 1_555
H8_23 C12_23 1_555 1_555
C13_23 C8_23 1_555 1_555
H9_23 C13_23 1_555 1_555
H10_23 C13_23 1_555 1_555
C14_23 C13_23 1_555 1_555
H11_23 C14_23 1_555 1_555
H12_23 C14_23 1_555 1_555
H13_23 C14_23 1_555 1_555
O5_20 C15_23 1_555 1_555
O5_10 C16_23 1_555 1_555
O12_15 C24_18 1_555 1_555
C15_23 O27_20 1_555 1_555
C16_23 O27_10 1_555 1_555
C19_18 O12_13 1_555 1_555
C24_18 O26_15 1_555 1_555
C25_18 O12_14 1_555 1_555
C26_23 C15_23 1_555 1_555
C27_23 C16_23 1_555 1_555
C30_18 C19_18 1_555 1_555
C35_18 C24_18 1_555 1_555
C36_18 C25_18 1_555 1_555
C37_23 C26_23 1_555 1_555
C38_23 C27_23 1_555 1_555
C41_18 C30_18 1_555 1_555
C46_18 C35_18 1_555 1_555
C47_18 C36_18 1_555 1_555
H14_23 C37_23 1_555 1_555
H15_23 C38_23 1_555 1_555
H18_18 C41_18 1_555 1_555
H23_18 C46_18 1_555 1_555
H24_18 C47_18 1_555 1_555
C48_23 C37_23 1_555 1_555
C49_23 C38_23 1_555 1_555
C52_18 C41_18 1_555 1_555
C57_18 C46_18 1_555 1_555
C58_18 C47_18 1_555 1_555
C59_23 C48_23 1_555 1_555
C60_23 C49_23 1_555 1_555
C63_18 C52_18 1_555 1_555
C66_18 C58_18 1_555 1_555
C69_18 C57_18 1_555 1_555
C70_23 C59_23 1_555 1_555
C71_23 C60_23 1_555 1_555
C74_18 C63_18 1_555 1_555
C77_18 C66_18 1_555 1_555
C80_18 C69_18 1_555 1_555
H25_23 C70_23 1_555 1_555
H26_23 C71_23 1_555 1_555
H29_18 C74_18 1_555 1_555
H32_18 C77_18 1_555 1_555
H35_18 C80_18 1_555 1_555
C81_23 C26_23 1_555 1_555
C82_23 C27_23 1_555 1_555
C85_18 C30_18 1_555 1_555
C88_18 C36_18 1_555 1_555
C91_18 C35_18 1_555 1_555
H36_23 C81_23 1_555 1_555
H37_23 C82_23 1_555 1_555
H40_18 C85_18 1_555 1_555
H43_18 C88_18 1_555 1_555
H46_18 C91_18 1_555 1_555
C92_23 C49_23 1_555 1_555
C93_23 C48_23 1_555 1_555
C96_18 C52_18 1_555 1_555
C99_18 C57_18 1_555 1_555
C102_18 C58_18 1_555 1_555
C103_23 C10_23 1_555 1_555
C104_23 C93_23 1_555 1_555
C107_18 C96_18 1_555 1_555
C110_18 C99_18 1_555 1_555
C113_18 C102_18 1_555 1_555
C114_23 C9_23 1_555 1_555
C115_23 C60_23 1_555 1_555
C118_18 C63_18 1_555 1_555
C121_18 C66_18 1_555 1_555
C124_18 C69_18 1_555 1_555
C125_23 C92_23 1_555 1_555
C126_23 C93_23 1_555 1_555
C129_18 C96_18 1_555 1_555
C132_18 C99_18 1_555 1_555
C135_18 C102_18 1_555 1_555
H47_23 C125_23 1_555 1_555
H48_23 C126_23 1_555 1_555
H51_18 C129_18 1_555 1_555
H54_18 C132_18 1_555 1_555
H57_18 C135_18 1_555 1_555
H58_23 C125_23 1_555 1_555
H59_23 C126_23 1_555 1_555
H62_18 C129_18 1_555 1_555
H65_18 C132_18 1_555 1_555
H68_18 C135_18 1_555 1_555
C136_23 C125_23 1_555 1_555
C137_23 C126_23 1_555 1_555
C140_18 C129_18 1_555 1_555
C143_18 C132_18 1_555 1_555
C146_18 C135_18 1_555 1_555
H69_23 C136_23 1_555 1_555
H70_23 C137_23 1_555 1_555
H73_18 C140_18 1_555 1_555
H76_18 C143_18 1_555 1_555
H79_18 C146_18 1_555 1_555
H80_23 C136_23 1_555 1_555
H81_23 C137_23 1_555 1_555
H84_18 C140_18 1_555 1_555
H87_18 C143_18 1_555 1_555
H90_18 C146_18 1_555 1_555
H91_23 C136_23 1_555 1_555
H92_23 C137_23 1_555 1_555
H95_18 C140_18 1_555 1_555
H98_18 C143_18 1_555 1_555
H101_18 C146_18 1_555 1_555
C147_23 C92_23 1_555 1_555
C148_23 C93_23 1_555 1_555
C151_18 C96_18 1_555 1_555
C154_18 C99_18 1_555 1_555
C157_18 C102_18 1_555 1_555
H102_23 C147_23 1_555 1_555
H103_23 C148_23 1_555 1_555
H106_18 C151_18 1_555 1_555
H109_18 C154_18 1_555 1_555
H112_18 C157_18 1_555 1_555
H113_23 C147_23 1_555 1_555
H114_23 C148_23 1_555 1_555
H117_18 C151_18 1_555 1_555
H120_18 C154_18 1_555 1_555
H123_18 C157_18 1_555 1_555
C158_23 C147_23 1_555 1_555
C159_23 C148_23 1_555 1_555
C162_18 C151_18 1_555 1_555
C165_18 C154_18 1_555 1_555
C168_18 C157_18 1_555 1_555
H124_23 C158_23 1_555 1_555
H125_23 C159_23 1_555 1_555
H128_18 C162_18 1_555 1_555
H131_18 C165_18 1_555 1_555
H134_18 C168_18 1_555 1_555
H135_23 C158_23 1_555 1_555
H136_23 C159_23 1_555 1_555
H139_18 C162_18 1_555 1_555
H142_18 C165_18 1_555 1_555
H145_18 C168_18 1_555 1_555
H146_23 C158_23 1_555 1_555
H147_23 C159_23 1_555 1_555
H150_18 C162_18 1_555 1_555
H153_18 C165_18 1_555 1_555
H156_18 C168_18 1_555 1_555
C6_23 C7_23 1_555 1_555
C9_23 C10_23 1_555 1_555
O26_13 C19_18 1_555 1_555
O26_14 C25_18 1_555 1_555
C59_23 C114_23 1_555 1_555
C70_23 C81_23 1_555 1_555
C71_23 C82_23 1_555 1_555
C74_18 C85_18 1_555 1_555
C77_18 C88_18 1_555 1_555
C80_18 C91_18 1_555 1_555
C92_23 C103_23 1_555 1_555
C103_23 C115_23 1_555 1_555
C104_23 C114_23 1_555 1_555
C104_23 C115_23 1_555 1_555
C107_18 C118_18 1_555 1_555
C107_18 C121_18 1_555 1_555
C110_18 C118_18 1_555 1_555
C110_18 C124_18 1_555 1_555
C113_18 C121_18 1_555 1_555
C113_18 C124_18 1_555 1_555
O5_21 C1_24 1_555 1_555
C1_24 O27_21 1_555 1_555
C2_24 C1_24 1_555 1_555
C3_24 C2_24 1_555 1_555
H1_24 C3_24 1_555 1_555
C4_24 C3_24 1_555 1_555
C5_24 C4_24 1_555 1_555
C6_24 C5_24 1_555 1_555
H2_24 C6_24 1_555 1_555
C7_24 C2_24 1_555 1_555
H3_24 C7_24 1_555 1_555
C8_24 C4_24 1_555 1_555
C9_24 C8_24 1_555 1_555
C10_24 C5_24 1_555 1_555
C11_24 C8_24 1_555 1_555
H4_24 C11_24 1_555 1_555
H5_24 C11_24 1_555 1_555
C12_24 C11_24 1_555 1_555
H6_24 C12_24 1_555 1_555
H7_24 C12_24 1_555 1_555
H8_24 C12_24 1_555 1_555
C13_24 C8_24 1_555 1_555
H9_24 C13_24 1_555 1_555
H10_24 C13_24 1_555 1_555
C14_24 C13_24 1_555 1_555
H11_24 C14_24 1_555 1_555
H12_24 C14_24 1_555 1_555
H13_24 C14_24 1_555 1_555
O5_22 C15_24 1_555 1_555
O5_8 C16_24 1_555 1_555
O12_17 C24_19 1_555 1_555
C15_24 O27_22 1_555 1_555
C16_24 O27_8 1_555 1_555
C19_19 O12_18 1_555 1_555
C24_19 O26_17 1_555 1_555
C25_19 O12_16 1_555 1_555
C26_24 C15_24 1_555 1_555
C27_24 C16_24 1_555 1_555
C30_19 C19_19 1_555 1_555
C35_19 C24_19 1_555 1_555
C36_19 C25_19 1_555 1_555
C37_24 C26_24 1_555 1_555
C38_24 C27_24 1_555 1_555
C41_19 C30_19 1_555 1_555
C46_19 C35_19 1_555 1_555
C47_19 C36_19 1_555 1_555
H14_24 C37_24 1_555 1_555
H15_24 C38_24 1_555 1_555
H18_19 C41_19 1_555 1_555
H23_19 C46_19 1_555 1_555
H24_19 C47_19 1_555 1_555
C48_24 C37_24 1_555 1_555
C49_24 C38_24 1_555 1_555
C52_19 C41_19 1_555 1_555
C57_19 C46_19 1_555 1_555
C58_19 C47_19 1_555 1_555
C59_24 C48_24 1_555 1_555
C60_24 C49_24 1_555 1_555
C63_19 C52_19 1_555 1_555
C66_19 C58_19 1_555 1_555
C69_19 C57_19 1_555 1_555
C70_24 C59_24 1_555 1_555
C71_24 C60_24 1_555 1_555
C74_19 C63_19 1_555 1_555
C77_19 C66_19 1_555 1_555
C80_19 C69_19 1_555 1_555
H25_24 C70_24 1_555 1_555
H26_24 C71_24 1_555 1_555
H29_19 C74_19 1_555 1_555
H32_19 C77_19 1_555 1_555
H35_19 C80_19 1_555 1_555
C81_24 C26_24 1_555 1_555
C82_24 C27_24 1_555 1_555
C85_19 C30_19 1_555 1_555
C88_19 C36_19 1_555 1_555
C91_19 C35_19 1_555 1_555
H36_24 C81_24 1_555 1_555
H37_24 C82_24 1_555 1_555
H40_19 C85_19 1_555 1_555
H43_19 C88_19 1_555 1_555
H46_19 C91_19 1_555 1_555
C92_24 C49_24 1_555 1_555
C93_24 C48_24 1_555 1_555
C96_19 C52_19 1_555 1_555
C99_19 C57_19 1_555 1_555
C102_19 C58_19 1_555 1_555
C103_24 C10_24 1_555 1_555
C104_24 C93_24 1_555 1_555
C107_19 C96_19 1_555 1_555
C110_19 C99_19 1_555 1_555
C113_19 C102_19 1_555 1_555
C114_24 C9_24 1_555 1_555
C115_24 C60_24 1_555 1_555
C118_19 C63_19 1_555 1_555
C121_19 C66_19 1_555 1_555
C124_19 C69_19 1_555 1_555
C125_24 C92_24 1_555 1_555
C126_24 C93_24 1_555 1_555
C129_19 C96_19 1_555 1_555
C132_19 C99_19 1_555 1_555
C135_19 C102_19 1_555 1_555
H47_24 C125_24 1_555 1_555
H48_24 C126_24 1_555 1_555
H51_19 C129_19 1_555 1_555
H54_19 C132_19 1_555 1_555
H57_19 C135_19 1_555 1_555
H58_24 C125_24 1_555 1_555
H59_24 C126_24 1_555 1_555
H62_19 C129_19 1_555 1_555
H65_19 C132_19 1_555 1_555
H68_19 C135_19 1_555 1_555
C136_24 C125_24 1_555 1_555
C137_24 C126_24 1_555 1_555
C140_19 C129_19 1_555 1_555
C143_19 C132_19 1_555 1_555
C146_19 C135_19 1_555 1_555
H69_24 C136_24 1_555 1_555
H70_24 C137_24 1_555 1_555
H73_19 C140_19 1_555 1_555
H76_19 C143_19 1_555 1_555
H79_19 C146_19 1_555 1_555
H80_24 C136_24 1_555 1_555
H81_24 C137_24 1_555 1_555
H84_19 C140_19 1_555 1_555
H87_19 C143_19 1_555 1_555
H90_19 C146_19 1_555 1_555
H91_24 C136_24 1_555 1_555
H92_24 C137_24 1_555 1_555
H95_19 C140_19 1_555 1_555
H98_19 C143_19 1_555 1_555
H101_19 C146_19 1_555 1_555
C147_24 C92_24 1_555 1_555
C148_24 C93_24 1_555 1_555
C151_19 C96_19 1_555 1_555
C154_19 C99_19 1_555 1_555
C157_19 C102_19 1_555 1_555
H102_24 C147_24 1_555 1_555
H103_24 C148_24 1_555 1_555
H106_19 C151_19 1_555 1_555
H109_19 C154_19 1_555 1_555
H112_19 C157_19 1_555 1_555
H113_24 C147_24 1_555 1_555
H114_24 C148_24 1_555 1_555
H117_19 C151_19 1_555 1_555
H120_19 C154_19 1_555 1_555
H123_19 C157_19 1_555 1_555
C158_24 C147_24 1_555 1_555
C159_24 C148_24 1_555 1_555
C162_19 C151_19 1_555 1_555
C165_19 C154_19 1_555 1_555
C168_19 C157_19 1_555 1_555
H124_24 C158_24 1_555 1_555
H125_24 C159_24 1_555 1_555
H128_19 C162_19 1_555 1_555
H131_19 C165_19 1_555 1_555
H134_19 C168_19 1_555 1_555
H135_24 C158_24 1_555 1_555
H136_24 C159_24 1_555 1_555
H139_19 C162_19 1_555 1_555
H142_19 C165_19 1_555 1_555
H145_19 C168_19 1_555 1_555
H146_24 C158_24 1_555 1_555
H147_24 C159_24 1_555 1_555
H150_19 C162_19 1_555 1_555
H153_19 C165_19 1_555 1_555
H156_19 C168_19 1_555 1_555
C6_24 C7_24 1_555 1_555
C9_24 C10_24 1_555 1_555
O26_18 C19_19 1_555 1_555
O26_16 C25_19 1_555 1_555
C59_24 C114_24 1_555 1_555
C70_24 C81_24 1_555 1_555
C71_24 C82_24 1_555 1_555
C74_19 C85_19 1_555 1_555
C77_19 C88_19 1_555 1_555
C80_19 C91_19 1_555 1_555
C92_24 C103_24 1_555 1_555
C103_24 C115_24 1_555 1_555
C104_24 C114_24 1_555 1_555
C104_24 C115_24 1_555 1_555
C107_19 C118_19 1_555 1_555
C107_19 C121_19 1_555 1_555
C110_19 C118_19 1_555 1_555
C110_19 C124_19 1_555 1_555
C113_19 C121_19 1_555 1_555
C113_19 C124_19 1_555 1_555
O5_16 C23_8 1_555 1_555
C18_8 O5_19 1_555 1_555
C22_8 O5_24 1_555 1_555
C23_8 O27_16 1_555 1_555
C29_8 C18_8 1_555 1_555
C33_8 C22_8 1_555 1_555
C34_8 C23_8 1_555 1_555
C40_8 C29_8 1_555 1_555
C44_8 C33_8 1_555 1_555
C45_8 C34_8 1_555 1_555
H17_8 C40_8 1_555 1_555
H21_8 C44_8 1_555 1_555
H22_8 C45_8 1_555 1_555
C51_8 C40_8 1_555 1_555
C55_8 C44_8 1_555 1_555
C56_8 C45_8 1_555 1_555
C62_8 C51_8 1_555 1_555
C65_8 C56_8 1_555 1_555
C68_8 C55_8 1_555 1_555
C73_8 C62_8 1_555 1_555
C76_8 C65_8 1_555 1_555
C79_8 C68_8 1_555 1_555
H28_8 C73_8 1_555 1_555
H31_8 C76_8 1_555 1_555
H34_8 C79_8 1_555 1_555
C84_8 C29_8 1_555 1_555
C87_8 C34_8 1_555 1_555
C90_8 C33_8 1_555 1_555
H39_8 C84_8 1_555 1_555
H42_8 C87_8 1_555 1_555
H45_8 C90_8 1_555 1_555
C95_8 C51_8 1_555 1_555
C98_8 C55_8 1_555 1_555
C101_8 C56_8 1_555 1_555
C106_8 C95_8 1_555 1_555
C109_8 C98_8 1_555 1_555
C112_8 C101_8 1_555 1_555
C117_8 C62_8 1_555 1_555
C120_8 C65_8 1_555 1_555
C123_8 C68_8 1_555 1_555
C128_8 C95_8 1_555 1_555
C131_8 C98_8 1_555 1_555
C134_8 C101_8 1_555 1_555
H50_8 C128_8 1_555 1_555
H53_8 C131_8 1_555 1_555
H56_8 C134_8 1_555 1_555
H61_8 C128_8 1_555 1_555
H64_8 C131_8 1_555 1_555
H67_8 C134_8 1_555 1_555
C139_8 C128_8 1_555 1_555
C142_8 C131_8 1_555 1_555
C145_8 C134_8 1_555 1_555
H72_8 C139_8 1_555 1_555
H75_8 C142_8 1_555 1_555
H78_8 C145_8 1_555 1_555
H83_8 C139_8 1_555 1_555
H86_8 C142_8 1_555 1_555
H89_8 C145_8 1_555 1_555
H94_8 C139_8 1_555 1_555
H97_8 C142_8 1_555 1_555
H100_8 C145_8 1_555 1_555
C150_8 C95_8 1_555 1_555
C153_8 C98_8 1_555 1_555
C156_8 C101_8 1_555 1_555
H105_8 C150_8 1_555 1_555
H108_8 C153_8 1_555 1_555
H111_8 C156_8 1_555 1_555
H116_8 C150_8 1_555 1_555
H119_8 C153_8 1_555 1_555
H122_8 C156_8 1_555 1_555
C161_8 C150_8 1_555 1_555
C164_8 C153_8 1_555 1_555
C167_8 C156_8 1_555 1_555
H127_8 C161_8 1_555 1_555
H130_8 C164_8 1_555 1_555
H133_8 C167_8 1_555 1_555
H138_8 C161_8 1_555 1_555
H141_8 C164_8 1_555 1_555
H144_8 C167_8 1_555 1_555
H149_8 C161_8 1_555 1_555
H152_8 C164_8 1_555 1_555
H155_8 C167_8 1_555 1_555
O27_19 C18_8 1_555 1_555
O27_24 C22_8 1_555 1_555
C73_8 C84_8 1_555 1_555
C76_8 C87_8 1_555 1_555
C79_8 C90_8 1_555 1_555
C106_8 C117_8 1_555 1_555
C106_8 C120_8 1_555 1_555
C109_8 C117_8 1_555 1_555
C109_8 C123_8 1_555 1_555
C112_8 C120_8 1_555 1_555
C112_8 C123_8 1_555 1_555
O12_10 C24_20 1_555 1_555
C19_20 O12_5 1_555 1_555
C24_20 O26_10 1_555 1_555
C25_20 O12_8 1_555 1_555
C30_20 C19_20 1_555 1_555
C35_20 C24_20 1_555 1_555
C36_20 C25_20 1_555 1_555
C41_20 C30_20 1_555 1_555
C46_20 C35_20 1_555 1_555
C47_20 C36_20 1_555 1_555
H18_20 C41_20 1_555 1_555
H23_20 C46_20 1_555 1_555
H24_20 C47_20 1_555 1_555
C52_20 C41_20 1_555 1_555
C57_20 C46_20 1_555 1_555
C58_20 C47_20 1_555 1_555
C63_20 C52_20 1_555 1_555
C66_20 C58_20 1_555 1_555
C69_20 C57_20 1_555 1_555
C74_20 C63_20 1_555 1_555
C77_20 C66_20 1_555 1_555
C80_20 C69_20 1_555 1_555
H29_20 C74_20 1_555 1_555
H32_20 C77_20 1_555 1_555
H35_20 C80_20 1_555 1_555
C85_20 C30_20 1_555 1_555
C88_20 C36_20 1_555 1_555
C91_20 C35_20 1_555 1_555
H40_20 C85_20 1_555 1_555
H43_20 C88_20 1_555 1_555
H46_20 C91_20 1_555 1_555
C96_20 C52_20 1_555 1_555
C99_20 C57_20 1_555 1_555
C102_20 C58_20 1_555 1_555
C107_20 C96_20 1_555 1_555
C110_20 C99_20 1_555 1_555
C113_20 C102_20 1_555 1_555
C118_20 C63_20 1_555 1_555
C121_20 C66_20 1_555 1_555
C124_20 C69_20 1_555 1_555
C129_20 C96_20 1_555 1_555
C132_20 C99_20 1_555 1_555
C135_20 C102_20 1_555 1_555
H51_20 C129_20 1_555 1_555
H54_20 C132_20 1_555 1_555
H57_20 C135_20 1_555 1_555
H62_20 C129_20 1_555 1_555
H65_20 C132_20 1_555 1_555
H68_20 C135_20 1_555 1_555
C140_20 C129_20 1_555 1_555
C143_20 C132_20 1_555 1_555
C146_20 C135_20 1_555 1_555
H73_20 C140_20 1_555 1_555
H76_20 C143_20 1_555 1_555
H79_20 C146_20 1_555 1_555
H84_20 C140_20 1_555 1_555
H87_20 C143_20 1_555 1_555
H90_20 C146_20 1_555 1_555
H95_20 C140_20 1_555 1_555
H98_20 C143_20 1_555 1_555
H101_20 C146_20 1_555 1_555
C151_20 C96_20 1_555 1_555
C154_20 C99_20 1_555 1_555
C157_20 C102_20 1_555 1_555
H106_20 C151_20 1_555 1_555
H109_20 C154_20 1_555 1_555
H112_20 C157_20 1_555 1_555
H117_20 C151_20 1_555 1_555
H120_20 C154_20 1_555 1_555
H123_20 C157_20 1_555 1_555
C162_20 C151_20 1_555 1_555
C165_20 C154_20 1_555 1_555
C168_20 C157_20 1_555 1_555
H128_20 C162_20 1_555 1_555
H131_20 C165_20 1_555 1_555
H134_20 C168_20 1_555 1_555
H139_20 C162_20 1_555 1_555
H142_20 C165_20 1_555 1_555
H145_20 C168_20 1_555 1_555
H150_20 C162_20 1_555 1_555
H153_20 C165_20 1_555 1_555
H156_20 C168_20 1_555 1_555
O26_5 C19_20 1_555 1_555
O26_8 C25_20 1_555 1_555
C74_20 C85_20 1_555 1_555
C77_20 C88_20 1_555 1_555
C80_20 C91_20 1_555 1_555
C107_20 C118_20 1_555 1_555
C107_20 C121_20 1_555 1_555
C110_20 C118_20 1_555 1_555
C110_20 C124_20 1_555 1_555
C113_20 C121_20 1_555 1_555
C113_20 C124_20 1_555 1_555

#END
