
###############################################################################
#
# This file contains modified crystal structure data generated from the
# MOF subset of the Cambridge Structural Database (CSD) v543 
# hosted by the Cambridge Crystallographic Data Centre (CCDC).
#
# This work is licensed under the Creative Commons
# Attribution-NonCommercial-ShareAlike 4.0 International License.
# To view a copy of this license, visit
# http://creativecommons.org/licenses/by-nc-sa/4.0/
# or send a letter to
# Creative Commons, PO Box 1866, Mountain View, CA 94042, USA.
#
# CIF created using the CSD Python API on 29 September 2022
# The structure has been converted into the P1 space group
# The structure has a 3D framework
# The original CSD entry BUFNUM01 is in the cubic crystal system
# The framework has been calculated to contain at least 10.0% void space
# The void calculation uses a probe of radius 1.32A, grid spacing 0.4
# The framework is charged, counterions have been retained in the structure
# H atom positions have been added when not included in the experimental data
# Generated hydrogen atom positions removed from atoms on special positions
#
###############################################################################

data_BUFNUM01
_chemical_formula_moiety         '(C2688 H3504 Cd144 O612 122+)n'
_symmetry_cell_setting           triclinic
_symmetry_space_group_name_H-M   'P 1'
_symmetry_Int_Tables_number      1
_space_group_name_Hall           'P 1'
loop_
_symmetry_equiv_pos_site_id
_symmetry_equiv_pos_as_xyz
1 x,y,z
_cell_length_a                   48.673(6)
_cell_length_b                   48.673(6)
_cell_length_c                   48.673(6)
_cell_angle_alpha                90
_cell_angle_beta                 90
_cell_angle_gamma                90
_cell_volume                     115309
loop_
_atom_site_label
_atom_site_type_symbol
_atom_site_fract_x
_atom_site_fract_y
_atom_site_fract_z
O1 O 0.0000 0.3092(7) 0.1282(8)
O1_2 O 1.0000 0.3092(7) 0.1282(8)
O1_3 O 0.1282(8) 0.0000 0.3092(7)
O1_4 O 0.1282(8) 1.0000 0.3092(7)
O1_5 O 0.3092(7) 0.1282(8) 0.0000
O1_6 O 0.3092(7) 0.1282(8) 1.0000
O1_7 O 0.8092(7) 0.5000 0.3718(8)
O1_8 O 0.8092(7) 0.5000 0.6282(8)
O1_9 O 0.1908(7) 0.5000 0.6282(8)
O1_10 O 0.5000 0.6282(8) 0.1908(7)
O1_11 O 0.5000 0.6282(8) 0.8092(7)
O1_12 O 0.5000 0.3718(8) 0.8092(7)
O1_13 O 0.6282(8) 0.8092(7) 0.5000
O1_14 O 0.6282(8) 0.1908(7) 0.5000
O1_15 O 0.3718(8) 0.8092(7) 0.5000
O1_16 O 0.0000 0.8092(7) 0.6282(8)
O1_17 O 1.0000 0.8092(7) 0.6282(8)
O1_18 O 0.1282(8) 0.5000 0.8092(7)
O1_19 O 0.3092(7) 0.6282(8) 0.5000
O1_20 O 0.8092(7) 0.0000 0.8718(8)
O1_21 O 0.8092(7) 1.0000 0.8718(8)
O1_22 O 0.8092(7) -0.0000 0.1282(8)
O1_23 O 0.8092(7) 1.0000 0.1282(8)
O1_24 O 0.1908(7) 0.0000 0.1282(8)
O1_25 O 0.1908(7) 1.0000 0.1282(8)
O1_26 O 0.5000 0.1282(8) 0.6908(7)
O1_27 O 0.5000 0.1282(8) 0.3092(7)
O1_28 O 0.5000 0.8718(8) 0.3092(7)
O1_29 O 0.6282(8) 0.3092(7) -0.0000
O1_30 O 0.6282(8) 0.3092(7) 1.0000
O1_31 O 0.6282(8) 0.6908(7) 0.0000
O1_32 O 0.6282(8) 0.6908(7) 1.0000
O1_33 O 0.3718(8) 0.3092(7) 0.0000
O1_34 O 0.3718(8) 0.3092(7) 1.0000
O1_35 O 0.5000 0.3092(7) 0.6282(8)
O1_36 O 0.6282(8) 0.0000 0.8092(7)
O1_37 O 0.6282(8) 1.0000 0.8092(7)
O1_38 O 0.8092(7) 0.1282(8) 0.5000
O1_39 O 0.3092(7) 0.5000 0.8718(8)
O1_40 O 0.3092(7) 0.5000 0.1282(8)
O1_41 O 0.6908(7) 0.5000 0.1282(8)
O1_42 O 0.0000 0.6282(8) 0.6908(7)
O1_43 O 1.0000 0.6282(8) 0.6908(7)
O1_44 O 0.0000 0.6282(8) 0.3092(7)
O1_45 O 1.0000 0.6282(8) 0.3092(7)
O1_46 O 0.0000 0.3718(8) 0.3092(7)
O1_47 O 1.0000 0.3718(8) 0.3092(7)
O1_48 O 0.1282(8) 0.8092(7) -0.0000
O1_49 O 0.1282(8) 0.8092(7) 1.0000
O1_50 O 0.1282(8) 0.1908(7) 0.0000
O1_51 O 0.1282(8) 0.1908(7) 1.0000
O1_52 O 0.8718(8) 0.8092(7) 0.0000
O1_53 O 0.8718(8) 0.8092(7) 1.0000
O1_54 O 0.5000 0.8092(7) 0.1282(8)
O1_55 O 0.6282(8) 0.5000 0.3092(7)
O1_56 O 0.8092(7) 0.6282(8) 0.0000
O1_57 O 0.8092(7) 0.6282(8) 1.0000
O1_58 O 0.3092(7) 0.0000 0.3718(8)
O1_59 O 0.3092(7) 1.0000 0.3718(8)
O1_60 O 0.3092(7) 0.0000 0.6282(8)
O1_61 O 0.3092(7) 1.0000 0.6282(8)
O1_62 O 0.6908(7) 0.0000 0.6282(8)
O1_63 O 0.6908(7) 1.0000 0.6282(8)
O1_64 O 0.0000 0.1282(8) 0.1908(7)
O1_65 O 1.0000 0.1282(8) 0.1908(7)
O1_66 O 0.0000 0.1282(8) 0.8092(7)
O1_67 O 1.0000 0.1282(8) 0.8092(7)
O1_68 O 0.0000 0.8718(8) 0.8092(7)
O1_69 O 1.0000 0.8718(8) 0.8092(7)
O1_70 O 0.1282(8) 0.3092(7) 0.5000
O1_71 O 0.1282(8) 0.6908(7) 0.5000
O1_72 O 0.8718(8) 0.3092(7) 0.5000
O1_73 O 0.0000 0.6908(7) 0.1282(8)
O1_74 O 1.0000 0.6908(7) 0.1282(8)
O1_75 O 0.0000 0.3092(7) 0.8718(8)
O1_76 O 1.0000 0.3092(7) 0.8718(8)
O1_77 O 0.0000 0.6908(7) 0.8718(8)
O1_78 O 1.0000 0.6908(7) 0.8718(8)
O1_79 O 0.1282(8) 0.0000 0.6908(7)
O1_80 O 0.1282(8) 1.0000 0.6908(7)
O1_81 O 0.8718(8) 0.0000 0.3092(7)
O1_82 O 0.8718(8) 1.0000 0.3092(7)
O1_83 O 0.8718(8) 0.0000 0.6908(7)
O1_84 O 0.8718(8) 1.0000 0.6908(7)
O1_85 O 0.6908(7) 0.1282(8) -0.0000
O1_86 O 0.6908(7) 0.1282(8) 1.0000
O1_87 O 0.3092(7) 0.8718(8) -0.0000
O1_88 O 0.3092(7) 0.8718(8) 1.0000
O1_89 O 0.6908(7) 0.8718(8) 0.0000
O1_90 O 0.6908(7) 0.8718(8) 1.0000
O1_91 O 0.1908(7) 0.5000 0.3718(8)
O1_92 O 0.5000 0.3718(8) 0.1908(7)
O1_93 O 0.3718(8) 0.1908(7) 0.5000
O1_94 O 0.0000 0.1908(7) 0.6282(8)
O1_95 O 1.0000 0.1908(7) 0.6282(8)
O1_96 O 0.0000 0.8092(7) 0.3718(8)
O1_97 O 1.0000 0.8092(7) 0.3718(8)
O1_98 O 0.0000 0.1908(7) 0.3718(8)
O1_99 O 1.0000 0.1908(7) 0.3718(8)
O1_100 O 0.1282(8) 0.5000 0.1908(7)
O1_101 O 0.8718(8) 0.5000 0.8092(7)
O1_102 O 0.8718(8) 0.5000 0.1908(7)
O1_103 O 0.6908(7) 0.6282(8) 0.5000
O1_104 O 0.3092(7) 0.3718(8) 0.5000
O1_105 O 0.6908(7) 0.3718(8) 0.5000
O1_106 O 0.1908(7) 0.0000 0.8718(8)
O1_107 O 0.1908(7) 1.0000 0.8718(8)
O1_108 O 0.5000 0.8718(8) 0.6908(7)
O1_109 O 0.3718(8) 0.6908(7) -0.0000
O1_110 O 0.3718(8) 0.6908(7) 1.0000
O1_111 O 0.5000 0.6908(7) 0.6282(8)
O1_112 O 0.5000 0.3092(7) 0.3718(8)
O1_113 O 0.5000 0.6908(7) 0.3718(8)
O1_114 O 0.6282(8) -0.0000 0.1908(7)
O1_115 O 0.6282(8) 1.0000 0.1908(7)
O1_116 O 0.3718(8) 0.0000 0.8092(7)
O1_117 O 0.3718(8) 1.0000 0.8092(7)
O1_118 O 0.3718(8) 0.0000 0.1908(7)
O1_119 O 0.3718(8) 1.0000 0.1908(7)
O1_120 O 0.1908(7) 0.1282(8) 0.5000
O1_121 O 0.8092(7) 0.8718(8) 0.5000
O1_122 O 0.1908(7) 0.8718(8) 0.5000
O1_123 O 0.6908(7) 0.5000 0.8718(8)
O1_124 O -0.0000 0.3718(8) 0.6908(7)
O1_125 O 1.0000 0.3718(8) 0.6908(7)
O1_126 O 0.8718(8) 0.1908(7) -0.0000
O1_127 O 0.8718(8) 0.1908(7) 1.0000
O1_128 O 0.5000 0.1908(7) 0.1282(8)
O1_129 O 0.5000 0.8092(7) 0.8718(8)
O1_130 O 0.5000 0.1908(7) 0.8718(8)
O1_131 O 0.6282(8) 0.5000 0.6908(7)
O1_132 O 0.3718(8) 0.5000 0.3092(7)
O1_133 O 0.3718(8) 0.5000 0.6908(7)
O1_134 O 0.1908(7) 0.6282(8) -0.0000
O1_135 O 0.1908(7) 0.6282(8) 1.0000
O1_136 O 0.8092(7) 0.3718(8) -0.0000
O1_137 O 0.8092(7) 0.3718(8) 1.0000
O1_138 O 0.1908(7) 0.3718(8) 0.0000
O1_139 O 0.1908(7) 0.3718(8) 1.0000
O1_140 O 0.6908(7) 0.0000 0.3718(8)
O1_141 O 0.6908(7) 1.0000 0.3718(8)
O1_142 O 0.0000 0.8718(8) 0.1908(7)
O1_143 O 1.0000 0.8718(8) 0.1908(7)
O1_144 O 0.8718(8) 0.6908(7) 0.5000
Cd1 Cd 0.0000 0.19897(15) 0.22481(4)
O2 O 0.03463(11) 0.16144(13) 0.23731(14)
O3 O 0.03084(11) 0.19896(12) 0.26094(15)
O4 O 0.0000 0.2500 0.2500
C1 C 0.04199(13) 0.17506(16) 0.25733(17)
C2 C 0.06409(13) 0.16602(12) 0.27554(18)
C3 C 0.07217(14) 0.18249(15) 0.29777(17)
H1 H 0.0632 0.1995 0.3014
C4 C 0.09375(13) 0.17332(13) 0.31448(15)
C5 C 0.10795(13) 0.14925(12) 0.30866(14)
C6 C 0.09898(14) 0.13331(13) 0.28683(15)
H2 H 0.1078 0.1163 0.2830
C7 C 0.07752(13) 0.14185(14) 0.27067(16)
H3 H 0.0718 0.1307 0.2557
C8 C 0.10416(15) 0.18724(14) 0.33989(15)
C9 C 0.12787(13) 0.16844(13) 0.34789(14)
C10 C 0.13024(12) 0.14664(13) 0.32927(12)
C11 C 0.11397(19) 0.21593(18) 0.33290(18)
H4 H 0.1195 0.2252 0.3501
H5 H 0.0984 0.2263 0.3251
C12 C 0.1386(2) 0.2174(3) 0.3122(2)
H6 H 0.1540 0.2066 0.3194
H7 H 0.1443 0.2366 0.3100
H8 H 0.1328 0.2100 0.2944
C13 C 0.08020(17) 0.18670(18) 0.3618(2)
H9 H 0.0866 0.1959 0.3787
H10 H 0.0645 0.1973 0.3546
C14 C 0.0700(2) 0.1569(2) 0.3694(2)
H11 H 0.0629 0.1479 0.3529
H12 H 0.0555 0.1581 0.3833
H13 H 0.0854 0.1463 0.3767
Cd2 Cd 0.0000 0.27519(4) 0.19897(15)
Cd3 Cd 0.0000 0.22481(4) 0.30103(15)
Cd4 Cd 0.0000 0.30103(15) 0.27519(4)
Cd5 Cd 0.19897(15) 0.27519(4) 0.5000
Cd6 Cd 0.22481(4) 0.19897(15) 0.5000
Cd7 Cd 0.27519(4) 0.0000 0.30103(15)
Cd8 Cd 0.19897(15) 0.0000 0.27519(4)
Cd9 Cd 0.27519(4) 0.30103(15) 0.5000
Cd10 Cd 0.19897(15) 0.5000 0.22481(4)
Cd11 Cd 0.22481(4) 0.5000 0.30103(15)
Cd12 Cd 0.27519(4) 0.5000 0.19897(15)
Cd13 Cd 0.19897(15) 0.22481(4) 0.0000
Cd14 Cd 0.22481(4) 0.30103(15) 0.0000
O7 O 0.03463(11) 0.33856(13) 0.26269(14)
O8 O 0.03463(11) 0.23731(14) 0.33856(13)
O10 O 0.03463(11) 0.26269(14) 0.16144(13)
O12 O 0.16144(13) 0.26269(14) 0.46537(11)
O13 O 0.26269(14) 0.03463(11) 0.33856(13)
O14 O 0.26269(14) 0.33856(13) 0.46537(11)
O15 O 0.16144(13) 0.46537(11) 0.23731(14)
O16 O 0.26269(14) 0.46537(11) 0.16144(13)
O17 O 0.16144(13) 0.23731(14) 0.03463(11)
O20 O 0.03084(11) 0.23906(15) 0.19896(12)
O23 O 0.03084(11) 0.30104(12) 0.23906(15)
O26 O 0.03084(11) 0.26094(15) 0.30104(12)
O27 O 0.19896(12) 0.23906(15) 0.46916(11)
O28 O 0.23906(15) 0.03084(11) 0.30104(12)
O29 O 0.23906(15) 0.30104(12) 0.46916(11)
O30 O 0.19896(12) 0.46916(11) 0.26094(15)
O31 O 0.23906(15) 0.46916(11) 0.19896(12)
O32 O 0.19896(12) 0.26094(15) 0.03084(11)
C15 C 0.04199(13) 0.25733(17) 0.32494(16)
C16 C 0.04199(13) 0.32494(16) 0.24267(17)
C18 C 0.17506(16) 0.24267(17) 0.45801(13)
C19 C 0.24267(17) 0.04199(13) 0.32494(16)
C20 C 0.24267(17) 0.32494(16) 0.45801(13)
C21 C 0.17506(16) 0.45801(13) 0.25733(17)
C22 C 0.24267(17) 0.45801(13) 0.17506(16)
C23 C 0.17506(16) 0.25733(17) 0.04199(13)
C26 C 0.06409(13) 0.27554(18) 0.33398(12)
C27 C 0.06409(13) 0.33398(12) 0.22446(18)
C29 C 0.16602(12) 0.22446(18) 0.43591(13)
C30 C 0.22446(18) 0.06409(13) 0.33398(12)
C31 C 0.22446(18) 0.33398(12) 0.43591(13)
C32 C 0.16602(12) 0.43591(13) 0.27554(18)
C33 C 0.22446(18) 0.43591(13) 0.16602(12)
C34 C 0.16602(12) 0.27554(18) 0.06409(13)
C37 C 0.07217(14) 0.29777(17) 0.31751(15)
C38 C 0.07217(14) 0.31751(15) 0.20223(17)
C40 C 0.18249(15) 0.20223(17) 0.42783(14)
C41 C 0.20223(17) 0.07217(14) 0.31751(15)
C42 C 0.20223(17) 0.31751(15) 0.42783(14)
C43 C 0.18249(15) 0.42783(14) 0.29777(17)
C44 C 0.20223(17) 0.42783(14) 0.18249(15)
C45 C 0.18249(15) 0.29777(17) 0.07217(14)
H14 H 0.0632 0.3014 0.3005
H15 H 0.0632 0.3005 0.1986
H17 H 0.1995 0.1986 0.4368
H18 H 0.1986 0.0632 0.3005
H19 H 0.1986 0.3005 0.4368
H20 H 0.1995 0.4368 0.3014
H21 H 0.1986 0.4368 0.1995
H22 H 0.1995 0.3014 0.0632
C48 C 0.17332(13) 0.18552(15) 0.40625(13)
C49 C 0.18552(15) 0.09375(13) 0.32668(13)
C50 C 0.09375(13) 0.31448(15) 0.32668(13)
C51 C 0.09375(13) 0.32668(13) 0.18552(15)
C53 C 0.18552(15) 0.32668(13) 0.40625(13)
C54 C 0.17332(13) 0.40625(13) 0.31448(15)
C55 C 0.18552(15) 0.40625(13) 0.17332(13)
C56 C 0.17332(13) 0.31448(15) 0.09375(13)
C59 C 0.14925(12) 0.19134(14) 0.39205(13)
C60 C 0.19134(14) 0.10795(13) 0.35075(12)
C61 C 0.10795(13) 0.30866(14) 0.35075(12)
C62 C 0.10795(13) 0.35075(12) 0.19134(14)
C64 C 0.14925(12) 0.39205(13) 0.30866(14)
C65 C 0.14925(12) 0.30866(14) 0.10795(13)
C67 C 0.19134(14) 0.35075(12) 0.39205(13)
C68 C 0.19134(14) 0.39205(13) 0.14925(12)
C70 C 0.13331(13) 0.21317(15) 0.40102(14)
C71 C 0.21317(15) 0.09898(14) 0.36669(13)
C72 C 0.09898(14) 0.28683(15) 0.36669(13)
C73 C 0.09898(14) 0.36669(13) 0.21317(15)
C75 C 0.13331(13) 0.40102(14) 0.28683(15)
C76 C 0.13331(13) 0.28683(15) 0.09898(14)
C78 C 0.21317(15) 0.36669(13) 0.40102(14)
C79 C 0.21317(15) 0.40102(14) 0.13331(13)
H25 H 0.1163 0.2170 0.3922
H26 H 0.2170 0.1078 0.3837
H27 H 0.1078 0.2830 0.3837
H28 H 0.1078 0.3837 0.2170
H30 H 0.1163 0.3922 0.2830
H31 H 0.1163 0.2830 0.1078
H33 H 0.2170 0.3837 0.3922
H34 H 0.2170 0.3922 0.1163
C81 C 0.07752(13) 0.27067(16) 0.35815(14)
C82 C 0.07752(13) 0.35815(14) 0.22933(16)
C84 C 0.14185(14) 0.22933(16) 0.42248(13)
C85 C 0.22933(16) 0.07752(13) 0.35815(14)
C86 C 0.14185(14) 0.42248(13) 0.27067(16)
C87 C 0.14185(14) 0.27067(16) 0.07752(13)
C89 C 0.22933(16) 0.35815(14) 0.42248(13)
C90 C 0.22933(16) 0.42248(13) 0.14185(14)
H36 H 0.0718 0.2557 0.3693
H37 H 0.0718 0.3693 0.2443
H39 H 0.1307 0.2443 0.4282
H40 H 0.2443 0.0718 0.3693
H41 H 0.1307 0.4282 0.2557
H42 H 0.1307 0.2557 0.0718
H44 H 0.2443 0.3693 0.4282
H45 H 0.2443 0.4282 0.1307
C92 C 0.16011(15) 0.10416(15) 0.31276(14)
C93 C 0.18724(14) 0.16011(15) 0.39584(15)
C94 C 0.10416(15) 0.33989(15) 0.31276(14)
C95 C 0.10416(15) 0.31276(14) 0.16011(15)
C97 C 0.16011(15) 0.31276(14) 0.39584(15)
C98 C 0.16011(15) 0.39584(15) 0.18724(14)
C100 C 0.18724(14) 0.39584(15) 0.33989(15)
C101 C 0.18724(14) 0.33989(15) 0.10416(15)
C103 C 0.15211(14) 0.12787(13) 0.33156(13)
C104 C 0.16844(13) 0.15211(14) 0.37213(13)
C105 C 0.12787(13) 0.34789(14) 0.33156(13)
C106 C 0.12787(13) 0.33156(13) 0.15211(14)
C108 C 0.15211(14) 0.33156(13) 0.37213(13)
C109 C 0.15211(14) 0.37213(13) 0.16844(13)
C111 C 0.16844(13) 0.37213(13) 0.34789(14)
C112 C 0.16844(13) 0.34789(14) 0.12787(13)
C114 C 0.14664(13) 0.17073(12) 0.36976(12)
C115 C 0.17073(12) 0.13024(12) 0.35336(13)
C116 C 0.13024(12) 0.32927(12) 0.35336(13)
C117 C 0.13024(12) 0.35336(13) 0.17073(12)
C119 C 0.14664(13) 0.36976(12) 0.32927(12)
C120 C 0.14664(13) 0.32927(12) 0.13024(12)
C122 C 0.17073(12) 0.35336(13) 0.36976(12)
C123 C 0.17073(12) 0.36976(12) 0.14664(13)
C125 C 0.16710(18) 0.11397(19) 0.28407(18)
C126 C 0.21593(18) 0.16710(18) 0.38603(19)
C127 C 0.11397(19) 0.33290(18) 0.28407(18)
C128 C 0.11397(19) 0.28407(18) 0.16710(18)
C130 C 0.16710(18) 0.28407(18) 0.38603(19)
C131 C 0.16710(18) 0.38603(19) 0.21593(18)
C133 C 0.21593(18) 0.38603(19) 0.33290(18)
C134 C 0.21593(18) 0.33290(18) 0.11397(19)
H47 H 0.1499 0.1195 0.2748
H48 H 0.2252 0.1499 0.3805
H49 H 0.1195 0.3501 0.2748
H50 H 0.1195 0.2748 0.1499
H52 H 0.1499 0.2748 0.3805
H53 H 0.1499 0.3805 0.2252
H55 H 0.2252 0.3805 0.3501
H56 H 0.2252 0.3501 0.1195
H58 H 0.1749 0.0984 0.2737
H59 H 0.2263 0.1749 0.4016
H60 H 0.0984 0.3251 0.2737
H61 H 0.0984 0.2737 0.1749
H63 H 0.1749 0.2737 0.4016
H64 H 0.1749 0.4016 0.2263
H66 H 0.2263 0.4016 0.3251
H67 H 0.2263 0.3251 0.0984
C136 C 0.1878(2) 0.1386(2) 0.2826(3)
C137 C 0.2174(3) 0.1878(2) 0.3614(2)
C138 C 0.1386(2) 0.3122(2) 0.2826(3)
C139 C 0.1386(2) 0.2826(3) 0.1878(2)
C141 C 0.1878(2) 0.2826(3) 0.3614(2)
C142 C 0.1878(2) 0.3614(2) 0.2174(3)
C144 C 0.2174(3) 0.3614(2) 0.3122(2)
C145 C 0.2174(3) 0.3122(2) 0.1386(2)
H69 H 0.1806 0.1540 0.2934
H70 H 0.2066 0.1806 0.3460
H71 H 0.1540 0.3194 0.2934
H72 H 0.1540 0.2934 0.1806
H74 H 0.1806 0.2934 0.3460
H75 H 0.1806 0.3460 0.2066
H77 H 0.2066 0.3460 0.3194
H78 H 0.2066 0.3194 0.1540
H80 H 0.1900 0.1443 0.2634
H81 H 0.2366 0.1900 0.3557
H82 H 0.1443 0.3100 0.2634
H83 H 0.1443 0.2634 0.1900
H85 H 0.1900 0.2634 0.3557
H86 H 0.1900 0.3557 0.2366
H88 H 0.2366 0.3557 0.3100
H89 H 0.2366 0.3100 0.1443
H91 H 0.2056 0.1328 0.2900
H92 H 0.2100 0.2056 0.3672
H93 H 0.1328 0.2944 0.2900
H94 H 0.1328 0.2900 0.2056
H96 H 0.2056 0.2900 0.3672
H97 H 0.2056 0.3672 0.2100
H99 H 0.2100 0.3672 0.2944
H100 H 0.2100 0.2944 0.1328
C147 C 0.1382(2) 0.08020(17) 0.31330(18)
C148 C 0.18670(18) 0.1382(2) 0.41980(17)
C149 C 0.08020(17) 0.3618(2) 0.31330(18)
C150 C 0.08020(17) 0.31330(18) 0.1382(2)
C152 C 0.1382(2) 0.31330(18) 0.41980(17)
C153 C 0.1382(2) 0.41980(17) 0.18670(18)
C155 C 0.18670(18) 0.41980(17) 0.3618(2)
C156 C 0.18670(18) 0.3618(2) 0.08020(17)
H102 H 0.1213 0.0866 0.3041
H103 H 0.1959 0.1213 0.4134
H104 H 0.0866 0.3787 0.3041
H105 H 0.0866 0.3041 0.1213
H107 H 0.1213 0.3041 0.4134
H108 H 0.1213 0.4134 0.1959
H110 H 0.1959 0.4134 0.3787
H111 H 0.1959 0.3787 0.0866
H113 H 0.1454 0.0645 0.3027
H114 H 0.1973 0.1454 0.4355
H115 H 0.0645 0.3546 0.3027
H116 H 0.0645 0.3027 0.1454
H118 H 0.1454 0.3027 0.4355
H119 H 0.1454 0.4355 0.1973
H121 H 0.1973 0.4355 0.3546
H122 H 0.1973 0.3546 0.0645
C158 C 0.1306(2) 0.0700(2) 0.3431(2)
C159 C 0.1569(2) 0.1306(2) 0.4300(2)
C160 C 0.0700(2) 0.3694(2) 0.3431(2)
C161 C 0.0700(2) 0.3431(2) 0.1306(2)
C163 C 0.1306(2) 0.3431(2) 0.4300(2)
C164 C 0.1306(2) 0.4300(2) 0.1569(2)
C166 C 0.1569(2) 0.4300(2) 0.3694(2)
C167 C 0.1569(2) 0.3694(2) 0.0700(2)
H124 H 0.1471 0.0629 0.3521
H125 H 0.1479 0.1471 0.4371
H126 H 0.0629 0.3529 0.3521
H127 H 0.0629 0.3521 0.1471
H129 H 0.1471 0.3521 0.4371
H130 H 0.1471 0.4371 0.1479
H132 H 0.1479 0.4371 0.3529
H133 H 0.1479 0.3529 0.0629
H135 H 0.1167 0.0555 0.3419
H136 H 0.1581 0.1167 0.4445
H137 H 0.0555 0.3833 0.3419
H138 H 0.0555 0.3419 0.1167
H140 H 0.1167 0.3419 0.4445
H141 H 0.1167 0.4445 0.1581
H143 H 0.1581 0.4445 0.3833
H144 H 0.1581 0.3833 0.0555
H146 H 0.1233 0.0854 0.3537
H147 H 0.1463 0.1233 0.4146
H148 H 0.0854 0.3767 0.3537
H149 H 0.0854 0.3537 0.1233
H151 H 0.1233 0.3537 0.4146
H152 H 0.1233 0.4146 0.1463
H154 H 0.1463 0.4146 0.3767
H155 H 0.1463 0.3767 0.0854
Cd13_2 Cd 0.19897(15) 0.22481(4) 1.0000
Cd14_2 Cd 0.22481(4) 0.30103(15) 1.0000
Cd7_2 Cd 0.27519(4) 1.0000 0.30103(15)
Cd8_2 Cd 0.19897(15) 1.0000 0.27519(4)
Cd1_2 Cd 1.0000 0.19897(15) 0.22481(4)
O4_2 O 1.0000 0.2500 0.2500
Cd2_2 Cd 1.0000 0.27519(4) 0.19897(15)
Cd3_2 Cd 1.0000 0.22481(4) 0.30103(15)
Cd4_2 Cd 1.0000 0.30103(15) 0.27519(4)
Cd15 Cd 0.72481(4) 0.19897(15) 0.0000
Cd16 Cd 0.80103(15) 0.22481(4) 0.0000
Cd17 Cd 0.80103(15) 0.0000 0.27519(4)
Cd18 Cd 0.77519(4) 0.0000 0.19897(15)
O5 O 0.96537(11) 0.16144(13) 0.23731(14)
O6 O 0.96537(11) 0.33856(13) 0.26269(14)
O9 O 0.96537(11) 0.23731(14) 0.33856(13)
O11 O 0.96537(11) 0.26269(14) 0.16144(13)
O18 O 0.73731(14) 0.16144(13) 0.03463(11)
O19 O 0.83856(13) 0.03463(11) 0.26269(14)
O21 O 0.96916(11) 0.23906(15) 0.19896(12)
O22 O 0.96916(11) 0.19896(12) 0.26094(15)
O24 O 0.96916(11) 0.26094(15) 0.30104(12)
O25 O 0.96916(11) 0.30104(12) 0.23906(15)
O33 O 0.76094(15) 0.19896(12) 0.03084(11)
O34 O 0.80104(12) 0.03084(11) 0.23906(15)
C17 C 0.95801(13) 0.24267(17) 0.17506(16)
C24 C 0.75733(17) 0.17506(16) 0.04199(13)
C25 C 0.82494(16) 0.04199(13) 0.24267(17)
C28 C 0.93591(13) 0.22446(18) 0.16602(12)
C35 C 0.77554(18) 0.16602(12) 0.06409(13)
C36 C 0.83398(12) 0.06409(13) 0.22446(18)
C39 C 0.92783(14) 0.20223(17) 0.18249(15)
C46 C 0.79777(17) 0.18249(15) 0.07217(14)
C47 C 0.81751(15) 0.07217(14) 0.20223(17)
H16 H 0.9368 0.1986 0.1995
H23 H 0.8014 0.1995 0.0632
H24 H 0.8005 0.0632 0.1986
C52 C 0.90625(13) 0.18552(15) 0.17332(13)
C57 C 0.81448(15) 0.17332(13) 0.09375(13)
C58 C 0.82668(13) 0.09375(13) 0.18552(15)
C63 C 0.89205(13) 0.19134(14) 0.14925(12)
C66 C 0.85075(12) 0.10795(13) 0.19134(14)
C69 C 0.80866(14) 0.14925(12) 0.10795(13)
C74 C 0.90102(14) 0.21317(15) 0.13331(13)
C77 C 0.86669(13) 0.09898(14) 0.21317(15)
C80 C 0.78683(15) 0.13331(13) 0.09898(14)
H29 H 0.8922 0.2170 0.1163
H32 H 0.8837 0.1078 0.2170
H35 H 0.7830 0.1163 0.1078
C83 C 0.92248(13) 0.22933(16) 0.14185(14)
C88 C 0.85815(14) 0.07752(13) 0.22933(16)
C91 C 0.77067(16) 0.14185(14) 0.07752(13)
H38 H 0.9282 0.2443 0.1307
H43 H 0.8693 0.0718 0.2443
H46 H 0.7557 0.1307 0.0718
C96 C 0.89584(15) 0.16011(15) 0.18724(14)
C99 C 0.83989(15) 0.18724(14) 0.10416(15)
C102 C 0.81276(14) 0.10416(15) 0.16011(15)
C107 C 0.87213(13) 0.15211(14) 0.16844(13)
C110 C 0.84789(14) 0.16844(13) 0.12787(13)
C113 C 0.83156(13) 0.12787(13) 0.15211(14)
C118 C 0.86976(12) 0.17073(12) 0.14664(13)
C121 C 0.85336(13) 0.13024(12) 0.17073(12)
C124 C 0.82927(12) 0.14664(13) 0.13024(12)
C129 C 0.88603(19) 0.16710(18) 0.21593(18)
C132 C 0.83290(18) 0.21593(18) 0.11397(19)
C135 C 0.78407(18) 0.11397(19) 0.16710(18)
H51 H 0.8805 0.1499 0.2252
H54 H 0.8501 0.2252 0.1195
H57 H 0.7748 0.1195 0.1499
H62 H 0.9016 0.1749 0.2263
H65 H 0.8251 0.2263 0.0984
H68 H 0.7737 0.0984 0.1749
C140 C 0.8614(2) 0.1878(2) 0.2174(3)
C143 C 0.8122(2) 0.2174(3) 0.1386(2)
C146 C 0.7826(3) 0.1386(2) 0.1878(2)
H73 H 0.8460 0.1806 0.2066
H76 H 0.8194 0.2066 0.1540
H79 H 0.7934 0.1540 0.1806
H84 H 0.8557 0.1900 0.2366
H87 H 0.8100 0.2366 0.1443
H90 H 0.7634 0.1443 0.1900
H95 H 0.8672 0.2056 0.2100
H98 H 0.7944 0.2100 0.1328
H101 H 0.7900 0.1328 0.2056
C151 C 0.91980(17) 0.1382(2) 0.18670(18)
C154 C 0.8618(2) 0.18670(18) 0.08020(17)
C157 C 0.81330(18) 0.08020(17) 0.1382(2)
H106 H 0.9134 0.1213 0.1959
H109 H 0.8787 0.1959 0.0866
H112 H 0.8041 0.0866 0.1213
H117 H 0.9355 0.1454 0.1973
H120 H 0.8546 0.1973 0.0645
H123 H 0.8027 0.0645 0.1454
C162 C 0.9300(2) 0.1306(2) 0.1569(2)
C165 C 0.8694(2) 0.1569(2) 0.0700(2)
C168 C 0.8431(2) 0.0700(2) 0.1306(2)
H128 H 0.9371 0.1471 0.1479
H131 H 0.8529 0.1479 0.0629
H134 H 0.8521 0.0629 0.1471
H139 H 0.9445 0.1167 0.1581
H142 H 0.8833 0.1581 0.0555
H145 H 0.8419 0.0555 0.1167
H150 H 0.9146 0.1233 0.1463
H153 H 0.8767 0.1463 0.0854
H156 H 0.8537 0.0854 0.1233
Cd15_2 Cd 0.72481(4) 0.19897(15) 1.0000
Cd16_2 Cd 0.80103(15) 0.22481(4) 1.0000
Cd17_2 Cd 0.80103(15) 1.0000 0.27519(4)
Cd18_2 Cd 0.77519(4) 1.0000 0.19897(15)
Cd1_3 Cd 0.22481(4) 0.0000 0.19897(15)
O2_2 O 0.23731(14) 0.03463(11) 0.16144(13)
O3_2 O 0.26094(15) 0.03084(11) 0.19896(12)
O4_3 O 0.2500 0.0000 0.2500
C1_2 C 0.25733(17) 0.04199(13) 0.17506(16)
C2_2 C 0.27554(18) 0.06409(13) 0.16602(12)
C3_2 C 0.29777(17) 0.07217(14) 0.18249(15)
H1_2 H 0.3014 0.0632 0.1995
C4_2 C 0.31448(15) 0.09375(13) 0.17332(13)
C5_2 C 0.30866(14) 0.10795(13) 0.14925(12)
C6_2 C 0.28683(15) 0.09898(14) 0.13331(13)
H2_2 H 0.2830 0.1078 0.1163
C7_2 C 0.27067(16) 0.07752(13) 0.14185(14)
H3_2 H 0.2557 0.0718 0.1307
C8_2 C 0.33989(15) 0.10416(15) 0.18724(14)
C9_2 C 0.34789(14) 0.12787(13) 0.16844(13)
C10_2 C 0.32927(12) 0.13024(12) 0.14664(13)
C11_2 C 0.33290(18) 0.11397(19) 0.21593(18)
H4_2 H 0.3501 0.1195 0.2252
H5_2 H 0.3251 0.0984 0.2263
C12_2 C 0.3122(2) 0.1386(2) 0.2174(3)
H6_2 H 0.3194 0.1540 0.2066
H7_2 H 0.3100 0.1443 0.2366
H8_2 H 0.2944 0.1328 0.2100
C13_2 C 0.3618(2) 0.08020(17) 0.18670(18)
H9_2 H 0.3787 0.0866 0.1959
H10_2 H 0.3546 0.0645 0.1973
C14_2 C 0.3694(2) 0.0700(2) 0.1569(2)
H11_2 H 0.3529 0.0629 0.1479
H12_2 H 0.3833 0.0555 0.1581
H13_2 H 0.3767 0.0854 0.1463
Cd3_3 Cd 0.30103(15) 0.0000 0.22481(4)
Cd5_2 Cd 0.5000 0.19897(15) 0.27519(4)
Cd6_2 Cd 0.5000 0.22481(4) 0.19897(15)
Cd7_3 Cd 0.30103(15) 0.27519(4) 0.0000
Cd8_3 Cd 0.27519(4) 0.19897(15) 0.0000
Cd9_2 Cd 0.5000 0.27519(4) 0.30103(15)
Cd11_2 Cd 0.30103(15) 0.22481(4) 0.5000
O8_2 O 0.33856(13) 0.03463(11) 0.23731(14)
O10_2 O 0.16144(13) 0.03463(11) 0.26269(14)
O12_2 O 0.46537(11) 0.16144(13) 0.26269(14)
O13_2 O 0.33856(13) 0.26269(14) 0.03463(11)
O14_2 O 0.46537(11) 0.26269(14) 0.33856(13)
O15_2 O 0.23731(14) 0.16144(13) 0.46537(11)
O20_2 O 0.19896(12) 0.03084(11) 0.23906(15)
O26_2 O 0.30104(12) 0.03084(11) 0.26094(15)
O27_2 O 0.46916(11) 0.19896(12) 0.23906(15)
O28_2 O 0.30104(12) 0.23906(15) 0.03084(11)
O29_2 O 0.46916(11) 0.23906(15) 0.30104(12)
O30_2 O 0.26094(15) 0.19896(12) 0.46916(11)
C15_2 C 0.32494(16) 0.04199(13) 0.25733(17)
C18_2 C 0.45801(13) 0.17506(16) 0.24267(17)
C19_2 C 0.32494(16) 0.24267(17) 0.04199(13)
C20_2 C 0.45801(13) 0.24267(17) 0.32494(16)
C21_2 C 0.25733(17) 0.17506(16) 0.45801(13)
C26_2 C 0.33398(12) 0.06409(13) 0.27554(18)
C29_2 C 0.43591(13) 0.16602(12) 0.22446(18)
C30_2 C 0.33398(12) 0.22446(18) 0.06409(13)
C31_2 C 0.43591(13) 0.22446(18) 0.33398(12)
C32_2 C 0.27554(18) 0.16602(12) 0.43591(13)
C37_2 C 0.31751(15) 0.07217(14) 0.29777(17)
C40_2 C 0.42783(14) 0.18249(15) 0.20223(17)
C41_2 C 0.31751(15) 0.20223(17) 0.07217(14)
C42_2 C 0.42783(14) 0.20223(17) 0.31751(15)
C43_2 C 0.29777(17) 0.18249(15) 0.42783(14)
H14_2 H 0.3005 0.0632 0.3014
H17_2 H 0.4368 0.1995 0.1986
H18_2 H 0.3005 0.1986 0.0632
H19_2 H 0.4368 0.1986 0.3005
H20_2 H 0.3014 0.1995 0.4368
C48_2 C 0.40625(13) 0.17332(13) 0.18552(15)
C49_2 C 0.32668(13) 0.18552(15) 0.09375(13)
C50_2 C 0.32668(13) 0.09375(13) 0.31448(15)
C53_2 C 0.40625(13) 0.18552(15) 0.32668(13)
C54_2 C 0.31448(15) 0.17332(13) 0.40625(13)
C59_2 C 0.39205(13) 0.14925(12) 0.19134(14)
C60_2 C 0.35075(12) 0.19134(14) 0.10795(13)
C61_2 C 0.35075(12) 0.10795(13) 0.30866(14)
C64_2 C 0.30866(14) 0.14925(12) 0.39205(13)
C67_2 C 0.39205(13) 0.19134(14) 0.35075(12)
C70_2 C 0.40102(14) 0.13331(13) 0.21317(15)
C71_2 C 0.36669(13) 0.21317(15) 0.09898(14)
C72_2 C 0.36669(13) 0.09898(14) 0.28683(15)
C75_2 C 0.28683(15) 0.13331(13) 0.40102(14)
C78_2 C 0.40102(14) 0.21317(15) 0.36669(13)
H25_2 H 0.3922 0.1163 0.2170
H26_2 H 0.3837 0.2170 0.1078
H27_2 H 0.3837 0.1078 0.2830
H30_2 H 0.2830 0.1163 0.3922
H33_2 H 0.3922 0.2170 0.3837
C81_2 C 0.35815(14) 0.07752(13) 0.27067(16)
C84_2 C 0.42248(13) 0.14185(14) 0.22933(16)
C85_2 C 0.35815(14) 0.22933(16) 0.07752(13)
C86_2 C 0.27067(16) 0.14185(14) 0.42248(13)
C89_2 C 0.42248(13) 0.22933(16) 0.35815(14)
H36_2 H 0.3693 0.0718 0.2557
H39_2 H 0.4282 0.1307 0.2443
H40_2 H 0.3693 0.2443 0.0718
H41_2 H 0.2557 0.1307 0.4282
H44_2 H 0.4282 0.2443 0.3693
C92_2 C 0.31276(14) 0.16011(15) 0.10416(15)
C93_2 C 0.39584(15) 0.18724(14) 0.16011(15)
C94_2 C 0.31276(14) 0.10416(15) 0.33989(15)
C97_2 C 0.39584(15) 0.16011(15) 0.31276(14)
C100_2 C 0.33989(15) 0.18724(14) 0.39584(15)
C103_2 C 0.33156(13) 0.15211(14) 0.12787(13)
C104_2 C 0.37213(13) 0.16844(13) 0.15211(14)
C105_2 C 0.33156(13) 0.12787(13) 0.34789(14)
C108_2 C 0.37213(13) 0.15211(14) 0.33156(13)
C111_2 C 0.34789(14) 0.16844(13) 0.37213(13)
C114_2 C 0.36976(12) 0.14664(13) 0.17073(12)
C115_2 C 0.35336(13) 0.17073(12) 0.13024(12)
C116_2 C 0.35336(13) 0.13024(12) 0.32927(12)
C119_2 C 0.32927(12) 0.14664(13) 0.36976(12)
C122_2 C 0.36976(12) 0.17073(12) 0.35336(13)
C125_2 C 0.28407(18) 0.16710(18) 0.11397(19)
C126_2 C 0.38603(19) 0.21593(18) 0.16710(18)
C127_2 C 0.28407(18) 0.11397(19) 0.33290(18)
C130_2 C 0.38603(19) 0.16710(18) 0.28407(18)
C133_2 C 0.33290(18) 0.21593(18) 0.38603(19)
H47_2 H 0.2748 0.1499 0.1195
H48_2 H 0.3805 0.2252 0.1499
H49_2 H 0.2748 0.1195 0.3501
H52_2 H 0.3805 0.1499 0.2748
H55_2 H 0.3501 0.2252 0.3805
H58_2 H 0.2737 0.1749 0.0984
H59_2 H 0.4016 0.2263 0.1749
H60_2 H 0.2737 0.0984 0.3251
H63_2 H 0.4016 0.1749 0.2737
H66_2 H 0.3251 0.2263 0.4016
C136_2 C 0.2826(3) 0.1878(2) 0.1386(2)
C137_2 C 0.3614(2) 0.2174(3) 0.1878(2)
C138_2 C 0.2826(3) 0.1386(2) 0.3122(2)
C141_2 C 0.3614(2) 0.1878(2) 0.2826(3)
C144_2 C 0.3122(2) 0.2174(3) 0.3614(2)
H69_2 H 0.2934 0.1806 0.1540
H70_2 H 0.3460 0.2066 0.1806
H71_2 H 0.2934 0.1540 0.3194
H74_2 H 0.3460 0.1806 0.2934
H77_2 H 0.3194 0.2066 0.3460
H80_2 H 0.2634 0.1900 0.1443
H81_2 H 0.3557 0.2366 0.1900
H82_2 H 0.2634 0.1443 0.3100
H85_2 H 0.3557 0.1900 0.2634
H88_2 H 0.3100 0.2366 0.3557
H91_2 H 0.2900 0.2056 0.1328
H92_2 H 0.3672 0.2100 0.2056
H93_2 H 0.2900 0.1328 0.2944
H96_2 H 0.3672 0.2056 0.2900
H99_2 H 0.2944 0.2100 0.3672
C147_2 C 0.31330(18) 0.1382(2) 0.08020(17)
C148_2 C 0.41980(17) 0.18670(18) 0.1382(2)
C149_2 C 0.31330(18) 0.08020(17) 0.3618(2)
C152_2 C 0.41980(17) 0.1382(2) 0.31330(18)
C155_2 C 0.3618(2) 0.18670(18) 0.41980(17)
H102_2 H 0.3041 0.1213 0.0866
H103_2 H 0.4134 0.1959 0.1213
H104_2 H 0.3041 0.0866 0.3787
H107_2 H 0.4134 0.1213 0.3041
H110_2 H 0.3787 0.1959 0.4134
H113_2 H 0.3027 0.1454 0.0645
H114_2 H 0.4355 0.1973 0.1454
H115_2 H 0.3027 0.0645 0.3546
H118_2 H 0.4355 0.1454 0.3027
H121_2 H 0.3546 0.1973 0.4355
C158_2 C 0.3431(2) 0.1306(2) 0.0700(2)
C159_2 C 0.4300(2) 0.1569(2) 0.1306(2)
C160_2 C 0.3431(2) 0.0700(2) 0.3694(2)
C163_2 C 0.4300(2) 0.1306(2) 0.3431(2)
C166_2 C 0.3694(2) 0.1569(2) 0.4300(2)
H124_2 H 0.3521 0.1471 0.0629
H125_2 H 0.4371 0.1479 0.1471
H126_2 H 0.3521 0.0629 0.3529
H129_2 H 0.4371 0.1471 0.3521
H132_2 H 0.3529 0.1479 0.4371
H135_2 H 0.3419 0.1167 0.0555
H136_2 H 0.4445 0.1581 0.1167
H137_2 H 0.3419 0.0555 0.3833
H140_2 H 0.4445 0.1167 0.3419
H143_2 H 0.3833 0.1581 0.4445
H146_2 H 0.3537 0.1233 0.0854
H147_2 H 0.4146 0.1463 0.1233
H148_2 H 0.3537 0.0854 0.3767
H151_2 H 0.4146 0.1233 0.3537
H154_2 H 0.3767 0.1463 0.4146
Cd7_4 Cd 0.30103(15) 0.27519(4) 1.0000
Cd8_4 Cd 0.27519(4) 0.19897(15) 1.0000
Cd1_4 Cd 0.22481(4) 1.0000 0.19897(15)
O4_4 O 0.2500 1.0000 0.2500
Cd3_4 Cd 0.30103(15) 1.0000 0.22481(4)
Cd15_3 Cd 0.0000 0.72481(4) 0.19897(15)
Cd16_3 Cd 0.0000 0.80103(15) 0.22481(4)
Cd17_3 Cd 0.27519(4) 0.80103(15) 0.0000
Cd18_3 Cd 0.19897(15) 0.77519(4) 0.0000
O5_2 O 0.23731(14) 0.96537(11) 0.16144(13)
O6_2 O 0.26269(14) 0.96537(11) 0.33856(13)
O9_2 O 0.33856(13) 0.96537(11) 0.23731(14)
O11_2 O 0.16144(13) 0.96537(11) 0.26269(14)
O18_2 O 0.03463(11) 0.73731(14) 0.16144(13)
O19_2 O 0.26269(14) 0.83856(13) 0.03463(11)
O21_2 O 0.19896(12) 0.96916(11) 0.23906(15)
O22_2 O 0.26094(15) 0.96916(11) 0.19896(12)
O24_2 O 0.30104(12) 0.96916(11) 0.26094(15)
O25_2 O 0.23906(15) 0.96916(11) 0.30104(12)
O33_2 O 0.03084(11) 0.76094(15) 0.19896(12)
O34_2 O 0.23906(15) 0.80104(12) 0.03084(11)
C17_2 C 0.17506(16) 0.95801(13) 0.24267(17)
C24_2 C 0.04199(13) 0.75733(17) 0.17506(16)
C25_2 C 0.24267(17) 0.82494(16) 0.04199(13)
C28_2 C 0.16602(12) 0.93591(13) 0.22446(18)
C35_2 C 0.06409(13) 0.77554(18) 0.16602(12)
C36_2 C 0.22446(18) 0.83398(12) 0.06409(13)
C39_2 C 0.18249(15) 0.92783(14) 0.20223(17)
C46_2 C 0.07217(14) 0.79777(17) 0.18249(15)
C47_2 C 0.20223(17) 0.81751(15) 0.07217(14)
H16_2 H 0.1995 0.9368 0.1986
H23_2 H 0.0632 0.8014 0.1995
H24_2 H 0.1986 0.8005 0.0632
C52_2 C 0.17332(13) 0.90625(13) 0.18552(15)
C57_2 C 0.09375(13) 0.81448(15) 0.17332(13)
C58_2 C 0.18552(15) 0.82668(13) 0.09375(13)
C63_2 C 0.14925(12) 0.89205(13) 0.19134(14)
C66_2 C 0.19134(14) 0.85075(12) 0.10795(13)
C69_2 C 0.10795(13) 0.80866(14) 0.14925(12)
C74_2 C 0.13331(13) 0.90102(14) 0.21317(15)
C77_2 C 0.21317(15) 0.86669(13) 0.09898(14)
C80_2 C 0.09898(14) 0.78683(15) 0.13331(13)
H29_2 H 0.1163 0.8922 0.2170
H32_2 H 0.2170 0.8837 0.1078
H35_2 H 0.1078 0.7830 0.1163
C83_2 C 0.14185(14) 0.92248(13) 0.22933(16)
C88_2 C 0.22933(16) 0.85815(14) 0.07752(13)
C91_2 C 0.07752(13) 0.77067(16) 0.14185(14)
H38_2 H 0.1307 0.9282 0.2443
H43_2 H 0.2443 0.8693 0.0718
H46_2 H 0.0718 0.7557 0.1307
C96_2 C 0.18724(14) 0.89584(15) 0.16011(15)
C99_2 C 0.10416(15) 0.83989(15) 0.18724(14)
C102_2 C 0.16011(15) 0.81276(14) 0.10416(15)
C107_2 C 0.16844(13) 0.87213(13) 0.15211(14)
C110_2 C 0.12787(13) 0.84789(14) 0.16844(13)
C113_2 C 0.15211(14) 0.83156(13) 0.12787(13)
C118_2 C 0.14664(13) 0.86976(12) 0.17073(12)
C121_2 C 0.17073(12) 0.85336(13) 0.13024(12)
C124_2 C 0.13024(12) 0.82927(12) 0.14664(13)
C129_2 C 0.21593(18) 0.88603(19) 0.16710(18)
C132_2 C 0.11397(19) 0.83290(18) 0.21593(18)
C135_2 C 0.16710(18) 0.78407(18) 0.11397(19)
H51_2 H 0.2252 0.8805 0.1499
H54_2 H 0.1195 0.8501 0.2252
H57_2 H 0.1499 0.7748 0.1195
H62_2 H 0.2263 0.9016 0.1749
H65_2 H 0.0984 0.8251 0.2263
H68_2 H 0.1749 0.7737 0.0984
C140_2 C 0.2174(3) 0.8614(2) 0.1878(2)
C143_2 C 0.1386(2) 0.8122(2) 0.2174(3)
C146_2 C 0.1878(2) 0.7826(3) 0.1386(2)
H73_2 H 0.2066 0.8460 0.1806
H76_2 H 0.1540 0.8194 0.2066
H79_2 H 0.1806 0.7934 0.1540
H84_2 H 0.2366 0.8557 0.1900
H87_2 H 0.1443 0.8100 0.2366
H90_2 H 0.1900 0.7634 0.1443
H95_2 H 0.2100 0.8672 0.2056
H98_2 H 0.1328 0.7944 0.2100
H101_2 H 0.2056 0.7900 0.1328
C151_2 C 0.18670(18) 0.91980(17) 0.1382(2)
C154_2 C 0.08020(17) 0.8618(2) 0.18670(18)
C157_2 C 0.1382(2) 0.81330(18) 0.08020(17)
H106_2 H 0.1959 0.9134 0.1213
H109_2 H 0.0866 0.8787 0.1959
H112_2 H 0.1213 0.8041 0.0866
H117_2 H 0.1973 0.9355 0.1454
H120_2 H 0.0645 0.8546 0.1973
H123_2 H 0.1454 0.8027 0.0645
C162_2 C 0.1569(2) 0.9300(2) 0.1306(2)
C165_2 C 0.0700(2) 0.8694(2) 0.1569(2)
C168_2 C 0.1306(2) 0.8431(2) 0.0700(2)
H128_2 H 0.1479 0.9371 0.1471
H131_2 H 0.0629 0.8529 0.1479
H134_2 H 0.1471 0.8521 0.0629
H139_2 H 0.1581 0.9445 0.1167
H142_2 H 0.0555 0.8833 0.1581
H145_2 H 0.1167 0.8419 0.0555
H150_2 H 0.1463 0.9146 0.1233
H153_2 H 0.0854 0.8767 0.1463
H156_2 H 0.1233 0.8537 0.0854
Cd17_4 Cd 0.27519(4) 0.80103(15) 1.0000
Cd18_4 Cd 0.19897(15) 0.77519(4) 1.0000
Cd15_4 Cd 1.0000 0.72481(4) 0.19897(15)
Cd16_4 Cd 1.0000 0.80103(15) 0.22481(4)
O4_5 O 0.2500 0.2500 0.0000
Cd9_3 Cd 0.30103(15) 0.5000 0.27519(4)
Cd11_3 Cd 0.5000 0.30103(15) 0.22481(4)
O8_3 O 0.23731(14) 0.33856(13) 0.03463(11)
O10_3 O 0.26269(14) 0.16144(13) 0.03463(11)
O14_3 O 0.33856(13) 0.46537(11) 0.26269(14)
O15_3 O 0.46537(11) 0.23731(14) 0.16144(13)
O20_3 O 0.23906(15) 0.19896(12) 0.03084(11)
O26_3 O 0.26094(15) 0.30104(12) 0.03084(11)
O29_3 O 0.30104(12) 0.46916(11) 0.23906(15)
O30_3 O 0.46916(11) 0.26094(15) 0.19896(12)
C15_3 C 0.25733(17) 0.32494(16) 0.04199(13)
C20_3 C 0.32494(16) 0.45801(13) 0.24267(17)
C21_3 C 0.45801(13) 0.25733(17) 0.17506(16)
C26_3 C 0.27554(18) 0.33398(12) 0.06409(13)
C31_3 C 0.33398(12) 0.43591(13) 0.22446(18)
C32_3 C 0.43591(13) 0.27554(18) 0.16602(12)
C37_3 C 0.29777(17) 0.31751(15) 0.07217(14)
C42_3 C 0.31751(15) 0.42783(14) 0.20223(17)
C43_3 C 0.42783(14) 0.29777(17) 0.18249(15)
H14_3 H 0.3014 0.3005 0.0632
H19_3 H 0.3005 0.4368 0.1986
H20_3 H 0.4368 0.3014 0.1995
C50_3 C 0.31448(15) 0.32668(13) 0.09375(13)
C53_3 C 0.32668(13) 0.40625(13) 0.18552(15)
C54_3 C 0.40625(13) 0.31448(15) 0.17332(13)
C61_3 C 0.30866(14) 0.35075(12) 0.10795(13)
C64_3 C 0.39205(13) 0.30866(14) 0.14925(12)
C67_3 C 0.35075(12) 0.39205(13) 0.19134(14)
C72_3 C 0.28683(15) 0.36669(13) 0.09898(14)
C75_3 C 0.40102(14) 0.28683(15) 0.13331(13)
C78_3 C 0.36669(13) 0.40102(14) 0.21317(15)
H27_3 H 0.2830 0.3837 0.1078
H30_3 H 0.3922 0.2830 0.1163
H33_3 H 0.3837 0.3922 0.2170
C81_3 C 0.27067(16) 0.35815(14) 0.07752(13)
C86_3 C 0.42248(13) 0.27067(16) 0.14185(14)
C89_3 C 0.35815(14) 0.42248(13) 0.22933(16)
H36_3 H 0.2557 0.3693 0.0718
H41_3 H 0.4282 0.2557 0.1307
H44_3 H 0.3693 0.4282 0.2443
C94_3 C 0.33989(15) 0.31276(14) 0.10416(15)
C97_3 C 0.31276(14) 0.39584(15) 0.16011(15)
C100_3 C 0.39584(15) 0.33989(15) 0.18724(14)
C105_3 C 0.34789(14) 0.33156(13) 0.12787(13)
C108_3 C 0.33156(13) 0.37213(13) 0.15211(14)
C111_3 C 0.37213(13) 0.34789(14) 0.16844(13)
C116_3 C 0.32927(12) 0.35336(13) 0.13024(12)
C119_3 C 0.36976(12) 0.32927(12) 0.14664(13)
C122_3 C 0.35336(13) 0.36976(12) 0.17073(12)
C127_3 C 0.33290(18) 0.28407(18) 0.11397(19)
C130_3 C 0.28407(18) 0.38603(19) 0.16710(18)
C133_3 C 0.38603(19) 0.33290(18) 0.21593(18)
H49_3 H 0.3501 0.2748 0.1195
H52_3 H 0.2748 0.3805 0.1499
H55_3 H 0.3805 0.3501 0.2252
H60_3 H 0.3251 0.2737 0.0984
H63_3 H 0.2737 0.4016 0.1749
H66_3 H 0.4016 0.3251 0.2263
C138_3 C 0.3122(2) 0.2826(3) 0.1386(2)
C141_3 C 0.2826(3) 0.3614(2) 0.1878(2)
C144_3 C 0.3614(2) 0.3122(2) 0.2174(3)
H71_3 H 0.3194 0.2934 0.1540
H74_3 H 0.2934 0.3460 0.1806
H77_3 H 0.3460 0.3194 0.2066
H82_3 H 0.3100 0.2634 0.1443
H85_3 H 0.2634 0.3557 0.1900
H88_3 H 0.3557 0.3100 0.2366
H93_3 H 0.2944 0.2900 0.1328
H96_3 H 0.2900 0.3672 0.2056
H99_3 H 0.3672 0.2944 0.2100
C149_3 C 0.3618(2) 0.31330(18) 0.08020(17)
C152_3 C 0.31330(18) 0.41980(17) 0.1382(2)
C155_3 C 0.41980(17) 0.3618(2) 0.18670(18)
H104_3 H 0.3787 0.3041 0.0866
H107_3 H 0.3041 0.4134 0.1213
H110_3 H 0.4134 0.3787 0.1959
H115_3 H 0.3546 0.3027 0.0645
H118_3 H 0.3027 0.4355 0.1454
H121_3 H 0.4355 0.3546 0.1973
C160_3 C 0.3694(2) 0.3431(2) 0.0700(2)
C163_3 C 0.3431(2) 0.4300(2) 0.1306(2)
C166_3 C 0.4300(2) 0.3694(2) 0.1569(2)
H126_3 H 0.3529 0.3521 0.0629
H129_3 H 0.3521 0.4371 0.1471
H132_3 H 0.4371 0.3529 0.1479
H137_3 H 0.3833 0.3419 0.0555
H140_3 H 0.3419 0.4445 0.1167
H143_3 H 0.4445 0.3833 0.1581
H148_3 H 0.3767 0.3537 0.0854
H151_3 H 0.3537 0.4146 0.1233
H154_3 H 0.4146 0.3767 0.1463
O4_6 O 0.2500 0.2500 1.0000
Cd15_5 Cd 0.19897(15) 0.0000 0.72481(4)
Cd16_5 Cd 0.22481(4) 0.0000 0.80103(15)
Cd17_5 Cd 0.0000 0.27519(4) 0.80103(15)
Cd18_5 Cd 0.0000 0.19897(15) 0.77519(4)
O5_3 O 0.16144(13) 0.23731(14) 0.96537(11)
O6_3 O 0.33856(13) 0.26269(14) 0.96537(11)
O9_3 O 0.23731(14) 0.33856(13) 0.96537(11)
O11_3 O 0.26269(14) 0.16144(13) 0.96537(11)
O18_3 O 0.16144(13) 0.03463(11) 0.73731(14)
O19_3 O 0.03463(11) 0.26269(14) 0.83856(13)
O21_3 O 0.23906(15) 0.19896(12) 0.96916(11)
O22_3 O 0.19896(12) 0.26094(15) 0.96916(11)
O24_3 O 0.26094(15) 0.30104(12) 0.96916(11)
O25_3 O 0.30104(12) 0.23906(15) 0.96916(11)
O33_3 O 0.19896(12) 0.03084(11) 0.76094(15)
O34_3 O 0.03084(11) 0.23906(15) 0.80104(12)
C17_3 C 0.24267(17) 0.17506(16) 0.95801(13)
C24_3 C 0.17506(16) 0.04199(13) 0.75733(17)
C25_3 C 0.04199(13) 0.24267(17) 0.82494(16)
C28_3 C 0.22446(18) 0.16602(12) 0.93591(13)
C35_3 C 0.16602(12) 0.06409(13) 0.77554(18)
C36_3 C 0.06409(13) 0.22446(18) 0.83398(12)
C39_3 C 0.20223(17) 0.18249(15) 0.92783(14)
C46_3 C 0.18249(15) 0.07217(14) 0.79777(17)
C47_3 C 0.07217(14) 0.20223(17) 0.81751(15)
H16_3 H 0.1986 0.1995 0.9368
H23_3 H 0.1995 0.0632 0.8014
H24_3 H 0.0632 0.1986 0.8005
C52_3 C 0.18552(15) 0.17332(13) 0.90625(13)
C57_3 C 0.17332(13) 0.09375(13) 0.81448(15)
C58_3 C 0.09375(13) 0.18552(15) 0.82668(13)
C63_3 C 0.19134(14) 0.14925(12) 0.89205(13)
C66_3 C 0.10795(13) 0.19134(14) 0.85075(12)
C69_3 C 0.14925(12) 0.10795(13) 0.80866(14)
C74_3 C 0.21317(15) 0.13331(13) 0.90102(14)
C77_3 C 0.09898(14) 0.21317(15) 0.86669(13)
C80_3 C 0.13331(13) 0.09898(14) 0.78683(15)
H29_3 H 0.2170 0.1163 0.8922
H32_3 H 0.1078 0.2170 0.8837
H35_3 H 0.1163 0.1078 0.7830
C83_3 C 0.22933(16) 0.14185(14) 0.92248(13)
C88_3 C 0.07752(13) 0.22933(16) 0.85815(14)
C91_3 C 0.14185(14) 0.07752(13) 0.77067(16)
H38_3 H 0.2443 0.1307 0.9282
H43_3 H 0.0718 0.2443 0.8693
H46_3 H 0.1307 0.0718 0.7557
C96_3 C 0.16011(15) 0.18724(14) 0.89584(15)
C99_3 C 0.18724(14) 0.10416(15) 0.83989(15)
C102_3 C 0.10416(15) 0.16011(15) 0.81276(14)
C107_3 C 0.15211(14) 0.16844(13) 0.87213(13)
C110_3 C 0.16844(13) 0.12787(13) 0.84789(14)
C113_3 C 0.12787(13) 0.15211(14) 0.83156(13)
C118_3 C 0.17073(12) 0.14664(13) 0.86976(12)
C121_3 C 0.13024(12) 0.17073(12) 0.85336(13)
C124_3 C 0.14664(13) 0.13024(12) 0.82927(12)
C129_3 C 0.16710(18) 0.21593(18) 0.88603(19)
C132_3 C 0.21593(18) 0.11397(19) 0.83290(18)
C135_3 C 0.11397(19) 0.16710(18) 0.78407(18)
H51_3 H 0.1499 0.2252 0.8805
H54_3 H 0.2252 0.1195 0.8501
H57_3 H 0.1195 0.1499 0.7748
H62_3 H 0.1749 0.2263 0.9016
H65_3 H 0.2263 0.0984 0.8251
H68_3 H 0.0984 0.1749 0.7737
C140_3 C 0.1878(2) 0.2174(3) 0.8614(2)
C143_3 C 0.2174(3) 0.1386(2) 0.8122(2)
C146_3 C 0.1386(2) 0.1878(2) 0.7826(3)
H73_3 H 0.1806 0.2066 0.8460
H76_3 H 0.2066 0.1540 0.8194
H79_3 H 0.1540 0.1806 0.7934
H84_3 H 0.1900 0.2366 0.8557
H87_3 H 0.2366 0.1443 0.8100
H90_3 H 0.1443 0.1900 0.7634
H95_3 H 0.2056 0.2100 0.8672
H98_3 H 0.2100 0.1328 0.7944
H101_3 H 0.1328 0.2056 0.7900
C151_3 C 0.1382(2) 0.18670(18) 0.91980(17)
C154_3 C 0.18670(18) 0.08020(17) 0.8618(2)
C157_3 C 0.08020(17) 0.1382(2) 0.81330(18)
H106_3 H 0.1213 0.1959 0.9134
H109_3 H 0.1959 0.0866 0.8787
H112_3 H 0.0866 0.1213 0.8041
H117_3 H 0.1454 0.1973 0.9355
H120_3 H 0.1973 0.0645 0.8546
H123_3 H 0.0645 0.1454 0.8027
C162_3 C 0.1306(2) 0.1569(2) 0.9300(2)
C165_3 C 0.1569(2) 0.0700(2) 0.8694(2)
C168_3 C 0.0700(2) 0.1306(2) 0.8431(2)
H128_3 H 0.1471 0.1479 0.9371
H131_3 H 0.1479 0.0629 0.8529
H134_3 H 0.0629 0.1471 0.8521
H139_3 H 0.1167 0.1581 0.9445
H142_3 H 0.1581 0.0555 0.8833
H145_3 H 0.0555 0.1167 0.8419
H150_3 H 0.1233 0.1463 0.9146
H153_3 H 0.1463 0.0854 0.8767
H156_3 H 0.0854 0.1233 0.8537
Cd15_6 Cd 0.19897(15) 1.0000 0.72481(4)
Cd16_6 Cd 0.22481(4) 1.0000 0.80103(15)
Cd17_6 Cd 1.0000 0.27519(4) 0.80103(15)
Cd18_6 Cd 1.0000 0.19897(15) 0.77519(4)
Cd10_2 Cd 0.0000 0.69897(15) 0.27519(4)
Cd12_2 Cd 0.0000 0.77519(4) 0.30103(15)
Cd1_5 Cd 0.69897(15) 0.5000 0.27519(4)
O2_3 O 0.66144(13) 0.53463(11) 0.26269(14)
O3_3 O 0.69896(12) 0.53084(11) 0.23906(15)
O4_7 O 0.7500 0.5000 0.2500
C1_3 C 0.67506(16) 0.54199(13) 0.24267(17)
C2_3 C 0.66602(12) 0.56409(13) 0.22446(18)
C3_3 C 0.68249(15) 0.57217(14) 0.20223(17)
H1_3 H 0.6995 0.5632 0.1986
C4_3 C 0.67332(13) 0.59375(13) 0.18552(15)
C5_3 C 0.64925(12) 0.60795(13) 0.19134(14)
C6_3 C 0.63331(13) 0.59898(14) 0.21317(15)
H2_3 H 0.6163 0.6078 0.2170
C7_3 C 0.64185(14) 0.57752(13) 0.22933(16)
H3_3 H 0.6307 0.5718 0.2443
C8_3 C 0.68724(14) 0.60416(15) 0.16011(15)
C9_3 C 0.66844(13) 0.62787(13) 0.15211(14)
C10_3 C 0.64664(13) 0.63024(12) 0.17073(12)
C11_3 C 0.71593(18) 0.61397(19) 0.16710(18)
H4_3 H 0.7252 0.6195 0.1499
H5_3 H 0.7263 0.5984 0.1749
C12_3 C 0.7174(3) 0.6386(2) 0.1878(2)
H6_3 H 0.7066 0.6540 0.1806
H7_3 H 0.7366 0.6443 0.1900
H8_3 H 0.7100 0.6328 0.2056
C13_3 C 0.68670(18) 0.58020(17) 0.1382(2)
H9_3 H 0.6959 0.5866 0.1213
H10_3 H 0.6973 0.5645 0.1454
C14_3 C 0.6569(2) 0.5700(2) 0.1306(2)
H11_3 H 0.6479 0.5629 0.1471
H12_3 H 0.6581 0.5555 0.1167
H13_3 H 0.6463 0.5854 0.1233
Cd2_3 Cd 0.77519(4) 0.5000 0.30103(15)
Cd3_5 Cd 0.72481(4) 0.5000 0.19897(15)
Cd4_3 Cd 0.80103(15) 0.5000 0.22481(4)
Cd5_3 Cd 0.77519(4) 0.69897(15) 0.0000
Cd6_3 Cd 0.69897(15) 0.72481(4) 0.0000
Cd7_5 Cd 0.5000 0.77519(4) 0.19897(15)
Cd8_5 Cd 0.5000 0.69897(15) 0.22481(4)
Cd9_4 Cd 0.80103(15) 0.77519(4) 0.0000
Cd10_3 Cd 1.0000 0.69897(15) 0.27519(4)
Cd12_3 Cd 1.0000 0.77519(4) 0.30103(15)
Cd13_3 Cd 0.72481(4) 0.69897(15) 0.5000
Cd14_3 Cd 0.80103(15) 0.72481(4) 0.5000
Cd15_7 Cd 0.69897(15) 0.22481(4) 0.5000
Cd16_7 Cd 0.72481(4) 0.30103(15) 0.5000
O5_4 O 0.66144(13) 0.46537(11) 0.26269(14)
O6_4 O 0.83856(13) 0.46537(11) 0.23731(14)
O7_2 O 0.83856(13) 0.53463(11) 0.23731(14)
O8_4 O 0.73731(14) 0.53463(11) 0.16144(13)
O9_4 O 0.73731(14) 0.46537(11) 0.16144(13)
O10_4 O 0.76269(14) 0.53463(11) 0.33856(13)
O11_4 O 0.76269(14) 0.46537(11) 0.33856(13)
O12_3 O 0.76269(14) 0.66144(13) 0.03463(11)
O13_3 O 0.53463(11) 0.76269(14) 0.16144(13)
O14_4 O 0.83856(13) 0.76269(14) 0.03463(11)
O15_4 O 0.96537(11) 0.66144(13) 0.26269(14)
O16_2 O 0.96537(11) 0.76269(14) 0.33856(13)
O17_2 O 0.73731(14) 0.66144(13) 0.46537(11)
O18_4 O 0.66144(13) 0.23731(14) 0.46537(11)
O19_4 O 0.53463(11) 0.33856(13) 0.23731(14)
O20_4 O 0.73906(15) 0.53084(11) 0.30104(12)
O21_4 O 0.73906(15) 0.46916(11) 0.30104(12)
O22_4 O 0.69896(12) 0.46916(11) 0.23906(15)
O23_2 O 0.80104(12) 0.53084(11) 0.26094(15)
O24_4 O 0.76094(15) 0.46916(11) 0.19896(12)
O25_4 O 0.80104(12) 0.46916(11) 0.26094(15)
O26_4 O 0.76094(15) 0.53084(11) 0.19896(12)
O27_3 O 0.73906(15) 0.69896(12) 0.03084(11)
O28_3 O 0.53084(11) 0.73906(15) 0.19896(12)
O29_4 O 0.80104(12) 0.73906(15) 0.03084(11)
O30_4 O 0.96916(11) 0.69896(12) 0.23906(15)
O31_2 O 0.96916(11) 0.73906(15) 0.30104(12)
O32_2 O 0.76094(15) 0.69896(12) 0.46916(11)
O33_4 O 0.69896(12) 0.26094(15) 0.46916(11)
O34_4 O 0.53084(11) 0.30104(12) 0.26094(15)
C15_4 C 0.75733(17) 0.54199(13) 0.17506(16)
C16_2 C 0.82494(16) 0.54199(13) 0.25733(17)
C17_4 C 0.74267(17) 0.45801(13) 0.32494(16)
C18_3 C 0.74267(17) 0.67506(16) 0.04199(13)
C19_3 C 0.54199(13) 0.74267(17) 0.17506(16)
C20_4 C 0.82494(16) 0.74267(17) 0.04199(13)
C21_4 C 0.95801(13) 0.67506(16) 0.24267(17)
C22_2 C 0.95801(13) 0.74267(17) 0.32494(16)
C23_2 C 0.75733(17) 0.67506(16) 0.45801(13)
C24_4 C 0.67506(16) 0.25733(17) 0.45801(13)
C25_4 C 0.54199(13) 0.32494(16) 0.25733(17)
C26_4 C 0.77554(18) 0.56409(13) 0.16602(12)
C27_2 C 0.83398(12) 0.56409(13) 0.27554(18)
C28_4 C 0.72446(18) 0.43591(13) 0.33398(12)
C29_3 C 0.72446(18) 0.66602(12) 0.06409(13)
C30_3 C 0.56409(13) 0.72446(18) 0.16602(12)
C31_4 C 0.83398(12) 0.72446(18) 0.06409(13)
C32_4 C 0.93591(13) 0.66602(12) 0.22446(18)
C33_2 C 0.93591(13) 0.72446(18) 0.33398(12)
C34_2 C 0.77554(18) 0.66602(12) 0.43591(13)
C35_4 C 0.66602(12) 0.27554(18) 0.43591(13)
C36_4 C 0.56409(13) 0.33398(12) 0.27554(18)
C37_4 C 0.79777(17) 0.57217(14) 0.18249(15)
C38_2 C 0.81751(15) 0.57217(14) 0.29777(17)
C39_4 C 0.70223(17) 0.42783(14) 0.31751(15)
C40_3 C 0.70223(17) 0.68249(15) 0.07217(14)
C41_3 C 0.57217(14) 0.70223(17) 0.18249(15)
C42_4 C 0.81751(15) 0.70223(17) 0.07217(14)
C43_4 C 0.92783(14) 0.68249(15) 0.20223(17)
C44_2 C 0.92783(14) 0.70223(17) 0.31751(15)
C45_2 C 0.79777(17) 0.68249(15) 0.42783(14)
C46_4 C 0.68249(15) 0.29777(17) 0.42783(14)
C47_4 C 0.57217(14) 0.31751(15) 0.29777(17)
H14_4 H 0.8014 0.5632 0.1995
H15_2 H 0.8005 0.5632 0.3014
H16_4 H 0.6986 0.4368 0.3005
H17_3 H 0.6986 0.6995 0.0632
H18_3 H 0.5632 0.6986 0.1995
H19_4 H 0.8005 0.6986 0.0632
H20_4 H 0.9368 0.6995 0.1986
H21_2 H 0.9368 0.6986 0.3005
H22_2 H 0.8014 0.6995 0.4368
H23_4 H 0.6995 0.3014 0.4368
H24_4 H 0.5632 0.3005 0.3014
C48_3 C 0.68552(15) 0.67332(13) 0.09375(13)
C49_3 C 0.59375(13) 0.68552(15) 0.17332(13)
C50_4 C 0.81448(15) 0.59375(13) 0.17332(13)
C51_2 C 0.82668(13) 0.59375(13) 0.31448(15)
C52_4 C 0.68552(15) 0.40625(13) 0.32668(13)
C53_4 C 0.82668(13) 0.68552(15) 0.09375(13)
C54_4 C 0.90625(13) 0.67332(13) 0.18552(15)
C55_2 C 0.90625(13) 0.68552(15) 0.32668(13)
C56_2 C 0.81448(15) 0.67332(13) 0.40625(13)
C57_4 C 0.67332(13) 0.31448(15) 0.40625(13)
C58_4 C 0.59375(13) 0.32668(13) 0.31448(15)
C59_3 C 0.69134(14) 0.64925(12) 0.10795(13)
C60_3 C 0.60795(13) 0.69134(14) 0.14925(12)
C61_4 C 0.80866(14) 0.60795(13) 0.14925(12)
C62_2 C 0.85075(12) 0.60795(13) 0.30866(14)
C63_4 C 0.69134(14) 0.39205(13) 0.35075(12)
C64_4 C 0.89205(13) 0.64925(12) 0.19134(14)
C65_2 C 0.80866(14) 0.64925(12) 0.39205(13)
C66_4 C 0.60795(13) 0.35075(12) 0.30866(14)
C67_4 C 0.85075(12) 0.69134(14) 0.10795(13)
C68_2 C 0.89205(13) 0.69134(14) 0.35075(12)
C69_4 C 0.64925(12) 0.30866(14) 0.39205(13)
C70_3 C 0.71317(15) 0.63331(13) 0.09898(14)
C71_3 C 0.59898(14) 0.71317(15) 0.13331(13)
C72_4 C 0.78683(15) 0.59898(14) 0.13331(13)
C73_2 C 0.86669(13) 0.59898(14) 0.28683(15)
C74_4 C 0.71317(15) 0.40102(14) 0.36669(13)
C75_4 C 0.90102(14) 0.63331(13) 0.21317(15)
C76_2 C 0.78683(15) 0.63331(13) 0.40102(14)
C77_4 C 0.59898(14) 0.36669(13) 0.28683(15)
C78_4 C 0.86669(13) 0.71317(15) 0.09898(14)
C79_2 C 0.90102(14) 0.71317(15) 0.36669(13)
C80_4 C 0.63331(13) 0.28683(15) 0.40102(14)
H25_3 H 0.7170 0.6163 0.1078
H26_3 H 0.6078 0.7170 0.1163
H27_4 H 0.7830 0.6078 0.1163
H28_2 H 0.8837 0.6078 0.2830
H29_4 H 0.7170 0.3922 0.3837
H30_4 H 0.8922 0.6163 0.2170
H31_2 H 0.7830 0.6163 0.3922
H32_4 H 0.6078 0.3837 0.2830
H33_4 H 0.8837 0.7170 0.1078
H34_2 H 0.8922 0.7170 0.3837
H35_4 H 0.6163 0.2830 0.3922
C81_4 C 0.77067(16) 0.57752(13) 0.14185(14)
C82_2 C 0.85815(14) 0.57752(13) 0.27067(16)
C83_4 C 0.72933(16) 0.42248(13) 0.35815(14)
C84_3 C 0.72933(16) 0.64185(14) 0.07752(13)
C85_3 C 0.57752(13) 0.72933(16) 0.14185(14)
C86_4 C 0.92248(13) 0.64185(14) 0.22933(16)
C87_2 C 0.77067(16) 0.64185(14) 0.42248(13)
C88_4 C 0.57752(13) 0.35815(14) 0.27067(16)
C89_4 C 0.85815(14) 0.72933(16) 0.07752(13)
C90_2 C 0.92248(13) 0.72933(16) 0.35815(14)
C91_4 C 0.64185(14) 0.27067(16) 0.42248(13)
H36_4 H 0.7557 0.5718 0.1307
H37_2 H 0.8693 0.5718 0.2557
H38_4 H 0.7443 0.4282 0.3693
H39_3 H 0.7443 0.6307 0.0718
H40_3 H 0.5718 0.7443 0.1307
H41_4 H 0.9282 0.6307 0.2443
H42_2 H 0.7557 0.6307 0.4282
H43_4 H 0.5718 0.3693 0.2557
H44_4 H 0.8693 0.7443 0.0718
H45_2 H 0.9282 0.7443 0.3693
H46_4 H 0.6307 0.2557 0.4282
C92_3 C 0.60416(15) 0.66011(15) 0.18724(14)
C93_3 C 0.66011(15) 0.68724(14) 0.10416(15)
C94_4 C 0.83989(15) 0.60416(15) 0.18724(14)
C95_2 C 0.81276(14) 0.60416(15) 0.33989(15)
C96_4 C 0.66011(15) 0.39584(15) 0.31276(14)
C97_4 C 0.81276(14) 0.66011(15) 0.10416(15)
C98_2 C 0.89584(15) 0.66011(15) 0.31276(14)
C99_4 C 0.68724(14) 0.33989(15) 0.39584(15)
C100_4 C 0.89584(15) 0.68724(14) 0.16011(15)
C101_2 C 0.83989(15) 0.68724(14) 0.39584(15)
C102_4 C 0.60416(15) 0.31276(14) 0.33989(15)
C103_3 C 0.62787(13) 0.65211(14) 0.16844(13)
C104_3 C 0.65211(14) 0.66844(13) 0.12787(13)
C105_4 C 0.84789(14) 0.62787(13) 0.16844(13)
C106_2 C 0.83156(13) 0.62787(13) 0.34789(14)
C107_4 C 0.65211(14) 0.37213(13) 0.33156(13)
C108_4 C 0.83156(13) 0.65211(14) 0.12787(13)
C109_2 C 0.87213(13) 0.65211(14) 0.33156(13)
C110_4 C 0.66844(13) 0.34789(14) 0.37213(13)
C111_4 C 0.87213(13) 0.66844(13) 0.15211(14)
C112_2 C 0.84789(14) 0.66844(13) 0.37213(13)
C113_4 C 0.62787(13) 0.33156(13) 0.34789(14)
C114_3 C 0.67073(12) 0.64664(13) 0.13024(12)
C115_3 C 0.63024(12) 0.67073(12) 0.14664(13)
C116_4 C 0.82927(12) 0.63024(12) 0.14664(13)
C117_2 C 0.85336(13) 0.63024(12) 0.32927(12)
C118_4 C 0.67073(12) 0.36976(12) 0.35336(13)
C119_4 C 0.86976(12) 0.64664(13) 0.17073(12)
C120_2 C 0.82927(12) 0.64664(13) 0.36976(12)
C121_4 C 0.63024(12) 0.35336(13) 0.32927(12)
C122_4 C 0.85336(13) 0.67073(12) 0.13024(12)
C123_2 C 0.86976(12) 0.67073(12) 0.35336(13)
C124_4 C 0.64664(13) 0.32927(12) 0.36976(12)
C125_3 C 0.61397(19) 0.66710(18) 0.21593(18)
C126_3 C 0.66710(18) 0.71593(18) 0.11397(19)
C127_4 C 0.83290(18) 0.61397(19) 0.21593(18)
C128_2 C 0.78407(18) 0.61397(19) 0.33290(18)
C129_4 C 0.66710(18) 0.38603(19) 0.28407(18)
C130_4 C 0.78407(18) 0.66710(18) 0.11397(19)
C131_2 C 0.88603(19) 0.66710(18) 0.28407(18)
C132_4 C 0.71593(18) 0.33290(18) 0.38603(19)
C133_4 C 0.88603(19) 0.71593(18) 0.16710(18)
C134_2 C 0.83290(18) 0.71593(18) 0.38603(19)
C135_4 C 0.61397(19) 0.28407(18) 0.33290(18)
H47_3 H 0.6195 0.6499 0.2252
H48_3 H 0.6499 0.7252 0.1195
H49_4 H 0.8501 0.6195 0.2252
H50_2 H 0.7748 0.6195 0.3501
H51_4 H 0.6499 0.3805 0.2748
H52_4 H 0.7748 0.6499 0.1195
H53_2 H 0.8805 0.6499 0.2748
H54_4 H 0.7252 0.3501 0.3805
H55_4 H 0.8805 0.7252 0.1499
H56_2 H 0.8501 0.7252 0.3805
H57_4 H 0.6195 0.2748 0.3501
H58_3 H 0.5984 0.6749 0.2263
H59_3 H 0.6749 0.7263 0.0984
H60_4 H 0.8251 0.5984 0.2263
H61_2 H 0.7737 0.5984 0.3251
H62_4 H 0.6749 0.4016 0.2737
H63_4 H 0.7737 0.6749 0.0984
H64_2 H 0.9016 0.6749 0.2737
H65_4 H 0.7263 0.3251 0.4016
H66_4 H 0.9016 0.7263 0.1749
H67_2 H 0.8251 0.7263 0.4016
H68_4 H 0.5984 0.2737 0.3251
C136_3 C 0.6386(2) 0.6878(2) 0.2174(3)
C137_3 C 0.6878(2) 0.7174(3) 0.1386(2)
C138_4 C 0.8122(2) 0.6386(2) 0.2174(3)
C139_2 C 0.7826(3) 0.6386(2) 0.3122(2)
C140_4 C 0.6878(2) 0.3614(2) 0.2826(3)
C141_4 C 0.7826(3) 0.6878(2) 0.1386(2)
C142_2 C 0.8614(2) 0.6878(2) 0.2826(3)
C143_4 C 0.7174(3) 0.3122(2) 0.3614(2)
C144_4 C 0.8614(2) 0.7174(3) 0.1878(2)
C145_2 C 0.8122(2) 0.7174(3) 0.3614(2)
C146_4 C 0.6386(2) 0.2826(3) 0.3122(2)
H69_3 H 0.6540 0.6806 0.2066
H70_3 H 0.6806 0.7066 0.1540
H71_4 H 0.8194 0.6540 0.2066
H72_2 H 0.7934 0.6540 0.3194
H73_4 H 0.6806 0.3460 0.2934
H74_4 H 0.7934 0.6806 0.1540
H75_2 H 0.8460 0.6806 0.2934
H76_4 H 0.7066 0.3194 0.3460
H77_4 H 0.8460 0.7066 0.1806
H78_2 H 0.8194 0.7066 0.3460
H79_4 H 0.6540 0.2934 0.3194
H80_3 H 0.6443 0.6900 0.2366
H81_3 H 0.6900 0.7366 0.1443
H82_4 H 0.8100 0.6443 0.2366
H83_2 H 0.7634 0.6443 0.3100
H84_4 H 0.6900 0.3557 0.2634
H85_4 H 0.7634 0.6900 0.1443
H86_2 H 0.8557 0.6900 0.2634
H87_4 H 0.7366 0.3100 0.3557
H88_4 H 0.8557 0.7366 0.1900
H89_2 H 0.8100 0.7366 0.3557
H90_4 H 0.6443 0.2634 0.3100
H91_3 H 0.6328 0.7056 0.2100
H92_3 H 0.7056 0.7100 0.1328
H93_4 H 0.7944 0.6328 0.2100
H94_2 H 0.7900 0.6328 0.2944
H95_4 H 0.7056 0.3672 0.2900
H96_4 H 0.7900 0.7056 0.1328
H97_2 H 0.8672 0.7056 0.2900
H98_4 H 0.7100 0.2944 0.3672
H99_4 H 0.8672 0.7100 0.2056
H100_2 H 0.7944 0.7100 0.3672
H101_4 H 0.6328 0.2900 0.2944
C147_3 C 0.58020(17) 0.6382(2) 0.18670(18)
C148_3 C 0.6382(2) 0.68670(18) 0.08020(17)
C149_4 C 0.8618(2) 0.58020(17) 0.18670(18)
C150_2 C 0.81330(18) 0.58020(17) 0.3618(2)
C151_4 C 0.6382(2) 0.41980(17) 0.31330(18)
C152_4 C 0.81330(18) 0.6382(2) 0.08020(17)
C153_2 C 0.91980(17) 0.6382(2) 0.31330(18)
C154_4 C 0.68670(18) 0.3618(2) 0.41980(17)
C155_4 C 0.91980(17) 0.68670(18) 0.1382(2)
C156_2 C 0.8618(2) 0.68670(18) 0.41980(17)
C157_4 C 0.58020(17) 0.31330(18) 0.3618(2)
H102_3 H 0.5866 0.6213 0.1959
H103_3 H 0.6213 0.6959 0.0866
H104_4 H 0.8787 0.5866 0.1959
H105_2 H 0.8041 0.5866 0.3787
H106_4 H 0.6213 0.4134 0.3041
H107_4 H 0.8041 0.6213 0.0866
H108_2 H 0.9134 0.6213 0.3041
H109_4 H 0.6959 0.3787 0.4134
H110_4 H 0.9134 0.6959 0.1213
H111_2 H 0.8787 0.6959 0.4134
H112_4 H 0.5866 0.3041 0.3787
H113_3 H 0.5645 0.6454 0.1973
H114_3 H 0.6454 0.6973 0.0645
H115_4 H 0.8546 0.5645 0.1973
H116_2 H 0.8027 0.5645 0.3546
H117_4 H 0.6454 0.4355 0.3027
H118_4 H 0.8027 0.6454 0.0645
H119_2 H 0.9355 0.6454 0.3027
H120_4 H 0.6973 0.3546 0.4355
H121_4 H 0.9355 0.6973 0.1454
H122_2 H 0.8546 0.6973 0.4355
H123_4 H 0.5645 0.3027 0.3546
C158_3 C 0.5700(2) 0.6306(2) 0.1569(2)
C159_3 C 0.6306(2) 0.6569(2) 0.0700(2)
C160_4 C 0.8694(2) 0.5700(2) 0.1569(2)
C161_2 C 0.8431(2) 0.5700(2) 0.3694(2)
C162_4 C 0.6306(2) 0.4300(2) 0.3431(2)
C163_4 C 0.8431(2) 0.6306(2) 0.0700(2)
C164_2 C 0.9300(2) 0.6306(2) 0.3431(2)
C165_4 C 0.6569(2) 0.3694(2) 0.4300(2)
C166_4 C 0.9300(2) 0.6569(2) 0.1306(2)
C167_2 C 0.8694(2) 0.6569(2) 0.4300(2)
C168_4 C 0.5700(2) 0.3431(2) 0.3694(2)
H124_3 H 0.5629 0.6471 0.1479
H125_3 H 0.6471 0.6479 0.0629
H126_4 H 0.8529 0.5629 0.1479
H127_2 H 0.8521 0.5629 0.3529
H128_4 H 0.6471 0.4371 0.3521
H129_4 H 0.8521 0.6471 0.0629
H130_2 H 0.9371 0.6471 0.3521
H131_4 H 0.6479 0.3529 0.4371
H132_4 H 0.9371 0.6479 0.1471
H133_2 H 0.8529 0.6479 0.4371
H134_4 H 0.5629 0.3521 0.3529
H135_3 H 0.5555 0.6167 0.1581
H136_3 H 0.6167 0.6581 0.0555
H137_4 H 0.8833 0.5555 0.1581
H138_2 H 0.8419 0.5555 0.3833
H139_4 H 0.6167 0.4445 0.3419
H140_4 H 0.8419 0.6167 0.0555
H141_2 H 0.9445 0.6167 0.3419
H142_4 H 0.6581 0.3833 0.4445
H143_4 H 0.9445 0.6581 0.1167
H144_2 H 0.8833 0.6581 0.4445
H145_4 H 0.5555 0.3419 0.3833
H146_3 H 0.5854 0.6233 0.1463
H147_3 H 0.6233 0.6463 0.0854
H148_4 H 0.8767 0.5854 0.1463
H149_2 H 0.8537 0.5854 0.3767
H150_4 H 0.6233 0.4146 0.3537
H151_4 H 0.8537 0.6233 0.0854
H152_2 H 0.9146 0.6233 0.3537
H153_4 H 0.6463 0.3767 0.4146
H154_4 H 0.9146 0.6463 0.1233
H155_2 H 0.8767 0.6463 0.4146
H156_4 H 0.5854 0.3537 0.3767
Cd5_4 Cd 0.77519(4) 0.69897(15) 1.0000
Cd6_4 Cd 0.69897(15) 0.72481(4) 1.0000
Cd9_5 Cd 0.80103(15) 0.77519(4) 1.0000
Cd10_4 Cd 0.0000 0.30103(15) 0.72481(4)
Cd12_4 Cd 0.0000 0.22481(4) 0.69897(15)
Cd5_5 Cd 0.77519(4) 0.30103(15) 0.0000
Cd6_5 Cd 0.69897(15) 0.27519(4) 0.0000
Cd1_6 Cd 0.69897(15) 0.5000 0.72481(4)
O2_4 O 0.66144(13) 0.46537(11) 0.73731(14)
O3_4 O 0.69896(12) 0.46916(11) 0.76094(15)
O4_8 O 0.7500 0.5000 0.7500
C1_4 C 0.67506(16) 0.45801(13) 0.75733(17)
C2_4 C 0.66602(12) 0.43591(13) 0.77554(18)
C3_4 C 0.68249(15) 0.42783(14) 0.79777(17)
H1_4 H 0.6995 0.4368 0.8014
C4_4 C 0.67332(13) 0.40625(13) 0.81448(15)
C5_4 C 0.64925(12) 0.39205(13) 0.80866(14)
C6_4 C 0.63331(13) 0.40102(14) 0.78683(15)
H2_4 H 0.6163 0.3922 0.7830
C7_4 C 0.64185(14) 0.42248(13) 0.77067(16)
H3_4 H 0.6307 0.4282 0.7557
C8_4 C 0.68724(14) 0.39584(15) 0.83989(15)
C9_4 C 0.66844(13) 0.37213(13) 0.84789(14)
C10_4 C 0.64664(13) 0.36976(12) 0.82927(12)
C11_4 C 0.71593(18) 0.38603(19) 0.83290(18)
H4_4 H 0.7252 0.3805 0.8501
H5_4 H 0.7263 0.4016 0.8251
C12_4 C 0.7174(3) 0.3614(2) 0.8122(2)
H6_4 H 0.7066 0.3460 0.8194
H7_4 H 0.7366 0.3557 0.8100
H8_4 H 0.7100 0.3672 0.7944
C13_4 C 0.68670(18) 0.41980(17) 0.8618(2)
H9_4 H 0.6959 0.4134 0.8787
H10_4 H 0.6973 0.4355 0.8546
C14_4 C 0.6569(2) 0.4300(2) 0.8694(2)
H11_4 H 0.6479 0.4371 0.8529
H12_4 H 0.6581 0.4445 0.8833
H13_4 H 0.6463 0.4146 0.8767
Cd2_4 Cd 0.77519(4) 0.5000 0.69897(15)
Cd3_6 Cd 0.72481(4) 0.5000 0.80103(15)
Cd4_4 Cd 0.80103(15) 0.5000 0.77519(4)
Cd5_6 Cd 0.77519(4) 0.30103(15) 1.0000
Cd6_6 Cd 0.69897(15) 0.27519(4) 1.0000
Cd7_6 Cd 0.5000 0.22481(4) 0.80103(15)
Cd8_6 Cd 0.5000 0.30103(15) 0.77519(4)
Cd10_5 Cd 1.0000 0.30103(15) 0.72481(4)
Cd12_5 Cd 1.0000 0.22481(4) 0.69897(15)
Cd14_4 Cd 0.80103(15) 0.27519(4) 0.5000
Cd15_8 Cd 0.69897(15) 0.77519(4) 0.5000
Cd17_7 Cd 0.5000 0.69897(15) 0.77519(4)
Cd18_7 Cd 0.5000 0.72481(4) 0.69897(15)
O5_5 O 0.66144(13) 0.53463(11) 0.73731(14)
O6_5 O 0.83856(13) 0.53463(11) 0.76269(14)
O7_3 O 0.83856(13) 0.46537(11) 0.76269(14)
O8_5 O 0.73731(14) 0.46537(11) 0.83856(13)
O9_5 O 0.73731(14) 0.53463(11) 0.83856(13)
O10_5 O 0.76269(14) 0.46537(11) 0.66144(13)
O11_5 O 0.76269(14) 0.53463(11) 0.66144(13)
O12_4 O 0.76269(14) 0.33856(13) 0.96537(11)
O13_4 O 0.53463(11) 0.23731(14) 0.83856(13)
O14_5 O 0.83856(13) 0.23731(14) 0.96537(11)
O15_5 O 0.96537(11) 0.33856(13) 0.73731(14)
O16_3 O 0.96537(11) 0.23731(14) 0.66144(13)
O17_3 O 0.73731(14) 0.33856(13) 0.53463(11)
O18_5 O 0.66144(13) 0.76269(14) 0.53463(11)
O19_5 O 0.53463(11) 0.66144(13) 0.76269(14)
O20_5 O 0.73906(15) 0.46916(11) 0.69896(12)
O21_5 O 0.73906(15) 0.53084(11) 0.69896(12)
O22_5 O 0.69896(12) 0.53084(11) 0.76094(15)
O23_3 O 0.80104(12) 0.46916(11) 0.73906(15)
O24_5 O 0.76094(15) 0.53084(11) 0.80104(12)
O25_5 O 0.80104(12) 0.53084(11) 0.73906(15)
O26_5 O 0.76094(15) 0.46916(11) 0.80104(12)
O27_4 O 0.73906(15) 0.30104(12) 0.96916(11)
O28_4 O 0.53084(11) 0.26094(15) 0.80104(12)
O29_5 O 0.80104(12) 0.26094(15) 0.96916(11)
O30_5 O 0.96916(11) 0.30104(12) 0.76094(15)
O31_3 O 0.96916(11) 0.26094(15) 0.69896(12)
O32_3 O 0.76094(15) 0.30104(12) 0.53084(11)
O33_5 O 0.69896(12) 0.73906(15) 0.53084(11)
O34_5 O 0.53084(11) 0.69896(12) 0.73906(15)
C15_5 C 0.75733(17) 0.45801(13) 0.82494(16)
C16_3 C 0.82494(16) 0.45801(13) 0.74267(17)
C17_5 C 0.74267(17) 0.54199(13) 0.67506(16)
C18_4 C 0.74267(17) 0.32494(16) 0.95801(13)
C19_4 C 0.54199(13) 0.25733(17) 0.82494(16)
C20_5 C 0.82494(16) 0.25733(17) 0.95801(13)
C21_5 C 0.95801(13) 0.32494(16) 0.75733(17)
C22_3 C 0.95801(13) 0.25733(17) 0.67506(16)
C23_3 C 0.75733(17) 0.32494(16) 0.54199(13)
C24_5 C 0.67506(16) 0.74267(17) 0.54199(13)
C25_5 C 0.54199(13) 0.67506(16) 0.74267(17)
C26_5 C 0.77554(18) 0.43591(13) 0.83398(12)
C27_3 C 0.83398(12) 0.43591(13) 0.72446(18)
C28_5 C 0.72446(18) 0.56409(13) 0.66602(12)
C29_4 C 0.72446(18) 0.33398(12) 0.93591(13)
C30_4 C 0.56409(13) 0.27554(18) 0.83398(12)
C31_5 C 0.83398(12) 0.27554(18) 0.93591(13)
C32_5 C 0.93591(13) 0.33398(12) 0.77554(18)
C33_3 C 0.93591(13) 0.27554(18) 0.66602(12)
C34_3 C 0.77554(18) 0.33398(12) 0.56409(13)
C35_5 C 0.66602(12) 0.72446(18) 0.56409(13)
C36_5 C 0.56409(13) 0.66602(12) 0.72446(18)
C37_5 C 0.79777(17) 0.42783(14) 0.81751(15)
C38_3 C 0.81751(15) 0.42783(14) 0.70223(17)
C39_5 C 0.70223(17) 0.57217(14) 0.68249(15)
C40_4 C 0.70223(17) 0.31751(15) 0.92783(14)
C41_4 C 0.57217(14) 0.29777(17) 0.81751(15)
C42_5 C 0.81751(15) 0.29777(17) 0.92783(14)
C43_5 C 0.92783(14) 0.31751(15) 0.79777(17)
C44_3 C 0.92783(14) 0.29777(17) 0.68249(15)
C45_3 C 0.79777(17) 0.31751(15) 0.57217(14)
C46_5 C 0.68249(15) 0.70223(17) 0.57217(14)
C47_5 C 0.57217(14) 0.68249(15) 0.70223(17)
H14_5 H 0.8014 0.4368 0.8005
H15_3 H 0.8005 0.4368 0.6986
H16_5 H 0.6986 0.5632 0.6995
H17_4 H 0.6986 0.3005 0.9368
H18_4 H 0.5632 0.3014 0.8005
H19_5 H 0.8005 0.3014 0.9368
H20_5 H 0.9368 0.3005 0.8014
H21_3 H 0.9368 0.3014 0.6995
H22_3 H 0.8014 0.3005 0.5632
H23_5 H 0.6995 0.6986 0.5632
H24_5 H 0.5632 0.6995 0.6986
C48_4 C 0.68552(15) 0.32668(13) 0.90625(13)
C49_4 C 0.59375(13) 0.31448(15) 0.82668(13)
C50_5 C 0.81448(15) 0.40625(13) 0.82668(13)
C51_3 C 0.82668(13) 0.40625(13) 0.68552(15)
C52_5 C 0.68552(15) 0.59375(13) 0.67332(13)
C53_5 C 0.82668(13) 0.31448(15) 0.90625(13)
C54_5 C 0.90625(13) 0.32668(13) 0.81448(15)
C55_3 C 0.90625(13) 0.31448(15) 0.67332(13)
C56_3 C 0.81448(15) 0.32668(13) 0.59375(13)
C57_5 C 0.67332(13) 0.68552(15) 0.59375(13)
C58_5 C 0.59375(13) 0.67332(13) 0.68552(15)
C59_4 C 0.69134(14) 0.35075(12) 0.89205(13)
C60_4 C 0.60795(13) 0.30866(14) 0.85075(12)
C61_5 C 0.80866(14) 0.39205(13) 0.85075(12)
C62_3 C 0.85075(12) 0.39205(13) 0.69134(14)
C63_5 C 0.69134(14) 0.60795(13) 0.64925(12)
C64_5 C 0.89205(13) 0.35075(12) 0.80866(14)
C65_3 C 0.80866(14) 0.35075(12) 0.60795(13)
C66_5 C 0.60795(13) 0.64925(12) 0.69134(14)
C67_5 C 0.85075(12) 0.30866(14) 0.89205(13)
C68_3 C 0.89205(13) 0.30866(14) 0.64925(12)
C69_5 C 0.64925(12) 0.69134(14) 0.60795(13)
C70_4 C 0.71317(15) 0.36669(13) 0.90102(14)
C71_4 C 0.59898(14) 0.28683(15) 0.86669(13)
C72_5 C 0.78683(15) 0.40102(14) 0.86669(13)
C73_3 C 0.86669(13) 0.40102(14) 0.71317(15)
C74_5 C 0.71317(15) 0.59898(14) 0.63331(13)
C75_5 C 0.90102(14) 0.36669(13) 0.78683(15)
C76_3 C 0.78683(15) 0.36669(13) 0.59898(14)
C77_5 C 0.59898(14) 0.63331(13) 0.71317(15)
C78_5 C 0.86669(13) 0.28683(15) 0.90102(14)
C79_3 C 0.90102(14) 0.28683(15) 0.63331(13)
C80_5 C 0.63331(13) 0.71317(15) 0.59898(14)
H25_4 H 0.7170 0.3837 0.8922
H26_4 H 0.6078 0.2830 0.8837
H27_5 H 0.7830 0.3922 0.8837
H28_3 H 0.8837 0.3922 0.7170
H29_5 H 0.7170 0.6078 0.6163
H30_5 H 0.8922 0.3837 0.7830
H31_3 H 0.7830 0.3837 0.6078
H32_5 H 0.6078 0.6163 0.7170
H33_5 H 0.8837 0.2830 0.8922
H34_3 H 0.8922 0.2830 0.6163
H35_5 H 0.6163 0.7170 0.6078
C81_5 C 0.77067(16) 0.42248(13) 0.85815(14)
C82_3 C 0.85815(14) 0.42248(13) 0.72933(16)
C83_5 C 0.72933(16) 0.57752(13) 0.64185(14)
C84_4 C 0.72933(16) 0.35815(14) 0.92248(13)
C85_4 C 0.57752(13) 0.27067(16) 0.85815(14)
C86_5 C 0.92248(13) 0.35815(14) 0.77067(16)
C87_3 C 0.77067(16) 0.35815(14) 0.57752(13)
C88_5 C 0.57752(13) 0.64185(14) 0.72933(16)
C89_5 C 0.85815(14) 0.27067(16) 0.92248(13)
C90_3 C 0.92248(13) 0.27067(16) 0.64185(14)
C91_5 C 0.64185(14) 0.72933(16) 0.57752(13)
H36_5 H 0.7557 0.4282 0.8693
H37_3 H 0.8693 0.4282 0.7443
H38_5 H 0.7443 0.5718 0.6307
H39_4 H 0.7443 0.3693 0.9282
H40_4 H 0.5718 0.2557 0.8693
H41_5 H 0.9282 0.3693 0.7557
H42_3 H 0.7557 0.3693 0.5718
H43_5 H 0.5718 0.6307 0.7443
H44_5 H 0.8693 0.2557 0.9282
H45_3 H 0.9282 0.2557 0.6307
H46_5 H 0.6307 0.7443 0.5718
C92_4 C 0.60416(15) 0.33989(15) 0.81276(14)
C93_4 C 0.66011(15) 0.31276(14) 0.89584(15)
C94_5 C 0.83989(15) 0.39584(15) 0.81276(14)
C95_3 C 0.81276(14) 0.39584(15) 0.66011(15)
C96_5 C 0.66011(15) 0.60416(15) 0.68724(14)
C97_5 C 0.81276(14) 0.33989(15) 0.89584(15)
C98_3 C 0.89584(15) 0.33989(15) 0.68724(14)
C99_5 C 0.68724(14) 0.66011(15) 0.60416(15)
C100_5 C 0.89584(15) 0.31276(14) 0.83989(15)
C101_3 C 0.83989(15) 0.31276(14) 0.60416(15)
C102_5 C 0.60416(15) 0.68724(14) 0.66011(15)
C103_4 C 0.62787(13) 0.34789(14) 0.83156(13)
C104_4 C 0.65211(14) 0.33156(13) 0.87213(13)
C105_5 C 0.84789(14) 0.37213(13) 0.83156(13)
C106_3 C 0.83156(13) 0.37213(13) 0.65211(14)
C107_5 C 0.65211(14) 0.62787(13) 0.66844(13)
C108_5 C 0.83156(13) 0.34789(14) 0.87213(13)
C109_3 C 0.87213(13) 0.34789(14) 0.66844(13)
C110_5 C 0.66844(13) 0.65211(14) 0.62787(13)
C111_5 C 0.87213(13) 0.33156(13) 0.84789(14)
C112_3 C 0.84789(14) 0.33156(13) 0.62787(13)
C113_5 C 0.62787(13) 0.66844(13) 0.65211(14)
C114_4 C 0.67073(12) 0.35336(13) 0.86976(12)
C115_4 C 0.63024(12) 0.32927(12) 0.85336(13)
C116_5 C 0.82927(12) 0.36976(12) 0.85336(13)
C117_3 C 0.85336(13) 0.36976(12) 0.67073(12)
C118_5 C 0.67073(12) 0.63024(12) 0.64664(13)
C119_5 C 0.86976(12) 0.35336(13) 0.82927(12)
C120_3 C 0.82927(12) 0.35336(13) 0.63024(12)
C121_5 C 0.63024(12) 0.64664(13) 0.67073(12)
C122_5 C 0.85336(13) 0.32927(12) 0.86976(12)
C123_3 C 0.86976(12) 0.32927(12) 0.64664(13)
C124_5 C 0.64664(13) 0.67073(12) 0.63024(12)
C125_4 C 0.61397(19) 0.33290(18) 0.78407(18)
C126_4 C 0.66710(18) 0.28407(18) 0.88603(19)
C127_5 C 0.83290(18) 0.38603(19) 0.78407(18)
C128_3 C 0.78407(18) 0.38603(19) 0.66710(18)
C129_5 C 0.66710(18) 0.61397(19) 0.71593(18)
C130_5 C 0.78407(18) 0.33290(18) 0.88603(19)
C131_3 C 0.88603(19) 0.33290(18) 0.71593(18)
C132_5 C 0.71593(18) 0.66710(18) 0.61397(19)
C133_5 C 0.88603(19) 0.28407(18) 0.83290(18)
C134_3 C 0.83290(18) 0.28407(18) 0.61397(19)
C135_5 C 0.61397(19) 0.71593(18) 0.66710(18)
H47_4 H 0.6195 0.3501 0.7748
H48_4 H 0.6499 0.2748 0.8805
H49_5 H 0.8501 0.3805 0.7748
H50_3 H 0.7748 0.3805 0.6499
H51_5 H 0.6499 0.6195 0.7252
H52_5 H 0.7748 0.3501 0.8805
H53_3 H 0.8805 0.3501 0.7252
H54_5 H 0.7252 0.6499 0.6195
H55_5 H 0.8805 0.2748 0.8501
H56_3 H 0.8501 0.2748 0.6195
H57_5 H 0.6195 0.7252 0.6499
H58_4 H 0.5984 0.3251 0.7737
H59_4 H 0.6749 0.2737 0.9016
H60_5 H 0.8251 0.4016 0.7737
H61_3 H 0.7737 0.4016 0.6749
H62_5 H 0.6749 0.5984 0.7263
H63_5 H 0.7737 0.3251 0.9016
H64_3 H 0.9016 0.3251 0.7263
H65_5 H 0.7263 0.6749 0.5984
H66_5 H 0.9016 0.2737 0.8251
H67_3 H 0.8251 0.2737 0.5984
H68_5 H 0.5984 0.7263 0.6749
C136_4 C 0.6386(2) 0.3122(2) 0.7826(3)
C137_4 C 0.6878(2) 0.2826(3) 0.8614(2)
C138_5 C 0.8122(2) 0.3614(2) 0.7826(3)
C139_3 C 0.7826(3) 0.3614(2) 0.6878(2)
C140_5 C 0.6878(2) 0.6386(2) 0.7174(3)
C141_5 C 0.7826(3) 0.3122(2) 0.8614(2)
C142_3 C 0.8614(2) 0.3122(2) 0.7174(3)
C143_5 C 0.7174(3) 0.6878(2) 0.6386(2)
C144_5 C 0.8614(2) 0.2826(3) 0.8122(2)
C145_3 C 0.8122(2) 0.2826(3) 0.6386(2)
C146_5 C 0.6386(2) 0.7174(3) 0.6878(2)
H69_4 H 0.6540 0.3194 0.7934
H70_4 H 0.6806 0.2934 0.8460
H71_5 H 0.8194 0.3460 0.7934
H72_3 H 0.7934 0.3460 0.6806
H73_5 H 0.6806 0.6540 0.7066
H74_5 H 0.7934 0.3194 0.8460
H75_3 H 0.8460 0.3194 0.7066
H76_5 H 0.7066 0.6806 0.6540
H77_5 H 0.8460 0.2934 0.8194
H78_3 H 0.8194 0.2934 0.6540
H79_5 H 0.6540 0.7066 0.6806
H80_4 H 0.6443 0.3100 0.7634
H81_4 H 0.6900 0.2634 0.8557
H82_5 H 0.8100 0.3557 0.7634
H83_3 H 0.7634 0.3557 0.6900
H84_5 H 0.6900 0.6443 0.7366
H85_5 H 0.7634 0.3100 0.8557
H86_3 H 0.8557 0.3100 0.7366
H87_5 H 0.7366 0.6900 0.6443
H88_5 H 0.8557 0.2634 0.8100
H89_3 H 0.8100 0.2634 0.6443
H90_5 H 0.6443 0.7366 0.6900
H91_4 H 0.6328 0.2944 0.7900
H92_4 H 0.7056 0.2900 0.8672
H93_5 H 0.7944 0.3672 0.7900
H94_3 H 0.7900 0.3672 0.7056
H95_5 H 0.7056 0.6328 0.7100
H96_5 H 0.7900 0.2944 0.8672
H97_3 H 0.8672 0.2944 0.7100
H98_5 H 0.7100 0.7056 0.6328
H99_5 H 0.8672 0.2900 0.7944
H100_3 H 0.7944 0.2900 0.6328
H101_5 H 0.6328 0.7100 0.7056
C147_4 C 0.58020(17) 0.3618(2) 0.81330(18)
C148_4 C 0.6382(2) 0.31330(18) 0.91980(17)
C149_5 C 0.8618(2) 0.41980(17) 0.81330(18)
C150_3 C 0.81330(18) 0.41980(17) 0.6382(2)
C151_5 C 0.6382(2) 0.58020(17) 0.68670(18)
C152_5 C 0.81330(18) 0.3618(2) 0.91980(17)
C153_3 C 0.91980(17) 0.3618(2) 0.68670(18)
C154_5 C 0.68670(18) 0.6382(2) 0.58020(17)
C155_5 C 0.91980(17) 0.31330(18) 0.8618(2)
C156_3 C 0.8618(2) 0.31330(18) 0.58020(17)
C157_5 C 0.58020(17) 0.68670(18) 0.6382(2)
H102_4 H 0.5866 0.3787 0.8041
H103_4 H 0.6213 0.3041 0.9134
H104_5 H 0.8787 0.4134 0.8041
H105_3 H 0.8041 0.4134 0.6213
H106_5 H 0.6213 0.5866 0.6959
H107_5 H 0.8041 0.3787 0.9134
H108_3 H 0.9134 0.3787 0.6959
H109_5 H 0.6959 0.6213 0.5866
H110_5 H 0.9134 0.3041 0.8787
H111_3 H 0.8787 0.3041 0.5866
H112_5 H 0.5866 0.6959 0.6213
H113_4 H 0.5645 0.3546 0.8027
H114_4 H 0.6454 0.3027 0.9355
H115_5 H 0.8546 0.4355 0.8027
H116_3 H 0.8027 0.4355 0.6454
H117_5 H 0.6454 0.5645 0.6973
H118_5 H 0.8027 0.3546 0.9355
H119_3 H 0.9355 0.3546 0.6973
H120_5 H 0.6973 0.6454 0.5645
H121_5 H 0.9355 0.3027 0.8546
H122_3 H 0.8546 0.3027 0.5645
H123_5 H 0.5645 0.6973 0.6454
C158_4 C 0.5700(2) 0.3694(2) 0.8431(2)
C159_4 C 0.6306(2) 0.3431(2) 0.9300(2)
C160_5 C 0.8694(2) 0.4300(2) 0.8431(2)
C161_3 C 0.8431(2) 0.4300(2) 0.6306(2)
C162_5 C 0.6306(2) 0.5700(2) 0.6569(2)
C163_5 C 0.8431(2) 0.3694(2) 0.9300(2)
C164_3 C 0.9300(2) 0.3694(2) 0.6569(2)
C165_5 C 0.6569(2) 0.6306(2) 0.5700(2)
C166_5 C 0.9300(2) 0.3431(2) 0.8694(2)
C167_3 C 0.8694(2) 0.3431(2) 0.5700(2)
C168_5 C 0.5700(2) 0.6569(2) 0.6306(2)
H124_4 H 0.5629 0.3529 0.8521
H125_4 H 0.6471 0.3521 0.9371
H126_5 H 0.8529 0.4371 0.8521
H127_3 H 0.8521 0.4371 0.6471
H128_5 H 0.6471 0.5629 0.6479
H129_5 H 0.8521 0.3529 0.9371
H130_3 H 0.9371 0.3529 0.6479
H131_5 H 0.6479 0.6471 0.5629
H132_5 H 0.9371 0.3521 0.8529
H133_3 H 0.8529 0.3521 0.5629
H134_5 H 0.5629 0.6479 0.6471
H135_4 H 0.5555 0.3833 0.8419
H136_4 H 0.6167 0.3419 0.9445
H137_5 H 0.8833 0.4445 0.8419
H138_3 H 0.8419 0.4445 0.6167
H139_5 H 0.6167 0.5555 0.6581
H140_5 H 0.8419 0.3833 0.9445
H141_3 H 0.9445 0.3833 0.6581
H142_5 H 0.6581 0.6167 0.5555
H143_5 H 0.9445 0.3419 0.8833
H144_3 H 0.8833 0.3419 0.5555
H145_5 H 0.5555 0.6581 0.6167
H146_4 H 0.5854 0.3767 0.8537
H147_4 H 0.6233 0.3537 0.9146
H148_5 H 0.8767 0.4146 0.8537
H149_3 H 0.8537 0.4146 0.6233
H150_5 H 0.6233 0.5854 0.6463
H151_5 H 0.8537 0.3767 0.9146
H152_3 H 0.9146 0.3767 0.6463
H153_5 H 0.6463 0.6233 0.5854
H154_5 H 0.9146 0.3537 0.8767
H155_3 H 0.8767 0.3537 0.5854
H156_5 H 0.5854 0.6463 0.6233
Cd5_7 Cd 0.22481(4) 0.69897(15) 0.0000
Cd6_7 Cd 0.30103(15) 0.72481(4) 0.0000
Cd1_7 Cd 0.30103(15) 0.5000 0.72481(4)
O2_5 O 0.33856(13) 0.53463(11) 0.73731(14)
O3_5 O 0.30104(12) 0.53084(11) 0.76094(15)
O4_9 O 0.2500 0.5000 0.7500
C1_5 C 0.32494(16) 0.54199(13) 0.75733(17)
C2_5 C 0.33398(12) 0.56409(13) 0.77554(18)
C3_5 C 0.31751(15) 0.57217(14) 0.79777(17)
H1_5 H 0.3005 0.5632 0.8014
C4_5 C 0.32668(13) 0.59375(13) 0.81448(15)
C5_5 C 0.35075(12) 0.60795(13) 0.80866(14)
C6_5 C 0.36669(13) 0.59898(14) 0.78683(15)
H2_5 H 0.3837 0.6078 0.7830
C7_5 C 0.35815(14) 0.57752(13) 0.77067(16)
H3_5 H 0.3693 0.5718 0.7557
C8_5 C 0.31276(14) 0.60416(15) 0.83989(15)
C9_5 C 0.33156(13) 0.62787(13) 0.84789(14)
C10_5 C 0.35336(13) 0.63024(12) 0.82927(12)
C11_5 C 0.28407(18) 0.61397(19) 0.83290(18)
H4_5 H 0.2748 0.6195 0.8501
H5_5 H 0.2737 0.5984 0.8251
C12_5 C 0.2826(3) 0.6386(2) 0.8122(2)
H6_5 H 0.2934 0.6540 0.8194
H7_5 H 0.2634 0.6443 0.8100
H8_5 H 0.2900 0.6328 0.7944
C13_5 C 0.31330(18) 0.58020(17) 0.8618(2)
H9_5 H 0.3041 0.5866 0.8787
H10_5 H 0.3027 0.5645 0.8546
C14_5 C 0.3431(2) 0.5700(2) 0.8694(2)
H11_5 H 0.3521 0.5629 0.8529
H12_5 H 0.3419 0.5555 0.8833
H13_5 H 0.3537 0.5854 0.8767
Cd2_5 Cd 0.22481(4) 0.5000 0.69897(15)
Cd3_7 Cd 0.27519(4) 0.5000 0.80103(15)
Cd4_5 Cd 0.19897(15) 0.5000 0.77519(4)
Cd5_8 Cd 0.22481(4) 0.69897(15) 1.0000
Cd6_8 Cd 0.30103(15) 0.72481(4) 1.0000
Cd7_7 Cd 0.5000 0.77519(4) 0.80103(15)
Cd10_6 Cd 0.0000 0.69897(15) 0.72481(4)
Cd11_4 Cd 0.0000 0.72481(4) 0.80103(15)
Cd12_6 Cd 0.0000 0.77519(4) 0.69897(15)
Cd13_4 Cd 0.27519(4) 0.69897(15) 0.5000
Cd14_5 Cd 0.19897(15) 0.72481(4) 0.5000
Cd18_8 Cd 0.5000 0.27519(4) 0.69897(15)
O5_6 O 0.33856(13) 0.46537(11) 0.73731(14)
O6_6 O 0.16144(13) 0.46537(11) 0.76269(14)
O7_4 O 0.16144(13) 0.53463(11) 0.76269(14)
O8_6 O 0.26269(14) 0.53463(11) 0.83856(13)
O9_6 O 0.26269(14) 0.46537(11) 0.83856(13)
O10_6 O 0.23731(14) 0.53463(11) 0.66144(13)
O11_6 O 0.23731(14) 0.46537(11) 0.66144(13)
O12_5 O 0.23731(14) 0.66144(13) 0.96537(11)
O13_5 O 0.46537(11) 0.76269(14) 0.83856(13)
O14_6 O 0.16144(13) 0.76269(14) 0.96537(11)
O15_6 O 0.03463(11) 0.66144(13) 0.73731(14)
O16_4 O 0.03463(11) 0.76269(14) 0.66144(13)
O17_4 O 0.26269(14) 0.66144(13) 0.53463(11)
O18_6 O 0.33856(13) 0.23731(14) 0.53463(11)
O19_6 O 0.46537(11) 0.33856(13) 0.76269(14)
O20_6 O 0.26094(15) 0.53084(11) 0.69896(12)
O21_6 O 0.26094(15) 0.46916(11) 0.69896(12)
O22_6 O 0.30104(12) 0.46916(11) 0.76094(15)
O23_4 O 0.19896(12) 0.53084(11) 0.73906(15)
O24_6 O 0.23906(15) 0.46916(11) 0.80104(12)
O25_6 O 0.19896(12) 0.46916(11) 0.73906(15)
O26_6 O 0.23906(15) 0.53084(11) 0.80104(12)
O27_5 O 0.26094(15) 0.69896(12) 0.96916(11)
O28_5 O 0.46916(11) 0.73906(15) 0.80104(12)
O29_6 O 0.19896(12) 0.73906(15) 0.96916(11)
O30_6 O 0.03084(11) 0.69896(12) 0.76094(15)
O31_4 O 0.03084(11) 0.73906(15) 0.69896(12)
O32_4 O 0.23906(15) 0.69896(12) 0.53084(11)
O33_6 O 0.30104(12) 0.26094(15) 0.53084(11)
O34_6 O 0.46916(11) 0.30104(12) 0.73906(15)
C15_6 C 0.24267(17) 0.54199(13) 0.82494(16)
C16_4 C 0.17506(16) 0.54199(13) 0.74267(17)
C17_6 C 0.25733(17) 0.45801(13) 0.67506(16)
C18_5 C 0.25733(17) 0.67506(16) 0.95801(13)
C19_5 C 0.45801(13) 0.74267(17) 0.82494(16)
C20_6 C 0.17506(16) 0.74267(17) 0.95801(13)
C21_6 C 0.04199(13) 0.67506(16) 0.75733(17)
C22_4 C 0.04199(13) 0.74267(17) 0.67506(16)
C23_4 C 0.24267(17) 0.67506(16) 0.54199(13)
C24_6 C 0.32494(16) 0.25733(17) 0.54199(13)
C25_6 C 0.45801(13) 0.32494(16) 0.74267(17)
C26_6 C 0.22446(18) 0.56409(13) 0.83398(12)
C27_4 C 0.16602(12) 0.56409(13) 0.72446(18)
C28_6 C 0.27554(18) 0.43591(13) 0.66602(12)
C29_5 C 0.27554(18) 0.66602(12) 0.93591(13)
C30_5 C 0.43591(13) 0.72446(18) 0.83398(12)
C31_6 C 0.16602(12) 0.72446(18) 0.93591(13)
C32_6 C 0.06409(13) 0.66602(12) 0.77554(18)
C33_4 C 0.06409(13) 0.72446(18) 0.66602(12)
C34_4 C 0.22446(18) 0.66602(12) 0.56409(13)
C35_6 C 0.33398(12) 0.27554(18) 0.56409(13)
C36_6 C 0.43591(13) 0.33398(12) 0.72446(18)
C37_6 C 0.20223(17) 0.57217(14) 0.81751(15)
C38_4 C 0.18249(15) 0.57217(14) 0.70223(17)
C39_6 C 0.29777(17) 0.42783(14) 0.68249(15)
C40_5 C 0.29777(17) 0.68249(15) 0.92783(14)
C41_5 C 0.42783(14) 0.70223(17) 0.81751(15)
C42_6 C 0.18249(15) 0.70223(17) 0.92783(14)
C43_6 C 0.07217(14) 0.68249(15) 0.79777(17)
C44_4 C 0.07217(14) 0.70223(17) 0.68249(15)
C45_4 C 0.20223(17) 0.68249(15) 0.57217(14)
C46_6 C 0.31751(15) 0.29777(17) 0.57217(14)
C47_6 C 0.42783(14) 0.31751(15) 0.70223(17)
H14_6 H 0.1986 0.5632 0.8005
H15_4 H 0.1995 0.5632 0.6986
H16_6 H 0.3014 0.4368 0.6995
H17_5 H 0.3014 0.6995 0.9368
H18_5 H 0.4368 0.6986 0.8005
H19_6 H 0.1995 0.6986 0.9368
H20_6 H 0.0632 0.6995 0.8014
H21_4 H 0.0632 0.6986 0.6995
H22_4 H 0.1986 0.6995 0.5632
H23_6 H 0.3005 0.3014 0.5632
H24_6 H 0.4368 0.3005 0.6986
C48_5 C 0.31448(15) 0.67332(13) 0.90625(13)
C49_5 C 0.40625(13) 0.68552(15) 0.82668(13)
C50_6 C 0.18552(15) 0.59375(13) 0.82668(13)
C51_4 C 0.17332(13) 0.59375(13) 0.68552(15)
C52_6 C 0.31448(15) 0.40625(13) 0.67332(13)
C53_6 C 0.17332(13) 0.68552(15) 0.90625(13)
C54_6 C 0.09375(13) 0.67332(13) 0.81448(15)
C55_4 C 0.09375(13) 0.68552(15) 0.67332(13)
C56_4 C 0.18552(15) 0.67332(13) 0.59375(13)
C57_6 C 0.32668(13) 0.31448(15) 0.59375(13)
C58_6 C 0.40625(13) 0.32668(13) 0.68552(15)
C59_5 C 0.30866(14) 0.64925(12) 0.89205(13)
C60_5 C 0.39205(13) 0.69134(14) 0.85075(12)
C61_6 C 0.19134(14) 0.60795(13) 0.85075(12)
C62_4 C 0.14925(12) 0.60795(13) 0.69134(14)
C63_6 C 0.30866(14) 0.39205(13) 0.64925(12)
C64_6 C 0.10795(13) 0.64925(12) 0.80866(14)
C65_4 C 0.19134(14) 0.64925(12) 0.60795(13)
C66_6 C 0.39205(13) 0.35075(12) 0.69134(14)
C67_6 C 0.14925(12) 0.69134(14) 0.89205(13)
C68_4 C 0.10795(13) 0.69134(14) 0.64925(12)
C69_6 C 0.35075(12) 0.30866(14) 0.60795(13)
C70_5 C 0.28683(15) 0.63331(13) 0.90102(14)
C71_5 C 0.40102(14) 0.71317(15) 0.86669(13)
C72_6 C 0.21317(15) 0.59898(14) 0.86669(13)
C73_4 C 0.13331(13) 0.59898(14) 0.71317(15)
C74_6 C 0.28683(15) 0.40102(14) 0.63331(13)
C75_6 C 0.09898(14) 0.63331(13) 0.78683(15)
C76_4 C 0.21317(15) 0.63331(13) 0.59898(14)
C77_6 C 0.40102(14) 0.36669(13) 0.71317(15)
C78_6 C 0.13331(13) 0.71317(15) 0.90102(14)
C79_4 C 0.09898(14) 0.71317(15) 0.63331(13)
C80_6 C 0.36669(13) 0.28683(15) 0.59898(14)
H25_5 H 0.2830 0.6163 0.8922
H26_5 H 0.3922 0.7170 0.8837
H27_6 H 0.2170 0.6078 0.8837
H28_4 H 0.1163 0.6078 0.7170
H29_6 H 0.2830 0.3922 0.6163
H30_6 H 0.1078 0.6163 0.7830
H31_4 H 0.2170 0.6163 0.6078
H32_6 H 0.3922 0.3837 0.7170
H33_6 H 0.1163 0.7170 0.8922
H34_4 H 0.1078 0.7170 0.6163
H35_6 H 0.3837 0.2830 0.6078
C81_6 C 0.22933(16) 0.57752(13) 0.85815(14)
C82_4 C 0.14185(14) 0.57752(13) 0.72933(16)
C83_6 C 0.27067(16) 0.42248(13) 0.64185(14)
C84_5 C 0.27067(16) 0.64185(14) 0.92248(13)
C85_5 C 0.42248(13) 0.72933(16) 0.85815(14)
C86_6 C 0.07752(13) 0.64185(14) 0.77067(16)
C87_4 C 0.22933(16) 0.64185(14) 0.57752(13)
C88_6 C 0.42248(13) 0.35815(14) 0.72933(16)
C89_6 C 0.14185(14) 0.72933(16) 0.92248(13)
C90_4 C 0.07752(13) 0.72933(16) 0.64185(14)
C91_6 C 0.35815(14) 0.27067(16) 0.57752(13)
H36_6 H 0.2443 0.5718 0.8693
H37_4 H 0.1307 0.5718 0.7443
H38_6 H 0.2557 0.4282 0.6307
H39_5 H 0.2557 0.6307 0.9282
H40_5 H 0.4282 0.7443 0.8693
H41_6 H 0.0718 0.6307 0.7557
H42_4 H 0.2443 0.6307 0.5718
H43_6 H 0.4282 0.3693 0.7443
H44_6 H 0.1307 0.7443 0.9282
H45_4 H 0.0718 0.7443 0.6307
H46_6 H 0.3693 0.2557 0.5718
C92_5 C 0.39584(15) 0.66011(15) 0.81276(14)
C93_5 C 0.33989(15) 0.68724(14) 0.89584(15)
C94_6 C 0.16011(15) 0.60416(15) 0.81276(14)
C95_4 C 0.18724(14) 0.60416(15) 0.66011(15)
C96_6 C 0.33989(15) 0.39584(15) 0.68724(14)
C97_6 C 0.18724(14) 0.66011(15) 0.89584(15)
C98_4 C 0.10416(15) 0.66011(15) 0.68724(14)
C99_6 C 0.31276(14) 0.33989(15) 0.60416(15)
C100_6 C 0.10416(15) 0.68724(14) 0.83989(15)
C101_4 C 0.16011(15) 0.68724(14) 0.60416(15)
C102_6 C 0.39584(15) 0.31276(14) 0.66011(15)
C103_5 C 0.37213(13) 0.65211(14) 0.83156(13)
C104_5 C 0.34789(14) 0.66844(13) 0.87213(13)
C105_6 C 0.15211(14) 0.62787(13) 0.83156(13)
C106_4 C 0.16844(13) 0.62787(13) 0.65211(14)
C107_6 C 0.34789(14) 0.37213(13) 0.66844(13)
C108_6 C 0.16844(13) 0.65211(14) 0.87213(13)
C109_4 C 0.12787(13) 0.65211(14) 0.66844(13)
C110_6 C 0.33156(13) 0.34789(14) 0.62787(13)
C111_6 C 0.12787(13) 0.66844(13) 0.84789(14)
C112_4 C 0.15211(14) 0.66844(13) 0.62787(13)
C113_6 C 0.37213(13) 0.33156(13) 0.65211(14)
C114_5 C 0.32927(12) 0.64664(13) 0.86976(12)
C115_5 C 0.36976(12) 0.67073(12) 0.85336(13)
C116_6 C 0.17073(12) 0.63024(12) 0.85336(13)
C117_4 C 0.14664(13) 0.63024(12) 0.67073(12)
C118_6 C 0.32927(12) 0.36976(12) 0.64664(13)
C119_6 C 0.13024(12) 0.64664(13) 0.82927(12)
C120_4 C 0.17073(12) 0.64664(13) 0.63024(12)
C121_6 C 0.36976(12) 0.35336(13) 0.67073(12)
C122_6 C 0.14664(13) 0.67073(12) 0.86976(12)
C123_4 C 0.13024(12) 0.67073(12) 0.64664(13)
C124_6 C 0.35336(13) 0.32927(12) 0.63024(12)
C125_5 C 0.38603(19) 0.66710(18) 0.78407(18)
C126_5 C 0.33290(18) 0.71593(18) 0.88603(19)
C127_6 C 0.16710(18) 0.61397(19) 0.78407(18)
C128_4 C 0.21593(18) 0.61397(19) 0.66710(18)
C129_6 C 0.33290(18) 0.38603(19) 0.71593(18)
C130_6 C 0.21593(18) 0.66710(18) 0.88603(19)
C131_4 C 0.11397(19) 0.66710(18) 0.71593(18)
C132_6 C 0.28407(18) 0.33290(18) 0.61397(19)
C133_6 C 0.11397(19) 0.71593(18) 0.83290(18)
C134_4 C 0.16710(18) 0.71593(18) 0.61397(19)
C135_6 C 0.38603(19) 0.28407(18) 0.66710(18)
H47_5 H 0.3805 0.6499 0.7748
H48_5 H 0.3501 0.7252 0.8805
H49_6 H 0.1499 0.6195 0.7748
H50_4 H 0.2252 0.6195 0.6499
H51_6 H 0.3501 0.3805 0.7252
H52_6 H 0.2252 0.6499 0.8805
H53_4 H 0.1195 0.6499 0.7252
H54_6 H 0.2748 0.3501 0.6195
H55_6 H 0.1195 0.7252 0.8501
H56_4 H 0.1499 0.7252 0.6195
H57_6 H 0.3805 0.2748 0.6499
H58_5 H 0.4016 0.6749 0.7737
H59_5 H 0.3251 0.7263 0.9016
H60_6 H 0.1749 0.5984 0.7737
H61_4 H 0.2263 0.5984 0.6749
H62_6 H 0.3251 0.4016 0.7263
H63_6 H 0.2263 0.6749 0.9016
H64_4 H 0.0984 0.6749 0.7263
H65_6 H 0.2737 0.3251 0.5984
H66_6 H 0.0984 0.7263 0.8251
H67_4 H 0.1749 0.7263 0.5984
H68_6 H 0.4016 0.2737 0.6749
C136_5 C 0.3614(2) 0.6878(2) 0.7826(3)
C137_5 C 0.3122(2) 0.7174(3) 0.8614(2)
C138_6 C 0.1878(2) 0.6386(2) 0.7826(3)
C139_4 C 0.2174(3) 0.6386(2) 0.6878(2)
C140_6 C 0.3122(2) 0.3614(2) 0.7174(3)
C141_6 C 0.2174(3) 0.6878(2) 0.8614(2)
C142_4 C 0.1386(2) 0.6878(2) 0.7174(3)
C143_6 C 0.2826(3) 0.3122(2) 0.6386(2)
C144_6 C 0.1386(2) 0.7174(3) 0.8122(2)
C145_4 C 0.1878(2) 0.7174(3) 0.6386(2)
C146_6 C 0.3614(2) 0.2826(3) 0.6878(2)
H69_5 H 0.3460 0.6806 0.7934
H70_5 H 0.3194 0.7066 0.8460
H71_6 H 0.1806 0.6540 0.7934
H72_4 H 0.2066 0.6540 0.6806
H73_6 H 0.3194 0.3460 0.7066
H74_6 H 0.2066 0.6806 0.8460
H75_4 H 0.1540 0.6806 0.7066
H76_6 H 0.2934 0.3194 0.6540
H77_6 H 0.1540 0.7066 0.8194
H78_4 H 0.1806 0.7066 0.6540
H79_6 H 0.3460 0.2934 0.6806
H80_5 H 0.3557 0.6900 0.7634
H81_5 H 0.3100 0.7366 0.8557
H82_6 H 0.1900 0.6443 0.7634
H83_4 H 0.2366 0.6443 0.6900
H84_6 H 0.3100 0.3557 0.7366
H85_6 H 0.2366 0.6900 0.8557
H86_4 H 0.1443 0.6900 0.7366
H87_6 H 0.2634 0.3100 0.6443
H88_6 H 0.1443 0.7366 0.8100
H89_4 H 0.1900 0.7366 0.6443
H90_6 H 0.3557 0.2634 0.6900
H91_5 H 0.3672 0.7056 0.7900
H92_5 H 0.2944 0.7100 0.8672
H93_6 H 0.2056 0.6328 0.7900
H94_4 H 0.2100 0.6328 0.7056
H95_6 H 0.2944 0.3672 0.7100
H96_6 H 0.2100 0.7056 0.8672
H97_4 H 0.1328 0.7056 0.7100
H98_6 H 0.2900 0.2944 0.6328
H99_6 H 0.1328 0.7100 0.7944
H100_4 H 0.2056 0.7100 0.6328
H101_6 H 0.3672 0.2900 0.7056
C147_5 C 0.41980(17) 0.6382(2) 0.81330(18)
C148_5 C 0.3618(2) 0.68670(18) 0.91980(17)
C149_6 C 0.1382(2) 0.58020(17) 0.81330(18)
C150_4 C 0.18670(18) 0.58020(17) 0.6382(2)
C151_6 C 0.3618(2) 0.41980(17) 0.68670(18)
C152_6 C 0.18670(18) 0.6382(2) 0.91980(17)
C153_4 C 0.08020(17) 0.6382(2) 0.68670(18)
C154_6 C 0.31330(18) 0.3618(2) 0.58020(17)
C155_6 C 0.08020(17) 0.68670(18) 0.8618(2)
C156_4 C 0.1382(2) 0.68670(18) 0.58020(17)
C157_6 C 0.41980(17) 0.31330(18) 0.6382(2)
H102_5 H 0.4134 0.6213 0.8041
H103_5 H 0.3787 0.6959 0.9134
H104_6 H 0.1213 0.5866 0.8041
H105_4 H 0.1959 0.5866 0.6213
H106_6 H 0.3787 0.4134 0.6959
H107_6 H 0.1959 0.6213 0.9134
H108_4 H 0.0866 0.6213 0.6959
H109_6 H 0.3041 0.3787 0.5866
H110_6 H 0.0866 0.6959 0.8787
H111_4 H 0.1213 0.6959 0.5866
H112_6 H 0.4134 0.3041 0.6213
H113_5 H 0.4355 0.6454 0.8027
H114_5 H 0.3546 0.6973 0.9355
H115_6 H 0.1454 0.5645 0.8027
H116_4 H 0.1973 0.5645 0.6454
H117_6 H 0.3546 0.4355 0.6973
H118_6 H 0.1973 0.6454 0.9355
H119_4 H 0.0645 0.6454 0.6973
H120_6 H 0.3027 0.3546 0.5645
H121_6 H 0.0645 0.6973 0.8546
H122_4 H 0.1454 0.6973 0.5645
H123_6 H 0.4355 0.3027 0.6454
C158_5 C 0.4300(2) 0.6306(2) 0.8431(2)
C159_5 C 0.3694(2) 0.6569(2) 0.9300(2)
C160_6 C 0.1306(2) 0.5700(2) 0.8431(2)
C161_4 C 0.1569(2) 0.5700(2) 0.6306(2)
C162_6 C 0.3694(2) 0.4300(2) 0.6569(2)
C163_6 C 0.1569(2) 0.6306(2) 0.9300(2)
C164_4 C 0.0700(2) 0.6306(2) 0.6569(2)
C165_6 C 0.3431(2) 0.3694(2) 0.5700(2)
C166_6 C 0.0700(2) 0.6569(2) 0.8694(2)
C167_4 C 0.1306(2) 0.6569(2) 0.5700(2)
C168_6 C 0.4300(2) 0.3431(2) 0.6306(2)
H124_5 H 0.4371 0.6471 0.8521
H125_5 H 0.3529 0.6479 0.9371
H126_6 H 0.1471 0.5629 0.8521
H127_4 H 0.1479 0.5629 0.6471
H128_6 H 0.3529 0.4371 0.6479
H129_6 H 0.1479 0.6471 0.9371
H130_4 H 0.0629 0.6471 0.6479
H131_6 H 0.3521 0.3529 0.5629
H132_6 H 0.0629 0.6479 0.8529
H133_4 H 0.1471 0.6479 0.5629
H134_6 H 0.4371 0.3521 0.6471
H135_5 H 0.4445 0.6167 0.8419
H136_5 H 0.3833 0.6581 0.9445
H137_6 H 0.1167 0.5555 0.8419
H138_4 H 0.1581 0.5555 0.6167
H139_6 H 0.3833 0.4445 0.6581
H140_6 H 0.1581 0.6167 0.9445
H141_4 H 0.0555 0.6167 0.6581
H142_6 H 0.3419 0.3833 0.5555
H143_6 H 0.0555 0.6581 0.8833
H144_4 H 0.1167 0.6581 0.5555
H145_6 H 0.4445 0.3419 0.6167
H146_5 H 0.4146 0.6233 0.8537
H147_5 H 0.3767 0.6463 0.9146
H148_6 H 0.1233 0.5854 0.8537
H149_4 H 0.1463 0.5854 0.6233
H150_6 H 0.3767 0.4146 0.6463
H151_6 H 0.1463 0.6233 0.9146
H152_4 H 0.0854 0.6233 0.6463
H153_6 H 0.3537 0.3767 0.5854
H154_6 H 0.0854 0.6463 0.8767
H155_4 H 0.1233 0.6463 0.5854
H156_6 H 0.4146 0.3537 0.6233
Cd10_7 Cd 1.0000 0.69897(15) 0.72481(4)
Cd11_5 Cd 1.0000 0.72481(4) 0.80103(15)
Cd12_7 Cd 1.0000 0.77519(4) 0.69897(15)
Cd5_9 Cd 0.69897(15) 0.0000 0.22481(4)
Cd6_9 Cd 0.72481(4) 0.0000 0.30103(15)
Cd1_8 Cd 0.5000 0.72481(4) 0.30103(15)
O2_6 O 0.53463(11) 0.73731(14) 0.33856(13)
O3_6 O 0.53084(11) 0.76094(15) 0.30104(12)
O4_10 O 0.5000 0.7500 0.2500
C1_6 C 0.54199(13) 0.75733(17) 0.32494(16)
C2_6 C 0.56409(13) 0.77554(18) 0.33398(12)
C3_6 C 0.57217(14) 0.79777(17) 0.31751(15)
H1_6 H 0.5632 0.8014 0.3005
C4_6 C 0.59375(13) 0.81448(15) 0.32668(13)
C5_6 C 0.60795(13) 0.80866(14) 0.35075(12)
C6_6 C 0.59898(14) 0.78683(15) 0.36669(13)
H2_6 H 0.6078 0.7830 0.3837
C7_6 C 0.57752(13) 0.77067(16) 0.35815(14)
H3_6 H 0.5718 0.7557 0.3693
C8_6 C 0.60416(15) 0.83989(15) 0.31276(14)
C9_6 C 0.62787(13) 0.84789(14) 0.33156(13)
C10_6 C 0.63024(12) 0.82927(12) 0.35336(13)
C11_6 C 0.61397(19) 0.83290(18) 0.28407(18)
H4_6 H 0.6195 0.8501 0.2748
H5_6 H 0.5984 0.8251 0.2737
C12_6 C 0.6386(2) 0.8122(2) 0.2826(3)
H6_6 H 0.6540 0.8194 0.2934
H7_6 H 0.6443 0.8100 0.2634
H8_6 H 0.6328 0.7944 0.2900
C13_6 C 0.58020(17) 0.8618(2) 0.31330(18)
H9_6 H 0.5866 0.8787 0.3041
H10_6 H 0.5645 0.8546 0.3027
C14_6 C 0.5700(2) 0.8694(2) 0.3431(2)
H11_6 H 0.5629 0.8529 0.3521
H12_6 H 0.5555 0.8833 0.3419
H13_6 H 0.5854 0.8767 0.3537
Cd3_8 Cd 0.5000 0.80103(15) 0.27519(4)
Cd5_10 Cd 0.69897(15) 1.0000 0.22481(4)
Cd6_10 Cd 0.72481(4) 1.0000 0.30103(15)
Cd7_8 Cd 0.77519(4) 0.80103(15) 0.5000
Cd11_6 Cd 0.72481(4) 0.80103(15) 0.0000
Cd17_8 Cd 0.30103(15) 0.77519(4) 0.5000
O5_7 O 0.46537(11) 0.73731(14) 0.33856(13)
O6_7 O 0.46537(11) 0.76269(14) 0.16144(13)
O8_7 O 0.53463(11) 0.83856(13) 0.26269(14)
O9_7 O 0.46537(11) 0.83856(13) 0.26269(14)
O10_7 O 0.53463(11) 0.66144(13) 0.23731(14)
O11_7 O 0.46537(11) 0.66144(13) 0.23731(14)
O12_6 O 0.66144(13) 0.96537(11) 0.23731(14)
O13_6 O 0.76269(14) 0.83856(13) 0.46537(11)
O14_7 O 0.76269(14) 0.96537(11) 0.16144(13)
O15_7 O 0.66144(13) 0.73731(14) 0.03463(11)
O18_7 O 0.23731(14) 0.53463(11) 0.33856(13)
O19_7 O 0.33856(13) 0.76269(14) 0.46537(11)
O20_7 O 0.53084(11) 0.69896(12) 0.26094(15)
O21_7 O 0.46916(11) 0.69896(12) 0.26094(15)
O22_7 O 0.46916(11) 0.76094(15) 0.30104(12)
O24_7 O 0.46916(11) 0.80104(12) 0.23906(15)
O25_7 O 0.46916(11) 0.73906(15) 0.19896(12)
O26_7 O 0.53084(11) 0.80104(12) 0.23906(15)
O27_6 O 0.69896(12) 0.96916(11) 0.26094(15)
O28_6 O 0.73906(15) 0.80104(12) 0.46916(11)
O29_7 O 0.73906(15) 0.96916(11) 0.19896(12)
O30_7 O 0.69896(12) 0.76094(15) 0.03084(11)
O33_7 O 0.26094(15) 0.53084(11) 0.30104(12)
O34_7 O 0.30104(12) 0.73906(15) 0.46916(11)
C15_7 C 0.54199(13) 0.82494(16) 0.24267(17)
C17_7 C 0.45801(13) 0.67506(16) 0.25733(17)
C18_6 C 0.67506(16) 0.95801(13) 0.25733(17)
C19_6 C 0.74267(17) 0.82494(16) 0.45801(13)
C20_7 C 0.74267(17) 0.95801(13) 0.17506(16)
C21_7 C 0.67506(16) 0.75733(17) 0.04199(13)
C24_7 C 0.25733(17) 0.54199(13) 0.32494(16)
C25_7 C 0.32494(16) 0.74267(17) 0.45801(13)
C26_7 C 0.56409(13) 0.83398(12) 0.22446(18)
C28_7 C 0.43591(13) 0.66602(12) 0.27554(18)
C29_6 C 0.66602(12) 0.93591(13) 0.27554(18)
C30_6 C 0.72446(18) 0.83398(12) 0.43591(13)
C31_7 C 0.72446(18) 0.93591(13) 0.16602(12)
C32_7 C 0.66602(12) 0.77554(18) 0.06409(13)
C35_7 C 0.27554(18) 0.56409(13) 0.33398(12)
C36_7 C 0.33398(12) 0.72446(18) 0.43591(13)
C37_7 C 0.57217(14) 0.81751(15) 0.20223(17)
C39_7 C 0.42783(14) 0.68249(15) 0.29777(17)
C40_6 C 0.68249(15) 0.92783(14) 0.29777(17)
C41_6 C 0.70223(17) 0.81751(15) 0.42783(14)
C42_7 C 0.70223(17) 0.92783(14) 0.18249(15)
C43_7 C 0.68249(15) 0.79777(17) 0.07217(14)
C46_7 C 0.29777(17) 0.57217(14) 0.31751(15)
C47_7 C 0.31751(15) 0.70223(17) 0.42783(14)
H14_7 H 0.5632 0.8005 0.1986
H16_7 H 0.4368 0.6995 0.3014
H17_6 H 0.6995 0.9368 0.3014
H18_6 H 0.6986 0.8005 0.4368
H19_7 H 0.6986 0.9368 0.1995
H20_7 H 0.6995 0.8014 0.0632
H23_7 H 0.3014 0.5632 0.3005
H24_7 H 0.3005 0.6986 0.4368
C48_6 C 0.67332(13) 0.90625(13) 0.31448(15)
C49_6 C 0.68552(15) 0.82668(13) 0.40625(13)
C50_7 C 0.59375(13) 0.82668(13) 0.18552(15)
C52_7 C 0.40625(13) 0.67332(13) 0.31448(15)
C53_7 C 0.68552(15) 0.90625(13) 0.17332(13)
C54_7 C 0.67332(13) 0.81448(15) 0.09375(13)
C57_7 C 0.31448(15) 0.59375(13) 0.32668(13)
C58_7 C 0.32668(13) 0.68552(15) 0.40625(13)
C59_6 C 0.64925(12) 0.89205(13) 0.30866(14)
C60_6 C 0.69134(14) 0.85075(12) 0.39205(13)
C61_7 C 0.60795(13) 0.85075(12) 0.19134(14)
C63_7 C 0.39205(13) 0.64925(12) 0.30866(14)
C64_7 C 0.64925(12) 0.80866(14) 0.10795(13)
C66_7 C 0.35075(12) 0.69134(14) 0.39205(13)
C67_7 C 0.69134(14) 0.89205(13) 0.14925(12)
C69_7 C 0.30866(14) 0.60795(13) 0.35075(12)
C70_6 C 0.63331(13) 0.90102(14) 0.28683(15)
C71_6 C 0.71317(15) 0.86669(13) 0.40102(14)
C72_7 C 0.59898(14) 0.86669(13) 0.21317(15)
C74_7 C 0.40102(14) 0.63331(13) 0.28683(15)
C75_7 C 0.63331(13) 0.78683(15) 0.09898(14)
C77_7 C 0.36669(13) 0.71317(15) 0.40102(14)
C78_7 C 0.71317(15) 0.90102(14) 0.13331(13)
C80_7 C 0.28683(15) 0.59898(14) 0.36669(13)
H25_6 H 0.6163 0.8922 0.2830
H26_6 H 0.7170 0.8837 0.3922
H27_7 H 0.6078 0.8837 0.2170
H29_7 H 0.3922 0.6163 0.2830
H30_7 H 0.6163 0.7830 0.1078
H32_7 H 0.3837 0.7170 0.3922
H33_7 H 0.7170 0.8922 0.1163
H35_7 H 0.2830 0.6078 0.3837
C81_7 C 0.57752(13) 0.85815(14) 0.22933(16)
C83_7 C 0.42248(13) 0.64185(14) 0.27067(16)
C84_6 C 0.64185(14) 0.92248(13) 0.27067(16)
C85_6 C 0.72933(16) 0.85815(14) 0.42248(13)
C86_7 C 0.64185(14) 0.77067(16) 0.07752(13)
C88_7 C 0.35815(14) 0.72933(16) 0.42248(13)
C89_7 C 0.72933(16) 0.92248(13) 0.14185(14)
C91_7 C 0.27067(16) 0.57752(13) 0.35815(14)
H36_7 H 0.5718 0.8693 0.2443
H38_7 H 0.4282 0.6307 0.2557
H39_6 H 0.6307 0.9282 0.2557
H40_6 H 0.7443 0.8693 0.4282
H41_7 H 0.6307 0.7557 0.0718
H43_7 H 0.3693 0.7443 0.4282
H44_7 H 0.7443 0.9282 0.1307
H46_7 H 0.2557 0.5718 0.3693
C92_6 C 0.66011(15) 0.81276(14) 0.39584(15)
C93_6 C 0.68724(14) 0.89584(15) 0.33989(15)
C94_7 C 0.60416(15) 0.81276(14) 0.16011(15)
C96_7 C 0.39584(15) 0.68724(14) 0.33989(15)
C97_7 C 0.66011(15) 0.89584(15) 0.18724(14)
C99_7 C 0.33989(15) 0.60416(15) 0.31276(14)
C100_7 C 0.68724(14) 0.83989(15) 0.10416(15)
C102_7 C 0.31276(14) 0.66011(15) 0.39584(15)
C103_6 C 0.65211(14) 0.83156(13) 0.37213(13)
C104_6 C 0.66844(13) 0.87213(13) 0.34789(14)
C105_7 C 0.62787(13) 0.83156(13) 0.15211(14)
C107_7 C 0.37213(13) 0.66844(13) 0.34789(14)
C108_7 C 0.65211(14) 0.87213(13) 0.16844(13)
C110_7 C 0.34789(14) 0.62787(13) 0.33156(13)
C111_7 C 0.66844(13) 0.84789(14) 0.12787(13)
C113_7 C 0.33156(13) 0.65211(14) 0.37213(13)
C114_6 C 0.64664(13) 0.86976(12) 0.32927(12)
C115_6 C 0.67073(12) 0.85336(13) 0.36976(12)
C116_7 C 0.63024(12) 0.85336(13) 0.17073(12)
C118_7 C 0.36976(12) 0.64664(13) 0.32927(12)
C119_7 C 0.64664(13) 0.82927(12) 0.13024(12)
C121_7 C 0.35336(13) 0.67073(12) 0.36976(12)
C122_7 C 0.67073(12) 0.86976(12) 0.14664(13)
C124_7 C 0.32927(12) 0.63024(12) 0.35336(13)
C125_6 C 0.66710(18) 0.78407(18) 0.38603(19)
C126_6 C 0.71593(18) 0.88603(19) 0.33290(18)
C127_7 C 0.61397(19) 0.78407(18) 0.16710(18)
C129_7 C 0.38603(19) 0.71593(18) 0.33290(18)
C130_7 C 0.66710(18) 0.88603(19) 0.21593(18)
C132_7 C 0.33290(18) 0.61397(19) 0.28407(18)
C133_7 C 0.71593(18) 0.83290(18) 0.11397(19)
C135_7 C 0.28407(18) 0.66710(18) 0.38603(19)
H47_6 H 0.6499 0.7748 0.3805
H48_6 H 0.7252 0.8805 0.3501
H49_7 H 0.6195 0.7748 0.1499
H51_7 H 0.3805 0.7252 0.3501
H52_7 H 0.6499 0.8805 0.2252
H54_7 H 0.3501 0.6195 0.2748
H55_7 H 0.7252 0.8501 0.1195
H57_7 H 0.2748 0.6499 0.3805
H58_6 H 0.6749 0.7737 0.4016
H59_6 H 0.7263 0.9016 0.3251
H60_7 H 0.5984 0.7737 0.1749
H62_7 H 0.4016 0.7263 0.3251
H63_7 H 0.6749 0.9016 0.2263
H65_7 H 0.3251 0.5984 0.2737
H66_7 H 0.7263 0.8251 0.0984
H68_7 H 0.2737 0.6749 0.4016
C136_6 C 0.6878(2) 0.7826(3) 0.3614(2)
C137_6 C 0.7174(3) 0.8614(2) 0.3122(2)
C138_7 C 0.6386(2) 0.7826(3) 0.1878(2)
C140_7 C 0.3614(2) 0.7174(3) 0.3122(2)
C141_7 C 0.6878(2) 0.8614(2) 0.2174(3)
C143_7 C 0.3122(2) 0.6386(2) 0.2826(3)
C144_7 C 0.7174(3) 0.8122(2) 0.1386(2)
C146_7 C 0.2826(3) 0.6878(2) 0.3614(2)
H69_6 H 0.6806 0.7934 0.3460
H70_6 H 0.7066 0.8460 0.3194
H71_7 H 0.6540 0.7934 0.1806
H73_7 H 0.3460 0.7066 0.3194
H74_7 H 0.6806 0.8460 0.2066
H76_7 H 0.3194 0.6540 0.2934
H77_7 H 0.7066 0.8194 0.1540
H79_7 H 0.2934 0.6806 0.3460
H80_6 H 0.6900 0.7634 0.3557
H81_6 H 0.7366 0.8557 0.3100
H82_7 H 0.6443 0.7634 0.1900
H84_7 H 0.3557 0.7366 0.3100
H85_7 H 0.6900 0.8557 0.2366
H87_7 H 0.3100 0.6443 0.2634
H88_7 H 0.7366 0.8100 0.1443
H90_7 H 0.2634 0.6900 0.3557
H91_6 H 0.7056 0.7900 0.3672
H92_6 H 0.7100 0.8672 0.2944
H93_7 H 0.6328 0.7900 0.2056
H95_7 H 0.3672 0.7100 0.2944
H96_7 H 0.7056 0.8672 0.2100
H98_7 H 0.2944 0.6328 0.2900
H99_7 H 0.7100 0.7944 0.1328
H101_7 H 0.2900 0.7056 0.3672
C147_6 C 0.6382(2) 0.81330(18) 0.41980(17)
C148_6 C 0.68670(18) 0.91980(17) 0.3618(2)
C149_7 C 0.58020(17) 0.81330(18) 0.1382(2)
C151_7 C 0.41980(17) 0.68670(18) 0.3618(2)
C152_7 C 0.6382(2) 0.91980(17) 0.18670(18)
C154_7 C 0.3618(2) 0.58020(17) 0.31330(18)
C155_7 C 0.68670(18) 0.8618(2) 0.08020(17)
C157_7 C 0.31330(18) 0.6382(2) 0.41980(17)
H102_6 H 0.6213 0.8041 0.4134
H103_6 H 0.6959 0.9134 0.3787
H104_7 H 0.5866 0.8041 0.1213
H106_7 H 0.4134 0.6959 0.3787
H107_7 H 0.6213 0.9134 0.1959
H109_7 H 0.3787 0.5866 0.3041
H110_7 H 0.6959 0.8787 0.0866
H112_7 H 0.3041 0.6213 0.4134
H113_6 H 0.6454 0.8027 0.4355
H114_6 H 0.6973 0.9355 0.3546
H115_7 H 0.5645 0.8027 0.1454
H117_7 H 0.4355 0.6973 0.3546
H118_7 H 0.6454 0.9355 0.1973
H120_7 H 0.3546 0.5645 0.3027
H121_7 H 0.6973 0.8546 0.0645
H123_7 H 0.3027 0.6454 0.4355
C158_6 C 0.6306(2) 0.8431(2) 0.4300(2)
C159_6 C 0.6569(2) 0.9300(2) 0.3694(2)
C160_7 C 0.5700(2) 0.8431(2) 0.1306(2)
C162_7 C 0.4300(2) 0.6569(2) 0.3694(2)
C163_7 C 0.6306(2) 0.9300(2) 0.1569(2)
C165_7 C 0.3694(2) 0.5700(2) 0.3431(2)
C166_7 C 0.6569(2) 0.8694(2) 0.0700(2)
C168_7 C 0.3431(2) 0.6306(2) 0.4300(2)
H124_6 H 0.6471 0.8521 0.4371
H125_6 H 0.6479 0.9371 0.3529
H126_7 H 0.5629 0.8521 0.1471
H128_7 H 0.4371 0.6479 0.3529
H129_7 H 0.6471 0.9371 0.1479
H131_7 H 0.3529 0.5629 0.3521
H132_7 H 0.6479 0.8529 0.0629
H134_7 H 0.3521 0.6471 0.4371
H135_6 H 0.6167 0.8419 0.4445
H136_6 H 0.6581 0.9445 0.3833
H137_7 H 0.5555 0.8419 0.1167
H139_7 H 0.4445 0.6581 0.3833
H140_7 H 0.6167 0.9445 0.1581
H142_7 H 0.3833 0.5555 0.3419
H143_7 H 0.6581 0.8833 0.0555
H145_7 H 0.3419 0.6167 0.4445
H146_6 H 0.6233 0.8537 0.4146
H147_6 H 0.6463 0.9146 0.3767
H148_7 H 0.5854 0.8537 0.1233
H150_7 H 0.4146 0.6463 0.3767
H151_7 H 0.6233 0.9146 0.1463
H153_7 H 0.3767 0.5854 0.3537
H154_7 H 0.6463 0.8767 0.0854
H156_7 H 0.3537 0.6233 0.4146
Cd11_7 Cd 0.72481(4) 0.80103(15) 1.0000
Cd5_11 Cd 0.30103(15) 0.0000 0.77519(4)
Cd6_11 Cd 0.27519(4) 0.0000 0.69897(15)
O2_7 O 0.46537(11) 0.73731(14) 0.66144(13)
O3_7 O 0.46916(11) 0.76094(15) 0.69896(12)
O4_11 O 0.5000 0.7500 0.7500
C1_7 C 0.45801(13) 0.75733(17) 0.67506(16)
C2_7 C 0.43591(13) 0.77554(18) 0.66602(12)
C3_7 C 0.42783(14) 0.79777(17) 0.68249(15)
H1_7 H 0.4368 0.8014 0.6995
C4_7 C 0.40625(13) 0.81448(15) 0.67332(13)
C5_7 C 0.39205(13) 0.80866(14) 0.64925(12)
C6_7 C 0.40102(14) 0.78683(15) 0.63331(13)
H2_7 H 0.3922 0.7830 0.6163
C7_7 C 0.42248(13) 0.77067(16) 0.64185(14)
H3_7 H 0.4282 0.7557 0.6307
C8_7 C 0.39584(15) 0.83989(15) 0.68724(14)
C9_7 C 0.37213(13) 0.84789(14) 0.66844(13)
C10_7 C 0.36976(12) 0.82927(12) 0.64664(13)
C11_7 C 0.38603(19) 0.83290(18) 0.71593(18)
H4_7 H 0.3805 0.8501 0.7252
H5_7 H 0.4016 0.8251 0.7263
C12_7 C 0.3614(2) 0.8122(2) 0.7174(3)
H6_7 H 0.3460 0.8194 0.7066
H7_7 H 0.3557 0.8100 0.7366
H8_7 H 0.3672 0.7944 0.7100
C13_7 C 0.41980(17) 0.8618(2) 0.68670(18)
H9_7 H 0.4134 0.8787 0.6959
H10_7 H 0.4355 0.8546 0.6973
C14_7 C 0.4300(2) 0.8694(2) 0.6569(2)
H11_7 H 0.4371 0.8529 0.6479
H12_7 H 0.4445 0.8833 0.6581
H13_7 H 0.4146 0.8767 0.6463
Cd3_9 Cd 0.5000 0.80103(15) 0.72481(4)
Cd5_12 Cd 0.30103(15) 1.0000 0.77519(4)
Cd6_12 Cd 0.27519(4) 1.0000 0.69897(15)
Cd7_9 Cd 0.22481(4) 0.80103(15) 0.5000
O5_8 O 0.53463(11) 0.73731(14) 0.66144(13)
O6_8 O 0.53463(11) 0.76269(14) 0.83856(13)
O8_8 O 0.46537(11) 0.83856(13) 0.73731(14)
O9_8 O 0.53463(11) 0.83856(13) 0.73731(14)
O10_8 O 0.46537(11) 0.66144(13) 0.76269(14)
O12_7 O 0.33856(13) 0.96537(11) 0.76269(14)
O13_7 O 0.23731(14) 0.83856(13) 0.53463(11)
O14_8 O 0.23731(14) 0.96537(11) 0.83856(13)
O15_8 O 0.33856(13) 0.73731(14) 0.96537(11)
O20_8 O 0.46916(11) 0.69896(12) 0.73906(15)
O22_8 O 0.53084(11) 0.76094(15) 0.69896(12)
O24_8 O 0.53084(11) 0.80104(12) 0.76094(15)
O25_8 O 0.53084(11) 0.73906(15) 0.80104(12)
O26_8 O 0.46916(11) 0.80104(12) 0.76094(15)
O27_7 O 0.30104(12) 0.96916(11) 0.73906(15)
O28_7 O 0.26094(15) 0.80104(12) 0.53084(11)
O29_8 O 0.26094(15) 0.96916(11) 0.80104(12)
O30_8 O 0.30104(12) 0.76094(15) 0.96916(11)
C15_8 C 0.45801(13) 0.82494(16) 0.75733(17)
C18_7 C 0.32494(16) 0.95801(13) 0.74267(17)
C19_7 C 0.25733(17) 0.82494(16) 0.54199(13)
C20_8 C 0.25733(17) 0.95801(13) 0.82494(16)
C21_8 C 0.32494(16) 0.75733(17) 0.95801(13)
C26_8 C 0.43591(13) 0.83398(12) 0.77554(18)
C29_7 C 0.33398(12) 0.93591(13) 0.72446(18)
C30_7 C 0.27554(18) 0.83398(12) 0.56409(13)
C31_8 C 0.27554(18) 0.93591(13) 0.83398(12)
C32_8 C 0.33398(12) 0.77554(18) 0.93591(13)
C37_8 C 0.42783(14) 0.81751(15) 0.79777(17)
C40_7 C 0.31751(15) 0.92783(14) 0.70223(17)
C41_7 C 0.29777(17) 0.81751(15) 0.57217(14)
C42_8 C 0.29777(17) 0.92783(14) 0.81751(15)
C43_8 C 0.31751(15) 0.79777(17) 0.92783(14)
H14_8 H 0.4368 0.8005 0.8014
H17_7 H 0.3005 0.9368 0.6986
H18_7 H 0.3014 0.8005 0.5632
H19_8 H 0.3014 0.9368 0.8005
H20_8 H 0.3005 0.8014 0.9368
C48_7 C 0.32668(13) 0.90625(13) 0.68552(15)
C49_7 C 0.31448(15) 0.82668(13) 0.59375(13)
C50_8 C 0.40625(13) 0.82668(13) 0.81448(15)
C53_8 C 0.31448(15) 0.90625(13) 0.82668(13)
C54_8 C 0.32668(13) 0.81448(15) 0.90625(13)
C59_7 C 0.35075(12) 0.89205(13) 0.69134(14)
C60_7 C 0.30866(14) 0.85075(12) 0.60795(13)
C61_8 C 0.39205(13) 0.85075(12) 0.80866(14)
C64_8 C 0.35075(12) 0.80866(14) 0.89205(13)
C67_8 C 0.30866(14) 0.89205(13) 0.85075(12)
C70_7 C 0.36669(13) 0.90102(14) 0.71317(15)
C71_7 C 0.28683(15) 0.86669(13) 0.59898(14)
C72_8 C 0.40102(14) 0.86669(13) 0.78683(15)
C75_8 C 0.36669(13) 0.78683(15) 0.90102(14)
C78_8 C 0.28683(15) 0.90102(14) 0.86669(13)
H25_7 H 0.3837 0.8922 0.7170
H26_7 H 0.2830 0.8837 0.6078
H27_8 H 0.3922 0.8837 0.7830
H30_8 H 0.3837 0.7830 0.8922
H33_8 H 0.2830 0.8922 0.8837
C81_8 C 0.42248(13) 0.85815(14) 0.77067(16)
C84_7 C 0.35815(14) 0.92248(13) 0.72933(16)
C85_7 C 0.27067(16) 0.85815(14) 0.57752(13)
C86_8 C 0.35815(14) 0.77067(16) 0.92248(13)
C89_8 C 0.27067(16) 0.92248(13) 0.85815(14)
H36_8 H 0.4282 0.8693 0.7557
H39_7 H 0.3693 0.9282 0.7443
H40_7 H 0.2557 0.8693 0.5718
H41_8 H 0.3693 0.7557 0.9282
H44_8 H 0.2557 0.9282 0.8693
C92_7 C 0.33989(15) 0.81276(14) 0.60416(15)
C93_7 C 0.31276(14) 0.89584(15) 0.66011(15)
C94_8 C 0.39584(15) 0.81276(14) 0.83989(15)
C97_8 C 0.33989(15) 0.89584(15) 0.81276(14)
C100_8 C 0.31276(14) 0.83989(15) 0.89584(15)
C103_7 C 0.34789(14) 0.83156(13) 0.62787(13)
C104_7 C 0.33156(13) 0.87213(13) 0.65211(14)
C105_8 C 0.37213(13) 0.83156(13) 0.84789(14)
C108_8 C 0.34789(14) 0.87213(13) 0.83156(13)
C111_8 C 0.33156(13) 0.84789(14) 0.87213(13)
C114_7 C 0.35336(13) 0.86976(12) 0.67073(12)
C115_7 C 0.32927(12) 0.85336(13) 0.63024(12)
C116_8 C 0.36976(12) 0.85336(13) 0.82927(12)
C119_8 C 0.35336(13) 0.82927(12) 0.86976(12)
C122_8 C 0.32927(12) 0.86976(12) 0.85336(13)
C125_7 C 0.33290(18) 0.78407(18) 0.61397(19)
C126_7 C 0.28407(18) 0.88603(19) 0.66710(18)
C127_8 C 0.38603(19) 0.78407(18) 0.83290(18)
C130_8 C 0.33290(18) 0.88603(19) 0.78407(18)
C133_8 C 0.28407(18) 0.83290(18) 0.88603(19)
H47_7 H 0.3501 0.7748 0.6195
H48_7 H 0.2748 0.8805 0.6499
H49_8 H 0.3805 0.7748 0.8501
H52_8 H 0.3501 0.8805 0.7748
H55_8 H 0.2748 0.8501 0.8805
H58_7 H 0.3251 0.7737 0.5984
H59_7 H 0.2737 0.9016 0.6749
H60_8 H 0.4016 0.7737 0.8251
H63_8 H 0.3251 0.9016 0.7737
H66_8 H 0.2737 0.8251 0.9016
C136_7 C 0.3122(2) 0.7826(3) 0.6386(2)
C137_7 C 0.2826(3) 0.8614(2) 0.6878(2)
C138_8 C 0.3614(2) 0.7826(3) 0.8122(2)
C141_8 C 0.3122(2) 0.8614(2) 0.7826(3)
C144_8 C 0.2826(3) 0.8122(2) 0.8614(2)
H69_7 H 0.3194 0.7934 0.6540
H70_7 H 0.2934 0.8460 0.6806
H71_8 H 0.3460 0.7934 0.8194
H74_8 H 0.3194 0.8460 0.7934
H77_8 H 0.2934 0.8194 0.8460
H80_7 H 0.3100 0.7634 0.6443
H81_7 H 0.2634 0.8557 0.6900
H82_8 H 0.3557 0.7634 0.8100
H85_8 H 0.3100 0.8557 0.7634
H88_8 H 0.2634 0.8100 0.8557
H91_7 H 0.2944 0.7900 0.6328
H92_7 H 0.2900 0.8672 0.7056
H93_8 H 0.3672 0.7900 0.7944
H96_8 H 0.2944 0.8672 0.7900
H99_8 H 0.2900 0.7944 0.8672
C147_7 C 0.3618(2) 0.81330(18) 0.58020(17)
C148_7 C 0.31330(18) 0.91980(17) 0.6382(2)
C149_8 C 0.41980(17) 0.81330(18) 0.8618(2)
C152_8 C 0.3618(2) 0.91980(17) 0.81330(18)
C155_8 C 0.31330(18) 0.8618(2) 0.91980(17)
H102_7 H 0.3787 0.8041 0.5866
H103_7 H 0.3041 0.9134 0.6213
H104_8 H 0.4134 0.8041 0.8787
H107_8 H 0.3787 0.9134 0.8041
H110_8 H 0.3041 0.8787 0.9134
H113_7 H 0.3546 0.8027 0.5645
H114_7 H 0.3027 0.9355 0.6454
H115_8 H 0.4355 0.8027 0.8546
H118_8 H 0.3546 0.9355 0.8027
H121_8 H 0.3027 0.8546 0.9355
C158_7 C 0.3694(2) 0.8431(2) 0.5700(2)
C159_7 C 0.3431(2) 0.9300(2) 0.6306(2)
C160_8 C 0.4300(2) 0.8431(2) 0.8694(2)
C163_8 C 0.3694(2) 0.9300(2) 0.8431(2)
C166_8 C 0.3431(2) 0.8694(2) 0.9300(2)
H124_7 H 0.3529 0.8521 0.5629
H125_7 H 0.3521 0.9371 0.6471
H126_8 H 0.4371 0.8521 0.8529
H129_8 H 0.3529 0.9371 0.8521
H132_8 H 0.3521 0.8529 0.9371
H135_7 H 0.3833 0.8419 0.5555
H136_7 H 0.3419 0.9445 0.6167
H137_8 H 0.4445 0.8419 0.8833
H140_8 H 0.3833 0.9445 0.8419
H143_8 H 0.3419 0.8833 0.9445
H146_7 H 0.3767 0.8537 0.5854
H147_7 H 0.3537 0.9146 0.6233
H148_8 H 0.4146 0.8537 0.8767
H151_8 H 0.3767 0.9146 0.8537
H154_8 H 0.3537 0.8767 0.9146
O2_8 O 0.53463(11) 0.26269(14) 0.66144(13)
O3_8 O 0.53084(11) 0.23906(15) 0.69896(12)
O4_12 O 0.5000 0.2500 0.7500
C1_8 C 0.54199(13) 0.24267(17) 0.67506(16)
C2_8 C 0.56409(13) 0.22446(18) 0.66602(12)
C3_8 C 0.57217(14) 0.20223(17) 0.68249(15)
H1_8 H 0.5632 0.1986 0.6995
C4_8 C 0.59375(13) 0.18552(15) 0.67332(13)
C5_8 C 0.60795(13) 0.19134(14) 0.64925(12)
C6_8 C 0.59898(14) 0.21317(15) 0.63331(13)
H2_8 H 0.6078 0.2170 0.6163
C7_8 C 0.57752(13) 0.22933(16) 0.64185(14)
H3_8 H 0.5718 0.2443 0.6307
C8_8 C 0.60416(15) 0.16011(15) 0.68724(14)
C9_8 C 0.62787(13) 0.15211(14) 0.66844(13)
C10_8 C 0.63024(12) 0.17073(12) 0.64664(13)
C11_8 C 0.61397(19) 0.16710(18) 0.71593(18)
H4_8 H 0.6195 0.1499 0.7252
H5_8 H 0.5984 0.1749 0.7263
C12_8 C 0.6386(2) 0.1878(2) 0.7174(3)
H6_8 H 0.6540 0.1806 0.7066
H7_8 H 0.6443 0.1900 0.7366
H8_8 H 0.6328 0.2056 0.7100
C13_8 C 0.58020(17) 0.1382(2) 0.68670(18)
H9_8 H 0.5866 0.1213 0.6959
H10_8 H 0.5645 0.1454 0.6973
C14_8 C 0.5700(2) 0.1306(2) 0.6569(2)
H11_8 H 0.5629 0.1471 0.6479
H12_8 H 0.5555 0.1167 0.6581
H13_8 H 0.5854 0.1233 0.6463
Cd3_10 Cd 0.5000 0.19897(15) 0.72481(4)
Cd5_13 Cd 0.69897(15) 0.0000 0.77519(4)
Cd6_13 Cd 0.72481(4) 0.0000 0.69897(15)
Cd7_10 Cd 0.77519(4) 0.19897(15) 0.5000
Cd9_6 Cd 0.77519(4) 0.0000 0.80103(15)
O5_9 O 0.46537(11) 0.26269(14) 0.66144(13)
O6_9 O 0.46537(11) 0.23731(14) 0.83856(13)
O8_9 O 0.53463(11) 0.16144(13) 0.73731(14)
O9_9 O 0.46537(11) 0.16144(13) 0.73731(14)
O10_9 O 0.53463(11) 0.33856(13) 0.76269(14)
O12_8 O 0.66144(13) 0.03463(11) 0.76269(14)
O13_8 O 0.76269(14) 0.16144(13) 0.53463(11)
O14_9 O 0.76269(14) 0.03463(11) 0.83856(13)
O15_9 O 0.66144(13) 0.26269(14) 0.96537(11)
O20_9 O 0.53084(11) 0.30104(12) 0.73906(15)
O22_9 O 0.46916(11) 0.23906(15) 0.69896(12)
O24_9 O 0.46916(11) 0.19896(12) 0.76094(15)
O25_9 O 0.46916(11) 0.26094(15) 0.80104(12)
O26_9 O 0.53084(11) 0.19896(12) 0.76094(15)
O27_8 O 0.69896(12) 0.03084(11) 0.73906(15)
O28_8 O 0.73906(15) 0.19896(12) 0.53084(11)
O29_9 O 0.73906(15) 0.03084(11) 0.80104(12)
O30_9 O 0.69896(12) 0.23906(15) 0.96916(11)
C15_9 C 0.54199(13) 0.17506(16) 0.75733(17)
C18_8 C 0.67506(16) 0.04199(13) 0.74267(17)
C19_8 C 0.74267(17) 0.17506(16) 0.54199(13)
C20_9 C 0.74267(17) 0.04199(13) 0.82494(16)
C21_9 C 0.67506(16) 0.24267(17) 0.95801(13)
C26_9 C 0.56409(13) 0.16602(12) 0.77554(18)
C29_8 C 0.66602(12) 0.06409(13) 0.72446(18)
C30_8 C 0.72446(18) 0.16602(12) 0.56409(13)
C31_9 C 0.72446(18) 0.06409(13) 0.83398(12)
C32_9 C 0.66602(12) 0.22446(18) 0.93591(13)
C37_9 C 0.57217(14) 0.18249(15) 0.79777(17)
C40_8 C 0.68249(15) 0.07217(14) 0.70223(17)
C41_8 C 0.70223(17) 0.18249(15) 0.57217(14)
C42_9 C 0.70223(17) 0.07217(14) 0.81751(15)
C43_9 C 0.68249(15) 0.20223(17) 0.92783(14)
H14_9 H 0.5632 0.1995 0.8014
H17_8 H 0.6995 0.0632 0.6986
H18_8 H 0.6986 0.1995 0.5632
H19_9 H 0.6986 0.0632 0.8005
H20_9 H 0.6995 0.1986 0.9368
C48_8 C 0.67332(13) 0.09375(13) 0.68552(15)
C49_8 C 0.68552(15) 0.17332(13) 0.59375(13)
C50_9 C 0.59375(13) 0.17332(13) 0.81448(15)
C53_9 C 0.68552(15) 0.09375(13) 0.82668(13)
C54_9 C 0.67332(13) 0.18552(15) 0.90625(13)
C59_8 C 0.64925(12) 0.10795(13) 0.69134(14)
C60_8 C 0.69134(14) 0.14925(12) 0.60795(13)
C61_9 C 0.60795(13) 0.14925(12) 0.80866(14)
C64_9 C 0.64925(12) 0.19134(14) 0.89205(13)
C67_9 C 0.69134(14) 0.10795(13) 0.85075(12)
C70_8 C 0.63331(13) 0.09898(14) 0.71317(15)
C71_8 C 0.71317(15) 0.13331(13) 0.59898(14)
C72_9 C 0.59898(14) 0.13331(13) 0.78683(15)
C75_9 C 0.63331(13) 0.21317(15) 0.90102(14)
C78_9 C 0.71317(15) 0.09898(14) 0.86669(13)
H25_8 H 0.6163 0.1078 0.7170
H26_8 H 0.7170 0.1163 0.6078
H27_9 H 0.6078 0.1163 0.7830
H30_9 H 0.6163 0.2170 0.8922
H33_9 H 0.7170 0.1078 0.8837
C81_9 C 0.57752(13) 0.14185(14) 0.77067(16)
C84_8 C 0.64185(14) 0.07752(13) 0.72933(16)
C85_8 C 0.72933(16) 0.14185(14) 0.57752(13)
C86_9 C 0.64185(14) 0.22933(16) 0.92248(13)
C89_9 C 0.72933(16) 0.07752(13) 0.85815(14)
H36_9 H 0.5718 0.1307 0.7557
H39_8 H 0.6307 0.0718 0.7443
H40_8 H 0.7443 0.1307 0.5718
H41_9 H 0.6307 0.2443 0.9282
H44_9 H 0.7443 0.0718 0.8693
C92_8 C 0.66011(15) 0.18724(14) 0.60416(15)
C93_8 C 0.68724(14) 0.10416(15) 0.66011(15)
C94_9 C 0.60416(15) 0.18724(14) 0.83989(15)
C97_9 C 0.66011(15) 0.10416(15) 0.81276(14)
C100_9 C 0.68724(14) 0.16011(15) 0.89584(15)
C103_8 C 0.65211(14) 0.16844(13) 0.62787(13)
C104_8 C 0.66844(13) 0.12787(13) 0.65211(14)
C105_9 C 0.62787(13) 0.16844(13) 0.84789(14)
C108_9 C 0.65211(14) 0.12787(13) 0.83156(13)
C111_9 C 0.66844(13) 0.15211(14) 0.87213(13)
C114_8 C 0.64664(13) 0.13024(12) 0.67073(12)
C115_8 C 0.67073(12) 0.14664(13) 0.63024(12)
C116_9 C 0.63024(12) 0.14664(13) 0.82927(12)
C119_9 C 0.64664(13) 0.17073(12) 0.86976(12)
C122_9 C 0.67073(12) 0.13024(12) 0.85336(13)
C125_8 C 0.66710(18) 0.21593(18) 0.61397(19)
C126_8 C 0.71593(18) 0.11397(19) 0.66710(18)
C127_9 C 0.61397(19) 0.21593(18) 0.83290(18)
C130_9 C 0.66710(18) 0.11397(19) 0.78407(18)
C133_9 C 0.71593(18) 0.16710(18) 0.88603(19)
H47_8 H 0.6499 0.2252 0.6195
H48_8 H 0.7252 0.1195 0.6499
H49_9 H 0.6195 0.2252 0.8501
H52_9 H 0.6499 0.1195 0.7748
H55_9 H 0.7252 0.1499 0.8805
H58_8 H 0.6749 0.2263 0.5984
H59_8 H 0.7263 0.0984 0.6749
H60_9 H 0.5984 0.2263 0.8251
H63_9 H 0.6749 0.0984 0.7737
H66_9 H 0.7263 0.1749 0.9016
C136_8 C 0.6878(2) 0.2174(3) 0.6386(2)
C137_8 C 0.7174(3) 0.1386(2) 0.6878(2)
C138_9 C 0.6386(2) 0.2174(3) 0.8122(2)
C141_9 C 0.6878(2) 0.1386(2) 0.7826(3)
C144_9 C 0.7174(3) 0.1878(2) 0.8614(2)
H69_8 H 0.6806 0.2066 0.6540
H70_8 H 0.7066 0.1540 0.6806
H71_9 H 0.6540 0.2066 0.8194
H74_9 H 0.6806 0.1540 0.7934
H77_9 H 0.7066 0.1806 0.8460
H80_8 H 0.6900 0.2366 0.6443
H81_8 H 0.7366 0.1443 0.6900
H82_9 H 0.6443 0.2366 0.8100
H85_9 H 0.6900 0.1443 0.7634
H88_9 H 0.7366 0.1900 0.8557
H91_8 H 0.7056 0.2100 0.6328
H92_8 H 0.7100 0.1328 0.7056
H93_9 H 0.6328 0.2100 0.7944
H96_9 H 0.7056 0.1328 0.7900
H99_9 H 0.7100 0.2056 0.8672
C147_8 C 0.6382(2) 0.18670(18) 0.58020(17)
C148_8 C 0.68670(18) 0.08020(17) 0.6382(2)
C149_9 C 0.58020(17) 0.18670(18) 0.8618(2)
C152_9 C 0.6382(2) 0.08020(17) 0.81330(18)
C155_9 C 0.68670(18) 0.1382(2) 0.91980(17)
H102_8 H 0.6213 0.1959 0.5866
H103_8 H 0.6959 0.0866 0.6213
H104_9 H 0.5866 0.1959 0.8787
H107_9 H 0.6213 0.0866 0.8041
H110_9 H 0.6959 0.1213 0.9134
H113_8 H 0.6454 0.1973 0.5645
H114_8 H 0.6973 0.0645 0.6454
H115_9 H 0.5645 0.1973 0.8546
H118_9 H 0.6454 0.0645 0.8027
H121_9 H 0.6973 0.1454 0.9355
C158_8 C 0.6306(2) 0.1569(2) 0.5700(2)
C159_8 C 0.6569(2) 0.0700(2) 0.6306(2)
C160_9 C 0.5700(2) 0.1569(2) 0.8694(2)
C163_9 C 0.6306(2) 0.0700(2) 0.8431(2)
C166_9 C 0.6569(2) 0.1306(2) 0.9300(2)
H124_8 H 0.6471 0.1479 0.5629
H125_8 H 0.6479 0.0629 0.6471
H126_9 H 0.5629 0.1479 0.8529
H129_9 H 0.6471 0.0629 0.8521
H132_9 H 0.6479 0.1471 0.9371
H135_8 H 0.6167 0.1581 0.5555
H136_8 H 0.6581 0.0555 0.6167
H137_9 H 0.5555 0.1581 0.8833
H140_9 H 0.6167 0.0555 0.8419
H143_9 H 0.6581 0.1167 0.9445
H146_8 H 0.6233 0.1463 0.5854
H147_8 H 0.6463 0.0854 0.6233
H148_9 H 0.5854 0.1463 0.8767
H151_9 H 0.6233 0.0854 0.8537
H154_9 H 0.6463 0.1233 0.9146
Cd5_14 Cd 0.69897(15) 1.0000 0.77519(4)
Cd6_14 Cd 0.72481(4) 1.0000 0.69897(15)
Cd9_7 Cd 0.77519(4) 1.0000 0.80103(15)
O4_13 O 0.7500 0.7500 0.5000
O5_10 O 0.73731(14) 0.66144(13) 0.53463(11)
O6_10 O 0.76269(14) 0.83856(13) 0.53463(11)
O8_10 O 0.83856(13) 0.73731(14) 0.46537(11)
O9_10 O 0.83856(13) 0.73731(14) 0.53463(11)
O10_10 O 0.66144(13) 0.76269(14) 0.46537(11)
O14_10 O 0.96537(11) 0.83856(13) 0.23731(14)
O15_10 O 0.73731(14) 0.96537(11) 0.33856(13)
O20_10 O 0.69896(12) 0.73906(15) 0.46916(11)
O22_10 O 0.76094(15) 0.69896(12) 0.53084(11)
O24_10 O 0.80104(12) 0.76094(15) 0.53084(11)
O25_10 O 0.73906(15) 0.80104(12) 0.53084(11)
O26_10 O 0.80104(12) 0.76094(15) 0.46916(11)
O29_10 O 0.96916(11) 0.80104(12) 0.26094(15)
O30_10 O 0.76094(15) 0.96916(11) 0.30104(12)
C15_10 C 0.82494(16) 0.75733(17) 0.45801(13)
C20_10 C 0.95801(13) 0.82494(16) 0.25733(17)
C21_10 C 0.75733(17) 0.95801(13) 0.32494(16)
C26_10 C 0.83398(12) 0.77554(18) 0.43591(13)
C31_10 C 0.93591(13) 0.83398(12) 0.27554(18)
C32_10 C 0.77554(18) 0.93591(13) 0.33398(12)
C37_10 C 0.81751(15) 0.79777(17) 0.42783(14)
C42_10 C 0.92783(14) 0.81751(15) 0.29777(17)
C43_10 C 0.79777(17) 0.92783(14) 0.31751(15)
H14_10 H 0.8005 0.8014 0.4368
H19_10 H 0.9368 0.8005 0.3014
H20_10 H 0.8014 0.9368 0.3005
C50_10 C 0.82668(13) 0.81448(15) 0.40625(13)
C53_10 C 0.90625(13) 0.82668(13) 0.31448(15)
C54_10 C 0.81448(15) 0.90625(13) 0.32668(13)
C61_10 C 0.85075(12) 0.80866(14) 0.39205(13)
C64_10 C 0.80866(14) 0.89205(13) 0.35075(12)
C67_10 C 0.89205(13) 0.85075(12) 0.30866(14)
C72_10 C 0.86669(13) 0.78683(15) 0.40102(14)
C75_10 C 0.78683(15) 0.90102(14) 0.36669(13)
C78_10 C 0.90102(14) 0.86669(13) 0.28683(15)
H27_10 H 0.8837 0.7830 0.3922
H30_10 H 0.7830 0.8922 0.3837
H33_10 H 0.8922 0.8837 0.2830
C81_10 C 0.85815(14) 0.77067(16) 0.42248(13)
C86_10 C 0.77067(16) 0.92248(13) 0.35815(14)
C89_10 C 0.92248(13) 0.85815(14) 0.27067(16)
H36_10 H 0.8693 0.7557 0.4282
H41_10 H 0.7557 0.9282 0.3693
H44_10 H 0.9282 0.8693 0.2557
C94_10 C 0.81276(14) 0.83989(15) 0.39584(15)
C97_10 C 0.89584(15) 0.81276(14) 0.33989(15)
C100_10 C 0.83989(15) 0.89584(15) 0.31276(14)
C105_10 C 0.83156(13) 0.84789(14) 0.37213(13)
C108_10 C 0.87213(13) 0.83156(13) 0.34789(14)
C111_10 C 0.84789(14) 0.87213(13) 0.33156(13)
C116_10 C 0.85336(13) 0.82927(12) 0.36976(12)
C119_10 C 0.82927(12) 0.86976(12) 0.35336(13)
C122_10 C 0.86976(12) 0.85336(13) 0.32927(12)
C127_10 C 0.78407(18) 0.83290(18) 0.38603(19)
C130_10 C 0.88603(19) 0.78407(18) 0.33290(18)
C133_10 C 0.83290(18) 0.88603(19) 0.28407(18)
H49_10 H 0.7748 0.8501 0.3805
H52_10 H 0.8805 0.7748 0.3501
H55_10 H 0.8501 0.8805 0.2748
H60_10 H 0.7737 0.8251 0.4016
H63_10 H 0.9016 0.7737 0.3251
H66_10 H 0.8251 0.9016 0.2737
C138_10 C 0.7826(3) 0.8122(2) 0.3614(2)
C141_10 C 0.8614(2) 0.7826(3) 0.3122(2)
C144_10 C 0.8122(2) 0.8614(2) 0.2826(3)
H71_10 H 0.7934 0.8194 0.3460
H74_10 H 0.8460 0.7934 0.3194
H77_10 H 0.8194 0.8460 0.2934
H82_10 H 0.7634 0.8100 0.3557
H85_10 H 0.8557 0.7634 0.3100
H88_10 H 0.8100 0.8557 0.2634
H93_10 H 0.7900 0.7944 0.3672
H96_10 H 0.8672 0.7900 0.2944
H99_10 H 0.7944 0.8672 0.2900
C149_10 C 0.81330(18) 0.8618(2) 0.41980(17)
C152_10 C 0.91980(17) 0.81330(18) 0.3618(2)
C155_10 C 0.8618(2) 0.91980(17) 0.31330(18)
H104_10 H 0.8041 0.8787 0.4134
H107_10 H 0.9134 0.8041 0.3787
H110_10 H 0.8787 0.9134 0.3041
H115_10 H 0.8027 0.8546 0.4355
H118_10 H 0.9355 0.8027 0.3546
H121_10 H 0.8546 0.9355 0.3027
C160_10 C 0.8431(2) 0.8694(2) 0.4300(2)
C163_10 C 0.9300(2) 0.8431(2) 0.3694(2)
C166_10 C 0.8694(2) 0.9300(2) 0.3431(2)
H126_10 H 0.8521 0.8529 0.4371
H129_10 H 0.9371 0.8521 0.3529
H132_10 H 0.8529 0.9371 0.3521
H137_10 H 0.8419 0.8833 0.4445
H140_10 H 0.9445 0.8419 0.3833
H143_10 H 0.8833 0.9445 0.3419
H148_10 H 0.8537 0.8767 0.4146
H151_10 H 0.9146 0.8537 0.3767
H154_10 H 0.8767 0.9146 0.3537
O4_14 O 0.7500 0.2500 0.5000
Cd11_8 Cd 0.80103(15) 0.0000 0.72481(4)
O5_11 O 0.73731(14) 0.33856(13) 0.46537(11)
O6_11 O 0.76269(14) 0.16144(13) 0.46537(11)
O8_11 O 0.83856(13) 0.26269(14) 0.53463(11)
O9_11 O 0.83856(13) 0.26269(14) 0.46537(11)
O10_11 O 0.66144(13) 0.23731(14) 0.53463(11)
O14_11 O 0.96537(11) 0.16144(13) 0.76269(14)
O15_11 O 0.73731(14) 0.03463(11) 0.66144(13)
O20_11 O 0.69896(12) 0.26094(15) 0.53084(11)
O22_11 O 0.76094(15) 0.30104(12) 0.46916(11)
O24_11 O 0.80104(12) 0.23906(15) 0.46916(11)
O25_11 O 0.73906(15) 0.19896(12) 0.46916(11)
O26_11 O 0.80104(12) 0.23906(15) 0.53084(11)
O29_11 O 0.96916(11) 0.19896(12) 0.73906(15)
O30_11 O 0.76094(15) 0.03084(11) 0.69896(12)
C15_11 C 0.82494(16) 0.24267(17) 0.54199(13)
C20_11 C 0.95801(13) 0.17506(16) 0.74267(17)
C21_11 C 0.75733(17) 0.04199(13) 0.67506(16)
C26_11 C 0.83398(12) 0.22446(18) 0.56409(13)
C31_11 C 0.93591(13) 0.16602(12) 0.72446(18)
C32_11 C 0.77554(18) 0.06409(13) 0.66602(12)
C37_11 C 0.81751(15) 0.20223(17) 0.57217(14)
C42_11 C 0.92783(14) 0.18249(15) 0.70223(17)
C43_11 C 0.79777(17) 0.07217(14) 0.68249(15)
H14_11 H 0.8005 0.1986 0.5632
H19_11 H 0.9368 0.1995 0.6986
H20_11 H 0.8014 0.0632 0.6995
C50_11 C 0.82668(13) 0.18552(15) 0.59375(13)
C53_11 C 0.90625(13) 0.17332(13) 0.68552(15)
C54_11 C 0.81448(15) 0.09375(13) 0.67332(13)
C61_11 C 0.85075(12) 0.19134(14) 0.60795(13)
C64_11 C 0.80866(14) 0.10795(13) 0.64925(12)
C67_11 C 0.89205(13) 0.14925(12) 0.69134(14)
C72_11 C 0.86669(13) 0.21317(15) 0.59898(14)
C75_11 C 0.78683(15) 0.09898(14) 0.63331(13)
C78_11 C 0.90102(14) 0.13331(13) 0.71317(15)
H27_11 H 0.8837 0.2170 0.6078
H30_11 H 0.7830 0.1078 0.6163
H33_11 H 0.8922 0.1163 0.7170
C81_11 C 0.85815(14) 0.22933(16) 0.57752(13)
C86_11 C 0.77067(16) 0.07752(13) 0.64185(14)
C89_11 C 0.92248(13) 0.14185(14) 0.72933(16)
H36_11 H 0.8693 0.2443 0.5718
H41_11 H 0.7557 0.0718 0.6307
H44_11 H 0.9282 0.1307 0.7443
C94_11 C 0.81276(14) 0.16011(15) 0.60416(15)
C97_11 C 0.89584(15) 0.18724(14) 0.66011(15)
C100_11 C 0.83989(15) 0.10416(15) 0.68724(14)
C105_11 C 0.83156(13) 0.15211(14) 0.62787(13)
C108_11 C 0.87213(13) 0.16844(13) 0.65211(14)
C111_11 C 0.84789(14) 0.12787(13) 0.66844(13)
C116_11 C 0.85336(13) 0.17073(12) 0.63024(12)
C119_11 C 0.82927(12) 0.13024(12) 0.64664(13)
C122_11 C 0.86976(12) 0.14664(13) 0.67073(12)
C127_11 C 0.78407(18) 0.16710(18) 0.61397(19)
C130_11 C 0.88603(19) 0.21593(18) 0.66710(18)
C133_11 C 0.83290(18) 0.11397(19) 0.71593(18)
H49_11 H 0.7748 0.1499 0.6195
H52_11 H 0.8805 0.2252 0.6499
H55_11 H 0.8501 0.1195 0.7252
H60_11 H 0.7737 0.1749 0.5984
H63_11 H 0.9016 0.2263 0.6749
H66_11 H 0.8251 0.0984 0.7263
C138_11 C 0.7826(3) 0.1878(2) 0.6386(2)
C141_11 C 0.8614(2) 0.2174(3) 0.6878(2)
C144_11 C 0.8122(2) 0.1386(2) 0.7174(3)
H71_11 H 0.7934 0.1806 0.6540
H74_11 H 0.8460 0.2066 0.6806
H77_11 H 0.8194 0.1540 0.7066
H82_11 H 0.7634 0.1900 0.6443
H85_11 H 0.8557 0.2366 0.6900
H88_11 H 0.8100 0.1443 0.7366
H93_11 H 0.7900 0.2056 0.6328
H96_11 H 0.8672 0.2100 0.7056
H99_11 H 0.7944 0.1328 0.7100
C149_11 C 0.81330(18) 0.1382(2) 0.58020(17)
C152_11 C 0.91980(17) 0.18670(18) 0.6382(2)
C155_11 C 0.8618(2) 0.08020(17) 0.68670(18)
H104_11 H 0.8041 0.1213 0.5866
H107_11 H 0.9134 0.1959 0.6213
H110_11 H 0.8787 0.0866 0.6959
H115_11 H 0.8027 0.1454 0.5645
H118_11 H 0.9355 0.1973 0.6454
H121_11 H 0.8546 0.0645 0.6973
C160_11 C 0.8431(2) 0.1306(2) 0.5700(2)
C163_11 C 0.9300(2) 0.1569(2) 0.6306(2)
C166_11 C 0.8694(2) 0.0700(2) 0.6569(2)
H126_11 H 0.8521 0.1471 0.5629
H129_11 H 0.9371 0.1479 0.6471
H132_11 H 0.8529 0.0629 0.6479
H137_11 H 0.8419 0.1167 0.5555
H140_11 H 0.9445 0.1581 0.6167
H143_11 H 0.8833 0.0555 0.6581
H148_11 H 0.8537 0.1233 0.5854
H151_11 H 0.9146 0.1463 0.6233
H154_11 H 0.8767 0.0854 0.6463
Cd11_9 Cd 0.80103(15) 1.0000 0.72481(4)
O4_15 O 0.2500 0.7500 0.5000
Cd9_8 Cd 0.0000 0.80103(15) 0.77519(4)
O5_12 O 0.26269(14) 0.66144(13) 0.46537(11)
O6_12 O 0.23731(14) 0.83856(13) 0.46537(11)
O8_12 O 0.16144(13) 0.73731(14) 0.53463(11)
O9_12 O 0.16144(13) 0.73731(14) 0.46537(11)
O10_12 O 0.33856(13) 0.76269(14) 0.53463(11)
O14_12 O 0.03463(11) 0.83856(13) 0.76269(14)
O15_12 O 0.26269(14) 0.96537(11) 0.66144(13)
O20_12 O 0.30104(12) 0.73906(15) 0.53084(11)
O22_12 O 0.23906(15) 0.69896(12) 0.46916(11)
O24_12 O 0.19896(12) 0.76094(15) 0.46916(11)
O25_12 O 0.26094(15) 0.80104(12) 0.46916(11)
O26_12 O 0.19896(12) 0.76094(15) 0.53084(11)
O29_12 O 0.03084(11) 0.80104(12) 0.73906(15)
O30_12 O 0.23906(15) 0.96916(11) 0.69896(12)
C15_12 C 0.17506(16) 0.75733(17) 0.54199(13)
C20_12 C 0.04199(13) 0.82494(16) 0.74267(17)
C21_12 C 0.24267(17) 0.95801(13) 0.67506(16)
C26_12 C 0.16602(12) 0.77554(18) 0.56409(13)
C31_12 C 0.06409(13) 0.83398(12) 0.72446(18)
C32_12 C 0.22446(18) 0.93591(13) 0.66602(12)
C37_12 C 0.18249(15) 0.79777(17) 0.57217(14)
C42_12 C 0.07217(14) 0.81751(15) 0.70223(17)
C43_12 C 0.20223(17) 0.92783(14) 0.68249(15)
H14_12 H 0.1995 0.8014 0.5632
H19_12 H 0.0632 0.8005 0.6986
H20_12 H 0.1986 0.9368 0.6995
C50_12 C 0.17332(13) 0.81448(15) 0.59375(13)
C53_12 C 0.09375(13) 0.82668(13) 0.68552(15)
C54_12 C 0.18552(15) 0.90625(13) 0.67332(13)
C61_12 C 0.14925(12) 0.80866(14) 0.60795(13)
C64_12 C 0.19134(14) 0.89205(13) 0.64925(12)
C67_12 C 0.10795(13) 0.85075(12) 0.69134(14)
C72_12 C 0.13331(13) 0.78683(15) 0.59898(14)
C75_12 C 0.21317(15) 0.90102(14) 0.63331(13)
C78_12 C 0.09898(14) 0.86669(13) 0.71317(15)
H27_12 H 0.1163 0.7830 0.6078
H30_12 H 0.2170 0.8922 0.6163
H33_12 H 0.1078 0.8837 0.7170
C81_12 C 0.14185(14) 0.77067(16) 0.57752(13)
C86_12 C 0.22933(16) 0.92248(13) 0.64185(14)
C89_12 C 0.07752(13) 0.85815(14) 0.72933(16)
H36_12 H 0.1307 0.7557 0.5718
H41_12 H 0.2443 0.9282 0.6307
H44_12 H 0.0718 0.8693 0.7443
C94_12 C 0.18724(14) 0.83989(15) 0.60416(15)
C97_12 C 0.10416(15) 0.81276(14) 0.66011(15)
C100_12 C 0.16011(15) 0.89584(15) 0.68724(14)
C105_12 C 0.16844(13) 0.84789(14) 0.62787(13)
C108_12 C 0.12787(13) 0.83156(13) 0.65211(14)
C111_12 C 0.15211(14) 0.87213(13) 0.66844(13)
C116_12 C 0.14664(13) 0.82927(12) 0.63024(12)
C119_12 C 0.17073(12) 0.86976(12) 0.64664(13)
C122_12 C 0.13024(12) 0.85336(13) 0.67073(12)
C127_12 C 0.21593(18) 0.83290(18) 0.61397(19)
C130_12 C 0.11397(19) 0.78407(18) 0.66710(18)
C133_12 C 0.16710(18) 0.88603(19) 0.71593(18)
H49_12 H 0.2252 0.8501 0.6195
H52_12 H 0.1195 0.7748 0.6499
H55_12 H 0.1499 0.8805 0.7252
H60_12 H 0.2263 0.8251 0.5984
H63_12 H 0.0984 0.7737 0.6749
H66_12 H 0.1749 0.9016 0.7263
C138_12 C 0.2174(3) 0.8122(2) 0.6386(2)
C141_12 C 0.1386(2) 0.7826(3) 0.6878(2)
C144_12 C 0.1878(2) 0.8614(2) 0.7174(3)
H71_12 H 0.2066 0.8194 0.6540
H74_12 H 0.1540 0.7934 0.6806
H77_12 H 0.1806 0.8460 0.7066
H82_12 H 0.2366 0.8100 0.6443
H85_12 H 0.1443 0.7634 0.6900
H88_12 H 0.1900 0.8557 0.7366
H93_12 H 0.2100 0.7944 0.6328
H96_12 H 0.1328 0.7900 0.7056
H99_12 H 0.2056 0.8672 0.7100
C149_12 C 0.18670(18) 0.8618(2) 0.58020(17)
C152_12 C 0.08020(17) 0.81330(18) 0.6382(2)
C155_12 C 0.1382(2) 0.91980(17) 0.68670(18)
H104_12 H 0.1959 0.8787 0.5866
H107_12 H 0.0866 0.8041 0.6213
H110_12 H 0.1213 0.9134 0.6959
H115_12 H 0.1973 0.8546 0.5645
H118_12 H 0.0645 0.8027 0.6454
H121_12 H 0.1454 0.9355 0.6973
C160_12 C 0.1569(2) 0.8694(2) 0.5700(2)
C163_12 C 0.0700(2) 0.8431(2) 0.6306(2)
C166_12 C 0.1306(2) 0.9300(2) 0.6569(2)
H126_12 H 0.1479 0.8529 0.5629
H129_12 H 0.0629 0.8521 0.6471
H132_12 H 0.1471 0.9371 0.6479
H137_12 H 0.1581 0.8833 0.5555
H140_12 H 0.0555 0.8419 0.6167
H143_12 H 0.1167 0.9445 0.6581
H148_12 H 0.1463 0.8767 0.5854
H151_12 H 0.0854 0.8537 0.6233
H154_12 H 0.1233 0.9146 0.6463
Cd9_9 Cd 1.0000 0.80103(15) 0.77519(4)
O4_16 O 0.0000 0.7500 0.7500
O8_13 O 0.03463(11) 0.73731(14) 0.83856(13)
O14_13 O 0.26269(14) 0.83856(13) 0.96537(11)
O15_13 O 0.16144(13) 0.96537(11) 0.73731(14)
O26_13 O 0.03084(11) 0.76094(15) 0.80104(12)
O29_13 O 0.23906(15) 0.80104(12) 0.96916(11)
O30_13 O 0.19896(12) 0.96916(11) 0.76094(15)
C15_13 C 0.04199(13) 0.75733(17) 0.82494(16)
C20_13 C 0.24267(17) 0.82494(16) 0.95801(13)
C21_13 C 0.17506(16) 0.95801(13) 0.75733(17)
C26_13 C 0.06409(13) 0.77554(18) 0.83398(12)
C31_13 C 0.22446(18) 0.83398(12) 0.93591(13)
C32_13 C 0.16602(12) 0.93591(13) 0.77554(18)
C37_13 C 0.07217(14) 0.79777(17) 0.81751(15)
C42_13 C 0.20223(17) 0.81751(15) 0.92783(14)
C43_13 C 0.18249(15) 0.92783(14) 0.79777(17)
H14_13 H 0.0632 0.8014 0.8005
H19_13 H 0.1986 0.8005 0.9368
H20_13 H 0.1995 0.9368 0.8014
C50_13 C 0.09375(13) 0.81448(15) 0.82668(13)
C53_13 C 0.18552(15) 0.82668(13) 0.90625(13)
C54_13 C 0.17332(13) 0.90625(13) 0.81448(15)
C61_13 C 0.10795(13) 0.80866(14) 0.85075(12)
C64_13 C 0.14925(12) 0.89205(13) 0.80866(14)
C67_13 C 0.19134(14) 0.85075(12) 0.89205(13)
C72_13 C 0.09898(14) 0.78683(15) 0.86669(13)
C75_13 C 0.13331(13) 0.90102(14) 0.78683(15)
C78_13 C 0.21317(15) 0.86669(13) 0.90102(14)
H27_13 H 0.1078 0.7830 0.8837
H30_13 H 0.1163 0.8922 0.7830
H33_13 H 0.2170 0.8837 0.8922
C81_13 C 0.07752(13) 0.77067(16) 0.85815(14)
C86_13 C 0.14185(14) 0.92248(13) 0.77067(16)
C89_13 C 0.22933(16) 0.85815(14) 0.92248(13)
H36_13 H 0.0718 0.7557 0.8693
H41_13 H 0.1307 0.9282 0.7557
H44_13 H 0.2443 0.8693 0.9282
C94_13 C 0.10416(15) 0.83989(15) 0.81276(14)
C97_13 C 0.16011(15) 0.81276(14) 0.89584(15)
C100_13 C 0.18724(14) 0.89584(15) 0.83989(15)
C105_13 C 0.12787(13) 0.84789(14) 0.83156(13)
C108_13 C 0.15211(14) 0.83156(13) 0.87213(13)
C111_13 C 0.16844(13) 0.87213(13) 0.84789(14)
C116_13 C 0.13024(12) 0.82927(12) 0.85336(13)
C119_13 C 0.14664(13) 0.86976(12) 0.82927(12)
C122_13 C 0.17073(12) 0.85336(13) 0.86976(12)
C127_13 C 0.11397(19) 0.83290(18) 0.78407(18)
C130_13 C 0.16710(18) 0.78407(18) 0.88603(19)
C133_13 C 0.21593(18) 0.88603(19) 0.83290(18)
H49_13 H 0.1195 0.8501 0.7748
H52_13 H 0.1499 0.7748 0.8805
H55_13 H 0.2252 0.8805 0.8501
H60_13 H 0.0984 0.8251 0.7737
H63_13 H 0.1749 0.7737 0.9016
H66_13 H 0.2263 0.9016 0.8251
C138_13 C 0.1386(2) 0.8122(2) 0.7826(3)
C141_13 C 0.1878(2) 0.7826(3) 0.8614(2)
C144_13 C 0.2174(3) 0.8614(2) 0.8122(2)
H71_13 H 0.1540 0.8194 0.7934
H74_13 H 0.1806 0.7934 0.8460
H77_13 H 0.2066 0.8460 0.8194
H82_13 H 0.1443 0.8100 0.7634
H85_13 H 0.1900 0.7634 0.8557
H88_13 H 0.2366 0.8557 0.8100
H93_13 H 0.1328 0.7944 0.7900
H96_13 H 0.2056 0.7900 0.8672
H99_13 H 0.2100 0.8672 0.7944
C149_13 C 0.08020(17) 0.8618(2) 0.81330(18)
C152_13 C 0.1382(2) 0.81330(18) 0.91980(17)
C155_13 C 0.18670(18) 0.91980(17) 0.8618(2)
H104_13 H 0.0866 0.8787 0.8041
H107_13 H 0.1213 0.8041 0.9134
H110_13 H 0.1959 0.9134 0.8787
H115_13 H 0.0645 0.8546 0.8027
H118_13 H 0.1454 0.8027 0.9355
H121_13 H 0.1973 0.9355 0.8546
C160_13 C 0.0700(2) 0.8694(2) 0.8431(2)
C163_13 C 0.1306(2) 0.8431(2) 0.9300(2)
C166_13 C 0.1569(2) 0.9300(2) 0.8694(2)
H126_13 H 0.0629 0.8529 0.8521
H129_13 H 0.1471 0.8521 0.9371
H132_13 H 0.1479 0.9371 0.8529
H137_13 H 0.0555 0.8833 0.8419
H140_13 H 0.1167 0.8419 0.9445
H143_13 H 0.1581 0.9445 0.8833
H148_13 H 0.0854 0.8767 0.8537
H151_13 H 0.1233 0.8537 0.9146
H154_13 H 0.1463 0.9146 0.8767
O4_17 O 1.0000 0.7500 0.7500
O5_13 O 0.96537(11) 0.66144(13) 0.73731(14)
O6_13 O 0.96537(11) 0.83856(13) 0.76269(14)
O9_13 O 0.96537(11) 0.73731(14) 0.83856(13)
O11_8 O 0.96537(11) 0.76269(14) 0.66144(13)
O21_8 O 0.96916(11) 0.73906(15) 0.69896(12)
O22_13 O 0.96916(11) 0.69896(12) 0.76094(15)
O24_13 O 0.96916(11) 0.76094(15) 0.80104(12)
O25_13 O 0.96916(11) 0.80104(12) 0.73906(15)
C17_8 C 0.95801(13) 0.74267(17) 0.67506(16)
C24_8 C 0.75733(17) 0.67506(16) 0.54199(13)
C25_8 C 0.82494(16) 0.54199(13) 0.74267(17)
C28_8 C 0.93591(13) 0.72446(18) 0.66602(12)
C35_8 C 0.77554(18) 0.66602(12) 0.56409(13)
C36_8 C 0.83398(12) 0.56409(13) 0.72446(18)
C39_8 C 0.92783(14) 0.70223(17) 0.68249(15)
C46_8 C 0.79777(17) 0.68249(15) 0.57217(14)
C47_8 C 0.81751(15) 0.57217(14) 0.70223(17)
H16_8 H 0.9368 0.6986 0.6995
H23_8 H 0.8014 0.6995 0.5632
H24_8 H 0.8005 0.5632 0.6986
C52_8 C 0.90625(13) 0.68552(15) 0.67332(13)
C57_8 C 0.81448(15) 0.67332(13) 0.59375(13)
C58_8 C 0.82668(13) 0.59375(13) 0.68552(15)
C63_8 C 0.89205(13) 0.69134(14) 0.64925(12)
C66_8 C 0.85075(12) 0.60795(13) 0.69134(14)
C69_8 C 0.80866(14) 0.64925(12) 0.60795(13)
C74_8 C 0.90102(14) 0.71317(15) 0.63331(13)
C77_8 C 0.86669(13) 0.59898(14) 0.71317(15)
C80_8 C 0.78683(15) 0.63331(13) 0.59898(14)
H29_8 H 0.8922 0.7170 0.6163
H32_8 H 0.8837 0.6078 0.7170
H35_8 H 0.7830 0.6163 0.6078
C83_8 C 0.92248(13) 0.72933(16) 0.64185(14)
C88_8 C 0.85815(14) 0.57752(13) 0.72933(16)
C91_8 C 0.77067(16) 0.64185(14) 0.57752(13)
H38_8 H 0.9282 0.7443 0.6307
H43_8 H 0.8693 0.5718 0.7443
H46_8 H 0.7557 0.6307 0.5718
C96_8 C 0.89584(15) 0.66011(15) 0.68724(14)
C99_8 C 0.83989(15) 0.68724(14) 0.60416(15)
C102_8 C 0.81276(14) 0.60416(15) 0.66011(15)
C107_8 C 0.87213(13) 0.65211(14) 0.66844(13)
C110_8 C 0.84789(14) 0.66844(13) 0.62787(13)
C113_8 C 0.83156(13) 0.62787(13) 0.65211(14)
C118_8 C 0.86976(12) 0.67073(12) 0.64664(13)
C121_8 C 0.85336(13) 0.63024(12) 0.67073(12)
C124_8 C 0.82927(12) 0.64664(13) 0.63024(12)
C129_8 C 0.88603(19) 0.66710(18) 0.71593(18)
C132_8 C 0.83290(18) 0.71593(18) 0.61397(19)
C135_8 C 0.78407(18) 0.61397(19) 0.66710(18)
H51_8 H 0.8805 0.6499 0.7252
H54_8 H 0.8501 0.7252 0.6195
H57_8 H 0.7748 0.6195 0.6499
H62_8 H 0.9016 0.6749 0.7263
H65_8 H 0.8251 0.7263 0.5984
H68_8 H 0.7737 0.5984 0.6749
C140_8 C 0.8614(2) 0.6878(2) 0.7174(3)
C143_8 C 0.8122(2) 0.7174(3) 0.6386(2)
C146_8 C 0.7826(3) 0.6386(2) 0.6878(2)
H73_8 H 0.8460 0.6806 0.7066
H76_8 H 0.8194 0.7066 0.6540
H79_8 H 0.7934 0.6540 0.6806
H84_8 H 0.8557 0.6900 0.7366
H87_8 H 0.8100 0.7366 0.6443
H90_8 H 0.7634 0.6443 0.6900
H95_8 H 0.8672 0.7056 0.7100
H98_8 H 0.7944 0.7100 0.6328
H101_8 H 0.7900 0.6328 0.7056
C151_8 C 0.91980(17) 0.6382(2) 0.68670(18)
C154_8 C 0.8618(2) 0.68670(18) 0.58020(17)
C157_8 C 0.81330(18) 0.58020(17) 0.6382(2)
H106_8 H 0.9134 0.6213 0.6959
H109_8 H 0.8787 0.6959 0.5866
H112_8 H 0.8041 0.5866 0.6213
H117_8 H 0.9355 0.6454 0.6973
H120_8 H 0.8546 0.6973 0.5645
H123_8 H 0.8027 0.5645 0.6454
C162_8 C 0.9300(2) 0.6306(2) 0.6569(2)
C165_8 C 0.8694(2) 0.6569(2) 0.5700(2)
C168_8 C 0.8431(2) 0.5700(2) 0.6306(2)
H128_8 H 0.9371 0.6471 0.6479
H131_8 H 0.8529 0.6479 0.5629
H134_8 H 0.8521 0.5629 0.6471
H139_8 H 0.9445 0.6167 0.6581
H142_8 H 0.8833 0.6581 0.5555
H145_8 H 0.8419 0.5555 0.6167
H150_8 H 0.9146 0.6233 0.6463
H153_8 H 0.8767 0.6463 0.5854
H156_8 H 0.8537 0.5854 0.6233
C1_9 C 0.25733(17) 0.54199(13) 0.67506(16)
C2_9 C 0.27554(18) 0.56409(13) 0.66602(12)
C3_9 C 0.29777(17) 0.57217(14) 0.68249(15)
H1_9 H 0.3014 0.5632 0.6995
C4_9 C 0.31448(15) 0.59375(13) 0.67332(13)
C5_9 C 0.30866(14) 0.60795(13) 0.64925(12)
C6_9 C 0.28683(15) 0.59898(14) 0.63331(13)
H2_9 H 0.2830 0.6078 0.6163
C7_9 C 0.27067(16) 0.57752(13) 0.64185(14)
H3_9 H 0.2557 0.5718 0.6307
C8_9 C 0.33989(15) 0.60416(15) 0.68724(14)
C9_9 C 0.34789(14) 0.62787(13) 0.66844(13)
C10_9 C 0.32927(12) 0.63024(12) 0.64664(13)
C11_9 C 0.33290(18) 0.61397(19) 0.71593(18)
H4_9 H 0.3501 0.6195 0.7252
H5_9 H 0.3251 0.5984 0.7263
C12_9 C 0.3122(2) 0.6386(2) 0.7174(3)
H6_9 H 0.3194 0.6540 0.7066
H7_9 H 0.3100 0.6443 0.7366
H8_9 H 0.2944 0.6328 0.7100
C13_9 C 0.3618(2) 0.58020(17) 0.68670(18)
H9_9 H 0.3787 0.5866 0.6959
H10_9 H 0.3546 0.5645 0.6973
C14_9 C 0.3694(2) 0.5700(2) 0.6569(2)
H11_9 H 0.3529 0.5629 0.6479
H12_9 H 0.3833 0.5555 0.6581
H13_9 H 0.3767 0.5854 0.6463
O18_8 O 0.03463(11) 0.23731(14) 0.66144(13)
O19_8 O 0.26269(14) 0.33856(13) 0.53463(11)
O33_8 O 0.03084(11) 0.26094(15) 0.69896(12)
O34_8 O 0.23906(15) 0.30104(12) 0.53084(11)
C17_9 C 0.17506(16) 0.45801(13) 0.74267(17)
C18_9 C 0.45801(13) 0.67506(16) 0.74267(17)
C19_9 C 0.32494(16) 0.74267(17) 0.54199(13)
C24_9 C 0.04199(13) 0.25733(17) 0.67506(16)
C25_9 C 0.24267(17) 0.32494(16) 0.54199(13)
C28_9 C 0.16602(12) 0.43591(13) 0.72446(18)
C29_9 C 0.43591(13) 0.66602(12) 0.72446(18)
C30_9 C 0.33398(12) 0.72446(18) 0.56409(13)
C35_9 C 0.06409(13) 0.27554(18) 0.66602(12)
C36_9 C 0.22446(18) 0.33398(12) 0.56409(13)
C39_9 C 0.18249(15) 0.42783(14) 0.70223(17)
C40_9 C 0.42783(14) 0.68249(15) 0.70223(17)
C41_9 C 0.31751(15) 0.70223(17) 0.57217(14)
C46_9 C 0.07217(14) 0.29777(17) 0.68249(15)
C47_9 C 0.20223(17) 0.31751(15) 0.57217(14)
H16_9 H 0.1995 0.4368 0.6986
H17_9 H 0.4368 0.6995 0.6986
H18_9 H 0.3005 0.6986 0.5632
H23_9 H 0.0632 0.3014 0.6995
H24_9 H 0.1986 0.3005 0.5632
C48_9 C 0.40625(13) 0.67332(13) 0.68552(15)
C49_9 C 0.32668(13) 0.68552(15) 0.59375(13)
C52_9 C 0.17332(13) 0.40625(13) 0.68552(15)
C57_9 C 0.09375(13) 0.31448(15) 0.67332(13)
C58_9 C 0.18552(15) 0.32668(13) 0.59375(13)
C59_9 C 0.39205(13) 0.64925(12) 0.69134(14)
C60_9 C 0.35075(12) 0.69134(14) 0.60795(13)
C63_9 C 0.14925(12) 0.39205(13) 0.69134(14)
C66_9 C 0.19134(14) 0.35075(12) 0.60795(13)
C69_9 C 0.10795(13) 0.30866(14) 0.64925(12)
C70_9 C 0.40102(14) 0.63331(13) 0.71317(15)
C71_9 C 0.36669(13) 0.71317(15) 0.59898(14)
C74_9 C 0.13331(13) 0.40102(14) 0.71317(15)
C77_9 C 0.21317(15) 0.36669(13) 0.59898(14)
C80_9 C 0.09898(14) 0.28683(15) 0.63331(13)
H25_9 H 0.3922 0.6163 0.7170
H26_9 H 0.3837 0.7170 0.6078
H29_9 H 0.1163 0.3922 0.7170
H32_9 H 0.2170 0.3837 0.6078
H35_9 H 0.1078 0.2830 0.6163
C83_9 C 0.14185(14) 0.42248(13) 0.72933(16)
C84_9 C 0.42248(13) 0.64185(14) 0.72933(16)
C85_9 C 0.35815(14) 0.72933(16) 0.57752(13)
C88_9 C 0.22933(16) 0.35815(14) 0.57752(13)
C91_9 C 0.07752(13) 0.27067(16) 0.64185(14)
H38_9 H 0.1307 0.4282 0.7443
H39_9 H 0.4282 0.6307 0.7443
H40_9 H 0.3693 0.7443 0.5718
H43_9 H 0.2443 0.3693 0.5718
H46_9 H 0.0718 0.2557 0.6307
C92_9 C 0.31276(14) 0.66011(15) 0.60416(15)
C93_9 C 0.39584(15) 0.68724(14) 0.66011(15)
C96_9 C 0.18724(14) 0.39584(15) 0.66011(15)
C99_9 C 0.10416(15) 0.33989(15) 0.68724(14)
C102_9 C 0.16011(15) 0.31276(14) 0.60416(15)
C103_9 C 0.33156(13) 0.65211(14) 0.62787(13)
C104_9 C 0.37213(13) 0.66844(13) 0.65211(14)
C107_9 C 0.16844(13) 0.37213(13) 0.65211(14)
C110_9 C 0.12787(13) 0.34789(14) 0.66844(13)
C113_9 C 0.15211(14) 0.33156(13) 0.62787(13)
C114_9 C 0.36976(12) 0.64664(13) 0.67073(12)
C115_9 C 0.35336(13) 0.67073(12) 0.63024(12)
C118_9 C 0.14664(13) 0.36976(12) 0.67073(12)
C121_9 C 0.17073(12) 0.35336(13) 0.63024(12)
C124_9 C 0.13024(12) 0.32927(12) 0.64664(13)
C125_9 C 0.28407(18) 0.66710(18) 0.61397(19)
C126_9 C 0.38603(19) 0.71593(18) 0.66710(18)
C129_9 C 0.21593(18) 0.38603(19) 0.66710(18)
C132_9 C 0.11397(19) 0.33290(18) 0.71593(18)
C135_9 C 0.16710(18) 0.28407(18) 0.61397(19)
H47_9 H 0.2748 0.6499 0.6195
H48_9 H 0.3805 0.7252 0.6499
H51_9 H 0.2252 0.3805 0.6499
H54_9 H 0.1195 0.3501 0.7252
H57_9 H 0.1499 0.2748 0.6195
H58_9 H 0.2737 0.6749 0.5984
H59_9 H 0.4016 0.7263 0.6749
H62_9 H 0.2263 0.4016 0.6749
H65_9 H 0.0984 0.3251 0.7263
H68_9 H 0.1749 0.2737 0.5984
C136_9 C 0.2826(3) 0.6878(2) 0.6386(2)
C137_9 C 0.3614(2) 0.7174(3) 0.6878(2)
C140_9 C 0.2174(3) 0.3614(2) 0.6878(2)
C143_9 C 0.1386(2) 0.3122(2) 0.7174(3)
C146_9 C 0.1878(2) 0.2826(3) 0.6386(2)
H69_9 H 0.2934 0.6806 0.6540
H70_9 H 0.3460 0.7066 0.6806
H73_9 H 0.2066 0.3460 0.6806
H76_9 H 0.1540 0.3194 0.7066
H79_9 H 0.1806 0.2934 0.6540
H80_9 H 0.2634 0.6900 0.6443
H81_9 H 0.3557 0.7366 0.6900
H84_9 H 0.2366 0.3557 0.6900
H87_9 H 0.1443 0.3100 0.7366
H90_9 H 0.1900 0.2634 0.6443
H91_9 H 0.2900 0.7056 0.6328
H92_9 H 0.3672 0.7100 0.7056
H95_9 H 0.2100 0.3672 0.7056
H98_9 H 0.1328 0.2944 0.7100
H101_9 H 0.2056 0.2900 0.6328
C147_9 C 0.31330(18) 0.6382(2) 0.58020(17)
C148_9 C 0.41980(17) 0.68670(18) 0.6382(2)
C151_9 C 0.18670(18) 0.41980(17) 0.6382(2)
C154_9 C 0.08020(17) 0.3618(2) 0.68670(18)
C157_9 C 0.1382(2) 0.31330(18) 0.58020(17)
H102_9 H 0.3041 0.6213 0.5866
H103_9 H 0.4134 0.6959 0.6213
H106_9 H 0.1959 0.4134 0.6213
H109_9 H 0.0866 0.3787 0.6959
H112_9 H 0.1213 0.3041 0.5866
H113_9 H 0.3027 0.6454 0.5645
H114_9 H 0.4355 0.6973 0.6454
H117_9 H 0.1973 0.4355 0.6454
H120_9 H 0.0645 0.3546 0.6973
H123_9 H 0.1454 0.3027 0.5645
C158_9 C 0.3431(2) 0.6306(2) 0.5700(2)
C159_9 C 0.4300(2) 0.6569(2) 0.6306(2)
C162_9 C 0.1569(2) 0.4300(2) 0.6306(2)
C165_9 C 0.0700(2) 0.3694(2) 0.6569(2)
C168_9 C 0.1306(2) 0.3431(2) 0.5700(2)
H124_9 H 0.3521 0.6471 0.5629
H125_9 H 0.4371 0.6479 0.6471
H128_9 H 0.1479 0.4371 0.6471
H131_9 H 0.0629 0.3529 0.6479
H134_9 H 0.1471 0.3521 0.5629
H135_9 H 0.3419 0.6167 0.5555
H136_9 H 0.4445 0.6581 0.6167
H139_9 H 0.1581 0.4445 0.6167
H142_9 H 0.0555 0.3833 0.6581
H145_9 H 0.1167 0.3419 0.5555
H146_9 H 0.3537 0.6233 0.5854
H147_9 H 0.4146 0.6463 0.6233
H150_9 H 0.1463 0.4146 0.6233
H153_9 H 0.0854 0.3767 0.6463
H156_9 H 0.1233 0.3537 0.5854
O18_9 O 0.16144(13) 0.53463(11) 0.23731(14)
O19_9 O 0.03463(11) 0.76269(14) 0.33856(13)
O33_9 O 0.19896(12) 0.53084(11) 0.26094(15)
O34_9 O 0.03084(11) 0.73906(15) 0.30104(12)
C17_10 C 0.24267(17) 0.67506(16) 0.45801(13)
C24_10 C 0.17506(16) 0.54199(13) 0.25733(17)
C25_10 C 0.04199(13) 0.74267(17) 0.32494(16)
C28_10 C 0.22446(18) 0.66602(12) 0.43591(13)
C35_10 C 0.16602(12) 0.56409(13) 0.27554(18)
C36_10 C 0.06409(13) 0.72446(18) 0.33398(12)
C39_10 C 0.20223(17) 0.68249(15) 0.42783(14)
C46_10 C 0.18249(15) 0.57217(14) 0.29777(17)
C47_10 C 0.07217(14) 0.70223(17) 0.31751(15)
H16_10 H 0.1986 0.6995 0.4368
H23_10 H 0.1995 0.5632 0.3014
H24_10 H 0.0632 0.6986 0.3005
C52_10 C 0.18552(15) 0.67332(13) 0.40625(13)
C57_10 C 0.17332(13) 0.59375(13) 0.31448(15)
C58_10 C 0.09375(13) 0.68552(15) 0.32668(13)
C63_10 C 0.19134(14) 0.64925(12) 0.39205(13)
C66_10 C 0.10795(13) 0.69134(14) 0.35075(12)
C69_10 C 0.14925(12) 0.60795(13) 0.30866(14)
C74_10 C 0.21317(15) 0.63331(13) 0.40102(14)
C77_10 C 0.09898(14) 0.71317(15) 0.36669(13)
C80_10 C 0.13331(13) 0.59898(14) 0.28683(15)
H29_10 H 0.2170 0.6163 0.3922
H32_10 H 0.1078 0.7170 0.3837
H35_10 H 0.1163 0.6078 0.2830
C83_10 C 0.22933(16) 0.64185(14) 0.42248(13)
C88_10 C 0.07752(13) 0.72933(16) 0.35815(14)
C91_10 C 0.14185(14) 0.57752(13) 0.27067(16)
H38_10 H 0.2443 0.6307 0.4282
H43_10 H 0.0718 0.7443 0.3693
H46_10 H 0.1307 0.5718 0.2557
C96_10 C 0.16011(15) 0.68724(14) 0.39584(15)
C99_10 C 0.18724(14) 0.60416(15) 0.33989(15)
C102_10 C 0.10416(15) 0.66011(15) 0.31276(14)
C107_10 C 0.15211(14) 0.66844(13) 0.37213(13)
C110_10 C 0.16844(13) 0.62787(13) 0.34789(14)
C113_10 C 0.12787(13) 0.65211(14) 0.33156(13)
C118_10 C 0.17073(12) 0.64664(13) 0.36976(12)
C121_10 C 0.13024(12) 0.67073(12) 0.35336(13)
C124_10 C 0.14664(13) 0.63024(12) 0.32927(12)
C129_10 C 0.16710(18) 0.71593(18) 0.38603(19)
C132_10 C 0.21593(18) 0.61397(19) 0.33290(18)
C135_10 C 0.11397(19) 0.66710(18) 0.28407(18)
H51_10 H 0.1499 0.7252 0.3805
H54_10 H 0.2252 0.6195 0.3501
H57_10 H 0.1195 0.6499 0.2748
H62_10 H 0.1749 0.7263 0.4016
H65_10 H 0.2263 0.5984 0.3251
H68_10 H 0.0984 0.6749 0.2737
C140_10 C 0.1878(2) 0.7174(3) 0.3614(2)
C143_10 C 0.2174(3) 0.6386(2) 0.3122(2)
C146_10 C 0.1386(2) 0.6878(2) 0.2826(3)
H73_10 H 0.1806 0.7066 0.3460
H76_10 H 0.2066 0.6540 0.3194
H79_10 H 0.1540 0.6806 0.2934
H84_10 H 0.1900 0.7366 0.3557
H87_10 H 0.2366 0.6443 0.3100
H90_10 H 0.1443 0.6900 0.2634
H95_10 H 0.2056 0.7100 0.3672
H98_10 H 0.2100 0.6328 0.2944
H101_10 H 0.1328 0.7056 0.2900
C151_10 C 0.1382(2) 0.68670(18) 0.41980(17)
C154_10 C 0.18670(18) 0.58020(17) 0.3618(2)
C157_10 C 0.08020(17) 0.6382(2) 0.31330(18)
H106_10 H 0.1213 0.6959 0.4134
H109_10 H 0.1959 0.5866 0.3787
H112_10 H 0.0866 0.6213 0.3041
H117_10 H 0.1454 0.6973 0.4355
H120_10 H 0.1973 0.5645 0.3546
H123_10 H 0.0645 0.6454 0.3027
C162_10 C 0.1306(2) 0.6569(2) 0.4300(2)
C165_10 C 0.1569(2) 0.5700(2) 0.3694(2)
C168_10 C 0.0700(2) 0.6306(2) 0.3431(2)
H128_10 H 0.1471 0.6479 0.4371
H131_10 H 0.1479 0.5629 0.3529
H134_10 H 0.0629 0.6471 0.3521
H139_10 H 0.1167 0.6581 0.4445
H142_10 H 0.1581 0.5555 0.3833
H145_10 H 0.0555 0.6167 0.3419
H150_10 H 0.1233 0.6463 0.4146
H153_10 H 0.1463 0.5854 0.3767
H156_10 H 0.0854 0.6233 0.3537
O4_18 O 0.7500 0.0000 0.7500
O7_5 O 0.83856(13) 0.03463(11) 0.73731(14)
O16_5 O 0.96537(11) 0.26269(14) 0.83856(13)
O17_5 O 0.73731(14) 0.16144(13) 0.96537(11)
O23_5 O 0.80104(12) 0.03084(11) 0.76094(15)
O31_5 O 0.96916(11) 0.23906(15) 0.80104(12)
O32_5 O 0.76094(15) 0.19896(12) 0.96916(11)
C16_5 C 0.82494(16) 0.04199(13) 0.75733(17)
C22_5 C 0.95801(13) 0.24267(17) 0.82494(16)
C23_5 C 0.75733(17) 0.17506(16) 0.95801(13)
C27_5 C 0.83398(12) 0.06409(13) 0.77554(18)
C33_5 C 0.93591(13) 0.22446(18) 0.83398(12)
C34_5 C 0.77554(18) 0.16602(12) 0.93591(13)
C38_5 C 0.81751(15) 0.07217(14) 0.79777(17)
C44_5 C 0.92783(14) 0.20223(17) 0.81751(15)
C45_5 C 0.79777(17) 0.18249(15) 0.92783(14)
H15_5 H 0.8005 0.0632 0.8014
H21_5 H 0.9368 0.1986 0.8005
H22_5 H 0.8014 0.1995 0.9368
C51_5 C 0.82668(13) 0.09375(13) 0.81448(15)
C55_5 C 0.90625(13) 0.18552(15) 0.82668(13)
C56_5 C 0.81448(15) 0.17332(13) 0.90625(13)
C62_5 C 0.85075(12) 0.10795(13) 0.80866(14)
C65_5 C 0.80866(14) 0.14925(12) 0.89205(13)
C68_5 C 0.89205(13) 0.19134(14) 0.85075(12)
C73_5 C 0.86669(13) 0.09898(14) 0.78683(15)
C76_5 C 0.78683(15) 0.13331(13) 0.90102(14)
C79_5 C 0.90102(14) 0.21317(15) 0.86669(13)
H28_5 H 0.8837 0.1078 0.7830
H31_5 H 0.7830 0.1163 0.8922
H34_5 H 0.8922 0.2170 0.8837
C82_5 C 0.85815(14) 0.07752(13) 0.77067(16)
C87_5 C 0.77067(16) 0.14185(14) 0.92248(13)
C90_5 C 0.92248(13) 0.22933(16) 0.85815(14)
H37_5 H 0.8693 0.0718 0.7557
H42_5 H 0.7557 0.1307 0.9282
H45_5 H 0.9282 0.2443 0.8693
C95_5 C 0.81276(14) 0.10416(15) 0.83989(15)
C98_5 C 0.89584(15) 0.16011(15) 0.81276(14)
C101_5 C 0.83989(15) 0.18724(14) 0.89584(15)
C106_5 C 0.83156(13) 0.12787(13) 0.84789(14)
C109_5 C 0.87213(13) 0.15211(14) 0.83156(13)
C112_5 C 0.84789(14) 0.16844(13) 0.87213(13)
C117_5 C 0.85336(13) 0.13024(12) 0.82927(12)
C120_5 C 0.82927(12) 0.14664(13) 0.86976(12)
C123_5 C 0.86976(12) 0.17073(12) 0.85336(13)
C128_5 C 0.78407(18) 0.11397(19) 0.83290(18)
C131_5 C 0.88603(19) 0.16710(18) 0.78407(18)
C134_5 C 0.83290(18) 0.21593(18) 0.88603(19)
H50_5 H 0.7748 0.1195 0.8501
H53_5 H 0.8805 0.1499 0.7748
H56_5 H 0.8501 0.2252 0.8805
H61_5 H 0.7737 0.0984 0.8251
H64_5 H 0.9016 0.1749 0.7737
H67_5 H 0.8251 0.2263 0.9016
C139_5 C 0.7826(3) 0.1386(2) 0.8122(2)
C142_5 C 0.8614(2) 0.1878(2) 0.7826(3)
C145_5 C 0.8122(2) 0.2174(3) 0.8614(2)
H72_5 H 0.7934 0.1540 0.8194
H75_5 H 0.8460 0.1806 0.7934
H78_5 H 0.8194 0.2066 0.8460
H83_5 H 0.7634 0.1443 0.8100
H86_5 H 0.8557 0.1900 0.7634
H89_5 H 0.8100 0.2366 0.8557
H94_5 H 0.7900 0.1328 0.7944
H97_5 H 0.8672 0.2056 0.7900
H100_5 H 0.7944 0.2100 0.8672
C150_5 C 0.81330(18) 0.08020(17) 0.8618(2)
C153_5 C 0.91980(17) 0.1382(2) 0.81330(18)
C156_5 C 0.8618(2) 0.18670(18) 0.91980(17)
H105_5 H 0.8041 0.0866 0.8787
H108_5 H 0.9134 0.1213 0.8041
H111_5 H 0.8787 0.1959 0.9134
H116_5 H 0.8027 0.0645 0.8546
H119_5 H 0.9355 0.1454 0.8027
H122_5 H 0.8546 0.1973 0.9355
C161_5 C 0.8431(2) 0.0700(2) 0.8694(2)
C164_5 C 0.9300(2) 0.1306(2) 0.8431(2)
C167_5 C 0.8694(2) 0.1569(2) 0.9300(2)
H127_5 H 0.8521 0.0629 0.8529
H130_5 H 0.9371 0.1471 0.8521
H133_5 H 0.8529 0.1479 0.9371
H138_5 H 0.8419 0.0555 0.8833
H141_5 H 0.9445 0.1167 0.8419
H144_5 H 0.8833 0.1581 0.9445
H149_5 H 0.8537 0.0854 0.8767
H152_5 H 0.9146 0.1233 0.8537
H155_5 H 0.8767 0.1463 0.9146
O4_19 O 0.7500 1.0000 0.7500
O5_14 O 0.66144(13) 0.96537(11) 0.76269(14)
O6_14 O 0.83856(13) 0.96537(11) 0.73731(14)
O9_14 O 0.73731(14) 0.96537(11) 0.66144(13)
O11_9 O 0.76269(14) 0.96537(11) 0.83856(13)
O18_10 O 0.66144(13) 0.73731(14) 0.96537(11)
O21_9 O 0.73906(15) 0.96916(11) 0.80104(12)
O22_14 O 0.69896(12) 0.96916(11) 0.73906(15)
O24_14 O 0.76094(15) 0.96916(11) 0.69896(12)
O25_14 O 0.80104(12) 0.96916(11) 0.76094(15)
O33_10 O 0.69896(12) 0.76094(15) 0.96916(11)
C17_11 C 0.74267(17) 0.95801(13) 0.82494(16)
C24_11 C 0.67506(16) 0.75733(17) 0.95801(13)
C25_11 C 0.54199(13) 0.82494(16) 0.75733(17)
C28_11 C 0.72446(18) 0.93591(13) 0.83398(12)
C35_11 C 0.66602(12) 0.77554(18) 0.93591(13)
C36_11 C 0.56409(13) 0.83398(12) 0.77554(18)
C39_11 C 0.70223(17) 0.92783(14) 0.81751(15)
C46_11 C 0.68249(15) 0.79777(17) 0.92783(14)
C47_11 C 0.57217(14) 0.81751(15) 0.79777(17)
H16_11 H 0.6986 0.9368 0.8005
H23_11 H 0.6995 0.8014 0.9368
H24_11 H 0.5632 0.8005 0.8014
C52_11 C 0.68552(15) 0.90625(13) 0.82668(13)
C57_11 C 0.67332(13) 0.81448(15) 0.90625(13)
C58_11 C 0.59375(13) 0.82668(13) 0.81448(15)
C63_11 C 0.69134(14) 0.89205(13) 0.85075(12)
C66_11 C 0.60795(13) 0.85075(12) 0.80866(14)
C69_11 C 0.64925(12) 0.80866(14) 0.89205(13)
C74_11 C 0.71317(15) 0.90102(14) 0.86669(13)
C77_11 C 0.59898(14) 0.86669(13) 0.78683(15)
C80_11 C 0.63331(13) 0.78683(15) 0.90102(14)
H29_11 H 0.7170 0.8922 0.8837
H32_11 H 0.6078 0.8837 0.7830
H35_11 H 0.6163 0.7830 0.8922
C83_11 C 0.72933(16) 0.92248(13) 0.85815(14)
C88_11 C 0.57752(13) 0.85815(14) 0.77067(16)
C91_11 C 0.64185(14) 0.77067(16) 0.92248(13)
H38_11 H 0.7443 0.9282 0.8693
H43_11 H 0.5718 0.8693 0.7557
H46_11 H 0.6307 0.7557 0.9282
C96_11 C 0.66011(15) 0.89584(15) 0.81276(14)
C99_11 C 0.68724(14) 0.83989(15) 0.89584(15)
C102_11 C 0.60416(15) 0.81276(14) 0.83989(15)
C107_11 C 0.65211(14) 0.87213(13) 0.83156(13)
C110_11 C 0.66844(13) 0.84789(14) 0.87213(13)
C113_11 C 0.62787(13) 0.83156(13) 0.84789(14)
C118_11 C 0.67073(12) 0.86976(12) 0.85336(13)
C121_11 C 0.63024(12) 0.85336(13) 0.82927(12)
C124_11 C 0.64664(13) 0.82927(12) 0.86976(12)
C129_11 C 0.66710(18) 0.88603(19) 0.78407(18)
C132_11 C 0.71593(18) 0.83290(18) 0.88603(19)
C135_11 C 0.61397(19) 0.78407(18) 0.83290(18)
H51_11 H 0.6499 0.8805 0.7748
H54_11 H 0.7252 0.8501 0.8805
H57_11 H 0.6195 0.7748 0.8501
H62_11 H 0.6749 0.9016 0.7737
H65_11 H 0.7263 0.8251 0.9016
H68_11 H 0.5984 0.7737 0.8251
C140_11 C 0.6878(2) 0.8614(2) 0.7826(3)
C143_11 C 0.7174(3) 0.8122(2) 0.8614(2)
C146_11 C 0.6386(2) 0.7826(3) 0.8122(2)
H73_11 H 0.6806 0.8460 0.7934
H76_11 H 0.7066 0.8194 0.8460
H79_11 H 0.6540 0.7934 0.8194
H84_11 H 0.6900 0.8557 0.7634
H87_11 H 0.7366 0.8100 0.8557
H90_11 H 0.6443 0.7634 0.8100
H95_11 H 0.7056 0.8672 0.7900
H98_11 H 0.7100 0.7944 0.8672
H101_11 H 0.6328 0.7900 0.7944
C151_11 C 0.6382(2) 0.91980(17) 0.81330(18)
C154_11 C 0.68670(18) 0.8618(2) 0.91980(17)
C157_11 C 0.58020(17) 0.81330(18) 0.8618(2)
H106_11 H 0.6213 0.9134 0.8041
H109_11 H 0.6959 0.8787 0.9134
H112_11 H 0.5866 0.8041 0.8787
H117_11 H 0.6454 0.9355 0.8027
H120_11 H 0.6973 0.8546 0.9355
H123_11 H 0.5645 0.8027 0.8546
C162_11 C 0.6306(2) 0.9300(2) 0.8431(2)
C165_11 C 0.6569(2) 0.8694(2) 0.9300(2)
C168_11 C 0.5700(2) 0.8431(2) 0.8694(2)
H128_11 H 0.6471 0.9371 0.8521
H131_11 H 0.6479 0.8529 0.9371
H134_11 H 0.5629 0.8521 0.8529
H139_11 H 0.6167 0.9445 0.8419
H142_11 H 0.6581 0.8833 0.9445
H145_11 H 0.5555 0.8419 0.8833
H150_11 H 0.6233 0.9146 0.8537
H153_11 H 0.6463 0.8767 0.9146
H156_11 H 0.5854 0.8537 0.8767
O4_20 O 0.7500 -0.0000 0.2500
O5_15 O 0.66144(13) 0.03463(11) 0.23731(14)
O9_15 O 0.73731(14) 0.03463(11) 0.33856(13)
O11_10 O 0.76269(14) 0.03463(11) 0.16144(13)
O18_11 O 0.66144(13) 0.26269(14) 0.03463(11)
O19_10 O 0.53463(11) 0.16144(13) 0.26269(14)
O21_10 O 0.73906(15) 0.03084(11) 0.19896(12)
O22_15 O 0.69896(12) 0.03084(11) 0.26094(15)
O24_15 O 0.76094(15) 0.03084(11) 0.30104(12)
O33_11 O 0.69896(12) 0.23906(15) 0.03084(11)
O34_10 O 0.53084(11) 0.19896(12) 0.23906(15)
C17_12 C 0.74267(17) 0.04199(13) 0.17506(16)
C24_12 C 0.67506(16) 0.24267(17) 0.04199(13)
C25_12 C 0.54199(13) 0.17506(16) 0.24267(17)
C28_12 C 0.72446(18) 0.06409(13) 0.16602(12)
C35_12 C 0.66602(12) 0.22446(18) 0.06409(13)
C36_12 C 0.56409(13) 0.16602(12) 0.22446(18)
C39_12 C 0.70223(17) 0.07217(14) 0.18249(15)
C46_12 C 0.68249(15) 0.20223(17) 0.07217(14)
C47_12 C 0.57217(14) 0.18249(15) 0.20223(17)
H16_12 H 0.6986 0.0632 0.1995
H23_12 H 0.6995 0.1986 0.0632
H24_12 H 0.5632 0.1995 0.1986
C52_12 C 0.68552(15) 0.09375(13) 0.17332(13)
C57_12 C 0.67332(13) 0.18552(15) 0.09375(13)
C58_12 C 0.59375(13) 0.17332(13) 0.18552(15)
C63_12 C 0.69134(14) 0.10795(13) 0.14925(12)
C66_12 C 0.60795(13) 0.14925(12) 0.19134(14)
C69_12 C 0.64925(12) 0.19134(14) 0.10795(13)
C74_12 C 0.71317(15) 0.09898(14) 0.13331(13)
C77_12 C 0.59898(14) 0.13331(13) 0.21317(15)
C80_12 C 0.63331(13) 0.21317(15) 0.09898(14)
H29_12 H 0.7170 0.1078 0.1163
H32_12 H 0.6078 0.1163 0.2170
H35_12 H 0.6163 0.2170 0.1078
C83_12 C 0.72933(16) 0.07752(13) 0.14185(14)
C88_12 C 0.57752(13) 0.14185(14) 0.22933(16)
C91_12 C 0.64185(14) 0.22933(16) 0.07752(13)
H38_12 H 0.7443 0.0718 0.1307
H43_12 H 0.5718 0.1307 0.2443
H46_12 H 0.6307 0.2443 0.0718
C96_12 C 0.66011(15) 0.10416(15) 0.18724(14)
C99_12 C 0.68724(14) 0.16011(15) 0.10416(15)
C102_12 C 0.60416(15) 0.18724(14) 0.16011(15)
C107_12 C 0.65211(14) 0.12787(13) 0.16844(13)
C110_12 C 0.66844(13) 0.15211(14) 0.12787(13)
C113_12 C 0.62787(13) 0.16844(13) 0.15211(14)
C118_12 C 0.67073(12) 0.13024(12) 0.14664(13)
C121_12 C 0.63024(12) 0.14664(13) 0.17073(12)
C124_12 C 0.64664(13) 0.17073(12) 0.13024(12)
C129_12 C 0.66710(18) 0.11397(19) 0.21593(18)
C132_12 C 0.71593(18) 0.16710(18) 0.11397(19)
C135_12 C 0.61397(19) 0.21593(18) 0.16710(18)
H51_12 H 0.6499 0.1195 0.2252
H54_12 H 0.7252 0.1499 0.1195
H57_12 H 0.6195 0.2252 0.1499
H62_12 H 0.6749 0.0984 0.2263
H65_12 H 0.7263 0.1749 0.0984
H68_12 H 0.5984 0.2263 0.1749
C140_12 C 0.6878(2) 0.1386(2) 0.2174(3)
C143_12 C 0.7174(3) 0.1878(2) 0.1386(2)
C146_12 C 0.6386(2) 0.2174(3) 0.1878(2)
H73_12 H 0.6806 0.1540 0.2066
H76_12 H 0.7066 0.1806 0.1540
H79_12 H 0.6540 0.2066 0.1806
H84_12 H 0.6900 0.1443 0.2366
H87_12 H 0.7366 0.1900 0.1443
H90_12 H 0.6443 0.2366 0.1900
H95_12 H 0.7056 0.1328 0.2100
H98_12 H 0.7100 0.2056 0.1328
H101_12 H 0.6328 0.2100 0.2056
C151_12 C 0.6382(2) 0.08020(17) 0.18670(18)
C154_12 C 0.68670(18) 0.1382(2) 0.08020(17)
C157_12 C 0.58020(17) 0.18670(18) 0.1382(2)
H106_12 H 0.6213 0.0866 0.1959
H109_12 H 0.6959 0.1213 0.0866
H112_12 H 0.5866 0.1959 0.1213
H117_12 H 0.6454 0.0645 0.1973
H120_12 H 0.6973 0.1454 0.0645
H123_12 H 0.5645 0.1973 0.1454
C162_12 C 0.6306(2) 0.0700(2) 0.1569(2)
C165_12 C 0.6569(2) 0.1306(2) 0.0700(2)
C168_12 C 0.5700(2) 0.1569(2) 0.1306(2)
H128_12 H 0.6471 0.0629 0.1479
H131_12 H 0.6479 0.1471 0.0629
H134_12 H 0.5629 0.1479 0.1471
H139_12 H 0.6167 0.0555 0.1581
H142_12 H 0.6581 0.1167 0.0555
H145_12 H 0.5555 0.1581 0.1167
H150_12 H 0.6233 0.0854 0.1463
H153_12 H 0.6463 0.1233 0.0854
H156_12 H 0.5854 0.1463 0.1233
O4_21 O 0.7500 1.0000 0.2500
O7_6 O 0.83856(13) 0.96537(11) 0.26269(14)
O16_6 O 0.96537(11) 0.73731(14) 0.16144(13)
O17_6 O 0.73731(14) 0.83856(13) 0.03463(11)
O23_6 O 0.80104(12) 0.96916(11) 0.23906(15)
O31_6 O 0.96916(11) 0.76094(15) 0.19896(12)
O32_6 O 0.76094(15) 0.80104(12) 0.03084(11)
C16_6 C 0.82494(16) 0.95801(13) 0.24267(17)
C22_6 C 0.95801(13) 0.75733(17) 0.17506(16)
C23_6 C 0.75733(17) 0.82494(16) 0.04199(13)
C27_6 C 0.83398(12) 0.93591(13) 0.22446(18)
C33_6 C 0.93591(13) 0.77554(18) 0.16602(12)
C34_6 C 0.77554(18) 0.83398(12) 0.06409(13)
C38_6 C 0.81751(15) 0.92783(14) 0.20223(17)
C44_6 C 0.92783(14) 0.79777(17) 0.18249(15)
C45_6 C 0.79777(17) 0.81751(15) 0.07217(14)
H15_6 H 0.8005 0.9368 0.1986
H21_6 H 0.9368 0.8014 0.1995
H22_6 H 0.8014 0.8005 0.0632
C51_6 C 0.82668(13) 0.90625(13) 0.18552(15)
C55_6 C 0.90625(13) 0.81448(15) 0.17332(13)
C56_6 C 0.81448(15) 0.82668(13) 0.09375(13)
C62_6 C 0.85075(12) 0.89205(13) 0.19134(14)
C65_6 C 0.80866(14) 0.85075(12) 0.10795(13)
C68_6 C 0.89205(13) 0.80866(14) 0.14925(12)
C73_6 C 0.86669(13) 0.90102(14) 0.21317(15)
C76_6 C 0.78683(15) 0.86669(13) 0.09898(14)
C79_6 C 0.90102(14) 0.78683(15) 0.13331(13)
H28_6 H 0.8837 0.8922 0.2170
H31_6 H 0.7830 0.8837 0.1078
H34_6 H 0.8922 0.7830 0.1163
C82_6 C 0.85815(14) 0.92248(13) 0.22933(16)
C87_6 C 0.77067(16) 0.85815(14) 0.07752(13)
C90_6 C 0.92248(13) 0.77067(16) 0.14185(14)
H37_6 H 0.8693 0.9282 0.2443
H42_6 H 0.7557 0.8693 0.0718
H45_6 H 0.9282 0.7557 0.1307
C95_6 C 0.81276(14) 0.89584(15) 0.16011(15)
C98_6 C 0.89584(15) 0.83989(15) 0.18724(14)
C101_6 C 0.83989(15) 0.81276(14) 0.10416(15)
C106_6 C 0.83156(13) 0.87213(13) 0.15211(14)
C109_6 C 0.87213(13) 0.84789(14) 0.16844(13)
C112_6 C 0.84789(14) 0.83156(13) 0.12787(13)
C117_6 C 0.85336(13) 0.86976(12) 0.17073(12)
C120_6 C 0.82927(12) 0.85336(13) 0.13024(12)
C123_6 C 0.86976(12) 0.82927(12) 0.14664(13)
C128_6 C 0.78407(18) 0.88603(19) 0.16710(18)
C131_6 C 0.88603(19) 0.83290(18) 0.21593(18)
C134_6 C 0.83290(18) 0.78407(18) 0.11397(19)
H50_6 H 0.7748 0.8805 0.1499
H53_6 H 0.8805 0.8501 0.2252
H56_6 H 0.8501 0.7748 0.1195
H61_6 H 0.7737 0.9016 0.1749
H64_6 H 0.9016 0.8251 0.2263
H67_6 H 0.8251 0.7737 0.0984
C139_6 C 0.7826(3) 0.8614(2) 0.1878(2)
C142_6 C 0.8614(2) 0.8122(2) 0.2174(3)
C145_6 C 0.8122(2) 0.7826(3) 0.1386(2)
H72_6 H 0.7934 0.8460 0.1806
H75_6 H 0.8460 0.8194 0.2066
H78_6 H 0.8194 0.7934 0.1540
H83_6 H 0.7634 0.8557 0.1900
H86_6 H 0.8557 0.8100 0.2366
H89_6 H 0.8100 0.7634 0.1443
H94_6 H 0.7900 0.8672 0.2056
H97_6 H 0.8672 0.7944 0.2100
H100_6 H 0.7944 0.7900 0.1328
C150_6 C 0.81330(18) 0.91980(17) 0.1382(2)
C153_6 C 0.91980(17) 0.8618(2) 0.18670(18)
C156_6 C 0.8618(2) 0.81330(18) 0.08020(17)
H105_6 H 0.8041 0.9134 0.1213
H108_6 H 0.9134 0.8787 0.1959
H111_6 H 0.8787 0.8041 0.0866
H116_6 H 0.8027 0.9355 0.1454
H119_6 H 0.9355 0.8546 0.1973
H122_6 H 0.8546 0.8027 0.0645
C161_6 C 0.8431(2) 0.9300(2) 0.1306(2)
C164_6 C 0.9300(2) 0.8694(2) 0.1569(2)
C167_6 C 0.8694(2) 0.8431(2) 0.0700(2)
H127_6 H 0.8521 0.9371 0.1471
H130_6 H 0.9371 0.8529 0.1479
H133_6 H 0.8529 0.8521 0.0629
H138_6 H 0.8419 0.9445 0.1167
H141_6 H 0.9445 0.8833 0.1581
H144_6 H 0.8833 0.8419 0.0555
H149_6 H 0.8537 0.9146 0.1233
H152_6 H 0.9146 0.8767 0.1463
H155_6 H 0.8767 0.8537 0.0854
C16_7 C 0.17506(16) 0.04199(13) 0.24267(17)
C22_7 C 0.04199(13) 0.24267(17) 0.17506(16)
C23_7 C 0.24267(17) 0.17506(16) 0.04199(13)
C27_7 C 0.16602(12) 0.06409(13) 0.22446(18)
C33_7 C 0.06409(13) 0.22446(18) 0.16602(12)
C34_7 C 0.22446(18) 0.16602(12) 0.06409(13)
C38_7 C 0.18249(15) 0.07217(14) 0.20223(17)
C44_7 C 0.07217(14) 0.20223(17) 0.18249(15)
C45_7 C 0.20223(17) 0.18249(15) 0.07217(14)
H15_7 H 0.1995 0.0632 0.1986
H21_7 H 0.0632 0.1986 0.1995
H22_7 H 0.1986 0.1995 0.0632
C51_7 C 0.17332(13) 0.09375(13) 0.18552(15)
C55_7 C 0.09375(13) 0.18552(15) 0.17332(13)
C56_7 C 0.18552(15) 0.17332(13) 0.09375(13)
C62_7 C 0.14925(12) 0.10795(13) 0.19134(14)
C65_7 C 0.19134(14) 0.14925(12) 0.10795(13)
C68_7 C 0.10795(13) 0.19134(14) 0.14925(12)
C73_7 C 0.13331(13) 0.09898(14) 0.21317(15)
C76_7 C 0.21317(15) 0.13331(13) 0.09898(14)
C79_7 C 0.09898(14) 0.21317(15) 0.13331(13)
H28_7 H 0.1163 0.1078 0.2170
H31_7 H 0.2170 0.1163 0.1078
H34_7 H 0.1078 0.2170 0.1163
C82_7 C 0.14185(14) 0.07752(13) 0.22933(16)
C87_7 C 0.22933(16) 0.14185(14) 0.07752(13)
C90_7 C 0.07752(13) 0.22933(16) 0.14185(14)
H37_7 H 0.1307 0.0718 0.2443
H42_7 H 0.2443 0.1307 0.0718
H45_7 H 0.0718 0.2443 0.1307
C95_7 C 0.18724(14) 0.10416(15) 0.16011(15)
C98_7 C 0.10416(15) 0.16011(15) 0.18724(14)
C101_7 C 0.16011(15) 0.18724(14) 0.10416(15)
C106_7 C 0.16844(13) 0.12787(13) 0.15211(14)
C109_7 C 0.12787(13) 0.15211(14) 0.16844(13)
C112_7 C 0.15211(14) 0.16844(13) 0.12787(13)
C117_7 C 0.14664(13) 0.13024(12) 0.17073(12)
C120_7 C 0.17073(12) 0.14664(13) 0.13024(12)
C123_7 C 0.13024(12) 0.17073(12) 0.14664(13)
C128_7 C 0.21593(18) 0.11397(19) 0.16710(18)
C131_7 C 0.11397(19) 0.16710(18) 0.21593(18)
C134_7 C 0.16710(18) 0.21593(18) 0.11397(19)
H50_7 H 0.2252 0.1195 0.1499
H53_7 H 0.1195 0.1499 0.2252
H56_7 H 0.1499 0.2252 0.1195
H61_7 H 0.2263 0.0984 0.1749
H64_7 H 0.0984 0.1749 0.2263
H67_7 H 0.1749 0.2263 0.0984
C139_7 C 0.2174(3) 0.1386(2) 0.1878(2)
C142_7 C 0.1386(2) 0.1878(2) 0.2174(3)
C145_7 C 0.1878(2) 0.2174(3) 0.1386(2)
H72_7 H 0.2066 0.1540 0.1806
H75_7 H 0.1540 0.1806 0.2066
H78_7 H 0.1806 0.2066 0.1540
H83_7 H 0.2366 0.1443 0.1900
H86_7 H 0.1443 0.1900 0.2366
H89_7 H 0.1900 0.2366 0.1443
H94_7 H 0.2100 0.1328 0.2056
H97_7 H 0.1328 0.2056 0.2100
H100_7 H 0.2056 0.2100 0.1328
C150_7 C 0.18670(18) 0.08020(17) 0.1382(2)
C153_7 C 0.08020(17) 0.1382(2) 0.18670(18)
C156_7 C 0.1382(2) 0.18670(18) 0.08020(17)
H105_7 H 0.1959 0.0866 0.1213
H108_7 H 0.0866 0.1213 0.1959
H111_7 H 0.1213 0.1959 0.0866
H116_7 H 0.1973 0.0645 0.1454
H119_7 H 0.0645 0.1454 0.1973
H122_7 H 0.1454 0.1973 0.0645
C161_7 C 0.1569(2) 0.0700(2) 0.1306(2)
C164_7 C 0.0700(2) 0.1306(2) 0.1569(2)
C167_7 C 0.1306(2) 0.1569(2) 0.0700(2)
H127_7 H 0.1479 0.0629 0.1471
H130_7 H 0.0629 0.1471 0.1479
H133_7 H 0.1471 0.1479 0.0629
H138_7 H 0.1581 0.0555 0.1167
H141_7 H 0.0555 0.1167 0.1581
H144_7 H 0.1167 0.1581 0.0555
H149_7 H 0.1463 0.0854 0.1233
H152_7 H 0.0854 0.1233 0.1463
H155_7 H 0.1233 0.1463 0.0854
O18_12 O 0.33856(13) 0.73731(14) 0.03463(11)
O33_12 O 0.30104(12) 0.76094(15) 0.03084(11)
C17_13 C 0.25733(17) 0.95801(13) 0.17506(16)
C24_13 C 0.32494(16) 0.75733(17) 0.04199(13)
C25_13 C 0.45801(13) 0.82494(16) 0.24267(17)
C28_13 C 0.27554(18) 0.93591(13) 0.16602(12)
C35_13 C 0.33398(12) 0.77554(18) 0.06409(13)
C36_13 C 0.43591(13) 0.83398(12) 0.22446(18)
C39_13 C 0.29777(17) 0.92783(14) 0.18249(15)
C46_13 C 0.31751(15) 0.79777(17) 0.07217(14)
C47_13 C 0.42783(14) 0.81751(15) 0.20223(17)
H16_13 H 0.3014 0.9368 0.1995
H23_13 H 0.3005 0.8014 0.0632
H24_13 H 0.4368 0.8005 0.1986
C52_13 C 0.31448(15) 0.90625(13) 0.17332(13)
C57_13 C 0.32668(13) 0.81448(15) 0.09375(13)
C58_13 C 0.40625(13) 0.82668(13) 0.18552(15)
C63_13 C 0.30866(14) 0.89205(13) 0.14925(12)
C66_13 C 0.39205(13) 0.85075(12) 0.19134(14)
C69_13 C 0.35075(12) 0.80866(14) 0.10795(13)
C74_13 C 0.28683(15) 0.90102(14) 0.13331(13)
C77_13 C 0.40102(14) 0.86669(13) 0.21317(15)
C80_13 C 0.36669(13) 0.78683(15) 0.09898(14)
H29_13 H 0.2830 0.8922 0.1163
H32_13 H 0.3922 0.8837 0.2170
H35_13 H 0.3837 0.7830 0.1078
C83_13 C 0.27067(16) 0.92248(13) 0.14185(14)
C88_13 C 0.42248(13) 0.85815(14) 0.22933(16)
C91_13 C 0.35815(14) 0.77067(16) 0.07752(13)
H38_13 H 0.2557 0.9282 0.1307
H43_13 H 0.4282 0.8693 0.2443
H46_13 H 0.3693 0.7557 0.0718
C96_13 C 0.33989(15) 0.89584(15) 0.18724(14)
C99_13 C 0.31276(14) 0.83989(15) 0.10416(15)
C102_13 C 0.39584(15) 0.81276(14) 0.16011(15)
C107_13 C 0.34789(14) 0.87213(13) 0.16844(13)
C110_13 C 0.33156(13) 0.84789(14) 0.12787(13)
C113_13 C 0.37213(13) 0.83156(13) 0.15211(14)
C118_13 C 0.32927(12) 0.86976(12) 0.14664(13)
C121_13 C 0.36976(12) 0.85336(13) 0.17073(12)
C124_13 C 0.35336(13) 0.82927(12) 0.13024(12)
C129_13 C 0.33290(18) 0.88603(19) 0.21593(18)
C132_13 C 0.28407(18) 0.83290(18) 0.11397(19)
C135_13 C 0.38603(19) 0.78407(18) 0.16710(18)
H51_13 H 0.3501 0.8805 0.2252
H54_13 H 0.2748 0.8501 0.1195
H57_13 H 0.3805 0.7748 0.1499
H62_13 H 0.3251 0.9016 0.2263
H65_13 H 0.2737 0.8251 0.0984
H68_13 H 0.4016 0.7737 0.1749
C140_13 C 0.3122(2) 0.8614(2) 0.2174(3)
C143_13 C 0.2826(3) 0.8122(2) 0.1386(2)
C146_13 C 0.3614(2) 0.7826(3) 0.1878(2)
H73_13 H 0.3194 0.8460 0.2066
H76_13 H 0.2934 0.8194 0.1540
H79_13 H 0.3460 0.7934 0.1806
H84_13 H 0.3100 0.8557 0.2366
H87_13 H 0.2634 0.8100 0.1443
H90_13 H 0.3557 0.7634 0.1900
H95_13 H 0.2944 0.8672 0.2100
H98_13 H 0.2900 0.7944 0.1328
H101_13 H 0.3672 0.7900 0.2056
C151_13 C 0.3618(2) 0.91980(17) 0.18670(18)
C154_13 C 0.31330(18) 0.8618(2) 0.08020(17)
C157_13 C 0.41980(17) 0.81330(18) 0.1382(2)
H106_13 H 0.3787 0.9134 0.1959
H109_13 H 0.3041 0.8787 0.0866
H112_13 H 0.4134 0.8041 0.1213
H117_13 H 0.3546 0.9355 0.1973
H120_13 H 0.3027 0.8546 0.0645
H123_13 H 0.4355 0.8027 0.1454
C162_13 C 0.3694(2) 0.9300(2) 0.1569(2)
C165_13 C 0.3431(2) 0.8694(2) 0.0700(2)
C168_13 C 0.4300(2) 0.8431(2) 0.1306(2)
H128_13 H 0.3529 0.9371 0.1479
H131_13 H 0.3521 0.8529 0.0629
H134_13 H 0.4371 0.8521 0.1471
H139_13 H 0.3833 0.9445 0.1581
H142_13 H 0.3419 0.8833 0.0555
H145_13 H 0.4445 0.8419 0.1167
H150_13 H 0.3767 0.9146 0.1463
H153_13 H 0.3537 0.8767 0.0854
H156_13 H 0.4146 0.8537 0.1233
O18_13 O 0.23731(14) 0.03463(11) 0.83856(13)
O33_13 O 0.26094(15) 0.03084(11) 0.80104(12)
C15_14 C 0.54199(13) 0.32494(16) 0.74267(17)
C17_14 C 0.45801(13) 0.17506(16) 0.75733(17)
C20_14 C 0.74267(17) 0.45801(13) 0.67506(16)
C21_14 C 0.67506(16) 0.25733(17) 0.54199(13)
C24_14 C 0.25733(17) 0.04199(13) 0.82494(16)
C25_14 C 0.32494(16) 0.24267(17) 0.95801(13)
C26_14 C 0.56409(13) 0.33398(12) 0.72446(18)
C28_14 C 0.43591(13) 0.16602(12) 0.77554(18)
C31_14 C 0.72446(18) 0.43591(13) 0.66602(12)
C32_14 C 0.66602(12) 0.27554(18) 0.56409(13)
C35_14 C 0.27554(18) 0.06409(13) 0.83398(12)
C36_14 C 0.33398(12) 0.22446(18) 0.93591(13)
C37_14 C 0.57217(14) 0.31751(15) 0.70223(17)
C39_14 C 0.42783(14) 0.18249(15) 0.79777(17)
C42_14 C 0.70223(17) 0.42783(14) 0.68249(15)
C43_14 C 0.68249(15) 0.29777(17) 0.57217(14)
C46_14 C 0.29777(17) 0.07217(14) 0.81751(15)
C47_14 C 0.31751(15) 0.20223(17) 0.92783(14)
H14_14 H 0.5632 0.3005 0.6986
H16_14 H 0.4368 0.1995 0.8014
H19_14 H 0.6986 0.4368 0.6995
H20_14 H 0.6995 0.3014 0.5632
H23_14 H 0.3014 0.0632 0.8005
H24_14 H 0.3005 0.1986 0.9368
C50_14 C 0.59375(13) 0.32668(13) 0.68552(15)
C52_14 C 0.40625(13) 0.17332(13) 0.81448(15)
C53_14 C 0.68552(15) 0.40625(13) 0.67332(13)
C54_14 C 0.67332(13) 0.31448(15) 0.59375(13)
C57_14 C 0.31448(15) 0.09375(13) 0.82668(13)
C58_14 C 0.32668(13) 0.18552(15) 0.90625(13)
C61_14 C 0.60795(13) 0.35075(12) 0.69134(14)
C63_14 C 0.39205(13) 0.14925(12) 0.80866(14)
C64_14 C 0.64925(12) 0.30866(14) 0.60795(13)
C66_14 C 0.35075(12) 0.19134(14) 0.89205(13)
C67_14 C 0.69134(14) 0.39205(13) 0.64925(12)
C69_14 C 0.30866(14) 0.10795(13) 0.85075(12)
C72_14 C 0.59898(14) 0.36669(13) 0.71317(15)
C74_14 C 0.40102(14) 0.13331(13) 0.78683(15)
C75_14 C 0.63331(13) 0.28683(15) 0.59898(14)
C77_14 C 0.36669(13) 0.21317(15) 0.90102(14)
C78_14 C 0.71317(15) 0.40102(14) 0.63331(13)
C80_14 C 0.28683(15) 0.09898(14) 0.86669(13)
H27_14 H 0.6078 0.3837 0.7170
H29_14 H 0.3922 0.1163 0.7830
H30_14 H 0.6163 0.2830 0.6078
H32_14 H 0.3837 0.2170 0.8922
H33_14 H 0.7170 0.3922 0.6163
H35_14 H 0.2830 0.1078 0.8837
C81_14 C 0.57752(13) 0.35815(14) 0.72933(16)
C83_14 C 0.42248(13) 0.14185(14) 0.77067(16)
C86_14 C 0.64185(14) 0.27067(16) 0.57752(13)
C88_14 C 0.35815(14) 0.22933(16) 0.92248(13)
C89_14 C 0.72933(16) 0.42248(13) 0.64185(14)
C91_14 C 0.27067(16) 0.07752(13) 0.85815(14)
H36_14 H 0.5718 0.3693 0.7443
H38_14 H 0.4282 0.1307 0.7557
H41_14 H 0.6307 0.2557 0.5718
H43_14 H 0.3693 0.2443 0.9282
H44_14 H 0.7443 0.4282 0.6307
H46_14 H 0.2557 0.0718 0.8693
C94_14 C 0.60416(15) 0.31276(14) 0.66011(15)
C96_14 C 0.39584(15) 0.18724(14) 0.83989(15)
C97_14 C 0.66011(15) 0.39584(15) 0.68724(14)
C99_14 C 0.33989(15) 0.10416(15) 0.81276(14)
C100_14 C 0.68724(14) 0.33989(15) 0.60416(15)
C102_14 C 0.31276(14) 0.16011(15) 0.89584(15)
C105_14 C 0.62787(13) 0.33156(13) 0.65211(14)
C107_14 C 0.37213(13) 0.16844(13) 0.84789(14)
C108_14 C 0.65211(14) 0.37213(13) 0.66844(13)
C110_14 C 0.34789(14) 0.12787(13) 0.83156(13)
C111_14 C 0.66844(13) 0.34789(14) 0.62787(13)
C113_14 C 0.33156(13) 0.15211(14) 0.87213(13)
C116_14 C 0.63024(12) 0.35336(13) 0.67073(12)
C118_14 C 0.36976(12) 0.14664(13) 0.82927(12)
C119_14 C 0.64664(13) 0.32927(12) 0.63024(12)
C121_14 C 0.35336(13) 0.17073(12) 0.86976(12)
C122_14 C 0.67073(12) 0.36976(12) 0.64664(13)
C124_14 C 0.32927(12) 0.13024(12) 0.85336(13)
C127_14 C 0.61397(19) 0.28407(18) 0.66710(18)
C129_14 C 0.38603(19) 0.21593(18) 0.83290(18)
C130_14 C 0.66710(18) 0.38603(19) 0.71593(18)
C132_14 C 0.33290(18) 0.11397(19) 0.78407(18)
C133_14 C 0.71593(18) 0.33290(18) 0.61397(19)
C135_14 C 0.28407(18) 0.16710(18) 0.88603(19)
H49_14 H 0.6195 0.2748 0.6499
H51_14 H 0.3805 0.2252 0.8501
H52_14 H 0.6499 0.3805 0.7252
H54_14 H 0.3501 0.1195 0.7748
H55_14 H 0.7252 0.3501 0.6195
H57_14 H 0.2748 0.1499 0.8805
H60_14 H 0.5984 0.2737 0.6749
H62_14 H 0.4016 0.2263 0.8251
H63_14 H 0.6749 0.4016 0.7263
H65_14 H 0.3251 0.0984 0.7737
H66_14 H 0.7263 0.3251 0.5984
H68_14 H 0.2737 0.1749 0.9016
C138_14 C 0.6386(2) 0.2826(3) 0.6878(2)
C140_14 C 0.3614(2) 0.2174(3) 0.8122(2)
C141_14 C 0.6878(2) 0.3614(2) 0.7174(3)
C143_14 C 0.3122(2) 0.1386(2) 0.7826(3)
C144_14 C 0.7174(3) 0.3122(2) 0.6386(2)
C146_14 C 0.2826(3) 0.1878(2) 0.8614(2)
H71_14 H 0.6540 0.2934 0.6806
H73_14 H 0.3460 0.2066 0.8194
H74_14 H 0.6806 0.3460 0.7066
H76_14 H 0.3194 0.1540 0.7934
H77_14 H 0.7066 0.3194 0.6540
H79_14 H 0.2934 0.1806 0.8460
H82_14 H 0.6443 0.2634 0.6900
H84_14 H 0.3557 0.2366 0.8100
H85_14 H 0.6900 0.3557 0.7366
H87_14 H 0.3100 0.1443 0.7634
H88_14 H 0.7366 0.3100 0.6443
H90_14 H 0.2634 0.1900 0.8557
H93_14 H 0.6328 0.2900 0.7056
H95_14 H 0.3672 0.2100 0.7944
H96_14 H 0.7056 0.3672 0.7100
H98_14 H 0.2944 0.1328 0.7900
H99_14 H 0.7100 0.2944 0.6328
H101_14 H 0.2900 0.2056 0.8672
C149_14 C 0.58020(17) 0.31330(18) 0.6382(2)
C151_14 C 0.41980(17) 0.18670(18) 0.8618(2)
C152_14 C 0.6382(2) 0.41980(17) 0.68670(18)
C154_14 C 0.3618(2) 0.08020(17) 0.81330(18)
C155_14 C 0.68670(18) 0.3618(2) 0.58020(17)
C157_14 C 0.31330(18) 0.1382(2) 0.91980(17)
H104_14 H 0.5866 0.3041 0.6213
H106_14 H 0.4134 0.1959 0.8787
H107_14 H 0.6213 0.4134 0.6959
H109_14 H 0.3787 0.0866 0.8041
H110_14 H 0.6959 0.3787 0.5866
H112_14 H 0.3041 0.1213 0.9134
H115_14 H 0.5645 0.3027 0.6454
H117_14 H 0.4355 0.1973 0.8546
H118_14 H 0.6454 0.4355 0.6973
H120_14 H 0.3546 0.0645 0.8027
H121_14 H 0.6973 0.3546 0.5645
H123_14 H 0.3027 0.1454 0.9355
C160_14 C 0.5700(2) 0.3431(2) 0.6306(2)
C162_14 C 0.4300(2) 0.1569(2) 0.8694(2)
C163_14 C 0.6306(2) 0.4300(2) 0.6569(2)
C165_14 C 0.3694(2) 0.0700(2) 0.8431(2)
C166_14 C 0.6569(2) 0.3694(2) 0.5700(2)
C168_14 C 0.3431(2) 0.1306(2) 0.9300(2)
H126_14 H 0.5629 0.3521 0.6471
H128_14 H 0.4371 0.1479 0.8529
H129_14 H 0.6471 0.4371 0.6479
H131_14 H 0.3529 0.0629 0.8521
H132_14 H 0.6479 0.3529 0.5629
H134_14 H 0.3521 0.1471 0.9371
H137_14 H 0.5555 0.3419 0.6167
H139_14 H 0.4445 0.1581 0.8833
H140_14 H 0.6167 0.4445 0.6581
H142_14 H 0.3833 0.0555 0.8419
H143_14 H 0.6581 0.3833 0.5555
H145_14 H 0.3419 0.1167 0.9445
H148_14 H 0.5854 0.3537 0.6233
H150_14 H 0.4146 0.1463 0.8767
H151_14 H 0.6233 0.4146 0.6463
H153_14 H 0.3767 0.0854 0.8537
H154_14 H 0.6463 0.3767 0.5854
H156_14 H 0.3537 0.1233 0.9146
O4_22 O 0.5000 0.2500 0.2500
O5_16 O 0.53463(11) 0.23731(14) 0.16144(13)
O6_15 O 0.53463(11) 0.26269(14) 0.33856(13)
O8_14 O 0.46537(11) 0.33856(13) 0.23731(14)
O14_14 O 0.23731(14) 0.46537(11) 0.33856(13)
O15_14 O 0.33856(13) 0.23731(14) 0.46537(11)
O22_16 O 0.53084(11) 0.26094(15) 0.19896(12)
O25_15 O 0.53084(11) 0.23906(15) 0.30104(12)
O26_14 O 0.46916(11) 0.30104(12) 0.26094(15)
O29_14 O 0.26094(15) 0.46916(11) 0.30104(12)
O30_14 O 0.30104(12) 0.26094(15) 0.46916(11)
C15_15 C 0.45801(13) 0.32494(16) 0.25733(17)
C20_15 C 0.25733(17) 0.45801(13) 0.32494(16)
C21_15 C 0.32494(16) 0.25733(17) 0.45801(13)
C26_15 C 0.43591(13) 0.33398(12) 0.27554(18)
C31_15 C 0.27554(18) 0.43591(13) 0.33398(12)
C32_15 C 0.33398(12) 0.27554(18) 0.43591(13)
C37_15 C 0.42783(14) 0.31751(15) 0.29777(17)
C42_15 C 0.29777(17) 0.42783(14) 0.31751(15)
C43_15 C 0.31751(15) 0.29777(17) 0.42783(14)
H14_15 H 0.4368 0.3005 0.3014
H19_15 H 0.3014 0.4368 0.3005
H20_15 H 0.3005 0.3014 0.4368
C50_15 C 0.40625(13) 0.32668(13) 0.31448(15)
C53_15 C 0.31448(15) 0.40625(13) 0.32668(13)
C54_15 C 0.32668(13) 0.31448(15) 0.40625(13)
C61_15 C 0.39205(13) 0.35075(12) 0.30866(14)
C64_15 C 0.35075(12) 0.30866(14) 0.39205(13)
C67_15 C 0.30866(14) 0.39205(13) 0.35075(12)
C72_15 C 0.40102(14) 0.36669(13) 0.28683(15)
C75_15 C 0.36669(13) 0.28683(15) 0.40102(14)
C78_15 C 0.28683(15) 0.40102(14) 0.36669(13)
H27_15 H 0.3922 0.3837 0.2830
H30_15 H 0.3837 0.2830 0.3922
H33_15 H 0.2830 0.3922 0.3837
C81_15 C 0.42248(13) 0.35815(14) 0.27067(16)
C86_15 C 0.35815(14) 0.27067(16) 0.42248(13)
C89_15 C 0.27067(16) 0.42248(13) 0.35815(14)
H36_15 H 0.4282 0.3693 0.2557
H41_15 H 0.3693 0.2557 0.4282
H44_15 H 0.2557 0.4282 0.3693
C94_15 C 0.39584(15) 0.31276(14) 0.33989(15)
C97_15 C 0.33989(15) 0.39584(15) 0.31276(14)
C100_15 C 0.31276(14) 0.33989(15) 0.39584(15)
C105_15 C 0.37213(13) 0.33156(13) 0.34789(14)
C108_15 C 0.34789(14) 0.37213(13) 0.33156(13)
C111_15 C 0.33156(13) 0.34789(14) 0.37213(13)
C116_15 C 0.36976(12) 0.35336(13) 0.32927(12)
C119_15 C 0.35336(13) 0.32927(12) 0.36976(12)
C122_15 C 0.32927(12) 0.36976(12) 0.35336(13)
C127_15 C 0.38603(19) 0.28407(18) 0.33290(18)
C130_15 C 0.33290(18) 0.38603(19) 0.28407(18)
C133_15 C 0.28407(18) 0.33290(18) 0.38603(19)
H49_15 H 0.3805 0.2748 0.3501
H52_15 H 0.3501 0.3805 0.2748
H55_15 H 0.2748 0.3501 0.3805
H60_15 H 0.4016 0.2737 0.3251
H63_15 H 0.3251 0.4016 0.2737
H66_15 H 0.2737 0.3251 0.4016
C138_15 C 0.3614(2) 0.2826(3) 0.3122(2)
C141_15 C 0.3122(2) 0.3614(2) 0.2826(3)
C144_15 C 0.2826(3) 0.3122(2) 0.3614(2)
H71_15 H 0.3460 0.2934 0.3194
H74_15 H 0.3194 0.3460 0.2934
H77_15 H 0.2934 0.3194 0.3460
H82_15 H 0.3557 0.2634 0.3100
H85_15 H 0.3100 0.3557 0.2634
H88_15 H 0.2634 0.3100 0.3557
H93_15 H 0.3672 0.2900 0.2944
H96_15 H 0.2944 0.3672 0.2900
H99_15 H 0.2900 0.2944 0.3672
C149_15 C 0.41980(17) 0.31330(18) 0.3618(2)
C152_15 C 0.3618(2) 0.41980(17) 0.31330(18)
C155_15 C 0.31330(18) 0.3618(2) 0.41980(17)
H104_15 H 0.4134 0.3041 0.3787
H107_15 H 0.3787 0.4134 0.3041
H110_15 H 0.3041 0.3787 0.4134
H115_15 H 0.4355 0.3027 0.3546
H118_15 H 0.3546 0.4355 0.3027
H121_15 H 0.3027 0.3546 0.4355
C160_15 C 0.4300(2) 0.3431(2) 0.3694(2)
C163_15 C 0.3694(2) 0.4300(2) 0.3431(2)
C166_15 C 0.3431(2) 0.3694(2) 0.4300(2)
H126_15 H 0.4371 0.3521 0.3529
H129_15 H 0.3529 0.4371 0.3521
H132_15 H 0.3521 0.3529 0.4371
H137_15 H 0.4445 0.3419 0.3833
H140_15 H 0.3833 0.4445 0.3419
H143_15 H 0.3419 0.3833 0.4445
H148_15 H 0.4146 0.3537 0.3767
H151_15 H 0.3767 0.4146 0.3537
H154_15 H 0.3537 0.3767 0.4146
C15_16 C 0.54199(13) 0.67506(16) 0.25733(17)
C20_16 C 0.74267(17) 0.54199(13) 0.32494(16)
C21_16 C 0.67506(16) 0.74267(17) 0.45801(13)
C26_16 C 0.56409(13) 0.66602(12) 0.27554(18)
C31_16 C 0.72446(18) 0.56409(13) 0.33398(12)
C32_16 C 0.66602(12) 0.72446(18) 0.43591(13)
C37_16 C 0.57217(14) 0.68249(15) 0.29777(17)
C42_16 C 0.70223(17) 0.57217(14) 0.31751(15)
C43_16 C 0.68249(15) 0.70223(17) 0.42783(14)
H14_16 H 0.5632 0.6995 0.3014
H19_16 H 0.6986 0.5632 0.3005
H20_16 H 0.6995 0.6986 0.4368
C50_16 C 0.59375(13) 0.67332(13) 0.31448(15)
C53_16 C 0.68552(15) 0.59375(13) 0.32668(13)
C54_16 C 0.67332(13) 0.68552(15) 0.40625(13)
C61_16 C 0.60795(13) 0.64925(12) 0.30866(14)
C64_16 C 0.64925(12) 0.69134(14) 0.39205(13)
C67_16 C 0.69134(14) 0.60795(13) 0.35075(12)
C72_16 C 0.59898(14) 0.63331(13) 0.28683(15)
C75_16 C 0.63331(13) 0.71317(15) 0.40102(14)
C78_16 C 0.71317(15) 0.59898(14) 0.36669(13)
H27_16 H 0.6078 0.6163 0.2830
H30_16 H 0.6163 0.7170 0.3922
H33_16 H 0.7170 0.6078 0.3837
C81_16 C 0.57752(13) 0.64185(14) 0.27067(16)
C86_16 C 0.64185(14) 0.72933(16) 0.42248(13)
C89_16 C 0.72933(16) 0.57752(13) 0.35815(14)
H36_16 H 0.5718 0.6307 0.2557
H41_16 H 0.6307 0.7443 0.4282
H44_16 H 0.7443 0.5718 0.3693
C94_16 C 0.60416(15) 0.68724(14) 0.33989(15)
C97_16 C 0.66011(15) 0.60416(15) 0.31276(14)
C100_16 C 0.68724(14) 0.66011(15) 0.39584(15)
C105_16 C 0.62787(13) 0.66844(13) 0.34789(14)
C108_16 C 0.65211(14) 0.62787(13) 0.33156(13)
C111_16 C 0.66844(13) 0.65211(14) 0.37213(13)
C116_16 C 0.63024(12) 0.64664(13) 0.32927(12)
C119_16 C 0.64664(13) 0.67073(12) 0.36976(12)
C122_16 C 0.67073(12) 0.63024(12) 0.35336(13)
C127_16 C 0.61397(19) 0.71593(18) 0.33290(18)
C130_16 C 0.66710(18) 0.61397(19) 0.28407(18)
C133_16 C 0.71593(18) 0.66710(18) 0.38603(19)
H49_16 H 0.6195 0.7252 0.3501
H52_16 H 0.6499 0.6195 0.2748
H55_16 H 0.7252 0.6499 0.3805
H60_16 H 0.5984 0.7263 0.3251
H63_16 H 0.6749 0.5984 0.2737
H66_16 H 0.7263 0.6749 0.4016
C138_16 C 0.6386(2) 0.7174(3) 0.3122(2)
C141_16 C 0.6878(2) 0.6386(2) 0.2826(3)
C144_16 C 0.7174(3) 0.6878(2) 0.3614(2)
H71_16 H 0.6540 0.7066 0.3194
H74_16 H 0.6806 0.6540 0.2934
H77_16 H 0.7066 0.6806 0.3460
H82_16 H 0.6443 0.7366 0.3100
H85_16 H 0.6900 0.6443 0.2634
H88_16 H 0.7366 0.6900 0.3557
H93_16 H 0.6328 0.7100 0.2944
H96_16 H 0.7056 0.6328 0.2900
H99_16 H 0.7100 0.7056 0.3672
C149_16 C 0.58020(17) 0.68670(18) 0.3618(2)
C152_16 C 0.6382(2) 0.58020(17) 0.31330(18)
C155_16 C 0.68670(18) 0.6382(2) 0.41980(17)
H104_16 H 0.5866 0.6959 0.3787
H107_16 H 0.6213 0.5866 0.3041
H110_16 H 0.6959 0.6213 0.4134
H115_16 H 0.5645 0.6973 0.3546
H118_16 H 0.6454 0.5645 0.3027
H121_16 H 0.6973 0.6454 0.4355
C160_16 C 0.5700(2) 0.6569(2) 0.3694(2)
C163_16 C 0.6306(2) 0.5700(2) 0.3431(2)
C166_16 C 0.6569(2) 0.6306(2) 0.4300(2)
H126_16 H 0.5629 0.6479 0.3529
H129_16 H 0.6471 0.5629 0.3521
H132_16 H 0.6479 0.6471 0.4371
H137_16 H 0.5555 0.6581 0.3833
H140_16 H 0.6167 0.5555 0.3419
H143_16 H 0.6581 0.6167 0.4445
H148_16 H 0.5854 0.6463 0.3767
H151_16 H 0.6233 0.5854 0.3537
H154_16 H 0.6463 0.6233 0.4146
O4_23 O 0.7500 0.2500 -0.0000
O6_16 O 0.76269(14) 0.33856(13) 0.03463(11)
O9_16 O 0.83856(13) 0.23731(14) 0.03463(11)
O24_16 O 0.80104(12) 0.26094(15) 0.03084(11)
O25_16 O 0.73906(15) 0.30104(12) 0.03084(11)
O4_24 O 0.7500 0.2500 1.0000
O4_25 O 0.7500 0.7500 0.0000
O4_26 O 0.7500 0.7500 1.0000
O5_17 O 0.73731(14) 0.83856(13) 0.96537(11)
O6_17 O 0.76269(14) 0.66144(13) 0.96537(11)
O9_17 O 0.83856(13) 0.76269(14) 0.96537(11)
O22_17 O 0.76094(15) 0.80104(12) 0.96916(11)
O24_17 O 0.80104(12) 0.73906(15) 0.96916(11)
O25_17 O 0.73906(15) 0.69896(12) 0.96916(11)
O18_14 O 0.23731(14) 0.16144(13) 0.53463(11)
O19_11 O 0.33856(13) 0.03463(11) 0.76269(14)
O33_14 O 0.26094(15) 0.19896(12) 0.53084(11)
O34_11 O 0.30104(12) 0.03084(11) 0.73906(15)
C17_15 C 0.45801(13) 0.24267(17) 0.67506(16)
C24_15 C 0.25733(17) 0.17506(16) 0.54199(13)
C25_15 C 0.32494(16) 0.04199(13) 0.74267(17)
C28_15 C 0.43591(13) 0.22446(18) 0.66602(12)
C35_15 C 0.27554(18) 0.16602(12) 0.56409(13)
C36_15 C 0.33398(12) 0.06409(13) 0.72446(18)
C39_15 C 0.42783(14) 0.20223(17) 0.68249(15)
C46_15 C 0.29777(17) 0.18249(15) 0.57217(14)
C47_15 C 0.31751(15) 0.07217(14) 0.70223(17)
H16_15 H 0.4368 0.1986 0.6995
H23_15 H 0.3014 0.1995 0.5632
H24_15 H 0.3005 0.0632 0.6986
C52_15 C 0.40625(13) 0.18552(15) 0.67332(13)
C57_15 C 0.31448(15) 0.17332(13) 0.59375(13)
C58_15 C 0.32668(13) 0.09375(13) 0.68552(15)
C63_15 C 0.39205(13) 0.19134(14) 0.64925(12)
C66_15 C 0.35075(12) 0.10795(13) 0.69134(14)
C69_15 C 0.30866(14) 0.14925(12) 0.60795(13)
C74_15 C 0.40102(14) 0.21317(15) 0.63331(13)
C77_15 C 0.36669(13) 0.09898(14) 0.71317(15)
C80_15 C 0.28683(15) 0.13331(13) 0.59898(14)
H29_15 H 0.3922 0.2170 0.6163
H32_15 H 0.3837 0.1078 0.7170
H35_15 H 0.2830 0.1163 0.6078
C83_15 C 0.42248(13) 0.22933(16) 0.64185(14)
C88_15 C 0.35815(14) 0.07752(13) 0.72933(16)
C91_15 C 0.27067(16) 0.14185(14) 0.57752(13)
H38_15 H 0.4282 0.2443 0.6307
H43_15 H 0.3693 0.0718 0.7443
H46_15 H 0.2557 0.1307 0.5718
C96_15 C 0.39584(15) 0.16011(15) 0.68724(14)
C99_15 C 0.33989(15) 0.18724(14) 0.60416(15)
C102_15 C 0.31276(14) 0.10416(15) 0.66011(15)
C107_15 C 0.37213(13) 0.15211(14) 0.66844(13)
C110_15 C 0.34789(14) 0.16844(13) 0.62787(13)
C113_15 C 0.33156(13) 0.12787(13) 0.65211(14)
C118_15 C 0.36976(12) 0.17073(12) 0.64664(13)
C121_15 C 0.35336(13) 0.13024(12) 0.67073(12)
C124_15 C 0.32927(12) 0.14664(13) 0.63024(12)
C129_15 C 0.38603(19) 0.16710(18) 0.71593(18)
C132_15 C 0.33290(18) 0.21593(18) 0.61397(19)
C135_15 C 0.28407(18) 0.11397(19) 0.66710(18)
H51_15 H 0.3805 0.1499 0.7252
H54_15 H 0.3501 0.2252 0.6195
H57_15 H 0.2748 0.1195 0.6499
H62_15 H 0.4016 0.1749 0.7263
H65_15 H 0.3251 0.2263 0.5984
H68_15 H 0.2737 0.0984 0.6749
C140_15 C 0.3614(2) 0.1878(2) 0.7174(3)
C143_15 C 0.3122(2) 0.2174(3) 0.6386(2)
C146_15 C 0.2826(3) 0.1386(2) 0.6878(2)
H73_15 H 0.3460 0.1806 0.7066
H76_15 H 0.3194 0.2066 0.6540
H79_15 H 0.2934 0.1540 0.6806
H84_15 H 0.3557 0.1900 0.7366
H87_15 H 0.3100 0.2366 0.6443
H90_15 H 0.2634 0.1443 0.6900
H95_15 H 0.3672 0.2056 0.7100
H98_15 H 0.2944 0.2100 0.6328
H101_15 H 0.2900 0.1328 0.7056
C151_15 C 0.41980(17) 0.1382(2) 0.68670(18)
C154_15 C 0.3618(2) 0.18670(18) 0.58020(17)
C157_15 C 0.31330(18) 0.08020(17) 0.6382(2)
H106_15 H 0.4134 0.1213 0.6959
H109_15 H 0.3787 0.1959 0.5866
H112_15 H 0.3041 0.0866 0.6213
H117_15 H 0.4355 0.1454 0.6973
H120_15 H 0.3546 0.1973 0.5645
H123_15 H 0.3027 0.0645 0.6454
C162_15 C 0.4300(2) 0.1306(2) 0.6569(2)
C165_15 C 0.3694(2) 0.1569(2) 0.5700(2)
C168_15 C 0.3431(2) 0.0700(2) 0.6306(2)
H128_15 H 0.4371 0.1471 0.6479
H131_15 H 0.3529 0.1479 0.5629
H134_15 H 0.3521 0.0629 0.6471
H139_15 H 0.4445 0.1167 0.6581
H142_15 H 0.3833 0.1581 0.5555
H145_15 H 0.3419 0.0555 0.6167
H150_15 H 0.4146 0.1233 0.6463
H153_15 H 0.3767 0.1463 0.5854
H156_15 H 0.3537 0.0854 0.6233
C17_16 C 0.67506(16) 0.95801(13) 0.74267(17)
C24_16 C 0.54199(13) 0.75733(17) 0.67506(16)
C25_16 C 0.74267(17) 0.82494(16) 0.54199(13)
C28_16 C 0.66602(12) 0.93591(13) 0.72446(18)
C35_16 C 0.56409(13) 0.77554(18) 0.66602(12)
C36_16 C 0.72446(18) 0.83398(12) 0.56409(13)
C39_16 C 0.68249(15) 0.92783(14) 0.70223(17)
C46_16 C 0.57217(14) 0.79777(17) 0.68249(15)
C47_16 C 0.70223(17) 0.81751(15) 0.57217(14)
H16_16 H 0.6995 0.9368 0.6986
H23_16 H 0.5632 0.8014 0.6995
H24_16 H 0.6986 0.8005 0.5632
C52_16 C 0.67332(13) 0.90625(13) 0.68552(15)
C57_16 C 0.59375(13) 0.81448(15) 0.67332(13)
C58_16 C 0.68552(15) 0.82668(13) 0.59375(13)
C63_16 C 0.64925(12) 0.89205(13) 0.69134(14)
C66_16 C 0.69134(14) 0.85075(12) 0.60795(13)
C69_16 C 0.60795(13) 0.80866(14) 0.64925(12)
C74_16 C 0.63331(13) 0.90102(14) 0.71317(15)
C77_16 C 0.71317(15) 0.86669(13) 0.59898(14)
C80_16 C 0.59898(14) 0.78683(15) 0.63331(13)
H29_16 H 0.6163 0.8922 0.7170
H32_16 H 0.7170 0.8837 0.6078
H35_16 H 0.6078 0.7830 0.6163
C83_16 C 0.64185(14) 0.92248(13) 0.72933(16)
C88_16 C 0.72933(16) 0.85815(14) 0.57752(13)
C91_16 C 0.57752(13) 0.77067(16) 0.64185(14)
H38_16 H 0.6307 0.9282 0.7443
H43_16 H 0.7443 0.8693 0.5718
H46_16 H 0.5718 0.7557 0.6307
C96_16 C 0.68724(14) 0.89584(15) 0.66011(15)
C99_16 C 0.60416(15) 0.83989(15) 0.68724(14)
C102_16 C 0.66011(15) 0.81276(14) 0.60416(15)
C107_16 C 0.66844(13) 0.87213(13) 0.65211(14)
C110_16 C 0.62787(13) 0.84789(14) 0.66844(13)
C113_16 C 0.65211(14) 0.83156(13) 0.62787(13)
C118_16 C 0.64664(13) 0.86976(12) 0.67073(12)
C121_16 C 0.67073(12) 0.85336(13) 0.63024(12)
C124_16 C 0.63024(12) 0.82927(12) 0.64664(13)
C129_16 C 0.71593(18) 0.88603(19) 0.66710(18)
C132_16 C 0.61397(19) 0.83290(18) 0.71593(18)
C135_16 C 0.66710(18) 0.78407(18) 0.61397(19)
H51_16 H 0.7252 0.8805 0.6499
H54_16 H 0.6195 0.8501 0.7252
H57_16 H 0.6499 0.7748 0.6195
H62_16 H 0.7263 0.9016 0.6749
H65_16 H 0.5984 0.8251 0.7263
H68_16 H 0.6749 0.7737 0.5984
C140_16 C 0.7174(3) 0.8614(2) 0.6878(2)
C143_16 C 0.6386(2) 0.8122(2) 0.7174(3)
C146_16 C 0.6878(2) 0.7826(3) 0.6386(2)
H73_16 H 0.7066 0.8460 0.6806
H76_16 H 0.6540 0.8194 0.7066
H79_16 H 0.6806 0.7934 0.6540
H84_16 H 0.7366 0.8557 0.6900
H87_16 H 0.6443 0.8100 0.7366
H90_16 H 0.6900 0.7634 0.6443
H95_16 H 0.7100 0.8672 0.7056
H98_16 H 0.6328 0.7944 0.7100
H101_16 H 0.7056 0.7900 0.6328
C151_16 C 0.68670(18) 0.91980(17) 0.6382(2)
C154_16 C 0.58020(17) 0.8618(2) 0.68670(18)
C157_16 C 0.6382(2) 0.81330(18) 0.58020(17)
H106_16 H 0.6959 0.9134 0.6213
H109_16 H 0.5866 0.8787 0.6959
H112_16 H 0.6213 0.8041 0.5866
H117_16 H 0.6973 0.9355 0.6454
H120_16 H 0.5645 0.8546 0.6973
H123_16 H 0.6454 0.8027 0.5645
C162_16 C 0.6569(2) 0.9300(2) 0.6306(2)
C165_16 C 0.5700(2) 0.8694(2) 0.6569(2)
C168_16 C 0.6306(2) 0.8431(2) 0.5700(2)
H128_16 H 0.6479 0.9371 0.6471
H131_16 H 0.5629 0.8529 0.6479
H134_16 H 0.6471 0.8521 0.5629
H139_16 H 0.6581 0.9445 0.6167
H142_16 H 0.5555 0.8833 0.6581
H145_16 H 0.6167 0.8419 0.5555
H150_16 H 0.6463 0.9146 0.6233
H153_16 H 0.5854 0.8767 0.6463
H156_16 H 0.6233 0.8537 0.5854
C17_17 C 0.74267(17) 0.17506(16) 0.45801(13)
C24_17 C 0.67506(16) 0.04199(13) 0.25733(17)
C25_17 C 0.54199(13) 0.24267(17) 0.32494(16)
C28_17 C 0.72446(18) 0.16602(12) 0.43591(13)
C35_17 C 0.66602(12) 0.06409(13) 0.27554(18)
C36_17 C 0.56409(13) 0.22446(18) 0.33398(12)
C39_17 C 0.70223(17) 0.18249(15) 0.42783(14)
C46_17 C 0.68249(15) 0.07217(14) 0.29777(17)
C47_17 C 0.57217(14) 0.20223(17) 0.31751(15)
H16_17 H 0.6986 0.1995 0.4368
H23_17 H 0.6995 0.0632 0.3014
H24_17 H 0.5632 0.1986 0.3005
C52_17 C 0.68552(15) 0.17332(13) 0.40625(13)
C57_17 C 0.67332(13) 0.09375(13) 0.31448(15)
C58_17 C 0.59375(13) 0.18552(15) 0.32668(13)
C63_17 C 0.69134(14) 0.14925(12) 0.39205(13)
C66_17 C 0.60795(13) 0.19134(14) 0.35075(12)
C69_17 C 0.64925(12) 0.10795(13) 0.30866(14)
C74_17 C 0.71317(15) 0.13331(13) 0.40102(14)
C77_17 C 0.59898(14) 0.21317(15) 0.36669(13)
C80_17 C 0.63331(13) 0.09898(14) 0.28683(15)
H29_17 H 0.7170 0.1163 0.3922
H32_17 H 0.6078 0.2170 0.3837
H35_17 H 0.6163 0.1078 0.2830
C83_17 C 0.72933(16) 0.14185(14) 0.42248(13)
C88_17 C 0.57752(13) 0.22933(16) 0.35815(14)
C91_17 C 0.64185(14) 0.07752(13) 0.27067(16)
H38_17 H 0.7443 0.1307 0.4282
H43_17 H 0.5718 0.2443 0.3693
H46_17 H 0.6307 0.0718 0.2557
C96_17 C 0.66011(15) 0.18724(14) 0.39584(15)
C99_17 C 0.68724(14) 0.10416(15) 0.33989(15)
C102_17 C 0.60416(15) 0.16011(15) 0.31276(14)
C107_17 C 0.65211(14) 0.16844(13) 0.37213(13)
C110_17 C 0.66844(13) 0.12787(13) 0.34789(14)
C113_17 C 0.62787(13) 0.15211(14) 0.33156(13)
C118_17 C 0.67073(12) 0.14664(13) 0.36976(12)
C121_17 C 0.63024(12) 0.17073(12) 0.35336(13)
C124_17 C 0.64664(13) 0.13024(12) 0.32927(12)
C129_17 C 0.66710(18) 0.21593(18) 0.38603(19)
C132_17 C 0.71593(18) 0.11397(19) 0.33290(18)
C135_17 C 0.61397(19) 0.16710(18) 0.28407(18)
H51_17 H 0.6499 0.2252 0.3805
H54_17 H 0.7252 0.1195 0.3501
H57_17 H 0.6195 0.1499 0.2748
H62_17 H 0.6749 0.2263 0.4016
H65_17 H 0.7263 0.0984 0.3251
H68_17 H 0.5984 0.1749 0.2737
C140_17 C 0.6878(2) 0.2174(3) 0.3614(2)
C143_17 C 0.7174(3) 0.1386(2) 0.3122(2)
C146_17 C 0.6386(2) 0.1878(2) 0.2826(3)
H73_17 H 0.6806 0.2066 0.3460
H76_17 H 0.7066 0.1540 0.3194
H79_17 H 0.6540 0.1806 0.2934
H84_17 H 0.6900 0.2366 0.3557
H87_17 H 0.7366 0.1443 0.3100
H90_17 H 0.6443 0.1900 0.2634
H95_17 H 0.7056 0.2100 0.3672
H98_17 H 0.7100 0.1328 0.2944
H101_17 H 0.6328 0.2056 0.2900
C151_17 C 0.6382(2) 0.18670(18) 0.41980(17)
C154_17 C 0.68670(18) 0.08020(17) 0.3618(2)
C157_17 C 0.58020(17) 0.1382(2) 0.31330(18)
H106_17 H 0.6213 0.1959 0.4134
H109_17 H 0.6959 0.0866 0.3787
H112_17 H 0.5866 0.1213 0.3041
H117_17 H 0.6454 0.1973 0.4355
H120_17 H 0.6973 0.0645 0.3546
H123_17 H 0.5645 0.1454 0.3027
C162_17 C 0.6306(2) 0.1569(2) 0.4300(2)
C165_17 C 0.6569(2) 0.0700(2) 0.3694(2)
C168_17 C 0.5700(2) 0.1306(2) 0.3431(2)
H128_17 H 0.6471 0.1479 0.4371
H131_17 H 0.6479 0.0629 0.3529
H134_17 H 0.5629 0.1471 0.3521
H139_17 H 0.6167 0.1581 0.4445
H142_17 H 0.6581 0.0555 0.3833
H145_17 H 0.5555 0.1167 0.3419
H150_17 H 0.6233 0.1463 0.4146
H153_17 H 0.6463 0.0854 0.3767
H156_17 H 0.5854 0.1233 0.3537
O19_12 O 0.03463(11) 0.33856(13) 0.73731(14)
O34_12 O 0.03084(11) 0.30104(12) 0.76094(15)
C17_18 C 0.24267(17) 0.45801(13) 0.82494(16)
C24_18 C 0.17506(16) 0.25733(17) 0.95801(13)
C25_18 C 0.04199(13) 0.32494(16) 0.75733(17)
C28_18 C 0.22446(18) 0.43591(13) 0.83398(12)
C35_18 C 0.16602(12) 0.27554(18) 0.93591(13)
C36_18 C 0.06409(13) 0.33398(12) 0.77554(18)
C39_18 C 0.20223(17) 0.42783(14) 0.81751(15)
C46_18 C 0.18249(15) 0.29777(17) 0.92783(14)
C47_18 C 0.07217(14) 0.31751(15) 0.79777(17)
H16_18 H 0.1986 0.4368 0.8005
H23_18 H 0.1995 0.3014 0.9368
H24_18 H 0.0632 0.3005 0.8014
C52_18 C 0.18552(15) 0.40625(13) 0.82668(13)
C57_18 C 0.17332(13) 0.31448(15) 0.90625(13)
C58_18 C 0.09375(13) 0.32668(13) 0.81448(15)
C63_18 C 0.19134(14) 0.39205(13) 0.85075(12)
C66_18 C 0.10795(13) 0.35075(12) 0.80866(14)
C69_18 C 0.14925(12) 0.30866(14) 0.89205(13)
C74_18 C 0.21317(15) 0.40102(14) 0.86669(13)
C77_18 C 0.09898(14) 0.36669(13) 0.78683(15)
C80_18 C 0.13331(13) 0.28683(15) 0.90102(14)
H29_18 H 0.2170 0.3922 0.8837
H32_18 H 0.1078 0.3837 0.7830
H35_18 H 0.1163 0.2830 0.8922
C83_18 C 0.22933(16) 0.42248(13) 0.85815(14)
C88_18 C 0.07752(13) 0.35815(14) 0.77067(16)
C91_18 C 0.14185(14) 0.27067(16) 0.92248(13)
H38_18 H 0.2443 0.4282 0.8693
H43_18 H 0.0718 0.3693 0.7557
H46_18 H 0.1307 0.2557 0.9282
C96_18 C 0.16011(15) 0.39584(15) 0.81276(14)
C99_18 C 0.18724(14) 0.33989(15) 0.89584(15)
C102_18 C 0.10416(15) 0.31276(14) 0.83989(15)
C107_18 C 0.15211(14) 0.37213(13) 0.83156(13)
C110_18 C 0.16844(13) 0.34789(14) 0.87213(13)
C113_18 C 0.12787(13) 0.33156(13) 0.84789(14)
C118_18 C 0.17073(12) 0.36976(12) 0.85336(13)
C121_18 C 0.13024(12) 0.35336(13) 0.82927(12)
C124_18 C 0.14664(13) 0.32927(12) 0.86976(12)
C129_18 C 0.16710(18) 0.38603(19) 0.78407(18)
C132_18 C 0.21593(18) 0.33290(18) 0.88603(19)
C135_18 C 0.11397(19) 0.28407(18) 0.83290(18)
H51_18 H 0.1499 0.3805 0.7748
H54_18 H 0.2252 0.3501 0.8805
H57_18 H 0.1195 0.2748 0.8501
H62_18 H 0.1749 0.4016 0.7737
H65_18 H 0.2263 0.3251 0.9016
H68_18 H 0.0984 0.2737 0.8251
C140_18 C 0.1878(2) 0.3614(2) 0.7826(3)
C143_18 C 0.2174(3) 0.3122(2) 0.8614(2)
C146_18 C 0.1386(2) 0.2826(3) 0.8122(2)
H73_18 H 0.1806 0.3460 0.7934
H76_18 H 0.2066 0.3194 0.8460
H79_18 H 0.1540 0.2934 0.8194
H84_18 H 0.1900 0.3557 0.7634
H87_18 H 0.2366 0.3100 0.8557
H90_18 H 0.1443 0.2634 0.8100
H95_18 H 0.2056 0.3672 0.7900
H98_18 H 0.2100 0.2944 0.8672
H101_18 H 0.1328 0.2900 0.7944
C151_18 C 0.1382(2) 0.41980(17) 0.81330(18)
C154_18 C 0.18670(18) 0.3618(2) 0.91980(17)
C157_18 C 0.08020(17) 0.31330(18) 0.8618(2)
H106_18 H 0.1213 0.4134 0.8041
H109_18 H 0.1959 0.3787 0.9134
H112_18 H 0.0866 0.3041 0.8787
H117_18 H 0.1454 0.4355 0.8027
H120_18 H 0.1973 0.3546 0.9355
H123_18 H 0.0645 0.3027 0.8546
C162_18 C 0.1306(2) 0.4300(2) 0.8431(2)
C165_18 C 0.1569(2) 0.3694(2) 0.9300(2)
C168_18 C 0.0700(2) 0.3431(2) 0.8694(2)
H128_18 H 0.1471 0.4371 0.8521
H131_18 H 0.1479 0.3529 0.9371
H134_18 H 0.0629 0.3521 0.8529
H139_18 H 0.1167 0.4445 0.8419
H142_18 H 0.1581 0.3833 0.9445
H145_18 H 0.0555 0.3419 0.8833
H150_18 H 0.1233 0.4146 0.8537
H153_18 H 0.1463 0.3767 0.9146
H156_18 H 0.0854 0.3537 0.8767
O4_27 O 0.2500 0.5000 0.2500
O6_18 O 0.33856(13) 0.53463(11) 0.26269(14)
O11_11 O 0.26269(14) 0.53463(11) 0.16144(13)
O18_15 O 0.16144(13) 0.76269(14) 0.03463(11)
O19_13 O 0.03463(11) 0.66144(13) 0.26269(14)
O21_11 O 0.23906(15) 0.53084(11) 0.19896(12)
O25_18 O 0.30104(12) 0.53084(11) 0.23906(15)
O33_15 O 0.19896(12) 0.73906(15) 0.03084(11)
O34_13 O 0.03084(11) 0.69896(12) 0.23906(15)
C17_19 C 0.24267(17) 0.54199(13) 0.17506(16)
C24_19 C 0.17506(16) 0.74267(17) 0.04199(13)
C25_19 C 0.04199(13) 0.67506(16) 0.24267(17)
C28_19 C 0.22446(18) 0.56409(13) 0.16602(12)
C35_19 C 0.16602(12) 0.72446(18) 0.06409(13)
C36_19 C 0.06409(13) 0.66602(12) 0.22446(18)
C39_19 C 0.20223(17) 0.57217(14) 0.18249(15)
C46_19 C 0.18249(15) 0.70223(17) 0.07217(14)
C47_19 C 0.07217(14) 0.68249(15) 0.20223(17)
H16_19 H 0.1986 0.5632 0.1995
H23_19 H 0.1995 0.6986 0.0632
H24_19 H 0.0632 0.6995 0.1986
C52_19 C 0.18552(15) 0.59375(13) 0.17332(13)
C57_19 C 0.17332(13) 0.68552(15) 0.09375(13)
C58_19 C 0.09375(13) 0.67332(13) 0.18552(15)
C63_19 C 0.19134(14) 0.60795(13) 0.14925(12)
C66_19 C 0.10795(13) 0.64925(12) 0.19134(14)
C69_19 C 0.14925(12) 0.69134(14) 0.10795(13)
C74_19 C 0.21317(15) 0.59898(14) 0.13331(13)
C77_19 C 0.09898(14) 0.63331(13) 0.21317(15)
C80_19 C 0.13331(13) 0.71317(15) 0.09898(14)
H29_19 H 0.2170 0.6078 0.1163
H32_19 H 0.1078 0.6163 0.2170
H35_19 H 0.1163 0.7170 0.1078
C83_19 C 0.22933(16) 0.57752(13) 0.14185(14)
C88_19 C 0.07752(13) 0.64185(14) 0.22933(16)
C91_19 C 0.14185(14) 0.72933(16) 0.07752(13)
H38_19 H 0.2443 0.5718 0.1307
H43_19 H 0.0718 0.6307 0.2443
H46_19 H 0.1307 0.7443 0.0718
C96_19 C 0.16011(15) 0.60416(15) 0.18724(14)
C99_19 C 0.18724(14) 0.66011(15) 0.10416(15)
C102_19 C 0.10416(15) 0.68724(14) 0.16011(15)
C107_19 C 0.15211(14) 0.62787(13) 0.16844(13)
C110_19 C 0.16844(13) 0.65211(14) 0.12787(13)
C113_19 C 0.12787(13) 0.66844(13) 0.15211(14)
C118_19 C 0.17073(12) 0.63024(12) 0.14664(13)
C121_19 C 0.13024(12) 0.64664(13) 0.17073(12)
C124_19 C 0.14664(13) 0.67073(12) 0.13024(12)
C129_19 C 0.16710(18) 0.61397(19) 0.21593(18)
C132_19 C 0.21593(18) 0.66710(18) 0.11397(19)
C135_19 C 0.11397(19) 0.71593(18) 0.16710(18)
H51_19 H 0.1499 0.6195 0.2252
H54_19 H 0.2252 0.6499 0.1195
H57_19 H 0.1195 0.7252 0.1499
H62_19 H 0.1749 0.5984 0.2263
H65_19 H 0.2263 0.6749 0.0984
H68_19 H 0.0984 0.7263 0.1749
C140_19 C 0.1878(2) 0.6386(2) 0.2174(3)
C143_19 C 0.2174(3) 0.6878(2) 0.1386(2)
C146_19 C 0.1386(2) 0.7174(3) 0.1878(2)
H73_19 H 0.1806 0.6540 0.2066
H76_19 H 0.2066 0.6806 0.1540
H79_19 H 0.1540 0.7066 0.1806
H84_19 H 0.1900 0.6443 0.2366
H87_19 H 0.2366 0.6900 0.1443
H90_19 H 0.1443 0.7366 0.1900
H95_19 H 0.2056 0.6328 0.2100
H98_19 H 0.2100 0.7056 0.1328
H101_19 H 0.1328 0.7100 0.2056
C151_19 C 0.1382(2) 0.58020(17) 0.18670(18)
C154_19 C 0.18670(18) 0.6382(2) 0.08020(17)
C157_19 C 0.08020(17) 0.68670(18) 0.1382(2)
H106_19 H 0.1213 0.5866 0.1959
H109_19 H 0.1959 0.6213 0.0866
H112_19 H 0.0866 0.6959 0.1213
H117_19 H 0.1454 0.5645 0.1973
H120_19 H 0.1973 0.6454 0.0645
H123_19 H 0.0645 0.6973 0.1454
C162_19 C 0.1306(2) 0.5700(2) 0.1569(2)
C165_19 C 0.1569(2) 0.6306(2) 0.0700(2)
C168_19 C 0.0700(2) 0.6569(2) 0.1306(2)
H128_19 H 0.1471 0.5629 0.1479
H131_19 H 0.1479 0.6471 0.0629
H134_19 H 0.0629 0.6479 0.1471
H139_19 H 0.1167 0.5555 0.1581
H142_19 H 0.1581 0.6167 0.0555
H145_19 H 0.0555 0.6581 0.1167
H150_19 H 0.1233 0.5854 0.1463
H153_19 H 0.1463 0.6233 0.0854
H156_19 H 0.0854 0.6463 0.1233
C17_20 C 0.75733(17) 0.45801(13) 0.17506(16)
C24_20 C 0.82494(16) 0.25733(17) 0.04199(13)
C25_20 C 0.95801(13) 0.32494(16) 0.24267(17)
C28_20 C 0.77554(18) 0.43591(13) 0.16602(12)
C35_20 C 0.83398(12) 0.27554(18) 0.06409(13)
C36_20 C 0.93591(13) 0.33398(12) 0.22446(18)
C39_20 C 0.79777(17) 0.42783(14) 0.18249(15)
C46_20 C 0.81751(15) 0.29777(17) 0.07217(14)
C47_20 C 0.92783(14) 0.31751(15) 0.20223(17)
H16_20 H 0.8014 0.4368 0.1995
H23_20 H 0.8005 0.3014 0.0632
H24_20 H 0.9368 0.3005 0.1986
C52_20 C 0.81448(15) 0.40625(13) 0.17332(13)
C57_20 C 0.82668(13) 0.31448(15) 0.09375(13)
C58_20 C 0.90625(13) 0.32668(13) 0.18552(15)
C63_20 C 0.80866(14) 0.39205(13) 0.14925(12)
C66_20 C 0.89205(13) 0.35075(12) 0.19134(14)
C69_20 C 0.85075(12) 0.30866(14) 0.10795(13)
C74_20 C 0.78683(15) 0.40102(14) 0.13331(13)
C77_20 C 0.90102(14) 0.36669(13) 0.21317(15)
C80_20 C 0.86669(13) 0.28683(15) 0.09898(14)
H29_20 H 0.7830 0.3922 0.1163
H32_20 H 0.8922 0.3837 0.2170
H35_20 H 0.8837 0.2830 0.1078
C83_20 C 0.77067(16) 0.42248(13) 0.14185(14)
C88_20 C 0.92248(13) 0.35815(14) 0.22933(16)
C91_20 C 0.85815(14) 0.27067(16) 0.07752(13)
H38_20 H 0.7557 0.4282 0.1307
H43_20 H 0.9282 0.3693 0.2443
H46_20 H 0.8693 0.2557 0.0718
C96_20 C 0.83989(15) 0.39584(15) 0.18724(14)
C99_20 C 0.81276(14) 0.33989(15) 0.10416(15)
C102_20 C 0.89584(15) 0.31276(14) 0.16011(15)
C107_20 C 0.84789(14) 0.37213(13) 0.16844(13)
C110_20 C 0.83156(13) 0.34789(14) 0.12787(13)
C113_20 C 0.87213(13) 0.33156(13) 0.15211(14)
C118_20 C 0.82927(12) 0.36976(12) 0.14664(13)
C121_20 C 0.86976(12) 0.35336(13) 0.17073(12)
C124_20 C 0.85336(13) 0.32927(12) 0.13024(12)
C129_20 C 0.83290(18) 0.38603(19) 0.21593(18)
C132_20 C 0.78407(18) 0.33290(18) 0.11397(19)
C135_20 C 0.88603(19) 0.28407(18) 0.16710(18)
H51_20 H 0.8501 0.3805 0.2252
H54_20 H 0.7748 0.3501 0.1195
H57_20 H 0.8805 0.2748 0.1499
H62_20 H 0.8251 0.4016 0.2263
H65_20 H 0.7737 0.3251 0.0984
H68_20 H 0.9016 0.2737 0.1749
C140_20 C 0.8122(2) 0.3614(2) 0.2174(3)
C143_20 C 0.7826(3) 0.3122(2) 0.1386(2)
C146_20 C 0.8614(2) 0.2826(3) 0.1878(2)
H73_20 H 0.8194 0.3460 0.2066
H76_20 H 0.7934 0.3194 0.1540
H79_20 H 0.8460 0.2934 0.1806
H84_20 H 0.8100 0.3557 0.2366
H87_20 H 0.7634 0.3100 0.1443
H90_20 H 0.8557 0.2634 0.1900
H95_20 H 0.7944 0.3672 0.2100
H98_20 H 0.7900 0.2944 0.1328
H101_20 H 0.8672 0.2900 0.2056
C151_20 C 0.8618(2) 0.41980(17) 0.18670(18)
C154_20 C 0.81330(18) 0.3618(2) 0.08020(17)
C157_20 C 0.91980(17) 0.31330(18) 0.1382(2)
H106_20 H 0.8787 0.4134 0.1959
H109_20 H 0.8041 0.3787 0.0866
H112_20 H 0.9134 0.3041 0.1213
H117_20 H 0.8546 0.4355 0.1973
H120_20 H 0.8027 0.3546 0.0645
H123_20 H 0.9355 0.3027 0.1454
C162_20 C 0.8694(2) 0.4300(2) 0.1569(2)
C165_20 C 0.8431(2) 0.3694(2) 0.0700(2)
C168_20 C 0.9300(2) 0.3431(2) 0.1306(2)
H128_20 H 0.8529 0.4371 0.1479
H131_20 H 0.8521 0.3529 0.0629
H134_20 H 0.9371 0.3521 0.1471
H139_20 H 0.8833 0.4445 0.1581
H142_20 H 0.8419 0.3833 0.0555
H145_20 H 0.9445 0.3419 0.1167
H150_20 H 0.8767 0.4146 0.1463
H153_20 H 0.8537 0.3767 0.0854
H156_20 H 0.9146 0.3537 0.1233
C17_21 C 0.95801(13) 0.67506(16) 0.75733(17)
C24_21 C 0.75733(17) 0.54199(13) 0.82494(16)
C25_21 C 0.82494(16) 0.74267(17) 0.95801(13)
C28_21 C 0.93591(13) 0.66602(12) 0.77554(18)
C35_21 C 0.77554(18) 0.56409(13) 0.83398(12)
C36_21 C 0.83398(12) 0.72446(18) 0.93591(13)
C39_21 C 0.92783(14) 0.68249(15) 0.79777(17)
C46_21 C 0.79777(17) 0.57217(14) 0.81751(15)
C47_21 C 0.81751(15) 0.70223(17) 0.92783(14)
H16_21 H 0.9368 0.6995 0.8014
H23_21 H 0.8014 0.5632 0.8005
H24_21 H 0.8005 0.6986 0.9368
C52_21 C 0.90625(13) 0.67332(13) 0.81448(15)
C57_21 C 0.81448(15) 0.59375(13) 0.82668(13)
C58_21 C 0.82668(13) 0.68552(15) 0.90625(13)
C63_21 C 0.89205(13) 0.64925(12) 0.80866(14)
C66_21 C 0.85075(12) 0.69134(14) 0.89205(13)
C69_21 C 0.80866(14) 0.60795(13) 0.85075(12)
C74_21 C 0.90102(14) 0.63331(13) 0.78683(15)
C77_21 C 0.86669(13) 0.71317(15) 0.90102(14)
C80_21 C 0.78683(15) 0.59898(14) 0.86669(13)
H29_21 H 0.8922 0.6163 0.7830
H32_21 H 0.8837 0.7170 0.8922
H35_21 H 0.7830 0.6078 0.8837
C83_21 C 0.92248(13) 0.64185(14) 0.77067(16)
C88_21 C 0.85815(14) 0.72933(16) 0.92248(13)
C91_21 C 0.77067(16) 0.57752(13) 0.85815(14)
H38_21 H 0.9282 0.6307 0.7557
H43_21 H 0.8693 0.7443 0.9282
H46_21 H 0.7557 0.5718 0.8693
C96_21 C 0.89584(15) 0.68724(14) 0.83989(15)
C99_21 C 0.83989(15) 0.60416(15) 0.81276(14)
C102_21 C 0.81276(14) 0.66011(15) 0.89584(15)
C107_21 C 0.87213(13) 0.66844(13) 0.84789(14)
C110_21 C 0.84789(14) 0.62787(13) 0.83156(13)
C113_21 C 0.83156(13) 0.65211(14) 0.87213(13)
C118_21 C 0.86976(12) 0.64664(13) 0.82927(12)
C121_21 C 0.85336(13) 0.67073(12) 0.86976(12)
C124_21 C 0.82927(12) 0.63024(12) 0.85336(13)
C129_21 C 0.88603(19) 0.71593(18) 0.83290(18)
C132_21 C 0.83290(18) 0.61397(19) 0.78407(18)
C135_21 C 0.78407(18) 0.66710(18) 0.88603(19)
H51_21 H 0.8805 0.7252 0.8501
H54_21 H 0.8501 0.6195 0.7748
H57_21 H 0.7748 0.6499 0.8805
H62_21 H 0.9016 0.7263 0.8251
H65_21 H 0.8251 0.5984 0.7737
H68_21 H 0.7737 0.6749 0.9016
C140_21 C 0.8614(2) 0.7174(3) 0.8122(2)
C143_21 C 0.8122(2) 0.6386(2) 0.7826(3)
C146_21 C 0.7826(3) 0.6878(2) 0.8614(2)
H73_21 H 0.8460 0.7066 0.8194
H76_21 H 0.8194 0.6540 0.7934
H79_21 H 0.7934 0.6806 0.8460
H84_21 H 0.8557 0.7366 0.8100
H87_21 H 0.8100 0.6443 0.7634
H90_21 H 0.7634 0.6900 0.8557
H95_21 H 0.8672 0.7100 0.7944
H98_21 H 0.7944 0.6328 0.7900
H101_21 H 0.7900 0.7056 0.8672
C151_21 C 0.91980(17) 0.68670(18) 0.8618(2)
C154_21 C 0.8618(2) 0.58020(17) 0.81330(18)
C157_21 C 0.81330(18) 0.6382(2) 0.91980(17)
H106_21 H 0.9134 0.6959 0.8787
H109_21 H 0.8787 0.5866 0.8041
H112_21 H 0.8041 0.6213 0.9134
H117_21 H 0.9355 0.6973 0.8546
H120_21 H 0.8546 0.5645 0.8027
H123_21 H 0.8027 0.6454 0.9355
C162_21 C 0.9300(2) 0.6569(2) 0.8694(2)
C165_21 C 0.8694(2) 0.5700(2) 0.8431(2)
C168_21 C 0.8431(2) 0.6306(2) 0.9300(2)
H128_21 H 0.9371 0.6479 0.8529
H131_21 H 0.8529 0.5629 0.8521
H134_21 H 0.8521 0.6471 0.9371
H139_21 H 0.9445 0.6581 0.8833
H142_21 H 0.8833 0.5555 0.8419
H145_21 H 0.8419 0.6167 0.9445
H150_21 H 0.9146 0.6463 0.8767
H153_21 H 0.8767 0.5854 0.8537
H156_21 H 0.8537 0.6233 0.9146
O4_28 O 0.0000 0.7500 0.2500
O9_18 O 0.03463(11) 0.83856(13) 0.23731(14)
O24_18 O 0.03084(11) 0.80104(12) 0.26094(15)
O4_29 O 1.0000 0.7500 0.2500
O4_30 O 0.2500 0.7500 -0.0000
O5_18 O 0.23731(14) 0.66144(13) 0.03463(11)
O22_18 O 0.26094(15) 0.69896(12) 0.03084(11)
O4_31 O 0.2500 0.7500 1.0000
C17_22 C 0.45801(13) 0.74267(17) 0.17506(16)
C24_22 C 0.25733(17) 0.67506(16) 0.04199(13)
C25_22 C 0.32494(16) 0.54199(13) 0.24267(17)
C28_22 C 0.43591(13) 0.72446(18) 0.16602(12)
C35_22 C 0.27554(18) 0.66602(12) 0.06409(13)
C36_22 C 0.33398(12) 0.56409(13) 0.22446(18)
C39_22 C 0.42783(14) 0.70223(17) 0.18249(15)
C46_22 C 0.29777(17) 0.68249(15) 0.07217(14)
C47_22 C 0.31751(15) 0.57217(14) 0.20223(17)
H16_22 H 0.4368 0.6986 0.1995
H23_22 H 0.3014 0.6995 0.0632
H24_22 H 0.3005 0.5632 0.1986
C52_22 C 0.40625(13) 0.68552(15) 0.17332(13)
C57_22 C 0.31448(15) 0.67332(13) 0.09375(13)
C58_22 C 0.32668(13) 0.59375(13) 0.18552(15)
C63_22 C 0.39205(13) 0.69134(14) 0.14925(12)
C66_22 C 0.35075(12) 0.60795(13) 0.19134(14)
C69_22 C 0.30866(14) 0.64925(12) 0.10795(13)
C74_22 C 0.40102(14) 0.71317(15) 0.13331(13)
C77_22 C 0.36669(13) 0.59898(14) 0.21317(15)
C80_22 C 0.28683(15) 0.63331(13) 0.09898(14)
H29_22 H 0.3922 0.7170 0.1163
H32_22 H 0.3837 0.6078 0.2170
H35_22 H 0.2830 0.6163 0.1078
C83_22 C 0.42248(13) 0.72933(16) 0.14185(14)
C88_22 C 0.35815(14) 0.57752(13) 0.22933(16)
C91_22 C 0.27067(16) 0.64185(14) 0.07752(13)
H38_22 H 0.4282 0.7443 0.1307
H43_22 H 0.3693 0.5718 0.2443
H46_22 H 0.2557 0.6307 0.0718
C96_22 C 0.39584(15) 0.66011(15) 0.18724(14)
C99_22 C 0.33989(15) 0.68724(14) 0.10416(15)
C102_22 C 0.31276(14) 0.60416(15) 0.16011(15)
C107_22 C 0.37213(13) 0.65211(14) 0.16844(13)
C110_22 C 0.34789(14) 0.66844(13) 0.12787(13)
C113_22 C 0.33156(13) 0.62787(13) 0.15211(14)
C118_22 C 0.36976(12) 0.67073(12) 0.14664(13)
C121_22 C 0.35336(13) 0.63024(12) 0.17073(12)
C124_22 C 0.32927(12) 0.64664(13) 0.13024(12)
C129_22 C 0.38603(19) 0.66710(18) 0.21593(18)
C132_22 C 0.33290(18) 0.71593(18) 0.11397(19)
C135_22 C 0.28407(18) 0.61397(19) 0.16710(18)
H51_22 H 0.3805 0.6499 0.2252
H54_22 H 0.3501 0.7252 0.1195
H57_22 H 0.2748 0.6195 0.1499
H62_22 H 0.4016 0.6749 0.2263
H65_22 H 0.3251 0.7263 0.0984
H68_22 H 0.2737 0.5984 0.1749
C140_22 C 0.3614(2) 0.6878(2) 0.2174(3)
C143_22 C 0.3122(2) 0.7174(3) 0.1386(2)
C146_22 C 0.2826(3) 0.6386(2) 0.1878(2)
H73_22 H 0.3460 0.6806 0.2066
H76_22 H 0.3194 0.7066 0.1540
H79_22 H 0.2934 0.6540 0.1806
H84_22 H 0.3557 0.6900 0.2366
H87_22 H 0.3100 0.7366 0.1443
H90_22 H 0.2634 0.6443 0.1900
H95_22 H 0.3672 0.7056 0.2100
H98_22 H 0.2944 0.7100 0.1328
H101_22 H 0.2900 0.6328 0.2056
C151_22 C 0.41980(17) 0.6382(2) 0.18670(18)
C154_22 C 0.3618(2) 0.68670(18) 0.08020(17)
C157_22 C 0.31330(18) 0.58020(17) 0.1382(2)
H106_22 H 0.4134 0.6213 0.1959
H109_22 H 0.3787 0.6959 0.0866
H112_22 H 0.3041 0.5866 0.1213
H117_22 H 0.4355 0.6454 0.1973
H120_22 H 0.3546 0.6973 0.0645
H123_22 H 0.3027 0.5645 0.1454
C162_22 C 0.4300(2) 0.6306(2) 0.1569(2)
C165_22 C 0.3694(2) 0.6569(2) 0.0700(2)
C168_22 C 0.3431(2) 0.5700(2) 0.1306(2)
H128_22 H 0.4371 0.6471 0.1479
H131_22 H 0.3529 0.6479 0.0629
H134_22 H 0.3521 0.5629 0.1471
H139_22 H 0.4445 0.6167 0.1581
H142_22 H 0.3833 0.6581 0.0555
H145_22 H 0.3419 0.5555 0.1167
H150_22 H 0.4146 0.6233 0.1463
H153_22 H 0.3767 0.6463 0.0854
H156_22 H 0.3537 0.5854 0.1233
C17_23 C 0.67506(16) 0.45801(13) 0.24267(17)
C24_23 C 0.54199(13) 0.25733(17) 0.17506(16)
C25_23 C 0.74267(17) 0.32494(16) 0.04199(13)
C28_23 C 0.66602(12) 0.43591(13) 0.22446(18)
C35_23 C 0.56409(13) 0.27554(18) 0.16602(12)
C36_23 C 0.72446(18) 0.33398(12) 0.06409(13)
C39_23 C 0.68249(15) 0.42783(14) 0.20223(17)
C46_23 C 0.57217(14) 0.29777(17) 0.18249(15)
C47_23 C 0.70223(17) 0.31751(15) 0.07217(14)
H16_23 H 0.6995 0.4368 0.1986
H23_23 H 0.5632 0.3014 0.1995
H24_23 H 0.6986 0.3005 0.0632
C52_23 C 0.67332(13) 0.40625(13) 0.18552(15)
C57_23 C 0.59375(13) 0.31448(15) 0.17332(13)
C58_23 C 0.68552(15) 0.32668(13) 0.09375(13)
C63_23 C 0.64925(12) 0.39205(13) 0.19134(14)
C66_23 C 0.69134(14) 0.35075(12) 0.10795(13)
C69_23 C 0.60795(13) 0.30866(14) 0.14925(12)
C74_23 C 0.63331(13) 0.40102(14) 0.21317(15)
C77_23 C 0.71317(15) 0.36669(13) 0.09898(14)
C80_23 C 0.59898(14) 0.28683(15) 0.13331(13)
H29_23 H 0.6163 0.3922 0.2170
H32_23 H 0.7170 0.3837 0.1078
H35_23 H 0.6078 0.2830 0.1163
C83_23 C 0.64185(14) 0.42248(13) 0.22933(16)
C88_23 C 0.72933(16) 0.35815(14) 0.07752(13)
C91_23 C 0.57752(13) 0.27067(16) 0.14185(14)
H38_23 H 0.6307 0.4282 0.2443
H43_23 H 0.7443 0.3693 0.0718
H46_23 H 0.5718 0.2557 0.1307
C96_23 C 0.68724(14) 0.39584(15) 0.16011(15)
C99_23 C 0.60416(15) 0.33989(15) 0.18724(14)
C102_23 C 0.66011(15) 0.31276(14) 0.10416(15)
C107_23 C 0.66844(13) 0.37213(13) 0.15211(14)
C110_23 C 0.62787(13) 0.34789(14) 0.16844(13)
C113_23 C 0.65211(14) 0.33156(13) 0.12787(13)
C118_23 C 0.64664(13) 0.36976(12) 0.17073(12)
C121_23 C 0.67073(12) 0.35336(13) 0.13024(12)
C124_23 C 0.63024(12) 0.32927(12) 0.14664(13)
C129_23 C 0.71593(18) 0.38603(19) 0.16710(18)
C132_23 C 0.61397(19) 0.33290(18) 0.21593(18)
C135_23 C 0.66710(18) 0.28407(18) 0.11397(19)
H51_23 H 0.7252 0.3805 0.1499
H54_23 H 0.6195 0.3501 0.2252
H57_23 H 0.6499 0.2748 0.1195
H62_23 H 0.7263 0.4016 0.1749
H65_23 H 0.5984 0.3251 0.2263
H68_23 H 0.6749 0.2737 0.0984
C140_23 C 0.7174(3) 0.3614(2) 0.1878(2)
C143_23 C 0.6386(2) 0.3122(2) 0.2174(3)
C146_23 C 0.6878(2) 0.2826(3) 0.1386(2)
H73_23 H 0.7066 0.3460 0.1806
H76_23 H 0.6540 0.3194 0.2066
H79_23 H 0.6806 0.2934 0.1540
H84_23 H 0.7366 0.3557 0.1900
H87_23 H 0.6443 0.3100 0.2366
H90_23 H 0.6900 0.2634 0.1443
H95_23 H 0.7100 0.3672 0.2056
H98_23 H 0.6328 0.2944 0.2100
H101_23 H 0.7056 0.2900 0.1328
C151_23 C 0.68670(18) 0.41980(17) 0.1382(2)
C154_23 C 0.58020(17) 0.3618(2) 0.18670(18)
C157_23 C 0.6382(2) 0.31330(18) 0.08020(17)
H106_23 H 0.6959 0.4134 0.1213
H109_23 H 0.5866 0.3787 0.1959
H112_23 H 0.6213 0.3041 0.0866
H117_23 H 0.6973 0.4355 0.1454
H120_23 H 0.5645 0.3546 0.1973
H123_23 H 0.6454 0.3027 0.0645
C162_23 C 0.6569(2) 0.4300(2) 0.1306(2)
C165_23 C 0.5700(2) 0.3694(2) 0.1569(2)
C168_23 C 0.6306(2) 0.3431(2) 0.0700(2)
H128_23 H 0.6479 0.4371 0.1471
H131_23 H 0.5629 0.3529 0.1479
H134_23 H 0.6471 0.3521 0.0629
H139_23 H 0.6581 0.4445 0.1167
H142_23 H 0.5555 0.3833 0.1581
H145_23 H 0.6167 0.3419 0.0555
H150_23 H 0.6463 0.4146 0.1233
H153_23 H 0.5854 0.3767 0.1463
H156_23 H 0.6233 0.3537 0.0854
C17_24 C 0.74267(17) 0.67506(16) 0.95801(13)
C24_24 C 0.67506(16) 0.54199(13) 0.75733(17)
C25_24 C 0.54199(13) 0.74267(17) 0.82494(16)
C28_24 C 0.72446(18) 0.66602(12) 0.93591(13)
C35_24 C 0.66602(12) 0.56409(13) 0.77554(18)
C36_24 C 0.56409(13) 0.72446(18) 0.83398(12)
C39_24 C 0.70223(17) 0.68249(15) 0.92783(14)
C46_24 C 0.68249(15) 0.57217(14) 0.79777(17)
C47_24 C 0.57217(14) 0.70223(17) 0.81751(15)
H16_24 H 0.6986 0.6995 0.9368
H23_24 H 0.6995 0.5632 0.8014
H24_24 H 0.5632 0.6986 0.8005
C52_24 C 0.68552(15) 0.67332(13) 0.90625(13)
C57_24 C 0.67332(13) 0.59375(13) 0.81448(15)
C58_24 C 0.59375(13) 0.68552(15) 0.82668(13)
C63_24 C 0.69134(14) 0.64925(12) 0.89205(13)
C66_24 C 0.60795(13) 0.69134(14) 0.85075(12)
C69_24 C 0.64925(12) 0.60795(13) 0.80866(14)
C74_24 C 0.71317(15) 0.63331(13) 0.90102(14)
C77_24 C 0.59898(14) 0.71317(15) 0.86669(13)
C80_24 C 0.63331(13) 0.59898(14) 0.78683(15)
H29_24 H 0.7170 0.6163 0.8922
H32_24 H 0.6078 0.7170 0.8837
H35_24 H 0.6163 0.6078 0.7830
C83_24 C 0.72933(16) 0.64185(14) 0.92248(13)
C88_24 C 0.57752(13) 0.72933(16) 0.85815(14)
C91_24 C 0.64185(14) 0.57752(13) 0.77067(16)
H38_24 H 0.7443 0.6307 0.9282
H43_24 H 0.5718 0.7443 0.8693
H46_24 H 0.6307 0.5718 0.7557
C96_24 C 0.66011(15) 0.68724(14) 0.89584(15)
C99_24 C 0.68724(14) 0.60416(15) 0.83989(15)
C102_24 C 0.60416(15) 0.66011(15) 0.81276(14)
C107_24 C 0.65211(14) 0.66844(13) 0.87213(13)
C110_24 C 0.66844(13) 0.62787(13) 0.84789(14)
C113_24 C 0.62787(13) 0.65211(14) 0.83156(13)
C118_24 C 0.67073(12) 0.64664(13) 0.86976(12)
C121_24 C 0.63024(12) 0.67073(12) 0.85336(13)
C124_24 C 0.64664(13) 0.63024(12) 0.82927(12)
C129_24 C 0.66710(18) 0.71593(18) 0.88603(19)
C132_24 C 0.71593(18) 0.61397(19) 0.83290(18)
C135_24 C 0.61397(19) 0.66710(18) 0.78407(18)
H51_24 H 0.6499 0.7252 0.8805
H54_24 H 0.7252 0.6195 0.8501
H57_24 H 0.6195 0.6499 0.7748
H62_24 H 0.6749 0.7263 0.9016
H65_24 H 0.7263 0.5984 0.8251
H68_24 H 0.5984 0.6749 0.7737
C140_24 C 0.6878(2) 0.7174(3) 0.8614(2)
C143_24 C 0.7174(3) 0.6386(2) 0.8122(2)
C146_24 C 0.6386(2) 0.6878(2) 0.7826(3)
H73_24 H 0.6806 0.7066 0.8460
H76_24 H 0.7066 0.6540 0.8194
H79_24 H 0.6540 0.6806 0.7934
H84_24 H 0.6900 0.7366 0.8557
H87_24 H 0.7366 0.6443 0.8100
H90_24 H 0.6443 0.6900 0.7634
H95_24 H 0.7056 0.7100 0.8672
H98_24 H 0.7100 0.6328 0.7944
H101_24 H 0.6328 0.7056 0.7900
C151_24 C 0.6382(2) 0.68670(18) 0.91980(17)
C154_24 C 0.68670(18) 0.58020(17) 0.8618(2)
C157_24 C 0.58020(17) 0.6382(2) 0.81330(18)
H106_24 H 0.6213 0.6959 0.9134
H109_24 H 0.6959 0.5866 0.8787
H112_24 H 0.5866 0.6213 0.8041
H117_24 H 0.6454 0.6973 0.9355
H120_24 H 0.6973 0.5645 0.8546
H123_24 H 0.5645 0.6454 0.8027
C162_24 C 0.6306(2) 0.6569(2) 0.9300(2)
C165_24 C 0.6569(2) 0.5700(2) 0.8694(2)
C168_24 C 0.5700(2) 0.6306(2) 0.8431(2)
H128_24 H 0.6471 0.6479 0.9371
H131_24 H 0.6479 0.5629 0.8529
H134_24 H 0.5629 0.6471 0.8521
H139_24 H 0.6167 0.6581 0.9445
H142_24 H 0.6581 0.5555 0.8833
H145_24 H 0.5555 0.6167 0.8419
H150_24 H 0.6233 0.6463 0.9146
H153_24 H 0.6463 0.5854 0.8767
H156_24 H 0.5854 0.6233 0.8537
C17_25 C 0.24267(17) 0.95801(13) 0.32494(16)
C24_25 C 0.17506(16) 0.75733(17) 0.45801(13)
C25_25 C 0.04199(13) 0.82494(16) 0.25733(17)
C28_25 C 0.22446(18) 0.93591(13) 0.33398(12)
C35_25 C 0.16602(12) 0.77554(18) 0.43591(13)
C36_25 C 0.06409(13) 0.83398(12) 0.27554(18)
C39_25 C 0.20223(17) 0.92783(14) 0.31751(15)
C46_25 C 0.18249(15) 0.79777(17) 0.42783(14)
C47_25 C 0.07217(14) 0.81751(15) 0.29777(17)
H16_25 H 0.1986 0.9368 0.3005
H23_25 H 0.1995 0.8014 0.4368
H24_25 H 0.0632 0.8005 0.3014
C52_25 C 0.18552(15) 0.90625(13) 0.32668(13)
C57_25 C 0.17332(13) 0.81448(15) 0.40625(13)
C58_25 C 0.09375(13) 0.82668(13) 0.31448(15)
C63_25 C 0.19134(14) 0.89205(13) 0.35075(12)
C66_25 C 0.10795(13) 0.85075(12) 0.30866(14)
C69_25 C 0.14925(12) 0.80866(14) 0.39205(13)
C74_25 C 0.21317(15) 0.90102(14) 0.36669(13)
C77_25 C 0.09898(14) 0.86669(13) 0.28683(15)
C80_25 C 0.13331(13) 0.78683(15) 0.40102(14)
H29_25 H 0.2170 0.8922 0.3837
H32_25 H 0.1078 0.8837 0.2830
H35_25 H 0.1163 0.7830 0.3922
C83_25 C 0.22933(16) 0.92248(13) 0.35815(14)
C88_25 C 0.07752(13) 0.85815(14) 0.27067(16)
C91_25 C 0.14185(14) 0.77067(16) 0.42248(13)
H38_25 H 0.2443 0.9282 0.3693
H43_25 H 0.0718 0.8693 0.2557
H46_25 H 0.1307 0.7557 0.4282
C96_25 C 0.16011(15) 0.89584(15) 0.31276(14)
C99_25 C 0.18724(14) 0.83989(15) 0.39584(15)
C102_25 C 0.10416(15) 0.81276(14) 0.33989(15)
C107_25 C 0.15211(14) 0.87213(13) 0.33156(13)
C110_25 C 0.16844(13) 0.84789(14) 0.37213(13)
C113_25 C 0.12787(13) 0.83156(13) 0.34789(14)
C118_25 C 0.17073(12) 0.86976(12) 0.35336(13)
C121_25 C 0.13024(12) 0.85336(13) 0.32927(12)
C124_25 C 0.14664(13) 0.82927(12) 0.36976(12)
C129_25 C 0.16710(18) 0.88603(19) 0.28407(18)
C132_25 C 0.21593(18) 0.83290(18) 0.38603(19)
C135_25 C 0.11397(19) 0.78407(18) 0.33290(18)
H51_25 H 0.1499 0.8805 0.2748
H54_25 H 0.2252 0.8501 0.3805
H57_25 H 0.1195 0.7748 0.3501
H62_25 H 0.1749 0.9016 0.2737
H65_25 H 0.2263 0.8251 0.4016
H68_25 H 0.0984 0.7737 0.3251
C140_25 C 0.1878(2) 0.8614(2) 0.2826(3)
C143_25 C 0.2174(3) 0.8122(2) 0.3614(2)
C146_25 C 0.1386(2) 0.7826(3) 0.3122(2)
H73_25 H 0.1806 0.8460 0.2934
H76_25 H 0.2066 0.8194 0.3460
H79_25 H 0.1540 0.7934 0.3194
H84_25 H 0.1900 0.8557 0.2634
H87_25 H 0.2366 0.8100 0.3557
H90_25 H 0.1443 0.7634 0.3100
H95_25 H 0.2056 0.8672 0.2900
H98_25 H 0.2100 0.7944 0.3672
H101_25 H 0.1328 0.7900 0.2944
C151_25 C 0.1382(2) 0.91980(17) 0.31330(18)
C154_25 C 0.18670(18) 0.8618(2) 0.41980(17)
C157_25 C 0.08020(17) 0.81330(18) 0.3618(2)
H106_25 H 0.1213 0.9134 0.3041
H109_25 H 0.1959 0.8787 0.4134
H112_25 H 0.0866 0.8041 0.3787
H117_25 H 0.1454 0.9355 0.3027
H120_25 H 0.1973 0.8546 0.4355
H123_25 H 0.0645 0.8027 0.3546
C162_25 C 0.1306(2) 0.9300(2) 0.3431(2)
C165_25 C 0.1569(2) 0.8694(2) 0.4300(2)
C168_25 C 0.0700(2) 0.8431(2) 0.3694(2)
H128_25 H 0.1471 0.9371 0.3521
H131_25 H 0.1479 0.8529 0.4371
H134_25 H 0.0629 0.8521 0.3529
H139_25 H 0.1167 0.9445 0.3419
H142_25 H 0.1581 0.8833 0.4445
H145_25 H 0.0555 0.8419 0.3833
H150_25 H 0.1233 0.9146 0.3537
H153_25 H 0.1463 0.8767 0.4146
H156_25 H 0.0854 0.8537 0.3767
O4_32 O 0.2500 -0.0000 0.7500
O11_12 O 0.26269(14) 0.03463(11) 0.66144(13)
O18_16 O 0.16144(13) 0.26269(14) 0.53463(11)
O19_14 O 0.03463(11) 0.16144(13) 0.76269(14)
O21_12 O 0.23906(15) 0.03084(11) 0.69896(12)
O33_16 O 0.19896(12) 0.23906(15) 0.53084(11)
O34_14 O 0.03084(11) 0.19896(12) 0.73906(15)
C17_26 C 0.24267(17) 0.04199(13) 0.67506(16)
C24_26 C 0.17506(16) 0.24267(17) 0.54199(13)
C25_26 C 0.04199(13) 0.17506(16) 0.74267(17)
C28_26 C 0.22446(18) 0.06409(13) 0.66602(12)
C35_26 C 0.16602(12) 0.22446(18) 0.56409(13)
C36_26 C 0.06409(13) 0.16602(12) 0.72446(18)
C39_26 C 0.20223(17) 0.07217(14) 0.68249(15)
C46_26 C 0.18249(15) 0.20223(17) 0.57217(14)
C47_26 C 0.07217(14) 0.18249(15) 0.70223(17)
H16_26 H 0.1986 0.0632 0.6995
H23_26 H 0.1995 0.1986 0.5632
H24_26 H 0.0632 0.1995 0.6986
C52_26 C 0.18552(15) 0.09375(13) 0.67332(13)
C57_26 C 0.17332(13) 0.18552(15) 0.59375(13)
C58_26 C 0.09375(13) 0.17332(13) 0.68552(15)
C63_26 C 0.19134(14) 0.10795(13) 0.64925(12)
C66_26 C 0.10795(13) 0.14925(12) 0.69134(14)
C69_26 C 0.14925(12) 0.19134(14) 0.60795(13)
C74_26 C 0.21317(15) 0.09898(14) 0.63331(13)
C77_26 C 0.09898(14) 0.13331(13) 0.71317(15)
C80_26 C 0.13331(13) 0.21317(15) 0.59898(14)
H29_26 H 0.2170 0.1078 0.6163
H32_26 H 0.1078 0.1163 0.7170
H35_26 H 0.1163 0.2170 0.6078
C83_26 C 0.22933(16) 0.07752(13) 0.64185(14)
C88_26 C 0.07752(13) 0.14185(14) 0.72933(16)
C91_26 C 0.14185(14) 0.22933(16) 0.57752(13)
H38_26 H 0.2443 0.0718 0.6307
H43_26 H 0.0718 0.1307 0.7443
H46_26 H 0.1307 0.2443 0.5718
C96_26 C 0.16011(15) 0.10416(15) 0.68724(14)
C99_26 C 0.18724(14) 0.16011(15) 0.60416(15)
C102_26 C 0.10416(15) 0.18724(14) 0.66011(15)
C107_26 C 0.15211(14) 0.12787(13) 0.66844(13)
C110_26 C 0.16844(13) 0.15211(14) 0.62787(13)
C113_26 C 0.12787(13) 0.16844(13) 0.65211(14)
C118_26 C 0.17073(12) 0.13024(12) 0.64664(13)
C121_26 C 0.13024(12) 0.14664(13) 0.67073(12)
C124_26 C 0.14664(13) 0.17073(12) 0.63024(12)
C129_26 C 0.16710(18) 0.11397(19) 0.71593(18)
C132_26 C 0.21593(18) 0.16710(18) 0.61397(19)
C135_26 C 0.11397(19) 0.21593(18) 0.66710(18)
H51_26 H 0.1499 0.1195 0.7252
H54_26 H 0.2252 0.1499 0.6195
H57_26 H 0.1195 0.2252 0.6499
H62_26 H 0.1749 0.0984 0.7263
H65_26 H 0.2263 0.1749 0.5984
H68_26 H 0.0984 0.2263 0.6749
C140_26 C 0.1878(2) 0.1386(2) 0.7174(3)
C143_26 C 0.2174(3) 0.1878(2) 0.6386(2)
C146_26 C 0.1386(2) 0.2174(3) 0.6878(2)
H73_26 H 0.1806 0.1540 0.7066
H76_26 H 0.2066 0.1806 0.6540
H79_26 H 0.1540 0.2066 0.6806
H84_26 H 0.1900 0.1443 0.7366
H87_26 H 0.2366 0.1900 0.6443
H90_26 H 0.1443 0.2366 0.6900
H95_26 H 0.2056 0.1328 0.7100
H98_26 H 0.2100 0.2056 0.6328
H101_26 H 0.1328 0.2100 0.7056
C151_26 C 0.1382(2) 0.08020(17) 0.68670(18)
C154_26 C 0.18670(18) 0.1382(2) 0.58020(17)
C157_26 C 0.08020(17) 0.18670(18) 0.6382(2)
H106_26 H 0.1213 0.0866 0.6959
H109_26 H 0.1959 0.1213 0.5866
H112_26 H 0.0866 0.1959 0.6213
H117_26 H 0.1454 0.0645 0.6973
H120_26 H 0.1973 0.1454 0.5645
H123_26 H 0.0645 0.1973 0.6454
C162_26 C 0.1306(2) 0.0700(2) 0.6569(2)
C165_26 C 0.1569(2) 0.1306(2) 0.5700(2)
C168_26 C 0.0700(2) 0.1569(2) 0.6306(2)
H128_26 H 0.1471 0.0629 0.6479
H131_26 H 0.1479 0.1471 0.5629
H134_26 H 0.0629 0.1479 0.6471
H139_26 H 0.1167 0.0555 0.6581
H142_26 H 0.1581 0.1167 0.5555
H145_26 H 0.0555 0.1581 0.6167
H150_26 H 0.1233 0.0854 0.6463
H153_26 H 0.1463 0.1233 0.5854
H156_26 H 0.0854 0.1463 0.6233
O4_33 O 0.2500 1.0000 0.7500
C17_27 C 0.75733(17) 0.95801(13) 0.67506(16)
C24_27 C 0.82494(16) 0.75733(17) 0.54199(13)
C25_27 C 0.95801(13) 0.82494(16) 0.74267(17)
C28_27 C 0.77554(18) 0.93591(13) 0.66602(12)
C35_27 C 0.83398(12) 0.77554(18) 0.56409(13)
C36_27 C 0.93591(13) 0.83398(12) 0.72446(18)
C39_27 C 0.79777(17) 0.92783(14) 0.68249(15)
C46_27 C 0.81751(15) 0.79777(17) 0.57217(14)
C47_27 C 0.92783(14) 0.81751(15) 0.70223(17)
H16_27 H 0.8014 0.9368 0.6995
H23_27 H 0.8005 0.8014 0.5632
H24_27 H 0.9368 0.8005 0.6986
C52_27 C 0.81448(15) 0.90625(13) 0.67332(13)
C57_27 C 0.82668(13) 0.81448(15) 0.59375(13)
C58_27 C 0.90625(13) 0.82668(13) 0.68552(15)
C63_27 C 0.80866(14) 0.89205(13) 0.64925(12)
C66_27 C 0.89205(13) 0.85075(12) 0.69134(14)
C69_27 C 0.85075(12) 0.80866(14) 0.60795(13)
C74_27 C 0.78683(15) 0.90102(14) 0.63331(13)
C77_27 C 0.90102(14) 0.86669(13) 0.71317(15)
C80_27 C 0.86669(13) 0.78683(15) 0.59898(14)
H29_27 H 0.7830 0.8922 0.6163
H32_27 H 0.8922 0.8837 0.7170
H35_27 H 0.8837 0.7830 0.6078
C83_27 C 0.77067(16) 0.92248(13) 0.64185(14)
C88_27 C 0.92248(13) 0.85815(14) 0.72933(16)
C91_27 C 0.85815(14) 0.77067(16) 0.57752(13)
H38_27 H 0.7557 0.9282 0.6307
H43_27 H 0.9282 0.8693 0.7443
H46_27 H 0.8693 0.7557 0.5718
C96_27 C 0.83989(15) 0.89584(15) 0.68724(14)
C99_27 C 0.81276(14) 0.83989(15) 0.60416(15)
C102_27 C 0.89584(15) 0.81276(14) 0.66011(15)
C107_27 C 0.84789(14) 0.87213(13) 0.66844(13)
C110_27 C 0.83156(13) 0.84789(14) 0.62787(13)
C113_27 C 0.87213(13) 0.83156(13) 0.65211(14)
C118_27 C 0.82927(12) 0.86976(12) 0.64664(13)
C121_27 C 0.86976(12) 0.85336(13) 0.67073(12)
C124_27 C 0.85336(13) 0.82927(12) 0.63024(12)
C129_27 C 0.83290(18) 0.88603(19) 0.71593(18)
C132_27 C 0.78407(18) 0.83290(18) 0.61397(19)
C135_27 C 0.88603(19) 0.78407(18) 0.66710(18)
H51_27 H 0.8501 0.8805 0.7252
H54_27 H 0.7748 0.8501 0.6195
H57_27 H 0.8805 0.7748 0.6499
H62_27 H 0.8251 0.9016 0.7263
H65_27 H 0.7737 0.8251 0.5984
H68_27 H 0.9016 0.7737 0.6749
C140_27 C 0.8122(2) 0.8614(2) 0.7174(3)
C143_27 C 0.7826(3) 0.8122(2) 0.6386(2)
C146_27 C 0.8614(2) 0.7826(3) 0.6878(2)
H73_27 H 0.8194 0.8460 0.7066
H76_27 H 0.7934 0.8194 0.6540
H79_27 H 0.8460 0.7934 0.6806
H84_27 H 0.8100 0.8557 0.7366
H87_27 H 0.7634 0.8100 0.6443
H90_27 H 0.8557 0.7634 0.6900
H95_27 H 0.7944 0.8672 0.7100
H98_27 H 0.7900 0.7944 0.6328
H101_27 H 0.8672 0.7900 0.7056
C151_27 C 0.8618(2) 0.91980(17) 0.68670(18)
C154_27 C 0.81330(18) 0.8618(2) 0.58020(17)
C157_27 C 0.91980(17) 0.81330(18) 0.6382(2)
H106_27 H 0.8787 0.9134 0.6959
H109_27 H 0.8041 0.8787 0.5866
H112_27 H 0.9134 0.8041 0.6213
H117_27 H 0.8546 0.9355 0.6973
H120_27 H 0.8027 0.8546 0.5645
H123_27 H 0.9355 0.8027 0.6454
C162_27 C 0.8694(2) 0.9300(2) 0.6569(2)
C165_27 C 0.8431(2) 0.8694(2) 0.5700(2)
C168_27 C 0.9300(2) 0.8431(2) 0.6306(2)
H128_27 H 0.8529 0.9371 0.6479
H131_27 H 0.8521 0.8529 0.5629
H134_27 H 0.9371 0.8521 0.6471
H139_27 H 0.8833 0.9445 0.6581
H142_27 H 0.8419 0.8833 0.5555
H145_27 H 0.9445 0.8419 0.6167
H150_27 H 0.8767 0.9146 0.6463
H153_27 H 0.8537 0.8767 0.5854
H156_27 H 0.9146 0.8537 0.6233
C17_28 C 0.95801(13) 0.17506(16) 0.25733(17)
C24_28 C 0.75733(17) 0.04199(13) 0.32494(16)
C25_28 C 0.82494(16) 0.24267(17) 0.45801(13)
C28_28 C 0.93591(13) 0.16602(12) 0.27554(18)
C35_28 C 0.77554(18) 0.06409(13) 0.33398(12)
C36_28 C 0.83398(12) 0.22446(18) 0.43591(13)
C39_28 C 0.92783(14) 0.18249(15) 0.29777(17)
C46_28 C 0.79777(17) 0.07217(14) 0.31751(15)
C47_28 C 0.81751(15) 0.20223(17) 0.42783(14)
H16_28 H 0.9368 0.1995 0.3014
H23_28 H 0.8014 0.0632 0.3005
H24_28 H 0.8005 0.1986 0.4368
C52_28 C 0.90625(13) 0.17332(13) 0.31448(15)
C57_28 C 0.81448(15) 0.09375(13) 0.32668(13)
C58_28 C 0.82668(13) 0.18552(15) 0.40625(13)
C63_28 C 0.89205(13) 0.14925(12) 0.30866(14)
C66_28 C 0.85075(12) 0.19134(14) 0.39205(13)
C69_28 C 0.80866(14) 0.10795(13) 0.35075(12)
C74_28 C 0.90102(14) 0.13331(13) 0.28683(15)
C77_28 C 0.86669(13) 0.21317(15) 0.40102(14)
C80_28 C 0.78683(15) 0.09898(14) 0.36669(13)
H29_28 H 0.8922 0.1163 0.2830
H32_28 H 0.8837 0.2170 0.3922
H35_28 H 0.7830 0.1078 0.3837
C83_28 C 0.92248(13) 0.14185(14) 0.27067(16)
C88_28 C 0.85815(14) 0.22933(16) 0.42248(13)
C91_28 C 0.77067(16) 0.07752(13) 0.35815(14)
H38_28 H 0.9282 0.1307 0.2557
H43_28 H 0.8693 0.2443 0.4282
H46_28 H 0.7557 0.0718 0.3693
C96_28 C 0.89584(15) 0.18724(14) 0.33989(15)
C99_28 C 0.83989(15) 0.10416(15) 0.31276(14)
C102_28 C 0.81276(14) 0.16011(15) 0.39584(15)
C107_28 C 0.87213(13) 0.16844(13) 0.34789(14)
C110_28 C 0.84789(14) 0.12787(13) 0.33156(13)
C113_28 C 0.83156(13) 0.15211(14) 0.37213(13)
C118_28 C 0.86976(12) 0.14664(13) 0.32927(12)
C121_28 C 0.85336(13) 0.17073(12) 0.36976(12)
C124_28 C 0.82927(12) 0.13024(12) 0.35336(13)
C129_28 C 0.88603(19) 0.21593(18) 0.33290(18)
C132_28 C 0.83290(18) 0.11397(19) 0.28407(18)
C135_28 C 0.78407(18) 0.16710(18) 0.38603(19)
H51_28 H 0.8805 0.2252 0.3501
H54_28 H 0.8501 0.1195 0.2748
H57_28 H 0.7748 0.1499 0.3805
H62_28 H 0.9016 0.2263 0.3251
H65_28 H 0.8251 0.0984 0.2737
H68_28 H 0.7737 0.1749 0.4016
C140_28 C 0.8614(2) 0.2174(3) 0.3122(2)
C143_28 C 0.8122(2) 0.1386(2) 0.2826(3)
C146_28 C 0.7826(3) 0.1878(2) 0.3614(2)
H73_28 H 0.8460 0.2066 0.3194
H76_28 H 0.8194 0.1540 0.2934
H79_28 H 0.7934 0.1806 0.3460
H84_28 H 0.8557 0.2366 0.3100
H87_28 H 0.8100 0.1443 0.2634
H90_28 H 0.7634 0.1900 0.3557
H95_28 H 0.8672 0.2100 0.2944
H98_28 H 0.7944 0.1328 0.2900
H101_28 H 0.7900 0.2056 0.3672
C151_28 C 0.91980(17) 0.18670(18) 0.3618(2)
C154_28 C 0.8618(2) 0.08020(17) 0.31330(18)
C157_28 C 0.81330(18) 0.1382(2) 0.41980(17)
H106_28 H 0.9134 0.1959 0.3787
H109_28 H 0.8787 0.0866 0.3041
H112_28 H 0.8041 0.1213 0.4134
H117_28 H 0.9355 0.1973 0.3546
H120_28 H 0.8546 0.0645 0.3027
H123_28 H 0.8027 0.1454 0.4355
C162_28 C 0.9300(2) 0.1569(2) 0.3694(2)
C165_28 C 0.8694(2) 0.0700(2) 0.3431(2)
C168_28 C 0.8431(2) 0.1306(2) 0.4300(2)
H128_28 H 0.9371 0.1479 0.3529
H131_28 H 0.8529 0.0629 0.3521
H134_28 H 0.8521 0.1471 0.4371
H139_28 H 0.9445 0.1581 0.3833
H142_28 H 0.8833 0.0555 0.3419
H145_28 H 0.8419 0.1167 0.4445
H150_28 H 0.9146 0.1463 0.3767
H153_28 H 0.8767 0.0854 0.3537
H156_28 H 0.8537 0.1233 0.4146
O4_34 O 0.0000 0.2500 0.7500
O4_35 O 1.0000 0.2500 0.7500
O4_36 O 0.2500 0.2500 0.5000
C17_29 C 0.95801(13) 0.75733(17) 0.82494(16)
C24_29 C 0.75733(17) 0.82494(16) 0.95801(13)
C25_29 C 0.82494(16) 0.95801(13) 0.75733(17)
C28_29 C 0.93591(13) 0.77554(18) 0.83398(12)
C35_29 C 0.77554(18) 0.83398(12) 0.93591(13)
C36_29 C 0.83398(12) 0.93591(13) 0.77554(18)
C39_29 C 0.92783(14) 0.79777(17) 0.81751(15)
C46_29 C 0.79777(17) 0.81751(15) 0.92783(14)
C47_29 C 0.81751(15) 0.92783(14) 0.79777(17)
H16_29 H 0.9368 0.8014 0.8005
H23_29 H 0.8014 0.8005 0.9368
H24_29 H 0.8005 0.9368 0.8014
C52_29 C 0.90625(13) 0.81448(15) 0.82668(13)
C57_29 C 0.81448(15) 0.82668(13) 0.90625(13)
C58_29 C 0.82668(13) 0.90625(13) 0.81448(15)
C63_29 C 0.89205(13) 0.80866(14) 0.85075(12)
C66_29 C 0.85075(12) 0.89205(13) 0.80866(14)
C69_29 C 0.80866(14) 0.85075(12) 0.89205(13)
C74_29 C 0.90102(14) 0.78683(15) 0.86669(13)
C77_29 C 0.86669(13) 0.90102(14) 0.78683(15)
C80_29 C 0.78683(15) 0.86669(13) 0.90102(14)
H29_29 H 0.8922 0.7830 0.8837
H32_29 H 0.8837 0.8922 0.7830
H35_29 H 0.7830 0.8837 0.8922
C83_29 C 0.92248(13) 0.77067(16) 0.85815(14)
C88_29 C 0.85815(14) 0.92248(13) 0.77067(16)
C91_29 C 0.77067(16) 0.85815(14) 0.92248(13)
H38_29 H 0.9282 0.7557 0.8693
H43_29 H 0.8693 0.9282 0.7557
H46_29 H 0.7557 0.8693 0.9282
C96_29 C 0.89584(15) 0.83989(15) 0.81276(14)
C99_29 C 0.83989(15) 0.81276(14) 0.89584(15)
C102_29 C 0.81276(14) 0.89584(15) 0.83989(15)
C107_29 C 0.87213(13) 0.84789(14) 0.83156(13)
C110_29 C 0.84789(14) 0.83156(13) 0.87213(13)
C113_29 C 0.83156(13) 0.87213(13) 0.84789(14)
C118_29 C 0.86976(12) 0.82927(12) 0.85336(13)
C121_29 C 0.85336(13) 0.86976(12) 0.82927(12)
C124_29 C 0.82927(12) 0.85336(13) 0.86976(12)
C129_29 C 0.88603(19) 0.83290(18) 0.78407(18)
C132_29 C 0.83290(18) 0.78407(18) 0.88603(19)
C135_29 C 0.78407(18) 0.88603(19) 0.83290(18)
H51_29 H 0.8805 0.8501 0.7748
H54_29 H 0.8501 0.7748 0.8805
H57_29 H 0.7748 0.8805 0.8501
H62_29 H 0.9016 0.8251 0.7737
H65_29 H 0.8251 0.7737 0.9016
H68_29 H 0.7737 0.9016 0.8251
C140_29 C 0.8614(2) 0.8122(2) 0.7826(3)
C143_29 C 0.8122(2) 0.7826(3) 0.8614(2)
C146_29 C 0.7826(3) 0.8614(2) 0.8122(2)
H73_29 H 0.8460 0.8194 0.7934
H76_29 H 0.8194 0.7934 0.8460
H79_29 H 0.7934 0.8460 0.8194
H84_29 H 0.8557 0.8100 0.7634
H87_29 H 0.8100 0.7634 0.8557
H90_29 H 0.7634 0.8557 0.8100
H95_29 H 0.8672 0.7944 0.7900
H98_29 H 0.7944 0.7900 0.8672
H101_29 H 0.7900 0.8672 0.7944
C151_29 C 0.91980(17) 0.8618(2) 0.81330(18)
C154_29 C 0.8618(2) 0.81330(18) 0.91980(17)
C157_29 C 0.81330(18) 0.91980(17) 0.8618(2)
H106_29 H 0.9134 0.8787 0.8041
H109_29 H 0.8787 0.8041 0.9134
H112_29 H 0.8041 0.9134 0.8787
H117_29 H 0.9355 0.8546 0.8027
H120_29 H 0.8546 0.8027 0.9355
H123_29 H 0.8027 0.9355 0.8546
C162_29 C 0.9300(2) 0.8694(2) 0.8431(2)
C165_29 C 0.8694(2) 0.8431(2) 0.9300(2)
C168_29 C 0.8431(2) 0.9300(2) 0.8694(2)
H128_29 H 0.9371 0.8529 0.8521
H131_29 H 0.8529 0.8521 0.9371
H134_29 H 0.8521 0.9371 0.8529
H139_29 H 0.9445 0.8833 0.8419
H142_29 H 0.8833 0.8419 0.9445
H145_29 H 0.8419 0.9445 0.8833
H150_29 H 0.9146 0.8767 0.8537
H153_29 H 0.8767 0.8537 0.9146
H156_29 H 0.8537 0.9146 0.8767
C17_30 C 0.95801(13) 0.25733(17) 0.32494(16)
C24_30 C 0.75733(17) 0.32494(16) 0.45801(13)
C25_30 C 0.82494(16) 0.45801(13) 0.25733(17)
C28_30 C 0.93591(13) 0.27554(18) 0.33398(12)
C35_30 C 0.77554(18) 0.33398(12) 0.43591(13)
C36_30 C 0.83398(12) 0.43591(13) 0.27554(18)
C39_30 C 0.92783(14) 0.29777(17) 0.31751(15)
C46_30 C 0.79777(17) 0.31751(15) 0.42783(14)
C47_30 C 0.81751(15) 0.42783(14) 0.29777(17)
H16_30 H 0.9368 0.3014 0.3005
H23_30 H 0.8014 0.3005 0.4368
H24_30 H 0.8005 0.4368 0.3014
C52_30 C 0.90625(13) 0.31448(15) 0.32668(13)
C57_30 C 0.81448(15) 0.32668(13) 0.40625(13)
C58_30 C 0.82668(13) 0.40625(13) 0.31448(15)
C63_30 C 0.89205(13) 0.30866(14) 0.35075(12)
C66_30 C 0.85075(12) 0.39205(13) 0.30866(14)
C69_30 C 0.80866(14) 0.35075(12) 0.39205(13)
C74_30 C 0.90102(14) 0.28683(15) 0.36669(13)
C77_30 C 0.86669(13) 0.40102(14) 0.28683(15)
C80_30 C 0.78683(15) 0.36669(13) 0.40102(14)
H29_30 H 0.8922 0.2830 0.3837
H32_30 H 0.8837 0.3922 0.2830
H35_30 H 0.7830 0.3837 0.3922
C83_30 C 0.92248(13) 0.27067(16) 0.35815(14)
C88_30 C 0.85815(14) 0.42248(13) 0.27067(16)
C91_30 C 0.77067(16) 0.35815(14) 0.42248(13)
H38_30 H 0.9282 0.2557 0.3693
H43_30 H 0.8693 0.4282 0.2557
H46_30 H 0.7557 0.3693 0.4282
C96_30 C 0.89584(15) 0.33989(15) 0.31276(14)
C99_30 C 0.83989(15) 0.31276(14) 0.39584(15)
C102_30 C 0.81276(14) 0.39584(15) 0.33989(15)
C107_30 C 0.87213(13) 0.34789(14) 0.33156(13)
C110_30 C 0.84789(14) 0.33156(13) 0.37213(13)
C113_30 C 0.83156(13) 0.37213(13) 0.34789(14)
C118_30 C 0.86976(12) 0.32927(12) 0.35336(13)
C121_30 C 0.85336(13) 0.36976(12) 0.32927(12)
C124_30 C 0.82927(12) 0.35336(13) 0.36976(12)
C129_30 C 0.88603(19) 0.33290(18) 0.28407(18)
C132_30 C 0.83290(18) 0.28407(18) 0.38603(19)
C135_30 C 0.78407(18) 0.38603(19) 0.33290(18)
H51_30 H 0.8805 0.3501 0.2748
H54_30 H 0.8501 0.2748 0.3805
H57_30 H 0.7748 0.3805 0.3501
H62_30 H 0.9016 0.3251 0.2737
H65_30 H 0.8251 0.2737 0.4016
H68_30 H 0.7737 0.4016 0.3251
C140_30 C 0.8614(2) 0.3122(2) 0.2826(3)
C143_30 C 0.8122(2) 0.2826(3) 0.3614(2)
C146_30 C 0.7826(3) 0.3614(2) 0.3122(2)
H73_30 H 0.8460 0.3194 0.2934
H76_30 H 0.8194 0.2934 0.3460
H79_30 H 0.7934 0.3460 0.3194
H84_30 H 0.8557 0.3100 0.2634
H87_30 H 0.8100 0.2634 0.3557
H90_30 H 0.7634 0.3557 0.3100
H95_30 H 0.8672 0.2944 0.2900
H98_30 H 0.7944 0.2900 0.3672
H101_30 H 0.7900 0.3672 0.2944
C151_30 C 0.91980(17) 0.3618(2) 0.31330(18)
C154_30 C 0.8618(2) 0.31330(18) 0.41980(17)
C157_30 C 0.81330(18) 0.41980(17) 0.3618(2)
H106_30 H 0.9134 0.3787 0.3041
H109_30 H 0.8787 0.3041 0.4134
H112_30 H 0.8041 0.4134 0.3787
H117_30 H 0.9355 0.3546 0.3027
H120_30 H 0.8546 0.3027 0.4355
H123_30 H 0.8027 0.4355 0.3546
C162_30 C 0.9300(2) 0.3694(2) 0.3431(2)
C165_30 C 0.8694(2) 0.3431(2) 0.4300(2)
C168_30 C 0.8431(2) 0.4300(2) 0.3694(2)
H128_30 H 0.9371 0.3529 0.3521
H131_30 H 0.8529 0.3521 0.4371
H134_30 H 0.8521 0.4371 0.3529
H139_30 H 0.9445 0.3833 0.3419
H142_30 H 0.8833 0.3419 0.4445
H145_30 H 0.8419 0.4445 0.3833
H150_30 H 0.9146 0.3767 0.3537
H153_30 H 0.8767 0.3537 0.4146
H156_30 H 0.8537 0.4146 0.3767
C17_31 C 0.45801(13) 0.75733(17) 0.32494(16)
C24_31 C 0.25733(17) 0.82494(16) 0.45801(13)
C25_31 C 0.32494(16) 0.95801(13) 0.25733(17)
C28_31 C 0.43591(13) 0.77554(18) 0.33398(12)
C35_31 C 0.27554(18) 0.83398(12) 0.43591(13)
C36_31 C 0.33398(12) 0.93591(13) 0.27554(18)
C39_31 C 0.42783(14) 0.79777(17) 0.31751(15)
C46_31 C 0.29777(17) 0.81751(15) 0.42783(14)
C47_31 C 0.31751(15) 0.92783(14) 0.29777(17)
H16_31 H 0.4368 0.8014 0.3005
H23_31 H 0.3014 0.8005 0.4368
H24_31 H 0.3005 0.9368 0.3014
C52_31 C 0.40625(13) 0.81448(15) 0.32668(13)
C57_31 C 0.31448(15) 0.82668(13) 0.40625(13)
C58_31 C 0.32668(13) 0.90625(13) 0.31448(15)
C63_31 C 0.39205(13) 0.80866(14) 0.35075(12)
C66_31 C 0.35075(12) 0.89205(13) 0.30866(14)
C69_31 C 0.30866(14) 0.85075(12) 0.39205(13)
C74_31 C 0.40102(14) 0.78683(15) 0.36669(13)
C77_31 C 0.36669(13) 0.90102(14) 0.28683(15)
C80_31 C 0.28683(15) 0.86669(13) 0.40102(14)
H29_31 H 0.3922 0.7830 0.3837
H32_31 H 0.3837 0.8922 0.2830
H35_31 H 0.2830 0.8837 0.3922
C83_31 C 0.42248(13) 0.77067(16) 0.35815(14)
C88_31 C 0.35815(14) 0.92248(13) 0.27067(16)
C91_31 C 0.27067(16) 0.85815(14) 0.42248(13)
H38_31 H 0.4282 0.7557 0.3693
H43_31 H 0.3693 0.9282 0.2557
H46_31 H 0.2557 0.8693 0.4282
C96_31 C 0.39584(15) 0.83989(15) 0.31276(14)
C99_31 C 0.33989(15) 0.81276(14) 0.39584(15)
C102_31 C 0.31276(14) 0.89584(15) 0.33989(15)
C107_31 C 0.37213(13) 0.84789(14) 0.33156(13)
C110_31 C 0.34789(14) 0.83156(13) 0.37213(13)
C113_31 C 0.33156(13) 0.87213(13) 0.34789(14)
C118_31 C 0.36976(12) 0.82927(12) 0.35336(13)
C121_31 C 0.35336(13) 0.86976(12) 0.32927(12)
C124_31 C 0.32927(12) 0.85336(13) 0.36976(12)
C129_31 C 0.38603(19) 0.83290(18) 0.28407(18)
C132_31 C 0.33290(18) 0.78407(18) 0.38603(19)
C135_31 C 0.28407(18) 0.88603(19) 0.33290(18)
H51_31 H 0.3805 0.8501 0.2748
H54_31 H 0.3501 0.7748 0.3805
H57_31 H 0.2748 0.8805 0.3501
H62_31 H 0.4016 0.8251 0.2737
H65_31 H 0.3251 0.7737 0.4016
H68_31 H 0.2737 0.9016 0.3251
C140_31 C 0.3614(2) 0.8122(2) 0.2826(3)
C143_31 C 0.3122(2) 0.7826(3) 0.3614(2)
C146_31 C 0.2826(3) 0.8614(2) 0.3122(2)
H73_31 H 0.3460 0.8194 0.2934
H76_31 H 0.3194 0.7934 0.3460
H79_31 H 0.2934 0.8460 0.3194
H84_31 H 0.3557 0.8100 0.2634
H87_31 H 0.3100 0.7634 0.3557
H90_31 H 0.2634 0.8557 0.3100
H95_31 H 0.3672 0.7944 0.2900
H98_31 H 0.2944 0.7900 0.3672
H101_31 H 0.2900 0.8672 0.2944
C151_31 C 0.41980(17) 0.8618(2) 0.31330(18)
C154_31 C 0.3618(2) 0.81330(18) 0.41980(17)
C157_31 C 0.31330(18) 0.91980(17) 0.3618(2)
H106_31 H 0.4134 0.8787 0.3041
H109_31 H 0.3787 0.8041 0.4134
H112_31 H 0.3041 0.9134 0.3787
H117_31 H 0.4355 0.8546 0.3027
H120_31 H 0.3546 0.8027 0.4355
H123_31 H 0.3027 0.9355 0.3546
C162_31 C 0.4300(2) 0.8694(2) 0.3431(2)
C165_31 C 0.3694(2) 0.8431(2) 0.4300(2)
C168_31 C 0.3431(2) 0.9300(2) 0.3694(2)
H128_31 H 0.4371 0.8529 0.3521
H131_31 H 0.3529 0.8521 0.4371
H134_31 H 0.3521 0.9371 0.3529
H139_31 H 0.4445 0.8833 0.3419
H142_31 H 0.3833 0.8419 0.4445
H145_31 H 0.3419 0.9445 0.3833
H150_31 H 0.4146 0.8767 0.3537
H153_31 H 0.3767 0.8537 0.4146
H156_31 H 0.3537 0.9146 0.3767
C17_32 C 0.45801(13) 0.25733(17) 0.82494(16)
C24_32 C 0.25733(17) 0.32494(16) 0.95801(13)
C25_32 C 0.32494(16) 0.45801(13) 0.75733(17)
C28_32 C 0.43591(13) 0.27554(18) 0.83398(12)
C35_32 C 0.27554(18) 0.33398(12) 0.93591(13)
C36_32 C 0.33398(12) 0.43591(13) 0.77554(18)
C39_32 C 0.42783(14) 0.29777(17) 0.81751(15)
C46_32 C 0.29777(17) 0.31751(15) 0.92783(14)
C47_32 C 0.31751(15) 0.42783(14) 0.79777(17)
H16_32 H 0.4368 0.3014 0.8005
H23_32 H 0.3014 0.3005 0.9368
H24_32 H 0.3005 0.4368 0.8014
C52_32 C 0.40625(13) 0.31448(15) 0.82668(13)
C57_32 C 0.31448(15) 0.32668(13) 0.90625(13)
C58_32 C 0.32668(13) 0.40625(13) 0.81448(15)
C63_32 C 0.39205(13) 0.30866(14) 0.85075(12)
C66_32 C 0.35075(12) 0.39205(13) 0.80866(14)
C69_32 C 0.30866(14) 0.35075(12) 0.89205(13)
C74_32 C 0.40102(14) 0.28683(15) 0.86669(13)
C77_32 C 0.36669(13) 0.40102(14) 0.78683(15)
C80_32 C 0.28683(15) 0.36669(13) 0.90102(14)
H29_32 H 0.3922 0.2830 0.8837
H32_32 H 0.3837 0.3922 0.7830
H35_32 H 0.2830 0.3837 0.8922
C83_32 C 0.42248(13) 0.27067(16) 0.85815(14)
C88_32 C 0.35815(14) 0.42248(13) 0.77067(16)
C91_32 C 0.27067(16) 0.35815(14) 0.92248(13)
H38_32 H 0.4282 0.2557 0.8693
H43_32 H 0.3693 0.4282 0.7557
H46_32 H 0.2557 0.3693 0.9282
C96_32 C 0.39584(15) 0.33989(15) 0.81276(14)
C99_32 C 0.33989(15) 0.31276(14) 0.89584(15)
C102_32 C 0.31276(14) 0.39584(15) 0.83989(15)
C107_32 C 0.37213(13) 0.34789(14) 0.83156(13)
C110_32 C 0.34789(14) 0.33156(13) 0.87213(13)
C113_32 C 0.33156(13) 0.37213(13) 0.84789(14)
C118_32 C 0.36976(12) 0.32927(12) 0.85336(13)
C121_32 C 0.35336(13) 0.36976(12) 0.82927(12)
C124_32 C 0.32927(12) 0.35336(13) 0.86976(12)
C129_32 C 0.38603(19) 0.33290(18) 0.78407(18)
C132_32 C 0.33290(18) 0.28407(18) 0.88603(19)
C135_32 C 0.28407(18) 0.38603(19) 0.83290(18)
H51_32 H 0.3805 0.3501 0.7748
H54_32 H 0.3501 0.2748 0.8805
H57_32 H 0.2748 0.3805 0.8501
H62_32 H 0.4016 0.3251 0.7737
H65_32 H 0.3251 0.2737 0.9016
H68_32 H 0.2737 0.4016 0.8251
C140_32 C 0.3614(2) 0.3122(2) 0.7826(3)
C143_32 C 0.3122(2) 0.2826(3) 0.8614(2)
C146_32 C 0.2826(3) 0.3614(2) 0.8122(2)
H73_32 H 0.3460 0.3194 0.7934
H76_32 H 0.3194 0.2934 0.8460
H79_32 H 0.2934 0.3460 0.8194
H84_32 H 0.3557 0.3100 0.7634
H87_32 H 0.3100 0.2634 0.8557
H90_32 H 0.2634 0.3557 0.8100
H95_32 H 0.3672 0.2944 0.7900
H98_32 H 0.2944 0.2900 0.8672
H101_32 H 0.2900 0.3672 0.7944
C151_32 C 0.41980(17) 0.3618(2) 0.81330(18)
C154_32 C 0.3618(2) 0.31330(18) 0.91980(17)
C157_32 C 0.31330(18) 0.41980(17) 0.8618(2)
H106_32 H 0.4134 0.3787 0.8041
H109_32 H 0.3787 0.3041 0.9134
H112_32 H 0.3041 0.4134 0.8787
H117_32 H 0.4355 0.3546 0.8027
H120_32 H 0.3546 0.3027 0.9355
H123_32 H 0.3027 0.4355 0.8546
C162_32 C 0.4300(2) 0.3694(2) 0.8431(2)
C165_32 C 0.3694(2) 0.3431(2) 0.9300(2)
C168_32 C 0.3431(2) 0.4300(2) 0.8694(2)
H128_32 H 0.4371 0.3529 0.8521
H131_32 H 0.3529 0.3521 0.9371
H134_32 H 0.3521 0.4371 0.8529
H139_32 H 0.4445 0.3833 0.8419
H142_32 H 0.3833 0.3419 0.9445
H145_32 H 0.3419 0.4445 0.8833
H150_32 H 0.4146 0.3767 0.8537
H153_32 H 0.3767 0.3537 0.9146
H156_32 H 0.3537 0.4146 0.8767
O35 O 0.0478(4) 0.2500 0.2500
O35_2 O 0.2500 0.0478(4) 0.2500
O35_3 O 0.2500 0.2500 0.0478(4)
O35_4 O 0.7500 0.5478(4) 0.2500
O35_5 O 0.7500 0.4522(4) 0.7500
O35_6 O 0.2500 0.5478(4) 0.7500
O35_7 O 0.5478(4) 0.7500 0.2500
O35_8 O 0.4522(4) 0.7500 0.7500
O35_9 O 0.5478(4) 0.2500 0.7500
O35_10 O 0.7500 0.7500 0.4522(4)
O35_11 O 0.7500 0.2500 0.5478(4)
O35_12 O 0.2500 0.7500 0.5478(4)
O35_13 O 0.0478(4) 0.7500 0.7500
O35_14 O 0.7500 0.0478(4) 0.7500
O35_15 O 0.7500 0.9522(4) 0.2500
O35_16 O 0.4522(4) 0.2500 0.2500
O35_17 O 0.7500 0.2500 0.9522(4)
O35_18 O 0.7500 0.7500 0.0478(4)
O35_19 O 0.2500 0.4522(4) 0.2500
O35_20 O 0.9522(4) 0.7500 0.2500
O35_21 O 0.2500 0.7500 0.9522(4)
O35_22 O 0.2500 0.9522(4) 0.7500
O35_23 O 0.9522(4) 0.2500 0.7500
O35_24 O 0.2500 0.2500 0.4522(4)
O35_25 O 0.9522(4) 0.7500 0.7500
O35_26 O 0.7500 0.9522(4) 0.7500
O35_27 O 0.7500 0.7500 0.9522(4)
O35_28 O 0.2500 0.4522(4) 0.7500
O35_29 O 0.2500 0.5478(4) 0.2500
O35_30 O 0.7500 0.4522(4) 0.2500
O35_31 O 0.4522(4) 0.2500 0.7500
O35_32 O 0.5478(4) 0.2500 0.2500
O35_33 O 0.4522(4) 0.7500 0.2500
O35_34 O 0.2500 0.2500 0.5478(4)
O35_35 O 0.2500 0.7500 0.4522(4)
O35_36 O 0.7500 0.2500 0.4522(4)
O35_37 O 0.9522(4) 0.2500 0.2500
O35_38 O 0.2500 0.9522(4) 0.2500
O35_39 O 0.2500 0.0478(4) 0.7500
O35_40 O 0.5478(4) 0.7500 0.7500
O35_41 O 0.2500 0.7500 0.0478(4)
O35_42 O 0.2500 0.2500 0.9522(4)
O35_43 O 0.7500 0.5478(4) 0.7500
O35_44 O 0.0478(4) 0.2500 0.7500
O35_45 O 0.7500 0.2500 0.0478(4)
O35_46 O 0.7500 0.0478(4) 0.2500
O35_47 O 0.0478(4) 0.7500 0.2500
O35_48 O 0.7500 0.7500 0.5478(4)
loop_
_geom_bond_atom_site_label_1
_geom_bond_atom_site_label_2
_geom_bond_site_symmetry_1
_geom_bond_site_symmetry_2
Cd1 O2 1_555 1_555
O2 C1 1_555 1_555
O3 Cd1 1_555 1_555
O4 Cd1 1_555 1_555
C1 O3 1_555 1_555
C2 C1 1_555 1_555
C3 C2 1_555 1_555
H1 C3 1_555 1_555
C4 C3 1_555 1_555
C5 C4 1_555 1_555
C6 C5 1_555 1_555
H2 C6 1_555 1_555
C7 C2 1_555 1_555
H3 C7 1_555 1_555
C8 C4 1_555 1_555
C9 C8 1_555 1_555
C10 C5 1_555 1_555
C11 C8 1_555 1_555
H4 C11 1_555 1_555
H5 C11 1_555 1_555
C12 C11 1_555 1_555
H6 C12 1_555 1_555
H7 C12 1_555 1_555
H8 C12 1_555 1_555
C13 C8 1_555 1_555
H9 C13 1_555 1_555
H10 C13 1_555 1_555
C14 C13 1_555 1_555
H11 C14 1_555 1_555
H12 C14 1_555 1_555
H13 C14 1_555 1_555
Cd2 O4 1_555 1_555
Cd3 O3 1_555 1_555
Cd4 O4 1_555 1_555
Cd5 O12 1_555 1_555
Cd6 O27 1_555 1_555
Cd7 O13 1_555 1_555
Cd8 O28 1_555 1_555
Cd9 O14 1_555 1_555
Cd10 O15 1_555 1_555
Cd11 O30 1_555 1_555
Cd12 O16 1_555 1_555
Cd13 O17 1_555 1_555
Cd14 O32 1_555 1_555
O7 Cd4 1_555 1_555
O8 Cd3 1_555 1_555
O10 Cd2 1_555 1_555
O12 C18 1_555 1_555
O13 C19 1_555 1_555
O14 C20 1_555 1_555
O15 C21 1_555 1_555
O16 C22 1_555 1_555
O17 C23 1_555 1_555
O20 Cd1 1_555 1_555
O23 Cd2 1_555 1_555
O26 Cd3 1_555 1_555
O27 Cd5 1_555 1_555
O28 Cd7 1_555 1_555
O29 Cd5 1_555 1_555
O30 Cd10 1_555 1_555
O31 Cd10 1_555 1_555
O32 Cd13 1_555 1_555
C15 O8 1_555 1_555
C16 O7 1_555 1_555
C18 O27 1_555 1_555
C19 O28 1_555 1_555
C20 O29 1_555 1_555
C21 O30 1_555 1_555
C22 O31 1_555 1_555
C23 O32 1_555 1_555
C26 C15 1_555 1_555
C27 C16 1_555 1_555
C29 C18 1_555 1_555
C30 C19 1_555 1_555
C31 C20 1_555 1_555
C32 C21 1_555 1_555
C33 C22 1_555 1_555
C34 C23 1_555 1_555
C37 C26 1_555 1_555
C38 C27 1_555 1_555
C40 C29 1_555 1_555
C41 C30 1_555 1_555
C42 C31 1_555 1_555
C43 C32 1_555 1_555
C44 C33 1_555 1_555
C45 C34 1_555 1_555
H14 C37 1_555 1_555
H15 C38 1_555 1_555
H17 C40 1_555 1_555
H18 C41 1_555 1_555
H19 C42 1_555 1_555
H20 C43 1_555 1_555
H21 C44 1_555 1_555
H22 C45 1_555 1_555
C48 C40 1_555 1_555
C49 C41 1_555 1_555
C50 C37 1_555 1_555
C51 C38 1_555 1_555
C53 C42 1_555 1_555
C54 C43 1_555 1_555
C55 C44 1_555 1_555
C56 C45 1_555 1_555
C59 C48 1_555 1_555
C60 C49 1_555 1_555
C61 C50 1_555 1_555
C62 C51 1_555 1_555
C64 C54 1_555 1_555
C65 C56 1_555 1_555
C67 C53 1_555 1_555
C68 C55 1_555 1_555
C70 C59 1_555 1_555
C71 C60 1_555 1_555
C72 C61 1_555 1_555
C73 C62 1_555 1_555
C75 C64 1_555 1_555
C76 C65 1_555 1_555
C78 C67 1_555 1_555
C79 C68 1_555 1_555
H25 C70 1_555 1_555
H26 C71 1_555 1_555
H27 C72 1_555 1_555
H28 C73 1_555 1_555
H30 C75 1_555 1_555
H31 C76 1_555 1_555
H33 C78 1_555 1_555
H34 C79 1_555 1_555
C81 C26 1_555 1_555
C82 C27 1_555 1_555
C84 C29 1_555 1_555
C85 C30 1_555 1_555
C86 C32 1_555 1_555
C87 C34 1_555 1_555
C89 C31 1_555 1_555
C90 C33 1_555 1_555
H36 C81 1_555 1_555
H37 C82 1_555 1_555
H39 C84 1_555 1_555
H40 C85 1_555 1_555
H41 C86 1_555 1_555
H42 C87 1_555 1_555
H44 C89 1_555 1_555
H45 C90 1_555 1_555
C92 C49 1_555 1_555
C93 C48 1_555 1_555
C94 C50 1_555 1_555
C95 C51 1_555 1_555
C97 C53 1_555 1_555
C98 C55 1_555 1_555
C100 C54 1_555 1_555
C101 C56 1_555 1_555
C103 C10 1_555 1_555
C104 C93 1_555 1_555
C105 C94 1_555 1_555
C106 C95 1_555 1_555
C108 C97 1_555 1_555
C109 C98 1_555 1_555
C111 C100 1_555 1_555
C112 C101 1_555 1_555
C114 C9 1_555 1_555
C115 C60 1_555 1_555
C116 C61 1_555 1_555
C117 C62 1_555 1_555
C119 C64 1_555 1_555
C120 C65 1_555 1_555
C122 C67 1_555 1_555
C123 C68 1_555 1_555
C125 C92 1_555 1_555
C126 C93 1_555 1_555
C127 C94 1_555 1_555
C128 C95 1_555 1_555
C130 C97 1_555 1_555
C131 C98 1_555 1_555
C133 C100 1_555 1_555
C134 C101 1_555 1_555
H47 C125 1_555 1_555
H48 C126 1_555 1_555
H49 C127 1_555 1_555
H50 C128 1_555 1_555
H52 C130 1_555 1_555
H53 C131 1_555 1_555
H55 C133 1_555 1_555
H56 C134 1_555 1_555
H58 C125 1_555 1_555
H59 C126 1_555 1_555
H60 C127 1_555 1_555
H61 C128 1_555 1_555
H63 C130 1_555 1_555
H64 C131 1_555 1_555
H66 C133 1_555 1_555
H67 C134 1_555 1_555
C136 C125 1_555 1_555
C137 C126 1_555 1_555
C138 C127 1_555 1_555
C139 C128 1_555 1_555
C141 C130 1_555 1_555
C142 C131 1_555 1_555
C144 C133 1_555 1_555
C145 C134 1_555 1_555
H69 C136 1_555 1_555
H70 C137 1_555 1_555
H71 C138 1_555 1_555
H72 C139 1_555 1_555
H74 C141 1_555 1_555
H75 C142 1_555 1_555
H77 C144 1_555 1_555
H78 C145 1_555 1_555
H80 C136 1_555 1_555
H81 C137 1_555 1_555
H82 C138 1_555 1_555
H83 C139 1_555 1_555
H85 C141 1_555 1_555
H86 C142 1_555 1_555
H88 C144 1_555 1_555
H89 C145 1_555 1_555
H91 C136 1_555 1_555
H92 C137 1_555 1_555
H93 C138 1_555 1_555
H94 C139 1_555 1_555
H96 C141 1_555 1_555
H97 C142 1_555 1_555
H99 C144 1_555 1_555
H100 C145 1_555 1_555
C147 C92 1_555 1_555
C148 C93 1_555 1_555
C149 C94 1_555 1_555
C150 C95 1_555 1_555
C152 C97 1_555 1_555
C153 C98 1_555 1_555
C155 C100 1_555 1_555
C156 C101 1_555 1_555
H102 C147 1_555 1_555
H103 C148 1_555 1_555
H104 C149 1_555 1_555
H105 C150 1_555 1_555
H107 C152 1_555 1_555
H108 C153 1_555 1_555
H110 C155 1_555 1_555
H111 C156 1_555 1_555
H113 C147 1_555 1_555
H114 C148 1_555 1_555
H115 C149 1_555 1_555
H116 C150 1_555 1_555
H118 C152 1_555 1_555
H119 C153 1_555 1_555
H121 C155 1_555 1_555
H122 C156 1_555 1_555
C158 C147 1_555 1_555
C159 C148 1_555 1_555
C160 C149 1_555 1_555
C161 C150 1_555 1_555
C163 C152 1_555 1_555
C164 C153 1_555 1_555
C166 C155 1_555 1_555
C167 C156 1_555 1_555
H124 C158 1_555 1_555
H125 C159 1_555 1_555
H126 C160 1_555 1_555
H127 C161 1_555 1_555
H129 C163 1_555 1_555
H130 C164 1_555 1_555
H132 C166 1_555 1_555
H133 C167 1_555 1_555
H135 C158 1_555 1_555
H136 C159 1_555 1_555
H137 C160 1_555 1_555
H138 C161 1_555 1_555
H140 C163 1_555 1_555
H141 C164 1_555 1_555
H143 C166 1_555 1_555
H144 C167 1_555 1_555
H146 C158 1_555 1_555
H147 C159 1_555 1_555
H148 C160 1_555 1_555
H149 C161 1_555 1_555
H151 C163 1_555 1_555
H152 C164 1_555 1_555
H154 C166 1_555 1_555
H155 C167 1_555 1_555
O4 Cd3 1_555 1_555
C6 C7 1_555 1_555
C9 C10 1_555 1_555
Cd2 O20 1_555 1_555
Cd4 O23 1_555 1_555
Cd4 O26 1_555 1_555
Cd9 O29 1_555 1_555
Cd12 O31 1_555 1_555
O23 C16 1_555 1_555
O26 C15 1_555 1_555
C59 C114 1_555 1_555
C70 C84 1_555 1_555
C71 C85 1_555 1_555
C72 C81 1_555 1_555
C73 C82 1_555 1_555
C75 C86 1_555 1_555
C76 C87 1_555 1_555
C78 C89 1_555 1_555
C79 C90 1_555 1_555
C92 C103 1_555 1_555
C103 C115 1_555 1_555
C104 C114 1_555 1_555
C104 C115 1_555 1_555
C105 C116 1_555 1_555
C105 C119 1_555 1_555
C106 C117 1_555 1_555
C106 C120 1_555 1_555
C108 C116 1_555 1_555
C108 C122 1_555 1_555
C109 C117 1_555 1_555
C109 C123 1_555 1_555
C111 C119 1_555 1_555
C111 C122 1_555 1_555
C112 C120 1_555 1_555
C112 C123 1_555 1_555
O4_2 Cd1_2 1_555 1_555
Cd2_2 O4_2 1_555 1_555
Cd4_2 O4_2 1_555 1_555
Cd15 O18 1_555 1_555
Cd16 O33 1_555 1_555
Cd17 O19 1_555 1_555
Cd18 O34 1_555 1_555
O5 Cd1_2 1_555 1_555
O6 Cd4_2 1_555 1_555
O9 Cd3_2 1_555 1_555
O11 Cd2_2 1_555 1_555
O18 C24 1_555 1_555
O19 C25 1_555 1_555
O21 Cd1_2 1_555 1_555
O22 Cd1_2 1_555 1_555
O24 Cd3_2 1_555 1_555
O25 Cd2_2 1_555 1_555
O33 Cd15 1_555 1_555
O34 Cd17 1_555 1_555
C17 O11 1_555 1_555
C24 O33 1_555 1_555
C25 O34 1_555 1_555
C28 C17 1_555 1_555
C35 C24 1_555 1_555
C36 C25 1_555 1_555
C39 C28 1_555 1_555
C46 C35 1_555 1_555
C47 C36 1_555 1_555
H16 C39 1_555 1_555
H23 C46 1_555 1_555
H24 C47 1_555 1_555
C52 C39 1_555 1_555
C57 C46 1_555 1_555
C58 C47 1_555 1_555
C63 C52 1_555 1_555
C66 C58 1_555 1_555
C69 C57 1_555 1_555
C74 C63 1_555 1_555
C77 C66 1_555 1_555
C80 C69 1_555 1_555
H29 C74 1_555 1_555
H32 C77 1_555 1_555
H35 C80 1_555 1_555
C83 C28 1_555 1_555
C88 C36 1_555 1_555
C91 C35 1_555 1_555
H38 C83 1_555 1_555
H43 C88 1_555 1_555
H46 C91 1_555 1_555
C96 C52 1_555 1_555
C99 C57 1_555 1_555
C102 C58 1_555 1_555
C107 C96 1_555 1_555
C110 C99 1_555 1_555
C113 C102 1_555 1_555
C118 C63 1_555 1_555
C121 C66 1_555 1_555
C124 C69 1_555 1_555
C129 C96 1_555 1_555
C132 C99 1_555 1_555
C135 C102 1_555 1_555
H51 C129 1_555 1_555
H54 C132 1_555 1_555
H57 C135 1_555 1_555
H62 C129 1_555 1_555
H65 C132 1_555 1_555
H68 C135 1_555 1_555
C140 C129 1_555 1_555
C143 C132 1_555 1_555
C146 C135 1_555 1_555
H73 C140 1_555 1_555
H76 C143 1_555 1_555
H79 C146 1_555 1_555
H84 C140 1_555 1_555
H87 C143 1_555 1_555
H90 C146 1_555 1_555
H95 C140 1_555 1_555
H98 C143 1_555 1_555
H101 C146 1_555 1_555
C151 C96 1_555 1_555
C154 C99 1_555 1_555
C157 C102 1_555 1_555
H106 C151 1_555 1_555
H109 C154 1_555 1_555
H112 C157 1_555 1_555
H117 C151 1_555 1_555
H120 C154 1_555 1_555
H123 C157 1_555 1_555
C162 C151 1_555 1_555
C165 C154 1_555 1_555
C168 C157 1_555 1_555
H128 C162 1_555 1_555
H131 C165 1_555 1_555
H134 C168 1_555 1_555
H139 C162 1_555 1_555
H142 C165 1_555 1_555
H145 C168 1_555 1_555
H150 C162 1_555 1_555
H153 C165 1_555 1_555
H156 C168 1_555 1_555
O4_2 Cd3_2 1_555 1_555
Cd2_2 O21 1_555 1_555
Cd3_2 O22 1_555 1_555
Cd4_2 O24 1_555 1_555
Cd4_2 O25 1_555 1_555
O21 C17 1_555 1_555
C74 C83 1_555 1_555
C77 C88 1_555 1_555
C80 C91 1_555 1_555
C107 C118 1_555 1_555
C107 C121 1_555 1_555
C110 C118 1_555 1_555
C110 C124 1_555 1_555
C113 C121 1_555 1_555
C113 C124 1_555 1_555
Cd1_3 O2_2 1_555 1_555
O2_2 C1_2 1_555 1_555
O3_2 Cd1_3 1_555 1_555
O4_3 Cd1_3 1_555 1_555
C1_2 O3_2 1_555 1_555
C2_2 C1_2 1_555 1_555
C3_2 C2_2 1_555 1_555
H1_2 C3_2 1_555 1_555
C4_2 C3_2 1_555 1_555
C5_2 C4_2 1_555 1_555
C6_2 C5_2 1_555 1_555
H2_2 C6_2 1_555 1_555
C7_2 C2_2 1_555 1_555
H3_2 C7_2 1_555 1_555
C8_2 C4_2 1_555 1_555
C9_2 C8_2 1_555 1_555
C10_2 C5_2 1_555 1_555
C11_2 C8_2 1_555 1_555
H4_2 C11_2 1_555 1_555
H5_2 C11_2 1_555 1_555
C12_2 C11_2 1_555 1_555
H6_2 C12_2 1_555 1_555
H7_2 C12_2 1_555 1_555
H8_2 C12_2 1_555 1_555
C13_2 C8_2 1_555 1_555
H9_2 C13_2 1_555 1_555
H10_2 C13_2 1_555 1_555
C14_2 C13_2 1_555 1_555
H11_2 C14_2 1_555 1_555
H12_2 C14_2 1_555 1_555
H13_2 C14_2 1_555 1_555
Cd8 O4_3 1_555 1_555
Cd3_3 O3_2 1_555 1_555
Cd7 O4_3 1_555 1_555
Cd5_2 O12_2 1_555 1_555
Cd6_2 O27_2 1_555 1_555
Cd7_3 O13_2 1_555 1_555
Cd8_3 O28_2 1_555 1_555
Cd9_2 O14_2 1_555 1_555
Cd6 O15_2 1_555 1_555
Cd11_2 O30_2 1_555 1_555
O8_2 Cd3_3 1_555 1_555
O10_2 Cd8 1_555 1_555
O12_2 C18_2 1_555 1_555
O13_2 C19_2 1_555 1_555
O14_2 C20_2 1_555 1_555
O15_2 C21_2 1_555 1_555
O20_2 Cd1_3 1_555 1_555
O26_2 Cd3_3 1_555 1_555
O27_2 Cd5_2 1_555 1_555
O28_2 Cd7_3 1_555 1_555
O29_2 Cd5_2 1_555 1_555
O30_2 Cd6 1_555 1_555
C15_2 O8_2 1_555 1_555
C18_2 O27_2 1_555 1_555
C19_2 O28_2 1_555 1_555
C20_2 O29_2 1_555 1_555
C21_2 O30_2 1_555 1_555
C26_2 C15_2 1_555 1_555
C29_2 C18_2 1_555 1_555
C30_2 C19_2 1_555 1_555
C31_2 C20_2 1_555 1_555
C32_2 C21_2 1_555 1_555
C37_2 C26_2 1_555 1_555
C40_2 C29_2 1_555 1_555
C41_2 C30_2 1_555 1_555
C42_2 C31_2 1_555 1_555
C43_2 C32_2 1_555 1_555
H14_2 C37_2 1_555 1_555
H17_2 C40_2 1_555 1_555
H18_2 C41_2 1_555 1_555
H19_2 C42_2 1_555 1_555
H20_2 C43_2 1_555 1_555
C48_2 C40_2 1_555 1_555
C49_2 C41_2 1_555 1_555
C50_2 C37_2 1_555 1_555
C53_2 C42_2 1_555 1_555
C54_2 C43_2 1_555 1_555
C59_2 C48_2 1_555 1_555
C60_2 C49_2 1_555 1_555
C61_2 C50_2 1_555 1_555
C64_2 C54_2 1_555 1_555
C67_2 C53_2 1_555 1_555
C70_2 C59_2 1_555 1_555
C71_2 C60_2 1_555 1_555
C72_2 C61_2 1_555 1_555
C75_2 C64_2 1_555 1_555
C78_2 C67_2 1_555 1_555
H25_2 C70_2 1_555 1_555
H26_2 C71_2 1_555 1_555
H27_2 C72_2 1_555 1_555
H30_2 C75_2 1_555 1_555
H33_2 C78_2 1_555 1_555
C81_2 C26_2 1_555 1_555
C84_2 C29_2 1_555 1_555
C85_2 C30_2 1_555 1_555
C86_2 C32_2 1_555 1_555
C89_2 C31_2 1_555 1_555
H36_2 C81_2 1_555 1_555
H39_2 C84_2 1_555 1_555
H40_2 C85_2 1_555 1_555
H41_2 C86_2 1_555 1_555
H44_2 C89_2 1_555 1_555
C92_2 C49_2 1_555 1_555
C93_2 C48_2 1_555 1_555
C94_2 C50_2 1_555 1_555
C97_2 C53_2 1_555 1_555
C100_2 C54_2 1_555 1_555
C103_2 C10_2 1_555 1_555
C104_2 C93_2 1_555 1_555
C105_2 C94_2 1_555 1_555
C108_2 C97_2 1_555 1_555
C111_2 C100_2 1_555 1_555
C114_2 C9_2 1_555 1_555
C115_2 C60_2 1_555 1_555
C116_2 C61_2 1_555 1_555
C119_2 C64_2 1_555 1_555
C122_2 C67_2 1_555 1_555
C125_2 C92_2 1_555 1_555
C126_2 C93_2 1_555 1_555
C127_2 C94_2 1_555 1_555
C130_2 C97_2 1_555 1_555
C133_2 C100_2 1_555 1_555
H47_2 C125_2 1_555 1_555
H48_2 C126_2 1_555 1_555
H49_2 C127_2 1_555 1_555
H52_2 C130_2 1_555 1_555
H55_2 C133_2 1_555 1_555
H58_2 C125_2 1_555 1_555
H59_2 C126_2 1_555 1_555
H60_2 C127_2 1_555 1_555
H63_2 C130_2 1_555 1_555
H66_2 C133_2 1_555 1_555
C136_2 C125_2 1_555 1_555
C137_2 C126_2 1_555 1_555
C138_2 C127_2 1_555 1_555
C141_2 C130_2 1_555 1_555
C144_2 C133_2 1_555 1_555
H69_2 C136_2 1_555 1_555
H70_2 C137_2 1_555 1_555
H71_2 C138_2 1_555 1_555
H74_2 C141_2 1_555 1_555
H77_2 C144_2 1_555 1_555
H80_2 C136_2 1_555 1_555
H81_2 C137_2 1_555 1_555
H82_2 C138_2 1_555 1_555
H85_2 C141_2 1_555 1_555
H88_2 C144_2 1_555 1_555
H91_2 C136_2 1_555 1_555
H92_2 C137_2 1_555 1_555
H93_2 C138_2 1_555 1_555
H96_2 C141_2 1_555 1_555
H99_2 C144_2 1_555 1_555
C147_2 C92_2 1_555 1_555
C148_2 C93_2 1_555 1_555
C149_2 C94_2 1_555 1_555
C152_2 C97_2 1_555 1_555
C155_2 C100_2 1_555 1_555
H102_2 C147_2 1_555 1_555
H103_2 C148_2 1_555 1_555
H104_2 C149_2 1_555 1_555
H107_2 C152_2 1_555 1_555
H110_2 C155_2 1_555 1_555
H113_2 C147_2 1_555 1_555
H114_2 C148_2 1_555 1_555
H115_2 C149_2 1_555 1_555
H118_2 C152_2 1_555 1_555
H121_2 C155_2 1_555 1_555
C158_2 C147_2 1_555 1_555
C159_2 C148_2 1_555 1_555
C160_2 C149_2 1_555 1_555
C163_2 C152_2 1_555 1_555
C166_2 C155_2 1_555 1_555
H124_2 C158_2 1_555 1_555
H125_2 C159_2 1_555 1_555
H126_2 C160_2 1_555 1_555
H129_2 C163_2 1_555 1_555
H132_2 C166_2 1_555 1_555
H135_2 C158_2 1_555 1_555
H136_2 C159_2 1_555 1_555
H137_2 C160_2 1_555 1_555
H140_2 C163_2 1_555 1_555
H143_2 C166_2 1_555 1_555
H146_2 C158_2 1_555 1_555
H147_2 C159_2 1_555 1_555
H148_2 C160_2 1_555 1_555
H151_2 C163_2 1_555 1_555
H154_2 C166_2 1_555 1_555
O4_3 Cd3_3 1_555 1_555
C6_2 C7_2 1_555 1_555
C9_2 C10_2 1_555 1_555
Cd8 O20_2 1_555 1_555
Cd7 O26_2 1_555 1_555
Cd9_2 O29_2 1_555 1_555
O26_2 C15_2 1_555 1_555
C59_2 C114_2 1_555 1_555
C70_2 C84_2 1_555 1_555
C71_2 C85_2 1_555 1_555
C72_2 C81_2 1_555 1_555
C75_2 C86_2 1_555 1_555
C78_2 C89_2 1_555 1_555
C92_2 C103_2 1_555 1_555
C103_2 C115_2 1_555 1_555
C104_2 C114_2 1_555 1_555
C104_2 C115_2 1_555 1_555
C105_2 C116_2 1_555 1_555
C105_2 C119_2 1_555 1_555
C108_2 C116_2 1_555 1_555
C108_2 C122_2 1_555 1_555
C111_2 C119_2 1_555 1_555
C111_2 C122_2 1_555 1_555
O4_4 Cd1_4 1_555 1_555
Cd8_2 O4_4 1_555 1_555
Cd7_2 O4_4 1_555 1_555
Cd15_3 O18_2 1_555 1_555
Cd16_3 O33_2 1_555 1_555
Cd17_3 O19_2 1_555 1_555
Cd18_3 O34_2 1_555 1_555
O5_2 Cd1_4 1_555 1_555
O6_2 Cd7_2 1_555 1_555
O9_2 Cd3_4 1_555 1_555
O11_2 Cd8_2 1_555 1_555
O18_2 C24_2 1_555 1_555
O19_2 C25_2 1_555 1_555
O21_2 Cd1_4 1_555 1_555
O22_2 Cd1_4 1_555 1_555
O24_2 Cd3_4 1_555 1_555
O25_2 Cd8_2 1_555 1_555
O33_2 Cd15_3 1_555 1_555
O34_2 Cd17_3 1_555 1_555
C17_2 O11_2 1_555 1_555
C24_2 O33_2 1_555 1_555
C25_2 O34_2 1_555 1_555
C28_2 C17_2 1_555 1_555
C35_2 C24_2 1_555 1_555
C36_2 C25_2 1_555 1_555
C39_2 C28_2 1_555 1_555
C46_2 C35_2 1_555 1_555
C47_2 C36_2 1_555 1_555
H16_2 C39_2 1_555 1_555
H23_2 C46_2 1_555 1_555
H24_2 C47_2 1_555 1_555
C52_2 C39_2 1_555 1_555
C57_2 C46_2 1_555 1_555
C58_2 C47_2 1_555 1_555
C63_2 C52_2 1_555 1_555
C66_2 C58_2 1_555 1_555
C69_2 C57_2 1_555 1_555
C74_2 C63_2 1_555 1_555
C77_2 C66_2 1_555 1_555
C80_2 C69_2 1_555 1_555
H29_2 C74_2 1_555 1_555
H32_2 C77_2 1_555 1_555
H35_2 C80_2 1_555 1_555
C83_2 C28_2 1_555 1_555
C88_2 C36_2 1_555 1_555
C91_2 C35_2 1_555 1_555
H38_2 C83_2 1_555 1_555
H43_2 C88_2 1_555 1_555
H46_2 C91_2 1_555 1_555
C96_2 C52_2 1_555 1_555
C99_2 C57_2 1_555 1_555
C102_2 C58_2 1_555 1_555
C107_2 C96_2 1_555 1_555
C110_2 C99_2 1_555 1_555
C113_2 C102_2 1_555 1_555
C118_2 C63_2 1_555 1_555
C121_2 C66_2 1_555 1_555
C124_2 C69_2 1_555 1_555
C129_2 C96_2 1_555 1_555
C132_2 C99_2 1_555 1_555
C135_2 C102_2 1_555 1_555
H51_2 C129_2 1_555 1_555
H54_2 C132_2 1_555 1_555
H57_2 C135_2 1_555 1_555
H62_2 C129_2 1_555 1_555
H65_2 C132_2 1_555 1_555
H68_2 C135_2 1_555 1_555
C140_2 C129_2 1_555 1_555
C143_2 C132_2 1_555 1_555
C146_2 C135_2 1_555 1_555
H73_2 C140_2 1_555 1_555
H76_2 C143_2 1_555 1_555
H79_2 C146_2 1_555 1_555
H84_2 C140_2 1_555 1_555
H87_2 C143_2 1_555 1_555
H90_2 C146_2 1_555 1_555
H95_2 C140_2 1_555 1_555
H98_2 C143_2 1_555 1_555
H101_2 C146_2 1_555 1_555
C151_2 C96_2 1_555 1_555
C154_2 C99_2 1_555 1_555
C157_2 C102_2 1_555 1_555
H106_2 C151_2 1_555 1_555
H109_2 C154_2 1_555 1_555
H112_2 C157_2 1_555 1_555
H117_2 C151_2 1_555 1_555
H120_2 C154_2 1_555 1_555
H123_2 C157_2 1_555 1_555
C162_2 C151_2 1_555 1_555
C165_2 C154_2 1_555 1_555
C168_2 C157_2 1_555 1_555
H128_2 C162_2 1_555 1_555
H131_2 C165_2 1_555 1_555
H134_2 C168_2 1_555 1_555
H139_2 C162_2 1_555 1_555
H142_2 C165_2 1_555 1_555
H145_2 C168_2 1_555 1_555
H150_2 C162_2 1_555 1_555
H153_2 C165_2 1_555 1_555
H156_2 C168_2 1_555 1_555
O4_4 Cd3_4 1_555 1_555
Cd8_2 O21_2 1_555 1_555
Cd3_4 O22_2 1_555 1_555
Cd7_2 O24_2 1_555 1_555
Cd7_2 O25_2 1_555 1_555
O21_2 C17_2 1_555 1_555
C74_2 C83_2 1_555 1_555
C77_2 C88_2 1_555 1_555
C80_2 C91_2 1_555 1_555
C107_2 C118_2 1_555 1_555
C107_2 C121_2 1_555 1_555
C110_2 C118_2 1_555 1_555
C110_2 C124_2 1_555 1_555
C113_2 C121_2 1_555 1_555
C113_2 C124_2 1_555 1_555
O4_5 Cd13 1_555 1_555
Cd8_3 O4_5 1_555 1_555
Cd7_3 O4_5 1_555 1_555
Cd9_3 O14_3 1_555 1_555
Cd6_2 O15_3 1_555 1_555
Cd11_3 O30_3 1_555 1_555
O8_3 Cd14 1_555 1_555
O10_3 Cd8_3 1_555 1_555
O14_3 C20_3 1_555 1_555
O15_3 C21_3 1_555 1_555
O20_3 Cd13 1_555 1_555
O26_3 Cd14 1_555 1_555
O29_3 Cd12 1_555 1_555
O30_3 Cd6_2 1_555 1_555
C15_3 O8_3 1_555 1_555
C20_3 O29_3 1_555 1_555
C21_3 O30_3 1_555 1_555
C26_3 C15_3 1_555 1_555
C31_3 C20_3 1_555 1_555
C32_3 C21_3 1_555 1_555
C37_3 C26_3 1_555 1_555
C42_3 C31_3 1_555 1_555
C43_3 C32_3 1_555 1_555
H14_3 C37_3 1_555 1_555
H19_3 C42_3 1_555 1_555
H20_3 C43_3 1_555 1_555
C50_3 C37_3 1_555 1_555
C53_3 C42_3 1_555 1_555
C54_3 C43_3 1_555 1_555
C61_3 C50_3 1_555 1_555
C64_3 C54_3 1_555 1_555
C67_3 C53_3 1_555 1_555
C72_3 C61_3 1_555 1_555
C75_3 C64_3 1_555 1_555
C78_3 C67_3 1_555 1_555
H27_3 C72_3 1_555 1_555
H30_3 C75_3 1_555 1_555
H33_3 C78_3 1_555 1_555
C81_3 C26_3 1_555 1_555
C86_3 C32_3 1_555 1_555
C89_3 C31_3 1_555 1_555
H36_3 C81_3 1_555 1_555
H41_3 C86_3 1_555 1_555
H44_3 C89_3 1_555 1_555
C94_3 C50_3 1_555 1_555
C97_3 C53_3 1_555 1_555
C100_3 C54_3 1_555 1_555
C105_3 C94_3 1_555 1_555
C108_3 C97_3 1_555 1_555
C111_3 C100_3 1_555 1_555
C116_3 C61_3 1_555 1_555
C119_3 C64_3 1_555 1_555
C122_3 C67_3 1_555 1_555
C127_3 C94_3 1_555 1_555
C130_3 C97_3 1_555 1_555
C133_3 C100_3 1_555 1_555
H49_3 C127_3 1_555 1_555
H52_3 C130_3 1_555 1_555
H55_3 C133_3 1_555 1_555
H60_3 C127_3 1_555 1_555
H63_3 C130_3 1_555 1_555
H66_3 C133_3 1_555 1_555
C138_3 C127_3 1_555 1_555
C141_3 C130_3 1_555 1_555
C144_3 C133_3 1_555 1_555
H71_3 C138_3 1_555 1_555
H74_3 C141_3 1_555 1_555
H77_3 C144_3 1_555 1_555
H82_3 C138_3 1_555 1_555
H85_3 C141_3 1_555 1_555
H88_3 C144_3 1_555 1_555
H93_3 C138_3 1_555 1_555
H96_3 C141_3 1_555 1_555
H99_3 C144_3 1_555 1_555
C149_3 C94_3 1_555 1_555
C152_3 C97_3 1_555 1_555
C155_3 C100_3 1_555 1_555
H104_3 C149_3 1_555 1_555
H107_3 C152_3 1_555 1_555
H110_3 C155_3 1_555 1_555
H115_3 C149_3 1_555 1_555
H118_3 C152_3 1_555 1_555
H121_3 C155_3 1_555 1_555
C160_3 C149_3 1_555 1_555
C163_3 C152_3 1_555 1_555
C166_3 C155_3 1_555 1_555
H126_3 C160_3 1_555 1_555
H129_3 C163_3 1_555 1_555
H132_3 C166_3 1_555 1_555
H137_3 C160_3 1_555 1_555
H140_3 C163_3 1_555 1_555
H143_3 C166_3 1_555 1_555
H148_3 C160_3 1_555 1_555
H151_3 C163_3 1_555 1_555
H154_3 C166_3 1_555 1_555
O4_5 Cd14 1_555 1_555
Cd8_3 O20_3 1_555 1_555
Cd7_3 O26_3 1_555 1_555
Cd9_3 O29_3 1_555 1_555
O26_3 C15_3 1_555 1_555
C72_3 C81_3 1_555 1_555
C75_3 C86_3 1_555 1_555
C78_3 C89_3 1_555 1_555
C105_3 C116_3 1_555 1_555
C105_3 C119_3 1_555 1_555
C108_3 C116_3 1_555 1_555
C108_3 C122_3 1_555 1_555
C111_3 C119_3 1_555 1_555
C111_3 C122_3 1_555 1_555
O4_6 Cd13_2 1_555 1_555
Cd8_4 O4_6 1_555 1_555
Cd7_4 O4_6 1_555 1_555
Cd15_5 O18_3 1_555 1_555
Cd16_5 O33_3 1_555 1_555
Cd17_5 O19_3 1_555 1_555
Cd18_5 O34_3 1_555 1_555
O5_3 Cd13_2 1_555 1_555
O6_3 Cd7_4 1_555 1_555
O9_3 Cd14_2 1_555 1_555
O11_3 Cd8_4 1_555 1_555
O18_3 C24_3 1_555 1_555
O19_3 C25_3 1_555 1_555
O21_3 Cd13_2 1_555 1_555
O22_3 Cd13_2 1_555 1_555
O24_3 Cd14_2 1_555 1_555
O25_3 Cd8_4 1_555 1_555
O33_3 Cd15_5 1_555 1_555
O34_3 Cd17_5 1_555 1_555
C17_3 O11_3 1_555 1_555
C24_3 O33_3 1_555 1_555
C25_3 O34_3 1_555 1_555
C28_3 C17_3 1_555 1_555
C35_3 C24_3 1_555 1_555
C36_3 C25_3 1_555 1_555
C39_3 C28_3 1_555 1_555
C46_3 C35_3 1_555 1_555
C47_3 C36_3 1_555 1_555
H16_3 C39_3 1_555 1_555
H23_3 C46_3 1_555 1_555
H24_3 C47_3 1_555 1_555
C52_3 C39_3 1_555 1_555
C57_3 C46_3 1_555 1_555
C58_3 C47_3 1_555 1_555
C63_3 C52_3 1_555 1_555
C66_3 C58_3 1_555 1_555
C69_3 C57_3 1_555 1_555
C74_3 C63_3 1_555 1_555
C77_3 C66_3 1_555 1_555
C80_3 C69_3 1_555 1_555
H29_3 C74_3 1_555 1_555
H32_3 C77_3 1_555 1_555
H35_3 C80_3 1_555 1_555
C83_3 C28_3 1_555 1_555
C88_3 C36_3 1_555 1_555
C91_3 C35_3 1_555 1_555
H38_3 C83_3 1_555 1_555
H43_3 C88_3 1_555 1_555
H46_3 C91_3 1_555 1_555
C96_3 C52_3 1_555 1_555
C99_3 C57_3 1_555 1_555
C102_3 C58_3 1_555 1_555
C107_3 C96_3 1_555 1_555
C110_3 C99_3 1_555 1_555
C113_3 C102_3 1_555 1_555
C118_3 C63_3 1_555 1_555
C121_3 C66_3 1_555 1_555
C124_3 C69_3 1_555 1_555
C129_3 C96_3 1_555 1_555
C132_3 C99_3 1_555 1_555
C135_3 C102_3 1_555 1_555
H51_3 C129_3 1_555 1_555
H54_3 C132_3 1_555 1_555
H57_3 C135_3 1_555 1_555
H62_3 C129_3 1_555 1_555
H65_3 C132_3 1_555 1_555
H68_3 C135_3 1_555 1_555
C140_3 C129_3 1_555 1_555
C143_3 C132_3 1_555 1_555
C146_3 C135_3 1_555 1_555
H73_3 C140_3 1_555 1_555
H76_3 C143_3 1_555 1_555
H79_3 C146_3 1_555 1_555
H84_3 C140_3 1_555 1_555
H87_3 C143_3 1_555 1_555
H90_3 C146_3 1_555 1_555
H95_3 C140_3 1_555 1_555
H98_3 C143_3 1_555 1_555
H101_3 C146_3 1_555 1_555
C151_3 C96_3 1_555 1_555
C154_3 C99_3 1_555 1_555
C157_3 C102_3 1_555 1_555
H106_3 C151_3 1_555 1_555
H109_3 C154_3 1_555 1_555
H112_3 C157_3 1_555 1_555
H117_3 C151_3 1_555 1_555
H120_3 C154_3 1_555 1_555
H123_3 C157_3 1_555 1_555
C162_3 C151_3 1_555 1_555
C165_3 C154_3 1_555 1_555
C168_3 C157_3 1_555 1_555
H128_3 C162_3 1_555 1_555
H131_3 C165_3 1_555 1_555
H134_3 C168_3 1_555 1_555
H139_3 C162_3 1_555 1_555
H142_3 C165_3 1_555 1_555
H145_3 C168_3 1_555 1_555
H150_3 C162_3 1_555 1_555
H153_3 C165_3 1_555 1_555
H156_3 C168_3 1_555 1_555
O4_6 Cd14_2 1_555 1_555
Cd8_4 O21_3 1_555 1_555
Cd14_2 O22_3 1_555 1_555
Cd7_4 O24_3 1_555 1_555
Cd7_4 O25_3 1_555 1_555
O21_3 C17_3 1_555 1_555
C74_3 C83_3 1_555 1_555
C77_3 C88_3 1_555 1_555
C80_3 C91_3 1_555 1_555
C107_3 C118_3 1_555 1_555
C107_3 C121_3 1_555 1_555
C110_3 C118_3 1_555 1_555
C110_3 C124_3 1_555 1_555
C113_3 C121_3 1_555 1_555
C113_3 C124_3 1_555 1_555
Cd1_5 O2_3 1_555 1_555
O2_3 C1_3 1_555 1_555
O3_3 Cd1_5 1_555 1_555
O4_7 Cd1_5 1_555 1_555
C1_3 O3_3 1_555 1_555
C2_3 C1_3 1_555 1_555
C3_3 C2_3 1_555 1_555
H1_3 C3_3 1_555 1_555
C4_3 C3_3 1_555 1_555
C5_3 C4_3 1_555 1_555
C6_3 C5_3 1_555 1_555
H2_3 C6_3 1_555 1_555
C7_3 C2_3 1_555 1_555
H3_3 C7_3 1_555 1_555
C8_3 C4_3 1_555 1_555
C9_3 C8_3 1_555 1_555
C10_3 C5_3 1_555 1_555
C11_3 C8_3 1_555 1_555
H4_3 C11_3 1_555 1_555
H5_3 C11_3 1_555 1_555
C12_3 C11_3 1_555 1_555
H6_3 C12_3 1_555 1_555
H7_3 C12_3 1_555 1_555
H8_3 C12_3 1_555 1_555
C13_3 C8_3 1_555 1_555
H9_3 C13_3 1_555 1_555
H10_3 C13_3 1_555 1_555
C14_3 C13_3 1_555 1_555
H11_3 C14_3 1_555 1_555
H12_3 C14_3 1_555 1_555
H13_3 C14_3 1_555 1_555
Cd2_3 O4_7 1_555 1_555
Cd3_5 O3_3 1_555 1_555
Cd4_3 O4_7 1_555 1_555
Cd5_3 O12_3 1_555 1_555
Cd6_3 O27_3 1_555 1_555
Cd7_5 O13_3 1_555 1_555
Cd8_5 O28_3 1_555 1_555
Cd9_4 O14_4 1_555 1_555
Cd10_3 O15_4 1_555 1_555
Cd15_4 O30_4 1_555 1_555
Cd12_3 O16_2 1_555 1_555
Cd13_3 O17_2 1_555 1_555
Cd14_3 O32_2 1_555 1_555
Cd15_7 O18_4 1_555 1_555
Cd16_7 O33_4 1_555 1_555
Cd11_3 O19_4 1_555 1_555
Cd9_2 O34_4 1_555 1_555
O5_4 Cd1_5 1_555 1_555
O6_4 Cd4_3 1_555 1_555
O7_2 Cd4_3 1_555 1_555
O8_4 Cd3_5 1_555 1_555
O9_4 Cd3_5 1_555 1_555
O10_4 Cd2_3 1_555 1_555
O11_4 Cd2_3 1_555 1_555
O12_3 C18_3 1_555 1_555
O13_3 C19_3 1_555 1_555
O14_4 C20_4 1_555 1_555
O15_4 C21_4 1_555 1_555
O16_2 C22_2 1_555 1_555
O17_2 C23_2 1_555 1_555
O18_4 C24_4 1_555 1_555
O19_4 C25_4 1_555 1_555
O20_4 Cd1_5 1_555 1_555
O21_4 Cd1_5 1_555 1_555
O22_4 Cd1_5 1_555 1_555
O23_2 Cd2_3 1_555 1_555
O24_4 Cd3_5 1_555 1_555
O25_4 Cd2_3 1_555 1_555
O26_4 Cd3_5 1_555 1_555
O27_3 Cd5_3 1_555 1_555
O28_3 Cd7_5 1_555 1_555
O29_4 Cd5_3 1_555 1_555
O30_4 Cd10_3 1_555 1_555
O31_2 Cd10_3 1_555 1_555
O32_2 Cd13_3 1_555 1_555
O33_4 Cd15_7 1_555 1_555
O34_4 Cd11_3 1_555 1_555
C15_4 O8_4 1_555 1_555
C16_2 O7_2 1_555 1_555
C17_4 O11_4 1_555 1_555
C18_3 O27_3 1_555 1_555
C19_3 O28_3 1_555 1_555
C20_4 O29_4 1_555 1_555
C21_4 O30_4 1_555 1_555
C22_2 O31_2 1_555 1_555
C23_2 O32_2 1_555 1_555
C24_4 O33_4 1_555 1_555
C25_4 O34_4 1_555 1_555
C26_4 C15_4 1_555 1_555
C27_2 C16_2 1_555 1_555
C28_4 C17_4 1_555 1_555
C29_3 C18_3 1_555 1_555
C30_3 C19_3 1_555 1_555
C31_4 C20_4 1_555 1_555
C32_4 C21_4 1_555 1_555
C33_2 C22_2 1_555 1_555
C34_2 C23_2 1_555 1_555
C35_4 C24_4 1_555 1_555
C36_4 C25_4 1_555 1_555
C37_4 C26_4 1_555 1_555
C38_2 C27_2 1_555 1_555
C39_4 C28_4 1_555 1_555
C40_3 C29_3 1_555 1_555
C41_3 C30_3 1_555 1_555
C42_4 C31_4 1_555 1_555
C43_4 C32_4 1_555 1_555
C44_2 C33_2 1_555 1_555
C45_2 C34_2 1_555 1_555
C46_4 C35_4 1_555 1_555
C47_4 C36_4 1_555 1_555
H14_4 C37_4 1_555 1_555
H15_2 C38_2 1_555 1_555
H16_4 C39_4 1_555 1_555
H17_3 C40_3 1_555 1_555
H18_3 C41_3 1_555 1_555
H19_4 C42_4 1_555 1_555
H20_4 C43_4 1_555 1_555
H21_2 C44_2 1_555 1_555
H22_2 C45_2 1_555 1_555
H23_4 C46_4 1_555 1_555
H24_4 C47_4 1_555 1_555
C48_3 C40_3 1_555 1_555
C49_3 C41_3 1_555 1_555
C50_4 C37_4 1_555 1_555
C51_2 C38_2 1_555 1_555
C52_4 C39_4 1_555 1_555
C53_4 C42_4 1_555 1_555
C54_4 C43_4 1_555 1_555
C55_2 C44_2 1_555 1_555
C56_2 C45_2 1_555 1_555
C57_4 C46_4 1_555 1_555
C58_4 C47_4 1_555 1_555
C59_3 C48_3 1_555 1_555
C60_3 C49_3 1_555 1_555
C61_4 C50_4 1_555 1_555
C62_2 C51_2 1_555 1_555
C63_4 C52_4 1_555 1_555
C64_4 C54_4 1_555 1_555
C65_2 C56_2 1_555 1_555
C66_4 C58_4 1_555 1_555
C67_4 C53_4 1_555 1_555
C68_2 C55_2 1_555 1_555
C69_4 C57_4 1_555 1_555
C70_3 C59_3 1_555 1_555
C71_3 C60_3 1_555 1_555
C72_4 C61_4 1_555 1_555
C73_2 C62_2 1_555 1_555
C74_4 C63_4 1_555 1_555
C75_4 C64_4 1_555 1_555
C76_2 C65_2 1_555 1_555
C77_4 C66_4 1_555 1_555
C78_4 C67_4 1_555 1_555
C79_2 C68_2 1_555 1_555
C80_4 C69_4 1_555 1_555
H25_3 C70_3 1_555 1_555
H26_3 C71_3 1_555 1_555
H27_4 C72_4 1_555 1_555
H28_2 C73_2 1_555 1_555
H29_4 C74_4 1_555 1_555
H30_4 C75_4 1_555 1_555
H31_2 C76_2 1_555 1_555
H32_4 C77_4 1_555 1_555
H33_4 C78_4 1_555 1_555
H34_2 C79_2 1_555 1_555
H35_4 C80_4 1_555 1_555
C81_4 C26_4 1_555 1_555
C82_2 C27_2 1_555 1_555
C83_4 C28_4 1_555 1_555
C84_3 C29_3 1_555 1_555
C85_3 C30_3 1_555 1_555
C86_4 C32_4 1_555 1_555
C87_2 C34_2 1_555 1_555
C88_4 C36_4 1_555 1_555
C89_4 C31_4 1_555 1_555
C90_2 C33_2 1_555 1_555
C91_4 C35_4 1_555 1_555
H36_4 C81_4 1_555 1_555
H37_2 C82_2 1_555 1_555
H38_4 C83_4 1_555 1_555
H39_3 C84_3 1_555 1_555
H40_3 C85_3 1_555 1_555
H41_4 C86_4 1_555 1_555
H42_2 C87_2 1_555 1_555
H43_4 C88_4 1_555 1_555
H44_4 C89_4 1_555 1_555
H45_2 C90_2 1_555 1_555
H46_4 C91_4 1_555 1_555
C92_3 C49_3 1_555 1_555
C93_3 C48_3 1_555 1_555
C94_4 C50_4 1_555 1_555
C95_2 C51_2 1_555 1_555
C96_4 C52_4 1_555 1_555
C97_4 C53_4 1_555 1_555
C98_2 C55_2 1_555 1_555
C99_4 C57_4 1_555 1_555
C100_4 C54_4 1_555 1_555
C101_2 C56_2 1_555 1_555
C102_4 C58_4 1_555 1_555
C103_3 C10_3 1_555 1_555
C104_3 C93_3 1_555 1_555
C105_4 C94_4 1_555 1_555
C106_2 C95_2 1_555 1_555
C107_4 C96_4 1_555 1_555
C108_4 C97_4 1_555 1_555
C109_2 C98_2 1_555 1_555
C110_4 C99_4 1_555 1_555
C111_4 C100_4 1_555 1_555
C112_2 C101_2 1_555 1_555
C113_4 C102_4 1_555 1_555
C114_3 C9_3 1_555 1_555
C115_3 C60_3 1_555 1_555
C116_4 C61_4 1_555 1_555
C117_2 C62_2 1_555 1_555
C118_4 C63_4 1_555 1_555
C119_4 C64_4 1_555 1_555
C120_2 C65_2 1_555 1_555
C121_4 C66_4 1_555 1_555
C122_4 C67_4 1_555 1_555
C123_2 C68_2 1_555 1_555
C124_4 C69_4 1_555 1_555
C125_3 C92_3 1_555 1_555
C126_3 C93_3 1_555 1_555
C127_4 C94_4 1_555 1_555
C128_2 C95_2 1_555 1_555
C129_4 C96_4 1_555 1_555
C130_4 C97_4 1_555 1_555
C131_2 C98_2 1_555 1_555
C132_4 C99_4 1_555 1_555
C133_4 C100_4 1_555 1_555
C134_2 C101_2 1_555 1_555
C135_4 C102_4 1_555 1_555
H47_3 C125_3 1_555 1_555
H48_3 C126_3 1_555 1_555
H49_4 C127_4 1_555 1_555
H50_2 C128_2 1_555 1_555
H51_4 C129_4 1_555 1_555
H52_4 C130_4 1_555 1_555
H53_2 C131_2 1_555 1_555
H54_4 C132_4 1_555 1_555
H55_4 C133_4 1_555 1_555
H56_2 C134_2 1_555 1_555
H57_4 C135_4 1_555 1_555
H58_3 C125_3 1_555 1_555
H59_3 C126_3 1_555 1_555
H60_4 C127_4 1_555 1_555
H61_2 C128_2 1_555 1_555
H62_4 C129_4 1_555 1_555
H63_4 C130_4 1_555 1_555
H64_2 C131_2 1_555 1_555
H65_4 C132_4 1_555 1_555
H66_4 C133_4 1_555 1_555
H67_2 C134_2 1_555 1_555
H68_4 C135_4 1_555 1_555
C136_3 C125_3 1_555 1_555
C137_3 C126_3 1_555 1_555
C138_4 C127_4 1_555 1_555
C139_2 C128_2 1_555 1_555
C140_4 C129_4 1_555 1_555
C141_4 C130_4 1_555 1_555
C142_2 C131_2 1_555 1_555
C143_4 C132_4 1_555 1_555
C144_4 C133_4 1_555 1_555
C145_2 C134_2 1_555 1_555
C146_4 C135_4 1_555 1_555
H69_3 C136_3 1_555 1_555
H70_3 C137_3 1_555 1_555
H71_4 C138_4 1_555 1_555
H72_2 C139_2 1_555 1_555
H73_4 C140_4 1_555 1_555
H74_4 C141_4 1_555 1_555
H75_2 C142_2 1_555 1_555
H76_4 C143_4 1_555 1_555
H77_4 C144_4 1_555 1_555
H78_2 C145_2 1_555 1_555
H79_4 C146_4 1_555 1_555
H80_3 C136_3 1_555 1_555
H81_3 C137_3 1_555 1_555
H82_4 C138_4 1_555 1_555
H83_2 C139_2 1_555 1_555
H84_4 C140_4 1_555 1_555
H85_4 C141_4 1_555 1_555
H86_2 C142_2 1_555 1_555
H87_4 C143_4 1_555 1_555
H88_4 C144_4 1_555 1_555
H89_2 C145_2 1_555 1_555
H90_4 C146_4 1_555 1_555
H91_3 C136_3 1_555 1_555
H92_3 C137_3 1_555 1_555
H93_4 C138_4 1_555 1_555
H94_2 C139_2 1_555 1_555
H95_4 C140_4 1_555 1_555
H96_4 C141_4 1_555 1_555
H97_2 C142_2 1_555 1_555
H98_4 C143_4 1_555 1_555
H99_4 C144_4 1_555 1_555
H100_2 C145_2 1_555 1_555
H101_4 C146_4 1_555 1_555
C147_3 C92_3 1_555 1_555
C148_3 C93_3 1_555 1_555
C149_4 C94_4 1_555 1_555
C150_2 C95_2 1_555 1_555
C151_4 C96_4 1_555 1_555
C152_4 C97_4 1_555 1_555
C153_2 C98_2 1_555 1_555
C154_4 C99_4 1_555 1_555
C155_4 C100_4 1_555 1_555
C156_2 C101_2 1_555 1_555
C157_4 C102_4 1_555 1_555
H102_3 C147_3 1_555 1_555
H103_3 C148_3 1_555 1_555
H104_4 C149_4 1_555 1_555
H105_2 C150_2 1_555 1_555
H106_4 C151_4 1_555 1_555
H107_4 C152_4 1_555 1_555
H108_2 C153_2 1_555 1_555
H109_4 C154_4 1_555 1_555
H110_4 C155_4 1_555 1_555
H111_2 C156_2 1_555 1_555
H112_4 C157_4 1_555 1_555
H113_3 C147_3 1_555 1_555
H114_3 C148_3 1_555 1_555
H115_4 C149_4 1_555 1_555
H116_2 C150_2 1_555 1_555
H117_4 C151_4 1_555 1_555
H118_4 C152_4 1_555 1_555
H119_2 C153_2 1_555 1_555
H120_4 C154_4 1_555 1_555
H121_4 C155_4 1_555 1_555
H122_2 C156_2 1_555 1_555
H123_4 C157_4 1_555 1_555
C158_3 C147_3 1_555 1_555
C159_3 C148_3 1_555 1_555
C160_4 C149_4 1_555 1_555
C161_2 C150_2 1_555 1_555
C162_4 C151_4 1_555 1_555
C163_4 C152_4 1_555 1_555
C164_2 C153_2 1_555 1_555
C165_4 C154_4 1_555 1_555
C166_4 C155_4 1_555 1_555
C167_2 C156_2 1_555 1_555
C168_4 C157_4 1_555 1_555
H124_3 C158_3 1_555 1_555
H125_3 C159_3 1_555 1_555
H126_4 C160_4 1_555 1_555
H127_2 C161_2 1_555 1_555
H128_4 C162_4 1_555 1_555
H129_4 C163_4 1_555 1_555
H130_2 C164_2 1_555 1_555
H131_4 C165_4 1_555 1_555
H132_4 C166_4 1_555 1_555
H133_2 C167_2 1_555 1_555
H134_4 C168_4 1_555 1_555
H135_3 C158_3 1_555 1_555
H136_3 C159_3 1_555 1_555
H137_4 C160_4 1_555 1_555
H138_2 C161_2 1_555 1_555
H139_4 C162_4 1_555 1_555
H140_4 C163_4 1_555 1_555
H141_2 C164_2 1_555 1_555
H142_4 C165_4 1_555 1_555
H143_4 C166_4 1_555 1_555
H144_2 C167_2 1_555 1_555
H145_4 C168_4 1_555 1_555
H146_3 C158_3 1_555 1_555
H147_3 C159_3 1_555 1_555
H148_4 C160_4 1_555 1_555
H149_2 C161_2 1_555 1_555
H150_4 C162_4 1_555 1_555
H151_4 C163_4 1_555 1_555
H152_2 C164_2 1_555 1_555
H153_4 C165_4 1_555 1_555
H154_4 C166_4 1_555 1_555
H155_2 C167_2 1_555 1_555
H156_4 C168_4 1_555 1_555
O4_7 Cd3_5 1_555 1_555
C6_3 C7_3 1_555 1_555
C9_3 C10_3 1_555 1_555
Cd2_3 O20_4 1_555 1_555
Cd2_3 O21_4 1_555 1_555
Cd3_5 O22_4 1_555 1_555
Cd4_3 O23_2 1_555 1_555
Cd4_3 O24_4 1_555 1_555
Cd4_3 O25_4 1_555 1_555
Cd4_3 O26_4 1_555 1_555
Cd9_4 O29_4 1_555 1_555
Cd12_3 O31_2 1_555 1_555
O21_4 C17_4 1_555 1_555
O23_2 C16_2 1_555 1_555
O26_4 C15_4 1_555 1_555
C59_3 C114_3 1_555 1_555
C70_3 C84_3 1_555 1_555
C71_3 C85_3 1_555 1_555
C72_4 C81_4 1_555 1_555
C73_2 C82_2 1_555 1_555
C74_4 C83_4 1_555 1_555
C75_4 C86_4 1_555 1_555
C76_2 C87_2 1_555 1_555
C77_4 C88_4 1_555 1_555
C78_4 C89_4 1_555 1_555
C79_2 C90_2 1_555 1_555
C80_4 C91_4 1_555 1_555
C92_3 C103_3 1_555 1_555
C103_3 C115_3 1_555 1_555
C104_3 C114_3 1_555 1_555
C104_3 C115_3 1_555 1_555
C105_4 C116_4 1_555 1_555
C105_4 C119_4 1_555 1_555
C106_2 C117_2 1_555 1_555
C106_2 C120_2 1_555 1_555
C107_4 C118_4 1_555 1_555
C107_4 C121_4 1_555 1_555
C108_4 C116_4 1_555 1_555
C108_4 C122_4 1_555 1_555
C109_2 C117_2 1_555 1_555
C109_2 C123_2 1_555 1_555
C110_4 C118_4 1_555 1_555
C110_4 C124_4 1_555 1_555
C111_4 C119_4 1_555 1_555
C111_4 C122_4 1_555 1_555
C112_2 C120_2 1_555 1_555
C112_2 C123_2 1_555 1_555
C113_4 C121_4 1_555 1_555
C113_4 C124_4 1_555 1_555
Cd1_6 O2_4 1_555 1_555
O2_4 C1_4 1_555 1_555
O3_4 Cd1_6 1_555 1_555
O4_8 Cd1_6 1_555 1_555
C1_4 O3_4 1_555 1_555
C2_4 C1_4 1_555 1_555
C3_4 C2_4 1_555 1_555
H1_4 C3_4 1_555 1_555
C4_4 C3_4 1_555 1_555
C5_4 C4_4 1_555 1_555
C6_4 C5_4 1_555 1_555
H2_4 C6_4 1_555 1_555
C7_4 C2_4 1_555 1_555
H3_4 C7_4 1_555 1_555
C8_4 C4_4 1_555 1_555
C9_4 C8_4 1_555 1_555
C10_4 C5_4 1_555 1_555
C11_4 C8_4 1_555 1_555
H4_4 C11_4 1_555 1_555
H5_4 C11_4 1_555 1_555
C12_4 C11_4 1_555 1_555
H6_4 C12_4 1_555 1_555
H7_4 C12_4 1_555 1_555
H8_4 C12_4 1_555 1_555
C13_4 C8_4 1_555 1_555
H9_4 C13_4 1_555 1_555
H10_4 C13_4 1_555 1_555
C14_4 C13_4 1_555 1_555
H11_4 C14_4 1_555 1_555
H12_4 C14_4 1_555 1_555
H13_4 C14_4 1_555 1_555
Cd2_4 O4_8 1_555 1_555
Cd3_6 O3_4 1_555 1_555
Cd4_4 O4_8 1_555 1_555
Cd5_6 O12_4 1_555 1_555
Cd6_6 O27_4 1_555 1_555
Cd7_6 O13_4 1_555 1_555
Cd8_6 O28_4 1_555 1_555
Cd16_2 O14_5 1_555 1_555
Cd10_5 O15_5 1_555 1_555
Cd17_6 O30_5 1_555 1_555
Cd12_5 O16_3 1_555 1_555
Cd16_7 O17_3 1_555 1_555
Cd14_4 O32_3 1_555 1_555
Cd15_8 O18_5 1_555 1_555
Cd13_3 O33_5 1_555 1_555
Cd17_7 O19_5 1_555 1_555
Cd18_7 O34_5 1_555 1_555
O5_5 Cd1_6 1_555 1_555
O6_5 Cd4_4 1_555 1_555
O7_3 Cd4_4 1_555 1_555
O8_5 Cd3_6 1_555 1_555
O9_5 Cd3_6 1_555 1_555
O10_5 Cd2_4 1_555 1_555
O11_5 Cd2_4 1_555 1_555
O12_4 C18_4 1_555 1_555
O13_4 C19_4 1_555 1_555
O14_5 C20_5 1_555 1_555
O15_5 C21_5 1_555 1_555
O16_3 C22_3 1_555 1_555
O17_3 C23_3 1_555 1_555
O18_5 C24_5 1_555 1_555
O19_5 C25_5 1_555 1_555
O20_5 Cd1_6 1_555 1_555
O21_5 Cd1_6 1_555 1_555
O22_5 Cd1_6 1_555 1_555
O23_3 Cd2_4 1_555 1_555
O24_5 Cd3_6 1_555 1_555
O25_5 Cd2_4 1_555 1_555
O26_5 Cd3_6 1_555 1_555
O27_4 Cd5_6 1_555 1_555
O28_4 Cd7_6 1_555 1_555
O29_5 Cd5_6 1_555 1_555
O30_5 Cd10_5 1_555 1_555
O31_3 Cd10_5 1_555 1_555
O32_3 Cd16_7 1_555 1_555
O33_5 Cd15_8 1_555 1_555
O34_5 Cd17_7 1_555 1_555
C15_5 O8_5 1_555 1_555
C16_3 O7_3 1_555 1_555
C17_5 O11_5 1_555 1_555
C18_4 O27_4 1_555 1_555
C19_4 O28_4 1_555 1_555
C20_5 O29_5 1_555 1_555
C21_5 O30_5 1_555 1_555
C22_3 O31_3 1_555 1_555
C23_3 O32_3 1_555 1_555
C24_5 O33_5 1_555 1_555
C25_5 O34_5 1_555 1_555
C26_5 C15_5 1_555 1_555
C27_3 C16_3 1_555 1_555
C28_5 C17_5 1_555 1_555
C29_4 C18_4 1_555 1_555
C30_4 C19_4 1_555 1_555
C31_5 C20_5 1_555 1_555
C32_5 C21_5 1_555 1_555
C33_3 C22_3 1_555 1_555
C34_3 C23_3 1_555 1_555
C35_5 C24_5 1_555 1_555
C36_5 C25_5 1_555 1_555
C37_5 C26_5 1_555 1_555
C38_3 C27_3 1_555 1_555
C39_5 C28_5 1_555 1_555
C40_4 C29_4 1_555 1_555
C41_4 C30_4 1_555 1_555
C42_5 C31_5 1_555 1_555
C43_5 C32_5 1_555 1_555
C44_3 C33_3 1_555 1_555
C45_3 C34_3 1_555 1_555
C46_5 C35_5 1_555 1_555
C47_5 C36_5 1_555 1_555
H14_5 C37_5 1_555 1_555
H15_3 C38_3 1_555 1_555
H16_5 C39_5 1_555 1_555
H17_4 C40_4 1_555 1_555
H18_4 C41_4 1_555 1_555
H19_5 C42_5 1_555 1_555
H20_5 C43_5 1_555 1_555
H21_3 C44_3 1_555 1_555
H22_3 C45_3 1_555 1_555
H23_5 C46_5 1_555 1_555
H24_5 C47_5 1_555 1_555
C48_4 C40_4 1_555 1_555
C49_4 C41_4 1_555 1_555
C50_5 C37_5 1_555 1_555
C51_3 C38_3 1_555 1_555
C52_5 C39_5 1_555 1_555
C53_5 C42_5 1_555 1_555
C54_5 C43_5 1_555 1_555
C55_3 C44_3 1_555 1_555
C56_3 C45_3 1_555 1_555
C57_5 C46_5 1_555 1_555
C58_5 C47_5 1_555 1_555
C59_4 C48_4 1_555 1_555
C60_4 C49_4 1_555 1_555
C61_5 C50_5 1_555 1_555
C62_3 C51_3 1_555 1_555
C63_5 C52_5 1_555 1_555
C64_5 C54_5 1_555 1_555
C65_3 C56_3 1_555 1_555
C66_5 C58_5 1_555 1_555
C67_5 C53_5 1_555 1_555
C68_3 C55_3 1_555 1_555
C69_5 C57_5 1_555 1_555
C70_4 C59_4 1_555 1_555
C71_4 C60_4 1_555 1_555
C72_5 C61_5 1_555 1_555
C73_3 C62_3 1_555 1_555
C74_5 C63_5 1_555 1_555
C75_5 C64_5 1_555 1_555
C76_3 C65_3 1_555 1_555
C77_5 C66_5 1_555 1_555
C78_5 C67_5 1_555 1_555
C79_3 C68_3 1_555 1_555
C80_5 C69_5 1_555 1_555
H25_4 C70_4 1_555 1_555
H26_4 C71_4 1_555 1_555
H27_5 C72_5 1_555 1_555
H28_3 C73_3 1_555 1_555
H29_5 C74_5 1_555 1_555
H30_5 C75_5 1_555 1_555
H31_3 C76_3 1_555 1_555
H32_5 C77_5 1_555 1_555
H33_5 C78_5 1_555 1_555
H34_3 C79_3 1_555 1_555
H35_5 C80_5 1_555 1_555
C81_5 C26_5 1_555 1_555
C82_3 C27_3 1_555 1_555
C83_5 C28_5 1_555 1_555
C84_4 C29_4 1_555 1_555
C85_4 C30_4 1_555 1_555
C86_5 C32_5 1_555 1_555
C87_3 C34_3 1_555 1_555
C88_5 C36_5 1_555 1_555
C89_5 C31_5 1_555 1_555
C90_3 C33_3 1_555 1_555
C91_5 C35_5 1_555 1_555
H36_5 C81_5 1_555 1_555
H37_3 C82_3 1_555 1_555
H38_5 C83_5 1_555 1_555
H39_4 C84_4 1_555 1_555
H40_4 C85_4 1_555 1_555
H41_5 C86_5 1_555 1_555
H42_3 C87_3 1_555 1_555
H43_5 C88_5 1_555 1_555
H44_5 C89_5 1_555 1_555
H45_3 C90_3 1_555 1_555
H46_5 C91_5 1_555 1_555
C92_4 C49_4 1_555 1_555
C93_4 C48_4 1_555 1_555
C94_5 C50_5 1_555 1_555
C95_3 C51_3 1_555 1_555
C96_5 C52_5 1_555 1_555
C97_5 C53_5 1_555 1_555
C98_3 C55_3 1_555 1_555
C99_5 C57_5 1_555 1_555
C100_5 C54_5 1_555 1_555
C101_3 C56_3 1_555 1_555
C102_5 C58_5 1_555 1_555
C103_4 C10_4 1_555 1_555
C104_4 C93_4 1_555 1_555
C105_5 C94_5 1_555 1_555
C106_3 C95_3 1_555 1_555
C107_5 C96_5 1_555 1_555
C108_5 C97_5 1_555 1_555
C109_3 C98_3 1_555 1_555
C110_5 C99_5 1_555 1_555
C111_5 C100_5 1_555 1_555
C112_3 C101_3 1_555 1_555
C113_5 C102_5 1_555 1_555
C114_4 C9_4 1_555 1_555
C115_4 C60_4 1_555 1_555
C116_5 C61_5 1_555 1_555
C117_3 C62_3 1_555 1_555
C118_5 C63_5 1_555 1_555
C119_5 C64_5 1_555 1_555
C120_3 C65_3 1_555 1_555
C121_5 C66_5 1_555 1_555
C122_5 C67_5 1_555 1_555
C123_3 C68_3 1_555 1_555
C124_5 C69_5 1_555 1_555
C125_4 C92_4 1_555 1_555
C126_4 C93_4 1_555 1_555
C127_5 C94_5 1_555 1_555
C128_3 C95_3 1_555 1_555
C129_5 C96_5 1_555 1_555
C130_5 C97_5 1_555 1_555
C131_3 C98_3 1_555 1_555
C132_5 C99_5 1_555 1_555
C133_5 C100_5 1_555 1_555
C134_3 C101_3 1_555 1_555
C135_5 C102_5 1_555 1_555
H47_4 C125_4 1_555 1_555
H48_4 C126_4 1_555 1_555
H49_5 C127_5 1_555 1_555
H50_3 C128_3 1_555 1_555
H51_5 C129_5 1_555 1_555
H52_5 C130_5 1_555 1_555
H53_3 C131_3 1_555 1_555
H54_5 C132_5 1_555 1_555
H55_5 C133_5 1_555 1_555
H56_3 C134_3 1_555 1_555
H57_5 C135_5 1_555 1_555
H58_4 C125_4 1_555 1_555
H59_4 C126_4 1_555 1_555
H60_5 C127_5 1_555 1_555
H61_3 C128_3 1_555 1_555
H62_5 C129_5 1_555 1_555
H63_5 C130_5 1_555 1_555
H64_3 C131_3 1_555 1_555
H65_5 C132_5 1_555 1_555
H66_5 C133_5 1_555 1_555
H67_3 C134_3 1_555 1_555
H68_5 C135_5 1_555 1_555
C136_4 C125_4 1_555 1_555
C137_4 C126_4 1_555 1_555
C138_5 C127_5 1_555 1_555
C139_3 C128_3 1_555 1_555
C140_5 C129_5 1_555 1_555
C141_5 C130_5 1_555 1_555
C142_3 C131_3 1_555 1_555
C143_5 C132_5 1_555 1_555
C144_5 C133_5 1_555 1_555
C145_3 C134_3 1_555 1_555
C146_5 C135_5 1_555 1_555
H69_4 C136_4 1_555 1_555
H70_4 C137_4 1_555 1_555
H71_5 C138_5 1_555 1_555
H72_3 C139_3 1_555 1_555
H73_5 C140_5 1_555 1_555
H74_5 C141_5 1_555 1_555
H75_3 C142_3 1_555 1_555
H76_5 C143_5 1_555 1_555
H77_5 C144_5 1_555 1_555
H78_3 C145_3 1_555 1_555
H79_5 C146_5 1_555 1_555
H80_4 C136_4 1_555 1_555
H81_4 C137_4 1_555 1_555
H82_5 C138_5 1_555 1_555
H83_3 C139_3 1_555 1_555
H84_5 C140_5 1_555 1_555
H85_5 C141_5 1_555 1_555
H86_3 C142_3 1_555 1_555
H87_5 C143_5 1_555 1_555
H88_5 C144_5 1_555 1_555
H89_3 C145_3 1_555 1_555
H90_5 C146_5 1_555 1_555
H91_4 C136_4 1_555 1_555
H92_4 C137_4 1_555 1_555
H93_5 C138_5 1_555 1_555
H94_3 C139_3 1_555 1_555
H95_5 C140_5 1_555 1_555
H96_5 C141_5 1_555 1_555
H97_3 C142_3 1_555 1_555
H98_5 C143_5 1_555 1_555
H99_5 C144_5 1_555 1_555
H100_3 C145_3 1_555 1_555
H101_5 C146_5 1_555 1_555
C147_4 C92_4 1_555 1_555
C148_4 C93_4 1_555 1_555
C149_5 C94_5 1_555 1_555
C150_3 C95_3 1_555 1_555
C151_5 C96_5 1_555 1_555
C152_5 C97_5 1_555 1_555
C153_3 C98_3 1_555 1_555
C154_5 C99_5 1_555 1_555
C155_5 C100_5 1_555 1_555
C156_3 C101_3 1_555 1_555
C157_5 C102_5 1_555 1_555
H102_4 C147_4 1_555 1_555
H103_4 C148_4 1_555 1_555
H104_5 C149_5 1_555 1_555
H105_3 C150_3 1_555 1_555
H106_5 C151_5 1_555 1_555
H107_5 C152_5 1_555 1_555
H108_3 C153_3 1_555 1_555
H109_5 C154_5 1_555 1_555
H110_5 C155_5 1_555 1_555
H111_3 C156_3 1_555 1_555
H112_5 C157_5 1_555 1_555
H113_4 C147_4 1_555 1_555
H114_4 C148_4 1_555 1_555
H115_5 C149_5 1_555 1_555
H116_3 C150_3 1_555 1_555
H117_5 C151_5 1_555 1_555
H118_5 C152_5 1_555 1_555
H119_3 C153_3 1_555 1_555
H120_5 C154_5 1_555 1_555
H121_5 C155_5 1_555 1_555
H122_3 C156_3 1_555 1_555
H123_5 C157_5 1_555 1_555
C158_4 C147_4 1_555 1_555
C159_4 C148_4 1_555 1_555
C160_5 C149_5 1_555 1_555
C161_3 C150_3 1_555 1_555
C162_5 C151_5 1_555 1_555
C163_5 C152_5 1_555 1_555
C164_3 C153_3 1_555 1_555
C165_5 C154_5 1_555 1_555
C166_5 C155_5 1_555 1_555
C167_3 C156_3 1_555 1_555
C168_5 C157_5 1_555 1_555
H124_4 C158_4 1_555 1_555
H125_4 C159_4 1_555 1_555
H126_5 C160_5 1_555 1_555
H127_3 C161_3 1_555 1_555
H128_5 C162_5 1_555 1_555
H129_5 C163_5 1_555 1_555
H130_3 C164_3 1_555 1_555
H131_5 C165_5 1_555 1_555
H132_5 C166_5 1_555 1_555
H133_3 C167_3 1_555 1_555
H134_5 C168_5 1_555 1_555
H135_4 C158_4 1_555 1_555
H136_4 C159_4 1_555 1_555
H137_5 C160_5 1_555 1_555
H138_3 C161_3 1_555 1_555
H139_5 C162_5 1_555 1_555
H140_5 C163_5 1_555 1_555
H141_3 C164_3 1_555 1_555
H142_5 C165_5 1_555 1_555
H143_5 C166_5 1_555 1_555
H144_3 C167_3 1_555 1_555
H145_5 C168_5 1_555 1_555
H146_4 C158_4 1_555 1_555
H147_4 C159_4 1_555 1_555
H148_5 C160_5 1_555 1_555
H149_3 C161_3 1_555 1_555
H150_5 C162_5 1_555 1_555
H151_5 C163_5 1_555 1_555
H152_3 C164_3 1_555 1_555
H153_5 C165_5 1_555 1_555
H154_5 C166_5 1_555 1_555
H155_3 C167_3 1_555 1_555
H156_5 C168_5 1_555 1_555
O4_8 Cd3_6 1_555 1_555
C6_4 C7_4 1_555 1_555
C9_4 C10_4 1_555 1_555
Cd2_4 O20_5 1_555 1_555
Cd2_4 O21_5 1_555 1_555
Cd3_6 O22_5 1_555 1_555
Cd4_4 O23_3 1_555 1_555
Cd4_4 O24_5 1_555 1_555
Cd4_4 O25_5 1_555 1_555
Cd4_4 O26_5 1_555 1_555
Cd16_2 O29_5 1_555 1_555
Cd12_5 O31_3 1_555 1_555
O21_5 C17_5 1_555 1_555
O23_3 C16_3 1_555 1_555
O26_5 C15_5 1_555 1_555
C59_4 C114_4 1_555 1_555
C70_4 C84_4 1_555 1_555
C71_4 C85_4 1_555 1_555
C72_5 C81_5 1_555 1_555
C73_3 C82_3 1_555 1_555
C74_5 C83_5 1_555 1_555
C75_5 C86_5 1_555 1_555
C76_3 C87_3 1_555 1_555
C77_5 C88_5 1_555 1_555
C78_5 C89_5 1_555 1_555
C79_3 C90_3 1_555 1_555
C80_5 C91_5 1_555 1_555
C92_4 C103_4 1_555 1_555
C103_4 C115_4 1_555 1_555
C104_4 C114_4 1_555 1_555
C104_4 C115_4 1_555 1_555
C105_5 C116_5 1_555 1_555
C105_5 C119_5 1_555 1_555
C106_3 C117_3 1_555 1_555
C106_3 C120_3 1_555 1_555
C107_5 C118_5 1_555 1_555
C107_5 C121_5 1_555 1_555
C108_5 C116_5 1_555 1_555
C108_5 C122_5 1_555 1_555
C109_3 C117_3 1_555 1_555
C109_3 C123_3 1_555 1_555
C110_5 C118_5 1_555 1_555
C110_5 C124_5 1_555 1_555
C111_5 C119_5 1_555 1_555
C111_5 C122_5 1_555 1_555
C112_3 C120_3 1_555 1_555
C112_3 C123_3 1_555 1_555
C113_5 C121_5 1_555 1_555
C113_5 C124_5 1_555 1_555
Cd1_7 O2_5 1_555 1_555
O2_5 C1_5 1_555 1_555
O3_5 Cd1_7 1_555 1_555
O4_9 Cd1_7 1_555 1_555
C1_5 O3_5 1_555 1_555
C2_5 C1_5 1_555 1_555
C3_5 C2_5 1_555 1_555
H1_5 C3_5 1_555 1_555
C4_5 C3_5 1_555 1_555
C5_5 C4_5 1_555 1_555
C6_5 C5_5 1_555 1_555
H2_5 C6_5 1_555 1_555
C7_5 C2_5 1_555 1_555
H3_5 C7_5 1_555 1_555
C8_5 C4_5 1_555 1_555
C9_5 C8_5 1_555 1_555
C10_5 C5_5 1_555 1_555
C11_5 C8_5 1_555 1_555
H4_5 C11_5 1_555 1_555
H5_5 C11_5 1_555 1_555
C12_5 C11_5 1_555 1_555
H6_5 C12_5 1_555 1_555
H7_5 C12_5 1_555 1_555
H8_5 C12_5 1_555 1_555
C13_5 C8_5 1_555 1_555
H9_5 C13_5 1_555 1_555
H10_5 C13_5 1_555 1_555
C14_5 C13_5 1_555 1_555
H11_5 C14_5 1_555 1_555
H12_5 C14_5 1_555 1_555
H13_5 C14_5 1_555 1_555
Cd2_5 O4_9 1_555 1_555
Cd3_7 O3_5 1_555 1_555
Cd4_5 O4_9 1_555 1_555
Cd5_8 O12_5 1_555 1_555
Cd6_8 O27_5 1_555 1_555
Cd7_7 O13_5 1_555 1_555
Cd17_7 O28_5 1_555 1_555
Cd18_4 O14_6 1_555 1_555
Cd10_6 O15_6 1_555 1_555
Cd11_4 O30_6 1_555 1_555
Cd12_6 O16_4 1_555 1_555
Cd13_4 O17_4 1_555 1_555
Cd14_5 O32_4 1_555 1_555
Cd11_2 O18_6 1_555 1_555
Cd9 O33_6 1_555 1_555
Cd8_6 O19_6 1_555 1_555
Cd18_8 O34_6 1_555 1_555
O5_6 Cd1_7 1_555 1_555
O6_6 Cd4_5 1_555 1_555
O7_4 Cd4_5 1_555 1_555
O8_6 Cd3_7 1_555 1_555
O9_6 Cd3_7 1_555 1_555
O10_6 Cd2_5 1_555 1_555
O11_6 Cd2_5 1_555 1_555
O12_5 C18_5 1_555 1_555
O13_5 C19_5 1_555 1_555
O14_6 C20_6 1_555 1_555
O15_6 C21_6 1_555 1_555
O16_4 C22_4 1_555 1_555
O17_4 C23_4 1_555 1_555
O18_6 C24_6 1_555 1_555
O19_6 C25_6 1_555 1_555
O20_6 Cd1_7 1_555 1_555
O21_6 Cd1_7 1_555 1_555
O22_6 Cd1_7 1_555 1_555
O23_4 Cd2_5 1_555 1_555
O24_6 Cd3_7 1_555 1_555
O25_6 Cd2_5 1_555 1_555
O26_6 Cd3_7 1_555 1_555
O27_5 Cd5_8 1_555 1_555
O28_5 Cd7_7 1_555 1_555
O29_6 Cd5_8 1_555 1_555
O30_6 Cd10_6 1_555 1_555
O31_4 Cd10_6 1_555 1_555
O32_4 Cd13_4 1_555 1_555
O33_6 Cd11_2 1_555 1_555
O34_6 Cd8_6 1_555 1_555
C15_6 O8_6 1_555 1_555
C16_4 O7_4 1_555 1_555
C17_6 O11_6 1_555 1_555
C18_5 O27_5 1_555 1_555
C19_5 O28_5 1_555 1_555
C20_6 O29_6 1_555 1_555
C21_6 O30_6 1_555 1_555
C22_4 O31_4 1_555 1_555
C23_4 O32_4 1_555 1_555
C24_6 O33_6 1_555 1_555
C25_6 O34_6 1_555 1_555
C26_6 C15_6 1_555 1_555
C27_4 C16_4 1_555 1_555
C28_6 C17_6 1_555 1_555
C29_5 C18_5 1_555 1_555
C30_5 C19_5 1_555 1_555
C31_6 C20_6 1_555 1_555
C32_6 C21_6 1_555 1_555
C33_4 C22_4 1_555 1_555
C34_4 C23_4 1_555 1_555
C35_6 C24_6 1_555 1_555
C36_6 C25_6 1_555 1_555
C37_6 C26_6 1_555 1_555
C38_4 C27_4 1_555 1_555
C39_6 C28_6 1_555 1_555
C40_5 C29_5 1_555 1_555
C41_5 C30_5 1_555 1_555
C42_6 C31_6 1_555 1_555
C43_6 C32_6 1_555 1_555
C44_4 C33_4 1_555 1_555
C45_4 C34_4 1_555 1_555
C46_6 C35_6 1_555 1_555
C47_6 C36_6 1_555 1_555
H14_6 C37_6 1_555 1_555
H15_4 C38_4 1_555 1_555
H16_6 C39_6 1_555 1_555
H17_5 C40_5 1_555 1_555
H18_5 C41_5 1_555 1_555
H19_6 C42_6 1_555 1_555
H20_6 C43_6 1_555 1_555
H21_4 C44_4 1_555 1_555
H22_4 C45_4 1_555 1_555
H23_6 C46_6 1_555 1_555
H24_6 C47_6 1_555 1_555
C48_5 C40_5 1_555 1_555
C49_5 C41_5 1_555 1_555
C50_6 C37_6 1_555 1_555
C51_4 C38_4 1_555 1_555
C52_6 C39_6 1_555 1_555
C53_6 C42_6 1_555 1_555
C54_6 C43_6 1_555 1_555
C55_4 C44_4 1_555 1_555
C56_4 C45_4 1_555 1_555
C57_6 C46_6 1_555 1_555
C58_6 C47_6 1_555 1_555
C59_5 C48_5 1_555 1_555
C60_5 C49_5 1_555 1_555
C61_6 C50_6 1_555 1_555
C62_4 C51_4 1_555 1_555
C63_6 C52_6 1_555 1_555
C64_6 C54_6 1_555 1_555
C65_4 C56_4 1_555 1_555
C66_6 C58_6 1_555 1_555
C67_6 C53_6 1_555 1_555
C68_4 C55_4 1_555 1_555
C69_6 C57_6 1_555 1_555
C70_5 C59_5 1_555 1_555
C71_5 C60_5 1_555 1_555
C72_6 C61_6 1_555 1_555
C73_4 C62_4 1_555 1_555
C74_6 C63_6 1_555 1_555
C75_6 C64_6 1_555 1_555
C76_4 C65_4 1_555 1_555
C77_6 C66_6 1_555 1_555
C78_6 C67_6 1_555 1_555
C79_4 C68_4 1_555 1_555
C80_6 C69_6 1_555 1_555
H25_5 C70_5 1_555 1_555
H26_5 C71_5 1_555 1_555
H27_6 C72_6 1_555 1_555
H28_4 C73_4 1_555 1_555
H29_6 C74_6 1_555 1_555
H30_6 C75_6 1_555 1_555
H31_4 C76_4 1_555 1_555
H32_6 C77_6 1_555 1_555
H33_6 C78_6 1_555 1_555
H34_4 C79_4 1_555 1_555
H35_6 C80_6 1_555 1_555
C81_6 C26_6 1_555 1_555
C82_4 C27_4 1_555 1_555
C83_6 C28_6 1_555 1_555
C84_5 C29_5 1_555 1_555
C85_5 C30_5 1_555 1_555
C86_6 C32_6 1_555 1_555
C87_4 C34_4 1_555 1_555
C88_6 C36_6 1_555 1_555
C89_6 C31_6 1_555 1_555
C90_4 C33_4 1_555 1_555
C91_6 C35_6 1_555 1_555
H36_6 C81_6 1_555 1_555
H37_4 C82_4 1_555 1_555
H38_6 C83_6 1_555 1_555
H39_5 C84_5 1_555 1_555
H40_5 C85_5 1_555 1_555
H41_6 C86_6 1_555 1_555
H42_4 C87_4 1_555 1_555
H43_6 C88_6 1_555 1_555
H44_6 C89_6 1_555 1_555
H45_4 C90_4 1_555 1_555
H46_6 C91_6 1_555 1_555
C92_5 C49_5 1_555 1_555
C93_5 C48_5 1_555 1_555
C94_6 C50_6 1_555 1_555
C95_4 C51_4 1_555 1_555
C96_6 C52_6 1_555 1_555
C97_6 C53_6 1_555 1_555
C98_4 C55_4 1_555 1_555
C99_6 C57_6 1_555 1_555
C100_6 C54_6 1_555 1_555
C101_4 C56_4 1_555 1_555
C102_6 C58_6 1_555 1_555
C103_5 C10_5 1_555 1_555
C104_5 C93_5 1_555 1_555
C105_6 C94_6 1_555 1_555
C106_4 C95_4 1_555 1_555
C107_6 C96_6 1_555 1_555
C108_6 C97_6 1_555 1_555
C109_4 C98_4 1_555 1_555
C110_6 C99_6 1_555 1_555
C111_6 C100_6 1_555 1_555
C112_4 C101_4 1_555 1_555
C113_6 C102_6 1_555 1_555
C114_5 C9_5 1_555 1_555
C115_5 C60_5 1_555 1_555
C116_6 C61_6 1_555 1_555
C117_4 C62_4 1_555 1_555
C118_6 C63_6 1_555 1_555
C119_6 C64_6 1_555 1_555
C120_4 C65_4 1_555 1_555
C121_6 C66_6 1_555 1_555
C122_6 C67_6 1_555 1_555
C123_4 C68_4 1_555 1_555
C124_6 C69_6 1_555 1_555
C125_5 C92_5 1_555 1_555
C126_5 C93_5 1_555 1_555
C127_6 C94_6 1_555 1_555
C128_4 C95_4 1_555 1_555
C129_6 C96_6 1_555 1_555
C130_6 C97_6 1_555 1_555
C131_4 C98_4 1_555 1_555
C132_6 C99_6 1_555 1_555
C133_6 C100_6 1_555 1_555
C134_4 C101_4 1_555 1_555
C135_6 C102_6 1_555 1_555
H47_5 C125_5 1_555 1_555
H48_5 C126_5 1_555 1_555
H49_6 C127_6 1_555 1_555
H50_4 C128_4 1_555 1_555
H51_6 C129_6 1_555 1_555
H52_6 C130_6 1_555 1_555
H53_4 C131_4 1_555 1_555
H54_6 C132_6 1_555 1_555
H55_6 C133_6 1_555 1_555
H56_4 C134_4 1_555 1_555
H57_6 C135_6 1_555 1_555
H58_5 C125_5 1_555 1_555
H59_5 C126_5 1_555 1_555
H60_6 C127_6 1_555 1_555
H61_4 C128_4 1_555 1_555
H62_6 C129_6 1_555 1_555
H63_6 C130_6 1_555 1_555
H64_4 C131_4 1_555 1_555
H65_6 C132_6 1_555 1_555
H66_6 C133_6 1_555 1_555
H67_4 C134_4 1_555 1_555
H68_6 C135_6 1_555 1_555
C136_5 C125_5 1_555 1_555
C137_5 C126_5 1_555 1_555
C138_6 C127_6 1_555 1_555
C139_4 C128_4 1_555 1_555
C140_6 C129_6 1_555 1_555
C141_6 C130_6 1_555 1_555
C142_4 C131_4 1_555 1_555
C143_6 C132_6 1_555 1_555
C144_6 C133_6 1_555 1_555
C145_4 C134_4 1_555 1_555
C146_6 C135_6 1_555 1_555
H69_5 C136_5 1_555 1_555
H70_5 C137_5 1_555 1_555
H71_6 C138_6 1_555 1_555
H72_4 C139_4 1_555 1_555
H73_6 C140_6 1_555 1_555
H74_6 C141_6 1_555 1_555
H75_4 C142_4 1_555 1_555
H76_6 C143_6 1_555 1_555
H77_6 C144_6 1_555 1_555
H78_4 C145_4 1_555 1_555
H79_6 C146_6 1_555 1_555
H80_5 C136_5 1_555 1_555
H81_5 C137_5 1_555 1_555
H82_6 C138_6 1_555 1_555
H83_4 C139_4 1_555 1_555
H84_6 C140_6 1_555 1_555
H85_6 C141_6 1_555 1_555
H86_4 C142_4 1_555 1_555
H87_6 C143_6 1_555 1_555
H88_6 C144_6 1_555 1_555
H89_4 C145_4 1_555 1_555
H90_6 C146_6 1_555 1_555
H91_5 C136_5 1_555 1_555
H92_5 C137_5 1_555 1_555
H93_6 C138_6 1_555 1_555
H94_4 C139_4 1_555 1_555
H95_6 C140_6 1_555 1_555
H96_6 C141_6 1_555 1_555
H97_4 C142_4 1_555 1_555
H98_6 C143_6 1_555 1_555
H99_6 C144_6 1_555 1_555
H100_4 C145_4 1_555 1_555
H101_6 C146_6 1_555 1_555
C147_5 C92_5 1_555 1_555
C148_5 C93_5 1_555 1_555
C149_6 C94_6 1_555 1_555
C150_4 C95_4 1_555 1_555
C151_6 C96_6 1_555 1_555
C152_6 C97_6 1_555 1_555
C153_4 C98_4 1_555 1_555
C154_6 C99_6 1_555 1_555
C155_6 C100_6 1_555 1_555
C156_4 C101_4 1_555 1_555
C157_6 C102_6 1_555 1_555
H102_5 C147_5 1_555 1_555
H103_5 C148_5 1_555 1_555
H104_6 C149_6 1_555 1_555
H105_4 C150_4 1_555 1_555
H106_6 C151_6 1_555 1_555
H107_6 C152_6 1_555 1_555
H108_4 C153_4 1_555 1_555
H109_6 C154_6 1_555 1_555
H110_6 C155_6 1_555 1_555
H111_4 C156_4 1_555 1_555
H112_6 C157_6 1_555 1_555
H113_5 C147_5 1_555 1_555
H114_5 C148_5 1_555 1_555
H115_6 C149_6 1_555 1_555
H116_4 C150_4 1_555 1_555
H117_6 C151_6 1_555 1_555
H118_6 C152_6 1_555 1_555
H119_4 C153_4 1_555 1_555
H120_6 C154_6 1_555 1_555
H121_6 C155_6 1_555 1_555
H122_4 C156_4 1_555 1_555
H123_6 C157_6 1_555 1_555
C158_5 C147_5 1_555 1_555
C159_5 C148_5 1_555 1_555
C160_6 C149_6 1_555 1_555
C161_4 C150_4 1_555 1_555
C162_6 C151_6 1_555 1_555
C163_6 C152_6 1_555 1_555
C164_4 C153_4 1_555 1_555
C165_6 C154_6 1_555 1_555
C166_6 C155_6 1_555 1_555
C167_4 C156_4 1_555 1_555
C168_6 C157_6 1_555 1_555
H124_5 C158_5 1_555 1_555
H125_5 C159_5 1_555 1_555
H126_6 C160_6 1_555 1_555
H127_4 C161_4 1_555 1_555
H128_6 C162_6 1_555 1_555
H129_6 C163_6 1_555 1_555
H130_4 C164_4 1_555 1_555
H131_6 C165_6 1_555 1_555
H132_6 C166_6 1_555 1_555
H133_4 C167_4 1_555 1_555
H134_6 C168_6 1_555 1_555
H135_5 C158_5 1_555 1_555
H136_5 C159_5 1_555 1_555
H137_6 C160_6 1_555 1_555
H138_4 C161_4 1_555 1_555
H139_6 C162_6 1_555 1_555
H140_6 C163_6 1_555 1_555
H141_4 C164_4 1_555 1_555
H142_6 C165_6 1_555 1_555
H143_6 C166_6 1_555 1_555
H144_4 C167_4 1_555 1_555
H145_6 C168_6 1_555 1_555
H146_5 C158_5 1_555 1_555
H147_5 C159_5 1_555 1_555
H148_6 C160_6 1_555 1_555
H149_4 C161_4 1_555 1_555
H150_6 C162_6 1_555 1_555
H151_6 C163_6 1_555 1_555
H152_4 C164_4 1_555 1_555
H153_6 C165_6 1_555 1_555
H154_6 C166_6 1_555 1_555
H155_4 C167_4 1_555 1_555
H156_6 C168_6 1_555 1_555
O4_9 Cd3_7 1_555 1_555
C6_5 C7_5 1_555 1_555
C9_5 C10_5 1_555 1_555
Cd2_5 O20_6 1_555 1_555
Cd2_5 O21_6 1_555 1_555
Cd3_7 O22_6 1_555 1_555
Cd4_5 O23_4 1_555 1_555
Cd4_5 O24_6 1_555 1_555
Cd4_5 O25_6 1_555 1_555
Cd4_5 O26_6 1_555 1_555
Cd18_4 O29_6 1_555 1_555
Cd12_6 O31_4 1_555 1_555
O21_6 C17_6 1_555 1_555
O23_4 C16_4 1_555 1_555
O26_6 C15_6 1_555 1_555
C59_5 C114_5 1_555 1_555
C70_5 C84_5 1_555 1_555
C71_5 C85_5 1_555 1_555
C72_6 C81_6 1_555 1_555
C73_4 C82_4 1_555 1_555
C74_6 C83_6 1_555 1_555
C75_6 C86_6 1_555 1_555
C76_4 C87_4 1_555 1_555
C77_6 C88_6 1_555 1_555
C78_6 C89_6 1_555 1_555
C79_4 C90_4 1_555 1_555
C80_6 C91_6 1_555 1_555
C92_5 C103_5 1_555 1_555
C103_5 C115_5 1_555 1_555
C104_5 C114_5 1_555 1_555
C104_5 C115_5 1_555 1_555
C105_6 C116_6 1_555 1_555
C105_6 C119_6 1_555 1_555
C106_4 C117_4 1_555 1_555
C106_4 C120_4 1_555 1_555
C107_6 C118_6 1_555 1_555
C107_6 C121_6 1_555 1_555
C108_6 C116_6 1_555 1_555
C108_6 C122_6 1_555 1_555
C109_4 C117_4 1_555 1_555
C109_4 C123_4 1_555 1_555
C110_6 C118_6 1_555 1_555
C110_6 C124_6 1_555 1_555
C111_6 C119_6 1_555 1_555
C111_6 C122_6 1_555 1_555
C112_4 C120_4 1_555 1_555
C112_4 C123_4 1_555 1_555
C113_6 C121_6 1_555 1_555
C113_6 C124_6 1_555 1_555
Cd1_8 O2_6 1_555 1_555
O2_6 C1_6 1_555 1_555
O3_6 Cd1_8 1_555 1_555
O4_10 Cd1_8 1_555 1_555
C1_6 O3_6 1_555 1_555
C2_6 C1_6 1_555 1_555
C3_6 C2_6 1_555 1_555
H1_6 C3_6 1_555 1_555
C4_6 C3_6 1_555 1_555
C5_6 C4_6 1_555 1_555
C6_6 C5_6 1_555 1_555
H2_6 C6_6 1_555 1_555
C7_6 C2_6 1_555 1_555
H3_6 C7_6 1_555 1_555
C8_6 C4_6 1_555 1_555
C9_6 C8_6 1_555 1_555
C10_6 C5_6 1_555 1_555
C11_6 C8_6 1_555 1_555
H4_6 C11_6 1_555 1_555
H5_6 C11_6 1_555 1_555
C12_6 C11_6 1_555 1_555
H6_6 C12_6 1_555 1_555
H7_6 C12_6 1_555 1_555
H8_6 C12_6 1_555 1_555
C13_6 C8_6 1_555 1_555
H9_6 C13_6 1_555 1_555
H10_6 C13_6 1_555 1_555
C14_6 C13_6 1_555 1_555
H11_6 C14_6 1_555 1_555
H12_6 C14_6 1_555 1_555
H13_6 C14_6 1_555 1_555
Cd8_5 O4_10 1_555 1_555
Cd3_8 O3_6 1_555 1_555
Cd7_5 O4_10 1_555 1_555
Cd5_10 O12_6 1_555 1_555
Cd6_10 O27_6 1_555 1_555
Cd7_8 O13_6 1_555 1_555
Cd15_8 O28_6 1_555 1_555
Cd18_2 O14_7 1_555 1_555
Cd6_3 O15_7 1_555 1_555
Cd11_6 O30_7 1_555 1_555
Cd11 O18_7 1_555 1_555
Cd9_3 O33_7 1_555 1_555
Cd17_8 O19_7 1_555 1_555
Cd13_4 O34_7 1_555 1_555
O5_7 Cd1_8 1_555 1_555
O6_7 Cd7_5 1_555 1_555
O8_7 Cd3_8 1_555 1_555
O9_7 Cd3_8 1_555 1_555
O10_7 Cd8_5 1_555 1_555
O11_7 Cd8_5 1_555 1_555
O12_6 C18_6 1_555 1_555
O13_6 C19_6 1_555 1_555
O14_7 C20_7 1_555 1_555
O15_7 C21_7 1_555 1_555
O18_7 C24_7 1_555 1_555
O19_7 C25_7 1_555 1_555
O20_7 Cd1_8 1_555 1_555
O21_7 Cd1_8 1_555 1_555
O22_7 Cd1_8 1_555 1_555
O24_7 Cd3_8 1_555 1_555
O25_7 Cd8_5 1_555 1_555
O26_7 Cd3_8 1_555 1_555
O27_6 Cd5_10 1_555 1_555
O28_6 Cd7_8 1_555 1_555
O29_7 Cd5_10 1_555 1_555
O30_7 Cd6_3 1_555 1_555
O33_7 Cd11 1_555 1_555
O34_7 Cd17_8 1_555 1_555
C15_7 O8_7 1_555 1_555
C17_7 O11_7 1_555 1_555
C18_6 O27_6 1_555 1_555
C19_6 O28_6 1_555 1_555
C20_7 O29_7 1_555 1_555
C21_7 O30_7 1_555 1_555
C24_7 O33_7 1_555 1_555
C25_7 O34_7 1_555 1_555
C26_7 C15_7 1_555 1_555
C28_7 C17_7 1_555 1_555
C29_6 C18_6 1_555 1_555
C30_6 C19_6 1_555 1_555
C31_7 C20_7 1_555 1_555
C32_7 C21_7 1_555 1_555
C35_7 C24_7 1_555 1_555
C36_7 C25_7 1_555 1_555
C37_7 C26_7 1_555 1_555
C39_7 C28_7 1_555 1_555
C40_6 C29_6 1_555 1_555
C41_6 C30_6 1_555 1_555
C42_7 C31_7 1_555 1_555
C43_7 C32_7 1_555 1_555
C46_7 C35_7 1_555 1_555
C47_7 C36_7 1_555 1_555
H14_7 C37_7 1_555 1_555
H16_7 C39_7 1_555 1_555
H17_6 C40_6 1_555 1_555
H18_6 C41_6 1_555 1_555
H19_7 C42_7 1_555 1_555
H20_7 C43_7 1_555 1_555
H23_7 C46_7 1_555 1_555
H24_7 C47_7 1_555 1_555
C48_6 C40_6 1_555 1_555
C49_6 C41_6 1_555 1_555
C50_7 C37_7 1_555 1_555
C52_7 C39_7 1_555 1_555
C53_7 C42_7 1_555 1_555
C54_7 C43_7 1_555 1_555
C57_7 C46_7 1_555 1_555
C58_7 C47_7 1_555 1_555
C59_6 C48_6 1_555 1_555
C60_6 C49_6 1_555 1_555
C61_7 C50_7 1_555 1_555
C63_7 C52_7 1_555 1_555
C64_7 C54_7 1_555 1_555
C66_7 C58_7 1_555 1_555
C67_7 C53_7 1_555 1_555
C69_7 C57_7 1_555 1_555
C70_6 C59_6 1_555 1_555
C71_6 C60_6 1_555 1_555
C72_7 C61_7 1_555 1_555
C74_7 C63_7 1_555 1_555
C75_7 C64_7 1_555 1_555
C77_7 C66_7 1_555 1_555
C78_7 C67_7 1_555 1_555
C80_7 C69_7 1_555 1_555
H25_6 C70_6 1_555 1_555
H26_6 C71_6 1_555 1_555
H27_7 C72_7 1_555 1_555
H29_7 C74_7 1_555 1_555
H30_7 C75_7 1_555 1_555
H32_7 C77_7 1_555 1_555
H33_7 C78_7 1_555 1_555
H35_7 C80_7 1_555 1_555
C81_7 C26_7 1_555 1_555
C83_7 C28_7 1_555 1_555
C84_6 C29_6 1_555 1_555
C85_6 C30_6 1_555 1_555
C86_7 C32_7 1_555 1_555
C88_7 C36_7 1_555 1_555
C89_7 C31_7 1_555 1_555
C91_7 C35_7 1_555 1_555
H36_7 C81_7 1_555 1_555
H38_7 C83_7 1_555 1_555
H39_6 C84_6 1_555 1_555
H40_6 C85_6 1_555 1_555
H41_7 C86_7 1_555 1_555
H43_7 C88_7 1_555 1_555
H44_7 C89_7 1_555 1_555
H46_7 C91_7 1_555 1_555
C92_6 C49_6 1_555 1_555
C93_6 C48_6 1_555 1_555
C94_7 C50_7 1_555 1_555
C96_7 C52_7 1_555 1_555
C97_7 C53_7 1_555 1_555
C99_7 C57_7 1_555 1_555
C100_7 C54_7 1_555 1_555
C102_7 C58_7 1_555 1_555
C103_6 C10_6 1_555 1_555
C104_6 C93_6 1_555 1_555
C105_7 C94_7 1_555 1_555
C107_7 C96_7 1_555 1_555
C108_7 C97_7 1_555 1_555
C110_7 C99_7 1_555 1_555
C111_7 C100_7 1_555 1_555
C113_7 C102_7 1_555 1_555
C114_6 C9_6 1_555 1_555
C115_6 C60_6 1_555 1_555
C116_7 C61_7 1_555 1_555
C118_7 C63_7 1_555 1_555
C119_7 C64_7 1_555 1_555
C121_7 C66_7 1_555 1_555
C122_7 C67_7 1_555 1_555
C124_7 C69_7 1_555 1_555
C125_6 C92_6 1_555 1_555
C126_6 C93_6 1_555 1_555
C127_7 C94_7 1_555 1_555
C129_7 C96_7 1_555 1_555
C130_7 C97_7 1_555 1_555
C132_7 C99_7 1_555 1_555
C133_7 C100_7 1_555 1_555
C135_7 C102_7 1_555 1_555
H47_6 C125_6 1_555 1_555
H48_6 C126_6 1_555 1_555
H49_7 C127_7 1_555 1_555
H51_7 C129_7 1_555 1_555
H52_7 C130_7 1_555 1_555
H54_7 C132_7 1_555 1_555
H55_7 C133_7 1_555 1_555
H57_7 C135_7 1_555 1_555
H58_6 C125_6 1_555 1_555
H59_6 C126_6 1_555 1_555
H60_7 C127_7 1_555 1_555
H62_7 C129_7 1_555 1_555
H63_7 C130_7 1_555 1_555
H65_7 C132_7 1_555 1_555
H66_7 C133_7 1_555 1_555
H68_7 C135_7 1_555 1_555
C136_6 C125_6 1_555 1_555
C137_6 C126_6 1_555 1_555
C138_7 C127_7 1_555 1_555
C140_7 C129_7 1_555 1_555
C141_7 C130_7 1_555 1_555
C143_7 C132_7 1_555 1_555
C144_7 C133_7 1_555 1_555
C146_7 C135_7 1_555 1_555
H69_6 C136_6 1_555 1_555
H70_6 C137_6 1_555 1_555
H71_7 C138_7 1_555 1_555
H73_7 C140_7 1_555 1_555
H74_7 C141_7 1_555 1_555
H76_7 C143_7 1_555 1_555
H77_7 C144_7 1_555 1_555
H79_7 C146_7 1_555 1_555
H80_6 C136_6 1_555 1_555
H81_6 C137_6 1_555 1_555
H82_7 C138_7 1_555 1_555
H84_7 C140_7 1_555 1_555
H85_7 C141_7 1_555 1_555
H87_7 C143_7 1_555 1_555
H88_7 C144_7 1_555 1_555
H90_7 C146_7 1_555 1_555
H91_6 C136_6 1_555 1_555
H92_6 C137_6 1_555 1_555
H93_7 C138_7 1_555 1_555
H95_7 C140_7 1_555 1_555
H96_7 C141_7 1_555 1_555
H98_7 C143_7 1_555 1_555
H99_7 C144_7 1_555 1_555
H101_7 C146_7 1_555 1_555
C147_6 C92_6 1_555 1_555
C148_6 C93_6 1_555 1_555
C149_7 C94_7 1_555 1_555
C151_7 C96_7 1_555 1_555
C152_7 C97_7 1_555 1_555
C154_7 C99_7 1_555 1_555
C155_7 C100_7 1_555 1_555
C157_7 C102_7 1_555 1_555
H102_6 C147_6 1_555 1_555
H103_6 C148_6 1_555 1_555
H104_7 C149_7 1_555 1_555
H106_7 C151_7 1_555 1_555
H107_7 C152_7 1_555 1_555
H109_7 C154_7 1_555 1_555
H110_7 C155_7 1_555 1_555
H112_7 C157_7 1_555 1_555
H113_6 C147_6 1_555 1_555
H114_6 C148_6 1_555 1_555
H115_7 C149_7 1_555 1_555
H117_7 C151_7 1_555 1_555
H118_7 C152_7 1_555 1_555
H120_7 C154_7 1_555 1_555
H121_7 C155_7 1_555 1_555
H123_7 C157_7 1_555 1_555
C158_6 C147_6 1_555 1_555
C159_6 C148_6 1_555 1_555
C160_7 C149_7 1_555 1_555
C162_7 C151_7 1_555 1_555
C163_7 C152_7 1_555 1_555
C165_7 C154_7 1_555 1_555
C166_7 C155_7 1_555 1_555
C168_7 C157_7 1_555 1_555
H124_6 C158_6 1_555 1_555
H125_6 C159_6 1_555 1_555
H126_7 C160_7 1_555 1_555
H128_7 C162_7 1_555 1_555
H129_7 C163_7 1_555 1_555
H131_7 C165_7 1_555 1_555
H132_7 C166_7 1_555 1_555
H134_7 C168_7 1_555 1_555
H135_6 C158_6 1_555 1_555
H136_6 C159_6 1_555 1_555
H137_7 C160_7 1_555 1_555
H139_7 C162_7 1_555 1_555
H140_7 C163_7 1_555 1_555
H142_7 C165_7 1_555 1_555
H143_7 C166_7 1_555 1_555
H145_7 C168_7 1_555 1_555
H146_6 C158_6 1_555 1_555
H147_6 C159_6 1_555 1_555
H148_7 C160_7 1_555 1_555
H150_7 C162_7 1_555 1_555
H151_7 C163_7 1_555 1_555
H153_7 C165_7 1_555 1_555
H154_7 C166_7 1_555 1_555
H156_7 C168_7 1_555 1_555
O4_10 Cd3_8 1_555 1_555
C6_6 C7_6 1_555 1_555
C9_6 C10_6 1_555 1_555
Cd8_5 O20_7 1_555 1_555
Cd8_5 O21_7 1_555 1_555
Cd3_8 O22_7 1_555 1_555
Cd7_5 O24_7 1_555 1_555
Cd7_5 O25_7 1_555 1_555
Cd7_5 O26_7 1_555 1_555
Cd18_2 O29_7 1_555 1_555
O21_7 C17_7 1_555 1_555
O26_7 C15_7 1_555 1_555
C59_6 C114_6 1_555 1_555
C70_6 C84_6 1_555 1_555
C71_6 C85_6 1_555 1_555
C72_7 C81_7 1_555 1_555
C74_7 C83_7 1_555 1_555
C75_7 C86_7 1_555 1_555
C77_7 C88_7 1_555 1_555
C78_7 C89_7 1_555 1_555
C80_7 C91_7 1_555 1_555
C92_6 C103_6 1_555 1_555
C103_6 C115_6 1_555 1_555
C104_6 C114_6 1_555 1_555
C104_6 C115_6 1_555 1_555
C105_7 C116_7 1_555 1_555
C105_7 C119_7 1_555 1_555
C107_7 C118_7 1_555 1_555
C107_7 C121_7 1_555 1_555
C108_7 C116_7 1_555 1_555
C108_7 C122_7 1_555 1_555
C110_7 C118_7 1_555 1_555
C110_7 C124_7 1_555 1_555
C111_7 C119_7 1_555 1_555
C111_7 C122_7 1_555 1_555
C113_7 C121_7 1_555 1_555
C113_7 C124_7 1_555 1_555
Cd18_7 O2_7 1_555 1_555
O2_7 C1_7 1_555 1_555
O3_7 Cd18_7 1_555 1_555
O4_11 Cd18_7 1_555 1_555
C1_7 O3_7 1_555 1_555
C2_7 C1_7 1_555 1_555
C3_7 C2_7 1_555 1_555
H1_7 C3_7 1_555 1_555
C4_7 C3_7 1_555 1_555
C5_7 C4_7 1_555 1_555
C6_7 C5_7 1_555 1_555
H2_7 C6_7 1_555 1_555
C7_7 C2_7 1_555 1_555
H3_7 C7_7 1_555 1_555
C8_7 C4_7 1_555 1_555
C9_7 C8_7 1_555 1_555
C10_7 C5_7 1_555 1_555
C11_7 C8_7 1_555 1_555
H4_7 C11_7 1_555 1_555
H5_7 C11_7 1_555 1_555
C12_7 C11_7 1_555 1_555
H6_7 C12_7 1_555 1_555
H7_7 C12_7 1_555 1_555
H8_7 C12_7 1_555 1_555
C13_7 C8_7 1_555 1_555
H9_7 C13_7 1_555 1_555
H10_7 C13_7 1_555 1_555
C14_7 C13_7 1_555 1_555
H11_7 C14_7 1_555 1_555
H12_7 C14_7 1_555 1_555
H13_7 C14_7 1_555 1_555
Cd17_7 O4_11 1_555 1_555
Cd3_9 O3_7 1_555 1_555
Cd7_7 O4_11 1_555 1_555
Cd5_12 O12_7 1_555 1_555
Cd6_12 O27_7 1_555 1_555
Cd7_9 O13_7 1_555 1_555
Cd17_8 O28_7 1_555 1_555
Cd16_6 O14_8 1_555 1_555
Cd6_8 O15_8 1_555 1_555
Cd17_4 O30_8 1_555 1_555
O5_8 Cd18_7 1_555 1_555
O6_8 Cd7_7 1_555 1_555
O8_8 Cd3_9 1_555 1_555
O9_8 Cd3_9 1_555 1_555
O10_8 Cd17_7 1_555 1_555
O12_7 C18_7 1_555 1_555
O13_7 C19_7 1_555 1_555
O14_8 C20_8 1_555 1_555
O15_8 C21_8 1_555 1_555
O20_8 Cd18_7 1_555 1_555
O22_8 Cd18_7 1_555 1_555
O24_8 Cd3_9 1_555 1_555
O25_8 Cd17_7 1_555 1_555
O26_8 Cd3_9 1_555 1_555
O27_7 Cd5_12 1_555 1_555
O28_7 Cd7_9 1_555 1_555
O29_8 Cd5_12 1_555 1_555
O30_8 Cd6_8 1_555 1_555
C15_8 O8_8 1_555 1_555
C18_7 O27_7 1_555 1_555
C19_7 O28_7 1_555 1_555
C20_8 O29_8 1_555 1_555
C21_8 O30_8 1_555 1_555
C26_8 C15_8 1_555 1_555
C29_7 C18_7 1_555 1_555
C30_7 C19_7 1_555 1_555
C31_8 C20_8 1_555 1_555
C32_8 C21_8 1_555 1_555
C37_8 C26_8 1_555 1_555
C40_7 C29_7 1_555 1_555
C41_7 C30_7 1_555 1_555
C42_8 C31_8 1_555 1_555
C43_8 C32_8 1_555 1_555
H14_8 C37_8 1_555 1_555
H17_7 C40_7 1_555 1_555
H18_7 C41_7 1_555 1_555
H19_8 C42_8 1_555 1_555
H20_8 C43_8 1_555 1_555
C48_7 C40_7 1_555 1_555
C49_7 C41_7 1_555 1_555
C50_8 C37_8 1_555 1_555
C53_8 C42_8 1_555 1_555
C54_8 C43_8 1_555 1_555
C59_7 C48_7 1_555 1_555
C60_7 C49_7 1_555 1_555
C61_8 C50_8 1_555 1_555
C64_8 C54_8 1_555 1_555
C67_8 C53_8 1_555 1_555
C70_7 C59_7 1_555 1_555
C71_7 C60_7 1_555 1_555
C72_8 C61_8 1_555 1_555
C75_8 C64_8 1_555 1_555
C78_8 C67_8 1_555 1_555
H25_7 C70_7 1_555 1_555
H26_7 C71_7 1_555 1_555
H27_8 C72_8 1_555 1_555
H30_8 C75_8 1_555 1_555
H33_8 C78_8 1_555 1_555
C81_8 C26_8 1_555 1_555
C84_7 C29_7 1_555 1_555
C85_7 C30_7 1_555 1_555
C86_8 C32_8 1_555 1_555
C89_8 C31_8 1_555 1_555
H36_8 C81_8 1_555 1_555
H39_7 C84_7 1_555 1_555
H40_7 C85_7 1_555 1_555
H41_8 C86_8 1_555 1_555
H44_8 C89_8 1_555 1_555
C92_7 C49_7 1_555 1_555
C93_7 C48_7 1_555 1_555
C94_8 C50_8 1_555 1_555
C97_8 C53_8 1_555 1_555
C100_8 C54_8 1_555 1_555
C103_7 C10_7 1_555 1_555
C104_7 C93_7 1_555 1_555
C105_8 C94_8 1_555 1_555
C108_8 C97_8 1_555 1_555
C111_8 C100_8 1_555 1_555
C114_7 C9_7 1_555 1_555
C115_7 C60_7 1_555 1_555
C116_8 C61_8 1_555 1_555
C119_8 C64_8 1_555 1_555
C122_8 C67_8 1_555 1_555
C125_7 C92_7 1_555 1_555
C126_7 C93_7 1_555 1_555
C127_8 C94_8 1_555 1_555
C130_8 C97_8 1_555 1_555
C133_8 C100_8 1_555 1_555
H47_7 C125_7 1_555 1_555
H48_7 C126_7 1_555 1_555
H49_8 C127_8 1_555 1_555
H52_8 C130_8 1_555 1_555
H55_8 C133_8 1_555 1_555
H58_7 C125_7 1_555 1_555
H59_7 C126_7 1_555 1_555
H60_8 C127_8 1_555 1_555
H63_8 C130_8 1_555 1_555
H66_8 C133_8 1_555 1_555
C136_7 C125_7 1_555 1_555
C137_7 C126_7 1_555 1_555
C138_8 C127_8 1_555 1_555
C141_8 C130_8 1_555 1_555
C144_8 C133_8 1_555 1_555
H69_7 C136_7 1_555 1_555
H70_7 C137_7 1_555 1_555
H71_8 C138_8 1_555 1_555
H74_8 C141_8 1_555 1_555
H77_8 C144_8 1_555 1_555
H80_7 C136_7 1_555 1_555
H81_7 C137_7 1_555 1_555
H82_8 C138_8 1_555 1_555
H85_8 C141_8 1_555 1_555
H88_8 C144_8 1_555 1_555
H91_7 C136_7 1_555 1_555
H92_7 C137_7 1_555 1_555
H93_8 C138_8 1_555 1_555
H96_8 C141_8 1_555 1_555
H99_8 C144_8 1_555 1_555
C147_7 C92_7 1_555 1_555
C148_7 C93_7 1_555 1_555
C149_8 C94_8 1_555 1_555
C152_8 C97_8 1_555 1_555
C155_8 C100_8 1_555 1_555
H102_7 C147_7 1_555 1_555
H103_7 C148_7 1_555 1_555
H104_8 C149_8 1_555 1_555
H107_8 C152_8 1_555 1_555
H110_8 C155_8 1_555 1_555
H113_7 C147_7 1_555 1_555
H114_7 C148_7 1_555 1_555
H115_8 C149_8 1_555 1_555
H118_8 C152_8 1_555 1_555
H121_8 C155_8 1_555 1_555
C158_7 C147_7 1_555 1_555
C159_7 C148_7 1_555 1_555
C160_8 C149_8 1_555 1_555
C163_8 C152_8 1_555 1_555
C166_8 C155_8 1_555 1_555
H124_7 C158_7 1_555 1_555
H125_7 C159_7 1_555 1_555
H126_8 C160_8 1_555 1_555
H129_8 C163_8 1_555 1_555
H132_8 C166_8 1_555 1_555
H135_7 C158_7 1_555 1_555
H136_7 C159_7 1_555 1_555
H137_8 C160_8 1_555 1_555
H140_8 C163_8 1_555 1_555
H143_8 C166_8 1_555 1_555
H146_7 C158_7 1_555 1_555
H147_7 C159_7 1_555 1_555
H148_8 C160_8 1_555 1_555
H151_8 C163_8 1_555 1_555
H154_8 C166_8 1_555 1_555
O4_11 Cd3_9 1_555 1_555
C6_7 C7_7 1_555 1_555
C9_7 C10_7 1_555 1_555
Cd17_7 O20_8 1_555 1_555
Cd3_9 O22_8 1_555 1_555
Cd7_7 O24_8 1_555 1_555
Cd7_7 O25_8 1_555 1_555
Cd7_7 O26_8 1_555 1_555
Cd16_6 O29_8 1_555 1_555
O26_8 C15_8 1_555 1_555
C59_7 C114_7 1_555 1_555
C70_7 C84_7 1_555 1_555
C71_7 C85_7 1_555 1_555
C72_8 C81_8 1_555 1_555
C75_8 C86_8 1_555 1_555
C78_8 C89_8 1_555 1_555
C92_7 C103_7 1_555 1_555
C103_7 C115_7 1_555 1_555
C104_7 C114_7 1_555 1_555
C104_7 C115_7 1_555 1_555
C105_8 C116_8 1_555 1_555
C105_8 C119_8 1_555 1_555
C108_8 C116_8 1_555 1_555
C108_8 C122_8 1_555 1_555
C111_8 C119_8 1_555 1_555
C111_8 C122_8 1_555 1_555
Cd18_8 O2_8 1_555 1_555
O2_8 C1_8 1_555 1_555
O3_8 Cd18_8 1_555 1_555
O4_12 Cd18_8 1_555 1_555
C1_8 O3_8 1_555 1_555
C2_8 C1_8 1_555 1_555
C3_8 C2_8 1_555 1_555
H1_8 C3_8 1_555 1_555
C4_8 C3_8 1_555 1_555
C5_8 C4_8 1_555 1_555
C6_8 C5_8 1_555 1_555
H2_8 C6_8 1_555 1_555
C7_8 C2_8 1_555 1_555
H3_8 C7_8 1_555 1_555
C8_8 C4_8 1_555 1_555
C9_8 C8_8 1_555 1_555
C10_8 C5_8 1_555 1_555
C11_8 C8_8 1_555 1_555
H4_8 C11_8 1_555 1_555
H5_8 C11_8 1_555 1_555
C12_8 C11_8 1_555 1_555
H6_8 C12_8 1_555 1_555
H7_8 C12_8 1_555 1_555
H8_8 C12_8 1_555 1_555
C13_8 C8_8 1_555 1_555
H9_8 C13_8 1_555 1_555
H10_8 C13_8 1_555 1_555
C14_8 C13_8 1_555 1_555
H11_8 C14_8 1_555 1_555
H12_8 C14_8 1_555 1_555
H13_8 C14_8 1_555 1_555
Cd8_6 O4_12 1_555 1_555
Cd3_10 O3_8 1_555 1_555
Cd7_6 O4_12 1_555 1_555
Cd5_13 O12_8 1_555 1_555
Cd6_13 O27_8 1_555 1_555
Cd7_10 O13_8 1_555 1_555
Cd15_7 O28_8 1_555 1_555
Cd9_6 O14_9 1_555 1_555
Cd6_6 O15_9 1_555 1_555
Cd15_2 O30_9 1_555 1_555
O5_9 Cd18_8 1_555 1_555
O6_9 Cd7_6 1_555 1_555
O8_9 Cd3_10 1_555 1_555
O9_9 Cd3_10 1_555 1_555
O10_9 Cd8_6 1_555 1_555
O12_8 C18_8 1_555 1_555
O13_8 C19_8 1_555 1_555
O14_9 C20_9 1_555 1_555
O15_9 C21_9 1_555 1_555
O20_9 Cd18_8 1_555 1_555
O22_9 Cd18_8 1_555 1_555
O24_9 Cd3_10 1_555 1_555
O25_9 Cd8_6 1_555 1_555
O26_9 Cd3_10 1_555 1_555
O27_8 Cd5_13 1_555 1_555
O28_8 Cd7_10 1_555 1_555
O29_9 Cd5_13 1_555 1_555
O30_9 Cd6_6 1_555 1_555
C15_9 O8_9 1_555 1_555
C18_8 O27_8 1_555 1_555
C19_8 O28_8 1_555 1_555
C20_9 O29_9 1_555 1_555
C21_9 O30_9 1_555 1_555
C26_9 C15_9 1_555 1_555
C29_8 C18_8 1_555 1_555
C30_8 C19_8 1_555 1_555
C31_9 C20_9 1_555 1_555
C32_9 C21_9 1_555 1_555
C37_9 C26_9 1_555 1_555
C40_8 C29_8 1_555 1_555
C41_8 C30_8 1_555 1_555
C42_9 C31_9 1_555 1_555
C43_9 C32_9 1_555 1_555
H14_9 C37_9 1_555 1_555
H17_8 C40_8 1_555 1_555
H18_8 C41_8 1_555 1_555
H19_9 C42_9 1_555 1_555
H20_9 C43_9 1_555 1_555
C48_8 C40_8 1_555 1_555
C49_8 C41_8 1_555 1_555
C50_9 C37_9 1_555 1_555
C53_9 C42_9 1_555 1_555
C54_9 C43_9 1_555 1_555
C59_8 C48_8 1_555 1_555
C60_8 C49_8 1_555 1_555
C61_9 C50_9 1_555 1_555
C64_9 C54_9 1_555 1_555
C67_9 C53_9 1_555 1_555
C70_8 C59_8 1_555 1_555
C71_8 C60_8 1_555 1_555
C72_9 C61_9 1_555 1_555
C75_9 C64_9 1_555 1_555
C78_9 C67_9 1_555 1_555
H25_8 C70_8 1_555 1_555
H26_8 C71_8 1_555 1_555
H27_9 C72_9 1_555 1_555
H30_9 C75_9 1_555 1_555
H33_9 C78_9 1_555 1_555
C81_9 C26_9 1_555 1_555
C84_8 C29_8 1_555 1_555
C85_8 C30_8 1_555 1_555
C86_9 C32_9 1_555 1_555
C89_9 C31_9 1_555 1_555
H36_9 C81_9 1_555 1_555
H39_8 C84_8 1_555 1_555
H40_8 C85_8 1_555 1_555
H41_9 C86_9 1_555 1_555
H44_9 C89_9 1_555 1_555
C92_8 C49_8 1_555 1_555
C93_8 C48_8 1_555 1_555
C94_9 C50_9 1_555 1_555
C97_9 C53_9 1_555 1_555
C100_9 C54_9 1_555 1_555
C103_8 C10_8 1_555 1_555
C104_8 C93_8 1_555 1_555
C105_9 C94_9 1_555 1_555
C108_9 C97_9 1_555 1_555
C111_9 C100_9 1_555 1_555
C114_8 C9_8 1_555 1_555
C115_8 C60_8 1_555 1_555
C116_9 C61_9 1_555 1_555
C119_9 C64_9 1_555 1_555
C122_9 C67_9 1_555 1_555
C125_8 C92_8 1_555 1_555
C126_8 C93_8 1_555 1_555
C127_9 C94_9 1_555 1_555
C130_9 C97_9 1_555 1_555
C133_9 C100_9 1_555 1_555
H47_8 C125_8 1_555 1_555
H48_8 C126_8 1_555 1_555
H49_9 C127_9 1_555 1_555
H52_9 C130_9 1_555 1_555
H55_9 C133_9 1_555 1_555
H58_8 C125_8 1_555 1_555
H59_8 C126_8 1_555 1_555
H60_9 C127_9 1_555 1_555
H63_9 C130_9 1_555 1_555
H66_9 C133_9 1_555 1_555
C136_8 C125_8 1_555 1_555
C137_8 C126_8 1_555 1_555
C138_9 C127_9 1_555 1_555
C141_9 C130_9 1_555 1_555
C144_9 C133_9 1_555 1_555
H69_8 C136_8 1_555 1_555
H70_8 C137_8 1_555 1_555
H71_9 C138_9 1_555 1_555
H74_9 C141_9 1_555 1_555
H77_9 C144_9 1_555 1_555
H80_8 C136_8 1_555 1_555
H81_8 C137_8 1_555 1_555
H82_9 C138_9 1_555 1_555
H85_9 C141_9 1_555 1_555
H88_9 C144_9 1_555 1_555
H91_8 C136_8 1_555 1_555
H92_8 C137_8 1_555 1_555
H93_9 C138_9 1_555 1_555
H96_9 C141_9 1_555 1_555
H99_9 C144_9 1_555 1_555
C147_8 C92_8 1_555 1_555
C148_8 C93_8 1_555 1_555
C149_9 C94_9 1_555 1_555
C152_9 C97_9 1_555 1_555
C155_9 C100_9 1_555 1_555
H102_8 C147_8 1_555 1_555
H103_8 C148_8 1_555 1_555
H104_9 C149_9 1_555 1_555
H107_9 C152_9 1_555 1_555
H110_9 C155_9 1_555 1_555
H113_8 C147_8 1_555 1_555
H114_8 C148_8 1_555 1_555
H115_9 C149_9 1_555 1_555
H118_9 C152_9 1_555 1_555
H121_9 C155_9 1_555 1_555
C158_8 C147_8 1_555 1_555
C159_8 C148_8 1_555 1_555
C160_9 C149_9 1_555 1_555
C163_9 C152_9 1_555 1_555
C166_9 C155_9 1_555 1_555
H124_8 C158_8 1_555 1_555
H125_8 C159_8 1_555 1_555
H126_9 C160_9 1_555 1_555
H129_9 C163_9 1_555 1_555
H132_9 C166_9 1_555 1_555
H135_8 C158_8 1_555 1_555
H136_8 C159_8 1_555 1_555
H137_9 C160_9 1_555 1_555
H140_9 C163_9 1_555 1_555
H143_9 C166_9 1_555 1_555
H146_8 C158_8 1_555 1_555
H147_8 C159_8 1_555 1_555
H148_9 C160_9 1_555 1_555
H151_9 C163_9 1_555 1_555
H154_9 C166_9 1_555 1_555
O4_12 Cd3_10 1_555 1_555
C6_8 C7_8 1_555 1_555
C9_8 C10_8 1_555 1_555
Cd8_6 O20_9 1_555 1_555
Cd3_10 O22_9 1_555 1_555
Cd7_6 O24_9 1_555 1_555
Cd7_6 O25_9 1_555 1_555
Cd7_6 O26_9 1_555 1_555
Cd9_6 O29_9 1_555 1_555
O26_9 C15_9 1_555 1_555
C59_8 C114_8 1_555 1_555
C70_8 C84_8 1_555 1_555
C71_8 C85_8 1_555 1_555
C72_9 C81_9 1_555 1_555
C75_9 C86_9 1_555 1_555
C78_9 C89_9 1_555 1_555
C92_8 C103_8 1_555 1_555
C103_8 C115_8 1_555 1_555
C104_8 C114_8 1_555 1_555
C104_8 C115_8 1_555 1_555
C105_9 C116_9 1_555 1_555
C105_9 C119_9 1_555 1_555
C108_9 C116_9 1_555 1_555
C108_9 C122_9 1_555 1_555
C111_9 C119_9 1_555 1_555
C111_9 C122_9 1_555 1_555
O4_13 Cd13_3 1_555 1_555
Cd15_8 O4_13 1_555 1_555
Cd7_8 O4_13 1_555 1_555
Cd16_4 O14_10 1_555 1_555
Cd6_10 O15_10 1_555 1_555
Cd17_2 O30_10 1_555 1_555
O5_10 Cd13_3 1_555 1_555
O6_10 Cd7_8 1_555 1_555
O8_10 Cd14_3 1_555 1_555
O9_10 Cd14_3 1_555 1_555
O10_10 Cd15_8 1_555 1_555
O14_10 C20_10 1_555 1_555
O15_10 C21_10 1_555 1_555
O20_10 Cd13_3 1_555 1_555
O22_10 Cd13_3 1_555 1_555
O24_10 Cd14_3 1_555 1_555
O25_10 Cd15_8 1_555 1_555
O26_10 Cd14_3 1_555 1_555
O29_10 Cd12_3 1_555 1_555
O30_10 Cd6_10 1_555 1_555
C15_10 O8_10 1_555 1_555
C20_10 O29_10 1_555 1_555
C21_10 O30_10 1_555 1_555
C26_10 C15_10 1_555 1_555
C31_10 C20_10 1_555 1_555
C32_10 C21_10 1_555 1_555
C37_10 C26_10 1_555 1_555
C42_10 C31_10 1_555 1_555
C43_10 C32_10 1_555 1_555
H14_10 C37_10 1_555 1_555
H19_10 C42_10 1_555 1_555
H20_10 C43_10 1_555 1_555
C50_10 C37_10 1_555 1_555
C53_10 C42_10 1_555 1_555
C54_10 C43_10 1_555 1_555
C61_10 C50_10 1_555 1_555
C64_10 C54_10 1_555 1_555
C67_10 C53_10 1_555 1_555
C72_10 C61_10 1_555 1_555
C75_10 C64_10 1_555 1_555
C78_10 C67_10 1_555 1_555
H27_10 C72_10 1_555 1_555
H30_10 C75_10 1_555 1_555
H33_10 C78_10 1_555 1_555
C81_10 C26_10 1_555 1_555
C86_10 C32_10 1_555 1_555
C89_10 C31_10 1_555 1_555
H36_10 C81_10 1_555 1_555
H41_10 C86_10 1_555 1_555
H44_10 C89_10 1_555 1_555
C94_10 C50_10 1_555 1_555
C97_10 C53_10 1_555 1_555
C100_10 C54_10 1_555 1_555
C105_10 C94_10 1_555 1_555
C108_10 C97_10 1_555 1_555
C111_10 C100_10 1_555 1_555
C116_10 C61_10 1_555 1_555
C119_10 C64_10 1_555 1_555
C122_10 C67_10 1_555 1_555
C127_10 C94_10 1_555 1_555
C130_10 C97_10 1_555 1_555
C133_10 C100_10 1_555 1_555
H49_10 C127_10 1_555 1_555
H52_10 C130_10 1_555 1_555
H55_10 C133_10 1_555 1_555
H60_10 C127_10 1_555 1_555
H63_10 C130_10 1_555 1_555
H66_10 C133_10 1_555 1_555
C138_10 C127_10 1_555 1_555
C141_10 C130_10 1_555 1_555
C144_10 C133_10 1_555 1_555
H71_10 C138_10 1_555 1_555
H74_10 C141_10 1_555 1_555
H77_10 C144_10 1_555 1_555
H82_10 C138_10 1_555 1_555
H85_10 C141_10 1_555 1_555
H88_10 C144_10 1_555 1_555
H93_10 C138_10 1_555 1_555
H96_10 C141_10 1_555 1_555
H99_10 C144_10 1_555 1_555
C149_10 C94_10 1_555 1_555
C152_10 C97_10 1_555 1_555
C155_10 C100_10 1_555 1_555
H104_10 C149_10 1_555 1_555
H107_10 C152_10 1_555 1_555
H110_10 C155_10 1_555 1_555
H115_10 C149_10 1_555 1_555
H118_10 C152_10 1_555 1_555
H121_10 C155_10 1_555 1_555
C160_10 C149_10 1_555 1_555
C163_10 C152_10 1_555 1_555
C166_10 C155_10 1_555 1_555
H126_10 C160_10 1_555 1_555
H129_10 C163_10 1_555 1_555
H132_10 C166_10 1_555 1_555
H137_10 C160_10 1_555 1_555
H140_10 C163_10 1_555 1_555
H143_10 C166_10 1_555 1_555
H148_10 C160_10 1_555 1_555
H151_10 C163_10 1_555 1_555
H154_10 C166_10 1_555 1_555
O4_13 Cd14_3 1_555 1_555
Cd15_8 O20_10 1_555 1_555
Cd14_3 O22_10 1_555 1_555
Cd7_8 O24_10 1_555 1_555
Cd7_8 O25_10 1_555 1_555
Cd7_8 O26_10 1_555 1_555
Cd16_4 O29_10 1_555 1_555
O26_10 C15_10 1_555 1_555
C72_10 C81_10 1_555 1_555
C75_10 C86_10 1_555 1_555
C78_10 C89_10 1_555 1_555
C105_10 C116_10 1_555 1_555
C105_10 C119_10 1_555 1_555
C108_10 C116_10 1_555 1_555
C108_10 C122_10 1_555 1_555
C111_10 C119_10 1_555 1_555
C111_10 C122_10 1_555 1_555
O4_14 Cd16_7 1_555 1_555
Cd15_7 O4_14 1_555 1_555
Cd7_10 O4_14 1_555 1_555
Cd18_6 O14_11 1_555 1_555
Cd6_13 O15_11 1_555 1_555
Cd11_8 O30_11 1_555 1_555
O5_11 Cd16_7 1_555 1_555
O6_11 Cd7_10 1_555 1_555
O8_11 Cd14_4 1_555 1_555
O9_11 Cd14_4 1_555 1_555
O10_11 Cd15_7 1_555 1_555
O14_11 C20_11 1_555 1_555
O15_11 C21_11 1_555 1_555
O20_11 Cd16_7 1_555 1_555
O22_11 Cd16_7 1_555 1_555
O24_11 Cd14_4 1_555 1_555
O25_11 Cd15_7 1_555 1_555
O26_11 Cd14_4 1_555 1_555
O29_11 Cd12_5 1_555 1_555
O30_11 Cd6_13 1_555 1_555
C15_11 O8_11 1_555 1_555
C20_11 O29_11 1_555 1_555
C21_11 O30_11 1_555 1_555
C26_11 C15_11 1_555 1_555
C31_11 C20_11 1_555 1_555
C32_11 C21_11 1_555 1_555
C37_11 C26_11 1_555 1_555
C42_11 C31_11 1_555 1_555
C43_11 C32_11 1_555 1_555
H14_11 C37_11 1_555 1_555
H19_11 C42_11 1_555 1_555
H20_11 C43_11 1_555 1_555
C50_11 C37_11 1_555 1_555
C53_11 C42_11 1_555 1_555
C54_11 C43_11 1_555 1_555
C61_11 C50_11 1_555 1_555
C64_11 C54_11 1_555 1_555
C67_11 C53_11 1_555 1_555
C72_11 C61_11 1_555 1_555
C75_11 C64_11 1_555 1_555
C78_11 C67_11 1_555 1_555
H27_11 C72_11 1_555 1_555
H30_11 C75_11 1_555 1_555
H33_11 C78_11 1_555 1_555
C81_11 C26_11 1_555 1_555
C86_11 C32_11 1_555 1_555
C89_11 C31_11 1_555 1_555
H36_11 C81_11 1_555 1_555
H41_11 C86_11 1_555 1_555
H44_11 C89_11 1_555 1_555
C94_11 C50_11 1_555 1_555
C97_11 C53_11 1_555 1_555
C100_11 C54_11 1_555 1_555
C105_11 C94_11 1_555 1_555
C108_11 C97_11 1_555 1_555
C111_11 C100_11 1_555 1_555
C116_11 C61_11 1_555 1_555
C119_11 C64_11 1_555 1_555
C122_11 C67_11 1_555 1_555
C127_11 C94_11 1_555 1_555
C130_11 C97_11 1_555 1_555
C133_11 C100_11 1_555 1_555
H49_11 C127_11 1_555 1_555
H52_11 C130_11 1_555 1_555
H55_11 C133_11 1_555 1_555
H60_11 C127_11 1_555 1_555
H63_11 C130_11 1_555 1_555
H66_11 C133_11 1_555 1_555
C138_11 C127_11 1_555 1_555
C141_11 C130_11 1_555 1_555
C144_11 C133_11 1_555 1_555
H71_11 C138_11 1_555 1_555
H74_11 C141_11 1_555 1_555
H77_11 C144_11 1_555 1_555
H82_11 C138_11 1_555 1_555
H85_11 C141_11 1_555 1_555
H88_11 C144_11 1_555 1_555
H93_11 C138_11 1_555 1_555
H96_11 C141_11 1_555 1_555
H99_11 C144_11 1_555 1_555
C149_11 C94_11 1_555 1_555
C152_11 C97_11 1_555 1_555
C155_11 C100_11 1_555 1_555
H104_11 C149_11 1_555 1_555
H107_11 C152_11 1_555 1_555
H110_11 C155_11 1_555 1_555
H115_11 C149_11 1_555 1_555
H118_11 C152_11 1_555 1_555
H121_11 C155_11 1_555 1_555
C160_11 C149_11 1_555 1_555
C163_11 C152_11 1_555 1_555
C166_11 C155_11 1_555 1_555
H126_11 C160_11 1_555 1_555
H129_11 C163_11 1_555 1_555
H132_11 C166_11 1_555 1_555
H137_11 C160_11 1_555 1_555
H140_11 C163_11 1_555 1_555
H143_11 C166_11 1_555 1_555
H148_11 C160_11 1_555 1_555
H151_11 C163_11 1_555 1_555
H154_11 C166_11 1_555 1_555
O4_14 Cd14_4 1_555 1_555
Cd15_7 O20_11 1_555 1_555
Cd14_4 O22_11 1_555 1_555
Cd7_10 O24_11 1_555 1_555
Cd7_10 O25_11 1_555 1_555
Cd7_10 O26_11 1_555 1_555
Cd18_6 O29_11 1_555 1_555
O26_11 C15_11 1_555 1_555
C72_11 C81_11 1_555 1_555
C75_11 C86_11 1_555 1_555
C78_11 C89_11 1_555 1_555
C105_11 C116_11 1_555 1_555
C105_11 C119_11 1_555 1_555
C108_11 C116_11 1_555 1_555
C108_11 C122_11 1_555 1_555
C111_11 C119_11 1_555 1_555
C111_11 C122_11 1_555 1_555
O4_15 Cd13_4 1_555 1_555
Cd17_8 O4_15 1_555 1_555
Cd7_9 O4_15 1_555 1_555
Cd9_8 O14_12 1_555 1_555
Cd6_12 O15_12 1_555 1_555
Cd15_6 O30_12 1_555 1_555
O5_12 Cd13_4 1_555 1_555
O6_12 Cd7_9 1_555 1_555
O8_12 Cd14_5 1_555 1_555
O9_12 Cd14_5 1_555 1_555
O10_12 Cd17_8 1_555 1_555
O14_12 C20_12 1_555 1_555
O15_12 C21_12 1_555 1_555
O20_12 Cd13_4 1_555 1_555
O22_12 Cd13_4 1_555 1_555
O24_12 Cd14_5 1_555 1_555
O25_12 Cd17_8 1_555 1_555
O26_12 Cd14_5 1_555 1_555
O29_12 Cd12_6 1_555 1_555
O30_12 Cd6_12 1_555 1_555
C15_12 O8_12 1_555 1_555
C20_12 O29_12 1_555 1_555
C21_12 O30_12 1_555 1_555
C26_12 C15_12 1_555 1_555
C31_12 C20_12 1_555 1_555
C32_12 C21_12 1_555 1_555
C37_12 C26_12 1_555 1_555
C42_12 C31_12 1_555 1_555
C43_12 C32_12 1_555 1_555
H14_12 C37_12 1_555 1_555
H19_12 C42_12 1_555 1_555
H20_12 C43_12 1_555 1_555
C50_12 C37_12 1_555 1_555
C53_12 C42_12 1_555 1_555
C54_12 C43_12 1_555 1_555
C61_12 C50_12 1_555 1_555
C64_12 C54_12 1_555 1_555
C67_12 C53_12 1_555 1_555
C72_12 C61_12 1_555 1_555
C75_12 C64_12 1_555 1_555
C78_12 C67_12 1_555 1_555
H27_12 C72_12 1_555 1_555
H30_12 C75_12 1_555 1_555
H33_12 C78_12 1_555 1_555
C81_12 C26_12 1_555 1_555
C86_12 C32_12 1_555 1_555
C89_12 C31_12 1_555 1_555
H36_12 C81_12 1_555 1_555
H41_12 C86_12 1_555 1_555
H44_12 C89_12 1_555 1_555
C94_12 C50_12 1_555 1_555
C97_12 C53_12 1_555 1_555
C100_12 C54_12 1_555 1_555
C105_12 C94_12 1_555 1_555
C108_12 C97_12 1_555 1_555
C111_12 C100_12 1_555 1_555
C116_12 C61_12 1_555 1_555
C119_12 C64_12 1_555 1_555
C122_12 C67_12 1_555 1_555
C127_12 C94_12 1_555 1_555
C130_12 C97_12 1_555 1_555
C133_12 C100_12 1_555 1_555
H49_12 C127_12 1_555 1_555
H52_12 C130_12 1_555 1_555
H55_12 C133_12 1_555 1_555
H60_12 C127_12 1_555 1_555
H63_12 C130_12 1_555 1_555
H66_12 C133_12 1_555 1_555
C138_12 C127_12 1_555 1_555
C141_12 C130_12 1_555 1_555
C144_12 C133_12 1_555 1_555
H71_12 C138_12 1_555 1_555
H74_12 C141_12 1_555 1_555
H77_12 C144_12 1_555 1_555
H82_12 C138_12 1_555 1_555
H85_12 C141_12 1_555 1_555
H88_12 C144_12 1_555 1_555
H93_12 C138_12 1_555 1_555
H96_12 C141_12 1_555 1_555
H99_12 C144_12 1_555 1_555
C149_12 C94_12 1_555 1_555
C152_12 C97_12 1_555 1_555
C155_12 C100_12 1_555 1_555
H104_12 C149_12 1_555 1_555
H107_12 C152_12 1_555 1_555
H110_12 C155_12 1_555 1_555
H115_12 C149_12 1_555 1_555
H118_12 C152_12 1_555 1_555
H121_12 C155_12 1_555 1_555
C160_12 C149_12 1_555 1_555
C163_12 C152_12 1_555 1_555
C166_12 C155_12 1_555 1_555
H126_12 C160_12 1_555 1_555
H129_12 C163_12 1_555 1_555
H132_12 C166_12 1_555 1_555
H137_12 C160_12 1_555 1_555
H140_12 C163_12 1_555 1_555
H143_12 C166_12 1_555 1_555
H148_12 C160_12 1_555 1_555
H151_12 C163_12 1_555 1_555
H154_12 C166_12 1_555 1_555
O4_15 Cd14_5 1_555 1_555
Cd17_8 O20_12 1_555 1_555
Cd14_5 O22_12 1_555 1_555
Cd7_9 O24_12 1_555 1_555
Cd7_9 O25_12 1_555 1_555
Cd7_9 O26_12 1_555 1_555
Cd9_8 O29_12 1_555 1_555
O26_12 C15_12 1_555 1_555
C72_12 C81_12 1_555 1_555
C75_12 C86_12 1_555 1_555
C78_12 C89_12 1_555 1_555
C105_12 C116_12 1_555 1_555
C105_12 C119_12 1_555 1_555
C108_12 C116_12 1_555 1_555
C108_12 C122_12 1_555 1_555
C111_12 C119_12 1_555 1_555
C111_12 C122_12 1_555 1_555
O4_16 Cd10_6 1_555 1_555
Cd12_6 O4_16 1_555 1_555
Cd9_8 O4_16 1_555 1_555
Cd17_4 O14_13 1_555 1_555
Cd15_6 O15_13 1_555 1_555
Cd16_6 O30_13 1_555 1_555
O8_13 Cd11_4 1_555 1_555
O14_13 C20_13 1_555 1_555
O15_13 C21_13 1_555 1_555
O26_13 Cd11_4 1_555 1_555
O29_13 Cd18_4 1_555 1_555
O30_13 Cd15_6 1_555 1_555
C15_13 O8_13 1_555 1_555
C20_13 O29_13 1_555 1_555
C21_13 O30_13 1_555 1_555
C26_13 C15_13 1_555 1_555
C31_13 C20_13 1_555 1_555
C32_13 C21_13 1_555 1_555
C37_13 C26_13 1_555 1_555
C42_13 C31_13 1_555 1_555
C43_13 C32_13 1_555 1_555
H14_13 C37_13 1_555 1_555
H19_13 C42_13 1_555 1_555
H20_13 C43_13 1_555 1_555
C50_13 C37_13 1_555 1_555
C53_13 C42_13 1_555 1_555
C54_13 C43_13 1_555 1_555
C61_13 C50_13 1_555 1_555
C64_13 C54_13 1_555 1_555
C67_13 C53_13 1_555 1_555
C72_13 C61_13 1_555 1_555
C75_13 C64_13 1_555 1_555
C78_13 C67_13 1_555 1_555
H27_13 C72_13 1_555 1_555
H30_13 C75_13 1_555 1_555
H33_13 C78_13 1_555 1_555
C81_13 C26_13 1_555 1_555
C86_13 C32_13 1_555 1_555
C89_13 C31_13 1_555 1_555
H36_13 C81_13 1_555 1_555
H41_13 C86_13 1_555 1_555
H44_13 C89_13 1_555 1_555
C94_13 C50_13 1_555 1_555
C97_13 C53_13 1_555 1_555
C100_13 C54_13 1_555 1_555
C105_13 C94_13 1_555 1_555
C108_13 C97_13 1_555 1_555
C111_13 C100_13 1_555 1_555
C116_13 C61_13 1_555 1_555
C119_13 C64_13 1_555 1_555
C122_13 C67_13 1_555 1_555
C127_13 C94_13 1_555 1_555
C130_13 C97_13 1_555 1_555
C133_13 C100_13 1_555 1_555
H49_13 C127_13 1_555 1_555
H52_13 C130_13 1_555 1_555
H55_13 C133_13 1_555 1_555
H60_13 C127_13 1_555 1_555
H63_13 C130_13 1_555 1_555
H66_13 C133_13 1_555 1_555
C138_13 C127_13 1_555 1_555
C141_13 C130_13 1_555 1_555
C144_13 C133_13 1_555 1_555
H71_13 C138_13 1_555 1_555
H74_13 C141_13 1_555 1_555
H77_13 C144_13 1_555 1_555
H82_13 C138_13 1_555 1_555
H85_13 C141_13 1_555 1_555
H88_13 C144_13 1_555 1_555
H93_13 C138_13 1_555 1_555
H96_13 C141_13 1_555 1_555
H99_13 C144_13 1_555 1_555
C149_13 C94_13 1_555 1_555
C152_13 C97_13 1_555 1_555
C155_13 C100_13 1_555 1_555
H104_13 C149_13 1_555 1_555
H107_13 C152_13 1_555 1_555
H110_13 C155_13 1_555 1_555
H115_13 C149_13 1_555 1_555
H118_13 C152_13 1_555 1_555
H121_13 C155_13 1_555 1_555
C160_13 C149_13 1_555 1_555
C163_13 C152_13 1_555 1_555
C166_13 C155_13 1_555 1_555
H126_13 C160_13 1_555 1_555
H129_13 C163_13 1_555 1_555
H132_13 C166_13 1_555 1_555
H137_13 C160_13 1_555 1_555
H140_13 C163_13 1_555 1_555
H143_13 C166_13 1_555 1_555
H148_13 C160_13 1_555 1_555
H151_13 C163_13 1_555 1_555
H154_13 C166_13 1_555 1_555
O4_16 Cd11_4 1_555 1_555
Cd9_8 O26_13 1_555 1_555
Cd17_4 O29_13 1_555 1_555
O26_13 C15_13 1_555 1_555
C72_13 C81_13 1_555 1_555
C75_13 C86_13 1_555 1_555
C78_13 C89_13 1_555 1_555
C105_13 C116_13 1_555 1_555
C105_13 C119_13 1_555 1_555
C108_13 C116_13 1_555 1_555
C108_13 C122_13 1_555 1_555
C111_13 C119_13 1_555 1_555
C111_13 C122_13 1_555 1_555
O4_17 Cd10_7 1_555 1_555
Cd12_7 O4_17 1_555 1_555
Cd9_9 O4_17 1_555 1_555
O5_13 Cd10_7 1_555 1_555
O6_13 Cd9_9 1_555 1_555
O9_13 Cd11_5 1_555 1_555
O11_8 Cd12_7 1_555 1_555
O5_10 C24_8 1_555 1_555
O6_5 C25_8 1_555 1_555
O21_8 Cd10_7 1_555 1_555
O22_13 Cd10_7 1_555 1_555
O24_13 Cd11_5 1_555 1_555
O25_13 Cd12_7 1_555 1_555
C17_8 O11_8 1_555 1_555
C24_8 O22_10 1_555 1_555
C25_8 O25_5 1_555 1_555
C28_8 C17_8 1_555 1_555
C35_8 C24_8 1_555 1_555
C36_8 C25_8 1_555 1_555
C39_8 C28_8 1_555 1_555
C46_8 C35_8 1_555 1_555
C47_8 C36_8 1_555 1_555
H16_8 C39_8 1_555 1_555
H23_8 C46_8 1_555 1_555
H24_8 C47_8 1_555 1_555
C52_8 C39_8 1_555 1_555
C57_8 C46_8 1_555 1_555
C58_8 C47_8 1_555 1_555
C63_8 C52_8 1_555 1_555
C66_8 C58_8 1_555 1_555
C69_8 C57_8 1_555 1_555
C74_8 C63_8 1_555 1_555
C77_8 C66_8 1_555 1_555
C80_8 C69_8 1_555 1_555
H29_8 C74_8 1_555 1_555
H32_8 C77_8 1_555 1_555
H35_8 C80_8 1_555 1_555
C83_8 C28_8 1_555 1_555
C88_8 C36_8 1_555 1_555
C91_8 C35_8 1_555 1_555
H38_8 C83_8 1_555 1_555
H43_8 C88_8 1_555 1_555
H46_8 C91_8 1_555 1_555
C96_8 C52_8 1_555 1_555
C99_8 C57_8 1_555 1_555
C102_8 C58_8 1_555 1_555
C107_8 C96_8 1_555 1_555
C110_8 C99_8 1_555 1_555
C113_8 C102_8 1_555 1_555
C118_8 C63_8 1_555 1_555
C121_8 C66_8 1_555 1_555
C124_8 C69_8 1_555 1_555
C129_8 C96_8 1_555 1_555
C132_8 C99_8 1_555 1_555
C135_8 C102_8 1_555 1_555
H51_8 C129_8 1_555 1_555
H54_8 C132_8 1_555 1_555
H57_8 C135_8 1_555 1_555
H62_8 C129_8 1_555 1_555
H65_8 C132_8 1_555 1_555
H68_8 C135_8 1_555 1_555
C140_8 C129_8 1_555 1_555
C143_8 C132_8 1_555 1_555
C146_8 C135_8 1_555 1_555
H73_8 C140_8 1_555 1_555
H76_8 C143_8 1_555 1_555
H79_8 C146_8 1_555 1_555
H84_8 C140_8 1_555 1_555
H87_8 C143_8 1_555 1_555
H90_8 C146_8 1_555 1_555
H95_8 C140_8 1_555 1_555
H98_8 C143_8 1_555 1_555
H101_8 C146_8 1_555 1_555
C151_8 C96_8 1_555 1_555
C154_8 C99_8 1_555 1_555
C157_8 C102_8 1_555 1_555
H106_8 C151_8 1_555 1_555
H109_8 C154_8 1_555 1_555
H112_8 C157_8 1_555 1_555
H117_8 C151_8 1_555 1_555
H120_8 C154_8 1_555 1_555
H123_8 C157_8 1_555 1_555
C162_8 C151_8 1_555 1_555
C165_8 C154_8 1_555 1_555
C168_8 C157_8 1_555 1_555
H128_8 C162_8 1_555 1_555
H131_8 C165_8 1_555 1_555
H134_8 C168_8 1_555 1_555
H139_8 C162_8 1_555 1_555
H142_8 C165_8 1_555 1_555
H145_8 C168_8 1_555 1_555
H150_8 C162_8 1_555 1_555
H153_8 C165_8 1_555 1_555
H156_8 C168_8 1_555 1_555
O4_17 Cd11_5 1_555 1_555
Cd12_7 O21_8 1_555 1_555
Cd11_5 O22_13 1_555 1_555
Cd9_9 O24_13 1_555 1_555
Cd9_9 O25_13 1_555 1_555
O21_8 C17_8 1_555 1_555
C74_8 C83_8 1_555 1_555
C77_8 C88_8 1_555 1_555
C80_8 C91_8 1_555 1_555
C107_8 C118_8 1_555 1_555
C107_8 C121_8 1_555 1_555
C110_8 C118_8 1_555 1_555
C110_8 C124_8 1_555 1_555
C113_8 C121_8 1_555 1_555
C113_8 C124_8 1_555 1_555
O10_6 C1_9 1_555 1_555
C1_9 O20_6 1_555 1_555
C2_9 C1_9 1_555 1_555
C3_9 C2_9 1_555 1_555
H1_9 C3_9 1_555 1_555
C4_9 C3_9 1_555 1_555
C5_9 C4_9 1_555 1_555
C6_9 C5_9 1_555 1_555
H2_9 C6_9 1_555 1_555
C7_9 C2_9 1_555 1_555
H3_9 C7_9 1_555 1_555
C8_9 C4_9 1_555 1_555
C9_9 C8_9 1_555 1_555
C10_9 C5_9 1_555 1_555
C11_9 C8_9 1_555 1_555
H4_9 C11_9 1_555 1_555
H5_9 C11_9 1_555 1_555
C12_9 C11_9 1_555 1_555
H6_9 C12_9 1_555 1_555
H7_9 C12_9 1_555 1_555
H8_9 C12_9 1_555 1_555
C13_9 C8_9 1_555 1_555
H9_9 C13_9 1_555 1_555
H10_9 C13_9 1_555 1_555
C14_9 C13_9 1_555 1_555
H11_9 C14_9 1_555 1_555
H12_9 C14_9 1_555 1_555
H13_9 C14_9 1_555 1_555
Cd12_4 O18_8 1_555 1_555
Cd10_4 O33_8 1_555 1_555
Cd9 O19_8 1_555 1_555
Cd5 O34_8 1_555 1_555
O10_8 C18_9 1_555 1_555
O10_12 C19_9 1_555 1_555
O18_8 C24_9 1_555 1_555
O19_8 C25_9 1_555 1_555
O33_8 Cd12_4 1_555 1_555
O34_8 Cd9 1_555 1_555
C17_9 O6_6 1_555 1_555
C18_9 O20_8 1_555 1_555
C19_9 O20_12 1_555 1_555
C24_9 O33_8 1_555 1_555
C25_9 O34_8 1_555 1_555
C28_9 C17_9 1_555 1_555
C29_9 C18_9 1_555 1_555
C30_9 C19_9 1_555 1_555
C35_9 C24_9 1_555 1_555
C36_9 C25_9 1_555 1_555
C39_9 C28_9 1_555 1_555
C40_9 C29_9 1_555 1_555
C41_9 C30_9 1_555 1_555
C46_9 C35_9 1_555 1_555
C47_9 C36_9 1_555 1_555
H16_9 C39_9 1_555 1_555
H17_9 C40_9 1_555 1_555
H18_9 C41_9 1_555 1_555
H23_9 C46_9 1_555 1_555
H24_9 C47_9 1_555 1_555
C48_9 C40_9 1_555 1_555
C49_9 C41_9 1_555 1_555
C52_9 C39_9 1_555 1_555
C57_9 C46_9 1_555 1_555
C58_9 C47_9 1_555 1_555
C59_9 C48_9 1_555 1_555
C60_9 C49_9 1_555 1_555
C63_9 C52_9 1_555 1_555
C66_9 C58_9 1_555 1_555
C69_9 C57_9 1_555 1_555
C70_9 C59_9 1_555 1_555
C71_9 C60_9 1_555 1_555
C74_9 C63_9 1_555 1_555
C77_9 C66_9 1_555 1_555
C80_9 C69_9 1_555 1_555
H25_9 C70_9 1_555 1_555
H26_9 C71_9 1_555 1_555
H29_9 C74_9 1_555 1_555
H32_9 C77_9 1_555 1_555
H35_9 C80_9 1_555 1_555
C83_9 C28_9 1_555 1_555
C84_9 C29_9 1_555 1_555
C85_9 C30_9 1_555 1_555
C88_9 C36_9 1_555 1_555
C91_9 C35_9 1_555 1_555
H38_9 C83_9 1_555 1_555
H39_9 C84_9 1_555 1_555
H40_9 C85_9 1_555 1_555
H43_9 C88_9 1_555 1_555
H46_9 C91_9 1_555 1_555
C92_9 C49_9 1_555 1_555
C93_9 C48_9 1_555 1_555
C96_9 C52_9 1_555 1_555
C99_9 C57_9 1_555 1_555
C102_9 C58_9 1_555 1_555
C103_9 C10_9 1_555 1_555
C104_9 C93_9 1_555 1_555
C107_9 C96_9 1_555 1_555
C110_9 C99_9 1_555 1_555
C113_9 C102_9 1_555 1_555
C114_9 C9_9 1_555 1_555
C115_9 C60_9 1_555 1_555
C118_9 C63_9 1_555 1_555
C121_9 C66_9 1_555 1_555
C124_9 C69_9 1_555 1_555
C125_9 C92_9 1_555 1_555
C126_9 C93_9 1_555 1_555
C129_9 C96_9 1_555 1_555
C132_9 C99_9 1_555 1_555
C135_9 C102_9 1_555 1_555
H47_9 C125_9 1_555 1_555
H48_9 C126_9 1_555 1_555
H51_9 C129_9 1_555 1_555
H54_9 C132_9 1_555 1_555
H57_9 C135_9 1_555 1_555
H58_9 C125_9 1_555 1_555
H59_9 C126_9 1_555 1_555
H62_9 C129_9 1_555 1_555
H65_9 C132_9 1_555 1_555
H68_9 C135_9 1_555 1_555
C136_9 C125_9 1_555 1_555
C137_9 C126_9 1_555 1_555
C140_9 C129_9 1_555 1_555
C143_9 C132_9 1_555 1_555
C146_9 C135_9 1_555 1_555
H69_9 C136_9 1_555 1_555
H70_9 C137_9 1_555 1_555
H73_9 C140_9 1_555 1_555
H76_9 C143_9 1_555 1_555
H79_9 C146_9 1_555 1_555
H80_9 C136_9 1_555 1_555
H81_9 C137_9 1_555 1_555
H84_9 C140_9 1_555 1_555
H87_9 C143_9 1_555 1_555
H90_9 C146_9 1_555 1_555
H91_9 C136_9 1_555 1_555
H92_9 C137_9 1_555 1_555
H95_9 C140_9 1_555 1_555
H98_9 C143_9 1_555 1_555
H101_9 C146_9 1_555 1_555
C147_9 C92_9 1_555 1_555
C148_9 C93_9 1_555 1_555
C151_9 C96_9 1_555 1_555
C154_9 C99_9 1_555 1_555
C157_9 C102_9 1_555 1_555
H102_9 C147_9 1_555 1_555
H103_9 C148_9 1_555 1_555
H106_9 C151_9 1_555 1_555
H109_9 C154_9 1_555 1_555
H112_9 C157_9 1_555 1_555
H113_9 C147_9 1_555 1_555
H114_9 C148_9 1_555 1_555
H117_9 C151_9 1_555 1_555
H120_9 C154_9 1_555 1_555
H123_9 C157_9 1_555 1_555
C158_9 C147_9 1_555 1_555
C159_9 C148_9 1_555 1_555
C162_9 C151_9 1_555 1_555
C165_9 C154_9 1_555 1_555
C168_9 C157_9 1_555 1_555
H124_9 C158_9 1_555 1_555
H125_9 C159_9 1_555 1_555
H128_9 C162_9 1_555 1_555
H131_9 C165_9 1_555 1_555
H134_9 C168_9 1_555 1_555
H135_9 C158_9 1_555 1_555
H136_9 C159_9 1_555 1_555
H139_9 C162_9 1_555 1_555
H142_9 C165_9 1_555 1_555
H145_9 C168_9 1_555 1_555
H146_9 C158_9 1_555 1_555
H147_9 C159_9 1_555 1_555
H150_9 C162_9 1_555 1_555
H153_9 C165_9 1_555 1_555
H156_9 C168_9 1_555 1_555
C6_9 C7_9 1_555 1_555
C9_9 C10_9 1_555 1_555
O25_6 C17_9 1_555 1_555
C59_9 C114_9 1_555 1_555
C70_9 C84_9 1_555 1_555
C71_9 C85_9 1_555 1_555
C74_9 C83_9 1_555 1_555
C77_9 C88_9 1_555 1_555
C80_9 C91_9 1_555 1_555
C92_9 C103_9 1_555 1_555
C103_9 C115_9 1_555 1_555
C104_9 C114_9 1_555 1_555
C104_9 C115_9 1_555 1_555
C107_9 C118_9 1_555 1_555
C107_9 C121_9 1_555 1_555
C110_9 C118_9 1_555 1_555
C110_9 C124_9 1_555 1_555
C113_9 C121_9 1_555 1_555
C113_9 C124_9 1_555 1_555
Cd10 O18_9 1_555 1_555
Cd11 O33_9 1_555 1_555
Cd12_2 O19_9 1_555 1_555
Cd10_2 O34_9 1_555 1_555
O18_9 C24_10 1_555 1_555
O19_9 C25_10 1_555 1_555
O33_9 Cd10 1_555 1_555
O34_9 Cd12_2 1_555 1_555
C17_10 O5_12 1_555 1_555
C24_10 O33_9 1_555 1_555
C25_10 O34_9 1_555 1_555
C28_10 C17_10 1_555 1_555
C35_10 C24_10 1_555 1_555
C36_10 C25_10 1_555 1_555
C39_10 C28_10 1_555 1_555
C46_10 C35_10 1_555 1_555
C47_10 C36_10 1_555 1_555
H16_10 C39_10 1_555 1_555
H23_10 C46_10 1_555 1_555
H24_10 C47_10 1_555 1_555
C52_10 C39_10 1_555 1_555
C57_10 C46_10 1_555 1_555
C58_10 C47_10 1_555 1_555
C63_10 C52_10 1_555 1_555
C66_10 C58_10 1_555 1_555
C69_10 C57_10 1_555 1_555
C74_10 C63_10 1_555 1_555
C77_10 C66_10 1_555 1_555
C80_10 C69_10 1_555 1_555
H29_10 C74_10 1_555 1_555
H32_10 C77_10 1_555 1_555
H35_10 C80_10 1_555 1_555
C83_10 C28_10 1_555 1_555
C88_10 C36_10 1_555 1_555
C91_10 C35_10 1_555 1_555
H38_10 C83_10 1_555 1_555
H43_10 C88_10 1_555 1_555
H46_10 C91_10 1_555 1_555
C96_10 C52_10 1_555 1_555
C99_10 C57_10 1_555 1_555
C102_10 C58_10 1_555 1_555
C107_10 C96_10 1_555 1_555
C110_10 C99_10 1_555 1_555
C113_10 C102_10 1_555 1_555
C118_10 C63_10 1_555 1_555
C121_10 C66_10 1_555 1_555
C124_10 C69_10 1_555 1_555
C129_10 C96_10 1_555 1_555
C132_10 C99_10 1_555 1_555
C135_10 C102_10 1_555 1_555
H51_10 C129_10 1_555 1_555
H54_10 C132_10 1_555 1_555
H57_10 C135_10 1_555 1_555
H62_10 C129_10 1_555 1_555
H65_10 C132_10 1_555 1_555
H68_10 C135_10 1_555 1_555
C140_10 C129_10 1_555 1_555
C143_10 C132_10 1_555 1_555
C146_10 C135_10 1_555 1_555
H73_10 C140_10 1_555 1_555
H76_10 C143_10 1_555 1_555
H79_10 C146_10 1_555 1_555
H84_10 C140_10 1_555 1_555
H87_10 C143_10 1_555 1_555
H90_10 C146_10 1_555 1_555
H95_10 C140_10 1_555 1_555
H98_10 C143_10 1_555 1_555
H101_10 C146_10 1_555 1_555
C151_10 C96_10 1_555 1_555
C154_10 C99_10 1_555 1_555
C157_10 C102_10 1_555 1_555
H106_10 C151_10 1_555 1_555
H109_10 C154_10 1_555 1_555
H112_10 C157_10 1_555 1_555
H117_10 C151_10 1_555 1_555
H120_10 C154_10 1_555 1_555
H123_10 C157_10 1_555 1_555
C162_10 C151_10 1_555 1_555
C165_10 C154_10 1_555 1_555
C168_10 C157_10 1_555 1_555
H128_10 C162_10 1_555 1_555
H131_10 C165_10 1_555 1_555
H134_10 C168_10 1_555 1_555
H139_10 C162_10 1_555 1_555
H142_10 C165_10 1_555 1_555
H145_10 C168_10 1_555 1_555
H150_10 C162_10 1_555 1_555
H153_10 C165_10 1_555 1_555
H156_10 C168_10 1_555 1_555
O22_12 C17_10 1_555 1_555
C74_10 C83_10 1_555 1_555
C77_10 C88_10 1_555 1_555
C80_10 C91_10 1_555 1_555
C107_10 C118_10 1_555 1_555
C107_10 C121_10 1_555 1_555
C110_10 C118_10 1_555 1_555
C110_10 C124_10 1_555 1_555
C113_10 C121_10 1_555 1_555
C113_10 C124_10 1_555 1_555
O4_18 Cd5_13 1_555 1_555
Cd9_6 O4_18 1_555 1_555
Cd11_8 O4_18 1_555 1_555
Cd17_6 O16_5 1_555 1_555
Cd15_2 O17_5 1_555 1_555
Cd16_2 O32_5 1_555 1_555
O7_5 Cd11_8 1_555 1_555
O16_5 C22_5 1_555 1_555
O17_5 C23_5 1_555 1_555
O23_5 Cd9_6 1_555 1_555
O31_5 Cd18_6 1_555 1_555
O32_5 Cd15_2 1_555 1_555
C16_5 O7_5 1_555 1_555
C22_5 O31_5 1_555 1_555
C23_5 O32_5 1_555 1_555
C27_5 C16_5 1_555 1_555
C33_5 C22_5 1_555 1_555
C34_5 C23_5 1_555 1_555
C38_5 C27_5 1_555 1_555
C44_5 C33_5 1_555 1_555
C45_5 C34_5 1_555 1_555
H15_5 C38_5 1_555 1_555
H21_5 C44_5 1_555 1_555
H22_5 C45_5 1_555 1_555
C51_5 C38_5 1_555 1_555
C55_5 C44_5 1_555 1_555
C56_5 C45_5 1_555 1_555
C62_5 C51_5 1_555 1_555
C65_5 C56_5 1_555 1_555
C68_5 C55_5 1_555 1_555
C73_5 C62_5 1_555 1_555
C76_5 C65_5 1_555 1_555
C79_5 C68_5 1_555 1_555
H28_5 C73_5 1_555 1_555
H31_5 C76_5 1_555 1_555
H34_5 C79_5 1_555 1_555
C82_5 C27_5 1_555 1_555
C87_5 C34_5 1_555 1_555
C90_5 C33_5 1_555 1_555
H37_5 C82_5 1_555 1_555
H42_5 C87_5 1_555 1_555
H45_5 C90_5 1_555 1_555
C95_5 C51_5 1_555 1_555
C98_5 C55_5 1_555 1_555
C101_5 C56_5 1_555 1_555
C106_5 C95_5 1_555 1_555
C109_5 C98_5 1_555 1_555
C112_5 C101_5 1_555 1_555
C117_5 C62_5 1_555 1_555
C120_5 C65_5 1_555 1_555
C123_5 C68_5 1_555 1_555
C128_5 C95_5 1_555 1_555
C131_5 C98_5 1_555 1_555
C134_5 C101_5 1_555 1_555
H50_5 C128_5 1_555 1_555
H53_5 C131_5 1_555 1_555
H56_5 C134_5 1_555 1_555
H61_5 C128_5 1_555 1_555
H64_5 C131_5 1_555 1_555
H67_5 C134_5 1_555 1_555
C139_5 C128_5 1_555 1_555
C142_5 C131_5 1_555 1_555
C145_5 C134_5 1_555 1_555
H72_5 C139_5 1_555 1_555
H75_5 C142_5 1_555 1_555
H78_5 C145_5 1_555 1_555
H83_5 C139_5 1_555 1_555
H86_5 C142_5 1_555 1_555
H89_5 C145_5 1_555 1_555
H94_5 C139_5 1_555 1_555
H97_5 C142_5 1_555 1_555
H100_5 C145_5 1_555 1_555
C150_5 C95_5 1_555 1_555
C153_5 C98_5 1_555 1_555
C156_5 C101_5 1_555 1_555
H105_5 C150_5 1_555 1_555
H108_5 C153_5 1_555 1_555
H111_5 C156_5 1_555 1_555
H116_5 C150_5 1_555 1_555
H119_5 C153_5 1_555 1_555
H122_5 C156_5 1_555 1_555
C161_5 C150_5 1_555 1_555
C164_5 C153_5 1_555 1_555
C167_5 C156_5 1_555 1_555
H127_5 C161_5 1_555 1_555
H130_5 C164_5 1_555 1_555
H133_5 C167_5 1_555 1_555
H138_5 C161_5 1_555 1_555
H141_5 C164_5 1_555 1_555
H144_5 C167_5 1_555 1_555
H149_5 C161_5 1_555 1_555
H152_5 C164_5 1_555 1_555
H155_5 C167_5 1_555 1_555
O4_18 Cd6_13 1_555 1_555
Cd11_8 O23_5 1_555 1_555
Cd17_6 O31_5 1_555 1_555
O23_5 C16_5 1_555 1_555
C73_5 C82_5 1_555 1_555
C76_5 C87_5 1_555 1_555
C79_5 C90_5 1_555 1_555
C106_5 C117_5 1_555 1_555
C106_5 C120_5 1_555 1_555
C109_5 C117_5 1_555 1_555
C109_5 C123_5 1_555 1_555
C112_5 C120_5 1_555 1_555
C112_5 C123_5 1_555 1_555
O4_19 Cd5_14 1_555 1_555
Cd9_7 O4_19 1_555 1_555
Cd11_9 O4_19 1_555 1_555
Cd6_4 O18_10 1_555 1_555
Cd11_7 O33_10 1_555 1_555
O5_14 Cd5_14 1_555 1_555
O6_14 Cd11_9 1_555 1_555
O9_14 Cd6_14 1_555 1_555
O11_9 Cd9_7 1_555 1_555
O18_10 C24_11 1_555 1_555
O9_8 C25_11 1_555 1_555
O21_9 Cd5_14 1_555 1_555
O22_14 Cd5_14 1_555 1_555
O24_14 Cd6_14 1_555 1_555
O25_14 Cd9_7 1_555 1_555
O33_10 Cd6_4 1_555 1_555
C17_11 O11_9 1_555 1_555
C24_11 O33_10 1_555 1_555
C25_11 O24_8 1_555 1_555
C28_11 C17_11 1_555 1_555
C35_11 C24_11 1_555 1_555
C36_11 C25_11 1_555 1_555
C39_11 C28_11 1_555 1_555
C46_11 C35_11 1_555 1_555
C47_11 C36_11 1_555 1_555
H16_11 C39_11 1_555 1_555
H23_11 C46_11 1_555 1_555
H24_11 C47_11 1_555 1_555
C52_11 C39_11 1_555 1_555
C57_11 C46_11 1_555 1_555
C58_11 C47_11 1_555 1_555
C63_11 C52_11 1_555 1_555
C66_11 C58_11 1_555 1_555
C69_11 C57_11 1_555 1_555
C74_11 C63_11 1_555 1_555
C77_11 C66_11 1_555 1_555
C80_11 C69_11 1_555 1_555
H29_11 C74_11 1_555 1_555
H32_11 C77_11 1_555 1_555
H35_11 C80_11 1_555 1_555
C83_11 C28_11 1_555 1_555
C88_11 C36_11 1_555 1_555
C91_11 C35_11 1_555 1_555
H38_11 C83_11 1_555 1_555
H43_11 C88_11 1_555 1_555
H46_11 C91_11 1_555 1_555
C96_11 C52_11 1_555 1_555
C99_11 C57_11 1_555 1_555
C102_11 C58_11 1_555 1_555
C107_11 C96_11 1_555 1_555
C110_11 C99_11 1_555 1_555
C113_11 C102_11 1_555 1_555
C118_11 C63_11 1_555 1_555
C121_11 C66_11 1_555 1_555
C124_11 C69_11 1_555 1_555
C129_11 C96_11 1_555 1_555
C132_11 C99_11 1_555 1_555
C135_11 C102_11 1_555 1_555
H51_11 C129_11 1_555 1_555
H54_11 C132_11 1_555 1_555
H57_11 C135_11 1_555 1_555
H62_11 C129_11 1_555 1_555
H65_11 C132_11 1_555 1_555
H68_11 C135_11 1_555 1_555
C140_11 C129_11 1_555 1_555
C143_11 C132_11 1_555 1_555
C146_11 C135_11 1_555 1_555
H73_11 C140_11 1_555 1_555
H76_11 C143_11 1_555 1_555
H79_11 C146_11 1_555 1_555
H84_11 C140_11 1_555 1_555
H87_11 C143_11 1_555 1_555
H90_11 C146_11 1_555 1_555
H95_11 C140_11 1_555 1_555
H98_11 C143_11 1_555 1_555
H101_11 C146_11 1_555 1_555
C151_11 C96_11 1_555 1_555
C154_11 C99_11 1_555 1_555
C157_11 C102_11 1_555 1_555
H106_11 C151_11 1_555 1_555
H109_11 C154_11 1_555 1_555
H112_11 C157_11 1_555 1_555
H117_11 C151_11 1_555 1_555
H120_11 C154_11 1_555 1_555
H123_11 C157_11 1_555 1_555
C162_11 C151_11 1_555 1_555
C165_11 C154_11 1_555 1_555
C168_11 C157_11 1_555 1_555
H128_11 C162_11 1_555 1_555
H131_11 C165_11 1_555 1_555
H134_11 C168_11 1_555 1_555
H139_11 C162_11 1_555 1_555
H142_11 C165_11 1_555 1_555
H145_11 C168_11 1_555 1_555
H150_11 C162_11 1_555 1_555
H153_11 C165_11 1_555 1_555
H156_11 C168_11 1_555 1_555
O4_19 Cd6_14 1_555 1_555
Cd9_7 O21_9 1_555 1_555
Cd6_14 O22_14 1_555 1_555
Cd11_9 O24_14 1_555 1_555
Cd11_9 O25_14 1_555 1_555
O21_9 C17_11 1_555 1_555
C74_11 C83_11 1_555 1_555
C77_11 C88_11 1_555 1_555
C80_11 C91_11 1_555 1_555
C107_11 C118_11 1_555 1_555
C107_11 C121_11 1_555 1_555
C110_11 C118_11 1_555 1_555
C110_11 C124_11 1_555 1_555
C113_11 C121_11 1_555 1_555
C113_11 C124_11 1_555 1_555
O4_20 Cd5_9 1_555 1_555
Cd18 O4_20 1_555 1_555
Cd17 O4_20 1_555 1_555
Cd6_5 O18_11 1_555 1_555
Cd15 O33_11 1_555 1_555
Cd5_2 O19_10 1_555 1_555
Cd6_2 O34_10 1_555 1_555
O5_15 Cd5_9 1_555 1_555
O9_15 Cd6_9 1_555 1_555
O11_10 Cd18 1_555 1_555
O18_11 C24_12 1_555 1_555
O19_10 C25_12 1_555 1_555
O21_10 Cd5_9 1_555 1_555
O22_15 Cd5_9 1_555 1_555
O24_15 Cd6_9 1_555 1_555
O33_11 Cd6_5 1_555 1_555
O34_10 Cd5_2 1_555 1_555
C17_12 O11_10 1_555 1_555
C24_12 O33_11 1_555 1_555
C25_12 O34_10 1_555 1_555
C28_12 C17_12 1_555 1_555
C35_12 C24_12 1_555 1_555
C36_12 C25_12 1_555 1_555
C39_12 C28_12 1_555 1_555
C46_12 C35_12 1_555 1_555
C47_12 C36_12 1_555 1_555
H16_12 C39_12 1_555 1_555
H23_12 C46_12 1_555 1_555
H24_12 C47_12 1_555 1_555
C52_12 C39_12 1_555 1_555
C57_12 C46_12 1_555 1_555
C58_12 C47_12 1_555 1_555
C63_12 C52_12 1_555 1_555
C66_12 C58_12 1_555 1_555
C69_12 C57_12 1_555 1_555
C74_12 C63_12 1_555 1_555
C77_12 C66_12 1_555 1_555
C80_12 C69_12 1_555 1_555
H29_12 C74_12 1_555 1_555
H32_12 C77_12 1_555 1_555
H35_12 C80_12 1_555 1_555
C83_12 C28_12 1_555 1_555
C88_12 C36_12 1_555 1_555
C91_12 C35_12 1_555 1_555
H38_12 C83_12 1_555 1_555
H43_12 C88_12 1_555 1_555
H46_12 C91_12 1_555 1_555
C96_12 C52_12 1_555 1_555
C99_12 C57_12 1_555 1_555
C102_12 C58_12 1_555 1_555
C107_12 C96_12 1_555 1_555
C110_12 C99_12 1_555 1_555
C113_12 C102_12 1_555 1_555
C118_12 C63_12 1_555 1_555
C121_12 C66_12 1_555 1_555
C124_12 C69_12 1_555 1_555
C129_12 C96_12 1_555 1_555
C132_12 C99_12 1_555 1_555
C135_12 C102_12 1_555 1_555
H51_12 C129_12 1_555 1_555
H54_12 C132_12 1_555 1_555
H57_12 C135_12 1_555 1_555
H62_12 C129_12 1_555 1_555
H65_12 C132_12 1_555 1_555
H68_12 C135_12 1_555 1_555
C140_12 C129_12 1_555 1_555
C143_12 C132_12 1_555 1_555
C146_12 C135_12 1_555 1_555
H73_12 C140_12 1_555 1_555
H76_12 C143_12 1_555 1_555
H79_12 C146_12 1_555 1_555
H84_12 C140_12 1_555 1_555
H87_12 C143_12 1_555 1_555
H90_12 C146_12 1_555 1_555
H95_12 C140_12 1_555 1_555
H98_12 C143_12 1_555 1_555
H101_12 C146_12 1_555 1_555
C151_12 C96_12 1_555 1_555
C154_12 C99_12 1_555 1_555
C157_12 C102_12 1_555 1_555
H106_12 C151_12 1_555 1_555
H109_12 C154_12 1_555 1_555
H112_12 C157_12 1_555 1_555
H117_12 C151_12 1_555 1_555
H120_12 C154_12 1_555 1_555
H123_12 C157_12 1_555 1_555
C162_12 C151_12 1_555 1_555
C165_12 C154_12 1_555 1_555
C168_12 C157_12 1_555 1_555
H128_12 C162_12 1_555 1_555
H131_12 C165_12 1_555 1_555
H134_12 C168_12 1_555 1_555
H139_12 C162_12 1_555 1_555
H142_12 C165_12 1_555 1_555
H145_12 C168_12 1_555 1_555
H150_12 C162_12 1_555 1_555
H153_12 C165_12 1_555 1_555
H156_12 C168_12 1_555 1_555
O4_20 Cd6_9 1_555 1_555
Cd18 O21_10 1_555 1_555
Cd6_9 O22_15 1_555 1_555
Cd17 O24_15 1_555 1_555
O21_10 C17_12 1_555 1_555
C74_12 C83_12 1_555 1_555
C77_12 C88_12 1_555 1_555
C80_12 C91_12 1_555 1_555
C107_12 C118_12 1_555 1_555
C107_12 C121_12 1_555 1_555
C110_12 C118_12 1_555 1_555
C110_12 C124_12 1_555 1_555
C113_12 C121_12 1_555 1_555
C113_12 C124_12 1_555 1_555
O4_21 Cd5_10 1_555 1_555
Cd18_2 O4_21 1_555 1_555
Cd17_2 O4_21 1_555 1_555
Cd15_4 O16_6 1_555 1_555
Cd11_6 O17_6 1_555 1_555
Cd9_4 O32_6 1_555 1_555
O7_6 Cd17_2 1_555 1_555
O16_6 C22_6 1_555 1_555
O17_6 C23_6 1_555 1_555
O23_6 Cd18_2 1_555 1_555
O31_6 Cd16_4 1_555 1_555
O32_6 Cd11_6 1_555 1_555
C16_6 O7_6 1_555 1_555
C22_6 O31_6 1_555 1_555
C23_6 O32_6 1_555 1_555
C27_6 C16_6 1_555 1_555
C33_6 C22_6 1_555 1_555
C34_6 C23_6 1_555 1_555
C38_6 C27_6 1_555 1_555
C44_6 C33_6 1_555 1_555
C45_6 C34_6 1_555 1_555
H15_6 C38_6 1_555 1_555
H21_6 C44_6 1_555 1_555
H22_6 C45_6 1_555 1_555
C51_6 C38_6 1_555 1_555
C55_6 C44_6 1_555 1_555
C56_6 C45_6 1_555 1_555
C62_6 C51_6 1_555 1_555
C65_6 C56_6 1_555 1_555
C68_6 C55_6 1_555 1_555
C73_6 C62_6 1_555 1_555
C76_6 C65_6 1_555 1_555
C79_6 C68_6 1_555 1_555
H28_6 C73_6 1_555 1_555
H31_6 C76_6 1_555 1_555
H34_6 C79_6 1_555 1_555
C82_6 C27_6 1_555 1_555
C87_6 C34_6 1_555 1_555
C90_6 C33_6 1_555 1_555
H37_6 C82_6 1_555 1_555
H42_6 C87_6 1_555 1_555
H45_6 C90_6 1_555 1_555
C95_6 C51_6 1_555 1_555
C98_6 C55_6 1_555 1_555
C101_6 C56_6 1_555 1_555
C106_6 C95_6 1_555 1_555
C109_6 C98_6 1_555 1_555
C112_6 C101_6 1_555 1_555
C117_6 C62_6 1_555 1_555
C120_6 C65_6 1_555 1_555
C123_6 C68_6 1_555 1_555
C128_6 C95_6 1_555 1_555
C131_6 C98_6 1_555 1_555
C134_6 C101_6 1_555 1_555
H50_6 C128_6 1_555 1_555
H53_6 C131_6 1_555 1_555
H56_6 C134_6 1_555 1_555
H61_6 C128_6 1_555 1_555
H64_6 C131_6 1_555 1_555
H67_6 C134_6 1_555 1_555
C139_6 C128_6 1_555 1_555
C142_6 C131_6 1_555 1_555
C145_6 C134_6 1_555 1_555
H72_6 C139_6 1_555 1_555
H75_6 C142_6 1_555 1_555
H78_6 C145_6 1_555 1_555
H83_6 C139_6 1_555 1_555
H86_6 C142_6 1_555 1_555
H89_6 C145_6 1_555 1_555
H94_6 C139_6 1_555 1_555
H97_6 C142_6 1_555 1_555
H100_6 C145_6 1_555 1_555
C150_6 C95_6 1_555 1_555
C153_6 C98_6 1_555 1_555
C156_6 C101_6 1_555 1_555
H105_6 C150_6 1_555 1_555
H108_6 C153_6 1_555 1_555
H111_6 C156_6 1_555 1_555
H116_6 C150_6 1_555 1_555
H119_6 C153_6 1_555 1_555
H122_6 C156_6 1_555 1_555
C161_6 C150_6 1_555 1_555
C164_6 C153_6 1_555 1_555
C167_6 C156_6 1_555 1_555
H127_6 C161_6 1_555 1_555
H130_6 C164_6 1_555 1_555
H133_6 C167_6 1_555 1_555
H138_6 C161_6 1_555 1_555
H141_6 C164_6 1_555 1_555
H144_6 C167_6 1_555 1_555
H149_6 C161_6 1_555 1_555
H152_6 C164_6 1_555 1_555
H155_6 C167_6 1_555 1_555
O4_21 Cd6_10 1_555 1_555
Cd17_2 O23_6 1_555 1_555
Cd15_4 O31_6 1_555 1_555
O23_6 C16_6 1_555 1_555
C73_6 C82_6 1_555 1_555
C76_6 C87_6 1_555 1_555
C79_6 C90_6 1_555 1_555
C106_6 C117_6 1_555 1_555
C106_6 C120_6 1_555 1_555
C109_6 C117_6 1_555 1_555
C109_6 C123_6 1_555 1_555
C112_6 C120_6 1_555 1_555
C112_6 C123_6 1_555 1_555
O10 C22_7 1_555 1_555
O10_3 C23_7 1_555 1_555
C16_7 O10_2 1_555 1_555
C22_7 O20 1_555 1_555
C23_7 O20_3 1_555 1_555
C27_7 C16_7 1_555 1_555
C33_7 C22_7 1_555 1_555
C34_7 C23_7 1_555 1_555
C38_7 C27_7 1_555 1_555
C44_7 C33_7 1_555 1_555
C45_7 C34_7 1_555 1_555
H15_7 C38_7 1_555 1_555
H21_7 C44_7 1_555 1_555
H22_7 C45_7 1_555 1_555
C51_7 C38_7 1_555 1_555
C55_7 C44_7 1_555 1_555
C56_7 C45_7 1_555 1_555
C62_7 C51_7 1_555 1_555
C65_7 C56_7 1_555 1_555
C68_7 C55_7 1_555 1_555
C73_7 C62_7 1_555 1_555
C76_7 C65_7 1_555 1_555
C79_7 C68_7 1_555 1_555
H28_7 C73_7 1_555 1_555
H31_7 C76_7 1_555 1_555
H34_7 C79_7 1_555 1_555
C82_7 C27_7 1_555 1_555
C87_7 C34_7 1_555 1_555
C90_7 C33_7 1_555 1_555
H37_7 C82_7 1_555 1_555
H42_7 C87_7 1_555 1_555
H45_7 C90_7 1_555 1_555
C95_7 C51_7 1_555 1_555
C98_7 C55_7 1_555 1_555
C101_7 C56_7 1_555 1_555
C106_7 C95_7 1_555 1_555
C109_7 C98_7 1_555 1_555
C112_7 C101_7 1_555 1_555
C117_7 C62_7 1_555 1_555
C120_7 C65_7 1_555 1_555
C123_7 C68_7 1_555 1_555
C128_7 C95_7 1_555 1_555
C131_7 C98_7 1_555 1_555
C134_7 C101_7 1_555 1_555
H50_7 C128_7 1_555 1_555
H53_7 C131_7 1_555 1_555
H56_7 C134_7 1_555 1_555
H61_7 C128_7 1_555 1_555
H64_7 C131_7 1_555 1_555
H67_7 C134_7 1_555 1_555
C139_7 C128_7 1_555 1_555
C142_7 C131_7 1_555 1_555
C145_7 C134_7 1_555 1_555
H72_7 C139_7 1_555 1_555
H75_7 C142_7 1_555 1_555
H78_7 C145_7 1_555 1_555
H83_7 C139_7 1_555 1_555
H86_7 C142_7 1_555 1_555
H89_7 C145_7 1_555 1_555
H94_7 C139_7 1_555 1_555
H97_7 C142_7 1_555 1_555
H100_7 C145_7 1_555 1_555
C150_7 C95_7 1_555 1_555
C153_7 C98_7 1_555 1_555
C156_7 C101_7 1_555 1_555
H105_7 C150_7 1_555 1_555
H108_7 C153_7 1_555 1_555
H111_7 C156_7 1_555 1_555
H116_7 C150_7 1_555 1_555
H119_7 C153_7 1_555 1_555
H122_7 C156_7 1_555 1_555
C161_7 C150_7 1_555 1_555
C164_7 C153_7 1_555 1_555
C167_7 C156_7 1_555 1_555
H127_7 C161_7 1_555 1_555
H130_7 C164_7 1_555 1_555
H133_7 C167_7 1_555 1_555
H138_7 C161_7 1_555 1_555
H141_7 C164_7 1_555 1_555
H144_7 C167_7 1_555 1_555
H149_7 C161_7 1_555 1_555
H152_7 C164_7 1_555 1_555
H155_7 C167_7 1_555 1_555
O20_2 C16_7 1_555 1_555
C73_7 C82_7 1_555 1_555
C76_7 C87_7 1_555 1_555
C79_7 C90_7 1_555 1_555
C106_7 C117_7 1_555 1_555
C106_7 C120_7 1_555 1_555
C109_7 C117_7 1_555 1_555
C109_7 C123_7 1_555 1_555
C112_7 C120_7 1_555 1_555
C112_7 C123_7 1_555 1_555
Cd6_7 O18_12 1_555 1_555
Cd17_3 O33_12 1_555 1_555
O18_12 C24_13 1_555 1_555
O9_7 C25_13 1_555 1_555
O33_12 Cd6_7 1_555 1_555
C17_13 O5_2 1_555 1_555
C24_13 O33_12 1_555 1_555
C25_13 O24_7 1_555 1_555
C28_13 C17_13 1_555 1_555
C35_13 C24_13 1_555 1_555
C36_13 C25_13 1_555 1_555
C39_13 C28_13 1_555 1_555
C46_13 C35_13 1_555 1_555
C47_13 C36_13 1_555 1_555
H16_13 C39_13 1_555 1_555
H23_13 C46_13 1_555 1_555
H24_13 C47_13 1_555 1_555
C52_13 C39_13 1_555 1_555
C57_13 C46_13 1_555 1_555
C58_13 C47_13 1_555 1_555
C63_13 C52_13 1_555 1_555
C66_13 C58_13 1_555 1_555
C69_13 C57_13 1_555 1_555
C74_13 C63_13 1_555 1_555
C77_13 C66_13 1_555 1_555
C80_13 C69_13 1_555 1_555
H29_13 C74_13 1_555 1_555
H32_13 C77_13 1_555 1_555
H35_13 C80_13 1_555 1_555
C83_13 C28_13 1_555 1_555
C88_13 C36_13 1_555 1_555
C91_13 C35_13 1_555 1_555
H38_13 C83_13 1_555 1_555
H43_13 C88_13 1_555 1_555
H46_13 C91_13 1_555 1_555
C96_13 C52_13 1_555 1_555
C99_13 C57_13 1_555 1_555
C102_13 C58_13 1_555 1_555
C107_13 C96_13 1_555 1_555
C110_13 C99_13 1_555 1_555
C113_13 C102_13 1_555 1_555
C118_13 C63_13 1_555 1_555
C121_13 C66_13 1_555 1_555
C124_13 C69_13 1_555 1_555
C129_13 C96_13 1_555 1_555
C132_13 C99_13 1_555 1_555
C135_13 C102_13 1_555 1_555
H51_13 C129_13 1_555 1_555
H54_13 C132_13 1_555 1_555
H57_13 C135_13 1_555 1_555
H62_13 C129_13 1_555 1_555
H65_13 C132_13 1_555 1_555
H68_13 C135_13 1_555 1_555
C140_13 C129_13 1_555 1_555
C143_13 C132_13 1_555 1_555
C146_13 C135_13 1_555 1_555
H73_13 C140_13 1_555 1_555
H76_13 C143_13 1_555 1_555
H79_13 C146_13 1_555 1_555
H84_13 C140_13 1_555 1_555
H87_13 C143_13 1_555 1_555
H90_13 C146_13 1_555 1_555
H95_13 C140_13 1_555 1_555
H98_13 C143_13 1_555 1_555
H101_13 C146_13 1_555 1_555
C151_13 C96_13 1_555 1_555
C154_13 C99_13 1_555 1_555
C157_13 C102_13 1_555 1_555
H106_13 C151_13 1_555 1_555
H109_13 C154_13 1_555 1_555
H112_13 C157_13 1_555 1_555
H117_13 C151_13 1_555 1_555
H120_13 C154_13 1_555 1_555
H123_13 C157_13 1_555 1_555
C162_13 C151_13 1_555 1_555
C165_13 C154_13 1_555 1_555
C168_13 C157_13 1_555 1_555
H128_13 C162_13 1_555 1_555
H131_13 C165_13 1_555 1_555
H134_13 C168_13 1_555 1_555
H139_13 C162_13 1_555 1_555
H142_13 C165_13 1_555 1_555
H145_13 C168_13 1_555 1_555
H150_13 C162_13 1_555 1_555
H153_13 C165_13 1_555 1_555
H156_13 C168_13 1_555 1_555
O22_2 C17_13 1_555 1_555
C74_13 C83_13 1_555 1_555
C77_13 C88_13 1_555 1_555
C80_13 C91_13 1_555 1_555
C107_13 C118_13 1_555 1_555
C107_13 C121_13 1_555 1_555
C110_13 C118_13 1_555 1_555
C110_13 C124_13 1_555 1_555
C113_13 C121_13 1_555 1_555
C113_13 C124_13 1_555 1_555
Cd16_5 O18_13 1_555 1_555
Cd5_11 O33_13 1_555 1_555
O10_5 C20_14 1_555 1_555
O10_11 C21_14 1_555 1_555
O18_13 C24_14 1_555 1_555
O6_3 C25_14 1_555 1_555
O33_13 Cd16_5 1_555 1_555
C15_14 O10_9 1_555 1_555
C17_14 O9_9 1_555 1_555
C20_14 O20_5 1_555 1_555
C21_14 O20_11 1_555 1_555
C24_14 O33_13 1_555 1_555
C25_14 O25_3 1_555 1_555
C26_14 C15_14 1_555 1_555
C28_14 C17_14 1_555 1_555
C31_14 C20_14 1_555 1_555
C32_14 C21_14 1_555 1_555
C35_14 C24_14 1_555 1_555
C36_14 C25_14 1_555 1_555
C37_14 C26_14 1_555 1_555
C39_14 C28_14 1_555 1_555
C42_14 C31_14 1_555 1_555
C43_14 C32_14 1_555 1_555
C46_14 C35_14 1_555 1_555
C47_14 C36_14 1_555 1_555
H14_14 C37_14 1_555 1_555
H16_14 C39_14 1_555 1_555
H19_14 C42_14 1_555 1_555
H20_14 C43_14 1_555 1_555
H23_14 C46_14 1_555 1_555
H24_14 C47_14 1_555 1_555
C50_14 C37_14 1_555 1_555
C52_14 C39_14 1_555 1_555
C53_14 C42_14 1_555 1_555
C54_14 C43_14 1_555 1_555
C57_14 C46_14 1_555 1_555
C58_14 C47_14 1_555 1_555
C61_14 C50_14 1_555 1_555
C63_14 C52_14 1_555 1_555
C64_14 C54_14 1_555 1_555
C66_14 C58_14 1_555 1_555
C67_14 C53_14 1_555 1_555
C69_14 C57_14 1_555 1_555
C72_14 C61_14 1_555 1_555
C74_14 C63_14 1_555 1_555
C75_14 C64_14 1_555 1_555
C77_14 C66_14 1_555 1_555
C78_14 C67_14 1_555 1_555
C80_14 C69_14 1_555 1_555
H27_14 C72_14 1_555 1_555
H29_14 C74_14 1_555 1_555
H30_14 C75_14 1_555 1_555
H32_14 C77_14 1_555 1_555
H33_14 C78_14 1_555 1_555
H35_14 C80_14 1_555 1_555
C81_14 C26_14 1_555 1_555
C83_14 C28_14 1_555 1_555
C86_14 C32_14 1_555 1_555
C88_14 C36_14 1_555 1_555
C89_14 C31_14 1_555 1_555
C91_14 C35_14 1_555 1_555
H36_14 C81_14 1_555 1_555
H38_14 C83_14 1_555 1_555
H41_14 C86_14 1_555 1_555
H43_14 C88_14 1_555 1_555
H44_14 C89_14 1_555 1_555
H46_14 C91_14 1_555 1_555
C94_14 C50_14 1_555 1_555
C96_14 C52_14 1_555 1_555
C97_14 C53_14 1_555 1_555
C99_14 C57_14 1_555 1_555
C100_14 C54_14 1_555 1_555
C102_14 C58_14 1_555 1_555
C105_14 C94_14 1_555 1_555
C107_14 C96_14 1_555 1_555
C108_14 C97_14 1_555 1_555
C110_14 C99_14 1_555 1_555
C111_14 C100_14 1_555 1_555
C113_14 C102_14 1_555 1_555
C116_14 C61_14 1_555 1_555
C118_14 C63_14 1_555 1_555
C119_14 C64_14 1_555 1_555
C121_14 C66_14 1_555 1_555
C122_14 C67_14 1_555 1_555
C124_14 C69_14 1_555 1_555
C127_14 C94_14 1_555 1_555
C129_14 C96_14 1_555 1_555
C130_14 C97_14 1_555 1_555
C132_14 C99_14 1_555 1_555
C133_14 C100_14 1_555 1_555
C135_14 C102_14 1_555 1_555
H49_14 C127_14 1_555 1_555
H51_14 C129_14 1_555 1_555
H52_14 C130_14 1_555 1_555
H54_14 C132_14 1_555 1_555
H55_14 C133_14 1_555 1_555
H57_14 C135_14 1_555 1_555
H60_14 C127_14 1_555 1_555
H62_14 C129_14 1_555 1_555
H63_14 C130_14 1_555 1_555
H65_14 C132_14 1_555 1_555
H66_14 C133_14 1_555 1_555
H68_14 C135_14 1_555 1_555
C138_14 C127_14 1_555 1_555
C140_14 C129_14 1_555 1_555
C141_14 C130_14 1_555 1_555
C143_14 C132_14 1_555 1_555
C144_14 C133_14 1_555 1_555
C146_14 C135_14 1_555 1_555
H71_14 C138_14 1_555 1_555
H73_14 C140_14 1_555 1_555
H74_14 C141_14 1_555 1_555
H76_14 C143_14 1_555 1_555
H77_14 C144_14 1_555 1_555
H79_14 C146_14 1_555 1_555
H82_14 C138_14 1_555 1_555
H84_14 C140_14 1_555 1_555
H85_14 C141_14 1_555 1_555
H87_14 C143_14 1_555 1_555
H88_14 C144_14 1_555 1_555
H90_14 C146_14 1_555 1_555
H93_14 C138_14 1_555 1_555
H95_14 C140_14 1_555 1_555
H96_14 C141_14 1_555 1_555
H98_14 C143_14 1_555 1_555
H99_14 C144_14 1_555 1_555
H101_14 C146_14 1_555 1_555
C149_14 C94_14 1_555 1_555
C151_14 C96_14 1_555 1_555
C152_14 C97_14 1_555 1_555
C154_14 C99_14 1_555 1_555
C155_14 C100_14 1_555 1_555
C157_14 C102_14 1_555 1_555
H104_14 C149_14 1_555 1_555
H106_14 C151_14 1_555 1_555
H107_14 C152_14 1_555 1_555
H109_14 C154_14 1_555 1_555
H110_14 C155_14 1_555 1_555
H112_14 C157_14 1_555 1_555
H115_14 C149_14 1_555 1_555
H117_14 C151_14 1_555 1_555
H118_14 C152_14 1_555 1_555
H120_14 C154_14 1_555 1_555
H121_14 C155_14 1_555 1_555
H123_14 C157_14 1_555 1_555
C160_14 C149_14 1_555 1_555
C162_14 C151_14 1_555 1_555
C163_14 C152_14 1_555 1_555
C165_14 C154_14 1_555 1_555
C166_14 C155_14 1_555 1_555
C168_14 C157_14 1_555 1_555
H126_14 C160_14 1_555 1_555
H128_14 C162_14 1_555 1_555
H129_14 C163_14 1_555 1_555
H131_14 C165_14 1_555 1_555
H132_14 C166_14 1_555 1_555
H134_14 C168_14 1_555 1_555
H137_14 C160_14 1_555 1_555
H139_14 C162_14 1_555 1_555
H140_14 C163_14 1_555 1_555
H142_14 C165_14 1_555 1_555
H143_14 C166_14 1_555 1_555
H145_14 C168_14 1_555 1_555
H148_14 C160_14 1_555 1_555
H150_14 C162_14 1_555 1_555
H151_14 C163_14 1_555 1_555
H153_14 C165_14 1_555 1_555
H154_14 C166_14 1_555 1_555
H156_14 C168_14 1_555 1_555
O24_9 C17_14 1_555 1_555
O20_9 C15_14 1_555 1_555
C72_14 C81_14 1_555 1_555
C74_14 C83_14 1_555 1_555
C75_14 C86_14 1_555 1_555
C77_14 C88_14 1_555 1_555
C78_14 C89_14 1_555 1_555
C80_14 C91_14 1_555 1_555
C105_14 C116_14 1_555 1_555
C105_14 C119_14 1_555 1_555
C107_14 C118_14 1_555 1_555
C107_14 C121_14 1_555 1_555
C108_14 C116_14 1_555 1_555
C108_14 C122_14 1_555 1_555
C110_14 C118_14 1_555 1_555
C110_14 C124_14 1_555 1_555
C111_14 C119_14 1_555 1_555
C111_14 C122_14 1_555 1_555
C113_14 C121_14 1_555 1_555
C113_14 C124_14 1_555 1_555
O4_22 Cd6_2 1_555 1_555
Cd5_2 O4_22 1_555 1_555
Cd9_2 O4_22 1_555 1_555
Cd11 O14_14 1_555 1_555
Cd11_2 O15_14 1_555 1_555
Cd9 O30_14 1_555 1_555
O5_16 Cd6_2 1_555 1_555
O6_15 Cd9_2 1_555 1_555
O8_14 Cd11_3 1_555 1_555
O14_14 C20_15 1_555 1_555
O15_14 C21_15 1_555 1_555
O22_16 Cd6_2 1_555 1_555
O25_15 Cd5_2 1_555 1_555
O26_14 Cd11_3 1_555 1_555
O29_14 Cd9_3 1_555 1_555
O30_14 Cd11_2 1_555 1_555
C15_15 O8_14 1_555 1_555
C20_15 O29_14 1_555 1_555
C21_15 O30_14 1_555 1_555
C26_15 C15_15 1_555 1_555
C31_15 C20_15 1_555 1_555
C32_15 C21_15 1_555 1_555
C37_15 C26_15 1_555 1_555
C42_15 C31_15 1_555 1_555
C43_15 C32_15 1_555 1_555
H14_15 C37_15 1_555 1_555
H19_15 C42_15 1_555 1_555
H20_15 C43_15 1_555 1_555
C50_15 C37_15 1_555 1_555
C53_15 C42_15 1_555 1_555
C54_15 C43_15 1_555 1_555
C61_15 C50_15 1_555 1_555
C64_15 C54_15 1_555 1_555
C67_15 C53_15 1_555 1_555
C72_15 C61_15 1_555 1_555
C75_15 C64_15 1_555 1_555
C78_15 C67_15 1_555 1_555
H27_15 C72_15 1_555 1_555
H30_15 C75_15 1_555 1_555
H33_15 C78_15 1_555 1_555
C81_15 C26_15 1_555 1_555
C86_15 C32_15 1_555 1_555
C89_15 C31_15 1_555 1_555
H36_15 C81_15 1_555 1_555
H41_15 C86_15 1_555 1_555
H44_15 C89_15 1_555 1_555
C94_15 C50_15 1_555 1_555
C97_15 C53_15 1_555 1_555
C100_15 C54_15 1_555 1_555
C105_15 C94_15 1_555 1_555
C108_15 C97_15 1_555 1_555
C111_15 C100_15 1_555 1_555
C116_15 C61_15 1_555 1_555
C119_15 C64_15 1_555 1_555
C122_15 C67_15 1_555 1_555
C127_15 C94_15 1_555 1_555
C130_15 C97_15 1_555 1_555
C133_15 C100_15 1_555 1_555
H49_15 C127_15 1_555 1_555
H52_15 C130_15 1_555 1_555
H55_15 C133_15 1_555 1_555
H60_15 C127_15 1_555 1_555
H63_15 C130_15 1_555 1_555
H66_15 C133_15 1_555 1_555
C138_15 C127_15 1_555 1_555
C141_15 C130_15 1_555 1_555
C144_15 C133_15 1_555 1_555
H71_15 C138_15 1_555 1_555
H74_15 C141_15 1_555 1_555
H77_15 C144_15 1_555 1_555
H82_15 C138_15 1_555 1_555
H85_15 C141_15 1_555 1_555
H88_15 C144_15 1_555 1_555
H93_15 C138_15 1_555 1_555
H96_15 C141_15 1_555 1_555
H99_15 C144_15 1_555 1_555
C149_15 C94_15 1_555 1_555
C152_15 C97_15 1_555 1_555
C155_15 C100_15 1_555 1_555
H104_15 C149_15 1_555 1_555
H107_15 C152_15 1_555 1_555
H110_15 C155_15 1_555 1_555
H115_15 C149_15 1_555 1_555
H118_15 C152_15 1_555 1_555
H121_15 C155_15 1_555 1_555
C160_15 C149_15 1_555 1_555
C163_15 C152_15 1_555 1_555
C166_15 C155_15 1_555 1_555
H126_15 C160_15 1_555 1_555
H129_15 C163_15 1_555 1_555
H132_15 C166_15 1_555 1_555
H137_15 C160_15 1_555 1_555
H140_15 C163_15 1_555 1_555
H143_15 C166_15 1_555 1_555
H148_15 C160_15 1_555 1_555
H151_15 C163_15 1_555 1_555
H154_15 C166_15 1_555 1_555
O4_22 Cd11_3 1_555 1_555
Cd11_3 O22_16 1_555 1_555
Cd9_2 O25_15 1_555 1_555
Cd9_2 O26_14 1_555 1_555
Cd11 O29_14 1_555 1_555
O26_14 C15_15 1_555 1_555
C72_15 C81_15 1_555 1_555
C75_15 C86_15 1_555 1_555
C78_15 C89_15 1_555 1_555
C105_15 C116_15 1_555 1_555
C105_15 C119_15 1_555 1_555
C108_15 C116_15 1_555 1_555
C108_15 C122_15 1_555 1_555
C111_15 C119_15 1_555 1_555
C111_15 C122_15 1_555 1_555
O10_4 C20_16 1_555 1_555
O10_10 C21_16 1_555 1_555
C15_16 O10_7 1_555 1_555
C20_16 O20_4 1_555 1_555
C21_16 O20_10 1_555 1_555
C26_16 C15_16 1_555 1_555
C31_16 C20_16 1_555 1_555
C32_16 C21_16 1_555 1_555
C37_16 C26_16 1_555 1_555
C42_16 C31_16 1_555 1_555
C43_16 C32_16 1_555 1_555
H14_16 C37_16 1_555 1_555
H19_16 C42_16 1_555 1_555
H20_16 C43_16 1_555 1_555
C50_16 C37_16 1_555 1_555
C53_16 C42_16 1_555 1_555
C54_16 C43_16 1_555 1_555
C61_16 C50_16 1_555 1_555
C64_16 C54_16 1_555 1_555
C67_16 C53_16 1_555 1_555
C72_16 C61_16 1_555 1_555
C75_16 C64_16 1_555 1_555
C78_16 C67_16 1_555 1_555
H27_16 C72_16 1_555 1_555
H30_16 C75_16 1_555 1_555
H33_16 C78_16 1_555 1_555
C81_16 C26_16 1_555 1_555
C86_16 C32_16 1_555 1_555
C89_16 C31_16 1_555 1_555
H36_16 C81_16 1_555 1_555
H41_16 C86_16 1_555 1_555
H44_16 C89_16 1_555 1_555
C94_16 C50_16 1_555 1_555
C97_16 C53_16 1_555 1_555
C100_16 C54_16 1_555 1_555
C105_16 C94_16 1_555 1_555
C108_16 C97_16 1_555 1_555
C111_16 C100_16 1_555 1_555
C116_16 C61_16 1_555 1_555
C119_16 C64_16 1_555 1_555
C122_16 C67_16 1_555 1_555
C127_16 C94_16 1_555 1_555
C130_16 C97_16 1_555 1_555
C133_16 C100_16 1_555 1_555
H49_16 C127_16 1_555 1_555
H52_16 C130_16 1_555 1_555
H55_16 C133_16 1_555 1_555
H60_16 C127_16 1_555 1_555
H63_16 C130_16 1_555 1_555
H66_16 C133_16 1_555 1_555
C138_16 C127_16 1_555 1_555
C141_16 C130_16 1_555 1_555
C144_16 C133_16 1_555 1_555
H71_16 C138_16 1_555 1_555
H74_16 C141_16 1_555 1_555
H77_16 C144_16 1_555 1_555
H82_16 C138_16 1_555 1_555
H85_16 C141_16 1_555 1_555
H88_16 C144_16 1_555 1_555
H93_16 C138_16 1_555 1_555
H96_16 C141_16 1_555 1_555
H99_16 C144_16 1_555 1_555
C149_16 C94_16 1_555 1_555
C152_16 C97_16 1_555 1_555
C155_16 C100_16 1_555 1_555
H104_16 C149_16 1_555 1_555
H107_16 C152_16 1_555 1_555
H110_16 C155_16 1_555 1_555
H115_16 C149_16 1_555 1_555
H118_16 C152_16 1_555 1_555
H121_16 C155_16 1_555 1_555
C160_16 C149_16 1_555 1_555
C163_16 C152_16 1_555 1_555
C166_16 C155_16 1_555 1_555
H126_16 C160_16 1_555 1_555
H129_16 C163_16 1_555 1_555
H132_16 C166_16 1_555 1_555
H137_16 C160_16 1_555 1_555
H140_16 C163_16 1_555 1_555
H143_16 C166_16 1_555 1_555
H148_16 C160_16 1_555 1_555
H151_16 C163_16 1_555 1_555
H154_16 C166_16 1_555 1_555
O20_7 C15_16 1_555 1_555
C72_16 C81_16 1_555 1_555
C75_16 C86_16 1_555 1_555
C78_16 C89_16 1_555 1_555
C105_16 C116_16 1_555 1_555
C105_16 C119_16 1_555 1_555
C108_16 C116_16 1_555 1_555
C108_16 C122_16 1_555 1_555
C111_16 C119_16 1_555 1_555
C111_16 C122_16 1_555 1_555
O4_23 Cd15 1_555 1_555
Cd6_5 O4_23 1_555 1_555
Cd5_5 O4_23 1_555 1_555
O6_16 Cd5_5 1_555 1_555
O9_16 Cd16 1_555 1_555
O24_16 Cd16 1_555 1_555
O25_16 Cd6_5 1_555 1_555
O4_23 Cd16 1_555 1_555
Cd5_5 O24_16 1_555 1_555
Cd5_5 O25_16 1_555 1_555
O4_24 Cd15_2 1_555 1_555
Cd6_6 O4_24 1_555 1_555
Cd5_6 O4_24 1_555 1_555
O4_24 Cd16_2 1_555 1_555
O4_25 Cd11_6 1_555 1_555
Cd6_3 O4_25 1_555 1_555
Cd5_3 O4_25 1_555 1_555
O4_25 Cd9_4 1_555 1_555
O4_26 Cd11_7 1_555 1_555
Cd6_4 O4_26 1_555 1_555
Cd5_4 O4_26 1_555 1_555
O5_17 Cd11_7 1_555 1_555
O6_17 Cd5_4 1_555 1_555
O9_17 Cd9_5 1_555 1_555
O22_17 Cd11_7 1_555 1_555
O24_17 Cd9_5 1_555 1_555
O25_17 Cd6_4 1_555 1_555
O4_26 Cd9_5 1_555 1_555
Cd9_5 O22_17 1_555 1_555
Cd5_4 O24_17 1_555 1_555
Cd5_4 O25_17 1_555 1_555
Cd6 O18_14 1_555 1_555
Cd11_2 O33_14 1_555 1_555
Cd5_11 O19_11 1_555 1_555
Cd6_11 O34_11 1_555 1_555
O18_14 C24_15 1_555 1_555
O19_11 C25_15 1_555 1_555
O33_14 Cd6 1_555 1_555
O34_11 Cd5_11 1_555 1_555
C17_15 O5_9 1_555 1_555
C24_15 O33_14 1_555 1_555
C25_15 O34_11 1_555 1_555
C28_15 C17_15 1_555 1_555
C35_15 C24_15 1_555 1_555
C36_15 C25_15 1_555 1_555
C39_15 C28_15 1_555 1_555
C46_15 C35_15 1_555 1_555
C47_15 C36_15 1_555 1_555
H16_15 C39_15 1_555 1_555
H23_15 C46_15 1_555 1_555
H24_15 C47_15 1_555 1_555
C52_15 C39_15 1_555 1_555
C57_15 C46_15 1_555 1_555
C58_15 C47_15 1_555 1_555
C63_15 C52_15 1_555 1_555
C66_15 C58_15 1_555 1_555
C69_15 C57_15 1_555 1_555
C74_15 C63_15 1_555 1_555
C77_15 C66_15 1_555 1_555
C80_15 C69_15 1_555 1_555
H29_15 C74_15 1_555 1_555
H32_15 C77_15 1_555 1_555
H35_15 C80_15 1_555 1_555
C83_15 C28_15 1_555 1_555
C88_15 C36_15 1_555 1_555
C91_15 C35_15 1_555 1_555
H38_15 C83_15 1_555 1_555
H43_15 C88_15 1_555 1_555
H46_15 C91_15 1_555 1_555
C96_15 C52_15 1_555 1_555
C99_15 C57_15 1_555 1_555
C102_15 C58_15 1_555 1_555
C107_15 C96_15 1_555 1_555
C110_15 C99_15 1_555 1_555
C113_15 C102_15 1_555 1_555
C118_15 C63_15 1_555 1_555
C121_15 C66_15 1_555 1_555
C124_15 C69_15 1_555 1_555
C129_15 C96_15 1_555 1_555
C132_15 C99_15 1_555 1_555
C135_15 C102_15 1_555 1_555
H51_15 C129_15 1_555 1_555
H54_15 C132_15 1_555 1_555
H57_15 C135_15 1_555 1_555
H62_15 C129_15 1_555 1_555
H65_15 C132_15 1_555 1_555
H68_15 C135_15 1_555 1_555
C140_15 C129_15 1_555 1_555
C143_15 C132_15 1_555 1_555
C146_15 C135_15 1_555 1_555
H73_15 C140_15 1_555 1_555
H76_15 C143_15 1_555 1_555
H79_15 C146_15 1_555 1_555
H84_15 C140_15 1_555 1_555
H87_15 C143_15 1_555 1_555
H90_15 C146_15 1_555 1_555
H95_15 C140_15 1_555 1_555
H98_15 C143_15 1_555 1_555
H101_15 C146_15 1_555 1_555
C151_15 C96_15 1_555 1_555
C154_15 C99_15 1_555 1_555
C157_15 C102_15 1_555 1_555
H106_15 C151_15 1_555 1_555
H109_15 C154_15 1_555 1_555
H112_15 C157_15 1_555 1_555
H117_15 C151_15 1_555 1_555
H120_15 C154_15 1_555 1_555
H123_15 C157_15 1_555 1_555
C162_15 C151_15 1_555 1_555
C165_15 C154_15 1_555 1_555
C168_15 C157_15 1_555 1_555
H128_15 C162_15 1_555 1_555
H131_15 C165_15 1_555 1_555
H134_15 C168_15 1_555 1_555
H139_15 C162_15 1_555 1_555
H142_15 C165_15 1_555 1_555
H145_15 C168_15 1_555 1_555
H150_15 C162_15 1_555 1_555
H153_15 C165_15 1_555 1_555
H156_15 C168_15 1_555 1_555
O22_9 C17_15 1_555 1_555
C74_15 C83_15 1_555 1_555
C77_15 C88_15 1_555 1_555
C80_15 C91_15 1_555 1_555
C107_15 C118_15 1_555 1_555
C107_15 C121_15 1_555 1_555
C110_15 C118_15 1_555 1_555
C110_15 C124_15 1_555 1_555
C113_15 C121_15 1_555 1_555
C113_15 C124_15 1_555 1_555
O5_8 C24_16 1_555 1_555
O6_10 C25_16 1_555 1_555
C17_16 O5_14 1_555 1_555
C24_16 O22_8 1_555 1_555
C25_16 O25_10 1_555 1_555
C28_16 C17_16 1_555 1_555
C35_16 C24_16 1_555 1_555
C36_16 C25_16 1_555 1_555
C39_16 C28_16 1_555 1_555
C46_16 C35_16 1_555 1_555
C47_16 C36_16 1_555 1_555
H16_16 C39_16 1_555 1_555
H23_16 C46_16 1_555 1_555
H24_16 C47_16 1_555 1_555
C52_16 C39_16 1_555 1_555
C57_16 C46_16 1_555 1_555
C58_16 C47_16 1_555 1_555
C63_16 C52_16 1_555 1_555
C66_16 C58_16 1_555 1_555
C69_16 C57_16 1_555 1_555
C74_16 C63_16 1_555 1_555
C77_16 C66_16 1_555 1_555
C80_16 C69_16 1_555 1_555
H29_16 C74_16 1_555 1_555
H32_16 C77_16 1_555 1_555
H35_16 C80_16 1_555 1_555
C83_16 C28_16 1_555 1_555
C88_16 C36_16 1_555 1_555
C91_16 C35_16 1_555 1_555
H38_16 C83_16 1_555 1_555
H43_16 C88_16 1_555 1_555
H46_16 C91_16 1_555 1_555
C96_16 C52_16 1_555 1_555
C99_16 C57_16 1_555 1_555
C102_16 C58_16 1_555 1_555
C107_16 C96_16 1_555 1_555
C110_16 C99_16 1_555 1_555
C113_16 C102_16 1_555 1_555
C118_16 C63_16 1_555 1_555
C121_16 C66_16 1_555 1_555
C124_16 C69_16 1_555 1_555
C129_16 C96_16 1_555 1_555
C132_16 C99_16 1_555 1_555
C135_16 C102_16 1_555 1_555
H51_16 C129_16 1_555 1_555
H54_16 C132_16 1_555 1_555
H57_16 C135_16 1_555 1_555
H62_16 C129_16 1_555 1_555
H65_16 C132_16 1_555 1_555
H68_16 C135_16 1_555 1_555
C140_16 C129_16 1_555 1_555
C143_16 C132_16 1_555 1_555
C146_16 C135_16 1_555 1_555
H73_16 C140_16 1_555 1_555
H76_16 C143_16 1_555 1_555
H79_16 C146_16 1_555 1_555
H84_16 C140_16 1_555 1_555
H87_16 C143_16 1_555 1_555
H90_16 C146_16 1_555 1_555
H95_16 C140_16 1_555 1_555
H98_16 C143_16 1_555 1_555
H101_16 C146_16 1_555 1_555
C151_16 C96_16 1_555 1_555
C154_16 C99_16 1_555 1_555
C157_16 C102_16 1_555 1_555
H106_16 C151_16 1_555 1_555
H109_16 C154_16 1_555 1_555
H112_16 C157_16 1_555 1_555
H117_16 C151_16 1_555 1_555
H120_16 C154_16 1_555 1_555
H123_16 C157_16 1_555 1_555
C162_16 C151_16 1_555 1_555
C165_16 C154_16 1_555 1_555
C168_16 C157_16 1_555 1_555
H128_16 C162_16 1_555 1_555
H131_16 C165_16 1_555 1_555
H134_16 C168_16 1_555 1_555
H139_16 C162_16 1_555 1_555
H142_16 C165_16 1_555 1_555
H145_16 C168_16 1_555 1_555
H150_16 C162_16 1_555 1_555
H153_16 C165_16 1_555 1_555
H156_16 C168_16 1_555 1_555
O22_14 C17_16 1_555 1_555
C74_16 C83_16 1_555 1_555
C77_16 C88_16 1_555 1_555
C80_16 C91_16 1_555 1_555
C107_16 C118_16 1_555 1_555
C107_16 C121_16 1_555 1_555
C110_16 C118_16 1_555 1_555
C110_16 C124_16 1_555 1_555
C113_16 C121_16 1_555 1_555
C113_16 C124_16 1_555 1_555
O5_15 C24_17 1_555 1_555
O6_15 C25_17 1_555 1_555
C17_17 O6_11 1_555 1_555
C24_17 O22_15 1_555 1_555
C25_17 O25_15 1_555 1_555
C28_17 C17_17 1_555 1_555
C35_17 C24_17 1_555 1_555
C36_17 C25_17 1_555 1_555
C39_17 C28_17 1_555 1_555
C46_17 C35_17 1_555 1_555
C47_17 C36_17 1_555 1_555
H16_17 C39_17 1_555 1_555
H23_17 C46_17 1_555 1_555
H24_17 C47_17 1_555 1_555
C52_17 C39_17 1_555 1_555
C57_17 C46_17 1_555 1_555
C58_17 C47_17 1_555 1_555
C63_17 C52_17 1_555 1_555
C66_17 C58_17 1_555 1_555
C69_17 C57_17 1_555 1_555
C74_17 C63_17 1_555 1_555
C77_17 C66_17 1_555 1_555
C80_17 C69_17 1_555 1_555
H29_17 C74_17 1_555 1_555
H32_17 C77_17 1_555 1_555
H35_17 C80_17 1_555 1_555
C83_17 C28_17 1_555 1_555
C88_17 C36_17 1_555 1_555
C91_17 C35_17 1_555 1_555
H38_17 C83_17 1_555 1_555
H43_17 C88_17 1_555 1_555
H46_17 C91_17 1_555 1_555
C96_17 C52_17 1_555 1_555
C99_17 C57_17 1_555 1_555
C102_17 C58_17 1_555 1_555
C107_17 C96_17 1_555 1_555
C110_17 C99_17 1_555 1_555
C113_17 C102_17 1_555 1_555
C118_17 C63_17 1_555 1_555
C121_17 C66_17 1_555 1_555
C124_17 C69_17 1_555 1_555
C129_17 C96_17 1_555 1_555
C132_17 C99_17 1_555 1_555
C135_17 C102_17 1_555 1_555
H51_17 C129_17 1_555 1_555
H54_17 C132_17 1_555 1_555
H57_17 C135_17 1_555 1_555
H62_17 C129_17 1_555 1_555
H65_17 C132_17 1_555 1_555
H68_17 C135_17 1_555 1_555
C140_17 C129_17 1_555 1_555
C143_17 C132_17 1_555 1_555
C146_17 C135_17 1_555 1_555
H73_17 C140_17 1_555 1_555
H76_17 C143_17 1_555 1_555
H79_17 C146_17 1_555 1_555
H84_17 C140_17 1_555 1_555
H87_17 C143_17 1_555 1_555
H90_17 C146_17 1_555 1_555
H95_17 C140_17 1_555 1_555
H98_17 C143_17 1_555 1_555
H101_17 C146_17 1_555 1_555
C151_17 C96_17 1_555 1_555
C154_17 C99_17 1_555 1_555
C157_17 C102_17 1_555 1_555
H106_17 C151_17 1_555 1_555
H109_17 C154_17 1_555 1_555
H112_17 C157_17 1_555 1_555
H117_17 C151_17 1_555 1_555
H120_17 C154_17 1_555 1_555
H123_17 C157_17 1_555 1_555
C162_17 C151_17 1_555 1_555
C165_17 C154_17 1_555 1_555
C168_17 C157_17 1_555 1_555
H128_17 C162_17 1_555 1_555
H131_17 C165_17 1_555 1_555
H134_17 C168_17 1_555 1_555
H139_17 C162_17 1_555 1_555
H142_17 C165_17 1_555 1_555
H145_17 C168_17 1_555 1_555
H150_17 C162_17 1_555 1_555
H153_17 C165_17 1_555 1_555
H156_17 C168_17 1_555 1_555
O25_11 C17_17 1_555 1_555
C74_17 C83_17 1_555 1_555
C77_17 C88_17 1_555 1_555
C80_17 C91_17 1_555 1_555
C107_17 C118_17 1_555 1_555
C107_17 C121_17 1_555 1_555
C110_17 C118_17 1_555 1_555
C110_17 C124_17 1_555 1_555
C113_17 C121_17 1_555 1_555
C113_17 C124_17 1_555 1_555
Cd10_4 O19_12 1_555 1_555
Cd17_5 O34_12 1_555 1_555
O5_3 C24_18 1_555 1_555
O19_12 C25_18 1_555 1_555
O34_12 Cd10_4 1_555 1_555
C17_18 O9_6 1_555 1_555
C24_18 O22_3 1_555 1_555
C25_18 O34_12 1_555 1_555
C28_18 C17_18 1_555 1_555
C35_18 C24_18 1_555 1_555
C36_18 C25_18 1_555 1_555
C39_18 C28_18 1_555 1_555
C46_18 C35_18 1_555 1_555
C47_18 C36_18 1_555 1_555
H16_18 C39_18 1_555 1_555
H23_18 C46_18 1_555 1_555
H24_18 C47_18 1_555 1_555
C52_18 C39_18 1_555 1_555
C57_18 C46_18 1_555 1_555
C58_18 C47_18 1_555 1_555
C63_18 C52_18 1_555 1_555
C66_18 C58_18 1_555 1_555
C69_18 C57_18 1_555 1_555
C74_18 C63_18 1_555 1_555
C77_18 C66_18 1_555 1_555
C80_18 C69_18 1_555 1_555
H29_18 C74_18 1_555 1_555
H32_18 C77_18 1_555 1_555
H35_18 C80_18 1_555 1_555
C83_18 C28_18 1_555 1_555
C88_18 C36_18 1_555 1_555
C91_18 C35_18 1_555 1_555
H38_18 C83_18 1_555 1_555
H43_18 C88_18 1_555 1_555
H46_18 C91_18 1_555 1_555
C96_18 C52_18 1_555 1_555
C99_18 C57_18 1_555 1_555
C102_18 C58_18 1_555 1_555
C107_18 C96_18 1_555 1_555
C110_18 C99_18 1_555 1_555
C113_18 C102_18 1_555 1_555
C118_18 C63_18 1_555 1_555
C121_18 C66_18 1_555 1_555
C124_18 C69_18 1_555 1_555
C129_18 C96_18 1_555 1_555
C132_18 C99_18 1_555 1_555
C135_18 C102_18 1_555 1_555
H51_18 C129_18 1_555 1_555
H54_18 C132_18 1_555 1_555
H57_18 C135_18 1_555 1_555
H62_18 C129_18 1_555 1_555
H65_18 C132_18 1_555 1_555
H68_18 C135_18 1_555 1_555
C140_18 C129_18 1_555 1_555
C143_18 C132_18 1_555 1_555
C146_18 C135_18 1_555 1_555
H73_18 C140_18 1_555 1_555
H76_18 C143_18 1_555 1_555
H79_18 C146_18 1_555 1_555
H84_18 C140_18 1_555 1_555
H87_18 C143_18 1_555 1_555
H90_18 C146_18 1_555 1_555
H95_18 C140_18 1_555 1_555
H98_18 C143_18 1_555 1_555
H101_18 C146_18 1_555 1_555
C151_18 C96_18 1_555 1_555
C154_18 C99_18 1_555 1_555
C157_18 C102_18 1_555 1_555
H106_18 C151_18 1_555 1_555
H109_18 C154_18 1_555 1_555
H112_18 C157_18 1_555 1_555
H117_18 C151_18 1_555 1_555
H120_18 C154_18 1_555 1_555
H123_18 C157_18 1_555 1_555
C162_18 C151_18 1_555 1_555
C165_18 C154_18 1_555 1_555
C168_18 C157_18 1_555 1_555
H128_18 C162_18 1_555 1_555
H131_18 C165_18 1_555 1_555
H134_18 C168_18 1_555 1_555
H139_18 C162_18 1_555 1_555
H142_18 C165_18 1_555 1_555
H145_18 C168_18 1_555 1_555
H150_18 C162_18 1_555 1_555
H153_18 C165_18 1_555 1_555
H156_18 C168_18 1_555 1_555
O24_6 C17_18 1_555 1_555
C74_18 C83_18 1_555 1_555
C77_18 C88_18 1_555 1_555
C80_18 C91_18 1_555 1_555
C107_18 C118_18 1_555 1_555
C107_18 C121_18 1_555 1_555
C110_18 C118_18 1_555 1_555
C110_18 C124_18 1_555 1_555
C113_18 C121_18 1_555 1_555
C113_18 C124_18 1_555 1_555
O4_27 Cd10 1_555 1_555
Cd12 O4_27 1_555 1_555
Cd9_3 O4_27 1_555 1_555
Cd18_3 O18_15 1_555 1_555
Cd5_7 O33_15 1_555 1_555
Cd10_2 O19_13 1_555 1_555
Cd15_3 O34_13 1_555 1_555
O6_18 Cd9_3 1_555 1_555
O11_11 Cd12 1_555 1_555
O18_15 C24_19 1_555 1_555
O19_13 C25_19 1_555 1_555
O21_11 Cd10 1_555 1_555
O25_18 Cd12 1_555 1_555
O33_15 Cd18_3 1_555 1_555
O34_13 Cd10_2 1_555 1_555
C17_19 O11_11 1_555 1_555
C24_19 O33_15 1_555 1_555
C25_19 O34_13 1_555 1_555
C28_19 C17_19 1_555 1_555
C35_19 C24_19 1_555 1_555
C36_19 C25_19 1_555 1_555
C39_19 C28_19 1_555 1_555
C46_19 C35_19 1_555 1_555
C47_19 C36_19 1_555 1_555
H16_19 C39_19 1_555 1_555
H23_19 C46_19 1_555 1_555
H24_19 C47_19 1_555 1_555
C52_19 C39_19 1_555 1_555
C57_19 C46_19 1_555 1_555
C58_19 C47_19 1_555 1_555
C63_19 C52_19 1_555 1_555
C66_19 C58_19 1_555 1_555
C69_19 C57_19 1_555 1_555
C74_19 C63_19 1_555 1_555
C77_19 C66_19 1_555 1_555
C80_19 C69_19 1_555 1_555
H29_19 C74_19 1_555 1_555
H32_19 C77_19 1_555 1_555
H35_19 C80_19 1_555 1_555
C83_19 C28_19 1_555 1_555
C88_19 C36_19 1_555 1_555
C91_19 C35_19 1_555 1_555
H38_19 C83_19 1_555 1_555
H43_19 C88_19 1_555 1_555
H46_19 C91_19 1_555 1_555
C96_19 C52_19 1_555 1_555
C99_19 C57_19 1_555 1_555
C102_19 C58_19 1_555 1_555
C107_19 C96_19 1_555 1_555
C110_19 C99_19 1_555 1_555
C113_19 C102_19 1_555 1_555
C118_19 C63_19 1_555 1_555
C121_19 C66_19 1_555 1_555
C124_19 C69_19 1_555 1_555
C129_19 C96_19 1_555 1_555
C132_19 C99_19 1_555 1_555
C135_19 C102_19 1_555 1_555
H51_19 C129_19 1_555 1_555
H54_19 C132_19 1_555 1_555
H57_19 C135_19 1_555 1_555
H62_19 C129_19 1_555 1_555
H65_19 C132_19 1_555 1_555
H68_19 C135_19 1_555 1_555
C140_19 C129_19 1_555 1_555
C143_19 C132_19 1_555 1_555
C146_19 C135_19 1_555 1_555
H73_19 C140_19 1_555 1_555
H76_19 C143_19 1_555 1_555
H79_19 C146_19 1_555 1_555
H84_19 C140_19 1_555 1_555
H87_19 C143_19 1_555 1_555
H90_19 C146_19 1_555 1_555
H95_19 C140_19 1_555 1_555
H98_19 C143_19 1_555 1_555
H101_19 C146_19 1_555 1_555
C151_19 C96_19 1_555 1_555
C154_19 C99_19 1_555 1_555
C157_19 C102_19 1_555 1_555
H106_19 C151_19 1_555 1_555
H109_19 C154_19 1_555 1_555
H112_19 C157_19 1_555 1_555
H117_19 C151_19 1_555 1_555
H120_19 C154_19 1_555 1_555
H123_19 C157_19 1_555 1_555
C162_19 C151_19 1_555 1_555
C165_19 C154_19 1_555 1_555
C168_19 C157_19 1_555 1_555
H128_19 C162_19 1_555 1_555
H131_19 C165_19 1_555 1_555
H134_19 C168_19 1_555 1_555
H139_19 C162_19 1_555 1_555
H142_19 C165_19 1_555 1_555
H145_19 C168_19 1_555 1_555
H150_19 C162_19 1_555 1_555
H153_19 C165_19 1_555 1_555
H156_19 C168_19 1_555 1_555
O4_27 Cd11 1_555 1_555
Cd12 O21_11 1_555 1_555
Cd9_3 O25_18 1_555 1_555
O21_11 C17_19 1_555 1_555
C74_19 C83_19 1_555 1_555
C77_19 C88_19 1_555 1_555
C80_19 C91_19 1_555 1_555
C107_19 C118_19 1_555 1_555
C107_19 C121_19 1_555 1_555
C110_19 C118_19 1_555 1_555
C110_19 C124_19 1_555 1_555
C113_19 C121_19 1_555 1_555
C113_19 C124_19 1_555 1_555
O9_16 C24_20 1_555 1_555
O6 C25_20 1_555 1_555
C17_20 O9_4 1_555 1_555
C24_20 O24_16 1_555 1_555
C25_20 O25 1_555 1_555
C28_20 C17_20 1_555 1_555
C35_20 C24_20 1_555 1_555
C36_20 C25_20 1_555 1_555
C39_20 C28_20 1_555 1_555
C46_20 C35_20 1_555 1_555
C47_20 C36_20 1_555 1_555
H16_20 C39_20 1_555 1_555
H23_20 C46_20 1_555 1_555
H24_20 C47_20 1_555 1_555
C52_20 C39_20 1_555 1_555
C57_20 C46_20 1_555 1_555
C58_20 C47_20 1_555 1_555
C63_20 C52_20 1_555 1_555
C66_20 C58_20 1_555 1_555
C69_20 C57_20 1_555 1_555
C74_20 C63_20 1_555 1_555
C77_20 C66_20 1_555 1_555
C80_20 C69_20 1_555 1_555
H29_20 C74_20 1_555 1_555
H32_20 C77_20 1_555 1_555
H35_20 C80_20 1_555 1_555
C83_20 C28_20 1_555 1_555
C88_20 C36_20 1_555 1_555
C91_20 C35_20 1_555 1_555
H38_20 C83_20 1_555 1_555
H43_20 C88_20 1_555 1_555
H46_20 C91_20 1_555 1_555
C96_20 C52_20 1_555 1_555
C99_20 C57_20 1_555 1_555
C102_20 C58_20 1_555 1_555
C107_20 C96_20 1_555 1_555
C110_20 C99_20 1_555 1_555
C113_20 C102_20 1_555 1_555
C118_20 C63_20 1_555 1_555
C121_20 C66_20 1_555 1_555
C124_20 C69_20 1_555 1_555
C129_20 C96_20 1_555 1_555
C132_20 C99_20 1_555 1_555
C135_20 C102_20 1_555 1_555
H51_20 C129_20 1_555 1_555
H54_20 C132_20 1_555 1_555
H57_20 C135_20 1_555 1_555
H62_20 C129_20 1_555 1_555
H65_20 C132_20 1_555 1_555
H68_20 C135_20 1_555 1_555
C140_20 C129_20 1_555 1_555
C143_20 C132_20 1_555 1_555
C146_20 C135_20 1_555 1_555
H73_20 C140_20 1_555 1_555
H76_20 C143_20 1_555 1_555
H79_20 C146_20 1_555 1_555
H84_20 C140_20 1_555 1_555
H87_20 C143_20 1_555 1_555
H90_20 C146_20 1_555 1_555
H95_20 C140_20 1_555 1_555
H98_20 C143_20 1_555 1_555
H101_20 C146_20 1_555 1_555
C151_20 C96_20 1_555 1_555
C154_20 C99_20 1_555 1_555
C157_20 C102_20 1_555 1_555
H106_20 C151_20 1_555 1_555
H109_20 C154_20 1_555 1_555
H112_20 C157_20 1_555 1_555
H117_20 C151_20 1_555 1_555
H120_20 C154_20 1_555 1_555
H123_20 C157_20 1_555 1_555
C162_20 C151_20 1_555 1_555
C165_20 C154_20 1_555 1_555
C168_20 C157_20 1_555 1_555
H128_20 C162_20 1_555 1_555
H131_20 C165_20 1_555 1_555
H134_20 C168_20 1_555 1_555
H139_20 C162_20 1_555 1_555
H142_20 C165_20 1_555 1_555
H145_20 C168_20 1_555 1_555
H150_20 C162_20 1_555 1_555
H153_20 C165_20 1_555 1_555
H156_20 C168_20 1_555 1_555
O24_4 C17_20 1_555 1_555
C74_20 C83_20 1_555 1_555
C77_20 C88_20 1_555 1_555
C80_20 C91_20 1_555 1_555
C107_20 C118_20 1_555 1_555
C107_20 C121_20 1_555 1_555
C110_20 C118_20 1_555 1_555
C110_20 C124_20 1_555 1_555
C113_20 C121_20 1_555 1_555
C113_20 C124_20 1_555 1_555
O9_5 C24_21 1_555 1_555
O9_17 C25_21 1_555 1_555
C17_21 O5_13 1_555 1_555
C24_21 O24_5 1_555 1_555
C25_21 O24_17 1_555 1_555
C28_21 C17_21 1_555 1_555
C35_21 C24_21 1_555 1_555
C36_21 C25_21 1_555 1_555
C39_21 C28_21 1_555 1_555
C46_21 C35_21 1_555 1_555
C47_21 C36_21 1_555 1_555
H16_21 C39_21 1_555 1_555
H23_21 C46_21 1_555 1_555
H24_21 C47_21 1_555 1_555
C52_21 C39_21 1_555 1_555
C57_21 C46_21 1_555 1_555
C58_21 C47_21 1_555 1_555
C63_21 C52_21 1_555 1_555
C66_21 C58_21 1_555 1_555
C69_21 C57_21 1_555 1_555
C74_21 C63_21 1_555 1_555
C77_21 C66_21 1_555 1_555
C80_21 C69_21 1_555 1_555
H29_21 C74_21 1_555 1_555
H32_21 C77_21 1_555 1_555
H35_21 C80_21 1_555 1_555
C83_21 C28_21 1_555 1_555
C88_21 C36_21 1_555 1_555
C91_21 C35_21 1_555 1_555
H38_21 C83_21 1_555 1_555
H43_21 C88_21 1_555 1_555
H46_21 C91_21 1_555 1_555
C96_21 C52_21 1_555 1_555
C99_21 C57_21 1_555 1_555
C102_21 C58_21 1_555 1_555
C107_21 C96_21 1_555 1_555
C110_21 C99_21 1_555 1_555
C113_21 C102_21 1_555 1_555
C118_21 C63_21 1_555 1_555
C121_21 C66_21 1_555 1_555
C124_21 C69_21 1_555 1_555
C129_21 C96_21 1_555 1_555
C132_21 C99_21 1_555 1_555
C135_21 C102_21 1_555 1_555
H51_21 C129_21 1_555 1_555
H54_21 C132_21 1_555 1_555
H57_21 C135_21 1_555 1_555
H62_21 C129_21 1_555 1_555
H65_21 C132_21 1_555 1_555
H68_21 C135_21 1_555 1_555
C140_21 C129_21 1_555 1_555
C143_21 C132_21 1_555 1_555
C146_21 C135_21 1_555 1_555
H73_21 C140_21 1_555 1_555
H76_21 C143_21 1_555 1_555
H79_21 C146_21 1_555 1_555
H84_21 C140_21 1_555 1_555
H87_21 C143_21 1_555 1_555
H90_21 C146_21 1_555 1_555
H95_21 C140_21 1_555 1_555
H98_21 C143_21 1_555 1_555
H101_21 C146_21 1_555 1_555
C151_21 C96_21 1_555 1_555
C154_21 C99_21 1_555 1_555
C157_21 C102_21 1_555 1_555
H106_21 C151_21 1_555 1_555
H109_21 C154_21 1_555 1_555
H112_21 C157_21 1_555 1_555
H117_21 C151_21 1_555 1_555
H120_21 C154_21 1_555 1_555
H123_21 C157_21 1_555 1_555
C162_21 C151_21 1_555 1_555
C165_21 C154_21 1_555 1_555
C168_21 C157_21 1_555 1_555
H128_21 C162_21 1_555 1_555
H131_21 C165_21 1_555 1_555
H134_21 C168_21 1_555 1_555
H139_21 C162_21 1_555 1_555
H142_21 C165_21 1_555 1_555
H145_21 C168_21 1_555 1_555
H150_21 C162_21 1_555 1_555
H153_21 C165_21 1_555 1_555
H156_21 C168_21 1_555 1_555
O22_13 C17_21 1_555 1_555
C74_21 C83_21 1_555 1_555
C77_21 C88_21 1_555 1_555
C80_21 C91_21 1_555 1_555
C107_21 C118_21 1_555 1_555
C107_21 C121_21 1_555 1_555
C110_21 C118_21 1_555 1_555
C110_21 C124_21 1_555 1_555
C113_21 C121_21 1_555 1_555
C113_21 C124_21 1_555 1_555
O4_28 Cd15_3 1_555 1_555
Cd10_2 O4_28 1_555 1_555
Cd12_2 O4_28 1_555 1_555
O9_18 Cd16_3 1_555 1_555
O24_18 Cd16_3 1_555 1_555
O4_28 Cd16_3 1_555 1_555
Cd12_2 O24_18 1_555 1_555
O4_29 Cd15_4 1_555 1_555
Cd10_3 O4_29 1_555 1_555
Cd12_3 O4_29 1_555 1_555
O4_29 Cd16_4 1_555 1_555
O4_30 Cd5_7 1_555 1_555
Cd18_3 O4_30 1_555 1_555
Cd17_3 O4_30 1_555 1_555
O5_18 Cd5_7 1_555 1_555
O22_18 Cd5_7 1_555 1_555
O4_30 Cd6_7 1_555 1_555
Cd6_7 O22_18 1_555 1_555
O4_31 Cd5_8 1_555 1_555
Cd18_4 O4_31 1_555 1_555
Cd17_4 O4_31 1_555 1_555
O4_31 Cd6_8 1_555 1_555
O5_18 C24_22 1_555 1_555
O6_18 C25_22 1_555 1_555
C17_22 O6_7 1_555 1_555
C24_22 O22_18 1_555 1_555
C25_22 O25_18 1_555 1_555
C28_22 C17_22 1_555 1_555
C35_22 C24_22 1_555 1_555
C36_22 C25_22 1_555 1_555
C39_22 C28_22 1_555 1_555
C46_22 C35_22 1_555 1_555
C47_22 C36_22 1_555 1_555
H16_22 C39_22 1_555 1_555
H23_22 C46_22 1_555 1_555
H24_22 C47_22 1_555 1_555
C52_22 C39_22 1_555 1_555
C57_22 C46_22 1_555 1_555
C58_22 C47_22 1_555 1_555
C63_22 C52_22 1_555 1_555
C66_22 C58_22 1_555 1_555
C69_22 C57_22 1_555 1_555
C74_22 C63_22 1_555 1_555
C77_22 C66_22 1_555 1_555
C80_22 C69_22 1_555 1_555
H29_22 C74_22 1_555 1_555
H32_22 C77_22 1_555 1_555
H35_22 C80_22 1_555 1_555
C83_22 C28_22 1_555 1_555
C88_22 C36_22 1_555 1_555
C91_22 C35_22 1_555 1_555
H38_22 C83_22 1_555 1_555
H43_22 C88_22 1_555 1_555
H46_22 C91_22 1_555 1_555
C96_22 C52_22 1_555 1_555
C99_22 C57_22 1_555 1_555
C102_22 C58_22 1_555 1_555
C107_22 C96_22 1_555 1_555
C110_22 C99_22 1_555 1_555
C113_22 C102_22 1_555 1_555
C118_22 C63_22 1_555 1_555
C121_22 C66_22 1_555 1_555
C124_22 C69_22 1_555 1_555
C129_22 C96_22 1_555 1_555
C132_22 C99_22 1_555 1_555
C135_22 C102_22 1_555 1_555
H51_22 C129_22 1_555 1_555
H54_22 C132_22 1_555 1_555
H57_22 C135_22 1_555 1_555
H62_22 C129_22 1_555 1_555
H65_22 C132_22 1_555 1_555
H68_22 C135_22 1_555 1_555
C140_22 C129_22 1_555 1_555
C143_22 C132_22 1_555 1_555
C146_22 C135_22 1_555 1_555
H73_22 C140_22 1_555 1_555
H76_22 C143_22 1_555 1_555
H79_22 C146_22 1_555 1_555
H84_22 C140_22 1_555 1_555
H87_22 C143_22 1_555 1_555
H90_22 C146_22 1_555 1_555
H95_22 C140_22 1_555 1_555
H98_22 C143_22 1_555 1_555
H101_22 C146_22 1_555 1_555
C151_22 C96_22 1_555 1_555
C154_22 C99_22 1_555 1_555
C157_22 C102_22 1_555 1_555
H106_22 C151_22 1_555 1_555
H109_22 C154_22 1_555 1_555
H112_22 C157_22 1_555 1_555
H117_22 C151_22 1_555 1_555
H120_22 C154_22 1_555 1_555
H123_22 C157_22 1_555 1_555
C162_22 C151_22 1_555 1_555
C165_22 C154_22 1_555 1_555
C168_22 C157_22 1_555 1_555
H128_22 C162_22 1_555 1_555
H131_22 C165_22 1_555 1_555
H134_22 C168_22 1_555 1_555
H139_22 C162_22 1_555 1_555
H142_22 C165_22 1_555 1_555
H145_22 C168_22 1_555 1_555
H150_22 C162_22 1_555 1_555
H153_22 C165_22 1_555 1_555
H156_22 C168_22 1_555 1_555
O25_7 C17_22 1_555 1_555
C74_22 C83_22 1_555 1_555
C77_22 C88_22 1_555 1_555
C80_22 C91_22 1_555 1_555
C107_22 C118_22 1_555 1_555
C107_22 C121_22 1_555 1_555
C110_22 C118_22 1_555 1_555
C110_22 C124_22 1_555 1_555
C113_22 C121_22 1_555 1_555
C113_22 C124_22 1_555 1_555
O5_16 C24_23 1_555 1_555
O6_16 C25_23 1_555 1_555
C17_23 O5_4 1_555 1_555
C24_23 O22_16 1_555 1_555
C25_23 O25_16 1_555 1_555
C28_23 C17_23 1_555 1_555
C35_23 C24_23 1_555 1_555
C36_23 C25_23 1_555 1_555
C39_23 C28_23 1_555 1_555
C46_23 C35_23 1_555 1_555
C47_23 C36_23 1_555 1_555
H16_23 C39_23 1_555 1_555
H23_23 C46_23 1_555 1_555
H24_23 C47_23 1_555 1_555
C52_23 C39_23 1_555 1_555
C57_23 C46_23 1_555 1_555
C58_23 C47_23 1_555 1_555
C63_23 C52_23 1_555 1_555
C66_23 C58_23 1_555 1_555
C69_23 C57_23 1_555 1_555
C74_23 C63_23 1_555 1_555
C77_23 C66_23 1_555 1_555
C80_23 C69_23 1_555 1_555
H29_23 C74_23 1_555 1_555
H32_23 C77_23 1_555 1_555
H35_23 C80_23 1_555 1_555
C83_23 C28_23 1_555 1_555
C88_23 C36_23 1_555 1_555
C91_23 C35_23 1_555 1_555
H38_23 C83_23 1_555 1_555
H43_23 C88_23 1_555 1_555
H46_23 C91_23 1_555 1_555
C96_23 C52_23 1_555 1_555
C99_23 C57_23 1_555 1_555
C102_23 C58_23 1_555 1_555
C107_23 C96_23 1_555 1_555
C110_23 C99_23 1_555 1_555
C113_23 C102_23 1_555 1_555
C118_23 C63_23 1_555 1_555
C121_23 C66_23 1_555 1_555
C124_23 C69_23 1_555 1_555
C129_23 C96_23 1_555 1_555
C132_23 C99_23 1_555 1_555
C135_23 C102_23 1_555 1_555
H51_23 C129_23 1_555 1_555
H54_23 C132_23 1_555 1_555
H57_23 C135_23 1_555 1_555
H62_23 C129_23 1_555 1_555
H65_23 C132_23 1_555 1_555
H68_23 C135_23 1_555 1_555
C140_23 C129_23 1_555 1_555
C143_23 C132_23 1_555 1_555
C146_23 C135_23 1_555 1_555
H73_23 C140_23 1_555 1_555
H76_23 C143_23 1_555 1_555
H79_23 C146_23 1_555 1_555
H84_23 C140_23 1_555 1_555
H87_23 C143_23 1_555 1_555
H90_23 C146_23 1_555 1_555
H95_23 C140_23 1_555 1_555
H98_23 C143_23 1_555 1_555
H101_23 C146_23 1_555 1_555
C151_23 C96_23 1_555 1_555
C154_23 C99_23 1_555 1_555
C157_23 C102_23 1_555 1_555
H106_23 C151_23 1_555 1_555
H109_23 C154_23 1_555 1_555
H112_23 C157_23 1_555 1_555
H117_23 C151_23 1_555 1_555
H120_23 C154_23 1_555 1_555
H123_23 C157_23 1_555 1_555
C162_23 C151_23 1_555 1_555
C165_23 C154_23 1_555 1_555
C168_23 C157_23 1_555 1_555
H128_23 C162_23 1_555 1_555
H131_23 C165_23 1_555 1_555
H134_23 C168_23 1_555 1_555
H139_23 C162_23 1_555 1_555
H142_23 C165_23 1_555 1_555
H145_23 C168_23 1_555 1_555
H150_23 C162_23 1_555 1_555
H153_23 C165_23 1_555 1_555
H156_23 C168_23 1_555 1_555
O22_4 C17_23 1_555 1_555
C74_23 C83_23 1_555 1_555
C77_23 C88_23 1_555 1_555
C80_23 C91_23 1_555 1_555
C107_23 C118_23 1_555 1_555
C107_23 C121_23 1_555 1_555
C110_23 C118_23 1_555 1_555
C110_23 C124_23 1_555 1_555
C113_23 C121_23 1_555 1_555
C113_23 C124_23 1_555 1_555
O5_5 C24_24 1_555 1_555
O6_8 C25_24 1_555 1_555
C17_24 O6_17 1_555 1_555
C24_24 O22_5 1_555 1_555
C25_24 O25_8 1_555 1_555
C28_24 C17_24 1_555 1_555
C35_24 C24_24 1_555 1_555
C36_24 C25_24 1_555 1_555
C39_24 C28_24 1_555 1_555
C46_24 C35_24 1_555 1_555
C47_24 C36_24 1_555 1_555
H16_24 C39_24 1_555 1_555
H23_24 C46_24 1_555 1_555
H24_24 C47_24 1_555 1_555
C52_24 C39_24 1_555 1_555
C57_24 C46_24 1_555 1_555
C58_24 C47_24 1_555 1_555
C63_24 C52_24 1_555 1_555
C66_24 C58_24 1_555 1_555
C69_24 C57_24 1_555 1_555
C74_24 C63_24 1_555 1_555
C77_24 C66_24 1_555 1_555
C80_24 C69_24 1_555 1_555
H29_24 C74_24 1_555 1_555
H32_24 C77_24 1_555 1_555
H35_24 C80_24 1_555 1_555
C83_24 C28_24 1_555 1_555
C88_24 C36_24 1_555 1_555
C91_24 C35_24 1_555 1_555
H38_24 C83_24 1_555 1_555
H43_24 C88_24 1_555 1_555
H46_24 C91_24 1_555 1_555
C96_24 C52_24 1_555 1_555
C99_24 C57_24 1_555 1_555
C102_24 C58_24 1_555 1_555
C107_24 C96_24 1_555 1_555
C110_24 C99_24 1_555 1_555
C113_24 C102_24 1_555 1_555
C118_24 C63_24 1_555 1_555
C121_24 C66_24 1_555 1_555
C124_24 C69_24 1_555 1_555
C129_24 C96_24 1_555 1_555
C132_24 C99_24 1_555 1_555
C135_24 C102_24 1_555 1_555
H51_24 C129_24 1_555 1_555
H54_24 C132_24 1_555 1_555
H57_24 C135_24 1_555 1_555
H62_24 C129_24 1_555 1_555
H65_24 C132_24 1_555 1_555
H68_24 C135_24 1_555 1_555
C140_24 C129_24 1_555 1_555
C143_24 C132_24 1_555 1_555
C146_24 C135_24 1_555 1_555
H73_24 C140_24 1_555 1_555
H76_24 C143_24 1_555 1_555
H79_24 C146_24 1_555 1_555
H84_24 C140_24 1_555 1_555
H87_24 C143_24 1_555 1_555
H90_24 C146_24 1_555 1_555
H95_24 C140_24 1_555 1_555
H98_24 C143_24 1_555 1_555
H101_24 C146_24 1_555 1_555
C151_24 C96_24 1_555 1_555
C154_24 C99_24 1_555 1_555
C157_24 C102_24 1_555 1_555
H106_24 C151_24 1_555 1_555
H109_24 C154_24 1_555 1_555
H112_24 C157_24 1_555 1_555
H117_24 C151_24 1_555 1_555
H120_24 C154_24 1_555 1_555
H123_24 C157_24 1_555 1_555
C162_24 C151_24 1_555 1_555
C165_24 C154_24 1_555 1_555
C168_24 C157_24 1_555 1_555
H128_24 C162_24 1_555 1_555
H131_24 C165_24 1_555 1_555
H134_24 C168_24 1_555 1_555
H139_24 C162_24 1_555 1_555
H142_24 C165_24 1_555 1_555
H145_24 C168_24 1_555 1_555
H150_24 C162_24 1_555 1_555
H153_24 C165_24 1_555 1_555
H156_24 C168_24 1_555 1_555
O25_17 C17_24 1_555 1_555
C74_24 C83_24 1_555 1_555
C77_24 C88_24 1_555 1_555
C80_24 C91_24 1_555 1_555
C107_24 C118_24 1_555 1_555
C107_24 C121_24 1_555 1_555
C110_24 C118_24 1_555 1_555
C110_24 C124_24 1_555 1_555
C113_24 C121_24 1_555 1_555
C113_24 C124_24 1_555 1_555
O9_12 C24_25 1_555 1_555
O9_18 C25_25 1_555 1_555
C17_25 O6_2 1_555 1_555
C24_25 O24_12 1_555 1_555
C25_25 O24_18 1_555 1_555
C28_25 C17_25 1_555 1_555
C35_25 C24_25 1_555 1_555
C36_25 C25_25 1_555 1_555
C39_25 C28_25 1_555 1_555
C46_25 C35_25 1_555 1_555
C47_25 C36_25 1_555 1_555
H16_25 C39_25 1_555 1_555
H23_25 C46_25 1_555 1_555
H24_25 C47_25 1_555 1_555
C52_25 C39_25 1_555 1_555
C57_25 C46_25 1_555 1_555
C58_25 C47_25 1_555 1_555
C63_25 C52_25 1_555 1_555
C66_25 C58_25 1_555 1_555
C69_25 C57_25 1_555 1_555
C74_25 C63_25 1_555 1_555
C77_25 C66_25 1_555 1_555
C80_25 C69_25 1_555 1_555
H29_25 C74_25 1_555 1_555
H32_25 C77_25 1_555 1_555
H35_25 C80_25 1_555 1_555
C83_25 C28_25 1_555 1_555
C88_25 C36_25 1_555 1_555
C91_25 C35_25 1_555 1_555
H38_25 C83_25 1_555 1_555
H43_25 C88_25 1_555 1_555
H46_25 C91_25 1_555 1_555
C96_25 C52_25 1_555 1_555
C99_25 C57_25 1_555 1_555
C102_25 C58_25 1_555 1_555
C107_25 C96_25 1_555 1_555
C110_25 C99_25 1_555 1_555
C113_25 C102_25 1_555 1_555
C118_25 C63_25 1_555 1_555
C121_25 C66_25 1_555 1_555
C124_25 C69_25 1_555 1_555
C129_25 C96_25 1_555 1_555
C132_25 C99_25 1_555 1_555
C135_25 C102_25 1_555 1_555
H51_25 C129_25 1_555 1_555
H54_25 C132_25 1_555 1_555
H57_25 C135_25 1_555 1_555
H62_25 C129_25 1_555 1_555
H65_25 C132_25 1_555 1_555
H68_25 C135_25 1_555 1_555
C140_25 C129_25 1_555 1_555
C143_25 C132_25 1_555 1_555
C146_25 C135_25 1_555 1_555
H73_25 C140_25 1_555 1_555
H76_25 C143_25 1_555 1_555
H79_25 C146_25 1_555 1_555
H84_25 C140_25 1_555 1_555
H87_25 C143_25 1_555 1_555
H90_25 C146_25 1_555 1_555
H95_25 C140_25 1_555 1_555
H98_25 C143_25 1_555 1_555
H101_25 C146_25 1_555 1_555
C151_25 C96_25 1_555 1_555
C154_25 C99_25 1_555 1_555
C157_25 C102_25 1_555 1_555
H106_25 C151_25 1_555 1_555
H109_25 C154_25 1_555 1_555
H112_25 C157_25 1_555 1_555
H117_25 C151_25 1_555 1_555
H120_25 C154_25 1_555 1_555
H123_25 C157_25 1_555 1_555
C162_25 C151_25 1_555 1_555
C165_25 C154_25 1_555 1_555
C168_25 C157_25 1_555 1_555
H128_25 C162_25 1_555 1_555
H131_25 C165_25 1_555 1_555
H134_25 C168_25 1_555 1_555
H139_25 C162_25 1_555 1_555
H142_25 C165_25 1_555 1_555
H145_25 C168_25 1_555 1_555
H150_25 C162_25 1_555 1_555
H153_25 C165_25 1_555 1_555
H156_25 C168_25 1_555 1_555
O25_2 C17_25 1_555 1_555
C74_25 C83_25 1_555 1_555
C77_25 C88_25 1_555 1_555
C80_25 C91_25 1_555 1_555
C107_25 C118_25 1_555 1_555
C107_25 C121_25 1_555 1_555
C110_25 C118_25 1_555 1_555
C110_25 C124_25 1_555 1_555
C113_25 C121_25 1_555 1_555
C113_25 C124_25 1_555 1_555
O4_32 Cd15_5 1_555 1_555
Cd6_11 O4_32 1_555 1_555
Cd5_11 O4_32 1_555 1_555
Cd5 O18_16 1_555 1_555
Cd6 O33_16 1_555 1_555
Cd18_5 O19_14 1_555 1_555
Cd12_4 O34_14 1_555 1_555
O11_12 Cd6_11 1_555 1_555
O18_16 C24_26 1_555 1_555
O19_14 C25_26 1_555 1_555
O21_12 Cd15_5 1_555 1_555
O33_16 Cd5 1_555 1_555
O34_14 Cd18_5 1_555 1_555
C17_26 O11_12 1_555 1_555
C24_26 O33_16 1_555 1_555
C25_26 O34_14 1_555 1_555
C28_26 C17_26 1_555 1_555
C35_26 C24_26 1_555 1_555
C36_26 C25_26 1_555 1_555
C39_26 C28_26 1_555 1_555
C46_26 C35_26 1_555 1_555
C47_26 C36_26 1_555 1_555
H16_26 C39_26 1_555 1_555
H23_26 C46_26 1_555 1_555
H24_26 C47_26 1_555 1_555
C52_26 C39_26 1_555 1_555
C57_26 C46_26 1_555 1_555
C58_26 C47_26 1_555 1_555
C63_26 C52_26 1_555 1_555
C66_26 C58_26 1_555 1_555
C69_26 C57_26 1_555 1_555
C74_26 C63_26 1_555 1_555
C77_26 C66_26 1_555 1_555
C80_26 C69_26 1_555 1_555
H29_26 C74_26 1_555 1_555
H32_26 C77_26 1_555 1_555
H35_26 C80_26 1_555 1_555
C83_26 C28_26 1_555 1_555
C88_26 C36_26 1_555 1_555
C91_26 C35_26 1_555 1_555
H38_26 C83_26 1_555 1_555
H43_26 C88_26 1_555 1_555
H46_26 C91_26 1_555 1_555
C96_26 C52_26 1_555 1_555
C99_26 C57_26 1_555 1_555
C102_26 C58_26 1_555 1_555
C107_26 C96_26 1_555 1_555
C110_26 C99_26 1_555 1_555
C113_26 C102_26 1_555 1_555
C118_26 C63_26 1_555 1_555
C121_26 C66_26 1_555 1_555
C124_26 C69_26 1_555 1_555
C129_26 C96_26 1_555 1_555
C132_26 C99_26 1_555 1_555
C135_26 C102_26 1_555 1_555
H51_26 C129_26 1_555 1_555
H54_26 C132_26 1_555 1_555
H57_26 C135_26 1_555 1_555
H62_26 C129_26 1_555 1_555
H65_26 C132_26 1_555 1_555
H68_26 C135_26 1_555 1_555
C140_26 C129_26 1_555 1_555
C143_26 C132_26 1_555 1_555
C146_26 C135_26 1_555 1_555
H73_26 C140_26 1_555 1_555
H76_26 C143_26 1_555 1_555
H79_26 C146_26 1_555 1_555
H84_26 C140_26 1_555 1_555
H87_26 C143_26 1_555 1_555
H90_26 C146_26 1_555 1_555
H95_26 C140_26 1_555 1_555
H98_26 C143_26 1_555 1_555
H101_26 C146_26 1_555 1_555
C151_26 C96_26 1_555 1_555
C154_26 C99_26 1_555 1_555
C157_26 C102_26 1_555 1_555
H106_26 C151_26 1_555 1_555
H109_26 C154_26 1_555 1_555
H112_26 C157_26 1_555 1_555
H117_26 C151_26 1_555 1_555
H120_26 C154_26 1_555 1_555
H123_26 C157_26 1_555 1_555
C162_26 C151_26 1_555 1_555
C165_26 C154_26 1_555 1_555
C168_26 C157_26 1_555 1_555
H128_26 C162_26 1_555 1_555
H131_26 C165_26 1_555 1_555
H134_26 C168_26 1_555 1_555
H139_26 C162_26 1_555 1_555
H142_26 C165_26 1_555 1_555
H145_26 C168_26 1_555 1_555
H150_26 C162_26 1_555 1_555
H153_26 C165_26 1_555 1_555
H156_26 C168_26 1_555 1_555
O4_32 Cd16_5 1_555 1_555
Cd6_11 O21_12 1_555 1_555
O21_12 C17_26 1_555 1_555
C74_26 C83_26 1_555 1_555
C77_26 C88_26 1_555 1_555
C80_26 C91_26 1_555 1_555
C107_26 C118_26 1_555 1_555
C107_26 C121_26 1_555 1_555
C110_26 C118_26 1_555 1_555
C110_26 C124_26 1_555 1_555
C113_26 C121_26 1_555 1_555
C113_26 C124_26 1_555 1_555
O4_33 Cd15_6 1_555 1_555
Cd6_12 O4_33 1_555 1_555
Cd5_12 O4_33 1_555 1_555
O4_33 Cd16_6 1_555 1_555
O9_10 C24_27 1_555 1_555
O6_13 C25_27 1_555 1_555
C17_27 O9_14 1_555 1_555
C24_27 O24_10 1_555 1_555
C25_27 O25_13 1_555 1_555
C28_27 C17_27 1_555 1_555
C35_27 C24_27 1_555 1_555
C36_27 C25_27 1_555 1_555
C39_27 C28_27 1_555 1_555
C46_27 C35_27 1_555 1_555
C47_27 C36_27 1_555 1_555
H16_27 C39_27 1_555 1_555
H23_27 C46_27 1_555 1_555
H24_27 C47_27 1_555 1_555
C52_27 C39_27 1_555 1_555
C57_27 C46_27 1_555 1_555
C58_27 C47_27 1_555 1_555
C63_27 C52_27 1_555 1_555
C66_27 C58_27 1_555 1_555
C69_27 C57_27 1_555 1_555
C74_27 C63_27 1_555 1_555
C77_27 C66_27 1_555 1_555
C80_27 C69_27 1_555 1_555
H29_27 C74_27 1_555 1_555
H32_27 C77_27 1_555 1_555
H35_27 C80_27 1_555 1_555
C83_27 C28_27 1_555 1_555
C88_27 C36_27 1_555 1_555
C91_27 C35_27 1_555 1_555
H38_27 C83_27 1_555 1_555
H43_27 C88_27 1_555 1_555
H46_27 C91_27 1_555 1_555
C96_27 C52_27 1_555 1_555
C99_27 C57_27 1_555 1_555
C102_27 C58_27 1_555 1_555
C107_27 C96_27 1_555 1_555
C110_27 C99_27 1_555 1_555
C113_27 C102_27 1_555 1_555
C118_27 C63_27 1_555 1_555
C121_27 C66_27 1_555 1_555
C124_27 C69_27 1_555 1_555
C129_27 C96_27 1_555 1_555
C132_27 C99_27 1_555 1_555
C135_27 C102_27 1_555 1_555
H51_27 C129_27 1_555 1_555
H54_27 C132_27 1_555 1_555
H57_27 C135_27 1_555 1_555
H62_27 C129_27 1_555 1_555
H65_27 C132_27 1_555 1_555
H68_27 C135_27 1_555 1_555
C140_27 C129_27 1_555 1_555
C143_27 C132_27 1_555 1_555
C146_27 C135_27 1_555 1_555
H73_27 C140_27 1_555 1_555
H76_27 C143_27 1_555 1_555
H79_27 C146_27 1_555 1_555
H84_27 C140_27 1_555 1_555
H87_27 C143_27 1_555 1_555
H90_27 C146_27 1_555 1_555
H95_27 C140_27 1_555 1_555
H98_27 C143_27 1_555 1_555
H101_27 C146_27 1_555 1_555
C151_27 C96_27 1_555 1_555
C154_27 C99_27 1_555 1_555
C157_27 C102_27 1_555 1_555
H106_27 C151_27 1_555 1_555
H109_27 C154_27 1_555 1_555
H112_27 C157_27 1_555 1_555
H117_27 C151_27 1_555 1_555
H120_27 C154_27 1_555 1_555
H123_27 C157_27 1_555 1_555
C162_27 C151_27 1_555 1_555
C165_27 C154_27 1_555 1_555
C168_27 C157_27 1_555 1_555
H128_27 C162_27 1_555 1_555
H131_27 C165_27 1_555 1_555
H134_27 C168_27 1_555 1_555
H139_27 C162_27 1_555 1_555
H142_27 C165_27 1_555 1_555
H145_27 C168_27 1_555 1_555
H150_27 C162_27 1_555 1_555
H153_27 C165_27 1_555 1_555
H156_27 C168_27 1_555 1_555
O24_14 C17_27 1_555 1_555
C74_27 C83_27 1_555 1_555
C77_27 C88_27 1_555 1_555
C80_27 C91_27 1_555 1_555
C107_27 C118_27 1_555 1_555
C107_27 C121_27 1_555 1_555
C110_27 C118_27 1_555 1_555
C110_27 C124_27 1_555 1_555
C113_27 C121_27 1_555 1_555
C113_27 C124_27 1_555 1_555
O9_15 C24_28 1_555 1_555
O9_11 C25_28 1_555 1_555
C17_28 O5 1_555 1_555
C24_28 O24_15 1_555 1_555
C25_28 O24_11 1_555 1_555
C28_28 C17_28 1_555 1_555
C35_28 C24_28 1_555 1_555
C36_28 C25_28 1_555 1_555
C39_28 C28_28 1_555 1_555
C46_28 C35_28 1_555 1_555
C47_28 C36_28 1_555 1_555
H16_28 C39_28 1_555 1_555
H23_28 C46_28 1_555 1_555
H24_28 C47_28 1_555 1_555
C52_28 C39_28 1_555 1_555
C57_28 C46_28 1_555 1_555
C58_28 C47_28 1_555 1_555
C63_28 C52_28 1_555 1_555
C66_28 C58_28 1_555 1_555
C69_28 C57_28 1_555 1_555
C74_28 C63_28 1_555 1_555
C77_28 C66_28 1_555 1_555
C80_28 C69_28 1_555 1_555
H29_28 C74_28 1_555 1_555
H32_28 C77_28 1_555 1_555
H35_28 C80_28 1_555 1_555
C83_28 C28_28 1_555 1_555
C88_28 C36_28 1_555 1_555
C91_28 C35_28 1_555 1_555
H38_28 C83_28 1_555 1_555
H43_28 C88_28 1_555 1_555
H46_28 C91_28 1_555 1_555
C96_28 C52_28 1_555 1_555
C99_28 C57_28 1_555 1_555
C102_28 C58_28 1_555 1_555
C107_28 C96_28 1_555 1_555
C110_28 C99_28 1_555 1_555
C113_28 C102_28 1_555 1_555
C118_28 C63_28 1_555 1_555
C121_28 C66_28 1_555 1_555
C124_28 C69_28 1_555 1_555
C129_28 C96_28 1_555 1_555
C132_28 C99_28 1_555 1_555
C135_28 C102_28 1_555 1_555
H51_28 C129_28 1_555 1_555
H54_28 C132_28 1_555 1_555
H57_28 C135_28 1_555 1_555
H62_28 C129_28 1_555 1_555
H65_28 C132_28 1_555 1_555
H68_28 C135_28 1_555 1_555
C140_28 C129_28 1_555 1_555
C143_28 C132_28 1_555 1_555
C146_28 C135_28 1_555 1_555
H73_28 C140_28 1_555 1_555
H76_28 C143_28 1_555 1_555
H79_28 C146_28 1_555 1_555
H84_28 C140_28 1_555 1_555
H87_28 C143_28 1_555 1_555
H90_28 C146_28 1_555 1_555
H95_28 C140_28 1_555 1_555
H98_28 C143_28 1_555 1_555
H101_28 C146_28 1_555 1_555
C151_28 C96_28 1_555 1_555
C154_28 C99_28 1_555 1_555
C157_28 C102_28 1_555 1_555
H106_28 C151_28 1_555 1_555
H109_28 C154_28 1_555 1_555
H112_28 C157_28 1_555 1_555
H117_28 C151_28 1_555 1_555
H120_28 C154_28 1_555 1_555
H123_28 C157_28 1_555 1_555
C162_28 C151_28 1_555 1_555
C165_28 C154_28 1_555 1_555
C168_28 C157_28 1_555 1_555
H128_28 C162_28 1_555 1_555
H131_28 C165_28 1_555 1_555
H134_28 C168_28 1_555 1_555
H139_28 C162_28 1_555 1_555
H142_28 C165_28 1_555 1_555
H145_28 C168_28 1_555 1_555
H150_28 C162_28 1_555 1_555
H153_28 C165_28 1_555 1_555
H156_28 C168_28 1_555 1_555
O22 C17_28 1_555 1_555
C74_28 C83_28 1_555 1_555
C77_28 C88_28 1_555 1_555
C80_28 C91_28 1_555 1_555
C107_28 C118_28 1_555 1_555
C107_28 C121_28 1_555 1_555
C110_28 C118_28 1_555 1_555
C110_28 C124_28 1_555 1_555
C113_28 C121_28 1_555 1_555
C113_28 C124_28 1_555 1_555
O4_34 Cd12_4 1_555 1_555
Cd18_5 O4_34 1_555 1_555
Cd17_5 O4_34 1_555 1_555
O4_34 Cd10_4 1_555 1_555
O4_35 Cd12_5 1_555 1_555
Cd18_6 O4_35 1_555 1_555
Cd17_6 O4_35 1_555 1_555
O4_35 Cd10_5 1_555 1_555
O4_36 Cd6 1_555 1_555
Cd5 O4_36 1_555 1_555
Cd9 O4_36 1_555 1_555
O4_36 Cd11_2 1_555 1_555
O5_17 C24_29 1_555 1_555
O6_14 C25_29 1_555 1_555
C17_29 O9_13 1_555 1_555
C24_29 O22_17 1_555 1_555
C25_29 O25_14 1_555 1_555
C28_29 C17_29 1_555 1_555
C35_29 C24_29 1_555 1_555
C36_29 C25_29 1_555 1_555
C39_29 C28_29 1_555 1_555
C46_29 C35_29 1_555 1_555
C47_29 C36_29 1_555 1_555
H16_29 C39_29 1_555 1_555
H23_29 C46_29 1_555 1_555
H24_29 C47_29 1_555 1_555
C52_29 C39_29 1_555 1_555
C57_29 C46_29 1_555 1_555
C58_29 C47_29 1_555 1_555
C63_29 C52_29 1_555 1_555
C66_29 C58_29 1_555 1_555
C69_29 C57_29 1_555 1_555
C74_29 C63_29 1_555 1_555
C77_29 C66_29 1_555 1_555
C80_29 C69_29 1_555 1_555
H29_29 C74_29 1_555 1_555
H32_29 C77_29 1_555 1_555
H35_29 C80_29 1_555 1_555
C83_29 C28_29 1_555 1_555
C88_29 C36_29 1_555 1_555
C91_29 C35_29 1_555 1_555
H38_29 C83_29 1_555 1_555
H43_29 C88_29 1_555 1_555
H46_29 C91_29 1_555 1_555
C96_29 C52_29 1_555 1_555
C99_29 C57_29 1_555 1_555
C102_29 C58_29 1_555 1_555
C107_29 C96_29 1_555 1_555
C110_29 C99_29 1_555 1_555
C113_29 C102_29 1_555 1_555
C118_29 C63_29 1_555 1_555
C121_29 C66_29 1_555 1_555
C124_29 C69_29 1_555 1_555
C129_29 C96_29 1_555 1_555
C132_29 C99_29 1_555 1_555
C135_29 C102_29 1_555 1_555
H51_29 C129_29 1_555 1_555
H54_29 C132_29 1_555 1_555
H57_29 C135_29 1_555 1_555
H62_29 C129_29 1_555 1_555
H65_29 C132_29 1_555 1_555
H68_29 C135_29 1_555 1_555
C140_29 C129_29 1_555 1_555
C143_29 C132_29 1_555 1_555
C146_29 C135_29 1_555 1_555
H73_29 C140_29 1_555 1_555
H76_29 C143_29 1_555 1_555
H79_29 C146_29 1_555 1_555
H84_29 C140_29 1_555 1_555
H87_29 C143_29 1_555 1_555
H90_29 C146_29 1_555 1_555
H95_29 C140_29 1_555 1_555
H98_29 C143_29 1_555 1_555
H101_29 C146_29 1_555 1_555
C151_29 C96_29 1_555 1_555
C154_29 C99_29 1_555 1_555
C157_29 C102_29 1_555 1_555
H106_29 C151_29 1_555 1_555
H109_29 C154_29 1_555 1_555
H112_29 C157_29 1_555 1_555
H117_29 C151_29 1_555 1_555
H120_29 C154_29 1_555 1_555
H123_29 C157_29 1_555 1_555
C162_29 C151_29 1_555 1_555
C165_29 C154_29 1_555 1_555
C168_29 C157_29 1_555 1_555
H128_29 C162_29 1_555 1_555
H131_29 C165_29 1_555 1_555
H134_29 C168_29 1_555 1_555
H139_29 C162_29 1_555 1_555
H142_29 C165_29 1_555 1_555
H145_29 C168_29 1_555 1_555
H150_29 C162_29 1_555 1_555
H153_29 C165_29 1_555 1_555
H156_29 C168_29 1_555 1_555
O24_13 C17_29 1_555 1_555
C74_29 C83_29 1_555 1_555
C77_29 C88_29 1_555 1_555
C80_29 C91_29 1_555 1_555
C107_29 C118_29 1_555 1_555
C107_29 C121_29 1_555 1_555
C110_29 C118_29 1_555 1_555
C110_29 C124_29 1_555 1_555
C113_29 C121_29 1_555 1_555
C113_29 C124_29 1_555 1_555
O5_11 C24_30 1_555 1_555
O6_4 C25_30 1_555 1_555
C17_30 O9 1_555 1_555
C24_30 O22_11 1_555 1_555
C25_30 O25_4 1_555 1_555
C28_30 C17_30 1_555 1_555
C35_30 C24_30 1_555 1_555
C36_30 C25_30 1_555 1_555
C39_30 C28_30 1_555 1_555
C46_30 C35_30 1_555 1_555
C47_30 C36_30 1_555 1_555
H16_30 C39_30 1_555 1_555
H23_30 C46_30 1_555 1_555
H24_30 C47_30 1_555 1_555
C52_30 C39_30 1_555 1_555
C57_30 C46_30 1_555 1_555
C58_30 C47_30 1_555 1_555
C63_30 C52_30 1_555 1_555
C66_30 C58_30 1_555 1_555
C69_30 C57_30 1_555 1_555
C74_30 C63_30 1_555 1_555
C77_30 C66_30 1_555 1_555
C80_30 C69_30 1_555 1_555
H29_30 C74_30 1_555 1_555
H32_30 C77_30 1_555 1_555
H35_30 C80_30 1_555 1_555
C83_30 C28_30 1_555 1_555
C88_30 C36_30 1_555 1_555
C91_30 C35_30 1_555 1_555
H38_30 C83_30 1_555 1_555
H43_30 C88_30 1_555 1_555
H46_30 C91_30 1_555 1_555
C96_30 C52_30 1_555 1_555
C99_30 C57_30 1_555 1_555
C102_30 C58_30 1_555 1_555
C107_30 C96_30 1_555 1_555
C110_30 C99_30 1_555 1_555
C113_30 C102_30 1_555 1_555
C118_30 C63_30 1_555 1_555
C121_30 C66_30 1_555 1_555
C124_30 C69_30 1_555 1_555
C129_30 C96_30 1_555 1_555
C132_30 C99_30 1_555 1_555
C135_30 C102_30 1_555 1_555
H51_30 C129_30 1_555 1_555
H54_30 C132_30 1_555 1_555
H57_30 C135_30 1_555 1_555
H62_30 C129_30 1_555 1_555
H65_30 C132_30 1_555 1_555
H68_30 C135_30 1_555 1_555
C140_30 C129_30 1_555 1_555
C143_30 C132_30 1_555 1_555
C146_30 C135_30 1_555 1_555
H73_30 C140_30 1_555 1_555
H76_30 C143_30 1_555 1_555
H79_30 C146_30 1_555 1_555
H84_30 C140_30 1_555 1_555
H87_30 C143_30 1_555 1_555
H90_30 C146_30 1_555 1_555
H95_30 C140_30 1_555 1_555
H98_30 C143_30 1_555 1_555
H101_30 C146_30 1_555 1_555
C151_30 C96_30 1_555 1_555
C154_30 C99_30 1_555 1_555
C157_30 C102_30 1_555 1_555
H106_30 C151_30 1_555 1_555
H109_30 C154_30 1_555 1_555
H112_30 C157_30 1_555 1_555
H117_30 C151_30 1_555 1_555
H120_30 C154_30 1_555 1_555
H123_30 C157_30 1_555 1_555
C162_30 C151_30 1_555 1_555
C165_30 C154_30 1_555 1_555
C168_30 C157_30 1_555 1_555
H128_30 C162_30 1_555 1_555
H131_30 C165_30 1_555 1_555
H134_30 C168_30 1_555 1_555
H139_30 C162_30 1_555 1_555
H142_30 C165_30 1_555 1_555
H145_30 C168_30 1_555 1_555
H150_30 C162_30 1_555 1_555
H153_30 C165_30 1_555 1_555
H156_30 C168_30 1_555 1_555
O24 C17_30 1_555 1_555
C74_30 C83_30 1_555 1_555
C77_30 C88_30 1_555 1_555
C80_30 C91_30 1_555 1_555
C107_30 C118_30 1_555 1_555
C107_30 C121_30 1_555 1_555
C110_30 C118_30 1_555 1_555
C110_30 C124_30 1_555 1_555
C113_30 C121_30 1_555 1_555
C113_30 C124_30 1_555 1_555
O6_12 C24_31 1_555 1_555
O9_2 C25_31 1_555 1_555
C17_31 O5_7 1_555 1_555
C24_31 O25_12 1_555 1_555
C25_31 O24_2 1_555 1_555
C28_31 C17_31 1_555 1_555
C35_31 C24_31 1_555 1_555
C36_31 C25_31 1_555 1_555
C39_31 C28_31 1_555 1_555
C46_31 C35_31 1_555 1_555
C47_31 C36_31 1_555 1_555
H16_31 C39_31 1_555 1_555
H23_31 C46_31 1_555 1_555
H24_31 C47_31 1_555 1_555
C52_31 C39_31 1_555 1_555
C57_31 C46_31 1_555 1_555
C58_31 C47_31 1_555 1_555
C63_31 C52_31 1_555 1_555
C66_31 C58_31 1_555 1_555
C69_31 C57_31 1_555 1_555
C74_31 C63_31 1_555 1_555
C77_31 C66_31 1_555 1_555
C80_31 C69_31 1_555 1_555
H29_31 C74_31 1_555 1_555
H32_31 C77_31 1_555 1_555
H35_31 C80_31 1_555 1_555
C83_31 C28_31 1_555 1_555
C88_31 C36_31 1_555 1_555
C91_31 C35_31 1_555 1_555
H38_31 C83_31 1_555 1_555
H43_31 C88_31 1_555 1_555
H46_31 C91_31 1_555 1_555
C96_31 C52_31 1_555 1_555
C99_31 C57_31 1_555 1_555
C102_31 C58_31 1_555 1_555
C107_31 C96_31 1_555 1_555
C110_31 C99_31 1_555 1_555
C113_31 C102_31 1_555 1_555
C118_31 C63_31 1_555 1_555
C121_31 C66_31 1_555 1_555
C124_31 C69_31 1_555 1_555
C129_31 C96_31 1_555 1_555
C132_31 C99_31 1_555 1_555
C135_31 C102_31 1_555 1_555
H51_31 C129_31 1_555 1_555
H54_31 C132_31 1_555 1_555
H57_31 C135_31 1_555 1_555
H62_31 C129_31 1_555 1_555
H65_31 C132_31 1_555 1_555
H68_31 C135_31 1_555 1_555
C140_31 C129_31 1_555 1_555
C143_31 C132_31 1_555 1_555
C146_31 C135_31 1_555 1_555
H73_31 C140_31 1_555 1_555
H76_31 C143_31 1_555 1_555
H79_31 C146_31 1_555 1_555
H84_31 C140_31 1_555 1_555
H87_31 C143_31 1_555 1_555
H90_31 C146_31 1_555 1_555
H95_31 C140_31 1_555 1_555
H98_31 C143_31 1_555 1_555
H101_31 C146_31 1_555 1_555
C151_31 C96_31 1_555 1_555
C154_31 C99_31 1_555 1_555
C157_31 C102_31 1_555 1_555
H106_31 C151_31 1_555 1_555
H109_31 C154_31 1_555 1_555
H112_31 C157_31 1_555 1_555
H117_31 C151_31 1_555 1_555
H120_31 C154_31 1_555 1_555
H123_31 C157_31 1_555 1_555
C162_31 C151_31 1_555 1_555
C165_31 C154_31 1_555 1_555
C168_31 C157_31 1_555 1_555
H128_31 C162_31 1_555 1_555
H131_31 C165_31 1_555 1_555
H134_31 C168_31 1_555 1_555
H139_31 C162_31 1_555 1_555
H142_31 C165_31 1_555 1_555
H145_31 C168_31 1_555 1_555
H150_31 C162_31 1_555 1_555
H153_31 C165_31 1_555 1_555
H156_31 C168_31 1_555 1_555
O22_7 C17_31 1_555 1_555
C74_31 C83_31 1_555 1_555
C77_31 C88_31 1_555 1_555
C80_31 C91_31 1_555 1_555
C107_31 C118_31 1_555 1_555
C107_31 C121_31 1_555 1_555
C110_31 C118_31 1_555 1_555
C110_31 C124_31 1_555 1_555
C113_31 C121_31 1_555 1_555
C113_31 C124_31 1_555 1_555
O9_3 C24_32 1_555 1_555
O5_6 C25_32 1_555 1_555
C17_32 O6_9 1_555 1_555
C24_32 O24_3 1_555 1_555
C25_32 O22_6 1_555 1_555
C28_32 C17_32 1_555 1_555
C35_32 C24_32 1_555 1_555
C36_32 C25_32 1_555 1_555
C39_32 C28_32 1_555 1_555
C46_32 C35_32 1_555 1_555
C47_32 C36_32 1_555 1_555
H16_32 C39_32 1_555 1_555
H23_32 C46_32 1_555 1_555
H24_32 C47_32 1_555 1_555
C52_32 C39_32 1_555 1_555
C57_32 C46_32 1_555 1_555
C58_32 C47_32 1_555 1_555
C63_32 C52_32 1_555 1_555
C66_32 C58_32 1_555 1_555
C69_32 C57_32 1_555 1_555
C74_32 C63_32 1_555 1_555
C77_32 C66_32 1_555 1_555
C80_32 C69_32 1_555 1_555
H29_32 C74_32 1_555 1_555
H32_32 C77_32 1_555 1_555
H35_32 C80_32 1_555 1_555
C83_32 C28_32 1_555 1_555
C88_32 C36_32 1_555 1_555
C91_32 C35_32 1_555 1_555
H38_32 C83_32 1_555 1_555
H43_32 C88_32 1_555 1_555
H46_32 C91_32 1_555 1_555
C96_32 C52_32 1_555 1_555
C99_32 C57_32 1_555 1_555
C102_32 C58_32 1_555 1_555
C107_32 C96_32 1_555 1_555
C110_32 C99_32 1_555 1_555
C113_32 C102_32 1_555 1_555
C118_32 C63_32 1_555 1_555
C121_32 C66_32 1_555 1_555
C124_32 C69_32 1_555 1_555
C129_32 C96_32 1_555 1_555
C132_32 C99_32 1_555 1_555
C135_32 C102_32 1_555 1_555
H51_32 C129_32 1_555 1_555
H54_32 C132_32 1_555 1_555
H57_32 C135_32 1_555 1_555
H62_32 C129_32 1_555 1_555
H65_32 C132_32 1_555 1_555
H68_32 C135_32 1_555 1_555
C140_32 C129_32 1_555 1_555
C143_32 C132_32 1_555 1_555
C146_32 C135_32 1_555 1_555
H73_32 C140_32 1_555 1_555
H76_32 C143_32 1_555 1_555
H79_32 C146_32 1_555 1_555
H84_32 C140_32 1_555 1_555
H87_32 C143_32 1_555 1_555
H90_32 C146_32 1_555 1_555
H95_32 C140_32 1_555 1_555
H98_32 C143_32 1_555 1_555
H101_32 C146_32 1_555 1_555
C151_32 C96_32 1_555 1_555
C154_32 C99_32 1_555 1_555
C157_32 C102_32 1_555 1_555
H106_32 C151_32 1_555 1_555
H109_32 C154_32 1_555 1_555
H112_32 C157_32 1_555 1_555
H117_32 C151_32 1_555 1_555
H120_32 C154_32 1_555 1_555
H123_32 C157_32 1_555 1_555
C162_32 C151_32 1_555 1_555
C165_32 C154_32 1_555 1_555
C168_32 C157_32 1_555 1_555
H128_32 C162_32 1_555 1_555
H131_32 C165_32 1_555 1_555
H134_32 C168_32 1_555 1_555
H139_32 C162_32 1_555 1_555
H142_32 C165_32 1_555 1_555
H145_32 C168_32 1_555 1_555
H150_32 C162_32 1_555 1_555
H153_32 C165_32 1_555 1_555
H156_32 C168_32 1_555 1_555
O25_9 C17_32 1_555 1_555
C74_32 C83_32 1_555 1_555
C77_32 C88_32 1_555 1_555
C80_32 C91_32 1_555 1_555
C107_32 C118_32 1_555 1_555
C107_32 C121_32 1_555 1_555
C110_32 C118_32 1_555 1_555
C110_32 C124_32 1_555 1_555
C113_32 C121_32 1_555 1_555
C113_32 C124_32 1_555 1_555

#END
