
###############################################################################
#
# This file contains modified crystal structure data generated from the
# MOF subset of the Cambridge Structural Database (CSD) v543 
# hosted by the Cambridge Crystallographic Data Centre (CCDC).
#
# This work is licensed under the Creative Commons
# Attribution-NonCommercial-ShareAlike 4.0 International License.
# To view a copy of this license, visit
# http://creativecommons.org/licenses/by-nc-sa/4.0/
# or send a letter to
# Creative Commons, PO Box 1866, Mountain View, CA 94042, USA.
#
# CIF created using the CSD Python API on 29 September 2022
# The structure has been converted into the P1 space group
# The structure has a 3D framework
# The original CSD entry BUFNEW is in the cubic crystal system
# The framework has been calculated to contain at least 10.0% void space
# The void calculation uses a probe of radius 1.32A, grid spacing 0.4
# The framework is charged, counterions have been retained in the structure
# H atom positions have been added when not included in the experimental data
# Generated hydrogen atom positions removed from atoms on special positions
#
###############################################################################

data_BUFNEW
_chemical_formula_moiety         '(C2832 H3840 Cd144 O756 141+)n'
_symmetry_cell_setting           triclinic
_symmetry_space_group_name_H-M   'P 1'
_symmetry_Int_Tables_number      1
_space_group_name_Hall           'P 1'
loop_
_symmetry_equiv_pos_site_id
_symmetry_equiv_pos_as_xyz
1 x,y,z
_cell_length_a                   48.325(6)
_cell_length_b                   48.325(6)
_cell_length_c                   48.325(6)
_cell_angle_alpha                90
_cell_angle_beta                 90
_cell_angle_gamma                90
_cell_volume                     112854
loop_
_atom_site_label
_atom_site_type_symbol
_atom_site_fract_x
_atom_site_fract_y
_atom_site_fract_z
O1 O 0.0000 0.2007(6) 0.1291(5)
O1_2 O 1.0000 0.2007(6) 0.1291(5)
O1_3 O 0.1291(5) 0.0000 0.2007(6)
O1_4 O 0.1291(5) 1.0000 0.2007(6)
O1_5 O 0.2007(6) 0.1291(5) 0.0000
O1_6 O 0.2007(6) 0.1291(5) 1.0000
O1_7 O 0.7007(6) 0.5000 0.3709(5)
O1_8 O 0.7007(6) 0.5000 0.6291(5)
O1_9 O 0.2993(6) 0.5000 0.6291(5)
O1_10 O 0.5000 0.6291(5) 0.2993(6)
O1_11 O 0.5000 0.6291(5) 0.7007(6)
O1_12 O 0.5000 0.3709(5) 0.7007(6)
O1_13 O 0.6291(5) 0.7007(6) 0.5000
O1_14 O 0.6291(5) 0.2993(6) 0.5000
O1_15 O 0.3709(5) 0.7007(6) 0.5000
O1_16 O 0.0000 0.7007(6) 0.6291(5)
O1_17 O 1.0000 0.7007(6) 0.6291(5)
O1_18 O 0.1291(5) 0.5000 0.7007(6)
O1_19 O 0.2007(6) 0.6291(5) 0.5000
O1_20 O 0.7007(6) 0.0000 0.8709(5)
O1_21 O 0.7007(6) 1.0000 0.8709(5)
O1_22 O 0.7007(6) 0.0000 0.1291(5)
O1_23 O 0.7007(6) 1.0000 0.1291(5)
O1_24 O 0.2993(6) 0.0000 0.1291(5)
O1_25 O 0.2993(6) 1.0000 0.1291(5)
O1_26 O 0.5000 0.1291(5) 0.7993(6)
O1_27 O 0.5000 0.1291(5) 0.2007(6)
O1_28 O 0.5000 0.8709(5) 0.2007(6)
O1_29 O 0.6291(5) 0.2007(6) 0.0000
O1_30 O 0.6291(5) 0.2007(6) 1.0000
O1_31 O 0.6291(5) 0.7993(6) 0.0000
O1_32 O 0.6291(5) 0.7993(6) 1.0000
O1_33 O 0.3709(5) 0.2007(6) 0.0000
O1_34 O 0.3709(5) 0.2007(6) 1.0000
O1_35 O 0.5000 0.2007(6) 0.6291(5)
O1_36 O 0.6291(5) 0.0000 0.7007(6)
O1_37 O 0.6291(5) 1.0000 0.7007(6)
O1_38 O 0.7007(6) 0.1291(5) 0.5000
O1_39 O 0.2007(6) 0.5000 0.8709(5)
O1_40 O 0.2007(6) 0.5000 0.1291(5)
O1_41 O 0.7993(6) 0.5000 0.1291(5)
O1_42 O 0.0000 0.6291(5) 0.7993(6)
O1_43 O 1.0000 0.6291(5) 0.7993(6)
O1_44 O 0.0000 0.6291(5) 0.2007(6)
O1_45 O 1.0000 0.6291(5) 0.2007(6)
O1_46 O -0.0000 0.3709(5) 0.2007(6)
O1_47 O 1.0000 0.3709(5) 0.2007(6)
O1_48 O 0.1291(5) 0.7007(6) 0.0000
O1_49 O 0.1291(5) 0.7007(6) 1.0000
O1_50 O 0.1291(5) 0.2993(6) 0.0000
O1_51 O 0.1291(5) 0.2993(6) 1.0000
O1_52 O 0.8709(5) 0.7007(6) 0.0000
O1_53 O 0.8709(5) 0.7007(6) 1.0000
O1_54 O 0.5000 0.7007(6) 0.1291(5)
O1_55 O 0.6291(5) 0.5000 0.2007(6)
O1_56 O 0.7007(6) 0.6291(5) 0.0000
O1_57 O 0.7007(6) 0.6291(5) 1.0000
O1_58 O 0.2007(6) -0.0000 0.3709(5)
O1_59 O 0.2007(6) 1.0000 0.3709(5)
O1_60 O 0.2007(6) 0.0000 0.6291(5)
O1_61 O 0.2007(6) 1.0000 0.6291(5)
O1_62 O 0.7993(6) 0.0000 0.6291(5)
O1_63 O 0.7993(6) 1.0000 0.6291(5)
O1_64 O 0.0000 0.1291(5) 0.2993(6)
O1_65 O 1.0000 0.1291(5) 0.2993(6)
O1_66 O -0.0000 0.1291(5) 0.7007(6)
O1_67 O 1.0000 0.1291(5) 0.7007(6)
O1_68 O 0.0000 0.8709(5) 0.7007(6)
O1_69 O 1.0000 0.8709(5) 0.7007(6)
O1_70 O 0.1291(5) 0.2007(6) 0.5000
O1_71 O 0.1291(5) 0.7993(6) 0.5000
O1_72 O 0.8709(5) 0.2007(6) 0.5000
O1_73 O 0.0000 0.7993(6) 0.1291(5)
O1_74 O 1.0000 0.7993(6) 0.1291(5)
O1_75 O 0.0000 0.2007(6) 0.8709(5)
O1_76 O 1.0000 0.2007(6) 0.8709(5)
O1_77 O 0.0000 0.7993(6) 0.8709(5)
O1_78 O 1.0000 0.7993(6) 0.8709(5)
O1_79 O 0.1291(5) 0.0000 0.7993(6)
O1_80 O 0.1291(5) 1.0000 0.7993(6)
O1_81 O 0.8709(5) 0.0000 0.2007(6)
O1_82 O 0.8709(5) 1.0000 0.2007(6)
O1_83 O 0.8709(5) 0.0000 0.7993(6)
O1_84 O 0.8709(5) 1.0000 0.7993(6)
O1_85 O 0.7993(6) 0.1291(5) 0.0000
O1_86 O 0.7993(6) 0.1291(5) 1.0000
O1_87 O 0.2007(6) 0.8709(5) 0.0000
O1_88 O 0.2007(6) 0.8709(5) 1.0000
O1_89 O 0.7993(6) 0.8709(5) 0.0000
O1_90 O 0.7993(6) 0.8709(5) 1.0000
O1_91 O 0.2993(6) 0.5000 0.3709(5)
O1_92 O 0.5000 0.3709(5) 0.2993(6)
O1_93 O 0.3709(5) 0.2993(6) 0.5000
O1_94 O 0.0000 0.2993(6) 0.6291(5)
O1_95 O 1.0000 0.2993(6) 0.6291(5)
O1_96 O -0.0000 0.7007(6) 0.3709(5)
O1_97 O 1.0000 0.7007(6) 0.3709(5)
O1_98 O -0.0000 0.2993(6) 0.3709(5)
O1_99 O 1.0000 0.2993(6) 0.3709(5)
O1_100 O 0.1291(5) 0.5000 0.2993(6)
O1_101 O 0.8709(5) 0.5000 0.7007(6)
O1_102 O 0.8709(5) 0.5000 0.2993(6)
O1_103 O 0.7993(6) 0.6291(5) 0.5000
O1_104 O 0.2007(6) 0.3709(5) 0.5000
O1_105 O 0.7993(6) 0.3709(5) 0.5000
O1_106 O 0.2993(6) 0.0000 0.8709(5)
O1_107 O 0.2993(6) 1.0000 0.8709(5)
O1_108 O 0.5000 0.8709(5) 0.7993(6)
O1_109 O 0.3709(5) 0.7993(6) 0.0000
O1_110 O 0.3709(5) 0.7993(6) 1.0000
O1_111 O 0.5000 0.7993(6) 0.6291(5)
O1_112 O 0.5000 0.2007(6) 0.3709(5)
O1_113 O 0.5000 0.7993(6) 0.3709(5)
O1_114 O 0.6291(5) 0.0000 0.2993(6)
O1_115 O 0.6291(5) 1.0000 0.2993(6)
O1_116 O 0.3709(5) 0.0000 0.7007(6)
O1_117 O 0.3709(5) 1.0000 0.7007(6)
O1_118 O 0.3709(5) 0.0000 0.2993(6)
O1_119 O 0.3709(5) 1.0000 0.2993(6)
O1_120 O 0.2993(6) 0.1291(5) 0.5000
O1_121 O 0.7007(6) 0.8709(5) 0.5000
O1_122 O 0.2993(6) 0.8709(5) 0.5000
O1_123 O 0.7993(6) 0.5000 0.8709(5)
O1_124 O -0.0000 0.3709(5) 0.7993(6)
O1_125 O 1.0000 0.3709(5) 0.7993(6)
O1_126 O 0.8709(5) 0.2993(6) 0.0000
O1_127 O 0.8709(5) 0.2993(6) 1.0000
O1_128 O 0.5000 0.2993(6) 0.1291(5)
O1_129 O 0.5000 0.7007(6) 0.8709(5)
O1_130 O 0.5000 0.2993(6) 0.8709(5)
O1_131 O 0.6291(5) 0.5000 0.7993(6)
O1_132 O 0.3709(5) 0.5000 0.2007(6)
O1_133 O 0.3709(5) 0.5000 0.7993(6)
O1_134 O 0.2993(6) 0.6291(5) 0.0000
O1_135 O 0.2993(6) 0.6291(5) 1.0000
O1_136 O 0.7007(6) 0.3709(5) 0.0000
O1_137 O 0.7007(6) 0.3709(5) 1.0000
O1_138 O 0.2993(6) 0.3709(5) 0.0000
O1_139 O 0.2993(6) 0.3709(5) 1.0000
O1_140 O 0.7993(6) -0.0000 0.3709(5)
O1_141 O 0.7993(6) 1.0000 0.3709(5)
O1_142 O 0.0000 0.8709(5) 0.2993(6)
O1_143 O 1.0000 0.8709(5) 0.2993(6)
O1_144 O 0.8709(5) 0.7993(6) 0.5000
Cd1 Cd 0.0000 0.201490(12) 0.223449(12)
O2 O 0.02968(8) 0.23486(8) 0.20635(9)
O4 O -0.0000 0.2500 0.2500
O5 O 0.0000 0.18103(19) 0.18148(17)
C1 C 0.04010(11) 0.24054(13) 0.18248(13)
C2 C 0.06201(12) 0.22167(12) 0.17121(13)
C3 C 0.07090(12) 0.19871(12) 0.18598(14)
H1 H 0.0623 0.1938 0.2029
C4 C 0.09245(12) 0.18315(13) 0.17562(13)
C5 C 0.10580(12) 0.18974(13) 0.15103(13)
C6 C 0.09622(13) 0.21265(13) 0.13590(14)
H2 H 0.1046 0.2174 0.1188
C7 C 0.07462(12) 0.22808(12) 0.14611(13)
H3 H 0.0681 0.2435 0.1358
C8 C 0.10417(13) 0.15723(14) 0.18853(14)
C9 C 0.12846(13) 0.16942(13) 0.14639(13)
C10 C 0.12719(13) 0.14966(13) 0.16822(13)
C11 C 0.08039(17) 0.13512(17) 0.1891(2)
H4 H 0.0872 0.1186 0.1990
H5 H 0.0647 0.1427 0.1999
C12 C 0.0693(2) 0.1258(2) 0.1604(2)
H6 H 0.0597 0.1413 0.1516
H7 H 0.0564 0.1104 0.1629
H8 H 0.0848 0.1199 0.1488
C13 C 0.11587(18) 0.16486(16) 0.21744(15)
H9 H 0.1005 0.1720 0.2290
H10 H 0.1229 0.1478 0.2263
C14 C 0.13907(18) 0.1864(2) 0.21710(18)
H11 H 0.1551 0.1788 0.2073
H12 H 0.1443 0.1910 0.2361
H13 H 0.1326 0.2031 0.2076
C15 C 0.0000 0.1582(7) 0.1759(7)
Cd2 Cd 0.0000 0.276551(12) 0.201490(12)
Cd3 Cd 0.0000 0.223449(12) 0.298510(12)
Cd4 Cd -0.0000 0.298510(12) 0.276551(12)
Cd5 Cd 0.201490(12) 0.223449(12) 0.0000
Cd6 Cd 0.276551(12) 0.201490(12) 0.0000
Cd7 Cd 0.223449(12) 0.0000 0.201490(12)
Cd8 Cd 0.201490(12) 0.0000 0.276551(12)
O6 O 0.02968(8) 0.20635(9) 0.26514(8)
O9 O 0.23486(8) 0.20635(9) 0.02968(8)
O10 O 0.20635(9) 0.02968(8) 0.23486(8)
O11 O 0.02968(8) 0.29365(9) 0.23486(8)
O14 O 0.02968(8) 0.26514(8) 0.29365(9)
O21 O 0.03308(8) 0.16972(8) 0.23855(8)
O22 O 0.03308(8) 0.26145(8) 0.16972(8)
O23 O 0.26145(8) 0.16972(8) 0.03308(8)
O24 O 0.16972(8) 0.03308(8) 0.26145(8)
O27 O 0.03308(8) 0.23855(8) 0.33028(8)
O28 O 0.03308(8) 0.33028(8) 0.26145(8)
O36 O 0.0000 0.31852(17) 0.18103(19)
O37 O 0.0000 0.18148(17) 0.31897(19)
O38 O 0.0000 0.31897(19) 0.31852(17)
C17 C 0.24054(13) 0.18248(13) 0.04010(11)
C18 C 0.18248(13) 0.04010(11) 0.24054(13)
C27 C 0.22167(12) 0.17121(13) 0.06201(12)
C28 C 0.17121(13) 0.06201(12) 0.22167(12)
C38 C 0.19871(12) 0.18598(14) 0.07090(12)
C39 C 0.18598(14) 0.07090(12) 0.19871(12)
H14 H 0.1938 0.2029 0.0623
H15 H 0.2029 0.0623 0.1938
C49 C 0.18315(13) 0.17562(13) 0.09245(12)
C50 C 0.17562(13) 0.09245(12) 0.18315(13)
C60 C 0.15103(13) 0.10580(12) 0.18974(13)
C61 C 0.18974(13) 0.15103(13) 0.10580(12)
C71 C 0.13590(14) 0.09622(13) 0.21265(13)
C72 C 0.21265(13) 0.13590(14) 0.09622(13)
H25 H 0.1188 0.1046 0.2174
H26 H 0.2174 0.1188 0.1046
C82 C 0.14611(13) 0.07462(12) 0.22808(12)
C83 C 0.22808(12) 0.14611(13) 0.07462(12)
H36 H 0.1358 0.0681 0.2435
H37 H 0.2435 0.1358 0.0681
C93 C 0.15723(14) 0.18853(14) 0.10417(13)
C94 C 0.18853(14) 0.10417(13) 0.15723(14)
C104 C 0.14639(13) 0.12846(13) 0.16942(13)
C105 C 0.16942(13) 0.14639(13) 0.12846(13)
C115 C 0.14966(13) 0.16822(13) 0.12719(13)
C116 C 0.16822(13) 0.12719(13) 0.14966(13)
C126 C 0.13512(17) 0.1891(2) 0.08039(17)
C127 C 0.1891(2) 0.08039(17) 0.13512(17)
H47 H 0.1186 0.1990 0.0872
H48 H 0.1990 0.0872 0.1186
H58 H 0.1427 0.1999 0.0647
H59 H 0.1999 0.0647 0.1427
C137 C 0.1258(2) 0.1604(2) 0.0693(2)
C138 C 0.1604(2) 0.0693(2) 0.1258(2)
H69 H 0.1413 0.1516 0.0597
H70 H 0.1516 0.0597 0.1413
H80 H 0.1104 0.1629 0.0564
H81 H 0.1629 0.0564 0.1104
H91 H 0.1199 0.1488 0.0848
H92 H 0.1488 0.0848 0.1199
C148 C 0.16486(16) 0.21744(15) 0.11587(18)
C149 C 0.21744(15) 0.11587(18) 0.16486(16)
H102 H 0.1720 0.2290 0.1005
H103 H 0.2290 0.1005 0.1720
H113 H 0.1478 0.2263 0.1229
H114 H 0.2263 0.1229 0.1478
C159 C 0.1864(2) 0.21710(18) 0.13907(18)
C160 C 0.21710(18) 0.13907(18) 0.1864(2)
H124 H 0.1788 0.2073 0.1551
H125 H 0.2073 0.1551 0.1788
H135 H 0.1910 0.2361 0.1443
H136 H 0.2361 0.1443 0.1910
H146 H 0.2031 0.2076 0.1326
H147 H 0.2076 0.1326 0.2031
C170 C 0.0000 0.3241(7) 0.1582(7)
C171 C 0.0000 0.3418(7) 0.3241(7)
C172 C -0.0000 0.1759(7) 0.3418(7)
H158 H -2.6019e-18 0.344052 0.346522
H159 H 0.0183997 0.351619 0.315564
H161 H -2.6019e-18 0.346522 0.155948
H162 H 0.0183997 0.315564 0.148381
H167 H -2.6019e-18 0.153478 0.344052
H168 H 0.0183997 0.184436 0.351619
H173 H -2.6019e-18 0.155948 0.153478
H174 H 0.0183997 0.148381 0.184436
Cd5_2 Cd 0.201490(12) 0.223449(12) 1.0000
Cd6_2 Cd 0.276551(12) 0.201490(12) 1.0000
Cd7_2 Cd 0.223449(12) 1.0000 0.201490(12)
Cd8_2 Cd 0.201490(12) 1.0000 0.276551(12)
Cd1_2 Cd 1.0000 0.201490(12) 0.223449(12)
O3 O 0.96692(8) 0.16972(8) 0.23855(8)
O4_2 O 1.0000 0.2500 0.2500
O5_2 O 1.0000 0.18103(19) 0.18148(17)
C15_2 C 1.0000 0.1582(7) 0.1759(7)
Cd2_2 Cd 1.0000 0.276551(12) 0.201490(12)
Cd3_2 Cd 1.0000 0.223449(12) 0.298510(12)
Cd4_2 Cd 1.0000 0.298510(12) 0.276551(12)
Cd9 Cd 0.798510(12) 0.5000 0.223449(12)
Cd10 Cd 0.723449(12) 0.5000 0.201490(12)
Cd11 Cd 0.776551(12) 0.298510(12) 0.0000
Cd12 Cd 0.798510(12) 0.223449(12) 0.0000
Cd13 Cd 0.798510(12) 0.0000 0.276551(12)
Cd14 Cd 0.723449(12) 0.0000 0.298510(12)
Cd15 Cd 0.776551(12) 0.201490(12) 0.5000
Cd16 Cd 0.798510(12) 0.276551(12) 0.5000
Cd17 Cd 0.723449(12) 0.298510(12) 0.5000
Cd18 Cd 0.776551(12) 0.5000 0.298510(12)
O7 O 0.97032(8) 0.23486(8) 0.20635(9)
O8 O 0.97032(8) 0.20635(9) 0.26514(8)
O12 O 0.97032(8) 0.29365(9) 0.23486(8)
O13 O 0.97032(8) 0.26514(8) 0.29365(9)
O15 O 0.76514(8) 0.47032(8) 0.20635(9)
O16 O 0.79365(9) 0.26514(8) 0.02968(8)
O17 O 0.76514(8) 0.02968(8) 0.29365(9)
O18 O 0.79365(9) 0.23486(8) 0.47032(8)
O19 O 0.76514(8) 0.29365(9) 0.47032(8)
O20 O 0.79365(9) 0.47032(8) 0.26514(8)
O25 O 0.96692(8) 0.26145(8) 0.16972(8)
O26 O 0.96692(8) 0.23855(8) 0.33028(8)
O29 O 0.96692(8) 0.33028(8) 0.26145(8)
O30 O 0.73855(8) 0.46692(8) 0.16972(8)
O31 O 0.83028(8) 0.23855(8) 0.03308(8)
O32 O 0.73855(8) 0.03308(8) 0.33028(8)
O33 O 0.83028(8) 0.26145(8) 0.46692(8)
O34 O 0.73855(8) 0.33028(8) 0.46692(8)
O35 O 0.83028(8) 0.46692(8) 0.23855(8)
O36_2 O 1.0000 0.31852(17) 0.18103(19)
O37_2 O 1.0000 0.18148(17) 0.31897(19)
O38_2 O 1.0000 0.31897(19) 0.31852(17)
C16 C 0.95990(11) 0.18248(13) 0.25946(13)
C19 C 0.95990(11) 0.31752(13) 0.24054(13)
C20 C 0.75946(13) 0.45990(11) 0.18248(13)
C21 C 0.81752(13) 0.25946(13) 0.04010(11)
C22 C 0.75946(13) 0.04010(11) 0.31752(13)
C23 C 0.81752(13) 0.24054(13) 0.45990(11)
C24 C 0.95990(11) 0.25946(13) 0.31752(13)
C25 C 0.75946(13) 0.31752(13) 0.45990(11)
C26 C 0.81752(13) 0.45990(11) 0.25946(13)
C29 C 0.93799(12) 0.32879(13) 0.22167(12)
C30 C 0.77833(12) 0.43799(12) 0.17121(13)
C31 C 0.82879(13) 0.27833(12) 0.06201(12)
C32 C 0.93799(12) 0.17121(13) 0.27833(12)
C33 C 0.77833(12) 0.06201(12) 0.32879(13)
C34 C 0.82879(13) 0.22167(12) 0.43799(12)
C35 C 0.93799(12) 0.27833(12) 0.32879(13)
C36 C 0.77833(12) 0.32879(13) 0.43799(12)
C37 C 0.82879(13) 0.43799(12) 0.27833(12)
C40 C 0.92910(12) 0.31402(14) 0.19871(12)
C41 C 0.80129(12) 0.42910(12) 0.18598(14)
C42 C 0.81402(14) 0.30129(12) 0.07090(12)
C43 C 0.92910(12) 0.18598(14) 0.30129(12)
C44 C 0.80129(12) 0.07090(12) 0.31402(14)
C45 C 0.81402(14) 0.19871(12) 0.42910(12)
C46 C 0.92910(12) 0.30129(12) 0.31402(14)
C47 C 0.80129(12) 0.31402(14) 0.42910(12)
C48 C 0.81402(14) 0.42910(12) 0.30129(12)
H16 H 0.9377 0.2971 0.1938
H17 H 0.8062 0.4377 0.2029
H18 H 0.7971 0.3062 0.0623
H19 H 0.9377 0.2029 0.3062
H20 H 0.8062 0.0623 0.2971
H21 H 0.7971 0.1938 0.4377
H22 H 0.9377 0.3062 0.2971
H23 H 0.8062 0.2971 0.4377
H24 H 0.7971 0.4377 0.3062
C51 C 0.90755(12) 0.32438(13) 0.18315(13)
C52 C 0.81685(13) 0.40755(12) 0.17562(13)
C53 C 0.82438(13) 0.31685(13) 0.09245(12)
C54 C 0.90755(12) 0.17562(13) 0.31685(13)
C55 C 0.81685(13) 0.09245(12) 0.32438(13)
C56 C 0.82438(13) 0.18315(13) 0.40755(12)
C57 C 0.90755(12) 0.31685(13) 0.32438(13)
C58 C 0.81685(13) 0.32438(13) 0.40755(12)
C59 C 0.82438(13) 0.40755(12) 0.31685(13)
C62 C 0.89420(12) 0.34897(13) 0.18974(13)
C63 C 0.84897(13) 0.31026(13) 0.10580(12)
C64 C 0.81026(13) 0.39420(12) 0.15103(13)
C65 C 0.89420(12) 0.15103(13) 0.31026(13)
C66 C 0.84897(13) 0.18974(13) 0.39420(12)
C67 C 0.81026(13) 0.10580(12) 0.34897(13)
C68 C 0.89420(12) 0.31026(13) 0.34897(13)
C69 C 0.84897(13) 0.39420(12) 0.31026(13)
C70 C 0.81026(13) 0.34897(13) 0.39420(12)
C73 C 0.90378(13) 0.36410(14) 0.21265(13)
C74 C 0.86410(14) 0.28735(13) 0.09622(13)
C75 C 0.78735(13) 0.40378(13) 0.13590(14)
C76 C 0.90378(13) 0.13590(14) 0.28735(13)
C77 C 0.86410(14) 0.21265(13) 0.40378(13)
C78 C 0.78735(13) 0.09622(13) 0.36410(14)
C79 C 0.90378(13) 0.28735(13) 0.36410(14)
C80 C 0.86410(14) 0.40378(13) 0.28735(13)
C81 C 0.78735(13) 0.36410(14) 0.40378(13)
H27 H 0.8954 0.3812 0.2174
H28 H 0.8812 0.2826 0.1046
H29 H 0.7826 0.3954 0.1188
H30 H 0.8954 0.1188 0.2826
H31 H 0.8812 0.2174 0.3954
H32 H 0.7826 0.1046 0.3812
H33 H 0.8954 0.2826 0.3812
H34 H 0.8812 0.3954 0.2826
H35 H 0.7826 0.3812 0.3954
C84 C 0.92538(12) 0.35389(13) 0.22808(12)
C85 C 0.85389(13) 0.27192(12) 0.07462(12)
C86 C 0.77192(12) 0.42538(12) 0.14611(13)
C87 C 0.92538(12) 0.14611(13) 0.27192(12)
C88 C 0.85389(13) 0.22808(12) 0.42538(12)
C89 C 0.77192(12) 0.07462(12) 0.35389(13)
C90 C 0.92538(12) 0.27192(12) 0.35389(13)
C91 C 0.85389(13) 0.42538(12) 0.27192(12)
C92 C 0.77192(12) 0.35389(13) 0.42538(12)
H38 H 0.9319 0.3642 0.2435
H39 H 0.8642 0.2565 0.0681
H40 H 0.7565 0.4319 0.1358
H41 H 0.9319 0.1358 0.2565
H42 H 0.8642 0.2435 0.4319
H43 H 0.7565 0.0681 0.3642
H44 H 0.9319 0.2565 0.3642
H45 H 0.8642 0.4319 0.2565
H46 H 0.7565 0.3642 0.4319
C95 C 0.89583(13) 0.31147(14) 0.15723(14)
C96 C 0.84277(14) 0.39583(13) 0.18853(14)
C97 C 0.81147(14) 0.34277(14) 0.10417(13)
C98 C 0.89583(13) 0.18853(14) 0.34277(14)
C99 C 0.84277(14) 0.10417(13) 0.31147(14)
C100 C 0.81147(14) 0.15723(14) 0.39583(13)
C101 C 0.89583(13) 0.34277(14) 0.31147(14)
C102 C 0.84277(14) 0.31147(14) 0.39583(13)
C103 C 0.81147(14) 0.39583(13) 0.34277(14)
C106 C 0.87154(13) 0.35361(13) 0.16942(13)
C107 C 0.85361(13) 0.33058(13) 0.12846(13)
C108 C 0.83058(13) 0.37154(13) 0.14639(13)
C109 C 0.87154(13) 0.14639(13) 0.33058(13)
C110 C 0.85361(13) 0.16942(13) 0.37154(13)
C111 C 0.83058(13) 0.12846(13) 0.35361(13)
C112 C 0.87154(13) 0.33058(13) 0.35361(13)
C113 C 0.85361(13) 0.37154(13) 0.33058(13)
C114 C 0.83058(13) 0.35361(13) 0.37154(13)
C117 C 0.87281(13) 0.33178(13) 0.14966(13)
C118 C 0.85034(13) 0.37281(13) 0.16822(13)
C119 C 0.83178(13) 0.35034(13) 0.12719(13)
C120 C 0.87281(13) 0.16822(13) 0.35034(13)
C121 C 0.85034(13) 0.12719(13) 0.33178(13)
C122 C 0.83178(13) 0.14966(13) 0.37281(13)
C123 C 0.87281(13) 0.35034(13) 0.33178(13)
C124 C 0.85034(13) 0.33178(13) 0.37281(13)
C125 C 0.83178(13) 0.37281(13) 0.35034(13)
C128 C 0.91961(17) 0.3109(2) 0.13512(17)
C129 C 0.86488(17) 0.41961(17) 0.1891(2)
C130 C 0.8109(2) 0.36488(17) 0.08039(17)
C131 C 0.91961(17) 0.1891(2) 0.36488(17)
C132 C 0.86488(17) 0.08039(17) 0.3109(2)
C133 C 0.8109(2) 0.13512(17) 0.41961(17)
C134 C 0.91961(17) 0.36488(17) 0.3109(2)
C135 C 0.86488(17) 0.3109(2) 0.41961(17)
C136 C 0.8109(2) 0.41961(17) 0.36488(17)
H49 H 0.9128 0.3010 0.1186
H50 H 0.8814 0.4128 0.1990
H51 H 0.8010 0.3814 0.0872
H52 H 0.9128 0.1990 0.3814
H53 H 0.8814 0.0872 0.3010
H54 H 0.8010 0.1186 0.4128
H55 H 0.9128 0.3814 0.3010
H56 H 0.8814 0.3010 0.4128
H57 H 0.8010 0.4128 0.3814
H60 H 0.9353 0.3001 0.1427
H61 H 0.8573 0.4353 0.1999
H62 H 0.8001 0.3573 0.0647
H63 H 0.9353 0.1999 0.3573
H64 H 0.8573 0.0647 0.3001
H65 H 0.8001 0.1427 0.4353
H66 H 0.9353 0.3573 0.3001
H67 H 0.8573 0.3001 0.4353
H68 H 0.8001 0.4353 0.3573
C139 C 0.9307(2) 0.3396(2) 0.1258(2)
C140 C 0.8742(2) 0.4307(2) 0.1604(2)
C141 C 0.8396(2) 0.3742(2) 0.0693(2)
C142 C 0.9307(2) 0.1604(2) 0.3742(2)
C143 C 0.8742(2) 0.0693(2) 0.3396(2)
C144 C 0.8396(2) 0.1258(2) 0.4307(2)
C145 C 0.9307(2) 0.3742(2) 0.3396(2)
C146 C 0.8742(2) 0.3396(2) 0.4307(2)
C147 C 0.8396(2) 0.4307(2) 0.3742(2)
H71 H 0.9403 0.3484 0.1413
H72 H 0.8587 0.4403 0.1516
H73 H 0.8484 0.3587 0.0597
H74 H 0.9403 0.1516 0.3587
H75 H 0.8587 0.0597 0.3484
H76 H 0.8484 0.1413 0.4403
H77 H 0.9403 0.3587 0.3484
H78 H 0.8587 0.3484 0.4403
H79 H 0.8484 0.4403 0.3587
H82 H 0.9436 0.3371 0.1104
H83 H 0.8896 0.4436 0.1629
H84 H 0.8371 0.3896 0.0564
H85 H 0.9436 0.1629 0.3896
H86 H 0.8896 0.0564 0.3371
H87 H 0.8371 0.1104 0.4436
H88 H 0.9436 0.3896 0.3371
H89 H 0.8896 0.3371 0.4436
H90 H 0.8371 0.4436 0.3896
H93 H 0.9152 0.3512 0.1199
H94 H 0.8801 0.4152 0.1488
H95 H 0.8512 0.3801 0.0848
H96 H 0.9152 0.1488 0.3801
H97 H 0.8801 0.0848 0.3512
H98 H 0.8512 0.1199 0.4152
H99 H 0.9152 0.3801 0.3512
H100 H 0.8801 0.3512 0.4152
H101 H 0.8512 0.4152 0.3801
C150 C 0.88413(18) 0.28256(15) 0.16486(16)
C151 C 0.83514(16) 0.38413(18) 0.21744(15)
C152 C 0.78256(15) 0.33514(16) 0.11587(18)
C153 C 0.88413(18) 0.21744(15) 0.33514(16)
C154 C 0.83514(16) 0.11587(18) 0.28256(15)
C155 C 0.78256(15) 0.16486(16) 0.38413(18)
C156 C 0.88413(18) 0.33514(16) 0.28256(15)
C157 C 0.83514(16) 0.28256(15) 0.38413(18)
C158 C 0.78256(15) 0.38413(18) 0.33514(16)
H104 H 0.8995 0.2710 0.1720
H105 H 0.8280 0.3995 0.2290
H106 H 0.7710 0.3280 0.1005
H107 H 0.8995 0.2290 0.3280
H108 H 0.8280 0.1005 0.2710
H109 H 0.7710 0.1720 0.3995
H110 H 0.8995 0.3280 0.2710
H111 H 0.8280 0.2710 0.3995
H112 H 0.7710 0.3995 0.3280
H115 H 0.8771 0.2737 0.1478
H116 H 0.8522 0.3771 0.2263
H117 H 0.7737 0.3522 0.1229
H118 H 0.8771 0.2263 0.3522
H119 H 0.8522 0.1229 0.2737
H120 H 0.7737 0.1478 0.3771
H121 H 0.8771 0.3522 0.2737
H122 H 0.8522 0.2737 0.3771
H123 H 0.7737 0.3771 0.3522
C161 C 0.86093(18) 0.28290(18) 0.1864(2)
C162 C 0.8136(2) 0.36093(18) 0.21710(18)
C163 C 0.78290(18) 0.3136(2) 0.13907(18)
C164 C 0.86093(18) 0.21710(18) 0.3136(2)
C165 C 0.8136(2) 0.13907(18) 0.28290(18)
C166 C 0.78290(18) 0.1864(2) 0.36093(18)
C167 C 0.86093(18) 0.3136(2) 0.28290(18)
C168 C 0.8136(2) 0.28290(18) 0.36093(18)
C169 C 0.78290(18) 0.36093(18) 0.3136(2)
H126 H 0.8449 0.2927 0.1788
H127 H 0.8212 0.3449 0.2073
H128 H 0.7927 0.3212 0.1551
H129 H 0.8449 0.2073 0.3212
H130 H 0.8212 0.1551 0.2927
H131 H 0.7927 0.1788 0.3449
H132 H 0.8449 0.3212 0.2927
H133 H 0.8212 0.2927 0.3449
H134 H 0.7927 0.3449 0.3212
H137 H 0.8557 0.2639 0.1910
H138 H 0.8090 0.3557 0.2361
H139 H 0.7639 0.3090 0.1443
H140 H 0.8557 0.2361 0.3090
H141 H 0.8090 0.1443 0.2639
H142 H 0.7639 0.1910 0.3557
H143 H 0.8557 0.3090 0.2639
H144 H 0.8090 0.2639 0.3557
H145 H 0.7639 0.3557 0.3090
H148 H 0.8674 0.2924 0.2031
H149 H 0.7969 0.3674 0.2076
H150 H 0.7924 0.2969 0.1326
H151 H 0.8674 0.2076 0.2969
H152 H 0.7969 0.1326 0.2924
H153 H 0.7924 0.2031 0.3674
H154 H 0.8674 0.2969 0.2924
H155 H 0.7969 0.2924 0.3674
H156 H 0.7924 0.3674 0.2969
C170_2 C 1.0000 0.3241(7) 0.1582(7)
C171_2 C 1.0000 0.3418(7) 0.3241(7)
C172_2 C 1.0000 0.1759(7) 0.3418(7)
H157 H 0.9816 0.351619 0.315564
H158_2 H 1 0.344052 0.346522
H160 H 0.9816 0.315564 0.148381
H161_2 H 1 0.346522 0.155948
H166 H 0.9816 0.184436 0.351619
H167_2 H 1 0.153478 0.344052
H172 H 0.9816 0.148381 0.184436
H173_2 H 1 0.155948 0.153478
Cd11_2 Cd 0.776551(12) 0.298510(12) 1.0000
Cd12_2 Cd 0.798510(12) 0.223449(12) 1.0000
Cd13_2 Cd 0.798510(12) 1.0000 0.276551(12)
Cd14_2 Cd 0.723449(12) 1.0000 0.298510(12)
O4_3 O 0.2500 0.0000 0.2500
O5_3 O 0.18148(17) 0.0000 0.18103(19)
C15_3 C 0.1759(7) 0.0000 0.1582(7)
Cd3_3 Cd 0.298510(12) -0.0000 0.223449(12)
Cd4_3 Cd 0.276551(12) -0.0000 0.298510(12)
O6_2 O 0.26514(8) 0.02968(8) 0.20635(9)
O11_2 O 0.23486(8) 0.02968(8) 0.29365(9)
O14_2 O 0.29365(9) 0.02968(8) 0.26514(8)
O21_2 O 0.23855(8) 0.03308(8) 0.16972(8)
O27_2 O 0.33028(8) 0.03308(8) 0.23855(8)
O28_2 O 0.26145(8) 0.03308(8) 0.33028(8)
O36_3 O 0.18103(19) 0.0000 0.31852(17)
O37_3 O 0.31897(19) 0.0000 0.18148(17)
O38_3 O 0.31852(17) 0.0000 0.31897(19)
C170_3 C 0.1582(7) 0.0000 0.3241(7)
C171_3 C 0.3241(7) 0.0000 0.3418(7)
C172_3 C 0.3418(7) -0.0000 0.1759(7)
H158_3 H 0.346522 -2.6019e-18 0.344052
H159_2 H 0.315564 0.0183997 0.351619
H161_3 H 0.155948 -2.6019e-18 0.346522
H162_2 H 0.148381 0.0183997 0.315564
H167_3 H 0.344052 -2.6019e-18 0.153478
H168_2 H 0.351619 0.0183997 0.184436
H173_3 H 0.153478 -2.6019e-18 0.155948
H174_2 H 0.184436 0.0183997 0.148381
O3_2 O 0.23855(8) 0.96692(8) 0.16972(8)
O4_4 O 0.2500 1.0000 0.2500
O5_4 O 0.18148(17) 1.0000 0.18103(19)
C15_4 C 0.1759(7) 1.0000 0.1582(7)
Cd3_4 Cd 0.298510(12) 1.0000 0.223449(12)
Cd4_4 Cd 0.276551(12) 1.0000 0.298510(12)
Cd9_2 Cd 0.223449(12) 0.798510(12) 0.5000
Cd10_2 Cd 0.201490(12) 0.723449(12) 0.5000
Cd11_3 Cd 0.0000 0.776551(12) 0.298510(12)
Cd12_3 Cd 0.0000 0.798510(12) 0.223449(12)
Cd13_3 Cd 0.276551(12) 0.798510(12) 0.0000
Cd14_3 Cd 0.298510(12) 0.723449(12) 0.0000
Cd15_2 Cd 0.5000 0.776551(12) 0.201490(12)
Cd16_2 Cd 0.5000 0.798510(12) 0.276551(12)
Cd17_2 Cd 0.5000 0.723449(12) 0.298510(12)
Cd18_2 Cd 0.298510(12) 0.776551(12) 0.5000
O7_2 O 0.20635(9) 0.97032(8) 0.23486(8)
O8_2 O 0.26514(8) 0.97032(8) 0.20635(9)
O12_2 O 0.23486(8) 0.97032(8) 0.29365(9)
O13_2 O 0.29365(9) 0.97032(8) 0.26514(8)
O15_2 O 0.20635(9) 0.76514(8) 0.47032(8)
O16_2 O 0.02968(8) 0.79365(9) 0.26514(8)
O17_2 O 0.29365(9) 0.76514(8) 0.02968(8)
O18_2 O 0.47032(8) 0.79365(9) 0.23486(8)
O19_2 O 0.47032(8) 0.76514(8) 0.29365(9)
O20_2 O 0.26514(8) 0.79365(9) 0.47032(8)
O25_2 O 0.16972(8) 0.96692(8) 0.26145(8)
O26_2 O 0.33028(8) 0.96692(8) 0.23855(8)
O29_2 O 0.26145(8) 0.96692(8) 0.33028(8)
O30_2 O 0.16972(8) 0.73855(8) 0.46692(8)
O31_2 O 0.03308(8) 0.83028(8) 0.23855(8)
O32_2 O 0.33028(8) 0.73855(8) 0.03308(8)
O33_2 O 0.46692(8) 0.83028(8) 0.26145(8)
O34_2 O 0.46692(8) 0.73855(8) 0.33028(8)
O35_2 O 0.23855(8) 0.83028(8) 0.46692(8)
O36_4 O 0.18103(19) 1.0000 0.31852(17)
O37_4 O 0.31897(19) 1.0000 0.18148(17)
O38_4 O 0.31852(17) 1.0000 0.31897(19)
C16_2 C 0.25946(13) 0.95990(11) 0.18248(13)
C19_2 C 0.24054(13) 0.95990(11) 0.31752(13)
C20_2 C 0.18248(13) 0.75946(13) 0.45990(11)
C21_2 C 0.04010(11) 0.81752(13) 0.25946(13)
C22_2 C 0.31752(13) 0.75946(13) 0.04010(11)
C23_2 C 0.45990(11) 0.81752(13) 0.24054(13)
C24_2 C 0.31752(13) 0.95990(11) 0.25946(13)
C25_2 C 0.45990(11) 0.75946(13) 0.31752(13)
C26_2 C 0.25946(13) 0.81752(13) 0.45990(11)
C29_2 C 0.22167(12) 0.93799(12) 0.32879(13)
C30_2 C 0.17121(13) 0.77833(12) 0.43799(12)
C31_2 C 0.06201(12) 0.82879(13) 0.27833(12)
C32_2 C 0.27833(12) 0.93799(12) 0.17121(13)
C33_2 C 0.32879(13) 0.77833(12) 0.06201(12)
C34_2 C 0.43799(12) 0.82879(13) 0.22167(12)
C35_2 C 0.32879(13) 0.93799(12) 0.27833(12)
C36_2 C 0.43799(12) 0.77833(12) 0.32879(13)
C37_2 C 0.27833(12) 0.82879(13) 0.43799(12)
C40_2 C 0.19871(12) 0.92910(12) 0.31402(14)
C41_2 C 0.18598(14) 0.80129(12) 0.42910(12)
C42_2 C 0.07090(12) 0.81402(14) 0.30129(12)
C43_2 C 0.30129(12) 0.92910(12) 0.18598(14)
C44_2 C 0.31402(14) 0.80129(12) 0.07090(12)
C45_2 C 0.42910(12) 0.81402(14) 0.19871(12)
C46_2 C 0.31402(14) 0.92910(12) 0.30129(12)
C47_2 C 0.42910(12) 0.80129(12) 0.31402(14)
C48_2 C 0.30129(12) 0.81402(14) 0.42910(12)
H16_2 H 0.1938 0.9377 0.2971
H17_2 H 0.2029 0.8062 0.4377
H18_2 H 0.0623 0.7971 0.3062
H19_2 H 0.3062 0.9377 0.2029
H20_2 H 0.2971 0.8062 0.0623
H21_2 H 0.4377 0.7971 0.1938
H22_2 H 0.2971 0.9377 0.3062
H23_2 H 0.4377 0.8062 0.2971
H24_2 H 0.3062 0.7971 0.4377
C51_2 C 0.18315(13) 0.90755(12) 0.32438(13)
C52_2 C 0.17562(13) 0.81685(13) 0.40755(12)
C53_2 C 0.09245(12) 0.82438(13) 0.31685(13)
C54_2 C 0.31685(13) 0.90755(12) 0.17562(13)
C55_2 C 0.32438(13) 0.81685(13) 0.09245(12)
C56_2 C 0.40755(12) 0.82438(13) 0.18315(13)
C57_2 C 0.32438(13) 0.90755(12) 0.31685(13)
C58_2 C 0.40755(12) 0.81685(13) 0.32438(13)
C59_2 C 0.31685(13) 0.82438(13) 0.40755(12)
C62_2 C 0.18974(13) 0.89420(12) 0.34897(13)
C63_2 C 0.10580(12) 0.84897(13) 0.31026(13)
C64_2 C 0.15103(13) 0.81026(13) 0.39420(12)
C65_2 C 0.31026(13) 0.89420(12) 0.15103(13)
C66_2 C 0.39420(12) 0.84897(13) 0.18974(13)
C67_2 C 0.34897(13) 0.81026(13) 0.10580(12)
C68_2 C 0.34897(13) 0.89420(12) 0.31026(13)
C69_2 C 0.31026(13) 0.84897(13) 0.39420(12)
C70_2 C 0.39420(12) 0.81026(13) 0.34897(13)
C73_2 C 0.21265(13) 0.90378(13) 0.36410(14)
C74_2 C 0.09622(13) 0.86410(14) 0.28735(13)
C75_2 C 0.13590(14) 0.78735(13) 0.40378(13)
C76_2 C 0.28735(13) 0.90378(13) 0.13590(14)
C77_2 C 0.40378(13) 0.86410(14) 0.21265(13)
C78_2 C 0.36410(14) 0.78735(13) 0.09622(13)
C79_2 C 0.36410(14) 0.90378(13) 0.28735(13)
C80_2 C 0.28735(13) 0.86410(14) 0.40378(13)
C81_2 C 0.40378(13) 0.78735(13) 0.36410(14)
H27_2 H 0.2174 0.8954 0.3812
H28_2 H 0.1046 0.8812 0.2826
H29_2 H 0.1188 0.7826 0.3954
H30_2 H 0.2826 0.8954 0.1188
H31_2 H 0.3954 0.8812 0.2174
H32_2 H 0.3812 0.7826 0.1046
H33_2 H 0.3812 0.8954 0.2826
H34_2 H 0.2826 0.8812 0.3954
H35_2 H 0.3954 0.7826 0.3812
C84_2 C 0.22808(12) 0.92538(12) 0.35389(13)
C85_2 C 0.07462(12) 0.85389(13) 0.27192(12)
C86_2 C 0.14611(13) 0.77192(12) 0.42538(12)
C87_2 C 0.27192(12) 0.92538(12) 0.14611(13)
C88_2 C 0.42538(12) 0.85389(13) 0.22808(12)
C89_2 C 0.35389(13) 0.77192(12) 0.07462(12)
C90_2 C 0.35389(13) 0.92538(12) 0.27192(12)
C91_2 C 0.27192(12) 0.85389(13) 0.42538(12)
C92_2 C 0.42538(12) 0.77192(12) 0.35389(13)
H38_2 H 0.2435 0.9319 0.3642
H39_2 H 0.0681 0.8642 0.2565
H40_2 H 0.1358 0.7565 0.4319
H41_2 H 0.2565 0.9319 0.1358
H42_2 H 0.4319 0.8642 0.2435
H43_2 H 0.3642 0.7565 0.0681
H44_2 H 0.3642 0.9319 0.2565
H45_2 H 0.2565 0.8642 0.4319
H46_2 H 0.4319 0.7565 0.3642
C95_2 C 0.15723(14) 0.89583(13) 0.31147(14)
C96_2 C 0.18853(14) 0.84277(14) 0.39583(13)
C97_2 C 0.10417(13) 0.81147(14) 0.34277(14)
C98_2 C 0.34277(14) 0.89583(13) 0.18853(14)
C99_2 C 0.31147(14) 0.84277(14) 0.10417(13)
C100_2 C 0.39583(13) 0.81147(14) 0.15723(14)
C101_2 C 0.31147(14) 0.89583(13) 0.34277(14)
C102_2 C 0.39583(13) 0.84277(14) 0.31147(14)
C103_2 C 0.34277(14) 0.81147(14) 0.39583(13)
C106_2 C 0.16942(13) 0.87154(13) 0.35361(13)
C107_2 C 0.12846(13) 0.85361(13) 0.33058(13)
C108_2 C 0.14639(13) 0.83058(13) 0.37154(13)
C109_2 C 0.33058(13) 0.87154(13) 0.14639(13)
C110_2 C 0.37154(13) 0.85361(13) 0.16942(13)
C111_2 C 0.35361(13) 0.83058(13) 0.12846(13)
C112_2 C 0.35361(13) 0.87154(13) 0.33058(13)
C113_2 C 0.33058(13) 0.85361(13) 0.37154(13)
C114_2 C 0.37154(13) 0.83058(13) 0.35361(13)
C117_2 C 0.14966(13) 0.87281(13) 0.33178(13)
C118_2 C 0.16822(13) 0.85034(13) 0.37281(13)
C119_2 C 0.12719(13) 0.83178(13) 0.35034(13)
C120_2 C 0.35034(13) 0.87281(13) 0.16822(13)
C121_2 C 0.33178(13) 0.85034(13) 0.12719(13)
C122_2 C 0.37281(13) 0.83178(13) 0.14966(13)
C123_2 C 0.33178(13) 0.87281(13) 0.35034(13)
C124_2 C 0.37281(13) 0.85034(13) 0.33178(13)
C125_2 C 0.35034(13) 0.83178(13) 0.37281(13)
C128_2 C 0.13512(17) 0.91961(17) 0.3109(2)
C129_2 C 0.1891(2) 0.86488(17) 0.41961(17)
C130_2 C 0.08039(17) 0.8109(2) 0.36488(17)
C131_2 C 0.36488(17) 0.91961(17) 0.1891(2)
C132_2 C 0.3109(2) 0.86488(17) 0.08039(17)
C133_2 C 0.41961(17) 0.8109(2) 0.13512(17)
C134_2 C 0.3109(2) 0.91961(17) 0.36488(17)
C135_2 C 0.41961(17) 0.86488(17) 0.3109(2)
C136_2 C 0.36488(17) 0.8109(2) 0.41961(17)
H49_2 H 0.1186 0.9128 0.3010
H50_2 H 0.1990 0.8814 0.4128
H51_2 H 0.0872 0.8010 0.3814
H52_2 H 0.3814 0.9128 0.1990
H53_2 H 0.3010 0.8814 0.0872
H54_2 H 0.4128 0.8010 0.1186
H55_2 H 0.3010 0.9128 0.3814
H56_2 H 0.4128 0.8814 0.3010
H57_2 H 0.3814 0.8010 0.4128
H60_2 H 0.1427 0.9353 0.3001
H61_2 H 0.1999 0.8573 0.4353
H62_2 H 0.0647 0.8001 0.3573
H63_2 H 0.3573 0.9353 0.1999
H64_2 H 0.3001 0.8573 0.0647
H65_2 H 0.4353 0.8001 0.1427
H66_2 H 0.3001 0.9353 0.3573
H67_2 H 0.4353 0.8573 0.3001
H68_2 H 0.3573 0.8001 0.4353
C139_2 C 0.1258(2) 0.9307(2) 0.3396(2)
C140_2 C 0.1604(2) 0.8742(2) 0.4307(2)
C141_2 C 0.0693(2) 0.8396(2) 0.3742(2)
C142_2 C 0.3742(2) 0.9307(2) 0.1604(2)
C143_2 C 0.3396(2) 0.8742(2) 0.0693(2)
C144_2 C 0.4307(2) 0.8396(2) 0.1258(2)
C145_2 C 0.3396(2) 0.9307(2) 0.3742(2)
C146_2 C 0.4307(2) 0.8742(2) 0.3396(2)
C147_2 C 0.3742(2) 0.8396(2) 0.4307(2)
H71_2 H 0.1413 0.9403 0.3484
H72_2 H 0.1516 0.8587 0.4403
H73_2 H 0.0597 0.8484 0.3587
H74_2 H 0.3587 0.9403 0.1516
H75_2 H 0.3484 0.8587 0.0597
H76_2 H 0.4403 0.8484 0.1413
H77_2 H 0.3484 0.9403 0.3587
H78_2 H 0.4403 0.8587 0.3484
H79_2 H 0.3587 0.8484 0.4403
H82_2 H 0.1104 0.9436 0.3371
H83_2 H 0.1629 0.8896 0.4436
H84_2 H 0.0564 0.8371 0.3896
H85_2 H 0.3896 0.9436 0.1629
H86_2 H 0.3371 0.8896 0.0564
H87_2 H 0.4436 0.8371 0.1104
H88_2 H 0.3371 0.9436 0.3896
H89_2 H 0.4436 0.8896 0.3371
H90_2 H 0.3896 0.8371 0.4436
H93_2 H 0.1199 0.9152 0.3512
H94_2 H 0.1488 0.8801 0.4152
H95_2 H 0.0848 0.8512 0.3801
H96_2 H 0.3801 0.9152 0.1488
H97_2 H 0.3512 0.8801 0.0848
H98_2 H 0.4152 0.8512 0.1199
H99_2 H 0.3512 0.9152 0.3801
H100_2 H 0.4152 0.8801 0.3512
H101_2 H 0.3801 0.8512 0.4152
C150_2 C 0.16486(16) 0.88413(18) 0.28256(15)
C151_2 C 0.21744(15) 0.83514(16) 0.38413(18)
C152_2 C 0.11587(18) 0.78256(15) 0.33514(16)
C153_2 C 0.33514(16) 0.88413(18) 0.21744(15)
C154_2 C 0.28256(15) 0.83514(16) 0.11587(18)
C155_2 C 0.38413(18) 0.78256(15) 0.16486(16)
C156_2 C 0.28256(15) 0.88413(18) 0.33514(16)
C157_2 C 0.38413(18) 0.83514(16) 0.28256(15)
C158_2 C 0.33514(16) 0.78256(15) 0.38413(18)
H104_2 H 0.1720 0.8995 0.2710
H105_2 H 0.2290 0.8280 0.3995
H106_2 H 0.1005 0.7710 0.3280
H107_2 H 0.3280 0.8995 0.2290
H108_2 H 0.2710 0.8280 0.1005
H109_2 H 0.3995 0.7710 0.1720
H110_2 H 0.2710 0.8995 0.3280
H111_2 H 0.3995 0.8280 0.2710
H112_2 H 0.3280 0.7710 0.3995
H115_2 H 0.1478 0.8771 0.2737
H116_2 H 0.2263 0.8522 0.3771
H117_2 H 0.1229 0.7737 0.3522
H118_2 H 0.3522 0.8771 0.2263
H119_2 H 0.2737 0.8522 0.1229
H120_2 H 0.3771 0.7737 0.1478
H121_2 H 0.2737 0.8771 0.3522
H122_2 H 0.3771 0.8522 0.2737
H123_2 H 0.3522 0.7737 0.3771
C161_2 C 0.1864(2) 0.86093(18) 0.28290(18)
C162_2 C 0.21710(18) 0.8136(2) 0.36093(18)
C163_2 C 0.13907(18) 0.78290(18) 0.3136(2)
C164_2 C 0.3136(2) 0.86093(18) 0.21710(18)
C165_2 C 0.28290(18) 0.8136(2) 0.13907(18)
C166_2 C 0.36093(18) 0.78290(18) 0.1864(2)
C167_2 C 0.28290(18) 0.86093(18) 0.3136(2)
C168_2 C 0.36093(18) 0.8136(2) 0.28290(18)
C169_2 C 0.3136(2) 0.78290(18) 0.36093(18)
H126_2 H 0.1788 0.8449 0.2927
H127_2 H 0.2073 0.8212 0.3449
H128_2 H 0.1551 0.7927 0.3212
H129_2 H 0.3212 0.8449 0.2073
H130_2 H 0.2927 0.8212 0.1551
H131_2 H 0.3449 0.7927 0.1788
H132_2 H 0.2927 0.8449 0.3212
H133_2 H 0.3449 0.8212 0.2927
H134_2 H 0.3212 0.7927 0.3449
H137_2 H 0.1910 0.8557 0.2639
H138_2 H 0.2361 0.8090 0.3557
H139_2 H 0.1443 0.7639 0.3090
H140_2 H 0.3090 0.8557 0.2361
H141_2 H 0.2639 0.8090 0.1443
H142_2 H 0.3557 0.7639 0.1910
H143_2 H 0.2639 0.8557 0.3090
H144_2 H 0.3557 0.8090 0.2639
H145_2 H 0.3090 0.7639 0.3557
H148_2 H 0.2031 0.8674 0.2924
H149_2 H 0.2076 0.7969 0.3674
H150_2 H 0.1326 0.7924 0.2969
H151_2 H 0.2969 0.8674 0.2076
H152_2 H 0.2924 0.7969 0.1326
H153_2 H 0.3674 0.7924 0.2031
H154_2 H 0.2924 0.8674 0.2969
H155_2 H 0.3674 0.7969 0.2924
H156_2 H 0.2969 0.7924 0.3674
C170_4 C 0.1582(7) 1.0000 0.3241(7)
C171_4 C 0.3241(7) 1.0000 0.3418(7)
C172_4 C 0.3418(7) 1.0000 0.1759(7)
H157_2 H 0.315564 0.9816 0.351619
H158_4 H 0.346522 1 0.344052
H160_2 H 0.148381 0.9816 0.315564
H161_4 H 0.155948 1 0.346522
H166_2 H 0.351619 0.9816 0.184436
H167_4 H 0.344052 1 0.153478
H172_2 H 0.184436 0.9816 0.148381
H173_4 H 0.153478 1 0.155948
Cd13_4 Cd 0.276551(12) 0.798510(12) 1.0000
Cd14_4 Cd 0.298510(12) 0.723449(12) 1.0000
Cd11_4 Cd 1.0000 0.776551(12) 0.298510(12)
Cd12_4 Cd 1.0000 0.798510(12) 0.223449(12)
O4_5 O 0.2500 0.2500 0.0000
O5_5 O 0.18103(19) 0.18148(17) 0.0000
C15_5 C 0.1582(7) 0.1759(7) 0.0000
Cd3_5 Cd 0.223449(12) 0.298510(12) -0.0000
Cd4_5 Cd 0.298510(12) 0.276551(12) -0.0000
O6_3 O 0.20635(9) 0.26514(8) 0.02968(8)
O11_3 O 0.29365(9) 0.23486(8) 0.02968(8)
O14_3 O 0.26514(8) 0.29365(9) 0.02968(8)
O21_3 O 0.16972(8) 0.23855(8) 0.03308(8)
O27_3 O 0.23855(8) 0.33028(8) 0.03308(8)
O28_3 O 0.33028(8) 0.26145(8) 0.03308(8)
O36_5 O 0.31852(17) 0.18103(19) 0.0000
O37_5 O 0.18148(17) 0.31897(19) 0.0000
O38_5 O 0.31897(19) 0.31852(17) 0.0000
C170_5 C 0.3241(7) 0.1582(7) 0.0000
C171_5 C 0.3418(7) 0.3241(7) 0.0000
C172_5 C 0.1759(7) 0.3418(7) -0.0000
H158_5 H 0.344052 0.346522 -2.6019e-18
H159_3 H 0.351619 0.315564 0.0183997
H161_5 H 0.346522 0.155948 -2.6019e-18
H162_3 H 0.315564 0.148381 0.0183997
H167_5 H 0.153478 0.344052 -2.6019e-18
H168_3 H 0.184436 0.351619 0.0183997
H173_5 H 0.155948 0.153478 -2.6019e-18
H174_3 H 0.148381 0.184436 0.0183997
O3_3 O 0.16972(8) 0.23855(8) 0.96692(8)
O4_6 O 0.2500 0.2500 1.0000
O5_6 O 0.18103(19) 0.18148(17) 1.0000
C15_6 C 0.1582(7) 0.1759(7) 1.0000
Cd3_6 Cd 0.223449(12) 0.298510(12) 1.0000
Cd4_6 Cd 0.298510(12) 0.276551(12) 1.0000
Cd9_3 Cd 0.5000 0.223449(12) 0.798510(12)
Cd10_3 Cd 0.5000 0.201490(12) 0.723449(12)
Cd11_5 Cd 0.298510(12) 0.0000 0.776551(12)
Cd12_5 Cd 0.223449(12) 0.0000 0.798510(12)
Cd13_5 Cd 0.0000 0.276551(12) 0.798510(12)
Cd14_5 Cd 0.0000 0.298510(12) 0.723449(12)
Cd15_3 Cd 0.201490(12) 0.5000 0.776551(12)
Cd16_3 Cd 0.276551(12) 0.5000 0.798510(12)
Cd17_3 Cd 0.298510(12) 0.5000 0.723449(12)
Cd18_3 Cd 0.5000 0.298510(12) 0.776551(12)
O7_3 O 0.23486(8) 0.20635(9) 0.97032(8)
O8_3 O 0.20635(9) 0.26514(8) 0.97032(8)
O12_3 O 0.29365(9) 0.23486(8) 0.97032(8)
O13_3 O 0.26514(8) 0.29365(9) 0.97032(8)
O15_3 O 0.47032(8) 0.20635(9) 0.76514(8)
O16_3 O 0.26514(8) 0.02968(8) 0.79365(9)
O17_3 O 0.02968(8) 0.29365(9) 0.76514(8)
O18_3 O 0.23486(8) 0.47032(8) 0.79365(9)
O19_3 O 0.29365(9) 0.47032(8) 0.76514(8)
O20_3 O 0.47032(8) 0.26514(8) 0.79365(9)
O25_3 O 0.26145(8) 0.16972(8) 0.96692(8)
O26_3 O 0.23855(8) 0.33028(8) 0.96692(8)
O29_3 O 0.33028(8) 0.26145(8) 0.96692(8)
O30_3 O 0.46692(8) 0.16972(8) 0.73855(8)
O31_3 O 0.23855(8) 0.03308(8) 0.83028(8)
O32_3 O 0.03308(8) 0.33028(8) 0.73855(8)
O33_3 O 0.26145(8) 0.46692(8) 0.83028(8)
O34_3 O 0.33028(8) 0.46692(8) 0.73855(8)
O35_3 O 0.46692(8) 0.23855(8) 0.83028(8)
O36_6 O 0.31852(17) 0.18103(19) 1.0000
O37_6 O 0.18148(17) 0.31897(19) 1.0000
O38_6 O 0.31897(19) 0.31852(17) 1.0000
C16_3 C 0.18248(13) 0.25946(13) 0.95990(11)
C19_3 C 0.31752(13) 0.24054(13) 0.95990(11)
C20_3 C 0.45990(11) 0.18248(13) 0.75946(13)
C21_3 C 0.25946(13) 0.04010(11) 0.81752(13)
C22_3 C 0.04010(11) 0.31752(13) 0.75946(13)
C23_3 C 0.24054(13) 0.45990(11) 0.81752(13)
C24_3 C 0.25946(13) 0.31752(13) 0.95990(11)
C25_3 C 0.31752(13) 0.45990(11) 0.75946(13)
C26_3 C 0.45990(11) 0.25946(13) 0.81752(13)
C29_3 C 0.32879(13) 0.22167(12) 0.93799(12)
C30_3 C 0.43799(12) 0.17121(13) 0.77833(12)
C31_3 C 0.27833(12) 0.06201(12) 0.82879(13)
C32_3 C 0.17121(13) 0.27833(12) 0.93799(12)
C33_3 C 0.06201(12) 0.32879(13) 0.77833(12)
C34_3 C 0.22167(12) 0.43799(12) 0.82879(13)
C35_3 C 0.27833(12) 0.32879(13) 0.93799(12)
C36_3 C 0.32879(13) 0.43799(12) 0.77833(12)
C37_3 C 0.43799(12) 0.27833(12) 0.82879(13)
C40_3 C 0.31402(14) 0.19871(12) 0.92910(12)
C41_3 C 0.42910(12) 0.18598(14) 0.80129(12)
C42_3 C 0.30129(12) 0.07090(12) 0.81402(14)
C43_3 C 0.18598(14) 0.30129(12) 0.92910(12)
C44_3 C 0.07090(12) 0.31402(14) 0.80129(12)
C45_3 C 0.19871(12) 0.42910(12) 0.81402(14)
C46_3 C 0.30129(12) 0.31402(14) 0.92910(12)
C47_3 C 0.31402(14) 0.42910(12) 0.80129(12)
C48_3 C 0.42910(12) 0.30129(12) 0.81402(14)
H16_3 H 0.2971 0.1938 0.9377
H17_3 H 0.4377 0.2029 0.8062
H18_3 H 0.3062 0.0623 0.7971
H19_3 H 0.2029 0.3062 0.9377
H20_3 H 0.0623 0.2971 0.8062
H21_3 H 0.1938 0.4377 0.7971
H22_3 H 0.3062 0.2971 0.9377
H23_3 H 0.2971 0.4377 0.8062
H24_3 H 0.4377 0.3062 0.7971
C51_3 C 0.32438(13) 0.18315(13) 0.90755(12)
C52_3 C 0.40755(12) 0.17562(13) 0.81685(13)
C53_3 C 0.31685(13) 0.09245(12) 0.82438(13)
C54_3 C 0.17562(13) 0.31685(13) 0.90755(12)
C55_3 C 0.09245(12) 0.32438(13) 0.81685(13)
C56_3 C 0.18315(13) 0.40755(12) 0.82438(13)
C57_3 C 0.31685(13) 0.32438(13) 0.90755(12)
C58_3 C 0.32438(13) 0.40755(12) 0.81685(13)
C59_3 C 0.40755(12) 0.31685(13) 0.82438(13)
C62_3 C 0.34897(13) 0.18974(13) 0.89420(12)
C63_3 C 0.31026(13) 0.10580(12) 0.84897(13)
C64_3 C 0.39420(12) 0.15103(13) 0.81026(13)
C65_3 C 0.15103(13) 0.31026(13) 0.89420(12)
C66_3 C 0.18974(13) 0.39420(12) 0.84897(13)
C67_3 C 0.10580(12) 0.34897(13) 0.81026(13)
C68_3 C 0.31026(13) 0.34897(13) 0.89420(12)
C69_3 C 0.39420(12) 0.31026(13) 0.84897(13)
C70_3 C 0.34897(13) 0.39420(12) 0.81026(13)
C73_3 C 0.36410(14) 0.21265(13) 0.90378(13)
C74_3 C 0.28735(13) 0.09622(13) 0.86410(14)
C75_3 C 0.40378(13) 0.13590(14) 0.78735(13)
C76_3 C 0.13590(14) 0.28735(13) 0.90378(13)
C77_3 C 0.21265(13) 0.40378(13) 0.86410(14)
C78_3 C 0.09622(13) 0.36410(14) 0.78735(13)
C79_3 C 0.28735(13) 0.36410(14) 0.90378(13)
C80_3 C 0.40378(13) 0.28735(13) 0.86410(14)
C81_3 C 0.36410(14) 0.40378(13) 0.78735(13)
H27_3 H 0.3812 0.2174 0.8954
H28_3 H 0.2826 0.1046 0.8812
H29_3 H 0.3954 0.1188 0.7826
H30_3 H 0.1188 0.2826 0.8954
H31_3 H 0.2174 0.3954 0.8812
H32_3 H 0.1046 0.3812 0.7826
H33_3 H 0.2826 0.3812 0.8954
H34_3 H 0.3954 0.2826 0.8812
H35_3 H 0.3812 0.3954 0.7826
C84_3 C 0.35389(13) 0.22808(12) 0.92538(12)
C85_3 C 0.27192(12) 0.07462(12) 0.85389(13)
C86_3 C 0.42538(12) 0.14611(13) 0.77192(12)
C87_3 C 0.14611(13) 0.27192(12) 0.92538(12)
C88_3 C 0.22808(12) 0.42538(12) 0.85389(13)
C89_3 C 0.07462(12) 0.35389(13) 0.77192(12)
C90_3 C 0.27192(12) 0.35389(13) 0.92538(12)
C91_3 C 0.42538(12) 0.27192(12) 0.85389(13)
C92_3 C 0.35389(13) 0.42538(12) 0.77192(12)
H38_3 H 0.3642 0.2435 0.9319
H39_3 H 0.2565 0.0681 0.8642
H40_3 H 0.4319 0.1358 0.7565
H41_3 H 0.1358 0.2565 0.9319
H42_3 H 0.2435 0.4319 0.8642
H43_3 H 0.0681 0.3642 0.7565
H44_3 H 0.2565 0.3642 0.9319
H45_3 H 0.4319 0.2565 0.8642
H46_3 H 0.3642 0.4319 0.7565
C95_3 C 0.31147(14) 0.15723(14) 0.89583(13)
C96_3 C 0.39583(13) 0.18853(14) 0.84277(14)
C97_3 C 0.34277(14) 0.10417(13) 0.81147(14)
C98_3 C 0.18853(14) 0.34277(14) 0.89583(13)
C99_3 C 0.10417(13) 0.31147(14) 0.84277(14)
C100_3 C 0.15723(14) 0.39583(13) 0.81147(14)
C101_3 C 0.34277(14) 0.31147(14) 0.89583(13)
C102_3 C 0.31147(14) 0.39583(13) 0.84277(14)
C103_3 C 0.39583(13) 0.34277(14) 0.81147(14)
C106_3 C 0.35361(13) 0.16942(13) 0.87154(13)
C107_3 C 0.33058(13) 0.12846(13) 0.85361(13)
C108_3 C 0.37154(13) 0.14639(13) 0.83058(13)
C109_3 C 0.14639(13) 0.33058(13) 0.87154(13)
C110_3 C 0.16942(13) 0.37154(13) 0.85361(13)
C111_3 C 0.12846(13) 0.35361(13) 0.83058(13)
C112_3 C 0.33058(13) 0.35361(13) 0.87154(13)
C113_3 C 0.37154(13) 0.33058(13) 0.85361(13)
C114_3 C 0.35361(13) 0.37154(13) 0.83058(13)
C117_3 C 0.33178(13) 0.14966(13) 0.87281(13)
C118_3 C 0.37281(13) 0.16822(13) 0.85034(13)
C119_3 C 0.35034(13) 0.12719(13) 0.83178(13)
C120_3 C 0.16822(13) 0.35034(13) 0.87281(13)
C121_3 C 0.12719(13) 0.33178(13) 0.85034(13)
C122_3 C 0.14966(13) 0.37281(13) 0.83178(13)
C123_3 C 0.35034(13) 0.33178(13) 0.87281(13)
C124_3 C 0.33178(13) 0.37281(13) 0.85034(13)
C125_3 C 0.37281(13) 0.35034(13) 0.83178(13)
C128_3 C 0.3109(2) 0.13512(17) 0.91961(17)
C129_3 C 0.41961(17) 0.1891(2) 0.86488(17)
C130_3 C 0.36488(17) 0.08039(17) 0.8109(2)
C131_3 C 0.1891(2) 0.36488(17) 0.91961(17)
C132_3 C 0.08039(17) 0.3109(2) 0.86488(17)
C133_3 C 0.13512(17) 0.41961(17) 0.8109(2)
C134_3 C 0.36488(17) 0.3109(2) 0.91961(17)
C135_3 C 0.3109(2) 0.41961(17) 0.86488(17)
C136_3 C 0.41961(17) 0.36488(17) 0.8109(2)
H49_3 H 0.3010 0.1186 0.9128
H50_3 H 0.4128 0.1990 0.8814
H51_3 H 0.3814 0.0872 0.8010
H52_3 H 0.1990 0.3814 0.9128
H53_3 H 0.0872 0.3010 0.8814
H54_3 H 0.1186 0.4128 0.8010
H55_3 H 0.3814 0.3010 0.9128
H56_3 H 0.3010 0.4128 0.8814
H57_3 H 0.4128 0.3814 0.8010
H60_3 H 0.3001 0.1427 0.9353
H61_3 H 0.4353 0.1999 0.8573
H62_3 H 0.3573 0.0647 0.8001
H63_3 H 0.1999 0.3573 0.9353
H64_3 H 0.0647 0.3001 0.8573
H65_3 H 0.1427 0.4353 0.8001
H66_3 H 0.3573 0.3001 0.9353
H67_3 H 0.3001 0.4353 0.8573
H68_3 H 0.4353 0.3573 0.8001
C139_3 C 0.3396(2) 0.1258(2) 0.9307(2)
C140_3 C 0.4307(2) 0.1604(2) 0.8742(2)
C141_3 C 0.3742(2) 0.0693(2) 0.8396(2)
C142_3 C 0.1604(2) 0.3742(2) 0.9307(2)
C143_3 C 0.0693(2) 0.3396(2) 0.8742(2)
C144_3 C 0.1258(2) 0.4307(2) 0.8396(2)
C145_3 C 0.3742(2) 0.3396(2) 0.9307(2)
C146_3 C 0.3396(2) 0.4307(2) 0.8742(2)
C147_3 C 0.4307(2) 0.3742(2) 0.8396(2)
H71_3 H 0.3484 0.1413 0.9403
H72_3 H 0.4403 0.1516 0.8587
H73_3 H 0.3587 0.0597 0.8484
H74_3 H 0.1516 0.3587 0.9403
H75_3 H 0.0597 0.3484 0.8587
H76_3 H 0.1413 0.4403 0.8484
H77_3 H 0.3587 0.3484 0.9403
H78_3 H 0.3484 0.4403 0.8587
H79_3 H 0.4403 0.3587 0.8484
H82_3 H 0.3371 0.1104 0.9436
H83_3 H 0.4436 0.1629 0.8896
H84_3 H 0.3896 0.0564 0.8371
H85_3 H 0.1629 0.3896 0.9436
H86_3 H 0.0564 0.3371 0.8896
H87_3 H 0.1104 0.4436 0.8371
H88_3 H 0.3896 0.3371 0.9436
H89_3 H 0.3371 0.4436 0.8896
H90_3 H 0.4436 0.3896 0.8371
H93_3 H 0.3512 0.1199 0.9152
H94_3 H 0.4152 0.1488 0.8801
H95_3 H 0.3801 0.0848 0.8512
H96_3 H 0.1488 0.3801 0.9152
H97_3 H 0.0848 0.3512 0.8801
H98_3 H 0.1199 0.4152 0.8512
H99_3 H 0.3801 0.3512 0.9152
H100_3 H 0.3512 0.4152 0.8801
H101_3 H 0.4152 0.3801 0.8512
C150_3 C 0.28256(15) 0.16486(16) 0.88413(18)
C151_3 C 0.38413(18) 0.21744(15) 0.83514(16)
C152_3 C 0.33514(16) 0.11587(18) 0.78256(15)
C153_3 C 0.21744(15) 0.33514(16) 0.88413(18)
C154_3 C 0.11587(18) 0.28256(15) 0.83514(16)
C155_3 C 0.16486(16) 0.38413(18) 0.78256(15)
C156_3 C 0.33514(16) 0.28256(15) 0.88413(18)
C157_3 C 0.28256(15) 0.38413(18) 0.83514(16)
C158_3 C 0.38413(18) 0.33514(16) 0.78256(15)
H104_3 H 0.2710 0.1720 0.8995
H105_3 H 0.3995 0.2290 0.8280
H106_3 H 0.3280 0.1005 0.7710
H107_3 H 0.2290 0.3280 0.8995
H108_3 H 0.1005 0.2710 0.8280
H109_3 H 0.1720 0.3995 0.7710
H110_3 H 0.3280 0.2710 0.8995
H111_3 H 0.2710 0.3995 0.8280
H112_3 H 0.3995 0.3280 0.7710
H115_3 H 0.2737 0.1478 0.8771
H116_3 H 0.3771 0.2263 0.8522
H117_3 H 0.3522 0.1229 0.7737
H118_3 H 0.2263 0.3522 0.8771
H119_3 H 0.1229 0.2737 0.8522
H120_3 H 0.1478 0.3771 0.7737
H121_3 H 0.3522 0.2737 0.8771
H122_3 H 0.2737 0.3771 0.8522
H123_3 H 0.3771 0.3522 0.7737
C161_3 C 0.28290(18) 0.1864(2) 0.86093(18)
C162_3 C 0.36093(18) 0.21710(18) 0.8136(2)
C163_3 C 0.3136(2) 0.13907(18) 0.78290(18)
C164_3 C 0.21710(18) 0.3136(2) 0.86093(18)
C165_3 C 0.13907(18) 0.28290(18) 0.8136(2)
C166_3 C 0.1864(2) 0.36093(18) 0.78290(18)
C167_3 C 0.3136(2) 0.28290(18) 0.86093(18)
C168_3 C 0.28290(18) 0.36093(18) 0.8136(2)
C169_3 C 0.36093(18) 0.3136(2) 0.78290(18)
H126_3 H 0.2927 0.1788 0.8449
H127_3 H 0.3449 0.2073 0.8212
H128_3 H 0.3212 0.1551 0.7927
H129_3 H 0.2073 0.3212 0.8449
H130_3 H 0.1551 0.2927 0.8212
H131_3 H 0.1788 0.3449 0.7927
H132_3 H 0.3212 0.2927 0.8449
H133_3 H 0.2927 0.3449 0.8212
H134_3 H 0.3449 0.3212 0.7927
H137_3 H 0.2639 0.1910 0.8557
H138_3 H 0.3557 0.2361 0.8090
H139_3 H 0.3090 0.1443 0.7639
H140_3 H 0.2361 0.3090 0.8557
H141_3 H 0.1443 0.2639 0.8090
H142_3 H 0.1910 0.3557 0.7639
H143_3 H 0.3090 0.2639 0.8557
H144_3 H 0.2639 0.3557 0.8090
H145_3 H 0.3557 0.3090 0.7639
H148_3 H 0.2924 0.2031 0.8674
H149_3 H 0.3674 0.2076 0.7969
H150_3 H 0.2969 0.1326 0.7924
H151_3 H 0.2076 0.2969 0.8674
H152_3 H 0.1326 0.2924 0.7969
H153_3 H 0.2031 0.3674 0.7924
H154_3 H 0.2969 0.2924 0.8674
H155_3 H 0.2924 0.3674 0.7969
H156_3 H 0.3674 0.2969 0.7924
C170_6 C 0.3241(7) 0.1582(7) 1.0000
C171_6 C 0.3418(7) 0.3241(7) 1.0000
C172_6 C 0.1759(7) 0.3418(7) 1.0000
H157_3 H 0.351619 0.315564 0.9816
H158_6 H 0.344052 0.346522 1
H160_3 H 0.315564 0.148381 0.9816
H161_6 H 0.346522 0.155948 1
H166_3 H 0.184436 0.351619 0.9816
H167_6 H 0.153478 0.344052 1
H172_3 H 0.148381 0.184436 0.9816
H173_6 H 0.155948 0.153478 1
Cd11_6 Cd 0.298510(12) 1.0000 0.776551(12)
Cd12_6 Cd 0.223449(12) 1.0000 0.798510(12)
Cd13_6 Cd 1.0000 0.276551(12) 0.798510(12)
Cd14_6 Cd 1.0000 0.298510(12) 0.723449(12)
Cd1_3 Cd 0.701490(12) 0.5000 0.276551(12)
O2_2 O 0.73486(8) 0.52968(8) 0.29365(9)
O3_4 O 0.66972(8) 0.46692(8) 0.26145(8)
O4_7 O 0.7500 0.5000 0.2500
O5_7 O 0.68103(19) 0.5000 0.31852(17)
C1_2 C 0.74054(13) 0.54010(11) 0.31752(13)
C2_2 C 0.72167(12) 0.56201(12) 0.32879(13)
C3_2 C 0.69871(12) 0.57090(12) 0.31402(14)
H1_2 H 0.6938 0.5623 0.2971
C4_2 C 0.68315(13) 0.59245(12) 0.32438(13)
C5_2 C 0.68974(13) 0.60580(12) 0.34897(13)
C6_2 C 0.71265(13) 0.59622(13) 0.36410(14)
H2_2 H 0.7174 0.6046 0.3812
C7_2 C 0.72808(12) 0.57462(12) 0.35389(13)
H3_2 H 0.7435 0.5681 0.3642
C8_2 C 0.65723(14) 0.60417(13) 0.31147(14)
C9_2 C 0.66942(13) 0.62846(13) 0.35361(13)
C10_2 C 0.64966(13) 0.62719(13) 0.33178(13)
C11_2 C 0.63512(17) 0.58039(17) 0.3109(2)
H4_2 H 0.6186 0.5872 0.3010
H5_2 H 0.6427 0.5647 0.3001
C12_2 C 0.6258(2) 0.5693(2) 0.3396(2)
H6_2 H 0.6413 0.5597 0.3484
H7_2 H 0.6104 0.5564 0.3371
H8_2 H 0.6199 0.5848 0.3512
C13_2 C 0.66486(16) 0.61587(18) 0.28256(15)
H9_2 H 0.6720 0.6005 0.2710
H10_2 H 0.6478 0.6229 0.2737
C14_2 C 0.6864(2) 0.63907(18) 0.28290(18)
H11_2 H 0.6788 0.6551 0.2927
H12_2 H 0.6910 0.6443 0.2639
H13_2 H 0.7031 0.6326 0.2924
C15_7 C 0.6582(7) 0.5000 0.3241(7)
Cd5_3 Cd 0.723449(12) 0.701490(12) 0.5000
Cd6_3 Cd 0.701490(12) 0.776551(12) 0.5000
Cd8_3 Cd 0.5000 0.701490(12) 0.223449(12)
Cd13_7 Cd 0.5000 0.298510(12) 0.223449(12)
Cd14_7 Cd 0.5000 0.223449(12) 0.201490(12)
Cd15_4 Cd 0.701490(12) 0.276551(12) 0.0000
O6_4 O 0.70635(9) 0.52968(8) 0.23486(8)
O7_4 O 0.73486(8) 0.47032(8) 0.29365(9)
O8_4 O 0.70635(9) 0.47032(8) 0.23486(8)
O9_2 O 0.70635(9) 0.73486(8) 0.47032(8)
O10_2 O 0.52968(8) 0.70635(9) 0.26514(8)
O11_4 O 0.79365(9) 0.52968(8) 0.26514(8)
O14_4 O 0.76514(8) 0.52968(8) 0.20635(9)
O17_4 O 0.52968(8) 0.26514(8) 0.20635(9)
O18_4 O 0.73486(8) 0.29365(9) 0.02968(8)
O21_4 O 0.66972(8) 0.53308(8) 0.26145(8)
O22_2 O 0.76145(8) 0.53308(8) 0.33028(8)
O23_2 O 0.66972(8) 0.76145(8) 0.46692(8)
O24_2 O 0.53308(8) 0.66972(8) 0.23855(8)
O25_4 O 0.76145(8) 0.46692(8) 0.33028(8)
O27_4 O 0.73855(8) 0.53308(8) 0.16972(8)
O28_4 O 0.83028(8) 0.53308(8) 0.23855(8)
O32_4 O 0.53308(8) 0.23855(8) 0.16972(8)
O33_4 O 0.76145(8) 0.33028(8) 0.03308(8)
O36_7 O 0.81852(17) 0.5000 0.31897(19)
O37_7 O 0.68148(17) 0.5000 0.18103(19)
O38_7 O 0.81897(19) 0.5000 0.18148(17)
C16_4 C 0.68248(13) 0.45990(11) 0.24054(13)
C17_2 C 0.68248(13) 0.74054(13) 0.45990(11)
C18_2 C 0.54010(11) 0.68248(13) 0.25946(13)
C22_4 C 0.54010(11) 0.25946(13) 0.18248(13)
C23_4 C 0.74054(13) 0.31752(13) 0.04010(11)
C27_2 C 0.67121(13) 0.72167(12) 0.43799(12)
C28_2 C 0.56201(12) 0.67121(13) 0.27833(12)
C32_4 C 0.67121(13) 0.43799(12) 0.22167(12)
C33_4 C 0.56201(12) 0.27833(12) 0.17121(13)
C34_4 C 0.72167(12) 0.32879(13) 0.06201(12)
C38_2 C 0.68598(14) 0.69871(12) 0.42910(12)
C39_2 C 0.57090(12) 0.68598(14) 0.30129(12)
C43_4 C 0.68598(14) 0.42910(12) 0.19871(12)
C44_4 C 0.57090(12) 0.30129(12) 0.18598(14)
C45_4 C 0.69871(12) 0.31402(14) 0.07090(12)
H14_2 H 0.7029 0.6938 0.4377
H15_2 H 0.5623 0.7029 0.3062
H19_4 H 0.7029 0.4377 0.1938
H20_4 H 0.5623 0.3062 0.2029
H21_4 H 0.6938 0.2971 0.0623
C49_2 C 0.67562(13) 0.68315(13) 0.40755(12)
C50_2 C 0.59245(12) 0.67562(13) 0.31685(13)
C54_4 C 0.67562(13) 0.40755(12) 0.18315(13)
C55_4 C 0.59245(12) 0.31685(13) 0.17562(13)
C56_4 C 0.68315(13) 0.32438(13) 0.09245(12)
C60_2 C 0.60580(12) 0.65103(13) 0.31026(13)
C61_2 C 0.65103(13) 0.68974(13) 0.39420(12)
C65_4 C 0.65103(13) 0.39420(12) 0.18974(13)
C66_4 C 0.68974(13) 0.34897(13) 0.10580(12)
C67_4 C 0.60580(12) 0.31026(13) 0.15103(13)
C71_2 C 0.59622(13) 0.63590(14) 0.28735(13)
C72_2 C 0.63590(14) 0.71265(13) 0.40378(13)
C76_4 C 0.63590(14) 0.40378(13) 0.21265(13)
C77_4 C 0.71265(13) 0.36410(14) 0.09622(13)
C78_4 C 0.59622(13) 0.28735(13) 0.13590(14)
H25_2 H 0.6046 0.6188 0.2826
H26_2 H 0.6188 0.7174 0.3954
H30_4 H 0.6188 0.3954 0.2174
H31_4 H 0.7174 0.3812 0.1046
H32_4 H 0.6046 0.2826 0.1188
C82_2 C 0.57462(12) 0.64611(13) 0.27192(12)
C83_2 C 0.64611(13) 0.72808(12) 0.42538(12)
C87_4 C 0.64611(13) 0.42538(12) 0.22808(12)
C88_4 C 0.72808(12) 0.35389(13) 0.07462(12)
C89_4 C 0.57462(12) 0.27192(12) 0.14611(13)
H36_2 H 0.5681 0.6358 0.2565
H37_2 H 0.6358 0.7435 0.4319
H41_4 H 0.6358 0.4319 0.2435
H42_4 H 0.7435 0.3642 0.0681
H43_4 H 0.5681 0.2565 0.1358
C93_2 C 0.68853(14) 0.65723(14) 0.39583(13)
C94_2 C 0.60417(13) 0.68853(14) 0.34277(14)
C98_4 C 0.68853(14) 0.39583(13) 0.15723(14)
C99_4 C 0.60417(13) 0.34277(14) 0.18853(14)
C100_4 C 0.65723(14) 0.31147(14) 0.10417(13)
C104_2 C 0.62846(13) 0.64639(13) 0.33058(13)
C105_2 C 0.64639(13) 0.66942(13) 0.37154(13)
C109_4 C 0.64639(13) 0.37154(13) 0.16942(13)
C110_4 C 0.66942(13) 0.35361(13) 0.12846(13)
C111_4 C 0.62846(13) 0.33058(13) 0.14639(13)
C115_2 C 0.66822(13) 0.64966(13) 0.37281(13)
C116_2 C 0.62719(13) 0.66822(13) 0.35034(13)
C120_4 C 0.66822(13) 0.37281(13) 0.14966(13)
C121_4 C 0.62719(13) 0.35034(13) 0.16822(13)
C122_4 C 0.64966(13) 0.33178(13) 0.12719(13)
C126_2 C 0.6891(2) 0.63512(17) 0.41961(17)
C127_2 C 0.58039(17) 0.6891(2) 0.36488(17)
C131_4 C 0.6891(2) 0.41961(17) 0.13512(17)
C132_4 C 0.58039(17) 0.36488(17) 0.1891(2)
C133_4 C 0.63512(17) 0.3109(2) 0.08039(17)
H47_2 H 0.6990 0.6186 0.4128
H48_2 H 0.5872 0.6990 0.3814
H52_4 H 0.6990 0.4128 0.1186
H53_4 H 0.5872 0.3814 0.1990
H54_4 H 0.6186 0.3010 0.0872
H58_2 H 0.6999 0.6427 0.4353
H59_2 H 0.5647 0.6999 0.3573
H63_4 H 0.6999 0.4353 0.1427
H64_4 H 0.5647 0.3573 0.1999
H65_4 H 0.6427 0.3001 0.0647
C137_2 C 0.6604(2) 0.6258(2) 0.4307(2)
C138_2 C 0.5693(2) 0.6604(2) 0.3742(2)
C142_4 C 0.6604(2) 0.4307(2) 0.1258(2)
C143_4 C 0.5693(2) 0.3742(2) 0.1604(2)
C144_4 C 0.6258(2) 0.3396(2) 0.0693(2)
H69_2 H 0.6516 0.6413 0.4403
H70_2 H 0.5597 0.6516 0.3587
H74_4 H 0.6516 0.4403 0.1413
H75_4 H 0.5597 0.3587 0.1516
H76_4 H 0.6413 0.3484 0.0597
H80_2 H 0.6629 0.6104 0.4436
H81_2 H 0.5564 0.6629 0.3896
H85_4 H 0.6629 0.4436 0.1104
H86_4 H 0.5564 0.3896 0.1629
H87_4 H 0.6104 0.3371 0.0564
H91_2 H 0.6488 0.6199 0.4152
H92_2 H 0.5848 0.6488 0.3801
H96_4 H 0.6488 0.4152 0.1199
H97_4 H 0.5848 0.3801 0.1488
H98_4 H 0.6199 0.3512 0.0848
C148_2 C 0.71744(15) 0.66486(16) 0.38413(18)
C149_2 C 0.61587(18) 0.71744(15) 0.33514(16)
C153_4 C 0.71744(15) 0.38413(18) 0.16486(16)
C154_4 C 0.61587(18) 0.33514(16) 0.21744(15)
C155_4 C 0.66486(16) 0.28256(15) 0.11587(18)
H102_2 H 0.7290 0.6720 0.3995
H103_2 H 0.6005 0.7290 0.3280
H107_4 H 0.7290 0.3995 0.1720
H108_4 H 0.6005 0.3280 0.2290
H109_4 H 0.6720 0.2710 0.1005
H113_2 H 0.7263 0.6478 0.3771
H114_2 H 0.6229 0.7263 0.3522
H118_4 H 0.7263 0.3771 0.1478
H119_4 H 0.6229 0.3522 0.2263
H120_4 H 0.6478 0.2737 0.1229
C159_2 C 0.71710(18) 0.6864(2) 0.36093(18)
C160_2 C 0.63907(18) 0.71710(18) 0.3136(2)
C164_4 C 0.71710(18) 0.36093(18) 0.1864(2)
C165_4 C 0.63907(18) 0.3136(2) 0.21710(18)
C166_4 C 0.6864(2) 0.28290(18) 0.13907(18)
H124_2 H 0.7073 0.6788 0.3449
H125_2 H 0.6551 0.7073 0.3212
H129_4 H 0.7073 0.3449 0.1788
H130_4 H 0.6551 0.3212 0.2073
H131_4 H 0.6788 0.2927 0.1551
H135_2 H 0.7361 0.6910 0.3557
H136_2 H 0.6443 0.7361 0.3090
H140_4 H 0.7361 0.3557 0.1910
H141_4 H 0.6443 0.3090 0.2361
H142_4 H 0.6910 0.2639 0.1443
H146_2 H 0.7076 0.7031 0.3674
H147_2 H 0.6326 0.7076 0.2969
H151_4 H 0.7076 0.3674 0.2031
H152_4 H 0.6326 0.2969 0.2076
H153_4 H 0.7031 0.2924 0.1326
C170_7 C 0.8241(7) 0.5000 0.3418(7)
C171_7 C 0.8418(7) 0.5000 0.1759(7)
C172_7 C 0.6759(7) 0.5000 0.1582(7)
H157_4 H 0.851619 0.4816 0.184436
H158_7 H 0.844052 0.5 0.153478
H159_4 H 0.851619 0.5184 0.184436
H160_4 H 0.815564 0.4816 0.351619
H161_7 H 0.846522 0.5 0.344052
H162_4 H 0.815564 0.5184 0.351619
H166_4 H 0.684436 0.4816 0.148381
H167_7 H 0.653478 0.5 0.155948
H168_4 H 0.684436 0.5184 0.148381
H172_4 H 0.648381 0.4816 0.315564
H173_7 H 0.655948 0.5 0.346522
H174_4 H 0.648381 0.5184 0.315564
Cd15_5 Cd 0.701490(12) 0.276551(12) 1.0000
Cd9_4 Cd 0.0000 0.701490(12) 0.723449(12)
Cd10_4 Cd 0.0000 0.776551(12) 0.701490(12)
Cd18_4 Cd 0.0000 0.723449(12) 0.798510(12)
Cd15_6 Cd 0.701490(12) 0.723449(12) 0.0000
Cd16_4 Cd 0.776551(12) 0.701490(12) 0.0000
Cd17_4 Cd 0.798510(12) 0.776551(12) 0.0000
Cd1_4 Cd 0.701490(12) 0.5000 0.723449(12)
O2_3 O 0.73486(8) 0.47032(8) 0.70635(9)
O3_5 O 0.66972(8) 0.53308(8) 0.73855(8)
O4_8 O 0.7500 0.5000 0.7500
O5_8 O 0.68103(19) 0.5000 0.68148(17)
C1_3 C 0.74054(13) 0.45990(11) 0.68248(13)
C2_3 C 0.72167(12) 0.43799(12) 0.67121(13)
C3_3 C 0.69871(12) 0.42910(12) 0.68598(14)
H1_3 H 0.6938 0.4377 0.7029
C4_3 C 0.68315(13) 0.40755(12) 0.67562(13)
C5_3 C 0.68974(13) 0.39420(12) 0.65103(13)
C6_3 C 0.71265(13) 0.40378(13) 0.63590(14)
H2_3 H 0.7174 0.3954 0.6188
C7_3 C 0.72808(12) 0.42538(12) 0.64611(13)
H3_3 H 0.7435 0.4319 0.6358
C8_3 C 0.65723(14) 0.39583(13) 0.68853(14)
C9_3 C 0.66942(13) 0.37154(13) 0.64639(13)
C10_3 C 0.64966(13) 0.37281(13) 0.66822(13)
C11_3 C 0.63512(17) 0.41961(17) 0.6891(2)
H4_3 H 0.6186 0.4128 0.6990
H5_3 H 0.6427 0.4353 0.6999
C12_3 C 0.6258(2) 0.4307(2) 0.6604(2)
H6_3 H 0.6413 0.4403 0.6516
H7_3 H 0.6104 0.4436 0.6629
H8_3 H 0.6199 0.4152 0.6488
C13_3 C 0.66486(16) 0.38413(18) 0.71744(15)
H9_3 H 0.6720 0.3995 0.7290
H10_3 H 0.6478 0.3771 0.7263
C14_3 C 0.6864(2) 0.36093(18) 0.71710(18)
H11_3 H 0.6788 0.3449 0.7073
H12_3 H 0.6910 0.3557 0.7361
H13_3 H 0.7031 0.3674 0.7076
C15_8 C 0.6582(7) 0.5000 0.6759(7)
Cd2_3 Cd 0.776551(12) 0.5000 0.701490(12)
Cd3_7 Cd 0.723449(12) 0.5000 0.798510(12)
Cd4_7 Cd 0.798510(12) 0.5000 0.776551(12)
Cd6_4 Cd 0.701490(12) 0.223449(12) 0.5000
Cd7_3 Cd 0.5000 0.276551(12) 0.701490(12)
Cd9_5 Cd 1.0000 0.701490(12) 0.723449(12)
Cd10_5 Cd 1.0000 0.776551(12) 0.701490(12)
Cd11_7 Cd 0.798510(12) 0.723449(12) 0.5000
Cd13_8 Cd 0.5000 0.701490(12) 0.776551(12)
Cd14_8 Cd 0.5000 0.776551(12) 0.798510(12)
Cd15_7 Cd 0.701490(12) 0.723449(12) 1.0000
Cd16_5 Cd 0.776551(12) 0.701490(12) 1.0000
Cd17_5 Cd 0.798510(12) 0.776551(12) 1.0000
Cd18_5 Cd 1.0000 0.723449(12) 0.798510(12)
O6_5 O 0.70635(9) 0.47032(8) 0.76514(8)
O7_5 O 0.73486(8) 0.52968(8) 0.70635(9)
O8_5 O 0.70635(9) 0.52968(8) 0.76514(8)
O9_3 O 0.70635(9) 0.26514(8) 0.52968(8)
O10_3 O 0.52968(8) 0.29365(9) 0.73486(8)
O11_5 O 0.79365(9) 0.47032(8) 0.73486(8)
O12_4 O 0.79365(9) 0.52968(8) 0.73486(8)
O13_4 O 0.76514(8) 0.52968(8) 0.79365(9)
O14_5 O 0.76514(8) 0.47032(8) 0.79365(9)
O15_4 O 0.97032(8) 0.73486(8) 0.70635(9)
O16_4 O 0.76514(8) 0.70635(9) 0.52968(8)
O17_5 O 0.52968(8) 0.73486(8) 0.79365(9)
O18_5 O 0.73486(8) 0.70635(9) 0.97032(8)
O19_4 O 0.79365(9) 0.73486(8) 0.97032(8)
O20_4 O 0.97032(8) 0.70635(9) 0.76514(8)
O21_5 O 0.66972(8) 0.46692(8) 0.73855(8)
O22_3 O 0.76145(8) 0.46692(8) 0.66972(8)
O23_3 O 0.66972(8) 0.23855(8) 0.53308(8)
O24_3 O 0.53308(8) 0.33028(8) 0.76145(8)
O25_5 O 0.76145(8) 0.53308(8) 0.66972(8)
O26_4 O 0.73855(8) 0.53308(8) 0.83028(8)
O27_5 O 0.73855(8) 0.46692(8) 0.83028(8)
O28_5 O 0.83028(8) 0.46692(8) 0.76145(8)
O29_4 O 0.83028(8) 0.53308(8) 0.76145(8)
O30_4 O 0.96692(8) 0.76145(8) 0.66972(8)
O31_4 O 0.73855(8) 0.66972(8) 0.53308(8)
O32_5 O 0.53308(8) 0.76145(8) 0.83028(8)
O33_5 O 0.76145(8) 0.66972(8) 0.96692(8)
O34_4 O 0.83028(8) 0.76145(8) 0.96692(8)
O35_4 O 0.96692(8) 0.66972(8) 0.73855(8)
O36_8 O 0.81852(17) 0.5000 0.68103(19)
O37_8 O 0.68148(17) 0.5000 0.81897(19)
O38_8 O 0.81897(19) 0.5000 0.81852(17)
C16_5 C 0.68248(13) 0.54010(11) 0.75946(13)
C17_3 C 0.68248(13) 0.25946(13) 0.54010(11)
C18_3 C 0.54010(11) 0.31752(13) 0.74054(13)
C19_4 C 0.81752(13) 0.54010(11) 0.74054(13)
C20_4 C 0.95990(11) 0.74054(13) 0.68248(13)
C21_4 C 0.75946(13) 0.68248(13) 0.54010(11)
C22_5 C 0.54010(11) 0.74054(13) 0.81752(13)
C23_5 C 0.74054(13) 0.68248(13) 0.95990(11)
C24_4 C 0.75946(13) 0.54010(11) 0.81752(13)
C25_4 C 0.81752(13) 0.74054(13) 0.95990(11)
C26_4 C 0.95990(11) 0.68248(13) 0.75946(13)
C27_3 C 0.67121(13) 0.27833(12) 0.56201(12)
C28_3 C 0.56201(12) 0.32879(13) 0.72167(12)
C29_4 C 0.82879(13) 0.56201(12) 0.72167(12)
C30_4 C 0.93799(12) 0.72167(12) 0.67121(13)
C31_4 C 0.77833(12) 0.67121(13) 0.56201(12)
C32_5 C 0.67121(13) 0.56201(12) 0.77833(12)
C33_5 C 0.56201(12) 0.72167(12) 0.82879(13)
C34_5 C 0.72167(12) 0.67121(13) 0.93799(12)
C35_4 C 0.77833(12) 0.56201(12) 0.82879(13)
C36_4 C 0.82879(13) 0.72167(12) 0.93799(12)
C37_4 C 0.93799(12) 0.67121(13) 0.77833(12)
C38_3 C 0.68598(14) 0.30129(12) 0.57090(12)
C39_3 C 0.57090(12) 0.31402(14) 0.69871(12)
C40_4 C 0.81402(14) 0.57090(12) 0.69871(12)
C41_4 C 0.92910(12) 0.69871(12) 0.68598(14)
C42_4 C 0.80129(12) 0.68598(14) 0.57090(12)
C43_5 C 0.68598(14) 0.57090(12) 0.80129(12)
C44_5 C 0.57090(12) 0.69871(12) 0.81402(14)
C45_5 C 0.69871(12) 0.68598(14) 0.92910(12)
C46_4 C 0.80129(12) 0.57090(12) 0.81402(14)
C47_4 C 0.81402(14) 0.69871(12) 0.92910(12)
C48_4 C 0.92910(12) 0.68598(14) 0.80129(12)
H14_3 H 0.7029 0.3062 0.5623
H15_3 H 0.5623 0.2971 0.6938
H16_4 H 0.7971 0.5623 0.6938
H17_4 H 0.9377 0.6938 0.7029
H18_4 H 0.8062 0.7029 0.5623
H19_5 H 0.7029 0.5623 0.8062
H20_5 H 0.5623 0.6938 0.7971
H21_5 H 0.6938 0.7029 0.9377
H22_4 H 0.8062 0.5623 0.7971
H23_4 H 0.7971 0.6938 0.9377
H24_4 H 0.9377 0.7029 0.8062
C49_3 C 0.67562(13) 0.31685(13) 0.59245(12)
C50_3 C 0.59245(12) 0.32438(13) 0.68315(13)
C51_4 C 0.82438(13) 0.59245(12) 0.68315(13)
C52_4 C 0.90755(12) 0.68315(13) 0.67562(13)
C53_4 C 0.81685(13) 0.67562(13) 0.59245(12)
C54_5 C 0.67562(13) 0.59245(12) 0.81685(13)
C55_5 C 0.59245(12) 0.68315(13) 0.82438(13)
C56_5 C 0.68315(13) 0.67562(13) 0.90755(12)
C57_4 C 0.81685(13) 0.59245(12) 0.82438(13)
C58_4 C 0.82438(13) 0.68315(13) 0.90755(12)
C59_4 C 0.90755(12) 0.67562(13) 0.81685(13)
C60_3 C 0.60580(12) 0.34897(13) 0.68974(13)
C61_3 C 0.65103(13) 0.31026(13) 0.60580(12)
C62_4 C 0.84897(13) 0.60580(12) 0.68974(13)
C63_4 C 0.81026(13) 0.65103(13) 0.60580(12)
C64_4 C 0.89420(12) 0.68974(13) 0.65103(13)
C65_5 C 0.65103(13) 0.60580(12) 0.81026(13)
C66_5 C 0.68974(13) 0.65103(13) 0.89420(12)
C67_5 C 0.60580(12) 0.68974(13) 0.84897(13)
C68_4 C 0.81026(13) 0.60580(12) 0.84897(13)
C69_4 C 0.89420(12) 0.65103(13) 0.81026(13)
C70_4 C 0.84897(13) 0.68974(13) 0.89420(12)
C71_3 C 0.59622(13) 0.36410(14) 0.71265(13)
C72_3 C 0.63590(14) 0.28735(13) 0.59622(13)
C73_4 C 0.86410(14) 0.59622(13) 0.71265(13)
C74_4 C 0.78735(13) 0.63590(14) 0.59622(13)
C75_4 C 0.90378(13) 0.71265(13) 0.63590(14)
C76_5 C 0.63590(14) 0.59622(13) 0.78735(13)
C77_5 C 0.71265(13) 0.63590(14) 0.90378(13)
C78_5 C 0.59622(13) 0.71265(13) 0.86410(14)
C79_4 C 0.78735(13) 0.59622(13) 0.86410(14)
C80_4 C 0.90378(13) 0.63590(14) 0.78735(13)
C81_4 C 0.86410(14) 0.71265(13) 0.90378(13)
H25_3 H 0.6046 0.3812 0.7174
H26_3 H 0.6188 0.2826 0.6046
H27_4 H 0.8812 0.6046 0.7174
H28_4 H 0.7826 0.6188 0.6046
H29_4 H 0.8954 0.7174 0.6188
H30_5 H 0.6188 0.6046 0.7826
H31_5 H 0.7174 0.6188 0.8954
H32_5 H 0.6046 0.7174 0.8812
H33_4 H 0.7826 0.6046 0.8812
H34_4 H 0.8954 0.6188 0.7826
H35_4 H 0.8812 0.7174 0.8954
C82_3 C 0.57462(12) 0.35389(13) 0.72808(12)
C83_3 C 0.64611(13) 0.27192(12) 0.57462(12)
C84_4 C 0.85389(13) 0.57462(12) 0.72808(12)
C85_4 C 0.77192(12) 0.64611(13) 0.57462(12)
C86_4 C 0.92538(12) 0.72808(12) 0.64611(13)
C87_5 C 0.64611(13) 0.57462(12) 0.77192(12)
C88_5 C 0.72808(12) 0.64611(13) 0.92538(12)
C89_5 C 0.57462(12) 0.72808(12) 0.85389(13)
C90_4 C 0.77192(12) 0.57462(12) 0.85389(13)
C91_4 C 0.92538(12) 0.64611(13) 0.77192(12)
C92_4 C 0.85389(13) 0.72808(12) 0.92538(12)
H36_3 H 0.5681 0.3642 0.7435
H37_3 H 0.6358 0.2565 0.5681
H38_4 H 0.8642 0.5681 0.7435
H39_4 H 0.7565 0.6358 0.5681
H40_4 H 0.9319 0.7435 0.6358
H41_5 H 0.6358 0.5681 0.7565
H42_5 H 0.7435 0.6358 0.9319
H43_5 H 0.5681 0.7435 0.8642
H44_4 H 0.7565 0.5681 0.8642
H45_4 H 0.9319 0.6358 0.7565
H46_4 H 0.8642 0.7435 0.9319
C93_3 C 0.68853(14) 0.34277(14) 0.60417(13)
C94_3 C 0.60417(13) 0.31147(14) 0.65723(14)
C95_4 C 0.81147(14) 0.60417(13) 0.65723(14)
C96_4 C 0.89583(13) 0.65723(14) 0.68853(14)
C97_4 C 0.84277(14) 0.68853(14) 0.60417(13)
C98_5 C 0.68853(14) 0.60417(13) 0.84277(14)
C99_5 C 0.60417(13) 0.65723(14) 0.81147(14)
C100_5 C 0.65723(14) 0.68853(14) 0.89583(13)
C101_4 C 0.84277(14) 0.60417(13) 0.81147(14)
C102_4 C 0.81147(14) 0.65723(14) 0.89583(13)
C103_4 C 0.89583(13) 0.68853(14) 0.84277(14)
C104_3 C 0.62846(13) 0.35361(13) 0.66942(13)
C105_3 C 0.64639(13) 0.33058(13) 0.62846(13)
C106_4 C 0.85361(13) 0.62846(13) 0.66942(13)
C107_4 C 0.83058(13) 0.64639(13) 0.62846(13)
C108_4 C 0.87154(13) 0.66942(13) 0.64639(13)
C109_5 C 0.64639(13) 0.62846(13) 0.83058(13)
C110_5 C 0.66942(13) 0.64639(13) 0.87154(13)
C111_5 C 0.62846(13) 0.66942(13) 0.85361(13)
C112_4 C 0.83058(13) 0.62846(13) 0.85361(13)
C113_4 C 0.87154(13) 0.64639(13) 0.83058(13)
C114_4 C 0.85361(13) 0.66942(13) 0.87154(13)
C115_3 C 0.66822(13) 0.35034(13) 0.62719(13)
C116_3 C 0.62719(13) 0.33178(13) 0.64966(13)
C117_4 C 0.83178(13) 0.62719(13) 0.64966(13)
C118_4 C 0.87281(13) 0.64966(13) 0.66822(13)
C119_4 C 0.85034(13) 0.66822(13) 0.62719(13)
C120_5 C 0.66822(13) 0.62719(13) 0.85034(13)
C121_5 C 0.62719(13) 0.64966(13) 0.83178(13)
C122_5 C 0.64966(13) 0.66822(13) 0.87281(13)
C123_4 C 0.85034(13) 0.62719(13) 0.83178(13)
C124_4 C 0.83178(13) 0.64966(13) 0.87281(13)
C125_4 C 0.87281(13) 0.66822(13) 0.85034(13)
C126_3 C 0.6891(2) 0.36488(17) 0.58039(17)
C127_3 C 0.58039(17) 0.3109(2) 0.63512(17)
C128_4 C 0.8109(2) 0.58039(17) 0.63512(17)
C129_4 C 0.91961(17) 0.63512(17) 0.6891(2)
C130_4 C 0.86488(17) 0.6891(2) 0.58039(17)
C131_5 C 0.6891(2) 0.58039(17) 0.86488(17)
C132_5 C 0.58039(17) 0.63512(17) 0.8109(2)
C133_5 C 0.63512(17) 0.6891(2) 0.91961(17)
C134_4 C 0.86488(17) 0.58039(17) 0.8109(2)
C135_4 C 0.8109(2) 0.63512(17) 0.91961(17)
C136_4 C 0.91961(17) 0.6891(2) 0.86488(17)
H47_3 H 0.6990 0.3814 0.5872
H48_3 H 0.5872 0.3010 0.6186
H49_4 H 0.8010 0.5872 0.6186
H50_4 H 0.9128 0.6186 0.6990
H51_4 H 0.8814 0.6990 0.5872
H52_5 H 0.6990 0.5872 0.8814
H53_5 H 0.5872 0.6186 0.8010
H54_5 H 0.6186 0.6990 0.9128
H55_4 H 0.8814 0.5872 0.8010
H56_4 H 0.8010 0.6186 0.9128
H57_4 H 0.9128 0.6990 0.8814
H58_3 H 0.6999 0.3573 0.5647
H59_3 H 0.5647 0.3001 0.6427
H60_4 H 0.8001 0.5647 0.6427
H61_4 H 0.9353 0.6427 0.6999
H62_4 H 0.8573 0.6999 0.5647
H63_5 H 0.6999 0.5647 0.8573
H64_5 H 0.5647 0.6427 0.8001
H65_5 H 0.6427 0.6999 0.9353
H66_4 H 0.8573 0.5647 0.8001
H67_4 H 0.8001 0.6427 0.9353
H68_4 H 0.9353 0.6999 0.8573
C137_3 C 0.6604(2) 0.3742(2) 0.5693(2)
C138_3 C 0.5693(2) 0.3396(2) 0.6258(2)
C139_4 C 0.8396(2) 0.5693(2) 0.6258(2)
C140_4 C 0.9307(2) 0.6258(2) 0.6604(2)
C141_4 C 0.8742(2) 0.6604(2) 0.5693(2)
C142_5 C 0.6604(2) 0.5693(2) 0.8742(2)
C143_5 C 0.5693(2) 0.6258(2) 0.8396(2)
C144_5 C 0.6258(2) 0.6604(2) 0.9307(2)
C145_4 C 0.8742(2) 0.5693(2) 0.8396(2)
C146_4 C 0.8396(2) 0.6258(2) 0.9307(2)
C147_4 C 0.9307(2) 0.6604(2) 0.8742(2)
H69_3 H 0.6516 0.3587 0.5597
H70_3 H 0.5597 0.3484 0.6413
H71_4 H 0.8484 0.5597 0.6413
H72_4 H 0.9403 0.6413 0.6516
H73_4 H 0.8587 0.6516 0.5597
H74_5 H 0.6516 0.5597 0.8587
H75_5 H 0.5597 0.6413 0.8484
H76_5 H 0.6413 0.6516 0.9403
H77_4 H 0.8587 0.5597 0.8484
H78_4 H 0.8484 0.6413 0.9403
H79_4 H 0.9403 0.6516 0.8587
H80_3 H 0.6629 0.3896 0.5564
H81_3 H 0.5564 0.3371 0.6104
H82_4 H 0.8371 0.5564 0.6104
H83_4 H 0.9436 0.6104 0.6629
H84_4 H 0.8896 0.6629 0.5564
H85_5 H 0.6629 0.5564 0.8896
H86_5 H 0.5564 0.6104 0.8371
H87_5 H 0.6104 0.6629 0.9436
H88_4 H 0.8896 0.5564 0.8371
H89_4 H 0.8371 0.6104 0.9436
H90_4 H 0.9436 0.6629 0.8896
H91_3 H 0.6488 0.3801 0.5848
H92_3 H 0.5848 0.3512 0.6199
H93_4 H 0.8512 0.5848 0.6199
H94_4 H 0.9152 0.6199 0.6488
H95_4 H 0.8801 0.6488 0.5848
H96_5 H 0.6488 0.5848 0.8801
H97_5 H 0.5848 0.6199 0.8512
H98_5 H 0.6199 0.6488 0.9152
H99_4 H 0.8801 0.5848 0.8512
H100_4 H 0.8512 0.6199 0.9152
H101_4 H 0.9152 0.6488 0.8801
C148_3 C 0.71744(15) 0.33514(16) 0.61587(18)
C149_3 C 0.61587(18) 0.28256(15) 0.66486(16)
C150_4 C 0.78256(15) 0.61587(18) 0.66486(16)
C151_4 C 0.88413(18) 0.66486(16) 0.71744(15)
C152_4 C 0.83514(16) 0.71744(15) 0.61587(18)
C153_5 C 0.71744(15) 0.61587(18) 0.83514(16)
C154_5 C 0.61587(18) 0.66486(16) 0.78256(15)
C155_5 C 0.66486(16) 0.71744(15) 0.88413(18)
C156_4 C 0.83514(16) 0.61587(18) 0.78256(15)
C157_4 C 0.78256(15) 0.66486(16) 0.88413(18)
C158_4 C 0.88413(18) 0.71744(15) 0.83514(16)
H102_3 H 0.7290 0.3280 0.6005
H103_3 H 0.6005 0.2710 0.6720
H104_4 H 0.7710 0.6005 0.6720
H105_4 H 0.8995 0.6720 0.7290
H106_4 H 0.8280 0.7290 0.6005
H107_5 H 0.7290 0.6005 0.8280
H108_5 H 0.6005 0.6720 0.7710
H109_5 H 0.6720 0.7290 0.8995
H110_4 H 0.8280 0.6005 0.7710
H111_4 H 0.7710 0.6720 0.8995
H112_4 H 0.8995 0.7290 0.8280
H113_3 H 0.7263 0.3522 0.6229
H114_3 H 0.6229 0.2737 0.6478
H115_4 H 0.7737 0.6229 0.6478
H116_4 H 0.8771 0.6478 0.7263
H117_4 H 0.8522 0.7263 0.6229
H118_5 H 0.7263 0.6229 0.8522
H119_5 H 0.6229 0.6478 0.7737
H120_5 H 0.6478 0.7263 0.8771
H121_4 H 0.8522 0.6229 0.7737
H122_4 H 0.7737 0.6478 0.8771
H123_4 H 0.8771 0.7263 0.8522
C159_3 C 0.71710(18) 0.3136(2) 0.63907(18)
C160_3 C 0.63907(18) 0.28290(18) 0.6864(2)
C161_4 C 0.78290(18) 0.63907(18) 0.6864(2)
C162_4 C 0.86093(18) 0.6864(2) 0.71710(18)
C163_4 C 0.8136(2) 0.71710(18) 0.63907(18)
C164_5 C 0.71710(18) 0.63907(18) 0.8136(2)
C165_5 C 0.63907(18) 0.6864(2) 0.78290(18)
C166_5 C 0.6864(2) 0.71710(18) 0.86093(18)
C167_4 C 0.8136(2) 0.63907(18) 0.78290(18)
C168_4 C 0.78290(18) 0.6864(2) 0.86093(18)
C169_4 C 0.86093(18) 0.71710(18) 0.8136(2)
H124_3 H 0.7073 0.3212 0.6551
H125_3 H 0.6551 0.2927 0.6788
H126_4 H 0.7927 0.6551 0.6788
H127_4 H 0.8449 0.6788 0.7073
H128_4 H 0.8212 0.7073 0.6551
H129_5 H 0.7073 0.6551 0.8212
H130_5 H 0.6551 0.6788 0.7927
H131_5 H 0.6788 0.7073 0.8449
H132_4 H 0.8212 0.6551 0.7927
H133_4 H 0.7927 0.6788 0.8449
H134_4 H 0.8449 0.7073 0.8212
H135_3 H 0.7361 0.3090 0.6443
H136_3 H 0.6443 0.2639 0.6910
H137_4 H 0.7639 0.6443 0.6910
H138_4 H 0.8557 0.6910 0.7361
H139_4 H 0.8090 0.7361 0.6443
H140_5 H 0.7361 0.6443 0.8090
H141_5 H 0.6443 0.6910 0.7639
H142_5 H 0.6910 0.7361 0.8557
H143_4 H 0.8090 0.6443 0.7639
H144_4 H 0.7639 0.6910 0.8557
H145_4 H 0.8557 0.7361 0.8090
H146_3 H 0.7076 0.2969 0.6326
H147_3 H 0.6326 0.2924 0.7031
H148_4 H 0.7924 0.6326 0.7031
H149_4 H 0.8674 0.7031 0.7076
H150_4 H 0.7969 0.7076 0.6326
H151_5 H 0.7076 0.6326 0.7969
H152_5 H 0.6326 0.7031 0.7924
H153_5 H 0.7031 0.7076 0.8674
H154_4 H 0.7969 0.6326 0.7924
H155_4 H 0.7924 0.7031 0.8674
H156_4 H 0.8674 0.7076 0.7969
C170_8 C 0.8241(7) 0.5000 0.6582(7)
C171_8 C 0.8418(7) 0.5000 0.8241(7)
C172_8 C 0.6759(7) 0.5000 0.8418(7)
H157_5 H 0.851619 0.5184 0.815564
H158_8 H 0.844052 0.5 0.846522
H159_5 H 0.851619 0.4816 0.815564
H160_5 H 0.815564 0.5184 0.648381
H161_8 H 0.846522 0.5 0.655948
H162_5 H 0.815564 0.4816 0.648381
H166_5 H 0.684436 0.5184 0.851619
H167_8 H 0.653478 0.5 0.844052
H168_5 H 0.684436 0.4816 0.851619
H172_5 H 0.648381 0.5184 0.684436
H173_8 H 0.655948 0.5 0.653478
H174_5 H 0.648381 0.4816 0.684436
O2_4 O 0.26514(8) 0.52968(8) 0.70635(9)
O4_9 O 0.2500 0.5000 0.7500
O5_9 O 0.31897(19) 0.5000 0.68148(17)
C1_4 C 0.25946(13) 0.54010(11) 0.68248(13)
C2_4 C 0.27833(12) 0.56201(12) 0.67121(13)
C3_4 C 0.30129(12) 0.57090(12) 0.68598(14)
H1_4 H 0.3062 0.5623 0.7029
C4_4 C 0.31685(13) 0.59245(12) 0.67562(13)
C5_4 C 0.31026(13) 0.60580(12) 0.65103(13)
C6_4 C 0.28735(13) 0.59622(13) 0.63590(14)
H2_4 H 0.2826 0.6046 0.6188
C7_4 C 0.27192(12) 0.57462(12) 0.64611(13)
H3_4 H 0.2565 0.5681 0.6358
C8_4 C 0.34277(14) 0.60417(13) 0.68853(14)
C9_4 C 0.33058(13) 0.62846(13) 0.64639(13)
C10_4 C 0.35034(13) 0.62719(13) 0.66822(13)
C11_4 C 0.36488(17) 0.58039(17) 0.6891(2)
H4_4 H 0.3814 0.5872 0.6990
H5_4 H 0.3573 0.5647 0.6999
C12_4 C 0.3742(2) 0.5693(2) 0.6604(2)
H6_4 H 0.3587 0.5597 0.6516
H7_4 H 0.3896 0.5564 0.6629
H8_4 H 0.3801 0.5848 0.6488
C13_4 C 0.33514(16) 0.61587(18) 0.71744(15)
H9_4 H 0.3280 0.6005 0.7290
H10_4 H 0.3522 0.6229 0.7263
C14_4 C 0.3136(2) 0.63907(18) 0.71710(18)
H11_4 H 0.3212 0.6551 0.7073
H12_4 H 0.3090 0.6443 0.7361
H13_4 H 0.2969 0.6326 0.7076
C15_9 C 0.3418(7) 0.5000 0.6759(7)
Cd2_4 Cd 0.223449(12) 0.5000 0.701490(12)
Cd5_4 Cd 0.276551(12) 0.701490(12) 0.5000
Cd7_4 Cd 0.5000 0.723449(12) 0.701490(12)
Cd10_6 Cd 0.0000 0.223449(12) 0.701490(12)
Cd11_8 Cd 0.201490(12) 0.276551(12) 0.5000
Cd12_7 Cd 0.276551(12) 0.298510(12) 0.5000
O6_6 O 0.29365(9) 0.52968(8) 0.76514(8)
O7_6 O 0.26514(8) 0.47032(8) 0.70635(9)
O9_4 O 0.29365(9) 0.73486(8) 0.52968(8)
O10_4 O 0.47032(8) 0.70635(9) 0.73486(8)
O11_6 O 0.20635(9) 0.52968(8) 0.73486(8)
O12_5 O 0.20635(9) 0.47032(8) 0.73486(8)
O14_6 O 0.23486(8) 0.52968(8) 0.79365(9)
O15_5 O 0.02968(8) 0.26514(8) 0.70635(9)
O16_5 O 0.23486(8) 0.29365(9) 0.52968(8)
O21_6 O 0.33028(8) 0.53308(8) 0.73855(8)
O22_4 O 0.23855(8) 0.53308(8) 0.66972(8)
O23_4 O 0.33028(8) 0.76145(8) 0.53308(8)
O24_4 O 0.46692(8) 0.66972(8) 0.76145(8)
O25_6 O 0.23855(8) 0.46692(8) 0.66972(8)
O27_6 O 0.26145(8) 0.53308(8) 0.83028(8)
O28_6 O 0.16972(8) 0.53308(8) 0.76145(8)
O29_5 O 0.16972(8) 0.46692(8) 0.76145(8)
O30_5 O 0.03308(8) 0.23855(8) 0.66972(8)
O31_5 O 0.26145(8) 0.33028(8) 0.53308(8)
O36_9 O 0.18148(17) 0.5000 0.68103(19)
O37_9 O 0.31852(17) 0.5000 0.81897(19)
O38_9 O 0.18103(19) 0.5000 0.81852(17)
C17_4 C 0.31752(13) 0.74054(13) 0.54010(11)
C18_4 C 0.45990(11) 0.68248(13) 0.74054(13)
C19_5 C 0.18248(13) 0.45990(11) 0.74054(13)
C20_5 C 0.04010(11) 0.25946(13) 0.68248(13)
C21_5 C 0.24054(13) 0.31752(13) 0.54010(11)
C27_4 C 0.32879(13) 0.72167(12) 0.56201(12)
C28_4 C 0.43799(12) 0.67121(13) 0.72167(12)
C29_5 C 0.17121(13) 0.43799(12) 0.72167(12)
C30_5 C 0.06201(12) 0.27833(12) 0.67121(13)
C31_5 C 0.22167(12) 0.32879(13) 0.56201(12)
C38_4 C 0.31402(14) 0.69871(12) 0.57090(12)
C39_4 C 0.42910(12) 0.68598(14) 0.69871(12)
C40_5 C 0.18598(14) 0.42910(12) 0.69871(12)
C41_5 C 0.07090(12) 0.30129(12) 0.68598(14)
C42_5 C 0.19871(12) 0.31402(14) 0.57090(12)
H14_4 H 0.2971 0.6938 0.5623
H15_4 H 0.4377 0.7029 0.6938
H16_5 H 0.2029 0.4377 0.6938
H17_5 H 0.0623 0.3062 0.7029
H18_5 H 0.1938 0.2971 0.5623
C49_4 C 0.32438(13) 0.68315(13) 0.59245(12)
C50_4 C 0.40755(12) 0.67562(13) 0.68315(13)
C51_5 C 0.17562(13) 0.40755(12) 0.68315(13)
C52_5 C 0.09245(12) 0.31685(13) 0.67562(13)
C53_5 C 0.18315(13) 0.32438(13) 0.59245(12)
C60_4 C 0.39420(12) 0.65103(13) 0.68974(13)
C61_4 C 0.34897(13) 0.68974(13) 0.60580(12)
C62_5 C 0.15103(13) 0.39420(12) 0.68974(13)
C63_5 C 0.18974(13) 0.34897(13) 0.60580(12)
C64_5 C 0.10580(12) 0.31026(13) 0.65103(13)
C71_4 C 0.40378(13) 0.63590(14) 0.71265(13)
C72_4 C 0.36410(14) 0.71265(13) 0.59622(13)
C73_5 C 0.13590(14) 0.40378(13) 0.71265(13)
C74_5 C 0.21265(13) 0.36410(14) 0.59622(13)
C75_5 C 0.09622(13) 0.28735(13) 0.63590(14)
H25_4 H 0.3954 0.6188 0.7174
H26_4 H 0.3812 0.7174 0.6046
H27_5 H 0.1188 0.3954 0.7174
H28_5 H 0.2174 0.3812 0.6046
H29_5 H 0.1046 0.2826 0.6188
C82_4 C 0.42538(12) 0.64611(13) 0.72808(12)
C83_4 C 0.35389(13) 0.72808(12) 0.57462(12)
C84_5 C 0.14611(13) 0.42538(12) 0.72808(12)
C85_5 C 0.22808(12) 0.35389(13) 0.57462(12)
C86_5 C 0.07462(12) 0.27192(12) 0.64611(13)
H36_4 H 0.4319 0.6358 0.7435
H37_4 H 0.3642 0.7435 0.5681
H38_5 H 0.1358 0.4319 0.7435
H39_5 H 0.2435 0.3642 0.5681
H40_5 H 0.0681 0.2565 0.6358
C93_4 C 0.31147(14) 0.65723(14) 0.60417(13)
C94_4 C 0.39583(13) 0.68853(14) 0.65723(14)
C95_5 C 0.18853(14) 0.39583(13) 0.65723(14)
C96_5 C 0.10417(13) 0.34277(14) 0.68853(14)
C97_5 C 0.15723(14) 0.31147(14) 0.60417(13)
C104_4 C 0.37154(13) 0.64639(13) 0.66942(13)
C105_4 C 0.35361(13) 0.66942(13) 0.62846(13)
C106_5 C 0.14639(13) 0.37154(13) 0.66942(13)
C107_5 C 0.16942(13) 0.35361(13) 0.62846(13)
C108_5 C 0.12846(13) 0.33058(13) 0.64639(13)
C115_4 C 0.33178(13) 0.64966(13) 0.62719(13)
C116_4 C 0.37281(13) 0.66822(13) 0.64966(13)
C117_5 C 0.16822(13) 0.37281(13) 0.64966(13)
C118_5 C 0.12719(13) 0.35034(13) 0.66822(13)
C119_5 C 0.14966(13) 0.33178(13) 0.62719(13)
C126_4 C 0.3109(2) 0.63512(17) 0.58039(17)
C127_4 C 0.41961(17) 0.6891(2) 0.63512(17)
C128_5 C 0.1891(2) 0.41961(17) 0.63512(17)
C129_5 C 0.08039(17) 0.36488(17) 0.6891(2)
C130_5 C 0.13512(17) 0.3109(2) 0.58039(17)
H47_4 H 0.3010 0.6186 0.5872
H48_4 H 0.4128 0.6990 0.6186
H49_5 H 0.1990 0.4128 0.6186
H50_5 H 0.0872 0.3814 0.6990
H51_5 H 0.1186 0.3010 0.5872
H58_4 H 0.3001 0.6427 0.5647
H59_4 H 0.4353 0.6999 0.6427
H60_5 H 0.1999 0.4353 0.6427
H61_5 H 0.0647 0.3573 0.6999
H62_5 H 0.1427 0.3001 0.5647
C137_4 C 0.3396(2) 0.6258(2) 0.5693(2)
C138_4 C 0.4307(2) 0.6604(2) 0.6258(2)
C139_5 C 0.1604(2) 0.4307(2) 0.6258(2)
C140_5 C 0.0693(2) 0.3742(2) 0.6604(2)
C141_5 C 0.1258(2) 0.3396(2) 0.5693(2)
H69_4 H 0.3484 0.6413 0.5597
H70_4 H 0.4403 0.6516 0.6413
H71_5 H 0.1516 0.4403 0.6413
H72_5 H 0.0597 0.3587 0.6516
H73_5 H 0.1413 0.3484 0.5597
H80_4 H 0.3371 0.6104 0.5564
H81_4 H 0.4436 0.6629 0.6104
H82_5 H 0.1629 0.4436 0.6104
H83_5 H 0.0564 0.3896 0.6629
H84_5 H 0.1104 0.3371 0.5564
H91_4 H 0.3512 0.6199 0.5848
H92_4 H 0.4152 0.6488 0.6199
H93_5 H 0.1488 0.4152 0.6199
H94_5 H 0.0848 0.3801 0.6488
H95_5 H 0.1199 0.3512 0.5848
C148_4 C 0.28256(15) 0.66486(16) 0.61587(18)
C149_4 C 0.38413(18) 0.71744(15) 0.66486(16)
C150_5 C 0.21744(15) 0.38413(18) 0.66486(16)
C151_5 C 0.11587(18) 0.33514(16) 0.71744(15)
C152_5 C 0.16486(16) 0.28256(15) 0.61587(18)
H102_4 H 0.2710 0.6720 0.6005
H103_4 H 0.3995 0.7290 0.6720
H104_5 H 0.2290 0.3995 0.6720
H105_5 H 0.1005 0.3280 0.7290
H106_5 H 0.1720 0.2710 0.6005
H113_4 H 0.2737 0.6478 0.6229
H114_4 H 0.3771 0.7263 0.6478
H115_5 H 0.2263 0.3771 0.6478
H116_5 H 0.1229 0.3522 0.7263
H117_5 H 0.1478 0.2737 0.6229
C159_4 C 0.28290(18) 0.6864(2) 0.63907(18)
C160_4 C 0.36093(18) 0.71710(18) 0.6864(2)
C161_5 C 0.21710(18) 0.36093(18) 0.6864(2)
C162_5 C 0.13907(18) 0.3136(2) 0.71710(18)
C163_5 C 0.1864(2) 0.28290(18) 0.63907(18)
H124_4 H 0.2927 0.6788 0.6551
H125_4 H 0.3449 0.7073 0.6788
H126_5 H 0.2073 0.3449 0.6788
H127_5 H 0.1551 0.3212 0.7073
H128_5 H 0.1788 0.2927 0.6551
H135_4 H 0.2639 0.6910 0.6443
H136_4 H 0.3557 0.7361 0.6910
H137_5 H 0.2361 0.3557 0.6910
H138_5 H 0.1443 0.3090 0.7361
H139_5 H 0.1910 0.2639 0.6443
H146_4 H 0.2924 0.7031 0.6326
H147_4 H 0.3674 0.7076 0.7031
H148_5 H 0.2076 0.3674 0.7031
H149_5 H 0.1326 0.2969 0.7076
H150_5 H 0.2031 0.2924 0.6326
C170_9 C 0.1759(7) 0.5000 0.6582(7)
C171_9 C 0.1582(7) 0.5000 0.8241(7)
C172_9 C 0.3241(7) 0.5000 0.8418(7)
H157_6 H 0.148381 0.4816 0.815564
H158_9 H 0.155948 0.5 0.846522
H159_6 H 0.148381 0.5184 0.815564
H160_6 H 0.184436 0.4816 0.648381
H161_9 H 0.153478 0.5 0.655948
H162_6 H 0.184436 0.5184 0.648381
H166_6 H 0.315564 0.4816 0.851619
H167_9 H 0.346522 0.5 0.844052
H168_6 H 0.315564 0.5184 0.851619
H172_6 H 0.351619 0.4816 0.684436
H173_9 H 0.344052 0.5 0.653478
H174_6 H 0.351619 0.5184 0.684436
Cd10_7 Cd 1.0000 0.223449(12) 0.701490(12)
O4_10 O 0.5000 0.7500 0.2500
O5_10 O 0.5000 0.68148(17) 0.31897(19)
C15_10 C 0.5000 0.6759(7) 0.3418(7)
Cd10_8 Cd 0.223449(12) 0.701490(12) 0.0000
Cd11_9 Cd 0.276551(12) 0.5000 0.201490(12)
Cd12_8 Cd 0.298510(12) 0.5000 0.276551(12)
O6_7 O 0.52968(8) 0.76514(8) 0.29365(9)
O7_7 O 0.47032(8) 0.70635(9) 0.26514(8)
O11_7 O 0.52968(8) 0.73486(8) 0.20635(9)
O12_6 O 0.47032(8) 0.73486(8) 0.20635(9)
O14_7 O 0.52968(8) 0.79365(9) 0.23486(8)
O15_6 O 0.26514(8) 0.70635(9) 0.02968(8)
O16_6 O 0.29365(9) 0.52968(8) 0.23486(8)
O21_7 O 0.53308(8) 0.73855(8) 0.33028(8)
O25_7 O 0.46692(8) 0.66972(8) 0.23855(8)
O27_7 O 0.53308(8) 0.83028(8) 0.26145(8)
O28_7 O 0.53308(8) 0.76145(8) 0.16972(8)
O29_6 O 0.46692(8) 0.76145(8) 0.16972(8)
O30_6 O 0.23855(8) 0.66972(8) 0.03308(8)
O31_6 O 0.33028(8) 0.53308(8) 0.26145(8)
O36_10 O 0.5000 0.68103(19) 0.18148(17)
O37_10 O 0.5000 0.81897(19) 0.31852(17)
O38_10 O 0.5000 0.81852(17) 0.18103(19)
C19_6 C 0.45990(11) 0.74054(13) 0.18248(13)
C20_6 C 0.25946(13) 0.68248(13) 0.04010(11)
C21_6 C 0.31752(13) 0.54010(11) 0.24054(13)
C29_6 C 0.43799(12) 0.72167(12) 0.17121(13)
C30_6 C 0.27833(12) 0.67121(13) 0.06201(12)
C31_6 C 0.32879(13) 0.56201(12) 0.22167(12)
C40_6 C 0.42910(12) 0.69871(12) 0.18598(14)
C41_6 C 0.30129(12) 0.68598(14) 0.07090(12)
C42_6 C 0.31402(14) 0.57090(12) 0.19871(12)
H16_6 H 0.4377 0.6938 0.2029
H17_6 H 0.3062 0.7029 0.0623
H18_6 H 0.2971 0.5623 0.1938
C51_6 C 0.40755(12) 0.68315(13) 0.17562(13)
C52_6 C 0.31685(13) 0.67562(13) 0.09245(12)
C53_6 C 0.32438(13) 0.59245(12) 0.18315(13)
C62_6 C 0.39420(12) 0.68974(13) 0.15103(13)
C63_6 C 0.34897(13) 0.60580(12) 0.18974(13)
C64_6 C 0.31026(13) 0.65103(13) 0.10580(12)
C73_6 C 0.40378(13) 0.71265(13) 0.13590(14)
C74_6 C 0.36410(14) 0.59622(13) 0.21265(13)
C75_6 C 0.28735(13) 0.63590(14) 0.09622(13)
H27_6 H 0.3954 0.7174 0.1188
H28_6 H 0.3812 0.6046 0.2174
H29_6 H 0.2826 0.6188 0.1046
C84_6 C 0.42538(12) 0.72808(12) 0.14611(13)
C85_6 C 0.35389(13) 0.57462(12) 0.22808(12)
C86_6 C 0.27192(12) 0.64611(13) 0.07462(12)
H38_6 H 0.4319 0.7435 0.1358
H39_6 H 0.3642 0.5681 0.2435
H40_6 H 0.2565 0.6358 0.0681
C95_6 C 0.39583(13) 0.65723(14) 0.18853(14)
C96_6 C 0.34277(14) 0.68853(14) 0.10417(13)
C97_6 C 0.31147(14) 0.60417(13) 0.15723(14)
C106_6 C 0.37154(13) 0.66942(13) 0.14639(13)
C107_6 C 0.35361(13) 0.62846(13) 0.16942(13)
C108_6 C 0.33058(13) 0.64639(13) 0.12846(13)
C117_6 C 0.37281(13) 0.64966(13) 0.16822(13)
C118_6 C 0.35034(13) 0.66822(13) 0.12719(13)
C119_6 C 0.33178(13) 0.62719(13) 0.14966(13)
C128_6 C 0.41961(17) 0.63512(17) 0.1891(2)
C129_6 C 0.36488(17) 0.6891(2) 0.08039(17)
C130_6 C 0.3109(2) 0.58039(17) 0.13512(17)
H49_6 H 0.4128 0.6186 0.1990
H50_6 H 0.3814 0.6990 0.0872
H51_6 H 0.3010 0.5872 0.1186
H60_6 H 0.4353 0.6427 0.1999
H61_6 H 0.3573 0.6999 0.0647
H62_6 H 0.3001 0.5647 0.1427
C139_6 C 0.4307(2) 0.6258(2) 0.1604(2)
C140_6 C 0.3742(2) 0.6604(2) 0.0693(2)
C141_6 C 0.3396(2) 0.5693(2) 0.1258(2)
H71_6 H 0.4403 0.6413 0.1516
H72_6 H 0.3587 0.6516 0.0597
H73_6 H 0.3484 0.5597 0.1413
H82_6 H 0.4436 0.6104 0.1629
H83_6 H 0.3896 0.6629 0.0564
H84_6 H 0.3371 0.5564 0.1104
H93_6 H 0.4152 0.6199 0.1488
H94_6 H 0.3801 0.6488 0.0848
H95_6 H 0.3512 0.5848 0.1199
C150_6 C 0.38413(18) 0.66486(16) 0.21744(15)
C151_6 C 0.33514(16) 0.71744(15) 0.11587(18)
C152_6 C 0.28256(15) 0.61587(18) 0.16486(16)
H104_6 H 0.3995 0.6720 0.2290
H105_6 H 0.3280 0.7290 0.1005
H106_6 H 0.2710 0.6005 0.1720
H115_6 H 0.3771 0.6478 0.2263
H116_6 H 0.3522 0.7263 0.1229
H117_6 H 0.2737 0.6229 0.1478
C161_6 C 0.36093(18) 0.6864(2) 0.21710(18)
C162_6 C 0.3136(2) 0.71710(18) 0.13907(18)
C163_6 C 0.28290(18) 0.63907(18) 0.1864(2)
H126_6 H 0.3449 0.6788 0.2073
H127_6 H 0.3212 0.7073 0.1551
H128_6 H 0.2927 0.6551 0.1788
H137_6 H 0.3557 0.6910 0.2361
H138_6 H 0.3090 0.7361 0.1443
H139_6 H 0.2639 0.6443 0.1910
H148_6 H 0.3674 0.7031 0.2076
H149_6 H 0.2969 0.7076 0.1326
H150_6 H 0.2924 0.6326 0.2031
C170_10 C 0.5000 0.6582(7) 0.1759(7)
C171_10 C 0.5000 0.8241(7) 0.1582(7)
C172_10 C 0.5000 0.8418(7) 0.3241(7)
H157_7 H 0.4816 0.815564 0.148381
H158_10 H 0.5 0.846522 0.155948
H159_7 H 0.5184 0.815564 0.148381
H160_7 H 0.4816 0.648381 0.184436
H161_10 H 0.5 0.655948 0.153478
H162_7 H 0.5184 0.648381 0.184436
H166_7 H 0.4816 0.851619 0.315564
H167_10 H 0.5 0.844052 0.346522
H168_7 H 0.5184 0.851619 0.315564
H172_7 H 0.4816 0.684436 0.351619
H173_10 H 0.5 0.653478 0.344052
H174_7 H 0.5184 0.684436 0.351619
Cd10_9 Cd 0.223449(12) 0.701490(12) 1.0000
Cd15_8 Cd 0.723449(12) 0.0000 0.701490(12)
Cd16_6 Cd 0.701490(12) 0.0000 0.776551(12)
Cd17_6 Cd 0.776551(12) 0.0000 0.798510(12)
Cd18_6 Cd 0.723449(12) 0.798510(12) 0.0000
O3_6 O 0.53308(8) 0.73855(8) 0.66972(8)
O4_11 O 0.5000 0.7500 0.7500
O5_11 O 0.5000 0.68148(17) 0.68103(19)
C15_11 C 0.5000 0.6759(7) 0.6582(7)
Cd3_8 Cd 0.5000 0.798510(12) 0.723449(12)
Cd14_9 Cd 0.776551(12) 0.798510(12) 0.5000
Cd15_9 Cd 0.723449(12) 1.0000 0.701490(12)
Cd16_7 Cd 0.701490(12) 1.0000 0.776551(12)
Cd17_7 Cd 0.776551(12) 1.0000 0.798510(12)
Cd18_7 Cd 0.723449(12) 0.798510(12) 1.0000
O6_8 O 0.47032(8) 0.76514(8) 0.70635(9)
O7_8 O 0.52968(8) 0.70635(9) 0.73486(8)
O8_6 O 0.52968(8) 0.76514(8) 0.70635(9)
O11_8 O 0.47032(8) 0.73486(8) 0.79365(9)
O13_5 O 0.52968(8) 0.79365(9) 0.76514(8)
O14_8 O 0.47032(8) 0.79365(9) 0.76514(8)
O17_6 O 0.73486(8) 0.79365(9) 0.52968(8)
O18_6 O 0.70635(9) 0.97032(8) 0.73486(8)
O19_5 O 0.73486(8) 0.97032(8) 0.79365(9)
O20_5 O 0.70635(9) 0.76514(8) 0.97032(8)
O21_8 O 0.46692(8) 0.73855(8) 0.66972(8)
O25_8 O 0.53308(8) 0.66972(8) 0.76145(8)
O26_5 O 0.53308(8) 0.83028(8) 0.73855(8)
O27_8 O 0.46692(8) 0.83028(8) 0.73855(8)
O28_8 O 0.46692(8) 0.76145(8) 0.83028(8)
O32_6 O 0.76145(8) 0.83028(8) 0.53308(8)
O33_6 O 0.66972(8) 0.96692(8) 0.76145(8)
O34_5 O 0.76145(8) 0.96692(8) 0.83028(8)
O35_5 O 0.66972(8) 0.73855(8) 0.96692(8)
O36_11 O 0.5000 0.68103(19) 0.81852(17)
O37_11 O 0.5000 0.81897(19) 0.68148(17)
O38_11 O 0.5000 0.81852(17) 0.81897(19)
C16_6 C 0.54010(11) 0.75946(13) 0.68248(13)
C22_6 C 0.74054(13) 0.81752(13) 0.54010(11)
C23_6 C 0.68248(13) 0.95990(11) 0.74054(13)
C24_5 C 0.54010(11) 0.81752(13) 0.75946(13)
C25_5 C 0.74054(13) 0.95990(11) 0.81752(13)
C26_5 C 0.68248(13) 0.75946(13) 0.95990(11)
C32_6 C 0.56201(12) 0.77833(12) 0.67121(13)
C33_6 C 0.72167(12) 0.82879(13) 0.56201(12)
C34_6 C 0.67121(13) 0.93799(12) 0.72167(12)
C35_5 C 0.56201(12) 0.82879(13) 0.77833(12)
C36_5 C 0.72167(12) 0.93799(12) 0.82879(13)
C37_5 C 0.67121(13) 0.77833(12) 0.93799(12)
C43_6 C 0.57090(12) 0.80129(12) 0.68598(14)
C44_6 C 0.69871(12) 0.81402(14) 0.57090(12)
C45_6 C 0.68598(14) 0.92910(12) 0.69871(12)
C46_5 C 0.57090(12) 0.81402(14) 0.80129(12)
C47_5 C 0.69871(12) 0.92910(12) 0.81402(14)
C48_5 C 0.68598(14) 0.80129(12) 0.92910(12)
H19_6 H 0.5623 0.8062 0.7029
H20_6 H 0.6938 0.7971 0.5623
H21_6 H 0.7029 0.9377 0.6938
H22_5 H 0.5623 0.7971 0.8062
H23_5 H 0.6938 0.9377 0.7971
H24_5 H 0.7029 0.8062 0.9377
C54_6 C 0.59245(12) 0.81685(13) 0.67562(13)
C55_6 C 0.68315(13) 0.82438(13) 0.59245(12)
C56_6 C 0.67562(13) 0.90755(12) 0.68315(13)
C57_5 C 0.59245(12) 0.82438(13) 0.81685(13)
C58_5 C 0.68315(13) 0.90755(12) 0.82438(13)
C59_5 C 0.67562(13) 0.81685(13) 0.90755(12)
C65_6 C 0.60580(12) 0.81026(13) 0.65103(13)
C66_6 C 0.65103(13) 0.89420(12) 0.68974(13)
C67_6 C 0.68974(13) 0.84897(13) 0.60580(12)
C68_5 C 0.60580(12) 0.84897(13) 0.81026(13)
C69_5 C 0.65103(13) 0.81026(13) 0.89420(12)
C70_5 C 0.68974(13) 0.89420(12) 0.84897(13)
C76_6 C 0.59622(13) 0.78735(13) 0.63590(14)
C77_6 C 0.63590(14) 0.90378(13) 0.71265(13)
C78_6 C 0.71265(13) 0.86410(14) 0.59622(13)
C79_5 C 0.59622(13) 0.86410(14) 0.78735(13)
C80_5 C 0.63590(14) 0.78735(13) 0.90378(13)
C81_5 C 0.71265(13) 0.90378(13) 0.86410(14)
H30_6 H 0.6046 0.7826 0.6188
H31_6 H 0.6188 0.8954 0.7174
H32_6 H 0.7174 0.8812 0.6046
H33_5 H 0.6046 0.8812 0.7826
H34_5 H 0.6188 0.7826 0.8954
H35_5 H 0.7174 0.8954 0.8812
C87_6 C 0.57462(12) 0.77192(12) 0.64611(13)
C88_6 C 0.64611(13) 0.92538(12) 0.72808(12)
C89_6 C 0.72808(12) 0.85389(13) 0.57462(12)
C90_5 C 0.57462(12) 0.85389(13) 0.77192(12)
C91_5 C 0.64611(13) 0.77192(12) 0.92538(12)
C92_5 C 0.72808(12) 0.92538(12) 0.85389(13)
H41_6 H 0.5681 0.7565 0.6358
H42_6 H 0.6358 0.9319 0.7435
H43_6 H 0.7435 0.8642 0.5681
H44_5 H 0.5681 0.8642 0.7565
H45_5 H 0.6358 0.7565 0.9319
H46_5 H 0.7435 0.9319 0.8642
C98_6 C 0.60417(13) 0.84277(14) 0.68853(14)
C99_6 C 0.65723(14) 0.81147(14) 0.60417(13)
C100_6 C 0.68853(14) 0.89583(13) 0.65723(14)
C101_5 C 0.60417(13) 0.81147(14) 0.84277(14)
C102_5 C 0.65723(14) 0.89583(13) 0.81147(14)
C103_5 C 0.68853(14) 0.84277(14) 0.89583(13)
C109_6 C 0.62846(13) 0.83058(13) 0.64639(13)
C110_6 C 0.64639(13) 0.87154(13) 0.66942(13)
C111_6 C 0.66942(13) 0.85361(13) 0.62846(13)
C112_5 C 0.62846(13) 0.85361(13) 0.83058(13)
C113_5 C 0.64639(13) 0.83058(13) 0.87154(13)
C114_5 C 0.66942(13) 0.87154(13) 0.85361(13)
C120_6 C 0.62719(13) 0.85034(13) 0.66822(13)
C121_6 C 0.64966(13) 0.83178(13) 0.62719(13)
C122_6 C 0.66822(13) 0.87281(13) 0.64966(13)
C123_5 C 0.62719(13) 0.83178(13) 0.85034(13)
C124_5 C 0.64966(13) 0.87281(13) 0.83178(13)
C125_5 C 0.66822(13) 0.85034(13) 0.87281(13)
C131_6 C 0.58039(17) 0.86488(17) 0.6891(2)
C132_6 C 0.63512(17) 0.8109(2) 0.58039(17)
C133_6 C 0.6891(2) 0.91961(17) 0.63512(17)
C134_5 C 0.58039(17) 0.8109(2) 0.86488(17)
C135_5 C 0.63512(17) 0.91961(17) 0.8109(2)
C136_5 C 0.6891(2) 0.86488(17) 0.91961(17)
H52_6 H 0.5872 0.8814 0.6990
H53_6 H 0.6186 0.8010 0.5872
H54_6 H 0.6990 0.9128 0.6186
H55_5 H 0.5872 0.8010 0.8814
H56_5 H 0.6186 0.9128 0.8010
H57_5 H 0.6990 0.8814 0.9128
H63_6 H 0.5647 0.8573 0.6999
H64_6 H 0.6427 0.8001 0.5647
H65_6 H 0.6999 0.9353 0.6427
H66_5 H 0.5647 0.8001 0.8573
H67_5 H 0.6427 0.9353 0.8001
H68_5 H 0.6999 0.8573 0.9353
C142_6 C 0.5693(2) 0.8742(2) 0.6604(2)
C143_6 C 0.6258(2) 0.8396(2) 0.5693(2)
C144_6 C 0.6604(2) 0.9307(2) 0.6258(2)
C145_5 C 0.5693(2) 0.8396(2) 0.8742(2)
C146_5 C 0.6258(2) 0.9307(2) 0.8396(2)
C147_5 C 0.6604(2) 0.8742(2) 0.9307(2)
H74_6 H 0.5597 0.8587 0.6516
H75_6 H 0.6413 0.8484 0.5597
H76_6 H 0.6516 0.9403 0.6413
H77_5 H 0.5597 0.8484 0.8587
H78_5 H 0.6413 0.9403 0.8484
H79_5 H 0.6516 0.8587 0.9403
H85_6 H 0.5564 0.8896 0.6629
H86_6 H 0.6104 0.8371 0.5564
H87_6 H 0.6629 0.9436 0.6104
H88_5 H 0.5564 0.8371 0.8896
H89_5 H 0.6104 0.9436 0.8371
H90_5 H 0.6629 0.8896 0.9436
H96_6 H 0.5848 0.8801 0.6488
H97_6 H 0.6199 0.8512 0.5848
H98_6 H 0.6488 0.9152 0.6199
H99_5 H 0.5848 0.8512 0.8801
H100_5 H 0.6199 0.9152 0.8512
H101_5 H 0.6488 0.8801 0.9152
C153_6 C 0.61587(18) 0.83514(16) 0.71744(15)
C154_6 C 0.66486(16) 0.78256(15) 0.61587(18)
C155_6 C 0.71744(15) 0.88413(18) 0.66486(16)
C156_5 C 0.61587(18) 0.78256(15) 0.83514(16)
C157_5 C 0.66486(16) 0.88413(18) 0.78256(15)
C158_5 C 0.71744(15) 0.83514(16) 0.88413(18)
H107_6 H 0.6005 0.8280 0.7290
H108_6 H 0.6720 0.7710 0.6005
H109_6 H 0.7290 0.8995 0.6720
H110_5 H 0.6005 0.7710 0.8280
H111_5 H 0.6720 0.8995 0.7710
H112_5 H 0.7290 0.8280 0.8995
H118_6 H 0.6229 0.8522 0.7263
H119_6 H 0.6478 0.7737 0.6229
H120_6 H 0.7263 0.8771 0.6478
H121_5 H 0.6229 0.7737 0.8522
H122_5 H 0.6478 0.8771 0.7737
H123_5 H 0.7263 0.8522 0.8771
C164_6 C 0.63907(18) 0.8136(2) 0.71710(18)
C165_6 C 0.6864(2) 0.78290(18) 0.63907(18)
C166_6 C 0.71710(18) 0.86093(18) 0.6864(2)
C167_5 C 0.63907(18) 0.78290(18) 0.8136(2)
C168_5 C 0.6864(2) 0.86093(18) 0.78290(18)
C169_5 C 0.71710(18) 0.8136(2) 0.86093(18)
H129_6 H 0.6551 0.8212 0.7073
H130_6 H 0.6788 0.7927 0.6551
H131_6 H 0.7073 0.8449 0.6788
H132_5 H 0.6551 0.7927 0.8212
H133_5 H 0.6788 0.8449 0.7927
H134_5 H 0.7073 0.8212 0.8449
H140_6 H 0.6443 0.8090 0.7361
H141_6 H 0.6910 0.7639 0.6443
H142_6 H 0.7361 0.8557 0.6910
H143_5 H 0.6443 0.7639 0.8090
H144_5 H 0.6910 0.8557 0.7639
H145_5 H 0.7361 0.8090 0.8557
H151_6 H 0.6326 0.7969 0.7076
H152_6 H 0.7031 0.7924 0.6326
H153_6 H 0.7076 0.8674 0.7031
H154_5 H 0.6326 0.7924 0.7969
H155_5 H 0.7031 0.8674 0.7924
H156_5 H 0.7076 0.7969 0.8674
C170_11 C 0.5000 0.6582(7) 0.8241(7)
C171_11 C 0.5000 0.8241(7) 0.8418(7)
C172_11 C 0.5000 0.8418(7) 0.6759(7)
H157_8 H 0.5184 0.815564 0.851619
H158_11 H 0.5 0.846522 0.844052
H159_8 H 0.4816 0.815564 0.851619
H160_8 H 0.5184 0.648381 0.815564
H161_11 H 0.5 0.655948 0.846522
H162_8 H 0.4816 0.648381 0.815564
H166_8 H 0.5184 0.851619 0.684436
H167_11 H 0.5 0.844052 0.653478
H168_8 H 0.4816 0.851619 0.684436
H172_8 H 0.5184 0.684436 0.648381
H173_11 H 0.5 0.653478 0.655948
H174_8 H 0.4816 0.684436 0.648381
O3_7 O 0.46692(8) 0.26145(8) 0.66972(8)
O4_12 O 0.5000 0.2500 0.7500
O5_12 O 0.5000 0.31852(17) 0.68103(19)
C15_12 C 0.5000 0.3241(7) 0.6582(7)
Cd13_9 Cd 0.298510(12) 0.223449(12) 0.5000
Cd14_10 Cd 0.223449(12) 0.201490(12) 0.5000
Cd15_10 Cd 0.276551(12) 0.0000 0.701490(12)
O6_9 O 0.52968(8) 0.23486(8) 0.70635(9)
O7_9 O 0.47032(8) 0.29365(9) 0.73486(8)
O8_7 O 0.47032(8) 0.23486(8) 0.70635(9)
O11_9 O 0.52968(8) 0.26514(8) 0.79365(9)
O14_9 O 0.52968(8) 0.20635(9) 0.76514(8)
O17_7 O 0.26514(8) 0.20635(9) 0.52968(8)
O18_7 O 0.29365(9) 0.02968(8) 0.73486(8)
O21_9 O 0.53308(8) 0.26145(8) 0.66972(8)
O25_9 O 0.46692(8) 0.33028(8) 0.76145(8)
O27_9 O 0.53308(8) 0.16972(8) 0.73855(8)
O28_9 O 0.53308(8) 0.23855(8) 0.83028(8)
O32_7 O 0.23855(8) 0.16972(8) 0.53308(8)
O33_7 O 0.33028(8) 0.03308(8) 0.76145(8)
O36_12 O 0.5000 0.31897(19) 0.81852(17)
O37_12 O 0.5000 0.18103(19) 0.68148(17)
O38_12 O 0.5000 0.18148(17) 0.81897(19)
C16_7 C 0.45990(11) 0.24054(13) 0.68248(13)
C22_7 C 0.25946(13) 0.18248(13) 0.54010(11)
C23_7 C 0.31752(13) 0.04010(11) 0.74054(13)
C32_7 C 0.43799(12) 0.22167(12) 0.67121(13)
C33_7 C 0.27833(12) 0.17121(13) 0.56201(12)
C34_7 C 0.32879(13) 0.06201(12) 0.72167(12)
C43_7 C 0.42910(12) 0.19871(12) 0.68598(14)
C44_7 C 0.30129(12) 0.18598(14) 0.57090(12)
C45_7 C 0.31402(14) 0.07090(12) 0.69871(12)
H19_7 H 0.4377 0.1938 0.7029
H20_7 H 0.3062 0.2029 0.5623
H21_7 H 0.2971 0.0623 0.6938
C54_7 C 0.40755(12) 0.18315(13) 0.67562(13)
C55_7 C 0.31685(13) 0.17562(13) 0.59245(12)
C56_7 C 0.32438(13) 0.09245(12) 0.68315(13)
C65_7 C 0.39420(12) 0.18974(13) 0.65103(13)
C66_7 C 0.34897(13) 0.10580(12) 0.68974(13)
C67_7 C 0.31026(13) 0.15103(13) 0.60580(12)
C76_7 C 0.40378(13) 0.21265(13) 0.63590(14)
C77_7 C 0.36410(14) 0.09622(13) 0.71265(13)
C78_7 C 0.28735(13) 0.13590(14) 0.59622(13)
H30_7 H 0.3954 0.2174 0.6188
H31_7 H 0.3812 0.1046 0.7174
H32_7 H 0.2826 0.1188 0.6046
C87_7 C 0.42538(12) 0.22808(12) 0.64611(13)
C88_7 C 0.35389(13) 0.07462(12) 0.72808(12)
C89_7 C 0.27192(12) 0.14611(13) 0.57462(12)
H41_7 H 0.4319 0.2435 0.6358
H42_7 H 0.3642 0.0681 0.7435
H43_7 H 0.2565 0.1358 0.5681
C98_7 C 0.39583(13) 0.15723(14) 0.68853(14)
C99_7 C 0.34277(14) 0.18853(14) 0.60417(13)
C100_7 C 0.31147(14) 0.10417(13) 0.65723(14)
C109_7 C 0.37154(13) 0.16942(13) 0.64639(13)
C110_7 C 0.35361(13) 0.12846(13) 0.66942(13)
C111_7 C 0.33058(13) 0.14639(13) 0.62846(13)
C120_7 C 0.37281(13) 0.14966(13) 0.66822(13)
C121_7 C 0.35034(13) 0.16822(13) 0.62719(13)
C122_7 C 0.33178(13) 0.12719(13) 0.64966(13)
C131_7 C 0.41961(17) 0.13512(17) 0.6891(2)
C132_7 C 0.36488(17) 0.1891(2) 0.58039(17)
C133_7 C 0.3109(2) 0.08039(17) 0.63512(17)
H52_7 H 0.4128 0.1186 0.6990
H53_7 H 0.3814 0.1990 0.5872
H54_7 H 0.3010 0.0872 0.6186
H63_7 H 0.4353 0.1427 0.6999
H64_7 H 0.3573 0.1999 0.5647
H65_7 H 0.3001 0.0647 0.6427
C142_7 C 0.4307(2) 0.1258(2) 0.6604(2)
C143_7 C 0.3742(2) 0.1604(2) 0.5693(2)
C144_7 C 0.3396(2) 0.0693(2) 0.6258(2)
H74_7 H 0.4403 0.1413 0.6516
H75_7 H 0.3587 0.1516 0.5597
H76_7 H 0.3484 0.0597 0.6413
H85_7 H 0.4436 0.1104 0.6629
H86_7 H 0.3896 0.1629 0.5564
H87_7 H 0.3371 0.0564 0.6104
H96_7 H 0.4152 0.1199 0.6488
H97_7 H 0.3801 0.1488 0.5848
H98_7 H 0.3512 0.0848 0.6199
C153_7 C 0.38413(18) 0.16486(16) 0.71744(15)
C154_7 C 0.33514(16) 0.21744(15) 0.61587(18)
C155_7 C 0.28256(15) 0.11587(18) 0.66486(16)
H107_7 H 0.3995 0.1720 0.7290
H108_7 H 0.3280 0.2290 0.6005
H109_7 H 0.2710 0.1005 0.6720
H118_7 H 0.3771 0.1478 0.7263
H119_7 H 0.3522 0.2263 0.6229
H120_7 H 0.2737 0.1229 0.6478
C164_7 C 0.36093(18) 0.1864(2) 0.71710(18)
C165_7 C 0.3136(2) 0.21710(18) 0.63907(18)
C166_7 C 0.28290(18) 0.13907(18) 0.6864(2)
H129_7 H 0.3449 0.1788 0.7073
H130_7 H 0.3212 0.2073 0.6551
H131_7 H 0.2927 0.1551 0.6788
H140_7 H 0.3557 0.1910 0.7361
H141_7 H 0.3090 0.2361 0.6443
H142_7 H 0.2639 0.1443 0.6910
H151_7 H 0.3674 0.2031 0.7076
H152_7 H 0.2969 0.2076 0.6326
H153_7 H 0.2924 0.1326 0.7031
C170_12 C 0.5000 0.3418(7) 0.8241(7)
C171_12 C 0.5000 0.1759(7) 0.8418(7)
C172_12 C 0.5000 0.1582(7) 0.6759(7)
H157_9 H 0.4816 0.184436 0.851619
H158_12 H 0.5 0.153478 0.844052
H159_9 H 0.5184 0.184436 0.851619
H160_9 H 0.4816 0.351619 0.815564
H161_12 H 0.5 0.344052 0.846522
H162_9 H 0.5184 0.351619 0.815564
H166_9 H 0.4816 0.148381 0.684436
H167_12 H 0.5 0.155948 0.653478
H168_9 H 0.5184 0.148381 0.684436
H172_9 H 0.4816 0.315564 0.648381
H173_12 H 0.5 0.346522 0.655948
H174_9 H 0.5184 0.315564 0.648381
Cd15_11 Cd 0.276551(12) 1.0000 0.701490(12)
Cd17_8 Cd 0.0000 0.798510(12) 0.776551(12)
Cd18_8 Cd 0.798510(12) 0.0000 0.723449(12)
O4_13 O 0.7500 0.7500 0.5000
O5_13 O 0.68148(17) 0.68103(19) 0.5000
C15_13 C 0.6759(7) 0.6582(7) 0.5000
Cd17_9 Cd 1.0000 0.798510(12) 0.776551(12)
Cd18_9 Cd 0.798510(12) 1.0000 0.723449(12)
O6_10 O 0.76514(8) 0.70635(9) 0.47032(8)
O7_10 O 0.70635(9) 0.73486(8) 0.52968(8)
O11_10 O 0.73486(8) 0.79365(9) 0.47032(8)
O13_6 O 0.79365(9) 0.76514(8) 0.52968(8)
O14_10 O 0.79365(9) 0.76514(8) 0.47032(8)
O19_6 O 0.97032(8) 0.79365(9) 0.73486(8)
O20_6 O 0.76514(8) 0.97032(8) 0.70635(9)
O21_10 O 0.73855(8) 0.66972(8) 0.46692(8)
O25_10 O 0.66972(8) 0.76145(8) 0.53308(8)
O26_6 O 0.83028(8) 0.73855(8) 0.53308(8)
O27_10 O 0.83028(8) 0.73855(8) 0.46692(8)
O28_10 O 0.76145(8) 0.83028(8) 0.46692(8)
O34_6 O 0.96692(8) 0.83028(8) 0.76145(8)
O35_6 O 0.73855(8) 0.96692(8) 0.66972(8)
O36_13 O 0.68103(19) 0.81852(17) 0.5000
O37_13 O 0.81897(19) 0.68148(17) 0.5000
O38_13 O 0.81852(17) 0.81897(19) 0.5000
C24_6 C 0.81752(13) 0.75946(13) 0.54010(11)
C25_6 C 0.95990(11) 0.81752(13) 0.74054(13)
C26_6 C 0.75946(13) 0.95990(11) 0.68248(13)
C35_6 C 0.82879(13) 0.77833(12) 0.56201(12)
C36_6 C 0.93799(12) 0.82879(13) 0.72167(12)
C37_6 C 0.77833(12) 0.93799(12) 0.67121(13)
C46_6 C 0.81402(14) 0.80129(12) 0.57090(12)
C47_6 C 0.92910(12) 0.81402(14) 0.69871(12)
C48_6 C 0.80129(12) 0.92910(12) 0.68598(14)
H22_6 H 0.7971 0.8062 0.5623
H23_6 H 0.9377 0.7971 0.6938
H24_6 H 0.8062 0.9377 0.7029
C57_6 C 0.82438(13) 0.81685(13) 0.59245(12)
C58_6 C 0.90755(12) 0.82438(13) 0.68315(13)
C59_6 C 0.81685(13) 0.90755(12) 0.67562(13)
C68_6 C 0.84897(13) 0.81026(13) 0.60580(12)
C69_6 C 0.81026(13) 0.89420(12) 0.65103(13)
C70_6 C 0.89420(12) 0.84897(13) 0.68974(13)
C79_6 C 0.86410(14) 0.78735(13) 0.59622(13)
C80_6 C 0.78735(13) 0.90378(13) 0.63590(14)
C81_6 C 0.90378(13) 0.86410(14) 0.71265(13)
H33_6 H 0.8812 0.7826 0.6046
H34_6 H 0.7826 0.8954 0.6188
H35_6 H 0.8954 0.8812 0.7174
C90_6 C 0.85389(13) 0.77192(12) 0.57462(12)
C91_6 C 0.77192(12) 0.92538(12) 0.64611(13)
C92_6 C 0.92538(12) 0.85389(13) 0.72808(12)
H44_6 H 0.8642 0.7565 0.5681
H45_6 H 0.7565 0.9319 0.6358
H46_6 H 0.9319 0.8642 0.7435
C101_6 C 0.81147(14) 0.84277(14) 0.60417(13)
C102_6 C 0.89583(13) 0.81147(14) 0.65723(14)
C103_6 C 0.84277(14) 0.89583(13) 0.68853(14)
C112_6 C 0.85361(13) 0.83058(13) 0.62846(13)
C113_6 C 0.83058(13) 0.87154(13) 0.64639(13)
C114_6 C 0.87154(13) 0.85361(13) 0.66942(13)
C123_6 C 0.83178(13) 0.85034(13) 0.62719(13)
C124_6 C 0.87281(13) 0.83178(13) 0.64966(13)
C125_6 C 0.85034(13) 0.87281(13) 0.66822(13)
C134_6 C 0.8109(2) 0.86488(17) 0.58039(17)
C135_6 C 0.91961(17) 0.8109(2) 0.63512(17)
C136_6 C 0.86488(17) 0.91961(17) 0.6891(2)
H55_6 H 0.8010 0.8814 0.5872
H56_6 H 0.9128 0.8010 0.6186
H57_6 H 0.8814 0.9128 0.6990
H66_6 H 0.8001 0.8573 0.5647
H67_6 H 0.9353 0.8001 0.6427
H68_6 H 0.8573 0.9353 0.6999
C145_6 C 0.8396(2) 0.8742(2) 0.5693(2)
C146_6 C 0.9307(2) 0.8396(2) 0.6258(2)
C147_6 C 0.8742(2) 0.9307(2) 0.6604(2)
H77_6 H 0.8484 0.8587 0.5597
H78_6 H 0.9403 0.8484 0.6413
H79_6 H 0.8587 0.9403 0.6516
H88_6 H 0.8371 0.8896 0.5564
H89_6 H 0.9436 0.8371 0.6104
H90_6 H 0.8896 0.9436 0.6629
H99_6 H 0.8512 0.8801 0.5848
H100_6 H 0.9152 0.8512 0.6199
H101_6 H 0.8801 0.9152 0.6488
C156_6 C 0.78256(15) 0.83514(16) 0.61587(18)
C157_6 C 0.88413(18) 0.78256(15) 0.66486(16)
C158_6 C 0.83514(16) 0.88413(18) 0.71744(15)
H110_6 H 0.7710 0.8280 0.6005
H111_6 H 0.8995 0.7710 0.6720
H112_6 H 0.8280 0.8995 0.7290
H121_6 H 0.7737 0.8522 0.6229
H122_6 H 0.8771 0.7737 0.6478
H123_6 H 0.8522 0.8771 0.7263
C167_6 C 0.78290(18) 0.8136(2) 0.63907(18)
C168_6 C 0.86093(18) 0.78290(18) 0.6864(2)
C169_6 C 0.8136(2) 0.86093(18) 0.71710(18)
H132_6 H 0.7927 0.8212 0.6551
H133_6 H 0.8449 0.7927 0.6788
H134_6 H 0.8212 0.8449 0.7073
H143_6 H 0.7639 0.8090 0.6443
H144_6 H 0.8557 0.7639 0.6910
H145_6 H 0.8090 0.8557 0.7361
H154_6 H 0.7924 0.7969 0.6326
H155_6 H 0.8674 0.7924 0.7031
H156_6 H 0.7969 0.8674 0.7076
C170_13 C 0.6582(7) 0.8241(7) 0.5000
C171_13 C 0.8241(7) 0.8418(7) 0.5000
C172_13 C 0.8418(7) 0.6759(7) 0.5000
H157_10 H 0.815564 0.851619 0.5184
H158_13 H 0.846522 0.844052 0.5
H159_10 H 0.815564 0.851619 0.4816
H160_10 H 0.648381 0.815564 0.5184
H161_13 H 0.655948 0.846522 0.5
H162_10 H 0.648381 0.815564 0.4816
H166_10 H 0.851619 0.684436 0.5184
H167_13 H 0.844052 0.653478 0.5
H168_10 H 0.851619 0.684436 0.4816
H172_10 H 0.684436 0.648381 0.5184
H173_13 H 0.653478 0.655948 0.5
H174_10 H 0.684436 0.648381 0.4816
O4_14 O 0.7500 0.2500 0.5000
O5_14 O 0.68148(17) 0.31897(19) 0.5000
C15_14 C 0.6759(7) 0.3418(7) 0.5000
Cd10_10 Cd 0.701490(12) 0.0000 0.223449(12)
Cd11_10 Cd 0.5000 0.201490(12) 0.276551(12)
Cd12_9 Cd 0.5000 0.276551(12) 0.298510(12)
O6_11 O 0.76514(8) 0.29365(9) 0.52968(8)
O7_11 O 0.70635(9) 0.26514(8) 0.47032(8)
O11_11 O 0.73486(8) 0.20635(9) 0.52968(8)
O12_7 O 0.73486(8) 0.20635(9) 0.47032(8)
O14_11 O 0.79365(9) 0.23486(8) 0.52968(8)
O15_7 O 0.70635(9) 0.02968(8) 0.26514(8)
O16_7 O 0.52968(8) 0.23486(8) 0.29365(9)
O21_11 O 0.73855(8) 0.33028(8) 0.53308(8)
O25_11 O 0.66972(8) 0.23855(8) 0.46692(8)
O27_11 O 0.83028(8) 0.26145(8) 0.53308(8)
O28_11 O 0.76145(8) 0.16972(8) 0.53308(8)
O29_7 O 0.76145(8) 0.16972(8) 0.46692(8)
O30_7 O 0.66972(8) 0.03308(8) 0.23855(8)
O31_7 O 0.53308(8) 0.26145(8) 0.33028(8)
O36_14 O 0.68103(19) 0.18148(17) 0.5000
O37_14 O 0.81897(19) 0.31852(17) 0.5000
O38_14 O 0.81852(17) 0.18103(19) 0.5000
C19_7 C 0.74054(13) 0.18248(13) 0.45990(11)
C20_7 C 0.68248(13) 0.04010(11) 0.25946(13)
C21_7 C 0.54010(11) 0.24054(13) 0.31752(13)
C29_7 C 0.72167(12) 0.17121(13) 0.43799(12)
C30_7 C 0.67121(13) 0.06201(12) 0.27833(12)
C31_7 C 0.56201(12) 0.22167(12) 0.32879(13)
C40_7 C 0.69871(12) 0.18598(14) 0.42910(12)
C41_7 C 0.68598(14) 0.07090(12) 0.30129(12)
C42_7 C 0.57090(12) 0.19871(12) 0.31402(14)
H16_7 H 0.6938 0.2029 0.4377
H17_7 H 0.7029 0.0623 0.3062
H18_7 H 0.5623 0.1938 0.2971
C51_7 C 0.68315(13) 0.17562(13) 0.40755(12)
C52_7 C 0.67562(13) 0.09245(12) 0.31685(13)
C53_7 C 0.59245(12) 0.18315(13) 0.32438(13)
C62_7 C 0.68974(13) 0.15103(13) 0.39420(12)
C63_7 C 0.60580(12) 0.18974(13) 0.34897(13)
C64_7 C 0.65103(13) 0.10580(12) 0.31026(13)
C73_7 C 0.71265(13) 0.13590(14) 0.40378(13)
C74_7 C 0.59622(13) 0.21265(13) 0.36410(14)
C75_7 C 0.63590(14) 0.09622(13) 0.28735(13)
H27_7 H 0.7174 0.1188 0.3954
H28_7 H 0.6046 0.2174 0.3812
H29_7 H 0.6188 0.1046 0.2826
C84_7 C 0.72808(12) 0.14611(13) 0.42538(12)
C85_7 C 0.57462(12) 0.22808(12) 0.35389(13)
C86_7 C 0.64611(13) 0.07462(12) 0.27192(12)
H38_7 H 0.7435 0.1358 0.4319
H39_7 H 0.5681 0.2435 0.3642
H40_7 H 0.6358 0.0681 0.2565
C95_7 C 0.65723(14) 0.18853(14) 0.39583(13)
C96_7 C 0.68853(14) 0.10417(13) 0.34277(14)
C97_7 C 0.60417(13) 0.15723(14) 0.31147(14)
C106_7 C 0.66942(13) 0.14639(13) 0.37154(13)
C107_7 C 0.62846(13) 0.16942(13) 0.35361(13)
C108_7 C 0.64639(13) 0.12846(13) 0.33058(13)
C117_7 C 0.64966(13) 0.16822(13) 0.37281(13)
C118_7 C 0.66822(13) 0.12719(13) 0.35034(13)
C119_7 C 0.62719(13) 0.14966(13) 0.33178(13)
C128_7 C 0.63512(17) 0.1891(2) 0.41961(17)
C129_7 C 0.6891(2) 0.08039(17) 0.36488(17)
C130_7 C 0.58039(17) 0.13512(17) 0.3109(2)
H49_7 H 0.6186 0.1990 0.4128
H50_7 H 0.6990 0.0872 0.3814
H51_7 H 0.5872 0.1186 0.3010
H60_7 H 0.6427 0.1999 0.4353
H61_7 H 0.6999 0.0647 0.3573
H62_7 H 0.5647 0.1427 0.3001
C139_7 C 0.6258(2) 0.1604(2) 0.4307(2)
C140_7 C 0.6604(2) 0.0693(2) 0.3742(2)
C141_7 C 0.5693(2) 0.1258(2) 0.3396(2)
H71_7 H 0.6413 0.1516 0.4403
H72_7 H 0.6516 0.0597 0.3587
H73_7 H 0.5597 0.1413 0.3484
H82_7 H 0.6104 0.1629 0.4436
H83_7 H 0.6629 0.0564 0.3896
H84_7 H 0.5564 0.1104 0.3371
H93_7 H 0.6199 0.1488 0.4152
H94_7 H 0.6488 0.0848 0.3801
H95_7 H 0.5848 0.1199 0.3512
C150_7 C 0.66486(16) 0.21744(15) 0.38413(18)
C151_7 C 0.71744(15) 0.11587(18) 0.33514(16)
C152_7 C 0.61587(18) 0.16486(16) 0.28256(15)
H104_7 H 0.6720 0.2290 0.3995
H105_7 H 0.7290 0.1005 0.3280
H106_7 H 0.6005 0.1720 0.2710
H115_7 H 0.6478 0.2263 0.3771
H116_7 H 0.7263 0.1229 0.3522
H117_7 H 0.6229 0.1478 0.2737
C161_7 C 0.6864(2) 0.21710(18) 0.36093(18)
C162_7 C 0.71710(18) 0.13907(18) 0.3136(2)
C163_7 C 0.63907(18) 0.1864(2) 0.28290(18)
H126_7 H 0.6788 0.2073 0.3449
H127_7 H 0.7073 0.1551 0.3212
H128_7 H 0.6551 0.1788 0.2927
H137_7 H 0.6910 0.2361 0.3557
H138_7 H 0.7361 0.1443 0.3090
H139_7 H 0.6443 0.1910 0.2639
H148_7 H 0.7031 0.2076 0.3674
H149_7 H 0.7076 0.1326 0.2969
H150_7 H 0.6326 0.2031 0.2924
C170_14 C 0.6582(7) 0.1759(7) 0.5000
C171_14 C 0.8241(7) 0.1582(7) 0.5000
C172_14 C 0.8418(7) 0.3241(7) 0.5000
H157_11 H 0.815564 0.148381 0.4816
H158_14 H 0.846522 0.155948 0.5
H159_11 H 0.815564 0.148381 0.5184
H160_11 H 0.648381 0.184436 0.4816
H161_14 H 0.655948 0.153478 0.5
H162_11 H 0.648381 0.184436 0.5184
H166_11 H 0.851619 0.315564 0.4816
H167_14 H 0.844052 0.346522 0.5
H168_11 H 0.851619 0.315564 0.5184
H172_11 H 0.684436 0.351619 0.4816
H173_14 H 0.653478 0.344052 0.5
H174_11 H 0.684436 0.351619 0.5184
Cd10_11 Cd 0.701490(12) 1.0000 0.223449(12)
O3_8 O 0.26145(8) 0.66972(8) 0.46692(8)
O4_15 O 0.2500 0.7500 0.5000
O5_15 O 0.31852(17) 0.68103(19) 0.5000
C15_15 C 0.3241(7) 0.6582(7) 0.5000
Cd13_10 Cd 0.223449(12) 0.5000 0.298510(12)
Cd14_11 Cd 0.201490(12) 0.5000 0.223449(12)
Cd15_12 Cd 0.0000 0.701490(12) 0.276551(12)
O6_12 O 0.23486(8) 0.70635(9) 0.52968(8)
O7_12 O 0.29365(9) 0.73486(8) 0.47032(8)
O8_8 O 0.23486(8) 0.70635(9) 0.47032(8)
O11_12 O 0.26514(8) 0.79365(9) 0.52968(8)
O14_12 O 0.20635(9) 0.76514(8) 0.52968(8)
O17_8 O 0.20635(9) 0.52968(8) 0.26514(8)
O18_8 O 0.02968(8) 0.73486(8) 0.29365(9)
O21_12 O 0.26145(8) 0.66972(8) 0.53308(8)
O25_12 O 0.33028(8) 0.76145(8) 0.46692(8)
O27_12 O 0.16972(8) 0.73855(8) 0.53308(8)
O28_12 O 0.23855(8) 0.83028(8) 0.53308(8)
O32_8 O 0.16972(8) 0.53308(8) 0.23855(8)
O33_8 O 0.03308(8) 0.76145(8) 0.33028(8)
O36_15 O 0.31897(19) 0.81852(17) 0.5000
O37_15 O 0.18103(19) 0.68148(17) 0.5000
O38_15 O 0.18148(17) 0.81897(19) 0.5000
C16_8 C 0.24054(13) 0.68248(13) 0.45990(11)
C22_8 C 0.18248(13) 0.54010(11) 0.25946(13)
C23_8 C 0.04010(11) 0.74054(13) 0.31752(13)
C32_8 C 0.22167(12) 0.67121(13) 0.43799(12)
C33_8 C 0.17121(13) 0.56201(12) 0.27833(12)
C34_8 C 0.06201(12) 0.72167(12) 0.32879(13)
C43_8 C 0.19871(12) 0.68598(14) 0.42910(12)
C44_8 C 0.18598(14) 0.57090(12) 0.30129(12)
C45_8 C 0.07090(12) 0.69871(12) 0.31402(14)
H19_8 H 0.1938 0.7029 0.4377
H20_8 H 0.2029 0.5623 0.3062
H21_8 H 0.0623 0.6938 0.2971
C54_8 C 0.18315(13) 0.67562(13) 0.40755(12)
C55_8 C 0.17562(13) 0.59245(12) 0.31685(13)
C56_8 C 0.09245(12) 0.68315(13) 0.32438(13)
C65_8 C 0.18974(13) 0.65103(13) 0.39420(12)
C66_8 C 0.10580(12) 0.68974(13) 0.34897(13)
C67_8 C 0.15103(13) 0.60580(12) 0.31026(13)
C76_8 C 0.21265(13) 0.63590(14) 0.40378(13)
C77_8 C 0.09622(13) 0.71265(13) 0.36410(14)
C78_8 C 0.13590(14) 0.59622(13) 0.28735(13)
H30_8 H 0.2174 0.6188 0.3954
H31_8 H 0.1046 0.7174 0.3812
H32_8 H 0.1188 0.6046 0.2826
C87_8 C 0.22808(12) 0.64611(13) 0.42538(12)
C88_8 C 0.07462(12) 0.72808(12) 0.35389(13)
C89_8 C 0.14611(13) 0.57462(12) 0.27192(12)
H41_8 H 0.2435 0.6358 0.4319
H42_8 H 0.0681 0.7435 0.3642
H43_8 H 0.1358 0.5681 0.2565
C98_8 C 0.15723(14) 0.68853(14) 0.39583(13)
C99_8 C 0.18853(14) 0.60417(13) 0.34277(14)
C100_8 C 0.10417(13) 0.65723(14) 0.31147(14)
C109_8 C 0.16942(13) 0.64639(13) 0.37154(13)
C110_8 C 0.12846(13) 0.66942(13) 0.35361(13)
C111_8 C 0.14639(13) 0.62846(13) 0.33058(13)
C120_8 C 0.14966(13) 0.66822(13) 0.37281(13)
C121_8 C 0.16822(13) 0.62719(13) 0.35034(13)
C122_8 C 0.12719(13) 0.64966(13) 0.33178(13)
C131_8 C 0.13512(17) 0.6891(2) 0.41961(17)
C132_8 C 0.1891(2) 0.58039(17) 0.36488(17)
C133_8 C 0.08039(17) 0.63512(17) 0.3109(2)
H52_8 H 0.1186 0.6990 0.4128
H53_8 H 0.1990 0.5872 0.3814
H54_8 H 0.0872 0.6186 0.3010
H63_8 H 0.1427 0.6999 0.4353
H64_8 H 0.1999 0.5647 0.3573
H65_8 H 0.0647 0.6427 0.3001
C142_8 C 0.1258(2) 0.6604(2) 0.4307(2)
C143_8 C 0.1604(2) 0.5693(2) 0.3742(2)
C144_8 C 0.0693(2) 0.6258(2) 0.3396(2)
H74_8 H 0.1413 0.6516 0.4403
H75_8 H 0.1516 0.5597 0.3587
H76_8 H 0.0597 0.6413 0.3484
H85_8 H 0.1104 0.6629 0.4436
H86_8 H 0.1629 0.5564 0.3896
H87_8 H 0.0564 0.6104 0.3371
H96_8 H 0.1199 0.6488 0.4152
H97_8 H 0.1488 0.5848 0.3801
H98_8 H 0.0848 0.6199 0.3512
C153_8 C 0.16486(16) 0.71744(15) 0.38413(18)
C154_8 C 0.21744(15) 0.61587(18) 0.33514(16)
C155_8 C 0.11587(18) 0.66486(16) 0.28256(15)
H107_8 H 0.1720 0.7290 0.3995
H108_8 H 0.2290 0.6005 0.3280
H109_8 H 0.1005 0.6720 0.2710
H118_8 H 0.1478 0.7263 0.3771
H119_8 H 0.2263 0.6229 0.3522
H120_8 H 0.1229 0.6478 0.2737
C164_8 C 0.1864(2) 0.71710(18) 0.36093(18)
C165_8 C 0.21710(18) 0.63907(18) 0.3136(2)
C166_8 C 0.13907(18) 0.6864(2) 0.28290(18)
H129_8 H 0.1788 0.7073 0.3449
H130_8 H 0.2073 0.6551 0.3212
H131_8 H 0.1551 0.6788 0.2927
H140_8 H 0.1910 0.7361 0.3557
H141_8 H 0.2361 0.6443 0.3090
H142_8 H 0.1443 0.6910 0.2639
H151_8 H 0.2031 0.7076 0.3674
H152_8 H 0.2076 0.6326 0.2969
H153_8 H 0.1326 0.7031 0.2924
C170_15 C 0.3418(7) 0.8241(7) 0.5000
C171_15 C 0.1759(7) 0.8418(7) 0.5000
C172_15 C 0.1582(7) 0.6759(7) 0.5000
H157_12 H 0.184436 0.851619 0.4816
H158_15 H 0.153478 0.844052 0.5
H159_12 H 0.184436 0.851619 0.5184
H160_12 H 0.351619 0.815564 0.4816
H161_15 H 0.344052 0.846522 0.5
H162_12 H 0.351619 0.815564 0.5184
H166_12 H 0.148381 0.684436 0.4816
H167_15 H 0.155948 0.653478 0.5
H168_12 H 0.148381 0.684436 0.5184
H172_12 H 0.315564 0.648381 0.4816
H173_15 H 0.346522 0.655948 0.5
H174_12 H 0.315564 0.648381 0.5184
Cd15_13 Cd 1.0000 0.701490(12) 0.276551(12)
O2_5 O 0.02968(8) 0.73486(8) 0.70635(9)
O4_16 O 0.0000 0.7500 0.7500
O5_16 O 0.0000 0.68103(19) 0.68148(17)
C1_5 C 0.04010(11) 0.74054(13) 0.68248(13)
C2_5 C 0.06201(12) 0.72167(12) 0.67121(13)
C3_5 C 0.07090(12) 0.69871(12) 0.68598(14)
H1_5 H 0.0623 0.6938 0.7029
C4_5 C 0.09245(12) 0.68315(13) 0.67562(13)
C5_5 C 0.10580(12) 0.68974(13) 0.65103(13)
C6_5 C 0.09622(13) 0.71265(13) 0.63590(14)
H2_5 H 0.1046 0.7174 0.6188
C7_5 C 0.07462(12) 0.72808(12) 0.64611(13)
H3_5 H 0.0681 0.7435 0.6358
C8_5 C 0.10417(13) 0.65723(14) 0.68853(14)
C9_5 C 0.12846(13) 0.66942(13) 0.64639(13)
C10_5 C 0.12719(13) 0.64966(13) 0.66822(13)
C11_5 C 0.08039(17) 0.63512(17) 0.6891(2)
H4_5 H 0.0872 0.6186 0.6990
H5_5 H 0.0647 0.6427 0.6999
C12_5 C 0.0693(2) 0.6258(2) 0.6604(2)
H6_5 H 0.0597 0.6413 0.6516
H7_5 H 0.0564 0.6104 0.6629
H8_5 H 0.0848 0.6199 0.6488
C13_5 C 0.11587(18) 0.66486(16) 0.71744(15)
H9_5 H 0.1005 0.6720 0.7290
H10_5 H 0.1229 0.6478 0.7263
C14_5 C 0.13907(18) 0.6864(2) 0.71710(18)
H11_5 H 0.1551 0.6788 0.7073
H12_5 H 0.1443 0.6910 0.7361
H13_5 H 0.1326 0.7031 0.7076
C15_16 C 0.0000 0.6582(7) 0.6759(7)
O6_13 O 0.02968(8) 0.70635(9) 0.76514(8)
O11_13 O 0.02968(8) 0.79365(9) 0.73486(8)
O14_13 O 0.02968(8) 0.76514(8) 0.79365(9)
O21_13 O 0.03308(8) 0.66972(8) 0.73855(8)
O22_5 O 0.03308(8) 0.76145(8) 0.66972(8)
O27_13 O 0.03308(8) 0.73855(8) 0.83028(8)
O28_13 O 0.03308(8) 0.83028(8) 0.76145(8)
O36_16 O -0.0000 0.81852(17) 0.68103(19)
O37_16 O 0.0000 0.68148(17) 0.81897(19)
O38_16 O 0.0000 0.81897(19) 0.81852(17)
C17_5 C 0.24054(13) 0.68248(13) 0.54010(11)
C18_5 C 0.18248(13) 0.54010(11) 0.74054(13)
C27_5 C 0.22167(12) 0.67121(13) 0.56201(12)
C28_5 C 0.17121(13) 0.56201(12) 0.72167(12)
C38_5 C 0.19871(12) 0.68598(14) 0.57090(12)
C39_5 C 0.18598(14) 0.57090(12) 0.69871(12)
H14_5 H 0.1938 0.7029 0.5623
H15_5 H 0.2029 0.5623 0.6938
C49_5 C 0.18315(13) 0.67562(13) 0.59245(12)
C50_5 C 0.17562(13) 0.59245(12) 0.68315(13)
C60_5 C 0.15103(13) 0.60580(12) 0.68974(13)
C61_5 C 0.18974(13) 0.65103(13) 0.60580(12)
C71_5 C 0.13590(14) 0.59622(13) 0.71265(13)
C72_5 C 0.21265(13) 0.63590(14) 0.59622(13)
H25_5 H 0.1188 0.6046 0.7174
H26_5 H 0.2174 0.6188 0.6046
C82_5 C 0.14611(13) 0.57462(12) 0.72808(12)
C83_5 C 0.22808(12) 0.64611(13) 0.57462(12)
H36_5 H 0.1358 0.5681 0.7435
H37_5 H 0.2435 0.6358 0.5681
C93_5 C 0.15723(14) 0.68853(14) 0.60417(13)
C94_5 C 0.18853(14) 0.60417(13) 0.65723(14)
C104_5 C 0.14639(13) 0.62846(13) 0.66942(13)
C105_5 C 0.16942(13) 0.64639(13) 0.62846(13)
C115_5 C 0.14966(13) 0.66822(13) 0.62719(13)
C116_5 C 0.16822(13) 0.62719(13) 0.64966(13)
C126_5 C 0.13512(17) 0.6891(2) 0.58039(17)
C127_5 C 0.1891(2) 0.58039(17) 0.63512(17)
H47_5 H 0.1186 0.6990 0.5872
H48_5 H 0.1990 0.5872 0.6186
H58_5 H 0.1427 0.6999 0.5647
H59_5 H 0.1999 0.5647 0.6427
C137_5 C 0.1258(2) 0.6604(2) 0.5693(2)
C138_5 C 0.1604(2) 0.5693(2) 0.6258(2)
H69_5 H 0.1413 0.6516 0.5597
H70_5 H 0.1516 0.5597 0.6413
H80_5 H 0.1104 0.6629 0.5564
H81_5 H 0.1629 0.5564 0.6104
H91_5 H 0.1199 0.6488 0.5848
H92_5 H 0.1488 0.5848 0.6199
C148_5 C 0.16486(16) 0.71744(15) 0.61587(18)
C149_5 C 0.21744(15) 0.61587(18) 0.66486(16)
H102_5 H 0.1720 0.7290 0.6005
H103_5 H 0.2290 0.6005 0.6720
H113_5 H 0.1478 0.7263 0.6229
H114_5 H 0.2263 0.6229 0.6478
C159_5 C 0.1864(2) 0.71710(18) 0.63907(18)
C160_5 C 0.21710(18) 0.63907(18) 0.6864(2)
H124_5 H 0.1788 0.7073 0.6551
H125_5 H 0.2073 0.6551 0.6788
H135_5 H 0.1910 0.7361 0.6443
H136_5 H 0.2361 0.6443 0.6910
H146_5 H 0.2031 0.7076 0.6326
H147_5 H 0.2076 0.6326 0.7031
C170_16 C 0.0000 0.8241(7) 0.6582(7)
C171_16 C 0.0000 0.8418(7) 0.8241(7)
C172_16 C 0.0000 0.6759(7) 0.8418(7)
H158_16 H -2.6019e-18 0.844052 0.846522
H159_13 H 0.0183997 0.851619 0.815564
H161_16 H -2.6019e-18 0.846522 0.655948
H162_13 H 0.0183997 0.815564 0.648381
H167_16 H -2.6019e-18 0.653478 0.844052
H168_13 H 0.0183997 0.684436 0.851619
H173_16 H -2.6019e-18 0.655948 0.653478
H174_13 H 0.0183997 0.648381 0.684436
O4_17 O 1.0000 0.7500 0.7500
O5_17 O 1.0000 0.68103(19) 0.68148(17)
C15_17 C 1.0000 0.6582(7) 0.6759(7)
O13_7 O 0.97032(8) 0.76514(8) 0.79365(9)
O19_7 O 0.76514(8) 0.79365(9) 0.97032(8)
O20_7 O 0.79365(9) 0.97032(8) 0.76514(8)
O26_7 O 0.96692(8) 0.73855(8) 0.83028(8)
O34_7 O 0.73855(8) 0.83028(8) 0.96692(8)
O35_7 O 0.83028(8) 0.96692(8) 0.73855(8)
O36_17 O 1.0000 0.81852(17) 0.68103(19)
O37_17 O 1.0000 0.68148(17) 0.81897(19)
O38_17 O 1.0000 0.81897(19) 0.81852(17)
C24_7 C 0.95990(11) 0.75946(13) 0.81752(13)
C25_7 C 0.75946(13) 0.81752(13) 0.95990(11)
C26_7 C 0.81752(13) 0.95990(11) 0.75946(13)
C35_7 C 0.93799(12) 0.77833(12) 0.82879(13)
C36_7 C 0.77833(12) 0.82879(13) 0.93799(12)
C37_7 C 0.82879(13) 0.93799(12) 0.77833(12)
C46_7 C 0.92910(12) 0.80129(12) 0.81402(14)
C47_7 C 0.80129(12) 0.81402(14) 0.92910(12)
C48_7 C 0.81402(14) 0.92910(12) 0.80129(12)
H22_7 H 0.9377 0.8062 0.7971
H23_7 H 0.8062 0.7971 0.9377
H24_7 H 0.7971 0.9377 0.8062
C57_7 C 0.90755(12) 0.81685(13) 0.82438(13)
C58_7 C 0.81685(13) 0.82438(13) 0.90755(12)
C59_7 C 0.82438(13) 0.90755(12) 0.81685(13)
C68_7 C 0.89420(12) 0.81026(13) 0.84897(13)
C69_7 C 0.84897(13) 0.89420(12) 0.81026(13)
C70_7 C 0.81026(13) 0.84897(13) 0.89420(12)
C79_7 C 0.90378(13) 0.78735(13) 0.86410(14)
C80_7 C 0.86410(14) 0.90378(13) 0.78735(13)
C81_7 C 0.78735(13) 0.86410(14) 0.90378(13)
H33_7 H 0.8954 0.7826 0.8812
H34_7 H 0.8812 0.8954 0.7826
H35_7 H 0.7826 0.8812 0.8954
C90_7 C 0.92538(12) 0.77192(12) 0.85389(13)
C91_7 C 0.85389(13) 0.92538(12) 0.77192(12)
C92_7 C 0.77192(12) 0.85389(13) 0.92538(12)
H44_7 H 0.9319 0.7565 0.8642
H45_7 H 0.8642 0.9319 0.7565
H46_7 H 0.7565 0.8642 0.9319
C101_7 C 0.89583(13) 0.84277(14) 0.81147(14)
C102_7 C 0.84277(14) 0.81147(14) 0.89583(13)
C103_7 C 0.81147(14) 0.89583(13) 0.84277(14)
C112_7 C 0.87154(13) 0.83058(13) 0.85361(13)
C113_7 C 0.85361(13) 0.87154(13) 0.83058(13)
C114_7 C 0.83058(13) 0.85361(13) 0.87154(13)
C123_7 C 0.87281(13) 0.85034(13) 0.83178(13)
C124_7 C 0.85034(13) 0.83178(13) 0.87281(13)
C125_7 C 0.83178(13) 0.87281(13) 0.85034(13)
C134_7 C 0.91961(17) 0.86488(17) 0.8109(2)
C135_7 C 0.86488(17) 0.8109(2) 0.91961(17)
C136_7 C 0.8109(2) 0.91961(17) 0.86488(17)
H55_7 H 0.9128 0.8814 0.8010
H56_7 H 0.8814 0.8010 0.9128
H57_7 H 0.8010 0.9128 0.8814
H66_7 H 0.9353 0.8573 0.8001
H67_7 H 0.8573 0.8001 0.9353
H68_7 H 0.8001 0.9353 0.8573
C145_7 C 0.9307(2) 0.8742(2) 0.8396(2)
C146_7 C 0.8742(2) 0.8396(2) 0.9307(2)
C147_7 C 0.8396(2) 0.9307(2) 0.8742(2)
H77_7 H 0.9403 0.8587 0.8484
H78_7 H 0.8587 0.8484 0.9403
H79_7 H 0.8484 0.9403 0.8587
H88_7 H 0.9436 0.8896 0.8371
H89_7 H 0.8896 0.8371 0.9436
H90_7 H 0.8371 0.9436 0.8896
H99_7 H 0.9152 0.8801 0.8512
H100_7 H 0.8801 0.8512 0.9152
H101_7 H 0.8512 0.9152 0.8801
C156_7 C 0.88413(18) 0.83514(16) 0.78256(15)
C157_7 C 0.83514(16) 0.78256(15) 0.88413(18)
C158_7 C 0.78256(15) 0.88413(18) 0.83514(16)
H110_7 H 0.8995 0.8280 0.7710
H111_7 H 0.8280 0.7710 0.8995
H112_7 H 0.7710 0.8995 0.8280
H121_7 H 0.8771 0.8522 0.7737
H122_7 H 0.8522 0.7737 0.8771
H123_7 H 0.7737 0.8771 0.8522
C167_7 C 0.86093(18) 0.8136(2) 0.78290(18)
C168_7 C 0.8136(2) 0.78290(18) 0.86093(18)
C169_7 C 0.78290(18) 0.86093(18) 0.8136(2)
H132_7 H 0.8449 0.8212 0.7927
H133_7 H 0.8212 0.7927 0.8449
H134_7 H 0.7927 0.8449 0.8212
H143_7 H 0.8557 0.8090 0.7639
H144_7 H 0.8090 0.7639 0.8557
H145_7 H 0.7639 0.8557 0.8090
H154_7 H 0.8674 0.7969 0.7924
H155_7 H 0.7969 0.7924 0.8674
H156_7 H 0.7924 0.8674 0.7969
C170_17 C 1.0000 0.8241(7) 0.6582(7)
C171_17 C 1.0000 0.8418(7) 0.8241(7)
C172_17 C 1.0000 0.6759(7) 0.8418(7)
H157_13 H 0.9816 0.851619 0.815564
H158_17 H 1 0.844052 0.846522
H160_13 H 0.9816 0.815564 0.648381
H161_17 H 1 0.846522 0.655948
H166_13 H 0.9816 0.684436 0.851619
H167_17 H 1 0.653478 0.844052
H172_13 H 0.9816 0.648381 0.684436
H173_17 H 1 0.655948 0.653478
O17_9 O 0.29365(9) 0.26514(8) 0.52968(8)
O32_9 O 0.33028(8) 0.23855(8) 0.53308(8)
C16_9 C 0.25946(13) 0.45990(11) 0.68248(13)
C22_9 C 0.31752(13) 0.25946(13) 0.54010(11)
C23_9 C 0.45990(11) 0.31752(13) 0.74054(13)
C32_9 C 0.27833(12) 0.43799(12) 0.67121(13)
C33_9 C 0.32879(13) 0.27833(12) 0.56201(12)
C34_9 C 0.43799(12) 0.32879(13) 0.72167(12)
C43_9 C 0.30129(12) 0.42910(12) 0.68598(14)
C44_9 C 0.31402(14) 0.30129(12) 0.57090(12)
C45_9 C 0.42910(12) 0.31402(14) 0.69871(12)
H19_9 H 0.3062 0.4377 0.7029
H20_9 H 0.2971 0.3062 0.5623
H21_9 H 0.4377 0.2971 0.6938
C54_9 C 0.31685(13) 0.40755(12) 0.67562(13)
C55_9 C 0.32438(13) 0.31685(13) 0.59245(12)
C56_9 C 0.40755(12) 0.32438(13) 0.68315(13)
C65_9 C 0.31026(13) 0.39420(12) 0.65103(13)
C66_9 C 0.39420(12) 0.34897(13) 0.68974(13)
C67_9 C 0.34897(13) 0.31026(13) 0.60580(12)
C76_9 C 0.28735(13) 0.40378(13) 0.63590(14)
C77_9 C 0.40378(13) 0.36410(14) 0.71265(13)
C78_9 C 0.36410(14) 0.28735(13) 0.59622(13)
H30_9 H 0.2826 0.3954 0.6188
H31_9 H 0.3954 0.3812 0.7174
H32_9 H 0.3812 0.2826 0.6046
C87_9 C 0.27192(12) 0.42538(12) 0.64611(13)
C88_9 C 0.42538(12) 0.35389(13) 0.72808(12)
C89_9 C 0.35389(13) 0.27192(12) 0.57462(12)
H41_9 H 0.2565 0.4319 0.6358
H42_9 H 0.4319 0.3642 0.7435
H43_9 H 0.3642 0.2565 0.5681
C98_9 C 0.34277(14) 0.39583(13) 0.68853(14)
C99_9 C 0.31147(14) 0.34277(14) 0.60417(13)
C100_9 C 0.39583(13) 0.31147(14) 0.65723(14)
C109_9 C 0.33058(13) 0.37154(13) 0.64639(13)
C110_9 C 0.37154(13) 0.35361(13) 0.66942(13)
C111_9 C 0.35361(13) 0.33058(13) 0.62846(13)
C120_9 C 0.35034(13) 0.37281(13) 0.66822(13)
C121_9 C 0.33178(13) 0.35034(13) 0.62719(13)
C122_9 C 0.37281(13) 0.33178(13) 0.64966(13)
C131_9 C 0.36488(17) 0.41961(17) 0.6891(2)
C132_9 C 0.3109(2) 0.36488(17) 0.58039(17)
C133_9 C 0.41961(17) 0.3109(2) 0.63512(17)
H52_9 H 0.3814 0.4128 0.6990
H53_9 H 0.3010 0.3814 0.5872
H54_9 H 0.4128 0.3010 0.6186
H63_9 H 0.3573 0.4353 0.6999
H64_9 H 0.3001 0.3573 0.5647
H65_9 H 0.4353 0.3001 0.6427
C142_9 C 0.3742(2) 0.4307(2) 0.6604(2)
C143_9 C 0.3396(2) 0.3742(2) 0.5693(2)
C144_9 C 0.4307(2) 0.3396(2) 0.6258(2)
H74_9 H 0.3587 0.4403 0.6516
H75_9 H 0.3484 0.3587 0.5597
H76_9 H 0.4403 0.3484 0.6413
H85_9 H 0.3896 0.4436 0.6629
H86_9 H 0.3371 0.3896 0.5564
H87_9 H 0.4436 0.3371 0.6104
H96_9 H 0.3801 0.4152 0.6488
H97_9 H 0.3512 0.3801 0.5848
H98_9 H 0.4152 0.3512 0.6199
C153_9 C 0.33514(16) 0.38413(18) 0.71744(15)
C154_9 C 0.28256(15) 0.33514(16) 0.61587(18)
C155_9 C 0.38413(18) 0.28256(15) 0.66486(16)
H107_9 H 0.3280 0.3995 0.7290
H108_9 H 0.2710 0.3280 0.6005
H109_9 H 0.3995 0.2710 0.6720
H118_9 H 0.3522 0.3771 0.7263
H119_9 H 0.2737 0.3522 0.6229
H120_9 H 0.3771 0.2737 0.6478
C164_9 C 0.3136(2) 0.36093(18) 0.71710(18)
C165_9 C 0.28290(18) 0.3136(2) 0.63907(18)
C166_9 C 0.36093(18) 0.28290(18) 0.6864(2)
H129_9 H 0.3212 0.3449 0.7073
H130_9 H 0.2927 0.3212 0.6551
H131_9 H 0.3449 0.2927 0.6788
H140_9 H 0.3090 0.3557 0.7361
H141_9 H 0.2639 0.3090 0.6443
H142_9 H 0.3557 0.2639 0.6910
H151_9 H 0.2969 0.3674 0.7076
H152_9 H 0.2924 0.2969 0.6326
H153_9 H 0.3674 0.2924 0.7031
O16_8 O 0.26514(8) 0.52968(8) 0.29365(9)
O31_8 O 0.23855(8) 0.53308(8) 0.33028(8)
C19_8 C 0.31752(13) 0.74054(13) 0.45990(11)
C20_8 C 0.45990(11) 0.68248(13) 0.25946(13)
C21_8 C 0.25946(13) 0.54010(11) 0.31752(13)
C29_8 C 0.32879(13) 0.72167(12) 0.43799(12)
C30_8 C 0.43799(12) 0.67121(13) 0.27833(12)
C31_8 C 0.27833(12) 0.56201(12) 0.32879(13)
C40_8 C 0.31402(14) 0.69871(12) 0.42910(12)
C41_8 C 0.42910(12) 0.68598(14) 0.30129(12)
C42_8 C 0.30129(12) 0.57090(12) 0.31402(14)
H16_8 H 0.2971 0.6938 0.4377
H17_8 H 0.4377 0.7029 0.3062
H18_8 H 0.3062 0.5623 0.2971
C51_8 C 0.32438(13) 0.68315(13) 0.40755(12)
C52_8 C 0.40755(12) 0.67562(13) 0.31685(13)
C53_8 C 0.31685(13) 0.59245(12) 0.32438(13)
C62_8 C 0.34897(13) 0.68974(13) 0.39420(12)
C63_8 C 0.31026(13) 0.60580(12) 0.34897(13)
C64_8 C 0.39420(12) 0.65103(13) 0.31026(13)
C73_8 C 0.36410(14) 0.71265(13) 0.40378(13)
C74_8 C 0.28735(13) 0.59622(13) 0.36410(14)
C75_8 C 0.40378(13) 0.63590(14) 0.28735(13)
H27_8 H 0.3812 0.7174 0.3954
H28_8 H 0.2826 0.6046 0.3812
H29_8 H 0.3954 0.6188 0.2826
C84_8 C 0.35389(13) 0.72808(12) 0.42538(12)
C85_8 C 0.27192(12) 0.57462(12) 0.35389(13)
C86_8 C 0.42538(12) 0.64611(13) 0.27192(12)
H38_8 H 0.3642 0.7435 0.4319
H39_8 H 0.2565 0.5681 0.3642
H40_8 H 0.4319 0.6358 0.2565
C95_8 C 0.31147(14) 0.65723(14) 0.39583(13)
C96_8 C 0.39583(13) 0.68853(14) 0.34277(14)
C97_8 C 0.34277(14) 0.60417(13) 0.31147(14)
C106_8 C 0.35361(13) 0.66942(13) 0.37154(13)
C107_8 C 0.33058(13) 0.62846(13) 0.35361(13)
C108_8 C 0.37154(13) 0.64639(13) 0.33058(13)
C117_8 C 0.33178(13) 0.64966(13) 0.37281(13)
C118_8 C 0.37281(13) 0.66822(13) 0.35034(13)
C119_8 C 0.35034(13) 0.62719(13) 0.33178(13)
C128_8 C 0.3109(2) 0.63512(17) 0.41961(17)
C129_8 C 0.41961(17) 0.6891(2) 0.36488(17)
C130_8 C 0.36488(17) 0.58039(17) 0.3109(2)
H49_8 H 0.3010 0.6186 0.4128
H50_8 H 0.4128 0.6990 0.3814
H51_8 H 0.3814 0.5872 0.3010
H60_8 H 0.3001 0.6427 0.4353
H61_8 H 0.4353 0.6999 0.3573
H62_8 H 0.3573 0.5647 0.3001
C139_8 C 0.3396(2) 0.6258(2) 0.4307(2)
C140_8 C 0.4307(2) 0.6604(2) 0.3742(2)
C141_8 C 0.3742(2) 0.5693(2) 0.3396(2)
H71_8 H 0.3484 0.6413 0.4403
H72_8 H 0.4403 0.6516 0.3587
H73_8 H 0.3587 0.5597 0.3484
H82_8 H 0.3371 0.6104 0.4436
H83_8 H 0.4436 0.6629 0.3896
H84_8 H 0.3896 0.5564 0.3371
H93_8 H 0.3512 0.6199 0.4152
H94_8 H 0.4152 0.6488 0.3801
H95_8 H 0.3801 0.5848 0.3512
C150_8 C 0.28256(15) 0.66486(16) 0.38413(18)
C151_8 C 0.38413(18) 0.71744(15) 0.33514(16)
C152_8 C 0.33514(16) 0.61587(18) 0.28256(15)
H104_8 H 0.2710 0.6720 0.3995
H105_8 H 0.3995 0.7290 0.3280
H106_8 H 0.3280 0.6005 0.2710
H115_8 H 0.2737 0.6478 0.3771
H116_8 H 0.3771 0.7263 0.3522
H117_8 H 0.3522 0.6229 0.2737
C161_8 C 0.28290(18) 0.6864(2) 0.36093(18)
C162_8 C 0.36093(18) 0.71710(18) 0.3136(2)
C163_8 C 0.3136(2) 0.63907(18) 0.28290(18)
H126_8 H 0.2927 0.6788 0.3449
H127_8 H 0.3449 0.7073 0.3212
H128_8 H 0.3212 0.6551 0.2927
H137_8 H 0.2639 0.6910 0.3557
H138_8 H 0.3557 0.7361 0.3090
H139_8 H 0.3090 0.6443 0.2639
H148_8 H 0.2924 0.7031 0.3674
H149_8 H 0.3674 0.7076 0.2969
H150_8 H 0.2969 0.6326 0.2924
Cd5_5 Cd 0.723449(12) 0.201490(12) 0.0000
O2_6 O 0.73486(8) 0.02968(8) 0.79365(9)
O4_18 O 0.7500 0.0000 0.7500
O5_18 O 0.68103(19) 0.0000 0.81852(17)
C1_6 C 0.74054(13) 0.04010(11) 0.81752(13)
C2_6 C 0.72167(12) 0.06201(12) 0.82879(13)
C3_6 C 0.69871(12) 0.07090(12) 0.81402(14)
H1_6 H 0.6938 0.0623 0.7971
C4_6 C 0.68315(13) 0.09245(12) 0.82438(13)
C5_6 C 0.68974(13) 0.10580(12) 0.84897(13)
C6_6 C 0.71265(13) 0.09622(13) 0.86410(14)
H2_6 H 0.7174 0.1046 0.8812
C7_6 C 0.72808(12) 0.07462(12) 0.85389(13)
H3_6 H 0.7435 0.0681 0.8642
C8_6 C 0.65723(14) 0.10417(13) 0.81147(14)
C9_6 C 0.66942(13) 0.12846(13) 0.85361(13)
C10_6 C 0.64966(13) 0.12719(13) 0.83178(13)
C11_6 C 0.63512(17) 0.08039(17) 0.8109(2)
H4_6 H 0.6186 0.0872 0.8010
H5_6 H 0.6427 0.0647 0.8001
C12_6 C 0.6258(2) 0.0693(2) 0.8396(2)
H6_6 H 0.6413 0.0597 0.8484
H7_6 H 0.6104 0.0564 0.8371
H8_6 H 0.6199 0.0848 0.8512
C13_6 C 0.66486(16) 0.11587(18) 0.78256(15)
H9_6 H 0.6720 0.1005 0.7710
H10_6 H 0.6478 0.1229 0.7737
C14_6 C 0.6864(2) 0.13907(18) 0.78290(18)
H11_6 H 0.6788 0.1551 0.7927
H12_6 H 0.6910 0.1443 0.7639
H13_6 H 0.7031 0.1326 0.7924
C15_18 C 0.6582(7) 0.0000 0.8241(7)
Cd5_6 Cd 0.723449(12) 0.201490(12) 1.0000
O6_14 O 0.70635(9) 0.02968(8) 0.73486(8)
O9_5 O 0.70635(9) 0.23486(8) 0.97032(8)
O11_14 O 0.79365(9) 0.02968(8) 0.76514(8)
O14_14 O 0.76514(8) 0.02968(8) 0.70635(9)
O21_14 O 0.66972(8) 0.03308(8) 0.76145(8)
O22_6 O 0.76145(8) 0.03308(8) 0.83028(8)
O23_5 O 0.66972(8) 0.26145(8) 0.96692(8)
O27_14 O 0.73855(8) 0.03308(8) 0.66972(8)
O28_14 O 0.83028(8) 0.03308(8) 0.73855(8)
O36_18 O 0.81852(17) 0.0000 0.81897(19)
O37_18 O 0.68148(17) 0.0000 0.68103(19)
O38_18 O 0.81897(19) 0.0000 0.68148(17)
C17_6 C 0.68248(13) 0.24054(13) 0.95990(11)
C18_6 C 0.54010(11) 0.18248(13) 0.75946(13)
C27_6 C 0.67121(13) 0.22167(12) 0.93799(12)
C28_6 C 0.56201(12) 0.17121(13) 0.77833(12)
C38_6 C 0.68598(14) 0.19871(12) 0.92910(12)
C39_6 C 0.57090(12) 0.18598(14) 0.80129(12)
H14_6 H 0.7029 0.1938 0.9377
H15_6 H 0.5623 0.2029 0.8062
C49_6 C 0.67562(13) 0.18315(13) 0.90755(12)
C50_6 C 0.59245(12) 0.17562(13) 0.81685(13)
C60_6 C 0.60580(12) 0.15103(13) 0.81026(13)
C61_6 C 0.65103(13) 0.18974(13) 0.89420(12)
C71_6 C 0.59622(13) 0.13590(14) 0.78735(13)
C72_6 C 0.63590(14) 0.21265(13) 0.90378(13)
H25_6 H 0.6046 0.1188 0.7826
H26_6 H 0.6188 0.2174 0.8954
C82_6 C 0.57462(12) 0.14611(13) 0.77192(12)
C83_6 C 0.64611(13) 0.22808(12) 0.92538(12)
H36_6 H 0.5681 0.1358 0.7565
H37_6 H 0.6358 0.2435 0.9319
C93_6 C 0.68853(14) 0.15723(14) 0.89583(13)
C94_6 C 0.60417(13) 0.18853(14) 0.84277(14)
C104_6 C 0.62846(13) 0.14639(13) 0.83058(13)
C105_6 C 0.64639(13) 0.16942(13) 0.87154(13)
C115_6 C 0.66822(13) 0.14966(13) 0.87281(13)
C116_6 C 0.62719(13) 0.16822(13) 0.85034(13)
C126_6 C 0.6891(2) 0.13512(17) 0.91961(17)
C127_6 C 0.58039(17) 0.1891(2) 0.86488(17)
H47_6 H 0.6990 0.1186 0.9128
H48_6 H 0.5872 0.1990 0.8814
H58_6 H 0.6999 0.1427 0.9353
H59_6 H 0.5647 0.1999 0.8573
C137_6 C 0.6604(2) 0.1258(2) 0.9307(2)
C138_6 C 0.5693(2) 0.1604(2) 0.8742(2)
H69_6 H 0.6516 0.1413 0.9403
H70_6 H 0.5597 0.1516 0.8587
H80_6 H 0.6629 0.1104 0.9436
H81_6 H 0.5564 0.1629 0.8896
H91_6 H 0.6488 0.1199 0.9152
H92_6 H 0.5848 0.1488 0.8801
C148_6 C 0.71744(15) 0.16486(16) 0.88413(18)
C149_6 C 0.61587(18) 0.21744(15) 0.83514(16)
H102_6 H 0.7290 0.1720 0.8995
H103_6 H 0.6005 0.2290 0.8280
H113_6 H 0.7263 0.1478 0.8771
H114_6 H 0.6229 0.2263 0.8522
C159_6 C 0.71710(18) 0.1864(2) 0.86093(18)
C160_6 C 0.63907(18) 0.21710(18) 0.8136(2)
H124_6 H 0.7073 0.1788 0.8449
H125_6 H 0.6551 0.2073 0.8212
H135_6 H 0.7361 0.1910 0.8557
H136_6 H 0.6443 0.2361 0.8090
H146_6 H 0.7076 0.2031 0.8674
H147_6 H 0.6326 0.2076 0.7969
C170_18 C 0.8241(7) 0.0000 0.8418(7)
C171_18 C 0.8418(7) 0.0000 0.6759(7)
C172_18 C 0.6759(7) 0.0000 0.6582(7)
H158_18 H 0.844052 -2.6019e-18 0.653478
H159_14 H 0.851619 0.0183997 0.684436
H161_18 H 0.846522 -2.6019e-18 0.844052
H162_14 H 0.815564 0.0183997 0.851619
H167_18 H 0.653478 -2.6019e-18 0.655948
H168_14 H 0.684436 0.0183997 0.648381
H173_18 H 0.655948 -2.6019e-18 0.846522
H174_14 H 0.648381 0.0183997 0.815564
O4_19 O 0.7500 1.0000 0.7500
O5_19 O 0.68103(19) 1.0000 0.81852(17)
C15_19 C 0.6582(7) 1.0000 0.8241(7)
O36_19 O 0.81852(17) 1.0000 0.81897(19)
O37_19 O 0.68148(17) 1.0000 0.68103(19)
O38_19 O 0.81897(19) 1.0000 0.68148(17)
C170_19 C 0.8241(7) 1.0000 0.8418(7)
C171_19 C 0.8418(7) 1.0000 0.6759(7)
C172_19 C 0.6759(7) 1.0000 0.6582(7)
H157_14 H 0.851619 0.9816 0.684436
H158_19 H 0.844052 1 0.653478
H160_14 H 0.815564 0.9816 0.851619
H161_19 H 0.846522 1 0.844052
H166_14 H 0.684436 0.9816 0.648381
H167_19 H 0.653478 1 0.655948
H172_14 H 0.648381 0.9816 0.815564
H173_19 H 0.655948 1 0.846522
O4_20 O 0.7500 0.0000 0.2500
O5_20 O 0.68103(19) 0.0000 0.18148(17)
C15_20 C 0.6582(7) 0.0000 0.1759(7)
Cd2_5 Cd 0.776551(12) 0.0000 0.201490(12)
O7_13 O 0.73486(8) 0.02968(8) 0.20635(9)
O12_8 O 0.79365(9) 0.02968(8) 0.23486(8)
O16_9 O 0.76514(8) 0.20635(9) 0.02968(8)
O25_13 O 0.76145(8) 0.03308(8) 0.16972(8)
O29_8 O 0.83028(8) 0.03308(8) 0.26145(8)
O31_9 O 0.73855(8) 0.16972(8) 0.03308(8)
O36_20 O 0.81852(17) -0.0000 0.18103(19)
O37_20 O 0.68148(17) 0.0000 0.31897(19)
O38_20 O 0.81897(19) -0.0000 0.31852(17)
C19_9 C 0.81752(13) 0.04010(11) 0.24054(13)
C20_9 C 0.95990(11) 0.24054(13) 0.18248(13)
C21_9 C 0.75946(13) 0.18248(13) 0.04010(11)
C29_9 C 0.82879(13) 0.06201(12) 0.22167(12)
C30_9 C 0.93799(12) 0.22167(12) 0.17121(13)
C31_9 C 0.77833(12) 0.17121(13) 0.06201(12)
C40_9 C 0.81402(14) 0.07090(12) 0.19871(12)
C41_9 C 0.92910(12) 0.19871(12) 0.18598(14)
C42_9 C 0.80129(12) 0.18598(14) 0.07090(12)
H16_9 H 0.7971 0.0623 0.1938
H17_9 H 0.9377 0.1938 0.2029
H18_9 H 0.8062 0.2029 0.0623
C51_9 C 0.82438(13) 0.09245(12) 0.18315(13)
C52_9 C 0.90755(12) 0.18315(13) 0.17562(13)
C53_9 C 0.81685(13) 0.17562(13) 0.09245(12)
C62_9 C 0.84897(13) 0.10580(12) 0.18974(13)
C63_9 C 0.81026(13) 0.15103(13) 0.10580(12)
C64_9 C 0.89420(12) 0.18974(13) 0.15103(13)
C73_9 C 0.86410(14) 0.09622(13) 0.21265(13)
C74_9 C 0.78735(13) 0.13590(14) 0.09622(13)
C75_9 C 0.90378(13) 0.21265(13) 0.13590(14)
H27_9 H 0.8812 0.1046 0.2174
H28_9 H 0.7826 0.1188 0.1046
H29_9 H 0.8954 0.2174 0.1188
C84_9 C 0.85389(13) 0.07462(12) 0.22808(12)
C85_9 C 0.77192(12) 0.14611(13) 0.07462(12)
C86_9 C 0.92538(12) 0.22808(12) 0.14611(13)
H38_9 H 0.8642 0.0681 0.2435
H39_9 H 0.7565 0.1358 0.0681
H40_9 H 0.9319 0.2435 0.1358
C95_9 C 0.81147(14) 0.10417(13) 0.15723(14)
C96_9 C 0.89583(13) 0.15723(14) 0.18853(14)
C97_9 C 0.84277(14) 0.18853(14) 0.10417(13)
C106_9 C 0.85361(13) 0.12846(13) 0.16942(13)
C107_9 C 0.83058(13) 0.14639(13) 0.12846(13)
C108_9 C 0.87154(13) 0.16942(13) 0.14639(13)
C117_9 C 0.83178(13) 0.12719(13) 0.14966(13)
C118_9 C 0.87281(13) 0.14966(13) 0.16822(13)
C119_9 C 0.85034(13) 0.16822(13) 0.12719(13)
C128_9 C 0.8109(2) 0.08039(17) 0.13512(17)
C129_9 C 0.91961(17) 0.13512(17) 0.1891(2)
C130_9 C 0.86488(17) 0.1891(2) 0.08039(17)
H49_9 H 0.8010 0.0872 0.1186
H50_9 H 0.9128 0.1186 0.1990
H51_9 H 0.8814 0.1990 0.0872
H60_9 H 0.8001 0.0647 0.1427
H61_9 H 0.9353 0.1427 0.1999
H62_9 H 0.8573 0.1999 0.0647
C139_9 C 0.8396(2) 0.0693(2) 0.1258(2)
C140_9 C 0.9307(2) 0.1258(2) 0.1604(2)
C141_9 C 0.8742(2) 0.1604(2) 0.0693(2)
H71_9 H 0.8484 0.0597 0.1413
H72_9 H 0.9403 0.1413 0.1516
H73_9 H 0.8587 0.1516 0.0597
H82_9 H 0.8371 0.0564 0.1104
H83_9 H 0.9436 0.1104 0.1629
H84_9 H 0.8896 0.1629 0.0564
H93_9 H 0.8512 0.0848 0.1199
H94_9 H 0.9152 0.1199 0.1488
H95_9 H 0.8801 0.1488 0.0848
C150_9 C 0.78256(15) 0.11587(18) 0.16486(16)
C151_9 C 0.88413(18) 0.16486(16) 0.21744(15)
C152_9 C 0.83514(16) 0.21744(15) 0.11587(18)
H104_9 H 0.7710 0.1005 0.1720
H105_9 H 0.8995 0.1720 0.2290
H106_9 H 0.8280 0.2290 0.1005
H115_9 H 0.7737 0.1229 0.1478
H116_9 H 0.8771 0.1478 0.2263
H117_9 H 0.8522 0.2263 0.1229
C161_9 C 0.78290(18) 0.13907(18) 0.1864(2)
C162_9 C 0.86093(18) 0.1864(2) 0.21710(18)
C163_9 C 0.8136(2) 0.21710(18) 0.13907(18)
H126_9 H 0.7927 0.1551 0.1788
H127_9 H 0.8449 0.1788 0.2073
H128_9 H 0.8212 0.2073 0.1551
H137_9 H 0.7639 0.1443 0.1910
H138_9 H 0.8557 0.1910 0.2361
H139_9 H 0.8090 0.2361 0.1443
H148_9 H 0.7924 0.1326 0.2031
H149_9 H 0.8674 0.2031 0.2076
H150_9 H 0.7969 0.2076 0.1326
C170_20 C 0.8241(7) 0.0000 0.1582(7)
C171_20 C 0.8418(7) -0.0000 0.3241(7)
C172_20 C 0.6759(7) 0.0000 0.3418(7)
H157_15 H 0.851619 0.0183997 0.315564
H158_20 H 0.844052 2.6019e-18 0.346522
H160_15 H 0.815564 0.0183997 0.148381
H161_20 H 0.846522 2.6019e-18 0.155948
H166_15 H 0.684436 0.0183997 0.351619
H167_20 H 0.653478 2.6019e-18 0.344052
H172_15 H 0.648381 0.0183997 0.184436
H173_20 H 0.655948 2.6019e-18 0.153478
O2_7 O 0.73486(8) 0.97032(8) 0.20635(9)
O4_21 O 0.7500 1.0000 0.2500
O5_21 O 0.68103(19) 1.0000 0.18148(17)
C1_7 C 0.74054(13) 0.95990(11) 0.18248(13)
C2_7 C 0.72167(12) 0.93799(12) 0.17121(13)
C3_7 C 0.69871(12) 0.92910(12) 0.18598(14)
H1_7 H 0.6938 0.9377 0.2029
C4_7 C 0.68315(13) 0.90755(12) 0.17562(13)
C5_7 C 0.68974(13) 0.89420(12) 0.15103(13)
C6_7 C 0.71265(13) 0.90378(13) 0.13590(14)
H2_7 H 0.7174 0.8954 0.1188
C7_7 C 0.72808(12) 0.92538(12) 0.14611(13)
H3_7 H 0.7435 0.9319 0.1358
C8_7 C 0.65723(14) 0.89583(13) 0.18853(14)
C9_7 C 0.66942(13) 0.87154(13) 0.14639(13)
C10_7 C 0.64966(13) 0.87281(13) 0.16822(13)
C11_7 C 0.63512(17) 0.91961(17) 0.1891(2)
H4_7 H 0.6186 0.9128 0.1990
H5_7 H 0.6427 0.9353 0.1999
C12_7 C 0.6258(2) 0.9307(2) 0.1604(2)
H6_7 H 0.6413 0.9403 0.1516
H7_7 H 0.6104 0.9436 0.1629
H8_7 H 0.6199 0.9152 0.1488
C13_7 C 0.66486(16) 0.88413(18) 0.21744(15)
H9_7 H 0.6720 0.8995 0.2290
H10_7 H 0.6478 0.8771 0.2263
C14_7 C 0.6864(2) 0.86093(18) 0.21710(18)
H11_7 H 0.6788 0.8449 0.2073
H12_7 H 0.6910 0.8557 0.2361
H13_7 H 0.7031 0.8674 0.2076
C15_21 C 0.6582(7) 1.0000 0.1759(7)
Cd2_6 Cd 0.776551(12) 1.0000 0.201490(12)
O6_15 O 0.70635(9) 0.97032(8) 0.26514(8)
O9_6 O 0.70635(9) 0.76514(8) 0.02968(8)
O11_15 O 0.79365(9) 0.97032(8) 0.23486(8)
O14_15 O 0.76514(8) 0.97032(8) 0.29365(9)
O21_15 O 0.66972(8) 0.96692(8) 0.23855(8)
O22_7 O 0.76145(8) 0.96692(8) 0.16972(8)
O23_6 O 0.66972(8) 0.73855(8) 0.03308(8)
O27_15 O 0.73855(8) 0.96692(8) 0.33028(8)
O28_15 O 0.83028(8) 0.96692(8) 0.26145(8)
O36_21 O 0.81852(17) 1.0000 0.18103(19)
O37_21 O 0.68148(17) 1.0000 0.31897(19)
O38_21 O 0.81897(19) 1.0000 0.31852(17)
C17_7 C 0.68248(13) 0.75946(13) 0.04010(11)
C18_7 C 0.54010(11) 0.81752(13) 0.24054(13)
C27_7 C 0.67121(13) 0.77833(12) 0.06201(12)
C28_7 C 0.56201(12) 0.82879(13) 0.22167(12)
C38_7 C 0.68598(14) 0.80129(12) 0.07090(12)
C39_7 C 0.57090(12) 0.81402(14) 0.19871(12)
H14_7 H 0.7029 0.8062 0.0623
H15_7 H 0.5623 0.7971 0.1938
C49_7 C 0.67562(13) 0.81685(13) 0.09245(12)
C50_7 C 0.59245(12) 0.82438(13) 0.18315(13)
C60_7 C 0.60580(12) 0.84897(13) 0.18974(13)
C61_7 C 0.65103(13) 0.81026(13) 0.10580(12)
C71_7 C 0.59622(13) 0.86410(14) 0.21265(13)
C72_7 C 0.63590(14) 0.78735(13) 0.09622(13)
H25_7 H 0.6046 0.8812 0.2174
H26_7 H 0.6188 0.7826 0.1046
C82_7 C 0.57462(12) 0.85389(13) 0.22808(12)
C83_7 C 0.64611(13) 0.77192(12) 0.07462(12)
H36_7 H 0.5681 0.8642 0.2435
H37_7 H 0.6358 0.7565 0.0681
C93_7 C 0.68853(14) 0.84277(14) 0.10417(13)
C94_7 C 0.60417(13) 0.81147(14) 0.15723(14)
C104_7 C 0.62846(13) 0.85361(13) 0.16942(13)
C105_7 C 0.64639(13) 0.83058(13) 0.12846(13)
C115_7 C 0.66822(13) 0.85034(13) 0.12719(13)
C116_7 C 0.62719(13) 0.83178(13) 0.14966(13)
C126_7 C 0.6891(2) 0.86488(17) 0.08039(17)
C127_7 C 0.58039(17) 0.8109(2) 0.13512(17)
H47_7 H 0.6990 0.8814 0.0872
H48_7 H 0.5872 0.8010 0.1186
H58_7 H 0.6999 0.8573 0.0647
H59_7 H 0.5647 0.8001 0.1427
C137_7 C 0.6604(2) 0.8742(2) 0.0693(2)
C138_7 C 0.5693(2) 0.8396(2) 0.1258(2)
H69_7 H 0.6516 0.8587 0.0597
H70_7 H 0.5597 0.8484 0.1413
H80_7 H 0.6629 0.8896 0.0564
H81_7 H 0.5564 0.8371 0.1104
H91_7 H 0.6488 0.8801 0.0848
H92_7 H 0.5848 0.8512 0.1199
C148_7 C 0.71744(15) 0.83514(16) 0.11587(18)
C149_7 C 0.61587(18) 0.78256(15) 0.16486(16)
H102_7 H 0.7290 0.8280 0.1005
H103_7 H 0.6005 0.7710 0.1720
H113_7 H 0.7263 0.8522 0.1229
H114_7 H 0.6229 0.7737 0.1478
C159_7 C 0.71710(18) 0.8136(2) 0.13907(18)
C160_7 C 0.63907(18) 0.78290(18) 0.1864(2)
H124_7 H 0.7073 0.8212 0.1551
H125_7 H 0.6551 0.7927 0.1788
H135_7 H 0.7361 0.8090 0.1443
H136_7 H 0.6443 0.7639 0.1910
H146_7 H 0.7076 0.7969 0.1326
H147_7 H 0.6326 0.7924 0.2031
C170_21 C 0.8241(7) 1.0000 0.1582(7)
C171_21 C 0.8418(7) 1.0000 0.3241(7)
C172_21 C 0.6759(7) 1.0000 0.3418(7)
H158_21 H 0.844052 1 0.346522
H159_15 H 0.851619 0.9816 0.315564
H161_21 H 0.846522 1 0.155948
H162_15 H 0.815564 0.9816 0.148381
H167_21 H 0.653478 1 0.344052
H168_15 H 0.684436 0.9816 0.351619
H173_21 H 0.655948 1 0.153478
H174_15 H 0.648381 0.9816 0.184436
C1_8 C 0.25946(13) 0.04010(11) 0.18248(13)
C2_8 C 0.27833(12) 0.06201(12) 0.17121(13)
C3_8 C 0.30129(12) 0.07090(12) 0.18598(14)
H1_8 H 0.3062 0.0623 0.2029
C4_8 C 0.31685(13) 0.09245(12) 0.17562(13)
C5_8 C 0.31026(13) 0.10580(12) 0.15103(13)
C6_8 C 0.28735(13) 0.09622(13) 0.13590(14)
H2_8 H 0.2826 0.1046 0.1188
C7_8 C 0.27192(12) 0.07462(12) 0.14611(13)
H3_8 H 0.2565 0.0681 0.1358
C8_8 C 0.34277(14) 0.10417(13) 0.18853(14)
C9_8 C 0.33058(13) 0.12846(13) 0.14639(13)
C10_8 C 0.35034(13) 0.12719(13) 0.16822(13)
C11_8 C 0.36488(17) 0.08039(17) 0.1891(2)
H4_8 H 0.3814 0.0872 0.1990
H5_8 H 0.3573 0.0647 0.1999
C12_8 C 0.3742(2) 0.0693(2) 0.1604(2)
H6_8 H 0.3587 0.0597 0.1516
H7_8 H 0.3896 0.0564 0.1629
H8_8 H 0.3801 0.0848 0.1488
C13_8 C 0.33514(16) 0.11587(18) 0.21744(15)
H9_8 H 0.3280 0.1005 0.2290
H10_8 H 0.3522 0.1229 0.2263
C14_8 C 0.3136(2) 0.13907(18) 0.21710(18)
H11_8 H 0.3212 0.1551 0.2073
H12_8 H 0.3090 0.1443 0.2361
H13_8 H 0.2969 0.1326 0.2076
O10_5 O 0.47032(8) 0.20635(9) 0.23486(8)
O24_5 O 0.46692(8) 0.16972(8) 0.26145(8)
C17_8 C 0.31752(13) 0.24054(13) 0.04010(11)
C18_8 C 0.45990(11) 0.18248(13) 0.24054(13)
C27_8 C 0.32879(13) 0.22167(12) 0.06201(12)
C28_8 C 0.43799(12) 0.17121(13) 0.22167(12)
C38_8 C 0.31402(14) 0.19871(12) 0.07090(12)
C39_8 C 0.42910(12) 0.18598(14) 0.19871(12)
H14_8 H 0.2971 0.1938 0.0623
H15_8 H 0.4377 0.2029 0.1938
C49_8 C 0.32438(13) 0.18315(13) 0.09245(12)
C50_8 C 0.40755(12) 0.17562(13) 0.18315(13)
C60_8 C 0.39420(12) 0.15103(13) 0.18974(13)
C61_8 C 0.34897(13) 0.18974(13) 0.10580(12)
C71_8 C 0.40378(13) 0.13590(14) 0.21265(13)
C72_8 C 0.36410(14) 0.21265(13) 0.09622(13)
H25_8 H 0.3954 0.1188 0.2174
H26_8 H 0.3812 0.2174 0.1046
C82_8 C 0.42538(12) 0.14611(13) 0.22808(12)
C83_8 C 0.35389(13) 0.22808(12) 0.07462(12)
H36_8 H 0.4319 0.1358 0.2435
H37_8 H 0.3642 0.2435 0.0681
C93_8 C 0.31147(14) 0.15723(14) 0.10417(13)
C94_8 C 0.39583(13) 0.18853(14) 0.15723(14)
C104_8 C 0.37154(13) 0.14639(13) 0.16942(13)
C105_8 C 0.35361(13) 0.16942(13) 0.12846(13)
C115_8 C 0.33178(13) 0.14966(13) 0.12719(13)
C116_8 C 0.37281(13) 0.16822(13) 0.14966(13)
C126_8 C 0.3109(2) 0.13512(17) 0.08039(17)
C127_8 C 0.41961(17) 0.1891(2) 0.13512(17)
H47_8 H 0.3010 0.1186 0.0872
H48_8 H 0.4128 0.1990 0.1186
H58_8 H 0.3001 0.1427 0.0647
H59_8 H 0.4353 0.1999 0.1427
C137_8 C 0.3396(2) 0.1258(2) 0.0693(2)
C138_8 C 0.4307(2) 0.1604(2) 0.1258(2)
H69_8 H 0.3484 0.1413 0.0597
H70_8 H 0.4403 0.1516 0.1413
H80_8 H 0.3371 0.1104 0.0564
H81_8 H 0.4436 0.1629 0.1104
H91_8 H 0.3512 0.1199 0.0848
H92_8 H 0.4152 0.1488 0.1199
C148_8 C 0.28256(15) 0.16486(16) 0.11587(18)
C149_8 C 0.38413(18) 0.21744(15) 0.16486(16)
H102_8 H 0.2710 0.1720 0.1005
H103_8 H 0.3995 0.2290 0.1720
H113_8 H 0.2737 0.1478 0.1229
H114_8 H 0.3771 0.2263 0.1478
C159_8 C 0.28290(18) 0.1864(2) 0.13907(18)
C160_8 C 0.36093(18) 0.21710(18) 0.1864(2)
H124_8 H 0.2927 0.1788 0.1551
H125_8 H 0.3449 0.2073 0.1788
H135_8 H 0.2639 0.1910 0.1443
H136_8 H 0.3557 0.2361 0.1910
H146_8 H 0.2924 0.2031 0.1326
H147_8 H 0.3674 0.2076 0.2031
Cd10_12 Cd -0.0000 0.723449(12) 0.201490(12)
Cd11_11 Cd 0.201490(12) 0.776551(12) 0.0000
O15_8 O 0.02968(8) 0.76514(8) 0.20635(9)
O16_10 O 0.23486(8) 0.79365(9) 0.02968(8)
O30_8 O 0.03308(8) 0.73855(8) 0.16972(8)
O31_10 O 0.26145(8) 0.83028(8) 0.03308(8)
C19_10 C 0.18248(13) 0.95990(11) 0.24054(13)
C20_10 C 0.04010(11) 0.75946(13) 0.18248(13)
C21_10 C 0.24054(13) 0.81752(13) 0.04010(11)
C29_10 C 0.17121(13) 0.93799(12) 0.22167(12)
C30_10 C 0.06201(12) 0.77833(12) 0.17121(13)
C31_10 C 0.22167(12) 0.82879(13) 0.06201(12)
C40_10 C 0.18598(14) 0.92910(12) 0.19871(12)
C41_10 C 0.07090(12) 0.80129(12) 0.18598(14)
C42_10 C 0.19871(12) 0.81402(14) 0.07090(12)
H16_10 H 0.2029 0.9377 0.1938
H17_10 H 0.0623 0.8062 0.2029
H18_10 H 0.1938 0.7971 0.0623
C51_10 C 0.17562(13) 0.90755(12) 0.18315(13)
C52_10 C 0.09245(12) 0.81685(13) 0.17562(13)
C53_10 C 0.18315(13) 0.82438(13) 0.09245(12)
C62_10 C 0.15103(13) 0.89420(12) 0.18974(13)
C63_10 C 0.18974(13) 0.84897(13) 0.10580(12)
C64_10 C 0.10580(12) 0.81026(13) 0.15103(13)
C73_10 C 0.13590(14) 0.90378(13) 0.21265(13)
C74_10 C 0.21265(13) 0.86410(14) 0.09622(13)
C75_10 C 0.09622(13) 0.78735(13) 0.13590(14)
H27_10 H 0.1188 0.8954 0.2174
H28_10 H 0.2174 0.8812 0.1046
H29_10 H 0.1046 0.7826 0.1188
C84_10 C 0.14611(13) 0.92538(12) 0.22808(12)
C85_10 C 0.22808(12) 0.85389(13) 0.07462(12)
C86_10 C 0.07462(12) 0.77192(12) 0.14611(13)
H38_10 H 0.1358 0.9319 0.2435
H39_10 H 0.2435 0.8642 0.0681
H40_10 H 0.0681 0.7565 0.1358
C95_10 C 0.18853(14) 0.89583(13) 0.15723(14)
C96_10 C 0.10417(13) 0.84277(14) 0.18853(14)
C97_10 C 0.15723(14) 0.81147(14) 0.10417(13)
C106_10 C 0.14639(13) 0.87154(13) 0.16942(13)
C107_10 C 0.16942(13) 0.85361(13) 0.12846(13)
C108_10 C 0.12846(13) 0.83058(13) 0.14639(13)
C117_10 C 0.16822(13) 0.87281(13) 0.14966(13)
C118_10 C 0.12719(13) 0.85034(13) 0.16822(13)
C119_10 C 0.14966(13) 0.83178(13) 0.12719(13)
C128_10 C 0.1891(2) 0.91961(17) 0.13512(17)
C129_10 C 0.08039(17) 0.86488(17) 0.1891(2)
C130_10 C 0.13512(17) 0.8109(2) 0.08039(17)
H49_10 H 0.1990 0.9128 0.1186
H50_10 H 0.0872 0.8814 0.1990
H51_10 H 0.1186 0.8010 0.0872
H60_10 H 0.1999 0.9353 0.1427
H61_10 H 0.0647 0.8573 0.1999
H62_10 H 0.1427 0.8001 0.0647
C139_10 C 0.1604(2) 0.9307(2) 0.1258(2)
C140_10 C 0.0693(2) 0.8742(2) 0.1604(2)
C141_10 C 0.1258(2) 0.8396(2) 0.0693(2)
H71_10 H 0.1516 0.9403 0.1413
H72_10 H 0.0597 0.8587 0.1516
H73_10 H 0.1413 0.8484 0.0597
H82_10 H 0.1629 0.9436 0.1104
H83_10 H 0.0564 0.8896 0.1629
H84_10 H 0.1104 0.8371 0.0564
H93_10 H 0.1488 0.9152 0.1199
H94_10 H 0.0848 0.8801 0.1488
H95_10 H 0.1199 0.8512 0.0848
C150_10 C 0.21744(15) 0.88413(18) 0.16486(16)
C151_10 C 0.11587(18) 0.83514(16) 0.21744(15)
C152_10 C 0.16486(16) 0.78256(15) 0.11587(18)
H104_10 H 0.2290 0.8995 0.1720
H105_10 H 0.1005 0.8280 0.2290
H106_10 H 0.1720 0.7710 0.1005
H115_10 H 0.2263 0.8771 0.1478
H116_10 H 0.1229 0.8522 0.2263
H117_10 H 0.1478 0.7737 0.1229
C161_10 C 0.21710(18) 0.86093(18) 0.1864(2)
C162_10 C 0.13907(18) 0.8136(2) 0.21710(18)
C163_10 C 0.1864(2) 0.78290(18) 0.13907(18)
H126_10 H 0.2073 0.8449 0.1788
H127_10 H 0.1551 0.8212 0.2073
H128_10 H 0.1788 0.7927 0.1551
H137_10 H 0.2361 0.8557 0.1910
H138_10 H 0.1443 0.8090 0.2361
H139_10 H 0.1910 0.7639 0.1443
H148_10 H 0.2076 0.8674 0.2031
H149_10 H 0.1326 0.7969 0.2076
H150_10 H 0.2031 0.7924 0.1326
Cd11_12 Cd 0.201490(12) 0.776551(12) 1.0000
Cd10_13 Cd 1.0000 0.723449(12) 0.201490(12)
O4_22 O 0.5000 0.2500 0.2500
O5_22 O 0.5000 0.18148(17) 0.18103(19)
C15_22 C 0.5000 0.1759(7) 0.1582(7)
O6_16 O 0.47032(8) 0.26514(8) 0.20635(9)
O7_14 O 0.52968(8) 0.20635(9) 0.23486(8)
O11_16 O 0.47032(8) 0.23486(8) 0.29365(9)
O13_8 O 0.52968(8) 0.29365(9) 0.26514(8)
O14_16 O 0.47032(8) 0.29365(9) 0.26514(8)
O21_16 O 0.46692(8) 0.23855(8) 0.16972(8)
O25_14 O 0.53308(8) 0.16972(8) 0.26145(8)
O26_8 O 0.53308(8) 0.33028(8) 0.23855(8)
O27_16 O 0.46692(8) 0.33028(8) 0.23855(8)
O28_16 O 0.46692(8) 0.26145(8) 0.33028(8)
O36_22 O 0.5000 0.18103(19) 0.31852(17)
O37_22 O 0.5000 0.31897(19) 0.18148(17)
O38_22 O 0.5000 0.31852(17) 0.31897(19)
C24_8 C 0.54010(11) 0.31752(13) 0.25946(13)
C25_8 C 0.74054(13) 0.45990(11) 0.31752(13)
C26_8 C 0.68248(13) 0.25946(13) 0.45990(11)
C35_8 C 0.56201(12) 0.32879(13) 0.27833(12)
C36_8 C 0.72167(12) 0.43799(12) 0.32879(13)
C37_8 C 0.67121(13) 0.27833(12) 0.43799(12)
C46_8 C 0.57090(12) 0.31402(14) 0.30129(12)
C47_8 C 0.69871(12) 0.42910(12) 0.31402(14)
C48_8 C 0.68598(14) 0.30129(12) 0.42910(12)
H22_8 H 0.5623 0.2971 0.3062
H23_8 H 0.6938 0.4377 0.2971
H24_8 H 0.7029 0.3062 0.4377
C57_8 C 0.59245(12) 0.32438(13) 0.31685(13)
C58_8 C 0.68315(13) 0.40755(12) 0.32438(13)
C59_8 C 0.67562(13) 0.31685(13) 0.40755(12)
C68_8 C 0.60580(12) 0.34897(13) 0.31026(13)
C69_8 C 0.65103(13) 0.31026(13) 0.39420(12)
C70_8 C 0.68974(13) 0.39420(12) 0.34897(13)
C79_8 C 0.59622(13) 0.36410(14) 0.28735(13)
C80_8 C 0.63590(14) 0.28735(13) 0.40378(13)
C81_8 C 0.71265(13) 0.40378(13) 0.36410(14)
H33_8 H 0.6046 0.3812 0.2826
H34_8 H 0.6188 0.2826 0.3954
H35_8 H 0.7174 0.3954 0.3812
C90_8 C 0.57462(12) 0.35389(13) 0.27192(12)
C91_8 C 0.64611(13) 0.27192(12) 0.42538(12)
C92_8 C 0.72808(12) 0.42538(12) 0.35389(13)
H44_8 H 0.5681 0.3642 0.2565
H45_8 H 0.6358 0.2565 0.4319
H46_8 H 0.7435 0.4319 0.3642
C101_8 C 0.60417(13) 0.31147(14) 0.34277(14)
C102_8 C 0.65723(14) 0.39583(13) 0.31147(14)
C103_8 C 0.68853(14) 0.34277(14) 0.39583(13)
C112_8 C 0.62846(13) 0.35361(13) 0.33058(13)
C113_8 C 0.64639(13) 0.33058(13) 0.37154(13)
C114_8 C 0.66942(13) 0.37154(13) 0.35361(13)
C123_8 C 0.62719(13) 0.33178(13) 0.35034(13)
C124_8 C 0.64966(13) 0.37281(13) 0.33178(13)
C125_8 C 0.66822(13) 0.35034(13) 0.37281(13)
C134_8 C 0.58039(17) 0.3109(2) 0.36488(17)
C135_8 C 0.63512(17) 0.41961(17) 0.3109(2)
C136_8 C 0.6891(2) 0.36488(17) 0.41961(17)
H55_8 H 0.5872 0.3010 0.3814
H56_8 H 0.6186 0.4128 0.3010
H57_8 H 0.6990 0.3814 0.4128
H66_8 H 0.5647 0.3001 0.3573
H67_8 H 0.6427 0.4353 0.3001
H68_8 H 0.6999 0.3573 0.4353
C145_8 C 0.5693(2) 0.3396(2) 0.3742(2)
C146_8 C 0.6258(2) 0.4307(2) 0.3396(2)
C147_8 C 0.6604(2) 0.3742(2) 0.4307(2)
H77_8 H 0.5597 0.3484 0.3587
H78_8 H 0.6413 0.4403 0.3484
H79_8 H 0.6516 0.3587 0.4403
H88_8 H 0.5564 0.3371 0.3896
H89_8 H 0.6104 0.4436 0.3371
H90_8 H 0.6629 0.3896 0.4436
H99_8 H 0.5848 0.3512 0.3801
H100_8 H 0.6199 0.4152 0.3512
H101_8 H 0.6488 0.3801 0.4152
C156_8 C 0.61587(18) 0.28256(15) 0.33514(16)
C157_8 C 0.66486(16) 0.38413(18) 0.28256(15)
C158_8 C 0.71744(15) 0.33514(16) 0.38413(18)
H110_8 H 0.6005 0.2710 0.3280
H111_8 H 0.6720 0.3995 0.2710
H112_8 H 0.7290 0.3280 0.3995
H121_8 H 0.6229 0.2737 0.3522
H122_8 H 0.6478 0.3771 0.2737
H123_8 H 0.7263 0.3522 0.3771
C167_8 C 0.63907(18) 0.28290(18) 0.3136(2)
C168_8 C 0.6864(2) 0.36093(18) 0.28290(18)
C169_8 C 0.71710(18) 0.3136(2) 0.36093(18)
H132_8 H 0.6551 0.2927 0.3212
H133_8 H 0.6788 0.3449 0.2927
H134_8 H 0.7073 0.3212 0.3449
H143_8 H 0.6443 0.2639 0.3090
H144_8 H 0.6910 0.3557 0.2639
H145_8 H 0.7361 0.3090 0.3557
H154_8 H 0.6326 0.2924 0.2969
H155_8 H 0.7031 0.3674 0.2924
H156_8 H 0.7076 0.2969 0.3674
C170_22 C 0.5000 0.1582(7) 0.3241(7)
C171_22 C 0.5000 0.3241(7) 0.3418(7)
C172_22 C 0.5000 0.3418(7) 0.1759(7)
H157_16 H 0.5184 0.315564 0.351619
H158_22 H 0.5 0.346522 0.344052
H159_16 H 0.4816 0.315564 0.351619
H160_16 H 0.5184 0.148381 0.315564
H161_22 H 0.5 0.155948 0.346522
H162_16 H 0.4816 0.148381 0.315564
H166_16 H 0.5184 0.351619 0.184436
H167_22 H 0.5 0.344052 0.153478
H168_16 H 0.4816 0.351619 0.184436
H172_16 H 0.5184 0.184436 0.148381
H173_22 H 0.5 0.153478 0.155948
H174_16 H 0.4816 0.184436 0.148381
O4_23 O 0.7500 0.2500 0.0000
O5_23 O 0.68148(17) 0.18103(19) -0.0000
C15_23 C 0.6759(7) 0.1582(7) -0.0000
O7_15 O 0.70635(9) 0.23486(8) 0.02968(8)
O25_15 O 0.66972(8) 0.26145(8) 0.03308(8)
O36_23 O 0.68103(19) 0.31852(17) -0.0000
O37_23 O 0.81897(19) 0.18148(17) 0.0000
O38_23 O 0.81852(17) 0.31897(19) -0.0000
C170_23 C 0.6582(7) 0.3241(7) 0.0000
C171_23 C 0.8241(7) 0.3418(7) -0.0000
C172_23 C 0.8418(7) 0.1759(7) 0.0000
H157_17 H 0.815564 0.351619 0.0183997
H158_23 H 0.846522 0.344052 2.6019e-18
H160_17 H 0.648381 0.315564 0.0183997
H161_23 H 0.655948 0.346522 2.6019e-18
H166_17 H 0.851619 0.184436 0.0183997
H167_23 H 0.844052 0.153478 2.6019e-18
H172_17 H 0.684436 0.148381 0.0183997
H173_23 H 0.653478 0.155948 2.6019e-18
O4_24 O 0.7500 0.2500 1.0000
O5_24 O 0.68148(17) 0.18103(19) 1.0000
C15_24 C 0.6759(7) 0.1582(7) 1.0000
O6_17 O 0.76514(8) 0.20635(9) 0.97032(8)
O11_17 O 0.73486(8) 0.29365(9) 0.97032(8)
O14_17 O 0.79365(9) 0.26514(8) 0.97032(8)
O21_17 O 0.73855(8) 0.16972(8) 0.96692(8)
O27_17 O 0.83028(8) 0.23855(8) 0.96692(8)
O28_17 O 0.76145(8) 0.33028(8) 0.96692(8)
O36_24 O 0.68103(19) 0.31852(17) 1.0000
O37_24 O 0.81897(19) 0.18148(17) 1.0000
O38_24 O 0.81852(17) 0.31897(19) 1.0000
C170_24 C 0.6582(7) 0.3241(7) 1.0000
C171_24 C 0.8241(7) 0.3418(7) 1.0000
C172_24 C 0.8418(7) 0.1759(7) 1.0000
H158_24 H 0.846522 0.344052 1
H159_17 H 0.815564 0.351619 0.9816
H161_24 H 0.655948 0.346522 1
H162_17 H 0.648381 0.315564 0.9816
H167_24 H 0.844052 0.153478 1
H168_17 H 0.851619 0.184436 0.9816
H173_24 H 0.653478 0.155948 1
H174_17 H 0.684436 0.148381 0.9816
O4_25 O 0.7500 0.7500 0.0000
O5_25 O 0.68148(17) 0.81897(19) 0.0000
C15_25 C 0.6759(7) 0.8418(7) 0.0000
O6_18 O 0.76514(8) 0.79365(9) 0.02968(8)
O11_18 O 0.73486(8) 0.70635(9) 0.02968(8)
O14_18 O 0.79365(9) 0.73486(8) 0.02968(8)
O21_18 O 0.73855(8) 0.83028(8) 0.03308(8)
O27_18 O 0.83028(8) 0.76145(8) 0.03308(8)
O28_18 O 0.76145(8) 0.66972(8) 0.03308(8)
O36_25 O 0.68103(19) 0.68148(17) 0.0000
O37_25 O 0.81897(19) 0.81852(17) 0.0000
O38_25 O 0.81852(17) 0.68103(19) 0.0000
C170_25 C 0.6582(7) 0.6759(7) 0.0000
C171_25 C 0.8241(7) 0.6582(7) 0.0000
C172_25 C 0.8418(7) 0.8241(7) -0.0000
H158_25 H 0.846522 0.655948 -2.6019e-18
H159_18 H 0.815564 0.648381 0.0183997
H161_25 H 0.655948 0.653478 -2.6019e-18
H162_18 H 0.648381 0.684436 0.0183997
H167_25 H 0.844052 0.846522 -2.6019e-18
H168_18 H 0.851619 0.815564 0.0183997
H173_25 H 0.653478 0.844052 -2.6019e-18
H174_18 H 0.684436 0.851619 0.0183997
O4_26 O 0.7500 0.7500 1.0000
O5_26 O 0.68148(17) 0.81897(19) 1.0000
C15_26 C 0.6759(7) 0.8418(7) 1.0000
O36_26 O 0.68103(19) 0.68148(17) 1.0000
O37_26 O 0.81897(19) 0.81852(17) 1.0000
O38_26 O 0.81852(17) 0.68103(19) 1.0000
C170_26 C 0.6582(7) 0.6759(7) 1.0000
C171_26 C 0.8241(7) 0.6582(7) 1.0000
C172_26 C 0.8418(7) 0.8241(7) 1.0000
H157_18 H 0.815564 0.648381 0.9816
H158_26 H 0.846522 0.655948 1
H160_18 H 0.648381 0.684436 0.9816
H161_26 H 0.655948 0.653478 1
H166_18 H 0.851619 0.815564 0.9816
H167_26 H 0.844052 0.846522 1
H172_18 H 0.684436 0.851619 0.9816
H173_26 H 0.653478 0.844052 1
Cd14_12 Cd 0.201490(12) 0.0000 0.723449(12)
Cd15_14 Cd 0.0000 0.201490(12) 0.776551(12)
O17_10 O 0.20635(9) 0.02968(8) 0.76514(8)
O18_9 O 0.02968(8) 0.23486(8) 0.79365(9)
O32_10 O 0.16972(8) 0.03308(8) 0.73855(8)
O33_9 O 0.03308(8) 0.26145(8) 0.83028(8)
C16_10 C 0.24054(13) 0.18248(13) 0.95990(11)
C22_10 C 0.18248(13) 0.04010(11) 0.75946(13)
C23_10 C 0.04010(11) 0.24054(13) 0.81752(13)
C32_10 C 0.22167(12) 0.17121(13) 0.93799(12)
C33_10 C 0.17121(13) 0.06201(12) 0.77833(12)
C34_10 C 0.06201(12) 0.22167(12) 0.82879(13)
C43_10 C 0.19871(12) 0.18598(14) 0.92910(12)
C44_10 C 0.18598(14) 0.07090(12) 0.80129(12)
C45_10 C 0.07090(12) 0.19871(12) 0.81402(14)
H19_10 H 0.1938 0.2029 0.9377
H20_10 H 0.2029 0.0623 0.8062
H21_10 H 0.0623 0.1938 0.7971
C54_10 C 0.18315(13) 0.17562(13) 0.90755(12)
C55_10 C 0.17562(13) 0.09245(12) 0.81685(13)
C56_10 C 0.09245(12) 0.18315(13) 0.82438(13)
C65_10 C 0.18974(13) 0.15103(13) 0.89420(12)
C66_10 C 0.10580(12) 0.18974(13) 0.84897(13)
C67_10 C 0.15103(13) 0.10580(12) 0.81026(13)
C76_10 C 0.21265(13) 0.13590(14) 0.90378(13)
C77_10 C 0.09622(13) 0.21265(13) 0.86410(14)
C78_10 C 0.13590(14) 0.09622(13) 0.78735(13)
H30_10 H 0.2174 0.1188 0.8954
H31_10 H 0.1046 0.2174 0.8812
H32_10 H 0.1188 0.1046 0.7826
C87_10 C 0.22808(12) 0.14611(13) 0.92538(12)
C88_10 C 0.07462(12) 0.22808(12) 0.85389(13)
C89_10 C 0.14611(13) 0.07462(12) 0.77192(12)
H41_10 H 0.2435 0.1358 0.9319
H42_10 H 0.0681 0.2435 0.8642
H43_10 H 0.1358 0.0681 0.7565
C98_10 C 0.15723(14) 0.18853(14) 0.89583(13)
C99_10 C 0.18853(14) 0.10417(13) 0.84277(14)
C100_10 C 0.10417(13) 0.15723(14) 0.81147(14)
C109_10 C 0.16942(13) 0.14639(13) 0.87154(13)
C110_10 C 0.12846(13) 0.16942(13) 0.85361(13)
C111_10 C 0.14639(13) 0.12846(13) 0.83058(13)
C120_10 C 0.14966(13) 0.16822(13) 0.87281(13)
C121_10 C 0.16822(13) 0.12719(13) 0.85034(13)
C122_10 C 0.12719(13) 0.14966(13) 0.83178(13)
C131_10 C 0.13512(17) 0.1891(2) 0.91961(17)
C132_10 C 0.1891(2) 0.08039(17) 0.86488(17)
C133_10 C 0.08039(17) 0.13512(17) 0.8109(2)
H52_10 H 0.1186 0.1990 0.9128
H53_10 H 0.1990 0.0872 0.8814
H54_10 H 0.0872 0.1186 0.8010
H63_10 H 0.1427 0.1999 0.9353
H64_10 H 0.1999 0.0647 0.8573
H65_10 H 0.0647 0.1427 0.8001
C142_10 C 0.1258(2) 0.1604(2) 0.9307(2)
C143_10 C 0.1604(2) 0.0693(2) 0.8742(2)
C144_10 C 0.0693(2) 0.1258(2) 0.8396(2)
H74_10 H 0.1413 0.1516 0.9403
H75_10 H 0.1516 0.0597 0.8587
H76_10 H 0.0597 0.1413 0.8484
H85_10 H 0.1104 0.1629 0.9436
H86_10 H 0.1629 0.0564 0.8896
H87_10 H 0.0564 0.1104 0.8371
H96_10 H 0.1199 0.1488 0.9152
H97_10 H 0.1488 0.0848 0.8801
H98_10 H 0.0848 0.1199 0.8512
C153_10 C 0.16486(16) 0.21744(15) 0.88413(18)
C154_10 C 0.21744(15) 0.11587(18) 0.83514(16)
C155_10 C 0.11587(18) 0.16486(16) 0.78256(15)
H107_10 H 0.1720 0.2290 0.8995
H108_10 H 0.2290 0.1005 0.8280
H109_10 H 0.1005 0.1720 0.7710
H118_10 H 0.1478 0.2263 0.8771
H119_10 H 0.2263 0.1229 0.8522
H120_10 H 0.1229 0.1478 0.7737
C164_10 C 0.1864(2) 0.21710(18) 0.86093(18)
C165_10 C 0.21710(18) 0.13907(18) 0.8136(2)
C166_10 C 0.13907(18) 0.1864(2) 0.78290(18)
H129_10 H 0.1788 0.2073 0.8449
H130_10 H 0.2073 0.1551 0.8212
H131_10 H 0.1551 0.1788 0.7927
H140_10 H 0.1910 0.2361 0.8557
H141_10 H 0.2361 0.1443 0.8090
H142_10 H 0.1443 0.1910 0.7639
H151_10 H 0.2031 0.2076 0.8674
H152_10 H 0.2076 0.1326 0.7969
H153_10 H 0.1326 0.2031 0.7924
Cd14_13 Cd 0.201490(12) 1.0000 0.723449(12)
Cd15_15 Cd 1.0000 0.201490(12) 0.776551(12)
C1_9 C 0.54010(11) 0.24054(13) 0.68248(13)
C2_9 C 0.56201(12) 0.22167(12) 0.67121(13)
C3_9 C 0.57090(12) 0.19871(12) 0.68598(14)
H1_9 H 0.5623 0.1938 0.7029
C4_9 C 0.59245(12) 0.18315(13) 0.67562(13)
C5_9 C 0.60580(12) 0.18974(13) 0.65103(13)
C6_9 C 0.59622(13) 0.21265(13) 0.63590(14)
H2_9 H 0.6046 0.2174 0.6188
C7_9 C 0.57462(12) 0.22808(12) 0.64611(13)
H3_9 H 0.5681 0.2435 0.6358
C8_9 C 0.60417(13) 0.15723(14) 0.68853(14)
C9_9 C 0.62846(13) 0.16942(13) 0.64639(13)
C10_9 C 0.62719(13) 0.14966(13) 0.66822(13)
C11_9 C 0.58039(17) 0.13512(17) 0.6891(2)
H4_9 H 0.5872 0.1186 0.6990
H5_9 H 0.5647 0.1427 0.6999
C12_9 C 0.5693(2) 0.1258(2) 0.6604(2)
H6_9 H 0.5597 0.1413 0.6516
H7_9 H 0.5564 0.1104 0.6629
H8_9 H 0.5848 0.1199 0.6488
C13_9 C 0.61587(18) 0.16486(16) 0.71744(15)
H9_9 H 0.6005 0.1720 0.7290
H10_9 H 0.6229 0.1478 0.7263
C14_9 C 0.63907(18) 0.1864(2) 0.71710(18)
H11_9 H 0.6551 0.1788 0.7073
H12_9 H 0.6443 0.1910 0.7361
H13_9 H 0.6326 0.2031 0.7076
C17_9 C 0.74054(13) 0.18248(13) 0.54010(11)
C18_9 C 0.68248(13) 0.04010(11) 0.74054(13)
C27_9 C 0.72167(12) 0.17121(13) 0.56201(12)
C28_9 C 0.67121(13) 0.06201(12) 0.72167(12)
C38_9 C 0.69871(12) 0.18598(14) 0.57090(12)
C39_9 C 0.68598(14) 0.07090(12) 0.69871(12)
H14_9 H 0.6938 0.2029 0.5623
H15_9 H 0.7029 0.0623 0.6938
C49_9 C 0.68315(13) 0.17562(13) 0.59245(12)
C50_9 C 0.67562(13) 0.09245(12) 0.68315(13)
C60_9 C 0.65103(13) 0.10580(12) 0.68974(13)
C61_9 C 0.68974(13) 0.15103(13) 0.60580(12)
C71_9 C 0.63590(14) 0.09622(13) 0.71265(13)
C72_9 C 0.71265(13) 0.13590(14) 0.59622(13)
H25_9 H 0.6188 0.1046 0.7174
H26_9 H 0.7174 0.1188 0.6046
C82_9 C 0.64611(13) 0.07462(12) 0.72808(12)
C83_9 C 0.72808(12) 0.14611(13) 0.57462(12)
H36_9 H 0.6358 0.0681 0.7435
H37_9 H 0.7435 0.1358 0.5681
C93_9 C 0.65723(14) 0.18853(14) 0.60417(13)
C94_9 C 0.68853(14) 0.10417(13) 0.65723(14)
C104_9 C 0.64639(13) 0.12846(13) 0.66942(13)
C105_9 C 0.66942(13) 0.14639(13) 0.62846(13)
C115_9 C 0.64966(13) 0.16822(13) 0.62719(13)
C116_9 C 0.66822(13) 0.12719(13) 0.64966(13)
C126_9 C 0.63512(17) 0.1891(2) 0.58039(17)
C127_9 C 0.6891(2) 0.08039(17) 0.63512(17)
H47_9 H 0.6186 0.1990 0.5872
H48_9 H 0.6990 0.0872 0.6186
H58_9 H 0.6427 0.1999 0.5647
H59_9 H 0.6999 0.0647 0.6427
C137_9 C 0.6258(2) 0.1604(2) 0.5693(2)
C138_9 C 0.6604(2) 0.0693(2) 0.6258(2)
H69_9 H 0.6413 0.1516 0.5597
H70_9 H 0.6516 0.0597 0.6413
H80_9 H 0.6104 0.1629 0.5564
H81_9 H 0.6629 0.0564 0.6104
H91_9 H 0.6199 0.1488 0.5848
H92_9 H 0.6488 0.0848 0.6199
C148_9 C 0.66486(16) 0.21744(15) 0.61587(18)
C149_9 C 0.71744(15) 0.11587(18) 0.66486(16)
H102_9 H 0.6720 0.2290 0.6005
H103_9 H 0.7290 0.1005 0.6720
H113_9 H 0.6478 0.2263 0.6229
H114_9 H 0.7263 0.1229 0.6478
C159_9 C 0.6864(2) 0.21710(18) 0.63907(18)
C160_9 C 0.71710(18) 0.13907(18) 0.6864(2)
H124_9 H 0.6788 0.2073 0.6551
H125_9 H 0.7073 0.1551 0.6788
H135_9 H 0.6910 0.2361 0.6443
H136_9 H 0.7361 0.1443 0.6910
H146_9 H 0.7031 0.2076 0.6326
H147_9 H 0.7076 0.1326 0.7031
C1_10 C 0.24054(13) 0.54010(11) 0.81752(13)
C2_10 C 0.22167(12) 0.56201(12) 0.82879(13)
C3_10 C 0.19871(12) 0.57090(12) 0.81402(14)
H1_10 H 0.1938 0.5623 0.7971
C4_10 C 0.18315(13) 0.59245(12) 0.82438(13)
C5_10 C 0.18974(13) 0.60580(12) 0.84897(13)
C6_10 C 0.21265(13) 0.59622(13) 0.86410(14)
H2_10 H 0.2174 0.6046 0.8812
C7_10 C 0.22808(12) 0.57462(12) 0.85389(13)
H3_10 H 0.2435 0.5681 0.8642
C8_10 C 0.15723(14) 0.60417(13) 0.81147(14)
C9_10 C 0.16942(13) 0.62846(13) 0.85361(13)
C10_10 C 0.14966(13) 0.62719(13) 0.83178(13)
C11_10 C 0.13512(17) 0.58039(17) 0.8109(2)
H4_10 H 0.1186 0.5872 0.8010
H5_10 H 0.1427 0.5647 0.8001
C12_10 C 0.1258(2) 0.5693(2) 0.8396(2)
H6_10 H 0.1413 0.5597 0.8484
H7_10 H 0.1104 0.5564 0.8371
H8_10 H 0.1199 0.5848 0.8512
C13_10 C 0.16486(16) 0.61587(18) 0.78256(15)
H9_10 H 0.1720 0.6005 0.7710
H10_10 H 0.1478 0.6229 0.7737
C14_10 C 0.1864(2) 0.63907(18) 0.78290(18)
H11_10 H 0.1788 0.6551 0.7927
H12_10 H 0.1910 0.6443 0.7639
H13_10 H 0.2031 0.6326 0.7924
O9_7 O 0.20635(9) 0.73486(8) 0.97032(8)
O23_7 O 0.16972(8) 0.76145(8) 0.96692(8)
C17_10 C 0.18248(13) 0.74054(13) 0.95990(11)
C18_10 C 0.04010(11) 0.68248(13) 0.75946(13)
C27_10 C 0.17121(13) 0.72167(12) 0.93799(12)
C28_10 C 0.06201(12) 0.67121(13) 0.77833(12)
C38_10 C 0.18598(14) 0.69871(12) 0.92910(12)
C39_10 C 0.07090(12) 0.68598(14) 0.80129(12)
H14_10 H 0.2029 0.6938 0.9377
H15_10 H 0.0623 0.7029 0.8062
C49_10 C 0.17562(13) 0.68315(13) 0.90755(12)
C50_10 C 0.09245(12) 0.67562(13) 0.81685(13)
C60_10 C 0.10580(12) 0.65103(13) 0.81026(13)
C61_10 C 0.15103(13) 0.68974(13) 0.89420(12)
C71_10 C 0.09622(13) 0.63590(14) 0.78735(13)
C72_10 C 0.13590(14) 0.71265(13) 0.90378(13)
H25_10 H 0.1046 0.6188 0.7826
H26_10 H 0.1188 0.7174 0.8954
C82_10 C 0.07462(12) 0.64611(13) 0.77192(12)
C83_10 C 0.14611(13) 0.72808(12) 0.92538(12)
H36_10 H 0.0681 0.6358 0.7565
H37_10 H 0.1358 0.7435 0.9319
C93_10 C 0.18853(14) 0.65723(14) 0.89583(13)
C94_10 C 0.10417(13) 0.68853(14) 0.84277(14)
C104_10 C 0.12846(13) 0.64639(13) 0.83058(13)
C105_10 C 0.14639(13) 0.66942(13) 0.87154(13)
C115_10 C 0.16822(13) 0.64966(13) 0.87281(13)
C116_10 C 0.12719(13) 0.66822(13) 0.85034(13)
C126_10 C 0.1891(2) 0.63512(17) 0.91961(17)
C127_10 C 0.08039(17) 0.6891(2) 0.86488(17)
H47_10 H 0.1990 0.6186 0.9128
H48_10 H 0.0872 0.6990 0.8814
H58_10 H 0.1999 0.6427 0.9353
H59_10 H 0.0647 0.6999 0.8573
C137_10 C 0.1604(2) 0.6258(2) 0.9307(2)
C138_10 C 0.0693(2) 0.6604(2) 0.8742(2)
H69_10 H 0.1516 0.6413 0.9403
H70_10 H 0.0597 0.6516 0.8587
H80_10 H 0.1629 0.6104 0.9436
H81_10 H 0.0564 0.6629 0.8896
H91_10 H 0.1488 0.6199 0.9152
H92_10 H 0.0848 0.6488 0.8801
C148_10 C 0.21744(15) 0.66486(16) 0.88413(18)
C149_10 C 0.11587(18) 0.71744(15) 0.83514(16)
H102_10 H 0.2290 0.6720 0.8995
H103_10 H 0.1005 0.7290 0.8280
H113_10 H 0.2263 0.6478 0.8771
H114_10 H 0.1229 0.7263 0.8522
C159_10 C 0.21710(18) 0.6864(2) 0.86093(18)
C160_10 C 0.13907(18) 0.71710(18) 0.8136(2)
H124_10 H 0.2073 0.6788 0.8449
H125_10 H 0.1551 0.7073 0.8212
H135_10 H 0.2361 0.6910 0.8557
H136_10 H 0.1443 0.7361 0.8090
H146_10 H 0.2076 0.7031 0.8674
H147_10 H 0.1326 0.7076 0.7969
O2_8 O 0.23486(8) 0.47032(8) 0.20635(9)
O4_27 O 0.2500 0.5000 0.2500
O5_27 O 0.18103(19) 0.5000 0.18148(17)
C1_11 C 0.24054(13) 0.45990(11) 0.18248(13)
C2_11 C 0.22167(12) 0.43799(12) 0.17121(13)
C3_11 C 0.19871(12) 0.42910(12) 0.18598(14)
H1_11 H 0.1938 0.4377 0.2029
C4_11 C 0.18315(13) 0.40755(12) 0.17562(13)
C5_11 C 0.18974(13) 0.39420(12) 0.15103(13)
C6_11 C 0.21265(13) 0.40378(13) 0.13590(14)
H2_11 H 0.2174 0.3954 0.1188
C7_11 C 0.22808(12) 0.42538(12) 0.14611(13)
H3_11 H 0.2435 0.4319 0.1358
C8_11 C 0.15723(14) 0.39583(13) 0.18853(14)
C9_11 C 0.16942(13) 0.37154(13) 0.14639(13)
C10_11 C 0.14966(13) 0.37281(13) 0.16822(13)
C11_11 C 0.13512(17) 0.41961(17) 0.1891(2)
H4_11 H 0.1186 0.4128 0.1990
H5_11 H 0.1427 0.4353 0.1999
C12_11 C 0.1258(2) 0.4307(2) 0.1604(2)
H6_11 H 0.1413 0.4403 0.1516
H7_11 H 0.1104 0.4436 0.1629
H8_11 H 0.1199 0.4152 0.1488
C13_11 C 0.16486(16) 0.38413(18) 0.21744(15)
H9_11 H 0.1720 0.3995 0.2290
H10_11 H 0.1478 0.3771 0.2263
C14_11 C 0.1864(2) 0.36093(18) 0.21710(18)
H11_11 H 0.1788 0.3449 0.2073
H12_11 H 0.1910 0.3557 0.2361
H13_11 H 0.2031 0.3674 0.2076
C15_27 C 0.1582(7) 0.5000 0.1759(7)
O6_19 O 0.20635(9) 0.47032(8) 0.26514(8)
O7_16 O 0.23486(8) 0.52968(8) 0.20635(9)
O11_19 O 0.29365(9) 0.47032(8) 0.23486(8)
O14_19 O 0.26514(8) 0.47032(8) 0.29365(9)
O21_19 O 0.16972(8) 0.46692(8) 0.23855(8)
O22_8 O 0.26145(8) 0.46692(8) 0.16972(8)
O25_16 O 0.26145(8) 0.53308(8) 0.16972(8)
O27_19 O 0.23855(8) 0.46692(8) 0.33028(8)
O28_19 O 0.33028(8) 0.46692(8) 0.26145(8)
O36_27 O 0.31852(17) 0.5000 0.18103(19)
O37_27 O 0.18148(17) 0.5000 0.31897(19)
O38_27 O 0.31897(19) 0.5000 0.31852(17)
C17_11 C 0.18248(13) 0.25946(13) 0.04010(11)
C18_11 C 0.04010(11) 0.31752(13) 0.24054(13)
C27_11 C 0.17121(13) 0.27833(12) 0.06201(12)
C28_11 C 0.06201(12) 0.32879(13) 0.22167(12)
C38_11 C 0.18598(14) 0.30129(12) 0.07090(12)
C39_11 C 0.07090(12) 0.31402(14) 0.19871(12)
H14_11 H 0.2029 0.3062 0.0623
H15_11 H 0.0623 0.2971 0.1938
C49_11 C 0.17562(13) 0.31685(13) 0.09245(12)
C50_11 C 0.09245(12) 0.32438(13) 0.18315(13)
C60_11 C 0.10580(12) 0.34897(13) 0.18974(13)
C61_11 C 0.15103(13) 0.31026(13) 0.10580(12)
C71_11 C 0.09622(13) 0.36410(14) 0.21265(13)
C72_11 C 0.13590(14) 0.28735(13) 0.09622(13)
H25_11 H 0.1046 0.3812 0.2174
H26_11 H 0.1188 0.2826 0.1046
C82_11 C 0.07462(12) 0.35389(13) 0.22808(12)
C83_11 C 0.14611(13) 0.27192(12) 0.07462(12)
H36_11 H 0.0681 0.3642 0.2435
H37_11 H 0.1358 0.2565 0.0681
C93_11 C 0.18853(14) 0.34277(14) 0.10417(13)
C94_11 C 0.10417(13) 0.31147(14) 0.15723(14)
C104_11 C 0.12846(13) 0.35361(13) 0.16942(13)
C105_11 C 0.14639(13) 0.33058(13) 0.12846(13)
C115_11 C 0.16822(13) 0.35034(13) 0.12719(13)
C116_11 C 0.12719(13) 0.33178(13) 0.14966(13)
C126_11 C 0.1891(2) 0.36488(17) 0.08039(17)
C127_11 C 0.08039(17) 0.3109(2) 0.13512(17)
H47_11 H 0.1990 0.3814 0.0872
H48_11 H 0.0872 0.3010 0.1186
H58_11 H 0.1999 0.3573 0.0647
H59_11 H 0.0647 0.3001 0.1427
C137_11 C 0.1604(2) 0.3742(2) 0.0693(2)
C138_11 C 0.0693(2) 0.3396(2) 0.1258(2)
H69_11 H 0.1516 0.3587 0.0597
H70_11 H 0.0597 0.3484 0.1413
H80_11 H 0.1629 0.3896 0.0564
H81_11 H 0.0564 0.3371 0.1104
H91_11 H 0.1488 0.3801 0.0848
H92_11 H 0.0848 0.3512 0.1199
C148_11 C 0.21744(15) 0.33514(16) 0.11587(18)
C149_11 C 0.11587(18) 0.28256(15) 0.16486(16)
H102_11 H 0.2290 0.3280 0.1005
H103_11 H 0.1005 0.2710 0.1720
H113_11 H 0.2263 0.3522 0.1229
H114_11 H 0.1229 0.2737 0.1478
C159_11 C 0.21710(18) 0.3136(2) 0.13907(18)
C160_11 C 0.13907(18) 0.28290(18) 0.1864(2)
H124_11 H 0.2073 0.3212 0.1551
H125_11 H 0.1551 0.2927 0.1788
H135_11 H 0.2361 0.3090 0.1443
H136_11 H 0.1443 0.2639 0.1910
H146_11 H 0.2076 0.2969 0.1326
H147_11 H 0.1326 0.2924 0.2031
C170_27 C 0.3241(7) 0.5000 0.1582(7)
C171_27 C 0.3418(7) 0.5000 0.3241(7)
C172_27 C 0.1759(7) 0.5000 0.3418(7)
H157_19 H 0.351619 0.5184 0.315564
H158_27 H 0.344052 0.5 0.346522
H159_19 H 0.351619 0.4816 0.315564
H160_19 H 0.315564 0.5184 0.148381
H161_27 H 0.346522 0.5 0.155948
H162_19 H 0.315564 0.4816 0.148381
H166_19 H 0.184436 0.5184 0.351619
H167_27 H 0.153478 0.5 0.344052
H168_19 H 0.184436 0.4816 0.351619
H172_19 H 0.148381 0.5184 0.184436
H173_27 H 0.155948 0.5 0.153478
H174_19 H 0.148381 0.4816 0.184436
C1_12 C 0.75946(13) 0.54010(11) 0.18248(13)
C2_12 C 0.77833(12) 0.56201(12) 0.17121(13)
C3_12 C 0.80129(12) 0.57090(12) 0.18598(14)
H1_12 H 0.8062 0.5623 0.2029
C4_12 C 0.81685(13) 0.59245(12) 0.17562(13)
C5_12 C 0.81026(13) 0.60580(12) 0.15103(13)
C6_12 C 0.78735(13) 0.59622(13) 0.13590(14)
H2_12 H 0.7826 0.6046 0.1188
C7_12 C 0.77192(12) 0.57462(12) 0.14611(13)
H3_12 H 0.7565 0.5681 0.1358
C8_12 C 0.84277(14) 0.60417(13) 0.18853(14)
C9_12 C 0.83058(13) 0.62846(13) 0.14639(13)
C10_12 C 0.85034(13) 0.62719(13) 0.16822(13)
C11_12 C 0.86488(17) 0.58039(17) 0.1891(2)
H4_12 H 0.8814 0.5872 0.1990
H5_12 H 0.8573 0.5647 0.1999
C12_12 C 0.8742(2) 0.5693(2) 0.1604(2)
H6_12 H 0.8587 0.5597 0.1516
H7_12 H 0.8896 0.5564 0.1629
H8_12 H 0.8801 0.5848 0.1488
C13_12 C 0.83514(16) 0.61587(18) 0.21744(15)
H9_12 H 0.8280 0.6005 0.2290
H10_12 H 0.8522 0.6229 0.2263
C14_12 C 0.8136(2) 0.63907(18) 0.21710(18)
H11_12 H 0.8212 0.6551 0.2073
H12_12 H 0.8090 0.6443 0.2361
H13_12 H 0.7969 0.6326 0.2076
O10_6 O 0.97032(8) 0.70635(9) 0.23486(8)
O24_6 O 0.96692(8) 0.66972(8) 0.26145(8)
C17_12 C 0.81752(13) 0.74054(13) 0.04010(11)
C18_12 C 0.95990(11) 0.68248(13) 0.24054(13)
C27_12 C 0.82879(13) 0.72167(12) 0.06201(12)
C28_12 C 0.93799(12) 0.67121(13) 0.22167(12)
C38_12 C 0.81402(14) 0.69871(12) 0.07090(12)
C39_12 C 0.92910(12) 0.68598(14) 0.19871(12)
H14_12 H 0.7971 0.6938 0.0623
H15_12 H 0.9377 0.7029 0.1938
C49_12 C 0.82438(13) 0.68315(13) 0.09245(12)
C50_12 C 0.90755(12) 0.67562(13) 0.18315(13)
C60_12 C 0.89420(12) 0.65103(13) 0.18974(13)
C61_12 C 0.84897(13) 0.68974(13) 0.10580(12)
C71_12 C 0.90378(13) 0.63590(14) 0.21265(13)
C72_12 C 0.86410(14) 0.71265(13) 0.09622(13)
H25_12 H 0.8954 0.6188 0.2174
H26_12 H 0.8812 0.7174 0.1046
C82_12 C 0.92538(12) 0.64611(13) 0.22808(12)
C83_12 C 0.85389(13) 0.72808(12) 0.07462(12)
H36_12 H 0.9319 0.6358 0.2435
H37_12 H 0.8642 0.7435 0.0681
C93_12 C 0.81147(14) 0.65723(14) 0.10417(13)
C94_12 C 0.89583(13) 0.68853(14) 0.15723(14)
C104_12 C 0.87154(13) 0.64639(13) 0.16942(13)
C105_12 C 0.85361(13) 0.66942(13) 0.12846(13)
C115_12 C 0.83178(13) 0.64966(13) 0.12719(13)
C116_12 C 0.87281(13) 0.66822(13) 0.14966(13)
C126_12 C 0.8109(2) 0.63512(17) 0.08039(17)
C127_12 C 0.91961(17) 0.6891(2) 0.13512(17)
H47_12 H 0.8010 0.6186 0.0872
H48_12 H 0.9128 0.6990 0.1186
H58_12 H 0.8001 0.6427 0.0647
H59_12 H 0.9353 0.6999 0.1427
C137_12 C 0.8396(2) 0.6258(2) 0.0693(2)
C138_12 C 0.9307(2) 0.6604(2) 0.1258(2)
H69_12 H 0.8484 0.6413 0.0597
H70_12 H 0.9403 0.6516 0.1413
H80_12 H 0.8371 0.6104 0.0564
H81_12 H 0.9436 0.6629 0.1104
H91_12 H 0.8512 0.6199 0.0848
H92_12 H 0.9152 0.6488 0.1199
C148_12 C 0.78256(15) 0.66486(16) 0.11587(18)
C149_12 C 0.88413(18) 0.71744(15) 0.16486(16)
H102_12 H 0.7710 0.6720 0.1005
H103_12 H 0.8995 0.7290 0.1720
H113_12 H 0.7737 0.6478 0.1229
H114_12 H 0.8771 0.7263 0.1478
C159_12 C 0.78290(18) 0.6864(2) 0.13907(18)
C160_12 C 0.86093(18) 0.71710(18) 0.1864(2)
H124_12 H 0.7927 0.6788 0.1551
H125_12 H 0.8449 0.7073 0.1788
H135_12 H 0.7639 0.6910 0.1443
H136_12 H 0.8557 0.7361 0.1910
H146_12 H 0.7924 0.7031 0.1326
H147_12 H 0.8674 0.7076 0.2031
O4_28 O 0.0000 0.7500 0.2500
O5_28 O 0.0000 0.68148(17) 0.18103(19)
C15_28 C 0.0000 0.6759(7) 0.1582(7)
O7_17 O 0.02968(8) 0.70635(9) 0.23486(8)
O25_17 O 0.03308(8) 0.66972(8) 0.26145(8)
O36_28 O 0.0000 0.68103(19) 0.31852(17)
O37_28 O 0.0000 0.81897(19) 0.18148(17)
O38_28 O -0.0000 0.81852(17) 0.31897(19)
C170_28 C 0.0000 0.6582(7) 0.3241(7)
C171_28 C 0.0000 0.8241(7) 0.3418(7)
C172_28 C 0.0000 0.8418(7) 0.1759(7)
H157_20 H 0.0183997 0.815564 0.351619
H158_28 H 2.6019e-18 0.846522 0.344052
H160_20 H 0.0183997 0.648381 0.315564
H161_28 H 2.6019e-18 0.655948 0.346522
H166_20 H 0.0183997 0.851619 0.184436
H167_28 H 2.6019e-18 0.844052 0.153478
H172_20 H 0.0183997 0.684436 0.148381
H173_28 H 2.6019e-18 0.653478 0.155948
O4_29 O 1.0000 0.7500 0.2500
O5_29 O 1.0000 0.68148(17) 0.18103(19)
C15_29 C 1.0000 0.6759(7) 0.1582(7)
O6_20 O 0.97032(8) 0.76514(8) 0.20635(9)
O11_20 O 0.97032(8) 0.73486(8) 0.29365(9)
O14_20 O 0.97032(8) 0.79365(9) 0.26514(8)
O21_20 O 0.96692(8) 0.73855(8) 0.16972(8)
O27_20 O 0.96692(8) 0.83028(8) 0.23855(8)
O28_20 O 0.96692(8) 0.76145(8) 0.33028(8)
O36_29 O 1.0000 0.68103(19) 0.31852(17)
O37_29 O 1.0000 0.81897(19) 0.18148(17)
O38_29 O 1.0000 0.81852(17) 0.31897(19)
C170_29 C 1.0000 0.6582(7) 0.3241(7)
C171_29 C 1.0000 0.8241(7) 0.3418(7)
C172_29 C 1.0000 0.8418(7) 0.1759(7)
H158_29 H 1 0.846522 0.344052
H159_20 H 0.9816 0.815564 0.351619
H161_29 H 1 0.655948 0.346522
H162_20 H 0.9816 0.648381 0.315564
H167_29 H 1 0.844052 0.153478
H168_20 H 0.9816 0.851619 0.184436
H173_29 H 1 0.653478 0.155948
H174_20 H 0.9816 0.684436 0.148381
O4_30 O 0.2500 0.7500 0.0000
O5_30 O 0.18148(17) 0.68103(19) -0.0000
C15_30 C 0.1759(7) 0.6582(7) -0.0000
O7_18 O 0.20635(9) 0.73486(8) 0.02968(8)
O25_18 O 0.16972(8) 0.76145(8) 0.03308(8)
O36_30 O 0.18103(19) 0.81852(17) -0.0000
O37_30 O 0.31897(19) 0.68148(17) 0.0000
O38_30 O 0.31852(17) 0.81897(19) -0.0000
C170_30 C 0.1582(7) 0.8241(7) 0.0000
C171_30 C 0.3241(7) 0.8418(7) -0.0000
C172_30 C 0.3418(7) 0.6759(7) 0.0000
H157_21 H 0.315564 0.851619 0.0183997
H158_30 H 0.346522 0.844052 2.6019e-18
H160_21 H 0.148381 0.815564 0.0183997
H161_30 H 0.155948 0.846522 2.6019e-18
H166_21 H 0.351619 0.684436 0.0183997
H167_30 H 0.344052 0.653478 2.6019e-18
H172_21 H 0.184436 0.648381 0.0183997
H173_30 H 0.153478 0.655948 2.6019e-18
O4_31 O 0.2500 0.7500 1.0000
O5_31 O 0.18148(17) 0.68103(19) 1.0000
C15_31 C 0.1759(7) 0.6582(7) 1.0000
O6_21 O 0.26514(8) 0.70635(9) 0.97032(8)
O11_21 O 0.23486(8) 0.79365(9) 0.97032(8)
O14_21 O 0.29365(9) 0.76514(8) 0.97032(8)
O21_21 O 0.23855(8) 0.66972(8) 0.96692(8)
O27_21 O 0.33028(8) 0.73855(8) 0.96692(8)
O28_21 O 0.26145(8) 0.83028(8) 0.96692(8)
O36_31 O 0.18103(19) 0.81852(17) 1.0000
O37_31 O 0.31897(19) 0.68148(17) 1.0000
O38_31 O 0.31852(17) 0.81897(19) 1.0000
C170_31 C 0.1582(7) 0.8241(7) 1.0000
C171_31 C 0.3241(7) 0.8418(7) 1.0000
C172_31 C 0.3418(7) 0.6759(7) 1.0000
H158_31 H 0.346522 0.844052 1
H159_21 H 0.315564 0.851619 0.9816
H161_31 H 0.155948 0.846522 1
H162_21 H 0.148381 0.815564 0.9816
H167_31 H 0.344052 0.653478 1
H168_21 H 0.351619 0.684436 0.9816
H173_31 H 0.153478 0.655948 1
H174_21 H 0.184436 0.648381 0.9816
C1_13 C 0.54010(11) 0.74054(13) 0.18248(13)
C2_13 C 0.56201(12) 0.72167(12) 0.17121(13)
C3_13 C 0.57090(12) 0.69871(12) 0.18598(14)
H1_13 H 0.5623 0.6938 0.2029
C4_13 C 0.59245(12) 0.68315(13) 0.17562(13)
C5_13 C 0.60580(12) 0.68974(13) 0.15103(13)
C6_13 C 0.59622(13) 0.71265(13) 0.13590(14)
H2_13 H 0.6046 0.7174 0.1188
C7_13 C 0.57462(12) 0.72808(12) 0.14611(13)
H3_13 H 0.5681 0.7435 0.1358
C8_13 C 0.60417(13) 0.65723(14) 0.18853(14)
C9_13 C 0.62846(13) 0.66942(13) 0.14639(13)
C10_13 C 0.62719(13) 0.64966(13) 0.16822(13)
C11_13 C 0.58039(17) 0.63512(17) 0.1891(2)
H4_13 H 0.5872 0.6186 0.1990
H5_13 H 0.5647 0.6427 0.1999
C12_13 C 0.5693(2) 0.6258(2) 0.1604(2)
H6_13 H 0.5597 0.6413 0.1516
H7_13 H 0.5564 0.6104 0.1629
H8_13 H 0.5848 0.6199 0.1488
C13_13 C 0.61587(18) 0.66486(16) 0.21744(15)
H9_13 H 0.6005 0.6720 0.2290
H10_13 H 0.6229 0.6478 0.2263
C14_13 C 0.63907(18) 0.6864(2) 0.21710(18)
H11_13 H 0.6551 0.6788 0.2073
H12_13 H 0.6443 0.6910 0.2361
H13_13 H 0.6326 0.7031 0.2076
C17_13 C 0.74054(13) 0.68248(13) 0.04010(11)
C18_13 C 0.68248(13) 0.54010(11) 0.24054(13)
C27_13 C 0.72167(12) 0.67121(13) 0.06201(12)
C28_13 C 0.67121(13) 0.56201(12) 0.22167(12)
C38_13 C 0.69871(12) 0.68598(14) 0.07090(12)
C39_13 C 0.68598(14) 0.57090(12) 0.19871(12)
H14_13 H 0.6938 0.7029 0.0623
H15_13 H 0.7029 0.5623 0.1938
C49_13 C 0.68315(13) 0.67562(13) 0.09245(12)
C50_13 C 0.67562(13) 0.59245(12) 0.18315(13)
C60_13 C 0.65103(13) 0.60580(12) 0.18974(13)
C61_13 C 0.68974(13) 0.65103(13) 0.10580(12)
C71_13 C 0.63590(14) 0.59622(13) 0.21265(13)
C72_13 C 0.71265(13) 0.63590(14) 0.09622(13)
H25_13 H 0.6188 0.6046 0.2174
H26_13 H 0.7174 0.6188 0.1046
C82_13 C 0.64611(13) 0.57462(12) 0.22808(12)
C83_13 C 0.72808(12) 0.64611(13) 0.07462(12)
H36_13 H 0.6358 0.5681 0.2435
H37_13 H 0.7435 0.6358 0.0681
C93_13 C 0.65723(14) 0.68853(14) 0.10417(13)
C94_13 C 0.68853(14) 0.60417(13) 0.15723(14)
C104_13 C 0.64639(13) 0.62846(13) 0.16942(13)
C105_13 C 0.66942(13) 0.64639(13) 0.12846(13)
C115_13 C 0.64966(13) 0.66822(13) 0.12719(13)
C116_13 C 0.66822(13) 0.62719(13) 0.14966(13)
C126_13 C 0.63512(17) 0.6891(2) 0.08039(17)
C127_13 C 0.6891(2) 0.58039(17) 0.13512(17)
H47_13 H 0.6186 0.6990 0.0872
H48_13 H 0.6990 0.5872 0.1186
H58_13 H 0.6427 0.6999 0.0647
H59_13 H 0.6999 0.5647 0.1427
C137_13 C 0.6258(2) 0.6604(2) 0.0693(2)
C138_13 C 0.6604(2) 0.5693(2) 0.1258(2)
H69_13 H 0.6413 0.6516 0.0597
H70_13 H 0.6516 0.5597 0.1413
H80_13 H 0.6104 0.6629 0.0564
H81_13 H 0.6629 0.5564 0.1104
H91_13 H 0.6199 0.6488 0.0848
H92_13 H 0.6488 0.5848 0.1199
C148_13 C 0.66486(16) 0.71744(15) 0.11587(18)
C149_13 C 0.71744(15) 0.61587(18) 0.16486(16)
H102_13 H 0.6720 0.7290 0.1005
H103_13 H 0.7290 0.6005 0.1720
H113_13 H 0.6478 0.7263 0.1229
H114_13 H 0.7263 0.6229 0.1478
C159_13 C 0.6864(2) 0.71710(18) 0.13907(18)
C160_13 C 0.71710(18) 0.63907(18) 0.1864(2)
H124_13 H 0.6788 0.7073 0.1551
H125_13 H 0.7073 0.6551 0.1788
H135_13 H 0.6910 0.7361 0.1443
H136_13 H 0.7361 0.6443 0.1910
H146_13 H 0.7031 0.7076 0.1326
H147_13 H 0.7076 0.6326 0.2031
C1_14 C 0.24054(13) 0.04010(11) 0.31752(13)
C2_14 C 0.22167(12) 0.06201(12) 0.32879(13)
C3_14 C 0.19871(12) 0.07090(12) 0.31402(14)
H1_14 H 0.1938 0.0623 0.2971
C4_14 C 0.18315(13) 0.09245(12) 0.32438(13)
C5_14 C 0.18974(13) 0.10580(12) 0.34897(13)
C6_14 C 0.21265(13) 0.09622(13) 0.36410(14)
H2_14 H 0.2174 0.1046 0.3812
C7_14 C 0.22808(12) 0.07462(12) 0.35389(13)
H3_14 H 0.2435 0.0681 0.3642
C8_14 C 0.15723(14) 0.10417(13) 0.31147(14)
C9_14 C 0.16942(13) 0.12846(13) 0.35361(13)
C10_14 C 0.14966(13) 0.12719(13) 0.33178(13)
C11_14 C 0.13512(17) 0.08039(17) 0.3109(2)
H4_14 H 0.1186 0.0872 0.3010
H5_14 H 0.1427 0.0647 0.3001
C12_14 C 0.1258(2) 0.0693(2) 0.3396(2)
H6_14 H 0.1413 0.0597 0.3484
H7_14 H 0.1104 0.0564 0.3371
H8_14 H 0.1199 0.0848 0.3512
C13_14 C 0.16486(16) 0.11587(18) 0.28256(15)
H9_14 H 0.1720 0.1005 0.2710
H10_14 H 0.1478 0.1229 0.2737
C14_14 C 0.1864(2) 0.13907(18) 0.28290(18)
H11_14 H 0.1788 0.1551 0.2927
H12_14 H 0.1910 0.1443 0.2639
H13_14 H 0.2031 0.1326 0.2924
O9_8 O 0.20635(9) 0.23486(8) 0.47032(8)
O23_8 O 0.16972(8) 0.26145(8) 0.46692(8)
C17_14 C 0.18248(13) 0.24054(13) 0.45990(11)
C18_14 C 0.04010(11) 0.18248(13) 0.25946(13)
C27_14 C 0.17121(13) 0.22167(12) 0.43799(12)
C28_14 C 0.06201(12) 0.17121(13) 0.27833(12)
C38_14 C 0.18598(14) 0.19871(12) 0.42910(12)
C39_14 C 0.07090(12) 0.18598(14) 0.30129(12)
H14_14 H 0.2029 0.1938 0.4377
H15_14 H 0.0623 0.2029 0.3062
C49_14 C 0.17562(13) 0.18315(13) 0.40755(12)
C50_14 C 0.09245(12) 0.17562(13) 0.31685(13)
C60_14 C 0.10580(12) 0.15103(13) 0.31026(13)
C61_14 C 0.15103(13) 0.18974(13) 0.39420(12)
C71_14 C 0.09622(13) 0.13590(14) 0.28735(13)
C72_14 C 0.13590(14) 0.21265(13) 0.40378(13)
H25_14 H 0.1046 0.1188 0.2826
H26_14 H 0.1188 0.2174 0.3954
C82_14 C 0.07462(12) 0.14611(13) 0.27192(12)
C83_14 C 0.14611(13) 0.22808(12) 0.42538(12)
H36_14 H 0.0681 0.1358 0.2565
H37_14 H 0.1358 0.2435 0.4319
C93_14 C 0.18853(14) 0.15723(14) 0.39583(13)
C94_14 C 0.10417(13) 0.18853(14) 0.34277(14)
C104_14 C 0.12846(13) 0.14639(13) 0.33058(13)
C105_14 C 0.14639(13) 0.16942(13) 0.37154(13)
C115_14 C 0.16822(13) 0.14966(13) 0.37281(13)
C116_14 C 0.12719(13) 0.16822(13) 0.35034(13)
C126_14 C 0.1891(2) 0.13512(17) 0.41961(17)
C127_14 C 0.08039(17) 0.1891(2) 0.36488(17)
H47_14 H 0.1990 0.1186 0.4128
H48_14 H 0.0872 0.1990 0.3814
H58_14 H 0.1999 0.1427 0.4353
H59_14 H 0.0647 0.1999 0.3573
C137_14 C 0.1604(2) 0.1258(2) 0.4307(2)
C138_14 C 0.0693(2) 0.1604(2) 0.3742(2)
H69_14 H 0.1516 0.1413 0.4403
H70_14 H 0.0597 0.1516 0.3587
H80_14 H 0.1629 0.1104 0.4436
H81_14 H 0.0564 0.1629 0.3896
H91_14 H 0.1488 0.1199 0.4152
H92_14 H 0.0848 0.1488 0.3801
C148_14 C 0.21744(15) 0.16486(16) 0.38413(18)
C149_14 C 0.11587(18) 0.21744(15) 0.33514(16)
H102_14 H 0.2290 0.1720 0.3995
H103_14 H 0.1005 0.2290 0.3280
H113_14 H 0.2263 0.1478 0.3771
H114_14 H 0.1229 0.2263 0.3522
C159_14 C 0.21710(18) 0.1864(2) 0.36093(18)
C160_14 C 0.13907(18) 0.21710(18) 0.3136(2)
H124_14 H 0.2073 0.1788 0.3449
H125_14 H 0.1551 0.2073 0.3212
H135_14 H 0.2361 0.1910 0.3557
H136_14 H 0.1443 0.2361 0.3090
H146_14 H 0.2076 0.2031 0.3674
H147_14 H 0.1326 0.2076 0.2969
O4_32 O 0.2500 0.0000 0.7500
O5_32 O 0.18103(19) 0.0000 0.68148(17)
C15_32 C 0.1582(7) 0.0000 0.6759(7)
O7_19 O 0.23486(8) 0.02968(8) 0.70635(9)
O25_19 O 0.26145(8) 0.03308(8) 0.66972(8)
O36_32 O 0.31852(17) 0.0000 0.68103(19)
O37_32 O 0.18148(17) 0.0000 0.81897(19)
O38_32 O 0.31897(19) -0.0000 0.81852(17)
C170_32 C 0.3241(7) 0.0000 0.6582(7)
C171_32 C 0.3418(7) -0.0000 0.8241(7)
C172_32 C 0.1759(7) 0.0000 0.8418(7)
H157_22 H 0.351619 0.0183997 0.815564
H158_32 H 0.344052 2.6019e-18 0.846522
H160_22 H 0.315564 0.0183997 0.648381
H161_32 H 0.346522 2.6019e-18 0.655948
H166_22 H 0.184436 0.0183997 0.851619
H167_32 H 0.153478 2.6019e-18 0.844052
H172_22 H 0.148381 0.0183997 0.684436
H173_32 H 0.155948 2.6019e-18 0.653478
O2_9 O 0.23486(8) 0.97032(8) 0.70635(9)
O4_33 O 0.2500 1.0000 0.7500
O5_33 O 0.18103(19) 1.0000 0.68148(17)
C1_15 C 0.24054(13) 0.95990(11) 0.68248(13)
C2_15 C 0.22167(12) 0.93799(12) 0.67121(13)
C3_15 C 0.19871(12) 0.92910(12) 0.68598(14)
H1_15 H 0.1938 0.9377 0.7029
C4_15 C 0.18315(13) 0.90755(12) 0.67562(13)
C5_15 C 0.18974(13) 0.89420(12) 0.65103(13)
C6_15 C 0.21265(13) 0.90378(13) 0.63590(14)
H2_15 H 0.2174 0.8954 0.6188
C7_15 C 0.22808(12) 0.92538(12) 0.64611(13)
H3_15 H 0.2435 0.9319 0.6358
C8_15 C 0.15723(14) 0.89583(13) 0.68853(14)
C9_15 C 0.16942(13) 0.87154(13) 0.64639(13)
C10_15 C 0.14966(13) 0.87281(13) 0.66822(13)
C11_15 C 0.13512(17) 0.91961(17) 0.6891(2)
H4_15 H 0.1186 0.9128 0.6990
H5_15 H 0.1427 0.9353 0.6999
C12_15 C 0.1258(2) 0.9307(2) 0.6604(2)
H6_15 H 0.1413 0.9403 0.6516
H7_15 H 0.1104 0.9436 0.6629
H8_15 H 0.1199 0.9152 0.6488
C13_15 C 0.16486(16) 0.88413(18) 0.71744(15)
H9_15 H 0.1720 0.8995 0.7290
H10_15 H 0.1478 0.8771 0.7263
C14_15 C 0.1864(2) 0.86093(18) 0.71710(18)
H11_15 H 0.1788 0.8449 0.7073
H12_15 H 0.1910 0.8557 0.7361
H13_15 H 0.2031 0.8674 0.7076
C15_33 C 0.1582(7) 1.0000 0.6759(7)
O6_22 O 0.20635(9) 0.97032(8) 0.76514(8)
O11_22 O 0.29365(9) 0.97032(8) 0.73486(8)
O14_22 O 0.26514(8) 0.97032(8) 0.79365(9)
O21_22 O 0.16972(8) 0.96692(8) 0.73855(8)
O22_9 O 0.26145(8) 0.96692(8) 0.66972(8)
O27_22 O 0.23855(8) 0.96692(8) 0.83028(8)
O28_22 O 0.33028(8) 0.96692(8) 0.76145(8)
O36_33 O 0.31852(17) 1.0000 0.68103(19)
O37_33 O 0.18148(17) 1.0000 0.81897(19)
O38_33 O 0.31897(19) 1.0000 0.81852(17)
C17_15 C 0.18248(13) 0.75946(13) 0.54010(11)
C18_15 C 0.04010(11) 0.81752(13) 0.74054(13)
C27_15 C 0.17121(13) 0.77833(12) 0.56201(12)
C28_15 C 0.06201(12) 0.82879(13) 0.72167(12)
C38_15 C 0.18598(14) 0.80129(12) 0.57090(12)
C39_15 C 0.07090(12) 0.81402(14) 0.69871(12)
H14_15 H 0.2029 0.8062 0.5623
H15_15 H 0.0623 0.7971 0.6938
C49_15 C 0.17562(13) 0.81685(13) 0.59245(12)
C50_15 C 0.09245(12) 0.82438(13) 0.68315(13)
C60_15 C 0.10580(12) 0.84897(13) 0.68974(13)
C61_15 C 0.15103(13) 0.81026(13) 0.60580(12)
C71_15 C 0.09622(13) 0.86410(14) 0.71265(13)
C72_15 C 0.13590(14) 0.78735(13) 0.59622(13)
H25_15 H 0.1046 0.8812 0.7174
H26_15 H 0.1188 0.7826 0.6046
C82_15 C 0.07462(12) 0.85389(13) 0.72808(12)
C83_15 C 0.14611(13) 0.77192(12) 0.57462(12)
H36_15 H 0.0681 0.8642 0.7435
H37_15 H 0.1358 0.7565 0.5681
C93_15 C 0.18853(14) 0.84277(14) 0.60417(13)
C94_15 C 0.10417(13) 0.81147(14) 0.65723(14)
C104_15 C 0.12846(13) 0.85361(13) 0.66942(13)
C105_15 C 0.14639(13) 0.83058(13) 0.62846(13)
C115_15 C 0.16822(13) 0.85034(13) 0.62719(13)
C116_15 C 0.12719(13) 0.83178(13) 0.64966(13)
C126_15 C 0.1891(2) 0.86488(17) 0.58039(17)
C127_15 C 0.08039(17) 0.8109(2) 0.63512(17)
H47_15 H 0.1990 0.8814 0.5872
H48_15 H 0.0872 0.8010 0.6186
H58_15 H 0.1999 0.8573 0.5647
H59_15 H 0.0647 0.8001 0.6427
C137_15 C 0.1604(2) 0.8742(2) 0.5693(2)
C138_15 C 0.0693(2) 0.8396(2) 0.6258(2)
H69_15 H 0.1516 0.8587 0.5597
H70_15 H 0.0597 0.8484 0.6413
H80_15 H 0.1629 0.8896 0.5564
H81_15 H 0.0564 0.8371 0.6104
H91_15 H 0.1488 0.8801 0.5848
H92_15 H 0.0848 0.8512 0.6199
C148_15 C 0.21744(15) 0.83514(16) 0.61587(18)
C149_15 C 0.11587(18) 0.78256(15) 0.66486(16)
H102_15 H 0.2290 0.8280 0.6005
H103_15 H 0.1005 0.7710 0.6720
H113_15 H 0.2263 0.8522 0.6229
H114_15 H 0.1229 0.7737 0.6478
C159_15 C 0.21710(18) 0.8136(2) 0.63907(18)
C160_15 C 0.13907(18) 0.78290(18) 0.6864(2)
H124_15 H 0.2073 0.8212 0.6551
H125_15 H 0.1551 0.7927 0.6788
H135_15 H 0.2361 0.8090 0.6443
H136_15 H 0.1443 0.7639 0.6910
H146_15 H 0.2076 0.7969 0.6326
H147_15 H 0.1326 0.7924 0.7031
C170_33 C 0.3241(7) 1.0000 0.6582(7)
C171_33 C 0.3418(7) 1.0000 0.8241(7)
C172_33 C 0.1759(7) 1.0000 0.8418(7)
H158_33 H 0.344052 1 0.846522
H159_22 H 0.351619 0.9816 0.815564
H161_33 H 0.346522 1 0.655948
H162_22 H 0.315564 0.9816 0.648381
H167_33 H 0.153478 1 0.844052
H168_22 H 0.184436 0.9816 0.851619
H173_33 H 0.155948 1 0.653478
H174_22 H 0.148381 0.9816 0.684436
C1_16 C 0.75946(13) 0.04010(11) 0.68248(13)
C2_16 C 0.77833(12) 0.06201(12) 0.67121(13)
C3_16 C 0.80129(12) 0.07090(12) 0.68598(14)
H1_16 H 0.8062 0.0623 0.7029
C4_16 C 0.81685(13) 0.09245(12) 0.67562(13)
C5_16 C 0.81026(13) 0.10580(12) 0.65103(13)
C6_16 C 0.78735(13) 0.09622(13) 0.63590(14)
H2_16 H 0.7826 0.1046 0.6188
C7_16 C 0.77192(12) 0.07462(12) 0.64611(13)
H3_16 H 0.7565 0.0681 0.6358
C8_16 C 0.84277(14) 0.10417(13) 0.68853(14)
C9_16 C 0.83058(13) 0.12846(13) 0.64639(13)
C10_16 C 0.85034(13) 0.12719(13) 0.66822(13)
C11_16 C 0.86488(17) 0.08039(17) 0.6891(2)
H4_16 H 0.8814 0.0872 0.6990
H5_16 H 0.8573 0.0647 0.6999
C12_16 C 0.8742(2) 0.0693(2) 0.6604(2)
H6_16 H 0.8587 0.0597 0.6516
H7_16 H 0.8896 0.0564 0.6629
H8_16 H 0.8801 0.0848 0.6488
C13_16 C 0.83514(16) 0.11587(18) 0.71744(15)
H9_16 H 0.8280 0.1005 0.7290
H10_16 H 0.8522 0.1229 0.7263
C14_16 C 0.8136(2) 0.13907(18) 0.71710(18)
H11_16 H 0.8212 0.1551 0.7073
H12_16 H 0.8090 0.1443 0.7361
H13_16 H 0.7969 0.1326 0.7076
O10_7 O 0.97032(8) 0.20635(9) 0.73486(8)
O24_7 O 0.96692(8) 0.16972(8) 0.76145(8)
C17_16 C 0.81752(13) 0.24054(13) 0.54010(11)
C18_16 C 0.95990(11) 0.18248(13) 0.74054(13)
C27_16 C 0.82879(13) 0.22167(12) 0.56201(12)
C28_16 C 0.93799(12) 0.17121(13) 0.72167(12)
C38_16 C 0.81402(14) 0.19871(12) 0.57090(12)
C39_16 C 0.92910(12) 0.18598(14) 0.69871(12)
H14_16 H 0.7971 0.1938 0.5623
H15_16 H 0.9377 0.2029 0.6938
C49_16 C 0.82438(13) 0.18315(13) 0.59245(12)
C50_16 C 0.90755(12) 0.17562(13) 0.68315(13)
C60_16 C 0.89420(12) 0.15103(13) 0.68974(13)
C61_16 C 0.84897(13) 0.18974(13) 0.60580(12)
C71_16 C 0.90378(13) 0.13590(14) 0.71265(13)
C72_16 C 0.86410(14) 0.21265(13) 0.59622(13)
H25_16 H 0.8954 0.1188 0.7174
H26_16 H 0.8812 0.2174 0.6046
C82_16 C 0.92538(12) 0.14611(13) 0.72808(12)
C83_16 C 0.85389(13) 0.22808(12) 0.57462(12)
H36_16 H 0.9319 0.1358 0.7435
H37_16 H 0.8642 0.2435 0.5681
C93_16 C 0.81147(14) 0.15723(14) 0.60417(13)
C94_16 C 0.89583(13) 0.18853(14) 0.65723(14)
C104_16 C 0.87154(13) 0.14639(13) 0.66942(13)
C105_16 C 0.85361(13) 0.16942(13) 0.62846(13)
C115_16 C 0.83178(13) 0.14966(13) 0.62719(13)
C116_16 C 0.87281(13) 0.16822(13) 0.64966(13)
C126_16 C 0.8109(2) 0.13512(17) 0.58039(17)
C127_16 C 0.91961(17) 0.1891(2) 0.63512(17)
H47_16 H 0.8010 0.1186 0.5872
H48_16 H 0.9128 0.1990 0.6186
H58_16 H 0.8001 0.1427 0.5647
H59_16 H 0.9353 0.1999 0.6427
C137_16 C 0.8396(2) 0.1258(2) 0.5693(2)
C138_16 C 0.9307(2) 0.1604(2) 0.6258(2)
H69_16 H 0.8484 0.1413 0.5597
H70_16 H 0.9403 0.1516 0.6413
H80_16 H 0.8371 0.1104 0.5564
H81_16 H 0.9436 0.1629 0.6104
H91_16 H 0.8512 0.1199 0.5848
H92_16 H 0.9152 0.1488 0.6199
C148_16 C 0.78256(15) 0.16486(16) 0.61587(18)
C149_16 C 0.88413(18) 0.21744(15) 0.66486(16)
H102_16 H 0.7710 0.1720 0.6005
H103_16 H 0.8995 0.2290 0.6720
H113_16 H 0.7737 0.1478 0.6229
H114_16 H 0.8771 0.2263 0.6478
C159_16 C 0.78290(18) 0.1864(2) 0.63907(18)
C160_16 C 0.86093(18) 0.21710(18) 0.6864(2)
H124_16 H 0.7927 0.1788 0.6551
H125_16 H 0.8449 0.2073 0.6788
H135_16 H 0.7639 0.1910 0.6443
H136_16 H 0.8557 0.2361 0.6910
H146_16 H 0.7924 0.2031 0.6326
H147_16 H 0.8674 0.2076 0.7031
O4_34 O -0.0000 0.2500 0.7500
O5_34 O -0.0000 0.18148(17) 0.68103(19)
C15_34 C -0.0000 0.1759(7) 0.6582(7)
O7_20 O 0.02968(8) 0.20635(9) 0.73486(8)
O25_20 O 0.03308(8) 0.16972(8) 0.76145(8)
O36_34 O -0.0000 0.18103(19) 0.81852(17)
O37_34 O 0.0000 0.31897(19) 0.68148(17)
O38_34 O -0.0000 0.31852(17) 0.81897(19)
C170_34 C -0.0000 0.1582(7) 0.8241(7)
C171_34 C -0.0000 0.3241(7) 0.8418(7)
C172_34 C 0.0000 0.3418(7) 0.6759(7)
H157_23 H 0.0183997 0.315564 0.851619
H158_34 H 2.6019e-18 0.346522 0.844052
H160_23 H 0.0183997 0.148381 0.815564
H161_34 H 2.6019e-18 0.155948 0.846522
H166_23 H 0.0183997 0.351619 0.684436
H167_34 H 2.6019e-18 0.344052 0.653478
H172_23 H 0.0183997 0.184436 0.648381
H173_34 H 2.6019e-18 0.153478 0.655948
O4_35 O 1.0000 0.2500 0.7500
O5_35 O 1.0000 0.18148(17) 0.68103(19)
C15_35 C 1.0000 0.1759(7) 0.6582(7)
O6_23 O 0.97032(8) 0.26514(8) 0.70635(9)
O11_23 O 0.97032(8) 0.23486(8) 0.79365(9)
O14_23 O 0.97032(8) 0.29365(9) 0.76514(8)
O21_23 O 0.96692(8) 0.23855(8) 0.66972(8)
O27_23 O 0.96692(8) 0.33028(8) 0.73855(8)
O28_23 O 0.96692(8) 0.26145(8) 0.83028(8)
O36_35 O 1.0000 0.18103(19) 0.81852(17)
O37_35 O 1.0000 0.31897(19) 0.68148(17)
O38_35 O 1.0000 0.31852(17) 0.81897(19)
C170_35 C 1.0000 0.1582(7) 0.8241(7)
C171_35 C 1.0000 0.3241(7) 0.8418(7)
C172_35 C 1.0000 0.3418(7) 0.6759(7)
H158_35 H 1 0.346522 0.844052
H159_23 H 0.9816 0.315564 0.851619
H161_35 H 1 0.155948 0.846522
H162_23 H 0.9816 0.148381 0.815564
H167_35 H 1 0.344052 0.653478
H168_23 H 0.9816 0.351619 0.684436
H173_35 H 1 0.153478 0.655948
H174_23 H 0.9816 0.184436 0.648381
O4_36 O 0.2500 0.2500 0.5000
O5_36 O 0.18148(17) 0.18103(19) 0.5000
C15_36 C 0.1759(7) 0.1582(7) 0.5000
O6_24 O 0.26514(8) 0.20635(9) 0.47032(8)
O7_21 O 0.20635(9) 0.23486(8) 0.52968(8)
O11_24 O 0.23486(8) 0.29365(9) 0.47032(8)
O14_24 O 0.29365(9) 0.26514(8) 0.47032(8)
O21_24 O 0.23855(8) 0.16972(8) 0.46692(8)
O25_21 O 0.16972(8) 0.26145(8) 0.53308(8)
O27_24 O 0.33028(8) 0.23855(8) 0.46692(8)
O28_24 O 0.26145(8) 0.33028(8) 0.46692(8)
O36_36 O 0.18103(19) 0.31852(17) 0.5000
O37_36 O 0.31897(19) 0.18148(17) 0.5000
O38_36 O 0.31852(17) 0.31897(19) 0.5000
C170_36 C 0.1582(7) 0.3241(7) 0.5000
C171_36 C 0.3241(7) 0.3418(7) 0.5000
C172_36 C 0.3418(7) 0.1759(7) 0.5000
H157_24 H 0.315564 0.351619 0.5184
H158_36 H 0.346522 0.344052 0.5
H159_24 H 0.315564 0.351619 0.4816
H160_24 H 0.148381 0.315564 0.5184
H161_36 H 0.155948 0.346522 0.5
H162_24 H 0.148381 0.315564 0.4816
H166_24 H 0.351619 0.184436 0.5184
H167_36 H 0.344052 0.153478 0.5
H168_24 H 0.351619 0.184436 0.4816
H172_24 H 0.184436 0.148381 0.5184
H173_36 H 0.153478 0.155948 0.5
H174_24 H 0.184436 0.148381 0.4816
C19_11 C 0.04010(11) 0.68248(13) 0.24054(13)
C20_11 C 0.24054(13) 0.54010(11) 0.18248(13)
C21_11 C 0.18248(13) 0.74054(13) 0.04010(11)
C29_11 C 0.06201(12) 0.67121(13) 0.22167(12)
C30_11 C 0.22167(12) 0.56201(12) 0.17121(13)
C31_11 C 0.17121(13) 0.72167(12) 0.06201(12)
C40_11 C 0.07090(12) 0.68598(14) 0.19871(12)
C41_11 C 0.19871(12) 0.57090(12) 0.18598(14)
C42_11 C 0.18598(14) 0.69871(12) 0.07090(12)
H16_11 H 0.0623 0.7029 0.1938
H17_11 H 0.1938 0.5623 0.2029
H18_11 H 0.2029 0.6938 0.0623
C51_11 C 0.09245(12) 0.67562(13) 0.18315(13)
C52_11 C 0.18315(13) 0.59245(12) 0.17562(13)
C53_11 C 0.17562(13) 0.68315(13) 0.09245(12)
C62_11 C 0.10580(12) 0.65103(13) 0.18974(13)
C63_11 C 0.15103(13) 0.68974(13) 0.10580(12)
C64_11 C 0.18974(13) 0.60580(12) 0.15103(13)
C73_11 C 0.09622(13) 0.63590(14) 0.21265(13)
C74_11 C 0.13590(14) 0.71265(13) 0.09622(13)
C75_11 C 0.21265(13) 0.59622(13) 0.13590(14)
H27_11 H 0.1046 0.6188 0.2174
H28_11 H 0.1188 0.7174 0.1046
H29_11 H 0.2174 0.6046 0.1188
C84_11 C 0.07462(12) 0.64611(13) 0.22808(12)
C85_11 C 0.14611(13) 0.72808(12) 0.07462(12)
C86_11 C 0.22808(12) 0.57462(12) 0.14611(13)
H38_11 H 0.0681 0.6358 0.2435
H39_11 H 0.1358 0.7435 0.0681
H40_11 H 0.2435 0.5681 0.1358
C95_11 C 0.10417(13) 0.68853(14) 0.15723(14)
C96_11 C 0.15723(14) 0.60417(13) 0.18853(14)
C97_11 C 0.18853(14) 0.65723(14) 0.10417(13)
C106_11 C 0.12846(13) 0.64639(13) 0.16942(13)
C107_11 C 0.14639(13) 0.66942(13) 0.12846(13)
C108_11 C 0.16942(13) 0.62846(13) 0.14639(13)
C117_11 C 0.12719(13) 0.66822(13) 0.14966(13)
C118_11 C 0.14966(13) 0.62719(13) 0.16822(13)
C119_11 C 0.16822(13) 0.64966(13) 0.12719(13)
C128_11 C 0.08039(17) 0.6891(2) 0.13512(17)
C129_11 C 0.13512(17) 0.58039(17) 0.1891(2)
C130_11 C 0.1891(2) 0.63512(17) 0.08039(17)
H49_11 H 0.0872 0.6990 0.1186
H50_11 H 0.1186 0.5872 0.1990
H51_11 H 0.1990 0.6186 0.0872
H60_11 H 0.0647 0.6999 0.1427
H61_11 H 0.1427 0.5647 0.1999
H62_11 H 0.1999 0.6427 0.0647
C139_11 C 0.0693(2) 0.6604(2) 0.1258(2)
C140_11 C 0.1258(2) 0.5693(2) 0.1604(2)
C141_11 C 0.1604(2) 0.6258(2) 0.0693(2)
H71_11 H 0.0597 0.6516 0.1413
H72_11 H 0.1413 0.5597 0.1516
H73_11 H 0.1516 0.6413 0.0597
H82_11 H 0.0564 0.6629 0.1104
H83_11 H 0.1104 0.5564 0.1629
H84_11 H 0.1629 0.6104 0.0564
H93_11 H 0.0848 0.6488 0.1199
H94_11 H 0.1199 0.5848 0.1488
H95_11 H 0.1488 0.6199 0.0848
C150_11 C 0.11587(18) 0.71744(15) 0.16486(16)
C151_11 C 0.16486(16) 0.61587(18) 0.21744(15)
C152_11 C 0.21744(15) 0.66486(16) 0.11587(18)
H104_11 H 0.1005 0.7290 0.1720
H105_11 H 0.1720 0.6005 0.2290
H106_11 H 0.2290 0.6720 0.1005
H115_11 H 0.1229 0.7263 0.1478
H116_11 H 0.1478 0.6229 0.2263
H117_11 H 0.2263 0.6478 0.1229
C161_11 C 0.13907(18) 0.71710(18) 0.1864(2)
C162_11 C 0.1864(2) 0.63907(18) 0.21710(18)
C163_11 C 0.21710(18) 0.6864(2) 0.13907(18)
H126_11 H 0.1551 0.7073 0.1788
H127_11 H 0.1788 0.6551 0.2073
H128_11 H 0.2073 0.6788 0.1551
H137_11 H 0.1443 0.7361 0.1910
H138_11 H 0.1910 0.6443 0.2361
H139_11 H 0.2361 0.6910 0.1443
H148_11 H 0.1326 0.7076 0.2031
H149_11 H 0.2031 0.6326 0.2076
H150_11 H 0.2076 0.7031 0.1326
C1_17 C 0.95990(11) 0.75946(13) 0.18248(13)
C2_17 C 0.93799(12) 0.77833(12) 0.17121(13)
C3_17 C 0.92910(12) 0.80129(12) 0.18598(14)
H1_17 H 0.9377 0.8062 0.2029
C4_17 C 0.90755(12) 0.81685(13) 0.17562(13)
C5_17 C 0.89420(12) 0.81026(13) 0.15103(13)
C6_17 C 0.90378(13) 0.78735(13) 0.13590(14)
H2_17 H 0.8954 0.7826 0.1188
C7_17 C 0.92538(12) 0.77192(12) 0.14611(13)
H3_17 H 0.9319 0.7565 0.1358
C8_17 C 0.89583(13) 0.84277(14) 0.18853(14)
C9_17 C 0.87154(13) 0.83058(13) 0.14639(13)
C10_17 C 0.87281(13) 0.85034(13) 0.16822(13)
C11_17 C 0.91961(17) 0.86488(17) 0.1891(2)
H4_17 H 0.9128 0.8814 0.1990
H5_17 H 0.9353 0.8573 0.1999
C12_17 C 0.9307(2) 0.8742(2) 0.1604(2)
H6_17 H 0.9403 0.8587 0.1516
H7_17 H 0.9436 0.8896 0.1629
H8_17 H 0.9152 0.8801 0.1488
C13_17 C 0.88413(18) 0.83514(16) 0.21744(15)
H9_17 H 0.8995 0.8280 0.2290
H10_17 H 0.8771 0.8522 0.2263
C14_17 C 0.86093(18) 0.8136(2) 0.21710(18)
H11_17 H 0.8449 0.8212 0.2073
H12_17 H 0.8557 0.8090 0.2361
H13_17 H 0.8674 0.7969 0.2076
C17_17 C 0.75946(13) 0.81752(13) 0.04010(11)
C18_17 C 0.81752(13) 0.95990(11) 0.24054(13)
C27_17 C 0.77833(12) 0.82879(13) 0.06201(12)
C28_17 C 0.82879(13) 0.93799(12) 0.22167(12)
C38_17 C 0.80129(12) 0.81402(14) 0.07090(12)
C39_17 C 0.81402(14) 0.92910(12) 0.19871(12)
H14_17 H 0.8062 0.7971 0.0623
H15_17 H 0.7971 0.9377 0.1938
C49_17 C 0.81685(13) 0.82438(13) 0.09245(12)
C50_17 C 0.82438(13) 0.90755(12) 0.18315(13)
C60_17 C 0.84897(13) 0.89420(12) 0.18974(13)
C61_17 C 0.81026(13) 0.84897(13) 0.10580(12)
C71_17 C 0.86410(14) 0.90378(13) 0.21265(13)
C72_17 C 0.78735(13) 0.86410(14) 0.09622(13)
H25_17 H 0.8812 0.8954 0.2174
H26_17 H 0.7826 0.8812 0.1046
C82_17 C 0.85389(13) 0.92538(12) 0.22808(12)
C83_17 C 0.77192(12) 0.85389(13) 0.07462(12)
H36_17 H 0.8642 0.9319 0.2435
H37_17 H 0.7565 0.8642 0.0681
C93_17 C 0.84277(14) 0.81147(14) 0.10417(13)
C94_17 C 0.81147(14) 0.89583(13) 0.15723(14)
C104_17 C 0.85361(13) 0.87154(13) 0.16942(13)
C105_17 C 0.83058(13) 0.85361(13) 0.12846(13)
C115_17 C 0.85034(13) 0.83178(13) 0.12719(13)
C116_17 C 0.83178(13) 0.87281(13) 0.14966(13)
C126_17 C 0.86488(17) 0.8109(2) 0.08039(17)
C127_17 C 0.8109(2) 0.91961(17) 0.13512(17)
H47_17 H 0.8814 0.8010 0.0872
H48_17 H 0.8010 0.9128 0.1186
H58_17 H 0.8573 0.8001 0.0647
H59_17 H 0.8001 0.9353 0.1427
C137_17 C 0.8742(2) 0.8396(2) 0.0693(2)
C138_17 C 0.8396(2) 0.9307(2) 0.1258(2)
H69_17 H 0.8587 0.8484 0.0597
H70_17 H 0.8484 0.9403 0.1413
H80_17 H 0.8896 0.8371 0.0564
H81_17 H 0.8371 0.9436 0.1104
H91_17 H 0.8801 0.8512 0.0848
H92_17 H 0.8512 0.9152 0.1199
C148_17 C 0.83514(16) 0.78256(15) 0.11587(18)
C149_17 C 0.78256(15) 0.88413(18) 0.16486(16)
H102_17 H 0.8280 0.7710 0.1005
H103_17 H 0.7710 0.8995 0.1720
H113_17 H 0.8522 0.7737 0.1229
H114_17 H 0.7737 0.8771 0.1478
C159_17 C 0.8136(2) 0.78290(18) 0.13907(18)
C160_17 C 0.78290(18) 0.86093(18) 0.1864(2)
H124_17 H 0.8212 0.7927 0.1551
H125_17 H 0.7927 0.8449 0.1788
H135_17 H 0.8090 0.7639 0.1443
H136_17 H 0.7639 0.8557 0.1910
H146_17 H 0.7969 0.7924 0.1326
H147_17 H 0.7924 0.8674 0.2031
C16_11 C 0.04010(11) 0.18248(13) 0.74054(13)
C22_11 C 0.24054(13) 0.04010(11) 0.68248(13)
C23_11 C 0.18248(13) 0.24054(13) 0.54010(11)
C32_11 C 0.06201(12) 0.17121(13) 0.72167(12)
C33_11 C 0.22167(12) 0.06201(12) 0.67121(13)
C34_11 C 0.17121(13) 0.22167(12) 0.56201(12)
C43_11 C 0.07090(12) 0.18598(14) 0.69871(12)
C44_11 C 0.19871(12) 0.07090(12) 0.68598(14)
C45_11 C 0.18598(14) 0.19871(12) 0.57090(12)
H19_11 H 0.0623 0.2029 0.6938
H20_11 H 0.1938 0.0623 0.7029
H21_11 H 0.2029 0.1938 0.5623
C54_11 C 0.09245(12) 0.17562(13) 0.68315(13)
C55_11 C 0.18315(13) 0.09245(12) 0.67562(13)
C56_11 C 0.17562(13) 0.18315(13) 0.59245(12)
C65_11 C 0.10580(12) 0.15103(13) 0.68974(13)
C66_11 C 0.15103(13) 0.18974(13) 0.60580(12)
C67_11 C 0.18974(13) 0.10580(12) 0.65103(13)
C76_11 C 0.09622(13) 0.13590(14) 0.71265(13)
C77_11 C 0.13590(14) 0.21265(13) 0.59622(13)
C78_11 C 0.21265(13) 0.09622(13) 0.63590(14)
H30_11 H 0.1046 0.1188 0.7174
H31_11 H 0.1188 0.2174 0.6046
H32_11 H 0.2174 0.1046 0.6188
C87_11 C 0.07462(12) 0.14611(13) 0.72808(12)
C88_11 C 0.14611(13) 0.22808(12) 0.57462(12)
C89_11 C 0.22808(12) 0.07462(12) 0.64611(13)
H41_11 H 0.0681 0.1358 0.7435
H42_11 H 0.1358 0.2435 0.5681
H43_11 H 0.2435 0.0681 0.6358
C98_11 C 0.10417(13) 0.18853(14) 0.65723(14)
C99_11 C 0.15723(14) 0.10417(13) 0.68853(14)
C100_11 C 0.18853(14) 0.15723(14) 0.60417(13)
C109_11 C 0.12846(13) 0.14639(13) 0.66942(13)
C110_11 C 0.14639(13) 0.16942(13) 0.62846(13)
C111_11 C 0.16942(13) 0.12846(13) 0.64639(13)
C120_11 C 0.12719(13) 0.16822(13) 0.64966(13)
C121_11 C 0.14966(13) 0.12719(13) 0.66822(13)
C122_11 C 0.16822(13) 0.14966(13) 0.62719(13)
C131_11 C 0.08039(17) 0.1891(2) 0.63512(17)
C132_11 C 0.13512(17) 0.08039(17) 0.6891(2)
C133_11 C 0.1891(2) 0.13512(17) 0.58039(17)
H52_11 H 0.0872 0.1990 0.6186
H53_11 H 0.1186 0.0872 0.6990
H54_11 H 0.1990 0.1186 0.5872
H63_11 H 0.0647 0.1999 0.6427
H64_11 H 0.1427 0.0647 0.6999
H65_11 H 0.1999 0.1427 0.5647
C142_11 C 0.0693(2) 0.1604(2) 0.6258(2)
C143_11 C 0.1258(2) 0.0693(2) 0.6604(2)
C144_11 C 0.1604(2) 0.1258(2) 0.5693(2)
H74_11 H 0.0597 0.1516 0.6413
H75_11 H 0.1413 0.0597 0.6516
H76_11 H 0.1516 0.1413 0.5597
H85_11 H 0.0564 0.1629 0.6104
H86_11 H 0.1104 0.0564 0.6629
H87_11 H 0.1629 0.1104 0.5564
H96_11 H 0.0848 0.1488 0.6199
H97_11 H 0.1199 0.0848 0.6488
H98_11 H 0.1488 0.1199 0.5848
C153_11 C 0.11587(18) 0.21744(15) 0.66486(16)
C154_11 C 0.16486(16) 0.11587(18) 0.71744(15)
C155_11 C 0.21744(15) 0.16486(16) 0.61587(18)
H107_11 H 0.1005 0.2290 0.6720
H108_11 H 0.1720 0.1005 0.7290
H109_11 H 0.2290 0.1720 0.6005
H118_11 H 0.1229 0.2263 0.6478
H119_11 H 0.1478 0.1229 0.7263
H120_11 H 0.2263 0.1478 0.6229
C164_11 C 0.13907(18) 0.21710(18) 0.6864(2)
C165_11 C 0.1864(2) 0.13907(18) 0.71710(18)
C166_11 C 0.21710(18) 0.1864(2) 0.63907(18)
H129_11 H 0.1551 0.2073 0.6788
H130_11 H 0.1788 0.1551 0.7073
H131_11 H 0.2073 0.1788 0.6551
H140_11 H 0.1443 0.2361 0.6910
H141_11 H 0.1910 0.1443 0.7361
H142_11 H 0.2361 0.1910 0.6443
H151_11 H 0.1326 0.2076 0.7031
H152_11 H 0.2031 0.1326 0.7076
H153_11 H 0.2076 0.2031 0.6326
C1_18 C 0.95990(11) 0.24054(13) 0.81752(13)
C2_18 C 0.93799(12) 0.22167(12) 0.82879(13)
C3_18 C 0.92910(12) 0.19871(12) 0.81402(14)
H1_18 H 0.9377 0.1938 0.7971
C4_18 C 0.90755(12) 0.18315(13) 0.82438(13)
C5_18 C 0.89420(12) 0.18974(13) 0.84897(13)
C6_18 C 0.90378(13) 0.21265(13) 0.86410(14)
H2_18 H 0.8954 0.2174 0.8812
C7_18 C 0.92538(12) 0.22808(12) 0.85389(13)
H3_18 H 0.9319 0.2435 0.8642
C8_18 C 0.89583(13) 0.15723(14) 0.81147(14)
C9_18 C 0.87154(13) 0.16942(13) 0.85361(13)
C10_18 C 0.87281(13) 0.14966(13) 0.83178(13)
C11_18 C 0.91961(17) 0.13512(17) 0.8109(2)
H4_18 H 0.9128 0.1186 0.8010
H5_18 H 0.9353 0.1427 0.8001
C12_18 C 0.9307(2) 0.1258(2) 0.8396(2)
H6_18 H 0.9403 0.1413 0.8484
H7_18 H 0.9436 0.1104 0.8371
H8_18 H 0.9152 0.1199 0.8512
C13_18 C 0.88413(18) 0.16486(16) 0.78256(15)
H9_18 H 0.8995 0.1720 0.7710
H10_18 H 0.8771 0.1478 0.7737
C14_18 C 0.86093(18) 0.1864(2) 0.78290(18)
H11_18 H 0.8449 0.1788 0.7927
H12_18 H 0.8557 0.1910 0.7639
H13_18 H 0.8674 0.2031 0.7924
C17_18 C 0.75946(13) 0.18248(13) 0.95990(11)
C18_18 C 0.81752(13) 0.04010(11) 0.75946(13)
C27_18 C 0.77833(12) 0.17121(13) 0.93799(12)
C28_18 C 0.82879(13) 0.06201(12) 0.77833(12)
C38_18 C 0.80129(12) 0.18598(14) 0.92910(12)
C39_18 C 0.81402(14) 0.07090(12) 0.80129(12)
H14_18 H 0.8062 0.2029 0.9377
H15_18 H 0.7971 0.0623 0.8062
C49_18 C 0.81685(13) 0.17562(13) 0.90755(12)
C50_18 C 0.82438(13) 0.09245(12) 0.81685(13)
C60_18 C 0.84897(13) 0.10580(12) 0.81026(13)
C61_18 C 0.81026(13) 0.15103(13) 0.89420(12)
C71_18 C 0.86410(14) 0.09622(13) 0.78735(13)
C72_18 C 0.78735(13) 0.13590(14) 0.90378(13)
H25_18 H 0.8812 0.1046 0.7826
H26_18 H 0.7826 0.1188 0.8954
C82_18 C 0.85389(13) 0.07462(12) 0.77192(12)
C83_18 C 0.77192(12) 0.14611(13) 0.92538(12)
H36_18 H 0.8642 0.0681 0.7565
H37_18 H 0.7565 0.1358 0.9319
C93_18 C 0.84277(14) 0.18853(14) 0.89583(13)
C94_18 C 0.81147(14) 0.10417(13) 0.84277(14)
C104_18 C 0.85361(13) 0.12846(13) 0.83058(13)
C105_18 C 0.83058(13) 0.14639(13) 0.87154(13)
C115_18 C 0.85034(13) 0.16822(13) 0.87281(13)
C116_18 C 0.83178(13) 0.12719(13) 0.85034(13)
C126_18 C 0.86488(17) 0.1891(2) 0.91961(17)
C127_18 C 0.8109(2) 0.08039(17) 0.86488(17)
H47_18 H 0.8814 0.1990 0.9128
H48_18 H 0.8010 0.0872 0.8814
H58_18 H 0.8573 0.1999 0.9353
H59_18 H 0.8001 0.0647 0.8573
C137_18 C 0.8742(2) 0.1604(2) 0.9307(2)
C138_18 C 0.8396(2) 0.0693(2) 0.8742(2)
H69_18 H 0.8587 0.1516 0.9403
H70_18 H 0.8484 0.0597 0.8587
H80_18 H 0.8896 0.1629 0.9436
H81_18 H 0.8371 0.0564 0.8896
H91_18 H 0.8801 0.1488 0.9152
H92_18 H 0.8512 0.0848 0.8801
C148_18 C 0.83514(16) 0.21744(15) 0.88413(18)
C149_18 C 0.78256(15) 0.11587(18) 0.83514(16)
H102_18 H 0.8280 0.2290 0.8995
H103_18 H 0.7710 0.1005 0.8280
H113_18 H 0.8522 0.2263 0.8771
H114_18 H 0.7737 0.1229 0.8522
C159_18 C 0.8136(2) 0.21710(18) 0.86093(18)
C160_18 C 0.78290(18) 0.13907(18) 0.8136(2)
H124_18 H 0.8212 0.2073 0.8449
H125_18 H 0.7927 0.1551 0.8212
H135_18 H 0.8090 0.2361 0.8557
H136_18 H 0.7639 0.1443 0.8090
H146_18 H 0.7969 0.2076 0.8674
H147_18 H 0.7924 0.1326 0.7969
C1_19 C 0.04010(11) 0.75946(13) 0.81752(13)
C2_19 C 0.06201(12) 0.77833(12) 0.82879(13)
C3_19 C 0.07090(12) 0.80129(12) 0.81402(14)
H1_19 H 0.0623 0.8062 0.7971
C4_19 C 0.09245(12) 0.81685(13) 0.82438(13)
C5_19 C 0.10580(12) 0.81026(13) 0.84897(13)
C6_19 C 0.09622(13) 0.78735(13) 0.86410(14)
H2_19 H 0.1046 0.7826 0.8812
C7_19 C 0.07462(12) 0.77192(12) 0.85389(13)
H3_19 H 0.0681 0.7565 0.8642
C8_19 C 0.10417(13) 0.84277(14) 0.81147(14)
C9_19 C 0.12846(13) 0.83058(13) 0.85361(13)
C10_19 C 0.12719(13) 0.85034(13) 0.83178(13)
C11_19 C 0.08039(17) 0.86488(17) 0.8109(2)
H4_19 H 0.0872 0.8814 0.8010
H5_19 H 0.0647 0.8573 0.8001
C12_19 C 0.0693(2) 0.8742(2) 0.8396(2)
H6_19 H 0.0597 0.8587 0.8484
H7_19 H 0.0564 0.8896 0.8371
H8_19 H 0.0848 0.8801 0.8512
C13_19 C 0.11587(18) 0.83514(16) 0.78256(15)
H9_19 H 0.1005 0.8280 0.7710
H10_19 H 0.1229 0.8522 0.7737
C14_19 C 0.13907(18) 0.8136(2) 0.78290(18)
H11_19 H 0.1551 0.8212 0.7927
H12_19 H 0.1443 0.8090 0.7639
H13_19 H 0.1326 0.7969 0.7924
C17_19 C 0.24054(13) 0.81752(13) 0.95990(11)
C18_19 C 0.18248(13) 0.95990(11) 0.75946(13)
C27_19 C 0.22167(12) 0.82879(13) 0.93799(12)
C28_19 C 0.17121(13) 0.93799(12) 0.77833(12)
C38_19 C 0.19871(12) 0.81402(14) 0.92910(12)
C39_19 C 0.18598(14) 0.92910(12) 0.80129(12)
H14_19 H 0.1938 0.7971 0.9377
H15_19 H 0.2029 0.9377 0.8062
C49_19 C 0.18315(13) 0.82438(13) 0.90755(12)
C50_19 C 0.17562(13) 0.90755(12) 0.81685(13)
C60_19 C 0.15103(13) 0.89420(12) 0.81026(13)
C61_19 C 0.18974(13) 0.84897(13) 0.89420(12)
C71_19 C 0.13590(14) 0.90378(13) 0.78735(13)
C72_19 C 0.21265(13) 0.86410(14) 0.90378(13)
H25_19 H 0.1188 0.8954 0.7826
H26_19 H 0.2174 0.8812 0.8954
C82_19 C 0.14611(13) 0.92538(12) 0.77192(12)
C83_19 C 0.22808(12) 0.85389(13) 0.92538(12)
H36_19 H 0.1358 0.9319 0.7565
H37_19 H 0.2435 0.8642 0.9319
C93_19 C 0.15723(14) 0.81147(14) 0.89583(13)
C94_19 C 0.18853(14) 0.89583(13) 0.84277(14)
C104_19 C 0.14639(13) 0.87154(13) 0.83058(13)
C105_19 C 0.16942(13) 0.85361(13) 0.87154(13)
C115_19 C 0.14966(13) 0.83178(13) 0.87281(13)
C116_19 C 0.16822(13) 0.87281(13) 0.85034(13)
C126_19 C 0.13512(17) 0.8109(2) 0.91961(17)
C127_19 C 0.1891(2) 0.91961(17) 0.86488(17)
H47_19 H 0.1186 0.8010 0.9128
H48_19 H 0.1990 0.9128 0.8814
H58_19 H 0.1427 0.8001 0.9353
H59_19 H 0.1999 0.9353 0.8573
C137_19 C 0.1258(2) 0.8396(2) 0.9307(2)
C138_19 C 0.1604(2) 0.9307(2) 0.8742(2)
H69_19 H 0.1413 0.8484 0.9403
H70_19 H 0.1516 0.9403 0.8587
H80_19 H 0.1104 0.8371 0.9436
H81_19 H 0.1629 0.9436 0.8896
H91_19 H 0.1199 0.8512 0.9152
H92_19 H 0.1488 0.9152 0.8801
C148_19 C 0.16486(16) 0.78256(15) 0.88413(18)
C149_19 C 0.21744(15) 0.88413(18) 0.83514(16)
H102_19 H 0.1720 0.7710 0.8995
H103_19 H 0.2290 0.8995 0.8280
H113_19 H 0.1478 0.7737 0.8771
H114_19 H 0.2263 0.8771 0.8522
C159_19 C 0.1864(2) 0.78290(18) 0.86093(18)
C160_19 C 0.21710(18) 0.86093(18) 0.8136(2)
H124_19 H 0.1788 0.7927 0.8449
H125_19 H 0.2073 0.8449 0.8212
H135_19 H 0.1910 0.7639 0.8557
H136_19 H 0.2361 0.8557 0.8090
H146_19 H 0.2031 0.7924 0.8674
H147_19 H 0.2076 0.8674 0.7969
C16_12 C 0.74054(13) 0.04010(11) 0.18248(13)
C22_12 C 0.68248(13) 0.24054(13) 0.04010(11)
C23_12 C 0.54010(11) 0.18248(13) 0.24054(13)
C32_12 C 0.72167(12) 0.06201(12) 0.17121(13)
C33_12 C 0.67121(13) 0.22167(12) 0.06201(12)
C34_12 C 0.56201(12) 0.17121(13) 0.22167(12)
C43_12 C 0.69871(12) 0.07090(12) 0.18598(14)
C44_12 C 0.68598(14) 0.19871(12) 0.07090(12)
C45_12 C 0.57090(12) 0.18598(14) 0.19871(12)
H19_12 H 0.6938 0.0623 0.2029
H20_12 H 0.7029 0.1938 0.0623
H21_12 H 0.5623 0.2029 0.1938
C54_12 C 0.68315(13) 0.09245(12) 0.17562(13)
C55_12 C 0.67562(13) 0.18315(13) 0.09245(12)
C56_12 C 0.59245(12) 0.17562(13) 0.18315(13)
C65_12 C 0.68974(13) 0.10580(12) 0.15103(13)
C66_12 C 0.60580(12) 0.15103(13) 0.18974(13)
C67_12 C 0.65103(13) 0.18974(13) 0.10580(12)
C76_12 C 0.71265(13) 0.09622(13) 0.13590(14)
C77_12 C 0.59622(13) 0.13590(14) 0.21265(13)
C78_12 C 0.63590(14) 0.21265(13) 0.09622(13)
H30_12 H 0.7174 0.1046 0.1188
H31_12 H 0.6046 0.1188 0.2174
H32_12 H 0.6188 0.2174 0.1046
C87_12 C 0.72808(12) 0.07462(12) 0.14611(13)
C88_12 C 0.57462(12) 0.14611(13) 0.22808(12)
C89_12 C 0.64611(13) 0.22808(12) 0.07462(12)
H41_12 H 0.7435 0.0681 0.1358
H42_12 H 0.5681 0.1358 0.2435
H43_12 H 0.6358 0.2435 0.0681
C98_12 C 0.65723(14) 0.10417(13) 0.18853(14)
C99_12 C 0.68853(14) 0.15723(14) 0.10417(13)
C100_12 C 0.60417(13) 0.18853(14) 0.15723(14)
C109_12 C 0.66942(13) 0.12846(13) 0.14639(13)
C110_12 C 0.62846(13) 0.14639(13) 0.16942(13)
C111_12 C 0.64639(13) 0.16942(13) 0.12846(13)
C120_12 C 0.64966(13) 0.12719(13) 0.16822(13)
C121_12 C 0.66822(13) 0.14966(13) 0.12719(13)
C122_12 C 0.62719(13) 0.16822(13) 0.14966(13)
C131_12 C 0.63512(17) 0.08039(17) 0.1891(2)
C132_12 C 0.6891(2) 0.13512(17) 0.08039(17)
C133_12 C 0.58039(17) 0.1891(2) 0.13512(17)
H52_12 H 0.6186 0.0872 0.1990
H53_12 H 0.6990 0.1186 0.0872
H54_12 H 0.5872 0.1990 0.1186
H63_12 H 0.6427 0.0647 0.1999
H64_12 H 0.6999 0.1427 0.0647
H65_12 H 0.5647 0.1999 0.1427
C142_12 C 0.6258(2) 0.0693(2) 0.1604(2)
C143_12 C 0.6604(2) 0.1258(2) 0.0693(2)
C144_12 C 0.5693(2) 0.1604(2) 0.1258(2)
H74_12 H 0.6413 0.0597 0.1516
H75_12 H 0.6516 0.1413 0.0597
H76_12 H 0.5597 0.1516 0.1413
H85_12 H 0.6104 0.0564 0.1629
H86_12 H 0.6629 0.1104 0.0564
H87_12 H 0.5564 0.1629 0.1104
H96_12 H 0.6199 0.0848 0.1488
H97_12 H 0.6488 0.1199 0.0848
H98_12 H 0.5848 0.1488 0.1199
C153_12 C 0.66486(16) 0.11587(18) 0.21744(15)
C154_12 C 0.71744(15) 0.16486(16) 0.11587(18)
C155_12 C 0.61587(18) 0.21744(15) 0.16486(16)
H107_12 H 0.6720 0.1005 0.2290
H108_12 H 0.7290 0.1720 0.1005
H109_12 H 0.6005 0.2290 0.1720
H118_12 H 0.6478 0.1229 0.2263
H119_12 H 0.7263 0.1478 0.1229
H120_12 H 0.6229 0.2263 0.1478
C164_12 C 0.6864(2) 0.13907(18) 0.21710(18)
C165_12 C 0.71710(18) 0.1864(2) 0.13907(18)
C166_12 C 0.63907(18) 0.21710(18) 0.1864(2)
H129_12 H 0.6788 0.1551 0.2073
H130_12 H 0.7073 0.1788 0.1551
H131_12 H 0.6551 0.2073 0.1788
H140_12 H 0.6910 0.1443 0.2361
H141_12 H 0.7361 0.1910 0.1443
H142_12 H 0.6443 0.2361 0.1910
H151_12 H 0.7031 0.1326 0.2076
H152_12 H 0.7076 0.2031 0.1326
H153_12 H 0.6326 0.2076 0.2031
C1_20 C 0.25946(13) 0.45990(11) 0.31752(13)
C2_20 C 0.27833(12) 0.43799(12) 0.32879(13)
C3_20 C 0.30129(12) 0.42910(12) 0.31402(14)
H1_20 H 0.3062 0.4377 0.2971
C4_20 C 0.31685(13) 0.40755(12) 0.32438(13)
C5_20 C 0.31026(13) 0.39420(12) 0.34897(13)
C6_20 C 0.28735(13) 0.40378(13) 0.36410(14)
H2_20 H 0.2826 0.3954 0.3812
C7_20 C 0.27192(12) 0.42538(12) 0.35389(13)
H3_20 H 0.2565 0.4319 0.3642
C8_20 C 0.34277(14) 0.39583(13) 0.31147(14)
C9_20 C 0.33058(13) 0.37154(13) 0.35361(13)
C10_20 C 0.35034(13) 0.37281(13) 0.33178(13)
C11_20 C 0.36488(17) 0.41961(17) 0.3109(2)
H4_20 H 0.3814 0.4128 0.3010
H5_20 H 0.3573 0.4353 0.3001
C12_20 C 0.3742(2) 0.4307(2) 0.3396(2)
H6_20 H 0.3587 0.4403 0.3484
H7_20 H 0.3896 0.4436 0.3371
H8_20 H 0.3801 0.4152 0.3512
C13_20 C 0.33514(16) 0.38413(18) 0.28256(15)
H9_20 H 0.3280 0.3995 0.2710
H10_20 H 0.3522 0.3771 0.2737
C14_20 C 0.3136(2) 0.36093(18) 0.28290(18)
H11_20 H 0.3212 0.3449 0.2927
H12_20 H 0.3090 0.3557 0.2639
H13_20 H 0.2969 0.3674 0.2924
C17_20 C 0.31752(13) 0.25946(13) 0.45990(11)
C18_20 C 0.45990(11) 0.31752(13) 0.25946(13)
C27_20 C 0.32879(13) 0.27833(12) 0.43799(12)
C28_20 C 0.43799(12) 0.32879(13) 0.27833(12)
C38_20 C 0.31402(14) 0.30129(12) 0.42910(12)
C39_20 C 0.42910(12) 0.31402(14) 0.30129(12)
H14_20 H 0.2971 0.3062 0.4377
H15_20 H 0.4377 0.2971 0.3062
C49_20 C 0.32438(13) 0.31685(13) 0.40755(12)
C50_20 C 0.40755(12) 0.32438(13) 0.31685(13)
C60_20 C 0.39420(12) 0.34897(13) 0.31026(13)
C61_20 C 0.34897(13) 0.31026(13) 0.39420(12)
C71_20 C 0.40378(13) 0.36410(14) 0.28735(13)
C72_20 C 0.36410(14) 0.28735(13) 0.40378(13)
H25_20 H 0.3954 0.3812 0.2826
H26_20 H 0.3812 0.2826 0.3954
C82_20 C 0.42538(12) 0.35389(13) 0.27192(12)
C83_20 C 0.35389(13) 0.27192(12) 0.42538(12)
H36_20 H 0.4319 0.3642 0.2565
H37_20 H 0.3642 0.2565 0.4319
C93_20 C 0.31147(14) 0.34277(14) 0.39583(13)
C94_20 C 0.39583(13) 0.31147(14) 0.34277(14)
C104_20 C 0.37154(13) 0.35361(13) 0.33058(13)
C105_20 C 0.35361(13) 0.33058(13) 0.37154(13)
C115_20 C 0.33178(13) 0.35034(13) 0.37281(13)
C116_20 C 0.37281(13) 0.33178(13) 0.35034(13)
C126_20 C 0.3109(2) 0.36488(17) 0.41961(17)
C127_20 C 0.41961(17) 0.3109(2) 0.36488(17)
H47_20 H 0.3010 0.3814 0.4128
H48_20 H 0.4128 0.3010 0.3814
H58_20 H 0.3001 0.3573 0.4353
H59_20 H 0.4353 0.3001 0.3573
C137_20 C 0.3396(2) 0.3742(2) 0.4307(2)
C138_20 C 0.4307(2) 0.3396(2) 0.3742(2)
H69_20 H 0.3484 0.3587 0.4403
H70_20 H 0.4403 0.3484 0.3587
H80_20 H 0.3371 0.3896 0.4436
H81_20 H 0.4436 0.3371 0.3896
H91_20 H 0.3512 0.3801 0.4152
H92_20 H 0.4152 0.3512 0.3801
C148_20 C 0.28256(15) 0.33514(16) 0.38413(18)
C149_20 C 0.38413(18) 0.28256(15) 0.33514(16)
H102_20 H 0.2710 0.3280 0.3995
H103_20 H 0.3995 0.2710 0.3280
H113_20 H 0.2737 0.3522 0.3771
H114_20 H 0.3771 0.2737 0.3522
C159_20 C 0.28290(18) 0.3136(2) 0.36093(18)
C160_20 C 0.36093(18) 0.28290(18) 0.3136(2)
H124_20 H 0.2927 0.3212 0.3449
H125_20 H 0.3449 0.2927 0.3212
H135_20 H 0.2639 0.3090 0.3557
H136_20 H 0.3557 0.2639 0.3090
H146_20 H 0.2924 0.2969 0.3674
H147_20 H 0.3674 0.2924 0.2969
C1_21 C 0.95990(11) 0.25946(13) 0.68248(13)
C2_21 C 0.93799(12) 0.27833(12) 0.67121(13)
C3_21 C 0.92910(12) 0.30129(12) 0.68598(14)
H1_21 H 0.9377 0.3062 0.7029
C4_21 C 0.90755(12) 0.31685(13) 0.67562(13)
C5_21 C 0.89420(12) 0.31026(13) 0.65103(13)
C6_21 C 0.90378(13) 0.28735(13) 0.63590(14)
H2_21 H 0.8954 0.2826 0.6188
C7_21 C 0.92538(12) 0.27192(12) 0.64611(13)
H3_21 H 0.9319 0.2565 0.6358
C8_21 C 0.89583(13) 0.34277(14) 0.68853(14)
C9_21 C 0.87154(13) 0.33058(13) 0.64639(13)
C10_21 C 0.87281(13) 0.35034(13) 0.66822(13)
C11_21 C 0.91961(17) 0.36488(17) 0.6891(2)
H4_21 H 0.9128 0.3814 0.6990
H5_21 H 0.9353 0.3573 0.6999
C12_21 C 0.9307(2) 0.3742(2) 0.6604(2)
H6_21 H 0.9403 0.3587 0.6516
H7_21 H 0.9436 0.3896 0.6629
H8_21 H 0.9152 0.3801 0.6488
C13_21 C 0.88413(18) 0.33514(16) 0.71744(15)
H9_21 H 0.8995 0.3280 0.7290
H10_21 H 0.8771 0.3522 0.7263
C14_21 C 0.86093(18) 0.3136(2) 0.71710(18)
H11_21 H 0.8449 0.3212 0.7073
H12_21 H 0.8557 0.3090 0.7361
H13_21 H 0.8674 0.2969 0.7076
C17_21 C 0.75946(13) 0.31752(13) 0.54010(11)
C18_21 C 0.81752(13) 0.45990(11) 0.74054(13)
C27_21 C 0.77833(12) 0.32879(13) 0.56201(12)
C28_21 C 0.82879(13) 0.43799(12) 0.72167(12)
C38_21 C 0.80129(12) 0.31402(14) 0.57090(12)
C39_21 C 0.81402(14) 0.42910(12) 0.69871(12)
H14_21 H 0.8062 0.2971 0.5623
H15_21 H 0.7971 0.4377 0.6938
C49_21 C 0.81685(13) 0.32438(13) 0.59245(12)
C50_21 C 0.82438(13) 0.40755(12) 0.68315(13)
C60_21 C 0.84897(13) 0.39420(12) 0.68974(13)
C61_21 C 0.81026(13) 0.34897(13) 0.60580(12)
C71_21 C 0.86410(14) 0.40378(13) 0.71265(13)
C72_21 C 0.78735(13) 0.36410(14) 0.59622(13)
H25_21 H 0.8812 0.3954 0.7174
H26_21 H 0.7826 0.3812 0.6046
C82_21 C 0.85389(13) 0.42538(12) 0.72808(12)
C83_21 C 0.77192(12) 0.35389(13) 0.57462(12)
H36_21 H 0.8642 0.4319 0.7435
H37_21 H 0.7565 0.3642 0.5681
C93_21 C 0.84277(14) 0.31147(14) 0.60417(13)
C94_21 C 0.81147(14) 0.39583(13) 0.65723(14)
C104_21 C 0.85361(13) 0.37154(13) 0.66942(13)
C105_21 C 0.83058(13) 0.35361(13) 0.62846(13)
C115_21 C 0.85034(13) 0.33178(13) 0.62719(13)
C116_21 C 0.83178(13) 0.37281(13) 0.64966(13)
C126_21 C 0.86488(17) 0.3109(2) 0.58039(17)
C127_21 C 0.8109(2) 0.41961(17) 0.63512(17)
H47_21 H 0.8814 0.3010 0.5872
H48_21 H 0.8010 0.4128 0.6186
H58_21 H 0.8573 0.3001 0.5647
H59_21 H 0.8001 0.4353 0.6427
C137_21 C 0.8742(2) 0.3396(2) 0.5693(2)
C138_21 C 0.8396(2) 0.4307(2) 0.6258(2)
H69_21 H 0.8587 0.3484 0.5597
H70_21 H 0.8484 0.4403 0.6413
H80_21 H 0.8896 0.3371 0.5564
H81_21 H 0.8371 0.4436 0.6104
H91_21 H 0.8801 0.3512 0.5848
H92_21 H 0.8512 0.4152 0.6199
C148_21 C 0.83514(16) 0.28256(15) 0.61587(18)
C149_21 C 0.78256(15) 0.38413(18) 0.66486(16)
H102_21 H 0.8280 0.2710 0.6005
H103_21 H 0.7710 0.3995 0.6720
H113_21 H 0.8522 0.2737 0.6229
H114_21 H 0.7737 0.3771 0.6478
C159_21 C 0.8136(2) 0.28290(18) 0.63907(18)
C160_21 C 0.78290(18) 0.36093(18) 0.6864(2)
H124_21 H 0.8212 0.2927 0.6551
H125_21 H 0.7927 0.3449 0.6788
H135_21 H 0.8090 0.2639 0.6443
H136_21 H 0.7639 0.3557 0.6910
H146_21 H 0.7969 0.2924 0.6326
H147_21 H 0.7924 0.3674 0.7031
C1_22 C 0.95990(11) 0.74054(13) 0.31752(13)
C2_22 C 0.93799(12) 0.72167(12) 0.32879(13)
C3_22 C 0.92910(12) 0.69871(12) 0.31402(14)
H1_22 H 0.9377 0.6938 0.2971
C4_22 C 0.90755(12) 0.68315(13) 0.32438(13)
C5_22 C 0.89420(12) 0.68974(13) 0.34897(13)
C6_22 C 0.90378(13) 0.71265(13) 0.36410(14)
H2_22 H 0.8954 0.7174 0.3812
C7_22 C 0.92538(12) 0.72808(12) 0.35389(13)
H3_22 H 0.9319 0.7435 0.3642
C8_22 C 0.89583(13) 0.65723(14) 0.31147(14)
C9_22 C 0.87154(13) 0.66942(13) 0.35361(13)
C10_22 C 0.87281(13) 0.64966(13) 0.33178(13)
C11_22 C 0.91961(17) 0.63512(17) 0.3109(2)
H4_22 H 0.9128 0.6186 0.3010
H5_22 H 0.9353 0.6427 0.3001
C12_22 C 0.9307(2) 0.6258(2) 0.3396(2)
H6_22 H 0.9403 0.6413 0.3484
H7_22 H 0.9436 0.6104 0.3371
H8_22 H 0.9152 0.6199 0.3512
C13_22 C 0.88413(18) 0.66486(16) 0.28256(15)
H9_22 H 0.8995 0.6720 0.2710
H10_22 H 0.8771 0.6478 0.2737
C14_22 C 0.86093(18) 0.6864(2) 0.28290(18)
H11_22 H 0.8449 0.6788 0.2927
H12_22 H 0.8557 0.6910 0.2639
H13_22 H 0.8674 0.7031 0.2924
C17_22 C 0.75946(13) 0.68248(13) 0.45990(11)
C18_22 C 0.81752(13) 0.54010(11) 0.25946(13)
C27_22 C 0.77833(12) 0.67121(13) 0.43799(12)
C28_22 C 0.82879(13) 0.56201(12) 0.27833(12)
C38_22 C 0.80129(12) 0.68598(14) 0.42910(12)
C39_22 C 0.81402(14) 0.57090(12) 0.30129(12)
H14_22 H 0.8062 0.7029 0.4377
H15_22 H 0.7971 0.5623 0.3062
C49_22 C 0.81685(13) 0.67562(13) 0.40755(12)
C50_22 C 0.82438(13) 0.59245(12) 0.31685(13)
C60_22 C 0.84897(13) 0.60580(12) 0.31026(13)
C61_22 C 0.81026(13) 0.65103(13) 0.39420(12)
C71_22 C 0.86410(14) 0.59622(13) 0.28735(13)
C72_22 C 0.78735(13) 0.63590(14) 0.40378(13)
H25_22 H 0.8812 0.6046 0.2826
H26_22 H 0.7826 0.6188 0.3954
C82_22 C 0.85389(13) 0.57462(12) 0.27192(12)
C83_22 C 0.77192(12) 0.64611(13) 0.42538(12)
H36_22 H 0.8642 0.5681 0.2565
H37_22 H 0.7565 0.6358 0.4319
C93_22 C 0.84277(14) 0.68853(14) 0.39583(13)
C94_22 C 0.81147(14) 0.60417(13) 0.34277(14)
C104_22 C 0.85361(13) 0.62846(13) 0.33058(13)
C105_22 C 0.83058(13) 0.64639(13) 0.37154(13)
C115_22 C 0.85034(13) 0.66822(13) 0.37281(13)
C116_22 C 0.83178(13) 0.62719(13) 0.35034(13)
C126_22 C 0.86488(17) 0.6891(2) 0.41961(17)
C127_22 C 0.8109(2) 0.58039(17) 0.36488(17)
H47_22 H 0.8814 0.6990 0.4128
H48_22 H 0.8010 0.5872 0.3814
H58_22 H 0.8573 0.6999 0.4353
H59_22 H 0.8001 0.5647 0.3573
C137_22 C 0.8742(2) 0.6604(2) 0.4307(2)
C138_22 C 0.8396(2) 0.5693(2) 0.3742(2)
H69_22 H 0.8587 0.6516 0.4403
H70_22 H 0.8484 0.5597 0.3587
H80_22 H 0.8896 0.6629 0.4436
H81_22 H 0.8371 0.5564 0.3896
H91_22 H 0.8801 0.6488 0.4152
H92_22 H 0.8512 0.5848 0.3801
C148_22 C 0.83514(16) 0.71744(15) 0.38413(18)
C149_22 C 0.78256(15) 0.61587(18) 0.33514(16)
H102_22 H 0.8280 0.7290 0.3995
H103_22 H 0.7710 0.6005 0.3280
H113_22 H 0.8522 0.7263 0.3771
H114_22 H 0.7737 0.6229 0.3522
C159_22 C 0.8136(2) 0.71710(18) 0.36093(18)
C160_22 C 0.78290(18) 0.63907(18) 0.3136(2)
H124_22 H 0.8212 0.7073 0.3449
H125_22 H 0.7927 0.6551 0.3212
H135_22 H 0.8090 0.7361 0.3557
H136_22 H 0.7639 0.6443 0.3090
H146_22 H 0.7969 0.7076 0.3674
H147_22 H 0.7924 0.6326 0.2969
C1_23 C 0.04010(11) 0.25946(13) 0.31752(13)
C2_23 C 0.06201(12) 0.27833(12) 0.32879(13)
C3_23 C 0.07090(12) 0.30129(12) 0.31402(14)
H1_23 H 0.0623 0.3062 0.2971
C4_23 C 0.09245(12) 0.31685(13) 0.32438(13)
C5_23 C 0.10580(12) 0.31026(13) 0.34897(13)
C6_23 C 0.09622(13) 0.28735(13) 0.36410(14)
H2_23 H 0.1046 0.2826 0.3812
C7_23 C 0.07462(12) 0.27192(12) 0.35389(13)
H3_23 H 0.0681 0.2565 0.3642
C8_23 C 0.10417(13) 0.34277(14) 0.31147(14)
C9_23 C 0.12846(13) 0.33058(13) 0.35361(13)
C10_23 C 0.12719(13) 0.35034(13) 0.33178(13)
C11_23 C 0.08039(17) 0.36488(17) 0.3109(2)
H4_23 H 0.0872 0.3814 0.3010
H5_23 H 0.0647 0.3573 0.3001
C12_23 C 0.0693(2) 0.3742(2) 0.3396(2)
H6_23 H 0.0597 0.3587 0.3484
H7_23 H 0.0564 0.3896 0.3371
H8_23 H 0.0848 0.3801 0.3512
C13_23 C 0.11587(18) 0.33514(16) 0.28256(15)
H9_23 H 0.1005 0.3280 0.2710
H10_23 H 0.1229 0.3522 0.2737
C14_23 C 0.13907(18) 0.3136(2) 0.28290(18)
H11_23 H 0.1551 0.3212 0.2927
H12_23 H 0.1443 0.3090 0.2639
H13_23 H 0.1326 0.2969 0.2924
C17_23 C 0.24054(13) 0.31752(13) 0.45990(11)
C18_23 C 0.18248(13) 0.45990(11) 0.25946(13)
C27_23 C 0.22167(12) 0.32879(13) 0.43799(12)
C28_23 C 0.17121(13) 0.43799(12) 0.27833(12)
C38_23 C 0.19871(12) 0.31402(14) 0.42910(12)
C39_23 C 0.18598(14) 0.42910(12) 0.30129(12)
H14_23 H 0.1938 0.2971 0.4377
H15_23 H 0.2029 0.4377 0.3062
C49_23 C 0.18315(13) 0.32438(13) 0.40755(12)
C50_23 C 0.17562(13) 0.40755(12) 0.31685(13)
C60_23 C 0.15103(13) 0.39420(12) 0.31026(13)
C61_23 C 0.18974(13) 0.34897(13) 0.39420(12)
C71_23 C 0.13590(14) 0.40378(13) 0.28735(13)
C72_23 C 0.21265(13) 0.36410(14) 0.40378(13)
H25_23 H 0.1188 0.3954 0.2826
H26_23 H 0.2174 0.3812 0.3954
C82_23 C 0.14611(13) 0.42538(12) 0.27192(12)
C83_23 C 0.22808(12) 0.35389(13) 0.42538(12)
H36_23 H 0.1358 0.4319 0.2565
H37_23 H 0.2435 0.3642 0.4319
C93_23 C 0.15723(14) 0.31147(14) 0.39583(13)
C94_23 C 0.18853(14) 0.39583(13) 0.34277(14)
C104_23 C 0.14639(13) 0.37154(13) 0.33058(13)
C105_23 C 0.16942(13) 0.35361(13) 0.37154(13)
C115_23 C 0.14966(13) 0.33178(13) 0.37281(13)
C116_23 C 0.16822(13) 0.37281(13) 0.35034(13)
C126_23 C 0.13512(17) 0.3109(2) 0.41961(17)
C127_23 C 0.1891(2) 0.41961(17) 0.36488(17)
H47_23 H 0.1186 0.3010 0.4128
H48_23 H 0.1990 0.4128 0.3814
H58_23 H 0.1427 0.3001 0.4353
H59_23 H 0.1999 0.4353 0.3573
C137_23 C 0.1258(2) 0.3396(2) 0.4307(2)
C138_23 C 0.1604(2) 0.4307(2) 0.3742(2)
H69_23 H 0.1413 0.3484 0.4403
H70_23 H 0.1516 0.4403 0.3587
H80_23 H 0.1104 0.3371 0.4436
H81_23 H 0.1629 0.4436 0.3896
H91_23 H 0.1199 0.3512 0.4152
H92_23 H 0.1488 0.4152 0.3801
C148_23 C 0.16486(16) 0.28256(15) 0.38413(18)
C149_23 C 0.21744(15) 0.38413(18) 0.33514(16)
H102_23 H 0.1720 0.2710 0.3995
H103_23 H 0.2290 0.3995 0.3280
H113_23 H 0.1478 0.2737 0.3771
H114_23 H 0.2263 0.3771 0.3522
C159_23 C 0.1864(2) 0.28290(18) 0.36093(18)
C160_23 C 0.21710(18) 0.36093(18) 0.3136(2)
H124_23 H 0.1788 0.2927 0.3449
H125_23 H 0.2073 0.3449 0.3212
H135_23 H 0.1910 0.2639 0.3557
H136_23 H 0.2361 0.3557 0.3090
H146_23 H 0.2031 0.2924 0.3674
H147_23 H 0.2076 0.3674 0.2969
C16_13 C 0.74054(13) 0.54010(11) 0.68248(13)
C22_13 C 0.68248(13) 0.74054(13) 0.54010(11)
C23_13 C 0.54010(11) 0.68248(13) 0.74054(13)
C32_13 C 0.72167(12) 0.56201(12) 0.67121(13)
C33_13 C 0.67121(13) 0.72167(12) 0.56201(12)
C34_13 C 0.56201(12) 0.67121(13) 0.72167(12)
C43_13 C 0.69871(12) 0.57090(12) 0.68598(14)
C44_13 C 0.68598(14) 0.69871(12) 0.57090(12)
C45_13 C 0.57090(12) 0.68598(14) 0.69871(12)
H19_13 H 0.6938 0.5623 0.7029
H20_13 H 0.7029 0.6938 0.5623
H21_13 H 0.5623 0.7029 0.6938
C54_13 C 0.68315(13) 0.59245(12) 0.67562(13)
C55_13 C 0.67562(13) 0.68315(13) 0.59245(12)
C56_13 C 0.59245(12) 0.67562(13) 0.68315(13)
C65_13 C 0.68974(13) 0.60580(12) 0.65103(13)
C66_13 C 0.60580(12) 0.65103(13) 0.68974(13)
C67_13 C 0.65103(13) 0.68974(13) 0.60580(12)
C76_13 C 0.71265(13) 0.59622(13) 0.63590(14)
C77_13 C 0.59622(13) 0.63590(14) 0.71265(13)
C78_13 C 0.63590(14) 0.71265(13) 0.59622(13)
H30_13 H 0.7174 0.6046 0.6188
H31_13 H 0.6046 0.6188 0.7174
H32_13 H 0.6188 0.7174 0.6046
C87_13 C 0.72808(12) 0.57462(12) 0.64611(13)
C88_13 C 0.57462(12) 0.64611(13) 0.72808(12)
C89_13 C 0.64611(13) 0.72808(12) 0.57462(12)
H41_13 H 0.7435 0.5681 0.6358
H42_13 H 0.5681 0.6358 0.7435
H43_13 H 0.6358 0.7435 0.5681
C98_13 C 0.65723(14) 0.60417(13) 0.68853(14)
C99_13 C 0.68853(14) 0.65723(14) 0.60417(13)
C100_13 C 0.60417(13) 0.68853(14) 0.65723(14)
C109_13 C 0.66942(13) 0.62846(13) 0.64639(13)
C110_13 C 0.62846(13) 0.64639(13) 0.66942(13)
C111_13 C 0.64639(13) 0.66942(13) 0.62846(13)
C120_13 C 0.64966(13) 0.62719(13) 0.66822(13)
C121_13 C 0.66822(13) 0.64966(13) 0.62719(13)
C122_13 C 0.62719(13) 0.66822(13) 0.64966(13)
C131_13 C 0.63512(17) 0.58039(17) 0.6891(2)
C132_13 C 0.6891(2) 0.63512(17) 0.58039(17)
C133_13 C 0.58039(17) 0.6891(2) 0.63512(17)
H52_13 H 0.6186 0.5872 0.6990
H53_13 H 0.6990 0.6186 0.5872
H54_13 H 0.5872 0.6990 0.6186
H63_13 H 0.6427 0.5647 0.6999
H64_13 H 0.6999 0.6427 0.5647
H65_13 H 0.5647 0.6999 0.6427
C142_13 C 0.6258(2) 0.5693(2) 0.6604(2)
C143_13 C 0.6604(2) 0.6258(2) 0.5693(2)
C144_13 C 0.5693(2) 0.6604(2) 0.6258(2)
H74_13 H 0.6413 0.5597 0.6516
H75_13 H 0.6516 0.6413 0.5597
H76_13 H 0.5597 0.6516 0.6413
H85_13 H 0.6104 0.5564 0.6629
H86_13 H 0.6629 0.6104 0.5564
H87_13 H 0.5564 0.6629 0.6104
H96_13 H 0.6199 0.5848 0.6488
H97_13 H 0.6488 0.6199 0.5848
H98_13 H 0.5848 0.6488 0.6199
C153_13 C 0.66486(16) 0.61587(18) 0.71744(15)
C154_13 C 0.71744(15) 0.66486(16) 0.61587(18)
C155_13 C 0.61587(18) 0.71744(15) 0.66486(16)
H107_13 H 0.6720 0.6005 0.7290
H108_13 H 0.7290 0.6720 0.6005
H109_13 H 0.6005 0.7290 0.6720
H118_13 H 0.6478 0.6229 0.7263
H119_13 H 0.7263 0.6478 0.6229
H120_13 H 0.6229 0.7263 0.6478
C164_13 C 0.6864(2) 0.63907(18) 0.71710(18)
C165_13 C 0.71710(18) 0.6864(2) 0.63907(18)
C166_13 C 0.63907(18) 0.71710(18) 0.6864(2)
H129_13 H 0.6788 0.6551 0.7073
H130_13 H 0.7073 0.6788 0.6551
H131_13 H 0.6551 0.7073 0.6788
H140_13 H 0.6910 0.6443 0.7361
H141_13 H 0.7361 0.6910 0.6443
H142_13 H 0.6443 0.7361 0.6910
H151_13 H 0.7031 0.6326 0.7076
H152_13 H 0.7076 0.7031 0.6326
H153_13 H 0.6326 0.7076 0.7031
C1_24 C 0.25946(13) 0.95990(11) 0.81752(13)
C2_24 C 0.27833(12) 0.93799(12) 0.82879(13)
C3_24 C 0.30129(12) 0.92910(12) 0.81402(14)
H1_24 H 0.3062 0.9377 0.7971
C4_24 C 0.31685(13) 0.90755(12) 0.82438(13)
C5_24 C 0.31026(13) 0.89420(12) 0.84897(13)
C6_24 C 0.28735(13) 0.90378(13) 0.86410(14)
H2_24 H 0.2826 0.8954 0.8812
C7_24 C 0.27192(12) 0.92538(12) 0.85389(13)
H3_24 H 0.2565 0.9319 0.8642
C8_24 C 0.34277(14) 0.89583(13) 0.81147(14)
C9_24 C 0.33058(13) 0.87154(13) 0.85361(13)
C10_24 C 0.35034(13) 0.87281(13) 0.83178(13)
C11_24 C 0.36488(17) 0.91961(17) 0.8109(2)
H4_24 H 0.3814 0.9128 0.8010
H5_24 H 0.3573 0.9353 0.8001
C12_24 C 0.3742(2) 0.9307(2) 0.8396(2)
H6_24 H 0.3587 0.9403 0.8484
H7_24 H 0.3896 0.9436 0.8371
H8_24 H 0.3801 0.9152 0.8512
C13_24 C 0.33514(16) 0.88413(18) 0.78256(15)
H9_24 H 0.3280 0.8995 0.7710
H10_24 H 0.3522 0.8771 0.7737
C14_24 C 0.3136(2) 0.86093(18) 0.78290(18)
H11_24 H 0.3212 0.8449 0.7927
H12_24 H 0.3090 0.8557 0.7639
H13_24 H 0.2969 0.8674 0.7924
C17_24 C 0.31752(13) 0.75946(13) 0.95990(11)
C18_24 C 0.45990(11) 0.81752(13) 0.75946(13)
C27_24 C 0.32879(13) 0.77833(12) 0.93799(12)
C28_24 C 0.43799(12) 0.82879(13) 0.77833(12)
C38_24 C 0.31402(14) 0.80129(12) 0.92910(12)
C39_24 C 0.42910(12) 0.81402(14) 0.80129(12)
H14_24 H 0.2971 0.8062 0.9377
H15_24 H 0.4377 0.7971 0.8062
C49_24 C 0.32438(13) 0.81685(13) 0.90755(12)
C50_24 C 0.40755(12) 0.82438(13) 0.81685(13)
C60_24 C 0.39420(12) 0.84897(13) 0.81026(13)
C61_24 C 0.34897(13) 0.81026(13) 0.89420(12)
C71_24 C 0.40378(13) 0.86410(14) 0.78735(13)
C72_24 C 0.36410(14) 0.78735(13) 0.90378(13)
H25_24 H 0.3954 0.8812 0.7826
H26_24 H 0.3812 0.7826 0.8954
C82_24 C 0.42538(12) 0.85389(13) 0.77192(12)
C83_24 C 0.35389(13) 0.77192(12) 0.92538(12)
H36_24 H 0.4319 0.8642 0.7565
H37_24 H 0.3642 0.7565 0.9319
C93_24 C 0.31147(14) 0.84277(14) 0.89583(13)
C94_24 C 0.39583(13) 0.81147(14) 0.84277(14)
C104_24 C 0.37154(13) 0.85361(13) 0.83058(13)
C105_24 C 0.35361(13) 0.83058(13) 0.87154(13)
C115_24 C 0.33178(13) 0.85034(13) 0.87281(13)
C116_24 C 0.37281(13) 0.83178(13) 0.85034(13)
C126_24 C 0.3109(2) 0.86488(17) 0.91961(17)
C127_24 C 0.41961(17) 0.8109(2) 0.86488(17)
H47_24 H 0.3010 0.8814 0.9128
H48_24 H 0.4128 0.8010 0.8814
H58_24 H 0.3001 0.8573 0.9353
H59_24 H 0.4353 0.8001 0.8573
C137_24 C 0.3396(2) 0.8742(2) 0.9307(2)
C138_24 C 0.4307(2) 0.8396(2) 0.8742(2)
H69_24 H 0.3484 0.8587 0.9403
H70_24 H 0.4403 0.8484 0.8587
H80_24 H 0.3371 0.8896 0.9436
H81_24 H 0.4436 0.8371 0.8896
H91_24 H 0.3512 0.8801 0.9152
H92_24 H 0.4152 0.8512 0.8801
C148_24 C 0.28256(15) 0.83514(16) 0.88413(18)
C149_24 C 0.38413(18) 0.78256(15) 0.83514(16)
H102_24 H 0.2710 0.8280 0.8995
H103_24 H 0.3995 0.7710 0.8280
H113_24 H 0.2737 0.8522 0.8771
H114_24 H 0.3771 0.7737 0.8522
C159_24 C 0.28290(18) 0.8136(2) 0.86093(18)
C160_24 C 0.36093(18) 0.78290(18) 0.8136(2)
H124_24 H 0.2927 0.8212 0.8449
H125_24 H 0.3449 0.7927 0.8212
H135_24 H 0.2639 0.8090 0.8557
H136_24 H 0.3557 0.7639 0.8090
H146_24 H 0.2924 0.7969 0.8674
H147_24 H 0.3674 0.7924 0.7969
C1_25 C 0.45990(11) 0.75946(13) 0.68248(13)
C2_25 C 0.43799(12) 0.77833(12) 0.67121(13)
C3_25 C 0.42910(12) 0.80129(12) 0.68598(14)
H1_25 H 0.4377 0.8062 0.7029
C4_25 C 0.40755(12) 0.81685(13) 0.67562(13)
C5_25 C 0.39420(12) 0.81026(13) 0.65103(13)
C6_25 C 0.40378(13) 0.78735(13) 0.63590(14)
H2_25 H 0.3954 0.7826 0.6188
C7_25 C 0.42538(12) 0.77192(12) 0.64611(13)
H3_25 H 0.4319 0.7565 0.6358
C8_25 C 0.39583(13) 0.84277(14) 0.68853(14)
C9_25 C 0.37154(13) 0.83058(13) 0.64639(13)
C10_25 C 0.37281(13) 0.85034(13) 0.66822(13)
C11_25 C 0.41961(17) 0.86488(17) 0.6891(2)
H4_25 H 0.4128 0.8814 0.6990
H5_25 H 0.4353 0.8573 0.6999
C12_25 C 0.4307(2) 0.8742(2) 0.6604(2)
H6_25 H 0.4403 0.8587 0.6516
H7_25 H 0.4436 0.8896 0.6629
H8_25 H 0.4152 0.8801 0.6488
C13_25 C 0.38413(18) 0.83514(16) 0.71744(15)
H9_25 H 0.3995 0.8280 0.7290
H10_25 H 0.3771 0.8522 0.7263
C14_25 C 0.36093(18) 0.8136(2) 0.71710(18)
H11_25 H 0.3449 0.8212 0.7073
H12_25 H 0.3557 0.8090 0.7361
H13_25 H 0.3674 0.7969 0.7076
C17_25 C 0.25946(13) 0.81752(13) 0.54010(11)
C18_25 C 0.31752(13) 0.95990(11) 0.74054(13)
C27_25 C 0.27833(12) 0.82879(13) 0.56201(12)
C28_25 C 0.32879(13) 0.93799(12) 0.72167(12)
C38_25 C 0.30129(12) 0.81402(14) 0.57090(12)
C39_25 C 0.31402(14) 0.92910(12) 0.69871(12)
H14_25 H 0.3062 0.7971 0.5623
H15_25 H 0.2971 0.9377 0.6938
C49_25 C 0.31685(13) 0.82438(13) 0.59245(12)
C50_25 C 0.32438(13) 0.90755(12) 0.68315(13)
C60_25 C 0.34897(13) 0.89420(12) 0.68974(13)
C61_25 C 0.31026(13) 0.84897(13) 0.60580(12)
C71_25 C 0.36410(14) 0.90378(13) 0.71265(13)
C72_25 C 0.28735(13) 0.86410(14) 0.59622(13)
H25_25 H 0.3812 0.8954 0.7174
H26_25 H 0.2826 0.8812 0.6046
C82_25 C 0.35389(13) 0.92538(12) 0.72808(12)
C83_25 C 0.27192(12) 0.85389(13) 0.57462(12)
H36_25 H 0.3642 0.9319 0.7435
H37_25 H 0.2565 0.8642 0.5681
C93_25 C 0.34277(14) 0.81147(14) 0.60417(13)
C94_25 C 0.31147(14) 0.89583(13) 0.65723(14)
C104_25 C 0.35361(13) 0.87154(13) 0.66942(13)
C105_25 C 0.33058(13) 0.85361(13) 0.62846(13)
C115_25 C 0.35034(13) 0.83178(13) 0.62719(13)
C116_25 C 0.33178(13) 0.87281(13) 0.64966(13)
C126_25 C 0.36488(17) 0.8109(2) 0.58039(17)
C127_25 C 0.3109(2) 0.91961(17) 0.63512(17)
H47_25 H 0.3814 0.8010 0.5872
H48_25 H 0.3010 0.9128 0.6186
H58_25 H 0.3573 0.8001 0.5647
H59_25 H 0.3001 0.9353 0.6427
C137_25 C 0.3742(2) 0.8396(2) 0.5693(2)
C138_25 C 0.3396(2) 0.9307(2) 0.6258(2)
H69_25 H 0.3587 0.8484 0.5597
H70_25 H 0.3484 0.9403 0.6413
H80_25 H 0.3896 0.8371 0.5564
H81_25 H 0.3371 0.9436 0.6104
H91_25 H 0.3801 0.8512 0.5848
H92_25 H 0.3512 0.9152 0.6199
C148_25 C 0.33514(16) 0.78256(15) 0.61587(18)
C149_25 C 0.28256(15) 0.88413(18) 0.66486(16)
H102_25 H 0.3280 0.7710 0.6005
H103_25 H 0.2710 0.8995 0.6720
H113_25 H 0.3522 0.7737 0.6229
H114_25 H 0.2737 0.8771 0.6478
C159_25 C 0.3136(2) 0.78290(18) 0.63907(18)
C160_25 C 0.28290(18) 0.86093(18) 0.6864(2)
H124_25 H 0.3212 0.7927 0.6551
H125_25 H 0.2927 0.8449 0.6788
H135_25 H 0.3090 0.7639 0.6443
H136_25 H 0.2639 0.8557 0.6910
H146_25 H 0.2969 0.7924 0.6326
H147_25 H 0.2924 0.8674 0.7031
C1_26 C 0.45990(11) 0.24054(13) 0.31752(13)
C2_26 C 0.43799(12) 0.22167(12) 0.32879(13)
C3_26 C 0.42910(12) 0.19871(12) 0.31402(14)
H1_26 H 0.4377 0.1938 0.2971
C4_26 C 0.40755(12) 0.18315(13) 0.32438(13)
C5_26 C 0.39420(12) 0.18974(13) 0.34897(13)
C6_26 C 0.40378(13) 0.21265(13) 0.36410(14)
H2_26 H 0.3954 0.2174 0.3812
C7_26 C 0.42538(12) 0.22808(12) 0.35389(13)
H3_26 H 0.4319 0.2435 0.3642
C8_26 C 0.39583(13) 0.15723(14) 0.31147(14)
C9_26 C 0.37154(13) 0.16942(13) 0.35361(13)
C10_26 C 0.37281(13) 0.14966(13) 0.33178(13)
C11_26 C 0.41961(17) 0.13512(17) 0.3109(2)
H4_26 H 0.4128 0.1186 0.3010
H5_26 H 0.4353 0.1427 0.3001
C12_26 C 0.4307(2) 0.1258(2) 0.3396(2)
H6_26 H 0.4403 0.1413 0.3484
H7_26 H 0.4436 0.1104 0.3371
H8_26 H 0.4152 0.1199 0.3512
C13_26 C 0.38413(18) 0.16486(16) 0.28256(15)
H9_26 H 0.3995 0.1720 0.2710
H10_26 H 0.3771 0.1478 0.2737
C14_26 C 0.36093(18) 0.1864(2) 0.28290(18)
H11_26 H 0.3449 0.1788 0.2927
H12_26 H 0.3557 0.1910 0.2639
H13_26 H 0.3674 0.2031 0.2924
C17_26 C 0.25946(13) 0.18248(13) 0.45990(11)
C18_26 C 0.31752(13) 0.04010(11) 0.25946(13)
C27_26 C 0.27833(12) 0.17121(13) 0.43799(12)
C28_26 C 0.32879(13) 0.06201(12) 0.27833(12)
C38_26 C 0.30129(12) 0.18598(14) 0.42910(12)
C39_26 C 0.31402(14) 0.07090(12) 0.30129(12)
H14_26 H 0.3062 0.2029 0.4377
H15_26 H 0.2971 0.0623 0.3062
C49_26 C 0.31685(13) 0.17562(13) 0.40755(12)
C50_26 C 0.32438(13) 0.09245(12) 0.31685(13)
C60_26 C 0.34897(13) 0.10580(12) 0.31026(13)
C61_26 C 0.31026(13) 0.15103(13) 0.39420(12)
C71_26 C 0.36410(14) 0.09622(13) 0.28735(13)
C72_26 C 0.28735(13) 0.13590(14) 0.40378(13)
H25_26 H 0.3812 0.1046 0.2826
H26_26 H 0.2826 0.1188 0.3954
C82_26 C 0.35389(13) 0.07462(12) 0.27192(12)
C83_26 C 0.27192(12) 0.14611(13) 0.42538(12)
H36_26 H 0.3642 0.0681 0.2565
H37_26 H 0.2565 0.1358 0.4319
C93_26 C 0.34277(14) 0.18853(14) 0.39583(13)
C94_26 C 0.31147(14) 0.10417(13) 0.34277(14)
C104_26 C 0.35361(13) 0.12846(13) 0.33058(13)
C105_26 C 0.33058(13) 0.14639(13) 0.37154(13)
C115_26 C 0.35034(13) 0.16822(13) 0.37281(13)
C116_26 C 0.33178(13) 0.12719(13) 0.35034(13)
C126_26 C 0.36488(17) 0.1891(2) 0.41961(17)
C127_26 C 0.3109(2) 0.08039(17) 0.36488(17)
H47_26 H 0.3814 0.1990 0.4128
H48_26 H 0.3010 0.0872 0.3814
H58_26 H 0.3573 0.1999 0.4353
H59_26 H 0.3001 0.0647 0.3573
C137_26 C 0.3742(2) 0.1604(2) 0.4307(2)
C138_26 C 0.3396(2) 0.0693(2) 0.3742(2)
H69_26 H 0.3587 0.1516 0.4403
H70_26 H 0.3484 0.0597 0.3587
H80_26 H 0.3896 0.1629 0.4436
H81_26 H 0.3371 0.0564 0.3896
H91_26 H 0.3801 0.1488 0.4152
H92_26 H 0.3512 0.0848 0.3801
C148_26 C 0.33514(16) 0.21744(15) 0.38413(18)
C149_26 C 0.28256(15) 0.11587(18) 0.33514(16)
H102_26 H 0.3280 0.2290 0.3995
H103_26 H 0.2710 0.1005 0.3280
H113_26 H 0.3522 0.2263 0.3771
H114_26 H 0.2737 0.1229 0.3522
C159_26 C 0.3136(2) 0.21710(18) 0.36093(18)
C160_26 C 0.28290(18) 0.13907(18) 0.3136(2)
H124_26 H 0.3212 0.2073 0.3449
H125_26 H 0.2927 0.1551 0.3212
H135_26 H 0.3090 0.2361 0.3557
H136_26 H 0.2639 0.1443 0.3090
H146_26 H 0.2969 0.2076 0.3674
H147_26 H 0.2924 0.1326 0.2969
C1_27 C 0.54010(11) 0.75946(13) 0.31752(13)
C2_27 C 0.56201(12) 0.77833(12) 0.32879(13)
C3_27 C 0.57090(12) 0.80129(12) 0.31402(14)
H1_27 H 0.5623 0.8062 0.2971
C4_27 C 0.59245(12) 0.81685(13) 0.32438(13)
C5_27 C 0.60580(12) 0.81026(13) 0.34897(13)
C6_27 C 0.59622(13) 0.78735(13) 0.36410(14)
H2_27 H 0.6046 0.7826 0.3812
C7_27 C 0.57462(12) 0.77192(12) 0.35389(13)
H3_27 H 0.5681 0.7565 0.3642
C8_27 C 0.60417(13) 0.84277(14) 0.31147(14)
C9_27 C 0.62846(13) 0.83058(13) 0.35361(13)
C10_27 C 0.62719(13) 0.85034(13) 0.33178(13)
C11_27 C 0.58039(17) 0.86488(17) 0.3109(2)
H4_27 H 0.5872 0.8814 0.3010
H5_27 H 0.5647 0.8573 0.3001
C12_27 C 0.5693(2) 0.8742(2) 0.3396(2)
H6_27 H 0.5597 0.8587 0.3484
H7_27 H 0.5564 0.8896 0.3371
H8_27 H 0.5848 0.8801 0.3512
C13_27 C 0.61587(18) 0.83514(16) 0.28256(15)
H9_27 H 0.6005 0.8280 0.2710
H10_27 H 0.6229 0.8522 0.2737
C14_27 C 0.63907(18) 0.8136(2) 0.28290(18)
H11_27 H 0.6551 0.8212 0.2927
H12_27 H 0.6443 0.8090 0.2639
H13_27 H 0.6326 0.7969 0.2924
C17_27 C 0.74054(13) 0.81752(13) 0.45990(11)
C18_27 C 0.68248(13) 0.95990(11) 0.25946(13)
C27_27 C 0.72167(12) 0.82879(13) 0.43799(12)
C28_27 C 0.67121(13) 0.93799(12) 0.27833(12)
C38_27 C 0.69871(12) 0.81402(14) 0.42910(12)
C39_27 C 0.68598(14) 0.92910(12) 0.30129(12)
H14_27 H 0.6938 0.7971 0.4377
H15_27 H 0.7029 0.9377 0.3062
C49_27 C 0.68315(13) 0.82438(13) 0.40755(12)
C50_27 C 0.67562(13) 0.90755(12) 0.31685(13)
C60_27 C 0.65103(13) 0.89420(12) 0.31026(13)
C61_27 C 0.68974(13) 0.84897(13) 0.39420(12)
C71_27 C 0.63590(14) 0.90378(13) 0.28735(13)
C72_27 C 0.71265(13) 0.86410(14) 0.40378(13)
H25_27 H 0.6188 0.8954 0.2826
H26_27 H 0.7174 0.8812 0.3954
C82_27 C 0.64611(13) 0.92538(12) 0.27192(12)
C83_27 C 0.72808(12) 0.85389(13) 0.42538(12)
H36_27 H 0.6358 0.9319 0.2565
H37_27 H 0.7435 0.8642 0.4319
C93_27 C 0.65723(14) 0.81147(14) 0.39583(13)
C94_27 C 0.68853(14) 0.89583(13) 0.34277(14)
C104_27 C 0.64639(13) 0.87154(13) 0.33058(13)
C105_27 C 0.66942(13) 0.85361(13) 0.37154(13)
C115_27 C 0.64966(13) 0.83178(13) 0.37281(13)
C116_27 C 0.66822(13) 0.87281(13) 0.35034(13)
C126_27 C 0.63512(17) 0.8109(2) 0.41961(17)
C127_27 C 0.6891(2) 0.91961(17) 0.36488(17)
H47_27 H 0.6186 0.8010 0.4128
H48_27 H 0.6990 0.9128 0.3814
H58_27 H 0.6427 0.8001 0.4353
H59_27 H 0.6999 0.9353 0.3573
C137_27 C 0.6258(2) 0.8396(2) 0.4307(2)
C138_27 C 0.6604(2) 0.9307(2) 0.3742(2)
H69_27 H 0.6413 0.8484 0.4403
H70_27 H 0.6516 0.9403 0.3587
H80_27 H 0.6104 0.8371 0.4436
H81_27 H 0.6629 0.9436 0.3896
H91_27 H 0.6199 0.8512 0.4152
H92_27 H 0.6488 0.9152 0.3801
C148_27 C 0.66486(16) 0.78256(15) 0.38413(18)
C149_27 C 0.71744(15) 0.88413(18) 0.33514(16)
H102_27 H 0.6720 0.7710 0.3995
H103_27 H 0.7290 0.8995 0.3280
H113_27 H 0.6478 0.7737 0.3771
H114_27 H 0.7263 0.8771 0.3522
C159_27 C 0.6864(2) 0.78290(18) 0.36093(18)
C160_27 C 0.71710(18) 0.86093(18) 0.3136(2)
H124_27 H 0.6788 0.7927 0.3449
H125_27 H 0.7073 0.8449 0.3212
H135_27 H 0.6910 0.7639 0.3557
H136_27 H 0.7361 0.8557 0.3090
H146_27 H 0.7031 0.7924 0.3674
H147_27 H 0.7076 0.8674 0.2969
C1_28 C 0.75946(13) 0.45990(11) 0.81752(13)
C2_28 C 0.77833(12) 0.43799(12) 0.82879(13)
C3_28 C 0.80129(12) 0.42910(12) 0.81402(14)
H1_28 H 0.8062 0.4377 0.7971
C4_28 C 0.81685(13) 0.40755(12) 0.82438(13)
C5_28 C 0.81026(13) 0.39420(12) 0.84897(13)
C6_28 C 0.78735(13) 0.40378(13) 0.86410(14)
H2_28 H 0.7826 0.3954 0.8812
C7_28 C 0.77192(12) 0.42538(12) 0.85389(13)
H3_28 H 0.7565 0.4319 0.8642
C8_28 C 0.84277(14) 0.39583(13) 0.81147(14)
C9_28 C 0.83058(13) 0.37154(13) 0.85361(13)
C10_28 C 0.85034(13) 0.37281(13) 0.83178(13)
C11_28 C 0.86488(17) 0.41961(17) 0.8109(2)
H4_28 H 0.8814 0.4128 0.8010
H5_28 H 0.8573 0.4353 0.8001
C12_28 C 0.8742(2) 0.4307(2) 0.8396(2)
H6_28 H 0.8587 0.4403 0.8484
H7_28 H 0.8896 0.4436 0.8371
H8_28 H 0.8801 0.4152 0.8512
C13_28 C 0.83514(16) 0.38413(18) 0.78256(15)
H9_28 H 0.8280 0.3995 0.7710
H10_28 H 0.8522 0.3771 0.7737
C14_28 C 0.8136(2) 0.36093(18) 0.78290(18)
H11_28 H 0.8212 0.3449 0.7927
H12_28 H 0.8090 0.3557 0.7639
H13_28 H 0.7969 0.3674 0.7924
C17_28 C 0.81752(13) 0.25946(13) 0.95990(11)
C18_28 C 0.95990(11) 0.31752(13) 0.75946(13)
C27_28 C 0.82879(13) 0.27833(12) 0.93799(12)
C28_28 C 0.93799(12) 0.32879(13) 0.77833(12)
C38_28 C 0.81402(14) 0.30129(12) 0.92910(12)
C39_28 C 0.92910(12) 0.31402(14) 0.80129(12)
H14_28 H 0.7971 0.3062 0.9377
H15_28 H 0.9377 0.2971 0.8062
C49_28 C 0.82438(13) 0.31685(13) 0.90755(12)
C50_28 C 0.90755(12) 0.32438(13) 0.81685(13)
C60_28 C 0.89420(12) 0.34897(13) 0.81026(13)
C61_28 C 0.84897(13) 0.31026(13) 0.89420(12)
C71_28 C 0.90378(13) 0.36410(14) 0.78735(13)
C72_28 C 0.86410(14) 0.28735(13) 0.90378(13)
H25_28 H 0.8954 0.3812 0.7826
H26_28 H 0.8812 0.2826 0.8954
C82_28 C 0.92538(12) 0.35389(13) 0.77192(12)
C83_28 C 0.85389(13) 0.27192(12) 0.92538(12)
H36_28 H 0.9319 0.3642 0.7565
H37_28 H 0.8642 0.2565 0.9319
C93_28 C 0.81147(14) 0.34277(14) 0.89583(13)
C94_28 C 0.89583(13) 0.31147(14) 0.84277(14)
C104_28 C 0.87154(13) 0.35361(13) 0.83058(13)
C105_28 C 0.85361(13) 0.33058(13) 0.87154(13)
C115_28 C 0.83178(13) 0.35034(13) 0.87281(13)
C116_28 C 0.87281(13) 0.33178(13) 0.85034(13)
C126_28 C 0.8109(2) 0.36488(17) 0.91961(17)
C127_28 C 0.91961(17) 0.3109(2) 0.86488(17)
H47_28 H 0.8010 0.3814 0.9128
H48_28 H 0.9128 0.3010 0.8814
H58_28 H 0.8001 0.3573 0.9353
H59_28 H 0.9353 0.3001 0.8573
C137_28 C 0.8396(2) 0.3742(2) 0.9307(2)
C138_28 C 0.9307(2) 0.3396(2) 0.8742(2)
H69_28 H 0.8484 0.3587 0.9403
H70_28 H 0.9403 0.3484 0.8587
H80_28 H 0.8371 0.3896 0.9436
H81_28 H 0.9436 0.3371 0.8896
H91_28 H 0.8512 0.3801 0.9152
H92_28 H 0.9152 0.3512 0.8801
C148_28 C 0.78256(15) 0.33514(16) 0.88413(18)
C149_28 C 0.88413(18) 0.28256(15) 0.83514(16)
H102_28 H 0.7710 0.3280 0.8995
H103_28 H 0.8995 0.2710 0.8280
H113_28 H 0.7737 0.3522 0.8771
H114_28 H 0.8771 0.2737 0.8522
C159_28 C 0.78290(18) 0.3136(2) 0.86093(18)
C160_28 C 0.86093(18) 0.28290(18) 0.8136(2)
H124_28 H 0.7927 0.3212 0.8449
H125_28 H 0.8449 0.2927 0.8212
H135_28 H 0.7639 0.3090 0.8557
H136_28 H 0.8557 0.2639 0.8090
H146_28 H 0.7924 0.2969 0.8674
H147_28 H 0.8674 0.2924 0.7969
C1_29 C 0.45990(11) 0.25946(13) 0.18248(13)
C2_29 C 0.43799(12) 0.27833(12) 0.17121(13)
C3_29 C 0.42910(12) 0.30129(12) 0.18598(14)
H1_29 H 0.4377 0.3062 0.2029
C4_29 C 0.40755(12) 0.31685(13) 0.17562(13)
C5_29 C 0.39420(12) 0.31026(13) 0.15103(13)
C6_29 C 0.40378(13) 0.28735(13) 0.13590(14)
H2_29 H 0.3954 0.2826 0.1188
C7_29 C 0.42538(12) 0.27192(12) 0.14611(13)
H3_29 H 0.4319 0.2565 0.1358
C8_29 C 0.39583(13) 0.34277(14) 0.18853(14)
C9_29 C 0.37154(13) 0.33058(13) 0.14639(13)
C10_29 C 0.37281(13) 0.35034(13) 0.16822(13)
C11_29 C 0.41961(17) 0.36488(17) 0.1891(2)
H4_29 H 0.4128 0.3814 0.1990
H5_29 H 0.4353 0.3573 0.1999
C12_29 C 0.4307(2) 0.3742(2) 0.1604(2)
H6_29 H 0.4403 0.3587 0.1516
H7_29 H 0.4436 0.3896 0.1629
H8_29 H 0.4152 0.3801 0.1488
C13_29 C 0.38413(18) 0.33514(16) 0.21744(15)
H9_29 H 0.3995 0.3280 0.2290
H10_29 H 0.3771 0.3522 0.2263
C14_29 C 0.36093(18) 0.3136(2) 0.21710(18)
H11_29 H 0.3449 0.3212 0.2073
H12_29 H 0.3557 0.3090 0.2361
H13_29 H 0.3674 0.2969 0.2076
C17_29 C 0.25946(13) 0.31752(13) 0.04010(11)
C18_29 C 0.31752(13) 0.45990(11) 0.24054(13)
C27_29 C 0.27833(12) 0.32879(13) 0.06201(12)
C28_29 C 0.32879(13) 0.43799(12) 0.22167(12)
C38_29 C 0.30129(12) 0.31402(14) 0.07090(12)
C39_29 C 0.31402(14) 0.42910(12) 0.19871(12)
H14_29 H 0.3062 0.2971 0.0623
H15_29 H 0.2971 0.4377 0.1938
C49_29 C 0.31685(13) 0.32438(13) 0.09245(12)
C50_29 C 0.32438(13) 0.40755(12) 0.18315(13)
C60_29 C 0.34897(13) 0.39420(12) 0.18974(13)
C61_29 C 0.31026(13) 0.34897(13) 0.10580(12)
C71_29 C 0.36410(14) 0.40378(13) 0.21265(13)
C72_29 C 0.28735(13) 0.36410(14) 0.09622(13)
H25_29 H 0.3812 0.3954 0.2174
H26_29 H 0.2826 0.3812 0.1046
C82_29 C 0.35389(13) 0.42538(12) 0.22808(12)
C83_29 C 0.27192(12) 0.35389(13) 0.07462(12)
H36_29 H 0.3642 0.4319 0.2435
H37_29 H 0.2565 0.3642 0.0681
C93_29 C 0.34277(14) 0.31147(14) 0.10417(13)
C94_29 C 0.31147(14) 0.39583(13) 0.15723(14)
C104_29 C 0.35361(13) 0.37154(13) 0.16942(13)
C105_29 C 0.33058(13) 0.35361(13) 0.12846(13)
C115_29 C 0.35034(13) 0.33178(13) 0.12719(13)
C116_29 C 0.33178(13) 0.37281(13) 0.14966(13)
C126_29 C 0.36488(17) 0.3109(2) 0.08039(17)
C127_29 C 0.3109(2) 0.41961(17) 0.13512(17)
H47_29 H 0.3814 0.3010 0.0872
H48_29 H 0.3010 0.4128 0.1186
H58_29 H 0.3573 0.3001 0.0647
H59_29 H 0.3001 0.4353 0.1427
C137_29 C 0.3742(2) 0.3396(2) 0.0693(2)
C138_29 C 0.3396(2) 0.4307(2) 0.1258(2)
H69_29 H 0.3587 0.3484 0.0597
H70_29 H 0.3484 0.4403 0.1413
H80_29 H 0.3896 0.3371 0.0564
H81_29 H 0.3371 0.4436 0.1104
H91_29 H 0.3801 0.3512 0.0848
H92_29 H 0.3512 0.4152 0.1199
C148_29 C 0.33514(16) 0.28256(15) 0.11587(18)
C149_29 C 0.28256(15) 0.38413(18) 0.16486(16)
H102_29 H 0.3280 0.2710 0.1005
H103_29 H 0.2710 0.3995 0.1720
H113_29 H 0.3522 0.2737 0.1229
H114_29 H 0.2737 0.3771 0.1478
C159_29 C 0.3136(2) 0.28290(18) 0.13907(18)
C160_29 C 0.28290(18) 0.36093(18) 0.1864(2)
H124_29 H 0.3212 0.2927 0.1551
H125_29 H 0.2927 0.3449 0.1788
H135_29 H 0.3090 0.2639 0.1443
H136_29 H 0.2639 0.3557 0.1910
H146_29 H 0.2969 0.2924 0.1326
H147_29 H 0.2924 0.3674 0.2031
C1_30 C 0.45990(11) 0.74054(13) 0.81752(13)
C2_30 C 0.43799(12) 0.72167(12) 0.82879(13)
C3_30 C 0.42910(12) 0.69871(12) 0.81402(14)
H1_30 H 0.4377 0.6938 0.7971
C4_30 C 0.40755(12) 0.68315(13) 0.82438(13)
C5_30 C 0.39420(12) 0.68974(13) 0.84897(13)
C6_30 C 0.40378(13) 0.71265(13) 0.86410(14)
H2_30 H 0.3954 0.7174 0.8812
C7_30 C 0.42538(12) 0.72808(12) 0.85389(13)
H3_30 H 0.4319 0.7435 0.8642
C8_30 C 0.39583(13) 0.65723(14) 0.81147(14)
C9_30 C 0.37154(13) 0.66942(13) 0.85361(13)
C10_30 C 0.37281(13) 0.64966(13) 0.83178(13)
C11_30 C 0.41961(17) 0.63512(17) 0.8109(2)
H4_30 H 0.4128 0.6186 0.8010
H5_30 H 0.4353 0.6427 0.8001
C12_30 C 0.4307(2) 0.6258(2) 0.8396(2)
H6_30 H 0.4403 0.6413 0.8484
H7_30 H 0.4436 0.6104 0.8371
H8_30 H 0.4152 0.6199 0.8512
C13_30 C 0.38413(18) 0.66486(16) 0.78256(15)
H9_30 H 0.3995 0.6720 0.7710
H10_30 H 0.3771 0.6478 0.7737
C14_30 C 0.36093(18) 0.6864(2) 0.78290(18)
H11_30 H 0.3449 0.6788 0.7927
H12_30 H 0.3557 0.6910 0.7639
H13_30 H 0.3674 0.7031 0.7924
C17_30 C 0.25946(13) 0.68248(13) 0.95990(11)
C18_30 C 0.31752(13) 0.54010(11) 0.75946(13)
C27_30 C 0.27833(12) 0.67121(13) 0.93799(12)
C28_30 C 0.32879(13) 0.56201(12) 0.77833(12)
C38_30 C 0.30129(12) 0.68598(14) 0.92910(12)
C39_30 C 0.31402(14) 0.57090(12) 0.80129(12)
H14_30 H 0.3062 0.7029 0.9377
H15_30 H 0.2971 0.5623 0.8062
C49_30 C 0.31685(13) 0.67562(13) 0.90755(12)
C50_30 C 0.32438(13) 0.59245(12) 0.81685(13)
C60_30 C 0.34897(13) 0.60580(12) 0.81026(13)
C61_30 C 0.31026(13) 0.65103(13) 0.89420(12)
C71_30 C 0.36410(14) 0.59622(13) 0.78735(13)
C72_30 C 0.28735(13) 0.63590(14) 0.90378(13)
H25_30 H 0.3812 0.6046 0.7826
H26_30 H 0.2826 0.6188 0.8954
C82_30 C 0.35389(13) 0.57462(12) 0.77192(12)
C83_30 C 0.27192(12) 0.64611(13) 0.92538(12)
H36_30 H 0.3642 0.5681 0.7565
H37_30 H 0.2565 0.6358 0.9319
C93_30 C 0.34277(14) 0.68853(14) 0.89583(13)
C94_30 C 0.31147(14) 0.60417(13) 0.84277(14)
C104_30 C 0.35361(13) 0.62846(13) 0.83058(13)
C105_30 C 0.33058(13) 0.64639(13) 0.87154(13)
C115_30 C 0.35034(13) 0.66822(13) 0.87281(13)
C116_30 C 0.33178(13) 0.62719(13) 0.85034(13)
C126_30 C 0.36488(17) 0.6891(2) 0.91961(17)
C127_30 C 0.3109(2) 0.58039(17) 0.86488(17)
H47_30 H 0.3814 0.6990 0.9128
H48_30 H 0.3010 0.5872 0.8814
H58_30 H 0.3573 0.6999 0.9353
H59_30 H 0.3001 0.5647 0.8573
C137_30 C 0.3742(2) 0.6604(2) 0.9307(2)
C138_30 C 0.3396(2) 0.5693(2) 0.8742(2)
H69_30 H 0.3587 0.6516 0.9403
H70_30 H 0.3484 0.5597 0.8587
H80_30 H 0.3896 0.6629 0.9436
H81_30 H 0.3371 0.5564 0.8896
H91_30 H 0.3801 0.6488 0.9152
H92_30 H 0.3512 0.5848 0.8801
C148_30 C 0.33514(16) 0.71744(15) 0.88413(18)
C149_30 C 0.28256(15) 0.61587(18) 0.83514(16)
H102_30 H 0.3280 0.7290 0.8995
H103_30 H 0.2710 0.6005 0.8280
H113_30 H 0.3522 0.7263 0.8771
H114_30 H 0.2737 0.6229 0.8522
C159_30 C 0.3136(2) 0.71710(18) 0.86093(18)
C160_30 C 0.28290(18) 0.63907(18) 0.8136(2)
H124_30 H 0.3212 0.7073 0.8449
H125_30 H 0.2927 0.6551 0.8212
H135_30 H 0.3090 0.7361 0.8557
H136_30 H 0.2639 0.6443 0.8090
H146_30 H 0.2969 0.7076 0.8674
H147_30 H 0.2924 0.6326 0.7969
C1_31 C 0.54010(11) 0.25946(13) 0.81752(13)
C2_31 C 0.56201(12) 0.27833(12) 0.82879(13)
C3_31 C 0.57090(12) 0.30129(12) 0.81402(14)
H1_31 H 0.5623 0.3062 0.7971
C4_31 C 0.59245(12) 0.31685(13) 0.82438(13)
C5_31 C 0.60580(12) 0.31026(13) 0.84897(13)
C6_31 C 0.59622(13) 0.28735(13) 0.86410(14)
H2_31 H 0.6046 0.2826 0.8812
C7_31 C 0.57462(12) 0.27192(12) 0.85389(13)
H3_31 H 0.5681 0.2565 0.8642
C8_31 C 0.60417(13) 0.34277(14) 0.81147(14)
C9_31 C 0.62846(13) 0.33058(13) 0.85361(13)
C10_31 C 0.62719(13) 0.35034(13) 0.83178(13)
C11_31 C 0.58039(17) 0.36488(17) 0.8109(2)
H4_31 H 0.5872 0.3814 0.8010
H5_31 H 0.5647 0.3573 0.8001
C12_31 C 0.5693(2) 0.3742(2) 0.8396(2)
H6_31 H 0.5597 0.3587 0.8484
H7_31 H 0.5564 0.3896 0.8371
H8_31 H 0.5848 0.3801 0.8512
C13_31 C 0.61587(18) 0.33514(16) 0.78256(15)
H9_31 H 0.6005 0.3280 0.7710
H10_31 H 0.6229 0.3522 0.7737
C14_31 C 0.63907(18) 0.3136(2) 0.78290(18)
H11_31 H 0.6551 0.3212 0.7927
H12_31 H 0.6443 0.3090 0.7639
H13_31 H 0.6326 0.2969 0.7924
C17_31 C 0.74054(13) 0.31752(13) 0.95990(11)
C18_31 C 0.68248(13) 0.45990(11) 0.75946(13)
C27_31 C 0.72167(12) 0.32879(13) 0.93799(12)
C28_31 C 0.67121(13) 0.43799(12) 0.77833(12)
C38_31 C 0.69871(12) 0.31402(14) 0.92910(12)
C39_31 C 0.68598(14) 0.42910(12) 0.80129(12)
H14_31 H 0.6938 0.2971 0.9377
H15_31 H 0.7029 0.4377 0.8062
C49_31 C 0.68315(13) 0.32438(13) 0.90755(12)
C50_31 C 0.67562(13) 0.40755(12) 0.81685(13)
C60_31 C 0.65103(13) 0.39420(12) 0.81026(13)
C61_31 C 0.68974(13) 0.34897(13) 0.89420(12)
C71_31 C 0.63590(14) 0.40378(13) 0.78735(13)
C72_31 C 0.71265(13) 0.36410(14) 0.90378(13)
H25_31 H 0.6188 0.3954 0.7826
H26_31 H 0.7174 0.3812 0.8954
C82_31 C 0.64611(13) 0.42538(12) 0.77192(12)
C83_31 C 0.72808(12) 0.35389(13) 0.92538(12)
H36_31 H 0.6358 0.4319 0.7565
H37_31 H 0.7435 0.3642 0.9319
C93_31 C 0.65723(14) 0.31147(14) 0.89583(13)
C94_31 C 0.68853(14) 0.39583(13) 0.84277(14)
C104_31 C 0.64639(13) 0.37154(13) 0.83058(13)
C105_31 C 0.66942(13) 0.35361(13) 0.87154(13)
C115_31 C 0.64966(13) 0.33178(13) 0.87281(13)
C116_31 C 0.66822(13) 0.37281(13) 0.85034(13)
C126_31 C 0.63512(17) 0.3109(2) 0.91961(17)
C127_31 C 0.6891(2) 0.41961(17) 0.86488(17)
H47_31 H 0.6186 0.3010 0.9128
H48_31 H 0.6990 0.4128 0.8814
H58_31 H 0.6427 0.3001 0.9353
H59_31 H 0.6999 0.4353 0.8573
C137_31 C 0.6258(2) 0.3396(2) 0.9307(2)
C138_31 C 0.6604(2) 0.4307(2) 0.8742(2)
H69_31 H 0.6413 0.3484 0.9403
H70_31 H 0.6516 0.4403 0.8587
H80_31 H 0.6104 0.3371 0.9436
H81_31 H 0.6629 0.4436 0.8896
H91_31 H 0.6199 0.3512 0.9152
H92_31 H 0.6488 0.4152 0.8801
C148_31 C 0.66486(16) 0.28256(15) 0.88413(18)
C149_31 C 0.71744(15) 0.38413(18) 0.83514(16)
H102_31 H 0.6720 0.2710 0.8995
H103_31 H 0.7290 0.3995 0.8280
H113_31 H 0.6478 0.2737 0.8771
H114_31 H 0.7263 0.3771 0.8522
C159_31 C 0.6864(2) 0.28290(18) 0.86093(18)
C160_31 C 0.71710(18) 0.36093(18) 0.8136(2)
H124_31 H 0.6788 0.2927 0.8449
H125_31 H 0.7073 0.3449 0.8212
H135_31 H 0.6910 0.2639 0.8557
H136_31 H 0.7361 0.3557 0.8090
H146_31 H 0.7031 0.2924 0.8674
H147_31 H 0.7076 0.3674 0.7969
C1_32 C 0.75946(13) 0.95990(11) 0.31752(13)
C2_32 C 0.77833(12) 0.93799(12) 0.32879(13)
C3_32 C 0.80129(12) 0.92910(12) 0.31402(14)
H1_32 H 0.8062 0.9377 0.2971
C4_32 C 0.81685(13) 0.90755(12) 0.32438(13)
C5_32 C 0.81026(13) 0.89420(12) 0.34897(13)
C6_32 C 0.78735(13) 0.90378(13) 0.36410(14)
H2_32 H 0.7826 0.8954 0.3812
C7_32 C 0.77192(12) 0.92538(12) 0.35389(13)
H3_32 H 0.7565 0.9319 0.3642
C8_32 C 0.84277(14) 0.89583(13) 0.31147(14)
C9_32 C 0.83058(13) 0.87154(13) 0.35361(13)
C10_32 C 0.85034(13) 0.87281(13) 0.33178(13)
C11_32 C 0.86488(17) 0.91961(17) 0.3109(2)
H4_32 H 0.8814 0.9128 0.3010
H5_32 H 0.8573 0.9353 0.3001
C12_32 C 0.8742(2) 0.9307(2) 0.3396(2)
H6_32 H 0.8587 0.9403 0.3484
H7_32 H 0.8896 0.9436 0.3371
H8_32 H 0.8801 0.9152 0.3512
C13_32 C 0.83514(16) 0.88413(18) 0.28256(15)
H9_32 H 0.8280 0.8995 0.2710
H10_32 H 0.8522 0.8771 0.2737
C14_32 C 0.8136(2) 0.86093(18) 0.28290(18)
H11_32 H 0.8212 0.8449 0.2927
H12_32 H 0.8090 0.8557 0.2639
H13_32 H 0.7969 0.8674 0.2924
C17_32 C 0.81752(13) 0.75946(13) 0.45990(11)
C18_32 C 0.95990(11) 0.81752(13) 0.25946(13)
C27_32 C 0.82879(13) 0.77833(12) 0.43799(12)
C28_32 C 0.93799(12) 0.82879(13) 0.27833(12)
C38_32 C 0.81402(14) 0.80129(12) 0.42910(12)
C39_32 C 0.92910(12) 0.81402(14) 0.30129(12)
H14_32 H 0.7971 0.8062 0.4377
H15_32 H 0.9377 0.7971 0.3062
C49_32 C 0.82438(13) 0.81685(13) 0.40755(12)
C50_32 C 0.90755(12) 0.82438(13) 0.31685(13)
C60_32 C 0.89420(12) 0.84897(13) 0.31026(13)
C61_32 C 0.84897(13) 0.81026(13) 0.39420(12)
C71_32 C 0.90378(13) 0.86410(14) 0.28735(13)
C72_32 C 0.86410(14) 0.78735(13) 0.40378(13)
H25_32 H 0.8954 0.8812 0.2826
H26_32 H 0.8812 0.7826 0.3954
C82_32 C 0.92538(12) 0.85389(13) 0.27192(12)
C83_32 C 0.85389(13) 0.77192(12) 0.42538(12)
H36_32 H 0.9319 0.8642 0.2565
H37_32 H 0.8642 0.7565 0.4319
C93_32 C 0.81147(14) 0.84277(14) 0.39583(13)
C94_32 C 0.89583(13) 0.81147(14) 0.34277(14)
C104_32 C 0.87154(13) 0.85361(13) 0.33058(13)
C105_32 C 0.85361(13) 0.83058(13) 0.37154(13)
C115_32 C 0.83178(13) 0.85034(13) 0.37281(13)
C116_32 C 0.87281(13) 0.83178(13) 0.35034(13)
C126_32 C 0.8109(2) 0.86488(17) 0.41961(17)
C127_32 C 0.91961(17) 0.8109(2) 0.36488(17)
H47_32 H 0.8010 0.8814 0.4128
H48_32 H 0.9128 0.8010 0.3814
H58_32 H 0.8001 0.8573 0.4353
H59_32 H 0.9353 0.8001 0.3573
C137_32 C 0.8396(2) 0.8742(2) 0.4307(2)
C138_32 C 0.9307(2) 0.8396(2) 0.3742(2)
H69_32 H 0.8484 0.8587 0.4403
H70_32 H 0.9403 0.8484 0.3587
H80_32 H 0.8371 0.8896 0.4436
H81_32 H 0.9436 0.8371 0.3896
H91_32 H 0.8512 0.8801 0.4152
H92_32 H 0.9152 0.8512 0.3801
C148_32 C 0.78256(15) 0.83514(16) 0.38413(18)
C149_32 C 0.88413(18) 0.78256(15) 0.33514(16)
H102_32 H 0.7710 0.8280 0.3995
H103_32 H 0.8995 0.7710 0.3280
H113_32 H 0.7737 0.8522 0.3771
H114_32 H 0.8771 0.7737 0.3522
C159_32 C 0.78290(18) 0.8136(2) 0.36093(18)
C160_32 C 0.86093(18) 0.78290(18) 0.3136(2)
H124_32 H 0.7927 0.8212 0.3449
H125_32 H 0.8449 0.7927 0.3212
H135_32 H 0.7639 0.8090 0.3557
H136_32 H 0.8557 0.7639 0.3090
H146_32 H 0.7924 0.7969 0.3674
H147_32 H 0.8674 0.7924 0.2969
O39 O 0.0875(4) 0.2500 0.2500
O39_2 O 0.2500 0.0875(4) 0.2500
O39_3 O 0.2500 0.2500 0.0875(4)
O39_4 O 0.7500 0.5875(4) 0.2500
O39_5 O 0.7500 0.4125(4) 0.7500
O39_6 O 0.2500 0.5875(4) 0.7500
O39_7 O 0.5875(4) 0.7500 0.2500
O39_8 O 0.4125(4) 0.7500 0.7500
O39_9 O 0.5875(4) 0.2500 0.7500
O39_10 O 0.7500 0.7500 0.4125(4)
O39_11 O 0.7500 0.2500 0.5875(4)
O39_12 O 0.2500 0.7500 0.5875(4)
O39_13 O 0.0875(4) 0.7500 0.7500
O39_14 O 0.7500 0.0875(4) 0.7500
O39_15 O 0.7500 0.9125(4) 0.2500
O39_16 O 0.4125(4) 0.2500 0.2500
O39_17 O 0.7500 0.2500 0.9125(4)
O39_18 O 0.7500 0.7500 0.0875(4)
O39_19 O 0.2500 0.4125(4) 0.2500
O39_20 O 0.9125(4) 0.7500 0.2500
O39_21 O 0.2500 0.7500 0.9125(4)
O39_22 O 0.2500 0.9125(4) 0.7500
O39_23 O 0.9125(4) 0.2500 0.7500
O39_24 O 0.2500 0.2500 0.4125(4)
O39_25 O 0.9125(4) 0.7500 0.7500
O39_26 O 0.7500 0.9125(4) 0.7500
O39_27 O 0.7500 0.7500 0.9125(4)
O39_28 O 0.2500 0.4125(4) 0.7500
O39_29 O 0.2500 0.5875(4) 0.2500
O39_30 O 0.7500 0.4125(4) 0.2500
O39_31 O 0.4125(4) 0.2500 0.7500
O39_32 O 0.5875(4) 0.2500 0.2500
O39_33 O 0.4125(4) 0.7500 0.2500
O39_34 O 0.2500 0.2500 0.5875(4)
O39_35 O 0.2500 0.7500 0.4125(4)
O39_36 O 0.7500 0.2500 0.4125(4)
O39_37 O 0.9125(4) 0.2500 0.2500
O39_38 O 0.2500 0.9125(4) 0.2500
O39_39 O 0.2500 0.0875(4) 0.7500
O39_40 O 0.5875(4) 0.7500 0.7500
O39_41 O 0.2500 0.7500 0.0875(4)
O39_42 O 0.2500 0.2500 0.9125(4)
O39_43 O 0.7500 0.5875(4) 0.7500
O39_44 O 0.0875(4) 0.2500 0.7500
O39_45 O 0.7500 0.2500 0.0875(4)
O39_46 O 0.7500 0.0875(4) 0.2500
O39_47 O 0.0875(4) 0.7500 0.2500
O39_48 O 0.7500 0.7500 0.5875(4)
loop_
_geom_bond_atom_site_label_1
_geom_bond_atom_site_label_2
_geom_bond_site_symmetry_1
_geom_bond_site_symmetry_2
Cd1 O2 1_555 1_555
O2 C1 1_555 1_555
O4 Cd1 1_555 1_555
O5 Cd1 1_555 1_555
C1 C2 1_555 1_555
C2 C3 1_555 1_555
C3 H1 1_555 1_555
C4 C3 1_555 1_555
C5 C4 1_555 1_555
C6 C5 1_555 1_555
H2 C6 1_555 1_555
C7 C2 1_555 1_555
H3 C7 1_555 1_555
C8 C4 1_555 1_555
C9 C5 1_555 1_555
C10 C8 1_555 1_555
C11 C8 1_555 1_555
H4 C11 1_555 1_555
H5 C11 1_555 1_555
C12 C11 1_555 1_555
H6 C12 1_555 1_555
H7 C12 1_555 1_555
H8 C12 1_555 1_555
C13 C8 1_555 1_555
H9 C13 1_555 1_555
H10 C13 1_555 1_555
C14 C13 1_555 1_555
H11 C14 1_555 1_555
H12 C14 1_555 1_555
H13 C14 1_555 1_555
C15 O5 1_555 1_555
Cd2 O2 1_555 1_555
Cd3 O4 1_555 1_555
Cd4 O4 1_555 1_555
Cd5 O9 1_555 1_555
Cd6 O9 1_555 1_555
Cd7 O10 1_555 1_555
Cd8 O10 1_555 1_555
O6 Cd1 1_555 1_555
O9 C17 1_555 1_555
O10 C18 1_555 1_555
O11 Cd2 1_555 1_555
O14 Cd3 1_555 1_555
O21 Cd1 1_555 1_555
O22 C1 1_555 1_555
O23 Cd6 1_555 1_555
O24 Cd8 1_555 1_555
O27 Cd3 1_555 1_555
O28 Cd4 1_555 1_555
O36 Cd2 1_555 1_555
O37 Cd3 1_555 1_555
O38 Cd4 1_555 1_555
C17 O23 1_555 1_555
C18 O24 1_555 1_555
C27 C17 1_555 1_555
C28 C18 1_555 1_555
C38 C27 1_555 1_555
C39 C28 1_555 1_555
H14 C38 1_555 1_555
H15 C39 1_555 1_555
C49 C38 1_555 1_555
C50 C39 1_555 1_555
C60 C50 1_555 1_555
C61 C49 1_555 1_555
C71 C60 1_555 1_555
C72 C61 1_555 1_555
H25 C71 1_555 1_555
H26 C72 1_555 1_555
C82 C28 1_555 1_555
C83 C27 1_555 1_555
H36 C82 1_555 1_555
H37 C83 1_555 1_555
C93 C49 1_555 1_555
C94 C50 1_555 1_555
C104 C10 1_555 1_555
C105 C61 1_555 1_555
C115 C9 1_555 1_555
C116 C94 1_555 1_555
C126 C93 1_555 1_555
C127 C94 1_555 1_555
H47 C126 1_555 1_555
H48 C127 1_555 1_555
H58 C126 1_555 1_555
H59 C127 1_555 1_555
C137 C126 1_555 1_555
C138 C127 1_555 1_555
H69 C137 1_555 1_555
H70 C138 1_555 1_555
H80 C137 1_555 1_555
H81 C138 1_555 1_555
H91 C137 1_555 1_555
H92 C138 1_555 1_555
C148 C93 1_555 1_555
C149 C94 1_555 1_555
H102 C148 1_555 1_555
H103 C149 1_555 1_555
H113 C148 1_555 1_555
H114 C149 1_555 1_555
C159 C148 1_555 1_555
C160 C149 1_555 1_555
H124 C159 1_555 1_555
H125 C160 1_555 1_555
H135 C159 1_555 1_555
H136 C160 1_555 1_555
H146 C159 1_555 1_555
H147 C160 1_555 1_555
C170 O36 1_555 1_555
C171 O38 1_555 1_555
C172 O37 1_555 1_555
O4 Cd2 1_555 1_555
C6 C7 1_555 1_555
C9 C10 1_555 1_555
Cd2 O22 1_555 1_555
Cd3 O6 1_555 1_555
Cd4 O11 1_555 1_555
Cd4 O14 1_555 1_555
C60 C104 1_555 1_555
C71 C82 1_555 1_555
C72 C83 1_555 1_555
C93 C115 1_555 1_555
C104 C116 1_555 1_555
C105 C115 1_555 1_555
C105 C116 1_555 1_555
C171 H158 1_555 1_555
C171 H159 1_555 1_555
C170 H161 1_555 1_555
C170 H162 1_555 1_555
C172 H167 1_555 1_555
C172 H168 1_555 1_555
C15 H173 1_555 1_555
C15 H174 1_555 1_555
O3 Cd1_2 1_555 1_555
O4_2 Cd1_2 1_555 1_555
O5_2 Cd1_2 1_555 1_555
C15_2 O5_2 1_555 1_555
Cd3_2 O4_2 1_555 1_555
Cd4_2 O4_2 1_555 1_555
Cd9 O15 1_555 1_555
Cd10 O15 1_555 1_555
Cd11 O16 1_555 1_555
Cd12 O16 1_555 1_555
Cd13 O17 1_555 1_555
Cd14 O17 1_555 1_555
Cd15 O18 1_555 1_555
Cd16 O18 1_555 1_555
Cd17 O19 1_555 1_555
Cd18 O20 1_555 1_555
O7 Cd1_2 1_555 1_555
O8 Cd1_2 1_555 1_555
O12 Cd2_2 1_555 1_555
O13 Cd3_2 1_555 1_555
O15 C20 1_555 1_555
O16 C21 1_555 1_555
O17 C22 1_555 1_555
O18 C23 1_555 1_555
O19 Cd16 1_555 1_555
O20 Cd9 1_555 1_555
O25 Cd2_2 1_555 1_555
O26 Cd3_2 1_555 1_555
O29 Cd4_2 1_555 1_555
O30 Cd10 1_555 1_555
O31 Cd12 1_555 1_555
O32 Cd14 1_555 1_555
O33 Cd16 1_555 1_555
O34 Cd17 1_555 1_555
O35 Cd9 1_555 1_555
O36_2 Cd2_2 1_555 1_555
O37_2 Cd3_2 1_555 1_555
O38_2 Cd4_2 1_555 1_555
C16 O3 1_555 1_555
C19 O12 1_555 1_555
C20 O30 1_555 1_555
C21 O31 1_555 1_555
C22 O32 1_555 1_555
C23 O33 1_555 1_555
C24 O13 1_555 1_555
C25 O19 1_555 1_555
C26 O20 1_555 1_555
C29 C19 1_555 1_555
C30 C20 1_555 1_555
C31 C21 1_555 1_555
C32 C16 1_555 1_555
C33 C22 1_555 1_555
C34 C23 1_555 1_555
C35 C24 1_555 1_555
C36 C25 1_555 1_555
C37 C26 1_555 1_555
C40 C29 1_555 1_555
C41 C30 1_555 1_555
C42 C31 1_555 1_555
C43 C32 1_555 1_555
C44 C33 1_555 1_555
C45 C34 1_555 1_555
C46 C35 1_555 1_555
C47 C36 1_555 1_555
C48 C37 1_555 1_555
H16 C40 1_555 1_555
H17 C41 1_555 1_555
H18 C42 1_555 1_555
H19 C43 1_555 1_555
H20 C44 1_555 1_555
H21 C45 1_555 1_555
H22 C46 1_555 1_555
H23 C47 1_555 1_555
H24 C48 1_555 1_555
C51 C40 1_555 1_555
C52 C41 1_555 1_555
C53 C42 1_555 1_555
C54 C43 1_555 1_555
C55 C44 1_555 1_555
C56 C45 1_555 1_555
C57 C46 1_555 1_555
C58 C47 1_555 1_555
C59 C48 1_555 1_555
C62 C51 1_555 1_555
C63 C53 1_555 1_555
C64 C52 1_555 1_555
C65 C54 1_555 1_555
C66 C56 1_555 1_555
C67 C55 1_555 1_555
C68 C57 1_555 1_555
C69 C59 1_555 1_555
C70 C58 1_555 1_555
C73 C62 1_555 1_555
C74 C63 1_555 1_555
C75 C64 1_555 1_555
C76 C65 1_555 1_555
C77 C66 1_555 1_555
C78 C67 1_555 1_555
C79 C68 1_555 1_555
C80 C69 1_555 1_555
C81 C70 1_555 1_555
H27 C73 1_555 1_555
H28 C74 1_555 1_555
H29 C75 1_555 1_555
H30 C76 1_555 1_555
H31 C77 1_555 1_555
H32 C78 1_555 1_555
H33 C79 1_555 1_555
H34 C80 1_555 1_555
H35 C81 1_555 1_555
C84 C29 1_555 1_555
C85 C31 1_555 1_555
C86 C30 1_555 1_555
C87 C32 1_555 1_555
C88 C34 1_555 1_555
C89 C33 1_555 1_555
C90 C35 1_555 1_555
C91 C37 1_555 1_555
C92 C36 1_555 1_555
H38 C84 1_555 1_555
H39 C85 1_555 1_555
H40 C86 1_555 1_555
H41 C87 1_555 1_555
H42 C88 1_555 1_555
H43 C89 1_555 1_555
H44 C90 1_555 1_555
H45 C91 1_555 1_555
H46 C92 1_555 1_555
C95 C51 1_555 1_555
C96 C52 1_555 1_555
C97 C53 1_555 1_555
C98 C54 1_555 1_555
C99 C55 1_555 1_555
C100 C56 1_555 1_555
C101 C57 1_555 1_555
C102 C58 1_555 1_555
C103 C59 1_555 1_555
C106 C62 1_555 1_555
C107 C63 1_555 1_555
C108 C64 1_555 1_555
C109 C65 1_555 1_555
C110 C66 1_555 1_555
C111 C67 1_555 1_555
C112 C68 1_555 1_555
C113 C69 1_555 1_555
C114 C70 1_555 1_555
C117 C95 1_555 1_555
C118 C96 1_555 1_555
C119 C97 1_555 1_555
C120 C98 1_555 1_555
C121 C99 1_555 1_555
C122 C100 1_555 1_555
C123 C101 1_555 1_555
C124 C102 1_555 1_555
C125 C103 1_555 1_555
C128 C95 1_555 1_555
C129 C96 1_555 1_555
C130 C97 1_555 1_555
C131 C98 1_555 1_555
C132 C99 1_555 1_555
C133 C100 1_555 1_555
C134 C101 1_555 1_555
C135 C102 1_555 1_555
C136 C103 1_555 1_555
H49 C128 1_555 1_555
H50 C129 1_555 1_555
H51 C130 1_555 1_555
H52 C131 1_555 1_555
H53 C132 1_555 1_555
H54 C133 1_555 1_555
H55 C134 1_555 1_555
H56 C135 1_555 1_555
H57 C136 1_555 1_555
H60 C128 1_555 1_555
H61 C129 1_555 1_555
H62 C130 1_555 1_555
H63 C131 1_555 1_555
H64 C132 1_555 1_555
H65 C133 1_555 1_555
H66 C134 1_555 1_555
H67 C135 1_555 1_555
H68 C136 1_555 1_555
C139 C128 1_555 1_555
C140 C129 1_555 1_555
C141 C130 1_555 1_555
C142 C131 1_555 1_555
C143 C132 1_555 1_555
C144 C133 1_555 1_555
C145 C134 1_555 1_555
C146 C135 1_555 1_555
C147 C136 1_555 1_555
H71 C139 1_555 1_555
H72 C140 1_555 1_555
H73 C141 1_555 1_555
H74 C142 1_555 1_555
H75 C143 1_555 1_555
H76 C144 1_555 1_555
H77 C145 1_555 1_555
H78 C146 1_555 1_555
H79 C147 1_555 1_555
H82 C139 1_555 1_555
H83 C140 1_555 1_555
H84 C141 1_555 1_555
H85 C142 1_555 1_555
H86 C143 1_555 1_555
H87 C144 1_555 1_555
H88 C145 1_555 1_555
H89 C146 1_555 1_555
H90 C147 1_555 1_555
H93 C139 1_555 1_555
H94 C140 1_555 1_555
H95 C141 1_555 1_555
H96 C142 1_555 1_555
H97 C143 1_555 1_555
H98 C144 1_555 1_555
H99 C145 1_555 1_555
H100 C146 1_555 1_555
H101 C147 1_555 1_555
C150 C95 1_555 1_555
C151 C96 1_555 1_555
C152 C97 1_555 1_555
C153 C98 1_555 1_555
C154 C99 1_555 1_555
C155 C100 1_555 1_555
C156 C101 1_555 1_555
C157 C102 1_555 1_555
C158 C103 1_555 1_555
H104 C150 1_555 1_555
H105 C151 1_555 1_555
H106 C152 1_555 1_555
H107 C153 1_555 1_555
H108 C154 1_555 1_555
H109 C155 1_555 1_555
H110 C156 1_555 1_555
H111 C157 1_555 1_555
H112 C158 1_555 1_555
H115 C150 1_555 1_555
H116 C151 1_555 1_555
H117 C152 1_555 1_555
H118 C153 1_555 1_555
H119 C154 1_555 1_555
H120 C155 1_555 1_555
H121 C156 1_555 1_555
H122 C157 1_555 1_555
H123 C158 1_555 1_555
C161 C150 1_555 1_555
C162 C151 1_555 1_555
C163 C152 1_555 1_555
C164 C153 1_555 1_555
C165 C154 1_555 1_555
C166 C155 1_555 1_555
C167 C156 1_555 1_555
C168 C157 1_555 1_555
C169 C158 1_555 1_555
H126 C161 1_555 1_555
H127 C162 1_555 1_555
H128 C163 1_555 1_555
H129 C164 1_555 1_555
H130 C165 1_555 1_555
H131 C166 1_555 1_555
H132 C167 1_555 1_555
H133 C168 1_555 1_555
H134 C169 1_555 1_555
H137 C161 1_555 1_555
H138 C162 1_555 1_555
H139 C163 1_555 1_555
H140 C164 1_555 1_555
H141 C165 1_555 1_555
H142 C166 1_555 1_555
H143 C167 1_555 1_555
H144 C168 1_555 1_555
H145 C169 1_555 1_555
H148 C161 1_555 1_555
H149 C162 1_555 1_555
H150 C163 1_555 1_555
H151 C164 1_555 1_555
H152 C165 1_555 1_555
H153 C166 1_555 1_555
H154 C167 1_555 1_555
H155 C168 1_555 1_555
H156 C169 1_555 1_555
C170_2 O36_2 1_555 1_555
C171_2 O38_2 1_555 1_555
C172_2 O37_2 1_555 1_555
O4_2 Cd2_2 1_555 1_555
Cd2_2 O7 1_555 1_555
Cd3_2 O8 1_555 1_555
Cd4_2 O12 1_555 1_555
Cd4_2 O13 1_555 1_555
O8 C16 1_555 1_555
O26 C24 1_555 1_555
O29 C19 1_555 1_555
O34 C25 1_555 1_555
O35 C26 1_555 1_555
C73 C84 1_555 1_555
C74 C85 1_555 1_555
C75 C86 1_555 1_555
C76 C87 1_555 1_555
C77 C88 1_555 1_555
C78 C89 1_555 1_555
C79 C90 1_555 1_555
C80 C91 1_555 1_555
C81 C92 1_555 1_555
C106 C117 1_555 1_555
C106 C118 1_555 1_555
C107 C117 1_555 1_555
C107 C119 1_555 1_555
C108 C118 1_555 1_555
C108 C119 1_555 1_555
C109 C120 1_555 1_555
C109 C121 1_555 1_555
C110 C120 1_555 1_555
C110 C122 1_555 1_555
C111 C121 1_555 1_555
C111 C122 1_555 1_555
C112 C123 1_555 1_555
C112 C124 1_555 1_555
C113 C123 1_555 1_555
C113 C125 1_555 1_555
C114 C124 1_555 1_555
C114 C125 1_555 1_555
C171_2 H157 1_555 1_555
C171_2 H158_2 1_555 1_555
C170_2 H160 1_555 1_555
C170_2 H161_2 1_555 1_555
C172_2 H166 1_555 1_555
C172_2 H167_2 1_555 1_555
C15_2 H172 1_555 1_555
C15_2 H173_2 1_555 1_555
O4_3 Cd7 1_555 1_555
O5_3 Cd7 1_555 1_555
C15_3 O5_3 1_555 1_555
Cd3_3 O4_3 1_555 1_555
Cd4_3 O4_3 1_555 1_555
O6_2 Cd7 1_555 1_555
O11_2 Cd8 1_555 1_555
O14_2 Cd3_3 1_555 1_555
O21_2 Cd7 1_555 1_555
O27_2 Cd3_3 1_555 1_555
O28_2 Cd4_3 1_555 1_555
O36_3 Cd8 1_555 1_555
O37_3 Cd3_3 1_555 1_555
O38_3 Cd4_3 1_555 1_555
C170_3 O36_3 1_555 1_555
C171_3 O38_3 1_555 1_555
C172_3 O37_3 1_555 1_555
O4_3 Cd8 1_555 1_555
Cd3_3 O6_2 1_555 1_555
Cd4_3 O11_2 1_555 1_555
Cd4_3 O14_2 1_555 1_555
C171_3 H158_3 1_555 1_555
C171_3 H159_2 1_555 1_555
C170_3 H161_3 1_555 1_555
C170_3 H162_2 1_555 1_555
C172_3 H167_3 1_555 1_555
C172_3 H168_2 1_555 1_555
C15_3 H173_3 1_555 1_555
C15_3 H174_2 1_555 1_555
O3_2 Cd7_2 1_555 1_555
O4_4 Cd7_2 1_555 1_555
O5_4 Cd7_2 1_555 1_555
C15_4 O5_4 1_555 1_555
Cd3_4 O4_4 1_555 1_555
Cd4_4 O4_4 1_555 1_555
Cd9_2 O15_2 1_555 1_555
Cd10_2 O15_2 1_555 1_555
Cd11_3 O16_2 1_555 1_555
Cd12_3 O16_2 1_555 1_555
Cd13_3 O17_2 1_555 1_555
Cd14_3 O17_2 1_555 1_555
Cd15_2 O18_2 1_555 1_555
Cd16_2 O18_2 1_555 1_555
Cd17_2 O19_2 1_555 1_555
Cd18_2 O20_2 1_555 1_555
O7_2 Cd7_2 1_555 1_555
O8_2 Cd7_2 1_555 1_555
O12_2 Cd8_2 1_555 1_555
O13_2 Cd3_4 1_555 1_555
O15_2 C20_2 1_555 1_555
O16_2 C21_2 1_555 1_555
O17_2 C22_2 1_555 1_555
O18_2 C23_2 1_555 1_555
O19_2 Cd16_2 1_555 1_555
O20_2 Cd9_2 1_555 1_555
O25_2 Cd8_2 1_555 1_555
O26_2 Cd3_4 1_555 1_555
O29_2 Cd4_4 1_555 1_555
O30_2 Cd10_2 1_555 1_555
O31_2 Cd12_3 1_555 1_555
O32_2 Cd14_3 1_555 1_555
O33_2 Cd16_2 1_555 1_555
O34_2 Cd17_2 1_555 1_555
O35_2 Cd9_2 1_555 1_555
O36_4 Cd8_2 1_555 1_555
O37_4 Cd3_4 1_555 1_555
O38_4 Cd4_4 1_555 1_555
C16_2 O3_2 1_555 1_555
C19_2 O12_2 1_555 1_555
C20_2 O30_2 1_555 1_555
C21_2 O31_2 1_555 1_555
C22_2 O32_2 1_555 1_555
C23_2 O33_2 1_555 1_555
C24_2 O13_2 1_555 1_555
C25_2 O19_2 1_555 1_555
C26_2 O20_2 1_555 1_555
C29_2 C19_2 1_555 1_555
C30_2 C20_2 1_555 1_555
C31_2 C21_2 1_555 1_555
C32_2 C16_2 1_555 1_555
C33_2 C22_2 1_555 1_555
C34_2 C23_2 1_555 1_555
C35_2 C24_2 1_555 1_555
C36_2 C25_2 1_555 1_555
C37_2 C26_2 1_555 1_555
C40_2 C29_2 1_555 1_555
C41_2 C30_2 1_555 1_555
C42_2 C31_2 1_555 1_555
C43_2 C32_2 1_555 1_555
C44_2 C33_2 1_555 1_555
C45_2 C34_2 1_555 1_555
C46_2 C35_2 1_555 1_555
C47_2 C36_2 1_555 1_555
C48_2 C37_2 1_555 1_555
H16_2 C40_2 1_555 1_555
H17_2 C41_2 1_555 1_555
H18_2 C42_2 1_555 1_555
H19_2 C43_2 1_555 1_555
H20_2 C44_2 1_555 1_555
H21_2 C45_2 1_555 1_555
H22_2 C46_2 1_555 1_555
H23_2 C47_2 1_555 1_555
H24_2 C48_2 1_555 1_555
C51_2 C40_2 1_555 1_555
C52_2 C41_2 1_555 1_555
C53_2 C42_2 1_555 1_555
C54_2 C43_2 1_555 1_555
C55_2 C44_2 1_555 1_555
C56_2 C45_2 1_555 1_555
C57_2 C46_2 1_555 1_555
C58_2 C47_2 1_555 1_555
C59_2 C48_2 1_555 1_555
C62_2 C51_2 1_555 1_555
C63_2 C53_2 1_555 1_555
C64_2 C52_2 1_555 1_555
C65_2 C54_2 1_555 1_555
C66_2 C56_2 1_555 1_555
C67_2 C55_2 1_555 1_555
C68_2 C57_2 1_555 1_555
C69_2 C59_2 1_555 1_555
C70_2 C58_2 1_555 1_555
C73_2 C62_2 1_555 1_555
C74_2 C63_2 1_555 1_555
C75_2 C64_2 1_555 1_555
C76_2 C65_2 1_555 1_555
C77_2 C66_2 1_555 1_555
C78_2 C67_2 1_555 1_555
C79_2 C68_2 1_555 1_555
C80_2 C69_2 1_555 1_555
C81_2 C70_2 1_555 1_555
H27_2 C73_2 1_555 1_555
H28_2 C74_2 1_555 1_555
H29_2 C75_2 1_555 1_555
H30_2 C76_2 1_555 1_555
H31_2 C77_2 1_555 1_555
H32_2 C78_2 1_555 1_555
H33_2 C79_2 1_555 1_555
H34_2 C80_2 1_555 1_555
H35_2 C81_2 1_555 1_555
C84_2 C29_2 1_555 1_555
C85_2 C31_2 1_555 1_555
C86_2 C30_2 1_555 1_555
C87_2 C32_2 1_555 1_555
C88_2 C34_2 1_555 1_555
C89_2 C33_2 1_555 1_555
C90_2 C35_2 1_555 1_555
C91_2 C37_2 1_555 1_555
C92_2 C36_2 1_555 1_555
H38_2 C84_2 1_555 1_555
H39_2 C85_2 1_555 1_555
H40_2 C86_2 1_555 1_555
H41_2 C87_2 1_555 1_555
H42_2 C88_2 1_555 1_555
H43_2 C89_2 1_555 1_555
H44_2 C90_2 1_555 1_555
H45_2 C91_2 1_555 1_555
H46_2 C92_2 1_555 1_555
C95_2 C51_2 1_555 1_555
C96_2 C52_2 1_555 1_555
C97_2 C53_2 1_555 1_555
C98_2 C54_2 1_555 1_555
C99_2 C55_2 1_555 1_555
C100_2 C56_2 1_555 1_555
C101_2 C57_2 1_555 1_555
C102_2 C58_2 1_555 1_555
C103_2 C59_2 1_555 1_555
C106_2 C62_2 1_555 1_555
C107_2 C63_2 1_555 1_555
C108_2 C64_2 1_555 1_555
C109_2 C65_2 1_555 1_555
C110_2 C66_2 1_555 1_555
C111_2 C67_2 1_555 1_555
C112_2 C68_2 1_555 1_555
C113_2 C69_2 1_555 1_555
C114_2 C70_2 1_555 1_555
C117_2 C95_2 1_555 1_555
C118_2 C96_2 1_555 1_555
C119_2 C97_2 1_555 1_555
C120_2 C98_2 1_555 1_555
C121_2 C99_2 1_555 1_555
C122_2 C100_2 1_555 1_555
C123_2 C101_2 1_555 1_555
C124_2 C102_2 1_555 1_555
C125_2 C103_2 1_555 1_555
C128_2 C95_2 1_555 1_555
C129_2 C96_2 1_555 1_555
C130_2 C97_2 1_555 1_555
C131_2 C98_2 1_555 1_555
C132_2 C99_2 1_555 1_555
C133_2 C100_2 1_555 1_555
C134_2 C101_2 1_555 1_555
C135_2 C102_2 1_555 1_555
C136_2 C103_2 1_555 1_555
H49_2 C128_2 1_555 1_555
H50_2 C129_2 1_555 1_555
H51_2 C130_2 1_555 1_555
H52_2 C131_2 1_555 1_555
H53_2 C132_2 1_555 1_555
H54_2 C133_2 1_555 1_555
H55_2 C134_2 1_555 1_555
H56_2 C135_2 1_555 1_555
H57_2 C136_2 1_555 1_555
H60_2 C128_2 1_555 1_555
H61_2 C129_2 1_555 1_555
H62_2 C130_2 1_555 1_555
H63_2 C131_2 1_555 1_555
H64_2 C132_2 1_555 1_555
H65_2 C133_2 1_555 1_555
H66_2 C134_2 1_555 1_555
H67_2 C135_2 1_555 1_555
H68_2 C136_2 1_555 1_555
C139_2 C128_2 1_555 1_555
C140_2 C129_2 1_555 1_555
C141_2 C130_2 1_555 1_555
C142_2 C131_2 1_555 1_555
C143_2 C132_2 1_555 1_555
C144_2 C133_2 1_555 1_555
C145_2 C134_2 1_555 1_555
C146_2 C135_2 1_555 1_555
C147_2 C136_2 1_555 1_555
H71_2 C139_2 1_555 1_555
H72_2 C140_2 1_555 1_555
H73_2 C141_2 1_555 1_555
H74_2 C142_2 1_555 1_555
H75_2 C143_2 1_555 1_555
H76_2 C144_2 1_555 1_555
H77_2 C145_2 1_555 1_555
H78_2 C146_2 1_555 1_555
H79_2 C147_2 1_555 1_555
H82_2 C139_2 1_555 1_555
H83_2 C140_2 1_555 1_555
H84_2 C141_2 1_555 1_555
H85_2 C142_2 1_555 1_555
H86_2 C143_2 1_555 1_555
H87_2 C144_2 1_555 1_555
H88_2 C145_2 1_555 1_555
H89_2 C146_2 1_555 1_555
H90_2 C147_2 1_555 1_555
H93_2 C139_2 1_555 1_555
H94_2 C140_2 1_555 1_555
H95_2 C141_2 1_555 1_555
H96_2 C142_2 1_555 1_555
H97_2 C143_2 1_555 1_555
H98_2 C144_2 1_555 1_555
H99_2 C145_2 1_555 1_555
H100_2 C146_2 1_555 1_555
H101_2 C147_2 1_555 1_555
C150_2 C95_2 1_555 1_555
C151_2 C96_2 1_555 1_555
C152_2 C97_2 1_555 1_555
C153_2 C98_2 1_555 1_555
C154_2 C99_2 1_555 1_555
C155_2 C100_2 1_555 1_555
C156_2 C101_2 1_555 1_555
C157_2 C102_2 1_555 1_555
C158_2 C103_2 1_555 1_555
H104_2 C150_2 1_555 1_555
H105_2 C151_2 1_555 1_555
H106_2 C152_2 1_555 1_555
H107_2 C153_2 1_555 1_555
H108_2 C154_2 1_555 1_555
H109_2 C155_2 1_555 1_555
H110_2 C156_2 1_555 1_555
H111_2 C157_2 1_555 1_555
H112_2 C158_2 1_555 1_555
H115_2 C150_2 1_555 1_555
H116_2 C151_2 1_555 1_555
H117_2 C152_2 1_555 1_555
H118_2 C153_2 1_555 1_555
H119_2 C154_2 1_555 1_555
H120_2 C155_2 1_555 1_555
H121_2 C156_2 1_555 1_555
H122_2 C157_2 1_555 1_555
H123_2 C158_2 1_555 1_555
C161_2 C150_2 1_555 1_555
C162_2 C151_2 1_555 1_555
C163_2 C152_2 1_555 1_555
C164_2 C153_2 1_555 1_555
C165_2 C154_2 1_555 1_555
C166_2 C155_2 1_555 1_555
C167_2 C156_2 1_555 1_555
C168_2 C157_2 1_555 1_555
C169_2 C158_2 1_555 1_555
H126_2 C161_2 1_555 1_555
H127_2 C162_2 1_555 1_555
H128_2 C163_2 1_555 1_555
H129_2 C164_2 1_555 1_555
H130_2 C165_2 1_555 1_555
H131_2 C166_2 1_555 1_555
H132_2 C167_2 1_555 1_555
H133_2 C168_2 1_555 1_555
H134_2 C169_2 1_555 1_555
H137_2 C161_2 1_555 1_555
H138_2 C162_2 1_555 1_555
H139_2 C163_2 1_555 1_555
H140_2 C164_2 1_555 1_555
H141_2 C165_2 1_555 1_555
H142_2 C166_2 1_555 1_555
H143_2 C167_2 1_555 1_555
H144_2 C168_2 1_555 1_555
H145_2 C169_2 1_555 1_555
H148_2 C161_2 1_555 1_555
H149_2 C162_2 1_555 1_555
H150_2 C163_2 1_555 1_555
H151_2 C164_2 1_555 1_555
H152_2 C165_2 1_555 1_555
H153_2 C166_2 1_555 1_555
H154_2 C167_2 1_555 1_555
H155_2 C168_2 1_555 1_555
H156_2 C169_2 1_555 1_555
C170_4 O36_4 1_555 1_555
C171_4 O38_4 1_555 1_555
C172_4 O37_4 1_555 1_555
O4_4 Cd8_2 1_555 1_555
Cd8_2 O7_2 1_555 1_555
Cd3_4 O8_2 1_555 1_555
Cd4_4 O12_2 1_555 1_555
Cd4_4 O13_2 1_555 1_555
O8_2 C16_2 1_555 1_555
O26_2 C24_2 1_555 1_555
O29_2 C19_2 1_555 1_555
O34_2 C25_2 1_555 1_555
O35_2 C26_2 1_555 1_555
C73_2 C84_2 1_555 1_555
C74_2 C85_2 1_555 1_555
C75_2 C86_2 1_555 1_555
C76_2 C87_2 1_555 1_555
C77_2 C88_2 1_555 1_555
C78_2 C89_2 1_555 1_555
C79_2 C90_2 1_555 1_555
C80_2 C91_2 1_555 1_555
C81_2 C92_2 1_555 1_555
C106_2 C117_2 1_555 1_555
C106_2 C118_2 1_555 1_555
C107_2 C117_2 1_555 1_555
C107_2 C119_2 1_555 1_555
C108_2 C118_2 1_555 1_555
C108_2 C119_2 1_555 1_555
C109_2 C120_2 1_555 1_555
C109_2 C121_2 1_555 1_555
C110_2 C120_2 1_555 1_555
C110_2 C122_2 1_555 1_555
C111_2 C121_2 1_555 1_555
C111_2 C122_2 1_555 1_555
C112_2 C123_2 1_555 1_555
C112_2 C124_2 1_555 1_555
C113_2 C123_2 1_555 1_555
C113_2 C125_2 1_555 1_555
C114_2 C124_2 1_555 1_555
C114_2 C125_2 1_555 1_555
C171_4 H157_2 1_555 1_555
C171_4 H158_4 1_555 1_555
C170_4 H160_2 1_555 1_555
C170_4 H161_4 1_555 1_555
C172_4 H166_2 1_555 1_555
C172_4 H167_4 1_555 1_555
C15_4 H172_2 1_555 1_555
C15_4 H173_4 1_555 1_555
O4_5 Cd5 1_555 1_555
O5_5 Cd5 1_555 1_555
C15_5 O5_5 1_555 1_555
Cd3_5 O4_5 1_555 1_555
Cd4_5 O4_5 1_555 1_555
O6_3 Cd5 1_555 1_555
O11_3 Cd6 1_555 1_555
O14_3 Cd3_5 1_555 1_555
O21_3 Cd5 1_555 1_555
O27_3 Cd3_5 1_555 1_555
O28_3 Cd4_5 1_555 1_555
O36_5 Cd6 1_555 1_555
O37_5 Cd3_5 1_555 1_555
O38_5 Cd4_5 1_555 1_555
C170_5 O36_5 1_555 1_555
C171_5 O38_5 1_555 1_555
C172_5 O37_5 1_555 1_555
O4_5 Cd6 1_555 1_555
Cd3_5 O6_3 1_555 1_555
Cd4_5 O11_3 1_555 1_555
Cd4_5 O14_3 1_555 1_555
C171_5 H158_5 1_555 1_555
C171_5 H159_3 1_555 1_555
C170_5 H161_5 1_555 1_555
C170_5 H162_3 1_555 1_555
C172_5 H167_5 1_555 1_555
C172_5 H168_3 1_555 1_555
C15_5 H173_5 1_555 1_555
C15_5 H174_3 1_555 1_555
O3_3 Cd5_2 1_555 1_555
O4_6 Cd5_2 1_555 1_555
O5_6 Cd5_2 1_555 1_555
C15_6 O5_6 1_555 1_555
Cd3_6 O4_6 1_555 1_555
Cd4_6 O4_6 1_555 1_555
Cd9_3 O15_3 1_555 1_555
Cd10_3 O15_3 1_555 1_555
Cd11_5 O16_3 1_555 1_555
Cd12_5 O16_3 1_555 1_555
Cd13_5 O17_3 1_555 1_555
Cd14_5 O17_3 1_555 1_555
Cd15_3 O18_3 1_555 1_555
Cd16_3 O18_3 1_555 1_555
Cd17_3 O19_3 1_555 1_555
Cd18_3 O20_3 1_555 1_555
O7_3 Cd5_2 1_555 1_555
O8_3 Cd5_2 1_555 1_555
O12_3 Cd6_2 1_555 1_555
O13_3 Cd3_6 1_555 1_555
O15_3 C20_3 1_555 1_555
O16_3 C21_3 1_555 1_555
O17_3 C22_3 1_555 1_555
O18_3 C23_3 1_555 1_555
O19_3 Cd16_3 1_555 1_555
O20_3 Cd9_3 1_555 1_555
O25_3 Cd6_2 1_555 1_555
O26_3 Cd3_6 1_555 1_555
O29_3 Cd4_6 1_555 1_555
O30_3 Cd10_3 1_555 1_555
O31_3 Cd12_5 1_555 1_555
O32_3 Cd14_5 1_555 1_555
O33_3 Cd16_3 1_555 1_555
O34_3 Cd17_3 1_555 1_555
O35_3 Cd9_3 1_555 1_555
O36_6 Cd6_2 1_555 1_555
O37_6 Cd3_6 1_555 1_555
O38_6 Cd4_6 1_555 1_555
C16_3 O3_3 1_555 1_555
C19_3 O12_3 1_555 1_555
C20_3 O30_3 1_555 1_555
C21_3 O31_3 1_555 1_555
C22_3 O32_3 1_555 1_555
C23_3 O33_3 1_555 1_555
C24_3 O13_3 1_555 1_555
C25_3 O19_3 1_555 1_555
C26_3 O20_3 1_555 1_555
C29_3 C19_3 1_555 1_555
C30_3 C20_3 1_555 1_555
C31_3 C21_3 1_555 1_555
C32_3 C16_3 1_555 1_555
C33_3 C22_3 1_555 1_555
C34_3 C23_3 1_555 1_555
C35_3 C24_3 1_555 1_555
C36_3 C25_3 1_555 1_555
C37_3 C26_3 1_555 1_555
C40_3 C29_3 1_555 1_555
C41_3 C30_3 1_555 1_555
C42_3 C31_3 1_555 1_555
C43_3 C32_3 1_555 1_555
C44_3 C33_3 1_555 1_555
C45_3 C34_3 1_555 1_555
C46_3 C35_3 1_555 1_555
C47_3 C36_3 1_555 1_555
C48_3 C37_3 1_555 1_555
H16_3 C40_3 1_555 1_555
H17_3 C41_3 1_555 1_555
H18_3 C42_3 1_555 1_555
H19_3 C43_3 1_555 1_555
H20_3 C44_3 1_555 1_555
H21_3 C45_3 1_555 1_555
H22_3 C46_3 1_555 1_555
H23_3 C47_3 1_555 1_555
H24_3 C48_3 1_555 1_555
C51_3 C40_3 1_555 1_555
C52_3 C41_3 1_555 1_555
C53_3 C42_3 1_555 1_555
C54_3 C43_3 1_555 1_555
C55_3 C44_3 1_555 1_555
C56_3 C45_3 1_555 1_555
C57_3 C46_3 1_555 1_555
C58_3 C47_3 1_555 1_555
C59_3 C48_3 1_555 1_555
C62_3 C51_3 1_555 1_555
C63_3 C53_3 1_555 1_555
C64_3 C52_3 1_555 1_555
C65_3 C54_3 1_555 1_555
C66_3 C56_3 1_555 1_555
C67_3 C55_3 1_555 1_555
C68_3 C57_3 1_555 1_555
C69_3 C59_3 1_555 1_555
C70_3 C58_3 1_555 1_555
C73_3 C62_3 1_555 1_555
C74_3 C63_3 1_555 1_555
C75_3 C64_3 1_555 1_555
C76_3 C65_3 1_555 1_555
C77_3 C66_3 1_555 1_555
C78_3 C67_3 1_555 1_555
C79_3 C68_3 1_555 1_555
C80_3 C69_3 1_555 1_555
C81_3 C70_3 1_555 1_555
H27_3 C73_3 1_555 1_555
H28_3 C74_3 1_555 1_555
H29_3 C75_3 1_555 1_555
H30_3 C76_3 1_555 1_555
H31_3 C77_3 1_555 1_555
H32_3 C78_3 1_555 1_555
H33_3 C79_3 1_555 1_555
H34_3 C80_3 1_555 1_555
H35_3 C81_3 1_555 1_555
C84_3 C29_3 1_555 1_555
C85_3 C31_3 1_555 1_555
C86_3 C30_3 1_555 1_555
C87_3 C32_3 1_555 1_555
C88_3 C34_3 1_555 1_555
C89_3 C33_3 1_555 1_555
C90_3 C35_3 1_555 1_555
C91_3 C37_3 1_555 1_555
C92_3 C36_3 1_555 1_555
H38_3 C84_3 1_555 1_555
H39_3 C85_3 1_555 1_555
H40_3 C86_3 1_555 1_555
H41_3 C87_3 1_555 1_555
H42_3 C88_3 1_555 1_555
H43_3 C89_3 1_555 1_555
H44_3 C90_3 1_555 1_555
H45_3 C91_3 1_555 1_555
H46_3 C92_3 1_555 1_555
C95_3 C51_3 1_555 1_555
C96_3 C52_3 1_555 1_555
C97_3 C53_3 1_555 1_555
C98_3 C54_3 1_555 1_555
C99_3 C55_3 1_555 1_555
C100_3 C56_3 1_555 1_555
C101_3 C57_3 1_555 1_555
C102_3 C58_3 1_555 1_555
C103_3 C59_3 1_555 1_555
C106_3 C62_3 1_555 1_555
C107_3 C63_3 1_555 1_555
C108_3 C64_3 1_555 1_555
C109_3 C65_3 1_555 1_555
C110_3 C66_3 1_555 1_555
C111_3 C67_3 1_555 1_555
C112_3 C68_3 1_555 1_555
C113_3 C69_3 1_555 1_555
C114_3 C70_3 1_555 1_555
C117_3 C95_3 1_555 1_555
C118_3 C96_3 1_555 1_555
C119_3 C97_3 1_555 1_555
C120_3 C98_3 1_555 1_555
C121_3 C99_3 1_555 1_555
C122_3 C100_3 1_555 1_555
C123_3 C101_3 1_555 1_555
C124_3 C102_3 1_555 1_555
C125_3 C103_3 1_555 1_555
C128_3 C95_3 1_555 1_555
C129_3 C96_3 1_555 1_555
C130_3 C97_3 1_555 1_555
C131_3 C98_3 1_555 1_555
C132_3 C99_3 1_555 1_555
C133_3 C100_3 1_555 1_555
C134_3 C101_3 1_555 1_555
C135_3 C102_3 1_555 1_555
C136_3 C103_3 1_555 1_555
H49_3 C128_3 1_555 1_555
H50_3 C129_3 1_555 1_555
H51_3 C130_3 1_555 1_555
H52_3 C131_3 1_555 1_555
H53_3 C132_3 1_555 1_555
H54_3 C133_3 1_555 1_555
H55_3 C134_3 1_555 1_555
H56_3 C135_3 1_555 1_555
H57_3 C136_3 1_555 1_555
H60_3 C128_3 1_555 1_555
H61_3 C129_3 1_555 1_555
H62_3 C130_3 1_555 1_555
H63_3 C131_3 1_555 1_555
H64_3 C132_3 1_555 1_555
H65_3 C133_3 1_555 1_555
H66_3 C134_3 1_555 1_555
H67_3 C135_3 1_555 1_555
H68_3 C136_3 1_555 1_555
C139_3 C128_3 1_555 1_555
C140_3 C129_3 1_555 1_555
C141_3 C130_3 1_555 1_555
C142_3 C131_3 1_555 1_555
C143_3 C132_3 1_555 1_555
C144_3 C133_3 1_555 1_555
C145_3 C134_3 1_555 1_555
C146_3 C135_3 1_555 1_555
C147_3 C136_3 1_555 1_555
H71_3 C139_3 1_555 1_555
H72_3 C140_3 1_555 1_555
H73_3 C141_3 1_555 1_555
H74_3 C142_3 1_555 1_555
H75_3 C143_3 1_555 1_555
H76_3 C144_3 1_555 1_555
H77_3 C145_3 1_555 1_555
H78_3 C146_3 1_555 1_555
H79_3 C147_3 1_555 1_555
H82_3 C139_3 1_555 1_555
H83_3 C140_3 1_555 1_555
H84_3 C141_3 1_555 1_555
H85_3 C142_3 1_555 1_555
H86_3 C143_3 1_555 1_555
H87_3 C144_3 1_555 1_555
H88_3 C145_3 1_555 1_555
H89_3 C146_3 1_555 1_555
H90_3 C147_3 1_555 1_555
H93_3 C139_3 1_555 1_555
H94_3 C140_3 1_555 1_555
H95_3 C141_3 1_555 1_555
H96_3 C142_3 1_555 1_555
H97_3 C143_3 1_555 1_555
H98_3 C144_3 1_555 1_555
H99_3 C145_3 1_555 1_555
H100_3 C146_3 1_555 1_555
H101_3 C147_3 1_555 1_555
C150_3 C95_3 1_555 1_555
C151_3 C96_3 1_555 1_555
C152_3 C97_3 1_555 1_555
C153_3 C98_3 1_555 1_555
C154_3 C99_3 1_555 1_555
C155_3 C100_3 1_555 1_555
C156_3 C101_3 1_555 1_555
C157_3 C102_3 1_555 1_555
C158_3 C103_3 1_555 1_555
H104_3 C150_3 1_555 1_555
H105_3 C151_3 1_555 1_555
H106_3 C152_3 1_555 1_555
H107_3 C153_3 1_555 1_555
H108_3 C154_3 1_555 1_555
H109_3 C155_3 1_555 1_555
H110_3 C156_3 1_555 1_555
H111_3 C157_3 1_555 1_555
H112_3 C158_3 1_555 1_555
H115_3 C150_3 1_555 1_555
H116_3 C151_3 1_555 1_555
H117_3 C152_3 1_555 1_555
H118_3 C153_3 1_555 1_555
H119_3 C154_3 1_555 1_555
H120_3 C155_3 1_555 1_555
H121_3 C156_3 1_555 1_555
H122_3 C157_3 1_555 1_555
H123_3 C158_3 1_555 1_555
C161_3 C150_3 1_555 1_555
C162_3 C151_3 1_555 1_555
C163_3 C152_3 1_555 1_555
C164_3 C153_3 1_555 1_555
C165_3 C154_3 1_555 1_555
C166_3 C155_3 1_555 1_555
C167_3 C156_3 1_555 1_555
C168_3 C157_3 1_555 1_555
C169_3 C158_3 1_555 1_555
H126_3 C161_3 1_555 1_555
H127_3 C162_3 1_555 1_555
H128_3 C163_3 1_555 1_555
H129_3 C164_3 1_555 1_555
H130_3 C165_3 1_555 1_555
H131_3 C166_3 1_555 1_555
H132_3 C167_3 1_555 1_555
H133_3 C168_3 1_555 1_555
H134_3 C169_3 1_555 1_555
H137_3 C161_3 1_555 1_555
H138_3 C162_3 1_555 1_555
H139_3 C163_3 1_555 1_555
H140_3 C164_3 1_555 1_555
H141_3 C165_3 1_555 1_555
H142_3 C166_3 1_555 1_555
H143_3 C167_3 1_555 1_555
H144_3 C168_3 1_555 1_555
H145_3 C169_3 1_555 1_555
H148_3 C161_3 1_555 1_555
H149_3 C162_3 1_555 1_555
H150_3 C163_3 1_555 1_555
H151_3 C164_3 1_555 1_555
H152_3 C165_3 1_555 1_555
H153_3 C166_3 1_555 1_555
H154_3 C167_3 1_555 1_555
H155_3 C168_3 1_555 1_555
H156_3 C169_3 1_555 1_555
C170_6 O36_6 1_555 1_555
C171_6 O38_6 1_555 1_555
C172_6 O37_6 1_555 1_555
O4_6 Cd6_2 1_555 1_555
Cd6_2 O7_3 1_555 1_555
Cd3_6 O8_3 1_555 1_555
Cd4_6 O12_3 1_555 1_555
Cd4_6 O13_3 1_555 1_555
O8_3 C16_3 1_555 1_555
O26_3 C24_3 1_555 1_555
O29_3 C19_3 1_555 1_555
O34_3 C25_3 1_555 1_555
O35_3 C26_3 1_555 1_555
C73_3 C84_3 1_555 1_555
C74_3 C85_3 1_555 1_555
C75_3 C86_3 1_555 1_555
C76_3 C87_3 1_555 1_555
C77_3 C88_3 1_555 1_555
C78_3 C89_3 1_555 1_555
C79_3 C90_3 1_555 1_555
C80_3 C91_3 1_555 1_555
C81_3 C92_3 1_555 1_555
C106_3 C117_3 1_555 1_555
C106_3 C118_3 1_555 1_555
C107_3 C117_3 1_555 1_555
C107_3 C119_3 1_555 1_555
C108_3 C118_3 1_555 1_555
C108_3 C119_3 1_555 1_555
C109_3 C120_3 1_555 1_555
C109_3 C121_3 1_555 1_555
C110_3 C120_3 1_555 1_555
C110_3 C122_3 1_555 1_555
C111_3 C121_3 1_555 1_555
C111_3 C122_3 1_555 1_555
C112_3 C123_3 1_555 1_555
C112_3 C124_3 1_555 1_555
C113_3 C123_3 1_555 1_555
C113_3 C125_3 1_555 1_555
C114_3 C124_3 1_555 1_555
C114_3 C125_3 1_555 1_555
C171_6 H157_3 1_555 1_555
C171_6 H158_6 1_555 1_555
C170_6 H160_3 1_555 1_555
C170_6 H161_6 1_555 1_555
C172_6 H166_3 1_555 1_555
C172_6 H167_6 1_555 1_555
C15_6 H172_3 1_555 1_555
C15_6 H173_6 1_555 1_555
Cd1_3 O2_2 1_555 1_555
O2_2 C1_2 1_555 1_555
O3_4 Cd1_3 1_555 1_555
O4_7 Cd1_3 1_555 1_555
O5_7 Cd1_3 1_555 1_555
C1_2 C2_2 1_555 1_555
C2_2 C3_2 1_555 1_555
C3_2 H1_2 1_555 1_555
C4_2 C3_2 1_555 1_555
C5_2 C4_2 1_555 1_555
C6_2 C5_2 1_555 1_555
H2_2 C6_2 1_555 1_555
C7_2 C2_2 1_555 1_555
H3_2 C7_2 1_555 1_555
C8_2 C4_2 1_555 1_555
C9_2 C5_2 1_555 1_555
C10_2 C8_2 1_555 1_555
C11_2 C8_2 1_555 1_555
H4_2 C11_2 1_555 1_555
H5_2 C11_2 1_555 1_555
C12_2 C11_2 1_555 1_555
H6_2 C12_2 1_555 1_555
H7_2 C12_2 1_555 1_555
H8_2 C12_2 1_555 1_555
C13_2 C8_2 1_555 1_555
H9_2 C13_2 1_555 1_555
H10_2 C13_2 1_555 1_555
C14_2 C13_2 1_555 1_555
H11_2 C14_2 1_555 1_555
H12_2 C14_2 1_555 1_555
H13_2 C14_2 1_555 1_555
C15_7 O5_7 1_555 1_555
Cd18 O2_2 1_555 1_555
Cd10 O4_7 1_555 1_555
Cd9 O4_7 1_555 1_555
Cd5_3 O9_2 1_555 1_555
Cd6_3 O9_2 1_555 1_555
Cd17_2 O10_2 1_555 1_555
Cd8_3 O10_2 1_555 1_555
Cd13_7 O17_4 1_555 1_555
Cd14_7 O17_4 1_555 1_555
Cd15_4 O18_4 1_555 1_555
Cd11 O18_4 1_555 1_555
O6_4 Cd1_3 1_555 1_555
O7_4 Cd1_3 1_555 1_555
O8_4 Cd1_3 1_555 1_555
O9_2 C17_2 1_555 1_555
O10_2 C18_2 1_555 1_555
O11_4 Cd18 1_555 1_555
O14_4 Cd10 1_555 1_555
O17_4 C22_4 1_555 1_555
O18_4 C23_4 1_555 1_555
O21_4 Cd1_3 1_555 1_555
O22_2 C1_2 1_555 1_555
O23_2 Cd6_3 1_555 1_555
O24_2 Cd8_3 1_555 1_555
O25_4 Cd18 1_555 1_555
O27_4 Cd10 1_555 1_555
O28_4 Cd9 1_555 1_555
O32_4 Cd14_7 1_555 1_555
O33_4 Cd11 1_555 1_555
O36_7 Cd18 1_555 1_555
O37_7 Cd10 1_555 1_555
O38_7 Cd9 1_555 1_555
C16_4 O3_4 1_555 1_555
C17_2 O23_2 1_555 1_555
C18_2 O24_2 1_555 1_555
C22_4 O32_4 1_555 1_555
C23_4 O33_4 1_555 1_555
C27_2 C17_2 1_555 1_555
C28_2 C18_2 1_555 1_555
C32_4 C16_4 1_555 1_555
C33_4 C22_4 1_555 1_555
C34_4 C23_4 1_555 1_555
C38_2 C27_2 1_555 1_555
C39_2 C28_2 1_555 1_555
C43_4 C32_4 1_555 1_555
C44_4 C33_4 1_555 1_555
C45_4 C34_4 1_555 1_555
H14_2 C38_2 1_555 1_555
H15_2 C39_2 1_555 1_555
H19_4 C43_4 1_555 1_555
H20_4 C44_4 1_555 1_555
H21_4 C45_4 1_555 1_555
C49_2 C38_2 1_555 1_555
C50_2 C39_2 1_555 1_555
C54_4 C43_4 1_555 1_555
C55_4 C44_4 1_555 1_555
C56_4 C45_4 1_555 1_555
C60_2 C50_2 1_555 1_555
C61_2 C49_2 1_555 1_555
C65_4 C54_4 1_555 1_555
C66_4 C56_4 1_555 1_555
C67_4 C55_4 1_555 1_555
C71_2 C60_2 1_555 1_555
C72_2 C61_2 1_555 1_555
C76_4 C65_4 1_555 1_555
C77_4 C66_4 1_555 1_555
C78_4 C67_4 1_555 1_555
H25_2 C71_2 1_555 1_555
H26_2 C72_2 1_555 1_555
H30_4 C76_4 1_555 1_555
H31_4 C77_4 1_555 1_555
H32_4 C78_4 1_555 1_555
C82_2 C28_2 1_555 1_555
C83_2 C27_2 1_555 1_555
C87_4 C32_4 1_555 1_555
C88_4 C34_4 1_555 1_555
C89_4 C33_4 1_555 1_555
H36_2 C82_2 1_555 1_555
H37_2 C83_2 1_555 1_555
H41_4 C87_4 1_555 1_555
H42_4 C88_4 1_555 1_555
H43_4 C89_4 1_555 1_555
C93_2 C49_2 1_555 1_555
C94_2 C50_2 1_555 1_555
C98_4 C54_4 1_555 1_555
C99_4 C55_4 1_555 1_555
C100_4 C56_4 1_555 1_555
C104_2 C10_2 1_555 1_555
C105_2 C61_2 1_555 1_555
C109_4 C65_4 1_555 1_555
C110_4 C66_4 1_555 1_555
C111_4 C67_4 1_555 1_555
C115_2 C9_2 1_555 1_555
C116_2 C94_2 1_555 1_555
C120_4 C98_4 1_555 1_555
C121_4 C99_4 1_555 1_555
C122_4 C100_4 1_555 1_555
C126_2 C93_2 1_555 1_555
C127_2 C94_2 1_555 1_555
C131_4 C98_4 1_555 1_555
C132_4 C99_4 1_555 1_555
C133_4 C100_4 1_555 1_555
H47_2 C126_2 1_555 1_555
H48_2 C127_2 1_555 1_555
H52_4 C131_4 1_555 1_555
H53_4 C132_4 1_555 1_555
H54_4 C133_4 1_555 1_555
H58_2 C126_2 1_555 1_555
H59_2 C127_2 1_555 1_555
H63_4 C131_4 1_555 1_555
H64_4 C132_4 1_555 1_555
H65_4 C133_4 1_555 1_555
C137_2 C126_2 1_555 1_555
C138_2 C127_2 1_555 1_555
C142_4 C131_4 1_555 1_555
C143_4 C132_4 1_555 1_555
C144_4 C133_4 1_555 1_555
H69_2 C137_2 1_555 1_555
H70_2 C138_2 1_555 1_555
H74_4 C142_4 1_555 1_555
H75_4 C143_4 1_555 1_555
H76_4 C144_4 1_555 1_555
H80_2 C137_2 1_555 1_555
H81_2 C138_2 1_555 1_555
H85_4 C142_4 1_555 1_555
H86_4 C143_4 1_555 1_555
H87_4 C144_4 1_555 1_555
H91_2 C137_2 1_555 1_555
H92_2 C138_2 1_555 1_555
H96_4 C142_4 1_555 1_555
H97_4 C143_4 1_555 1_555
H98_4 C144_4 1_555 1_555
C148_2 C93_2 1_555 1_555
C149_2 C94_2 1_555 1_555
C153_4 C98_4 1_555 1_555
C154_4 C99_4 1_555 1_555
C155_4 C100_4 1_555 1_555
H102_2 C148_2 1_555 1_555
H103_2 C149_2 1_555 1_555
H107_4 C153_4 1_555 1_555
H108_4 C154_4 1_555 1_555
H109_4 C155_4 1_555 1_555
H113_2 C148_2 1_555 1_555
H114_2 C149_2 1_555 1_555
H118_4 C153_4 1_555 1_555
H119_4 C154_4 1_555 1_555
H120_4 C155_4 1_555 1_555
C159_2 C148_2 1_555 1_555
C160_2 C149_2 1_555 1_555
C164_4 C153_4 1_555 1_555
C165_4 C154_4 1_555 1_555
C166_4 C155_4 1_555 1_555
H124_2 C159_2 1_555 1_555
H125_2 C160_2 1_555 1_555
H129_4 C164_4 1_555 1_555
H130_4 C165_4 1_555 1_555
H131_4 C166_4 1_555 1_555
H135_2 C159_2 1_555 1_555
H136_2 C160_2 1_555 1_555
H140_4 C164_4 1_555 1_555
H141_4 C165_4 1_555 1_555
H142_4 C166_4 1_555 1_555
H146_2 C159_2 1_555 1_555
H147_2 C160_2 1_555 1_555
H151_4 C164_4 1_555 1_555
H152_4 C165_4 1_555 1_555
H153_4 C166_4 1_555 1_555
C170_7 O36_7 1_555 1_555
C171_7 O38_7 1_555 1_555
C172_7 O37_7 1_555 1_555
O4_7 Cd18 1_555 1_555
C6_2 C7_2 1_555 1_555
C9_2 C10_2 1_555 1_555
Cd18 O7_4 1_555 1_555
Cd18 O22_2 1_555 1_555
Cd10 O6_4 1_555 1_555
Cd10 O8_4 1_555 1_555
Cd9 O11_4 1_555 1_555
Cd9 O14_4 1_555 1_555
O8_4 C16_4 1_555 1_555
C60_2 C104_2 1_555 1_555
C71_2 C82_2 1_555 1_555
C72_2 C83_2 1_555 1_555
C76_4 C87_4 1_555 1_555
C77_4 C88_4 1_555 1_555
C78_4 C89_4 1_555 1_555
C93_2 C115_2 1_555 1_555
C104_2 C116_2 1_555 1_555
C105_2 C115_2 1_555 1_555
C105_2 C116_2 1_555 1_555
C109_4 C120_4 1_555 1_555
C109_4 C121_4 1_555 1_555
C110_4 C120_4 1_555 1_555
C110_4 C122_4 1_555 1_555
C111_4 C121_4 1_555 1_555
C111_4 C122_4 1_555 1_555
C171_7 H157_4 1_555 1_555
C171_7 H158_7 1_555 1_555
C171_7 H159_4 1_555 1_555
C170_7 H160_4 1_555 1_555
C170_7 H161_7 1_555 1_555
C170_7 H162_4 1_555 1_555
C172_7 H166_4 1_555 1_555
C172_7 H167_7 1_555 1_555
C172_7 H168_4 1_555 1_555
C15_7 H172_4 1_555 1_555
C15_7 H173_7 1_555 1_555
C15_7 H174_4 1_555 1_555
Cd1_4 O2_3 1_555 1_555
O2_3 C1_3 1_555 1_555
O3_5 Cd1_4 1_555 1_555
O4_8 Cd1_4 1_555 1_555
O5_8 Cd1_4 1_555 1_555
C1_3 C2_3 1_555 1_555
C2_3 C3_3 1_555 1_555
C3_3 H1_3 1_555 1_555
C4_3 C3_3 1_555 1_555
C5_3 C4_3 1_555 1_555
C6_3 C5_3 1_555 1_555
H2_3 C6_3 1_555 1_555
C7_3 C2_3 1_555 1_555
H3_3 C7_3 1_555 1_555
C8_3 C4_3 1_555 1_555
C9_3 C5_3 1_555 1_555
C10_3 C8_3 1_555 1_555
C11_3 C8_3 1_555 1_555
H4_3 C11_3 1_555 1_555
H5_3 C11_3 1_555 1_555
C12_3 C11_3 1_555 1_555
H6_3 C12_3 1_555 1_555
H7_3 C12_3 1_555 1_555
H8_3 C12_3 1_555 1_555
C13_3 C8_3 1_555 1_555
H9_3 C13_3 1_555 1_555
H10_3 C13_3 1_555 1_555
C14_3 C13_3 1_555 1_555
H11_3 C14_3 1_555 1_555
H12_3 C14_3 1_555 1_555
H13_3 C14_3 1_555 1_555
C15_8 O5_8 1_555 1_555
Cd2_3 O2_3 1_555 1_555
Cd3_7 O4_8 1_555 1_555
Cd4_7 O4_8 1_555 1_555
Cd17 O9_3 1_555 1_555
Cd6_4 O9_3 1_555 1_555
Cd7_3 O10_3 1_555 1_555
Cd18_3 O10_3 1_555 1_555
Cd9_5 O15_4 1_555 1_555
Cd10_5 O15_4 1_555 1_555
Cd11_7 O16_4 1_555 1_555
Cd5_3 O16_4 1_555 1_555
Cd13_8 O17_5 1_555 1_555
Cd14_8 O17_5 1_555 1_555
Cd15_7 O18_5 1_555 1_555
Cd16_5 O18_5 1_555 1_555
Cd17_5 O19_4 1_555 1_555
Cd18_5 O20_4 1_555 1_555
O6_5 Cd1_4 1_555 1_555
O7_5 Cd1_4 1_555 1_555
O8_5 Cd1_4 1_555 1_555
O9_3 C17_3 1_555 1_555
O10_3 C18_3 1_555 1_555
O11_5 Cd2_3 1_555 1_555
O12_4 Cd2_3 1_555 1_555
O13_4 Cd3_7 1_555 1_555
O14_5 Cd3_7 1_555 1_555
O15_4 C20_4 1_555 1_555
O16_4 C21_4 1_555 1_555
O17_5 C22_5 1_555 1_555
O18_5 C23_5 1_555 1_555
O19_4 Cd16_5 1_555 1_555
O20_4 Cd9_5 1_555 1_555
O21_5 Cd1_4 1_555 1_555
O22_3 C1_3 1_555 1_555
O23_3 Cd6_4 1_555 1_555
O24_3 Cd18_3 1_555 1_555
O25_5 Cd2_3 1_555 1_555
O26_4 Cd3_7 1_555 1_555
O27_5 Cd3_7 1_555 1_555
O28_5 Cd4_7 1_555 1_555
O29_4 Cd4_7 1_555 1_555
O30_4 Cd10_5 1_555 1_555
O31_4 Cd5_3 1_555 1_555
O32_5 Cd14_8 1_555 1_555
O33_5 Cd16_5 1_555 1_555
O34_4 Cd17_5 1_555 1_555
O35_4 Cd9_5 1_555 1_555
O36_8 Cd2_3 1_555 1_555
O37_8 Cd3_7 1_555 1_555
O38_8 Cd4_7 1_555 1_555
C16_5 O3_5 1_555 1_555
C17_3 O23_3 1_555 1_555
C18_3 O24_3 1_555 1_555
C19_4 O12_4 1_555 1_555
C20_4 O30_4 1_555 1_555
C21_4 O31_4 1_555 1_555
C22_5 O32_5 1_555 1_555
C23_5 O33_5 1_555 1_555
C24_4 O13_4 1_555 1_555
C25_4 O19_4 1_555 1_555
C26_4 O20_4 1_555 1_555
C27_3 C17_3 1_555 1_555
C28_3 C18_3 1_555 1_555
C29_4 C19_4 1_555 1_555
C30_4 C20_4 1_555 1_555
C31_4 C21_4 1_555 1_555
C32_5 C16_5 1_555 1_555
C33_5 C22_5 1_555 1_555
C34_5 C23_5 1_555 1_555
C35_4 C24_4 1_555 1_555
C36_4 C25_4 1_555 1_555
C37_4 C26_4 1_555 1_555
C38_3 C27_3 1_555 1_555
C39_3 C28_3 1_555 1_555
C40_4 C29_4 1_555 1_555
C41_4 C30_4 1_555 1_555
C42_4 C31_4 1_555 1_555
C43_5 C32_5 1_555 1_555
C44_5 C33_5 1_555 1_555
C45_5 C34_5 1_555 1_555
C46_4 C35_4 1_555 1_555
C47_4 C36_4 1_555 1_555
C48_4 C37_4 1_555 1_555
H14_3 C38_3 1_555 1_555
H15_3 C39_3 1_555 1_555
H16_4 C40_4 1_555 1_555
H17_4 C41_4 1_555 1_555
H18_4 C42_4 1_555 1_555
H19_5 C43_5 1_555 1_555
H20_5 C44_5 1_555 1_555
H21_5 C45_5 1_555 1_555
H22_4 C46_4 1_555 1_555
H23_4 C47_4 1_555 1_555
H24_4 C48_4 1_555 1_555
C49_3 C38_3 1_555 1_555
C50_3 C39_3 1_555 1_555
C51_4 C40_4 1_555 1_555
C52_4 C41_4 1_555 1_555
C53_4 C42_4 1_555 1_555
C54_5 C43_5 1_555 1_555
C55_5 C44_5 1_555 1_555
C56_5 C45_5 1_555 1_555
C57_4 C46_4 1_555 1_555
C58_4 C47_4 1_555 1_555
C59_4 C48_4 1_555 1_555
C60_3 C50_3 1_555 1_555
C61_3 C49_3 1_555 1_555
C62_4 C51_4 1_555 1_555
C63_4 C53_4 1_555 1_555
C64_4 C52_4 1_555 1_555
C65_5 C54_5 1_555 1_555
C66_5 C56_5 1_555 1_555
C67_5 C55_5 1_555 1_555
C68_4 C57_4 1_555 1_555
C69_4 C59_4 1_555 1_555
C70_4 C58_4 1_555 1_555
C71_3 C60_3 1_555 1_555
C72_3 C61_3 1_555 1_555
C73_4 C62_4 1_555 1_555
C74_4 C63_4 1_555 1_555
C75_4 C64_4 1_555 1_555
C76_5 C65_5 1_555 1_555
C77_5 C66_5 1_555 1_555
C78_5 C67_5 1_555 1_555
C79_4 C68_4 1_555 1_555
C80_4 C69_4 1_555 1_555
C81_4 C70_4 1_555 1_555
H25_3 C71_3 1_555 1_555
H26_3 C72_3 1_555 1_555
H27_4 C73_4 1_555 1_555
H28_4 C74_4 1_555 1_555
H29_4 C75_4 1_555 1_555
H30_5 C76_5 1_555 1_555
H31_5 C77_5 1_555 1_555
H32_5 C78_5 1_555 1_555
H33_4 C79_4 1_555 1_555
H34_4 C80_4 1_555 1_555
H35_4 C81_4 1_555 1_555
C82_3 C28_3 1_555 1_555
C83_3 C27_3 1_555 1_555
C84_4 C29_4 1_555 1_555
C85_4 C31_4 1_555 1_555
C86_4 C30_4 1_555 1_555
C87_5 C32_5 1_555 1_555
C88_5 C34_5 1_555 1_555
C89_5 C33_5 1_555 1_555
C90_4 C35_4 1_555 1_555
C91_4 C37_4 1_555 1_555
C92_4 C36_4 1_555 1_555
H36_3 C82_3 1_555 1_555
H37_3 C83_3 1_555 1_555
H38_4 C84_4 1_555 1_555
H39_4 C85_4 1_555 1_555
H40_4 C86_4 1_555 1_555
H41_5 C87_5 1_555 1_555
H42_5 C88_5 1_555 1_555
H43_5 C89_5 1_555 1_555
H44_4 C90_4 1_555 1_555
H45_4 C91_4 1_555 1_555
H46_4 C92_4 1_555 1_555
C93_3 C49_3 1_555 1_555
C94_3 C50_3 1_555 1_555
C95_4 C51_4 1_555 1_555
C96_4 C52_4 1_555 1_555
C97_4 C53_4 1_555 1_555
C98_5 C54_5 1_555 1_555
C99_5 C55_5 1_555 1_555
C100_5 C56_5 1_555 1_555
C101_4 C57_4 1_555 1_555
C102_4 C58_4 1_555 1_555
C103_4 C59_4 1_555 1_555
C104_3 C10_3 1_555 1_555
C105_3 C61_3 1_555 1_555
C106_4 C62_4 1_555 1_555
C107_4 C63_4 1_555 1_555
C108_4 C64_4 1_555 1_555
C109_5 C65_5 1_555 1_555
C110_5 C66_5 1_555 1_555
C111_5 C67_5 1_555 1_555
C112_4 C68_4 1_555 1_555
C113_4 C69_4 1_555 1_555
C114_4 C70_4 1_555 1_555
C115_3 C9_3 1_555 1_555
C116_3 C94_3 1_555 1_555
C117_4 C95_4 1_555 1_555
C118_4 C96_4 1_555 1_555
C119_4 C97_4 1_555 1_555
C120_5 C98_5 1_555 1_555
C121_5 C99_5 1_555 1_555
C122_5 C100_5 1_555 1_555
C123_4 C101_4 1_555 1_555
C124_4 C102_4 1_555 1_555
C125_4 C103_4 1_555 1_555
C126_3 C93_3 1_555 1_555
C127_3 C94_3 1_555 1_555
C128_4 C95_4 1_555 1_555
C129_4 C96_4 1_555 1_555
C130_4 C97_4 1_555 1_555
C131_5 C98_5 1_555 1_555
C132_5 C99_5 1_555 1_555
C133_5 C100_5 1_555 1_555
C134_4 C101_4 1_555 1_555
C135_4 C102_4 1_555 1_555
C136_4 C103_4 1_555 1_555
H47_3 C126_3 1_555 1_555
H48_3 C127_3 1_555 1_555
H49_4 C128_4 1_555 1_555
H50_4 C129_4 1_555 1_555
H51_4 C130_4 1_555 1_555
H52_5 C131_5 1_555 1_555
H53_5 C132_5 1_555 1_555
H54_5 C133_5 1_555 1_555
H55_4 C134_4 1_555 1_555
H56_4 C135_4 1_555 1_555
H57_4 C136_4 1_555 1_555
H58_3 C126_3 1_555 1_555
H59_3 C127_3 1_555 1_555
H60_4 C128_4 1_555 1_555
H61_4 C129_4 1_555 1_555
H62_4 C130_4 1_555 1_555
H63_5 C131_5 1_555 1_555
H64_5 C132_5 1_555 1_555
H65_5 C133_5 1_555 1_555
H66_4 C134_4 1_555 1_555
H67_4 C135_4 1_555 1_555
H68_4 C136_4 1_555 1_555
C137_3 C126_3 1_555 1_555
C138_3 C127_3 1_555 1_555
C139_4 C128_4 1_555 1_555
C140_4 C129_4 1_555 1_555
C141_4 C130_4 1_555 1_555
C142_5 C131_5 1_555 1_555
C143_5 C132_5 1_555 1_555
C144_5 C133_5 1_555 1_555
C145_4 C134_4 1_555 1_555
C146_4 C135_4 1_555 1_555
C147_4 C136_4 1_555 1_555
H69_3 C137_3 1_555 1_555
H70_3 C138_3 1_555 1_555
H71_4 C139_4 1_555 1_555
H72_4 C140_4 1_555 1_555
H73_4 C141_4 1_555 1_555
H74_5 C142_5 1_555 1_555
H75_5 C143_5 1_555 1_555
H76_5 C144_5 1_555 1_555
H77_4 C145_4 1_555 1_555
H78_4 C146_4 1_555 1_555
H79_4 C147_4 1_555 1_555
H80_3 C137_3 1_555 1_555
H81_3 C138_3 1_555 1_555
H82_4 C139_4 1_555 1_555
H83_4 C140_4 1_555 1_555
H84_4 C141_4 1_555 1_555
H85_5 C142_5 1_555 1_555
H86_5 C143_5 1_555 1_555
H87_5 C144_5 1_555 1_555
H88_4 C145_4 1_555 1_555
H89_4 C146_4 1_555 1_555
H90_4 C147_4 1_555 1_555
H91_3 C137_3 1_555 1_555
H92_3 C138_3 1_555 1_555
H93_4 C139_4 1_555 1_555
H94_4 C140_4 1_555 1_555
H95_4 C141_4 1_555 1_555
H96_5 C142_5 1_555 1_555
H97_5 C143_5 1_555 1_555
H98_5 C144_5 1_555 1_555
H99_4 C145_4 1_555 1_555
H100_4 C146_4 1_555 1_555
H101_4 C147_4 1_555 1_555
C148_3 C93_3 1_555 1_555
C149_3 C94_3 1_555 1_555
C150_4 C95_4 1_555 1_555
C151_4 C96_4 1_555 1_555
C152_4 C97_4 1_555 1_555
C153_5 C98_5 1_555 1_555
C154_5 C99_5 1_555 1_555
C155_5 C100_5 1_555 1_555
C156_4 C101_4 1_555 1_555
C157_4 C102_4 1_555 1_555
C158_4 C103_4 1_555 1_555
H102_3 C148_3 1_555 1_555
H103_3 C149_3 1_555 1_555
H104_4 C150_4 1_555 1_555
H105_4 C151_4 1_555 1_555
H106_4 C152_4 1_555 1_555
H107_5 C153_5 1_555 1_555
H108_5 C154_5 1_555 1_555
H109_5 C155_5 1_555 1_555
H110_4 C156_4 1_555 1_555
H111_4 C157_4 1_555 1_555
H112_4 C158_4 1_555 1_555
H113_3 C148_3 1_555 1_555
H114_3 C149_3 1_555 1_555
H115_4 C150_4 1_555 1_555
H116_4 C151_4 1_555 1_555
H117_4 C152_4 1_555 1_555
H118_5 C153_5 1_555 1_555
H119_5 C154_5 1_555 1_555
H120_5 C155_5 1_555 1_555
H121_4 C156_4 1_555 1_555
H122_4 C157_4 1_555 1_555
H123_4 C158_4 1_555 1_555
C159_3 C148_3 1_555 1_555
C160_3 C149_3 1_555 1_555
C161_4 C150_4 1_555 1_555
C162_4 C151_4 1_555 1_555
C163_4 C152_4 1_555 1_555
C164_5 C153_5 1_555 1_555
C165_5 C154_5 1_555 1_555
C166_5 C155_5 1_555 1_555
C167_4 C156_4 1_555 1_555
C168_4 C157_4 1_555 1_555
C169_4 C158_4 1_555 1_555
H124_3 C159_3 1_555 1_555
H125_3 C160_3 1_555 1_555
H126_4 C161_4 1_555 1_555
H127_4 C162_4 1_555 1_555
H128_4 C163_4 1_555 1_555
H129_5 C164_5 1_555 1_555
H130_5 C165_5 1_555 1_555
H131_5 C166_5 1_555 1_555
H132_4 C167_4 1_555 1_555
H133_4 C168_4 1_555 1_555
H134_4 C169_4 1_555 1_555
H135_3 C159_3 1_555 1_555
H136_3 C160_3 1_555 1_555
H137_4 C161_4 1_555 1_555
H138_4 C162_4 1_555 1_555
H139_4 C163_4 1_555 1_555
H140_5 C164_5 1_555 1_555
H141_5 C165_5 1_555 1_555
H142_5 C166_5 1_555 1_555
H143_4 C167_4 1_555 1_555
H144_4 C168_4 1_555 1_555
H145_4 C169_4 1_555 1_555
H146_3 C159_3 1_555 1_555
H147_3 C160_3 1_555 1_555
H148_4 C161_4 1_555 1_555
H149_4 C162_4 1_555 1_555
H150_4 C163_4 1_555 1_555
H151_5 C164_5 1_555 1_555
H152_5 C165_5 1_555 1_555
H153_5 C166_5 1_555 1_555
H154_4 C167_4 1_555 1_555
H155_4 C168_4 1_555 1_555
H156_4 C169_4 1_555 1_555
C170_8 O36_8 1_555 1_555
C171_8 O38_8 1_555 1_555
C172_8 O37_8 1_555 1_555
O4_8 Cd2_3 1_555 1_555
C6_3 C7_3 1_555 1_555
C9_3 C10_3 1_555 1_555
Cd2_3 O7_5 1_555 1_555
Cd2_3 O22_3 1_555 1_555
Cd3_7 O6_5 1_555 1_555
Cd3_7 O8_5 1_555 1_555
Cd4_7 O11_5 1_555 1_555
Cd4_7 O12_4 1_555 1_555
Cd4_7 O13_4 1_555 1_555
Cd4_7 O14_5 1_555 1_555
O8_5 C16_5 1_555 1_555
O26_4 C24_4 1_555 1_555
O29_4 C19_4 1_555 1_555
O34_4 C25_4 1_555 1_555
O35_4 C26_4 1_555 1_555
C60_3 C104_3 1_555 1_555
C71_3 C82_3 1_555 1_555
C72_3 C83_3 1_555 1_555
C73_4 C84_4 1_555 1_555
C74_4 C85_4 1_555 1_555
C75_4 C86_4 1_555 1_555
C76_5 C87_5 1_555 1_555
C77_5 C88_5 1_555 1_555
C78_5 C89_5 1_555 1_555
C79_4 C90_4 1_555 1_555
C80_4 C91_4 1_555 1_555
C81_4 C92_4 1_555 1_555
C93_3 C115_3 1_555 1_555
C104_3 C116_3 1_555 1_555
C105_3 C115_3 1_555 1_555
C105_3 C116_3 1_555 1_555
C106_4 C117_4 1_555 1_555
C106_4 C118_4 1_555 1_555
C107_4 C117_4 1_555 1_555
C107_4 C119_4 1_555 1_555
C108_4 C118_4 1_555 1_555
C108_4 C119_4 1_555 1_555
C109_5 C120_5 1_555 1_555
C109_5 C121_5 1_555 1_555
C110_5 C120_5 1_555 1_555
C110_5 C122_5 1_555 1_555
C111_5 C121_5 1_555 1_555
C111_5 C122_5 1_555 1_555
C112_4 C123_4 1_555 1_555
C112_4 C124_4 1_555 1_555
C113_4 C123_4 1_555 1_555
C113_4 C125_4 1_555 1_555
C114_4 C124_4 1_555 1_555
C114_4 C125_4 1_555 1_555
C171_8 H157_5 1_555 1_555
C171_8 H158_8 1_555 1_555
C171_8 H159_5 1_555 1_555
C170_8 H160_5 1_555 1_555
C170_8 H161_8 1_555 1_555
C170_8 H162_5 1_555 1_555
C172_8 H166_5 1_555 1_555
C172_8 H167_8 1_555 1_555
C172_8 H168_5 1_555 1_555
C15_8 H172_5 1_555 1_555
C15_8 H173_8 1_555 1_555
C15_8 H174_5 1_555 1_555
Cd17_3 O2_4 1_555 1_555
O2_4 C1_4 1_555 1_555
O4_9 Cd17_3 1_555 1_555
O5_9 Cd17_3 1_555 1_555
C1_4 C2_4 1_555 1_555
C2_4 C3_4 1_555 1_555
C3_4 H1_4 1_555 1_555
C4_4 C3_4 1_555 1_555
C5_4 C4_4 1_555 1_555
C6_4 C5_4 1_555 1_555
H2_4 C6_4 1_555 1_555
C7_4 C2_4 1_555 1_555
H3_4 C7_4 1_555 1_555
C8_4 C4_4 1_555 1_555
C9_4 C5_4 1_555 1_555
C10_4 C8_4 1_555 1_555
C11_4 C8_4 1_555 1_555
H4_4 C11_4 1_555 1_555
H5_4 C11_4 1_555 1_555
C12_4 C11_4 1_555 1_555
H6_4 C12_4 1_555 1_555
H7_4 C12_4 1_555 1_555
H8_4 C12_4 1_555 1_555
C13_4 C8_4 1_555 1_555
H9_4 C13_4 1_555 1_555
H10_4 C13_4 1_555 1_555
C14_4 C13_4 1_555 1_555
H11_4 C14_4 1_555 1_555
H12_4 C14_4 1_555 1_555
H13_4 C14_4 1_555 1_555
C15_9 O5_9 1_555 1_555
Cd2_4 O2_4 1_555 1_555
Cd16_3 O4_9 1_555 1_555
Cd15_3 O4_9 1_555 1_555
Cd5_4 O9_4 1_555 1_555
Cd18_2 O9_4 1_555 1_555
Cd7_4 O10_4 1_555 1_555
Cd13_8 O10_4 1_555 1_555
Cd14_5 O15_5 1_555 1_555
Cd10_6 O15_5 1_555 1_555
Cd11_8 O16_5 1_555 1_555
Cd12_7 O16_5 1_555 1_555
O6_6 Cd17_3 1_555 1_555
O7_6 Cd17_3 1_555 1_555
O9_4 C17_4 1_555 1_555
O10_4 C18_4 1_555 1_555
O11_6 Cd2_4 1_555 1_555
O12_5 Cd2_4 1_555 1_555
O14_6 Cd16_3 1_555 1_555
O15_5 C20_5 1_555 1_555
O16_5 C21_5 1_555 1_555
O21_6 Cd17_3 1_555 1_555
O22_4 C1_4 1_555 1_555
O23_4 Cd18_2 1_555 1_555
O24_4 Cd13_8 1_555 1_555
O25_6 Cd2_4 1_555 1_555
O27_6 Cd16_3 1_555 1_555
O28_6 Cd15_3 1_555 1_555
O29_5 Cd15_3 1_555 1_555
O30_5 Cd10_6 1_555 1_555
O31_5 Cd12_7 1_555 1_555
O36_9 Cd2_4 1_555 1_555
O37_9 Cd16_3 1_555 1_555
O38_9 Cd15_3 1_555 1_555
C17_4 O23_4 1_555 1_555
C18_4 O24_4 1_555 1_555
C19_5 O12_5 1_555 1_555
C20_5 O30_5 1_555 1_555
C21_5 O31_5 1_555 1_555
C27_4 C17_4 1_555 1_555
C28_4 C18_4 1_555 1_555
C29_5 C19_5 1_555 1_555
C30_5 C20_5 1_555 1_555
C31_5 C21_5 1_555 1_555
C38_4 C27_4 1_555 1_555
C39_4 C28_4 1_555 1_555
C40_5 C29_5 1_555 1_555
C41_5 C30_5 1_555 1_555
C42_5 C31_5 1_555 1_555
H14_4 C38_4 1_555 1_555
H15_4 C39_4 1_555 1_555
H16_5 C40_5 1_555 1_555
H17_5 C41_5 1_555 1_555
H18_5 C42_5 1_555 1_555
C49_4 C38_4 1_555 1_555
C50_4 C39_4 1_555 1_555
C51_5 C40_5 1_555 1_555
C52_5 C41_5 1_555 1_555
C53_5 C42_5 1_555 1_555
C60_4 C50_4 1_555 1_555
C61_4 C49_4 1_555 1_555
C62_5 C51_5 1_555 1_555
C63_5 C53_5 1_555 1_555
C64_5 C52_5 1_555 1_555
C71_4 C60_4 1_555 1_555
C72_4 C61_4 1_555 1_555
C73_5 C62_5 1_555 1_555
C74_5 C63_5 1_555 1_555
C75_5 C64_5 1_555 1_555
H25_4 C71_4 1_555 1_555
H26_4 C72_4 1_555 1_555
H27_5 C73_5 1_555 1_555
H28_5 C74_5 1_555 1_555
H29_5 C75_5 1_555 1_555
C82_4 C28_4 1_555 1_555
C83_4 C27_4 1_555 1_555
C84_5 C29_5 1_555 1_555
C85_5 C31_5 1_555 1_555
C86_5 C30_5 1_555 1_555
H36_4 C82_4 1_555 1_555
H37_4 C83_4 1_555 1_555
H38_5 C84_5 1_555 1_555
H39_5 C85_5 1_555 1_555
H40_5 C86_5 1_555 1_555
C93_4 C49_4 1_555 1_555
C94_4 C50_4 1_555 1_555
C95_5 C51_5 1_555 1_555
C96_5 C52_5 1_555 1_555
C97_5 C53_5 1_555 1_555
C104_4 C10_4 1_555 1_555
C105_4 C61_4 1_555 1_555
C106_5 C62_5 1_555 1_555
C107_5 C63_5 1_555 1_555
C108_5 C64_5 1_555 1_555
C115_4 C9_4 1_555 1_555
C116_4 C94_4 1_555 1_555
C117_5 C95_5 1_555 1_555
C118_5 C96_5 1_555 1_555
C119_5 C97_5 1_555 1_555
C126_4 C93_4 1_555 1_555
C127_4 C94_4 1_555 1_555
C128_5 C95_5 1_555 1_555
C129_5 C96_5 1_555 1_555
C130_5 C97_5 1_555 1_555
H47_4 C126_4 1_555 1_555
H48_4 C127_4 1_555 1_555
H49_5 C128_5 1_555 1_555
H50_5 C129_5 1_555 1_555
H51_5 C130_5 1_555 1_555
H58_4 C126_4 1_555 1_555
H59_4 C127_4 1_555 1_555
H60_5 C128_5 1_555 1_555
H61_5 C129_5 1_555 1_555
H62_5 C130_5 1_555 1_555
C137_4 C126_4 1_555 1_555
C138_4 C127_4 1_555 1_555
C139_5 C128_5 1_555 1_555
C140_5 C129_5 1_555 1_555
C141_5 C130_5 1_555 1_555
H69_4 C137_4 1_555 1_555
H70_4 C138_4 1_555 1_555
H71_5 C139_5 1_555 1_555
H72_5 C140_5 1_555 1_555
H73_5 C141_5 1_555 1_555
H80_4 C137_4 1_555 1_555
H81_4 C138_4 1_555 1_555
H82_5 C139_5 1_555 1_555
H83_5 C140_5 1_555 1_555
H84_5 C141_5 1_555 1_555
H91_4 C137_4 1_555 1_555
H92_4 C138_4 1_555 1_555
H93_5 C139_5 1_555 1_555
H94_5 C140_5 1_555 1_555
H95_5 C141_5 1_555 1_555
C148_4 C93_4 1_555 1_555
C149_4 C94_4 1_555 1_555
C150_5 C95_5 1_555 1_555
C151_5 C96_5 1_555 1_555
C152_5 C97_5 1_555 1_555
H102_4 C148_4 1_555 1_555
H103_4 C149_4 1_555 1_555
H104_5 C150_5 1_555 1_555
H105_5 C151_5 1_555 1_555
H106_5 C152_5 1_555 1_555
H113_4 C148_4 1_555 1_555
H114_4 C149_4 1_555 1_555
H115_5 C150_5 1_555 1_555
H116_5 C151_5 1_555 1_555
H117_5 C152_5 1_555 1_555
C159_4 C148_4 1_555 1_555
C160_4 C149_4 1_555 1_555
C161_5 C150_5 1_555 1_555
C162_5 C151_5 1_555 1_555
C163_5 C152_5 1_555 1_555
H124_4 C159_4 1_555 1_555
H125_4 C160_4 1_555 1_555
H126_5 C161_5 1_555 1_555
H127_5 C162_5 1_555 1_555
H128_5 C163_5 1_555 1_555
H135_4 C159_4 1_555 1_555
H136_4 C160_4 1_555 1_555
H137_5 C161_5 1_555 1_555
H138_5 C162_5 1_555 1_555
H139_5 C163_5 1_555 1_555
H146_4 C159_4 1_555 1_555
H147_4 C160_4 1_555 1_555
H148_5 C161_5 1_555 1_555
H149_5 C162_5 1_555 1_555
H150_5 C163_5 1_555 1_555
C170_9 O36_9 1_555 1_555
C171_9 O38_9 1_555 1_555
C172_9 O37_9 1_555 1_555
O4_9 Cd2_4 1_555 1_555
C6_4 C7_4 1_555 1_555
C9_4 C10_4 1_555 1_555
Cd2_4 O7_6 1_555 1_555
Cd2_4 O22_4 1_555 1_555
Cd16_3 O6_6 1_555 1_555
Cd15_3 O11_6 1_555 1_555
Cd15_3 O12_5 1_555 1_555
Cd15_3 O14_6 1_555 1_555
O29_5 C19_5 1_555 1_555
C60_4 C104_4 1_555 1_555
C71_4 C82_4 1_555 1_555
C72_4 C83_4 1_555 1_555
C73_5 C84_5 1_555 1_555
C74_5 C85_5 1_555 1_555
C75_5 C86_5 1_555 1_555
C93_4 C115_4 1_555 1_555
C104_4 C116_4 1_555 1_555
C105_4 C115_4 1_555 1_555
C105_4 C116_4 1_555 1_555
C106_5 C117_5 1_555 1_555
C106_5 C118_5 1_555 1_555
C107_5 C117_5 1_555 1_555
C107_5 C119_5 1_555 1_555
C108_5 C118_5 1_555 1_555
C108_5 C119_5 1_555 1_555
C171_9 H157_6 1_555 1_555
C171_9 H158_9 1_555 1_555
C171_9 H159_6 1_555 1_555
C170_9 H160_6 1_555 1_555
C170_9 H161_9 1_555 1_555
C170_9 H162_6 1_555 1_555
C172_9 H166_6 1_555 1_555
C172_9 H167_9 1_555 1_555
C172_9 H168_6 1_555 1_555
C15_9 H172_6 1_555 1_555
C15_9 H173_9 1_555 1_555
C15_9 H174_6 1_555 1_555
O4_10 Cd17_2 1_555 1_555
O5_10 Cd17_2 1_555 1_555
C15_10 O5_10 1_555 1_555
Cd16_2 O4_10 1_555 1_555
Cd15_2 O4_10 1_555 1_555
Cd14_3 O15_6 1_555 1_555
Cd10_8 O15_6 1_555 1_555
Cd11_9 O16_6 1_555 1_555
Cd12_8 O16_6 1_555 1_555
O6_7 Cd17_2 1_555 1_555
O7_7 Cd17_2 1_555 1_555
O11_7 Cd8_3 1_555 1_555
O12_6 Cd8_3 1_555 1_555
O14_7 Cd16_2 1_555 1_555
O15_6 C20_6 1_555 1_555
O16_6 C21_6 1_555 1_555
O21_7 Cd17_2 1_555 1_555
O25_7 Cd8_3 1_555 1_555
O27_7 Cd16_2 1_555 1_555
O28_7 Cd15_2 1_555 1_555
O29_6 Cd15_2 1_555 1_555
O30_6 Cd10_8 1_555 1_555
O31_6 Cd12_8 1_555 1_555
O36_10 Cd8_3 1_555 1_555
O37_10 Cd16_2 1_555 1_555
O38_10 Cd15_2 1_555 1_555
C19_6 O12_6 1_555 1_555
C20_6 O30_6 1_555 1_555
C21_6 O31_6 1_555 1_555
C29_6 C19_6 1_555 1_555
C30_6 C20_6 1_555 1_555
C31_6 C21_6 1_555 1_555
C40_6 C29_6 1_555 1_555
C41_6 C30_6 1_555 1_555
C42_6 C31_6 1_555 1_555
H16_6 C40_6 1_555 1_555
H17_6 C41_6 1_555 1_555
H18_6 C42_6 1_555 1_555
C51_6 C40_6 1_555 1_555
C52_6 C41_6 1_555 1_555
C53_6 C42_6 1_555 1_555
C62_6 C51_6 1_555 1_555
C63_6 C53_6 1_555 1_555
C64_6 C52_6 1_555 1_555
C73_6 C62_6 1_555 1_555
C74_6 C63_6 1_555 1_555
C75_6 C64_6 1_555 1_555
H27_6 C73_6 1_555 1_555
H28_6 C74_6 1_555 1_555
H29_6 C75_6 1_555 1_555
C84_6 C29_6 1_555 1_555
C85_6 C31_6 1_555 1_555
C86_6 C30_6 1_555 1_555
H38_6 C84_6 1_555 1_555
H39_6 C85_6 1_555 1_555
H40_6 C86_6 1_555 1_555
C95_6 C51_6 1_555 1_555
C96_6 C52_6 1_555 1_555
C97_6 C53_6 1_555 1_555
C106_6 C62_6 1_555 1_555
C107_6 C63_6 1_555 1_555
C108_6 C64_6 1_555 1_555
C117_6 C95_6 1_555 1_555
C118_6 C96_6 1_555 1_555
C119_6 C97_6 1_555 1_555
C128_6 C95_6 1_555 1_555
C129_6 C96_6 1_555 1_555
C130_6 C97_6 1_555 1_555
H49_6 C128_6 1_555 1_555
H50_6 C129_6 1_555 1_555
H51_6 C130_6 1_555 1_555
H60_6 C128_6 1_555 1_555
H61_6 C129_6 1_555 1_555
H62_6 C130_6 1_555 1_555
C139_6 C128_6 1_555 1_555
C140_6 C129_6 1_555 1_555
C141_6 C130_6 1_555 1_555
H71_6 C139_6 1_555 1_555
H72_6 C140_6 1_555 1_555
H73_6 C141_6 1_555 1_555
H82_6 C139_6 1_555 1_555
H83_6 C140_6 1_555 1_555
H84_6 C141_6 1_555 1_555
H93_6 C139_6 1_555 1_555
H94_6 C140_6 1_555 1_555
H95_6 C141_6 1_555 1_555
C150_6 C95_6 1_555 1_555
C151_6 C96_6 1_555 1_555
C152_6 C97_6 1_555 1_555
H104_6 C150_6 1_555 1_555
H105_6 C151_6 1_555 1_555
H106_6 C152_6 1_555 1_555
H115_6 C150_6 1_555 1_555
H116_6 C151_6 1_555 1_555
H117_6 C152_6 1_555 1_555
C161_6 C150_6 1_555 1_555
C162_6 C151_6 1_555 1_555
C163_6 C152_6 1_555 1_555
H126_6 C161_6 1_555 1_555
H127_6 C162_6 1_555 1_555
H128_6 C163_6 1_555 1_555
H137_6 C161_6 1_555 1_555
H138_6 C162_6 1_555 1_555
H139_6 C163_6 1_555 1_555
H148_6 C161_6 1_555 1_555
H149_6 C162_6 1_555 1_555
H150_6 C163_6 1_555 1_555
C170_10 O36_10 1_555 1_555
C171_10 O38_10 1_555 1_555
C172_10 O37_10 1_555 1_555
O4_10 Cd8_3 1_555 1_555
Cd8_3 O7_7 1_555 1_555
Cd16_2 O6_7 1_555 1_555
Cd15_2 O11_7 1_555 1_555
Cd15_2 O12_6 1_555 1_555
Cd15_2 O14_7 1_555 1_555
O29_6 C19_6 1_555 1_555
C73_6 C84_6 1_555 1_555
C74_6 C85_6 1_555 1_555
C75_6 C86_6 1_555 1_555
C106_6 C117_6 1_555 1_555
C106_6 C118_6 1_555 1_555
C107_6 C117_6 1_555 1_555
C107_6 C119_6 1_555 1_555
C108_6 C118_6 1_555 1_555
C108_6 C119_6 1_555 1_555
C171_10 H157_7 1_555 1_555
C171_10 H158_10 1_555 1_555
C171_10 H159_7 1_555 1_555
C170_10 H160_7 1_555 1_555
C170_10 H161_10 1_555 1_555
C170_10 H162_7 1_555 1_555
C172_10 H166_7 1_555 1_555
C172_10 H167_10 1_555 1_555
C172_10 H168_7 1_555 1_555
C15_10 H172_7 1_555 1_555
C15_10 H173_10 1_555 1_555
C15_10 H174_7 1_555 1_555
O3_6 Cd7_4 1_555 1_555
O4_11 Cd7_4 1_555 1_555
O5_11 Cd7_4 1_555 1_555
C15_11 O5_11 1_555 1_555
Cd3_8 O4_11 1_555 1_555
Cd14_8 O4_11 1_555 1_555
Cd6_3 O17_6 1_555 1_555
Cd14_9 O17_6 1_555 1_555
Cd15_9 O18_6 1_555 1_555
Cd16_7 O18_6 1_555 1_555
Cd17_7 O19_5 1_555 1_555
Cd18_7 O20_5 1_555 1_555
O6_8 Cd7_4 1_555 1_555
O7_8 Cd7_4 1_555 1_555
O8_6 Cd7_4 1_555 1_555
O11_8 Cd13_8 1_555 1_555
O13_5 Cd3_8 1_555 1_555
O14_8 Cd3_8 1_555 1_555
O17_6 C22_6 1_555 1_555
O18_6 C23_6 1_555 1_555
O19_5 Cd16_7 1_555 1_555
O20_5 Cd15_7 1_555 1_555
O21_8 Cd7_4 1_555 1_555
O25_8 Cd13_8 1_555 1_555
O26_5 Cd3_8 1_555 1_555
O27_8 Cd3_8 1_555 1_555
O28_8 Cd14_8 1_555 1_555
O32_6 Cd14_9 1_555 1_555
O33_6 Cd16_7 1_555 1_555
O34_5 Cd17_7 1_555 1_555
O35_5 Cd15_7 1_555 1_555
O36_11 Cd13_8 1_555 1_555
O37_11 Cd3_8 1_555 1_555
O38_11 Cd14_8 1_555 1_555
C16_6 O3_6 1_555 1_555
C22_6 O32_6 1_555 1_555
C23_6 O33_6 1_555 1_555
C24_5 O13_5 1_555 1_555
C25_5 O19_5 1_555 1_555
C26_5 O20_5 1_555 1_555
C32_6 C16_6 1_555 1_555
C33_6 C22_6 1_555 1_555
C34_6 C23_6 1_555 1_555
C35_5 C24_5 1_555 1_555
C36_5 C25_5 1_555 1_555
C37_5 C26_5 1_555 1_555
C43_6 C32_6 1_555 1_555
C44_6 C33_6 1_555 1_555
C45_6 C34_6 1_555 1_555
C46_5 C35_5 1_555 1_555
C47_5 C36_5 1_555 1_555
C48_5 C37_5 1_555 1_555
H19_6 C43_6 1_555 1_555
H20_6 C44_6 1_555 1_555
H21_6 C45_6 1_555 1_555
H22_5 C46_5 1_555 1_555
H23_5 C47_5 1_555 1_555
H24_5 C48_5 1_555 1_555
C54_6 C43_6 1_555 1_555
C55_6 C44_6 1_555 1_555
C56_6 C45_6 1_555 1_555
C57_5 C46_5 1_555 1_555
C58_5 C47_5 1_555 1_555
C59_5 C48_5 1_555 1_555
C65_6 C54_6 1_555 1_555
C66_6 C56_6 1_555 1_555
C67_6 C55_6 1_555 1_555
C68_5 C57_5 1_555 1_555
C69_5 C59_5 1_555 1_555
C70_5 C58_5 1_555 1_555
C76_6 C65_6 1_555 1_555
C77_6 C66_6 1_555 1_555
C78_6 C67_6 1_555 1_555
C79_5 C68_5 1_555 1_555
C80_5 C69_5 1_555 1_555
C81_5 C70_5 1_555 1_555
H30_6 C76_6 1_555 1_555
H31_6 C77_6 1_555 1_555
H32_6 C78_6 1_555 1_555
H33_5 C79_5 1_555 1_555
H34_5 C80_5 1_555 1_555
H35_5 C81_5 1_555 1_555
C87_6 C32_6 1_555 1_555
C88_6 C34_6 1_555 1_555
C89_6 C33_6 1_555 1_555
C90_5 C35_5 1_555 1_555
C91_5 C37_5 1_555 1_555
C92_5 C36_5 1_555 1_555
H41_6 C87_6 1_555 1_555
H42_6 C88_6 1_555 1_555
H43_6 C89_6 1_555 1_555
H44_5 C90_5 1_555 1_555
H45_5 C91_5 1_555 1_555
H46_5 C92_5 1_555 1_555
C98_6 C54_6 1_555 1_555
C99_6 C55_6 1_555 1_555
C100_6 C56_6 1_555 1_555
C101_5 C57_5 1_555 1_555
C102_5 C58_5 1_555 1_555
C103_5 C59_5 1_555 1_555
C109_6 C65_6 1_555 1_555
C110_6 C66_6 1_555 1_555
C111_6 C67_6 1_555 1_555
C112_5 C68_5 1_555 1_555
C113_5 C69_5 1_555 1_555
C114_5 C70_5 1_555 1_555
C120_6 C98_6 1_555 1_555
C121_6 C99_6 1_555 1_555
C122_6 C100_6 1_555 1_555
C123_5 C101_5 1_555 1_555
C124_5 C102_5 1_555 1_555
C125_5 C103_5 1_555 1_555
C131_6 C98_6 1_555 1_555
C132_6 C99_6 1_555 1_555
C133_6 C100_6 1_555 1_555
C134_5 C101_5 1_555 1_555
C135_5 C102_5 1_555 1_555
C136_5 C103_5 1_555 1_555
H52_6 C131_6 1_555 1_555
H53_6 C132_6 1_555 1_555
H54_6 C133_6 1_555 1_555
H55_5 C134_5 1_555 1_555
H56_5 C135_5 1_555 1_555
H57_5 C136_5 1_555 1_555
H63_6 C131_6 1_555 1_555
H64_6 C132_6 1_555 1_555
H65_6 C133_6 1_555 1_555
H66_5 C134_5 1_555 1_555
H67_5 C135_5 1_555 1_555
H68_5 C136_5 1_555 1_555
C142_6 C131_6 1_555 1_555
C143_6 C132_6 1_555 1_555
C144_6 C133_6 1_555 1_555
C145_5 C134_5 1_555 1_555
C146_5 C135_5 1_555 1_555
C147_5 C136_5 1_555 1_555
H74_6 C142_6 1_555 1_555
H75_6 C143_6 1_555 1_555
H76_6 C144_6 1_555 1_555
H77_5 C145_5 1_555 1_555
H78_5 C146_5 1_555 1_555
H79_5 C147_5 1_555 1_555
H85_6 C142_6 1_555 1_555
H86_6 C143_6 1_555 1_555
H87_6 C144_6 1_555 1_555
H88_5 C145_5 1_555 1_555
H89_5 C146_5 1_555 1_555
H90_5 C147_5 1_555 1_555
H96_6 C142_6 1_555 1_555
H97_6 C143_6 1_555 1_555
H98_6 C144_6 1_555 1_555
H99_5 C145_5 1_555 1_555
H100_5 C146_5 1_555 1_555
H101_5 C147_5 1_555 1_555
C153_6 C98_6 1_555 1_555
C154_6 C99_6 1_555 1_555
C155_6 C100_6 1_555 1_555
C156_5 C101_5 1_555 1_555
C157_5 C102_5 1_555 1_555
C158_5 C103_5 1_555 1_555
H107_6 C153_6 1_555 1_555
H108_6 C154_6 1_555 1_555
H109_6 C155_6 1_555 1_555
H110_5 C156_5 1_555 1_555
H111_5 C157_5 1_555 1_555
H112_5 C158_5 1_555 1_555
H118_6 C153_6 1_555 1_555
H119_6 C154_6 1_555 1_555
H120_6 C155_6 1_555 1_555
H121_5 C156_5 1_555 1_555
H122_5 C157_5 1_555 1_555
H123_5 C158_5 1_555 1_555
C164_6 C153_6 1_555 1_555
C165_6 C154_6 1_555 1_555
C166_6 C155_6 1_555 1_555
C167_5 C156_5 1_555 1_555
C168_5 C157_5 1_555 1_555
C169_5 C158_5 1_555 1_555
H129_6 C164_6 1_555 1_555
H130_6 C165_6 1_555 1_555
H131_6 C166_6 1_555 1_555
H132_5 C167_5 1_555 1_555
H133_5 C168_5 1_555 1_555
H134_5 C169_5 1_555 1_555
H140_6 C164_6 1_555 1_555
H141_6 C165_6 1_555 1_555
H142_6 C166_6 1_555 1_555
H143_5 C167_5 1_555 1_555
H144_5 C168_5 1_555 1_555
H145_5 C169_5 1_555 1_555
H151_6 C164_6 1_555 1_555
H152_6 C165_6 1_555 1_555
H153_6 C166_6 1_555 1_555
H154_5 C167_5 1_555 1_555
H155_5 C168_5 1_555 1_555
H156_5 C169_5 1_555 1_555
C170_11 O36_11 1_555 1_555
C171_11 O38_11 1_555 1_555
C172_11 O37_11 1_555 1_555
O4_11 Cd13_8 1_555 1_555
Cd13_8 O7_8 1_555 1_555
Cd3_8 O6_8 1_555 1_555
Cd3_8 O8_6 1_555 1_555
Cd14_8 O11_8 1_555 1_555
Cd14_8 O13_5 1_555 1_555
Cd14_8 O14_8 1_555 1_555
O8_6 C16_6 1_555 1_555
O26_5 C24_5 1_555 1_555
O34_5 C25_5 1_555 1_555
O35_5 C26_5 1_555 1_555
C76_6 C87_6 1_555 1_555
C77_6 C88_6 1_555 1_555
C78_6 C89_6 1_555 1_555
C79_5 C90_5 1_555 1_555
C80_5 C91_5 1_555 1_555
C81_5 C92_5 1_555 1_555
C109_6 C120_6 1_555 1_555
C109_6 C121_6 1_555 1_555
C110_6 C120_6 1_555 1_555
C110_6 C122_6 1_555 1_555
C111_6 C121_6 1_555 1_555
C111_6 C122_6 1_555 1_555
C112_5 C123_5 1_555 1_555
C112_5 C124_5 1_555 1_555
C113_5 C123_5 1_555 1_555
C113_5 C125_5 1_555 1_555
C114_5 C124_5 1_555 1_555
C114_5 C125_5 1_555 1_555
C171_11 H157_8 1_555 1_555
C171_11 H158_11 1_555 1_555
C171_11 H159_8 1_555 1_555
C170_11 H160_8 1_555 1_555
C170_11 H161_11 1_555 1_555
C170_11 H162_8 1_555 1_555
C172_11 H166_8 1_555 1_555
C172_11 H167_11 1_555 1_555
C172_11 H168_8 1_555 1_555
C15_11 H172_8 1_555 1_555
C15_11 H173_11 1_555 1_555
C15_11 H174_8 1_555 1_555
O3_7 Cd7_3 1_555 1_555
O4_12 Cd7_3 1_555 1_555
O5_12 Cd7_3 1_555 1_555
C15_12 O5_12 1_555 1_555
Cd10_3 O4_12 1_555 1_555
Cd9_3 O4_12 1_555 1_555
Cd13_9 O17_7 1_555 1_555
Cd14_10 O17_7 1_555 1_555
Cd15_10 O18_7 1_555 1_555
Cd11_5 O18_7 1_555 1_555
O6_9 Cd7_3 1_555 1_555
O7_9 Cd7_3 1_555 1_555
O8_7 Cd7_3 1_555 1_555
O11_9 Cd18_3 1_555 1_555
O14_9 Cd10_3 1_555 1_555
O17_7 C22_7 1_555 1_555
O18_7 C23_7 1_555 1_555
O21_9 Cd7_3 1_555 1_555
O25_9 Cd18_3 1_555 1_555
O27_9 Cd10_3 1_555 1_555
O28_9 Cd9_3 1_555 1_555
O32_7 Cd14_10 1_555 1_555
O33_7 Cd11_5 1_555 1_555
O36_12 Cd18_3 1_555 1_555
O37_12 Cd10_3 1_555 1_555
O38_12 Cd9_3 1_555 1_555
C16_7 O3_7 1_555 1_555
C22_7 O32_7 1_555 1_555
C23_7 O33_7 1_555 1_555
C32_7 C16_7 1_555 1_555
C33_7 C22_7 1_555 1_555
C34_7 C23_7 1_555 1_555
C43_7 C32_7 1_555 1_555
C44_7 C33_7 1_555 1_555
C45_7 C34_7 1_555 1_555
H19_7 C43_7 1_555 1_555
H20_7 C44_7 1_555 1_555
H21_7 C45_7 1_555 1_555
C54_7 C43_7 1_555 1_555
C55_7 C44_7 1_555 1_555
C56_7 C45_7 1_555 1_555
C65_7 C54_7 1_555 1_555
C66_7 C56_7 1_555 1_555
C67_7 C55_7 1_555 1_555
C76_7 C65_7 1_555 1_555
C77_7 C66_7 1_555 1_555
C78_7 C67_7 1_555 1_555
H30_7 C76_7 1_555 1_555
H31_7 C77_7 1_555 1_555
H32_7 C78_7 1_555 1_555
C87_7 C32_7 1_555 1_555
C88_7 C34_7 1_555 1_555
C89_7 C33_7 1_555 1_555
H41_7 C87_7 1_555 1_555
H42_7 C88_7 1_555 1_555
H43_7 C89_7 1_555 1_555
C98_7 C54_7 1_555 1_555
C99_7 C55_7 1_555 1_555
C100_7 C56_7 1_555 1_555
C109_7 C65_7 1_555 1_555
C110_7 C66_7 1_555 1_555
C111_7 C67_7 1_555 1_555
C120_7 C98_7 1_555 1_555
C121_7 C99_7 1_555 1_555
C122_7 C100_7 1_555 1_555
C131_7 C98_7 1_555 1_555
C132_7 C99_7 1_555 1_555
C133_7 C100_7 1_555 1_555
H52_7 C131_7 1_555 1_555
H53_7 C132_7 1_555 1_555
H54_7 C133_7 1_555 1_555
H63_7 C131_7 1_555 1_555
H64_7 C132_7 1_555 1_555
H65_7 C133_7 1_555 1_555
C142_7 C131_7 1_555 1_555
C143_7 C132_7 1_555 1_555
C144_7 C133_7 1_555 1_555
H74_7 C142_7 1_555 1_555
H75_7 C143_7 1_555 1_555
H76_7 C144_7 1_555 1_555
H85_7 C142_7 1_555 1_555
H86_7 C143_7 1_555 1_555
H87_7 C144_7 1_555 1_555
H96_7 C142_7 1_555 1_555
H97_7 C143_7 1_555 1_555
H98_7 C144_7 1_555 1_555
C153_7 C98_7 1_555 1_555
C154_7 C99_7 1_555 1_555
C155_7 C100_7 1_555 1_555
H107_7 C153_7 1_555 1_555
H108_7 C154_7 1_555 1_555
H109_7 C155_7 1_555 1_555
H118_7 C153_7 1_555 1_555
H119_7 C154_7 1_555 1_555
H120_7 C155_7 1_555 1_555
C164_7 C153_7 1_555 1_555
C165_7 C154_7 1_555 1_555
C166_7 C155_7 1_555 1_555
H129_7 C164_7 1_555 1_555
H130_7 C165_7 1_555 1_555
H131_7 C166_7 1_555 1_555
H140_7 C164_7 1_555 1_555
H141_7 C165_7 1_555 1_555
H142_7 C166_7 1_555 1_555
H151_7 C164_7 1_555 1_555
H152_7 C165_7 1_555 1_555
H153_7 C166_7 1_555 1_555
C170_12 O36_12 1_555 1_555
C171_12 O38_12 1_555 1_555
C172_12 O37_12 1_555 1_555
O4_12 Cd18_3 1_555 1_555
Cd18_3 O7_9 1_555 1_555
Cd10_3 O6_9 1_555 1_555
Cd10_3 O8_7 1_555 1_555
Cd9_3 O11_9 1_555 1_555
Cd9_3 O14_9 1_555 1_555
O8_7 C16_7 1_555 1_555
C76_7 C87_7 1_555 1_555
C77_7 C88_7 1_555 1_555
C78_7 C89_7 1_555 1_555
C109_7 C120_7 1_555 1_555
C109_7 C121_7 1_555 1_555
C110_7 C120_7 1_555 1_555
C110_7 C122_7 1_555 1_555
C111_7 C121_7 1_555 1_555
C111_7 C122_7 1_555 1_555
C171_12 H157_9 1_555 1_555
C171_12 H158_12 1_555 1_555
C171_12 H159_9 1_555 1_555
C170_12 H160_9 1_555 1_555
C170_12 H161_12 1_555 1_555
C170_12 H162_9 1_555 1_555
C172_12 H166_9 1_555 1_555
C172_12 H167_12 1_555 1_555
C172_12 H168_9 1_555 1_555
C15_12 H172_9 1_555 1_555
C15_12 H173_12 1_555 1_555
C15_12 H174_9 1_555 1_555
O4_13 Cd5_3 1_555 1_555
O5_13 Cd5_3 1_555 1_555
C15_13 O5_13 1_555 1_555
Cd11_7 O4_13 1_555 1_555
Cd14_9 O4_13 1_555 1_555
Cd17_9 O19_6 1_555 1_555
Cd18_9 O20_6 1_555 1_555
O6_10 Cd5_3 1_555 1_555
O7_10 Cd5_3 1_555 1_555
O11_10 Cd6_3 1_555 1_555
O13_6 Cd11_7 1_555 1_555
O14_10 Cd11_7 1_555 1_555
O19_6 Cd10_5 1_555 1_555
O20_6 Cd15_9 1_555 1_555
O21_10 Cd5_3 1_555 1_555
O25_10 Cd6_3 1_555 1_555
O26_6 Cd11_7 1_555 1_555
O27_10 Cd11_7 1_555 1_555
O28_10 Cd14_9 1_555 1_555
O34_6 Cd17_9 1_555 1_555
O35_6 Cd15_9 1_555 1_555
O36_13 Cd6_3 1_555 1_555
O37_13 Cd11_7 1_555 1_555
O38_13 Cd14_9 1_555 1_555
C24_6 O13_6 1_555 1_555
C25_6 O19_6 1_555 1_555
C26_6 O20_6 1_555 1_555
C35_6 C24_6 1_555 1_555
C36_6 C25_6 1_555 1_555
C37_6 C26_6 1_555 1_555
C46_6 C35_6 1_555 1_555
C47_6 C36_6 1_555 1_555
C48_6 C37_6 1_555 1_555
H22_6 C46_6 1_555 1_555
H23_6 C47_6 1_555 1_555
H24_6 C48_6 1_555 1_555
C57_6 C46_6 1_555 1_555
C58_6 C47_6 1_555 1_555
C59_6 C48_6 1_555 1_555
C68_6 C57_6 1_555 1_555
C69_6 C59_6 1_555 1_555
C70_6 C58_6 1_555 1_555
C79_6 C68_6 1_555 1_555
C80_6 C69_6 1_555 1_555
C81_6 C70_6 1_555 1_555
H33_6 C79_6 1_555 1_555
H34_6 C80_6 1_555 1_555
H35_6 C81_6 1_555 1_555
C90_6 C35_6 1_555 1_555
C91_6 C37_6 1_555 1_555
C92_6 C36_6 1_555 1_555
H44_6 C90_6 1_555 1_555
H45_6 C91_6 1_555 1_555
H46_6 C92_6 1_555 1_555
C101_6 C57_6 1_555 1_555
C102_6 C58_6 1_555 1_555
C103_6 C59_6 1_555 1_555
C112_6 C68_6 1_555 1_555
C113_6 C69_6 1_555 1_555
C114_6 C70_6 1_555 1_555
C123_6 C101_6 1_555 1_555
C124_6 C102_6 1_555 1_555
C125_6 C103_6 1_555 1_555
C134_6 C101_6 1_555 1_555
C135_6 C102_6 1_555 1_555
C136_6 C103_6 1_555 1_555
H55_6 C134_6 1_555 1_555
H56_6 C135_6 1_555 1_555
H57_6 C136_6 1_555 1_555
H66_6 C134_6 1_555 1_555
H67_6 C135_6 1_555 1_555
H68_6 C136_6 1_555 1_555
C145_6 C134_6 1_555 1_555
C146_6 C135_6 1_555 1_555
C147_6 C136_6 1_555 1_555
H77_6 C145_6 1_555 1_555
H78_6 C146_6 1_555 1_555
H79_6 C147_6 1_555 1_555
H88_6 C145_6 1_555 1_555
H89_6 C146_6 1_555 1_555
H90_6 C147_6 1_555 1_555
H99_6 C145_6 1_555 1_555
H100_6 C146_6 1_555 1_555
H101_6 C147_6 1_555 1_555
C156_6 C101_6 1_555 1_555
C157_6 C102_6 1_555 1_555
C158_6 C103_6 1_555 1_555
H110_6 C156_6 1_555 1_555
H111_6 C157_6 1_555 1_555
H112_6 C158_6 1_555 1_555
H121_6 C156_6 1_555 1_555
H122_6 C157_6 1_555 1_555
H123_6 C158_6 1_555 1_555
C167_6 C156_6 1_555 1_555
C168_6 C157_6 1_555 1_555
C169_6 C158_6 1_555 1_555
H132_6 C167_6 1_555 1_555
H133_6 C168_6 1_555 1_555
H134_6 C169_6 1_555 1_555
H143_6 C167_6 1_555 1_555
H144_6 C168_6 1_555 1_555
H145_6 C169_6 1_555 1_555
H154_6 C167_6 1_555 1_555
H155_6 C168_6 1_555 1_555
H156_6 C169_6 1_555 1_555
C170_13 O36_13 1_555 1_555
C171_13 O38_13 1_555 1_555
C172_13 O37_13 1_555 1_555
O4_13 Cd6_3 1_555 1_555
Cd6_3 O7_10 1_555 1_555
Cd11_7 O6_10 1_555 1_555
Cd14_9 O11_10 1_555 1_555
Cd14_9 O13_6 1_555 1_555
Cd14_9 O14_10 1_555 1_555
O26_6 C24_6 1_555 1_555
O34_6 C25_6 1_555 1_555
O35_6 C26_6 1_555 1_555
C79_6 C90_6 1_555 1_555
C80_6 C91_6 1_555 1_555
C81_6 C92_6 1_555 1_555
C112_6 C123_6 1_555 1_555
C112_6 C124_6 1_555 1_555
C113_6 C123_6 1_555 1_555
C113_6 C125_6 1_555 1_555
C114_6 C124_6 1_555 1_555
C114_6 C125_6 1_555 1_555
C171_13 H157_10 1_555 1_555
C171_13 H158_13 1_555 1_555
C171_13 H159_10 1_555 1_555
C170_13 H160_10 1_555 1_555
C170_13 H161_13 1_555 1_555
C170_13 H162_10 1_555 1_555
C172_13 H166_10 1_555 1_555
C172_13 H167_13 1_555 1_555
C172_13 H168_10 1_555 1_555
C15_13 H172_10 1_555 1_555
C15_13 H173_13 1_555 1_555
C15_13 H174_10 1_555 1_555
O4_14 Cd17 1_555 1_555
O5_14 Cd17 1_555 1_555
C15_14 O5_14 1_555 1_555
Cd16 O4_14 1_555 1_555
Cd15 O4_14 1_555 1_555
Cd14 O15_7 1_555 1_555
Cd10_10 O15_7 1_555 1_555
Cd11_10 O16_7 1_555 1_555
Cd12_9 O16_7 1_555 1_555
O6_11 Cd17 1_555 1_555
O7_11 Cd17 1_555 1_555
O11_11 Cd6_4 1_555 1_555
O12_7 Cd6_4 1_555 1_555
O14_11 Cd16 1_555 1_555
O15_7 C20_7 1_555 1_555
O16_7 C21_7 1_555 1_555
O21_11 Cd17 1_555 1_555
O25_11 Cd6_4 1_555 1_555
O27_11 Cd16 1_555 1_555
O28_11 Cd15 1_555 1_555
O29_7 Cd15 1_555 1_555
O30_7 Cd10_10 1_555 1_555
O31_7 Cd12_9 1_555 1_555
O36_14 Cd6_4 1_555 1_555
O37_14 Cd16 1_555 1_555
O38_14 Cd15 1_555 1_555
C19_7 O12_7 1_555 1_555
C20_7 O30_7 1_555 1_555
C21_7 O31_7 1_555 1_555
C29_7 C19_7 1_555 1_555
C30_7 C20_7 1_555 1_555
C31_7 C21_7 1_555 1_555
C40_7 C29_7 1_555 1_555
C41_7 C30_7 1_555 1_555
C42_7 C31_7 1_555 1_555
H16_7 C40_7 1_555 1_555
H17_7 C41_7 1_555 1_555
H18_7 C42_7 1_555 1_555
C51_7 C40_7 1_555 1_555
C52_7 C41_7 1_555 1_555
C53_7 C42_7 1_555 1_555
C62_7 C51_7 1_555 1_555
C63_7 C53_7 1_555 1_555
C64_7 C52_7 1_555 1_555
C73_7 C62_7 1_555 1_555
C74_7 C63_7 1_555 1_555
C75_7 C64_7 1_555 1_555
H27_7 C73_7 1_555 1_555
H28_7 C74_7 1_555 1_555
H29_7 C75_7 1_555 1_555
C84_7 C29_7 1_555 1_555
C85_7 C31_7 1_555 1_555
C86_7 C30_7 1_555 1_555
H38_7 C84_7 1_555 1_555
H39_7 C85_7 1_555 1_555
H40_7 C86_7 1_555 1_555
C95_7 C51_7 1_555 1_555
C96_7 C52_7 1_555 1_555
C97_7 C53_7 1_555 1_555
C106_7 C62_7 1_555 1_555
C107_7 C63_7 1_555 1_555
C108_7 C64_7 1_555 1_555
C117_7 C95_7 1_555 1_555
C118_7 C96_7 1_555 1_555
C119_7 C97_7 1_555 1_555
C128_7 C95_7 1_555 1_555
C129_7 C96_7 1_555 1_555
C130_7 C97_7 1_555 1_555
H49_7 C128_7 1_555 1_555
H50_7 C129_7 1_555 1_555
H51_7 C130_7 1_555 1_555
H60_7 C128_7 1_555 1_555
H61_7 C129_7 1_555 1_555
H62_7 C130_7 1_555 1_555
C139_7 C128_7 1_555 1_555
C140_7 C129_7 1_555 1_555
C141_7 C130_7 1_555 1_555
H71_7 C139_7 1_555 1_555
H72_7 C140_7 1_555 1_555
H73_7 C141_7 1_555 1_555
H82_7 C139_7 1_555 1_555
H83_7 C140_7 1_555 1_555
H84_7 C141_7 1_555 1_555
H93_7 C139_7 1_555 1_555
H94_7 C140_7 1_555 1_555
H95_7 C141_7 1_555 1_555
C150_7 C95_7 1_555 1_555
C151_7 C96_7 1_555 1_555
C152_7 C97_7 1_555 1_555
H104_7 C150_7 1_555 1_555
H105_7 C151_7 1_555 1_555
H106_7 C152_7 1_555 1_555
H115_7 C150_7 1_555 1_555
H116_7 C151_7 1_555 1_555
H117_7 C152_7 1_555 1_555
C161_7 C150_7 1_555 1_555
C162_7 C151_7 1_555 1_555
C163_7 C152_7 1_555 1_555
H126_7 C161_7 1_555 1_555
H127_7 C162_7 1_555 1_555
H128_7 C163_7 1_555 1_555
H137_7 C161_7 1_555 1_555
H138_7 C162_7 1_555 1_555
H139_7 C163_7 1_555 1_555
H148_7 C161_7 1_555 1_555
H149_7 C162_7 1_555 1_555
H150_7 C163_7 1_555 1_555
C170_14 O36_14 1_555 1_555
C171_14 O38_14 1_555 1_555
C172_14 O37_14 1_555 1_555
O4_14 Cd6_4 1_555 1_555
Cd6_4 O7_11 1_555 1_555
Cd16 O6_11 1_555 1_555
Cd15 O11_11 1_555 1_555
Cd15 O12_7 1_555 1_555
Cd15 O14_11 1_555 1_555
O29_7 C19_7 1_555 1_555
C73_7 C84_7 1_555 1_555
C74_7 C85_7 1_555 1_555
C75_7 C86_7 1_555 1_555
C106_7 C117_7 1_555 1_555
C106_7 C118_7 1_555 1_555
C107_7 C117_7 1_555 1_555
C107_7 C119_7 1_555 1_555
C108_7 C118_7 1_555 1_555
C108_7 C119_7 1_555 1_555
C171_14 H157_11 1_555 1_555
C171_14 H158_14 1_555 1_555
C171_14 H159_11 1_555 1_555
C170_14 H160_11 1_555 1_555
C170_14 H161_14 1_555 1_555
C170_14 H162_11 1_555 1_555
C172_14 H166_11 1_555 1_555
C172_14 H167_14 1_555 1_555
C172_14 H168_11 1_555 1_555
C15_14 H172_11 1_555 1_555
C15_14 H173_14 1_555 1_555
C15_14 H174_11 1_555 1_555
O3_8 Cd5_4 1_555 1_555
O4_15 Cd5_4 1_555 1_555
O5_15 Cd5_4 1_555 1_555
C15_15 O5_15 1_555 1_555
Cd10_2 O4_15 1_555 1_555
Cd9_2 O4_15 1_555 1_555
Cd13_10 O17_8 1_555 1_555
Cd14_11 O17_8 1_555 1_555
Cd15_12 O18_8 1_555 1_555
Cd11_3 O18_8 1_555 1_555
O6_12 Cd5_4 1_555 1_555
O7_12 Cd5_4 1_555 1_555
O8_8 Cd5_4 1_555 1_555
O11_12 Cd18_2 1_555 1_555
O14_12 Cd10_2 1_555 1_555
O17_8 C22_8 1_555 1_555
O18_8 C23_8 1_555 1_555
O21_12 Cd5_4 1_555 1_555
O25_12 Cd18_2 1_555 1_555
O27_12 Cd10_2 1_555 1_555
O28_12 Cd9_2 1_555 1_555
O32_8 Cd14_11 1_555 1_555
O33_8 Cd11_3 1_555 1_555
O36_15 Cd18_2 1_555 1_555
O37_15 Cd10_2 1_555 1_555
O38_15 Cd9_2 1_555 1_555
C16_8 O3_8 1_555 1_555
C22_8 O32_8 1_555 1_555
C23_8 O33_8 1_555 1_555
C32_8 C16_8 1_555 1_555
C33_8 C22_8 1_555 1_555
C34_8 C23_8 1_555 1_555
C43_8 C32_8 1_555 1_555
C44_8 C33_8 1_555 1_555
C45_8 C34_8 1_555 1_555
H19_8 C43_8 1_555 1_555
H20_8 C44_8 1_555 1_555
H21_8 C45_8 1_555 1_555
C54_8 C43_8 1_555 1_555
C55_8 C44_8 1_555 1_555
C56_8 C45_8 1_555 1_555
C65_8 C54_8 1_555 1_555
C66_8 C56_8 1_555 1_555
C67_8 C55_8 1_555 1_555
C76_8 C65_8 1_555 1_555
C77_8 C66_8 1_555 1_555
C78_8 C67_8 1_555 1_555
H30_8 C76_8 1_555 1_555
H31_8 C77_8 1_555 1_555
H32_8 C78_8 1_555 1_555
C87_8 C32_8 1_555 1_555
C88_8 C34_8 1_555 1_555
C89_8 C33_8 1_555 1_555
H41_8 C87_8 1_555 1_555
H42_8 C88_8 1_555 1_555
H43_8 C89_8 1_555 1_555
C98_8 C54_8 1_555 1_555
C99_8 C55_8 1_555 1_555
C100_8 C56_8 1_555 1_555
C109_8 C65_8 1_555 1_555
C110_8 C66_8 1_555 1_555
C111_8 C67_8 1_555 1_555
C120_8 C98_8 1_555 1_555
C121_8 C99_8 1_555 1_555
C122_8 C100_8 1_555 1_555
C131_8 C98_8 1_555 1_555
C132_8 C99_8 1_555 1_555
C133_8 C100_8 1_555 1_555
H52_8 C131_8 1_555 1_555
H53_8 C132_8 1_555 1_555
H54_8 C133_8 1_555 1_555
H63_8 C131_8 1_555 1_555
H64_8 C132_8 1_555 1_555
H65_8 C133_8 1_555 1_555
C142_8 C131_8 1_555 1_555
C143_8 C132_8 1_555 1_555
C144_8 C133_8 1_555 1_555
H74_8 C142_8 1_555 1_555
H75_8 C143_8 1_555 1_555
H76_8 C144_8 1_555 1_555
H85_8 C142_8 1_555 1_555
H86_8 C143_8 1_555 1_555
H87_8 C144_8 1_555 1_555
H96_8 C142_8 1_555 1_555
H97_8 C143_8 1_555 1_555
H98_8 C144_8 1_555 1_555
C153_8 C98_8 1_555 1_555
C154_8 C99_8 1_555 1_555
C155_8 C100_8 1_555 1_555
H107_8 C153_8 1_555 1_555
H108_8 C154_8 1_555 1_555
H109_8 C155_8 1_555 1_555
H118_8 C153_8 1_555 1_555
H119_8 C154_8 1_555 1_555
H120_8 C155_8 1_555 1_555
C164_8 C153_8 1_555 1_555
C165_8 C154_8 1_555 1_555
C166_8 C155_8 1_555 1_555
H129_8 C164_8 1_555 1_555
H130_8 C165_8 1_555 1_555
H131_8 C166_8 1_555 1_555
H140_8 C164_8 1_555 1_555
H141_8 C165_8 1_555 1_555
H142_8 C166_8 1_555 1_555
H151_8 C164_8 1_555 1_555
H152_8 C165_8 1_555 1_555
H153_8 C166_8 1_555 1_555
C170_15 O36_15 1_555 1_555
C171_15 O38_15 1_555 1_555
C172_15 O37_15 1_555 1_555
O4_15 Cd18_2 1_555 1_555
Cd18_2 O7_12 1_555 1_555
Cd10_2 O6_12 1_555 1_555
Cd10_2 O8_8 1_555 1_555
Cd9_2 O11_12 1_555 1_555
Cd9_2 O14_12 1_555 1_555
O8_8 C16_8 1_555 1_555
C76_8 C87_8 1_555 1_555
C77_8 C88_8 1_555 1_555
C78_8 C89_8 1_555 1_555
C109_8 C120_8 1_555 1_555
C109_8 C121_8 1_555 1_555
C110_8 C120_8 1_555 1_555
C110_8 C122_8 1_555 1_555
C111_8 C121_8 1_555 1_555
C111_8 C122_8 1_555 1_555
C171_15 H157_12 1_555 1_555
C171_15 H158_15 1_555 1_555
C171_15 H159_12 1_555 1_555
C170_15 H160_12 1_555 1_555
C170_15 H161_15 1_555 1_555
C170_15 H162_12 1_555 1_555
C172_15 H166_12 1_555 1_555
C172_15 H167_15 1_555 1_555
C172_15 H168_12 1_555 1_555
C15_15 H172_12 1_555 1_555
C15_15 H173_15 1_555 1_555
C15_15 H174_12 1_555 1_555
Cd9_4 O2_5 1_555 1_555
O2_5 C1_5 1_555 1_555
O4_16 Cd9_4 1_555 1_555
O5_16 Cd9_4 1_555 1_555
C1_5 C2_5 1_555 1_555
C2_5 C3_5 1_555 1_555
C3_5 H1_5 1_555 1_555
C4_5 C3_5 1_555 1_555
C5_5 C4_5 1_555 1_555
C6_5 C5_5 1_555 1_555
H2_5 C6_5 1_555 1_555
C7_5 C2_5 1_555 1_555
H3_5 C7_5 1_555 1_555
C8_5 C4_5 1_555 1_555
C9_5 C5_5 1_555 1_555
C10_5 C8_5 1_555 1_555
C11_5 C8_5 1_555 1_555
H4_5 C11_5 1_555 1_555
H5_5 C11_5 1_555 1_555
C12_5 C11_5 1_555 1_555
H6_5 C12_5 1_555 1_555
H7_5 C12_5 1_555 1_555
H8_5 C12_5 1_555 1_555
C13_5 C8_5 1_555 1_555
H9_5 C13_5 1_555 1_555
H10_5 C13_5 1_555 1_555
C14_5 C13_5 1_555 1_555
H11_5 C14_5 1_555 1_555
H12_5 C14_5 1_555 1_555
H13_5 C14_5 1_555 1_555
C15_16 O5_16 1_555 1_555
Cd10_4 O2_5 1_555 1_555
Cd18_4 O4_16 1_555 1_555
Cd17_8 O4_16 1_555 1_555
O6_13 Cd9_4 1_555 1_555
O6_12 C17_5 1_555 1_555
O11_6 C18_5 1_555 1_555
O11_13 Cd10_4 1_555 1_555
O14_13 Cd18_4 1_555 1_555
O21_13 Cd9_4 1_555 1_555
O22_5 C1_5 1_555 1_555
O27_13 Cd18_4 1_555 1_555
O28_13 Cd17_8 1_555 1_555
O36_16 Cd10_4 1_555 1_555
O37_16 Cd18_4 1_555 1_555
O38_16 Cd17_8 1_555 1_555
C17_5 O21_12 1_555 1_555
C18_5 O28_6 1_555 1_555
C27_5 C17_5 1_555 1_555
C28_5 C18_5 1_555 1_555
C38_5 C27_5 1_555 1_555
C39_5 C28_5 1_555 1_555
H14_5 C38_5 1_555 1_555
H15_5 C39_5 1_555 1_555
C49_5 C38_5 1_555 1_555
C50_5 C39_5 1_555 1_555
C60_5 C50_5 1_555 1_555
C61_5 C49_5 1_555 1_555
C71_5 C60_5 1_555 1_555
C72_5 C61_5 1_555 1_555
H25_5 C71_5 1_555 1_555
H26_5 C72_5 1_555 1_555
C82_5 C28_5 1_555 1_555
C83_5 C27_5 1_555 1_555
H36_5 C82_5 1_555 1_555
H37_5 C83_5 1_555 1_555
C93_5 C49_5 1_555 1_555
C94_5 C50_5 1_555 1_555
C104_5 C10_5 1_555 1_555
C105_5 C61_5 1_555 1_555
C115_5 C9_5 1_555 1_555
C116_5 C94_5 1_555 1_555
C126_5 C93_5 1_555 1_555
C127_5 C94_5 1_555 1_555
H47_5 C126_5 1_555 1_555
H48_5 C127_5 1_555 1_555
H58_5 C126_5 1_555 1_555
H59_5 C127_5 1_555 1_555
C137_5 C126_5 1_555 1_555
C138_5 C127_5 1_555 1_555
H69_5 C137_5 1_555 1_555
H70_5 C138_5 1_555 1_555
H80_5 C137_5 1_555 1_555
H81_5 C138_5 1_555 1_555
H91_5 C137_5 1_555 1_555
H92_5 C138_5 1_555 1_555
C148_5 C93_5 1_555 1_555
C149_5 C94_5 1_555 1_555
H102_5 C148_5 1_555 1_555
H103_5 C149_5 1_555 1_555
H113_5 C148_5 1_555 1_555
H114_5 C149_5 1_555 1_555
C159_5 C148_5 1_555 1_555
C160_5 C149_5 1_555 1_555
H124_5 C159_5 1_555 1_555
H125_5 C160_5 1_555 1_555
H135_5 C159_5 1_555 1_555
H136_5 C160_5 1_555 1_555
H146_5 C159_5 1_555 1_555
H147_5 C160_5 1_555 1_555
C170_16 O36_16 1_555 1_555
C171_16 O38_16 1_555 1_555
C172_16 O37_16 1_555 1_555
O4_16 Cd10_4 1_555 1_555
C6_5 C7_5 1_555 1_555
C9_5 C10_5 1_555 1_555
Cd10_4 O22_5 1_555 1_555
Cd18_4 O6_13 1_555 1_555
Cd17_8 O11_13 1_555 1_555
Cd17_8 O14_13 1_555 1_555
C60_5 C104_5 1_555 1_555
C71_5 C82_5 1_555 1_555
C72_5 C83_5 1_555 1_555
C93_5 C115_5 1_555 1_555
C104_5 C116_5 1_555 1_555
C105_5 C115_5 1_555 1_555
C105_5 C116_5 1_555 1_555
C171_16 H158_16 1_555 1_555
C171_16 H159_13 1_555 1_555
C170_16 H161_16 1_555 1_555
C170_16 H162_13 1_555 1_555
C172_16 H167_16 1_555 1_555
C172_16 H168_13 1_555 1_555
C15_16 H173_16 1_555 1_555
C15_16 H174_13 1_555 1_555
O4_17 Cd9_5 1_555 1_555
O5_17 Cd9_5 1_555 1_555
C15_17 O5_17 1_555 1_555
Cd18_5 O4_17 1_555 1_555
Cd17_9 O4_17 1_555 1_555
Cd18_7 O19_7 1_555 1_555
Cd17_7 O20_7 1_555 1_555
O13_7 Cd18_5 1_555 1_555
O19_7 Cd17_5 1_555 1_555
O20_7 Cd18_9 1_555 1_555
O26_7 Cd18_5 1_555 1_555
O34_7 Cd18_7 1_555 1_555
O35_7 Cd18_9 1_555 1_555
O36_17 Cd10_5 1_555 1_555
O37_17 Cd18_5 1_555 1_555
O38_17 Cd17_9 1_555 1_555
C24_7 O13_7 1_555 1_555
C25_7 O19_7 1_555 1_555
C26_7 O20_7 1_555 1_555
C35_7 C24_7 1_555 1_555
C36_7 C25_7 1_555 1_555
C37_7 C26_7 1_555 1_555
C46_7 C35_7 1_555 1_555
C47_7 C36_7 1_555 1_555
C48_7 C37_7 1_555 1_555
H22_7 C46_7 1_555 1_555
H23_7 C47_7 1_555 1_555
H24_7 C48_7 1_555 1_555
C57_7 C46_7 1_555 1_555
C58_7 C47_7 1_555 1_555
C59_7 C48_7 1_555 1_555
C68_7 C57_7 1_555 1_555
C69_7 C59_7 1_555 1_555
C70_7 C58_7 1_555 1_555
C79_7 C68_7 1_555 1_555
C80_7 C69_7 1_555 1_555
C81_7 C70_7 1_555 1_555
H33_7 C79_7 1_555 1_555
H34_7 C80_7 1_555 1_555
H35_7 C81_7 1_555 1_555
C90_7 C35_7 1_555 1_555
C91_7 C37_7 1_555 1_555
C92_7 C36_7 1_555 1_555
H44_7 C90_7 1_555 1_555
H45_7 C91_7 1_555 1_555
H46_7 C92_7 1_555 1_555
C101_7 C57_7 1_555 1_555
C102_7 C58_7 1_555 1_555
C103_7 C59_7 1_555 1_555
C112_7 C68_7 1_555 1_555
C113_7 C69_7 1_555 1_555
C114_7 C70_7 1_555 1_555
C123_7 C101_7 1_555 1_555
C124_7 C102_7 1_555 1_555
C125_7 C103_7 1_555 1_555
C134_7 C101_7 1_555 1_555
C135_7 C102_7 1_555 1_555
C136_7 C103_7 1_555 1_555
H55_7 C134_7 1_555 1_555
H56_7 C135_7 1_555 1_555
H57_7 C136_7 1_555 1_555
H66_7 C134_7 1_555 1_555
H67_7 C135_7 1_555 1_555
H68_7 C136_7 1_555 1_555
C145_7 C134_7 1_555 1_555
C146_7 C135_7 1_555 1_555
C147_7 C136_7 1_555 1_555
H77_7 C145_7 1_555 1_555
H78_7 C146_7 1_555 1_555
H79_7 C147_7 1_555 1_555
H88_7 C145_7 1_555 1_555
H89_7 C146_7 1_555 1_555
H90_7 C147_7 1_555 1_555
H99_7 C145_7 1_555 1_555
H100_7 C146_7 1_555 1_555
H101_7 C147_7 1_555 1_555
C156_7 C101_7 1_555 1_555
C157_7 C102_7 1_555 1_555
C158_7 C103_7 1_555 1_555
H110_7 C156_7 1_555 1_555
H111_7 C157_7 1_555 1_555
H112_7 C158_7 1_555 1_555
H121_7 C156_7 1_555 1_555
H122_7 C157_7 1_555 1_555
H123_7 C158_7 1_555 1_555
C167_7 C156_7 1_555 1_555
C168_7 C157_7 1_555 1_555
C169_7 C158_7 1_555 1_555
H132_7 C167_7 1_555 1_555
H133_7 C168_7 1_555 1_555
H134_7 C169_7 1_555 1_555
H143_7 C167_7 1_555 1_555
H144_7 C168_7 1_555 1_555
H145_7 C169_7 1_555 1_555
H154_7 C167_7 1_555 1_555
H155_7 C168_7 1_555 1_555
H156_7 C169_7 1_555 1_555
C170_17 O36_17 1_555 1_555
C171_17 O38_17 1_555 1_555
C172_17 O37_17 1_555 1_555
O4_17 Cd10_5 1_555 1_555
Cd17_9 O13_7 1_555 1_555
O26_7 C24_7 1_555 1_555
O34_7 C25_7 1_555 1_555
O35_7 C26_7 1_555 1_555
C79_7 C90_7 1_555 1_555
C80_7 C91_7 1_555 1_555
C81_7 C92_7 1_555 1_555
C112_7 C123_7 1_555 1_555
C112_7 C124_7 1_555 1_555
C113_7 C123_7 1_555 1_555
C113_7 C125_7 1_555 1_555
C114_7 C124_7 1_555 1_555
C114_7 C125_7 1_555 1_555
C171_17 H157_13 1_555 1_555
C171_17 H158_17 1_555 1_555
C170_17 H160_13 1_555 1_555
C170_17 H161_17 1_555 1_555
C172_17 H166_13 1_555 1_555
C172_17 H167_17 1_555 1_555
C15_17 H172_13 1_555 1_555
C15_17 H173_17 1_555 1_555
Cd12_7 O17_9 1_555 1_555
Cd13_9 O17_9 1_555 1_555
O17_9 C22_9 1_555 1_555
O7_9 C23_9 1_555 1_555
O32_9 Cd13_9 1_555 1_555
C16_9 O25_6 1_555 1_555
C22_9 O32_9 1_555 1_555
C23_9 O25_9 1_555 1_555
C32_9 C16_9 1_555 1_555
C33_9 C22_9 1_555 1_555
C34_9 C23_9 1_555 1_555
C43_9 C32_9 1_555 1_555
C44_9 C33_9 1_555 1_555
C45_9 C34_9 1_555 1_555
H19_9 C43_9 1_555 1_555
H20_9 C44_9 1_555 1_555
H21_9 C45_9 1_555 1_555
C54_9 C43_9 1_555 1_555
C55_9 C44_9 1_555 1_555
C56_9 C45_9 1_555 1_555
C65_9 C54_9 1_555 1_555
C66_9 C56_9 1_555 1_555
C67_9 C55_9 1_555 1_555
C76_9 C65_9 1_555 1_555
C77_9 C66_9 1_555 1_555
C78_9 C67_9 1_555 1_555
H30_9 C76_9 1_555 1_555
H31_9 C77_9 1_555 1_555
H32_9 C78_9 1_555 1_555
C87_9 C32_9 1_555 1_555
C88_9 C34_9 1_555 1_555
C89_9 C33_9 1_555 1_555
H41_9 C87_9 1_555 1_555
H42_9 C88_9 1_555 1_555
H43_9 C89_9 1_555 1_555
C98_9 C54_9 1_555 1_555
C99_9 C55_9 1_555 1_555
C100_9 C56_9 1_555 1_555
C109_9 C65_9 1_555 1_555
C110_9 C66_9 1_555 1_555
C111_9 C67_9 1_555 1_555
C120_9 C98_9 1_555 1_555
C121_9 C99_9 1_555 1_555
C122_9 C100_9 1_555 1_555
C131_9 C98_9 1_555 1_555
C132_9 C99_9 1_555 1_555
C133_9 C100_9 1_555 1_555
H52_9 C131_9 1_555 1_555
H53_9 C132_9 1_555 1_555
H54_9 C133_9 1_555 1_555
H63_9 C131_9 1_555 1_555
H64_9 C132_9 1_555 1_555
H65_9 C133_9 1_555 1_555
C142_9 C131_9 1_555 1_555
C143_9 C132_9 1_555 1_555
C144_9 C133_9 1_555 1_555
H74_9 C142_9 1_555 1_555
H75_9 C143_9 1_555 1_555
H76_9 C144_9 1_555 1_555
H85_9 C142_9 1_555 1_555
H86_9 C143_9 1_555 1_555
H87_9 C144_9 1_555 1_555
H96_9 C142_9 1_555 1_555
H97_9 C143_9 1_555 1_555
H98_9 C144_9 1_555 1_555
C153_9 C98_9 1_555 1_555
C154_9 C99_9 1_555 1_555
C155_9 C100_9 1_555 1_555
H107_9 C153_9 1_555 1_555
H108_9 C154_9 1_555 1_555
H109_9 C155_9 1_555 1_555
H118_9 C153_9 1_555 1_555
H119_9 C154_9 1_555 1_555
H120_9 C155_9 1_555 1_555
C164_9 C153_9 1_555 1_555
C165_9 C154_9 1_555 1_555
C166_9 C155_9 1_555 1_555
H129_9 C164_9 1_555 1_555
H130_9 C165_9 1_555 1_555
H131_9 C166_9 1_555 1_555
H140_9 C164_9 1_555 1_555
H141_9 C165_9 1_555 1_555
H142_9 C166_9 1_555 1_555
H151_9 C164_9 1_555 1_555
H152_9 C165_9 1_555 1_555
H153_9 C166_9 1_555 1_555
O7_6 C16_9 1_555 1_555
C76_9 C87_9 1_555 1_555
C77_9 C88_9 1_555 1_555
C78_9 C89_9 1_555 1_555
C109_9 C120_9 1_555 1_555
C109_9 C121_9 1_555 1_555
C110_9 C120_9 1_555 1_555
C110_9 C122_9 1_555 1_555
C111_9 C121_9 1_555 1_555
C111_9 C122_9 1_555 1_555
Cd12_8 O16_8 1_555 1_555
Cd13_10 O16_8 1_555 1_555
O7_7 C20_8 1_555 1_555
O16_8 C21_8 1_555 1_555
O31_8 Cd13_10 1_555 1_555
C19_8 O7_12 1_555 1_555
C20_8 O25_7 1_555 1_555
C21_8 O31_8 1_555 1_555
C29_8 C19_8 1_555 1_555
C30_8 C20_8 1_555 1_555
C31_8 C21_8 1_555 1_555
C40_8 C29_8 1_555 1_555
C41_8 C30_8 1_555 1_555
C42_8 C31_8 1_555 1_555
H16_8 C40_8 1_555 1_555
H17_8 C41_8 1_555 1_555
H18_8 C42_8 1_555 1_555
C51_8 C40_8 1_555 1_555
C52_8 C41_8 1_555 1_555
C53_8 C42_8 1_555 1_555
C62_8 C51_8 1_555 1_555
C63_8 C53_8 1_555 1_555
C64_8 C52_8 1_555 1_555
C73_8 C62_8 1_555 1_555
C74_8 C63_8 1_555 1_555
C75_8 C64_8 1_555 1_555
H27_8 C73_8 1_555 1_555
H28_8 C74_8 1_555 1_555
H29_8 C75_8 1_555 1_555
C84_8 C29_8 1_555 1_555
C85_8 C31_8 1_555 1_555
C86_8 C30_8 1_555 1_555
H38_8 C84_8 1_555 1_555
H39_8 C85_8 1_555 1_555
H40_8 C86_8 1_555 1_555
C95_8 C51_8 1_555 1_555
C96_8 C52_8 1_555 1_555
C97_8 C53_8 1_555 1_555
C106_8 C62_8 1_555 1_555
C107_8 C63_8 1_555 1_555
C108_8 C64_8 1_555 1_555
C117_8 C95_8 1_555 1_555
C118_8 C96_8 1_555 1_555
C119_8 C97_8 1_555 1_555
C128_8 C95_8 1_555 1_555
C129_8 C96_8 1_555 1_555
C130_8 C97_8 1_555 1_555
H49_8 C128_8 1_555 1_555
H50_8 C129_8 1_555 1_555
H51_8 C130_8 1_555 1_555
H60_8 C128_8 1_555 1_555
H61_8 C129_8 1_555 1_555
H62_8 C130_8 1_555 1_555
C139_8 C128_8 1_555 1_555
C140_8 C129_8 1_555 1_555
C141_8 C130_8 1_555 1_555
H71_8 C139_8 1_555 1_555
H72_8 C140_8 1_555 1_555
H73_8 C141_8 1_555 1_555
H82_8 C139_8 1_555 1_555
H83_8 C140_8 1_555 1_555
H84_8 C141_8 1_555 1_555
H93_8 C139_8 1_555 1_555
H94_8 C140_8 1_555 1_555
H95_8 C141_8 1_555 1_555
C150_8 C95_8 1_555 1_555
C151_8 C96_8 1_555 1_555
C152_8 C97_8 1_555 1_555
H104_8 C150_8 1_555 1_555
H105_8 C151_8 1_555 1_555
H106_8 C152_8 1_555 1_555
H115_8 C150_8 1_555 1_555
H116_8 C151_8 1_555 1_555
H117_8 C152_8 1_555 1_555
C161_8 C150_8 1_555 1_555
C162_8 C151_8 1_555 1_555
C163_8 C152_8 1_555 1_555
H126_8 C161_8 1_555 1_555
H127_8 C162_8 1_555 1_555
H128_8 C163_8 1_555 1_555
H137_8 C161_8 1_555 1_555
H138_8 C162_8 1_555 1_555
H139_8 C163_8 1_555 1_555
H148_8 C161_8 1_555 1_555
H149_8 C162_8 1_555 1_555
H150_8 C163_8 1_555 1_555
O25_12 C19_8 1_555 1_555
C73_8 C84_8 1_555 1_555
C74_8 C85_8 1_555 1_555
C75_8 C86_8 1_555 1_555
C106_8 C117_8 1_555 1_555
C106_8 C118_8 1_555 1_555
C107_8 C117_8 1_555 1_555
C107_8 C119_8 1_555 1_555
C108_8 C118_8 1_555 1_555
C108_8 C119_8 1_555 1_555
Cd16_6 O2_6 1_555 1_555
O2_6 C1_6 1_555 1_555
O4_18 Cd16_6 1_555 1_555
O5_18 Cd16_6 1_555 1_555
C1_6 C2_6 1_555 1_555
C2_6 C3_6 1_555 1_555
C3_6 H1_6 1_555 1_555
C4_6 C3_6 1_555 1_555
C5_6 C4_6 1_555 1_555
C6_6 C5_6 1_555 1_555
H2_6 C6_6 1_555 1_555
C7_6 C2_6 1_555 1_555
H3_6 C7_6 1_555 1_555
C8_6 C4_6 1_555 1_555
C9_6 C5_6 1_555 1_555
C10_6 C8_6 1_555 1_555
C11_6 C8_6 1_555 1_555
H4_6 C11_6 1_555 1_555
H5_6 C11_6 1_555 1_555
C12_6 C11_6 1_555 1_555
H6_6 C12_6 1_555 1_555
H7_6 C12_6 1_555 1_555
H8_6 C12_6 1_555 1_555
C13_6 C8_6 1_555 1_555
H9_6 C13_6 1_555 1_555
H10_6 C13_6 1_555 1_555
C14_6 C13_6 1_555 1_555
H11_6 C14_6 1_555 1_555
H12_6 C14_6 1_555 1_555
H13_6 C14_6 1_555 1_555
C15_18 O5_18 1_555 1_555
Cd17_6 O2_6 1_555 1_555
Cd15_8 O4_18 1_555 1_555
Cd18_8 O4_18 1_555 1_555
Cd5_6 O9_5 1_555 1_555
Cd15_5 O9_5 1_555 1_555
O6_14 Cd16_6 1_555 1_555
O9_5 C17_6 1_555 1_555
O14_9 C18_6 1_555 1_555
O11_14 Cd17_6 1_555 1_555
O14_14 Cd15_8 1_555 1_555
O21_14 Cd16_6 1_555 1_555
O22_6 C1_6 1_555 1_555
O23_5 Cd15_5 1_555 1_555
O27_14 Cd15_8 1_555 1_555
O28_14 Cd18_8 1_555 1_555
O36_18 Cd17_6 1_555 1_555
O37_18 Cd15_8 1_555 1_555
O38_18 Cd18_8 1_555 1_555
C17_6 O23_5 1_555 1_555
C18_6 O27_9 1_555 1_555
C27_6 C17_6 1_555 1_555
C28_6 C18_6 1_555 1_555
C38_6 C27_6 1_555 1_555
C39_6 C28_6 1_555 1_555
H14_6 C38_6 1_555 1_555
H15_6 C39_6 1_555 1_555
C49_6 C38_6 1_555 1_555
C50_6 C39_6 1_555 1_555
C60_6 C50_6 1_555 1_555
C61_6 C49_6 1_555 1_555
C71_6 C60_6 1_555 1_555
C72_6 C61_6 1_555 1_555
H25_6 C71_6 1_555 1_555
H26_6 C72_6 1_555 1_555
C82_6 C28_6 1_555 1_555
C83_6 C27_6 1_555 1_555
H36_6 C82_6 1_555 1_555
H37_6 C83_6 1_555 1_555
C93_6 C49_6 1_555 1_555
C94_6 C50_6 1_555 1_555
C104_6 C10_6 1_555 1_555
C105_6 C61_6 1_555 1_555
C115_6 C9_6 1_555 1_555
C116_6 C94_6 1_555 1_555
C126_6 C93_6 1_555 1_555
C127_6 C94_6 1_555 1_555
H47_6 C126_6 1_555 1_555
H48_6 C127_6 1_555 1_555
H58_6 C126_6 1_555 1_555
H59_6 C127_6 1_555 1_555
C137_6 C126_6 1_555 1_555
C138_6 C127_6 1_555 1_555
H69_6 C137_6 1_555 1_555
H70_6 C138_6 1_555 1_555
H80_6 C137_6 1_555 1_555
H81_6 C138_6 1_555 1_555
H91_6 C137_6 1_555 1_555
H92_6 C138_6 1_555 1_555
C148_6 C93_6 1_555 1_555
C149_6 C94_6 1_555 1_555
H102_6 C148_6 1_555 1_555
H103_6 C149_6 1_555 1_555
H113_6 C148_6 1_555 1_555
H114_6 C149_6 1_555 1_555
C159_6 C148_6 1_555 1_555
C160_6 C149_6 1_555 1_555
H124_6 C159_6 1_555 1_555
H125_6 C160_6 1_555 1_555
H135_6 C159_6 1_555 1_555
H136_6 C160_6 1_555 1_555
H146_6 C159_6 1_555 1_555
H147_6 C160_6 1_555 1_555
C170_18 O36_18 1_555 1_555
C171_18 O38_18 1_555 1_555
C172_18 O37_18 1_555 1_555
O4_18 Cd17_6 1_555 1_555
C6_6 C7_6 1_555 1_555
C9_6 C10_6 1_555 1_555
Cd17_6 O22_6 1_555 1_555
Cd15_8 O6_14 1_555 1_555
Cd18_8 O11_14 1_555 1_555
Cd18_8 O14_14 1_555 1_555
C60_6 C104_6 1_555 1_555
C71_6 C82_6 1_555 1_555
C72_6 C83_6 1_555 1_555
C93_6 C115_6 1_555 1_555
C104_6 C116_6 1_555 1_555
C105_6 C115_6 1_555 1_555
C105_6 C116_6 1_555 1_555
C171_18 H158_18 1_555 1_555
C171_18 H159_14 1_555 1_555
C170_18 H161_18 1_555 1_555
C170_18 H162_14 1_555 1_555
C172_18 H167_18 1_555 1_555
C172_18 H168_14 1_555 1_555
C15_18 H173_18 1_555 1_555
C15_18 H174_14 1_555 1_555
O4_19 Cd16_7 1_555 1_555
O5_19 Cd16_7 1_555 1_555
C15_19 O5_19 1_555 1_555
Cd15_9 O4_19 1_555 1_555
Cd18_9 O4_19 1_555 1_555
O36_19 Cd17_7 1_555 1_555
O37_19 Cd15_9 1_555 1_555
O38_19 Cd18_9 1_555 1_555
C170_19 O36_19 1_555 1_555
C171_19 O38_19 1_555 1_555
C172_19 O37_19 1_555 1_555
O4_19 Cd17_7 1_555 1_555
C171_19 H157_14 1_555 1_555
C171_19 H158_19 1_555 1_555
C170_19 H160_14 1_555 1_555
C170_19 H161_19 1_555 1_555
C172_19 H166_14 1_555 1_555
C172_19 H167_19 1_555 1_555
C15_19 H172_14 1_555 1_555
C15_19 H173_19 1_555 1_555
O4_20 Cd10_10 1_555 1_555
O5_20 Cd10_10 1_555 1_555
C15_20 O5_20 1_555 1_555
Cd14 O4_20 1_555 1_555
Cd13 O4_20 1_555 1_555
Cd12 O16_9 1_555 1_555
Cd5_5 O16_9 1_555 1_555
O7_13 Cd10_10 1_555 1_555
O12_8 Cd2_5 1_555 1_555
O7 C20_9 1_555 1_555
O16_9 C21_9 1_555 1_555
O25_13 Cd2_5 1_555 1_555
O29_8 Cd13 1_555 1_555
O31_9 Cd5_5 1_555 1_555
O36_20 Cd2_5 1_555 1_555
O37_20 Cd14 1_555 1_555
O38_20 Cd13 1_555 1_555
C19_9 O12_8 1_555 1_555
C20_9 O25 1_555 1_555
C21_9 O31_9 1_555 1_555
C29_9 C19_9 1_555 1_555
C30_9 C20_9 1_555 1_555
C31_9 C21_9 1_555 1_555
C40_9 C29_9 1_555 1_555
C41_9 C30_9 1_555 1_555
C42_9 C31_9 1_555 1_555
H16_9 C40_9 1_555 1_555
H17_9 C41_9 1_555 1_555
H18_9 C42_9 1_555 1_555
C51_9 C40_9 1_555 1_555
C52_9 C41_9 1_555 1_555
C53_9 C42_9 1_555 1_555
C62_9 C51_9 1_555 1_555
C63_9 C53_9 1_555 1_555
C64_9 C52_9 1_555 1_555
C73_9 C62_9 1_555 1_555
C74_9 C63_9 1_555 1_555
C75_9 C64_9 1_555 1_555
H27_9 C73_9 1_555 1_555
H28_9 C74_9 1_555 1_555
H29_9 C75_9 1_555 1_555
C84_9 C29_9 1_555 1_555
C85_9 C31_9 1_555 1_555
C86_9 C30_9 1_555 1_555
H38_9 C84_9 1_555 1_555
H39_9 C85_9 1_555 1_555
H40_9 C86_9 1_555 1_555
C95_9 C51_9 1_555 1_555
C96_9 C52_9 1_555 1_555
C97_9 C53_9 1_555 1_555
C106_9 C62_9 1_555 1_555
C107_9 C63_9 1_555 1_555
C108_9 C64_9 1_555 1_555
C117_9 C95_9 1_555 1_555
C118_9 C96_9 1_555 1_555
C119_9 C97_9 1_555 1_555
C128_9 C95_9 1_555 1_555
C129_9 C96_9 1_555 1_555
C130_9 C97_9 1_555 1_555
H49_9 C128_9 1_555 1_555
H50_9 C129_9 1_555 1_555
H51_9 C130_9 1_555 1_555
H60_9 C128_9 1_555 1_555
H61_9 C129_9 1_555 1_555
H62_9 C130_9 1_555 1_555
C139_9 C128_9 1_555 1_555
C140_9 C129_9 1_555 1_555
C141_9 C130_9 1_555 1_555
H71_9 C139_9 1_555 1_555
H72_9 C140_9 1_555 1_555
H73_9 C141_9 1_555 1_555
H82_9 C139_9 1_555 1_555
H83_9 C140_9 1_555 1_555
H84_9 C141_9 1_555 1_555
H93_9 C139_9 1_555 1_555
H94_9 C140_9 1_555 1_555
H95_9 C141_9 1_555 1_555
C150_9 C95_9 1_555 1_555
C151_9 C96_9 1_555 1_555
C152_9 C97_9 1_555 1_555
H104_9 C150_9 1_555 1_555
H105_9 C151_9 1_555 1_555
H106_9 C152_9 1_555 1_555
H115_9 C150_9 1_555 1_555
H116_9 C151_9 1_555 1_555
H117_9 C152_9 1_555 1_555
C161_9 C150_9 1_555 1_555
C162_9 C151_9 1_555 1_555
C163_9 C152_9 1_555 1_555
H126_9 C161_9 1_555 1_555
H127_9 C162_9 1_555 1_555
H128_9 C163_9 1_555 1_555
H137_9 C161_9 1_555 1_555
H138_9 C162_9 1_555 1_555
H139_9 C163_9 1_555 1_555
H148_9 C161_9 1_555 1_555
H149_9 C162_9 1_555 1_555
H150_9 C163_9 1_555 1_555
C170_20 O36_20 1_555 1_555
C171_20 O38_20 1_555 1_555
C172_20 O37_20 1_555 1_555
O4_20 Cd2_5 1_555 1_555
Cd2_5 O7_13 1_555 1_555
Cd13 O12_8 1_555 1_555
O29_8 C19_9 1_555 1_555
C73_9 C84_9 1_555 1_555
C74_9 C85_9 1_555 1_555
C75_9 C86_9 1_555 1_555
C106_9 C117_9 1_555 1_555
C106_9 C118_9 1_555 1_555
C107_9 C117_9 1_555 1_555
C107_9 C119_9 1_555 1_555
C108_9 C118_9 1_555 1_555
C108_9 C119_9 1_555 1_555
C171_20 H157_15 1_555 1_555
C171_20 H158_20 1_555 1_555
C170_20 H160_15 1_555 1_555
C170_20 H161_20 1_555 1_555
C172_20 H166_15 1_555 1_555
C172_20 H167_20 1_555 1_555
C15_20 H172_15 1_555 1_555
C15_20 H173_20 1_555 1_555
Cd10_11 O2_7 1_555 1_555
O2_7 C1_7 1_555 1_555
O4_21 Cd10_11 1_555 1_555
O5_21 Cd10_11 1_555 1_555
C1_7 C2_7 1_555 1_555
C2_7 C3_7 1_555 1_555
C3_7 H1_7 1_555 1_555
C4_7 C3_7 1_555 1_555
C5_7 C4_7 1_555 1_555
C6_7 C5_7 1_555 1_555
H2_7 C6_7 1_555 1_555
C7_7 C2_7 1_555 1_555
H3_7 C7_7 1_555 1_555
C8_7 C4_7 1_555 1_555
C9_7 C5_7 1_555 1_555
C10_7 C8_7 1_555 1_555
C11_7 C8_7 1_555 1_555
H4_7 C11_7 1_555 1_555
H5_7 C11_7 1_555 1_555
C12_7 C11_7 1_555 1_555
H6_7 C12_7 1_555 1_555
H7_7 C12_7 1_555 1_555
H8_7 C12_7 1_555 1_555
C13_7 C8_7 1_555 1_555
H9_7 C13_7 1_555 1_555
H10_7 C13_7 1_555 1_555
C14_7 C13_7 1_555 1_555
H11_7 C14_7 1_555 1_555
H12_7 C14_7 1_555 1_555
H13_7 C14_7 1_555 1_555
C15_21 O5_21 1_555 1_555
Cd2_6 O2_7 1_555 1_555
Cd14_2 O4_21 1_555 1_555
Cd13_2 O4_21 1_555 1_555
Cd18_6 O9_6 1_555 1_555
Cd15_6 O9_6 1_555 1_555
O6_15 Cd10_11 1_555 1_555
O9_6 C17_7 1_555 1_555
O14_7 C18_7 1_555 1_555
O11_15 Cd2_6 1_555 1_555
O14_15 Cd14_2 1_555 1_555
O21_15 Cd10_11 1_555 1_555
O22_7 C1_7 1_555 1_555
O23_6 Cd15_6 1_555 1_555
O27_15 Cd14_2 1_555 1_555
O28_15 Cd13_2 1_555 1_555
O36_21 Cd2_6 1_555 1_555
O37_21 Cd14_2 1_555 1_555
O38_21 Cd13_2 1_555 1_555
C17_7 O23_6 1_555 1_555
C18_7 O27_7 1_555 1_555
C27_7 C17_7 1_555 1_555
C28_7 C18_7 1_555 1_555
C38_7 C27_7 1_555 1_555
C39_7 C28_7 1_555 1_555
H14_7 C38_7 1_555 1_555
H15_7 C39_7 1_555 1_555
C49_7 C38_7 1_555 1_555
C50_7 C39_7 1_555 1_555
C60_7 C50_7 1_555 1_555
C61_7 C49_7 1_555 1_555
C71_7 C60_7 1_555 1_555
C72_7 C61_7 1_555 1_555
H25_7 C71_7 1_555 1_555
H26_7 C72_7 1_555 1_555
C82_7 C28_7 1_555 1_555
C83_7 C27_7 1_555 1_555
H36_7 C82_7 1_555 1_555
H37_7 C83_7 1_555 1_555
C93_7 C49_7 1_555 1_555
C94_7 C50_7 1_555 1_555
C104_7 C10_7 1_555 1_555
C105_7 C61_7 1_555 1_555
C115_7 C9_7 1_555 1_555
C116_7 C94_7 1_555 1_555
C126_7 C93_7 1_555 1_555
C127_7 C94_7 1_555 1_555
H47_7 C126_7 1_555 1_555
H48_7 C127_7 1_555 1_555
H58_7 C126_7 1_555 1_555
H59_7 C127_7 1_555 1_555
C137_7 C126_7 1_555 1_555
C138_7 C127_7 1_555 1_555
H69_7 C137_7 1_555 1_555
H70_7 C138_7 1_555 1_555
H80_7 C137_7 1_555 1_555
H81_7 C138_7 1_555 1_555
H91_7 C137_7 1_555 1_555
H92_7 C138_7 1_555 1_555
C148_7 C93_7 1_555 1_555
C149_7 C94_7 1_555 1_555
H102_7 C148_7 1_555 1_555
H103_7 C149_7 1_555 1_555
H113_7 C148_7 1_555 1_555
H114_7 C149_7 1_555 1_555
C159_7 C148_7 1_555 1_555
C160_7 C149_7 1_555 1_555
H124_7 C159_7 1_555 1_555
H125_7 C160_7 1_555 1_555
H135_7 C159_7 1_555 1_555
H136_7 C160_7 1_555 1_555
H146_7 C159_7 1_555 1_555
H147_7 C160_7 1_555 1_555
C170_21 O36_21 1_555 1_555
C171_21 O38_21 1_555 1_555
C172_21 O37_21 1_555 1_555
O4_21 Cd2_6 1_555 1_555
C6_7 C7_7 1_555 1_555
C9_7 C10_7 1_555 1_555
Cd2_6 O22_7 1_555 1_555
Cd14_2 O6_15 1_555 1_555
Cd13_2 O11_15 1_555 1_555
Cd13_2 O14_15 1_555 1_555
C60_7 C104_7 1_555 1_555
C71_7 C82_7 1_555 1_555
C72_7 C83_7 1_555 1_555
C93_7 C115_7 1_555 1_555
C104_7 C116_7 1_555 1_555
C105_7 C115_7 1_555 1_555
C105_7 C116_7 1_555 1_555
C171_21 H158_21 1_555 1_555
C171_21 H159_15 1_555 1_555
C170_21 H161_21 1_555 1_555
C170_21 H162_15 1_555 1_555
C172_21 H167_21 1_555 1_555
C172_21 H168_15 1_555 1_555
C15_21 H173_21 1_555 1_555
C15_21 H174_15 1_555 1_555
O6_2 C1_8 1_555 1_555
C1_8 C2_8 1_555 1_555
C2_8 C3_8 1_555 1_555
C3_8 H1_8 1_555 1_555
C4_8 C3_8 1_555 1_555
C5_8 C4_8 1_555 1_555
C6_8 C5_8 1_555 1_555
H2_8 C6_8 1_555 1_555
C7_8 C2_8 1_555 1_555
H3_8 C7_8 1_555 1_555
C8_8 C4_8 1_555 1_555
C9_8 C5_8 1_555 1_555
C10_8 C8_8 1_555 1_555
C11_8 C8_8 1_555 1_555
H4_8 C11_8 1_555 1_555
H5_8 C11_8 1_555 1_555
C12_8 C11_8 1_555 1_555
H6_8 C12_8 1_555 1_555
H7_8 C12_8 1_555 1_555
H8_8 C12_8 1_555 1_555
C13_8 C8_8 1_555 1_555
H9_8 C13_8 1_555 1_555
H10_8 C13_8 1_555 1_555
C14_8 C13_8 1_555 1_555
H11_8 C14_8 1_555 1_555
H12_8 C14_8 1_555 1_555
H13_8 C14_8 1_555 1_555
Cd14_7 O10_5 1_555 1_555
Cd11_10 O10_5 1_555 1_555
O11_3 C17_8 1_555 1_555
O10_5 C18_8 1_555 1_555
O21_2 C1_8 1_555 1_555
O24_5 Cd11_10 1_555 1_555
C17_8 O28_3 1_555 1_555
C18_8 O24_5 1_555 1_555
C27_8 C17_8 1_555 1_555
C28_8 C18_8 1_555 1_555
C38_8 C27_8 1_555 1_555
C39_8 C28_8 1_555 1_555
H14_8 C38_8 1_555 1_555
H15_8 C39_8 1_555 1_555
C49_8 C38_8 1_555 1_555
C50_8 C39_8 1_555 1_555
C60_8 C50_8 1_555 1_555
C61_8 C49_8 1_555 1_555
C71_8 C60_8 1_555 1_555
C72_8 C61_8 1_555 1_555
H25_8 C71_8 1_555 1_555
H26_8 C72_8 1_555 1_555
C82_8 C28_8 1_555 1_555
C83_8 C27_8 1_555 1_555
H36_8 C82_8 1_555 1_555
H37_8 C83_8 1_555 1_555
C93_8 C49_8 1_555 1_555
C94_8 C50_8 1_555 1_555
C104_8 C10_8 1_555 1_555
C105_8 C61_8 1_555 1_555
C115_8 C9_8 1_555 1_555
C116_8 C94_8 1_555 1_555
C126_8 C93_8 1_555 1_555
C127_8 C94_8 1_555 1_555
H47_8 C126_8 1_555 1_555
H48_8 C127_8 1_555 1_555
H58_8 C126_8 1_555 1_555
H59_8 C127_8 1_555 1_555
C137_8 C126_8 1_555 1_555
C138_8 C127_8 1_555 1_555
H69_8 C137_8 1_555 1_555
H70_8 C138_8 1_555 1_555
H80_8 C137_8 1_555 1_555
H81_8 C138_8 1_555 1_555
H91_8 C137_8 1_555 1_555
H92_8 C138_8 1_555 1_555
C148_8 C93_8 1_555 1_555
C149_8 C94_8 1_555 1_555
H102_8 C148_8 1_555 1_555
H103_8 C149_8 1_555 1_555
H113_8 C148_8 1_555 1_555
H114_8 C149_8 1_555 1_555
C159_8 C148_8 1_555 1_555
C160_8 C149_8 1_555 1_555
H124_8 C159_8 1_555 1_555
H125_8 C160_8 1_555 1_555
H135_8 C159_8 1_555 1_555
H136_8 C160_8 1_555 1_555
H146_8 C159_8 1_555 1_555
H147_8 C160_8 1_555 1_555
C6_8 C7_8 1_555 1_555
C9_8 C10_8 1_555 1_555
C60_8 C104_8 1_555 1_555
C71_8 C82_8 1_555 1_555
C72_8 C83_8 1_555 1_555
C93_8 C115_8 1_555 1_555
C104_8 C116_8 1_555 1_555
C105_8 C115_8 1_555 1_555
C105_8 C116_8 1_555 1_555
Cd12_3 O15_8 1_555 1_555
Cd10_12 O15_8 1_555 1_555
Cd11_11 O16_10 1_555 1_555
Cd13_3 O16_10 1_555 1_555
O15_8 C20_10 1_555 1_555
O16_10 C21_10 1_555 1_555
O30_8 Cd10_12 1_555 1_555
O31_10 Cd13_3 1_555 1_555
C19_10 O7_2 1_555 1_555
C20_10 O30_8 1_555 1_555
C21_10 O31_10 1_555 1_555
C29_10 C19_10 1_555 1_555
C30_10 C20_10 1_555 1_555
C31_10 C21_10 1_555 1_555
C40_10 C29_10 1_555 1_555
C41_10 C30_10 1_555 1_555
C42_10 C31_10 1_555 1_555
H16_10 C40_10 1_555 1_555
H17_10 C41_10 1_555 1_555
H18_10 C42_10 1_555 1_555
C51_10 C40_10 1_555 1_555
C52_10 C41_10 1_555 1_555
C53_10 C42_10 1_555 1_555
C62_10 C51_10 1_555 1_555
C63_10 C53_10 1_555 1_555
C64_10 C52_10 1_555 1_555
C73_10 C62_10 1_555 1_555
C74_10 C63_10 1_555 1_555
C75_10 C64_10 1_555 1_555
H27_10 C73_10 1_555 1_555
H28_10 C74_10 1_555 1_555
H29_10 C75_10 1_555 1_555
C84_10 C29_10 1_555 1_555
C85_10 C31_10 1_555 1_555
C86_10 C30_10 1_555 1_555
H38_10 C84_10 1_555 1_555
H39_10 C85_10 1_555 1_555
H40_10 C86_10 1_555 1_555
C95_10 C51_10 1_555 1_555
C96_10 C52_10 1_555 1_555
C97_10 C53_10 1_555 1_555
C106_10 C62_10 1_555 1_555
C107_10 C63_10 1_555 1_555
C108_10 C64_10 1_555 1_555
C117_10 C95_10 1_555 1_555
C118_10 C96_10 1_555 1_555
C119_10 C97_10 1_555 1_555
C128_10 C95_10 1_555 1_555
C129_10 C96_10 1_555 1_555
C130_10 C97_10 1_555 1_555
H49_10 C128_10 1_555 1_555
H50_10 C129_10 1_555 1_555
H51_10 C130_10 1_555 1_555
H60_10 C128_10 1_555 1_555
H61_10 C129_10 1_555 1_555
H62_10 C130_10 1_555 1_555
C139_10 C128_10 1_555 1_555
C140_10 C129_10 1_555 1_555
C141_10 C130_10 1_555 1_555
H71_10 C139_10 1_555 1_555
H72_10 C140_10 1_555 1_555
H73_10 C141_10 1_555 1_555
H82_10 C139_10 1_555 1_555
H83_10 C140_10 1_555 1_555
H84_10 C141_10 1_555 1_555
H93_10 C139_10 1_555 1_555
H94_10 C140_10 1_555 1_555
H95_10 C141_10 1_555 1_555
C150_10 C95_10 1_555 1_555
C151_10 C96_10 1_555 1_555
C152_10 C97_10 1_555 1_555
H104_10 C150_10 1_555 1_555
H105_10 C151_10 1_555 1_555
H106_10 C152_10 1_555 1_555
H115_10 C150_10 1_555 1_555
H116_10 C151_10 1_555 1_555
H117_10 C152_10 1_555 1_555
C161_10 C150_10 1_555 1_555
C162_10 C151_10 1_555 1_555
C163_10 C152_10 1_555 1_555
H126_10 C161_10 1_555 1_555
H127_10 C162_10 1_555 1_555
H128_10 C163_10 1_555 1_555
H137_10 C161_10 1_555 1_555
H138_10 C162_10 1_555 1_555
H139_10 C163_10 1_555 1_555
H148_10 C161_10 1_555 1_555
H149_10 C162_10 1_555 1_555
H150_10 C163_10 1_555 1_555
O25_2 C19_10 1_555 1_555
C73_10 C84_10 1_555 1_555
C74_10 C85_10 1_555 1_555
C75_10 C86_10 1_555 1_555
C106_10 C117_10 1_555 1_555
C106_10 C118_10 1_555 1_555
C107_10 C117_10 1_555 1_555
C107_10 C119_10 1_555 1_555
C108_10 C118_10 1_555 1_555
C108_10 C119_10 1_555 1_555
O4_22 Cd14_7 1_555 1_555
O5_22 Cd14_7 1_555 1_555
C15_22 O5_22 1_555 1_555
Cd13_7 O4_22 1_555 1_555
Cd12_9 O4_22 1_555 1_555
O6_16 Cd14_7 1_555 1_555
O7_14 Cd14_7 1_555 1_555
O11_16 Cd11_10 1_555 1_555
O13_8 Cd13_7 1_555 1_555
O14_16 Cd13_7 1_555 1_555
O21_16 Cd14_7 1_555 1_555
O25_14 Cd11_10 1_555 1_555
O26_8 Cd13_7 1_555 1_555
O27_16 Cd13_7 1_555 1_555
O28_16 Cd12_9 1_555 1_555
O36_22 Cd11_10 1_555 1_555
O37_22 Cd13_7 1_555 1_555
O38_22 Cd12_9 1_555 1_555
C24_8 O13_8 1_555 1_555
C25_8 O7_4 1_555 1_555
C26_8 O7_11 1_555 1_555
C35_8 C24_8 1_555 1_555
C36_8 C25_8 1_555 1_555
C37_8 C26_8 1_555 1_555
C46_8 C35_8 1_555 1_555
C47_8 C36_8 1_555 1_555
C48_8 C37_8 1_555 1_555
H22_8 C46_8 1_555 1_555
H23_8 C47_8 1_555 1_555
H24_8 C48_8 1_555 1_555
C57_8 C46_8 1_555 1_555
C58_8 C47_8 1_555 1_555
C59_8 C48_8 1_555 1_555
C68_8 C57_8 1_555 1_555
C69_8 C59_8 1_555 1_555
C70_8 C58_8 1_555 1_555
C79_8 C68_8 1_555 1_555
C80_8 C69_8 1_555 1_555
C81_8 C70_8 1_555 1_555
H33_8 C79_8 1_555 1_555
H34_8 C80_8 1_555 1_555
H35_8 C81_8 1_555 1_555
C90_8 C35_8 1_555 1_555
C91_8 C37_8 1_555 1_555
C92_8 C36_8 1_555 1_555
H44_8 C90_8 1_555 1_555
H45_8 C91_8 1_555 1_555
H46_8 C92_8 1_555 1_555
C101_8 C57_8 1_555 1_555
C102_8 C58_8 1_555 1_555
C103_8 C59_8 1_555 1_555
C112_8 C68_8 1_555 1_555
C113_8 C69_8 1_555 1_555
C114_8 C70_8 1_555 1_555
C123_8 C101_8 1_555 1_555
C124_8 C102_8 1_555 1_555
C125_8 C103_8 1_555 1_555
C134_8 C101_8 1_555 1_555
C135_8 C102_8 1_555 1_555
C136_8 C103_8 1_555 1_555
H55_8 C134_8 1_555 1_555
H56_8 C135_8 1_555 1_555
H57_8 C136_8 1_555 1_555
H66_8 C134_8 1_555 1_555
H67_8 C135_8 1_555 1_555
H68_8 C136_8 1_555 1_555
C145_8 C134_8 1_555 1_555
C146_8 C135_8 1_555 1_555
C147_8 C136_8 1_555 1_555
H77_8 C145_8 1_555 1_555
H78_8 C146_8 1_555 1_555
H79_8 C147_8 1_555 1_555
H88_8 C145_8 1_555 1_555
H89_8 C146_8 1_555 1_555
H90_8 C147_8 1_555 1_555
H99_8 C145_8 1_555 1_555
H100_8 C146_8 1_555 1_555
H101_8 C147_8 1_555 1_555
C156_8 C101_8 1_555 1_555
C157_8 C102_8 1_555 1_555
C158_8 C103_8 1_555 1_555
H110_8 C156_8 1_555 1_555
H111_8 C157_8 1_555 1_555
H112_8 C158_8 1_555 1_555
H121_8 C156_8 1_555 1_555
H122_8 C157_8 1_555 1_555
H123_8 C158_8 1_555 1_555
C167_8 C156_8 1_555 1_555
C168_8 C157_8 1_555 1_555
C169_8 C158_8 1_555 1_555
H132_8 C167_8 1_555 1_555
H133_8 C168_8 1_555 1_555
H134_8 C169_8 1_555 1_555
H143_8 C167_8 1_555 1_555
H144_8 C168_8 1_555 1_555
H145_8 C169_8 1_555 1_555
H154_8 C167_8 1_555 1_555
H155_8 C168_8 1_555 1_555
H156_8 C169_8 1_555 1_555
C170_22 O36_22 1_555 1_555
C171_22 O38_22 1_555 1_555
C172_22 O37_22 1_555 1_555
O4_22 Cd11_10 1_555 1_555
Cd11_10 O7_14 1_555 1_555
Cd13_7 O6_16 1_555 1_555
Cd12_9 O11_16 1_555 1_555
Cd12_9 O13_8 1_555 1_555
Cd12_9 O14_16 1_555 1_555
O26_8 C24_8 1_555 1_555
O25_4 C25_8 1_555 1_555
O25_11 C26_8 1_555 1_555
C79_8 C90_8 1_555 1_555
C80_8 C91_8 1_555 1_555
C81_8 C92_8 1_555 1_555
C112_8 C123_8 1_555 1_555
C112_8 C124_8 1_555 1_555
C113_8 C123_8 1_555 1_555
C113_8 C125_8 1_555 1_555
C114_8 C124_8 1_555 1_555
C114_8 C125_8 1_555 1_555
C171_22 H157_16 1_555 1_555
C171_22 H158_22 1_555 1_555
C171_22 H159_16 1_555 1_555
C170_22 H160_16 1_555 1_555
C170_22 H161_22 1_555 1_555
C170_22 H162_16 1_555 1_555
C172_22 H166_16 1_555 1_555
C172_22 H167_22 1_555 1_555
C172_22 H168_16 1_555 1_555
C15_22 H172_16 1_555 1_555
C15_22 H173_22 1_555 1_555
C15_22 H174_16 1_555 1_555
O4_23 Cd5_5 1_555 1_555
O5_23 Cd5_5 1_555 1_555
C15_23 O5_23 1_555 1_555
Cd12 O4_23 1_555 1_555
Cd11 O4_23 1_555 1_555
O7_15 Cd5_5 1_555 1_555
O25_15 Cd15_4 1_555 1_555
O36_23 Cd15_4 1_555 1_555
O37_23 Cd12 1_555 1_555
O38_23 Cd11 1_555 1_555
C170_23 O36_23 1_555 1_555
C171_23 O38_23 1_555 1_555
C172_23 O37_23 1_555 1_555
O4_23 Cd15_4 1_555 1_555
Cd15_4 O7_15 1_555 1_555
C171_23 H157_17 1_555 1_555
C171_23 H158_23 1_555 1_555
C170_23 H160_17 1_555 1_555
C170_23 H161_23 1_555 1_555
C172_23 H166_17 1_555 1_555
C172_23 H167_23 1_555 1_555
C15_23 H172_17 1_555 1_555
C15_23 H173_23 1_555 1_555
O4_24 Cd5_6 1_555 1_555
O5_24 Cd5_6 1_555 1_555
C15_24 O5_24 1_555 1_555
Cd12_2 O4_24 1_555 1_555
Cd11_2 O4_24 1_555 1_555
O6_17 Cd5_6 1_555 1_555
O11_17 Cd15_5 1_555 1_555
O14_17 Cd12_2 1_555 1_555
O21_17 Cd5_6 1_555 1_555
O27_17 Cd12_2 1_555 1_555
O28_17 Cd11_2 1_555 1_555
O36_24 Cd15_5 1_555 1_555
O37_24 Cd12_2 1_555 1_555
O38_24 Cd11_2 1_555 1_555
C170_24 O36_24 1_555 1_555
C171_24 O38_24 1_555 1_555
C172_24 O37_24 1_555 1_555
O4_24 Cd15_5 1_555 1_555
Cd12_2 O6_17 1_555 1_555
Cd11_2 O11_17 1_555 1_555
Cd11_2 O14_17 1_555 1_555
C171_24 H158_24 1_555 1_555
C171_24 H159_17 1_555 1_555
C170_24 H161_24 1_555 1_555
C170_24 H162_17 1_555 1_555
C172_24 H167_24 1_555 1_555
C172_24 H168_17 1_555 1_555
C15_24 H173_24 1_555 1_555
C15_24 H174_17 1_555 1_555
O4_25 Cd18_6 1_555 1_555
O5_25 Cd18_6 1_555 1_555
C15_25 O5_25 1_555 1_555
Cd17_4 O4_25 1_555 1_555
Cd16_4 O4_25 1_555 1_555
O6_18 Cd18_6 1_555 1_555
O11_18 Cd15_6 1_555 1_555
O14_18 Cd17_4 1_555 1_555
O21_18 Cd18_6 1_555 1_555
O27_18 Cd17_4 1_555 1_555
O28_18 Cd16_4 1_555 1_555
O36_25 Cd15_6 1_555 1_555
O37_25 Cd17_4 1_555 1_555
O38_25 Cd16_4 1_555 1_555
C170_25 O36_25 1_555 1_555
C171_25 O38_25 1_555 1_555
C172_25 O37_25 1_555 1_555
O4_25 Cd15_6 1_555 1_555
Cd17_4 O6_18 1_555 1_555
Cd16_4 O11_18 1_555 1_555
Cd16_4 O14_18 1_555 1_555
C171_25 H158_25 1_555 1_555
C171_25 H159_18 1_555 1_555
C170_25 H161_25 1_555 1_555
C170_25 H162_18 1_555 1_555
C172_25 H167_25 1_555 1_555
C172_25 H168_18 1_555 1_555
C15_25 H173_25 1_555 1_555
C15_25 H174_18 1_555 1_555
O4_26 Cd18_7 1_555 1_555
O5_26 Cd18_7 1_555 1_555
C15_26 O5_26 1_555 1_555
Cd17_5 O4_26 1_555 1_555
Cd16_5 O4_26 1_555 1_555
O36_26 Cd15_7 1_555 1_555
O37_26 Cd17_5 1_555 1_555
O38_26 Cd16_5 1_555 1_555
C170_26 O36_26 1_555 1_555
C171_26 O38_26 1_555 1_555
C172_26 O37_26 1_555 1_555
O4_26 Cd15_7 1_555 1_555
C171_26 H157_18 1_555 1_555
C171_26 H158_26 1_555 1_555
C170_26 H160_18 1_555 1_555
C170_26 H161_26 1_555 1_555
C172_26 H166_18 1_555 1_555
C172_26 H167_26 1_555 1_555
C15_26 H172_18 1_555 1_555
C15_26 H173_26 1_555 1_555
Cd12_5 O17_10 1_555 1_555
Cd14_12 O17_10 1_555 1_555
Cd15_14 O18_9 1_555 1_555
Cd13_5 O18_9 1_555 1_555
O17_10 C22_10 1_555 1_555
O18_9 C23_10 1_555 1_555
O32_10 Cd14_12 1_555 1_555
O33_9 Cd13_5 1_555 1_555
C16_10 O25_3 1_555 1_555
C22_10 O32_10 1_555 1_555
C23_10 O33_9 1_555 1_555
C32_10 C16_10 1_555 1_555
C33_10 C22_10 1_555 1_555
C34_10 C23_10 1_555 1_555
C43_10 C32_10 1_555 1_555
C44_10 C33_10 1_555 1_555
C45_10 C34_10 1_555 1_555
H19_10 C43_10 1_555 1_555
H20_10 C44_10 1_555 1_555
H21_10 C45_10 1_555 1_555
C54_10 C43_10 1_555 1_555
C55_10 C44_10 1_555 1_555
C56_10 C45_10 1_555 1_555
C65_10 C54_10 1_555 1_555
C66_10 C56_10 1_555 1_555
C67_10 C55_10 1_555 1_555
C76_10 C65_10 1_555 1_555
C77_10 C66_10 1_555 1_555
C78_10 C67_10 1_555 1_555
H30_10 C76_10 1_555 1_555
H31_10 C77_10 1_555 1_555
H32_10 C78_10 1_555 1_555
C87_10 C32_10 1_555 1_555
C88_10 C34_10 1_555 1_555
C89_10 C33_10 1_555 1_555
H41_10 C87_10 1_555 1_555
H42_10 C88_10 1_555 1_555
H43_10 C89_10 1_555 1_555
C98_10 C54_10 1_555 1_555
C99_10 C55_10 1_555 1_555
C100_10 C56_10 1_555 1_555
C109_10 C65_10 1_555 1_555
C110_10 C66_10 1_555 1_555
C111_10 C67_10 1_555 1_555
C120_10 C98_10 1_555 1_555
C121_10 C99_10 1_555 1_555
C122_10 C100_10 1_555 1_555
C131_10 C98_10 1_555 1_555
C132_10 C99_10 1_555 1_555
C133_10 C100_10 1_555 1_555
H52_10 C131_10 1_555 1_555
H53_10 C132_10 1_555 1_555
H54_10 C133_10 1_555 1_555
H63_10 C131_10 1_555 1_555
H64_10 C132_10 1_555 1_555
H65_10 C133_10 1_555 1_555
C142_10 C131_10 1_555 1_555
C143_10 C132_10 1_555 1_555
C144_10 C133_10 1_555 1_555
H74_10 C142_10 1_555 1_555
H75_10 C143_10 1_555 1_555
H76_10 C144_10 1_555 1_555
H85_10 C142_10 1_555 1_555
H86_10 C143_10 1_555 1_555
H87_10 C144_10 1_555 1_555
H96_10 C142_10 1_555 1_555
H97_10 C143_10 1_555 1_555
H98_10 C144_10 1_555 1_555
C153_10 C98_10 1_555 1_555
C154_10 C99_10 1_555 1_555
C155_10 C100_10 1_555 1_555
H107_10 C153_10 1_555 1_555
H108_10 C154_10 1_555 1_555
H109_10 C155_10 1_555 1_555
H118_10 C153_10 1_555 1_555
H119_10 C154_10 1_555 1_555
H120_10 C155_10 1_555 1_555
C164_10 C153_10 1_555 1_555
C165_10 C154_10 1_555 1_555
C166_10 C155_10 1_555 1_555
H129_10 C164_10 1_555 1_555
H130_10 C165_10 1_555 1_555
H131_10 C166_10 1_555 1_555
H140_10 C164_10 1_555 1_555
H141_10 C165_10 1_555 1_555
H142_10 C166_10 1_555 1_555
H151_10 C164_10 1_555 1_555
H152_10 C165_10 1_555 1_555
H153_10 C166_10 1_555 1_555
O7_3 C16_10 1_555 1_555
C76_10 C87_10 1_555 1_555
C77_10 C88_10 1_555 1_555
C78_10 C89_10 1_555 1_555
C109_10 C120_10 1_555 1_555
C109_10 C121_10 1_555 1_555
C110_10 C120_10 1_555 1_555
C110_10 C122_10 1_555 1_555
C111_10 C121_10 1_555 1_555
C111_10 C122_10 1_555 1_555
O6_9 C1_9 1_555 1_555
C1_9 C2_9 1_555 1_555
C2_9 C3_9 1_555 1_555
C3_9 H1_9 1_555 1_555
C4_9 C3_9 1_555 1_555
C5_9 C4_9 1_555 1_555
C6_9 C5_9 1_555 1_555
H2_9 C6_9 1_555 1_555
C7_9 C2_9 1_555 1_555
H3_9 C7_9 1_555 1_555
C8_9 C4_9 1_555 1_555
C9_9 C5_9 1_555 1_555
C10_9 C8_9 1_555 1_555
C11_9 C8_9 1_555 1_555
H4_9 C11_9 1_555 1_555
H5_9 C11_9 1_555 1_555
C12_9 C11_9 1_555 1_555
H6_9 C12_9 1_555 1_555
H7_9 C12_9 1_555 1_555
H8_9 C12_9 1_555 1_555
C13_9 C8_9 1_555 1_555
H9_9 C13_9 1_555 1_555
H10_9 C13_9 1_555 1_555
C14_9 C13_9 1_555 1_555
H11_9 C14_9 1_555 1_555
H12_9 C14_9 1_555 1_555
H13_9 C14_9 1_555 1_555
O11_11 C17_9 1_555 1_555
O6_14 C18_9 1_555 1_555
O21_9 C1_9 1_555 1_555
C17_9 O28_11 1_555 1_555
C18_9 O21_14 1_555 1_555
C27_9 C17_9 1_555 1_555
C28_9 C18_9 1_555 1_555
C38_9 C27_9 1_555 1_555
C39_9 C28_9 1_555 1_555
H14_9 C38_9 1_555 1_555
H15_9 C39_9 1_555 1_555
C49_9 C38_9 1_555 1_555
C50_9 C39_9 1_555 1_555
C60_9 C50_9 1_555 1_555
C61_9 C49_9 1_555 1_555
C71_9 C60_9 1_555 1_555
C72_9 C61_9 1_555 1_555
H25_9 C71_9 1_555 1_555
H26_9 C72_9 1_555 1_555
C82_9 C28_9 1_555 1_555
C83_9 C27_9 1_555 1_555
H36_9 C82_9 1_555 1_555
H37_9 C83_9 1_555 1_555
C93_9 C49_9 1_555 1_555
C94_9 C50_9 1_555 1_555
C104_9 C10_9 1_555 1_555
C105_9 C61_9 1_555 1_555
C115_9 C9_9 1_555 1_555
C116_9 C94_9 1_555 1_555
C126_9 C93_9 1_555 1_555
C127_9 C94_9 1_555 1_555
H47_9 C126_9 1_555 1_555
H48_9 C127_9 1_555 1_555
H58_9 C126_9 1_555 1_555
H59_9 C127_9 1_555 1_555
C137_9 C126_9 1_555 1_555
C138_9 C127_9 1_555 1_555
H69_9 C137_9 1_555 1_555
H70_9 C138_9 1_555 1_555
H80_9 C137_9 1_555 1_555
H81_9 C138_9 1_555 1_555
H91_9 C137_9 1_555 1_555
H92_9 C138_9 1_555 1_555
C148_9 C93_9 1_555 1_555
C149_9 C94_9 1_555 1_555
H102_9 C148_9 1_555 1_555
H103_9 C149_9 1_555 1_555
H113_9 C148_9 1_555 1_555
H114_9 C149_9 1_555 1_555
C159_9 C148_9 1_555 1_555
C160_9 C149_9 1_555 1_555
H124_9 C159_9 1_555 1_555
H125_9 C160_9 1_555 1_555
H135_9 C159_9 1_555 1_555
H136_9 C160_9 1_555 1_555
H146_9 C159_9 1_555 1_555
H147_9 C160_9 1_555 1_555
C6_9 C7_9 1_555 1_555
C9_9 C10_9 1_555 1_555
C60_9 C104_9 1_555 1_555
C71_9 C82_9 1_555 1_555
C72_9 C83_9 1_555 1_555
C93_9 C115_9 1_555 1_555
C104_9 C116_9 1_555 1_555
C105_9 C115_9 1_555 1_555
C105_9 C116_9 1_555 1_555
O14_6 C1_10 1_555 1_555
C1_10 C2_10 1_555 1_555
C2_10 C3_10 1_555 1_555
C3_10 H1_10 1_555 1_555
C4_10 C3_10 1_555 1_555
C5_10 C4_10 1_555 1_555
C6_10 C5_10 1_555 1_555
H2_10 C6_10 1_555 1_555
C7_10 C2_10 1_555 1_555
H3_10 C7_10 1_555 1_555
C8_10 C4_10 1_555 1_555
C9_10 C5_10 1_555 1_555
C10_10 C8_10 1_555 1_555
C11_10 C8_10 1_555 1_555
H4_10 C11_10 1_555 1_555
H5_10 C11_10 1_555 1_555
C12_10 C11_10 1_555 1_555
H6_10 C12_10 1_555 1_555
H7_10 C12_10 1_555 1_555
H8_10 C12_10 1_555 1_555
C13_10 C8_10 1_555 1_555
H9_10 C13_10 1_555 1_555
H10_10 C13_10 1_555 1_555
C14_10 C13_10 1_555 1_555
H11_10 C14_10 1_555 1_555
H12_10 C14_10 1_555 1_555
H13_10 C14_10 1_555 1_555
Cd10_9 O9_7 1_555 1_555
Cd11_12 O9_7 1_555 1_555
O9_7 C17_10 1_555 1_555
O6_13 C18_10 1_555 1_555
O27_6 C1_10 1_555 1_555
O23_7 Cd11_12 1_555 1_555
C17_10 O23_7 1_555 1_555
C18_10 O21_13 1_555 1_555
C27_10 C17_10 1_555 1_555
C28_10 C18_10 1_555 1_555
C38_10 C27_10 1_555 1_555
C39_10 C28_10 1_555 1_555
H14_10 C38_10 1_555 1_555
H15_10 C39_10 1_555 1_555
C49_10 C38_10 1_555 1_555
C50_10 C39_10 1_555 1_555
C60_10 C50_10 1_555 1_555
C61_10 C49_10 1_555 1_555
C71_10 C60_10 1_555 1_555
C72_10 C61_10 1_555 1_555
H25_10 C71_10 1_555 1_555
H26_10 C72_10 1_555 1_555
C82_10 C28_10 1_555 1_555
C83_10 C27_10 1_555 1_555
H36_10 C82_10 1_555 1_555
H37_10 C83_10 1_555 1_555
C93_10 C49_10 1_555 1_555
C94_10 C50_10 1_555 1_555
C104_10 C10_10 1_555 1_555
C105_10 C61_10 1_555 1_555
C115_10 C9_10 1_555 1_555
C116_10 C94_10 1_555 1_555
C126_10 C93_10 1_555 1_555
C127_10 C94_10 1_555 1_555
H47_10 C126_10 1_555 1_555
H48_10 C127_10 1_555 1_555
H58_10 C126_10 1_555 1_555
H59_10 C127_10 1_555 1_555
C137_10 C126_10 1_555 1_555
C138_10 C127_10 1_555 1_555
H69_10 C137_10 1_555 1_555
H70_10 C138_10 1_555 1_555
H80_10 C137_10 1_555 1_555
H81_10 C138_10 1_555 1_555
H91_10 C137_10 1_555 1_555
H92_10 C138_10 1_555 1_555
C148_10 C93_10 1_555 1_555
C149_10 C94_10 1_555 1_555
H102_10 C148_10 1_555 1_555
H103_10 C149_10 1_555 1_555
H113_10 C148_10 1_555 1_555
H114_10 C149_10 1_555 1_555
C159_10 C148_10 1_555 1_555
C160_10 C149_10 1_555 1_555
H124_10 C159_10 1_555 1_555
H125_10 C160_10 1_555 1_555
H135_10 C159_10 1_555 1_555
H136_10 C160_10 1_555 1_555
H146_10 C159_10 1_555 1_555
H147_10 C160_10 1_555 1_555
C6_10 C7_10 1_555 1_555
C9_10 C10_10 1_555 1_555
C60_10 C104_10 1_555 1_555
C71_10 C82_10 1_555 1_555
C72_10 C83_10 1_555 1_555
C93_10 C115_10 1_555 1_555
C104_10 C116_10 1_555 1_555
C105_10 C115_10 1_555 1_555
C105_10 C116_10 1_555 1_555
Cd14_11 O2_8 1_555 1_555
O2_8 C1_11 1_555 1_555
O4_27 Cd14_11 1_555 1_555
O5_27 Cd14_11 1_555 1_555
C1_11 C2_11 1_555 1_555
C2_11 C3_11 1_555 1_555
C3_11 H1_11 1_555 1_555
C4_11 C3_11 1_555 1_555
C5_11 C4_11 1_555 1_555
C6_11 C5_11 1_555 1_555
H2_11 C6_11 1_555 1_555
C7_11 C2_11 1_555 1_555
H3_11 C7_11 1_555 1_555
C8_11 C4_11 1_555 1_555
C9_11 C5_11 1_555 1_555
C10_11 C8_11 1_555 1_555
C11_11 C8_11 1_555 1_555
H4_11 C11_11 1_555 1_555
H5_11 C11_11 1_555 1_555
C12_11 C11_11 1_555 1_555
H6_11 C12_11 1_555 1_555
H7_11 C12_11 1_555 1_555
H8_11 C12_11 1_555 1_555
C13_11 C8_11 1_555 1_555
H9_11 C13_11 1_555 1_555
H10_11 C13_11 1_555 1_555
C14_11 C13_11 1_555 1_555
H11_11 C14_11 1_555 1_555
H12_11 C14_11 1_555 1_555
H13_11 C14_11 1_555 1_555
C15_27 O5_27 1_555 1_555
Cd11_9 O2_8 1_555 1_555
Cd13_10 O4_27 1_555 1_555
Cd12_8 O4_27 1_555 1_555
O6_19 Cd14_11 1_555 1_555
O7_16 Cd14_11 1_555 1_555
O6_3 C17_11 1_555 1_555
O11 C18_11 1_555 1_555
O11_19 Cd11_9 1_555 1_555
O14_19 Cd13_10 1_555 1_555
O21_19 Cd14_11 1_555 1_555
O22_8 C1_11 1_555 1_555
O25_16 Cd11_9 1_555 1_555
O27_19 Cd13_10 1_555 1_555
O28_19 Cd12_8 1_555 1_555
O36_27 Cd11_9 1_555 1_555
O37_27 Cd13_10 1_555 1_555
O38_27 Cd12_8 1_555 1_555
C17_11 O21_3 1_555 1_555
C18_11 O28 1_555 1_555
C27_11 C17_11 1_555 1_555
C28_11 C18_11 1_555 1_555
C38_11 C27_11 1_555 1_555
C39_11 C28_11 1_555 1_555
H14_11 C38_11 1_555 1_555
H15_11 C39_11 1_555 1_555
C49_11 C38_11 1_555 1_555
C50_11 C39_11 1_555 1_555
C60_11 C50_11 1_555 1_555
C61_11 C49_11 1_555 1_555
C71_11 C60_11 1_555 1_555
C72_11 C61_11 1_555 1_555
H25_11 C71_11 1_555 1_555
H26_11 C72_11 1_555 1_555
C82_11 C28_11 1_555 1_555
C83_11 C27_11 1_555 1_555
H36_11 C82_11 1_555 1_555
H37_11 C83_11 1_555 1_555
C93_11 C49_11 1_555 1_555
C94_11 C50_11 1_555 1_555
C104_11 C10_11 1_555 1_555
C105_11 C61_11 1_555 1_555
C115_11 C9_11 1_555 1_555
C116_11 C94_11 1_555 1_555
C126_11 C93_11 1_555 1_555
C127_11 C94_11 1_555 1_555
H47_11 C126_11 1_555 1_555
H48_11 C127_11 1_555 1_555
H58_11 C126_11 1_555 1_555
H59_11 C127_11 1_555 1_555
C137_11 C126_11 1_555 1_555
C138_11 C127_11 1_555 1_555
H69_11 C137_11 1_555 1_555
H70_11 C138_11 1_555 1_555
H80_11 C137_11 1_555 1_555
H81_11 C138_11 1_555 1_555
H91_11 C137_11 1_555 1_555
H92_11 C138_11 1_555 1_555
C148_11 C93_11 1_555 1_555
C149_11 C94_11 1_555 1_555
H102_11 C148_11 1_555 1_555
H103_11 C149_11 1_555 1_555
H113_11 C148_11 1_555 1_555
H114_11 C149_11 1_555 1_555
C159_11 C148_11 1_555 1_555
C160_11 C149_11 1_555 1_555
H124_11 C159_11 1_555 1_555
H125_11 C160_11 1_555 1_555
H135_11 C159_11 1_555 1_555
H136_11 C160_11 1_555 1_555
H146_11 C159_11 1_555 1_555
H147_11 C160_11 1_555 1_555
C170_27 O36_27 1_555 1_555
C171_27 O38_27 1_555 1_555
C172_27 O37_27 1_555 1_555
O4_27 Cd11_9 1_555 1_555
C6_11 C7_11 1_555 1_555
C9_11 C10_11 1_555 1_555
Cd11_9 O7_16 1_555 1_555
Cd11_9 O22_8 1_555 1_555
Cd13_10 O6_19 1_555 1_555
Cd12_8 O11_19 1_555 1_555
Cd12_8 O14_19 1_555 1_555
C60_11 C104_11 1_555 1_555
C71_11 C82_11 1_555 1_555
C72_11 C83_11 1_555 1_555
C93_11 C115_11 1_555 1_555
C104_11 C116_11 1_555 1_555
C105_11 C115_11 1_555 1_555
C105_11 C116_11 1_555 1_555
C171_27 H157_19 1_555 1_555
C171_27 H158_27 1_555 1_555
C171_27 H159_19 1_555 1_555
C170_27 H160_19 1_555 1_555
C170_27 H161_27 1_555 1_555
C170_27 H162_19 1_555 1_555
C172_27 H166_19 1_555 1_555
C172_27 H167_27 1_555 1_555
C172_27 H168_19 1_555 1_555
C15_27 H172_19 1_555 1_555
C15_27 H173_27 1_555 1_555
C15_27 H174_19 1_555 1_555
O14_4 C1_12 1_555 1_555
C1_12 C2_12 1_555 1_555
C2_12 C3_12 1_555 1_555
C3_12 H1_12 1_555 1_555
C4_12 C3_12 1_555 1_555
C5_12 C4_12 1_555 1_555
C6_12 C5_12 1_555 1_555
H2_12 C6_12 1_555 1_555
C7_12 C2_12 1_555 1_555
H3_12 C7_12 1_555 1_555
C8_12 C4_12 1_555 1_555
C9_12 C5_12 1_555 1_555
C10_12 C8_12 1_555 1_555
C11_12 C8_12 1_555 1_555
H4_12 C11_12 1_555 1_555
H5_12 C11_12 1_555 1_555
C12_12 C11_12 1_555 1_555
H6_12 C12_12 1_555 1_555
H7_12 C12_12 1_555 1_555
H8_12 C12_12 1_555 1_555
C13_12 C8_12 1_555 1_555
H9_12 C13_12 1_555 1_555
H10_12 C13_12 1_555 1_555
C14_12 C13_12 1_555 1_555
H11_12 C14_12 1_555 1_555
H12_12 C14_12 1_555 1_555
H13_12 C14_12 1_555 1_555
Cd10_13 O10_6 1_555 1_555
Cd15_13 O10_6 1_555 1_555
O14_18 C17_12 1_555 1_555
O10_6 C18_12 1_555 1_555
O27_4 C1_12 1_555 1_555
O24_6 Cd15_13 1_555 1_555
C17_12 O27_18 1_555 1_555
C18_12 O24_6 1_555 1_555
C27_12 C17_12 1_555 1_555
C28_12 C18_12 1_555 1_555
C38_12 C27_12 1_555 1_555
C39_12 C28_12 1_555 1_555
H14_12 C38_12 1_555 1_555
H15_12 C39_12 1_555 1_555
C49_12 C38_12 1_555 1_555
C50_12 C39_12 1_555 1_555
C60_12 C50_12 1_555 1_555
C61_12 C49_12 1_555 1_555
C71_12 C60_12 1_555 1_555
C72_12 C61_12 1_555 1_555
H25_12 C71_12 1_555 1_555
H26_12 C72_12 1_555 1_555
C82_12 C28_12 1_555 1_555
C83_12 C27_12 1_555 1_555
H36_12 C82_12 1_555 1_555
H37_12 C83_12 1_555 1_555
C93_12 C49_12 1_555 1_555
C94_12 C50_12 1_555 1_555
C104_12 C10_12 1_555 1_555
C105_12 C61_12 1_555 1_555
C115_12 C9_12 1_555 1_555
C116_12 C94_12 1_555 1_555
C126_12 C93_12 1_555 1_555
C127_12 C94_12 1_555 1_555
H47_12 C126_12 1_555 1_555
H48_12 C127_12 1_555 1_555
H58_12 C126_12 1_555 1_555
H59_12 C127_12 1_555 1_555
C137_12 C126_12 1_555 1_555
C138_12 C127_12 1_555 1_555
H69_12 C137_12 1_555 1_555
H70_12 C138_12 1_555 1_555
H80_12 C137_12 1_555 1_555
H81_12 C138_12 1_555 1_555
H91_12 C137_12 1_555 1_555
H92_12 C138_12 1_555 1_555
C148_12 C93_12 1_555 1_555
C149_12 C94_12 1_555 1_555
H102_12 C148_12 1_555 1_555
H103_12 C149_12 1_555 1_555
H113_12 C148_12 1_555 1_555
H114_12 C149_12 1_555 1_555
C159_12 C148_12 1_555 1_555
C160_12 C149_12 1_555 1_555
H124_12 C159_12 1_555 1_555
H125_12 C160_12 1_555 1_555
H135_12 C159_12 1_555 1_555
H136_12 C160_12 1_555 1_555
H146_12 C159_12 1_555 1_555
H147_12 C160_12 1_555 1_555
C6_12 C7_12 1_555 1_555
C9_12 C10_12 1_555 1_555
C60_12 C104_12 1_555 1_555
C71_12 C82_12 1_555 1_555
C72_12 C83_12 1_555 1_555
C93_12 C115_12 1_555 1_555
C104_12 C116_12 1_555 1_555
C105_12 C115_12 1_555 1_555
C105_12 C116_12 1_555 1_555
O4_28 Cd10_12 1_555 1_555
O5_28 Cd10_12 1_555 1_555
C15_28 O5_28 1_555 1_555
Cd12_3 O4_28 1_555 1_555
Cd11_3 O4_28 1_555 1_555
O7_17 Cd10_12 1_555 1_555
O25_17 Cd15_12 1_555 1_555
O36_28 Cd15_12 1_555 1_555
O37_28 Cd12_3 1_555 1_555
O38_28 Cd11_3 1_555 1_555
C170_28 O36_28 1_555 1_555
C171_28 O38_28 1_555 1_555
C172_28 O37_28 1_555 1_555
O4_28 Cd15_12 1_555 1_555
Cd15_12 O7_17 1_555 1_555
C171_28 H157_20 1_555 1_555
C171_28 H158_28 1_555 1_555
C170_28 H160_20 1_555 1_555
C170_28 H161_28 1_555 1_555
C172_28 H166_20 1_555 1_555
C172_28 H167_28 1_555 1_555
C15_28 H172_20 1_555 1_555
C15_28 H173_28 1_555 1_555
O4_29 Cd10_13 1_555 1_555
O5_29 Cd10_13 1_555 1_555
C15_29 O5_29 1_555 1_555
Cd12_4 O4_29 1_555 1_555
Cd11_4 O4_29 1_555 1_555
O6_20 Cd10_13 1_555 1_555
O11_20 Cd15_13 1_555 1_555
O14_20 Cd12_4 1_555 1_555
O21_20 Cd10_13 1_555 1_555
O27_20 Cd12_4 1_555 1_555
O28_20 Cd11_4 1_555 1_555
O36_29 Cd15_13 1_555 1_555
O37_29 Cd12_4 1_555 1_555
O38_29 Cd11_4 1_555 1_555
C170_29 O36_29 1_555 1_555
C171_29 O38_29 1_555 1_555
C172_29 O37_29 1_555 1_555
O4_29 Cd15_13 1_555 1_555
Cd12_4 O6_20 1_555 1_555
Cd11_4 O11_20 1_555 1_555
Cd11_4 O14_20 1_555 1_555
C171_29 H158_29 1_555 1_555
C171_29 H159_20 1_555 1_555
C170_29 H161_29 1_555 1_555
C170_29 H162_20 1_555 1_555
C172_29 H167_29 1_555 1_555
C172_29 H168_20 1_555 1_555
C15_29 H173_29 1_555 1_555
C15_29 H174_20 1_555 1_555
O4_30 Cd10_8 1_555 1_555
O5_30 Cd10_8 1_555 1_555
C15_30 O5_30 1_555 1_555
Cd14_3 O4_30 1_555 1_555
Cd13_3 O4_30 1_555 1_555
O7_18 Cd10_8 1_555 1_555
O25_18 Cd11_11 1_555 1_555
O36_30 Cd11_11 1_555 1_555
O37_30 Cd14_3 1_555 1_555
O38_30 Cd13_3 1_555 1_555
C170_30 O36_30 1_555 1_555
C171_30 O38_30 1_555 1_555
C172_30 O37_30 1_555 1_555
O4_30 Cd11_11 1_555 1_555
Cd11_11 O7_18 1_555 1_555
C171_30 H157_21 1_555 1_555
C171_30 H158_30 1_555 1_555
C170_30 H160_21 1_555 1_555
C170_30 H161_30 1_555 1_555
C172_30 H166_21 1_555 1_555
C172_30 H167_30 1_555 1_555
C15_30 H172_21 1_555 1_555
C15_30 H173_30 1_555 1_555
O4_31 Cd10_9 1_555 1_555
O5_31 Cd10_9 1_555 1_555
C15_31 O5_31 1_555 1_555
Cd14_4 O4_31 1_555 1_555
Cd13_4 O4_31 1_555 1_555
O6_21 Cd10_9 1_555 1_555
O11_21 Cd11_12 1_555 1_555
O14_21 Cd14_4 1_555 1_555
O21_21 Cd10_9 1_555 1_555
O27_21 Cd14_4 1_555 1_555
O28_21 Cd13_4 1_555 1_555
O36_31 Cd11_12 1_555 1_555
O37_31 Cd14_4 1_555 1_555
O38_31 Cd13_4 1_555 1_555
C170_31 O36_31 1_555 1_555
C171_31 O38_31 1_555 1_555
C172_31 O37_31 1_555 1_555
O4_31 Cd11_12 1_555 1_555
Cd14_4 O6_21 1_555 1_555
Cd13_4 O11_21 1_555 1_555
Cd13_4 O14_21 1_555 1_555
C171_31 H158_31 1_555 1_555
C171_31 H159_21 1_555 1_555
C170_31 H161_31 1_555 1_555
C170_31 H162_21 1_555 1_555
C172_31 H167_31 1_555 1_555
C172_31 H168_21 1_555 1_555
C15_31 H173_31 1_555 1_555
C15_31 H174_21 1_555 1_555
O11_7 C1_13 1_555 1_555
C1_13 C2_13 1_555 1_555
C2_13 C3_13 1_555 1_555
C3_13 H1_13 1_555 1_555
C4_13 C3_13 1_555 1_555
C5_13 C4_13 1_555 1_555
C6_13 C5_13 1_555 1_555
H2_13 C6_13 1_555 1_555
C7_13 C2_13 1_555 1_555
H3_13 C7_13 1_555 1_555
C8_13 C4_13 1_555 1_555
C9_13 C5_13 1_555 1_555
C10_13 C8_13 1_555 1_555
C11_13 C8_13 1_555 1_555
H4_13 C11_13 1_555 1_555
H5_13 C11_13 1_555 1_555
C12_13 C11_13 1_555 1_555
H6_13 C12_13 1_555 1_555
H7_13 C12_13 1_555 1_555
H8_13 C12_13 1_555 1_555
C13_13 C8_13 1_555 1_555
H9_13 C13_13 1_555 1_555
H10_13 C13_13 1_555 1_555
C14_13 C13_13 1_555 1_555
H11_13 C14_13 1_555 1_555
H12_13 C14_13 1_555 1_555
H13_13 C14_13 1_555 1_555
O11_18 C17_13 1_555 1_555
O6_4 C18_13 1_555 1_555
O28_7 C1_13 1_555 1_555
C17_13 O28_18 1_555 1_555
C18_13 O21_4 1_555 1_555
C27_13 C17_13 1_555 1_555
C28_13 C18_13 1_555 1_555
C38_13 C27_13 1_555 1_555
C39_13 C28_13 1_555 1_555
H14_13 C38_13 1_555 1_555
H15_13 C39_13 1_555 1_555
C49_13 C38_13 1_555 1_555
C50_13 C39_13 1_555 1_555
C60_13 C50_13 1_555 1_555
C61_13 C49_13 1_555 1_555
C71_13 C60_13 1_555 1_555
C72_13 C61_13 1_555 1_555
H25_13 C71_13 1_555 1_555
H26_13 C72_13 1_555 1_555
C82_13 C28_13 1_555 1_555
C83_13 C27_13 1_555 1_555
H36_13 C82_13 1_555 1_555
H37_13 C83_13 1_555 1_555
C93_13 C49_13 1_555 1_555
C94_13 C50_13 1_555 1_555
C104_13 C10_13 1_555 1_555
C105_13 C61_13 1_555 1_555
C115_13 C9_13 1_555 1_555
C116_13 C94_13 1_555 1_555
C126_13 C93_13 1_555 1_555
C127_13 C94_13 1_555 1_555
H47_13 C126_13 1_555 1_555
H48_13 C127_13 1_555 1_555
H58_13 C126_13 1_555 1_555
H59_13 C127_13 1_555 1_555
C137_13 C126_13 1_555 1_555
C138_13 C127_13 1_555 1_555
H69_13 C137_13 1_555 1_555
H70_13 C138_13 1_555 1_555
H80_13 C137_13 1_555 1_555
H81_13 C138_13 1_555 1_555
H91_13 C137_13 1_555 1_555
H92_13 C138_13 1_555 1_555
C148_13 C93_13 1_555 1_555
C149_13 C94_13 1_555 1_555
H102_13 C148_13 1_555 1_555
H103_13 C149_13 1_555 1_555
H113_13 C148_13 1_555 1_555
H114_13 C149_13 1_555 1_555
C159_13 C148_13 1_555 1_555
C160_13 C149_13 1_555 1_555
H124_13 C159_13 1_555 1_555
H125_13 C160_13 1_555 1_555
H135_13 C159_13 1_555 1_555
H136_13 C160_13 1_555 1_555
H146_13 C159_13 1_555 1_555
H147_13 C160_13 1_555 1_555
C6_13 C7_13 1_555 1_555
C9_13 C10_13 1_555 1_555
C60_13 C104_13 1_555 1_555
C71_13 C82_13 1_555 1_555
C72_13 C83_13 1_555 1_555
C93_13 C115_13 1_555 1_555
C104_13 C116_13 1_555 1_555
C105_13 C115_13 1_555 1_555
C105_13 C116_13 1_555 1_555
O11_2 C1_14 1_555 1_555
C1_14 C2_14 1_555 1_555
C2_14 C3_14 1_555 1_555
C3_14 H1_14 1_555 1_555
C4_14 C3_14 1_555 1_555
C5_14 C4_14 1_555 1_555
C6_14 C5_14 1_555 1_555
H2_14 C6_14 1_555 1_555
C7_14 C2_14 1_555 1_555
H3_14 C7_14 1_555 1_555
C8_14 C4_14 1_555 1_555
C9_14 C5_14 1_555 1_555
C10_14 C8_14 1_555 1_555
C11_14 C8_14 1_555 1_555
H4_14 C11_14 1_555 1_555
H5_14 C11_14 1_555 1_555
C12_14 C11_14 1_555 1_555
H6_14 C12_14 1_555 1_555
H7_14 C12_14 1_555 1_555
H8_14 C12_14 1_555 1_555
C13_14 C8_14 1_555 1_555
H9_14 C13_14 1_555 1_555
H10_14 C13_14 1_555 1_555
C14_14 C13_14 1_555 1_555
H11_14 C14_14 1_555 1_555
H12_14 C14_14 1_555 1_555
H13_14 C14_14 1_555 1_555
Cd14_10 O9_8 1_555 1_555
Cd11_8 O9_8 1_555 1_555
O9_8 C17_14 1_555 1_555
O6 C18_14 1_555 1_555
O28_2 C1_14 1_555 1_555
O23_8 Cd11_8 1_555 1_555
C17_14 O23_8 1_555 1_555
C18_14 O21 1_555 1_555
C27_14 C17_14 1_555 1_555
C28_14 C18_14 1_555 1_555
C38_14 C27_14 1_555 1_555
C39_14 C28_14 1_555 1_555
H14_14 C38_14 1_555 1_555
H15_14 C39_14 1_555 1_555
C49_14 C38_14 1_555 1_555
C50_14 C39_14 1_555 1_555
C60_14 C50_14 1_555 1_555
C61_14 C49_14 1_555 1_555
C71_14 C60_14 1_555 1_555
C72_14 C61_14 1_555 1_555
H25_14 C71_14 1_555 1_555
H26_14 C72_14 1_555 1_555
C82_14 C28_14 1_555 1_555
C83_14 C27_14 1_555 1_555
H36_14 C82_14 1_555 1_555
H37_14 C83_14 1_555 1_555
C93_14 C49_14 1_555 1_555
C94_14 C50_14 1_555 1_555
C104_14 C10_14 1_555 1_555
C105_14 C61_14 1_555 1_555
C115_14 C9_14 1_555 1_555
C116_14 C94_14 1_555 1_555
C126_14 C93_14 1_555 1_555
C127_14 C94_14 1_555 1_555
H47_14 C126_14 1_555 1_555
H48_14 C127_14 1_555 1_555
H58_14 C126_14 1_555 1_555
H59_14 C127_14 1_555 1_555
C137_14 C126_14 1_555 1_555
C138_14 C127_14 1_555 1_555
H69_14 C137_14 1_555 1_555
H70_14 C138_14 1_555 1_555
H80_14 C137_14 1_555 1_555
H81_14 C138_14 1_555 1_555
H91_14 C137_14 1_555 1_555
H92_14 C138_14 1_555 1_555
C148_14 C93_14 1_555 1_555
C149_14 C94_14 1_555 1_555
H102_14 C148_14 1_555 1_555
H103_14 C149_14 1_555 1_555
H113_14 C148_14 1_555 1_555
H114_14 C149_14 1_555 1_555
C159_14 C148_14 1_555 1_555
C160_14 C149_14 1_555 1_555
H124_14 C159_14 1_555 1_555
H125_14 C160_14 1_555 1_555
H135_14 C159_14 1_555 1_555
H136_14 C160_14 1_555 1_555
H146_14 C159_14 1_555 1_555
H147_14 C160_14 1_555 1_555
C6_14 C7_14 1_555 1_555
C9_14 C10_14 1_555 1_555
C60_14 C104_14 1_555 1_555
C71_14 C82_14 1_555 1_555
C72_14 C83_14 1_555 1_555
C93_14 C115_14 1_555 1_555
C104_14 C116_14 1_555 1_555
C105_14 C115_14 1_555 1_555
C105_14 C116_14 1_555 1_555
O4_32 Cd14_12 1_555 1_555
O5_32 Cd14_12 1_555 1_555
C15_32 O5_32 1_555 1_555
Cd12_5 O4_32 1_555 1_555
Cd11_5 O4_32 1_555 1_555
O7_19 Cd14_12 1_555 1_555
O25_19 Cd15_10 1_555 1_555
O36_32 Cd15_10 1_555 1_555
O37_32 Cd12_5 1_555 1_555
O38_32 Cd11_5 1_555 1_555
C170_32 O36_32 1_555 1_555
C171_32 O38_32 1_555 1_555
C172_32 O37_32 1_555 1_555
O4_32 Cd15_10 1_555 1_555
Cd15_10 O7_19 1_555 1_555
C171_32 H157_22 1_555 1_555
C171_32 H158_32 1_555 1_555
C170_32 H160_22 1_555 1_555
C170_32 H161_32 1_555 1_555
C172_32 H166_22 1_555 1_555
C172_32 H167_32 1_555 1_555
C15_32 H172_22 1_555 1_555
C15_32 H173_32 1_555 1_555
Cd14_13 O2_9 1_555 1_555
O2_9 C1_15 1_555 1_555
O4_33 Cd14_13 1_555 1_555
O5_33 Cd14_13 1_555 1_555
C1_15 C2_15 1_555 1_555
C2_15 C3_15 1_555 1_555
C3_15 H1_15 1_555 1_555
C4_15 C3_15 1_555 1_555
C5_15 C4_15 1_555 1_555
C6_15 C5_15 1_555 1_555
H2_15 C6_15 1_555 1_555
C7_15 C2_15 1_555 1_555
H3_15 C7_15 1_555 1_555
C8_15 C4_15 1_555 1_555
C9_15 C5_15 1_555 1_555
C10_15 C8_15 1_555 1_555
C11_15 C8_15 1_555 1_555
H4_15 C11_15 1_555 1_555
H5_15 C11_15 1_555 1_555
C12_15 C11_15 1_555 1_555
H6_15 C12_15 1_555 1_555
H7_15 C12_15 1_555 1_555
H8_15 C12_15 1_555 1_555
C13_15 C8_15 1_555 1_555
H9_15 C13_15 1_555 1_555
H10_15 C13_15 1_555 1_555
C14_15 C13_15 1_555 1_555
H11_15 C14_15 1_555 1_555
H12_15 C14_15 1_555 1_555
H13_15 C14_15 1_555 1_555
C15_33 O5_33 1_555 1_555
Cd15_11 O2_9 1_555 1_555
Cd12_6 O4_33 1_555 1_555
Cd11_6 O4_33 1_555 1_555
O6_22 Cd14_13 1_555 1_555
O14_12 C17_15 1_555 1_555
O11_13 C18_15 1_555 1_555
O11_22 Cd15_11 1_555 1_555
O14_22 Cd12_6 1_555 1_555
O21_22 Cd14_13 1_555 1_555
O22_9 C1_15 1_555 1_555
O27_22 Cd12_6 1_555 1_555
O28_22 Cd11_6 1_555 1_555
O36_33 Cd15_11 1_555 1_555
O37_33 Cd12_6 1_555 1_555
O38_33 Cd11_6 1_555 1_555
C17_15 O27_12 1_555 1_555
C18_15 O28_13 1_555 1_555
C27_15 C17_15 1_555 1_555
C28_15 C18_15 1_555 1_555
C38_15 C27_15 1_555 1_555
C39_15 C28_15 1_555 1_555
H14_15 C38_15 1_555 1_555
H15_15 C39_15 1_555 1_555
C49_15 C38_15 1_555 1_555
C50_15 C39_15 1_555 1_555
C60_15 C50_15 1_555 1_555
C61_15 C49_15 1_555 1_555
C71_15 C60_15 1_555 1_555
C72_15 C61_15 1_555 1_555
H25_15 C71_15 1_555 1_555
H26_15 C72_15 1_555 1_555
C82_15 C28_15 1_555 1_555
C83_15 C27_15 1_555 1_555
H36_15 C82_15 1_555 1_555
H37_15 C83_15 1_555 1_555
C93_15 C49_15 1_555 1_555
C94_15 C50_15 1_555 1_555
C104_15 C10_15 1_555 1_555
C105_15 C61_15 1_555 1_555
C115_15 C9_15 1_555 1_555
C116_15 C94_15 1_555 1_555
C126_15 C93_15 1_555 1_555
C127_15 C94_15 1_555 1_555
H47_15 C126_15 1_555 1_555
H48_15 C127_15 1_555 1_555
H58_15 C126_15 1_555 1_555
H59_15 C127_15 1_555 1_555
C137_15 C126_15 1_555 1_555
C138_15 C127_15 1_555 1_555
H69_15 C137_15 1_555 1_555
H70_15 C138_15 1_555 1_555
H80_15 C137_15 1_555 1_555
H81_15 C138_15 1_555 1_555
H91_15 C137_15 1_555 1_555
H92_15 C138_15 1_555 1_555
C148_15 C93_15 1_555 1_555
C149_15 C94_15 1_555 1_555
H102_15 C148_15 1_555 1_555
H103_15 C149_15 1_555 1_555
H113_15 C148_15 1_555 1_555
H114_15 C149_15 1_555 1_555
C159_15 C148_15 1_555 1_555
C160_15 C149_15 1_555 1_555
H124_15 C159_15 1_555 1_555
H125_15 C160_15 1_555 1_555
H135_15 C159_15 1_555 1_555
H136_15 C160_15 1_555 1_555
H146_15 C159_15 1_555 1_555
H147_15 C160_15 1_555 1_555
C170_33 O36_33 1_555 1_555
C171_33 O38_33 1_555 1_555
C172_33 O37_33 1_555 1_555
O4_33 Cd15_11 1_555 1_555
C6_15 C7_15 1_555 1_555
C9_15 C10_15 1_555 1_555
Cd15_11 O22_9 1_555 1_555
Cd12_6 O6_22 1_555 1_555
Cd11_6 O11_22 1_555 1_555
Cd11_6 O14_22 1_555 1_555
C60_15 C104_15 1_555 1_555
C71_15 C82_15 1_555 1_555
C72_15 C83_15 1_555 1_555
C93_15 C115_15 1_555 1_555
C104_15 C116_15 1_555 1_555
C105_15 C115_15 1_555 1_555
C105_15 C116_15 1_555 1_555
C171_33 H158_33 1_555 1_555
C171_33 H159_22 1_555 1_555
C170_33 H161_33 1_555 1_555
C170_33 H162_22 1_555 1_555
C172_33 H167_33 1_555 1_555
C172_33 H168_22 1_555 1_555
C15_33 H173_33 1_555 1_555
C15_33 H174_22 1_555 1_555
O14_14 C1_16 1_555 1_555
C1_16 C2_16 1_555 1_555
C2_16 C3_16 1_555 1_555
C3_16 H1_16 1_555 1_555
C4_16 C3_16 1_555 1_555
C5_16 C4_16 1_555 1_555
C6_16 C5_16 1_555 1_555
H2_16 C6_16 1_555 1_555
C7_16 C2_16 1_555 1_555
H3_16 C7_16 1_555 1_555
C8_16 C4_16 1_555 1_555
C9_16 C5_16 1_555 1_555
C10_16 C8_16 1_555 1_555
C11_16 C8_16 1_555 1_555
H4_16 C11_16 1_555 1_555
H5_16 C11_16 1_555 1_555
C12_16 C11_16 1_555 1_555
H6_16 C12_16 1_555 1_555
H7_16 C12_16 1_555 1_555
H8_16 C12_16 1_555 1_555
C13_16 C8_16 1_555 1_555
H9_16 C13_16 1_555 1_555
H10_16 C13_16 1_555 1_555
C14_16 C13_16 1_555 1_555
H11_16 C14_16 1_555 1_555
H12_16 C14_16 1_555 1_555
H13_16 C14_16 1_555 1_555
Cd10_7 O10_7 1_555 1_555
Cd15_15 O10_7 1_555 1_555
O14_11 C17_16 1_555 1_555
O10_7 C18_16 1_555 1_555
O27_14 C1_16 1_555 1_555
O24_7 Cd15_15 1_555 1_555
C17_16 O27_11 1_555 1_555
C18_16 O24_7 1_555 1_555
C27_16 C17_16 1_555 1_555
C28_16 C18_16 1_555 1_555
C38_16 C27_16 1_555 1_555
C39_16 C28_16 1_555 1_555
H14_16 C38_16 1_555 1_555
H15_16 C39_16 1_555 1_555
C49_16 C38_16 1_555 1_555
C50_16 C39_16 1_555 1_555
C60_16 C50_16 1_555 1_555
C61_16 C49_16 1_555 1_555
C71_16 C60_16 1_555 1_555
C72_16 C61_16 1_555 1_555
H25_16 C71_16 1_555 1_555
H26_16 C72_16 1_555 1_555
C82_16 C28_16 1_555 1_555
C83_16 C27_16 1_555 1_555
H36_16 C82_16 1_555 1_555
H37_16 C83_16 1_555 1_555
C93_16 C49_16 1_555 1_555
C94_16 C50_16 1_555 1_555
C104_16 C10_16 1_555 1_555
C105_16 C61_16 1_555 1_555
C115_16 C9_16 1_555 1_555
C116_16 C94_16 1_555 1_555
C126_16 C93_16 1_555 1_555
C127_16 C94_16 1_555 1_555
H47_16 C126_16 1_555 1_555
H48_16 C127_16 1_555 1_555
H58_16 C126_16 1_555 1_555
H59_16 C127_16 1_555 1_555
C137_16 C126_16 1_555 1_555
C138_16 C127_16 1_555 1_555
H69_16 C137_16 1_555 1_555
H70_16 C138_16 1_555 1_555
H80_16 C137_16 1_555 1_555
H81_16 C138_16 1_555 1_555
H91_16 C137_16 1_555 1_555
H92_16 C138_16 1_555 1_555
C148_16 C93_16 1_555 1_555
C149_16 C94_16 1_555 1_555
H102_16 C148_16 1_555 1_555
H103_16 C149_16 1_555 1_555
H113_16 C148_16 1_555 1_555
H114_16 C149_16 1_555 1_555
C159_16 C148_16 1_555 1_555
C160_16 C149_16 1_555 1_555
H124_16 C159_16 1_555 1_555
H125_16 C160_16 1_555 1_555
H135_16 C159_16 1_555 1_555
H136_16 C160_16 1_555 1_555
H146_16 C159_16 1_555 1_555
H147_16 C160_16 1_555 1_555
C6_16 C7_16 1_555 1_555
C9_16 C10_16 1_555 1_555
C60_16 C104_16 1_555 1_555
C71_16 C82_16 1_555 1_555
C72_16 C83_16 1_555 1_555
C93_16 C115_16 1_555 1_555
C104_16 C116_16 1_555 1_555
C105_16 C115_16 1_555 1_555
C105_16 C116_16 1_555 1_555
O4_34 Cd10_6 1_555 1_555
O5_34 Cd10_6 1_555 1_555
C15_34 O5_34 1_555 1_555
Cd14_5 O4_34 1_555 1_555
Cd13_5 O4_34 1_555 1_555
O7_20 Cd10_6 1_555 1_555
O25_20 Cd15_14 1_555 1_555
O36_34 Cd15_14 1_555 1_555
O37_34 Cd14_5 1_555 1_555
O38_34 Cd13_5 1_555 1_555
C170_34 O36_34 1_555 1_555
C171_34 O38_34 1_555 1_555
C172_34 O37_34 1_555 1_555
O4_34 Cd15_14 1_555 1_555
Cd15_14 O7_20 1_555 1_555
C171_34 H157_23 1_555 1_555
C171_34 H158_34 1_555 1_555
C170_34 H160_23 1_555 1_555
C170_34 H161_34 1_555 1_555
C172_34 H166_23 1_555 1_555
C172_34 H167_34 1_555 1_555
C15_34 H172_23 1_555 1_555
C15_34 H173_34 1_555 1_555
O4_35 Cd10_7 1_555 1_555
O5_35 Cd10_7 1_555 1_555
C15_35 O5_35 1_555 1_555
Cd14_6 O4_35 1_555 1_555
Cd13_6 O4_35 1_555 1_555
O6_23 Cd10_7 1_555 1_555
O11_23 Cd15_15 1_555 1_555
O14_23 Cd14_6 1_555 1_555
O21_23 Cd10_7 1_555 1_555
O27_23 Cd14_6 1_555 1_555
O28_23 Cd13_6 1_555 1_555
O36_35 Cd15_15 1_555 1_555
O37_35 Cd14_6 1_555 1_555
O38_35 Cd13_6 1_555 1_555
C170_35 O36_35 1_555 1_555
C171_35 O38_35 1_555 1_555
C172_35 O37_35 1_555 1_555
O4_35 Cd15_15 1_555 1_555
Cd14_6 O6_23 1_555 1_555
Cd13_6 O11_23 1_555 1_555
Cd13_6 O14_23 1_555 1_555
C171_35 H158_35 1_555 1_555
C171_35 H159_23 1_555 1_555
C170_35 H161_35 1_555 1_555
C170_35 H162_23 1_555 1_555
C172_35 H167_35 1_555 1_555
C172_35 H168_23 1_555 1_555
C15_35 H173_35 1_555 1_555
C15_35 H174_23 1_555 1_555
O4_36 Cd14_10 1_555 1_555
O5_36 Cd14_10 1_555 1_555
C15_36 O5_36 1_555 1_555
Cd13_9 O4_36 1_555 1_555
Cd12_7 O4_36 1_555 1_555
O6_24 Cd14_10 1_555 1_555
O7_21 Cd14_10 1_555 1_555
O11_24 Cd11_8 1_555 1_555
O14_24 Cd13_9 1_555 1_555
O21_24 Cd14_10 1_555 1_555
O25_21 Cd11_8 1_555 1_555
O27_24 Cd13_9 1_555 1_555
O28_24 Cd12_7 1_555 1_555
O36_36 Cd11_8 1_555 1_555
O37_36 Cd13_9 1_555 1_555
O38_36 Cd12_7 1_555 1_555
C170_36 O36_36 1_555 1_555
C171_36 O38_36 1_555 1_555
C172_36 O37_36 1_555 1_555
O4_36 Cd11_8 1_555 1_555
Cd11_8 O7_21 1_555 1_555
Cd13_9 O6_24 1_555 1_555
Cd12_7 O11_24 1_555 1_555
Cd12_7 O14_24 1_555 1_555
C171_36 H157_24 1_555 1_555
C171_36 H158_36 1_555 1_555
C171_36 H159_24 1_555 1_555
C170_36 H160_24 1_555 1_555
C170_36 H161_36 1_555 1_555
C170_36 H162_24 1_555 1_555
C172_36 H166_24 1_555 1_555
C172_36 H167_36 1_555 1_555
C172_36 H168_24 1_555 1_555
C15_36 H172_24 1_555 1_555
C15_36 H173_36 1_555 1_555
C15_36 H174_24 1_555 1_555
O7_16 C20_11 1_555 1_555
O7_18 C21_11 1_555 1_555
C19_11 O7_17 1_555 1_555
C20_11 O25_16 1_555 1_555
C21_11 O25_18 1_555 1_555
C29_11 C19_11 1_555 1_555
C30_11 C20_11 1_555 1_555
C31_11 C21_11 1_555 1_555
C40_11 C29_11 1_555 1_555
C41_11 C30_11 1_555 1_555
C42_11 C31_11 1_555 1_555
H16_11 C40_11 1_555 1_555
H17_11 C41_11 1_555 1_555
H18_11 C42_11 1_555 1_555
C51_11 C40_11 1_555 1_555
C52_11 C41_11 1_555 1_555
C53_11 C42_11 1_555 1_555
C62_11 C51_11 1_555 1_555
C63_11 C53_11 1_555 1_555
C64_11 C52_11 1_555 1_555
C73_11 C62_11 1_555 1_555
C74_11 C63_11 1_555 1_555
C75_11 C64_11 1_555 1_555
H27_11 C73_11 1_555 1_555
H28_11 C74_11 1_555 1_555
H29_11 C75_11 1_555 1_555
C84_11 C29_11 1_555 1_555
C85_11 C31_11 1_555 1_555
C86_11 C30_11 1_555 1_555
H38_11 C84_11 1_555 1_555
H39_11 C85_11 1_555 1_555
H40_11 C86_11 1_555 1_555
C95_11 C51_11 1_555 1_555
C96_11 C52_11 1_555 1_555
C97_11 C53_11 1_555 1_555
C106_11 C62_11 1_555 1_555
C107_11 C63_11 1_555 1_555
C108_11 C64_11 1_555 1_555
C117_11 C95_11 1_555 1_555
C118_11 C96_11 1_555 1_555
C119_11 C97_11 1_555 1_555
C128_11 C95_11 1_555 1_555
C129_11 C96_11 1_555 1_555
C130_11 C97_11 1_555 1_555
H49_11 C128_11 1_555 1_555
H50_11 C129_11 1_555 1_555
H51_11 C130_11 1_555 1_555
H60_11 C128_11 1_555 1_555
H61_11 C129_11 1_555 1_555
H62_11 C130_11 1_555 1_555
C139_11 C128_11 1_555 1_555
C140_11 C129_11 1_555 1_555
C141_11 C130_11 1_555 1_555
H71_11 C139_11 1_555 1_555
H72_11 C140_11 1_555 1_555
H73_11 C141_11 1_555 1_555
H82_11 C139_11 1_555 1_555
H83_11 C140_11 1_555 1_555
H84_11 C141_11 1_555 1_555
H93_11 C139_11 1_555 1_555
H94_11 C140_11 1_555 1_555
H95_11 C141_11 1_555 1_555
C150_11 C95_11 1_555 1_555
C151_11 C96_11 1_555 1_555
C152_11 C97_11 1_555 1_555
H104_11 C150_11 1_555 1_555
H105_11 C151_11 1_555 1_555
H106_11 C152_11 1_555 1_555
H115_11 C150_11 1_555 1_555
H116_11 C151_11 1_555 1_555
H117_11 C152_11 1_555 1_555
C161_11 C150_11 1_555 1_555
C162_11 C151_11 1_555 1_555
C163_11 C152_11 1_555 1_555
H126_11 C161_11 1_555 1_555
H127_11 C162_11 1_555 1_555
H128_11 C163_11 1_555 1_555
H137_11 C161_11 1_555 1_555
H138_11 C162_11 1_555 1_555
H139_11 C163_11 1_555 1_555
H148_11 C161_11 1_555 1_555
H149_11 C162_11 1_555 1_555
H150_11 C163_11 1_555 1_555
O25_17 C19_11 1_555 1_555
C73_11 C84_11 1_555 1_555
C74_11 C85_11 1_555 1_555
C75_11 C86_11 1_555 1_555
C106_11 C117_11 1_555 1_555
C106_11 C118_11 1_555 1_555
C107_11 C117_11 1_555 1_555
C107_11 C119_11 1_555 1_555
C108_11 C118_11 1_555 1_555
C108_11 C119_11 1_555 1_555
O6_20 C1_17 1_555 1_555
C1_17 C2_17 1_555 1_555
C2_17 C3_17 1_555 1_555
C3_17 H1_17 1_555 1_555
C4_17 C3_17 1_555 1_555
C5_17 C4_17 1_555 1_555
C6_17 C5_17 1_555 1_555
H2_17 C6_17 1_555 1_555
C7_17 C2_17 1_555 1_555
H3_17 C7_17 1_555 1_555
C8_17 C4_17 1_555 1_555
C9_17 C5_17 1_555 1_555
C10_17 C8_17 1_555 1_555
C11_17 C8_17 1_555 1_555
H4_17 C11_17 1_555 1_555
H5_17 C11_17 1_555 1_555
C12_17 C11_17 1_555 1_555
H6_17 C12_17 1_555 1_555
H7_17 C12_17 1_555 1_555
H8_17 C12_17 1_555 1_555
C13_17 C8_17 1_555 1_555
H9_17 C13_17 1_555 1_555
H10_17 C13_17 1_555 1_555
C14_17 C13_17 1_555 1_555
H11_17 C14_17 1_555 1_555
H12_17 C14_17 1_555 1_555
H13_17 C14_17 1_555 1_555
O6_18 C17_17 1_555 1_555
O11_15 C18_17 1_555 1_555
O21_20 C1_17 1_555 1_555
C17_17 O21_18 1_555 1_555
C18_17 O28_15 1_555 1_555
C27_17 C17_17 1_555 1_555
C28_17 C18_17 1_555 1_555
C38_17 C27_17 1_555 1_555
C39_17 C28_17 1_555 1_555
H14_17 C38_17 1_555 1_555
H15_17 C39_17 1_555 1_555
C49_17 C38_17 1_555 1_555
C50_17 C39_17 1_555 1_555
C60_17 C50_17 1_555 1_555
C61_17 C49_17 1_555 1_555
C71_17 C60_17 1_555 1_555
C72_17 C61_17 1_555 1_555
H25_17 C71_17 1_555 1_555
H26_17 C72_17 1_555 1_555
C82_17 C28_17 1_555 1_555
C83_17 C27_17 1_555 1_555
H36_17 C82_17 1_555 1_555
H37_17 C83_17 1_555 1_555
C93_17 C49_17 1_555 1_555
C94_17 C50_17 1_555 1_555
C104_17 C10_17 1_555 1_555
C105_17 C61_17 1_555 1_555
C115_17 C9_17 1_555 1_555
C116_17 C94_17 1_555 1_555
C126_17 C93_17 1_555 1_555
C127_17 C94_17 1_555 1_555
H47_17 C126_17 1_555 1_555
H48_17 C127_17 1_555 1_555
H58_17 C126_17 1_555 1_555
H59_17 C127_17 1_555 1_555
C137_17 C126_17 1_555 1_555
C138_17 C127_17 1_555 1_555
H69_17 C137_17 1_555 1_555
H70_17 C138_17 1_555 1_555
H80_17 C137_17 1_555 1_555
H81_17 C138_17 1_555 1_555
H91_17 C137_17 1_555 1_555
H92_17 C138_17 1_555 1_555
C148_17 C93_17 1_555 1_555
C149_17 C94_17 1_555 1_555
H102_17 C148_17 1_555 1_555
H103_17 C149_17 1_555 1_555
H113_17 C148_17 1_555 1_555
H114_17 C149_17 1_555 1_555
C159_17 C148_17 1_555 1_555
C160_17 C149_17 1_555 1_555
H124_17 C159_17 1_555 1_555
H125_17 C160_17 1_555 1_555
H135_17 C159_17 1_555 1_555
H136_17 C160_17 1_555 1_555
H146_17 C159_17 1_555 1_555
H147_17 C160_17 1_555 1_555
C6_17 C7_17 1_555 1_555
C9_17 C10_17 1_555 1_555
C60_17 C104_17 1_555 1_555
C71_17 C82_17 1_555 1_555
C72_17 C83_17 1_555 1_555
C93_17 C115_17 1_555 1_555
C104_17 C116_17 1_555 1_555
C105_17 C115_17 1_555 1_555
C105_17 C116_17 1_555 1_555
O7_19 C22_11 1_555 1_555
O7_21 C23_11 1_555 1_555
C16_11 O25_20 1_555 1_555
C22_11 O25_19 1_555 1_555
C23_11 O25_21 1_555 1_555
C32_11 C16_11 1_555 1_555
C33_11 C22_11 1_555 1_555
C34_11 C23_11 1_555 1_555
C43_11 C32_11 1_555 1_555
C44_11 C33_11 1_555 1_555
C45_11 C34_11 1_555 1_555
H19_11 C43_11 1_555 1_555
H20_11 C44_11 1_555 1_555
H21_11 C45_11 1_555 1_555
C54_11 C43_11 1_555 1_555
C55_11 C44_11 1_555 1_555
C56_11 C45_11 1_555 1_555
C65_11 C54_11 1_555 1_555
C66_11 C56_11 1_555 1_555
C67_11 C55_11 1_555 1_555
C76_11 C65_11 1_555 1_555
C77_11 C66_11 1_555 1_555
C78_11 C67_11 1_555 1_555
H30_11 C76_11 1_555 1_555
H31_11 C77_11 1_555 1_555
H32_11 C78_11 1_555 1_555
C87_11 C32_11 1_555 1_555
C88_11 C34_11 1_555 1_555
C89_11 C33_11 1_555 1_555
H41_11 C87_11 1_555 1_555
H42_11 C88_11 1_555 1_555
H43_11 C89_11 1_555 1_555
C98_11 C54_11 1_555 1_555
C99_11 C55_11 1_555 1_555
C100_11 C56_11 1_555 1_555
C109_11 C65_11 1_555 1_555
C110_11 C66_11 1_555 1_555
C111_11 C67_11 1_555 1_555
C120_11 C98_11 1_555 1_555
C121_11 C99_11 1_555 1_555
C122_11 C100_11 1_555 1_555
C131_11 C98_11 1_555 1_555
C132_11 C99_11 1_555 1_555
C133_11 C100_11 1_555 1_555
H52_11 C131_11 1_555 1_555
H53_11 C132_11 1_555 1_555
H54_11 C133_11 1_555 1_555
H63_11 C131_11 1_555 1_555
H64_11 C132_11 1_555 1_555
H65_11 C133_11 1_555 1_555
C142_11 C131_11 1_555 1_555
C143_11 C132_11 1_555 1_555
C144_11 C133_11 1_555 1_555
H74_11 C142_11 1_555 1_555
H75_11 C143_11 1_555 1_555
H76_11 C144_11 1_555 1_555
H85_11 C142_11 1_555 1_555
H86_11 C143_11 1_555 1_555
H87_11 C144_11 1_555 1_555
H96_11 C142_11 1_555 1_555
H97_11 C143_11 1_555 1_555
H98_11 C144_11 1_555 1_555
C153_11 C98_11 1_555 1_555
C154_11 C99_11 1_555 1_555
C155_11 C100_11 1_555 1_555
H107_11 C153_11 1_555 1_555
H108_11 C154_11 1_555 1_555
H109_11 C155_11 1_555 1_555
H118_11 C153_11 1_555 1_555
H119_11 C154_11 1_555 1_555
H120_11 C155_11 1_555 1_555
C164_11 C153_11 1_555 1_555
C165_11 C154_11 1_555 1_555
C166_11 C155_11 1_555 1_555
H129_11 C164_11 1_555 1_555
H130_11 C165_11 1_555 1_555
H131_11 C166_11 1_555 1_555
H140_11 C164_11 1_555 1_555
H141_11 C165_11 1_555 1_555
H142_11 C166_11 1_555 1_555
H151_11 C164_11 1_555 1_555
H152_11 C165_11 1_555 1_555
H153_11 C166_11 1_555 1_555
O7_20 C16_11 1_555 1_555
C76_11 C87_11 1_555 1_555
C77_11 C88_11 1_555 1_555
C78_11 C89_11 1_555 1_555
C109_11 C120_11 1_555 1_555
C109_11 C121_11 1_555 1_555
C110_11 C120_11 1_555 1_555
C110_11 C122_11 1_555 1_555
C111_11 C121_11 1_555 1_555
C111_11 C122_11 1_555 1_555
O11_23 C1_18 1_555 1_555
C1_18 C2_18 1_555 1_555
C2_18 C3_18 1_555 1_555
C3_18 H1_18 1_555 1_555
C4_18 C3_18 1_555 1_555
C5_18 C4_18 1_555 1_555
C6_18 C5_18 1_555 1_555
H2_18 C6_18 1_555 1_555
C7_18 C2_18 1_555 1_555
H3_18 C7_18 1_555 1_555
C8_18 C4_18 1_555 1_555
C9_18 C5_18 1_555 1_555
C10_18 C8_18 1_555 1_555
C11_18 C8_18 1_555 1_555
H4_18 C11_18 1_555 1_555
H5_18 C11_18 1_555 1_555
C12_18 C11_18 1_555 1_555
H6_18 C12_18 1_555 1_555
H7_18 C12_18 1_555 1_555
H8_18 C12_18 1_555 1_555
C13_18 C8_18 1_555 1_555
H9_18 C13_18 1_555 1_555
H10_18 C13_18 1_555 1_555
C14_18 C13_18 1_555 1_555
H11_18 C14_18 1_555 1_555
H12_18 C14_18 1_555 1_555
H13_18 C14_18 1_555 1_555
O6_17 C17_18 1_555 1_555
O11_14 C18_18 1_555 1_555
O28_23 C1_18 1_555 1_555
C17_18 O21_17 1_555 1_555
C18_18 O28_14 1_555 1_555
C27_18 C17_18 1_555 1_555
C28_18 C18_18 1_555 1_555
C38_18 C27_18 1_555 1_555
C39_18 C28_18 1_555 1_555
H14_18 C38_18 1_555 1_555
H15_18 C39_18 1_555 1_555
C49_18 C38_18 1_555 1_555
C50_18 C39_18 1_555 1_555
C60_18 C50_18 1_555 1_555
C61_18 C49_18 1_555 1_555
C71_18 C60_18 1_555 1_555
C72_18 C61_18 1_555 1_555
H25_18 C71_18 1_555 1_555
H26_18 C72_18 1_555 1_555
C82_18 C28_18 1_555 1_555
C83_18 C27_18 1_555 1_555
H36_18 C82_18 1_555 1_555
H37_18 C83_18 1_555 1_555
C93_18 C49_18 1_555 1_555
C94_18 C50_18 1_555 1_555
C104_18 C10_18 1_555 1_555
C105_18 C61_18 1_555 1_555
C115_18 C9_18 1_555 1_555
C116_18 C94_18 1_555 1_555
C126_18 C93_18 1_555 1_555
C127_18 C94_18 1_555 1_555
H47_18 C126_18 1_555 1_555
H48_18 C127_18 1_555 1_555
H58_18 C126_18 1_555 1_555
H59_18 C127_18 1_555 1_555
C137_18 C126_18 1_555 1_555
C138_18 C127_18 1_555 1_555
H69_18 C137_18 1_555 1_555
H70_18 C138_18 1_555 1_555
H80_18 C137_18 1_555 1_555
H81_18 C138_18 1_555 1_555
H91_18 C137_18 1_555 1_555
H92_18 C138_18 1_555 1_555
C148_18 C93_18 1_555 1_555
C149_18 C94_18 1_555 1_555
H102_18 C148_18 1_555 1_555
H103_18 C149_18 1_555 1_555
H113_18 C148_18 1_555 1_555
H114_18 C149_18 1_555 1_555
C159_18 C148_18 1_555 1_555
C160_18 C149_18 1_555 1_555
H124_18 C159_18 1_555 1_555
H125_18 C160_18 1_555 1_555
H135_18 C159_18 1_555 1_555
H136_18 C160_18 1_555 1_555
H146_18 C159_18 1_555 1_555
H147_18 C160_18 1_555 1_555
C6_18 C7_18 1_555 1_555
C9_18 C10_18 1_555 1_555
C60_18 C104_18 1_555 1_555
C71_18 C82_18 1_555 1_555
C72_18 C83_18 1_555 1_555
C93_18 C115_18 1_555 1_555
C104_18 C116_18 1_555 1_555
C105_18 C115_18 1_555 1_555
C105_18 C116_18 1_555 1_555
O14_13 C1_19 1_555 1_555
C1_19 C2_19 1_555 1_555
C2_19 C3_19 1_555 1_555
C3_19 H1_19 1_555 1_555
C4_19 C3_19 1_555 1_555
C5_19 C4_19 1_555 1_555
C6_19 C5_19 1_555 1_555
H2_19 C6_19 1_555 1_555
C7_19 C2_19 1_555 1_555
H3_19 C7_19 1_555 1_555
C8_19 C4_19 1_555 1_555
C9_19 C5_19 1_555 1_555
C10_19 C8_19 1_555 1_555
C11_19 C8_19 1_555 1_555
H4_19 C11_19 1_555 1_555
H5_19 C11_19 1_555 1_555
C12_19 C11_19 1_555 1_555
H6_19 C12_19 1_555 1_555
H7_19 C12_19 1_555 1_555
H8_19 C12_19 1_555 1_555
C13_19 C8_19 1_555 1_555
H9_19 C13_19 1_555 1_555
H10_19 C13_19 1_555 1_555
C14_19 C13_19 1_555 1_555
H11_19 C14_19 1_555 1_555
H12_19 C14_19 1_555 1_555
H13_19 C14_19 1_555 1_555
O11_21 C17_19 1_555 1_555
O6_22 C18_19 1_555 1_555
O27_13 C1_19 1_555 1_555
C17_19 O28_21 1_555 1_555
C18_19 O21_22 1_555 1_555
C27_19 C17_19 1_555 1_555
C28_19 C18_19 1_555 1_555
C38_19 C27_19 1_555 1_555
C39_19 C28_19 1_555 1_555
H14_19 C38_19 1_555 1_555
H15_19 C39_19 1_555 1_555
C49_19 C38_19 1_555 1_555
C50_19 C39_19 1_555 1_555
C60_19 C50_19 1_555 1_555
C61_19 C49_19 1_555 1_555
C71_19 C60_19 1_555 1_555
C72_19 C61_19 1_555 1_555
H25_19 C71_19 1_555 1_555
H26_19 C72_19 1_555 1_555
C82_19 C28_19 1_555 1_555
C83_19 C27_19 1_555 1_555
H36_19 C82_19 1_555 1_555
H37_19 C83_19 1_555 1_555
C93_19 C49_19 1_555 1_555
C94_19 C50_19 1_555 1_555
C104_19 C10_19 1_555 1_555
C105_19 C61_19 1_555 1_555
C115_19 C9_19 1_555 1_555
C116_19 C94_19 1_555 1_555
C126_19 C93_19 1_555 1_555
C127_19 C94_19 1_555 1_555
H47_19 C126_19 1_555 1_555
H48_19 C127_19 1_555 1_555
H58_19 C126_19 1_555 1_555
H59_19 C127_19 1_555 1_555
C137_19 C126_19 1_555 1_555
C138_19 C127_19 1_555 1_555
H69_19 C137_19 1_555 1_555
H70_19 C138_19 1_555 1_555
H80_19 C137_19 1_555 1_555
H81_19 C138_19 1_555 1_555
H91_19 C137_19 1_555 1_555
H92_19 C138_19 1_555 1_555
C148_19 C93_19 1_555 1_555
C149_19 C94_19 1_555 1_555
H102_19 C148_19 1_555 1_555
H103_19 C149_19 1_555 1_555
H113_19 C148_19 1_555 1_555
H114_19 C149_19 1_555 1_555
C159_19 C148_19 1_555 1_555
C160_19 C149_19 1_555 1_555
H124_19 C159_19 1_555 1_555
H125_19 C160_19 1_555 1_555
H135_19 C159_19 1_555 1_555
H136_19 C160_19 1_555 1_555
H146_19 C159_19 1_555 1_555
H147_19 C160_19 1_555 1_555
C6_19 C7_19 1_555 1_555
C9_19 C10_19 1_555 1_555
C60_19 C104_19 1_555 1_555
C71_19 C82_19 1_555 1_555
C72_19 C83_19 1_555 1_555
C93_19 C115_19 1_555 1_555
C104_19 C116_19 1_555 1_555
C105_19 C115_19 1_555 1_555
C105_19 C116_19 1_555 1_555
O7_15 C22_12 1_555 1_555
O7_14 C23_12 1_555 1_555
C16_12 O25_13 1_555 1_555
C22_12 O25_15 1_555 1_555
C23_12 O25_14 1_555 1_555
C32_12 C16_12 1_555 1_555
C33_12 C22_12 1_555 1_555
C34_12 C23_12 1_555 1_555
C43_12 C32_12 1_555 1_555
C44_12 C33_12 1_555 1_555
C45_12 C34_12 1_555 1_555
H19_12 C43_12 1_555 1_555
H20_12 C44_12 1_555 1_555
H21_12 C45_12 1_555 1_555
C54_12 C43_12 1_555 1_555
C55_12 C44_12 1_555 1_555
C56_12 C45_12 1_555 1_555
C65_12 C54_12 1_555 1_555
C66_12 C56_12 1_555 1_555
C67_12 C55_12 1_555 1_555
C76_12 C65_12 1_555 1_555
C77_12 C66_12 1_555 1_555
C78_12 C67_12 1_555 1_555
H30_12 C76_12 1_555 1_555
H31_12 C77_12 1_555 1_555
H32_12 C78_12 1_555 1_555
C87_12 C32_12 1_555 1_555
C88_12 C34_12 1_555 1_555
C89_12 C33_12 1_555 1_555
H41_12 C87_12 1_555 1_555
H42_12 C88_12 1_555 1_555
H43_12 C89_12 1_555 1_555
C98_12 C54_12 1_555 1_555
C99_12 C55_12 1_555 1_555
C100_12 C56_12 1_555 1_555
C109_12 C65_12 1_555 1_555
C110_12 C66_12 1_555 1_555
C111_12 C67_12 1_555 1_555
C120_12 C98_12 1_555 1_555
C121_12 C99_12 1_555 1_555
C122_12 C100_12 1_555 1_555
C131_12 C98_12 1_555 1_555
C132_12 C99_12 1_555 1_555
C133_12 C100_12 1_555 1_555
H52_12 C131_12 1_555 1_555
H53_12 C132_12 1_555 1_555
H54_12 C133_12 1_555 1_555
H63_12 C131_12 1_555 1_555
H64_12 C132_12 1_555 1_555
H65_12 C133_12 1_555 1_555
C142_12 C131_12 1_555 1_555
C143_12 C132_12 1_555 1_555
C144_12 C133_12 1_555 1_555
H74_12 C142_12 1_555 1_555
H75_12 C143_12 1_555 1_555
H76_12 C144_12 1_555 1_555
H85_12 C142_12 1_555 1_555
H86_12 C143_12 1_555 1_555
H87_12 C144_12 1_555 1_555
H96_12 C142_12 1_555 1_555
H97_12 C143_12 1_555 1_555
H98_12 C144_12 1_555 1_555
C153_12 C98_12 1_555 1_555
C154_12 C99_12 1_555 1_555
C155_12 C100_12 1_555 1_555
H107_12 C153_12 1_555 1_555
H108_12 C154_12 1_555 1_555
H109_12 C155_12 1_555 1_555
H118_12 C153_12 1_555 1_555
H119_12 C154_12 1_555 1_555
H120_12 C155_12 1_555 1_555
C164_12 C153_12 1_555 1_555
C165_12 C154_12 1_555 1_555
C166_12 C155_12 1_555 1_555
H129_12 C164_12 1_555 1_555
H130_12 C165_12 1_555 1_555
H131_12 C166_12 1_555 1_555
H140_12 C164_12 1_555 1_555
H141_12 C165_12 1_555 1_555
H142_12 C166_12 1_555 1_555
H151_12 C164_12 1_555 1_555
H152_12 C165_12 1_555 1_555
H153_12 C166_12 1_555 1_555
O7_13 C16_12 1_555 1_555
C76_12 C87_12 1_555 1_555
C77_12 C88_12 1_555 1_555
C78_12 C89_12 1_555 1_555
C109_12 C120_12 1_555 1_555
C109_12 C121_12 1_555 1_555
C110_12 C120_12 1_555 1_555
C110_12 C122_12 1_555 1_555
C111_12 C121_12 1_555 1_555
C111_12 C122_12 1_555 1_555
O14_19 C1_20 1_555 1_555
C1_20 C2_20 1_555 1_555
C2_20 C3_20 1_555 1_555
C3_20 H1_20 1_555 1_555
C4_20 C3_20 1_555 1_555
C5_20 C4_20 1_555 1_555
C6_20 C5_20 1_555 1_555
H2_20 C6_20 1_555 1_555
C7_20 C2_20 1_555 1_555
H3_20 C7_20 1_555 1_555
C8_20 C4_20 1_555 1_555
C9_20 C5_20 1_555 1_555
C10_20 C8_20 1_555 1_555
C11_20 C8_20 1_555 1_555
H4_20 C11_20 1_555 1_555
H5_20 C11_20 1_555 1_555
C12_20 C11_20 1_555 1_555
H6_20 C12_20 1_555 1_555
H7_20 C12_20 1_555 1_555
H8_20 C12_20 1_555 1_555
C13_20 C8_20 1_555 1_555
H9_20 C13_20 1_555 1_555
H10_20 C13_20 1_555 1_555
C14_20 C13_20 1_555 1_555
H11_20 C14_20 1_555 1_555
H12_20 C14_20 1_555 1_555
H13_20 C14_20 1_555 1_555
O14_24 C17_20 1_555 1_555
O14_16 C18_20 1_555 1_555
O27_19 C1_20 1_555 1_555
C17_20 O27_24 1_555 1_555
C18_20 O27_16 1_555 1_555
C27_20 C17_20 1_555 1_555
C28_20 C18_20 1_555 1_555
C38_20 C27_20 1_555 1_555
C39_20 C28_20 1_555 1_555
H14_20 C38_20 1_555 1_555
H15_20 C39_20 1_555 1_555
C49_20 C38_20 1_555 1_555
C50_20 C39_20 1_555 1_555
C60_20 C50_20 1_555 1_555
C61_20 C49_20 1_555 1_555
C71_20 C60_20 1_555 1_555
C72_20 C61_20 1_555 1_555
H25_20 C71_20 1_555 1_555
H26_20 C72_20 1_555 1_555
C82_20 C28_20 1_555 1_555
C83_20 C27_20 1_555 1_555
H36_20 C82_20 1_555 1_555
H37_20 C83_20 1_555 1_555
C93_20 C49_20 1_555 1_555
C94_20 C50_20 1_555 1_555
C104_20 C10_20 1_555 1_555
C105_20 C61_20 1_555 1_555
C115_20 C9_20 1_555 1_555
C116_20 C94_20 1_555 1_555
C126_20 C93_20 1_555 1_555
C127_20 C94_20 1_555 1_555
H47_20 C126_20 1_555 1_555
H48_20 C127_20 1_555 1_555
H58_20 C126_20 1_555 1_555
H59_20 C127_20 1_555 1_555
C137_20 C126_20 1_555 1_555
C138_20 C127_20 1_555 1_555
H69_20 C137_20 1_555 1_555
H70_20 C138_20 1_555 1_555
H80_20 C137_20 1_555 1_555
H81_20 C138_20 1_555 1_555
H91_20 C137_20 1_555 1_555
H92_20 C138_20 1_555 1_555
C148_20 C93_20 1_555 1_555
C149_20 C94_20 1_555 1_555
H102_20 C148_20 1_555 1_555
H103_20 C149_20 1_555 1_555
H113_20 C148_20 1_555 1_555
H114_20 C149_20 1_555 1_555
C159_20 C148_20 1_555 1_555
C160_20 C149_20 1_555 1_555
H124_20 C159_20 1_555 1_555
H125_20 C160_20 1_555 1_555
H135_20 C159_20 1_555 1_555
H136_20 C160_20 1_555 1_555
H146_20 C159_20 1_555 1_555
H147_20 C160_20 1_555 1_555
C6_20 C7_20 1_555 1_555
C9_20 C10_20 1_555 1_555
C60_20 C104_20 1_555 1_555
C71_20 C82_20 1_555 1_555
C72_20 C83_20 1_555 1_555
C93_20 C115_20 1_555 1_555
C104_20 C116_20 1_555 1_555
C105_20 C115_20 1_555 1_555
C105_20 C116_20 1_555 1_555
O6_23 C1_21 1_555 1_555
C1_21 C2_21 1_555 1_555
C2_21 C3_21 1_555 1_555
C3_21 H1_21 1_555 1_555
C4_21 C3_21 1_555 1_555
C5_21 C4_21 1_555 1_555
C6_21 C5_21 1_555 1_555
H2_21 C6_21 1_555 1_555
C7_21 C2_21 1_555 1_555
H3_21 C7_21 1_555 1_555
C8_21 C4_21 1_555 1_555
C9_21 C5_21 1_555 1_555
C10_21 C8_21 1_555 1_555
C11_21 C8_21 1_555 1_555
H4_21 C11_21 1_555 1_555
H5_21 C11_21 1_555 1_555
C12_21 C11_21 1_555 1_555
H6_21 C12_21 1_555 1_555
H7_21 C12_21 1_555 1_555
H8_21 C12_21 1_555 1_555
C13_21 C8_21 1_555 1_555
H9_21 C13_21 1_555 1_555
H10_21 C13_21 1_555 1_555
C14_21 C13_21 1_555 1_555
H11_21 C14_21 1_555 1_555
H12_21 C14_21 1_555 1_555
H13_21 C14_21 1_555 1_555
O6_11 C17_21 1_555 1_555
O11_5 C18_21 1_555 1_555
O21_23 C1_21 1_555 1_555
C17_21 O21_11 1_555 1_555
C18_21 O28_5 1_555 1_555
C27_21 C17_21 1_555 1_555
C28_21 C18_21 1_555 1_555
C38_21 C27_21 1_555 1_555
C39_21 C28_21 1_555 1_555
H14_21 C38_21 1_555 1_555
H15_21 C39_21 1_555 1_555
C49_21 C38_21 1_555 1_555
C50_21 C39_21 1_555 1_555
C60_21 C50_21 1_555 1_555
C61_21 C49_21 1_555 1_555
C71_21 C60_21 1_555 1_555
C72_21 C61_21 1_555 1_555
H25_21 C71_21 1_555 1_555
H26_21 C72_21 1_555 1_555
C82_21 C28_21 1_555 1_555
C83_21 C27_21 1_555 1_555
H36_21 C82_21 1_555 1_555
H37_21 C83_21 1_555 1_555
C93_21 C49_21 1_555 1_555
C94_21 C50_21 1_555 1_555
C104_21 C10_21 1_555 1_555
C105_21 C61_21 1_555 1_555
C115_21 C9_21 1_555 1_555
C116_21 C94_21 1_555 1_555
C126_21 C93_21 1_555 1_555
C127_21 C94_21 1_555 1_555
H47_21 C126_21 1_555 1_555
H48_21 C127_21 1_555 1_555
H58_21 C126_21 1_555 1_555
H59_21 C127_21 1_555 1_555
C137_21 C126_21 1_555 1_555
C138_21 C127_21 1_555 1_555
H69_21 C137_21 1_555 1_555
H70_21 C138_21 1_555 1_555
H80_21 C137_21 1_555 1_555
H81_21 C138_21 1_555 1_555
H91_21 C137_21 1_555 1_555
H92_21 C138_21 1_555 1_555
C148_21 C93_21 1_555 1_555
C149_21 C94_21 1_555 1_555
H102_21 C148_21 1_555 1_555
H103_21 C149_21 1_555 1_555
H113_21 C148_21 1_555 1_555
H114_21 C149_21 1_555 1_555
C159_21 C148_21 1_555 1_555
C160_21 C149_21 1_555 1_555
H124_21 C159_21 1_555 1_555
H125_21 C160_21 1_555 1_555
H135_21 C159_21 1_555 1_555
H136_21 C160_21 1_555 1_555
H146_21 C159_21 1_555 1_555
H147_21 C160_21 1_555 1_555
C6_21 C7_21 1_555 1_555
C9_21 C10_21 1_555 1_555
C60_21 C104_21 1_555 1_555
C71_21 C82_21 1_555 1_555
C72_21 C83_21 1_555 1_555
C93_21 C115_21 1_555 1_555
C104_21 C116_21 1_555 1_555
C105_21 C115_21 1_555 1_555
C105_21 C116_21 1_555 1_555
O11_20 C1_22 1_555 1_555
C1_22 C2_22 1_555 1_555
C2_22 C3_22 1_555 1_555
C3_22 H1_22 1_555 1_555
C4_22 C3_22 1_555 1_555
C5_22 C4_22 1_555 1_555
C6_22 C5_22 1_555 1_555
H2_22 C6_22 1_555 1_555
C7_22 C2_22 1_555 1_555
H3_22 C7_22 1_555 1_555
C8_22 C4_22 1_555 1_555
C9_22 C5_22 1_555 1_555
C10_22 C8_22 1_555 1_555
C11_22 C8_22 1_555 1_555
H4_22 C11_22 1_555 1_555
H5_22 C11_22 1_555 1_555
C12_22 C11_22 1_555 1_555
H6_22 C12_22 1_555 1_555
H7_22 C12_22 1_555 1_555
H8_22 C12_22 1_555 1_555
C13_22 C8_22 1_555 1_555
H9_22 C13_22 1_555 1_555
H10_22 C13_22 1_555 1_555
C14_22 C13_22 1_555 1_555
H11_22 C14_22 1_555 1_555
H12_22 C14_22 1_555 1_555
H13_22 C14_22 1_555 1_555
O6_10 C17_22 1_555 1_555
O11_4 C18_22 1_555 1_555
O28_20 C1_22 1_555 1_555
C17_22 O21_10 1_555 1_555
C18_22 O28_4 1_555 1_555
C27_22 C17_22 1_555 1_555
C28_22 C18_22 1_555 1_555
C38_22 C27_22 1_555 1_555
C39_22 C28_22 1_555 1_555
H14_22 C38_22 1_555 1_555
H15_22 C39_22 1_555 1_555
C49_22 C38_22 1_555 1_555
C50_22 C39_22 1_555 1_555
C60_22 C50_22 1_555 1_555
C61_22 C49_22 1_555 1_555
C71_22 C60_22 1_555 1_555
C72_22 C61_22 1_555 1_555
H25_22 C71_22 1_555 1_555
H26_22 C72_22 1_555 1_555
C82_22 C28_22 1_555 1_555
C83_22 C27_22 1_555 1_555
H36_22 C82_22 1_555 1_555
H37_22 C83_22 1_555 1_555
C93_22 C49_22 1_555 1_555
C94_22 C50_22 1_555 1_555
C104_22 C10_22 1_555 1_555
C105_22 C61_22 1_555 1_555
C115_22 C9_22 1_555 1_555
C116_22 C94_22 1_555 1_555
C126_22 C93_22 1_555 1_555
C127_22 C94_22 1_555 1_555
H47_22 C126_22 1_555 1_555
H48_22 C127_22 1_555 1_555
H58_22 C126_22 1_555 1_555
H59_22 C127_22 1_555 1_555
C137_22 C126_22 1_555 1_555
C138_22 C127_22 1_555 1_555
H69_22 C137_22 1_555 1_555
H70_22 C138_22 1_555 1_555
H80_22 C137_22 1_555 1_555
H81_22 C138_22 1_555 1_555
H91_22 C137_22 1_555 1_555
H92_22 C138_22 1_555 1_555
C148_22 C93_22 1_555 1_555
C149_22 C94_22 1_555 1_555
H102_22 C148_22 1_555 1_555
H103_22 C149_22 1_555 1_555
H113_22 C148_22 1_555 1_555
H114_22 C149_22 1_555 1_555
C159_22 C148_22 1_555 1_555
C160_22 C149_22 1_555 1_555
H124_22 C159_22 1_555 1_555
H125_22 C160_22 1_555 1_555
H135_22 C159_22 1_555 1_555
H136_22 C160_22 1_555 1_555
H146_22 C159_22 1_555 1_555
H147_22 C160_22 1_555 1_555
C6_22 C7_22 1_555 1_555
C9_22 C10_22 1_555 1_555
C60_22 C104_22 1_555 1_555
C71_22 C82_22 1_555 1_555
C72_22 C83_22 1_555 1_555
C93_22 C115_22 1_555 1_555
C104_22 C116_22 1_555 1_555
C105_22 C115_22 1_555 1_555
C105_22 C116_22 1_555 1_555
O14 C1_23 1_555 1_555
C1_23 C2_23 1_555 1_555
C2_23 C3_23 1_555 1_555
C3_23 H1_23 1_555 1_555
C4_23 C3_23 1_555 1_555
C5_23 C4_23 1_555 1_555
C6_23 C5_23 1_555 1_555
H2_23 C6_23 1_555 1_555
C7_23 C2_23 1_555 1_555
H3_23 C7_23 1_555 1_555
C8_23 C4_23 1_555 1_555
C9_23 C5_23 1_555 1_555
C10_23 C8_23 1_555 1_555
C11_23 C8_23 1_555 1_555
H4_23 C11_23 1_555 1_555
H5_23 C11_23 1_555 1_555
C12_23 C11_23 1_555 1_555
H6_23 C12_23 1_555 1_555
H7_23 C12_23 1_555 1_555
H8_23 C12_23 1_555 1_555
C13_23 C8_23 1_555 1_555
H9_23 C13_23 1_555 1_555
H10_23 C13_23 1_555 1_555
C14_23 C13_23 1_555 1_555
H11_23 C14_23 1_555 1_555
H12_23 C14_23 1_555 1_555
H13_23 C14_23 1_555 1_555
O11_24 C17_23 1_555 1_555
O6_19 C18_23 1_555 1_555
O27 C1_23 1_555 1_555
C17_23 O28_24 1_555 1_555
C18_23 O21_19 1_555 1_555
C27_23 C17_23 1_555 1_555
C28_23 C18_23 1_555 1_555
C38_23 C27_23 1_555 1_555
C39_23 C28_23 1_555 1_555
H14_23 C38_23 1_555 1_555
H15_23 C39_23 1_555 1_555
C49_23 C38_23 1_555 1_555
C50_23 C39_23 1_555 1_555
C60_23 C50_23 1_555 1_555
C61_23 C49_23 1_555 1_555
C71_23 C60_23 1_555 1_555
C72_23 C61_23 1_555 1_555
H25_23 C71_23 1_555 1_555
H26_23 C72_23 1_555 1_555
C82_23 C28_23 1_555 1_555
C83_23 C27_23 1_555 1_555
H36_23 C82_23 1_555 1_555
H37_23 C83_23 1_555 1_555
C93_23 C49_23 1_555 1_555
C94_23 C50_23 1_555 1_555
C104_23 C10_23 1_555 1_555
C105_23 C61_23 1_555 1_555
C115_23 C9_23 1_555 1_555
C116_23 C94_23 1_555 1_555
C126_23 C93_23 1_555 1_555
C127_23 C94_23 1_555 1_555
H47_23 C126_23 1_555 1_555
H48_23 C127_23 1_555 1_555
H58_23 C126_23 1_555 1_555
H59_23 C127_23 1_555 1_555
C137_23 C126_23 1_555 1_555
C138_23 C127_23 1_555 1_555
H69_23 C137_23 1_555 1_555
H70_23 C138_23 1_555 1_555
H80_23 C137_23 1_555 1_555
H81_23 C138_23 1_555 1_555
H91_23 C137_23 1_555 1_555
H92_23 C138_23 1_555 1_555
C148_23 C93_23 1_555 1_555
C149_23 C94_23 1_555 1_555
H102_23 C148_23 1_555 1_555
H103_23 C149_23 1_555 1_555
H113_23 C148_23 1_555 1_555
H114_23 C149_23 1_555 1_555
C159_23 C148_23 1_555 1_555
C160_23 C149_23 1_555 1_555
H124_23 C159_23 1_555 1_555
H125_23 C160_23 1_555 1_555
H135_23 C159_23 1_555 1_555
H136_23 C160_23 1_555 1_555
H146_23 C159_23 1_555 1_555
H147_23 C160_23 1_555 1_555
C6_23 C7_23 1_555 1_555
C9_23 C10_23 1_555 1_555
C60_23 C104_23 1_555 1_555
C71_23 C82_23 1_555 1_555
C72_23 C83_23 1_555 1_555
C93_23 C115_23 1_555 1_555
C104_23 C116_23 1_555 1_555
C105_23 C115_23 1_555 1_555
C105_23 C116_23 1_555 1_555
O7_10 C22_13 1_555 1_555
O7_8 C23_13 1_555 1_555
C16_13 O25_5 1_555 1_555
C22_13 O25_10 1_555 1_555
C23_13 O25_8 1_555 1_555
C32_13 C16_13 1_555 1_555
C33_13 C22_13 1_555 1_555
C34_13 C23_13 1_555 1_555
C43_13 C32_13 1_555 1_555
C44_13 C33_13 1_555 1_555
C45_13 C34_13 1_555 1_555
H19_13 C43_13 1_555 1_555
H20_13 C44_13 1_555 1_555
H21_13 C45_13 1_555 1_555
C54_13 C43_13 1_555 1_555
C55_13 C44_13 1_555 1_555
C56_13 C45_13 1_555 1_555
C65_13 C54_13 1_555 1_555
C66_13 C56_13 1_555 1_555
C67_13 C55_13 1_555 1_555
C76_13 C65_13 1_555 1_555
C77_13 C66_13 1_555 1_555
C78_13 C67_13 1_555 1_555
H30_13 C76_13 1_555 1_555
H31_13 C77_13 1_555 1_555
H32_13 C78_13 1_555 1_555
C87_13 C32_13 1_555 1_555
C88_13 C34_13 1_555 1_555
C89_13 C33_13 1_555 1_555
H41_13 C87_13 1_555 1_555
H42_13 C88_13 1_555 1_555
H43_13 C89_13 1_555 1_555
C98_13 C54_13 1_555 1_555
C99_13 C55_13 1_555 1_555
C100_13 C56_13 1_555 1_555
C109_13 C65_13 1_555 1_555
C110_13 C66_13 1_555 1_555
C111_13 C67_13 1_555 1_555
C120_13 C98_13 1_555 1_555
C121_13 C99_13 1_555 1_555
C122_13 C100_13 1_555 1_555
C131_13 C98_13 1_555 1_555
C132_13 C99_13 1_555 1_555
C133_13 C100_13 1_555 1_555
H52_13 C131_13 1_555 1_555
H53_13 C132_13 1_555 1_555
H54_13 C133_13 1_555 1_555
H63_13 C131_13 1_555 1_555
H64_13 C132_13 1_555 1_555
H65_13 C133_13 1_555 1_555
C142_13 C131_13 1_555 1_555
C143_13 C132_13 1_555 1_555
C144_13 C133_13 1_555 1_555
H74_13 C142_13 1_555 1_555
H75_13 C143_13 1_555 1_555
H76_13 C144_13 1_555 1_555
H85_13 C142_13 1_555 1_555
H86_13 C143_13 1_555 1_555
H87_13 C144_13 1_555 1_555
H96_13 C142_13 1_555 1_555
H97_13 C143_13 1_555 1_555
H98_13 C144_13 1_555 1_555
C153_13 C98_13 1_555 1_555
C154_13 C99_13 1_555 1_555
C155_13 C100_13 1_555 1_555
H107_13 C153_13 1_555 1_555
H108_13 C154_13 1_555 1_555
H109_13 C155_13 1_555 1_555
H118_13 C153_13 1_555 1_555
H119_13 C154_13 1_555 1_555
H120_13 C155_13 1_555 1_555
C164_13 C153_13 1_555 1_555
C165_13 C154_13 1_555 1_555
C166_13 C155_13 1_555 1_555
H129_13 C164_13 1_555 1_555
H130_13 C165_13 1_555 1_555
H131_13 C166_13 1_555 1_555
H140_13 C164_13 1_555 1_555
H141_13 C165_13 1_555 1_555
H142_13 C166_13 1_555 1_555
H151_13 C164_13 1_555 1_555
H152_13 C165_13 1_555 1_555
H153_13 C166_13 1_555 1_555
O7_5 C16_13 1_555 1_555
C76_13 C87_13 1_555 1_555
C77_13 C88_13 1_555 1_555
C78_13 C89_13 1_555 1_555
C109_13 C120_13 1_555 1_555
C109_13 C121_13 1_555 1_555
C110_13 C120_13 1_555 1_555
C110_13 C122_13 1_555 1_555
C111_13 C121_13 1_555 1_555
C111_13 C122_13 1_555 1_555
O14_22 C1_24 1_555 1_555
C1_24 C2_24 1_555 1_555
C2_24 C3_24 1_555 1_555
C3_24 H1_24 1_555 1_555
C4_24 C3_24 1_555 1_555
C5_24 C4_24 1_555 1_555
C6_24 C5_24 1_555 1_555
H2_24 C6_24 1_555 1_555
C7_24 C2_24 1_555 1_555
H3_24 C7_24 1_555 1_555
C8_24 C4_24 1_555 1_555
C9_24 C5_24 1_555 1_555
C10_24 C8_24 1_555 1_555
C11_24 C8_24 1_555 1_555
H4_24 C11_24 1_555 1_555
H5_24 C11_24 1_555 1_555
C12_24 C11_24 1_555 1_555
H6_24 C12_24 1_555 1_555
H7_24 C12_24 1_555 1_555
H8_24 C12_24 1_555 1_555
C13_24 C8_24 1_555 1_555
H9_24 C13_24 1_555 1_555
H10_24 C13_24 1_555 1_555
C14_24 C13_24 1_555 1_555
H11_24 C14_24 1_555 1_555
H12_24 C14_24 1_555 1_555
H13_24 C14_24 1_555 1_555
O14_21 C17_24 1_555 1_555
O14_8 C18_24 1_555 1_555
O27_22 C1_24 1_555 1_555
C17_24 O27_21 1_555 1_555
C18_24 O27_8 1_555 1_555
C27_24 C17_24 1_555 1_555
C28_24 C18_24 1_555 1_555
C38_24 C27_24 1_555 1_555
C39_24 C28_24 1_555 1_555
H14_24 C38_24 1_555 1_555
H15_24 C39_24 1_555 1_555
C49_24 C38_24 1_555 1_555
C50_24 C39_24 1_555 1_555
C60_24 C50_24 1_555 1_555
C61_24 C49_24 1_555 1_555
C71_24 C60_24 1_555 1_555
C72_24 C61_24 1_555 1_555
H25_24 C71_24 1_555 1_555
H26_24 C72_24 1_555 1_555
C82_24 C28_24 1_555 1_555
C83_24 C27_24 1_555 1_555
H36_24 C82_24 1_555 1_555
H37_24 C83_24 1_555 1_555
C93_24 C49_24 1_555 1_555
C94_24 C50_24 1_555 1_555
C104_24 C10_24 1_555 1_555
C105_24 C61_24 1_555 1_555
C115_24 C9_24 1_555 1_555
C116_24 C94_24 1_555 1_555
C126_24 C93_24 1_555 1_555
C127_24 C94_24 1_555 1_555
H47_24 C126_24 1_555 1_555
H48_24 C127_24 1_555 1_555
H58_24 C126_24 1_555 1_555
H59_24 C127_24 1_555 1_555
C137_24 C126_24 1_555 1_555
C138_24 C127_24 1_555 1_555
H69_24 C137_24 1_555 1_555
H70_24 C138_24 1_555 1_555
H80_24 C137_24 1_555 1_555
H81_24 C138_24 1_555 1_555
H91_24 C137_24 1_555 1_555
H92_24 C138_24 1_555 1_555
C148_24 C93_24 1_555 1_555
C149_24 C94_24 1_555 1_555
H102_24 C148_24 1_555 1_555
H103_24 C149_24 1_555 1_555
H113_24 C148_24 1_555 1_555
H114_24 C149_24 1_555 1_555
C159_24 C148_24 1_555 1_555
C160_24 C149_24 1_555 1_555
H124_24 C159_24 1_555 1_555
H125_24 C160_24 1_555 1_555
H135_24 C159_24 1_555 1_555
H136_24 C160_24 1_555 1_555
H146_24 C159_24 1_555 1_555
H147_24 C160_24 1_555 1_555
C6_24 C7_24 1_555 1_555
C9_24 C10_24 1_555 1_555
C60_24 C104_24 1_555 1_555
C71_24 C82_24 1_555 1_555
C72_24 C83_24 1_555 1_555
C93_24 C115_24 1_555 1_555
C104_24 C116_24 1_555 1_555
C105_24 C115_24 1_555 1_555
C105_24 C116_24 1_555 1_555
O6_8 C1_25 1_555 1_555
C1_25 C2_25 1_555 1_555
C2_25 C3_25 1_555 1_555
C3_25 H1_25 1_555 1_555
C4_25 C3_25 1_555 1_555
C5_25 C4_25 1_555 1_555
C6_25 C5_25 1_555 1_555
H2_25 C6_25 1_555 1_555
C7_25 C2_25 1_555 1_555
H3_25 C7_25 1_555 1_555
C8_25 C4_25 1_555 1_555
C9_25 C5_25 1_555 1_555
C10_25 C8_25 1_555 1_555
C11_25 C8_25 1_555 1_555
H4_25 C11_25 1_555 1_555
H5_25 C11_25 1_555 1_555
C12_25 C11_25 1_555 1_555
H6_25 C12_25 1_555 1_555
H7_25 C12_25 1_555 1_555
H8_25 C12_25 1_555 1_555
C13_25 C8_25 1_555 1_555
H9_25 C13_25 1_555 1_555
H10_25 C13_25 1_555 1_555
C14_25 C13_25 1_555 1_555
H11_25 C14_25 1_555 1_555
H12_25 C14_25 1_555 1_555
H13_25 C14_25 1_555 1_555
O11_12 C17_25 1_555 1_555
O11_22 C18_25 1_555 1_555
O21_8 C1_25 1_555 1_555
C17_25 O28_12 1_555 1_555
C18_25 O28_22 1_555 1_555
C27_25 C17_25 1_555 1_555
C28_25 C18_25 1_555 1_555
C38_25 C27_25 1_555 1_555
C39_25 C28_25 1_555 1_555
H14_25 C38_25 1_555 1_555
H15_25 C39_25 1_555 1_555
C49_25 C38_25 1_555 1_555
C50_25 C39_25 1_555 1_555
C60_25 C50_25 1_555 1_555
C61_25 C49_25 1_555 1_555
C71_25 C60_25 1_555 1_555
C72_25 C61_25 1_555 1_555
H25_25 C71_25 1_555 1_555
H26_25 C72_25 1_555 1_555
C82_25 C28_25 1_555 1_555
C83_25 C27_25 1_555 1_555
H36_25 C82_25 1_555 1_555
H37_25 C83_25 1_555 1_555
C93_25 C49_25 1_555 1_555
C94_25 C50_25 1_555 1_555
C104_25 C10_25 1_555 1_555
C105_25 C61_25 1_555 1_555
C115_25 C9_25 1_555 1_555
C116_25 C94_25 1_555 1_555
C126_25 C93_25 1_555 1_555
C127_25 C94_25 1_555 1_555
H47_25 C126_25 1_555 1_555
H48_25 C127_25 1_555 1_555
H58_25 C126_25 1_555 1_555
H59_25 C127_25 1_555 1_555
C137_25 C126_25 1_555 1_555
C138_25 C127_25 1_555 1_555
H69_25 C137_25 1_555 1_555
H70_25 C138_25 1_555 1_555
H80_25 C137_25 1_555 1_555
H81_25 C138_25 1_555 1_555
H91_25 C137_25 1_555 1_555
H92_25 C138_25 1_555 1_555
C148_25 C93_25 1_555 1_555
C149_25 C94_25 1_555 1_555
H102_25 C148_25 1_555 1_555
H103_25 C149_25 1_555 1_555
H113_25 C148_25 1_555 1_555
H114_25 C149_25 1_555 1_555
C159_25 C148_25 1_555 1_555
C160_25 C149_25 1_555 1_555
H124_25 C159_25 1_555 1_555
H125_25 C160_25 1_555 1_555
H135_25 C159_25 1_555 1_555
H136_25 C160_25 1_555 1_555
H146_25 C159_25 1_555 1_555
H147_25 C160_25 1_555 1_555
C6_25 C7_25 1_555 1_555
C9_25 C10_25 1_555 1_555
C60_25 C104_25 1_555 1_555
C71_25 C82_25 1_555 1_555
C72_25 C83_25 1_555 1_555
C93_25 C115_25 1_555 1_555
C104_25 C116_25 1_555 1_555
C105_25 C115_25 1_555 1_555
C105_25 C116_25 1_555 1_555
O11_16 C1_26 1_555 1_555
C1_26 C2_26 1_555 1_555
C2_26 C3_26 1_555 1_555
C3_26 H1_26 1_555 1_555
C4_26 C3_26 1_555 1_555
C5_26 C4_26 1_555 1_555
C6_26 C5_26 1_555 1_555
H2_26 C6_26 1_555 1_555
C7_26 C2_26 1_555 1_555
H3_26 C7_26 1_555 1_555
C8_26 C4_26 1_555 1_555
C9_26 C5_26 1_555 1_555
C10_26 C8_26 1_555 1_555
C11_26 C8_26 1_555 1_555
H4_26 C11_26 1_555 1_555
H5_26 C11_26 1_555 1_555
C12_26 C11_26 1_555 1_555
H6_26 C12_26 1_555 1_555
H7_26 C12_26 1_555 1_555
H8_26 C12_26 1_555 1_555
C13_26 C8_26 1_555 1_555
H9_26 C13_26 1_555 1_555
H10_26 C13_26 1_555 1_555
C14_26 C13_26 1_555 1_555
H11_26 C14_26 1_555 1_555
H12_26 C14_26 1_555 1_555
H13_26 C14_26 1_555 1_555
O6_24 C17_26 1_555 1_555
O14_2 C18_26 1_555 1_555
O28_16 C1_26 1_555 1_555
C17_26 O21_24 1_555 1_555
C18_26 O27_2 1_555 1_555
C27_26 C17_26 1_555 1_555
C28_26 C18_26 1_555 1_555
C38_26 C27_26 1_555 1_555
C39_26 C28_26 1_555 1_555
H14_26 C38_26 1_555 1_555
H15_26 C39_26 1_555 1_555
C49_26 C38_26 1_555 1_555
C50_26 C39_26 1_555 1_555
C60_26 C50_26 1_555 1_555
C61_26 C49_26 1_555 1_555
C71_26 C60_26 1_555 1_555
C72_26 C61_26 1_555 1_555
H25_26 C71_26 1_555 1_555
H26_26 C72_26 1_555 1_555
C82_26 C28_26 1_555 1_555
C83_26 C27_26 1_555 1_555
H36_26 C82_26 1_555 1_555
H37_26 C83_26 1_555 1_555
C93_26 C49_26 1_555 1_555
C94_26 C50_26 1_555 1_555
C104_26 C10_26 1_555 1_555
C105_26 C61_26 1_555 1_555
C115_26 C9_26 1_555 1_555
C116_26 C94_26 1_555 1_555
C126_26 C93_26 1_555 1_555
C127_26 C94_26 1_555 1_555
H47_26 C126_26 1_555 1_555
H48_26 C127_26 1_555 1_555
H58_26 C126_26 1_555 1_555
H59_26 C127_26 1_555 1_555
C137_26 C126_26 1_555 1_555
C138_26 C127_26 1_555 1_555
H69_26 C137_26 1_555 1_555
H70_26 C138_26 1_555 1_555
H80_26 C137_26 1_555 1_555
H81_26 C138_26 1_555 1_555
H91_26 C137_26 1_555 1_555
H92_26 C138_26 1_555 1_555
C148_26 C93_26 1_555 1_555
C149_26 C94_26 1_555 1_555
H102_26 C148_26 1_555 1_555
H103_26 C149_26 1_555 1_555
H113_26 C148_26 1_555 1_555
H114_26 C149_26 1_555 1_555
C159_26 C148_26 1_555 1_555
C160_26 C149_26 1_555 1_555
H124_26 C159_26 1_555 1_555
H125_26 C160_26 1_555 1_555
H135_26 C159_26 1_555 1_555
H136_26 C160_26 1_555 1_555
H146_26 C159_26 1_555 1_555
H147_26 C160_26 1_555 1_555
C6_26 C7_26 1_555 1_555
C9_26 C10_26 1_555 1_555
C60_26 C104_26 1_555 1_555
C71_26 C82_26 1_555 1_555
C72_26 C83_26 1_555 1_555
C93_26 C115_26 1_555 1_555
C104_26 C116_26 1_555 1_555
C105_26 C115_26 1_555 1_555
C105_26 C116_26 1_555 1_555
O6_7 C1_27 1_555 1_555
C1_27 C2_27 1_555 1_555
C2_27 C3_27 1_555 1_555
C3_27 H1_27 1_555 1_555
C4_27 C3_27 1_555 1_555
C5_27 C4_27 1_555 1_555
C6_27 C5_27 1_555 1_555
H2_27 C6_27 1_555 1_555
C7_27 C2_27 1_555 1_555
H3_27 C7_27 1_555 1_555
C8_27 C4_27 1_555 1_555
C9_27 C5_27 1_555 1_555
C10_27 C8_27 1_555 1_555
C11_27 C8_27 1_555 1_555
H4_27 C11_27 1_555 1_555
H5_27 C11_27 1_555 1_555
C12_27 C11_27 1_555 1_555
H6_27 C12_27 1_555 1_555
H7_27 C12_27 1_555 1_555
H8_27 C12_27 1_555 1_555
C13_27 C8_27 1_555 1_555
H9_27 C13_27 1_555 1_555
H10_27 C13_27 1_555 1_555
C14_27 C13_27 1_555 1_555
H11_27 C14_27 1_555 1_555
H12_27 C14_27 1_555 1_555
H13_27 C14_27 1_555 1_555
O11_10 C17_27 1_555 1_555
O6_15 C18_27 1_555 1_555
O21_7 C1_27 1_555 1_555
C17_27 O28_10 1_555 1_555
C18_27 O21_15 1_555 1_555
C27_27 C17_27 1_555 1_555
C28_27 C18_27 1_555 1_555
C38_27 C27_27 1_555 1_555
C39_27 C28_27 1_555 1_555
H14_27 C38_27 1_555 1_555
H15_27 C39_27 1_555 1_555
C49_27 C38_27 1_555 1_555
C50_27 C39_27 1_555 1_555
C60_27 C50_27 1_555 1_555
C61_27 C49_27 1_555 1_555
C71_27 C60_27 1_555 1_555
C72_27 C61_27 1_555 1_555
H25_27 C71_27 1_555 1_555
H26_27 C72_27 1_555 1_555
C82_27 C28_27 1_555 1_555
C83_27 C27_27 1_555 1_555
H36_27 C82_27 1_555 1_555
H37_27 C83_27 1_555 1_555
C93_27 C49_27 1_555 1_555
C94_27 C50_27 1_555 1_555
C104_27 C10_27 1_555 1_555
C105_27 C61_27 1_555 1_555
C115_27 C9_27 1_555 1_555
C116_27 C94_27 1_555 1_555
C126_27 C93_27 1_555 1_555
C127_27 C94_27 1_555 1_555
H47_27 C126_27 1_555 1_555
H48_27 C127_27 1_555 1_555
H58_27 C126_27 1_555 1_555
H59_27 C127_27 1_555 1_555
C137_27 C126_27 1_555 1_555
C138_27 C127_27 1_555 1_555
H69_27 C137_27 1_555 1_555
H70_27 C138_27 1_555 1_555
H80_27 C137_27 1_555 1_555
H81_27 C138_27 1_555 1_555
H91_27 C137_27 1_555 1_555
H92_27 C138_27 1_555 1_555
C148_27 C93_27 1_555 1_555
C149_27 C94_27 1_555 1_555
H102_27 C148_27 1_555 1_555
H103_27 C149_27 1_555 1_555
H113_27 C148_27 1_555 1_555
H114_27 C149_27 1_555 1_555
C159_27 C148_27 1_555 1_555
C160_27 C149_27 1_555 1_555
H124_27 C159_27 1_555 1_555
H125_27 C160_27 1_555 1_555
H135_27 C159_27 1_555 1_555
H136_27 C160_27 1_555 1_555
H146_27 C159_27 1_555 1_555
H147_27 C160_27 1_555 1_555
C6_27 C7_27 1_555 1_555
C9_27 C10_27 1_555 1_555
C60_27 C104_27 1_555 1_555
C71_27 C82_27 1_555 1_555
C72_27 C83_27 1_555 1_555
C93_27 C115_27 1_555 1_555
C104_27 C116_27 1_555 1_555
C105_27 C115_27 1_555 1_555
C105_27 C116_27 1_555 1_555
O14_5 C1_28 1_555 1_555
C1_28 C2_28 1_555 1_555
C2_28 C3_28 1_555 1_555
C3_28 H1_28 1_555 1_555
C4_28 C3_28 1_555 1_555
C5_28 C4_28 1_555 1_555
C6_28 C5_28 1_555 1_555
H2_28 C6_28 1_555 1_555
C7_28 C2_28 1_555 1_555
H3_28 C7_28 1_555 1_555
C8_28 C4_28 1_555 1_555
C9_28 C5_28 1_555 1_555
C10_28 C8_28 1_555 1_555
C11_28 C8_28 1_555 1_555
H4_28 C11_28 1_555 1_555
H5_28 C11_28 1_555 1_555
C12_28 C11_28 1_555 1_555
H6_28 C12_28 1_555 1_555
H7_28 C12_28 1_555 1_555
H8_28 C12_28 1_555 1_555
C13_28 C8_28 1_555 1_555
H9_28 C13_28 1_555 1_555
H10_28 C13_28 1_555 1_555
C14_28 C13_28 1_555 1_555
H11_28 C14_28 1_555 1_555
H12_28 C14_28 1_555 1_555
H13_28 C14_28 1_555 1_555
O14_17 C17_28 1_555 1_555
O14_23 C18_28 1_555 1_555
O27_5 C1_28 1_555 1_555
C17_28 O27_17 1_555 1_555
C18_28 O27_23 1_555 1_555
C27_28 C17_28 1_555 1_555
C28_28 C18_28 1_555 1_555
C38_28 C27_28 1_555 1_555
C39_28 C28_28 1_555 1_555
H14_28 C38_28 1_555 1_555
H15_28 C39_28 1_555 1_555
C49_28 C38_28 1_555 1_555
C50_28 C39_28 1_555 1_555
C60_28 C50_28 1_555 1_555
C61_28 C49_28 1_555 1_555
C71_28 C60_28 1_555 1_555
C72_28 C61_28 1_555 1_555
H25_28 C71_28 1_555 1_555
H26_28 C72_28 1_555 1_555
C82_28 C28_28 1_555 1_555
C83_28 C27_28 1_555 1_555
H36_28 C82_28 1_555 1_555
H37_28 C83_28 1_555 1_555
C93_28 C49_28 1_555 1_555
C94_28 C50_28 1_555 1_555
C104_28 C10_28 1_555 1_555
C105_28 C61_28 1_555 1_555
C115_28 C9_28 1_555 1_555
C116_28 C94_28 1_555 1_555
C126_28 C93_28 1_555 1_555
C127_28 C94_28 1_555 1_555
H47_28 C126_28 1_555 1_555
H48_28 C127_28 1_555 1_555
H58_28 C126_28 1_555 1_555
H59_28 C127_28 1_555 1_555
C137_28 C126_28 1_555 1_555
C138_28 C127_28 1_555 1_555
H69_28 C137_28 1_555 1_555
H70_28 C138_28 1_555 1_555
H80_28 C137_28 1_555 1_555
H81_28 C138_28 1_555 1_555
H91_28 C137_28 1_555 1_555
H92_28 C138_28 1_555 1_555
C148_28 C93_28 1_555 1_555
C149_28 C94_28 1_555 1_555
H102_28 C148_28 1_555 1_555
H103_28 C149_28 1_555 1_555
H113_28 C148_28 1_555 1_555
H114_28 C149_28 1_555 1_555
C159_28 C148_28 1_555 1_555
C160_28 C149_28 1_555 1_555
H124_28 C159_28 1_555 1_555
H125_28 C160_28 1_555 1_555
H135_28 C159_28 1_555 1_555
H136_28 C160_28 1_555 1_555
H146_28 C159_28 1_555 1_555
H147_28 C160_28 1_555 1_555
C6_28 C7_28 1_555 1_555
C9_28 C10_28 1_555 1_555
C60_28 C104_28 1_555 1_555
C71_28 C82_28 1_555 1_555
C72_28 C83_28 1_555 1_555
C93_28 C115_28 1_555 1_555
C104_28 C116_28 1_555 1_555
C105_28 C115_28 1_555 1_555
C105_28 C116_28 1_555 1_555
O6_16 C1_29 1_555 1_555
C1_29 C2_29 1_555 1_555
C2_29 C3_29 1_555 1_555
C3_29 H1_29 1_555 1_555
C4_29 C3_29 1_555 1_555
C5_29 C4_29 1_555 1_555
C6_29 C5_29 1_555 1_555
H2_29 C6_29 1_555 1_555
C7_29 C2_29 1_555 1_555
H3_29 C7_29 1_555 1_555
C8_29 C4_29 1_555 1_555
C9_29 C5_29 1_555 1_555
C10_29 C8_29 1_555 1_555
C11_29 C8_29 1_555 1_555
H4_29 C11_29 1_555 1_555
H5_29 C11_29 1_555 1_555
C12_29 C11_29 1_555 1_555
H6_29 C12_29 1_555 1_555
H7_29 C12_29 1_555 1_555
H8_29 C12_29 1_555 1_555
C13_29 C8_29 1_555 1_555
H9_29 C13_29 1_555 1_555
H10_29 C13_29 1_555 1_555
C14_29 C13_29 1_555 1_555
H11_29 C14_29 1_555 1_555
H12_29 C14_29 1_555 1_555
H13_29 C14_29 1_555 1_555
O14_3 C17_29 1_555 1_555
O11_19 C18_29 1_555 1_555
O21_16 C1_29 1_555 1_555
C17_29 O27_3 1_555 1_555
C18_29 O28_19 1_555 1_555
C27_29 C17_29 1_555 1_555
C28_29 C18_29 1_555 1_555
C38_29 C27_29 1_555 1_555
C39_29 C28_29 1_555 1_555
H14_29 C38_29 1_555 1_555
H15_29 C39_29 1_555 1_555
C49_29 C38_29 1_555 1_555
C50_29 C39_29 1_555 1_555
C60_29 C50_29 1_555 1_555
C61_29 C49_29 1_555 1_555
C71_29 C60_29 1_555 1_555
C72_29 C61_29 1_555 1_555
H25_29 C71_29 1_555 1_555
H26_29 C72_29 1_555 1_555
C82_29 C28_29 1_555 1_555
C83_29 C27_29 1_555 1_555
H36_29 C82_29 1_555 1_555
H37_29 C83_29 1_555 1_555
C93_29 C49_29 1_555 1_555
C94_29 C50_29 1_555 1_555
C104_29 C10_29 1_555 1_555
C105_29 C61_29 1_555 1_555
C115_29 C9_29 1_555 1_555
C116_29 C94_29 1_555 1_555
C126_29 C93_29 1_555 1_555
C127_29 C94_29 1_555 1_555
H47_29 C126_29 1_555 1_555
H48_29 C127_29 1_555 1_555
H58_29 C126_29 1_555 1_555
H59_29 C127_29 1_555 1_555
C137_29 C126_29 1_555 1_555
C138_29 C127_29 1_555 1_555
H69_29 C137_29 1_555 1_555
H70_29 C138_29 1_555 1_555
H80_29 C137_29 1_555 1_555
H81_29 C138_29 1_555 1_555
H91_29 C137_29 1_555 1_555
H92_29 C138_29 1_555 1_555
C148_29 C93_29 1_555 1_555
C149_29 C94_29 1_555 1_555
H102_29 C148_29 1_555 1_555
H103_29 C149_29 1_555 1_555
H113_29 C148_29 1_555 1_555
H114_29 C149_29 1_555 1_555
C159_29 C148_29 1_555 1_555
C160_29 C149_29 1_555 1_555
H124_29 C159_29 1_555 1_555
H125_29 C160_29 1_555 1_555
H135_29 C159_29 1_555 1_555
H136_29 C160_29 1_555 1_555
H146_29 C159_29 1_555 1_555
H147_29 C160_29 1_555 1_555
C6_29 C7_29 1_555 1_555
C9_29 C10_29 1_555 1_555
C60_29 C104_29 1_555 1_555
C71_29 C82_29 1_555 1_555
C72_29 C83_29 1_555 1_555
C93_29 C115_29 1_555 1_555
C104_29 C116_29 1_555 1_555
C105_29 C115_29 1_555 1_555
C105_29 C116_29 1_555 1_555
O11_8 C1_30 1_555 1_555
C1_30 C2_30 1_555 1_555
C2_30 C3_30 1_555 1_555
C3_30 H1_30 1_555 1_555
C4_30 C3_30 1_555 1_555
C5_30 C4_30 1_555 1_555
C6_30 C5_30 1_555 1_555
H2_30 C6_30 1_555 1_555
C7_30 C2_30 1_555 1_555
H3_30 C7_30 1_555 1_555
C8_30 C4_30 1_555 1_555
C9_30 C5_30 1_555 1_555
C10_30 C8_30 1_555 1_555
C11_30 C8_30 1_555 1_555
H4_30 C11_30 1_555 1_555
H5_30 C11_30 1_555 1_555
C12_30 C11_30 1_555 1_555
H6_30 C12_30 1_555 1_555
H7_30 C12_30 1_555 1_555
H8_30 C12_30 1_555 1_555
C13_30 C8_30 1_555 1_555
H9_30 C13_30 1_555 1_555
H10_30 C13_30 1_555 1_555
C14_30 C13_30 1_555 1_555
H11_30 C14_30 1_555 1_555
H12_30 C14_30 1_555 1_555
H13_30 C14_30 1_555 1_555
O6_21 C17_30 1_555 1_555
O6_6 C18_30 1_555 1_555
O28_8 C1_30 1_555 1_555
C17_30 O21_21 1_555 1_555
C18_30 O21_6 1_555 1_555
C27_30 C17_30 1_555 1_555
C28_30 C18_30 1_555 1_555
C38_30 C27_30 1_555 1_555
C39_30 C28_30 1_555 1_555
H14_30 C38_30 1_555 1_555
H15_30 C39_30 1_555 1_555
C49_30 C38_30 1_555 1_555
C50_30 C39_30 1_555 1_555
C60_30 C50_30 1_555 1_555
C61_30 C49_30 1_555 1_555
C71_30 C60_30 1_555 1_555
C72_30 C61_30 1_555 1_555
H25_30 C71_30 1_555 1_555
H26_30 C72_30 1_555 1_555
C82_30 C28_30 1_555 1_555
C83_30 C27_30 1_555 1_555
H36_30 C82_30 1_555 1_555
H37_30 C83_30 1_555 1_555
C93_30 C49_30 1_555 1_555
C94_30 C50_30 1_555 1_555
C104_30 C10_30 1_555 1_555
C105_30 C61_30 1_555 1_555
C115_30 C9_30 1_555 1_555
C116_30 C94_30 1_555 1_555
C126_30 C93_30 1_555 1_555
C127_30 C94_30 1_555 1_555
H47_30 C126_30 1_555 1_555
H48_30 C127_30 1_555 1_555
H58_30 C126_30 1_555 1_555
H59_30 C127_30 1_555 1_555
C137_30 C126_30 1_555 1_555
C138_30 C127_30 1_555 1_555
H69_30 C137_30 1_555 1_555
H70_30 C138_30 1_555 1_555
H80_30 C137_30 1_555 1_555
H81_30 C138_30 1_555 1_555
H91_30 C137_30 1_555 1_555
H92_30 C138_30 1_555 1_555
C148_30 C93_30 1_555 1_555
C149_30 C94_30 1_555 1_555
H102_30 C148_30 1_555 1_555
H103_30 C149_30 1_555 1_555
H113_30 C148_30 1_555 1_555
H114_30 C149_30 1_555 1_555
C159_30 C148_30 1_555 1_555
C160_30 C149_30 1_555 1_555
H124_30 C159_30 1_555 1_555
H125_30 C160_30 1_555 1_555
H135_30 C159_30 1_555 1_555
H136_30 C160_30 1_555 1_555
H146_30 C159_30 1_555 1_555
H147_30 C160_30 1_555 1_555
C6_30 C7_30 1_555 1_555
C9_30 C10_30 1_555 1_555
C60_30 C104_30 1_555 1_555
C71_30 C82_30 1_555 1_555
C72_30 C83_30 1_555 1_555
C93_30 C115_30 1_555 1_555
C104_30 C116_30 1_555 1_555
C105_30 C115_30 1_555 1_555
C105_30 C116_30 1_555 1_555
O11_9 C1_31 1_555 1_555
C1_31 C2_31 1_555 1_555
C2_31 C3_31 1_555 1_555
C3_31 H1_31 1_555 1_555
C4_31 C3_31 1_555 1_555
C5_31 C4_31 1_555 1_555
C6_31 C5_31 1_555 1_555
H2_31 C6_31 1_555 1_555
C7_31 C2_31 1_555 1_555
H3_31 C7_31 1_555 1_555
C8_31 C4_31 1_555 1_555
C9_31 C5_31 1_555 1_555
C10_31 C8_31 1_555 1_555
C11_31 C8_31 1_555 1_555
H4_31 C11_31 1_555 1_555
H5_31 C11_31 1_555 1_555
C12_31 C11_31 1_555 1_555
H6_31 C12_31 1_555 1_555
H7_31 C12_31 1_555 1_555
H8_31 C12_31 1_555 1_555
C13_31 C8_31 1_555 1_555
H9_31 C13_31 1_555 1_555
H10_31 C13_31 1_555 1_555
C14_31 C13_31 1_555 1_555
H11_31 C14_31 1_555 1_555
H12_31 C14_31 1_555 1_555
H13_31 C14_31 1_555 1_555
O11_17 C17_31 1_555 1_555
O6_5 C18_31 1_555 1_555
O28_9 C1_31 1_555 1_555
C17_31 O28_17 1_555 1_555
C18_31 O21_5 1_555 1_555
C27_31 C17_31 1_555 1_555
C28_31 C18_31 1_555 1_555
C38_31 C27_31 1_555 1_555
C39_31 C28_31 1_555 1_555
H14_31 C38_31 1_555 1_555
H15_31 C39_31 1_555 1_555
C49_31 C38_31 1_555 1_555
C50_31 C39_31 1_555 1_555
C60_31 C50_31 1_555 1_555
C61_31 C49_31 1_555 1_555
C71_31 C60_31 1_555 1_555
C72_31 C61_31 1_555 1_555
H25_31 C71_31 1_555 1_555
H26_31 C72_31 1_555 1_555
C82_31 C28_31 1_555 1_555
C83_31 C27_31 1_555 1_555
H36_31 C82_31 1_555 1_555
H37_31 C83_31 1_555 1_555
C93_31 C49_31 1_555 1_555
C94_31 C50_31 1_555 1_555
C104_31 C10_31 1_555 1_555
C105_31 C61_31 1_555 1_555
C115_31 C9_31 1_555 1_555
C116_31 C94_31 1_555 1_555
C126_31 C93_31 1_555 1_555
C127_31 C94_31 1_555 1_555
H47_31 C126_31 1_555 1_555
H48_31 C127_31 1_555 1_555
H58_31 C126_31 1_555 1_555
H59_31 C127_31 1_555 1_555
C137_31 C126_31 1_555 1_555
C138_31 C127_31 1_555 1_555
H69_31 C137_31 1_555 1_555
H70_31 C138_31 1_555 1_555
H80_31 C137_31 1_555 1_555
H81_31 C138_31 1_555 1_555
H91_31 C137_31 1_555 1_555
H92_31 C138_31 1_555 1_555
C148_31 C93_31 1_555 1_555
C149_31 C94_31 1_555 1_555
H102_31 C148_31 1_555 1_555
H103_31 C149_31 1_555 1_555
H113_31 C148_31 1_555 1_555
H114_31 C149_31 1_555 1_555
C159_31 C148_31 1_555 1_555
C160_31 C149_31 1_555 1_555
H124_31 C159_31 1_555 1_555
H125_31 C160_31 1_555 1_555
H135_31 C159_31 1_555 1_555
H136_31 C160_31 1_555 1_555
H146_31 C159_31 1_555 1_555
H147_31 C160_31 1_555 1_555
C6_31 C7_31 1_555 1_555
C9_31 C10_31 1_555 1_555
C60_31 C104_31 1_555 1_555
C71_31 C82_31 1_555 1_555
C72_31 C83_31 1_555 1_555
C93_31 C115_31 1_555 1_555
C104_31 C116_31 1_555 1_555
C105_31 C115_31 1_555 1_555
C105_31 C116_31 1_555 1_555
O14_15 C1_32 1_555 1_555
C1_32 C2_32 1_555 1_555
C2_32 C3_32 1_555 1_555
C3_32 H1_32 1_555 1_555
C4_32 C3_32 1_555 1_555
C5_32 C4_32 1_555 1_555
C6_32 C5_32 1_555 1_555
H2_32 C6_32 1_555 1_555
C7_32 C2_32 1_555 1_555
H3_32 C7_32 1_555 1_555
C8_32 C4_32 1_555 1_555
C9_32 C5_32 1_555 1_555
C10_32 C8_32 1_555 1_555
C11_32 C8_32 1_555 1_555
H4_32 C11_32 1_555 1_555
H5_32 C11_32 1_555 1_555
C12_32 C11_32 1_555 1_555
H6_32 C12_32 1_555 1_555
H7_32 C12_32 1_555 1_555
H8_32 C12_32 1_555 1_555
C13_32 C8_32 1_555 1_555
H9_32 C13_32 1_555 1_555
H10_32 C13_32 1_555 1_555
C14_32 C13_32 1_555 1_555
H11_32 C14_32 1_555 1_555
H12_32 C14_32 1_555 1_555
H13_32 C14_32 1_555 1_555
O14_10 C17_32 1_555 1_555
O14_20 C18_32 1_555 1_555
O27_15 C1_32 1_555 1_555
C17_32 O27_10 1_555 1_555
C18_32 O27_20 1_555 1_555
C27_32 C17_32 1_555 1_555
C28_32 C18_32 1_555 1_555
C38_32 C27_32 1_555 1_555
C39_32 C28_32 1_555 1_555
H14_32 C38_32 1_555 1_555
H15_32 C39_32 1_555 1_555
C49_32 C38_32 1_555 1_555
C50_32 C39_32 1_555 1_555
C60_32 C50_32 1_555 1_555
C61_32 C49_32 1_555 1_555
C71_32 C60_32 1_555 1_555
C72_32 C61_32 1_555 1_555
H25_32 C71_32 1_555 1_555
H26_32 C72_32 1_555 1_555
C82_32 C28_32 1_555 1_555
C83_32 C27_32 1_555 1_555
H36_32 C82_32 1_555 1_555
H37_32 C83_32 1_555 1_555
C93_32 C49_32 1_555 1_555
C94_32 C50_32 1_555 1_555
C104_32 C10_32 1_555 1_555
C105_32 C61_32 1_555 1_555
C115_32 C9_32 1_555 1_555
C116_32 C94_32 1_555 1_555
C126_32 C93_32 1_555 1_555
C127_32 C94_32 1_555 1_555
H47_32 C126_32 1_555 1_555
H48_32 C127_32 1_555 1_555
H58_32 C126_32 1_555 1_555
H59_32 C127_32 1_555 1_555
C137_32 C126_32 1_555 1_555
C138_32 C127_32 1_555 1_555
H69_32 C137_32 1_555 1_555
H70_32 C138_32 1_555 1_555
H80_32 C137_32 1_555 1_555
H81_32 C138_32 1_555 1_555
H91_32 C137_32 1_555 1_555
H92_32 C138_32 1_555 1_555
C148_32 C93_32 1_555 1_555
C149_32 C94_32 1_555 1_555
H102_32 C148_32 1_555 1_555
H103_32 C149_32 1_555 1_555
H113_32 C148_32 1_555 1_555
H114_32 C149_32 1_555 1_555
C159_32 C148_32 1_555 1_555
C160_32 C149_32 1_555 1_555
H124_32 C159_32 1_555 1_555
H125_32 C160_32 1_555 1_555
H135_32 C159_32 1_555 1_555
H136_32 C160_32 1_555 1_555
H146_32 C159_32 1_555 1_555
H147_32 C160_32 1_555 1_555
C6_32 C7_32 1_555 1_555
C9_32 C10_32 1_555 1_555
C60_32 C104_32 1_555 1_555
C71_32 C82_32 1_555 1_555
C72_32 C83_32 1_555 1_555
C93_32 C115_32 1_555 1_555
C104_32 C116_32 1_555 1_555
C105_32 C115_32 1_555 1_555
C105_32 C116_32 1_555 1_555

#END
