
###############################################################################
#
# This file contains modified crystal structure data generated from the
# MOF subset of the Cambridge Structural Database (CSD) v543 
# hosted by the Cambridge Crystallographic Data Centre (CCDC).
#
# This work is licensed under the Creative Commons
# Attribution-NonCommercial-ShareAlike 4.0 International License.
# To view a copy of this license, visit
# http://creativecommons.org/licenses/by-nc-sa/4.0/
# or send a letter to
# Creative Commons, PO Box 1866, Mountain View, CA 94042, USA.
#
# CIF created using the CSD Python API on 29 September 2022
# The structure has been converted into the P1 space group
# The structure has a 3D framework
# The original CSD entry BUFNOG is in the cubic crystal system
# The framework has been calculated to contain at least 10.0% void space
# The void calculation uses a probe of radius 1.32A, grid spacing 0.4
# The framework is charged, counterions have been retained in the structure
# H atom positions have been added when not included in the experimental data
# Generated hydrogen atom positions removed from atoms on special positions
#
###############################################################################

data_BUFNOG
_chemical_formula_moiety         '(C2688 H4752 Cd144 O804 169+)n'
_symmetry_cell_setting           triclinic
_symmetry_space_group_name_H-M   'P 1'
_symmetry_Int_Tables_number      1
_space_group_name_Hall           'P 1'
loop_
_symmetry_equiv_pos_site_id
_symmetry_equiv_pos_as_xyz
1 x,y,z
_cell_length_a                   48.436(6)
_cell_length_b                   48.436(6)
_cell_length_c                   48.436(6)
_cell_angle_alpha                90
_cell_angle_beta                 90
_cell_angle_gamma                90
_cell_volume                     113633
loop_
_atom_site_label
_atom_site_type_symbol
_atom_site_fract_x
_atom_site_fract_y
_atom_site_fract_z
O1 O 0.0690(3) 0.0690(3) 0.2500
O1_2 O 0.2500 0.0690(3) 0.0690(3)
O1_3 O 0.0690(3) 0.2500 0.0690(3)
O1_4 O 0.5690(3) 0.5690(3) 0.2500
O1_5 O 0.5690(3) 0.4310(3) 0.7500
O1_6 O 0.4310(3) 0.5690(3) 0.7500
O1_7 O 0.5690(3) 0.7500 0.4310(3)
O1_8 O 0.4310(3) 0.7500 0.5690(3)
O1_9 O 0.5690(3) 0.2500 0.5690(3)
O1_10 O 0.7500 0.5690(3) 0.4310(3)
O1_11 O 0.7500 0.4310(3) 0.5690(3)
O1_12 O 0.2500 0.5690(3) 0.5690(3)
O1_13 O 0.0690(3) 0.5690(3) 0.7500
O1_14 O 0.0690(3) 0.7500 0.5690(3)
O1_15 O 0.5690(3) 0.0690(3) 0.7500
O1_16 O 0.5690(3) 0.9310(3) 0.2500
O1_17 O 0.4310(3) 0.0690(3) 0.2500
O1_18 O 0.5690(3) 0.2500 0.9310(3)
O1_19 O 0.4310(3) 0.2500 0.0690(3)
O1_20 O 0.5690(3) 0.7500 0.0690(3)
O1_21 O 0.7500 0.0690(3) 0.9310(3)
O1_22 O 0.7500 0.9310(3) 0.0690(3)
O1_23 O 0.7500 0.0690(3) 0.5690(3)
O1_24 O 0.0690(3) 0.4310(3) 0.2500
O1_25 O 0.9310(3) 0.5690(3) 0.2500
O1_26 O 0.0690(3) 0.7500 0.9310(3)
O1_27 O 0.9310(3) 0.7500 0.0690(3)
O1_28 O 0.2500 0.5690(3) 0.9310(3)
O1_29 O 0.2500 0.4310(3) 0.0690(3)
O1_30 O 0.7500 0.5690(3) 0.0690(3)
O1_31 O 0.0690(3) 0.9310(3) 0.7500
O1_32 O 0.9310(3) 0.0690(3) 0.7500
O1_33 O 0.0690(3) 0.2500 0.4310(3)
O1_34 O 0.9310(3) 0.2500 0.5690(3)
O1_35 O 0.2500 0.0690(3) 0.4310(3)
O1_36 O 0.2500 0.9310(3) 0.5690(3)
O1_37 O 0.9310(3) 0.9310(3) 0.2500
O1_38 O 0.2500 0.9310(3) 0.9310(3)
O1_39 O 0.9310(3) 0.2500 0.9310(3)
O1_40 O 0.4310(3) 0.4310(3) 0.2500
O1_41 O 0.4310(3) 0.2500 0.4310(3)
O1_42 O 0.2500 0.4310(3) 0.4310(3)
O1_43 O 0.9310(3) 0.4310(3) 0.7500
O1_44 O 0.9310(3) 0.7500 0.4310(3)
O1_45 O 0.4310(3) 0.9310(3) 0.7500
O1_46 O 0.4310(3) 0.7500 0.9310(3)
O1_47 O 0.7500 0.9310(3) 0.4310(3)
O1_48 O 0.7500 0.4310(3) 0.9310(3)
O1_49 O 0.9310(3) 0.9310(3) 0.7500
O1_50 O 0.7500 0.9310(3) 0.9310(3)
O1_51 O 0.9310(3) 0.7500 0.9310(3)
O1_52 O 0.4310(3) 0.4310(3) 0.7500
O1_53 O 0.4310(3) 0.5690(3) 0.2500
O1_54 O 0.5690(3) 0.4310(3) 0.2500
O1_55 O 0.4310(3) 0.2500 0.5690(3)
O1_56 O 0.5690(3) 0.2500 0.4310(3)
O1_57 O 0.4310(3) 0.7500 0.4310(3)
O1_58 O 0.2500 0.4310(3) 0.5690(3)
O1_59 O 0.2500 0.5690(3) 0.4310(3)
O1_60 O 0.7500 0.4310(3) 0.4310(3)
O1_61 O 0.9310(3) 0.4310(3) 0.2500
O1_62 O 0.9310(3) 0.2500 0.4310(3)
O1_63 O 0.4310(3) 0.9310(3) 0.2500
O1_64 O 0.4310(3) 0.0690(3) 0.7500
O1_65 O 0.5690(3) 0.9310(3) 0.7500
O1_66 O 0.4310(3) 0.7500 0.0690(3)
O1_67 O 0.5690(3) 0.7500 0.9310(3)
O1_68 O 0.4310(3) 0.2500 0.9310(3)
O1_69 O 0.2500 0.9310(3) 0.0690(3)
O1_70 O 0.2500 0.0690(3) 0.9310(3)
O1_71 O 0.2500 0.9310(3) 0.4310(3)
O1_72 O 0.9310(3) 0.5690(3) 0.7500
O1_73 O 0.0690(3) 0.4310(3) 0.7500
O1_74 O 0.9310(3) 0.2500 0.0690(3)
O1_75 O 0.0690(3) 0.2500 0.9310(3)
O1_76 O 0.7500 0.4310(3) 0.0690(3)
O1_77 O 0.7500 0.5690(3) 0.9310(3)
O1_78 O 0.2500 0.4310(3) 0.9310(3)
O1_79 O 0.9310(3) 0.0690(3) 0.2500
O1_80 O 0.0690(3) 0.9310(3) 0.2500
O1_81 O 0.9310(3) 0.7500 0.5690(3)
O1_82 O 0.0690(3) 0.7500 0.4310(3)
O1_83 O 0.7500 0.9310(3) 0.5690(3)
O1_84 O 0.7500 0.0690(3) 0.4310(3)
O1_85 O 0.0690(3) 0.0690(3) 0.7500
O1_86 O 0.7500 0.0690(3) 0.0690(3)
O1_87 O 0.0690(3) 0.7500 0.0690(3)
O1_88 O 0.5690(3) 0.5690(3) 0.7500
O1_89 O 0.5690(3) 0.7500 0.5690(3)
O1_90 O 0.7500 0.5690(3) 0.5690(3)
O1_91 O 0.0690(3) 0.5690(3) 0.2500
O1_92 O 0.0690(3) 0.2500 0.5690(3)
O1_93 O 0.5690(3) 0.0690(3) 0.2500
O1_94 O 0.5690(3) 0.2500 0.0690(3)
O1_95 O 0.2500 0.0690(3) 0.5690(3)
O1_96 O 0.2500 0.5690(3) 0.0690(3)
Cd1 Cd 0.0000 0.201514(5) 0.224535(5)
O2 O 0.03357(4) 0.17038(4) 0.23888(4)
O3 O 0.02929(4) 0.20644(4) 0.26602(4)
O4 O 0.0000 0.2500 0.2500
C1 C 0.04023(5) 0.18327(6) 0.26034(6)
C2 C 0.06226(6) 0.17168(6) 0.27868(6)
C3 C 0.07116(6) 0.18635(7) 0.30158(6)
H1 H 0.0628 0.2034 0.3063
C4 C 0.09248(6) 0.17576(7) 0.31747(6)
C5 C 0.10567(6) 0.15110(7) 0.31067(6)
C6 C 0.09603(7) 0.13615(7) 0.28807(7)
H2 H 0.1043 0.1190 0.2834
C7 C 0.07433(7) 0.14642(7) 0.27249(6)
H3 H 0.0676 0.1360 0.2573
C8 C 0.10406(7) 0.18844(7) 0.34348(7)
C9 C 0.12696(6) 0.16792(7) 0.35063(7)
C10 C 0.12825(6) 0.14649(7) 0.33086(7)
C11 C 0.11573(11) 0.21728(9) 0.33635(10)
H4 H 0.1005 0.2288 0.3290
H5 H 0.1223 0.2261 0.3536
C12 C 0.13907(12) 0.21735(11) 0.31566(14)
H6 H 0.1555 0.2091 0.3240
H7 H 0.1431 0.2364 0.3101
H8 H 0.1337 0.2066 0.2994
C13 C 0.07939(9) 0.18835(11) 0.36542(9)
H9 H 0.0864 0.1961 0.3830
H10 H 0.0648 0.2010 0.3587
C14 C 0.06636(13) 0.16078(13) 0.37146(13)
H11 H 0.0587 0.1530 0.3544
H12 H 0.0515 0.1632 0.3850
H13 H 0.0803 0.1482 0.3789
O5 O -0.0000 0.17827(8) 0.18258(7)
Cd2 Cd 0.0000 0.224535(5) 0.298486(5)
Cd3 Cd 0.0000 0.275465(5) 0.201514(5)
Cd4 Cd 0.0000 0.298486(5) 0.275465(5)
Cd5 Cd 0.275465(5) 0.298486(5) 0.5000
Cd6 Cd 0.201514(5) 0.275465(5) 0.5000
Cd7 Cd 0.201514(5) 0.5000 0.224535(5)
Cd8 Cd 0.224535(5) 0.5000 0.298486(5)
Cd16 Cd 0.224535(5) 0.201514(5) 0.5000
Cd17 Cd 0.275465(5) 0.0000 0.298486(5)
Cd18 Cd 0.201514(5) 0.0000 0.275465(5)
O8 O 0.03357(4) 0.32962(4) 0.26112(4)
O9 O 0.03357(4) 0.26112(4) 0.17038(4)
O11 O 0.03357(4) 0.23888(4) 0.32962(4)
O13 O 0.26112(4) 0.32962(4) 0.46643(4)
O14 O 0.17038(4) 0.46643(4) 0.23888(4)
O19 O 0.17038(4) 0.26112(4) 0.46643(4)
O20 O 0.26112(4) 0.03357(4) 0.32962(4)
O21 O 0.02929(4) 0.23398(4) 0.20644(4)
O24 O 0.02929(4) 0.26602(4) 0.29356(4)
O27 O 0.02929(4) 0.29356(4) 0.23398(4)
O28 O 0.23398(4) 0.29356(4) 0.47071(4)
O29 O 0.20644(4) 0.47071(4) 0.26602(4)
O34 O 0.20644(4) 0.23398(4) 0.47071(4)
O35 O 0.23398(4) 0.02929(4) 0.29356(4)
C15 C 0.04023(5) 0.26034(6) 0.31673(6)
C16 C 0.23966(6) 0.31673(6) 0.45977(5)
C17 C 0.18327(6) 0.45977(5) 0.26034(6)
C24 C 0.18327(6) 0.23966(6) 0.45977(5)
C25 C 0.23966(6) 0.04023(5) 0.31673(6)
C26 C 0.06226(6) 0.27868(6) 0.32832(6)
C27 C 0.22132(6) 0.32832(6) 0.43774(6)
C28 C 0.17168(6) 0.43774(6) 0.27868(6)
C35 C 0.17168(6) 0.22132(6) 0.43774(6)
C36 C 0.22132(6) 0.06226(6) 0.32832(6)
C37 C 0.07116(6) 0.30158(6) 0.31365(7)
C38 C 0.19842(6) 0.31365(7) 0.42884(6)
C39 C 0.18635(7) 0.42884(6) 0.30158(6)
C46 C 0.18635(7) 0.19842(6) 0.42884(6)
C47 C 0.19842(6) 0.07116(6) 0.31365(7)
H14 H 0.0628 0.3063 0.2966
H15 H 0.1937 0.2966 0.4372
H16 H 0.2034 0.4372 0.3063
H23 H 0.2034 0.1937 0.4372
H24 H 0.1937 0.0628 0.2966
C48 C 0.09248(6) 0.31747(6) 0.32424(7)
C49 C 0.18253(6) 0.32424(7) 0.40752(6)
C50 C 0.17576(7) 0.40752(6) 0.31747(6)
C57 C 0.17576(7) 0.18253(6) 0.40752(6)
C58 C 0.18253(6) 0.09248(6) 0.32424(7)
C59 C 0.10567(6) 0.31067(6) 0.34890(7)
C60 C 0.15110(7) 0.39433(6) 0.31067(6)
C61 C 0.18933(6) 0.34890(7) 0.39433(6)
C68 C 0.15110(7) 0.18933(6) 0.39433(6)
C69 C 0.18933(6) 0.10567(6) 0.34890(7)
C70 C 0.09603(7) 0.28807(7) 0.36385(7)
C71 C 0.13615(7) 0.40397(7) 0.28807(7)
C72 C 0.21193(7) 0.36385(7) 0.40397(7)
C79 C 0.13615(7) 0.21193(7) 0.40397(7)
C80 C 0.21193(7) 0.09603(7) 0.36385(7)
H25 H 0.1043 0.2834 0.3810
H26 H 0.1190 0.3957 0.2834
H27 H 0.2166 0.3810 0.3957
H34 H 0.1190 0.2166 0.3957
H35 H 0.2166 0.1043 0.3810
C81 C 0.07433(7) 0.27249(6) 0.35358(7)
C82 C 0.14642(7) 0.42567(7) 0.27249(6)
C83 C 0.22751(6) 0.35358(7) 0.42567(7)
C90 C 0.14642(7) 0.22751(6) 0.42567(7)
C91 C 0.22751(6) 0.07433(7) 0.35358(7)
H36 H 0.0676 0.2573 0.3640
H37 H 0.1360 0.4324 0.2573
H38 H 0.2427 0.3640 0.4324
H45 H 0.1360 0.2427 0.4324
H46 H 0.2427 0.0676 0.3640
C92 C 0.10406(7) 0.34348(7) 0.31156(7)
C93 C 0.15652(7) 0.31156(7) 0.39594(7)
C94 C 0.18844(7) 0.39594(7) 0.34348(7)
C101 C 0.15652(7) 0.10406(7) 0.31156(7)
C102 C 0.18844(7) 0.15652(7) 0.39594(7)
C103 C 0.14937(7) 0.12696(6) 0.33208(7)
C104 C 0.12696(6) 0.35063(7) 0.33208(7)
C105 C 0.14937(7) 0.33208(7) 0.37304(6)
C106 C 0.16792(7) 0.37304(6) 0.35063(7)
C113 C 0.16792(7) 0.14937(7) 0.37304(6)
C114 C 0.14649(7) 0.16914(7) 0.37175(6)
C115 C 0.12825(6) 0.33086(7) 0.35351(7)
C116 C 0.14649(7) 0.37175(6) 0.33086(7)
C117 C 0.16914(7) 0.35351(7) 0.37175(6)
C124 C 0.16914(7) 0.12825(6) 0.35351(7)
C125 C 0.11573(11) 0.33635(10) 0.28272(9)
C126 C 0.16365(10) 0.28272(9) 0.38427(11)
C127 C 0.21728(9) 0.38427(11) 0.33635(10)
C134 C 0.16365(10) 0.11573(11) 0.28272(9)
C135 C 0.21728(9) 0.16365(10) 0.38427(11)
H47 H 0.1005 0.3290 0.2712
H48 H 0.1710 0.2712 0.3995
H49 H 0.2288 0.3995 0.3290
H56 H 0.1710 0.1005 0.2712
H57 H 0.2288 0.1710 0.3995
H58 H 0.1223 0.3536 0.2739
H59 H 0.1464 0.2739 0.3777
H60 H 0.2261 0.3777 0.3536
H67 H 0.1464 0.1223 0.2739
H68 H 0.2261 0.1464 0.3777
C136 C 0.13907(12) 0.31566(14) 0.28265(11)
C137 C 0.18434(14) 0.28265(11) 0.36093(12)
C138 C 0.21735(11) 0.36093(12) 0.31566(14)
C145 C 0.18434(14) 0.13907(12) 0.28265(11)
C146 C 0.21735(11) 0.18434(14) 0.36093(12)
H69 H 0.1555 0.3240 0.2909
H70 H 0.1760 0.2909 0.3445
H71 H 0.2091 0.3445 0.3240
H78 H 0.1760 0.1555 0.2909
H79 H 0.2091 0.1760 0.3445
H80 H 0.1431 0.3101 0.2636
H81 H 0.1899 0.2636 0.3569
H82 H 0.2364 0.3569 0.3101
H89 H 0.1899 0.1431 0.2636
H90 H 0.2364 0.1899 0.3569
H91 H 0.1337 0.2994 0.2934
H92 H 0.2006 0.2934 0.3663
H93 H 0.2066 0.3663 0.2994
H100 H 0.2006 0.1337 0.2934
H101 H 0.2066 0.2006 0.3663
C147 C 0.07939(9) 0.36542(9) 0.31165(11)
C148 C 0.13458(9) 0.31165(11) 0.42061(9)
C149 C 0.18835(11) 0.42061(9) 0.36542(9)
C156 C 0.13458(9) 0.07939(9) 0.31165(11)
C157 C 0.18835(11) 0.13458(9) 0.42061(9)
H102 H 0.0864 0.3830 0.3039
H103 H 0.1170 0.3039 0.4136
H104 H 0.1961 0.4136 0.3830
H111 H 0.1170 0.0864 0.3039
H112 H 0.1961 0.1170 0.4136
H113 H 0.0648 0.3587 0.2990
H114 H 0.1413 0.2990 0.4352
H115 H 0.2010 0.4352 0.3587
H122 H 0.1413 0.0648 0.2990
H123 H 0.2010 0.1413 0.4352
C158 C 0.06636(13) 0.37146(13) 0.33922(13)
C159 C 0.12854(13) 0.33922(13) 0.43364(13)
C160 C 0.16078(13) 0.43364(13) 0.37146(13)
C167 C 0.12854(13) 0.06636(13) 0.33922(13)
C168 C 0.16078(13) 0.12854(13) 0.43364(13)
H124 H 0.0587 0.3544 0.3470
H125 H 0.1456 0.3470 0.4413
H126 H 0.1530 0.4413 0.3544
H133 H 0.1456 0.0587 0.3470
H134 H 0.1530 0.1456 0.4413
H135 H 0.0515 0.3850 0.3368
H136 H 0.1150 0.3368 0.4485
H137 H 0.1632 0.4485 0.3850
H144 H 0.1150 0.0515 0.3368
H145 H 0.1632 0.1150 0.4485
H146 H 0.0803 0.3789 0.3518
H147 H 0.1211 0.3518 0.4197
H148 H 0.1482 0.4197 0.3789
H155 H 0.1211 0.0803 0.3518
H156 H 0.1482 0.1211 0.4197
O36 O -0.0000 0.32173(8) 0.31742(7)
O37 O -0.0000 0.31742(7) 0.17827(8)
O38 O -0.0000 0.18258(7) 0.32173(8)
Cd17_2 Cd 0.275465(5) 1.0000 0.298486(5)
Cd18_2 Cd 0.201514(5) 1.0000 0.275465(5)
Cd1_2 Cd 1.0000 0.201514(5) 0.224535(5)
O4_2 O 1.0000 0.2500 0.2500
O5_2 O 1.0000 0.17827(8) 0.18258(7)
Cd2_2 Cd 1.0000 0.224535(5) 0.298486(5)
Cd3_2 Cd 1.0000 0.275465(5) 0.201514(5)
Cd4_2 Cd 1.0000 0.298486(5) 0.275465(5)
Cd9 Cd 0.724535(5) 0.201514(5) 0.0000
Cd10 Cd 0.798486(5) 0.224535(5) 0.0000
Cd11 Cd 0.798486(5) 0.0000 0.275465(5)
Cd12 Cd 0.775465(5) -0.0000 0.201514(5)
Cd13 Cd 0.724535(5) 0.5000 0.201514(5)
Cd14 Cd 0.798486(5) 0.5000 0.224535(5)
Cd15 Cd 0.775465(5) 0.298486(5) 0.0000
O6 O 0.96643(4) 0.17038(4) 0.23888(4)
O7 O 0.96643(4) 0.32962(4) 0.26112(4)
O10 O 0.96643(4) 0.26112(4) 0.17038(4)
O12 O 0.96643(4) 0.23888(4) 0.32962(4)
O15 O 0.73888(4) 0.17038(4) 0.03357(4)
O16 O 0.82962(4) 0.03357(4) 0.26112(4)
O17 O 0.73888(4) 0.46643(4) 0.17038(4)
O18 O 0.82962(4) 0.23888(4) 0.03357(4)
O22 O 0.97071(4) 0.20644(4) 0.26602(4)
O23 O 0.97071(4) 0.23398(4) 0.20644(4)
O25 O 0.97071(4) 0.29356(4) 0.23398(4)
O26 O 0.97071(4) 0.26602(4) 0.29356(4)
O30 O 0.76602(4) 0.20644(4) 0.02929(4)
O31 O 0.79356(4) 0.02929(4) 0.23398(4)
O32 O 0.76602(4) 0.47071(4) 0.20644(4)
O33 O 0.79356(4) 0.26602(4) 0.02929(4)
C18 C 0.95977(5) 0.23966(6) 0.18327(6)
C19 C 0.76034(6) 0.18327(6) 0.04023(5)
C20 C 0.81673(6) 0.04023(5) 0.23966(6)
C21 C 0.95977(5) 0.31673(6) 0.23966(6)
C22 C 0.76034(6) 0.45977(5) 0.18327(6)
C23 C 0.81673(6) 0.26034(6) 0.04023(5)
C29 C 0.93774(6) 0.22132(6) 0.17168(6)
C30 C 0.77868(6) 0.17168(6) 0.06226(6)
C31 C 0.82832(6) 0.06226(6) 0.22132(6)
C32 C 0.93774(6) 0.32832(6) 0.22132(6)
C33 C 0.77868(6) 0.43774(6) 0.17168(6)
C34 C 0.82832(6) 0.27868(6) 0.06226(6)
C40 C 0.92884(6) 0.19842(6) 0.18635(7)
C41 C 0.80158(6) 0.18635(7) 0.07116(6)
C42 C 0.81365(7) 0.07116(6) 0.19842(6)
C43 C 0.92884(6) 0.31365(7) 0.19842(6)
C44 C 0.80158(6) 0.42884(6) 0.18635(7)
C45 C 0.81365(7) 0.30158(6) 0.07116(6)
H17 H 0.9372 0.1937 0.2034
H18 H 0.8063 0.2034 0.0628
H19 H 0.7966 0.0628 0.1937
H20 H 0.9372 0.2966 0.1937
H21 H 0.8063 0.4372 0.2034
H22 H 0.7966 0.3063 0.0628
C51 C 0.90752(6) 0.18253(6) 0.17576(7)
C52 C 0.81747(6) 0.17576(7) 0.09248(6)
C53 C 0.82424(7) 0.09248(6) 0.18253(6)
C54 C 0.90752(6) 0.32424(7) 0.18253(6)
C55 C 0.81747(6) 0.40752(6) 0.17576(7)
C56 C 0.82424(7) 0.31747(6) 0.09248(6)
C62 C 0.89433(6) 0.18933(6) 0.15110(7)
C63 C 0.84890(7) 0.10567(6) 0.18933(6)
C64 C 0.81067(6) 0.15110(7) 0.10567(6)
C65 C 0.89433(6) 0.34890(7) 0.18933(6)
C66 C 0.84890(7) 0.31067(6) 0.10567(6)
C67 C 0.81067(6) 0.39433(6) 0.15110(7)
C73 C 0.90397(7) 0.21193(7) 0.13615(7)
C74 C 0.86385(7) 0.09603(7) 0.21193(7)
C75 C 0.78807(7) 0.13615(7) 0.09603(7)
C76 C 0.90397(7) 0.36385(7) 0.21193(7)
C77 C 0.86385(7) 0.28807(7) 0.09603(7)
C78 C 0.78807(7) 0.40397(7) 0.13615(7)
H28 H 0.8957 0.2166 0.1190
H29 H 0.8810 0.1043 0.2166
H30 H 0.7834 0.1190 0.1043
H31 H 0.8957 0.3810 0.2166
H32 H 0.8810 0.2834 0.1043
H33 H 0.7834 0.3957 0.1190
C84 C 0.92567(7) 0.22751(6) 0.14642(7)
C85 C 0.85358(7) 0.07433(7) 0.22751(6)
C86 C 0.77249(6) 0.14642(7) 0.07433(7)
C87 C 0.92567(7) 0.35358(7) 0.22751(6)
C88 C 0.85358(7) 0.27249(6) 0.07433(7)
C89 C 0.77249(6) 0.42567(7) 0.14642(7)
H39 H 0.9324 0.2427 0.1360
H40 H 0.8640 0.0676 0.2427
H41 H 0.7573 0.1360 0.0676
H42 H 0.9324 0.3640 0.2427
H43 H 0.8640 0.2573 0.0676
H44 H 0.7573 0.4324 0.1360
C95 C 0.89594(7) 0.15652(7) 0.18844(7)
C96 C 0.84348(7) 0.18844(7) 0.10406(7)
C97 C 0.81156(7) 0.10406(7) 0.15652(7)
C98 C 0.89594(7) 0.31156(7) 0.15652(7)
C99 C 0.84348(7) 0.39594(7) 0.18844(7)
C100 C 0.81156(7) 0.34348(7) 0.10406(7)
C107 C 0.87304(6) 0.14937(7) 0.16792(7)
C108 C 0.85063(7) 0.16792(7) 0.12696(6)
C109 C 0.83208(7) 0.12696(6) 0.14937(7)
C110 C 0.87304(6) 0.33208(7) 0.14937(7)
C111 C 0.85063(7) 0.37304(6) 0.16792(7)
C112 C 0.83208(7) 0.35063(7) 0.12696(6)
C118 C 0.87175(6) 0.16914(7) 0.14649(7)
C119 C 0.85351(7) 0.12825(6) 0.16914(7)
C120 C 0.83086(7) 0.14649(7) 0.12825(6)
C121 C 0.87175(6) 0.35351(7) 0.16914(7)
C122 C 0.85351(7) 0.33086(7) 0.12825(6)
C123 C 0.83086(7) 0.37175(6) 0.14649(7)
C128 C 0.88427(11) 0.16365(10) 0.21728(9)
C129 C 0.83635(10) 0.21728(9) 0.11573(11)
C130 C 0.78272(9) 0.11573(11) 0.16365(10)
C131 C 0.88427(11) 0.28272(9) 0.16365(10)
C132 C 0.83635(10) 0.38427(11) 0.21728(9)
C133 C 0.78272(9) 0.33635(10) 0.11573(11)
H50 H 0.8995 0.1710 0.2288
H51 H 0.8290 0.2288 0.1005
H52 H 0.7712 0.1005 0.1710
H53 H 0.8995 0.2712 0.1710
H54 H 0.8290 0.3995 0.2288
H55 H 0.7712 0.3290 0.1005
H61 H 0.8777 0.1464 0.2261
H62 H 0.8536 0.2261 0.1223
H63 H 0.7739 0.1223 0.1464
H64 H 0.8777 0.2739 0.1464
H65 H 0.8536 0.3777 0.2261
H66 H 0.7739 0.3536 0.1223
C139 C 0.86093(12) 0.18434(14) 0.21735(11)
C140 C 0.81566(14) 0.21735(11) 0.13907(12)
C141 C 0.78265(11) 0.13907(12) 0.18434(14)
C142 C 0.86093(12) 0.28265(11) 0.18434(14)
C143 C 0.81566(14) 0.36093(12) 0.21735(11)
C144 C 0.78265(11) 0.31566(14) 0.13907(12)
H72 H 0.8445 0.1760 0.2091
H73 H 0.8240 0.2091 0.1555
H74 H 0.7909 0.1555 0.1760
H75 H 0.8445 0.2909 0.1760
H76 H 0.8240 0.3445 0.2091
H77 H 0.7909 0.3240 0.1555
H83 H 0.8569 0.1899 0.2364
H84 H 0.8101 0.2364 0.1431
H85 H 0.7636 0.1431 0.1899
H86 H 0.8569 0.2636 0.1899
H87 H 0.8101 0.3569 0.2364
H88 H 0.7636 0.3101 0.1431
H94 H 0.8663 0.2006 0.2066
H95 H 0.7994 0.2066 0.1337
H96 H 0.7934 0.1337 0.2006
H97 H 0.8663 0.2934 0.2006
H98 H 0.7994 0.3663 0.2066
H99 H 0.7934 0.2994 0.1337
C150 C 0.92061(9) 0.13458(9) 0.18835(11)
C151 C 0.86542(9) 0.18835(11) 0.07939(9)
C152 C 0.81165(11) 0.07939(9) 0.13458(9)
C153 C 0.92061(9) 0.31165(11) 0.13458(9)
C154 C 0.86542(9) 0.42061(9) 0.18835(11)
C155 C 0.81165(11) 0.36542(9) 0.07939(9)
H105 H 0.9136 0.1170 0.1961
H106 H 0.8830 0.1961 0.0864
H107 H 0.8039 0.0864 0.1170
H108 H 0.9136 0.3039 0.1170
H109 H 0.8830 0.4136 0.1961
H110 H 0.8039 0.3830 0.0864
H116 H 0.9352 0.1413 0.2010
H117 H 0.8587 0.2010 0.0648
H118 H 0.7990 0.0648 0.1413
H119 H 0.9352 0.2990 0.1413
H120 H 0.8587 0.4352 0.2010
H121 H 0.7990 0.3587 0.0648
C161 C 0.93364(13) 0.12854(13) 0.16078(13)
C162 C 0.87146(13) 0.16078(13) 0.06636(13)
C163 C 0.83922(13) 0.06636(13) 0.12854(13)
C164 C 0.93364(13) 0.33922(13) 0.12854(13)
C165 C 0.87146(13) 0.43364(13) 0.16078(13)
C166 C 0.83922(13) 0.37146(13) 0.06636(13)
H127 H 0.9413 0.1456 0.1530
H128 H 0.8544 0.1530 0.0587
H129 H 0.8470 0.0587 0.1456
H130 H 0.9413 0.3470 0.1456
H131 H 0.8544 0.4413 0.1530
H132 H 0.8470 0.3544 0.0587
H138 H 0.9485 0.1150 0.1632
H139 H 0.8850 0.1632 0.0515
H140 H 0.8368 0.0515 0.1150
H141 H 0.9485 0.3368 0.1150
H142 H 0.8850 0.4485 0.1632
H143 H 0.8368 0.3850 0.0515
H149 H 0.9197 0.1211 0.1482
H150 H 0.8789 0.1482 0.0803
H151 H 0.8518 0.0803 0.1211
H152 H 0.9197 0.3518 0.1211
H153 H 0.8789 0.4197 0.1482
H154 H 0.8518 0.3789 0.0803
O36_2 O 1.0000 0.32173(8) 0.31742(7)
O37_2 O 1.0000 0.31742(7) 0.17827(8)
O38_2 O 1.0000 0.18258(7) 0.32173(8)
Cd9_2 Cd 0.724535(5) 0.201514(5) 1.0000
Cd10_2 Cd 0.798486(5) 0.224535(5) 1.0000
Cd15_2 Cd 0.775465(5) 0.298486(5) 1.0000
Cd11_2 Cd 0.798486(5) 1.0000 0.275465(5)
Cd12_2 Cd 0.775465(5) 1.0000 0.201514(5)
Cd1_3 Cd 0.224535(5) 0.0000 0.201514(5)
O2_2 O 0.23888(4) 0.03357(4) 0.17038(4)
O3_2 O 0.26602(4) 0.02929(4) 0.20644(4)
O4_3 O 0.2500 -0.0000 0.2500
C1_2 C 0.26034(6) 0.04023(5) 0.18327(6)
C2_2 C 0.27868(6) 0.06226(6) 0.17168(6)
C3_2 C 0.30158(6) 0.07116(6) 0.18635(7)
H1_2 H 0.3063 0.0628 0.2034
C4_2 C 0.31747(6) 0.09248(6) 0.17576(7)
C5_2 C 0.31067(6) 0.10567(6) 0.15110(7)
C6_2 C 0.28807(7) 0.09603(7) 0.13615(7)
H2_2 H 0.2834 0.1043 0.1190
C7_2 C 0.27249(6) 0.07433(7) 0.14642(7)
H3_2 H 0.2573 0.0676 0.1360
C8_2 C 0.34348(7) 0.10406(7) 0.18844(7)
C9_2 C 0.35063(7) 0.12696(6) 0.16792(7)
C10_2 C 0.33086(7) 0.12825(6) 0.14649(7)
C11_2 C 0.33635(10) 0.11573(11) 0.21728(9)
H4_2 H 0.3290 0.1005 0.2288
H5_2 H 0.3536 0.1223 0.2261
C12_2 C 0.31566(14) 0.13907(12) 0.21735(11)
H6_2 H 0.3240 0.1555 0.2091
H7_2 H 0.3101 0.1431 0.2364
H8_2 H 0.2994 0.1337 0.2066
C13_2 C 0.36542(9) 0.07939(9) 0.18835(11)
H9_2 H 0.3830 0.0864 0.1961
H10_2 H 0.3587 0.0648 0.2010
C14_2 C 0.37146(13) 0.06636(13) 0.16078(13)
H11_2 H 0.3544 0.0587 0.1530
H12_2 H 0.3850 0.0515 0.1632
H13_2 H 0.3789 0.0803 0.1482
O5_3 O 0.18258(7) -0.0000 0.17827(8)
Cd2_3 Cd 0.298486(5) -0.0000 0.224535(5)
Cd5_2 Cd 0.5000 0.275465(5) 0.298486(5)
Cd6_2 Cd 0.5000 0.201514(5) 0.275465(5)
Cd8_2 Cd 0.298486(5) 0.224535(5) 0.5000
Cd16_2 Cd 0.5000 0.224535(5) 0.201514(5)
Cd17_3 Cd 0.298486(5) 0.275465(5) 0.0000
Cd18_3 Cd 0.275465(5) 0.201514(5) 0.0000
O9_2 O 0.17038(4) 0.03357(4) 0.26112(4)
O11_2 O 0.32962(4) 0.03357(4) 0.23888(4)
O13_2 O 0.46643(4) 0.26112(4) 0.32962(4)
O14_2 O 0.23888(4) 0.17038(4) 0.46643(4)
O19_2 O 0.46643(4) 0.17038(4) 0.26112(4)
O20_2 O 0.32962(4) 0.26112(4) 0.03357(4)
O21_2 O 0.20644(4) 0.02929(4) 0.23398(4)
O24_2 O 0.29356(4) 0.02929(4) 0.26602(4)
O28_2 O 0.47071(4) 0.23398(4) 0.29356(4)
O29_2 O 0.26602(4) 0.20644(4) 0.47071(4)
O34_2 O 0.47071(4) 0.20644(4) 0.23398(4)
O35_2 O 0.29356(4) 0.23398(4) 0.02929(4)
C15_2 C 0.31673(6) 0.04023(5) 0.26034(6)
C16_2 C 0.45977(5) 0.23966(6) 0.31673(6)
C17_2 C 0.26034(6) 0.18327(6) 0.45977(5)
C24_2 C 0.45977(5) 0.18327(6) 0.23966(6)
C25_2 C 0.31673(6) 0.23966(6) 0.04023(5)
C26_2 C 0.32832(6) 0.06226(6) 0.27868(6)
C27_2 C 0.43774(6) 0.22132(6) 0.32832(6)
C28_2 C 0.27868(6) 0.17168(6) 0.43774(6)
C35_2 C 0.43774(6) 0.17168(6) 0.22132(6)
C36_2 C 0.32832(6) 0.22132(6) 0.06226(6)
C37_2 C 0.31365(7) 0.07116(6) 0.30158(6)
C38_2 C 0.42884(6) 0.19842(6) 0.31365(7)
C39_2 C 0.30158(6) 0.18635(7) 0.42884(6)
C46_2 C 0.42884(6) 0.18635(7) 0.19842(6)
C47_2 C 0.31365(7) 0.19842(6) 0.07116(6)
H14_2 H 0.2966 0.0628 0.3063
H15_2 H 0.4372 0.1937 0.2966
H16_2 H 0.3063 0.2034 0.4372
H23_2 H 0.4372 0.2034 0.1937
H24_2 H 0.2966 0.1937 0.0628
C48_2 C 0.32424(7) 0.09248(6) 0.31747(6)
C49_2 C 0.40752(6) 0.18253(6) 0.32424(7)
C50_2 C 0.31747(6) 0.17576(7) 0.40752(6)
C57_2 C 0.40752(6) 0.17576(7) 0.18253(6)
C58_2 C 0.32424(7) 0.18253(6) 0.09248(6)
C59_2 C 0.34890(7) 0.10567(6) 0.31067(6)
C60_2 C 0.31067(6) 0.15110(7) 0.39433(6)
C61_2 C 0.39433(6) 0.18933(6) 0.34890(7)
C68_2 C 0.39433(6) 0.15110(7) 0.18933(6)
C69_2 C 0.34890(7) 0.18933(6) 0.10567(6)
C70_2 C 0.36385(7) 0.09603(7) 0.28807(7)
C71_2 C 0.28807(7) 0.13615(7) 0.40397(7)
C72_2 C 0.40397(7) 0.21193(7) 0.36385(7)
C79_2 C 0.40397(7) 0.13615(7) 0.21193(7)
C80_2 C 0.36385(7) 0.21193(7) 0.09603(7)
H25_2 H 0.3810 0.1043 0.2834
H26_2 H 0.2834 0.1190 0.3957
H27_2 H 0.3957 0.2166 0.3810
H34_2 H 0.3957 0.1190 0.2166
H35_2 H 0.3810 0.2166 0.1043
C81_2 C 0.35358(7) 0.07433(7) 0.27249(6)
C82_2 C 0.27249(6) 0.14642(7) 0.42567(7)
C83_2 C 0.42567(7) 0.22751(6) 0.35358(7)
C90_2 C 0.42567(7) 0.14642(7) 0.22751(6)
C91_2 C 0.35358(7) 0.22751(6) 0.07433(7)
H36_2 H 0.3640 0.0676 0.2573
H37_2 H 0.2573 0.1360 0.4324
H38_2 H 0.4324 0.2427 0.3640
H45_2 H 0.4324 0.1360 0.2427
H46_2 H 0.3640 0.2427 0.0676
C92_2 C 0.31156(7) 0.10406(7) 0.34348(7)
C93_2 C 0.39594(7) 0.15652(7) 0.31156(7)
C94_2 C 0.34348(7) 0.18844(7) 0.39594(7)
C101_2 C 0.31156(7) 0.15652(7) 0.10406(7)
C102_2 C 0.39594(7) 0.18844(7) 0.15652(7)
C103_2 C 0.33208(7) 0.14937(7) 0.12696(6)
C104_2 C 0.33208(7) 0.12696(6) 0.35063(7)
C105_2 C 0.37304(6) 0.14937(7) 0.33208(7)
C106_2 C 0.35063(7) 0.16792(7) 0.37304(6)
C113_2 C 0.37304(6) 0.16792(7) 0.14937(7)
C114_2 C 0.37175(6) 0.14649(7) 0.16914(7)
C115_2 C 0.35351(7) 0.12825(6) 0.33086(7)
C116_2 C 0.33086(7) 0.14649(7) 0.37175(6)
C117_2 C 0.37175(6) 0.16914(7) 0.35351(7)
C124_2 C 0.35351(7) 0.16914(7) 0.12825(6)
C125_2 C 0.28272(9) 0.11573(11) 0.33635(10)
C126_2 C 0.38427(11) 0.16365(10) 0.28272(9)
C127_2 C 0.33635(10) 0.21728(9) 0.38427(11)
C134_2 C 0.28272(9) 0.16365(10) 0.11573(11)
C135_2 C 0.38427(11) 0.21728(9) 0.16365(10)
H47_2 H 0.2712 0.1005 0.3290
H48_2 H 0.3995 0.1710 0.2712
H49_2 H 0.3290 0.2288 0.3995
H56_2 H 0.2712 0.1710 0.1005
H57_2 H 0.3995 0.2288 0.1710
H58_2 H 0.2739 0.1223 0.3536
H59_2 H 0.3777 0.1464 0.2739
H60_2 H 0.3536 0.2261 0.3777
H67_2 H 0.2739 0.1464 0.1223
H68_2 H 0.3777 0.2261 0.1464
C136_2 C 0.28265(11) 0.13907(12) 0.31566(14)
C137_2 C 0.36093(12) 0.18434(14) 0.28265(11)
C138_2 C 0.31566(14) 0.21735(11) 0.36093(12)
C145_2 C 0.28265(11) 0.18434(14) 0.13907(12)
C146_2 C 0.36093(12) 0.21735(11) 0.18434(14)
H69_2 H 0.2909 0.1555 0.3240
H70_2 H 0.3445 0.1760 0.2909
H71_2 H 0.3240 0.2091 0.3445
H78_2 H 0.2909 0.1760 0.1555
H79_2 H 0.3445 0.2091 0.1760
H80_2 H 0.2636 0.1431 0.3101
H81_2 H 0.3569 0.1899 0.2636
H82_2 H 0.3101 0.2364 0.3569
H89_2 H 0.2636 0.1899 0.1431
H90_2 H 0.3569 0.2364 0.1899
H91_2 H 0.2934 0.1337 0.2994
H92_2 H 0.3663 0.2006 0.2934
H93_2 H 0.2994 0.2066 0.3663
H100_2 H 0.2934 0.2006 0.1337
H101_2 H 0.3663 0.2066 0.2006
C147_2 C 0.31165(11) 0.07939(9) 0.36542(9)
C148_2 C 0.42061(9) 0.13458(9) 0.31165(11)
C149_2 C 0.36542(9) 0.18835(11) 0.42061(9)
C156_2 C 0.31165(11) 0.13458(9) 0.07939(9)
C157_2 C 0.42061(9) 0.18835(11) 0.13458(9)
H102_2 H 0.3039 0.0864 0.3830
H103_2 H 0.4136 0.1170 0.3039
H104_2 H 0.3830 0.1961 0.4136
H111_2 H 0.3039 0.1170 0.0864
H112_2 H 0.4136 0.1961 0.1170
H113_2 H 0.2990 0.0648 0.3587
H114_2 H 0.4352 0.1413 0.2990
H115_2 H 0.3587 0.2010 0.4352
H122_2 H 0.2990 0.1413 0.0648
H123_2 H 0.4352 0.2010 0.1413
C158_2 C 0.33922(13) 0.06636(13) 0.37146(13)
C159_2 C 0.43364(13) 0.12854(13) 0.33922(13)
C160_2 C 0.37146(13) 0.16078(13) 0.43364(13)
C167_2 C 0.33922(13) 0.12854(13) 0.06636(13)
C168_2 C 0.43364(13) 0.16078(13) 0.12854(13)
H124_2 H 0.3470 0.0587 0.3544
H125_2 H 0.4413 0.1456 0.3470
H126_2 H 0.3544 0.1530 0.4413
H133_2 H 0.3470 0.1456 0.0587
H134_2 H 0.4413 0.1530 0.1456
H135_2 H 0.3368 0.0515 0.3850
H136_2 H 0.4485 0.1150 0.3368
H137_2 H 0.3850 0.1632 0.4485
H144_2 H 0.3368 0.1150 0.0515
H145_2 H 0.4485 0.1632 0.1150
H146_2 H 0.3518 0.0803 0.3789
H147_2 H 0.4197 0.1211 0.3518
H148_2 H 0.3789 0.1482 0.4197
H155_2 H 0.3518 0.1211 0.0803
H156_2 H 0.4197 0.1482 0.1211
O36_3 O 0.31742(7) -0.0000 0.32173(8)
O37_3 O 0.17827(8) -0.0000 0.31742(7)
O38_3 O 0.32173(8) -0.0000 0.18258(7)
Cd17_4 Cd 0.298486(5) 0.275465(5) 1.0000
Cd18_4 Cd 0.275465(5) 0.201514(5) 1.0000
Cd1_4 Cd 0.224535(5) 1.0000 0.201514(5)
O4_4 O 0.2500 1.0000 0.2500
O5_4 O 0.18258(7) 1.0000 0.17827(8)
Cd2_4 Cd 0.298486(5) 1.0000 0.224535(5)
Cd9_3 Cd -0.0000 0.724535(5) 0.201514(5)
Cd10_3 Cd -0.0000 0.798486(5) 0.224535(5)
Cd11_3 Cd 0.275465(5) 0.798486(5) 0.0000
Cd12_3 Cd 0.201514(5) 0.775465(5) 0.0000
Cd13_2 Cd 0.201514(5) 0.724535(5) 0.5000
Cd14_2 Cd 0.224535(5) 0.798486(5) 0.5000
Cd15_3 Cd -0.0000 0.775465(5) 0.298486(5)
O6_2 O 0.23888(4) 0.96643(4) 0.17038(4)
O7_2 O 0.26112(4) 0.96643(4) 0.32962(4)
O10_2 O 0.17038(4) 0.96643(4) 0.26112(4)
O12_2 O 0.32962(4) 0.96643(4) 0.23888(4)
O15_2 O 0.03357(4) 0.73888(4) 0.17038(4)
O16_2 O 0.26112(4) 0.82962(4) 0.03357(4)
O17_2 O 0.17038(4) 0.73888(4) 0.46643(4)
O18_2 O 0.03357(4) 0.82962(4) 0.23888(4)
O22_2 O 0.26602(4) 0.97071(4) 0.20644(4)
O23_2 O 0.20644(4) 0.97071(4) 0.23398(4)
O25_2 O 0.23398(4) 0.97071(4) 0.29356(4)
O26_2 O 0.29356(4) 0.97071(4) 0.26602(4)
O30_2 O 0.02929(4) 0.76602(4) 0.20644(4)
O31_2 O 0.23398(4) 0.79356(4) 0.02929(4)
O32_2 O 0.20644(4) 0.76602(4) 0.47071(4)
O33_2 O 0.02929(4) 0.79356(4) 0.26602(4)
C18_2 C 0.18327(6) 0.95977(5) 0.23966(6)
C19_2 C 0.04023(5) 0.76034(6) 0.18327(6)
C20_2 C 0.23966(6) 0.81673(6) 0.04023(5)
C21_2 C 0.23966(6) 0.95977(5) 0.31673(6)
C22_2 C 0.18327(6) 0.76034(6) 0.45977(5)
C23_2 C 0.04023(5) 0.81673(6) 0.26034(6)
C29_2 C 0.17168(6) 0.93774(6) 0.22132(6)
C30_2 C 0.06226(6) 0.77868(6) 0.17168(6)
C31_2 C 0.22132(6) 0.82832(6) 0.06226(6)
C32_2 C 0.22132(6) 0.93774(6) 0.32832(6)
C33_2 C 0.17168(6) 0.77868(6) 0.43774(6)
C34_2 C 0.06226(6) 0.82832(6) 0.27868(6)
C40_2 C 0.18635(7) 0.92884(6) 0.19842(6)
C41_2 C 0.07116(6) 0.80158(6) 0.18635(7)
C42_2 C 0.19842(6) 0.81365(7) 0.07116(6)
C43_2 C 0.19842(6) 0.92884(6) 0.31365(7)
C44_2 C 0.18635(7) 0.80158(6) 0.42884(6)
C45_2 C 0.07116(6) 0.81365(7) 0.30158(6)
H17_2 H 0.2034 0.9372 0.1937
H18_2 H 0.0628 0.8063 0.2034
H19_2 H 0.1937 0.7966 0.0628
H20_2 H 0.1937 0.9372 0.2966
H21_2 H 0.2034 0.8063 0.4372
H22_2 H 0.0628 0.7966 0.3063
C51_2 C 0.17576(7) 0.90752(6) 0.18253(6)
C52_2 C 0.09248(6) 0.81747(6) 0.17576(7)
C53_2 C 0.18253(6) 0.82424(7) 0.09248(6)
C54_2 C 0.18253(6) 0.90752(6) 0.32424(7)
C55_2 C 0.17576(7) 0.81747(6) 0.40752(6)
C56_2 C 0.09248(6) 0.82424(7) 0.31747(6)
C62_2 C 0.15110(7) 0.89433(6) 0.18933(6)
C63_2 C 0.18933(6) 0.84890(7) 0.10567(6)
C64_2 C 0.10567(6) 0.81067(6) 0.15110(7)
C65_2 C 0.18933(6) 0.89433(6) 0.34890(7)
C66_2 C 0.10567(6) 0.84890(7) 0.31067(6)
C67_2 C 0.15110(7) 0.81067(6) 0.39433(6)
C73_2 C 0.13615(7) 0.90397(7) 0.21193(7)
C74_2 C 0.21193(7) 0.86385(7) 0.09603(7)
C75_2 C 0.09603(7) 0.78807(7) 0.13615(7)
C76_2 C 0.21193(7) 0.90397(7) 0.36385(7)
C77_2 C 0.09603(7) 0.86385(7) 0.28807(7)
C78_2 C 0.13615(7) 0.78807(7) 0.40397(7)
H28_2 H 0.1190 0.8957 0.2166
H29_2 H 0.2166 0.8810 0.1043
H30_2 H 0.1043 0.7834 0.1190
H31_2 H 0.2166 0.8957 0.3810
H32_2 H 0.1043 0.8810 0.2834
H33_2 H 0.1190 0.7834 0.3957
C84_2 C 0.14642(7) 0.92567(7) 0.22751(6)
C85_2 C 0.22751(6) 0.85358(7) 0.07433(7)
C86_2 C 0.07433(7) 0.77249(6) 0.14642(7)
C87_2 C 0.22751(6) 0.92567(7) 0.35358(7)
C88_2 C 0.07433(7) 0.85358(7) 0.27249(6)
C89_2 C 0.14642(7) 0.77249(6) 0.42567(7)
H39_2 H 0.1360 0.9324 0.2427
H40_2 H 0.2427 0.8640 0.0676
H41_2 H 0.0676 0.7573 0.1360
H42_2 H 0.2427 0.9324 0.3640
H43_2 H 0.0676 0.8640 0.2573
H44_2 H 0.1360 0.7573 0.4324
C95_2 C 0.18844(7) 0.89594(7) 0.15652(7)
C96_2 C 0.10406(7) 0.84348(7) 0.18844(7)
C97_2 C 0.15652(7) 0.81156(7) 0.10406(7)
C98_2 C 0.15652(7) 0.89594(7) 0.31156(7)
C99_2 C 0.18844(7) 0.84348(7) 0.39594(7)
C100_2 C 0.10406(7) 0.81156(7) 0.34348(7)
C107_2 C 0.16792(7) 0.87304(6) 0.14937(7)
C108_2 C 0.12696(6) 0.85063(7) 0.16792(7)
C109_2 C 0.14937(7) 0.83208(7) 0.12696(6)
C110_2 C 0.14937(7) 0.87304(6) 0.33208(7)
C111_2 C 0.16792(7) 0.85063(7) 0.37304(6)
C112_2 C 0.12696(6) 0.83208(7) 0.35063(7)
C118_2 C 0.14649(7) 0.87175(6) 0.16914(7)
C119_2 C 0.16914(7) 0.85351(7) 0.12825(6)
C120_2 C 0.12825(6) 0.83086(7) 0.14649(7)
C121_2 C 0.16914(7) 0.87175(6) 0.35351(7)
C122_2 C 0.12825(6) 0.85351(7) 0.33086(7)
C123_2 C 0.14649(7) 0.83086(7) 0.37175(6)
C128_2 C 0.21728(9) 0.88427(11) 0.16365(10)
C129_2 C 0.11573(11) 0.83635(10) 0.21728(9)
C130_2 C 0.16365(10) 0.78272(9) 0.11573(11)
C131_2 C 0.16365(10) 0.88427(11) 0.28272(9)
C132_2 C 0.21728(9) 0.83635(10) 0.38427(11)
C133_2 C 0.11573(11) 0.78272(9) 0.33635(10)
H50_2 H 0.2288 0.8995 0.1710
H51_2 H 0.1005 0.8290 0.2288
H52_2 H 0.1710 0.7712 0.1005
H53_2 H 0.1710 0.8995 0.2712
H54_2 H 0.2288 0.8290 0.3995
H55_2 H 0.1005 0.7712 0.3290
H61_2 H 0.2261 0.8777 0.1464
H62_2 H 0.1223 0.8536 0.2261
H63_2 H 0.1464 0.7739 0.1223
H64_2 H 0.1464 0.8777 0.2739
H65_2 H 0.2261 0.8536 0.3777
H66_2 H 0.1223 0.7739 0.3536
C139_2 C 0.21735(11) 0.86093(12) 0.18434(14)
C140_2 C 0.13907(12) 0.81566(14) 0.21735(11)
C141_2 C 0.18434(14) 0.78265(11) 0.13907(12)
C142_2 C 0.18434(14) 0.86093(12) 0.28265(11)
C143_2 C 0.21735(11) 0.81566(14) 0.36093(12)
C144_2 C 0.13907(12) 0.78265(11) 0.31566(14)
H72_2 H 0.2091 0.8445 0.1760
H73_2 H 0.1555 0.8240 0.2091
H74_2 H 0.1760 0.7909 0.1555
H75_2 H 0.1760 0.8445 0.2909
H76_2 H 0.2091 0.8240 0.3445
H77_2 H 0.1555 0.7909 0.3240
H83_2 H 0.2364 0.8569 0.1899
H84_2 H 0.1431 0.8101 0.2364
H85_2 H 0.1899 0.7636 0.1431
H86_2 H 0.1899 0.8569 0.2636
H87_2 H 0.2364 0.8101 0.3569
H88_2 H 0.1431 0.7636 0.3101
H94_2 H 0.2066 0.8663 0.2006
H95_2 H 0.1337 0.7994 0.2066
H96_2 H 0.2006 0.7934 0.1337
H97_2 H 0.2006 0.8663 0.2934
H98_2 H 0.2066 0.7994 0.3663
H99_2 H 0.1337 0.7934 0.2994
C150_2 C 0.18835(11) 0.92061(9) 0.13458(9)
C151_2 C 0.07939(9) 0.86542(9) 0.18835(11)
C152_2 C 0.13458(9) 0.81165(11) 0.07939(9)
C153_2 C 0.13458(9) 0.92061(9) 0.31165(11)
C154_2 C 0.18835(11) 0.86542(9) 0.42061(9)
C155_2 C 0.07939(9) 0.81165(11) 0.36542(9)
H105_2 H 0.1961 0.9136 0.1170
H106_2 H 0.0864 0.8830 0.1961
H107_2 H 0.1170 0.8039 0.0864
H108_2 H 0.1170 0.9136 0.3039
H109_2 H 0.1961 0.8830 0.4136
H110_2 H 0.0864 0.8039 0.3830
H116_2 H 0.2010 0.9352 0.1413
H117_2 H 0.0648 0.8587 0.2010
H118_2 H 0.1413 0.7990 0.0648
H119_2 H 0.1413 0.9352 0.2990
H120_2 H 0.2010 0.8587 0.4352
H121_2 H 0.0648 0.7990 0.3587
C161_2 C 0.16078(13) 0.93364(13) 0.12854(13)
C162_2 C 0.06636(13) 0.87146(13) 0.16078(13)
C163_2 C 0.12854(13) 0.83922(13) 0.06636(13)
C164_2 C 0.12854(13) 0.93364(13) 0.33922(13)
C165_2 C 0.16078(13) 0.87146(13) 0.43364(13)
C166_2 C 0.06636(13) 0.83922(13) 0.37146(13)
H127_2 H 0.1530 0.9413 0.1456
H128_2 H 0.0587 0.8544 0.1530
H129_2 H 0.1456 0.8470 0.0587
H130_2 H 0.1456 0.9413 0.3470
H131_2 H 0.1530 0.8544 0.4413
H132_2 H 0.0587 0.8470 0.3544
H138_2 H 0.1632 0.9485 0.1150
H139_2 H 0.0515 0.8850 0.1632
H140_2 H 0.1150 0.8368 0.0515
H141_2 H 0.1150 0.9485 0.3368
H142_2 H 0.1632 0.8850 0.4485
H143_2 H 0.0515 0.8368 0.3850
H149_2 H 0.1482 0.9197 0.1211
H150_2 H 0.0803 0.8789 0.1482
H151_2 H 0.1211 0.8518 0.0803
H152_2 H 0.1211 0.9197 0.3518
H153_2 H 0.1482 0.8789 0.4197
H154_2 H 0.0803 0.8518 0.3789
O36_4 O 0.31742(7) 1.0000 0.32173(8)
O37_4 O 0.17827(8) 1.0000 0.31742(7)
O38_4 O 0.32173(8) 1.0000 0.18258(7)
Cd11_4 Cd 0.275465(5) 0.798486(5) 1.0000
Cd12_4 Cd 0.201514(5) 0.775465(5) 1.0000
Cd9_4 Cd 1.0000 0.724535(5) 0.201514(5)
Cd10_4 Cd 1.0000 0.798486(5) 0.224535(5)
Cd15_4 Cd 1.0000 0.775465(5) 0.298486(5)
Cd1_5 Cd 0.201514(5) 0.224535(5) 0.0000
O2_3 O 0.17038(4) 0.23888(4) 0.03357(4)
O3_3 O 0.20644(4) 0.26602(4) 0.02929(4)
O4_5 O 0.2500 0.2500 0.0000
C1_3 C 0.18327(6) 0.26034(6) 0.04023(5)
C2_3 C 0.17168(6) 0.27868(6) 0.06226(6)
C3_3 C 0.18635(7) 0.30158(6) 0.07116(6)
H1_3 H 0.2034 0.3063 0.0628
C4_3 C 0.17576(7) 0.31747(6) 0.09248(6)
C5_3 C 0.15110(7) 0.31067(6) 0.10567(6)
C6_3 C 0.13615(7) 0.28807(7) 0.09603(7)
H2_3 H 0.1190 0.2834 0.1043
C7_3 C 0.14642(7) 0.27249(6) 0.07433(7)
H3_3 H 0.1360 0.2573 0.0676
C8_3 C 0.18844(7) 0.34348(7) 0.10406(7)
C9_3 C 0.16792(7) 0.35063(7) 0.12696(6)
C10_3 C 0.14649(7) 0.33086(7) 0.12825(6)
C11_3 C 0.21728(9) 0.33635(10) 0.11573(11)
H4_3 H 0.2288 0.3290 0.1005
H5_3 H 0.2261 0.3536 0.1223
C12_3 C 0.21735(11) 0.31566(14) 0.13907(12)
H6_3 H 0.2091 0.3240 0.1555
H7_3 H 0.2364 0.3101 0.1431
H8_3 H 0.2066 0.2994 0.1337
C13_3 C 0.18835(11) 0.36542(9) 0.07939(9)
H9_3 H 0.1961 0.3830 0.0864
H10_3 H 0.2010 0.3587 0.0648
C14_3 C 0.16078(13) 0.37146(13) 0.06636(13)
H11_3 H 0.1530 0.3544 0.0587
H12_3 H 0.1632 0.3850 0.0515
H13_3 H 0.1482 0.3789 0.0803
O5_5 O 0.17827(8) 0.18258(7) -0.0000
Cd2_5 Cd 0.224535(5) 0.298486(5) 0.0000
Cd5_3 Cd 0.298486(5) 0.5000 0.275465(5)
Cd6_3 Cd 0.275465(5) 0.5000 0.201514(5)
Cd8_3 Cd 0.5000 0.298486(5) 0.224535(5)
O9_3 O 0.26112(4) 0.17038(4) 0.03357(4)
O11_3 O 0.23888(4) 0.32962(4) 0.03357(4)
O13_3 O 0.32962(4) 0.46643(4) 0.26112(4)
O14_3 O 0.46643(4) 0.23888(4) 0.17038(4)
O19_3 O 0.26112(4) 0.46643(4) 0.17038(4)
O21_3 O 0.23398(4) 0.20644(4) 0.02929(4)
O24_3 O 0.26602(4) 0.29356(4) 0.02929(4)
O28_3 O 0.29356(4) 0.47071(4) 0.23398(4)
O29_3 O 0.47071(4) 0.26602(4) 0.20644(4)
O34_3 O 0.23398(4) 0.47071(4) 0.20644(4)
C15_3 C 0.26034(6) 0.31673(6) 0.04023(5)
C16_3 C 0.31673(6) 0.45977(5) 0.23966(6)
C17_3 C 0.45977(5) 0.26034(6) 0.18327(6)
C24_3 C 0.23966(6) 0.45977(5) 0.18327(6)
C25_3 C 0.04023(5) 0.31673(6) 0.23966(6)
C26_3 C 0.27868(6) 0.32832(6) 0.06226(6)
C27_3 C 0.32832(6) 0.43774(6) 0.22132(6)
C28_3 C 0.43774(6) 0.27868(6) 0.17168(6)
C35_3 C 0.22132(6) 0.43774(6) 0.17168(6)
C36_3 C 0.06226(6) 0.32832(6) 0.22132(6)
C37_3 C 0.30158(6) 0.31365(7) 0.07116(6)
C38_3 C 0.31365(7) 0.42884(6) 0.19842(6)
C39_3 C 0.42884(6) 0.30158(6) 0.18635(7)
C46_3 C 0.19842(6) 0.42884(6) 0.18635(7)
C47_3 C 0.07116(6) 0.31365(7) 0.19842(6)
H14_3 H 0.3063 0.2966 0.0628
H15_3 H 0.2966 0.4372 0.1937
H16_3 H 0.4372 0.3063 0.2034
H23_3 H 0.1937 0.4372 0.2034
H24_3 H 0.0628 0.2966 0.1937
C48_3 C 0.31747(6) 0.32424(7) 0.09248(6)
C49_3 C 0.32424(7) 0.40752(6) 0.18253(6)
C50_3 C 0.40752(6) 0.31747(6) 0.17576(7)
C57_3 C 0.18253(6) 0.40752(6) 0.17576(7)
C58_3 C 0.09248(6) 0.32424(7) 0.18253(6)
C59_3 C 0.31067(6) 0.34890(7) 0.10567(6)
C60_3 C 0.39433(6) 0.31067(6) 0.15110(7)
C61_3 C 0.34890(7) 0.39433(6) 0.18933(6)
C68_3 C 0.18933(6) 0.39433(6) 0.15110(7)
C69_3 C 0.10567(6) 0.34890(7) 0.18933(6)
C70_3 C 0.28807(7) 0.36385(7) 0.09603(7)
C71_3 C 0.40397(7) 0.28807(7) 0.13615(7)
C72_3 C 0.36385(7) 0.40397(7) 0.21193(7)
C79_3 C 0.21193(7) 0.40397(7) 0.13615(7)
C80_3 C 0.09603(7) 0.36385(7) 0.21193(7)
H25_3 H 0.2834 0.3810 0.1043
H26_3 H 0.3957 0.2834 0.1190
H27_3 H 0.3810 0.3957 0.2166
H34_3 H 0.2166 0.3957 0.1190
H35_3 H 0.1043 0.3810 0.2166
C81_3 C 0.27249(6) 0.35358(7) 0.07433(7)
C82_3 C 0.42567(7) 0.27249(6) 0.14642(7)
C83_3 C 0.35358(7) 0.42567(7) 0.22751(6)
C90_3 C 0.22751(6) 0.42567(7) 0.14642(7)
C91_3 C 0.07433(7) 0.35358(7) 0.22751(6)
H36_3 H 0.2573 0.3640 0.0676
H37_3 H 0.4324 0.2573 0.1360
H38_3 H 0.3640 0.4324 0.2427
H45_3 H 0.2427 0.4324 0.1360
H46_3 H 0.0676 0.3640 0.2427
C92_3 C 0.34348(7) 0.31156(7) 0.10406(7)
C93_3 C 0.31156(7) 0.39594(7) 0.15652(7)
C94_3 C 0.39594(7) 0.34348(7) 0.18844(7)
C101_3 C 0.10406(7) 0.31156(7) 0.15652(7)
C102_3 C 0.15652(7) 0.39594(7) 0.18844(7)
C103_3 C 0.12696(6) 0.33208(7) 0.14937(7)
C104_3 C 0.35063(7) 0.33208(7) 0.12696(6)
C105_3 C 0.33208(7) 0.37304(6) 0.14937(7)
C106_3 C 0.37304(6) 0.35063(7) 0.16792(7)
C113_3 C 0.14937(7) 0.37304(6) 0.16792(7)
C114_3 C 0.16914(7) 0.37175(6) 0.14649(7)
C115_3 C 0.33086(7) 0.35351(7) 0.12825(6)
C116_3 C 0.37175(6) 0.33086(7) 0.14649(7)
C117_3 C 0.35351(7) 0.37175(6) 0.16914(7)
C124_3 C 0.12825(6) 0.35351(7) 0.16914(7)
C125_3 C 0.33635(10) 0.28272(9) 0.11573(11)
C126_3 C 0.28272(9) 0.38427(11) 0.16365(10)
C127_3 C 0.38427(11) 0.33635(10) 0.21728(9)
C134_3 C 0.11573(11) 0.28272(9) 0.16365(10)
C135_3 C 0.16365(10) 0.38427(11) 0.21728(9)
H47_3 H 0.3290 0.2712 0.1005
H48_3 H 0.2712 0.3995 0.1710
H49_3 H 0.3995 0.3290 0.2288
H56_3 H 0.1005 0.2712 0.1710
H57_3 H 0.1710 0.3995 0.2288
H58_3 H 0.3536 0.2739 0.1223
H59_3 H 0.2739 0.3777 0.1464
H60_3 H 0.3777 0.3536 0.2261
H67_3 H 0.1223 0.2739 0.1464
H68_3 H 0.1464 0.3777 0.2261
C136_3 C 0.31566(14) 0.28265(11) 0.13907(12)
C137_3 C 0.28265(11) 0.36093(12) 0.18434(14)
C138_3 C 0.36093(12) 0.31566(14) 0.21735(11)
C145_3 C 0.13907(12) 0.28265(11) 0.18434(14)
C146_3 C 0.18434(14) 0.36093(12) 0.21735(11)
H69_3 H 0.3240 0.2909 0.1555
H70_3 H 0.2909 0.3445 0.1760
H71_3 H 0.3445 0.3240 0.2091
H78_3 H 0.1555 0.2909 0.1760
H79_3 H 0.1760 0.3445 0.2091
H80_3 H 0.3101 0.2636 0.1431
H81_3 H 0.2636 0.3569 0.1899
H82_3 H 0.3569 0.3101 0.2364
H89_3 H 0.1431 0.2636 0.1899
H90_3 H 0.1899 0.3569 0.2364
H91_3 H 0.2994 0.2934 0.1337
H92_3 H 0.2934 0.3663 0.2006
H93_3 H 0.3663 0.2994 0.2066
H100_3 H 0.1337 0.2934 0.2006
H101_3 H 0.2006 0.3663 0.2066
C147_3 C 0.36542(9) 0.31165(11) 0.07939(9)
C148_3 C 0.31165(11) 0.42061(9) 0.13458(9)
C149_3 C 0.42061(9) 0.36542(9) 0.18835(11)
C156_3 C 0.07939(9) 0.31165(11) 0.13458(9)
C157_3 C 0.13458(9) 0.42061(9) 0.18835(11)
H102_3 H 0.3830 0.3039 0.0864
H103_3 H 0.3039 0.4136 0.1170
H104_3 H 0.4136 0.3830 0.1961
H111_3 H 0.0864 0.3039 0.1170
H112_3 H 0.1170 0.4136 0.1961
H113_3 H 0.3587 0.2990 0.0648
H114_3 H 0.2990 0.4352 0.1413
H115_3 H 0.4352 0.3587 0.2010
H122_3 H 0.0648 0.2990 0.1413
H123_3 H 0.1413 0.4352 0.2010
C158_3 C 0.37146(13) 0.33922(13) 0.06636(13)
C159_3 C 0.33922(13) 0.43364(13) 0.12854(13)
C160_3 C 0.43364(13) 0.37146(13) 0.16078(13)
C167_3 C 0.06636(13) 0.33922(13) 0.12854(13)
C168_3 C 0.12854(13) 0.43364(13) 0.16078(13)
H124_3 H 0.3544 0.3470 0.0587
H125_3 H 0.3470 0.4413 0.1456
H126_3 H 0.4413 0.3544 0.1530
H133_3 H 0.0587 0.3470 0.1456
H134_3 H 0.1456 0.4413 0.1530
H135_3 H 0.3850 0.3368 0.0515
H136_3 H 0.3368 0.4485 0.1150
H137_3 H 0.4485 0.3850 0.1632
H144_3 H 0.0515 0.3368 0.1150
H145_3 H 0.1150 0.4485 0.1632
H146_3 H 0.3789 0.3518 0.0803
H147_3 H 0.3518 0.4197 0.1211
H148_3 H 0.4197 0.3789 0.1482
H155_3 H 0.0803 0.3518 0.1211
H156_3 H 0.1211 0.4197 0.1482
O36_5 O 0.32173(8) 0.31742(7) -0.0000
O37_5 O 0.31742(7) 0.17827(8) -0.0000
O38_5 O 0.18258(7) 0.32173(8) -0.0000
Cd1_6 Cd 0.201514(5) 0.224535(5) 1.0000
O4_6 O 0.2500 0.2500 1.0000
O5_6 O 0.17827(8) 0.18258(7) 1.0000
Cd2_6 Cd 0.224535(5) 0.298486(5) 1.0000
Cd9_5 Cd 0.201514(5) 0.0000 0.724535(5)
Cd10_5 Cd 0.224535(5) 0.0000 0.798486(5)
Cd11_5 Cd -0.0000 0.275465(5) 0.798486(5)
Cd12_5 Cd -0.0000 0.201514(5) 0.775465(5)
Cd13_3 Cd 0.5000 0.201514(5) 0.724535(5)
Cd14_3 Cd 0.5000 0.224535(5) 0.798486(5)
Cd15_5 Cd 0.298486(5) -0.0000 0.775465(5)
O6_3 O 0.17038(4) 0.23888(4) 0.96643(4)
O7_3 O 0.32962(4) 0.26112(4) 0.96643(4)
O10_3 O 0.26112(4) 0.17038(4) 0.96643(4)
O12_3 O 0.23888(4) 0.32962(4) 0.96643(4)
O15_3 O 0.17038(4) 0.03357(4) 0.73888(4)
O16_3 O 0.03357(4) 0.26112(4) 0.82962(4)
O17_3 O 0.46643(4) 0.17038(4) 0.73888(4)
O18_3 O 0.23888(4) 0.03357(4) 0.82962(4)
O22_3 O 0.20644(4) 0.26602(4) 0.97071(4)
O23_3 O 0.23398(4) 0.20644(4) 0.97071(4)
O25_3 O 0.29356(4) 0.23398(4) 0.97071(4)
O26_3 O 0.26602(4) 0.29356(4) 0.97071(4)
O30_3 O 0.20644(4) 0.02929(4) 0.76602(4)
O31_3 O 0.02929(4) 0.23398(4) 0.79356(4)
O32_3 O 0.47071(4) 0.20644(4) 0.76602(4)
O33_3 O 0.26602(4) 0.02929(4) 0.79356(4)
C18_3 C 0.23966(6) 0.18327(6) 0.95977(5)
C19_3 C 0.18327(6) 0.04023(5) 0.76034(6)
C20_3 C 0.04023(5) 0.23966(6) 0.81673(6)
C21_3 C 0.31673(6) 0.23966(6) 0.95977(5)
C22_3 C 0.45977(5) 0.18327(6) 0.76034(6)
C23_3 C 0.26034(6) 0.04023(5) 0.81673(6)
C29_3 C 0.22132(6) 0.17168(6) 0.93774(6)
C30_3 C 0.17168(6) 0.06226(6) 0.77868(6)
C31_3 C 0.06226(6) 0.22132(6) 0.82832(6)
C32_3 C 0.32832(6) 0.22132(6) 0.93774(6)
C33_3 C 0.43774(6) 0.17168(6) 0.77868(6)
C34_3 C 0.27868(6) 0.06226(6) 0.82832(6)
C40_3 C 0.19842(6) 0.18635(7) 0.92884(6)
C41_3 C 0.18635(7) 0.07116(6) 0.80158(6)
C42_3 C 0.07116(6) 0.19842(6) 0.81365(7)
C43_3 C 0.31365(7) 0.19842(6) 0.92884(6)
C44_3 C 0.42884(6) 0.18635(7) 0.80158(6)
C45_3 C 0.30158(6) 0.07116(6) 0.81365(7)
H17_3 H 0.1937 0.2034 0.9372
H18_3 H 0.2034 0.0628 0.8063
H19_3 H 0.0628 0.1937 0.7966
H20_3 H 0.2966 0.1937 0.9372
H21_3 H 0.4372 0.2034 0.8063
H22_3 H 0.3063 0.0628 0.7966
C51_3 C 0.18253(6) 0.17576(7) 0.90752(6)
C52_3 C 0.17576(7) 0.09248(6) 0.81747(6)
C53_3 C 0.09248(6) 0.18253(6) 0.82424(7)
C54_3 C 0.32424(7) 0.18253(6) 0.90752(6)
C55_3 C 0.40752(6) 0.17576(7) 0.81747(6)
C56_3 C 0.31747(6) 0.09248(6) 0.82424(7)
C62_3 C 0.18933(6) 0.15110(7) 0.89433(6)
C63_3 C 0.10567(6) 0.18933(6) 0.84890(7)
C64_3 C 0.15110(7) 0.10567(6) 0.81067(6)
C65_3 C 0.34890(7) 0.18933(6) 0.89433(6)
C66_3 C 0.31067(6) 0.10567(6) 0.84890(7)
C67_3 C 0.39433(6) 0.15110(7) 0.81067(6)
C73_3 C 0.21193(7) 0.13615(7) 0.90397(7)
C74_3 C 0.09603(7) 0.21193(7) 0.86385(7)
C75_3 C 0.13615(7) 0.09603(7) 0.78807(7)
C76_3 C 0.36385(7) 0.21193(7) 0.90397(7)
C77_3 C 0.28807(7) 0.09603(7) 0.86385(7)
C78_3 C 0.40397(7) 0.13615(7) 0.78807(7)
H28_3 H 0.2166 0.1190 0.8957
H29_3 H 0.1043 0.2166 0.8810
H30_3 H 0.1190 0.1043 0.7834
H31_3 H 0.3810 0.2166 0.8957
H32_3 H 0.2834 0.1043 0.8810
H33_3 H 0.3957 0.1190 0.7834
C84_3 C 0.22751(6) 0.14642(7) 0.92567(7)
C85_3 C 0.07433(7) 0.22751(6) 0.85358(7)
C86_3 C 0.14642(7) 0.07433(7) 0.77249(6)
C87_3 C 0.35358(7) 0.22751(6) 0.92567(7)
C88_3 C 0.27249(6) 0.07433(7) 0.85358(7)
C89_3 C 0.42567(7) 0.14642(7) 0.77249(6)
H39_3 H 0.2427 0.1360 0.9324
H40_3 H 0.0676 0.2427 0.8640
H41_3 H 0.1360 0.0676 0.7573
H42_3 H 0.3640 0.2427 0.9324
H43_3 H 0.2573 0.0676 0.8640
H44_3 H 0.4324 0.1360 0.7573
C95_3 C 0.15652(7) 0.18844(7) 0.89594(7)
C96_3 C 0.18844(7) 0.10406(7) 0.84348(7)
C97_3 C 0.10406(7) 0.15652(7) 0.81156(7)
C98_3 C 0.31156(7) 0.15652(7) 0.89594(7)
C99_3 C 0.39594(7) 0.18844(7) 0.84348(7)
C100_3 C 0.34348(7) 0.10406(7) 0.81156(7)
C107_3 C 0.14937(7) 0.16792(7) 0.87304(6)
C108_3 C 0.16792(7) 0.12696(6) 0.85063(7)
C109_3 C 0.12696(6) 0.14937(7) 0.83208(7)
C110_3 C 0.33208(7) 0.14937(7) 0.87304(6)
C111_3 C 0.37304(6) 0.16792(7) 0.85063(7)
C112_3 C 0.35063(7) 0.12696(6) 0.83208(7)
C118_3 C 0.16914(7) 0.14649(7) 0.87175(6)
C119_3 C 0.12825(6) 0.16914(7) 0.85351(7)
C120_3 C 0.14649(7) 0.12825(6) 0.83086(7)
C121_3 C 0.35351(7) 0.16914(7) 0.87175(6)
C122_3 C 0.33086(7) 0.12825(6) 0.85351(7)
C123_3 C 0.37175(6) 0.14649(7) 0.83086(7)
C128_3 C 0.16365(10) 0.21728(9) 0.88427(11)
C129_3 C 0.21728(9) 0.11573(11) 0.83635(10)
C130_3 C 0.11573(11) 0.16365(10) 0.78272(9)
C131_3 C 0.28272(9) 0.16365(10) 0.88427(11)
C132_3 C 0.38427(11) 0.21728(9) 0.83635(10)
C133_3 C 0.33635(10) 0.11573(11) 0.78272(9)
H50_3 H 0.1710 0.2288 0.8995
H51_3 H 0.2288 0.1005 0.8290
H52_3 H 0.1005 0.1710 0.7712
H53_3 H 0.2712 0.1710 0.8995
H54_3 H 0.3995 0.2288 0.8290
H55_3 H 0.3290 0.1005 0.7712
H61_3 H 0.1464 0.2261 0.8777
H62_3 H 0.2261 0.1223 0.8536
H63_3 H 0.1223 0.1464 0.7739
H64_3 H 0.2739 0.1464 0.8777
H65_3 H 0.3777 0.2261 0.8536
H66_3 H 0.3536 0.1223 0.7739
C139_3 C 0.18434(14) 0.21735(11) 0.86093(12)
C140_3 C 0.21735(11) 0.13907(12) 0.81566(14)
C141_3 C 0.13907(12) 0.18434(14) 0.78265(11)
C142_3 C 0.28265(11) 0.18434(14) 0.86093(12)
C143_3 C 0.36093(12) 0.21735(11) 0.81566(14)
C144_3 C 0.31566(14) 0.13907(12) 0.78265(11)
H72_3 H 0.1760 0.2091 0.8445
H73_3 H 0.2091 0.1555 0.8240
H74_3 H 0.1555 0.1760 0.7909
H75_3 H 0.2909 0.1760 0.8445
H76_3 H 0.3445 0.2091 0.8240
H77_3 H 0.3240 0.1555 0.7909
H83_3 H 0.1899 0.2364 0.8569
H84_3 H 0.2364 0.1431 0.8101
H85_3 H 0.1431 0.1899 0.7636
H86_3 H 0.2636 0.1899 0.8569
H87_3 H 0.3569 0.2364 0.8101
H88_3 H 0.3101 0.1431 0.7636
H94_3 H 0.2006 0.2066 0.8663
H95_3 H 0.2066 0.1337 0.7994
H96_3 H 0.1337 0.2006 0.7934
H97_3 H 0.2934 0.2006 0.8663
H98_3 H 0.3663 0.2066 0.7994
H99_3 H 0.2994 0.1337 0.7934
C150_3 C 0.13458(9) 0.18835(11) 0.92061(9)
C151_3 C 0.18835(11) 0.07939(9) 0.86542(9)
C152_3 C 0.07939(9) 0.13458(9) 0.81165(11)
C153_3 C 0.31165(11) 0.13458(9) 0.92061(9)
C154_3 C 0.42061(9) 0.18835(11) 0.86542(9)
C155_3 C 0.36542(9) 0.07939(9) 0.81165(11)
H105_3 H 0.1170 0.1961 0.9136
H106_3 H 0.1961 0.0864 0.8830
H107_3 H 0.0864 0.1170 0.8039
H108_3 H 0.3039 0.1170 0.9136
H109_3 H 0.4136 0.1961 0.8830
H110_3 H 0.3830 0.0864 0.8039
H116_3 H 0.1413 0.2010 0.9352
H117_3 H 0.2010 0.0648 0.8587
H118_3 H 0.0648 0.1413 0.7990
H119_3 H 0.2990 0.1413 0.9352
H120_3 H 0.4352 0.2010 0.8587
H121_3 H 0.3587 0.0648 0.7990
C161_3 C 0.12854(13) 0.16078(13) 0.93364(13)
C162_3 C 0.16078(13) 0.06636(13) 0.87146(13)
C163_3 C 0.06636(13) 0.12854(13) 0.83922(13)
C164_3 C 0.33922(13) 0.12854(13) 0.93364(13)
C165_3 C 0.43364(13) 0.16078(13) 0.87146(13)
C166_3 C 0.37146(13) 0.06636(13) 0.83922(13)
H127_3 H 0.1456 0.1530 0.9413
H128_3 H 0.1530 0.0587 0.8544
H129_3 H 0.0587 0.1456 0.8470
H130_3 H 0.3470 0.1456 0.9413
H131_3 H 0.4413 0.1530 0.8544
H132_3 H 0.3544 0.0587 0.8470
H138_3 H 0.1150 0.1632 0.9485
H139_3 H 0.1632 0.0515 0.8850
H140_3 H 0.0515 0.1150 0.8368
H141_3 H 0.3368 0.1150 0.9485
H142_3 H 0.4485 0.1632 0.8850
H143_3 H 0.3850 0.0515 0.8368
H149_3 H 0.1211 0.1482 0.9197
H150_3 H 0.1482 0.0803 0.8789
H151_3 H 0.0803 0.1211 0.8518
H152_3 H 0.3518 0.1211 0.9197
H153_3 H 0.4197 0.1482 0.8789
H154_3 H 0.3789 0.0803 0.8518
O36_6 O 0.32173(8) 0.31742(7) 1.0000
O37_6 O 0.31742(7) 0.17827(8) 1.0000
O38_6 O 0.18258(7) 0.32173(8) 1.0000
Cd9_6 Cd 0.201514(5) 1.0000 0.724535(5)
Cd10_6 Cd 0.224535(5) 1.0000 0.798486(5)
Cd15_6 Cd 0.298486(5) 1.0000 0.775465(5)
Cd11_6 Cd 1.0000 0.275465(5) 0.798486(5)
Cd12_6 Cd 1.0000 0.201514(5) 0.775465(5)
Cd7_2 Cd 0.0000 0.701514(5) 0.275465(5)
Cd1_7 Cd 0.701514(5) 0.5000 0.275465(5)
O2_4 O 0.67038(4) 0.53357(4) 0.26112(4)
O3_4 O 0.70644(4) 0.52929(4) 0.23398(4)
O4_7 O 0.7500 0.5000 0.2500
C1_4 C 0.68327(6) 0.54023(5) 0.23966(6)
C2_4 C 0.67168(6) 0.56226(6) 0.22132(6)
C3_4 C 0.68635(7) 0.57116(6) 0.19842(6)
H1_4 H 0.7034 0.5628 0.1937
C4_4 C 0.67576(7) 0.59248(6) 0.18253(6)
C5_4 C 0.65110(7) 0.60567(6) 0.18933(6)
C6_4 C 0.63615(7) 0.59603(7) 0.21193(7)
H2_4 H 0.6190 0.6043 0.2166
C7_4 C 0.64642(7) 0.57433(7) 0.22751(6)
H3_4 H 0.6360 0.5676 0.2427
C8_4 C 0.68844(7) 0.60406(7) 0.15652(7)
C9_4 C 0.66792(7) 0.62696(6) 0.14937(7)
C10_4 C 0.64649(7) 0.62825(6) 0.16914(7)
C11_4 C 0.71728(9) 0.61573(11) 0.16365(10)
H4_4 H 0.7288 0.6005 0.1710
H5_4 H 0.7261 0.6223 0.1464
C12_4 C 0.71735(11) 0.63907(12) 0.18434(14)
H6_4 H 0.7091 0.6555 0.1760
H7_4 H 0.7364 0.6431 0.1899
H8_4 H 0.7066 0.6337 0.2006
C13_4 C 0.68835(11) 0.57939(9) 0.13458(9)
H9_4 H 0.6961 0.5864 0.1170
H10_4 H 0.7010 0.5648 0.1413
C14_4 C 0.66078(13) 0.56636(13) 0.12854(13)
H11_4 H 0.6530 0.5587 0.1456
H12_4 H 0.6632 0.5515 0.1150
H13_4 H 0.6482 0.5803 0.1211
O5_7 O 0.67827(8) 0.5000 0.31742(7)
Cd3_3 Cd 0.775465(5) 0.5000 0.298486(5)
Cd5_4 Cd 0.798486(5) 0.775465(5) 0.0000
Cd6_4 Cd 0.775465(5) 0.701514(5) 0.0000
Cd7_3 Cd 1.0000 0.701514(5) 0.275465(5)
Cd9_7 Cd 0.701514(5) 0.224535(5) 0.5000
Cd10_7 Cd 0.724535(5) 0.298486(5) 0.5000
Cd15_7 Cd 0.798486(5) 0.275465(5) 0.5000
Cd16_3 Cd 0.701514(5) 0.724535(5) 0.0000
Cd17_5 Cd 0.5000 0.775465(5) 0.201514(5)
Cd18_5 Cd 0.5000 0.701514(5) 0.224535(5)
O6_4 O 0.67038(4) 0.46643(4) 0.26112(4)
O7_4 O 0.82962(4) 0.46643(4) 0.23888(4)
O8_2 O 0.82962(4) 0.53357(4) 0.23888(4)
O9_4 O 0.76112(4) 0.53357(4) 0.32962(4)
O10_4 O 0.76112(4) 0.46643(4) 0.32962(4)
O11_4 O 0.73888(4) 0.53357(4) 0.17038(4)
O13_4 O 0.82962(4) 0.76112(4) 0.03357(4)
O14_4 O 0.96643(4) 0.67038(4) 0.26112(4)
O15_4 O 0.67038(4) 0.23888(4) 0.46643(4)
O16_4 O 0.53357(4) 0.32962(4) 0.23888(4)
O18_4 O 0.73888(4) 0.32962(4) 0.46643(4)
O19_4 O 0.76112(4) 0.67038(4) 0.03357(4)
O20_3 O 0.53357(4) 0.76112(4) 0.17038(4)
O21_4 O 0.73398(4) 0.52929(4) 0.29356(4)
O22_4 O 0.70644(4) 0.47071(4) 0.23398(4)
O23_4 O 0.73398(4) 0.47071(4) 0.29356(4)
O24_4 O 0.76602(4) 0.52929(4) 0.20644(4)
O25_4 O 0.79356(4) 0.47071(4) 0.26602(4)
O27_2 O 0.79356(4) 0.52929(4) 0.26602(4)
O28_4 O 0.79356(4) 0.73398(4) 0.02929(4)
O29_4 O 0.97071(4) 0.70644(4) 0.23398(4)
O30_4 O 0.70644(4) 0.26602(4) 0.47071(4)
O31_4 O 0.52929(4) 0.29356(4) 0.26602(4)
O33_4 O 0.76602(4) 0.29356(4) 0.47071(4)
O34_4 O 0.73398(4) 0.70644(4) 0.02929(4)
O35_3 O 0.52929(4) 0.73398(4) 0.20644(4)
C15_4 C 0.76034(6) 0.54023(5) 0.18327(6)
C16_4 C 0.81673(6) 0.73966(6) 0.04023(5)
C17_4 C 0.95977(5) 0.68327(6) 0.23966(6)
C18_4 C 0.73966(6) 0.45977(5) 0.31673(6)
C19_4 C 0.68327(6) 0.26034(6) 0.45977(5)
C20_4 C 0.54023(5) 0.31673(6) 0.26034(6)
C21_4 C 0.81673(6) 0.45977(5) 0.26034(6)
C22_4 C 0.95977(5) 0.26034(6) 0.31673(6)
C23_4 C 0.76034(6) 0.31673(6) 0.45977(5)
C24_4 C 0.73966(6) 0.68327(6) 0.04023(5)
C25_4 C 0.54023(5) 0.73966(6) 0.18327(6)
C26_4 C 0.77868(6) 0.56226(6) 0.17168(6)
C27_4 C 0.82832(6) 0.72132(6) 0.06226(6)
C28_4 C 0.93774(6) 0.67168(6) 0.22132(6)
C29_4 C 0.72132(6) 0.43774(6) 0.32832(6)
C30_4 C 0.67168(6) 0.27868(6) 0.43774(6)
C31_4 C 0.56226(6) 0.32832(6) 0.27868(6)
C32_4 C 0.82832(6) 0.43774(6) 0.27868(6)
C33_4 C 0.93774(6) 0.27868(6) 0.32832(6)
C34_4 C 0.77868(6) 0.32832(6) 0.43774(6)
C35_4 C 0.72132(6) 0.67168(6) 0.06226(6)
C36_4 C 0.56226(6) 0.72132(6) 0.17168(6)
C37_4 C 0.80158(6) 0.57116(6) 0.18635(7)
C38_4 C 0.81365(7) 0.69842(6) 0.07116(6)
C39_4 C 0.92884(6) 0.68635(7) 0.19842(6)
C40_4 C 0.69842(6) 0.42884(6) 0.31365(7)
C41_4 C 0.68635(7) 0.30158(6) 0.42884(6)
C42_4 C 0.57116(6) 0.31365(7) 0.30158(6)
C43_4 C 0.81365(7) 0.42884(6) 0.30158(6)
C44_4 C 0.92884(6) 0.30158(6) 0.31365(7)
C45_4 C 0.80158(6) 0.31365(7) 0.42884(6)
C46_4 C 0.69842(6) 0.68635(7) 0.07116(6)
C47_4 C 0.57116(6) 0.69842(6) 0.18635(7)
H14_4 H 0.8063 0.5628 0.2034
H15_4 H 0.7966 0.6937 0.0628
H16_4 H 0.9372 0.7034 0.1937
H17_4 H 0.6937 0.4372 0.2966
H18_4 H 0.7034 0.3063 0.4372
H19_4 H 0.5628 0.2966 0.3063
H20_4 H 0.7966 0.4372 0.3063
H21_4 H 0.9372 0.3063 0.2966
H22_4 H 0.8063 0.2966 0.4372
H23_4 H 0.6937 0.7034 0.0628
H24_4 H 0.5628 0.6937 0.2034
C48_4 C 0.81747(6) 0.59248(6) 0.17576(7)
C49_4 C 0.82424(7) 0.68253(6) 0.09248(6)
C50_4 C 0.90752(6) 0.67576(7) 0.18253(6)
C51_4 C 0.68253(6) 0.40752(6) 0.32424(7)
C52_4 C 0.67576(7) 0.31747(6) 0.40752(6)
C53_4 C 0.59248(6) 0.32424(7) 0.31747(6)
C54_4 C 0.82424(7) 0.40752(6) 0.31747(6)
C55_4 C 0.90752(6) 0.31747(6) 0.32424(7)
C56_4 C 0.81747(6) 0.32424(7) 0.40752(6)
C57_4 C 0.68253(6) 0.67576(7) 0.09248(6)
C58_4 C 0.59248(6) 0.68253(6) 0.17576(7)
C59_4 C 0.81067(6) 0.60567(6) 0.15110(7)
C60_4 C 0.89433(6) 0.65110(7) 0.18933(6)
C61_4 C 0.84890(7) 0.68933(6) 0.10567(6)
C62_4 C 0.68933(6) 0.39433(6) 0.34890(7)
C63_4 C 0.60567(6) 0.34890(7) 0.31067(6)
C64_4 C 0.65110(7) 0.31067(6) 0.39433(6)
C65_4 C 0.84890(7) 0.39433(6) 0.31067(6)
C66_4 C 0.81067(6) 0.34890(7) 0.39433(6)
C67_4 C 0.89433(6) 0.31067(6) 0.34890(7)
C68_4 C 0.68933(6) 0.65110(7) 0.10567(6)
C69_4 C 0.60567(6) 0.68933(6) 0.15110(7)
C70_4 C 0.78807(7) 0.59603(7) 0.13615(7)
C71_4 C 0.90397(7) 0.63615(7) 0.21193(7)
C72_4 C 0.86385(7) 0.71193(7) 0.09603(7)
C73_4 C 0.71193(7) 0.40397(7) 0.36385(7)
C74_4 C 0.59603(7) 0.36385(7) 0.28807(7)
C75_4 C 0.63615(7) 0.28807(7) 0.40397(7)
C76_4 C 0.86385(7) 0.40397(7) 0.28807(7)
C77_4 C 0.78807(7) 0.36385(7) 0.40397(7)
C78_4 C 0.90397(7) 0.28807(7) 0.36385(7)
C79_4 C 0.71193(7) 0.63615(7) 0.09603(7)
C80_4 C 0.59603(7) 0.71193(7) 0.13615(7)
H25_4 H 0.7834 0.6043 0.1190
H26_4 H 0.8957 0.6190 0.2166
H27_4 H 0.8810 0.7166 0.1043
H28_4 H 0.7166 0.3957 0.3810
H29_4 H 0.6043 0.3810 0.2834
H30_4 H 0.6190 0.2834 0.3957
H31_4 H 0.8810 0.3957 0.2834
H32_4 H 0.7834 0.3810 0.3957
H33_4 H 0.8957 0.2834 0.3810
H34_4 H 0.7166 0.6190 0.1043
H35_4 H 0.6043 0.7166 0.1190
C81_4 C 0.77249(6) 0.57433(7) 0.14642(7)
C82_4 C 0.92567(7) 0.64642(7) 0.22751(6)
C83_4 C 0.85358(7) 0.72751(6) 0.07433(7)
C84_4 C 0.72751(6) 0.42567(7) 0.35358(7)
C85_4 C 0.57433(7) 0.35358(7) 0.27249(6)
C86_4 C 0.64642(7) 0.27249(6) 0.42567(7)
C87_4 C 0.85358(7) 0.42567(7) 0.27249(6)
C88_4 C 0.77249(6) 0.35358(7) 0.42567(7)
C89_4 C 0.92567(7) 0.27249(6) 0.35358(7)
C90_4 C 0.72751(6) 0.64642(7) 0.07433(7)
C91_4 C 0.57433(7) 0.72751(6) 0.14642(7)
H36_4 H 0.7573 0.5676 0.1360
H37_4 H 0.9324 0.6360 0.2427
H38_4 H 0.8640 0.7427 0.0676
H39_4 H 0.7427 0.4324 0.3640
H40_4 H 0.5676 0.3640 0.2573
H41_4 H 0.6360 0.2573 0.4324
H42_4 H 0.8640 0.4324 0.2573
H43_4 H 0.7573 0.3640 0.4324
H44_4 H 0.9324 0.2573 0.3640
H45_4 H 0.7427 0.6360 0.0676
H46_4 H 0.5676 0.7427 0.1360
C92_4 C 0.84348(7) 0.60406(7) 0.18844(7)
C93_4 C 0.81156(7) 0.65652(7) 0.10406(7)
C94_4 C 0.89594(7) 0.68844(7) 0.15652(7)
C95_4 C 0.65652(7) 0.39594(7) 0.31156(7)
C96_4 C 0.68844(7) 0.34348(7) 0.39594(7)
C97_4 C 0.60406(7) 0.31156(7) 0.34348(7)
C98_4 C 0.81156(7) 0.39594(7) 0.34348(7)
C99_4 C 0.89594(7) 0.34348(7) 0.31156(7)
C100_4 C 0.84348(7) 0.31156(7) 0.39594(7)
C101_4 C 0.60406(7) 0.65652(7) 0.18844(7)
C102_4 C 0.65652(7) 0.68844(7) 0.10406(7)
C103_4 C 0.62696(6) 0.64937(7) 0.16792(7)
C104_4 C 0.85063(7) 0.62696(6) 0.16792(7)
C105_4 C 0.83208(7) 0.64937(7) 0.12696(6)
C106_4 C 0.87304(6) 0.66792(7) 0.14937(7)
C107_4 C 0.64937(7) 0.37304(6) 0.33208(7)
C108_4 C 0.66792(7) 0.35063(7) 0.37304(6)
C109_4 C 0.62696(6) 0.33208(7) 0.35063(7)
C110_4 C 0.83208(7) 0.37304(6) 0.35063(7)
C111_4 C 0.87304(6) 0.35063(7) 0.33208(7)
C112_4 C 0.85063(7) 0.33208(7) 0.37304(6)
C113_4 C 0.64937(7) 0.66792(7) 0.12696(6)
C114_4 C 0.66914(7) 0.64649(7) 0.12825(6)
C115_4 C 0.83086(7) 0.62825(6) 0.14649(7)
C116_4 C 0.87175(6) 0.64649(7) 0.16914(7)
C117_4 C 0.85351(7) 0.66914(7) 0.12825(6)
C118_4 C 0.66914(7) 0.37175(6) 0.35351(7)
C119_4 C 0.62825(6) 0.35351(7) 0.33086(7)
C120_4 C 0.64649(7) 0.33086(7) 0.37175(6)
C121_4 C 0.85351(7) 0.37175(6) 0.33086(7)
C122_4 C 0.83086(7) 0.35351(7) 0.37175(6)
C123_4 C 0.87175(6) 0.33086(7) 0.35351(7)
C124_4 C 0.62825(6) 0.66914(7) 0.14649(7)
C125_4 C 0.83635(10) 0.61573(11) 0.21728(9)
C126_4 C 0.78272(9) 0.66365(10) 0.11573(11)
C127_4 C 0.88427(11) 0.71728(9) 0.16365(10)
C128_4 C 0.66365(10) 0.38427(11) 0.28272(9)
C129_4 C 0.71728(9) 0.33635(10) 0.38427(11)
C130_4 C 0.61573(11) 0.28272(9) 0.33635(10)
C131_4 C 0.78272(9) 0.38427(11) 0.33635(10)
C132_4 C 0.88427(11) 0.33635(10) 0.28272(9)
C133_4 C 0.83635(10) 0.28272(9) 0.38427(11)
C134_4 C 0.61573(11) 0.66365(10) 0.21728(9)
C135_4 C 0.66365(10) 0.71728(9) 0.11573(11)
H47_4 H 0.8290 0.6005 0.2288
H48_4 H 0.7712 0.6710 0.1005
H49_4 H 0.8995 0.7288 0.1710
H50_4 H 0.6710 0.3995 0.2712
H51_4 H 0.7288 0.3290 0.3995
H52_4 H 0.6005 0.2712 0.3290
H53_4 H 0.7712 0.3995 0.3290
H54_4 H 0.8995 0.3290 0.2712
H55_4 H 0.8290 0.2712 0.3995
H56_4 H 0.6005 0.6710 0.2288
H57_4 H 0.6710 0.7288 0.1005
H58_4 H 0.8536 0.6223 0.2261
H59_4 H 0.7739 0.6464 0.1223
H60_4 H 0.8777 0.7261 0.1464
H61_4 H 0.6464 0.3777 0.2739
H62_4 H 0.7261 0.3536 0.3777
H63_4 H 0.6223 0.2739 0.3536
H64_4 H 0.7739 0.3777 0.3536
H65_4 H 0.8777 0.3536 0.2739
H66_4 H 0.8536 0.2739 0.3777
H67_4 H 0.6223 0.6464 0.2261
H68_4 H 0.6464 0.7261 0.1223
C136_4 C 0.81566(14) 0.63907(12) 0.21735(11)
C137_4 C 0.78265(11) 0.68434(14) 0.13907(12)
C138_4 C 0.86093(12) 0.71735(11) 0.18434(14)
C139_4 C 0.68434(14) 0.36093(12) 0.28265(11)
C140_4 C 0.71735(11) 0.31566(14) 0.36093(12)
C141_4 C 0.63907(12) 0.28265(11) 0.31566(14)
C142_4 C 0.78265(11) 0.36093(12) 0.31566(14)
C143_4 C 0.86093(12) 0.31566(14) 0.28265(11)
C144_4 C 0.81566(14) 0.28265(11) 0.36093(12)
C145_4 C 0.63907(12) 0.68434(14) 0.21735(11)
C146_4 C 0.68434(14) 0.71735(11) 0.13907(12)
H69_4 H 0.8240 0.6555 0.2091
H70_4 H 0.7909 0.6760 0.1555
H71_4 H 0.8445 0.7091 0.1760
H72_4 H 0.6760 0.3445 0.2909
H73_4 H 0.7091 0.3240 0.3445
H74_4 H 0.6555 0.2909 0.3240
H75_4 H 0.7909 0.3445 0.3240
H76_4 H 0.8445 0.3240 0.2909
H77_4 H 0.8240 0.2909 0.3445
H78_4 H 0.6555 0.6760 0.2091
H79_4 H 0.6760 0.7091 0.1555
H80_4 H 0.8101 0.6431 0.2364
H81_4 H 0.7636 0.6899 0.1431
H82_4 H 0.8569 0.7364 0.1899
H83_4 H 0.6899 0.3569 0.2636
H84_4 H 0.7364 0.3101 0.3569
H85_4 H 0.6431 0.2636 0.3101
H86_4 H 0.7636 0.3569 0.3101
H87_4 H 0.8569 0.3101 0.2636
H88_4 H 0.8101 0.2636 0.3569
H89_4 H 0.6431 0.6899 0.2364
H90_4 H 0.6899 0.7364 0.1431
H91_4 H 0.7994 0.6337 0.2066
H92_4 H 0.7934 0.7006 0.1337
H93_4 H 0.8663 0.7066 0.2006
H94_4 H 0.7006 0.3663 0.2934
H95_4 H 0.7066 0.2994 0.3663
H96_4 H 0.6337 0.2934 0.2994
H97_4 H 0.7934 0.3663 0.2994
H98_4 H 0.8663 0.2994 0.2934
H99_4 H 0.7994 0.2934 0.3663
H100_4 H 0.6337 0.7006 0.2066
H101_4 H 0.7006 0.7066 0.1337
C147_4 C 0.86542(9) 0.57939(9) 0.18835(11)
C148_4 C 0.81165(11) 0.63458(9) 0.07939(9)
C149_4 C 0.92061(9) 0.68835(11) 0.13458(9)
C150_4 C 0.63458(9) 0.42061(9) 0.31165(11)
C151_4 C 0.68835(11) 0.36542(9) 0.42061(9)
C152_4 C 0.57939(9) 0.31165(11) 0.36542(9)
C153_4 C 0.81165(11) 0.42061(9) 0.36542(9)
C154_4 C 0.92061(9) 0.36542(9) 0.31165(11)
C155_4 C 0.86542(9) 0.31165(11) 0.42061(9)
C156_4 C 0.57939(9) 0.63458(9) 0.18835(11)
C157_4 C 0.63458(9) 0.68835(11) 0.07939(9)
H102_4 H 0.8830 0.5864 0.1961
H103_4 H 0.8039 0.6170 0.0864
H104_4 H 0.9136 0.6961 0.1170
H105_4 H 0.6170 0.4136 0.3039
H106_4 H 0.6961 0.3830 0.4136
H107_4 H 0.5864 0.3039 0.3830
H108_4 H 0.8039 0.4136 0.3830
H109_4 H 0.9136 0.3830 0.3039
H110_4 H 0.8830 0.3039 0.4136
H111_4 H 0.5864 0.6170 0.1961
H112_4 H 0.6170 0.6961 0.0864
H113_4 H 0.8587 0.5648 0.2010
H114_4 H 0.7990 0.6413 0.0648
H115_4 H 0.9352 0.7010 0.1413
H116_4 H 0.6413 0.4352 0.2990
H117_4 H 0.7010 0.3587 0.4352
H118_4 H 0.5648 0.2990 0.3587
H119_4 H 0.7990 0.4352 0.3587
H120_4 H 0.9352 0.3587 0.2990
H121_4 H 0.8587 0.2990 0.4352
H122_4 H 0.5648 0.6413 0.2010
H123_4 H 0.6413 0.7010 0.0648
C158_4 C 0.87146(13) 0.56636(13) 0.16078(13)
C159_4 C 0.83922(13) 0.62854(13) 0.06636(13)
C160_4 C 0.93364(13) 0.66078(13) 0.12854(13)
C161_4 C 0.62854(13) 0.43364(13) 0.33922(13)
C162_4 C 0.66078(13) 0.37146(13) 0.43364(13)
C163_4 C 0.56636(13) 0.33922(13) 0.37146(13)
C164_4 C 0.83922(13) 0.43364(13) 0.37146(13)
C165_4 C 0.93364(13) 0.37146(13) 0.33922(13)
C166_4 C 0.87146(13) 0.33922(13) 0.43364(13)
C167_4 C 0.56636(13) 0.62854(13) 0.16078(13)
C168_4 C 0.62854(13) 0.66078(13) 0.06636(13)
H124_4 H 0.8544 0.5587 0.1530
H125_4 H 0.8470 0.6456 0.0587
H126_4 H 0.9413 0.6530 0.1456
H127_4 H 0.6456 0.4413 0.3470
H128_4 H 0.6530 0.3544 0.4413
H129_4 H 0.5587 0.3470 0.3544
H130_4 H 0.8470 0.4413 0.3544
H131_4 H 0.9413 0.3544 0.3470
H132_4 H 0.8544 0.3470 0.4413
H133_4 H 0.5587 0.6456 0.1530
H134_4 H 0.6456 0.6530 0.0587
H135_4 H 0.8850 0.5515 0.1632
H136_4 H 0.8368 0.6150 0.0515
H137_4 H 0.9485 0.6632 0.1150
H138_4 H 0.6150 0.4485 0.3368
H139_4 H 0.6632 0.3850 0.4485
H140_4 H 0.5515 0.3368 0.3850
H141_4 H 0.8368 0.4485 0.3850
H142_4 H 0.9485 0.3850 0.3368
H143_4 H 0.8850 0.3368 0.4485
H144_4 H 0.5515 0.6150 0.1632
H145_4 H 0.6150 0.6632 0.0515
H146_4 H 0.8789 0.5803 0.1482
H147_4 H 0.8518 0.6211 0.0803
H148_4 H 0.9197 0.6482 0.1211
H149_4 H 0.6211 0.4197 0.3518
H150_4 H 0.6482 0.3789 0.4197
H151_4 H 0.5803 0.3518 0.3789
H152_4 H 0.8518 0.4197 0.3789
H153_4 H 0.9197 0.3789 0.3518
H154_4 H 0.8789 0.3518 0.4197
H155_4 H 0.5803 0.6211 0.1482
H156_4 H 0.6211 0.6482 0.0803
O36_7 O 0.82173(8) 0.5000 0.18258(7)
O37_7 O 0.81742(7) 0.5000 0.32173(8)
O38_7 O 0.68258(7) 0.5000 0.17827(8)
Cd5_5 Cd 0.798486(5) 0.775465(5) 1.0000
Cd6_5 Cd 0.775465(5) 0.701514(5) 1.0000
Cd16_4 Cd 0.701514(5) 0.724535(5) 1.0000
Cd7_4 Cd -0.0000 0.298486(5) 0.724535(5)
Cd13_4 Cd 0.0000 0.775465(5) 0.701514(5)
Cd14_4 Cd 0.0000 0.701514(5) 0.724535(5)
Cd16_5 Cd 0.701514(5) 0.275465(5) 0.0000
Cd1_8 Cd 0.701514(5) 0.5000 0.724535(5)
O2_5 O 0.67038(4) 0.46643(4) 0.73888(4)
O3_5 O 0.70644(4) 0.47071(4) 0.76602(4)
O4_8 O 0.7500 0.5000 0.7500
C1_5 C 0.68327(6) 0.45977(5) 0.76034(6)
C2_5 C 0.67168(6) 0.43774(6) 0.77868(6)
C3_5 C 0.68635(7) 0.42884(6) 0.80158(6)
H1_5 H 0.7034 0.4372 0.8063
C4_5 C 0.67576(7) 0.40752(6) 0.81747(6)
C5_5 C 0.65110(7) 0.39433(6) 0.81067(6)
C6_5 C 0.63615(7) 0.40397(7) 0.78807(7)
H2_5 H 0.6190 0.3957 0.7834
C7_5 C 0.64642(7) 0.42567(7) 0.77249(6)
H3_5 H 0.6360 0.4324 0.7573
C8_5 C 0.68844(7) 0.39594(7) 0.84348(7)
C9_5 C 0.66792(7) 0.37304(6) 0.85063(7)
C10_5 C 0.64649(7) 0.37175(6) 0.83086(7)
C11_5 C 0.71728(9) 0.38427(11) 0.83635(10)
H4_5 H 0.7288 0.3995 0.8290
H5_5 H 0.7261 0.3777 0.8536
C12_5 C 0.71735(11) 0.36093(12) 0.81566(14)
H6_5 H 0.7091 0.3445 0.8240
H7_5 H 0.7364 0.3569 0.8101
H8_5 H 0.7066 0.3663 0.7994
C13_5 C 0.68835(11) 0.42061(9) 0.86542(9)
H9_5 H 0.6961 0.4136 0.8830
H10_5 H 0.7010 0.4352 0.8587
C14_5 C 0.66078(13) 0.43364(13) 0.87146(13)
H11_5 H 0.6530 0.4413 0.8544
H12_5 H 0.6632 0.4485 0.8850
H13_5 H 0.6482 0.4197 0.8789
O5_8 O 0.67827(8) 0.5000 0.68258(7)
Cd2_7 Cd 0.724535(5) 0.5000 0.798486(5)
Cd3_4 Cd 0.775465(5) 0.5000 0.701514(5)
Cd4_3 Cd 0.798486(5) 0.5000 0.775465(5)
Cd7_5 Cd 1.0000 0.298486(5) 0.724535(5)
Cd9_8 Cd 0.701514(5) 0.775465(5) 0.5000
Cd10_8 Cd 0.724535(5) 0.701514(5) 0.5000
Cd11_7 Cd 0.5000 0.701514(5) 0.775465(5)
Cd12_7 Cd 0.5000 0.724535(5) 0.701514(5)
Cd13_5 Cd 1.0000 0.775465(5) 0.701514(5)
Cd14_5 Cd 1.0000 0.701514(5) 0.724535(5)
Cd15_8 Cd 0.798486(5) 0.724535(5) 0.5000
Cd16_6 Cd 0.701514(5) 0.275465(5) 1.0000
Cd18_6 Cd 0.5000 0.298486(5) 0.775465(5)
O6_5 O 0.67038(4) 0.53357(4) 0.73888(4)
O7_5 O 0.82962(4) 0.53357(4) 0.76112(4)
O8_3 O 0.82962(4) 0.46643(4) 0.76112(4)
O9_5 O 0.76112(4) 0.46643(4) 0.67038(4)
O10_5 O 0.76112(4) 0.53357(4) 0.67038(4)
O11_5 O 0.73888(4) 0.46643(4) 0.82962(4)
O12_4 O 0.73888(4) 0.53357(4) 0.82962(4)
O13_5 O 0.82962(4) 0.23888(4) 0.96643(4)
O14_5 O 0.96643(4) 0.32962(4) 0.73888(4)
O15_5 O 0.67038(4) 0.76112(4) 0.53357(4)
O16_5 O 0.53357(4) 0.67038(4) 0.76112(4)
O17_4 O 0.96643(4) 0.76112(4) 0.67038(4)
O18_5 O 0.73888(4) 0.67038(4) 0.53357(4)
O19_5 O 0.76112(4) 0.32962(4) 0.96643(4)
O20_4 O 0.53357(4) 0.23888(4) 0.82962(4)
O21_5 O 0.73398(4) 0.47071(4) 0.70644(4)
O22_5 O 0.70644(4) 0.52929(4) 0.76602(4)
O23_5 O 0.73398(4) 0.52929(4) 0.70644(4)
O24_5 O 0.76602(4) 0.47071(4) 0.79356(4)
O25_5 O 0.79356(4) 0.52929(4) 0.73398(4)
O26_4 O 0.76602(4) 0.52929(4) 0.79356(4)
O27_3 O 0.79356(4) 0.47071(4) 0.73398(4)
O28_5 O 0.79356(4) 0.26602(4) 0.97071(4)
O29_5 O 0.97071(4) 0.29356(4) 0.76602(4)
O30_5 O 0.70644(4) 0.73398(4) 0.52929(4)
O31_5 O 0.52929(4) 0.70644(4) 0.73398(4)
O32_4 O 0.97071(4) 0.73398(4) 0.70644(4)
O33_5 O 0.76602(4) 0.70644(4) 0.52929(4)
O34_5 O 0.73398(4) 0.29356(4) 0.97071(4)
O35_4 O 0.52929(4) 0.26602(4) 0.79356(4)
C15_5 C 0.76034(6) 0.45977(5) 0.81673(6)
C16_5 C 0.81673(6) 0.26034(6) 0.95977(5)
C17_5 C 0.95977(5) 0.31673(6) 0.76034(6)
C18_5 C 0.73966(6) 0.54023(5) 0.68327(6)
C19_5 C 0.68327(6) 0.73966(6) 0.54023(5)
C20_5 C 0.54023(5) 0.68327(6) 0.73966(6)
C21_5 C 0.81673(6) 0.54023(5) 0.73966(6)
C22_5 C 0.95977(5) 0.73966(6) 0.68327(6)
C23_5 C 0.76034(6) 0.68327(6) 0.54023(5)
C24_5 C 0.73966(6) 0.31673(6) 0.95977(5)
C25_5 C 0.54023(5) 0.26034(6) 0.81673(6)
C26_5 C 0.77868(6) 0.43774(6) 0.82832(6)
C27_5 C 0.82832(6) 0.27868(6) 0.93774(6)
C28_5 C 0.93774(6) 0.32832(6) 0.77868(6)
C29_5 C 0.72132(6) 0.56226(6) 0.67168(6)
C30_5 C 0.67168(6) 0.72132(6) 0.56226(6)
C31_5 C 0.56226(6) 0.67168(6) 0.72132(6)
C32_5 C 0.82832(6) 0.56226(6) 0.72132(6)
C33_5 C 0.93774(6) 0.72132(6) 0.67168(6)
C34_5 C 0.77868(6) 0.67168(6) 0.56226(6)
C35_5 C 0.72132(6) 0.32832(6) 0.93774(6)
C36_5 C 0.56226(6) 0.27868(6) 0.82832(6)
C37_5 C 0.80158(6) 0.42884(6) 0.81365(7)
C38_5 C 0.81365(7) 0.30158(6) 0.92884(6)
C39_5 C 0.92884(6) 0.31365(7) 0.80158(6)
C40_5 C 0.69842(6) 0.57116(6) 0.68635(7)
C41_5 C 0.68635(7) 0.69842(6) 0.57116(6)
C42_5 C 0.57116(6) 0.68635(7) 0.69842(6)
C43_5 C 0.81365(7) 0.57116(6) 0.69842(6)
C44_5 C 0.92884(6) 0.69842(6) 0.68635(7)
C45_5 C 0.80158(6) 0.68635(7) 0.57116(6)
C46_5 C 0.69842(6) 0.31365(7) 0.92884(6)
C47_5 C 0.57116(6) 0.30158(6) 0.81365(7)
H14_5 H 0.8063 0.4372 0.7966
H15_5 H 0.7966 0.3063 0.9372
H16_5 H 0.9372 0.2966 0.8063
H17_5 H 0.6937 0.5628 0.7034
H18_5 H 0.7034 0.6937 0.5628
H19_5 H 0.5628 0.7034 0.6937
H20_5 H 0.7966 0.5628 0.6937
H21_5 H 0.9372 0.6937 0.7034
H22_5 H 0.8063 0.7034 0.5628
H23_5 H 0.6937 0.2966 0.9372
H24_5 H 0.5628 0.3063 0.7966
C48_5 C 0.81747(6) 0.40752(6) 0.82424(7)
C49_5 C 0.82424(7) 0.31747(6) 0.90752(6)
C50_5 C 0.90752(6) 0.32424(7) 0.81747(6)
C51_5 C 0.68253(6) 0.59248(6) 0.67576(7)
C52_5 C 0.67576(7) 0.68253(6) 0.59248(6)
C53_5 C 0.59248(6) 0.67576(7) 0.68253(6)
C54_5 C 0.82424(7) 0.59248(6) 0.68253(6)
C55_5 C 0.90752(6) 0.68253(6) 0.67576(7)
C56_5 C 0.81747(6) 0.67576(7) 0.59248(6)
C57_5 C 0.68253(6) 0.32424(7) 0.90752(6)
C58_5 C 0.59248(6) 0.31747(6) 0.82424(7)
C59_5 C 0.81067(6) 0.39433(6) 0.84890(7)
C60_5 C 0.89433(6) 0.34890(7) 0.81067(6)
C61_5 C 0.84890(7) 0.31067(6) 0.89433(6)
C62_5 C 0.68933(6) 0.60567(6) 0.65110(7)
C63_5 C 0.60567(6) 0.65110(7) 0.68933(6)
C64_5 C 0.65110(7) 0.68933(6) 0.60567(6)
C65_5 C 0.84890(7) 0.60567(6) 0.68933(6)
C66_5 C 0.81067(6) 0.65110(7) 0.60567(6)
C67_5 C 0.89433(6) 0.68933(6) 0.65110(7)
C68_5 C 0.68933(6) 0.34890(7) 0.89433(6)
C69_5 C 0.60567(6) 0.31067(6) 0.84890(7)
C70_5 C 0.78807(7) 0.40397(7) 0.86385(7)
C71_5 C 0.90397(7) 0.36385(7) 0.78807(7)
C72_5 C 0.86385(7) 0.28807(7) 0.90397(7)
C73_5 C 0.71193(7) 0.59603(7) 0.63615(7)
C74_5 C 0.59603(7) 0.63615(7) 0.71193(7)
C75_5 C 0.63615(7) 0.71193(7) 0.59603(7)
C76_5 C 0.86385(7) 0.59603(7) 0.71193(7)
C77_5 C 0.78807(7) 0.63615(7) 0.59603(7)
C78_5 C 0.90397(7) 0.71193(7) 0.63615(7)
C79_5 C 0.71193(7) 0.36385(7) 0.90397(7)
C80_5 C 0.59603(7) 0.28807(7) 0.86385(7)
H25_5 H 0.7834 0.3957 0.8810
H26_5 H 0.8957 0.3810 0.7834
H27_5 H 0.8810 0.2834 0.8957
H28_5 H 0.7166 0.6043 0.6190
H29_5 H 0.6043 0.6190 0.7166
H30_5 H 0.6190 0.7166 0.6043
H31_5 H 0.8810 0.6043 0.7166
H32_5 H 0.7834 0.6190 0.6043
H33_5 H 0.8957 0.7166 0.6190
H34_5 H 0.7166 0.3810 0.8957
H35_5 H 0.6043 0.2834 0.8810
C81_5 C 0.77249(6) 0.42567(7) 0.85358(7)
C82_5 C 0.92567(7) 0.35358(7) 0.77249(6)
C83_5 C 0.85358(7) 0.27249(6) 0.92567(7)
C84_5 C 0.72751(6) 0.57433(7) 0.64642(7)
C85_5 C 0.57433(7) 0.64642(7) 0.72751(6)
C86_5 C 0.64642(7) 0.72751(6) 0.57433(7)
C87_5 C 0.85358(7) 0.57433(7) 0.72751(6)
C88_5 C 0.77249(6) 0.64642(7) 0.57433(7)
C89_5 C 0.92567(7) 0.72751(6) 0.64642(7)
C90_5 C 0.72751(6) 0.35358(7) 0.92567(7)
C91_5 C 0.57433(7) 0.27249(6) 0.85358(7)
H36_5 H 0.7573 0.4324 0.8640
H37_5 H 0.9324 0.3640 0.7573
H38_5 H 0.8640 0.2573 0.9324
H39_5 H 0.7427 0.5676 0.6360
H40_5 H 0.5676 0.6360 0.7427
H41_5 H 0.6360 0.7427 0.5676
H42_5 H 0.8640 0.5676 0.7427
H43_5 H 0.7573 0.6360 0.5676
H44_5 H 0.9324 0.7427 0.6360
H45_5 H 0.7427 0.3640 0.9324
H46_5 H 0.5676 0.2573 0.8640
C92_5 C 0.84348(7) 0.39594(7) 0.81156(7)
C93_5 C 0.81156(7) 0.34348(7) 0.89594(7)
C94_5 C 0.89594(7) 0.31156(7) 0.84348(7)
C95_5 C 0.65652(7) 0.60406(7) 0.68844(7)
C96_5 C 0.68844(7) 0.65652(7) 0.60406(7)
C97_5 C 0.60406(7) 0.68844(7) 0.65652(7)
C98_5 C 0.81156(7) 0.60406(7) 0.65652(7)
C99_5 C 0.89594(7) 0.65652(7) 0.68844(7)
C100_5 C 0.84348(7) 0.68844(7) 0.60406(7)
C101_5 C 0.60406(7) 0.34348(7) 0.81156(7)
C102_5 C 0.65652(7) 0.31156(7) 0.89594(7)
C103_5 C 0.62696(6) 0.35063(7) 0.83208(7)
C104_5 C 0.85063(7) 0.37304(6) 0.83208(7)
C105_5 C 0.83208(7) 0.35063(7) 0.87304(6)
C106_5 C 0.87304(6) 0.33208(7) 0.85063(7)
C107_5 C 0.64937(7) 0.62696(6) 0.66792(7)
C108_5 C 0.66792(7) 0.64937(7) 0.62696(6)
C109_5 C 0.62696(6) 0.66792(7) 0.64937(7)
C110_5 C 0.83208(7) 0.62696(6) 0.64937(7)
C111_5 C 0.87304(6) 0.64937(7) 0.66792(7)
C112_5 C 0.85063(7) 0.66792(7) 0.62696(6)
C113_5 C 0.64937(7) 0.33208(7) 0.87304(6)
C114_5 C 0.66914(7) 0.35351(7) 0.87175(6)
C115_5 C 0.83086(7) 0.37175(6) 0.85351(7)
C116_5 C 0.87175(6) 0.35351(7) 0.83086(7)
C117_5 C 0.85351(7) 0.33086(7) 0.87175(6)
C118_5 C 0.66914(7) 0.62825(6) 0.64649(7)
C119_5 C 0.62825(6) 0.64649(7) 0.66914(7)
C120_5 C 0.64649(7) 0.66914(7) 0.62825(6)
C121_5 C 0.85351(7) 0.62825(6) 0.66914(7)
C122_5 C 0.83086(7) 0.64649(7) 0.62825(6)
C123_5 C 0.87175(6) 0.66914(7) 0.64649(7)
C124_5 C 0.62825(6) 0.33086(7) 0.85351(7)
C125_5 C 0.83635(10) 0.38427(11) 0.78272(9)
C126_5 C 0.78272(9) 0.33635(10) 0.88427(11)
C127_5 C 0.88427(11) 0.28272(9) 0.83635(10)
C128_5 C 0.66365(10) 0.61573(11) 0.71728(9)
C129_5 C 0.71728(9) 0.66365(10) 0.61573(11)
C130_5 C 0.61573(11) 0.71728(9) 0.66365(10)
C131_5 C 0.78272(9) 0.61573(11) 0.66365(10)
C132_5 C 0.88427(11) 0.66365(10) 0.71728(9)
C133_5 C 0.83635(10) 0.71728(9) 0.61573(11)
C134_5 C 0.61573(11) 0.33635(10) 0.78272(9)
C135_5 C 0.66365(10) 0.28272(9) 0.88427(11)
H47_5 H 0.8290 0.3995 0.7712
H48_5 H 0.7712 0.3290 0.8995
H49_5 H 0.8995 0.2712 0.8290
H50_5 H 0.6710 0.6005 0.7288
H51_5 H 0.7288 0.6710 0.6005
H52_5 H 0.6005 0.7288 0.6710
H53_5 H 0.7712 0.6005 0.6710
H54_5 H 0.8995 0.6710 0.7288
H55_5 H 0.8290 0.7288 0.6005
H56_5 H 0.6005 0.3290 0.7712
H57_5 H 0.6710 0.2712 0.8995
H58_5 H 0.8536 0.3777 0.7739
H59_5 H 0.7739 0.3536 0.8777
H60_5 H 0.8777 0.2739 0.8536
H61_5 H 0.6464 0.6223 0.7261
H62_5 H 0.7261 0.6464 0.6223
H63_5 H 0.6223 0.7261 0.6464
H64_5 H 0.7739 0.6223 0.6464
H65_5 H 0.8777 0.6464 0.7261
H66_5 H 0.8536 0.7261 0.6223
H67_5 H 0.6223 0.3536 0.7739
H68_5 H 0.6464 0.2739 0.8777
C136_5 C 0.81566(14) 0.36093(12) 0.78265(11)
C137_5 C 0.78265(11) 0.31566(14) 0.86093(12)
C138_5 C 0.86093(12) 0.28265(11) 0.81566(14)
C139_5 C 0.68434(14) 0.63907(12) 0.71735(11)
C140_5 C 0.71735(11) 0.68434(14) 0.63907(12)
C141_5 C 0.63907(12) 0.71735(11) 0.68434(14)
C142_5 C 0.78265(11) 0.63907(12) 0.68434(14)
C143_5 C 0.86093(12) 0.68434(14) 0.71735(11)
C144_5 C 0.81566(14) 0.71735(11) 0.63907(12)
C145_5 C 0.63907(12) 0.31566(14) 0.78265(11)
C146_5 C 0.68434(14) 0.28265(11) 0.86093(12)
H69_5 H 0.8240 0.3445 0.7909
H70_5 H 0.7909 0.3240 0.8445
H71_5 H 0.8445 0.2909 0.8240
H72_5 H 0.6760 0.6555 0.7091
H73_5 H 0.7091 0.6760 0.6555
H74_5 H 0.6555 0.7091 0.6760
H75_5 H 0.7909 0.6555 0.6760
H76_5 H 0.8445 0.6760 0.7091
H77_5 H 0.8240 0.7091 0.6555
H78_5 H 0.6555 0.3240 0.7909
H79_5 H 0.6760 0.2909 0.8445
H80_5 H 0.8101 0.3569 0.7636
H81_5 H 0.7636 0.3101 0.8569
H82_5 H 0.8569 0.2636 0.8101
H83_5 H 0.6899 0.6431 0.7364
H84_5 H 0.7364 0.6899 0.6431
H85_5 H 0.6431 0.7364 0.6899
H86_5 H 0.7636 0.6431 0.6899
H87_5 H 0.8569 0.6899 0.7364
H88_5 H 0.8101 0.7364 0.6431
H89_5 H 0.6431 0.3101 0.7636
H90_5 H 0.6899 0.2636 0.8569
H91_5 H 0.7994 0.3663 0.7934
H92_5 H 0.7934 0.2994 0.8663
H93_5 H 0.8663 0.2934 0.7994
H94_5 H 0.7006 0.6337 0.7066
H95_5 H 0.7066 0.7006 0.6337
H96_5 H 0.6337 0.7066 0.7006
H97_5 H 0.7934 0.6337 0.7006
H98_5 H 0.8663 0.7006 0.7066
H99_5 H 0.7994 0.7066 0.6337
H100_5 H 0.6337 0.2994 0.7934
H101_5 H 0.7006 0.2934 0.8663
C147_5 C 0.86542(9) 0.42061(9) 0.81165(11)
C148_5 C 0.81165(11) 0.36542(9) 0.92061(9)
C149_5 C 0.92061(9) 0.31165(11) 0.86542(9)
C150_5 C 0.63458(9) 0.57939(9) 0.68835(11)
C151_5 C 0.68835(11) 0.63458(9) 0.57939(9)
C152_5 C 0.57939(9) 0.68835(11) 0.63458(9)
C153_5 C 0.81165(11) 0.57939(9) 0.63458(9)
C154_5 C 0.92061(9) 0.63458(9) 0.68835(11)
C155_5 C 0.86542(9) 0.68835(11) 0.57939(9)
C156_5 C 0.57939(9) 0.36542(9) 0.81165(11)
C157_5 C 0.63458(9) 0.31165(11) 0.92061(9)
H102_5 H 0.8830 0.4136 0.8039
H103_5 H 0.8039 0.3830 0.9136
H104_5 H 0.9136 0.3039 0.8830
H105_5 H 0.6170 0.5864 0.6961
H106_5 H 0.6961 0.6170 0.5864
H107_5 H 0.5864 0.6961 0.6170
H108_5 H 0.8039 0.5864 0.6170
H109_5 H 0.9136 0.6170 0.6961
H110_5 H 0.8830 0.6961 0.5864
H111_5 H 0.5864 0.3830 0.8039
H112_5 H 0.6170 0.3039 0.9136
H113_5 H 0.8587 0.4352 0.7990
H114_5 H 0.7990 0.3587 0.9352
H115_5 H 0.9352 0.2990 0.8587
H116_5 H 0.6413 0.5648 0.7010
H117_5 H 0.7010 0.6413 0.5648
H118_5 H 0.5648 0.7010 0.6413
H119_5 H 0.7990 0.5648 0.6413
H120_5 H 0.9352 0.6413 0.7010
H121_5 H 0.8587 0.7010 0.5648
H122_5 H 0.5648 0.3587 0.7990
H123_5 H 0.6413 0.2990 0.9352
C158_5 C 0.87146(13) 0.43364(13) 0.83922(13)
C159_5 C 0.83922(13) 0.37146(13) 0.93364(13)
C160_5 C 0.93364(13) 0.33922(13) 0.87146(13)
C161_5 C 0.62854(13) 0.56636(13) 0.66078(13)
C162_5 C 0.66078(13) 0.62854(13) 0.56636(13)
C163_5 C 0.56636(13) 0.66078(13) 0.62854(13)
C164_5 C 0.83922(13) 0.56636(13) 0.62854(13)
C165_5 C 0.93364(13) 0.62854(13) 0.66078(13)
C166_5 C 0.87146(13) 0.66078(13) 0.56636(13)
C167_5 C 0.56636(13) 0.37146(13) 0.83922(13)
C168_5 C 0.62854(13) 0.33922(13) 0.93364(13)
H124_5 H 0.8544 0.4413 0.8470
H125_5 H 0.8470 0.3544 0.9413
H126_5 H 0.9413 0.3470 0.8544
H127_5 H 0.6456 0.5587 0.6530
H128_5 H 0.6530 0.6456 0.5587
H129_5 H 0.5587 0.6530 0.6456
H130_5 H 0.8470 0.5587 0.6456
H131_5 H 0.9413 0.6456 0.6530
H132_5 H 0.8544 0.6530 0.5587
H133_5 H 0.5587 0.3544 0.8470
H134_5 H 0.6456 0.3470 0.9413
H135_5 H 0.8850 0.4485 0.8368
H136_5 H 0.8368 0.3850 0.9485
H137_5 H 0.9485 0.3368 0.8850
H138_5 H 0.6150 0.5515 0.6632
H139_5 H 0.6632 0.6150 0.5515
H140_5 H 0.5515 0.6632 0.6150
H141_5 H 0.8368 0.5515 0.6150
H142_5 H 0.9485 0.6150 0.6632
H143_5 H 0.8850 0.6632 0.5515
H144_5 H 0.5515 0.3850 0.8368
H145_5 H 0.6150 0.3368 0.9485
H146_5 H 0.8789 0.4197 0.8518
H147_5 H 0.8518 0.3789 0.9197
H148_5 H 0.9197 0.3518 0.8789
H149_5 H 0.6211 0.5803 0.6482
H150_5 H 0.6482 0.6211 0.5803
H151_5 H 0.5803 0.6482 0.6211
H152_5 H 0.8518 0.5803 0.6211
H153_5 H 0.9197 0.6211 0.6482
H154_5 H 0.8789 0.6482 0.5803
H155_5 H 0.5803 0.3789 0.8518
H156_5 H 0.6211 0.3518 0.9197
O36_8 O 0.82173(8) 0.5000 0.81742(7)
O37_8 O 0.81742(7) 0.5000 0.67827(8)
O38_8 O 0.68258(7) 0.5000 0.82173(8)
Cd6_6 Cd 0.224535(5) 0.701514(5) 0.0000
Cd16_7 Cd 0.298486(5) 0.724535(5) 0.0000
Cd1_9 Cd 0.298486(5) 0.5000 0.724535(5)
O2_6 O 0.32962(4) 0.53357(4) 0.73888(4)
O3_6 O 0.29356(4) 0.52929(4) 0.76602(4)
O4_9 O 0.2500 0.5000 0.7500
C1_6 C 0.31673(6) 0.54023(5) 0.76034(6)
C2_6 C 0.32832(6) 0.56226(6) 0.77868(6)
C3_6 C 0.31365(7) 0.57116(6) 0.80158(6)
H1_6 H 0.2966 0.5628 0.8063
C4_6 C 0.32424(7) 0.59248(6) 0.81747(6)
C5_6 C 0.34890(7) 0.60567(6) 0.81067(6)
C6_6 C 0.36385(7) 0.59603(7) 0.78807(7)
H2_6 H 0.3810 0.6043 0.7834
C7_6 C 0.35358(7) 0.57433(7) 0.77249(6)
H3_6 H 0.3640 0.5676 0.7573
C8_6 C 0.31156(7) 0.60406(7) 0.84348(7)
C9_6 C 0.33208(7) 0.62696(6) 0.85063(7)
C10_6 C 0.35351(7) 0.62825(6) 0.83086(7)
C11_6 C 0.28272(9) 0.61573(11) 0.83635(10)
H4_6 H 0.2712 0.6005 0.8290
H5_6 H 0.2739 0.6223 0.8536
C12_6 C 0.28265(11) 0.63907(12) 0.81566(14)
H6_6 H 0.2909 0.6555 0.8240
H7_6 H 0.2636 0.6431 0.8101
H8_6 H 0.2934 0.6337 0.7994
C13_6 C 0.31165(11) 0.57939(9) 0.86542(9)
H9_6 H 0.3039 0.5864 0.8830
H10_6 H 0.2990 0.5648 0.8587
C14_6 C 0.33922(13) 0.56636(13) 0.87146(13)
H11_6 H 0.3470 0.5587 0.8544
H12_6 H 0.3368 0.5515 0.8850
H13_6 H 0.3518 0.5803 0.8789
O5_9 O 0.32173(8) 0.5000 0.68258(7)
Cd2_8 Cd 0.275465(5) 0.5000 0.798486(5)
Cd3_5 Cd 0.224535(5) 0.5000 0.701514(5)
Cd4_4 Cd 0.201514(5) 0.5000 0.775465(5)
Cd6_7 Cd 0.224535(5) 0.701514(5) 1.0000
Cd8_4 Cd -0.0000 0.724535(5) 0.798486(5)
Cd12_8 Cd 0.5000 0.275465(5) 0.701514(5)
Cd13_6 Cd 0.0000 0.224535(5) 0.701514(5)
Cd16_8 Cd 0.298486(5) 0.724535(5) 1.0000
Cd17_6 Cd 0.5000 0.775465(5) 0.798486(5)
O6_6 O 0.32962(4) 0.46643(4) 0.73888(4)
O7_6 O 0.17038(4) 0.46643(4) 0.76112(4)
O8_4 O 0.17038(4) 0.53357(4) 0.76112(4)
O9_6 O 0.23888(4) 0.53357(4) 0.67038(4)
O10_6 O 0.23888(4) 0.46643(4) 0.67038(4)
O11_6 O 0.26112(4) 0.53357(4) 0.82962(4)
O12_5 O 0.26112(4) 0.46643(4) 0.82962(4)
O13_6 O 0.17038(4) 0.76112(4) 0.96643(4)
O14_6 O 0.03357(4) 0.67038(4) 0.73888(4)
O15_6 O 0.32962(4) 0.23888(4) 0.53357(4)
O16_6 O 0.46643(4) 0.32962(4) 0.76112(4)
O17_5 O 0.03357(4) 0.23888(4) 0.67038(4)
O18_6 O 0.26112(4) 0.32962(4) 0.53357(4)
O19_6 O 0.23888(4) 0.67038(4) 0.96643(4)
O20_5 O 0.46643(4) 0.76112(4) 0.82962(4)
O21_6 O 0.26602(4) 0.52929(4) 0.70644(4)
O22_6 O 0.29356(4) 0.47071(4) 0.76602(4)
O23_6 O 0.26602(4) 0.47071(4) 0.70644(4)
O24_6 O 0.23398(4) 0.52929(4) 0.79356(4)
O25_6 O 0.20644(4) 0.47071(4) 0.73398(4)
O26_5 O 0.23398(4) 0.47071(4) 0.79356(4)
O27_4 O 0.20644(4) 0.52929(4) 0.73398(4)
O28_6 O 0.20644(4) 0.73398(4) 0.97071(4)
O29_6 O 0.02929(4) 0.70644(4) 0.76602(4)
O30_6 O 0.29356(4) 0.26602(4) 0.52929(4)
O31_6 O 0.47071(4) 0.29356(4) 0.73398(4)
O32_5 O 0.02929(4) 0.26602(4) 0.70644(4)
O33_6 O 0.23398(4) 0.29356(4) 0.52929(4)
O34_6 O 0.26602(4) 0.70644(4) 0.97071(4)
O35_5 O 0.47071(4) 0.73398(4) 0.79356(4)
C15_6 C 0.23966(6) 0.54023(5) 0.81673(6)
C16_6 C 0.18327(6) 0.73966(6) 0.95977(5)
C17_6 C 0.04023(5) 0.68327(6) 0.76034(6)
C18_6 C 0.26034(6) 0.45977(5) 0.68327(6)
C19_6 C 0.31673(6) 0.26034(6) 0.54023(5)
C20_6 C 0.45977(5) 0.31673(6) 0.73966(6)
C21_6 C 0.18327(6) 0.45977(5) 0.73966(6)
C22_6 C 0.04023(5) 0.26034(6) 0.68327(6)
C23_6 C 0.23966(6) 0.31673(6) 0.54023(5)
C24_6 C 0.26034(6) 0.68327(6) 0.95977(5)
C25_6 C 0.45977(5) 0.73966(6) 0.81673(6)
C26_6 C 0.22132(6) 0.56226(6) 0.82832(6)
C27_6 C 0.17168(6) 0.72132(6) 0.93774(6)
C28_6 C 0.06226(6) 0.67168(6) 0.77868(6)
C29_6 C 0.27868(6) 0.43774(6) 0.67168(6)
C30_6 C 0.32832(6) 0.27868(6) 0.56226(6)
C31_6 C 0.43774(6) 0.32832(6) 0.72132(6)
C32_6 C 0.17168(6) 0.43774(6) 0.72132(6)
C33_6 C 0.06226(6) 0.27868(6) 0.67168(6)
C34_6 C 0.22132(6) 0.32832(6) 0.56226(6)
C35_6 C 0.27868(6) 0.67168(6) 0.93774(6)
C36_6 C 0.43774(6) 0.72132(6) 0.82832(6)
C37_6 C 0.19842(6) 0.57116(6) 0.81365(7)
C38_6 C 0.18635(7) 0.69842(6) 0.92884(6)
C39_6 C 0.07116(6) 0.68635(7) 0.80158(6)
C40_6 C 0.30158(6) 0.42884(6) 0.68635(7)
C41_6 C 0.31365(7) 0.30158(6) 0.57116(6)
C42_6 C 0.42884(6) 0.31365(7) 0.69842(6)
C43_6 C 0.18635(7) 0.42884(6) 0.69842(6)
C44_6 C 0.07116(6) 0.30158(6) 0.68635(7)
C45_6 C 0.19842(6) 0.31365(7) 0.57116(6)
C46_6 C 0.30158(6) 0.68635(7) 0.92884(6)
C47_6 C 0.42884(6) 0.69842(6) 0.81365(7)
H14_6 H 0.1937 0.5628 0.7966
H15_6 H 0.2034 0.6937 0.9372
H16_6 H 0.0628 0.7034 0.8063
H17_6 H 0.3063 0.4372 0.7034
H18_6 H 0.2966 0.3063 0.5628
H19_6 H 0.4372 0.2966 0.6937
H20_6 H 0.2034 0.4372 0.6937
H21_6 H 0.0628 0.3063 0.7034
H22_6 H 0.1937 0.2966 0.5628
H23_6 H 0.3063 0.7034 0.9372
H24_6 H 0.4372 0.6937 0.7966
C48_6 C 0.18253(6) 0.59248(6) 0.82424(7)
C49_6 C 0.17576(7) 0.68253(6) 0.90752(6)
C50_6 C 0.09248(6) 0.67576(7) 0.81747(6)
C51_6 C 0.31747(6) 0.40752(6) 0.67576(7)
C52_6 C 0.32424(7) 0.31747(6) 0.59248(6)
C53_6 C 0.40752(6) 0.32424(7) 0.68253(6)
C54_6 C 0.17576(7) 0.40752(6) 0.68253(6)
C55_6 C 0.09248(6) 0.31747(6) 0.67576(7)
C56_6 C 0.18253(6) 0.32424(7) 0.59248(6)
C57_6 C 0.31747(6) 0.67576(7) 0.90752(6)
C58_6 C 0.40752(6) 0.68253(6) 0.82424(7)
C59_6 C 0.18933(6) 0.60567(6) 0.84890(7)
C60_6 C 0.10567(6) 0.65110(7) 0.81067(6)
C61_6 C 0.15110(7) 0.68933(6) 0.89433(6)
C62_6 C 0.31067(6) 0.39433(6) 0.65110(7)
C63_6 C 0.39433(6) 0.34890(7) 0.68933(6)
C64_6 C 0.34890(7) 0.31067(6) 0.60567(6)
C65_6 C 0.15110(7) 0.39433(6) 0.68933(6)
C66_6 C 0.18933(6) 0.34890(7) 0.60567(6)
C67_6 C 0.10567(6) 0.31067(6) 0.65110(7)
C68_6 C 0.31067(6) 0.65110(7) 0.89433(6)
C69_6 C 0.39433(6) 0.68933(6) 0.84890(7)
C70_6 C 0.21193(7) 0.59603(7) 0.86385(7)
C71_6 C 0.09603(7) 0.63615(7) 0.78807(7)
C72_6 C 0.13615(7) 0.71193(7) 0.90397(7)
C73_6 C 0.28807(7) 0.40397(7) 0.63615(7)
C74_6 C 0.40397(7) 0.36385(7) 0.71193(7)
C75_6 C 0.36385(7) 0.28807(7) 0.59603(7)
C76_6 C 0.13615(7) 0.40397(7) 0.71193(7)
C77_6 C 0.21193(7) 0.36385(7) 0.59603(7)
C78_6 C 0.09603(7) 0.28807(7) 0.63615(7)
C79_6 C 0.28807(7) 0.63615(7) 0.90397(7)
C80_6 C 0.40397(7) 0.71193(7) 0.86385(7)
H25_6 H 0.2166 0.6043 0.8810
H26_6 H 0.1043 0.6190 0.7834
H27_6 H 0.1190 0.7166 0.8957
H28_6 H 0.2834 0.3957 0.6190
H29_6 H 0.3957 0.3810 0.7166
H30_6 H 0.3810 0.2834 0.6043
H31_6 H 0.1190 0.3957 0.7166
H32_6 H 0.2166 0.3810 0.6043
H33_6 H 0.1043 0.2834 0.6190
H34_6 H 0.2834 0.6190 0.8957
H35_6 H 0.3957 0.7166 0.8810
C81_6 C 0.22751(6) 0.57433(7) 0.85358(7)
C82_6 C 0.07433(7) 0.64642(7) 0.77249(6)
C83_6 C 0.14642(7) 0.72751(6) 0.92567(7)
C84_6 C 0.27249(6) 0.42567(7) 0.64642(7)
C85_6 C 0.42567(7) 0.35358(7) 0.72751(6)
C86_6 C 0.35358(7) 0.27249(6) 0.57433(7)
C87_6 C 0.14642(7) 0.42567(7) 0.72751(6)
C88_6 C 0.22751(6) 0.35358(7) 0.57433(7)
C89_6 C 0.07433(7) 0.27249(6) 0.64642(7)
C90_6 C 0.27249(6) 0.64642(7) 0.92567(7)
C91_6 C 0.42567(7) 0.72751(6) 0.85358(7)
H36_6 H 0.2427 0.5676 0.8640
H37_6 H 0.0676 0.6360 0.7573
H38_6 H 0.1360 0.7427 0.9324
H39_6 H 0.2573 0.4324 0.6360
H40_6 H 0.4324 0.3640 0.7427
H41_6 H 0.3640 0.2573 0.5676
H42_6 H 0.1360 0.4324 0.7427
H43_6 H 0.2427 0.3640 0.5676
H44_6 H 0.0676 0.2573 0.6360
H45_6 H 0.2573 0.6360 0.9324
H46_6 H 0.4324 0.7427 0.8640
C92_6 C 0.15652(7) 0.60406(7) 0.81156(7)
C93_6 C 0.18844(7) 0.65652(7) 0.89594(7)
C94_6 C 0.10406(7) 0.68844(7) 0.84348(7)
C95_6 C 0.34348(7) 0.39594(7) 0.68844(7)
C96_6 C 0.31156(7) 0.34348(7) 0.60406(7)
C97_6 C 0.39594(7) 0.31156(7) 0.65652(7)
C98_6 C 0.18844(7) 0.39594(7) 0.65652(7)
C99_6 C 0.10406(7) 0.34348(7) 0.68844(7)
C100_6 C 0.15652(7) 0.31156(7) 0.60406(7)
C101_6 C 0.39594(7) 0.65652(7) 0.81156(7)
C102_6 C 0.34348(7) 0.68844(7) 0.89594(7)
C103_6 C 0.37304(6) 0.64937(7) 0.83208(7)
C104_6 C 0.14937(7) 0.62696(6) 0.83208(7)
C105_6 C 0.16792(7) 0.64937(7) 0.87304(6)
C106_6 C 0.12696(6) 0.66792(7) 0.85063(7)
C107_6 C 0.35063(7) 0.37304(6) 0.66792(7)
C108_6 C 0.33208(7) 0.35063(7) 0.62696(6)
C109_6 C 0.37304(6) 0.33208(7) 0.64937(7)
C110_6 C 0.16792(7) 0.37304(6) 0.64937(7)
C111_6 C 0.12696(6) 0.35063(7) 0.66792(7)
C112_6 C 0.14937(7) 0.33208(7) 0.62696(6)
C113_6 C 0.35063(7) 0.66792(7) 0.87304(6)
C114_6 C 0.33086(7) 0.64649(7) 0.87175(6)
C115_6 C 0.16914(7) 0.62825(6) 0.85351(7)
C116_6 C 0.12825(6) 0.64649(7) 0.83086(7)
C117_6 C 0.14649(7) 0.66914(7) 0.87175(6)
C118_6 C 0.33086(7) 0.37175(6) 0.64649(7)
C119_6 C 0.37175(6) 0.35351(7) 0.66914(7)
C120_6 C 0.35351(7) 0.33086(7) 0.62825(6)
C121_6 C 0.14649(7) 0.37175(6) 0.66914(7)
C122_6 C 0.16914(7) 0.35351(7) 0.62825(6)
C123_6 C 0.12825(6) 0.33086(7) 0.64649(7)
C124_6 C 0.37175(6) 0.66914(7) 0.85351(7)
C125_6 C 0.16365(10) 0.61573(11) 0.78272(9)
C126_6 C 0.21728(9) 0.66365(10) 0.88427(11)
C127_6 C 0.11573(11) 0.71728(9) 0.83635(10)
C128_6 C 0.33635(10) 0.38427(11) 0.71728(9)
C129_6 C 0.28272(9) 0.33635(10) 0.61573(11)
C130_6 C 0.38427(11) 0.28272(9) 0.66365(10)
C131_6 C 0.21728(9) 0.38427(11) 0.66365(10)
C132_6 C 0.11573(11) 0.33635(10) 0.71728(9)
C133_6 C 0.16365(10) 0.28272(9) 0.61573(11)
C134_6 C 0.38427(11) 0.66365(10) 0.78272(9)
C135_6 C 0.33635(10) 0.71728(9) 0.88427(11)
H47_6 H 0.1710 0.6005 0.7712
H48_6 H 0.2288 0.6710 0.8995
H49_6 H 0.1005 0.7288 0.8290
H50_6 H 0.3290 0.3995 0.7288
H51_6 H 0.2712 0.3290 0.6005
H52_6 H 0.3995 0.2712 0.6710
H53_6 H 0.2288 0.3995 0.6710
H54_6 H 0.1005 0.3290 0.7288
H55_6 H 0.1710 0.2712 0.6005
H56_6 H 0.3995 0.6710 0.7712
H57_6 H 0.3290 0.7288 0.8995
H58_6 H 0.1464 0.6223 0.7739
H59_6 H 0.2261 0.6464 0.8777
H60_6 H 0.1223 0.7261 0.8536
H61_6 H 0.3536 0.3777 0.7261
H62_6 H 0.2739 0.3536 0.6223
H63_6 H 0.3777 0.2739 0.6464
H64_6 H 0.2261 0.3777 0.6464
H65_6 H 0.1223 0.3536 0.7261
H66_6 H 0.1464 0.2739 0.6223
H67_6 H 0.3777 0.6464 0.7739
H68_6 H 0.3536 0.7261 0.8777
C136_6 C 0.18434(14) 0.63907(12) 0.78265(11)
C137_6 C 0.21735(11) 0.68434(14) 0.86093(12)
C138_6 C 0.13907(12) 0.71735(11) 0.81566(14)
C139_6 C 0.31566(14) 0.36093(12) 0.71735(11)
C140_6 C 0.28265(11) 0.31566(14) 0.63907(12)
C141_6 C 0.36093(12) 0.28265(11) 0.68434(14)
C142_6 C 0.21735(11) 0.36093(12) 0.68434(14)
C143_6 C 0.13907(12) 0.31566(14) 0.71735(11)
C144_6 C 0.18434(14) 0.28265(11) 0.63907(12)
C145_6 C 0.36093(12) 0.68434(14) 0.78265(11)
C146_6 C 0.31566(14) 0.71735(11) 0.86093(12)
H69_6 H 0.1760 0.6555 0.7909
H70_6 H 0.2091 0.6760 0.8445
H71_6 H 0.1555 0.7091 0.8240
H72_6 H 0.3240 0.3445 0.7091
H73_6 H 0.2909 0.3240 0.6555
H74_6 H 0.3445 0.2909 0.6760
H75_6 H 0.2091 0.3445 0.6760
H76_6 H 0.1555 0.3240 0.7091
H77_6 H 0.1760 0.2909 0.6555
H78_6 H 0.3445 0.6760 0.7909
H79_6 H 0.3240 0.7091 0.8445
H80_6 H 0.1899 0.6431 0.7636
H81_6 H 0.2364 0.6899 0.8569
H82_6 H 0.1431 0.7364 0.8101
H83_6 H 0.3101 0.3569 0.7364
H84_6 H 0.2636 0.3101 0.6431
H85_6 H 0.3569 0.2636 0.6899
H86_6 H 0.2364 0.3569 0.6899
H87_6 H 0.1431 0.3101 0.7364
H88_6 H 0.1899 0.2636 0.6431
H89_6 H 0.3569 0.6899 0.7636
H90_6 H 0.3101 0.7364 0.8569
H91_6 H 0.2006 0.6337 0.7934
H92_6 H 0.2066 0.7006 0.8663
H93_6 H 0.1337 0.7066 0.7994
H94_6 H 0.2994 0.3663 0.7066
H95_6 H 0.2934 0.2994 0.6337
H96_6 H 0.3663 0.2934 0.7006
H97_6 H 0.2066 0.3663 0.7006
H98_6 H 0.1337 0.2994 0.7066
H99_6 H 0.2006 0.2934 0.6337
H100_6 H 0.3663 0.7006 0.7934
H101_6 H 0.2994 0.7066 0.8663
C147_6 C 0.13458(9) 0.57939(9) 0.81165(11)
C148_6 C 0.18835(11) 0.63458(9) 0.92061(9)
C149_6 C 0.07939(9) 0.68835(11) 0.86542(9)
C150_6 C 0.36542(9) 0.42061(9) 0.68835(11)
C151_6 C 0.31165(11) 0.36542(9) 0.57939(9)
C152_6 C 0.42061(9) 0.31165(11) 0.63458(9)
C153_6 C 0.18835(11) 0.42061(9) 0.63458(9)
C154_6 C 0.07939(9) 0.36542(9) 0.68835(11)
C155_6 C 0.13458(9) 0.31165(11) 0.57939(9)
C156_6 C 0.42061(9) 0.63458(9) 0.81165(11)
C157_6 C 0.36542(9) 0.68835(11) 0.92061(9)
H102_6 H 0.1170 0.5864 0.8039
H103_6 H 0.1961 0.6170 0.9136
H104_6 H 0.0864 0.6961 0.8830
H105_6 H 0.3830 0.4136 0.6961
H106_6 H 0.3039 0.3830 0.5864
H107_6 H 0.4136 0.3039 0.6170
H108_6 H 0.1961 0.4136 0.6170
H109_6 H 0.0864 0.3830 0.6961
H110_6 H 0.1170 0.3039 0.5864
H111_6 H 0.4136 0.6170 0.8039
H112_6 H 0.3830 0.6961 0.9136
H113_6 H 0.1413 0.5648 0.7990
H114_6 H 0.2010 0.6413 0.9352
H115_6 H 0.0648 0.7010 0.8587
H116_6 H 0.3587 0.4352 0.7010
H117_6 H 0.2990 0.3587 0.5648
H118_6 H 0.4352 0.2990 0.6413
H119_6 H 0.2010 0.4352 0.6413
H120_6 H 0.0648 0.3587 0.7010
H121_6 H 0.1413 0.2990 0.5648
H122_6 H 0.4352 0.6413 0.7990
H123_6 H 0.3587 0.7010 0.9352
C158_6 C 0.12854(13) 0.56636(13) 0.83922(13)
C159_6 C 0.16078(13) 0.62854(13) 0.93364(13)
C160_6 C 0.06636(13) 0.66078(13) 0.87146(13)
C161_6 C 0.37146(13) 0.43364(13) 0.66078(13)
C162_6 C 0.33922(13) 0.37146(13) 0.56636(13)
C163_6 C 0.43364(13) 0.33922(13) 0.62854(13)
C164_6 C 0.16078(13) 0.43364(13) 0.62854(13)
C165_6 C 0.06636(13) 0.37146(13) 0.66078(13)
C166_6 C 0.12854(13) 0.33922(13) 0.56636(13)
C167_6 C 0.43364(13) 0.62854(13) 0.83922(13)
C168_6 C 0.37146(13) 0.66078(13) 0.93364(13)
H124_6 H 0.1456 0.5587 0.8470
H125_6 H 0.1530 0.6456 0.9413
H126_6 H 0.0587 0.6530 0.8544
H127_6 H 0.3544 0.4413 0.6530
H128_6 H 0.3470 0.3544 0.5587
H129_6 H 0.4413 0.3470 0.6456
H130_6 H 0.1530 0.4413 0.6456
H131_6 H 0.0587 0.3544 0.6530
H132_6 H 0.1456 0.3470 0.5587
H133_6 H 0.4413 0.6456 0.8470
H134_6 H 0.3544 0.6530 0.9413
H135_6 H 0.1150 0.5515 0.8368
H136_6 H 0.1632 0.6150 0.9485
H137_6 H 0.0515 0.6632 0.8850
H138_6 H 0.3850 0.4485 0.6632
H139_6 H 0.3368 0.3850 0.5515
H140_6 H 0.4485 0.3368 0.6150
H141_6 H 0.1632 0.4485 0.6150
H142_6 H 0.0515 0.3850 0.6632
H143_6 H 0.1150 0.3368 0.5515
H144_6 H 0.4485 0.6150 0.8368
H145_6 H 0.3850 0.6632 0.9485
H146_6 H 0.1211 0.5803 0.8518
H147_6 H 0.1482 0.6211 0.9197
H148_6 H 0.0803 0.6482 0.8789
H149_6 H 0.3789 0.4197 0.6482
H150_6 H 0.3518 0.3789 0.5803
H151_6 H 0.4197 0.3518 0.6211
H152_6 H 0.1482 0.4197 0.6211
H153_6 H 0.0803 0.3789 0.6482
H154_6 H 0.1211 0.3518 0.5803
H155_6 H 0.4197 0.6211 0.8518
H156_6 H 0.3789 0.6482 0.9197
O36_9 O 0.17827(8) 0.5000 0.81742(7)
O37_9 O 0.18258(7) 0.5000 0.67827(8)
O38_9 O 0.31742(7) 0.5000 0.82173(8)
Cd8_5 Cd 1.0000 0.724535(5) 0.798486(5)
Cd13_7 Cd 1.0000 0.224535(5) 0.701514(5)
Cd6_8 Cd 0.701514(5) 0.0000 0.224535(5)
Cd16_9 Cd 0.724535(5) 0.0000 0.298486(5)
Cd1_10 Cd 0.5000 0.724535(5) 0.298486(5)
O2_7 O 0.53357(4) 0.73888(4) 0.32962(4)
O3_7 O 0.52929(4) 0.76602(4) 0.29356(4)
O4_10 O 0.5000 0.7500 0.2500
C1_7 C 0.54023(5) 0.76034(6) 0.31673(6)
C2_7 C 0.56226(6) 0.77868(6) 0.32832(6)
C3_7 C 0.57116(6) 0.80158(6) 0.31365(7)
H1_7 H 0.5628 0.8063 0.2966
C4_7 C 0.59248(6) 0.81747(6) 0.32424(7)
C5_7 C 0.60567(6) 0.81067(6) 0.34890(7)
C6_7 C 0.59603(7) 0.78807(7) 0.36385(7)
H2_7 H 0.6043 0.7834 0.3810
C7_7 C 0.57433(7) 0.77249(6) 0.35358(7)
H3_7 H 0.5676 0.7573 0.3640
C8_7 C 0.60406(7) 0.84348(7) 0.31156(7)
C9_7 C 0.62696(6) 0.85063(7) 0.33208(7)
C10_7 C 0.62825(6) 0.83086(7) 0.35351(7)
C11_7 C 0.61573(11) 0.83635(10) 0.28272(9)
H4_7 H 0.6005 0.8290 0.2712
H5_7 H 0.6223 0.8536 0.2739
C12_7 C 0.63907(12) 0.81566(14) 0.28265(11)
H6_7 H 0.6555 0.8240 0.2909
H7_7 H 0.6431 0.8101 0.2636
H8_7 H 0.6337 0.7994 0.2934
C13_7 C 0.57939(9) 0.86542(9) 0.31165(11)
H9_7 H 0.5864 0.8830 0.3039
H10_7 H 0.5648 0.8587 0.2990
C14_7 C 0.56636(13) 0.87146(13) 0.33922(13)
H11_7 H 0.5587 0.8544 0.3470
H12_7 H 0.5515 0.8850 0.3368
H13_7 H 0.5803 0.8789 0.3518
O5_10 O 0.5000 0.68258(7) 0.32173(8)
Cd2_9 Cd 0.5000 0.798486(5) 0.275465(5)
Cd6_9 Cd 0.701514(5) 1.0000 0.224535(5)
Cd8_6 Cd 0.724535(5) 0.798486(5) 0.0000
Cd11_8 Cd 0.298486(5) 0.775465(5) 0.5000
Cd12_9 Cd 0.275465(5) 0.701514(5) 0.5000
Cd16_10 Cd 0.724535(5) 1.0000 0.298486(5)
Cd17_7 Cd 0.775465(5) 0.798486(5) 0.5000
O6_7 O 0.46643(4) 0.73888(4) 0.32962(4)
O7_7 O 0.46643(4) 0.76112(4) 0.17038(4)
O9_7 O 0.53357(4) 0.67038(4) 0.23888(4)
O10_7 O 0.46643(4) 0.67038(4) 0.23888(4)
O11_7 O 0.53357(4) 0.82962(4) 0.26112(4)
O12_6 O 0.46643(4) 0.82962(4) 0.26112(4)
O13_7 O 0.76112(4) 0.96643(4) 0.17038(4)
O14_7 O 0.67038(4) 0.73888(4) 0.03357(4)
O15_7 O 0.23888(4) 0.53357(4) 0.32962(4)
O16_7 O 0.32962(4) 0.76112(4) 0.46643(4)
O17_6 O 0.23888(4) 0.67038(4) 0.03357(4)
O18_7 O 0.32962(4) 0.53357(4) 0.26112(4)
O19_7 O 0.67038(4) 0.96643(4) 0.23888(4)
O20_6 O 0.76112(4) 0.82962(4) 0.46643(4)
O21_7 O 0.52929(4) 0.70644(4) 0.26602(4)
O22_7 O 0.47071(4) 0.76602(4) 0.29356(4)
O23_7 O 0.47071(4) 0.70644(4) 0.26602(4)
O24_7 O 0.52929(4) 0.79356(4) 0.23398(4)
O25_7 O 0.47071(4) 0.73398(4) 0.20644(4)
O26_6 O 0.47071(4) 0.79356(4) 0.23398(4)
O28_7 O 0.73398(4) 0.97071(4) 0.20644(4)
O29_7 O 0.70644(4) 0.76602(4) 0.02929(4)
O30_7 O 0.26602(4) 0.52929(4) 0.29356(4)
O31_7 O 0.29356(4) 0.73398(4) 0.47071(4)
O32_6 O 0.26602(4) 0.70644(4) 0.02929(4)
O33_7 O 0.29356(4) 0.52929(4) 0.23398(4)
O34_7 O 0.70644(4) 0.97071(4) 0.26602(4)
O35_6 O 0.73398(4) 0.79356(4) 0.47071(4)
C15_7 C 0.54023(5) 0.81673(6) 0.23966(6)
C16_7 C 0.73966(6) 0.95977(5) 0.18327(6)
C17_7 C 0.68327(6) 0.76034(6) 0.04023(5)
C18_7 C 0.45977(5) 0.68327(6) 0.26034(6)
C19_7 C 0.26034(6) 0.54023(5) 0.31673(6)
C20_7 C 0.31673(6) 0.73966(6) 0.45977(5)
C21_7 C 0.45977(5) 0.73966(6) 0.18327(6)
C22_7 C 0.26034(6) 0.68327(6) 0.04023(5)
C23_7 C 0.31673(6) 0.54023(5) 0.23966(6)
C24_7 C 0.68327(6) 0.95977(5) 0.26034(6)
C25_7 C 0.73966(6) 0.81673(6) 0.45977(5)
C26_7 C 0.56226(6) 0.82832(6) 0.22132(6)
C27_7 C 0.72132(6) 0.93774(6) 0.17168(6)
C28_7 C 0.67168(6) 0.77868(6) 0.06226(6)
C29_7 C 0.43774(6) 0.67168(6) 0.27868(6)
C30_7 C 0.27868(6) 0.56226(6) 0.32832(6)
C31_7 C 0.32832(6) 0.72132(6) 0.43774(6)
C32_7 C 0.43774(6) 0.72132(6) 0.17168(6)
C33_7 C 0.27868(6) 0.67168(6) 0.06226(6)
C34_7 C 0.32832(6) 0.56226(6) 0.22132(6)
C35_7 C 0.67168(6) 0.93774(6) 0.27868(6)
C36_7 C 0.72132(6) 0.82832(6) 0.43774(6)
C37_7 C 0.57116(6) 0.81365(7) 0.19842(6)
C38_7 C 0.69842(6) 0.92884(6) 0.18635(7)
C39_7 C 0.68635(7) 0.80158(6) 0.07116(6)
C40_7 C 0.42884(6) 0.68635(7) 0.30158(6)
C41_7 C 0.30158(6) 0.57116(6) 0.31365(7)
C42_7 C 0.31365(7) 0.69842(6) 0.42884(6)
C43_7 C 0.42884(6) 0.69842(6) 0.18635(7)
C44_7 C 0.30158(6) 0.68635(7) 0.07116(6)
C45_7 C 0.31365(7) 0.57116(6) 0.19842(6)
C46_7 C 0.68635(7) 0.92884(6) 0.30158(6)
C47_7 C 0.69842(6) 0.81365(7) 0.42884(6)
H14_7 H 0.5628 0.7966 0.1937
H15_7 H 0.6937 0.9372 0.2034
H16_7 H 0.7034 0.8063 0.0628
H17_7 H 0.4372 0.7034 0.3063
H18_7 H 0.3063 0.5628 0.2966
H19_7 H 0.2966 0.6937 0.4372
H20_7 H 0.4372 0.6937 0.2034
H21_7 H 0.3063 0.7034 0.0628
H22_7 H 0.2966 0.5628 0.1937
H23_7 H 0.7034 0.9372 0.3063
H24_7 H 0.6937 0.7966 0.4372
C48_7 C 0.59248(6) 0.82424(7) 0.18253(6)
C49_7 C 0.68253(6) 0.90752(6) 0.17576(7)
C50_7 C 0.67576(7) 0.81747(6) 0.09248(6)
C51_7 C 0.40752(6) 0.67576(7) 0.31747(6)
C52_7 C 0.31747(6) 0.59248(6) 0.32424(7)
C53_7 C 0.32424(7) 0.68253(6) 0.40752(6)
C54_7 C 0.40752(6) 0.68253(6) 0.17576(7)
C55_7 C 0.31747(6) 0.67576(7) 0.09248(6)
C56_7 C 0.32424(7) 0.59248(6) 0.18253(6)
C57_7 C 0.67576(7) 0.90752(6) 0.31747(6)
C58_7 C 0.68253(6) 0.82424(7) 0.40752(6)
C59_7 C 0.60567(6) 0.84890(7) 0.18933(6)
C60_7 C 0.65110(7) 0.81067(6) 0.10567(6)
C61_7 C 0.68933(6) 0.89433(6) 0.15110(7)
C62_7 C 0.39433(6) 0.65110(7) 0.31067(6)
C63_7 C 0.34890(7) 0.68933(6) 0.39433(6)
C64_7 C 0.31067(6) 0.60567(6) 0.34890(7)
C65_7 C 0.39433(6) 0.68933(6) 0.15110(7)
C66_7 C 0.34890(7) 0.60567(6) 0.18933(6)
C67_7 C 0.31067(6) 0.65110(7) 0.10567(6)
C68_7 C 0.65110(7) 0.89433(6) 0.31067(6)
C69_7 C 0.68933(6) 0.84890(7) 0.39433(6)
C70_7 C 0.59603(7) 0.86385(7) 0.21193(7)
C71_7 C 0.63615(7) 0.78807(7) 0.09603(7)
C72_7 C 0.71193(7) 0.90397(7) 0.13615(7)
C73_7 C 0.40397(7) 0.63615(7) 0.28807(7)
C74_7 C 0.36385(7) 0.71193(7) 0.40397(7)
C75_7 C 0.28807(7) 0.59603(7) 0.36385(7)
C76_7 C 0.40397(7) 0.71193(7) 0.13615(7)
C77_7 C 0.36385(7) 0.59603(7) 0.21193(7)
C78_7 C 0.28807(7) 0.63615(7) 0.09603(7)
C79_7 C 0.63615(7) 0.90397(7) 0.28807(7)
C80_7 C 0.71193(7) 0.86385(7) 0.40397(7)
H25_7 H 0.6043 0.8810 0.2166
H26_7 H 0.6190 0.7834 0.1043
H27_7 H 0.7166 0.8957 0.1190
H28_7 H 0.3957 0.6190 0.2834
H29_7 H 0.3810 0.7166 0.3957
H30_7 H 0.2834 0.6043 0.3810
H31_7 H 0.3957 0.7166 0.1190
H32_7 H 0.3810 0.6043 0.2166
H33_7 H 0.2834 0.6190 0.1043
H34_7 H 0.6190 0.8957 0.2834
H35_7 H 0.7166 0.8810 0.3957
C81_7 C 0.57433(7) 0.85358(7) 0.22751(6)
C82_7 C 0.64642(7) 0.77249(6) 0.07433(7)
C83_7 C 0.72751(6) 0.92567(7) 0.14642(7)
C84_7 C 0.42567(7) 0.64642(7) 0.27249(6)
C85_7 C 0.35358(7) 0.72751(6) 0.42567(7)
C86_7 C 0.27249(6) 0.57433(7) 0.35358(7)
C87_7 C 0.42567(7) 0.72751(6) 0.14642(7)
C88_7 C 0.35358(7) 0.57433(7) 0.22751(6)
C89_7 C 0.27249(6) 0.64642(7) 0.07433(7)
C90_7 C 0.64642(7) 0.92567(7) 0.27249(6)
C91_7 C 0.72751(6) 0.85358(7) 0.42567(7)
H36_7 H 0.5676 0.8640 0.2427
H37_7 H 0.6360 0.7573 0.0676
H38_7 H 0.7427 0.9324 0.1360
H39_7 H 0.4324 0.6360 0.2573
H40_7 H 0.3640 0.7427 0.4324
H41_7 H 0.2573 0.5676 0.3640
H42_7 H 0.4324 0.7427 0.1360
H43_7 H 0.3640 0.5676 0.2427
H44_7 H 0.2573 0.6360 0.0676
H45_7 H 0.6360 0.9324 0.2573
H46_7 H 0.7427 0.8640 0.4324
C92_7 C 0.60406(7) 0.81156(7) 0.15652(7)
C93_7 C 0.65652(7) 0.89594(7) 0.18844(7)
C94_7 C 0.68844(7) 0.84348(7) 0.10406(7)
C95_7 C 0.39594(7) 0.68844(7) 0.34348(7)
C96_7 C 0.34348(7) 0.60406(7) 0.31156(7)
C97_7 C 0.31156(7) 0.65652(7) 0.39594(7)
C98_7 C 0.39594(7) 0.65652(7) 0.18844(7)
C99_7 C 0.34348(7) 0.68844(7) 0.10406(7)
C100_7 C 0.31156(7) 0.60406(7) 0.15652(7)
C101_7 C 0.65652(7) 0.81156(7) 0.39594(7)
C102_7 C 0.68844(7) 0.89594(7) 0.34348(7)
C103_7 C 0.64937(7) 0.83208(7) 0.37304(6)
C104_7 C 0.62696(6) 0.83208(7) 0.14937(7)
C105_7 C 0.64937(7) 0.87304(6) 0.16792(7)
C106_7 C 0.66792(7) 0.85063(7) 0.12696(6)
C107_7 C 0.37304(6) 0.66792(7) 0.35063(7)
C108_7 C 0.35063(7) 0.62696(6) 0.33208(7)
C109_7 C 0.33208(7) 0.64937(7) 0.37304(6)
C110_7 C 0.37304(6) 0.64937(7) 0.16792(7)
C111_7 C 0.35063(7) 0.66792(7) 0.12696(6)
C112_7 C 0.33208(7) 0.62696(6) 0.14937(7)
C113_7 C 0.66792(7) 0.87304(6) 0.35063(7)
C114_7 C 0.64649(7) 0.87175(6) 0.33086(7)
C115_7 C 0.62825(6) 0.85351(7) 0.16914(7)
C116_7 C 0.64649(7) 0.83086(7) 0.12825(6)
C117_7 C 0.66914(7) 0.87175(6) 0.14649(7)
C118_7 C 0.37175(6) 0.64649(7) 0.33086(7)
C119_7 C 0.35351(7) 0.66914(7) 0.37175(6)
C120_7 C 0.33086(7) 0.62825(6) 0.35351(7)
C121_7 C 0.37175(6) 0.66914(7) 0.14649(7)
C122_7 C 0.35351(7) 0.62825(6) 0.16914(7)
C123_7 C 0.33086(7) 0.64649(7) 0.12825(6)
C124_7 C 0.66914(7) 0.85351(7) 0.37175(6)
C125_7 C 0.61573(11) 0.78272(9) 0.16365(10)
C126_7 C 0.66365(10) 0.88427(11) 0.21728(9)
C127_7 C 0.71728(9) 0.83635(10) 0.11573(11)
C128_7 C 0.38427(11) 0.71728(9) 0.33635(10)
C129_7 C 0.33635(10) 0.61573(11) 0.28272(9)
C130_7 C 0.28272(9) 0.66365(10) 0.38427(11)
C131_7 C 0.38427(11) 0.66365(10) 0.21728(9)
C132_7 C 0.33635(10) 0.71728(9) 0.11573(11)
C133_7 C 0.28272(9) 0.61573(11) 0.16365(10)
C134_7 C 0.66365(10) 0.78272(9) 0.38427(11)
C135_7 C 0.71728(9) 0.88427(11) 0.33635(10)
H47_7 H 0.6005 0.7712 0.1710
H48_7 H 0.6710 0.8995 0.2288
H49_7 H 0.7288 0.8290 0.1005
H50_7 H 0.3995 0.7288 0.3290
H51_7 H 0.3290 0.6005 0.2712
H52_7 H 0.2712 0.6710 0.3995
H53_7 H 0.3995 0.6710 0.2288
H54_7 H 0.3290 0.7288 0.1005
H55_7 H 0.2712 0.6005 0.1710
H56_7 H 0.6710 0.7712 0.3995
H57_7 H 0.7288 0.8995 0.3290
H58_7 H 0.6223 0.7739 0.1464
H59_7 H 0.6464 0.8777 0.2261
H60_7 H 0.7261 0.8536 0.1223
H61_7 H 0.3777 0.7261 0.3536
H62_7 H 0.3536 0.6223 0.2739
H63_7 H 0.2739 0.6464 0.3777
H64_7 H 0.3777 0.6464 0.2261
H65_7 H 0.3536 0.7261 0.1223
H66_7 H 0.2739 0.6223 0.1464
H67_7 H 0.6464 0.7739 0.3777
H68_7 H 0.7261 0.8777 0.3536
C136_7 C 0.63907(12) 0.78265(11) 0.18434(14)
C137_7 C 0.68434(14) 0.86093(12) 0.21735(11)
C138_7 C 0.71735(11) 0.81566(14) 0.13907(12)
C139_7 C 0.36093(12) 0.71735(11) 0.31566(14)
C140_7 C 0.31566(14) 0.63907(12) 0.28265(11)
C141_7 C 0.28265(11) 0.68434(14) 0.36093(12)
C142_7 C 0.36093(12) 0.68434(14) 0.21735(11)
C143_7 C 0.31566(14) 0.71735(11) 0.13907(12)
C144_7 C 0.28265(11) 0.63907(12) 0.18434(14)
C145_7 C 0.68434(14) 0.78265(11) 0.36093(12)
C146_7 C 0.71735(11) 0.86093(12) 0.31566(14)
H69_7 H 0.6555 0.7909 0.1760
H70_7 H 0.6760 0.8445 0.2091
H71_7 H 0.7091 0.8240 0.1555
H72_7 H 0.3445 0.7091 0.3240
H73_7 H 0.3240 0.6555 0.2909
H74_7 H 0.2909 0.6760 0.3445
H75_7 H 0.3445 0.6760 0.2091
H76_7 H 0.3240 0.7091 0.1555
H77_7 H 0.2909 0.6555 0.1760
H78_7 H 0.6760 0.7909 0.3445
H79_7 H 0.7091 0.8445 0.3240
H80_7 H 0.6431 0.7636 0.1899
H81_7 H 0.6899 0.8569 0.2364
H82_7 H 0.7364 0.8101 0.1431
H83_7 H 0.3569 0.7364 0.3101
H84_7 H 0.3101 0.6431 0.2636
H85_7 H 0.2636 0.6899 0.3569
H86_7 H 0.3569 0.6899 0.2364
H87_7 H 0.3101 0.7364 0.1431
H88_7 H 0.2636 0.6431 0.1899
H89_7 H 0.6899 0.7636 0.3569
H90_7 H 0.7364 0.8569 0.3101
H91_7 H 0.6337 0.7934 0.2006
H92_7 H 0.7006 0.8663 0.2066
H93_7 H 0.7066 0.7994 0.1337
H94_7 H 0.3663 0.7066 0.2994
H95_7 H 0.2994 0.6337 0.2934
H96_7 H 0.2934 0.7006 0.3663
H97_7 H 0.3663 0.7006 0.2066
H98_7 H 0.2994 0.7066 0.1337
H99_7 H 0.2934 0.6337 0.2006
H100_7 H 0.7006 0.7934 0.3663
H101_7 H 0.7066 0.8663 0.2994
C147_7 C 0.57939(9) 0.81165(11) 0.13458(9)
C148_7 C 0.63458(9) 0.92061(9) 0.18835(11)
C149_7 C 0.68835(11) 0.86542(9) 0.07939(9)
C150_7 C 0.42061(9) 0.68835(11) 0.36542(9)
C151_7 C 0.36542(9) 0.57939(9) 0.31165(11)
C152_7 C 0.31165(11) 0.63458(9) 0.42061(9)
C153_7 C 0.42061(9) 0.63458(9) 0.18835(11)
C154_7 C 0.36542(9) 0.68835(11) 0.07939(9)
C155_7 C 0.31165(11) 0.57939(9) 0.13458(9)
C156_7 C 0.63458(9) 0.81165(11) 0.42061(9)
C157_7 C 0.68835(11) 0.92061(9) 0.36542(9)
H102_7 H 0.5864 0.8039 0.1170
H103_7 H 0.6170 0.9136 0.1961
H104_7 H 0.6961 0.8830 0.0864
H105_7 H 0.4136 0.6961 0.3830
H106_7 H 0.3830 0.5864 0.3039
H107_7 H 0.3039 0.6170 0.4136
H108_7 H 0.4136 0.6170 0.1961
H109_7 H 0.3830 0.6961 0.0864
H110_7 H 0.3039 0.5864 0.1170
H111_7 H 0.6170 0.8039 0.4136
H112_7 H 0.6961 0.9136 0.3830
H113_7 H 0.5648 0.7990 0.1413
H114_7 H 0.6413 0.9352 0.2010
H115_7 H 0.7010 0.8587 0.0648
H116_7 H 0.4352 0.7010 0.3587
H117_7 H 0.3587 0.5648 0.2990
H118_7 H 0.2990 0.6413 0.4352
H119_7 H 0.4352 0.6413 0.2010
H120_7 H 0.3587 0.7010 0.0648
H121_7 H 0.2990 0.5648 0.1413
H122_7 H 0.6413 0.7990 0.4352
H123_7 H 0.7010 0.9352 0.3587
C158_7 C 0.56636(13) 0.83922(13) 0.12854(13)
C159_7 C 0.62854(13) 0.93364(13) 0.16078(13)
C160_7 C 0.66078(13) 0.87146(13) 0.06636(13)
C161_7 C 0.43364(13) 0.66078(13) 0.37146(13)
C162_7 C 0.37146(13) 0.56636(13) 0.33922(13)
C163_7 C 0.33922(13) 0.62854(13) 0.43364(13)
C164_7 C 0.43364(13) 0.62854(13) 0.16078(13)
C165_7 C 0.37146(13) 0.66078(13) 0.06636(13)
C166_7 C 0.33922(13) 0.56636(13) 0.12854(13)
C167_7 C 0.62854(13) 0.83922(13) 0.43364(13)
C168_7 C 0.66078(13) 0.93364(13) 0.37146(13)
H124_7 H 0.5587 0.8470 0.1456
H125_7 H 0.6456 0.9413 0.1530
H126_7 H 0.6530 0.8544 0.0587
H127_7 H 0.4413 0.6530 0.3544
H128_7 H 0.3544 0.5587 0.3470
H129_7 H 0.3470 0.6456 0.4413
H130_7 H 0.4413 0.6456 0.1530
H131_7 H 0.3544 0.6530 0.0587
H132_7 H 0.3470 0.5587 0.1456
H133_7 H 0.6456 0.8470 0.4413
H134_7 H 0.6530 0.9413 0.3544
H135_7 H 0.5515 0.8368 0.1150
H136_7 H 0.6150 0.9485 0.1632
H137_7 H 0.6632 0.8850 0.0515
H138_7 H 0.4485 0.6632 0.3850
H139_7 H 0.3850 0.5515 0.3368
H140_7 H 0.3368 0.6150 0.4485
H141_7 H 0.4485 0.6150 0.1632
H142_7 H 0.3850 0.6632 0.0515
H143_7 H 0.3368 0.5515 0.1150
H144_7 H 0.6150 0.8368 0.4485
H145_7 H 0.6632 0.9485 0.3850
H146_7 H 0.5803 0.8518 0.1211
H147_7 H 0.6211 0.9197 0.1482
H148_7 H 0.6482 0.8789 0.0803
H149_7 H 0.4197 0.6482 0.3789
H150_7 H 0.3789 0.5803 0.3518
H151_7 H 0.3518 0.6211 0.4197
H152_7 H 0.4197 0.6211 0.1482
H153_7 H 0.3789 0.6482 0.0803
H154_7 H 0.3518 0.5803 0.1211
H155_7 H 0.6211 0.8518 0.4197
H156_7 H 0.6482 0.9197 0.3789
O36_10 O 0.5000 0.81742(7) 0.17827(8)
O37_10 O 0.5000 0.67827(8) 0.18258(7)
O38_10 O 0.5000 0.82173(8) 0.31742(7)
Cd8_7 Cd 0.724535(5) 0.798486(5) 1.0000
Cd16_11 Cd 0.275465(5) 0.0000 0.701514(5)
O2_8 O 0.46643(4) 0.73888(4) 0.67038(4)
O3_8 O 0.47071(4) 0.76602(4) 0.70644(4)
O4_11 O 0.5000 0.7500 0.7500
C1_8 C 0.45977(5) 0.76034(6) 0.68327(6)
C2_8 C 0.43774(6) 0.77868(6) 0.67168(6)
C3_8 C 0.42884(6) 0.80158(6) 0.68635(7)
H1_8 H 0.4372 0.8063 0.7034
C4_8 C 0.40752(6) 0.81747(6) 0.67576(7)
C5_8 C 0.39433(6) 0.81067(6) 0.65110(7)
C6_8 C 0.40397(7) 0.78807(7) 0.63615(7)
H2_8 H 0.3957 0.7834 0.6190
C7_8 C 0.42567(7) 0.77249(6) 0.64642(7)
H3_8 H 0.4324 0.7573 0.6360
C8_8 C 0.39594(7) 0.84348(7) 0.68844(7)
C9_8 C 0.37304(6) 0.85063(7) 0.66792(7)
C10_8 C 0.37175(6) 0.83086(7) 0.64649(7)
C11_8 C 0.38427(11) 0.83635(10) 0.71728(9)
H4_8 H 0.3995 0.8290 0.7288
H5_8 H 0.3777 0.8536 0.7261
C12_8 C 0.36093(12) 0.81566(14) 0.71735(11)
H6_8 H 0.3445 0.8240 0.7091
H7_8 H 0.3569 0.8101 0.7364
H8_8 H 0.3663 0.7994 0.7066
C13_8 C 0.42061(9) 0.86542(9) 0.68835(11)
H9_8 H 0.4136 0.8830 0.6961
H10_8 H 0.4352 0.8587 0.7010
C14_8 C 0.43364(13) 0.87146(13) 0.66078(13)
H11_8 H 0.4413 0.8544 0.6530
H12_8 H 0.4485 0.8850 0.6632
H13_8 H 0.4197 0.8789 0.6482
O5_11 O 0.5000 0.68258(7) 0.67827(8)
Cd2_10 Cd 0.5000 0.798486(5) 0.724535(5)
Cd16_12 Cd 0.275465(5) 1.0000 0.701514(5)
O6_8 O 0.53357(4) 0.73888(4) 0.67038(4)
O7_8 O 0.53357(4) 0.76112(4) 0.82962(4)
O9_8 O 0.46643(4) 0.67038(4) 0.76112(4)
O11_8 O 0.46643(4) 0.82962(4) 0.73888(4)
O12_7 O 0.53357(4) 0.82962(4) 0.73888(4)
O13_8 O 0.23888(4) 0.96643(4) 0.82962(4)
O14_8 O 0.32962(4) 0.73888(4) 0.96643(4)
O17_7 O 0.76112(4) 0.67038(4) 0.96643(4)
O19_8 O 0.32962(4) 0.96643(4) 0.76112(4)
O20_7 O 0.23888(4) 0.82962(4) 0.53357(4)
O21_8 O 0.47071(4) 0.70644(4) 0.73398(4)
O22_8 O 0.52929(4) 0.76602(4) 0.70644(4)
O24_8 O 0.47071(4) 0.79356(4) 0.76602(4)
O25_8 O 0.52929(4) 0.73398(4) 0.79356(4)
O26_7 O 0.52929(4) 0.79356(4) 0.76602(4)
O28_8 O 0.26602(4) 0.97071(4) 0.79356(4)
O29_8 O 0.29356(4) 0.76602(4) 0.97071(4)
O32_7 O 0.73398(4) 0.70644(4) 0.97071(4)
O34_8 O 0.29356(4) 0.97071(4) 0.73398(4)
O35_7 O 0.26602(4) 0.79356(4) 0.52929(4)
C15_8 C 0.45977(5) 0.81673(6) 0.76034(6)
C16_8 C 0.26034(6) 0.95977(5) 0.81673(6)
C17_8 C 0.31673(6) 0.76034(6) 0.95977(5)
C21_8 C 0.54023(5) 0.73966(6) 0.81673(6)
C22_8 C 0.73966(6) 0.68327(6) 0.95977(5)
C23_8 C 0.68327(6) 0.54023(5) 0.76034(6)
C24_8 C 0.31673(6) 0.95977(5) 0.73966(6)
C25_8 C 0.26034(6) 0.81673(6) 0.54023(5)
C26_8 C 0.43774(6) 0.82832(6) 0.77868(6)
C27_8 C 0.27868(6) 0.93774(6) 0.82832(6)
C28_8 C 0.32832(6) 0.77868(6) 0.93774(6)
C32_8 C 0.56226(6) 0.72132(6) 0.82832(6)
C33_8 C 0.72132(6) 0.67168(6) 0.93774(6)
C34_8 C 0.67168(6) 0.56226(6) 0.77868(6)
C35_8 C 0.32832(6) 0.93774(6) 0.72132(6)
C36_8 C 0.27868(6) 0.82832(6) 0.56226(6)
C37_8 C 0.42884(6) 0.81365(7) 0.80158(6)
C38_8 C 0.30158(6) 0.92884(6) 0.81365(7)
C39_8 C 0.31365(7) 0.80158(6) 0.92884(6)
C43_8 C 0.57116(6) 0.69842(6) 0.81365(7)
C44_8 C 0.69842(6) 0.68635(7) 0.92884(6)
C45_8 C 0.68635(7) 0.57116(6) 0.80158(6)
C46_8 C 0.31365(7) 0.92884(6) 0.69842(6)
C47_8 C 0.30158(6) 0.81365(7) 0.57116(6)
H14_8 H 0.4372 0.7966 0.8063
H15_8 H 0.3063 0.9372 0.7966
H16_8 H 0.2966 0.8063 0.9372
H20_8 H 0.5628 0.6937 0.7966
H21_8 H 0.6937 0.7034 0.9372
H22_8 H 0.7034 0.5628 0.8063
H23_8 H 0.2966 0.9372 0.6937
H24_8 H 0.3063 0.7966 0.5628
C48_8 C 0.40752(6) 0.82424(7) 0.81747(6)
C49_8 C 0.31747(6) 0.90752(6) 0.82424(7)
C50_8 C 0.32424(7) 0.81747(6) 0.90752(6)
C54_8 C 0.59248(6) 0.68253(6) 0.82424(7)
C55_8 C 0.68253(6) 0.67576(7) 0.90752(6)
C56_8 C 0.67576(7) 0.59248(6) 0.81747(6)
C57_8 C 0.32424(7) 0.90752(6) 0.68253(6)
C58_8 C 0.31747(6) 0.82424(7) 0.59248(6)
C59_8 C 0.39433(6) 0.84890(7) 0.81067(6)
C60_8 C 0.34890(7) 0.81067(6) 0.89433(6)
C61_8 C 0.31067(6) 0.89433(6) 0.84890(7)
C65_8 C 0.60567(6) 0.68933(6) 0.84890(7)
C66_8 C 0.65110(7) 0.60567(6) 0.81067(6)
C67_8 C 0.68933(6) 0.65110(7) 0.89433(6)
C68_8 C 0.34890(7) 0.89433(6) 0.68933(6)
C69_8 C 0.31067(6) 0.84890(7) 0.60567(6)
C70_8 C 0.40397(7) 0.86385(7) 0.78807(7)
C71_8 C 0.36385(7) 0.78807(7) 0.90397(7)
C72_8 C 0.28807(7) 0.90397(7) 0.86385(7)
C76_8 C 0.59603(7) 0.71193(7) 0.86385(7)
C77_8 C 0.63615(7) 0.59603(7) 0.78807(7)
C78_8 C 0.71193(7) 0.63615(7) 0.90397(7)
C79_8 C 0.36385(7) 0.90397(7) 0.71193(7)
C80_8 C 0.28807(7) 0.86385(7) 0.59603(7)
H25_8 H 0.3957 0.8810 0.7834
H26_8 H 0.3810 0.7834 0.8957
H27_8 H 0.2834 0.8957 0.8810
H31_8 H 0.6043 0.7166 0.8810
H32_8 H 0.6190 0.6043 0.7834
H33_8 H 0.7166 0.6190 0.8957
H34_8 H 0.3810 0.8957 0.7166
H35_8 H 0.2834 0.8810 0.6043
C81_8 C 0.42567(7) 0.85358(7) 0.77249(6)
C82_8 C 0.35358(7) 0.77249(6) 0.92567(7)
C83_8 C 0.27249(6) 0.92567(7) 0.85358(7)
C87_8 C 0.57433(7) 0.72751(6) 0.85358(7)
C88_8 C 0.64642(7) 0.57433(7) 0.77249(6)
C89_8 C 0.72751(6) 0.64642(7) 0.92567(7)
C90_8 C 0.35358(7) 0.92567(7) 0.72751(6)
C91_8 C 0.27249(6) 0.85358(7) 0.57433(7)
H36_8 H 0.4324 0.8640 0.7573
H37_8 H 0.3640 0.7573 0.9324
H38_8 H 0.2573 0.9324 0.8640
H42_8 H 0.5676 0.7427 0.8640
H43_8 H 0.6360 0.5676 0.7573
H44_8 H 0.7427 0.6360 0.9324
H45_8 H 0.3640 0.9324 0.7427
H46_8 H 0.2573 0.8640 0.5676
C92_8 C 0.39594(7) 0.81156(7) 0.84348(7)
C93_8 C 0.34348(7) 0.89594(7) 0.81156(7)
C94_8 C 0.31156(7) 0.84348(7) 0.89594(7)
C98_8 C 0.60406(7) 0.65652(7) 0.81156(7)
C99_8 C 0.65652(7) 0.68844(7) 0.89594(7)
C100_8 C 0.68844(7) 0.60406(7) 0.84348(7)
C101_8 C 0.34348(7) 0.81156(7) 0.60406(7)
C102_8 C 0.31156(7) 0.89594(7) 0.65652(7)
C103_8 C 0.35063(7) 0.83208(7) 0.62696(6)
C104_8 C 0.37304(6) 0.83208(7) 0.85063(7)
C105_8 C 0.35063(7) 0.87304(6) 0.83208(7)
C106_8 C 0.33208(7) 0.85063(7) 0.87304(6)
C110_8 C 0.62696(6) 0.64937(7) 0.83208(7)
C111_8 C 0.64937(7) 0.66792(7) 0.87304(6)
C112_8 C 0.66792(7) 0.62696(6) 0.85063(7)
C113_8 C 0.33208(7) 0.87304(6) 0.64937(7)
C114_8 C 0.35351(7) 0.87175(6) 0.66914(7)
C115_8 C 0.37175(6) 0.85351(7) 0.83086(7)
C116_8 C 0.35351(7) 0.83086(7) 0.87175(6)
C117_8 C 0.33086(7) 0.87175(6) 0.85351(7)
C121_8 C 0.62825(6) 0.66914(7) 0.85351(7)
C122_8 C 0.64649(7) 0.62825(6) 0.83086(7)
C123_8 C 0.66914(7) 0.64649(7) 0.87175(6)
C124_8 C 0.33086(7) 0.85351(7) 0.62825(6)
C125_8 C 0.38427(11) 0.78272(9) 0.83635(10)
C126_8 C 0.33635(10) 0.88427(11) 0.78272(9)
C127_8 C 0.28272(9) 0.83635(10) 0.88427(11)
C131_8 C 0.61573(11) 0.66365(10) 0.78272(9)
C132_8 C 0.66365(10) 0.71728(9) 0.88427(11)
C133_8 C 0.71728(9) 0.61573(11) 0.83635(10)
C134_8 C 0.33635(10) 0.78272(9) 0.61573(11)
C135_8 C 0.28272(9) 0.88427(11) 0.66365(10)
H47_8 H 0.3995 0.7712 0.8290
H48_8 H 0.3290 0.8995 0.7712
H49_8 H 0.2712 0.8290 0.8995
H53_8 H 0.6005 0.6710 0.7712
H54_8 H 0.6710 0.7288 0.8995
H55_8 H 0.7288 0.6005 0.8290
H56_8 H 0.3290 0.7712 0.6005
H57_8 H 0.2712 0.8995 0.6710
H58_8 H 0.3777 0.7739 0.8536
H59_8 H 0.3536 0.8777 0.7739
H60_8 H 0.2739 0.8536 0.8777
H64_8 H 0.6223 0.6464 0.7739
H65_8 H 0.6464 0.7261 0.8777
H66_8 H 0.7261 0.6223 0.8536
H67_8 H 0.3536 0.7739 0.6223
H68_8 H 0.2739 0.8777 0.6464
C136_8 C 0.36093(12) 0.78265(11) 0.81566(14)
C137_8 C 0.31566(14) 0.86093(12) 0.78265(11)
C138_8 C 0.28265(11) 0.81566(14) 0.86093(12)
C142_8 C 0.63907(12) 0.68434(14) 0.78265(11)
C143_8 C 0.68434(14) 0.71735(11) 0.86093(12)
C144_8 C 0.71735(11) 0.63907(12) 0.81566(14)
C145_8 C 0.31566(14) 0.78265(11) 0.63907(12)
C146_8 C 0.28265(11) 0.86093(12) 0.68434(14)
H69_8 H 0.3445 0.7909 0.8240
H70_8 H 0.3240 0.8445 0.7909
H71_8 H 0.2909 0.8240 0.8445
H75_8 H 0.6555 0.6760 0.7909
H76_8 H 0.6760 0.7091 0.8445
H77_8 H 0.7091 0.6555 0.8240
H78_8 H 0.3240 0.7909 0.6555
H79_8 H 0.2909 0.8445 0.6760
H80_8 H 0.3569 0.7636 0.8101
H81_8 H 0.3101 0.8569 0.7636
H82_8 H 0.2636 0.8101 0.8569
H86_8 H 0.6431 0.6899 0.7636
H87_8 H 0.6899 0.7364 0.8569
H88_8 H 0.7364 0.6431 0.8101
H89_8 H 0.3101 0.7636 0.6431
H90_8 H 0.2636 0.8569 0.6899
H91_8 H 0.3663 0.7934 0.7994
H92_8 H 0.2994 0.8663 0.7934
H93_8 H 0.2934 0.7994 0.8663
H97_8 H 0.6337 0.7006 0.7934
H98_8 H 0.7006 0.7066 0.8663
H99_8 H 0.7066 0.6337 0.7994
H100_8 H 0.2994 0.7934 0.6337
H101_8 H 0.2934 0.8663 0.7006
C147_8 C 0.42061(9) 0.81165(11) 0.86542(9)
C148_8 C 0.36542(9) 0.92061(9) 0.81165(11)
C149_8 C 0.31165(11) 0.86542(9) 0.92061(9)
C153_8 C 0.57939(9) 0.63458(9) 0.81165(11)
C154_8 C 0.63458(9) 0.68835(11) 0.92061(9)
C155_8 C 0.68835(11) 0.57939(9) 0.86542(9)
C156_8 C 0.36542(9) 0.81165(11) 0.57939(9)
C157_8 C 0.31165(11) 0.92061(9) 0.63458(9)
H102_8 H 0.4136 0.8039 0.8830
H103_8 H 0.3830 0.9136 0.8039
H104_8 H 0.3039 0.8830 0.9136
H108_8 H 0.5864 0.6170 0.8039
H109_8 H 0.6170 0.6961 0.9136
H110_8 H 0.6961 0.5864 0.8830
H111_8 H 0.3830 0.8039 0.5864
H112_8 H 0.3039 0.9136 0.6170
H113_8 H 0.4352 0.7990 0.8587
H114_8 H 0.3587 0.9352 0.7990
H115_8 H 0.2990 0.8587 0.9352
H119_8 H 0.5648 0.6413 0.7990
H120_8 H 0.6413 0.7010 0.9352
H121_8 H 0.7010 0.5648 0.8587
H122_8 H 0.3587 0.7990 0.5648
H123_8 H 0.2990 0.9352 0.6413
C158_8 C 0.43364(13) 0.83922(13) 0.87146(13)
C159_8 C 0.37146(13) 0.93364(13) 0.83922(13)
C160_8 C 0.33922(13) 0.87146(13) 0.93364(13)
C164_8 C 0.56636(13) 0.62854(13) 0.83922(13)
C165_8 C 0.62854(13) 0.66078(13) 0.93364(13)
C166_8 C 0.66078(13) 0.56636(13) 0.87146(13)
C167_8 C 0.37146(13) 0.83922(13) 0.56636(13)
C168_8 C 0.33922(13) 0.93364(13) 0.62854(13)
H124_8 H 0.4413 0.8470 0.8544
H125_8 H 0.3544 0.9413 0.8470
H126_8 H 0.3470 0.8544 0.9413
H130_8 H 0.5587 0.6456 0.8470
H131_8 H 0.6456 0.6530 0.9413
H132_8 H 0.6530 0.5587 0.8544
H133_8 H 0.3544 0.8470 0.5587
H134_8 H 0.3470 0.9413 0.6456
H135_8 H 0.4485 0.8368 0.8850
H136_8 H 0.3850 0.9485 0.8368
H137_8 H 0.3368 0.8850 0.9485
H141_8 H 0.5515 0.6150 0.8368
H142_8 H 0.6150 0.6632 0.9485
H143_8 H 0.6632 0.5515 0.8850
H144_8 H 0.3850 0.8368 0.5515
H145_8 H 0.3368 0.9485 0.6150
H146_8 H 0.4197 0.8518 0.8789
H147_8 H 0.3789 0.9197 0.8518
H148_8 H 0.3518 0.8789 0.9197
H152_8 H 0.5803 0.6211 0.8518
H153_8 H 0.6211 0.6482 0.9197
H154_8 H 0.6482 0.5803 0.8789
H155_8 H 0.3789 0.8518 0.5803
H156_8 H 0.3518 0.9197 0.6211
O36_11 O 0.5000 0.81742(7) 0.82173(8)
O37_11 O 0.5000 0.67827(8) 0.81742(7)
O38_11 O 0.5000 0.82173(8) 0.68258(7)
O2_9 O 0.53357(4) 0.26112(4) 0.67038(4)
O3_9 O 0.52929(4) 0.23398(4) 0.70644(4)
O4_12 O 0.5000 0.2500 0.7500
C1_9 C 0.54023(5) 0.23966(6) 0.68327(6)
C2_9 C 0.56226(6) 0.22132(6) 0.67168(6)
C3_9 C 0.57116(6) 0.19842(6) 0.68635(7)
H1_9 H 0.5628 0.1937 0.7034
C4_9 C 0.59248(6) 0.18253(6) 0.67576(7)
C5_9 C 0.60567(6) 0.18933(6) 0.65110(7)
C6_9 C 0.59603(7) 0.21193(7) 0.63615(7)
H2_9 H 0.6043 0.2166 0.6190
C7_9 C 0.57433(7) 0.22751(6) 0.64642(7)
H3_9 H 0.5676 0.2427 0.6360
C8_9 C 0.60406(7) 0.15652(7) 0.68844(7)
C9_9 C 0.62696(6) 0.14937(7) 0.66792(7)
C10_9 C 0.62825(6) 0.16914(7) 0.64649(7)
C11_9 C 0.61573(11) 0.16365(10) 0.71728(9)
H4_9 H 0.6005 0.1710 0.7288
H5_9 H 0.6223 0.1464 0.7261
C12_9 C 0.63907(12) 0.18434(14) 0.71735(11)
H6_9 H 0.6555 0.1760 0.7091
H7_9 H 0.6431 0.1899 0.7364
H8_9 H 0.6337 0.2006 0.7066
C13_9 C 0.57939(9) 0.13458(9) 0.68835(11)
H9_9 H 0.5864 0.1170 0.6961
H10_9 H 0.5648 0.1413 0.7010
C14_9 C 0.56636(13) 0.12854(13) 0.66078(13)
H11_9 H 0.5587 0.1456 0.6530
H12_9 H 0.5515 0.1150 0.6632
H13_9 H 0.5803 0.1211 0.6482
O5_12 O 0.5000 0.31742(7) 0.67827(8)
Cd5_6 Cd 0.775465(5) 0.0000 0.798486(5)
Cd6_10 Cd 0.701514(5) -0.0000 0.775465(5)
Cd16_13 Cd 0.724535(5) 0.0000 0.701514(5)
Cd17_8 Cd 0.775465(5) 0.201514(5) 0.5000
O6_9 O 0.46643(4) 0.26112(4) 0.67038(4)
O7_9 O 0.46643(4) 0.23888(4) 0.82962(4)
O9_9 O 0.53357(4) 0.32962(4) 0.76112(4)
O11_9 O 0.53357(4) 0.17038(4) 0.73888(4)
O13_9 O 0.76112(4) 0.03357(4) 0.82962(4)
O14_9 O 0.67038(4) 0.26112(4) 0.96643(4)
O19_9 O 0.67038(4) 0.03357(4) 0.76112(4)
O20_8 O 0.76112(4) 0.17038(4) 0.53357(4)
O21_9 O 0.52929(4) 0.29356(4) 0.73398(4)
O22_9 O 0.47071(4) 0.23398(4) 0.70644(4)
O24_9 O 0.52929(4) 0.20644(4) 0.76602(4)
O25_9 O 0.47071(4) 0.26602(4) 0.79356(4)
O28_9 O 0.73398(4) 0.02929(4) 0.79356(4)
O29_9 O 0.70644(4) 0.23398(4) 0.97071(4)
O34_9 O 0.70644(4) 0.02929(4) 0.73398(4)
O35_8 O 0.73398(4) 0.20644(4) 0.52929(4)
C15_9 C 0.54023(5) 0.18327(6) 0.76034(6)
C16_9 C 0.73966(6) 0.04023(5) 0.81673(6)
C17_9 C 0.68327(6) 0.23966(6) 0.95977(5)
C21_9 C 0.45977(5) 0.26034(6) 0.81673(6)
C22_9 C 0.26034(6) 0.31673(6) 0.95977(5)
C23_9 C 0.31673(6) 0.45977(5) 0.76034(6)
C24_9 C 0.68327(6) 0.04023(5) 0.73966(6)
C25_9 C 0.73966(6) 0.18327(6) 0.54023(5)
C26_9 C 0.56226(6) 0.17168(6) 0.77868(6)
C27_9 C 0.72132(6) 0.06226(6) 0.82832(6)
C28_9 C 0.67168(6) 0.22132(6) 0.93774(6)
C32_9 C 0.43774(6) 0.27868(6) 0.82832(6)
C33_9 C 0.27868(6) 0.32832(6) 0.93774(6)
C34_9 C 0.32832(6) 0.43774(6) 0.77868(6)
C35_9 C 0.67168(6) 0.06226(6) 0.72132(6)
C36_9 C 0.72132(6) 0.17168(6) 0.56226(6)
C37_9 C 0.57116(6) 0.18635(7) 0.80158(6)
C38_9 C 0.69842(6) 0.07116(6) 0.81365(7)
C39_9 C 0.68635(7) 0.19842(6) 0.92884(6)
C43_9 C 0.42884(6) 0.30158(6) 0.81365(7)
C44_9 C 0.30158(6) 0.31365(7) 0.92884(6)
C45_9 C 0.31365(7) 0.42884(6) 0.80158(6)
C46_9 C 0.68635(7) 0.07116(6) 0.69842(6)
C47_9 C 0.69842(6) 0.18635(7) 0.57116(6)
H14_9 H 0.5628 0.2034 0.8063
H15_9 H 0.6937 0.0628 0.7966
H16_9 H 0.7034 0.1937 0.9372
H20_9 H 0.4372 0.3063 0.7966
H21_9 H 0.3063 0.2966 0.9372
H22_9 H 0.2966 0.4372 0.8063
H23_9 H 0.7034 0.0628 0.6937
H24_9 H 0.6937 0.2034 0.5628
C48_9 C 0.59248(6) 0.17576(7) 0.81747(6)
C49_9 C 0.68253(6) 0.09248(6) 0.82424(7)
C50_9 C 0.67576(7) 0.18253(6) 0.90752(6)
C54_9 C 0.40752(6) 0.31747(6) 0.82424(7)
C55_9 C 0.31747(6) 0.32424(7) 0.90752(6)
C56_9 C 0.32424(7) 0.40752(6) 0.81747(6)
C57_9 C 0.67576(7) 0.09248(6) 0.68253(6)
C58_9 C 0.68253(6) 0.17576(7) 0.59248(6)
C59_9 C 0.60567(6) 0.15110(7) 0.81067(6)
C60_9 C 0.65110(7) 0.18933(6) 0.89433(6)
C61_9 C 0.68933(6) 0.10567(6) 0.84890(7)
C65_9 C 0.39433(6) 0.31067(6) 0.84890(7)
C66_9 C 0.34890(7) 0.39433(6) 0.81067(6)
C67_9 C 0.31067(6) 0.34890(7) 0.89433(6)
C68_9 C 0.65110(7) 0.10567(6) 0.68933(6)
C69_9 C 0.68933(6) 0.15110(7) 0.60567(6)
C70_9 C 0.59603(7) 0.13615(7) 0.78807(7)
C71_9 C 0.63615(7) 0.21193(7) 0.90397(7)
C72_9 C 0.71193(7) 0.09603(7) 0.86385(7)
C76_9 C 0.40397(7) 0.28807(7) 0.86385(7)
C77_9 C 0.36385(7) 0.40397(7) 0.78807(7)
C78_9 C 0.28807(7) 0.36385(7) 0.90397(7)
C79_9 C 0.63615(7) 0.09603(7) 0.71193(7)
C80_9 C 0.71193(7) 0.13615(7) 0.59603(7)
H25_9 H 0.6043 0.1190 0.7834
H26_9 H 0.6190 0.2166 0.8957
H27_9 H 0.7166 0.1043 0.8810
H31_9 H 0.3957 0.2834 0.8810
H32_9 H 0.3810 0.3957 0.7834
H33_9 H 0.2834 0.3810 0.8957
H34_9 H 0.6190 0.1043 0.7166
H35_9 H 0.7166 0.1190 0.6043
C81_9 C 0.57433(7) 0.14642(7) 0.77249(6)
C82_9 C 0.64642(7) 0.22751(6) 0.92567(7)
C83_9 C 0.72751(6) 0.07433(7) 0.85358(7)
C87_9 C 0.42567(7) 0.27249(6) 0.85358(7)
C88_9 C 0.35358(7) 0.42567(7) 0.77249(6)
C89_9 C 0.27249(6) 0.35358(7) 0.92567(7)
C90_9 C 0.64642(7) 0.07433(7) 0.72751(6)
C91_9 C 0.72751(6) 0.14642(7) 0.57433(7)
H36_9 H 0.5676 0.1360 0.7573
H37_9 H 0.6360 0.2427 0.9324
H38_9 H 0.7427 0.0676 0.8640
H42_9 H 0.4324 0.2573 0.8640
H43_9 H 0.3640 0.4324 0.7573
H44_9 H 0.2573 0.3640 0.9324
H45_9 H 0.6360 0.0676 0.7427
H46_9 H 0.7427 0.1360 0.5676
C92_9 C 0.60406(7) 0.18844(7) 0.84348(7)
C93_9 C 0.65652(7) 0.10406(7) 0.81156(7)
C94_9 C 0.68844(7) 0.15652(7) 0.89594(7)
C98_9 C 0.39594(7) 0.34348(7) 0.81156(7)
C99_9 C 0.34348(7) 0.31156(7) 0.89594(7)
C100_9 C 0.31156(7) 0.39594(7) 0.84348(7)
C101_9 C 0.65652(7) 0.18844(7) 0.60406(7)
C102_9 C 0.68844(7) 0.10406(7) 0.65652(7)
C103_9 C 0.64937(7) 0.16792(7) 0.62696(6)
C104_9 C 0.62696(6) 0.16792(7) 0.85063(7)
C105_9 C 0.64937(7) 0.12696(6) 0.83208(7)
C106_9 C 0.66792(7) 0.14937(7) 0.87304(6)
C110_9 C 0.37304(6) 0.35063(7) 0.83208(7)
C111_9 C 0.35063(7) 0.33208(7) 0.87304(6)
C112_9 C 0.33208(7) 0.37304(6) 0.85063(7)
C113_9 C 0.66792(7) 0.12696(6) 0.64937(7)
C114_9 C 0.64649(7) 0.12825(6) 0.66914(7)
C115_9 C 0.62825(6) 0.14649(7) 0.83086(7)
C116_9 C 0.64649(7) 0.16914(7) 0.87175(6)
C117_9 C 0.66914(7) 0.12825(6) 0.85351(7)
C121_9 C 0.37175(6) 0.33086(7) 0.85351(7)
C122_9 C 0.35351(7) 0.37175(6) 0.83086(7)
C123_9 C 0.33086(7) 0.35351(7) 0.87175(6)
C124_9 C 0.66914(7) 0.14649(7) 0.62825(6)
C125_9 C 0.61573(11) 0.21728(9) 0.83635(10)
C126_9 C 0.66365(10) 0.11573(11) 0.78272(9)
C127_9 C 0.71728(9) 0.16365(10) 0.88427(11)
C131_9 C 0.38427(11) 0.33635(10) 0.78272(9)
C132_9 C 0.33635(10) 0.28272(9) 0.88427(11)
C133_9 C 0.28272(9) 0.38427(11) 0.83635(10)
C134_9 C 0.66365(10) 0.21728(9) 0.61573(11)
C135_9 C 0.71728(9) 0.11573(11) 0.66365(10)
H47_9 H 0.6005 0.2288 0.8290
H48_9 H 0.6710 0.1005 0.7712
H49_9 H 0.7288 0.1710 0.8995
H53_9 H 0.3995 0.3290 0.7712
H54_9 H 0.3290 0.2712 0.8995
H55_9 H 0.2712 0.3995 0.8290
H56_9 H 0.6710 0.2288 0.6005
H57_9 H 0.7288 0.1005 0.6710
H58_9 H 0.6223 0.2261 0.8536
H59_9 H 0.6464 0.1223 0.7739
H60_9 H 0.7261 0.1464 0.8777
H64_9 H 0.3777 0.3536 0.7739
H65_9 H 0.3536 0.2739 0.8777
H66_9 H 0.2739 0.3777 0.8536
H67_9 H 0.6464 0.2261 0.6223
H68_9 H 0.7261 0.1223 0.6464
C136_9 C 0.63907(12) 0.21735(11) 0.81566(14)
C137_9 C 0.68434(14) 0.13907(12) 0.78265(11)
C138_9 C 0.71735(11) 0.18434(14) 0.86093(12)
C142_9 C 0.36093(12) 0.31566(14) 0.78265(11)
C143_9 C 0.31566(14) 0.28265(11) 0.86093(12)
C144_9 C 0.28265(11) 0.36093(12) 0.81566(14)
C145_9 C 0.68434(14) 0.21735(11) 0.63907(12)
C146_9 C 0.71735(11) 0.13907(12) 0.68434(14)
H69_9 H 0.6555 0.2091 0.8240
H70_9 H 0.6760 0.1555 0.7909
H71_9 H 0.7091 0.1760 0.8445
H75_9 H 0.3445 0.3240 0.7909
H76_9 H 0.3240 0.2909 0.8445
H77_9 H 0.2909 0.3445 0.8240
H78_9 H 0.6760 0.2091 0.6555
H79_9 H 0.7091 0.1555 0.6760
H80_9 H 0.6431 0.2364 0.8101
H81_9 H 0.6899 0.1431 0.7636
H82_9 H 0.7364 0.1899 0.8569
H86_9 H 0.3569 0.3101 0.7636
H87_9 H 0.3101 0.2636 0.8569
H88_9 H 0.2636 0.3569 0.8101
H89_9 H 0.6899 0.2364 0.6431
H90_9 H 0.7364 0.1431 0.6899
H91_9 H 0.6337 0.2066 0.7994
H92_9 H 0.7006 0.1337 0.7934
H93_9 H 0.7066 0.2006 0.8663
H97_9 H 0.3663 0.2994 0.7934
H98_9 H 0.2994 0.2934 0.8663
H99_9 H 0.2934 0.3663 0.7994
H100_9 H 0.7006 0.2066 0.6337
H101_9 H 0.7066 0.1337 0.7006
C147_9 C 0.57939(9) 0.18835(11) 0.86542(9)
C148_9 C 0.63458(9) 0.07939(9) 0.81165(11)
C149_9 C 0.68835(11) 0.13458(9) 0.92061(9)
C153_9 C 0.42061(9) 0.36542(9) 0.81165(11)
C154_9 C 0.36542(9) 0.31165(11) 0.92061(9)
C155_9 C 0.31165(11) 0.42061(9) 0.86542(9)
C156_9 C 0.63458(9) 0.18835(11) 0.57939(9)
C157_9 C 0.68835(11) 0.07939(9) 0.63458(9)
H102_9 H 0.5864 0.1961 0.8830
H103_9 H 0.6170 0.0864 0.8039
H104_9 H 0.6961 0.1170 0.9136
H108_9 H 0.4136 0.3830 0.8039
H109_9 H 0.3830 0.3039 0.9136
H110_9 H 0.3039 0.4136 0.8830
H111_9 H 0.6170 0.1961 0.5864
H112_9 H 0.6961 0.0864 0.6170
H113_9 H 0.5648 0.2010 0.8587
H114_9 H 0.6413 0.0648 0.7990
H115_9 H 0.7010 0.1413 0.9352
H119_9 H 0.4352 0.3587 0.7990
H120_9 H 0.3587 0.2990 0.9352
H121_9 H 0.2990 0.4352 0.8587
H122_9 H 0.6413 0.2010 0.5648
H123_9 H 0.7010 0.0648 0.6413
C158_9 C 0.56636(13) 0.16078(13) 0.87146(13)
C159_9 C 0.62854(13) 0.06636(13) 0.83922(13)
C160_9 C 0.66078(13) 0.12854(13) 0.93364(13)
C164_9 C 0.43364(13) 0.37146(13) 0.83922(13)
C165_9 C 0.37146(13) 0.33922(13) 0.93364(13)
C166_9 C 0.33922(13) 0.43364(13) 0.87146(13)
C167_9 C 0.62854(13) 0.16078(13) 0.56636(13)
C168_9 C 0.66078(13) 0.06636(13) 0.62854(13)
H124_9 H 0.5587 0.1530 0.8544
H125_9 H 0.6456 0.0587 0.8470
H126_9 H 0.6530 0.1456 0.9413
H130_9 H 0.4413 0.3544 0.8470
H131_9 H 0.3544 0.3470 0.9413
H132_9 H 0.3470 0.4413 0.8544
H133_9 H 0.6456 0.1530 0.5587
H134_9 H 0.6530 0.0587 0.6456
H135_9 H 0.5515 0.1632 0.8850
H136_9 H 0.6150 0.0515 0.8368
H137_9 H 0.6632 0.1150 0.9485
H141_9 H 0.4485 0.3850 0.8368
H142_9 H 0.3850 0.3368 0.9485
H143_9 H 0.3368 0.4485 0.8850
H144_9 H 0.6150 0.1632 0.5515
H145_9 H 0.6632 0.0515 0.6150
H146_9 H 0.5803 0.1482 0.8789
H147_9 H 0.6211 0.0803 0.8518
H148_9 H 0.6482 0.1211 0.9197
H152_9 H 0.4197 0.3789 0.8518
H153_9 H 0.3789 0.3518 0.9197
H154_9 H 0.3518 0.4197 0.8789
H155_9 H 0.6211 0.1482 0.5803
H156_9 H 0.6482 0.0803 0.6211
O36_12 O 0.5000 0.18258(7) 0.82173(8)
O37_12 O 0.5000 0.32173(8) 0.81742(7)
O38_12 O 0.5000 0.17827(8) 0.68258(7)
Cd5_7 Cd 0.775465(5) 1.0000 0.798486(5)
Cd6_11 Cd 0.701514(5) 1.0000 0.775465(5)
Cd16_14 Cd 0.724535(5) 1.0000 0.701514(5)
O2_10 O 0.73888(4) 0.67038(4) 0.46643(4)
O3_10 O 0.76602(4) 0.70644(4) 0.47071(4)
O4_13 O 0.7500 0.7500 0.5000
C1_10 C 0.76034(6) 0.68327(6) 0.45977(5)
C2_10 C 0.77868(6) 0.67168(6) 0.43774(6)
C3_10 C 0.80158(6) 0.68635(7) 0.42884(6)
H1_10 H 0.8063 0.7034 0.4372
C4_10 C 0.81747(6) 0.67576(7) 0.40752(6)
C5_10 C 0.81067(6) 0.65110(7) 0.39433(6)
C6_10 C 0.78807(7) 0.63615(7) 0.40397(7)
H2_10 H 0.7834 0.6190 0.3957
C7_10 C 0.77249(6) 0.64642(7) 0.42567(7)
H3_10 H 0.7573 0.6360 0.4324
C8_10 C 0.84348(7) 0.68844(7) 0.39594(7)
C9_10 C 0.85063(7) 0.66792(7) 0.37304(6)
C10_10 C 0.83086(7) 0.64649(7) 0.37175(6)
C11_10 C 0.83635(10) 0.71728(9) 0.38427(11)
H4_10 H 0.8290 0.7288 0.3995
H5_10 H 0.8536 0.7261 0.3777
C12_10 C 0.81566(14) 0.71735(11) 0.36093(12)
H6_10 H 0.8240 0.7091 0.3445
H7_10 H 0.8101 0.7364 0.3569
H8_10 H 0.7994 0.7066 0.3663
C13_10 C 0.86542(9) 0.68835(11) 0.42061(9)
H9_10 H 0.8830 0.6961 0.4136
H10_10 H 0.8587 0.7010 0.4352
C14_10 C 0.87146(13) 0.66078(13) 0.43364(13)
H11_10 H 0.8544 0.6530 0.4413
H12_10 H 0.8850 0.6632 0.4485
H13_10 H 0.8789 0.6482 0.4197
O5_13 O 0.68258(7) 0.67827(8) 0.5000
O7_10 O 0.76112(4) 0.82962(4) 0.53357(4)
O9_10 O 0.67038(4) 0.76112(4) 0.46643(4)
O11_10 O 0.82962(4) 0.73888(4) 0.46643(4)
O12_8 O 0.82962(4) 0.73888(4) 0.53357(4)
O13_10 O 0.96643(4) 0.82962(4) 0.23888(4)
O14_10 O 0.73888(4) 0.96643(4) 0.32962(4)
O17_8 O 0.67038(4) 0.96643(4) 0.76112(4)
O19_10 O 0.96643(4) 0.76112(4) 0.32962(4)
O21_10 O 0.70644(4) 0.73398(4) 0.47071(4)
O24_10 O 0.79356(4) 0.76602(4) 0.47071(4)
O25_10 O 0.73398(4) 0.79356(4) 0.52929(4)
O26_8 O 0.79356(4) 0.76602(4) 0.52929(4)
O28_10 O 0.97071(4) 0.79356(4) 0.26602(4)
O29_10 O 0.76602(4) 0.97071(4) 0.29356(4)
O32_8 O 0.70644(4) 0.97071(4) 0.73398(4)
O34_10 O 0.97071(4) 0.73398(4) 0.29356(4)
C15_10 C 0.81673(6) 0.76034(6) 0.45977(5)
C16_10 C 0.95977(5) 0.81673(6) 0.26034(6)
C17_10 C 0.76034(6) 0.95977(5) 0.31673(6)
C21_10 C 0.73966(6) 0.81673(6) 0.54023(5)
C22_10 C 0.68327(6) 0.95977(5) 0.73966(6)
C23_10 C 0.54023(5) 0.76034(6) 0.68327(6)
C24_10 C 0.95977(5) 0.73966(6) 0.31673(6)
C25_10 C 0.81673(6) 0.54023(5) 0.26034(6)
C26_10 C 0.82832(6) 0.77868(6) 0.43774(6)
C27_10 C 0.93774(6) 0.82832(6) 0.27868(6)
C28_10 C 0.77868(6) 0.93774(6) 0.32832(6)
C32_10 C 0.72132(6) 0.82832(6) 0.56226(6)
C33_10 C 0.67168(6) 0.93774(6) 0.72132(6)
C34_10 C 0.56226(6) 0.77868(6) 0.67168(6)
C35_10 C 0.93774(6) 0.72132(6) 0.32832(6)
C36_10 C 0.82832(6) 0.56226(6) 0.27868(6)
C37_10 C 0.81365(7) 0.80158(6) 0.42884(6)
C38_10 C 0.92884(6) 0.81365(7) 0.30158(6)
C39_10 C 0.80158(6) 0.92884(6) 0.31365(7)
C43_10 C 0.69842(6) 0.81365(7) 0.57116(6)
C44_10 C 0.68635(7) 0.92884(6) 0.69842(6)
C45_10 C 0.57116(6) 0.80158(6) 0.68635(7)
C46_10 C 0.92884(6) 0.69842(6) 0.31365(7)
C47_10 C 0.81365(7) 0.57116(6) 0.30158(6)
H14_10 H 0.7966 0.8063 0.4372
H15_10 H 0.9372 0.7966 0.3063
H16_10 H 0.8063 0.9372 0.2966
H20_10 H 0.6937 0.7966 0.5628
H21_10 H 0.7034 0.9372 0.6937
H22_10 H 0.5628 0.8063 0.7034
H23_10 H 0.9372 0.6937 0.2966
H24_10 H 0.7966 0.5628 0.3063
C48_10 C 0.82424(7) 0.81747(6) 0.40752(6)
C49_10 C 0.90752(6) 0.82424(7) 0.31747(6)
C50_10 C 0.81747(6) 0.90752(6) 0.32424(7)
C54_10 C 0.68253(6) 0.82424(7) 0.59248(6)
C55_10 C 0.67576(7) 0.90752(6) 0.68253(6)
C56_10 C 0.59248(6) 0.81747(6) 0.67576(7)
C57_10 C 0.90752(6) 0.68253(6) 0.32424(7)
C58_10 C 0.82424(7) 0.59248(6) 0.31747(6)
C59_10 C 0.84890(7) 0.81067(6) 0.39433(6)
C60_10 C 0.81067(6) 0.89433(6) 0.34890(7)
C61_10 C 0.89433(6) 0.84890(7) 0.31067(6)
C65_10 C 0.68933(6) 0.84890(7) 0.60567(6)
C66_10 C 0.60567(6) 0.81067(6) 0.65110(7)
C67_10 C 0.65110(7) 0.89433(6) 0.68933(6)
C68_10 C 0.89433(6) 0.68933(6) 0.34890(7)
C69_10 C 0.84890(7) 0.60567(6) 0.31067(6)
C70_10 C 0.86385(7) 0.78807(7) 0.40397(7)
C71_10 C 0.78807(7) 0.90397(7) 0.36385(7)
C72_10 C 0.90397(7) 0.86385(7) 0.28807(7)
C76_10 C 0.71193(7) 0.86385(7) 0.59603(7)
C77_10 C 0.59603(7) 0.78807(7) 0.63615(7)
C78_10 C 0.63615(7) 0.90397(7) 0.71193(7)
C79_10 C 0.90397(7) 0.71193(7) 0.36385(7)
C80_10 C 0.86385(7) 0.59603(7) 0.28807(7)
H25_10 H 0.8810 0.7834 0.3957
H26_10 H 0.7834 0.8957 0.3810
H27_10 H 0.8957 0.8810 0.2834
H31_10 H 0.7166 0.8810 0.6043
H32_10 H 0.6043 0.7834 0.6190
H33_10 H 0.6190 0.8957 0.7166
H34_10 H 0.8957 0.7166 0.3810
H35_10 H 0.8810 0.6043 0.2834
C81_10 C 0.85358(7) 0.77249(6) 0.42567(7)
C82_10 C 0.77249(6) 0.92567(7) 0.35358(7)
C83_10 C 0.92567(7) 0.85358(7) 0.27249(6)
C87_10 C 0.72751(6) 0.85358(7) 0.57433(7)
C88_10 C 0.57433(7) 0.77249(6) 0.64642(7)
C89_10 C 0.64642(7) 0.92567(7) 0.72751(6)
C90_10 C 0.92567(7) 0.72751(6) 0.35358(7)
C91_10 C 0.85358(7) 0.57433(7) 0.27249(6)
H36_10 H 0.8640 0.7573 0.4324
H37_10 H 0.7573 0.9324 0.3640
H38_10 H 0.9324 0.8640 0.2573
H42_10 H 0.7427 0.8640 0.5676
H43_10 H 0.5676 0.7573 0.6360
H44_10 H 0.6360 0.9324 0.7427
H45_10 H 0.9324 0.7427 0.3640
H46_10 H 0.8640 0.5676 0.2573
C92_10 C 0.81156(7) 0.84348(7) 0.39594(7)
C93_10 C 0.89594(7) 0.81156(7) 0.34348(7)
C94_10 C 0.84348(7) 0.89594(7) 0.31156(7)
C98_10 C 0.65652(7) 0.81156(7) 0.60406(7)
C99_10 C 0.68844(7) 0.89594(7) 0.65652(7)
C100_10 C 0.60406(7) 0.84348(7) 0.68844(7)
C101_10 C 0.81156(7) 0.60406(7) 0.34348(7)
C102_10 C 0.89594(7) 0.65652(7) 0.31156(7)
C103_10 C 0.83208(7) 0.62696(6) 0.35063(7)
C104_10 C 0.83208(7) 0.85063(7) 0.37304(6)
C105_10 C 0.87304(6) 0.83208(7) 0.35063(7)
C106_10 C 0.85063(7) 0.87304(6) 0.33208(7)
C110_10 C 0.64937(7) 0.83208(7) 0.62696(6)
C111_10 C 0.66792(7) 0.87304(6) 0.64937(7)
C112_10 C 0.62696(6) 0.85063(7) 0.66792(7)
C113_10 C 0.87304(6) 0.64937(7) 0.33208(7)
C114_10 C 0.87175(6) 0.66914(7) 0.35351(7)
C115_10 C 0.85351(7) 0.83086(7) 0.37175(6)
C116_10 C 0.83086(7) 0.87175(6) 0.35351(7)
C117_10 C 0.87175(6) 0.85351(7) 0.33086(7)
C121_10 C 0.66914(7) 0.85351(7) 0.62825(6)
C122_10 C 0.62825(6) 0.83086(7) 0.64649(7)
C123_10 C 0.64649(7) 0.87175(6) 0.66914(7)
C124_10 C 0.85351(7) 0.62825(6) 0.33086(7)
C125_10 C 0.78272(9) 0.83635(10) 0.38427(11)
C126_10 C 0.88427(11) 0.78272(9) 0.33635(10)
C127_10 C 0.83635(10) 0.88427(11) 0.28272(9)
C131_10 C 0.66365(10) 0.78272(9) 0.61573(11)
C132_10 C 0.71728(9) 0.88427(11) 0.66365(10)
C133_10 C 0.61573(11) 0.83635(10) 0.71728(9)
C134_10 C 0.78272(9) 0.61573(11) 0.33635(10)
C135_10 C 0.88427(11) 0.66365(10) 0.28272(9)
H47_10 H 0.7712 0.8290 0.3995
H48_10 H 0.8995 0.7712 0.3290
H49_10 H 0.8290 0.8995 0.2712
H53_10 H 0.6710 0.7712 0.6005
H54_10 H 0.7288 0.8995 0.6710
H55_10 H 0.6005 0.8290 0.7288
H56_10 H 0.7712 0.6005 0.3290
H57_10 H 0.8995 0.6710 0.2712
H58_10 H 0.7739 0.8536 0.3777
H59_10 H 0.8777 0.7739 0.3536
H60_10 H 0.8536 0.8777 0.2739
H64_10 H 0.6464 0.7739 0.6223
H65_10 H 0.7261 0.8777 0.6464
H66_10 H 0.6223 0.8536 0.7261
H67_10 H 0.7739 0.6223 0.3536
H68_10 H 0.8777 0.6464 0.2739
C136_10 C 0.78265(11) 0.81566(14) 0.36093(12)
C137_10 C 0.86093(12) 0.78265(11) 0.31566(14)
C138_10 C 0.81566(14) 0.86093(12) 0.28265(11)
C142_10 C 0.68434(14) 0.78265(11) 0.63907(12)
C143_10 C 0.71735(11) 0.86093(12) 0.68434(14)
C144_10 C 0.63907(12) 0.81566(14) 0.71735(11)
C145_10 C 0.78265(11) 0.63907(12) 0.31566(14)
C146_10 C 0.86093(12) 0.68434(14) 0.28265(11)
H69_10 H 0.7909 0.8240 0.3445
H70_10 H 0.8445 0.7909 0.3240
H71_10 H 0.8240 0.8445 0.2909
H75_10 H 0.6760 0.7909 0.6555
H76_10 H 0.7091 0.8445 0.6760
H77_10 H 0.6555 0.8240 0.7091
H78_10 H 0.7909 0.6555 0.3240
H79_10 H 0.8445 0.6760 0.2909
H80_10 H 0.7636 0.8101 0.3569
H81_10 H 0.8569 0.7636 0.3101
H82_10 H 0.8101 0.8569 0.2636
H86_10 H 0.6899 0.7636 0.6431
H87_10 H 0.7364 0.8569 0.6899
H88_10 H 0.6431 0.8101 0.7364
H89_10 H 0.7636 0.6431 0.3101
H90_10 H 0.8569 0.6899 0.2636
H91_10 H 0.7934 0.7994 0.3663
H92_10 H 0.8663 0.7934 0.2994
H93_10 H 0.7994 0.8663 0.2934
H97_10 H 0.7006 0.7934 0.6337
H98_10 H 0.7066 0.8663 0.7006
H99_10 H 0.6337 0.7994 0.7066
H100_10 H 0.7934 0.6337 0.2994
H101_10 H 0.8663 0.7006 0.2934
C147_10 C 0.81165(11) 0.86542(9) 0.42061(9)
C148_10 C 0.92061(9) 0.81165(11) 0.36542(9)
C149_10 C 0.86542(9) 0.92061(9) 0.31165(11)
C153_10 C 0.63458(9) 0.81165(11) 0.57939(9)
C154_10 C 0.68835(11) 0.92061(9) 0.63458(9)
C155_10 C 0.57939(9) 0.86542(9) 0.68835(11)
C156_10 C 0.81165(11) 0.57939(9) 0.36542(9)
C157_10 C 0.92061(9) 0.63458(9) 0.31165(11)
H102_10 H 0.8039 0.8830 0.4136
H103_10 H 0.9136 0.8039 0.3830
H104_10 H 0.8830 0.9136 0.3039
H108_10 H 0.6170 0.8039 0.5864
H109_10 H 0.6961 0.9136 0.6170
H110_10 H 0.5864 0.8830 0.6961
H111_10 H 0.8039 0.5864 0.3830
H112_10 H 0.9136 0.6170 0.3039
H113_10 H 0.7990 0.8587 0.4352
H114_10 H 0.9352 0.7990 0.3587
H115_10 H 0.8587 0.9352 0.2990
H119_10 H 0.6413 0.7990 0.5648
H120_10 H 0.7010 0.9352 0.6413
H121_10 H 0.5648 0.8587 0.7010
H122_10 H 0.7990 0.5648 0.3587
H123_10 H 0.9352 0.6413 0.2990
C158_10 C 0.83922(13) 0.87146(13) 0.43364(13)
C159_10 C 0.93364(13) 0.83922(13) 0.37146(13)
C160_10 C 0.87146(13) 0.93364(13) 0.33922(13)
C164_10 C 0.62854(13) 0.83922(13) 0.56636(13)
C165_10 C 0.66078(13) 0.93364(13) 0.62854(13)
C166_10 C 0.56636(13) 0.87146(13) 0.66078(13)
C167_10 C 0.83922(13) 0.56636(13) 0.37146(13)
C168_10 C 0.93364(13) 0.62854(13) 0.33922(13)
H124_10 H 0.8470 0.8544 0.4413
H125_10 H 0.9413 0.8470 0.3544
H126_10 H 0.8544 0.9413 0.3470
H130_10 H 0.6456 0.8470 0.5587
H131_10 H 0.6530 0.9413 0.6456
H132_10 H 0.5587 0.8544 0.6530
H133_10 H 0.8470 0.5587 0.3544
H134_10 H 0.9413 0.6456 0.3470
H135_10 H 0.8368 0.8850 0.4485
H136_10 H 0.9485 0.8368 0.3850
H137_10 H 0.8850 0.9485 0.3368
H141_10 H 0.6150 0.8368 0.5515
H142_10 H 0.6632 0.9485 0.6150
H143_10 H 0.5515 0.8850 0.6632
H144_10 H 0.8368 0.5515 0.3850
H145_10 H 0.9485 0.6150 0.3368
H146_10 H 0.8518 0.8789 0.4197
H147_10 H 0.9197 0.8518 0.3789
H148_10 H 0.8789 0.9197 0.3518
H152_10 H 0.6211 0.8518 0.5803
H153_10 H 0.6482 0.9197 0.6211
H154_10 H 0.5803 0.8789 0.6482
H155_10 H 0.8518 0.5803 0.3789
H156_10 H 0.9197 0.6211 0.3518
O36_13 O 0.81742(7) 0.82173(8) 0.5000
O37_13 O 0.67827(8) 0.81742(7) 0.5000
O38_13 O 0.82173(8) 0.68258(7) 0.5000
O2_11 O 0.73888(4) 0.32962(4) 0.53357(4)
O3_11 O 0.76602(4) 0.29356(4) 0.52929(4)
O4_14 O 0.7500 0.2500 0.5000
C1_11 C 0.76034(6) 0.31673(6) 0.54023(5)
C2_11 C 0.77868(6) 0.32832(6) 0.56226(6)
C3_11 C 0.80158(6) 0.31365(7) 0.57116(6)
H1_11 H 0.8063 0.2966 0.5628
C4_11 C 0.81747(6) 0.32424(7) 0.59248(6)
C5_11 C 0.81067(6) 0.34890(7) 0.60567(6)
C6_11 C 0.78807(7) 0.36385(7) 0.59603(7)
H2_11 H 0.7834 0.3810 0.6043
C7_11 C 0.77249(6) 0.35358(7) 0.57433(7)
H3_11 H 0.7573 0.3640 0.5676
C8_11 C 0.84348(7) 0.31156(7) 0.60406(7)
C9_11 C 0.85063(7) 0.33208(7) 0.62696(6)
C10_11 C 0.83086(7) 0.35351(7) 0.62825(6)
C11_11 C 0.83635(10) 0.28272(9) 0.61573(11)
H4_11 H 0.8290 0.2712 0.6005
H5_11 H 0.8536 0.2739 0.6223
C12_11 C 0.81566(14) 0.28265(11) 0.63907(12)
H6_11 H 0.8240 0.2909 0.6555
H7_11 H 0.8101 0.2636 0.6431
H8_11 H 0.7994 0.2934 0.6337
C13_11 C 0.86542(9) 0.31165(11) 0.57939(9)
H9_11 H 0.8830 0.3039 0.5864
H10_11 H 0.8587 0.2990 0.5648
C14_11 C 0.87146(13) 0.33922(13) 0.56636(13)
H11_11 H 0.8544 0.3470 0.5587
H12_11 H 0.8850 0.3368 0.5515
H13_11 H 0.8789 0.3518 0.5803
O5_14 O 0.68258(7) 0.32173(8) 0.5000
Cd8_8 Cd 0.798486(5) 0.0000 0.724535(5)
O7_11 O 0.76112(4) 0.17038(4) 0.46643(4)
O9_11 O 0.67038(4) 0.23888(4) 0.53357(4)
O11_11 O 0.82962(4) 0.26112(4) 0.53357(4)
O12_9 O 0.82962(4) 0.26112(4) 0.46643(4)
O13_11 O 0.96643(4) 0.17038(4) 0.76112(4)
O14_11 O 0.73888(4) 0.03357(4) 0.67038(4)
O17_9 O 0.67038(4) 0.03357(4) 0.23888(4)
O18_8 O 0.53357(4) 0.26112(4) 0.32962(4)
O19_11 O 0.96643(4) 0.23888(4) 0.67038(4)
O21_11 O 0.70644(4) 0.26602(4) 0.52929(4)
O24_11 O 0.79356(4) 0.23398(4) 0.52929(4)
O25_11 O 0.73398(4) 0.20644(4) 0.47071(4)
O26_9 O 0.79356(4) 0.23398(4) 0.47071(4)
O28_11 O 0.97071(4) 0.20644(4) 0.73398(4)
O29_11 O 0.76602(4) 0.02929(4) 0.70644(4)
O32_9 O 0.70644(4) 0.02929(4) 0.26602(4)
O33_8 O 0.52929(4) 0.23398(4) 0.29356(4)
O34_11 O 0.97071(4) 0.26602(4) 0.70644(4)
C15_11 C 0.81673(6) 0.23966(6) 0.54023(5)
C16_11 C 0.95977(5) 0.18327(6) 0.73966(6)
C17_11 C 0.76034(6) 0.04023(5) 0.68327(6)
C21_11 C 0.73966(6) 0.18327(6) 0.45977(5)
C22_11 C 0.68327(6) 0.04023(5) 0.26034(6)
C23_11 C 0.54023(5) 0.23966(6) 0.31673(6)
C24_11 C 0.95977(5) 0.26034(6) 0.68327(6)
C25_11 C 0.81673(6) 0.45977(5) 0.73966(6)
C26_11 C 0.82832(6) 0.22132(6) 0.56226(6)
C27_11 C 0.93774(6) 0.17168(6) 0.72132(6)
C28_11 C 0.77868(6) 0.06226(6) 0.67168(6)
C32_11 C 0.72132(6) 0.17168(6) 0.43774(6)
C33_11 C 0.67168(6) 0.06226(6) 0.27868(6)
C34_11 C 0.56226(6) 0.22132(6) 0.32832(6)
C35_11 C 0.93774(6) 0.27868(6) 0.67168(6)
C36_11 C 0.82832(6) 0.43774(6) 0.72132(6)
C37_11 C 0.81365(7) 0.19842(6) 0.57116(6)
C38_11 C 0.92884(6) 0.18635(7) 0.69842(6)
C39_11 C 0.80158(6) 0.07116(6) 0.68635(7)
C43_11 C 0.69842(6) 0.18635(7) 0.42884(6)
C44_11 C 0.68635(7) 0.07116(6) 0.30158(6)
C45_11 C 0.57116(6) 0.19842(6) 0.31365(7)
C46_11 C 0.92884(6) 0.30158(6) 0.68635(7)
C47_11 C 0.81365(7) 0.42884(6) 0.69842(6)
H14_11 H 0.7966 0.1937 0.5628
H15_11 H 0.9372 0.2034 0.6937
H16_11 H 0.8063 0.0628 0.7034
H20_11 H 0.6937 0.2034 0.4372
H21_11 H 0.7034 0.0628 0.3063
H22_11 H 0.5628 0.1937 0.2966
H23_11 H 0.9372 0.3063 0.7034
H24_11 H 0.7966 0.4372 0.6937
C48_11 C 0.82424(7) 0.18253(6) 0.59248(6)
C49_11 C 0.90752(6) 0.17576(7) 0.68253(6)
C50_11 C 0.81747(6) 0.09248(6) 0.67576(7)
C54_11 C 0.68253(6) 0.17576(7) 0.40752(6)
C55_11 C 0.67576(7) 0.09248(6) 0.31747(6)
C56_11 C 0.59248(6) 0.18253(6) 0.32424(7)
C57_11 C 0.90752(6) 0.31747(6) 0.67576(7)
C58_11 C 0.82424(7) 0.40752(6) 0.68253(6)
C59_11 C 0.84890(7) 0.18933(6) 0.60567(6)
C60_11 C 0.81067(6) 0.10567(6) 0.65110(7)
C61_11 C 0.89433(6) 0.15110(7) 0.68933(6)
C65_11 C 0.68933(6) 0.15110(7) 0.39433(6)
C66_11 C 0.60567(6) 0.18933(6) 0.34890(7)
C67_11 C 0.65110(7) 0.10567(6) 0.31067(6)
C68_11 C 0.89433(6) 0.31067(6) 0.65110(7)
C69_11 C 0.84890(7) 0.39433(6) 0.68933(6)
C70_11 C 0.86385(7) 0.21193(7) 0.59603(7)
C71_11 C 0.78807(7) 0.09603(7) 0.63615(7)
C72_11 C 0.90397(7) 0.13615(7) 0.71193(7)
C76_11 C 0.71193(7) 0.13615(7) 0.40397(7)
C77_11 C 0.59603(7) 0.21193(7) 0.36385(7)
C78_11 C 0.63615(7) 0.09603(7) 0.28807(7)
C79_11 C 0.90397(7) 0.28807(7) 0.63615(7)
C80_11 C 0.86385(7) 0.40397(7) 0.71193(7)
H25_11 H 0.8810 0.2166 0.6043
H26_11 H 0.7834 0.1043 0.6190
H27_11 H 0.8957 0.1190 0.7166
H31_11 H 0.7166 0.1190 0.3957
H32_11 H 0.6043 0.2166 0.3810
H33_11 H 0.6190 0.1043 0.2834
H34_11 H 0.8957 0.2834 0.6190
H35_11 H 0.8810 0.3957 0.7166
C81_11 C 0.85358(7) 0.22751(6) 0.57433(7)
C82_11 C 0.77249(6) 0.07433(7) 0.64642(7)
C83_11 C 0.92567(7) 0.14642(7) 0.72751(6)
C87_11 C 0.72751(6) 0.14642(7) 0.42567(7)
C88_11 C 0.57433(7) 0.22751(6) 0.35358(7)
C89_11 C 0.64642(7) 0.07433(7) 0.27249(6)
C90_11 C 0.92567(7) 0.27249(6) 0.64642(7)
C91_11 C 0.85358(7) 0.42567(7) 0.72751(6)
H36_11 H 0.8640 0.2427 0.5676
H37_11 H 0.7573 0.0676 0.6360
H38_11 H 0.9324 0.1360 0.7427
H42_11 H 0.7427 0.1360 0.4324
H43_11 H 0.5676 0.2427 0.3640
H44_11 H 0.6360 0.0676 0.2573
H45_11 H 0.9324 0.2573 0.6360
H46_11 H 0.8640 0.4324 0.7427
C92_11 C 0.81156(7) 0.15652(7) 0.60406(7)
C93_11 C 0.89594(7) 0.18844(7) 0.65652(7)
C94_11 C 0.84348(7) 0.10406(7) 0.68844(7)
C98_11 C 0.65652(7) 0.18844(7) 0.39594(7)
C99_11 C 0.68844(7) 0.10406(7) 0.34348(7)
C100_11 C 0.60406(7) 0.15652(7) 0.31156(7)
C101_11 C 0.81156(7) 0.39594(7) 0.65652(7)
C102_11 C 0.89594(7) 0.34348(7) 0.68844(7)
C103_11 C 0.83208(7) 0.37304(6) 0.64937(7)
C104_11 C 0.83208(7) 0.14937(7) 0.62696(6)
C105_11 C 0.87304(6) 0.16792(7) 0.64937(7)
C106_11 C 0.85063(7) 0.12696(6) 0.66792(7)
C110_11 C 0.64937(7) 0.16792(7) 0.37304(6)
C111_11 C 0.66792(7) 0.12696(6) 0.35063(7)
C112_11 C 0.62696(6) 0.14937(7) 0.33208(7)
C113_11 C 0.87304(6) 0.35063(7) 0.66792(7)
C114_11 C 0.87175(6) 0.33086(7) 0.64649(7)
C115_11 C 0.85351(7) 0.16914(7) 0.62825(6)
C116_11 C 0.83086(7) 0.12825(6) 0.64649(7)
C117_11 C 0.87175(6) 0.14649(7) 0.66914(7)
C121_11 C 0.66914(7) 0.14649(7) 0.37175(6)
C122_11 C 0.62825(6) 0.16914(7) 0.35351(7)
C123_11 C 0.64649(7) 0.12825(6) 0.33086(7)
C124_11 C 0.85351(7) 0.37175(6) 0.66914(7)
C125_11 C 0.78272(9) 0.16365(10) 0.61573(11)
C126_11 C 0.88427(11) 0.21728(9) 0.66365(10)
C127_11 C 0.83635(10) 0.11573(11) 0.71728(9)
C131_11 C 0.66365(10) 0.21728(9) 0.38427(11)
C132_11 C 0.71728(9) 0.11573(11) 0.33635(10)
C133_11 C 0.61573(11) 0.16365(10) 0.28272(9)
C134_11 C 0.78272(9) 0.38427(11) 0.66365(10)
C135_11 C 0.88427(11) 0.33635(10) 0.71728(9)
H47_11 H 0.7712 0.1710 0.6005
H48_11 H 0.8995 0.2288 0.6710
H49_11 H 0.8290 0.1005 0.7288
H53_11 H 0.6710 0.2288 0.3995
H54_11 H 0.7288 0.1005 0.3290
H55_11 H 0.6005 0.1710 0.2712
H56_11 H 0.7712 0.3995 0.6710
H57_11 H 0.8995 0.3290 0.7288
H58_11 H 0.7739 0.1464 0.6223
H59_11 H 0.8777 0.2261 0.6464
H60_11 H 0.8536 0.1223 0.7261
H64_11 H 0.6464 0.2261 0.3777
H65_11 H 0.7261 0.1223 0.3536
H66_11 H 0.6223 0.1464 0.2739
H67_11 H 0.7739 0.3777 0.6464
H68_11 H 0.8777 0.3536 0.7261
C136_11 C 0.78265(11) 0.18434(14) 0.63907(12)
C137_11 C 0.86093(12) 0.21735(11) 0.68434(14)
C138_11 C 0.81566(14) 0.13907(12) 0.71735(11)
C142_11 C 0.68434(14) 0.21735(11) 0.36093(12)
C143_11 C 0.71735(11) 0.13907(12) 0.31566(14)
C144_11 C 0.63907(12) 0.18434(14) 0.28265(11)
C145_11 C 0.78265(11) 0.36093(12) 0.68434(14)
C146_11 C 0.86093(12) 0.31566(14) 0.71735(11)
H69_11 H 0.7909 0.1760 0.6555
H70_11 H 0.8445 0.2091 0.6760
H71_11 H 0.8240 0.1555 0.7091
H75_11 H 0.6760 0.2091 0.3445
H76_11 H 0.7091 0.1555 0.3240
H77_11 H 0.6555 0.1760 0.2909
H78_11 H 0.7909 0.3445 0.6760
H79_11 H 0.8445 0.3240 0.7091
H80_11 H 0.7636 0.1899 0.6431
H81_11 H 0.8569 0.2364 0.6899
H82_11 H 0.8101 0.1431 0.7364
H86_11 H 0.6899 0.2364 0.3569
H87_11 H 0.7364 0.1431 0.3101
H88_11 H 0.6431 0.1899 0.2636
H89_11 H 0.7636 0.3569 0.6899
H90_11 H 0.8569 0.3101 0.7364
H91_11 H 0.7934 0.2006 0.6337
H92_11 H 0.8663 0.2066 0.7006
H93_11 H 0.7994 0.1337 0.7066
H97_11 H 0.7006 0.2066 0.3663
H98_11 H 0.7066 0.1337 0.2994
H99_11 H 0.6337 0.2006 0.2934
H100_11 H 0.7934 0.3663 0.7006
H101_11 H 0.8663 0.2994 0.7066
C147_11 C 0.81165(11) 0.13458(9) 0.57939(9)
C148_11 C 0.92061(9) 0.18835(11) 0.63458(9)
C149_11 C 0.86542(9) 0.07939(9) 0.68835(11)
C153_11 C 0.63458(9) 0.18835(11) 0.42061(9)
C154_11 C 0.68835(11) 0.07939(9) 0.36542(9)
C155_11 C 0.57939(9) 0.13458(9) 0.31165(11)
C156_11 C 0.81165(11) 0.42061(9) 0.63458(9)
C157_11 C 0.92061(9) 0.36542(9) 0.68835(11)
H102_11 H 0.8039 0.1170 0.5864
H103_11 H 0.9136 0.1961 0.6170
H104_11 H 0.8830 0.0864 0.6961
H108_11 H 0.6170 0.1961 0.4136
H109_11 H 0.6961 0.0864 0.3830
H110_11 H 0.5864 0.1170 0.3039
H111_11 H 0.8039 0.4136 0.6170
H112_11 H 0.9136 0.3830 0.6961
H113_11 H 0.7990 0.1413 0.5648
H114_11 H 0.9352 0.2010 0.6413
H115_11 H 0.8587 0.0648 0.7010
H119_11 H 0.6413 0.2010 0.4352
H120_11 H 0.7010 0.0648 0.3587
H121_11 H 0.5648 0.1413 0.2990
H122_11 H 0.7990 0.4352 0.6413
H123_11 H 0.9352 0.3587 0.7010
C158_11 C 0.83922(13) 0.12854(13) 0.56636(13)
C159_11 C 0.93364(13) 0.16078(13) 0.62854(13)
C160_11 C 0.87146(13) 0.06636(13) 0.66078(13)
C164_11 C 0.62854(13) 0.16078(13) 0.43364(13)
C165_11 C 0.66078(13) 0.06636(13) 0.37146(13)
C166_11 C 0.56636(13) 0.12854(13) 0.33922(13)
C167_11 C 0.83922(13) 0.43364(13) 0.62854(13)
C168_11 C 0.93364(13) 0.37146(13) 0.66078(13)
H124_11 H 0.8470 0.1456 0.5587
H125_11 H 0.9413 0.1530 0.6456
H126_11 H 0.8544 0.0587 0.6530
H130_11 H 0.6456 0.1530 0.4413
H131_11 H 0.6530 0.0587 0.3544
H132_11 H 0.5587 0.1456 0.3470
H133_11 H 0.8470 0.4413 0.6456
H134_11 H 0.9413 0.3544 0.6530
H135_11 H 0.8368 0.1150 0.5515
H136_11 H 0.9485 0.1632 0.6150
H137_11 H 0.8850 0.0515 0.6632
H141_11 H 0.6150 0.1632 0.4485
H142_11 H 0.6632 0.0515 0.3850
H143_11 H 0.5515 0.1150 0.3368
H144_11 H 0.8368 0.4485 0.6150
H145_11 H 0.9485 0.3850 0.6632
H146_11 H 0.8518 0.1211 0.5803
H147_11 H 0.9197 0.1482 0.6211
H148_11 H 0.8789 0.0803 0.6482
H152_11 H 0.6211 0.1482 0.4197
H153_11 H 0.6482 0.0803 0.3789
H154_11 H 0.5803 0.1211 0.3518
H155_11 H 0.8518 0.4197 0.6211
H156_11 H 0.9197 0.3789 0.6482
O36_14 O 0.81742(7) 0.17827(8) 0.5000
O37_14 O 0.67827(8) 0.18258(7) 0.5000
O38_14 O 0.82173(8) 0.31742(7) 0.5000
Cd8_9 Cd 0.798486(5) 1.0000 0.724535(5)
O2_12 O 0.26112(4) 0.67038(4) 0.53357(4)
O3_12 O 0.23398(4) 0.70644(4) 0.52929(4)
O4_15 O 0.2500 0.7500 0.5000
C1_12 C 0.23966(6) 0.68327(6) 0.54023(5)
C2_12 C 0.22132(6) 0.67168(6) 0.56226(6)
C3_12 C 0.19842(6) 0.68635(7) 0.57116(6)
H1_12 H 0.1937 0.7034 0.5628
C4_12 C 0.18253(6) 0.67576(7) 0.59248(6)
C5_12 C 0.18933(6) 0.65110(7) 0.60567(6)
C6_12 C 0.21193(7) 0.63615(7) 0.59603(7)
H2_12 H 0.2166 0.6190 0.6043
C7_12 C 0.22751(6) 0.64642(7) 0.57433(7)
H3_12 H 0.2427 0.6360 0.5676
C8_12 C 0.15652(7) 0.68844(7) 0.60406(7)
C9_12 C 0.14937(7) 0.66792(7) 0.62696(6)
C10_12 C 0.16914(7) 0.64649(7) 0.62825(6)
C11_12 C 0.16365(10) 0.71728(9) 0.61573(11)
H4_12 H 0.1710 0.7288 0.6005
H5_12 H 0.1464 0.7261 0.6223
C12_12 C 0.18434(14) 0.71735(11) 0.63907(12)
H6_12 H 0.1760 0.7091 0.6555
H7_12 H 0.1899 0.7364 0.6431
H8_12 H 0.2006 0.7066 0.6337
C13_12 C 0.13458(9) 0.68835(11) 0.57939(9)
H9_12 H 0.1170 0.6961 0.5864
H10_12 H 0.1413 0.7010 0.5648
C14_12 C 0.12854(13) 0.66078(13) 0.56636(13)
H11_12 H 0.1456 0.6530 0.5587
H12_12 H 0.1150 0.6632 0.5515
H13_12 H 0.1211 0.6482 0.5803
O5_15 O 0.31742(7) 0.67827(8) 0.5000
Cd5_8 Cd -0.0000 0.798486(5) 0.775465(5)
O6_10 O 0.26112(4) 0.67038(4) 0.46643(4)
O7_12 O 0.23888(4) 0.82962(4) 0.46643(4)
O9_12 O 0.32962(4) 0.76112(4) 0.53357(4)
O11_12 O 0.17038(4) 0.73888(4) 0.53357(4)
O13_12 O 0.03357(4) 0.82962(4) 0.76112(4)
O14_12 O 0.26112(4) 0.96643(4) 0.67038(4)
O19_12 O 0.03357(4) 0.76112(4) 0.67038(4)
O21_12 O 0.29356(4) 0.73398(4) 0.52929(4)
O22_10 O 0.23398(4) 0.70644(4) 0.47071(4)
O24_12 O 0.20644(4) 0.76602(4) 0.52929(4)
O25_12 O 0.26602(4) 0.79356(4) 0.47071(4)
O28_12 O 0.02929(4) 0.79356(4) 0.73398(4)
O29_12 O 0.23398(4) 0.97071(4) 0.70644(4)
O34_12 O 0.02929(4) 0.73398(4) 0.70644(4)
C15_12 C 0.18327(6) 0.76034(6) 0.54023(5)
C16_12 C 0.04023(5) 0.81673(6) 0.73966(6)
C17_12 C 0.23966(6) 0.95977(5) 0.68327(6)
C21_12 C 0.26034(6) 0.81673(6) 0.45977(5)
C22_12 C 0.31673(6) 0.95977(5) 0.26034(6)
C23_12 C 0.45977(5) 0.76034(6) 0.31673(6)
C24_12 C 0.04023(5) 0.73966(6) 0.68327(6)
C25_12 C 0.18327(6) 0.54023(5) 0.73966(6)
C26_12 C 0.17168(6) 0.77868(6) 0.56226(6)
C27_12 C 0.06226(6) 0.82832(6) 0.72132(6)
C28_12 C 0.22132(6) 0.93774(6) 0.67168(6)
C32_12 C 0.27868(6) 0.82832(6) 0.43774(6)
C33_12 C 0.32832(6) 0.93774(6) 0.27868(6)
C34_12 C 0.43774(6) 0.77868(6) 0.32832(6)
C35_12 C 0.06226(6) 0.72132(6) 0.67168(6)
C36_12 C 0.17168(6) 0.56226(6) 0.72132(6)
C37_12 C 0.18635(7) 0.80158(6) 0.57116(6)
C38_12 C 0.07116(6) 0.81365(7) 0.69842(6)
C39_12 C 0.19842(6) 0.92884(6) 0.68635(7)
C43_12 C 0.30158(6) 0.81365(7) 0.42884(6)
C44_12 C 0.31365(7) 0.92884(6) 0.30158(6)
C45_12 C 0.42884(6) 0.80158(6) 0.31365(7)
C46_12 C 0.07116(6) 0.69842(6) 0.68635(7)
C47_12 C 0.18635(7) 0.57116(6) 0.69842(6)
H14_12 H 0.2034 0.8063 0.5628
H15_12 H 0.0628 0.7966 0.6937
H16_12 H 0.1937 0.9372 0.7034
H20_12 H 0.3063 0.7966 0.4372
H21_12 H 0.2966 0.9372 0.3063
H22_12 H 0.4372 0.8063 0.2966
H23_12 H 0.0628 0.6937 0.7034
H24_12 H 0.2034 0.5628 0.6937
C48_12 C 0.17576(7) 0.81747(6) 0.59248(6)
C49_12 C 0.09248(6) 0.82424(7) 0.68253(6)
C50_12 C 0.18253(6) 0.90752(6) 0.67576(7)
C54_12 C 0.31747(6) 0.82424(7) 0.40752(6)
C55_12 C 0.32424(7) 0.90752(6) 0.31747(6)
C56_12 C 0.40752(6) 0.81747(6) 0.32424(7)
C57_12 C 0.09248(6) 0.68253(6) 0.67576(7)
C58_12 C 0.17576(7) 0.59248(6) 0.68253(6)
C59_12 C 0.15110(7) 0.81067(6) 0.60567(6)
C60_12 C 0.18933(6) 0.89433(6) 0.65110(7)
C61_12 C 0.10567(6) 0.84890(7) 0.68933(6)
C65_12 C 0.31067(6) 0.84890(7) 0.39433(6)
C66_12 C 0.39433(6) 0.81067(6) 0.34890(7)
C67_12 C 0.34890(7) 0.89433(6) 0.31067(6)
C68_12 C 0.10567(6) 0.68933(6) 0.65110(7)
C69_12 C 0.15110(7) 0.60567(6) 0.68933(6)
C70_12 C 0.13615(7) 0.78807(7) 0.59603(7)
C71_12 C 0.21193(7) 0.90397(7) 0.63615(7)
C72_12 C 0.09603(7) 0.86385(7) 0.71193(7)
C76_12 C 0.28807(7) 0.86385(7) 0.40397(7)
C77_12 C 0.40397(7) 0.78807(7) 0.36385(7)
C78_12 C 0.36385(7) 0.90397(7) 0.28807(7)
C79_12 C 0.09603(7) 0.71193(7) 0.63615(7)
C80_12 C 0.13615(7) 0.59603(7) 0.71193(7)
H25_12 H 0.1190 0.7834 0.6043
H26_12 H 0.2166 0.8957 0.6190
H27_12 H 0.1043 0.8810 0.7166
H31_12 H 0.2834 0.8810 0.3957
H32_12 H 0.3957 0.7834 0.3810
H33_12 H 0.3810 0.8957 0.2834
H34_12 H 0.1043 0.7166 0.6190
H35_12 H 0.1190 0.6043 0.7166
C81_12 C 0.14642(7) 0.77249(6) 0.57433(7)
C82_12 C 0.22751(6) 0.92567(7) 0.64642(7)
C83_12 C 0.07433(7) 0.85358(7) 0.72751(6)
C87_12 C 0.27249(6) 0.85358(7) 0.42567(7)
C88_12 C 0.42567(7) 0.77249(6) 0.35358(7)
C89_12 C 0.35358(7) 0.92567(7) 0.27249(6)
C90_12 C 0.07433(7) 0.72751(6) 0.64642(7)
C91_12 C 0.14642(7) 0.57433(7) 0.72751(6)
H36_12 H 0.1360 0.7573 0.5676
H37_12 H 0.2427 0.9324 0.6360
H38_12 H 0.0676 0.8640 0.7427
H42_12 H 0.2573 0.8640 0.4324
H43_12 H 0.4324 0.7573 0.3640
H44_12 H 0.3640 0.9324 0.2573
H45_12 H 0.0676 0.7427 0.6360
H46_12 H 0.1360 0.5676 0.7427
C92_12 C 0.18844(7) 0.84348(7) 0.60406(7)
C93_12 C 0.10406(7) 0.81156(7) 0.65652(7)
C94_12 C 0.15652(7) 0.89594(7) 0.68844(7)
C98_12 C 0.34348(7) 0.81156(7) 0.39594(7)
C99_12 C 0.31156(7) 0.89594(7) 0.34348(7)
C100_12 C 0.39594(7) 0.84348(7) 0.31156(7)
C101_12 C 0.18844(7) 0.60406(7) 0.65652(7)
C102_12 C 0.10406(7) 0.65652(7) 0.68844(7)
C103_12 C 0.16792(7) 0.62696(6) 0.64937(7)
C104_12 C 0.16792(7) 0.85063(7) 0.62696(6)
C105_12 C 0.12696(6) 0.83208(7) 0.64937(7)
C106_12 C 0.14937(7) 0.87304(6) 0.66792(7)
C110_12 C 0.35063(7) 0.83208(7) 0.37304(6)
C111_12 C 0.33208(7) 0.87304(6) 0.35063(7)
C112_12 C 0.37304(6) 0.85063(7) 0.33208(7)
C113_12 C 0.12696(6) 0.64937(7) 0.66792(7)
C114_12 C 0.12825(6) 0.66914(7) 0.64649(7)
C115_12 C 0.14649(7) 0.83086(7) 0.62825(6)
C116_12 C 0.16914(7) 0.87175(6) 0.64649(7)
C117_12 C 0.12825(6) 0.85351(7) 0.66914(7)
C121_12 C 0.33086(7) 0.85351(7) 0.37175(6)
C122_12 C 0.37175(6) 0.83086(7) 0.35351(7)
C123_12 C 0.35351(7) 0.87175(6) 0.33086(7)
C124_12 C 0.14649(7) 0.62825(6) 0.66914(7)
C125_12 C 0.21728(9) 0.83635(10) 0.61573(11)
C126_12 C 0.11573(11) 0.78272(9) 0.66365(10)
C127_12 C 0.16365(10) 0.88427(11) 0.71728(9)
C131_12 C 0.33635(10) 0.78272(9) 0.38427(11)
C132_12 C 0.28272(9) 0.88427(11) 0.33635(10)
C133_12 C 0.38427(11) 0.83635(10) 0.28272(9)
C134_12 C 0.21728(9) 0.61573(11) 0.66365(10)
C135_12 C 0.11573(11) 0.66365(10) 0.71728(9)
H47_12 H 0.2288 0.8290 0.6005
H48_12 H 0.1005 0.7712 0.6710
H49_12 H 0.1710 0.8995 0.7288
H53_12 H 0.3290 0.7712 0.3995
H54_12 H 0.2712 0.8995 0.3290
H55_12 H 0.3995 0.8290 0.2712
H56_12 H 0.2288 0.6005 0.6710
H57_12 H 0.1005 0.6710 0.7288
H58_12 H 0.2261 0.8536 0.6223
H59_12 H 0.1223 0.7739 0.6464
H60_12 H 0.1464 0.8777 0.7261
H64_12 H 0.3536 0.7739 0.3777
H65_12 H 0.2739 0.8777 0.3536
H66_12 H 0.3777 0.8536 0.2739
H67_12 H 0.2261 0.6223 0.6464
H68_12 H 0.1223 0.6464 0.7261
C136_12 C 0.21735(11) 0.81566(14) 0.63907(12)
C137_12 C 0.13907(12) 0.78265(11) 0.68434(14)
C138_12 C 0.18434(14) 0.86093(12) 0.71735(11)
C142_12 C 0.31566(14) 0.78265(11) 0.36093(12)
C143_12 C 0.28265(11) 0.86093(12) 0.31566(14)
C144_12 C 0.36093(12) 0.81566(14) 0.28265(11)
C145_12 C 0.21735(11) 0.63907(12) 0.68434(14)
C146_12 C 0.13907(12) 0.68434(14) 0.71735(11)
H69_12 H 0.2091 0.8240 0.6555
H70_12 H 0.1555 0.7909 0.6760
H71_12 H 0.1760 0.8445 0.7091
H75_12 H 0.3240 0.7909 0.3445
H76_12 H 0.2909 0.8445 0.3240
H77_12 H 0.3445 0.8240 0.2909
H78_12 H 0.2091 0.6555 0.6760
H79_12 H 0.1555 0.6760 0.7091
H80_12 H 0.2364 0.8101 0.6431
H81_12 H 0.1431 0.7636 0.6899
H82_12 H 0.1899 0.8569 0.7364
H86_12 H 0.3101 0.7636 0.3569
H87_12 H 0.2636 0.8569 0.3101
H88_12 H 0.3569 0.8101 0.2636
H89_12 H 0.2364 0.6431 0.6899
H90_12 H 0.1431 0.6899 0.7364
H91_12 H 0.2066 0.7994 0.6337
H92_12 H 0.1337 0.7934 0.7006
H93_12 H 0.2006 0.8663 0.7066
H97_12 H 0.2994 0.7934 0.3663
H98_12 H 0.2934 0.8663 0.2994
H99_12 H 0.3663 0.7994 0.2934
H100_12 H 0.2066 0.6337 0.7006
H101_12 H 0.1337 0.7006 0.7066
C147_12 C 0.18835(11) 0.86542(9) 0.57939(9)
C148_12 C 0.07939(9) 0.81165(11) 0.63458(9)
C149_12 C 0.13458(9) 0.92061(9) 0.68835(11)
C153_12 C 0.36542(9) 0.81165(11) 0.42061(9)
C154_12 C 0.31165(11) 0.92061(9) 0.36542(9)
C155_12 C 0.42061(9) 0.86542(9) 0.31165(11)
C156_12 C 0.18835(11) 0.57939(9) 0.63458(9)
C157_12 C 0.07939(9) 0.63458(9) 0.68835(11)
H102_12 H 0.1961 0.8830 0.5864
H103_12 H 0.0864 0.8039 0.6170
H104_12 H 0.1170 0.9136 0.6961
H108_12 H 0.3830 0.8039 0.4136
H109_12 H 0.3039 0.9136 0.3830
H110_12 H 0.4136 0.8830 0.3039
H111_12 H 0.1961 0.5864 0.6170
H112_12 H 0.0864 0.6170 0.6961
H113_12 H 0.2010 0.8587 0.5648
H114_12 H 0.0648 0.7990 0.6413
H115_12 H 0.1413 0.9352 0.7010
H119_12 H 0.3587 0.7990 0.4352
H120_12 H 0.2990 0.9352 0.3587
H121_12 H 0.4352 0.8587 0.2990
H122_12 H 0.2010 0.5648 0.6413
H123_12 H 0.0648 0.6413 0.7010
C158_12 C 0.16078(13) 0.87146(13) 0.56636(13)
C159_12 C 0.06636(13) 0.83922(13) 0.62854(13)
C160_12 C 0.12854(13) 0.93364(13) 0.66078(13)
C164_12 C 0.37146(13) 0.83922(13) 0.43364(13)
C165_12 C 0.33922(13) 0.93364(13) 0.37146(13)
C166_12 C 0.43364(13) 0.87146(13) 0.33922(13)
C167_12 C 0.16078(13) 0.56636(13) 0.62854(13)
C168_12 C 0.06636(13) 0.62854(13) 0.66078(13)
H124_12 H 0.1530 0.8544 0.5587
H125_12 H 0.0587 0.8470 0.6456
H126_12 H 0.1456 0.9413 0.6530
H130_12 H 0.3544 0.8470 0.4413
H131_12 H 0.3470 0.9413 0.3544
H132_12 H 0.4413 0.8544 0.3470
H133_12 H 0.1530 0.5587 0.6456
H134_12 H 0.0587 0.6456 0.6530
H135_12 H 0.1632 0.8850 0.5515
H136_12 H 0.0515 0.8368 0.6150
H137_12 H 0.1150 0.9485 0.6632
H141_12 H 0.3850 0.8368 0.4485
H142_12 H 0.3368 0.9485 0.3850
H143_12 H 0.4485 0.8850 0.3368
H144_12 H 0.1632 0.5515 0.6150
H145_12 H 0.0515 0.6150 0.6632
H146_12 H 0.1482 0.8789 0.5803
H147_12 H 0.0803 0.8518 0.6211
H148_12 H 0.1211 0.9197 0.6482
H152_12 H 0.3789 0.8518 0.4197
H153_12 H 0.3518 0.9197 0.3789
H154_12 H 0.4197 0.8789 0.3518
H155_12 H 0.1482 0.5803 0.6211
H156_12 H 0.0803 0.6211 0.6482
O36_15 O 0.18258(7) 0.82173(8) 0.5000
O37_15 O 0.32173(8) 0.81742(7) 0.5000
O38_15 O 0.17827(8) 0.68258(7) 0.5000
Cd5_9 Cd 1.0000 0.798486(5) 0.775465(5)
O4_16 O 0.0000 0.7500 0.7500
O5_16 O 0.0000 0.67827(8) 0.68258(7)
O11_13 O 0.03357(4) 0.73888(4) 0.82962(4)
O13_13 O 0.26112(4) 0.82962(4) 0.96643(4)
O14_13 O 0.17038(4) 0.96643(4) 0.73888(4)
O24_13 O 0.02929(4) 0.76602(4) 0.79356(4)
O28_13 O 0.23398(4) 0.79356(4) 0.97071(4)
O29_13 O 0.20644(4) 0.97071(4) 0.76602(4)
C15_13 C 0.04023(5) 0.76034(6) 0.81673(6)
C16_13 C 0.23966(6) 0.81673(6) 0.95977(5)
C17_13 C 0.18327(6) 0.95977(5) 0.76034(6)
C26_13 C 0.06226(6) 0.77868(6) 0.82832(6)
C27_13 C 0.22132(6) 0.82832(6) 0.93774(6)
C28_13 C 0.17168(6) 0.93774(6) 0.77868(6)
C37_13 C 0.07116(6) 0.80158(6) 0.81365(7)
C38_13 C 0.19842(6) 0.81365(7) 0.92884(6)
C39_13 C 0.18635(7) 0.92884(6) 0.80158(6)
H14_13 H 0.0628 0.8063 0.7966
H15_13 H 0.1937 0.7966 0.9372
H16_13 H 0.2034 0.9372 0.8063
C48_13 C 0.09248(6) 0.81747(6) 0.82424(7)
C49_13 C 0.18253(6) 0.82424(7) 0.90752(6)
C50_13 C 0.17576(7) 0.90752(6) 0.81747(6)
C59_13 C 0.10567(6) 0.81067(6) 0.84890(7)
C60_13 C 0.15110(7) 0.89433(6) 0.81067(6)
C61_13 C 0.18933(6) 0.84890(7) 0.89433(6)
C70_13 C 0.09603(7) 0.78807(7) 0.86385(7)
C71_13 C 0.13615(7) 0.90397(7) 0.78807(7)
C72_13 C 0.21193(7) 0.86385(7) 0.90397(7)
H25_13 H 0.1043 0.7834 0.8810
H26_13 H 0.1190 0.8957 0.7834
H27_13 H 0.2166 0.8810 0.8957
C81_13 C 0.07433(7) 0.77249(6) 0.85358(7)
C82_13 C 0.14642(7) 0.92567(7) 0.77249(6)
C83_13 C 0.22751(6) 0.85358(7) 0.92567(7)
H36_13 H 0.0676 0.7573 0.8640
H37_13 H 0.1360 0.9324 0.7573
H38_13 H 0.2427 0.8640 0.9324
C92_13 C 0.10406(7) 0.84348(7) 0.81156(7)
C93_13 C 0.15652(7) 0.81156(7) 0.89594(7)
C94_13 C 0.18844(7) 0.89594(7) 0.84348(7)
C104_13 C 0.12696(6) 0.85063(7) 0.83208(7)
C105_13 C 0.14937(7) 0.83208(7) 0.87304(6)
C106_13 C 0.16792(7) 0.87304(6) 0.85063(7)
C115_13 C 0.12825(6) 0.83086(7) 0.85351(7)
C116_13 C 0.14649(7) 0.87175(6) 0.83086(7)
C117_13 C 0.16914(7) 0.85351(7) 0.87175(6)
C125_13 C 0.11573(11) 0.83635(10) 0.78272(9)
C126_13 C 0.16365(10) 0.78272(9) 0.88427(11)
C127_13 C 0.21728(9) 0.88427(11) 0.83635(10)
H47_13 H 0.1005 0.8290 0.7712
H48_13 H 0.1710 0.7712 0.8995
H49_13 H 0.2288 0.8995 0.8290
H58_13 H 0.1223 0.8536 0.7739
H59_13 H 0.1464 0.7739 0.8777
H60_13 H 0.2261 0.8777 0.8536
C136_13 C 0.13907(12) 0.81566(14) 0.78265(11)
C137_13 C 0.18434(14) 0.78265(11) 0.86093(12)
C138_13 C 0.21735(11) 0.86093(12) 0.81566(14)
H69_13 H 0.1555 0.8240 0.7909
H70_13 H 0.1760 0.7909 0.8445
H71_13 H 0.2091 0.8445 0.8240
H80_13 H 0.1431 0.8101 0.7636
H81_13 H 0.1899 0.7636 0.8569
H82_13 H 0.2364 0.8569 0.8101
H91_13 H 0.1337 0.7994 0.7934
H92_13 H 0.2006 0.7934 0.8663
H93_13 H 0.2066 0.8663 0.7994
C147_13 C 0.07939(9) 0.86542(9) 0.81165(11)
C148_13 C 0.13458(9) 0.81165(11) 0.92061(9)
C149_13 C 0.18835(11) 0.92061(9) 0.86542(9)
H102_13 H 0.0864 0.8830 0.8039
H103_13 H 0.1170 0.8039 0.9136
H104_13 H 0.1961 0.9136 0.8830
H113_13 H 0.0648 0.8587 0.7990
H114_13 H 0.1413 0.7990 0.9352
H115_13 H 0.2010 0.9352 0.8587
C158_13 C 0.06636(13) 0.87146(13) 0.83922(13)
C159_13 C 0.12854(13) 0.83922(13) 0.93364(13)
C160_13 C 0.16078(13) 0.93364(13) 0.87146(13)
H124_13 H 0.0587 0.8544 0.8470
H125_13 H 0.1456 0.8470 0.9413
H126_13 H 0.1530 0.9413 0.8544
H135_13 H 0.0515 0.8850 0.8368
H136_13 H 0.1150 0.8368 0.9485
H137_13 H 0.1632 0.9485 0.8850
H146_13 H 0.0803 0.8789 0.8518
H147_13 H 0.1211 0.8518 0.9197
H148_13 H 0.1482 0.9197 0.8789
O36_16 O -0.0000 0.82173(8) 0.81742(7)
O37_16 O -0.0000 0.81742(7) 0.67827(8)
O38_16 O -0.0000 0.68258(7) 0.82173(8)
O4_17 O 1.0000 0.7500 0.7500
O5_17 O 1.0000 0.67827(8) 0.68258(7)
O6_11 O 0.96643(4) 0.67038(4) 0.73888(4)
O7_13 O 0.96643(4) 0.82962(4) 0.76112(4)
O12_10 O 0.96643(4) 0.73888(4) 0.82962(4)
O17_10 O 0.73888(4) 0.96643(4) 0.67038(4)
O22_11 O 0.97071(4) 0.70644(4) 0.76602(4)
O25_13 O 0.97071(4) 0.79356(4) 0.73398(4)
O26_10 O 0.97071(4) 0.76602(4) 0.79356(4)
O32_10 O 0.76602(4) 0.97071(4) 0.70644(4)
C21_13 C 0.95977(5) 0.81673(6) 0.73966(6)
C22_13 C 0.76034(6) 0.95977(5) 0.68327(6)
C23_13 C 0.81673(6) 0.76034(6) 0.54023(5)
C32_13 C 0.93774(6) 0.82832(6) 0.72132(6)
C33_13 C 0.77868(6) 0.93774(6) 0.67168(6)
C34_13 C 0.82832(6) 0.77868(6) 0.56226(6)
C43_13 C 0.92884(6) 0.81365(7) 0.69842(6)
C44_13 C 0.80158(6) 0.92884(6) 0.68635(7)
C45_13 C 0.81365(7) 0.80158(6) 0.57116(6)
H20_13 H 0.9372 0.7966 0.6937
H21_13 H 0.8063 0.9372 0.7034
H22_13 H 0.7966 0.8063 0.5628
C54_13 C 0.90752(6) 0.82424(7) 0.68253(6)
C55_13 C 0.81747(6) 0.90752(6) 0.67576(7)
C56_13 C 0.82424(7) 0.81747(6) 0.59248(6)
C65_13 C 0.89433(6) 0.84890(7) 0.68933(6)
C66_13 C 0.84890(7) 0.81067(6) 0.60567(6)
C67_13 C 0.81067(6) 0.89433(6) 0.65110(7)
C76_13 C 0.90397(7) 0.86385(7) 0.71193(7)
C77_13 C 0.86385(7) 0.78807(7) 0.59603(7)
C78_13 C 0.78807(7) 0.90397(7) 0.63615(7)
H31_13 H 0.8957 0.8810 0.7166
H32_13 H 0.8810 0.7834 0.6043
H33_13 H 0.7834 0.8957 0.6190
C87_13 C 0.92567(7) 0.85358(7) 0.72751(6)
C88_13 C 0.85358(7) 0.77249(6) 0.57433(7)
C89_13 C 0.77249(6) 0.92567(7) 0.64642(7)
H42_13 H 0.9324 0.8640 0.7427
H43_13 H 0.8640 0.7573 0.5676
H44_13 H 0.7573 0.9324 0.6360
C98_13 C 0.89594(7) 0.81156(7) 0.65652(7)
C99_13 C 0.84348(7) 0.89594(7) 0.68844(7)
C100_13 C 0.81156(7) 0.84348(7) 0.60406(7)
C110_13 C 0.87304(6) 0.83208(7) 0.64937(7)
C111_13 C 0.85063(7) 0.87304(6) 0.66792(7)
C112_13 C 0.83208(7) 0.85063(7) 0.62696(6)
C121_13 C 0.87175(6) 0.85351(7) 0.66914(7)
C122_13 C 0.85351(7) 0.83086(7) 0.62825(6)
C123_13 C 0.83086(7) 0.87175(6) 0.64649(7)
C131_13 C 0.88427(11) 0.78272(9) 0.66365(10)
C132_13 C 0.83635(10) 0.88427(11) 0.71728(9)
C133_13 C 0.78272(9) 0.83635(10) 0.61573(11)
H53_13 H 0.8995 0.7712 0.6710
H54_13 H 0.8290 0.8995 0.7288
H55_13 H 0.7712 0.8290 0.6005
H64_13 H 0.8777 0.7739 0.6464
H65_13 H 0.8536 0.8777 0.7261
H66_13 H 0.7739 0.8536 0.6223
C142_13 C 0.86093(12) 0.78265(11) 0.68434(14)
C143_13 C 0.81566(14) 0.86093(12) 0.71735(11)
C144_13 C 0.78265(11) 0.81566(14) 0.63907(12)
H75_13 H 0.8445 0.7909 0.6760
H76_13 H 0.8240 0.8445 0.7091
H77_13 H 0.7909 0.8240 0.6555
H86_13 H 0.8569 0.7636 0.6899
H87_13 H 0.8101 0.8569 0.7364
H88_13 H 0.7636 0.8101 0.6431
H97_13 H 0.8663 0.7934 0.7006
H98_13 H 0.7994 0.8663 0.7066
H99_13 H 0.7934 0.7994 0.6337
C153_13 C 0.92061(9) 0.81165(11) 0.63458(9)
C154_13 C 0.86542(9) 0.92061(9) 0.68835(11)
C155_13 C 0.81165(11) 0.86542(9) 0.57939(9)
H108_13 H 0.9136 0.8039 0.6170
H109_13 H 0.8830 0.9136 0.6961
H110_13 H 0.8039 0.8830 0.5864
H119_13 H 0.9352 0.7990 0.6413
H120_13 H 0.8587 0.9352 0.7010
H121_13 H 0.7990 0.8587 0.5648
C164_13 C 0.93364(13) 0.83922(13) 0.62854(13)
C165_13 C 0.87146(13) 0.93364(13) 0.66078(13)
C166_13 C 0.83922(13) 0.87146(13) 0.56636(13)
H130_13 H 0.9413 0.8470 0.6456
H131_13 H 0.8544 0.9413 0.6530
H132_13 H 0.8470 0.8544 0.5587
H141_13 H 0.9485 0.8368 0.6150
H142_13 H 0.8850 0.9485 0.6632
H143_13 H 0.8368 0.8850 0.5515
H152_13 H 0.9197 0.8518 0.6211
H153_13 H 0.8789 0.9197 0.6482
H154_13 H 0.8518 0.8789 0.5803
O36_17 O 1.0000 0.82173(8) 0.81742(7)
O37_17 O 1.0000 0.81742(7) 0.67827(8)
O38_17 O 1.0000 0.68258(7) 0.82173(8)
C1_13 C 0.26034(6) 0.54023(5) 0.68327(6)
C2_13 C 0.27868(6) 0.56226(6) 0.67168(6)
C3_13 C 0.30158(6) 0.57116(6) 0.68635(7)
H1_13 H 0.3063 0.5628 0.7034
C4_13 C 0.31747(6) 0.59248(6) 0.67576(7)
C5_13 C 0.31067(6) 0.60567(6) 0.65110(7)
C6_13 C 0.28807(7) 0.59603(7) 0.63615(7)
H2_13 H 0.2834 0.6043 0.6190
C7_13 C 0.27249(6) 0.57433(7) 0.64642(7)
H3_13 H 0.2573 0.5676 0.6360
C8_13 C 0.34348(7) 0.60406(7) 0.68844(7)
C9_13 C 0.35063(7) 0.62696(6) 0.66792(7)
C10_13 C 0.33086(7) 0.62825(6) 0.64649(7)
C11_13 C 0.33635(10) 0.61573(11) 0.71728(9)
H4_13 H 0.3290 0.6005 0.7288
H5_13 H 0.3536 0.6223 0.7261
C12_13 C 0.31566(14) 0.63907(12) 0.71735(11)
H6_13 H 0.3240 0.6555 0.7091
H7_13 H 0.3101 0.6431 0.7364
H8_13 H 0.2994 0.6337 0.7066
C13_13 C 0.36542(9) 0.57939(9) 0.68835(11)
H9_13 H 0.3830 0.5864 0.6961
H10_13 H 0.3587 0.5648 0.7010
C14_13 C 0.37146(13) 0.56636(13) 0.66078(13)
H11_13 H 0.3544 0.5587 0.6530
H12_13 H 0.3850 0.5515 0.6632
H13_13 H 0.3789 0.5803 0.6482
O18_9 O 0.03357(4) 0.32962(4) 0.73888(4)
O33_9 O 0.02929(4) 0.29356(4) 0.76602(4)
C21_14 C 0.23966(6) 0.45977(5) 0.81673(6)
C22_14 C 0.18327(6) 0.26034(6) 0.95977(5)
C23_14 C 0.04023(5) 0.31673(6) 0.76034(6)
C24_13 C 0.45977(5) 0.68327(6) 0.73966(6)
C25_13 C 0.31673(6) 0.73966(6) 0.54023(5)
C32_14 C 0.22132(6) 0.43774(6) 0.82832(6)
C33_14 C 0.17168(6) 0.27868(6) 0.93774(6)
C34_14 C 0.06226(6) 0.32832(6) 0.77868(6)
C35_13 C 0.43774(6) 0.67168(6) 0.72132(6)
C36_13 C 0.32832(6) 0.72132(6) 0.56226(6)
C43_14 C 0.19842(6) 0.42884(6) 0.81365(7)
C44_14 C 0.18635(7) 0.30158(6) 0.92884(6)
C45_14 C 0.07116(6) 0.31365(7) 0.80158(6)
C46_13 C 0.42884(6) 0.68635(7) 0.69842(6)
C47_13 C 0.31365(7) 0.69842(6) 0.57116(6)
H20_14 H 0.1937 0.4372 0.7966
H21_14 H 0.2034 0.3063 0.9372
H22_14 H 0.0628 0.2966 0.8063
H23_13 H 0.4372 0.7034 0.6937
H24_13 H 0.2966 0.6937 0.5628
C54_14 C 0.18253(6) 0.40752(6) 0.82424(7)
C55_14 C 0.17576(7) 0.31747(6) 0.90752(6)
C56_14 C 0.09248(6) 0.32424(7) 0.81747(6)
C57_13 C 0.40752(6) 0.67576(7) 0.68253(6)
C58_13 C 0.32424(7) 0.68253(6) 0.59248(6)
C65_14 C 0.18933(6) 0.39433(6) 0.84890(7)
C66_14 C 0.10567(6) 0.34890(7) 0.81067(6)
C67_14 C 0.15110(7) 0.31067(6) 0.89433(6)
C68_13 C 0.39433(6) 0.65110(7) 0.68933(6)
C69_13 C 0.34890(7) 0.68933(6) 0.60567(6)
C76_14 C 0.21193(7) 0.40397(7) 0.86385(7)
C77_14 C 0.09603(7) 0.36385(7) 0.78807(7)
C78_14 C 0.13615(7) 0.28807(7) 0.90397(7)
C79_13 C 0.40397(7) 0.63615(7) 0.71193(7)
C80_13 C 0.36385(7) 0.71193(7) 0.59603(7)
H31_14 H 0.2166 0.3957 0.8810
H32_14 H 0.1043 0.3810 0.7834
H33_14 H 0.1190 0.2834 0.8957
H34_13 H 0.3957 0.6190 0.7166
H35_13 H 0.3810 0.7166 0.6043
C87_14 C 0.22751(6) 0.42567(7) 0.85358(7)
C88_14 C 0.07433(7) 0.35358(7) 0.77249(6)
C89_14 C 0.14642(7) 0.27249(6) 0.92567(7)
C90_13 C 0.42567(7) 0.64642(7) 0.72751(6)
C91_13 C 0.35358(7) 0.72751(6) 0.57433(7)
H42_14 H 0.2427 0.4324 0.8640
H43_14 H 0.0676 0.3640 0.7573
H44_14 H 0.1360 0.2573 0.9324
H45_13 H 0.4324 0.6360 0.7427
H46_13 H 0.3640 0.7427 0.5676
C98_14 C 0.15652(7) 0.39594(7) 0.81156(7)
C99_14 C 0.18844(7) 0.34348(7) 0.89594(7)
C100_14 C 0.10406(7) 0.31156(7) 0.84348(7)
C101_13 C 0.31156(7) 0.65652(7) 0.60406(7)
C102_13 C 0.39594(7) 0.68844(7) 0.65652(7)
C103_13 C 0.33208(7) 0.64937(7) 0.62696(6)
C110_14 C 0.14937(7) 0.37304(6) 0.83208(7)
C111_14 C 0.16792(7) 0.35063(7) 0.87304(6)
C112_14 C 0.12696(6) 0.33208(7) 0.85063(7)
C113_13 C 0.37304(6) 0.66792(7) 0.64937(7)
C114_13 C 0.37175(6) 0.64649(7) 0.66914(7)
C121_14 C 0.16914(7) 0.37175(6) 0.85351(7)
C122_14 C 0.12825(6) 0.35351(7) 0.83086(7)
C123_14 C 0.14649(7) 0.33086(7) 0.87175(6)
C124_13 C 0.35351(7) 0.66914(7) 0.62825(6)
C131_14 C 0.16365(10) 0.38427(11) 0.78272(9)
C132_14 C 0.21728(9) 0.33635(10) 0.88427(11)
C133_14 C 0.11573(11) 0.28272(9) 0.83635(10)
C134_13 C 0.28272(9) 0.66365(10) 0.61573(11)
C135_13 C 0.38427(11) 0.71728(9) 0.66365(10)
H53_14 H 0.1710 0.3995 0.7712
H54_14 H 0.2288 0.3290 0.8995
H55_14 H 0.1005 0.2712 0.8290
H56_13 H 0.2712 0.6710 0.6005
H57_13 H 0.3995 0.7288 0.6710
H64_14 H 0.1464 0.3777 0.7739
H65_14 H 0.2261 0.3536 0.8777
H66_14 H 0.1223 0.2739 0.8536
H67_13 H 0.2739 0.6464 0.6223
H68_13 H 0.3777 0.7261 0.6464
C142_14 C 0.18434(14) 0.36093(12) 0.78265(11)
C143_14 C 0.21735(11) 0.31566(14) 0.86093(12)
C144_14 C 0.13907(12) 0.28265(11) 0.81566(14)
C145_13 C 0.28265(11) 0.68434(14) 0.63907(12)
C146_13 C 0.36093(12) 0.71735(11) 0.68434(14)
H75_14 H 0.1760 0.3445 0.7909
H76_14 H 0.2091 0.3240 0.8445
H77_14 H 0.1555 0.2909 0.8240
H78_13 H 0.2909 0.6760 0.6555
H79_13 H 0.3445 0.7091 0.6760
H86_14 H 0.1899 0.3569 0.7636
H87_14 H 0.2364 0.3101 0.8569
H88_14 H 0.1431 0.2636 0.8101
H89_13 H 0.2636 0.6899 0.6431
H90_13 H 0.3569 0.7364 0.6899
H97_14 H 0.2006 0.3663 0.7934
H98_14 H 0.2066 0.2994 0.8663
H99_14 H 0.1337 0.2934 0.7994
H100_13 H 0.2934 0.7006 0.6337
H101_13 H 0.3663 0.7066 0.7006
C153_14 C 0.13458(9) 0.42061(9) 0.81165(11)
C154_14 C 0.18835(11) 0.36542(9) 0.92061(9)
C155_14 C 0.07939(9) 0.31165(11) 0.86542(9)
C156_13 C 0.31165(11) 0.63458(9) 0.57939(9)
C157_13 C 0.42061(9) 0.68835(11) 0.63458(9)
H108_14 H 0.1170 0.4136 0.8039
H109_14 H 0.1961 0.3830 0.9136
H110_14 H 0.0864 0.3039 0.8830
H111_13 H 0.3039 0.6170 0.5864
H112_13 H 0.4136 0.6961 0.6170
H119_14 H 0.1413 0.4352 0.7990
H120_14 H 0.2010 0.3587 0.9352
H121_14 H 0.0648 0.2990 0.8587
H122_13 H 0.2990 0.6413 0.5648
H123_13 H 0.4352 0.7010 0.6413
C164_14 C 0.12854(13) 0.43364(13) 0.83922(13)
C165_14 C 0.16078(13) 0.37146(13) 0.93364(13)
C166_14 C 0.06636(13) 0.33922(13) 0.87146(13)
C167_13 C 0.33922(13) 0.62854(13) 0.56636(13)
C168_13 C 0.43364(13) 0.66078(13) 0.62854(13)
H130_14 H 0.1456 0.4413 0.8470
H131_14 H 0.1530 0.3544 0.9413
H132_14 H 0.0587 0.3470 0.8544
H133_13 H 0.3470 0.6456 0.5587
H134_13 H 0.4413 0.6530 0.6456
H141_14 H 0.1150 0.4485 0.8368
H142_14 H 0.1632 0.3850 0.9485
H143_14 H 0.0515 0.3368 0.8850
H144_13 H 0.3368 0.6150 0.5515
H145_13 H 0.4485 0.6632 0.6150
H152_14 H 0.1211 0.4197 0.8518
H153_14 H 0.1482 0.3789 0.9197
H154_14 H 0.0803 0.3518 0.8789
H155_13 H 0.3518 0.6211 0.5803
H156_13 H 0.4197 0.6482 0.6211
O15_8 O 0.17038(4) 0.53357(4) 0.23888(4)
O16_8 O 0.03357(4) 0.76112(4) 0.32962(4)
O30_8 O 0.20644(4) 0.52929(4) 0.26602(4)
O31_8 O 0.02929(4) 0.73398(4) 0.29356(4)
C18_8 C 0.23966(6) 0.68327(6) 0.45977(5)
C19_8 C 0.18327(6) 0.54023(5) 0.26034(6)
C20_8 C 0.04023(5) 0.73966(6) 0.31673(6)
C29_8 C 0.22132(6) 0.67168(6) 0.43774(6)
C30_8 C 0.17168(6) 0.56226(6) 0.27868(6)
C31_8 C 0.06226(6) 0.72132(6) 0.32832(6)
C40_8 C 0.19842(6) 0.68635(7) 0.42884(6)
C41_8 C 0.18635(7) 0.57116(6) 0.30158(6)
C42_8 C 0.07116(6) 0.69842(6) 0.31365(7)
H17_8 H 0.1937 0.7034 0.4372
H18_8 H 0.2034 0.5628 0.3063
H19_8 H 0.0628 0.6937 0.2966
C51_8 C 0.18253(6) 0.67576(7) 0.40752(6)
C52_8 C 0.17576(7) 0.59248(6) 0.31747(6)
C53_8 C 0.09248(6) 0.68253(6) 0.32424(7)
C62_8 C 0.18933(6) 0.65110(7) 0.39433(6)
C63_8 C 0.10567(6) 0.68933(6) 0.34890(7)
C64_8 C 0.15110(7) 0.60567(6) 0.31067(6)
C73_8 C 0.21193(7) 0.63615(7) 0.40397(7)
C74_8 C 0.09603(7) 0.71193(7) 0.36385(7)
C75_8 C 0.13615(7) 0.59603(7) 0.28807(7)
H28_8 H 0.2166 0.6190 0.3957
H29_8 H 0.1043 0.7166 0.3810
H30_8 H 0.1190 0.6043 0.2834
C84_8 C 0.22751(6) 0.64642(7) 0.42567(7)
C85_8 C 0.07433(7) 0.72751(6) 0.35358(7)
C86_8 C 0.14642(7) 0.57433(7) 0.27249(6)
H39_8 H 0.2427 0.6360 0.4324
H40_8 H 0.0676 0.7427 0.3640
H41_8 H 0.1360 0.5676 0.2573
C95_8 C 0.15652(7) 0.68844(7) 0.39594(7)
C96_8 C 0.18844(7) 0.60406(7) 0.34348(7)
C97_8 C 0.10406(7) 0.65652(7) 0.31156(7)
C107_8 C 0.14937(7) 0.66792(7) 0.37304(6)
C108_8 C 0.16792(7) 0.62696(6) 0.35063(7)
C109_8 C 0.12696(6) 0.64937(7) 0.33208(7)
C118_8 C 0.16914(7) 0.64649(7) 0.37175(6)
C119_8 C 0.12825(6) 0.66914(7) 0.35351(7)
C120_8 C 0.14649(7) 0.62825(6) 0.33086(7)
C128_8 C 0.16365(10) 0.71728(9) 0.38427(11)
C129_8 C 0.21728(9) 0.61573(11) 0.33635(10)
C130_8 C 0.11573(11) 0.66365(10) 0.28272(9)
H50_8 H 0.1710 0.7288 0.3995
H51_8 H 0.2288 0.6005 0.3290
H52_8 H 0.1005 0.6710 0.2712
H61_8 H 0.1464 0.7261 0.3777
H62_8 H 0.2261 0.6223 0.3536
H63_8 H 0.1223 0.6464 0.2739
C139_8 C 0.18434(14) 0.71735(11) 0.36093(12)
C140_8 C 0.21735(11) 0.63907(12) 0.31566(14)
C141_8 C 0.13907(12) 0.68434(14) 0.28265(11)
H72_8 H 0.1760 0.7091 0.3445
H73_8 H 0.2091 0.6555 0.3240
H74_8 H 0.1555 0.6760 0.2909
H83_8 H 0.1899 0.7364 0.3569
H84_8 H 0.2364 0.6431 0.3101
H85_8 H 0.1431 0.6899 0.2636
H94_8 H 0.2006 0.7066 0.3663
H95_8 H 0.2066 0.6337 0.2994
H96_8 H 0.1337 0.7006 0.2934
C150_8 C 0.13458(9) 0.68835(11) 0.42061(9)
C151_8 C 0.18835(11) 0.57939(9) 0.36542(9)
C152_8 C 0.07939(9) 0.63458(9) 0.31165(11)
H105_8 H 0.1170 0.6961 0.4136
H106_8 H 0.1961 0.5864 0.3830
H107_8 H 0.0864 0.6170 0.3039
H116_8 H 0.1413 0.7010 0.4352
H117_8 H 0.2010 0.5648 0.3587
H118_8 H 0.0648 0.6413 0.2990
C161_8 C 0.12854(13) 0.66078(13) 0.43364(13)
C162_8 C 0.16078(13) 0.56636(13) 0.37146(13)
C163_8 C 0.06636(13) 0.62854(13) 0.33922(13)
H127_8 H 0.1456 0.6530 0.4413
H128_8 H 0.1530 0.5587 0.3544
H129_8 H 0.0587 0.6456 0.3470
H138_8 H 0.1150 0.6632 0.4485
H139_8 H 0.1632 0.5515 0.3850
H140_8 H 0.0515 0.6150 0.3368
H149_8 H 0.1211 0.6482 0.4197
H150_8 H 0.1482 0.5803 0.3789
H151_8 H 0.0803 0.6211 0.3518
O4_18 O 0.7500 0.0000 0.7500
O5_18 O 0.67827(8) -0.0000 0.81742(7)
O8_5 O 0.82962(4) 0.03357(4) 0.73888(4)
O27_5 O 0.79356(4) 0.02929(4) 0.76602(4)
O36_18 O 0.82173(8) 0.0000 0.68258(7)
O37_18 O 0.81742(7) -0.0000 0.82173(8)
O38_18 O 0.68258(7) -0.0000 0.67827(8)
O4_19 O 0.7500 1.0000 0.7500
O5_19 O 0.67827(8) 1.0000 0.81742(7)
O7_14 O 0.82962(4) 0.96643(4) 0.73888(4)
O10_8 O 0.76112(4) 0.96643(4) 0.82962(4)
O15_9 O 0.67038(4) 0.73888(4) 0.96643(4)
O18_10 O 0.73888(4) 0.82962(4) 0.96643(4)
O23_8 O 0.73398(4) 0.97071(4) 0.79356(4)
O25_14 O 0.79356(4) 0.97071(4) 0.76602(4)
O30_9 O 0.70644(4) 0.76602(4) 0.97071(4)
O33_10 O 0.76602(4) 0.79356(4) 0.97071(4)
C18_9 C 0.73966(6) 0.95977(5) 0.81673(6)
C19_9 C 0.68327(6) 0.76034(6) 0.95977(5)
C20_9 C 0.54023(5) 0.81673(6) 0.76034(6)
C21_15 C 0.81673(6) 0.95977(5) 0.76034(6)
C22_15 C 0.95977(5) 0.76034(6) 0.81673(6)
C23_15 C 0.76034(6) 0.81673(6) 0.95977(5)
C29_9 C 0.72132(6) 0.93774(6) 0.82832(6)
C30_9 C 0.67168(6) 0.77868(6) 0.93774(6)
C31_9 C 0.56226(6) 0.82832(6) 0.77868(6)
C32_15 C 0.82832(6) 0.93774(6) 0.77868(6)
C33_15 C 0.93774(6) 0.77868(6) 0.82832(6)
C34_15 C 0.77868(6) 0.82832(6) 0.93774(6)
C40_9 C 0.69842(6) 0.92884(6) 0.81365(7)
C41_9 C 0.68635(7) 0.80158(6) 0.92884(6)
C42_9 C 0.57116(6) 0.81365(7) 0.80158(6)
C43_15 C 0.81365(7) 0.92884(6) 0.80158(6)
C44_15 C 0.92884(6) 0.80158(6) 0.81365(7)
C45_15 C 0.80158(6) 0.81365(7) 0.92884(6)
H17_9 H 0.6937 0.9372 0.7966
H18_9 H 0.7034 0.8063 0.9372
H19_9 H 0.5628 0.7966 0.8063
H20_15 H 0.7966 0.9372 0.8063
H21_15 H 0.9372 0.8063 0.7966
H22_15 H 0.8063 0.7966 0.9372
C51_9 C 0.68253(6) 0.90752(6) 0.82424(7)
C52_9 C 0.67576(7) 0.81747(6) 0.90752(6)
C53_9 C 0.59248(6) 0.82424(7) 0.81747(6)
C54_15 C 0.82424(7) 0.90752(6) 0.81747(6)
C55_15 C 0.90752(6) 0.81747(6) 0.82424(7)
C56_15 C 0.81747(6) 0.82424(7) 0.90752(6)
C62_9 C 0.68933(6) 0.89433(6) 0.84890(7)
C63_9 C 0.60567(6) 0.84890(7) 0.81067(6)
C64_9 C 0.65110(7) 0.81067(6) 0.89433(6)
C65_15 C 0.84890(7) 0.89433(6) 0.81067(6)
C66_15 C 0.81067(6) 0.84890(7) 0.89433(6)
C67_15 C 0.89433(6) 0.81067(6) 0.84890(7)
C73_9 C 0.71193(7) 0.90397(7) 0.86385(7)
C74_9 C 0.59603(7) 0.86385(7) 0.78807(7)
C75_9 C 0.63615(7) 0.78807(7) 0.90397(7)
C76_15 C 0.86385(7) 0.90397(7) 0.78807(7)
C77_15 C 0.78807(7) 0.86385(7) 0.90397(7)
C78_15 C 0.90397(7) 0.78807(7) 0.86385(7)
H28_9 H 0.7166 0.8957 0.8810
H29_9 H 0.6043 0.8810 0.7834
H30_9 H 0.6190 0.7834 0.8957
H31_15 H 0.8810 0.8957 0.7834
H32_15 H 0.7834 0.8810 0.8957
H33_15 H 0.8957 0.7834 0.8810
C84_9 C 0.72751(6) 0.92567(7) 0.85358(7)
C85_9 C 0.57433(7) 0.85358(7) 0.77249(6)
C86_9 C 0.64642(7) 0.77249(6) 0.92567(7)
C87_15 C 0.85358(7) 0.92567(7) 0.77249(6)
C88_15 C 0.77249(6) 0.85358(7) 0.92567(7)
C89_15 C 0.92567(7) 0.77249(6) 0.85358(7)
H39_9 H 0.7427 0.9324 0.8640
H40_9 H 0.5676 0.8640 0.7573
H41_9 H 0.6360 0.7573 0.9324
H42_15 H 0.8640 0.9324 0.7573
H43_15 H 0.7573 0.8640 0.9324
H44_15 H 0.9324 0.7573 0.8640
C95_9 C 0.65652(7) 0.89594(7) 0.81156(7)
C96_9 C 0.68844(7) 0.84348(7) 0.89594(7)
C97_9 C 0.60406(7) 0.81156(7) 0.84348(7)
C98_15 C 0.81156(7) 0.89594(7) 0.84348(7)
C99_15 C 0.89594(7) 0.84348(7) 0.81156(7)
C100_15 C 0.84348(7) 0.81156(7) 0.89594(7)
C107_9 C 0.64937(7) 0.87304(6) 0.83208(7)
C108_9 C 0.66792(7) 0.85063(7) 0.87304(6)
C109_9 C 0.62696(6) 0.83208(7) 0.85063(7)
C110_15 C 0.83208(7) 0.87304(6) 0.85063(7)
C111_15 C 0.87304(6) 0.85063(7) 0.83208(7)
C112_15 C 0.85063(7) 0.83208(7) 0.87304(6)
C118_9 C 0.66914(7) 0.87175(6) 0.85351(7)
C119_9 C 0.62825(6) 0.85351(7) 0.83086(7)
C120_9 C 0.64649(7) 0.83086(7) 0.87175(6)
C121_15 C 0.85351(7) 0.87175(6) 0.83086(7)
C122_15 C 0.83086(7) 0.85351(7) 0.87175(6)
C123_15 C 0.87175(6) 0.83086(7) 0.85351(7)
C128_9 C 0.66365(10) 0.88427(11) 0.78272(9)
C129_9 C 0.71728(9) 0.83635(10) 0.88427(11)
C130_9 C 0.61573(11) 0.78272(9) 0.83635(10)
C131_15 C 0.78272(9) 0.88427(11) 0.83635(10)
C132_15 C 0.88427(11) 0.83635(10) 0.78272(9)
C133_15 C 0.83635(10) 0.78272(9) 0.88427(11)
H50_9 H 0.6710 0.8995 0.7712
H51_9 H 0.7288 0.8290 0.8995
H52_9 H 0.6005 0.7712 0.8290
H53_15 H 0.7712 0.8995 0.8290
H54_15 H 0.8995 0.8290 0.7712
H55_15 H 0.8290 0.7712 0.8995
H61_9 H 0.6464 0.8777 0.7739
H62_9 H 0.7261 0.8536 0.8777
H63_9 H 0.6223 0.7739 0.8536
H64_15 H 0.7739 0.8777 0.8536
H65_15 H 0.8777 0.8536 0.7739
H66_15 H 0.8536 0.7739 0.8777
C139_9 C 0.68434(14) 0.86093(12) 0.78265(11)
C140_9 C 0.71735(11) 0.81566(14) 0.86093(12)
C141_9 C 0.63907(12) 0.78265(11) 0.81566(14)
C142_15 C 0.78265(11) 0.86093(12) 0.81566(14)
C143_15 C 0.86093(12) 0.81566(14) 0.78265(11)
C144_15 C 0.81566(14) 0.78265(11) 0.86093(12)
H72_9 H 0.6760 0.8445 0.7909
H73_9 H 0.7091 0.8240 0.8445
H74_9 H 0.6555 0.7909 0.8240
H75_15 H 0.7909 0.8445 0.8240
H76_15 H 0.8445 0.8240 0.7909
H77_15 H 0.8240 0.7909 0.8445
H83_9 H 0.6899 0.8569 0.7636
H84_9 H 0.7364 0.8101 0.8569
H85_9 H 0.6431 0.7636 0.8101
H86_15 H 0.7636 0.8569 0.8101
H87_15 H 0.8569 0.8101 0.7636
H88_15 H 0.8101 0.7636 0.8569
H94_9 H 0.7006 0.8663 0.7934
H95_9 H 0.7066 0.7994 0.8663
H96_9 H 0.6337 0.7934 0.7994
H97_15 H 0.7934 0.8663 0.7994
H98_15 H 0.8663 0.7994 0.7934
H99_15 H 0.7994 0.7934 0.8663
C150_9 C 0.63458(9) 0.92061(9) 0.81165(11)
C151_9 C 0.68835(11) 0.86542(9) 0.92061(9)
C152_9 C 0.57939(9) 0.81165(11) 0.86542(9)
C153_15 C 0.81165(11) 0.92061(9) 0.86542(9)
C154_15 C 0.92061(9) 0.86542(9) 0.81165(11)
C155_15 C 0.86542(9) 0.81165(11) 0.92061(9)
H105_9 H 0.6170 0.9136 0.8039
H106_9 H 0.6961 0.8830 0.9136
H107_9 H 0.5864 0.8039 0.8830
H108_15 H 0.8039 0.9136 0.8830
H109_15 H 0.9136 0.8830 0.8039
H110_15 H 0.8830 0.8039 0.9136
H116_9 H 0.6413 0.9352 0.7990
H117_9 H 0.7010 0.8587 0.9352
H118_9 H 0.5648 0.7990 0.8587
H119_15 H 0.7990 0.9352 0.8587
H120_15 H 0.9352 0.8587 0.7990
H121_15 H 0.8587 0.7990 0.9352
C161_9 C 0.62854(13) 0.93364(13) 0.83922(13)
C162_9 C 0.66078(13) 0.87146(13) 0.93364(13)
C163_9 C 0.56636(13) 0.83922(13) 0.87146(13)
C164_15 C 0.83922(13) 0.93364(13) 0.87146(13)
C165_15 C 0.93364(13) 0.87146(13) 0.83922(13)
C166_15 C 0.87146(13) 0.83922(13) 0.93364(13)
H127_9 H 0.6456 0.9413 0.8470
H128_9 H 0.6530 0.8544 0.9413
H129_9 H 0.5587 0.8470 0.8544
H130_15 H 0.8470 0.9413 0.8544
H131_15 H 0.9413 0.8544 0.8470
H132_15 H 0.8544 0.8470 0.9413
H138_9 H 0.6150 0.9485 0.8368
H139_9 H 0.6632 0.8850 0.9485
H140_9 H 0.5515 0.8368 0.8850
H141_15 H 0.8368 0.9485 0.8850
H142_15 H 0.9485 0.8850 0.8368
H143_15 H 0.8850 0.8368 0.9485
H149_9 H 0.6211 0.9197 0.8518
H150_9 H 0.6482 0.8789 0.9197
H151_9 H 0.5803 0.8518 0.8789
H152_15 H 0.8518 0.9197 0.8789
H153_15 H 0.9197 0.8789 0.8518
H154_15 H 0.8789 0.8518 0.9197
O36_19 O 0.82173(8) 1.0000 0.68258(7)
O37_19 O 0.81742(7) 1.0000 0.82173(8)
O38_19 O 0.68258(7) 1.0000 0.67827(8)
O4_20 O 0.7500 0.0000 0.2500
O5_20 O 0.67827(8) 0.0000 0.18258(7)
O10_9 O 0.76112(4) 0.03357(4) 0.17038(4)
O12_11 O 0.73888(4) 0.03357(4) 0.32962(4)
O15_10 O 0.67038(4) 0.26112(4) 0.03357(4)
O16_9 O 0.53357(4) 0.17038(4) 0.26112(4)
O23_9 O 0.73398(4) 0.02929(4) 0.20644(4)
O26_11 O 0.76602(4) 0.02929(4) 0.29356(4)
O30_10 O 0.70644(4) 0.23398(4) 0.02929(4)
O31_9 O 0.52929(4) 0.20644(4) 0.23398(4)
C18_10 C 0.73966(6) 0.04023(5) 0.18327(6)
C19_10 C 0.68327(6) 0.23966(6) 0.04023(5)
C20_10 C 0.54023(5) 0.18327(6) 0.23966(6)
C29_10 C 0.72132(6) 0.06226(6) 0.17168(6)
C30_10 C 0.67168(6) 0.22132(6) 0.06226(6)
C31_10 C 0.56226(6) 0.17168(6) 0.22132(6)
C40_10 C 0.69842(6) 0.07116(6) 0.18635(7)
C41_10 C 0.68635(7) 0.19842(6) 0.07116(6)
C42_10 C 0.57116(6) 0.18635(7) 0.19842(6)
H17_10 H 0.6937 0.0628 0.2034
H18_10 H 0.7034 0.1937 0.0628
H19_10 H 0.5628 0.2034 0.1937
C51_10 C 0.68253(6) 0.09248(6) 0.17576(7)
C52_10 C 0.67576(7) 0.18253(6) 0.09248(6)
C53_10 C 0.59248(6) 0.17576(7) 0.18253(6)
C62_10 C 0.68933(6) 0.10567(6) 0.15110(7)
C63_10 C 0.60567(6) 0.15110(7) 0.18933(6)
C64_10 C 0.65110(7) 0.18933(6) 0.10567(6)
C73_10 C 0.71193(7) 0.09603(7) 0.13615(7)
C74_10 C 0.59603(7) 0.13615(7) 0.21193(7)
C75_10 C 0.63615(7) 0.21193(7) 0.09603(7)
H28_10 H 0.7166 0.1043 0.1190
H29_10 H 0.6043 0.1190 0.2166
H30_10 H 0.6190 0.2166 0.1043
C84_10 C 0.72751(6) 0.07433(7) 0.14642(7)
C85_10 C 0.57433(7) 0.14642(7) 0.22751(6)
C86_10 C 0.64642(7) 0.22751(6) 0.07433(7)
H39_10 H 0.7427 0.0676 0.1360
H40_10 H 0.5676 0.1360 0.2427
H41_10 H 0.6360 0.2427 0.0676
C95_10 C 0.65652(7) 0.10406(7) 0.18844(7)
C96_10 C 0.68844(7) 0.15652(7) 0.10406(7)
C97_10 C 0.60406(7) 0.18844(7) 0.15652(7)
C107_10 C 0.64937(7) 0.12696(6) 0.16792(7)
C108_10 C 0.66792(7) 0.14937(7) 0.12696(6)
C109_10 C 0.62696(6) 0.16792(7) 0.14937(7)
C118_10 C 0.66914(7) 0.12825(6) 0.14649(7)
C119_10 C 0.62825(6) 0.14649(7) 0.16914(7)
C120_10 C 0.64649(7) 0.16914(7) 0.12825(6)
C128_10 C 0.66365(10) 0.11573(11) 0.21728(9)
C129_10 C 0.71728(9) 0.16365(10) 0.11573(11)
C130_10 C 0.61573(11) 0.21728(9) 0.16365(10)
H50_10 H 0.6710 0.1005 0.2288
H51_10 H 0.7288 0.1710 0.1005
H52_10 H 0.6005 0.2288 0.1710
H61_10 H 0.6464 0.1223 0.2261
H62_10 H 0.7261 0.1464 0.1223
H63_10 H 0.6223 0.2261 0.1464
C139_10 C 0.68434(14) 0.13907(12) 0.21735(11)
C140_10 C 0.71735(11) 0.18434(14) 0.13907(12)
C141_10 C 0.63907(12) 0.21735(11) 0.18434(14)
H72_10 H 0.6760 0.1555 0.2091
H73_10 H 0.7091 0.1760 0.1555
H74_10 H 0.6555 0.2091 0.1760
H83_10 H 0.6899 0.1431 0.2364
H84_10 H 0.7364 0.1899 0.1431
H85_10 H 0.6431 0.2364 0.1899
H94_10 H 0.7006 0.1337 0.2066
H95_10 H 0.7066 0.2006 0.1337
H96_10 H 0.6337 0.2066 0.2006
C150_10 C 0.63458(9) 0.07939(9) 0.18835(11)
C151_10 C 0.68835(11) 0.13458(9) 0.07939(9)
C152_10 C 0.57939(9) 0.18835(11) 0.13458(9)
H105_10 H 0.6170 0.0864 0.1961
H106_10 H 0.6961 0.1170 0.0864
H107_10 H 0.5864 0.1961 0.1170
H116_10 H 0.6413 0.0648 0.2010
H117_10 H 0.7010 0.1413 0.0648
H118_10 H 0.5648 0.2010 0.1413
C161_10 C 0.62854(13) 0.06636(13) 0.16078(13)
C162_10 C 0.66078(13) 0.12854(13) 0.06636(13)
C163_10 C 0.56636(13) 0.16078(13) 0.12854(13)
H127_10 H 0.6456 0.0587 0.1530
H128_10 H 0.6530 0.1456 0.0587
H129_10 H 0.5587 0.1530 0.1456
H138_10 H 0.6150 0.0515 0.1632
H139_10 H 0.6632 0.1150 0.0515
H140_10 H 0.5515 0.1632 0.1150
H149_10 H 0.6211 0.0803 0.1482
H150_10 H 0.6482 0.1211 0.0803
H151_10 H 0.5803 0.1482 0.1211
O36_20 O 0.82173(8) 0.0000 0.31742(7)
O37_20 O 0.81742(7) 0.0000 0.17827(8)
O38_20 O 0.68258(7) 0.0000 0.32173(8)
O4_21 O 0.7500 1.0000 0.2500
O5_21 O 0.67827(8) 1.0000 0.18258(7)
O8_6 O 0.82962(4) 0.96643(4) 0.26112(4)
O27_6 O 0.79356(4) 0.97071(4) 0.23398(4)
O36_21 O 0.82173(8) 1.0000 0.31742(7)
O37_21 O 0.81742(7) 1.0000 0.17827(8)
O38_21 O 0.68258(7) 1.0000 0.32173(8)
O15_11 O 0.32962(4) 0.73888(4) 0.03357(4)
O30_11 O 0.29356(4) 0.76602(4) 0.02929(4)
C18_11 C 0.26034(6) 0.95977(5) 0.18327(6)
C19_11 C 0.31673(6) 0.76034(6) 0.04023(5)
C20_11 C 0.45977(5) 0.81673(6) 0.23966(6)
C29_11 C 0.27868(6) 0.93774(6) 0.17168(6)
C30_11 C 0.32832(6) 0.77868(6) 0.06226(6)
C31_11 C 0.43774(6) 0.82832(6) 0.22132(6)
C40_11 C 0.30158(6) 0.92884(6) 0.18635(7)
C41_11 C 0.31365(7) 0.80158(6) 0.07116(6)
C42_11 C 0.42884(6) 0.81365(7) 0.19842(6)
H17_11 H 0.3063 0.9372 0.2034
H18_11 H 0.2966 0.8063 0.0628
H19_11 H 0.4372 0.7966 0.1937
C51_11 C 0.31747(6) 0.90752(6) 0.17576(7)
C52_11 C 0.32424(7) 0.81747(6) 0.09248(6)
C53_11 C 0.40752(6) 0.82424(7) 0.18253(6)
C62_11 C 0.31067(6) 0.89433(6) 0.15110(7)
C63_11 C 0.39433(6) 0.84890(7) 0.18933(6)
C64_11 C 0.34890(7) 0.81067(6) 0.10567(6)
C73_11 C 0.28807(7) 0.90397(7) 0.13615(7)
C74_11 C 0.40397(7) 0.86385(7) 0.21193(7)
C75_11 C 0.36385(7) 0.78807(7) 0.09603(7)
H28_11 H 0.2834 0.8957 0.1190
H29_11 H 0.3957 0.8810 0.2166
H30_11 H 0.3810 0.7834 0.1043
C84_11 C 0.27249(6) 0.92567(7) 0.14642(7)
C85_11 C 0.42567(7) 0.85358(7) 0.22751(6)
C86_11 C 0.35358(7) 0.77249(6) 0.07433(7)
H39_11 H 0.2573 0.9324 0.1360
H40_11 H 0.4324 0.8640 0.2427
H41_11 H 0.3640 0.7573 0.0676
C95_11 C 0.34348(7) 0.89594(7) 0.18844(7)
C96_11 C 0.31156(7) 0.84348(7) 0.10406(7)
C97_11 C 0.39594(7) 0.81156(7) 0.15652(7)
C107_11 C 0.35063(7) 0.87304(6) 0.16792(7)
C108_11 C 0.33208(7) 0.85063(7) 0.12696(6)
C109_11 C 0.37304(6) 0.83208(7) 0.14937(7)
C118_11 C 0.33086(7) 0.87175(6) 0.14649(7)
C119_11 C 0.37175(6) 0.85351(7) 0.16914(7)
C120_11 C 0.35351(7) 0.83086(7) 0.12825(6)
C128_11 C 0.33635(10) 0.88427(11) 0.21728(9)
C129_11 C 0.28272(9) 0.83635(10) 0.11573(11)
C130_11 C 0.38427(11) 0.78272(9) 0.16365(10)
H50_11 H 0.3290 0.8995 0.2288
H51_11 H 0.2712 0.8290 0.1005
H52_11 H 0.3995 0.7712 0.1710
H61_11 H 0.3536 0.8777 0.2261
H62_11 H 0.2739 0.8536 0.1223
H63_11 H 0.3777 0.7739 0.1464
C139_11 C 0.31566(14) 0.86093(12) 0.21735(11)
C140_11 C 0.28265(11) 0.81566(14) 0.13907(12)
C141_11 C 0.36093(12) 0.78265(11) 0.18434(14)
H72_11 H 0.3240 0.8445 0.2091
H73_11 H 0.2909 0.8240 0.1555
H74_11 H 0.3445 0.7909 0.1760
H83_11 H 0.3101 0.8569 0.2364
H84_11 H 0.2636 0.8101 0.1431
H85_11 H 0.3569 0.7636 0.1899
H94_11 H 0.2994 0.8663 0.2066
H95_11 H 0.2934 0.7994 0.1337
H96_11 H 0.3663 0.7934 0.2006
C150_11 C 0.36542(9) 0.92061(9) 0.18835(11)
C151_11 C 0.31165(11) 0.86542(9) 0.07939(9)
C152_11 C 0.42061(9) 0.81165(11) 0.13458(9)
H105_11 H 0.3830 0.9136 0.1961
H106_11 H 0.3039 0.8830 0.0864
H107_11 H 0.4136 0.8039 0.1170
H116_11 H 0.3587 0.9352 0.2010
H117_11 H 0.2990 0.8587 0.0648
H118_11 H 0.4352 0.7990 0.1413
C161_11 C 0.37146(13) 0.93364(13) 0.16078(13)
C162_11 C 0.33922(13) 0.87146(13) 0.06636(13)
C163_11 C 0.43364(13) 0.83922(13) 0.12854(13)
H127_11 H 0.3544 0.9413 0.1530
H128_11 H 0.3470 0.8544 0.0587
H129_11 H 0.4413 0.8470 0.1456
H138_11 H 0.3850 0.9485 0.1632
H139_11 H 0.3368 0.8850 0.0515
H140_11 H 0.4485 0.8368 0.1150
H149_11 H 0.3789 0.9197 0.1482
H150_11 H 0.3518 0.8789 0.0803
H151_11 H 0.4197 0.8518 0.1211
O17_11 O 0.23888(4) 0.17038(4) 0.53357(4)
O18_11 O 0.32962(4) 0.03357(4) 0.76112(4)
O32_11 O 0.26602(4) 0.20644(4) 0.52929(4)
O33_11 O 0.29356(4) 0.02929(4) 0.73398(4)
C15_14 C 0.54023(5) 0.31673(6) 0.73966(6)
C16_14 C 0.73966(6) 0.45977(5) 0.68327(6)
C17_14 C 0.68327(6) 0.26034(6) 0.54023(5)
C21_16 C 0.45977(5) 0.23966(6) 0.68327(6)
C22_16 C 0.26034(6) 0.18327(6) 0.54023(5)
C23_16 C 0.31673(6) 0.04023(5) 0.73966(6)
C26_14 C 0.56226(6) 0.32832(6) 0.72132(6)
C27_14 C 0.72132(6) 0.43774(6) 0.67168(6)
C28_14 C 0.67168(6) 0.27868(6) 0.56226(6)
C32_16 C 0.43774(6) 0.22132(6) 0.67168(6)
C33_16 C 0.27868(6) 0.17168(6) 0.56226(6)
C34_16 C 0.32832(6) 0.06226(6) 0.72132(6)
C37_14 C 0.57116(6) 0.31365(7) 0.69842(6)
C38_14 C 0.69842(6) 0.42884(6) 0.68635(7)
C39_14 C 0.68635(7) 0.30158(6) 0.57116(6)
C43_16 C 0.42884(6) 0.19842(6) 0.68635(7)
C44_16 C 0.30158(6) 0.18635(7) 0.57116(6)
C45_16 C 0.31365(7) 0.07116(6) 0.69842(6)
H14_14 H 0.5628 0.2966 0.6937
H15_14 H 0.6937 0.4372 0.7034
H16_14 H 0.7034 0.3063 0.5628
H20_16 H 0.4372 0.1937 0.7034
H21_16 H 0.3063 0.2034 0.5628
H22_16 H 0.2966 0.0628 0.6937
C48_14 C 0.59248(6) 0.32424(7) 0.68253(6)
C49_14 C 0.68253(6) 0.40752(6) 0.67576(7)
C50_14 C 0.67576(7) 0.31747(6) 0.59248(6)
C54_16 C 0.40752(6) 0.18253(6) 0.67576(7)
C55_16 C 0.31747(6) 0.17576(7) 0.59248(6)
C56_16 C 0.32424(7) 0.09248(6) 0.68253(6)
C59_14 C 0.60567(6) 0.34890(7) 0.68933(6)
C60_14 C 0.65110(7) 0.31067(6) 0.60567(6)
C61_14 C 0.68933(6) 0.39433(6) 0.65110(7)
C65_16 C 0.39433(6) 0.18933(6) 0.65110(7)
C66_16 C 0.34890(7) 0.10567(6) 0.68933(6)
C67_16 C 0.31067(6) 0.15110(7) 0.60567(6)
C70_14 C 0.59603(7) 0.36385(7) 0.71193(7)
C71_14 C 0.63615(7) 0.28807(7) 0.59603(7)
C72_14 C 0.71193(7) 0.40397(7) 0.63615(7)
C76_16 C 0.40397(7) 0.21193(7) 0.63615(7)
C77_16 C 0.36385(7) 0.09603(7) 0.71193(7)
C78_16 C 0.28807(7) 0.13615(7) 0.59603(7)
H25_14 H 0.6043 0.3810 0.7166
H26_14 H 0.6190 0.2834 0.6043
H27_14 H 0.7166 0.3957 0.6190
H31_16 H 0.3957 0.2166 0.6190
H32_16 H 0.3810 0.1043 0.7166
H33_16 H 0.2834 0.1190 0.6043
C81_14 C 0.57433(7) 0.35358(7) 0.72751(6)
C82_14 C 0.64642(7) 0.27249(6) 0.57433(7)
C83_14 C 0.72751(6) 0.42567(7) 0.64642(7)
C87_16 C 0.42567(7) 0.22751(6) 0.64642(7)
C88_16 C 0.35358(7) 0.07433(7) 0.72751(6)
C89_16 C 0.27249(6) 0.14642(7) 0.57433(7)
H36_14 H 0.5676 0.3640 0.7427
H37_14 H 0.6360 0.2573 0.5676
H38_14 H 0.7427 0.4324 0.6360
H42_16 H 0.4324 0.2427 0.6360
H43_16 H 0.3640 0.0676 0.7427
H44_16 H 0.2573 0.1360 0.5676
C92_14 C 0.60406(7) 0.31156(7) 0.65652(7)
C93_14 C 0.65652(7) 0.39594(7) 0.68844(7)
C94_14 C 0.68844(7) 0.34348(7) 0.60406(7)
C98_16 C 0.39594(7) 0.15652(7) 0.68844(7)
C99_16 C 0.34348(7) 0.18844(7) 0.60406(7)
C100_16 C 0.31156(7) 0.10406(7) 0.65652(7)
C104_14 C 0.62696(6) 0.33208(7) 0.64937(7)
C105_14 C 0.64937(7) 0.37304(6) 0.66792(7)
C106_14 C 0.66792(7) 0.35063(7) 0.62696(6)
C110_16 C 0.37304(6) 0.14937(7) 0.66792(7)
C111_16 C 0.35063(7) 0.16792(7) 0.62696(6)
C112_16 C 0.33208(7) 0.12696(6) 0.64937(7)
C115_14 C 0.62825(6) 0.35351(7) 0.66914(7)
C116_14 C 0.64649(7) 0.33086(7) 0.62825(6)
C117_14 C 0.66914(7) 0.37175(6) 0.64649(7)
C121_16 C 0.37175(6) 0.16914(7) 0.64649(7)
C122_16 C 0.35351(7) 0.12825(6) 0.66914(7)
C123_16 C 0.33086(7) 0.14649(7) 0.62825(6)
C125_14 C 0.61573(11) 0.28272(9) 0.66365(10)
C126_14 C 0.66365(10) 0.38427(11) 0.71728(9)
C127_14 C 0.71728(9) 0.33635(10) 0.61573(11)
C131_16 C 0.38427(11) 0.16365(10) 0.71728(9)
C132_16 C 0.33635(10) 0.21728(9) 0.61573(11)
C133_16 C 0.28272(9) 0.11573(11) 0.66365(10)
H47_14 H 0.6005 0.2712 0.6710
H48_14 H 0.6710 0.3995 0.7288
H49_14 H 0.7288 0.3290 0.6005
H53_16 H 0.3995 0.1710 0.7288
H54_16 H 0.3290 0.2288 0.6005
H55_16 H 0.2712 0.1005 0.6710
H58_14 H 0.6223 0.2739 0.6464
H59_14 H 0.6464 0.3777 0.7261
H60_14 H 0.7261 0.3536 0.6223
H64_16 H 0.3777 0.1464 0.7261
H65_16 H 0.3536 0.2261 0.6223
H66_16 H 0.2739 0.1223 0.6464
C136_14 C 0.63907(12) 0.28265(11) 0.68434(14)
C137_14 C 0.68434(14) 0.36093(12) 0.71735(11)
C138_14 C 0.71735(11) 0.31566(14) 0.63907(12)
C142_16 C 0.36093(12) 0.18434(14) 0.71735(11)
C143_16 C 0.31566(14) 0.21735(11) 0.63907(12)
C144_16 C 0.28265(11) 0.13907(12) 0.68434(14)
H69_14 H 0.6555 0.2909 0.6760
H70_14 H 0.6760 0.3445 0.7091
H71_14 H 0.7091 0.3240 0.6555
H75_16 H 0.3445 0.1760 0.7091
H76_16 H 0.3240 0.2091 0.6555
H77_16 H 0.2909 0.1555 0.6760
H80_14 H 0.6431 0.2636 0.6899
H81_14 H 0.6899 0.3569 0.7364
H82_14 H 0.7364 0.3101 0.6431
H86_16 H 0.3569 0.1899 0.7364
H87_16 H 0.3101 0.2364 0.6431
H88_16 H 0.2636 0.1431 0.6899
H91_14 H 0.6337 0.2934 0.7006
H92_14 H 0.7006 0.3663 0.7066
H93_14 H 0.7066 0.2994 0.6337
H97_16 H 0.3663 0.2006 0.7066
H98_16 H 0.2994 0.2066 0.6337
H99_16 H 0.2934 0.1337 0.7006
C147_14 C 0.57939(9) 0.31165(11) 0.63458(9)
C148_14 C 0.63458(9) 0.42061(9) 0.68835(11)
C149_14 C 0.68835(11) 0.36542(9) 0.57939(9)
C153_16 C 0.42061(9) 0.13458(9) 0.68835(11)
C154_16 C 0.36542(9) 0.18835(11) 0.57939(9)
C155_16 C 0.31165(11) 0.07939(9) 0.63458(9)
H102_14 H 0.5864 0.3039 0.6170
H103_14 H 0.6170 0.4136 0.6961
H104_14 H 0.6961 0.3830 0.5864
H108_16 H 0.4136 0.1170 0.6961
H109_16 H 0.3830 0.1961 0.5864
H110_16 H 0.3039 0.0864 0.6170
H113_14 H 0.5648 0.2990 0.6413
H114_14 H 0.6413 0.4352 0.7010
H115_14 H 0.7010 0.3587 0.5648
H119_16 H 0.4352 0.1413 0.7010
H120_16 H 0.3587 0.2010 0.5648
H121_16 H 0.2990 0.0648 0.6413
C158_14 C 0.56636(13) 0.33922(13) 0.62854(13)
C159_14 C 0.62854(13) 0.43364(13) 0.66078(13)
C160_14 C 0.66078(13) 0.37146(13) 0.56636(13)
C164_16 C 0.43364(13) 0.12854(13) 0.66078(13)
C165_16 C 0.37146(13) 0.16078(13) 0.56636(13)
C166_16 C 0.33922(13) 0.06636(13) 0.62854(13)
H124_14 H 0.5587 0.3470 0.6456
H125_14 H 0.6456 0.4413 0.6530
H126_14 H 0.6530 0.3544 0.5587
H130_16 H 0.4413 0.1456 0.6530
H131_16 H 0.3544 0.1530 0.5587
H132_16 H 0.3470 0.0587 0.6456
H135_14 H 0.5515 0.3368 0.6150
H136_14 H 0.6150 0.4485 0.6632
H137_14 H 0.6632 0.3850 0.5515
H141_16 H 0.4485 0.1150 0.6632
H142_16 H 0.3850 0.1632 0.5515
H143_16 H 0.3368 0.0515 0.6150
H146_14 H 0.5803 0.3518 0.6211
H147_14 H 0.6211 0.4197 0.6482
H148_14 H 0.6482 0.3789 0.5803
H152_16 H 0.4197 0.1211 0.6482
H153_16 H 0.3789 0.1482 0.5803
H154_16 H 0.3518 0.0803 0.6211
O4_22 O 0.5000 0.2500 0.2500
O5_22 O 0.5000 0.18258(7) 0.17827(8)
O6_12 O 0.53357(4) 0.23888(4) 0.17038(4)
O11_14 O 0.46643(4) 0.32962(4) 0.23888(4)
O13_14 O 0.23888(4) 0.46643(4) 0.32962(4)
O14_14 O 0.32962(4) 0.23888(4) 0.46643(4)
O22_12 O 0.52929(4) 0.26602(4) 0.20644(4)
O24_14 O 0.47071(4) 0.29356(4) 0.26602(4)
O28_14 O 0.26602(4) 0.47071(4) 0.29356(4)
O29_14 O 0.29356(4) 0.26602(4) 0.47071(4)
C15_15 C 0.45977(5) 0.31673(6) 0.26034(6)
C16_15 C 0.26034(6) 0.45977(5) 0.31673(6)
C17_15 C 0.31673(6) 0.26034(6) 0.45977(5)
C26_15 C 0.43774(6) 0.32832(6) 0.27868(6)
C27_15 C 0.27868(6) 0.43774(6) 0.32832(6)
C28_15 C 0.32832(6) 0.27868(6) 0.43774(6)
C37_15 C 0.42884(6) 0.31365(7) 0.30158(6)
C38_15 C 0.30158(6) 0.42884(6) 0.31365(7)
C39_15 C 0.31365(7) 0.30158(6) 0.42884(6)
H14_15 H 0.4372 0.2966 0.3063
H15_15 H 0.3063 0.4372 0.2966
H16_15 H 0.2966 0.3063 0.4372
C48_15 C 0.40752(6) 0.32424(7) 0.31747(6)
C49_15 C 0.31747(6) 0.40752(6) 0.32424(7)
C50_15 C 0.32424(7) 0.31747(6) 0.40752(6)
C59_15 C 0.39433(6) 0.34890(7) 0.31067(6)
C60_15 C 0.34890(7) 0.31067(6) 0.39433(6)
C61_15 C 0.31067(6) 0.39433(6) 0.34890(7)
C70_15 C 0.40397(7) 0.36385(7) 0.28807(7)
C71_15 C 0.36385(7) 0.28807(7) 0.40397(7)
C72_15 C 0.28807(7) 0.40397(7) 0.36385(7)
H25_15 H 0.3957 0.3810 0.2834
H26_15 H 0.3810 0.2834 0.3957
H27_15 H 0.2834 0.3957 0.3810
C81_15 C 0.42567(7) 0.35358(7) 0.27249(6)
C82_15 C 0.35358(7) 0.27249(6) 0.42567(7)
C83_15 C 0.27249(6) 0.42567(7) 0.35358(7)
H36_15 H 0.4324 0.3640 0.2573
H37_15 H 0.3640 0.2573 0.4324
H38_15 H 0.2573 0.4324 0.3640
C92_15 C 0.39594(7) 0.31156(7) 0.34348(7)
C93_15 C 0.34348(7) 0.39594(7) 0.31156(7)
C94_15 C 0.31156(7) 0.34348(7) 0.39594(7)
C104_15 C 0.37304(6) 0.33208(7) 0.35063(7)
C105_15 C 0.35063(7) 0.37304(6) 0.33208(7)
C106_15 C 0.33208(7) 0.35063(7) 0.37304(6)
C115_15 C 0.37175(6) 0.35351(7) 0.33086(7)
C116_15 C 0.35351(7) 0.33086(7) 0.37175(6)
C117_15 C 0.33086(7) 0.37175(6) 0.35351(7)
C125_15 C 0.38427(11) 0.28272(9) 0.33635(10)
C126_15 C 0.33635(10) 0.38427(11) 0.28272(9)
C127_15 C 0.28272(9) 0.33635(10) 0.38427(11)
H47_15 H 0.3995 0.2712 0.3290
H48_15 H 0.3290 0.3995 0.2712
H49_15 H 0.2712 0.3290 0.3995
H58_15 H 0.3777 0.2739 0.3536
H59_15 H 0.3536 0.3777 0.2739
H60_15 H 0.2739 0.3536 0.3777
C136_15 C 0.36093(12) 0.28265(11) 0.31566(14)
C137_15 C 0.31566(14) 0.36093(12) 0.28265(11)
C138_15 C 0.28265(11) 0.31566(14) 0.36093(12)
H69_15 H 0.3445 0.2909 0.3240
H70_15 H 0.3240 0.3445 0.2909
H71_15 H 0.2909 0.3240 0.3445
H80_15 H 0.3569 0.2636 0.3101
H81_15 H 0.3101 0.3569 0.2636
H82_15 H 0.2636 0.3101 0.3569
H91_15 H 0.3663 0.2934 0.2994
H92_15 H 0.2994 0.3663 0.2934
H93_15 H 0.2934 0.2994 0.3663
C147_15 C 0.42061(9) 0.31165(11) 0.36542(9)
C148_15 C 0.36542(9) 0.42061(9) 0.31165(11)
C149_15 C 0.31165(11) 0.36542(9) 0.42061(9)
H102_15 H 0.4136 0.3039 0.3830
H103_15 H 0.3830 0.4136 0.3039
H104_15 H 0.3039 0.3830 0.4136
H113_15 H 0.4352 0.2990 0.3587
H114_15 H 0.3587 0.4352 0.2990
H115_15 H 0.2990 0.3587 0.4352
C158_15 C 0.43364(13) 0.33922(13) 0.37146(13)
C159_15 C 0.37146(13) 0.43364(13) 0.33922(13)
C160_15 C 0.33922(13) 0.37146(13) 0.43364(13)
H124_15 H 0.4413 0.3470 0.3544
H125_15 H 0.3544 0.4413 0.3470
H126_15 H 0.3470 0.3544 0.4413
H135_15 H 0.4485 0.3368 0.3850
H136_15 H 0.3850 0.4485 0.3368
H137_15 H 0.3368 0.3850 0.4485
H146_15 H 0.4197 0.3518 0.3789
H147_15 H 0.3789 0.4197 0.3518
H148_15 H 0.3518 0.3789 0.4197
O36_22 O 0.5000 0.31742(7) 0.32173(8)
O37_22 O 0.5000 0.17827(8) 0.31742(7)
O38_22 O 0.5000 0.32173(8) 0.18258(7)
C15_16 C 0.54023(5) 0.68327(6) 0.26034(6)
C16_16 C 0.73966(6) 0.54023(5) 0.31673(6)
C17_16 C 0.68327(6) 0.73966(6) 0.45977(5)
C26_16 C 0.56226(6) 0.67168(6) 0.27868(6)
C27_16 C 0.72132(6) 0.56226(6) 0.32832(6)
C28_16 C 0.67168(6) 0.72132(6) 0.43774(6)
C37_16 C 0.57116(6) 0.68635(7) 0.30158(6)
C38_16 C 0.69842(6) 0.57116(6) 0.31365(7)
C39_16 C 0.68635(7) 0.69842(6) 0.42884(6)
H14_16 H 0.5628 0.7034 0.3063
H15_16 H 0.6937 0.5628 0.2966
H16_16 H 0.7034 0.6937 0.4372
C48_16 C 0.59248(6) 0.67576(7) 0.31747(6)
C49_16 C 0.68253(6) 0.59248(6) 0.32424(7)
C50_16 C 0.67576(7) 0.68253(6) 0.40752(6)
C59_16 C 0.60567(6) 0.65110(7) 0.31067(6)
C60_16 C 0.65110(7) 0.68933(6) 0.39433(6)
C61_16 C 0.68933(6) 0.60567(6) 0.34890(7)
C70_16 C 0.59603(7) 0.63615(7) 0.28807(7)
C71_16 C 0.63615(7) 0.71193(7) 0.40397(7)
C72_16 C 0.71193(7) 0.59603(7) 0.36385(7)
H25_16 H 0.6043 0.6190 0.2834
H26_16 H 0.6190 0.7166 0.3957
H27_16 H 0.7166 0.6043 0.3810
C81_16 C 0.57433(7) 0.64642(7) 0.27249(6)
C82_16 C 0.64642(7) 0.72751(6) 0.42567(7)
C83_16 C 0.72751(6) 0.57433(7) 0.35358(7)
H36_16 H 0.5676 0.6360 0.2573
H37_16 H 0.6360 0.7427 0.4324
H38_16 H 0.7427 0.5676 0.3640
C92_16 C 0.60406(7) 0.68844(7) 0.34348(7)
C93_16 C 0.65652(7) 0.60406(7) 0.31156(7)
C94_16 C 0.68844(7) 0.65652(7) 0.39594(7)
C104_16 C 0.62696(6) 0.66792(7) 0.35063(7)
C105_16 C 0.64937(7) 0.62696(6) 0.33208(7)
C106_16 C 0.66792(7) 0.64937(7) 0.37304(6)
C115_16 C 0.62825(6) 0.64649(7) 0.33086(7)
C116_16 C 0.64649(7) 0.66914(7) 0.37175(6)
C117_16 C 0.66914(7) 0.62825(6) 0.35351(7)
C125_16 C 0.61573(11) 0.71728(9) 0.33635(10)
C126_16 C 0.66365(10) 0.61573(11) 0.28272(9)
C127_16 C 0.71728(9) 0.66365(10) 0.38427(11)
H47_16 H 0.6005 0.7288 0.3290
H48_16 H 0.6710 0.6005 0.2712
H49_16 H 0.7288 0.6710 0.3995
H58_16 H 0.6223 0.7261 0.3536
H59_16 H 0.6464 0.6223 0.2739
H60_16 H 0.7261 0.6464 0.3777
C136_16 C 0.63907(12) 0.71735(11) 0.31566(14)
C137_16 C 0.68434(14) 0.63907(12) 0.28265(11)
C138_16 C 0.71735(11) 0.68434(14) 0.36093(12)
H69_16 H 0.6555 0.7091 0.3240
H70_16 H 0.6760 0.6555 0.2909
H71_16 H 0.7091 0.6760 0.3445
H80_16 H 0.6431 0.7364 0.3101
H81_16 H 0.6899 0.6431 0.2636
H82_16 H 0.7364 0.6899 0.3569
H91_16 H 0.6337 0.7066 0.2994
H92_16 H 0.7006 0.6337 0.2934
H93_16 H 0.7066 0.7006 0.3663
C147_16 C 0.57939(9) 0.68835(11) 0.36542(9)
C148_16 C 0.63458(9) 0.57939(9) 0.31165(11)
C149_16 C 0.68835(11) 0.63458(9) 0.42061(9)
H102_16 H 0.5864 0.6961 0.3830
H103_16 H 0.6170 0.5864 0.3039
H104_16 H 0.6961 0.6170 0.4136
H113_16 H 0.5648 0.7010 0.3587
H114_16 H 0.6413 0.5648 0.2990
H115_16 H 0.7010 0.6413 0.4352
C158_16 C 0.56636(13) 0.66078(13) 0.37146(13)
C159_16 C 0.62854(13) 0.56636(13) 0.33922(13)
C160_16 C 0.66078(13) 0.62854(13) 0.43364(13)
H124_16 H 0.5587 0.6530 0.3544
H125_16 H 0.6456 0.5587 0.3470
H126_16 H 0.6530 0.6456 0.4413
H135_16 H 0.5515 0.6632 0.3850
H136_16 H 0.6150 0.5515 0.3368
H137_16 H 0.6632 0.6150 0.4485
H146_16 H 0.5803 0.6482 0.3789
H147_16 H 0.6211 0.5803 0.3518
H148_16 H 0.6482 0.6211 0.4197
O4_23 O 0.7500 0.2500 0.0000
O5_23 O 0.68258(7) 0.17827(8) 0.0000
O7_15 O 0.76112(4) 0.32962(4) 0.03357(4)
O25_15 O 0.73398(4) 0.29356(4) 0.02929(4)
C21_17 C 0.73966(6) 0.31673(6) 0.04023(5)
C22_17 C 0.68327(6) 0.45977(5) 0.23966(6)
C23_17 C 0.54023(5) 0.26034(6) 0.18327(6)
C32_17 C 0.72132(6) 0.32832(6) 0.06226(6)
C33_17 C 0.67168(6) 0.43774(6) 0.22132(6)
C34_17 C 0.56226(6) 0.27868(6) 0.17168(6)
C43_17 C 0.69842(6) 0.31365(7) 0.07116(6)
C44_17 C 0.68635(7) 0.42884(6) 0.19842(6)
C45_17 C 0.57116(6) 0.30158(6) 0.18635(7)
H20_17 H 0.6937 0.2966 0.0628
H21_17 H 0.7034 0.4372 0.1937
H22_17 H 0.5628 0.3063 0.2034
C54_17 C 0.68253(6) 0.32424(7) 0.09248(6)
C55_17 C 0.67576(7) 0.40752(6) 0.18253(6)
C56_17 C 0.59248(6) 0.31747(6) 0.17576(7)
C65_17 C 0.68933(6) 0.34890(7) 0.10567(6)
C66_17 C 0.60567(6) 0.31067(6) 0.15110(7)
C67_17 C 0.65110(7) 0.39433(6) 0.18933(6)
C76_17 C 0.71193(7) 0.36385(7) 0.09603(7)
C77_17 C 0.59603(7) 0.28807(7) 0.13615(7)
C78_17 C 0.63615(7) 0.40397(7) 0.21193(7)
H31_17 H 0.7166 0.3810 0.1043
H32_17 H 0.6043 0.2834 0.1190
H33_17 H 0.6190 0.3957 0.2166
C87_17 C 0.72751(6) 0.35358(7) 0.07433(7)
C88_17 C 0.57433(7) 0.27249(6) 0.14642(7)
C89_17 C 0.64642(7) 0.42567(7) 0.22751(6)
H42_17 H 0.7427 0.3640 0.0676
H43_17 H 0.5676 0.2573 0.1360
H44_17 H 0.6360 0.4324 0.2427
C98_17 C 0.65652(7) 0.31156(7) 0.10406(7)
C99_17 C 0.68844(7) 0.39594(7) 0.15652(7)
C100_17 C 0.60406(7) 0.34348(7) 0.18844(7)
C110_17 C 0.64937(7) 0.33208(7) 0.12696(6)
C111_17 C 0.66792(7) 0.37304(6) 0.14937(7)
C112_17 C 0.62696(6) 0.35063(7) 0.16792(7)
C121_17 C 0.66914(7) 0.35351(7) 0.12825(6)
C122_17 C 0.62825(6) 0.33086(7) 0.14649(7)
C123_17 C 0.64649(7) 0.37175(6) 0.16914(7)
C131_17 C 0.66365(10) 0.28272(9) 0.11573(11)
C132_17 C 0.71728(9) 0.38427(11) 0.16365(10)
C133_17 C 0.61573(11) 0.33635(10) 0.21728(9)
H53_17 H 0.6710 0.2712 0.1005
H54_17 H 0.7288 0.3995 0.1710
H55_17 H 0.6005 0.3290 0.2288
H64_17 H 0.6464 0.2739 0.1223
H65_17 H 0.7261 0.3777 0.1464
H66_17 H 0.6223 0.3536 0.2261
C142_17 C 0.68434(14) 0.28265(11) 0.13907(12)
C143_17 C 0.71735(11) 0.36093(12) 0.18434(14)
C144_17 C 0.63907(12) 0.31566(14) 0.21735(11)
H75_17 H 0.6760 0.2909 0.1555
H76_17 H 0.7091 0.3445 0.1760
H77_17 H 0.6555 0.3240 0.2091
H86_17 H 0.6899 0.2636 0.1431
H87_17 H 0.7364 0.3569 0.1899
H88_17 H 0.6431 0.3101 0.2364
H97_17 H 0.7006 0.2934 0.1337
H98_17 H 0.7066 0.3663 0.2006
H99_17 H 0.6337 0.2994 0.2066
C153_17 C 0.63458(9) 0.31165(11) 0.07939(9)
C154_17 C 0.68835(11) 0.42061(9) 0.13458(9)
C155_17 C 0.57939(9) 0.36542(9) 0.18835(11)
H108_17 H 0.6170 0.3039 0.0864
H109_17 H 0.6961 0.4136 0.1170
H110_17 H 0.5864 0.3830 0.1961
H119_17 H 0.6413 0.2990 0.0648
H120_17 H 0.7010 0.4352 0.1413
H121_17 H 0.5648 0.3587 0.2010
C164_17 C 0.62854(13) 0.33922(13) 0.06636(13)
C165_17 C 0.66078(13) 0.43364(13) 0.12854(13)
C166_17 C 0.56636(13) 0.37146(13) 0.16078(13)
H130_17 H 0.6456 0.3470 0.0587
H131_17 H 0.6530 0.4413 0.1456
H132_17 H 0.5587 0.3544 0.1530
H141_17 H 0.6150 0.3368 0.0515
H142_17 H 0.6632 0.4485 0.1150
H143_17 H 0.5515 0.3850 0.1632
H152_17 H 0.6211 0.3518 0.0803
H153_17 H 0.6482 0.4197 0.1211
H154_17 H 0.5803 0.3789 0.1482
O36_23 O 0.81742(7) 0.32173(8) 0.0000
O37_23 O 0.67827(8) 0.31742(7) 0.0000
O38_23 O 0.82173(8) 0.18258(7) 0.0000
O2_13 O 0.73888(4) 0.17038(4) 0.96643(4)
O3_13 O 0.76602(4) 0.20644(4) 0.97071(4)
O4_24 O 0.7500 0.2500 1.0000
C1_14 C 0.76034(6) 0.18327(6) 0.95977(5)
C2_14 C 0.77868(6) 0.17168(6) 0.93774(6)
C3_14 C 0.80158(6) 0.18635(7) 0.92884(6)
H1_14 H 0.8063 0.2034 0.9372
C4_14 C 0.81747(6) 0.17576(7) 0.90752(6)
C5_14 C 0.81067(6) 0.15110(7) 0.89433(6)
C6_14 C 0.78807(7) 0.13615(7) 0.90397(7)
H2_14 H 0.7834 0.1190 0.8957
C7_14 C 0.77249(6) 0.14642(7) 0.92567(7)
H3_14 H 0.7573 0.1360 0.9324
C8_14 C 0.84348(7) 0.18844(7) 0.89594(7)
C9_14 C 0.85063(7) 0.16792(7) 0.87304(6)
C10_14 C 0.83086(7) 0.14649(7) 0.87175(6)
C11_14 C 0.83635(10) 0.21728(9) 0.88427(11)
H4_14 H 0.8290 0.2288 0.8995
H5_14 H 0.8536 0.2261 0.8777
C12_14 C 0.81566(14) 0.21735(11) 0.86093(12)
H6_14 H 0.8240 0.2091 0.8445
H7_14 H 0.8101 0.2364 0.8569
H8_14 H 0.7994 0.2066 0.8663
C13_14 C 0.86542(9) 0.18835(11) 0.92061(9)
H9_14 H 0.8830 0.1961 0.9136
H10_14 H 0.8587 0.2010 0.9352
C14_14 C 0.87146(13) 0.16078(13) 0.93364(13)
H11_14 H 0.8544 0.1530 0.9413
H12_14 H 0.8850 0.1632 0.9485
H13_14 H 0.8789 0.1482 0.9197
O5_24 O 0.68258(7) 0.17827(8) 1.0000
O19_13 O 0.96643(4) 0.26112(4) 0.82962(4)
O34_13 O 0.97071(4) 0.23398(4) 0.79356(4)
C24_14 C 0.95977(5) 0.23966(6) 0.81673(6)
C25_14 C 0.81673(6) 0.04023(5) 0.76034(6)
C35_14 C 0.93774(6) 0.22132(6) 0.82832(6)
C36_14 C 0.82832(6) 0.06226(6) 0.77868(6)
C46_14 C 0.92884(6) 0.19842(6) 0.81365(7)
C47_14 C 0.81365(7) 0.07116(6) 0.80158(6)
H23_14 H 0.9372 0.1937 0.7966
H24_14 H 0.7966 0.0628 0.8063
C57_14 C 0.90752(6) 0.18253(6) 0.82424(7)
C58_14 C 0.82424(7) 0.09248(6) 0.81747(6)
C68_14 C 0.89433(6) 0.18933(6) 0.84890(7)
C69_14 C 0.84890(7) 0.10567(6) 0.81067(6)
C79_14 C 0.90397(7) 0.21193(7) 0.86385(7)
C80_14 C 0.86385(7) 0.09603(7) 0.78807(7)
H34_14 H 0.8957 0.2166 0.8810
H35_14 H 0.8810 0.1043 0.7834
C90_14 C 0.92567(7) 0.22751(6) 0.85358(7)
C91_14 C 0.85358(7) 0.07433(7) 0.77249(6)
H45_14 H 0.9324 0.2427 0.8640
H46_14 H 0.8640 0.0676 0.7573
C101_14 C 0.81156(7) 0.10406(7) 0.84348(7)
C102_14 C 0.89594(7) 0.15652(7) 0.81156(7)
C103_14 C 0.83208(7) 0.12696(6) 0.85063(7)
C113_14 C 0.87304(6) 0.14937(7) 0.83208(7)
C114_14 C 0.87175(6) 0.16914(7) 0.85351(7)
C124_14 C 0.85351(7) 0.12825(6) 0.83086(7)
C134_14 C 0.78272(9) 0.11573(11) 0.83635(10)
C135_14 C 0.88427(11) 0.16365(10) 0.78272(9)
H56_14 H 0.7712 0.1005 0.8290
H57_14 H 0.8995 0.1710 0.7712
H67_14 H 0.7739 0.1223 0.8536
H68_14 H 0.8777 0.1464 0.7739
C145_14 C 0.78265(11) 0.13907(12) 0.81566(14)
C146_14 C 0.86093(12) 0.18434(14) 0.78265(11)
H78_14 H 0.7909 0.1555 0.8240
H79_14 H 0.8445 0.1760 0.7909
H89_14 H 0.7636 0.1431 0.8101
H90_14 H 0.8569 0.1899 0.7636
H100_14 H 0.7934 0.1337 0.7994
H101_14 H 0.8663 0.2006 0.7934
C156_14 C 0.81165(11) 0.07939(9) 0.86542(9)
C157_14 C 0.92061(9) 0.13458(9) 0.81165(11)
H111_14 H 0.8039 0.0864 0.8830
H112_14 H 0.9136 0.1170 0.8039
H122_14 H 0.7990 0.0648 0.8587
H123_14 H 0.9352 0.1413 0.7990
C167_14 C 0.83922(13) 0.06636(13) 0.87146(13)
C168_14 C 0.93364(13) 0.12854(13) 0.83922(13)
H133_14 H 0.8470 0.0587 0.8544
H134_14 H 0.9413 0.1456 0.8470
H144_14 H 0.8368 0.0515 0.8850
H145_14 H 0.9485 0.1150 0.8368
H155_14 H 0.8518 0.0803 0.8789
H156_14 H 0.9197 0.1211 0.8518
O36_24 O 0.81742(7) 0.32173(8) 1.0000
O37_24 O 0.67827(8) 0.31742(7) 1.0000
O38_24 O 0.82173(8) 0.18258(7) 1.0000
O2_14 O 0.73888(4) 0.82962(4) 0.03357(4)
O3_14 O 0.76602(4) 0.79356(4) 0.02929(4)
O4_25 O 0.7500 0.7500 0.0000
C1_15 C 0.76034(6) 0.81673(6) 0.04023(5)
C2_15 C 0.77868(6) 0.82832(6) 0.06226(6)
C3_15 C 0.80158(6) 0.81365(7) 0.07116(6)
H1_15 H 0.8063 0.7966 0.0628
C4_15 C 0.81747(6) 0.82424(7) 0.09248(6)
C5_15 C 0.81067(6) 0.84890(7) 0.10567(6)
C6_15 C 0.78807(7) 0.86385(7) 0.09603(7)
H2_15 H 0.7834 0.8810 0.1043
C7_15 C 0.77249(6) 0.85358(7) 0.07433(7)
H3_15 H 0.7573 0.8640 0.0676
C8_15 C 0.84348(7) 0.81156(7) 0.10406(7)
C9_15 C 0.85063(7) 0.83208(7) 0.12696(6)
C10_15 C 0.83086(7) 0.85351(7) 0.12825(6)
C11_15 C 0.83635(10) 0.78272(9) 0.11573(11)
H4_15 H 0.8290 0.7712 0.1005
H5_15 H 0.8536 0.7739 0.1223
C12_15 C 0.81566(14) 0.78265(11) 0.13907(12)
H6_15 H 0.8240 0.7909 0.1555
H7_15 H 0.8101 0.7636 0.1431
H8_15 H 0.7994 0.7934 0.1337
C13_15 C 0.86542(9) 0.81165(11) 0.07939(9)
H9_15 H 0.8830 0.8039 0.0864
H10_15 H 0.8587 0.7990 0.0648
C14_15 C 0.87146(13) 0.83922(13) 0.06636(13)
H11_15 H 0.8544 0.8470 0.0587
H12_15 H 0.8850 0.8368 0.0515
H13_15 H 0.8789 0.8518 0.0803
O5_25 O 0.68258(7) 0.82173(8) -0.0000
O19_14 O 0.96643(4) 0.73888(4) 0.17038(4)
O34_14 O 0.97071(4) 0.76602(4) 0.20644(4)
C24_15 C 0.95977(5) 0.76034(6) 0.18327(6)
C25_15 C 0.81673(6) 0.95977(5) 0.23966(6)
C35_15 C 0.93774(6) 0.77868(6) 0.17168(6)
C36_15 C 0.82832(6) 0.93774(6) 0.22132(6)
C46_15 C 0.92884(6) 0.80158(6) 0.18635(7)
C47_15 C 0.81365(7) 0.92884(6) 0.19842(6)
H23_15 H 0.9372 0.8063 0.2034
H24_15 H 0.7966 0.9372 0.1937
C57_15 C 0.90752(6) 0.81747(6) 0.17576(7)
C58_15 C 0.82424(7) 0.90752(6) 0.18253(6)
C68_15 C 0.89433(6) 0.81067(6) 0.15110(7)
C69_15 C 0.84890(7) 0.89433(6) 0.18933(6)
C79_15 C 0.90397(7) 0.78807(7) 0.13615(7)
C80_15 C 0.86385(7) 0.90397(7) 0.21193(7)
H34_15 H 0.8957 0.7834 0.1190
H35_15 H 0.8810 0.8957 0.2166
C90_15 C 0.92567(7) 0.77249(6) 0.14642(7)
C91_15 C 0.85358(7) 0.92567(7) 0.22751(6)
H45_15 H 0.9324 0.7573 0.1360
H46_15 H 0.8640 0.9324 0.2427
C101_15 C 0.81156(7) 0.89594(7) 0.15652(7)
C102_15 C 0.89594(7) 0.84348(7) 0.18844(7)
C103_15 C 0.83208(7) 0.87304(6) 0.14937(7)
C113_15 C 0.87304(6) 0.85063(7) 0.16792(7)
C114_15 C 0.87175(6) 0.83086(7) 0.14649(7)
C124_15 C 0.85351(7) 0.87175(6) 0.16914(7)
C134_15 C 0.78272(9) 0.88427(11) 0.16365(10)
C135_15 C 0.88427(11) 0.83635(10) 0.21728(9)
H56_15 H 0.7712 0.8995 0.1710
H57_15 H 0.8995 0.8290 0.2288
H67_15 H 0.7739 0.8777 0.1464
H68_15 H 0.8777 0.8536 0.2261
C145_15 C 0.78265(11) 0.86093(12) 0.18434(14)
C146_15 C 0.86093(12) 0.81566(14) 0.21735(11)
H78_15 H 0.7909 0.8445 0.1760
H79_15 H 0.8445 0.8240 0.2091
H89_15 H 0.7636 0.8569 0.1899
H90_15 H 0.8569 0.8101 0.2364
H100_15 H 0.7934 0.8663 0.2006
H101_15 H 0.8663 0.7994 0.2066
C156_15 C 0.81165(11) 0.92061(9) 0.13458(9)
C157_15 C 0.92061(9) 0.86542(9) 0.18835(11)
H111_15 H 0.8039 0.9136 0.1170
H112_15 H 0.9136 0.8830 0.1961
H122_15 H 0.7990 0.9352 0.1413
H123_15 H 0.9352 0.8587 0.2010
C167_15 C 0.83922(13) 0.93364(13) 0.12854(13)
C168_15 C 0.93364(13) 0.87146(13) 0.16078(13)
H133_15 H 0.8470 0.9413 0.1456
H134_15 H 0.9413 0.8544 0.1530
H144_15 H 0.8368 0.9485 0.1150
H145_15 H 0.9485 0.8850 0.1632
H155_15 H 0.8518 0.9197 0.1211
H156_15 H 0.9197 0.8789 0.1482
O36_25 O 0.81742(7) 0.67827(8) -0.0000
O37_25 O 0.67827(8) 0.68258(7) -0.0000
O38_25 O 0.82173(8) 0.81742(7) -0.0000
O4_26 O 0.7500 0.7500 1.0000
O5_26 O 0.68258(7) 0.82173(8) 1.0000
O12_12 O 0.82962(4) 0.76112(4) 0.96643(4)
O26_12 O 0.79356(4) 0.73398(4) 0.97071(4)
O36_26 O 0.81742(7) 0.67827(8) 1.0000
O37_26 O 0.67827(8) 0.68258(7) 1.0000
O38_26 O 0.82173(8) 0.81742(7) 1.0000
C1_16 C 0.23966(6) 0.18327(6) 0.04023(5)
C2_16 C 0.22132(6) 0.17168(6) 0.06226(6)
C3_16 C 0.19842(6) 0.18635(7) 0.07116(6)
H1_16 H 0.1937 0.2034 0.0628
C4_16 C 0.18253(6) 0.17576(7) 0.09248(6)
C5_16 C 0.18933(6) 0.15110(7) 0.10567(6)
C6_16 C 0.21193(7) 0.13615(7) 0.09603(7)
H2_16 H 0.2166 0.1190 0.1043
C7_16 C 0.22751(6) 0.14642(7) 0.07433(7)
H3_16 H 0.2427 0.1360 0.0676
C8_16 C 0.15652(7) 0.18844(7) 0.10406(7)
C9_16 C 0.14937(7) 0.16792(7) 0.12696(6)
C10_16 C 0.16914(7) 0.14649(7) 0.12825(6)
C11_16 C 0.16365(10) 0.21728(9) 0.11573(11)
H4_16 H 0.1710 0.2288 0.1005
H5_16 H 0.1464 0.2261 0.1223
C12_16 C 0.18434(14) 0.21735(11) 0.13907(12)
H6_16 H 0.1760 0.2091 0.1555
H7_16 H 0.1899 0.2364 0.1431
H8_16 H 0.2006 0.2066 0.1337
C13_16 C 0.13458(9) 0.18835(11) 0.07939(9)
H9_16 H 0.1170 0.1961 0.0864
H10_16 H 0.1413 0.2010 0.0648
C14_16 C 0.12854(13) 0.16078(13) 0.06636(13)
H11_16 H 0.1456 0.1530 0.0587
H12_16 H 0.1150 0.1632 0.0515
H13_16 H 0.1211 0.1482 0.0803
C24_16 C 0.04023(5) 0.23966(6) 0.18327(6)
C25_16 C 0.18327(6) 0.04023(5) 0.23966(6)
C35_16 C 0.06226(6) 0.22132(6) 0.17168(6)
C36_16 C 0.17168(6) 0.06226(6) 0.22132(6)
C46_16 C 0.07116(6) 0.19842(6) 0.18635(7)
C47_16 C 0.18635(7) 0.07116(6) 0.19842(6)
H23_16 H 0.0628 0.1937 0.2034
H24_16 H 0.2034 0.0628 0.1937
C57_16 C 0.09248(6) 0.18253(6) 0.17576(7)
C58_16 C 0.17576(7) 0.09248(6) 0.18253(6)
C68_16 C 0.10567(6) 0.18933(6) 0.15110(7)
C69_16 C 0.15110(7) 0.10567(6) 0.18933(6)
C79_16 C 0.09603(7) 0.21193(7) 0.13615(7)
C80_16 C 0.13615(7) 0.09603(7) 0.21193(7)
H34_16 H 0.1043 0.2166 0.1190
H35_16 H 0.1190 0.1043 0.2166
C90_16 C 0.07433(7) 0.22751(6) 0.14642(7)
C91_16 C 0.14642(7) 0.07433(7) 0.22751(6)
H45_16 H 0.0676 0.2427 0.1360
H46_16 H 0.1360 0.0676 0.2427
C101_16 C 0.18844(7) 0.10406(7) 0.15652(7)
C102_16 C 0.10406(7) 0.15652(7) 0.18844(7)
C103_16 C 0.16792(7) 0.12696(6) 0.14937(7)
C113_16 C 0.12696(6) 0.14937(7) 0.16792(7)
C114_16 C 0.12825(6) 0.16914(7) 0.14649(7)
C124_16 C 0.14649(7) 0.12825(6) 0.16914(7)
C134_16 C 0.21728(9) 0.11573(11) 0.16365(10)
C135_16 C 0.11573(11) 0.16365(10) 0.21728(9)
H56_16 H 0.2288 0.1005 0.1710
H57_16 H 0.1005 0.1710 0.2288
H67_16 H 0.2261 0.1223 0.1464
H68_16 H 0.1223 0.1464 0.2261
C145_16 C 0.21735(11) 0.13907(12) 0.18434(14)
C146_16 C 0.13907(12) 0.18434(14) 0.21735(11)
H78_16 H 0.2091 0.1555 0.1760
H79_16 H 0.1555 0.1760 0.2091
H89_16 H 0.2364 0.1431 0.1899
H90_16 H 0.1431 0.1899 0.2364
H100_16 H 0.2066 0.1337 0.2006
H101_16 H 0.1337 0.2006 0.2066
C156_16 C 0.18835(11) 0.07939(9) 0.13458(9)
C157_16 C 0.07939(9) 0.13458(9) 0.18835(11)
H111_16 H 0.1961 0.0864 0.1170
H112_16 H 0.0864 0.1170 0.1961
H122_16 H 0.2010 0.0648 0.1413
H123_16 H 0.0648 0.1413 0.2010
C167_16 C 0.16078(13) 0.06636(13) 0.12854(13)
C168_16 C 0.06636(13) 0.12854(13) 0.16078(13)
H133_16 H 0.1530 0.0587 0.1456
H134_16 H 0.0587 0.1456 0.1530
H144_16 H 0.1632 0.0515 0.1150
H145_16 H 0.0515 0.1150 0.1632
H155_16 H 0.1482 0.0803 0.1211
H156_16 H 0.0803 0.1211 0.1482
C21_18 C 0.81673(6) 0.23966(6) 0.45977(5)
C22_18 C 0.95977(5) 0.18327(6) 0.26034(6)
C23_18 C 0.76034(6) 0.04023(5) 0.31673(6)
C32_18 C 0.82832(6) 0.22132(6) 0.43774(6)
C33_18 C 0.93774(6) 0.17168(6) 0.27868(6)
C34_18 C 0.77868(6) 0.06226(6) 0.32832(6)
C43_18 C 0.81365(7) 0.19842(6) 0.42884(6)
C44_18 C 0.92884(6) 0.18635(7) 0.30158(6)
C45_18 C 0.80158(6) 0.07116(6) 0.31365(7)
H20_18 H 0.7966 0.1937 0.4372
H21_18 H 0.9372 0.2034 0.3063
H22_18 H 0.8063 0.0628 0.2966
C54_18 C 0.82424(7) 0.18253(6) 0.40752(6)
C55_18 C 0.90752(6) 0.17576(7) 0.31747(6)
C56_18 C 0.81747(6) 0.09248(6) 0.32424(7)
C65_18 C 0.84890(7) 0.18933(6) 0.39433(6)
C66_18 C 0.81067(6) 0.10567(6) 0.34890(7)
C67_18 C 0.89433(6) 0.15110(7) 0.31067(6)
C76_18 C 0.86385(7) 0.21193(7) 0.40397(7)
C77_18 C 0.78807(7) 0.09603(7) 0.36385(7)
C78_18 C 0.90397(7) 0.13615(7) 0.28807(7)
H31_18 H 0.8810 0.2166 0.3957
H32_18 H 0.7834 0.1043 0.3810
H33_18 H 0.8957 0.1190 0.2834
C87_18 C 0.85358(7) 0.22751(6) 0.42567(7)
C88_18 C 0.77249(6) 0.07433(7) 0.35358(7)
C89_18 C 0.92567(7) 0.14642(7) 0.27249(6)
H42_18 H 0.8640 0.2427 0.4324
H43_18 H 0.7573 0.0676 0.3640
H44_18 H 0.9324 0.1360 0.2573
C98_18 C 0.81156(7) 0.15652(7) 0.39594(7)
C99_18 C 0.89594(7) 0.18844(7) 0.34348(7)
C100_18 C 0.84348(7) 0.10406(7) 0.31156(7)
C110_18 C 0.83208(7) 0.14937(7) 0.37304(6)
C111_18 C 0.87304(6) 0.16792(7) 0.35063(7)
C112_18 C 0.85063(7) 0.12696(6) 0.33208(7)
C121_18 C 0.85351(7) 0.16914(7) 0.37175(6)
C122_18 C 0.83086(7) 0.12825(6) 0.35351(7)
C123_18 C 0.87175(6) 0.14649(7) 0.33086(7)
C131_18 C 0.78272(9) 0.16365(10) 0.38427(11)
C132_18 C 0.88427(11) 0.21728(9) 0.33635(10)
C133_18 C 0.83635(10) 0.11573(11) 0.28272(9)
H53_18 H 0.7712 0.1710 0.3995
H54_18 H 0.8995 0.2288 0.3290
H55_18 H 0.8290 0.1005 0.2712
H64_18 H 0.7739 0.1464 0.3777
H65_18 H 0.8777 0.2261 0.3536
H66_18 H 0.8536 0.1223 0.2739
C142_18 C 0.78265(11) 0.18434(14) 0.36093(12)
C143_18 C 0.86093(12) 0.21735(11) 0.31566(14)
C144_18 C 0.81566(14) 0.13907(12) 0.28265(11)
H75_18 H 0.7909 0.1760 0.3445
H76_18 H 0.8445 0.2091 0.3240
H77_18 H 0.8240 0.1555 0.2909
H86_18 H 0.7636 0.1899 0.3569
H87_18 H 0.8569 0.2364 0.3101
H88_18 H 0.8101 0.1431 0.2636
H97_18 H 0.7934 0.2006 0.3663
H98_18 H 0.8663 0.2066 0.2994
H99_18 H 0.7994 0.1337 0.2934
C153_18 C 0.81165(11) 0.13458(9) 0.42061(9)
C154_18 C 0.92061(9) 0.18835(11) 0.36542(9)
C155_18 C 0.86542(9) 0.07939(9) 0.31165(11)
H108_18 H 0.8039 0.1170 0.4136
H109_18 H 0.9136 0.1961 0.3830
H110_18 H 0.8830 0.0864 0.3039
H119_18 H 0.7990 0.1413 0.4352
H120_18 H 0.9352 0.2010 0.3587
H121_18 H 0.8587 0.0648 0.2990
C164_18 C 0.83922(13) 0.12854(13) 0.43364(13)
C165_18 C 0.93364(13) 0.16078(13) 0.37146(13)
C166_18 C 0.87146(13) 0.06636(13) 0.33922(13)
H130_18 H 0.8470 0.1456 0.4413
H131_18 H 0.9413 0.1530 0.3544
H132_18 H 0.8544 0.0587 0.3470
H141_18 H 0.8368 0.1150 0.4485
H142_18 H 0.9485 0.1632 0.3850
H143_18 H 0.8850 0.0515 0.3368
H152_18 H 0.8518 0.1211 0.4197
H153_18 H 0.9197 0.1482 0.3789
H154_18 H 0.8789 0.0803 0.3518
O4_27 O 0.2500 0.5000 0.2500
O5_27 O 0.17827(8) 0.5000 0.18258(7)
O10_10 O 0.26112(4) 0.53357(4) 0.17038(4)
O15_12 O 0.17038(4) 0.76112(4) 0.03357(4)
O16_10 O 0.03357(4) 0.67038(4) 0.26112(4)
O23_10 O 0.23398(4) 0.52929(4) 0.20644(4)
O30_12 O 0.20644(4) 0.73398(4) 0.02929(4)
O31_10 O 0.02929(4) 0.70644(4) 0.23398(4)
C18_12 C 0.23966(6) 0.54023(5) 0.18327(6)
C19_12 C 0.18327(6) 0.73966(6) 0.04023(5)
C20_12 C 0.04023(5) 0.68327(6) 0.23966(6)
C29_12 C 0.22132(6) 0.56226(6) 0.17168(6)
C30_12 C 0.17168(6) 0.72132(6) 0.06226(6)
C31_12 C 0.06226(6) 0.67168(6) 0.22132(6)
C40_12 C 0.19842(6) 0.57116(6) 0.18635(7)
C41_12 C 0.18635(7) 0.69842(6) 0.07116(6)
C42_12 C 0.07116(6) 0.68635(7) 0.19842(6)
H17_12 H 0.1937 0.5628 0.2034
H18_12 H 0.2034 0.6937 0.0628
H19_12 H 0.0628 0.7034 0.1937
C51_12 C 0.18253(6) 0.59248(6) 0.17576(7)
C52_12 C 0.17576(7) 0.68253(6) 0.09248(6)
C53_12 C 0.09248(6) 0.67576(7) 0.18253(6)
C62_12 C 0.18933(6) 0.60567(6) 0.15110(7)
C63_12 C 0.10567(6) 0.65110(7) 0.18933(6)
C64_12 C 0.15110(7) 0.68933(6) 0.10567(6)
C73_12 C 0.21193(7) 0.59603(7) 0.13615(7)
C74_12 C 0.09603(7) 0.63615(7) 0.21193(7)
C75_12 C 0.13615(7) 0.71193(7) 0.09603(7)
H28_12 H 0.2166 0.6043 0.1190
H29_12 H 0.1043 0.6190 0.2166
H30_12 H 0.1190 0.7166 0.1043
C84_12 C 0.22751(6) 0.57433(7) 0.14642(7)
C85_12 C 0.07433(7) 0.64642(7) 0.22751(6)
C86_12 C 0.14642(7) 0.72751(6) 0.07433(7)
H39_12 H 0.2427 0.5676 0.1360
H40_12 H 0.0676 0.6360 0.2427
H41_12 H 0.1360 0.7427 0.0676
C95_12 C 0.15652(7) 0.60406(7) 0.18844(7)
C96_12 C 0.18844(7) 0.65652(7) 0.10406(7)
C97_12 C 0.10406(7) 0.68844(7) 0.15652(7)
C107_12 C 0.14937(7) 0.62696(6) 0.16792(7)
C108_12 C 0.16792(7) 0.64937(7) 0.12696(6)
C109_12 C 0.12696(6) 0.66792(7) 0.14937(7)
C118_12 C 0.16914(7) 0.62825(6) 0.14649(7)
C119_12 C 0.12825(6) 0.64649(7) 0.16914(7)
C120_12 C 0.14649(7) 0.66914(7) 0.12825(6)
C128_12 C 0.16365(10) 0.61573(11) 0.21728(9)
C129_12 C 0.21728(9) 0.66365(10) 0.11573(11)
C130_12 C 0.11573(11) 0.71728(9) 0.16365(10)
H50_12 H 0.1710 0.6005 0.2288
H51_12 H 0.2288 0.6710 0.1005
H52_12 H 0.1005 0.7288 0.1710
H61_12 H 0.1464 0.6223 0.2261
H62_12 H 0.2261 0.6464 0.1223
H63_12 H 0.1223 0.7261 0.1464
C139_12 C 0.18434(14) 0.63907(12) 0.21735(11)
C140_12 C 0.21735(11) 0.68434(14) 0.13907(12)
C141_12 C 0.13907(12) 0.71735(11) 0.18434(14)
H72_12 H 0.1760 0.6555 0.2091
H73_12 H 0.2091 0.6760 0.1555
H74_12 H 0.1555 0.7091 0.1760
H83_12 H 0.1899 0.6431 0.2364
H84_12 H 0.2364 0.6899 0.1431
H85_12 H 0.1431 0.7364 0.1899
H94_12 H 0.2006 0.6337 0.2066
H95_12 H 0.2066 0.7006 0.1337
H96_12 H 0.1337 0.7066 0.2006
C150_12 C 0.13458(9) 0.57939(9) 0.18835(11)
C151_12 C 0.18835(11) 0.63458(9) 0.07939(9)
C152_12 C 0.07939(9) 0.68835(11) 0.13458(9)
H105_12 H 0.1170 0.5864 0.1961
H106_12 H 0.1961 0.6170 0.0864
H107_12 H 0.0864 0.6961 0.1170
H116_12 H 0.1413 0.5648 0.2010
H117_12 H 0.2010 0.6413 0.0648
H118_12 H 0.0648 0.7010 0.1413
C161_12 C 0.12854(13) 0.56636(13) 0.16078(13)
C162_12 C 0.16078(13) 0.62854(13) 0.06636(13)
C163_12 C 0.06636(13) 0.66078(13) 0.12854(13)
H127_12 H 0.1456 0.5587 0.1530
H128_12 H 0.1530 0.6456 0.0587
H129_12 H 0.0587 0.6530 0.1456
H138_12 H 0.1150 0.5515 0.1632
H139_12 H 0.1632 0.6150 0.0515
H140_12 H 0.0515 0.6632 0.1150
H149_12 H 0.1211 0.5803 0.1482
H150_12 H 0.1482 0.6211 0.0803
H151_12 H 0.0803 0.6482 0.1211
O36_27 O 0.32173(8) 0.5000 0.31742(7)
O37_27 O 0.31742(7) 0.5000 0.17827(8)
O38_27 O 0.18258(7) 0.5000 0.32173(8)
C18_13 C 0.95977(5) 0.68327(6) 0.76034(6)
C19_13 C 0.76034(6) 0.54023(5) 0.81673(6)
C20_13 C 0.81673(6) 0.73966(6) 0.95977(5)
C29_13 C 0.93774(6) 0.67168(6) 0.77868(6)
C30_13 C 0.77868(6) 0.56226(6) 0.82832(6)
C31_13 C 0.82832(6) 0.72132(6) 0.93774(6)
C40_13 C 0.92884(6) 0.68635(7) 0.80158(6)
C41_13 C 0.80158(6) 0.57116(6) 0.81365(7)
C42_13 C 0.81365(7) 0.69842(6) 0.92884(6)
H17_13 H 0.9372 0.7034 0.8063
H18_13 H 0.8063 0.5628 0.7966
H19_13 H 0.7966 0.6937 0.9372
C51_13 C 0.90752(6) 0.67576(7) 0.81747(6)
C52_13 C 0.81747(6) 0.59248(6) 0.82424(7)
C53_13 C 0.82424(7) 0.68253(6) 0.90752(6)
C62_13 C 0.89433(6) 0.65110(7) 0.81067(6)
C63_13 C 0.84890(7) 0.68933(6) 0.89433(6)
C64_13 C 0.81067(6) 0.60567(6) 0.84890(7)
C73_13 C 0.90397(7) 0.63615(7) 0.78807(7)
C74_13 C 0.86385(7) 0.71193(7) 0.90397(7)
C75_13 C 0.78807(7) 0.59603(7) 0.86385(7)
H28_13 H 0.8957 0.6190 0.7834
H29_13 H 0.8810 0.7166 0.8957
H30_13 H 0.7834 0.6043 0.8810
C84_13 C 0.92567(7) 0.64642(7) 0.77249(6)
C85_13 C 0.85358(7) 0.72751(6) 0.92567(7)
C86_13 C 0.77249(6) 0.57433(7) 0.85358(7)
H39_13 H 0.9324 0.6360 0.7573
H40_13 H 0.8640 0.7427 0.9324
H41_13 H 0.7573 0.5676 0.8640
C95_13 C 0.89594(7) 0.68844(7) 0.84348(7)
C96_13 C 0.84348(7) 0.60406(7) 0.81156(7)
C97_13 C 0.81156(7) 0.65652(7) 0.89594(7)
C107_13 C 0.87304(6) 0.66792(7) 0.85063(7)
C108_13 C 0.85063(7) 0.62696(6) 0.83208(7)
C109_13 C 0.83208(7) 0.64937(7) 0.87304(6)
C118_13 C 0.87175(6) 0.64649(7) 0.83086(7)
C119_13 C 0.85351(7) 0.66914(7) 0.87175(6)
C120_13 C 0.83086(7) 0.62825(6) 0.85351(7)
C128_13 C 0.88427(11) 0.71728(9) 0.83635(10)
C129_13 C 0.83635(10) 0.61573(11) 0.78272(9)
C130_13 C 0.78272(9) 0.66365(10) 0.88427(11)
H50_13 H 0.8995 0.7288 0.8290
H51_13 H 0.8290 0.6005 0.7712
H52_13 H 0.7712 0.6710 0.8995
H61_13 H 0.8777 0.7261 0.8536
H62_13 H 0.8536 0.6223 0.7739
H63_13 H 0.7739 0.6464 0.8777
C139_13 C 0.86093(12) 0.71735(11) 0.81566(14)
C140_13 C 0.81566(14) 0.63907(12) 0.78265(11)
C141_13 C 0.78265(11) 0.68434(14) 0.86093(12)
H72_13 H 0.8445 0.7091 0.8240
H73_13 H 0.8240 0.6555 0.7909
H74_13 H 0.7909 0.6760 0.8445
H83_13 H 0.8569 0.7364 0.8101
H84_13 H 0.8101 0.6431 0.7636
H85_13 H 0.7636 0.6899 0.8569
H94_13 H 0.8663 0.7066 0.7994
H95_13 H 0.7994 0.6337 0.7934
H96_13 H 0.7934 0.7006 0.8663
C150_13 C 0.92061(9) 0.68835(11) 0.86542(9)
C151_13 C 0.86542(9) 0.57939(9) 0.81165(11)
C152_13 C 0.81165(11) 0.63458(9) 0.92061(9)
H105_13 H 0.9136 0.6961 0.8830
H106_13 H 0.8830 0.5864 0.8039
H107_13 H 0.8039 0.6170 0.9136
H116_13 H 0.9352 0.7010 0.8587
H117_13 H 0.8587 0.5648 0.7990
H118_13 H 0.7990 0.6413 0.9352
C161_13 C 0.93364(13) 0.66078(13) 0.87146(13)
C162_13 C 0.87146(13) 0.56636(13) 0.83922(13)
C163_13 C 0.83922(13) 0.62854(13) 0.93364(13)
H127_13 H 0.9413 0.6530 0.8544
H128_13 H 0.8544 0.5587 0.8470
H129_13 H 0.8470 0.6456 0.9413
H138_13 H 0.9485 0.6632 0.8850
H139_13 H 0.8850 0.5515 0.8368
H140_13 H 0.8368 0.6150 0.9485
H149_13 H 0.9197 0.6482 0.8789
H150_13 H 0.8789 0.5803 0.8518
H151_13 H 0.8518 0.6211 0.9197
O4_28 O -0.0000 0.7500 0.2500
O5_28 O -0.0000 0.68258(7) 0.17827(8)
O36_28 O -0.0000 0.81742(7) 0.32173(8)
O37_28 O 0.0000 0.67827(8) 0.31742(7)
O38_28 O -0.0000 0.82173(8) 0.18258(7)
O4_29 O 1.0000 0.7500 0.2500
O5_29 O 1.0000 0.68258(7) 0.17827(8)
O36_29 O 1.0000 0.81742(7) 0.32173(8)
O37_29 O 1.0000 0.67827(8) 0.31742(7)
O38_29 O 1.0000 0.82173(8) 0.18258(7)
O4_30 O 0.2500 0.7500 0.0000
O5_30 O 0.18258(7) 0.67827(8) 0.0000
O36_30 O 0.31742(7) 0.82173(8) 0.0000
O37_30 O 0.17827(8) 0.81742(7) 0.0000
O38_30 O 0.32173(8) 0.68258(7) 0.0000
O4_31 O 0.2500 0.7500 1.0000
O5_31 O 0.18258(7) 0.67827(8) 1.0000
O36_31 O 0.31742(7) 0.82173(8) 1.0000
O37_31 O 0.17827(8) 0.81742(7) 1.0000
O38_31 O 0.32173(8) 0.68258(7) 1.0000
O4_32 O 0.2500 0.0000 0.7500
O5_32 O 0.17827(8) 0.0000 0.68258(7)
O10_11 O 0.26112(4) 0.03357(4) 0.67038(4)
O15_13 O 0.17038(4) 0.26112(4) 0.53357(4)
O16_11 O 0.03357(4) 0.17038(4) 0.76112(4)
O23_11 O 0.23398(4) 0.02929(4) 0.70644(4)
O30_13 O 0.20644(4) 0.23398(4) 0.52929(4)
O31_11 O 0.02929(4) 0.20644(4) 0.73398(4)
C18_14 C 0.23966(6) 0.04023(5) 0.68327(6)
C19_14 C 0.18327(6) 0.23966(6) 0.54023(5)
C20_14 C 0.04023(5) 0.18327(6) 0.73966(6)
C29_14 C 0.22132(6) 0.06226(6) 0.67168(6)
C30_14 C 0.17168(6) 0.22132(6) 0.56226(6)
C31_14 C 0.06226(6) 0.17168(6) 0.72132(6)
C40_14 C 0.19842(6) 0.07116(6) 0.68635(7)
C41_14 C 0.18635(7) 0.19842(6) 0.57116(6)
C42_14 C 0.07116(6) 0.18635(7) 0.69842(6)
H17_14 H 0.1937 0.0628 0.7034
H18_14 H 0.2034 0.1937 0.5628
H19_14 H 0.0628 0.2034 0.6937
C51_14 C 0.18253(6) 0.09248(6) 0.67576(7)
C52_14 C 0.17576(7) 0.18253(6) 0.59248(6)
C53_14 C 0.09248(6) 0.17576(7) 0.68253(6)
C62_14 C 0.18933(6) 0.10567(6) 0.65110(7)
C63_14 C 0.10567(6) 0.15110(7) 0.68933(6)
C64_14 C 0.15110(7) 0.18933(6) 0.60567(6)
C73_14 C 0.21193(7) 0.09603(7) 0.63615(7)
C74_14 C 0.09603(7) 0.13615(7) 0.71193(7)
C75_14 C 0.13615(7) 0.21193(7) 0.59603(7)
H28_14 H 0.2166 0.1043 0.6190
H29_14 H 0.1043 0.1190 0.7166
H30_14 H 0.1190 0.2166 0.6043
C84_14 C 0.22751(6) 0.07433(7) 0.64642(7)
C85_14 C 0.07433(7) 0.14642(7) 0.72751(6)
C86_14 C 0.14642(7) 0.22751(6) 0.57433(7)
H39_14 H 0.2427 0.0676 0.6360
H40_14 H 0.0676 0.1360 0.7427
H41_14 H 0.1360 0.2427 0.5676
C95_14 C 0.15652(7) 0.10406(7) 0.68844(7)
C96_14 C 0.18844(7) 0.15652(7) 0.60406(7)
C97_14 C 0.10406(7) 0.18844(7) 0.65652(7)
C107_14 C 0.14937(7) 0.12696(6) 0.66792(7)
C108_14 C 0.16792(7) 0.14937(7) 0.62696(6)
C109_14 C 0.12696(6) 0.16792(7) 0.64937(7)
C118_14 C 0.16914(7) 0.12825(6) 0.64649(7)
C119_14 C 0.12825(6) 0.14649(7) 0.66914(7)
C120_14 C 0.14649(7) 0.16914(7) 0.62825(6)
C128_14 C 0.16365(10) 0.11573(11) 0.71728(9)
C129_14 C 0.21728(9) 0.16365(10) 0.61573(11)
C130_14 C 0.11573(11) 0.21728(9) 0.66365(10)
H50_14 H 0.1710 0.1005 0.7288
H51_14 H 0.2288 0.1710 0.6005
H52_14 H 0.1005 0.2288 0.6710
H61_14 H 0.1464 0.1223 0.7261
H62_14 H 0.2261 0.1464 0.6223
H63_14 H 0.1223 0.2261 0.6464
C139_14 C 0.18434(14) 0.13907(12) 0.71735(11)
C140_14 C 0.21735(11) 0.18434(14) 0.63907(12)
C141_14 C 0.13907(12) 0.21735(11) 0.68434(14)
H72_14 H 0.1760 0.1555 0.7091
H73_14 H 0.2091 0.1760 0.6555
H74_14 H 0.1555 0.2091 0.6760
H83_14 H 0.1899 0.1431 0.7364
H84_14 H 0.2364 0.1899 0.6431
H85_14 H 0.1431 0.2364 0.6899
H94_14 H 0.2006 0.1337 0.7066
H95_14 H 0.2066 0.2006 0.6337
H96_14 H 0.1337 0.2066 0.7006
C150_14 C 0.13458(9) 0.07939(9) 0.68835(11)
C151_14 C 0.18835(11) 0.13458(9) 0.57939(9)
C152_14 C 0.07939(9) 0.18835(11) 0.63458(9)
H105_14 H 0.1170 0.0864 0.6961
H106_14 H 0.1961 0.1170 0.5864
H107_14 H 0.0864 0.1961 0.6170
H116_14 H 0.1413 0.0648 0.7010
H117_14 H 0.2010 0.1413 0.5648
H118_14 H 0.0648 0.2010 0.6413
C161_14 C 0.12854(13) 0.06636(13) 0.66078(13)
C162_14 C 0.16078(13) 0.12854(13) 0.56636(13)
C163_14 C 0.06636(13) 0.16078(13) 0.62854(13)
H127_14 H 0.1456 0.0587 0.6530
H128_14 H 0.1530 0.1456 0.5587
H129_14 H 0.0587 0.1530 0.6456
H138_14 H 0.1150 0.0515 0.6632
H139_14 H 0.1632 0.1150 0.5515
H140_14 H 0.0515 0.1632 0.6150
H149_14 H 0.1211 0.0803 0.6482
H150_14 H 0.1482 0.1211 0.5803
H151_14 H 0.0803 0.1482 0.6211
O36_32 O 0.32173(8) -0.0000 0.81742(7)
O37_32 O 0.31742(7) 0.0000 0.67827(8)
O38_32 O 0.18258(7) 0.0000 0.82173(8)
O4_33 O 0.2500 1.0000 0.7500
O5_33 O 0.17827(8) 1.0000 0.68258(7)
O36_33 O 0.32173(8) 1.0000 0.81742(7)
O37_33 O 0.31742(7) 1.0000 0.67827(8)
O38_33 O 0.18258(7) 1.0000 0.82173(8)
O4_34 O -0.0000 0.2500 0.7500
O5_34 O -0.0000 0.18258(7) 0.67827(8)
O36_34 O 0.0000 0.31742(7) 0.82173(8)
O37_34 O 0.0000 0.17827(8) 0.81742(7)
O38_34 O -0.0000 0.32173(8) 0.68258(7)
O4_35 O 1.0000 0.2500 0.7500
O5_35 O 1.0000 0.18258(7) 0.67827(8)
O36_35 O 1.0000 0.31742(7) 0.82173(8)
O37_35 O 1.0000 0.17827(8) 0.81742(7)
O38_35 O 1.0000 0.32173(8) 0.68258(7)
O4_36 O 0.2500 0.2500 0.5000
O5_36 O 0.18258(7) 0.17827(8) 0.5000
O36_36 O 0.31742(7) 0.32173(8) 0.5000
O37_36 O 0.17827(8) 0.31742(7) 0.5000
O38_36 O 0.32173(8) 0.18258(7) 0.5000
O39 O -0.0000 0.12784(15) 0.21113(17)
O39_2 O 1.0000 0.12784(15) 0.21113(17)
O39_3 O 0.21113(17) -0.0000 0.12784(15)
O39_4 O 0.21113(17) 1.0000 0.12784(15)
O39_5 O 0.12784(15) 0.21113(17) -0.0000
O39_6 O 0.12784(15) 0.21113(17) 1.0000
O39_7 O 0.62784(15) 0.5000 0.28887(17)
O39_8 O 0.62784(15) 0.5000 0.71113(17)
O39_9 O 0.37216(15) 0.5000 0.71113(17)
O39_10 O 0.5000 0.71113(17) 0.37216(15)
O39_11 O 0.5000 0.71113(17) 0.62784(15)
O39_12 O 0.5000 0.28887(17) 0.62784(15)
O39_13 O 0.71113(17) 0.62784(15) 0.5000
O39_14 O 0.71113(17) 0.37216(15) 0.5000
O39_15 O 0.28887(17) 0.62784(15) 0.5000
O39_16 O 0.0000 0.62784(15) 0.71113(17)
O39_17 O 1.0000 0.62784(15) 0.71113(17)
O39_18 O 0.21113(17) 0.5000 0.62784(15)
O39_19 O 0.12784(15) 0.71113(17) 0.5000
O39_20 O 0.62784(15) -0.0000 0.78887(17)
O39_21 O 0.62784(15) 1.0000 0.78887(17)
O39_22 O 0.62784(15) 0.0000 0.21113(17)
O39_23 O 0.62784(15) 1.0000 0.21113(17)
O39_24 O 0.37216(15) -0.0000 0.21113(17)
O39_25 O 0.37216(15) 1.0000 0.21113(17)
O39_26 O 0.5000 0.21113(17) 0.87216(15)
O39_27 O 0.5000 0.21113(17) 0.12784(15)
O39_28 O 0.5000 0.78887(17) 0.12784(15)
O39_29 O 0.71113(17) 0.12784(15) 0.0000
O39_30 O 0.71113(17) 0.12784(15) 1.0000
O39_31 O 0.71113(17) 0.87216(15) -0.0000
O39_32 O 0.71113(17) 0.87216(15) 1.0000
O39_33 O 0.28887(17) 0.12784(15) -0.0000
O39_34 O 0.28887(17) 0.12784(15) 1.0000
O39_35 O 0.5000 0.12784(15) 0.71113(17)
O39_36 O 0.71113(17) 0.0000 0.62784(15)
O39_37 O 0.71113(17) 1.0000 0.62784(15)
O39_38 O 0.62784(15) 0.21113(17) 0.5000
O39_39 O 0.12784(15) 0.5000 0.78887(17)
O39_40 O 0.12784(15) 0.5000 0.21113(17)
O39_41 O 0.87216(15) 0.5000 0.21113(17)
O39_42 O -0.0000 0.71113(17) 0.87216(15)
O39_43 O 1.0000 0.71113(17) 0.87216(15)
O39_44 O 0.0000 0.71113(17) 0.12784(15)
O39_45 O 1.0000 0.71113(17) 0.12784(15)
O39_46 O -0.0000 0.28887(17) 0.12784(15)
O39_47 O 1.0000 0.28887(17) 0.12784(15)
O39_48 O 0.21113(17) 0.62784(15) 0.0000
O39_49 O 0.21113(17) 0.62784(15) 1.0000
O39_50 O 0.21113(17) 0.37216(15) -0.0000
O39_51 O 0.21113(17) 0.37216(15) 1.0000
O39_52 O 0.78887(17) 0.62784(15) -0.0000
O39_53 O 0.78887(17) 0.62784(15) 1.0000
O39_54 O 0.5000 0.62784(15) 0.21113(17)
O39_55 O 0.71113(17) 0.5000 0.12784(15)
O39_56 O 0.62784(15) 0.71113(17) -0.0000
O39_57 O 0.62784(15) 0.71113(17) 1.0000
O39_58 O 0.12784(15) -0.0000 0.28887(17)
O39_59 O 0.12784(15) 1.0000 0.28887(17)
O39_60 O 0.12784(15) 0.0000 0.71113(17)
O39_61 O 0.12784(15) 1.0000 0.71113(17)
O39_62 O 0.87216(15) 0.0000 0.71113(17)
O39_63 O 0.87216(15) 1.0000 0.71113(17)
O39_64 O -0.0000 0.21113(17) 0.37216(15)
O39_65 O 1.0000 0.21113(17) 0.37216(15)
O39_66 O 0.0000 0.21113(17) 0.62784(15)
O39_67 O 1.0000 0.21113(17) 0.62784(15)
O39_68 O 0.0000 0.78887(17) 0.62784(15)
O39_69 O 1.0000 0.78887(17) 0.62784(15)
O39_70 O 0.21113(17) 0.12784(15) 0.5000
O39_71 O 0.21113(17) 0.87216(15) 0.5000
O39_72 O 0.78887(17) 0.12784(15) 0.5000
O39_73 O -0.0000 0.87216(15) 0.21113(17)
O39_74 O 1.0000 0.87216(15) 0.21113(17)
O39_75 O -0.0000 0.12784(15) 0.78887(17)
O39_76 O 1.0000 0.12784(15) 0.78887(17)
O39_77 O -0.0000 0.87216(15) 0.78887(17)
O39_78 O 1.0000 0.87216(15) 0.78887(17)
O39_79 O 0.21113(17) 0.0000 0.87216(15)
O39_80 O 0.21113(17) 1.0000 0.87216(15)
O39_81 O 0.78887(17) 0.0000 0.12784(15)
O39_82 O 0.78887(17) 1.0000 0.12784(15)
O39_83 O 0.78887(17) 0.0000 0.87216(15)
O39_84 O 0.78887(17) 1.0000 0.87216(15)
O39_85 O 0.87216(15) 0.21113(17) 0.0000
O39_86 O 0.87216(15) 0.21113(17) 1.0000
O39_87 O 0.12784(15) 0.78887(17) 0.0000
O39_88 O 0.12784(15) 0.78887(17) 1.0000
O39_89 O 0.87216(15) 0.78887(17) -0.0000
O39_90 O 0.87216(15) 0.78887(17) 1.0000
O39_91 O 0.37216(15) 0.5000 0.28887(17)
O39_92 O 0.5000 0.28887(17) 0.37216(15)
O39_93 O 0.28887(17) 0.37216(15) 0.5000
O39_94 O -0.0000 0.37216(15) 0.71113(17)
O39_95 O 1.0000 0.37216(15) 0.71113(17)
O39_96 O -0.0000 0.62784(15) 0.28887(17)
O39_97 O 1.0000 0.62784(15) 0.28887(17)
O39_98 O -0.0000 0.37216(15) 0.28887(17)
O39_99 O 1.0000 0.37216(15) 0.28887(17)
O39_100 O 0.21113(17) 0.5000 0.37216(15)
O39_101 O 0.78887(17) 0.5000 0.62784(15)
O39_102 O 0.78887(17) 0.5000 0.37216(15)
O39_103 O 0.87216(15) 0.71113(17) 0.5000
O39_104 O 0.12784(15) 0.28887(17) 0.5000
O39_105 O 0.87216(15) 0.28887(17) 0.5000
O39_106 O 0.37216(15) -0.0000 0.78887(17)
O39_107 O 0.37216(15) 1.0000 0.78887(17)
O39_108 O 0.5000 0.78887(17) 0.87216(15)
O39_109 O 0.28887(17) 0.87216(15) 0.0000
O39_110 O 0.28887(17) 0.87216(15) 1.0000
O39_111 O 0.5000 0.87216(15) 0.71113(17)
O39_112 O 0.5000 0.12784(15) 0.28887(17)
O39_113 O 0.5000 0.87216(15) 0.28887(17)
O39_114 O 0.71113(17) -0.0000 0.37216(15)
O39_115 O 0.71113(17) 1.0000 0.37216(15)
O39_116 O 0.28887(17) 0.0000 0.62784(15)
O39_117 O 0.28887(17) 1.0000 0.62784(15)
O39_118 O 0.28887(17) -0.0000 0.37216(15)
O39_119 O 0.28887(17) 1.0000 0.37216(15)
O39_120 O 0.37216(15) 0.21113(17) 0.5000
O39_121 O 0.62784(15) 0.78887(17) 0.5000
O39_122 O 0.37216(15) 0.78887(17) 0.5000
O39_123 O 0.87216(15) 0.5000 0.78887(17)
O39_124 O 0.0000 0.28887(17) 0.87216(15)
O39_125 O 1.0000 0.28887(17) 0.87216(15)
O39_126 O 0.78887(17) 0.37216(15) 0.0000
O39_127 O 0.78887(17) 0.37216(15) 1.0000
O39_128 O 0.5000 0.37216(15) 0.21113(17)
O39_129 O 0.5000 0.62784(15) 0.78887(17)
O39_130 O 0.5000 0.37216(15) 0.78887(17)
O39_131 O 0.71113(17) 0.5000 0.87216(15)
O39_132 O 0.28887(17) 0.5000 0.12784(15)
O39_133 O 0.28887(17) 0.5000 0.87216(15)
O39_134 O 0.37216(15) 0.71113(17) 0.0000
O39_135 O 0.37216(15) 0.71113(17) 1.0000
O39_136 O 0.62784(15) 0.28887(17) 0.0000
O39_137 O 0.62784(15) 0.28887(17) 1.0000
O39_138 O 0.37216(15) 0.28887(17) -0.0000
O39_139 O 0.37216(15) 0.28887(17) 1.0000
O39_140 O 0.87216(15) 0.0000 0.28887(17)
O39_141 O 0.87216(15) 1.0000 0.28887(17)
O39_142 O -0.0000 0.78887(17) 0.37216(15)
O39_143 O 1.0000 0.78887(17) 0.37216(15)
O39_144 O 0.78887(17) 0.87216(15) 0.5000
loop_
_geom_bond_atom_site_label_1
_geom_bond_atom_site_label_2
_geom_bond_site_symmetry_1
_geom_bond_site_symmetry_2
Cd1 O2 1_555 1_555
O2 C1 1_555 1_555
O3 Cd1 1_555 1_555
O4 Cd1 1_555 1_555
C1 O3 1_555 1_555
C2 C1 1_555 1_555
C3 C2 1_555 1_555
H1 C3 1_555 1_555
C4 C3 1_555 1_555
C5 C4 1_555 1_555
C6 C5 1_555 1_555
H2 C6 1_555 1_555
C7 C2 1_555 1_555
H3 C7 1_555 1_555
C8 C4 1_555 1_555
C9 C8 1_555 1_555
C10 C5 1_555 1_555
C11 C8 1_555 1_555
H4 C11 1_555 1_555
H5 C11 1_555 1_555
C12 C11 1_555 1_555
H6 C12 1_555 1_555
H7 C12 1_555 1_555
H8 C12 1_555 1_555
C13 C8 1_555 1_555
H9 C13 1_555 1_555
H10 C13 1_555 1_555
C14 C13 1_555 1_555
H11 C14 1_555 1_555
H12 C14 1_555 1_555
H13 C14 1_555 1_555
O5 Cd1 1_555 1_555
Cd2 O3 1_555 1_555
Cd3 O4 1_555 1_555
Cd4 O4 1_555 1_555
Cd5 O13 1_555 1_555
Cd6 O19 1_555 1_555
Cd7 O14 1_555 1_555
Cd8 O29 1_555 1_555
Cd16 O34 1_555 1_555
Cd17 O20 1_555 1_555
Cd18 O35 1_555 1_555
O8 Cd4 1_555 1_555
O9 Cd3 1_555 1_555
O11 Cd2 1_555 1_555
O13 C16 1_555 1_555
O14 C17 1_555 1_555
O19 C24 1_555 1_555
O20 C25 1_555 1_555
O21 Cd1 1_555 1_555
O24 Cd2 1_555 1_555
O27 Cd3 1_555 1_555
O28 Cd5 1_555 1_555
O29 Cd7 1_555 1_555
O34 Cd6 1_555 1_555
O35 Cd17 1_555 1_555
C15 O11 1_555 1_555
C16 O28 1_555 1_555
C17 O29 1_555 1_555
C24 O34 1_555 1_555
C25 O35 1_555 1_555
C26 C15 1_555 1_555
C27 C16 1_555 1_555
C28 C17 1_555 1_555
C35 C24 1_555 1_555
C36 C25 1_555 1_555
C37 C26 1_555 1_555
C38 C27 1_555 1_555
C39 C28 1_555 1_555
C46 C35 1_555 1_555
C47 C36 1_555 1_555
H14 C37 1_555 1_555
H15 C38 1_555 1_555
H16 C39 1_555 1_555
H23 C46 1_555 1_555
H24 C47 1_555 1_555
C48 C37 1_555 1_555
C49 C38 1_555 1_555
C50 C39 1_555 1_555
C57 C46 1_555 1_555
C58 C47 1_555 1_555
C59 C48 1_555 1_555
C60 C50 1_555 1_555
C61 C49 1_555 1_555
C68 C57 1_555 1_555
C69 C58 1_555 1_555
C70 C59 1_555 1_555
C71 C60 1_555 1_555
C72 C61 1_555 1_555
C79 C68 1_555 1_555
C80 C69 1_555 1_555
H25 C70 1_555 1_555
H26 C71 1_555 1_555
H27 C72 1_555 1_555
H34 C79 1_555 1_555
H35 C80 1_555 1_555
C81 C26 1_555 1_555
C82 C28 1_555 1_555
C83 C27 1_555 1_555
C90 C35 1_555 1_555
C91 C36 1_555 1_555
H36 C81 1_555 1_555
H37 C82 1_555 1_555
H38 C83 1_555 1_555
H45 C90 1_555 1_555
H46 C91 1_555 1_555
C92 C48 1_555 1_555
C93 C49 1_555 1_555
C94 C50 1_555 1_555
C101 C58 1_555 1_555
C102 C57 1_555 1_555
C103 C10 1_555 1_555
C104 C92 1_555 1_555
C105 C93 1_555 1_555
C106 C94 1_555 1_555
C113 C102 1_555 1_555
C114 C9 1_555 1_555
C115 C59 1_555 1_555
C116 C60 1_555 1_555
C117 C61 1_555 1_555
C124 C69 1_555 1_555
C125 C92 1_555 1_555
C126 C93 1_555 1_555
C127 C94 1_555 1_555
C134 C101 1_555 1_555
C135 C102 1_555 1_555
H47 C125 1_555 1_555
H48 C126 1_555 1_555
H49 C127 1_555 1_555
H56 C134 1_555 1_555
H57 C135 1_555 1_555
H58 C125 1_555 1_555
H59 C126 1_555 1_555
H60 C127 1_555 1_555
H67 C134 1_555 1_555
H68 C135 1_555 1_555
C136 C125 1_555 1_555
C137 C126 1_555 1_555
C138 C127 1_555 1_555
C145 C134 1_555 1_555
C146 C135 1_555 1_555
H69 C136 1_555 1_555
H70 C137 1_555 1_555
H71 C138 1_555 1_555
H78 C145 1_555 1_555
H79 C146 1_555 1_555
H80 C136 1_555 1_555
H81 C137 1_555 1_555
H82 C138 1_555 1_555
H89 C145 1_555 1_555
H90 C146 1_555 1_555
H91 C136 1_555 1_555
H92 C137 1_555 1_555
H93 C138 1_555 1_555
H100 C145 1_555 1_555
H101 C146 1_555 1_555
C147 C92 1_555 1_555
C148 C93 1_555 1_555
C149 C94 1_555 1_555
C156 C101 1_555 1_555
C157 C102 1_555 1_555
H102 C147 1_555 1_555
H103 C148 1_555 1_555
H104 C149 1_555 1_555
H111 C156 1_555 1_555
H112 C157 1_555 1_555
H113 C147 1_555 1_555
H114 C148 1_555 1_555
H115 C149 1_555 1_555
H122 C156 1_555 1_555
H123 C157 1_555 1_555
C158 C147 1_555 1_555
C159 C148 1_555 1_555
C160 C149 1_555 1_555
C167 C156 1_555 1_555
C168 C157 1_555 1_555
H124 C158 1_555 1_555
H125 C159 1_555 1_555
H126 C160 1_555 1_555
H133 C167 1_555 1_555
H134 C168 1_555 1_555
H135 C158 1_555 1_555
H136 C159 1_555 1_555
H137 C160 1_555 1_555
H144 C167 1_555 1_555
H145 C168 1_555 1_555
H146 C158 1_555 1_555
H147 C159 1_555 1_555
H148 C160 1_555 1_555
H155 C167 1_555 1_555
H156 C168 1_555 1_555
O36 Cd4 1_555 1_555
O37 Cd3 1_555 1_555
O38 Cd2 1_555 1_555
O4 Cd2 1_555 1_555
C6 C7 1_555 1_555
C9 C10 1_555 1_555
Cd3 O21 1_555 1_555
Cd4 O24 1_555 1_555
Cd4 O27 1_555 1_555
Cd6 O28 1_555 1_555
O24 C15 1_555 1_555
C68 C114 1_555 1_555
C70 C81 1_555 1_555
C71 C82 1_555 1_555
C72 C83 1_555 1_555
C79 C90 1_555 1_555
C80 C91 1_555 1_555
C101 C103 1_555 1_555
C103 C124 1_555 1_555
C104 C115 1_555 1_555
C104 C116 1_555 1_555
C105 C115 1_555 1_555
C105 C117 1_555 1_555
C106 C116 1_555 1_555
C106 C117 1_555 1_555
C113 C114 1_555 1_555
C113 C124 1_555 1_555
O4_2 Cd1_2 1_555 1_555
O5_2 Cd1_2 1_555 1_555
Cd3_2 O4_2 1_555 1_555
Cd4_2 O4_2 1_555 1_555
Cd9 O15 1_555 1_555
Cd10 O18 1_555 1_555
Cd11 O16 1_555 1_555
Cd12 O31 1_555 1_555
Cd13 O17 1_555 1_555
Cd14 O32 1_555 1_555
Cd15 O33 1_555 1_555
O6 Cd1_2 1_555 1_555
O7 Cd4_2 1_555 1_555
O10 Cd3_2 1_555 1_555
O12 Cd2_2 1_555 1_555
O15 C19 1_555 1_555
O16 C20 1_555 1_555
O17 C22 1_555 1_555
O18 C23 1_555 1_555
O22 Cd1_2 1_555 1_555
O23 Cd1_2 1_555 1_555
O25 Cd3_2 1_555 1_555
O26 Cd2_2 1_555 1_555
O30 Cd9 1_555 1_555
O31 Cd11 1_555 1_555
O32 Cd13 1_555 1_555
O33 Cd10 1_555 1_555
C18 O10 1_555 1_555
C19 O30 1_555 1_555
C20 O31 1_555 1_555
C21 O7 1_555 1_555
C22 O32 1_555 1_555
C23 O33 1_555 1_555
C29 C18 1_555 1_555
C30 C19 1_555 1_555
C31 C20 1_555 1_555
C32 C21 1_555 1_555
C33 C22 1_555 1_555
C34 C23 1_555 1_555
C40 C29 1_555 1_555
C41 C30 1_555 1_555
C42 C31 1_555 1_555
C43 C32 1_555 1_555
C44 C33 1_555 1_555
C45 C34 1_555 1_555
H17 C40 1_555 1_555
H18 C41 1_555 1_555
H19 C42 1_555 1_555
H20 C43 1_555 1_555
H21 C44 1_555 1_555
H22 C45 1_555 1_555
C51 C40 1_555 1_555
C52 C41 1_555 1_555
C53 C42 1_555 1_555
C54 C43 1_555 1_555
C55 C44 1_555 1_555
C56 C45 1_555 1_555
C62 C51 1_555 1_555
C63 C53 1_555 1_555
C64 C52 1_555 1_555
C65 C54 1_555 1_555
C66 C56 1_555 1_555
C67 C55 1_555 1_555
C73 C62 1_555 1_555
C74 C63 1_555 1_555
C75 C64 1_555 1_555
C76 C65 1_555 1_555
C77 C66 1_555 1_555
C78 C67 1_555 1_555
H28 C73 1_555 1_555
H29 C74 1_555 1_555
H30 C75 1_555 1_555
H31 C76 1_555 1_555
H32 C77 1_555 1_555
H33 C78 1_555 1_555
C84 C29 1_555 1_555
C85 C31 1_555 1_555
C86 C30 1_555 1_555
C87 C32 1_555 1_555
C88 C34 1_555 1_555
C89 C33 1_555 1_555
H39 C84 1_555 1_555
H40 C85 1_555 1_555
H41 C86 1_555 1_555
H42 C87 1_555 1_555
H43 C88 1_555 1_555
H44 C89 1_555 1_555
C95 C51 1_555 1_555
C96 C52 1_555 1_555
C97 C53 1_555 1_555
C98 C54 1_555 1_555
C99 C55 1_555 1_555
C100 C56 1_555 1_555
C107 C95 1_555 1_555
C108 C96 1_555 1_555
C109 C97 1_555 1_555
C110 C98 1_555 1_555
C111 C99 1_555 1_555
C112 C100 1_555 1_555
C118 C62 1_555 1_555
C119 C63 1_555 1_555
C120 C64 1_555 1_555
C121 C65 1_555 1_555
C122 C66 1_555 1_555
C123 C67 1_555 1_555
C128 C95 1_555 1_555
C129 C96 1_555 1_555
C130 C97 1_555 1_555
C131 C98 1_555 1_555
C132 C99 1_555 1_555
C133 C100 1_555 1_555
H50 C128 1_555 1_555
H51 C129 1_555 1_555
H52 C130 1_555 1_555
H53 C131 1_555 1_555
H54 C132 1_555 1_555
H55 C133 1_555 1_555
H61 C128 1_555 1_555
H62 C129 1_555 1_555
H63 C130 1_555 1_555
H64 C131 1_555 1_555
H65 C132 1_555 1_555
H66 C133 1_555 1_555
C139 C128 1_555 1_555
C140 C129 1_555 1_555
C141 C130 1_555 1_555
C142 C131 1_555 1_555
C143 C132 1_555 1_555
C144 C133 1_555 1_555
H72 C139 1_555 1_555
H73 C140 1_555 1_555
H74 C141 1_555 1_555
H75 C142 1_555 1_555
H76 C143 1_555 1_555
H77 C144 1_555 1_555
H83 C139 1_555 1_555
H84 C140 1_555 1_555
H85 C141 1_555 1_555
H86 C142 1_555 1_555
H87 C143 1_555 1_555
H88 C144 1_555 1_555
H94 C139 1_555 1_555
H95 C140 1_555 1_555
H96 C141 1_555 1_555
H97 C142 1_555 1_555
H98 C143 1_555 1_555
H99 C144 1_555 1_555
C150 C95 1_555 1_555
C151 C96 1_555 1_555
C152 C97 1_555 1_555
C153 C98 1_555 1_555
C154 C99 1_555 1_555
C155 C100 1_555 1_555
H105 C150 1_555 1_555
H106 C151 1_555 1_555
H107 C152 1_555 1_555
H108 C153 1_555 1_555
H109 C154 1_555 1_555
H110 C155 1_555 1_555
H116 C150 1_555 1_555
H117 C151 1_555 1_555
H118 C152 1_555 1_555
H119 C153 1_555 1_555
H120 C154 1_555 1_555
H121 C155 1_555 1_555
C161 C150 1_555 1_555
C162 C151 1_555 1_555
C163 C152 1_555 1_555
C164 C153 1_555 1_555
C165 C154 1_555 1_555
C166 C155 1_555 1_555
H127 C161 1_555 1_555
H128 C162 1_555 1_555
H129 C163 1_555 1_555
H130 C164 1_555 1_555
H131 C165 1_555 1_555
H132 C166 1_555 1_555
H138 C161 1_555 1_555
H139 C162 1_555 1_555
H140 C163 1_555 1_555
H141 C164 1_555 1_555
H142 C165 1_555 1_555
H143 C166 1_555 1_555
H149 C161 1_555 1_555
H150 C162 1_555 1_555
H151 C163 1_555 1_555
H152 C164 1_555 1_555
H153 C165 1_555 1_555
H154 C166 1_555 1_555
O36_2 Cd4_2 1_555 1_555
O37_2 Cd3_2 1_555 1_555
O38_2 Cd2_2 1_555 1_555
O4_2 Cd2_2 1_555 1_555
Cd2_2 O22 1_555 1_555
Cd3_2 O23 1_555 1_555
Cd4_2 O25 1_555 1_555
Cd4_2 O26 1_555 1_555
Cd10 O30 1_555 1_555
O23 C18 1_555 1_555
O25 C21 1_555 1_555
C73 C84 1_555 1_555
C74 C85 1_555 1_555
C75 C86 1_555 1_555
C76 C87 1_555 1_555
C77 C88 1_555 1_555
C78 C89 1_555 1_555
C107 C118 1_555 1_555
C107 C119 1_555 1_555
C108 C118 1_555 1_555
C108 C120 1_555 1_555
C109 C119 1_555 1_555
C109 C120 1_555 1_555
C110 C121 1_555 1_555
C110 C122 1_555 1_555
C111 C121 1_555 1_555
C111 C123 1_555 1_555
C112 C122 1_555 1_555
C112 C123 1_555 1_555
Cd1_3 O2_2 1_555 1_555
O2_2 C1_2 1_555 1_555
O3_2 Cd1_3 1_555 1_555
O4_3 Cd1_3 1_555 1_555
C1_2 O3_2 1_555 1_555
C2_2 C1_2 1_555 1_555
C3_2 C2_2 1_555 1_555
H1_2 C3_2 1_555 1_555
C4_2 C3_2 1_555 1_555
C5_2 C4_2 1_555 1_555
C6_2 C5_2 1_555 1_555
H2_2 C6_2 1_555 1_555
C7_2 C2_2 1_555 1_555
H3_2 C7_2 1_555 1_555
C8_2 C4_2 1_555 1_555
C9_2 C8_2 1_555 1_555
C10_2 C5_2 1_555 1_555
C11_2 C8_2 1_555 1_555
H4_2 C11_2 1_555 1_555
H5_2 C11_2 1_555 1_555
C12_2 C11_2 1_555 1_555
H6_2 C12_2 1_555 1_555
H7_2 C12_2 1_555 1_555
H8_2 C12_2 1_555 1_555
C13_2 C8_2 1_555 1_555
H9_2 C13_2 1_555 1_555
H10_2 C13_2 1_555 1_555
C14_2 C13_2 1_555 1_555
H11_2 C14_2 1_555 1_555
H12_2 C14_2 1_555 1_555
H13_2 C14_2 1_555 1_555
O5_3 Cd1_3 1_555 1_555
Cd2_3 O3_2 1_555 1_555
Cd18 O4_3 1_555 1_555
Cd17 O4_3 1_555 1_555
Cd5_2 O13_2 1_555 1_555
Cd6_2 O19_2 1_555 1_555
Cd16 O14_2 1_555 1_555
Cd8_2 O29_2 1_555 1_555
Cd16_2 O34_2 1_555 1_555
Cd17_3 O20_2 1_555 1_555
Cd18_3 O35_2 1_555 1_555
O9_2 Cd18 1_555 1_555
O11_2 Cd2_3 1_555 1_555
O13_2 C16_2 1_555 1_555
O14_2 C17_2 1_555 1_555
O19_2 C24_2 1_555 1_555
O20_2 C25_2 1_555 1_555
O21_2 Cd1_3 1_555 1_555
O24_2 Cd2_3 1_555 1_555
O28_2 Cd5_2 1_555 1_555
O29_2 Cd16 1_555 1_555
O34_2 Cd6_2 1_555 1_555
O35_2 Cd17_3 1_555 1_555
C15_2 O11_2 1_555 1_555
C16_2 O28_2 1_555 1_555
C17_2 O29_2 1_555 1_555
C24_2 O34_2 1_555 1_555
C25_2 O35_2 1_555 1_555
C26_2 C15_2 1_555 1_555
C27_2 C16_2 1_555 1_555
C28_2 C17_2 1_555 1_555
C35_2 C24_2 1_555 1_555
C36_2 C25_2 1_555 1_555
C37_2 C26_2 1_555 1_555
C38_2 C27_2 1_555 1_555
C39_2 C28_2 1_555 1_555
C46_2 C35_2 1_555 1_555
C47_2 C36_2 1_555 1_555
H14_2 C37_2 1_555 1_555
H15_2 C38_2 1_555 1_555
H16_2 C39_2 1_555 1_555
H23_2 C46_2 1_555 1_555
H24_2 C47_2 1_555 1_555
C48_2 C37_2 1_555 1_555
C49_2 C38_2 1_555 1_555
C50_2 C39_2 1_555 1_555
C57_2 C46_2 1_555 1_555
C58_2 C47_2 1_555 1_555
C59_2 C48_2 1_555 1_555
C60_2 C50_2 1_555 1_555
C61_2 C49_2 1_555 1_555
C68_2 C57_2 1_555 1_555
C69_2 C58_2 1_555 1_555
C70_2 C59_2 1_555 1_555
C71_2 C60_2 1_555 1_555
C72_2 C61_2 1_555 1_555
C79_2 C68_2 1_555 1_555
C80_2 C69_2 1_555 1_555
H25_2 C70_2 1_555 1_555
H26_2 C71_2 1_555 1_555
H27_2 C72_2 1_555 1_555
H34_2 C79_2 1_555 1_555
H35_2 C80_2 1_555 1_555
C81_2 C26_2 1_555 1_555
C82_2 C28_2 1_555 1_555
C83_2 C27_2 1_555 1_555
C90_2 C35_2 1_555 1_555
C91_2 C36_2 1_555 1_555
H36_2 C81_2 1_555 1_555
H37_2 C82_2 1_555 1_555
H38_2 C83_2 1_555 1_555
H45_2 C90_2 1_555 1_555
H46_2 C91_2 1_555 1_555
C92_2 C48_2 1_555 1_555
C93_2 C49_2 1_555 1_555
C94_2 C50_2 1_555 1_555
C101_2 C58_2 1_555 1_555
C102_2 C57_2 1_555 1_555
C103_2 C10_2 1_555 1_555
C104_2 C92_2 1_555 1_555
C105_2 C93_2 1_555 1_555
C106_2 C94_2 1_555 1_555
C113_2 C102_2 1_555 1_555
C114_2 C9_2 1_555 1_555
C115_2 C59_2 1_555 1_555
C116_2 C60_2 1_555 1_555
C117_2 C61_2 1_555 1_555
C124_2 C69_2 1_555 1_555
C125_2 C92_2 1_555 1_555
C126_2 C93_2 1_555 1_555
C127_2 C94_2 1_555 1_555
C134_2 C101_2 1_555 1_555
C135_2 C102_2 1_555 1_555
H47_2 C125_2 1_555 1_555
H48_2 C126_2 1_555 1_555
H49_2 C127_2 1_555 1_555
H56_2 C134_2 1_555 1_555
H57_2 C135_2 1_555 1_555
H58_2 C125_2 1_555 1_555
H59_2 C126_2 1_555 1_555
H60_2 C127_2 1_555 1_555
H67_2 C134_2 1_555 1_555
H68_2 C135_2 1_555 1_555
C136_2 C125_2 1_555 1_555
C137_2 C126_2 1_555 1_555
C138_2 C127_2 1_555 1_555
C145_2 C134_2 1_555 1_555
C146_2 C135_2 1_555 1_555
H69_2 C136_2 1_555 1_555
H70_2 C137_2 1_555 1_555
H71_2 C138_2 1_555 1_555
H78_2 C145_2 1_555 1_555
H79_2 C146_2 1_555 1_555
H80_2 C136_2 1_555 1_555
H81_2 C137_2 1_555 1_555
H82_2 C138_2 1_555 1_555
H89_2 C145_2 1_555 1_555
H90_2 C146_2 1_555 1_555
H91_2 C136_2 1_555 1_555
H92_2 C137_2 1_555 1_555
H93_2 C138_2 1_555 1_555
H100_2 C145_2 1_555 1_555
H101_2 C146_2 1_555 1_555
C147_2 C92_2 1_555 1_555
C148_2 C93_2 1_555 1_555
C149_2 C94_2 1_555 1_555
C156_2 C101_2 1_555 1_555
C157_2 C102_2 1_555 1_555
H102_2 C147_2 1_555 1_555
H103_2 C148_2 1_555 1_555
H104_2 C149_2 1_555 1_555
H111_2 C156_2 1_555 1_555
H112_2 C157_2 1_555 1_555
H113_2 C147_2 1_555 1_555
H114_2 C148_2 1_555 1_555
H115_2 C149_2 1_555 1_555
H122_2 C156_2 1_555 1_555
H123_2 C157_2 1_555 1_555
C158_2 C147_2 1_555 1_555
C159_2 C148_2 1_555 1_555
C160_2 C149_2 1_555 1_555
C167_2 C156_2 1_555 1_555
C168_2 C157_2 1_555 1_555
H124_2 C158_2 1_555 1_555
H125_2 C159_2 1_555 1_555
H126_2 C160_2 1_555 1_555
H133_2 C167_2 1_555 1_555
H134_2 C168_2 1_555 1_555
H135_2 C158_2 1_555 1_555
H136_2 C159_2 1_555 1_555
H137_2 C160_2 1_555 1_555
H144_2 C167_2 1_555 1_555
H145_2 C168_2 1_555 1_555
H146_2 C158_2 1_555 1_555
H147_2 C159_2 1_555 1_555
H148_2 C160_2 1_555 1_555
H155_2 C167_2 1_555 1_555
H156_2 C168_2 1_555 1_555
O36_3 Cd17 1_555 1_555
O37_3 Cd18 1_555 1_555
O38_3 Cd2_3 1_555 1_555
O4_3 Cd2_3 1_555 1_555
C6_2 C7_2 1_555 1_555
C9_2 C10_2 1_555 1_555
Cd18 O21_2 1_555 1_555
Cd17 O24_2 1_555 1_555
Cd6_2 O28_2 1_555 1_555
O24_2 C15_2 1_555 1_555
C68_2 C114_2 1_555 1_555
C70_2 C81_2 1_555 1_555
C71_2 C82_2 1_555 1_555
C72_2 C83_2 1_555 1_555
C79_2 C90_2 1_555 1_555
C80_2 C91_2 1_555 1_555
C101_2 C103_2 1_555 1_555
C103_2 C124_2 1_555 1_555
C104_2 C115_2 1_555 1_555
C104_2 C116_2 1_555 1_555
C105_2 C115_2 1_555 1_555
C105_2 C117_2 1_555 1_555
C106_2 C116_2 1_555 1_555
C106_2 C117_2 1_555 1_555
C113_2 C114_2 1_555 1_555
C113_2 C124_2 1_555 1_555
O4_4 Cd1_4 1_555 1_555
O5_4 Cd1_4 1_555 1_555
Cd18_2 O4_4 1_555 1_555
Cd17_2 O4_4 1_555 1_555
Cd9_3 O15_2 1_555 1_555
Cd10_3 O18_2 1_555 1_555
Cd11_3 O16_2 1_555 1_555
Cd12_3 O31_2 1_555 1_555
Cd13_2 O17_2 1_555 1_555
Cd14_2 O32_2 1_555 1_555
Cd15_3 O33_2 1_555 1_555
O6_2 Cd1_4 1_555 1_555
O7_2 Cd17_2 1_555 1_555
O10_2 Cd18_2 1_555 1_555
O12_2 Cd2_4 1_555 1_555
O15_2 C19_2 1_555 1_555
O16_2 C20_2 1_555 1_555
O17_2 C22_2 1_555 1_555
O18_2 C23_2 1_555 1_555
O22_2 Cd1_4 1_555 1_555
O23_2 Cd1_4 1_555 1_555
O25_2 Cd18_2 1_555 1_555
O26_2 Cd2_4 1_555 1_555
O30_2 Cd9_3 1_555 1_555
O31_2 Cd11_3 1_555 1_555
O32_2 Cd13_2 1_555 1_555
O33_2 Cd10_3 1_555 1_555
C18_2 O10_2 1_555 1_555
C19_2 O30_2 1_555 1_555
C20_2 O31_2 1_555 1_555
C21_2 O7_2 1_555 1_555
C22_2 O32_2 1_555 1_555
C23_2 O33_2 1_555 1_555
C29_2 C18_2 1_555 1_555
C30_2 C19_2 1_555 1_555
C31_2 C20_2 1_555 1_555
C32_2 C21_2 1_555 1_555
C33_2 C22_2 1_555 1_555
C34_2 C23_2 1_555 1_555
C40_2 C29_2 1_555 1_555
C41_2 C30_2 1_555 1_555
C42_2 C31_2 1_555 1_555
C43_2 C32_2 1_555 1_555
C44_2 C33_2 1_555 1_555
C45_2 C34_2 1_555 1_555
H17_2 C40_2 1_555 1_555
H18_2 C41_2 1_555 1_555
H19_2 C42_2 1_555 1_555
H20_2 C43_2 1_555 1_555
H21_2 C44_2 1_555 1_555
H22_2 C45_2 1_555 1_555
C51_2 C40_2 1_555 1_555
C52_2 C41_2 1_555 1_555
C53_2 C42_2 1_555 1_555
C54_2 C43_2 1_555 1_555
C55_2 C44_2 1_555 1_555
C56_2 C45_2 1_555 1_555
C62_2 C51_2 1_555 1_555
C63_2 C53_2 1_555 1_555
C64_2 C52_2 1_555 1_555
C65_2 C54_2 1_555 1_555
C66_2 C56_2 1_555 1_555
C67_2 C55_2 1_555 1_555
C73_2 C62_2 1_555 1_555
C74_2 C63_2 1_555 1_555
C75_2 C64_2 1_555 1_555
C76_2 C65_2 1_555 1_555
C77_2 C66_2 1_555 1_555
C78_2 C67_2 1_555 1_555
H28_2 C73_2 1_555 1_555
H29_2 C74_2 1_555 1_555
H30_2 C75_2 1_555 1_555
H31_2 C76_2 1_555 1_555
H32_2 C77_2 1_555 1_555
H33_2 C78_2 1_555 1_555
C84_2 C29_2 1_555 1_555
C85_2 C31_2 1_555 1_555
C86_2 C30_2 1_555 1_555
C87_2 C32_2 1_555 1_555
C88_2 C34_2 1_555 1_555
C89_2 C33_2 1_555 1_555
H39_2 C84_2 1_555 1_555
H40_2 C85_2 1_555 1_555
H41_2 C86_2 1_555 1_555
H42_2 C87_2 1_555 1_555
H43_2 C88_2 1_555 1_555
H44_2 C89_2 1_555 1_555
C95_2 C51_2 1_555 1_555
C96_2 C52_2 1_555 1_555
C97_2 C53_2 1_555 1_555
C98_2 C54_2 1_555 1_555
C99_2 C55_2 1_555 1_555
C100_2 C56_2 1_555 1_555
C107_2 C95_2 1_555 1_555
C108_2 C96_2 1_555 1_555
C109_2 C97_2 1_555 1_555
C110_2 C98_2 1_555 1_555
C111_2 C99_2 1_555 1_555
C112_2 C100_2 1_555 1_555
C118_2 C62_2 1_555 1_555
C119_2 C63_2 1_555 1_555
C120_2 C64_2 1_555 1_555
C121_2 C65_2 1_555 1_555
C122_2 C66_2 1_555 1_555
C123_2 C67_2 1_555 1_555
C128_2 C95_2 1_555 1_555
C129_2 C96_2 1_555 1_555
C130_2 C97_2 1_555 1_555
C131_2 C98_2 1_555 1_555
C132_2 C99_2 1_555 1_555
C133_2 C100_2 1_555 1_555
H50_2 C128_2 1_555 1_555
H51_2 C129_2 1_555 1_555
H52_2 C130_2 1_555 1_555
H53_2 C131_2 1_555 1_555
H54_2 C132_2 1_555 1_555
H55_2 C133_2 1_555 1_555
H61_2 C128_2 1_555 1_555
H62_2 C129_2 1_555 1_555
H63_2 C130_2 1_555 1_555
H64_2 C131_2 1_555 1_555
H65_2 C132_2 1_555 1_555
H66_2 C133_2 1_555 1_555
C139_2 C128_2 1_555 1_555
C140_2 C129_2 1_555 1_555
C141_2 C130_2 1_555 1_555
C142_2 C131_2 1_555 1_555
C143_2 C132_2 1_555 1_555
C144_2 C133_2 1_555 1_555
H72_2 C139_2 1_555 1_555
H73_2 C140_2 1_555 1_555
H74_2 C141_2 1_555 1_555
H75_2 C142_2 1_555 1_555
H76_2 C143_2 1_555 1_555
H77_2 C144_2 1_555 1_555
H83_2 C139_2 1_555 1_555
H84_2 C140_2 1_555 1_555
H85_2 C141_2 1_555 1_555
H86_2 C142_2 1_555 1_555
H87_2 C143_2 1_555 1_555
H88_2 C144_2 1_555 1_555
H94_2 C139_2 1_555 1_555
H95_2 C140_2 1_555 1_555
H96_2 C141_2 1_555 1_555
H97_2 C142_2 1_555 1_555
H98_2 C143_2 1_555 1_555
H99_2 C144_2 1_555 1_555
C150_2 C95_2 1_555 1_555
C151_2 C96_2 1_555 1_555
C152_2 C97_2 1_555 1_555
C153_2 C98_2 1_555 1_555
C154_2 C99_2 1_555 1_555
C155_2 C100_2 1_555 1_555
H105_2 C150_2 1_555 1_555
H106_2 C151_2 1_555 1_555
H107_2 C152_2 1_555 1_555
H108_2 C153_2 1_555 1_555
H109_2 C154_2 1_555 1_555
H110_2 C155_2 1_555 1_555
H116_2 C150_2 1_555 1_555
H117_2 C151_2 1_555 1_555
H118_2 C152_2 1_555 1_555
H119_2 C153_2 1_555 1_555
H120_2 C154_2 1_555 1_555
H121_2 C155_2 1_555 1_555
C161_2 C150_2 1_555 1_555
C162_2 C151_2 1_555 1_555
C163_2 C152_2 1_555 1_555
C164_2 C153_2 1_555 1_555
C165_2 C154_2 1_555 1_555
C166_2 C155_2 1_555 1_555
H127_2 C161_2 1_555 1_555
H128_2 C162_2 1_555 1_555
H129_2 C163_2 1_555 1_555
H130_2 C164_2 1_555 1_555
H131_2 C165_2 1_555 1_555
H132_2 C166_2 1_555 1_555
H138_2 C161_2 1_555 1_555
H139_2 C162_2 1_555 1_555
H140_2 C163_2 1_555 1_555
H141_2 C164_2 1_555 1_555
H142_2 C165_2 1_555 1_555
H143_2 C166_2 1_555 1_555
H149_2 C161_2 1_555 1_555
H150_2 C162_2 1_555 1_555
H151_2 C163_2 1_555 1_555
H152_2 C164_2 1_555 1_555
H153_2 C165_2 1_555 1_555
H154_2 C166_2 1_555 1_555
O36_4 Cd17_2 1_555 1_555
O37_4 Cd18_2 1_555 1_555
O38_4 Cd2_4 1_555 1_555
O4_4 Cd2_4 1_555 1_555
Cd2_4 O22_2 1_555 1_555
Cd18_2 O23_2 1_555 1_555
Cd17_2 O25_2 1_555 1_555
Cd17_2 O26_2 1_555 1_555
Cd10_3 O30_2 1_555 1_555
O23_2 C18_2 1_555 1_555
O25_2 C21_2 1_555 1_555
C73_2 C84_2 1_555 1_555
C74_2 C85_2 1_555 1_555
C75_2 C86_2 1_555 1_555
C76_2 C87_2 1_555 1_555
C77_2 C88_2 1_555 1_555
C78_2 C89_2 1_555 1_555
C107_2 C118_2 1_555 1_555
C107_2 C119_2 1_555 1_555
C108_2 C118_2 1_555 1_555
C108_2 C120_2 1_555 1_555
C109_2 C119_2 1_555 1_555
C109_2 C120_2 1_555 1_555
C110_2 C121_2 1_555 1_555
C110_2 C122_2 1_555 1_555
C111_2 C121_2 1_555 1_555
C111_2 C123_2 1_555 1_555
C112_2 C122_2 1_555 1_555
C112_2 C123_2 1_555 1_555
Cd1_5 O2_3 1_555 1_555
O2_3 C1_3 1_555 1_555
O3_3 Cd1_5 1_555 1_555
O4_5 Cd1_5 1_555 1_555
C1_3 O3_3 1_555 1_555
C2_3 C1_3 1_555 1_555
C3_3 C2_3 1_555 1_555
H1_3 C3_3 1_555 1_555
C4_3 C3_3 1_555 1_555
C5_3 C4_3 1_555 1_555
C6_3 C5_3 1_555 1_555
H2_3 C6_3 1_555 1_555
C7_3 C2_3 1_555 1_555
H3_3 C7_3 1_555 1_555
C8_3 C4_3 1_555 1_555
C9_3 C8_3 1_555 1_555
C10_3 C5_3 1_555 1_555
C11_3 C8_3 1_555 1_555
H4_3 C11_3 1_555 1_555
H5_3 C11_3 1_555 1_555
C12_3 C11_3 1_555 1_555
H6_3 C12_3 1_555 1_555
H7_3 C12_3 1_555 1_555
H8_3 C12_3 1_555 1_555
C13_3 C8_3 1_555 1_555
H9_3 C13_3 1_555 1_555
H10_3 C13_3 1_555 1_555
C14_3 C13_3 1_555 1_555
H11_3 C14_3 1_555 1_555
H12_3 C14_3 1_555 1_555
H13_3 C14_3 1_555 1_555
O5_5 Cd1_5 1_555 1_555
Cd2_5 O3_3 1_555 1_555
Cd18_3 O4_5 1_555 1_555
Cd17_3 O4_5 1_555 1_555
Cd5_3 O13_3 1_555 1_555
Cd6_3 O19_3 1_555 1_555
Cd16_2 O14_3 1_555 1_555
Cd8_3 O29_3 1_555 1_555
Cd7 O34_3 1_555 1_555
O9_3 Cd18_3 1_555 1_555
O11_3 Cd2_5 1_555 1_555
O13_3 C16_3 1_555 1_555
O14_3 C17_3 1_555 1_555
O19_3 C24_3 1_555 1_555
O8 C25_3 1_555 1_555
O21_3 Cd1_5 1_555 1_555
O24_3 Cd2_5 1_555 1_555
O28_3 Cd5_3 1_555 1_555
O29_3 Cd16_2 1_555 1_555
O34_3 Cd6_3 1_555 1_555
C15_3 O11_3 1_555 1_555
C16_3 O28_3 1_555 1_555
C17_3 O29_3 1_555 1_555
C24_3 O34_3 1_555 1_555
C25_3 O27 1_555 1_555
C26_3 C15_3 1_555 1_555
C27_3 C16_3 1_555 1_555
C28_3 C17_3 1_555 1_555
C35_3 C24_3 1_555 1_555
C36_3 C25_3 1_555 1_555
C37_3 C26_3 1_555 1_555
C38_3 C27_3 1_555 1_555
C39_3 C28_3 1_555 1_555
C46_3 C35_3 1_555 1_555
C47_3 C36_3 1_555 1_555
H14_3 C37_3 1_555 1_555
H15_3 C38_3 1_555 1_555
H16_3 C39_3 1_555 1_555
H23_3 C46_3 1_555 1_555
H24_3 C47_3 1_555 1_555
C48_3 C37_3 1_555 1_555
C49_3 C38_3 1_555 1_555
C50_3 C39_3 1_555 1_555
C57_3 C46_3 1_555 1_555
C58_3 C47_3 1_555 1_555
C59_3 C48_3 1_555 1_555
C60_3 C50_3 1_555 1_555
C61_3 C49_3 1_555 1_555
C68_3 C57_3 1_555 1_555
C69_3 C58_3 1_555 1_555
C70_3 C59_3 1_555 1_555
C71_3 C60_3 1_555 1_555
C72_3 C61_3 1_555 1_555
C79_3 C68_3 1_555 1_555
C80_3 C69_3 1_555 1_555
H25_3 C70_3 1_555 1_555
H26_3 C71_3 1_555 1_555
H27_3 C72_3 1_555 1_555
H34_3 C79_3 1_555 1_555
H35_3 C80_3 1_555 1_555
C81_3 C26_3 1_555 1_555
C82_3 C28_3 1_555 1_555
C83_3 C27_3 1_555 1_555
C90_3 C35_3 1_555 1_555
C91_3 C36_3 1_555 1_555
H36_3 C81_3 1_555 1_555
H37_3 C82_3 1_555 1_555
H38_3 C83_3 1_555 1_555
H45_3 C90_3 1_555 1_555
H46_3 C91_3 1_555 1_555
C92_3 C48_3 1_555 1_555
C93_3 C49_3 1_555 1_555
C94_3 C50_3 1_555 1_555
C101_3 C58_3 1_555 1_555
C102_3 C57_3 1_555 1_555
C103_3 C10_3 1_555 1_555
C104_3 C92_3 1_555 1_555
C105_3 C93_3 1_555 1_555
C106_3 C94_3 1_555 1_555
C113_3 C102_3 1_555 1_555
C114_3 C9_3 1_555 1_555
C115_3 C59_3 1_555 1_555
C116_3 C60_3 1_555 1_555
C117_3 C61_3 1_555 1_555
C124_3 C69_3 1_555 1_555
C125_3 C92_3 1_555 1_555
C126_3 C93_3 1_555 1_555
C127_3 C94_3 1_555 1_555
C134_3 C101_3 1_555 1_555
C135_3 C102_3 1_555 1_555
H47_3 C125_3 1_555 1_555
H48_3 C126_3 1_555 1_555
H49_3 C127_3 1_555 1_555
H56_3 C134_3 1_555 1_555
H57_3 C135_3 1_555 1_555
H58_3 C125_3 1_555 1_555
H59_3 C126_3 1_555 1_555
H60_3 C127_3 1_555 1_555
H67_3 C134_3 1_555 1_555
H68_3 C135_3 1_555 1_555
C136_3 C125_3 1_555 1_555
C137_3 C126_3 1_555 1_555
C138_3 C127_3 1_555 1_555
C145_3 C134_3 1_555 1_555
C146_3 C135_3 1_555 1_555
H69_3 C136_3 1_555 1_555
H70_3 C137_3 1_555 1_555
H71_3 C138_3 1_555 1_555
H78_3 C145_3 1_555 1_555
H79_3 C146_3 1_555 1_555
H80_3 C136_3 1_555 1_555
H81_3 C137_3 1_555 1_555
H82_3 C138_3 1_555 1_555
H89_3 C145_3 1_555 1_555
H90_3 C146_3 1_555 1_555
H91_3 C136_3 1_555 1_555
H92_3 C137_3 1_555 1_555
H93_3 C138_3 1_555 1_555
H100_3 C145_3 1_555 1_555
H101_3 C146_3 1_555 1_555
C147_3 C92_3 1_555 1_555
C148_3 C93_3 1_555 1_555
C149_3 C94_3 1_555 1_555
C156_3 C101_3 1_555 1_555
C157_3 C102_3 1_555 1_555
H102_3 C147_3 1_555 1_555
H103_3 C148_3 1_555 1_555
H104_3 C149_3 1_555 1_555
H111_3 C156_3 1_555 1_555
H112_3 C157_3 1_555 1_555
H113_3 C147_3 1_555 1_555
H114_3 C148_3 1_555 1_555
H115_3 C149_3 1_555 1_555
H122_3 C156_3 1_555 1_555
H123_3 C157_3 1_555 1_555
C158_3 C147_3 1_555 1_555
C159_3 C148_3 1_555 1_555
C160_3 C149_3 1_555 1_555
C167_3 C156_3 1_555 1_555
C168_3 C157_3 1_555 1_555
H124_3 C158_3 1_555 1_555
H125_3 C159_3 1_555 1_555
H126_3 C160_3 1_555 1_555
H133_3 C167_3 1_555 1_555
H134_3 C168_3 1_555 1_555
H135_3 C158_3 1_555 1_555
H136_3 C159_3 1_555 1_555
H137_3 C160_3 1_555 1_555
H144_3 C167_3 1_555 1_555
H145_3 C168_3 1_555 1_555
H146_3 C158_3 1_555 1_555
H147_3 C159_3 1_555 1_555
H148_3 C160_3 1_555 1_555
H155_3 C167_3 1_555 1_555
H156_3 C168_3 1_555 1_555
O36_5 Cd17_3 1_555 1_555
O37_5 Cd18_3 1_555 1_555
O38_5 Cd2_5 1_555 1_555
O4_5 Cd2_5 1_555 1_555
C6_3 C7_3 1_555 1_555
C9_3 C10_3 1_555 1_555
Cd18_3 O21_3 1_555 1_555
Cd17_3 O24_3 1_555 1_555
Cd6_3 O28_3 1_555 1_555
O24_3 C15_3 1_555 1_555
C68_3 C114_3 1_555 1_555
C70_3 C81_3 1_555 1_555
C71_3 C82_3 1_555 1_555
C72_3 C83_3 1_555 1_555
C79_3 C90_3 1_555 1_555
C80_3 C91_3 1_555 1_555
C101_3 C103_3 1_555 1_555
C103_3 C124_3 1_555 1_555
C104_3 C115_3 1_555 1_555
C104_3 C116_3 1_555 1_555
C105_3 C115_3 1_555 1_555
C105_3 C117_3 1_555 1_555
C106_3 C116_3 1_555 1_555
C106_3 C117_3 1_555 1_555
C113_3 C114_3 1_555 1_555
C113_3 C124_3 1_555 1_555
O4_6 Cd1_6 1_555 1_555
O5_6 Cd1_6 1_555 1_555
Cd18_4 O4_6 1_555 1_555
Cd17_4 O4_6 1_555 1_555
Cd9_5 O15_3 1_555 1_555
Cd10_5 O18_3 1_555 1_555
Cd11_5 O16_3 1_555 1_555
Cd12_5 O31_3 1_555 1_555
Cd13_3 O17_3 1_555 1_555
Cd14_3 O32_3 1_555 1_555
Cd15_5 O33_3 1_555 1_555
O6_3 Cd1_6 1_555 1_555
O7_3 Cd17_4 1_555 1_555
O10_3 Cd18_4 1_555 1_555
O12_3 Cd2_6 1_555 1_555
O15_3 C19_3 1_555 1_555
O16_3 C20_3 1_555 1_555
O17_3 C22_3 1_555 1_555
O18_3 C23_3 1_555 1_555
O22_3 Cd1_6 1_555 1_555
O23_3 Cd1_6 1_555 1_555
O25_3 Cd18_4 1_555 1_555
O26_3 Cd2_6 1_555 1_555
O30_3 Cd9_5 1_555 1_555
O31_3 Cd11_5 1_555 1_555
O32_3 Cd13_3 1_555 1_555
O33_3 Cd10_5 1_555 1_555
C18_3 O10_3 1_555 1_555
C19_3 O30_3 1_555 1_555
C20_3 O31_3 1_555 1_555
C21_3 O7_3 1_555 1_555
C22_3 O32_3 1_555 1_555
C23_3 O33_3 1_555 1_555
C29_3 C18_3 1_555 1_555
C30_3 C19_3 1_555 1_555
C31_3 C20_3 1_555 1_555
C32_3 C21_3 1_555 1_555
C33_3 C22_3 1_555 1_555
C34_3 C23_3 1_555 1_555
C40_3 C29_3 1_555 1_555
C41_3 C30_3 1_555 1_555
C42_3 C31_3 1_555 1_555
C43_3 C32_3 1_555 1_555
C44_3 C33_3 1_555 1_555
C45_3 C34_3 1_555 1_555
H17_3 C40_3 1_555 1_555
H18_3 C41_3 1_555 1_555
H19_3 C42_3 1_555 1_555
H20_3 C43_3 1_555 1_555
H21_3 C44_3 1_555 1_555
H22_3 C45_3 1_555 1_555
C51_3 C40_3 1_555 1_555
C52_3 C41_3 1_555 1_555
C53_3 C42_3 1_555 1_555
C54_3 C43_3 1_555 1_555
C55_3 C44_3 1_555 1_555
C56_3 C45_3 1_555 1_555
C62_3 C51_3 1_555 1_555
C63_3 C53_3 1_555 1_555
C64_3 C52_3 1_555 1_555
C65_3 C54_3 1_555 1_555
C66_3 C56_3 1_555 1_555
C67_3 C55_3 1_555 1_555
C73_3 C62_3 1_555 1_555
C74_3 C63_3 1_555 1_555
C75_3 C64_3 1_555 1_555
C76_3 C65_3 1_555 1_555
C77_3 C66_3 1_555 1_555
C78_3 C67_3 1_555 1_555
H28_3 C73_3 1_555 1_555
H29_3 C74_3 1_555 1_555
H30_3 C75_3 1_555 1_555
H31_3 C76_3 1_555 1_555
H32_3 C77_3 1_555 1_555
H33_3 C78_3 1_555 1_555
C84_3 C29_3 1_555 1_555
C85_3 C31_3 1_555 1_555
C86_3 C30_3 1_555 1_555
C87_3 C32_3 1_555 1_555
C88_3 C34_3 1_555 1_555
C89_3 C33_3 1_555 1_555
H39_3 C84_3 1_555 1_555
H40_3 C85_3 1_555 1_555
H41_3 C86_3 1_555 1_555
H42_3 C87_3 1_555 1_555
H43_3 C88_3 1_555 1_555
H44_3 C89_3 1_555 1_555
C95_3 C51_3 1_555 1_555
C96_3 C52_3 1_555 1_555
C97_3 C53_3 1_555 1_555
C98_3 C54_3 1_555 1_555
C99_3 C55_3 1_555 1_555
C100_3 C56_3 1_555 1_555
C107_3 C95_3 1_555 1_555
C108_3 C96_3 1_555 1_555
C109_3 C97_3 1_555 1_555
C110_3 C98_3 1_555 1_555
C111_3 C99_3 1_555 1_555
C112_3 C100_3 1_555 1_555
C118_3 C62_3 1_555 1_555
C119_3 C63_3 1_555 1_555
C120_3 C64_3 1_555 1_555
C121_3 C65_3 1_555 1_555
C122_3 C66_3 1_555 1_555
C123_3 C67_3 1_555 1_555
C128_3 C95_3 1_555 1_555
C129_3 C96_3 1_555 1_555
C130_3 C97_3 1_555 1_555
C131_3 C98_3 1_555 1_555
C132_3 C99_3 1_555 1_555
C133_3 C100_3 1_555 1_555
H50_3 C128_3 1_555 1_555
H51_3 C129_3 1_555 1_555
H52_3 C130_3 1_555 1_555
H53_3 C131_3 1_555 1_555
H54_3 C132_3 1_555 1_555
H55_3 C133_3 1_555 1_555
H61_3 C128_3 1_555 1_555
H62_3 C129_3 1_555 1_555
H63_3 C130_3 1_555 1_555
H64_3 C131_3 1_555 1_555
H65_3 C132_3 1_555 1_555
H66_3 C133_3 1_555 1_555
C139_3 C128_3 1_555 1_555
C140_3 C129_3 1_555 1_555
C141_3 C130_3 1_555 1_555
C142_3 C131_3 1_555 1_555
C143_3 C132_3 1_555 1_555
C144_3 C133_3 1_555 1_555
H72_3 C139_3 1_555 1_555
H73_3 C140_3 1_555 1_555
H74_3 C141_3 1_555 1_555
H75_3 C142_3 1_555 1_555
H76_3 C143_3 1_555 1_555
H77_3 C144_3 1_555 1_555
H83_3 C139_3 1_555 1_555
H84_3 C140_3 1_555 1_555
H85_3 C141_3 1_555 1_555
H86_3 C142_3 1_555 1_555
H87_3 C143_3 1_555 1_555
H88_3 C144_3 1_555 1_555
H94_3 C139_3 1_555 1_555
H95_3 C140_3 1_555 1_555
H96_3 C141_3 1_555 1_555
H97_3 C142_3 1_555 1_555
H98_3 C143_3 1_555 1_555
H99_3 C144_3 1_555 1_555
C150_3 C95_3 1_555 1_555
C151_3 C96_3 1_555 1_555
C152_3 C97_3 1_555 1_555
C153_3 C98_3 1_555 1_555
C154_3 C99_3 1_555 1_555
C155_3 C100_3 1_555 1_555
H105_3 C150_3 1_555 1_555
H106_3 C151_3 1_555 1_555
H107_3 C152_3 1_555 1_555
H108_3 C153_3 1_555 1_555
H109_3 C154_3 1_555 1_555
H110_3 C155_3 1_555 1_555
H116_3 C150_3 1_555 1_555
H117_3 C151_3 1_555 1_555
H118_3 C152_3 1_555 1_555
H119_3 C153_3 1_555 1_555
H120_3 C154_3 1_555 1_555
H121_3 C155_3 1_555 1_555
C161_3 C150_3 1_555 1_555
C162_3 C151_3 1_555 1_555
C163_3 C152_3 1_555 1_555
C164_3 C153_3 1_555 1_555
C165_3 C154_3 1_555 1_555
C166_3 C155_3 1_555 1_555
H127_3 C161_3 1_555 1_555
H128_3 C162_3 1_555 1_555
H129_3 C163_3 1_555 1_555
H130_3 C164_3 1_555 1_555
H131_3 C165_3 1_555 1_555
H132_3 C166_3 1_555 1_555
H138_3 C161_3 1_555 1_555
H139_3 C162_3 1_555 1_555
H140_3 C163_3 1_555 1_555
H141_3 C164_3 1_555 1_555
H142_3 C165_3 1_555 1_555
H143_3 C166_3 1_555 1_555
H149_3 C161_3 1_555 1_555
H150_3 C162_3 1_555 1_555
H151_3 C163_3 1_555 1_555
H152_3 C164_3 1_555 1_555
H153_3 C165_3 1_555 1_555
H154_3 C166_3 1_555 1_555
O36_6 Cd17_4 1_555 1_555
O37_6 Cd18_4 1_555 1_555
O38_6 Cd2_6 1_555 1_555
O4_6 Cd2_6 1_555 1_555
Cd2_6 O22_3 1_555 1_555
Cd18_4 O23_3 1_555 1_555
Cd17_4 O25_3 1_555 1_555
Cd17_4 O26_3 1_555 1_555
Cd10_5 O30_3 1_555 1_555
O23_3 C18_3 1_555 1_555
O25_3 C21_3 1_555 1_555
C73_3 C84_3 1_555 1_555
C74_3 C85_3 1_555 1_555
C75_3 C86_3 1_555 1_555
C76_3 C87_3 1_555 1_555
C77_3 C88_3 1_555 1_555
C78_3 C89_3 1_555 1_555
C107_3 C118_3 1_555 1_555
C107_3 C119_3 1_555 1_555
C108_3 C118_3 1_555 1_555
C108_3 C120_3 1_555 1_555
C109_3 C119_3 1_555 1_555
C109_3 C120_3 1_555 1_555
C110_3 C121_3 1_555 1_555
C110_3 C122_3 1_555 1_555
C111_3 C121_3 1_555 1_555
C111_3 C123_3 1_555 1_555
C112_3 C122_3 1_555 1_555
C112_3 C123_3 1_555 1_555
Cd1_7 O2_4 1_555 1_555
O2_4 C1_4 1_555 1_555
O3_4 Cd1_7 1_555 1_555
O4_7 Cd1_7 1_555 1_555
C1_4 O3_4 1_555 1_555
C2_4 C1_4 1_555 1_555
C3_4 C2_4 1_555 1_555
H1_4 C3_4 1_555 1_555
C4_4 C3_4 1_555 1_555
C5_4 C4_4 1_555 1_555
C6_4 C5_4 1_555 1_555
H2_4 C6_4 1_555 1_555
C7_4 C2_4 1_555 1_555
H3_4 C7_4 1_555 1_555
C8_4 C4_4 1_555 1_555
C9_4 C8_4 1_555 1_555
C10_4 C5_4 1_555 1_555
C11_4 C8_4 1_555 1_555
H4_4 C11_4 1_555 1_555
H5_4 C11_4 1_555 1_555
C12_4 C11_4 1_555 1_555
H6_4 C12_4 1_555 1_555
H7_4 C12_4 1_555 1_555
H8_4 C12_4 1_555 1_555
C13_4 C8_4 1_555 1_555
H9_4 C13_4 1_555 1_555
H10_4 C13_4 1_555 1_555
C14_4 C13_4 1_555 1_555
H11_4 C14_4 1_555 1_555
H12_4 C14_4 1_555 1_555
H13_4 C14_4 1_555 1_555
O5_7 Cd1_7 1_555 1_555
Cd13 O3_4 1_555 1_555
Cd3_3 O4_7 1_555 1_555
Cd14 O4_7 1_555 1_555
Cd5_4 O13_4 1_555 1_555
Cd6_4 O19_4 1_555 1_555
Cd7_3 O14_4 1_555 1_555
Cd9_4 O29_4 1_555 1_555
Cd9_7 O15_4 1_555 1_555
Cd10_7 O18_4 1_555 1_555
Cd8_3 O16_4 1_555 1_555
Cd5_2 O31_4 1_555 1_555
Cd15_7 O33_4 1_555 1_555
Cd16_3 O34_4 1_555 1_555
Cd17_5 O20_3 1_555 1_555
Cd18_5 O35_3 1_555 1_555
O6_4 Cd1_7 1_555 1_555
O7_4 Cd14 1_555 1_555
O8_2 Cd14 1_555 1_555
O9_4 Cd3_3 1_555 1_555
O10_4 Cd3_3 1_555 1_555
O11_4 Cd13 1_555 1_555
O13_4 C16_4 1_555 1_555
O14_4 C17_4 1_555 1_555
O15_4 C19_4 1_555 1_555
O16_4 C20_4 1_555 1_555
O12 C22_4 1_555 1_555
O18_4 C23_4 1_555 1_555
O19_4 C24_4 1_555 1_555
O20_3 C25_4 1_555 1_555
O21_4 Cd1_7 1_555 1_555
O22_4 Cd1_7 1_555 1_555
O23_4 Cd1_7 1_555 1_555
O24_4 Cd13 1_555 1_555
O25_4 Cd3_3 1_555 1_555
O27_2 Cd3_3 1_555 1_555
O28_4 Cd5_4 1_555 1_555
O29_4 Cd7_3 1_555 1_555
O30_4 Cd9_7 1_555 1_555
O31_4 Cd8_3 1_555 1_555
O33_4 Cd10_7 1_555 1_555
O34_4 Cd6_4 1_555 1_555
O35_3 Cd17_5 1_555 1_555
C15_4 O11_4 1_555 1_555
C16_4 O28_4 1_555 1_555
C17_4 O29_4 1_555 1_555
C18_4 O10_4 1_555 1_555
C19_4 O30_4 1_555 1_555
C20_4 O31_4 1_555 1_555
C21_4 O7_4 1_555 1_555
C22_4 O26 1_555 1_555
C23_4 O33_4 1_555 1_555
C24_4 O34_4 1_555 1_555
C25_4 O35_3 1_555 1_555
C26_4 C15_4 1_555 1_555
C27_4 C16_4 1_555 1_555
C28_4 C17_4 1_555 1_555
C29_4 C18_4 1_555 1_555
C30_4 C19_4 1_555 1_555
C31_4 C20_4 1_555 1_555
C32_4 C21_4 1_555 1_555
C33_4 C22_4 1_555 1_555
C34_4 C23_4 1_555 1_555
C35_4 C24_4 1_555 1_555
C36_4 C25_4 1_555 1_555
C37_4 C26_4 1_555 1_555
C38_4 C27_4 1_555 1_555
C39_4 C28_4 1_555 1_555
C40_4 C29_4 1_555 1_555
C41_4 C30_4 1_555 1_555
C42_4 C31_4 1_555 1_555
C43_4 C32_4 1_555 1_555
C44_4 C33_4 1_555 1_555
C45_4 C34_4 1_555 1_555
C46_4 C35_4 1_555 1_555
C47_4 C36_4 1_555 1_555
H14_4 C37_4 1_555 1_555
H15_4 C38_4 1_555 1_555
H16_4 C39_4 1_555 1_555
H17_4 C40_4 1_555 1_555
H18_4 C41_4 1_555 1_555
H19_4 C42_4 1_555 1_555
H20_4 C43_4 1_555 1_555
H21_4 C44_4 1_555 1_555
H22_4 C45_4 1_555 1_555
H23_4 C46_4 1_555 1_555
H24_4 C47_4 1_555 1_555
C48_4 C37_4 1_555 1_555
C49_4 C38_4 1_555 1_555
C50_4 C39_4 1_555 1_555
C51_4 C40_4 1_555 1_555
C52_4 C41_4 1_555 1_555
C53_4 C42_4 1_555 1_555
C54_4 C43_4 1_555 1_555
C55_4 C44_4 1_555 1_555
C56_4 C45_4 1_555 1_555
C57_4 C46_4 1_555 1_555
C58_4 C47_4 1_555 1_555
C59_4 C48_4 1_555 1_555
C60_4 C50_4 1_555 1_555
C61_4 C49_4 1_555 1_555
C62_4 C51_4 1_555 1_555
C63_4 C53_4 1_555 1_555
C64_4 C52_4 1_555 1_555
C65_4 C54_4 1_555 1_555
C66_4 C56_4 1_555 1_555
C67_4 C55_4 1_555 1_555
C68_4 C57_4 1_555 1_555
C69_4 C58_4 1_555 1_555
C70_4 C59_4 1_555 1_555
C71_4 C60_4 1_555 1_555
C72_4 C61_4 1_555 1_555
C73_4 C62_4 1_555 1_555
C74_4 C63_4 1_555 1_555
C75_4 C64_4 1_555 1_555
C76_4 C65_4 1_555 1_555
C77_4 C66_4 1_555 1_555
C78_4 C67_4 1_555 1_555
C79_4 C68_4 1_555 1_555
C80_4 C69_4 1_555 1_555
H25_4 C70_4 1_555 1_555
H26_4 C71_4 1_555 1_555
H27_4 C72_4 1_555 1_555
H28_4 C73_4 1_555 1_555
H29_4 C74_4 1_555 1_555
H30_4 C75_4 1_555 1_555
H31_4 C76_4 1_555 1_555
H32_4 C77_4 1_555 1_555
H33_4 C78_4 1_555 1_555
H34_4 C79_4 1_555 1_555
H35_4 C80_4 1_555 1_555
C81_4 C26_4 1_555 1_555
C82_4 C28_4 1_555 1_555
C83_4 C27_4 1_555 1_555
C84_4 C29_4 1_555 1_555
C85_4 C31_4 1_555 1_555
C86_4 C30_4 1_555 1_555
C87_4 C32_4 1_555 1_555
C88_4 C34_4 1_555 1_555
C89_4 C33_4 1_555 1_555
C90_4 C35_4 1_555 1_555
C91_4 C36_4 1_555 1_555
H36_4 C81_4 1_555 1_555
H37_4 C82_4 1_555 1_555
H38_4 C83_4 1_555 1_555
H39_4 C84_4 1_555 1_555
H40_4 C85_4 1_555 1_555
H41_4 C86_4 1_555 1_555
H42_4 C87_4 1_555 1_555
H43_4 C88_4 1_555 1_555
H44_4 C89_4 1_555 1_555
H45_4 C90_4 1_555 1_555
H46_4 C91_4 1_555 1_555
C92_4 C48_4 1_555 1_555
C93_4 C49_4 1_555 1_555
C94_4 C50_4 1_555 1_555
C95_4 C51_4 1_555 1_555
C96_4 C52_4 1_555 1_555
C97_4 C53_4 1_555 1_555
C98_4 C54_4 1_555 1_555
C99_4 C55_4 1_555 1_555
C100_4 C56_4 1_555 1_555
C101_4 C58_4 1_555 1_555
C102_4 C57_4 1_555 1_555
C103_4 C10_4 1_555 1_555
C104_4 C92_4 1_555 1_555
C105_4 C93_4 1_555 1_555
C106_4 C94_4 1_555 1_555
C107_4 C95_4 1_555 1_555
C108_4 C96_4 1_555 1_555
C109_4 C97_4 1_555 1_555
C110_4 C98_4 1_555 1_555
C111_4 C99_4 1_555 1_555
C112_4 C100_4 1_555 1_555
C113_4 C102_4 1_555 1_555
C114_4 C9_4 1_555 1_555
C115_4 C59_4 1_555 1_555
C116_4 C60_4 1_555 1_555
C117_4 C61_4 1_555 1_555
C118_4 C62_4 1_555 1_555
C119_4 C63_4 1_555 1_555
C120_4 C64_4 1_555 1_555
C121_4 C65_4 1_555 1_555
C122_4 C66_4 1_555 1_555
C123_4 C67_4 1_555 1_555
C124_4 C69_4 1_555 1_555
C125_4 C92_4 1_555 1_555
C126_4 C93_4 1_555 1_555
C127_4 C94_4 1_555 1_555
C128_4 C95_4 1_555 1_555
C129_4 C96_4 1_555 1_555
C130_4 C97_4 1_555 1_555
C131_4 C98_4 1_555 1_555
C132_4 C99_4 1_555 1_555
C133_4 C100_4 1_555 1_555
C134_4 C101_4 1_555 1_555
C135_4 C102_4 1_555 1_555
H47_4 C125_4 1_555 1_555
H48_4 C126_4 1_555 1_555
H49_4 C127_4 1_555 1_555
H50_4 C128_4 1_555 1_555
H51_4 C129_4 1_555 1_555
H52_4 C130_4 1_555 1_555
H53_4 C131_4 1_555 1_555
H54_4 C132_4 1_555 1_555
H55_4 C133_4 1_555 1_555
H56_4 C134_4 1_555 1_555
H57_4 C135_4 1_555 1_555
H58_4 C125_4 1_555 1_555
H59_4 C126_4 1_555 1_555
H60_4 C127_4 1_555 1_555
H61_4 C128_4 1_555 1_555
H62_4 C129_4 1_555 1_555
H63_4 C130_4 1_555 1_555
H64_4 C131_4 1_555 1_555
H65_4 C132_4 1_555 1_555
H66_4 C133_4 1_555 1_555
H67_4 C134_4 1_555 1_555
H68_4 C135_4 1_555 1_555
C136_4 C125_4 1_555 1_555
C137_4 C126_4 1_555 1_555
C138_4 C127_4 1_555 1_555
C139_4 C128_4 1_555 1_555
C140_4 C129_4 1_555 1_555
C141_4 C130_4 1_555 1_555
C142_4 C131_4 1_555 1_555
C143_4 C132_4 1_555 1_555
C144_4 C133_4 1_555 1_555
C145_4 C134_4 1_555 1_555
C146_4 C135_4 1_555 1_555
H69_4 C136_4 1_555 1_555
H70_4 C137_4 1_555 1_555
H71_4 C138_4 1_555 1_555
H72_4 C139_4 1_555 1_555
H73_4 C140_4 1_555 1_555
H74_4 C141_4 1_555 1_555
H75_4 C142_4 1_555 1_555
H76_4 C143_4 1_555 1_555
H77_4 C144_4 1_555 1_555
H78_4 C145_4 1_555 1_555
H79_4 C146_4 1_555 1_555
H80_4 C136_4 1_555 1_555
H81_4 C137_4 1_555 1_555
H82_4 C138_4 1_555 1_555
H83_4 C139_4 1_555 1_555
H84_4 C140_4 1_555 1_555
H85_4 C141_4 1_555 1_555
H86_4 C142_4 1_555 1_555
H87_4 C143_4 1_555 1_555
H88_4 C144_4 1_555 1_555
H89_4 C145_4 1_555 1_555
H90_4 C146_4 1_555 1_555
H91_4 C136_4 1_555 1_555
H92_4 C137_4 1_555 1_555
H93_4 C138_4 1_555 1_555
H94_4 C139_4 1_555 1_555
H95_4 C140_4 1_555 1_555
H96_4 C141_4 1_555 1_555
H97_4 C142_4 1_555 1_555
H98_4 C143_4 1_555 1_555
H99_4 C144_4 1_555 1_555
H100_4 C145_4 1_555 1_555
H101_4 C146_4 1_555 1_555
C147_4 C92_4 1_555 1_555
C148_4 C93_4 1_555 1_555
C149_4 C94_4 1_555 1_555
C150_4 C95_4 1_555 1_555
C151_4 C96_4 1_555 1_555
C152_4 C97_4 1_555 1_555
C153_4 C98_4 1_555 1_555
C154_4 C99_4 1_555 1_555
C155_4 C100_4 1_555 1_555
C156_4 C101_4 1_555 1_555
C157_4 C102_4 1_555 1_555
H102_4 C147_4 1_555 1_555
H103_4 C148_4 1_555 1_555
H104_4 C149_4 1_555 1_555
H105_4 C150_4 1_555 1_555
H106_4 C151_4 1_555 1_555
H107_4 C152_4 1_555 1_555
H108_4 C153_4 1_555 1_555
H109_4 C154_4 1_555 1_555
H110_4 C155_4 1_555 1_555
H111_4 C156_4 1_555 1_555
H112_4 C157_4 1_555 1_555
H113_4 C147_4 1_555 1_555
H114_4 C148_4 1_555 1_555
H115_4 C149_4 1_555 1_555
H116_4 C150_4 1_555 1_555
H117_4 C151_4 1_555 1_555
H118_4 C152_4 1_555 1_555
H119_4 C153_4 1_555 1_555
H120_4 C154_4 1_555 1_555
H121_4 C155_4 1_555 1_555
H122_4 C156_4 1_555 1_555
H123_4 C157_4 1_555 1_555
C158_4 C147_4 1_555 1_555
C159_4 C148_4 1_555 1_555
C160_4 C149_4 1_555 1_555
C161_4 C150_4 1_555 1_555
C162_4 C151_4 1_555 1_555
C163_4 C152_4 1_555 1_555
C164_4 C153_4 1_555 1_555
C165_4 C154_4 1_555 1_555
C166_4 C155_4 1_555 1_555
C167_4 C156_4 1_555 1_555
C168_4 C157_4 1_555 1_555
H124_4 C158_4 1_555 1_555
H125_4 C159_4 1_555 1_555
H126_4 C160_4 1_555 1_555
H127_4 C161_4 1_555 1_555
H128_4 C162_4 1_555 1_555
H129_4 C163_4 1_555 1_555
H130_4 C164_4 1_555 1_555
H131_4 C165_4 1_555 1_555
H132_4 C166_4 1_555 1_555
H133_4 C167_4 1_555 1_555
H134_4 C168_4 1_555 1_555
H135_4 C158_4 1_555 1_555
H136_4 C159_4 1_555 1_555
H137_4 C160_4 1_555 1_555
H138_4 C161_4 1_555 1_555
H139_4 C162_4 1_555 1_555
H140_4 C163_4 1_555 1_555
H141_4 C164_4 1_555 1_555
H142_4 C165_4 1_555 1_555
H143_4 C166_4 1_555 1_555
H144_4 C167_4 1_555 1_555
H145_4 C168_4 1_555 1_555
H146_4 C158_4 1_555 1_555
H147_4 C159_4 1_555 1_555
H148_4 C160_4 1_555 1_555
H149_4 C161_4 1_555 1_555
H150_4 C162_4 1_555 1_555
H151_4 C163_4 1_555 1_555
H152_4 C164_4 1_555 1_555
H153_4 C165_4 1_555 1_555
H154_4 C166_4 1_555 1_555
H155_4 C167_4 1_555 1_555
H156_4 C168_4 1_555 1_555
O36_7 Cd14 1_555 1_555
O37_7 Cd3_3 1_555 1_555
O38_7 Cd13 1_555 1_555
O4_7 Cd13 1_555 1_555
C6_4 C7_4 1_555 1_555
C9_4 C10_4 1_555 1_555
Cd13 O22_4 1_555 1_555
Cd3_3 O21_4 1_555 1_555
Cd3_3 O23_4 1_555 1_555
Cd14 O24_4 1_555 1_555
Cd14 O25_4 1_555 1_555
Cd14 O27_2 1_555 1_555
Cd6_4 O28_4 1_555 1_555
Cd10_7 O30_4 1_555 1_555
O23_4 C18_4 1_555 1_555
O24_4 C15_4 1_555 1_555
O25_4 C21_4 1_555 1_555
C68_4 C114_4 1_555 1_555
C70_4 C81_4 1_555 1_555
C71_4 C82_4 1_555 1_555
C72_4 C83_4 1_555 1_555
C73_4 C84_4 1_555 1_555
C74_4 C85_4 1_555 1_555
C75_4 C86_4 1_555 1_555
C76_4 C87_4 1_555 1_555
C77_4 C88_4 1_555 1_555
C78_4 C89_4 1_555 1_555
C79_4 C90_4 1_555 1_555
C80_4 C91_4 1_555 1_555
C101_4 C103_4 1_555 1_555
C103_4 C124_4 1_555 1_555
C104_4 C115_4 1_555 1_555
C104_4 C116_4 1_555 1_555
C105_4 C115_4 1_555 1_555
C105_4 C117_4 1_555 1_555
C106_4 C116_4 1_555 1_555
C106_4 C117_4 1_555 1_555
C107_4 C118_4 1_555 1_555
C107_4 C119_4 1_555 1_555
C108_4 C118_4 1_555 1_555
C108_4 C120_4 1_555 1_555
C109_4 C119_4 1_555 1_555
C109_4 C120_4 1_555 1_555
C110_4 C121_4 1_555 1_555
C110_4 C122_4 1_555 1_555
C111_4 C121_4 1_555 1_555
C111_4 C123_4 1_555 1_555
C112_4 C122_4 1_555 1_555
C112_4 C123_4 1_555 1_555
C113_4 C114_4 1_555 1_555
C113_4 C124_4 1_555 1_555
Cd1_8 O2_5 1_555 1_555
O2_5 C1_5 1_555 1_555
O3_5 Cd1_8 1_555 1_555
O4_8 Cd1_8 1_555 1_555
C1_5 O3_5 1_555 1_555
C2_5 C1_5 1_555 1_555
C3_5 C2_5 1_555 1_555
H1_5 C3_5 1_555 1_555
C4_5 C3_5 1_555 1_555
C5_5 C4_5 1_555 1_555
C6_5 C5_5 1_555 1_555
H2_5 C6_5 1_555 1_555
C7_5 C2_5 1_555 1_555
H3_5 C7_5 1_555 1_555
C8_5 C4_5 1_555 1_555
C9_5 C8_5 1_555 1_555
C10_5 C5_5 1_555 1_555
C11_5 C8_5 1_555 1_555
H4_5 C11_5 1_555 1_555
H5_5 C11_5 1_555 1_555
C12_5 C11_5 1_555 1_555
H6_5 C12_5 1_555 1_555
H7_5 C12_5 1_555 1_555
H8_5 C12_5 1_555 1_555
C13_5 C8_5 1_555 1_555
H9_5 C13_5 1_555 1_555
H10_5 C13_5 1_555 1_555
C14_5 C13_5 1_555 1_555
H11_5 C14_5 1_555 1_555
H12_5 C14_5 1_555 1_555
H13_5 C14_5 1_555 1_555
O5_8 Cd1_8 1_555 1_555
Cd2_7 O3_5 1_555 1_555
Cd3_4 O4_8 1_555 1_555
Cd4_3 O4_8 1_555 1_555
Cd10_2 O13_5 1_555 1_555
Cd15_2 O19_5 1_555 1_555
Cd7_5 O14_5 1_555 1_555
Cd11_6 O29_5 1_555 1_555
Cd9_8 O15_5 1_555 1_555
Cd10_8 O18_5 1_555 1_555
Cd11_7 O16_5 1_555 1_555
Cd12_7 O31_5 1_555 1_555
Cd13_5 O17_4 1_555 1_555
Cd14_5 O32_4 1_555 1_555
Cd15_8 O33_5 1_555 1_555
Cd16_6 O34_5 1_555 1_555
Cd14_3 O20_4 1_555 1_555
Cd18_6 O35_4 1_555 1_555
O6_5 Cd1_8 1_555 1_555
O7_5 Cd4_3 1_555 1_555
O8_3 Cd4_3 1_555 1_555
O9_5 Cd3_4 1_555 1_555
O10_5 Cd3_4 1_555 1_555
O11_5 Cd2_7 1_555 1_555
O12_4 Cd2_7 1_555 1_555
O13_5 C16_5 1_555 1_555
O14_5 C17_5 1_555 1_555
O15_5 C19_5 1_555 1_555
O16_5 C20_5 1_555 1_555
O17_4 C22_5 1_555 1_555
O18_5 C23_5 1_555 1_555
O19_5 C24_5 1_555 1_555
O20_4 C25_5 1_555 1_555
O21_5 Cd1_8 1_555 1_555
O22_5 Cd1_8 1_555 1_555
O23_5 Cd1_8 1_555 1_555
O24_5 Cd2_7 1_555 1_555
O25_5 Cd3_4 1_555 1_555
O26_4 Cd2_7 1_555 1_555
O27_3 Cd3_4 1_555 1_555
O28_5 Cd10_2 1_555 1_555
O29_5 Cd7_5 1_555 1_555
O30_5 Cd9_8 1_555 1_555
O31_5 Cd11_7 1_555 1_555
O32_4 Cd13_5 1_555 1_555
O33_5 Cd10_8 1_555 1_555
O34_5 Cd15_2 1_555 1_555
O35_4 Cd14_3 1_555 1_555
C15_5 O11_5 1_555 1_555
C16_5 O28_5 1_555 1_555
C17_5 O29_5 1_555 1_555
C18_5 O10_5 1_555 1_555
C19_5 O30_5 1_555 1_555
C20_5 O31_5 1_555 1_555
C21_5 O7_5 1_555 1_555
C22_5 O32_4 1_555 1_555
C23_5 O33_5 1_555 1_555
C24_5 O34_5 1_555 1_555
C25_5 O35_4 1_555 1_555
C26_5 C15_5 1_555 1_555
C27_5 C16_5 1_555 1_555
C28_5 C17_5 1_555 1_555
C29_5 C18_5 1_555 1_555
C30_5 C19_5 1_555 1_555
C31_5 C20_5 1_555 1_555
C32_5 C21_5 1_555 1_555
C33_5 C22_5 1_555 1_555
C34_5 C23_5 1_555 1_555
C35_5 C24_5 1_555 1_555
C36_5 C25_5 1_555 1_555
C37_5 C26_5 1_555 1_555
C38_5 C27_5 1_555 1_555
C39_5 C28_5 1_555 1_555
C40_5 C29_5 1_555 1_555
C41_5 C30_5 1_555 1_555
C42_5 C31_5 1_555 1_555
C43_5 C32_5 1_555 1_555
C44_5 C33_5 1_555 1_555
C45_5 C34_5 1_555 1_555
C46_5 C35_5 1_555 1_555
C47_5 C36_5 1_555 1_555
H14_5 C37_5 1_555 1_555
H15_5 C38_5 1_555 1_555
H16_5 C39_5 1_555 1_555
H17_5 C40_5 1_555 1_555
H18_5 C41_5 1_555 1_555
H19_5 C42_5 1_555 1_555
H20_5 C43_5 1_555 1_555
H21_5 C44_5 1_555 1_555
H22_5 C45_5 1_555 1_555
H23_5 C46_5 1_555 1_555
H24_5 C47_5 1_555 1_555
C48_5 C37_5 1_555 1_555
C49_5 C38_5 1_555 1_555
C50_5 C39_5 1_555 1_555
C51_5 C40_5 1_555 1_555
C52_5 C41_5 1_555 1_555
C53_5 C42_5 1_555 1_555
C54_5 C43_5 1_555 1_555
C55_5 C44_5 1_555 1_555
C56_5 C45_5 1_555 1_555
C57_5 C46_5 1_555 1_555
C58_5 C47_5 1_555 1_555
C59_5 C48_5 1_555 1_555
C60_5 C50_5 1_555 1_555
C61_5 C49_5 1_555 1_555
C62_5 C51_5 1_555 1_555
C63_5 C53_5 1_555 1_555
C64_5 C52_5 1_555 1_555
C65_5 C54_5 1_555 1_555
C66_5 C56_5 1_555 1_555
C67_5 C55_5 1_555 1_555
C68_5 C57_5 1_555 1_555
C69_5 C58_5 1_555 1_555
C70_5 C59_5 1_555 1_555
C71_5 C60_5 1_555 1_555
C72_5 C61_5 1_555 1_555
C73_5 C62_5 1_555 1_555
C74_5 C63_5 1_555 1_555
C75_5 C64_5 1_555 1_555
C76_5 C65_5 1_555 1_555
C77_5 C66_5 1_555 1_555
C78_5 C67_5 1_555 1_555
C79_5 C68_5 1_555 1_555
C80_5 C69_5 1_555 1_555
H25_5 C70_5 1_555 1_555
H26_5 C71_5 1_555 1_555
H27_5 C72_5 1_555 1_555
H28_5 C73_5 1_555 1_555
H29_5 C74_5 1_555 1_555
H30_5 C75_5 1_555 1_555
H31_5 C76_5 1_555 1_555
H32_5 C77_5 1_555 1_555
H33_5 C78_5 1_555 1_555
H34_5 C79_5 1_555 1_555
H35_5 C80_5 1_555 1_555
C81_5 C26_5 1_555 1_555
C82_5 C28_5 1_555 1_555
C83_5 C27_5 1_555 1_555
C84_5 C29_5 1_555 1_555
C85_5 C31_5 1_555 1_555
C86_5 C30_5 1_555 1_555
C87_5 C32_5 1_555 1_555
C88_5 C34_5 1_555 1_555
C89_5 C33_5 1_555 1_555
C90_5 C35_5 1_555 1_555
C91_5 C36_5 1_555 1_555
H36_5 C81_5 1_555 1_555
H37_5 C82_5 1_555 1_555
H38_5 C83_5 1_555 1_555
H39_5 C84_5 1_555 1_555
H40_5 C85_5 1_555 1_555
H41_5 C86_5 1_555 1_555
H42_5 C87_5 1_555 1_555
H43_5 C88_5 1_555 1_555
H44_5 C89_5 1_555 1_555
H45_5 C90_5 1_555 1_555
H46_5 C91_5 1_555 1_555
C92_5 C48_5 1_555 1_555
C93_5 C49_5 1_555 1_555
C94_5 C50_5 1_555 1_555
C95_5 C51_5 1_555 1_555
C96_5 C52_5 1_555 1_555
C97_5 C53_5 1_555 1_555
C98_5 C54_5 1_555 1_555
C99_5 C55_5 1_555 1_555
C100_5 C56_5 1_555 1_555
C101_5 C58_5 1_555 1_555
C102_5 C57_5 1_555 1_555
C103_5 C10_5 1_555 1_555
C104_5 C92_5 1_555 1_555
C105_5 C93_5 1_555 1_555
C106_5 C94_5 1_555 1_555
C107_5 C95_5 1_555 1_555
C108_5 C96_5 1_555 1_555
C109_5 C97_5 1_555 1_555
C110_5 C98_5 1_555 1_555
C111_5 C99_5 1_555 1_555
C112_5 C100_5 1_555 1_555
C113_5 C102_5 1_555 1_555
C114_5 C9_5 1_555 1_555
C115_5 C59_5 1_555 1_555
C116_5 C60_5 1_555 1_555
C117_5 C61_5 1_555 1_555
C118_5 C62_5 1_555 1_555
C119_5 C63_5 1_555 1_555
C120_5 C64_5 1_555 1_555
C121_5 C65_5 1_555 1_555
C122_5 C66_5 1_555 1_555
C123_5 C67_5 1_555 1_555
C124_5 C69_5 1_555 1_555
C125_5 C92_5 1_555 1_555
C126_5 C93_5 1_555 1_555
C127_5 C94_5 1_555 1_555
C128_5 C95_5 1_555 1_555
C129_5 C96_5 1_555 1_555
C130_5 C97_5 1_555 1_555
C131_5 C98_5 1_555 1_555
C132_5 C99_5 1_555 1_555
C133_5 C100_5 1_555 1_555
C134_5 C101_5 1_555 1_555
C135_5 C102_5 1_555 1_555
H47_5 C125_5 1_555 1_555
H48_5 C126_5 1_555 1_555
H49_5 C127_5 1_555 1_555
H50_5 C128_5 1_555 1_555
H51_5 C129_5 1_555 1_555
H52_5 C130_5 1_555 1_555
H53_5 C131_5 1_555 1_555
H54_5 C132_5 1_555 1_555
H55_5 C133_5 1_555 1_555
H56_5 C134_5 1_555 1_555
H57_5 C135_5 1_555 1_555
H58_5 C125_5 1_555 1_555
H59_5 C126_5 1_555 1_555
H60_5 C127_5 1_555 1_555
H61_5 C128_5 1_555 1_555
H62_5 C129_5 1_555 1_555
H63_5 C130_5 1_555 1_555
H64_5 C131_5 1_555 1_555
H65_5 C132_5 1_555 1_555
H66_5 C133_5 1_555 1_555
H67_5 C134_5 1_555 1_555
H68_5 C135_5 1_555 1_555
C136_5 C125_5 1_555 1_555
C137_5 C126_5 1_555 1_555
C138_5 C127_5 1_555 1_555
C139_5 C128_5 1_555 1_555
C140_5 C129_5 1_555 1_555
C141_5 C130_5 1_555 1_555
C142_5 C131_5 1_555 1_555
C143_5 C132_5 1_555 1_555
C144_5 C133_5 1_555 1_555
C145_5 C134_5 1_555 1_555
C146_5 C135_5 1_555 1_555
H69_5 C136_5 1_555 1_555
H70_5 C137_5 1_555 1_555
H71_5 C138_5 1_555 1_555
H72_5 C139_5 1_555 1_555
H73_5 C140_5 1_555 1_555
H74_5 C141_5 1_555 1_555
H75_5 C142_5 1_555 1_555
H76_5 C143_5 1_555 1_555
H77_5 C144_5 1_555 1_555
H78_5 C145_5 1_555 1_555
H79_5 C146_5 1_555 1_555
H80_5 C136_5 1_555 1_555
H81_5 C137_5 1_555 1_555
H82_5 C138_5 1_555 1_555
H83_5 C139_5 1_555 1_555
H84_5 C140_5 1_555 1_555
H85_5 C141_5 1_555 1_555
H86_5 C142_5 1_555 1_555
H87_5 C143_5 1_555 1_555
H88_5 C144_5 1_555 1_555
H89_5 C145_5 1_555 1_555
H90_5 C146_5 1_555 1_555
H91_5 C136_5 1_555 1_555
H92_5 C137_5 1_555 1_555
H93_5 C138_5 1_555 1_555
H94_5 C139_5 1_555 1_555
H95_5 C140_5 1_555 1_555
H96_5 C141_5 1_555 1_555
H97_5 C142_5 1_555 1_555
H98_5 C143_5 1_555 1_555
H99_5 C144_5 1_555 1_555
H100_5 C145_5 1_555 1_555
H101_5 C146_5 1_555 1_555
C147_5 C92_5 1_555 1_555
C148_5 C93_5 1_555 1_555
C149_5 C94_5 1_555 1_555
C150_5 C95_5 1_555 1_555
C151_5 C96_5 1_555 1_555
C152_5 C97_5 1_555 1_555
C153_5 C98_5 1_555 1_555
C154_5 C99_5 1_555 1_555
C155_5 C100_5 1_555 1_555
C156_5 C101_5 1_555 1_555
C157_5 C102_5 1_555 1_555
H102_5 C147_5 1_555 1_555
H103_5 C148_5 1_555 1_555
H104_5 C149_5 1_555 1_555
H105_5 C150_5 1_555 1_555
H106_5 C151_5 1_555 1_555
H107_5 C152_5 1_555 1_555
H108_5 C153_5 1_555 1_555
H109_5 C154_5 1_555 1_555
H110_5 C155_5 1_555 1_555
H111_5 C156_5 1_555 1_555
H112_5 C157_5 1_555 1_555
H113_5 C147_5 1_555 1_555
H114_5 C148_5 1_555 1_555
H115_5 C149_5 1_555 1_555
H116_5 C150_5 1_555 1_555
H117_5 C151_5 1_555 1_555
H118_5 C152_5 1_555 1_555
H119_5 C153_5 1_555 1_555
H120_5 C154_5 1_555 1_555
H121_5 C155_5 1_555 1_555
H122_5 C156_5 1_555 1_555
H123_5 C157_5 1_555 1_555
C158_5 C147_5 1_555 1_555
C159_5 C148_5 1_555 1_555
C160_5 C149_5 1_555 1_555
C161_5 C150_5 1_555 1_555
C162_5 C151_5 1_555 1_555
C163_5 C152_5 1_555 1_555
C164_5 C153_5 1_555 1_555
C165_5 C154_5 1_555 1_555
C166_5 C155_5 1_555 1_555
C167_5 C156_5 1_555 1_555
C168_5 C157_5 1_555 1_555
H124_5 C158_5 1_555 1_555
H125_5 C159_5 1_555 1_555
H126_5 C160_5 1_555 1_555
H127_5 C161_5 1_555 1_555
H128_5 C162_5 1_555 1_555
H129_5 C163_5 1_555 1_555
H130_5 C164_5 1_555 1_555
H131_5 C165_5 1_555 1_555
H132_5 C166_5 1_555 1_555
H133_5 C167_5 1_555 1_555
H134_5 C168_5 1_555 1_555
H135_5 C158_5 1_555 1_555
H136_5 C159_5 1_555 1_555
H137_5 C160_5 1_555 1_555
H138_5 C161_5 1_555 1_555
H139_5 C162_5 1_555 1_555
H140_5 C163_5 1_555 1_555
H141_5 C164_5 1_555 1_555
H142_5 C165_5 1_555 1_555
H143_5 C166_5 1_555 1_555
H144_5 C167_5 1_555 1_555
H145_5 C168_5 1_555 1_555
H146_5 C158_5 1_555 1_555
H147_5 C159_5 1_555 1_555
H148_5 C160_5 1_555 1_555
H149_5 C161_5 1_555 1_555
H150_5 C162_5 1_555 1_555
H151_5 C163_5 1_555 1_555
H152_5 C164_5 1_555 1_555
H153_5 C165_5 1_555 1_555
H154_5 C166_5 1_555 1_555
H155_5 C167_5 1_555 1_555
H156_5 C168_5 1_555 1_555
O36_8 Cd4_3 1_555 1_555
O37_8 Cd3_4 1_555 1_555
O38_8 Cd2_7 1_555 1_555
O4_8 Cd2_7 1_555 1_555
C6_5 C7_5 1_555 1_555
C9_5 C10_5 1_555 1_555
Cd2_7 O22_5 1_555 1_555
Cd3_4 O21_5 1_555 1_555
Cd3_4 O23_5 1_555 1_555
Cd4_3 O24_5 1_555 1_555
Cd4_3 O25_5 1_555 1_555
Cd4_3 O26_4 1_555 1_555
Cd4_3 O27_3 1_555 1_555
Cd15_2 O28_5 1_555 1_555
Cd10_8 O30_5 1_555 1_555
O23_5 C18_5 1_555 1_555
O24_5 C15_5 1_555 1_555
O25_5 C21_5 1_555 1_555
C68_5 C114_5 1_555 1_555
C70_5 C81_5 1_555 1_555
C71_5 C82_5 1_555 1_555
C72_5 C83_5 1_555 1_555
C73_5 C84_5 1_555 1_555
C74_5 C85_5 1_555 1_555
C75_5 C86_5 1_555 1_555
C76_5 C87_5 1_555 1_555
C77_5 C88_5 1_555 1_555
C78_5 C89_5 1_555 1_555
C79_5 C90_5 1_555 1_555
C80_5 C91_5 1_555 1_555
C101_5 C103_5 1_555 1_555
C103_5 C124_5 1_555 1_555
C104_5 C115_5 1_555 1_555
C104_5 C116_5 1_555 1_555
C105_5 C115_5 1_555 1_555
C105_5 C117_5 1_555 1_555
C106_5 C116_5 1_555 1_555
C106_5 C117_5 1_555 1_555
C107_5 C118_5 1_555 1_555
C107_5 C119_5 1_555 1_555
C108_5 C118_5 1_555 1_555
C108_5 C120_5 1_555 1_555
C109_5 C119_5 1_555 1_555
C109_5 C120_5 1_555 1_555
C110_5 C121_5 1_555 1_555
C110_5 C122_5 1_555 1_555
C111_5 C121_5 1_555 1_555
C111_5 C123_5 1_555 1_555
C112_5 C122_5 1_555 1_555
C112_5 C123_5 1_555 1_555
C113_5 C114_5 1_555 1_555
C113_5 C124_5 1_555 1_555
Cd1_9 O2_6 1_555 1_555
O2_6 C1_6 1_555 1_555
O3_6 Cd1_9 1_555 1_555
O4_9 Cd1_9 1_555 1_555
C1_6 O3_6 1_555 1_555
C2_6 C1_6 1_555 1_555
C3_6 C2_6 1_555 1_555
H1_6 C3_6 1_555 1_555
C4_6 C3_6 1_555 1_555
C5_6 C4_6 1_555 1_555
C6_6 C5_6 1_555 1_555
H2_6 C6_6 1_555 1_555
C7_6 C2_6 1_555 1_555
H3_6 C7_6 1_555 1_555
C8_6 C4_6 1_555 1_555
C9_6 C8_6 1_555 1_555
C10_6 C5_6 1_555 1_555
C11_6 C8_6 1_555 1_555
H4_6 C11_6 1_555 1_555
H5_6 C11_6 1_555 1_555
C12_6 C11_6 1_555 1_555
H6_6 C12_6 1_555 1_555
H7_6 C12_6 1_555 1_555
H8_6 C12_6 1_555 1_555
C13_6 C8_6 1_555 1_555
H9_6 C13_6 1_555 1_555
H10_6 C13_6 1_555 1_555
C14_6 C13_6 1_555 1_555
H11_6 C14_6 1_555 1_555
H12_6 C14_6 1_555 1_555
H13_6 C14_6 1_555 1_555
O5_9 Cd1_9 1_555 1_555
Cd2_8 O3_6 1_555 1_555
Cd3_5 O4_9 1_555 1_555
Cd4_4 O4_9 1_555 1_555
Cd12_4 O13_6 1_555 1_555
Cd6_7 O19_6 1_555 1_555
Cd14_4 O14_6 1_555 1_555
Cd8_4 O29_6 1_555 1_555
Cd8_2 O15_6 1_555 1_555
Cd5 O18_6 1_555 1_555
Cd18_6 O16_6 1_555 1_555
Cd12_8 O31_6 1_555 1_555
Cd13_6 O17_5 1_555 1_555
Cd7_4 O32_5 1_555 1_555
Cd6 O33_6 1_555 1_555
Cd16_8 O34_6 1_555 1_555
Cd17_6 O20_5 1_555 1_555
Cd11_7 O35_5 1_555 1_555
O6_6 Cd1_9 1_555 1_555
O7_6 Cd4_4 1_555 1_555
O8_4 Cd4_4 1_555 1_555
O9_6 Cd3_5 1_555 1_555
O10_6 Cd3_5 1_555 1_555
O11_6 Cd2_8 1_555 1_555
O12_5 Cd2_8 1_555 1_555
O13_6 C16_6 1_555 1_555
O14_6 C17_6 1_555 1_555
O15_6 C19_6 1_555 1_555
O16_6 C20_6 1_555 1_555
O17_5 C22_6 1_555 1_555
O18_6 C23_6 1_555 1_555
O19_6 C24_6 1_555 1_555
O20_5 C25_6 1_555 1_555
O21_6 Cd1_9 1_555 1_555
O22_6 Cd1_9 1_555 1_555
O23_6 Cd1_9 1_555 1_555
O24_6 Cd2_8 1_555 1_555
O25_6 Cd3_5 1_555 1_555
O26_5 Cd2_8 1_555 1_555
O27_4 Cd3_5 1_555 1_555
O28_6 Cd12_4 1_555 1_555
O29_6 Cd14_4 1_555 1_555
O30_6 Cd8_2 1_555 1_555
O31_6 Cd18_6 1_555 1_555
O32_5 Cd13_6 1_555 1_555
O33_6 Cd5 1_555 1_555
O34_6 Cd6_7 1_555 1_555
O35_5 Cd17_6 1_555 1_555
C15_6 O11_6 1_555 1_555
C16_6 O28_6 1_555 1_555
C17_6 O29_6 1_555 1_555
C18_6 O10_6 1_555 1_555
C19_6 O30_6 1_555 1_555
C20_6 O31_6 1_555 1_555
C21_6 O7_6 1_555 1_555
C22_6 O32_5 1_555 1_555
C23_6 O33_6 1_555 1_555
C24_6 O34_6 1_555 1_555
C25_6 O35_5 1_555 1_555
C26_6 C15_6 1_555 1_555
C27_6 C16_6 1_555 1_555
C28_6 C17_6 1_555 1_555
C29_6 C18_6 1_555 1_555
C30_6 C19_6 1_555 1_555
C31_6 C20_6 1_555 1_555
C32_6 C21_6 1_555 1_555
C33_6 C22_6 1_555 1_555
C34_6 C23_6 1_555 1_555
C35_6 C24_6 1_555 1_555
C36_6 C25_6 1_555 1_555
C37_6 C26_6 1_555 1_555
C38_6 C27_6 1_555 1_555
C39_6 C28_6 1_555 1_555
C40_6 C29_6 1_555 1_555
C41_6 C30_6 1_555 1_555
C42_6 C31_6 1_555 1_555
C43_6 C32_6 1_555 1_555
C44_6 C33_6 1_555 1_555
C45_6 C34_6 1_555 1_555
C46_6 C35_6 1_555 1_555
C47_6 C36_6 1_555 1_555
H14_6 C37_6 1_555 1_555
H15_6 C38_6 1_555 1_555
H16_6 C39_6 1_555 1_555
H17_6 C40_6 1_555 1_555
H18_6 C41_6 1_555 1_555
H19_6 C42_6 1_555 1_555
H20_6 C43_6 1_555 1_555
H21_6 C44_6 1_555 1_555
H22_6 C45_6 1_555 1_555
H23_6 C46_6 1_555 1_555
H24_6 C47_6 1_555 1_555
C48_6 C37_6 1_555 1_555
C49_6 C38_6 1_555 1_555
C50_6 C39_6 1_555 1_555
C51_6 C40_6 1_555 1_555
C52_6 C41_6 1_555 1_555
C53_6 C42_6 1_555 1_555
C54_6 C43_6 1_555 1_555
C55_6 C44_6 1_555 1_555
C56_6 C45_6 1_555 1_555
C57_6 C46_6 1_555 1_555
C58_6 C47_6 1_555 1_555
C59_6 C48_6 1_555 1_555
C60_6 C50_6 1_555 1_555
C61_6 C49_6 1_555 1_555
C62_6 C51_6 1_555 1_555
C63_6 C53_6 1_555 1_555
C64_6 C52_6 1_555 1_555
C65_6 C54_6 1_555 1_555
C66_6 C56_6 1_555 1_555
C67_6 C55_6 1_555 1_555
C68_6 C57_6 1_555 1_555
C69_6 C58_6 1_555 1_555
C70_6 C59_6 1_555 1_555
C71_6 C60_6 1_555 1_555
C72_6 C61_6 1_555 1_555
C73_6 C62_6 1_555 1_555
C74_6 C63_6 1_555 1_555
C75_6 C64_6 1_555 1_555
C76_6 C65_6 1_555 1_555
C77_6 C66_6 1_555 1_555
C78_6 C67_6 1_555 1_555
C79_6 C68_6 1_555 1_555
C80_6 C69_6 1_555 1_555
H25_6 C70_6 1_555 1_555
H26_6 C71_6 1_555 1_555
H27_6 C72_6 1_555 1_555
H28_6 C73_6 1_555 1_555
H29_6 C74_6 1_555 1_555
H30_6 C75_6 1_555 1_555
H31_6 C76_6 1_555 1_555
H32_6 C77_6 1_555 1_555
H33_6 C78_6 1_555 1_555
H34_6 C79_6 1_555 1_555
H35_6 C80_6 1_555 1_555
C81_6 C26_6 1_555 1_555
C82_6 C28_6 1_555 1_555
C83_6 C27_6 1_555 1_555
C84_6 C29_6 1_555 1_555
C85_6 C31_6 1_555 1_555
C86_6 C30_6 1_555 1_555
C87_6 C32_6 1_555 1_555
C88_6 C34_6 1_555 1_555
C89_6 C33_6 1_555 1_555
C90_6 C35_6 1_555 1_555
C91_6 C36_6 1_555 1_555
H36_6 C81_6 1_555 1_555
H37_6 C82_6 1_555 1_555
H38_6 C83_6 1_555 1_555
H39_6 C84_6 1_555 1_555
H40_6 C85_6 1_555 1_555
H41_6 C86_6 1_555 1_555
H42_6 C87_6 1_555 1_555
H43_6 C88_6 1_555 1_555
H44_6 C89_6 1_555 1_555
H45_6 C90_6 1_555 1_555
H46_6 C91_6 1_555 1_555
C92_6 C48_6 1_555 1_555
C93_6 C49_6 1_555 1_555
C94_6 C50_6 1_555 1_555
C95_6 C51_6 1_555 1_555
C96_6 C52_6 1_555 1_555
C97_6 C53_6 1_555 1_555
C98_6 C54_6 1_555 1_555
C99_6 C55_6 1_555 1_555
C100_6 C56_6 1_555 1_555
C101_6 C58_6 1_555 1_555
C102_6 C57_6 1_555 1_555
C103_6 C10_6 1_555 1_555
C104_6 C92_6 1_555 1_555
C105_6 C93_6 1_555 1_555
C106_6 C94_6 1_555 1_555
C107_6 C95_6 1_555 1_555
C108_6 C96_6 1_555 1_555
C109_6 C97_6 1_555 1_555
C110_6 C98_6 1_555 1_555
C111_6 C99_6 1_555 1_555
C112_6 C100_6 1_555 1_555
C113_6 C102_6 1_555 1_555
C114_6 C9_6 1_555 1_555
C115_6 C59_6 1_555 1_555
C116_6 C60_6 1_555 1_555
C117_6 C61_6 1_555 1_555
C118_6 C62_6 1_555 1_555
C119_6 C63_6 1_555 1_555
C120_6 C64_6 1_555 1_555
C121_6 C65_6 1_555 1_555
C122_6 C66_6 1_555 1_555
C123_6 C67_6 1_555 1_555
C124_6 C69_6 1_555 1_555
C125_6 C92_6 1_555 1_555
C126_6 C93_6 1_555 1_555
C127_6 C94_6 1_555 1_555
C128_6 C95_6 1_555 1_555
C129_6 C96_6 1_555 1_555
C130_6 C97_6 1_555 1_555
C131_6 C98_6 1_555 1_555
C132_6 C99_6 1_555 1_555
C133_6 C100_6 1_555 1_555
C134_6 C101_6 1_555 1_555
C135_6 C102_6 1_555 1_555
H47_6 C125_6 1_555 1_555
H48_6 C126_6 1_555 1_555
H49_6 C127_6 1_555 1_555
H50_6 C128_6 1_555 1_555
H51_6 C129_6 1_555 1_555
H52_6 C130_6 1_555 1_555
H53_6 C131_6 1_555 1_555
H54_6 C132_6 1_555 1_555
H55_6 C133_6 1_555 1_555
H56_6 C134_6 1_555 1_555
H57_6 C135_6 1_555 1_555
H58_6 C125_6 1_555 1_555
H59_6 C126_6 1_555 1_555
H60_6 C127_6 1_555 1_555
H61_6 C128_6 1_555 1_555
H62_6 C129_6 1_555 1_555
H63_6 C130_6 1_555 1_555
H64_6 C131_6 1_555 1_555
H65_6 C132_6 1_555 1_555
H66_6 C133_6 1_555 1_555
H67_6 C134_6 1_555 1_555
H68_6 C135_6 1_555 1_555
C136_6 C125_6 1_555 1_555
C137_6 C126_6 1_555 1_555
C138_6 C127_6 1_555 1_555
C139_6 C128_6 1_555 1_555
C140_6 C129_6 1_555 1_555
C141_6 C130_6 1_555 1_555
C142_6 C131_6 1_555 1_555
C143_6 C132_6 1_555 1_555
C144_6 C133_6 1_555 1_555
C145_6 C134_6 1_555 1_555
C146_6 C135_6 1_555 1_555
H69_6 C136_6 1_555 1_555
H70_6 C137_6 1_555 1_555
H71_6 C138_6 1_555 1_555
H72_6 C139_6 1_555 1_555
H73_6 C140_6 1_555 1_555
H74_6 C141_6 1_555 1_555
H75_6 C142_6 1_555 1_555
H76_6 C143_6 1_555 1_555
H77_6 C144_6 1_555 1_555
H78_6 C145_6 1_555 1_555
H79_6 C146_6 1_555 1_555
H80_6 C136_6 1_555 1_555
H81_6 C137_6 1_555 1_555
H82_6 C138_6 1_555 1_555
H83_6 C139_6 1_555 1_555
H84_6 C140_6 1_555 1_555
H85_6 C141_6 1_555 1_555
H86_6 C142_6 1_555 1_555
H87_6 C143_6 1_555 1_555
H88_6 C144_6 1_555 1_555
H89_6 C145_6 1_555 1_555
H90_6 C146_6 1_555 1_555
H91_6 C136_6 1_555 1_555
H92_6 C137_6 1_555 1_555
H93_6 C138_6 1_555 1_555
H94_6 C139_6 1_555 1_555
H95_6 C140_6 1_555 1_555
H96_6 C141_6 1_555 1_555
H97_6 C142_6 1_555 1_555
H98_6 C143_6 1_555 1_555
H99_6 C144_6 1_555 1_555
H100_6 C145_6 1_555 1_555
H101_6 C146_6 1_555 1_555
C147_6 C92_6 1_555 1_555
C148_6 C93_6 1_555 1_555
C149_6 C94_6 1_555 1_555
C150_6 C95_6 1_555 1_555
C151_6 C96_6 1_555 1_555
C152_6 C97_6 1_555 1_555
C153_6 C98_6 1_555 1_555
C154_6 C99_6 1_555 1_555
C155_6 C100_6 1_555 1_555
C156_6 C101_6 1_555 1_555
C157_6 C102_6 1_555 1_555
H102_6 C147_6 1_555 1_555
H103_6 C148_6 1_555 1_555
H104_6 C149_6 1_555 1_555
H105_6 C150_6 1_555 1_555
H106_6 C151_6 1_555 1_555
H107_6 C152_6 1_555 1_555
H108_6 C153_6 1_555 1_555
H109_6 C154_6 1_555 1_555
H110_6 C155_6 1_555 1_555
H111_6 C156_6 1_555 1_555
H112_6 C157_6 1_555 1_555
H113_6 C147_6 1_555 1_555
H114_6 C148_6 1_555 1_555
H115_6 C149_6 1_555 1_555
H116_6 C150_6 1_555 1_555
H117_6 C151_6 1_555 1_555
H118_6 C152_6 1_555 1_555
H119_6 C153_6 1_555 1_555
H120_6 C154_6 1_555 1_555
H121_6 C155_6 1_555 1_555
H122_6 C156_6 1_555 1_555
H123_6 C157_6 1_555 1_555
C158_6 C147_6 1_555 1_555
C159_6 C148_6 1_555 1_555
C160_6 C149_6 1_555 1_555
C161_6 C150_6 1_555 1_555
C162_6 C151_6 1_555 1_555
C163_6 C152_6 1_555 1_555
C164_6 C153_6 1_555 1_555
C165_6 C154_6 1_555 1_555
C166_6 C155_6 1_555 1_555
C167_6 C156_6 1_555 1_555
C168_6 C157_6 1_555 1_555
H124_6 C158_6 1_555 1_555
H125_6 C159_6 1_555 1_555
H126_6 C160_6 1_555 1_555
H127_6 C161_6 1_555 1_555
H128_6 C162_6 1_555 1_555
H129_6 C163_6 1_555 1_555
H130_6 C164_6 1_555 1_555
H131_6 C165_6 1_555 1_555
H132_6 C166_6 1_555 1_555
H133_6 C167_6 1_555 1_555
H134_6 C168_6 1_555 1_555
H135_6 C158_6 1_555 1_555
H136_6 C159_6 1_555 1_555
H137_6 C160_6 1_555 1_555
H138_6 C161_6 1_555 1_555
H139_6 C162_6 1_555 1_555
H140_6 C163_6 1_555 1_555
H141_6 C164_6 1_555 1_555
H142_6 C165_6 1_555 1_555
H143_6 C166_6 1_555 1_555
H144_6 C167_6 1_555 1_555
H145_6 C168_6 1_555 1_555
H146_6 C158_6 1_555 1_555
H147_6 C159_6 1_555 1_555
H148_6 C160_6 1_555 1_555
H149_6 C161_6 1_555 1_555
H150_6 C162_6 1_555 1_555
H151_6 C163_6 1_555 1_555
H152_6 C164_6 1_555 1_555
H153_6 C165_6 1_555 1_555
H154_6 C166_6 1_555 1_555
H155_6 C167_6 1_555 1_555
H156_6 C168_6 1_555 1_555
O36_9 Cd4_4 1_555 1_555
O37_9 Cd3_5 1_555 1_555
O38_9 Cd2_8 1_555 1_555
O4_9 Cd2_8 1_555 1_555
C6_6 C7_6 1_555 1_555
C9_6 C10_6 1_555 1_555
Cd2_8 O22_6 1_555 1_555
Cd3_5 O21_6 1_555 1_555
Cd3_5 O23_6 1_555 1_555
Cd4_4 O24_6 1_555 1_555
Cd4_4 O25_6 1_555 1_555
Cd4_4 O26_5 1_555 1_555
Cd4_4 O27_4 1_555 1_555
Cd6_7 O28_6 1_555 1_555
Cd5 O30_6 1_555 1_555
O23_6 C18_6 1_555 1_555
O24_6 C15_6 1_555 1_555
O25_6 C21_6 1_555 1_555
C68_6 C114_6 1_555 1_555
C70_6 C81_6 1_555 1_555
C71_6 C82_6 1_555 1_555
C72_6 C83_6 1_555 1_555
C73_6 C84_6 1_555 1_555
C74_6 C85_6 1_555 1_555
C75_6 C86_6 1_555 1_555
C76_6 C87_6 1_555 1_555
C77_6 C88_6 1_555 1_555
C78_6 C89_6 1_555 1_555
C79_6 C90_6 1_555 1_555
C80_6 C91_6 1_555 1_555
C101_6 C103_6 1_555 1_555
C103_6 C124_6 1_555 1_555
C104_6 C115_6 1_555 1_555
C104_6 C116_6 1_555 1_555
C105_6 C115_6 1_555 1_555
C105_6 C117_6 1_555 1_555
C106_6 C116_6 1_555 1_555
C106_6 C117_6 1_555 1_555
C107_6 C118_6 1_555 1_555
C107_6 C119_6 1_555 1_555
C108_6 C118_6 1_555 1_555
C108_6 C120_6 1_555 1_555
C109_6 C119_6 1_555 1_555
C109_6 C120_6 1_555 1_555
C110_6 C121_6 1_555 1_555
C110_6 C122_6 1_555 1_555
C111_6 C121_6 1_555 1_555
C111_6 C123_6 1_555 1_555
C112_6 C122_6 1_555 1_555
C112_6 C123_6 1_555 1_555
C113_6 C114_6 1_555 1_555
C113_6 C124_6 1_555 1_555
Cd1_10 O2_7 1_555 1_555
O2_7 C1_7 1_555 1_555
O3_7 Cd1_10 1_555 1_555
O4_10 Cd1_10 1_555 1_555
C1_7 O3_7 1_555 1_555
C2_7 C1_7 1_555 1_555
C3_7 C2_7 1_555 1_555
H1_7 C3_7 1_555 1_555
C4_7 C3_7 1_555 1_555
C5_7 C4_7 1_555 1_555
C6_7 C5_7 1_555 1_555
H2_7 C6_7 1_555 1_555
C7_7 C2_7 1_555 1_555
H3_7 C7_7 1_555 1_555
C8_7 C4_7 1_555 1_555
C9_7 C8_7 1_555 1_555
C10_7 C5_7 1_555 1_555
C11_7 C8_7 1_555 1_555
H4_7 C11_7 1_555 1_555
H5_7 C11_7 1_555 1_555
C12_7 C11_7 1_555 1_555
H6_7 C12_7 1_555 1_555
H7_7 C12_7 1_555 1_555
H8_7 C12_7 1_555 1_555
C13_7 C8_7 1_555 1_555
H9_7 C13_7 1_555 1_555
H10_7 C13_7 1_555 1_555
C14_7 C13_7 1_555 1_555
H11_7 C14_7 1_555 1_555
H12_7 C14_7 1_555 1_555
H13_7 C14_7 1_555 1_555
O5_10 Cd1_10 1_555 1_555
Cd2_9 O3_7 1_555 1_555
Cd18_5 O4_10 1_555 1_555
Cd17_5 O4_10 1_555 1_555
Cd12_2 O13_7 1_555 1_555
Cd6_9 O19_7 1_555 1_555
Cd16_3 O14_7 1_555 1_555
Cd8_6 O29_7 1_555 1_555
Cd8 O15_7 1_555 1_555
Cd5_3 O18_7 1_555 1_555
Cd11_8 O16_7 1_555 1_555
Cd12_9 O31_7 1_555 1_555
Cd6_6 O17_6 1_555 1_555
Cd16_7 O32_6 1_555 1_555
Cd6_3 O33_7 1_555 1_555
Cd16_10 O34_7 1_555 1_555
Cd17_7 O20_6 1_555 1_555
Cd9_8 O35_6 1_555 1_555
O6_7 Cd1_10 1_555 1_555
O7_7 Cd17_5 1_555 1_555
O9_7 Cd18_5 1_555 1_555
O10_7 Cd18_5 1_555 1_555
O11_7 Cd2_9 1_555 1_555
O12_6 Cd2_9 1_555 1_555
O13_7 C16_7 1_555 1_555
O14_7 C17_7 1_555 1_555
O15_7 C19_7 1_555 1_555
O16_7 C20_7 1_555 1_555
O17_6 C22_7 1_555 1_555
O18_7 C23_7 1_555 1_555
O19_7 C24_7 1_555 1_555
O20_6 C25_7 1_555 1_555
O21_7 Cd1_10 1_555 1_555
O22_7 Cd1_10 1_555 1_555
O23_7 Cd1_10 1_555 1_555
O24_7 Cd2_9 1_555 1_555
O25_7 Cd18_5 1_555 1_555
O26_6 Cd2_9 1_555 1_555
O28_7 Cd12_2 1_555 1_555
O29_7 Cd16_3 1_555 1_555
O30_7 Cd8 1_555 1_555
O31_7 Cd11_8 1_555 1_555
O32_6 Cd6_6 1_555 1_555
O33_7 Cd5_3 1_555 1_555
O34_7 Cd6_9 1_555 1_555
O35_6 Cd17_7 1_555 1_555
C15_7 O11_7 1_555 1_555
C16_7 O28_7 1_555 1_555
C17_7 O29_7 1_555 1_555
C18_7 O10_7 1_555 1_555
C19_7 O30_7 1_555 1_555
C20_7 O31_7 1_555 1_555
C21_7 O7_7 1_555 1_555
C22_7 O32_6 1_555 1_555
C23_7 O33_7 1_555 1_555
C24_7 O34_7 1_555 1_555
C25_7 O35_6 1_555 1_555
C26_7 C15_7 1_555 1_555
C27_7 C16_7 1_555 1_555
C28_7 C17_7 1_555 1_555
C29_7 C18_7 1_555 1_555
C30_7 C19_7 1_555 1_555
C31_7 C20_7 1_555 1_555
C32_7 C21_7 1_555 1_555
C33_7 C22_7 1_555 1_555
C34_7 C23_7 1_555 1_555
C35_7 C24_7 1_555 1_555
C36_7 C25_7 1_555 1_555
C37_7 C26_7 1_555 1_555
C38_7 C27_7 1_555 1_555
C39_7 C28_7 1_555 1_555
C40_7 C29_7 1_555 1_555
C41_7 C30_7 1_555 1_555
C42_7 C31_7 1_555 1_555
C43_7 C32_7 1_555 1_555
C44_7 C33_7 1_555 1_555
C45_7 C34_7 1_555 1_555
C46_7 C35_7 1_555 1_555
C47_7 C36_7 1_555 1_555
H14_7 C37_7 1_555 1_555
H15_7 C38_7 1_555 1_555
H16_7 C39_7 1_555 1_555
H17_7 C40_7 1_555 1_555
H18_7 C41_7 1_555 1_555
H19_7 C42_7 1_555 1_555
H20_7 C43_7 1_555 1_555
H21_7 C44_7 1_555 1_555
H22_7 C45_7 1_555 1_555
H23_7 C46_7 1_555 1_555
H24_7 C47_7 1_555 1_555
C48_7 C37_7 1_555 1_555
C49_7 C38_7 1_555 1_555
C50_7 C39_7 1_555 1_555
C51_7 C40_7 1_555 1_555
C52_7 C41_7 1_555 1_555
C53_7 C42_7 1_555 1_555
C54_7 C43_7 1_555 1_555
C55_7 C44_7 1_555 1_555
C56_7 C45_7 1_555 1_555
C57_7 C46_7 1_555 1_555
C58_7 C47_7 1_555 1_555
C59_7 C48_7 1_555 1_555
C60_7 C50_7 1_555 1_555
C61_7 C49_7 1_555 1_555
C62_7 C51_7 1_555 1_555
C63_7 C53_7 1_555 1_555
C64_7 C52_7 1_555 1_555
C65_7 C54_7 1_555 1_555
C66_7 C56_7 1_555 1_555
C67_7 C55_7 1_555 1_555
C68_7 C57_7 1_555 1_555
C69_7 C58_7 1_555 1_555
C70_7 C59_7 1_555 1_555
C71_7 C60_7 1_555 1_555
C72_7 C61_7 1_555 1_555
C73_7 C62_7 1_555 1_555
C74_7 C63_7 1_555 1_555
C75_7 C64_7 1_555 1_555
C76_7 C65_7 1_555 1_555
C77_7 C66_7 1_555 1_555
C78_7 C67_7 1_555 1_555
C79_7 C68_7 1_555 1_555
C80_7 C69_7 1_555 1_555
H25_7 C70_7 1_555 1_555
H26_7 C71_7 1_555 1_555
H27_7 C72_7 1_555 1_555
H28_7 C73_7 1_555 1_555
H29_7 C74_7 1_555 1_555
H30_7 C75_7 1_555 1_555
H31_7 C76_7 1_555 1_555
H32_7 C77_7 1_555 1_555
H33_7 C78_7 1_555 1_555
H34_7 C79_7 1_555 1_555
H35_7 C80_7 1_555 1_555
C81_7 C26_7 1_555 1_555
C82_7 C28_7 1_555 1_555
C83_7 C27_7 1_555 1_555
C84_7 C29_7 1_555 1_555
C85_7 C31_7 1_555 1_555
C86_7 C30_7 1_555 1_555
C87_7 C32_7 1_555 1_555
C88_7 C34_7 1_555 1_555
C89_7 C33_7 1_555 1_555
C90_7 C35_7 1_555 1_555
C91_7 C36_7 1_555 1_555
H36_7 C81_7 1_555 1_555
H37_7 C82_7 1_555 1_555
H38_7 C83_7 1_555 1_555
H39_7 C84_7 1_555 1_555
H40_7 C85_7 1_555 1_555
H41_7 C86_7 1_555 1_555
H42_7 C87_7 1_555 1_555
H43_7 C88_7 1_555 1_555
H44_7 C89_7 1_555 1_555
H45_7 C90_7 1_555 1_555
H46_7 C91_7 1_555 1_555
C92_7 C48_7 1_555 1_555
C93_7 C49_7 1_555 1_555
C94_7 C50_7 1_555 1_555
C95_7 C51_7 1_555 1_555
C96_7 C52_7 1_555 1_555
C97_7 C53_7 1_555 1_555
C98_7 C54_7 1_555 1_555
C99_7 C55_7 1_555 1_555
C100_7 C56_7 1_555 1_555
C101_7 C58_7 1_555 1_555
C102_7 C57_7 1_555 1_555
C103_7 C10_7 1_555 1_555
C104_7 C92_7 1_555 1_555
C105_7 C93_7 1_555 1_555
C106_7 C94_7 1_555 1_555
C107_7 C95_7 1_555 1_555
C108_7 C96_7 1_555 1_555
C109_7 C97_7 1_555 1_555
C110_7 C98_7 1_555 1_555
C111_7 C99_7 1_555 1_555
C112_7 C100_7 1_555 1_555
C113_7 C102_7 1_555 1_555
C114_7 C9_7 1_555 1_555
C115_7 C59_7 1_555 1_555
C116_7 C60_7 1_555 1_555
C117_7 C61_7 1_555 1_555
C118_7 C62_7 1_555 1_555
C119_7 C63_7 1_555 1_555
C120_7 C64_7 1_555 1_555
C121_7 C65_7 1_555 1_555
C122_7 C66_7 1_555 1_555
C123_7 C67_7 1_555 1_555
C124_7 C69_7 1_555 1_555
C125_7 C92_7 1_555 1_555
C126_7 C93_7 1_555 1_555
C127_7 C94_7 1_555 1_555
C128_7 C95_7 1_555 1_555
C129_7 C96_7 1_555 1_555
C130_7 C97_7 1_555 1_555
C131_7 C98_7 1_555 1_555
C132_7 C99_7 1_555 1_555
C133_7 C100_7 1_555 1_555
C134_7 C101_7 1_555 1_555
C135_7 C102_7 1_555 1_555
H47_7 C125_7 1_555 1_555
H48_7 C126_7 1_555 1_555
H49_7 C127_7 1_555 1_555
H50_7 C128_7 1_555 1_555
H51_7 C129_7 1_555 1_555
H52_7 C130_7 1_555 1_555
H53_7 C131_7 1_555 1_555
H54_7 C132_7 1_555 1_555
H55_7 C133_7 1_555 1_555
H56_7 C134_7 1_555 1_555
H57_7 C135_7 1_555 1_555
H58_7 C125_7 1_555 1_555
H59_7 C126_7 1_555 1_555
H60_7 C127_7 1_555 1_555
H61_7 C128_7 1_555 1_555
H62_7 C129_7 1_555 1_555
H63_7 C130_7 1_555 1_555
H64_7 C131_7 1_555 1_555
H65_7 C132_7 1_555 1_555
H66_7 C133_7 1_555 1_555
H67_7 C134_7 1_555 1_555
H68_7 C135_7 1_555 1_555
C136_7 C125_7 1_555 1_555
C137_7 C126_7 1_555 1_555
C138_7 C127_7 1_555 1_555
C139_7 C128_7 1_555 1_555
C140_7 C129_7 1_555 1_555
C141_7 C130_7 1_555 1_555
C142_7 C131_7 1_555 1_555
C143_7 C132_7 1_555 1_555
C144_7 C133_7 1_555 1_555
C145_7 C134_7 1_555 1_555
C146_7 C135_7 1_555 1_555
H69_7 C136_7 1_555 1_555
H70_7 C137_7 1_555 1_555
H71_7 C138_7 1_555 1_555
H72_7 C139_7 1_555 1_555
H73_7 C140_7 1_555 1_555
H74_7 C141_7 1_555 1_555
H75_7 C142_7 1_555 1_555
H76_7 C143_7 1_555 1_555
H77_7 C144_7 1_555 1_555
H78_7 C145_7 1_555 1_555
H79_7 C146_7 1_555 1_555
H80_7 C136_7 1_555 1_555
H81_7 C137_7 1_555 1_555
H82_7 C138_7 1_555 1_555
H83_7 C139_7 1_555 1_555
H84_7 C140_7 1_555 1_555
H85_7 C141_7 1_555 1_555
H86_7 C142_7 1_555 1_555
H87_7 C143_7 1_555 1_555
H88_7 C144_7 1_555 1_555
H89_7 C145_7 1_555 1_555
H90_7 C146_7 1_555 1_555
H91_7 C136_7 1_555 1_555
H92_7 C137_7 1_555 1_555
H93_7 C138_7 1_555 1_555
H94_7 C139_7 1_555 1_555
H95_7 C140_7 1_555 1_555
H96_7 C141_7 1_555 1_555
H97_7 C142_7 1_555 1_555
H98_7 C143_7 1_555 1_555
H99_7 C144_7 1_555 1_555
H100_7 C145_7 1_555 1_555
H101_7 C146_7 1_555 1_555
C147_7 C92_7 1_555 1_555
C148_7 C93_7 1_555 1_555
C149_7 C94_7 1_555 1_555
C150_7 C95_7 1_555 1_555
C151_7 C96_7 1_555 1_555
C152_7 C97_7 1_555 1_555
C153_7 C98_7 1_555 1_555
C154_7 C99_7 1_555 1_555
C155_7 C100_7 1_555 1_555
C156_7 C101_7 1_555 1_555
C157_7 C102_7 1_555 1_555
H102_7 C147_7 1_555 1_555
H103_7 C148_7 1_555 1_555
H104_7 C149_7 1_555 1_555
H105_7 C150_7 1_555 1_555
H106_7 C151_7 1_555 1_555
H107_7 C152_7 1_555 1_555
H108_7 C153_7 1_555 1_555
H109_7 C154_7 1_555 1_555
H110_7 C155_7 1_555 1_555
H111_7 C156_7 1_555 1_555
H112_7 C157_7 1_555 1_555
H113_7 C147_7 1_555 1_555
H114_7 C148_7 1_555 1_555
H115_7 C149_7 1_555 1_555
H116_7 C150_7 1_555 1_555
H117_7 C151_7 1_555 1_555
H118_7 C152_7 1_555 1_555
H119_7 C153_7 1_555 1_555
H120_7 C154_7 1_555 1_555
H121_7 C155_7 1_555 1_555
H122_7 C156_7 1_555 1_555
H123_7 C157_7 1_555 1_555
C158_7 C147_7 1_555 1_555
C159_7 C148_7 1_555 1_555
C160_7 C149_7 1_555 1_555
C161_7 C150_7 1_555 1_555
C162_7 C151_7 1_555 1_555
C163_7 C152_7 1_555 1_555
C164_7 C153_7 1_555 1_555
C165_7 C154_7 1_555 1_555
C166_7 C155_7 1_555 1_555
C167_7 C156_7 1_555 1_555
C168_7 C157_7 1_555 1_555
H124_7 C158_7 1_555 1_555
H125_7 C159_7 1_555 1_555
H126_7 C160_7 1_555 1_555
H127_7 C161_7 1_555 1_555
H128_7 C162_7 1_555 1_555
H129_7 C163_7 1_555 1_555
H130_7 C164_7 1_555 1_555
H131_7 C165_7 1_555 1_555
H132_7 C166_7 1_555 1_555
H133_7 C167_7 1_555 1_555
H134_7 C168_7 1_555 1_555
H135_7 C158_7 1_555 1_555
H136_7 C159_7 1_555 1_555
H137_7 C160_7 1_555 1_555
H138_7 C161_7 1_555 1_555
H139_7 C162_7 1_555 1_555
H140_7 C163_7 1_555 1_555
H141_7 C164_7 1_555 1_555
H142_7 C165_7 1_555 1_555
H143_7 C166_7 1_555 1_555
H144_7 C167_7 1_555 1_555
H145_7 C168_7 1_555 1_555
H146_7 C158_7 1_555 1_555
H147_7 C159_7 1_555 1_555
H148_7 C160_7 1_555 1_555
H149_7 C161_7 1_555 1_555
H150_7 C162_7 1_555 1_555
H151_7 C163_7 1_555 1_555
H152_7 C164_7 1_555 1_555
H153_7 C165_7 1_555 1_555
H154_7 C166_7 1_555 1_555
H155_7 C167_7 1_555 1_555
H156_7 C168_7 1_555 1_555
O36_10 Cd17_5 1_555 1_555
O37_10 Cd18_5 1_555 1_555
O38_10 Cd2_9 1_555 1_555
O4_10 Cd2_9 1_555 1_555
C6_7 C7_7 1_555 1_555
C9_7 C10_7 1_555 1_555
Cd2_9 O22_7 1_555 1_555
Cd18_5 O21_7 1_555 1_555
Cd18_5 O23_7 1_555 1_555
Cd17_5 O24_7 1_555 1_555
Cd17_5 O25_7 1_555 1_555
Cd17_5 O26_6 1_555 1_555
Cd6_9 O28_7 1_555 1_555
Cd5_3 O30_7 1_555 1_555
O23_7 C18_7 1_555 1_555
O24_7 C15_7 1_555 1_555
O25_7 C21_7 1_555 1_555
C68_7 C114_7 1_555 1_555
C70_7 C81_7 1_555 1_555
C71_7 C82_7 1_555 1_555
C72_7 C83_7 1_555 1_555
C73_7 C84_7 1_555 1_555
C74_7 C85_7 1_555 1_555
C75_7 C86_7 1_555 1_555
C76_7 C87_7 1_555 1_555
C77_7 C88_7 1_555 1_555
C78_7 C89_7 1_555 1_555
C79_7 C90_7 1_555 1_555
C80_7 C91_7 1_555 1_555
C101_7 C103_7 1_555 1_555
C103_7 C124_7 1_555 1_555
C104_7 C115_7 1_555 1_555
C104_7 C116_7 1_555 1_555
C105_7 C115_7 1_555 1_555
C105_7 C117_7 1_555 1_555
C106_7 C116_7 1_555 1_555
C106_7 C117_7 1_555 1_555
C107_7 C118_7 1_555 1_555
C107_7 C119_7 1_555 1_555
C108_7 C118_7 1_555 1_555
C108_7 C120_7 1_555 1_555
C109_7 C119_7 1_555 1_555
C109_7 C120_7 1_555 1_555
C110_7 C121_7 1_555 1_555
C110_7 C122_7 1_555 1_555
C111_7 C121_7 1_555 1_555
C111_7 C123_7 1_555 1_555
C112_7 C122_7 1_555 1_555
C112_7 C123_7 1_555 1_555
C113_7 C114_7 1_555 1_555
C113_7 C124_7 1_555 1_555
Cd12_7 O2_8 1_555 1_555
O2_8 C1_8 1_555 1_555
O3_8 Cd12_7 1_555 1_555
O4_11 Cd12_7 1_555 1_555
C1_8 O3_8 1_555 1_555
C2_8 C1_8 1_555 1_555
C3_8 C2_8 1_555 1_555
H1_8 C3_8 1_555 1_555
C4_8 C3_8 1_555 1_555
C5_8 C4_8 1_555 1_555
C6_8 C5_8 1_555 1_555
H2_8 C6_8 1_555 1_555
C7_8 C2_8 1_555 1_555
H3_8 C7_8 1_555 1_555
C8_8 C4_8 1_555 1_555
C9_8 C8_8 1_555 1_555
C10_8 C5_8 1_555 1_555
C11_8 C8_8 1_555 1_555
H4_8 C11_8 1_555 1_555
H5_8 C11_8 1_555 1_555
C12_8 C11_8 1_555 1_555
H6_8 C12_8 1_555 1_555
H7_8 C12_8 1_555 1_555
H8_8 C12_8 1_555 1_555
C13_8 C8_8 1_555 1_555
H9_8 C13_8 1_555 1_555
H10_8 C13_8 1_555 1_555
C14_8 C13_8 1_555 1_555
H11_8 C14_8 1_555 1_555
H12_8 C14_8 1_555 1_555
H13_8 C14_8 1_555 1_555
O5_11 Cd12_7 1_555 1_555
Cd2_10 O3_8 1_555 1_555
Cd11_7 O4_11 1_555 1_555
Cd17_6 O4_11 1_555 1_555
Cd10_6 O13_8 1_555 1_555
Cd15_6 O19_8 1_555 1_555
Cd16_8 O14_8 1_555 1_555
Cd11_4 O29_8 1_555 1_555
Cd6_5 O17_7 1_555 1_555
Cd16_4 O32_7 1_555 1_555
Cd16_12 O34_8 1_555 1_555
Cd14_2 O20_7 1_555 1_555
Cd11_8 O35_7 1_555 1_555
O6_8 Cd12_7 1_555 1_555
O7_8 Cd17_6 1_555 1_555
O9_8 Cd11_7 1_555 1_555
O11_8 Cd2_10 1_555 1_555
O12_7 Cd2_10 1_555 1_555
O13_8 C16_8 1_555 1_555
O14_8 C17_8 1_555 1_555
O17_7 C22_8 1_555 1_555
O6_5 C23_8 1_555 1_555
O19_8 C24_8 1_555 1_555
O20_7 C25_8 1_555 1_555
O21_8 Cd12_7 1_555 1_555
O22_8 Cd12_7 1_555 1_555
O24_8 Cd2_10 1_555 1_555
O25_8 Cd11_7 1_555 1_555
O26_7 Cd2_10 1_555 1_555
O28_8 Cd10_6 1_555 1_555
O29_8 Cd16_8 1_555 1_555
O32_7 Cd6_5 1_555 1_555
O34_8 Cd15_6 1_555 1_555
O35_7 Cd14_2 1_555 1_555
C15_8 O11_8 1_555 1_555
C16_8 O28_8 1_555 1_555
C17_8 O29_8 1_555 1_555
C21_8 O7_8 1_555 1_555
C22_8 O32_7 1_555 1_555
C23_8 O22_5 1_555 1_555
C24_8 O34_8 1_555 1_555
C25_8 O35_7 1_555 1_555
C26_8 C15_8 1_555 1_555
C27_8 C16_8 1_555 1_555
C28_8 C17_8 1_555 1_555
C32_8 C21_8 1_555 1_555
C33_8 C22_8 1_555 1_555
C34_8 C23_8 1_555 1_555
C35_8 C24_8 1_555 1_555
C36_8 C25_8 1_555 1_555
C37_8 C26_8 1_555 1_555
C38_8 C27_8 1_555 1_555
C39_8 C28_8 1_555 1_555
C43_8 C32_8 1_555 1_555
C44_8 C33_8 1_555 1_555
C45_8 C34_8 1_555 1_555
C46_8 C35_8 1_555 1_555
C47_8 C36_8 1_555 1_555
H14_8 C37_8 1_555 1_555
H15_8 C38_8 1_555 1_555
H16_8 C39_8 1_555 1_555
H20_8 C43_8 1_555 1_555
H21_8 C44_8 1_555 1_555
H22_8 C45_8 1_555 1_555
H23_8 C46_8 1_555 1_555
H24_8 C47_8 1_555 1_555
C48_8 C37_8 1_555 1_555
C49_8 C38_8 1_555 1_555
C50_8 C39_8 1_555 1_555
C54_8 C43_8 1_555 1_555
C55_8 C44_8 1_555 1_555
C56_8 C45_8 1_555 1_555
C57_8 C46_8 1_555 1_555
C58_8 C47_8 1_555 1_555
C59_8 C48_8 1_555 1_555
C60_8 C50_8 1_555 1_555
C61_8 C49_8 1_555 1_555
C65_8 C54_8 1_555 1_555
C66_8 C56_8 1_555 1_555
C67_8 C55_8 1_555 1_555
C68_8 C57_8 1_555 1_555
C69_8 C58_8 1_555 1_555
C70_8 C59_8 1_555 1_555
C71_8 C60_8 1_555 1_555
C72_8 C61_8 1_555 1_555
C76_8 C65_8 1_555 1_555
C77_8 C66_8 1_555 1_555
C78_8 C67_8 1_555 1_555
C79_8 C68_8 1_555 1_555
C80_8 C69_8 1_555 1_555
H25_8 C70_8 1_555 1_555
H26_8 C71_8 1_555 1_555
H27_8 C72_8 1_555 1_555
H31_8 C76_8 1_555 1_555
H32_8 C77_8 1_555 1_555
H33_8 C78_8 1_555 1_555
H34_8 C79_8 1_555 1_555
H35_8 C80_8 1_555 1_555
C81_8 C26_8 1_555 1_555
C82_8 C28_8 1_555 1_555
C83_8 C27_8 1_555 1_555
C87_8 C32_8 1_555 1_555
C88_8 C34_8 1_555 1_555
C89_8 C33_8 1_555 1_555
C90_8 C35_8 1_555 1_555
C91_8 C36_8 1_555 1_555
H36_8 C81_8 1_555 1_555
H37_8 C82_8 1_555 1_555
H38_8 C83_8 1_555 1_555
H42_8 C87_8 1_555 1_555
H43_8 C88_8 1_555 1_555
H44_8 C89_8 1_555 1_555
H45_8 C90_8 1_555 1_555
H46_8 C91_8 1_555 1_555
C92_8 C48_8 1_555 1_555
C93_8 C49_8 1_555 1_555
C94_8 C50_8 1_555 1_555
C98_8 C54_8 1_555 1_555
C99_8 C55_8 1_555 1_555
C100_8 C56_8 1_555 1_555
C101_8 C58_8 1_555 1_555
C102_8 C57_8 1_555 1_555
C103_8 C10_8 1_555 1_555
C104_8 C92_8 1_555 1_555
C105_8 C93_8 1_555 1_555
C106_8 C94_8 1_555 1_555
C110_8 C98_8 1_555 1_555
C111_8 C99_8 1_555 1_555
C112_8 C100_8 1_555 1_555
C113_8 C102_8 1_555 1_555
C114_8 C9_8 1_555 1_555
C115_8 C59_8 1_555 1_555
C116_8 C60_8 1_555 1_555
C117_8 C61_8 1_555 1_555
C121_8 C65_8 1_555 1_555
C122_8 C66_8 1_555 1_555
C123_8 C67_8 1_555 1_555
C124_8 C69_8 1_555 1_555
C125_8 C92_8 1_555 1_555
C126_8 C93_8 1_555 1_555
C127_8 C94_8 1_555 1_555
C131_8 C98_8 1_555 1_555
C132_8 C99_8 1_555 1_555
C133_8 C100_8 1_555 1_555
C134_8 C101_8 1_555 1_555
C135_8 C102_8 1_555 1_555
H47_8 C125_8 1_555 1_555
H48_8 C126_8 1_555 1_555
H49_8 C127_8 1_555 1_555
H53_8 C131_8 1_555 1_555
H54_8 C132_8 1_555 1_555
H55_8 C133_8 1_555 1_555
H56_8 C134_8 1_555 1_555
H57_8 C135_8 1_555 1_555
H58_8 C125_8 1_555 1_555
H59_8 C126_8 1_555 1_555
H60_8 C127_8 1_555 1_555
H64_8 C131_8 1_555 1_555
H65_8 C132_8 1_555 1_555
H66_8 C133_8 1_555 1_555
H67_8 C134_8 1_555 1_555
H68_8 C135_8 1_555 1_555
C136_8 C125_8 1_555 1_555
C137_8 C126_8 1_555 1_555
C138_8 C127_8 1_555 1_555
C142_8 C131_8 1_555 1_555
C143_8 C132_8 1_555 1_555
C144_8 C133_8 1_555 1_555
C145_8 C134_8 1_555 1_555
C146_8 C135_8 1_555 1_555
H69_8 C136_8 1_555 1_555
H70_8 C137_8 1_555 1_555
H71_8 C138_8 1_555 1_555
H75_8 C142_8 1_555 1_555
H76_8 C143_8 1_555 1_555
H77_8 C144_8 1_555 1_555
H78_8 C145_8 1_555 1_555
H79_8 C146_8 1_555 1_555
H80_8 C136_8 1_555 1_555
H81_8 C137_8 1_555 1_555
H82_8 C138_8 1_555 1_555
H86_8 C142_8 1_555 1_555
H87_8 C143_8 1_555 1_555
H88_8 C144_8 1_555 1_555
H89_8 C145_8 1_555 1_555
H90_8 C146_8 1_555 1_555
H91_8 C136_8 1_555 1_555
H92_8 C137_8 1_555 1_555
H93_8 C138_8 1_555 1_555
H97_8 C142_8 1_555 1_555
H98_8 C143_8 1_555 1_555
H99_8 C144_8 1_555 1_555
H100_8 C145_8 1_555 1_555
H101_8 C146_8 1_555 1_555
C147_8 C92_8 1_555 1_555
C148_8 C93_8 1_555 1_555
C149_8 C94_8 1_555 1_555
C153_8 C98_8 1_555 1_555
C154_8 C99_8 1_555 1_555
C155_8 C100_8 1_555 1_555
C156_8 C101_8 1_555 1_555
C157_8 C102_8 1_555 1_555
H102_8 C147_8 1_555 1_555
H103_8 C148_8 1_555 1_555
H104_8 C149_8 1_555 1_555
H108_8 C153_8 1_555 1_555
H109_8 C154_8 1_555 1_555
H110_8 C155_8 1_555 1_555
H111_8 C156_8 1_555 1_555
H112_8 C157_8 1_555 1_555
H113_8 C147_8 1_555 1_555
H114_8 C148_8 1_555 1_555
H115_8 C149_8 1_555 1_555
H119_8 C153_8 1_555 1_555
H120_8 C154_8 1_555 1_555
H121_8 C155_8 1_555 1_555
H122_8 C156_8 1_555 1_555
H123_8 C157_8 1_555 1_555
C158_8 C147_8 1_555 1_555
C159_8 C148_8 1_555 1_555
C160_8 C149_8 1_555 1_555
C164_8 C153_8 1_555 1_555
C165_8 C154_8 1_555 1_555
C166_8 C155_8 1_555 1_555
C167_8 C156_8 1_555 1_555
C168_8 C157_8 1_555 1_555
H124_8 C158_8 1_555 1_555
H125_8 C159_8 1_555 1_555
H126_8 C160_8 1_555 1_555
H130_8 C164_8 1_555 1_555
H131_8 C165_8 1_555 1_555
H132_8 C166_8 1_555 1_555
H133_8 C167_8 1_555 1_555
H134_8 C168_8 1_555 1_555
H135_8 C158_8 1_555 1_555
H136_8 C159_8 1_555 1_555
H137_8 C160_8 1_555 1_555
H141_8 C164_8 1_555 1_555
H142_8 C165_8 1_555 1_555
H143_8 C166_8 1_555 1_555
H144_8 C167_8 1_555 1_555
H145_8 C168_8 1_555 1_555
H146_8 C158_8 1_555 1_555
H147_8 C159_8 1_555 1_555
H148_8 C160_8 1_555 1_555
H152_8 C164_8 1_555 1_555
H153_8 C165_8 1_555 1_555
H154_8 C166_8 1_555 1_555
H155_8 C167_8 1_555 1_555
H156_8 C168_8 1_555 1_555
O36_11 Cd17_6 1_555 1_555
O37_11 Cd11_7 1_555 1_555
O38_11 Cd2_10 1_555 1_555
O4_11 Cd2_10 1_555 1_555
C6_8 C7_8 1_555 1_555
C9_8 C10_8 1_555 1_555
Cd2_10 O22_8 1_555 1_555
Cd11_7 O21_8 1_555 1_555
Cd17_6 O24_8 1_555 1_555
Cd17_6 O25_8 1_555 1_555
Cd17_6 O26_7 1_555 1_555
Cd15_6 O28_8 1_555 1_555
O24_8 C15_8 1_555 1_555
O25_8 C21_8 1_555 1_555
C68_8 C114_8 1_555 1_555
C70_8 C81_8 1_555 1_555
C71_8 C82_8 1_555 1_555
C72_8 C83_8 1_555 1_555
C76_8 C87_8 1_555 1_555
C77_8 C88_8 1_555 1_555
C78_8 C89_8 1_555 1_555
C79_8 C90_8 1_555 1_555
C80_8 C91_8 1_555 1_555
C101_8 C103_8 1_555 1_555
C103_8 C124_8 1_555 1_555
C104_8 C115_8 1_555 1_555
C104_8 C116_8 1_555 1_555
C105_8 C115_8 1_555 1_555
C105_8 C117_8 1_555 1_555
C106_8 C116_8 1_555 1_555
C106_8 C117_8 1_555 1_555
C110_8 C121_8 1_555 1_555
C110_8 C122_8 1_555 1_555
C111_8 C121_8 1_555 1_555
C111_8 C123_8 1_555 1_555
C112_8 C122_8 1_555 1_555
C112_8 C123_8 1_555 1_555
C113_8 C114_8 1_555 1_555
C113_8 C124_8 1_555 1_555
Cd12_8 O2_9 1_555 1_555
O2_9 C1_9 1_555 1_555
O3_9 Cd12_8 1_555 1_555
O4_12 Cd12_8 1_555 1_555
C1_9 O3_9 1_555 1_555
C2_9 C1_9 1_555 1_555
C3_9 C2_9 1_555 1_555
H1_9 C3_9 1_555 1_555
C4_9 C3_9 1_555 1_555
C5_9 C4_9 1_555 1_555
C6_9 C5_9 1_555 1_555
H2_9 C6_9 1_555 1_555
C7_9 C2_9 1_555 1_555
H3_9 C7_9 1_555 1_555
C8_9 C4_9 1_555 1_555
C9_9 C8_9 1_555 1_555
C10_9 C5_9 1_555 1_555
C11_9 C8_9 1_555 1_555
H4_9 C11_9 1_555 1_555
H5_9 C11_9 1_555 1_555
C12_9 C11_9 1_555 1_555
H6_9 C12_9 1_555 1_555
H7_9 C12_9 1_555 1_555
H8_9 C12_9 1_555 1_555
C13_9 C8_9 1_555 1_555
H9_9 C13_9 1_555 1_555
H10_9 C13_9 1_555 1_555
C14_9 C13_9 1_555 1_555
H11_9 C14_9 1_555 1_555
H12_9 C14_9 1_555 1_555
H13_9 C14_9 1_555 1_555
O5_12 Cd12_8 1_555 1_555
Cd13_3 O3_9 1_555 1_555
Cd18_6 O4_12 1_555 1_555
Cd14_3 O4_12 1_555 1_555
Cd5_6 O13_9 1_555 1_555
Cd6_10 O19_9 1_555 1_555
Cd16_6 O14_9 1_555 1_555
Cd9_2 O29_9 1_555 1_555
Cd16_13 O34_9 1_555 1_555
Cd17_8 O20_8 1_555 1_555
Cd9_7 O35_8 1_555 1_555
O6_9 Cd12_8 1_555 1_555
O7_9 Cd14_3 1_555 1_555
O9_9 Cd18_6 1_555 1_555
O11_9 Cd13_3 1_555 1_555
O13_9 C16_9 1_555 1_555
O14_9 C17_9 1_555 1_555
O12_3 C22_9 1_555 1_555
O6_6 C23_9 1_555 1_555
O19_9 C24_9 1_555 1_555
O20_8 C25_9 1_555 1_555
O21_9 Cd12_8 1_555 1_555
O22_9 Cd12_8 1_555 1_555
O24_9 Cd13_3 1_555 1_555
O25_9 Cd18_6 1_555 1_555
O28_9 Cd5_6 1_555 1_555
O29_9 Cd16_6 1_555 1_555
O34_9 Cd6_10 1_555 1_555
O35_8 Cd17_8 1_555 1_555
C15_9 O11_9 1_555 1_555
C16_9 O28_9 1_555 1_555
C17_9 O29_9 1_555 1_555
C21_9 O7_9 1_555 1_555
C22_9 O26_3 1_555 1_555
C23_9 O22_6 1_555 1_555
C24_9 O34_9 1_555 1_555
C25_9 O35_8 1_555 1_555
C26_9 C15_9 1_555 1_555
C27_9 C16_9 1_555 1_555
C28_9 C17_9 1_555 1_555
C32_9 C21_9 1_555 1_555
C33_9 C22_9 1_555 1_555
C34_9 C23_9 1_555 1_555
C35_9 C24_9 1_555 1_555
C36_9 C25_9 1_555 1_555
C37_9 C26_9 1_555 1_555
C38_9 C27_9 1_555 1_555
C39_9 C28_9 1_555 1_555
C43_9 C32_9 1_555 1_555
C44_9 C33_9 1_555 1_555
C45_9 C34_9 1_555 1_555
C46_9 C35_9 1_555 1_555
C47_9 C36_9 1_555 1_555
H14_9 C37_9 1_555 1_555
H15_9 C38_9 1_555 1_555
H16_9 C39_9 1_555 1_555
H20_9 C43_9 1_555 1_555
H21_9 C44_9 1_555 1_555
H22_9 C45_9 1_555 1_555
H23_9 C46_9 1_555 1_555
H24_9 C47_9 1_555 1_555
C48_9 C37_9 1_555 1_555
C49_9 C38_9 1_555 1_555
C50_9 C39_9 1_555 1_555
C54_9 C43_9 1_555 1_555
C55_9 C44_9 1_555 1_555
C56_9 C45_9 1_555 1_555
C57_9 C46_9 1_555 1_555
C58_9 C47_9 1_555 1_555
C59_9 C48_9 1_555 1_555
C60_9 C50_9 1_555 1_555
C61_9 C49_9 1_555 1_555
C65_9 C54_9 1_555 1_555
C66_9 C56_9 1_555 1_555
C67_9 C55_9 1_555 1_555
C68_9 C57_9 1_555 1_555
C69_9 C58_9 1_555 1_555
C70_9 C59_9 1_555 1_555
C71_9 C60_9 1_555 1_555
C72_9 C61_9 1_555 1_555
C76_9 C65_9 1_555 1_555
C77_9 C66_9 1_555 1_555
C78_9 C67_9 1_555 1_555
C79_9 C68_9 1_555 1_555
C80_9 C69_9 1_555 1_555
H25_9 C70_9 1_555 1_555
H26_9 C71_9 1_555 1_555
H27_9 C72_9 1_555 1_555
H31_9 C76_9 1_555 1_555
H32_9 C77_9 1_555 1_555
H33_9 C78_9 1_555 1_555
H34_9 C79_9 1_555 1_555
H35_9 C80_9 1_555 1_555
C81_9 C26_9 1_555 1_555
C82_9 C28_9 1_555 1_555
C83_9 C27_9 1_555 1_555
C87_9 C32_9 1_555 1_555
C88_9 C34_9 1_555 1_555
C89_9 C33_9 1_555 1_555
C90_9 C35_9 1_555 1_555
C91_9 C36_9 1_555 1_555
H36_9 C81_9 1_555 1_555
H37_9 C82_9 1_555 1_555
H38_9 C83_9 1_555 1_555
H42_9 C87_9 1_555 1_555
H43_9 C88_9 1_555 1_555
H44_9 C89_9 1_555 1_555
H45_9 C90_9 1_555 1_555
H46_9 C91_9 1_555 1_555
C92_9 C48_9 1_555 1_555
C93_9 C49_9 1_555 1_555
C94_9 C50_9 1_555 1_555
C98_9 C54_9 1_555 1_555
C99_9 C55_9 1_555 1_555
C100_9 C56_9 1_555 1_555
C101_9 C58_9 1_555 1_555
C102_9 C57_9 1_555 1_555
C103_9 C10_9 1_555 1_555
C104_9 C92_9 1_555 1_555
C105_9 C93_9 1_555 1_555
C106_9 C94_9 1_555 1_555
C110_9 C98_9 1_555 1_555
C111_9 C99_9 1_555 1_555
C112_9 C100_9 1_555 1_555
C113_9 C102_9 1_555 1_555
C114_9 C9_9 1_555 1_555
C115_9 C59_9 1_555 1_555
C116_9 C60_9 1_555 1_555
C117_9 C61_9 1_555 1_555
C121_9 C65_9 1_555 1_555
C122_9 C66_9 1_555 1_555
C123_9 C67_9 1_555 1_555
C124_9 C69_9 1_555 1_555
C125_9 C92_9 1_555 1_555
C126_9 C93_9 1_555 1_555
C127_9 C94_9 1_555 1_555
C131_9 C98_9 1_555 1_555
C132_9 C99_9 1_555 1_555
C133_9 C100_9 1_555 1_555
C134_9 C101_9 1_555 1_555
C135_9 C102_9 1_555 1_555
H47_9 C125_9 1_555 1_555
H48_9 C126_9 1_555 1_555
H49_9 C127_9 1_555 1_555
H53_9 C131_9 1_555 1_555
H54_9 C132_9 1_555 1_555
H55_9 C133_9 1_555 1_555
H56_9 C134_9 1_555 1_555
H57_9 C135_9 1_555 1_555
H58_9 C125_9 1_555 1_555
H59_9 C126_9 1_555 1_555
H60_9 C127_9 1_555 1_555
H64_9 C131_9 1_555 1_555
H65_9 C132_9 1_555 1_555
H66_9 C133_9 1_555 1_555
H67_9 C134_9 1_555 1_555
H68_9 C135_9 1_555 1_555
C136_9 C125_9 1_555 1_555
C137_9 C126_9 1_555 1_555
C138_9 C127_9 1_555 1_555
C142_9 C131_9 1_555 1_555
C143_9 C132_9 1_555 1_555
C144_9 C133_9 1_555 1_555
C145_9 C134_9 1_555 1_555
C146_9 C135_9 1_555 1_555
H69_9 C136_9 1_555 1_555
H70_9 C137_9 1_555 1_555
H71_9 C138_9 1_555 1_555
H75_9 C142_9 1_555 1_555
H76_9 C143_9 1_555 1_555
H77_9 C144_9 1_555 1_555
H78_9 C145_9 1_555 1_555
H79_9 C146_9 1_555 1_555
H80_9 C136_9 1_555 1_555
H81_9 C137_9 1_555 1_555
H82_9 C138_9 1_555 1_555
H86_9 C142_9 1_555 1_555
H87_9 C143_9 1_555 1_555
H88_9 C144_9 1_555 1_555
H89_9 C145_9 1_555 1_555
H90_9 C146_9 1_555 1_555
H91_9 C136_9 1_555 1_555
H92_9 C137_9 1_555 1_555
H93_9 C138_9 1_555 1_555
H97_9 C142_9 1_555 1_555
H98_9 C143_9 1_555 1_555
H99_9 C144_9 1_555 1_555
H100_9 C145_9 1_555 1_555
H101_9 C146_9 1_555 1_555
C147_9 C92_9 1_555 1_555
C148_9 C93_9 1_555 1_555
C149_9 C94_9 1_555 1_555
C153_9 C98_9 1_555 1_555
C154_9 C99_9 1_555 1_555
C155_9 C100_9 1_555 1_555
C156_9 C101_9 1_555 1_555
C157_9 C102_9 1_555 1_555
H102_9 C147_9 1_555 1_555
H103_9 C148_9 1_555 1_555
H104_9 C149_9 1_555 1_555
H108_9 C153_9 1_555 1_555
H109_9 C154_9 1_555 1_555
H110_9 C155_9 1_555 1_555
H111_9 C156_9 1_555 1_555
H112_9 C157_9 1_555 1_555
H113_9 C147_9 1_555 1_555
H114_9 C148_9 1_555 1_555
H115_9 C149_9 1_555 1_555
H119_9 C153_9 1_555 1_555
H120_9 C154_9 1_555 1_555
H121_9 C155_9 1_555 1_555
H122_9 C156_9 1_555 1_555
H123_9 C157_9 1_555 1_555
C158_9 C147_9 1_555 1_555
C159_9 C148_9 1_555 1_555
C160_9 C149_9 1_555 1_555
C164_9 C153_9 1_555 1_555
C165_9 C154_9 1_555 1_555
C166_9 C155_9 1_555 1_555
C167_9 C156_9 1_555 1_555
C168_9 C157_9 1_555 1_555
H124_9 C158_9 1_555 1_555
H125_9 C159_9 1_555 1_555
H126_9 C160_9 1_555 1_555
H130_9 C164_9 1_555 1_555
H131_9 C165_9 1_555 1_555
H132_9 C166_9 1_555 1_555
H133_9 C167_9 1_555 1_555
H134_9 C168_9 1_555 1_555
H135_9 C158_9 1_555 1_555
H136_9 C159_9 1_555 1_555
H137_9 C160_9 1_555 1_555
H141_9 C164_9 1_555 1_555
H142_9 C165_9 1_555 1_555
H143_9 C166_9 1_555 1_555
H144_9 C167_9 1_555 1_555
H145_9 C168_9 1_555 1_555
H146_9 C158_9 1_555 1_555
H147_9 C159_9 1_555 1_555
H148_9 C160_9 1_555 1_555
H152_9 C164_9 1_555 1_555
H153_9 C165_9 1_555 1_555
H154_9 C166_9 1_555 1_555
H155_9 C167_9 1_555 1_555
H156_9 C168_9 1_555 1_555
O36_12 Cd14_3 1_555 1_555
O37_12 Cd18_6 1_555 1_555
O38_12 Cd13_3 1_555 1_555
O4_12 Cd13_3 1_555 1_555
C6_9 C7_9 1_555 1_555
C9_9 C10_9 1_555 1_555
Cd13_3 O22_9 1_555 1_555
Cd18_6 O21_9 1_555 1_555
Cd14_3 O24_9 1_555 1_555
Cd14_3 O25_9 1_555 1_555
Cd6_10 O28_9 1_555 1_555
O24_9 C15_9 1_555 1_555
O25_9 C21_9 1_555 1_555
C68_9 C114_9 1_555 1_555
C70_9 C81_9 1_555 1_555
C71_9 C82_9 1_555 1_555
C72_9 C83_9 1_555 1_555
C76_9 C87_9 1_555 1_555
C77_9 C88_9 1_555 1_555
C78_9 C89_9 1_555 1_555
C79_9 C90_9 1_555 1_555
C80_9 C91_9 1_555 1_555
C101_9 C103_9 1_555 1_555
C103_9 C124_9 1_555 1_555
C104_9 C115_9 1_555 1_555
C104_9 C116_9 1_555 1_555
C105_9 C115_9 1_555 1_555
C105_9 C117_9 1_555 1_555
C106_9 C116_9 1_555 1_555
C106_9 C117_9 1_555 1_555
C110_9 C121_9 1_555 1_555
C110_9 C122_9 1_555 1_555
C111_9 C121_9 1_555 1_555
C111_9 C123_9 1_555 1_555
C112_9 C122_9 1_555 1_555
C112_9 C123_9 1_555 1_555
C113_9 C114_9 1_555 1_555
C113_9 C124_9 1_555 1_555
Cd10_8 O2_10 1_555 1_555
O2_10 C1_10 1_555 1_555
O3_10 Cd10_8 1_555 1_555
O4_13 Cd10_8 1_555 1_555
C1_10 O3_10 1_555 1_555
C2_10 C1_10 1_555 1_555
C3_10 C2_10 1_555 1_555
H1_10 C3_10 1_555 1_555
C4_10 C3_10 1_555 1_555
C5_10 C4_10 1_555 1_555
C6_10 C5_10 1_555 1_555
H2_10 C6_10 1_555 1_555
C7_10 C2_10 1_555 1_555
H3_10 C7_10 1_555 1_555
C8_10 C4_10 1_555 1_555
C9_10 C8_10 1_555 1_555
C10_10 C5_10 1_555 1_555
C11_10 C8_10 1_555 1_555
H4_10 C11_10 1_555 1_555
H5_10 C11_10 1_555 1_555
C12_10 C11_10 1_555 1_555
H6_10 C12_10 1_555 1_555
H7_10 C12_10 1_555 1_555
H8_10 C12_10 1_555 1_555
C13_10 C8_10 1_555 1_555
H9_10 C13_10 1_555 1_555
H10_10 C13_10 1_555 1_555
C14_10 C13_10 1_555 1_555
H11_10 C14_10 1_555 1_555
H12_10 C14_10 1_555 1_555
H13_10 C14_10 1_555 1_555
O5_13 Cd10_8 1_555 1_555
Cd15_8 O3_10 1_555 1_555
Cd9_8 O4_13 1_555 1_555
Cd17_7 O4_13 1_555 1_555
Cd10_4 O13_10 1_555 1_555
Cd15_4 O19_10 1_555 1_555
Cd16_10 O14_10 1_555 1_555
Cd11_2 O29_10 1_555 1_555
Cd6_11 O17_8 1_555 1_555
Cd16_14 O32_8 1_555 1_555
Cd7_3 O34_10 1_555 1_555
O7_10 Cd17_7 1_555 1_555
O9_10 Cd9_8 1_555 1_555
O11_10 Cd15_8 1_555 1_555
O12_8 Cd15_8 1_555 1_555
O13_10 C16_10 1_555 1_555
O14_10 C17_10 1_555 1_555
O17_8 C22_10 1_555 1_555
O6_8 C23_10 1_555 1_555
O19_10 C24_10 1_555 1_555
O8_2 C25_10 1_555 1_555
O21_10 Cd10_8 1_555 1_555
O24_10 Cd15_8 1_555 1_555
O25_10 Cd9_8 1_555 1_555
O26_8 Cd15_8 1_555 1_555
O28_10 Cd10_4 1_555 1_555
O29_10 Cd16_10 1_555 1_555
O32_8 Cd6_11 1_555 1_555
O34_10 Cd15_4 1_555 1_555
C15_10 O11_10 1_555 1_555
C16_10 O28_10 1_555 1_555
C17_10 O29_10 1_555 1_555
C21_10 O7_10 1_555 1_555
C22_10 O32_8 1_555 1_555
C23_10 O22_8 1_555 1_555
C24_10 O34_10 1_555 1_555
C25_10 O27_2 1_555 1_555
C26_10 C15_10 1_555 1_555
C27_10 C16_10 1_555 1_555
C28_10 C17_10 1_555 1_555
C32_10 C21_10 1_555 1_555
C33_10 C22_10 1_555 1_555
C34_10 C23_10 1_555 1_555
C35_10 C24_10 1_555 1_555
C36_10 C25_10 1_555 1_555
C37_10 C26_10 1_555 1_555
C38_10 C27_10 1_555 1_555
C39_10 C28_10 1_555 1_555
C43_10 C32_10 1_555 1_555
C44_10 C33_10 1_555 1_555
C45_10 C34_10 1_555 1_555
C46_10 C35_10 1_555 1_555
C47_10 C36_10 1_555 1_555
H14_10 C37_10 1_555 1_555
H15_10 C38_10 1_555 1_555
H16_10 C39_10 1_555 1_555
H20_10 C43_10 1_555 1_555
H21_10 C44_10 1_555 1_555
H22_10 C45_10 1_555 1_555
H23_10 C46_10 1_555 1_555
H24_10 C47_10 1_555 1_555
C48_10 C37_10 1_555 1_555
C49_10 C38_10 1_555 1_555
C50_10 C39_10 1_555 1_555
C54_10 C43_10 1_555 1_555
C55_10 C44_10 1_555 1_555
C56_10 C45_10 1_555 1_555
C57_10 C46_10 1_555 1_555
C58_10 C47_10 1_555 1_555
C59_10 C48_10 1_555 1_555
C60_10 C50_10 1_555 1_555
C61_10 C49_10 1_555 1_555
C65_10 C54_10 1_555 1_555
C66_10 C56_10 1_555 1_555
C67_10 C55_10 1_555 1_555
C68_10 C57_10 1_555 1_555
C69_10 C58_10 1_555 1_555
C70_10 C59_10 1_555 1_555
C71_10 C60_10 1_555 1_555
C72_10 C61_10 1_555 1_555
C76_10 C65_10 1_555 1_555
C77_10 C66_10 1_555 1_555
C78_10 C67_10 1_555 1_555
C79_10 C68_10 1_555 1_555
C80_10 C69_10 1_555 1_555
H25_10 C70_10 1_555 1_555
H26_10 C71_10 1_555 1_555
H27_10 C72_10 1_555 1_555
H31_10 C76_10 1_555 1_555
H32_10 C77_10 1_555 1_555
H33_10 C78_10 1_555 1_555
H34_10 C79_10 1_555 1_555
H35_10 C80_10 1_555 1_555
C81_10 C26_10 1_555 1_555
C82_10 C28_10 1_555 1_555
C83_10 C27_10 1_555 1_555
C87_10 C32_10 1_555 1_555
C88_10 C34_10 1_555 1_555
C89_10 C33_10 1_555 1_555
C90_10 C35_10 1_555 1_555
C91_10 C36_10 1_555 1_555
H36_10 C81_10 1_555 1_555
H37_10 C82_10 1_555 1_555
H38_10 C83_10 1_555 1_555
H42_10 C87_10 1_555 1_555
H43_10 C88_10 1_555 1_555
H44_10 C89_10 1_555 1_555
H45_10 C90_10 1_555 1_555
H46_10 C91_10 1_555 1_555
C92_10 C48_10 1_555 1_555
C93_10 C49_10 1_555 1_555
C94_10 C50_10 1_555 1_555
C98_10 C54_10 1_555 1_555
C99_10 C55_10 1_555 1_555
C100_10 C56_10 1_555 1_555
C101_10 C58_10 1_555 1_555
C102_10 C57_10 1_555 1_555
C103_10 C10_10 1_555 1_555
C104_10 C92_10 1_555 1_555
C105_10 C93_10 1_555 1_555
C106_10 C94_10 1_555 1_555
C110_10 C98_10 1_555 1_555
C111_10 C99_10 1_555 1_555
C112_10 C100_10 1_555 1_555
C113_10 C102_10 1_555 1_555
C114_10 C9_10 1_555 1_555
C115_10 C59_10 1_555 1_555
C116_10 C60_10 1_555 1_555
C117_10 C61_10 1_555 1_555
C121_10 C65_10 1_555 1_555
C122_10 C66_10 1_555 1_555
C123_10 C67_10 1_555 1_555
C124_10 C69_10 1_555 1_555
C125_10 C92_10 1_555 1_555
C126_10 C93_10 1_555 1_555
C127_10 C94_10 1_555 1_555
C131_10 C98_10 1_555 1_555
C132_10 C99_10 1_555 1_555
C133_10 C100_10 1_555 1_555
C134_10 C101_10 1_555 1_555
C135_10 C102_10 1_555 1_555
H47_10 C125_10 1_555 1_555
H48_10 C126_10 1_555 1_555
H49_10 C127_10 1_555 1_555
H53_10 C131_10 1_555 1_555
H54_10 C132_10 1_555 1_555
H55_10 C133_10 1_555 1_555
H56_10 C134_10 1_555 1_555
H57_10 C135_10 1_555 1_555
H58_10 C125_10 1_555 1_555
H59_10 C126_10 1_555 1_555
H60_10 C127_10 1_555 1_555
H64_10 C131_10 1_555 1_555
H65_10 C132_10 1_555 1_555
H66_10 C133_10 1_555 1_555
H67_10 C134_10 1_555 1_555
H68_10 C135_10 1_555 1_555
C136_10 C125_10 1_555 1_555
C137_10 C126_10 1_555 1_555
C138_10 C127_10 1_555 1_555
C142_10 C131_10 1_555 1_555
C143_10 C132_10 1_555 1_555
C144_10 C133_10 1_555 1_555
C145_10 C134_10 1_555 1_555
C146_10 C135_10 1_555 1_555
H69_10 C136_10 1_555 1_555
H70_10 C137_10 1_555 1_555
H71_10 C138_10 1_555 1_555
H75_10 C142_10 1_555 1_555
H76_10 C143_10 1_555 1_555
H77_10 C144_10 1_555 1_555
H78_10 C145_10 1_555 1_555
H79_10 C146_10 1_555 1_555
H80_10 C136_10 1_555 1_555
H81_10 C137_10 1_555 1_555
H82_10 C138_10 1_555 1_555
H86_10 C142_10 1_555 1_555
H87_10 C143_10 1_555 1_555
H88_10 C144_10 1_555 1_555
H89_10 C145_10 1_555 1_555
H90_10 C146_10 1_555 1_555
H91_10 C136_10 1_555 1_555
H92_10 C137_10 1_555 1_555
H93_10 C138_10 1_555 1_555
H97_10 C142_10 1_555 1_555
H98_10 C143_10 1_555 1_555
H99_10 C144_10 1_555 1_555
H100_10 C145_10 1_555 1_555
H101_10 C146_10 1_555 1_555
C147_10 C92_10 1_555 1_555
C148_10 C93_10 1_555 1_555
C149_10 C94_10 1_555 1_555
C153_10 C98_10 1_555 1_555
C154_10 C99_10 1_555 1_555
C155_10 C100_10 1_555 1_555
C156_10 C101_10 1_555 1_555
C157_10 C102_10 1_555 1_555
H102_10 C147_10 1_555 1_555
H103_10 C148_10 1_555 1_555
H104_10 C149_10 1_555 1_555
H108_10 C153_10 1_555 1_555
H109_10 C154_10 1_555 1_555
H110_10 C155_10 1_555 1_555
H111_10 C156_10 1_555 1_555
H112_10 C157_10 1_555 1_555
H113_10 C147_10 1_555 1_555
H114_10 C148_10 1_555 1_555
H115_10 C149_10 1_555 1_555
H119_10 C153_10 1_555 1_555
H120_10 C154_10 1_555 1_555
H121_10 C155_10 1_555 1_555
H122_10 C156_10 1_555 1_555
H123_10 C157_10 1_555 1_555
C158_10 C147_10 1_555 1_555
C159_10 C148_10 1_555 1_555
C160_10 C149_10 1_555 1_555
C164_10 C153_10 1_555 1_555
C165_10 C154_10 1_555 1_555
C166_10 C155_10 1_555 1_555
C167_10 C156_10 1_555 1_555
C168_10 C157_10 1_555 1_555
H124_10 C158_10 1_555 1_555
H125_10 C159_10 1_555 1_555
H126_10 C160_10 1_555 1_555
H130_10 C164_10 1_555 1_555
H131_10 C165_10 1_555 1_555
H132_10 C166_10 1_555 1_555
H133_10 C167_10 1_555 1_555
H134_10 C168_10 1_555 1_555
H135_10 C158_10 1_555 1_555
H136_10 C159_10 1_555 1_555
H137_10 C160_10 1_555 1_555
H141_10 C164_10 1_555 1_555
H142_10 C165_10 1_555 1_555
H143_10 C166_10 1_555 1_555
H144_10 C167_10 1_555 1_555
H145_10 C168_10 1_555 1_555
H146_10 C158_10 1_555 1_555
H147_10 C159_10 1_555 1_555
H148_10 C160_10 1_555 1_555
H152_10 C164_10 1_555 1_555
H153_10 C165_10 1_555 1_555
H154_10 C166_10 1_555 1_555
H155_10 C167_10 1_555 1_555
H156_10 C168_10 1_555 1_555
O36_13 Cd17_7 1_555 1_555
O37_13 Cd9_8 1_555 1_555
O38_13 Cd15_8 1_555 1_555
O4_13 Cd15_8 1_555 1_555
C6_10 C7_10 1_555 1_555
C9_10 C10_10 1_555 1_555
Cd9_8 O21_10 1_555 1_555
Cd17_7 O24_10 1_555 1_555
Cd17_7 O25_10 1_555 1_555
Cd17_7 O26_8 1_555 1_555
Cd15_4 O28_10 1_555 1_555
O24_10 C15_10 1_555 1_555
O25_10 C21_10 1_555 1_555
C68_10 C114_10 1_555 1_555
C70_10 C81_10 1_555 1_555
C71_10 C82_10 1_555 1_555
C72_10 C83_10 1_555 1_555
C76_10 C87_10 1_555 1_555
C77_10 C88_10 1_555 1_555
C78_10 C89_10 1_555 1_555
C79_10 C90_10 1_555 1_555
C80_10 C91_10 1_555 1_555
C101_10 C103_10 1_555 1_555
C103_10 C124_10 1_555 1_555
C104_10 C115_10 1_555 1_555
C104_10 C116_10 1_555 1_555
C105_10 C115_10 1_555 1_555
C105_10 C117_10 1_555 1_555
C106_10 C116_10 1_555 1_555
C106_10 C117_10 1_555 1_555
C110_10 C121_10 1_555 1_555
C110_10 C122_10 1_555 1_555
C111_10 C121_10 1_555 1_555
C111_10 C123_10 1_555 1_555
C112_10 C122_10 1_555 1_555
C112_10 C123_10 1_555 1_555
C113_10 C114_10 1_555 1_555
C113_10 C124_10 1_555 1_555
Cd10_7 O2_11 1_555 1_555
O2_11 C1_11 1_555 1_555
O3_11 Cd10_7 1_555 1_555
O4_14 Cd10_7 1_555 1_555
C1_11 O3_11 1_555 1_555
C2_11 C1_11 1_555 1_555
C3_11 C2_11 1_555 1_555
H1_11 C3_11 1_555 1_555
C4_11 C3_11 1_555 1_555
C5_11 C4_11 1_555 1_555
C6_11 C5_11 1_555 1_555
H2_11 C6_11 1_555 1_555
C7_11 C2_11 1_555 1_555
H3_11 C7_11 1_555 1_555
C8_11 C4_11 1_555 1_555
C9_11 C8_11 1_555 1_555
C10_11 C5_11 1_555 1_555
C11_11 C8_11 1_555 1_555
H4_11 C11_11 1_555 1_555
H5_11 C11_11 1_555 1_555
C12_11 C11_11 1_555 1_555
H6_11 C12_11 1_555 1_555
H7_11 C12_11 1_555 1_555
H8_11 C12_11 1_555 1_555
C13_11 C8_11 1_555 1_555
H9_11 C13_11 1_555 1_555
H10_11 C13_11 1_555 1_555
C14_11 C13_11 1_555 1_555
H11_11 C14_11 1_555 1_555
H12_11 C14_11 1_555 1_555
H13_11 C14_11 1_555 1_555
O5_14 Cd10_7 1_555 1_555
Cd15_7 O3_11 1_555 1_555
Cd9_7 O4_14 1_555 1_555
Cd17_8 O4_14 1_555 1_555
Cd12_6 O13_11 1_555 1_555
Cd13_7 O19_11 1_555 1_555
Cd16_13 O14_11 1_555 1_555
Cd8_8 O29_11 1_555 1_555
Cd5_2 O18_8 1_555 1_555
Cd6_8 O17_9 1_555 1_555
Cd16_9 O32_9 1_555 1_555
Cd6_2 O33_8 1_555 1_555
Cd7_5 O34_11 1_555 1_555
O7_11 Cd17_8 1_555 1_555
O9_11 Cd9_7 1_555 1_555
O11_11 Cd15_7 1_555 1_555
O12_9 Cd15_7 1_555 1_555
O13_11 C16_11 1_555 1_555
O14_11 C17_11 1_555 1_555
O17_9 C22_11 1_555 1_555
O18_8 C23_11 1_555 1_555
O19_11 C24_11 1_555 1_555
O8_3 C25_11 1_555 1_555
O21_11 Cd10_7 1_555 1_555
O24_11 Cd15_7 1_555 1_555
O25_11 Cd9_7 1_555 1_555
O26_9 Cd15_7 1_555 1_555
O28_11 Cd12_6 1_555 1_555
O29_11 Cd16_13 1_555 1_555
O32_9 Cd6_8 1_555 1_555
O33_8 Cd5_2 1_555 1_555
O34_11 Cd13_7 1_555 1_555
C15_11 O11_11 1_555 1_555
C16_11 O28_11 1_555 1_555
C17_11 O29_11 1_555 1_555
C21_11 O7_11 1_555 1_555
C22_11 O32_9 1_555 1_555
C23_11 O33_8 1_555 1_555
C24_11 O34_11 1_555 1_555
C25_11 O27_3 1_555 1_555
C26_11 C15_11 1_555 1_555
C27_11 C16_11 1_555 1_555
C28_11 C17_11 1_555 1_555
C32_11 C21_11 1_555 1_555
C33_11 C22_11 1_555 1_555
C34_11 C23_11 1_555 1_555
C35_11 C24_11 1_555 1_555
C36_11 C25_11 1_555 1_555
C37_11 C26_11 1_555 1_555
C38_11 C27_11 1_555 1_555
C39_11 C28_11 1_555 1_555
C43_11 C32_11 1_555 1_555
C44_11 C33_11 1_555 1_555
C45_11 C34_11 1_555 1_555
C46_11 C35_11 1_555 1_555
C47_11 C36_11 1_555 1_555
H14_11 C37_11 1_555 1_555
H15_11 C38_11 1_555 1_555
H16_11 C39_11 1_555 1_555
H20_11 C43_11 1_555 1_555
H21_11 C44_11 1_555 1_555
H22_11 C45_11 1_555 1_555
H23_11 C46_11 1_555 1_555
H24_11 C47_11 1_555 1_555
C48_11 C37_11 1_555 1_555
C49_11 C38_11 1_555 1_555
C50_11 C39_11 1_555 1_555
C54_11 C43_11 1_555 1_555
C55_11 C44_11 1_555 1_555
C56_11 C45_11 1_555 1_555
C57_11 C46_11 1_555 1_555
C58_11 C47_11 1_555 1_555
C59_11 C48_11 1_555 1_555
C60_11 C50_11 1_555 1_555
C61_11 C49_11 1_555 1_555
C65_11 C54_11 1_555 1_555
C66_11 C56_11 1_555 1_555
C67_11 C55_11 1_555 1_555
C68_11 C57_11 1_555 1_555
C69_11 C58_11 1_555 1_555
C70_11 C59_11 1_555 1_555
C71_11 C60_11 1_555 1_555
C72_11 C61_11 1_555 1_555
C76_11 C65_11 1_555 1_555
C77_11 C66_11 1_555 1_555
C78_11 C67_11 1_555 1_555
C79_11 C68_11 1_555 1_555
C80_11 C69_11 1_555 1_555
H25_11 C70_11 1_555 1_555
H26_11 C71_11 1_555 1_555
H27_11 C72_11 1_555 1_555
H31_11 C76_11 1_555 1_555
H32_11 C77_11 1_555 1_555
H33_11 C78_11 1_555 1_555
H34_11 C79_11 1_555 1_555
H35_11 C80_11 1_555 1_555
C81_11 C26_11 1_555 1_555
C82_11 C28_11 1_555 1_555
C83_11 C27_11 1_555 1_555
C87_11 C32_11 1_555 1_555
C88_11 C34_11 1_555 1_555
C89_11 C33_11 1_555 1_555
C90_11 C35_11 1_555 1_555
C91_11 C36_11 1_555 1_555
H36_11 C81_11 1_555 1_555
H37_11 C82_11 1_555 1_555
H38_11 C83_11 1_555 1_555
H42_11 C87_11 1_555 1_555
H43_11 C88_11 1_555 1_555
H44_11 C89_11 1_555 1_555
H45_11 C90_11 1_555 1_555
H46_11 C91_11 1_555 1_555
C92_11 C48_11 1_555 1_555
C93_11 C49_11 1_555 1_555
C94_11 C50_11 1_555 1_555
C98_11 C54_11 1_555 1_555
C99_11 C55_11 1_555 1_555
C100_11 C56_11 1_555 1_555
C101_11 C58_11 1_555 1_555
C102_11 C57_11 1_555 1_555
C103_11 C10_11 1_555 1_555
C104_11 C92_11 1_555 1_555
C105_11 C93_11 1_555 1_555
C106_11 C94_11 1_555 1_555
C110_11 C98_11 1_555 1_555
C111_11 C99_11 1_555 1_555
C112_11 C100_11 1_555 1_555
C113_11 C102_11 1_555 1_555
C114_11 C9_11 1_555 1_555
C115_11 C59_11 1_555 1_555
C116_11 C60_11 1_555 1_555
C117_11 C61_11 1_555 1_555
C121_11 C65_11 1_555 1_555
C122_11 C66_11 1_555 1_555
C123_11 C67_11 1_555 1_555
C124_11 C69_11 1_555 1_555
C125_11 C92_11 1_555 1_555
C126_11 C93_11 1_555 1_555
C127_11 C94_11 1_555 1_555
C131_11 C98_11 1_555 1_555
C132_11 C99_11 1_555 1_555
C133_11 C100_11 1_555 1_555
C134_11 C101_11 1_555 1_555
C135_11 C102_11 1_555 1_555
H47_11 C125_11 1_555 1_555
H48_11 C126_11 1_555 1_555
H49_11 C127_11 1_555 1_555
H53_11 C131_11 1_555 1_555
H54_11 C132_11 1_555 1_555
H55_11 C133_11 1_555 1_555
H56_11 C134_11 1_555 1_555
H57_11 C135_11 1_555 1_555
H58_11 C125_11 1_555 1_555
H59_11 C126_11 1_555 1_555
H60_11 C127_11 1_555 1_555
H64_11 C131_11 1_555 1_555
H65_11 C132_11 1_555 1_555
H66_11 C133_11 1_555 1_555
H67_11 C134_11 1_555 1_555
H68_11 C135_11 1_555 1_555
C136_11 C125_11 1_555 1_555
C137_11 C126_11 1_555 1_555
C138_11 C127_11 1_555 1_555
C142_11 C131_11 1_555 1_555
C143_11 C132_11 1_555 1_555
C144_11 C133_11 1_555 1_555
C145_11 C134_11 1_555 1_555
C146_11 C135_11 1_555 1_555
H69_11 C136_11 1_555 1_555
H70_11 C137_11 1_555 1_555
H71_11 C138_11 1_555 1_555
H75_11 C142_11 1_555 1_555
H76_11 C143_11 1_555 1_555
H77_11 C144_11 1_555 1_555
H78_11 C145_11 1_555 1_555
H79_11 C146_11 1_555 1_555
H80_11 C136_11 1_555 1_555
H81_11 C137_11 1_555 1_555
H82_11 C138_11 1_555 1_555
H86_11 C142_11 1_555 1_555
H87_11 C143_11 1_555 1_555
H88_11 C144_11 1_555 1_555
H89_11 C145_11 1_555 1_555
H90_11 C146_11 1_555 1_555
H91_11 C136_11 1_555 1_555
H92_11 C137_11 1_555 1_555
H93_11 C138_11 1_555 1_555
H97_11 C142_11 1_555 1_555
H98_11 C143_11 1_555 1_555
H99_11 C144_11 1_555 1_555
H100_11 C145_11 1_555 1_555
H101_11 C146_11 1_555 1_555
C147_11 C92_11 1_555 1_555
C148_11 C93_11 1_555 1_555
C149_11 C94_11 1_555 1_555
C153_11 C98_11 1_555 1_555
C154_11 C99_11 1_555 1_555
C155_11 C100_11 1_555 1_555
C156_11 C101_11 1_555 1_555
C157_11 C102_11 1_555 1_555
H102_11 C147_11 1_555 1_555
H103_11 C148_11 1_555 1_555
H104_11 C149_11 1_555 1_555
H108_11 C153_11 1_555 1_555
H109_11 C154_11 1_555 1_555
H110_11 C155_11 1_555 1_555
H111_11 C156_11 1_555 1_555
H112_11 C157_11 1_555 1_555
H113_11 C147_11 1_555 1_555
H114_11 C148_11 1_555 1_555
H115_11 C149_11 1_555 1_555
H119_11 C153_11 1_555 1_555
H120_11 C154_11 1_555 1_555
H121_11 C155_11 1_555 1_555
H122_11 C156_11 1_555 1_555
H123_11 C157_11 1_555 1_555
C158_11 C147_11 1_555 1_555
C159_11 C148_11 1_555 1_555
C160_11 C149_11 1_555 1_555
C164_11 C153_11 1_555 1_555
C165_11 C154_11 1_555 1_555
C166_11 C155_11 1_555 1_555
C167_11 C156_11 1_555 1_555
C168_11 C157_11 1_555 1_555
H124_11 C158_11 1_555 1_555
H125_11 C159_11 1_555 1_555
H126_11 C160_11 1_555 1_555
H130_11 C164_11 1_555 1_555
H131_11 C165_11 1_555 1_555
H132_11 C166_11 1_555 1_555
H133_11 C167_11 1_555 1_555
H134_11 C168_11 1_555 1_555
H135_11 C158_11 1_555 1_555
H136_11 C159_11 1_555 1_555
H137_11 C160_11 1_555 1_555
H141_11 C164_11 1_555 1_555
H142_11 C165_11 1_555 1_555
H143_11 C166_11 1_555 1_555
H144_11 C167_11 1_555 1_555
H145_11 C168_11 1_555 1_555
H146_11 C158_11 1_555 1_555
H147_11 C159_11 1_555 1_555
H148_11 C160_11 1_555 1_555
H152_11 C164_11 1_555 1_555
H153_11 C165_11 1_555 1_555
H154_11 C166_11 1_555 1_555
H155_11 C167_11 1_555 1_555
H156_11 C168_11 1_555 1_555
O36_14 Cd17_8 1_555 1_555
O37_14 Cd9_7 1_555 1_555
O38_14 Cd15_7 1_555 1_555
O4_14 Cd15_7 1_555 1_555
C6_11 C7_11 1_555 1_555
C9_11 C10_11 1_555 1_555
Cd9_7 O21_11 1_555 1_555
Cd17_8 O24_11 1_555 1_555
Cd17_8 O25_11 1_555 1_555
Cd17_8 O26_9 1_555 1_555
Cd13_7 O28_11 1_555 1_555
O24_11 C15_11 1_555 1_555
O25_11 C21_11 1_555 1_555
C68_11 C114_11 1_555 1_555
C70_11 C81_11 1_555 1_555
C71_11 C82_11 1_555 1_555
C72_11 C83_11 1_555 1_555
C76_11 C87_11 1_555 1_555
C77_11 C88_11 1_555 1_555
C78_11 C89_11 1_555 1_555
C79_11 C90_11 1_555 1_555
C80_11 C91_11 1_555 1_555
C101_11 C103_11 1_555 1_555
C103_11 C124_11 1_555 1_555
C104_11 C115_11 1_555 1_555
C104_11 C116_11 1_555 1_555
C105_11 C115_11 1_555 1_555
C105_11 C117_11 1_555 1_555
C106_11 C116_11 1_555 1_555
C106_11 C117_11 1_555 1_555
C110_11 C121_11 1_555 1_555
C110_11 C122_11 1_555 1_555
C111_11 C121_11 1_555 1_555
C111_11 C123_11 1_555 1_555
C112_11 C122_11 1_555 1_555
C112_11 C123_11 1_555 1_555
C113_11 C114_11 1_555 1_555
C113_11 C124_11 1_555 1_555
Cd12_9 O2_12 1_555 1_555
O2_12 C1_12 1_555 1_555
O3_12 Cd12_9 1_555 1_555
O4_15 Cd12_9 1_555 1_555
C1_12 O3_12 1_555 1_555
C2_12 C1_12 1_555 1_555
C3_12 C2_12 1_555 1_555
H1_12 C3_12 1_555 1_555
C4_12 C3_12 1_555 1_555
C5_12 C4_12 1_555 1_555
C6_12 C5_12 1_555 1_555
H2_12 C6_12 1_555 1_555
C7_12 C2_12 1_555 1_555
H3_12 C7_12 1_555 1_555
C8_12 C4_12 1_555 1_555
C9_12 C8_12 1_555 1_555
C10_12 C5_12 1_555 1_555
C11_12 C8_12 1_555 1_555
H4_12 C11_12 1_555 1_555
H5_12 C11_12 1_555 1_555
C12_12 C11_12 1_555 1_555
H6_12 C12_12 1_555 1_555
H7_12 C12_12 1_555 1_555
H8_12 C12_12 1_555 1_555
C13_12 C8_12 1_555 1_555
H9_12 C13_12 1_555 1_555
H10_12 C13_12 1_555 1_555
C14_12 C13_12 1_555 1_555
H11_12 C14_12 1_555 1_555
H12_12 C14_12 1_555 1_555
H13_12 C14_12 1_555 1_555
O5_15 Cd12_9 1_555 1_555
Cd13_2 O3_12 1_555 1_555
Cd11_8 O4_15 1_555 1_555
Cd14_2 O4_15 1_555 1_555
Cd5_8 O13_12 1_555 1_555
Cd13_4 O19_12 1_555 1_555
Cd16_12 O14_12 1_555 1_555
Cd9_6 O29_12 1_555 1_555
Cd14_4 O34_12 1_555 1_555
O6_10 Cd12_9 1_555 1_555
O7_12 Cd14_2 1_555 1_555
O9_12 Cd11_8 1_555 1_555
O11_12 Cd13_2 1_555 1_555
O13_12 C16_12 1_555 1_555
O14_12 C17_12 1_555 1_555
O12_2 C22_12 1_555 1_555
O6_7 C23_12 1_555 1_555
O19_12 C24_12 1_555 1_555
O8_4 C25_12 1_555 1_555
O21_12 Cd12_9 1_555 1_555
O22_10 Cd12_9 1_555 1_555
O24_12 Cd13_2 1_555 1_555
O25_12 Cd11_8 1_555 1_555
O28_12 Cd5_8 1_555 1_555
O29_12 Cd16_12 1_555 1_555
O34_12 Cd13_4 1_555 1_555
C15_12 O11_12 1_555 1_555
C16_12 O28_12 1_555 1_555
C17_12 O29_12 1_555 1_555
C21_12 O7_12 1_555 1_555
C22_12 O26_2 1_555 1_555
C23_12 O22_7 1_555 1_555
C24_12 O34_12 1_555 1_555
C25_12 O27_4 1_555 1_555
C26_12 C15_12 1_555 1_555
C27_12 C16_12 1_555 1_555
C28_12 C17_12 1_555 1_555
C32_12 C21_12 1_555 1_555
C33_12 C22_12 1_555 1_555
C34_12 C23_12 1_555 1_555
C35_12 C24_12 1_555 1_555
C36_12 C25_12 1_555 1_555
C37_12 C26_12 1_555 1_555
C38_12 C27_12 1_555 1_555
C39_12 C28_12 1_555 1_555
C43_12 C32_12 1_555 1_555
C44_12 C33_12 1_555 1_555
C45_12 C34_12 1_555 1_555
C46_12 C35_12 1_555 1_555
C47_12 C36_12 1_555 1_555
H14_12 C37_12 1_555 1_555
H15_12 C38_12 1_555 1_555
H16_12 C39_12 1_555 1_555
H20_12 C43_12 1_555 1_555
H21_12 C44_12 1_555 1_555
H22_12 C45_12 1_555 1_555
H23_12 C46_12 1_555 1_555
H24_12 C47_12 1_555 1_555
C48_12 C37_12 1_555 1_555
C49_12 C38_12 1_555 1_555
C50_12 C39_12 1_555 1_555
C54_12 C43_12 1_555 1_555
C55_12 C44_12 1_555 1_555
C56_12 C45_12 1_555 1_555
C57_12 C46_12 1_555 1_555
C58_12 C47_12 1_555 1_555
C59_12 C48_12 1_555 1_555
C60_12 C50_12 1_555 1_555
C61_12 C49_12 1_555 1_555
C65_12 C54_12 1_555 1_555
C66_12 C56_12 1_555 1_555
C67_12 C55_12 1_555 1_555
C68_12 C57_12 1_555 1_555
C69_12 C58_12 1_555 1_555
C70_12 C59_12 1_555 1_555
C71_12 C60_12 1_555 1_555
C72_12 C61_12 1_555 1_555
C76_12 C65_12 1_555 1_555
C77_12 C66_12 1_555 1_555
C78_12 C67_12 1_555 1_555
C79_12 C68_12 1_555 1_555
C80_12 C69_12 1_555 1_555
H25_12 C70_12 1_555 1_555
H26_12 C71_12 1_555 1_555
H27_12 C72_12 1_555 1_555
H31_12 C76_12 1_555 1_555
H32_12 C77_12 1_555 1_555
H33_12 C78_12 1_555 1_555
H34_12 C79_12 1_555 1_555
H35_12 C80_12 1_555 1_555
C81_12 C26_12 1_555 1_555
C82_12 C28_12 1_555 1_555
C83_12 C27_12 1_555 1_555
C87_12 C32_12 1_555 1_555
C88_12 C34_12 1_555 1_555
C89_12 C33_12 1_555 1_555
C90_12 C35_12 1_555 1_555
C91_12 C36_12 1_555 1_555
H36_12 C81_12 1_555 1_555
H37_12 C82_12 1_555 1_555
H38_12 C83_12 1_555 1_555
H42_12 C87_12 1_555 1_555
H43_12 C88_12 1_555 1_555
H44_12 C89_12 1_555 1_555
H45_12 C90_12 1_555 1_555
H46_12 C91_12 1_555 1_555
C92_12 C48_12 1_555 1_555
C93_12 C49_12 1_555 1_555
C94_12 C50_12 1_555 1_555
C98_12 C54_12 1_555 1_555
C99_12 C55_12 1_555 1_555
C100_12 C56_12 1_555 1_555
C101_12 C58_12 1_555 1_555
C102_12 C57_12 1_555 1_555
C103_12 C10_12 1_555 1_555
C104_12 C92_12 1_555 1_555
C105_12 C93_12 1_555 1_555
C106_12 C94_12 1_555 1_555
C110_12 C98_12 1_555 1_555
C111_12 C99_12 1_555 1_555
C112_12 C100_12 1_555 1_555
C113_12 C102_12 1_555 1_555
C114_12 C9_12 1_555 1_555
C115_12 C59_12 1_555 1_555
C116_12 C60_12 1_555 1_555
C117_12 C61_12 1_555 1_555
C121_12 C65_12 1_555 1_555
C122_12 C66_12 1_555 1_555
C123_12 C67_12 1_555 1_555
C124_12 C69_12 1_555 1_555
C125_12 C92_12 1_555 1_555
C126_12 C93_12 1_555 1_555
C127_12 C94_12 1_555 1_555
C131_12 C98_12 1_555 1_555
C132_12 C99_12 1_555 1_555
C133_12 C100_12 1_555 1_555
C134_12 C101_12 1_555 1_555
C135_12 C102_12 1_555 1_555
H47_12 C125_12 1_555 1_555
H48_12 C126_12 1_555 1_555
H49_12 C127_12 1_555 1_555
H53_12 C131_12 1_555 1_555
H54_12 C132_12 1_555 1_555
H55_12 C133_12 1_555 1_555
H56_12 C134_12 1_555 1_555
H57_12 C135_12 1_555 1_555
H58_12 C125_12 1_555 1_555
H59_12 C126_12 1_555 1_555
H60_12 C127_12 1_555 1_555
H64_12 C131_12 1_555 1_555
H65_12 C132_12 1_555 1_555
H66_12 C133_12 1_555 1_555
H67_12 C134_12 1_555 1_555
H68_12 C135_12 1_555 1_555
C136_12 C125_12 1_555 1_555
C137_12 C126_12 1_555 1_555
C138_12 C127_12 1_555 1_555
C142_12 C131_12 1_555 1_555
C143_12 C132_12 1_555 1_555
C144_12 C133_12 1_555 1_555
C145_12 C134_12 1_555 1_555
C146_12 C135_12 1_555 1_555
H69_12 C136_12 1_555 1_555
H70_12 C137_12 1_555 1_555
H71_12 C138_12 1_555 1_555
H75_12 C142_12 1_555 1_555
H76_12 C143_12 1_555 1_555
H77_12 C144_12 1_555 1_555
H78_12 C145_12 1_555 1_555
H79_12 C146_12 1_555 1_555
H80_12 C136_12 1_555 1_555
H81_12 C137_12 1_555 1_555
H82_12 C138_12 1_555 1_555
H86_12 C142_12 1_555 1_555
H87_12 C143_12 1_555 1_555
H88_12 C144_12 1_555 1_555
H89_12 C145_12 1_555 1_555
H90_12 C146_12 1_555 1_555
H91_12 C136_12 1_555 1_555
H92_12 C137_12 1_555 1_555
H93_12 C138_12 1_555 1_555
H97_12 C142_12 1_555 1_555
H98_12 C143_12 1_555 1_555
H99_12 C144_12 1_555 1_555
H100_12 C145_12 1_555 1_555
H101_12 C146_12 1_555 1_555
C147_12 C92_12 1_555 1_555
C148_12 C93_12 1_555 1_555
C149_12 C94_12 1_555 1_555
C153_12 C98_12 1_555 1_555
C154_12 C99_12 1_555 1_555
C155_12 C100_12 1_555 1_555
C156_12 C101_12 1_555 1_555
C157_12 C102_12 1_555 1_555
H102_12 C147_12 1_555 1_555
H103_12 C148_12 1_555 1_555
H104_12 C149_12 1_555 1_555
H108_12 C153_12 1_555 1_555
H109_12 C154_12 1_555 1_555
H110_12 C155_12 1_555 1_555
H111_12 C156_12 1_555 1_555
H112_12 C157_12 1_555 1_555
H113_12 C147_12 1_555 1_555
H114_12 C148_12 1_555 1_555
H115_12 C149_12 1_555 1_555
H119_12 C153_12 1_555 1_555
H120_12 C154_12 1_555 1_555
H121_12 C155_12 1_555 1_555
H122_12 C156_12 1_555 1_555
H123_12 C157_12 1_555 1_555
C158_12 C147_12 1_555 1_555
C159_12 C148_12 1_555 1_555
C160_12 C149_12 1_555 1_555
C164_12 C153_12 1_555 1_555
C165_12 C154_12 1_555 1_555
C166_12 C155_12 1_555 1_555
C167_12 C156_12 1_555 1_555
C168_12 C157_12 1_555 1_555
H124_12 C158_12 1_555 1_555
H125_12 C159_12 1_555 1_555
H126_12 C160_12 1_555 1_555
H130_12 C164_12 1_555 1_555
H131_12 C165_12 1_555 1_555
H132_12 C166_12 1_555 1_555
H133_12 C167_12 1_555 1_555
H134_12 C168_12 1_555 1_555
H135_12 C158_12 1_555 1_555
H136_12 C159_12 1_555 1_555
H137_12 C160_12 1_555 1_555
H141_12 C164_12 1_555 1_555
H142_12 C165_12 1_555 1_555
H143_12 C166_12 1_555 1_555
H144_12 C167_12 1_555 1_555
H145_12 C168_12 1_555 1_555
H146_12 C158_12 1_555 1_555
H147_12 C159_12 1_555 1_555
H148_12 C160_12 1_555 1_555
H152_12 C164_12 1_555 1_555
H153_12 C165_12 1_555 1_555
H154_12 C166_12 1_555 1_555
H155_12 C167_12 1_555 1_555
H156_12 C168_12 1_555 1_555
O36_15 Cd14_2 1_555 1_555
O37_15 Cd11_8 1_555 1_555
O38_15 Cd13_2 1_555 1_555
O4_15 Cd13_2 1_555 1_555
C6_12 C7_12 1_555 1_555
C9_12 C10_12 1_555 1_555
Cd13_2 O22_10 1_555 1_555
Cd11_8 O21_12 1_555 1_555
Cd14_2 O24_12 1_555 1_555
Cd14_2 O25_12 1_555 1_555
Cd13_4 O28_12 1_555 1_555
O24_12 C15_12 1_555 1_555
O25_12 C21_12 1_555 1_555
C68_12 C114_12 1_555 1_555
C70_12 C81_12 1_555 1_555
C71_12 C82_12 1_555 1_555
C72_12 C83_12 1_555 1_555
C76_12 C87_12 1_555 1_555
C77_12 C88_12 1_555 1_555
C78_12 C89_12 1_555 1_555
C79_12 C90_12 1_555 1_555
C80_12 C91_12 1_555 1_555
C101_12 C103_12 1_555 1_555
C103_12 C124_12 1_555 1_555
C104_12 C115_12 1_555 1_555
C104_12 C116_12 1_555 1_555
C105_12 C115_12 1_555 1_555
C105_12 C117_12 1_555 1_555
C106_12 C116_12 1_555 1_555
C106_12 C117_12 1_555 1_555
C110_12 C121_12 1_555 1_555
C110_12 C122_12 1_555 1_555
C111_12 C121_12 1_555 1_555
C111_12 C123_12 1_555 1_555
C112_12 C122_12 1_555 1_555
C112_12 C123_12 1_555 1_555
C113_12 C114_12 1_555 1_555
C113_12 C124_12 1_555 1_555
O4_16 Cd14_4 1_555 1_555
O5_16 Cd14_4 1_555 1_555
Cd13_4 O4_16 1_555 1_555
Cd5_8 O4_16 1_555 1_555
Cd11_4 O13_13 1_555 1_555
Cd9_6 O14_13 1_555 1_555
Cd10_6 O29_13 1_555 1_555
O11_13 Cd8_4 1_555 1_555
O13_13 C16_13 1_555 1_555
O14_13 C17_13 1_555 1_555
O24_13 Cd8_4 1_555 1_555
O28_13 Cd11_4 1_555 1_555
O29_13 Cd9_6 1_555 1_555
C15_13 O11_13 1_555 1_555
C16_13 O28_13 1_555 1_555
C17_13 O29_13 1_555 1_555
C26_13 C15_13 1_555 1_555
C27_13 C16_13 1_555 1_555
C28_13 C17_13 1_555 1_555
C37_13 C26_13 1_555 1_555
C38_13 C27_13 1_555 1_555
C39_13 C28_13 1_555 1_555
H14_13 C37_13 1_555 1_555
H15_13 C38_13 1_555 1_555
H16_13 C39_13 1_555 1_555
C48_13 C37_13 1_555 1_555
C49_13 C38_13 1_555 1_555
C50_13 C39_13 1_555 1_555
C59_13 C48_13 1_555 1_555
C60_13 C50_13 1_555 1_555
C61_13 C49_13 1_555 1_555
C70_13 C59_13 1_555 1_555
C71_13 C60_13 1_555 1_555
C72_13 C61_13 1_555 1_555
H25_13 C70_13 1_555 1_555
H26_13 C71_13 1_555 1_555
H27_13 C72_13 1_555 1_555
C81_13 C26_13 1_555 1_555
C82_13 C28_13 1_555 1_555
C83_13 C27_13 1_555 1_555
H36_13 C81_13 1_555 1_555
H37_13 C82_13 1_555 1_555
H38_13 C83_13 1_555 1_555
C92_13 C48_13 1_555 1_555
C93_13 C49_13 1_555 1_555
C94_13 C50_13 1_555 1_555
C104_13 C92_13 1_555 1_555
C105_13 C93_13 1_555 1_555
C106_13 C94_13 1_555 1_555
C115_13 C59_13 1_555 1_555
C116_13 C60_13 1_555 1_555
C117_13 C61_13 1_555 1_555
C125_13 C92_13 1_555 1_555
C126_13 C93_13 1_555 1_555
C127_13 C94_13 1_555 1_555
H47_13 C125_13 1_555 1_555
H48_13 C126_13 1_555 1_555
H49_13 C127_13 1_555 1_555
H58_13 C125_13 1_555 1_555
H59_13 C126_13 1_555 1_555
H60_13 C127_13 1_555 1_555
C136_13 C125_13 1_555 1_555
C137_13 C126_13 1_555 1_555
C138_13 C127_13 1_555 1_555
H69_13 C136_13 1_555 1_555
H70_13 C137_13 1_555 1_555
H71_13 C138_13 1_555 1_555
H80_13 C136_13 1_555 1_555
H81_13 C137_13 1_555 1_555
H82_13 C138_13 1_555 1_555
H91_13 C136_13 1_555 1_555
H92_13 C137_13 1_555 1_555
H93_13 C138_13 1_555 1_555
C147_13 C92_13 1_555 1_555
C148_13 C93_13 1_555 1_555
C149_13 C94_13 1_555 1_555
H102_13 C147_13 1_555 1_555
H103_13 C148_13 1_555 1_555
H104_13 C149_13 1_555 1_555
H113_13 C147_13 1_555 1_555
H114_13 C148_13 1_555 1_555
H115_13 C149_13 1_555 1_555
C158_13 C147_13 1_555 1_555
C159_13 C148_13 1_555 1_555
C160_13 C149_13 1_555 1_555
H124_13 C158_13 1_555 1_555
H125_13 C159_13 1_555 1_555
H126_13 C160_13 1_555 1_555
H135_13 C158_13 1_555 1_555
H136_13 C159_13 1_555 1_555
H137_13 C160_13 1_555 1_555
H146_13 C158_13 1_555 1_555
H147_13 C159_13 1_555 1_555
H148_13 C160_13 1_555 1_555
O36_16 Cd5_8 1_555 1_555
O37_16 Cd13_4 1_555 1_555
O38_16 Cd8_4 1_555 1_555
O4_16 Cd8_4 1_555 1_555
Cd5_8 O24_13 1_555 1_555
Cd12_4 O28_13 1_555 1_555
O24_13 C15_13 1_555 1_555
C70_13 C81_13 1_555 1_555
C71_13 C82_13 1_555 1_555
C72_13 C83_13 1_555 1_555
C104_13 C115_13 1_555 1_555
C104_13 C116_13 1_555 1_555
C105_13 C115_13 1_555 1_555
C105_13 C117_13 1_555 1_555
C106_13 C116_13 1_555 1_555
C106_13 C117_13 1_555 1_555
O4_17 Cd14_5 1_555 1_555
O5_17 Cd14_5 1_555 1_555
Cd13_5 O4_17 1_555 1_555
Cd5_9 O4_17 1_555 1_555
Cd16_14 O17_10 1_555 1_555
Cd8_9 O32_10 1_555 1_555
O6_11 Cd14_5 1_555 1_555
O7_13 Cd5_9 1_555 1_555
O12_10 Cd8_5 1_555 1_555
O17_10 C22_13 1_555 1_555
O12_8 C23_13 1_555 1_555
O22_11 Cd14_5 1_555 1_555
O25_13 Cd13_5 1_555 1_555
O26_10 Cd8_5 1_555 1_555
O32_10 Cd16_14 1_555 1_555
C21_13 O7_13 1_555 1_555
C22_13 O32_10 1_555 1_555
C23_13 O26_8 1_555 1_555
C32_13 C21_13 1_555 1_555
C33_13 C22_13 1_555 1_555
C34_13 C23_13 1_555 1_555
C43_13 C32_13 1_555 1_555
C44_13 C33_13 1_555 1_555
C45_13 C34_13 1_555 1_555
H20_13 C43_13 1_555 1_555
H21_13 C44_13 1_555 1_555
H22_13 C45_13 1_555 1_555
C54_13 C43_13 1_555 1_555
C55_13 C44_13 1_555 1_555
C56_13 C45_13 1_555 1_555
C65_13 C54_13 1_555 1_555
C66_13 C56_13 1_555 1_555
C67_13 C55_13 1_555 1_555
C76_13 C65_13 1_555 1_555
C77_13 C66_13 1_555 1_555
C78_13 C67_13 1_555 1_555
H31_13 C76_13 1_555 1_555
H32_13 C77_13 1_555 1_555
H33_13 C78_13 1_555 1_555
C87_13 C32_13 1_555 1_555
C88_13 C34_13 1_555 1_555
C89_13 C33_13 1_555 1_555
H42_13 C87_13 1_555 1_555
H43_13 C88_13 1_555 1_555
H44_13 C89_13 1_555 1_555
C98_13 C54_13 1_555 1_555
C99_13 C55_13 1_555 1_555
C100_13 C56_13 1_555 1_555
C110_13 C98_13 1_555 1_555
C111_13 C99_13 1_555 1_555
C112_13 C100_13 1_555 1_555
C121_13 C65_13 1_555 1_555
C122_13 C66_13 1_555 1_555
C123_13 C67_13 1_555 1_555
C131_13 C98_13 1_555 1_555
C132_13 C99_13 1_555 1_555
C133_13 C100_13 1_555 1_555
H53_13 C131_13 1_555 1_555
H54_13 C132_13 1_555 1_555
H55_13 C133_13 1_555 1_555
H64_13 C131_13 1_555 1_555
H65_13 C132_13 1_555 1_555
H66_13 C133_13 1_555 1_555
C142_13 C131_13 1_555 1_555
C143_13 C132_13 1_555 1_555
C144_13 C133_13 1_555 1_555
H75_13 C142_13 1_555 1_555
H76_13 C143_13 1_555 1_555
H77_13 C144_13 1_555 1_555
H86_13 C142_13 1_555 1_555
H87_13 C143_13 1_555 1_555
H88_13 C144_13 1_555 1_555
H97_13 C142_13 1_555 1_555
H98_13 C143_13 1_555 1_555
H99_13 C144_13 1_555 1_555
C153_13 C98_13 1_555 1_555
C154_13 C99_13 1_555 1_555
C155_13 C100_13 1_555 1_555
H108_13 C153_13 1_555 1_555
H109_13 C154_13 1_555 1_555
H110_13 C155_13 1_555 1_555
H119_13 C153_13 1_555 1_555
H120_13 C154_13 1_555 1_555
H121_13 C155_13 1_555 1_555
C164_13 C153_13 1_555 1_555
C165_13 C154_13 1_555 1_555
C166_13 C155_13 1_555 1_555
H130_13 C164_13 1_555 1_555
H131_13 C165_13 1_555 1_555
H132_13 C166_13 1_555 1_555
H141_13 C164_13 1_555 1_555
H142_13 C165_13 1_555 1_555
H143_13 C166_13 1_555 1_555
H152_13 C164_13 1_555 1_555
H153_13 C165_13 1_555 1_555
H154_13 C166_13 1_555 1_555
O36_17 Cd5_9 1_555 1_555
O37_17 Cd13_5 1_555 1_555
O38_17 Cd8_5 1_555 1_555
O4_17 Cd8_5 1_555 1_555
Cd8_5 O22_11 1_555 1_555
Cd5_9 O25_13 1_555 1_555
Cd5_9 O26_10 1_555 1_555
O25_13 C21_13 1_555 1_555
C76_13 C87_13 1_555 1_555
C77_13 C88_13 1_555 1_555
C78_13 C89_13 1_555 1_555
C110_13 C121_13 1_555 1_555
C110_13 C122_13 1_555 1_555
C111_13 C121_13 1_555 1_555
C111_13 C123_13 1_555 1_555
C112_13 C122_13 1_555 1_555
C112_13 C123_13 1_555 1_555
O9_6 C1_13 1_555 1_555
C1_13 O21_6 1_555 1_555
C2_13 C1_13 1_555 1_555
C3_13 C2_13 1_555 1_555
H1_13 C3_13 1_555 1_555
C4_13 C3_13 1_555 1_555
C5_13 C4_13 1_555 1_555
C6_13 C5_13 1_555 1_555
H2_13 C6_13 1_555 1_555
C7_13 C2_13 1_555 1_555
H3_13 C7_13 1_555 1_555
C8_13 C4_13 1_555 1_555
C9_13 C8_13 1_555 1_555
C10_13 C5_13 1_555 1_555
C11_13 C8_13 1_555 1_555
H4_13 C11_13 1_555 1_555
H5_13 C11_13 1_555 1_555
C12_13 C11_13 1_555 1_555
H6_13 C12_13 1_555 1_555
H7_13 C12_13 1_555 1_555
H8_13 C12_13 1_555 1_555
C13_13 C8_13 1_555 1_555
H9_13 C13_13 1_555 1_555
H10_13 C13_13 1_555 1_555
C14_13 C13_13 1_555 1_555
H11_13 C14_13 1_555 1_555
H12_13 C14_13 1_555 1_555
H13_13 C14_13 1_555 1_555
Cd7_4 O18_9 1_555 1_555
Cd11_5 O33_9 1_555 1_555
O6_3 C22_14 1_555 1_555
O18_9 C23_14 1_555 1_555
O9_8 C24_13 1_555 1_555
O9_12 C25_13 1_555 1_555
O33_9 Cd7_4 1_555 1_555
C21_14 O12_5 1_555 1_555
C22_14 O22_3 1_555 1_555
C23_14 O33_9 1_555 1_555
C24_13 O21_8 1_555 1_555
C25_13 O21_12 1_555 1_555
C32_14 C21_14 1_555 1_555
C33_14 C22_14 1_555 1_555
C34_14 C23_14 1_555 1_555
C35_13 C24_13 1_555 1_555
C36_13 C25_13 1_555 1_555
C43_14 C32_14 1_555 1_555
C44_14 C33_14 1_555 1_555
C45_14 C34_14 1_555 1_555
C46_13 C35_13 1_555 1_555
C47_13 C36_13 1_555 1_555
H20_14 C43_14 1_555 1_555
H21_14 C44_14 1_555 1_555
H22_14 C45_14 1_555 1_555
H23_13 C46_13 1_555 1_555
H24_13 C47_13 1_555 1_555
C54_14 C43_14 1_555 1_555
C55_14 C44_14 1_555 1_555
C56_14 C45_14 1_555 1_555
C57_13 C46_13 1_555 1_555
C58_13 C47_13 1_555 1_555
C65_14 C54_14 1_555 1_555
C66_14 C56_14 1_555 1_555
C67_14 C55_14 1_555 1_555
C68_13 C57_13 1_555 1_555
C69_13 C58_13 1_555 1_555
C76_14 C65_14 1_555 1_555
C77_14 C66_14 1_555 1_555
C78_14 C67_14 1_555 1_555
C79_13 C68_13 1_555 1_555
C80_13 C69_13 1_555 1_555
H31_14 C76_14 1_555 1_555
H32_14 C77_14 1_555 1_555
H33_14 C78_14 1_555 1_555
H34_13 C79_13 1_555 1_555
H35_13 C80_13 1_555 1_555
C87_14 C32_14 1_555 1_555
C88_14 C34_14 1_555 1_555
C89_14 C33_14 1_555 1_555
C90_13 C35_13 1_555 1_555
C91_13 C36_13 1_555 1_555
H42_14 C87_14 1_555 1_555
H43_14 C88_14 1_555 1_555
H44_14 C89_14 1_555 1_555
H45_13 C90_13 1_555 1_555
H46_13 C91_13 1_555 1_555
C98_14 C54_14 1_555 1_555
C99_14 C55_14 1_555 1_555
C100_14 C56_14 1_555 1_555
C101_13 C58_13 1_555 1_555
C102_13 C57_13 1_555 1_555
C103_13 C10_13 1_555 1_555
C110_14 C98_14 1_555 1_555
C111_14 C99_14 1_555 1_555
C112_14 C100_14 1_555 1_555
C113_13 C102_13 1_555 1_555
C114_13 C9_13 1_555 1_555
C121_14 C65_14 1_555 1_555
C122_14 C66_14 1_555 1_555
C123_14 C67_14 1_555 1_555
C124_13 C69_13 1_555 1_555
C131_14 C98_14 1_555 1_555
C132_14 C99_14 1_555 1_555
C133_14 C100_14 1_555 1_555
C134_13 C101_13 1_555 1_555
C135_13 C102_13 1_555 1_555
H53_14 C131_14 1_555 1_555
H54_14 C132_14 1_555 1_555
H55_14 C133_14 1_555 1_555
H56_13 C134_13 1_555 1_555
H57_13 C135_13 1_555 1_555
H64_14 C131_14 1_555 1_555
H65_14 C132_14 1_555 1_555
H66_14 C133_14 1_555 1_555
H67_13 C134_13 1_555 1_555
H68_13 C135_13 1_555 1_555
C142_14 C131_14 1_555 1_555
C143_14 C132_14 1_555 1_555
C144_14 C133_14 1_555 1_555
C145_13 C134_13 1_555 1_555
C146_13 C135_13 1_555 1_555
H75_14 C142_14 1_555 1_555
H76_14 C143_14 1_555 1_555
H77_14 C144_14 1_555 1_555
H78_13 C145_13 1_555 1_555
H79_13 C146_13 1_555 1_555
H86_14 C142_14 1_555 1_555
H87_14 C143_14 1_555 1_555
H88_14 C144_14 1_555 1_555
H89_13 C145_13 1_555 1_555
H90_13 C146_13 1_555 1_555
H97_14 C142_14 1_555 1_555
H98_14 C143_14 1_555 1_555
H99_14 C144_14 1_555 1_555
H100_13 C145_13 1_555 1_555
H101_13 C146_13 1_555 1_555
C153_14 C98_14 1_555 1_555
C154_14 C99_14 1_555 1_555
C155_14 C100_14 1_555 1_555
C156_13 C101_13 1_555 1_555
C157_13 C102_13 1_555 1_555
H108_14 C153_14 1_555 1_555
H109_14 C154_14 1_555 1_555
H110_14 C155_14 1_555 1_555
H111_13 C156_13 1_555 1_555
H112_13 C157_13 1_555 1_555
H119_14 C153_14 1_555 1_555
H120_14 C154_14 1_555 1_555
H121_14 C155_14 1_555 1_555
H122_13 C156_13 1_555 1_555
H123_13 C157_13 1_555 1_555
C164_14 C153_14 1_555 1_555
C165_14 C154_14 1_555 1_555
C166_14 C155_14 1_555 1_555
C167_13 C156_13 1_555 1_555
C168_13 C157_13 1_555 1_555
H130_14 C164_14 1_555 1_555
H131_14 C165_14 1_555 1_555
H132_14 C166_14 1_555 1_555
H133_13 C167_13 1_555 1_555
H134_13 C168_13 1_555 1_555
H141_14 C164_14 1_555 1_555
H142_14 C165_14 1_555 1_555
H143_14 C166_14 1_555 1_555
H144_13 C167_13 1_555 1_555
H145_13 C168_13 1_555 1_555
H152_14 C164_14 1_555 1_555
H153_14 C165_14 1_555 1_555
H154_14 C166_14 1_555 1_555
H155_13 C167_13 1_555 1_555
H156_13 C168_13 1_555 1_555
C6_13 C7_13 1_555 1_555
C9_13 C10_13 1_555 1_555
O26_5 C21_14 1_555 1_555
C68_13 C114_13 1_555 1_555
C76_14 C87_14 1_555 1_555
C77_14 C88_14 1_555 1_555
C78_14 C89_14 1_555 1_555
C79_13 C90_13 1_555 1_555
C80_13 C91_13 1_555 1_555
C101_13 C103_13 1_555 1_555
C103_13 C124_13 1_555 1_555
C110_14 C121_14 1_555 1_555
C110_14 C122_14 1_555 1_555
C111_14 C121_14 1_555 1_555
C111_14 C123_14 1_555 1_555
C112_14 C122_14 1_555 1_555
C112_14 C123_14 1_555 1_555
C113_13 C114_13 1_555 1_555
C113_13 C124_13 1_555 1_555
Cd7 O15_8 1_555 1_555
Cd15_3 O16_8 1_555 1_555
Cd7_2 O31_8 1_555 1_555
O15_8 C19_8 1_555 1_555
O16_8 C20_8 1_555 1_555
O30_8 Cd7 1_555 1_555
O31_8 Cd15_3 1_555 1_555
C18_8 O6_10 1_555 1_555
C19_8 O30_8 1_555 1_555
C20_8 O31_8 1_555 1_555
C29_8 C18_8 1_555 1_555
C30_8 C19_8 1_555 1_555
C31_8 C20_8 1_555 1_555
C40_8 C29_8 1_555 1_555
C41_8 C30_8 1_555 1_555
C42_8 C31_8 1_555 1_555
H17_8 C40_8 1_555 1_555
H18_8 C41_8 1_555 1_555
H19_8 C42_8 1_555 1_555
C51_8 C40_8 1_555 1_555
C52_8 C41_8 1_555 1_555
C53_8 C42_8 1_555 1_555
C62_8 C51_8 1_555 1_555
C63_8 C53_8 1_555 1_555
C64_8 C52_8 1_555 1_555
C73_8 C62_8 1_555 1_555
C74_8 C63_8 1_555 1_555
C75_8 C64_8 1_555 1_555
H28_8 C73_8 1_555 1_555
H29_8 C74_8 1_555 1_555
H30_8 C75_8 1_555 1_555
C84_8 C29_8 1_555 1_555
C85_8 C31_8 1_555 1_555
C86_8 C30_8 1_555 1_555
H39_8 C84_8 1_555 1_555
H40_8 C85_8 1_555 1_555
H41_8 C86_8 1_555 1_555
C95_8 C51_8 1_555 1_555
C96_8 C52_8 1_555 1_555
C97_8 C53_8 1_555 1_555
C107_8 C95_8 1_555 1_555
C108_8 C96_8 1_555 1_555
C109_8 C97_8 1_555 1_555
C118_8 C62_8 1_555 1_555
C119_8 C63_8 1_555 1_555
C120_8 C64_8 1_555 1_555
C128_8 C95_8 1_555 1_555
C129_8 C96_8 1_555 1_555
C130_8 C97_8 1_555 1_555
H50_8 C128_8 1_555 1_555
H51_8 C129_8 1_555 1_555
H52_8 C130_8 1_555 1_555
H61_8 C128_8 1_555 1_555
H62_8 C129_8 1_555 1_555
H63_8 C130_8 1_555 1_555
C139_8 C128_8 1_555 1_555
C140_8 C129_8 1_555 1_555
C141_8 C130_8 1_555 1_555
H72_8 C139_8 1_555 1_555
H73_8 C140_8 1_555 1_555
H74_8 C141_8 1_555 1_555
H83_8 C139_8 1_555 1_555
H84_8 C140_8 1_555 1_555
H85_8 C141_8 1_555 1_555
H94_8 C139_8 1_555 1_555
H95_8 C140_8 1_555 1_555
H96_8 C141_8 1_555 1_555
C150_8 C95_8 1_555 1_555
C151_8 C96_8 1_555 1_555
C152_8 C97_8 1_555 1_555
H105_8 C150_8 1_555 1_555
H106_8 C151_8 1_555 1_555
H107_8 C152_8 1_555 1_555
H116_8 C150_8 1_555 1_555
H117_8 C151_8 1_555 1_555
H118_8 C152_8 1_555 1_555
C161_8 C150_8 1_555 1_555
C162_8 C151_8 1_555 1_555
C163_8 C152_8 1_555 1_555
H127_8 C161_8 1_555 1_555
H128_8 C162_8 1_555 1_555
H129_8 C163_8 1_555 1_555
H138_8 C161_8 1_555 1_555
H139_8 C162_8 1_555 1_555
H140_8 C163_8 1_555 1_555
H149_8 C161_8 1_555 1_555
H150_8 C162_8 1_555 1_555
H151_8 C163_8 1_555 1_555
Cd8 O30_8 1_555 1_555
O22_10 C18_8 1_555 1_555
C73_8 C84_8 1_555 1_555
C74_8 C85_8 1_555 1_555
C75_8 C86_8 1_555 1_555
C107_8 C118_8 1_555 1_555
C107_8 C119_8 1_555 1_555
C108_8 C118_8 1_555 1_555
C108_8 C120_8 1_555 1_555
C109_8 C119_8 1_555 1_555
C109_8 C120_8 1_555 1_555
O4_18 Cd6_10 1_555 1_555
O5_18 Cd6_10 1_555 1_555
Cd5_6 O4_18 1_555 1_555
Cd8_8 O4_18 1_555 1_555
O8_5 Cd8_8 1_555 1_555
O27_5 Cd5_6 1_555 1_555
O36_18 Cd8_8 1_555 1_555
O37_18 Cd5_6 1_555 1_555
O38_18 Cd16_13 1_555 1_555
O4_18 Cd16_13 1_555 1_555
Cd8_8 O27_5 1_555 1_555
O4_19 Cd6_11 1_555 1_555
O5_19 Cd6_11 1_555 1_555
Cd5_7 O4_19 1_555 1_555
Cd8_9 O4_19 1_555 1_555
Cd16_4 O15_9 1_555 1_555
Cd8_7 O18_10 1_555 1_555
Cd5_5 O33_10 1_555 1_555
O7_14 Cd8_9 1_555 1_555
O10_8 Cd5_7 1_555 1_555
O15_9 C19_9 1_555 1_555
O12_7 C20_9 1_555 1_555
O12_10 C22_15 1_555 1_555
O18_10 C23_15 1_555 1_555
O23_8 Cd6_11 1_555 1_555
O25_14 Cd5_7 1_555 1_555
O30_9 Cd16_4 1_555 1_555
O33_10 Cd8_7 1_555 1_555
C18_9 O10_8 1_555 1_555
C19_9 O30_9 1_555 1_555
C20_9 O26_7 1_555 1_555
C21_15 O7_14 1_555 1_555
C22_15 O26_10 1_555 1_555
C23_15 O33_10 1_555 1_555
C29_9 C18_9 1_555 1_555
C30_9 C19_9 1_555 1_555
C31_9 C20_9 1_555 1_555
C32_15 C21_15 1_555 1_555
C33_15 C22_15 1_555 1_555
C34_15 C23_15 1_555 1_555
C40_9 C29_9 1_555 1_555
C41_9 C30_9 1_555 1_555
C42_9 C31_9 1_555 1_555
C43_15 C32_15 1_555 1_555
C44_15 C33_15 1_555 1_555
C45_15 C34_15 1_555 1_555
H17_9 C40_9 1_555 1_555
H18_9 C41_9 1_555 1_555
H19_9 C42_9 1_555 1_555
H20_15 C43_15 1_555 1_555
H21_15 C44_15 1_555 1_555
H22_15 C45_15 1_555 1_555
C51_9 C40_9 1_555 1_555
C52_9 C41_9 1_555 1_555
C53_9 C42_9 1_555 1_555
C54_15 C43_15 1_555 1_555
C55_15 C44_15 1_555 1_555
C56_15 C45_15 1_555 1_555
C62_9 C51_9 1_555 1_555
C63_9 C53_9 1_555 1_555
C64_9 C52_9 1_555 1_555
C65_15 C54_15 1_555 1_555
C66_15 C56_15 1_555 1_555
C67_15 C55_15 1_555 1_555
C73_9 C62_9 1_555 1_555
C74_9 C63_9 1_555 1_555
C75_9 C64_9 1_555 1_555
C76_15 C65_15 1_555 1_555
C77_15 C66_15 1_555 1_555
C78_15 C67_15 1_555 1_555
H28_9 C73_9 1_555 1_555
H29_9 C74_9 1_555 1_555
H30_9 C75_9 1_555 1_555
H31_15 C76_15 1_555 1_555
H32_15 C77_15 1_555 1_555
H33_15 C78_15 1_555 1_555
C84_9 C29_9 1_555 1_555
C85_9 C31_9 1_555 1_555
C86_9 C30_9 1_555 1_555
C87_15 C32_15 1_555 1_555
C88_15 C34_15 1_555 1_555
C89_15 C33_15 1_555 1_555
H39_9 C84_9 1_555 1_555
H40_9 C85_9 1_555 1_555
H41_9 C86_9 1_555 1_555
H42_15 C87_15 1_555 1_555
H43_15 C88_15 1_555 1_555
H44_15 C89_15 1_555 1_555
C95_9 C51_9 1_555 1_555
C96_9 C52_9 1_555 1_555
C97_9 C53_9 1_555 1_555
C98_15 C54_15 1_555 1_555
C99_15 C55_15 1_555 1_555
C100_15 C56_15 1_555 1_555
C107_9 C95_9 1_555 1_555
C108_9 C96_9 1_555 1_555
C109_9 C97_9 1_555 1_555
C110_15 C98_15 1_555 1_555
C111_15 C99_15 1_555 1_555
C112_15 C100_15 1_555 1_555
C118_9 C62_9 1_555 1_555
C119_9 C63_9 1_555 1_555
C120_9 C64_9 1_555 1_555
C121_15 C65_15 1_555 1_555
C122_15 C66_15 1_555 1_555
C123_15 C67_15 1_555 1_555
C128_9 C95_9 1_555 1_555
C129_9 C96_9 1_555 1_555
C130_9 C97_9 1_555 1_555
C131_15 C98_15 1_555 1_555
C132_15 C99_15 1_555 1_555
C133_15 C100_15 1_555 1_555
H50_9 C128_9 1_555 1_555
H51_9 C129_9 1_555 1_555
H52_9 C130_9 1_555 1_555
H53_15 C131_15 1_555 1_555
H54_15 C132_15 1_555 1_555
H55_15 C133_15 1_555 1_555
H61_9 C128_9 1_555 1_555
H62_9 C129_9 1_555 1_555
H63_9 C130_9 1_555 1_555
H64_15 C131_15 1_555 1_555
H65_15 C132_15 1_555 1_555
H66_15 C133_15 1_555 1_555
C139_9 C128_9 1_555 1_555
C140_9 C129_9 1_555 1_555
C141_9 C130_9 1_555 1_555
C142_15 C131_15 1_555 1_555
C143_15 C132_15 1_555 1_555
C144_15 C133_15 1_555 1_555
H72_9 C139_9 1_555 1_555
H73_9 C140_9 1_555 1_555
H74_9 C141_9 1_555 1_555
H75_15 C142_15 1_555 1_555
H76_15 C143_15 1_555 1_555
H77_15 C144_15 1_555 1_555
H83_9 C139_9 1_555 1_555
H84_9 C140_9 1_555 1_555
H85_9 C141_9 1_555 1_555
H86_15 C142_15 1_555 1_555
H87_15 C143_15 1_555 1_555
H88_15 C144_15 1_555 1_555
H94_9 C139_9 1_555 1_555
H95_9 C140_9 1_555 1_555
H96_9 C141_9 1_555 1_555
H97_15 C142_15 1_555 1_555
H98_15 C143_15 1_555 1_555
H99_15 C144_15 1_555 1_555
C150_9 C95_9 1_555 1_555
C151_9 C96_9 1_555 1_555
C152_9 C97_9 1_555 1_555
C153_15 C98_15 1_555 1_555
C154_15 C99_15 1_555 1_555
C155_15 C100_15 1_555 1_555
H105_9 C150_9 1_555 1_555
H106_9 C151_9 1_555 1_555
H107_9 C152_9 1_555 1_555
H108_15 C153_15 1_555 1_555
H109_15 C154_15 1_555 1_555
H110_15 C155_15 1_555 1_555
H116_9 C150_9 1_555 1_555
H117_9 C151_9 1_555 1_555
H118_9 C152_9 1_555 1_555
H119_15 C153_15 1_555 1_555
H120_15 C154_15 1_555 1_555
H121_15 C155_15 1_555 1_555
C161_9 C150_9 1_555 1_555
C162_9 C151_9 1_555 1_555
C163_9 C152_9 1_555 1_555
C164_15 C153_15 1_555 1_555
C165_15 C154_15 1_555 1_555
C166_15 C155_15 1_555 1_555
H127_9 C161_9 1_555 1_555
H128_9 C162_9 1_555 1_555
H129_9 C163_9 1_555 1_555
H130_15 C164_15 1_555 1_555
H131_15 C165_15 1_555 1_555
H132_15 C166_15 1_555 1_555
H138_9 C161_9 1_555 1_555
H139_9 C162_9 1_555 1_555
H140_9 C163_9 1_555 1_555
H141_15 C164_15 1_555 1_555
H142_15 C165_15 1_555 1_555
H143_15 C166_15 1_555 1_555
H149_9 C161_9 1_555 1_555
H150_9 C162_9 1_555 1_555
H151_9 C163_9 1_555 1_555
H152_15 C164_15 1_555 1_555
H153_15 C165_15 1_555 1_555
H154_15 C166_15 1_555 1_555
O36_19 Cd8_9 1_555 1_555
O37_19 Cd5_7 1_555 1_555
O38_19 Cd16_14 1_555 1_555
O4_19 Cd16_14 1_555 1_555
Cd5_7 O23_8 1_555 1_555
Cd8_9 O25_14 1_555 1_555
Cd8_7 O30_9 1_555 1_555
O23_8 C18_9 1_555 1_555
O25_14 C21_15 1_555 1_555
C73_9 C84_9 1_555 1_555
C74_9 C85_9 1_555 1_555
C75_9 C86_9 1_555 1_555
C76_15 C87_15 1_555 1_555
C77_15 C88_15 1_555 1_555
C78_15 C89_15 1_555 1_555
C107_9 C118_9 1_555 1_555
C107_9 C119_9 1_555 1_555
C108_9 C118_9 1_555 1_555
C108_9 C120_9 1_555 1_555
C109_9 C119_9 1_555 1_555
C109_9 C120_9 1_555 1_555
C110_15 C121_15 1_555 1_555
C110_15 C122_15 1_555 1_555
C111_15 C121_15 1_555 1_555
C111_15 C123_15 1_555 1_555
C112_15 C122_15 1_555 1_555
C112_15 C123_15 1_555 1_555
O4_20 Cd6_8 1_555 1_555
O5_20 Cd6_8 1_555 1_555
Cd12 O4_20 1_555 1_555
Cd11 O4_20 1_555 1_555
Cd16_5 O15_10 1_555 1_555
Cd6_2 O16_9 1_555 1_555
Cd16_2 O31_9 1_555 1_555
O10_9 Cd12 1_555 1_555
O12_11 Cd16_9 1_555 1_555
O15_10 C19_10 1_555 1_555
O16_9 C20_10 1_555 1_555
O23_9 Cd6_8 1_555 1_555
O26_11 Cd16_9 1_555 1_555
O30_10 Cd16_5 1_555 1_555
O31_9 Cd6_2 1_555 1_555
C18_10 O10_9 1_555 1_555
C19_10 O30_10 1_555 1_555
C20_10 O31_9 1_555 1_555
C29_10 C18_10 1_555 1_555
C30_10 C19_10 1_555 1_555
C31_10 C20_10 1_555 1_555
C40_10 C29_10 1_555 1_555
C41_10 C30_10 1_555 1_555
C42_10 C31_10 1_555 1_555
H17_10 C40_10 1_555 1_555
H18_10 C41_10 1_555 1_555
H19_10 C42_10 1_555 1_555
C51_10 C40_10 1_555 1_555
C52_10 C41_10 1_555 1_555
C53_10 C42_10 1_555 1_555
C62_10 C51_10 1_555 1_555
C63_10 C53_10 1_555 1_555
C64_10 C52_10 1_555 1_555
C73_10 C62_10 1_555 1_555
C74_10 C63_10 1_555 1_555
C75_10 C64_10 1_555 1_555
H28_10 C73_10 1_555 1_555
H29_10 C74_10 1_555 1_555
H30_10 C75_10 1_555 1_555
C84_10 C29_10 1_555 1_555
C85_10 C31_10 1_555 1_555
C86_10 C30_10 1_555 1_555
H39_10 C84_10 1_555 1_555
H40_10 C85_10 1_555 1_555
H41_10 C86_10 1_555 1_555
C95_10 C51_10 1_555 1_555
C96_10 C52_10 1_555 1_555
C97_10 C53_10 1_555 1_555
C107_10 C95_10 1_555 1_555
C108_10 C96_10 1_555 1_555
C109_10 C97_10 1_555 1_555
C118_10 C62_10 1_555 1_555
C119_10 C63_10 1_555 1_555
C120_10 C64_10 1_555 1_555
C128_10 C95_10 1_555 1_555
C129_10 C96_10 1_555 1_555
C130_10 C97_10 1_555 1_555
H50_10 C128_10 1_555 1_555
H51_10 C129_10 1_555 1_555
H52_10 C130_10 1_555 1_555
H61_10 C128_10 1_555 1_555
H62_10 C129_10 1_555 1_555
H63_10 C130_10 1_555 1_555
C139_10 C128_10 1_555 1_555
C140_10 C129_10 1_555 1_555
C141_10 C130_10 1_555 1_555
H72_10 C139_10 1_555 1_555
H73_10 C140_10 1_555 1_555
H74_10 C141_10 1_555 1_555
H83_10 C139_10 1_555 1_555
H84_10 C140_10 1_555 1_555
H85_10 C141_10 1_555 1_555
H94_10 C139_10 1_555 1_555
H95_10 C140_10 1_555 1_555
H96_10 C141_10 1_555 1_555
C150_10 C95_10 1_555 1_555
C151_10 C96_10 1_555 1_555
C152_10 C97_10 1_555 1_555
H105_10 C150_10 1_555 1_555
H106_10 C151_10 1_555 1_555
H107_10 C152_10 1_555 1_555
H116_10 C150_10 1_555 1_555
H117_10 C151_10 1_555 1_555
H118_10 C152_10 1_555 1_555
C161_10 C150_10 1_555 1_555
C162_10 C151_10 1_555 1_555
C163_10 C152_10 1_555 1_555
H127_10 C161_10 1_555 1_555
H128_10 C162_10 1_555 1_555
H129_10 C163_10 1_555 1_555
H138_10 C161_10 1_555 1_555
H139_10 C162_10 1_555 1_555
H140_10 C163_10 1_555 1_555
H149_10 C161_10 1_555 1_555
H150_10 C162_10 1_555 1_555
H151_10 C163_10 1_555 1_555
O36_20 Cd11 1_555 1_555
O37_20 Cd12 1_555 1_555
O38_20 Cd16_9 1_555 1_555
O4_20 Cd16_9 1_555 1_555
Cd12 O23_9 1_555 1_555
Cd11 O26_11 1_555 1_555
Cd9 O30_10 1_555 1_555
O23_9 C18_10 1_555 1_555
C73_10 C84_10 1_555 1_555
C74_10 C85_10 1_555 1_555
C75_10 C86_10 1_555 1_555
C107_10 C118_10 1_555 1_555
C107_10 C119_10 1_555 1_555
C108_10 C118_10 1_555 1_555
C108_10 C120_10 1_555 1_555
C109_10 C119_10 1_555 1_555
C109_10 C120_10 1_555 1_555
O4_21 Cd6_9 1_555 1_555
O5_21 Cd6_9 1_555 1_555
Cd12_2 O4_21 1_555 1_555
Cd11_2 O4_21 1_555 1_555
O8_6 Cd11_2 1_555 1_555
O27_6 Cd12_2 1_555 1_555
O36_21 Cd11_2 1_555 1_555
O37_21 Cd12_2 1_555 1_555
O38_21 Cd16_10 1_555 1_555
O4_21 Cd16_10 1_555 1_555
Cd11_2 O27_6 1_555 1_555
Cd16_7 O15_11 1_555 1_555
O15_11 C19_11 1_555 1_555
O12_6 C20_11 1_555 1_555
O30_11 Cd16_7 1_555 1_555
C18_11 O6_2 1_555 1_555
C19_11 O30_11 1_555 1_555
C20_11 O26_6 1_555 1_555
C29_11 C18_11 1_555 1_555
C30_11 C19_11 1_555 1_555
C31_11 C20_11 1_555 1_555
C40_11 C29_11 1_555 1_555
C41_11 C30_11 1_555 1_555
C42_11 C31_11 1_555 1_555
H17_11 C40_11 1_555 1_555
H18_11 C41_11 1_555 1_555
H19_11 C42_11 1_555 1_555
C51_11 C40_11 1_555 1_555
C52_11 C41_11 1_555 1_555
C53_11 C42_11 1_555 1_555
C62_11 C51_11 1_555 1_555
C63_11 C53_11 1_555 1_555
C64_11 C52_11 1_555 1_555
C73_11 C62_11 1_555 1_555
C74_11 C63_11 1_555 1_555
C75_11 C64_11 1_555 1_555
H28_11 C73_11 1_555 1_555
H29_11 C74_11 1_555 1_555
H30_11 C75_11 1_555 1_555
C84_11 C29_11 1_555 1_555
C85_11 C31_11 1_555 1_555
C86_11 C30_11 1_555 1_555
H39_11 C84_11 1_555 1_555
H40_11 C85_11 1_555 1_555
H41_11 C86_11 1_555 1_555
C95_11 C51_11 1_555 1_555
C96_11 C52_11 1_555 1_555
C97_11 C53_11 1_555 1_555
C107_11 C95_11 1_555 1_555
C108_11 C96_11 1_555 1_555
C109_11 C97_11 1_555 1_555
C118_11 C62_11 1_555 1_555
C119_11 C63_11 1_555 1_555
C120_11 C64_11 1_555 1_555
C128_11 C95_11 1_555 1_555
C129_11 C96_11 1_555 1_555
C130_11 C97_11 1_555 1_555
H50_11 C128_11 1_555 1_555
H51_11 C129_11 1_555 1_555
H52_11 C130_11 1_555 1_555
H61_11 C128_11 1_555 1_555
H62_11 C129_11 1_555 1_555
H63_11 C130_11 1_555 1_555
C139_11 C128_11 1_555 1_555
C140_11 C129_11 1_555 1_555
C141_11 C130_11 1_555 1_555
H72_11 C139_11 1_555 1_555
H73_11 C140_11 1_555 1_555
H74_11 C141_11 1_555 1_555
H83_11 C139_11 1_555 1_555
H84_11 C140_11 1_555 1_555
H85_11 C141_11 1_555 1_555
H94_11 C139_11 1_555 1_555
H95_11 C140_11 1_555 1_555
H96_11 C141_11 1_555 1_555
C150_11 C95_11 1_555 1_555
C151_11 C96_11 1_555 1_555
C152_11 C97_11 1_555 1_555
H105_11 C150_11 1_555 1_555
H106_11 C151_11 1_555 1_555
H107_11 C152_11 1_555 1_555
H116_11 C150_11 1_555 1_555
H117_11 C151_11 1_555 1_555
H118_11 C152_11 1_555 1_555
C161_11 C150_11 1_555 1_555
C162_11 C151_11 1_555 1_555
C163_11 C152_11 1_555 1_555
H127_11 C161_11 1_555 1_555
H128_11 C162_11 1_555 1_555
H129_11 C163_11 1_555 1_555
H138_11 C161_11 1_555 1_555
H139_11 C162_11 1_555 1_555
H140_11 C163_11 1_555 1_555
H149_11 C161_11 1_555 1_555
H150_11 C162_11 1_555 1_555
H151_11 C163_11 1_555 1_555
Cd11_3 O30_11 1_555 1_555
O22_2 C18_11 1_555 1_555
C73_11 C84_11 1_555 1_555
C74_11 C85_11 1_555 1_555
C75_11 C86_11 1_555 1_555
C107_11 C118_11 1_555 1_555
C107_11 C119_11 1_555 1_555
C108_11 C118_11 1_555 1_555
C108_11 C120_11 1_555 1_555
C109_11 C119_11 1_555 1_555
C109_11 C120_11 1_555 1_555
Cd15_5 O18_11 1_555 1_555
Cd16 O17_11 1_555 1_555
Cd8_2 O32_11 1_555 1_555
Cd16_11 O33_11 1_555 1_555
O9_5 C16_14 1_555 1_555
O9_11 C17_14 1_555 1_555
O17_11 C22_16 1_555 1_555
O18_11 C23_16 1_555 1_555
O32_11 Cd16 1_555 1_555
O33_11 Cd15_5 1_555 1_555
C15_14 O9_9 1_555 1_555
C16_14 O21_5 1_555 1_555
C17_14 O21_11 1_555 1_555
C21_16 O6_9 1_555 1_555
C22_16 O32_11 1_555 1_555
C23_16 O33_11 1_555 1_555
C26_14 C15_14 1_555 1_555
C27_14 C16_14 1_555 1_555
C28_14 C17_14 1_555 1_555
C32_16 C21_16 1_555 1_555
C33_16 C22_16 1_555 1_555
C34_16 C23_16 1_555 1_555
C37_14 C26_14 1_555 1_555
C38_14 C27_14 1_555 1_555
C39_14 C28_14 1_555 1_555
C43_16 C32_16 1_555 1_555
C44_16 C33_16 1_555 1_555
C45_16 C34_16 1_555 1_555
H14_14 C37_14 1_555 1_555
H15_14 C38_14 1_555 1_555
H16_14 C39_14 1_555 1_555
H20_16 C43_16 1_555 1_555
H21_16 C44_16 1_555 1_555
H22_16 C45_16 1_555 1_555
C48_14 C37_14 1_555 1_555
C49_14 C38_14 1_555 1_555
C50_14 C39_14 1_555 1_555
C54_16 C43_16 1_555 1_555
C55_16 C44_16 1_555 1_555
C56_16 C45_16 1_555 1_555
C59_14 C48_14 1_555 1_555
C60_14 C50_14 1_555 1_555
C61_14 C49_14 1_555 1_555
C65_16 C54_16 1_555 1_555
C66_16 C56_16 1_555 1_555
C67_16 C55_16 1_555 1_555
C70_14 C59_14 1_555 1_555
C71_14 C60_14 1_555 1_555
C72_14 C61_14 1_555 1_555
C76_16 C65_16 1_555 1_555
C77_16 C66_16 1_555 1_555
C78_16 C67_16 1_555 1_555
H25_14 C70_14 1_555 1_555
H26_14 C71_14 1_555 1_555
H27_14 C72_14 1_555 1_555
H31_16 C76_16 1_555 1_555
H32_16 C77_16 1_555 1_555
H33_16 C78_16 1_555 1_555
C81_14 C26_14 1_555 1_555
C82_14 C28_14 1_555 1_555
C83_14 C27_14 1_555 1_555
C87_16 C32_16 1_555 1_555
C88_16 C34_16 1_555 1_555
C89_16 C33_16 1_555 1_555
H36_14 C81_14 1_555 1_555
H37_14 C82_14 1_555 1_555
H38_14 C83_14 1_555 1_555
H42_16 C87_16 1_555 1_555
H43_16 C88_16 1_555 1_555
H44_16 C89_16 1_555 1_555
C92_14 C48_14 1_555 1_555
C93_14 C49_14 1_555 1_555
C94_14 C50_14 1_555 1_555
C98_16 C54_16 1_555 1_555
C99_16 C55_16 1_555 1_555
C100_16 C56_16 1_555 1_555
C104_14 C92_14 1_555 1_555
C105_14 C93_14 1_555 1_555
C106_14 C94_14 1_555 1_555
C110_16 C98_16 1_555 1_555
C111_16 C99_16 1_555 1_555
C112_16 C100_16 1_555 1_555
C115_14 C59_14 1_555 1_555
C116_14 C60_14 1_555 1_555
C117_14 C61_14 1_555 1_555
C121_16 C65_16 1_555 1_555
C122_16 C66_16 1_555 1_555
C123_16 C67_16 1_555 1_555
C125_14 C92_14 1_555 1_555
C126_14 C93_14 1_555 1_555
C127_14 C94_14 1_555 1_555
C131_16 C98_16 1_555 1_555
C132_16 C99_16 1_555 1_555
C133_16 C100_16 1_555 1_555
H47_14 C125_14 1_555 1_555
H48_14 C126_14 1_555 1_555
H49_14 C127_14 1_555 1_555
H53_16 C131_16 1_555 1_555
H54_16 C132_16 1_555 1_555
H55_16 C133_16 1_555 1_555
H58_14 C125_14 1_555 1_555
H59_14 C126_14 1_555 1_555
H60_14 C127_14 1_555 1_555
H64_16 C131_16 1_555 1_555
H65_16 C132_16 1_555 1_555
H66_16 C133_16 1_555 1_555
C136_14 C125_14 1_555 1_555
C137_14 C126_14 1_555 1_555
C138_14 C127_14 1_555 1_555
C142_16 C131_16 1_555 1_555
C143_16 C132_16 1_555 1_555
C144_16 C133_16 1_555 1_555
H69_14 C136_14 1_555 1_555
H70_14 C137_14 1_555 1_555
H71_14 C138_14 1_555 1_555
H75_16 C142_16 1_555 1_555
H76_16 C143_16 1_555 1_555
H77_16 C144_16 1_555 1_555
H80_14 C136_14 1_555 1_555
H81_14 C137_14 1_555 1_555
H82_14 C138_14 1_555 1_555
H86_16 C142_16 1_555 1_555
H87_16 C143_16 1_555 1_555
H88_16 C144_16 1_555 1_555
H91_14 C136_14 1_555 1_555
H92_14 C137_14 1_555 1_555
H93_14 C138_14 1_555 1_555
H97_16 C142_16 1_555 1_555
H98_16 C143_16 1_555 1_555
H99_16 C144_16 1_555 1_555
C147_14 C92_14 1_555 1_555
C148_14 C93_14 1_555 1_555
C149_14 C94_14 1_555 1_555
C153_16 C98_16 1_555 1_555
C154_16 C99_16 1_555 1_555
C155_16 C100_16 1_555 1_555
H102_14 C147_14 1_555 1_555
H103_14 C148_14 1_555 1_555
H104_14 C149_14 1_555 1_555
H108_16 C153_16 1_555 1_555
H109_16 C154_16 1_555 1_555
H110_16 C155_16 1_555 1_555
H113_14 C147_14 1_555 1_555
H114_14 C148_14 1_555 1_555
H115_14 C149_14 1_555 1_555
H119_16 C153_16 1_555 1_555
H120_16 C154_16 1_555 1_555
H121_16 C155_16 1_555 1_555
C158_14 C147_14 1_555 1_555
C159_14 C148_14 1_555 1_555
C160_14 C149_14 1_555 1_555
C164_16 C153_16 1_555 1_555
C165_16 C154_16 1_555 1_555
C166_16 C155_16 1_555 1_555
H124_14 C158_14 1_555 1_555
H125_14 C159_14 1_555 1_555
H126_14 C160_14 1_555 1_555
H130_16 C164_16 1_555 1_555
H131_16 C165_16 1_555 1_555
H132_16 C166_16 1_555 1_555
H135_14 C158_14 1_555 1_555
H136_14 C159_14 1_555 1_555
H137_14 C160_14 1_555 1_555
H141_16 C164_16 1_555 1_555
H142_16 C165_16 1_555 1_555
H143_16 C166_16 1_555 1_555
H146_14 C158_14 1_555 1_555
H147_14 C159_14 1_555 1_555
H148_14 C160_14 1_555 1_555
H152_16 C164_16 1_555 1_555
H153_16 C165_16 1_555 1_555
H154_16 C166_16 1_555 1_555
O21_9 C15_14 1_555 1_555
O22_9 C21_16 1_555 1_555
C70_14 C81_14 1_555 1_555
C71_14 C82_14 1_555 1_555
C72_14 C83_14 1_555 1_555
C76_16 C87_16 1_555 1_555
C77_16 C88_16 1_555 1_555
C78_16 C89_16 1_555 1_555
C104_14 C115_14 1_555 1_555
C104_14 C116_14 1_555 1_555
C105_14 C115_14 1_555 1_555
C105_14 C117_14 1_555 1_555
C106_14 C116_14 1_555 1_555
C106_14 C117_14 1_555 1_555
C110_16 C121_16 1_555 1_555
C110_16 C122_16 1_555 1_555
C111_16 C121_16 1_555 1_555
C111_16 C123_16 1_555 1_555
C112_16 C122_16 1_555 1_555
C112_16 C123_16 1_555 1_555
O4_22 Cd16_2 1_555 1_555
O5_22 Cd16_2 1_555 1_555
Cd6_2 O4_22 1_555 1_555
Cd5_2 O4_22 1_555 1_555
Cd8 O13_14 1_555 1_555
Cd8_2 O14_14 1_555 1_555
Cd5 O29_14 1_555 1_555
O6_12 Cd16_2 1_555 1_555
O11_14 Cd8_3 1_555 1_555
O13_14 C16_15 1_555 1_555
O14_14 C17_15 1_555 1_555
O22_12 Cd16_2 1_555 1_555
O24_14 Cd8_3 1_555 1_555
O28_14 Cd8 1_555 1_555
O29_14 Cd8_2 1_555 1_555
C15_15 O11_14 1_555 1_555
C16_15 O28_14 1_555 1_555
C17_15 O29_14 1_555 1_555
C26_15 C15_15 1_555 1_555
C27_15 C16_15 1_555 1_555
C28_15 C17_15 1_555 1_555
C37_15 C26_15 1_555 1_555
C38_15 C27_15 1_555 1_555
C39_15 C28_15 1_555 1_555
H14_15 C37_15 1_555 1_555
H15_15 C38_15 1_555 1_555
H16_15 C39_15 1_555 1_555
C48_15 C37_15 1_555 1_555
C49_15 C38_15 1_555 1_555
C50_15 C39_15 1_555 1_555
C59_15 C48_15 1_555 1_555
C60_15 C50_15 1_555 1_555
C61_15 C49_15 1_555 1_555
C70_15 C59_15 1_555 1_555
C71_15 C60_15 1_555 1_555
C72_15 C61_15 1_555 1_555
H25_15 C70_15 1_555 1_555
H26_15 C71_15 1_555 1_555
H27_15 C72_15 1_555 1_555
C81_15 C26_15 1_555 1_555
C82_15 C28_15 1_555 1_555
C83_15 C27_15 1_555 1_555
H36_15 C81_15 1_555 1_555
H37_15 C82_15 1_555 1_555
H38_15 C83_15 1_555 1_555
C92_15 C48_15 1_555 1_555
C93_15 C49_15 1_555 1_555
C94_15 C50_15 1_555 1_555
C104_15 C92_15 1_555 1_555
C105_15 C93_15 1_555 1_555
C106_15 C94_15 1_555 1_555
C115_15 C59_15 1_555 1_555
C116_15 C60_15 1_555 1_555
C117_15 C61_15 1_555 1_555
C125_15 C92_15 1_555 1_555
C126_15 C93_15 1_555 1_555
C127_15 C94_15 1_555 1_555
H47_15 C125_15 1_555 1_555
H48_15 C126_15 1_555 1_555
H49_15 C127_15 1_555 1_555
H58_15 C125_15 1_555 1_555
H59_15 C126_15 1_555 1_555
H60_15 C127_15 1_555 1_555
C136_15 C125_15 1_555 1_555
C137_15 C126_15 1_555 1_555
C138_15 C127_15 1_555 1_555
H69_15 C136_15 1_555 1_555
H70_15 C137_15 1_555 1_555
H71_15 C138_15 1_555 1_555
H80_15 C136_15 1_555 1_555
H81_15 C137_15 1_555 1_555
H82_15 C138_15 1_555 1_555
H91_15 C136_15 1_555 1_555
H92_15 C137_15 1_555 1_555
H93_15 C138_15 1_555 1_555
C147_15 C92_15 1_555 1_555
C148_15 C93_15 1_555 1_555
C149_15 C94_15 1_555 1_555
H102_15 C147_15 1_555 1_555
H103_15 C148_15 1_555 1_555
H104_15 C149_15 1_555 1_555
H113_15 C147_15 1_555 1_555
H114_15 C148_15 1_555 1_555
H115_15 C149_15 1_555 1_555
C158_15 C147_15 1_555 1_555
C159_15 C148_15 1_555 1_555
C160_15 C149_15 1_555 1_555
H124_15 C158_15 1_555 1_555
H125_15 C159_15 1_555 1_555
H126_15 C160_15 1_555 1_555
H135_15 C158_15 1_555 1_555
H136_15 C159_15 1_555 1_555
H137_15 C160_15 1_555 1_555
H146_15 C158_15 1_555 1_555
H147_15 C159_15 1_555 1_555
H148_15 C160_15 1_555 1_555
O36_22 Cd5_2 1_555 1_555
O37_22 Cd6_2 1_555 1_555
O38_22 Cd8_3 1_555 1_555
O4_22 Cd8_3 1_555 1_555
Cd8_3 O22_12 1_555 1_555
Cd5_2 O24_14 1_555 1_555
Cd5_3 O28_14 1_555 1_555
O24_14 C15_15 1_555 1_555
C70_15 C81_15 1_555 1_555
C71_15 C82_15 1_555 1_555
C72_15 C83_15 1_555 1_555
C104_15 C115_15 1_555 1_555
C104_15 C116_15 1_555 1_555
C105_15 C115_15 1_555 1_555
C105_15 C117_15 1_555 1_555
C106_15 C116_15 1_555 1_555
C106_15 C117_15 1_555 1_555
O9_4 C16_16 1_555 1_555
O9_10 C17_16 1_555 1_555
C15_16 O9_7 1_555 1_555
C16_16 O21_4 1_555 1_555
C17_16 O21_10 1_555 1_555
C26_16 C15_16 1_555 1_555
C27_16 C16_16 1_555 1_555
C28_16 C17_16 1_555 1_555
C37_16 C26_16 1_555 1_555
C38_16 C27_16 1_555 1_555
C39_16 C28_16 1_555 1_555
H14_16 C37_16 1_555 1_555
H15_16 C38_16 1_555 1_555
H16_16 C39_16 1_555 1_555
C48_16 C37_16 1_555 1_555
C49_16 C38_16 1_555 1_555
C50_16 C39_16 1_555 1_555
C59_16 C48_16 1_555 1_555
C60_16 C50_16 1_555 1_555
C61_16 C49_16 1_555 1_555
C70_16 C59_16 1_555 1_555
C71_16 C60_16 1_555 1_555
C72_16 C61_16 1_555 1_555
H25_16 C70_16 1_555 1_555
H26_16 C71_16 1_555 1_555
H27_16 C72_16 1_555 1_555
C81_16 C26_16 1_555 1_555
C82_16 C28_16 1_555 1_555
C83_16 C27_16 1_555 1_555
H36_16 C81_16 1_555 1_555
H37_16 C82_16 1_555 1_555
H38_16 C83_16 1_555 1_555
C92_16 C48_16 1_555 1_555
C93_16 C49_16 1_555 1_555
C94_16 C50_16 1_555 1_555
C104_16 C92_16 1_555 1_555
C105_16 C93_16 1_555 1_555
C106_16 C94_16 1_555 1_555
C115_16 C59_16 1_555 1_555
C116_16 C60_16 1_555 1_555
C117_16 C61_16 1_555 1_555
C125_16 C92_16 1_555 1_555
C126_16 C93_16 1_555 1_555
C127_16 C94_16 1_555 1_555
H47_16 C125_16 1_555 1_555
H48_16 C126_16 1_555 1_555
H49_16 C127_16 1_555 1_555
H58_16 C125_16 1_555 1_555
H59_16 C126_16 1_555 1_555
H60_16 C127_16 1_555 1_555
C136_16 C125_16 1_555 1_555
C137_16 C126_16 1_555 1_555
C138_16 C127_16 1_555 1_555
H69_16 C136_16 1_555 1_555
H70_16 C137_16 1_555 1_555
H71_16 C138_16 1_555 1_555
H80_16 C136_16 1_555 1_555
H81_16 C137_16 1_555 1_555
H82_16 C138_16 1_555 1_555
H91_16 C136_16 1_555 1_555
H92_16 C137_16 1_555 1_555
H93_16 C138_16 1_555 1_555
C147_16 C92_16 1_555 1_555
C148_16 C93_16 1_555 1_555
C149_16 C94_16 1_555 1_555
H102_16 C147_16 1_555 1_555
H103_16 C148_16 1_555 1_555
H104_16 C149_16 1_555 1_555
H113_16 C147_16 1_555 1_555
H114_16 C148_16 1_555 1_555
H115_16 C149_16 1_555 1_555
C158_16 C147_16 1_555 1_555
C159_16 C148_16 1_555 1_555
C160_16 C149_16 1_555 1_555
H124_16 C158_16 1_555 1_555
H125_16 C159_16 1_555 1_555
H126_16 C160_16 1_555 1_555
H135_16 C158_16 1_555 1_555
H136_16 C159_16 1_555 1_555
H137_16 C160_16 1_555 1_555
H146_16 C158_16 1_555 1_555
H147_16 C159_16 1_555 1_555
H148_16 C160_16 1_555 1_555
O21_7 C15_16 1_555 1_555
C70_16 C81_16 1_555 1_555
C71_16 C82_16 1_555 1_555
C72_16 C83_16 1_555 1_555
C104_16 C115_16 1_555 1_555
C104_16 C116_16 1_555 1_555
C105_16 C115_16 1_555 1_555
C105_16 C117_16 1_555 1_555
C106_16 C116_16 1_555 1_555
C106_16 C117_16 1_555 1_555
O4_23 Cd9 1_555 1_555
O5_23 Cd9 1_555 1_555
Cd16_5 O4_23 1_555 1_555
Cd15 O4_23 1_555 1_555
O7_15 Cd15 1_555 1_555
O6_4 C22_17 1_555 1_555
O6_12 C23_17 1_555 1_555
O25_15 Cd16_5 1_555 1_555
C21_17 O7_15 1_555 1_555
C22_17 O22_4 1_555 1_555
C23_17 O22_12 1_555 1_555
C32_17 C21_17 1_555 1_555
C33_17 C22_17 1_555 1_555
C34_17 C23_17 1_555 1_555
C43_17 C32_17 1_555 1_555
C44_17 C33_17 1_555 1_555
C45_17 C34_17 1_555 1_555
H20_17 C43_17 1_555 1_555
H21_17 C44_17 1_555 1_555
H22_17 C45_17 1_555 1_555
C54_17 C43_17 1_555 1_555
C55_17 C44_17 1_555 1_555
C56_17 C45_17 1_555 1_555
C65_17 C54_17 1_555 1_555
C66_17 C56_17 1_555 1_555
C67_17 C55_17 1_555 1_555
C76_17 C65_17 1_555 1_555
C77_17 C66_17 1_555 1_555
C78_17 C67_17 1_555 1_555
H31_17 C76_17 1_555 1_555
H32_17 C77_17 1_555 1_555
H33_17 C78_17 1_555 1_555
C87_17 C32_17 1_555 1_555
C88_17 C34_17 1_555 1_555
C89_17 C33_17 1_555 1_555
H42_17 C87_17 1_555 1_555
H43_17 C88_17 1_555 1_555
H44_17 C89_17 1_555 1_555
C98_17 C54_17 1_555 1_555
C99_17 C55_17 1_555 1_555
C100_17 C56_17 1_555 1_555
C110_17 C98_17 1_555 1_555
C111_17 C99_17 1_555 1_555
C112_17 C100_17 1_555 1_555
C121_17 C65_17 1_555 1_555
C122_17 C66_17 1_555 1_555
C123_17 C67_17 1_555 1_555
C131_17 C98_17 1_555 1_555
C132_17 C99_17 1_555 1_555
C133_17 C100_17 1_555 1_555
H53_17 C131_17 1_555 1_555
H54_17 C132_17 1_555 1_555
H55_17 C133_17 1_555 1_555
H64_17 C131_17 1_555 1_555
H65_17 C132_17 1_555 1_555
H66_17 C133_17 1_555 1_555
C142_17 C131_17 1_555 1_555
C143_17 C132_17 1_555 1_555
C144_17 C133_17 1_555 1_555
H75_17 C142_17 1_555 1_555
H76_17 C143_17 1_555 1_555
H77_17 C144_17 1_555 1_555
H86_17 C142_17 1_555 1_555
H87_17 C143_17 1_555 1_555
H88_17 C144_17 1_555 1_555
H97_17 C142_17 1_555 1_555
H98_17 C143_17 1_555 1_555
H99_17 C144_17 1_555 1_555
C153_17 C98_17 1_555 1_555
C154_17 C99_17 1_555 1_555
C155_17 C100_17 1_555 1_555
H108_17 C153_17 1_555 1_555
H109_17 C154_17 1_555 1_555
H110_17 C155_17 1_555 1_555
H119_17 C153_17 1_555 1_555
H120_17 C154_17 1_555 1_555
H121_17 C155_17 1_555 1_555
C164_17 C153_17 1_555 1_555
C165_17 C154_17 1_555 1_555
C166_17 C155_17 1_555 1_555
H130_17 C164_17 1_555 1_555
H131_17 C165_17 1_555 1_555
H132_17 C166_17 1_555 1_555
H141_17 C164_17 1_555 1_555
H142_17 C165_17 1_555 1_555
H143_17 C166_17 1_555 1_555
H152_17 C164_17 1_555 1_555
H153_17 C165_17 1_555 1_555
H154_17 C166_17 1_555 1_555
O36_23 Cd15 1_555 1_555
O37_23 Cd16_5 1_555 1_555
O38_23 Cd10 1_555 1_555
O4_23 Cd10 1_555 1_555
Cd15 O25_15 1_555 1_555
O25_15 C21_17 1_555 1_555
C76_17 C87_17 1_555 1_555
C77_17 C88_17 1_555 1_555
C78_17 C89_17 1_555 1_555
C110_17 C121_17 1_555 1_555
C110_17 C122_17 1_555 1_555
C111_17 C121_17 1_555 1_555
C111_17 C123_17 1_555 1_555
C112_17 C122_17 1_555 1_555
C112_17 C123_17 1_555 1_555
Cd9_2 O2_13 1_555 1_555
O2_13 C1_14 1_555 1_555
O3_13 Cd9_2 1_555 1_555
O4_24 Cd9_2 1_555 1_555
C1_14 O3_13 1_555 1_555
C2_14 C1_14 1_555 1_555
C3_14 C2_14 1_555 1_555
H1_14 C3_14 1_555 1_555
C4_14 C3_14 1_555 1_555
C5_14 C4_14 1_555 1_555
C6_14 C5_14 1_555 1_555
H2_14 C6_14 1_555 1_555
C7_14 C2_14 1_555 1_555
H3_14 C7_14 1_555 1_555
C8_14 C4_14 1_555 1_555
C9_14 C8_14 1_555 1_555
C10_14 C5_14 1_555 1_555
C11_14 C8_14 1_555 1_555
H4_14 C11_14 1_555 1_555
H5_14 C11_14 1_555 1_555
C12_14 C11_14 1_555 1_555
H6_14 C12_14 1_555 1_555
H7_14 C12_14 1_555 1_555
H8_14 C12_14 1_555 1_555
C13_14 C8_14 1_555 1_555
H9_14 C13_14 1_555 1_555
H10_14 C13_14 1_555 1_555
C14_14 C13_14 1_555 1_555
H11_14 C14_14 1_555 1_555
H12_14 C14_14 1_555 1_555
H13_14 C14_14 1_555 1_555
O5_24 Cd9_2 1_555 1_555
Cd10_2 O3_13 1_555 1_555
Cd16_6 O4_24 1_555 1_555
Cd15_2 O4_24 1_555 1_555
Cd11_6 O19_13 1_555 1_555
Cd12_6 O34_13 1_555 1_555
O19_13 C24_14 1_555 1_555
O8_5 C25_14 1_555 1_555
O34_13 Cd11_6 1_555 1_555
C24_14 O34_13 1_555 1_555
C25_14 O27_5 1_555 1_555
C35_14 C24_14 1_555 1_555
C36_14 C25_14 1_555 1_555
C46_14 C35_14 1_555 1_555
C47_14 C36_14 1_555 1_555
H23_14 C46_14 1_555 1_555
H24_14 C47_14 1_555 1_555
C57_14 C46_14 1_555 1_555
C58_14 C47_14 1_555 1_555
C68_14 C57_14 1_555 1_555
C69_14 C58_14 1_555 1_555
C79_14 C68_14 1_555 1_555
C80_14 C69_14 1_555 1_555
H34_14 C79_14 1_555 1_555
H35_14 C80_14 1_555 1_555
C90_14 C35_14 1_555 1_555
C91_14 C36_14 1_555 1_555
H45_14 C90_14 1_555 1_555
H46_14 C91_14 1_555 1_555
C101_14 C58_14 1_555 1_555
C102_14 C57_14 1_555 1_555
C103_14 C10_14 1_555 1_555
C113_14 C102_14 1_555 1_555
C114_14 C9_14 1_555 1_555
C124_14 C69_14 1_555 1_555
C134_14 C101_14 1_555 1_555
C135_14 C102_14 1_555 1_555
H56_14 C134_14 1_555 1_555
H57_14 C135_14 1_555 1_555
H67_14 C134_14 1_555 1_555
H68_14 C135_14 1_555 1_555
C145_14 C134_14 1_555 1_555
C146_14 C135_14 1_555 1_555
H78_14 C145_14 1_555 1_555
H79_14 C146_14 1_555 1_555
H89_14 C145_14 1_555 1_555
H90_14 C146_14 1_555 1_555
H100_14 C145_14 1_555 1_555
H101_14 C146_14 1_555 1_555
C156_14 C101_14 1_555 1_555
C157_14 C102_14 1_555 1_555
H111_14 C156_14 1_555 1_555
H112_14 C157_14 1_555 1_555
H122_14 C156_14 1_555 1_555
H123_14 C157_14 1_555 1_555
C167_14 C156_14 1_555 1_555
C168_14 C157_14 1_555 1_555
H133_14 C167_14 1_555 1_555
H134_14 C168_14 1_555 1_555
H144_14 C167_14 1_555 1_555
H145_14 C168_14 1_555 1_555
H155_14 C167_14 1_555 1_555
H156_14 C168_14 1_555 1_555
O36_24 Cd15_2 1_555 1_555
O37_24 Cd16_6 1_555 1_555
O38_24 Cd10_2 1_555 1_555
O4_24 Cd10_2 1_555 1_555
C6_14 C7_14 1_555 1_555
C9_14 C10_14 1_555 1_555
C68_14 C114_14 1_555 1_555
C79_14 C90_14 1_555 1_555
C80_14 C91_14 1_555 1_555
C101_14 C103_14 1_555 1_555
C103_14 C124_14 1_555 1_555
C113_14 C114_14 1_555 1_555
C113_14 C124_14 1_555 1_555
Cd8_6 O2_14 1_555 1_555
O2_14 C1_15 1_555 1_555
O3_14 Cd8_6 1_555 1_555
O4_25 Cd8_6 1_555 1_555
C1_15 O3_14 1_555 1_555
C2_15 C1_15 1_555 1_555
C3_15 C2_15 1_555 1_555
H1_15 C3_15 1_555 1_555
C4_15 C3_15 1_555 1_555
C5_15 C4_15 1_555 1_555
C6_15 C5_15 1_555 1_555
H2_15 C6_15 1_555 1_555
C7_15 C2_15 1_555 1_555
H3_15 C7_15 1_555 1_555
C8_15 C4_15 1_555 1_555
C9_15 C8_15 1_555 1_555
C10_15 C5_15 1_555 1_555
C11_15 C8_15 1_555 1_555
H4_15 C11_15 1_555 1_555
H5_15 C11_15 1_555 1_555
C12_15 C11_15 1_555 1_555
H6_15 C12_15 1_555 1_555
H7_15 C12_15 1_555 1_555
H8_15 C12_15 1_555 1_555
C13_15 C8_15 1_555 1_555
H9_15 C13_15 1_555 1_555
H10_15 C13_15 1_555 1_555
C14_15 C13_15 1_555 1_555
H11_15 C14_15 1_555 1_555
H12_15 C14_15 1_555 1_555
H13_15 C14_15 1_555 1_555
O5_25 Cd8_6 1_555 1_555
Cd5_4 O3_14 1_555 1_555
Cd16_3 O4_25 1_555 1_555
Cd6_4 O4_25 1_555 1_555
Cd9_4 O19_14 1_555 1_555
Cd10_4 O34_14 1_555 1_555
O19_14 C24_15 1_555 1_555
O8_6 C25_15 1_555 1_555
O34_14 Cd9_4 1_555 1_555
C24_15 O34_14 1_555 1_555
C25_15 O27_6 1_555 1_555
C35_15 C24_15 1_555 1_555
C36_15 C25_15 1_555 1_555
C46_15 C35_15 1_555 1_555
C47_15 C36_15 1_555 1_555
H23_15 C46_15 1_555 1_555
H24_15 C47_15 1_555 1_555
C57_15 C46_15 1_555 1_555
C58_15 C47_15 1_555 1_555
C68_15 C57_15 1_555 1_555
C69_15 C58_15 1_555 1_555
C79_15 C68_15 1_555 1_555
C80_15 C69_15 1_555 1_555
H34_15 C79_15 1_555 1_555
H35_15 C80_15 1_555 1_555
C90_15 C35_15 1_555 1_555
C91_15 C36_15 1_555 1_555
H45_15 C90_15 1_555 1_555
H46_15 C91_15 1_555 1_555
C101_15 C58_15 1_555 1_555
C102_15 C57_15 1_555 1_555
C103_15 C10_15 1_555 1_555
C113_15 C102_15 1_555 1_555
C114_15 C9_15 1_555 1_555
C124_15 C69_15 1_555 1_555
C134_15 C101_15 1_555 1_555
C135_15 C102_15 1_555 1_555
H56_15 C134_15 1_555 1_555
H57_15 C135_15 1_555 1_555
H67_15 C134_15 1_555 1_555
H68_15 C135_15 1_555 1_555
C145_15 C134_15 1_555 1_555
C146_15 C135_15 1_555 1_555
H78_15 C145_15 1_555 1_555
H79_15 C146_15 1_555 1_555
H89_15 C145_15 1_555 1_555
H90_15 C146_15 1_555 1_555
H100_15 C145_15 1_555 1_555
H101_15 C146_15 1_555 1_555
C156_15 C101_15 1_555 1_555
C157_15 C102_15 1_555 1_555
H111_15 C156_15 1_555 1_555
H112_15 C157_15 1_555 1_555
H122_15 C156_15 1_555 1_555
H123_15 C157_15 1_555 1_555
C167_15 C156_15 1_555 1_555
C168_15 C157_15 1_555 1_555
H133_15 C167_15 1_555 1_555
H134_15 C168_15 1_555 1_555
H144_15 C167_15 1_555 1_555
H145_15 C168_15 1_555 1_555
H155_15 C167_15 1_555 1_555
H156_15 C168_15 1_555 1_555
O36_25 Cd6_4 1_555 1_555
O37_25 Cd16_3 1_555 1_555
O38_25 Cd5_4 1_555 1_555
O4_25 Cd5_4 1_555 1_555
C6_15 C7_15 1_555 1_555
C9_15 C10_15 1_555 1_555
C68_15 C114_15 1_555 1_555
C79_15 C90_15 1_555 1_555
C80_15 C91_15 1_555 1_555
C101_15 C103_15 1_555 1_555
C103_15 C124_15 1_555 1_555
C113_15 C114_15 1_555 1_555
C113_15 C124_15 1_555 1_555
O4_26 Cd8_7 1_555 1_555
O5_26 Cd8_7 1_555 1_555
Cd16_4 O4_26 1_555 1_555
Cd6_5 O4_26 1_555 1_555
O12_12 Cd5_5 1_555 1_555
O26_12 Cd5_5 1_555 1_555
O36_26 Cd6_5 1_555 1_555
O37_26 Cd16_4 1_555 1_555
O38_26 Cd5_5 1_555 1_555
O4_26 Cd5_5 1_555 1_555
Cd6_5 O26_12 1_555 1_555
O9_3 C1_16 1_555 1_555
C1_16 O21_3 1_555 1_555
C2_16 C1_16 1_555 1_555
C3_16 C2_16 1_555 1_555
H1_16 C3_16 1_555 1_555
C4_16 C3_16 1_555 1_555
C5_16 C4_16 1_555 1_555
C6_16 C5_16 1_555 1_555
H2_16 C6_16 1_555 1_555
C7_16 C2_16 1_555 1_555
H3_16 C7_16 1_555 1_555
C8_16 C4_16 1_555 1_555
C9_16 C8_16 1_555 1_555
C10_16 C5_16 1_555 1_555
C11_16 C8_16 1_555 1_555
H4_16 C11_16 1_555 1_555
H5_16 C11_16 1_555 1_555
C12_16 C11_16 1_555 1_555
H6_16 C12_16 1_555 1_555
H7_16 C12_16 1_555 1_555
H8_16 C12_16 1_555 1_555
C13_16 C8_16 1_555 1_555
H9_16 C13_16 1_555 1_555
H10_16 C13_16 1_555 1_555
C14_16 C13_16 1_555 1_555
H11_16 C14_16 1_555 1_555
H12_16 C14_16 1_555 1_555
H13_16 C14_16 1_555 1_555
O9 C24_16 1_555 1_555
O9_2 C25_16 1_555 1_555
C24_16 O21 1_555 1_555
C25_16 O21_2 1_555 1_555
C35_16 C24_16 1_555 1_555
C36_16 C25_16 1_555 1_555
C46_16 C35_16 1_555 1_555
C47_16 C36_16 1_555 1_555
H23_16 C46_16 1_555 1_555
H24_16 C47_16 1_555 1_555
C57_16 C46_16 1_555 1_555
C58_16 C47_16 1_555 1_555
C68_16 C57_16 1_555 1_555
C69_16 C58_16 1_555 1_555
C79_16 C68_16 1_555 1_555
C80_16 C69_16 1_555 1_555
H34_16 C79_16 1_555 1_555
H35_16 C80_16 1_555 1_555
C90_16 C35_16 1_555 1_555
C91_16 C36_16 1_555 1_555
H45_16 C90_16 1_555 1_555
H46_16 C91_16 1_555 1_555
C101_16 C58_16 1_555 1_555
C102_16 C57_16 1_555 1_555
C103_16 C10_16 1_555 1_555
C113_16 C102_16 1_555 1_555
C114_16 C9_16 1_555 1_555
C124_16 C69_16 1_555 1_555
C134_16 C101_16 1_555 1_555
C135_16 C102_16 1_555 1_555
H56_16 C134_16 1_555 1_555
H57_16 C135_16 1_555 1_555
H67_16 C134_16 1_555 1_555
H68_16 C135_16 1_555 1_555
C145_16 C134_16 1_555 1_555
C146_16 C135_16 1_555 1_555
H78_16 C145_16 1_555 1_555
H79_16 C146_16 1_555 1_555
H89_16 C145_16 1_555 1_555
H90_16 C146_16 1_555 1_555
H100_16 C145_16 1_555 1_555
H101_16 C146_16 1_555 1_555
C156_16 C101_16 1_555 1_555
C157_16 C102_16 1_555 1_555
H111_16 C156_16 1_555 1_555
H112_16 C157_16 1_555 1_555
H122_16 C156_16 1_555 1_555
H123_16 C157_16 1_555 1_555
C167_16 C156_16 1_555 1_555
C168_16 C157_16 1_555 1_555
H133_16 C167_16 1_555 1_555
H134_16 C168_16 1_555 1_555
H144_16 C167_16 1_555 1_555
H145_16 C168_16 1_555 1_555
H155_16 C167_16 1_555 1_555
H156_16 C168_16 1_555 1_555
C6_16 C7_16 1_555 1_555
C9_16 C10_16 1_555 1_555
C68_16 C114_16 1_555 1_555
C79_16 C90_16 1_555 1_555
C80_16 C91_16 1_555 1_555
C101_16 C103_16 1_555 1_555
C103_16 C124_16 1_555 1_555
C113_16 C114_16 1_555 1_555
C113_16 C124_16 1_555 1_555
O6 C22_18 1_555 1_555
O12_11 C23_18 1_555 1_555
C21_18 O12_9 1_555 1_555
C22_18 O22 1_555 1_555
C23_18 O26_11 1_555 1_555
C32_18 C21_18 1_555 1_555
C33_18 C22_18 1_555 1_555
C34_18 C23_18 1_555 1_555
C43_18 C32_18 1_555 1_555
C44_18 C33_18 1_555 1_555
C45_18 C34_18 1_555 1_555
H20_18 C43_18 1_555 1_555
H21_18 C44_18 1_555 1_555
H22_18 C45_18 1_555 1_555
C54_18 C43_18 1_555 1_555
C55_18 C44_18 1_555 1_555
C56_18 C45_18 1_555 1_555
C65_18 C54_18 1_555 1_555
C66_18 C56_18 1_555 1_555
C67_18 C55_18 1_555 1_555
C76_18 C65_18 1_555 1_555
C77_18 C66_18 1_555 1_555
C78_18 C67_18 1_555 1_555
H31_18 C76_18 1_555 1_555
H32_18 C77_18 1_555 1_555
H33_18 C78_18 1_555 1_555
C87_18 C32_18 1_555 1_555
C88_18 C34_18 1_555 1_555
C89_18 C33_18 1_555 1_555
H42_18 C87_18 1_555 1_555
H43_18 C88_18 1_555 1_555
H44_18 C89_18 1_555 1_555
C98_18 C54_18 1_555 1_555
C99_18 C55_18 1_555 1_555
C100_18 C56_18 1_555 1_555
C110_18 C98_18 1_555 1_555
C111_18 C99_18 1_555 1_555
C112_18 C100_18 1_555 1_555
C121_18 C65_18 1_555 1_555
C122_18 C66_18 1_555 1_555
C123_18 C67_18 1_555 1_555
C131_18 C98_18 1_555 1_555
C132_18 C99_18 1_555 1_555
C133_18 C100_18 1_555 1_555
H53_18 C131_18 1_555 1_555
H54_18 C132_18 1_555 1_555
H55_18 C133_18 1_555 1_555
H64_18 C131_18 1_555 1_555
H65_18 C132_18 1_555 1_555
H66_18 C133_18 1_555 1_555
C142_18 C131_18 1_555 1_555
C143_18 C132_18 1_555 1_555
C144_18 C133_18 1_555 1_555
H75_18 C142_18 1_555 1_555
H76_18 C143_18 1_555 1_555
H77_18 C144_18 1_555 1_555
H86_18 C142_18 1_555 1_555
H87_18 C143_18 1_555 1_555
H88_18 C144_18 1_555 1_555
H97_18 C142_18 1_555 1_555
H98_18 C143_18 1_555 1_555
H99_18 C144_18 1_555 1_555
C153_18 C98_18 1_555 1_555
C154_18 C99_18 1_555 1_555
C155_18 C100_18 1_555 1_555
H108_18 C153_18 1_555 1_555
H109_18 C154_18 1_555 1_555
H110_18 C155_18 1_555 1_555
H119_18 C153_18 1_555 1_555
H120_18 C154_18 1_555 1_555
H121_18 C155_18 1_555 1_555
C164_18 C153_18 1_555 1_555
C165_18 C154_18 1_555 1_555
C166_18 C155_18 1_555 1_555
H130_18 C164_18 1_555 1_555
H131_18 C165_18 1_555 1_555
H132_18 C166_18 1_555 1_555
H141_18 C164_18 1_555 1_555
H142_18 C165_18 1_555 1_555
H143_18 C166_18 1_555 1_555
H152_18 C164_18 1_555 1_555
H153_18 C165_18 1_555 1_555
H154_18 C166_18 1_555 1_555
O26_9 C21_18 1_555 1_555
C76_18 C87_18 1_555 1_555
C77_18 C88_18 1_555 1_555
C78_18 C89_18 1_555 1_555
C110_18 C121_18 1_555 1_555
C110_18 C122_18 1_555 1_555
C111_18 C121_18 1_555 1_555
C111_18 C123_18 1_555 1_555
C112_18 C122_18 1_555 1_555
C112_18 C123_18 1_555 1_555
O4_27 Cd7 1_555 1_555
O5_27 Cd7 1_555 1_555
Cd6_3 O4_27 1_555 1_555
Cd5_3 O4_27 1_555 1_555
Cd12_3 O15_12 1_555 1_555
Cd7_2 O16_10 1_555 1_555
Cd9_3 O31_10 1_555 1_555
O10_10 Cd6_3 1_555 1_555
O15_12 C19_12 1_555 1_555
O16_10 C20_12 1_555 1_555
O23_10 Cd7 1_555 1_555
O30_12 Cd12_3 1_555 1_555
O31_10 Cd7_2 1_555 1_555
C18_12 O10_10 1_555 1_555
C19_12 O30_12 1_555 1_555
C20_12 O31_10 1_555 1_555
C29_12 C18_12 1_555 1_555
C30_12 C19_12 1_555 1_555
C31_12 C20_12 1_555 1_555
C40_12 C29_12 1_555 1_555
C41_12 C30_12 1_555 1_555
C42_12 C31_12 1_555 1_555
H17_12 C40_12 1_555 1_555
H18_12 C41_12 1_555 1_555
H19_12 C42_12 1_555 1_555
C51_12 C40_12 1_555 1_555
C52_12 C41_12 1_555 1_555
C53_12 C42_12 1_555 1_555
C62_12 C51_12 1_555 1_555
C63_12 C53_12 1_555 1_555
C64_12 C52_12 1_555 1_555
C73_12 C62_12 1_555 1_555
C74_12 C63_12 1_555 1_555
C75_12 C64_12 1_555 1_555
H28_12 C73_12 1_555 1_555
H29_12 C74_12 1_555 1_555
H30_12 C75_12 1_555 1_555
C84_12 C29_12 1_555 1_555
C85_12 C31_12 1_555 1_555
C86_12 C30_12 1_555 1_555
H39_12 C84_12 1_555 1_555
H40_12 C85_12 1_555 1_555
H41_12 C86_12 1_555 1_555
C95_12 C51_12 1_555 1_555
C96_12 C52_12 1_555 1_555
C97_12 C53_12 1_555 1_555
C107_12 C95_12 1_555 1_555
C108_12 C96_12 1_555 1_555
C109_12 C97_12 1_555 1_555
C118_12 C62_12 1_555 1_555
C119_12 C63_12 1_555 1_555
C120_12 C64_12 1_555 1_555
C128_12 C95_12 1_555 1_555
C129_12 C96_12 1_555 1_555
C130_12 C97_12 1_555 1_555
H50_12 C128_12 1_555 1_555
H51_12 C129_12 1_555 1_555
H52_12 C130_12 1_555 1_555
H61_12 C128_12 1_555 1_555
H62_12 C129_12 1_555 1_555
H63_12 C130_12 1_555 1_555
C139_12 C128_12 1_555 1_555
C140_12 C129_12 1_555 1_555
C141_12 C130_12 1_555 1_555
H72_12 C139_12 1_555 1_555
H73_12 C140_12 1_555 1_555
H74_12 C141_12 1_555 1_555
H83_12 C139_12 1_555 1_555
H84_12 C140_12 1_555 1_555
H85_12 C141_12 1_555 1_555
H94_12 C139_12 1_555 1_555
H95_12 C140_12 1_555 1_555
H96_12 C141_12 1_555 1_555
C150_12 C95_12 1_555 1_555
C151_12 C96_12 1_555 1_555
C152_12 C97_12 1_555 1_555
H105_12 C150_12 1_555 1_555
H106_12 C151_12 1_555 1_555
H107_12 C152_12 1_555 1_555
H116_12 C150_12 1_555 1_555
H117_12 C151_12 1_555 1_555
H118_12 C152_12 1_555 1_555
C161_12 C150_12 1_555 1_555
C162_12 C151_12 1_555 1_555
C163_12 C152_12 1_555 1_555
H127_12 C161_12 1_555 1_555
H128_12 C162_12 1_555 1_555
H129_12 C163_12 1_555 1_555
H138_12 C161_12 1_555 1_555
H139_12 C162_12 1_555 1_555
H140_12 C163_12 1_555 1_555
H149_12 C161_12 1_555 1_555
H150_12 C162_12 1_555 1_555
H151_12 C163_12 1_555 1_555
O36_27 Cd5_3 1_555 1_555
O37_27 Cd6_3 1_555 1_555
O38_27 Cd8 1_555 1_555
O4_27 Cd8 1_555 1_555
Cd6_3 O23_10 1_555 1_555
Cd6_6 O30_12 1_555 1_555
O23_10 C18_12 1_555 1_555
C73_12 C84_12 1_555 1_555
C74_12 C85_12 1_555 1_555
C75_12 C86_12 1_555 1_555
C107_12 C118_12 1_555 1_555
C107_12 C119_12 1_555 1_555
C108_12 C118_12 1_555 1_555
C108_12 C120_12 1_555 1_555
C109_12 C119_12 1_555 1_555
C109_12 C120_12 1_555 1_555
O12_4 C19_13 1_555 1_555
O12_12 C20_13 1_555 1_555
C18_13 O6_11 1_555 1_555
C19_13 O26_4 1_555 1_555
C20_13 O26_12 1_555 1_555
C29_13 C18_13 1_555 1_555
C30_13 C19_13 1_555 1_555
C31_13 C20_13 1_555 1_555
C40_13 C29_13 1_555 1_555
C41_13 C30_13 1_555 1_555
C42_13 C31_13 1_555 1_555
H17_13 C40_13 1_555 1_555
H18_13 C41_13 1_555 1_555
H19_13 C42_13 1_555 1_555
C51_13 C40_13 1_555 1_555
C52_13 C41_13 1_555 1_555
C53_13 C42_13 1_555 1_555
C62_13 C51_13 1_555 1_555
C63_13 C53_13 1_555 1_555
C64_13 C52_13 1_555 1_555
C73_13 C62_13 1_555 1_555
C74_13 C63_13 1_555 1_555
C75_13 C64_13 1_555 1_555
H28_13 C73_13 1_555 1_555
H29_13 C74_13 1_555 1_555
H30_13 C75_13 1_555 1_555
C84_13 C29_13 1_555 1_555
C85_13 C31_13 1_555 1_555
C86_13 C30_13 1_555 1_555
H39_13 C84_13 1_555 1_555
H40_13 C85_13 1_555 1_555
H41_13 C86_13 1_555 1_555
C95_13 C51_13 1_555 1_555
C96_13 C52_13 1_555 1_555
C97_13 C53_13 1_555 1_555
C107_13 C95_13 1_555 1_555
C108_13 C96_13 1_555 1_555
C109_13 C97_13 1_555 1_555
C118_13 C62_13 1_555 1_555
C119_13 C63_13 1_555 1_555
C120_13 C64_13 1_555 1_555
C128_13 C95_13 1_555 1_555
C129_13 C96_13 1_555 1_555
C130_13 C97_13 1_555 1_555
H50_13 C128_13 1_555 1_555
H51_13 C129_13 1_555 1_555
H52_13 C130_13 1_555 1_555
H61_13 C128_13 1_555 1_555
H62_13 C129_13 1_555 1_555
H63_13 C130_13 1_555 1_555
C139_13 C128_13 1_555 1_555
C140_13 C129_13 1_555 1_555
C141_13 C130_13 1_555 1_555
H72_13 C139_13 1_555 1_555
H73_13 C140_13 1_555 1_555
H74_13 C141_13 1_555 1_555
H83_13 C139_13 1_555 1_555
H84_13 C140_13 1_555 1_555
H85_13 C141_13 1_555 1_555
H94_13 C139_13 1_555 1_555
H95_13 C140_13 1_555 1_555
H96_13 C141_13 1_555 1_555
C150_13 C95_13 1_555 1_555
C151_13 C96_13 1_555 1_555
C152_13 C97_13 1_555 1_555
H105_13 C150_13 1_555 1_555
H106_13 C151_13 1_555 1_555
H107_13 C152_13 1_555 1_555
H116_13 C150_13 1_555 1_555
H117_13 C151_13 1_555 1_555
H118_13 C152_13 1_555 1_555
C161_13 C150_13 1_555 1_555
C162_13 C151_13 1_555 1_555
C163_13 C152_13 1_555 1_555
H127_13 C161_13 1_555 1_555
H128_13 C162_13 1_555 1_555
H129_13 C163_13 1_555 1_555
H138_13 C161_13 1_555 1_555
H139_13 C162_13 1_555 1_555
H140_13 C163_13 1_555 1_555
H149_13 C161_13 1_555 1_555
H150_13 C162_13 1_555 1_555
H151_13 C163_13 1_555 1_555
O22_11 C18_13 1_555 1_555
C73_13 C84_13 1_555 1_555
C74_13 C85_13 1_555 1_555
C75_13 C86_13 1_555 1_555
C107_13 C118_13 1_555 1_555
C107_13 C119_13 1_555 1_555
C108_13 C118_13 1_555 1_555
C108_13 C120_13 1_555 1_555
C109_13 C119_13 1_555 1_555
C109_13 C120_13 1_555 1_555
O4_28 Cd9_3 1_555 1_555
O5_28 Cd9_3 1_555 1_555
Cd7_2 O4_28 1_555 1_555
Cd15_3 O4_28 1_555 1_555
O36_28 Cd15_3 1_555 1_555
O37_28 Cd7_2 1_555 1_555
O38_28 Cd10_3 1_555 1_555
O4_28 Cd10_3 1_555 1_555
O4_29 Cd9_4 1_555 1_555
O5_29 Cd9_4 1_555 1_555
Cd7_3 O4_29 1_555 1_555
Cd15_4 O4_29 1_555 1_555
O36_29 Cd15_4 1_555 1_555
O37_29 Cd7_3 1_555 1_555
O38_29 Cd10_4 1_555 1_555
O4_29 Cd10_4 1_555 1_555
O4_30 Cd6_6 1_555 1_555
O5_30 Cd6_6 1_555 1_555
Cd12_3 O4_30 1_555 1_555
Cd11_3 O4_30 1_555 1_555
O36_30 Cd11_3 1_555 1_555
O37_30 Cd12_3 1_555 1_555
O38_30 Cd16_7 1_555 1_555
O4_30 Cd16_7 1_555 1_555
O4_31 Cd6_7 1_555 1_555
O5_31 Cd6_7 1_555 1_555
Cd12_4 O4_31 1_555 1_555
Cd11_4 O4_31 1_555 1_555
O36_31 Cd11_4 1_555 1_555
O37_31 Cd12_4 1_555 1_555
O38_31 Cd16_8 1_555 1_555
O4_31 Cd16_8 1_555 1_555
O4_32 Cd9_5 1_555 1_555
O5_32 Cd9_5 1_555 1_555
Cd16_11 O4_32 1_555 1_555
Cd15_5 O4_32 1_555 1_555
Cd6 O15_13 1_555 1_555
Cd12_5 O16_11 1_555 1_555
Cd13_6 O31_11 1_555 1_555
O10_11 Cd16_11 1_555 1_555
O15_13 C19_14 1_555 1_555
O16_11 C20_14 1_555 1_555
O23_11 Cd9_5 1_555 1_555
O30_13 Cd6 1_555 1_555
O31_11 Cd12_5 1_555 1_555
C18_14 O10_11 1_555 1_555
C19_14 O30_13 1_555 1_555
C20_14 O31_11 1_555 1_555
C29_14 C18_14 1_555 1_555
C30_14 C19_14 1_555 1_555
C31_14 C20_14 1_555 1_555
C40_14 C29_14 1_555 1_555
C41_14 C30_14 1_555 1_555
C42_14 C31_14 1_555 1_555
H17_14 C40_14 1_555 1_555
H18_14 C41_14 1_555 1_555
H19_14 C42_14 1_555 1_555
C51_14 C40_14 1_555 1_555
C52_14 C41_14 1_555 1_555
C53_14 C42_14 1_555 1_555
C62_14 C51_14 1_555 1_555
C63_14 C53_14 1_555 1_555
C64_14 C52_14 1_555 1_555
C73_14 C62_14 1_555 1_555
C74_14 C63_14 1_555 1_555
C75_14 C64_14 1_555 1_555
H28_14 C73_14 1_555 1_555
H29_14 C74_14 1_555 1_555
H30_14 C75_14 1_555 1_555
C84_14 C29_14 1_555 1_555
C85_14 C31_14 1_555 1_555
C86_14 C30_14 1_555 1_555
H39_14 C84_14 1_555 1_555
H40_14 C85_14 1_555 1_555
H41_14 C86_14 1_555 1_555
C95_14 C51_14 1_555 1_555
C96_14 C52_14 1_555 1_555
C97_14 C53_14 1_555 1_555
C107_14 C95_14 1_555 1_555
C108_14 C96_14 1_555 1_555
C109_14 C97_14 1_555 1_555
C118_14 C62_14 1_555 1_555
C119_14 C63_14 1_555 1_555
C120_14 C64_14 1_555 1_555
C128_14 C95_14 1_555 1_555
C129_14 C96_14 1_555 1_555
C130_14 C97_14 1_555 1_555
H50_14 C128_14 1_555 1_555
H51_14 C129_14 1_555 1_555
H52_14 C130_14 1_555 1_555
H61_14 C128_14 1_555 1_555
H62_14 C129_14 1_555 1_555
H63_14 C130_14 1_555 1_555
C139_14 C128_14 1_555 1_555
C140_14 C129_14 1_555 1_555
C141_14 C130_14 1_555 1_555
H72_14 C139_14 1_555 1_555
H73_14 C140_14 1_555 1_555
H74_14 C141_14 1_555 1_555
H83_14 C139_14 1_555 1_555
H84_14 C140_14 1_555 1_555
H85_14 C141_14 1_555 1_555
H94_14 C139_14 1_555 1_555
H95_14 C140_14 1_555 1_555
H96_14 C141_14 1_555 1_555
C150_14 C95_14 1_555 1_555
C151_14 C96_14 1_555 1_555
C152_14 C97_14 1_555 1_555
H105_14 C150_14 1_555 1_555
H106_14 C151_14 1_555 1_555
H107_14 C152_14 1_555 1_555
H116_14 C150_14 1_555 1_555
H117_14 C151_14 1_555 1_555
H118_14 C152_14 1_555 1_555
C161_14 C150_14 1_555 1_555
C162_14 C151_14 1_555 1_555
C163_14 C152_14 1_555 1_555
H127_14 C161_14 1_555 1_555
H128_14 C162_14 1_555 1_555
H129_14 C163_14 1_555 1_555
H138_14 C161_14 1_555 1_555
H139_14 C162_14 1_555 1_555
H140_14 C163_14 1_555 1_555
H149_14 C161_14 1_555 1_555
H150_14 C162_14 1_555 1_555
H151_14 C163_14 1_555 1_555
O36_32 Cd15_5 1_555 1_555
O37_32 Cd16_11 1_555 1_555
O38_32 Cd10_5 1_555 1_555
O4_32 Cd10_5 1_555 1_555
Cd16_11 O23_11 1_555 1_555
Cd16 O30_13 1_555 1_555
O23_11 C18_14 1_555 1_555
C73_14 C84_14 1_555 1_555
C74_14 C85_14 1_555 1_555
C75_14 C86_14 1_555 1_555
C107_14 C118_14 1_555 1_555
C107_14 C119_14 1_555 1_555
C108_14 C118_14 1_555 1_555
C108_14 C120_14 1_555 1_555
C109_14 C119_14 1_555 1_555
C109_14 C120_14 1_555 1_555
O4_33 Cd9_6 1_555 1_555
O5_33 Cd9_6 1_555 1_555
Cd16_12 O4_33 1_555 1_555
Cd15_6 O4_33 1_555 1_555
O36_33 Cd15_6 1_555 1_555
O37_33 Cd16_12 1_555 1_555
O38_33 Cd10_6 1_555 1_555
O4_33 Cd10_6 1_555 1_555
O4_34 Cd13_6 1_555 1_555
O5_34 Cd13_6 1_555 1_555
Cd12_5 O4_34 1_555 1_555
Cd11_5 O4_34 1_555 1_555
O36_34 Cd11_5 1_555 1_555
O37_34 Cd12_5 1_555 1_555
O38_34 Cd7_4 1_555 1_555
O4_34 Cd7_4 1_555 1_555
O4_35 Cd13_7 1_555 1_555
O5_35 Cd13_7 1_555 1_555
Cd12_6 O4_35 1_555 1_555
Cd11_6 O4_35 1_555 1_555
O36_35 Cd11_6 1_555 1_555
O37_35 Cd12_6 1_555 1_555
O38_35 Cd7_5 1_555 1_555
O4_35 Cd7_5 1_555 1_555
O4_36 Cd16 1_555 1_555
O5_36 Cd16 1_555 1_555
Cd6 O4_36 1_555 1_555
Cd5 O4_36 1_555 1_555
O36_36 Cd5 1_555 1_555
O37_36 Cd6 1_555 1_555
O38_36 Cd8_2 1_555 1_555
O4_36 Cd8_2 1_555 1_555

#END
