
###############################################################################
#
# This file contains modified crystal structure data generated from the
# MOF subset of the Cambridge Structural Database (CSD) v543 
# hosted by the Cambridge Crystallographic Data Centre (CCDC).
#
# This work is licensed under the Creative Commons
# Attribution-NonCommercial-ShareAlike 4.0 International License.
# To view a copy of this license, visit
# http://creativecommons.org/licenses/by-nc-sa/4.0/
# or send a letter to
# Creative Commons, PO Box 1866, Mountain View, CA 94042, USA.
#
# CIF created using the CSD Python API on 29 September 2022
# The structure has been converted into the P1 space group
# The structure has a 3D framework
# The original CSD entry BUFPAU01 is in the cubic crystal system
# The framework has been calculated to contain at least 10.0% void space
# The void calculation uses a probe of radius 1.32A, grid spacing 0.4
# The framework is charged, counterions have been retained in the structure
# H atom positions have been added when not included in the experimental data
# Generated hydrogen atom positions removed from atoms on special positions
#
###############################################################################

data_BUFPAU01
_chemical_formula_moiety         '(C2688 H3936 O708 Pb144 66+)n'
_symmetry_cell_setting           triclinic
_symmetry_space_group_name_H-M   'P 1'
_symmetry_Int_Tables_number      1
_space_group_name_Hall           'P 1'
loop_
_symmetry_equiv_pos_site_id
_symmetry_equiv_pos_as_xyz
1 x,y,z
_cell_length_a                   48.829(6)
_cell_length_b                   48.829(6)
_cell_length_c                   48.829(6)
_cell_angle_alpha                90
_cell_angle_beta                 90
_cell_angle_gamma                90
_cell_volume                     116422
loop_
_atom_site_label
_atom_site_type_symbol
_atom_site_fract_x
_atom_site_fract_y
_atom_site_fract_z
Pb1 Pb 0.22135(3) 0.0000 0.19522(3)
O3 O 0.2500 0.0000 0.2500
O4 O 0.1828(5) 0.0000 0.1661(5)
Pb2 Pb 0.30478(3) 0.0000 0.22135(3)
Pb3 Pb 0.19522(3) -0.0000 0.27865(3)
Pb4 Pb 0.27865(3) -0.0000 0.30478(3)
Pb9 Pb 0.5000 0.27865(3) 0.30478(3)
Pb10 Pb 0.5000 0.19522(3) 0.27865(3)
Pb11 Pb 0.22135(3) 0.19522(3) 0.5000
Pb12 Pb 0.30478(3) 0.22135(3) 0.5000
Pb13 Pb 0.19522(3) 0.27865(3) 0.5000
Pb14 Pb -0.0000 0.19522(3) 0.22135(3)
Pb15 Pb 0.0000 0.22135(3) 0.30478(3)
O5 O 0.23892(12) 0.03353(11) 0.16158(14)
O7 O 0.33842(14) 0.03353(11) 0.23892(12)
O9 O 0.16158(14) 0.03353(11) 0.26108(12)
O10 O 0.26108(12) 0.03353(11) 0.33842(14)
O14 O 0.46647(11) 0.26108(12) 0.33842(14)
O15 O 0.23892(12) 0.16158(14) 0.46647(11)
O16 O 0.16158(14) 0.26108(12) 0.46647(11)
O17 O 0.03353(11) 0.16158(14) 0.23892(12)
O21 O 0.26151(13) 0.03144(12) 0.19868(18)
O22 O 0.19868(18) 0.03144(12) 0.23849(13)
O24 O 0.30132(18) 0.03144(12) 0.26151(13)
O25 O 0.23849(13) 0.03144(12) 0.30132(18)
O29 O 0.46856(12) 0.23849(13) 0.30132(18)
O30 O 0.26151(13) 0.19868(18) 0.46856(12)
O31 O 0.19868(18) 0.23849(13) 0.46856(12)
O32 O 0.03144(12) 0.19868(18) 0.26151(13)
C15 C 0.32411(19) 0.04177(13) 0.25800(16)
C16 C 0.24200(16) 0.04177(13) 0.32411(19)
C20 C 0.45823(13) 0.24200(16) 0.32411(19)
C21 C 0.25800(16) 0.17589(19) 0.45823(13)
C22 C 0.17589(19) 0.24200(16) 0.45823(13)
C23 C 0.04177(13) 0.17589(19) 0.25800(16)
C26 C 0.33373(18) 0.06464(13) 0.27562(12)
C27 C 0.22438(12) 0.06464(13) 0.33373(18)
C31 C 0.43536(13) 0.22438(12) 0.33373(18)
C32 C 0.27562(12) 0.16627(18) 0.43536(13)
C33 C 0.16627(18) 0.22438(12) 0.43536(13)
C34 C 0.06464(13) 0.16627(18) 0.27562(12)
C37 C 0.31728(18) 0.07296(14) 0.29777(15)
C38 C 0.20223(15) 0.07296(14) 0.31728(18)
C42 C 0.42704(14) 0.20223(15) 0.31728(18)
C43 C 0.29777(15) 0.18272(18) 0.42704(14)
C44 C 0.18272(18) 0.20223(15) 0.42704(14)
C45 C 0.07296(14) 0.18272(18) 0.29777(15)
H14 H 0.3006 0.0638 0.3017
H15 H 0.1983 0.0638 0.3006
H19 H 0.4362 0.1983 0.3006
H20 H 0.3017 0.1994 0.4362
H21 H 0.1994 0.1983 0.4362
H22 H 0.0638 0.1994 0.3017
C50 C 0.32593(15) 0.09491(13) 0.31386(13)
C51 C 0.18614(13) 0.09491(13) 0.32593(15)
C53 C 0.40509(13) 0.18614(13) 0.32593(15)
C54 C 0.31386(13) 0.17407(15) 0.40509(13)
C55 C 0.17407(15) 0.18614(13) 0.40509(13)
C56 C 0.09491(13) 0.17407(15) 0.31386(13)
C61 C 0.34977(15) 0.10873(13) 0.30814(12)
C62 C 0.19186(12) 0.10873(13) 0.34977(15)
C64 C 0.30814(12) 0.15023(15) 0.39127(13)
C65 C 0.10873(13) 0.15023(15) 0.30814(12)
C67 C 0.39127(13) 0.19186(12) 0.34977(15)
C68 C 0.15023(15) 0.19186(12) 0.39127(13)
C72 C 0.36529(16) 0.10066(14) 0.28552(14)
C73 C 0.21448(14) 0.10066(14) 0.36529(16)
C75 C 0.28552(14) 0.13471(16) 0.39934(14)
C76 C 0.10066(14) 0.13471(16) 0.28552(14)
C78 C 0.39934(14) 0.21448(14) 0.36529(16)
C79 C 0.13471(16) 0.21448(14) 0.39934(14)
H27 H 0.3814 0.1105 0.2807
H28 H 0.2193 0.1105 0.3814
H30 H 0.2807 0.1186 0.3895
H31 H 0.1105 0.1186 0.2807
H33 H 0.3895 0.2193 0.3814
H34 H 0.1186 0.2193 0.3895
C81 C 0.35728(17) 0.07868(14) 0.27047(14)
C82 C 0.22953(14) 0.07868(14) 0.35728(17)
C86 C 0.27047(14) 0.14272(17) 0.42132(14)
C87 C 0.07868(14) 0.14272(17) 0.27047(14)
C89 C 0.42132(14) 0.22953(14) 0.35728(17)
C90 C 0.14272(17) 0.22953(14) 0.42132(14)
H36 H 0.3686 0.0729 0.2557
H37 H 0.2443 0.0729 0.3686
H41 H 0.2557 0.1314 0.4271
H42 H 0.0729 0.1314 0.2557
H44 H 0.4271 0.2443 0.3686
H45 H 0.1314 0.2443 0.4271
C94 C 0.31204(18) 0.10536(16) 0.33921(16)
C95 C 0.16079(16) 0.10536(16) 0.31204(18)
C97 C 0.39464(16) 0.16079(16) 0.31204(18)
C98 C 0.18796(18) 0.16079(16) 0.39464(16)
C100 C 0.33921(16) 0.18796(18) 0.39464(16)
C101 C 0.10536(16) 0.18796(18) 0.33921(16)
C105 C 0.33088(14) 0.12892(13) 0.34688(13)
C106 C 0.15312(13) 0.12892(13) 0.33088(14)
C108 C 0.37108(13) 0.15312(13) 0.33088(14)
C109 C 0.16912(14) 0.15312(13) 0.37108(13)
C111 C 0.34688(13) 0.16912(14) 0.37108(13)
C112 C 0.12892(13) 0.16912(14) 0.34688(13)
C116 C 0.35222(13) 0.13148(13) 0.32844(13)
C117 C 0.17156(13) 0.13148(13) 0.35222(13)
C119 C 0.32844(13) 0.14778(13) 0.36852(13)
C120 C 0.13148(13) 0.14778(13) 0.32844(13)
C122 C 0.36852(13) 0.17156(13) 0.35222(13)
C123 C 0.14778(13) 0.17156(13) 0.36852(13)
C127 C 0.3131(2) 0.0810(2) 0.3618(2)
C128 C 0.1382(2) 0.0810(2) 0.3131(2)
C130 C 0.4190(2) 0.1382(2) 0.3131(2)
C131 C 0.1869(2) 0.1382(2) 0.4190(2)
C133 C 0.3618(2) 0.1869(2) 0.4190(2)
C134 C 0.0810(2) 0.1869(2) 0.3618(2)
H49 H 0.3028 0.0651 0.3547
H50 H 0.1453 0.0651 0.3028
H52 H 0.4349 0.1453 0.3028
H53 H 0.1972 0.1453 0.4349
H55 H 0.3547 0.1972 0.4349
H56 H 0.0651 0.1972 0.3547
H60 H 0.3038 0.0874 0.3786
H61 H 0.1214 0.0874 0.3038
H63 H 0.4126 0.1214 0.3038
H64 H 0.1962 0.1214 0.4126
H66 H 0.3786 0.1962 0.4126
H67 H 0.0874 0.1962 0.3786
C138 C 0.3428(3) 0.0714(3) 0.3696(3)
C139 C 0.1304(3) 0.0714(3) 0.3428(3)
C141 C 0.4286(3) 0.1304(3) 0.3428(3)
C142 C 0.1572(3) 0.1304(3) 0.4286(3)
C144 C 0.3696(3) 0.1572(3) 0.4286(3)
C145 C 0.0714(3) 0.1572(3) 0.3696(3)
H71 H 0.3530 0.0869 0.3773
H72 H 0.1227 0.0869 0.3530
H74 H 0.4131 0.1227 0.3530
H75 H 0.1470 0.1227 0.4131
H77 H 0.3773 0.1470 0.4131
H78 H 0.0869 0.1470 0.3773
H82 H 0.3417 0.0567 0.3831
H83 H 0.1169 0.0567 0.3417
H85 H 0.4433 0.1169 0.3417
H86 H 0.1583 0.1169 0.4433
H88 H 0.3831 0.1583 0.4433
H89 H 0.0567 0.1583 0.3831
H93 H 0.3521 0.0647 0.3531
H94 H 0.1469 0.0647 0.3521
H96 H 0.4353 0.1469 0.3521
H97 H 0.1479 0.1469 0.4353
H99 H 0.3531 0.1479 0.4353
H100 H 0.0647 0.1479 0.3531
C149 C 0.28255(18) 0.1160(3) 0.3305(2)
C150 C 0.1695(2) 0.1160(3) 0.28255(18)
C152 C 0.3840(3) 0.1695(2) 0.28255(18)
C153 C 0.21745(18) 0.1695(2) 0.3840(3)
C155 C 0.3305(2) 0.21745(18) 0.3840(3)
C156 C 0.1160(3) 0.21745(18) 0.3305(2)
H104 H 0.2730 0.1230 0.3469
H105 H 0.1531 0.1230 0.2730
H107 H 0.3770 0.1531 0.2730
H108 H 0.2270 0.1531 0.3770
H110 H 0.3469 0.2270 0.3770
H111 H 0.1230 0.2270 0.3469
H115 H 0.2718 0.1003 0.3234
H116 H 0.1766 0.1003 0.2718
H118 H 0.3997 0.1766 0.2718
H119 H 0.2282 0.1766 0.3997
H121 H 0.3234 0.2282 0.3997
H122 H 0.1003 0.2282 0.3234
C160 C 0.2830(2) 0.1371(3) 0.3100(3)
C161 C 0.1900(3) 0.1371(3) 0.2830(2)
C163 C 0.3629(3) 0.1900(3) 0.2830(2)
C164 C 0.2170(2) 0.1900(3) 0.3629(3)
C166 C 0.3100(3) 0.2170(2) 0.3629(3)
C167 C 0.1371(3) 0.2170(2) 0.3100(3)
H126 H 0.2868 0.1289 0.2921
H127 H 0.2079 0.1289 0.2868
H129 H 0.3711 0.2079 0.2868
H130 H 0.2132 0.2079 0.3711
H132 H 0.2921 0.2132 0.3711
H133 H 0.1289 0.2132 0.2921
H137 H 0.2652 0.1463 0.3096
H138 H 0.1904 0.1463 0.2652
H140 H 0.3537 0.1904 0.2652
H141 H 0.2348 0.1904 0.3537
H143 H 0.3096 0.2348 0.3537
H144 H 0.1463 0.2348 0.3096
H148 H 0.2973 0.1504 0.3145
H149 H 0.1855 0.1504 0.2973
H151 H 0.3496 0.1855 0.2973
H152 H 0.2027 0.1855 0.3496
H154 H 0.3145 0.2027 0.3496
H155 H 0.1504 0.2027 0.3145
O35 O 0.3339(5) 0.0000 0.1828(5)
O36 O 0.1661(5) 0.0000 0.3172(5)
O37 O 0.3172(5) -0.0000 0.3339(5)
Pb1_2 Pb 0.22135(3) 1.0000 0.19522(3)
O1 O 0.23892(12) 0.96647(11) 0.16158(14)
O2 O 0.26151(13) 0.96856(12) 0.19868(18)
O3_2 O 0.2500 1.0000 0.2500
C1 C 0.25800(16) 0.95823(13) 0.17589(19)
C2 C 0.27562(12) 0.93536(13) 0.16627(18)
C3 C 0.29777(15) 0.92704(14) 0.18272(18)
H1 H 0.3017 0.9362 0.1994
C4 C 0.31386(13) 0.90509(13) 0.17407(15)
C5 C 0.30814(12) 0.89127(13) 0.15023(15)
C6 C 0.28552(14) 0.89934(14) 0.13471(16)
H2 H 0.2807 0.8895 0.1186
C7 C 0.27047(14) 0.92132(14) 0.14272(17)
H3 H 0.2557 0.9271 0.1314
C8 C 0.33921(16) 0.89464(16) 0.18796(18)
C9 C 0.34688(13) 0.87108(13) 0.16912(14)
C10 C 0.32844(13) 0.86852(13) 0.14778(13)
C11 C 0.3618(2) 0.9190(2) 0.1869(2)
H4 H 0.3547 0.9349 0.1972
H5 H 0.3786 0.9126 0.1962
C12 C 0.3696(3) 0.9286(3) 0.1572(3)
H6 H 0.3773 0.9131 0.1470
H7 H 0.3831 0.9433 0.1583
H8 H 0.3531 0.9353 0.1479
C13 C 0.3305(2) 0.8840(3) 0.21745(18)
H9 H 0.3469 0.8770 0.2270
H10 H 0.3234 0.8997 0.2282
C14 C 0.3100(3) 0.8629(3) 0.2170(2)
H11 H 0.2921 0.8711 0.2132
H12 H 0.3096 0.8537 0.2348
H13 H 0.3145 0.8496 0.2027
O4_2 O 0.1828(5) 1.0000 0.1661(5)
Pb2_2 Pb 0.30478(3) 1.0000 0.22135(3)
Pb3_2 Pb 0.19522(3) 1.0000 0.27865(3)
Pb4_2 Pb 0.27865(3) 1.0000 0.30478(3)
Pb5 Pb 0.5000 0.80478(3) 0.27865(3)
Pb6 Pb 0.5000 0.77865(3) 0.19522(3)
Pb7 Pb 0.30478(3) 0.72135(3) 0.0000
Pb8 Pb 0.27865(3) 0.80478(3) 0.0000
Pb16 Pb 0.0000 0.72135(3) 0.19522(3)
Pb17 Pb -0.0000 0.80478(3) 0.22135(3)
Pb18 Pb 0.19522(3) 0.77865(3) 0.0000
O6 O 0.33842(14) 0.96647(11) 0.23892(12)
O8 O 0.16158(14) 0.96647(11) 0.26108(12)
O11 O 0.26108(12) 0.96647(11) 0.33842(14)
O12 O 0.46647(11) 0.83842(14) 0.26108(12)
O13 O 0.33842(14) 0.73892(12) 0.03353(11)
O18 O 0.03353(11) 0.73892(12) 0.16158(14)
O19 O 0.26108(12) 0.83842(14) 0.03353(11)
O20 O 0.19868(18) 0.96856(12) 0.23849(13)
O23 O 0.30132(18) 0.96856(12) 0.26151(13)
O26 O 0.23849(13) 0.96856(12) 0.30132(18)
O27 O 0.46856(12) 0.80132(18) 0.23849(13)
O28 O 0.30132(18) 0.76151(13) 0.03144(12)
O33 O 0.03144(12) 0.76151(13) 0.19868(18)
O34 O 0.23849(13) 0.80132(18) 0.03144(12)
C17 C 0.17589(19) 0.95823(13) 0.24200(16)
C18 C 0.45823(13) 0.82411(19) 0.24200(16)
C19 C 0.32411(19) 0.75800(16) 0.04177(13)
C24 C 0.04177(13) 0.75800(16) 0.17589(19)
C25 C 0.24200(16) 0.82411(19) 0.04177(13)
C28 C 0.16627(18) 0.93536(13) 0.22438(12)
C29 C 0.43536(13) 0.83373(18) 0.22438(12)
C30 C 0.33373(18) 0.77562(12) 0.06464(13)
C35 C 0.06464(13) 0.77562(12) 0.16627(18)
C36 C 0.22438(12) 0.83373(18) 0.06464(13)
C39 C 0.18272(18) 0.92704(14) 0.20223(15)
C40 C 0.42704(14) 0.81728(18) 0.20223(15)
C41 C 0.31728(18) 0.79777(15) 0.07296(14)
C46 C 0.07296(14) 0.79777(15) 0.18272(18)
C47 C 0.20223(15) 0.81728(18) 0.07296(14)
H16 H 0.1994 0.9362 0.1983
H17 H 0.4362 0.8006 0.1983
H18 H 0.3006 0.8017 0.0638
H23 H 0.0638 0.8017 0.1994
H24 H 0.1983 0.8006 0.0638
C48 C 0.40509(13) 0.82593(15) 0.18614(13)
C49 C 0.32593(15) 0.81386(13) 0.09491(13)
C52 C 0.17407(15) 0.90509(13) 0.18614(13)
C57 C 0.09491(13) 0.81386(13) 0.17407(15)
C58 C 0.18614(13) 0.82593(15) 0.09491(13)
C59 C 0.39127(13) 0.84977(15) 0.19186(12)
C60 C 0.34977(15) 0.80814(12) 0.10873(13)
C63 C 0.15023(15) 0.89127(13) 0.19186(12)
C66 C 0.19186(12) 0.84977(15) 0.10873(13)
C69 C 0.10873(13) 0.80814(12) 0.15023(15)
C70 C 0.39934(14) 0.86529(16) 0.21448(14)
C71 C 0.36529(16) 0.78552(14) 0.10066(14)
C74 C 0.13471(16) 0.89934(14) 0.21448(14)
C77 C 0.21448(14) 0.86529(16) 0.10066(14)
C80 C 0.10066(14) 0.78552(14) 0.13471(16)
H25 H 0.3895 0.8814 0.2193
H26 H 0.3814 0.7807 0.1105
H29 H 0.1186 0.8895 0.2193
H32 H 0.2193 0.8814 0.1105
H35 H 0.1105 0.7807 0.1186
C83 C 0.14272(17) 0.92132(14) 0.22953(14)
C84 C 0.42132(14) 0.85728(17) 0.22953(14)
C85 C 0.35728(17) 0.77047(14) 0.07868(14)
C88 C 0.22953(14) 0.85728(17) 0.07868(14)
C91 C 0.07868(14) 0.77047(14) 0.14272(17)
H38 H 0.1314 0.9271 0.2443
H39 H 0.4271 0.8686 0.2443
H40 H 0.3686 0.7557 0.0729
H43 H 0.2443 0.8686 0.0729
H46 H 0.0729 0.7557 0.1314
C92 C 0.31204(18) 0.83921(16) 0.10536(16)
C93 C 0.39464(16) 0.81204(18) 0.16079(16)
C96 C 0.18796(18) 0.89464(16) 0.16079(16)
C99 C 0.10536(16) 0.83921(16) 0.18796(18)
C102 C 0.16079(16) 0.81204(18) 0.10536(16)
C103 C 0.33088(14) 0.84688(13) 0.12892(13)
C104 C 0.37108(13) 0.83088(14) 0.15312(13)
C107 C 0.16912(14) 0.87108(13) 0.15312(13)
C110 C 0.12892(13) 0.84688(13) 0.16912(14)
C113 C 0.15312(13) 0.83088(14) 0.12892(13)
C114 C 0.36852(13) 0.85222(13) 0.17156(13)
C115 C 0.35222(13) 0.82844(13) 0.13148(13)
C118 C 0.14778(13) 0.86852(13) 0.17156(13)
C121 C 0.17156(13) 0.85222(13) 0.13148(13)
C124 C 0.13148(13) 0.82844(13) 0.14778(13)
C125 C 0.3131(2) 0.8618(2) 0.0810(2)
C126 C 0.4190(2) 0.8131(2) 0.1382(2)
C129 C 0.1869(2) 0.9190(2) 0.1382(2)
C132 C 0.0810(2) 0.8618(2) 0.1869(2)
C135 C 0.1382(2) 0.8131(2) 0.0810(2)
H47 H 0.3028 0.8547 0.0651
H48 H 0.4349 0.8028 0.1453
H51 H 0.1972 0.9349 0.1453
H54 H 0.0651 0.8547 0.1972
H57 H 0.1453 0.8028 0.0651
H58 H 0.3038 0.8786 0.0874
H59 H 0.4126 0.8038 0.1214
H62 H 0.1962 0.9126 0.1214
H65 H 0.0874 0.8786 0.1962
H68 H 0.1214 0.8038 0.0874
C136 C 0.3428(3) 0.8696(3) 0.0714(3)
C137 C 0.4286(3) 0.8428(3) 0.1304(3)
C140 C 0.1572(3) 0.9286(3) 0.1304(3)
C143 C 0.0714(3) 0.8696(3) 0.1572(3)
C146 C 0.1304(3) 0.8428(3) 0.0714(3)
H69 H 0.3530 0.8773 0.0869
H70 H 0.4131 0.8530 0.1227
H73 H 0.1470 0.9131 0.1227
H76 H 0.0869 0.8773 0.1470
H79 H 0.1227 0.8530 0.0869
H80 H 0.3417 0.8831 0.0567
H81 H 0.4433 0.8417 0.1169
H84 H 0.1583 0.9433 0.1169
H87 H 0.0567 0.8831 0.1583
H90 H 0.1169 0.8417 0.0567
H91 H 0.3521 0.8531 0.0647
H92 H 0.4353 0.8521 0.1469
H95 H 0.1479 0.9353 0.1469
H98 H 0.0647 0.8531 0.1479
H101 H 0.1469 0.8521 0.0647
C147 C 0.28255(18) 0.8305(2) 0.1160(3)
C148 C 0.3840(3) 0.78255(18) 0.1695(2)
C151 C 0.21745(18) 0.8840(3) 0.1695(2)
C154 C 0.1160(3) 0.8305(2) 0.21745(18)
C157 C 0.1695(2) 0.78255(18) 0.1160(3)
H102 H 0.2730 0.8469 0.1230
H103 H 0.3770 0.7730 0.1531
H106 H 0.2270 0.8770 0.1531
H109 H 0.1230 0.8469 0.2270
H112 H 0.1531 0.7730 0.1230
H113 H 0.2718 0.8234 0.1003
H114 H 0.3997 0.7718 0.1766
H117 H 0.2282 0.8997 0.1766
H120 H 0.1003 0.8234 0.2282
H123 H 0.1766 0.7718 0.1003
C158 C 0.2830(2) 0.8100(3) 0.1371(3)
C159 C 0.3629(3) 0.7830(2) 0.1900(3)
C162 C 0.2170(2) 0.8629(3) 0.1900(3)
C165 C 0.1371(3) 0.8100(3) 0.2170(2)
C168 C 0.1900(3) 0.7830(2) 0.1371(3)
H124 H 0.2868 0.7921 0.1289
H125 H 0.3711 0.7868 0.2079
H128 H 0.2132 0.8711 0.2079
H131 H 0.1289 0.7921 0.2132
H134 H 0.2079 0.7868 0.1289
H135 H 0.2652 0.8096 0.1463
H136 H 0.3537 0.7652 0.1904
H139 H 0.2348 0.8537 0.1904
H142 H 0.1463 0.8096 0.2348
H145 H 0.1904 0.7652 0.1463
H146 H 0.2973 0.8145 0.1504
H147 H 0.3496 0.7973 0.1855
H150 H 0.2027 0.8496 0.1855
H153 H 0.1504 0.8145 0.2027
H156 H 0.1855 0.7973 0.1504
O35_2 O 0.3339(5) 1.0000 0.1828(5)
O36_2 O 0.1661(5) 1.0000 0.3172(5)
O37_2 O 0.3172(5) 1.0000 0.3339(5)
Pb7_2 Pb 0.30478(3) 0.72135(3) 1.0000
Pb8_2 Pb 0.27865(3) 0.80478(3) 1.0000
Pb18_2 Pb 0.19522(3) 0.77865(3) 1.0000
Pb14_2 Pb 1.0000 0.19522(3) 0.22135(3)
Pb15_2 Pb 1.0000 0.22135(3) 0.30478(3)
Pb16_2 Pb 1.0000 0.72135(3) 0.19522(3)
Pb17_2 Pb 1.0000 0.80478(3) 0.22135(3)
Pb1_3 Pb 0.19522(3) 0.22135(3) 0.0000
O3_3 O 0.2500 0.2500 0.0000
O4_3 O 0.1661(5) 0.1828(5) 0.0000
Pb2_3 Pb 0.22135(3) 0.30478(3) 0.0000
Pb3_3 Pb 0.27865(3) 0.19522(3) 0.0000
Pb4_3 Pb 0.30478(3) 0.27865(3) 0.0000
Pb9_2 Pb 0.30478(3) 0.5000 0.27865(3)
Pb10_2 Pb 0.27865(3) 0.5000 0.19522(3)
Pb11_2 Pb 0.5000 0.22135(3) 0.19522(3)
Pb12_2 Pb 0.5000 0.30478(3) 0.22135(3)
O5_2 O 0.16158(14) 0.23892(12) 0.03353(11)
O7_2 O 0.23892(12) 0.33842(14) 0.03353(11)
O9_2 O 0.26108(12) 0.16158(14) 0.03353(11)
O10_2 O 0.33842(14) 0.26108(12) 0.03353(11)
O14_2 O 0.33842(14) 0.46647(11) 0.26108(12)
O15_2 O 0.46647(11) 0.23892(12) 0.16158(14)
O16_2 O 0.46647(11) 0.16158(14) 0.26108(12)
O21_2 O 0.19868(18) 0.26151(13) 0.03144(12)
O22_2 O 0.23849(13) 0.19868(18) 0.03144(12)
O24_2 O 0.26151(13) 0.30132(18) 0.03144(12)
O25_2 O 0.30132(18) 0.23849(13) 0.03144(12)
O29_2 O 0.30132(18) 0.46856(12) 0.23849(13)
O30_2 O 0.46856(12) 0.26151(13) 0.19868(18)
O31_2 O 0.46856(12) 0.19868(18) 0.23849(13)
C15_2 C 0.25800(16) 0.32411(19) 0.04177(13)
C16_2 C 0.32411(19) 0.24200(16) 0.04177(13)
C20_2 C 0.32411(19) 0.45823(13) 0.24200(16)
C21_2 C 0.45823(13) 0.25800(16) 0.17589(19)
C22_2 C 0.45823(13) 0.17589(19) 0.24200(16)
C23_2 C 0.25800(16) 0.04177(13) 0.17589(19)
C26_2 C 0.27562(12) 0.33373(18) 0.06464(13)
C27_2 C 0.33373(18) 0.22438(12) 0.06464(13)
C31_2 C 0.33373(18) 0.43536(13) 0.22438(12)
C32_2 C 0.43536(13) 0.27562(12) 0.16627(18)
C33_2 C 0.43536(13) 0.16627(18) 0.22438(12)
C34_2 C 0.27562(12) 0.06464(13) 0.16627(18)
C37_2 C 0.29777(15) 0.31728(18) 0.07296(14)
C38_2 C 0.31728(18) 0.20223(15) 0.07296(14)
C42_2 C 0.31728(18) 0.42704(14) 0.20223(15)
C43_2 C 0.42704(14) 0.29777(15) 0.18272(18)
C44_2 C 0.42704(14) 0.18272(18) 0.20223(15)
C45_2 C 0.29777(15) 0.07296(14) 0.18272(18)
H14_2 H 0.3017 0.3006 0.0638
H15_2 H 0.3006 0.1983 0.0638
H19_2 H 0.3006 0.4362 0.1983
H20_2 H 0.4362 0.3017 0.1994
H21_2 H 0.4362 0.1994 0.1983
H22_2 H 0.3017 0.0638 0.1994
C50_2 C 0.31386(13) 0.32593(15) 0.09491(13)
C51_2 C 0.32593(15) 0.18614(13) 0.09491(13)
C53_2 C 0.32593(15) 0.40509(13) 0.18614(13)
C54_2 C 0.40509(13) 0.31386(13) 0.17407(15)
C55_2 C 0.40509(13) 0.17407(15) 0.18614(13)
C56_2 C 0.31386(13) 0.09491(13) 0.17407(15)
C61_2 C 0.30814(12) 0.34977(15) 0.10873(13)
C62_2 C 0.34977(15) 0.19186(12) 0.10873(13)
C64_2 C 0.39127(13) 0.30814(12) 0.15023(15)
C65_2 C 0.30814(12) 0.10873(13) 0.15023(15)
C67_2 C 0.34977(15) 0.39127(13) 0.19186(12)
C68_2 C 0.39127(13) 0.15023(15) 0.19186(12)
C72_2 C 0.28552(14) 0.36529(16) 0.10066(14)
C73_2 C 0.36529(16) 0.21448(14) 0.10066(14)
C75_2 C 0.39934(14) 0.28552(14) 0.13471(16)
C76_2 C 0.28552(14) 0.10066(14) 0.13471(16)
C78_2 C 0.36529(16) 0.39934(14) 0.21448(14)
C79_2 C 0.39934(14) 0.13471(16) 0.21448(14)
H27_2 H 0.2807 0.3814 0.1105
H28_2 H 0.3814 0.2193 0.1105
H30_2 H 0.3895 0.2807 0.1186
H31_2 H 0.2807 0.1105 0.1186
H33_2 H 0.3814 0.3895 0.2193
H34_2 H 0.3895 0.1186 0.2193
C81_2 C 0.27047(14) 0.35728(17) 0.07868(14)
C82_2 C 0.35728(17) 0.22953(14) 0.07868(14)
C86_2 C 0.42132(14) 0.27047(14) 0.14272(17)
C87_2 C 0.27047(14) 0.07868(14) 0.14272(17)
C89_2 C 0.35728(17) 0.42132(14) 0.22953(14)
C90_2 C 0.42132(14) 0.14272(17) 0.22953(14)
H36_2 H 0.2557 0.3686 0.0729
H37_2 H 0.3686 0.2443 0.0729
H41_2 H 0.4271 0.2557 0.1314
H42_2 H 0.2557 0.0729 0.1314
H44_2 H 0.3686 0.4271 0.2443
H45_2 H 0.4271 0.1314 0.2443
C94_2 C 0.33921(16) 0.31204(18) 0.10536(16)
C95_2 C 0.31204(18) 0.16079(16) 0.10536(16)
C97_2 C 0.31204(18) 0.39464(16) 0.16079(16)
C98_2 C 0.39464(16) 0.18796(18) 0.16079(16)
C100_2 C 0.39464(16) 0.33921(16) 0.18796(18)
C101_2 C 0.33921(16) 0.10536(16) 0.18796(18)
C105_2 C 0.34688(13) 0.33088(14) 0.12892(13)
C106_2 C 0.33088(14) 0.15312(13) 0.12892(13)
C108_2 C 0.33088(14) 0.37108(13) 0.15312(13)
C109_2 C 0.37108(13) 0.16912(14) 0.15312(13)
C111_2 C 0.37108(13) 0.34688(13) 0.16912(14)
C112_2 C 0.34688(13) 0.12892(13) 0.16912(14)
C116_2 C 0.32844(13) 0.35222(13) 0.13148(13)
C117_2 C 0.35222(13) 0.17156(13) 0.13148(13)
C119_2 C 0.36852(13) 0.32844(13) 0.14778(13)
C120_2 C 0.32844(13) 0.13148(13) 0.14778(13)
C122_2 C 0.35222(13) 0.36852(13) 0.17156(13)
C123_2 C 0.36852(13) 0.14778(13) 0.17156(13)
C127_2 C 0.3618(2) 0.3131(2) 0.0810(2)
C128_2 C 0.3131(2) 0.1382(2) 0.0810(2)
C130_2 C 0.3131(2) 0.4190(2) 0.1382(2)
C131_2 C 0.4190(2) 0.1869(2) 0.1382(2)
C133_2 C 0.4190(2) 0.3618(2) 0.1869(2)
C134_2 C 0.3618(2) 0.0810(2) 0.1869(2)
H49_2 H 0.3547 0.3028 0.0651
H50_2 H 0.3028 0.1453 0.0651
H52_2 H 0.3028 0.4349 0.1453
H53_2 H 0.4349 0.1972 0.1453
H55_2 H 0.4349 0.3547 0.1972
H56_2 H 0.3547 0.0651 0.1972
H60_2 H 0.3786 0.3038 0.0874
H61_2 H 0.3038 0.1214 0.0874
H63_2 H 0.3038 0.4126 0.1214
H64_2 H 0.4126 0.1962 0.1214
H66_2 H 0.4126 0.3786 0.1962
H67_2 H 0.3786 0.0874 0.1962
C138_2 C 0.3696(3) 0.3428(3) 0.0714(3)
C139_2 C 0.3428(3) 0.1304(3) 0.0714(3)
C141_2 C 0.3428(3) 0.4286(3) 0.1304(3)
C142_2 C 0.4286(3) 0.1572(3) 0.1304(3)
C144_2 C 0.4286(3) 0.3696(3) 0.1572(3)
C145_2 C 0.3696(3) 0.0714(3) 0.1572(3)
H71_2 H 0.3773 0.3530 0.0869
H72_2 H 0.3530 0.1227 0.0869
H74_2 H 0.3530 0.4131 0.1227
H75_2 H 0.4131 0.1470 0.1227
H77_2 H 0.4131 0.3773 0.1470
H78_2 H 0.3773 0.0869 0.1470
H82_2 H 0.3831 0.3417 0.0567
H83_2 H 0.3417 0.1169 0.0567
H85_2 H 0.3417 0.4433 0.1169
H86_2 H 0.4433 0.1583 0.1169
H88_2 H 0.4433 0.3831 0.1583
H89_2 H 0.3831 0.0567 0.1583
H93_2 H 0.3531 0.3521 0.0647
H94_2 H 0.3521 0.1469 0.0647
H96_2 H 0.3521 0.4353 0.1469
H97_2 H 0.4353 0.1479 0.1469
H99_2 H 0.4353 0.3531 0.1479
H100_2 H 0.3531 0.0647 0.1479
C149_2 C 0.3305(2) 0.28255(18) 0.1160(3)
C150_2 C 0.28255(18) 0.1695(2) 0.1160(3)
C152_2 C 0.28255(18) 0.3840(3) 0.1695(2)
C153_2 C 0.3840(3) 0.21745(18) 0.1695(2)
C155_2 C 0.3840(3) 0.3305(2) 0.21745(18)
C156_2 C 0.3305(2) 0.1160(3) 0.21745(18)
H104_2 H 0.3469 0.2730 0.1230
H105_2 H 0.2730 0.1531 0.1230
H107_2 H 0.2730 0.3770 0.1531
H108_2 H 0.3770 0.2270 0.1531
H110_2 H 0.3770 0.3469 0.2270
H111_2 H 0.3469 0.1230 0.2270
H115_2 H 0.3234 0.2718 0.1003
H116_2 H 0.2718 0.1766 0.1003
H118_2 H 0.2718 0.3997 0.1766
H119_2 H 0.3997 0.2282 0.1766
H121_2 H 0.3997 0.3234 0.2282
H122_2 H 0.3234 0.1003 0.2282
C160_2 C 0.3100(3) 0.2830(2) 0.1371(3)
C161_2 C 0.2830(2) 0.1900(3) 0.1371(3)
C163_2 C 0.2830(2) 0.3629(3) 0.1900(3)
C164_2 C 0.3629(3) 0.2170(2) 0.1900(3)
C166_2 C 0.3629(3) 0.3100(3) 0.2170(2)
C167_2 C 0.3100(3) 0.1371(3) 0.2170(2)
H126_2 H 0.2921 0.2868 0.1289
H127_2 H 0.2868 0.2079 0.1289
H129_2 H 0.2868 0.3711 0.2079
H130_2 H 0.3711 0.2132 0.2079
H132_2 H 0.3711 0.2921 0.2132
H133_2 H 0.2921 0.1289 0.2132
H137_2 H 0.3096 0.2652 0.1463
H138_2 H 0.2652 0.1904 0.1463
H140_2 H 0.2652 0.3537 0.1904
H141_2 H 0.3537 0.2348 0.1904
H143_2 H 0.3537 0.3096 0.2348
H144_2 H 0.3096 0.1463 0.2348
H148_2 H 0.3145 0.2973 0.1504
H149_2 H 0.2973 0.1855 0.1504
H151_2 H 0.2973 0.3496 0.1855
H152_2 H 0.3496 0.2027 0.1855
H154_2 H 0.3496 0.3145 0.2027
H155_2 H 0.3145 0.1504 0.2027
O35_3 O 0.1828(5) 0.3339(5) 0.0000
O36_3 O 0.3172(5) 0.1661(5) 0.0000
O37_3 O 0.3339(5) 0.3172(5) 0.0000
Pb1_4 Pb 0.19522(3) 0.22135(3) 1.0000
O1_2 O 0.16158(14) 0.23892(12) 0.96647(11)
O2_2 O 0.19868(18) 0.26151(13) 0.96856(12)
O3_4 O 0.2500 0.2500 1.0000
C1_2 C 0.17589(19) 0.25800(16) 0.95823(13)
C2_2 C 0.16627(18) 0.27562(12) 0.93536(13)
C3_2 C 0.18272(18) 0.29777(15) 0.92704(14)
H1_2 H 0.1994 0.3017 0.9362
C4_2 C 0.17407(15) 0.31386(13) 0.90509(13)
C5_2 C 0.15023(15) 0.30814(12) 0.89127(13)
C6_2 C 0.13471(16) 0.28552(14) 0.89934(14)
H2_2 H 0.1186 0.2807 0.8895
C7_2 C 0.14272(17) 0.27047(14) 0.92132(14)
H3_2 H 0.1314 0.2557 0.9271
C8_2 C 0.18796(18) 0.33921(16) 0.89464(16)
C9_2 C 0.16912(14) 0.34688(13) 0.87108(13)
C10_2 C 0.14778(13) 0.32844(13) 0.86852(13)
C11_2 C 0.1869(2) 0.3618(2) 0.9190(2)
H4_2 H 0.1972 0.3547 0.9349
H5_2 H 0.1962 0.3786 0.9126
C12_2 C 0.1572(3) 0.3696(3) 0.9286(3)
H6_2 H 0.1470 0.3773 0.9131
H7_2 H 0.1583 0.3831 0.9433
H8_2 H 0.1479 0.3531 0.9353
C13_2 C 0.21745(18) 0.3305(2) 0.8840(3)
H9_2 H 0.2270 0.3469 0.8770
H10_2 H 0.2282 0.3234 0.8997
C14_2 C 0.2170(2) 0.3100(3) 0.8629(3)
H11_2 H 0.2132 0.2921 0.8711
H12_2 H 0.2348 0.3096 0.8537
H13_2 H 0.2027 0.3145 0.8496
O4_4 O 0.1661(5) 0.1828(5) 1.0000
Pb2_4 Pb 0.22135(3) 0.30478(3) 1.0000
Pb3_4 Pb 0.27865(3) 0.19522(3) 1.0000
Pb4_4 Pb 0.30478(3) 0.27865(3) 1.0000
Pb5_2 Pb 0.27865(3) 0.5000 0.80478(3)
Pb6_2 Pb 0.19522(3) 0.5000 0.77865(3)
Pb7_3 Pb 0.0000 0.30478(3) 0.72135(3)
Pb8_3 Pb 0.0000 0.27865(3) 0.80478(3)
Pb16_3 Pb 0.19522(3) 0.0000 0.72135(3)
Pb17_3 Pb 0.22135(3) -0.0000 0.80478(3)
Pb18_3 Pb -0.0000 0.19522(3) 0.77865(3)
O6_2 O 0.23892(12) 0.33842(14) 0.96647(11)
O8_2 O 0.26108(12) 0.16158(14) 0.96647(11)
O11_2 O 0.33842(14) 0.26108(12) 0.96647(11)
O12_2 O 0.26108(12) 0.46647(11) 0.83842(14)
O13_2 O 0.03353(11) 0.33842(14) 0.73892(12)
O18_2 O 0.16158(14) 0.03353(11) 0.73892(12)
O19_2 O 0.03353(11) 0.26108(12) 0.83842(14)
O20_2 O 0.23849(13) 0.19868(18) 0.96856(12)
O23_2 O 0.26151(13) 0.30132(18) 0.96856(12)
O26_2 O 0.30132(18) 0.23849(13) 0.96856(12)
O27_2 O 0.23849(13) 0.46856(12) 0.80132(18)
O28_2 O 0.03144(12) 0.30132(18) 0.76151(13)
O33_2 O 0.19868(18) 0.03144(12) 0.76151(13)
O34_2 O 0.03144(12) 0.23849(13) 0.80132(18)
C17_2 C 0.24200(16) 0.17589(19) 0.95823(13)
C18_2 C 0.24200(16) 0.45823(13) 0.82411(19)
C19_2 C 0.04177(13) 0.32411(19) 0.75800(16)
C24_2 C 0.17589(19) 0.04177(13) 0.75800(16)
C25_2 C 0.04177(13) 0.24200(16) 0.82411(19)
C28_2 C 0.22438(12) 0.16627(18) 0.93536(13)
C29_2 C 0.22438(12) 0.43536(13) 0.83373(18)
C30_2 C 0.06464(13) 0.33373(18) 0.77562(12)
C35_2 C 0.16627(18) 0.06464(13) 0.77562(12)
C36_2 C 0.06464(13) 0.22438(12) 0.83373(18)
C39_2 C 0.20223(15) 0.18272(18) 0.92704(14)
C40_2 C 0.20223(15) 0.42704(14) 0.81728(18)
C41_2 C 0.07296(14) 0.31728(18) 0.79777(15)
C46_2 C 0.18272(18) 0.07296(14) 0.79777(15)
C47_2 C 0.07296(14) 0.20223(15) 0.81728(18)
H16_2 H 0.1983 0.1994 0.9362
H17_2 H 0.1983 0.4362 0.8006
H18_2 H 0.0638 0.3006 0.8017
H23_2 H 0.1994 0.0638 0.8017
H24_2 H 0.0638 0.1983 0.8006
C48_2 C 0.18614(13) 0.40509(13) 0.82593(15)
C49_2 C 0.09491(13) 0.32593(15) 0.81386(13)
C52_2 C 0.18614(13) 0.17407(15) 0.90509(13)
C57_2 C 0.17407(15) 0.09491(13) 0.81386(13)
C58_2 C 0.09491(13) 0.18614(13) 0.82593(15)
C59_2 C 0.19186(12) 0.39127(13) 0.84977(15)
C60_2 C 0.10873(13) 0.34977(15) 0.80814(12)
C63_2 C 0.19186(12) 0.15023(15) 0.89127(13)
C66_2 C 0.10873(13) 0.19186(12) 0.84977(15)
C69_2 C 0.15023(15) 0.10873(13) 0.80814(12)
C70_2 C 0.21448(14) 0.39934(14) 0.86529(16)
C71_2 C 0.10066(14) 0.36529(16) 0.78552(14)
C74_2 C 0.21448(14) 0.13471(16) 0.89934(14)
C77_2 C 0.10066(14) 0.21448(14) 0.86529(16)
C80_2 C 0.13471(16) 0.10066(14) 0.78552(14)
H25_2 H 0.2193 0.3895 0.8814
H26_2 H 0.1105 0.3814 0.7807
H29_2 H 0.2193 0.1186 0.8895
H32_2 H 0.1105 0.2193 0.8814
H35_2 H 0.1186 0.1105 0.7807
C83_2 C 0.22953(14) 0.14272(17) 0.92132(14)
C84_2 C 0.22953(14) 0.42132(14) 0.85728(17)
C85_2 C 0.07868(14) 0.35728(17) 0.77047(14)
C88_2 C 0.07868(14) 0.22953(14) 0.85728(17)
C91_2 C 0.14272(17) 0.07868(14) 0.77047(14)
H38_2 H 0.2443 0.1314 0.9271
H39_2 H 0.2443 0.4271 0.8686
H40_2 H 0.0729 0.3686 0.7557
H43_2 H 0.0729 0.2443 0.8686
H46_2 H 0.1314 0.0729 0.7557
C92_2 C 0.10536(16) 0.31204(18) 0.83921(16)
C93_2 C 0.16079(16) 0.39464(16) 0.81204(18)
C96_2 C 0.16079(16) 0.18796(18) 0.89464(16)
C99_2 C 0.18796(18) 0.10536(16) 0.83921(16)
C102_2 C 0.10536(16) 0.16079(16) 0.81204(18)
C103_2 C 0.12892(13) 0.33088(14) 0.84688(13)
C104_2 C 0.15312(13) 0.37108(13) 0.83088(14)
C107_2 C 0.15312(13) 0.16912(14) 0.87108(13)
C110_2 C 0.16912(14) 0.12892(13) 0.84688(13)
C113_2 C 0.12892(13) 0.15312(13) 0.83088(14)
C114_2 C 0.17156(13) 0.36852(13) 0.85222(13)
C115_2 C 0.13148(13) 0.35222(13) 0.82844(13)
C118_2 C 0.17156(13) 0.14778(13) 0.86852(13)
C121_2 C 0.13148(13) 0.17156(13) 0.85222(13)
C124_2 C 0.14778(13) 0.13148(13) 0.82844(13)
C125_2 C 0.0810(2) 0.3131(2) 0.8618(2)
C126_2 C 0.1382(2) 0.4190(2) 0.8131(2)
C129_2 C 0.1382(2) 0.1869(2) 0.9190(2)
C132_2 C 0.1869(2) 0.0810(2) 0.8618(2)
C135_2 C 0.0810(2) 0.1382(2) 0.8131(2)
H47_2 H 0.0651 0.3028 0.8547
H48_2 H 0.1453 0.4349 0.8028
H51_2 H 0.1453 0.1972 0.9349
H54_2 H 0.1972 0.0651 0.8547
H57_2 H 0.0651 0.1453 0.8028
H58_2 H 0.0874 0.3038 0.8786
H59_2 H 0.1214 0.4126 0.8038
H62_2 H 0.1214 0.1962 0.9126
H65_2 H 0.1962 0.0874 0.8786
H68_2 H 0.0874 0.1214 0.8038
C136_2 C 0.0714(3) 0.3428(3) 0.8696(3)
C137_2 C 0.1304(3) 0.4286(3) 0.8428(3)
C140_2 C 0.1304(3) 0.1572(3) 0.9286(3)
C143_2 C 0.1572(3) 0.0714(3) 0.8696(3)
C146_2 C 0.0714(3) 0.1304(3) 0.8428(3)
H69_2 H 0.0869 0.3530 0.8773
H70_2 H 0.1227 0.4131 0.8530
H73_2 H 0.1227 0.1470 0.9131
H76_2 H 0.1470 0.0869 0.8773
H79_2 H 0.0869 0.1227 0.8530
H80_2 H 0.0567 0.3417 0.8831
H81_2 H 0.1169 0.4433 0.8417
H84_2 H 0.1169 0.1583 0.9433
H87_2 H 0.1583 0.0567 0.8831
H90_2 H 0.0567 0.1169 0.8417
H91_2 H 0.0647 0.3521 0.8531
H92_2 H 0.1469 0.4353 0.8521
H95_2 H 0.1469 0.1479 0.9353
H98_2 H 0.1479 0.0647 0.8531
H101_2 H 0.0647 0.1469 0.8521
C147_2 C 0.1160(3) 0.28255(18) 0.8305(2)
C148_2 C 0.1695(2) 0.3840(3) 0.78255(18)
C151_2 C 0.1695(2) 0.21745(18) 0.8840(3)
C154_2 C 0.21745(18) 0.1160(3) 0.8305(2)
C157_2 C 0.1160(3) 0.1695(2) 0.78255(18)
H102_2 H 0.1230 0.2730 0.8469
H103_2 H 0.1531 0.3770 0.7730
H106_2 H 0.1531 0.2270 0.8770
H109_2 H 0.2270 0.1230 0.8469
H112_2 H 0.1230 0.1531 0.7730
H113_2 H 0.1003 0.2718 0.8234
H114_2 H 0.1766 0.3997 0.7718
H117_2 H 0.1766 0.2282 0.8997
H120_2 H 0.2282 0.1003 0.8234
H123_2 H 0.1003 0.1766 0.7718
C158_2 C 0.1371(3) 0.2830(2) 0.8100(3)
C159_2 C 0.1900(3) 0.3629(3) 0.7830(2)
C162_2 C 0.1900(3) 0.2170(2) 0.8629(3)
C165_2 C 0.2170(2) 0.1371(3) 0.8100(3)
C168_2 C 0.1371(3) 0.1900(3) 0.7830(2)
H124_2 H 0.1289 0.2868 0.7921
H125_2 H 0.2079 0.3711 0.7868
H128_2 H 0.2079 0.2132 0.8711
H131_2 H 0.2132 0.1289 0.7921
H134_2 H 0.1289 0.2079 0.7868
H135_2 H 0.1463 0.2652 0.8096
H136_2 H 0.1904 0.3537 0.7652
H139_2 H 0.1904 0.2348 0.8537
H142_2 H 0.2348 0.1463 0.8096
H145_2 H 0.1463 0.1904 0.7652
H146_2 H 0.1504 0.2973 0.8145
H147_2 H 0.1855 0.3496 0.7973
H150_2 H 0.1855 0.2027 0.8496
H153_2 H 0.2027 0.1504 0.8145
H156_2 H 0.1504 0.1855 0.7973
O35_4 O 0.1828(5) 0.3339(5) 1.0000
O36_4 O 0.3172(5) 0.1661(5) 1.0000
O37_4 O 0.3339(5) 0.3172(5) 1.0000
Pb16_4 Pb 0.19522(3) 1.0000 0.72135(3)
Pb17_4 Pb 0.22135(3) 1.0000 0.80478(3)
Pb7_4 Pb 1.0000 0.30478(3) 0.72135(3)
Pb8_4 Pb 1.0000 0.27865(3) 0.80478(3)
Pb18_4 Pb 1.0000 0.19522(3) 0.77865(3)
O3_5 O 0.0000 0.2500 0.2500
O4_5 O 0.0000 0.1661(5) 0.1828(5)
Pb3_5 Pb 0.0000 0.27865(3) 0.19522(3)
Pb4_5 Pb -0.0000 0.30478(3) 0.27865(3)
Pb9_3 Pb 0.27865(3) 0.30478(3) 0.5000
Pb11_3 Pb 0.19522(3) 0.5000 0.22135(3)
Pb12_3 Pb 0.22135(3) 0.5000 0.30478(3)
O7_3 O 0.03353(11) 0.23892(12) 0.33842(14)
O9_3 O 0.03353(11) 0.26108(12) 0.16158(14)
O10_3 O 0.03353(11) 0.33842(14) 0.26108(12)
O14_3 O 0.26108(12) 0.33842(14) 0.46647(11)
O15_3 O 0.16158(14) 0.46647(11) 0.23892(12)
O16_3 O 0.26108(12) 0.46647(11) 0.16158(14)
O22_3 O 0.03144(12) 0.23849(13) 0.19868(18)
O24_3 O 0.03144(12) 0.26151(13) 0.30132(18)
O25_3 O 0.03144(12) 0.30132(18) 0.23849(13)
O29_3 O 0.23849(13) 0.30132(18) 0.46856(12)
O30_3 O 0.19868(18) 0.46856(12) 0.26151(13)
O31_3 O 0.23849(13) 0.46856(12) 0.19868(18)
C15_3 C 0.04177(13) 0.25800(16) 0.32411(19)
C16_3 C 0.04177(13) 0.32411(19) 0.24200(16)
C20_3 C 0.24200(16) 0.32411(19) 0.45823(13)
C21_3 C 0.17589(19) 0.45823(13) 0.25800(16)
C22_3 C 0.24200(16) 0.45823(13) 0.17589(19)
C23_3 C 0.17589(19) 0.25800(16) 0.04177(13)
C26_3 C 0.06464(13) 0.27562(12) 0.33373(18)
C27_3 C 0.06464(13) 0.33373(18) 0.22438(12)
C31_3 C 0.22438(12) 0.33373(18) 0.43536(13)
C32_3 C 0.16627(18) 0.43536(13) 0.27562(12)
C33_3 C 0.22438(12) 0.43536(13) 0.16627(18)
C34_3 C 0.16627(18) 0.27562(12) 0.06464(13)
C37_3 C 0.07296(14) 0.29777(15) 0.31728(18)
C38_3 C 0.07296(14) 0.31728(18) 0.20223(15)
C42_3 C 0.20223(15) 0.31728(18) 0.42704(14)
C43_3 C 0.18272(18) 0.42704(14) 0.29777(15)
C44_3 C 0.20223(15) 0.42704(14) 0.18272(18)
C45_3 C 0.18272(18) 0.29777(15) 0.07296(14)
H14_3 H 0.0638 0.3017 0.3006
H15_3 H 0.0638 0.3006 0.1983
H19_3 H 0.1983 0.3006 0.4362
H20_3 H 0.1994 0.4362 0.3017
H21_3 H 0.1983 0.4362 0.1994
H22_3 H 0.1994 0.3017 0.0638
C50_3 C 0.09491(13) 0.31386(13) 0.32593(15)
C51_3 C 0.09491(13) 0.32593(15) 0.18614(13)
C53_3 C 0.18614(13) 0.32593(15) 0.40509(13)
C54_3 C 0.17407(15) 0.40509(13) 0.31386(13)
C55_3 C 0.18614(13) 0.40509(13) 0.17407(15)
C56_3 C 0.17407(15) 0.31386(13) 0.09491(13)
C61_3 C 0.10873(13) 0.30814(12) 0.34977(15)
C62_3 C 0.10873(13) 0.34977(15) 0.19186(12)
C64_3 C 0.15023(15) 0.39127(13) 0.30814(12)
C65_3 C 0.15023(15) 0.30814(12) 0.10873(13)
C67_3 C 0.19186(12) 0.34977(15) 0.39127(13)
C68_3 C 0.19186(12) 0.39127(13) 0.15023(15)
C72_3 C 0.10066(14) 0.28552(14) 0.36529(16)
C73_3 C 0.10066(14) 0.36529(16) 0.21448(14)
C75_3 C 0.13471(16) 0.39934(14) 0.28552(14)
C76_3 C 0.13471(16) 0.28552(14) 0.10066(14)
C78_3 C 0.21448(14) 0.36529(16) 0.39934(14)
C79_3 C 0.21448(14) 0.39934(14) 0.13471(16)
H27_3 H 0.1105 0.2807 0.3814
H28_3 H 0.1105 0.3814 0.2193
H30_3 H 0.1186 0.3895 0.2807
H31_3 H 0.1186 0.2807 0.1105
H33_3 H 0.2193 0.3814 0.3895
H34_3 H 0.2193 0.3895 0.1186
C81_3 C 0.07868(14) 0.27047(14) 0.35728(17)
C82_3 C 0.07868(14) 0.35728(17) 0.22953(14)
C86_3 C 0.14272(17) 0.42132(14) 0.27047(14)
C87_3 C 0.14272(17) 0.27047(14) 0.07868(14)
C89_3 C 0.22953(14) 0.35728(17) 0.42132(14)
C90_3 C 0.22953(14) 0.42132(14) 0.14272(17)
H36_3 H 0.0729 0.2557 0.3686
H37_3 H 0.0729 0.3686 0.2443
H41_3 H 0.1314 0.4271 0.2557
H42_3 H 0.1314 0.2557 0.0729
H44_3 H 0.2443 0.3686 0.4271
H45_3 H 0.2443 0.4271 0.1314
C94_3 C 0.10536(16) 0.33921(16) 0.31204(18)
C95_3 C 0.10536(16) 0.31204(18) 0.16079(16)
C97_3 C 0.16079(16) 0.31204(18) 0.39464(16)
C98_3 C 0.16079(16) 0.39464(16) 0.18796(18)
C100_3 C 0.18796(18) 0.39464(16) 0.33921(16)
C101_3 C 0.18796(18) 0.33921(16) 0.10536(16)
C105_3 C 0.12892(13) 0.34688(13) 0.33088(14)
C106_3 C 0.12892(13) 0.33088(14) 0.15312(13)
C108_3 C 0.15312(13) 0.33088(14) 0.37108(13)
C109_3 C 0.15312(13) 0.37108(13) 0.16912(14)
C111_3 C 0.16912(14) 0.37108(13) 0.34688(13)
C112_3 C 0.16912(14) 0.34688(13) 0.12892(13)
C116_3 C 0.13148(13) 0.32844(13) 0.35222(13)
C117_3 C 0.13148(13) 0.35222(13) 0.17156(13)
C119_3 C 0.14778(13) 0.36852(13) 0.32844(13)
C120_3 C 0.14778(13) 0.32844(13) 0.13148(13)
C122_3 C 0.17156(13) 0.35222(13) 0.36852(13)
C123_3 C 0.17156(13) 0.36852(13) 0.14778(13)
C127_3 C 0.0810(2) 0.3618(2) 0.3131(2)
C128_3 C 0.0810(2) 0.3131(2) 0.1382(2)
C130_3 C 0.1382(2) 0.3131(2) 0.4190(2)
C131_3 C 0.1382(2) 0.4190(2) 0.1869(2)
C133_3 C 0.1869(2) 0.4190(2) 0.3618(2)
C134_3 C 0.1869(2) 0.3618(2) 0.0810(2)
H49_3 H 0.0651 0.3547 0.3028
H50_3 H 0.0651 0.3028 0.1453
H52_3 H 0.1453 0.3028 0.4349
H53_3 H 0.1453 0.4349 0.1972
H55_3 H 0.1972 0.4349 0.3547
H56_3 H 0.1972 0.3547 0.0651
H60_3 H 0.0874 0.3786 0.3038
H61_3 H 0.0874 0.3038 0.1214
H63_3 H 0.1214 0.3038 0.4126
H64_3 H 0.1214 0.4126 0.1962
H66_3 H 0.1962 0.4126 0.3786
H67_3 H 0.1962 0.3786 0.0874
C138_3 C 0.0714(3) 0.3696(3) 0.3428(3)
C139_3 C 0.0714(3) 0.3428(3) 0.1304(3)
C141_3 C 0.1304(3) 0.3428(3) 0.4286(3)
C142_3 C 0.1304(3) 0.4286(3) 0.1572(3)
C144_3 C 0.1572(3) 0.4286(3) 0.3696(3)
C145_3 C 0.1572(3) 0.3696(3) 0.0714(3)
H71_3 H 0.0869 0.3773 0.3530
H72_3 H 0.0869 0.3530 0.1227
H74_3 H 0.1227 0.3530 0.4131
H75_3 H 0.1227 0.4131 0.1470
H77_3 H 0.1470 0.4131 0.3773
H78_3 H 0.1470 0.3773 0.0869
H82_3 H 0.0567 0.3831 0.3417
H83_3 H 0.0567 0.3417 0.1169
H85_3 H 0.1169 0.3417 0.4433
H86_3 H 0.1169 0.4433 0.1583
H88_3 H 0.1583 0.4433 0.3831
H89_3 H 0.1583 0.3831 0.0567
H93_3 H 0.0647 0.3531 0.3521
H94_3 H 0.0647 0.3521 0.1469
H96_3 H 0.1469 0.3521 0.4353
H97_3 H 0.1469 0.4353 0.1479
H99_3 H 0.1479 0.4353 0.3531
H100_3 H 0.1479 0.3531 0.0647
C149_3 C 0.1160(3) 0.3305(2) 0.28255(18)
C150_3 C 0.1160(3) 0.28255(18) 0.1695(2)
C152_3 C 0.1695(2) 0.28255(18) 0.3840(3)
C153_3 C 0.1695(2) 0.3840(3) 0.21745(18)
C155_3 C 0.21745(18) 0.3840(3) 0.3305(2)
C156_3 C 0.21745(18) 0.3305(2) 0.1160(3)
H104_3 H 0.1230 0.3469 0.2730
H105_3 H 0.1230 0.2730 0.1531
H107_3 H 0.1531 0.2730 0.3770
H108_3 H 0.1531 0.3770 0.2270
H110_3 H 0.2270 0.3770 0.3469
H111_3 H 0.2270 0.3469 0.1230
H115_3 H 0.1003 0.3234 0.2718
H116_3 H 0.1003 0.2718 0.1766
H118_3 H 0.1766 0.2718 0.3997
H119_3 H 0.1766 0.3997 0.2282
H121_3 H 0.2282 0.3997 0.3234
H122_3 H 0.2282 0.3234 0.1003
C160_3 C 0.1371(3) 0.3100(3) 0.2830(2)
C161_3 C 0.1371(3) 0.2830(2) 0.1900(3)
C163_3 C 0.1900(3) 0.2830(2) 0.3629(3)
C164_3 C 0.1900(3) 0.3629(3) 0.2170(2)
C166_3 C 0.2170(2) 0.3629(3) 0.3100(3)
C167_3 C 0.2170(2) 0.3100(3) 0.1371(3)
H126_3 H 0.1289 0.2921 0.2868
H127_3 H 0.1289 0.2868 0.2079
H129_3 H 0.2079 0.2868 0.3711
H130_3 H 0.2079 0.3711 0.2132
H132_3 H 0.2132 0.3711 0.2921
H133_3 H 0.2132 0.2921 0.1289
H137_3 H 0.1463 0.3096 0.2652
H138_3 H 0.1463 0.2652 0.1904
H140_3 H 0.1904 0.2652 0.3537
H141_3 H 0.1904 0.3537 0.2348
H143_3 H 0.2348 0.3537 0.3096
H144_3 H 0.2348 0.3096 0.1463
H148_3 H 0.1504 0.3145 0.2973
H149_3 H 0.1504 0.2973 0.1855
H151_3 H 0.1855 0.2973 0.3496
H152_3 H 0.1855 0.3496 0.2027
H154_3 H 0.2027 0.3496 0.3145
H155_3 H 0.2027 0.3145 0.1504
O35_5 O -0.0000 0.1828(5) 0.3339(5)
O36_5 O -0.0000 0.3172(5) 0.1661(5)
O37_5 O 0.0000 0.3339(5) 0.3172(5)
O1_3 O 0.96647(11) 0.16158(14) 0.23892(12)
O2_3 O 0.96856(12) 0.19868(18) 0.26151(13)
O3_6 O 1.0000 0.2500 0.2500
C1_3 C 0.95823(13) 0.17589(19) 0.25800(16)
C2_3 C 0.93536(13) 0.16627(18) 0.27562(12)
C3_3 C 0.92704(14) 0.18272(18) 0.29777(15)
H1_3 H 0.9362 0.1994 0.3017
C4_3 C 0.90509(13) 0.17407(15) 0.31386(13)
C5_3 C 0.89127(13) 0.15023(15) 0.30814(12)
C6_3 C 0.89934(14) 0.13471(16) 0.28552(14)
H2_3 H 0.8895 0.1186 0.2807
C7_3 C 0.92132(14) 0.14272(17) 0.27047(14)
H3_3 H 0.9271 0.1314 0.2557
C8_3 C 0.89464(16) 0.18796(18) 0.33921(16)
C9_3 C 0.87108(13) 0.16912(14) 0.34688(13)
C10_3 C 0.86852(13) 0.14778(13) 0.32844(13)
C11_3 C 0.9190(2) 0.1869(2) 0.3618(2)
H4_3 H 0.9349 0.1972 0.3547
H5_3 H 0.9126 0.1962 0.3786
C12_3 C 0.9286(3) 0.1572(3) 0.3696(3)
H6_3 H 0.9131 0.1470 0.3773
H7_3 H 0.9433 0.1583 0.3831
H8_3 H 0.9353 0.1479 0.3531
C13_3 C 0.8840(3) 0.21745(18) 0.3305(2)
H9_3 H 0.8770 0.2270 0.3469
H10_3 H 0.8997 0.2282 0.3234
C14_3 C 0.8629(3) 0.2170(2) 0.3100(3)
H11_3 H 0.8711 0.2132 0.2921
H12_3 H 0.8537 0.2348 0.3096
H13_3 H 0.8496 0.2027 0.3145
O4_6 O 1.0000 0.1661(5) 0.1828(5)
Pb3_6 Pb 1.0000 0.27865(3) 0.19522(3)
Pb4_6 Pb 1.0000 0.30478(3) 0.27865(3)
Pb5_3 Pb 0.80478(3) 0.27865(3) 0.5000
Pb6_3 Pb 0.77865(3) 0.19522(3) 0.5000
Pb7_5 Pb 0.72135(3) -0.0000 0.30478(3)
Pb8_5 Pb 0.80478(3) -0.0000 0.27865(3)
Pb16_5 Pb 0.72135(3) 0.19522(3) 0.0000
Pb17_5 Pb 0.80478(3) 0.22135(3) -0.0000
Pb18_5 Pb 0.77865(3) 0.0000 0.19522(3)
O6_3 O 0.96647(11) 0.23892(12) 0.33842(14)
O8_3 O 0.96647(11) 0.26108(12) 0.16158(14)
O11_3 O 0.96647(11) 0.33842(14) 0.26108(12)
O12_3 O 0.83842(14) 0.26108(12) 0.46647(11)
O13_3 O 0.73892(12) 0.03353(11) 0.33842(14)
O18_3 O 0.73892(12) 0.16158(14) 0.03353(11)
O19_3 O 0.83842(14) 0.03353(11) 0.26108(12)
O20_3 O 0.96856(12) 0.23849(13) 0.19868(18)
O23_3 O 0.96856(12) 0.26151(13) 0.30132(18)
O26_3 O 0.96856(12) 0.30132(18) 0.23849(13)
O27_3 O 0.80132(18) 0.23849(13) 0.46856(12)
O28_3 O 0.76151(13) 0.03144(12) 0.30132(18)
O33_3 O 0.76151(13) 0.19868(18) 0.03144(12)
O34_3 O 0.80132(18) 0.03144(12) 0.23849(13)
C17_3 C 0.95823(13) 0.24200(16) 0.17589(19)
C18_3 C 0.82411(19) 0.24200(16) 0.45823(13)
C19_3 C 0.75800(16) 0.04177(13) 0.32411(19)
C24_3 C 0.75800(16) 0.17589(19) 0.04177(13)
C25_3 C 0.82411(19) 0.04177(13) 0.24200(16)
C28_3 C 0.93536(13) 0.22438(12) 0.16627(18)
C29_3 C 0.83373(18) 0.22438(12) 0.43536(13)
C30_3 C 0.77562(12) 0.06464(13) 0.33373(18)
C35_3 C 0.77562(12) 0.16627(18) 0.06464(13)
C36_3 C 0.83373(18) 0.06464(13) 0.22438(12)
C39_3 C 0.92704(14) 0.20223(15) 0.18272(18)
C40_3 C 0.81728(18) 0.20223(15) 0.42704(14)
C41_3 C 0.79777(15) 0.07296(14) 0.31728(18)
C46_3 C 0.79777(15) 0.18272(18) 0.07296(14)
C47_3 C 0.81728(18) 0.07296(14) 0.20223(15)
H16_3 H 0.9362 0.1983 0.1994
H17_3 H 0.8006 0.1983 0.4362
H18_3 H 0.8017 0.0638 0.3006
H23_3 H 0.8017 0.1994 0.0638
H24_3 H 0.8006 0.0638 0.1983
C48_3 C 0.82593(15) 0.18614(13) 0.40509(13)
C49_3 C 0.81386(13) 0.09491(13) 0.32593(15)
C52_3 C 0.90509(13) 0.18614(13) 0.17407(15)
C57_3 C 0.81386(13) 0.17407(15) 0.09491(13)
C58_3 C 0.82593(15) 0.09491(13) 0.18614(13)
C59_3 C 0.84977(15) 0.19186(12) 0.39127(13)
C60_3 C 0.80814(12) 0.10873(13) 0.34977(15)
C63_3 C 0.89127(13) 0.19186(12) 0.15023(15)
C66_3 C 0.84977(15) 0.10873(13) 0.19186(12)
C69_3 C 0.80814(12) 0.15023(15) 0.10873(13)
C70_3 C 0.86529(16) 0.21448(14) 0.39934(14)
C71_3 C 0.78552(14) 0.10066(14) 0.36529(16)
C74_3 C 0.89934(14) 0.21448(14) 0.13471(16)
C77_3 C 0.86529(16) 0.10066(14) 0.21448(14)
C80_3 C 0.78552(14) 0.13471(16) 0.10066(14)
H25_3 H 0.8814 0.2193 0.3895
H26_3 H 0.7807 0.1105 0.3814
H29_3 H 0.8895 0.2193 0.1186
H32_3 H 0.8814 0.1105 0.2193
H35_3 H 0.7807 0.1186 0.1105
C83_3 C 0.92132(14) 0.22953(14) 0.14272(17)
C84_3 C 0.85728(17) 0.22953(14) 0.42132(14)
C85_3 C 0.77047(14) 0.07868(14) 0.35728(17)
C88_3 C 0.85728(17) 0.07868(14) 0.22953(14)
C91_3 C 0.77047(14) 0.14272(17) 0.07868(14)
H38_3 H 0.9271 0.2443 0.1314
H39_3 H 0.8686 0.2443 0.4271
H40_3 H 0.7557 0.0729 0.3686
H43_3 H 0.8686 0.0729 0.2443
H46_3 H 0.7557 0.1314 0.0729
C92_3 C 0.83921(16) 0.10536(16) 0.31204(18)
C93_3 C 0.81204(18) 0.16079(16) 0.39464(16)
C96_3 C 0.89464(16) 0.16079(16) 0.18796(18)
C99_3 C 0.83921(16) 0.18796(18) 0.10536(16)
C102_3 C 0.81204(18) 0.10536(16) 0.16079(16)
C103_3 C 0.84688(13) 0.12892(13) 0.33088(14)
C104_3 C 0.83088(14) 0.15312(13) 0.37108(13)
C107_3 C 0.87108(13) 0.15312(13) 0.16912(14)
C110_3 C 0.84688(13) 0.16912(14) 0.12892(13)
C113_3 C 0.83088(14) 0.12892(13) 0.15312(13)
C114_3 C 0.85222(13) 0.17156(13) 0.36852(13)
C115_3 C 0.82844(13) 0.13148(13) 0.35222(13)
C118_3 C 0.86852(13) 0.17156(13) 0.14778(13)
C121_3 C 0.85222(13) 0.13148(13) 0.17156(13)
C124_3 C 0.82844(13) 0.14778(13) 0.13148(13)
C125_3 C 0.8618(2) 0.0810(2) 0.3131(2)
C126_3 C 0.8131(2) 0.1382(2) 0.4190(2)
C129_3 C 0.9190(2) 0.1382(2) 0.1869(2)
C132_3 C 0.8618(2) 0.1869(2) 0.0810(2)
C135_3 C 0.8131(2) 0.0810(2) 0.1382(2)
H47_3 H 0.8547 0.0651 0.3028
H48_3 H 0.8028 0.1453 0.4349
H51_3 H 0.9349 0.1453 0.1972
H54_3 H 0.8547 0.1972 0.0651
H57_3 H 0.8028 0.0651 0.1453
H58_3 H 0.8786 0.0874 0.3038
H59_3 H 0.8038 0.1214 0.4126
H62_3 H 0.9126 0.1214 0.1962
H65_3 H 0.8786 0.1962 0.0874
H68_3 H 0.8038 0.0874 0.1214
C136_3 C 0.8696(3) 0.0714(3) 0.3428(3)
C137_3 C 0.8428(3) 0.1304(3) 0.4286(3)
C140_3 C 0.9286(3) 0.1304(3) 0.1572(3)
C143_3 C 0.8696(3) 0.1572(3) 0.0714(3)
C146_3 C 0.8428(3) 0.0714(3) 0.1304(3)
H69_3 H 0.8773 0.0869 0.3530
H70_3 H 0.8530 0.1227 0.4131
H73_3 H 0.9131 0.1227 0.1470
H76_3 H 0.8773 0.1470 0.0869
H79_3 H 0.8530 0.0869 0.1227
H80_3 H 0.8831 0.0567 0.3417
H81_3 H 0.8417 0.1169 0.4433
H84_3 H 0.9433 0.1169 0.1583
H87_3 H 0.8831 0.1583 0.0567
H90_3 H 0.8417 0.0567 0.1169
H91_3 H 0.8531 0.0647 0.3521
H92_3 H 0.8521 0.1469 0.4353
H95_3 H 0.9353 0.1469 0.1479
H98_3 H 0.8531 0.1479 0.0647
H101_3 H 0.8521 0.0647 0.1469
C147_3 C 0.8305(2) 0.1160(3) 0.28255(18)
C148_3 C 0.78255(18) 0.1695(2) 0.3840(3)
C151_3 C 0.8840(3) 0.1695(2) 0.21745(18)
C154_3 C 0.8305(2) 0.21745(18) 0.1160(3)
C157_3 C 0.78255(18) 0.1160(3) 0.1695(2)
H102_3 H 0.8469 0.1230 0.2730
H103_3 H 0.7730 0.1531 0.3770
H106_3 H 0.8770 0.1531 0.2270
H109_3 H 0.8469 0.2270 0.1230
H112_3 H 0.7730 0.1230 0.1531
H113_3 H 0.8234 0.1003 0.2718
H114_3 H 0.7718 0.1766 0.3997
H117_3 H 0.8997 0.1766 0.2282
H120_3 H 0.8234 0.2282 0.1003
H123_3 H 0.7718 0.1003 0.1766
C158_3 C 0.8100(3) 0.1371(3) 0.2830(2)
C159_3 C 0.7830(2) 0.1900(3) 0.3629(3)
C162_3 C 0.8629(3) 0.1900(3) 0.2170(2)
C165_3 C 0.8100(3) 0.2170(2) 0.1371(3)
C168_3 C 0.7830(2) 0.1371(3) 0.1900(3)
H124_3 H 0.7921 0.1289 0.2868
H125_3 H 0.7868 0.2079 0.3711
H128_3 H 0.8711 0.2079 0.2132
H131_3 H 0.7921 0.2132 0.1289
H134_3 H 0.7868 0.1289 0.2079
H135_3 H 0.8096 0.1463 0.2652
H136_3 H 0.7652 0.1904 0.3537
H139_3 H 0.8537 0.1904 0.2348
H142_3 H 0.8096 0.2348 0.1463
H145_3 H 0.7652 0.1463 0.1904
H146_3 H 0.8145 0.1504 0.2973
H147_3 H 0.7973 0.1855 0.3496
H150_3 H 0.8496 0.1855 0.2027
H153_3 H 0.8145 0.2027 0.1504
H156_3 H 0.7973 0.1504 0.1855
O35_6 O 1.0000 0.1828(5) 0.3339(5)
O36_6 O 1.0000 0.3172(5) 0.1661(5)
O37_6 O 1.0000 0.3339(5) 0.3172(5)
Pb16_6 Pb 0.72135(3) 0.19522(3) 1.0000
Pb17_6 Pb 0.80478(3) 0.22135(3) 1.0000
Pb7_6 Pb 0.72135(3) 1.0000 0.30478(3)
Pb8_6 Pb 0.80478(3) 1.0000 0.27865(3)
Pb18_6 Pb 0.77865(3) 1.0000 0.19522(3)
Pb10_3 Pb 0.69522(3) 0.0000 0.22135(3)
Pb1_5 Pb 0.5000 0.72135(3) 0.30478(3)
O1_4 O 0.46647(11) 0.73892(12) 0.33842(14)
O2_4 O 0.46856(12) 0.76151(13) 0.30132(18)
O3_7 O 0.5000 0.7500 0.2500
C1_4 C 0.45823(13) 0.75800(16) 0.32411(19)
C2_4 C 0.43536(13) 0.77562(12) 0.33373(18)
C3_4 C 0.42704(14) 0.79777(15) 0.31728(18)
H1_4 H 0.4362 0.8017 0.3006
C4_4 C 0.40509(13) 0.81386(13) 0.32593(15)
C5_4 C 0.39127(13) 0.80814(12) 0.34977(15)
C6_4 C 0.39934(14) 0.78552(14) 0.36529(16)
H2_4 H 0.3895 0.7807 0.3814
C7_4 C 0.42132(14) 0.77047(14) 0.35728(17)
H3_4 H 0.4271 0.7557 0.3686
C8_4 C 0.39464(16) 0.83921(16) 0.31204(18)
C9_4 C 0.37108(13) 0.84688(13) 0.33088(14)
C10_4 C 0.36852(13) 0.82844(13) 0.35222(13)
C11_4 C 0.4190(2) 0.8618(2) 0.3131(2)
H4_4 H 0.4349 0.8547 0.3028
H5_4 H 0.4126 0.8786 0.3038
C12_4 C 0.4286(3) 0.8696(3) 0.3428(3)
H6_4 H 0.4131 0.8773 0.3530
H7_4 H 0.4433 0.8831 0.3417
H8_4 H 0.4353 0.8531 0.3521
C13_4 C 0.3840(3) 0.8305(2) 0.28255(18)
H9_4 H 0.3770 0.8469 0.2730
H10_4 H 0.3997 0.8234 0.2718
C14_4 C 0.3629(3) 0.8100(3) 0.2830(2)
H11_4 H 0.3711 0.7921 0.2868
H12_4 H 0.3537 0.8096 0.2652
H13_4 H 0.3496 0.8145 0.2973
O4_7 O 0.5000 0.6828(5) 0.3339(5)
Pb3_7 Pb 0.5000 0.69522(3) 0.22135(3)
Pb7_7 Pb 0.22135(3) 0.80478(3) 0.5000
Pb8_7 Pb 0.30478(3) 0.77865(3) 0.5000
Pb10_4 Pb 0.69522(3) 1.0000 0.22135(3)
Pb11_4 Pb 0.69522(3) 0.72135(3) 0.0000
Pb12_4 Pb 0.72135(3) 0.80478(3) 0.0000
Pb13_2 Pb 0.77865(3) 0.69522(3) 0.0000
Pb14_3 Pb 0.69522(3) 0.5000 0.27865(3)
Pb15_3 Pb 0.72135(3) 0.5000 0.19522(3)
Pb18_7 Pb 0.27865(3) 0.69522(3) 0.5000
O5_3 O 0.53353(11) 0.73892(12) 0.33842(14)
O7_4 O 0.53353(11) 0.83842(14) 0.26108(12)
O8_4 O 0.46647(11) 0.66158(14) 0.23892(12)
O9_4 O 0.53353(11) 0.66158(14) 0.23892(12)
O10_4 O 0.53353(11) 0.76108(12) 0.16158(14)
O11_4 O 0.46647(11) 0.76108(12) 0.16158(14)
O13_4 O 0.23892(12) 0.83842(14) 0.46647(11)
O14_4 O 0.76108(12) 0.96647(11) 0.16158(14)
O15_4 O 0.66158(14) 0.73892(12) 0.03353(11)
O16_4 O 0.76108(12) 0.66158(14) 0.03353(11)
O17_2 O 0.66158(14) 0.53353(11) 0.26108(12)
O18_4 O 0.23892(12) 0.53353(11) 0.33842(14)
O19_4 O 0.33842(14) 0.76108(12) 0.46647(11)
O20_4 O 0.46856(12) 0.69868(18) 0.26151(13)
O21_3 O 0.53144(12) 0.76151(13) 0.30132(18)
O22_4 O 0.53144(12) 0.69868(18) 0.26151(13)
O24_4 O 0.53144(12) 0.80132(18) 0.23849(13)
O25_4 O 0.53144(12) 0.73849(13) 0.19868(18)
O26_4 O 0.46856(12) 0.73849(13) 0.19868(18)
O28_4 O 0.26151(13) 0.80132(18) 0.46856(12)
O29_4 O 0.73849(13) 0.96856(12) 0.19868(18)
O30_4 O 0.69868(18) 0.76151(13) 0.03144(12)
O31_4 O 0.73849(13) 0.69868(18) 0.03144(12)
O32_2 O 0.69868(18) 0.53144(12) 0.23849(13)
O33_4 O 0.26151(13) 0.53144(12) 0.30132(18)
O34_4 O 0.30132(18) 0.73849(13) 0.46856(12)
C15_4 C 0.54177(13) 0.82411(19) 0.24200(16)
C16_4 C 0.54177(13) 0.74200(16) 0.17589(19)
C17_4 C 0.45823(13) 0.67589(19) 0.25800(16)
C18_4 C 0.32411(19) 0.95823(13) 0.25800(16)
C19_4 C 0.25800(16) 0.82411(19) 0.45823(13)
C20_4 C 0.74200(16) 0.95823(13) 0.17589(19)
C21_4 C 0.67589(19) 0.75800(16) 0.04177(13)
C22_4 C 0.74200(16) 0.67589(19) 0.04177(13)
C23_4 C 0.67589(19) 0.54177(13) 0.24200(16)
C24_4 C 0.25800(16) 0.54177(13) 0.32411(19)
C25_4 C 0.32411(19) 0.74200(16) 0.45823(13)
C26_4 C 0.56464(13) 0.83373(18) 0.22438(12)
C27_4 C 0.56464(13) 0.72438(12) 0.16627(18)
C28_4 C 0.43536(13) 0.66627(18) 0.27562(12)
C29_4 C 0.33373(18) 0.93536(13) 0.27562(12)
C30_4 C 0.27562(12) 0.83373(18) 0.43536(13)
C31_4 C 0.72438(12) 0.93536(13) 0.16627(18)
C32_4 C 0.66627(18) 0.77562(12) 0.06464(13)
C33_4 C 0.72438(12) 0.66627(18) 0.06464(13)
C34_4 C 0.66627(18) 0.56464(13) 0.22438(12)
C35_4 C 0.27562(12) 0.56464(13) 0.33373(18)
C36_4 C 0.33373(18) 0.72438(12) 0.43536(13)
C37_4 C 0.57296(14) 0.81728(18) 0.20223(15)
C38_4 C 0.57296(14) 0.70223(15) 0.18272(18)
C39_4 C 0.42704(14) 0.68272(18) 0.29777(15)
C40_4 C 0.31728(18) 0.92704(14) 0.29777(15)
C41_4 C 0.29777(15) 0.81728(18) 0.42704(14)
C42_4 C 0.70223(15) 0.92704(14) 0.18272(18)
C43_4 C 0.68272(18) 0.79777(15) 0.07296(14)
C44_4 C 0.70223(15) 0.68272(18) 0.07296(14)
C45_4 C 0.68272(18) 0.57296(14) 0.20223(15)
C46_4 C 0.29777(15) 0.57296(14) 0.31728(18)
C47_4 C 0.31728(18) 0.70223(15) 0.42704(14)
H14_4 H 0.5638 0.8006 0.1983
H15_4 H 0.5638 0.6983 0.1994
H16_4 H 0.4362 0.6994 0.3017
H17_4 H 0.3006 0.9362 0.3017
H18_4 H 0.3017 0.8006 0.4362
H19_4 H 0.6983 0.9362 0.1994
H20_4 H 0.6994 0.8017 0.0638
H21_4 H 0.6983 0.6994 0.0638
H22_4 H 0.6994 0.5638 0.1983
H23_4 H 0.3017 0.5638 0.3006
H24_4 H 0.3006 0.6983 0.4362
C48_4 C 0.32593(15) 0.90509(13) 0.31386(13)
C49_4 C 0.31386(13) 0.82593(15) 0.40509(13)
C50_4 C 0.59491(13) 0.82593(15) 0.18614(13)
C51_4 C 0.59491(13) 0.68614(13) 0.17407(15)
C52_4 C 0.40509(13) 0.67407(15) 0.31386(13)
C53_4 C 0.68614(13) 0.90509(13) 0.17407(15)
C54_4 C 0.67407(15) 0.81386(13) 0.09491(13)
C55_4 C 0.68614(13) 0.67407(15) 0.09491(13)
C56_4 C 0.67407(15) 0.59491(13) 0.18614(13)
C57_4 C 0.31386(13) 0.59491(13) 0.32593(15)
C58_4 C 0.32593(15) 0.68614(13) 0.40509(13)
C59_4 C 0.34977(15) 0.89127(13) 0.30814(12)
C60_4 C 0.30814(12) 0.84977(15) 0.39127(13)
C61_4 C 0.60873(13) 0.84977(15) 0.19186(12)
C62_4 C 0.60873(13) 0.69186(12) 0.15023(15)
C63_4 C 0.39127(13) 0.65023(15) 0.30814(12)
C64_4 C 0.65023(15) 0.80814(12) 0.10873(13)
C65_4 C 0.65023(15) 0.60873(13) 0.19186(12)
C66_4 C 0.34977(15) 0.69186(12) 0.39127(13)
C67_4 C 0.69186(12) 0.89127(13) 0.15023(15)
C68_4 C 0.69186(12) 0.65023(15) 0.10873(13)
C69_4 C 0.30814(12) 0.60873(13) 0.34977(15)
C70_4 C 0.36529(16) 0.89934(14) 0.28552(14)
C71_4 C 0.28552(14) 0.86529(16) 0.39934(14)
C72_4 C 0.60066(14) 0.86529(16) 0.21448(14)
C73_4 C 0.60066(14) 0.71448(14) 0.13471(16)
C74_4 C 0.39934(14) 0.63471(16) 0.28552(14)
C75_4 C 0.63471(16) 0.78552(14) 0.10066(14)
C76_4 C 0.63471(16) 0.60066(14) 0.21448(14)
C77_4 C 0.36529(16) 0.71448(14) 0.39934(14)
C78_4 C 0.71448(14) 0.89934(14) 0.13471(16)
C79_4 C 0.71448(14) 0.63471(16) 0.10066(14)
C80_4 C 0.28552(14) 0.60066(14) 0.36529(16)
H25_4 H 0.3814 0.8895 0.2807
H26_4 H 0.2807 0.8814 0.3895
H27_4 H 0.6105 0.8814 0.2193
H28_4 H 0.6105 0.7193 0.1186
H29_4 H 0.3895 0.6186 0.2807
H30_4 H 0.6186 0.7807 0.1105
H31_4 H 0.6186 0.6105 0.2193
H32_4 H 0.3814 0.7193 0.3895
H33_4 H 0.7193 0.8895 0.1186
H34_4 H 0.7193 0.6186 0.1105
H35_4 H 0.2807 0.6105 0.3814
C81_4 C 0.57868(14) 0.85728(17) 0.22953(14)
C82_4 C 0.57868(14) 0.72953(14) 0.14272(17)
C83_4 C 0.42132(14) 0.64272(17) 0.27047(14)
C84_4 C 0.35728(17) 0.92132(14) 0.27047(14)
C85_4 C 0.27047(14) 0.85728(17) 0.42132(14)
C86_4 C 0.64272(17) 0.77047(14) 0.07868(14)
C87_4 C 0.64272(17) 0.57868(14) 0.22953(14)
C88_4 C 0.35728(17) 0.72953(14) 0.42132(14)
C89_4 C 0.72953(14) 0.92132(14) 0.14272(17)
C90_4 C 0.72953(14) 0.64272(17) 0.07868(14)
C91_4 C 0.27047(14) 0.57868(14) 0.35728(17)
H36_4 H 0.5729 0.8686 0.2443
H37_4 H 0.5729 0.7443 0.1314
H38_4 H 0.4271 0.6314 0.2557
H39_4 H 0.3686 0.9271 0.2557
H40_4 H 0.2557 0.8686 0.4271
H41_4 H 0.6314 0.7557 0.0729
H42_4 H 0.6314 0.5729 0.2443
H43_4 H 0.3686 0.7443 0.4271
H44_4 H 0.7443 0.9271 0.1314
H45_4 H 0.7443 0.6314 0.0729
H46_4 H 0.2557 0.5729 0.3686
C92_4 C 0.33921(16) 0.81204(18) 0.39464(16)
C93_4 C 0.31204(18) 0.89464(16) 0.33921(16)
C94_4 C 0.60536(16) 0.81204(18) 0.16079(16)
C95_4 C 0.60536(16) 0.66079(16) 0.18796(18)
C96_4 C 0.39464(16) 0.68796(18) 0.33921(16)
C97_4 C 0.66079(16) 0.89464(16) 0.18796(18)
C98_4 C 0.66079(16) 0.68796(18) 0.10536(16)
C99_4 C 0.33921(16) 0.60536(16) 0.31204(18)
C100_4 C 0.68796(18) 0.83921(16) 0.10536(16)
C101_4 C 0.68796(18) 0.60536(16) 0.16079(16)
C102_4 C 0.31204(18) 0.66079(16) 0.39464(16)
C103_4 C 0.34688(13) 0.83088(14) 0.37108(13)
C104_4 C 0.33088(14) 0.87108(13) 0.34688(13)
C105_4 C 0.62892(13) 0.83088(14) 0.15312(13)
C106_4 C 0.62892(13) 0.65312(13) 0.16912(14)
C107_4 C 0.37108(13) 0.66912(14) 0.34688(13)
C108_4 C 0.65312(13) 0.87108(13) 0.16912(14)
C109_4 C 0.65312(13) 0.66912(14) 0.12892(13)
C110_4 C 0.34688(13) 0.62892(13) 0.33088(14)
C111_4 C 0.66912(14) 0.84688(13) 0.12892(13)
C112_4 C 0.66912(14) 0.62892(13) 0.15312(13)
C113_4 C 0.33088(14) 0.65312(13) 0.37108(13)
C114_4 C 0.35222(13) 0.86852(13) 0.32844(13)
C115_4 C 0.32844(13) 0.85222(13) 0.36852(13)
C116_4 C 0.63148(13) 0.85222(13) 0.17156(13)
C117_4 C 0.63148(13) 0.67156(13) 0.14778(13)
C118_4 C 0.36852(13) 0.64778(13) 0.32844(13)
C119_4 C 0.64778(13) 0.82844(13) 0.13148(13)
C120_4 C 0.64778(13) 0.63148(13) 0.17156(13)
C121_4 C 0.35222(13) 0.67156(13) 0.36852(13)
C122_4 C 0.67156(13) 0.86852(13) 0.14778(13)
C123_4 C 0.67156(13) 0.64778(13) 0.13148(13)
C124_4 C 0.32844(13) 0.63148(13) 0.35222(13)
C125_4 C 0.3618(2) 0.8131(2) 0.4190(2)
C126_4 C 0.3131(2) 0.9190(2) 0.3618(2)
C127_4 C 0.5810(2) 0.8131(2) 0.1382(2)
C128_4 C 0.5810(2) 0.6382(2) 0.1869(2)
C129_4 C 0.4190(2) 0.6869(2) 0.3618(2)
C130_4 C 0.6382(2) 0.9190(2) 0.1869(2)
C131_4 C 0.6382(2) 0.6869(2) 0.0810(2)
C132_4 C 0.3618(2) 0.5810(2) 0.3131(2)
C133_4 C 0.6869(2) 0.8618(2) 0.0810(2)
C134_4 C 0.6869(2) 0.5810(2) 0.1382(2)
C135_4 C 0.3131(2) 0.6382(2) 0.4190(2)
H47_4 H 0.3547 0.8028 0.4349
H48_4 H 0.3028 0.9349 0.3547
H49_4 H 0.5651 0.8028 0.1453
H50_4 H 0.5651 0.6453 0.1972
H51_4 H 0.4349 0.6972 0.3547
H52_4 H 0.6453 0.9349 0.1972
H53_4 H 0.6453 0.6972 0.0651
H54_4 H 0.3547 0.5651 0.3028
H55_4 H 0.6972 0.8547 0.0651
H56_4 H 0.6972 0.5651 0.1453
H57_4 H 0.3028 0.6453 0.4349
H58_4 H 0.3786 0.8038 0.4126
H59_4 H 0.3038 0.9126 0.3786
H60_4 H 0.5874 0.8038 0.1214
H61_4 H 0.5874 0.6214 0.1962
H62_4 H 0.4126 0.6962 0.3786
H63_4 H 0.6214 0.9126 0.1962
H64_4 H 0.6214 0.6962 0.0874
H65_4 H 0.3786 0.5874 0.3038
H66_4 H 0.6962 0.8786 0.0874
H67_4 H 0.6962 0.5874 0.1214
H68_4 H 0.3038 0.6214 0.4126
C136_4 C 0.3696(3) 0.8428(3) 0.4286(3)
C137_4 C 0.3428(3) 0.9286(3) 0.3696(3)
C138_4 C 0.5714(3) 0.8428(3) 0.1304(3)
C139_4 C 0.5714(3) 0.6304(3) 0.1572(3)
C140_4 C 0.4286(3) 0.6572(3) 0.3696(3)
C141_4 C 0.6304(3) 0.9286(3) 0.1572(3)
C142_4 C 0.6304(3) 0.6572(3) 0.0714(3)
C143_4 C 0.3696(3) 0.5714(3) 0.3428(3)
C144_4 C 0.6572(3) 0.8696(3) 0.0714(3)
C145_4 C 0.6572(3) 0.5714(3) 0.1304(3)
C146_4 C 0.3428(3) 0.6304(3) 0.4286(3)
H69_4 H 0.3773 0.8530 0.4131
H70_4 H 0.3530 0.9131 0.3773
H71_4 H 0.5869 0.8530 0.1227
H72_4 H 0.5869 0.6227 0.1470
H73_4 H 0.4131 0.6470 0.3773
H74_4 H 0.6227 0.9131 0.1470
H75_4 H 0.6227 0.6470 0.0869
H76_4 H 0.3773 0.5869 0.3530
H77_4 H 0.6470 0.8773 0.0869
H78_4 H 0.6470 0.5869 0.1227
H79_4 H 0.3530 0.6227 0.4131
H80_4 H 0.3831 0.8417 0.4433
H81_4 H 0.3417 0.9433 0.3831
H82_4 H 0.5567 0.8417 0.1169
H83_4 H 0.5567 0.6169 0.1583
H84_4 H 0.4433 0.6583 0.3831
H85_4 H 0.6169 0.9433 0.1583
H86_4 H 0.6169 0.6583 0.0567
H87_4 H 0.3831 0.5567 0.3417
H88_4 H 0.6583 0.8831 0.0567
H89_4 H 0.6583 0.5567 0.1169
H90_4 H 0.3417 0.6169 0.4433
H91_4 H 0.3531 0.8521 0.4353
H92_4 H 0.3521 0.9353 0.3531
H93_4 H 0.5647 0.8521 0.1469
H94_4 H 0.5647 0.6469 0.1479
H95_4 H 0.4353 0.6479 0.3531
H96_4 H 0.6469 0.9353 0.1479
H97_4 H 0.6469 0.6479 0.0647
H98_4 H 0.3531 0.5647 0.3521
H99_4 H 0.6479 0.8531 0.0647
H100_4 H 0.6479 0.5647 0.1469
H101_4 H 0.3521 0.6469 0.4353
C147_4 C 0.3305(2) 0.78255(18) 0.3840(3)
C148_4 C 0.28255(18) 0.8840(3) 0.3305(2)
C149_4 C 0.6160(3) 0.78255(18) 0.1695(2)
C150_4 C 0.6160(3) 0.6695(2) 0.21745(18)
C151_4 C 0.3840(3) 0.71745(18) 0.3305(2)
C152_4 C 0.6695(2) 0.8840(3) 0.21745(18)
C153_4 C 0.6695(2) 0.71745(18) 0.1160(3)
C154_4 C 0.3305(2) 0.6160(3) 0.28255(18)
C155_4 C 0.71745(18) 0.8305(2) 0.1160(3)
C156_4 C 0.71745(18) 0.6160(3) 0.1695(2)
C157_4 C 0.28255(18) 0.6695(2) 0.3840(3)
H102_4 H 0.3469 0.7730 0.3770
H103_4 H 0.2730 0.8770 0.3469
H104_4 H 0.6230 0.7730 0.1531
H105_4 H 0.6230 0.6531 0.2270
H106_4 H 0.3770 0.7270 0.3469
H107_4 H 0.6531 0.8770 0.2270
H108_4 H 0.6531 0.7270 0.1230
H109_4 H 0.3469 0.6230 0.2730
H110_4 H 0.7270 0.8469 0.1230
H111_4 H 0.7270 0.6230 0.1531
H112_4 H 0.2730 0.6531 0.3770
H113_4 H 0.3234 0.7718 0.3997
H114_4 H 0.2718 0.8997 0.3234
H115_4 H 0.6003 0.7718 0.1766
H116_4 H 0.6003 0.6766 0.2282
H117_4 H 0.3997 0.7282 0.3234
H118_4 H 0.6766 0.8997 0.2282
H119_4 H 0.6766 0.7282 0.1003
H120_4 H 0.3234 0.6003 0.2718
H121_4 H 0.7282 0.8234 0.1003
H122_4 H 0.7282 0.6003 0.1766
H123_4 H 0.2718 0.6766 0.3997
C158_4 C 0.3100(3) 0.7830(2) 0.3629(3)
C159_4 C 0.2830(2) 0.8629(3) 0.3100(3)
C160_4 C 0.6371(3) 0.7830(2) 0.1900(3)
C161_4 C 0.6371(3) 0.6900(3) 0.2170(2)
C162_4 C 0.3629(3) 0.7170(2) 0.3100(3)
C163_4 C 0.6900(3) 0.8629(3) 0.2170(2)
C164_4 C 0.6900(3) 0.7170(2) 0.1371(3)
C165_4 C 0.3100(3) 0.6371(3) 0.2830(2)
C166_4 C 0.7170(2) 0.8100(3) 0.1371(3)
C167_4 C 0.7170(2) 0.6371(3) 0.1900(3)
C168_4 C 0.2830(2) 0.6900(3) 0.3629(3)
H124_4 H 0.2921 0.7868 0.3711
H125_4 H 0.2868 0.8711 0.2921
H126_4 H 0.6289 0.7868 0.2079
H127_4 H 0.6289 0.7079 0.2132
H128_4 H 0.3711 0.7132 0.2921
H129_4 H 0.7079 0.8711 0.2132
H130_4 H 0.7079 0.7132 0.1289
H131_4 H 0.2921 0.6289 0.2868
H132_4 H 0.7132 0.7921 0.1289
H133_4 H 0.7132 0.6289 0.2079
H134_4 H 0.2868 0.7079 0.3711
H135_4 H 0.3096 0.7652 0.3537
H136_4 H 0.2652 0.8537 0.3096
H137_4 H 0.6463 0.7652 0.1904
H138_4 H 0.6463 0.6904 0.2348
H139_4 H 0.3537 0.7348 0.3096
H140_4 H 0.6904 0.8537 0.2348
H141_4 H 0.6904 0.7348 0.1463
H142_4 H 0.3096 0.6463 0.2652
H143_4 H 0.7348 0.8096 0.1463
H144_4 H 0.7348 0.6463 0.1904
H145_4 H 0.2652 0.6904 0.3537
H146_4 H 0.3145 0.7973 0.3496
H147_4 H 0.2973 0.8496 0.3145
H148_4 H 0.6504 0.7973 0.1855
H149_4 H 0.6504 0.6855 0.2027
H150_4 H 0.3496 0.7027 0.3145
H151_4 H 0.6855 0.8496 0.2027
H152_4 H 0.6855 0.7027 0.1504
H153_4 H 0.3145 0.6504 0.2973
H154_4 H 0.7027 0.8145 0.1504
H155_4 H 0.7027 0.6504 0.1855
H156_4 H 0.2973 0.6855 0.3496
O35_7 O 0.5000 0.8339(5) 0.3172(5)
O36_7 O 0.5000 0.6661(5) 0.1828(5)
O37_7 O 0.5000 0.8172(5) 0.1661(5)
Pb11_5 Pb 0.69522(3) 0.72135(3) 1.0000
Pb12_5 Pb 0.72135(3) 0.80478(3) 1.0000
Pb13_3 Pb 0.77865(3) 0.69522(3) 1.0000
Pb11_6 Pb 0.69522(3) 0.27865(3) 0.0000
Pb13_4 Pb 0.77865(3) 0.30478(3) 0.0000
Pb1_6 Pb 0.5000 0.27865(3) 0.69522(3)
O1_5 O 0.46647(11) 0.26108(12) 0.66158(14)
O2_5 O 0.46856(12) 0.23849(13) 0.69868(18)
O3_8 O 0.5000 0.2500 0.7500
C1_5 C 0.45823(13) 0.24200(16) 0.67589(19)
C2_5 C 0.43536(13) 0.22438(12) 0.66627(18)
C3_5 C 0.42704(14) 0.20223(15) 0.68272(18)
H1_5 H 0.4362 0.1983 0.6994
C4_5 C 0.40509(13) 0.18614(13) 0.67407(15)
C5_5 C 0.39127(13) 0.19186(12) 0.65023(15)
C6_5 C 0.39934(14) 0.21448(14) 0.63471(16)
H2_5 H 0.3895 0.2193 0.6186
C7_5 C 0.42132(14) 0.22953(14) 0.64272(17)
H3_5 H 0.4271 0.2443 0.6314
C8_5 C 0.39464(16) 0.16079(16) 0.68796(18)
C9_5 C 0.37108(13) 0.15312(13) 0.66912(14)
C10_5 C 0.36852(13) 0.17156(13) 0.64778(13)
C11_5 C 0.4190(2) 0.1382(2) 0.6869(2)
H4_5 H 0.4349 0.1453 0.6972
H5_5 H 0.4126 0.1214 0.6962
C12_5 C 0.4286(3) 0.1304(3) 0.6572(3)
H6_5 H 0.4131 0.1227 0.6470
H7_5 H 0.4433 0.1169 0.6583
H8_5 H 0.4353 0.1469 0.6479
C13_5 C 0.3840(3) 0.1695(2) 0.71745(18)
H9_5 H 0.3770 0.1531 0.7270
H10_5 H 0.3997 0.1766 0.7282
C14_5 C 0.3629(3) 0.1900(3) 0.7170(2)
H11_5 H 0.3711 0.2079 0.7132
H12_5 H 0.3537 0.1904 0.7348
H13_5 H 0.3496 0.1855 0.7027
O4_8 O 0.5000 0.3172(5) 0.6661(5)
Pb2_5 Pb 0.5000 0.19522(3) 0.72135(3)
Pb3_8 Pb 0.5000 0.30478(3) 0.77865(3)
Pb4_7 Pb 0.5000 0.22135(3) 0.80478(3)
Pb5_4 Pb 0.30478(3) -0.0000 0.77865(3)
Pb6_4 Pb 0.27865(3) -0.0000 0.69522(3)
Pb9_4 Pb 0.77865(3) 0.0000 0.80478(3)
Pb10_5 Pb 0.69522(3) 0.0000 0.77865(3)
Pb11_7 Pb 0.69522(3) 0.27865(3) 1.0000
Pb13_5 Pb 0.77865(3) 0.30478(3) 1.0000
Pb14_4 Pb 0.69522(3) 0.5000 0.72135(3)
Pb15_4 Pb 0.72135(3) 0.5000 0.80478(3)
Pb16_7 Pb 0.22135(3) 0.5000 0.69522(3)
Pb17_7 Pb 0.30478(3) 0.5000 0.72135(3)
O5_4 O 0.53353(11) 0.26108(12) 0.66158(14)
O6_4 O 0.46647(11) 0.16158(14) 0.73892(12)
O7_5 O 0.53353(11) 0.16158(14) 0.73892(12)
O8_5 O 0.46647(11) 0.33842(14) 0.76108(12)
O9_5 O 0.53353(11) 0.33842(14) 0.76108(12)
O10_5 O 0.53353(11) 0.23892(12) 0.83842(14)
O11_5 O 0.46647(11) 0.23892(12) 0.83842(14)
O12_4 O 0.33842(14) 0.03353(11) 0.76108(12)
O13_5 O 0.23892(12) 0.16158(14) 0.53353(11)
O14_5 O 0.76108(12) 0.03353(11) 0.83842(14)
O15_5 O 0.66158(14) 0.26108(12) 0.96647(11)
O16_5 O 0.76108(12) 0.33842(14) 0.96647(11)
O17_3 O 0.66158(14) 0.46647(11) 0.73892(12)
O18_5 O 0.23892(12) 0.46647(11) 0.66158(14)
O19_5 O 0.33842(14) 0.23892(12) 0.53353(11)
O20_5 O 0.46856(12) 0.30132(18) 0.73849(13)
O21_4 O 0.53144(12) 0.23849(13) 0.69868(18)
O22_5 O 0.53144(12) 0.30132(18) 0.73849(13)
O23_4 O 0.46856(12) 0.19868(18) 0.76151(13)
O24_5 O 0.53144(12) 0.19868(18) 0.76151(13)
O25_5 O 0.53144(12) 0.26151(13) 0.80132(18)
O26_5 O 0.46856(12) 0.26151(13) 0.80132(18)
O27_4 O 0.30132(18) 0.03144(12) 0.73849(13)
O28_5 O 0.26151(13) 0.19868(18) 0.53144(12)
O29_5 O 0.73849(13) 0.03144(12) 0.80132(18)
O30_5 O 0.69868(18) 0.23849(13) 0.96856(12)
O31_5 O 0.73849(13) 0.30132(18) 0.96856(12)
O32_3 O 0.69868(18) 0.46856(12) 0.76151(13)
O33_5 O 0.26151(13) 0.46856(12) 0.69868(18)
O34_5 O 0.30132(18) 0.26151(13) 0.53144(12)
C15_5 C 0.54177(13) 0.17589(19) 0.75800(16)
C16_5 C 0.54177(13) 0.25800(16) 0.82411(19)
C17_5 C 0.45823(13) 0.32411(19) 0.74200(16)
C18_5 C 0.32411(19) 0.04177(13) 0.74200(16)
C19_5 C 0.25800(16) 0.17589(19) 0.54177(13)
C20_5 C 0.74200(16) 0.04177(13) 0.82411(19)
C21_5 C 0.67589(19) 0.24200(16) 0.95823(13)
C22_5 C 0.74200(16) 0.32411(19) 0.95823(13)
C23_5 C 0.67589(19) 0.45823(13) 0.75800(16)
C24_5 C 0.25800(16) 0.45823(13) 0.67589(19)
C25_5 C 0.32411(19) 0.25800(16) 0.54177(13)
C26_5 C 0.56464(13) 0.16627(18) 0.77562(12)
C27_5 C 0.56464(13) 0.27562(12) 0.83373(18)
C28_5 C 0.43536(13) 0.33373(18) 0.72438(12)
C29_5 C 0.33373(18) 0.06464(13) 0.72438(12)
C30_5 C 0.27562(12) 0.16627(18) 0.56464(13)
C31_5 C 0.72438(12) 0.06464(13) 0.83373(18)
C32_5 C 0.66627(18) 0.22438(12) 0.93536(13)
C33_5 C 0.72438(12) 0.33373(18) 0.93536(13)
C34_5 C 0.66627(18) 0.43536(13) 0.77562(12)
C35_5 C 0.27562(12) 0.43536(13) 0.66627(18)
C36_5 C 0.33373(18) 0.27562(12) 0.56464(13)
C37_5 C 0.57296(14) 0.18272(18) 0.79777(15)
C38_5 C 0.57296(14) 0.29777(15) 0.81728(18)
C39_5 C 0.42704(14) 0.31728(18) 0.70223(15)
C40_5 C 0.31728(18) 0.07296(14) 0.70223(15)
C41_5 C 0.29777(15) 0.18272(18) 0.57296(14)
C42_5 C 0.70223(15) 0.07296(14) 0.81728(18)
C43_5 C 0.68272(18) 0.20223(15) 0.92704(14)
C44_5 C 0.70223(15) 0.31728(18) 0.92704(14)
C45_5 C 0.68272(18) 0.42704(14) 0.79777(15)
C46_5 C 0.29777(15) 0.42704(14) 0.68272(18)
C47_5 C 0.31728(18) 0.29777(15) 0.57296(14)
H14_5 H 0.5638 0.1994 0.8017
H15_5 H 0.5638 0.3017 0.8006
H16_5 H 0.4362 0.3006 0.6983
H17_5 H 0.3006 0.0638 0.6983
H18_5 H 0.3017 0.1994 0.5638
H19_5 H 0.6983 0.0638 0.8006
H20_5 H 0.6994 0.1983 0.9362
H21_5 H 0.6983 0.3006 0.9362
H22_5 H 0.6994 0.4362 0.8017
H23_5 H 0.3017 0.4362 0.6994
H24_5 H 0.3006 0.3017 0.5638
C48_5 C 0.32593(15) 0.09491(13) 0.68614(13)
C49_5 C 0.31386(13) 0.17407(15) 0.59491(13)
C50_5 C 0.59491(13) 0.17407(15) 0.81386(13)
C51_5 C 0.59491(13) 0.31386(13) 0.82593(15)
C52_5 C 0.40509(13) 0.32593(15) 0.68614(13)
C53_5 C 0.68614(13) 0.09491(13) 0.82593(15)
C54_5 C 0.67407(15) 0.18614(13) 0.90509(13)
C55_5 C 0.68614(13) 0.32593(15) 0.90509(13)
C56_5 C 0.67407(15) 0.40509(13) 0.81386(13)
C57_5 C 0.31386(13) 0.40509(13) 0.67407(15)
C58_5 C 0.32593(15) 0.31386(13) 0.59491(13)
C59_5 C 0.34977(15) 0.10873(13) 0.69186(12)
C60_5 C 0.30814(12) 0.15023(15) 0.60873(13)
C61_5 C 0.60873(13) 0.15023(15) 0.80814(12)
C62_5 C 0.60873(13) 0.30814(12) 0.84977(15)
C63_5 C 0.39127(13) 0.34977(15) 0.69186(12)
C64_5 C 0.65023(15) 0.19186(12) 0.89127(13)
C65_5 C 0.65023(15) 0.39127(13) 0.80814(12)
C66_5 C 0.34977(15) 0.30814(12) 0.60873(13)
C67_5 C 0.69186(12) 0.10873(13) 0.84977(15)
C68_5 C 0.69186(12) 0.34977(15) 0.89127(13)
C69_5 C 0.30814(12) 0.39127(13) 0.65023(15)
C70_5 C 0.36529(16) 0.10066(14) 0.71448(14)
C71_5 C 0.28552(14) 0.13471(16) 0.60066(14)
C72_5 C 0.60066(14) 0.13471(16) 0.78552(14)
C73_5 C 0.60066(14) 0.28552(14) 0.86529(16)
C74_5 C 0.39934(14) 0.36529(16) 0.71448(14)
C75_5 C 0.63471(16) 0.21448(14) 0.89934(14)
C76_5 C 0.63471(16) 0.39934(14) 0.78552(14)
C77_5 C 0.36529(16) 0.28552(14) 0.60066(14)
C78_5 C 0.71448(14) 0.10066(14) 0.86529(16)
C79_5 C 0.71448(14) 0.36529(16) 0.89934(14)
C80_5 C 0.28552(14) 0.39934(14) 0.63471(16)
H25_5 H 0.3814 0.1105 0.7193
H26_5 H 0.2807 0.1186 0.6105
H27_5 H 0.6105 0.1186 0.7807
H28_5 H 0.6105 0.2807 0.8814
H29_5 H 0.3895 0.3814 0.7193
H30_5 H 0.6186 0.2193 0.8895
H31_5 H 0.6186 0.3895 0.7807
H32_5 H 0.3814 0.2807 0.6105
H33_5 H 0.7193 0.1105 0.8814
H34_5 H 0.7193 0.3814 0.8895
H35_5 H 0.2807 0.3895 0.6186
C81_5 C 0.57868(14) 0.14272(17) 0.77047(14)
C82_5 C 0.57868(14) 0.27047(14) 0.85728(17)
C83_5 C 0.42132(14) 0.35728(17) 0.72953(14)
C84_5 C 0.35728(17) 0.07868(14) 0.72953(14)
C85_5 C 0.27047(14) 0.14272(17) 0.57868(14)
C86_5 C 0.64272(17) 0.22953(14) 0.92132(14)
C87_5 C 0.64272(17) 0.42132(14) 0.77047(14)
C88_5 C 0.35728(17) 0.27047(14) 0.57868(14)
C89_5 C 0.72953(14) 0.07868(14) 0.85728(17)
C90_5 C 0.72953(14) 0.35728(17) 0.92132(14)
C91_5 C 0.27047(14) 0.42132(14) 0.64272(17)
H36_5 H 0.5729 0.1314 0.7557
H37_5 H 0.5729 0.2557 0.8686
H38_5 H 0.4271 0.3686 0.7443
H39_5 H 0.3686 0.0729 0.7443
H40_5 H 0.2557 0.1314 0.5729
H41_5 H 0.6314 0.2443 0.9271
H42_5 H 0.6314 0.4271 0.7557
H43_5 H 0.3686 0.2557 0.5729
H44_5 H 0.7443 0.0729 0.8686
H45_5 H 0.7443 0.3686 0.9271
H46_5 H 0.2557 0.4271 0.6314
C92_5 C 0.33921(16) 0.18796(18) 0.60536(16)
C93_5 C 0.31204(18) 0.10536(16) 0.66079(16)
C94_5 C 0.60536(16) 0.18796(18) 0.83921(16)
C95_5 C 0.60536(16) 0.33921(16) 0.81204(18)
C96_5 C 0.39464(16) 0.31204(18) 0.66079(16)
C97_5 C 0.66079(16) 0.10536(16) 0.81204(18)
C98_5 C 0.66079(16) 0.31204(18) 0.89464(16)
C99_5 C 0.33921(16) 0.39464(16) 0.68796(18)
C100_5 C 0.68796(18) 0.16079(16) 0.89464(16)
C101_5 C 0.68796(18) 0.39464(16) 0.83921(16)
C102_5 C 0.31204(18) 0.33921(16) 0.60536(16)
C103_5 C 0.34688(13) 0.16912(14) 0.62892(13)
C104_5 C 0.33088(14) 0.12892(13) 0.65312(13)
C105_5 C 0.62892(13) 0.16912(14) 0.84688(13)
C106_5 C 0.62892(13) 0.34688(13) 0.83088(14)
C107_5 C 0.37108(13) 0.33088(14) 0.65312(13)
C108_5 C 0.65312(13) 0.12892(13) 0.83088(14)
C109_5 C 0.65312(13) 0.33088(14) 0.87108(13)
C110_5 C 0.34688(13) 0.37108(13) 0.66912(14)
C111_5 C 0.66912(14) 0.15312(13) 0.87108(13)
C112_5 C 0.66912(14) 0.37108(13) 0.84688(13)
C113_5 C 0.33088(14) 0.34688(13) 0.62892(13)
C114_5 C 0.35222(13) 0.13148(13) 0.67156(13)
C115_5 C 0.32844(13) 0.14778(13) 0.63148(13)
C116_5 C 0.63148(13) 0.14778(13) 0.82844(13)
C117_5 C 0.63148(13) 0.32844(13) 0.85222(13)
C118_5 C 0.36852(13) 0.35222(13) 0.67156(13)
C119_5 C 0.64778(13) 0.17156(13) 0.86852(13)
C120_5 C 0.64778(13) 0.36852(13) 0.82844(13)
C121_5 C 0.35222(13) 0.32844(13) 0.63148(13)
C122_5 C 0.67156(13) 0.13148(13) 0.85222(13)
C123_5 C 0.67156(13) 0.35222(13) 0.86852(13)
C124_5 C 0.32844(13) 0.36852(13) 0.64778(13)
C125_5 C 0.3618(2) 0.1869(2) 0.5810(2)
C126_5 C 0.3131(2) 0.0810(2) 0.6382(2)
C127_5 C 0.5810(2) 0.1869(2) 0.8618(2)
C128_5 C 0.5810(2) 0.3618(2) 0.8131(2)
C129_5 C 0.4190(2) 0.3131(2) 0.6382(2)
C130_5 C 0.6382(2) 0.0810(2) 0.8131(2)
C131_5 C 0.6382(2) 0.3131(2) 0.9190(2)
C132_5 C 0.3618(2) 0.4190(2) 0.6869(2)
C133_5 C 0.6869(2) 0.1382(2) 0.9190(2)
C134_5 C 0.6869(2) 0.4190(2) 0.8618(2)
C135_5 C 0.3131(2) 0.3618(2) 0.5810(2)
H47_5 H 0.3547 0.1972 0.5651
H48_5 H 0.3028 0.0651 0.6453
H49_5 H 0.5651 0.1972 0.8547
H50_5 H 0.5651 0.3547 0.8028
H51_5 H 0.4349 0.3028 0.6453
H52_5 H 0.6453 0.0651 0.8028
H53_5 H 0.6453 0.3028 0.9349
H54_5 H 0.3547 0.4349 0.6972
H55_5 H 0.6972 0.1453 0.9349
H56_5 H 0.6972 0.4349 0.8547
H57_5 H 0.3028 0.3547 0.5651
H58_5 H 0.3786 0.1962 0.5874
H59_5 H 0.3038 0.0874 0.6214
H60_5 H 0.5874 0.1962 0.8786
H61_5 H 0.5874 0.3786 0.8038
H62_5 H 0.4126 0.3038 0.6214
H63_5 H 0.6214 0.0874 0.8038
H64_5 H 0.6214 0.3038 0.9126
H65_5 H 0.3786 0.4126 0.6962
H66_5 H 0.6962 0.1214 0.9126
H67_5 H 0.6962 0.4126 0.8786
H68_5 H 0.3038 0.3786 0.5874
C136_5 C 0.3696(3) 0.1572(3) 0.5714(3)
C137_5 C 0.3428(3) 0.0714(3) 0.6304(3)
C138_5 C 0.5714(3) 0.1572(3) 0.8696(3)
C139_5 C 0.5714(3) 0.3696(3) 0.8428(3)
C140_5 C 0.4286(3) 0.3428(3) 0.6304(3)
C141_5 C 0.6304(3) 0.0714(3) 0.8428(3)
C142_5 C 0.6304(3) 0.3428(3) 0.9286(3)
C143_5 C 0.3696(3) 0.4286(3) 0.6572(3)
C144_5 C 0.6572(3) 0.1304(3) 0.9286(3)
C145_5 C 0.6572(3) 0.4286(3) 0.8696(3)
C146_5 C 0.3428(3) 0.3696(3) 0.5714(3)
H69_5 H 0.3773 0.1470 0.5869
H70_5 H 0.3530 0.0869 0.6227
H71_5 H 0.5869 0.1470 0.8773
H72_5 H 0.5869 0.3773 0.8530
H73_5 H 0.4131 0.3530 0.6227
H74_5 H 0.6227 0.0869 0.8530
H75_5 H 0.6227 0.3530 0.9131
H76_5 H 0.3773 0.4131 0.6470
H77_5 H 0.6470 0.1227 0.9131
H78_5 H 0.6470 0.4131 0.8773
H79_5 H 0.3530 0.3773 0.5869
H80_5 H 0.3831 0.1583 0.5567
H81_5 H 0.3417 0.0567 0.6169
H82_5 H 0.5567 0.1583 0.8831
H83_5 H 0.5567 0.3831 0.8417
H84_5 H 0.4433 0.3417 0.6169
H85_5 H 0.6169 0.0567 0.8417
H86_5 H 0.6169 0.3417 0.9433
H87_5 H 0.3831 0.4433 0.6583
H88_5 H 0.6583 0.1169 0.9433
H89_5 H 0.6583 0.4433 0.8831
H90_5 H 0.3417 0.3831 0.5567
H91_5 H 0.3531 0.1479 0.5647
H92_5 H 0.3521 0.0647 0.6469
H93_5 H 0.5647 0.1479 0.8531
H94_5 H 0.5647 0.3531 0.8521
H95_5 H 0.4353 0.3521 0.6469
H96_5 H 0.6469 0.0647 0.8521
H97_5 H 0.6469 0.3521 0.9353
H98_5 H 0.3531 0.4353 0.6479
H99_5 H 0.6479 0.1469 0.9353
H100_5 H 0.6479 0.4353 0.8531
H101_5 H 0.3521 0.3531 0.5647
C147_5 C 0.3305(2) 0.21745(18) 0.6160(3)
C148_5 C 0.28255(18) 0.1160(3) 0.6695(2)
C149_5 C 0.6160(3) 0.21745(18) 0.8305(2)
C150_5 C 0.6160(3) 0.3305(2) 0.78255(18)
C151_5 C 0.3840(3) 0.28255(18) 0.6695(2)
C152_5 C 0.6695(2) 0.1160(3) 0.78255(18)
C153_5 C 0.6695(2) 0.28255(18) 0.8840(3)
C154_5 C 0.3305(2) 0.3840(3) 0.71745(18)
C155_5 C 0.71745(18) 0.1695(2) 0.8840(3)
C156_5 C 0.71745(18) 0.3840(3) 0.8305(2)
C157_5 C 0.28255(18) 0.3305(2) 0.6160(3)
H102_5 H 0.3469 0.2270 0.6230
H103_5 H 0.2730 0.1230 0.6531
H104_5 H 0.6230 0.2270 0.8469
H105_5 H 0.6230 0.3469 0.7730
H106_5 H 0.3770 0.2730 0.6531
H107_5 H 0.6531 0.1230 0.7730
H108_5 H 0.6531 0.2730 0.8770
H109_5 H 0.3469 0.3770 0.7270
H110_5 H 0.7270 0.1531 0.8770
H111_5 H 0.7270 0.3770 0.8469
H112_5 H 0.2730 0.3469 0.6230
H113_5 H 0.3234 0.2282 0.6003
H114_5 H 0.2718 0.1003 0.6766
H115_5 H 0.6003 0.2282 0.8234
H116_5 H 0.6003 0.3234 0.7718
H117_5 H 0.3997 0.2718 0.6766
H118_5 H 0.6766 0.1003 0.7718
H119_5 H 0.6766 0.2718 0.8997
H120_5 H 0.3234 0.3997 0.7282
H121_5 H 0.7282 0.1766 0.8997
H122_5 H 0.7282 0.3997 0.8234
H123_5 H 0.2718 0.3234 0.6003
C158_5 C 0.3100(3) 0.2170(2) 0.6371(3)
C159_5 C 0.2830(2) 0.1371(3) 0.6900(3)
C160_5 C 0.6371(3) 0.2170(2) 0.8100(3)
C161_5 C 0.6371(3) 0.3100(3) 0.7830(2)
C162_5 C 0.3629(3) 0.2830(2) 0.6900(3)
C163_5 C 0.6900(3) 0.1371(3) 0.7830(2)
C164_5 C 0.6900(3) 0.2830(2) 0.8629(3)
C165_5 C 0.3100(3) 0.3629(3) 0.7170(2)
C166_5 C 0.7170(2) 0.1900(3) 0.8629(3)
C167_5 C 0.7170(2) 0.3629(3) 0.8100(3)
C168_5 C 0.2830(2) 0.3100(3) 0.6371(3)
H124_5 H 0.2921 0.2132 0.6289
H125_5 H 0.2868 0.1289 0.7079
H126_5 H 0.6289 0.2132 0.7921
H127_5 H 0.6289 0.2921 0.7868
H128_5 H 0.3711 0.2868 0.7079
H129_5 H 0.7079 0.1289 0.7868
H130_5 H 0.7079 0.2868 0.8711
H131_5 H 0.2921 0.3711 0.7132
H132_5 H 0.7132 0.2079 0.8711
H133_5 H 0.7132 0.3711 0.7921
H134_5 H 0.2868 0.2921 0.6289
H135_5 H 0.3096 0.2348 0.6463
H136_5 H 0.2652 0.1463 0.6904
H137_5 H 0.6463 0.2348 0.8096
H138_5 H 0.6463 0.3096 0.7652
H139_5 H 0.3537 0.2652 0.6904
H140_5 H 0.6904 0.1463 0.7652
H141_5 H 0.6904 0.2652 0.8537
H142_5 H 0.3096 0.3537 0.7348
H143_5 H 0.7348 0.1904 0.8537
H144_5 H 0.7348 0.3537 0.8096
H145_5 H 0.2652 0.3096 0.6463
H146_5 H 0.3145 0.2027 0.6504
H147_5 H 0.2973 0.1504 0.6855
H148_5 H 0.6504 0.2027 0.8145
H149_5 H 0.6504 0.3145 0.7973
H150_5 H 0.3496 0.2973 0.6855
H151_5 H 0.6855 0.1504 0.7973
H152_5 H 0.6855 0.2973 0.8496
H153_5 H 0.3145 0.3496 0.7027
H154_5 H 0.7027 0.1855 0.8496
H155_5 H 0.7027 0.3496 0.8145
H156_5 H 0.2973 0.3145 0.6504
O35_8 O 0.5000 0.1661(5) 0.6828(5)
O36_8 O 0.5000 0.3339(5) 0.8172(5)
O37_8 O 0.5000 0.1828(5) 0.8339(5)
Pb5_5 Pb 0.30478(3) 1.0000 0.77865(3)
Pb6_5 Pb 0.27865(3) 1.0000 0.69522(3)
Pb9_5 Pb 0.77865(3) 1.0000 0.80478(3)
Pb10_6 Pb 0.69522(3) 1.0000 0.77865(3)
Pb6_6 Pb 0.72135(3) 0.0000 0.69522(3)
Pb13_6 Pb 0.22135(3) 0.69522(3) 0.0000
Pb1_7 Pb 0.5000 0.72135(3) 0.69522(3)
O1_6 O 0.53353(11) 0.73892(12) 0.66158(14)
O2_6 O 0.53144(12) 0.76151(13) 0.69868(18)
O3_9 O 0.5000 0.7500 0.7500
C1_6 C 0.54177(13) 0.75800(16) 0.67589(19)
C2_6 C 0.56464(13) 0.77562(12) 0.66627(18)
C3_6 C 0.57296(14) 0.79777(15) 0.68272(18)
H1_6 H 0.5638 0.8017 0.6994
C4_6 C 0.59491(13) 0.81386(13) 0.67407(15)
C5_6 C 0.60873(13) 0.80814(12) 0.65023(15)
C6_6 C 0.60066(14) 0.78552(14) 0.63471(16)
H2_6 H 0.6105 0.7807 0.6186
C7_6 C 0.57868(14) 0.77047(14) 0.64272(17)
H3_6 H 0.5729 0.7557 0.6314
C8_6 C 0.60536(16) 0.83921(16) 0.68796(18)
C9_6 C 0.62892(13) 0.84688(13) 0.66912(14)
C10_6 C 0.63148(13) 0.82844(13) 0.64778(13)
C11_6 C 0.5810(2) 0.8618(2) 0.6869(2)
H4_6 H 0.5651 0.8547 0.6972
H5_6 H 0.5874 0.8786 0.6962
C12_6 C 0.5714(3) 0.8696(3) 0.6572(3)
H6_6 H 0.5869 0.8773 0.6470
H7_6 H 0.5567 0.8831 0.6583
H8_6 H 0.5647 0.8531 0.6479
C13_6 C 0.6160(3) 0.8305(2) 0.71745(18)
H9_6 H 0.6230 0.8469 0.7270
H10_6 H 0.6003 0.8234 0.7282
C14_6 C 0.6371(3) 0.8100(3) 0.7170(2)
H11_6 H 0.6289 0.7921 0.7132
H12_6 H 0.6463 0.8096 0.7348
H13_6 H 0.6504 0.8145 0.7027
O4_9 O 0.5000 0.6828(5) 0.6661(5)
Pb2_6 Pb 0.5000 0.80478(3) 0.72135(3)
Pb3_9 Pb 0.5000 0.69522(3) 0.77865(3)
Pb4_8 Pb 0.5000 0.77865(3) 0.80478(3)
Pb6_7 Pb 0.72135(3) 1.0000 0.69522(3)
Pb7_8 Pb 0.77865(3) 0.80478(3) 0.5000
Pb8_8 Pb 0.69522(3) 0.77865(3) 0.5000
Pb13_7 Pb 0.22135(3) 0.69522(3) 1.0000
Pb16_8 Pb 0.77865(3) 0.5000 0.69522(3)
Pb18_8 Pb 0.72135(3) 0.69522(3) 0.5000
O5_5 O 0.46647(11) 0.73892(12) 0.66158(14)
O6_5 O 0.53353(11) 0.83842(14) 0.73892(12)
O7_6 O 0.46647(11) 0.83842(14) 0.73892(12)
O8_6 O 0.53353(11) 0.66158(14) 0.76108(12)
O9_6 O 0.46647(11) 0.66158(14) 0.76108(12)
O10_6 O 0.46647(11) 0.76108(12) 0.83842(14)
O11_6 O 0.53353(11) 0.76108(12) 0.83842(14)
O12_5 O 0.66158(14) 0.96647(11) 0.76108(12)
O13_6 O 0.76108(12) 0.83842(14) 0.53353(11)
O14_6 O 0.23892(12) 0.96647(11) 0.83842(14)
O15_6 O 0.33842(14) 0.73892(12) 0.96647(11)
O16_6 O 0.23892(12) 0.66158(14) 0.96647(11)
O17_4 O 0.33842(14) 0.53353(11) 0.73892(12)
O18_6 O 0.76108(12) 0.53353(11) 0.66158(14)
O19_6 O 0.66158(14) 0.76108(12) 0.53353(11)
O20_6 O 0.53144(12) 0.69868(18) 0.73849(13)
O21_5 O 0.46856(12) 0.76151(13) 0.69868(18)
O22_6 O 0.46856(12) 0.69868(18) 0.73849(13)
O23_5 O 0.53144(12) 0.80132(18) 0.76151(13)
O24_6 O 0.46856(12) 0.80132(18) 0.76151(13)
O25_6 O 0.46856(12) 0.73849(13) 0.80132(18)
O26_6 O 0.53144(12) 0.73849(13) 0.80132(18)
O27_5 O 0.69868(18) 0.96856(12) 0.73849(13)
O28_6 O 0.73849(13) 0.80132(18) 0.53144(12)
O29_6 O 0.26151(13) 0.96856(12) 0.80132(18)
O30_6 O 0.30132(18) 0.76151(13) 0.96856(12)
O31_6 O 0.26151(13) 0.69868(18) 0.96856(12)
O32_4 O 0.30132(18) 0.53144(12) 0.76151(13)
O33_6 O 0.73849(13) 0.53144(12) 0.69868(18)
O34_6 O 0.69868(18) 0.73849(13) 0.53144(12)
C15_6 C 0.45823(13) 0.82411(19) 0.75800(16)
C16_6 C 0.45823(13) 0.74200(16) 0.82411(19)
C17_6 C 0.54177(13) 0.67589(19) 0.74200(16)
C18_6 C 0.67589(19) 0.95823(13) 0.74200(16)
C19_6 C 0.74200(16) 0.82411(19) 0.54177(13)
C20_6 C 0.25800(16) 0.95823(13) 0.82411(19)
C21_6 C 0.32411(19) 0.75800(16) 0.95823(13)
C22_6 C 0.25800(16) 0.67589(19) 0.95823(13)
C23_6 C 0.32411(19) 0.54177(13) 0.75800(16)
C24_6 C 0.74200(16) 0.54177(13) 0.67589(19)
C25_6 C 0.67589(19) 0.74200(16) 0.54177(13)
C26_6 C 0.43536(13) 0.83373(18) 0.77562(12)
C27_6 C 0.43536(13) 0.72438(12) 0.83373(18)
C28_6 C 0.56464(13) 0.66627(18) 0.72438(12)
C29_6 C 0.66627(18) 0.93536(13) 0.72438(12)
C30_6 C 0.72438(12) 0.83373(18) 0.56464(13)
C31_6 C 0.27562(12) 0.93536(13) 0.83373(18)
C32_6 C 0.33373(18) 0.77562(12) 0.93536(13)
C33_6 C 0.27562(12) 0.66627(18) 0.93536(13)
C34_6 C 0.33373(18) 0.56464(13) 0.77562(12)
C35_6 C 0.72438(12) 0.56464(13) 0.66627(18)
C36_6 C 0.66627(18) 0.72438(12) 0.56464(13)
C37_6 C 0.42704(14) 0.81728(18) 0.79777(15)
C38_6 C 0.42704(14) 0.70223(15) 0.81728(18)
C39_6 C 0.57296(14) 0.68272(18) 0.70223(15)
C40_6 C 0.68272(18) 0.92704(14) 0.70223(15)
C41_6 C 0.70223(15) 0.81728(18) 0.57296(14)
C42_6 C 0.29777(15) 0.92704(14) 0.81728(18)
C43_6 C 0.31728(18) 0.79777(15) 0.92704(14)
C44_6 C 0.29777(15) 0.68272(18) 0.92704(14)
C45_6 C 0.31728(18) 0.57296(14) 0.79777(15)
C46_6 C 0.70223(15) 0.57296(14) 0.68272(18)
C47_6 C 0.68272(18) 0.70223(15) 0.57296(14)
H14_6 H 0.4362 0.8006 0.8017
H15_6 H 0.4362 0.6983 0.8006
H16_6 H 0.5638 0.6994 0.6983
H17_6 H 0.6994 0.9362 0.6983
H18_6 H 0.6983 0.8006 0.5638
H19_6 H 0.3017 0.9362 0.8006
H20_6 H 0.3006 0.8017 0.9362
H21_6 H 0.3017 0.6994 0.9362
H22_6 H 0.3006 0.5638 0.8017
H23_6 H 0.6983 0.5638 0.6994
H24_6 H 0.6994 0.6983 0.5638
C48_6 C 0.67407(15) 0.90509(13) 0.68614(13)
C49_6 C 0.68614(13) 0.82593(15) 0.59491(13)
C50_6 C 0.40509(13) 0.82593(15) 0.81386(13)
C51_6 C 0.40509(13) 0.68614(13) 0.82593(15)
C52_6 C 0.59491(13) 0.67407(15) 0.68614(13)
C53_6 C 0.31386(13) 0.90509(13) 0.82593(15)
C54_6 C 0.32593(15) 0.81386(13) 0.90509(13)
C55_6 C 0.31386(13) 0.67407(15) 0.90509(13)
C56_6 C 0.32593(15) 0.59491(13) 0.81386(13)
C57_6 C 0.68614(13) 0.59491(13) 0.67407(15)
C58_6 C 0.67407(15) 0.68614(13) 0.59491(13)
C59_6 C 0.65023(15) 0.89127(13) 0.69186(12)
C60_6 C 0.69186(12) 0.84977(15) 0.60873(13)
C61_6 C 0.39127(13) 0.84977(15) 0.80814(12)
C62_6 C 0.39127(13) 0.69186(12) 0.84977(15)
C63_6 C 0.60873(13) 0.65023(15) 0.69186(12)
C64_6 C 0.34977(15) 0.80814(12) 0.89127(13)
C65_6 C 0.34977(15) 0.60873(13) 0.80814(12)
C66_6 C 0.65023(15) 0.69186(12) 0.60873(13)
C67_6 C 0.30814(12) 0.89127(13) 0.84977(15)
C68_6 C 0.30814(12) 0.65023(15) 0.89127(13)
C69_6 C 0.69186(12) 0.60873(13) 0.65023(15)
C70_6 C 0.63471(16) 0.89934(14) 0.71448(14)
C71_6 C 0.71448(14) 0.86529(16) 0.60066(14)
C72_6 C 0.39934(14) 0.86529(16) 0.78552(14)
C73_6 C 0.39934(14) 0.71448(14) 0.86529(16)
C74_6 C 0.60066(14) 0.63471(16) 0.71448(14)
C75_6 C 0.36529(16) 0.78552(14) 0.89934(14)
C76_6 C 0.36529(16) 0.60066(14) 0.78552(14)
C77_6 C 0.63471(16) 0.71448(14) 0.60066(14)
C78_6 C 0.28552(14) 0.89934(14) 0.86529(16)
C79_6 C 0.28552(14) 0.63471(16) 0.89934(14)
C80_6 C 0.71448(14) 0.60066(14) 0.63471(16)
H25_6 H 0.6186 0.8895 0.7193
H26_6 H 0.7193 0.8814 0.6105
H27_6 H 0.3895 0.8814 0.7807
H28_6 H 0.3895 0.7193 0.8814
H29_6 H 0.6105 0.6186 0.7193
H30_6 H 0.3814 0.7807 0.8895
H31_6 H 0.3814 0.6105 0.7807
H32_6 H 0.6186 0.7193 0.6105
H33_6 H 0.2807 0.8895 0.8814
H34_6 H 0.2807 0.6186 0.8895
H35_6 H 0.7193 0.6105 0.6186
C81_6 C 0.42132(14) 0.85728(17) 0.77047(14)
C82_6 C 0.42132(14) 0.72953(14) 0.85728(17)
C83_6 C 0.57868(14) 0.64272(17) 0.72953(14)
C84_6 C 0.64272(17) 0.92132(14) 0.72953(14)
C85_6 C 0.72953(14) 0.85728(17) 0.57868(14)
C86_6 C 0.35728(17) 0.77047(14) 0.92132(14)
C87_6 C 0.35728(17) 0.57868(14) 0.77047(14)
C88_6 C 0.64272(17) 0.72953(14) 0.57868(14)
C89_6 C 0.27047(14) 0.92132(14) 0.85728(17)
C90_6 C 0.27047(14) 0.64272(17) 0.92132(14)
C91_6 C 0.72953(14) 0.57868(14) 0.64272(17)
H36_6 H 0.4271 0.8686 0.7557
H37_6 H 0.4271 0.7443 0.8686
H38_6 H 0.5729 0.6314 0.7443
H39_6 H 0.6314 0.9271 0.7443
H40_6 H 0.7443 0.8686 0.5729
H41_6 H 0.3686 0.7557 0.9271
H42_6 H 0.3686 0.5729 0.7557
H43_6 H 0.6314 0.7443 0.5729
H44_6 H 0.2557 0.9271 0.8686
H45_6 H 0.2557 0.6314 0.9271
H46_6 H 0.7443 0.5729 0.6314
C92_6 C 0.66079(16) 0.81204(18) 0.60536(16)
C93_6 C 0.68796(18) 0.89464(16) 0.66079(16)
C94_6 C 0.39464(16) 0.81204(18) 0.83921(16)
C95_6 C 0.39464(16) 0.66079(16) 0.81204(18)
C96_6 C 0.60536(16) 0.68796(18) 0.66079(16)
C97_6 C 0.33921(16) 0.89464(16) 0.81204(18)
C98_6 C 0.33921(16) 0.68796(18) 0.89464(16)
C99_6 C 0.66079(16) 0.60536(16) 0.68796(18)
C100_6 C 0.31204(18) 0.83921(16) 0.89464(16)
C101_6 C 0.31204(18) 0.60536(16) 0.83921(16)
C102_6 C 0.68796(18) 0.66079(16) 0.60536(16)
C103_6 C 0.65312(13) 0.83088(14) 0.62892(13)
C104_6 C 0.66912(14) 0.87108(13) 0.65312(13)
C105_6 C 0.37108(13) 0.83088(14) 0.84688(13)
C106_6 C 0.37108(13) 0.65312(13) 0.83088(14)
C107_6 C 0.62892(13) 0.66912(14) 0.65312(13)
C108_6 C 0.34688(13) 0.87108(13) 0.83088(14)
C109_6 C 0.34688(13) 0.66912(14) 0.87108(13)
C110_6 C 0.65312(13) 0.62892(13) 0.66912(14)
C111_6 C 0.33088(14) 0.84688(13) 0.87108(13)
C112_6 C 0.33088(14) 0.62892(13) 0.84688(13)
C113_6 C 0.66912(14) 0.65312(13) 0.62892(13)
C114_6 C 0.64778(13) 0.86852(13) 0.67156(13)
C115_6 C 0.67156(13) 0.85222(13) 0.63148(13)
C116_6 C 0.36852(13) 0.85222(13) 0.82844(13)
C117_6 C 0.36852(13) 0.67156(13) 0.85222(13)
C118_6 C 0.63148(13) 0.64778(13) 0.67156(13)
C119_6 C 0.35222(13) 0.82844(13) 0.86852(13)
C120_6 C 0.35222(13) 0.63148(13) 0.82844(13)
C121_6 C 0.64778(13) 0.67156(13) 0.63148(13)
C122_6 C 0.32844(13) 0.86852(13) 0.85222(13)
C123_6 C 0.32844(13) 0.64778(13) 0.86852(13)
C124_6 C 0.67156(13) 0.63148(13) 0.64778(13)
C125_6 C 0.6382(2) 0.8131(2) 0.5810(2)
C126_6 C 0.6869(2) 0.9190(2) 0.6382(2)
C127_6 C 0.4190(2) 0.8131(2) 0.8618(2)
C128_6 C 0.4190(2) 0.6382(2) 0.8131(2)
C129_6 C 0.5810(2) 0.6869(2) 0.6382(2)
C130_6 C 0.3618(2) 0.9190(2) 0.8131(2)
C131_6 C 0.3618(2) 0.6869(2) 0.9190(2)
C132_6 C 0.6382(2) 0.5810(2) 0.6869(2)
C133_6 C 0.3131(2) 0.8618(2) 0.9190(2)
C134_6 C 0.3131(2) 0.5810(2) 0.8618(2)
C135_6 C 0.6869(2) 0.6382(2) 0.5810(2)
H47_6 H 0.6453 0.8028 0.5651
H48_6 H 0.6972 0.9349 0.6453
H49_6 H 0.4349 0.8028 0.8547
H50_6 H 0.4349 0.6453 0.8028
H51_6 H 0.5651 0.6972 0.6453
H52_6 H 0.3547 0.9349 0.8028
H53_6 H 0.3547 0.6972 0.9349
H54_6 H 0.6453 0.5651 0.6972
H55_6 H 0.3028 0.8547 0.9349
H56_6 H 0.3028 0.5651 0.8547
H57_6 H 0.6972 0.6453 0.5651
H58_6 H 0.6214 0.8038 0.5874
H59_6 H 0.6962 0.9126 0.6214
H60_6 H 0.4126 0.8038 0.8786
H61_6 H 0.4126 0.6214 0.8038
H62_6 H 0.5874 0.6962 0.6214
H63_6 H 0.3786 0.9126 0.8038
H64_6 H 0.3786 0.6962 0.9126
H65_6 H 0.6214 0.5874 0.6962
H66_6 H 0.3038 0.8786 0.9126
H67_6 H 0.3038 0.5874 0.8786
H68_6 H 0.6962 0.6214 0.5874
C136_6 C 0.6304(3) 0.8428(3) 0.5714(3)
C137_6 C 0.6572(3) 0.9286(3) 0.6304(3)
C138_6 C 0.4286(3) 0.8428(3) 0.8696(3)
C139_6 C 0.4286(3) 0.6304(3) 0.8428(3)
C140_6 C 0.5714(3) 0.6572(3) 0.6304(3)
C141_6 C 0.3696(3) 0.9286(3) 0.8428(3)
C142_6 C 0.3696(3) 0.6572(3) 0.9286(3)
C143_6 C 0.6304(3) 0.5714(3) 0.6572(3)
C144_6 C 0.3428(3) 0.8696(3) 0.9286(3)
C145_6 C 0.3428(3) 0.5714(3) 0.8696(3)
C146_6 C 0.6572(3) 0.6304(3) 0.5714(3)
H69_6 H 0.6227 0.8530 0.5869
H70_6 H 0.6470 0.9131 0.6227
H71_6 H 0.4131 0.8530 0.8773
H72_6 H 0.4131 0.6227 0.8530
H73_6 H 0.5869 0.6470 0.6227
H74_6 H 0.3773 0.9131 0.8530
H75_6 H 0.3773 0.6470 0.9131
H76_6 H 0.6227 0.5869 0.6470
H77_6 H 0.3530 0.8773 0.9131
H78_6 H 0.3530 0.5869 0.8773
H79_6 H 0.6470 0.6227 0.5869
H80_6 H 0.6169 0.8417 0.5567
H81_6 H 0.6583 0.9433 0.6169
H82_6 H 0.4433 0.8417 0.8831
H83_6 H 0.4433 0.6169 0.8417
H84_6 H 0.5567 0.6583 0.6169
H85_6 H 0.3831 0.9433 0.8417
H86_6 H 0.3831 0.6583 0.9433
H87_6 H 0.6169 0.5567 0.6583
H88_6 H 0.3417 0.8831 0.9433
H89_6 H 0.3417 0.5567 0.8831
H90_6 H 0.6583 0.6169 0.5567
H91_6 H 0.6469 0.8521 0.5647
H92_6 H 0.6479 0.9353 0.6469
H93_6 H 0.4353 0.8521 0.8531
H94_6 H 0.4353 0.6469 0.8521
H95_6 H 0.5647 0.6479 0.6469
H96_6 H 0.3531 0.9353 0.8521
H97_6 H 0.3531 0.6479 0.9353
H98_6 H 0.6469 0.5647 0.6479
H99_6 H 0.3521 0.8531 0.9353
H100_6 H 0.3521 0.5647 0.8531
H101_6 H 0.6479 0.6469 0.5647
C147_6 C 0.6695(2) 0.78255(18) 0.6160(3)
C148_6 C 0.71745(18) 0.8840(3) 0.6695(2)
C149_6 C 0.3840(3) 0.78255(18) 0.8305(2)
C150_6 C 0.3840(3) 0.6695(2) 0.78255(18)
C151_6 C 0.6160(3) 0.71745(18) 0.6695(2)
C152_6 C 0.3305(2) 0.8840(3) 0.78255(18)
C153_6 C 0.3305(2) 0.71745(18) 0.8840(3)
C154_6 C 0.6695(2) 0.6160(3) 0.71745(18)
C155_6 C 0.28255(18) 0.8305(2) 0.8840(3)
C156_6 C 0.28255(18) 0.6160(3) 0.8305(2)
C157_6 C 0.71745(18) 0.6695(2) 0.6160(3)
H102_6 H 0.6531 0.7730 0.6230
H103_6 H 0.7270 0.8770 0.6531
H104_6 H 0.3770 0.7730 0.8469
H105_6 H 0.3770 0.6531 0.7730
H106_6 H 0.6230 0.7270 0.6531
H107_6 H 0.3469 0.8770 0.7730
H108_6 H 0.3469 0.7270 0.8770
H109_6 H 0.6531 0.6230 0.7270
H110_6 H 0.2730 0.8469 0.8770
H111_6 H 0.2730 0.6230 0.8469
H112_6 H 0.7270 0.6531 0.6230
H113_6 H 0.6766 0.7718 0.6003
H114_6 H 0.7282 0.8997 0.6766
H115_6 H 0.3997 0.7718 0.8234
H116_6 H 0.3997 0.6766 0.7718
H117_6 H 0.6003 0.7282 0.6766
H118_6 H 0.3234 0.8997 0.7718
H119_6 H 0.3234 0.7282 0.8997
H120_6 H 0.6766 0.6003 0.7282
H121_6 H 0.2718 0.8234 0.8997
H122_6 H 0.2718 0.6003 0.8234
H123_6 H 0.7282 0.6766 0.6003
C158_6 C 0.6900(3) 0.7830(2) 0.6371(3)
C159_6 C 0.7170(2) 0.8629(3) 0.6900(3)
C160_6 C 0.3629(3) 0.7830(2) 0.8100(3)
C161_6 C 0.3629(3) 0.6900(3) 0.7830(2)
C162_6 C 0.6371(3) 0.7170(2) 0.6900(3)
C163_6 C 0.3100(3) 0.8629(3) 0.7830(2)
C164_6 C 0.3100(3) 0.7170(2) 0.8629(3)
C165_6 C 0.6900(3) 0.6371(3) 0.7170(2)
C166_6 C 0.2830(2) 0.8100(3) 0.8629(3)
C167_6 C 0.2830(2) 0.6371(3) 0.8100(3)
C168_6 C 0.7170(2) 0.6900(3) 0.6371(3)
H124_6 H 0.7079 0.7868 0.6289
H125_6 H 0.7132 0.8711 0.7079
H126_6 H 0.3711 0.7868 0.7921
H127_6 H 0.3711 0.7079 0.7868
H128_6 H 0.6289 0.7132 0.7079
H129_6 H 0.2921 0.8711 0.7868
H130_6 H 0.2921 0.7132 0.8711
H131_6 H 0.7079 0.6289 0.7132
H132_6 H 0.2868 0.7921 0.8711
H133_6 H 0.2868 0.6289 0.7921
H134_6 H 0.7132 0.7079 0.6289
H135_6 H 0.6904 0.7652 0.6463
H136_6 H 0.7348 0.8537 0.6904
H137_6 H 0.3537 0.7652 0.8096
H138_6 H 0.3537 0.6904 0.7652
H139_6 H 0.6463 0.7348 0.6904
H140_6 H 0.3096 0.8537 0.7652
H141_6 H 0.3096 0.7348 0.8537
H142_6 H 0.6904 0.6463 0.7348
H143_6 H 0.2652 0.8096 0.8537
H144_6 H 0.2652 0.6463 0.8096
H145_6 H 0.7348 0.6904 0.6463
H146_6 H 0.6855 0.7973 0.6504
H147_6 H 0.7027 0.8496 0.6855
H148_6 H 0.3496 0.7973 0.8145
H149_6 H 0.3496 0.6855 0.7973
H150_6 H 0.6504 0.7027 0.6855
H151_6 H 0.3145 0.8496 0.7973
H152_6 H 0.3145 0.7027 0.8496
H153_6 H 0.6855 0.6504 0.7027
H154_6 H 0.2973 0.8145 0.8496
H155_6 H 0.2973 0.6504 0.8145
H156_6 H 0.7027 0.6855 0.6504
O35_9 O 0.5000 0.8339(5) 0.6828(5)
O36_9 O 0.5000 0.6661(5) 0.8172(5)
O37_9 O 0.5000 0.8172(5) 0.8339(5)
Pb5_6 Pb 0.0000 0.77865(3) 0.69522(3)
Pb6_8 Pb 0.0000 0.69522(3) 0.72135(3)
Pb10_7 Pb 0.0000 0.77865(3) 0.30478(3)
O1_7 O 0.73892(12) 0.66158(14) 0.53353(11)
O2_7 O 0.76151(13) 0.69868(18) 0.53144(12)
O3_10 O 0.7500 0.7500 0.5000
C1_7 C 0.75800(16) 0.67589(19) 0.54177(13)
C2_7 C 0.77562(12) 0.66627(18) 0.56464(13)
C3_7 C 0.79777(15) 0.68272(18) 0.57296(14)
H1_7 H 0.8017 0.6994 0.5638
C4_7 C 0.81386(13) 0.67407(15) 0.59491(13)
C5_7 C 0.80814(12) 0.65023(15) 0.60873(13)
C6_7 C 0.78552(14) 0.63471(16) 0.60066(14)
H2_7 H 0.7807 0.6186 0.6105
C7_7 C 0.77047(14) 0.64272(17) 0.57868(14)
H3_7 H 0.7557 0.6314 0.5729
C8_7 C 0.83921(16) 0.68796(18) 0.60536(16)
C9_7 C 0.84688(13) 0.66912(14) 0.62892(13)
C10_7 C 0.82844(13) 0.64778(13) 0.63148(13)
C11_7 C 0.8618(2) 0.6869(2) 0.5810(2)
H4_7 H 0.8547 0.6972 0.5651
H5_7 H 0.8786 0.6962 0.5874
C12_7 C 0.8696(3) 0.6572(3) 0.5714(3)
H6_7 H 0.8773 0.6470 0.5869
H7_7 H 0.8831 0.6583 0.5567
H8_7 H 0.8531 0.6479 0.5647
C13_7 C 0.8305(2) 0.71745(18) 0.6160(3)
H9_7 H 0.8469 0.7270 0.6230
H10_7 H 0.8234 0.7282 0.6003
C14_7 C 0.8100(3) 0.7170(2) 0.6371(3)
H11_7 H 0.7921 0.7132 0.6289
H12_7 H 0.8096 0.7348 0.6463
H13_7 H 0.8145 0.7027 0.6504
O4_10 O 0.6828(5) 0.6661(5) 0.5000
Pb2_7 Pb 0.80478(3) 0.72135(3) 0.5000
Pb5_7 Pb 1.0000 0.77865(3) 0.69522(3)
Pb6_9 Pb 1.0000 0.69522(3) 0.72135(3)
Pb7_9 Pb 0.80478(3) 0.5000 0.77865(3)
Pb10_8 Pb 1.0000 0.77865(3) 0.30478(3)
O5_6 O 0.73892(12) 0.66158(14) 0.46647(11)
O6_6 O 0.83842(14) 0.73892(12) 0.53353(11)
O7_7 O 0.83842(14) 0.73892(12) 0.46647(11)
O9_7 O 0.66158(14) 0.76108(12) 0.46647(11)
O10_7 O 0.76108(12) 0.83842(14) 0.46647(11)
O12_6 O 0.96647(11) 0.76108(12) 0.66158(14)
O13_7 O 0.83842(14) 0.53353(11) 0.76108(12)
O14_7 O 0.96647(11) 0.83842(14) 0.23892(12)
O15_7 O 0.73892(12) 0.96647(11) 0.33842(14)
O16_7 O 0.66158(14) 0.96647(11) 0.23892(12)
O21_6 O 0.76151(13) 0.69868(18) 0.46856(12)
O22_7 O 0.69868(18) 0.73849(13) 0.46856(12)
O23_6 O 0.80132(18) 0.76151(13) 0.53144(12)
O24_7 O 0.80132(18) 0.76151(13) 0.46856(12)
O25_7 O 0.73849(13) 0.80132(18) 0.46856(12)
O27_6 O 0.96856(12) 0.73849(13) 0.69868(18)
O28_7 O 0.80132(18) 0.53144(12) 0.73849(13)
O29_7 O 0.96856(12) 0.80132(18) 0.26151(13)
O30_7 O 0.76151(13) 0.96856(12) 0.30132(18)
O31_7 O 0.69868(18) 0.96856(12) 0.26151(13)
C15_7 C 0.82411(19) 0.75800(16) 0.45823(13)
C16_7 C 0.74200(16) 0.82411(19) 0.45823(13)
C18_7 C 0.95823(13) 0.74200(16) 0.67589(19)
C19_7 C 0.82411(19) 0.54177(13) 0.74200(16)
C20_7 C 0.95823(13) 0.82411(19) 0.25800(16)
C21_7 C 0.75800(16) 0.95823(13) 0.32411(19)
C22_7 C 0.67589(19) 0.95823(13) 0.25800(16)
C23_7 C 0.54177(13) 0.75800(16) 0.32411(19)
C26_7 C 0.83373(18) 0.77562(12) 0.43536(13)
C27_7 C 0.72438(12) 0.83373(18) 0.43536(13)
C29_7 C 0.93536(13) 0.72438(12) 0.66627(18)
C30_7 C 0.83373(18) 0.56464(13) 0.72438(12)
C31_7 C 0.93536(13) 0.83373(18) 0.27562(12)
C32_7 C 0.77562(12) 0.93536(13) 0.33373(18)
C33_7 C 0.66627(18) 0.93536(13) 0.27562(12)
C34_7 C 0.56464(13) 0.77562(12) 0.33373(18)
C37_7 C 0.81728(18) 0.79777(15) 0.42704(14)
C38_7 C 0.70223(15) 0.81728(18) 0.42704(14)
C40_7 C 0.92704(14) 0.70223(15) 0.68272(18)
C41_7 C 0.81728(18) 0.57296(14) 0.70223(15)
C42_7 C 0.92704(14) 0.81728(18) 0.29777(15)
C43_7 C 0.79777(15) 0.92704(14) 0.31728(18)
C44_7 C 0.68272(18) 0.92704(14) 0.29777(15)
C45_7 C 0.57296(14) 0.79777(15) 0.31728(18)
H14_7 H 0.8006 0.8017 0.4362
H15_7 H 0.6983 0.8006 0.4362
H17_7 H 0.9362 0.6983 0.6994
H18_7 H 0.8006 0.5638 0.6983
H19_7 H 0.9362 0.8006 0.3017
H20_7 H 0.8017 0.9362 0.3006
H21_7 H 0.6994 0.9362 0.3017
H22_7 H 0.5638 0.8017 0.3006
C48_7 C 0.90509(13) 0.68614(13) 0.67407(15)
C49_7 C 0.82593(15) 0.59491(13) 0.68614(13)
C50_7 C 0.82593(15) 0.81386(13) 0.40509(13)
C51_7 C 0.68614(13) 0.82593(15) 0.40509(13)
C53_7 C 0.90509(13) 0.82593(15) 0.31386(13)
C54_7 C 0.81386(13) 0.90509(13) 0.32593(15)
C55_7 C 0.67407(15) 0.90509(13) 0.31386(13)
C56_7 C 0.59491(13) 0.81386(13) 0.32593(15)
C59_7 C 0.89127(13) 0.69186(12) 0.65023(15)
C60_7 C 0.84977(15) 0.60873(13) 0.69186(12)
C61_7 C 0.84977(15) 0.80814(12) 0.39127(13)
C62_7 C 0.69186(12) 0.84977(15) 0.39127(13)
C64_7 C 0.80814(12) 0.89127(13) 0.34977(15)
C65_7 C 0.60873(13) 0.80814(12) 0.34977(15)
C67_7 C 0.89127(13) 0.84977(15) 0.30814(12)
C68_7 C 0.65023(15) 0.89127(13) 0.30814(12)
C70_7 C 0.89934(14) 0.71448(14) 0.63471(16)
C71_7 C 0.86529(16) 0.60066(14) 0.71448(14)
C72_7 C 0.86529(16) 0.78552(14) 0.39934(14)
C73_7 C 0.71448(14) 0.86529(16) 0.39934(14)
C75_7 C 0.78552(14) 0.89934(14) 0.36529(16)
C76_7 C 0.60066(14) 0.78552(14) 0.36529(16)
C78_7 C 0.89934(14) 0.86529(16) 0.28552(14)
C79_7 C 0.63471(16) 0.89934(14) 0.28552(14)
H25_7 H 0.8895 0.7193 0.6186
H26_7 H 0.8814 0.6105 0.7193
H27_7 H 0.8814 0.7807 0.3895
H28_7 H 0.7193 0.8814 0.3895
H30_7 H 0.7807 0.8895 0.3814
H31_7 H 0.6105 0.7807 0.3814
H33_7 H 0.8895 0.8814 0.2807
H34_7 H 0.6186 0.8895 0.2807
C81_7 C 0.85728(17) 0.77047(14) 0.42132(14)
C82_7 C 0.72953(14) 0.85728(17) 0.42132(14)
C84_7 C 0.92132(14) 0.72953(14) 0.64272(17)
C85_7 C 0.85728(17) 0.57868(14) 0.72953(14)
C86_7 C 0.77047(14) 0.92132(14) 0.35728(17)
C87_7 C 0.57868(14) 0.77047(14) 0.35728(17)
C89_7 C 0.92132(14) 0.85728(17) 0.27047(14)
C90_7 C 0.64272(17) 0.92132(14) 0.27047(14)
H36_7 H 0.8686 0.7557 0.4271
H37_7 H 0.7443 0.8686 0.4271
H39_7 H 0.9271 0.7443 0.6314
H40_7 H 0.8686 0.5729 0.7443
H41_7 H 0.7557 0.9271 0.3686
H42_7 H 0.5729 0.7557 0.3686
H44_7 H 0.9271 0.8686 0.2557
H45_7 H 0.6314 0.9271 0.2557
C92_7 C 0.81204(18) 0.60536(16) 0.66079(16)
C93_7 C 0.89464(16) 0.66079(16) 0.68796(18)
C94_7 C 0.81204(18) 0.83921(16) 0.39464(16)
C95_7 C 0.66079(16) 0.81204(18) 0.39464(16)
C97_7 C 0.89464(16) 0.81204(18) 0.33921(16)
C98_7 C 0.68796(18) 0.89464(16) 0.33921(16)
C100_7 C 0.83921(16) 0.89464(16) 0.31204(18)
C101_7 C 0.60536(16) 0.83921(16) 0.31204(18)
C103_7 C 0.83088(14) 0.62892(13) 0.65312(13)
C104_7 C 0.87108(13) 0.65312(13) 0.66912(14)
C105_7 C 0.83088(14) 0.84688(13) 0.37108(13)
C106_7 C 0.65312(13) 0.83088(14) 0.37108(13)
C108_7 C 0.87108(13) 0.83088(14) 0.34688(13)
C109_7 C 0.66912(14) 0.87108(13) 0.34688(13)
C111_7 C 0.84688(13) 0.87108(13) 0.33088(14)
C112_7 C 0.62892(13) 0.84688(13) 0.33088(14)
C114_7 C 0.86852(13) 0.67156(13) 0.64778(13)
C115_7 C 0.85222(13) 0.63148(13) 0.67156(13)
C116_7 C 0.85222(13) 0.82844(13) 0.36852(13)
C117_7 C 0.67156(13) 0.85222(13) 0.36852(13)
C119_7 C 0.82844(13) 0.86852(13) 0.35222(13)
C120_7 C 0.63148(13) 0.82844(13) 0.35222(13)
C122_7 C 0.86852(13) 0.85222(13) 0.32844(13)
C123_7 C 0.64778(13) 0.86852(13) 0.32844(13)
C125_7 C 0.8131(2) 0.5810(2) 0.6382(2)
C126_7 C 0.9190(2) 0.6382(2) 0.6869(2)
C127_7 C 0.8131(2) 0.8618(2) 0.4190(2)
C128_7 C 0.6382(2) 0.8131(2) 0.4190(2)
C130_7 C 0.9190(2) 0.8131(2) 0.3618(2)
C131_7 C 0.6869(2) 0.9190(2) 0.3618(2)
C133_7 C 0.8618(2) 0.9190(2) 0.3131(2)
C134_7 C 0.5810(2) 0.8618(2) 0.3131(2)
H47_7 H 0.8028 0.5651 0.6453
H48_7 H 0.9349 0.6453 0.6972
H49_7 H 0.8028 0.8547 0.4349
H50_7 H 0.6453 0.8028 0.4349
H52_7 H 0.9349 0.8028 0.3547
H53_7 H 0.6972 0.9349 0.3547
H55_7 H 0.8547 0.9349 0.3028
H56_7 H 0.5651 0.8547 0.3028
H58_7 H 0.8038 0.5874 0.6214
H59_7 H 0.9126 0.6214 0.6962
H60_7 H 0.8038 0.8786 0.4126
H61_7 H 0.6214 0.8038 0.4126
H63_7 H 0.9126 0.8038 0.3786
H64_7 H 0.6962 0.9126 0.3786
H66_7 H 0.8786 0.9126 0.3038
H67_7 H 0.5874 0.8786 0.3038
C136_7 C 0.8428(3) 0.5714(3) 0.6304(3)
C137_7 C 0.9286(3) 0.6304(3) 0.6572(3)
C138_7 C 0.8428(3) 0.8696(3) 0.4286(3)
C139_7 C 0.6304(3) 0.8428(3) 0.4286(3)
C141_7 C 0.9286(3) 0.8428(3) 0.3696(3)
C142_7 C 0.6572(3) 0.9286(3) 0.3696(3)
C144_7 C 0.8696(3) 0.9286(3) 0.3428(3)
C145_7 C 0.5714(3) 0.8696(3) 0.3428(3)
H69_7 H 0.8530 0.5869 0.6227
H70_7 H 0.9131 0.6227 0.6470
H71_7 H 0.8530 0.8773 0.4131
H72_7 H 0.6227 0.8530 0.4131
H74_7 H 0.9131 0.8530 0.3773
H75_7 H 0.6470 0.9131 0.3773
H77_7 H 0.8773 0.9131 0.3530
H78_7 H 0.5869 0.8773 0.3530
H80_7 H 0.8417 0.5567 0.6169
H81_7 H 0.9433 0.6169 0.6583
H82_7 H 0.8417 0.8831 0.4433
H83_7 H 0.6169 0.8417 0.4433
H85_7 H 0.9433 0.8417 0.3831
H86_7 H 0.6583 0.9433 0.3831
H88_7 H 0.8831 0.9433 0.3417
H89_7 H 0.5567 0.8831 0.3417
H91_7 H 0.8521 0.5647 0.6469
H92_7 H 0.9353 0.6469 0.6479
H93_7 H 0.8521 0.8531 0.4353
H94_7 H 0.6469 0.8521 0.4353
H96_7 H 0.9353 0.8521 0.3531
H97_7 H 0.6479 0.9353 0.3531
H99_7 H 0.8531 0.9353 0.3521
H100_7 H 0.5647 0.8531 0.3521
C147_7 C 0.78255(18) 0.6160(3) 0.6695(2)
C148_7 C 0.8840(3) 0.6695(2) 0.71745(18)
C149_7 C 0.78255(18) 0.8305(2) 0.3840(3)
C150_7 C 0.6695(2) 0.78255(18) 0.3840(3)
C152_7 C 0.8840(3) 0.78255(18) 0.3305(2)
C153_7 C 0.71745(18) 0.8840(3) 0.3305(2)
C155_7 C 0.8305(2) 0.8840(3) 0.28255(18)
C156_7 C 0.6160(3) 0.8305(2) 0.28255(18)
H102_7 H 0.7730 0.6230 0.6531
H103_7 H 0.8770 0.6531 0.7270
H104_7 H 0.7730 0.8469 0.3770
H105_7 H 0.6531 0.7730 0.3770
H107_7 H 0.8770 0.7730 0.3469
H108_7 H 0.7270 0.8770 0.3469
H110_7 H 0.8469 0.8770 0.2730
H111_7 H 0.6230 0.8469 0.2730
H113_7 H 0.7718 0.6003 0.6766
H114_7 H 0.8997 0.6766 0.7282
H115_7 H 0.7718 0.8234 0.3997
H116_7 H 0.6766 0.7718 0.3997
H118_7 H 0.8997 0.7718 0.3234
H119_7 H 0.7282 0.8997 0.3234
H121_7 H 0.8234 0.8997 0.2718
H122_7 H 0.6003 0.8234 0.2718
C158_7 C 0.7830(2) 0.6371(3) 0.6900(3)
C159_7 C 0.8629(3) 0.6900(3) 0.7170(2)
C160_7 C 0.7830(2) 0.8100(3) 0.3629(3)
C161_7 C 0.6900(3) 0.7830(2) 0.3629(3)
C163_7 C 0.8629(3) 0.7830(2) 0.3100(3)
C164_7 C 0.7170(2) 0.8629(3) 0.3100(3)
C166_7 C 0.8100(3) 0.8629(3) 0.2830(2)
C167_7 C 0.6371(3) 0.8100(3) 0.2830(2)
H124_7 H 0.7868 0.6289 0.7079
H125_7 H 0.8711 0.7079 0.7132
H126_7 H 0.7868 0.7921 0.3711
H127_7 H 0.7079 0.7868 0.3711
H129_7 H 0.8711 0.7868 0.2921
H130_7 H 0.7132 0.8711 0.2921
H132_7 H 0.7921 0.8711 0.2868
H133_7 H 0.6289 0.7921 0.2868
H135_7 H 0.7652 0.6463 0.6904
H136_7 H 0.8537 0.6904 0.7348
H137_7 H 0.7652 0.8096 0.3537
H138_7 H 0.6904 0.7652 0.3537
H140_7 H 0.8537 0.7652 0.3096
H141_7 H 0.7348 0.8537 0.3096
H143_7 H 0.8096 0.8537 0.2652
H144_7 H 0.6463 0.8096 0.2652
H146_7 H 0.7973 0.6504 0.6855
H147_7 H 0.8496 0.6855 0.7027
H148_7 H 0.7973 0.8145 0.3496
H149_7 H 0.6855 0.7973 0.3496
H151_7 H 0.8496 0.7973 0.3145
H152_7 H 0.7027 0.8496 0.3145
H154_7 H 0.8145 0.8496 0.2973
H155_7 H 0.6504 0.8145 0.2973
O35_10 O 0.8339(5) 0.6828(5) 0.5000
O36_10 O 0.6661(5) 0.8172(5) 0.5000
O37_10 O 0.8172(5) 0.8339(5) 0.5000
O1_8 O 0.26108(12) 0.66158(14) 0.46647(11)
O2_8 O 0.23849(13) 0.69868(18) 0.46856(12)
O3_11 O 0.2500 0.7500 0.5000
C1_8 C 0.24200(16) 0.67589(19) 0.45823(13)
C2_8 C 0.22438(12) 0.66627(18) 0.43536(13)
C3_8 C 0.20223(15) 0.68272(18) 0.42704(14)
H1_8 H 0.1983 0.6994 0.4362
C4_8 C 0.18614(13) 0.67407(15) 0.40509(13)
C5_8 C 0.19186(12) 0.65023(15) 0.39127(13)
C6_8 C 0.21448(14) 0.63471(16) 0.39934(14)
H2_8 H 0.2193 0.6186 0.3895
C7_8 C 0.22953(14) 0.64272(17) 0.42132(14)
H3_8 H 0.2443 0.6314 0.4271
C8_8 C 0.16079(16) 0.68796(18) 0.39464(16)
C9_8 C 0.15312(13) 0.66912(14) 0.37108(13)
C10_8 C 0.17156(13) 0.64778(13) 0.36852(13)
C11_8 C 0.1382(2) 0.6869(2) 0.4190(2)
H4_8 H 0.1453 0.6972 0.4349
H5_8 H 0.1214 0.6962 0.4126
C12_8 C 0.1304(3) 0.6572(3) 0.4286(3)
H6_8 H 0.1227 0.6470 0.4131
H7_8 H 0.1169 0.6583 0.4433
H8_8 H 0.1469 0.6479 0.4353
C13_8 C 0.1695(2) 0.71745(18) 0.3840(3)
H9_8 H 0.1531 0.7270 0.3770
H10_8 H 0.1766 0.7282 0.3997
C14_8 C 0.1900(3) 0.7170(2) 0.3629(3)
H11_8 H 0.2079 0.7132 0.3711
H12_8 H 0.1904 0.7348 0.3537
H13_8 H 0.1855 0.7027 0.3496
O4_11 O 0.3172(5) 0.6661(5) 0.5000
Pb2_8 Pb 0.19522(3) 0.72135(3) 0.5000
Pb6_10 Pb -0.0000 0.69522(3) 0.27865(3)
Pb9_6 Pb 0.0000 0.80478(3) 0.77865(3)
O5_7 O 0.26108(12) 0.66158(14) 0.53353(11)
O6_7 O 0.16158(14) 0.73892(12) 0.46647(11)
O7_8 O 0.16158(14) 0.73892(12) 0.53353(11)
O9_8 O 0.33842(14) 0.76108(12) 0.53353(11)
O10_8 O 0.23892(12) 0.83842(14) 0.53353(11)
O12_7 O 0.03353(11) 0.76108(12) 0.33842(14)
O13_8 O 0.16158(14) 0.53353(11) 0.23892(12)
O14_8 O 0.03353(11) 0.83842(14) 0.76108(12)
O15_8 O 0.26108(12) 0.96647(11) 0.66158(14)
O16_8 O 0.33842(14) 0.96647(11) 0.76108(12)
O21_7 O 0.23849(13) 0.69868(18) 0.53144(12)
O22_8 O 0.30132(18) 0.73849(13) 0.53144(12)
O23_7 O 0.19868(18) 0.76151(13) 0.46856(12)
O24_8 O 0.19868(18) 0.76151(13) 0.53144(12)
O25_8 O 0.26151(13) 0.80132(18) 0.53144(12)
O27_7 O 0.03144(12) 0.73849(13) 0.30132(18)
O28_8 O 0.19868(18) 0.53144(12) 0.26151(13)
O29_8 O 0.03144(12) 0.80132(18) 0.73849(13)
O30_8 O 0.23849(13) 0.96856(12) 0.69868(18)
O31_8 O 0.30132(18) 0.96856(12) 0.73849(13)
C15_8 C 0.17589(19) 0.75800(16) 0.54177(13)
C16_8 C 0.25800(16) 0.82411(19) 0.54177(13)
C18_8 C 0.04177(13) 0.74200(16) 0.32411(19)
C19_8 C 0.17589(19) 0.54177(13) 0.25800(16)
C20_8 C 0.04177(13) 0.82411(19) 0.74200(16)
C21_8 C 0.24200(16) 0.95823(13) 0.67589(19)
C22_8 C 0.32411(19) 0.95823(13) 0.74200(16)
C23_8 C 0.45823(13) 0.75800(16) 0.67589(19)
C26_8 C 0.16627(18) 0.77562(12) 0.56464(13)
C27_8 C 0.27562(12) 0.83373(18) 0.56464(13)
C29_8 C 0.06464(13) 0.72438(12) 0.33373(18)
C30_8 C 0.16627(18) 0.56464(13) 0.27562(12)
C31_8 C 0.06464(13) 0.83373(18) 0.72438(12)
C32_8 C 0.22438(12) 0.93536(13) 0.66627(18)
C33_8 C 0.33373(18) 0.93536(13) 0.72438(12)
C34_8 C 0.43536(13) 0.77562(12) 0.66627(18)
C37_8 C 0.18272(18) 0.79777(15) 0.57296(14)
C38_8 C 0.29777(15) 0.81728(18) 0.57296(14)
C40_8 C 0.07296(14) 0.70223(15) 0.31728(18)
C41_8 C 0.18272(18) 0.57296(14) 0.29777(15)
C42_8 C 0.07296(14) 0.81728(18) 0.70223(15)
C43_8 C 0.20223(15) 0.92704(14) 0.68272(18)
C44_8 C 0.31728(18) 0.92704(14) 0.70223(15)
C45_8 C 0.42704(14) 0.79777(15) 0.68272(18)
H14_8 H 0.1994 0.8017 0.5638
H15_8 H 0.3017 0.8006 0.5638
H17_8 H 0.0638 0.6983 0.3006
H18_8 H 0.1994 0.5638 0.3017
H19_8 H 0.0638 0.8006 0.6983
H20_8 H 0.1983 0.9362 0.6994
H21_8 H 0.3006 0.9362 0.6983
H22_8 H 0.4362 0.8017 0.6994
C48_8 C 0.09491(13) 0.68614(13) 0.32593(15)
C49_8 C 0.17407(15) 0.59491(13) 0.31386(13)
C50_8 C 0.17407(15) 0.81386(13) 0.59491(13)
C51_8 C 0.31386(13) 0.82593(15) 0.59491(13)
C53_8 C 0.09491(13) 0.82593(15) 0.68614(13)
C54_8 C 0.18614(13) 0.90509(13) 0.67407(15)
C55_8 C 0.32593(15) 0.90509(13) 0.68614(13)
C56_8 C 0.40509(13) 0.81386(13) 0.67407(15)
C59_8 C 0.10873(13) 0.69186(12) 0.34977(15)
C60_8 C 0.15023(15) 0.60873(13) 0.30814(12)
C61_8 C 0.15023(15) 0.80814(12) 0.60873(13)
C62_8 C 0.30814(12) 0.84977(15) 0.60873(13)
C64_8 C 0.19186(12) 0.89127(13) 0.65023(15)
C65_8 C 0.39127(13) 0.80814(12) 0.65023(15)
C67_8 C 0.10873(13) 0.84977(15) 0.69186(12)
C68_8 C 0.34977(15) 0.89127(13) 0.69186(12)
C70_8 C 0.10066(14) 0.71448(14) 0.36529(16)
C71_8 C 0.13471(16) 0.60066(14) 0.28552(14)
C72_8 C 0.13471(16) 0.78552(14) 0.60066(14)
C73_8 C 0.28552(14) 0.86529(16) 0.60066(14)
C75_8 C 0.21448(14) 0.89934(14) 0.63471(16)
C76_8 C 0.39934(14) 0.78552(14) 0.63471(16)
C78_8 C 0.10066(14) 0.86529(16) 0.71448(14)
C79_8 C 0.36529(16) 0.89934(14) 0.71448(14)
H25_8 H 0.1105 0.7193 0.3814
H26_8 H 0.1186 0.6105 0.2807
H27_8 H 0.1186 0.7807 0.6105
H28_8 H 0.2807 0.8814 0.6105
H30_8 H 0.2193 0.8895 0.6186
H31_8 H 0.3895 0.7807 0.6186
H33_8 H 0.1105 0.8814 0.7193
H34_8 H 0.3814 0.8895 0.7193
C81_8 C 0.14272(17) 0.77047(14) 0.57868(14)
C82_8 C 0.27047(14) 0.85728(17) 0.57868(14)
C84_8 C 0.07868(14) 0.72953(14) 0.35728(17)
C85_8 C 0.14272(17) 0.57868(14) 0.27047(14)
C86_8 C 0.22953(14) 0.92132(14) 0.64272(17)
C87_8 C 0.42132(14) 0.77047(14) 0.64272(17)
C89_8 C 0.07868(14) 0.85728(17) 0.72953(14)
C90_8 C 0.35728(17) 0.92132(14) 0.72953(14)
H36_8 H 0.1314 0.7557 0.5729
H37_8 H 0.2557 0.8686 0.5729
H39_8 H 0.0729 0.7443 0.3686
H40_8 H 0.1314 0.5729 0.2557
H41_8 H 0.2443 0.9271 0.6314
H42_8 H 0.4271 0.7557 0.6314
H44_8 H 0.0729 0.8686 0.7443
H45_8 H 0.3686 0.9271 0.7443
C92_8 C 0.18796(18) 0.60536(16) 0.33921(16)
C93_8 C 0.10536(16) 0.66079(16) 0.31204(18)
C94_8 C 0.18796(18) 0.83921(16) 0.60536(16)
C95_8 C 0.33921(16) 0.81204(18) 0.60536(16)
C97_8 C 0.10536(16) 0.81204(18) 0.66079(16)
C98_8 C 0.31204(18) 0.89464(16) 0.66079(16)
C100_8 C 0.16079(16) 0.89464(16) 0.68796(18)
C101_8 C 0.39464(16) 0.83921(16) 0.68796(18)
C103_8 C 0.16912(14) 0.62892(13) 0.34688(13)
C104_8 C 0.12892(13) 0.65312(13) 0.33088(14)
C105_8 C 0.16912(14) 0.84688(13) 0.62892(13)
C106_8 C 0.34688(13) 0.83088(14) 0.62892(13)
C108_8 C 0.12892(13) 0.83088(14) 0.65312(13)
C109_8 C 0.33088(14) 0.87108(13) 0.65312(13)
C111_8 C 0.15312(13) 0.87108(13) 0.66912(14)
C112_8 C 0.37108(13) 0.84688(13) 0.66912(14)
C114_8 C 0.13148(13) 0.67156(13) 0.35222(13)
C115_8 C 0.14778(13) 0.63148(13) 0.32844(13)
C116_8 C 0.14778(13) 0.82844(13) 0.63148(13)
C117_8 C 0.32844(13) 0.85222(13) 0.63148(13)
C119_8 C 0.17156(13) 0.86852(13) 0.64778(13)
C120_8 C 0.36852(13) 0.82844(13) 0.64778(13)
C122_8 C 0.13148(13) 0.85222(13) 0.67156(13)
C123_8 C 0.35222(13) 0.86852(13) 0.67156(13)
C125_8 C 0.1869(2) 0.5810(2) 0.3618(2)
C126_8 C 0.0810(2) 0.6382(2) 0.3131(2)
C127_8 C 0.1869(2) 0.8618(2) 0.5810(2)
C128_8 C 0.3618(2) 0.8131(2) 0.5810(2)
C130_8 C 0.0810(2) 0.8131(2) 0.6382(2)
C131_8 C 0.3131(2) 0.9190(2) 0.6382(2)
C133_8 C 0.1382(2) 0.9190(2) 0.6869(2)
C134_8 C 0.4190(2) 0.8618(2) 0.6869(2)
H47_8 H 0.1972 0.5651 0.3547
H48_8 H 0.0651 0.6453 0.3028
H49_8 H 0.1972 0.8547 0.5651
H50_8 H 0.3547 0.8028 0.5651
H52_8 H 0.0651 0.8028 0.6453
H53_8 H 0.3028 0.9349 0.6453
H55_8 H 0.1453 0.9349 0.6972
H56_8 H 0.4349 0.8547 0.6972
H58_8 H 0.1962 0.5874 0.3786
H59_8 H 0.0874 0.6214 0.3038
H60_8 H 0.1962 0.8786 0.5874
H61_8 H 0.3786 0.8038 0.5874
H63_8 H 0.0874 0.8038 0.6214
H64_8 H 0.3038 0.9126 0.6214
H66_8 H 0.1214 0.9126 0.6962
H67_8 H 0.4126 0.8786 0.6962
C136_8 C 0.1572(3) 0.5714(3) 0.3696(3)
C137_8 C 0.0714(3) 0.6304(3) 0.3428(3)
C138_8 C 0.1572(3) 0.8696(3) 0.5714(3)
C139_8 C 0.3696(3) 0.8428(3) 0.5714(3)
C141_8 C 0.0714(3) 0.8428(3) 0.6304(3)
C142_8 C 0.3428(3) 0.9286(3) 0.6304(3)
C144_8 C 0.1304(3) 0.9286(3) 0.6572(3)
C145_8 C 0.4286(3) 0.8696(3) 0.6572(3)
H69_8 H 0.1470 0.5869 0.3773
H70_8 H 0.0869 0.6227 0.3530
H71_8 H 0.1470 0.8773 0.5869
H72_8 H 0.3773 0.8530 0.5869
H74_8 H 0.0869 0.8530 0.6227
H75_8 H 0.3530 0.9131 0.6227
H77_8 H 0.1227 0.9131 0.6470
H78_8 H 0.4131 0.8773 0.6470
H80_8 H 0.1583 0.5567 0.3831
H81_8 H 0.0567 0.6169 0.3417
H82_8 H 0.1583 0.8831 0.5567
H83_8 H 0.3831 0.8417 0.5567
H85_8 H 0.0567 0.8417 0.6169
H86_8 H 0.3417 0.9433 0.6169
H88_8 H 0.1169 0.9433 0.6583
H89_8 H 0.4433 0.8831 0.6583
H91_8 H 0.1479 0.5647 0.3531
H92_8 H 0.0647 0.6469 0.3521
H93_8 H 0.1479 0.8531 0.5647
H94_8 H 0.3531 0.8521 0.5647
H96_8 H 0.0647 0.8521 0.6469
H97_8 H 0.3521 0.9353 0.6469
H99_8 H 0.1469 0.9353 0.6479
H100_8 H 0.4353 0.8531 0.6479
C147_8 C 0.21745(18) 0.6160(3) 0.3305(2)
C148_8 C 0.1160(3) 0.6695(2) 0.28255(18)
C149_8 C 0.21745(18) 0.8305(2) 0.6160(3)
C150_8 C 0.3305(2) 0.78255(18) 0.6160(3)
C152_8 C 0.1160(3) 0.78255(18) 0.6695(2)
C153_8 C 0.28255(18) 0.8840(3) 0.6695(2)
C155_8 C 0.1695(2) 0.8840(3) 0.71745(18)
C156_8 C 0.3840(3) 0.8305(2) 0.71745(18)
H102_8 H 0.2270 0.6230 0.3469
H103_8 H 0.1230 0.6531 0.2730
H104_8 H 0.2270 0.8469 0.6230
H105_8 H 0.3469 0.7730 0.6230
H107_8 H 0.1230 0.7730 0.6531
H108_8 H 0.2730 0.8770 0.6531
H110_8 H 0.1531 0.8770 0.7270
H111_8 H 0.3770 0.8469 0.7270
H113_8 H 0.2282 0.6003 0.3234
H114_8 H 0.1003 0.6766 0.2718
H115_8 H 0.2282 0.8234 0.6003
H116_8 H 0.3234 0.7718 0.6003
H118_8 H 0.1003 0.7718 0.6766
H119_8 H 0.2718 0.8997 0.6766
H121_8 H 0.1766 0.8997 0.7282
H122_8 H 0.3997 0.8234 0.7282
C158_8 C 0.2170(2) 0.6371(3) 0.3100(3)
C159_8 C 0.1371(3) 0.6900(3) 0.2830(2)
C160_8 C 0.2170(2) 0.8100(3) 0.6371(3)
C161_8 C 0.3100(3) 0.7830(2) 0.6371(3)
C163_8 C 0.1371(3) 0.7830(2) 0.6900(3)
C164_8 C 0.2830(2) 0.8629(3) 0.6900(3)
C166_8 C 0.1900(3) 0.8629(3) 0.7170(2)
C167_8 C 0.3629(3) 0.8100(3) 0.7170(2)
H124_8 H 0.2132 0.6289 0.2921
H125_8 H 0.1289 0.7079 0.2868
H126_8 H 0.2132 0.7921 0.6289
H127_8 H 0.2921 0.7868 0.6289
H129_8 H 0.1289 0.7868 0.7079
H130_8 H 0.2868 0.8711 0.7079
H132_8 H 0.2079 0.8711 0.7132
H133_8 H 0.3711 0.7921 0.7132
H135_8 H 0.2348 0.6463 0.3096
H136_8 H 0.1463 0.6904 0.2652
H137_8 H 0.2348 0.8096 0.6463
H138_8 H 0.3096 0.7652 0.6463
H140_8 H 0.1463 0.7652 0.6904
H141_8 H 0.2652 0.8537 0.6904
H143_8 H 0.1904 0.8537 0.7348
H144_8 H 0.3537 0.8096 0.7348
H146_8 H 0.2027 0.6504 0.3145
H147_8 H 0.1504 0.6855 0.2973
H148_8 H 0.2027 0.8145 0.6504
H149_8 H 0.3145 0.7973 0.6504
H151_8 H 0.1504 0.7973 0.6855
H152_8 H 0.2973 0.8496 0.6855
H154_8 H 0.1855 0.8496 0.7027
H155_8 H 0.3496 0.8145 0.7027
O35_11 O 0.1661(5) 0.6828(5) 0.5000
O36_11 O 0.3339(5) 0.8172(5) 0.5000
O37_11 O 0.1828(5) 0.8339(5) 0.5000
Pb6_11 Pb 1.0000 0.69522(3) 0.27865(3)
Pb9_7 Pb 1.0000 0.80478(3) 0.77865(3)
Pb10_9 Pb 0.0000 0.22135(3) 0.69522(3)
Pb1_8 Pb 0.72135(3) 0.30478(3) 0.5000
O1_9 O 0.73892(12) 0.33842(14) 0.46647(11)
O2_9 O 0.76151(13) 0.30132(18) 0.46856(12)
O3_12 O 0.7500 0.2500 0.5000
C1_9 C 0.75800(16) 0.32411(19) 0.45823(13)
C2_9 C 0.77562(12) 0.33373(18) 0.43536(13)
C3_9 C 0.79777(15) 0.31728(18) 0.42704(14)
H1_9 H 0.8017 0.3006 0.4362
C4_9 C 0.81386(13) 0.32593(15) 0.40509(13)
C5_9 C 0.80814(12) 0.34977(15) 0.39127(13)
C6_9 C 0.78552(14) 0.36529(16) 0.39934(14)
H2_9 H 0.7807 0.3814 0.3895
C7_9 C 0.77047(14) 0.35728(17) 0.42132(14)
H3_9 H 0.7557 0.3686 0.4271
C8_9 C 0.83921(16) 0.31204(18) 0.39464(16)
C9_9 C 0.84688(13) 0.33088(14) 0.37108(13)
C10_9 C 0.82844(13) 0.35222(13) 0.36852(13)
C11_9 C 0.8618(2) 0.3131(2) 0.4190(2)
H4_9 H 0.8547 0.3028 0.4349
H5_9 H 0.8786 0.3038 0.4126
C12_9 C 0.8696(3) 0.3428(3) 0.4286(3)
H6_9 H 0.8773 0.3530 0.4131
H7_9 H 0.8831 0.3417 0.4433
H8_9 H 0.8531 0.3521 0.4353
C13_9 C 0.8305(2) 0.28255(18) 0.3840(3)
H9_9 H 0.8469 0.2730 0.3770
H10_9 H 0.8234 0.2718 0.3997
C14_9 C 0.8100(3) 0.2830(2) 0.3629(3)
H11_9 H 0.7921 0.2868 0.3711
H12_9 H 0.8096 0.2652 0.3537
H13_9 H 0.8145 0.2973 0.3496
O4_12 O 0.6828(5) 0.3339(5) 0.5000
Pb3_10 Pb 0.69522(3) 0.22135(3) 0.5000
Pb7_10 Pb 0.80478(3) 0.5000 0.22135(3)
Pb8_9 Pb 0.77865(3) 0.5000 0.30478(3)
Pb10_10 Pb 1.0000 0.22135(3) 0.69522(3)
Pb12_6 Pb 0.80478(3) 0.0000 0.72135(3)
O5_8 O 0.73892(12) 0.33842(14) 0.53353(11)
O7_9 O 0.83842(14) 0.26108(12) 0.53353(11)
O8_7 O 0.66158(14) 0.23892(12) 0.46647(11)
O9_9 O 0.66158(14) 0.23892(12) 0.53353(11)
O10_9 O 0.76108(12) 0.16158(14) 0.53353(11)
O11_7 O 0.76108(12) 0.16158(14) 0.46647(11)
O13_9 O 0.83842(14) 0.46647(11) 0.23892(12)
O14_9 O 0.96647(11) 0.16158(14) 0.76108(12)
O15_9 O 0.73892(12) 0.03353(11) 0.66158(14)
O16_9 O 0.66158(14) 0.03353(11) 0.76108(12)
O18_7 O 0.53353(11) 0.33842(14) 0.23892(12)
O19_7 O 0.76108(12) 0.46647(11) 0.33842(14)
O20_7 O 0.69868(18) 0.26151(13) 0.46856(12)
O21_8 O 0.76151(13) 0.30132(18) 0.53144(12)
O22_9 O 0.69868(18) 0.26151(13) 0.53144(12)
O24_9 O 0.80132(18) 0.23849(13) 0.53144(12)
O25_9 O 0.73849(13) 0.19868(18) 0.53144(12)
O26_7 O 0.73849(13) 0.19868(18) 0.46856(12)
O28_9 O 0.80132(18) 0.46856(12) 0.26151(13)
O29_9 O 0.96856(12) 0.19868(18) 0.73849(13)
O30_9 O 0.76151(13) 0.03144(12) 0.69868(18)
O31_9 O 0.69868(18) 0.03144(12) 0.73849(13)
O33_7 O 0.53144(12) 0.30132(18) 0.26151(13)
O34_7 O 0.73849(13) 0.46856(12) 0.30132(18)
C15_9 C 0.82411(19) 0.24200(16) 0.54177(13)
C16_9 C 0.74200(16) 0.17589(19) 0.54177(13)
C17_7 C 0.67589(19) 0.25800(16) 0.45823(13)
C18_9 C 0.95823(13) 0.25800(16) 0.32411(19)
C19_9 C 0.82411(19) 0.45823(13) 0.25800(16)
C20_9 C 0.95823(13) 0.17589(19) 0.74200(16)
C21_9 C 0.75800(16) 0.04177(13) 0.67589(19)
C22_9 C 0.67589(19) 0.04177(13) 0.74200(16)
C23_9 C 0.54177(13) 0.24200(16) 0.67589(19)
C24_7 C 0.54177(13) 0.32411(19) 0.25800(16)
C25_7 C 0.74200(16) 0.45823(13) 0.32411(19)
C26_9 C 0.83373(18) 0.22438(12) 0.56464(13)
C27_9 C 0.72438(12) 0.16627(18) 0.56464(13)
C28_7 C 0.66627(18) 0.27562(12) 0.43536(13)
C29_9 C 0.93536(13) 0.27562(12) 0.33373(18)
C30_9 C 0.83373(18) 0.43536(13) 0.27562(12)
C31_9 C 0.93536(13) 0.16627(18) 0.72438(12)
C32_9 C 0.77562(12) 0.06464(13) 0.66627(18)
C33_9 C 0.66627(18) 0.06464(13) 0.72438(12)
C34_9 C 0.56464(13) 0.22438(12) 0.66627(18)
C35_7 C 0.56464(13) 0.33373(18) 0.27562(12)
C36_7 C 0.72438(12) 0.43536(13) 0.33373(18)
C37_9 C 0.81728(18) 0.20223(15) 0.57296(14)
C38_9 C 0.70223(15) 0.18272(18) 0.57296(14)
C39_7 C 0.68272(18) 0.29777(15) 0.42704(14)
C40_9 C 0.92704(14) 0.29777(15) 0.31728(18)
C41_9 C 0.81728(18) 0.42704(14) 0.29777(15)
C42_9 C 0.92704(14) 0.18272(18) 0.70223(15)
C43_9 C 0.79777(15) 0.07296(14) 0.68272(18)
C44_9 C 0.68272(18) 0.07296(14) 0.70223(15)
C45_9 C 0.57296(14) 0.20223(15) 0.68272(18)
C46_7 C 0.57296(14) 0.31728(18) 0.29777(15)
C47_7 C 0.70223(15) 0.42704(14) 0.31728(18)
H14_9 H 0.8006 0.1983 0.5638
H15_9 H 0.6983 0.1994 0.5638
H16_7 H 0.6994 0.3017 0.4362
H17_9 H 0.9362 0.3017 0.3006
H18_9 H 0.8006 0.4362 0.3017
H19_9 H 0.9362 0.1994 0.6983
H20_9 H 0.8017 0.0638 0.6994
H21_9 H 0.6994 0.0638 0.6983
H22_9 H 0.5638 0.1983 0.6994
H23_7 H 0.5638 0.3006 0.3017
H24_7 H 0.6983 0.4362 0.3006
C48_9 C 0.90509(13) 0.31386(13) 0.32593(15)
C49_9 C 0.82593(15) 0.40509(13) 0.31386(13)
C50_9 C 0.82593(15) 0.18614(13) 0.59491(13)
C51_9 C 0.68614(13) 0.17407(15) 0.59491(13)
C52_7 C 0.67407(15) 0.31386(13) 0.40509(13)
C53_9 C 0.90509(13) 0.17407(15) 0.68614(13)
C54_9 C 0.81386(13) 0.09491(13) 0.67407(15)
C55_9 C 0.67407(15) 0.09491(13) 0.68614(13)
C56_9 C 0.59491(13) 0.18614(13) 0.67407(15)
C57_7 C 0.59491(13) 0.32593(15) 0.31386(13)
C58_7 C 0.68614(13) 0.40509(13) 0.32593(15)
C59_9 C 0.89127(13) 0.30814(12) 0.34977(15)
C60_9 C 0.84977(15) 0.39127(13) 0.30814(12)
C61_9 C 0.84977(15) 0.19186(12) 0.60873(13)
C62_9 C 0.69186(12) 0.15023(15) 0.60873(13)
C63_7 C 0.65023(15) 0.30814(12) 0.39127(13)
C64_9 C 0.80814(12) 0.10873(13) 0.65023(15)
C65_9 C 0.60873(13) 0.19186(12) 0.65023(15)
C66_7 C 0.69186(12) 0.39127(13) 0.34977(15)
C67_9 C 0.89127(13) 0.15023(15) 0.69186(12)
C68_9 C 0.65023(15) 0.10873(13) 0.69186(12)
C69_7 C 0.60873(13) 0.34977(15) 0.30814(12)
C70_9 C 0.89934(14) 0.28552(14) 0.36529(16)
C71_9 C 0.86529(16) 0.39934(14) 0.28552(14)
C72_9 C 0.86529(16) 0.21448(14) 0.60066(14)
C73_9 C 0.71448(14) 0.13471(16) 0.60066(14)
C74_7 C 0.63471(16) 0.28552(14) 0.39934(14)
C75_9 C 0.78552(14) 0.10066(14) 0.63471(16)
C76_9 C 0.60066(14) 0.21448(14) 0.63471(16)
C77_7 C 0.71448(14) 0.39934(14) 0.36529(16)
C78_9 C 0.89934(14) 0.13471(16) 0.71448(14)
C79_9 C 0.63471(16) 0.10066(14) 0.71448(14)
C80_7 C 0.60066(14) 0.36529(16) 0.28552(14)
H25_9 H 0.8895 0.2807 0.3814
H26_9 H 0.8814 0.3895 0.2807
H27_9 H 0.8814 0.2193 0.6105
H28_9 H 0.7193 0.1186 0.6105
H29_7 H 0.6186 0.2807 0.3895
H30_9 H 0.7807 0.1105 0.6186
H31_9 H 0.6105 0.2193 0.6186
H32_7 H 0.7193 0.3895 0.3814
H33_9 H 0.8895 0.1186 0.7193
H34_9 H 0.6186 0.1105 0.7193
H35_7 H 0.6105 0.3814 0.2807
C81_9 C 0.85728(17) 0.22953(14) 0.57868(14)
C82_9 C 0.72953(14) 0.14272(17) 0.57868(14)
C83_7 C 0.64272(17) 0.27047(14) 0.42132(14)
C84_9 C 0.92132(14) 0.27047(14) 0.35728(17)
C85_9 C 0.85728(17) 0.42132(14) 0.27047(14)
C86_9 C 0.77047(14) 0.07868(14) 0.64272(17)
C87_9 C 0.57868(14) 0.22953(14) 0.64272(17)
C88_7 C 0.72953(14) 0.42132(14) 0.35728(17)
C89_9 C 0.92132(14) 0.14272(17) 0.72953(14)
C90_9 C 0.64272(17) 0.07868(14) 0.72953(14)
C91_7 C 0.57868(14) 0.35728(17) 0.27047(14)
H36_9 H 0.8686 0.2443 0.5729
H37_9 H 0.7443 0.1314 0.5729
H38_7 H 0.6314 0.2557 0.4271
H39_9 H 0.9271 0.2557 0.3686
H40_9 H 0.8686 0.4271 0.2557
H41_9 H 0.7557 0.0729 0.6314
H42_9 H 0.5729 0.2443 0.6314
H43_7 H 0.7443 0.4271 0.3686
H44_9 H 0.9271 0.1314 0.7443
H45_9 H 0.6314 0.0729 0.7443
H46_7 H 0.5729 0.3686 0.2557
C92_9 C 0.81204(18) 0.39464(16) 0.33921(16)
C93_9 C 0.89464(16) 0.33921(16) 0.31204(18)
C94_9 C 0.81204(18) 0.16079(16) 0.60536(16)
C95_9 C 0.66079(16) 0.18796(18) 0.60536(16)
C96_7 C 0.68796(18) 0.33921(16) 0.39464(16)
C97_9 C 0.89464(16) 0.18796(18) 0.66079(16)
C98_9 C 0.68796(18) 0.10536(16) 0.66079(16)
C99_7 C 0.60536(16) 0.31204(18) 0.33921(16)
C100_9 C 0.83921(16) 0.10536(16) 0.68796(18)
C101_9 C 0.60536(16) 0.16079(16) 0.68796(18)
C102_7 C 0.66079(16) 0.39464(16) 0.31204(18)
C103_9 C 0.83088(14) 0.37108(13) 0.34688(13)
C104_9 C 0.87108(13) 0.34688(13) 0.33088(14)
C105_9 C 0.83088(14) 0.15312(13) 0.62892(13)
C106_9 C 0.65312(13) 0.16912(14) 0.62892(13)
C107_7 C 0.66912(14) 0.34688(13) 0.37108(13)
C108_9 C 0.87108(13) 0.16912(14) 0.65312(13)
C109_9 C 0.66912(14) 0.12892(13) 0.65312(13)
C110_7 C 0.62892(13) 0.33088(14) 0.34688(13)
C111_9 C 0.84688(13) 0.12892(13) 0.66912(14)
C112_9 C 0.62892(13) 0.15312(13) 0.66912(14)
C113_7 C 0.65312(13) 0.37108(13) 0.33088(14)
C114_9 C 0.86852(13) 0.32844(13) 0.35222(13)
C115_9 C 0.85222(13) 0.36852(13) 0.32844(13)
C116_9 C 0.85222(13) 0.17156(13) 0.63148(13)
C117_9 C 0.67156(13) 0.14778(13) 0.63148(13)
C118_7 C 0.64778(13) 0.32844(13) 0.36852(13)
C119_9 C 0.82844(13) 0.13148(13) 0.64778(13)
C120_9 C 0.63148(13) 0.17156(13) 0.64778(13)
C121_7 C 0.67156(13) 0.36852(13) 0.35222(13)
C122_9 C 0.86852(13) 0.14778(13) 0.67156(13)
C123_9 C 0.64778(13) 0.13148(13) 0.67156(13)
C124_7 C 0.63148(13) 0.35222(13) 0.32844(13)
C125_9 C 0.8131(2) 0.4190(2) 0.3618(2)
C126_9 C 0.9190(2) 0.3618(2) 0.3131(2)
C127_9 C 0.8131(2) 0.1382(2) 0.5810(2)
C128_9 C 0.6382(2) 0.1869(2) 0.5810(2)
C129_7 C 0.6869(2) 0.3618(2) 0.4190(2)
C130_9 C 0.9190(2) 0.1869(2) 0.6382(2)
C131_9 C 0.6869(2) 0.0810(2) 0.6382(2)
C132_7 C 0.5810(2) 0.3131(2) 0.3618(2)
C133_9 C 0.8618(2) 0.0810(2) 0.6869(2)
C134_9 C 0.5810(2) 0.1382(2) 0.6869(2)
C135_7 C 0.6382(2) 0.4190(2) 0.3131(2)
H47_9 H 0.8028 0.4349 0.3547
H48_9 H 0.9349 0.3547 0.3028
H49_9 H 0.8028 0.1453 0.5651
H50_9 H 0.6453 0.1972 0.5651
H51_7 H 0.6972 0.3547 0.4349
H52_9 H 0.9349 0.1972 0.6453
H53_9 H 0.6972 0.0651 0.6453
H54_7 H 0.5651 0.3028 0.3547
H55_9 H 0.8547 0.0651 0.6972
H56_9 H 0.5651 0.1453 0.6972
H57_7 H 0.6453 0.4349 0.3028
H58_9 H 0.8038 0.4126 0.3786
H59_9 H 0.9126 0.3786 0.3038
H60_9 H 0.8038 0.1214 0.5874
H61_9 H 0.6214 0.1962 0.5874
H62_7 H 0.6962 0.3786 0.4126
H63_9 H 0.9126 0.1962 0.6214
H64_9 H 0.6962 0.0874 0.6214
H65_7 H 0.5874 0.3038 0.3786
H66_9 H 0.8786 0.0874 0.6962
H67_9 H 0.5874 0.1214 0.6962
H68_7 H 0.6214 0.4126 0.3038
C136_9 C 0.8428(3) 0.4286(3) 0.3696(3)
C137_9 C 0.9286(3) 0.3696(3) 0.3428(3)
C138_9 C 0.8428(3) 0.1304(3) 0.5714(3)
C139_9 C 0.6304(3) 0.1572(3) 0.5714(3)
C140_7 C 0.6572(3) 0.3696(3) 0.4286(3)
C141_9 C 0.9286(3) 0.1572(3) 0.6304(3)
C142_9 C 0.6572(3) 0.0714(3) 0.6304(3)
C143_7 C 0.5714(3) 0.3428(3) 0.3696(3)
C144_9 C 0.8696(3) 0.0714(3) 0.6572(3)
C145_9 C 0.5714(3) 0.1304(3) 0.6572(3)
C146_7 C 0.6304(3) 0.4286(3) 0.3428(3)
H69_9 H 0.8530 0.4131 0.3773
H70_9 H 0.9131 0.3773 0.3530
H71_9 H 0.8530 0.1227 0.5869
H72_9 H 0.6227 0.1470 0.5869
H73_7 H 0.6470 0.3773 0.4131
H74_9 H 0.9131 0.1470 0.6227
H75_9 H 0.6470 0.0869 0.6227
H76_7 H 0.5869 0.3530 0.3773
H77_9 H 0.8773 0.0869 0.6470
H78_9 H 0.5869 0.1227 0.6470
H79_7 H 0.6227 0.4131 0.3530
H80_9 H 0.8417 0.4433 0.3831
H81_9 H 0.9433 0.3831 0.3417
H82_9 H 0.8417 0.1169 0.5567
H83_9 H 0.6169 0.1583 0.5567
H84_7 H 0.6583 0.3831 0.4433
H85_9 H 0.9433 0.1583 0.6169
H86_9 H 0.6583 0.0567 0.6169
H87_7 H 0.5567 0.3417 0.3831
H88_9 H 0.8831 0.0567 0.6583
H89_9 H 0.5567 0.1169 0.6583
H90_7 H 0.6169 0.4433 0.3417
H91_9 H 0.8521 0.4353 0.3531
H92_9 H 0.9353 0.3531 0.3521
H93_9 H 0.8521 0.1469 0.5647
H94_9 H 0.6469 0.1479 0.5647
H95_7 H 0.6479 0.3531 0.4353
H96_9 H 0.9353 0.1479 0.6469
H97_9 H 0.6479 0.0647 0.6469
H98_7 H 0.5647 0.3521 0.3531
H99_9 H 0.8531 0.0647 0.6479
H100_9 H 0.5647 0.1469 0.6479
H101_7 H 0.6469 0.4353 0.3521
C147_9 C 0.78255(18) 0.3840(3) 0.3305(2)
C148_9 C 0.8840(3) 0.3305(2) 0.28255(18)
C149_9 C 0.78255(18) 0.1695(2) 0.6160(3)
C150_9 C 0.6695(2) 0.21745(18) 0.6160(3)
C151_7 C 0.71745(18) 0.3305(2) 0.3840(3)
C152_9 C 0.8840(3) 0.21745(18) 0.6695(2)
C153_9 C 0.71745(18) 0.1160(3) 0.6695(2)
C154_7 C 0.6160(3) 0.28255(18) 0.3305(2)
C155_9 C 0.8305(2) 0.1160(3) 0.71745(18)
C156_9 C 0.6160(3) 0.1695(2) 0.71745(18)
C157_7 C 0.6695(2) 0.3840(3) 0.28255(18)
H102_9 H 0.7730 0.3770 0.3469
H103_9 H 0.8770 0.3469 0.2730
H104_9 H 0.7730 0.1531 0.6230
H105_9 H 0.6531 0.2270 0.6230
H106_7 H 0.7270 0.3469 0.3770
H107_9 H 0.8770 0.2270 0.6531
H108_9 H 0.7270 0.1230 0.6531
H109_7 H 0.6230 0.2730 0.3469
H110_9 H 0.8469 0.1230 0.7270
H111_9 H 0.6230 0.1531 0.7270
H112_7 H 0.6531 0.3770 0.2730
H113_9 H 0.7718 0.3997 0.3234
H114_9 H 0.8997 0.3234 0.2718
H115_9 H 0.7718 0.1766 0.6003
H116_9 H 0.6766 0.2282 0.6003
H117_7 H 0.7282 0.3234 0.3997
H118_9 H 0.8997 0.2282 0.6766
H119_9 H 0.7282 0.1003 0.6766
H120_7 H 0.6003 0.2718 0.3234
H121_9 H 0.8234 0.1003 0.7282
H122_9 H 0.6003 0.1766 0.7282
H123_7 H 0.6766 0.3997 0.2718
C158_9 C 0.7830(2) 0.3629(3) 0.3100(3)
C159_9 C 0.8629(3) 0.3100(3) 0.2830(2)
C160_9 C 0.7830(2) 0.1900(3) 0.6371(3)
C161_9 C 0.6900(3) 0.2170(2) 0.6371(3)
C162_7 C 0.7170(2) 0.3100(3) 0.3629(3)
C163_9 C 0.8629(3) 0.2170(2) 0.6900(3)
C164_9 C 0.7170(2) 0.1371(3) 0.6900(3)
C165_7 C 0.6371(3) 0.2830(2) 0.3100(3)
C166_9 C 0.8100(3) 0.1371(3) 0.7170(2)
C167_9 C 0.6371(3) 0.1900(3) 0.7170(2)
C168_7 C 0.6900(3) 0.3629(3) 0.2830(2)
H124_9 H 0.7868 0.3711 0.2921
H125_9 H 0.8711 0.2921 0.2868
H126_9 H 0.7868 0.2079 0.6289
H127_9 H 0.7079 0.2132 0.6289
H128_7 H 0.7132 0.2921 0.3711
H129_9 H 0.8711 0.2132 0.7079
H130_9 H 0.7132 0.1289 0.7079
H131_7 H 0.6289 0.2868 0.2921
H132_9 H 0.7921 0.1289 0.7132
H133_9 H 0.6289 0.2079 0.7132
H134_7 H 0.7079 0.3711 0.2868
H135_9 H 0.7652 0.3537 0.3096
H136_9 H 0.8537 0.3096 0.2652
H137_9 H 0.7652 0.1904 0.6463
H138_9 H 0.6904 0.2348 0.6463
H139_7 H 0.7348 0.3096 0.3537
H140_9 H 0.8537 0.2348 0.6904
H141_9 H 0.7348 0.1463 0.6904
H142_7 H 0.6463 0.2652 0.3096
H143_9 H 0.8096 0.1463 0.7348
H144_9 H 0.6463 0.1904 0.7348
H145_7 H 0.6904 0.3537 0.2652
H146_9 H 0.7973 0.3496 0.3145
H147_9 H 0.8496 0.3145 0.2973
H148_9 H 0.7973 0.1855 0.6504
H149_9 H 0.6855 0.2027 0.6504
H150_7 H 0.7027 0.3145 0.3496
H151_9 H 0.8496 0.2027 0.6855
H152_9 H 0.7027 0.1504 0.6855
H153_7 H 0.6504 0.2973 0.3145
H154_9 H 0.8145 0.1504 0.7027
H155_9 H 0.6504 0.1855 0.7027
H156_7 H 0.6855 0.3496 0.2973
O35_12 O 0.8339(5) 0.3172(5) 0.5000
O36_12 O 0.6661(5) 0.1828(5) 0.5000
O37_12 O 0.8172(5) 0.1661(5) 0.5000
Pb12_7 Pb 0.80478(3) 1.0000 0.72135(3)
O1_10 O 0.66158(14) 0.46647(11) 0.26108(12)
O2_10 O 0.69868(18) 0.46856(12) 0.23849(13)
O3_13 O 0.7500 0.5000 0.2500
C1_10 C 0.67589(19) 0.45823(13) 0.24200(16)
C2_10 C 0.66627(18) 0.43536(13) 0.22438(12)
C3_10 C 0.68272(18) 0.42704(14) 0.20223(15)
H1_10 H 0.6994 0.4362 0.1983
C4_10 C 0.67407(15) 0.40509(13) 0.18614(13)
C5_10 C 0.65023(15) 0.39127(13) 0.19186(12)
C6_10 C 0.63471(16) 0.39934(14) 0.21448(14)
H2_10 H 0.6186 0.3895 0.2193
C7_10 C 0.64272(17) 0.42132(14) 0.22953(14)
H3_10 H 0.6314 0.4271 0.2443
C8_10 C 0.68796(18) 0.39464(16) 0.16079(16)
C9_10 C 0.66912(14) 0.37108(13) 0.15312(13)
C10_10 C 0.64778(13) 0.36852(13) 0.17156(13)
C11_10 C 0.6869(2) 0.4190(2) 0.1382(2)
H4_10 H 0.6972 0.4349 0.1453
H5_10 H 0.6962 0.4126 0.1214
C12_10 C 0.6572(3) 0.4286(3) 0.1304(3)
H6_10 H 0.6470 0.4131 0.1227
H7_10 H 0.6583 0.4433 0.1169
H8_10 H 0.6479 0.4353 0.1469
C13_10 C 0.71745(18) 0.3840(3) 0.1695(2)
H9_10 H 0.7270 0.3770 0.1531
H10_10 H 0.7282 0.3997 0.1766
C14_10 C 0.7170(2) 0.3629(3) 0.1900(3)
H11_10 H 0.7132 0.3711 0.2079
H12_10 H 0.7348 0.3537 0.1904
H13_10 H 0.7027 0.3496 0.1855
O4_13 O 0.6661(5) 0.5000 0.3172(5)
Pb9_8 Pb 0.80478(3) 0.77865(3) 0.0000
O6_8 O 0.73892(12) 0.46647(11) 0.16158(14)
O7_10 O 0.73892(12) 0.53353(11) 0.16158(14)
O9_10 O 0.76108(12) 0.53353(11) 0.33842(14)
O10_10 O 0.83842(14) 0.53353(11) 0.23892(12)
O12_8 O 0.76108(12) 0.33842(14) 0.03353(11)
O13_10 O 0.53353(11) 0.23892(12) 0.16158(14)
O14_10 O 0.83842(14) 0.76108(12) 0.03353(11)
O15_10 O 0.96647(11) 0.66158(14) 0.26108(12)
O16_10 O 0.96647(11) 0.76108(12) 0.33842(14)
O22_10 O 0.73849(13) 0.53144(12) 0.30132(18)
O23_8 O 0.76151(13) 0.46856(12) 0.19868(18)
O24_10 O 0.76151(13) 0.53144(12) 0.19868(18)
O25_10 O 0.80132(18) 0.53144(12) 0.26151(13)
O27_8 O 0.73849(13) 0.30132(18) 0.03144(12)
O28_10 O 0.53144(12) 0.26151(13) 0.19868(18)
O29_10 O 0.80132(18) 0.73849(13) 0.03144(12)
O30_10 O 0.96856(12) 0.69868(18) 0.23849(13)
O31_10 O 0.96856(12) 0.73849(13) 0.30132(18)
C15_10 C 0.75800(16) 0.54177(13) 0.17589(19)
C16_10 C 0.82411(19) 0.54177(13) 0.25800(16)
C18_10 C 0.74200(16) 0.32411(19) 0.04177(13)
C19_10 C 0.54177(13) 0.25800(16) 0.17589(19)
C20_10 C 0.82411(19) 0.74200(16) 0.04177(13)
C21_10 C 0.95823(13) 0.67589(19) 0.24200(16)
C22_10 C 0.95823(13) 0.74200(16) 0.32411(19)
C23_10 C 0.75800(16) 0.67589(19) 0.45823(13)
C26_10 C 0.77562(12) 0.56464(13) 0.16627(18)
C27_10 C 0.83373(18) 0.56464(13) 0.27562(12)
C29_10 C 0.72438(12) 0.33373(18) 0.06464(13)
C30_10 C 0.56464(13) 0.27562(12) 0.16627(18)
C31_10 C 0.83373(18) 0.72438(12) 0.06464(13)
C32_10 C 0.93536(13) 0.66627(18) 0.22438(12)
C33_10 C 0.93536(13) 0.72438(12) 0.33373(18)
C34_10 C 0.77562(12) 0.66627(18) 0.43536(13)
C37_10 C 0.79777(15) 0.57296(14) 0.18272(18)
C38_10 C 0.81728(18) 0.57296(14) 0.29777(15)
C40_10 C 0.70223(15) 0.31728(18) 0.07296(14)
C41_10 C 0.57296(14) 0.29777(15) 0.18272(18)
C42_10 C 0.81728(18) 0.70223(15) 0.07296(14)
C43_10 C 0.92704(14) 0.68272(18) 0.20223(15)
C44_10 C 0.92704(14) 0.70223(15) 0.31728(18)
C45_10 C 0.79777(15) 0.68272(18) 0.42704(14)
H14_10 H 0.8017 0.5638 0.1994
H15_10 H 0.8006 0.5638 0.3017
H17_10 H 0.6983 0.3006 0.0638
H18_10 H 0.5638 0.3017 0.1994
H19_10 H 0.8006 0.6983 0.0638
H20_10 H 0.9362 0.6994 0.1983
H21_10 H 0.9362 0.6983 0.3006
H22_10 H 0.8017 0.6994 0.4362
C48_10 C 0.68614(13) 0.32593(15) 0.09491(13)
C49_10 C 0.59491(13) 0.31386(13) 0.17407(15)
C50_10 C 0.81386(13) 0.59491(13) 0.17407(15)
C51_10 C 0.82593(15) 0.59491(13) 0.31386(13)
C53_10 C 0.82593(15) 0.68614(13) 0.09491(13)
C54_10 C 0.90509(13) 0.67407(15) 0.18614(13)
C55_10 C 0.90509(13) 0.68614(13) 0.32593(15)
C56_10 C 0.81386(13) 0.67407(15) 0.40509(13)
C59_10 C 0.69186(12) 0.34977(15) 0.10873(13)
C60_10 C 0.60873(13) 0.30814(12) 0.15023(15)
C61_10 C 0.80814(12) 0.60873(13) 0.15023(15)
C62_10 C 0.84977(15) 0.60873(13) 0.30814(12)
C64_10 C 0.89127(13) 0.65023(15) 0.19186(12)
C65_10 C 0.80814(12) 0.65023(15) 0.39127(13)
C67_10 C 0.84977(15) 0.69186(12) 0.10873(13)
C68_10 C 0.89127(13) 0.69186(12) 0.34977(15)
C70_10 C 0.71448(14) 0.36529(16) 0.10066(14)
C71_10 C 0.60066(14) 0.28552(14) 0.13471(16)
C72_10 C 0.78552(14) 0.60066(14) 0.13471(16)
C73_10 C 0.86529(16) 0.60066(14) 0.28552(14)
C75_10 C 0.89934(14) 0.63471(16) 0.21448(14)
C76_10 C 0.78552(14) 0.63471(16) 0.39934(14)
C78_10 C 0.86529(16) 0.71448(14) 0.10066(14)
C79_10 C 0.89934(14) 0.71448(14) 0.36529(16)
H25_10 H 0.7193 0.3814 0.1105
H26_10 H 0.6105 0.2807 0.1186
H27_10 H 0.7807 0.6105 0.1186
H28_10 H 0.8814 0.6105 0.2807
H30_10 H 0.8895 0.6186 0.2193
H31_10 H 0.7807 0.6186 0.3895
H33_10 H 0.8814 0.7193 0.1105
H34_10 H 0.8895 0.7193 0.3814
C81_10 C 0.77047(14) 0.57868(14) 0.14272(17)
C82_10 C 0.85728(17) 0.57868(14) 0.27047(14)
C84_10 C 0.72953(14) 0.35728(17) 0.07868(14)
C85_10 C 0.57868(14) 0.27047(14) 0.14272(17)
C86_10 C 0.92132(14) 0.64272(17) 0.22953(14)
C87_10 C 0.77047(14) 0.64272(17) 0.42132(14)
C89_10 C 0.85728(17) 0.72953(14) 0.07868(14)
C90_10 C 0.92132(14) 0.72953(14) 0.35728(17)
H36_10 H 0.7557 0.5729 0.1314
H37_10 H 0.8686 0.5729 0.2557
H39_10 H 0.7443 0.3686 0.0729
H40_10 H 0.5729 0.2557 0.1314
H41_10 H 0.9271 0.6314 0.2443
H42_10 H 0.7557 0.6314 0.4271
H44_10 H 0.8686 0.7443 0.0729
H45_10 H 0.9271 0.7443 0.3686
C92_10 C 0.60536(16) 0.33921(16) 0.18796(18)
C93_10 C 0.66079(16) 0.31204(18) 0.10536(16)
C94_10 C 0.83921(16) 0.60536(16) 0.18796(18)
C95_10 C 0.81204(18) 0.60536(16) 0.33921(16)
C97_10 C 0.81204(18) 0.66079(16) 0.10536(16)
C98_10 C 0.89464(16) 0.66079(16) 0.31204(18)
C100_10 C 0.89464(16) 0.68796(18) 0.16079(16)
C101_10 C 0.83921(16) 0.68796(18) 0.39464(16)
C103_10 C 0.62892(13) 0.34688(13) 0.16912(14)
C104_10 C 0.65312(13) 0.33088(14) 0.12892(13)
C105_10 C 0.84688(13) 0.62892(13) 0.16912(14)
C106_10 C 0.83088(14) 0.62892(13) 0.34688(13)
C108_10 C 0.83088(14) 0.65312(13) 0.12892(13)
C109_10 C 0.87108(13) 0.65312(13) 0.33088(14)
C111_10 C 0.87108(13) 0.66912(14) 0.15312(13)
C112_10 C 0.84688(13) 0.66912(14) 0.37108(13)
C114_10 C 0.67156(13) 0.35222(13) 0.13148(13)
C115_10 C 0.63148(13) 0.32844(13) 0.14778(13)
C116_10 C 0.82844(13) 0.63148(13) 0.14778(13)
C117_10 C 0.85222(13) 0.63148(13) 0.32844(13)
C119_10 C 0.86852(13) 0.64778(13) 0.17156(13)
C120_10 C 0.82844(13) 0.64778(13) 0.36852(13)
C122_10 C 0.85222(13) 0.67156(13) 0.13148(13)
C123_10 C 0.86852(13) 0.67156(13) 0.35222(13)
C125_10 C 0.5810(2) 0.3618(2) 0.1869(2)
C126_10 C 0.6382(2) 0.3131(2) 0.0810(2)
C127_10 C 0.8618(2) 0.5810(2) 0.1869(2)
C128_10 C 0.8131(2) 0.5810(2) 0.3618(2)
C130_10 C 0.8131(2) 0.6382(2) 0.0810(2)
C131_10 C 0.9190(2) 0.6382(2) 0.3131(2)
C133_10 C 0.9190(2) 0.6869(2) 0.1382(2)
C134_10 C 0.8618(2) 0.6869(2) 0.4190(2)
H47_10 H 0.5651 0.3547 0.1972
H48_10 H 0.6453 0.3028 0.0651
H49_10 H 0.8547 0.5651 0.1972
H50_10 H 0.8028 0.5651 0.3547
H52_10 H 0.8028 0.6453 0.0651
H53_10 H 0.9349 0.6453 0.3028
H55_10 H 0.9349 0.6972 0.1453
H56_10 H 0.8547 0.6972 0.4349
H58_10 H 0.5874 0.3786 0.1962
H59_10 H 0.6214 0.3038 0.0874
H60_10 H 0.8786 0.5874 0.1962
H61_10 H 0.8038 0.5874 0.3786
H63_10 H 0.8038 0.6214 0.0874
H64_10 H 0.9126 0.6214 0.3038
H66_10 H 0.9126 0.6962 0.1214
H67_10 H 0.8786 0.6962 0.4126
C136_10 C 0.5714(3) 0.3696(3) 0.1572(3)
C137_10 C 0.6304(3) 0.3428(3) 0.0714(3)
C138_10 C 0.8696(3) 0.5714(3) 0.1572(3)
C139_10 C 0.8428(3) 0.5714(3) 0.3696(3)
C141_10 C 0.8428(3) 0.6304(3) 0.0714(3)
C142_10 C 0.9286(3) 0.6304(3) 0.3428(3)
C144_10 C 0.9286(3) 0.6572(3) 0.1304(3)
C145_10 C 0.8696(3) 0.6572(3) 0.4286(3)
H69_10 H 0.5869 0.3773 0.1470
H70_10 H 0.6227 0.3530 0.0869
H71_10 H 0.8773 0.5869 0.1470
H72_10 H 0.8530 0.5869 0.3773
H74_10 H 0.8530 0.6227 0.0869
H75_10 H 0.9131 0.6227 0.3530
H77_10 H 0.9131 0.6470 0.1227
H78_10 H 0.8773 0.6470 0.4131
H80_10 H 0.5567 0.3831 0.1583
H81_10 H 0.6169 0.3417 0.0567
H82_10 H 0.8831 0.5567 0.1583
H83_10 H 0.8417 0.5567 0.3831
H85_10 H 0.8417 0.6169 0.0567
H86_10 H 0.9433 0.6169 0.3417
H88_10 H 0.9433 0.6583 0.1169
H89_10 H 0.8831 0.6583 0.4433
H91_10 H 0.5647 0.3531 0.1479
H92_10 H 0.6469 0.3521 0.0647
H93_10 H 0.8531 0.5647 0.1479
H94_10 H 0.8521 0.5647 0.3531
H96_10 H 0.8521 0.6469 0.0647
H97_10 H 0.9353 0.6469 0.3521
H99_10 H 0.9353 0.6479 0.1469
H100_10 H 0.8531 0.6479 0.4353
C147_10 C 0.6160(3) 0.3305(2) 0.21745(18)
C148_10 C 0.6695(2) 0.28255(18) 0.1160(3)
C149_10 C 0.8305(2) 0.6160(3) 0.21745(18)
C150_10 C 0.78255(18) 0.6160(3) 0.3305(2)
C152_10 C 0.78255(18) 0.6695(2) 0.1160(3)
C153_10 C 0.8840(3) 0.6695(2) 0.28255(18)
C155_10 C 0.8840(3) 0.71745(18) 0.1695(2)
C156_10 C 0.8305(2) 0.71745(18) 0.3840(3)
H102_10 H 0.6230 0.3469 0.2270
H103_10 H 0.6531 0.2730 0.1230
H104_10 H 0.8469 0.6230 0.2270
H105_10 H 0.7730 0.6230 0.3469
H107_10 H 0.7730 0.6531 0.1230
H108_10 H 0.8770 0.6531 0.2730
H110_10 H 0.8770 0.7270 0.1531
H111_10 H 0.8469 0.7270 0.3770
H113_10 H 0.6003 0.3234 0.2282
H114_10 H 0.6766 0.2718 0.1003
H115_10 H 0.8234 0.6003 0.2282
H116_10 H 0.7718 0.6003 0.3234
H118_10 H 0.7718 0.6766 0.1003
H119_10 H 0.8997 0.6766 0.2718
H121_10 H 0.8997 0.7282 0.1766
H122_10 H 0.8234 0.7282 0.3997
C158_10 C 0.6371(3) 0.3100(3) 0.2170(2)
C159_10 C 0.6900(3) 0.2830(2) 0.1371(3)
C160_10 C 0.8100(3) 0.6371(3) 0.2170(2)
C161_10 C 0.7830(2) 0.6371(3) 0.3100(3)
C163_10 C 0.7830(2) 0.6900(3) 0.1371(3)
C164_10 C 0.8629(3) 0.6900(3) 0.2830(2)
C166_10 C 0.8629(3) 0.7170(2) 0.1900(3)
C167_10 C 0.8100(3) 0.7170(2) 0.3629(3)
H124_10 H 0.6289 0.2921 0.2132
H125_10 H 0.7079 0.2868 0.1289
H126_10 H 0.7921 0.6289 0.2132
H127_10 H 0.7868 0.6289 0.2921
H129_10 H 0.7868 0.7079 0.1289
H130_10 H 0.8711 0.7079 0.2868
H132_10 H 0.8711 0.7132 0.2079
H133_10 H 0.7921 0.7132 0.3711
H135_10 H 0.6463 0.3096 0.2348
H136_10 H 0.6904 0.2652 0.1463
H137_10 H 0.8096 0.6463 0.2348
H138_10 H 0.7652 0.6463 0.3096
H140_10 H 0.7652 0.6904 0.1463
H141_10 H 0.8537 0.6904 0.2652
H143_10 H 0.8537 0.7348 0.1904
H144_10 H 0.8096 0.7348 0.3537
H146_10 H 0.6504 0.3145 0.2027
H147_10 H 0.6855 0.2973 0.1504
H148_10 H 0.8145 0.6504 0.2027
H149_10 H 0.7973 0.6504 0.3145
H151_10 H 0.7973 0.6855 0.1504
H152_10 H 0.8496 0.6855 0.2973
H154_10 H 0.8496 0.7027 0.1855
H155_10 H 0.8145 0.7027 0.3496
O35_13 O 0.6828(5) 0.5000 0.1661(5)
O36_13 O 0.8172(5) 0.5000 0.3339(5)
O37_13 O 0.8339(5) 0.5000 0.1828(5)
Pb9_9 Pb 0.80478(3) 0.77865(3) 1.0000
O1_11 O 0.66158(14) 0.53353(11) 0.73892(12)
O2_11 O 0.69868(18) 0.53144(12) 0.76151(13)
O3_14 O 0.7500 0.5000 0.7500
C1_11 C 0.67589(19) 0.54177(13) 0.75800(16)
C2_11 C 0.66627(18) 0.56464(13) 0.77562(12)
C3_11 C 0.68272(18) 0.57296(14) 0.79777(15)
H1_11 H 0.6994 0.5638 0.8017
C4_11 C 0.67407(15) 0.59491(13) 0.81386(13)
C5_11 C 0.65023(15) 0.60873(13) 0.80814(12)
C6_11 C 0.63471(16) 0.60066(14) 0.78552(14)
H2_11 H 0.6186 0.6105 0.7807
C7_11 C 0.64272(17) 0.57868(14) 0.77047(14)
H3_11 H 0.6314 0.5729 0.7557
C8_11 C 0.68796(18) 0.60536(16) 0.83921(16)
C9_11 C 0.66912(14) 0.62892(13) 0.84688(13)
C10_11 C 0.64778(13) 0.63148(13) 0.82844(13)
C11_11 C 0.6869(2) 0.5810(2) 0.8618(2)
H4_11 H 0.6972 0.5651 0.8547
H5_11 H 0.6962 0.5874 0.8786
C12_11 C 0.6572(3) 0.5714(3) 0.8696(3)
H6_11 H 0.6470 0.5869 0.8773
H7_11 H 0.6583 0.5567 0.8831
H8_11 H 0.6479 0.5647 0.8531
C13_11 C 0.71745(18) 0.6160(3) 0.8305(2)
H9_11 H 0.7270 0.6230 0.8469
H10_11 H 0.7282 0.6003 0.8234
C14_11 C 0.7170(2) 0.6371(3) 0.8100(3)
H11_11 H 0.7132 0.6289 0.7921
H12_11 H 0.7348 0.6463 0.8096
H13_11 H 0.7027 0.6504 0.8145
O4_14 O 0.6661(5) 0.5000 0.6828(5)
O6_9 O 0.73892(12) 0.53353(11) 0.83842(14)
O7_11 O 0.73892(12) 0.46647(11) 0.83842(14)
O9_11 O 0.76108(12) 0.46647(11) 0.66158(14)
O10_11 O 0.83842(14) 0.46647(11) 0.76108(12)
O12_9 O 0.76108(12) 0.66158(14) 0.96647(11)
O14_11 O 0.83842(14) 0.23892(12) 0.96647(11)
O15_11 O 0.96647(11) 0.33842(14) 0.73892(12)
O16_11 O 0.96647(11) 0.23892(12) 0.66158(14)
O22_11 O 0.73849(13) 0.46856(12) 0.69868(18)
O23_9 O 0.76151(13) 0.53144(12) 0.80132(18)
O24_11 O 0.76151(13) 0.46856(12) 0.80132(18)
O25_11 O 0.80132(18) 0.46856(12) 0.73849(13)
O27_9 O 0.73849(13) 0.69868(18) 0.96856(12)
O29_11 O 0.80132(18) 0.26151(13) 0.96856(12)
O30_11 O 0.96856(12) 0.30132(18) 0.76151(13)
O31_11 O 0.96856(12) 0.26151(13) 0.69868(18)
C15_11 C 0.75800(16) 0.45823(13) 0.82411(19)
C16_11 C 0.82411(19) 0.45823(13) 0.74200(16)
C18_11 C 0.74200(16) 0.67589(19) 0.95823(13)
C19_11 C 0.54177(13) 0.74200(16) 0.82411(19)
C20_11 C 0.82411(19) 0.25800(16) 0.95823(13)
C21_11 C 0.95823(13) 0.32411(19) 0.75800(16)
C22_11 C 0.95823(13) 0.25800(16) 0.67589(19)
C23_11 C 0.75800(16) 0.32411(19) 0.54177(13)
C26_11 C 0.77562(12) 0.43536(13) 0.83373(18)
C27_11 C 0.83373(18) 0.43536(13) 0.72438(12)
C29_11 C 0.72438(12) 0.66627(18) 0.93536(13)
C30_11 C 0.56464(13) 0.72438(12) 0.83373(18)
C31_11 C 0.83373(18) 0.27562(12) 0.93536(13)
C32_11 C 0.93536(13) 0.33373(18) 0.77562(12)
C33_11 C 0.93536(13) 0.27562(12) 0.66627(18)
C34_11 C 0.77562(12) 0.33373(18) 0.56464(13)
C37_11 C 0.79777(15) 0.42704(14) 0.81728(18)
C38_11 C 0.81728(18) 0.42704(14) 0.70223(15)
C40_11 C 0.70223(15) 0.68272(18) 0.92704(14)
C41_11 C 0.57296(14) 0.70223(15) 0.81728(18)
C42_11 C 0.81728(18) 0.29777(15) 0.92704(14)
C43_11 C 0.92704(14) 0.31728(18) 0.79777(15)
C44_11 C 0.92704(14) 0.29777(15) 0.68272(18)
C45_11 C 0.79777(15) 0.31728(18) 0.57296(14)
H14_11 H 0.8017 0.4362 0.8006
H15_11 H 0.8006 0.4362 0.6983
H17_11 H 0.6983 0.6994 0.9362
H18_11 H 0.5638 0.6983 0.8006
H19_11 H 0.8006 0.3017 0.9362
H20_11 H 0.9362 0.3006 0.8017
H21_11 H 0.9362 0.3017 0.6994
H22_11 H 0.8017 0.3006 0.5638
C48_11 C 0.68614(13) 0.67407(15) 0.90509(13)
C49_11 C 0.59491(13) 0.68614(13) 0.82593(15)
C50_11 C 0.81386(13) 0.40509(13) 0.82593(15)
C51_11 C 0.82593(15) 0.40509(13) 0.68614(13)
C53_11 C 0.82593(15) 0.31386(13) 0.90509(13)
C54_11 C 0.90509(13) 0.32593(15) 0.81386(13)
C55_11 C 0.90509(13) 0.31386(13) 0.67407(15)
C56_11 C 0.81386(13) 0.32593(15) 0.59491(13)
C59_11 C 0.69186(12) 0.65023(15) 0.89127(13)
C60_11 C 0.60873(13) 0.69186(12) 0.84977(15)
C61_11 C 0.80814(12) 0.39127(13) 0.84977(15)
C62_11 C 0.84977(15) 0.39127(13) 0.69186(12)
C64_11 C 0.89127(13) 0.34977(15) 0.80814(12)
C65_11 C 0.80814(12) 0.34977(15) 0.60873(13)
C67_11 C 0.84977(15) 0.30814(12) 0.89127(13)
C68_11 C 0.89127(13) 0.30814(12) 0.65023(15)
C70_11 C 0.71448(14) 0.63471(16) 0.89934(14)
C71_11 C 0.60066(14) 0.71448(14) 0.86529(16)
C72_11 C 0.78552(14) 0.39934(14) 0.86529(16)
C73_11 C 0.86529(16) 0.39934(14) 0.71448(14)
C75_11 C 0.89934(14) 0.36529(16) 0.78552(14)
C76_11 C 0.78552(14) 0.36529(16) 0.60066(14)
C78_11 C 0.86529(16) 0.28552(14) 0.89934(14)
C79_11 C 0.89934(14) 0.28552(14) 0.63471(16)
H25_11 H 0.7193 0.6186 0.8895
H26_11 H 0.6105 0.7193 0.8814
H27_11 H 0.7807 0.3895 0.8814
H28_11 H 0.8814 0.3895 0.7193
H30_11 H 0.8895 0.3814 0.7807
H31_11 H 0.7807 0.3814 0.6105
H33_11 H 0.8814 0.2807 0.8895
H34_11 H 0.8895 0.2807 0.6186
C81_11 C 0.77047(14) 0.42132(14) 0.85728(17)
C82_11 C 0.85728(17) 0.42132(14) 0.72953(14)
C84_11 C 0.72953(14) 0.64272(17) 0.92132(14)
C85_11 C 0.57868(14) 0.72953(14) 0.85728(17)
C86_11 C 0.92132(14) 0.35728(17) 0.77047(14)
C87_11 C 0.77047(14) 0.35728(17) 0.57868(14)
C89_11 C 0.85728(17) 0.27047(14) 0.92132(14)
C90_11 C 0.92132(14) 0.27047(14) 0.64272(17)
H36_11 H 0.7557 0.4271 0.8686
H37_11 H 0.8686 0.4271 0.7443
H39_11 H 0.7443 0.6314 0.9271
H40_11 H 0.5729 0.7443 0.8686
H41_11 H 0.9271 0.3686 0.7557
H42_11 H 0.7557 0.3686 0.5729
H44_11 H 0.8686 0.2557 0.9271
H45_11 H 0.9271 0.2557 0.6314
C92_11 C 0.60536(16) 0.66079(16) 0.81204(18)
C93_11 C 0.66079(16) 0.68796(18) 0.89464(16)
C94_11 C 0.83921(16) 0.39464(16) 0.81204(18)
C95_11 C 0.81204(18) 0.39464(16) 0.66079(16)
C97_11 C 0.81204(18) 0.33921(16) 0.89464(16)
C98_11 C 0.89464(16) 0.33921(16) 0.68796(18)
C100_11 C 0.89464(16) 0.31204(18) 0.83921(16)
C101_11 C 0.83921(16) 0.31204(18) 0.60536(16)
C103_11 C 0.62892(13) 0.65312(13) 0.83088(14)
C104_11 C 0.65312(13) 0.66912(14) 0.87108(13)
C105_11 C 0.84688(13) 0.37108(13) 0.83088(14)
C106_11 C 0.83088(14) 0.37108(13) 0.65312(13)
C108_11 C 0.83088(14) 0.34688(13) 0.87108(13)
C109_11 C 0.87108(13) 0.34688(13) 0.66912(14)
C111_11 C 0.87108(13) 0.33088(14) 0.84688(13)
C112_11 C 0.84688(13) 0.33088(14) 0.62892(13)
C114_11 C 0.67156(13) 0.64778(13) 0.86852(13)
C115_11 C 0.63148(13) 0.67156(13) 0.85222(13)
C116_11 C 0.82844(13) 0.36852(13) 0.85222(13)
C117_11 C 0.85222(13) 0.36852(13) 0.67156(13)
C119_11 C 0.86852(13) 0.35222(13) 0.82844(13)
C120_11 C 0.82844(13) 0.35222(13) 0.63148(13)
C122_11 C 0.85222(13) 0.32844(13) 0.86852(13)
C123_11 C 0.86852(13) 0.32844(13) 0.64778(13)
C125_11 C 0.5810(2) 0.6382(2) 0.8131(2)
C126_11 C 0.6382(2) 0.6869(2) 0.9190(2)
C127_11 C 0.8618(2) 0.4190(2) 0.8131(2)
C128_11 C 0.8131(2) 0.4190(2) 0.6382(2)
C130_11 C 0.8131(2) 0.3618(2) 0.9190(2)
C131_11 C 0.9190(2) 0.3618(2) 0.6869(2)
C133_11 C 0.9190(2) 0.3131(2) 0.8618(2)
C134_11 C 0.8618(2) 0.3131(2) 0.5810(2)
H47_11 H 0.5651 0.6453 0.8028
H48_11 H 0.6453 0.6972 0.9349
H49_11 H 0.8547 0.4349 0.8028
H50_11 H 0.8028 0.4349 0.6453
H52_11 H 0.8028 0.3547 0.9349
H53_11 H 0.9349 0.3547 0.6972
H55_11 H 0.9349 0.3028 0.8547
H56_11 H 0.8547 0.3028 0.5651
H58_11 H 0.5874 0.6214 0.8038
H59_11 H 0.6214 0.6962 0.9126
H60_11 H 0.8786 0.4126 0.8038
H61_11 H 0.8038 0.4126 0.6214
H63_11 H 0.8038 0.3786 0.9126
H64_11 H 0.9126 0.3786 0.6962
H66_11 H 0.9126 0.3038 0.8786
H67_11 H 0.8786 0.3038 0.5874
C136_11 C 0.5714(3) 0.6304(3) 0.8428(3)
C137_11 C 0.6304(3) 0.6572(3) 0.9286(3)
C138_11 C 0.8696(3) 0.4286(3) 0.8428(3)
C139_11 C 0.8428(3) 0.4286(3) 0.6304(3)
C141_11 C 0.8428(3) 0.3696(3) 0.9286(3)
C142_11 C 0.9286(3) 0.3696(3) 0.6572(3)
C144_11 C 0.9286(3) 0.3428(3) 0.8696(3)
C145_11 C 0.8696(3) 0.3428(3) 0.5714(3)
H69_11 H 0.5869 0.6227 0.8530
H70_11 H 0.6227 0.6470 0.9131
H71_11 H 0.8773 0.4131 0.8530
H72_11 H 0.8530 0.4131 0.6227
H74_11 H 0.8530 0.3773 0.9131
H75_11 H 0.9131 0.3773 0.6470
H77_11 H 0.9131 0.3530 0.8773
H78_11 H 0.8773 0.3530 0.5869
H80_11 H 0.5567 0.6169 0.8417
H81_11 H 0.6169 0.6583 0.9433
H82_11 H 0.8831 0.4433 0.8417
H83_11 H 0.8417 0.4433 0.6169
H85_11 H 0.8417 0.3831 0.9433
H86_11 H 0.9433 0.3831 0.6583
H88_11 H 0.9433 0.3417 0.8831
H89_11 H 0.8831 0.3417 0.5567
H91_11 H 0.5647 0.6469 0.8521
H92_11 H 0.6469 0.6479 0.9353
H93_11 H 0.8531 0.4353 0.8521
H94_11 H 0.8521 0.4353 0.6469
H96_11 H 0.8521 0.3531 0.9353
H97_11 H 0.9353 0.3531 0.6479
H99_11 H 0.9353 0.3521 0.8531
H100_11 H 0.8531 0.3521 0.5647
C147_11 C 0.6160(3) 0.6695(2) 0.78255(18)
C148_11 C 0.6695(2) 0.71745(18) 0.8840(3)
C149_11 C 0.8305(2) 0.3840(3) 0.78255(18)
C150_11 C 0.78255(18) 0.3840(3) 0.6695(2)
C152_11 C 0.78255(18) 0.3305(2) 0.8840(3)
C153_11 C 0.8840(3) 0.3305(2) 0.71745(18)
C155_11 C 0.8840(3) 0.28255(18) 0.8305(2)
C156_11 C 0.8305(2) 0.28255(18) 0.6160(3)
H102_11 H 0.6230 0.6531 0.7730
H103_11 H 0.6531 0.7270 0.8770
H104_11 H 0.8469 0.3770 0.7730
H105_11 H 0.7730 0.3770 0.6531
H107_11 H 0.7730 0.3469 0.8770
H108_11 H 0.8770 0.3469 0.7270
H110_11 H 0.8770 0.2730 0.8469
H111_11 H 0.8469 0.2730 0.6230
H113_11 H 0.6003 0.6766 0.7718
H114_11 H 0.6766 0.7282 0.8997
H115_11 H 0.8234 0.3997 0.7718
H116_11 H 0.7718 0.3997 0.6766
H118_11 H 0.7718 0.3234 0.8997
H119_11 H 0.8997 0.3234 0.7282
H121_11 H 0.8997 0.2718 0.8234
H122_11 H 0.8234 0.2718 0.6003
C158_11 C 0.6371(3) 0.6900(3) 0.7830(2)
C159_11 C 0.6900(3) 0.7170(2) 0.8629(3)
C160_11 C 0.8100(3) 0.3629(3) 0.7830(2)
C161_11 C 0.7830(2) 0.3629(3) 0.6900(3)
C163_11 C 0.7830(2) 0.3100(3) 0.8629(3)
C164_11 C 0.8629(3) 0.3100(3) 0.7170(2)
C166_11 C 0.8629(3) 0.2830(2) 0.8100(3)
C167_11 C 0.8100(3) 0.2830(2) 0.6371(3)
H124_11 H 0.6289 0.7079 0.7868
H125_11 H 0.7079 0.7132 0.8711
H126_11 H 0.7921 0.3711 0.7868
H127_11 H 0.7868 0.3711 0.7079
H129_11 H 0.7868 0.2921 0.8711
H130_11 H 0.8711 0.2921 0.7132
H132_11 H 0.8711 0.2868 0.7921
H133_11 H 0.7921 0.2868 0.6289
H135_11 H 0.6463 0.6904 0.7652
H136_11 H 0.6904 0.7348 0.8537
H137_11 H 0.8096 0.3537 0.7652
H138_11 H 0.7652 0.3537 0.6904
H140_11 H 0.7652 0.3096 0.8537
H141_11 H 0.8537 0.3096 0.7348
H143_11 H 0.8537 0.2652 0.8096
H144_11 H 0.8096 0.2652 0.6463
H146_11 H 0.6504 0.6855 0.7973
H147_11 H 0.6855 0.7027 0.8496
H148_11 H 0.8145 0.3496 0.7973
H149_11 H 0.7973 0.3496 0.6855
H151_11 H 0.7973 0.3145 0.8496
H152_11 H 0.8496 0.3145 0.7027
H154_11 H 0.8496 0.2973 0.8145
H155_11 H 0.8145 0.2973 0.6504
O35_14 O 0.6828(5) 0.5000 0.8339(5)
O36_14 O 0.8172(5) 0.5000 0.6661(5)
O37_14 O 0.8339(5) 0.5000 0.8172(5)
O1_12 O 0.33842(14) 0.46647(11) 0.73892(12)
O2_12 O 0.30132(18) 0.46856(12) 0.76151(13)
O3_15 O 0.2500 0.5000 0.7500
C1_12 C 0.32411(19) 0.45823(13) 0.75800(16)
C2_12 C 0.33373(18) 0.43536(13) 0.77562(12)
C3_12 C 0.31728(18) 0.42704(14) 0.79777(15)
H1_12 H 0.3006 0.4362 0.8017
C4_12 C 0.32593(15) 0.40509(13) 0.81386(13)
C5_12 C 0.34977(15) 0.39127(13) 0.80814(12)
C6_12 C 0.36529(16) 0.39934(14) 0.78552(14)
H2_12 H 0.3814 0.3895 0.7807
C7_12 C 0.35728(17) 0.42132(14) 0.77047(14)
H3_12 H 0.3686 0.4271 0.7557
C8_12 C 0.31204(18) 0.39464(16) 0.83921(16)
C9_12 C 0.33088(14) 0.37108(13) 0.84688(13)
C10_12 C 0.35222(13) 0.36852(13) 0.82844(13)
C11_12 C 0.3131(2) 0.4190(2) 0.8618(2)
H4_12 H 0.3028 0.4349 0.8547
H5_12 H 0.3038 0.4126 0.8786
C12_12 C 0.3428(3) 0.4286(3) 0.8696(3)
H6_12 H 0.3530 0.4131 0.8773
H7_12 H 0.3417 0.4433 0.8831
H8_12 H 0.3521 0.4353 0.8531
C13_12 C 0.28255(18) 0.3840(3) 0.8305(2)
H9_12 H 0.2730 0.3770 0.8469
H10_12 H 0.2718 0.3997 0.8234
C14_12 C 0.2830(2) 0.3629(3) 0.8100(3)
H11_12 H 0.2868 0.3711 0.7921
H12_12 H 0.2652 0.3537 0.8096
H13_12 H 0.2973 0.3496 0.8145
O4_15 O 0.3339(5) 0.5000 0.6828(5)
Pb12_8 Pb 0.0000 0.72135(3) 0.80478(3)
O7_12 O 0.26108(12) 0.53353(11) 0.83842(14)
O9_12 O 0.23892(12) 0.53353(11) 0.66158(14)
O10_12 O 0.16158(14) 0.53353(11) 0.76108(12)
O11_8 O 0.16158(14) 0.46647(11) 0.76108(12)
O14_12 O 0.16158(14) 0.76108(12) 0.96647(11)
O15_12 O 0.03353(11) 0.66158(14) 0.73892(12)
O16_12 O 0.03353(11) 0.76108(12) 0.66158(14)
O22_12 O 0.26151(13) 0.53144(12) 0.69868(18)
O24_12 O 0.23849(13) 0.53144(12) 0.80132(18)
O25_12 O 0.19868(18) 0.53144(12) 0.73849(13)
O26_8 O 0.19868(18) 0.46856(12) 0.73849(13)
O29_12 O 0.19868(18) 0.73849(13) 0.96856(12)
O30_12 O 0.03144(12) 0.69868(18) 0.76151(13)
O31_12 O 0.03144(12) 0.73849(13) 0.69868(18)
C15_12 C 0.24200(16) 0.54177(13) 0.82411(19)
C16_12 C 0.17589(19) 0.54177(13) 0.74200(16)
C18_12 C 0.25800(16) 0.32411(19) 0.95823(13)
C19_12 C 0.45823(13) 0.25800(16) 0.82411(19)
C20_12 C 0.17589(19) 0.74200(16) 0.95823(13)
C21_12 C 0.04177(13) 0.67589(19) 0.75800(16)
C22_12 C 0.04177(13) 0.74200(16) 0.67589(19)
C23_12 C 0.24200(16) 0.67589(19) 0.54177(13)
C26_12 C 0.22438(12) 0.56464(13) 0.83373(18)
C27_12 C 0.16627(18) 0.56464(13) 0.72438(12)
C29_12 C 0.27562(12) 0.33373(18) 0.93536(13)
C30_12 C 0.43536(13) 0.27562(12) 0.83373(18)
C31_12 C 0.16627(18) 0.72438(12) 0.93536(13)
C32_12 C 0.06464(13) 0.66627(18) 0.77562(12)
C33_12 C 0.06464(13) 0.72438(12) 0.66627(18)
C34_12 C 0.22438(12) 0.66627(18) 0.56464(13)
C37_12 C 0.20223(15) 0.57296(14) 0.81728(18)
C38_12 C 0.18272(18) 0.57296(14) 0.70223(15)
C40_12 C 0.29777(15) 0.31728(18) 0.92704(14)
C41_12 C 0.42704(14) 0.29777(15) 0.81728(18)
C42_12 C 0.18272(18) 0.70223(15) 0.92704(14)
C43_12 C 0.07296(14) 0.68272(18) 0.79777(15)
C44_12 C 0.07296(14) 0.70223(15) 0.68272(18)
C45_12 C 0.20223(15) 0.68272(18) 0.57296(14)
H14_12 H 0.1983 0.5638 0.8006
H15_12 H 0.1994 0.5638 0.6983
H17_12 H 0.3017 0.3006 0.9362
H18_12 H 0.4362 0.3017 0.8006
H19_12 H 0.1994 0.6983 0.9362
H20_12 H 0.0638 0.6994 0.8017
H21_12 H 0.0638 0.6983 0.6994
H22_12 H 0.1983 0.6994 0.5638
C48_12 C 0.31386(13) 0.32593(15) 0.90509(13)
C49_12 C 0.40509(13) 0.31386(13) 0.82593(15)
C50_12 C 0.18614(13) 0.59491(13) 0.82593(15)
C51_12 C 0.17407(15) 0.59491(13) 0.68614(13)
C53_12 C 0.17407(15) 0.68614(13) 0.90509(13)
C54_12 C 0.09491(13) 0.67407(15) 0.81386(13)
C55_12 C 0.09491(13) 0.68614(13) 0.67407(15)
C56_12 C 0.18614(13) 0.67407(15) 0.59491(13)
C59_12 C 0.30814(12) 0.34977(15) 0.89127(13)
C60_12 C 0.39127(13) 0.30814(12) 0.84977(15)
C61_12 C 0.19186(12) 0.60873(13) 0.84977(15)
C62_12 C 0.15023(15) 0.60873(13) 0.69186(12)
C64_12 C 0.10873(13) 0.65023(15) 0.80814(12)
C65_12 C 0.19186(12) 0.65023(15) 0.60873(13)
C67_12 C 0.15023(15) 0.69186(12) 0.89127(13)
C68_12 C 0.10873(13) 0.69186(12) 0.65023(15)
C70_12 C 0.28552(14) 0.36529(16) 0.89934(14)
C71_12 C 0.39934(14) 0.28552(14) 0.86529(16)
C72_12 C 0.21448(14) 0.60066(14) 0.86529(16)
C73_12 C 0.13471(16) 0.60066(14) 0.71448(14)
C75_12 C 0.10066(14) 0.63471(16) 0.78552(14)
C76_12 C 0.21448(14) 0.63471(16) 0.60066(14)
C78_12 C 0.13471(16) 0.71448(14) 0.89934(14)
C79_12 C 0.10066(14) 0.71448(14) 0.63471(16)
H25_12 H 0.2807 0.3814 0.8895
H26_12 H 0.3895 0.2807 0.8814
H27_12 H 0.2193 0.6105 0.8814
H28_12 H 0.1186 0.6105 0.7193
H30_12 H 0.1105 0.6186 0.7807
H31_12 H 0.2193 0.6186 0.6105
H33_12 H 0.1186 0.7193 0.8895
H34_12 H 0.1105 0.7193 0.6186
C81_12 C 0.22953(14) 0.57868(14) 0.85728(17)
C82_12 C 0.14272(17) 0.57868(14) 0.72953(14)
C84_12 C 0.27047(14) 0.35728(17) 0.92132(14)
C85_12 C 0.42132(14) 0.27047(14) 0.85728(17)
C86_12 C 0.07868(14) 0.64272(17) 0.77047(14)
C87_12 C 0.22953(14) 0.64272(17) 0.57868(14)
C89_12 C 0.14272(17) 0.72953(14) 0.92132(14)
C90_12 C 0.07868(14) 0.72953(14) 0.64272(17)
H36_12 H 0.2443 0.5729 0.8686
H37_12 H 0.1314 0.5729 0.7443
H39_12 H 0.2557 0.3686 0.9271
H40_12 H 0.4271 0.2557 0.8686
H41_12 H 0.0729 0.6314 0.7557
H42_12 H 0.2443 0.6314 0.5729
H44_12 H 0.1314 0.7443 0.9271
H45_12 H 0.0729 0.7443 0.6314
C92_12 C 0.39464(16) 0.33921(16) 0.81204(18)
C93_12 C 0.33921(16) 0.31204(18) 0.89464(16)
C94_12 C 0.16079(16) 0.60536(16) 0.81204(18)
C95_12 C 0.18796(18) 0.60536(16) 0.66079(16)
C97_12 C 0.18796(18) 0.66079(16) 0.89464(16)
C98_12 C 0.10536(16) 0.66079(16) 0.68796(18)
C100_12 C 0.10536(16) 0.68796(18) 0.83921(16)
C101_12 C 0.16079(16) 0.68796(18) 0.60536(16)
C103_12 C 0.37108(13) 0.34688(13) 0.83088(14)
C104_12 C 0.34688(13) 0.33088(14) 0.87108(13)
C105_12 C 0.15312(13) 0.62892(13) 0.83088(14)
C106_12 C 0.16912(14) 0.62892(13) 0.65312(13)
C108_12 C 0.16912(14) 0.65312(13) 0.87108(13)
C109_12 C 0.12892(13) 0.65312(13) 0.66912(14)
C111_12 C 0.12892(13) 0.66912(14) 0.84688(13)
C112_12 C 0.15312(13) 0.66912(14) 0.62892(13)
C114_12 C 0.32844(13) 0.35222(13) 0.86852(13)
C115_12 C 0.36852(13) 0.32844(13) 0.85222(13)
C116_12 C 0.17156(13) 0.63148(13) 0.85222(13)
C117_12 C 0.14778(13) 0.63148(13) 0.67156(13)
C119_12 C 0.13148(13) 0.64778(13) 0.82844(13)
C120_12 C 0.17156(13) 0.64778(13) 0.63148(13)
C122_12 C 0.14778(13) 0.67156(13) 0.86852(13)
C123_12 C 0.13148(13) 0.67156(13) 0.64778(13)
C125_12 C 0.4190(2) 0.3618(2) 0.8131(2)
C126_12 C 0.3618(2) 0.3131(2) 0.9190(2)
C127_12 C 0.1382(2) 0.5810(2) 0.8131(2)
C128_12 C 0.1869(2) 0.5810(2) 0.6382(2)
C130_12 C 0.1869(2) 0.6382(2) 0.9190(2)
C131_12 C 0.0810(2) 0.6382(2) 0.6869(2)
C133_12 C 0.0810(2) 0.6869(2) 0.8618(2)
C134_12 C 0.1382(2) 0.6869(2) 0.5810(2)
H47_12 H 0.4349 0.3547 0.8028
H48_12 H 0.3547 0.3028 0.9349
H49_12 H 0.1453 0.5651 0.8028
H50_12 H 0.1972 0.5651 0.6453
H52_12 H 0.1972 0.6453 0.9349
H53_12 H 0.0651 0.6453 0.6972
H55_12 H 0.0651 0.6972 0.8547
H56_12 H 0.1453 0.6972 0.5651
H58_12 H 0.4126 0.3786 0.8038
H59_12 H 0.3786 0.3038 0.9126
H60_12 H 0.1214 0.5874 0.8038
H61_12 H 0.1962 0.5874 0.6214
H63_12 H 0.1962 0.6214 0.9126
H64_12 H 0.0874 0.6214 0.6962
H66_12 H 0.0874 0.6962 0.8786
H67_12 H 0.1214 0.6962 0.5874
C136_12 C 0.4286(3) 0.3696(3) 0.8428(3)
C137_12 C 0.3696(3) 0.3428(3) 0.9286(3)
C138_12 C 0.1304(3) 0.5714(3) 0.8428(3)
C139_12 C 0.1572(3) 0.5714(3) 0.6304(3)
C141_12 C 0.1572(3) 0.6304(3) 0.9286(3)
C142_12 C 0.0714(3) 0.6304(3) 0.6572(3)
C144_12 C 0.0714(3) 0.6572(3) 0.8696(3)
C145_12 C 0.1304(3) 0.6572(3) 0.5714(3)
H69_12 H 0.4131 0.3773 0.8530
H70_12 H 0.3773 0.3530 0.9131
H71_12 H 0.1227 0.5869 0.8530
H72_12 H 0.1470 0.5869 0.6227
H74_12 H 0.1470 0.6227 0.9131
H75_12 H 0.0869 0.6227 0.6470
H77_12 H 0.0869 0.6470 0.8773
H78_12 H 0.1227 0.6470 0.5869
H80_12 H 0.4433 0.3831 0.8417
H81_12 H 0.3831 0.3417 0.9433
H82_12 H 0.1169 0.5567 0.8417
H83_12 H 0.1583 0.5567 0.6169
H85_12 H 0.1583 0.6169 0.9433
H86_12 H 0.0567 0.6169 0.6583
H88_12 H 0.0567 0.6583 0.8831
H89_12 H 0.1169 0.6583 0.5567
H91_12 H 0.4353 0.3531 0.8521
H92_12 H 0.3531 0.3521 0.9353
H93_12 H 0.1469 0.5647 0.8521
H94_12 H 0.1479 0.5647 0.6469
H96_12 H 0.1479 0.6469 0.9353
H97_12 H 0.0647 0.6469 0.6479
H99_12 H 0.0647 0.6479 0.8531
H100_12 H 0.1469 0.6479 0.5647
C147_12 C 0.3840(3) 0.3305(2) 0.78255(18)
C148_12 C 0.3305(2) 0.28255(18) 0.8840(3)
C149_12 C 0.1695(2) 0.6160(3) 0.78255(18)
C150_12 C 0.21745(18) 0.6160(3) 0.6695(2)
C152_12 C 0.21745(18) 0.6695(2) 0.8840(3)
C153_12 C 0.1160(3) 0.6695(2) 0.71745(18)
C155_12 C 0.1160(3) 0.71745(18) 0.8305(2)
C156_12 C 0.1695(2) 0.71745(18) 0.6160(3)
H102_12 H 0.3770 0.3469 0.7730
H103_12 H 0.3469 0.2730 0.8770
H104_12 H 0.1531 0.6230 0.7730
H105_12 H 0.2270 0.6230 0.6531
H107_12 H 0.2270 0.6531 0.8770
H108_12 H 0.1230 0.6531 0.7270
H110_12 H 0.1230 0.7270 0.8469
H111_12 H 0.1531 0.7270 0.6230
H113_12 H 0.3997 0.3234 0.7718
H114_12 H 0.3234 0.2718 0.8997
H115_12 H 0.1766 0.6003 0.7718
H116_12 H 0.2282 0.6003 0.6766
H118_12 H 0.2282 0.6766 0.8997
H119_12 H 0.1003 0.6766 0.7282
H121_12 H 0.1003 0.7282 0.8234
H122_12 H 0.1766 0.7282 0.6003
C158_12 C 0.3629(3) 0.3100(3) 0.7830(2)
C159_12 C 0.3100(3) 0.2830(2) 0.8629(3)
C160_12 C 0.1900(3) 0.6371(3) 0.7830(2)
C161_12 C 0.2170(2) 0.6371(3) 0.6900(3)
C163_12 C 0.2170(2) 0.6900(3) 0.8629(3)
C164_12 C 0.1371(3) 0.6900(3) 0.7170(2)
C166_12 C 0.1371(3) 0.7170(2) 0.8100(3)
C167_12 C 0.1900(3) 0.7170(2) 0.6371(3)
H124_12 H 0.3711 0.2921 0.7868
H125_12 H 0.2921 0.2868 0.8711
H126_12 H 0.2079 0.6289 0.7868
H127_12 H 0.2132 0.6289 0.7079
H129_12 H 0.2132 0.7079 0.8711
H130_12 H 0.1289 0.7079 0.7132
H132_12 H 0.1289 0.7132 0.7921
H133_12 H 0.2079 0.7132 0.6289
H135_12 H 0.3537 0.3096 0.7652
H136_12 H 0.3096 0.2652 0.8537
H137_12 H 0.1904 0.6463 0.7652
H138_12 H 0.2348 0.6463 0.6904
H140_12 H 0.2348 0.6904 0.8537
H141_12 H 0.1463 0.6904 0.7348
H143_12 H 0.1463 0.7348 0.8096
H144_12 H 0.1904 0.7348 0.6463
H146_12 H 0.3496 0.3145 0.7973
H147_12 H 0.3145 0.2973 0.8496
H148_12 H 0.1855 0.6504 0.7973
H149_12 H 0.2027 0.6504 0.6855
H151_12 H 0.2027 0.6855 0.8496
H152_12 H 0.1504 0.6855 0.7027
H154_12 H 0.1504 0.7027 0.8145
H155_12 H 0.1855 0.7027 0.6504
O35_15 O 0.3172(5) 0.5000 0.8339(5)
O36_15 O 0.1828(5) 0.5000 0.6661(5)
O37_15 O 0.1661(5) 0.5000 0.8172(5)
Pb12_9 Pb 1.0000 0.72135(3) 0.80478(3)
O18_8 O 0.03353(11) 0.23892(12) 0.66158(14)
O19_8 O 0.26108(12) 0.33842(14) 0.53353(11)
O33_8 O 0.03144(12) 0.26151(13) 0.69868(18)
O34_8 O 0.23849(13) 0.30132(18) 0.53144(12)
C17_8 C 0.17589(19) 0.45823(13) 0.74200(16)
C24_8 C 0.04177(13) 0.25800(16) 0.67589(19)
C25_8 C 0.24200(16) 0.32411(19) 0.54177(13)
C28_8 C 0.16627(18) 0.43536(13) 0.72438(12)
C35_8 C 0.06464(13) 0.27562(12) 0.66627(18)
C36_8 C 0.22438(12) 0.33373(18) 0.56464(13)
C39_8 C 0.18272(18) 0.42704(14) 0.70223(15)
C46_8 C 0.07296(14) 0.29777(15) 0.68272(18)
C47_8 C 0.20223(15) 0.31728(18) 0.57296(14)
H16_8 H 0.1994 0.4362 0.6983
H23_8 H 0.0638 0.3017 0.6994
H24_8 H 0.1983 0.3006 0.5638
C52_8 C 0.17407(15) 0.40509(13) 0.68614(13)
C57_8 C 0.09491(13) 0.31386(13) 0.67407(15)
C58_8 C 0.18614(13) 0.32593(15) 0.59491(13)
C63_8 C 0.15023(15) 0.39127(13) 0.69186(12)
C66_8 C 0.19186(12) 0.34977(15) 0.60873(13)
C69_8 C 0.10873(13) 0.30814(12) 0.65023(15)
C74_8 C 0.13471(16) 0.39934(14) 0.71448(14)
C77_8 C 0.21448(14) 0.36529(16) 0.60066(14)
C80_8 C 0.10066(14) 0.28552(14) 0.63471(16)
H29_8 H 0.1186 0.3895 0.7193
H32_8 H 0.2193 0.3814 0.6105
H35_8 H 0.1105 0.2807 0.6186
C83_8 C 0.14272(17) 0.42132(14) 0.72953(14)
C88_8 C 0.22953(14) 0.35728(17) 0.57868(14)
C91_8 C 0.07868(14) 0.27047(14) 0.64272(17)
H38_8 H 0.1314 0.4271 0.7443
H43_8 H 0.2443 0.3686 0.5729
H46_8 H 0.0729 0.2557 0.6314
C96_8 C 0.18796(18) 0.39464(16) 0.66079(16)
C99_8 C 0.10536(16) 0.33921(16) 0.68796(18)
C102_8 C 0.16079(16) 0.31204(18) 0.60536(16)
C107_8 C 0.16912(14) 0.37108(13) 0.65312(13)
C110_8 C 0.12892(13) 0.34688(13) 0.66912(14)
C113_8 C 0.15312(13) 0.33088(14) 0.62892(13)
C118_8 C 0.14778(13) 0.36852(13) 0.67156(13)
C121_8 C 0.17156(13) 0.35222(13) 0.63148(13)
C124_8 C 0.13148(13) 0.32844(13) 0.64778(13)
C129_8 C 0.1869(2) 0.4190(2) 0.6382(2)
C132_8 C 0.0810(2) 0.3618(2) 0.6869(2)
C135_8 C 0.1382(2) 0.3131(2) 0.5810(2)
H51_8 H 0.1972 0.4349 0.6453
H54_8 H 0.0651 0.3547 0.6972
H57_8 H 0.1453 0.3028 0.5651
H62_8 H 0.1962 0.4126 0.6214
H65_8 H 0.0874 0.3786 0.6962
H68_8 H 0.1214 0.3038 0.5874
C140_8 C 0.1572(3) 0.4286(3) 0.6304(3)
C143_8 C 0.0714(3) 0.3696(3) 0.6572(3)
C146_8 C 0.1304(3) 0.3428(3) 0.5714(3)
H73_8 H 0.1470 0.4131 0.6227
H76_8 H 0.0869 0.3773 0.6470
H79_8 H 0.1227 0.3530 0.5869
H84_8 H 0.1583 0.4433 0.6169
H87_8 H 0.0567 0.3831 0.6583
H90_8 H 0.1169 0.3417 0.5567
H95_8 H 0.1479 0.4353 0.6469
H98_8 H 0.0647 0.3531 0.6479
H101_8 H 0.1469 0.3521 0.5647
C151_8 C 0.21745(18) 0.3840(3) 0.6695(2)
C154_8 C 0.1160(3) 0.3305(2) 0.71745(18)
C157_8 C 0.1695(2) 0.28255(18) 0.6160(3)
H106_8 H 0.2270 0.3770 0.6531
H109_8 H 0.1230 0.3469 0.7270
H112_8 H 0.1531 0.2730 0.6230
H117_8 H 0.2282 0.3997 0.6766
H120_8 H 0.1003 0.3234 0.7282
H123_8 H 0.1766 0.2718 0.6003
C162_8 C 0.2170(2) 0.3629(3) 0.6900(3)
C165_8 C 0.1371(3) 0.3100(3) 0.7170(2)
C168_8 C 0.1900(3) 0.2830(2) 0.6371(3)
H128_8 H 0.2132 0.3711 0.7079
H131_8 H 0.1289 0.2921 0.7132
H134_8 H 0.2079 0.2868 0.6289
H139_8 H 0.2348 0.3537 0.6904
H142_8 H 0.1463 0.3096 0.7348
H145_8 H 0.1904 0.2652 0.6463
H150_8 H 0.2027 0.3496 0.6855
H153_8 H 0.1504 0.3145 0.7027
H156_8 H 0.1855 0.2973 0.6504
C1_13 C 0.17589(19) 0.75800(16) 0.45823(13)
C2_13 C 0.16627(18) 0.77562(12) 0.43536(13)
C3_13 C 0.18272(18) 0.79777(15) 0.42704(14)
H1_13 H 0.1994 0.8017 0.4362
C4_13 C 0.17407(15) 0.81386(13) 0.40509(13)
C5_13 C 0.15023(15) 0.80814(12) 0.39127(13)
C6_13 C 0.13471(16) 0.78552(14) 0.39934(14)
H2_13 H 0.1186 0.7807 0.3895
C7_13 C 0.14272(17) 0.77047(14) 0.42132(14)
H3_13 H 0.1314 0.7557 0.4271
C8_13 C 0.18796(18) 0.83921(16) 0.39464(16)
C9_13 C 0.16912(14) 0.84688(13) 0.37108(13)
C10_13 C 0.14778(13) 0.82844(13) 0.36852(13)
C11_13 C 0.1869(2) 0.8618(2) 0.4190(2)
H4_13 H 0.1972 0.8547 0.4349
H5_13 H 0.1962 0.8786 0.4126
C12_13 C 0.1572(3) 0.8696(3) 0.4286(3)
H6_13 H 0.1470 0.8773 0.4131
H7_13 H 0.1583 0.8831 0.4433
H8_13 H 0.1479 0.8531 0.4353
C13_13 C 0.21745(18) 0.8305(2) 0.3840(3)
H9_13 H 0.2270 0.8469 0.3770
H10_13 H 0.2282 0.8234 0.3997
C14_13 C 0.2170(2) 0.8100(3) 0.3629(3)
H11_13 H 0.2132 0.7921 0.3711
H12_13 H 0.2348 0.8096 0.3537
H13_13 H 0.2027 0.8145 0.3496
O13_11 O 0.03353(11) 0.83842(14) 0.23892(12)
O28_11 O 0.03144(12) 0.80132(18) 0.26151(13)
C16_13 C 0.32411(19) 0.74200(16) 0.54177(13)
C18_13 C 0.24200(16) 0.95823(13) 0.32411(19)
C19_13 C 0.04177(13) 0.82411(19) 0.25800(16)
C22_13 C 0.45823(13) 0.67589(19) 0.74200(16)
C23_13 C 0.25800(16) 0.54177(13) 0.67589(19)
C27_13 C 0.33373(18) 0.72438(12) 0.56464(13)
C29_13 C 0.22438(12) 0.93536(13) 0.33373(18)
C30_13 C 0.06464(13) 0.83373(18) 0.27562(12)
C33_13 C 0.43536(13) 0.66627(18) 0.72438(12)
C34_13 C 0.27562(12) 0.56464(13) 0.66627(18)
C38_13 C 0.31728(18) 0.70223(15) 0.57296(14)
C40_13 C 0.20223(15) 0.92704(14) 0.31728(18)
C41_13 C 0.07296(14) 0.81728(18) 0.29777(15)
C44_13 C 0.42704(14) 0.68272(18) 0.70223(15)
C45_13 C 0.29777(15) 0.57296(14) 0.68272(18)
H15_13 H 0.3006 0.6983 0.5638
H17_13 H 0.1983 0.9362 0.3006
H18_13 H 0.0638 0.8006 0.3017
H21_13 H 0.4362 0.6994 0.6983
H22_13 H 0.3017 0.5638 0.6994
C48_13 C 0.18614(13) 0.90509(13) 0.32593(15)
C49_13 C 0.09491(13) 0.82593(15) 0.31386(13)
C51_13 C 0.32593(15) 0.68614(13) 0.59491(13)
C55_13 C 0.40509(13) 0.67407(15) 0.68614(13)
C56_13 C 0.31386(13) 0.59491(13) 0.67407(15)
C59_13 C 0.19186(12) 0.89127(13) 0.34977(15)
C60_13 C 0.10873(13) 0.84977(15) 0.30814(12)
C62_13 C 0.34977(15) 0.69186(12) 0.60873(13)
C65_13 C 0.30814(12) 0.60873(13) 0.65023(15)
C68_13 C 0.39127(13) 0.65023(15) 0.69186(12)
C70_13 C 0.21448(14) 0.89934(14) 0.36529(16)
C71_13 C 0.10066(14) 0.86529(16) 0.28552(14)
C73_13 C 0.36529(16) 0.71448(14) 0.60066(14)
C76_13 C 0.28552(14) 0.60066(14) 0.63471(16)
C79_13 C 0.39934(14) 0.63471(16) 0.71448(14)
H25_13 H 0.2193 0.8895 0.3814
H26_13 H 0.1105 0.8814 0.2807
H28_13 H 0.3814 0.7193 0.6105
H31_13 H 0.2807 0.6105 0.6186
H34_13 H 0.3895 0.6186 0.7193
C82_13 C 0.35728(17) 0.72953(14) 0.57868(14)
C84_13 C 0.22953(14) 0.92132(14) 0.35728(17)
C85_13 C 0.07868(14) 0.85728(17) 0.27047(14)
C87_13 C 0.27047(14) 0.57868(14) 0.64272(17)
C90_13 C 0.42132(14) 0.64272(17) 0.72953(14)
H37_13 H 0.3686 0.7443 0.5729
H39_13 H 0.2443 0.9271 0.3686
H40_13 H 0.0729 0.8686 0.2557
H42_13 H 0.2557 0.5729 0.6314
H45_13 H 0.4271 0.6314 0.7443
C92_13 C 0.10536(16) 0.81204(18) 0.33921(16)
C93_13 C 0.16079(16) 0.89464(16) 0.31204(18)
C95_13 C 0.31204(18) 0.66079(16) 0.60536(16)
C98_13 C 0.39464(16) 0.68796(18) 0.66079(16)
C101_13 C 0.33921(16) 0.60536(16) 0.68796(18)
C103_13 C 0.12892(13) 0.83088(14) 0.34688(13)
C104_13 C 0.15312(13) 0.87108(13) 0.33088(14)
C106_13 C 0.33088(14) 0.65312(13) 0.62892(13)
C109_13 C 0.37108(13) 0.66912(14) 0.65312(13)
C112_13 C 0.34688(13) 0.62892(13) 0.66912(14)
C114_13 C 0.17156(13) 0.86852(13) 0.35222(13)
C115_13 C 0.13148(13) 0.85222(13) 0.32844(13)
C117_13 C 0.35222(13) 0.67156(13) 0.63148(13)
C120_13 C 0.32844(13) 0.63148(13) 0.64778(13)
C123_13 C 0.36852(13) 0.64778(13) 0.67156(13)
C125_13 C 0.0810(2) 0.8131(2) 0.3618(2)
C126_13 C 0.1382(2) 0.9190(2) 0.3131(2)
C128_13 C 0.3131(2) 0.6382(2) 0.5810(2)
C131_13 C 0.4190(2) 0.6869(2) 0.6382(2)
C134_13 C 0.3618(2) 0.5810(2) 0.6869(2)
H47_13 H 0.0651 0.8028 0.3547
H48_13 H 0.1453 0.9349 0.3028
H50_13 H 0.3028 0.6453 0.5651
H53_13 H 0.4349 0.6972 0.6453
H56_13 H 0.3547 0.5651 0.6972
H58_13 H 0.0874 0.8038 0.3786
H59_13 H 0.1214 0.9126 0.3038
H61_13 H 0.3038 0.6214 0.5874
H64_13 H 0.4126 0.6962 0.6214
H67_13 H 0.3786 0.5874 0.6962
C136_13 C 0.0714(3) 0.8428(3) 0.3696(3)
C137_13 C 0.1304(3) 0.9286(3) 0.3428(3)
C139_13 C 0.3428(3) 0.6304(3) 0.5714(3)
C142_13 C 0.4286(3) 0.6572(3) 0.6304(3)
C145_13 C 0.3696(3) 0.5714(3) 0.6572(3)
H69_13 H 0.0869 0.8530 0.3773
H70_13 H 0.1227 0.9131 0.3530
H72_13 H 0.3530 0.6227 0.5869
H75_13 H 0.4131 0.6470 0.6227
H78_13 H 0.3773 0.5869 0.6470
H80_13 H 0.0567 0.8417 0.3831
H81_13 H 0.1169 0.9433 0.3417
H83_13 H 0.3417 0.6169 0.5567
H86_13 H 0.4433 0.6583 0.6169
H89_13 H 0.3831 0.5567 0.6583
H91_13 H 0.0647 0.8521 0.3531
H92_13 H 0.1469 0.9353 0.3521
H94_13 H 0.3521 0.6469 0.5647
H97_13 H 0.4353 0.6479 0.6469
H100_13 H 0.3531 0.5647 0.6479
C147_13 C 0.1160(3) 0.78255(18) 0.3305(2)
C148_13 C 0.1695(2) 0.8840(3) 0.28255(18)
C150_13 C 0.28255(18) 0.6695(2) 0.6160(3)
C153_13 C 0.3840(3) 0.71745(18) 0.6695(2)
C156_13 C 0.3305(2) 0.6160(3) 0.71745(18)
H102_13 H 0.1230 0.7730 0.3469
H103_13 H 0.1531 0.8770 0.2730
H105_13 H 0.2730 0.6531 0.6230
H108_13 H 0.3770 0.7270 0.6531
H111_13 H 0.3469 0.6230 0.7270
H113_13 H 0.1003 0.7718 0.3234
H114_13 H 0.1766 0.8997 0.2718
H116_13 H 0.2718 0.6766 0.6003
H119_13 H 0.3997 0.7282 0.6766
H122_13 H 0.3234 0.6003 0.7282
C158_13 C 0.1371(3) 0.7830(2) 0.3100(3)
C159_13 C 0.1900(3) 0.8629(3) 0.2830(2)
C161_13 C 0.2830(2) 0.6900(3) 0.6371(3)
C164_13 C 0.3629(3) 0.7170(2) 0.6900(3)
C167_13 C 0.3100(3) 0.6371(3) 0.7170(2)
H124_13 H 0.1289 0.7868 0.2921
H125_13 H 0.2079 0.8711 0.2868
H127_13 H 0.2868 0.7079 0.6289
H130_13 H 0.3711 0.7132 0.7079
H133_13 H 0.2921 0.6289 0.7132
H135_13 H 0.1463 0.7652 0.3096
H136_13 H 0.1904 0.8537 0.2652
H138_13 H 0.2652 0.6904 0.6463
H141_13 H 0.3537 0.7348 0.6904
H144_13 H 0.3096 0.6463 0.7348
H146_13 H 0.1504 0.7973 0.3145
H147_13 H 0.1855 0.8496 0.2973
H149_13 H 0.2973 0.6855 0.6504
H152_13 H 0.3496 0.7027 0.6855
H155_13 H 0.3145 0.6504 0.7027
O3_16 O 0.0000 0.7500 0.7500
O4_16 O 0.0000 0.6661(5) 0.6828(5)
O7_13 O 0.03353(11) 0.73892(12) 0.83842(14)
O14_13 O 0.26108(12) 0.83842(14) 0.96647(11)
O15_13 O 0.16158(14) 0.96647(11) 0.73892(12)
O24_13 O 0.03144(12) 0.76151(13) 0.80132(18)
O29_13 O 0.23849(13) 0.80132(18) 0.96856(12)
O30_13 O 0.19868(18) 0.96856(12) 0.76151(13)
C15_13 C 0.04177(13) 0.75800(16) 0.82411(19)
C20_13 C 0.24200(16) 0.82411(19) 0.95823(13)
C21_13 C 0.17589(19) 0.95823(13) 0.75800(16)
C26_13 C 0.06464(13) 0.77562(12) 0.83373(18)
C31_13 C 0.22438(12) 0.83373(18) 0.93536(13)
C32_13 C 0.16627(18) 0.93536(13) 0.77562(12)
C37_13 C 0.07296(14) 0.79777(15) 0.81728(18)
C42_13 C 0.20223(15) 0.81728(18) 0.92704(14)
C43_13 C 0.18272(18) 0.92704(14) 0.79777(15)
H14_13 H 0.0638 0.8017 0.8006
H19_13 H 0.1983 0.8006 0.9362
H20_13 H 0.1994 0.9362 0.8017
C50_13 C 0.09491(13) 0.81386(13) 0.82593(15)
C53_13 C 0.18614(13) 0.82593(15) 0.90509(13)
C54_13 C 0.17407(15) 0.90509(13) 0.81386(13)
C61_13 C 0.10873(13) 0.80814(12) 0.84977(15)
C64_13 C 0.15023(15) 0.89127(13) 0.80814(12)
C67_13 C 0.19186(12) 0.84977(15) 0.89127(13)
C72_13 C 0.10066(14) 0.78552(14) 0.86529(16)
C75_13 C 0.13471(16) 0.89934(14) 0.78552(14)
C78_13 C 0.21448(14) 0.86529(16) 0.89934(14)
H27_13 H 0.1105 0.7807 0.8814
H30_13 H 0.1186 0.8895 0.7807
H33_13 H 0.2193 0.8814 0.8895
C81_13 C 0.07868(14) 0.77047(14) 0.85728(17)
C86_13 C 0.14272(17) 0.92132(14) 0.77047(14)
C89_13 C 0.22953(14) 0.85728(17) 0.92132(14)
H36_13 H 0.0729 0.7557 0.8686
H41_13 H 0.1314 0.9271 0.7557
H44_13 H 0.2443 0.8686 0.9271
C94_13 C 0.10536(16) 0.83921(16) 0.81204(18)
C97_13 C 0.16079(16) 0.81204(18) 0.89464(16)
C100_13 C 0.18796(18) 0.89464(16) 0.83921(16)
C105_13 C 0.12892(13) 0.84688(13) 0.83088(14)
C108_13 C 0.15312(13) 0.83088(14) 0.87108(13)
C111_13 C 0.16912(14) 0.87108(13) 0.84688(13)
C116_13 C 0.13148(13) 0.82844(13) 0.85222(13)
C119_13 C 0.14778(13) 0.86852(13) 0.82844(13)
C122_13 C 0.17156(13) 0.85222(13) 0.86852(13)
C127_13 C 0.0810(2) 0.8618(2) 0.8131(2)
C130_13 C 0.1382(2) 0.8131(2) 0.9190(2)
C133_13 C 0.1869(2) 0.9190(2) 0.8618(2)
H49_13 H 0.0651 0.8547 0.8028
H52_13 H 0.1453 0.8028 0.9349
H55_13 H 0.1972 0.9349 0.8547
H60_13 H 0.0874 0.8786 0.8038
H63_13 H 0.1214 0.8038 0.9126
H66_13 H 0.1962 0.9126 0.8786
C138_13 C 0.0714(3) 0.8696(3) 0.8428(3)
C141_13 C 0.1304(3) 0.8428(3) 0.9286(3)
C144_13 C 0.1572(3) 0.9286(3) 0.8696(3)
H71_13 H 0.0869 0.8773 0.8530
H74_13 H 0.1227 0.8530 0.9131
H77_13 H 0.1470 0.9131 0.8773
H82_13 H 0.0567 0.8831 0.8417
H85_13 H 0.1169 0.8417 0.9433
H88_13 H 0.1583 0.9433 0.8831
H93_13 H 0.0647 0.8531 0.8521
H96_13 H 0.1469 0.8521 0.9353
H99_13 H 0.1479 0.9353 0.8531
C149_13 C 0.1160(3) 0.8305(2) 0.78255(18)
C152_13 C 0.1695(2) 0.78255(18) 0.8840(3)
C155_13 C 0.21745(18) 0.8840(3) 0.8305(2)
H104_13 H 0.1230 0.8469 0.7730
H107_13 H 0.1531 0.7730 0.8770
H110_13 H 0.2270 0.8770 0.8469
H115_13 H 0.1003 0.8234 0.7718
H118_13 H 0.1766 0.7718 0.8997
H121_13 H 0.2282 0.8997 0.8234
C160_13 C 0.1371(3) 0.8100(3) 0.7830(2)
C163_13 C 0.1900(3) 0.7830(2) 0.8629(3)
C166_13 C 0.2170(2) 0.8629(3) 0.8100(3)
H126_13 H 0.1289 0.7921 0.7868
H129_13 H 0.2079 0.7868 0.8711
H132_13 H 0.2132 0.8711 0.7921
H137_13 H 0.1463 0.8096 0.7652
H140_13 H 0.1904 0.7652 0.8537
H143_13 H 0.2348 0.8537 0.8096
H148_13 H 0.1504 0.8145 0.7973
H151_13 H 0.1855 0.7973 0.8496
H154_13 H 0.2027 0.8496 0.8145
O35_16 O -0.0000 0.6828(5) 0.8339(5)
O36_16 O -0.0000 0.8172(5) 0.6661(5)
O37_16 O 0.0000 0.8339(5) 0.8172(5)
O1_13 O 0.96647(11) 0.66158(14) 0.73892(12)
O2_13 O 0.96856(12) 0.69868(18) 0.76151(13)
O3_17 O 1.0000 0.7500 0.7500
C1_14 C 0.95823(13) 0.67589(19) 0.75800(16)
C2_14 C 0.93536(13) 0.66627(18) 0.77562(12)
C3_14 C 0.92704(14) 0.68272(18) 0.79777(15)
H1_14 H 0.9362 0.6994 0.8017
C4_14 C 0.90509(13) 0.67407(15) 0.81386(13)
C5_14 C 0.89127(13) 0.65023(15) 0.80814(12)
C6_14 C 0.89934(14) 0.63471(16) 0.78552(14)
H2_14 H 0.8895 0.6186 0.7807
C7_14 C 0.92132(14) 0.64272(17) 0.77047(14)
H3_14 H 0.9271 0.6314 0.7557
C8_14 C 0.89464(16) 0.68796(18) 0.83921(16)
C9_14 C 0.87108(13) 0.66912(14) 0.84688(13)
C10_14 C 0.86852(13) 0.64778(13) 0.82844(13)
C11_14 C 0.9190(2) 0.6869(2) 0.8618(2)
H4_14 H 0.9349 0.6972 0.8547
H5_14 H 0.9126 0.6962 0.8786
C12_14 C 0.9286(3) 0.6572(3) 0.8696(3)
H6_14 H 0.9131 0.6470 0.8773
H7_14 H 0.9433 0.6583 0.8831
H8_14 H 0.9353 0.6479 0.8531
C13_14 C 0.8840(3) 0.71745(18) 0.8305(2)
H9_14 H 0.8770 0.7270 0.8469
H10_14 H 0.8997 0.7282 0.8234
C14_14 C 0.8629(3) 0.7170(2) 0.8100(3)
H11_14 H 0.8711 0.7132 0.7921
H12_14 H 0.8537 0.7348 0.8096
H13_14 H 0.8496 0.7027 0.8145
O4_17 O 1.0000 0.6661(5) 0.6828(5)
O6_10 O 0.96647(11) 0.73892(12) 0.83842(14)
O11_9 O 0.96647(11) 0.83842(14) 0.76108(12)
O12_10 O 0.83842(14) 0.76108(12) 0.96647(11)
O23_10 O 0.96856(12) 0.76151(13) 0.80132(18)
O26_9 O 0.96856(12) 0.80132(18) 0.73849(13)
O27_10 O 0.80132(18) 0.73849(13) 0.96856(12)
C18_14 C 0.82411(19) 0.74200(16) 0.95823(13)
C19_14 C 0.75800(16) 0.54177(13) 0.82411(19)
C29_14 C 0.83373(18) 0.72438(12) 0.93536(13)
C30_14 C 0.77562(12) 0.56464(13) 0.83373(18)
C40_14 C 0.81728(18) 0.70223(15) 0.92704(14)
C41_14 C 0.79777(15) 0.57296(14) 0.81728(18)
H17_14 H 0.8006 0.6983 0.9362
H18_14 H 0.8017 0.5638 0.8006
C48_14 C 0.82593(15) 0.68614(13) 0.90509(13)
C49_14 C 0.81386(13) 0.59491(13) 0.82593(15)
C59_14 C 0.84977(15) 0.69186(12) 0.89127(13)
C60_14 C 0.80814(12) 0.60873(13) 0.84977(15)
C70_14 C 0.86529(16) 0.71448(14) 0.89934(14)
C71_14 C 0.78552(14) 0.60066(14) 0.86529(16)
H25_14 H 0.8814 0.7193 0.8895
H26_14 H 0.7807 0.6105 0.8814
C84_14 C 0.85728(17) 0.72953(14) 0.92132(14)
C85_14 C 0.77047(14) 0.57868(14) 0.85728(17)
H39_14 H 0.8686 0.7443 0.9271
H40_14 H 0.7557 0.5729 0.8686
C92_14 C 0.83921(16) 0.60536(16) 0.81204(18)
C93_14 C 0.81204(18) 0.66079(16) 0.89464(16)
C103_14 C 0.84688(13) 0.62892(13) 0.83088(14)
C104_14 C 0.83088(14) 0.65312(13) 0.87108(13)
C114_14 C 0.85222(13) 0.67156(13) 0.86852(13)
C115_14 C 0.82844(13) 0.63148(13) 0.85222(13)
C125_14 C 0.8618(2) 0.5810(2) 0.8131(2)
C126_14 C 0.8131(2) 0.6382(2) 0.9190(2)
H47_14 H 0.8547 0.5651 0.8028
H48_14 H 0.8028 0.6453 0.9349
H58_14 H 0.8786 0.5874 0.8038
H59_14 H 0.8038 0.6214 0.9126
C136_14 C 0.8696(3) 0.5714(3) 0.8428(3)
C137_14 C 0.8428(3) 0.6304(3) 0.9286(3)
H69_14 H 0.8773 0.5869 0.8530
H70_14 H 0.8530 0.6227 0.9131
H80_14 H 0.8831 0.5567 0.8417
H81_14 H 0.8417 0.6169 0.9433
H91_14 H 0.8531 0.5647 0.8521
H92_14 H 0.8521 0.6469 0.9353
C147_14 C 0.8305(2) 0.6160(3) 0.78255(18)
C148_14 C 0.78255(18) 0.6695(2) 0.8840(3)
H102_14 H 0.8469 0.6230 0.7730
H103_14 H 0.7730 0.6531 0.8770
H113_14 H 0.8234 0.6003 0.7718
H114_14 H 0.7718 0.6766 0.8997
C158_14 C 0.8100(3) 0.6371(3) 0.7830(2)
C159_14 C 0.7830(2) 0.6900(3) 0.8629(3)
H124_14 H 0.7921 0.6289 0.7868
H125_14 H 0.7868 0.7079 0.8711
H135_14 H 0.8096 0.6463 0.7652
H136_14 H 0.7652 0.6904 0.8537
H146_14 H 0.8145 0.6504 0.7973
H147_14 H 0.7973 0.6855 0.8496
O35_17 O 1.0000 0.6828(5) 0.8339(5)
O36_17 O 1.0000 0.8172(5) 0.6661(5)
O37_17 O 1.0000 0.8339(5) 0.8172(5)
O18_9 O 0.23892(12) 0.03353(11) 0.83842(14)
O33_9 O 0.26151(13) 0.03144(12) 0.80132(18)
C15_14 C 0.54177(13) 0.32411(19) 0.74200(16)
C17_9 C 0.45823(13) 0.17589(19) 0.75800(16)
C20_14 C 0.74200(16) 0.45823(13) 0.67589(19)
C21_14 C 0.67589(19) 0.25800(16) 0.54177(13)
C24_9 C 0.25800(16) 0.04177(13) 0.82411(19)
C25_9 C 0.32411(19) 0.24200(16) 0.95823(13)
C26_14 C 0.56464(13) 0.33373(18) 0.72438(12)
C28_9 C 0.43536(13) 0.16627(18) 0.77562(12)
C31_14 C 0.72438(12) 0.43536(13) 0.66627(18)
C32_14 C 0.66627(18) 0.27562(12) 0.56464(13)
C35_9 C 0.27562(12) 0.06464(13) 0.83373(18)
C36_9 C 0.33373(18) 0.22438(12) 0.93536(13)
C37_14 C 0.57296(14) 0.31728(18) 0.70223(15)
C39_9 C 0.42704(14) 0.18272(18) 0.79777(15)
C42_14 C 0.70223(15) 0.42704(14) 0.68272(18)
C43_14 C 0.68272(18) 0.29777(15) 0.57296(14)
C46_9 C 0.29777(15) 0.07296(14) 0.81728(18)
C47_9 C 0.31728(18) 0.20223(15) 0.92704(14)
H14_14 H 0.5638 0.3006 0.6983
H16_9 H 0.4362 0.1994 0.8017
H19_14 H 0.6983 0.4362 0.6994
H20_14 H 0.6994 0.3017 0.5638
H23_9 H 0.3017 0.0638 0.8006
H24_9 H 0.3006 0.1983 0.9362
C50_14 C 0.59491(13) 0.32593(15) 0.68614(13)
C52_9 C 0.40509(13) 0.17407(15) 0.81386(13)
C53_14 C 0.68614(13) 0.40509(13) 0.67407(15)
C54_14 C 0.67407(15) 0.31386(13) 0.59491(13)
C57_9 C 0.31386(13) 0.09491(13) 0.82593(15)
C58_9 C 0.32593(15) 0.18614(13) 0.90509(13)
C61_14 C 0.60873(13) 0.34977(15) 0.69186(12)
C63_9 C 0.39127(13) 0.15023(15) 0.80814(12)
C64_14 C 0.65023(15) 0.30814(12) 0.60873(13)
C66_9 C 0.34977(15) 0.19186(12) 0.89127(13)
C67_14 C 0.69186(12) 0.39127(13) 0.65023(15)
C69_9 C 0.30814(12) 0.10873(13) 0.84977(15)
C72_14 C 0.60066(14) 0.36529(16) 0.71448(14)
C74_9 C 0.39934(14) 0.13471(16) 0.78552(14)
C75_14 C 0.63471(16) 0.28552(14) 0.60066(14)
C77_9 C 0.36529(16) 0.21448(14) 0.89934(14)
C78_14 C 0.71448(14) 0.39934(14) 0.63471(16)
C80_9 C 0.28552(14) 0.10066(14) 0.86529(16)
H27_14 H 0.6105 0.3814 0.7193
H29_9 H 0.3895 0.1186 0.7807
H30_14 H 0.6186 0.2807 0.6105
H32_9 H 0.3814 0.2193 0.8895
H33_14 H 0.7193 0.3895 0.6186
H35_9 H 0.2807 0.1105 0.8814
C81_14 C 0.57868(14) 0.35728(17) 0.72953(14)
C83_9 C 0.42132(14) 0.14272(17) 0.77047(14)
C86_14 C 0.64272(17) 0.27047(14) 0.57868(14)
C88_9 C 0.35728(17) 0.22953(14) 0.92132(14)
C89_14 C 0.72953(14) 0.42132(14) 0.64272(17)
C91_9 C 0.27047(14) 0.07868(14) 0.85728(17)
H36_14 H 0.5729 0.3686 0.7443
H38_9 H 0.4271 0.1314 0.7557
H41_14 H 0.6314 0.2557 0.5729
H43_9 H 0.3686 0.2443 0.9271
H44_14 H 0.7443 0.4271 0.6314
H46_9 H 0.2557 0.0729 0.8686
C94_14 C 0.60536(16) 0.31204(18) 0.66079(16)
C96_9 C 0.39464(16) 0.18796(18) 0.83921(16)
C97_14 C 0.66079(16) 0.39464(16) 0.68796(18)
C99_9 C 0.33921(16) 0.10536(16) 0.81204(18)
C100_14 C 0.68796(18) 0.33921(16) 0.60536(16)
C102_9 C 0.31204(18) 0.16079(16) 0.89464(16)
C105_14 C 0.62892(13) 0.33088(14) 0.65312(13)
C107_9 C 0.37108(13) 0.16912(14) 0.84688(13)
C108_14 C 0.65312(13) 0.37108(13) 0.66912(14)
C110_9 C 0.34688(13) 0.12892(13) 0.83088(14)
C111_14 C 0.66912(14) 0.34688(13) 0.62892(13)
C113_9 C 0.33088(14) 0.15312(13) 0.87108(13)
C116_14 C 0.63148(13) 0.35222(13) 0.67156(13)
C118_9 C 0.36852(13) 0.14778(13) 0.82844(13)
C119_14 C 0.64778(13) 0.32844(13) 0.63148(13)
C121_9 C 0.35222(13) 0.17156(13) 0.86852(13)
C122_14 C 0.67156(13) 0.36852(13) 0.64778(13)
C124_9 C 0.32844(13) 0.13148(13) 0.85222(13)
C127_14 C 0.5810(2) 0.3131(2) 0.6382(2)
C129_9 C 0.4190(2) 0.1869(2) 0.8618(2)
C130_14 C 0.6382(2) 0.4190(2) 0.6869(2)
C132_9 C 0.3618(2) 0.0810(2) 0.8131(2)
C133_14 C 0.6869(2) 0.3618(2) 0.5810(2)
C135_9 C 0.3131(2) 0.1382(2) 0.9190(2)
H49_14 H 0.5651 0.3028 0.6453
H51_9 H 0.4349 0.1972 0.8547
H52_14 H 0.6453 0.4349 0.6972
H54_9 H 0.3547 0.0651 0.8028
H55_14 H 0.6972 0.3547 0.5651
H57_9 H 0.3028 0.1453 0.9349
H60_14 H 0.5874 0.3038 0.6214
H62_9 H 0.4126 0.1962 0.8786
H63_14 H 0.6214 0.4126 0.6962
H65_9 H 0.3786 0.0874 0.8038
H66_14 H 0.6962 0.3786 0.5874
H68_9 H 0.3038 0.1214 0.9126
C138_14 C 0.5714(3) 0.3428(3) 0.6304(3)
C140_9 C 0.4286(3) 0.1572(3) 0.8696(3)
C141_14 C 0.6304(3) 0.4286(3) 0.6572(3)
C143_9 C 0.3696(3) 0.0714(3) 0.8428(3)
C144_14 C 0.6572(3) 0.3696(3) 0.5714(3)
C146_9 C 0.3428(3) 0.1304(3) 0.9286(3)
H71_14 H 0.5869 0.3530 0.6227
H73_9 H 0.4131 0.1470 0.8773
H74_14 H 0.6227 0.4131 0.6470
H76_9 H 0.3773 0.0869 0.8530
H77_14 H 0.6470 0.3773 0.5869
H79_9 H 0.3530 0.1227 0.9131
H82_14 H 0.5567 0.3417 0.6169
H84_9 H 0.4433 0.1583 0.8831
H85_14 H 0.6169 0.4433 0.6583
H87_9 H 0.3831 0.0567 0.8417
H88_14 H 0.6583 0.3831 0.5567
H90_9 H 0.3417 0.1169 0.9433
H93_14 H 0.5647 0.3521 0.6469
H95_9 H 0.4353 0.1479 0.8531
H96_14 H 0.6469 0.4353 0.6479
H98_9 H 0.3531 0.0647 0.8521
H99_14 H 0.6479 0.3531 0.5647
H101_9 H 0.3521 0.1469 0.9353
C149_14 C 0.6160(3) 0.28255(18) 0.6695(2)
C151_9 C 0.3840(3) 0.21745(18) 0.8305(2)
C152_14 C 0.6695(2) 0.3840(3) 0.71745(18)
C154_9 C 0.3305(2) 0.1160(3) 0.78255(18)
C155_14 C 0.71745(18) 0.3305(2) 0.6160(3)
C157_9 C 0.28255(18) 0.1695(2) 0.8840(3)
H104_14 H 0.6230 0.2730 0.6531
H106_9 H 0.3770 0.2270 0.8469
H107_14 H 0.6531 0.3770 0.7270
H109_9 H 0.3469 0.1230 0.7730
H110_14 H 0.7270 0.3469 0.6230
H112_9 H 0.2730 0.1531 0.8770
H115_14 H 0.6003 0.2718 0.6766
H117_9 H 0.3997 0.2282 0.8234
H118_14 H 0.6766 0.3997 0.7282
H120_9 H 0.3234 0.1003 0.7718
H121_14 H 0.7282 0.3234 0.6003
H123_9 H 0.2718 0.1766 0.8997
C160_14 C 0.6371(3) 0.2830(2) 0.6900(3)
C162_9 C 0.3629(3) 0.2170(2) 0.8100(3)
C163_14 C 0.6900(3) 0.3629(3) 0.7170(2)
C165_9 C 0.3100(3) 0.1371(3) 0.7830(2)
C166_14 C 0.7170(2) 0.3100(3) 0.6371(3)
C168_9 C 0.2830(2) 0.1900(3) 0.8629(3)
H126_14 H 0.6289 0.2868 0.7079
H128_9 H 0.3711 0.2132 0.7921
H129_14 H 0.7079 0.3711 0.7132
H131_9 H 0.2921 0.1289 0.7868
H132_14 H 0.7132 0.2921 0.6289
H134_9 H 0.2868 0.2079 0.8711
H137_14 H 0.6463 0.2652 0.6904
H139_9 H 0.3537 0.2348 0.8096
H140_14 H 0.6904 0.3537 0.7348
H142_9 H 0.3096 0.1463 0.7652
H143_14 H 0.7348 0.3096 0.6463
H145_9 H 0.2652 0.1904 0.8537
H148_14 H 0.6504 0.2973 0.6855
H150_9 H 0.3496 0.2027 0.8145
H151_14 H 0.6855 0.3496 0.7027
H153_9 H 0.3145 0.1504 0.7973
H154_14 H 0.7027 0.3145 0.6504
H156_9 H 0.2973 0.1855 0.8496
C1_15 C 0.45823(13) 0.74200(16) 0.17589(19)
C2_15 C 0.43536(13) 0.72438(12) 0.16627(18)
C3_15 C 0.42704(14) 0.70223(15) 0.18272(18)
H1_15 H 0.4362 0.6983 0.1994
C4_15 C 0.40509(13) 0.68614(13) 0.17407(15)
C5_15 C 0.39127(13) 0.69186(12) 0.15023(15)
C6_15 C 0.39934(14) 0.71448(14) 0.13471(16)
H2_15 H 0.3895 0.7193 0.1186
C7_15 C 0.42132(14) 0.72953(14) 0.14272(17)
H3_15 H 0.4271 0.7443 0.1314
C8_15 C 0.39464(16) 0.66079(16) 0.18796(18)
C9_15 C 0.37108(13) 0.65312(13) 0.16912(14)
C10_15 C 0.36852(13) 0.67156(13) 0.14778(13)
C11_15 C 0.4190(2) 0.6382(2) 0.1869(2)
H4_15 H 0.4349 0.6453 0.1972
H5_15 H 0.4126 0.6214 0.1962
C12_15 C 0.4286(3) 0.6304(3) 0.1572(3)
H6_15 H 0.4131 0.6227 0.1470
H7_15 H 0.4433 0.6169 0.1583
H8_15 H 0.4353 0.6469 0.1479
C13_15 C 0.3840(3) 0.6695(2) 0.21745(18)
H9_15 H 0.3770 0.6531 0.2270
H10_15 H 0.3997 0.6766 0.2282
C14_15 C 0.3629(3) 0.6900(3) 0.2170(2)
H11_15 H 0.3711 0.7079 0.2132
H12_15 H 0.3537 0.6904 0.2348
H13_15 H 0.3496 0.6855 0.2027
O12_11 O 0.33842(14) 0.53353(11) 0.26108(12)
O13_12 O 0.23892(12) 0.66158(14) 0.03353(11)
O27_11 O 0.30132(18) 0.53144(12) 0.23849(13)
O28_12 O 0.26151(13) 0.69868(18) 0.03144(12)
C15_15 C 0.54177(13) 0.67589(19) 0.25800(16)
C18_15 C 0.32411(19) 0.54177(13) 0.24200(16)
C19_15 C 0.25800(16) 0.67589(19) 0.04177(13)
C20_15 C 0.74200(16) 0.54177(13) 0.32411(19)
C21_15 C 0.67589(19) 0.74200(16) 0.45823(13)
C26_15 C 0.56464(13) 0.66627(18) 0.27562(12)
C29_15 C 0.33373(18) 0.56464(13) 0.22438(12)
C30_15 C 0.27562(12) 0.66627(18) 0.06464(13)
C31_15 C 0.72438(12) 0.56464(13) 0.33373(18)
C32_15 C 0.66627(18) 0.72438(12) 0.43536(13)
C37_15 C 0.57296(14) 0.68272(18) 0.29777(15)
C40_15 C 0.31728(18) 0.57296(14) 0.20223(15)
C41_15 C 0.29777(15) 0.68272(18) 0.07296(14)
C42_15 C 0.70223(15) 0.57296(14) 0.31728(18)
C43_15 C 0.68272(18) 0.70223(15) 0.42704(14)
H14_15 H 0.5638 0.6994 0.3017
H17_15 H 0.3006 0.5638 0.1983
H18_15 H 0.3017 0.6994 0.0638
H19_15 H 0.6983 0.5638 0.3006
H20_15 H 0.6994 0.6983 0.4362
C48_15 C 0.32593(15) 0.59491(13) 0.18614(13)
C49_15 C 0.31386(13) 0.67407(15) 0.09491(13)
C50_15 C 0.59491(13) 0.67407(15) 0.31386(13)
C53_15 C 0.68614(13) 0.59491(13) 0.32593(15)
C54_15 C 0.67407(15) 0.68614(13) 0.40509(13)
C59_15 C 0.34977(15) 0.60873(13) 0.19186(12)
C60_15 C 0.30814(12) 0.65023(15) 0.10873(13)
C61_15 C 0.60873(13) 0.65023(15) 0.30814(12)
C64_15 C 0.65023(15) 0.69186(12) 0.39127(13)
C67_15 C 0.69186(12) 0.60873(13) 0.34977(15)
C70_15 C 0.36529(16) 0.60066(14) 0.21448(14)
C71_15 C 0.28552(14) 0.63471(16) 0.10066(14)
C72_15 C 0.60066(14) 0.63471(16) 0.28552(14)
C75_15 C 0.63471(16) 0.71448(14) 0.39934(14)
C78_15 C 0.71448(14) 0.60066(14) 0.36529(16)
H25_15 H 0.3814 0.6105 0.2193
H26_15 H 0.2807 0.6186 0.1105
H27_15 H 0.6105 0.6186 0.2807
H30_15 H 0.6186 0.7193 0.3895
H33_15 H 0.7193 0.6105 0.3814
C81_15 C 0.57868(14) 0.64272(17) 0.27047(14)
C84_15 C 0.35728(17) 0.57868(14) 0.22953(14)
C85_15 C 0.27047(14) 0.64272(17) 0.07868(14)
C86_15 C 0.64272(17) 0.72953(14) 0.42132(14)
C89_15 C 0.72953(14) 0.57868(14) 0.35728(17)
H36_15 H 0.5729 0.6314 0.2557
H39_15 H 0.3686 0.5729 0.2443
H40_15 H 0.2557 0.6314 0.0729
H41_15 H 0.6314 0.7443 0.4271
H44_15 H 0.7443 0.5729 0.3686
C92_15 C 0.33921(16) 0.68796(18) 0.10536(16)
C93_15 C 0.31204(18) 0.60536(16) 0.16079(16)
C94_15 C 0.60536(16) 0.68796(18) 0.33921(16)
C97_15 C 0.66079(16) 0.60536(16) 0.31204(18)
C100_15 C 0.68796(18) 0.66079(16) 0.39464(16)
C103_15 C 0.34688(13) 0.66912(14) 0.12892(13)
C104_15 C 0.33088(14) 0.62892(13) 0.15312(13)
C105_15 C 0.62892(13) 0.66912(14) 0.34688(13)
C108_15 C 0.65312(13) 0.62892(13) 0.33088(14)
C111_15 C 0.66912(14) 0.65312(13) 0.37108(13)
C114_15 C 0.35222(13) 0.63148(13) 0.17156(13)
C115_15 C 0.32844(13) 0.64778(13) 0.13148(13)
C116_15 C 0.63148(13) 0.64778(13) 0.32844(13)
C119_15 C 0.64778(13) 0.67156(13) 0.36852(13)
C122_15 C 0.67156(13) 0.63148(13) 0.35222(13)
C125_15 C 0.3618(2) 0.6869(2) 0.0810(2)
C126_15 C 0.3131(2) 0.5810(2) 0.1382(2)
C127_15 C 0.5810(2) 0.6869(2) 0.3618(2)
C130_15 C 0.6382(2) 0.5810(2) 0.3131(2)
C133_15 C 0.6869(2) 0.6382(2) 0.4190(2)
H47_15 H 0.3547 0.6972 0.0651
H48_15 H 0.3028 0.5651 0.1453
H49_15 H 0.5651 0.6972 0.3547
H52_15 H 0.6453 0.5651 0.3028
H55_15 H 0.6972 0.6453 0.4349
H58_15 H 0.3786 0.6962 0.0874
H59_15 H 0.3038 0.5874 0.1214
H60_15 H 0.5874 0.6962 0.3786
H63_15 H 0.6214 0.5874 0.3038
H66_15 H 0.6962 0.6214 0.4126
C136_15 C 0.3696(3) 0.6572(3) 0.0714(3)
C137_15 C 0.3428(3) 0.5714(3) 0.1304(3)
C138_15 C 0.5714(3) 0.6572(3) 0.3696(3)
C141_15 C 0.6304(3) 0.5714(3) 0.3428(3)
C144_15 C 0.6572(3) 0.6304(3) 0.4286(3)
H69_15 H 0.3773 0.6470 0.0869
H70_15 H 0.3530 0.5869 0.1227
H71_15 H 0.5869 0.6470 0.3773
H74_15 H 0.6227 0.5869 0.3530
H77_15 H 0.6470 0.6227 0.4131
H80_15 H 0.3831 0.6583 0.0567
H81_15 H 0.3417 0.5567 0.1169
H82_15 H 0.5567 0.6583 0.3831
H85_15 H 0.6169 0.5567 0.3417
H88_15 H 0.6583 0.6169 0.4433
H91_15 H 0.3531 0.6479 0.0647
H92_15 H 0.3521 0.5647 0.1469
H93_15 H 0.5647 0.6479 0.3531
H96_15 H 0.6469 0.5647 0.3521
H99_15 H 0.6479 0.6469 0.4353
C147_15 C 0.3305(2) 0.71745(18) 0.1160(3)
C148_15 C 0.28255(18) 0.6160(3) 0.1695(2)
C149_15 C 0.6160(3) 0.71745(18) 0.3305(2)
C152_15 C 0.6695(2) 0.6160(3) 0.28255(18)
C155_15 C 0.71745(18) 0.6695(2) 0.3840(3)
H102_15 H 0.3469 0.7270 0.1230
H103_15 H 0.2730 0.6230 0.1531
H104_15 H 0.6230 0.7270 0.3469
H107_15 H 0.6531 0.6230 0.2730
H110_15 H 0.7270 0.6531 0.3770
H113_15 H 0.3234 0.7282 0.1003
H114_15 H 0.2718 0.6003 0.1766
H115_15 H 0.6003 0.7282 0.3234
H118_15 H 0.6766 0.6003 0.2718
H121_15 H 0.7282 0.6766 0.3997
C158_15 C 0.3100(3) 0.7170(2) 0.1371(3)
C159_15 C 0.2830(2) 0.6371(3) 0.1900(3)
C160_15 C 0.6371(3) 0.7170(2) 0.3100(3)
C163_15 C 0.6900(3) 0.6371(3) 0.2830(2)
C166_15 C 0.7170(2) 0.6900(3) 0.3629(3)
H124_15 H 0.2921 0.7132 0.1289
H125_15 H 0.2868 0.6289 0.2079
H126_15 H 0.6289 0.7132 0.2921
H129_15 H 0.7079 0.6289 0.2868
H132_15 H 0.7132 0.7079 0.3711
H135_15 H 0.3096 0.7348 0.1463
H136_15 H 0.2652 0.6463 0.1904
H137_15 H 0.6463 0.7348 0.3096
H140_15 H 0.6904 0.6463 0.2652
H143_15 H 0.7348 0.6904 0.3537
H146_15 H 0.3145 0.7027 0.1504
H147_15 H 0.2973 0.6504 0.1855
H148_15 H 0.6504 0.7027 0.3145
H151_15 H 0.6855 0.6504 0.2973
H154_15 H 0.7027 0.6855 0.3496
O3_18 O 0.5000 0.2500 0.2500
O4_18 O 0.5000 0.1828(5) 0.1661(5)
O7_14 O 0.46647(11) 0.33842(14) 0.23892(12)
O8_8 O 0.53353(11) 0.16158(14) 0.26108(12)
O11_10 O 0.53353(11) 0.26108(12) 0.33842(14)
O14_14 O 0.23892(12) 0.46647(11) 0.33842(14)
O15_14 O 0.33842(14) 0.23892(12) 0.46647(11)
O18_10 O 0.76108(12) 0.03353(11) 0.16158(14)
O19_9 O 0.66158(14) 0.26108(12) 0.03353(11)
O20_8 O 0.53144(12) 0.19868(18) 0.23849(13)
O24_14 O 0.46856(12) 0.30132(18) 0.26151(13)
O26_10 O 0.53144(12) 0.23849(13) 0.30132(18)
O29_14 O 0.26151(13) 0.46856(12) 0.30132(18)
O30_14 O 0.30132(18) 0.26151(13) 0.46856(12)
O33_10 O 0.73849(13) 0.03144(12) 0.19868(18)
O34_9 O 0.69868(18) 0.23849(13) 0.03144(12)
C15_16 C 0.45823(13) 0.32411(19) 0.25800(16)
C17_10 C 0.54177(13) 0.17589(19) 0.24200(16)
C20_16 C 0.25800(16) 0.45823(13) 0.32411(19)
C21_16 C 0.32411(19) 0.25800(16) 0.45823(13)
C24_10 C 0.74200(16) 0.04177(13) 0.17589(19)
C25_10 C 0.67589(19) 0.24200(16) 0.04177(13)
C26_16 C 0.43536(13) 0.33373(18) 0.27562(12)
C28_10 C 0.56464(13) 0.16627(18) 0.22438(12)
C31_16 C 0.27562(12) 0.43536(13) 0.33373(18)
C32_16 C 0.33373(18) 0.27562(12) 0.43536(13)
C35_10 C 0.72438(12) 0.06464(13) 0.16627(18)
C36_10 C 0.66627(18) 0.22438(12) 0.06464(13)
C37_16 C 0.42704(14) 0.31728(18) 0.29777(15)
C39_10 C 0.57296(14) 0.18272(18) 0.20223(15)
C42_16 C 0.29777(15) 0.42704(14) 0.31728(18)
C43_16 C 0.31728(18) 0.29777(15) 0.42704(14)
C46_10 C 0.70223(15) 0.07296(14) 0.18272(18)
C47_10 C 0.68272(18) 0.20223(15) 0.07296(14)
H14_16 H 0.4362 0.3006 0.3017
H16_10 H 0.5638 0.1994 0.1983
H19_16 H 0.3017 0.4362 0.3006
H20_16 H 0.3006 0.3017 0.4362
H23_10 H 0.6983 0.0638 0.1994
H24_10 H 0.6994 0.1983 0.0638
C50_16 C 0.40509(13) 0.32593(15) 0.31386(13)
C52_10 C 0.59491(13) 0.17407(15) 0.18614(13)
C53_16 C 0.31386(13) 0.40509(13) 0.32593(15)
C54_16 C 0.32593(15) 0.31386(13) 0.40509(13)
C57_10 C 0.68614(13) 0.09491(13) 0.17407(15)
C58_10 C 0.67407(15) 0.18614(13) 0.09491(13)
C61_16 C 0.39127(13) 0.34977(15) 0.30814(12)
C63_10 C 0.60873(13) 0.15023(15) 0.19186(12)
C64_16 C 0.34977(15) 0.30814(12) 0.39127(13)
C66_10 C 0.65023(15) 0.19186(12) 0.10873(13)
C67_16 C 0.30814(12) 0.39127(13) 0.34977(15)
C69_10 C 0.69186(12) 0.10873(13) 0.15023(15)
C72_16 C 0.39934(14) 0.36529(16) 0.28552(14)
C74_10 C 0.60066(14) 0.13471(16) 0.21448(14)
C75_16 C 0.36529(16) 0.28552(14) 0.39934(14)
C77_10 C 0.63471(16) 0.21448(14) 0.10066(14)
C78_16 C 0.28552(14) 0.39934(14) 0.36529(16)
C80_10 C 0.71448(14) 0.10066(14) 0.13471(16)
H27_16 H 0.3895 0.3814 0.2807
H29_10 H 0.6105 0.1186 0.2193
H30_16 H 0.3814 0.2807 0.3895
H32_10 H 0.6186 0.2193 0.1105
H33_16 H 0.2807 0.3895 0.3814
H35_10 H 0.7193 0.1105 0.1186
C81_16 C 0.42132(14) 0.35728(17) 0.27047(14)
C83_10 C 0.57868(14) 0.14272(17) 0.22953(14)
C86_16 C 0.35728(17) 0.27047(14) 0.42132(14)
C88_10 C 0.64272(17) 0.22953(14) 0.07868(14)
C89_16 C 0.27047(14) 0.42132(14) 0.35728(17)
C91_10 C 0.72953(14) 0.07868(14) 0.14272(17)
H36_16 H 0.4271 0.3686 0.2557
H38_10 H 0.5729 0.1314 0.2443
H41_16 H 0.3686 0.2557 0.4271
H43_10 H 0.6314 0.2443 0.0729
H44_16 H 0.2557 0.4271 0.3686
H46_10 H 0.7443 0.0729 0.1314
C94_16 C 0.39464(16) 0.31204(18) 0.33921(16)
C96_10 C 0.60536(16) 0.18796(18) 0.16079(16)
C97_16 C 0.33921(16) 0.39464(16) 0.31204(18)
C99_10 C 0.66079(16) 0.10536(16) 0.18796(18)
C100_16 C 0.31204(18) 0.33921(16) 0.39464(16)
C102_10 C 0.68796(18) 0.16079(16) 0.10536(16)
C105_16 C 0.37108(13) 0.33088(14) 0.34688(13)
C107_10 C 0.62892(13) 0.16912(14) 0.15312(13)
C108_16 C 0.34688(13) 0.37108(13) 0.33088(14)
C110_10 C 0.65312(13) 0.12892(13) 0.16912(14)
C111_16 C 0.33088(14) 0.34688(13) 0.37108(13)
C113_10 C 0.66912(14) 0.15312(13) 0.12892(13)
C116_16 C 0.36852(13) 0.35222(13) 0.32844(13)
C118_10 C 0.63148(13) 0.14778(13) 0.17156(13)
C119_16 C 0.35222(13) 0.32844(13) 0.36852(13)
C121_10 C 0.64778(13) 0.17156(13) 0.13148(13)
C122_16 C 0.32844(13) 0.36852(13) 0.35222(13)
C124_10 C 0.67156(13) 0.13148(13) 0.14778(13)
C127_16 C 0.4190(2) 0.3131(2) 0.3618(2)
C129_10 C 0.5810(2) 0.1869(2) 0.1382(2)
C130_16 C 0.3618(2) 0.4190(2) 0.3131(2)
C132_10 C 0.6382(2) 0.0810(2) 0.1869(2)
C133_16 C 0.3131(2) 0.3618(2) 0.4190(2)
C135_10 C 0.6869(2) 0.1382(2) 0.0810(2)
H49_16 H 0.4349 0.3028 0.3547
H51_10 H 0.5651 0.1972 0.1453
H52_16 H 0.3547 0.4349 0.3028
H54_10 H 0.6453 0.0651 0.1972
H55_16 H 0.3028 0.3547 0.4349
H57_10 H 0.6972 0.1453 0.0651
H60_16 H 0.4126 0.3038 0.3786
H62_10 H 0.5874 0.1962 0.1214
H63_16 H 0.3786 0.4126 0.3038
H65_10 H 0.6214 0.0874 0.1962
H66_16 H 0.3038 0.3786 0.4126
H68_10 H 0.6962 0.1214 0.0874
C138_16 C 0.4286(3) 0.3428(3) 0.3696(3)
C140_10 C 0.5714(3) 0.1572(3) 0.1304(3)
C141_16 C 0.3696(3) 0.4286(3) 0.3428(3)
C143_10 C 0.6304(3) 0.0714(3) 0.1572(3)
C144_16 C 0.3428(3) 0.3696(3) 0.4286(3)
C146_10 C 0.6572(3) 0.1304(3) 0.0714(3)
H71_16 H 0.4131 0.3530 0.3773
H73_10 H 0.5869 0.1470 0.1227
H74_16 H 0.3773 0.4131 0.3530
H76_10 H 0.6227 0.0869 0.1470
H77_16 H 0.3530 0.3773 0.4131
H79_10 H 0.6470 0.1227 0.0869
H82_16 H 0.4433 0.3417 0.3831
H84_10 H 0.5567 0.1583 0.1169
H85_16 H 0.3831 0.4433 0.3417
H87_10 H 0.6169 0.0567 0.1583
H88_16 H 0.3417 0.3831 0.4433
H90_10 H 0.6583 0.1169 0.0567
H93_16 H 0.4353 0.3521 0.3531
H95_10 H 0.5647 0.1479 0.1469
H96_16 H 0.3531 0.4353 0.3521
H98_10 H 0.6469 0.0647 0.1479
H99_16 H 0.3521 0.3531 0.4353
H101_10 H 0.6479 0.1469 0.0647
C149_16 C 0.3840(3) 0.28255(18) 0.3305(2)
C151_10 C 0.6160(3) 0.21745(18) 0.1695(2)
C152_16 C 0.3305(2) 0.3840(3) 0.28255(18)
C154_10 C 0.6695(2) 0.1160(3) 0.21745(18)
C155_16 C 0.28255(18) 0.3305(2) 0.3840(3)
C157_10 C 0.71745(18) 0.1695(2) 0.1160(3)
H104_16 H 0.3770 0.2730 0.3469
H106_10 H 0.6230 0.2270 0.1531
H107_16 H 0.3469 0.3770 0.2730
H109_10 H 0.6531 0.1230 0.2270
H110_16 H 0.2730 0.3469 0.3770
H112_10 H 0.7270 0.1531 0.1230
H115_16 H 0.3997 0.2718 0.3234
H117_10 H 0.6003 0.2282 0.1766
H118_16 H 0.3234 0.3997 0.2718
H120_10 H 0.6766 0.1003 0.2282
H121_16 H 0.2718 0.3234 0.3997
H123_10 H 0.7282 0.1766 0.1003
C160_16 C 0.3629(3) 0.2830(2) 0.3100(3)
C162_10 C 0.6371(3) 0.2170(2) 0.1900(3)
C163_16 C 0.3100(3) 0.3629(3) 0.2830(2)
C165_10 C 0.6900(3) 0.1371(3) 0.2170(2)
C166_16 C 0.2830(2) 0.3100(3) 0.3629(3)
C168_10 C 0.7170(2) 0.1900(3) 0.1371(3)
H126_16 H 0.3711 0.2868 0.2921
H128_10 H 0.6289 0.2132 0.2079
H129_16 H 0.2921 0.3711 0.2868
H131_10 H 0.7079 0.1289 0.2132
H132_16 H 0.2868 0.2921 0.3711
H134_10 H 0.7132 0.2079 0.1289
H137_16 H 0.3537 0.2652 0.3096
H139_10 H 0.6463 0.2348 0.1904
H140_16 H 0.3096 0.3537 0.2652
H142_10 H 0.6904 0.1463 0.2348
H143_16 H 0.2652 0.3096 0.3537
H145_10 H 0.7348 0.1904 0.1463
H148_16 H 0.3496 0.2973 0.3145
H150_10 H 0.6504 0.2027 0.1855
H151_16 H 0.3145 0.3496 0.2973
H153_10 H 0.6855 0.1504 0.2027
H154_16 H 0.2973 0.3145 0.3496
H156_10 H 0.7027 0.1855 0.1504
O35_18 O 0.5000 0.3339(5) 0.1828(5)
O36_18 O 0.5000 0.1661(5) 0.3172(5)
O37_18 O 0.5000 0.3172(5) 0.3339(5)
O3_19 O 0.7500 0.2500 0.0000
O4_19 O 0.6828(5) 0.1661(5) 0.0000
O6_11 O 0.83842(14) 0.23892(12) 0.03353(11)
O23_11 O 0.80132(18) 0.26151(13) 0.03144(12)
O35_19 O 0.8339(5) 0.1828(5) 0.0000
O36_19 O 0.6661(5) 0.3172(5) 0.0000
O37_19 O 0.8172(5) 0.3339(5) 0.0000
O3_20 O 0.7500 0.2500 1.0000
O4_20 O 0.6828(5) 0.1661(5) 1.0000
O5_9 O 0.73892(12) 0.16158(14) 0.96647(11)
O21_9 O 0.76151(13) 0.19868(18) 0.96856(12)
O35_20 O 0.8339(5) 0.1828(5) 1.0000
O36_20 O 0.6661(5) 0.3172(5) 1.0000
O37_20 O 0.8172(5) 0.3339(5) 1.0000
O3_21 O 0.7500 0.7500 0.0000
O4_21 O 0.6828(5) 0.8339(5) 0.0000
O5_10 O 0.73892(12) 0.83842(14) 0.03353(11)
O21_10 O 0.76151(13) 0.80132(18) 0.03144(12)
O35_21 O 0.8339(5) 0.8172(5) 0.0000
O36_21 O 0.6661(5) 0.6828(5) 0.0000
O37_21 O 0.8172(5) 0.6661(5) 0.0000
O1_14 O 0.73892(12) 0.83842(14) 0.96647(11)
O2_14 O 0.76151(13) 0.80132(18) 0.96856(12)
O3_22 O 0.7500 0.7500 1.0000
C1_16 C 0.75800(16) 0.82411(19) 0.95823(13)
C2_16 C 0.77562(12) 0.83373(18) 0.93536(13)
C3_16 C 0.79777(15) 0.81728(18) 0.92704(14)
H1_16 H 0.8017 0.8006 0.9362
C4_16 C 0.81386(13) 0.82593(15) 0.90509(13)
C5_16 C 0.80814(12) 0.84977(15) 0.89127(13)
C6_16 C 0.78552(14) 0.86529(16) 0.89934(14)
H2_16 H 0.7807 0.8814 0.8895
C7_16 C 0.77047(14) 0.85728(17) 0.92132(14)
H3_16 H 0.7557 0.8686 0.9271
C8_16 C 0.83921(16) 0.81204(18) 0.89464(16)
C9_16 C 0.84688(13) 0.83088(14) 0.87108(13)
C10_16 C 0.82844(13) 0.85222(13) 0.86852(13)
C11_16 C 0.8618(2) 0.8131(2) 0.9190(2)
H4_16 H 0.8547 0.8028 0.9349
H5_16 H 0.8786 0.8038 0.9126
C12_16 C 0.8696(3) 0.8428(3) 0.9286(3)
H6_16 H 0.8773 0.8530 0.9131
H7_16 H 0.8831 0.8417 0.9433
H8_16 H 0.8531 0.8521 0.9353
C13_16 C 0.8305(2) 0.78255(18) 0.8840(3)
H9_16 H 0.8469 0.7730 0.8770
H10_16 H 0.8234 0.7718 0.8997
C14_16 C 0.8100(3) 0.7830(2) 0.8629(3)
H11_16 H 0.7921 0.7868 0.8711
H12_16 H 0.8096 0.7652 0.8537
H13_16 H 0.8145 0.7973 0.8496
O4_22 O 0.6828(5) 0.8339(5) 1.0000
O8_9 O 0.66158(14) 0.73892(12) 0.96647(11)
O13_13 O 0.83842(14) 0.96647(11) 0.73892(12)
O19_10 O 0.76108(12) 0.96647(11) 0.83842(14)
O20_9 O 0.69868(18) 0.76151(13) 0.96856(12)
O28_13 O 0.80132(18) 0.96856(12) 0.76151(13)
O34_10 O 0.73849(13) 0.96856(12) 0.80132(18)
C17_11 C 0.67589(19) 0.75800(16) 0.95823(13)
C18_16 C 0.95823(13) 0.75800(16) 0.82411(19)
C19_16 C 0.82411(19) 0.95823(13) 0.75800(16)
C24_11 C 0.54177(13) 0.82411(19) 0.75800(16)
C25_11 C 0.74200(16) 0.95823(13) 0.82411(19)
C28_11 C 0.66627(18) 0.77562(12) 0.93536(13)
C29_16 C 0.93536(13) 0.77562(12) 0.83373(18)
C30_16 C 0.83373(18) 0.93536(13) 0.77562(12)
C35_11 C 0.56464(13) 0.83373(18) 0.77562(12)
C36_11 C 0.72438(12) 0.93536(13) 0.83373(18)
C39_11 C 0.68272(18) 0.79777(15) 0.92704(14)
C40_16 C 0.92704(14) 0.79777(15) 0.81728(18)
C41_16 C 0.81728(18) 0.92704(14) 0.79777(15)
C46_11 C 0.57296(14) 0.81728(18) 0.79777(15)
C47_11 C 0.70223(15) 0.92704(14) 0.81728(18)
H16_11 H 0.6994 0.8017 0.9362
H17_16 H 0.9362 0.8017 0.8006
H18_16 H 0.8006 0.9362 0.8017
H23_11 H 0.5638 0.8006 0.8017
H24_11 H 0.6983 0.9362 0.8006
C48_16 C 0.90509(13) 0.81386(13) 0.82593(15)
C49_16 C 0.82593(15) 0.90509(13) 0.81386(13)
C52_11 C 0.67407(15) 0.81386(13) 0.90509(13)
C57_11 C 0.59491(13) 0.82593(15) 0.81386(13)
C58_11 C 0.68614(13) 0.90509(13) 0.82593(15)
C59_16 C 0.89127(13) 0.80814(12) 0.84977(15)
C60_16 C 0.84977(15) 0.89127(13) 0.80814(12)
C63_11 C 0.65023(15) 0.80814(12) 0.89127(13)
C66_11 C 0.69186(12) 0.89127(13) 0.84977(15)
C69_11 C 0.60873(13) 0.84977(15) 0.80814(12)
C70_16 C 0.89934(14) 0.78552(14) 0.86529(16)
C71_16 C 0.86529(16) 0.89934(14) 0.78552(14)
C74_11 C 0.63471(16) 0.78552(14) 0.89934(14)
C77_11 C 0.71448(14) 0.89934(14) 0.86529(16)
C80_11 C 0.60066(14) 0.86529(16) 0.78552(14)
H25_16 H 0.8895 0.7807 0.8814
H26_16 H 0.8814 0.8895 0.7807
H29_11 H 0.6186 0.7807 0.8895
H32_11 H 0.7193 0.8895 0.8814
H35_11 H 0.6105 0.8814 0.7807
C83_11 C 0.64272(17) 0.77047(14) 0.92132(14)
C84_16 C 0.92132(14) 0.77047(14) 0.85728(17)
C85_16 C 0.85728(17) 0.92132(14) 0.77047(14)
C88_11 C 0.72953(14) 0.92132(14) 0.85728(17)
C91_11 C 0.57868(14) 0.85728(17) 0.77047(14)
H38_11 H 0.6314 0.7557 0.9271
H39_16 H 0.9271 0.7557 0.8686
H40_16 H 0.8686 0.9271 0.7557
H43_11 H 0.7443 0.9271 0.8686
H46_11 H 0.5729 0.8686 0.7557
C92_16 C 0.81204(18) 0.89464(16) 0.83921(16)
C93_16 C 0.89464(16) 0.83921(16) 0.81204(18)
C96_11 C 0.68796(18) 0.83921(16) 0.89464(16)
C99_11 C 0.60536(16) 0.81204(18) 0.83921(16)
C102_11 C 0.66079(16) 0.89464(16) 0.81204(18)
C103_16 C 0.83088(14) 0.87108(13) 0.84688(13)
C104_16 C 0.87108(13) 0.84688(13) 0.83088(14)
C107_11 C 0.66912(14) 0.84688(13) 0.87108(13)
C110_11 C 0.62892(13) 0.83088(14) 0.84688(13)
C113_11 C 0.65312(13) 0.87108(13) 0.83088(14)
C114_16 C 0.86852(13) 0.82844(13) 0.85222(13)
C115_16 C 0.85222(13) 0.86852(13) 0.82844(13)
C118_11 C 0.64778(13) 0.82844(13) 0.86852(13)
C121_11 C 0.67156(13) 0.86852(13) 0.85222(13)
C124_11 C 0.63148(13) 0.85222(13) 0.82844(13)
C125_16 C 0.8131(2) 0.9190(2) 0.8618(2)
C126_16 C 0.9190(2) 0.8618(2) 0.8131(2)
C129_11 C 0.6869(2) 0.8618(2) 0.9190(2)
C132_11 C 0.5810(2) 0.8131(2) 0.8618(2)
C135_11 C 0.6382(2) 0.9190(2) 0.8131(2)
H47_16 H 0.8028 0.9349 0.8547
H48_16 H 0.9349 0.8547 0.8028
H51_11 H 0.6972 0.8547 0.9349
H54_11 H 0.5651 0.8028 0.8547
H57_11 H 0.6453 0.9349 0.8028
H58_16 H 0.8038 0.9126 0.8786
H59_16 H 0.9126 0.8786 0.8038
H62_11 H 0.6962 0.8786 0.9126
H65_11 H 0.5874 0.8038 0.8786
H68_11 H 0.6214 0.9126 0.8038
C136_16 C 0.8428(3) 0.9286(3) 0.8696(3)
C137_16 C 0.9286(3) 0.8696(3) 0.8428(3)
C140_11 C 0.6572(3) 0.8696(3) 0.9286(3)
C143_11 C 0.5714(3) 0.8428(3) 0.8696(3)
C146_11 C 0.6304(3) 0.9286(3) 0.8428(3)
H69_16 H 0.8530 0.9131 0.8773
H70_16 H 0.9131 0.8773 0.8530
H73_11 H 0.6470 0.8773 0.9131
H76_11 H 0.5869 0.8530 0.8773
H79_11 H 0.6227 0.9131 0.8530
H80_16 H 0.8417 0.9433 0.8831
H81_16 H 0.9433 0.8831 0.8417
H84_11 H 0.6583 0.8831 0.9433
H87_11 H 0.5567 0.8417 0.8831
H90_11 H 0.6169 0.9433 0.8417
H91_16 H 0.8521 0.9353 0.8531
H92_16 H 0.9353 0.8531 0.8521
H95_11 H 0.6479 0.8531 0.9353
H98_11 H 0.5647 0.8521 0.8531
H101_11 H 0.6469 0.9353 0.8521
C147_16 C 0.78255(18) 0.8840(3) 0.8305(2)
C148_16 C 0.8840(3) 0.8305(2) 0.78255(18)
C151_11 C 0.71745(18) 0.8305(2) 0.8840(3)
C154_11 C 0.6160(3) 0.78255(18) 0.8305(2)
C157_11 C 0.6695(2) 0.8840(3) 0.78255(18)
H102_16 H 0.7730 0.8770 0.8469
H103_16 H 0.8770 0.8469 0.7730
H106_11 H 0.7270 0.8469 0.8770
H109_11 H 0.6230 0.7730 0.8469
H112_11 H 0.6531 0.8770 0.7730
H113_16 H 0.7718 0.8997 0.8234
H114_16 H 0.8997 0.8234 0.7718
H117_11 H 0.7282 0.8234 0.8997
H120_11 H 0.6003 0.7718 0.8234
H123_11 H 0.6766 0.8997 0.7718
C158_16 C 0.7830(2) 0.8629(3) 0.8100(3)
C159_16 C 0.8629(3) 0.8100(3) 0.7830(2)
C162_11 C 0.7170(2) 0.8100(3) 0.8629(3)
C165_11 C 0.6371(3) 0.7830(2) 0.8100(3)
C168_11 C 0.6900(3) 0.8629(3) 0.7830(2)
H124_16 H 0.7868 0.8711 0.7921
H125_16 H 0.8711 0.7921 0.7868
H128_11 H 0.7132 0.7921 0.8711
H131_11 H 0.6289 0.7868 0.7921
H134_11 H 0.7079 0.8711 0.7868
H135_16 H 0.7652 0.8537 0.8096
H136_16 H 0.8537 0.8096 0.7652
H139_11 H 0.7348 0.8096 0.8537
H142_11 H 0.6463 0.7652 0.8096
H145_11 H 0.6904 0.8537 0.7652
H146_16 H 0.7973 0.8496 0.8145
H147_16 H 0.8496 0.8145 0.7973
H150_11 H 0.7027 0.8145 0.8496
H153_11 H 0.6504 0.7973 0.8145
H156_11 H 0.6855 0.8496 0.7973
O35_22 O 0.8339(5) 0.8172(5) 1.0000
O36_22 O 0.6661(5) 0.6828(5) 1.0000
O37_22 O 0.8172(5) 0.6661(5) 1.0000
O3_23 O 0.7500 0.0000 0.7500
O4_23 O 0.6661(5) 0.0000 0.8172(5)
O10_13 O 0.83842(14) 0.03353(11) 0.73892(12)
O16_13 O 0.96647(11) 0.26108(12) 0.83842(14)
O25_13 O 0.80132(18) 0.03144(12) 0.76151(13)
O31_13 O 0.96856(12) 0.23849(13) 0.80132(18)
C16_14 C 0.82411(19) 0.04177(13) 0.75800(16)
C22_14 C 0.95823(13) 0.24200(16) 0.82411(19)
C23_14 C 0.75800(16) 0.17589(19) 0.95823(13)
C27_14 C 0.83373(18) 0.06464(13) 0.77562(12)
C33_14 C 0.93536(13) 0.22438(12) 0.83373(18)
C34_14 C 0.77562(12) 0.16627(18) 0.93536(13)
C38_14 C 0.81728(18) 0.07296(14) 0.79777(15)
C44_14 C 0.92704(14) 0.20223(15) 0.81728(18)
C45_14 C 0.79777(15) 0.18272(18) 0.92704(14)
H15_14 H 0.8006 0.0638 0.8017
H21_14 H 0.9362 0.1983 0.8006
H22_14 H 0.8017 0.1994 0.9362
C51_14 C 0.82593(15) 0.09491(13) 0.81386(13)
C55_14 C 0.90509(13) 0.18614(13) 0.82593(15)
C56_14 C 0.81386(13) 0.17407(15) 0.90509(13)
C62_14 C 0.84977(15) 0.10873(13) 0.80814(12)
C65_14 C 0.80814(12) 0.15023(15) 0.89127(13)
C68_14 C 0.89127(13) 0.19186(12) 0.84977(15)
C73_14 C 0.86529(16) 0.10066(14) 0.78552(14)
C76_14 C 0.78552(14) 0.13471(16) 0.89934(14)
C79_14 C 0.89934(14) 0.21448(14) 0.86529(16)
H28_14 H 0.8814 0.1105 0.7807
H31_14 H 0.7807 0.1186 0.8895
H34_14 H 0.8895 0.2193 0.8814
C82_14 C 0.85728(17) 0.07868(14) 0.77047(14)
C87_14 C 0.77047(14) 0.14272(17) 0.92132(14)
C90_14 C 0.92132(14) 0.22953(14) 0.85728(17)
H37_14 H 0.8686 0.0729 0.7557
H42_14 H 0.7557 0.1314 0.9271
H45_14 H 0.9271 0.2443 0.8686
C95_14 C 0.81204(18) 0.10536(16) 0.83921(16)
C98_14 C 0.89464(16) 0.16079(16) 0.81204(18)
C101_14 C 0.83921(16) 0.18796(18) 0.89464(16)
C106_14 C 0.83088(14) 0.12892(13) 0.84688(13)
C109_14 C 0.87108(13) 0.15312(13) 0.83088(14)
C112_14 C 0.84688(13) 0.16912(14) 0.87108(13)
C117_14 C 0.85222(13) 0.13148(13) 0.82844(13)
C120_14 C 0.82844(13) 0.14778(13) 0.86852(13)
C123_14 C 0.86852(13) 0.17156(13) 0.85222(13)
C128_14 C 0.8131(2) 0.0810(2) 0.8618(2)
C131_14 C 0.9190(2) 0.1382(2) 0.8131(2)
C134_14 C 0.8618(2) 0.1869(2) 0.9190(2)
H50_14 H 0.8028 0.0651 0.8547
H53_14 H 0.9349 0.1453 0.8028
H56_14 H 0.8547 0.1972 0.9349
H61_14 H 0.8038 0.0874 0.8786
H64_14 H 0.9126 0.1214 0.8038
H67_14 H 0.8786 0.1962 0.9126
C139_14 C 0.8428(3) 0.0714(3) 0.8696(3)
C142_14 C 0.9286(3) 0.1304(3) 0.8428(3)
C145_14 C 0.8696(3) 0.1572(3) 0.9286(3)
H72_14 H 0.8530 0.0869 0.8773
H75_14 H 0.9131 0.1227 0.8530
H78_14 H 0.8773 0.1470 0.9131
H83_14 H 0.8417 0.0567 0.8831
H86_14 H 0.9433 0.1169 0.8417
H89_14 H 0.8831 0.1583 0.9433
H94_14 H 0.8521 0.0647 0.8531
H97_14 H 0.9353 0.1469 0.8521
H100_14 H 0.8531 0.1479 0.9353
C150_14 C 0.78255(18) 0.1160(3) 0.8305(2)
C153_14 C 0.8840(3) 0.1695(2) 0.78255(18)
C156_14 C 0.8305(2) 0.21745(18) 0.8840(3)
H105_14 H 0.7730 0.1230 0.8469
H108_14 H 0.8770 0.1531 0.7730
H111_14 H 0.8469 0.2270 0.8770
H116_14 H 0.7718 0.1003 0.8234
H119_14 H 0.8997 0.1766 0.7718
H122_14 H 0.8234 0.2282 0.8997
C161_14 C 0.7830(2) 0.1371(3) 0.8100(3)
C164_14 C 0.8629(3) 0.1900(3) 0.7830(2)
C167_14 C 0.8100(3) 0.2170(2) 0.8629(3)
H127_14 H 0.7868 0.1289 0.7921
H130_14 H 0.8711 0.2079 0.7868
H133_14 H 0.7921 0.2132 0.8711
H138_14 H 0.7652 0.1463 0.8096
H141_14 H 0.8537 0.1904 0.7652
H144_14 H 0.8096 0.2348 0.8537
H149_14 H 0.7973 0.1504 0.8145
H152_14 H 0.8496 0.1855 0.7973
H155_14 H 0.8145 0.2027 0.8496
O35_23 O 0.6828(5) -0.0000 0.6661(5)
O36_23 O 0.8172(5) 0.0000 0.8339(5)
O37_23 O 0.8339(5) -0.0000 0.6828(5)
O3_24 O 0.7500 1.0000 0.7500
O4_24 O 0.6661(5) 1.0000 0.8172(5)
O6_12 O 0.73892(12) 0.96647(11) 0.66158(14)
O23_12 O 0.76151(13) 0.96856(12) 0.69868(18)
O35_24 O 0.6828(5) 1.0000 0.6661(5)
O36_24 O 0.8172(5) 1.0000 0.8339(5)
O37_24 O 0.8339(5) 1.0000 0.6828(5)
O1_15 O 0.66158(14) 0.03353(11) 0.23892(12)
O2_15 O 0.69868(18) 0.03144(12) 0.26151(13)
O3_25 O 0.7500 0.0000 0.2500
C1_17 C 0.67589(19) 0.04177(13) 0.25800(16)
C2_17 C 0.66627(18) 0.06464(13) 0.27562(12)
C3_17 C 0.68272(18) 0.07296(14) 0.29777(15)
H1_17 H 0.6994 0.0638 0.3017
C4_17 C 0.67407(15) 0.09491(13) 0.31386(13)
C5_17 C 0.65023(15) 0.10873(13) 0.30814(12)
C6_17 C 0.63471(16) 0.10066(14) 0.28552(14)
H2_17 H 0.6186 0.1105 0.2807
C7_17 C 0.64272(17) 0.07868(14) 0.27047(14)
H3_17 H 0.6314 0.0729 0.2557
C8_17 C 0.68796(18) 0.10536(16) 0.33921(16)
C9_17 C 0.66912(14) 0.12892(13) 0.34688(13)
C10_17 C 0.64778(13) 0.13148(13) 0.32844(13)
C11_17 C 0.6869(2) 0.0810(2) 0.3618(2)
H4_17 H 0.6972 0.0651 0.3547
H5_17 H 0.6962 0.0874 0.3786
C12_17 C 0.6572(3) 0.0714(3) 0.3696(3)
H6_17 H 0.6470 0.0869 0.3773
H7_17 H 0.6583 0.0567 0.3831
H8_17 H 0.6479 0.0647 0.3531
C13_17 C 0.71745(18) 0.1160(3) 0.3305(2)
H9_17 H 0.7270 0.1230 0.3469
H10_17 H 0.7282 0.1003 0.3234
C14_17 C 0.7170(2) 0.1371(3) 0.3100(3)
H11_17 H 0.7132 0.1289 0.2921
H12_17 H 0.7348 0.1463 0.3096
H13_17 H 0.7027 0.1504 0.3145
O4_25 O 0.6661(5) 0.0000 0.1828(5)
C18_17 C 0.74200(16) 0.17589(19) 0.45823(13)
C19_17 C 0.54177(13) 0.24200(16) 0.32411(19)
C29_17 C 0.72438(12) 0.16627(18) 0.43536(13)
C30_17 C 0.56464(13) 0.22438(12) 0.33373(18)
C40_17 C 0.70223(15) 0.18272(18) 0.42704(14)
C41_17 C 0.57296(14) 0.20223(15) 0.31728(18)
H17_17 H 0.6983 0.1994 0.4362
H18_17 H 0.5638 0.1983 0.3006
C48_17 C 0.68614(13) 0.17407(15) 0.40509(13)
C49_17 C 0.59491(13) 0.18614(13) 0.32593(15)
C59_17 C 0.69186(12) 0.15023(15) 0.39127(13)
C60_17 C 0.60873(13) 0.19186(12) 0.34977(15)
C70_17 C 0.71448(14) 0.13471(16) 0.39934(14)
C71_17 C 0.60066(14) 0.21448(14) 0.36529(16)
H25_17 H 0.7193 0.1186 0.3895
H26_17 H 0.6105 0.2193 0.3814
C84_17 C 0.72953(14) 0.14272(17) 0.42132(14)
C85_17 C 0.57868(14) 0.22953(14) 0.35728(17)
H39_17 H 0.7443 0.1314 0.4271
H40_17 H 0.5729 0.2443 0.3686
C92_17 C 0.60536(16) 0.16079(16) 0.31204(18)
C93_17 C 0.66079(16) 0.18796(18) 0.39464(16)
C103_17 C 0.62892(13) 0.15312(13) 0.33088(14)
C104_17 C 0.65312(13) 0.16912(14) 0.37108(13)
C114_17 C 0.67156(13) 0.14778(13) 0.36852(13)
C115_17 C 0.63148(13) 0.17156(13) 0.35222(13)
C125_17 C 0.5810(2) 0.1382(2) 0.3131(2)
C126_17 C 0.6382(2) 0.1869(2) 0.4190(2)
H47_17 H 0.5651 0.1453 0.3028
H48_17 H 0.6453 0.1972 0.4349
H58_17 H 0.5874 0.1214 0.3038
H59_17 H 0.6214 0.1962 0.4126
C136_17 C 0.5714(3) 0.1304(3) 0.3428(3)
C137_17 C 0.6304(3) 0.1572(3) 0.4286(3)
H69_17 H 0.5869 0.1227 0.3530
H70_17 H 0.6227 0.1470 0.4131
H80_17 H 0.5567 0.1169 0.3417
H81_17 H 0.6169 0.1583 0.4433
H91_17 H 0.5647 0.1469 0.3521
H92_17 H 0.6469 0.1479 0.4353
C147_17 C 0.6160(3) 0.1695(2) 0.28255(18)
C148_17 C 0.6695(2) 0.21745(18) 0.3840(3)
H102_17 H 0.6230 0.1531 0.2730
H103_17 H 0.6531 0.2270 0.3770
H113_17 H 0.6003 0.1766 0.2718
H114_17 H 0.6766 0.2282 0.3997
C158_17 C 0.6371(3) 0.1900(3) 0.2830(2)
C159_17 C 0.6900(3) 0.2170(2) 0.3629(3)
H124_17 H 0.6289 0.2079 0.2868
H125_17 H 0.7079 0.2132 0.3711
H135_17 H 0.6463 0.1904 0.2652
H136_17 H 0.6904 0.2348 0.3537
H146_17 H 0.6504 0.1855 0.2973
H147_17 H 0.6855 0.2027 0.3496
O35_25 O 0.6828(5) -0.0000 0.3339(5)
O36_25 O 0.8172(5) 0.0000 0.1661(5)
O37_25 O 0.8339(5) 0.0000 0.3172(5)
O3_26 O 0.7500 1.0000 0.2500
O4_26 O 0.6661(5) 1.0000 0.1828(5)
O10_14 O 0.83842(14) 0.96647(11) 0.26108(12)
O16_14 O 0.96647(11) 0.73892(12) 0.16158(14)
O25_14 O 0.80132(18) 0.96856(12) 0.23849(13)
O31_14 O 0.96856(12) 0.76151(13) 0.19868(18)
C16_15 C 0.82411(19) 0.95823(13) 0.24200(16)
C22_15 C 0.95823(13) 0.75800(16) 0.17589(19)
C23_15 C 0.75800(16) 0.82411(19) 0.04177(13)
C27_15 C 0.83373(18) 0.93536(13) 0.22438(12)
C33_15 C 0.93536(13) 0.77562(12) 0.16627(18)
C34_15 C 0.77562(12) 0.83373(18) 0.06464(13)
C38_15 C 0.81728(18) 0.92704(14) 0.20223(15)
C44_15 C 0.92704(14) 0.79777(15) 0.18272(18)
C45_15 C 0.79777(15) 0.81728(18) 0.07296(14)
H15_15 H 0.8006 0.9362 0.1983
H21_15 H 0.9362 0.8017 0.1994
H22_15 H 0.8017 0.8006 0.0638
C51_15 C 0.82593(15) 0.90509(13) 0.18614(13)
C55_15 C 0.90509(13) 0.81386(13) 0.17407(15)
C56_15 C 0.81386(13) 0.82593(15) 0.09491(13)
C62_15 C 0.84977(15) 0.89127(13) 0.19186(12)
C65_15 C 0.80814(12) 0.84977(15) 0.10873(13)
C68_15 C 0.89127(13) 0.80814(12) 0.15023(15)
C73_15 C 0.86529(16) 0.89934(14) 0.21448(14)
C76_15 C 0.78552(14) 0.86529(16) 0.10066(14)
C79_15 C 0.89934(14) 0.78552(14) 0.13471(16)
H28_15 H 0.8814 0.8895 0.2193
H31_15 H 0.7807 0.8814 0.1105
H34_15 H 0.8895 0.7807 0.1186
C82_15 C 0.85728(17) 0.92132(14) 0.22953(14)
C87_15 C 0.77047(14) 0.85728(17) 0.07868(14)
C90_15 C 0.92132(14) 0.77047(14) 0.14272(17)
H37_15 H 0.8686 0.9271 0.2443
H42_15 H 0.7557 0.8686 0.0729
H45_15 H 0.9271 0.7557 0.1314
C95_15 C 0.81204(18) 0.89464(16) 0.16079(16)
C98_15 C 0.89464(16) 0.83921(16) 0.18796(18)
C101_15 C 0.83921(16) 0.81204(18) 0.10536(16)
C106_15 C 0.83088(14) 0.87108(13) 0.15312(13)
C109_15 C 0.87108(13) 0.84688(13) 0.16912(14)
C112_15 C 0.84688(13) 0.83088(14) 0.12892(13)
C117_15 C 0.85222(13) 0.86852(13) 0.17156(13)
C120_15 C 0.82844(13) 0.85222(13) 0.13148(13)
C123_15 C 0.86852(13) 0.82844(13) 0.14778(13)
C128_15 C 0.8131(2) 0.9190(2) 0.1382(2)
C131_15 C 0.9190(2) 0.8618(2) 0.1869(2)
C134_15 C 0.8618(2) 0.8131(2) 0.0810(2)
H50_15 H 0.8028 0.9349 0.1453
H53_15 H 0.9349 0.8547 0.1972
H56_15 H 0.8547 0.8028 0.0651
H61_15 H 0.8038 0.9126 0.1214
H64_15 H 0.9126 0.8786 0.1962
H67_15 H 0.8786 0.8038 0.0874
C139_15 C 0.8428(3) 0.9286(3) 0.1304(3)
C142_15 C 0.9286(3) 0.8696(3) 0.1572(3)
C145_15 C 0.8696(3) 0.8428(3) 0.0714(3)
H72_15 H 0.8530 0.9131 0.1227
H75_15 H 0.9131 0.8773 0.1470
H78_15 H 0.8773 0.8530 0.0869
H83_15 H 0.8417 0.9433 0.1169
H86_15 H 0.9433 0.8831 0.1583
H89_15 H 0.8831 0.8417 0.0567
H94_15 H 0.8521 0.9353 0.1469
H97_15 H 0.9353 0.8531 0.1479
H100_15 H 0.8531 0.8521 0.0647
C150_15 C 0.78255(18) 0.8840(3) 0.1695(2)
C153_15 C 0.8840(3) 0.8305(2) 0.21745(18)
C156_15 C 0.8305(2) 0.78255(18) 0.1160(3)
H105_15 H 0.7730 0.8770 0.1531
H108_15 H 0.8770 0.8469 0.2270
H111_15 H 0.8469 0.7730 0.1230
H116_15 H 0.7718 0.8997 0.1766
H119_15 H 0.8997 0.8234 0.2282
H122_15 H 0.8234 0.7718 0.1003
C161_15 C 0.7830(2) 0.8629(3) 0.1900(3)
C164_15 C 0.8629(3) 0.8100(3) 0.2170(2)
C167_15 C 0.8100(3) 0.7830(2) 0.1371(3)
H127_15 H 0.7868 0.8711 0.2079
H130_15 H 0.8711 0.7921 0.2132
H133_15 H 0.7921 0.7868 0.1289
H138_15 H 0.7652 0.8537 0.1904
H141_15 H 0.8537 0.8096 0.2348
H144_15 H 0.8096 0.7652 0.1463
H149_15 H 0.7973 0.8496 0.1855
H152_15 H 0.8496 0.8145 0.2027
H155_15 H 0.8145 0.7973 0.1504
O35_26 O 0.6828(5) 1.0000 0.3339(5)
O36_26 O 0.8172(5) 1.0000 0.1661(5)
O37_26 O 0.8339(5) 1.0000 0.3172(5)
C16_16 C 0.17589(19) 0.04177(13) 0.24200(16)
C22_16 C 0.04177(13) 0.24200(16) 0.17589(19)
C23_16 C 0.24200(16) 0.17589(19) 0.04177(13)
C27_16 C 0.16627(18) 0.06464(13) 0.22438(12)
C33_16 C 0.06464(13) 0.22438(12) 0.16627(18)
C34_16 C 0.22438(12) 0.16627(18) 0.06464(13)
C38_16 C 0.18272(18) 0.07296(14) 0.20223(15)
C44_16 C 0.07296(14) 0.20223(15) 0.18272(18)
C45_16 C 0.20223(15) 0.18272(18) 0.07296(14)
H15_16 H 0.1994 0.0638 0.1983
H21_16 H 0.0638 0.1983 0.1994
H22_16 H 0.1983 0.1994 0.0638
C51_16 C 0.17407(15) 0.09491(13) 0.18614(13)
C55_16 C 0.09491(13) 0.18614(13) 0.17407(15)
C56_16 C 0.18614(13) 0.17407(15) 0.09491(13)
C62_16 C 0.15023(15) 0.10873(13) 0.19186(12)
C65_16 C 0.19186(12) 0.15023(15) 0.10873(13)
C68_16 C 0.10873(13) 0.19186(12) 0.15023(15)
C73_16 C 0.13471(16) 0.10066(14) 0.21448(14)
C76_16 C 0.21448(14) 0.13471(16) 0.10066(14)
C79_16 C 0.10066(14) 0.21448(14) 0.13471(16)
H28_16 H 0.1186 0.1105 0.2193
H31_16 H 0.2193 0.1186 0.1105
H34_16 H 0.1105 0.2193 0.1186
C82_16 C 0.14272(17) 0.07868(14) 0.22953(14)
C87_16 C 0.22953(14) 0.14272(17) 0.07868(14)
C90_16 C 0.07868(14) 0.22953(14) 0.14272(17)
H37_16 H 0.1314 0.0729 0.2443
H42_16 H 0.2443 0.1314 0.0729
H45_16 H 0.0729 0.2443 0.1314
C95_16 C 0.18796(18) 0.10536(16) 0.16079(16)
C98_16 C 0.10536(16) 0.16079(16) 0.18796(18)
C101_16 C 0.16079(16) 0.18796(18) 0.10536(16)
C106_16 C 0.16912(14) 0.12892(13) 0.15312(13)
C109_16 C 0.12892(13) 0.15312(13) 0.16912(14)
C112_16 C 0.15312(13) 0.16912(14) 0.12892(13)
C117_16 C 0.14778(13) 0.13148(13) 0.17156(13)
C120_16 C 0.17156(13) 0.14778(13) 0.13148(13)
C123_16 C 0.13148(13) 0.17156(13) 0.14778(13)
C128_16 C 0.1869(2) 0.0810(2) 0.1382(2)
C131_16 C 0.0810(2) 0.1382(2) 0.1869(2)
C134_16 C 0.1382(2) 0.1869(2) 0.0810(2)
H50_16 H 0.1972 0.0651 0.1453
H53_16 H 0.0651 0.1453 0.1972
H56_16 H 0.1453 0.1972 0.0651
H61_16 H 0.1962 0.0874 0.1214
H64_16 H 0.0874 0.1214 0.1962
H67_16 H 0.1214 0.1962 0.0874
C139_16 C 0.1572(3) 0.0714(3) 0.1304(3)
C142_16 C 0.0714(3) 0.1304(3) 0.1572(3)
C145_16 C 0.1304(3) 0.1572(3) 0.0714(3)
H72_16 H 0.1470 0.0869 0.1227
H75_16 H 0.0869 0.1227 0.1470
H78_16 H 0.1227 0.1470 0.0869
H83_16 H 0.1583 0.0567 0.1169
H86_16 H 0.0567 0.1169 0.1583
H89_16 H 0.1169 0.1583 0.0567
H94_16 H 0.1479 0.0647 0.1469
H97_16 H 0.0647 0.1469 0.1479
H100_16 H 0.1469 0.1479 0.0647
C150_16 C 0.21745(18) 0.1160(3) 0.1695(2)
C153_16 C 0.1160(3) 0.1695(2) 0.21745(18)
C156_16 C 0.1695(2) 0.21745(18) 0.1160(3)
H105_16 H 0.2270 0.1230 0.1531
H108_16 H 0.1230 0.1531 0.2270
H111_16 H 0.1531 0.2270 0.1230
H116_16 H 0.2282 0.1003 0.1766
H119_16 H 0.1003 0.1766 0.2282
H122_16 H 0.1766 0.2282 0.1003
C161_16 C 0.2170(2) 0.1371(3) 0.1900(3)
C164_16 C 0.1371(3) 0.1900(3) 0.2170(2)
C167_16 C 0.1900(3) 0.2170(2) 0.1371(3)
H127_16 H 0.2132 0.1289 0.2079
H130_16 H 0.1289 0.2079 0.2132
H133_16 H 0.2079 0.2132 0.1289
H138_16 H 0.2348 0.1463 0.1904
H141_16 H 0.1463 0.1904 0.2348
H144_16 H 0.1904 0.2348 0.1463
H149_16 H 0.2027 0.1504 0.1855
H152_16 H 0.1504 0.1855 0.2027
H155_16 H 0.1855 0.2027 0.1504
C1_18 C 0.75800(16) 0.95823(13) 0.67589(19)
C2_18 C 0.77562(12) 0.93536(13) 0.66627(18)
C3_18 C 0.79777(15) 0.92704(14) 0.68272(18)
H1_18 H 0.8017 0.9362 0.6994
C4_18 C 0.81386(13) 0.90509(13) 0.67407(15)
C5_18 C 0.80814(12) 0.89127(13) 0.65023(15)
C6_18 C 0.78552(14) 0.89934(14) 0.63471(16)
H2_18 H 0.7807 0.8895 0.6186
C7_18 C 0.77047(14) 0.92132(14) 0.64272(17)
H3_18 H 0.7557 0.9271 0.6314
C8_18 C 0.83921(16) 0.89464(16) 0.68796(18)
C9_18 C 0.84688(13) 0.87108(13) 0.66912(14)
C10_18 C 0.82844(13) 0.86852(13) 0.64778(13)
C11_18 C 0.8618(2) 0.9190(2) 0.6869(2)
H4_18 H 0.8547 0.9349 0.6972
H5_18 H 0.8786 0.9126 0.6962
C12_18 C 0.8696(3) 0.9286(3) 0.6572(3)
H6_18 H 0.8773 0.9131 0.6470
H7_18 H 0.8831 0.9433 0.6583
H8_18 H 0.8531 0.9353 0.6479
C13_18 C 0.8305(2) 0.8840(3) 0.71745(18)
H9_18 H 0.8469 0.8770 0.7270
H10_18 H 0.8234 0.8997 0.7282
C14_18 C 0.8100(3) 0.8629(3) 0.7170(2)
H11_18 H 0.7921 0.8711 0.7132
H12_18 H 0.8096 0.8537 0.7348
H13_18 H 0.8145 0.8496 0.7027
C18_18 C 0.95823(13) 0.82411(19) 0.74200(16)
C19_18 C 0.82411(19) 0.75800(16) 0.54177(13)
C29_18 C 0.93536(13) 0.83373(18) 0.72438(12)
C30_18 C 0.83373(18) 0.77562(12) 0.56464(13)
C40_18 C 0.92704(14) 0.81728(18) 0.70223(15)
C41_18 C 0.81728(18) 0.79777(15) 0.57296(14)
H17_18 H 0.9362 0.8006 0.6983
H18_18 H 0.8006 0.8017 0.5638
C48_18 C 0.90509(13) 0.82593(15) 0.68614(13)
C49_18 C 0.82593(15) 0.81386(13) 0.59491(13)
C59_18 C 0.89127(13) 0.84977(15) 0.69186(12)
C60_18 C 0.84977(15) 0.80814(12) 0.60873(13)
C70_18 C 0.89934(14) 0.86529(16) 0.71448(14)
C71_18 C 0.86529(16) 0.78552(14) 0.60066(14)
H25_18 H 0.8895 0.8814 0.7193
H26_18 H 0.8814 0.7807 0.6105
C84_18 C 0.92132(14) 0.85728(17) 0.72953(14)
C85_18 C 0.85728(17) 0.77047(14) 0.57868(14)
H39_18 H 0.9271 0.8686 0.7443
H40_18 H 0.8686 0.7557 0.5729
C92_18 C 0.81204(18) 0.83921(16) 0.60536(16)
C93_18 C 0.89464(16) 0.81204(18) 0.66079(16)
C103_18 C 0.83088(14) 0.84688(13) 0.62892(13)
C104_18 C 0.87108(13) 0.83088(14) 0.65312(13)
C114_18 C 0.86852(13) 0.85222(13) 0.67156(13)
C115_18 C 0.85222(13) 0.82844(13) 0.63148(13)
C125_18 C 0.8131(2) 0.8618(2) 0.5810(2)
C126_18 C 0.9190(2) 0.8131(2) 0.6382(2)
H47_18 H 0.8028 0.8547 0.5651
H48_18 H 0.9349 0.8028 0.6453
H58_18 H 0.8038 0.8786 0.5874
H59_18 H 0.9126 0.8038 0.6214
C136_18 C 0.8428(3) 0.8696(3) 0.5714(3)
C137_18 C 0.9286(3) 0.8428(3) 0.6304(3)
H69_18 H 0.8530 0.8773 0.5869
H70_18 H 0.9131 0.8530 0.6227
H80_18 H 0.8417 0.8831 0.5567
H81_18 H 0.9433 0.8417 0.6169
H91_18 H 0.8521 0.8531 0.5647
H92_18 H 0.9353 0.8521 0.6469
C147_18 C 0.78255(18) 0.8305(2) 0.6160(3)
C148_18 C 0.8840(3) 0.78255(18) 0.6695(2)
H102_18 H 0.7730 0.8469 0.6230
H103_18 H 0.8770 0.7730 0.6531
H113_18 H 0.7718 0.8234 0.6003
H114_18 H 0.8997 0.7718 0.6766
C158_18 C 0.7830(2) 0.8100(3) 0.6371(3)
C159_18 C 0.8629(3) 0.7830(2) 0.6900(3)
H124_18 H 0.7868 0.7921 0.6289
H125_18 H 0.8711 0.7868 0.7079
H135_18 H 0.7652 0.8096 0.6463
H136_18 H 0.8537 0.7652 0.6904
H146_18 H 0.7973 0.8145 0.6504
H147_18 H 0.8496 0.7973 0.6855
C17_12 C 0.95823(13) 0.32411(19) 0.24200(16)
C24_12 C 0.75800(16) 0.45823(13) 0.17589(19)
C25_12 C 0.82411(19) 0.25800(16) 0.04177(13)
C28_12 C 0.93536(13) 0.33373(18) 0.22438(12)
C35_12 C 0.77562(12) 0.43536(13) 0.16627(18)
C36_12 C 0.83373(18) 0.27562(12) 0.06464(13)
C39_12 C 0.92704(14) 0.31728(18) 0.20223(15)
C46_12 C 0.79777(15) 0.42704(14) 0.18272(18)
C47_12 C 0.81728(18) 0.29777(15) 0.07296(14)
H16_12 H 0.9362 0.3006 0.1983
H23_12 H 0.8017 0.4362 0.1994
H24_12 H 0.8006 0.3017 0.0638
C52_12 C 0.90509(13) 0.32593(15) 0.18614(13)
C57_12 C 0.81386(13) 0.40509(13) 0.17407(15)
C58_12 C 0.82593(15) 0.31386(13) 0.09491(13)
C63_12 C 0.89127(13) 0.34977(15) 0.19186(12)
C66_12 C 0.84977(15) 0.30814(12) 0.10873(13)
C69_12 C 0.80814(12) 0.39127(13) 0.15023(15)
C74_12 C 0.89934(14) 0.36529(16) 0.21448(14)
C77_12 C 0.86529(16) 0.28552(14) 0.10066(14)
C80_12 C 0.78552(14) 0.39934(14) 0.13471(16)
H29_12 H 0.8895 0.3814 0.2193
H32_12 H 0.8814 0.2807 0.1105
H35_12 H 0.7807 0.3895 0.1186
C83_12 C 0.92132(14) 0.35728(17) 0.22953(14)
C88_12 C 0.85728(17) 0.27047(14) 0.07868(14)
C91_12 C 0.77047(14) 0.42132(14) 0.14272(17)
H38_12 H 0.9271 0.3686 0.2443
H43_12 H 0.8686 0.2557 0.0729
H46_12 H 0.7557 0.4271 0.1314
C96_12 C 0.89464(16) 0.31204(18) 0.16079(16)
C99_12 C 0.83921(16) 0.39464(16) 0.18796(18)
C102_12 C 0.81204(18) 0.33921(16) 0.10536(16)
C107_12 C 0.87108(13) 0.33088(14) 0.15312(13)
C110_12 C 0.84688(13) 0.37108(13) 0.16912(14)
C113_12 C 0.83088(14) 0.34688(13) 0.12892(13)
C118_12 C 0.86852(13) 0.35222(13) 0.17156(13)
C121_12 C 0.85222(13) 0.32844(13) 0.13148(13)
C124_12 C 0.82844(13) 0.36852(13) 0.14778(13)
C129_12 C 0.9190(2) 0.3131(2) 0.1382(2)
C132_12 C 0.8618(2) 0.4190(2) 0.1869(2)
C135_12 C 0.8131(2) 0.3618(2) 0.0810(2)
H51_12 H 0.9349 0.3028 0.1453
H54_12 H 0.8547 0.4349 0.1972
H57_12 H 0.8028 0.3547 0.0651
H62_12 H 0.9126 0.3038 0.1214
H65_12 H 0.8786 0.4126 0.1962
H68_12 H 0.8038 0.3786 0.0874
C140_12 C 0.9286(3) 0.3428(3) 0.1304(3)
C143_12 C 0.8696(3) 0.4286(3) 0.1572(3)
C146_12 C 0.8428(3) 0.3696(3) 0.0714(3)
H73_12 H 0.9131 0.3530 0.1227
H76_12 H 0.8773 0.4131 0.1470
H79_12 H 0.8530 0.3773 0.0869
H84_12 H 0.9433 0.3417 0.1169
H87_12 H 0.8831 0.4433 0.1583
H90_12 H 0.8417 0.3831 0.0567
H95_12 H 0.9353 0.3521 0.1469
H98_12 H 0.8531 0.4353 0.1479
H101_12 H 0.8521 0.3531 0.0647
C151_12 C 0.8840(3) 0.28255(18) 0.1695(2)
C154_12 C 0.8305(2) 0.3840(3) 0.21745(18)
C157_12 C 0.78255(18) 0.3305(2) 0.1160(3)
H106_12 H 0.8770 0.2730 0.1531
H109_12 H 0.8469 0.3770 0.2270
H112_12 H 0.7730 0.3469 0.1230
H117_12 H 0.8997 0.2718 0.1766
H120_12 H 0.8234 0.3997 0.2282
H123_12 H 0.7718 0.3234 0.1003
C162_12 C 0.8629(3) 0.2830(2) 0.1900(3)
C165_12 C 0.8100(3) 0.3629(3) 0.2170(2)
C168_12 C 0.7830(2) 0.3100(3) 0.1371(3)
H128_12 H 0.8711 0.2868 0.2079
H131_12 H 0.7921 0.3711 0.2132
H134_12 H 0.7868 0.2921 0.1289
H139_12 H 0.8537 0.2652 0.1904
H142_12 H 0.8096 0.3537 0.2348
H145_12 H 0.7652 0.3096 0.1463
H150_12 H 0.8496 0.2973 0.1855
H153_12 H 0.8145 0.3496 0.2027
H156_12 H 0.7973 0.3145 0.1504
O3_27 O -0.0000 0.7500 0.2500
O4_27 O 0.0000 0.6828(5) 0.1661(5)
O8_10 O 0.03353(11) 0.66158(14) 0.26108(12)
O18_11 O 0.26108(12) 0.53353(11) 0.16158(14)
O19_11 O 0.16158(14) 0.76108(12) 0.03353(11)
O20_10 O 0.03144(12) 0.69868(18) 0.23849(13)
O33_11 O 0.23849(13) 0.53144(12) 0.19868(18)
O34_11 O 0.19868(18) 0.73849(13) 0.03144(12)
C17_13 C 0.04177(13) 0.67589(19) 0.24200(16)
C24_13 C 0.24200(16) 0.54177(13) 0.17589(19)
C25_13 C 0.17589(19) 0.74200(16) 0.04177(13)
C28_13 C 0.06464(13) 0.66627(18) 0.22438(12)
C35_13 C 0.22438(12) 0.56464(13) 0.16627(18)
C36_13 C 0.16627(18) 0.72438(12) 0.06464(13)
C39_13 C 0.07296(14) 0.68272(18) 0.20223(15)
C46_13 C 0.20223(15) 0.57296(14) 0.18272(18)
C47_13 C 0.18272(18) 0.70223(15) 0.07296(14)
H16_13 H 0.0638 0.6994 0.1983
H23_13 H 0.1983 0.5638 0.1994
H24_13 H 0.1994 0.6983 0.0638
C52_13 C 0.09491(13) 0.67407(15) 0.18614(13)
C57_13 C 0.18614(13) 0.59491(13) 0.17407(15)
C58_13 C 0.17407(15) 0.68614(13) 0.09491(13)
C63_13 C 0.10873(13) 0.65023(15) 0.19186(12)
C66_13 C 0.15023(15) 0.69186(12) 0.10873(13)
C69_13 C 0.19186(12) 0.60873(13) 0.15023(15)
C74_13 C 0.10066(14) 0.63471(16) 0.21448(14)
C77_13 C 0.13471(16) 0.71448(14) 0.10066(14)
C80_13 C 0.21448(14) 0.60066(14) 0.13471(16)
H29_13 H 0.1105 0.6186 0.2193
H32_13 H 0.1186 0.7193 0.1105
H35_13 H 0.2193 0.6105 0.1186
C83_13 C 0.07868(14) 0.64272(17) 0.22953(14)
C88_13 C 0.14272(17) 0.72953(14) 0.07868(14)
C91_13 C 0.22953(14) 0.57868(14) 0.14272(17)
H38_13 H 0.0729 0.6314 0.2443
H43_13 H 0.1314 0.7443 0.0729
H46_13 H 0.2443 0.5729 0.1314
C96_13 C 0.10536(16) 0.68796(18) 0.16079(16)
C99_13 C 0.16079(16) 0.60536(16) 0.18796(18)
C102_13 C 0.18796(18) 0.66079(16) 0.10536(16)
C107_13 C 0.12892(13) 0.66912(14) 0.15312(13)
C110_13 C 0.15312(13) 0.62892(13) 0.16912(14)
C113_13 C 0.16912(14) 0.65312(13) 0.12892(13)
C118_13 C 0.13148(13) 0.64778(13) 0.17156(13)
C121_13 C 0.14778(13) 0.67156(13) 0.13148(13)
C124_13 C 0.17156(13) 0.63148(13) 0.14778(13)
C129_13 C 0.0810(2) 0.6869(2) 0.1382(2)
C132_13 C 0.1382(2) 0.5810(2) 0.1869(2)
C135_13 C 0.1869(2) 0.6382(2) 0.0810(2)
H51_13 H 0.0651 0.6972 0.1453
H54_13 H 0.1453 0.5651 0.1972
H57_13 H 0.1972 0.6453 0.0651
H62_13 H 0.0874 0.6962 0.1214
H65_13 H 0.1214 0.5874 0.1962
H68_13 H 0.1962 0.6214 0.0874
C140_13 C 0.0714(3) 0.6572(3) 0.1304(3)
C143_13 C 0.1304(3) 0.5714(3) 0.1572(3)
C146_13 C 0.1572(3) 0.6304(3) 0.0714(3)
H73_13 H 0.0869 0.6470 0.1227
H76_13 H 0.1227 0.5869 0.1470
H79_13 H 0.1470 0.6227 0.0869
H84_13 H 0.0567 0.6583 0.1169
H87_13 H 0.1169 0.5567 0.1583
H90_13 H 0.1583 0.6169 0.0567
H95_13 H 0.0647 0.6479 0.1469
H98_13 H 0.1469 0.5647 0.1479
H101_13 H 0.1479 0.6469 0.0647
C151_13 C 0.1160(3) 0.71745(18) 0.1695(2)
C154_13 C 0.1695(2) 0.6160(3) 0.21745(18)
C157_13 C 0.21745(18) 0.6695(2) 0.1160(3)
H106_13 H 0.1230 0.7270 0.1531
H109_13 H 0.1531 0.6230 0.2270
H112_13 H 0.2270 0.6531 0.1230
H117_13 H 0.1003 0.7282 0.1766
H120_13 H 0.1766 0.6003 0.2282
H123_13 H 0.2282 0.6766 0.1003
C162_13 C 0.1371(3) 0.7170(2) 0.1900(3)
C165_13 C 0.1900(3) 0.6371(3) 0.2170(2)
C168_13 C 0.2170(2) 0.6900(3) 0.1371(3)
H128_13 H 0.1289 0.7132 0.2079
H131_13 H 0.2079 0.6289 0.2132
H134_13 H 0.2132 0.7079 0.1289
H139_13 H 0.1463 0.7348 0.1904
H142_13 H 0.1904 0.6463 0.2348
H145_13 H 0.2348 0.6904 0.1463
H150_13 H 0.1504 0.7027 0.1855
H153_13 H 0.1855 0.6504 0.2027
H156_13 H 0.2027 0.6855 0.1504
O35_27 O -0.0000 0.8339(5) 0.1828(5)
O36_27 O -0.0000 0.6661(5) 0.3172(5)
O37_27 O -0.0000 0.8172(5) 0.3339(5)
O3_28 O 1.0000 0.7500 0.2500
O4_28 O 1.0000 0.6828(5) 0.1661(5)
O35_28 O 1.0000 0.8339(5) 0.1828(5)
O36_28 O 1.0000 0.6661(5) 0.3172(5)
O37_28 O 1.0000 0.8172(5) 0.3339(5)
O3_29 O 0.2500 0.7500 0.0000
O4_29 O 0.1828(5) 0.6661(5) 0.0000
O35_29 O 0.3339(5) 0.6828(5) 0.0000
O36_29 O 0.1661(5) 0.8172(5) 0.0000
O37_29 O 0.3172(5) 0.8339(5) 0.0000
O3_30 O 0.2500 0.7500 1.0000
O4_30 O 0.1828(5) 0.6661(5) 1.0000
O35_30 O 0.3339(5) 0.6828(5) 1.0000
O36_30 O 0.1661(5) 0.8172(5) 1.0000
O37_30 O 0.3172(5) 0.8339(5) 1.0000
O3_31 O 0.2500 0.5000 0.2500
O4_31 O 0.1661(5) 0.5000 0.1828(5)
O35_31 O 0.1828(5) 0.5000 0.3339(5)
O36_31 O 0.3172(5) 0.5000 0.1661(5)
O37_31 O 0.3339(5) 0.5000 0.3172(5)
O3_32 O -0.0000 0.2500 0.7500
O4_32 O -0.0000 0.1828(5) 0.6661(5)
O8_11 O 0.03353(11) 0.16158(14) 0.76108(12)
O18_12 O 0.26108(12) 0.03353(11) 0.66158(14)
O19_12 O 0.16158(14) 0.26108(12) 0.53353(11)
O20_11 O 0.03144(12) 0.19868(18) 0.73849(13)
O33_12 O 0.23849(13) 0.03144(12) 0.69868(18)
O34_12 O 0.19868(18) 0.23849(13) 0.53144(12)
C17_14 C 0.04177(13) 0.17589(19) 0.74200(16)
C24_14 C 0.24200(16) 0.04177(13) 0.67589(19)
C25_14 C 0.17589(19) 0.24200(16) 0.54177(13)
C28_14 C 0.06464(13) 0.16627(18) 0.72438(12)
C35_14 C 0.22438(12) 0.06464(13) 0.66627(18)
C36_14 C 0.16627(18) 0.22438(12) 0.56464(13)
C39_14 C 0.07296(14) 0.18272(18) 0.70223(15)
C46_14 C 0.20223(15) 0.07296(14) 0.68272(18)
C47_14 C 0.18272(18) 0.20223(15) 0.57296(14)
H16_14 H 0.0638 0.1994 0.6983
H23_14 H 0.1983 0.0638 0.6994
H24_14 H 0.1994 0.1983 0.5638
C52_14 C 0.09491(13) 0.17407(15) 0.68614(13)
C57_14 C 0.18614(13) 0.09491(13) 0.67407(15)
C58_14 C 0.17407(15) 0.18614(13) 0.59491(13)
C63_14 C 0.10873(13) 0.15023(15) 0.69186(12)
C66_14 C 0.15023(15) 0.19186(12) 0.60873(13)
C69_14 C 0.19186(12) 0.10873(13) 0.65023(15)
C74_14 C 0.10066(14) 0.13471(16) 0.71448(14)
C77_14 C 0.13471(16) 0.21448(14) 0.60066(14)
C80_14 C 0.21448(14) 0.10066(14) 0.63471(16)
H29_14 H 0.1105 0.1186 0.7193
H32_14 H 0.1186 0.2193 0.6105
H35_14 H 0.2193 0.1105 0.6186
C83_14 C 0.07868(14) 0.14272(17) 0.72953(14)
C88_14 C 0.14272(17) 0.22953(14) 0.57868(14)
C91_14 C 0.22953(14) 0.07868(14) 0.64272(17)
H38_14 H 0.0729 0.1314 0.7443
H43_14 H 0.1314 0.2443 0.5729
H46_14 H 0.2443 0.0729 0.6314
C96_14 C 0.10536(16) 0.18796(18) 0.66079(16)
C99_14 C 0.16079(16) 0.10536(16) 0.68796(18)
C102_14 C 0.18796(18) 0.16079(16) 0.60536(16)
C107_14 C 0.12892(13) 0.16912(14) 0.65312(13)
C110_14 C 0.15312(13) 0.12892(13) 0.66912(14)
C113_14 C 0.16912(14) 0.15312(13) 0.62892(13)
C118_14 C 0.13148(13) 0.14778(13) 0.67156(13)
C121_14 C 0.14778(13) 0.17156(13) 0.63148(13)
C124_14 C 0.17156(13) 0.13148(13) 0.64778(13)
C129_14 C 0.0810(2) 0.1869(2) 0.6382(2)
C132_14 C 0.1382(2) 0.0810(2) 0.6869(2)
C135_14 C 0.1869(2) 0.1382(2) 0.5810(2)
H51_14 H 0.0651 0.1972 0.6453
H54_14 H 0.1453 0.0651 0.6972
H57_14 H 0.1972 0.1453 0.5651
H62_14 H 0.0874 0.1962 0.6214
H65_14 H 0.1214 0.0874 0.6962
H68_14 H 0.1962 0.1214 0.5874
C140_14 C 0.0714(3) 0.1572(3) 0.6304(3)
C143_14 C 0.1304(3) 0.0714(3) 0.6572(3)
C146_14 C 0.1572(3) 0.1304(3) 0.5714(3)
H73_14 H 0.0869 0.1470 0.6227
H76_14 H 0.1227 0.0869 0.6470
H79_14 H 0.1470 0.1227 0.5869
H84_14 H 0.0567 0.1583 0.6169
H87_14 H 0.1169 0.0567 0.6583
H90_14 H 0.1583 0.1169 0.5567
H95_14 H 0.0647 0.1479 0.6469
H98_14 H 0.1469 0.0647 0.6479
H101_14 H 0.1479 0.1469 0.5647
C151_14 C 0.1160(3) 0.21745(18) 0.6695(2)
C154_14 C 0.1695(2) 0.1160(3) 0.71745(18)
C157_14 C 0.21745(18) 0.1695(2) 0.6160(3)
H106_14 H 0.1230 0.2270 0.6531
H109_14 H 0.1531 0.1230 0.7270
H112_14 H 0.2270 0.1531 0.6230
H117_14 H 0.1003 0.2282 0.6766
H120_14 H 0.1766 0.1003 0.7282
H123_14 H 0.2282 0.1766 0.6003
C162_14 C 0.1371(3) 0.2170(2) 0.6900(3)
C165_14 C 0.1900(3) 0.1371(3) 0.7170(2)
C168_14 C 0.2170(2) 0.1900(3) 0.6371(3)
H128_14 H 0.1289 0.2132 0.7079
H131_14 H 0.2079 0.1289 0.7132
H134_14 H 0.2132 0.2079 0.6289
H139_14 H 0.1463 0.2348 0.6904
H142_14 H 0.1904 0.1463 0.7348
H145_14 H 0.2348 0.1904 0.6463
H150_14 H 0.1504 0.2027 0.6855
H153_14 H 0.1855 0.1504 0.7027
H156_14 H 0.2027 0.1855 0.6504
O35_32 O 0.0000 0.3339(5) 0.6828(5)
O36_32 O 0.0000 0.1661(5) 0.8172(5)
O37_32 O -0.0000 0.3172(5) 0.8339(5)
O3_33 O 1.0000 0.2500 0.7500
O4_33 O 1.0000 0.1828(5) 0.6661(5)
O35_33 O 1.0000 0.3339(5) 0.6828(5)
O36_33 O 1.0000 0.1661(5) 0.8172(5)
O37_33 O 1.0000 0.3172(5) 0.8339(5)
O3_34 O 0.2500 0.2500 0.5000
O4_34 O 0.1828(5) 0.1661(5) 0.5000
O35_34 O 0.3339(5) 0.1828(5) 0.5000
O36_34 O 0.1661(5) 0.3172(5) 0.5000
O37_34 O 0.3172(5) 0.3339(5) 0.5000
O3_35 O 0.2500 0.0000 0.7500
O4_35 O 0.1661(5) 0.0000 0.6828(5)
O35_35 O 0.1828(5) -0.0000 0.8339(5)
O36_35 O 0.3172(5) 0.0000 0.6661(5)
O37_35 O 0.3339(5) -0.0000 0.8172(5)
O3_36 O 0.2500 1.0000 0.7500
O4_36 O 0.1661(5) 1.0000 0.6828(5)
O35_36 O 0.1828(5) 1.0000 0.8339(5)
O36_36 O 0.3172(5) 1.0000 0.6661(5)
O37_36 O 0.3339(5) 1.0000 0.8172(5)
O38 O 0.1243(10) -0.0000 0.1779(10)
H163 H 0.144636 -1.54074e-33 0.1779
H164 H 0.117521 0.0166045 0.168313
O38_2 O 0.1243(10) 1.0000 0.1779(10)
H163_2 H 0.144636 1 0.1779
H165 H 0.117521 0.983396 0.168313
O38_3 O 0.1779(10) 0.1243(10) 0.0000
H163_3 H 0.1779 0.144636 0
H164_2 H 0.168313 0.117521 0.0166045
O38_4 O 0.1779(10) 0.1243(10) 1.0000
H163_4 H 0.1779 0.144636 1
H165_2 H 0.168313 0.117521 0.983396
O38_5 O -0.0000 0.1779(10) 0.1243(10)
H163_5 H -3.08149e-33 0.1779 0.144636
H164_3 H 0.0166045 0.168313 0.117521
O38_6 O 1.0000 0.1779(10) 0.1243(10)
H163_6 H 1 0.1779 0.144636
H165_3 H 0.983396 0.168313 0.117521
O38_7 O 0.5000 0.6243(10) 0.3221(10)
O38_8 O 0.5000 0.3757(10) 0.6779(10)
O38_9 O 0.5000 0.6243(10) 0.6779(10)
O38_10 O 0.6243(10) 0.6779(10) 0.5000
O38_11 O 0.3757(10) 0.6779(10) 0.5000
O38_12 O 0.6243(10) 0.3221(10) 0.5000
O38_13 O 0.6779(10) 0.5000 0.3757(10)
O38_14 O 0.6779(10) 0.5000 0.6243(10)
O38_15 O 0.3221(10) 0.5000 0.6243(10)
O38_16 O 0.1243(10) 0.5000 0.6779(10)
O38_17 O 0.1779(10) 0.6243(10) 0.5000
O38_18 O -0.0000 0.6779(10) 0.6243(10)
H163_7 H -6.16298e-33 0.6779 0.644636
H164_4 H 0.0166045 0.668313 0.617521
O38_19 O 1.0000 0.6779(10) 0.6243(10)
H163_8 H 1 0.6779 0.644636
H165_4 H 0.983396 0.668313 0.617521
O38_20 O 0.5000 0.1243(10) 0.8221(10)
O38_21 O 0.5000 0.8757(10) 0.1779(10)
O38_22 O 0.5000 0.1243(10) 0.1779(10)
O38_23 O 0.6243(10) 0.1779(10) 0.0000
H163_9 H 0.644636 0.1779 0
H165_5 H 0.617521 0.168313 0.0166045
O38_24 O 0.6243(10) 0.1779(10) 1.0000
H163_10 H 0.644636 0.1779 1
H164_5 H 0.617521 0.168313 0.983396
O38_25 O 0.3757(10) 0.1779(10) 0.0000
H163_11 H 0.355364 0.1779 0
H164_6 H 0.382479 0.168313 0.0166045
O38_26 O 0.3757(10) 0.1779(10) 1.0000
H163_12 H 0.355364 0.1779 1
H165_6 H 0.382479 0.168313 0.983396
O38_27 O 0.6243(10) 0.8221(10) 0.0000
H163_13 H 0.644636 0.8221 0
H164_7 H 0.617521 0.831687 0.0166045
O38_28 O 0.6243(10) 0.8221(10) 1.0000
H163_14 H 0.644636 0.8221 1
H165_7 H 0.617521 0.831687 0.983396
O38_29 O 0.6779(10) 0.0000 0.8757(10)
H163_15 H 0.6779 0 0.855364
H164_8 H 0.668313 0.0166045 0.882479
O38_30 O 0.6779(10) 1.0000 0.8757(10)
H163_16 H 0.6779 1 0.855364
H165_8 H 0.668313 0.983396 0.882479
O38_31 O 0.6779(10) 0.0000 0.1243(10)
H163_17 H 0.6779 0 0.144636
H165_9 H 0.668313 0.0166045 0.117521
O38_32 O 0.6779(10) 1.0000 0.1243(10)
H163_18 H 0.6779 1 0.144636
H164_9 H 0.668313 0.983396 0.117521
O38_33 O 0.3221(10) 0.0000 0.1243(10)
H163_19 H 0.3221 0 0.144636
H164_10 H 0.331687 0.0166045 0.117521
O38_34 O 0.3221(10) 1.0000 0.1243(10)
H163_20 H 0.3221 1 0.144636
H165_10 H 0.331687 0.983396 0.117521
O38_35 O 0.6243(10) -0.0000 0.6779(10)
H163_21 H 0.644636 -6.16298e-33 0.6779
H164_11 H 0.617521 0.0166045 0.668313
O38_36 O 0.6243(10) 1.0000 0.6779(10)
H163_22 H 0.644636 1 0.6779
H165_11 H 0.617521 0.983396 0.668313
O38_37 O 0.6779(10) 0.1243(10) 0.5000
O38_38 O 0.5000 0.1779(10) 0.6243(10)
O38_39 O -0.0000 0.6243(10) 0.8221(10)
H163_23 H -1.2326e-32 0.644636 0.8221
H164_12 H 0.0166045 0.617521 0.831687
O38_40 O 1.0000 0.6243(10) 0.8221(10)
H163_24 H 1 0.644636 0.8221
H165_12 H 0.983396 0.617521 0.831687
O38_41 O 0.0000 0.3757(10) 0.1779(10)
H163_25 H -3.08149e-33 0.355364 0.1779
H164_13 H 0.0166045 0.382479 0.168313
O38_42 O 1.0000 0.3757(10) 0.1779(10)
H163_26 H 1 0.355364 0.1779
H165_13 H 0.983396 0.382479 0.168313
O38_43 O -0.0000 0.6243(10) 0.1779(10)
H163_27 H -6.16298e-33 0.644636 0.1779
H165_14 H 0.0166045 0.617521 0.168313
O38_44 O 1.0000 0.6243(10) 0.1779(10)
H163_28 H 1 0.644636 0.1779
H164_14 H 0.983396 0.617521 0.168313
O38_45 O 0.1243(10) 0.6779(10) 0.0000
H163_29 H 0.144636 0.6779 0
H165_15 H 0.117521 0.668313 0.0166045
O38_46 O 0.1243(10) 0.6779(10) 1.0000
H163_30 H 0.144636 0.6779 1
H164_15 H 0.117521 0.668313 0.983396
O38_47 O 0.8757(10) 0.6779(10) 0.0000
H163_31 H 0.855364 0.6779 0
H164_16 H 0.882479 0.668313 0.0166045
O38_48 O 0.8757(10) 0.6779(10) 1.0000
H163_32 H 0.855364 0.6779 1
H165_16 H 0.882479 0.668313 0.983396
O38_49 O 0.1243(10) 0.3221(10) 0.0000
H163_33 H 0.144636 0.3221 0
H164_17 H 0.117521 0.331687 0.0166045
O38_50 O 0.1243(10) 0.3221(10) 1.0000
H163_34 H 0.144636 0.3221 1
H165_17 H 0.117521 0.331687 0.983396
O38_51 O 0.1779(10) 0.5000 0.8757(10)
O38_52 O 0.1779(10) 0.5000 0.1243(10)
O38_53 O 0.8221(10) 0.5000 0.1243(10)
O38_54 O 0.6243(10) 0.5000 0.1779(10)
O38_55 O 0.6779(10) 0.6243(10) 0.0000
H163_35 H 0.6779 0.644636 0
H164_18 H 0.668313 0.617521 0.0166045
O38_56 O 0.6779(10) 0.6243(10) 1.0000
H163_36 H 0.6779 0.644636 1
H165_18 H 0.668313 0.617521 0.983396
O38_57 O 0.5000 0.6779(10) 0.1243(10)
O38_58 O -0.0000 0.1243(10) 0.3221(10)
H163_37 H 0 0.144636 0.3221
H164_19 H 0.0166045 0.117521 0.331687
O38_59 O 1.0000 0.1243(10) 0.3221(10)
H163_38 H 1 0.144636 0.3221
H165_19 H 0.983396 0.117521 0.331687
O38_60 O -0.0000 0.8757(10) 0.6779(10)
H163_39 H -6.16298e-33 0.855364 0.6779
H164_20 H 0.0166045 0.882479 0.668313
O38_61 O 1.0000 0.8757(10) 0.6779(10)
H163_40 H 1 0.855364 0.6779
H165_20 H 0.983396 0.882479 0.668313
O38_62 O -0.0000 0.1243(10) 0.6779(10)
H163_41 H -1.2326e-32 0.144636 0.6779
H165_21 H 0.0166045 0.117521 0.668313
O38_63 O 1.0000 0.1243(10) 0.6779(10)
H163_42 H 1 0.144636 0.6779
H164_21 H 0.983396 0.117521 0.668313
O38_64 O 0.1243(10) 0.1779(10) 0.5000
O38_65 O 0.8757(10) 0.1779(10) 0.5000
O38_66 O 0.1243(10) 0.8221(10) 0.5000
O38_67 O 0.1779(10) 0.0000 0.3757(10)
H163_43 H 0.1779 0 0.355364
H164_22 H 0.168313 0.0166045 0.382479
O38_68 O 0.1779(10) 1.0000 0.3757(10)
H163_44 H 0.1779 1 0.355364
H165_22 H 0.168313 0.983396 0.382479
O38_69 O 0.1779(10) -0.0000 0.6243(10)
H163_45 H 0.1779 -6.16298e-33 0.644636
H165_23 H 0.168313 0.0166045 0.617521
O38_70 O 0.1779(10) 1.0000 0.6243(10)
H163_46 H 0.1779 1 0.644636
H164_23 H 0.168313 0.983396 0.617521
O38_71 O 0.8221(10) -0.0000 0.6243(10)
H163_47 H 0.8221 -6.16298e-33 0.644636
H164_24 H 0.831687 0.0166045 0.617521
O38_72 O 0.8221(10) 1.0000 0.6243(10)
H163_48 H 0.8221 1 0.644636
H165_24 H 0.831687 0.983396 0.617521
O38_73 O 0.8757(10) -0.0000 0.1779(10)
H163_49 H 0.855364 -1.54074e-33 0.1779
H165_25 H 0.882479 0.0166045 0.168313
O38_74 O 0.8757(10) 1.0000 0.1779(10)
H163_50 H 0.855364 1 0.1779
H164_25 H 0.882479 0.983396 0.168313
O38_75 O 0.8757(10) 0.0000 0.8221(10)
H163_51 H 0.855364 6.16298e-33 0.8221
H164_26 H 0.882479 0.0166045 0.831687
O38_76 O 0.8757(10) 1.0000 0.8221(10)
H163_52 H 0.855364 1 0.8221
H165_26 H 0.882479 0.983396 0.831687
O38_77 O 0.1243(10) 0.0000 0.8221(10)
H163_53 H 0.144636 6.16298e-33 0.8221
H165_27 H 0.117521 0.0166045 0.831687
O38_78 O 0.1243(10) 1.0000 0.8221(10)
H163_54 H 0.144636 1 0.8221
H164_27 H 0.117521 0.983396 0.831687
O38_79 O 0.1779(10) 0.8757(10) 0.0000
H163_55 H 0.1779 0.855364 0
H165_28 H 0.168313 0.882479 0.0166045
O38_80 O 0.1779(10) 0.8757(10) 1.0000
H163_56 H 0.1779 0.855364 1
H164_28 H 0.168313 0.882479 0.983396
O38_81 O 0.8221(10) 0.8757(10) 0.0000
H163_57 H 0.8221 0.855364 0
H164_29 H 0.831687 0.882479 0.0166045
O38_82 O 0.8221(10) 0.8757(10) 1.0000
H163_58 H 0.8221 0.855364 1
H165_29 H 0.831687 0.882479 0.983396
O38_83 O 0.8221(10) 0.1243(10) 0.0000
H163_59 H 0.8221 0.144636 0
H165_30 H 0.831687 0.117521 0.0166045
O38_84 O 0.8221(10) 0.1243(10) 1.0000
H163_60 H 0.8221 0.144636 1
H164_30 H 0.831687 0.117521 0.983396
O38_85 O 0.0000 0.1779(10) 0.8757(10)
H163_61 H 6.16298e-33 0.1779 0.855364
H165_31 H 0.0166045 0.168313 0.882479
O38_86 O 1.0000 0.1779(10) 0.8757(10)
H163_62 H 1 0.1779 0.855364
H164_31 H 0.983396 0.168313 0.882479
O38_87 O 0.0000 0.8221(10) 0.8757(10)
H163_63 H 6.16298e-33 0.8221 0.855364
H164_32 H 0.0166045 0.831687 0.882479
O38_88 O 1.0000 0.8221(10) 0.8757(10)
H163_64 H 1 0.8221 0.855364
H165_32 H 0.983396 0.831687 0.882479
O38_89 O 0.0000 0.8221(10) 0.1243(10)
H163_65 H 3.08149e-33 0.8221 0.144636
H165_33 H 0.0166045 0.831687 0.117521
O38_90 O 1.0000 0.8221(10) 0.1243(10)
H163_66 H 1 0.8221 0.144636
H164_33 H 0.983396 0.831687 0.117521
O38_91 O 0.5000 0.3757(10) 0.3221(10)
O38_92 O 0.3757(10) 0.3221(10) 0.5000
O38_93 O 0.3221(10) 0.5000 0.3757(10)
O38_94 O 0.8757(10) 0.5000 0.6779(10)
O38_95 O 0.8757(10) 0.5000 0.3221(10)
O38_96 O 0.1243(10) 0.5000 0.3221(10)
O38_97 O 0.1779(10) 0.3757(10) 0.5000
O38_98 O 0.8221(10) 0.3757(10) 0.5000
O38_99 O 0.8221(10) 0.6243(10) 0.5000
O38_100 O 0.0000 0.6779(10) 0.3757(10)
H163_67 H 3.08149e-33 0.6779 0.355364
H165_34 H 0.0166045 0.668313 0.382479
O38_101 O 1.0000 0.6779(10) 0.3757(10)
H163_68 H 1 0.6779 0.355364
H164_34 H 0.983396 0.668313 0.382479
O38_102 O -0.0000 0.3221(10) 0.3757(10)
H163_69 H -6.16298e-33 0.3221 0.355364
H164_35 H 0.0166045 0.331687 0.382479
O38_103 O 1.0000 0.3221(10) 0.3757(10)
H163_70 H 1 0.3221 0.355364
H165_35 H 0.983396 0.331687 0.382479
O38_104 O -0.0000 0.3221(10) 0.6243(10)
H163_71 H -6.16298e-33 0.3221 0.644636
H165_36 H 0.0166045 0.331687 0.617521
O38_105 O 1.0000 0.3221(10) 0.6243(10)
H163_72 H 1 0.3221 0.644636
H164_36 H 0.983396 0.331687 0.617521
O38_106 O 0.5000 0.8757(10) 0.8221(10)
O38_107 O 0.3757(10) 0.8221(10) 0.0000
H163_73 H 0.355364 0.8221 0
H165_37 H 0.382479 0.831687 0.0166045
O38_108 O 0.3757(10) 0.8221(10) 1.0000
H163_74 H 0.355364 0.8221 1
H164_37 H 0.382479 0.831687 0.983396
O38_109 O 0.3221(10) 0.0000 0.8757(10)
H163_75 H 0.3221 0 0.855364
H165_38 H 0.331687 0.0166045 0.882479
O38_110 O 0.3221(10) 1.0000 0.8757(10)
H163_76 H 0.3221 1 0.855364
H164_38 H 0.331687 0.983396 0.882479
O38_111 O 0.3757(10) -0.0000 0.6779(10)
H163_77 H 0.355364 -6.16298e-33 0.6779
H165_39 H 0.382479 0.0166045 0.668313
O38_112 O 0.3757(10) 1.0000 0.6779(10)
H163_78 H 0.355364 1 0.6779
H164_39 H 0.382479 0.983396 0.668313
O38_113 O 0.3757(10) -0.0000 0.3221(10)
H163_79 H 0.355364 -3.08149e-33 0.3221
H164_40 H 0.382479 0.0166045 0.331687
O38_114 O 0.3757(10) 1.0000 0.3221(10)
H163_80 H 0.355364 1 0.3221
H165_40 H 0.382479 0.983396 0.331687
O38_115 O 0.6243(10) -0.0000 0.3221(10)
H163_81 H 0.644636 -3.08149e-33 0.3221
H165_41 H 0.617521 0.0166045 0.331687
O38_116 O 0.6243(10) 1.0000 0.3221(10)
H163_82 H 0.644636 1 0.3221
H164_41 H 0.617521 0.983396 0.331687
O38_117 O 0.6779(10) 0.8757(10) 0.5000
O38_118 O 0.3221(10) 0.8757(10) 0.5000
O38_119 O 0.3221(10) 0.1243(10) 0.5000
O38_120 O 0.5000 0.1779(10) 0.3757(10)
O38_121 O 0.5000 0.8221(10) 0.3757(10)
O38_122 O 0.5000 0.8221(10) 0.6243(10)
O38_123 O 0.0000 0.3757(10) 0.8221(10)
H163_83 H 0 0.355364 0.8221
H165_42 H 0.0166045 0.382479 0.831687
O38_124 O 1.0000 0.3757(10) 0.8221(10)
H163_84 H 1 0.355364 0.8221
H164_42 H 0.983396 0.382479 0.831687
O38_125 O 0.8757(10) 0.3221(10) 0.0000
H163_85 H 0.855364 0.3221 0
H165_43 H 0.882479 0.331687 0.0166045
O38_126 O 0.8757(10) 0.3221(10) 1.0000
H163_86 H 0.855364 0.3221 1
H164_43 H 0.882479 0.331687 0.983396
O38_127 O 0.8221(10) 0.5000 0.8757(10)
O38_128 O 0.3757(10) 0.5000 0.1779(10)
O38_129 O 0.3757(10) 0.5000 0.8221(10)
O38_130 O 0.6243(10) 0.5000 0.8221(10)
O38_131 O 0.6779(10) 0.3757(10) 0.0000
H163_87 H 0.6779 0.355364 0
H165_44 H 0.668313 0.382479 0.0166045
O38_132 O 0.6779(10) 0.3757(10) 1.0000
H163_88 H 0.6779 0.355364 1
H164_44 H 0.668313 0.382479 0.983396
O38_133 O 0.3221(10) 0.3757(10) 0.0000
H163_89 H 0.3221 0.355364 0
H164_45 H 0.331687 0.382479 0.0166045
O38_134 O 0.3221(10) 0.3757(10) 1.0000
H163_90 H 0.3221 0.355364 1
H165_45 H 0.331687 0.382479 0.983396
O38_135 O 0.3221(10) 0.6243(10) 0.0000
H163_91 H 0.3221 0.644636 0
H165_46 H 0.331687 0.617521 0.0166045
O38_136 O 0.3221(10) 0.6243(10) 1.0000
H163_92 H 0.3221 0.644636 1
H164_46 H 0.331687 0.617521 0.983396
O38_137 O 0.5000 0.6779(10) 0.8757(10)
O38_138 O 0.5000 0.3221(10) 0.8757(10)
O38_139 O 0.5000 0.3221(10) 0.1243(10)
O38_140 O 0.0000 0.8757(10) 0.3221(10)
H163_93 H 0 0.855364 0.3221
H165_47 H 0.0166045 0.882479 0.331687
O38_141 O 1.0000 0.8757(10) 0.3221(10)
H163_94 H 1 0.855364 0.3221
H164_47 H 0.983396 0.882479 0.331687
O38_142 O 0.8757(10) 0.8221(10) 0.5000
O38_143 O 0.8221(10) 0.0000 0.3757(10)
H163_95 H 0.8221 0 0.355364
H165_48 H 0.831687 0.0166045 0.382479
O38_144 O 0.8221(10) 1.0000 0.3757(10)
H163_96 H 0.8221 1 0.355364
H164_48 H 0.831687 0.983396 0.382479
loop_
_geom_bond_atom_site_label_1
_geom_bond_atom_site_label_2
_geom_bond_site_symmetry_1
_geom_bond_site_symmetry_2
O3 Pb1 1_555 1_555
O4 Pb1 1_555 1_555
Pb3 O3 1_555 1_555
Pb4 O3 1_555 1_555
Pb9 O14 1_555 1_555
Pb10 O29 1_555 1_555
Pb11 O15 1_555 1_555
Pb12 O30 1_555 1_555
Pb13 O16 1_555 1_555
Pb14 O17 1_555 1_555
Pb15 O32 1_555 1_555
O5 Pb1 1_555 1_555
O7 Pb2 1_555 1_555
O9 Pb3 1_555 1_555
O10 Pb4 1_555 1_555
O14 C20 1_555 1_555
O15 C21 1_555 1_555
O16 C22 1_555 1_555
O17 C23 1_555 1_555
O21 Pb1 1_555 1_555
O22 Pb1 1_555 1_555
O24 Pb2 1_555 1_555
O25 Pb3 1_555 1_555
O29 Pb9 1_555 1_555
O30 Pb11 1_555 1_555
O31 Pb11 1_555 1_555
O32 Pb14 1_555 1_555
C15 O7 1_555 1_555
C16 O10 1_555 1_555
C20 O29 1_555 1_555
C21 O30 1_555 1_555
C22 O31 1_555 1_555
C23 O32 1_555 1_555
C26 C15 1_555 1_555
C27 C16 1_555 1_555
C31 C20 1_555 1_555
C32 C21 1_555 1_555
C33 C22 1_555 1_555
C34 C23 1_555 1_555
C37 C26 1_555 1_555
C38 C27 1_555 1_555
C42 C31 1_555 1_555
C43 C32 1_555 1_555
C44 C33 1_555 1_555
C45 C34 1_555 1_555
H14 C37 1_555 1_555
H15 C38 1_555 1_555
H19 C42 1_555 1_555
H20 C43 1_555 1_555
H21 C44 1_555 1_555
H22 C45 1_555 1_555
C50 C37 1_555 1_555
C51 C38 1_555 1_555
C53 C42 1_555 1_555
C54 C43 1_555 1_555
C55 C44 1_555 1_555
C56 C45 1_555 1_555
C61 C50 1_555 1_555
C62 C51 1_555 1_555
C64 C54 1_555 1_555
C65 C56 1_555 1_555
C67 C53 1_555 1_555
C68 C55 1_555 1_555
C72 C61 1_555 1_555
C73 C62 1_555 1_555
C75 C64 1_555 1_555
C76 C65 1_555 1_555
C78 C67 1_555 1_555
C79 C68 1_555 1_555
H27 C72 1_555 1_555
H28 C73 1_555 1_555
H30 C75 1_555 1_555
H31 C76 1_555 1_555
H33 C78 1_555 1_555
H34 C79 1_555 1_555
C81 C26 1_555 1_555
C82 C27 1_555 1_555
C86 C32 1_555 1_555
C87 C34 1_555 1_555
C89 C31 1_555 1_555
C90 C33 1_555 1_555
H36 C81 1_555 1_555
H37 C82 1_555 1_555
H41 C86 1_555 1_555
H42 C87 1_555 1_555
H44 C89 1_555 1_555
H45 C90 1_555 1_555
C94 C50 1_555 1_555
C95 C51 1_555 1_555
C97 C53 1_555 1_555
C98 C55 1_555 1_555
C100 C54 1_555 1_555
C101 C56 1_555 1_555
C105 C94 1_555 1_555
C106 C95 1_555 1_555
C108 C97 1_555 1_555
C109 C98 1_555 1_555
C111 C100 1_555 1_555
C112 C101 1_555 1_555
C116 C61 1_555 1_555
C117 C62 1_555 1_555
C119 C64 1_555 1_555
C120 C65 1_555 1_555
C122 C67 1_555 1_555
C123 C68 1_555 1_555
C127 C94 1_555 1_555
C128 C95 1_555 1_555
C130 C97 1_555 1_555
C131 C98 1_555 1_555
C133 C100 1_555 1_555
C134 C101 1_555 1_555
H49 C127 1_555 1_555
H50 C128 1_555 1_555
H52 C130 1_555 1_555
H53 C131 1_555 1_555
H55 C133 1_555 1_555
H56 C134 1_555 1_555
H60 C127 1_555 1_555
H61 C128 1_555 1_555
H63 C130 1_555 1_555
H64 C131 1_555 1_555
H66 C133 1_555 1_555
H67 C134 1_555 1_555
C138 C127 1_555 1_555
C139 C128 1_555 1_555
C141 C130 1_555 1_555
C142 C131 1_555 1_555
C144 C133 1_555 1_555
C145 C134 1_555 1_555
H71 C138 1_555 1_555
H72 C139 1_555 1_555
H74 C141 1_555 1_555
H75 C142 1_555 1_555
H77 C144 1_555 1_555
H78 C145 1_555 1_555
H82 C138 1_555 1_555
H83 C139 1_555 1_555
H85 C141 1_555 1_555
H86 C142 1_555 1_555
H88 C144 1_555 1_555
H89 C145 1_555 1_555
H93 C138 1_555 1_555
H94 C139 1_555 1_555
H96 C141 1_555 1_555
H97 C142 1_555 1_555
H99 C144 1_555 1_555
H100 C145 1_555 1_555
C149 C94 1_555 1_555
C150 C95 1_555 1_555
C152 C97 1_555 1_555
C153 C98 1_555 1_555
C155 C100 1_555 1_555
C156 C101 1_555 1_555
H104 C149 1_555 1_555
H105 C150 1_555 1_555
H107 C152 1_555 1_555
H108 C153 1_555 1_555
H110 C155 1_555 1_555
H111 C156 1_555 1_555
H115 C149 1_555 1_555
H116 C150 1_555 1_555
H118 C152 1_555 1_555
H119 C153 1_555 1_555
H121 C155 1_555 1_555
H122 C156 1_555 1_555
C160 C149 1_555 1_555
C161 C150 1_555 1_555
C163 C152 1_555 1_555
C164 C153 1_555 1_555
C166 C155 1_555 1_555
C167 C156 1_555 1_555
H126 C160 1_555 1_555
H127 C161 1_555 1_555
H129 C163 1_555 1_555
H130 C164 1_555 1_555
H132 C166 1_555 1_555
H133 C167 1_555 1_555
H137 C160 1_555 1_555
H138 C161 1_555 1_555
H140 C163 1_555 1_555
H141 C164 1_555 1_555
H143 C166 1_555 1_555
H144 C167 1_555 1_555
H148 C160 1_555 1_555
H149 C161 1_555 1_555
H151 C163 1_555 1_555
H152 C164 1_555 1_555
H154 C166 1_555 1_555
H155 C167 1_555 1_555
O35 Pb2 1_555 1_555
O36 Pb3 1_555 1_555
O37 Pb4 1_555 1_555
O3 Pb2 1_555 1_555
Pb2 O21 1_555 1_555
Pb3 O22 1_555 1_555
Pb4 O24 1_555 1_555
Pb4 O25 1_555 1_555
Pb13 O31 1_555 1_555
O24 C15 1_555 1_555
O25 C16 1_555 1_555
C72 C81 1_555 1_555
C73 C82 1_555 1_555
C75 C86 1_555 1_555
C76 C87 1_555 1_555
C78 C89 1_555 1_555
C79 C90 1_555 1_555
C105 C116 1_555 1_555
C105 C119 1_555 1_555
C106 C117 1_555 1_555
C106 C120 1_555 1_555
C108 C116 1_555 1_555
C108 C122 1_555 1_555
C109 C117 1_555 1_555
C109 C123 1_555 1_555
C111 C119 1_555 1_555
C111 C122 1_555 1_555
C112 C120 1_555 1_555
C112 C123 1_555 1_555
Pb1_2 O1 1_555 1_555
O1 C1 1_555 1_555
O2 Pb1_2 1_555 1_555
O3_2 Pb1_2 1_555 1_555
C1 O2 1_555 1_555
C2 C1 1_555 1_555
C3 C2 1_555 1_555
H1 C3 1_555 1_555
C4 C3 1_555 1_555
C5 C4 1_555 1_555
C6 C5 1_555 1_555
H2 C6 1_555 1_555
C7 C2 1_555 1_555
H3 C7 1_555 1_555
C8 C4 1_555 1_555
C9 C8 1_555 1_555
C10 C5 1_555 1_555
C11 C8 1_555 1_555
H4 C11 1_555 1_555
H5 C11 1_555 1_555
C12 C11 1_555 1_555
H6 C12 1_555 1_555
H7 C12 1_555 1_555
H8 C12 1_555 1_555
C13 C8 1_555 1_555
H9 C13 1_555 1_555
H10 C13 1_555 1_555
C14 C13 1_555 1_555
H11 C14 1_555 1_555
H12 C14 1_555 1_555
H13 C14 1_555 1_555
O4_2 Pb1_2 1_555 1_555
Pb2_2 O2 1_555 1_555
Pb3_2 O3_2 1_555 1_555
Pb4_2 O3_2 1_555 1_555
Pb5 O12 1_555 1_555
Pb6 O27 1_555 1_555
Pb7 O13 1_555 1_555
Pb8 O19 1_555 1_555
Pb16 O18 1_555 1_555
Pb17 O33 1_555 1_555
Pb18 O34 1_555 1_555
O6 Pb2_2 1_555 1_555
O8 Pb3_2 1_555 1_555
O11 Pb4_2 1_555 1_555
O12 C18 1_555 1_555
O13 C19 1_555 1_555
O18 C24 1_555 1_555
O19 C25 1_555 1_555
O20 Pb1_2 1_555 1_555
O23 Pb2_2 1_555 1_555
O26 Pb3_2 1_555 1_555
O27 Pb5 1_555 1_555
O28 Pb7 1_555 1_555
O33 Pb16 1_555 1_555
O34 Pb8 1_555 1_555
C17 O8 1_555 1_555
C18 O27 1_555 1_555
C19 O28 1_555 1_555
C24 O33 1_555 1_555
C25 O34 1_555 1_555
C28 C17 1_555 1_555
C29 C18 1_555 1_555
C30 C19 1_555 1_555
C35 C24 1_555 1_555
C36 C25 1_555 1_555
C39 C28 1_555 1_555
C40 C29 1_555 1_555
C41 C30 1_555 1_555
C46 C35 1_555 1_555
C47 C36 1_555 1_555
H16 C39 1_555 1_555
H17 C40 1_555 1_555
H18 C41 1_555 1_555
H23 C46 1_555 1_555
H24 C47 1_555 1_555
C48 C40 1_555 1_555
C49 C41 1_555 1_555
C52 C39 1_555 1_555
C57 C46 1_555 1_555
C58 C47 1_555 1_555
C59 C48 1_555 1_555
C60 C49 1_555 1_555
C63 C52 1_555 1_555
C66 C58 1_555 1_555
C69 C57 1_555 1_555
C70 C59 1_555 1_555
C71 C60 1_555 1_555
C74 C63 1_555 1_555
C77 C66 1_555 1_555
C80 C69 1_555 1_555
H25 C70 1_555 1_555
H26 C71 1_555 1_555
H29 C74 1_555 1_555
H32 C77 1_555 1_555
H35 C80 1_555 1_555
C83 C28 1_555 1_555
C84 C29 1_555 1_555
C85 C30 1_555 1_555
C88 C36 1_555 1_555
C91 C35 1_555 1_555
H38 C83 1_555 1_555
H39 C84 1_555 1_555
H40 C85 1_555 1_555
H43 C88 1_555 1_555
H46 C91 1_555 1_555
C92 C49 1_555 1_555
C93 C48 1_555 1_555
C96 C52 1_555 1_555
C99 C57 1_555 1_555
C102 C58 1_555 1_555
C103 C10 1_555 1_555
C104 C93 1_555 1_555
C107 C96 1_555 1_555
C110 C99 1_555 1_555
C113 C102 1_555 1_555
C114 C9 1_555 1_555
C115 C60 1_555 1_555
C118 C63 1_555 1_555
C121 C66 1_555 1_555
C124 C69 1_555 1_555
C125 C92 1_555 1_555
C126 C93 1_555 1_555
C129 C96 1_555 1_555
C132 C99 1_555 1_555
C135 C102 1_555 1_555
H47 C125 1_555 1_555
H48 C126 1_555 1_555
H51 C129 1_555 1_555
H54 C132 1_555 1_555
H57 C135 1_555 1_555
H58 C125 1_555 1_555
H59 C126 1_555 1_555
H62 C129 1_555 1_555
H65 C132 1_555 1_555
H68 C135 1_555 1_555
C136 C125 1_555 1_555
C137 C126 1_555 1_555
C140 C129 1_555 1_555
C143 C132 1_555 1_555
C146 C135 1_555 1_555
H69 C136 1_555 1_555
H70 C137 1_555 1_555
H73 C140 1_555 1_555
H76 C143 1_555 1_555
H79 C146 1_555 1_555
H80 C136 1_555 1_555
H81 C137 1_555 1_555
H84 C140 1_555 1_555
H87 C143 1_555 1_555
H90 C146 1_555 1_555
H91 C136 1_555 1_555
H92 C137 1_555 1_555
H95 C140 1_555 1_555
H98 C143 1_555 1_555
H101 C146 1_555 1_555
C147 C92 1_555 1_555
C148 C93 1_555 1_555
C151 C96 1_555 1_555
C154 C99 1_555 1_555
C157 C102 1_555 1_555
H102 C147 1_555 1_555
H103 C148 1_555 1_555
H106 C151 1_555 1_555
H109 C154 1_555 1_555
H112 C157 1_555 1_555
H113 C147 1_555 1_555
H114 C148 1_555 1_555
H117 C151 1_555 1_555
H120 C154 1_555 1_555
H123 C157 1_555 1_555
C158 C147 1_555 1_555
C159 C148 1_555 1_555
C162 C151 1_555 1_555
C165 C154 1_555 1_555
C168 C157 1_555 1_555
H124 C158 1_555 1_555
H125 C159 1_555 1_555
H128 C162 1_555 1_555
H131 C165 1_555 1_555
H134 C168 1_555 1_555
H135 C158 1_555 1_555
H136 C159 1_555 1_555
H139 C162 1_555 1_555
H142 C165 1_555 1_555
H145 C168 1_555 1_555
H146 C158 1_555 1_555
H147 C159 1_555 1_555
H150 C162 1_555 1_555
H153 C165 1_555 1_555
H156 C168 1_555 1_555
O35_2 Pb2_2 1_555 1_555
O36_2 Pb3_2 1_555 1_555
O37_2 Pb4_2 1_555 1_555
O3_2 Pb2_2 1_555 1_555
C6 C7 1_555 1_555
C9 C10 1_555 1_555
Pb3_2 O20 1_555 1_555
Pb4_2 O23 1_555 1_555
Pb4_2 O26 1_555 1_555
Pb8 O28 1_555 1_555
O20 C17 1_555 1_555
C59 C114 1_555 1_555
C70 C84 1_555 1_555
C71 C85 1_555 1_555
C74 C83 1_555 1_555
C77 C88 1_555 1_555
C80 C91 1_555 1_555
C92 C103 1_555 1_555
C103 C115 1_555 1_555
C104 C114 1_555 1_555
C104 C115 1_555 1_555
C107 C118 1_555 1_555
C107 C121 1_555 1_555
C110 C118 1_555 1_555
C110 C124 1_555 1_555
C113 C121 1_555 1_555
C113 C124 1_555 1_555
O3_3 Pb1_3 1_555 1_555
O4_3 Pb1_3 1_555 1_555
Pb3_3 O3_3 1_555 1_555
Pb4_3 O3_3 1_555 1_555
Pb9_2 O14_2 1_555 1_555
Pb10_2 O29_2 1_555 1_555
Pb11_2 O15_2 1_555 1_555
Pb12_2 O30_2 1_555 1_555
Pb10 O16_2 1_555 1_555
O5_2 Pb1_3 1_555 1_555
O7_2 Pb2_3 1_555 1_555
O9_2 Pb3_3 1_555 1_555
O10_2 Pb4_3 1_555 1_555
O14_2 C20_2 1_555 1_555
O15_2 C21_2 1_555 1_555
O16_2 C22_2 1_555 1_555
O5 C23_2 1_555 1_555
O21_2 Pb1_3 1_555 1_555
O22_2 Pb1_3 1_555 1_555
O24_2 Pb2_3 1_555 1_555
O25_2 Pb3_3 1_555 1_555
O29_2 Pb9_2 1_555 1_555
O30_2 Pb11_2 1_555 1_555
O31_2 Pb11_2 1_555 1_555
C15_2 O7_2 1_555 1_555
C16_2 O10_2 1_555 1_555
C20_2 O29_2 1_555 1_555
C21_2 O30_2 1_555 1_555
C22_2 O31_2 1_555 1_555
C23_2 O21 1_555 1_555
C26_2 C15_2 1_555 1_555
C27_2 C16_2 1_555 1_555
C31_2 C20_2 1_555 1_555
C32_2 C21_2 1_555 1_555
C33_2 C22_2 1_555 1_555
C34_2 C23_2 1_555 1_555
C37_2 C26_2 1_555 1_555
C38_2 C27_2 1_555 1_555
C42_2 C31_2 1_555 1_555
C43_2 C32_2 1_555 1_555
C44_2 C33_2 1_555 1_555
C45_2 C34_2 1_555 1_555
H14_2 C37_2 1_555 1_555
H15_2 C38_2 1_555 1_555
H19_2 C42_2 1_555 1_555
H20_2 C43_2 1_555 1_555
H21_2 C44_2 1_555 1_555
H22_2 C45_2 1_555 1_555
C50_2 C37_2 1_555 1_555
C51_2 C38_2 1_555 1_555
C53_2 C42_2 1_555 1_555
C54_2 C43_2 1_555 1_555
C55_2 C44_2 1_555 1_555
C56_2 C45_2 1_555 1_555
C61_2 C50_2 1_555 1_555
C62_2 C51_2 1_555 1_555
C64_2 C54_2 1_555 1_555
C65_2 C56_2 1_555 1_555
C67_2 C53_2 1_555 1_555
C68_2 C55_2 1_555 1_555
C72_2 C61_2 1_555 1_555
C73_2 C62_2 1_555 1_555
C75_2 C64_2 1_555 1_555
C76_2 C65_2 1_555 1_555
C78_2 C67_2 1_555 1_555
C79_2 C68_2 1_555 1_555
H27_2 C72_2 1_555 1_555
H28_2 C73_2 1_555 1_555
H30_2 C75_2 1_555 1_555
H31_2 C76_2 1_555 1_555
H33_2 C78_2 1_555 1_555
H34_2 C79_2 1_555 1_555
C81_2 C26_2 1_555 1_555
C82_2 C27_2 1_555 1_555
C86_2 C32_2 1_555 1_555
C87_2 C34_2 1_555 1_555
C89_2 C31_2 1_555 1_555
C90_2 C33_2 1_555 1_555
H36_2 C81_2 1_555 1_555
H37_2 C82_2 1_555 1_555
H41_2 C86_2 1_555 1_555
H42_2 C87_2 1_555 1_555
H44_2 C89_2 1_555 1_555
H45_2 C90_2 1_555 1_555
C94_2 C50_2 1_555 1_555
C95_2 C51_2 1_555 1_555
C97_2 C53_2 1_555 1_555
C98_2 C55_2 1_555 1_555
C100_2 C54_2 1_555 1_555
C101_2 C56_2 1_555 1_555
C105_2 C94_2 1_555 1_555
C106_2 C95_2 1_555 1_555
C108_2 C97_2 1_555 1_555
C109_2 C98_2 1_555 1_555
C111_2 C100_2 1_555 1_555
C112_2 C101_2 1_555 1_555
C116_2 C61_2 1_555 1_555
C117_2 C62_2 1_555 1_555
C119_2 C64_2 1_555 1_555
C120_2 C65_2 1_555 1_555
C122_2 C67_2 1_555 1_555
C123_2 C68_2 1_555 1_555
C127_2 C94_2 1_555 1_555
C128_2 C95_2 1_555 1_555
C130_2 C97_2 1_555 1_555
C131_2 C98_2 1_555 1_555
C133_2 C100_2 1_555 1_555
C134_2 C101_2 1_555 1_555
H49_2 C127_2 1_555 1_555
H50_2 C128_2 1_555 1_555
H52_2 C130_2 1_555 1_555
H53_2 C131_2 1_555 1_555
H55_2 C133_2 1_555 1_555
H56_2 C134_2 1_555 1_555
H60_2 C127_2 1_555 1_555
H61_2 C128_2 1_555 1_555
H63_2 C130_2 1_555 1_555
H64_2 C131_2 1_555 1_555
H66_2 C133_2 1_555 1_555
H67_2 C134_2 1_555 1_555
C138_2 C127_2 1_555 1_555
C139_2 C128_2 1_555 1_555
C141_2 C130_2 1_555 1_555
C142_2 C131_2 1_555 1_555
C144_2 C133_2 1_555 1_555
C145_2 C134_2 1_555 1_555
H71_2 C138_2 1_555 1_555
H72_2 C139_2 1_555 1_555
H74_2 C141_2 1_555 1_555
H75_2 C142_2 1_555 1_555
H77_2 C144_2 1_555 1_555
H78_2 C145_2 1_555 1_555
H82_2 C138_2 1_555 1_555
H83_2 C139_2 1_555 1_555
H85_2 C141_2 1_555 1_555
H86_2 C142_2 1_555 1_555
H88_2 C144_2 1_555 1_555
H89_2 C145_2 1_555 1_555
H93_2 C138_2 1_555 1_555
H94_2 C139_2 1_555 1_555
H96_2 C141_2 1_555 1_555
H97_2 C142_2 1_555 1_555
H99_2 C144_2 1_555 1_555
H100_2 C145_2 1_555 1_555
C149_2 C94_2 1_555 1_555
C150_2 C95_2 1_555 1_555
C152_2 C97_2 1_555 1_555
C153_2 C98_2 1_555 1_555
C155_2 C100_2 1_555 1_555
C156_2 C101_2 1_555 1_555
H104_2 C149_2 1_555 1_555
H105_2 C150_2 1_555 1_555
H107_2 C152_2 1_555 1_555
H108_2 C153_2 1_555 1_555
H110_2 C155_2 1_555 1_555
H111_2 C156_2 1_555 1_555
H115_2 C149_2 1_555 1_555
H116_2 C150_2 1_555 1_555
H118_2 C152_2 1_555 1_555
H119_2 C153_2 1_555 1_555
H121_2 C155_2 1_555 1_555
H122_2 C156_2 1_555 1_555
C160_2 C149_2 1_555 1_555
C161_2 C150_2 1_555 1_555
C163_2 C152_2 1_555 1_555
C164_2 C153_2 1_555 1_555
C166_2 C155_2 1_555 1_555
C167_2 C156_2 1_555 1_555
H126_2 C160_2 1_555 1_555
H127_2 C161_2 1_555 1_555
H129_2 C163_2 1_555 1_555
H130_2 C164_2 1_555 1_555
H132_2 C166_2 1_555 1_555
H133_2 C167_2 1_555 1_555
H137_2 C160_2 1_555 1_555
H138_2 C161_2 1_555 1_555
H140_2 C163_2 1_555 1_555
H141_2 C164_2 1_555 1_555
H143_2 C166_2 1_555 1_555
H144_2 C167_2 1_555 1_555
H148_2 C160_2 1_555 1_555
H149_2 C161_2 1_555 1_555
H151_2 C163_2 1_555 1_555
H152_2 C164_2 1_555 1_555
H154_2 C166_2 1_555 1_555
H155_2 C167_2 1_555 1_555
O35_3 Pb2_3 1_555 1_555
O36_3 Pb3_3 1_555 1_555
O37_3 Pb4_3 1_555 1_555
O3_3 Pb2_3 1_555 1_555
Pb2_3 O21_2 1_555 1_555
Pb3_3 O22_2 1_555 1_555
Pb4_3 O24_2 1_555 1_555
Pb4_3 O25_2 1_555 1_555
Pb10 O31_2 1_555 1_555
O24_2 C15_2 1_555 1_555
O25_2 C16_2 1_555 1_555
C72_2 C81_2 1_555 1_555
C73_2 C82_2 1_555 1_555
C75_2 C86_2 1_555 1_555
C76_2 C87_2 1_555 1_555
C78_2 C89_2 1_555 1_555
C79_2 C90_2 1_555 1_555
C105_2 C116_2 1_555 1_555
C105_2 C119_2 1_555 1_555
C106_2 C117_2 1_555 1_555
C106_2 C120_2 1_555 1_555
C108_2 C116_2 1_555 1_555
C108_2 C122_2 1_555 1_555
C109_2 C117_2 1_555 1_555
C109_2 C123_2 1_555 1_555
C111_2 C119_2 1_555 1_555
C111_2 C122_2 1_555 1_555
C112_2 C120_2 1_555 1_555
C112_2 C123_2 1_555 1_555
Pb1_4 O1_2 1_555 1_555
O1_2 C1_2 1_555 1_555
O2_2 Pb1_4 1_555 1_555
O3_4 Pb1_4 1_555 1_555
C1_2 O2_2 1_555 1_555
C2_2 C1_2 1_555 1_555
C3_2 C2_2 1_555 1_555
H1_2 C3_2 1_555 1_555
C4_2 C3_2 1_555 1_555
C5_2 C4_2 1_555 1_555
C6_2 C5_2 1_555 1_555
H2_2 C6_2 1_555 1_555
C7_2 C2_2 1_555 1_555
H3_2 C7_2 1_555 1_555
C8_2 C4_2 1_555 1_555
C9_2 C8_2 1_555 1_555
C10_2 C5_2 1_555 1_555
C11_2 C8_2 1_555 1_555
H4_2 C11_2 1_555 1_555
H5_2 C11_2 1_555 1_555
C12_2 C11_2 1_555 1_555
H6_2 C12_2 1_555 1_555
H7_2 C12_2 1_555 1_555
H8_2 C12_2 1_555 1_555
C13_2 C8_2 1_555 1_555
H9_2 C13_2 1_555 1_555
H10_2 C13_2 1_555 1_555
C14_2 C13_2 1_555 1_555
H11_2 C14_2 1_555 1_555
H12_2 C14_2 1_555 1_555
H13_2 C14_2 1_555 1_555
O4_4 Pb1_4 1_555 1_555
Pb2_4 O2_2 1_555 1_555
Pb3_4 O3_4 1_555 1_555
Pb4_4 O3_4 1_555 1_555
Pb5_2 O12_2 1_555 1_555
Pb6_2 O27_2 1_555 1_555
Pb7_3 O13_2 1_555 1_555
Pb8_3 O19_2 1_555 1_555
Pb16_3 O18_2 1_555 1_555
Pb17_3 O33_2 1_555 1_555
Pb18_3 O34_2 1_555 1_555
O6_2 Pb2_4 1_555 1_555
O8_2 Pb3_4 1_555 1_555
O11_2 Pb4_4 1_555 1_555
O12_2 C18_2 1_555 1_555
O13_2 C19_2 1_555 1_555
O18_2 C24_2 1_555 1_555
O19_2 C25_2 1_555 1_555
O20_2 Pb1_4 1_555 1_555
O23_2 Pb2_4 1_555 1_555
O26_2 Pb3_4 1_555 1_555
O27_2 Pb5_2 1_555 1_555
O28_2 Pb7_3 1_555 1_555
O33_2 Pb16_3 1_555 1_555
O34_2 Pb8_3 1_555 1_555
C17_2 O8_2 1_555 1_555
C18_2 O27_2 1_555 1_555
C19_2 O28_2 1_555 1_555
C24_2 O33_2 1_555 1_555
C25_2 O34_2 1_555 1_555
C28_2 C17_2 1_555 1_555
C29_2 C18_2 1_555 1_555
C30_2 C19_2 1_555 1_555
C35_2 C24_2 1_555 1_555
C36_2 C25_2 1_555 1_555
C39_2 C28_2 1_555 1_555
C40_2 C29_2 1_555 1_555
C41_2 C30_2 1_555 1_555
C46_2 C35_2 1_555 1_555
C47_2 C36_2 1_555 1_555
H16_2 C39_2 1_555 1_555
H17_2 C40_2 1_555 1_555
H18_2 C41_2 1_555 1_555
H23_2 C46_2 1_555 1_555
H24_2 C47_2 1_555 1_555
C48_2 C40_2 1_555 1_555
C49_2 C41_2 1_555 1_555
C52_2 C39_2 1_555 1_555
C57_2 C46_2 1_555 1_555
C58_2 C47_2 1_555 1_555
C59_2 C48_2 1_555 1_555
C60_2 C49_2 1_555 1_555
C63_2 C52_2 1_555 1_555
C66_2 C58_2 1_555 1_555
C69_2 C57_2 1_555 1_555
C70_2 C59_2 1_555 1_555
C71_2 C60_2 1_555 1_555
C74_2 C63_2 1_555 1_555
C77_2 C66_2 1_555 1_555
C80_2 C69_2 1_555 1_555
H25_2 C70_2 1_555 1_555
H26_2 C71_2 1_555 1_555
H29_2 C74_2 1_555 1_555
H32_2 C77_2 1_555 1_555
H35_2 C80_2 1_555 1_555
C83_2 C28_2 1_555 1_555
C84_2 C29_2 1_555 1_555
C85_2 C30_2 1_555 1_555
C88_2 C36_2 1_555 1_555
C91_2 C35_2 1_555 1_555
H38_2 C83_2 1_555 1_555
H39_2 C84_2 1_555 1_555
H40_2 C85_2 1_555 1_555
H43_2 C88_2 1_555 1_555
H46_2 C91_2 1_555 1_555
C92_2 C49_2 1_555 1_555
C93_2 C48_2 1_555 1_555
C96_2 C52_2 1_555 1_555
C99_2 C57_2 1_555 1_555
C102_2 C58_2 1_555 1_555
C103_2 C10_2 1_555 1_555
C104_2 C93_2 1_555 1_555
C107_2 C96_2 1_555 1_555
C110_2 C99_2 1_555 1_555
C113_2 C102_2 1_555 1_555
C114_2 C9_2 1_555 1_555
C115_2 C60_2 1_555 1_555
C118_2 C63_2 1_555 1_555
C121_2 C66_2 1_555 1_555
C124_2 C69_2 1_555 1_555
C125_2 C92_2 1_555 1_555
C126_2 C93_2 1_555 1_555
C129_2 C96_2 1_555 1_555
C132_2 C99_2 1_555 1_555
C135_2 C102_2 1_555 1_555
H47_2 C125_2 1_555 1_555
H48_2 C126_2 1_555 1_555
H51_2 C129_2 1_555 1_555
H54_2 C132_2 1_555 1_555
H57_2 C135_2 1_555 1_555
H58_2 C125_2 1_555 1_555
H59_2 C126_2 1_555 1_555
H62_2 C129_2 1_555 1_555
H65_2 C132_2 1_555 1_555
H68_2 C135_2 1_555 1_555
C136_2 C125_2 1_555 1_555
C137_2 C126_2 1_555 1_555
C140_2 C129_2 1_555 1_555
C143_2 C132_2 1_555 1_555
C146_2 C135_2 1_555 1_555
H69_2 C136_2 1_555 1_555
H70_2 C137_2 1_555 1_555
H73_2 C140_2 1_555 1_555
H76_2 C143_2 1_555 1_555
H79_2 C146_2 1_555 1_555
H80_2 C136_2 1_555 1_555
H81_2 C137_2 1_555 1_555
H84_2 C140_2 1_555 1_555
H87_2 C143_2 1_555 1_555
H90_2 C146_2 1_555 1_555
H91_2 C136_2 1_555 1_555
H92_2 C137_2 1_555 1_555
H95_2 C140_2 1_555 1_555
H98_2 C143_2 1_555 1_555
H101_2 C146_2 1_555 1_555
C147_2 C92_2 1_555 1_555
C148_2 C93_2 1_555 1_555
C151_2 C96_2 1_555 1_555
C154_2 C99_2 1_555 1_555
C157_2 C102_2 1_555 1_555
H102_2 C147_2 1_555 1_555
H103_2 C148_2 1_555 1_555
H106_2 C151_2 1_555 1_555
H109_2 C154_2 1_555 1_555
H112_2 C157_2 1_555 1_555
H113_2 C147_2 1_555 1_555
H114_2 C148_2 1_555 1_555
H117_2 C151_2 1_555 1_555
H120_2 C154_2 1_555 1_555
H123_2 C157_2 1_555 1_555
C158_2 C147_2 1_555 1_555
C159_2 C148_2 1_555 1_555
C162_2 C151_2 1_555 1_555
C165_2 C154_2 1_555 1_555
C168_2 C157_2 1_555 1_555
H124_2 C158_2 1_555 1_555
H125_2 C159_2 1_555 1_555
H128_2 C162_2 1_555 1_555
H131_2 C165_2 1_555 1_555
H134_2 C168_2 1_555 1_555
H135_2 C158_2 1_555 1_555
H136_2 C159_2 1_555 1_555
H139_2 C162_2 1_555 1_555
H142_2 C165_2 1_555 1_555
H145_2 C168_2 1_555 1_555
H146_2 C158_2 1_555 1_555
H147_2 C159_2 1_555 1_555
H150_2 C162_2 1_555 1_555
H153_2 C165_2 1_555 1_555
H156_2 C168_2 1_555 1_555
O35_4 Pb2_4 1_555 1_555
O36_4 Pb3_4 1_555 1_555
O37_4 Pb4_4 1_555 1_555
O3_4 Pb2_4 1_555 1_555
C6_2 C7_2 1_555 1_555
C9_2 C10_2 1_555 1_555
Pb3_4 O20_2 1_555 1_555
Pb4_4 O23_2 1_555 1_555
Pb4_4 O26_2 1_555 1_555
Pb8_3 O28_2 1_555 1_555
O20_2 C17_2 1_555 1_555
C59_2 C114_2 1_555 1_555
C70_2 C84_2 1_555 1_555
C71_2 C85_2 1_555 1_555
C74_2 C83_2 1_555 1_555
C77_2 C88_2 1_555 1_555
C80_2 C91_2 1_555 1_555
C92_2 C103_2 1_555 1_555
C103_2 C115_2 1_555 1_555
C104_2 C114_2 1_555 1_555
C104_2 C115_2 1_555 1_555
C107_2 C118_2 1_555 1_555
C107_2 C121_2 1_555 1_555
C110_2 C118_2 1_555 1_555
C110_2 C124_2 1_555 1_555
C113_2 C121_2 1_555 1_555
C113_2 C124_2 1_555 1_555
O3_5 Pb14 1_555 1_555
O4_5 Pb14 1_555 1_555
Pb3_5 O3_5 1_555 1_555
Pb4_5 O3_5 1_555 1_555
Pb9_3 O14_3 1_555 1_555
Pb13 O29_3 1_555 1_555
Pb11_3 O15_3 1_555 1_555
Pb12_3 O30_3 1_555 1_555
Pb10_2 O16_3 1_555 1_555
O7_3 Pb15 1_555 1_555
O9_3 Pb3_5 1_555 1_555
O10_3 Pb4_5 1_555 1_555
O14_3 C20_3 1_555 1_555
O15_3 C21_3 1_555 1_555
O16_3 C22_3 1_555 1_555
O5_2 C23_3 1_555 1_555
O22_3 Pb14 1_555 1_555
O24_3 Pb15 1_555 1_555
O25_3 Pb3_5 1_555 1_555
O29_3 Pb9_3 1_555 1_555
O30_3 Pb11_3 1_555 1_555
O31_3 Pb11_3 1_555 1_555
C15_3 O7_3 1_555 1_555
C16_3 O10_3 1_555 1_555
C20_3 O29_3 1_555 1_555
C21_3 O30_3 1_555 1_555
C22_3 O31_3 1_555 1_555
C23_3 O21_2 1_555 1_555
C26_3 C15_3 1_555 1_555
C27_3 C16_3 1_555 1_555
C31_3 C20_3 1_555 1_555
C32_3 C21_3 1_555 1_555
C33_3 C22_3 1_555 1_555
C34_3 C23_3 1_555 1_555
C37_3 C26_3 1_555 1_555
C38_3 C27_3 1_555 1_555
C42_3 C31_3 1_555 1_555
C43_3 C32_3 1_555 1_555
C44_3 C33_3 1_555 1_555
C45_3 C34_3 1_555 1_555
H14_3 C37_3 1_555 1_555
H15_3 C38_3 1_555 1_555
H19_3 C42_3 1_555 1_555
H20_3 C43_3 1_555 1_555
H21_3 C44_3 1_555 1_555
H22_3 C45_3 1_555 1_555
C50_3 C37_3 1_555 1_555
C51_3 C38_3 1_555 1_555
C53_3 C42_3 1_555 1_555
C54_3 C43_3 1_555 1_555
C55_3 C44_3 1_555 1_555
C56_3 C45_3 1_555 1_555
C61_3 C50_3 1_555 1_555
C62_3 C51_3 1_555 1_555
C64_3 C54_3 1_555 1_555
C65_3 C56_3 1_555 1_555
C67_3 C53_3 1_555 1_555
C68_3 C55_3 1_555 1_555
C72_3 C61_3 1_555 1_555
C73_3 C62_3 1_555 1_555
C75_3 C64_3 1_555 1_555
C76_3 C65_3 1_555 1_555
C78_3 C67_3 1_555 1_555
C79_3 C68_3 1_555 1_555
H27_3 C72_3 1_555 1_555
H28_3 C73_3 1_555 1_555
H30_3 C75_3 1_555 1_555
H31_3 C76_3 1_555 1_555
H33_3 C78_3 1_555 1_555
H34_3 C79_3 1_555 1_555
C81_3 C26_3 1_555 1_555
C82_3 C27_3 1_555 1_555
C86_3 C32_3 1_555 1_555
C87_3 C34_3 1_555 1_555
C89_3 C31_3 1_555 1_555
C90_3 C33_3 1_555 1_555
H36_3 C81_3 1_555 1_555
H37_3 C82_3 1_555 1_555
H41_3 C86_3 1_555 1_555
H42_3 C87_3 1_555 1_555
H44_3 C89_3 1_555 1_555
H45_3 C90_3 1_555 1_555
C94_3 C50_3 1_555 1_555
C95_3 C51_3 1_555 1_555
C97_3 C53_3 1_555 1_555
C98_3 C55_3 1_555 1_555
C100_3 C54_3 1_555 1_555
C101_3 C56_3 1_555 1_555
C105_3 C94_3 1_555 1_555
C106_3 C95_3 1_555 1_555
C108_3 C97_3 1_555 1_555
C109_3 C98_3 1_555 1_555
C111_3 C100_3 1_555 1_555
C112_3 C101_3 1_555 1_555
C116_3 C61_3 1_555 1_555
C117_3 C62_3 1_555 1_555
C119_3 C64_3 1_555 1_555
C120_3 C65_3 1_555 1_555
C122_3 C67_3 1_555 1_555
C123_3 C68_3 1_555 1_555
C127_3 C94_3 1_555 1_555
C128_3 C95_3 1_555 1_555
C130_3 C97_3 1_555 1_555
C131_3 C98_3 1_555 1_555
C133_3 C100_3 1_555 1_555
C134_3 C101_3 1_555 1_555
H49_3 C127_3 1_555 1_555
H50_3 C128_3 1_555 1_555
H52_3 C130_3 1_555 1_555
H53_3 C131_3 1_555 1_555
H55_3 C133_3 1_555 1_555
H56_3 C134_3 1_555 1_555
H60_3 C127_3 1_555 1_555
H61_3 C128_3 1_555 1_555
H63_3 C130_3 1_555 1_555
H64_3 C131_3 1_555 1_555
H66_3 C133_3 1_555 1_555
H67_3 C134_3 1_555 1_555
C138_3 C127_3 1_555 1_555
C139_3 C128_3 1_555 1_555
C141_3 C130_3 1_555 1_555
C142_3 C131_3 1_555 1_555
C144_3 C133_3 1_555 1_555
C145_3 C134_3 1_555 1_555
H71_3 C138_3 1_555 1_555
H72_3 C139_3 1_555 1_555
H74_3 C141_3 1_555 1_555
H75_3 C142_3 1_555 1_555
H77_3 C144_3 1_555 1_555
H78_3 C145_3 1_555 1_555
H82_3 C138_3 1_555 1_555
H83_3 C139_3 1_555 1_555
H85_3 C141_3 1_555 1_555
H86_3 C142_3 1_555 1_555
H88_3 C144_3 1_555 1_555
H89_3 C145_3 1_555 1_555
H93_3 C138_3 1_555 1_555
H94_3 C139_3 1_555 1_555
H96_3 C141_3 1_555 1_555
H97_3 C142_3 1_555 1_555
H99_3 C144_3 1_555 1_555
H100_3 C145_3 1_555 1_555
C149_3 C94_3 1_555 1_555
C150_3 C95_3 1_555 1_555
C152_3 C97_3 1_555 1_555
C153_3 C98_3 1_555 1_555
C155_3 C100_3 1_555 1_555
C156_3 C101_3 1_555 1_555
H104_3 C149_3 1_555 1_555
H105_3 C150_3 1_555 1_555
H107_3 C152_3 1_555 1_555
H108_3 C153_3 1_555 1_555
H110_3 C155_3 1_555 1_555
H111_3 C156_3 1_555 1_555
H115_3 C149_3 1_555 1_555
H116_3 C150_3 1_555 1_555
H118_3 C152_3 1_555 1_555
H119_3 C153_3 1_555 1_555
H121_3 C155_3 1_555 1_555
H122_3 C156_3 1_555 1_555
C160_3 C149_3 1_555 1_555
C161_3 C150_3 1_555 1_555
C163_3 C152_3 1_555 1_555
C164_3 C153_3 1_555 1_555
C166_3 C155_3 1_555 1_555
C167_3 C156_3 1_555 1_555
H126_3 C160_3 1_555 1_555
H127_3 C161_3 1_555 1_555
H129_3 C163_3 1_555 1_555
H130_3 C164_3 1_555 1_555
H132_3 C166_3 1_555 1_555
H133_3 C167_3 1_555 1_555
H137_3 C160_3 1_555 1_555
H138_3 C161_3 1_555 1_555
H140_3 C163_3 1_555 1_555
H141_3 C164_3 1_555 1_555
H143_3 C166_3 1_555 1_555
H144_3 C167_3 1_555 1_555
H148_3 C160_3 1_555 1_555
H149_3 C161_3 1_555 1_555
H151_3 C163_3 1_555 1_555
H152_3 C164_3 1_555 1_555
H154_3 C166_3 1_555 1_555
H155_3 C167_3 1_555 1_555
O35_5 Pb15 1_555 1_555
O36_5 Pb3_5 1_555 1_555
O37_5 Pb4_5 1_555 1_555
O3_5 Pb15 1_555 1_555
Pb3_5 O22_3 1_555 1_555
Pb4_5 O24_3 1_555 1_555
Pb4_5 O25_3 1_555 1_555
Pb10_2 O31_3 1_555 1_555
O24_3 C15_3 1_555 1_555
O25_3 C16_3 1_555 1_555
C72_3 C81_3 1_555 1_555
C73_3 C82_3 1_555 1_555
C75_3 C86_3 1_555 1_555
C76_3 C87_3 1_555 1_555
C78_3 C89_3 1_555 1_555
C79_3 C90_3 1_555 1_555
C105_3 C116_3 1_555 1_555
C105_3 C119_3 1_555 1_555
C106_3 C117_3 1_555 1_555
C106_3 C120_3 1_555 1_555
C108_3 C116_3 1_555 1_555
C108_3 C122_3 1_555 1_555
C109_3 C117_3 1_555 1_555
C109_3 C123_3 1_555 1_555
C111_3 C119_3 1_555 1_555
C111_3 C122_3 1_555 1_555
C112_3 C120_3 1_555 1_555
C112_3 C123_3 1_555 1_555
Pb14_2 O1_3 1_555 1_555
O1_3 C1_3 1_555 1_555
O2_3 Pb14_2 1_555 1_555
O3_6 Pb14_2 1_555 1_555
C1_3 O2_3 1_555 1_555
C2_3 C1_3 1_555 1_555
C3_3 C2_3 1_555 1_555
H1_3 C3_3 1_555 1_555
C4_3 C3_3 1_555 1_555
C5_3 C4_3 1_555 1_555
C6_3 C5_3 1_555 1_555
H2_3 C6_3 1_555 1_555
C7_3 C2_3 1_555 1_555
H3_3 C7_3 1_555 1_555
C8_3 C4_3 1_555 1_555
C9_3 C8_3 1_555 1_555
C10_3 C5_3 1_555 1_555
C11_3 C8_3 1_555 1_555
H4_3 C11_3 1_555 1_555
H5_3 C11_3 1_555 1_555
C12_3 C11_3 1_555 1_555
H6_3 C12_3 1_555 1_555
H7_3 C12_3 1_555 1_555
H8_3 C12_3 1_555 1_555
C13_3 C8_3 1_555 1_555
H9_3 C13_3 1_555 1_555
H10_3 C13_3 1_555 1_555
C14_3 C13_3 1_555 1_555
H11_3 C14_3 1_555 1_555
H12_3 C14_3 1_555 1_555
H13_3 C14_3 1_555 1_555
O4_6 Pb14_2 1_555 1_555
Pb15_2 O2_3 1_555 1_555
Pb3_6 O3_6 1_555 1_555
Pb4_6 O3_6 1_555 1_555
Pb5_3 O12_3 1_555 1_555
Pb6_3 O27_3 1_555 1_555
Pb7_5 O13_3 1_555 1_555
Pb8_5 O19_3 1_555 1_555
Pb16_5 O18_3 1_555 1_555
Pb17_5 O33_3 1_555 1_555
Pb18_5 O34_3 1_555 1_555
O6_3 Pb15_2 1_555 1_555
O8_3 Pb3_6 1_555 1_555
O11_3 Pb4_6 1_555 1_555
O12_3 C18_3 1_555 1_555
O13_3 C19_3 1_555 1_555
O18_3 C24_3 1_555 1_555
O19_3 C25_3 1_555 1_555
O20_3 Pb14_2 1_555 1_555
O23_3 Pb15_2 1_555 1_555
O26_3 Pb3_6 1_555 1_555
O27_3 Pb5_3 1_555 1_555
O28_3 Pb7_5 1_555 1_555
O33_3 Pb16_5 1_555 1_555
O34_3 Pb8_5 1_555 1_555
C17_3 O8_3 1_555 1_555
C18_3 O27_3 1_555 1_555
C19_3 O28_3 1_555 1_555
C24_3 O33_3 1_555 1_555
C25_3 O34_3 1_555 1_555
C28_3 C17_3 1_555 1_555
C29_3 C18_3 1_555 1_555
C30_3 C19_3 1_555 1_555
C35_3 C24_3 1_555 1_555
C36_3 C25_3 1_555 1_555
C39_3 C28_3 1_555 1_555
C40_3 C29_3 1_555 1_555
C41_3 C30_3 1_555 1_555
C46_3 C35_3 1_555 1_555
C47_3 C36_3 1_555 1_555
H16_3 C39_3 1_555 1_555
H17_3 C40_3 1_555 1_555
H18_3 C41_3 1_555 1_555
H23_3 C46_3 1_555 1_555
H24_3 C47_3 1_555 1_555
C48_3 C40_3 1_555 1_555
C49_3 C41_3 1_555 1_555
C52_3 C39_3 1_555 1_555
C57_3 C46_3 1_555 1_555
C58_3 C47_3 1_555 1_555
C59_3 C48_3 1_555 1_555
C60_3 C49_3 1_555 1_555
C63_3 C52_3 1_555 1_555
C66_3 C58_3 1_555 1_555
C69_3 C57_3 1_555 1_555
C70_3 C59_3 1_555 1_555
C71_3 C60_3 1_555 1_555
C74_3 C63_3 1_555 1_555
C77_3 C66_3 1_555 1_555
C80_3 C69_3 1_555 1_555
H25_3 C70_3 1_555 1_555
H26_3 C71_3 1_555 1_555
H29_3 C74_3 1_555 1_555
H32_3 C77_3 1_555 1_555
H35_3 C80_3 1_555 1_555
C83_3 C28_3 1_555 1_555
C84_3 C29_3 1_555 1_555
C85_3 C30_3 1_555 1_555
C88_3 C36_3 1_555 1_555
C91_3 C35_3 1_555 1_555
H38_3 C83_3 1_555 1_555
H39_3 C84_3 1_555 1_555
H40_3 C85_3 1_555 1_555
H43_3 C88_3 1_555 1_555
H46_3 C91_3 1_555 1_555
C92_3 C49_3 1_555 1_555
C93_3 C48_3 1_555 1_555
C96_3 C52_3 1_555 1_555
C99_3 C57_3 1_555 1_555
C102_3 C58_3 1_555 1_555
C103_3 C10_3 1_555 1_555
C104_3 C93_3 1_555 1_555
C107_3 C96_3 1_555 1_555
C110_3 C99_3 1_555 1_555
C113_3 C102_3 1_555 1_555
C114_3 C9_3 1_555 1_555
C115_3 C60_3 1_555 1_555
C118_3 C63_3 1_555 1_555
C121_3 C66_3 1_555 1_555
C124_3 C69_3 1_555 1_555
C125_3 C92_3 1_555 1_555
C126_3 C93_3 1_555 1_555
C129_3 C96_3 1_555 1_555
C132_3 C99_3 1_555 1_555
C135_3 C102_3 1_555 1_555
H47_3 C125_3 1_555 1_555
H48_3 C126_3 1_555 1_555
H51_3 C129_3 1_555 1_555
H54_3 C132_3 1_555 1_555
H57_3 C135_3 1_555 1_555
H58_3 C125_3 1_555 1_555
H59_3 C126_3 1_555 1_555
H62_3 C129_3 1_555 1_555
H65_3 C132_3 1_555 1_555
H68_3 C135_3 1_555 1_555
C136_3 C125_3 1_555 1_555
C137_3 C126_3 1_555 1_555
C140_3 C129_3 1_555 1_555
C143_3 C132_3 1_555 1_555
C146_3 C135_3 1_555 1_555
H69_3 C136_3 1_555 1_555
H70_3 C137_3 1_555 1_555
H73_3 C140_3 1_555 1_555
H76_3 C143_3 1_555 1_555
H79_3 C146_3 1_555 1_555
H80_3 C136_3 1_555 1_555
H81_3 C137_3 1_555 1_555
H84_3 C140_3 1_555 1_555
H87_3 C143_3 1_555 1_555
H90_3 C146_3 1_555 1_555
H91_3 C136_3 1_555 1_555
H92_3 C137_3 1_555 1_555
H95_3 C140_3 1_555 1_555
H98_3 C143_3 1_555 1_555
H101_3 C146_3 1_555 1_555
C147_3 C92_3 1_555 1_555
C148_3 C93_3 1_555 1_555
C151_3 C96_3 1_555 1_555
C154_3 C99_3 1_555 1_555
C157_3 C102_3 1_555 1_555
H102_3 C147_3 1_555 1_555
H103_3 C148_3 1_555 1_555
H106_3 C151_3 1_555 1_555
H109_3 C154_3 1_555 1_555
H112_3 C157_3 1_555 1_555
H113_3 C147_3 1_555 1_555
H114_3 C148_3 1_555 1_555
H117_3 C151_3 1_555 1_555
H120_3 C154_3 1_555 1_555
H123_3 C157_3 1_555 1_555
C158_3 C147_3 1_555 1_555
C159_3 C148_3 1_555 1_555
C162_3 C151_3 1_555 1_555
C165_3 C154_3 1_555 1_555
C168_3 C157_3 1_555 1_555
H124_3 C158_3 1_555 1_555
H125_3 C159_3 1_555 1_555
H128_3 C162_3 1_555 1_555
H131_3 C165_3 1_555 1_555
H134_3 C168_3 1_555 1_555
H135_3 C158_3 1_555 1_555
H136_3 C159_3 1_555 1_555
H139_3 C162_3 1_555 1_555
H142_3 C165_3 1_555 1_555
H145_3 C168_3 1_555 1_555
H146_3 C158_3 1_555 1_555
H147_3 C159_3 1_555 1_555
H150_3 C162_3 1_555 1_555
H153_3 C165_3 1_555 1_555
H156_3 C168_3 1_555 1_555
O35_6 Pb15_2 1_555 1_555
O36_6 Pb3_6 1_555 1_555
O37_6 Pb4_6 1_555 1_555
O3_6 Pb15_2 1_555 1_555
C6_3 C7_3 1_555 1_555
C9_3 C10_3 1_555 1_555
Pb3_6 O20_3 1_555 1_555
Pb4_6 O23_3 1_555 1_555
Pb4_6 O26_3 1_555 1_555
Pb8_5 O28_3 1_555 1_555
O20_3 C17_3 1_555 1_555
C59_3 C114_3 1_555 1_555
C70_3 C84_3 1_555 1_555
C71_3 C85_3 1_555 1_555
C74_3 C83_3 1_555 1_555
C77_3 C88_3 1_555 1_555
C80_3 C91_3 1_555 1_555
C92_3 C103_3 1_555 1_555
C103_3 C115_3 1_555 1_555
C104_3 C114_3 1_555 1_555
C104_3 C115_3 1_555 1_555
C107_3 C118_3 1_555 1_555
C107_3 C121_3 1_555 1_555
C110_3 C118_3 1_555 1_555
C110_3 C124_3 1_555 1_555
C113_3 C121_3 1_555 1_555
C113_3 C124_3 1_555 1_555
Pb1_5 O1_4 1_555 1_555
O1_4 C1_4 1_555 1_555
O2_4 Pb1_5 1_555 1_555
O3_7 Pb1_5 1_555 1_555
C1_4 O2_4 1_555 1_555
C2_4 C1_4 1_555 1_555
C3_4 C2_4 1_555 1_555
H1_4 C3_4 1_555 1_555
C4_4 C3_4 1_555 1_555
C5_4 C4_4 1_555 1_555
C6_4 C5_4 1_555 1_555
H2_4 C6_4 1_555 1_555
C7_4 C2_4 1_555 1_555
H3_4 C7_4 1_555 1_555
C8_4 C4_4 1_555 1_555
C9_4 C8_4 1_555 1_555
C10_4 C5_4 1_555 1_555
C11_4 C8_4 1_555 1_555
H4_4 C11_4 1_555 1_555
H5_4 C11_4 1_555 1_555
C12_4 C11_4 1_555 1_555
H6_4 C12_4 1_555 1_555
H7_4 C12_4 1_555 1_555
H8_4 C12_4 1_555 1_555
C13_4 C8_4 1_555 1_555
H9_4 C13_4 1_555 1_555
H10_4 C13_4 1_555 1_555
C14_4 C13_4 1_555 1_555
H11_4 C14_4 1_555 1_555
H12_4 C14_4 1_555 1_555
H13_4 C14_4 1_555 1_555
O4_7 Pb1_5 1_555 1_555
Pb5 O2_4 1_555 1_555
Pb3_7 O3_7 1_555 1_555
Pb6 O3_7 1_555 1_555
Pb7_7 O13_4 1_555 1_555
Pb8_7 O19_4 1_555 1_555
Pb18_6 O14_4 1_555 1_555
Pb10_4 O29_4 1_555 1_555
Pb11_4 O15_4 1_555 1_555
Pb12_4 O30_4 1_555 1_555
Pb13_2 O16_4 1_555 1_555
Pb14_3 O17_2 1_555 1_555
Pb15_3 O32_2 1_555 1_555
Pb12_3 O18_4 1_555 1_555
Pb9_2 O33_4 1_555 1_555
Pb18_7 O34_4 1_555 1_555
O5_3 Pb1_5 1_555 1_555
O7_4 Pb5 1_555 1_555
O8_4 Pb3_7 1_555 1_555
O9_4 Pb3_7 1_555 1_555
O10_4 Pb6 1_555 1_555
O11_4 Pb6 1_555 1_555
O6 C18_4 1_555 1_555
O13_4 C19_4 1_555 1_555
O14_4 C20_4 1_555 1_555
O15_4 C21_4 1_555 1_555
O16_4 C22_4 1_555 1_555
O17_2 C23_4 1_555 1_555
O18_4 C24_4 1_555 1_555
O19_4 C25_4 1_555 1_555
O20_4 Pb1_5 1_555 1_555
O21_3 Pb1_5 1_555 1_555
O22_4 Pb1_5 1_555 1_555
O24_4 Pb5 1_555 1_555
O25_4 Pb3_7 1_555 1_555
O26_4 Pb3_7 1_555 1_555
O28_4 Pb7_7 1_555 1_555
O29_4 Pb18_6 1_555 1_555
O30_4 Pb11_4 1_555 1_555
O31_4 Pb11_4 1_555 1_555
O32_2 Pb14_3 1_555 1_555
O33_4 Pb12_3 1_555 1_555
O34_4 Pb8_7 1_555 1_555
C15_4 O7_4 1_555 1_555
C16_4 O10_4 1_555 1_555
C17_4 O8_4 1_555 1_555
C18_4 O23 1_555 1_555
C19_4 O28_4 1_555 1_555
C20_4 O29_4 1_555 1_555
C21_4 O30_4 1_555 1_555
C22_4 O31_4 1_555 1_555
C23_4 O32_2 1_555 1_555
C24_4 O33_4 1_555 1_555
C25_4 O34_4 1_555 1_555
C26_4 C15_4 1_555 1_555
C27_4 C16_4 1_555 1_555
C28_4 C17_4 1_555 1_555
C29_4 C18_4 1_555 1_555
C30_4 C19_4 1_555 1_555
C31_4 C20_4 1_555 1_555
C32_4 C21_4 1_555 1_555
C33_4 C22_4 1_555 1_555
C34_4 C23_4 1_555 1_555
C35_4 C24_4 1_555 1_555
C36_4 C25_4 1_555 1_555
C37_4 C26_4 1_555 1_555
C38_4 C27_4 1_555 1_555
C39_4 C28_4 1_555 1_555
C40_4 C29_4 1_555 1_555
C41_4 C30_4 1_555 1_555
C42_4 C31_4 1_555 1_555
C43_4 C32_4 1_555 1_555
C44_4 C33_4 1_555 1_555
C45_4 C34_4 1_555 1_555
C46_4 C35_4 1_555 1_555
C47_4 C36_4 1_555 1_555
H14_4 C37_4 1_555 1_555
H15_4 C38_4 1_555 1_555
H16_4 C39_4 1_555 1_555
H17_4 C40_4 1_555 1_555
H18_4 C41_4 1_555 1_555
H19_4 C42_4 1_555 1_555
H20_4 C43_4 1_555 1_555
H21_4 C44_4 1_555 1_555
H22_4 C45_4 1_555 1_555
H23_4 C46_4 1_555 1_555
H24_4 C47_4 1_555 1_555
C48_4 C40_4 1_555 1_555
C49_4 C41_4 1_555 1_555
C50_4 C37_4 1_555 1_555
C51_4 C38_4 1_555 1_555
C52_4 C39_4 1_555 1_555
C53_4 C42_4 1_555 1_555
C54_4 C43_4 1_555 1_555
C55_4 C44_4 1_555 1_555
C56_4 C45_4 1_555 1_555
C57_4 C46_4 1_555 1_555
C58_4 C47_4 1_555 1_555
C59_4 C48_4 1_555 1_555
C60_4 C49_4 1_555 1_555
C61_4 C50_4 1_555 1_555
C62_4 C51_4 1_555 1_555
C63_4 C52_4 1_555 1_555
C64_4 C54_4 1_555 1_555
C65_4 C56_4 1_555 1_555
C66_4 C58_4 1_555 1_555
C67_4 C53_4 1_555 1_555
C68_4 C55_4 1_555 1_555
C69_4 C57_4 1_555 1_555
C70_4 C59_4 1_555 1_555
C71_4 C60_4 1_555 1_555
C72_4 C61_4 1_555 1_555
C73_4 C62_4 1_555 1_555
C74_4 C63_4 1_555 1_555
C75_4 C64_4 1_555 1_555
C76_4 C65_4 1_555 1_555
C77_4 C66_4 1_555 1_555
C78_4 C67_4 1_555 1_555
C79_4 C68_4 1_555 1_555
C80_4 C69_4 1_555 1_555
H25_4 C70_4 1_555 1_555
H26_4 C71_4 1_555 1_555
H27_4 C72_4 1_555 1_555
H28_4 C73_4 1_555 1_555
H29_4 C74_4 1_555 1_555
H30_4 C75_4 1_555 1_555
H31_4 C76_4 1_555 1_555
H32_4 C77_4 1_555 1_555
H33_4 C78_4 1_555 1_555
H34_4 C79_4 1_555 1_555
H35_4 C80_4 1_555 1_555
C81_4 C26_4 1_555 1_555
C82_4 C27_4 1_555 1_555
C83_4 C28_4 1_555 1_555
C84_4 C29_4 1_555 1_555
C85_4 C30_4 1_555 1_555
C86_4 C32_4 1_555 1_555
C87_4 C34_4 1_555 1_555
C88_4 C36_4 1_555 1_555
C89_4 C31_4 1_555 1_555
C90_4 C33_4 1_555 1_555
C91_4 C35_4 1_555 1_555
H36_4 C81_4 1_555 1_555
H37_4 C82_4 1_555 1_555
H38_4 C83_4 1_555 1_555
H39_4 C84_4 1_555 1_555
H40_4 C85_4 1_555 1_555
H41_4 C86_4 1_555 1_555
H42_4 C87_4 1_555 1_555
H43_4 C88_4 1_555 1_555
H44_4 C89_4 1_555 1_555
H45_4 C90_4 1_555 1_555
H46_4 C91_4 1_555 1_555
C92_4 C49_4 1_555 1_555
C93_4 C48_4 1_555 1_555
C94_4 C50_4 1_555 1_555
C95_4 C51_4 1_555 1_555
C96_4 C52_4 1_555 1_555
C97_4 C53_4 1_555 1_555
C98_4 C55_4 1_555 1_555
C99_4 C57_4 1_555 1_555
C100_4 C54_4 1_555 1_555
C101_4 C56_4 1_555 1_555
C102_4 C58_4 1_555 1_555
C103_4 C10_4 1_555 1_555
C104_4 C93_4 1_555 1_555
C105_4 C94_4 1_555 1_555
C106_4 C95_4 1_555 1_555
C107_4 C96_4 1_555 1_555
C108_4 C97_4 1_555 1_555
C109_4 C98_4 1_555 1_555
C110_4 C99_4 1_555 1_555
C111_4 C100_4 1_555 1_555
C112_4 C101_4 1_555 1_555
C113_4 C102_4 1_555 1_555
C114_4 C9_4 1_555 1_555
C115_4 C60_4 1_555 1_555
C116_4 C61_4 1_555 1_555
C117_4 C62_4 1_555 1_555
C118_4 C63_4 1_555 1_555
C119_4 C64_4 1_555 1_555
C120_4 C65_4 1_555 1_555
C121_4 C66_4 1_555 1_555
C122_4 C67_4 1_555 1_555
C123_4 C68_4 1_555 1_555
C124_4 C69_4 1_555 1_555
C125_4 C92_4 1_555 1_555
C126_4 C93_4 1_555 1_555
C127_4 C94_4 1_555 1_555
C128_4 C95_4 1_555 1_555
C129_4 C96_4 1_555 1_555
C130_4 C97_4 1_555 1_555
C131_4 C98_4 1_555 1_555
C132_4 C99_4 1_555 1_555
C133_4 C100_4 1_555 1_555
C134_4 C101_4 1_555 1_555
C135_4 C102_4 1_555 1_555
H47_4 C125_4 1_555 1_555
H48_4 C126_4 1_555 1_555
H49_4 C127_4 1_555 1_555
H50_4 C128_4 1_555 1_555
H51_4 C129_4 1_555 1_555
H52_4 C130_4 1_555 1_555
H53_4 C131_4 1_555 1_555
H54_4 C132_4 1_555 1_555
H55_4 C133_4 1_555 1_555
H56_4 C134_4 1_555 1_555
H57_4 C135_4 1_555 1_555
H58_4 C125_4 1_555 1_555
H59_4 C126_4 1_555 1_555
H60_4 C127_4 1_555 1_555
H61_4 C128_4 1_555 1_555
H62_4 C129_4 1_555 1_555
H63_4 C130_4 1_555 1_555
H64_4 C131_4 1_555 1_555
H65_4 C132_4 1_555 1_555
H66_4 C133_4 1_555 1_555
H67_4 C134_4 1_555 1_555
H68_4 C135_4 1_555 1_555
C136_4 C125_4 1_555 1_555
C137_4 C126_4 1_555 1_555
C138_4 C127_4 1_555 1_555
C139_4 C128_4 1_555 1_555
C140_4 C129_4 1_555 1_555
C141_4 C130_4 1_555 1_555
C142_4 C131_4 1_555 1_555
C143_4 C132_4 1_555 1_555
C144_4 C133_4 1_555 1_555
C145_4 C134_4 1_555 1_555
C146_4 C135_4 1_555 1_555
H69_4 C136_4 1_555 1_555
H70_4 C137_4 1_555 1_555
H71_4 C138_4 1_555 1_555
H72_4 C139_4 1_555 1_555
H73_4 C140_4 1_555 1_555
H74_4 C141_4 1_555 1_555
H75_4 C142_4 1_555 1_555
H76_4 C143_4 1_555 1_555
H77_4 C144_4 1_555 1_555
H78_4 C145_4 1_555 1_555
H79_4 C146_4 1_555 1_555
H80_4 C136_4 1_555 1_555
H81_4 C137_4 1_555 1_555
H82_4 C138_4 1_555 1_555
H83_4 C139_4 1_555 1_555
H84_4 C140_4 1_555 1_555
H85_4 C141_4 1_555 1_555
H86_4 C142_4 1_555 1_555
H87_4 C143_4 1_555 1_555
H88_4 C144_4 1_555 1_555
H89_4 C145_4 1_555 1_555
H90_4 C146_4 1_555 1_555
H91_4 C136_4 1_555 1_555
H92_4 C137_4 1_555 1_555
H93_4 C138_4 1_555 1_555
H94_4 C139_4 1_555 1_555
H95_4 C140_4 1_555 1_555
H96_4 C141_4 1_555 1_555
H97_4 C142_4 1_555 1_555
H98_4 C143_4 1_555 1_555
H99_4 C144_4 1_555 1_555
H100_4 C145_4 1_555 1_555
H101_4 C146_4 1_555 1_555
C147_4 C92_4 1_555 1_555
C148_4 C93_4 1_555 1_555
C149_4 C94_4 1_555 1_555
C150_4 C95_4 1_555 1_555
C151_4 C96_4 1_555 1_555
C152_4 C97_4 1_555 1_555
C153_4 C98_4 1_555 1_555
C154_4 C99_4 1_555 1_555
C155_4 C100_4 1_555 1_555
C156_4 C101_4 1_555 1_555
C157_4 C102_4 1_555 1_555
H102_4 C147_4 1_555 1_555
H103_4 C148_4 1_555 1_555
H104_4 C149_4 1_555 1_555
H105_4 C150_4 1_555 1_555
H106_4 C151_4 1_555 1_555
H107_4 C152_4 1_555 1_555
H108_4 C153_4 1_555 1_555
H109_4 C154_4 1_555 1_555
H110_4 C155_4 1_555 1_555
H111_4 C156_4 1_555 1_555
H112_4 C157_4 1_555 1_555
H113_4 C147_4 1_555 1_555
H114_4 C148_4 1_555 1_555
H115_4 C149_4 1_555 1_555
H116_4 C150_4 1_555 1_555
H117_4 C151_4 1_555 1_555
H118_4 C152_4 1_555 1_555
H119_4 C153_4 1_555 1_555
H120_4 C154_4 1_555 1_555
H121_4 C155_4 1_555 1_555
H122_4 C156_4 1_555 1_555
H123_4 C157_4 1_555 1_555
C158_4 C147_4 1_555 1_555
C159_4 C148_4 1_555 1_555
C160_4 C149_4 1_555 1_555
C161_4 C150_4 1_555 1_555
C162_4 C151_4 1_555 1_555
C163_4 C152_4 1_555 1_555
C164_4 C153_4 1_555 1_555
C165_4 C154_4 1_555 1_555
C166_4 C155_4 1_555 1_555
C167_4 C156_4 1_555 1_555
C168_4 C157_4 1_555 1_555
H124_4 C158_4 1_555 1_555
H125_4 C159_4 1_555 1_555
H126_4 C160_4 1_555 1_555
H127_4 C161_4 1_555 1_555
H128_4 C162_4 1_555 1_555
H129_4 C163_4 1_555 1_555
H130_4 C164_4 1_555 1_555
H131_4 C165_4 1_555 1_555
H132_4 C166_4 1_555 1_555
H133_4 C167_4 1_555 1_555
H134_4 C168_4 1_555 1_555
H135_4 C158_4 1_555 1_555
H136_4 C159_4 1_555 1_555
H137_4 C160_4 1_555 1_555
H138_4 C161_4 1_555 1_555
H139_4 C162_4 1_555 1_555
H140_4 C163_4 1_555 1_555
H141_4 C164_4 1_555 1_555
H142_4 C165_4 1_555 1_555
H143_4 C166_4 1_555 1_555
H144_4 C167_4 1_555 1_555
H145_4 C168_4 1_555 1_555
H146_4 C158_4 1_555 1_555
H147_4 C159_4 1_555 1_555
H148_4 C160_4 1_555 1_555
H149_4 C161_4 1_555 1_555
H150_4 C162_4 1_555 1_555
H151_4 C163_4 1_555 1_555
H152_4 C164_4 1_555 1_555
H153_4 C165_4 1_555 1_555
H154_4 C166_4 1_555 1_555
H155_4 C167_4 1_555 1_555
H156_4 C168_4 1_555 1_555
O35_7 Pb5 1_555 1_555
O36_7 Pb3_7 1_555 1_555
O37_7 Pb6 1_555 1_555
O3_7 Pb5 1_555 1_555
C6_4 C7_4 1_555 1_555
C9_4 C10_4 1_555 1_555
Pb5 O21_3 1_555 1_555
Pb3_7 O20_4 1_555 1_555
Pb3_7 O22_4 1_555 1_555
Pb6 O24_4 1_555 1_555
Pb6 O25_4 1_555 1_555
Pb6 O26_4 1_555 1_555
Pb8_7 O28_4 1_555 1_555
Pb13_2 O31_4 1_555 1_555
O20_4 C17_4 1_555 1_555
O24_4 C15_4 1_555 1_555
O25_4 C16_4 1_555 1_555
C59_4 C114_4 1_555 1_555
C70_4 C84_4 1_555 1_555
C71_4 C85_4 1_555 1_555
C72_4 C81_4 1_555 1_555
C73_4 C82_4 1_555 1_555
C74_4 C83_4 1_555 1_555
C75_4 C86_4 1_555 1_555
C76_4 C87_4 1_555 1_555
C77_4 C88_4 1_555 1_555
C78_4 C89_4 1_555 1_555
C79_4 C90_4 1_555 1_555
C80_4 C91_4 1_555 1_555
C92_4 C103_4 1_555 1_555
C103_4 C115_4 1_555 1_555
C104_4 C114_4 1_555 1_555
C104_4 C115_4 1_555 1_555
C105_4 C116_4 1_555 1_555
C105_4 C119_4 1_555 1_555
C106_4 C117_4 1_555 1_555
C106_4 C120_4 1_555 1_555
C107_4 C118_4 1_555 1_555
C107_4 C121_4 1_555 1_555
C108_4 C116_4 1_555 1_555
C108_4 C122_4 1_555 1_555
C109_4 C117_4 1_555 1_555
C109_4 C123_4 1_555 1_555
C110_4 C118_4 1_555 1_555
C110_4 C124_4 1_555 1_555
C111_4 C119_4 1_555 1_555
C111_4 C122_4 1_555 1_555
C112_4 C120_4 1_555 1_555
C112_4 C123_4 1_555 1_555
C113_4 C121_4 1_555 1_555
C113_4 C124_4 1_555 1_555
Pb1_6 O1_5 1_555 1_555
O1_5 C1_5 1_555 1_555
O2_5 Pb1_6 1_555 1_555
O3_8 Pb1_6 1_555 1_555
C1_5 O2_5 1_555 1_555
C2_5 C1_5 1_555 1_555
C3_5 C2_5 1_555 1_555
H1_5 C3_5 1_555 1_555
C4_5 C3_5 1_555 1_555
C5_5 C4_5 1_555 1_555
C6_5 C5_5 1_555 1_555
H2_5 C6_5 1_555 1_555
C7_5 C2_5 1_555 1_555
H3_5 C7_5 1_555 1_555
C8_5 C4_5 1_555 1_555
C9_5 C8_5 1_555 1_555
C10_5 C5_5 1_555 1_555
C11_5 C8_5 1_555 1_555
H4_5 C11_5 1_555 1_555
H5_5 C11_5 1_555 1_555
C12_5 C11_5 1_555 1_555
H6_5 C12_5 1_555 1_555
H7_5 C12_5 1_555 1_555
H8_5 C12_5 1_555 1_555
C13_5 C8_5 1_555 1_555
H9_5 C13_5 1_555 1_555
H10_5 C13_5 1_555 1_555
C14_5 C13_5 1_555 1_555
H11_5 C14_5 1_555 1_555
H12_5 C14_5 1_555 1_555
H13_5 C14_5 1_555 1_555
O4_8 Pb1_6 1_555 1_555
Pb2_5 O2_5 1_555 1_555
Pb3_8 O3_8 1_555 1_555
Pb4_7 O3_8 1_555 1_555
Pb5_4 O12_4 1_555 1_555
Pb6_4 O27_4 1_555 1_555
Pb11 O13_5 1_555 1_555
Pb12 O19_5 1_555 1_555
Pb9_4 O14_5 1_555 1_555
Pb10_5 O29_5 1_555 1_555
Pb11_7 O15_5 1_555 1_555
Pb16_6 O30_5 1_555 1_555
Pb13_5 O16_5 1_555 1_555
Pb14_4 O17_3 1_555 1_555
Pb15_4 O32_3 1_555 1_555
Pb16_7 O18_5 1_555 1_555
Pb17_7 O33_5 1_555 1_555
Pb9_3 O34_5 1_555 1_555
O5_4 Pb1_6 1_555 1_555
O6_4 Pb2_5 1_555 1_555
O7_5 Pb2_5 1_555 1_555
O8_5 Pb3_8 1_555 1_555
O9_5 Pb3_8 1_555 1_555
O10_5 Pb4_7 1_555 1_555
O11_5 Pb4_7 1_555 1_555
O12_4 C18_5 1_555 1_555
O13_5 C19_5 1_555 1_555
O14_5 C20_5 1_555 1_555
O15_5 C21_5 1_555 1_555
O16_5 C22_5 1_555 1_555
O17_3 C23_5 1_555 1_555
O18_5 C24_5 1_555 1_555
O19_5 C25_5 1_555 1_555
O20_5 Pb1_6 1_555 1_555
O21_4 Pb1_6 1_555 1_555
O22_5 Pb1_6 1_555 1_555
O23_4 Pb2_5 1_555 1_555
O24_5 Pb2_5 1_555 1_555
O25_5 Pb3_8 1_555 1_555
O26_5 Pb3_8 1_555 1_555
O27_4 Pb5_4 1_555 1_555
O28_5 Pb11 1_555 1_555
O29_5 Pb9_4 1_555 1_555
O30_5 Pb11_7 1_555 1_555
O31_5 Pb11_7 1_555 1_555
O32_3 Pb14_4 1_555 1_555
O33_5 Pb16_7 1_555 1_555
O34_5 Pb12 1_555 1_555
C15_5 O7_5 1_555 1_555
C16_5 O10_5 1_555 1_555
C17_5 O8_5 1_555 1_555
C18_5 O27_4 1_555 1_555
C19_5 O28_5 1_555 1_555
C20_5 O29_5 1_555 1_555
C21_5 O30_5 1_555 1_555
C22_5 O31_5 1_555 1_555
C23_5 O32_3 1_555 1_555
C24_5 O33_5 1_555 1_555
C25_5 O34_5 1_555 1_555
C26_5 C15_5 1_555 1_555
C27_5 C16_5 1_555 1_555
C28_5 C17_5 1_555 1_555
C29_5 C18_5 1_555 1_555
C30_5 C19_5 1_555 1_555
C31_5 C20_5 1_555 1_555
C32_5 C21_5 1_555 1_555
C33_5 C22_5 1_555 1_555
C34_5 C23_5 1_555 1_555
C35_5 C24_5 1_555 1_555
C36_5 C25_5 1_555 1_555
C37_5 C26_5 1_555 1_555
C38_5 C27_5 1_555 1_555
C39_5 C28_5 1_555 1_555
C40_5 C29_5 1_555 1_555
C41_5 C30_5 1_555 1_555
C42_5 C31_5 1_555 1_555
C43_5 C32_5 1_555 1_555
C44_5 C33_5 1_555 1_555
C45_5 C34_5 1_555 1_555
C46_5 C35_5 1_555 1_555
C47_5 C36_5 1_555 1_555
H14_5 C37_5 1_555 1_555
H15_5 C38_5 1_555 1_555
H16_5 C39_5 1_555 1_555
H17_5 C40_5 1_555 1_555
H18_5 C41_5 1_555 1_555
H19_5 C42_5 1_555 1_555
H20_5 C43_5 1_555 1_555
H21_5 C44_5 1_555 1_555
H22_5 C45_5 1_555 1_555
H23_5 C46_5 1_555 1_555
H24_5 C47_5 1_555 1_555
C48_5 C40_5 1_555 1_555
C49_5 C41_5 1_555 1_555
C50_5 C37_5 1_555 1_555
C51_5 C38_5 1_555 1_555
C52_5 C39_5 1_555 1_555
C53_5 C42_5 1_555 1_555
C54_5 C43_5 1_555 1_555
C55_5 C44_5 1_555 1_555
C56_5 C45_5 1_555 1_555
C57_5 C46_5 1_555 1_555
C58_5 C47_5 1_555 1_555
C59_5 C48_5 1_555 1_555
C60_5 C49_5 1_555 1_555
C61_5 C50_5 1_555 1_555
C62_5 C51_5 1_555 1_555
C63_5 C52_5 1_555 1_555
C64_5 C54_5 1_555 1_555
C65_5 C56_5 1_555 1_555
C66_5 C58_5 1_555 1_555
C67_5 C53_5 1_555 1_555
C68_5 C55_5 1_555 1_555
C69_5 C57_5 1_555 1_555
C70_5 C59_5 1_555 1_555
C71_5 C60_5 1_555 1_555
C72_5 C61_5 1_555 1_555
C73_5 C62_5 1_555 1_555
C74_5 C63_5 1_555 1_555
C75_5 C64_5 1_555 1_555
C76_5 C65_5 1_555 1_555
C77_5 C66_5 1_555 1_555
C78_5 C67_5 1_555 1_555
C79_5 C68_5 1_555 1_555
C80_5 C69_5 1_555 1_555
H25_5 C70_5 1_555 1_555
H26_5 C71_5 1_555 1_555
H27_5 C72_5 1_555 1_555
H28_5 C73_5 1_555 1_555
H29_5 C74_5 1_555 1_555
H30_5 C75_5 1_555 1_555
H31_5 C76_5 1_555 1_555
H32_5 C77_5 1_555 1_555
H33_5 C78_5 1_555 1_555
H34_5 C79_5 1_555 1_555
H35_5 C80_5 1_555 1_555
C81_5 C26_5 1_555 1_555
C82_5 C27_5 1_555 1_555
C83_5 C28_5 1_555 1_555
C84_5 C29_5 1_555 1_555
C85_5 C30_5 1_555 1_555
C86_5 C32_5 1_555 1_555
C87_5 C34_5 1_555 1_555
C88_5 C36_5 1_555 1_555
C89_5 C31_5 1_555 1_555
C90_5 C33_5 1_555 1_555
C91_5 C35_5 1_555 1_555
H36_5 C81_5 1_555 1_555
H37_5 C82_5 1_555 1_555
H38_5 C83_5 1_555 1_555
H39_5 C84_5 1_555 1_555
H40_5 C85_5 1_555 1_555
H41_5 C86_5 1_555 1_555
H42_5 C87_5 1_555 1_555
H43_5 C88_5 1_555 1_555
H44_5 C89_5 1_555 1_555
H45_5 C90_5 1_555 1_555
H46_5 C91_5 1_555 1_555
C92_5 C49_5 1_555 1_555
C93_5 C48_5 1_555 1_555
C94_5 C50_5 1_555 1_555
C95_5 C51_5 1_555 1_555
C96_5 C52_5 1_555 1_555
C97_5 C53_5 1_555 1_555
C98_5 C55_5 1_555 1_555
C99_5 C57_5 1_555 1_555
C100_5 C54_5 1_555 1_555
C101_5 C56_5 1_555 1_555
C102_5 C58_5 1_555 1_555
C103_5 C10_5 1_555 1_555
C104_5 C93_5 1_555 1_555
C105_5 C94_5 1_555 1_555
C106_5 C95_5 1_555 1_555
C107_5 C96_5 1_555 1_555
C108_5 C97_5 1_555 1_555
C109_5 C98_5 1_555 1_555
C110_5 C99_5 1_555 1_555
C111_5 C100_5 1_555 1_555
C112_5 C101_5 1_555 1_555
C113_5 C102_5 1_555 1_555
C114_5 C9_5 1_555 1_555
C115_5 C60_5 1_555 1_555
C116_5 C61_5 1_555 1_555
C117_5 C62_5 1_555 1_555
C118_5 C63_5 1_555 1_555
C119_5 C64_5 1_555 1_555
C120_5 C65_5 1_555 1_555
C121_5 C66_5 1_555 1_555
C122_5 C67_5 1_555 1_555
C123_5 C68_5 1_555 1_555
C124_5 C69_5 1_555 1_555
C125_5 C92_5 1_555 1_555
C126_5 C93_5 1_555 1_555
C127_5 C94_5 1_555 1_555
C128_5 C95_5 1_555 1_555
C129_5 C96_5 1_555 1_555
C130_5 C97_5 1_555 1_555
C131_5 C98_5 1_555 1_555
C132_5 C99_5 1_555 1_555
C133_5 C100_5 1_555 1_555
C134_5 C101_5 1_555 1_555
C135_5 C102_5 1_555 1_555
H47_5 C125_5 1_555 1_555
H48_5 C126_5 1_555 1_555
H49_5 C127_5 1_555 1_555
H50_5 C128_5 1_555 1_555
H51_5 C129_5 1_555 1_555
H52_5 C130_5 1_555 1_555
H53_5 C131_5 1_555 1_555
H54_5 C132_5 1_555 1_555
H55_5 C133_5 1_555 1_555
H56_5 C134_5 1_555 1_555
H57_5 C135_5 1_555 1_555
H58_5 C125_5 1_555 1_555
H59_5 C126_5 1_555 1_555
H60_5 C127_5 1_555 1_555
H61_5 C128_5 1_555 1_555
H62_5 C129_5 1_555 1_555
H63_5 C130_5 1_555 1_555
H64_5 C131_5 1_555 1_555
H65_5 C132_5 1_555 1_555
H66_5 C133_5 1_555 1_555
H67_5 C134_5 1_555 1_555
H68_5 C135_5 1_555 1_555
C136_5 C125_5 1_555 1_555
C137_5 C126_5 1_555 1_555
C138_5 C127_5 1_555 1_555
C139_5 C128_5 1_555 1_555
C140_5 C129_5 1_555 1_555
C141_5 C130_5 1_555 1_555
C142_5 C131_5 1_555 1_555
C143_5 C132_5 1_555 1_555
C144_5 C133_5 1_555 1_555
C145_5 C134_5 1_555 1_555
C146_5 C135_5 1_555 1_555
H69_5 C136_5 1_555 1_555
H70_5 C137_5 1_555 1_555
H71_5 C138_5 1_555 1_555
H72_5 C139_5 1_555 1_555
H73_5 C140_5 1_555 1_555
H74_5 C141_5 1_555 1_555
H75_5 C142_5 1_555 1_555
H76_5 C143_5 1_555 1_555
H77_5 C144_5 1_555 1_555
H78_5 C145_5 1_555 1_555
H79_5 C146_5 1_555 1_555
H80_5 C136_5 1_555 1_555
H81_5 C137_5 1_555 1_555
H82_5 C138_5 1_555 1_555
H83_5 C139_5 1_555 1_555
H84_5 C140_5 1_555 1_555
H85_5 C141_5 1_555 1_555
H86_5 C142_5 1_555 1_555
H87_5 C143_5 1_555 1_555
H88_5 C144_5 1_555 1_555
H89_5 C145_5 1_555 1_555
H90_5 C146_5 1_555 1_555
H91_5 C136_5 1_555 1_555
H92_5 C137_5 1_555 1_555
H93_5 C138_5 1_555 1_555
H94_5 C139_5 1_555 1_555
H95_5 C140_5 1_555 1_555
H96_5 C141_5 1_555 1_555
H97_5 C142_5 1_555 1_555
H98_5 C143_5 1_555 1_555
H99_5 C144_5 1_555 1_555
H100_5 C145_5 1_555 1_555
H101_5 C146_5 1_555 1_555
C147_5 C92_5 1_555 1_555
C148_5 C93_5 1_555 1_555
C149_5 C94_5 1_555 1_555
C150_5 C95_5 1_555 1_555
C151_5 C96_5 1_555 1_555
C152_5 C97_5 1_555 1_555
C153_5 C98_5 1_555 1_555
C154_5 C99_5 1_555 1_555
C155_5 C100_5 1_555 1_555
C156_5 C101_5 1_555 1_555
C157_5 C102_5 1_555 1_555
H102_5 C147_5 1_555 1_555
H103_5 C148_5 1_555 1_555
H104_5 C149_5 1_555 1_555
H105_5 C150_5 1_555 1_555
H106_5 C151_5 1_555 1_555
H107_5 C152_5 1_555 1_555
H108_5 C153_5 1_555 1_555
H109_5 C154_5 1_555 1_555
H110_5 C155_5 1_555 1_555
H111_5 C156_5 1_555 1_555
H112_5 C157_5 1_555 1_555
H113_5 C147_5 1_555 1_555
H114_5 C148_5 1_555 1_555
H115_5 C149_5 1_555 1_555
H116_5 C150_5 1_555 1_555
H117_5 C151_5 1_555 1_555
H118_5 C152_5 1_555 1_555
H119_5 C153_5 1_555 1_555
H120_5 C154_5 1_555 1_555
H121_5 C155_5 1_555 1_555
H122_5 C156_5 1_555 1_555
H123_5 C157_5 1_555 1_555
C158_5 C147_5 1_555 1_555
C159_5 C148_5 1_555 1_555
C160_5 C149_5 1_555 1_555
C161_5 C150_5 1_555 1_555
C162_5 C151_5 1_555 1_555
C163_5 C152_5 1_555 1_555
C164_5 C153_5 1_555 1_555
C165_5 C154_5 1_555 1_555
C166_5 C155_5 1_555 1_555
C167_5 C156_5 1_555 1_555
C168_5 C157_5 1_555 1_555
H124_5 C158_5 1_555 1_555
H125_5 C159_5 1_555 1_555
H126_5 C160_5 1_555 1_555
H127_5 C161_5 1_555 1_555
H128_5 C162_5 1_555 1_555
H129_5 C163_5 1_555 1_555
H130_5 C164_5 1_555 1_555
H131_5 C165_5 1_555 1_555
H132_5 C166_5 1_555 1_555
H133_5 C167_5 1_555 1_555
H134_5 C168_5 1_555 1_555
H135_5 C158_5 1_555 1_555
H136_5 C159_5 1_555 1_555
H137_5 C160_5 1_555 1_555
H138_5 C161_5 1_555 1_555
H139_5 C162_5 1_555 1_555
H140_5 C163_5 1_555 1_555
H141_5 C164_5 1_555 1_555
H142_5 C165_5 1_555 1_555
H143_5 C166_5 1_555 1_555
H144_5 C167_5 1_555 1_555
H145_5 C168_5 1_555 1_555
H146_5 C158_5 1_555 1_555
H147_5 C159_5 1_555 1_555
H148_5 C160_5 1_555 1_555
H149_5 C161_5 1_555 1_555
H150_5 C162_5 1_555 1_555
H151_5 C163_5 1_555 1_555
H152_5 C164_5 1_555 1_555
H153_5 C165_5 1_555 1_555
H154_5 C166_5 1_555 1_555
H155_5 C167_5 1_555 1_555
H156_5 C168_5 1_555 1_555
O35_8 Pb2_5 1_555 1_555
O36_8 Pb3_8 1_555 1_555
O37_8 Pb4_7 1_555 1_555
O3_8 Pb2_5 1_555 1_555
C6_5 C7_5 1_555 1_555
C9_5 C10_5 1_555 1_555
Pb2_5 O21_4 1_555 1_555
Pb3_8 O20_5 1_555 1_555
Pb3_8 O22_5 1_555 1_555
Pb4_7 O23_4 1_555 1_555
Pb4_7 O24_5 1_555 1_555
Pb4_7 O25_5 1_555 1_555
Pb4_7 O26_5 1_555 1_555
Pb12 O28_5 1_555 1_555
Pb13_5 O31_5 1_555 1_555
O20_5 C17_5 1_555 1_555
O24_5 C15_5 1_555 1_555
O25_5 C16_5 1_555 1_555
C59_5 C114_5 1_555 1_555
C70_5 C84_5 1_555 1_555
C71_5 C85_5 1_555 1_555
C72_5 C81_5 1_555 1_555
C73_5 C82_5 1_555 1_555
C74_5 C83_5 1_555 1_555
C75_5 C86_5 1_555 1_555
C76_5 C87_5 1_555 1_555
C77_5 C88_5 1_555 1_555
C78_5 C89_5 1_555 1_555
C79_5 C90_5 1_555 1_555
C80_5 C91_5 1_555 1_555
C92_5 C103_5 1_555 1_555
C103_5 C115_5 1_555 1_555
C104_5 C114_5 1_555 1_555
C104_5 C115_5 1_555 1_555
C105_5 C116_5 1_555 1_555
C105_5 C119_5 1_555 1_555
C106_5 C117_5 1_555 1_555
C106_5 C120_5 1_555 1_555
C107_5 C118_5 1_555 1_555
C107_5 C121_5 1_555 1_555
C108_5 C116_5 1_555 1_555
C108_5 C122_5 1_555 1_555
C109_5 C117_5 1_555 1_555
C109_5 C123_5 1_555 1_555
C110_5 C118_5 1_555 1_555
C110_5 C124_5 1_555 1_555
C111_5 C119_5 1_555 1_555
C111_5 C122_5 1_555 1_555
C112_5 C120_5 1_555 1_555
C112_5 C123_5 1_555 1_555
C113_5 C121_5 1_555 1_555
C113_5 C124_5 1_555 1_555
Pb1_7 O1_6 1_555 1_555
O1_6 C1_6 1_555 1_555
O2_6 Pb1_7 1_555 1_555
O3_9 Pb1_7 1_555 1_555
C1_6 O2_6 1_555 1_555
C2_6 C1_6 1_555 1_555
C3_6 C2_6 1_555 1_555
H1_6 C3_6 1_555 1_555
C4_6 C3_6 1_555 1_555
C5_6 C4_6 1_555 1_555
C6_6 C5_6 1_555 1_555
H2_6 C6_6 1_555 1_555
C7_6 C2_6 1_555 1_555
H3_6 C7_6 1_555 1_555
C8_6 C4_6 1_555 1_555
C9_6 C8_6 1_555 1_555
C10_6 C5_6 1_555 1_555
C11_6 C8_6 1_555 1_555
H4_6 C11_6 1_555 1_555
H5_6 C11_6 1_555 1_555
C12_6 C11_6 1_555 1_555
H6_6 C12_6 1_555 1_555
H7_6 C12_6 1_555 1_555
H8_6 C12_6 1_555 1_555
C13_6 C8_6 1_555 1_555
H9_6 C13_6 1_555 1_555
H10_6 C13_6 1_555 1_555
C14_6 C13_6 1_555 1_555
H11_6 C14_6 1_555 1_555
H12_6 C14_6 1_555 1_555
H13_6 C14_6 1_555 1_555
O4_9 Pb1_7 1_555 1_555
Pb2_6 O2_6 1_555 1_555
Pb3_9 O3_9 1_555 1_555
Pb4_8 O3_9 1_555 1_555
Pb10_6 O12_5 1_555 1_555
Pb6_7 O27_5 1_555 1_555
Pb7_8 O13_6 1_555 1_555
Pb8_8 O19_6 1_555 1_555
Pb17_4 O14_6 1_555 1_555
Pb5_5 O29_6 1_555 1_555
Pb7_2 O15_6 1_555 1_555
Pb8_2 O30_6 1_555 1_555
Pb13_7 O16_6 1_555 1_555
Pb17_7 O17_4 1_555 1_555
Pb5_2 O32_4 1_555 1_555
Pb16_8 O18_6 1_555 1_555
Pb14_4 O33_6 1_555 1_555
Pb18_8 O34_6 1_555 1_555
O5_5 Pb1_7 1_555 1_555
O6_5 Pb2_6 1_555 1_555
O7_6 Pb2_6 1_555 1_555
O8_6 Pb3_9 1_555 1_555
O9_6 Pb3_9 1_555 1_555
O10_6 Pb4_8 1_555 1_555
O11_6 Pb4_8 1_555 1_555
O12_5 C18_6 1_555 1_555
O13_6 C19_6 1_555 1_555
O14_6 C20_6 1_555 1_555
O15_6 C21_6 1_555 1_555
O16_6 C22_6 1_555 1_555
O17_4 C23_6 1_555 1_555
O18_6 C24_6 1_555 1_555
O19_6 C25_6 1_555 1_555
O20_6 Pb1_7 1_555 1_555
O21_5 Pb1_7 1_555 1_555
O22_6 Pb1_7 1_555 1_555
O23_5 Pb2_6 1_555 1_555
O24_6 Pb2_6 1_555 1_555
O25_6 Pb3_9 1_555 1_555
O26_6 Pb3_9 1_555 1_555
O27_5 Pb10_6 1_555 1_555
O28_6 Pb7_8 1_555 1_555
O29_6 Pb17_4 1_555 1_555
O30_6 Pb7_2 1_555 1_555
O31_6 Pb7_2 1_555 1_555
O32_4 Pb17_7 1_555 1_555
O33_6 Pb16_8 1_555 1_555
O34_6 Pb8_8 1_555 1_555
C15_6 O7_6 1_555 1_555
C16_6 O10_6 1_555 1_555
C17_6 O8_6 1_555 1_555
C18_6 O27_5 1_555 1_555
C19_6 O28_6 1_555 1_555
C20_6 O29_6 1_555 1_555
C21_6 O30_6 1_555 1_555
C22_6 O31_6 1_555 1_555
C23_6 O32_4 1_555 1_555
C24_6 O33_6 1_555 1_555
C25_6 O34_6 1_555 1_555
C26_6 C15_6 1_555 1_555
C27_6 C16_6 1_555 1_555
C28_6 C17_6 1_555 1_555
C29_6 C18_6 1_555 1_555
C30_6 C19_6 1_555 1_555
C31_6 C20_6 1_555 1_555
C32_6 C21_6 1_555 1_555
C33_6 C22_6 1_555 1_555
C34_6 C23_6 1_555 1_555
C35_6 C24_6 1_555 1_555
C36_6 C25_6 1_555 1_555
C37_6 C26_6 1_555 1_555
C38_6 C27_6 1_555 1_555
C39_6 C28_6 1_555 1_555
C40_6 C29_6 1_555 1_555
C41_6 C30_6 1_555 1_555
C42_6 C31_6 1_555 1_555
C43_6 C32_6 1_555 1_555
C44_6 C33_6 1_555 1_555
C45_6 C34_6 1_555 1_555
C46_6 C35_6 1_555 1_555
C47_6 C36_6 1_555 1_555
H14_6 C37_6 1_555 1_555
H15_6 C38_6 1_555 1_555
H16_6 C39_6 1_555 1_555
H17_6 C40_6 1_555 1_555
H18_6 C41_6 1_555 1_555
H19_6 C42_6 1_555 1_555
H20_6 C43_6 1_555 1_555
H21_6 C44_6 1_555 1_555
H22_6 C45_6 1_555 1_555
H23_6 C46_6 1_555 1_555
H24_6 C47_6 1_555 1_555
C48_6 C40_6 1_555 1_555
C49_6 C41_6 1_555 1_555
C50_6 C37_6 1_555 1_555
C51_6 C38_6 1_555 1_555
C52_6 C39_6 1_555 1_555
C53_6 C42_6 1_555 1_555
C54_6 C43_6 1_555 1_555
C55_6 C44_6 1_555 1_555
C56_6 C45_6 1_555 1_555
C57_6 C46_6 1_555 1_555
C58_6 C47_6 1_555 1_555
C59_6 C48_6 1_555 1_555
C60_6 C49_6 1_555 1_555
C61_6 C50_6 1_555 1_555
C62_6 C51_6 1_555 1_555
C63_6 C52_6 1_555 1_555
C64_6 C54_6 1_555 1_555
C65_6 C56_6 1_555 1_555
C66_6 C58_6 1_555 1_555
C67_6 C53_6 1_555 1_555
C68_6 C55_6 1_555 1_555
C69_6 C57_6 1_555 1_555
C70_6 C59_6 1_555 1_555
C71_6 C60_6 1_555 1_555
C72_6 C61_6 1_555 1_555
C73_6 C62_6 1_555 1_555
C74_6 C63_6 1_555 1_555
C75_6 C64_6 1_555 1_555
C76_6 C65_6 1_555 1_555
C77_6 C66_6 1_555 1_555
C78_6 C67_6 1_555 1_555
C79_6 C68_6 1_555 1_555
C80_6 C69_6 1_555 1_555
H25_6 C70_6 1_555 1_555
H26_6 C71_6 1_555 1_555
H27_6 C72_6 1_555 1_555
H28_6 C73_6 1_555 1_555
H29_6 C74_6 1_555 1_555
H30_6 C75_6 1_555 1_555
H31_6 C76_6 1_555 1_555
H32_6 C77_6 1_555 1_555
H33_6 C78_6 1_555 1_555
H34_6 C79_6 1_555 1_555
H35_6 C80_6 1_555 1_555
C81_6 C26_6 1_555 1_555
C82_6 C27_6 1_555 1_555
C83_6 C28_6 1_555 1_555
C84_6 C29_6 1_555 1_555
C85_6 C30_6 1_555 1_555
C86_6 C32_6 1_555 1_555
C87_6 C34_6 1_555 1_555
C88_6 C36_6 1_555 1_555
C89_6 C31_6 1_555 1_555
C90_6 C33_6 1_555 1_555
C91_6 C35_6 1_555 1_555
H36_6 C81_6 1_555 1_555
H37_6 C82_6 1_555 1_555
H38_6 C83_6 1_555 1_555
H39_6 C84_6 1_555 1_555
H40_6 C85_6 1_555 1_555
H41_6 C86_6 1_555 1_555
H42_6 C87_6 1_555 1_555
H43_6 C88_6 1_555 1_555
H44_6 C89_6 1_555 1_555
H45_6 C90_6 1_555 1_555
H46_6 C91_6 1_555 1_555
C92_6 C49_6 1_555 1_555
C93_6 C48_6 1_555 1_555
C94_6 C50_6 1_555 1_555
C95_6 C51_6 1_555 1_555
C96_6 C52_6 1_555 1_555
C97_6 C53_6 1_555 1_555
C98_6 C55_6 1_555 1_555
C99_6 C57_6 1_555 1_555
C100_6 C54_6 1_555 1_555
C101_6 C56_6 1_555 1_555
C102_6 C58_6 1_555 1_555
C103_6 C10_6 1_555 1_555
C104_6 C93_6 1_555 1_555
C105_6 C94_6 1_555 1_555
C106_6 C95_6 1_555 1_555
C107_6 C96_6 1_555 1_555
C108_6 C97_6 1_555 1_555
C109_6 C98_6 1_555 1_555
C110_6 C99_6 1_555 1_555
C111_6 C100_6 1_555 1_555
C112_6 C101_6 1_555 1_555
C113_6 C102_6 1_555 1_555
C114_6 C9_6 1_555 1_555
C115_6 C60_6 1_555 1_555
C116_6 C61_6 1_555 1_555
C117_6 C62_6 1_555 1_555
C118_6 C63_6 1_555 1_555
C119_6 C64_6 1_555 1_555
C120_6 C65_6 1_555 1_555
C121_6 C66_6 1_555 1_555
C122_6 C67_6 1_555 1_555
C123_6 C68_6 1_555 1_555
C124_6 C69_6 1_555 1_555
C125_6 C92_6 1_555 1_555
C126_6 C93_6 1_555 1_555
C127_6 C94_6 1_555 1_555
C128_6 C95_6 1_555 1_555
C129_6 C96_6 1_555 1_555
C130_6 C97_6 1_555 1_555
C131_6 C98_6 1_555 1_555
C132_6 C99_6 1_555 1_555
C133_6 C100_6 1_555 1_555
C134_6 C101_6 1_555 1_555
C135_6 C102_6 1_555 1_555
H47_6 C125_6 1_555 1_555
H48_6 C126_6 1_555 1_555
H49_6 C127_6 1_555 1_555
H50_6 C128_6 1_555 1_555
H51_6 C129_6 1_555 1_555
H52_6 C130_6 1_555 1_555
H53_6 C131_6 1_555 1_555
H54_6 C132_6 1_555 1_555
H55_6 C133_6 1_555 1_555
H56_6 C134_6 1_555 1_555
H57_6 C135_6 1_555 1_555
H58_6 C125_6 1_555 1_555
H59_6 C126_6 1_555 1_555
H60_6 C127_6 1_555 1_555
H61_6 C128_6 1_555 1_555
H62_6 C129_6 1_555 1_555
H63_6 C130_6 1_555 1_555
H64_6 C131_6 1_555 1_555
H65_6 C132_6 1_555 1_555
H66_6 C133_6 1_555 1_555
H67_6 C134_6 1_555 1_555
H68_6 C135_6 1_555 1_555
C136_6 C125_6 1_555 1_555
C137_6 C126_6 1_555 1_555
C138_6 C127_6 1_555 1_555
C139_6 C128_6 1_555 1_555
C140_6 C129_6 1_555 1_555
C141_6 C130_6 1_555 1_555
C142_6 C131_6 1_555 1_555
C143_6 C132_6 1_555 1_555
C144_6 C133_6 1_555 1_555
C145_6 C134_6 1_555 1_555
C146_6 C135_6 1_555 1_555
H69_6 C136_6 1_555 1_555
H70_6 C137_6 1_555 1_555
H71_6 C138_6 1_555 1_555
H72_6 C139_6 1_555 1_555
H73_6 C140_6 1_555 1_555
H74_6 C141_6 1_555 1_555
H75_6 C142_6 1_555 1_555
H76_6 C143_6 1_555 1_555
H77_6 C144_6 1_555 1_555
H78_6 C145_6 1_555 1_555
H79_6 C146_6 1_555 1_555
H80_6 C136_6 1_555 1_555
H81_6 C137_6 1_555 1_555
H82_6 C138_6 1_555 1_555
H83_6 C139_6 1_555 1_555
H84_6 C140_6 1_555 1_555
H85_6 C141_6 1_555 1_555
H86_6 C142_6 1_555 1_555
H87_6 C143_6 1_555 1_555
H88_6 C144_6 1_555 1_555
H89_6 C145_6 1_555 1_555
H90_6 C146_6 1_555 1_555
H91_6 C136_6 1_555 1_555
H92_6 C137_6 1_555 1_555
H93_6 C138_6 1_555 1_555
H94_6 C139_6 1_555 1_555
H95_6 C140_6 1_555 1_555
H96_6 C141_6 1_555 1_555
H97_6 C142_6 1_555 1_555
H98_6 C143_6 1_555 1_555
H99_6 C144_6 1_555 1_555
H100_6 C145_6 1_555 1_555
H101_6 C146_6 1_555 1_555
C147_6 C92_6 1_555 1_555
C148_6 C93_6 1_555 1_555
C149_6 C94_6 1_555 1_555
C150_6 C95_6 1_555 1_555
C151_6 C96_6 1_555 1_555
C152_6 C97_6 1_555 1_555
C153_6 C98_6 1_555 1_555
C154_6 C99_6 1_555 1_555
C155_6 C100_6 1_555 1_555
C156_6 C101_6 1_555 1_555
C157_6 C102_6 1_555 1_555
H102_6 C147_6 1_555 1_555
H103_6 C148_6 1_555 1_555
H104_6 C149_6 1_555 1_555
H105_6 C150_6 1_555 1_555
H106_6 C151_6 1_555 1_555
H107_6 C152_6 1_555 1_555
H108_6 C153_6 1_555 1_555
H109_6 C154_6 1_555 1_555
H110_6 C155_6 1_555 1_555
H111_6 C156_6 1_555 1_555
H112_6 C157_6 1_555 1_555
H113_6 C147_6 1_555 1_555
H114_6 C148_6 1_555 1_555
H115_6 C149_6 1_555 1_555
H116_6 C150_6 1_555 1_555
H117_6 C151_6 1_555 1_555
H118_6 C152_6 1_555 1_555
H119_6 C153_6 1_555 1_555
H120_6 C154_6 1_555 1_555
H121_6 C155_6 1_555 1_555
H122_6 C156_6 1_555 1_555
H123_6 C157_6 1_555 1_555
C158_6 C147_6 1_555 1_555
C159_6 C148_6 1_555 1_555
C160_6 C149_6 1_555 1_555
C161_6 C150_6 1_555 1_555
C162_6 C151_6 1_555 1_555
C163_6 C152_6 1_555 1_555
C164_6 C153_6 1_555 1_555
C165_6 C154_6 1_555 1_555
C166_6 C155_6 1_555 1_555
C167_6 C156_6 1_555 1_555
C168_6 C157_6 1_555 1_555
H124_6 C158_6 1_555 1_555
H125_6 C159_6 1_555 1_555
H126_6 C160_6 1_555 1_555
H127_6 C161_6 1_555 1_555
H128_6 C162_6 1_555 1_555
H129_6 C163_6 1_555 1_555
H130_6 C164_6 1_555 1_555
H131_6 C165_6 1_555 1_555
H132_6 C166_6 1_555 1_555
H133_6 C167_6 1_555 1_555
H134_6 C168_6 1_555 1_555
H135_6 C158_6 1_555 1_555
H136_6 C159_6 1_555 1_555
H137_6 C160_6 1_555 1_555
H138_6 C161_6 1_555 1_555
H139_6 C162_6 1_555 1_555
H140_6 C163_6 1_555 1_555
H141_6 C164_6 1_555 1_555
H142_6 C165_6 1_555 1_555
H143_6 C166_6 1_555 1_555
H144_6 C167_6 1_555 1_555
H145_6 C168_6 1_555 1_555
H146_6 C158_6 1_555 1_555
H147_6 C159_6 1_555 1_555
H148_6 C160_6 1_555 1_555
H149_6 C161_6 1_555 1_555
H150_6 C162_6 1_555 1_555
H151_6 C163_6 1_555 1_555
H152_6 C164_6 1_555 1_555
H153_6 C165_6 1_555 1_555
H154_6 C166_6 1_555 1_555
H155_6 C167_6 1_555 1_555
H156_6 C168_6 1_555 1_555
O35_9 Pb2_6 1_555 1_555
O36_9 Pb3_9 1_555 1_555
O37_9 Pb4_8 1_555 1_555
O3_9 Pb2_6 1_555 1_555
C6_6 C7_6 1_555 1_555
C9_6 C10_6 1_555 1_555
Pb2_6 O21_5 1_555 1_555
Pb3_9 O20_6 1_555 1_555
Pb3_9 O22_6 1_555 1_555
Pb4_8 O23_5 1_555 1_555
Pb4_8 O24_6 1_555 1_555
Pb4_8 O25_6 1_555 1_555
Pb4_8 O26_6 1_555 1_555
Pb8_8 O28_6 1_555 1_555
Pb13_7 O31_6 1_555 1_555
O20_6 C17_6 1_555 1_555
O24_6 C15_6 1_555 1_555
O25_6 C16_6 1_555 1_555
C59_6 C114_6 1_555 1_555
C70_6 C84_6 1_555 1_555
C71_6 C85_6 1_555 1_555
C72_6 C81_6 1_555 1_555
C73_6 C82_6 1_555 1_555
C74_6 C83_6 1_555 1_555
C75_6 C86_6 1_555 1_555
C76_6 C87_6 1_555 1_555
C77_6 C88_6 1_555 1_555
C78_6 C89_6 1_555 1_555
C79_6 C90_6 1_555 1_555
C80_6 C91_6 1_555 1_555
C92_6 C103_6 1_555 1_555
C103_6 C115_6 1_555 1_555
C104_6 C114_6 1_555 1_555
C104_6 C115_6 1_555 1_555
C105_6 C116_6 1_555 1_555
C105_6 C119_6 1_555 1_555
C106_6 C117_6 1_555 1_555
C106_6 C120_6 1_555 1_555
C107_6 C118_6 1_555 1_555
C107_6 C121_6 1_555 1_555
C108_6 C116_6 1_555 1_555
C108_6 C122_6 1_555 1_555
C109_6 C117_6 1_555 1_555
C109_6 C123_6 1_555 1_555
C110_6 C118_6 1_555 1_555
C110_6 C124_6 1_555 1_555
C111_6 C119_6 1_555 1_555
C111_6 C122_6 1_555 1_555
C112_6 C120_6 1_555 1_555
C112_6 C123_6 1_555 1_555
C113_6 C121_6 1_555 1_555
C113_6 C124_6 1_555 1_555
Pb18_8 O1_7 1_555 1_555
O1_7 C1_7 1_555 1_555
O2_7 Pb18_8 1_555 1_555
O3_10 Pb18_8 1_555 1_555
C1_7 O2_7 1_555 1_555
C2_7 C1_7 1_555 1_555
C3_7 C2_7 1_555 1_555
H1_7 C3_7 1_555 1_555
C4_7 C3_7 1_555 1_555
C5_7 C4_7 1_555 1_555
C6_7 C5_7 1_555 1_555
H2_7 C6_7 1_555 1_555
C7_7 C2_7 1_555 1_555
H3_7 C7_7 1_555 1_555
C8_7 C4_7 1_555 1_555
C9_7 C8_7 1_555 1_555
C10_7 C5_7 1_555 1_555
C11_7 C8_7 1_555 1_555
H4_7 C11_7 1_555 1_555
H5_7 C11_7 1_555 1_555
C12_7 C11_7 1_555 1_555
H6_7 C12_7 1_555 1_555
H7_7 C12_7 1_555 1_555
H8_7 C12_7 1_555 1_555
C13_7 C8_7 1_555 1_555
H9_7 C13_7 1_555 1_555
H10_7 C13_7 1_555 1_555
C14_7 C13_7 1_555 1_555
H11_7 C14_7 1_555 1_555
H12_7 C14_7 1_555 1_555
H13_7 C14_7 1_555 1_555
O4_10 Pb18_8 1_555 1_555
Pb2_7 O2_7 1_555 1_555
Pb8_8 O3_10 1_555 1_555
Pb7_8 O3_10 1_555 1_555
Pb5_7 O12_6 1_555 1_555
Pb6_9 O27_6 1_555 1_555
Pb7_9 O13_7 1_555 1_555
Pb17_2 O14_7 1_555 1_555
Pb10_8 O29_7 1_555 1_555
Pb7_6 O15_7 1_555 1_555
Pb8_6 O30_7 1_555 1_555
Pb10_4 O16_7 1_555 1_555
O5_6 Pb18_8 1_555 1_555
O6_6 Pb2_7 1_555 1_555
O7_7 Pb2_7 1_555 1_555
O9_7 Pb8_8 1_555 1_555
O10_7 Pb7_8 1_555 1_555
O12_6 C18_7 1_555 1_555
O13_7 C19_7 1_555 1_555
O14_7 C20_7 1_555 1_555
O15_7 C21_7 1_555 1_555
O16_7 C22_7 1_555 1_555
O5_3 C23_7 1_555 1_555
O21_6 Pb18_8 1_555 1_555
O22_7 Pb18_8 1_555 1_555
O23_6 Pb2_7 1_555 1_555
O24_7 Pb2_7 1_555 1_555
O25_7 Pb8_8 1_555 1_555
O27_6 Pb5_7 1_555 1_555
O28_7 Pb7_9 1_555 1_555
O29_7 Pb17_2 1_555 1_555
O30_7 Pb7_6 1_555 1_555
O31_7 Pb7_6 1_555 1_555
C15_7 O7_7 1_555 1_555
C16_7 O10_7 1_555 1_555
C18_7 O27_6 1_555 1_555
C19_7 O28_7 1_555 1_555
C20_7 O29_7 1_555 1_555
C21_7 O30_7 1_555 1_555
C22_7 O31_7 1_555 1_555
C23_7 O21_3 1_555 1_555
C26_7 C15_7 1_555 1_555
C27_7 C16_7 1_555 1_555
C29_7 C18_7 1_555 1_555
C30_7 C19_7 1_555 1_555
C31_7 C20_7 1_555 1_555
C32_7 C21_7 1_555 1_555
C33_7 C22_7 1_555 1_555
C34_7 C23_7 1_555 1_555
C37_7 C26_7 1_555 1_555
C38_7 C27_7 1_555 1_555
C40_7 C29_7 1_555 1_555
C41_7 C30_7 1_555 1_555
C42_7 C31_7 1_555 1_555
C43_7 C32_7 1_555 1_555
C44_7 C33_7 1_555 1_555
C45_7 C34_7 1_555 1_555
H14_7 C37_7 1_555 1_555
H15_7 C38_7 1_555 1_555
H17_7 C40_7 1_555 1_555
H18_7 C41_7 1_555 1_555
H19_7 C42_7 1_555 1_555
H20_7 C43_7 1_555 1_555
H21_7 C44_7 1_555 1_555
H22_7 C45_7 1_555 1_555
C48_7 C40_7 1_555 1_555
C49_7 C41_7 1_555 1_555
C50_7 C37_7 1_555 1_555
C51_7 C38_7 1_555 1_555
C53_7 C42_7 1_555 1_555
C54_7 C43_7 1_555 1_555
C55_7 C44_7 1_555 1_555
C56_7 C45_7 1_555 1_555
C59_7 C48_7 1_555 1_555
C60_7 C49_7 1_555 1_555
C61_7 C50_7 1_555 1_555
C62_7 C51_7 1_555 1_555
C64_7 C54_7 1_555 1_555
C65_7 C56_7 1_555 1_555
C67_7 C53_7 1_555 1_555
C68_7 C55_7 1_555 1_555
C70_7 C59_7 1_555 1_555
C71_7 C60_7 1_555 1_555
C72_7 C61_7 1_555 1_555
C73_7 C62_7 1_555 1_555
C75_7 C64_7 1_555 1_555
C76_7 C65_7 1_555 1_555
C78_7 C67_7 1_555 1_555
C79_7 C68_7 1_555 1_555
H25_7 C70_7 1_555 1_555
H26_7 C71_7 1_555 1_555
H27_7 C72_7 1_555 1_555
H28_7 C73_7 1_555 1_555
H30_7 C75_7 1_555 1_555
H31_7 C76_7 1_555 1_555
H33_7 C78_7 1_555 1_555
H34_7 C79_7 1_555 1_555
C81_7 C26_7 1_555 1_555
C82_7 C27_7 1_555 1_555
C84_7 C29_7 1_555 1_555
C85_7 C30_7 1_555 1_555
C86_7 C32_7 1_555 1_555
C87_7 C34_7 1_555 1_555
C89_7 C31_7 1_555 1_555
C90_7 C33_7 1_555 1_555
H36_7 C81_7 1_555 1_555
H37_7 C82_7 1_555 1_555
H39_7 C84_7 1_555 1_555
H40_7 C85_7 1_555 1_555
H41_7 C86_7 1_555 1_555
H42_7 C87_7 1_555 1_555
H44_7 C89_7 1_555 1_555
H45_7 C90_7 1_555 1_555
C92_7 C49_7 1_555 1_555
C93_7 C48_7 1_555 1_555
C94_7 C50_7 1_555 1_555
C95_7 C51_7 1_555 1_555
C97_7 C53_7 1_555 1_555
C98_7 C55_7 1_555 1_555
C100_7 C54_7 1_555 1_555
C101_7 C56_7 1_555 1_555
C103_7 C10_7 1_555 1_555
C104_7 C93_7 1_555 1_555
C105_7 C94_7 1_555 1_555
C106_7 C95_7 1_555 1_555
C108_7 C97_7 1_555 1_555
C109_7 C98_7 1_555 1_555
C111_7 C100_7 1_555 1_555
C112_7 C101_7 1_555 1_555
C114_7 C9_7 1_555 1_555
C115_7 C60_7 1_555 1_555
C116_7 C61_7 1_555 1_555
C117_7 C62_7 1_555 1_555
C119_7 C64_7 1_555 1_555
C120_7 C65_7 1_555 1_555
C122_7 C67_7 1_555 1_555
C123_7 C68_7 1_555 1_555
C125_7 C92_7 1_555 1_555
C126_7 C93_7 1_555 1_555
C127_7 C94_7 1_555 1_555
C128_7 C95_7 1_555 1_555
C130_7 C97_7 1_555 1_555
C131_7 C98_7 1_555 1_555
C133_7 C100_7 1_555 1_555
C134_7 C101_7 1_555 1_555
H47_7 C125_7 1_555 1_555
H48_7 C126_7 1_555 1_555
H49_7 C127_7 1_555 1_555
H50_7 C128_7 1_555 1_555
H52_7 C130_7 1_555 1_555
H53_7 C131_7 1_555 1_555
H55_7 C133_7 1_555 1_555
H56_7 C134_7 1_555 1_555
H58_7 C125_7 1_555 1_555
H59_7 C126_7 1_555 1_555
H60_7 C127_7 1_555 1_555
H61_7 C128_7 1_555 1_555
H63_7 C130_7 1_555 1_555
H64_7 C131_7 1_555 1_555
H66_7 C133_7 1_555 1_555
H67_7 C134_7 1_555 1_555
C136_7 C125_7 1_555 1_555
C137_7 C126_7 1_555 1_555
C138_7 C127_7 1_555 1_555
C139_7 C128_7 1_555 1_555
C141_7 C130_7 1_555 1_555
C142_7 C131_7 1_555 1_555
C144_7 C133_7 1_555 1_555
C145_7 C134_7 1_555 1_555
H69_7 C136_7 1_555 1_555
H70_7 C137_7 1_555 1_555
H71_7 C138_7 1_555 1_555
H72_7 C139_7 1_555 1_555
H74_7 C141_7 1_555 1_555
H75_7 C142_7 1_555 1_555
H77_7 C144_7 1_555 1_555
H78_7 C145_7 1_555 1_555
H80_7 C136_7 1_555 1_555
H81_7 C137_7 1_555 1_555
H82_7 C138_7 1_555 1_555
H83_7 C139_7 1_555 1_555
H85_7 C141_7 1_555 1_555
H86_7 C142_7 1_555 1_555
H88_7 C144_7 1_555 1_555
H89_7 C145_7 1_555 1_555
H91_7 C136_7 1_555 1_555
H92_7 C137_7 1_555 1_555
H93_7 C138_7 1_555 1_555
H94_7 C139_7 1_555 1_555
H96_7 C141_7 1_555 1_555
H97_7 C142_7 1_555 1_555
H99_7 C144_7 1_555 1_555
H100_7 C145_7 1_555 1_555
C147_7 C92_7 1_555 1_555
C148_7 C93_7 1_555 1_555
C149_7 C94_7 1_555 1_555
C150_7 C95_7 1_555 1_555
C152_7 C97_7 1_555 1_555
C153_7 C98_7 1_555 1_555
C155_7 C100_7 1_555 1_555
C156_7 C101_7 1_555 1_555
H102_7 C147_7 1_555 1_555
H103_7 C148_7 1_555 1_555
H104_7 C149_7 1_555 1_555
H105_7 C150_7 1_555 1_555
H107_7 C152_7 1_555 1_555
H108_7 C153_7 1_555 1_555
H110_7 C155_7 1_555 1_555
H111_7 C156_7 1_555 1_555
H113_7 C147_7 1_555 1_555
H114_7 C148_7 1_555 1_555
H115_7 C149_7 1_555 1_555
H116_7 C150_7 1_555 1_555
H118_7 C152_7 1_555 1_555
H119_7 C153_7 1_555 1_555
H121_7 C155_7 1_555 1_555
H122_7 C156_7 1_555 1_555
C158_7 C147_7 1_555 1_555
C159_7 C148_7 1_555 1_555
C160_7 C149_7 1_555 1_555
C161_7 C150_7 1_555 1_555
C163_7 C152_7 1_555 1_555
C164_7 C153_7 1_555 1_555
C166_7 C155_7 1_555 1_555
C167_7 C156_7 1_555 1_555
H124_7 C158_7 1_555 1_555
H125_7 C159_7 1_555 1_555
H126_7 C160_7 1_555 1_555
H127_7 C161_7 1_555 1_555
H129_7 C163_7 1_555 1_555
H130_7 C164_7 1_555 1_555
H132_7 C166_7 1_555 1_555
H133_7 C167_7 1_555 1_555
H135_7 C158_7 1_555 1_555
H136_7 C159_7 1_555 1_555
H137_7 C160_7 1_555 1_555
H138_7 C161_7 1_555 1_555
H140_7 C163_7 1_555 1_555
H141_7 C164_7 1_555 1_555
H143_7 C166_7 1_555 1_555
H144_7 C167_7 1_555 1_555
H146_7 C158_7 1_555 1_555
H147_7 C159_7 1_555 1_555
H148_7 C160_7 1_555 1_555
H149_7 C161_7 1_555 1_555
H151_7 C163_7 1_555 1_555
H152_7 C164_7 1_555 1_555
H154_7 C166_7 1_555 1_555
H155_7 C167_7 1_555 1_555
O35_10 Pb2_7 1_555 1_555
O36_10 Pb8_8 1_555 1_555
O37_10 Pb7_8 1_555 1_555
O3_10 Pb2_7 1_555 1_555
C6_7 C7_7 1_555 1_555
C9_7 C10_7 1_555 1_555
Pb2_7 O21_6 1_555 1_555
Pb8_8 O22_7 1_555 1_555
Pb7_8 O23_6 1_555 1_555
Pb7_8 O24_7 1_555 1_555
Pb7_8 O25_7 1_555 1_555
Pb16_8 O28_7 1_555 1_555
Pb10_4 O31_7 1_555 1_555
O24_7 C15_7 1_555 1_555
O25_7 C16_7 1_555 1_555
C59_7 C114_7 1_555 1_555
C70_7 C84_7 1_555 1_555
C71_7 C85_7 1_555 1_555
C72_7 C81_7 1_555 1_555
C73_7 C82_7 1_555 1_555
C75_7 C86_7 1_555 1_555
C76_7 C87_7 1_555 1_555
C78_7 C89_7 1_555 1_555
C79_7 C90_7 1_555 1_555
C92_7 C103_7 1_555 1_555
C103_7 C115_7 1_555 1_555
C104_7 C114_7 1_555 1_555
C104_7 C115_7 1_555 1_555
C105_7 C116_7 1_555 1_555
C105_7 C119_7 1_555 1_555
C106_7 C117_7 1_555 1_555
C106_7 C120_7 1_555 1_555
C108_7 C116_7 1_555 1_555
C108_7 C122_7 1_555 1_555
C109_7 C117_7 1_555 1_555
C109_7 C123_7 1_555 1_555
C111_7 C119_7 1_555 1_555
C111_7 C122_7 1_555 1_555
C112_7 C120_7 1_555 1_555
C112_7 C123_7 1_555 1_555
Pb18_7 O1_8 1_555 1_555
O1_8 C1_8 1_555 1_555
O2_8 Pb18_7 1_555 1_555
O3_11 Pb18_7 1_555 1_555
C1_8 O2_8 1_555 1_555
C2_8 C1_8 1_555 1_555
C3_8 C2_8 1_555 1_555
H1_8 C3_8 1_555 1_555
C4_8 C3_8 1_555 1_555
C5_8 C4_8 1_555 1_555
C6_8 C5_8 1_555 1_555
H2_8 C6_8 1_555 1_555
C7_8 C2_8 1_555 1_555
H3_8 C7_8 1_555 1_555
C8_8 C4_8 1_555 1_555
C9_8 C8_8 1_555 1_555
C10_8 C5_8 1_555 1_555
C11_8 C8_8 1_555 1_555
H4_8 C11_8 1_555 1_555
H5_8 C11_8 1_555 1_555
C12_8 C11_8 1_555 1_555
H6_8 C12_8 1_555 1_555
H7_8 C12_8 1_555 1_555
H8_8 C12_8 1_555 1_555
C13_8 C8_8 1_555 1_555
H9_8 C13_8 1_555 1_555
H10_8 C13_8 1_555 1_555
C14_8 C13_8 1_555 1_555
H11_8 C14_8 1_555 1_555
H12_8 C14_8 1_555 1_555
H13_8 C14_8 1_555 1_555
O4_11 Pb18_7 1_555 1_555
Pb2_8 O2_8 1_555 1_555
Pb8_7 O3_11 1_555 1_555
Pb7_7 O3_11 1_555 1_555
Pb10_7 O12_7 1_555 1_555
Pb6_10 O27_7 1_555 1_555
Pb11_3 O13_8 1_555 1_555
Pb9_6 O14_8 1_555 1_555
Pb5_6 O29_8 1_555 1_555
Pb6_5 O15_8 1_555 1_555
Pb16_4 O30_8 1_555 1_555
Pb5_5 O16_8 1_555 1_555
O5_7 Pb18_7 1_555 1_555
O6_7 Pb2_8 1_555 1_555
O7_8 Pb2_8 1_555 1_555
O9_8 Pb8_7 1_555 1_555
O10_8 Pb7_7 1_555 1_555
O12_7 C18_8 1_555 1_555
O13_8 C19_8 1_555 1_555
O14_8 C20_8 1_555 1_555
O15_8 C21_8 1_555 1_555
O16_8 C22_8 1_555 1_555
O5_5 C23_8 1_555 1_555
O21_7 Pb18_7 1_555 1_555
O22_8 Pb18_7 1_555 1_555
O23_7 Pb2_8 1_555 1_555
O24_8 Pb2_8 1_555 1_555
O25_8 Pb8_7 1_555 1_555
O27_7 Pb10_7 1_555 1_555
O28_8 Pb11_3 1_555 1_555
O29_8 Pb9_6 1_555 1_555
O30_8 Pb6_5 1_555 1_555
O31_8 Pb6_5 1_555 1_555
C15_8 O7_8 1_555 1_555
C16_8 O10_8 1_555 1_555
C18_8 O27_7 1_555 1_555
C19_8 O28_8 1_555 1_555
C20_8 O29_8 1_555 1_555
C21_8 O30_8 1_555 1_555
C22_8 O31_8 1_555 1_555
C23_8 O21_5 1_555 1_555
C26_8 C15_8 1_555 1_555
C27_8 C16_8 1_555 1_555
C29_8 C18_8 1_555 1_555
C30_8 C19_8 1_555 1_555
C31_8 C20_8 1_555 1_555
C32_8 C21_8 1_555 1_555
C33_8 C22_8 1_555 1_555
C34_8 C23_8 1_555 1_555
C37_8 C26_8 1_555 1_555
C38_8 C27_8 1_555 1_555
C40_8 C29_8 1_555 1_555
C41_8 C30_8 1_555 1_555
C42_8 C31_8 1_555 1_555
C43_8 C32_8 1_555 1_555
C44_8 C33_8 1_555 1_555
C45_8 C34_8 1_555 1_555
H14_8 C37_8 1_555 1_555
H15_8 C38_8 1_555 1_555
H17_8 C40_8 1_555 1_555
H18_8 C41_8 1_555 1_555
H19_8 C42_8 1_555 1_555
H20_8 C43_8 1_555 1_555
H21_8 C44_8 1_555 1_555
H22_8 C45_8 1_555 1_555
C48_8 C40_8 1_555 1_555
C49_8 C41_8 1_555 1_555
C50_8 C37_8 1_555 1_555
C51_8 C38_8 1_555 1_555
C53_8 C42_8 1_555 1_555
C54_8 C43_8 1_555 1_555
C55_8 C44_8 1_555 1_555
C56_8 C45_8 1_555 1_555
C59_8 C48_8 1_555 1_555
C60_8 C49_8 1_555 1_555
C61_8 C50_8 1_555 1_555
C62_8 C51_8 1_555 1_555
C64_8 C54_8 1_555 1_555
C65_8 C56_8 1_555 1_555
C67_8 C53_8 1_555 1_555
C68_8 C55_8 1_555 1_555
C70_8 C59_8 1_555 1_555
C71_8 C60_8 1_555 1_555
C72_8 C61_8 1_555 1_555
C73_8 C62_8 1_555 1_555
C75_8 C64_8 1_555 1_555
C76_8 C65_8 1_555 1_555
C78_8 C67_8 1_555 1_555
C79_8 C68_8 1_555 1_555
H25_8 C70_8 1_555 1_555
H26_8 C71_8 1_555 1_555
H27_8 C72_8 1_555 1_555
H28_8 C73_8 1_555 1_555
H30_8 C75_8 1_555 1_555
H31_8 C76_8 1_555 1_555
H33_8 C78_8 1_555 1_555
H34_8 C79_8 1_555 1_555
C81_8 C26_8 1_555 1_555
C82_8 C27_8 1_555 1_555
C84_8 C29_8 1_555 1_555
C85_8 C30_8 1_555 1_555
C86_8 C32_8 1_555 1_555
C87_8 C34_8 1_555 1_555
C89_8 C31_8 1_555 1_555
C90_8 C33_8 1_555 1_555
H36_8 C81_8 1_555 1_555
H37_8 C82_8 1_555 1_555
H39_8 C84_8 1_555 1_555
H40_8 C85_8 1_555 1_555
H41_8 C86_8 1_555 1_555
H42_8 C87_8 1_555 1_555
H44_8 C89_8 1_555 1_555
H45_8 C90_8 1_555 1_555
C92_8 C49_8 1_555 1_555
C93_8 C48_8 1_555 1_555
C94_8 C50_8 1_555 1_555
C95_8 C51_8 1_555 1_555
C97_8 C53_8 1_555 1_555
C98_8 C55_8 1_555 1_555
C100_8 C54_8 1_555 1_555
C101_8 C56_8 1_555 1_555
C103_8 C10_8 1_555 1_555
C104_8 C93_8 1_555 1_555
C105_8 C94_8 1_555 1_555
C106_8 C95_8 1_555 1_555
C108_8 C97_8 1_555 1_555
C109_8 C98_8 1_555 1_555
C111_8 C100_8 1_555 1_555
C112_8 C101_8 1_555 1_555
C114_8 C9_8 1_555 1_555
C115_8 C60_8 1_555 1_555
C116_8 C61_8 1_555 1_555
C117_8 C62_8 1_555 1_555
C119_8 C64_8 1_555 1_555
C120_8 C65_8 1_555 1_555
C122_8 C67_8 1_555 1_555
C123_8 C68_8 1_555 1_555
C125_8 C92_8 1_555 1_555
C126_8 C93_8 1_555 1_555
C127_8 C94_8 1_555 1_555
C128_8 C95_8 1_555 1_555
C130_8 C97_8 1_555 1_555
C131_8 C98_8 1_555 1_555
C133_8 C100_8 1_555 1_555
C134_8 C101_8 1_555 1_555
H47_8 C125_8 1_555 1_555
H48_8 C126_8 1_555 1_555
H49_8 C127_8 1_555 1_555
H50_8 C128_8 1_555 1_555
H52_8 C130_8 1_555 1_555
H53_8 C131_8 1_555 1_555
H55_8 C133_8 1_555 1_555
H56_8 C134_8 1_555 1_555
H58_8 C125_8 1_555 1_555
H59_8 C126_8 1_555 1_555
H60_8 C127_8 1_555 1_555
H61_8 C128_8 1_555 1_555
H63_8 C130_8 1_555 1_555
H64_8 C131_8 1_555 1_555
H66_8 C133_8 1_555 1_555
H67_8 C134_8 1_555 1_555
C136_8 C125_8 1_555 1_555
C137_8 C126_8 1_555 1_555
C138_8 C127_8 1_555 1_555
C139_8 C128_8 1_555 1_555
C141_8 C130_8 1_555 1_555
C142_8 C131_8 1_555 1_555
C144_8 C133_8 1_555 1_555
C145_8 C134_8 1_555 1_555
H69_8 C136_8 1_555 1_555
H70_8 C137_8 1_555 1_555
H71_8 C138_8 1_555 1_555
H72_8 C139_8 1_555 1_555
H74_8 C141_8 1_555 1_555
H75_8 C142_8 1_555 1_555
H77_8 C144_8 1_555 1_555
H78_8 C145_8 1_555 1_555
H80_8 C136_8 1_555 1_555
H81_8 C137_8 1_555 1_555
H82_8 C138_8 1_555 1_555
H83_8 C139_8 1_555 1_555
H85_8 C141_8 1_555 1_555
H86_8 C142_8 1_555 1_555
H88_8 C144_8 1_555 1_555
H89_8 C145_8 1_555 1_555
H91_8 C136_8 1_555 1_555
H92_8 C137_8 1_555 1_555
H93_8 C138_8 1_555 1_555
H94_8 C139_8 1_555 1_555
H96_8 C141_8 1_555 1_555
H97_8 C142_8 1_555 1_555
H99_8 C144_8 1_555 1_555
H100_8 C145_8 1_555 1_555
C147_8 C92_8 1_555 1_555
C148_8 C93_8 1_555 1_555
C149_8 C94_8 1_555 1_555
C150_8 C95_8 1_555 1_555
C152_8 C97_8 1_555 1_555
C153_8 C98_8 1_555 1_555
C155_8 C100_8 1_555 1_555
C156_8 C101_8 1_555 1_555
H102_8 C147_8 1_555 1_555
H103_8 C148_8 1_555 1_555
H104_8 C149_8 1_555 1_555
H105_8 C150_8 1_555 1_555
H107_8 C152_8 1_555 1_555
H108_8 C153_8 1_555 1_555
H110_8 C155_8 1_555 1_555
H111_8 C156_8 1_555 1_555
H113_8 C147_8 1_555 1_555
H114_8 C148_8 1_555 1_555
H115_8 C149_8 1_555 1_555
H116_8 C150_8 1_555 1_555
H118_8 C152_8 1_555 1_555
H119_8 C153_8 1_555 1_555
H121_8 C155_8 1_555 1_555
H122_8 C156_8 1_555 1_555
C158_8 C147_8 1_555 1_555
C159_8 C148_8 1_555 1_555
C160_8 C149_8 1_555 1_555
C161_8 C150_8 1_555 1_555
C163_8 C152_8 1_555 1_555
C164_8 C153_8 1_555 1_555
C166_8 C155_8 1_555 1_555
C167_8 C156_8 1_555 1_555
H124_8 C158_8 1_555 1_555
H125_8 C159_8 1_555 1_555
H126_8 C160_8 1_555 1_555
H127_8 C161_8 1_555 1_555
H129_8 C163_8 1_555 1_555
H130_8 C164_8 1_555 1_555
H132_8 C166_8 1_555 1_555
H133_8 C167_8 1_555 1_555
H135_8 C158_8 1_555 1_555
H136_8 C159_8 1_555 1_555
H137_8 C160_8 1_555 1_555
H138_8 C161_8 1_555 1_555
H140_8 C163_8 1_555 1_555
H141_8 C164_8 1_555 1_555
H143_8 C166_8 1_555 1_555
H144_8 C167_8 1_555 1_555
H146_8 C158_8 1_555 1_555
H147_8 C159_8 1_555 1_555
H148_8 C160_8 1_555 1_555
H149_8 C161_8 1_555 1_555
H151_8 C163_8 1_555 1_555
H152_8 C164_8 1_555 1_555
H154_8 C166_8 1_555 1_555
H155_8 C167_8 1_555 1_555
O35_11 Pb2_8 1_555 1_555
O36_11 Pb8_7 1_555 1_555
O37_11 Pb7_7 1_555 1_555
O3_11 Pb2_8 1_555 1_555
C6_8 C7_8 1_555 1_555
C9_8 C10_8 1_555 1_555
Pb2_8 O21_7 1_555 1_555
Pb8_7 O22_8 1_555 1_555
Pb7_7 O23_7 1_555 1_555
Pb7_7 O24_8 1_555 1_555
Pb7_7 O25_8 1_555 1_555
Pb12_3 O28_8 1_555 1_555
Pb5_5 O31_8 1_555 1_555
O24_8 C15_8 1_555 1_555
O25_8 C16_8 1_555 1_555
C59_8 C114_8 1_555 1_555
C70_8 C84_8 1_555 1_555
C71_8 C85_8 1_555 1_555
C72_8 C81_8 1_555 1_555
C73_8 C82_8 1_555 1_555
C75_8 C86_8 1_555 1_555
C76_8 C87_8 1_555 1_555
C78_8 C89_8 1_555 1_555
C79_8 C90_8 1_555 1_555
C92_8 C103_8 1_555 1_555
C103_8 C115_8 1_555 1_555
C104_8 C114_8 1_555 1_555
C104_8 C115_8 1_555 1_555
C105_8 C116_8 1_555 1_555
C105_8 C119_8 1_555 1_555
C106_8 C117_8 1_555 1_555
C106_8 C120_8 1_555 1_555
C108_8 C116_8 1_555 1_555
C108_8 C122_8 1_555 1_555
C109_8 C117_8 1_555 1_555
C109_8 C123_8 1_555 1_555
C111_8 C119_8 1_555 1_555
C111_8 C122_8 1_555 1_555
C112_8 C120_8 1_555 1_555
C112_8 C123_8 1_555 1_555
Pb1_8 O1_9 1_555 1_555
O1_9 C1_9 1_555 1_555
O2_9 Pb1_8 1_555 1_555
O3_12 Pb1_8 1_555 1_555
C1_9 O2_9 1_555 1_555
C2_9 C1_9 1_555 1_555
C3_9 C2_9 1_555 1_555
H1_9 C3_9 1_555 1_555
C4_9 C3_9 1_555 1_555
C5_9 C4_9 1_555 1_555
C6_9 C5_9 1_555 1_555
H2_9 C6_9 1_555 1_555
C7_9 C2_9 1_555 1_555
H3_9 C7_9 1_555 1_555
C8_9 C4_9 1_555 1_555
C9_9 C8_9 1_555 1_555
C10_9 C5_9 1_555 1_555
C11_9 C8_9 1_555 1_555
H4_9 C11_9 1_555 1_555
H5_9 C11_9 1_555 1_555
C12_9 C11_9 1_555 1_555
H6_9 C12_9 1_555 1_555
H7_9 C12_9 1_555 1_555
H8_9 C12_9 1_555 1_555
C13_9 C8_9 1_555 1_555
H9_9 C13_9 1_555 1_555
H10_9 C13_9 1_555 1_555
C14_9 C13_9 1_555 1_555
H11_9 C14_9 1_555 1_555
H12_9 C14_9 1_555 1_555
H13_9 C14_9 1_555 1_555
O4_12 Pb1_8 1_555 1_555
Pb5_3 O2_9 1_555 1_555
Pb3_10 O3_12 1_555 1_555
Pb6_3 O3_12 1_555 1_555
Pb7_10 O13_9 1_555 1_555
Pb8_9 O19_7 1_555 1_555
Pb18_4 O14_9 1_555 1_555
Pb10_10 O29_9 1_555 1_555
Pb6_6 O15_9 1_555 1_555
Pb12_6 O30_9 1_555 1_555
Pb10_5 O16_9 1_555 1_555
Pb12_2 O18_7 1_555 1_555
Pb9 O33_7 1_555 1_555
Pb14_3 O34_7 1_555 1_555
O5_8 Pb1_8 1_555 1_555
O7_9 Pb5_3 1_555 1_555
O8_7 Pb3_10 1_555 1_555
O9_9 Pb3_10 1_555 1_555
O10_9 Pb6_3 1_555 1_555
O11_7 Pb6_3 1_555 1_555
O6_3 C18_9 1_555 1_555
O13_9 C19_9 1_555 1_555
O14_9 C20_9 1_555 1_555
O15_9 C21_9 1_555 1_555
O16_9 C22_9 1_555 1_555
O5_4 C23_9 1_555 1_555
O18_7 C24_7 1_555 1_555
O19_7 C25_7 1_555 1_555
O20_7 Pb1_8 1_555 1_555
O21_8 Pb1_8 1_555 1_555
O22_9 Pb1_8 1_555 1_555
O24_9 Pb5_3 1_555 1_555
O25_9 Pb3_10 1_555 1_555
O26_7 Pb3_10 1_555 1_555
O28_9 Pb7_10 1_555 1_555
O29_9 Pb18_4 1_555 1_555
O30_9 Pb6_6 1_555 1_555
O31_9 Pb6_6 1_555 1_555
O33_7 Pb12_2 1_555 1_555
O34_7 Pb8_9 1_555 1_555
C15_9 O7_9 1_555 1_555
C16_9 O10_9 1_555 1_555
C17_7 O8_7 1_555 1_555
C18_9 O23_3 1_555 1_555
C19_9 O28_9 1_555 1_555
C20_9 O29_9 1_555 1_555
C21_9 O30_9 1_555 1_555
C22_9 O31_9 1_555 1_555
C23_9 O21_4 1_555 1_555
C24_7 O33_7 1_555 1_555
C25_7 O34_7 1_555 1_555
C26_9 C15_9 1_555 1_555
C27_9 C16_9 1_555 1_555
C28_7 C17_7 1_555 1_555
C29_9 C18_9 1_555 1_555
C30_9 C19_9 1_555 1_555
C31_9 C20_9 1_555 1_555
C32_9 C21_9 1_555 1_555
C33_9 C22_9 1_555 1_555
C34_9 C23_9 1_555 1_555
C35_7 C24_7 1_555 1_555
C36_7 C25_7 1_555 1_555
C37_9 C26_9 1_555 1_555
C38_9 C27_9 1_555 1_555
C39_7 C28_7 1_555 1_555
C40_9 C29_9 1_555 1_555
C41_9 C30_9 1_555 1_555
C42_9 C31_9 1_555 1_555
C43_9 C32_9 1_555 1_555
C44_9 C33_9 1_555 1_555
C45_9 C34_9 1_555 1_555
C46_7 C35_7 1_555 1_555
C47_7 C36_7 1_555 1_555
H14_9 C37_9 1_555 1_555
H15_9 C38_9 1_555 1_555
H16_7 C39_7 1_555 1_555
H17_9 C40_9 1_555 1_555
H18_9 C41_9 1_555 1_555
H19_9 C42_9 1_555 1_555
H20_9 C43_9 1_555 1_555
H21_9 C44_9 1_555 1_555
H22_9 C45_9 1_555 1_555
H23_7 C46_7 1_555 1_555
H24_7 C47_7 1_555 1_555
C48_9 C40_9 1_555 1_555
C49_9 C41_9 1_555 1_555
C50_9 C37_9 1_555 1_555
C51_9 C38_9 1_555 1_555
C52_7 C39_7 1_555 1_555
C53_9 C42_9 1_555 1_555
C54_9 C43_9 1_555 1_555
C55_9 C44_9 1_555 1_555
C56_9 C45_9 1_555 1_555
C57_7 C46_7 1_555 1_555
C58_7 C47_7 1_555 1_555
C59_9 C48_9 1_555 1_555
C60_9 C49_9 1_555 1_555
C61_9 C50_9 1_555 1_555
C62_9 C51_9 1_555 1_555
C63_7 C52_7 1_555 1_555
C64_9 C54_9 1_555 1_555
C65_9 C56_9 1_555 1_555
C66_7 C58_7 1_555 1_555
C67_9 C53_9 1_555 1_555
C68_9 C55_9 1_555 1_555
C69_7 C57_7 1_555 1_555
C70_9 C59_9 1_555 1_555
C71_9 C60_9 1_555 1_555
C72_9 C61_9 1_555 1_555
C73_9 C62_9 1_555 1_555
C74_7 C63_7 1_555 1_555
C75_9 C64_9 1_555 1_555
C76_9 C65_9 1_555 1_555
C77_7 C66_7 1_555 1_555
C78_9 C67_9 1_555 1_555
C79_9 C68_9 1_555 1_555
C80_7 C69_7 1_555 1_555
H25_9 C70_9 1_555 1_555
H26_9 C71_9 1_555 1_555
H27_9 C72_9 1_555 1_555
H28_9 C73_9 1_555 1_555
H29_7 C74_7 1_555 1_555
H30_9 C75_9 1_555 1_555
H31_9 C76_9 1_555 1_555
H32_7 C77_7 1_555 1_555
H33_9 C78_9 1_555 1_555
H34_9 C79_9 1_555 1_555
H35_7 C80_7 1_555 1_555
C81_9 C26_9 1_555 1_555
C82_9 C27_9 1_555 1_555
C83_7 C28_7 1_555 1_555
C84_9 C29_9 1_555 1_555
C85_9 C30_9 1_555 1_555
C86_9 C32_9 1_555 1_555
C87_9 C34_9 1_555 1_555
C88_7 C36_7 1_555 1_555
C89_9 C31_9 1_555 1_555
C90_9 C33_9 1_555 1_555
C91_7 C35_7 1_555 1_555
H36_9 C81_9 1_555 1_555
H37_9 C82_9 1_555 1_555
H38_7 C83_7 1_555 1_555
H39_9 C84_9 1_555 1_555
H40_9 C85_9 1_555 1_555
H41_9 C86_9 1_555 1_555
H42_9 C87_9 1_555 1_555
H43_7 C88_7 1_555 1_555
H44_9 C89_9 1_555 1_555
H45_9 C90_9 1_555 1_555
H46_7 C91_7 1_555 1_555
C92_9 C49_9 1_555 1_555
C93_9 C48_9 1_555 1_555
C94_9 C50_9 1_555 1_555
C95_9 C51_9 1_555 1_555
C96_7 C52_7 1_555 1_555
C97_9 C53_9 1_555 1_555
C98_9 C55_9 1_555 1_555
C99_7 C57_7 1_555 1_555
C100_9 C54_9 1_555 1_555
C101_9 C56_9 1_555 1_555
C102_7 C58_7 1_555 1_555
C103_9 C10_9 1_555 1_555
C104_9 C93_9 1_555 1_555
C105_9 C94_9 1_555 1_555
C106_9 C95_9 1_555 1_555
C107_7 C96_7 1_555 1_555
C108_9 C97_9 1_555 1_555
C109_9 C98_9 1_555 1_555
C110_7 C99_7 1_555 1_555
C111_9 C100_9 1_555 1_555
C112_9 C101_9 1_555 1_555
C113_7 C102_7 1_555 1_555
C114_9 C9_9 1_555 1_555
C115_9 C60_9 1_555 1_555
C116_9 C61_9 1_555 1_555
C117_9 C62_9 1_555 1_555
C118_7 C63_7 1_555 1_555
C119_9 C64_9 1_555 1_555
C120_9 C65_9 1_555 1_555
C121_7 C66_7 1_555 1_555
C122_9 C67_9 1_555 1_555
C123_9 C68_9 1_555 1_555
C124_7 C69_7 1_555 1_555
C125_9 C92_9 1_555 1_555
C126_9 C93_9 1_555 1_555
C127_9 C94_9 1_555 1_555
C128_9 C95_9 1_555 1_555
C129_7 C96_7 1_555 1_555
C130_9 C97_9 1_555 1_555
C131_9 C98_9 1_555 1_555
C132_7 C99_7 1_555 1_555
C133_9 C100_9 1_555 1_555
C134_9 C101_9 1_555 1_555
C135_7 C102_7 1_555 1_555
H47_9 C125_9 1_555 1_555
H48_9 C126_9 1_555 1_555
H49_9 C127_9 1_555 1_555
H50_9 C128_9 1_555 1_555
H51_7 C129_7 1_555 1_555
H52_9 C130_9 1_555 1_555
H53_9 C131_9 1_555 1_555
H54_7 C132_7 1_555 1_555
H55_9 C133_9 1_555 1_555
H56_9 C134_9 1_555 1_555
H57_7 C135_7 1_555 1_555
H58_9 C125_9 1_555 1_555
H59_9 C126_9 1_555 1_555
H60_9 C127_9 1_555 1_555
H61_9 C128_9 1_555 1_555
H62_7 C129_7 1_555 1_555
H63_9 C130_9 1_555 1_555
H64_9 C131_9 1_555 1_555
H65_7 C132_7 1_555 1_555
H66_9 C133_9 1_555 1_555
H67_9 C134_9 1_555 1_555
H68_7 C135_7 1_555 1_555
C136_9 C125_9 1_555 1_555
C137_9 C126_9 1_555 1_555
C138_9 C127_9 1_555 1_555
C139_9 C128_9 1_555 1_555
C140_7 C129_7 1_555 1_555
C141_9 C130_9 1_555 1_555
C142_9 C131_9 1_555 1_555
C143_7 C132_7 1_555 1_555
C144_9 C133_9 1_555 1_555
C145_9 C134_9 1_555 1_555
C146_7 C135_7 1_555 1_555
H69_9 C136_9 1_555 1_555
H70_9 C137_9 1_555 1_555
H71_9 C138_9 1_555 1_555
H72_9 C139_9 1_555 1_555
H73_7 C140_7 1_555 1_555
H74_9 C141_9 1_555 1_555
H75_9 C142_9 1_555 1_555
H76_7 C143_7 1_555 1_555
H77_9 C144_9 1_555 1_555
H78_9 C145_9 1_555 1_555
H79_7 C146_7 1_555 1_555
H80_9 C136_9 1_555 1_555
H81_9 C137_9 1_555 1_555
H82_9 C138_9 1_555 1_555
H83_9 C139_9 1_555 1_555
H84_7 C140_7 1_555 1_555
H85_9 C141_9 1_555 1_555
H86_9 C142_9 1_555 1_555
H87_7 C143_7 1_555 1_555
H88_9 C144_9 1_555 1_555
H89_9 C145_9 1_555 1_555
H90_7 C146_7 1_555 1_555
H91_9 C136_9 1_555 1_555
H92_9 C137_9 1_555 1_555
H93_9 C138_9 1_555 1_555
H94_9 C139_9 1_555 1_555
H95_7 C140_7 1_555 1_555
H96_9 C141_9 1_555 1_555
H97_9 C142_9 1_555 1_555
H98_7 C143_7 1_555 1_555
H99_9 C144_9 1_555 1_555
H100_9 C145_9 1_555 1_555
H101_7 C146_7 1_555 1_555
C147_9 C92_9 1_555 1_555
C148_9 C93_9 1_555 1_555
C149_9 C94_9 1_555 1_555
C150_9 C95_9 1_555 1_555
C151_7 C96_7 1_555 1_555
C152_9 C97_9 1_555 1_555
C153_9 C98_9 1_555 1_555
C154_7 C99_7 1_555 1_555
C155_9 C100_9 1_555 1_555
C156_9 C101_9 1_555 1_555
C157_7 C102_7 1_555 1_555
H102_9 C147_9 1_555 1_555
H103_9 C148_9 1_555 1_555
H104_9 C149_9 1_555 1_555
H105_9 C150_9 1_555 1_555
H106_7 C151_7 1_555 1_555
H107_9 C152_9 1_555 1_555
H108_9 C153_9 1_555 1_555
H109_7 C154_7 1_555 1_555
H110_9 C155_9 1_555 1_555
H111_9 C156_9 1_555 1_555
H112_7 C157_7 1_555 1_555
H113_9 C147_9 1_555 1_555
H114_9 C148_9 1_555 1_555
H115_9 C149_9 1_555 1_555
H116_9 C150_9 1_555 1_555
H117_7 C151_7 1_555 1_555
H118_9 C152_9 1_555 1_555
H119_9 C153_9 1_555 1_555
H120_7 C154_7 1_555 1_555
H121_9 C155_9 1_555 1_555
H122_9 C156_9 1_555 1_555
H123_7 C157_7 1_555 1_555
C158_9 C147_9 1_555 1_555
C159_9 C148_9 1_555 1_555
C160_9 C149_9 1_555 1_555
C161_9 C150_9 1_555 1_555
C162_7 C151_7 1_555 1_555
C163_9 C152_9 1_555 1_555
C164_9 C153_9 1_555 1_555
C165_7 C154_7 1_555 1_555
C166_9 C155_9 1_555 1_555
C167_9 C156_9 1_555 1_555
C168_7 C157_7 1_555 1_555
H124_9 C158_9 1_555 1_555
H125_9 C159_9 1_555 1_555
H126_9 C160_9 1_555 1_555
H127_9 C161_9 1_555 1_555
H128_7 C162_7 1_555 1_555
H129_9 C163_9 1_555 1_555
H130_9 C164_9 1_555 1_555
H131_7 C165_7 1_555 1_555
H132_9 C166_9 1_555 1_555
H133_9 C167_9 1_555 1_555
H134_7 C168_7 1_555 1_555
H135_9 C158_9 1_555 1_555
H136_9 C159_9 1_555 1_555
H137_9 C160_9 1_555 1_555
H138_9 C161_9 1_555 1_555
H139_7 C162_7 1_555 1_555
H140_9 C163_9 1_555 1_555
H141_9 C164_9 1_555 1_555
H142_7 C165_7 1_555 1_555
H143_9 C166_9 1_555 1_555
H144_9 C167_9 1_555 1_555
H145_7 C168_7 1_555 1_555
H146_9 C158_9 1_555 1_555
H147_9 C159_9 1_555 1_555
H148_9 C160_9 1_555 1_555
H149_9 C161_9 1_555 1_555
H150_7 C162_7 1_555 1_555
H151_9 C163_9 1_555 1_555
H152_9 C164_9 1_555 1_555
H153_7 C165_7 1_555 1_555
H154_9 C166_9 1_555 1_555
H155_9 C167_9 1_555 1_555
H156_7 C168_7 1_555 1_555
O35_12 Pb5_3 1_555 1_555
O36_12 Pb3_10 1_555 1_555
O37_12 Pb6_3 1_555 1_555
O3_12 Pb5_3 1_555 1_555
C6_9 C7_9 1_555 1_555
C9_9 C10_9 1_555 1_555
Pb5_3 O21_8 1_555 1_555
Pb3_10 O20_7 1_555 1_555
Pb3_10 O22_9 1_555 1_555
Pb6_3 O24_9 1_555 1_555
Pb6_3 O25_9 1_555 1_555
Pb6_3 O26_7 1_555 1_555
Pb8_9 O28_9 1_555 1_555
Pb10_5 O31_9 1_555 1_555
O20_7 C17_7 1_555 1_555
O24_9 C15_9 1_555 1_555
O25_9 C16_9 1_555 1_555
C59_9 C114_9 1_555 1_555
C70_9 C84_9 1_555 1_555
C71_9 C85_9 1_555 1_555
C72_9 C81_9 1_555 1_555
C73_9 C82_9 1_555 1_555
C74_7 C83_7 1_555 1_555
C75_9 C86_9 1_555 1_555
C76_9 C87_9 1_555 1_555
C77_7 C88_7 1_555 1_555
C78_9 C89_9 1_555 1_555
C79_9 C90_9 1_555 1_555
C80_7 C91_7 1_555 1_555
C92_9 C103_9 1_555 1_555
C103_9 C115_9 1_555 1_555
C104_9 C114_9 1_555 1_555
C104_9 C115_9 1_555 1_555
C105_9 C116_9 1_555 1_555
C105_9 C119_9 1_555 1_555
C106_9 C117_9 1_555 1_555
C106_9 C120_9 1_555 1_555
C107_7 C118_7 1_555 1_555
C107_7 C121_7 1_555 1_555
C108_9 C116_9 1_555 1_555
C108_9 C122_9 1_555 1_555
C109_9 C117_9 1_555 1_555
C109_9 C123_9 1_555 1_555
C110_7 C118_7 1_555 1_555
C110_7 C124_7 1_555 1_555
C111_9 C119_9 1_555 1_555
C111_9 C122_9 1_555 1_555
C112_9 C120_9 1_555 1_555
C112_9 C123_9 1_555 1_555
C113_7 C121_7 1_555 1_555
C113_7 C124_7 1_555 1_555
Pb14_3 O1_10 1_555 1_555
O1_10 C1_10 1_555 1_555
O2_10 Pb14_3 1_555 1_555
O3_13 Pb14_3 1_555 1_555
C1_10 O2_10 1_555 1_555
C2_10 C1_10 1_555 1_555
C3_10 C2_10 1_555 1_555
H1_10 C3_10 1_555 1_555
C4_10 C3_10 1_555 1_555
C5_10 C4_10 1_555 1_555
C6_10 C5_10 1_555 1_555
H2_10 C6_10 1_555 1_555
C7_10 C2_10 1_555 1_555
H3_10 C7_10 1_555 1_555
C8_10 C4_10 1_555 1_555
C9_10 C8_10 1_555 1_555
C10_10 C5_10 1_555 1_555
C11_10 C8_10 1_555 1_555
H4_10 C11_10 1_555 1_555
H5_10 C11_10 1_555 1_555
C12_10 C11_10 1_555 1_555
H6_10 C12_10 1_555 1_555
H7_10 C12_10 1_555 1_555
H8_10 C12_10 1_555 1_555
C13_10 C8_10 1_555 1_555
H9_10 C13_10 1_555 1_555
H10_10 C13_10 1_555 1_555
C14_10 C13_10 1_555 1_555
H11_10 C14_10 1_555 1_555
H12_10 C14_10 1_555 1_555
H13_10 C14_10 1_555 1_555
O4_13 Pb14_3 1_555 1_555
Pb15_3 O2_10 1_555 1_555
Pb8_9 O3_13 1_555 1_555
Pb7_10 O3_13 1_555 1_555
Pb13_4 O12_8 1_555 1_555
Pb11_6 O27_8 1_555 1_555
Pb11_2 O13_10 1_555 1_555
Pb9_8 O14_10 1_555 1_555
Pb13_2 O29_10 1_555 1_555
Pb6_11 O15_10 1_555 1_555
Pb16_2 O30_10 1_555 1_555
Pb10_8 O16_10 1_555 1_555
O6_8 Pb15_3 1_555 1_555
O7_10 Pb15_3 1_555 1_555
O9_10 Pb8_9 1_555 1_555
O10_10 Pb7_10 1_555 1_555
O12_8 C18_10 1_555 1_555
O13_10 C19_10 1_555 1_555
O14_10 C20_10 1_555 1_555
O15_10 C21_10 1_555 1_555
O16_10 C22_10 1_555 1_555
O5_6 C23_10 1_555 1_555
O22_10 Pb14_3 1_555 1_555
O23_8 Pb15_3 1_555 1_555
O24_10 Pb15_3 1_555 1_555
O25_10 Pb8_9 1_555 1_555
O27_8 Pb13_4 1_555 1_555
O28_10 Pb11_2 1_555 1_555
O29_10 Pb9_8 1_555 1_555
O30_10 Pb6_11 1_555 1_555
O31_10 Pb6_11 1_555 1_555
C15_10 O7_10 1_555 1_555
C16_10 O10_10 1_555 1_555
C18_10 O27_8 1_555 1_555
C19_10 O28_10 1_555 1_555
C20_10 O29_10 1_555 1_555
C21_10 O30_10 1_555 1_555
C22_10 O31_10 1_555 1_555
C23_10 O21_6 1_555 1_555
C26_10 C15_10 1_555 1_555
C27_10 C16_10 1_555 1_555
C29_10 C18_10 1_555 1_555
C30_10 C19_10 1_555 1_555
C31_10 C20_10 1_555 1_555
C32_10 C21_10 1_555 1_555
C33_10 C22_10 1_555 1_555
C34_10 C23_10 1_555 1_555
C37_10 C26_10 1_555 1_555
C38_10 C27_10 1_555 1_555
C40_10 C29_10 1_555 1_555
C41_10 C30_10 1_555 1_555
C42_10 C31_10 1_555 1_555
C43_10 C32_10 1_555 1_555
C44_10 C33_10 1_555 1_555
C45_10 C34_10 1_555 1_555
H14_10 C37_10 1_555 1_555
H15_10 C38_10 1_555 1_555
H17_10 C40_10 1_555 1_555
H18_10 C41_10 1_555 1_555
H19_10 C42_10 1_555 1_555
H20_10 C43_10 1_555 1_555
H21_10 C44_10 1_555 1_555
H22_10 C45_10 1_555 1_555
C48_10 C40_10 1_555 1_555
C49_10 C41_10 1_555 1_555
C50_10 C37_10 1_555 1_555
C51_10 C38_10 1_555 1_555
C53_10 C42_10 1_555 1_555
C54_10 C43_10 1_555 1_555
C55_10 C44_10 1_555 1_555
C56_10 C45_10 1_555 1_555
C59_10 C48_10 1_555 1_555
C60_10 C49_10 1_555 1_555
C61_10 C50_10 1_555 1_555
C62_10 C51_10 1_555 1_555
C64_10 C54_10 1_555 1_555
C65_10 C56_10 1_555 1_555
C67_10 C53_10 1_555 1_555
C68_10 C55_10 1_555 1_555
C70_10 C59_10 1_555 1_555
C71_10 C60_10 1_555 1_555
C72_10 C61_10 1_555 1_555
C73_10 C62_10 1_555 1_555
C75_10 C64_10 1_555 1_555
C76_10 C65_10 1_555 1_555
C78_10 C67_10 1_555 1_555
C79_10 C68_10 1_555 1_555
H25_10 C70_10 1_555 1_555
H26_10 C71_10 1_555 1_555
H27_10 C72_10 1_555 1_555
H28_10 C73_10 1_555 1_555
H30_10 C75_10 1_555 1_555
H31_10 C76_10 1_555 1_555
H33_10 C78_10 1_555 1_555
H34_10 C79_10 1_555 1_555
C81_10 C26_10 1_555 1_555
C82_10 C27_10 1_555 1_555
C84_10 C29_10 1_555 1_555
C85_10 C30_10 1_555 1_555
C86_10 C32_10 1_555 1_555
C87_10 C34_10 1_555 1_555
C89_10 C31_10 1_555 1_555
C90_10 C33_10 1_555 1_555
H36_10 C81_10 1_555 1_555
H37_10 C82_10 1_555 1_555
H39_10 C84_10 1_555 1_555
H40_10 C85_10 1_555 1_555
H41_10 C86_10 1_555 1_555
H42_10 C87_10 1_555 1_555
H44_10 C89_10 1_555 1_555
H45_10 C90_10 1_555 1_555
C92_10 C49_10 1_555 1_555
C93_10 C48_10 1_555 1_555
C94_10 C50_10 1_555 1_555
C95_10 C51_10 1_555 1_555
C97_10 C53_10 1_555 1_555
C98_10 C55_10 1_555 1_555
C100_10 C54_10 1_555 1_555
C101_10 C56_10 1_555 1_555
C103_10 C10_10 1_555 1_555
C104_10 C93_10 1_555 1_555
C105_10 C94_10 1_555 1_555
C106_10 C95_10 1_555 1_555
C108_10 C97_10 1_555 1_555
C109_10 C98_10 1_555 1_555
C111_10 C100_10 1_555 1_555
C112_10 C101_10 1_555 1_555
C114_10 C9_10 1_555 1_555
C115_10 C60_10 1_555 1_555
C116_10 C61_10 1_555 1_555
C117_10 C62_10 1_555 1_555
C119_10 C64_10 1_555 1_555
C120_10 C65_10 1_555 1_555
C122_10 C67_10 1_555 1_555
C123_10 C68_10 1_555 1_555
C125_10 C92_10 1_555 1_555
C126_10 C93_10 1_555 1_555
C127_10 C94_10 1_555 1_555
C128_10 C95_10 1_555 1_555
C130_10 C97_10 1_555 1_555
C131_10 C98_10 1_555 1_555
C133_10 C100_10 1_555 1_555
C134_10 C101_10 1_555 1_555
H47_10 C125_10 1_555 1_555
H48_10 C126_10 1_555 1_555
H49_10 C127_10 1_555 1_555
H50_10 C128_10 1_555 1_555
H52_10 C130_10 1_555 1_555
H53_10 C131_10 1_555 1_555
H55_10 C133_10 1_555 1_555
H56_10 C134_10 1_555 1_555
H58_10 C125_10 1_555 1_555
H59_10 C126_10 1_555 1_555
H60_10 C127_10 1_555 1_555
H61_10 C128_10 1_555 1_555
H63_10 C130_10 1_555 1_555
H64_10 C131_10 1_555 1_555
H66_10 C133_10 1_555 1_555
H67_10 C134_10 1_555 1_555
C136_10 C125_10 1_555 1_555
C137_10 C126_10 1_555 1_555
C138_10 C127_10 1_555 1_555
C139_10 C128_10 1_555 1_555
C141_10 C130_10 1_555 1_555
C142_10 C131_10 1_555 1_555
C144_10 C133_10 1_555 1_555
C145_10 C134_10 1_555 1_555
H69_10 C136_10 1_555 1_555
H70_10 C137_10 1_555 1_555
H71_10 C138_10 1_555 1_555
H72_10 C139_10 1_555 1_555
H74_10 C141_10 1_555 1_555
H75_10 C142_10 1_555 1_555
H77_10 C144_10 1_555 1_555
H78_10 C145_10 1_555 1_555
H80_10 C136_10 1_555 1_555
H81_10 C137_10 1_555 1_555
H82_10 C138_10 1_555 1_555
H83_10 C139_10 1_555 1_555
H85_10 C141_10 1_555 1_555
H86_10 C142_10 1_555 1_555
H88_10 C144_10 1_555 1_555
H89_10 C145_10 1_555 1_555
H91_10 C136_10 1_555 1_555
H92_10 C137_10 1_555 1_555
H93_10 C138_10 1_555 1_555
H94_10 C139_10 1_555 1_555
H96_10 C141_10 1_555 1_555
H97_10 C142_10 1_555 1_555
H99_10 C144_10 1_555 1_555
H100_10 C145_10 1_555 1_555
C147_10 C92_10 1_555 1_555
C148_10 C93_10 1_555 1_555
C149_10 C94_10 1_555 1_555
C150_10 C95_10 1_555 1_555
C152_10 C97_10 1_555 1_555
C153_10 C98_10 1_555 1_555
C155_10 C100_10 1_555 1_555
C156_10 C101_10 1_555 1_555
H102_10 C147_10 1_555 1_555
H103_10 C148_10 1_555 1_555
H104_10 C149_10 1_555 1_555
H105_10 C150_10 1_555 1_555
H107_10 C152_10 1_555 1_555
H108_10 C153_10 1_555 1_555
H110_10 C155_10 1_555 1_555
H111_10 C156_10 1_555 1_555
H113_10 C147_10 1_555 1_555
H114_10 C148_10 1_555 1_555
H115_10 C149_10 1_555 1_555
H116_10 C150_10 1_555 1_555
H118_10 C152_10 1_555 1_555
H119_10 C153_10 1_555 1_555
H121_10 C155_10 1_555 1_555
H122_10 C156_10 1_555 1_555
C158_10 C147_10 1_555 1_555
C159_10 C148_10 1_555 1_555
C160_10 C149_10 1_555 1_555
C161_10 C150_10 1_555 1_555
C163_10 C152_10 1_555 1_555
C164_10 C153_10 1_555 1_555
C166_10 C155_10 1_555 1_555
C167_10 C156_10 1_555 1_555
H124_10 C158_10 1_555 1_555
H125_10 C159_10 1_555 1_555
H126_10 C160_10 1_555 1_555
H127_10 C161_10 1_555 1_555
H129_10 C163_10 1_555 1_555
H130_10 C164_10 1_555 1_555
H132_10 C166_10 1_555 1_555
H133_10 C167_10 1_555 1_555
H135_10 C158_10 1_555 1_555
H136_10 C159_10 1_555 1_555
H137_10 C160_10 1_555 1_555
H138_10 C161_10 1_555 1_555
H140_10 C163_10 1_555 1_555
H141_10 C164_10 1_555 1_555
H143_10 C166_10 1_555 1_555
H144_10 C167_10 1_555 1_555
H146_10 C158_10 1_555 1_555
H147_10 C159_10 1_555 1_555
H148_10 C160_10 1_555 1_555
H149_10 C161_10 1_555 1_555
H151_10 C163_10 1_555 1_555
H152_10 C164_10 1_555 1_555
H154_10 C166_10 1_555 1_555
H155_10 C167_10 1_555 1_555
O35_13 Pb15_3 1_555 1_555
O36_13 Pb8_9 1_555 1_555
O37_13 Pb7_10 1_555 1_555
O3_13 Pb15_3 1_555 1_555
C6_10 C7_10 1_555 1_555
C9_10 C10_10 1_555 1_555
Pb8_9 O22_10 1_555 1_555
Pb7_10 O23_8 1_555 1_555
Pb7_10 O24_10 1_555 1_555
Pb7_10 O25_10 1_555 1_555
Pb12_2 O28_10 1_555 1_555
Pb10_8 O31_10 1_555 1_555
O24_10 C15_10 1_555 1_555
O25_10 C16_10 1_555 1_555
C59_10 C114_10 1_555 1_555
C70_10 C84_10 1_555 1_555
C71_10 C85_10 1_555 1_555
C72_10 C81_10 1_555 1_555
C73_10 C82_10 1_555 1_555
C75_10 C86_10 1_555 1_555
C76_10 C87_10 1_555 1_555
C78_10 C89_10 1_555 1_555
C79_10 C90_10 1_555 1_555
C92_10 C103_10 1_555 1_555
C103_10 C115_10 1_555 1_555
C104_10 C114_10 1_555 1_555
C104_10 C115_10 1_555 1_555
C105_10 C116_10 1_555 1_555
C105_10 C119_10 1_555 1_555
C106_10 C117_10 1_555 1_555
C106_10 C120_10 1_555 1_555
C108_10 C116_10 1_555 1_555
C108_10 C122_10 1_555 1_555
C109_10 C117_10 1_555 1_555
C109_10 C123_10 1_555 1_555
C111_10 C119_10 1_555 1_555
C111_10 C122_10 1_555 1_555
C112_10 C120_10 1_555 1_555
C112_10 C123_10 1_555 1_555
Pb14_4 O1_11 1_555 1_555
O1_11 C1_11 1_555 1_555
O2_11 Pb14_4 1_555 1_555
O3_14 Pb14_4 1_555 1_555
C1_11 O2_11 1_555 1_555
C2_11 C1_11 1_555 1_555
C3_11 C2_11 1_555 1_555
H1_11 C3_11 1_555 1_555
C4_11 C3_11 1_555 1_555
C5_11 C4_11 1_555 1_555
C6_11 C5_11 1_555 1_555
H2_11 C6_11 1_555 1_555
C7_11 C2_11 1_555 1_555
H3_11 C7_11 1_555 1_555
C8_11 C4_11 1_555 1_555
C9_11 C8_11 1_555 1_555
C10_11 C5_11 1_555 1_555
C11_11 C8_11 1_555 1_555
H4_11 C11_11 1_555 1_555
H5_11 C11_11 1_555 1_555
C12_11 C11_11 1_555 1_555
H6_11 C12_11 1_555 1_555
H7_11 C12_11 1_555 1_555
H8_11 C12_11 1_555 1_555
C13_11 C8_11 1_555 1_555
H9_11 C13_11 1_555 1_555
H10_11 C13_11 1_555 1_555
C14_11 C13_11 1_555 1_555
H11_11 C14_11 1_555 1_555
H12_11 C14_11 1_555 1_555
H13_11 C14_11 1_555 1_555
O4_14 Pb14_4 1_555 1_555
Pb15_4 O2_11 1_555 1_555
Pb16_8 O3_14 1_555 1_555
Pb7_9 O3_14 1_555 1_555
Pb13_3 O12_9 1_555 1_555
Pb11_5 O27_9 1_555 1_555
Pb17_6 O14_11 1_555 1_555
Pb13_5 O29_11 1_555 1_555
Pb7_4 O15_11 1_555 1_555
Pb8_4 O30_11 1_555 1_555
Pb10_10 O16_11 1_555 1_555
O6_9 Pb15_4 1_555 1_555
O7_11 Pb15_4 1_555 1_555
O9_11 Pb16_8 1_555 1_555
O10_11 Pb7_9 1_555 1_555
O12_9 C18_11 1_555 1_555
O11_6 C19_11 1_555 1_555
O14_11 C20_11 1_555 1_555
O15_11 C21_11 1_555 1_555
O16_11 C22_11 1_555 1_555
O5_8 C23_11 1_555 1_555
O22_11 Pb14_4 1_555 1_555
O23_9 Pb15_4 1_555 1_555
O24_11 Pb15_4 1_555 1_555
O25_11 Pb16_8 1_555 1_555
O27_9 Pb13_3 1_555 1_555
O29_11 Pb17_6 1_555 1_555
O30_11 Pb7_4 1_555 1_555
O31_11 Pb7_4 1_555 1_555
C15_11 O7_11 1_555 1_555
C16_11 O10_11 1_555 1_555
C18_11 O27_9 1_555 1_555
C19_11 O26_6 1_555 1_555
C20_11 O29_11 1_555 1_555
C21_11 O30_11 1_555 1_555
C22_11 O31_11 1_555 1_555
C23_11 O21_8 1_555 1_555
C26_11 C15_11 1_555 1_555
C27_11 C16_11 1_555 1_555
C29_11 C18_11 1_555 1_555
C30_11 C19_11 1_555 1_555
C31_11 C20_11 1_555 1_555
C32_11 C21_11 1_555 1_555
C33_11 C22_11 1_555 1_555
C34_11 C23_11 1_555 1_555
C37_11 C26_11 1_555 1_555
C38_11 C27_11 1_555 1_555
C40_11 C29_11 1_555 1_555
C41_11 C30_11 1_555 1_555
C42_11 C31_11 1_555 1_555
C43_11 C32_11 1_555 1_555
C44_11 C33_11 1_555 1_555
C45_11 C34_11 1_555 1_555
H14_11 C37_11 1_555 1_555
H15_11 C38_11 1_555 1_555
H17_11 C40_11 1_555 1_555
H18_11 C41_11 1_555 1_555
H19_11 C42_11 1_555 1_555
H20_11 C43_11 1_555 1_555
H21_11 C44_11 1_555 1_555
H22_11 C45_11 1_555 1_555
C48_11 C40_11 1_555 1_555
C49_11 C41_11 1_555 1_555
C50_11 C37_11 1_555 1_555
C51_11 C38_11 1_555 1_555
C53_11 C42_11 1_555 1_555
C54_11 C43_11 1_555 1_555
C55_11 C44_11 1_555 1_555
C56_11 C45_11 1_555 1_555
C59_11 C48_11 1_555 1_555
C60_11 C49_11 1_555 1_555
C61_11 C50_11 1_555 1_555
C62_11 C51_11 1_555 1_555
C64_11 C54_11 1_555 1_555
C65_11 C56_11 1_555 1_555
C67_11 C53_11 1_555 1_555
C68_11 C55_11 1_555 1_555
C70_11 C59_11 1_555 1_555
C71_11 C60_11 1_555 1_555
C72_11 C61_11 1_555 1_555
C73_11 C62_11 1_555 1_555
C75_11 C64_11 1_555 1_555
C76_11 C65_11 1_555 1_555
C78_11 C67_11 1_555 1_555
C79_11 C68_11 1_555 1_555
H25_11 C70_11 1_555 1_555
H26_11 C71_11 1_555 1_555
H27_11 C72_11 1_555 1_555
H28_11 C73_11 1_555 1_555
H30_11 C75_11 1_555 1_555
H31_11 C76_11 1_555 1_555
H33_11 C78_11 1_555 1_555
H34_11 C79_11 1_555 1_555
C81_11 C26_11 1_555 1_555
C82_11 C27_11 1_555 1_555
C84_11 C29_11 1_555 1_555
C85_11 C30_11 1_555 1_555
C86_11 C32_11 1_555 1_555
C87_11 C34_11 1_555 1_555
C89_11 C31_11 1_555 1_555
C90_11 C33_11 1_555 1_555
H36_11 C81_11 1_555 1_555
H37_11 C82_11 1_555 1_555
H39_11 C84_11 1_555 1_555
H40_11 C85_11 1_555 1_555
H41_11 C86_11 1_555 1_555
H42_11 C87_11 1_555 1_555
H44_11 C89_11 1_555 1_555
H45_11 C90_11 1_555 1_555
C92_11 C49_11 1_555 1_555
C93_11 C48_11 1_555 1_555
C94_11 C50_11 1_555 1_555
C95_11 C51_11 1_555 1_555
C97_11 C53_11 1_555 1_555
C98_11 C55_11 1_555 1_555
C100_11 C54_11 1_555 1_555
C101_11 C56_11 1_555 1_555
C103_11 C10_11 1_555 1_555
C104_11 C93_11 1_555 1_555
C105_11 C94_11 1_555 1_555
C106_11 C95_11 1_555 1_555
C108_11 C97_11 1_555 1_555
C109_11 C98_11 1_555 1_555
C111_11 C100_11 1_555 1_555
C112_11 C101_11 1_555 1_555
C114_11 C9_11 1_555 1_555
C115_11 C60_11 1_555 1_555
C116_11 C61_11 1_555 1_555
C117_11 C62_11 1_555 1_555
C119_11 C64_11 1_555 1_555
C120_11 C65_11 1_555 1_555
C122_11 C67_11 1_555 1_555
C123_11 C68_11 1_555 1_555
C125_11 C92_11 1_555 1_555
C126_11 C93_11 1_555 1_555
C127_11 C94_11 1_555 1_555
C128_11 C95_11 1_555 1_555
C130_11 C97_11 1_555 1_555
C131_11 C98_11 1_555 1_555
C133_11 C100_11 1_555 1_555
C134_11 C101_11 1_555 1_555
H47_11 C125_11 1_555 1_555
H48_11 C126_11 1_555 1_555
H49_11 C127_11 1_555 1_555
H50_11 C128_11 1_555 1_555
H52_11 C130_11 1_555 1_555
H53_11 C131_11 1_555 1_555
H55_11 C133_11 1_555 1_555
H56_11 C134_11 1_555 1_555
H58_11 C125_11 1_555 1_555
H59_11 C126_11 1_555 1_555
H60_11 C127_11 1_555 1_555
H61_11 C128_11 1_555 1_555
H63_11 C130_11 1_555 1_555
H64_11 C131_11 1_555 1_555
H66_11 C133_11 1_555 1_555
H67_11 C134_11 1_555 1_555
C136_11 C125_11 1_555 1_555
C137_11 C126_11 1_555 1_555
C138_11 C127_11 1_555 1_555
C139_11 C128_11 1_555 1_555
C141_11 C130_11 1_555 1_555
C142_11 C131_11 1_555 1_555
C144_11 C133_11 1_555 1_555
C145_11 C134_11 1_555 1_555
H69_11 C136_11 1_555 1_555
H70_11 C137_11 1_555 1_555
H71_11 C138_11 1_555 1_555
H72_11 C139_11 1_555 1_555
H74_11 C141_11 1_555 1_555
H75_11 C142_11 1_555 1_555
H77_11 C144_11 1_555 1_555
H78_11 C145_11 1_555 1_555
H80_11 C136_11 1_555 1_555
H81_11 C137_11 1_555 1_555
H82_11 C138_11 1_555 1_555
H83_11 C139_11 1_555 1_555
H85_11 C141_11 1_555 1_555
H86_11 C142_11 1_555 1_555
H88_11 C144_11 1_555 1_555
H89_11 C145_11 1_555 1_555
H91_11 C136_11 1_555 1_555
H92_11 C137_11 1_555 1_555
H93_11 C138_11 1_555 1_555
H94_11 C139_11 1_555 1_555
H96_11 C141_11 1_555 1_555
H97_11 C142_11 1_555 1_555
H99_11 C144_11 1_555 1_555
H100_11 C145_11 1_555 1_555
C147_11 C92_11 1_555 1_555
C148_11 C93_11 1_555 1_555
C149_11 C94_11 1_555 1_555
C150_11 C95_11 1_555 1_555
C152_11 C97_11 1_555 1_555
C153_11 C98_11 1_555 1_555
C155_11 C100_11 1_555 1_555
C156_11 C101_11 1_555 1_555
H102_11 C147_11 1_555 1_555
H103_11 C148_11 1_555 1_555
H104_11 C149_11 1_555 1_555
H105_11 C150_11 1_555 1_555
H107_11 C152_11 1_555 1_555
H108_11 C153_11 1_555 1_555
H110_11 C155_11 1_555 1_555
H111_11 C156_11 1_555 1_555
H113_11 C147_11 1_555 1_555
H114_11 C148_11 1_555 1_555
H115_11 C149_11 1_555 1_555
H116_11 C150_11 1_555 1_555
H118_11 C152_11 1_555 1_555
H119_11 C153_11 1_555 1_555
H121_11 C155_11 1_555 1_555
H122_11 C156_11 1_555 1_555
C158_11 C147_11 1_555 1_555
C159_11 C148_11 1_555 1_555
C160_11 C149_11 1_555 1_555
C161_11 C150_11 1_555 1_555
C163_11 C152_11 1_555 1_555
C164_11 C153_11 1_555 1_555
C166_11 C155_11 1_555 1_555
C167_11 C156_11 1_555 1_555
H124_11 C158_11 1_555 1_555
H125_11 C159_11 1_555 1_555
H126_11 C160_11 1_555 1_555
H127_11 C161_11 1_555 1_555
H129_11 C163_11 1_555 1_555
H130_11 C164_11 1_555 1_555
H132_11 C166_11 1_555 1_555
H133_11 C167_11 1_555 1_555
H135_11 C158_11 1_555 1_555
H136_11 C159_11 1_555 1_555
H137_11 C160_11 1_555 1_555
H138_11 C161_11 1_555 1_555
H140_11 C163_11 1_555 1_555
H141_11 C164_11 1_555 1_555
H143_11 C166_11 1_555 1_555
H144_11 C167_11 1_555 1_555
H146_11 C158_11 1_555 1_555
H147_11 C159_11 1_555 1_555
H148_11 C160_11 1_555 1_555
H149_11 C161_11 1_555 1_555
H151_11 C163_11 1_555 1_555
H152_11 C164_11 1_555 1_555
H154_11 C166_11 1_555 1_555
H155_11 C167_11 1_555 1_555
O35_14 Pb15_4 1_555 1_555
O36_14 Pb16_8 1_555 1_555
O37_14 Pb7_9 1_555 1_555
O3_14 Pb15_4 1_555 1_555
C6_11 C7_11 1_555 1_555
C9_11 C10_11 1_555 1_555
Pb16_8 O22_11 1_555 1_555
Pb7_9 O23_9 1_555 1_555
Pb7_9 O24_11 1_555 1_555
Pb7_9 O25_11 1_555 1_555
Pb10_10 O31_11 1_555 1_555
O24_11 C15_11 1_555 1_555
O25_11 C16_11 1_555 1_555
C59_11 C114_11 1_555 1_555
C70_11 C84_11 1_555 1_555
C71_11 C85_11 1_555 1_555
C72_11 C81_11 1_555 1_555
C73_11 C82_11 1_555 1_555
C75_11 C86_11 1_555 1_555
C76_11 C87_11 1_555 1_555
C78_11 C89_11 1_555 1_555
C79_11 C90_11 1_555 1_555
C92_11 C103_11 1_555 1_555
C103_11 C115_11 1_555 1_555
C104_11 C114_11 1_555 1_555
C104_11 C115_11 1_555 1_555
C105_11 C116_11 1_555 1_555
C105_11 C119_11 1_555 1_555
C106_11 C117_11 1_555 1_555
C106_11 C120_11 1_555 1_555
C108_11 C116_11 1_555 1_555
C108_11 C122_11 1_555 1_555
C109_11 C117_11 1_555 1_555
C109_11 C123_11 1_555 1_555
C111_11 C119_11 1_555 1_555
C111_11 C122_11 1_555 1_555
C112_11 C120_11 1_555 1_555
C112_11 C123_11 1_555 1_555
Pb17_7 O1_12 1_555 1_555
O1_12 C1_12 1_555 1_555
O2_12 Pb17_7 1_555 1_555
O3_15 Pb17_7 1_555 1_555
C1_12 O2_12 1_555 1_555
C2_12 C1_12 1_555 1_555
C3_12 C2_12 1_555 1_555
H1_12 C3_12 1_555 1_555
C4_12 C3_12 1_555 1_555
C5_12 C4_12 1_555 1_555
C6_12 C5_12 1_555 1_555
H2_12 C6_12 1_555 1_555
C7_12 C2_12 1_555 1_555
H3_12 C7_12 1_555 1_555
C8_12 C4_12 1_555 1_555
C9_12 C8_12 1_555 1_555
C10_12 C5_12 1_555 1_555
C11_12 C8_12 1_555 1_555
H4_12 C11_12 1_555 1_555
H5_12 C11_12 1_555 1_555
C12_12 C11_12 1_555 1_555
H6_12 C12_12 1_555 1_555
H7_12 C12_12 1_555 1_555
H8_12 C12_12 1_555 1_555
C13_12 C8_12 1_555 1_555
H9_12 C13_12 1_555 1_555
H10_12 C13_12 1_555 1_555
C14_12 C13_12 1_555 1_555
H11_12 C14_12 1_555 1_555
H12_12 C14_12 1_555 1_555
H13_12 C14_12 1_555 1_555
O4_15 Pb17_7 1_555 1_555
Pb5_2 O2_12 1_555 1_555
Pb16_7 O3_15 1_555 1_555
Pb6_2 O3_15 1_555 1_555
Pb18_2 O14_12 1_555 1_555
Pb13_7 O29_12 1_555 1_555
Pb6_8 O15_12 1_555 1_555
Pb12_8 O30_12 1_555 1_555
Pb5_6 O16_12 1_555 1_555
O7_12 Pb5_2 1_555 1_555
O9_12 Pb16_7 1_555 1_555
O10_12 Pb6_2 1_555 1_555
O11_8 Pb6_2 1_555 1_555
O6_2 C18_12 1_555 1_555
O11_5 C19_12 1_555 1_555
O14_12 C20_12 1_555 1_555
O15_12 C21_12 1_555 1_555
O16_12 C22_12 1_555 1_555
O5_7 C23_12 1_555 1_555
O22_12 Pb17_7 1_555 1_555
O24_12 Pb5_2 1_555 1_555
O25_12 Pb16_7 1_555 1_555
O26_8 Pb16_7 1_555 1_555
O29_12 Pb18_2 1_555 1_555
O30_12 Pb6_8 1_555 1_555
O31_12 Pb6_8 1_555 1_555
C15_12 O7_12 1_555 1_555
C16_12 O10_12 1_555 1_555
C18_12 O23_2 1_555 1_555
C19_12 O26_5 1_555 1_555
C20_12 O29_12 1_555 1_555
C21_12 O30_12 1_555 1_555
C22_12 O31_12 1_555 1_555
C23_12 O21_7 1_555 1_555
C26_12 C15_12 1_555 1_555
C27_12 C16_12 1_555 1_555
C29_12 C18_12 1_555 1_555
C30_12 C19_12 1_555 1_555
C31_12 C20_12 1_555 1_555
C32_12 C21_12 1_555 1_555
C33_12 C22_12 1_555 1_555
C34_12 C23_12 1_555 1_555
C37_12 C26_12 1_555 1_555
C38_12 C27_12 1_555 1_555
C40_12 C29_12 1_555 1_555
C41_12 C30_12 1_555 1_555
C42_12 C31_12 1_555 1_555
C43_12 C32_12 1_555 1_555
C44_12 C33_12 1_555 1_555
C45_12 C34_12 1_555 1_555
H14_12 C37_12 1_555 1_555
H15_12 C38_12 1_555 1_555
H17_12 C40_12 1_555 1_555
H18_12 C41_12 1_555 1_555
H19_12 C42_12 1_555 1_555
H20_12 C43_12 1_555 1_555
H21_12 C44_12 1_555 1_555
H22_12 C45_12 1_555 1_555
C48_12 C40_12 1_555 1_555
C49_12 C41_12 1_555 1_555
C50_12 C37_12 1_555 1_555
C51_12 C38_12 1_555 1_555
C53_12 C42_12 1_555 1_555
C54_12 C43_12 1_555 1_555
C55_12 C44_12 1_555 1_555
C56_12 C45_12 1_555 1_555
C59_12 C48_12 1_555 1_555
C60_12 C49_12 1_555 1_555
C61_12 C50_12 1_555 1_555
C62_12 C51_12 1_555 1_555
C64_12 C54_12 1_555 1_555
C65_12 C56_12 1_555 1_555
C67_12 C53_12 1_555 1_555
C68_12 C55_12 1_555 1_555
C70_12 C59_12 1_555 1_555
C71_12 C60_12 1_555 1_555
C72_12 C61_12 1_555 1_555
C73_12 C62_12 1_555 1_555
C75_12 C64_12 1_555 1_555
C76_12 C65_12 1_555 1_555
C78_12 C67_12 1_555 1_555
C79_12 C68_12 1_555 1_555
H25_12 C70_12 1_555 1_555
H26_12 C71_12 1_555 1_555
H27_12 C72_12 1_555 1_555
H28_12 C73_12 1_555 1_555
H30_12 C75_12 1_555 1_555
H31_12 C76_12 1_555 1_555
H33_12 C78_12 1_555 1_555
H34_12 C79_12 1_555 1_555
C81_12 C26_12 1_555 1_555
C82_12 C27_12 1_555 1_555
C84_12 C29_12 1_555 1_555
C85_12 C30_12 1_555 1_555
C86_12 C32_12 1_555 1_555
C87_12 C34_12 1_555 1_555
C89_12 C31_12 1_555 1_555
C90_12 C33_12 1_555 1_555
H36_12 C81_12 1_555 1_555
H37_12 C82_12 1_555 1_555
H39_12 C84_12 1_555 1_555
H40_12 C85_12 1_555 1_555
H41_12 C86_12 1_555 1_555
H42_12 C87_12 1_555 1_555
H44_12 C89_12 1_555 1_555
H45_12 C90_12 1_555 1_555
C92_12 C49_12 1_555 1_555
C93_12 C48_12 1_555 1_555
C94_12 C50_12 1_555 1_555
C95_12 C51_12 1_555 1_555
C97_12 C53_12 1_555 1_555
C98_12 C55_12 1_555 1_555
C100_12 C54_12 1_555 1_555
C101_12 C56_12 1_555 1_555
C103_12 C10_12 1_555 1_555
C104_12 C93_12 1_555 1_555
C105_12 C94_12 1_555 1_555
C106_12 C95_12 1_555 1_555
C108_12 C97_12 1_555 1_555
C109_12 C98_12 1_555 1_555
C111_12 C100_12 1_555 1_555
C112_12 C101_12 1_555 1_555
C114_12 C9_12 1_555 1_555
C115_12 C60_12 1_555 1_555
C116_12 C61_12 1_555 1_555
C117_12 C62_12 1_555 1_555
C119_12 C64_12 1_555 1_555
C120_12 C65_12 1_555 1_555
C122_12 C67_12 1_555 1_555
C123_12 C68_12 1_555 1_555
C125_12 C92_12 1_555 1_555
C126_12 C93_12 1_555 1_555
C127_12 C94_12 1_555 1_555
C128_12 C95_12 1_555 1_555
C130_12 C97_12 1_555 1_555
C131_12 C98_12 1_555 1_555
C133_12 C100_12 1_555 1_555
C134_12 C101_12 1_555 1_555
H47_12 C125_12 1_555 1_555
H48_12 C126_12 1_555 1_555
H49_12 C127_12 1_555 1_555
H50_12 C128_12 1_555 1_555
H52_12 C130_12 1_555 1_555
H53_12 C131_12 1_555 1_555
H55_12 C133_12 1_555 1_555
H56_12 C134_12 1_555 1_555
H58_12 C125_12 1_555 1_555
H59_12 C126_12 1_555 1_555
H60_12 C127_12 1_555 1_555
H61_12 C128_12 1_555 1_555
H63_12 C130_12 1_555 1_555
H64_12 C131_12 1_555 1_555
H66_12 C133_12 1_555 1_555
H67_12 C134_12 1_555 1_555
C136_12 C125_12 1_555 1_555
C137_12 C126_12 1_555 1_555
C138_12 C127_12 1_555 1_555
C139_12 C128_12 1_555 1_555
C141_12 C130_12 1_555 1_555
C142_12 C131_12 1_555 1_555
C144_12 C133_12 1_555 1_555
C145_12 C134_12 1_555 1_555
H69_12 C136_12 1_555 1_555
H70_12 C137_12 1_555 1_555
H71_12 C138_12 1_555 1_555
H72_12 C139_12 1_555 1_555
H74_12 C141_12 1_555 1_555
H75_12 C142_12 1_555 1_555
H77_12 C144_12 1_555 1_555
H78_12 C145_12 1_555 1_555
H80_12 C136_12 1_555 1_555
H81_12 C137_12 1_555 1_555
H82_12 C138_12 1_555 1_555
H83_12 C139_12 1_555 1_555
H85_12 C141_12 1_555 1_555
H86_12 C142_12 1_555 1_555
H88_12 C144_12 1_555 1_555
H89_12 C145_12 1_555 1_555
H91_12 C136_12 1_555 1_555
H92_12 C137_12 1_555 1_555
H93_12 C138_12 1_555 1_555
H94_12 C139_12 1_555 1_555
H96_12 C141_12 1_555 1_555
H97_12 C142_12 1_555 1_555
H99_12 C144_12 1_555 1_555
H100_12 C145_12 1_555 1_555
C147_12 C92_12 1_555 1_555
C148_12 C93_12 1_555 1_555
C149_12 C94_12 1_555 1_555
C150_12 C95_12 1_555 1_555
C152_12 C97_12 1_555 1_555
C153_12 C98_12 1_555 1_555
C155_12 C100_12 1_555 1_555
C156_12 C101_12 1_555 1_555
H102_12 C147_12 1_555 1_555
H103_12 C148_12 1_555 1_555
H104_12 C149_12 1_555 1_555
H105_12 C150_12 1_555 1_555
H107_12 C152_12 1_555 1_555
H108_12 C153_12 1_555 1_555
H110_12 C155_12 1_555 1_555
H111_12 C156_12 1_555 1_555
H113_12 C147_12 1_555 1_555
H114_12 C148_12 1_555 1_555
H115_12 C149_12 1_555 1_555
H116_12 C150_12 1_555 1_555
H118_12 C152_12 1_555 1_555
H119_12 C153_12 1_555 1_555
H121_12 C155_12 1_555 1_555
H122_12 C156_12 1_555 1_555
C158_12 C147_12 1_555 1_555
C159_12 C148_12 1_555 1_555
C160_12 C149_12 1_555 1_555
C161_12 C150_12 1_555 1_555
C163_12 C152_12 1_555 1_555
C164_12 C153_12 1_555 1_555
C166_12 C155_12 1_555 1_555
C167_12 C156_12 1_555 1_555
H124_12 C158_12 1_555 1_555
H125_12 C159_12 1_555 1_555
H126_12 C160_12 1_555 1_555
H127_12 C161_12 1_555 1_555
H129_12 C163_12 1_555 1_555
H130_12 C164_12 1_555 1_555
H132_12 C166_12 1_555 1_555
H133_12 C167_12 1_555 1_555
H135_12 C158_12 1_555 1_555
H136_12 C159_12 1_555 1_555
H137_12 C160_12 1_555 1_555
H138_12 C161_12 1_555 1_555
H140_12 C163_12 1_555 1_555
H141_12 C164_12 1_555 1_555
H143_12 C166_12 1_555 1_555
H144_12 C167_12 1_555 1_555
H146_12 C158_12 1_555 1_555
H147_12 C159_12 1_555 1_555
H148_12 C160_12 1_555 1_555
H149_12 C161_12 1_555 1_555
H151_12 C163_12 1_555 1_555
H152_12 C164_12 1_555 1_555
H154_12 C166_12 1_555 1_555
H155_12 C167_12 1_555 1_555
O35_15 Pb5_2 1_555 1_555
O36_15 Pb16_7 1_555 1_555
O37_15 Pb6_2 1_555 1_555
O3_15 Pb5_2 1_555 1_555
C6_12 C7_12 1_555 1_555
C9_12 C10_12 1_555 1_555
Pb16_7 O22_12 1_555 1_555
Pb6_2 O24_12 1_555 1_555
Pb6_2 O25_12 1_555 1_555
Pb6_2 O26_8 1_555 1_555
Pb5_6 O31_12 1_555 1_555
O24_12 C15_12 1_555 1_555
O25_12 C16_12 1_555 1_555
C59_12 C114_12 1_555 1_555
C70_12 C84_12 1_555 1_555
C71_12 C85_12 1_555 1_555
C72_12 C81_12 1_555 1_555
C73_12 C82_12 1_555 1_555
C75_12 C86_12 1_555 1_555
C76_12 C87_12 1_555 1_555
C78_12 C89_12 1_555 1_555
C79_12 C90_12 1_555 1_555
C92_12 C103_12 1_555 1_555
C103_12 C115_12 1_555 1_555
C104_12 C114_12 1_555 1_555
C104_12 C115_12 1_555 1_555
C105_12 C116_12 1_555 1_555
C105_12 C119_12 1_555 1_555
C106_12 C117_12 1_555 1_555
C106_12 C120_12 1_555 1_555
C108_12 C116_12 1_555 1_555
C108_12 C122_12 1_555 1_555
C109_12 C117_12 1_555 1_555
C109_12 C123_12 1_555 1_555
C111_12 C119_12 1_555 1_555
C111_12 C122_12 1_555 1_555
C112_12 C120_12 1_555 1_555
C112_12 C123_12 1_555 1_555
Pb9_3 O19_8 1_555 1_555
Pb10_9 O18_8 1_555 1_555
Pb7_3 O33_8 1_555 1_555
Pb13 O34_8 1_555 1_555
O18_8 C24_8 1_555 1_555
O19_8 C25_8 1_555 1_555
O33_8 Pb10_9 1_555 1_555
O34_8 Pb9_3 1_555 1_555
C17_8 O11_8 1_555 1_555
C24_8 O33_8 1_555 1_555
C25_8 O34_8 1_555 1_555
C28_8 C17_8 1_555 1_555
C35_8 C24_8 1_555 1_555
C36_8 C25_8 1_555 1_555
C39_8 C28_8 1_555 1_555
C46_8 C35_8 1_555 1_555
C47_8 C36_8 1_555 1_555
H16_8 C39_8 1_555 1_555
H23_8 C46_8 1_555 1_555
H24_8 C47_8 1_555 1_555
C52_8 C39_8 1_555 1_555
C57_8 C46_8 1_555 1_555
C58_8 C47_8 1_555 1_555
C63_8 C52_8 1_555 1_555
C66_8 C58_8 1_555 1_555
C69_8 C57_8 1_555 1_555
C74_8 C63_8 1_555 1_555
C77_8 C66_8 1_555 1_555
C80_8 C69_8 1_555 1_555
H29_8 C74_8 1_555 1_555
H32_8 C77_8 1_555 1_555
H35_8 C80_8 1_555 1_555
C83_8 C28_8 1_555 1_555
C88_8 C36_8 1_555 1_555
C91_8 C35_8 1_555 1_555
H38_8 C83_8 1_555 1_555
H43_8 C88_8 1_555 1_555
H46_8 C91_8 1_555 1_555
C96_8 C52_8 1_555 1_555
C99_8 C57_8 1_555 1_555
C102_8 C58_8 1_555 1_555
C107_8 C96_8 1_555 1_555
C110_8 C99_8 1_555 1_555
C113_8 C102_8 1_555 1_555
C118_8 C63_8 1_555 1_555
C121_8 C66_8 1_555 1_555
C124_8 C69_8 1_555 1_555
C129_8 C96_8 1_555 1_555
C132_8 C99_8 1_555 1_555
C135_8 C102_8 1_555 1_555
H51_8 C129_8 1_555 1_555
H54_8 C132_8 1_555 1_555
H57_8 C135_8 1_555 1_555
H62_8 C129_8 1_555 1_555
H65_8 C132_8 1_555 1_555
H68_8 C135_8 1_555 1_555
C140_8 C129_8 1_555 1_555
C143_8 C132_8 1_555 1_555
C146_8 C135_8 1_555 1_555
H73_8 C140_8 1_555 1_555
H76_8 C143_8 1_555 1_555
H79_8 C146_8 1_555 1_555
H84_8 C140_8 1_555 1_555
H87_8 C143_8 1_555 1_555
H90_8 C146_8 1_555 1_555
H95_8 C140_8 1_555 1_555
H98_8 C143_8 1_555 1_555
H101_8 C146_8 1_555 1_555
C151_8 C96_8 1_555 1_555
C154_8 C99_8 1_555 1_555
C157_8 C102_8 1_555 1_555
H106_8 C151_8 1_555 1_555
H109_8 C154_8 1_555 1_555
H112_8 C157_8 1_555 1_555
H117_8 C151_8 1_555 1_555
H120_8 C154_8 1_555 1_555
H123_8 C157_8 1_555 1_555
C162_8 C151_8 1_555 1_555
C165_8 C154_8 1_555 1_555
C168_8 C157_8 1_555 1_555
H128_8 C162_8 1_555 1_555
H131_8 C165_8 1_555 1_555
H134_8 C168_8 1_555 1_555
H139_8 C162_8 1_555 1_555
H142_8 C165_8 1_555 1_555
H145_8 C168_8 1_555 1_555
H150_8 C162_8 1_555 1_555
H153_8 C165_8 1_555 1_555
H156_8 C168_8 1_555 1_555
O26_8 C17_8 1_555 1_555
C74_8 C83_8 1_555 1_555
C77_8 C88_8 1_555 1_555
C80_8 C91_8 1_555 1_555
C107_8 C118_8 1_555 1_555
C107_8 C121_8 1_555 1_555
C110_8 C118_8 1_555 1_555
C110_8 C124_8 1_555 1_555
C113_8 C121_8 1_555 1_555
C113_8 C124_8 1_555 1_555
O6_7 C1_13 1_555 1_555
C1_13 O23_7 1_555 1_555
C2_13 C1_13 1_555 1_555
C3_13 C2_13 1_555 1_555
H1_13 C3_13 1_555 1_555
C4_13 C3_13 1_555 1_555
C5_13 C4_13 1_555 1_555
C6_13 C5_13 1_555 1_555
H2_13 C6_13 1_555 1_555
C7_13 C2_13 1_555 1_555
H3_13 C7_13 1_555 1_555
C8_13 C4_13 1_555 1_555
C9_13 C8_13 1_555 1_555
C10_13 C5_13 1_555 1_555
C11_13 C8_13 1_555 1_555
H4_13 C11_13 1_555 1_555
H5_13 C11_13 1_555 1_555
C12_13 C11_13 1_555 1_555
H6_13 C12_13 1_555 1_555
H7_13 C12_13 1_555 1_555
H8_13 C12_13 1_555 1_555
C13_13 C8_13 1_555 1_555
H9_13 C13_13 1_555 1_555
H10_13 C13_13 1_555 1_555
C14_13 C13_13 1_555 1_555
H11_13 C14_13 1_555 1_555
H12_13 C14_13 1_555 1_555
H13_13 C14_13 1_555 1_555
Pb17 O13_11 1_555 1_555
O11 C18_13 1_555 1_555
O13_11 C19_13 1_555 1_555
O9_6 C22_13 1_555 1_555
O9_12 C23_13 1_555 1_555
O28_11 Pb17 1_555 1_555
C16_13 O9_8 1_555 1_555
C18_13 O26 1_555 1_555
C19_13 O28_11 1_555 1_555
C22_13 O22_6 1_555 1_555
C23_13 O22_12 1_555 1_555
C27_13 C16_13 1_555 1_555
C29_13 C18_13 1_555 1_555
C30_13 C19_13 1_555 1_555
C33_13 C22_13 1_555 1_555
C34_13 C23_13 1_555 1_555
C38_13 C27_13 1_555 1_555
C40_13 C29_13 1_555 1_555
C41_13 C30_13 1_555 1_555
C44_13 C33_13 1_555 1_555
C45_13 C34_13 1_555 1_555
H15_13 C38_13 1_555 1_555
H17_13 C40_13 1_555 1_555
H18_13 C41_13 1_555 1_555
H21_13 C44_13 1_555 1_555
H22_13 C45_13 1_555 1_555
C48_13 C40_13 1_555 1_555
C49_13 C41_13 1_555 1_555
C51_13 C38_13 1_555 1_555
C55_13 C44_13 1_555 1_555
C56_13 C45_13 1_555 1_555
C59_13 C48_13 1_555 1_555
C60_13 C49_13 1_555 1_555
C62_13 C51_13 1_555 1_555
C65_13 C56_13 1_555 1_555
C68_13 C55_13 1_555 1_555
C70_13 C59_13 1_555 1_555
C71_13 C60_13 1_555 1_555
C73_13 C62_13 1_555 1_555
C76_13 C65_13 1_555 1_555
C79_13 C68_13 1_555 1_555
H25_13 C70_13 1_555 1_555
H26_13 C71_13 1_555 1_555
H28_13 C73_13 1_555 1_555
H31_13 C76_13 1_555 1_555
H34_13 C79_13 1_555 1_555
C82_13 C27_13 1_555 1_555
C84_13 C29_13 1_555 1_555
C85_13 C30_13 1_555 1_555
C87_13 C34_13 1_555 1_555
C90_13 C33_13 1_555 1_555
H37_13 C82_13 1_555 1_555
H39_13 C84_13 1_555 1_555
H40_13 C85_13 1_555 1_555
H42_13 C87_13 1_555 1_555
H45_13 C90_13 1_555 1_555
C92_13 C49_13 1_555 1_555
C93_13 C48_13 1_555 1_555
C95_13 C51_13 1_555 1_555
C98_13 C55_13 1_555 1_555
C101_13 C56_13 1_555 1_555
C103_13 C10_13 1_555 1_555
C104_13 C93_13 1_555 1_555
C106_13 C95_13 1_555 1_555
C109_13 C98_13 1_555 1_555
C112_13 C101_13 1_555 1_555
C114_13 C9_13 1_555 1_555
C115_13 C60_13 1_555 1_555
C117_13 C62_13 1_555 1_555
C120_13 C65_13 1_555 1_555
C123_13 C68_13 1_555 1_555
C125_13 C92_13 1_555 1_555
C126_13 C93_13 1_555 1_555
C128_13 C95_13 1_555 1_555
C131_13 C98_13 1_555 1_555
C134_13 C101_13 1_555 1_555
H47_13 C125_13 1_555 1_555
H48_13 C126_13 1_555 1_555
H50_13 C128_13 1_555 1_555
H53_13 C131_13 1_555 1_555
H56_13 C134_13 1_555 1_555
H58_13 C125_13 1_555 1_555
H59_13 C126_13 1_555 1_555
H61_13 C128_13 1_555 1_555
H64_13 C131_13 1_555 1_555
H67_13 C134_13 1_555 1_555
C136_13 C125_13 1_555 1_555
C137_13 C126_13 1_555 1_555
C139_13 C128_13 1_555 1_555
C142_13 C131_13 1_555 1_555
C145_13 C134_13 1_555 1_555
H69_13 C136_13 1_555 1_555
H70_13 C137_13 1_555 1_555
H72_13 C139_13 1_555 1_555
H75_13 C142_13 1_555 1_555
H78_13 C145_13 1_555 1_555
H80_13 C136_13 1_555 1_555
H81_13 C137_13 1_555 1_555
H83_13 C139_13 1_555 1_555
H86_13 C142_13 1_555 1_555
H89_13 C145_13 1_555 1_555
H91_13 C136_13 1_555 1_555
H92_13 C137_13 1_555 1_555
H94_13 C139_13 1_555 1_555
H97_13 C142_13 1_555 1_555
H100_13 C145_13 1_555 1_555
C147_13 C92_13 1_555 1_555
C148_13 C93_13 1_555 1_555
C150_13 C95_13 1_555 1_555
C153_13 C98_13 1_555 1_555
C156_13 C101_13 1_555 1_555
H102_13 C147_13 1_555 1_555
H103_13 C148_13 1_555 1_555
H105_13 C150_13 1_555 1_555
H108_13 C153_13 1_555 1_555
H111_13 C156_13 1_555 1_555
H113_13 C147_13 1_555 1_555
H114_13 C148_13 1_555 1_555
H116_13 C150_13 1_555 1_555
H119_13 C153_13 1_555 1_555
H122_13 C156_13 1_555 1_555
C158_13 C147_13 1_555 1_555
C159_13 C148_13 1_555 1_555
C161_13 C150_13 1_555 1_555
C164_13 C153_13 1_555 1_555
C167_13 C156_13 1_555 1_555
H124_13 C158_13 1_555 1_555
H125_13 C159_13 1_555 1_555
H127_13 C161_13 1_555 1_555
H130_13 C164_13 1_555 1_555
H133_13 C167_13 1_555 1_555
H135_13 C158_13 1_555 1_555
H136_13 C159_13 1_555 1_555
H138_13 C161_13 1_555 1_555
H141_13 C164_13 1_555 1_555
H144_13 C167_13 1_555 1_555
H146_13 C158_13 1_555 1_555
H147_13 C159_13 1_555 1_555
H149_13 C161_13 1_555 1_555
H152_13 C164_13 1_555 1_555
H155_13 C167_13 1_555 1_555
C6_13 C7_13 1_555 1_555
C9_13 C10_13 1_555 1_555
Pb10_7 O28_11 1_555 1_555
O22_8 C16_13 1_555 1_555
C59_13 C114_13 1_555 1_555
C70_13 C84_13 1_555 1_555
C71_13 C85_13 1_555 1_555
C73_13 C82_13 1_555 1_555
C76_13 C87_13 1_555 1_555
C79_13 C90_13 1_555 1_555
C92_13 C103_13 1_555 1_555
C103_13 C115_13 1_555 1_555
C104_13 C114_13 1_555 1_555
C104_13 C115_13 1_555 1_555
C106_13 C117_13 1_555 1_555
C106_13 C120_13 1_555 1_555
C109_13 C117_13 1_555 1_555
C109_13 C123_13 1_555 1_555
C112_13 C120_13 1_555 1_555
C112_13 C123_13 1_555 1_555
O3_16 Pb6_8 1_555 1_555
O4_16 Pb6_8 1_555 1_555
Pb5_6 O3_16 1_555 1_555
Pb9_6 O3_16 1_555 1_555
Pb8_2 O14_13 1_555 1_555
Pb18_2 O29_13 1_555 1_555
Pb16_4 O15_13 1_555 1_555
Pb17_4 O30_13 1_555 1_555
O7_13 Pb12_8 1_555 1_555
O14_13 C20_13 1_555 1_555
O15_13 C21_13 1_555 1_555
O24_13 Pb12_8 1_555 1_555
O29_13 Pb8_2 1_555 1_555
O30_13 Pb16_4 1_555 1_555
C15_13 O7_13 1_555 1_555
C20_13 O29_13 1_555 1_555
C21_13 O30_13 1_555 1_555
C26_13 C15_13 1_555 1_555
C31_13 C20_13 1_555 1_555
C32_13 C21_13 1_555 1_555
C37_13 C26_13 1_555 1_555
C42_13 C31_13 1_555 1_555
C43_13 C32_13 1_555 1_555
H14_13 C37_13 1_555 1_555
H19_13 C42_13 1_555 1_555
H20_13 C43_13 1_555 1_555
C50_13 C37_13 1_555 1_555
C53_13 C42_13 1_555 1_555
C54_13 C43_13 1_555 1_555
C61_13 C50_13 1_555 1_555
C64_13 C54_13 1_555 1_555
C67_13 C53_13 1_555 1_555
C72_13 C61_13 1_555 1_555
C75_13 C64_13 1_555 1_555
C78_13 C67_13 1_555 1_555
H27_13 C72_13 1_555 1_555
H30_13 C75_13 1_555 1_555
H33_13 C78_13 1_555 1_555
C81_13 C26_13 1_555 1_555
C86_13 C32_13 1_555 1_555
C89_13 C31_13 1_555 1_555
H36_13 C81_13 1_555 1_555
H41_13 C86_13 1_555 1_555
H44_13 C89_13 1_555 1_555
C94_13 C50_13 1_555 1_555
C97_13 C53_13 1_555 1_555
C100_13 C54_13 1_555 1_555
C105_13 C94_13 1_555 1_555
C108_13 C97_13 1_555 1_555
C111_13 C100_13 1_555 1_555
C116_13 C61_13 1_555 1_555
C119_13 C64_13 1_555 1_555
C122_13 C67_13 1_555 1_555
C127_13 C94_13 1_555 1_555
C130_13 C97_13 1_555 1_555
C133_13 C100_13 1_555 1_555
H49_13 C127_13 1_555 1_555
H52_13 C130_13 1_555 1_555
H55_13 C133_13 1_555 1_555
H60_13 C127_13 1_555 1_555
H63_13 C130_13 1_555 1_555
H66_13 C133_13 1_555 1_555
C138_13 C127_13 1_555 1_555
C141_13 C130_13 1_555 1_555
C144_13 C133_13 1_555 1_555
H71_13 C138_13 1_555 1_555
H74_13 C141_13 1_555 1_555
H77_13 C144_13 1_555 1_555
H82_13 C138_13 1_555 1_555
H85_13 C141_13 1_555 1_555
H88_13 C144_13 1_555 1_555
H93_13 C138_13 1_555 1_555
H96_13 C141_13 1_555 1_555
H99_13 C144_13 1_555 1_555
C149_13 C94_13 1_555 1_555
C152_13 C97_13 1_555 1_555
C155_13 C100_13 1_555 1_555
H104_13 C149_13 1_555 1_555
H107_13 C152_13 1_555 1_555
H110_13 C155_13 1_555 1_555
H115_13 C149_13 1_555 1_555
H118_13 C152_13 1_555 1_555
H121_13 C155_13 1_555 1_555
C160_13 C149_13 1_555 1_555
C163_13 C152_13 1_555 1_555
C166_13 C155_13 1_555 1_555
H126_13 C160_13 1_555 1_555
H129_13 C163_13 1_555 1_555
H132_13 C166_13 1_555 1_555
H137_13 C160_13 1_555 1_555
H140_13 C163_13 1_555 1_555
H143_13 C166_13 1_555 1_555
H148_13 C160_13 1_555 1_555
H151_13 C163_13 1_555 1_555
H154_13 C166_13 1_555 1_555
O35_16 Pb12_8 1_555 1_555
O36_16 Pb5_6 1_555 1_555
O37_16 Pb9_6 1_555 1_555
O3_16 Pb12_8 1_555 1_555
Pb9_6 O24_13 1_555 1_555
O24_13 C15_13 1_555 1_555
C72_13 C81_13 1_555 1_555
C75_13 C86_13 1_555 1_555
C78_13 C89_13 1_555 1_555
C105_13 C116_13 1_555 1_555
C105_13 C119_13 1_555 1_555
C108_13 C116_13 1_555 1_555
C108_13 C122_13 1_555 1_555
C111_13 C119_13 1_555 1_555
C111_13 C122_13 1_555 1_555
Pb6_9 O1_13 1_555 1_555
O1_13 C1_14 1_555 1_555
O2_13 Pb6_9 1_555 1_555
O3_17 Pb6_9 1_555 1_555
C1_14 O2_13 1_555 1_555
C2_14 C1_14 1_555 1_555
C3_14 C2_14 1_555 1_555
H1_14 C3_14 1_555 1_555
C4_14 C3_14 1_555 1_555
C5_14 C4_14 1_555 1_555
C6_14 C5_14 1_555 1_555
H2_14 C6_14 1_555 1_555
C7_14 C2_14 1_555 1_555
H3_14 C7_14 1_555 1_555
C8_14 C4_14 1_555 1_555
C9_14 C8_14 1_555 1_555
C10_14 C5_14 1_555 1_555
C11_14 C8_14 1_555 1_555
H4_14 C11_14 1_555 1_555
H5_14 C11_14 1_555 1_555
C12_14 C11_14 1_555 1_555
H6_14 C12_14 1_555 1_555
H7_14 C12_14 1_555 1_555
H8_14 C12_14 1_555 1_555
C13_14 C8_14 1_555 1_555
H9_14 C13_14 1_555 1_555
H10_14 C13_14 1_555 1_555
C14_14 C13_14 1_555 1_555
H11_14 C14_14 1_555 1_555
H12_14 C14_14 1_555 1_555
H13_14 C14_14 1_555 1_555
O4_17 Pb6_9 1_555 1_555
Pb12_9 O2_13 1_555 1_555
Pb5_7 O3_17 1_555 1_555
Pb9_7 O3_17 1_555 1_555
Pb9_9 O12_10 1_555 1_555
Pb13_3 O27_10 1_555 1_555
O6_10 Pb12_9 1_555 1_555
O11_9 Pb9_7 1_555 1_555
O12_10 C18_14 1_555 1_555
O6_9 C19_14 1_555 1_555
O23_10 Pb12_9 1_555 1_555
O26_9 Pb5_7 1_555 1_555
O27_10 Pb9_9 1_555 1_555
C18_14 O27_10 1_555 1_555
C19_14 O23_9 1_555 1_555
C29_14 C18_14 1_555 1_555
C30_14 C19_14 1_555 1_555
C40_14 C29_14 1_555 1_555
C41_14 C30_14 1_555 1_555
H17_14 C40_14 1_555 1_555
H18_14 C41_14 1_555 1_555
C48_14 C40_14 1_555 1_555
C49_14 C41_14 1_555 1_555
C59_14 C48_14 1_555 1_555
C60_14 C49_14 1_555 1_555
C70_14 C59_14 1_555 1_555
C71_14 C60_14 1_555 1_555
H25_14 C70_14 1_555 1_555
H26_14 C71_14 1_555 1_555
C84_14 C29_14 1_555 1_555
C85_14 C30_14 1_555 1_555
H39_14 C84_14 1_555 1_555
H40_14 C85_14 1_555 1_555
C92_14 C49_14 1_555 1_555
C93_14 C48_14 1_555 1_555
C103_14 C10_14 1_555 1_555
C104_14 C93_14 1_555 1_555
C114_14 C9_14 1_555 1_555
C115_14 C60_14 1_555 1_555
C125_14 C92_14 1_555 1_555
C126_14 C93_14 1_555 1_555
H47_14 C125_14 1_555 1_555
H48_14 C126_14 1_555 1_555
H58_14 C125_14 1_555 1_555
H59_14 C126_14 1_555 1_555
C136_14 C125_14 1_555 1_555
C137_14 C126_14 1_555 1_555
H69_14 C136_14 1_555 1_555
H70_14 C137_14 1_555 1_555
H80_14 C136_14 1_555 1_555
H81_14 C137_14 1_555 1_555
H91_14 C136_14 1_555 1_555
H92_14 C137_14 1_555 1_555
C147_14 C92_14 1_555 1_555
C148_14 C93_14 1_555 1_555
H102_14 C147_14 1_555 1_555
H103_14 C148_14 1_555 1_555
H113_14 C147_14 1_555 1_555
H114_14 C148_14 1_555 1_555
C158_14 C147_14 1_555 1_555
C159_14 C148_14 1_555 1_555
H124_14 C158_14 1_555 1_555
H125_14 C159_14 1_555 1_555
H135_14 C158_14 1_555 1_555
H136_14 C159_14 1_555 1_555
H146_14 C158_14 1_555 1_555
H147_14 C159_14 1_555 1_555
O35_17 Pb12_9 1_555 1_555
O36_17 Pb5_7 1_555 1_555
O37_17 Pb9_7 1_555 1_555
O3_17 Pb12_9 1_555 1_555
C6_14 C7_14 1_555 1_555
C9_14 C10_14 1_555 1_555
Pb9_7 O23_10 1_555 1_555
Pb9_7 O26_9 1_555 1_555
C59_14 C114_14 1_555 1_555
C70_14 C84_14 1_555 1_555
C71_14 C85_14 1_555 1_555
C92_14 C103_14 1_555 1_555
C103_14 C115_14 1_555 1_555
C104_14 C114_14 1_555 1_555
C104_14 C115_14 1_555 1_555
Pb17_3 O18_9 1_555 1_555
Pb5_4 O33_9 1_555 1_555
O9_11 C20_14 1_555 1_555
O9_9 C21_14 1_555 1_555
O18_9 C24_9 1_555 1_555
O11_2 C25_9 1_555 1_555
O33_9 Pb17_3 1_555 1_555
C15_14 O9_5 1_555 1_555
C17_9 O6_4 1_555 1_555
C20_14 O22_11 1_555 1_555
C21_14 O22_9 1_555 1_555
C24_9 O33_9 1_555 1_555
C25_9 O26_2 1_555 1_555
C26_14 C15_14 1_555 1_555
C28_9 C17_9 1_555 1_555
C31_14 C20_14 1_555 1_555
C32_14 C21_14 1_555 1_555
C35_9 C24_9 1_555 1_555
C36_9 C25_9 1_555 1_555
C37_14 C26_14 1_555 1_555
C39_9 C28_9 1_555 1_555
C42_14 C31_14 1_555 1_555
C43_14 C32_14 1_555 1_555
C46_9 C35_9 1_555 1_555
C47_9 C36_9 1_555 1_555
H14_14 C37_14 1_555 1_555
H16_9 C39_9 1_555 1_555
H19_14 C42_14 1_555 1_555
H20_14 C43_14 1_555 1_555
H23_9 C46_9 1_555 1_555
H24_9 C47_9 1_555 1_555
C50_14 C37_14 1_555 1_555
C52_9 C39_9 1_555 1_555
C53_14 C42_14 1_555 1_555
C54_14 C43_14 1_555 1_555
C57_9 C46_9 1_555 1_555
C58_9 C47_9 1_555 1_555
C61_14 C50_14 1_555 1_555
C63_9 C52_9 1_555 1_555
C64_14 C54_14 1_555 1_555
C66_9 C58_9 1_555 1_555
C67_14 C53_14 1_555 1_555
C69_9 C57_9 1_555 1_555
C72_14 C61_14 1_555 1_555
C74_9 C63_9 1_555 1_555
C75_14 C64_14 1_555 1_555
C77_9 C66_9 1_555 1_555
C78_14 C67_14 1_555 1_555
C80_9 C69_9 1_555 1_555
H27_14 C72_14 1_555 1_555
H29_9 C74_9 1_555 1_555
H30_14 C75_14 1_555 1_555
H32_9 C77_9 1_555 1_555
H33_14 C78_14 1_555 1_555
H35_9 C80_9 1_555 1_555
C81_14 C26_14 1_555 1_555
C83_9 C28_9 1_555 1_555
C86_14 C32_14 1_555 1_555
C88_9 C36_9 1_555 1_555
C89_14 C31_14 1_555 1_555
C91_9 C35_9 1_555 1_555
H36_14 C81_14 1_555 1_555
H38_9 C83_9 1_555 1_555
H41_14 C86_14 1_555 1_555
H43_9 C88_9 1_555 1_555
H44_14 C89_14 1_555 1_555
H46_9 C91_9 1_555 1_555
C94_14 C50_14 1_555 1_555
C96_9 C52_9 1_555 1_555
C97_14 C53_14 1_555 1_555
C99_9 C57_9 1_555 1_555
C100_14 C54_14 1_555 1_555
C102_9 C58_9 1_555 1_555
C105_14 C94_14 1_555 1_555
C107_9 C96_9 1_555 1_555
C108_14 C97_14 1_555 1_555
C110_9 C99_9 1_555 1_555
C111_14 C100_14 1_555 1_555
C113_9 C102_9 1_555 1_555
C116_14 C61_14 1_555 1_555
C118_9 C63_9 1_555 1_555
C119_14 C64_14 1_555 1_555
C121_9 C66_9 1_555 1_555
C122_14 C67_14 1_555 1_555
C124_9 C69_9 1_555 1_555
C127_14 C94_14 1_555 1_555
C129_9 C96_9 1_555 1_555
C130_14 C97_14 1_555 1_555
C132_9 C99_9 1_555 1_555
C133_14 C100_14 1_555 1_555
C135_9 C102_9 1_555 1_555
H49_14 C127_14 1_555 1_555
H51_9 C129_9 1_555 1_555
H52_14 C130_14 1_555 1_555
H54_9 C132_9 1_555 1_555
H55_14 C133_14 1_555 1_555
H57_9 C135_9 1_555 1_555
H60_14 C127_14 1_555 1_555
H62_9 C129_9 1_555 1_555
H63_14 C130_14 1_555 1_555
H65_9 C132_9 1_555 1_555
H66_14 C133_14 1_555 1_555
H68_9 C135_9 1_555 1_555
C138_14 C127_14 1_555 1_555
C140_9 C129_9 1_555 1_555
C141_14 C130_14 1_555 1_555
C143_9 C132_9 1_555 1_555
C144_14 C133_14 1_555 1_555
C146_9 C135_9 1_555 1_555
H71_14 C138_14 1_555 1_555
H73_9 C140_9 1_555 1_555
H74_14 C141_14 1_555 1_555
H76_9 C143_9 1_555 1_555
H77_14 C144_14 1_555 1_555
H79_9 C146_9 1_555 1_555
H82_14 C138_14 1_555 1_555
H84_9 C140_9 1_555 1_555
H85_14 C141_14 1_555 1_555
H87_9 C143_9 1_555 1_555
H88_14 C144_14 1_555 1_555
H90_9 C146_9 1_555 1_555
H93_14 C138_14 1_555 1_555
H95_9 C140_9 1_555 1_555
H96_14 C141_14 1_555 1_555
H98_9 C143_9 1_555 1_555
H99_14 C144_14 1_555 1_555
H101_9 C146_9 1_555 1_555
C149_14 C94_14 1_555 1_555
C151_9 C96_9 1_555 1_555
C152_14 C97_14 1_555 1_555
C154_9 C99_9 1_555 1_555
C155_14 C100_14 1_555 1_555
C157_9 C102_9 1_555 1_555
H104_14 C149_14 1_555 1_555
H106_9 C151_9 1_555 1_555
H107_14 C152_14 1_555 1_555
H109_9 C154_9 1_555 1_555
H110_14 C155_14 1_555 1_555
H112_9 C157_9 1_555 1_555
H115_14 C149_14 1_555 1_555
H117_9 C151_9 1_555 1_555
H118_14 C152_14 1_555 1_555
H120_9 C154_9 1_555 1_555
H121_14 C155_14 1_555 1_555
H123_9 C157_9 1_555 1_555
C160_14 C149_14 1_555 1_555
C162_9 C151_9 1_555 1_555
C163_14 C152_14 1_555 1_555
C165_9 C154_9 1_555 1_555
C166_14 C155_14 1_555 1_555
C168_9 C157_9 1_555 1_555
H126_14 C160_14 1_555 1_555
H128_9 C162_9 1_555 1_555
H129_14 C163_14 1_555 1_555
H131_9 C165_9 1_555 1_555
H132_14 C166_14 1_555 1_555
H134_9 C168_9 1_555 1_555
H137_14 C160_14 1_555 1_555
H139_9 C162_9 1_555 1_555
H140_14 C163_14 1_555 1_555
H142_9 C165_9 1_555 1_555
H143_14 C166_14 1_555 1_555
H145_9 C168_9 1_555 1_555
H148_14 C160_14 1_555 1_555
H150_9 C162_9 1_555 1_555
H151_14 C163_14 1_555 1_555
H153_9 C165_9 1_555 1_555
H154_14 C166_14 1_555 1_555
H156_9 C168_9 1_555 1_555
O23_4 C17_9 1_555 1_555
O22_5 C15_14 1_555 1_555
C72_14 C81_14 1_555 1_555
C74_9 C83_9 1_555 1_555
C75_14 C86_14 1_555 1_555
C77_9 C88_9 1_555 1_555
C78_14 C89_14 1_555 1_555
C80_9 C91_9 1_555 1_555
C105_14 C116_14 1_555 1_555
C105_14 C119_14 1_555 1_555
C107_9 C118_9 1_555 1_555
C107_9 C121_9 1_555 1_555
C108_14 C116_14 1_555 1_555
C108_14 C122_14 1_555 1_555
C110_9 C118_9 1_555 1_555
C110_9 C124_9 1_555 1_555
C111_14 C119_14 1_555 1_555
C111_14 C122_14 1_555 1_555
C113_9 C121_9 1_555 1_555
C113_9 C124_9 1_555 1_555
O11_4 C1_15 1_555 1_555
C1_15 O26_4 1_555 1_555
C2_15 C1_15 1_555 1_555
C3_15 C2_15 1_555 1_555
H1_15 C3_15 1_555 1_555
C4_15 C3_15 1_555 1_555
C5_15 C4_15 1_555 1_555
C6_15 C5_15 1_555 1_555
H2_15 C6_15 1_555 1_555
C7_15 C2_15 1_555 1_555
H3_15 C7_15 1_555 1_555
C8_15 C4_15 1_555 1_555
C9_15 C8_15 1_555 1_555
C10_15 C5_15 1_555 1_555
C11_15 C8_15 1_555 1_555
H4_15 C11_15 1_555 1_555
H5_15 C11_15 1_555 1_555
C12_15 C11_15 1_555 1_555
H6_15 C12_15 1_555 1_555
H7_15 C12_15 1_555 1_555
H8_15 C12_15 1_555 1_555
C13_15 C8_15 1_555 1_555
H9_15 C13_15 1_555 1_555
H10_15 C13_15 1_555 1_555
C14_15 C13_15 1_555 1_555
H11_15 C14_15 1_555 1_555
H12_15 C14_15 1_555 1_555
H13_15 C14_15 1_555 1_555
Pb9_2 O12_11 1_555 1_555
Pb10_2 O27_11 1_555 1_555
Pb13_6 O13_12 1_555 1_555
O12_11 C18_15 1_555 1_555
O13_12 C19_15 1_555 1_555
O9_10 C20_15 1_555 1_555
O9_7 C21_15 1_555 1_555
O27_11 Pb9_2 1_555 1_555
O28_12 Pb13_6 1_555 1_555
C15_15 O9_4 1_555 1_555
C18_15 O27_11 1_555 1_555
C19_15 O28_12 1_555 1_555
C20_15 O22_10 1_555 1_555
C21_15 O22_7 1_555 1_555
C26_15 C15_15 1_555 1_555
C29_15 C18_15 1_555 1_555
C30_15 C19_15 1_555 1_555
C31_15 C20_15 1_555 1_555
C32_15 C21_15 1_555 1_555
C37_15 C26_15 1_555 1_555
C40_15 C29_15 1_555 1_555
C41_15 C30_15 1_555 1_555
C42_15 C31_15 1_555 1_555
C43_15 C32_15 1_555 1_555
H14_15 C37_15 1_555 1_555
H17_15 C40_15 1_555 1_555
H18_15 C41_15 1_555 1_555
H19_15 C42_15 1_555 1_555
H20_15 C43_15 1_555 1_555
C48_15 C40_15 1_555 1_555
C49_15 C41_15 1_555 1_555
C50_15 C37_15 1_555 1_555
C53_15 C42_15 1_555 1_555
C54_15 C43_15 1_555 1_555
C59_15 C48_15 1_555 1_555
C60_15 C49_15 1_555 1_555
C61_15 C50_15 1_555 1_555
C64_15 C54_15 1_555 1_555
C67_15 C53_15 1_555 1_555
C70_15 C59_15 1_555 1_555
C71_15 C60_15 1_555 1_555
C72_15 C61_15 1_555 1_555
C75_15 C64_15 1_555 1_555
C78_15 C67_15 1_555 1_555
H25_15 C70_15 1_555 1_555
H26_15 C71_15 1_555 1_555
H27_15 C72_15 1_555 1_555
H30_15 C75_15 1_555 1_555
H33_15 C78_15 1_555 1_555
C81_15 C26_15 1_555 1_555
C84_15 C29_15 1_555 1_555
C85_15 C30_15 1_555 1_555
C86_15 C32_15 1_555 1_555
C89_15 C31_15 1_555 1_555
H36_15 C81_15 1_555 1_555
H39_15 C84_15 1_555 1_555
H40_15 C85_15 1_555 1_555
H41_15 C86_15 1_555 1_555
H44_15 C89_15 1_555 1_555
C92_15 C49_15 1_555 1_555
C93_15 C48_15 1_555 1_555
C94_15 C50_15 1_555 1_555
C97_15 C53_15 1_555 1_555
C100_15 C54_15 1_555 1_555
C103_15 C10_15 1_555 1_555
C104_15 C93_15 1_555 1_555
C105_15 C94_15 1_555 1_555
C108_15 C97_15 1_555 1_555
C111_15 C100_15 1_555 1_555
C114_15 C9_15 1_555 1_555
C115_15 C60_15 1_555 1_555
C116_15 C61_15 1_555 1_555
C119_15 C64_15 1_555 1_555
C122_15 C67_15 1_555 1_555
C125_15 C92_15 1_555 1_555
C126_15 C93_15 1_555 1_555
C127_15 C94_15 1_555 1_555
C130_15 C97_15 1_555 1_555
C133_15 C100_15 1_555 1_555
H47_15 C125_15 1_555 1_555
H48_15 C126_15 1_555 1_555
H49_15 C127_15 1_555 1_555
H52_15 C130_15 1_555 1_555
H55_15 C133_15 1_555 1_555
H58_15 C125_15 1_555 1_555
H59_15 C126_15 1_555 1_555
H60_15 C127_15 1_555 1_555
H63_15 C130_15 1_555 1_555
H66_15 C133_15 1_555 1_555
C136_15 C125_15 1_555 1_555
C137_15 C126_15 1_555 1_555
C138_15 C127_15 1_555 1_555
C141_15 C130_15 1_555 1_555
C144_15 C133_15 1_555 1_555
H69_15 C136_15 1_555 1_555
H70_15 C137_15 1_555 1_555
H71_15 C138_15 1_555 1_555
H74_15 C141_15 1_555 1_555
H77_15 C144_15 1_555 1_555
H80_15 C136_15 1_555 1_555
H81_15 C137_15 1_555 1_555
H82_15 C138_15 1_555 1_555
H85_15 C141_15 1_555 1_555
H88_15 C144_15 1_555 1_555
H91_15 C136_15 1_555 1_555
H92_15 C137_15 1_555 1_555
H93_15 C138_15 1_555 1_555
H96_15 C141_15 1_555 1_555
H99_15 C144_15 1_555 1_555
C147_15 C92_15 1_555 1_555
C148_15 C93_15 1_555 1_555
C149_15 C94_15 1_555 1_555
C152_15 C97_15 1_555 1_555
C155_15 C100_15 1_555 1_555
H102_15 C147_15 1_555 1_555
H103_15 C148_15 1_555 1_555
H104_15 C149_15 1_555 1_555
H107_15 C152_15 1_555 1_555
H110_15 C155_15 1_555 1_555
H113_15 C147_15 1_555 1_555
H114_15 C148_15 1_555 1_555
H115_15 C149_15 1_555 1_555
H118_15 C152_15 1_555 1_555
H121_15 C155_15 1_555 1_555
C158_15 C147_15 1_555 1_555
C159_15 C148_15 1_555 1_555
C160_15 C149_15 1_555 1_555
C163_15 C152_15 1_555 1_555
C166_15 C155_15 1_555 1_555
H124_15 C158_15 1_555 1_555
H125_15 C159_15 1_555 1_555
H126_15 C160_15 1_555 1_555
H129_15 C163_15 1_555 1_555
H132_15 C166_15 1_555 1_555
H135_15 C158_15 1_555 1_555
H136_15 C159_15 1_555 1_555
H137_15 C160_15 1_555 1_555
H140_15 C163_15 1_555 1_555
H143_15 C166_15 1_555 1_555
H146_15 C158_15 1_555 1_555
H147_15 C159_15 1_555 1_555
H148_15 C160_15 1_555 1_555
H151_15 C163_15 1_555 1_555
H154_15 C166_15 1_555 1_555
C6_15 C7_15 1_555 1_555
C9_15 C10_15 1_555 1_555
Pb7 O28_12 1_555 1_555
O22_4 C15_15 1_555 1_555
C59_15 C114_15 1_555 1_555
C70_15 C84_15 1_555 1_555
C71_15 C85_15 1_555 1_555
C72_15 C81_15 1_555 1_555
C75_15 C86_15 1_555 1_555
C78_15 C89_15 1_555 1_555
C92_15 C103_15 1_555 1_555
C103_15 C115_15 1_555 1_555
C104_15 C114_15 1_555 1_555
C104_15 C115_15 1_555 1_555
C105_15 C116_15 1_555 1_555
C105_15 C119_15 1_555 1_555
C108_15 C116_15 1_555 1_555
C108_15 C122_15 1_555 1_555
C111_15 C119_15 1_555 1_555
C111_15 C122_15 1_555 1_555
O3_18 Pb11_2 1_555 1_555
O4_18 Pb11_2 1_555 1_555
Pb10 O3_18 1_555 1_555
Pb9 O3_18 1_555 1_555
Pb11_6 O19_9 1_555 1_555
Pb12_3 O14_14 1_555 1_555
Pb9_2 O29_14 1_555 1_555
Pb12 O15_14 1_555 1_555
Pb9_3 O30_14 1_555 1_555
Pb18_5 O18_10 1_555 1_555
Pb10_3 O33_10 1_555 1_555
Pb16_5 O34_9 1_555 1_555
O7_14 Pb12_2 1_555 1_555
O8_8 Pb10 1_555 1_555
O11_10 Pb9 1_555 1_555
O14_14 C20_16 1_555 1_555
O15_14 C21_16 1_555 1_555
O18_10 C24_10 1_555 1_555
O19_9 C25_10 1_555 1_555
O20_8 Pb11_2 1_555 1_555
O24_14 Pb12_2 1_555 1_555
O26_10 Pb10 1_555 1_555
O29_14 Pb12_3 1_555 1_555
O30_14 Pb12 1_555 1_555
O33_10 Pb18_5 1_555 1_555
O34_9 Pb11_6 1_555 1_555
C15_16 O7_14 1_555 1_555
C17_10 O8_8 1_555 1_555
C20_16 O29_14 1_555 1_555
C21_16 O30_14 1_555 1_555
C24_10 O33_10 1_555 1_555
C25_10 O34_9 1_555 1_555
C26_16 C15_16 1_555 1_555
C28_10 C17_10 1_555 1_555
C31_16 C20_16 1_555 1_555
C32_16 C21_16 1_555 1_555
C35_10 C24_10 1_555 1_555
C36_10 C25_10 1_555 1_555
C37_16 C26_16 1_555 1_555
C39_10 C28_10 1_555 1_555
C42_16 C31_16 1_555 1_555
C43_16 C32_16 1_555 1_555
C46_10 C35_10 1_555 1_555
C47_10 C36_10 1_555 1_555
H14_16 C37_16 1_555 1_555
H16_10 C39_10 1_555 1_555
H19_16 C42_16 1_555 1_555
H20_16 C43_16 1_555 1_555
H23_10 C46_10 1_555 1_555
H24_10 C47_10 1_555 1_555
C50_16 C37_16 1_555 1_555
C52_10 C39_10 1_555 1_555
C53_16 C42_16 1_555 1_555
C54_16 C43_16 1_555 1_555
C57_10 C46_10 1_555 1_555
C58_10 C47_10 1_555 1_555
C61_16 C50_16 1_555 1_555
C63_10 C52_10 1_555 1_555
C64_16 C54_16 1_555 1_555
C66_10 C58_10 1_555 1_555
C67_16 C53_16 1_555 1_555
C69_10 C57_10 1_555 1_555
C72_16 C61_16 1_555 1_555
C74_10 C63_10 1_555 1_555
C75_16 C64_16 1_555 1_555
C77_10 C66_10 1_555 1_555
C78_16 C67_16 1_555 1_555
C80_10 C69_10 1_555 1_555
H27_16 C72_16 1_555 1_555
H29_10 C74_10 1_555 1_555
H30_16 C75_16 1_555 1_555
H32_10 C77_10 1_555 1_555
H33_16 C78_16 1_555 1_555
H35_10 C80_10 1_555 1_555
C81_16 C26_16 1_555 1_555
C83_10 C28_10 1_555 1_555
C86_16 C32_16 1_555 1_555
C88_10 C36_10 1_555 1_555
C89_16 C31_16 1_555 1_555
C91_10 C35_10 1_555 1_555
H36_16 C81_16 1_555 1_555
H38_10 C83_10 1_555 1_555
H41_16 C86_16 1_555 1_555
H43_10 C88_10 1_555 1_555
H44_16 C89_16 1_555 1_555
H46_10 C91_10 1_555 1_555
C94_16 C50_16 1_555 1_555
C96_10 C52_10 1_555 1_555
C97_16 C53_16 1_555 1_555
C99_10 C57_10 1_555 1_555
C100_16 C54_16 1_555 1_555
C102_10 C58_10 1_555 1_555
C105_16 C94_16 1_555 1_555
C107_10 C96_10 1_555 1_555
C108_16 C97_16 1_555 1_555
C110_10 C99_10 1_555 1_555
C111_16 C100_16 1_555 1_555
C113_10 C102_10 1_555 1_555
C116_16 C61_16 1_555 1_555
C118_10 C63_10 1_555 1_555
C119_16 C64_16 1_555 1_555
C121_10 C66_10 1_555 1_555
C122_16 C67_16 1_555 1_555
C124_10 C69_10 1_555 1_555
C127_16 C94_16 1_555 1_555
C129_10 C96_10 1_555 1_555
C130_16 C97_16 1_555 1_555
C132_10 C99_10 1_555 1_555
C133_16 C100_16 1_555 1_555
C135_10 C102_10 1_555 1_555
H49_16 C127_16 1_555 1_555
H51_10 C129_10 1_555 1_555
H52_16 C130_16 1_555 1_555
H54_10 C132_10 1_555 1_555
H55_16 C133_16 1_555 1_555
H57_10 C135_10 1_555 1_555
H60_16 C127_16 1_555 1_555
H62_10 C129_10 1_555 1_555
H63_16 C130_16 1_555 1_555
H65_10 C132_10 1_555 1_555
H66_16 C133_16 1_555 1_555
H68_10 C135_10 1_555 1_555
C138_16 C127_16 1_555 1_555
C140_10 C129_10 1_555 1_555
C141_16 C130_16 1_555 1_555
C143_10 C132_10 1_555 1_555
C144_16 C133_16 1_555 1_555
C146_10 C135_10 1_555 1_555
H71_16 C138_16 1_555 1_555
H73_10 C140_10 1_555 1_555
H74_16 C141_16 1_555 1_555
H76_10 C143_10 1_555 1_555
H77_16 C144_16 1_555 1_555
H79_10 C146_10 1_555 1_555
H82_16 C138_16 1_555 1_555
H84_10 C140_10 1_555 1_555
H85_16 C141_16 1_555 1_555
H87_10 C143_10 1_555 1_555
H88_16 C144_16 1_555 1_555
H90_10 C146_10 1_555 1_555
H93_16 C138_16 1_555 1_555
H95_10 C140_10 1_555 1_555
H96_16 C141_16 1_555 1_555
H98_10 C143_10 1_555 1_555
H99_16 C144_16 1_555 1_555
H101_10 C146_10 1_555 1_555
C149_16 C94_16 1_555 1_555
C151_10 C96_10 1_555 1_555
C152_16 C97_16 1_555 1_555
C154_10 C99_10 1_555 1_555
C155_16 C100_16 1_555 1_555
C157_10 C102_10 1_555 1_555
H104_16 C149_16 1_555 1_555
H106_10 C151_10 1_555 1_555
H107_16 C152_16 1_555 1_555
H109_10 C154_10 1_555 1_555
H110_16 C155_16 1_555 1_555
H112_10 C157_10 1_555 1_555
H115_16 C149_16 1_555 1_555
H117_10 C151_10 1_555 1_555
H118_16 C152_16 1_555 1_555
H120_10 C154_10 1_555 1_555
H121_16 C155_16 1_555 1_555
H123_10 C157_10 1_555 1_555
C160_16 C149_16 1_555 1_555
C162_10 C151_10 1_555 1_555
C163_16 C152_16 1_555 1_555
C165_10 C154_10 1_555 1_555
C166_16 C155_16 1_555 1_555
C168_10 C157_10 1_555 1_555
H126_16 C160_16 1_555 1_555
H128_10 C162_10 1_555 1_555
H129_16 C163_16 1_555 1_555
H131_10 C165_10 1_555 1_555
H132_16 C166_16 1_555 1_555
H134_10 C168_10 1_555 1_555
H137_16 C160_16 1_555 1_555
H139_10 C162_10 1_555 1_555
H140_16 C163_16 1_555 1_555
H142_10 C165_10 1_555 1_555
H143_16 C166_16 1_555 1_555
H145_10 C168_10 1_555 1_555
H148_16 C160_16 1_555 1_555
H150_10 C162_10 1_555 1_555
H151_16 C163_16 1_555 1_555
H153_10 C165_10 1_555 1_555
H154_16 C166_16 1_555 1_555
H156_10 C168_10 1_555 1_555
O35_18 Pb12_2 1_555 1_555
O36_18 Pb10 1_555 1_555
O37_18 Pb9 1_555 1_555
O3_18 Pb12_2 1_555 1_555
Pb10 O20_8 1_555 1_555
Pb9 O24_14 1_555 1_555
Pb9 O26_10 1_555 1_555
O20_8 C17_10 1_555 1_555
O24_14 C15_16 1_555 1_555
C72_16 C81_16 1_555 1_555
C74_10 C83_10 1_555 1_555
C75_16 C86_16 1_555 1_555
C77_10 C88_10 1_555 1_555
C78_16 C89_16 1_555 1_555
C80_10 C91_10 1_555 1_555
C105_16 C116_16 1_555 1_555
C105_16 C119_16 1_555 1_555
C107_10 C118_10 1_555 1_555
C107_10 C121_10 1_555 1_555
C108_16 C116_16 1_555 1_555
C108_16 C122_16 1_555 1_555
C110_10 C118_10 1_555 1_555
C110_10 C124_10 1_555 1_555
C111_16 C119_16 1_555 1_555
C111_16 C122_16 1_555 1_555
C113_10 C121_10 1_555 1_555
C113_10 C124_10 1_555 1_555
O3_19 Pb16_5 1_555 1_555
O4_19 Pb16_5 1_555 1_555
Pb11_6 O3_19 1_555 1_555
Pb13_4 O3_19 1_555 1_555
O6_11 Pb17_5 1_555 1_555
O23_11 Pb17_5 1_555 1_555
O35_19 Pb17_5 1_555 1_555
O36_19 Pb11_6 1_555 1_555
O37_19 Pb13_4 1_555 1_555
O3_19 Pb17_5 1_555 1_555
Pb13_4 O23_11 1_555 1_555
O3_20 Pb16_6 1_555 1_555
O4_20 Pb16_6 1_555 1_555
Pb11_7 O3_20 1_555 1_555
Pb13_5 O3_20 1_555 1_555
O5_9 Pb16_6 1_555 1_555
O21_9 Pb16_6 1_555 1_555
O35_20 Pb17_6 1_555 1_555
O36_20 Pb11_7 1_555 1_555
O37_20 Pb13_5 1_555 1_555
O3_20 Pb17_6 1_555 1_555
Pb17_6 O21_9 1_555 1_555
O3_21 Pb12_4 1_555 1_555
O4_21 Pb12_4 1_555 1_555
Pb11_4 O3_21 1_555 1_555
Pb13_2 O3_21 1_555 1_555
O5_10 Pb12_4 1_555 1_555
O21_10 Pb12_4 1_555 1_555
O35_21 Pb9_8 1_555 1_555
O36_21 Pb11_4 1_555 1_555
O37_21 Pb13_2 1_555 1_555
O3_21 Pb9_8 1_555 1_555
Pb9_8 O21_10 1_555 1_555
Pb12_5 O1_14 1_555 1_555
O1_14 C1_16 1_555 1_555
O2_14 Pb12_5 1_555 1_555
O3_22 Pb12_5 1_555 1_555
C1_16 O2_14 1_555 1_555
C2_16 C1_16 1_555 1_555
C3_16 C2_16 1_555 1_555
H1_16 C3_16 1_555 1_555
C4_16 C3_16 1_555 1_555
C5_16 C4_16 1_555 1_555
C6_16 C5_16 1_555 1_555
H2_16 C6_16 1_555 1_555
C7_16 C2_16 1_555 1_555
H3_16 C7_16 1_555 1_555
C8_16 C4_16 1_555 1_555
C9_16 C8_16 1_555 1_555
C10_16 C5_16 1_555 1_555
C11_16 C8_16 1_555 1_555
H4_16 C11_16 1_555 1_555
H5_16 C11_16 1_555 1_555
C12_16 C11_16 1_555 1_555
H6_16 C12_16 1_555 1_555
H7_16 C12_16 1_555 1_555
H8_16 C12_16 1_555 1_555
C13_16 C8_16 1_555 1_555
H9_16 C13_16 1_555 1_555
H10_16 C13_16 1_555 1_555
C14_16 C13_16 1_555 1_555
H11_16 C14_16 1_555 1_555
H12_16 C14_16 1_555 1_555
H13_16 C14_16 1_555 1_555
O4_22 Pb12_5 1_555 1_555
Pb9_9 O2_14 1_555 1_555
Pb11_5 O3_22 1_555 1_555
Pb13_3 O3_22 1_555 1_555
Pb12_7 O13_13 1_555 1_555
Pb9_5 O19_10 1_555 1_555
Pb10_6 O34_10 1_555 1_555
O8_9 Pb11_5 1_555 1_555
O6_10 C18_16 1_555 1_555
O13_13 C19_16 1_555 1_555
O6_5 C24_11 1_555 1_555
O19_10 C25_11 1_555 1_555
O20_9 Pb12_5 1_555 1_555
O28_13 Pb12_7 1_555 1_555
O34_10 Pb9_5 1_555 1_555
C17_11 O8_9 1_555 1_555
C18_16 O23_10 1_555 1_555
C19_16 O28_13 1_555 1_555
C24_11 O23_5 1_555 1_555
C25_11 O34_10 1_555 1_555
C28_11 C17_11 1_555 1_555
C29_16 C18_16 1_555 1_555
C30_16 C19_16 1_555 1_555
C35_11 C24_11 1_555 1_555
C36_11 C25_11 1_555 1_555
C39_11 C28_11 1_555 1_555
C40_16 C29_16 1_555 1_555
C41_16 C30_16 1_555 1_555
C46_11 C35_11 1_555 1_555
C47_11 C36_11 1_555 1_555
H16_11 C39_11 1_555 1_555
H17_16 C40_16 1_555 1_555
H18_16 C41_16 1_555 1_555
H23_11 C46_11 1_555 1_555
H24_11 C47_11 1_555 1_555
C48_16 C40_16 1_555 1_555
C49_16 C41_16 1_555 1_555
C52_11 C39_11 1_555 1_555
C57_11 C46_11 1_555 1_555
C58_11 C47_11 1_555 1_555
C59_16 C48_16 1_555 1_555
C60_16 C49_16 1_555 1_555
C63_11 C52_11 1_555 1_555
C66_11 C58_11 1_555 1_555
C69_11 C57_11 1_555 1_555
C70_16 C59_16 1_555 1_555
C71_16 C60_16 1_555 1_555
C74_11 C63_11 1_555 1_555
C77_11 C66_11 1_555 1_555
C80_11 C69_11 1_555 1_555
H25_16 C70_16 1_555 1_555
H26_16 C71_16 1_555 1_555
H29_11 C74_11 1_555 1_555
H32_11 C77_11 1_555 1_555
H35_11 C80_11 1_555 1_555
C83_11 C28_11 1_555 1_555
C84_16 C29_16 1_555 1_555
C85_16 C30_16 1_555 1_555
C88_11 C36_11 1_555 1_555
C91_11 C35_11 1_555 1_555
H38_11 C83_11 1_555 1_555
H39_16 C84_16 1_555 1_555
H40_16 C85_16 1_555 1_555
H43_11 C88_11 1_555 1_555
H46_11 C91_11 1_555 1_555
C92_16 C49_16 1_555 1_555
C93_16 C48_16 1_555 1_555
C96_11 C52_11 1_555 1_555
C99_11 C57_11 1_555 1_555
C102_11 C58_11 1_555 1_555
C103_16 C10_16 1_555 1_555
C104_16 C93_16 1_555 1_555
C107_11 C96_11 1_555 1_555
C110_11 C99_11 1_555 1_555
C113_11 C102_11 1_555 1_555
C114_16 C9_16 1_555 1_555
C115_16 C60_16 1_555 1_555
C118_11 C63_11 1_555 1_555
C121_11 C66_11 1_555 1_555
C124_11 C69_11 1_555 1_555
C125_16 C92_16 1_555 1_555
C126_16 C93_16 1_555 1_555
C129_11 C96_11 1_555 1_555
C132_11 C99_11 1_555 1_555
C135_11 C102_11 1_555 1_555
H47_16 C125_16 1_555 1_555
H48_16 C126_16 1_555 1_555
H51_11 C129_11 1_555 1_555
H54_11 C132_11 1_555 1_555
H57_11 C135_11 1_555 1_555
H58_16 C125_16 1_555 1_555
H59_16 C126_16 1_555 1_555
H62_11 C129_11 1_555 1_555
H65_11 C132_11 1_555 1_555
H68_11 C135_11 1_555 1_555
C136_16 C125_16 1_555 1_555
C137_16 C126_16 1_555 1_555
C140_11 C129_11 1_555 1_555
C143_11 C132_11 1_555 1_555
C146_11 C135_11 1_555 1_555
H69_16 C136_16 1_555 1_555
H70_16 C137_16 1_555 1_555
H73_11 C140_11 1_555 1_555
H76_11 C143_11 1_555 1_555
H79_11 C146_11 1_555 1_555
H80_16 C136_16 1_555 1_555
H81_16 C137_16 1_555 1_555
H84_11 C140_11 1_555 1_555
H87_11 C143_11 1_555 1_555
H90_11 C146_11 1_555 1_555
H91_16 C136_16 1_555 1_555
H92_16 C137_16 1_555 1_555
H95_11 C140_11 1_555 1_555
H98_11 C143_11 1_555 1_555
H101_11 C146_11 1_555 1_555
C147_16 C92_16 1_555 1_555
C148_16 C93_16 1_555 1_555
C151_11 C96_11 1_555 1_555
C154_11 C99_11 1_555 1_555
C157_11 C102_11 1_555 1_555
H102_16 C147_16 1_555 1_555
H103_16 C148_16 1_555 1_555
H106_11 C151_11 1_555 1_555
H109_11 C154_11 1_555 1_555
H112_11 C157_11 1_555 1_555
H113_16 C147_16 1_555 1_555
H114_16 C148_16 1_555 1_555
H117_11 C151_11 1_555 1_555
H120_11 C154_11 1_555 1_555
H123_11 C157_11 1_555 1_555
C158_16 C147_16 1_555 1_555
C159_16 C148_16 1_555 1_555
C162_11 C151_11 1_555 1_555
C165_11 C154_11 1_555 1_555
C168_11 C157_11 1_555 1_555
H124_16 C158_16 1_555 1_555
H125_16 C159_16 1_555 1_555
H128_11 C162_11 1_555 1_555
H131_11 C165_11 1_555 1_555
H134_11 C168_11 1_555 1_555
H135_16 C158_16 1_555 1_555
H136_16 C159_16 1_555 1_555
H139_11 C162_11 1_555 1_555
H142_11 C165_11 1_555 1_555
H145_11 C168_11 1_555 1_555
H146_16 C158_16 1_555 1_555
H147_16 C159_16 1_555 1_555
H150_11 C162_11 1_555 1_555
H153_11 C165_11 1_555 1_555
H156_11 C168_11 1_555 1_555
O35_22 Pb9_9 1_555 1_555
O36_22 Pb11_5 1_555 1_555
O37_22 Pb13_3 1_555 1_555
O3_22 Pb9_9 1_555 1_555
C6_16 C7_16 1_555 1_555
C9_16 C10_16 1_555 1_555
Pb11_5 O20_9 1_555 1_555
Pb9_5 O28_13 1_555 1_555
O20_9 C17_11 1_555 1_555
C59_16 C114_16 1_555 1_555
C70_16 C84_16 1_555 1_555
C71_16 C85_16 1_555 1_555
C74_11 C83_11 1_555 1_555
C77_11 C88_11 1_555 1_555
C80_11 C91_11 1_555 1_555
C92_16 C103_16 1_555 1_555
C103_16 C115_16 1_555 1_555
C104_16 C114_16 1_555 1_555
C104_16 C115_16 1_555 1_555
C107_11 C118_11 1_555 1_555
C107_11 C121_11 1_555 1_555
C110_11 C118_11 1_555 1_555
C110_11 C124_11 1_555 1_555
C113_11 C121_11 1_555 1_555
C113_11 C124_11 1_555 1_555
O3_23 Pb10_5 1_555 1_555
O4_23 Pb10_5 1_555 1_555
Pb9_4 O3_23 1_555 1_555
Pb12_6 O3_23 1_555 1_555
Pb8_4 O16_13 1_555 1_555
O10_13 Pb12_6 1_555 1_555
O16_13 C22_14 1_555 1_555
O5_9 C23_14 1_555 1_555
O25_13 Pb9_4 1_555 1_555
O31_13 Pb18_4 1_555 1_555
C16_14 O10_13 1_555 1_555
C22_14 O31_13 1_555 1_555
C23_14 O21_9 1_555 1_555
C27_14 C16_14 1_555 1_555
C33_14 C22_14 1_555 1_555
C34_14 C23_14 1_555 1_555
C38_14 C27_14 1_555 1_555
C44_14 C33_14 1_555 1_555
C45_14 C34_14 1_555 1_555
H15_14 C38_14 1_555 1_555
H21_14 C44_14 1_555 1_555
H22_14 C45_14 1_555 1_555
C51_14 C38_14 1_555 1_555
C55_14 C44_14 1_555 1_555
C56_14 C45_14 1_555 1_555
C62_14 C51_14 1_555 1_555
C65_14 C56_14 1_555 1_555
C68_14 C55_14 1_555 1_555
C73_14 C62_14 1_555 1_555
C76_14 C65_14 1_555 1_555
C79_14 C68_14 1_555 1_555
H28_14 C73_14 1_555 1_555
H31_14 C76_14 1_555 1_555
H34_14 C79_14 1_555 1_555
C82_14 C27_14 1_555 1_555
C87_14 C34_14 1_555 1_555
C90_14 C33_14 1_555 1_555
H37_14 C82_14 1_555 1_555
H42_14 C87_14 1_555 1_555
H45_14 C90_14 1_555 1_555
C95_14 C51_14 1_555 1_555
C98_14 C55_14 1_555 1_555
C101_14 C56_14 1_555 1_555
C106_14 C95_14 1_555 1_555
C109_14 C98_14 1_555 1_555
C112_14 C101_14 1_555 1_555
C117_14 C62_14 1_555 1_555
C120_14 C65_14 1_555 1_555
C123_14 C68_14 1_555 1_555
C128_14 C95_14 1_555 1_555
C131_14 C98_14 1_555 1_555
C134_14 C101_14 1_555 1_555
H50_14 C128_14 1_555 1_555
H53_14 C131_14 1_555 1_555
H56_14 C134_14 1_555 1_555
H61_14 C128_14 1_555 1_555
H64_14 C131_14 1_555 1_555
H67_14 C134_14 1_555 1_555
C139_14 C128_14 1_555 1_555
C142_14 C131_14 1_555 1_555
C145_14 C134_14 1_555 1_555
H72_14 C139_14 1_555 1_555
H75_14 C142_14 1_555 1_555
H78_14 C145_14 1_555 1_555
H83_14 C139_14 1_555 1_555
H86_14 C142_14 1_555 1_555
H89_14 C145_14 1_555 1_555
H94_14 C139_14 1_555 1_555
H97_14 C142_14 1_555 1_555
H100_14 C145_14 1_555 1_555
C150_14 C95_14 1_555 1_555
C153_14 C98_14 1_555 1_555
C156_14 C101_14 1_555 1_555
H105_14 C150_14 1_555 1_555
H108_14 C153_14 1_555 1_555
H111_14 C156_14 1_555 1_555
H116_14 C150_14 1_555 1_555
H119_14 C153_14 1_555 1_555
H122_14 C156_14 1_555 1_555
C161_14 C150_14 1_555 1_555
C164_14 C153_14 1_555 1_555
C167_14 C156_14 1_555 1_555
H127_14 C161_14 1_555 1_555
H130_14 C164_14 1_555 1_555
H133_14 C167_14 1_555 1_555
H138_14 C161_14 1_555 1_555
H141_14 C164_14 1_555 1_555
H144_14 C167_14 1_555 1_555
H149_14 C161_14 1_555 1_555
H152_14 C164_14 1_555 1_555
H155_14 C167_14 1_555 1_555
O35_23 Pb6_6 1_555 1_555
O36_23 Pb9_4 1_555 1_555
O37_23 Pb12_6 1_555 1_555
O3_23 Pb6_6 1_555 1_555
Pb12_6 O25_13 1_555 1_555
Pb8_4 O31_13 1_555 1_555
O25_13 C16_14 1_555 1_555
C73_14 C82_14 1_555 1_555
C76_14 C87_14 1_555 1_555
C79_14 C90_14 1_555 1_555
C106_14 C117_14 1_555 1_555
C106_14 C120_14 1_555 1_555
C109_14 C117_14 1_555 1_555
C109_14 C123_14 1_555 1_555
C112_14 C120_14 1_555 1_555
C112_14 C123_14 1_555 1_555
O3_24 Pb10_6 1_555 1_555
O4_24 Pb10_6 1_555 1_555
Pb9_5 O3_24 1_555 1_555
Pb12_7 O3_24 1_555 1_555
O6_12 Pb6_7 1_555 1_555
O23_12 Pb6_7 1_555 1_555
O35_24 Pb6_7 1_555 1_555
O36_24 Pb9_5 1_555 1_555
O37_24 Pb12_7 1_555 1_555
O3_24 Pb6_7 1_555 1_555
Pb12_7 O23_12 1_555 1_555
Pb10_3 O1_15 1_555 1_555
O1_15 C1_17 1_555 1_555
O2_15 Pb10_3 1_555 1_555
O3_25 Pb10_3 1_555 1_555
C1_17 O2_15 1_555 1_555
C2_17 C1_17 1_555 1_555
C3_17 C2_17 1_555 1_555
H1_17 C3_17 1_555 1_555
C4_17 C3_17 1_555 1_555
C5_17 C4_17 1_555 1_555
C6_17 C5_17 1_555 1_555
H2_17 C6_17 1_555 1_555
C7_17 C2_17 1_555 1_555
H3_17 C7_17 1_555 1_555
C8_17 C4_17 1_555 1_555
C9_17 C8_17 1_555 1_555
C10_17 C5_17 1_555 1_555
C11_17 C8_17 1_555 1_555
H4_17 C11_17 1_555 1_555
H5_17 C11_17 1_555 1_555
C12_17 C11_17 1_555 1_555
H6_17 C12_17 1_555 1_555
H7_17 C12_17 1_555 1_555
H8_17 C12_17 1_555 1_555
C13_17 C8_17 1_555 1_555
H9_17 C13_17 1_555 1_555
H10_17 C13_17 1_555 1_555
C14_17 C13_17 1_555 1_555
H11_17 C14_17 1_555 1_555
H12_17 C14_17 1_555 1_555
H13_17 C14_17 1_555 1_555
O4_25 Pb10_3 1_555 1_555
Pb7_5 O2_15 1_555 1_555
Pb18_5 O3_25 1_555 1_555
Pb8_5 O3_25 1_555 1_555
O11_7 C18_17 1_555 1_555
O11_10 C19_17 1_555 1_555
C18_17 O26_7 1_555 1_555
C19_17 O26_10 1_555 1_555
C29_17 C18_17 1_555 1_555
C30_17 C19_17 1_555 1_555
C40_17 C29_17 1_555 1_555
C41_17 C30_17 1_555 1_555
H17_17 C40_17 1_555 1_555
H18_17 C41_17 1_555 1_555
C48_17 C40_17 1_555 1_555
C49_17 C41_17 1_555 1_555
C59_17 C48_17 1_555 1_555
C60_17 C49_17 1_555 1_555
C70_17 C59_17 1_555 1_555
C71_17 C60_17 1_555 1_555
H25_17 C70_17 1_555 1_555
H26_17 C71_17 1_555 1_555
C84_17 C29_17 1_555 1_555
C85_17 C30_17 1_555 1_555
H39_17 C84_17 1_555 1_555
H40_17 C85_17 1_555 1_555
C92_17 C49_17 1_555 1_555
C93_17 C48_17 1_555 1_555
C103_17 C10_17 1_555 1_555
C104_17 C93_17 1_555 1_555
C114_17 C9_17 1_555 1_555
C115_17 C60_17 1_555 1_555
C125_17 C92_17 1_555 1_555
C126_17 C93_17 1_555 1_555
H47_17 C125_17 1_555 1_555
H48_17 C126_17 1_555 1_555
H58_17 C125_17 1_555 1_555
H59_17 C126_17 1_555 1_555
C136_17 C125_17 1_555 1_555
C137_17 C126_17 1_555 1_555
H69_17 C136_17 1_555 1_555
H70_17 C137_17 1_555 1_555
H80_17 C136_17 1_555 1_555
H81_17 C137_17 1_555 1_555
H91_17 C136_17 1_555 1_555
H92_17 C137_17 1_555 1_555
C147_17 C92_17 1_555 1_555
C148_17 C93_17 1_555 1_555
H102_17 C147_17 1_555 1_555
H103_17 C148_17 1_555 1_555
H113_17 C147_17 1_555 1_555
H114_17 C148_17 1_555 1_555
C158_17 C147_17 1_555 1_555
C159_17 C148_17 1_555 1_555
H124_17 C158_17 1_555 1_555
H125_17 C159_17 1_555 1_555
H135_17 C158_17 1_555 1_555
H136_17 C159_17 1_555 1_555
H146_17 C158_17 1_555 1_555
H147_17 C159_17 1_555 1_555
O35_25 Pb7_5 1_555 1_555
O36_25 Pb18_5 1_555 1_555
O37_25 Pb8_5 1_555 1_555
O3_25 Pb7_5 1_555 1_555
C6_17 C7_17 1_555 1_555
C9_17 C10_17 1_555 1_555
C59_17 C114_17 1_555 1_555
C70_17 C84_17 1_555 1_555
C71_17 C85_17 1_555 1_555
C92_17 C103_17 1_555 1_555
C103_17 C115_17 1_555 1_555
C104_17 C114_17 1_555 1_555
C104_17 C115_17 1_555 1_555
O3_26 Pb10_4 1_555 1_555
O4_26 Pb10_4 1_555 1_555
Pb18_6 O3_26 1_555 1_555
Pb8_6 O3_26 1_555 1_555
Pb16_2 O16_14 1_555 1_555
O10_14 Pb8_6 1_555 1_555
O16_14 C22_15 1_555 1_555
O5_10 C23_15 1_555 1_555
O25_14 Pb18_6 1_555 1_555
O31_14 Pb17_2 1_555 1_555
C16_15 O10_14 1_555 1_555
C22_15 O31_14 1_555 1_555
C23_15 O21_10 1_555 1_555
C27_15 C16_15 1_555 1_555
C33_15 C22_15 1_555 1_555
C34_15 C23_15 1_555 1_555
C38_15 C27_15 1_555 1_555
C44_15 C33_15 1_555 1_555
C45_15 C34_15 1_555 1_555
H15_15 C38_15 1_555 1_555
H21_15 C44_15 1_555 1_555
H22_15 C45_15 1_555 1_555
C51_15 C38_15 1_555 1_555
C55_15 C44_15 1_555 1_555
C56_15 C45_15 1_555 1_555
C62_15 C51_15 1_555 1_555
C65_15 C56_15 1_555 1_555
C68_15 C55_15 1_555 1_555
C73_15 C62_15 1_555 1_555
C76_15 C65_15 1_555 1_555
C79_15 C68_15 1_555 1_555
H28_15 C73_15 1_555 1_555
H31_15 C76_15 1_555 1_555
H34_15 C79_15 1_555 1_555
C82_15 C27_15 1_555 1_555
C87_15 C34_15 1_555 1_555
C90_15 C33_15 1_555 1_555
H37_15 C82_15 1_555 1_555
H42_15 C87_15 1_555 1_555
H45_15 C90_15 1_555 1_555
C95_15 C51_15 1_555 1_555
C98_15 C55_15 1_555 1_555
C101_15 C56_15 1_555 1_555
C106_15 C95_15 1_555 1_555
C109_15 C98_15 1_555 1_555
C112_15 C101_15 1_555 1_555
C117_15 C62_15 1_555 1_555
C120_15 C65_15 1_555 1_555
C123_15 C68_15 1_555 1_555
C128_15 C95_15 1_555 1_555
C131_15 C98_15 1_555 1_555
C134_15 C101_15 1_555 1_555
H50_15 C128_15 1_555 1_555
H53_15 C131_15 1_555 1_555
H56_15 C134_15 1_555 1_555
H61_15 C128_15 1_555 1_555
H64_15 C131_15 1_555 1_555
H67_15 C134_15 1_555 1_555
C139_15 C128_15 1_555 1_555
C142_15 C131_15 1_555 1_555
C145_15 C134_15 1_555 1_555
H72_15 C139_15 1_555 1_555
H75_15 C142_15 1_555 1_555
H78_15 C145_15 1_555 1_555
H83_15 C139_15 1_555 1_555
H86_15 C142_15 1_555 1_555
H89_15 C145_15 1_555 1_555
H94_15 C139_15 1_555 1_555
H97_15 C142_15 1_555 1_555
H100_15 C145_15 1_555 1_555
C150_15 C95_15 1_555 1_555
C153_15 C98_15 1_555 1_555
C156_15 C101_15 1_555 1_555
H105_15 C150_15 1_555 1_555
H108_15 C153_15 1_555 1_555
H111_15 C156_15 1_555 1_555
H116_15 C150_15 1_555 1_555
H119_15 C153_15 1_555 1_555
H122_15 C156_15 1_555 1_555
C161_15 C150_15 1_555 1_555
C164_15 C153_15 1_555 1_555
C167_15 C156_15 1_555 1_555
H127_15 C161_15 1_555 1_555
H130_15 C164_15 1_555 1_555
H133_15 C167_15 1_555 1_555
H138_15 C161_15 1_555 1_555
H141_15 C164_15 1_555 1_555
H144_15 C167_15 1_555 1_555
H149_15 C161_15 1_555 1_555
H152_15 C164_15 1_555 1_555
H155_15 C167_15 1_555 1_555
O35_26 Pb7_6 1_555 1_555
O36_26 Pb18_6 1_555 1_555
O37_26 Pb8_6 1_555 1_555
O3_26 Pb7_6 1_555 1_555
Pb8_6 O25_14 1_555 1_555
Pb16_2 O31_14 1_555 1_555
O25_14 C16_15 1_555 1_555
C73_15 C82_15 1_555 1_555
C76_15 C87_15 1_555 1_555
C79_15 C90_15 1_555 1_555
C106_15 C117_15 1_555 1_555
C106_15 C120_15 1_555 1_555
C109_15 C117_15 1_555 1_555
C109_15 C123_15 1_555 1_555
C112_15 C120_15 1_555 1_555
C112_15 C123_15 1_555 1_555
O9_3 C22_16 1_555 1_555
O9_2 C23_16 1_555 1_555
C16_16 O9 1_555 1_555
C22_16 O22_3 1_555 1_555
C23_16 O22_2 1_555 1_555
C27_16 C16_16 1_555 1_555
C33_16 C22_16 1_555 1_555
C34_16 C23_16 1_555 1_555
C38_16 C27_16 1_555 1_555
C44_16 C33_16 1_555 1_555
C45_16 C34_16 1_555 1_555
H15_16 C38_16 1_555 1_555
H21_16 C44_16 1_555 1_555
H22_16 C45_16 1_555 1_555
C51_16 C38_16 1_555 1_555
C55_16 C44_16 1_555 1_555
C56_16 C45_16 1_555 1_555
C62_16 C51_16 1_555 1_555
C65_16 C56_16 1_555 1_555
C68_16 C55_16 1_555 1_555
C73_16 C62_16 1_555 1_555
C76_16 C65_16 1_555 1_555
C79_16 C68_16 1_555 1_555
H28_16 C73_16 1_555 1_555
H31_16 C76_16 1_555 1_555
H34_16 C79_16 1_555 1_555
C82_16 C27_16 1_555 1_555
C87_16 C34_16 1_555 1_555
C90_16 C33_16 1_555 1_555
H37_16 C82_16 1_555 1_555
H42_16 C87_16 1_555 1_555
H45_16 C90_16 1_555 1_555
C95_16 C51_16 1_555 1_555
C98_16 C55_16 1_555 1_555
C101_16 C56_16 1_555 1_555
C106_16 C95_16 1_555 1_555
C109_16 C98_16 1_555 1_555
C112_16 C101_16 1_555 1_555
C117_16 C62_16 1_555 1_555
C120_16 C65_16 1_555 1_555
C123_16 C68_16 1_555 1_555
C128_16 C95_16 1_555 1_555
C131_16 C98_16 1_555 1_555
C134_16 C101_16 1_555 1_555
H50_16 C128_16 1_555 1_555
H53_16 C131_16 1_555 1_555
H56_16 C134_16 1_555 1_555
H61_16 C128_16 1_555 1_555
H64_16 C131_16 1_555 1_555
H67_16 C134_16 1_555 1_555
C139_16 C128_16 1_555 1_555
C142_16 C131_16 1_555 1_555
C145_16 C134_16 1_555 1_555
H72_16 C139_16 1_555 1_555
H75_16 C142_16 1_555 1_555
H78_16 C145_16 1_555 1_555
H83_16 C139_16 1_555 1_555
H86_16 C142_16 1_555 1_555
H89_16 C145_16 1_555 1_555
H94_16 C139_16 1_555 1_555
H97_16 C142_16 1_555 1_555
H100_16 C145_16 1_555 1_555
C150_16 C95_16 1_555 1_555
C153_16 C98_16 1_555 1_555
C156_16 C101_16 1_555 1_555
H105_16 C150_16 1_555 1_555
H108_16 C153_16 1_555 1_555
H111_16 C156_16 1_555 1_555
H116_16 C150_16 1_555 1_555
H119_16 C153_16 1_555 1_555
H122_16 C156_16 1_555 1_555
C161_16 C150_16 1_555 1_555
C164_16 C153_16 1_555 1_555
C167_16 C156_16 1_555 1_555
H127_16 C161_16 1_555 1_555
H130_16 C164_16 1_555 1_555
H133_16 C167_16 1_555 1_555
H138_16 C161_16 1_555 1_555
H141_16 C164_16 1_555 1_555
H144_16 C167_16 1_555 1_555
H149_16 C161_16 1_555 1_555
H152_16 C164_16 1_555 1_555
H155_16 C167_16 1_555 1_555
O22 C16_16 1_555 1_555
C73_16 C82_16 1_555 1_555
C76_16 C87_16 1_555 1_555
C79_16 C90_16 1_555 1_555
C106_16 C117_16 1_555 1_555
C106_16 C120_16 1_555 1_555
C109_16 C117_16 1_555 1_555
C109_16 C123_16 1_555 1_555
C112_16 C120_16 1_555 1_555
C112_16 C123_16 1_555 1_555
O6_12 C1_18 1_555 1_555
C1_18 O23_12 1_555 1_555
C2_18 C1_18 1_555 1_555
C3_18 C2_18 1_555 1_555
H1_18 C3_18 1_555 1_555
C4_18 C3_18 1_555 1_555
C5_18 C4_18 1_555 1_555
C6_18 C5_18 1_555 1_555
H2_18 C6_18 1_555 1_555
C7_18 C2_18 1_555 1_555
H3_18 C7_18 1_555 1_555
C8_18 C4_18 1_555 1_555
C9_18 C8_18 1_555 1_555
C10_18 C5_18 1_555 1_555
C11_18 C8_18 1_555 1_555
H4_18 C11_18 1_555 1_555
H5_18 C11_18 1_555 1_555
C12_18 C11_18 1_555 1_555
H6_18 C12_18 1_555 1_555
H7_18 C12_18 1_555 1_555
H8_18 C12_18 1_555 1_555
C13_18 C8_18 1_555 1_555
H9_18 C13_18 1_555 1_555
H10_18 C13_18 1_555 1_555
C14_18 C13_18 1_555 1_555
H11_18 C14_18 1_555 1_555
H12_18 C14_18 1_555 1_555
H13_18 C14_18 1_555 1_555
O11_9 C18_18 1_555 1_555
O6_6 C19_18 1_555 1_555
C18_18 O26_9 1_555 1_555
C19_18 O23_6 1_555 1_555
C29_18 C18_18 1_555 1_555
C30_18 C19_18 1_555 1_555
C40_18 C29_18 1_555 1_555
C41_18 C30_18 1_555 1_555
H17_18 C40_18 1_555 1_555
H18_18 C41_18 1_555 1_555
C48_18 C40_18 1_555 1_555
C49_18 C41_18 1_555 1_555
C59_18 C48_18 1_555 1_555
C60_18 C49_18 1_555 1_555
C70_18 C59_18 1_555 1_555
C71_18 C60_18 1_555 1_555
H25_18 C70_18 1_555 1_555
H26_18 C71_18 1_555 1_555
C84_18 C29_18 1_555 1_555
C85_18 C30_18 1_555 1_555
H39_18 C84_18 1_555 1_555
H40_18 C85_18 1_555 1_555
C92_18 C49_18 1_555 1_555
C93_18 C48_18 1_555 1_555
C103_18 C10_18 1_555 1_555
C104_18 C93_18 1_555 1_555
C114_18 C9_18 1_555 1_555
C115_18 C60_18 1_555 1_555
C125_18 C92_18 1_555 1_555
C126_18 C93_18 1_555 1_555
H47_18 C125_18 1_555 1_555
H48_18 C126_18 1_555 1_555
H58_18 C125_18 1_555 1_555
H59_18 C126_18 1_555 1_555
C136_18 C125_18 1_555 1_555
C137_18 C126_18 1_555 1_555
H69_18 C136_18 1_555 1_555
H70_18 C137_18 1_555 1_555
H80_18 C136_18 1_555 1_555
H81_18 C137_18 1_555 1_555
H91_18 C136_18 1_555 1_555
H92_18 C137_18 1_555 1_555
C147_18 C92_18 1_555 1_555
C148_18 C93_18 1_555 1_555
H102_18 C147_18 1_555 1_555
H103_18 C148_18 1_555 1_555
H113_18 C147_18 1_555 1_555
H114_18 C148_18 1_555 1_555
C158_18 C147_18 1_555 1_555
C159_18 C148_18 1_555 1_555
H124_18 C158_18 1_555 1_555
H125_18 C159_18 1_555 1_555
H135_18 C158_18 1_555 1_555
H136_18 C159_18 1_555 1_555
H146_18 C158_18 1_555 1_555
H147_18 C159_18 1_555 1_555
C6_18 C7_18 1_555 1_555
C9_18 C10_18 1_555 1_555
C59_18 C114_18 1_555 1_555
C70_18 C84_18 1_555 1_555
C71_18 C85_18 1_555 1_555
C92_18 C103_18 1_555 1_555
C103_18 C115_18 1_555 1_555
C104_18 C114_18 1_555 1_555
C104_18 C115_18 1_555 1_555
O6_8 C24_12 1_555 1_555
O6_11 C25_12 1_555 1_555
C17_12 O11_3 1_555 1_555
C24_12 O23_8 1_555 1_555
C25_12 O23_11 1_555 1_555
C28_12 C17_12 1_555 1_555
C35_12 C24_12 1_555 1_555
C36_12 C25_12 1_555 1_555
C39_12 C28_12 1_555 1_555
C46_12 C35_12 1_555 1_555
C47_12 C36_12 1_555 1_555
H16_12 C39_12 1_555 1_555
H23_12 C46_12 1_555 1_555
H24_12 C47_12 1_555 1_555
C52_12 C39_12 1_555 1_555
C57_12 C46_12 1_555 1_555
C58_12 C47_12 1_555 1_555
C63_12 C52_12 1_555 1_555
C66_12 C58_12 1_555 1_555
C69_12 C57_12 1_555 1_555
C74_12 C63_12 1_555 1_555
C77_12 C66_12 1_555 1_555
C80_12 C69_12 1_555 1_555
H29_12 C74_12 1_555 1_555
H32_12 C77_12 1_555 1_555
H35_12 C80_12 1_555 1_555
C83_12 C28_12 1_555 1_555
C88_12 C36_12 1_555 1_555
C91_12 C35_12 1_555 1_555
H38_12 C83_12 1_555 1_555
H43_12 C88_12 1_555 1_555
H46_12 C91_12 1_555 1_555
C96_12 C52_12 1_555 1_555
C99_12 C57_12 1_555 1_555
C102_12 C58_12 1_555 1_555
C107_12 C96_12 1_555 1_555
C110_12 C99_12 1_555 1_555
C113_12 C102_12 1_555 1_555
C118_12 C63_12 1_555 1_555
C121_12 C66_12 1_555 1_555
C124_12 C69_12 1_555 1_555
C129_12 C96_12 1_555 1_555
C132_12 C99_12 1_555 1_555
C135_12 C102_12 1_555 1_555
H51_12 C129_12 1_555 1_555
H54_12 C132_12 1_555 1_555
H57_12 C135_12 1_555 1_555
H62_12 C129_12 1_555 1_555
H65_12 C132_12 1_555 1_555
H68_12 C135_12 1_555 1_555
C140_12 C129_12 1_555 1_555
C143_12 C132_12 1_555 1_555
C146_12 C135_12 1_555 1_555
H73_12 C140_12 1_555 1_555
H76_12 C143_12 1_555 1_555
H79_12 C146_12 1_555 1_555
H84_12 C140_12 1_555 1_555
H87_12 C143_12 1_555 1_555
H90_12 C146_12 1_555 1_555
H95_12 C140_12 1_555 1_555
H98_12 C143_12 1_555 1_555
H101_12 C146_12 1_555 1_555
C151_12 C96_12 1_555 1_555
C154_12 C99_12 1_555 1_555
C157_12 C102_12 1_555 1_555
H106_12 C151_12 1_555 1_555
H109_12 C154_12 1_555 1_555
H112_12 C157_12 1_555 1_555
H117_12 C151_12 1_555 1_555
H120_12 C154_12 1_555 1_555
H123_12 C157_12 1_555 1_555
C162_12 C151_12 1_555 1_555
C165_12 C154_12 1_555 1_555
C168_12 C157_12 1_555 1_555
H128_12 C162_12 1_555 1_555
H131_12 C165_12 1_555 1_555
H134_12 C168_12 1_555 1_555
H139_12 C162_12 1_555 1_555
H142_12 C165_12 1_555 1_555
H145_12 C168_12 1_555 1_555
H150_12 C162_12 1_555 1_555
H153_12 C165_12 1_555 1_555
H156_12 C168_12 1_555 1_555
O26_3 C17_12 1_555 1_555
C74_12 C83_12 1_555 1_555
C77_12 C88_12 1_555 1_555
C80_12 C91_12 1_555 1_555
C107_12 C118_12 1_555 1_555
C107_12 C121_12 1_555 1_555
C110_12 C118_12 1_555 1_555
C110_12 C124_12 1_555 1_555
C113_12 C121_12 1_555 1_555
C113_12 C124_12 1_555 1_555
O3_27 Pb16 1_555 1_555
O4_27 Pb16 1_555 1_555
Pb6_10 O3_27 1_555 1_555
Pb10_7 O3_27 1_555 1_555
Pb18 O19_11 1_555 1_555
Pb10_2 O18_11 1_555 1_555
Pb11_3 O33_11 1_555 1_555
Pb13_6 O34_11 1_555 1_555
O8_10 Pb6_10 1_555 1_555
O18_11 C24_13 1_555 1_555
O19_11 C25_13 1_555 1_555
O20_10 Pb16 1_555 1_555
O33_11 Pb10_2 1_555 1_555
O34_11 Pb18 1_555 1_555
C17_13 O8_10 1_555 1_555
C24_13 O33_11 1_555 1_555
C25_13 O34_11 1_555 1_555
C28_13 C17_13 1_555 1_555
C35_13 C24_13 1_555 1_555
C36_13 C25_13 1_555 1_555
C39_13 C28_13 1_555 1_555
C46_13 C35_13 1_555 1_555
C47_13 C36_13 1_555 1_555
H16_13 C39_13 1_555 1_555
H23_13 C46_13 1_555 1_555
H24_13 C47_13 1_555 1_555
C52_13 C39_13 1_555 1_555
C57_13 C46_13 1_555 1_555
C58_13 C47_13 1_555 1_555
C63_13 C52_13 1_555 1_555
C66_13 C58_13 1_555 1_555
C69_13 C57_13 1_555 1_555
C74_13 C63_13 1_555 1_555
C77_13 C66_13 1_555 1_555
C80_13 C69_13 1_555 1_555
H29_13 C74_13 1_555 1_555
H32_13 C77_13 1_555 1_555
H35_13 C80_13 1_555 1_555
C83_13 C28_13 1_555 1_555
C88_13 C36_13 1_555 1_555
C91_13 C35_13 1_555 1_555
H38_13 C83_13 1_555 1_555
H43_13 C88_13 1_555 1_555
H46_13 C91_13 1_555 1_555
C96_13 C52_13 1_555 1_555
C99_13 C57_13 1_555 1_555
C102_13 C58_13 1_555 1_555
C107_13 C96_13 1_555 1_555
C110_13 C99_13 1_555 1_555
C113_13 C102_13 1_555 1_555
C118_13 C63_13 1_555 1_555
C121_13 C66_13 1_555 1_555
C124_13 C69_13 1_555 1_555
C129_13 C96_13 1_555 1_555
C132_13 C99_13 1_555 1_555
C135_13 C102_13 1_555 1_555
H51_13 C129_13 1_555 1_555
H54_13 C132_13 1_555 1_555
H57_13 C135_13 1_555 1_555
H62_13 C129_13 1_555 1_555
H65_13 C132_13 1_555 1_555
H68_13 C135_13 1_555 1_555
C140_13 C129_13 1_555 1_555
C143_13 C132_13 1_555 1_555
C146_13 C135_13 1_555 1_555
H73_13 C140_13 1_555 1_555
H76_13 C143_13 1_555 1_555
H79_13 C146_13 1_555 1_555
H84_13 C140_13 1_555 1_555
H87_13 C143_13 1_555 1_555
H90_13 C146_13 1_555 1_555
H95_13 C140_13 1_555 1_555
H98_13 C143_13 1_555 1_555
H101_13 C146_13 1_555 1_555
C151_13 C96_13 1_555 1_555
C154_13 C99_13 1_555 1_555
C157_13 C102_13 1_555 1_555
H106_13 C151_13 1_555 1_555
H109_13 C154_13 1_555 1_555
H112_13 C157_13 1_555 1_555
H117_13 C151_13 1_555 1_555
H120_13 C154_13 1_555 1_555
H123_13 C157_13 1_555 1_555
C162_13 C151_13 1_555 1_555
C165_13 C154_13 1_555 1_555
C168_13 C157_13 1_555 1_555
H128_13 C162_13 1_555 1_555
H131_13 C165_13 1_555 1_555
H134_13 C168_13 1_555 1_555
H139_13 C162_13 1_555 1_555
H142_13 C165_13 1_555 1_555
H145_13 C168_13 1_555 1_555
H150_13 C162_13 1_555 1_555
H153_13 C165_13 1_555 1_555
H156_13 C168_13 1_555 1_555
O35_27 Pb17 1_555 1_555
O36_27 Pb6_10 1_555 1_555
O37_27 Pb10_7 1_555 1_555
O3_27 Pb17 1_555 1_555
Pb6_10 O20_10 1_555 1_555
O20_10 C17_13 1_555 1_555
C74_13 C83_13 1_555 1_555
C77_13 C88_13 1_555 1_555
C80_13 C91_13 1_555 1_555
C107_13 C118_13 1_555 1_555
C107_13 C121_13 1_555 1_555
C110_13 C118_13 1_555 1_555
C110_13 C124_13 1_555 1_555
C113_13 C121_13 1_555 1_555
C113_13 C124_13 1_555 1_555
O3_28 Pb16_2 1_555 1_555
O4_28 Pb16_2 1_555 1_555
Pb6_11 O3_28 1_555 1_555
Pb10_8 O3_28 1_555 1_555
O35_28 Pb17_2 1_555 1_555
O36_28 Pb6_11 1_555 1_555
O37_28 Pb10_8 1_555 1_555
O3_28 Pb17_2 1_555 1_555
O3_29 Pb13_6 1_555 1_555
O4_29 Pb13_6 1_555 1_555
Pb18 O3_29 1_555 1_555
Pb8 O3_29 1_555 1_555
O35_29 Pb7 1_555 1_555
O36_29 Pb18 1_555 1_555
O37_29 Pb8 1_555 1_555
O3_29 Pb7 1_555 1_555
O3_30 Pb13_7 1_555 1_555
O4_30 Pb13_7 1_555 1_555
Pb18_2 O3_30 1_555 1_555
Pb8_2 O3_30 1_555 1_555
O35_30 Pb7_2 1_555 1_555
O36_30 Pb18_2 1_555 1_555
O37_30 Pb8_2 1_555 1_555
O3_30 Pb7_2 1_555 1_555
O3_31 Pb11_3 1_555 1_555
O4_31 Pb11_3 1_555 1_555
Pb10_2 O3_31 1_555 1_555
Pb9_2 O3_31 1_555 1_555
O35_31 Pb12_3 1_555 1_555
O36_31 Pb10_2 1_555 1_555
O37_31 Pb9_2 1_555 1_555
O3_31 Pb12_3 1_555 1_555
O3_32 Pb10_9 1_555 1_555
O4_32 Pb10_9 1_555 1_555
Pb18_3 O3_32 1_555 1_555
Pb8_3 O3_32 1_555 1_555
Pb13 O19_12 1_555 1_555
Pb6_4 O18_12 1_555 1_555
Pb16_3 O33_12 1_555 1_555
Pb11 O34_12 1_555 1_555
O8_11 Pb18_3 1_555 1_555
O18_12 C24_14 1_555 1_555
O19_12 C25_14 1_555 1_555
O20_11 Pb10_9 1_555 1_555
O33_12 Pb6_4 1_555 1_555
O34_12 Pb13 1_555 1_555
C17_14 O8_11 1_555 1_555
C24_14 O33_12 1_555 1_555
C25_14 O34_12 1_555 1_555
C28_14 C17_14 1_555 1_555
C35_14 C24_14 1_555 1_555
C36_14 C25_14 1_555 1_555
C39_14 C28_14 1_555 1_555
C46_14 C35_14 1_555 1_555
C47_14 C36_14 1_555 1_555
H16_14 C39_14 1_555 1_555
H23_14 C46_14 1_555 1_555
H24_14 C47_14 1_555 1_555
C52_14 C39_14 1_555 1_555
C57_14 C46_14 1_555 1_555
C58_14 C47_14 1_555 1_555
C63_14 C52_14 1_555 1_555
C66_14 C58_14 1_555 1_555
C69_14 C57_14 1_555 1_555
C74_14 C63_14 1_555 1_555
C77_14 C66_14 1_555 1_555
C80_14 C69_14 1_555 1_555
H29_14 C74_14 1_555 1_555
H32_14 C77_14 1_555 1_555
H35_14 C80_14 1_555 1_555
C83_14 C28_14 1_555 1_555
C88_14 C36_14 1_555 1_555
C91_14 C35_14 1_555 1_555
H38_14 C83_14 1_555 1_555
H43_14 C88_14 1_555 1_555
H46_14 C91_14 1_555 1_555
C96_14 C52_14 1_555 1_555
C99_14 C57_14 1_555 1_555
C102_14 C58_14 1_555 1_555
C107_14 C96_14 1_555 1_555
C110_14 C99_14 1_555 1_555
C113_14 C102_14 1_555 1_555
C118_14 C63_14 1_555 1_555
C121_14 C66_14 1_555 1_555
C124_14 C69_14 1_555 1_555
C129_14 C96_14 1_555 1_555
C132_14 C99_14 1_555 1_555
C135_14 C102_14 1_555 1_555
H51_14 C129_14 1_555 1_555
H54_14 C132_14 1_555 1_555
H57_14 C135_14 1_555 1_555
H62_14 C129_14 1_555 1_555
H65_14 C132_14 1_555 1_555
H68_14 C135_14 1_555 1_555
C140_14 C129_14 1_555 1_555
C143_14 C132_14 1_555 1_555
C146_14 C135_14 1_555 1_555
H73_14 C140_14 1_555 1_555
H76_14 C143_14 1_555 1_555
H79_14 C146_14 1_555 1_555
H84_14 C140_14 1_555 1_555
H87_14 C143_14 1_555 1_555
H90_14 C146_14 1_555 1_555
H95_14 C140_14 1_555 1_555
H98_14 C143_14 1_555 1_555
H101_14 C146_14 1_555 1_555
C151_14 C96_14 1_555 1_555
C154_14 C99_14 1_555 1_555
C157_14 C102_14 1_555 1_555
H106_14 C151_14 1_555 1_555
H109_14 C154_14 1_555 1_555
H112_14 C157_14 1_555 1_555
H117_14 C151_14 1_555 1_555
H120_14 C154_14 1_555 1_555
H123_14 C157_14 1_555 1_555
C162_14 C151_14 1_555 1_555
C165_14 C154_14 1_555 1_555
C168_14 C157_14 1_555 1_555
H128_14 C162_14 1_555 1_555
H131_14 C165_14 1_555 1_555
H134_14 C168_14 1_555 1_555
H139_14 C162_14 1_555 1_555
H142_14 C165_14 1_555 1_555
H145_14 C168_14 1_555 1_555
H150_14 C162_14 1_555 1_555
H153_14 C165_14 1_555 1_555
H156_14 C168_14 1_555 1_555
O35_32 Pb7_3 1_555 1_555
O36_32 Pb18_3 1_555 1_555
O37_32 Pb8_3 1_555 1_555
O3_32 Pb7_3 1_555 1_555
Pb18_3 O20_11 1_555 1_555
O20_11 C17_14 1_555 1_555
C74_14 C83_14 1_555 1_555
C77_14 C88_14 1_555 1_555
C80_14 C91_14 1_555 1_555
C107_14 C118_14 1_555 1_555
C107_14 C121_14 1_555 1_555
C110_14 C118_14 1_555 1_555
C110_14 C124_14 1_555 1_555
C113_14 C121_14 1_555 1_555
C113_14 C124_14 1_555 1_555
O3_33 Pb10_10 1_555 1_555
O4_33 Pb10_10 1_555 1_555
Pb18_4 O3_33 1_555 1_555
Pb8_4 O3_33 1_555 1_555
O35_33 Pb7_4 1_555 1_555
O36_33 Pb18_4 1_555 1_555
O37_33 Pb8_4 1_555 1_555
O3_33 Pb7_4 1_555 1_555
O3_34 Pb11 1_555 1_555
O4_34 Pb11 1_555 1_555
Pb13 O3_34 1_555 1_555
Pb9_3 O3_34 1_555 1_555
O35_34 Pb12 1_555 1_555
O36_34 Pb13 1_555 1_555
O37_34 Pb9_3 1_555 1_555
O3_34 Pb12 1_555 1_555
O3_35 Pb16_3 1_555 1_555
O4_35 Pb16_3 1_555 1_555
Pb6_4 O3_35 1_555 1_555
Pb5_4 O3_35 1_555 1_555
O35_35 Pb17_3 1_555 1_555
O36_35 Pb6_4 1_555 1_555
O37_35 Pb5_4 1_555 1_555
O3_35 Pb17_3 1_555 1_555
O3_36 Pb16_4 1_555 1_555
O4_36 Pb16_4 1_555 1_555
Pb6_5 O3_36 1_555 1_555
Pb5_5 O3_36 1_555 1_555
O35_36 Pb17_4 1_555 1_555
O36_36 Pb6_5 1_555 1_555
O37_36 Pb5_5 1_555 1_555
O3_36 Pb17_4 1_555 1_555
O38 H163 1_555 1_555
O38 H164 1_555 1_555
O38_2 H163_2 1_555 1_555
O38_2 H165 1_555 1_555
O38_3 H163_3 1_555 1_555
O38_3 H164_2 1_555 1_555
O38_4 H163_4 1_555 1_555
O38_4 H165_2 1_555 1_555
O38_5 H163_5 1_555 1_555
O38_5 H164_3 1_555 1_555
O38_6 H163_6 1_555 1_555
O38_6 H165_3 1_555 1_555
O38_18 H163_7 1_555 1_555
O38_18 H164_4 1_555 1_555
O38_19 H163_8 1_555 1_555
O38_19 H165_4 1_555 1_555
O38_23 H163_9 1_555 1_555
O38_23 H165_5 1_555 1_555
O38_24 H163_10 1_555 1_555
O38_24 H164_5 1_555 1_555
O38_25 H163_11 1_555 1_555
O38_25 H164_6 1_555 1_555
O38_26 H163_12 1_555 1_555
O38_26 H165_6 1_555 1_555
O38_27 H163_13 1_555 1_555
O38_27 H164_7 1_555 1_555
O38_28 H163_14 1_555 1_555
O38_28 H165_7 1_555 1_555
O38_29 H163_15 1_555 1_555
O38_29 H164_8 1_555 1_555
O38_30 H163_16 1_555 1_555
O38_30 H165_8 1_555 1_555
O38_31 H163_17 1_555 1_555
O38_31 H165_9 1_555 1_555
O38_32 H163_18 1_555 1_555
O38_32 H164_9 1_555 1_555
O38_33 H163_19 1_555 1_555
O38_33 H164_10 1_555 1_555
O38_34 H163_20 1_555 1_555
O38_34 H165_10 1_555 1_555
O38_35 H163_21 1_555 1_555
O38_35 H164_11 1_555 1_555
O38_36 H163_22 1_555 1_555
O38_36 H165_11 1_555 1_555
O38_39 H163_23 1_555 1_555
O38_39 H164_12 1_555 1_555
O38_40 H163_24 1_555 1_555
O38_40 H165_12 1_555 1_555
O38_41 H163_25 1_555 1_555
O38_41 H164_13 1_555 1_555
O38_42 H163_26 1_555 1_555
O38_42 H165_13 1_555 1_555
O38_43 H163_27 1_555 1_555
O38_43 H165_14 1_555 1_555
O38_44 H163_28 1_555 1_555
O38_44 H164_14 1_555 1_555
O38_45 H163_29 1_555 1_555
O38_45 H165_15 1_555 1_555
O38_46 H163_30 1_555 1_555
O38_46 H164_15 1_555 1_555
O38_47 H163_31 1_555 1_555
O38_47 H164_16 1_555 1_555
O38_48 H163_32 1_555 1_555
O38_48 H165_16 1_555 1_555
O38_49 H163_33 1_555 1_555
O38_49 H164_17 1_555 1_555
O38_50 H163_34 1_555 1_555
O38_50 H165_17 1_555 1_555
O38_55 H163_35 1_555 1_555
O38_55 H164_18 1_555 1_555
O38_56 H163_36 1_555 1_555
O38_56 H165_18 1_555 1_555
O38_58 H163_37 1_555 1_555
O38_58 H164_19 1_555 1_555
O38_59 H163_38 1_555 1_555
O38_59 H165_19 1_555 1_555
O38_60 H163_39 1_555 1_555
O38_60 H164_20 1_555 1_555
O38_61 H163_40 1_555 1_555
O38_61 H165_20 1_555 1_555
O38_62 H163_41 1_555 1_555
O38_62 H165_21 1_555 1_555
O38_63 H163_42 1_555 1_555
O38_63 H164_21 1_555 1_555
O38_67 H163_43 1_555 1_555
O38_67 H164_22 1_555 1_555
O38_68 H163_44 1_555 1_555
O38_68 H165_22 1_555 1_555
O38_69 H163_45 1_555 1_555
O38_69 H165_23 1_555 1_555
O38_70 H163_46 1_555 1_555
O38_70 H164_23 1_555 1_555
O38_71 H163_47 1_555 1_555
O38_71 H164_24 1_555 1_555
O38_72 H163_48 1_555 1_555
O38_72 H165_24 1_555 1_555
O38_73 H163_49 1_555 1_555
O38_73 H165_25 1_555 1_555
O38_74 H163_50 1_555 1_555
O38_74 H164_25 1_555 1_555
O38_75 H163_51 1_555 1_555
O38_75 H164_26 1_555 1_555
O38_76 H163_52 1_555 1_555
O38_76 H165_26 1_555 1_555
O38_77 H163_53 1_555 1_555
O38_77 H165_27 1_555 1_555
O38_78 H163_54 1_555 1_555
O38_78 H164_27 1_555 1_555
O38_79 H163_55 1_555 1_555
O38_79 H165_28 1_555 1_555
O38_80 H163_56 1_555 1_555
O38_80 H164_28 1_555 1_555
O38_81 H163_57 1_555 1_555
O38_81 H164_29 1_555 1_555
O38_82 H163_58 1_555 1_555
O38_82 H165_29 1_555 1_555
O38_83 H163_59 1_555 1_555
O38_83 H165_30 1_555 1_555
O38_84 H163_60 1_555 1_555
O38_84 H164_30 1_555 1_555
O38_85 H163_61 1_555 1_555
O38_85 H165_31 1_555 1_555
O38_86 H163_62 1_555 1_555
O38_86 H164_31 1_555 1_555
O38_87 H163_63 1_555 1_555
O38_87 H164_32 1_555 1_555
O38_88 H163_64 1_555 1_555
O38_88 H165_32 1_555 1_555
O38_89 H163_65 1_555 1_555
O38_89 H165_33 1_555 1_555
O38_90 H163_66 1_555 1_555
O38_90 H164_33 1_555 1_555
O38_100 H163_67 1_555 1_555
O38_100 H165_34 1_555 1_555
O38_101 H163_68 1_555 1_555
O38_101 H164_34 1_555 1_555
O38_102 H163_69 1_555 1_555
O38_102 H164_35 1_555 1_555
O38_103 H163_70 1_555 1_555
O38_103 H165_35 1_555 1_555
O38_104 H163_71 1_555 1_555
O38_104 H165_36 1_555 1_555
O38_105 H163_72 1_555 1_555
O38_105 H164_36 1_555 1_555
O38_107 H163_73 1_555 1_555
O38_107 H165_37 1_555 1_555
O38_108 H163_74 1_555 1_555
O38_108 H164_37 1_555 1_555
O38_109 H163_75 1_555 1_555
O38_109 H165_38 1_555 1_555
O38_110 H163_76 1_555 1_555
O38_110 H164_38 1_555 1_555
O38_111 H163_77 1_555 1_555
O38_111 H165_39 1_555 1_555
O38_112 H163_78 1_555 1_555
O38_112 H164_39 1_555 1_555
O38_113 H163_79 1_555 1_555
O38_113 H164_40 1_555 1_555
O38_114 H163_80 1_555 1_555
O38_114 H165_40 1_555 1_555
O38_115 H163_81 1_555 1_555
O38_115 H165_41 1_555 1_555
O38_116 H163_82 1_555 1_555
O38_116 H164_41 1_555 1_555
O38_123 H163_83 1_555 1_555
O38_123 H165_42 1_555 1_555
O38_124 H163_84 1_555 1_555
O38_124 H164_42 1_555 1_555
O38_125 H163_85 1_555 1_555
O38_125 H165_43 1_555 1_555
O38_126 H163_86 1_555 1_555
O38_126 H164_43 1_555 1_555
O38_131 H163_87 1_555 1_555
O38_131 H165_44 1_555 1_555
O38_132 H163_88 1_555 1_555
O38_132 H164_44 1_555 1_555
O38_133 H163_89 1_555 1_555
O38_133 H164_45 1_555 1_555
O38_134 H163_90 1_555 1_555
O38_134 H165_45 1_555 1_555
O38_135 H163_91 1_555 1_555
O38_135 H165_46 1_555 1_555
O38_136 H163_92 1_555 1_555
O38_136 H164_46 1_555 1_555
O38_140 H163_93 1_555 1_555
O38_140 H165_47 1_555 1_555
O38_141 H163_94 1_555 1_555
O38_141 H164_47 1_555 1_555
O38_143 H163_95 1_555 1_555
O38_143 H165_48 1_555 1_555
O38_144 H163_96 1_555 1_555
O38_144 H164_48 1_555 1_555

#END
