
###############################################################################
#
# This file contains modified crystal structure data generated from the
# MOF subset of the Cambridge Structural Database (CSD) v543 
# hosted by the Cambridge Crystallographic Data Centre (CCDC).
#
# This work is licensed under the Creative Commons
# Attribution-NonCommercial-ShareAlike 4.0 International License.
# To view a copy of this license, visit
# http://creativecommons.org/licenses/by-nc-sa/4.0/
# or send a letter to
# Creative Commons, PO Box 1866, Mountain View, CA 94042, USA.
#
# CIF created using the CSD Python API on 29 September 2022
# The structure has been converted into the P1 space group
# The structure has a 3D framework
# The original CSD entry BUGSEC is in the monoclinic crystal system
# The framework has been calculated to contain at least 10.0% void space
# The void calculation uses a probe of radius 1.32A, grid spacing 0.4
#
###############################################################################

data_BUGSEC
_chemical_formula_moiety         '(C28 H60 Eu4 N4 O26 P4)n'
_symmetry_cell_setting           triclinic
_symmetry_space_group_name_H-M   'P 1'
_symmetry_Int_Tables_number      1
_space_group_name_Hall           'P 1'
loop_
_symmetry_equiv_pos_site_id
_symmetry_equiv_pos_as_xyz
1 x,y,z
_cell_length_a                   5.5520(5)
_cell_length_b                   13.3686(14)
_cell_length_c                   20.797(2)
_cell_angle_alpha                90
_cell_angle_beta                 95.577(3)
_cell_angle_gamma                90
_cell_volume                     1536.3
loop_
_atom_site_label
_atom_site_type_symbol
_atom_site_fract_x
_atom_site_fract_y
_atom_site_fract_z
Eu4 Eu 0.12765(7) 0.13267(3) 0.972180(18)
C1 C 0.3078(14) 0.4623(6) 0.6672(4)
H1 H 0.1655 0.4199 0.6633
H2 H 0.2596 0.5270 0.6827
C2 C 0.5291(17) 0.3078(6) 0.7012(4)
H3 H 0.3781 0.2714 0.7014
H4 H 0.5855 0.3012 0.6587
C3 C 0.7217(17) 0.2644(7) 0.7536(4)
H5 H 0.8746 0.2987 0.7514
H6 H 0.7466 0.1940 0.7452
C4 C 0.6385(15) 0.2770(6) 0.8221(4)
H7 H 0.4852 0.2415 0.8245
C5 C 0.6004(17) 0.3906(6) 0.8349(4)
H8 H 0.5484 0.4001 0.8776
H9 H 0.7513 0.4265 0.8326
C6 C 0.4031(17) 0.4318(7) 0.7825(4)
H10 H 0.3746 0.5022 0.7901
H11 H 0.2521 0.3960 0.7848
C7 C 0.8296(14) 0.2358(5) 0.8749(4)
Eu1 Eu 0.12765(7) 0.36733(3) 0.472180(18)
N1 N 0.4905(13) 0.4178(5) 0.7166(3)
O1 O 0.4592(10) 0.3770(4) 0.5556(3)
O2 O 0.1776(10) 0.5186(4) 0.5457(2)
O3 O 0.6240(9) 0.5498(4) 0.5909(2)
O4 O 0.9980(11) 0.1808(4) 0.8591(3)
O5 O 0.8022(10) 0.2512(4) 0.9326(3)
O7 O 0.35(2) 0.216(9) 0.465(6)
H14 H 0.2795 0.1809 0.4346
H15 H 0.3471 0.1847 0.5006
P1 P 0.4101(4) 0.47912(14) 0.58605(9)
Eu3 Eu 0.87235(7) 0.63267(3) 0.527820(18)
O9 O 0.3760(9) 0.4502(4) 0.4091(2)
O6 O 0.93(2) 0.317(8) 0.565(5)
H12 H 0.8138 0.2770 0.5529
H13 H 0.8725 0.3681 0.5823
O8 O 0.8224(10) 0.4814(4) 0.4543(2)
O10 O 0.9980(11) 0.3192(4) 0.3591(3)
O11 O 0.8022(10) 0.2488(4) 0.4326(3)
O8_2 O 0.1776(10) 0.9814(4) 0.0457(2)
O10_2 O 0.0020(11) 0.8192(4) 0.1409(3)
O11_2 O 0.1978(10) 0.7488(4) 0.0674(3)
H2_2 H 0.7404 0.0270 0.8173
H10_2 H 0.6254 0.0022 0.7099
O2_2 O 0.8224(10) 0.0186(4) 0.9543(2)
O3_2 O 0.3760(9) 0.0498(4) 0.9091(2)
Eu1_2 Eu 0.87235(7) 0.86733(3) 0.027820(18)
O7_2 O 0.65(2) 0.716(9) 0.035(6)
H14_2 H 0.7205 0.6809 0.0654
O9_2 O 0.6240(9) 0.9502(4) 0.0909(2)
C1_2 C 0.6922(14) 0.9623(6) 0.8328(4)
H1_2 H 0.8345 0.9199 0.8367
C2_2 C 0.4709(17) 0.8078(6) 0.7988(4)
H3_2 H 0.6219 0.7714 0.7986
H4_2 H 0.4145 0.8012 0.8413
C3_2 C 0.2783(17) 0.7644(7) 0.7464(4)
H5_2 H 0.1254 0.7987 0.7486
H6_2 H 0.2534 0.6940 0.7548
C4_2 C 0.3615(15) 0.7770(6) 0.6779(4)
H7_2 H 0.5148 0.7415 0.6755
C5_2 C 0.3996(17) 0.8906(6) 0.6651(4)
H8_2 H 0.4516 0.9001 0.6224
H9_2 H 0.2487 0.9265 0.6674
C6_2 C 0.5969(17) 0.9318(7) 0.7175(4)
H11_2 H 0.7479 0.8960 0.7152
C7_2 C 0.1704(14) 0.7358(5) 0.6251(4)
N1_2 N 0.5095(13) 0.9178(5) 0.7834(3)
O1_2 O 0.5408(10) 0.8770(4) 0.9444(3)
O4_2 O 0.0020(11) 0.6808(4) 0.6409(3)
O5_2 O 0.1978(10) 0.7512(4) 0.5674(3)
H15_2 H 0.6529 0.6847 0.9994
P1_2 P 0.5899(4) 0.97912(14) 0.91395(9)
O6_2 O 0.07(2) 0.683(8) 0.435(5)
H12_2 H 0.1862 0.7230 0.4471
H13_2 H 0.1275 0.6319 0.4177
C1_3 C 0.6922(14) 0.5377(6) 0.3328(4)
H1_3 H 0.8345 0.5801 0.3367
H2_3 H 0.7404 0.4730 0.3173
C2_3 C 0.4709(17) 0.6922(6) 0.2988(4)
H3_3 H 0.6219 0.7286 0.2986
H4_3 H 0.4145 0.6988 0.3413
C3_3 C 0.2783(17) 0.7356(7) 0.2464(4)
H5_3 H 0.1254 0.7013 0.2486
H6_3 H 0.2534 0.8060 0.2548
C4_3 C 0.3615(15) 0.7230(6) 0.1779(4)
H7_3 H 0.5148 0.7585 0.1755
C5_3 C 0.3996(17) 0.6094(6) 0.1651(4)
H8_3 H 0.4516 0.5999 0.1224
H9_3 H 0.2487 0.5735 0.1674
C6_3 C 0.5969(17) 0.5682(7) 0.2175(4)
H10_3 H 0.6254 0.4978 0.2099
H11_3 H 0.7479 0.6040 0.2152
C7_3 C 0.1704(14) 0.7642(5) 0.1251(4)
N1_3 N 0.5095(13) 0.5822(5) 0.2834(3)
O1_3 O 0.5408(10) 0.6230(4) 0.4444(3)
O7_3 O 0.65(2) 0.784(9) 0.535(6)
H14_3 H 0.7205 0.8191 0.5654
H15_3 H 0.6529 0.8153 0.4994
P1_3 P 0.5899(4) 0.52088(14) 0.41395(9)
C1_4 C 0.3078(14) 0.0377(6) 0.1672(4)
H1_4 H 0.1655 0.0801 0.1633
C2_4 C 0.5291(17) 0.1922(6) 0.2012(4)
H3_4 H 0.3781 0.2286 0.2014
H4_4 H 0.5855 0.1988 0.1587
C3_4 C 0.7217(17) 0.2356(7) 0.2536(4)
H5_4 H 0.8746 0.2013 0.2514
H6_4 H 0.7466 0.3060 0.2452
C4_4 C 0.6385(15) 0.2230(6) 0.3221(4)
H7_4 H 0.4852 0.2585 0.3245
C5_4 C 0.6004(17) 0.1094(6) 0.3349(4)
H8_4 H 0.5484 0.0999 0.3776
H9_4 H 0.7513 0.0735 0.3326
C6_4 C 0.4031(17) 0.0682(7) 0.2825(4)
H11_4 H 0.2521 0.1040 0.2848
C7_4 C 0.8296(14) 0.2642(5) 0.3749(4)
N1_4 N 0.4905(13) 0.0822(5) 0.2166(3)
O1_4 O 0.4592(10) 0.1230(4) 0.0556(3)
H15_4 H 0.3471 0.3153 0.0006
P1_4 P 0.4101(4) 0.02088(14) 0.08605(9)
O7_4 O 0.35(2) 0.284(9) 0.965(6)
H14_4 H 0.2795 0.3191 0.9346
H2_4 H 0.2596 0.9730 0.1827
H10_4 H 0.3746 0.9978 0.2901
O6_3 O 0.07(2) 0.817(8) 0.935(5)
H12_3 H 0.1862 0.7770 0.9471
H13_3 H 0.1275 0.8681 0.9177
O6_4 O 0.93(2) 0.183(8) 0.065(5)
H12_4 H 0.8138 0.2230 0.0529
H13_4 H 0.8725 0.1319 0.0823
loop_
_geom_bond_atom_site_label_1
_geom_bond_atom_site_label_2
_geom_bond_site_symmetry_1
_geom_bond_site_symmetry_2
C1 H1 1_555 1_555
H2 C1 1_555 1_555
C2 H3 1_555 1_555
H4 C2 1_555 1_555
C3 C2 1_555 1_555
H5 C3 1_555 1_555
H6 C3 1_555 1_555
C4 C3 1_555 1_555
H7 C4 1_555 1_555
C5 C4 1_555 1_555
H8 C5 1_555 1_555
H9 C5 1_555 1_555
C6 C5 1_555 1_555
H10 C6 1_555 1_555
H11 C6 1_555 1_555
C7 C4 1_555 1_555
Eu1 O1 1_555 1_555
N1 C1 1_555 1_555
O1 P1 1_555 1_555
O2 Eu1 1_555 1_555
O3 P1 1_555 1_555
O4 C7 1_555 1_555
O5 C7 1_555 1_555
O7 Eu1 1_555 1_555
H14 O7 1_555 1_555
H15 O7 1_555 1_555
P1 C1 1_555 1_555
Eu3 O3 1_555 1_555
O9 Eu1 1_555 1_555
C2 N1 1_555 1_555
C6 N1 1_555 1_555
O2 P1 1_555 1_555
H12 O6 1_555 1_555
H13 O6 1_555 1_555
Eu3 O8 1_555 1_555
Eu4 O3_2 1_555 1_555
O7_2 Eu1_2 1_555 1_555
H14_2 O7_2 1_555 1_555
O9_2 Eu1_2 1_555 1_555
C1_2 H1_2 1_555 1_555
C2_2 H3_2 1_555 1_555
H4_2 C2_2 1_555 1_555
C3_2 C2_2 1_555 1_555
H5_2 C3_2 1_555 1_555
H6_2 C3_2 1_555 1_555
C4_2 C3_2 1_555 1_555
H7_2 C4_2 1_555 1_555
C5_2 C4_2 1_555 1_555
H8_2 C5_2 1_555 1_555
H9_2 C5_2 1_555 1_555
C6_2 C5_2 1_555 1_555
H11_2 C6_2 1_555 1_555
C7_2 C4_2 1_555 1_555
N1_2 C1_2 1_555 1_555
O1_2 P1_2 1_555 1_555
O4_2 C7_2 1_555 1_555
O5_2 C7_2 1_555 1_555
P1_2 C1_2 1_555 1_555
C2_2 N1_2 1_555 1_555
C6_2 N1_2 1_555 1_555
H12_2 O6_2 1_555 1_555
H13_2 O6_2 1_555 1_555
C1_3 H1_3 1_555 1_555
H2_3 C1_3 1_555 1_555
C2_3 H3_3 1_555 1_555
H4_3 C2_3 1_555 1_555
C3_3 C2_3 1_555 1_555
H5_3 C3_3 1_555 1_555
H6_3 C3_3 1_555 1_555
C4_3 C3_3 1_555 1_555
H7_3 C4_3 1_555 1_555
C5_3 C4_3 1_555 1_555
H8_3 C5_3 1_555 1_555
H9_3 C5_3 1_555 1_555
C6_3 C5_3 1_555 1_555
H10_3 C6_3 1_555 1_555
H11_3 C6_3 1_555 1_555
C7_3 C4_3 1_555 1_555
Eu3 O1_3 1_555 1_555
N1_3 C1_3 1_555 1_555
O1_3 P1_3 1_555 1_555
O9 P1_3 1_555 1_555
O10_2 C7_3 1_555 1_555
O11_2 C7_3 1_555 1_555
O7_3 Eu3 1_555 1_555
H14_3 O7_3 1_555 1_555
H15_3 O7_3 1_555 1_555
P1_3 C1_3 1_555 1_555
C2_3 N1_3 1_555 1_555
C6_3 N1_3 1_555 1_555
O8 P1_3 1_555 1_555
C1_4 H1_4 1_555 1_555
C2_4 H3_4 1_555 1_555
H4_4 C2_4 1_555 1_555
C3_4 C2_4 1_555 1_555
H5_4 C3_4 1_555 1_555
H6_4 C3_4 1_555 1_555
C4_4 C3_4 1_555 1_555
H7_4 C4_4 1_555 1_555
C5_4 C4_4 1_555 1_555
H8_4 C5_4 1_555 1_555
H9_4 C5_4 1_555 1_555
C6_4 C5_4 1_555 1_555
H11_4 C6_4 1_555 1_555
C7_4 C4_4 1_555 1_555
N1_4 C1_4 1_555 1_555
O1_4 P1_4 1_555 1_555
O10 C7_4 1_555 1_555
O11 C7_4 1_555 1_555
P1_4 C1_4 1_555 1_555
C2_4 N1_4 1_555 1_555
C6_4 N1_4 1_555 1_555
O7_4 Eu4 1_555 1_555
H14_4 O7_4 1_555 1_555
H12_3 O6_3 1_555 1_555
H13_3 O6_3 1_555 1_555
H12_4 O6_4 1_555 1_555
H13_4 O6_4 1_555 1_555

#END
