
###############################################################################
#
# This file contains modified crystal structure data generated from the
# MOF subset of the Cambridge Structural Database (CSD) v543 
# hosted by the Cambridge Crystallographic Data Centre (CCDC).
#
# This work is licensed under the Creative Commons
# Attribution-NonCommercial-ShareAlike 4.0 International License.
# To view a copy of this license, visit
# http://creativecommons.org/licenses/by-nc-sa/4.0/
# or send a letter to
# Creative Commons, PO Box 1866, Mountain View, CA 94042, USA.
#
# CIF created using the CSD Python API on 29 September 2022
# The structure has been converted into the P1 space group
# The structure has a 3D framework
# The original CSD entry BUGSIG is in the monoclinic crystal system
# The framework has been calculated to contain at least 10.0% void space
# The void calculation uses a probe of radius 1.32A, grid spacing 0.4
#
###############################################################################

data_BUGSIG
_chemical_formula_moiety         '(C28 H60 Gd4 N4 O26 P4)n'
_symmetry_cell_setting           triclinic
_symmetry_space_group_name_H-M   'P 1'
_symmetry_Int_Tables_number      1
_space_group_name_Hall           'P 1'
loop_
_symmetry_equiv_pos_site_id
_symmetry_equiv_pos_as_xyz
1 x,y,z
_cell_length_a                   5.515(2)
_cell_length_b                   13.393(3)
_cell_length_c                   20.8105(14)
_cell_angle_alpha                90
_cell_angle_beta                 95.382(3)
_cell_angle_gamma                90
_cell_volume                     1530.34
loop_
_atom_site_label
_atom_site_type_symbol
_atom_site_fract_x
_atom_site_fract_y
_atom_site_fract_z
Gd4 Gd 0.12756(5) 0.13255(2) 0.972230(15)
C1 C 0.3089(11) 0.4612(5) 0.6671(3)
H1 H 0.1676 0.4178 0.6633
H2 H 0.2565 0.5255 0.6823
C2 C 0.5311(13) 0.3087(5) 0.7013(3)
H3 H 0.3788 0.2723 0.7008
H4 H 0.5905 0.3030 0.6591
C3 C 0.7193(14) 0.2649(6) 0.7533(3)
H5 H 0.7445 0.1949 0.7441
H6 H 0.8735 0.2992 0.7515
C4 C 0.6360(13) 0.2753(5) 0.8224(3)
H7 H 0.4816 0.2400 0.8250
C5 C 0.6000(12) 0.3911(4) 0.8348(3)
H8 H 0.7527 0.4261 0.8321
H9 H 0.5487 0.4015 0.8776
C6 C 0.4024(14) 0.4328(6) 0.7828(3)
H10 H 0.3747 0.5031 0.7905
H11 H 0.2500 0.3974 0.7851
C7 C 0.8287(11) 0.2361(4) 0.8750(3)
Gd1 Gd 0.12756(5) 0.36745(2) 0.472230(15)
N1 N 0.4912(9) 0.4187(4) 0.7175(2)
O1 O 0.4593(8) 0.3773(3) 0.5556(2)
O2 O 0.1786(8) 0.5192(3) 0.5452(2)
O3 O 0.6254(8) 0.5497(3) 0.59122(19)
O4 O 0.9981(8) 0.1809(4) 0.8592(2)
O5 O 0.8011(8) 0.2511(3) 0.9323(2)
O7 O 0.345(17) 0.217(7) 0.465(5)
H14 H 0.2778 0.1816 0.4343
H15 H 0.3452 0.1849 0.5002
P1 P 0.4093(3) 0.47879(11) 0.58584(8)
Gd3 Gd 0.87244(5) 0.63255(2) 0.527770(15)
O9 O 0.3746(8) 0.4503(3) 0.40878(19)
O6 O 0.929(16) 0.317(6) 0.564(4)
H12 H 0.8139 0.2770 0.5524
H13 H 0.8721 0.3680 0.5818
O8 O 0.8214(8) 0.4808(3) 0.4548(2)
O10 O 0.9981(8) 0.3191(4) 0.3592(2)
O11 O 0.8011(8) 0.2489(3) 0.4323(2)
O8_2 O 0.1786(8) 0.9808(3) 0.0452(2)
O10_2 O 0.0019(8) 0.8191(4) 0.1408(2)
O11_2 O 0.1989(8) 0.7489(3) 0.0677(2)
H2_2 H 0.7435 0.0255 0.8177
H10_2 H 0.6253 0.0031 0.7095
O2_2 O 0.8214(8) 0.0192(3) 0.9548(2)
O3_2 O 0.3746(8) 0.0497(3) 0.90878(19)
Gd1_2 Gd 0.87244(5) 0.86745(2) 0.027770(15)
O7_2 O 0.655(17) 0.717(7) 0.035(5)
H14_2 H 0.7222 0.6816 0.0657
O9_2 O 0.6254(8) 0.9503(3) 0.09122(19)
C1_2 C 0.6911(11) 0.9612(5) 0.8329(3)
H1_2 H 0.8324 0.9178 0.8367
C2_2 C 0.4689(13) 0.8087(5) 0.7987(3)
H3_2 H 0.6212 0.7723 0.7992
H4_2 H 0.4095 0.8030 0.8409
C3_2 C 0.2807(14) 0.7649(6) 0.7467(3)
H5_2 H 0.2555 0.6949 0.7559
H6_2 H 0.1265 0.7992 0.7485
C4_2 C 0.3640(13) 0.7753(5) 0.6776(3)
H7_2 H 0.5184 0.7400 0.6750
C5_2 C 0.4000(12) 0.8911(4) 0.6652(3)
H8_2 H 0.2473 0.9261 0.6679
H9_2 H 0.4513 0.9015 0.6224
C6_2 C 0.5976(14) 0.9328(6) 0.7172(3)
H11_2 H 0.7500 0.8974 0.7149
C7_2 C 0.1713(11) 0.7361(4) 0.6250(3)
N1_2 N 0.5088(9) 0.9187(4) 0.7825(2)
O1_2 O 0.5407(8) 0.8773(3) 0.9444(2)
O4_2 O 0.0019(8) 0.6809(4) 0.6408(2)
O5_2 O 0.1989(8) 0.7511(3) 0.5677(2)
H15_2 H 0.6548 0.6849 0.9998
P1_2 P 0.5907(3) 0.97879(11) 0.91416(8)
O6_2 O 0.071(16) 0.683(6) 0.436(4)
H12_2 H 0.1861 0.7230 0.4476
H13_2 H 0.1279 0.6320 0.4182
C1_3 C 0.6911(11) 0.5388(5) 0.3329(3)
H1_3 H 0.8324 0.5822 0.3367
H2_3 H 0.7435 0.4745 0.3177
C2_3 C 0.4689(13) 0.6913(5) 0.2987(3)
H3_3 H 0.6212 0.7277 0.2992
H4_3 H 0.4095 0.6970 0.3409
C3_3 C 0.2807(14) 0.7351(6) 0.2467(3)
H5_3 H 0.2555 0.8051 0.2559
H6_3 H 0.1265 0.7008 0.2485
C4_3 C 0.3640(13) 0.7247(5) 0.1776(3)
H7_3 H 0.5184 0.7600 0.1750
C5_3 C 0.4000(12) 0.6089(4) 0.1652(3)
H8_3 H 0.2473 0.5739 0.1679
H9_3 H 0.4513 0.5985 0.1224
C6_3 C 0.5976(14) 0.5672(6) 0.2172(3)
H10_3 H 0.6253 0.4969 0.2095
H11_3 H 0.7500 0.6026 0.2149
C7_3 C 0.1713(11) 0.7639(4) 0.1250(3)
N1_3 N 0.5088(9) 0.5813(4) 0.2825(2)
O1_3 O 0.5407(8) 0.6227(3) 0.4444(2)
O7_3 O 0.655(17) 0.783(7) 0.535(5)
H14_3 H 0.7222 0.8184 0.5657
H15_3 H 0.6548 0.8151 0.4998
P1_3 P 0.5907(3) 0.52121(11) 0.41416(8)
C1_4 C 0.3089(11) 0.0388(5) 0.1671(3)
H1_4 H 0.1676 0.0822 0.1633
C2_4 C 0.5311(13) 0.1913(5) 0.2013(3)
H3_4 H 0.3788 0.2277 0.2008
H4_4 H 0.5905 0.1970 0.1591
C3_4 C 0.7193(14) 0.2351(6) 0.2533(3)
H5_4 H 0.7445 0.3051 0.2441
H6_4 H 0.8735 0.2008 0.2515
C4_4 C 0.6360(13) 0.2247(5) 0.3224(3)
H7_4 H 0.4816 0.2600 0.3250
C5_4 C 0.6000(12) 0.1089(4) 0.3348(3)
H8_4 H 0.7527 0.0739 0.3321
H9_4 H 0.5487 0.0985 0.3776
C6_4 C 0.4024(14) 0.0672(6) 0.2828(3)
H11_4 H 0.2500 0.1026 0.2851
C7_4 C 0.8287(11) 0.2639(4) 0.3750(3)
N1_4 N 0.4912(9) 0.0813(4) 0.2175(2)
O1_4 O 0.4593(8) 0.1227(3) 0.0556(2)
H15_4 H 0.3452 0.3151 0.0002
P1_4 P 0.4093(3) 0.02121(11) 0.08584(8)
O7_4 O 0.345(17) 0.283(7) 0.965(5)
H14_4 H 0.2778 0.3184 0.9343
H2_4 H 0.2565 0.9745 0.1823
H10_4 H 0.3747 0.9969 0.2905
O6_3 O 0.071(16) 0.817(6) 0.936(4)
H12_3 H 0.1861 0.7770 0.9476
H13_3 H 0.1279 0.8680 0.9182
O6_4 O 0.929(16) 0.183(6) 0.064(4)
H12_4 H 0.8139 0.2230 0.0524
H13_4 H 0.8721 0.1320 0.0818
loop_
_geom_bond_atom_site_label_1
_geom_bond_atom_site_label_2
_geom_bond_site_symmetry_1
_geom_bond_site_symmetry_2
C1 H1 1_555 1_555
H2 C1 1_555 1_555
C2 H3 1_555 1_555
H4 C2 1_555 1_555
C3 C2 1_555 1_555
H5 C3 1_555 1_555
H6 C3 1_555 1_555
C4 C3 1_555 1_555
H7 C4 1_555 1_555
C5 C4 1_555 1_555
H8 C5 1_555 1_555
H9 C5 1_555 1_555
C6 C5 1_555 1_555
H10 C6 1_555 1_555
H11 C6 1_555 1_555
C7 C4 1_555 1_555
Gd1 O1 1_555 1_555
N1 C1 1_555 1_555
O1 P1 1_555 1_555
O2 Gd1 1_555 1_555
O3 P1 1_555 1_555
O4 C7 1_555 1_555
O5 C7 1_555 1_555
O7 Gd1 1_555 1_555
H14 O7 1_555 1_555
H15 O7 1_555 1_555
P1 C1 1_555 1_555
Gd3 O3 1_555 1_555
O9 Gd1 1_555 1_555
C2 N1 1_555 1_555
C6 N1 1_555 1_555
O2 P1 1_555 1_555
H12 O6 1_555 1_555
H13 O6 1_555 1_555
Gd3 O8 1_555 1_555
Gd4 O3_2 1_555 1_555
O7_2 Gd1_2 1_555 1_555
H14_2 O7_2 1_555 1_555
O9_2 Gd1_2 1_555 1_555
C1_2 H1_2 1_555 1_555
C2_2 H3_2 1_555 1_555
H4_2 C2_2 1_555 1_555
C3_2 C2_2 1_555 1_555
H5_2 C3_2 1_555 1_555
H6_2 C3_2 1_555 1_555
C4_2 C3_2 1_555 1_555
H7_2 C4_2 1_555 1_555
C5_2 C4_2 1_555 1_555
H8_2 C5_2 1_555 1_555
H9_2 C5_2 1_555 1_555
C6_2 C5_2 1_555 1_555
H11_2 C6_2 1_555 1_555
C7_2 C4_2 1_555 1_555
N1_2 C1_2 1_555 1_555
O1_2 P1_2 1_555 1_555
O4_2 C7_2 1_555 1_555
O5_2 C7_2 1_555 1_555
P1_2 C1_2 1_555 1_555
C2_2 N1_2 1_555 1_555
C6_2 N1_2 1_555 1_555
H12_2 O6_2 1_555 1_555
H13_2 O6_2 1_555 1_555
C1_3 H1_3 1_555 1_555
H2_3 C1_3 1_555 1_555
C2_3 H3_3 1_555 1_555
H4_3 C2_3 1_555 1_555
C3_3 C2_3 1_555 1_555
H5_3 C3_3 1_555 1_555
H6_3 C3_3 1_555 1_555
C4_3 C3_3 1_555 1_555
H7_3 C4_3 1_555 1_555
C5_3 C4_3 1_555 1_555
H8_3 C5_3 1_555 1_555
H9_3 C5_3 1_555 1_555
C6_3 C5_3 1_555 1_555
H10_3 C6_3 1_555 1_555
H11_3 C6_3 1_555 1_555
C7_3 C4_3 1_555 1_555
Gd3 O1_3 1_555 1_555
N1_3 C1_3 1_555 1_555
O1_3 P1_3 1_555 1_555
O9 P1_3 1_555 1_555
O10_2 C7_3 1_555 1_555
O11_2 C7_3 1_555 1_555
O7_3 Gd3 1_555 1_555
H14_3 O7_3 1_555 1_555
H15_3 O7_3 1_555 1_555
P1_3 C1_3 1_555 1_555
C2_3 N1_3 1_555 1_555
C6_3 N1_3 1_555 1_555
O8 P1_3 1_555 1_555
C1_4 H1_4 1_555 1_555
C2_4 H3_4 1_555 1_555
H4_4 C2_4 1_555 1_555
C3_4 C2_4 1_555 1_555
H5_4 C3_4 1_555 1_555
H6_4 C3_4 1_555 1_555
C4_4 C3_4 1_555 1_555
H7_4 C4_4 1_555 1_555
C5_4 C4_4 1_555 1_555
H8_4 C5_4 1_555 1_555
H9_4 C5_4 1_555 1_555
C6_4 C5_4 1_555 1_555
H11_4 C6_4 1_555 1_555
C7_4 C4_4 1_555 1_555
N1_4 C1_4 1_555 1_555
O1_4 P1_4 1_555 1_555
O10 C7_4 1_555 1_555
O11 C7_4 1_555 1_555
P1_4 C1_4 1_555 1_555
C2_4 N1_4 1_555 1_555
C6_4 N1_4 1_555 1_555
O7_4 Gd4 1_555 1_555
H14_4 O7_4 1_555 1_555
H12_3 O6_3 1_555 1_555
H13_3 O6_3 1_555 1_555
H12_4 O6_4 1_555 1_555
H13_4 O6_4 1_555 1_555

#END
