
###############################################################################
#
# This file contains modified crystal structure data generated from the
# MOF subset of the Cambridge Structural Database (CSD) v543 
# hosted by the Cambridge Crystallographic Data Centre (CCDC).
#
# This work is licensed under the Creative Commons
# Attribution-NonCommercial-ShareAlike 4.0 International License.
# To view a copy of this license, visit
# http://creativecommons.org/licenses/by-nc-sa/4.0/
# or send a letter to
# Creative Commons, PO Box 1866, Mountain View, CA 94042, USA.
#
# CIF created using the CSD Python API on 29 September 2022
# The structure has been converted into the P1 space group
# The structure has a 3D framework
# The original CSD entry BUGSAY is in the monoclinic crystal system
# The framework has been calculated to contain at least 10.0% void space
# The void calculation uses a probe of radius 1.32A, grid spacing 0.4
#
###############################################################################

data_BUGSAY
_chemical_formula_moiety         '(C28 H60 Dy4 N4 O26 P4)n'
_symmetry_cell_setting           triclinic
_symmetry_space_group_name_H-M   'P 1'
_symmetry_Int_Tables_number      1
_space_group_name_Hall           'P 1'
loop_
_symmetry_equiv_pos_site_id
_symmetry_equiv_pos_as_xyz
1 x,y,z
_cell_length_a                   5.5286(12)
_cell_length_b                   13.314(2)
_cell_length_c                   20.599(2)
_cell_angle_alpha                90
_cell_angle_beta                 95.244(3)
_cell_angle_gamma                90
_cell_volume                     1509.9
loop_
_atom_site_label
_atom_site_type_symbol
_atom_site_fract_x
_atom_site_fract_y
_atom_site_fract_z
Dy4 Dy 0.12765(9) 0.13267(4) 0.97218(2)
C1 C 0.3078(19) 0.4623(9) 0.6672(5)
H1 H 0.1651 0.4196 0.6634
H2 H 0.2592 0.5273 0.6829
C2 C 0.529(2) 0.3078(8) 0.7012(6)
H3 H 0.3775 0.2713 0.7017
H4 H 0.5856 0.3011 0.6582
C3 C 0.722(2) 0.2644(10) 0.7536(6)
H5 H 0.8751 0.2989 0.7512
H6 H 0.7467 0.1937 0.7451
C4 C 0.639(2) 0.2770(9) 0.8221(5)
H7 H 0.4847 0.2413 0.8247
C5 C 0.600(2) 0.3906(8) 0.8349(6)
H8 H 0.5483 0.4003 0.8781
H9 H 0.7518 0.4266 0.8323
C6 C 0.403(2) 0.4318(9) 0.7825(5)
H10 H 0.3745 0.5025 0.7902
H11 H 0.2516 0.3959 0.7850
C7 C 0.8296(19) 0.2358(8) 0.8749(5)
Dy1 Dy 0.12765(9) 0.36733(4) 0.47218(2)
N1 N 0.4905(18) 0.4178(7) 0.7166(4)
O1 O 0.4592(14) 0.3770(5) 0.5556(4)
O2 O 0.1776(14) 0.5186(6) 0.5457(3)
O3 O 0.6240(13) 0.5498(5) 0.5909(3)
O4 O 0.9980(14) 0.1808(6) 0.8591(4)
O5 O 0.8022(13) 0.2512(6) 0.9326(4)
O7 O 0.35(3) 0.216(12) 0.465(8)
H14 H 0.2795 0.1809 0.4346
H15 H 0.3471 0.1847 0.5006
P1 P 0.4101(5) 0.4791(2) 0.58605(13)
Dy3 Dy 0.87235(9) 0.63267(4) 0.52782(2)
O9 O 0.3760(13) 0.4502(5) 0.4091(3)
O6 O 0.93(3) 0.317(11) 0.565(7)
H12 H 0.8138 0.2770 0.5529
H13 H 0.8725 0.3681 0.5823
O8 O 0.8224(14) 0.4814(6) 0.4543(3)
O10 O 0.9980(14) 0.3192(6) 0.3591(4)
O11 O 0.8022(13) 0.2488(6) 0.4326(4)
O8_2 O 0.1776(14) 0.9814(6) 0.0457(3)
O10_2 O 0.0020(14) 0.8192(6) 0.1409(4)
O11_2 O 0.1978(13) 0.7488(6) 0.0674(4)
H2_2 H 0.7408 0.0273 0.8171
H10_2 H 0.6255 0.0025 0.7098
O2_2 O 0.8224(14) 0.0186(6) 0.9543(3)
O3_2 O 0.3760(13) 0.0498(5) 0.9091(3)
Dy1_2 Dy 0.87235(9) 0.86733(4) 0.02782(2)
O7_2 O 0.65(3) 0.716(12) 0.035(8)
H14_2 H 0.7205 0.6809 0.0654
O9_2 O 0.6240(13) 0.9502(5) 0.0909(3)
C1_2 C 0.6922(19) 0.9623(9) 0.8328(5)
H1_2 H 0.8349 0.9196 0.8366
C2_2 C 0.471(2) 0.8078(8) 0.7988(6)
H3_2 H 0.6225 0.7713 0.7983
H4_2 H 0.4144 0.8011 0.8418
C3_2 C 0.278(2) 0.7644(10) 0.7464(6)
H5_2 H 0.1249 0.7989 0.7488
H6_2 H 0.2533 0.6937 0.7549
C4_2 C 0.361(2) 0.7770(9) 0.6779(5)
H7_2 H 0.5153 0.7413 0.6753
C5_2 C 0.400(2) 0.8906(8) 0.6651(6)
H8_2 H 0.4517 0.9003 0.6219
H9_2 H 0.2482 0.9266 0.6677
C6_2 C 0.597(2) 0.9318(9) 0.7175(5)
H11_2 H 0.7484 0.8959 0.7150
C7_2 C 0.1704(19) 0.7358(8) 0.6251(5)
N1_2 N 0.5095(18) 0.9178(7) 0.7834(4)
O1_2 O 0.5408(14) 0.8770(5) 0.9444(4)
O4_2 O 0.0020(14) 0.6808(6) 0.6409(4)
O5_2 O 0.1978(13) 0.7512(6) 0.5674(4)
H15_2 H 0.6529 0.6847 0.9994
P1_2 P 0.5899(5) 0.9791(2) 0.91395(13)
O6_2 O 0.07(3) 0.683(11) 0.435(7)
H12_2 H 0.1862 0.7230 0.4471
H13_2 H 0.1275 0.6319 0.4177
C1_3 C 0.6922(19) 0.5377(9) 0.3328(5)
H1_3 H 0.8349 0.5804 0.3366
H2_3 H 0.7408 0.4727 0.3171
C2_3 C 0.471(2) 0.6922(8) 0.2988(6)
H3_3 H 0.6225 0.7287 0.2983
H4_3 H 0.4144 0.6989 0.3418
C3_3 C 0.278(2) 0.7356(10) 0.2464(6)
H5_3 H 0.1249 0.7011 0.2488
H6_3 H 0.2533 0.8063 0.2549
C4_3 C 0.361(2) 0.7230(9) 0.1779(5)
H7_3 H 0.5153 0.7587 0.1753
C5_3 C 0.400(2) 0.6094(8) 0.1651(6)
H8_3 H 0.4517 0.5997 0.1219
H9_3 H 0.2482 0.5734 0.1677
C6_3 C 0.597(2) 0.5682(9) 0.2175(5)
H10_3 H 0.6255 0.4975 0.2098
H11_3 H 0.7484 0.6041 0.2150
C7_3 C 0.1704(19) 0.7642(8) 0.1251(5)
N1_3 N 0.5095(18) 0.5822(7) 0.2834(4)
O1_3 O 0.5408(14) 0.6230(5) 0.4444(4)
O7_3 O 0.65(3) 0.784(12) 0.535(8)
H14_3 H 0.7205 0.8191 0.5654
H15_3 H 0.6529 0.8153 0.4994
P1_3 P 0.5899(5) 0.5209(2) 0.41395(13)
C1_4 C 0.3078(19) 0.0377(9) 0.1672(5)
H1_4 H 0.1651 0.0804 0.1634
C2_4 C 0.529(2) 0.1922(8) 0.2012(6)
H3_4 H 0.3775 0.2287 0.2017
H4_4 H 0.5856 0.1989 0.1582
C3_4 C 0.722(2) 0.2356(10) 0.2536(6)
H5_4 H 0.8751 0.2011 0.2512
H6_4 H 0.7467 0.3063 0.2451
C4_4 C 0.639(2) 0.2230(9) 0.3221(5)
H7_4 H 0.4847 0.2587 0.3247
C5_4 C 0.600(2) 0.1094(8) 0.3349(6)
H8_4 H 0.5483 0.0997 0.3781
H9_4 H 0.7518 0.0734 0.3323
C6_4 C 0.403(2) 0.0682(9) 0.2825(5)
H11_4 H 0.2516 0.1041 0.2850
C7_4 C 0.8296(19) 0.2642(8) 0.3749(5)
N1_4 N 0.4905(18) 0.0822(7) 0.2166(4)
O1_4 O 0.4592(14) 0.1230(5) 0.0556(4)
H15_4 H 0.3471 0.3153 0.0006
P1_4 P 0.4101(5) 0.0209(2) 0.08605(13)
O7_4 O 0.35(3) 0.284(12) 0.965(8)
H14_4 H 0.2795 0.3191 0.9346
H2_4 H 0.2592 0.9727 0.1829
H10_4 H 0.3745 0.9975 0.2902
O6_3 O 0.07(3) 0.817(11) 0.935(7)
H12_3 H 0.1862 0.7770 0.9471
H13_3 H 0.1275 0.8681 0.9177
O6_4 O 0.93(3) 0.183(11) 0.065(7)
H12_4 H 0.8138 0.2230 0.0529
H13_4 H 0.8725 0.1319 0.0823
loop_
_geom_bond_atom_site_label_1
_geom_bond_atom_site_label_2
_geom_bond_site_symmetry_1
_geom_bond_site_symmetry_2
C1 H1 1_555 1_555
H2 C1 1_555 1_555
C2 H3 1_555 1_555
H4 C2 1_555 1_555
C3 C2 1_555 1_555
H5 C3 1_555 1_555
H6 C3 1_555 1_555
C4 C3 1_555 1_555
H7 C4 1_555 1_555
C5 C4 1_555 1_555
H8 C5 1_555 1_555
H9 C5 1_555 1_555
C6 C5 1_555 1_555
H10 C6 1_555 1_555
H11 C6 1_555 1_555
C7 C4 1_555 1_555
Dy1 O1 1_555 1_555
N1 C1 1_555 1_555
O1 P1 1_555 1_555
O2 Dy1 1_555 1_555
O3 P1 1_555 1_555
O4 C7 1_555 1_555
O5 C7 1_555 1_555
O7 Dy1 1_555 1_555
H14 O7 1_555 1_555
H15 O7 1_555 1_555
P1 C1 1_555 1_555
Dy3 O3 1_555 1_555
O9 Dy1 1_555 1_555
C2 N1 1_555 1_555
C6 N1 1_555 1_555
O2 P1 1_555 1_555
H12 O6 1_555 1_555
H13 O6 1_555 1_555
Dy3 O8 1_555 1_555
Dy4 O3_2 1_555 1_555
O7_2 Dy1_2 1_555 1_555
H14_2 O7_2 1_555 1_555
O9_2 Dy1_2 1_555 1_555
C1_2 H1_2 1_555 1_555
C2_2 H3_2 1_555 1_555
H4_2 C2_2 1_555 1_555
C3_2 C2_2 1_555 1_555
H5_2 C3_2 1_555 1_555
H6_2 C3_2 1_555 1_555
C4_2 C3_2 1_555 1_555
H7_2 C4_2 1_555 1_555
C5_2 C4_2 1_555 1_555
H8_2 C5_2 1_555 1_555
H9_2 C5_2 1_555 1_555
C6_2 C5_2 1_555 1_555
H11_2 C6_2 1_555 1_555
C7_2 C4_2 1_555 1_555
N1_2 C1_2 1_555 1_555
O1_2 P1_2 1_555 1_555
O4_2 C7_2 1_555 1_555
O5_2 C7_2 1_555 1_555
P1_2 C1_2 1_555 1_555
C2_2 N1_2 1_555 1_555
C6_2 N1_2 1_555 1_555
H12_2 O6_2 1_555 1_555
H13_2 O6_2 1_555 1_555
C1_3 H1_3 1_555 1_555
H2_3 C1_3 1_555 1_555
C2_3 H3_3 1_555 1_555
H4_3 C2_3 1_555 1_555
C3_3 C2_3 1_555 1_555
H5_3 C3_3 1_555 1_555
H6_3 C3_3 1_555 1_555
C4_3 C3_3 1_555 1_555
H7_3 C4_3 1_555 1_555
C5_3 C4_3 1_555 1_555
H8_3 C5_3 1_555 1_555
H9_3 C5_3 1_555 1_555
C6_3 C5_3 1_555 1_555
H10_3 C6_3 1_555 1_555
H11_3 C6_3 1_555 1_555
C7_3 C4_3 1_555 1_555
Dy3 O1_3 1_555 1_555
N1_3 C1_3 1_555 1_555
O1_3 P1_3 1_555 1_555
O9 P1_3 1_555 1_555
O10_2 C7_3 1_555 1_555
O11_2 C7_3 1_555 1_555
O7_3 Dy3 1_555 1_555
H14_3 O7_3 1_555 1_555
H15_3 O7_3 1_555 1_555
P1_3 C1_3 1_555 1_555
C2_3 N1_3 1_555 1_555
C6_3 N1_3 1_555 1_555
O8 P1_3 1_555 1_555
C1_4 H1_4 1_555 1_555
C2_4 H3_4 1_555 1_555
H4_4 C2_4 1_555 1_555
C3_4 C2_4 1_555 1_555
H5_4 C3_4 1_555 1_555
H6_4 C3_4 1_555 1_555
C4_4 C3_4 1_555 1_555
H7_4 C4_4 1_555 1_555
C5_4 C4_4 1_555 1_555
H8_4 C5_4 1_555 1_555
H9_4 C5_4 1_555 1_555
C6_4 C5_4 1_555 1_555
H11_4 C6_4 1_555 1_555
C7_4 C4_4 1_555 1_555
N1_4 C1_4 1_555 1_555
O1_4 P1_4 1_555 1_555
O10 C7_4 1_555 1_555
O11 C7_4 1_555 1_555
P1_4 C1_4 1_555 1_555
C2_4 N1_4 1_555 1_555
C6_4 N1_4 1_555 1_555
O7_4 Dy4 1_555 1_555
H14_4 O7_4 1_555 1_555
H12_3 O6_3 1_555 1_555
H13_3 O6_3 1_555 1_555
H12_4 O6_4 1_555 1_555
H13_4 O6_4 1_555 1_555

#END
