
###############################################################################
#
# This file contains modified crystal structure data generated from the
# MOF subset of the Cambridge Structural Database (CSD) v543 
# hosted by the Cambridge Crystallographic Data Centre (CCDC).
#
# This work is licensed under the Creative Commons
# Attribution-NonCommercial-ShareAlike 4.0 International License.
# To view a copy of this license, visit
# http://creativecommons.org/licenses/by-nc-sa/4.0/
# or send a letter to
# Creative Commons, PO Box 1866, Mountain View, CA 94042, USA.
#
# CIF created using the CSD Python API on 29 September 2022
# The structure has been converted into the P1 space group
# The structure has a 3D framework
# The original CSD entry BUGSOM is in the monoclinic crystal system
# The framework has been calculated to contain at least 10.0% void space
# The void calculation uses a probe of radius 1.32A, grid spacing 0.4
#
###############################################################################

data_BUGSOM
_chemical_formula_moiety         '(C28 H60 N4 O26 P4 Tb4)n'
_symmetry_cell_setting           triclinic
_symmetry_space_group_name_H-M   'P 1'
_symmetry_Int_Tables_number      1
_space_group_name_Hall           'P 1'
loop_
_symmetry_equiv_pos_site_id
_symmetry_equiv_pos_as_xyz
1 x,y,z
_cell_length_a                   5.5294(7)
_cell_length_b                   13.3523(17)
_cell_length_c                   20.642(3)
_cell_angle_alpha                90
_cell_angle_beta                 95.378(3)
_cell_angle_gamma                90
_cell_volume                     1517.29
loop_
_atom_site_label
_atom_site_type_symbol
_atom_site_fract_x
_atom_site_fract_y
_atom_site_fract_z
Tb4 Tb 0.12765(5) 0.13267(2) 0.972180(14)
C1 C 0.3078(11) 0.4623(5) 0.6672(3)
H1 H 0.1649 0.4198 0.6633
H2 H 0.2594 0.5271 0.6829
C2 C 0.5291(14) 0.3078(5) 0.7012(3)
H3 H 0.3774 0.2714 0.7016
H4 H 0.5856 0.3011 0.6583
C3 C 0.7217(14) 0.2644(6) 0.7536(3)
H5 H 0.8752 0.2987 0.7512
H6 H 0.7465 0.1939 0.7451
C4 C 0.6385(12) 0.2770(5) 0.8221(3)
H7 H 0.4846 0.2415 0.8246
C5 C 0.6004(14) 0.3906(5) 0.8349(3)
H8 H 0.5483 0.4002 0.8780
H9 H 0.7519 0.4264 0.8324
C6 C 0.4031(13) 0.4318(5) 0.7825(3)
H10 H 0.3747 0.5023 0.7902
H11 H 0.2515 0.3961 0.7849
C7 C 0.8296(11) 0.2358(5) 0.8749(3)
Tb1 Tb 0.12765(5) 0.36733(2) 0.472180(14)
N1 N 0.4905(10) 0.4178(4) 0.7166(3)
O1 O 0.4592(8) 0.3770(3) 0.5556(2)
O2 O 0.1776(8) 0.5186(3) 0.5457(2)
O3 O 0.6240(8) 0.5498(3) 0.59086(19)
O4 O 0.9980(8) 0.1808(4) 0.8591(2)
O5 O 0.8022(8) 0.2512(4) 0.9326(2)
O7 O 0.346(17) 0.216(7) 0.465(5)
H14 H 0.2795 0.1809 0.4346
H15 H 0.3471 0.1847 0.5006
P1 P 0.4101(3) 0.47912(12) 0.58605(7)
Tb3 Tb 0.87235(5) 0.63267(2) 0.527820(14)
O9 O 0.3760(8) 0.4502(3) 0.40914(19)
O6 O 0.929(16) 0.317(7) 0.565(4)
H12 H 0.8138 0.2770 0.5529
H13 H 0.8725 0.3681 0.5823
O8 O 0.8224(8) 0.4814(3) 0.4543(2)
O10 O 0.9980(8) 0.3192(4) 0.3591(2)
O11 O 0.8022(8) 0.2488(4) 0.4326(2)
O8_2 O 0.1776(8) 0.9814(3) 0.0457(2)
O10_2 O 0.0020(8) 0.8192(4) 0.1409(2)
O11_2 O 0.1978(8) 0.7488(4) 0.0674(2)
H2_2 H 0.7406 0.0271 0.8171
H10_2 H 0.6253 0.0023 0.7098
O2_2 O 0.8224(8) 0.0186(3) 0.9543(2)
O3_2 O 0.3760(8) 0.0498(3) 0.90914(19)
Tb1_2 Tb 0.87235(5) 0.86733(2) 0.027820(14)
O7_2 O 0.654(17) 0.716(7) 0.035(5)
H14_2 H 0.7205 0.6809 0.0654
O9_2 O 0.6240(8) 0.9502(3) 0.09086(19)
C1_2 C 0.6922(11) 0.9623(5) 0.8328(3)
H1_2 H 0.8351 0.9198 0.8367
C2_2 C 0.4709(14) 0.8078(5) 0.7988(3)
H3_2 H 0.6226 0.7714 0.7984
H4_2 H 0.4144 0.8011 0.8417
C3_2 C 0.2783(14) 0.7644(6) 0.7464(3)
H5_2 H 0.1248 0.7987 0.7488
H6_2 H 0.2535 0.6939 0.7549
C4_2 C 0.3615(12) 0.7770(5) 0.6779(3)
H7_2 H 0.5154 0.7415 0.6754
C5_2 C 0.3996(14) 0.8906(5) 0.6651(3)
H8_2 H 0.4517 0.9002 0.6220
H9_2 H 0.2481 0.9264 0.6676
C6_2 C 0.5969(13) 0.9318(5) 0.7175(3)
H11_2 H 0.7485 0.8961 0.7151
C7_2 C 0.1704(11) 0.7358(5) 0.6251(3)
N1_2 N 0.5095(10) 0.9178(4) 0.7834(3)
O1_2 O 0.5408(8) 0.8770(3) 0.9444(2)
O4_2 O 0.0020(8) 0.6808(4) 0.6409(2)
O5_2 O 0.1978(8) 0.7512(4) 0.5674(2)
H15_2 H 0.6529 0.6847 0.9994
P1_2 P 0.5899(3) 0.97912(12) 0.91395(7)
O6_2 O 0.071(16) 0.683(7) 0.435(4)
H12_2 H 0.1862 0.7230 0.4471
H13_2 H 0.1275 0.6319 0.4177
C1_3 C 0.6922(11) 0.5377(5) 0.3328(3)
H1_3 H 0.8351 0.5802 0.3367
H2_3 H 0.7406 0.4729 0.3171
C2_3 C 0.4709(14) 0.6922(5) 0.2988(3)
H3_3 H 0.6226 0.7286 0.2984
H4_3 H 0.4144 0.6989 0.3417
C3_3 C 0.2783(14) 0.7356(6) 0.2464(3)
H5_3 H 0.1248 0.7013 0.2488
H6_3 H 0.2535 0.8061 0.2549
C4_3 C 0.3615(12) 0.7230(5) 0.1779(3)
H7_3 H 0.5154 0.7585 0.1754
C5_3 C 0.3996(14) 0.6094(5) 0.1651(3)
H8_3 H 0.4517 0.5998 0.1220
H9_3 H 0.2481 0.5736 0.1676
C6_3 C 0.5969(13) 0.5682(5) 0.2175(3)
H10_3 H 0.6253 0.4977 0.2098
H11_3 H 0.7485 0.6039 0.2151
C7_3 C 0.1704(11) 0.7642(5) 0.1251(3)
N1_3 N 0.5095(10) 0.5822(4) 0.2834(3)
O1_3 O 0.5408(8) 0.6230(3) 0.4444(2)
O7_3 O 0.654(17) 0.784(7) 0.535(5)
H14_3 H 0.7205 0.8191 0.5654
H15_3 H 0.6529 0.8153 0.4994
P1_3 P 0.5899(3) 0.52088(12) 0.41395(7)
C1_4 C 0.3078(11) 0.0377(5) 0.1672(3)
H1_4 H 0.1649 0.0802 0.1633
C2_4 C 0.5291(14) 0.1922(5) 0.2012(3)
H3_4 H 0.3774 0.2286 0.2016
H4_4 H 0.5856 0.1989 0.1583
C3_4 C 0.7217(14) 0.2356(6) 0.2536(3)
H5_4 H 0.8752 0.2013 0.2512
H6_4 H 0.7465 0.3061 0.2451
C4_4 C 0.6385(12) 0.2230(5) 0.3221(3)
H7_4 H 0.4846 0.2585 0.3246
C5_4 C 0.6004(14) 0.1094(5) 0.3349(3)
H8_4 H 0.5483 0.0998 0.3780
H9_4 H 0.7519 0.0736 0.3324
C6_4 C 0.4031(13) 0.0682(5) 0.2825(3)
H11_4 H 0.2515 0.1039 0.2849
C7_4 C 0.8296(11) 0.2642(5) 0.3749(3)
N1_4 N 0.4905(10) 0.0822(4) 0.2166(3)
O1_4 O 0.4592(8) 0.1230(3) 0.0556(2)
H15_4 H 0.3471 0.3153 0.0006
P1_4 P 0.4101(3) 0.02088(12) 0.08605(7)
O7_4 O 0.346(17) 0.284(7) 0.965(5)
H14_4 H 0.2795 0.3191 0.9346
H2_4 H 0.2594 0.9729 0.1829
H10_4 H 0.3747 0.9977 0.2902
O6_3 O 0.071(16) 0.817(7) 0.935(4)
H12_3 H 0.1862 0.7770 0.9471
H13_3 H 0.1275 0.8681 0.9177
O6_4 O 0.929(16) 0.183(7) 0.065(4)
H12_4 H 0.8138 0.2230 0.0529
H13_4 H 0.8725 0.1319 0.0823
loop_
_geom_bond_atom_site_label_1
_geom_bond_atom_site_label_2
_geom_bond_site_symmetry_1
_geom_bond_site_symmetry_2
C1 H1 1_555 1_555
H2 C1 1_555 1_555
C2 H3 1_555 1_555
H4 C2 1_555 1_555
C3 C2 1_555 1_555
H5 C3 1_555 1_555
H6 C3 1_555 1_555
C4 C3 1_555 1_555
H7 C4 1_555 1_555
C5 C4 1_555 1_555
H8 C5 1_555 1_555
H9 C5 1_555 1_555
C6 C5 1_555 1_555
H10 C6 1_555 1_555
H11 C6 1_555 1_555
C7 C4 1_555 1_555
Tb1 O1 1_555 1_555
N1 C1 1_555 1_555
O1 P1 1_555 1_555
O2 Tb1 1_555 1_555
O3 P1 1_555 1_555
O4 C7 1_555 1_555
O5 C7 1_555 1_555
O7 Tb1 1_555 1_555
H14 O7 1_555 1_555
H15 O7 1_555 1_555
P1 C1 1_555 1_555
Tb3 O3 1_555 1_555
O9 Tb1 1_555 1_555
C2 N1 1_555 1_555
C6 N1 1_555 1_555
O2 P1 1_555 1_555
H12 O6 1_555 1_555
H13 O6 1_555 1_555
Tb3 O8 1_555 1_555
Tb4 O3_2 1_555 1_555
O7_2 Tb1_2 1_555 1_555
H14_2 O7_2 1_555 1_555
O9_2 Tb1_2 1_555 1_555
C1_2 H1_2 1_555 1_555
C2_2 H3_2 1_555 1_555
H4_2 C2_2 1_555 1_555
C3_2 C2_2 1_555 1_555
H5_2 C3_2 1_555 1_555
H6_2 C3_2 1_555 1_555
C4_2 C3_2 1_555 1_555
H7_2 C4_2 1_555 1_555
C5_2 C4_2 1_555 1_555
H8_2 C5_2 1_555 1_555
H9_2 C5_2 1_555 1_555
C6_2 C5_2 1_555 1_555
H11_2 C6_2 1_555 1_555
C7_2 C4_2 1_555 1_555
N1_2 C1_2 1_555 1_555
O1_2 P1_2 1_555 1_555
O4_2 C7_2 1_555 1_555
O5_2 C7_2 1_555 1_555
P1_2 C1_2 1_555 1_555
C2_2 N1_2 1_555 1_555
C6_2 N1_2 1_555 1_555
H12_2 O6_2 1_555 1_555
H13_2 O6_2 1_555 1_555
C1_3 H1_3 1_555 1_555
H2_3 C1_3 1_555 1_555
C2_3 H3_3 1_555 1_555
H4_3 C2_3 1_555 1_555
C3_3 C2_3 1_555 1_555
H5_3 C3_3 1_555 1_555
H6_3 C3_3 1_555 1_555
C4_3 C3_3 1_555 1_555
H7_3 C4_3 1_555 1_555
C5_3 C4_3 1_555 1_555
H8_3 C5_3 1_555 1_555
H9_3 C5_3 1_555 1_555
C6_3 C5_3 1_555 1_555
H10_3 C6_3 1_555 1_555
H11_3 C6_3 1_555 1_555
C7_3 C4_3 1_555 1_555
Tb3 O1_3 1_555 1_555
N1_3 C1_3 1_555 1_555
O1_3 P1_3 1_555 1_555
O9 P1_3 1_555 1_555
O10_2 C7_3 1_555 1_555
O11_2 C7_3 1_555 1_555
O7_3 Tb3 1_555 1_555
H14_3 O7_3 1_555 1_555
H15_3 O7_3 1_555 1_555
P1_3 C1_3 1_555 1_555
C2_3 N1_3 1_555 1_555
C6_3 N1_3 1_555 1_555
O8 P1_3 1_555 1_555
C1_4 H1_4 1_555 1_555
C2_4 H3_4 1_555 1_555
H4_4 C2_4 1_555 1_555
C3_4 C2_4 1_555 1_555
H5_4 C3_4 1_555 1_555
H6_4 C3_4 1_555 1_555
C4_4 C3_4 1_555 1_555
H7_4 C4_4 1_555 1_555
C5_4 C4_4 1_555 1_555
H8_4 C5_4 1_555 1_555
H9_4 C5_4 1_555 1_555
C6_4 C5_4 1_555 1_555
H11_4 C6_4 1_555 1_555
C7_4 C4_4 1_555 1_555
N1_4 C1_4 1_555 1_555
O1_4 P1_4 1_555 1_555
O10 C7_4 1_555 1_555
O11 C7_4 1_555 1_555
P1_4 C1_4 1_555 1_555
C2_4 N1_4 1_555 1_555
C6_4 N1_4 1_555 1_555
O7_4 Tb4 1_555 1_555
H14_4 O7_4 1_555 1_555
H12_3 O6_3 1_555 1_555
H13_3 O6_3 1_555 1_555
H12_4 O6_4 1_555 1_555
H13_4 O6_4 1_555 1_555

#END
