
###############################################################################
#
# This file contains modified crystal structure data generated from the
# MOF subset of the Cambridge Structural Database (CSD) v543 
# hosted by the Cambridge Crystallographic Data Centre (CCDC).
#
# This work is licensed under the Creative Commons
# Attribution-NonCommercial-ShareAlike 4.0 International License.
# To view a copy of this license, visit
# http://creativecommons.org/licenses/by-nc-sa/4.0/
# or send a letter to
# Creative Commons, PO Box 1866, Mountain View, CA 94042, USA.
#
# CIF created using the CSD Python API on 29 September 2022
# The structure has been converted into the P1 space group
# The structure has a 3D framework
# The original CSD entry BUJLOK is in the monoclinic crystal system
# The framework has been calculated to contain at least 10.0% void space
# The void calculation uses a probe of radius 1.32A, grid spacing 0.4
# H atom positions have been added when not included in the experimental data
#
###############################################################################

data_BUJLOK
_chemical_formula_moiety         '(C316 H312 Cu8 Mn12 N72 O106)n'
_symmetry_cell_setting           triclinic
_symmetry_space_group_name_H-M   'P 1'
_symmetry_Int_Tables_number      1
_space_group_name_Hall           'P 1'
loop_
_symmetry_equiv_pos_site_id
_symmetry_equiv_pos_as_xyz
1 x,y,z
_cell_length_a                   12.4161(4)
_cell_length_b                   33.3880(10)
_cell_length_c                   25.6925(6)
_cell_angle_alpha                90
_cell_angle_beta                 95.474(3)
_cell_angle_gamma                90
_cell_volume                     10602.2
loop_
_atom_site_label
_atom_site_type_symbol
_atom_site_fract_x
_atom_site_fract_y
_atom_site_fract_z
O1 O 0.0551(4) 0.05662(15) 0.29654(17)
O6 O 0.0826(4) 0.12171(14) 0.28776(18)
C18 C 0.0204(5) 0.0926(2) 0.2938(2)
Mn4 Mn 0.23011(8) 0.06723(3) 0.30042(4)
H67 H 0.0380 0.6689 0.3400
Mn9 Mn 0.02451(8) 0.99790(3) 0.25268(3)
O3 O 0.0813(4) 0.02207(15) 0.69136(17)
N1 N 0.4090(4) 0.13174(17) 0.34260(19)
O7 O 0.2964(4) 0.01139(15) 0.32335(18)
N2 N 0.3906(4) 0.09875(17) 0.3120(2)
N3 N 0.2773(4) 0.12078(17) 0.4037(2)
O10 O 0.1557(4) 0.08117(16) 0.71617(16)
N7 N 0.2211(5) 0.08786(17) 0.3839(2)
C1 C 0.9033(6) 0.0992(2) 0.3012(3)
C11 C 0.1260(5) 0.0546(2) 0.6820(3)
C12 C 0.5680(6) 0.1130(2) 0.3206(3)
C13 C 0.7364(6) 0.0733(2) 0.3246(3)
H1 H 0.6957 0.0514 0.3360
C14 C 0.2808(5) 0.1225(2) 0.4563(2)
C16 C 0.6835(6) 0.1098(2) 0.3147(3)
C17 C 0.5157(6) 0.1414(2) 0.3482(3)
C23 C 0.1988(6) 0.0799(2) 0.5257(3)
C25 C 0.4852(6) 0.0871(2) 0.2989(3)
C29 C 0.2227(6) 0.0904(2) 0.4720(2)
C30 C 0.7468(6) 0.1416(2) 0.2975(3)
H5 H 0.7152 0.1673 0.2911
C33 C 0.1902(6) 0.0683(2) 0.4256(2)
C35 C 0.8544(6) 0.1353(2) 0.2902(3)
H8 H 0.8952 0.1566 0.2772
C37 C 0.8448(5) 0.0672(2) 0.3186(3)
H9 H 0.8782 0.0420 0.3263
C44 C 0.3181(6) 0.1494(2) 0.3673(2)
H16 H 0.3424 0.1741 0.3862
H17 H 0.2596 0.1566 0.3400
C45 C 0.5553(6) 0.1764(3) 0.3780(3)
H18 H 0.5174 0.2003 0.3638
H19 H 0.6331 0.1794 0.3755
H20 H 0.5419 0.1730 0.4147
C51 C 0.4962(6) 0.0510(2) 0.2636(3)
H26 H 0.4959 0.0264 0.2844
H27 H 0.5643 0.0529 0.2474
H28 H 0.4354 0.0505 0.2363
C52 C 0.1252(6) 0.0309(2) 0.4199(3)
H29 H 0.0743 0.0326 0.3884
H30 H 0.0851 0.0274 0.4506
H31 H 0.1736 0.0080 0.4169
C56 C 0.1509(6) 0.0629(2) 0.6279(3)
C59 C 0.1497(6) 0.1020(2) 0.6101(3)
H40 H 0.1333 0.1232 0.6328
C62 C 0.1726(6) 0.1108(2) 0.5591(3)
H47 H 0.1702 0.1377 0.5471
C64 C 0.1769(6) 0.0326(2) 0.5942(3)
H49 H 0.1757 0.0055 0.6057
C65 C 0.2041(7) 0.0406(2) 0.5448(3)
H50 H 0.2266 0.0195 0.5235
C69 C 0.3403(7) 0.1544(3) 0.4877(3)
H56 H 0.4092 0.1598 0.4733
H57 H 0.3544 0.1455 0.5241
H58 H 0.2966 0.1789 0.4864
Mn8 Mn 0.16412(8) 0.07356(3) 0.79774(4)
O21 O 0.2384(4) 0.07090(16) 0.21979(17)
O25 O 0.1232(4) 0.02110(16) 0.19737(18)
Mn12 Mn 0.97549(8) 0.00210(3) 0.74732(3)
Cu1 Cu 0.70666(7) 0.74020(3) 0.37122(4)
O5 O 0.2375(4) 0.48198(15) 0.31694(18)
O8 O 0.1015(4) 0.52506(15) 0.2948(2)
O9 O 0.0057(4) 0.94232(15) 0.20404(18)
N4 N 0.6780(4) 0.89503(17) 0.1963(2)
O11 O 0.1519(4) 0.97234(14) 0.30147(18)
N5 N 0.5896(5) 0.70074(18) 0.3820(2)
N6 N 0.5349(5) 0.77841(18) 0.4218(2)
N8 N 0.6067(5) 0.78426(18) 0.3872(2)
O13 O 0.8322(4) 0.77739(16) 0.3844(2)
N9 N 0.5238(5) 0.70717(17) 0.4219(2)
C2 C 0.2486(6) 0.9780(2) 0.3183(2)
O14 O 0.9411(5) 0.79505(18) 0.4528(2)
C3 C 0.5799(6) 0.8185(2) 0.3614(3)
N10 N 0.6557(4) 0.86222(17) 0.1639(2)
N11 N 0.7851(5) 0.87219(17) 0.1012(2)
C4 C 0.7755(6) 0.8691(2) 0.0477(2)
C5 C 0.3807(6) 0.8884(2) 0.1882(3)
C6 C 0.1590(6) 0.8998(2) 0.1971(3)
C7 C 0.3129(6) 0.9413(2) 0.3363(2)
N12 N 0.8322(4) 0.90685(17) 0.11739(19)
C9 C 0.1959(6) 0.5168(2) 0.3132(3)
C10 C 0.8185(5) 0.9028(2) 0.0294(3)
O15 O 0.8110(5) 0.75210(16) 0.4617(2)
O16 O 0.6619(5) 0.74568(16) 0.2843(2)
C15 C 0.5516(6) 0.8548(2) 0.1555(3)
C19 C 0.4294(6) 0.8722(2) 0.3669(3)
C20 C 0.4990(5) 0.8834(2) 0.1844(3)
C22 C 0.4793(7) 0.9092(2) 0.3705(3)
H2 H 0.5535 0.9111 0.3832
C24 C 0.2287(6) 0.9324(2) 0.1879(3)
H3 H 0.2000 0.9588 0.1852
C26 C 0.8543(6) 0.9265(2) 0.0738(3)
C28 C 0.3357(6) 0.9265(2) 0.1829(3)
H4 H 0.3800 0.9486 0.1757
C31 C 0.4581(6) 0.8090(2) 0.4196(3)
C32 C 0.3214(6) 0.8696(2) 0.3482(3)
H6 H 0.2867 0.8443 0.3454
C36 C 0.2635(6) 0.5516(2) 0.3331(3)
C38 C 0.2623(6) 0.9050(2) 0.3330(3)
H10 H 0.1879 0.9032 0.3207
N13 N 0.7138(7) 0.7362(3) 0.2484(3)
C39 C 0.5469(6) 0.6675(2) 0.3572(3)
C40 C 0.0431(6) 0.9061(2) 0.2041(3)
C41 C 0.2243(7) 0.5901(2) 0.3293(3)
H11 H 0.1514 0.5940 0.3154
C42 C 0.9069(6) 0.9667(2) 0.0775(3)
H12 H 0.8889 0.9802 0.1095
H13 H 0.8807 0.9828 0.0470
H14 H 0.9855 0.9635 0.0785
C43 C 0.2854(7) 0.6232(2) 0.3448(3)
H15 H 0.2551 0.6493 0.3413
C46 C 0.7470(6) 0.8450(2) 0.1399(2)
H21 H 0.7246 0.8193 0.1228
H22 H 0.8066 0.8393 0.1673
C47 C 0.5432(7) 0.7424(2) 0.4546(3)
H23 H 0.6162 0.7409 0.4737
H24 H 0.4894 0.7437 0.4806
C48 C 0.3696(7) 0.5471(2) 0.3561(3)
H25 H 0.3999 0.5210 0.3601
C49 C 0.4873(6) 0.8348(2) 0.3829(3)
O17 O 0.6698(6) 0.7233(3) 0.2071(3)
C50 C 0.4598(6) 0.6534(2) 0.3813(3)
C53 C 0.5761(6) 0.9431(2) 0.2443(3)
H32 H 0.6441 0.9451 0.2669
H33 H 0.5160 0.9395 0.2660
H34 H 0.5647 0.9676 0.2236
C54 C 0.3150(5) 0.8560(2) 0.1958(3)
H35 H 0.3447 0.8298 0.1979
C55 C 0.3944(6) 0.6178(2) 0.3660(3)
N14 N 0.8158(6) 0.6974(2) 0.3625(3)
N15 N 0.8629(6) 0.7751(2) 0.4354(3)
C57 C 0.2052(6) 0.8617(2) 0.2004(3)
H36 H 0.1609 0.8391 0.2060
C58 C 0.5071(6) 0.8205(2) 0.1230(3)
H37 H 0.5385 0.8205 0.0895
H38 H 0.4283 0.8231 0.1169
H39 H 0.5253 0.7953 0.1414
C60 C 0.6392(6) 0.8348(2) 0.3192(3)
H41 H 0.7124 0.8236 0.3219
H42 H 0.6433 0.8641 0.3224
H43 H 0.6012 0.8277 0.2853
C61 C 0.7279(7) 0.8334(2) 0.0200(3)
H44 H 0.7497 0.8092 0.0399
H46 H 0.6488 0.8356 0.0166
C63 C 0.4207(6) 0.9444(2) 0.3554(3)
H48 H 0.4549 0.9698 0.3584
C66 C 0.5916(7) 0.6532(2) 0.3089(3)
H51 H 0.5728 0.6250 0.3031
H52 H 0.6704 0.6562 0.3127
H53 H 0.5609 0.6691 0.2790
C68 C 0.4308(6) 0.5798(2) 0.3731(3)
H55 H 0.5009 0.5755 0.3904
C70 C 0.5813(6) 0.9075(2) 0.2082(3)
O18 O 0.8177(6) 0.7375(2) 0.2543(3)
C72 C 0.3697(7) 0.8092(2) 0.4541(3)
H60 H 0.3441 0.8367 0.4579
H61 H 0.3962 0.7986 0.4885
H62 H 0.3099 0.7925 0.4387
C73 C 0.4458(7) 0.6799(2) 0.4220(3)
C75 C 0.3594(7) 0.6812(2) 0.4591(3)
H64 H 0.3931 0.6801 0.4952
H65 H 0.3110 0.6582 0.4526
H66 H 0.3179 0.7060 0.4538
C76 C 0.8832(8) 0.6764(3) 0.3565(4)
C77 C 0.9779(8) 0.6516(3) 0.3477(5)
H68 H 0.9594 0.6336 0.3180
H69 H 0.9991 0.6357 0.3791
Mn6 Mn 0.83588(8) 0.92644(3) 0.20226(4)
Mn7 Mn 0.16412(8) 0.42644(3) 0.29774(4)
O4 O 0.7616(4) 0.92910(16) 0.78021(17)
O12 O 0.8768(4) 0.97890(16) 0.80263(18)
C8 C 0.8208(6) 0.9493(2) 0.8132(3)
C21 C 0.8215(6) 0.9377(2) 0.8694(2)
C27 C 0.8225(6) 0.9146(2) 0.9748(3)
C34 C 0.7327(7) 0.9075(3) 0.9385(3)
H7 H 0.6701 0.8952 0.9499
H45 H 0.7536 0.8318 0.9851
C67 C 0.9123(8) 0.9331(3) 0.9558(3)
H54 H 0.9760 0.9372 0.9787
C71 C 0.7338(6) 0.9182(3) 0.8873(3)
H59 H 0.6729 0.9120 0.8634
C74 C 0.9096(7) 0.9456(3) 0.9034(3)
H63 H 0.9695 0.9595 0.8917
Mn5 Mn 0.76989(8) 0.93277(3) 0.69958(4)
O23 O 0.8985(4) 0.02506(15) 0.2052(2)
O2 O 0.9811(4) 0.87710(15) 0.20636(19)
Mn10 Mn 0.97549(8) 0.49790(3) 0.24732(3)
O20 O 0.9187(4) 0.97793(15) 0.30864(17)
O22 O 0.7625(4) 0.98198(15) 0.18306(18)
O24 O 0.8443(4) 0.91883(16) 0.28383(16)
O2_2 O 0.0189(4) 0.37710(15) 0.29364(19)
O20_2 O 0.0813(4) 0.47793(15) 0.19136(17)
O24_2 O 0.1557(4) 0.41883(16) 0.21617(16)
N16 N 0.3220(4) 0.39503(17) 0.3037(2)
N17 N 0.1678(4) 0.40685(17) 0.38261(19)
Mn11 Mn 0.02451(8) 0.50210(3) 0.75268(3)
Mn1 Mn 0.76989(8) 0.56723(3) 0.19958(4)
Cu1_2 Cu 0.29334(7) 0.24020(3) 0.12878(4)
O4_2 O 0.2384(4) 0.42910(16) 0.71979(17)
N1_2 N 0.5910(4) 0.63174(17) 0.15740(19)
O7_2 O 0.7036(4) 0.51139(15) 0.17665(18)
N2_2 N 0.6094(4) 0.59875(17) 0.1880(2)
O9_2 O 0.9943(4) 0.44232(15) 0.29596(18)
N3_2 N 0.7227(4) 0.62078(17) 0.0963(2)
O11_2 O 0.8481(4) 0.47234(14) 0.19853(18)
O12_2 O 0.1232(4) 0.47890(16) 0.69737(18)
N5_2 N 0.4104(5) 0.20074(18) 0.1180(2)
N6_2 N 0.4651(5) 0.27841(18) 0.0782(2)
N7_2 N 0.7789(5) 0.58786(17) 0.1161(2)
C1_2 C 0.0967(6) 0.5992(2) 0.1988(3)
N8_2 N 0.3933(5) 0.28426(18) 0.1128(2)
O13_2 O 0.1678(4) 0.27739(16) 0.1156(2)
N9_2 N 0.4762(5) 0.20717(17) 0.0781(2)
C2_2 C 0.7514(6) 0.4780(2) 0.1817(2)
O14_2 O 0.0589(5) 0.29505(18) 0.0472(2)
C3_2 C 0.4201(6) 0.3185(2) 0.1386(3)
N10_2 N 0.3443(4) 0.36222(17) 0.3361(2)
N11_2 N 0.2149(5) 0.37219(17) 0.3988(2)
C4_2 C 0.2245(6) 0.3691(2) 0.4523(2)
C5_2 C 0.6193(6) 0.3884(2) 0.3118(3)
C6_2 C 0.8410(6) 0.3998(2) 0.3029(3)
C7_2 C 0.6871(6) 0.4413(2) 0.1637(2)
C8_2 C 0.1792(6) 0.4493(2) 0.6868(3)
C9_2 C 0.8041(6) 0.0168(2) 0.1868(3)
C10_2 C 0.1815(5) 0.4028(2) 0.4706(3)
O15_2 O 0.1890(5) 0.25210(16) 0.0383(2)
O16_2 O 0.3381(5) 0.24568(16) 0.2157(2)
C12_2 C 0.4320(6) 0.6130(2) 0.1794(3)
C13_2 C 0.2636(6) 0.5733(2) 0.1754(3)
H1_2 H 0.3043 0.5514 0.1640
C14_2 C 0.7192(5) 0.6225(2) 0.0437(2)
C15_2 C 0.4484(6) 0.3548(2) 0.3445(3)
C16_2 C 0.3165(6) 0.6098(2) 0.1853(3)
C17_2 C 0.4843(6) 0.6414(2) 0.1518(3)
C19_2 C 0.5706(6) 0.3722(2) 0.1331(3)
C20_2 C 0.5010(5) 0.3834(2) 0.3156(3)
C21_2 C 0.1785(6) 0.4377(2) 0.6306(2)
C22_2 C 0.5207(7) 0.4092(2) 0.1295(3)
H2_2 H 0.4465 0.4111 0.1168
C24_2 C 0.7713(6) 0.4324(2) 0.3121(3)
H3_2 H 0.8000 0.4588 0.3148
C25_2 C 0.5148(6) 0.5871(2) 0.2011(3)
C26_2 C 0.1457(6) 0.4265(2) 0.4262(3)
C27_2 C 0.1775(6) 0.4146(2) 0.5252(3)
C28_2 C 0.6643(6) 0.4265(2) 0.3171(3)
H4_2 H 0.6200 0.4486 0.3243
C29_2 C 0.7773(6) 0.5904(2) 0.0280(2)
C30_2 C 0.2532(6) 0.6416(2) 0.2025(3)
H5_2 H 0.2848 0.6673 0.2089
C31_2 C 0.5419(6) 0.3090(2) 0.0804(3)
C32_2 C 0.6786(6) 0.3696(2) 0.1518(3)
H6_2 H 0.7133 0.3443 0.1546
C33_2 C 0.8098(6) 0.5683(2) 0.0744(2)
C34_2 C 0.2673(7) 0.4075(3) 0.5615(3)
H7_2 H 0.3299 0.3952 0.5501
C35_2 C 0.1456(6) 0.6353(2) 0.2098(3)
H8_2 H 0.1048 0.6566 0.2228
C36_2 C 0.7365(6) 0.0516(2) 0.1669(3)
C37_2 C 0.1552(5) 0.5672(2) 0.1814(3)
H9_2 H 0.1218 0.5420 0.1737
C38_2 C 0.7377(6) 0.4050(2) 0.1670(3)
H10_2 H 0.8121 0.4032 0.1793
N13_2 N 0.2862(7) 0.2362(3) 0.2516(3)
C39_2 C 0.4531(6) 0.1675(2) 0.1428(3)
C40_2 C 0.9569(6) 0.4061(2) 0.2959(3)
C41_2 C 0.7757(7) 0.0901(2) 0.1707(3)
H11_2 H 0.8486 0.0940 0.1846
C42_2 C 0.0931(6) 0.4667(2) 0.4225(3)
H12_2 H 0.1111 0.4802 0.3905
H13_2 H 0.1193 0.4828 0.4530
H14_2 H 0.0145 0.4635 0.4215
C43_2 C 0.7146(7) 0.1232(2) 0.1552(3)
H15_2 H 0.7449 0.1493 0.1587
C44_2 C 0.6819(6) 0.6494(2) 0.1327(2)
H16_2 H 0.6576 0.6741 0.1138
H17_2 H 0.7404 0.6566 0.1600
C45_2 C 0.4447(6) 0.6764(3) 0.1220(3)
H18_2 H 0.4826 0.7003 0.1362
H19_2 H 0.3669 0.6794 0.1245
H20_2 H 0.4581 0.6730 0.0853
C46_2 C 0.2530(6) 0.3450(2) 0.3601(2)
H21_2 H 0.2754 0.3193 0.3772
H22_2 H 0.1934 0.3393 0.3327
C47_2 C 0.4568(7) 0.2424(2) 0.0454(3)
H23_2 H 0.3838 0.2409 0.0263
H24_2 H 0.5106 0.2437 0.0194
C48_2 C 0.6304(7) 0.0471(2) 0.1439(3)
H25_2 H 0.6001 0.0210 0.1399
C49_2 C 0.5127(6) 0.3348(2) 0.1171(3)
O17_2 O 0.3302(6) 0.2233(3) 0.2929(3)
C50_2 C 0.5402(6) 0.1534(2) 0.1187(3)
C51_2 C 0.5038(6) 0.5510(2) 0.2364(3)
H26_2 H 0.5041 0.5264 0.2156
H27_2 H 0.4357 0.5529 0.2526
H28_2 H 0.5646 0.5505 0.2637
C52_2 C 0.8748(6) 0.5309(2) 0.0801(3)
H29_2 H 0.9257 0.5326 0.1116
H30_2 H 0.9149 0.5274 0.0494
H31_2 H 0.8264 0.5080 0.0831
C53_2 C 0.4239(6) 0.4431(2) 0.2557(3)
H32_2 H 0.3559 0.4451 0.2331
H33_2 H 0.4840 0.4395 0.2340
H34_2 H 0.4353 0.4676 0.2764
C54_2 C 0.6850(5) 0.3560(2) 0.3042(3)
H35_2 H 0.6553 0.3298 0.3021
C55_2 C 0.6056(6) 0.1178(2) 0.1340(3)
N14_2 N 0.1842(6) 0.1974(2) 0.1375(3)
N15_2 N 0.1371(6) 0.2751(2) 0.0646(3)
C57_2 C 0.7948(6) 0.3617(2) 0.2996(3)
H36_2 H 0.8391 0.3391 0.2940
C58_2 C 0.4929(6) 0.3205(2) 0.3770(3)
H37_2 H 0.4615 0.3205 0.4105
H38_2 H 0.5717 0.3231 0.3831
H39_2 H 0.4747 0.2953 0.3586
C60_2 C 0.3608(6) 0.3348(2) 0.1808(3)
H41_2 H 0.2876 0.3236 0.1781
H42_2 H 0.3567 0.3641 0.1776
H43_2 H 0.3988 0.3277 0.2147
C61_2 C 0.2721(7) 0.3334(2) 0.4800(3)
H44_2 H 0.2503 0.3092 0.4601
H45_2 H 0.2464 0.3318 0.5149
H46_2 H 0.3512 0.3356 0.4834
C63_2 C 0.5793(6) 0.4444(2) 0.1446(3)
H48_2 H 0.5451 0.4698 0.1416
C66_2 C 0.4084(7) 0.1532(2) 0.1911(3)
H51_2 H 0.4272 0.1250 0.1969
H52_2 H 0.3296 0.1562 0.1873
H53_2 H 0.4391 0.1691 0.2210
C67_2 C 0.0877(8) 0.4331(3) 0.5442(3)
H54_2 H 0.0240 0.4372 0.5213
C68_2 C 0.5692(6) 0.0798(2) 0.1269(3)
H55_2 H 0.4991 0.0755 0.1096
C69_2 C 0.6597(7) 0.6544(3) 0.0123(3)
H56_2 H 0.5908 0.6598 0.0267
H58_2 H 0.7034 0.6789 0.0136
C70_2 C 0.4187(6) 0.4075(2) 0.2918(3)
O18_2 O 0.1823(6) 0.2375(2) 0.2457(3)
C71_2 C 0.2662(6) 0.4182(3) 0.6127(3)
H59_2 H 0.3271 0.4120 0.6366
C72_2 C 0.6303(7) 0.3092(2) 0.0459(3)
H60_2 H 0.6559 0.3367 0.0421
H61_2 H 0.6038 0.2986 0.0115
H62_2 H 0.6901 0.2925 0.0613
C73_2 C 0.5542(7) 0.1799(2) 0.0780(3)
C74_2 C 0.0904(7) 0.4456(3) 0.5966(3)
H63_2 H 0.0305 0.4595 0.6083
C75_2 C 0.6406(7) 0.1812(2) 0.0409(3)
H64_2 H 0.6069 0.1801 0.0048
H65_2 H 0.6890 0.1582 0.0474
H66_2 H 0.6821 0.2060 0.0462
C76_2 C 0.1168(8) 0.1764(3) 0.1435(4)
C77_2 C 0.0221(8) 0.1516(3) 0.1523(5)
H68_2 H 0.0406 0.1336 0.1820
H69_2 H 0.0009 0.1357 0.1209
Mn5_2 Mn 0.23011(8) 0.43277(3) 0.80042(4)
O19 O 0.9449(4) 0.55662(15) 0.20346(17)
O21_2 O 0.7616(4) 0.57090(16) 0.28021(17)
O25_2 O 0.8768(4) 0.52110(16) 0.30263(18)
O3_2 O 0.9187(4) 0.52207(15) 0.80864(17)
O10_2 O 0.8443(4) 0.58117(16) 0.78383(16)
C11_2 C 0.8740(5) 0.5546(2) 0.8180(3)
C23_2 C 0.8012(6) 0.5799(2) 0.9743(3)
C56_2 C 0.8491(6) 0.5629(2) 0.8721(3)
C59_2 C 0.8503(6) 0.6020(2) 0.8899(3)
H40_2 H 0.8667 0.6232 0.8672
C62_2 C 0.8274(6) 0.6108(2) 0.9409(3)
H47_2 H 0.8298 0.6377 0.9529
C64_2 C 0.8231(6) 0.5326(2) 0.9058(3)
H49_2 H 0.8243 0.5055 0.8943
C65_2 C 0.7959(7) 0.5406(2) 0.9552(3)
H50_2 H 0.7734 0.5195 0.9765
H57_2 H 0.6456 0.6455 0.9759
Mn8_2 Mn 0.83588(8) 0.57356(3) 0.70226(4)
O6_2 O 0.9174(4) 0.62171(14) 0.21224(18)
C18_2 C 0.9796(5) 0.5926(2) 0.2062(2)
H67_2 H 0.9620 0.1689 0.1600
O2_3 O 0.0189(4) 0.12290(15) 0.79364(19)
O22_2 O 0.2375(4) 0.01802(15) 0.81694(18)
N16_2 N 0.3220(4) 0.10497(17) 0.8037(2)
N17_2 N 0.1678(4) 0.09315(17) 0.88261(19)
O23_2 O 0.1015(4) 0.97494(15) 0.7948(2)
C8_3 C 0.1792(6) 0.0507(2) 0.1868(3)
C21_3 C 0.1785(6) 0.0623(2) 0.1306(2)
C27_3 C 0.1775(6) 0.0854(2) 0.0252(3)
C34_3 C 0.2673(7) 0.0925(3) 0.0615(3)
H7_3 H 0.3299 0.1048 0.0501
H45_3 H 0.2464 0.1682 0.0149
C67_3 C 0.0877(8) 0.0669(3) 0.0442(3)
H54_3 H 0.0240 0.0628 0.0213
C71_3 C 0.2662(6) 0.0818(3) 0.1127(3)
H59_3 H 0.3271 0.0880 0.1366
C74_3 C 0.0904(7) 0.0544(3) 0.0966(3)
H63_3 H 0.0305 0.0405 0.1083
Cu1_3 Cu 0.29334(7) 0.25980(3) 0.62878(4)
O5_2 O 0.7625(4) 0.51802(15) 0.68306(18)
O8_2 O 0.8985(4) 0.47494(15) 0.7052(2)
O9_3 O 0.9943(4) 0.05768(15) 0.79596(18)
O11_3 O 0.8481(4) 0.02766(14) 0.69853(18)
N5_3 N 0.4104(5) 0.29926(18) 0.6180(2)
N6_3 N 0.4651(5) 0.22159(18) 0.5782(2)
N8_3 N 0.3933(5) 0.21574(18) 0.6128(2)
O13_3 O 0.1678(4) 0.22261(16) 0.6156(2)
N9_3 N 0.4762(5) 0.29283(17) 0.5781(2)
C2_3 C 0.7514(6) 0.0220(2) 0.6817(2)
O14_3 O 0.0589(5) 0.20495(18) 0.5472(2)
C3_3 C 0.4201(6) 0.1815(2) 0.6386(3)
N10_3 N 0.3443(4) 0.13778(17) 0.8361(2)
N11_3 N 0.2149(5) 0.12781(17) 0.8988(2)
C4_3 C 0.2245(6) 0.1309(2) 0.9523(2)
C5_3 C 0.6193(6) 0.1116(2) 0.8118(3)
C6_3 C 0.8410(6) 0.1002(2) 0.8029(3)
C7_3 C 0.6871(6) 0.0587(2) 0.6637(2)
C9_3 C 0.8041(6) 0.4832(2) 0.6868(3)
C10_3 C 0.1815(5) 0.0972(2) 0.9706(3)
O15_3 O 0.1890(5) 0.24790(16) 0.5383(2)
O16_3 O 0.3381(5) 0.25432(16) 0.7157(2)
C15_3 C 0.4484(6) 0.1452(2) 0.8445(3)
C19_3 C 0.5706(6) 0.1278(2) 0.6331(3)
C20_3 C 0.5010(5) 0.1166(2) 0.8156(3)
C22_3 C 0.5207(7) 0.0908(2) 0.6295(3)
H2_3 H 0.4465 0.0889 0.6168
C24_3 C 0.7713(6) 0.0676(2) 0.8121(3)
H3_3 H 0.8000 0.0412 0.8148
C26_3 C 0.1457(6) 0.0735(2) 0.9262(3)
C28_3 C 0.6643(6) 0.0735(2) 0.8171(3)
H4_3 H 0.6200 0.0514 0.8243
C31_3 C 0.5419(6) 0.1910(2) 0.5804(3)
C32_3 C 0.6786(6) 0.1304(2) 0.6518(3)
H6_3 H 0.7133 0.1557 0.6546
C36_3 C 0.7365(6) 0.4484(2) 0.6669(3)
C38_3 C 0.7377(6) 0.0950(2) 0.6670(3)
H10_3 H 0.8121 0.0968 0.6793
N13_3 N 0.2862(7) 0.2638(3) 0.7516(3)
C39_3 C 0.4531(6) 0.3325(2) 0.6428(3)
C40_3 C 0.9569(6) 0.0939(2) 0.7959(3)
C41_3 C 0.7757(7) 0.4099(2) 0.6707(3)
H11_3 H 0.8486 0.4060 0.6846
C42_3 C 0.0931(6) 0.0333(2) 0.9225(3)
H12_3 H 0.1111 0.0198 0.8905
H13_3 H 0.1193 0.0172 0.9530
H14_3 H 0.0145 0.0365 0.9215
C43_3 C 0.7146(7) 0.3768(2) 0.6552(3)
H15_3 H 0.7449 0.3507 0.6587
C46_3 C 0.2530(6) 0.1550(2) 0.8601(2)
H21_3 H 0.2754 0.1807 0.8772
H22_3 H 0.1934 0.1607 0.8327
C47_3 C 0.4568(7) 0.2576(2) 0.5454(3)
H23_3 H 0.3838 0.2591 0.5263
H24_3 H 0.5106 0.2563 0.5194
C48_3 C 0.6304(7) 0.4529(2) 0.6439(3)
H25_3 H 0.6001 0.4790 0.6399
C49_3 C 0.5127(6) 0.1652(2) 0.6171(3)
O17_3 O 0.3302(6) 0.2767(3) 0.7929(3)
C50_3 C 0.5402(6) 0.3466(2) 0.6187(3)
C53_3 C 0.4239(6) 0.0569(2) 0.7557(3)
H32_3 H 0.3559 0.0549 0.7331
H33_3 H 0.4840 0.0605 0.7340
H34_3 H 0.4353 0.0324 0.7764
C54_3 C 0.6850(5) 0.1440(2) 0.8042(3)
H35_3 H 0.6553 0.1702 0.8021
C55_3 C 0.6056(6) 0.3822(2) 0.6340(3)
N14_3 N 0.1842(6) 0.3026(2) 0.6375(3)
N15_3 N 0.1371(6) 0.2249(2) 0.5646(3)
C57_3 C 0.7948(6) 0.1383(2) 0.7996(3)
H36_3 H 0.8391 0.1609 0.7940
C58_3 C 0.4929(6) 0.1795(2) 0.8770(3)
H37_3 H 0.4615 0.1795 0.9105
H38_3 H 0.5717 0.1769 0.8831
H39_3 H 0.4747 0.2047 0.8586
C60_3 C 0.3608(6) 0.1652(2) 0.6808(3)
H41_3 H 0.2876 0.1764 0.6781
H42_3 H 0.3567 0.1359 0.6776
H43_3 H 0.3988 0.1723 0.7147
C61_3 C 0.2721(7) 0.1666(2) 0.9800(3)
H44_3 H 0.2503 0.1908 0.9601
H46_3 H 0.3512 0.1644 0.9834
C63_3 C 0.5793(6) 0.0556(2) 0.6446(3)
H48_3 H 0.5451 0.0302 0.6416
C66_3 C 0.4084(7) 0.3468(2) 0.6911(3)
H51_3 H 0.4272 0.3750 0.6969
H52_3 H 0.3296 0.3438 0.6873
H53_3 H 0.4391 0.3309 0.7210
C68_3 C 0.5692(6) 0.4202(2) 0.6269(3)
H55_3 H 0.4991 0.4245 0.6096
C70_3 C 0.4187(6) 0.0925(2) 0.7918(3)
O18_3 O 0.1823(6) 0.2625(2) 0.7457(3)
C72_3 C 0.6303(7) 0.1908(2) 0.5459(3)
H60_3 H 0.6559 0.1633 0.5421
H61_3 H 0.6038 0.2014 0.5115
H62_3 H 0.6901 0.2075 0.5613
C73_3 C 0.5542(7) 0.3201(2) 0.5780(3)
C75_3 C 0.6406(7) 0.3188(2) 0.5409(3)
H64_3 H 0.6069 0.3199 0.5048
H65_3 H 0.6890 0.3418 0.5474
H66_3 H 0.6821 0.2940 0.5462
C76_3 C 0.1168(8) 0.3236(3) 0.6435(4)
C77_3 C 0.0221(8) 0.3484(3) 0.6523(5)
H68_3 H 0.0406 0.3664 0.6820
H69_3 H 0.0009 0.3643 0.6209
N1_3 N 0.5910(4) 0.86826(17) 0.65740(19)
O7_3 O 0.7036(4) 0.98861(15) 0.67665(18)
N2_3 N 0.6094(4) 0.90125(17) 0.6880(2)
N3_3 N 0.7227(4) 0.87922(17) 0.5963(2)
N7_3 N 0.7789(5) 0.91214(17) 0.6161(2)
C1_3 C 0.0967(6) 0.9008(2) 0.6988(3)
C11_3 C 0.8740(5) 0.9454(2) 0.3180(3)
C12_3 C 0.4320(6) 0.8870(2) 0.6794(3)
C13_3 C 0.2636(6) 0.9267(2) 0.6754(3)
H1_3 H 0.3043 0.9486 0.6640
C14_3 C 0.7192(5) 0.8775(2) 0.5437(2)
C16_3 C 0.3165(6) 0.8902(2) 0.6853(3)
C17_3 C 0.4843(6) 0.8586(2) 0.6518(3)
C23_3 C 0.8012(6) 0.9201(2) 0.4743(3)
C25_3 C 0.5148(6) 0.9129(2) 0.7011(3)
C29_3 C 0.7773(6) 0.9096(2) 0.5280(2)
C30_3 C 0.2532(6) 0.8584(2) 0.7025(3)
H5_3 H 0.2848 0.8327 0.7089
C33_3 C 0.8098(6) 0.9317(2) 0.5744(2)
C35_3 C 0.1456(6) 0.8647(2) 0.7098(3)
H8_3 H 0.1048 0.8434 0.7228
C37_3 C 0.1552(5) 0.9328(2) 0.6814(3)
H9_3 H 0.1218 0.9580 0.6737
C44_3 C 0.6819(6) 0.8506(2) 0.6327(2)
H16_3 H 0.6576 0.8259 0.6138
H17_3 H 0.7404 0.8434 0.6600
C45_3 C 0.4447(6) 0.8236(3) 0.6220(3)
H18_3 H 0.4826 0.7997 0.6362
H19_3 H 0.3669 0.8206 0.6245
H20_3 H 0.4581 0.8270 0.5853
C51_3 C 0.5038(6) 0.9490(2) 0.7364(3)
H26_3 H 0.5041 0.9736 0.7156
H27_3 H 0.4357 0.9471 0.7526
H28_3 H 0.5646 0.9495 0.7637
C52_3 C 0.8748(6) 0.9691(2) 0.5801(3)
H29_3 H 0.9257 0.9674 0.6116
H30_3 H 0.9149 0.9726 0.5494
H31_3 H 0.8264 0.9920 0.5831
C56_3 C 0.8491(6) 0.9371(2) 0.3721(3)
C59_3 C 0.8503(6) 0.8980(2) 0.3899(3)
H40_3 H 0.8667 0.8768 0.3672
C62_3 C 0.8274(6) 0.8892(2) 0.4409(3)
H47_3 H 0.8298 0.8623 0.4529
C64_3 C 0.8231(6) 0.9674(2) 0.4058(3)
H49_3 H 0.8243 0.9945 0.3943
C65_3 C 0.7959(7) 0.9594(2) 0.4552(3)
H50_3 H 0.7734 0.9805 0.4765
C69_3 C 0.6597(7) 0.8456(3) 0.5123(3)
H56_3 H 0.5908 0.8402 0.5267
H57_3 H 0.6456 0.8545 0.4759
H58_3 H 0.7034 0.8211 0.5136
O19_2 O 0.9449(4) 0.94338(15) 0.70346(17)
H67_3 H 0.9620 0.3311 0.6600
O6_3 O 0.9174(4) 0.87829(14) 0.71224(18)
C18_3 C 0.9796(5) 0.9074(2) 0.7062(2)
O1_2 O 0.0551(4) 0.44338(15) 0.79654(17)
O6_4 O 0.0826(4) 0.37829(14) 0.78776(18)
C18_4 C 0.0204(5) 0.4074(2) 0.7938(2)
H67_4 H 0.0380 0.8311 0.8400
C11_4 C 0.1260(5) 0.4454(2) 0.1820(3)
C23_4 C 0.1988(6) 0.4201(2) 0.0257(3)
C56_4 C 0.1509(6) 0.4371(2) 0.1279(3)
C59_4 C 0.1497(6) 0.3980(2) 0.1101(3)
H40_4 H 0.1333 0.3768 0.1328
C62_4 C 0.1726(6) 0.3892(2) 0.0591(3)
H47_4 H 0.1702 0.3623 0.0471
C64_4 C 0.1769(6) 0.4674(2) 0.0942(3)
H49_4 H 0.1757 0.4945 0.1057
C65_4 C 0.2041(7) 0.4594(2) 0.0448(3)
H50_4 H 0.2266 0.4805 0.0235
H57_4 H 0.3544 0.3545 0.0241
Cu1_4 Cu 0.70666(7) 0.75980(3) 0.87122(4)
N1_4 N 0.4090(4) 0.36826(17) 0.84260(19)
O7_4 O 0.2964(4) 0.48861(15) 0.82335(18)
N2_4 N 0.3906(4) 0.40125(17) 0.8120(2)
O9_4 O 0.0057(4) 0.55768(15) 0.70404(18)
N3_4 N 0.2773(4) 0.37922(17) 0.9037(2)
N4_2 N 0.6780(4) 0.60497(17) 0.6963(2)
O11_4 O 0.1519(4) 0.52766(14) 0.80147(18)
N5_4 N 0.5896(5) 0.79926(18) 0.8820(2)
N6_4 N 0.5349(5) 0.72159(18) 0.9218(2)
N7_4 N 0.2211(5) 0.41214(17) 0.8839(2)
C1_4 C 0.9033(6) 0.4008(2) 0.8012(3)
N8_4 N 0.6067(5) 0.71574(18) 0.8872(2)
O13_4 O 0.8322(4) 0.72261(16) 0.8844(2)
N9_4 N 0.5238(5) 0.79283(17) 0.9219(2)
C2_4 C 0.2486(6) 0.5220(2) 0.8183(2)
O14_4 O 0.9411(5) 0.70495(18) 0.9528(2)
C3_4 C 0.5799(6) 0.6815(2) 0.8614(3)
N10_4 N 0.6557(4) 0.63778(17) 0.6639(2)
N11_4 N 0.7851(5) 0.62781(17) 0.6012(2)
C4_4 C 0.7755(6) 0.6309(2) 0.5477(2)
C5_4 C 0.3807(6) 0.6116(2) 0.6882(3)
C6_4 C 0.1590(6) 0.6002(2) 0.6971(3)
C7_4 C 0.3129(6) 0.5587(2) 0.8363(2)
N12_2 N 0.8322(4) 0.59315(17) 0.61739(19)
C8_4 C 0.8208(6) 0.5507(2) 0.3132(3)
C9_4 C 0.1959(6) 0.9832(2) 0.8132(3)
C10_4 C 0.8185(5) 0.5972(2) 0.5294(3)
O15_4 O 0.8110(5) 0.74790(16) 0.9617(2)
O16_4 O 0.6619(5) 0.75432(16) 0.7843(2)
C12_4 C 0.5680(6) 0.3870(2) 0.8206(3)
C13_4 C 0.7364(6) 0.4267(2) 0.8246(3)
H1_4 H 0.6957 0.4486 0.8360
C14_4 C 0.2808(5) 0.3775(2) 0.9563(2)
C15_4 C 0.5516(6) 0.6452(2) 0.6555(3)
C16_4 C 0.6835(6) 0.3902(2) 0.8147(3)
C17_4 C 0.5157(6) 0.3586(2) 0.8482(3)
C19_4 C 0.4294(6) 0.6278(2) 0.8669(3)
C20_4 C 0.4990(5) 0.6166(2) 0.6844(3)
C21_4 C 0.8215(6) 0.5623(2) 0.3694(2)
C22_4 C 0.4793(7) 0.5908(2) 0.8705(3)
H2_4 H 0.5535 0.5889 0.8832
C24_4 C 0.2287(6) 0.5676(2) 0.6879(3)
H3_4 H 0.2000 0.5412 0.6852
C25_4 C 0.4852(6) 0.4129(2) 0.7989(3)
C26_4 C 0.8543(6) 0.5735(2) 0.5738(3)
C27_4 C 0.8225(6) 0.5854(2) 0.4748(3)
C28_4 C 0.3357(6) 0.5735(2) 0.6829(3)
H4_4 H 0.3800 0.5514 0.6757
C29_4 C 0.2227(6) 0.4096(2) 0.9720(2)
C30_4 C 0.7468(6) 0.3584(2) 0.7975(3)
H5_4 H 0.7152 0.3327 0.7911
C31_4 C 0.4581(6) 0.6910(2) 0.9196(3)
C32_4 C 0.3214(6) 0.6304(2) 0.8482(3)
H6_4 H 0.2867 0.6557 0.8454
C33_4 C 0.1902(6) 0.4317(2) 0.9256(2)
C34_4 C 0.7327(7) 0.5925(3) 0.4385(3)
H7_4 H 0.6701 0.6048 0.4499
C35_4 C 0.8544(6) 0.3647(2) 0.7902(3)
H8_4 H 0.8952 0.3434 0.7772
C36_4 C 0.2635(6) 0.9484(2) 0.8331(3)
C37_4 C 0.8448(5) 0.4328(2) 0.8186(3)
H9_4 H 0.8782 0.4580 0.8263
C38_4 C 0.2623(6) 0.5950(2) 0.8330(3)
H10_4 H 0.1879 0.5968 0.8207
N13_4 N 0.7138(7) 0.7638(3) 0.7484(3)
C39_4 C 0.5469(6) 0.8325(2) 0.8572(3)
C40_4 C 0.0431(6) 0.5939(2) 0.7041(3)
C41_4 C 0.2243(7) 0.9099(2) 0.8293(3)
H11_4 H 0.1514 0.9060 0.8154
C42_4 C 0.9069(6) 0.5333(2) 0.5775(3)
H12_4 H 0.8889 0.5198 0.6095
H13_4 H 0.8807 0.5172 0.5470
H14_4 H 0.9855 0.5365 0.5785
C43_4 C 0.2854(7) 0.8768(2) 0.8448(3)
H15_4 H 0.2551 0.8507 0.8413
C44_4 C 0.3181(6) 0.3506(2) 0.8673(2)
H16_4 H 0.3424 0.3259 0.8862
H17_4 H 0.2596 0.3434 0.8400
C45_4 C 0.5553(6) 0.3236(3) 0.8780(3)
H18_4 H 0.5174 0.2997 0.8638
H19_4 H 0.6331 0.3206 0.8755
H20_4 H 0.5419 0.3270 0.9147
C46_4 C 0.7470(6) 0.6550(2) 0.6399(2)
H21_4 H 0.7246 0.6807 0.6228
H22_4 H 0.8066 0.6607 0.6673
C47_4 C 0.5432(7) 0.7576(2) 0.9546(3)
H23_4 H 0.6162 0.7591 0.9737
H24_4 H 0.4894 0.7563 0.9806
C48_4 C 0.3696(7) 0.9529(2) 0.8561(3)
H25_4 H 0.3999 0.9790 0.8601
C49_4 C 0.4873(6) 0.6652(2) 0.8829(3)
O17_4 O 0.6698(6) 0.7767(3) 0.7071(3)
C50_4 C 0.4598(6) 0.8466(2) 0.8813(3)
C51_4 C 0.4962(6) 0.4490(2) 0.7636(3)
H26_4 H 0.4959 0.4736 0.7844
H27_4 H 0.5643 0.4471 0.7474
H28_4 H 0.4354 0.4495 0.7363
C52_4 C 0.1252(6) 0.4691(2) 0.9199(3)
H29_4 H 0.0743 0.4674 0.8884
H30_4 H 0.0851 0.4726 0.9506
H31_4 H 0.1736 0.4920 0.9169
C53_4 C 0.5761(6) 0.5569(2) 0.7443(3)
H32_4 H 0.6441 0.5549 0.7669
H33_4 H 0.5160 0.5605 0.7660
H34_4 H 0.5647 0.5324 0.7236
C54_4 C 0.3150(5) 0.6440(2) 0.6958(3)
H35_4 H 0.3447 0.6702 0.6979
C55_4 C 0.3944(6) 0.8822(2) 0.8660(3)
N14_4 N 0.8158(6) 0.8026(2) 0.8625(3)
N15_4 N 0.8629(6) 0.7249(2) 0.9354(3)
C57_4 C 0.2052(6) 0.6383(2) 0.7004(3)
H36_4 H 0.1609 0.6609 0.7060
C58_4 C 0.5071(6) 0.6795(2) 0.6230(3)
H37_4 H 0.5385 0.6795 0.5895
H38_4 H 0.4283 0.6769 0.6169
H39_4 H 0.5253 0.7047 0.6414
C60_4 C 0.6392(6) 0.6652(2) 0.8192(3)
H41_4 H 0.7124 0.6764 0.8219
H42_4 H 0.6433 0.6359 0.8224
H43_4 H 0.6012 0.6723 0.7853
C61_4 C 0.7279(7) 0.6666(2) 0.5200(3)
H44_4 H 0.7497 0.6908 0.5399
H45_4 H 0.7536 0.6682 0.4851
H46_4 H 0.6488 0.6644 0.5166
C63_4 C 0.4207(6) 0.5556(2) 0.8554(3)
H48_4 H 0.4549 0.5302 0.8584
C66_4 C 0.5916(7) 0.8468(2) 0.8089(3)
H51_4 H 0.5728 0.8750 0.8031
H52_4 H 0.6704 0.8438 0.8127
H53_4 H 0.5609 0.8309 0.7790
C67_4 C 0.9123(8) 0.5669(3) 0.4558(3)
H54_4 H 0.9760 0.5628 0.4787
C68_4 C 0.4308(6) 0.9202(2) 0.8731(3)
H55_4 H 0.5009 0.9245 0.8904
C69_4 C 0.3403(7) 0.3456(3) 0.9877(3)
H56_4 H 0.4092 0.3402 0.9733
H58_4 H 0.2966 0.3211 0.9864
C70_4 C 0.5813(6) 0.5925(2) 0.7082(3)
O18_4 O 0.8177(6) 0.7625(2) 0.7543(3)
C71_4 C 0.7338(6) 0.5818(3) 0.3873(3)
H59_4 H 0.6729 0.5880 0.3634
C72_4 C 0.3697(7) 0.6908(2) 0.9541(3)
H60_4 H 0.3441 0.6633 0.9579
H61_4 H 0.3962 0.7014 0.9885
H62_4 H 0.3099 0.7075 0.9387
C73_4 C 0.4458(7) 0.8201(2) 0.9220(3)
C74_4 C 0.9096(7) 0.5544(3) 0.4034(3)
H63_4 H 0.9695 0.5405 0.3917
C75_4 C 0.3594(7) 0.8188(2) 0.9591(3)
H64_4 H 0.3931 0.8199 0.9952
H65_4 H 0.3110 0.8418 0.9526
H66_4 H 0.3179 0.7940 0.9538
C76_4 C 0.8832(8) 0.8236(3) 0.8565(4)
C77_4 C 0.9779(8) 0.8484(3) 0.8477(5)
H68_4 H 0.9594 0.8664 0.8180
H69_4 H 0.9991 0.8643 0.8791
O2_4 O 0.9811(4) 0.62290(15) 0.70636(19)
O26 O 0.6087(5) 0.25495(17) 0.4439(2)
N18 N 0.6997(7) 0.2516(2) 0.4311(3)
O27 O 0.7698(6) 0.2301(3) 0.4592(3)
O28 O 0.7303(5) 0.2672(2) 0.3908(3)
O26_2 O 0.3913(5) 0.75495(17) 0.0561(2)
N18_2 N 0.3003(7) 0.7516(2) 0.0689(3)
O27_2 O 0.2302(6) 0.7301(3) 0.0408(3)
O28_2 O 0.2697(5) 0.7672(2) 0.1092(3)
O26_3 O 0.3913(5) 0.74505(17) 0.5561(2)
N18_3 N 0.3003(7) 0.7484(2) 0.5689(3)
O27_3 O 0.2302(6) 0.7699(3) 0.5408(3)
O28_3 O 0.2697(5) 0.7328(2) 0.6092(3)
O26_4 O 0.6087(5) 0.24505(17) 0.9439(2)
N18_4 N 0.6997(7) 0.2484(2) 0.9311(3)
O27_4 O 0.7698(6) 0.2699(3) 0.9592(3)
O28_4 O 0.7303(5) 0.2328(2) 0.8908(3)
Cu2 Cu 0.02230(9) 0.21162(3) 0.38288(4)
O29 O 0.1714(4) 0.20460(17) 0.4165(2)
O32 O 0.0666(5) 0.19700(18) 0.3140(2)
O33 O 0.3171(5) 0.24296(18) 0.4230(3)
O34 O 0.1622(5) 0.2655(2) 0.3856(3)
N19 N 0.2200(7) 0.2393(2) 0.4090(3)
H75 H 0.0211121 0.258465 0.458454
H77 H 0.0968075 0.169441 0.315465
H78 H 0.00285164 0.198087 0.28758
O30 O 0.8827(5) 0.22744(19) 0.3464(2)
O31 O 0.9778(5) 0.2341(2) 0.4489(2)
C78 C 0.9420(8) 0.1280(3) 0.4391(4)
N20 N 0.9811(6) 0.1495(2) 0.4113(3)
C79 C 0.9073(12) 0.0962(5) 0.4723(7)
H70 H 0.9708 0.0840 0.4917
H71 H 0.8680 0.0758 0.4507
H72 H 0.8598 0.1074 0.4970
H73 H 0.892255 0.233634 0.309319
H74 H 0.830126 0.205158 0.347937
H76 H 0.899823 0.241208 0.444138
O30_2 O 0.1173(5) 0.72744(19) 0.1536(2)
O31_2 O 0.0222(5) 0.7341(2) 0.0511(2)
C78_2 C 0.0580(8) 0.6280(3) 0.0609(4)
N20_2 N 0.0189(6) 0.6495(2) 0.0887(3)
C79_2 C 0.0927(12) 0.5962(5) 0.0277(7)
H70_2 H 0.0292 0.5840 0.0083
H71_2 H 0.1320 0.5758 0.0493
H72_2 H 0.1402 0.6074 0.0030
H73_2 H 0.107745 0.733634 0.190681
H74_2 H 0.169874 0.705158 0.152063
H76_2 H 0.100177 0.741208 0.0558621
Cu2_2 Cu 0.97770(9) 0.71162(3) 0.11712(4)
O29_2 O 0.8286(4) 0.70460(17) 0.0835(2)
O32_2 O 0.9334(5) 0.69700(18) 0.1860(2)
O33_2 O 0.6829(5) 0.74296(18) 0.0770(3)
O34_2 O 0.8378(5) 0.7655(2) 0.1144(3)
N19_2 N 0.7800(7) 0.7393(2) 0.0910(3)
H75_2 H 0.978888 0.758465 0.0415464
H77_2 H 0.903192 0.669441 0.184535
H78_2 H 0.997148 0.698087 0.21242
O30_3 O 0.1173(5) 0.77256(19) 0.6536(2)
O31_3 O 0.0222(5) 0.7659(2) 0.5511(2)
C78_3 C 0.0580(8) 0.8720(3) 0.5609(4)
N20_3 N 0.0189(6) 0.8505(2) 0.5887(3)
C79_3 C 0.0927(12) 0.9038(5) 0.5277(7)
H70_3 H 0.0292 0.9160 0.5083
H71_3 H 0.1320 0.9242 0.5493
H72_3 H 0.1402 0.8926 0.5030
H73_3 H 0.107745 0.766366 0.690681
H74_3 H 0.169874 0.794842 0.652063
H76_3 H 0.100177 0.758792 0.555862
Cu2_3 Cu 0.97770(9) 0.78838(3) 0.61712(4)
O29_3 O 0.8286(4) 0.79540(17) 0.5835(2)
O32_3 O 0.9334(5) 0.80300(18) 0.6860(2)
O33_3 O 0.6829(5) 0.75704(18) 0.5770(3)
O34_3 O 0.8378(5) 0.7345(2) 0.6144(3)
N19_3 N 0.7800(7) 0.7607(2) 0.5910(3)
H75_3 H 0.978888 0.741535 0.541546
H77_3 H 0.903192 0.830559 0.684535
H78_3 H 0.997148 0.801913 0.71242
Cu2_4 Cu 0.02230(9) 0.28838(3) 0.88288(4)
O29_4 O 0.1714(4) 0.29540(17) 0.9165(2)
O32_4 O 0.0666(5) 0.30300(18) 0.8140(2)
O33_4 O 0.3171(5) 0.25704(18) 0.9230(3)
O34_4 O 0.1622(5) 0.2345(2) 0.8856(3)
N19_4 N 0.2200(7) 0.2607(2) 0.9090(3)
H75_4 H 0.0211121 0.241535 0.958454
H77_4 H 0.0968075 0.330559 0.815465
H78_4 H 0.00285164 0.301913 0.78758
O30_4 O 0.8827(5) 0.27256(19) 0.8464(2)
O31_4 O 0.9778(5) 0.2659(2) 0.9489(2)
C78_4 C 0.9420(8) 0.3720(3) 0.9391(4)
N20_4 N 0.9811(6) 0.3505(2) 0.9113(3)
C79_4 C 0.9073(12) 0.4038(5) 0.9723(7)
H70_4 H 0.9708 0.4160 0.9917
H71_4 H 0.8680 0.4242 0.9507
H72_4 H 0.8598 0.3926 0.9970
H73_4 H 0.892255 0.266366 0.809319
H74_4 H 0.830126 0.294842 0.847937
H76_4 H 0.899823 0.258792 0.944138
loop_
_geom_bond_atom_site_label_1
_geom_bond_atom_site_label_2
_geom_bond_site_symmetry_1
_geom_bond_site_symmetry_2
O1 C18 1_555 1_555
O6 C18 1_555 1_555
Mn4 O1 1_555 1_555
Mn4 O7 1_555 1_555
O3 C11 1_555 1_555
N1 N2 1_555 1_555
N2 Mn4 1_555 1_555
N3 N7 1_555 1_555
O10 C11 1_555 1_555
N7 Mn4 1_555 1_555
C11 C56 1_555 1_555
C12 C16 1_555 1_555
C13 H1 1_555 1_555
C14 N3 1_555 1_555
C16 C13 1_555 1_555
C17 N1 1_555 1_555
C23 C29 1_555 1_555
C25 N2 1_555 1_555
C29 C14 1_555 1_555
C30 C16 1_555 1_555
H5 C30 1_555 1_555
C33 N7 1_555 1_555
C35 C1 1_555 1_555
H8 C35 1_555 1_555
C37 C1 1_555 1_555
H9 C37 1_555 1_555
C44 N1 1_555 1_555
H16 C44 1_555 1_555
H17 C44 1_555 1_555
C45 C17 1_555 1_555
H18 C45 1_555 1_555
H19 C45 1_555 1_555
H20 C45 1_555 1_555
C51 C25 1_555 1_555
H26 C51 1_555 1_555
H27 C51 1_555 1_555
H28 C51 1_555 1_555
C52 C33 1_555 1_555
H29 C52 1_555 1_555
H30 C52 1_555 1_555
H31 C52 1_555 1_555
C56 C59 1_555 1_555
C59 H40 1_555 1_555
C62 C23 1_555 1_555
H47 C62 1_555 1_555
C64 C56 1_555 1_555
H49 C64 1_555 1_555
C65 C23 1_555 1_555
H50 C65 1_555 1_555
C69 C14 1_555 1_555
H56 C69 1_555 1_555
H57 C69 1_555 1_555
H58 C69 1_555 1_555
Mn8 O10 1_555 1_555
O21 Mn4 1_555 1_555
N3 C44 1_555 1_555
C12 C17 1_555 1_555
C12 C25 1_555 1_555
C13 C37 1_555 1_555
C29 C33 1_555 1_555
C30 C35 1_555 1_555
C59 C62 1_555 1_555
C64 C65 1_555 1_555
Cu1 N5 1_555 1_555
Mn9 O9 1_555 1_555
O5 C9 1_555 1_555
O8 C9 1_555 1_555
N4 N10 1_555 1_555
O11 Mn9 1_555 1_555
N5 N9 1_555 1_555
N6 N8 1_555 1_555
N8 Cu1 1_555 1_555
O13 Cu1 1_555 1_555
N9 C47 1_555 1_555
C2 O11 1_555 1_555
O14 N15 1_555 1_555
C3 N8 1_555 1_555
N10 C15 1_555 1_555
N11 C4 1_555 1_555
C4 C10 1_555 1_555
C5 C20 1_555 1_555
C6 C24 1_555 1_555
C7 C2 1_555 1_555
N12 N11 1_555 1_555
C9 C36 1_555 1_555
C10 C26 1_555 1_555
O15 Cu1 1_555 1_555
O16 Cu1 1_555 1_555
C15 C20 1_555 1_555
C19 C22 1_555 1_555
C20 C70 1_555 1_555
C22 H2 1_555 1_555
C24 H3 1_555 1_555
C26 N12 1_555 1_555
C28 C5 1_555 1_555
H4 C28 1_555 1_555
C31 N6 1_555 1_555
C32 C19 1_555 1_555
H6 C32 1_555 1_555
C36 C41 1_555 1_555
C38 C7 1_555 1_555
H10 C38 1_555 1_555
N13 O16 1_555 1_555
C39 N5 1_555 1_555
C40 O9 1_555 1_555
C41 H11 1_555 1_555
C42 C26 1_555 1_555
H12 C42 1_555 1_555
H13 C42 1_555 1_555
H14 C42 1_555 1_555
C43 C41 1_555 1_555
H15 C43 1_555 1_555
C46 N10 1_555 1_555
H21 C46 1_555 1_555
H22 C46 1_555 1_555
C47 N6 1_555 1_555
H23 C47 1_555 1_555
H24 C47 1_555 1_555
C48 C36 1_555 1_555
H25 C48 1_555 1_555
C49 C3 1_555 1_555
O17 N13 1_555 1_555
C50 C39 1_555 1_555
C53 H32 1_555 1_555
H33 C53 1_555 1_555
H34 C53 1_555 1_555
C54 C5 1_555 1_555
H35 C54 1_555 1_555
C55 C43 1_555 1_555
N14 Cu1 1_555 1_555
N15 O13 1_555 1_555
C57 C6 1_555 1_555
H36 C57 1_555 1_555
C58 C15 1_555 1_555
H37 C58 1_555 1_555
H38 C58 1_555 1_555
H39 C58 1_555 1_555
C60 C3 1_555 1_555
H41 C60 1_555 1_555
H42 C60 1_555 1_555
H43 C60 1_555 1_555
C61 C4 1_555 1_555
H44 C61 1_555 1_555
H46 C61 1_555 1_555
C63 C7 1_555 1_555
H48 C63 1_555 1_555
C66 C39 1_555 1_555
H51 C66 1_555 1_555
H52 C66 1_555 1_555
H53 C66 1_555 1_555
C68 C48 1_555 1_555
H55 C68 1_555 1_555
C70 N4 1_555 1_555
O18 N13 1_555 1_555
C72 C31 1_555 1_555
H60 C72 1_555 1_555
H61 C72 1_555 1_555
H62 C72 1_555 1_555
C73 N9 1_555 1_555
C75 C73 1_555 1_555
H64 C75 1_555 1_555
H65 C75 1_555 1_555
H66 C75 1_555 1_555
C76 N14 1_555 1_555
C77 C76 1_555 1_555
H68 C77 1_555 1_555
H69 C77 1_555 1_555
Mn6 N4 1_555 1_555
Mn7 O5 1_555 1_555
N11 C46 1_555 1_555
C6 C40 1_555 1_555
N12 Mn6 1_555 1_555
O15 N15 1_555 1_555
C19 C49 1_555 1_555
C22 C63 1_555 1_555
C24 C28 1_555 1_555
C31 C49 1_555 1_555
C32 C38 1_555 1_555
C50 C55 1_555 1_555
C50 C73 1_555 1_555
C53 C70 1_555 1_555
C54 C57 1_555 1_555
C55 C68 1_555 1_555
O4 C8 1_555 1_555
O12 C8 1_555 1_555
C8 C21 1_555 1_555
C21 C71 1_555 1_555
C34 C27 1_555 1_555
H7 C34 1_555 1_555
C67 C27 1_555 1_555
H54 C67 1_555 1_555
C71 C34 1_555 1_555
H59 C71 1_555 1_555
C74 C21 1_555 1_555
H63 C74 1_555 1_555
Mn5 O4 1_555 1_555
C67 C74 1_555 1_555
Mn6 O2 1_555 1_555
O22 Mn6 1_555 1_555
O24 Mn6 1_555 1_555
Mn7 O2_2 1_555 1_555
O24_2 Mn7 1_555 1_555
N16 Mn7 1_555 1_555
N17 Mn7 1_555 1_555
Mn1 O7_2 1_555 1_555
Cu1_2 N5_2 1_555 1_555
Mn10 O9_2 1_555 1_555
O4_2 C8_2 1_555 1_555
N1_2 N2_2 1_555 1_555
O7_2 C2_2 1_555 1_555
N2_2 Mn1 1_555 1_555
O23 C9_2 1_555 1_555
N3_2 N7_2 1_555 1_555
N16 N10_2 1_555 1_555
O11_2 Mn10 1_555 1_555
O12_2 C8_2 1_555 1_555
N5_2 N9_2 1_555 1_555
N6_2 N8_2 1_555 1_555
N7_2 Mn1 1_555 1_555
N8_2 Cu1_2 1_555 1_555
O13_2 Cu1_2 1_555 1_555
N9_2 C47_2 1_555 1_555
C2_2 O11_2 1_555 1_555
O14_2 N15_2 1_555 1_555
C3_2 N8_2 1_555 1_555
N10_2 C15_2 1_555 1_555
N11_2 C4_2 1_555 1_555
C4_2 C10_2 1_555 1_555
C5_2 C20_2 1_555 1_555
C6_2 C24_2 1_555 1_555
C7_2 C2_2 1_555 1_555
N17 N11_2 1_555 1_555
C8_2 C21_2 1_555 1_555
C9_2 C36_2 1_555 1_555
C10_2 C26_2 1_555 1_555
O15_2 Cu1_2 1_555 1_555
O16_2 Cu1_2 1_555 1_555
C12_2 C16_2 1_555 1_555
C13_2 H1_2 1_555 1_555
C14_2 N3_2 1_555 1_555
C15_2 C20_2 1_555 1_555
C16_2 C13_2 1_555 1_555
C17_2 N1_2 1_555 1_555
C19_2 C22_2 1_555 1_555
C20_2 C70_2 1_555 1_555
C21_2 C71_2 1_555 1_555
C22_2 H2_2 1_555 1_555
C24_2 H3_2 1_555 1_555
C25_2 N2_2 1_555 1_555
C26_2 N17 1_555 1_555
C27_2 C10_2 1_555 1_555
C28_2 C5_2 1_555 1_555
H4_2 C28_2 1_555 1_555
C29_2 C14_2 1_555 1_555
C30_2 C16_2 1_555 1_555
H5_2 C30_2 1_555 1_555
C31_2 N6_2 1_555 1_555
C32_2 C19_2 1_555 1_555
H6_2 C32_2 1_555 1_555
C33_2 N7_2 1_555 1_555
C34_2 C27_2 1_555 1_555
H7_2 C34_2 1_555 1_555
C35_2 C1_2 1_555 1_555
H8_2 C35_2 1_555 1_555
C36_2 C41_2 1_555 1_555
C37_2 C1_2 1_555 1_555
H9_2 C37_2 1_555 1_555
C38_2 C7_2 1_555 1_555
H10_2 C38_2 1_555 1_555
N13_2 O16_2 1_555 1_555
C39_2 N5_2 1_555 1_555
C40_2 O9_2 1_555 1_555
C41_2 H11_2 1_555 1_555
C42_2 C26_2 1_555 1_555
H12_2 C42_2 1_555 1_555
H13_2 C42_2 1_555 1_555
H14_2 C42_2 1_555 1_555
C43_2 C41_2 1_555 1_555
H15_2 C43_2 1_555 1_555
C44_2 N1_2 1_555 1_555
H16_2 C44_2 1_555 1_555
H17_2 C44_2 1_555 1_555
C45_2 C17_2 1_555 1_555
H18_2 C45_2 1_555 1_555
H19_2 C45_2 1_555 1_555
H20_2 C45_2 1_555 1_555
C46_2 N10_2 1_555 1_555
H21_2 C46_2 1_555 1_555
H22_2 C46_2 1_555 1_555
C47_2 N6_2 1_555 1_555
H23_2 C47_2 1_555 1_555
H24_2 C47_2 1_555 1_555
C48_2 C36_2 1_555 1_555
H25_2 C48_2 1_555 1_555
C49_2 C3_2 1_555 1_555
O17_2 N13_2 1_555 1_555
C50_2 C39_2 1_555 1_555
C51_2 C25_2 1_555 1_555
H26_2 C51_2 1_555 1_555
H27_2 C51_2 1_555 1_555
H28_2 C51_2 1_555 1_555
C52_2 C33_2 1_555 1_555
H29_2 C52_2 1_555 1_555
H30_2 C52_2 1_555 1_555
H31_2 C52_2 1_555 1_555
C53_2 H32_2 1_555 1_555
H33_2 C53_2 1_555 1_555
H34_2 C53_2 1_555 1_555
C54_2 C5_2 1_555 1_555
H35_2 C54_2 1_555 1_555
C55_2 C43_2 1_555 1_555
N14_2 Cu1_2 1_555 1_555
N15_2 O13_2 1_555 1_555
C57_2 C6_2 1_555 1_555
H36_2 C57_2 1_555 1_555
C58_2 C15_2 1_555 1_555
H37_2 C58_2 1_555 1_555
H38_2 C58_2 1_555 1_555
H39_2 C58_2 1_555 1_555
C60_2 C3_2 1_555 1_555
H41_2 C60_2 1_555 1_555
H42_2 C60_2 1_555 1_555
H43_2 C60_2 1_555 1_555
C61_2 C4_2 1_555 1_555
H44_2 C61_2 1_555 1_555
H45_2 C61_2 1_555 1_555
H46_2 C61_2 1_555 1_555
C63_2 C7_2 1_555 1_555
H48_2 C63_2 1_555 1_555
C66_2 C39_2 1_555 1_555
H51_2 C66_2 1_555 1_555
H52_2 C66_2 1_555 1_555
H53_2 C66_2 1_555 1_555
C67_2 C27_2 1_555 1_555
H54_2 C67_2 1_555 1_555
C68_2 C48_2 1_555 1_555
H55_2 C68_2 1_555 1_555
C69_2 C14_2 1_555 1_555
H56_2 C69_2 1_555 1_555
H58_2 C69_2 1_555 1_555
C70_2 N16 1_555 1_555
O18_2 N13_2 1_555 1_555
C71_2 C34_2 1_555 1_555
H59_2 C71_2 1_555 1_555
C72_2 C31_2 1_555 1_555
H60_2 C72_2 1_555 1_555
H61_2 C72_2 1_555 1_555
H62_2 C72_2 1_555 1_555
C73_2 N9_2 1_555 1_555
C74_2 C21_2 1_555 1_555
H63_2 C74_2 1_555 1_555
C75_2 C73_2 1_555 1_555
H64_2 C75_2 1_555 1_555
H65_2 C75_2 1_555 1_555
H66_2 C75_2 1_555 1_555
C76_2 N14_2 1_555 1_555
C77_2 C76_2 1_555 1_555
H68_2 C77_2 1_555 1_555
H69_2 C77_2 1_555 1_555
Mn5_2 O4_2 1_555 1_555
Mn11 O12_2 1_555 1_555
O19 Mn1 1_555 1_555
O21_2 Mn1 1_555 1_555
O25_2 Mn10 1_555 1_555
Mn10 O19 1_555 1_555
N3_2 C44_2 1_555 1_555
N11_2 C46_2 1_555 1_555
C6_2 C40_2 1_555 1_555
O15_2 N15_2 1_555 1_555
C12_2 C17_2 1_555 1_555
C12_2 C25_2 1_555 1_555
C13_2 C37_2 1_555 1_555
C19_2 C49_2 1_555 1_555
C22_2 C63_2 1_555 1_555
C24_2 C28_2 1_555 1_555
C29_2 C33_2 1_555 1_555
C30_2 C35_2 1_555 1_555
C31_2 C49_2 1_555 1_555
C32_2 C38_2 1_555 1_555
C50_2 C55_2 1_555 1_555
C50_2 C73_2 1_555 1_555
C53_2 C70_2 1_555 1_555
C54_2 C57_2 1_555 1_555
C55_2 C68_2 1_555 1_555
C67_2 C74_2 1_555 1_555
O3_2 C11_2 1_555 1_555
O10_2 C11_2 1_555 1_555
C11_2 C56_2 1_555 1_555
C56_2 C59_2 1_555 1_555
C59_2 H40_2 1_555 1_555
C62_2 C23_2 1_555 1_555
H47_2 C62_2 1_555 1_555
C64_2 C56_2 1_555 1_555
H49_2 C64_2 1_555 1_555
C65_2 C23_2 1_555 1_555
H50_2 C65_2 1_555 1_555
Mn8_2 O10_2 1_555 1_555
C59_2 C62_2 1_555 1_555
C64_2 C65_2 1_555 1_555
O19 C18_2 1_555 1_555
O6_2 C18_2 1_555 1_555
Mn8 O2_3 1_555 1_555
O22_2 Mn8 1_555 1_555
N16_2 Mn8 1_555 1_555
N17_2 Mn8 1_555 1_555
O21 C8_3 1_555 1_555
O25 C8_3 1_555 1_555
C8_3 C21_3 1_555 1_555
C21_3 C71_3 1_555 1_555
C34_3 C27_3 1_555 1_555
H7_3 C34_3 1_555 1_555
C67_3 C27_3 1_555 1_555
H54_3 C67_3 1_555 1_555
C71_3 C34_3 1_555 1_555
H59_3 C71_3 1_555 1_555
C74_3 C21_3 1_555 1_555
H63_3 C74_3 1_555 1_555
C67_3 C74_3 1_555 1_555
Cu1_3 N5_3 1_555 1_555
Mn12 O9_3 1_555 1_555
O5_2 C9_3 1_555 1_555
O8_2 C9_3 1_555 1_555
N16_2 N10_3 1_555 1_555
O11_3 Mn12 1_555 1_555
N5_3 N9_3 1_555 1_555
N6_3 N8_3 1_555 1_555
N8_3 Cu1_3 1_555 1_555
O13_3 Cu1_3 1_555 1_555
N9_3 C47_3 1_555 1_555
C2_3 O11_3 1_555 1_555
O14_3 N15_3 1_555 1_555
C3_3 N8_3 1_555 1_555
N10_3 C15_3 1_555 1_555
N11_3 C4_3 1_555 1_555
C4_3 C10_3 1_555 1_555
C5_3 C20_3 1_555 1_555
C6_3 C24_3 1_555 1_555
C7_3 C2_3 1_555 1_555
N17_2 N11_3 1_555 1_555
C9_3 C36_3 1_555 1_555
C10_3 C26_3 1_555 1_555
O15_3 Cu1_3 1_555 1_555
O16_3 Cu1_3 1_555 1_555
C15_3 C20_3 1_555 1_555
C19_3 C22_3 1_555 1_555
C20_3 C70_3 1_555 1_555
C22_3 H2_3 1_555 1_555
C24_3 H3_3 1_555 1_555
C26_3 N17_2 1_555 1_555
C28_3 C5_3 1_555 1_555
H4_3 C28_3 1_555 1_555
C31_3 N6_3 1_555 1_555
C32_3 C19_3 1_555 1_555
H6_3 C32_3 1_555 1_555
C36_3 C41_3 1_555 1_555
C38_3 C7_3 1_555 1_555
H10_3 C38_3 1_555 1_555
N13_3 O16_3 1_555 1_555
C39_3 N5_3 1_555 1_555
C40_3 O9_3 1_555 1_555
C41_3 H11_3 1_555 1_555
C42_3 C26_3 1_555 1_555
H12_3 C42_3 1_555 1_555
H13_3 C42_3 1_555 1_555
H14_3 C42_3 1_555 1_555
C43_3 C41_3 1_555 1_555
H15_3 C43_3 1_555 1_555
C46_3 N10_3 1_555 1_555
H21_3 C46_3 1_555 1_555
H22_3 C46_3 1_555 1_555
C47_3 N6_3 1_555 1_555
H23_3 C47_3 1_555 1_555
H24_3 C47_3 1_555 1_555
C48_3 C36_3 1_555 1_555
H25_3 C48_3 1_555 1_555
C49_3 C3_3 1_555 1_555
O17_3 N13_3 1_555 1_555
C50_3 C39_3 1_555 1_555
C53_3 H32_3 1_555 1_555
H33_3 C53_3 1_555 1_555
H34_3 C53_3 1_555 1_555
C54_3 C5_3 1_555 1_555
H35_3 C54_3 1_555 1_555
C55_3 C43_3 1_555 1_555
N14_3 Cu1_3 1_555 1_555
N15_3 O13_3 1_555 1_555
C57_3 C6_3 1_555 1_555
H36_3 C57_3 1_555 1_555
C58_3 C15_3 1_555 1_555
H37_3 C58_3 1_555 1_555
H38_3 C58_3 1_555 1_555
H39_3 C58_3 1_555 1_555
C60_3 C3_3 1_555 1_555
H41_3 C60_3 1_555 1_555
H42_3 C60_3 1_555 1_555
H43_3 C60_3 1_555 1_555
C61_3 C4_3 1_555 1_555
H44_3 C61_3 1_555 1_555
H46_3 C61_3 1_555 1_555
C63_3 C7_3 1_555 1_555
H48_3 C63_3 1_555 1_555
C66_3 C39_3 1_555 1_555
H51_3 C66_3 1_555 1_555
H52_3 C66_3 1_555 1_555
H53_3 C66_3 1_555 1_555
C68_3 C48_3 1_555 1_555
H55_3 C68_3 1_555 1_555
C70_3 N16_2 1_555 1_555
O18_3 N13_3 1_555 1_555
C72_3 C31_3 1_555 1_555
H60_3 C72_3 1_555 1_555
H61_3 C72_3 1_555 1_555
H62_3 C72_3 1_555 1_555
C73_3 N9_3 1_555 1_555
C75_3 C73_3 1_555 1_555
H64_3 C75_3 1_555 1_555
H65_3 C75_3 1_555 1_555
H66_3 C75_3 1_555 1_555
C76_3 N14_3 1_555 1_555
C77_3 C76_3 1_555 1_555
H68_3 C77_3 1_555 1_555
H69_3 C77_3 1_555 1_555
Mn8_2 O5_2 1_555 1_555
N11_3 C46_3 1_555 1_555
C6_3 C40_3 1_555 1_555
O15_3 N15_3 1_555 1_555
C19_3 C49_3 1_555 1_555
C22_3 C63_3 1_555 1_555
C24_3 C28_3 1_555 1_555
C31_3 C49_3 1_555 1_555
C32_3 C38_3 1_555 1_555
C50_3 C55_3 1_555 1_555
C50_3 C73_3 1_555 1_555
C53_3 C70_3 1_555 1_555
C54_3 C57_3 1_555 1_555
C55_3 C68_3 1_555 1_555
Mn5 O7_3 1_555 1_555
O20 C11_3 1_555 1_555
N1_3 N2_3 1_555 1_555
N2_3 Mn5 1_555 1_555
N3_3 N7_3 1_555 1_555
O24 C11_3 1_555 1_555
N7_3 Mn5 1_555 1_555
C11_3 C56_3 1_555 1_555
C12_3 C16_3 1_555 1_555
C13_3 H1_3 1_555 1_555
C14_3 N3_3 1_555 1_555
C16_3 C13_3 1_555 1_555
C17_3 N1_3 1_555 1_555
C23_3 C29_3 1_555 1_555
C25_3 N2_3 1_555 1_555
C29_3 C14_3 1_555 1_555
C30_3 C16_3 1_555 1_555
H5_3 C30_3 1_555 1_555
C33_3 N7_3 1_555 1_555
C35_3 C1_3 1_555 1_555
H8_3 C35_3 1_555 1_555
C37_3 C1_3 1_555 1_555
H9_3 C37_3 1_555 1_555
C44_3 N1_3 1_555 1_555
H16_3 C44_3 1_555 1_555
H17_3 C44_3 1_555 1_555
C45_3 C17_3 1_555 1_555
H18_3 C45_3 1_555 1_555
H19_3 C45_3 1_555 1_555
H20_3 C45_3 1_555 1_555
C51_3 C25_3 1_555 1_555
H26_3 C51_3 1_555 1_555
H27_3 C51_3 1_555 1_555
H28_3 C51_3 1_555 1_555
C52_3 C33_3 1_555 1_555
H29_3 C52_3 1_555 1_555
H30_3 C52_3 1_555 1_555
H31_3 C52_3 1_555 1_555
C56_3 C59_3 1_555 1_555
C59_3 H40_3 1_555 1_555
C62_3 C23_3 1_555 1_555
H47_3 C62_3 1_555 1_555
C64_3 C56_3 1_555 1_555
H49_3 C64_3 1_555 1_555
C65_3 C23_3 1_555 1_555
H50_3 C65_3 1_555 1_555
C69_3 C14_3 1_555 1_555
H56_3 C69_3 1_555 1_555
H57_3 C69_3 1_555 1_555
H58_3 C69_3 1_555 1_555
O19_2 Mn5 1_555 1_555
N3_3 C44_3 1_555 1_555
C12_3 C17_3 1_555 1_555
C12_3 C25_3 1_555 1_555
C13_3 C37_3 1_555 1_555
C29_3 C33_3 1_555 1_555
C30_3 C35_3 1_555 1_555
C59_3 C62_3 1_555 1_555
C64_3 C65_3 1_555 1_555
O19_2 C18_3 1_555 1_555
O6_3 C18_3 1_555 1_555
O1_2 C18_4 1_555 1_555
O6_4 C18_4 1_555 1_555
Mn5_2 O1_2 1_555 1_555
Mn11 O1_2 1_555 1_555
O20_2 C11_4 1_555 1_555
O24_2 C11_4 1_555 1_555
C11_4 C56_4 1_555 1_555
C56_4 C59_4 1_555 1_555
C59_4 H40_4 1_555 1_555
C62_4 C23_4 1_555 1_555
H47_4 C62_4 1_555 1_555
C64_4 C56_4 1_555 1_555
H49_4 C64_4 1_555 1_555
C65_4 C23_4 1_555 1_555
H50_4 C65_4 1_555 1_555
C59_4 C62_4 1_555 1_555
C64_4 C65_4 1_555 1_555
Mn5_2 O7_4 1_555 1_555
Cu1_4 N5_4 1_555 1_555
Mn11 O9_4 1_555 1_555
O21_2 C8_4 1_555 1_555
N1_4 N2_4 1_555 1_555
O7_4 C2_4 1_555 1_555
N2_4 Mn5_2 1_555 1_555
O23_2 C9_4 1_555 1_555
N3_4 N7_4 1_555 1_555
N4_2 N10_4 1_555 1_555
O11_4 Mn11 1_555 1_555
O25_2 C8_4 1_555 1_555
N5_4 N9_4 1_555 1_555
N6_4 N8_4 1_555 1_555
N7_4 Mn5_2 1_555 1_555
N8_4 Cu1_4 1_555 1_555
O13_4 Cu1_4 1_555 1_555
N9_4 C47_4 1_555 1_555
C2_4 O11_4 1_555 1_555
O14_4 N15_4 1_555 1_555
C3_4 N8_4 1_555 1_555
N10_4 C15_4 1_555 1_555
N11_4 C4_4 1_555 1_555
C4_4 C10_4 1_555 1_555
C5_4 C20_4 1_555 1_555
C6_4 C24_4 1_555 1_555
C7_4 C2_4 1_555 1_555
N12_2 N11_4 1_555 1_555
C8_4 C21_4 1_555 1_555
C9_4 C36_4 1_555 1_555
C10_4 C26_4 1_555 1_555
O15_4 Cu1_4 1_555 1_555
O16_4 Cu1_4 1_555 1_555
C12_4 C16_4 1_555 1_555
C13_4 H1_4 1_555 1_555
C14_4 N3_4 1_555 1_555
C15_4 C20_4 1_555 1_555
C16_4 C13_4 1_555 1_555
C17_4 N1_4 1_555 1_555
C19_4 C22_4 1_555 1_555
C20_4 C70_4 1_555 1_555
C21_4 C71_4 1_555 1_555
C22_4 H2_4 1_555 1_555
C24_4 H3_4 1_555 1_555
C25_4 N2_4 1_555 1_555
C26_4 N12_2 1_555 1_555
C27_4 C10_4 1_555 1_555
C28_4 C5_4 1_555 1_555
H4_4 C28_4 1_555 1_555
C29_4 C14_4 1_555 1_555
C30_4 C16_4 1_555 1_555
H5_4 C30_4 1_555 1_555
C31_4 N6_4 1_555 1_555
C32_4 C19_4 1_555 1_555
H6_4 C32_4 1_555 1_555
C33_4 N7_4 1_555 1_555
C34_4 C27_4 1_555 1_555
H7_4 C34_4 1_555 1_555
C35_4 C1_4 1_555 1_555
H8_4 C35_4 1_555 1_555
C36_4 C41_4 1_555 1_555
C37_4 C1_4 1_555 1_555
H9_4 C37_4 1_555 1_555
C38_4 C7_4 1_555 1_555
H10_4 C38_4 1_555 1_555
N13_4 O16_4 1_555 1_555
C39_4 N5_4 1_555 1_555
C40_4 O9_4 1_555 1_555
C41_4 H11_4 1_555 1_555
C42_4 C26_4 1_555 1_555
H12_4 C42_4 1_555 1_555
H13_4 C42_4 1_555 1_555
H14_4 C42_4 1_555 1_555
C43_4 C41_4 1_555 1_555
H15_4 C43_4 1_555 1_555
C44_4 N1_4 1_555 1_555
H16_4 C44_4 1_555 1_555
H17_4 C44_4 1_555 1_555
C45_4 C17_4 1_555 1_555
H18_4 C45_4 1_555 1_555
H19_4 C45_4 1_555 1_555
H20_4 C45_4 1_555 1_555
C46_4 N10_4 1_555 1_555
H21_4 C46_4 1_555 1_555
H22_4 C46_4 1_555 1_555
C47_4 N6_4 1_555 1_555
H23_4 C47_4 1_555 1_555
H24_4 C47_4 1_555 1_555
C48_4 C36_4 1_555 1_555
H25_4 C48_4 1_555 1_555
C49_4 C3_4 1_555 1_555
O17_4 N13_4 1_555 1_555
C50_4 C39_4 1_555 1_555
C51_4 C25_4 1_555 1_555
H26_4 C51_4 1_555 1_555
H27_4 C51_4 1_555 1_555
H28_4 C51_4 1_555 1_555
C52_4 C33_4 1_555 1_555
H29_4 C52_4 1_555 1_555
H30_4 C52_4 1_555 1_555
H31_4 C52_4 1_555 1_555
C53_4 H32_4 1_555 1_555
H33_4 C53_4 1_555 1_555
H34_4 C53_4 1_555 1_555
C54_4 C5_4 1_555 1_555
H35_4 C54_4 1_555 1_555
C55_4 C43_4 1_555 1_555
N14_4 Cu1_4 1_555 1_555
N15_4 O13_4 1_555 1_555
C57_4 C6_4 1_555 1_555
H36_4 C57_4 1_555 1_555
C58_4 C15_4 1_555 1_555
H37_4 C58_4 1_555 1_555
H38_4 C58_4 1_555 1_555
H39_4 C58_4 1_555 1_555
C60_4 C3_4 1_555 1_555
H41_4 C60_4 1_555 1_555
H42_4 C60_4 1_555 1_555
H43_4 C60_4 1_555 1_555
C61_4 C4_4 1_555 1_555
H44_4 C61_4 1_555 1_555
H45_4 C61_4 1_555 1_555
H46_4 C61_4 1_555 1_555
C63_4 C7_4 1_555 1_555
H48_4 C63_4 1_555 1_555
C66_4 C39_4 1_555 1_555
H51_4 C66_4 1_555 1_555
H52_4 C66_4 1_555 1_555
H53_4 C66_4 1_555 1_555
C67_4 C27_4 1_555 1_555
H54_4 C67_4 1_555 1_555
C68_4 C48_4 1_555 1_555
H55_4 C68_4 1_555 1_555
C69_4 C14_4 1_555 1_555
H56_4 C69_4 1_555 1_555
H58_4 C69_4 1_555 1_555
C70_4 N4_2 1_555 1_555
O18_4 N13_4 1_555 1_555
C71_4 C34_4 1_555 1_555
H59_4 C71_4 1_555 1_555
C72_4 C31_4 1_555 1_555
H60_4 C72_4 1_555 1_555
H61_4 C72_4 1_555 1_555
H62_4 C72_4 1_555 1_555
C73_4 N9_4 1_555 1_555
C74_4 C21_4 1_555 1_555
H63_4 C74_4 1_555 1_555
C75_4 C73_4 1_555 1_555
H64_4 C75_4 1_555 1_555
H65_4 C75_4 1_555 1_555
H66_4 C75_4 1_555 1_555
C76_4 N14_4 1_555 1_555
C77_4 C76_4 1_555 1_555
H68_4 C77_4 1_555 1_555
H69_4 C77_4 1_555 1_555
Mn8_2 N4_2 1_555 1_555
N3_4 C44_4 1_555 1_555
N11_4 C46_4 1_555 1_555
C6_4 C40_4 1_555 1_555
N12_2 Mn8_2 1_555 1_555
O15_4 N15_4 1_555 1_555
C12_4 C17_4 1_555 1_555
C12_4 C25_4 1_555 1_555
C13_4 C37_4 1_555 1_555
C19_4 C49_4 1_555 1_555
C22_4 C63_4 1_555 1_555
C24_4 C28_4 1_555 1_555
C29_4 C33_4 1_555 1_555
C30_4 C35_4 1_555 1_555
C31_4 C49_4 1_555 1_555
C32_4 C38_4 1_555 1_555
C50_4 C55_4 1_555 1_555
C50_4 C73_4 1_555 1_555
C53_4 C70_4 1_555 1_555
C54_4 C57_4 1_555 1_555
C55_4 C68_4 1_555 1_555
C67_4 C74_4 1_555 1_555
Mn8_2 O2_4 1_555 1_555
O26 N18 1_555 1_555
N18 O27 1_555 1_555
O28 N18 1_555 1_555
O26_2 N18_2 1_555 1_555
N18_2 O27_2 1_555 1_555
O28_2 N18_2 1_555 1_555
O26_3 N18_3 1_555 1_555
N18_3 O27_3 1_555 1_555
O28_3 N18_3 1_555 1_555
O26_4 N18_4 1_555 1_555
N18_4 O27_4 1_555 1_555
O28_4 N18_4 1_555 1_555
Cu2 O29 1_555 1_555
O29 N19 1_555 1_555
O32 Cu2 1_555 1_555
O33 N19 1_555 1_555
O34 Cu2 1_555 1_555
N19 O34 1_555 1_555
O32 H77 1_555 1_555
O32 H78 1_555 1_555
C78 N20 1_555 1_555
C79 C78 1_555 1_555
H70 C79 1_555 1_555
H71 C79 1_555 1_555
H72 C79 1_555 1_555
O30 H73 1_555 1_555
O30 H74 1_555 1_555
O31 H76 1_555 1_555
C78_2 N20_2 1_555 1_555
C79_2 C78_2 1_555 1_555
H70_2 C79_2 1_555 1_555
H71_2 C79_2 1_555 1_555
H72_2 C79_2 1_555 1_555
O30_2 H73_2 1_555 1_555
O30_2 H74_2 1_555 1_555
O31_2 H76_2 1_555 1_555
Cu2_2 O29_2 1_555 1_555
O29_2 N19_2 1_555 1_555
O32_2 Cu2_2 1_555 1_555
O33_2 N19_2 1_555 1_555
O34_2 Cu2_2 1_555 1_555
N19_2 O34_2 1_555 1_555
O32_2 H77_2 1_555 1_555
O32_2 H78_2 1_555 1_555
C78_3 N20_3 1_555 1_555
C79_3 C78_3 1_555 1_555
H70_3 C79_3 1_555 1_555
H71_3 C79_3 1_555 1_555
H72_3 C79_3 1_555 1_555
O30_3 H73_3 1_555 1_555
O30_3 H74_3 1_555 1_555
O31_3 H76_3 1_555 1_555
Cu2_3 O29_3 1_555 1_555
O29_3 N19_3 1_555 1_555
O32_3 Cu2_3 1_555 1_555
O33_3 N19_3 1_555 1_555
O34_3 Cu2_3 1_555 1_555
N19_3 O34_3 1_555 1_555
O32_3 H77_3 1_555 1_555
O32_3 H78_3 1_555 1_555
Cu2_4 O29_4 1_555 1_555
O29_4 N19_4 1_555 1_555
O32_4 Cu2_4 1_555 1_555
O33_4 N19_4 1_555 1_555
O34_4 Cu2_4 1_555 1_555
N19_4 O34_4 1_555 1_555
O32_4 H77_4 1_555 1_555
O32_4 H78_4 1_555 1_555
C78_4 N20_4 1_555 1_555
C79_4 C78_4 1_555 1_555
H70_4 C79_4 1_555 1_555
H71_4 C79_4 1_555 1_555
H72_4 C79_4 1_555 1_555
O30_4 H73_4 1_555 1_555
O30_4 H74_4 1_555 1_555
O31_4 H76_4 1_555 1_555

#END
