
###############################################################################
#
# This file contains modified crystal structure data generated from the
# MOF subset of the Cambridge Structural Database (CSD) v543 
# hosted by the Cambridge Crystallographic Data Centre (CCDC).
#
# This work is licensed under the Creative Commons
# Attribution-NonCommercial-ShareAlike 4.0 International License.
# To view a copy of this license, visit
# http://creativecommons.org/licenses/by-nc-sa/4.0/
# or send a letter to
# Creative Commons, PO Box 1866, Mountain View, CA 94042, USA.
#
# CIF created using the CSD Python API on 29 September 2022
# The structure has been converted into the P1 space group
# The structure has a 3D framework
# The original CSD entry BUJMAX is in the monoclinic crystal system
# The framework has been calculated to contain at least 10.0% void space
# The void calculation uses a probe of radius 1.32A, grid spacing 0.4
# The framework is charged, counterions have been retained in the structure
# H atom positions have been added when not included in the experimental data
# Generated hydrogen atom positions removed from atoms on special positions
#
###############################################################################

data_BUJMAX
_chemical_formula_moiety         '(C150 H164 Mn9 N26 O37 2+)n'
_symmetry_cell_setting           triclinic
_symmetry_space_group_name_H-M   'P 1'
_symmetry_Int_Tables_number      1
_space_group_name_Hall           'P 1'
loop_
_symmetry_equiv_pos_site_id
_symmetry_equiv_pos_as_xyz
1 x,y,z
_cell_length_a                   12.379(3)
_cell_length_b                   33.055(7)
_cell_length_c                   12.878(3)
_cell_angle_alpha                90
_cell_angle_beta                 96.93(3)
_cell_angle_gamma                90
_cell_volume                     5231.02
loop_
_atom_site_label
_atom_site_type_symbol
_atom_site_fract_x
_atom_site_fract_y
_atom_site_fract_z
Mn2 Mn 0.5000 0.0000 0.0000
H12 H 0.1062 0.0574 0.0354
O20 O 0.3156(4) 0.08028(14) 0.0585(3)
O22 O 0.3885(3) 0.02021(12) 0.1034(3)
O24 O 0.6225(3) 0.02672(12) 0.1034(3)
Mn1 Mn 0.30687(5) 0.07121(2) 0.89722(5)
Mn2_2 Mn 0.5000 0.0000 1.0000
O1 O 0.2359(3) 0.01470(10) 0.8597(3)
N1 N 0.1251(3) 0.13471(11) 0.8134(3)
N2 N 0.1485(3) 0.10242(12) 0.8789(3)
N3 N 0.2515(3) 0.12354(12) 0.6914(3)
N4 N 0.3067(4) 0.08942(12) 0.7296(3)
C2 C 0.2141(4) 0.15197(13) 0.7650(3)
H1 H 0.2748 0.1588 0.8195
H2 H 0.1897 0.1772 0.7280
C3 C 0.3346(5) 0.06998(15) 0.6463(4)
C4 C 0.0187(4) 0.14464(15) 0.8031(4)
C5 C 0.2990(5) 0.09219(16) 0.5537(3)
C7 C 0.3415(5) 0.06270(17) 0.2373(4)
C9 C 0.3511(4) 0.05330(17) 0.1252(4)
C10 C 0.0527(4) 0.09072(15) 0.9064(4)
C11 C 0.3156(6) 0.08146(17) 0.4451(4)
C13 C 0.3963(6) 0.03108(18) 0.6581(4)
H3 H 0.4387 0.0301 0.7275
H4 H 0.4456 0.0293 0.6042
H5 H 0.3451 0.0084 0.6505
C17 C 0.3043(5) 0.04189(18) 0.4085(4)
H8 H 0.2849 0.0211 0.4538
C18 C 0.2473(5) 0.12608(16) 0.5853(4)
C20 C 0.0462(6) 0.0558(2) 0.9785(6)
H10 H 0.0514 0.0305 0.9399
C21 C 0.3208(6) 0.03238(18) 0.3069(4)
H13 H 0.3179 0.0050 0.2847
C24 C 0.1907(7) 0.15989(19) 0.5245(4)
H16 H 0.1234 0.1665 0.5539
H17 H 0.1731 0.1517 0.4513
H18 H 0.2382 0.1837 0.5285
C25 C 0.3499(7) 0.10219(19) 0.2722(4)
H19 H 0.3638 0.1231 0.2250
H23 H 0.0057 0.1796 0.6718
C34 C 0.3384(7) 0.1118(2) 0.3747(4)
H26 H 0.3460 0.1391 0.3977
O18 O 0.4803(3) 0.05860(11) 0.9095(2)
Mn2_3 Mn 0.5000 1.0000 0.0000
O12 O 0.5197(3) 0.94140(11) 0.0905(2)
O15 O 0.5485(3) 0.87561(12) 0.0899(4)
C55 C 0.0322(4) 0.88361(15) 0.1382(5)
C57 C 0.4847(4) 0.90498(17) 0.0933(4)
C61 C 0.3680(4) 0.89855(17) 0.1023(5)
C63 C 0.3195(5) 0.86063(19) 0.0885(6)
H50 H 0.3617 0.8382 0.0711
C64 C 0.1960(5) 0.92564(18) 0.1422(6)
H51 H 0.1542 0.9478 0.1620
C65 C 0.1485(5) 0.88773(18) 0.1268(6)
C68 C 0.3049(4) 0.93117(18) 0.1288(5)
H53 H 0.3365 0.9573 0.1376
C71 C 0.2111(5) 0.85523(19) 0.0998(6)
H58 H 0.1790 0.8292 0.0892
C74 C 0.0280(5) 0.8212(2) 0.2632(6)
H63 H 0.0138 0.7957 0.2253
H64 H 0.1067 0.8251 0.2796
Mn8 Mn 0.69313(5) 0.92879(2) 0.10278(5)
Mn13 Mn 0.5000 0.5000 0.0000
Mn2_4 Mn 0.5000 1.0000 1.0000
C1 C 0.2801(4) 0.98015(16) 0.8642(4)
C23 C 0.0375(7) 0.91599(19) 0.7583(6)
C26 C 0.2108(5) 0.94508(16) 0.8267(5)
C27 C 0.0997(6) 0.94926(17) 0.7893(5)
H20 H 0.0674 0.9754 0.7853
C29 C 0.1879(9) 0.8727(2) 0.8047(9)
H24 H 0.2156 0.8460 0.8154
C30 C 0.0273(14) 0.8137(3) 0.6622(12)
C31 C 0.0837(8) 0.8777(2) 0.7648(8)
C32 C 0.2582(8) 0.9061(2) 0.8315(7)
H25 H 0.3340 0.9024 0.8517
C33 C 0.0105(9) 0.8414(2) 0.7390(9)
C35 C 0.1085(15) 0.8098(3) 0.5934(11)
H27 H 0.1498 0.8351 0.5932
H28 H 0.0737 0.8041 0.5225
H29 H 0.1578 0.7876 0.6172
O8 O 0.3775(3) 0.97328(12) 0.8966(3)
O10 O 0.2359(3) 0.48530(10) 0.8597(3)
C39 C 0.2801(4) 0.51985(16) 0.8642(4)
C40 C 0.0375(7) 0.58401(19) 0.7583(6)
C41 C 0.2108(5) 0.55492(16) 0.8267(5)
C42 C 0.0997(6) 0.55074(17) 0.7893(5)
H36 H 0.0674 0.5246 0.7853
C43 C 0.1879(9) 0.6273(2) 0.8047(9)
H37 H 0.2156 0.6540 0.8154
C44 C 0.0273(14) 0.6863(3) 0.6622(12)
C45 C 0.0837(8) 0.6223(2) 0.7648(8)
C46 C 0.2582(8) 0.5939(2) 0.8315(7)
H38 H 0.3340 0.5976 0.8517
C47 C 0.0105(9) 0.6586(2) 0.7390(9)
C48 C 0.1085(15) 0.6902(3) 0.5934(11)
H39 H 0.1498 0.6649 0.5932
H40 H 0.0737 0.6959 0.5225
H41 H 0.1578 0.7124 0.6172
O11 O 0.3775(3) 0.52672(12) 0.8966(3)
H55 H 0.0233 0.9433 0.9923
Mn9 Mn 0.30687(5) 0.42879(2) 0.89722(5)
Mn13_2 Mn 0.5000 0.5000 1.0000
O23 O 0.6115(3) 0.97979(12) 0.8966(3)
H11 H 0.9767 0.0567 0.0077
O5 O 0.4515(3) 0.12439(12) 0.9101(4)
C6 C 0.9678(4) 0.11639(15) 0.8618(5)
C8 C 0.5153(4) 0.09502(17) 0.9067(4)
C12 C 0.6320(4) 0.10145(17) 0.8977(5)
C14 C 0.6805(5) 0.13937(19) 0.9115(6)
H6 H 0.6383 0.1618 0.9289
C15 C 0.8040(5) 0.07436(18) 0.8578(6)
H7 H 0.8458 0.0522 0.8380
C16 C 0.8515(5) 0.11227(18) 0.8732(6)
C19 C 0.6951(4) 0.06883(18) 0.8712(5)
H9 H 0.6635 0.0427 0.8624
C22 C 0.7889(5) 0.14477(19) 0.9002(6)
H14 H 0.8210 0.1708 0.9108
C28 C 0.9720(5) 0.1788(2) 0.7368(6)
H21 H 0.9862 0.2043 0.7747
H22 H 0.8933 0.1749 0.7204
N9 N 0.8749(3) 0.86529(11) 0.1866(3)
N10 N 0.8515(3) 0.89758(12) 0.1211(3)
O13 O 0.6844(4) 0.91972(14) 0.9415(3)
N11 N 0.7485(3) 0.87646(12) 0.3086(3)
N12 N 0.6933(4) 0.91058(12) 0.2704(3)
C51 C 0.7859(4) 0.84803(13) 0.2350(3)
H45 H 0.7252 0.8412 0.1805
H46 H 0.8103 0.8228 0.2720
C52 C 0.6654(5) 0.93002(15) 0.3537(4)
C53 C 0.9813(4) 0.85536(15) 0.1969(4)
C54 C 0.7010(5) 0.90781(16) 0.4463(3)
C56 C 0.6585(5) 0.93730(17) 0.7627(4)
C58 C 0.6489(4) 0.94670(17) 0.8748(4)
C59 C 0.9473(4) 0.90928(15) 0.0936(4)
C60 C 0.6844(6) 0.91854(17) 0.5549(4)
C62 C 0.6037(6) 0.96892(18) 0.3419(4)
H47 H 0.5613 0.9699 0.2725
H48 H 0.5544 0.9707 0.3958
H49 H 0.6549 0.9916 0.3495
C66 C 0.6957(5) 0.95811(18) 0.5915(4)
H52 H 0.7151 0.9789 0.5462
C67 C 0.7527(5) 0.87392(16) 0.4147(4)
C69 C 0.9538(6) 0.9442(2) 0.0215(6)
H54 H 0.9486 0.9695 0.0601
C70 C 0.6792(6) 0.96762(18) 0.6931(4)
H57 H 0.6821 0.9950 0.7153
C72 C 0.8093(7) 0.84011(19) 0.4755(4)
H59 H 0.8766 0.8335 0.4461
H60 H 0.8269 0.8483 0.5487
H61 H 0.7618 0.8163 0.4715
C73 C 0.6501(7) 0.89781(19) 0.7278(4)
H62 H 0.6362 0.8769 0.7750
H65 H 0.9943 0.8204 0.3282
C75 C 0.6616(7) 0.8882(2) 0.6253(4)
H66 H 0.6540 0.8609 0.6023
O17 O 0.7641(3) 0.98530(10) 0.1403(3)
N5 N 0.9431(10) 0.7862(2) 0.6642(9)
H15 H 0.9628 0.9192 0.7324
N6 N 0.8749(11) 0.7955(2) 0.7348(11)
O6 O 0.851(3) 0.7500 0.946(2)
O7 O 0.6700(14) 0.7500 0.6032(17)
C36 C 0.9256(14) 0.7500 0.5958(12)
H30 H 0.9775 0.7500 0.5430
H31 H 0.8506 0.7500 0.5588
C37 C 0.8697(10) 0.8487(3) 0.8703(13)
H32 H 0.7904 0.8461 0.8580
H33 H 0.8896 0.8774 0.8735
H34 H 0.8969 0.8355 0.9365
C38 C 0.9187(11) 0.8290(2) 0.7834(12)
O9 O 0.6259(12) 0.7946(3) 0.784(2)
Mn3 Mn 0.7564(3) 0.7500 0.7805(3)
N7 N 0.9431(10) 0.7138(2) 0.6642(9)
H35 H 0.9628 0.5808 0.7324
N8 N 0.8749(11) 0.7045(2) 0.7348(11)
C49 C 0.8697(10) 0.6513(3) 0.8703(13)
H42 H 0.7904 0.6539 0.8580
H43 H 0.8896 0.6226 0.8735
H44 H 0.8969 0.6645 0.9365
C50 C 0.9187(11) 0.6710(2) 0.7834(12)
H56 H 0.8938 0.9426 0.9646
O16 O 0.6259(12) 0.7054(3) 0.784(2)
O2 O 0.5197(3) 0.55860(11) 0.0905(2)
O5_2 O 0.5485(3) 0.62439(12) 0.0899(4)
C6_2 C 0.0322(4) 0.61639(15) 0.1382(5)
C8_2 C 0.4847(4) 0.59502(17) 0.0933(4)
C12_2 C 0.3680(4) 0.60145(17) 0.1023(5)
C14_2 C 0.3195(5) 0.63937(19) 0.0885(6)
H6_2 H 0.3617 0.6618 0.0711
C15_2 C 0.1960(5) 0.57436(18) 0.1422(6)
H7_2 H 0.1542 0.5522 0.1620
C16_2 C 0.1485(5) 0.61227(18) 0.1268(6)
C19_2 C 0.3049(4) 0.56883(18) 0.1288(5)
H9_2 H 0.3365 0.5427 0.1376
C22_2 C 0.2111(5) 0.64477(19) 0.0998(6)
H14_2 H 0.1790 0.6708 0.0892
N5_2 N 0.0569(10) 0.2862(2) 0.3358(9)
H15_2 H 0.0372 0.4192 0.2676
C28_2 C 0.0280(5) 0.6788(2) 0.2632(6)
H21_2 H 0.0138 0.7043 0.2253
H22_2 H 0.1067 0.6749 0.2796
N6_2 N 0.1251(11) 0.2955(2) 0.2652(11)
O6_2 O 0.149(3) 0.2500 0.054(2)
O7_2 O 0.3300(14) 0.2500 0.3968(17)
C36_2 C 0.0744(14) 0.2500 0.4042(12)
H30_2 H 0.0225 0.2500 0.4570
H31_2 H 0.1494 0.2500 0.4412
C37_2 C 0.1303(10) 0.3487(3) 0.1297(13)
H32_2 H 0.2096 0.3461 0.1420
H33_2 H 0.1104 0.3774 0.1265
H34_2 H 0.1031 0.3355 0.0635
C38_2 C 0.0813(11) 0.3290(2) 0.2166(12)
O9_2 O 0.3741(12) 0.2946(3) 0.216(2)
Mn3_2 Mn 0.2436(3) 0.2500 0.2195(3)
N7_2 N 0.0569(10) 0.2138(2) 0.3358(9)
H35_2 H 0.0372 0.0808 0.2676
N8_2 N 0.1251(11) 0.2045(2) 0.2652(11)
C49_2 C 0.1303(10) 0.1513(3) 0.1297(13)
H42_2 H 0.2096 0.1539 0.1420
H43_2 H 0.1104 0.1226 0.1265
H44_2 H 0.1031 0.1645 0.0635
C50_2 C 0.0813(11) 0.1710(2) 0.2166(12)
H56_2 H 0.1062 0.4426 0.0354
O16_2 O 0.3741(12) 0.2054(3) 0.216(2)
Mn5 Mn 0.69313(5) 0.57121(2) 0.10278(5)
O21 O 0.3156(4) 0.41972(14) 0.0585(3)
H11_2 H 0.0233 0.5567 0.9923
N9_2 N 0.1251(3) 0.36529(11) 0.8134(3)
N10_2 N 0.1485(3) 0.39758(12) 0.8789(3)
O14 O 0.3885(3) 0.47979(12) 0.1034(3)
N11_2 N 0.2515(3) 0.37646(12) 0.6914(3)
N12_2 N 0.3067(4) 0.41058(12) 0.7296(3)
C51_2 C 0.2141(4) 0.34803(13) 0.7650(3)
H45_2 H 0.2748 0.3412 0.8195
H46_2 H 0.1897 0.3228 0.7280
C52_2 C 0.3346(5) 0.43002(15) 0.6463(4)
C53_2 C 0.0187(4) 0.35536(15) 0.8031(4)
C54_2 C 0.2990(5) 0.40781(16) 0.5537(3)
C56_2 C 0.3415(5) 0.43730(17) 0.2373(4)
C58_2 C 0.3511(4) 0.44670(17) 0.1252(4)
C59_2 C 0.0527(4) 0.40928(15) 0.9064(4)
C60_2 C 0.3156(6) 0.41854(17) 0.4451(4)
C62_2 C 0.3963(6) 0.46892(18) 0.6581(4)
H47_2 H 0.4387 0.4699 0.7275
H48_2 H 0.4456 0.4707 0.6042
H49_2 H 0.3451 0.4916 0.6505
C66_2 C 0.3043(5) 0.45811(18) 0.4085(4)
H52_2 H 0.2849 0.4789 0.4538
C67_2 C 0.2473(5) 0.37392(16) 0.5853(4)
C69_2 C 0.0462(6) 0.4442(2) 0.9785(6)
H54_2 H 0.0514 0.4695 0.9399
C70_2 C 0.3208(6) 0.46762(18) 0.3069(4)
H57_2 H 0.3179 0.4950 0.2847
C72_2 C 0.1907(7) 0.34011(19) 0.5245(4)
H59_2 H 0.1234 0.3335 0.5539
H60_2 H 0.1731 0.3483 0.4513
H61_2 H 0.2382 0.3163 0.5285
C73_2 C 0.3499(7) 0.39781(19) 0.2722(4)
H62_2 H 0.3638 0.3769 0.2250
H65_2 H 0.0057 0.3204 0.6718
C75_2 C 0.3384(7) 0.3882(2) 0.3747(4)
H66_2 H 0.3460 0.3609 0.3977
O19 O 0.4803(3) 0.44140(11) 0.9095(2)
O1_2 O 0.7641(3) 0.51470(10) 0.1403(3)
N1_2 N 0.8749(3) 0.63471(11) 0.1866(3)
N2_2 N 0.8515(3) 0.60242(12) 0.1211(3)
O3 O 0.6844(4) 0.58028(14) 0.9415(3)
O4 O 0.6115(3) 0.52021(12) 0.8966(3)
N3_2 N 0.7485(3) 0.62354(12) 0.3086(3)
N4_2 N 0.6933(4) 0.58942(12) 0.2704(3)
C1_2 C 0.7199(4) 0.48015(16) 0.1358(4)
C2_2 C 0.7859(4) 0.65197(13) 0.2350(3)
H1_2 H 0.7252 0.6588 0.1805
H2_2 H 0.8103 0.6772 0.2720
C3_2 C 0.6654(5) 0.56998(15) 0.3537(4)
C4_2 C 0.9813(4) 0.64464(15) 0.1969(4)
C5_2 C 0.7010(5) 0.59219(16) 0.4463(3)
C7_2 C 0.6585(5) 0.56270(17) 0.7627(4)
C9_2 C 0.6489(4) 0.55330(17) 0.8748(4)
C10_2 C 0.9473(4) 0.59072(15) 0.0936(4)
C11_2 C 0.6844(6) 0.58146(17) 0.5549(4)
C13_2 C 0.6037(6) 0.53108(18) 0.3419(4)
H3_2 H 0.5613 0.5301 0.2725
H4_2 H 0.5544 0.5293 0.3958
H5_2 H 0.6549 0.5084 0.3495
C17_2 C 0.6957(5) 0.54189(18) 0.5915(4)
H8_2 H 0.7151 0.5211 0.5462
C18_2 C 0.7527(5) 0.62608(16) 0.4147(4)
C20_2 C 0.9538(6) 0.5558(2) 0.0215(6)
H10_2 H 0.9486 0.5305 0.0601
C21_2 C 0.6792(6) 0.53238(18) 0.6931(4)
H13_2 H 0.6821 0.5050 0.7153
C23_2 C 0.9625(7) 0.41599(19) 0.2417(6)
C24_2 C 0.8093(7) 0.65989(19) 0.4755(4)
H16_2 H 0.8766 0.6665 0.4461
H17_2 H 0.8269 0.6517 0.5487
H18_2 H 0.7618 0.6837 0.4715
C25_2 C 0.6501(7) 0.60219(19) 0.7278(4)
H19_2 H 0.6362 0.6231 0.7750
C26_2 C 0.7892(5) 0.44508(16) 0.1733(5)
C27_2 C 0.9003(6) 0.44926(17) 0.2107(5)
H20_2 H 0.9326 0.4754 0.2147
H23_2 H 0.9943 0.6796 0.3282
C29_2 C 0.8121(9) 0.3727(2) 0.1953(9)
H24_2 H 0.7844 0.3460 0.1846
C30_2 C 0.9727(14) 0.3137(3) 0.3378(12)
C31_2 C 0.9163(8) 0.3777(2) 0.2352(8)
C32_2 C 0.7418(8) 0.4061(2) 0.1685(7)
H25_2 H 0.6660 0.4024 0.1483
C33_2 C 0.9895(9) 0.3414(2) 0.2610(9)
C34_2 C 0.6616(7) 0.6118(2) 0.6253(4)
H26_2 H 0.6540 0.6391 0.6023
C35_2 C 0.8915(15) 0.3098(3) 0.4066(11)
H27_2 H 0.8502 0.3351 0.4068
H28_2 H 0.9263 0.3041 0.4775
H29_2 H 0.8422 0.2876 0.3828
O8_2 O 0.6225(3) 0.47328(12) 0.1034(3)
C39_2 C 0.7199(4) 0.01985(16) 0.1358(4)
C40_2 C 0.9625(7) 0.08401(19) 0.2417(6)
C41_2 C 0.7892(5) 0.05492(16) 0.1733(5)
C42_2 C 0.9003(6) 0.05074(17) 0.2107(5)
H36_2 H 0.9326 0.0246 0.2147
C43_2 C 0.8121(9) 0.1273(2) 0.1953(9)
H37_2 H 0.7844 0.1540 0.1846
C44_2 C 0.9727(14) 0.1863(3) 0.3378(12)
C45_2 C 0.9163(8) 0.1223(2) 0.2352(8)
C46_2 C 0.7418(8) 0.0939(2) 0.1685(7)
H38_2 H 0.6660 0.0976 0.1483
C47_2 C 0.9895(9) 0.1586(2) 0.2610(9)
C48_2 C 0.8915(15) 0.1902(3) 0.4066(11)
H39_2 H 0.8502 0.1649 0.4068
H40_2 H 0.9263 0.1959 0.4775
H41_2 H 0.8422 0.2124 0.3828
H55_2 H 0.9767 0.4433 0.0077
H12_2 H 0.8938 0.5574 0.9646
O15_2 O 0.4515(3) 0.37561(12) 0.9101(4)
C55_2 C 0.9678(4) 0.38361(15) 0.8618(5)
C57_2 C 0.5153(4) 0.40498(17) 0.9067(4)
C61_2 C 0.6320(4) 0.39855(17) 0.8977(5)
C63_2 C 0.6805(5) 0.36063(19) 0.9115(6)
H50_2 H 0.6383 0.3382 0.9289
C64_2 C 0.8040(5) 0.42564(18) 0.8578(6)
H51_2 H 0.8458 0.4478 0.8380
C65_2 C 0.8515(5) 0.38773(18) 0.8732(6)
C68_2 C 0.6951(4) 0.43117(18) 0.8712(5)
H53_2 H 0.6635 0.4573 0.8624
C71_2 C 0.7889(5) 0.35523(19) 0.9002(6)
H58_2 H 0.8210 0.3292 0.9108
C74_2 C 0.9720(5) 0.3212(2) 0.7368(6)
H63_2 H 0.9862 0.2957 0.7747
H64_2 H 0.8933 0.3251 0.7204
O25 O 0.8213 0.7500 0.3430
O26 O 0.7101 0.7500 0.2263
N13 N 0.7256 0.7500 0.3139
O27 O 0.6714 0.7500 0.3866
O25_2 O 0.1787 0.2500 0.6570
O26_2 O 0.2899 0.2500 0.7737
N13_2 N 0.2744 0.2500 0.6861
O27_2 O 0.3286 0.2500 0.6134
loop_
_geom_bond_atom_site_label_1
_geom_bond_atom_site_label_2
_geom_bond_site_symmetry_1
_geom_bond_site_symmetry_2
O22 Mn2 1_555 1_555
O24 Mn2 1_555 1_555
Mn1 O1 1_555 1_555
N1 N2 1_555 1_555
N2 Mn1 1_555 1_555
O20 C9 1_555 1_555
O22 C9 1_555 1_555
N3 N4 1_555 1_555
N4 Mn1 1_555 1_555
C2 N1 1_555 1_555
H1 C2 1_555 1_555
H2 C2 1_555 1_555
C3 N4 1_555 1_555
C4 N1 1_555 1_555
C5 C3 1_555 1_555
C7 C9 1_555 1_555
C10 N2 1_555 1_555
C11 C5 1_555 1_555
C13 C3 1_555 1_555
H3 C13 1_555 1_555
H4 C13 1_555 1_555
H5 C13 1_555 1_555
C17 C11 1_555 1_555
H8 C17 1_555 1_555
C18 N3 1_555 1_555
C20 C10 1_555 1_555
H10 C20 1_555 1_555
C21 C7 1_555 1_555
H13 C21 1_555 1_555
C24 C18 1_555 1_555
H16 C24 1_555 1_555
H17 C24 1_555 1_555
H18 C24 1_555 1_555
C25 C7 1_555 1_555
H19 C25 1_555 1_555
C34 C11 1_555 1_555
H26 C34 1_555 1_555
O18 Mn1 1_555 1_555
Mn2_2 O18 1_555 1_555
N3 C2 1_555 1_555
C5 C18 1_555 1_555
C17 C21 1_555 1_555
C25 C34 1_555 1_555
O12 Mn2_3 1_555 1_555
O15 C57 1_555 1_555
C57 O12 1_555 1_555
C61 C57 1_555 1_555
C63 C61 1_555 1_555
H50 C63 1_555 1_555
C64 H51 1_555 1_555
C65 C55 1_555 1_555
C68 C61 1_555 1_555
H53 C68 1_555 1_555
C71 C63 1_555 1_555
H58 C71 1_555 1_555
H63 C74 1_555 1_555
H64 C74 1_555 1_555
Mn8 O12 1_555 1_555
C64 C65 1_555 1_555
C64 C68 1_555 1_555
C65 C71 1_555 1_555
Mn2_4 O8 1_555 1_555
C1 C26 1_555 1_555
C26 C27 1_555 1_555
C27 C23 1_555 1_555
H20 C27 1_555 1_555
C29 H24 1_555 1_555
C30 C33 1_555 1_555
C31 C23 1_555 1_555
C32 C26 1_555 1_555
H25 C32 1_555 1_555
C33 C31 1_555 1_555
C35 C30 1_555 1_555
H27 C35 1_555 1_555
H28 C35 1_555 1_555
H29 C35 1_555 1_555
O8 C1 1_555 1_555
O10 C39 1_555 1_555
C39 C41 1_555 1_555
C41 C42 1_555 1_555
C42 C40 1_555 1_555
H36 C42 1_555 1_555
C43 H37 1_555 1_555
C45 C40 1_555 1_555
C46 C41 1_555 1_555
H38 C46 1_555 1_555
C47 C44 1_555 1_555
C48 C44 1_555 1_555
H39 C48 1_555 1_555
H40 C48 1_555 1_555
H41 C48 1_555 1_555
O11 C39 1_555 1_555
Mn9 O10 1_555 1_555
Mn13_2 O11 1_555 1_555
O23 Mn2_4 1_555 1_555
C29 C31 1_555 1_555
C29 C32 1_555 1_555
C43 C45 1_555 1_555
C43 C46 1_555 1_555
C45 C47 1_555 1_555
O18 C8 1_555 1_555
O5 C8 1_555 1_555
C8 C12 1_555 1_555
C12 C14 1_555 1_555
C14 H6 1_555 1_555
C15 H7 1_555 1_555
C16 C6 1_555 1_555
C19 C12 1_555 1_555
H9 C19 1_555 1_555
C22 C14 1_555 1_555
H14 C22 1_555 1_555
H21 C28 1_555 1_555
H22 C28 1_555 1_555
C15 C16 1_555 1_555
C15 C19 1_555 1_555
C16 C22 1_555 1_555
Mn8 N10 1_555 1_555
N9 N10 1_555 1_555
N10 C59 1_555 1_555
O13 C58 1_555 1_555
O23 C58 1_555 1_555
N11 N12 1_555 1_555
N12 Mn8 1_555 1_555
C51 N9 1_555 1_555
H45 C51 1_555 1_555
H46 C51 1_555 1_555
C52 N12 1_555 1_555
C53 N9 1_555 1_555
C54 C52 1_555 1_555
C56 C58 1_555 1_555
C60 C54 1_555 1_555
C62 C52 1_555 1_555
H47 C62 1_555 1_555
H48 C62 1_555 1_555
H49 C62 1_555 1_555
C66 C60 1_555 1_555
H52 C66 1_555 1_555
C67 N11 1_555 1_555
C69 C59 1_555 1_555
H54 C69 1_555 1_555
C70 C56 1_555 1_555
H57 C70 1_555 1_555
C72 C67 1_555 1_555
H59 C72 1_555 1_555
H60 C72 1_555 1_555
H61 C72 1_555 1_555
C73 C56 1_555 1_555
H62 C73 1_555 1_555
C75 C60 1_555 1_555
H66 C75 1_555 1_555
O17 Mn8 1_555 1_555
N11 C51 1_555 1_555
C54 C67 1_555 1_555
C66 C70 1_555 1_555
C73 C75 1_555 1_555
N6 N5 1_555 1_555
O6 Mn3 1_555 1_555
O7 Mn3 1_555 1_555
C36 N5 1_555 1_555
H30 C36 1_555 1_555
H31 C36 1_555 1_555
C37 H32 1_555 1_555
H33 C37 1_555 1_555
H34 C37 1_555 1_555
C38 N6 1_555 1_555
O9 Mn3 1_555 1_555
Mn3 N6 1_555 1_555
N7 C36 1_555 1_555
N8 Mn3 1_555 1_555
C49 H42 1_555 1_555
H43 C49 1_555 1_555
H44 C49 1_555 1_555
C50 N8 1_555 1_555
O16 Mn3 1_555 1_555
C37 C38 1_555 1_555
N7 N8 1_555 1_555
C49 C50 1_555 1_555
O2 C8_2 1_555 1_555
O5_2 C8_2 1_555 1_555
C8_2 C12_2 1_555 1_555
C12_2 C14_2 1_555 1_555
C14_2 H6_2 1_555 1_555
C15_2 H7_2 1_555 1_555
C16_2 C6_2 1_555 1_555
C19_2 C12_2 1_555 1_555
H9_2 C19_2 1_555 1_555
C22_2 C14_2 1_555 1_555
H14_2 C22_2 1_555 1_555
H21_2 C28_2 1_555 1_555
H22_2 C28_2 1_555 1_555
N6_2 N5_2 1_555 1_555
O6_2 Mn3_2 1_555 1_555
O7_2 Mn3_2 1_555 1_555
C36_2 N5_2 1_555 1_555
H30_2 C36_2 1_555 1_555
H31_2 C36_2 1_555 1_555
C37_2 H32_2 1_555 1_555
H33_2 C37_2 1_555 1_555
H34_2 C37_2 1_555 1_555
C38_2 N6_2 1_555 1_555
O9_2 Mn3_2 1_555 1_555
Mn3_2 N6_2 1_555 1_555
N7_2 C36_2 1_555 1_555
N8_2 Mn3_2 1_555 1_555
C49_2 H42_2 1_555 1_555
H43_2 C49_2 1_555 1_555
H44_2 C49_2 1_555 1_555
C50_2 N8_2 1_555 1_555
O16_2 Mn3_2 1_555 1_555
Mn5 O2 1_555 1_555
Mn13 O2 1_555 1_555
C15_2 C16_2 1_555 1_555
C15_2 C19_2 1_555 1_555
C16_2 C22_2 1_555 1_555
C37_2 C38_2 1_555 1_555
N7_2 N8_2 1_555 1_555
C49_2 C50_2 1_555 1_555
Mn9 N10_2 1_555 1_555
N9_2 N10_2 1_555 1_555
N10_2 C59_2 1_555 1_555
O21 C58_2 1_555 1_555
O14 C58_2 1_555 1_555
N11_2 N12_2 1_555 1_555
N12_2 Mn9 1_555 1_555
C51_2 N9_2 1_555 1_555
H45_2 C51_2 1_555 1_555
H46_2 C51_2 1_555 1_555
C52_2 N12_2 1_555 1_555
C53_2 N9_2 1_555 1_555
C54_2 C52_2 1_555 1_555
C56_2 C58_2 1_555 1_555
C60_2 C54_2 1_555 1_555
C62_2 C52_2 1_555 1_555
H47_2 C62_2 1_555 1_555
H48_2 C62_2 1_555 1_555
H49_2 C62_2 1_555 1_555
C66_2 C60_2 1_555 1_555
H52_2 C66_2 1_555 1_555
C67_2 N11_2 1_555 1_555
C69_2 C59_2 1_555 1_555
H54_2 C69_2 1_555 1_555
C70_2 C56_2 1_555 1_555
H57_2 C70_2 1_555 1_555
C72_2 C67_2 1_555 1_555
H59_2 C72_2 1_555 1_555
H60_2 C72_2 1_555 1_555
H61_2 C72_2 1_555 1_555
C73_2 C56_2 1_555 1_555
H62_2 C73_2 1_555 1_555
C75_2 C60_2 1_555 1_555
H66_2 C75_2 1_555 1_555
Mn13 O14 1_555 1_555
O19 Mn9 1_555 1_555
N11_2 C51_2 1_555 1_555
C54_2 C67_2 1_555 1_555
C66_2 C70_2 1_555 1_555
C73_2 C75_2 1_555 1_555
Mn13_2 O19 1_555 1_555
Mn5 O1_2 1_555 1_555
Mn13 O8_2 1_555 1_555
O1_2 C1_2 1_555 1_555
N1_2 N2_2 1_555 1_555
N2_2 Mn5 1_555 1_555
O3 C9_2 1_555 1_555
O4 C9_2 1_555 1_555
N3_2 N4_2 1_555 1_555
N4_2 Mn5 1_555 1_555
C1_2 C26_2 1_555 1_555
C2_2 N1_2 1_555 1_555
H1_2 C2_2 1_555 1_555
H2_2 C2_2 1_555 1_555
C3_2 N4_2 1_555 1_555
C4_2 N1_2 1_555 1_555
C5_2 C3_2 1_555 1_555
C7_2 C9_2 1_555 1_555
C10_2 N2_2 1_555 1_555
C11_2 C5_2 1_555 1_555
C13_2 C3_2 1_555 1_555
H3_2 C13_2 1_555 1_555
H4_2 C13_2 1_555 1_555
H5_2 C13_2 1_555 1_555
C17_2 C11_2 1_555 1_555
H8_2 C17_2 1_555 1_555
C18_2 N3_2 1_555 1_555
C20_2 C10_2 1_555 1_555
H10_2 C20_2 1_555 1_555
C21_2 C7_2 1_555 1_555
H13_2 C21_2 1_555 1_555
C24_2 C18_2 1_555 1_555
H16_2 C24_2 1_555 1_555
H17_2 C24_2 1_555 1_555
H18_2 C24_2 1_555 1_555
C25_2 C7_2 1_555 1_555
H19_2 C25_2 1_555 1_555
C26_2 C27_2 1_555 1_555
C27_2 C23_2 1_555 1_555
H20_2 C27_2 1_555 1_555
C29_2 H24_2 1_555 1_555
C30_2 C33_2 1_555 1_555
C31_2 C23_2 1_555 1_555
C32_2 C26_2 1_555 1_555
H25_2 C32_2 1_555 1_555
C33_2 C31_2 1_555 1_555
C34_2 C11_2 1_555 1_555
H26_2 C34_2 1_555 1_555
C35_2 C30_2 1_555 1_555
H27_2 C35_2 1_555 1_555
H28_2 C35_2 1_555 1_555
H29_2 C35_2 1_555 1_555
O8_2 C1_2 1_555 1_555
C39_2 C41_2 1_555 1_555
C41_2 C42_2 1_555 1_555
C42_2 C40_2 1_555 1_555
H36_2 C42_2 1_555 1_555
C43_2 H37_2 1_555 1_555
C45_2 C40_2 1_555 1_555
C46_2 C41_2 1_555 1_555
H38_2 C46_2 1_555 1_555
C47_2 C44_2 1_555 1_555
C48_2 C44_2 1_555 1_555
H39_2 C48_2 1_555 1_555
H40_2 C48_2 1_555 1_555
H41_2 C48_2 1_555 1_555
O24 C39_2 1_555 1_555
Mn13_2 O4 1_555 1_555
N3_2 C2_2 1_555 1_555
C5_2 C18_2 1_555 1_555
C17_2 C21_2 1_555 1_555
C25_2 C34_2 1_555 1_555
C29_2 C31_2 1_555 1_555
C29_2 C32_2 1_555 1_555
C43_2 C45_2 1_555 1_555
C43_2 C46_2 1_555 1_555
C45_2 C47_2 1_555 1_555
O15_2 C57_2 1_555 1_555
C57_2 O19 1_555 1_555
C61_2 C57_2 1_555 1_555
C63_2 C61_2 1_555 1_555
H50_2 C63_2 1_555 1_555
C64_2 H51_2 1_555 1_555
C65_2 C55_2 1_555 1_555
C68_2 C61_2 1_555 1_555
H53_2 C68_2 1_555 1_555
C71_2 C63_2 1_555 1_555
H58_2 C71_2 1_555 1_555
H63_2 C74_2 1_555 1_555
H64_2 C74_2 1_555 1_555
C64_2 C65_2 1_555 1_555
C64_2 C68_2 1_555 1_555
C65_2 C71_2 1_555 1_555
O25 N13 1_555 1_555
O26 N13 1_555 1_555
N13 O27 1_555 1_555
O25_2 N13_2 1_555 1_555
O26_2 N13_2 1_555 1_555
N13_2 O27_2 1_555 1_555

#END
