
###############################################################################
#
# This file contains modified crystal structure data generated from the
# MOF subset of the Cambridge Structural Database (CSD) v543 
# hosted by the Cambridge Crystallographic Data Centre (CCDC).
#
# This work is licensed under the Creative Commons
# Attribution-NonCommercial-ShareAlike 4.0 International License.
# To view a copy of this license, visit
# http://creativecommons.org/licenses/by-nc-sa/4.0/
# or send a letter to
# Creative Commons, PO Box 1866, Mountain View, CA 94042, USA.
#
# CIF created using the CSD Python API on 29 September 2022
# The structure has been converted into the P1 space group
# The structure has a 3D framework
# The original CSD entry BUJMEB is in the monoclinic crystal system
# The framework has been calculated to contain at least 10.0% void space
# The void calculation uses a probe of radius 1.32A, grid spacing 0.4
# The framework is charged, counterions have been retained in the structure
# H atom positions have been added when not included in the experimental data
# Generated hydrogen atom positions removed from atoms on special positions
#
###############################################################################

data_BUJMEB
_chemical_formula_moiety         '(C150 H164 Co2 Mn7 N24 O27 4+)n'
_symmetry_cell_setting           triclinic
_symmetry_space_group_name_H-M   'P 1'
_symmetry_Int_Tables_number      1
_space_group_name_Hall           'P 1'
loop_
_symmetry_equiv_pos_site_id
_symmetry_equiv_pos_as_xyz
1 x,y,z
_cell_length_a                   12.457(3)
_cell_length_b                   34.265(7)
_cell_length_c                   12.888(3)
_cell_angle_alpha                90
_cell_angle_beta                 100.61(3)
_cell_angle_gamma                90
_cell_volume                     5407.05
loop_
_atom_site_label
_atom_site_type_symbol
_atom_site_fract_x
_atom_site_fract_y
_atom_site_fract_z
O1 O 0.0230(3) 0.44518(11) 0.5979(3)
O5 O 0.0492(3) 0.38185(12) 0.6044(4)
Mn6 Mn 0.19590(6) 0.43286(2) 0.61152(5)
Mn10 Mn 0.0000 0.5000 0.5000
O10 O 0.2743(3) 0.01264(12) 0.6487(3)
Mn7 Mn 0.19590(6) 0.06714(2) 0.61152(5)
Mn11 Mn -0.0000 0.0000 0.5000
O4 O 0.1069(4) 0.47816(13) 0.3995(3)
O6 O 0.1743(4) 0.41927(15) 0.4480(3)
C4 C 0.1441(4) 0.44595(17) 0.3808(4)
C11 C 0.1619(5) 0.43841(17) 0.2710(4)
C19 C 0.1979(5) 0.42273(18) 0.0661(4)
C21 C 0.1558(5) 0.39974(17) 0.2305(4)
H12 H 0.1394 0.3790 0.2738
C24 C 0.1854(5) 0.46827(18) 0.2055(5)
H17 H 0.1888 0.4944 0.2305
C26 C 0.1727(5) 0.39169(19) 0.1323(4)
H18 H 0.1680 0.3656 0.1072
C28 C 0.2046(5) 0.4607(2) 0.1026(5)
H19 H 0.2217 0.4814 0.0593
H29 H 0.3095 0.3486 0.0603
Co1 Co 0.72422(15) 0.7500 0.72283(14)
O2 O 0.2743(3) 0.48736(12) 0.6487(3)
O3 O 0.1283(3) 0.52607(12) 0.6049(3)
N1 N 0.3863(3) 0.37375(12) 0.7021(3)
N2 N 0.2682(3) 0.38487(14) 0.8232(3)
N3 N 0.3562(4) 0.40336(13) 0.6282(3)
N4 N 0.2101(4) 0.41752(14) 0.7824(4)
N5 N 0.5398(6) 0.71512(15) 0.8269(5)
C1 C 0.2257(4) 0.52032(16) 0.6377(4)
C2 C 0.5376(4) 0.39194(16) 0.6484(4)
C3 C 0.9858(4) 0.41034(16) 0.6047(4)
C5 C 0.4096(5) 0.55378(17) 0.7046(4)
H1 H 0.4454 0.5292 0.7098
C6 C 0.2729(4) 0.38178(18) 0.9268(4)
C7 C 0.8667(4) 0.40511(18) 0.6123(4)
C8 C 0.1826(4) 0.43482(16) 0.8642(4)
C9 C 0.4668(6) 0.68765(16) 0.8277(5)
C10 C 0.4951(4) 0.36714(18) 0.7155(5)
C12 C 0.4449(6) 0.4463(2) 0.5170(6)
H2 H 0.3761 0.4451 0.4660
H3 H 0.5064 0.4434 0.4799
H4 H 0.4503 0.4715 0.5535
C13 C 0.8078(5) 0.43727(17) 0.6279(5)
H5 H 0.8404 0.4624 0.6314
C14 C 0.4477(4) 0.41420(16) 0.5955(4)
N6 N 0.6085(6) 0.70711(15) 0.7560(5)
C15 C 0.2178(5) 0.41428(18) 0.9601(4)
C16 C 0.3046(4) 0.35727(15) 0.7495(4)
H6 H 0.3329 0.3333 0.7880
H7 H 0.2417 0.3498 0.6942
C17 C 0.4692(6) 0.58720(17) 0.7287(5)
H8 H 0.5464 0.5854 0.7481
C18 C 0.8225(5) 0.3679(2) 0.6054(7)
H9 H 0.8657 0.3460 0.5941
C20 C 0.5658(9) 0.7500 0.8925(7)
H10 H 0.5229 0.7500 0.9499
H11 H 0.6443 0.7500 0.9248
C22 C 0.6979(5) 0.43298(18) 0.6387(6)
H13 H 0.6561 0.4554 0.6489
C23 C 0.1160(6) 0.47266(19) 0.8496(4)
H14 H 0.1656 0.4950 0.8531
H15 H 0.0728 0.4749 0.9056
H16 H 0.0671 0.4723 0.7807
C25 C 0.6503(4) 0.39644(18) 0.6345(5)
C27 C 0.4804(7) 0.66022(19) 0.7520(6)
C29 C 0.4199(5) 0.62349(17) 0.7255(6)
C30 C 0.7155(5) 0.36320(19) 0.6151(5)
H20 H 0.6838 0.3379 0.6090
C31 C 0.2440(6) 0.5920(2) 0.6697(6)
H21 H 0.1666 0.5936 0.6518
C32 C 0.6134(7) 0.6552(2) 0.6213(8)
H22 H 0.5535 0.6527 0.5606
H23 H 0.6417 0.6292 0.6434
H24 H 0.6719 0.6710 0.6014
C33 C 0.3825(8) 0.6897(2) 0.8990(7)
H25 H 0.4188 0.6961 0.9710
H26 H 0.3457 0.6644 0.8988
H27 H 0.3286 0.7099 0.8730
C34 C 0.3296(6) 0.3488(2) 0.9903(4)
H28 H 0.3077 0.3240 0.9545
H30 H 0.4088 0.3520 0.9978
C35 C 0.5738(7) 0.67368(18) 0.7068(6)
C36 C 0.5550(5) 0.3381(2) 0.7910(6)
H31 H 0.5366 0.3421 0.8609
H32 H 0.6338 0.3415 0.7953
H33 H 0.5340 0.3117 0.7663
C37 C 0.3032(10) 0.6255(2) 0.6930(9)
H34 H 0.2674 0.6501 0.6878
O7 O 0.8103(7) 0.7500 0.8819(8)
O8 O 0.6576(10) 0.7500 0.5589(7)
O9 O 0.8418(6) 0.7938(2) 0.7038(9)
C38 C 0.2935(5) 0.55575(16) 0.6716(4)
O11 O 0.1283(3) 0.97393(12) 0.6049(3)
N7 N 0.5398(6) 0.78488(15) 0.8269(5)
C39 C 0.2257(4) 0.97968(16) 0.6377(4)
C40 C 0.4096(5) 0.94622(17) 0.7046(4)
H35 H 0.4454 0.9708 0.7098
C41 C 0.4668(6) 0.81235(16) 0.8277(5)
N8 N 0.6085(6) 0.79289(15) 0.7560(5)
C42 C 0.4692(6) 0.91280(17) 0.7287(5)
H36 H 0.5464 0.9146 0.7481
C43 C 0.4804(7) 0.83978(19) 0.7520(6)
C44 C 0.4199(5) 0.87651(17) 0.7255(6)
C45 C 0.2440(6) 0.9080(2) 0.6697(6)
H37 H 0.1666 0.9064 0.6518
C46 C 0.6134(7) 0.8448(2) 0.6213(8)
H38 H 0.5535 0.8473 0.5606
H39 H 0.6417 0.8708 0.6434
H40 H 0.6719 0.8290 0.6014
C47 C 0.3825(8) 0.8103(2) 0.8990(7)
H41 H 0.4188 0.8039 0.9710
H42 H 0.3457 0.8356 0.8988
H43 H 0.3286 0.7901 0.8730
C48 C 0.5738(7) 0.82632(18) 0.7068(6)
C49 C 0.3032(10) 0.8745(2) 0.6930(9)
H44 H 0.2674 0.8499 0.6878
C50 C 0.2935(5) 0.94425(16) 0.6716(4)
O16 O 0.8418(6) 0.7062(2) 0.7038(9)
Mn10_2 Mn 1.0000 0.5000 0.5000
Mn11_2 Mn -0.0000 1.0000 0.5000
Mn11_3 Mn 1.0000 0.0000 0.5000
Mn11_4 Mn 1.0000 1.0000 0.5000
O18 O 0.9770(3) 0.55482(11) 0.4021(3)
O20 O 0.8717(3) 0.47393(12) 0.3951(3)
O22 O 0.8931(4) 0.52184(13) 0.6005(3)
O18_2 O 0.0230(3) 0.05482(11) 0.5979(3)
O22_2 O 0.1069(4) 0.02184(13) 0.3995(3)
Mn3 Mn 0.80410(6) 0.93286(2) 0.38848(5)
N9 N 0.6137(3) 0.87375(12) 0.2979(3)
N10 N 0.7318(3) 0.88487(14) 0.1768(3)
N11 N 0.6438(4) 0.90336(13) 0.3718(3)
N12 N 0.7899(4) 0.91752(14) 0.2176(4)
C51 C 0.4624(4) 0.89194(16) 0.3516(4)
C52 C 0.0142(4) 0.91034(16) 0.3953(4)
C54 C 0.7271(4) 0.88178(18) 0.0732(4)
C55 C 0.1333(4) 0.90511(18) 0.3877(4)
C56 C 0.8174(4) 0.93482(16) 0.1358(4)
C57 C 0.5049(4) 0.86714(18) 0.2845(5)
C59 C 0.5551(6) 0.9463(2) 0.4830(6)
H45 H 0.6239 0.9451 0.5340
H46 H 0.4936 0.9434 0.5201
H47 H 0.5497 0.9715 0.4465
C60 C 0.1922(5) 0.93727(17) 0.3721(5)
H48 H 0.1596 0.9624 0.3686
C61 C 0.5523(4) 0.91420(16) 0.4045(4)
C62 C 0.7822(5) 0.91428(18) 0.0399(4)
C63 C 0.6954(4) 0.85727(15) 0.2505(4)
H49 H 0.6671 0.8333 0.2120
H50 H 0.7583 0.8498 0.3058
C64 C 0.1775(5) 0.8679(2) 0.3946(7)
H51 H 0.1343 0.8460 0.4059
C67 C 0.3021(5) 0.93298(18) 0.3613(6)
H53 H 0.3439 0.9554 0.3511
C68 C 0.8840(6) 0.97266(19) 0.1504(4)
H54 H 0.8344 0.9950 0.1469
H55 H 0.9272 0.9749 0.0944
H56 H 0.9329 0.9723 0.2193
C70 C 0.3497(4) 0.89644(18) 0.3655(5)
C73 C 0.2845(5) 0.86320(19) 0.3849(5)
H60 H 0.3162 0.8379 0.3910
C74 C 0.6704(6) 0.8488(2) 0.0097(4)
H61 H 0.6923 0.8240 0.0455
H63 H 0.5912 0.8520 0.0022
C75 C 0.4450(5) 0.8381(2) 0.2090(6)
H64 H 0.4634 0.8421 0.1391
H65 H 0.3662 0.8415 0.2047
H66 H 0.4660 0.8117 0.2337
O17 O 0.9770(3) 0.94518(11) 0.4021(3)
O19 O 0.7257(3) 0.98736(12) 0.3513(3)
O23 O 0.8257(4) 0.91927(15) 0.5520(3)
O13 O 0.8931(4) 0.97816(13) 0.6005(3)
C53 C 0.8559(4) 0.94595(17) 0.6192(4)
C58 C 0.8381(5) 0.93841(17) 0.7290(4)
C65 C 0.8021(5) 0.92273(18) 0.9339(4)
C66 C 0.8442(5) 0.89974(17) 0.7695(4)
H52 H 0.8606 0.8790 0.7262
C69 C 0.8146(5) 0.96827(18) 0.7945(5)
H57 H 0.8112 0.9944 0.7695
C71 C 0.8273(5) 0.89169(19) 0.8677(4)
H58 H 0.8320 0.8656 0.8928
C72 C 0.7954(5) 0.9607(2) 0.8974(5)
H59 H 0.7783 0.9814 0.9407
H62 H 0.6905 0.8486 0.9397
Co1_2 Co 0.27578(15) 0.2500 0.27717(14)
O3_2 O 0.8717(3) 0.02607(12) 0.3951(3)
N5_2 N 0.4602(6) 0.21512(15) 0.1731(5)
C1_2 C 0.7743(4) 0.02032(16) 0.3623(4)
C5_2 C 0.5904(5) 0.05378(17) 0.2954(4)
H1_2 H 0.5546 0.0292 0.2902
C9_2 C 0.5332(6) 0.18765(16) 0.1723(5)
N6_2 N 0.3915(6) 0.20711(15) 0.2440(5)
C17_2 C 0.5308(6) 0.08720(17) 0.2713(5)
H8_2 H 0.4536 0.0854 0.2519
C20_2 C 0.4342(9) 0.2500 0.1075(7)
H10_2 H 0.4771 0.2500 0.0501
H11_2 H 0.3557 0.2500 0.0752
C27_2 C 0.5196(7) 0.16022(19) 0.2480(6)
C29_2 C 0.5801(5) 0.12349(17) 0.2745(6)
C31_2 C 0.7560(6) 0.0920(2) 0.3303(6)
H21_2 H 0.8334 0.0936 0.3482
C32_2 C 0.3866(7) 0.1552(2) 0.3787(8)
H22_2 H 0.4465 0.1527 0.4394
H23_2 H 0.3583 0.1292 0.3566
H24_2 H 0.3281 0.1710 0.3986
C33_2 C 0.6175(8) 0.1897(2) 0.1010(7)
H25_2 H 0.5812 0.1961 0.0290
H26_2 H 0.6543 0.1644 0.1012
H27_2 H 0.6714 0.2099 0.1270
C35_2 C 0.4262(7) 0.17368(18) 0.2932(6)
C37_2 C 0.6968(10) 0.1255(2) 0.3070(9)
H34_2 H 0.7326 0.1501 0.3122
O7_2 O 0.1897(7) 0.2500 0.1181(8)
O8_2 O 0.3424(10) 0.2500 0.4411(7)
O9_2 O 0.1582(6) 0.2938(2) 0.2962(9)
C38_2 C 0.7065(5) 0.05575(16) 0.3284(4)
O10_2 O 0.7257(3) 0.51264(12) 0.3513(3)
N7_2 N 0.4602(6) 0.28488(15) 0.1731(5)
C39_2 C 0.7743(4) 0.47968(16) 0.3623(4)
C40_2 C 0.5904(5) 0.44622(17) 0.2954(4)
H35_2 H 0.5546 0.4708 0.2902
C41_2 C 0.5332(6) 0.31235(16) 0.1723(5)
N8_2 N 0.3915(6) 0.29289(15) 0.2440(5)
C42_2 C 0.5308(6) 0.41280(17) 0.2713(5)
H36_2 H 0.4536 0.4146 0.2519
C43_2 C 0.5196(7) 0.33978(19) 0.2480(6)
C44_2 C 0.5801(5) 0.37651(17) 0.2745(6)
C45_2 C 0.7560(6) 0.4080(2) 0.3303(6)
H37_2 H 0.8334 0.4064 0.3482
C46_2 C 0.3866(7) 0.3448(2) 0.3787(8)
H38_2 H 0.4465 0.3473 0.4394
H39_2 H 0.3583 0.3708 0.3566
H40_2 H 0.3281 0.3290 0.3986
C47_2 C 0.6175(8) 0.3103(2) 0.1010(7)
H41_2 H 0.5812 0.3039 0.0290
H42_2 H 0.6543 0.3356 0.1012
H43_2 H 0.6714 0.2901 0.1270
C48_2 C 0.4262(7) 0.32632(18) 0.2932(6)
C49_2 C 0.6968(10) 0.3745(2) 0.3070(9)
H44_2 H 0.7326 0.3499 0.3122
C50_2 C 0.7065(5) 0.44425(16) 0.3284(4)
O16_2 O 0.1582(6) 0.2062(2) 0.2962(9)
Mn7_2 Mn 0.80410(6) 0.56714(2) 0.38848(5)
O14 O 0.9508(3) 0.88185(12) 0.3956(4)
N9_2 N 0.6137(3) 0.62625(12) 0.2979(3)
N10_2 N 0.7318(3) 0.61513(14) 0.1768(3)
N11_2 N 0.6438(4) 0.59664(13) 0.3718(3)
N12_2 N 0.7899(4) 0.58248(14) 0.2176(4)
C51_2 C 0.4624(4) 0.60806(16) 0.3516(4)
C52_2 C 0.0142(4) 0.58966(16) 0.3953(4)
C54_2 C 0.7271(4) 0.61822(18) 0.0732(4)
C55_2 C 0.1333(4) 0.59489(18) 0.3877(4)
C56_2 C 0.8174(4) 0.56518(16) 0.1358(4)
C57_2 C 0.5049(4) 0.63286(18) 0.2845(5)
C59_2 C 0.5551(6) 0.5537(2) 0.4830(6)
H45_2 H 0.6239 0.5549 0.5340
H46_2 H 0.4936 0.5566 0.5201
H47_2 H 0.5497 0.5285 0.4465
C60_2 C 0.1922(5) 0.56273(17) 0.3721(5)
H48_2 H 0.1596 0.5376 0.3686
C61_2 C 0.5523(4) 0.58580(16) 0.4045(4)
C62_2 C 0.7822(5) 0.58572(18) 0.0399(4)
C63_2 C 0.6954(4) 0.64273(15) 0.2505(4)
H49_2 H 0.6671 0.6667 0.2120
H50_2 H 0.7583 0.6502 0.3058
C64_2 C 0.1775(5) 0.6321(2) 0.3946(7)
H51_2 H 0.1343 0.6540 0.4059
C67_2 C 0.3021(5) 0.56702(18) 0.3613(6)
H53_2 H 0.3439 0.5446 0.3511
C68_2 C 0.8840(6) 0.52734(19) 0.1504(4)
H54_2 H 0.8344 0.5050 0.1469
H55_2 H 0.9272 0.5251 0.0944
H56_2 H 0.9329 0.5277 0.2193
C70_2 C 0.3497(4) 0.60356(18) 0.3655(5)
C73_2 C 0.2845(5) 0.63680(19) 0.3849(5)
H60_2 H 0.3162 0.6621 0.3910
C74_2 C 0.6704(6) 0.6512(2) 0.0097(4)
H61_2 H 0.6923 0.6760 0.0455
H63_2 H 0.5912 0.6480 0.0022
C75_2 C 0.4450(5) 0.6619(2) 0.2090(6)
H64_2 H 0.4634 0.6579 0.1391
H65_2 H 0.3662 0.6585 0.2047
H66_2 H 0.4660 0.6883 0.2337
O23_2 O 0.8257(4) 0.58073(15) 0.5520(3)
C53_2 C 0.8559(4) 0.55405(17) 0.6192(4)
C58_2 C 0.8381(5) 0.56159(17) 0.7290(4)
C65_2 C 0.8021(5) 0.57727(18) 0.9339(4)
C66_2 C 0.8442(5) 0.60026(17) 0.7695(4)
H52_2 H 0.8606 0.6210 0.7262
C69_2 C 0.8146(5) 0.53173(18) 0.7945(5)
H57_2 H 0.8112 0.5056 0.7695
C71_2 C 0.8273(5) 0.60831(19) 0.8677(4)
H58_2 H 0.8320 0.6344 0.8928
C72_2 C 0.7954(5) 0.5393(2) 0.8974(5)
H59_2 H 0.7783 0.5186 0.9407
H62_2 H 0.6905 0.6514 0.9397
O14_2 O 0.9508(3) 0.61815(12) 0.3956(4)
O5_2 O 0.0492(3) 0.11815(12) 0.6044(4)
O6_2 O 0.1743(4) 0.08073(15) 0.4480(3)
C4_2 C 0.1441(4) 0.05405(17) 0.3808(4)
C11_2 C 0.1619(5) 0.06159(17) 0.2710(4)
C19_2 C 0.1979(5) 0.07727(18) 0.0661(4)
C21_2 C 0.1558(5) 0.10026(17) 0.2305(4)
H12_2 H 0.1394 0.1210 0.2738
C24_2 C 0.1854(5) 0.03173(18) 0.2055(5)
H17_2 H 0.1888 0.0056 0.2305
C26_2 C 0.1727(5) 0.10831(19) 0.1323(4)
H18_2 H 0.1680 0.1344 0.1072
C28_2 C 0.2046(5) 0.0393(2) 0.1026(5)
H19_2 H 0.2217 0.0186 0.0593
H29_2 H 0.3095 0.1514 0.0603
N1_2 N 0.3863(3) 0.12625(12) 0.7021(3)
N2_2 N 0.2682(3) 0.11513(14) 0.8232(3)
N3_2 N 0.3562(4) 0.09664(13) 0.6282(3)
N4_2 N 0.2101(4) 0.08248(14) 0.7824(4)
C2_2 C 0.5376(4) 0.10806(16) 0.6484(4)
C3_2 C 0.9858(4) 0.08966(16) 0.6047(4)
C6_2 C 0.2729(4) 0.11822(18) 0.9268(4)
C7_2 C 0.8667(4) 0.09489(18) 0.6123(4)
C8_2 C 0.1826(4) 0.06518(16) 0.8642(4)
C10_2 C 0.4951(4) 0.13286(18) 0.7155(5)
C12_2 C 0.4449(6) 0.0537(2) 0.5170(6)
H2_2 H 0.3761 0.0549 0.4660
H3_2 H 0.5064 0.0566 0.4799
H4_2 H 0.4503 0.0285 0.5535
C13_2 C 0.8078(5) 0.06273(17) 0.6279(5)
H5_2 H 0.8404 0.0376 0.6314
C14_2 C 0.4477(4) 0.08580(16) 0.5955(4)
C15_2 C 0.2178(5) 0.08572(18) 0.9601(4)
C16_2 C 0.3046(4) 0.14273(15) 0.7495(4)
H6_2 H 0.3329 0.1667 0.7880
H7_2 H 0.2417 0.1502 0.6942
C18_2 C 0.8225(5) 0.1321(2) 0.6054(7)
H9_2 H 0.8657 0.1540 0.5941
C22_2 C 0.6979(5) 0.06702(18) 0.6387(6)
H13_2 H 0.6561 0.0446 0.6489
C23_2 C 0.1160(6) 0.02734(19) 0.8496(4)
H14_2 H 0.1656 0.0050 0.8531
H15_2 H 0.0728 0.0251 0.9056
H16_2 H 0.0671 0.0277 0.7807
C25_2 C 0.6503(4) 0.10356(18) 0.6345(5)
C30_2 C 0.7155(5) 0.13680(19) 0.6151(5)
H20_2 H 0.6838 0.1621 0.6090
C34_2 C 0.3296(6) 0.1512(2) 0.9903(4)
H28_2 H 0.3077 0.1760 0.9545
H30_2 H 0.4088 0.1480 0.9978
C36_2 C 0.5550(5) 0.1619(2) 0.7910(6)
H31_2 H 0.5366 0.1579 0.8609
H32_2 H 0.6338 0.1585 0.7953
H33_2 H 0.5340 0.1883 0.7663
loop_
_geom_bond_atom_site_label_1
_geom_bond_atom_site_label_2
_geom_bond_site_symmetry_1
_geom_bond_site_symmetry_2
Mn6 O1 1_555 1_555
Mn10 O1 1_555 1_555
Mn7 O10 1_555 1_555
O4 C4 1_555 1_555
O6 C4 1_555 1_555
C4 C11 1_555 1_555
C11 C21 1_555 1_555
C21 H12 1_555 1_555
C24 C11 1_555 1_555
H17 C24 1_555 1_555
C26 C19 1_555 1_555
H18 C26 1_555 1_555
C28 C19 1_555 1_555
H19 C28 1_555 1_555
Mn6 O6 1_555 1_555
Mn10 O4 1_555 1_555
C21 C26 1_555 1_555
C24 C28 1_555 1_555
Mn6 O2 1_555 1_555
Mn10 O3 1_555 1_555
Co1 N6 1_555 1_555
O2 C1 1_555 1_555
O3 C1 1_555 1_555
N1 N3 1_555 1_555
N2 N4 1_555 1_555
N3 Mn6 1_555 1_555
N4 Mn6 1_555 1_555
N5 C9 1_555 1_555
C1 C38 1_555 1_555
C2 C10 1_555 1_555
C3 C7 1_555 1_555
C5 H1 1_555 1_555
C6 N2 1_555 1_555
C7 C13 1_555 1_555
C8 N4 1_555 1_555
C9 C27 1_555 1_555
C10 N1 1_555 1_555
C12 H2 1_555 1_555
H3 C12 1_555 1_555
H4 C12 1_555 1_555
C13 H5 1_555 1_555
C14 N3 1_555 1_555
N6 N5 1_555 1_555
C15 C6 1_555 1_555
C16 N1 1_555 1_555
H6 C16 1_555 1_555
H7 C16 1_555 1_555
C17 C5 1_555 1_555
H8 C17 1_555 1_555
C18 C7 1_555 1_555
H9 C18 1_555 1_555
C20 N5 1_555 1_555
H10 C20 1_555 1_555
H11 C20 1_555 1_555
C22 C13 1_555 1_555
H13 C22 1_555 1_555
C23 C8 1_555 1_555
H14 C23 1_555 1_555
H15 C23 1_555 1_555
H16 C23 1_555 1_555
C25 C2 1_555 1_555
C27 C29 1_555 1_555
C29 C17 1_555 1_555
C30 C18 1_555 1_555
H20 C30 1_555 1_555
C31 H21 1_555 1_555
C32 H22 1_555 1_555
H23 C32 1_555 1_555
H24 C32 1_555 1_555
C33 C9 1_555 1_555
H25 C33 1_555 1_555
H26 C33 1_555 1_555
H27 C33 1_555 1_555
C34 C6 1_555 1_555
H28 C34 1_555 1_555
H30 C34 1_555 1_555
C35 N6 1_555 1_555
C36 C10 1_555 1_555
H31 C36 1_555 1_555
H32 C36 1_555 1_555
H33 C36 1_555 1_555
C37 C29 1_555 1_555
H34 C37 1_555 1_555
O7 Co1 1_555 1_555
O8 Co1 1_555 1_555
O9 Co1 1_555 1_555
C38 C5 1_555 1_555
O11 C39 1_555 1_555
N7 C20 1_555 1_555
C39 C50 1_555 1_555
C40 H35 1_555 1_555
C41 N7 1_555 1_555
N8 Co1 1_555 1_555
C42 C40 1_555 1_555
H36 C42 1_555 1_555
C43 C41 1_555 1_555
C44 C42 1_555 1_555
C45 H37 1_555 1_555
C46 H38 1_555 1_555
H39 C46 1_555 1_555
H40 C46 1_555 1_555
C47 C41 1_555 1_555
H41 C47 1_555 1_555
H42 C47 1_555 1_555
H43 C47 1_555 1_555
C48 N8 1_555 1_555
C49 C44 1_555 1_555
H44 C49 1_555 1_555
C50 C40 1_555 1_555
O16 Co1 1_555 1_555
Mn11_2 O11 1_555 1_555
N2 C16 1_555 1_555
C2 C14 1_555 1_555
C8 C15 1_555 1_555
C12 C14 1_555 1_555
C22 C25 1_555 1_555
C25 C30 1_555 1_555
C27 C35 1_555 1_555
C31 C37 1_555 1_555
C31 C38 1_555 1_555
C32 C35 1_555 1_555
N7 N8 1_555 1_555
C43 C44 1_555 1_555
C43 C48 1_555 1_555
C45 C49 1_555 1_555
C45 C50 1_555 1_555
C46 C48 1_555 1_555
O18 Mn10_2 1_555 1_555
O20 Mn10_2 1_555 1_555
O22 Mn10_2 1_555 1_555
O18_2 Mn11 1_555 1_555
O22_2 Mn11 1_555 1_555
Mn3 N11 1_555 1_555
N9 N11 1_555 1_555
N10 N12 1_555 1_555
N11 C61 1_555 1_555
N12 Mn3 1_555 1_555
C51 C57 1_555 1_555
C54 N10 1_555 1_555
C55 C52 1_555 1_555
C56 N12 1_555 1_555
C57 N9 1_555 1_555
C59 H45 1_555 1_555
H46 C59 1_555 1_555
H47 C59 1_555 1_555
C60 C55 1_555 1_555
H48 C60 1_555 1_555
C61 C51 1_555 1_555
C62 C54 1_555 1_555
C63 N9 1_555 1_555
H49 C63 1_555 1_555
H50 C63 1_555 1_555
C64 C55 1_555 1_555
H51 C64 1_555 1_555
C67 C60 1_555 1_555
H53 C67 1_555 1_555
C68 C56 1_555 1_555
H54 C68 1_555 1_555
H55 C68 1_555 1_555
H56 C68 1_555 1_555
C70 C51 1_555 1_555
C73 C64 1_555 1_555
H60 C73 1_555 1_555
C74 C54 1_555 1_555
H61 C74 1_555 1_555
H63 C74 1_555 1_555
C75 C57 1_555 1_555
H64 C75 1_555 1_555
H65 C75 1_555 1_555
H66 C75 1_555 1_555
O17 Mn3 1_555 1_555
O19 Mn3 1_555 1_555
O23 Mn3 1_555 1_555
N10 C63 1_555 1_555
C56 C62 1_555 1_555
C59 C61 1_555 1_555
C67 C70 1_555 1_555
C70 C73 1_555 1_555
O13 C53 1_555 1_555
O23 C53 1_555 1_555
C53 C58 1_555 1_555
C58 C66 1_555 1_555
C66 H52 1_555 1_555
C69 C58 1_555 1_555
H57 C69 1_555 1_555
C71 C65 1_555 1_555
H58 C71 1_555 1_555
C72 C65 1_555 1_555
H59 C72 1_555 1_555
Mn11_4 O13 1_555 1_555
C66 C71 1_555 1_555
C69 C72 1_555 1_555
Mn11_3 O3_2 1_555 1_555
Co1_2 N6_2 1_555 1_555
O3_2 C1_2 1_555 1_555
N5_2 C9_2 1_555 1_555
C1_2 C38_2 1_555 1_555
C5_2 H1_2 1_555 1_555
C9_2 C27_2 1_555 1_555
N6_2 N5_2 1_555 1_555
C17_2 C5_2 1_555 1_555
H8_2 C17_2 1_555 1_555
C20_2 N5_2 1_555 1_555
H10_2 C20_2 1_555 1_555
H11_2 C20_2 1_555 1_555
C27_2 C29_2 1_555 1_555
C29_2 C17_2 1_555 1_555
C31_2 H21_2 1_555 1_555
C32_2 H22_2 1_555 1_555
H23_2 C32_2 1_555 1_555
H24_2 C32_2 1_555 1_555
C33_2 C9_2 1_555 1_555
H25_2 C33_2 1_555 1_555
H26_2 C33_2 1_555 1_555
H27_2 C33_2 1_555 1_555
C35_2 N6_2 1_555 1_555
C37_2 C29_2 1_555 1_555
H34_2 C37_2 1_555 1_555
O7_2 Co1_2 1_555 1_555
O8_2 Co1_2 1_555 1_555
O9_2 Co1_2 1_555 1_555
C38_2 C5_2 1_555 1_555
O10_2 C39_2 1_555 1_555
O20 C39_2 1_555 1_555
N7_2 C20_2 1_555 1_555
C39_2 C50_2 1_555 1_555
C40_2 H35_2 1_555 1_555
C41_2 N7_2 1_555 1_555
N8_2 Co1_2 1_555 1_555
C42_2 C40_2 1_555 1_555
H36_2 C42_2 1_555 1_555
C43_2 C41_2 1_555 1_555
C44_2 C42_2 1_555 1_555
C45_2 H37_2 1_555 1_555
C46_2 H38_2 1_555 1_555
H39_2 C46_2 1_555 1_555
H40_2 C46_2 1_555 1_555
C47_2 C41_2 1_555 1_555
H41_2 C47_2 1_555 1_555
H42_2 C47_2 1_555 1_555
H43_2 C47_2 1_555 1_555
C48_2 N8_2 1_555 1_555
C49_2 C44_2 1_555 1_555
H44_2 C49_2 1_555 1_555
C50_2 C40_2 1_555 1_555
O16_2 Co1_2 1_555 1_555
Mn7_2 O10_2 1_555 1_555
C27_2 C35_2 1_555 1_555
C31_2 C37_2 1_555 1_555
C31_2 C38_2 1_555 1_555
C32_2 C35_2 1_555 1_555
N7_2 N8_2 1_555 1_555
C43_2 C44_2 1_555 1_555
C43_2 C48_2 1_555 1_555
C45_2 C49_2 1_555 1_555
C45_2 C50_2 1_555 1_555
C46_2 C48_2 1_555 1_555
Mn11_4 O17 1_555 1_555
Mn7_2 N11_2 1_555 1_555
N9_2 N11_2 1_555 1_555
N10_2 N12_2 1_555 1_555
N11_2 C61_2 1_555 1_555
N12_2 Mn7_2 1_555 1_555
C51_2 C57_2 1_555 1_555
C54_2 N10_2 1_555 1_555
C55_2 C52_2 1_555 1_555
C56_2 N12_2 1_555 1_555
C57_2 N9_2 1_555 1_555
C59_2 H45_2 1_555 1_555
H46_2 C59_2 1_555 1_555
H47_2 C59_2 1_555 1_555
C60_2 C55_2 1_555 1_555
H48_2 C60_2 1_555 1_555
C61_2 C51_2 1_555 1_555
C62_2 C54_2 1_555 1_555
C63_2 N9_2 1_555 1_555
H49_2 C63_2 1_555 1_555
H50_2 C63_2 1_555 1_555
C64_2 C55_2 1_555 1_555
H51_2 C64_2 1_555 1_555
C67_2 C60_2 1_555 1_555
H53_2 C67_2 1_555 1_555
C68_2 C56_2 1_555 1_555
H54_2 C68_2 1_555 1_555
H55_2 C68_2 1_555 1_555
H56_2 C68_2 1_555 1_555
C70_2 C51_2 1_555 1_555
C73_2 C64_2 1_555 1_555
H60_2 C73_2 1_555 1_555
C74_2 C54_2 1_555 1_555
H61_2 C74_2 1_555 1_555
H63_2 C74_2 1_555 1_555
C75_2 C57_2 1_555 1_555
H64_2 C75_2 1_555 1_555
H65_2 C75_2 1_555 1_555
H66_2 C75_2 1_555 1_555
O18 Mn7_2 1_555 1_555
O23_2 Mn7_2 1_555 1_555
N10_2 C63_2 1_555 1_555
C56_2 C62_2 1_555 1_555
C59_2 C61_2 1_555 1_555
C67_2 C70_2 1_555 1_555
C70_2 C73_2 1_555 1_555
O22 C53_2 1_555 1_555
O23_2 C53_2 1_555 1_555
C53_2 C58_2 1_555 1_555
C58_2 C66_2 1_555 1_555
C66_2 H52_2 1_555 1_555
C69_2 C58_2 1_555 1_555
H57_2 C69_2 1_555 1_555
C71_2 C65_2 1_555 1_555
H58_2 C71_2 1_555 1_555
C72_2 C65_2 1_555 1_555
H59_2 C72_2 1_555 1_555
C66_2 C71_2 1_555 1_555
C69_2 C72_2 1_555 1_555
Mn7 O18_2 1_555 1_555
O22_2 C4_2 1_555 1_555
O6_2 C4_2 1_555 1_555
C4_2 C11_2 1_555 1_555
C11_2 C21_2 1_555 1_555
C21_2 H12_2 1_555 1_555
C24_2 C11_2 1_555 1_555
H17_2 C24_2 1_555 1_555
C26_2 C19_2 1_555 1_555
H18_2 C26_2 1_555 1_555
C28_2 C19_2 1_555 1_555
H19_2 C28_2 1_555 1_555
Mn7 O6_2 1_555 1_555
C21_2 C26_2 1_555 1_555
C24_2 C28_2 1_555 1_555
N1_2 N3_2 1_555 1_555
N2_2 N4_2 1_555 1_555
N3_2 Mn7 1_555 1_555
N4_2 Mn7 1_555 1_555
C2_2 C10_2 1_555 1_555
C3_2 C7_2 1_555 1_555
C6_2 N2_2 1_555 1_555
C7_2 C13_2 1_555 1_555
C8_2 N4_2 1_555 1_555
C10_2 N1_2 1_555 1_555
C12_2 H2_2 1_555 1_555
H3_2 C12_2 1_555 1_555
H4_2 C12_2 1_555 1_555
C13_2 H5_2 1_555 1_555
C14_2 N3_2 1_555 1_555
C15_2 C6_2 1_555 1_555
C16_2 N1_2 1_555 1_555
H6_2 C16_2 1_555 1_555
H7_2 C16_2 1_555 1_555
C18_2 C7_2 1_555 1_555
H9_2 C18_2 1_555 1_555
C22_2 C13_2 1_555 1_555
H13_2 C22_2 1_555 1_555
C23_2 C8_2 1_555 1_555
H14_2 C23_2 1_555 1_555
H15_2 C23_2 1_555 1_555
H16_2 C23_2 1_555 1_555
C25_2 C2_2 1_555 1_555
C30_2 C18_2 1_555 1_555
H20_2 C30_2 1_555 1_555
C34_2 C6_2 1_555 1_555
H28_2 C34_2 1_555 1_555
H30_2 C34_2 1_555 1_555
C36_2 C10_2 1_555 1_555
H31_2 C36_2 1_555 1_555
H32_2 C36_2 1_555 1_555
H33_2 C36_2 1_555 1_555
N2_2 C16_2 1_555 1_555
C2_2 C14_2 1_555 1_555
C8_2 C15_2 1_555 1_555
C12_2 C14_2 1_555 1_555
C22_2 C25_2 1_555 1_555
C25_2 C30_2 1_555 1_555

#END
