
###############################################################################
#
# This file contains modified crystal structure data generated from the
# MOF subset of the Cambridge Structural Database (CSD) v543 
# hosted by the Cambridge Crystallographic Data Centre (CCDC).
#
# This work is licensed under the Creative Commons
# Attribution-NonCommercial-ShareAlike 4.0 International License.
# To view a copy of this license, visit
# http://creativecommons.org/licenses/by-nc-sa/4.0/
# or send a letter to
# Creative Commons, PO Box 1866, Mountain View, CA 94042, USA.
#
# CIF created using the CSD Python API on 29 September 2022
# The structure has been converted into the P1 space group
# The structure has a 3D framework
# The original CSD entry BUKMUQ is in the orthorhombic crystal system
# The original CSD entry BUKMUQ is in a Sohncke space group
# The framework has been calculated to contain at least 10.0% void space
# The void calculation uses a probe of radius 1.32A, grid spacing 0.4
#
###############################################################################

data_BUKMUQ
_chemical_formula_moiety         '(C44 H48 N6 O20 Zn4)n'
_symmetry_cell_setting           triclinic
_symmetry_space_group_name_H-M   'P 1'
_symmetry_Int_Tables_number      1
_space_group_name_Hall           'P 1'
loop_
_symmetry_equiv_pos_site_id
_symmetry_equiv_pos_as_xyz
1 x,y,z
_cell_length_a                   10.4465(12)
_cell_length_b                   11.7859(13)
_cell_length_c                   14.6048(16)
_cell_angle_alpha                90
_cell_angle_beta                 90
_cell_angle_gamma                90
_cell_volume                     1798.16
loop_
_atom_site_label
_atom_site_type_symbol
_atom_site_fract_x
_atom_site_fract_y
_atom_site_fract_z
Zn1 Zn 0.16850(2) 0.198001(17) 0.173358(14)
O1 O 0.28357(14) 0.25064(12) 0.07767(10)
O2 O 0.12212(16) 0.36777(15) 0.04395(13)
O5 O 0.23296(15) 0.07245(12) 0.24884(10)
C1 C 0.3294(2) 0.01001(16) 0.25025(14)
C2 C 0.4382(2) 0.0279(2) 0.18492(18)
H2 H 0.4742 0.1039 0.1940
H3 H 0.4071 0.0207 0.1219
C9 C 0.2321(2) 0.33368(18) 0.03363(14)
O6 O 0.09435(14) 0.30990(12) 0.25630(9)
N3 N 0.01178(17) 0.11224(14) 0.12373(11)
O3 O 0.40565(14) 0.69010(12) 0.75630(9)
O4 O 0.20318(15) 0.66811(14) 0.80165(12)
N1 N 0.51178(17) 0.38776(14) 0.87627(11)
C5 C 0.47443(19) 0.48562(16) 0.83557(14)
H10 H 0.5302 0.5202 0.7924
C6 C 0.35825(19) 0.53733(16) 0.85432(14)
C7 C 0.27776(19) 0.48818(17) 0.91918(14)
H11 H 0.1971 0.5213 0.9330
C8 C 0.4341(2) 0.34170(16) 0.93961(13)
H12 H 0.4601 0.2737 0.9691
C10 C 0.3176(2) 0.38942(15) 0.96351(13)
C11 C 0.3167(2) 0.64071(16) 0.80095(13)
Zn2 Zn 0.33150(2) 0.801999(17) 0.673358(14)
Zn3 Zn 0.66850(2) 0.301999(17) 0.826642(14)
O1_2 O 0.21643(14) 0.74936(12) 0.57767(10)
O2_2 O 0.37788(16) 0.63223(15) 0.54395(13)
O4_2 O 0.29682(15) 0.33189(14) 0.30165(12)
O5_2 O 0.26704(15) 0.92755(12) 0.74884(10)
C1_2 C 0.1706(2) 0.98999(16) 0.75025(14)
C2_2 C 0.0618(2) 0.9721(2) 0.68492(18)
H2_2 H 0.0258 0.8961 0.6940
H3_2 H 0.0929 0.9793 0.6219
C5_2 C 0.02557(19) 0.51438(16) 0.33557(14)
C6_2 C 0.14175(19) 0.46267(16) 0.35432(14)
C7_2 C 0.22224(19) 0.51182(17) 0.41918(14)
H11_2 H 0.3029 0.4787 0.4330
C8_2 C 0.0659(2) 0.65830(16) 0.43961(13)
H12_2 H 0.0399 0.7263 0.4691
C9_2 C 0.2679(2) 0.66632(18) 0.53363(14)
C10_2 C 0.1824(2) 0.61058(15) 0.46351(13)
C11_2 C 0.1833(2) 0.35929(16) 0.30095(13)
N3_2 N 0.48822(17) 0.88776(14) 0.62373(11)
N1_2 N 0.98822(17) 0.61224(14) 0.37627(11)
H10_2 H 0.9698 0.4798 0.2924
Zn3_2 Zn 0.83150(2) 0.698001(17) 0.326642(14)
O3_2 O 0.59435(14) 0.19010(12) 0.74370(9)
O4_3 O 0.79682(15) 0.16811(14) 0.69835(12)
H10_3 H 0.4698 0.0202 0.7076
C6_3 C 0.64175(19) 0.03733(16) 0.64568(14)
H11_3 H 0.8029 0.0213 0.5670
C11_3 C 0.6833(2) 0.14071(16) 0.69905(13)
O1_3 O 0.71643(14) 0.75064(12) 0.42233(10)
O2_3 O 0.87788(16) 0.86777(15) 0.45605(13)
O5_3 O 0.76704(15) 0.57245(12) 0.25116(10)
N2 N 0.6657(2) 0.42670(16) 0.18850(12)
C1_3 C 0.6706(2) 0.51001(16) 0.24975(14)
C2_3 C 0.5618(2) 0.5279(2) 0.31508(18)
H1 H 0.4954 0.4708 0.3038
H2_3 H 0.5258 0.6039 0.3060
H3_3 H 0.5929 0.5207 0.3781
C3 C 0.5632(3) 0.3427(3) 0.1844(2)
H4 H 0.5795 0.2900 0.1338
H5 H 0.4812 0.3812 0.1744
H6 H 0.5600 0.3005 0.2421
C4 C 0.7738(3) 0.4101(3) 0.1268(2)
H7 H 0.7561 0.3461 0.0859
H8 H 0.8511 0.3943 0.1626
H9 H 0.7869 0.4790 0.0903
C5_3 C 0.52557(19) 0.98562(16) 0.66443(14)
C7_3 C 0.72224(19) 0.98818(17) 0.58082(14)
C8_3 C 0.5659(2) 0.84170(16) 0.56039(13)
H12_3 H 0.5399 0.7737 0.5309
C9_3 C 0.7679(2) 0.83368(18) 0.46637(14)
C10_3 C 0.6824(2) 0.88942(15) 0.53649(13)
O6_2 O 0.90565(14) 0.80990(12) 0.24370(9)
O1_4 O 0.78357(14) 0.24936(12) 0.92233(10)
O2_4 O 0.62212(16) 0.13223(15) 0.95605(13)
O5_4 O 0.73296(15) 0.42755(12) 0.75116(10)
N2_2 N 0.8343(2) 0.57330(16) 0.68850(12)
C1_4 C 0.8294(2) 0.48999(16) 0.74975(14)
C2_4 C 0.9382(2) 0.4721(2) 0.81508(18)
H2_4 H 0.9742 0.3961 0.8060
H3_4 H 0.9071 0.4793 0.8781
C3_2 C 0.9368(3) 0.6573(3) 0.6844(2)
H4_2 H 0.9205 0.7100 0.6338
H6_2 H 0.9400 0.6995 0.7421
C4_2 C 0.7262(3) 0.5899(3) 0.6268(2)
H7_2 H 0.7439 0.6539 0.5859
H8_2 H 0.6489 0.6057 0.6626
H9_2 H 0.7131 0.5210 0.5903
C9_4 C 0.7321(2) 0.16632(18) 0.96637(14)
O4_4 O 0.70318(15) 0.83189(14) 0.19835(12)
C6_4 C 0.85825(19) 0.96267(16) 0.14568(14)
H11_4 H 0.6971 0.9787 0.0670
C11_4 C 0.8167(2) 0.85929(16) 0.19905(13)
N2_3 N 0.3343(2) 0.92670(16) 0.31150(12)
H1_2 H 0.5046 0.9708 0.1962
C3_3 C 0.4368(3) 0.8427(3) 0.3156(2)
H4_3 H 0.4205 0.7900 0.3662
H5_2 H 0.5188 0.8812 0.3256
H6_3 H 0.4400 0.8005 0.2579
C4_3 C 0.2262(3) 0.9101(3) 0.3732(2)
H7_3 H 0.2439 0.8461 0.4141
H8_3 H 0.1489 0.8943 0.3374
H9_3 H 0.2131 0.9790 0.4097
N2_4 N 0.1657(2) 0.07330(16) 0.81150(12)
C3_4 C 0.0632(3) 0.1573(3) 0.8156(2)
H4_4 H 0.0795 0.2100 0.8662
H6_4 H 0.0600 0.1995 0.7579
C4_4 C 0.2738(3) 0.0899(3) 0.8732(2)
H7_4 H 0.2561 0.1539 0.9141
H8_4 H 0.3511 0.1057 0.8374
H9_4 H 0.2869 0.0210 0.9097
H1_3 H 0.9954 0.0292 0.6962
H5_3 H 0.9812 0.1188 0.8256
H1_4 H 0.0046 0.5292 0.8038
H5_4 H 0.0188 0.6188 0.6744
H10_4 H 0.0302 0.9798 0.2076
C5_4 C 0.97443(19) 0.01438(16) 0.16443(14)
C7_4 C 0.77776(19) 0.01182(17) 0.08082(14)
C8_4 C 0.9341(2) 0.15830(16) 0.06039(13)
H12_4 H 0.9601 0.2263 0.0309
C10_4 C 0.8176(2) 0.11058(15) 0.03649(13)
loop_
_geom_bond_atom_site_label_1
_geom_bond_atom_site_label_2
_geom_bond_site_symmetry_1
_geom_bond_site_symmetry_2
Zn1 O1 1_555 1_555
O1 C9 1_555 1_555
O2 C9 1_555 1_555
O5 Zn1 1_555 1_555
C1 O5 1_555 1_555
C2 C1 1_555 1_555
H2 C2 1_555 1_555
H3 C2 1_555 1_555
O6 Zn1 1_555 1_555
N3 Zn1 1_555 1_555
O3 C11 1_555 1_555
O4 C11 1_555 1_555
N1 C5 1_555 1_555
C5 H10 1_555 1_555
C6 C5 1_555 1_555
C7 C6 1_555 1_555
H11 C7 1_555 1_555
C8 N1 1_555 1_555
H12 C8 1_555 1_555
C10 C7 1_555 1_555
C11 C6 1_555 1_555
Zn2 O3 1_555 1_555
Zn3 N1 1_555 1_555
C8 C10 1_555 1_555
Zn2 O1_2 1_555 1_555
O1_2 C9_2 1_555 1_555
O2_2 C9_2 1_555 1_555
O6 C11_2 1_555 1_555
O4_2 C11_2 1_555 1_555
O5_2 Zn2 1_555 1_555
C1_2 O5_2 1_555 1_555
C2_2 C1_2 1_555 1_555
H2_2 C2_2 1_555 1_555
H3_2 C2_2 1_555 1_555
C6_2 C5_2 1_555 1_555
C7_2 C6_2 1_555 1_555
H11_2 C7_2 1_555 1_555
H12_2 C8_2 1_555 1_555
C9_2 C10_2 1_555 1_555
C10_2 C7_2 1_555 1_555
C11_2 C6_2 1_555 1_555
N3_2 Zn2 1_555 1_555
C8_2 C10_2 1_555 1_555
Zn3_2 N1_2 1_555 1_555
O3_2 C11_3 1_555 1_555
O4_3 C11_3 1_555 1_555
C11_3 C6_3 1_555 1_555
Zn3 O3_2 1_555 1_555
Zn3_2 O1_3 1_555 1_555
O1_3 C9_3 1_555 1_555
O2_3 C9_3 1_555 1_555
N3_2 C5_3 1_555 1_555
O5_3 Zn3_2 1_555 1_555
N2 C1_3 1_555 1_555
C1_3 O5_3 1_555 1_555
C2_3 C1_3 1_555 1_555
H1 C2_3 1_555 1_555
H2_3 C2_3 1_555 1_555
H3_3 C2_3 1_555 1_555
C3 N2 1_555 1_555
H4 C3 1_555 1_555
H5 C3 1_555 1_555
H6 C3 1_555 1_555
C4 N2 1_555 1_555
H7 C4 1_555 1_555
H8 C4 1_555 1_555
H9 C4 1_555 1_555
C8_3 N3_2 1_555 1_555
H12_3 C8_3 1_555 1_555
C9_3 C10_3 1_555 1_555
C10_3 C7_3 1_555 1_555
O6_2 Zn3_2 1_555 1_555
C8_3 C10_3 1_555 1_555
Zn3 O1_4 1_555 1_555
O1_4 C9_4 1_555 1_555
O2_4 C9_4 1_555 1_555
O5_4 Zn3 1_555 1_555
N2_2 C1_4 1_555 1_555
C1_4 O5_4 1_555 1_555
C2_4 C1_4 1_555 1_555
H2_4 C2_4 1_555 1_555
H3_4 C2_4 1_555 1_555
C3_2 N2_2 1_555 1_555
H4_2 C3_2 1_555 1_555
H6_2 C3_2 1_555 1_555
C4_2 N2_2 1_555 1_555
H7_2 C4_2 1_555 1_555
H8_2 C4_2 1_555 1_555
H9_2 C4_2 1_555 1_555
O6_2 C11_4 1_555 1_555
O4_4 C11_4 1_555 1_555
C11_4 C6_4 1_555 1_555
C3_3 N2_3 1_555 1_555
H4_3 C3_3 1_555 1_555
H5_2 C3_3 1_555 1_555
H6_3 C3_3 1_555 1_555
C4_3 N2_3 1_555 1_555
H7_3 C4_3 1_555 1_555
H8_3 C4_3 1_555 1_555
H9_3 C4_3 1_555 1_555
C3_4 N2_4 1_555 1_555
H4_4 C3_4 1_555 1_555
H6_4 C3_4 1_555 1_555
C4_4 N2_4 1_555 1_555
H7_4 C4_4 1_555 1_555
H8_4 C4_4 1_555 1_555
H9_4 C4_4 1_555 1_555
H12_4 C8_4 1_555 1_555
C10_4 C7_4 1_555 1_555
C8_4 C10_4 1_555 1_555

#END
