
###############################################################################
#
# This file contains modified crystal structure data generated from the
# MOF subset of the Cambridge Structural Database (CSD) v543 
# hosted by the Cambridge Crystallographic Data Centre (CCDC).
#
# This work is licensed under the Creative Commons
# Attribution-NonCommercial-ShareAlike 4.0 International License.
# To view a copy of this license, visit
# http://creativecommons.org/licenses/by-nc-sa/4.0/
# or send a letter to
# Creative Commons, PO Box 1866, Mountain View, CA 94042, USA.
#
# CIF created using the CSD Python API on 29 September 2022
# The structure has been converted into the P1 space group
# The structure has a 3D framework
# The original CSD entry BUKMUQ01 is in the orthorhombic crystal system
# The original CSD entry BUKMUQ01 is in a Sohncke space group
# The framework has been calculated to contain at least 10.0% void space
# The void calculation uses a probe of radius 1.32A, grid spacing 0.4
#
###############################################################################

data_BUKMUQ01
_chemical_formula_moiety         '(C44 H48 N8 O20 Zn4)n'
_symmetry_cell_setting           triclinic
_symmetry_space_group_name_H-M   'P 1'
_symmetry_Int_Tables_number      1
_space_group_name_Hall           'P 1'
loop_
_symmetry_equiv_pos_site_id
_symmetry_equiv_pos_as_xyz
1 x,y,z
_cell_length_a                   10.8285(4)
_cell_length_b                   11.1933(4)
_cell_length_c                   14.7990(6)
_cell_angle_alpha                90
_cell_angle_beta                 90
_cell_angle_gamma                90
_cell_volume                     1793.74
loop_
_atom_site_label
_atom_site_type_symbol
_atom_site_fract_x
_atom_site_fract_y
_atom_site_fract_z
N2 N 0.13187(19) 0.04988(19) 0.30360(14)
C10 C 0.0060(3) 0.0740(3) 0.3360(2)
H8 H 0.0093 0.1304 0.3866
C11 C 0.2276(3) 0.1292(3) 0.3357(2)
H10 H 0.2301 0.1270 0.4019
H11 H 0.2100 0.2109 0.3156
H12 H 0.3075 0.1036 0.3115
Zn1 Zn 0.34279(2) 0.81577(2) 0.158400(17)
O1 O 0.26005(14) 0.24718(15) 0.56238(11)
O2 O 0.10602(15) 0.37047(16) 0.52490(13)
O3 O 0.40304(14) 0.70387(15) 0.24790(11)
O4 O 0.21025(15) 0.69836(18) 0.29872(13)
N1 N 0.49701(16) 0.39689(16) 0.37997(12)
C1 C 0.46436(19) 0.49909(18) 0.33816(17)
H1 H 0.5220 0.5363 0.2988
C2 C 0.41604(19) 0.34601(18) 0.43704(14)
H2 H 0.4386 0.2739 0.4667
C3 C 0.30105(19) 0.3949(2) 0.45414(15)
C4 C 0.26720(19) 0.4995(2) 0.40980(16)
H3 H 0.1885 0.5345 0.4201
C5 C 0.3502(2) 0.55179(17) 0.35045(15)
C6 C 0.2120(2) 0.3356(2) 0.51874(16)
C7 C 0.3158(2) 0.6609(2) 0.29602(16)
O5 O 0.26266(14) 0.95797(14) 0.21071(12)
C8 C 0.1537(2) 0.97056(18) 0.23973(14)
C9 C 0.0489(2) 0.9003(2) 0.20232(18)
H4 H 0.0786 0.8493 0.1531
H6 H 0.0133 0.8503 0.2501
Zn2 Zn 0.65721(2) 0.31577(2) 0.341600(17)
Zn3 Zn 0.15721(2) 0.18423(2) 0.658400(17)
O6 O 0.23995(14) 0.75282(15) 0.06238(11)
N3 N 0.50299(16) 0.89689(16) 0.12003(12)
H1_2 H 0.0220 0.9637 0.7012
N3_2 N 0.00299(16) 0.60311(16) 0.87997(12)
O1_2 O 0.76005(14) 0.25282(15) 0.43762(11)
O2_2 O 0.60602(15) 0.12953(16) 0.47510(13)
N1_2 N 0.99701(16) 0.10311(16) 0.62003(12)
C1_2 C 0.96436(19) 0.00091(18) 0.66184(17)
C2_2 C 0.91604(19) 0.15399(18) 0.56296(14)
H2_2 H 0.9386 0.2261 0.5333
C3_2 C 0.80105(19) 0.1051(2) 0.54586(15)
C4_2 C 0.76720(19) 0.0005(2) 0.59020(16)
C6_2 C 0.7120(2) 0.1644(2) 0.48126(16)
Zn1_2 Zn 0.84279(2) 0.68423(2) 0.841600(17)
O3_2 O 0.90304(14) 0.79613(15) 0.75210(11)
O4_2 O 0.71025(15) 0.80164(18) 0.70128(13)
H3_2 H 0.6885 0.9655 0.5799
C5_2 C 0.8502(2) 0.94821(17) 0.64955(15)
C7_2 C 0.8158(2) 0.8391(2) 0.70398(16)
O5_2 O 0.76266(14) 0.54203(14) 0.78929(12)
C8_2 C 0.6537(2) 0.52944(18) 0.76027(14)
C9_2 C 0.5489(2) 0.5997(2) 0.79768(18)
H4_2 H 0.5786 0.6507 0.8469
H5 H 0.4856 0.5451 0.8208
H6_2 H 0.5133 0.6497 0.7499
N2_2 N 0.63187(19) 0.45012(19) 0.69640(14)
C10_2 C 0.5060(3) 0.4260(3) 0.6640(2)
H7 H 0.4569 0.3914 0.7131
H8_2 H 0.5093 0.3696 0.6134
H9 H 0.4678 0.5008 0.6439
C11_2 C 0.7276(3) 0.3708(3) 0.6643(2)
H10_2 H 0.7301 0.3730 0.5981
H11_2 H 0.7100 0.2891 0.6844
H12_2 H 0.8075 0.3964 0.6885
O6_2 O 0.73995(14) 0.74718(15) 0.93762(11)
O3_3 O 0.59696(14) 0.20387(15) 0.25210(11)
O4_3 O 0.78975(15) 0.19836(18) 0.20128(13)
H1_3 H 0.4780 0.0363 0.2012
H3_3 H 0.8115 0.0345 0.0799
C5_3 C 0.6498(2) 0.05179(17) 0.14955(15)
C7_3 C 0.6842(2) 0.1609(2) 0.20398(16)
O5_3 O 0.73734(14) 0.45797(14) 0.28929(12)
C8_3 C 0.8463(2) 0.47056(18) 0.26027(14)
C9_3 C 0.9511(2) 0.4003(2) 0.29768(18)
H4_3 H 0.9214 0.3493 0.3469
H6_3 H 0.9867 0.3503 0.2499
N2_3 N 0.86813(19) 0.54988(19) 0.19640(14)
C10_3 C 0.9940(3) 0.5740(3) 0.1640(2)
H8_3 H 0.9907 0.6304 0.1134
C11_3 C 0.7724(3) 0.6292(3) 0.1643(2)
H10_3 H 0.7699 0.6270 0.0981
H11_3 H 0.7900 0.7109 0.1844
H12_3 H 0.6925 0.6036 0.1885
C1_3 C 0.53564(19) 0.99909(18) 0.16184(17)
C2_3 C 0.58396(19) 0.84601(18) 0.06296(14)
H2_3 H 0.5614 0.7739 0.0333
C3_3 C 0.69895(19) 0.8949(2) 0.04586(15)
C4_3 C 0.73280(19) 0.9995(2) 0.09020(16)
O2_3 O 0.89398(15) 0.87047(16) 0.97510(13)
C6_3 C 0.7880(2) 0.8356(2) 0.98126(16)
O2_4 O 0.39398(15) 0.62953(16) 0.02490(13)
C6_4 C 0.2880(2) 0.6644(2) 0.01874(16)
O3_4 O 0.09696(14) 0.29613(15) 0.74790(11)
O4_4 O 0.28975(15) 0.30164(18) 0.79872(13)
C1_4 C 0.03564(19) 0.50091(18) 0.83816(17)
C2_4 C 0.08396(19) 0.65399(18) 0.93704(14)
H2_4 H 0.0614 0.7261 0.9667
C3_4 C 0.19895(19) 0.6051(2) 0.95414(15)
C4_4 C 0.23280(19) 0.5005(2) 0.90980(16)
H3_4 H 0.3115 0.4655 0.9201
C5_4 C 0.1498(2) 0.44821(17) 0.85045(15)
C7_4 C 0.1842(2) 0.3391(2) 0.79602(16)
O5_4 O 0.23734(14) 0.04203(14) 0.71071(12)
C8_4 C 0.3463(2) 0.02944(18) 0.73973(14)
C9_4 C 0.4511(2) 0.0997(2) 0.70232(18)
H4_4 H 0.4214 0.1507 0.6531
H5_2 H 0.5144 0.0451 0.6792
H6_4 H 0.4867 0.1497 0.7501
H9_2 H 0.5322 0.0008 0.8561
H1_4 H 0.9780 0.4637 0.7988
H7_2 H 0.9569 0.1086 0.2869
H5_3 H 0.9856 0.9549 0.1792
H9_3 H 0.9678 0.9992 0.3561
H5_4 H 0.0144 0.4549 0.3208
H7_3 H 0.0431 0.6086 0.2131
H9_4 H 0.0322 0.4992 0.1439
N2_4 N 0.36813(19) 0.95012(19) 0.80360(14)
C10_4 C 0.4940(3) 0.9260(3) 0.8360(2)
H7_4 H 0.5431 0.8914 0.7869
H8_4 H 0.4907 0.8696 0.8866
C11_4 C 0.2724(3) 0.8708(3) 0.8357(2)
H10_4 H 0.2699 0.8730 0.9019
H11_4 H 0.2900 0.7891 0.8156
H12_4 H 0.1925 0.8964 0.8115
loop_
_geom_bond_atom_site_label_1
_geom_bond_atom_site_label_2
_geom_bond_site_symmetry_1
_geom_bond_site_symmetry_2
C10 N2 1_555 1_555
H8 C10 1_555 1_555
C11 N2 1_555 1_555
H10 C11 1_555 1_555
H11 C11 1_555 1_555
H12 C11 1_555 1_555
Zn1 O3 1_555 1_555
O1 C6 1_555 1_555
O2 C6 1_555 1_555
O3 C7 1_555 1_555
O4 C7 1_555 1_555
N1 C1 1_555 1_555
C1 H1 1_555 1_555
C2 N1 1_555 1_555
H2 C2 1_555 1_555
C3 C2 1_555 1_555
C4 C3 1_555 1_555
H3 C4 1_555 1_555
C5 C1 1_555 1_555
C6 C3 1_555 1_555
C7 C5 1_555 1_555
O5 Zn1 1_555 1_555
C8 O5 1_555 1_555
C9 C8 1_555 1_555
H4 C9 1_555 1_555
H6 C9 1_555 1_555
Zn2 N1 1_555 1_555
Zn3 O1 1_555 1_555
O6 Zn1 1_555 1_555
N3 Zn1 1_555 1_555
C4 C5 1_555 1_555
O1_2 C6_2 1_555 1_555
O2_2 C6_2 1_555 1_555
N1_2 C1_2 1_555 1_555
C2_2 N1_2 1_555 1_555
H2_2 C2_2 1_555 1_555
C3_2 C2_2 1_555 1_555
C4_2 C3_2 1_555 1_555
C6_2 C3_2 1_555 1_555
Zn2 O1_2 1_555 1_555
Zn1_2 O3_2 1_555 1_555
O3_2 C7_2 1_555 1_555
O4_2 C7_2 1_555 1_555
C7_2 C5_2 1_555 1_555
O5_2 Zn1_2 1_555 1_555
C8_2 O5_2 1_555 1_555
C9_2 C8_2 1_555 1_555
H4_2 C9_2 1_555 1_555
H5 C9_2 1_555 1_555
H6_2 C9_2 1_555 1_555
N2_2 C8_2 1_555 1_555
C10_2 N2_2 1_555 1_555
H7 C10_2 1_555 1_555
H8_2 C10_2 1_555 1_555
H9 C10_2 1_555 1_555
C11_2 N2_2 1_555 1_555
H10_2 C11_2 1_555 1_555
H11_2 C11_2 1_555 1_555
H12_2 C11_2 1_555 1_555
O6_2 Zn1_2 1_555 1_555
Zn2 O3_3 1_555 1_555
O3_3 C7_3 1_555 1_555
O4_3 C7_3 1_555 1_555
C7_3 C5_3 1_555 1_555
O5_3 Zn2 1_555 1_555
C8_3 O5_3 1_555 1_555
C9_3 C8_3 1_555 1_555
H4_3 C9_3 1_555 1_555
H6_3 C9_3 1_555 1_555
N2_3 C8_3 1_555 1_555
C10_3 N2_3 1_555 1_555
H8_3 C10_3 1_555 1_555
C11_3 N2_3 1_555 1_555
H10_3 C11_3 1_555 1_555
H11_3 C11_3 1_555 1_555
H12_3 C11_3 1_555 1_555
N3 C1_3 1_555 1_555
C2_3 N3 1_555 1_555
H2_3 C2_3 1_555 1_555
C3_3 C2_3 1_555 1_555
C4_3 C3_3 1_555 1_555
O6_2 C6_3 1_555 1_555
O2_3 C6_3 1_555 1_555
O6 C6_4 1_555 1_555
O2_4 C6_4 1_555 1_555
Zn3 O3_4 1_555 1_555
O3_4 C7_4 1_555 1_555
O4_4 C7_4 1_555 1_555
N3_2 C1_4 1_555 1_555
C2_4 N3_2 1_555 1_555
H2_4 C2_4 1_555 1_555
C3_4 C2_4 1_555 1_555
C4_4 C3_4 1_555 1_555
H3_4 C4_4 1_555 1_555
C5_4 C1_4 1_555 1_555
C7_4 C5_4 1_555 1_555
O5_4 Zn3 1_555 1_555
C8_4 O5_4 1_555 1_555
C9_4 C8_4 1_555 1_555
H4_4 C9_4 1_555 1_555
H5_2 C9_4 1_555 1_555
H6_4 C9_4 1_555 1_555
C4_4 C5_4 1_555 1_555
C10_4 N2_4 1_555 1_555
H7_4 C10_4 1_555 1_555
H8_4 C10_4 1_555 1_555
C11_4 N2_4 1_555 1_555
H10_4 C11_4 1_555 1_555
H11_4 C11_4 1_555 1_555
H12_4 C11_4 1_555 1_555

#END
