
###############################################################################
#
# This file contains modified crystal structure data generated from the
# MOF subset of the Cambridge Structural Database (CSD) v543 
# hosted by the Cambridge Crystallographic Data Centre (CCDC).
#
# This work is licensed under the Creative Commons
# Attribution-NonCommercial-ShareAlike 4.0 International License.
# To view a copy of this license, visit
# http://creativecommons.org/licenses/by-nc-sa/4.0/
# or send a letter to
# Creative Commons, PO Box 1866, Mountain View, CA 94042, USA.
#
# CIF created using the CSD Python API on 29 September 2022
# The structure has been converted into the P1 space group
# The structure has a 3D framework
# The original CSD entry BUKRUW02 is in the cubic crystal system
# The original CSD entry BUKRUW02 is in a Sohncke space group
# The framework has been calculated to contain at least 10.0% void space
# The void calculation uses a probe of radius 1.32A, grid spacing 0.4
#
###############################################################################

data_BUKRUW02
_chemical_formula_moiety         '(C96 H48 N48 O53 Zn30)n'
_symmetry_cell_setting           triclinic
_symmetry_space_group_name_H-M   'P 1'
_symmetry_Int_Tables_number      1
_space_group_name_Hall           'P 1'
loop_
_symmetry_equiv_pos_site_id
_symmetry_equiv_pos_as_xyz
1 x,y,z
_cell_length_a                   20.1616(2)
_cell_length_b                   20.1616(2)
_cell_length_c                   20.1616(2)
_cell_angle_alpha                90
_cell_angle_beta                 90
_cell_angle_gamma                90
_cell_volume                     8195.49
loop_
_atom_site_label
_atom_site_type_symbol
_atom_site_fract_x
_atom_site_fract_y
_atom_site_fract_z
Zn7 Zn 0.19584(5) 0.19113(5) 0.69746(5)
Zn8 Zn 0.19719(5) 0.19618(5) 0.30799(5)
C17 C 0.2902(4) 0.2928(3) 0.4648(4)
H9 H 0.3159 0.3288 0.4810
C18 C 0.2597(3) 0.2471(4) 0.5029(3)
C19 C 0.2639(5) 0.2365(6) 0.5749(5)
C20 C 0.2077(6) 0.2223(7) 0.4674(6)
H10 H 0.1661 0.2060 0.4823
C21 C 0.2711(8) 0.0530(9) 0.2091(7)
H11 H 0.2867 0.0495 0.1648
C22 C 0.2061(6) 0.0293(10) 0.3110(9)
H12 H 0.1843 0.0109 0.3485
N9 N 0.2333(3) 0.2275(3) 0.4016(4)
N10 N 0.2783(3) 0.2793(3) 0.3978(2)
N11 N 0.2718(3) 0.1016(3) 0.2298(3)
N12 N 0.2216(3) 0.1062(3) 0.2800(3)
O11 O 0.2245(3) 0.2103(3) 0.6071(4)
O12 O 0.2958(4) 0.2735(4) 0.6074(3)
Zn13 Zn 0.30887(5) 0.30254(5) 0.69584(5)
Zn15 Zn 0.30799(5) 0.19719(5) 0.19618(5)
Zn18 Zn 0.31025(5) 0.31025(5) 0.31025(5)
N16 N 0.1016(3) 0.2298(3) 0.2718(3)
O15 O 0.2550(3) 0.2450(3) 0.7550(3)
O17 O 0.2530(2) 0.2530(2) 0.2530(2)
O20 O 0.1074(3) 0.2042(4) 0.7265(4)
O22 O 0.2082(4) 0.1037(3) 0.7019(5)
O24 O 0.2187(5) 0.1132(3) 0.7905(4)
C7 C 0.2480(4) 0.0021(5) 0.7364(5)
C8 C 0.2208(10) 0.0758(6) 0.7313(10)
Zn20 Zn 0.30717(6) 0.19283(6) 0.80717(6)
Zn1 Zn 0.30416(5) 0.80887(5) 0.19746(5)
Zn4 Zn 0.19283(6) 0.80717(6) 0.30717(6)
C2 C 0.2403(3) 0.7529(4) 0.0029(3)
C3 C 0.2361(5) 0.7635(6) 0.0749(5)
O1 O 0.2450(3) 0.7550(3) 0.2550(3)
O3 O 0.2755(3) 0.7897(3) 0.1071(4)
O4 O 0.2042(4) 0.7265(4) 0.1074(3)
C15 C 0.0021(5) 0.7364(5) 0.2480(4)
C16 C 0.0758(6) 0.7313(10) 0.2208(10)
O9 O 0.1037(3) 0.7019(5) 0.2082(4)
O10 O 0.1132(3) 0.7905(4) 0.2187(5)
C23 C 0.2520(4) 0.9979(5) 0.2364(5)
C24 C 0.2792(10) 0.9242(6) 0.2313(10)
O13 O 0.2918(4) 0.8963(3) 0.2019(5)
O14 O 0.2813(5) 0.8868(3) 0.2905(4)
Zn11 Zn 0.30254(5) 0.69584(5) 0.30887(5)
Zn12 Zn 0.19113(5) 0.69746(5) 0.19584(5)
O21 O 0.3926(3) 0.7958(4) 0.2265(4)
O25 O 0.2095(4) 0.7187(5) 0.3868(3)
Zn2 Zn 0.30281(5) 0.80382(5) 0.80799(5)
Zn3 Zn 0.18975(5) 0.68975(5) 0.81025(5)
C1 C 0.2098(4) 0.7072(3) 0.9648(4)
H1 H 0.1841 0.6712 0.9810
C4 C 0.2923(6) 0.7777(7) 0.9674(6)
H2 H 0.3339 0.7940 0.9823
C5 C 0.2289(8) 0.9470(9) 0.7091(7)
H3 H 0.2133 0.9505 0.6648
C6 C 0.2939(6) 0.9707(10) 0.8110(9)
H4 H 0.3157 0.9891 0.8485
N1 N 0.2667(3) 0.7725(3) 0.9016(4)
N2 N 0.2217(3) 0.7207(3) 0.8978(2)
N3 N 0.2282(3) 0.8984(3) 0.7298(3)
N4 N 0.2784(3) 0.8938(3) 0.7800(3)
O2 O 0.2470(2) 0.7470(2) 0.7530(2)
Zn16 Zn 0.19201(5) 0.80281(5) 0.69618(5)
Zn17 Zn 0.30382(5) 0.69201(5) 0.69719(5)
N13 N 0.1022(2) 0.7217(3) 0.7793(3)
N14 N 0.2207(3) 0.6022(2) 0.7783(3)
N17 N 0.3984(3) 0.7702(3) 0.7718(3)
Zn5 Zn 0.80887(5) 0.19746(5) 0.30416(5)
C10 C 0.7529(4) 0.0029(3) 0.2403(3)
C11 C 0.7635(6) 0.0749(5) 0.2361(5)
O7 O 0.7897(3) 0.1071(4) 0.2755(3)
O8 O 0.7265(4) 0.1074(3) 0.2042(4)
Zn10 Zn 0.69746(5) 0.19584(5) 0.19113(5)
O16 O 0.7550(3) 0.2550(3) 0.2450(3)
O19 O 0.7958(4) 0.2265(4) 0.3926(3)
O23 O 0.8963(3) 0.2019(5) 0.2918(4)
O26 O 0.8868(3) 0.2905(4) 0.2813(5)
Zn6 Zn 0.80382(5) 0.80799(5) 0.30281(5)
C9 C 0.7072(3) 0.9648(4) 0.2098(4)
H5 H 0.6712 0.9810 0.1841
C12 C 0.7777(7) 0.9674(6) 0.2923(6)
H6 H 0.7940 0.9823 0.3339
C13 C 0.9470(9) 0.7091(7) 0.2289(8)
H7 H 0.9505 0.6648 0.2133
C14 C 0.9707(10) 0.8110(9) 0.2939(6)
H8 H 0.9891 0.8485 0.3157
N5 N 0.7725(3) 0.9016(4) 0.2667(3)
N6 N 0.7207(3) 0.8978(2) 0.2217(3)
N7 N 0.8984(3) 0.7298(3) 0.2282(3)
N8 N 0.8938(3) 0.7800(3) 0.2784(3)
Zn14 Zn 0.80281(5) 0.69618(5) 0.19201(5)
Zn19 Zn 0.68975(5) 0.81025(5) 0.18975(5)
N15 N 0.7702(3) 0.7718(3) 0.3984(3)
O18 O 0.7470(2) 0.7530(2) 0.2470(2)
Zn6_2 Zn 0.69618(5) 0.19201(5) 0.80281(5)
C9_2 C 0.7928(3) 0.0352(4) 0.7098(4)
H5_2 H 0.8288 0.0190 0.6841
C12_2 C 0.7223(7) 0.0326(6) 0.7923(6)
H6_2 H 0.7060 0.0177 0.8339
C13_2 C 0.5530(9) 0.2909(7) 0.7289(8)
H7_2 H 0.5495 0.3352 0.7133
C14_2 C 0.5293(10) 0.1890(9) 0.7939(6)
H8_2 H 0.5109 0.1515 0.8157
C15_2 C 0.4979(5) 0.2636(5) 0.7480(4)
C16_2 C 0.4242(6) 0.2687(10) 0.7208(10)
N5_2 N 0.7275(3) 0.0984(4) 0.7667(3)
N6_2 N 0.7793(3) 0.1022(2) 0.7217(3)
N7_2 N 0.6016(3) 0.2702(3) 0.7282(3)
N8_2 N 0.6062(3) 0.2200(3) 0.7784(3)
O9_2 O 0.3963(3) 0.2981(5) 0.7082(4)
O10_2 O 0.3868(3) 0.2095(4) 0.7187(5)
Zn11_2 Zn 0.19746(5) 0.30416(5) 0.80887(5)
Zn14_2 Zn 0.69719(5) 0.30382(5) 0.69201(5)
Zn17_2 Zn 0.19618(5) 0.30799(5) 0.19719(5)
Zn19_2 Zn 0.81025(5) 0.18975(5) 0.68975(5)
N13_2 N 0.3978(2) 0.2783(3) 0.2793(3)
N14_2 N 0.2793(3) 0.3978(2) 0.2783(3)
N15_2 N 0.7298(3) 0.2282(3) 0.8984(3)
O18_2 O 0.7530(2) 0.2470(2) 0.7470(2)
O25_2 O 0.2905(4) 0.2813(5) 0.8868(3)
Zn5_2 Zn 0.69113(5) 0.80254(5) 0.80416(5)
C10_2 C 0.7471(4) 0.9971(3) 0.7403(3)
C11_2 C 0.7365(6) 0.9251(5) 0.7361(5)
O7_2 O 0.7103(3) 0.8929(4) 0.7755(3)
O8_2 O 0.7735(4) 0.8926(3) 0.7042(4)
Zn10_2 Zn 0.80254(5) 0.80416(5) 0.69113(5)
O16_2 O 0.7450(3) 0.7450(3) 0.7450(3)
O19_2 O 0.7042(4) 0.7735(4) 0.8926(3)
O23_2 O 0.6037(3) 0.7981(5) 0.7918(4)
O26_2 O 0.6132(3) 0.7095(4) 0.7813(5)
C9_3 C 0.2928(3) 0.4648(4) 0.2902(4)
H5_3 H 0.3288 0.4810 0.3159
C10_3 C 0.2471(4) 0.5029(3) 0.2597(3)
C11_3 C 0.2365(6) 0.5749(5) 0.2639(5)
C12_3 C 0.2223(7) 0.4674(6) 0.2077(6)
H6_3 H 0.2060 0.4823 0.1661
C13_3 C 0.0530(9) 0.2091(7) 0.2711(8)
H7_3 H 0.0495 0.1648 0.2867
C14_3 C 0.0293(10) 0.3110(9) 0.2061(6)
H8_3 H 0.0109 0.3485 0.1843
N5_3 N 0.2275(3) 0.4016(4) 0.2333(3)
N8_3 N 0.1062(3) 0.2800(3) 0.2216(3)
O7_3 O 0.2103(3) 0.6071(4) 0.2245(3)
O8_3 O 0.2735(4) 0.6074(3) 0.2958(4)
N15_3 N 0.2298(3) 0.2718(3) 0.1016(3)
Zn1_2 Zn 0.69584(5) 0.30887(5) 0.30254(5)
Zn4_2 Zn 0.80717(6) 0.30717(6) 0.19283(6)
C1_2 C 0.7902(4) 0.2072(3) 0.5352(4)
H1_2 H 0.8159 0.1712 0.5190
C2_2 C 0.7597(3) 0.2529(4) 0.4971(3)
C3_2 C 0.7639(5) 0.2635(6) 0.4251(5)
C4_2 C 0.7077(6) 0.2777(7) 0.5326(6)
H2_2 H 0.6661 0.2940 0.5177
C5_2 C 0.7711(8) 0.4470(9) 0.7909(7)
H3_2 H 0.7867 0.4505 0.8352
C6_2 C 0.7061(6) 0.4707(10) 0.6890(9)
H4_2 H 0.6843 0.4891 0.6515
C7_2 C 0.7520(4) 0.5021(5) 0.7636(5)
C8_2 C 0.7792(10) 0.5758(6) 0.7687(10)
N1_2 N 0.7333(3) 0.2725(3) 0.5984(4)
N2_2 N 0.7783(3) 0.2207(3) 0.6022(2)
N3_2 N 0.7718(3) 0.3984(3) 0.7702(3)
N4_2 N 0.7216(3) 0.3938(3) 0.7200(3)
O3_2 O 0.7245(3) 0.2897(3) 0.3929(4)
O5 O 0.7918(4) 0.6037(3) 0.7981(5)
O6 O 0.7813(5) 0.6132(3) 0.7095(4)
C15_3 C 0.9979(5) 0.2364(5) 0.2520(4)
C16_3 C 0.9242(6) 0.2313(10) 0.2792(10)
C17_2 C 0.7098(4) 0.7928(3) 0.0352(4)
H9_2 H 0.6841 0.8288 0.0190
C20_2 C 0.7923(6) 0.7223(7) 0.0326(6)
H10_2 H 0.8339 0.7060 0.0177
C21_2 C 0.7289(8) 0.5530(9) 0.2909(7)
H11_2 H 0.7133 0.5495 0.3352
C22_2 C 0.7939(6) 0.5293(10) 0.1890(9)
H12_2 H 0.8157 0.5109 0.1515
C23_2 C 0.7480(4) 0.4979(5) 0.2636(5)
C24_2 C 0.7208(10) 0.4242(6) 0.2687(10)
N9_2 N 0.7667(3) 0.7275(3) 0.0984(4)
N10_2 N 0.7217(3) 0.7793(3) 0.1022(2)
N11_2 N 0.7282(3) 0.6016(3) 0.2702(3)
N12_2 N 0.7784(3) 0.6062(3) 0.2200(3)
O13_2 O 0.7082(4) 0.3963(3) 0.2981(5)
O14_2 O 0.7187(5) 0.3868(3) 0.2095(4)
Zn9 Zn 0.80416(5) 0.69113(5) 0.80254(5)
Zn15_2 Zn 0.69201(5) 0.69719(5) 0.30382(5)
Zn16_2 Zn 0.80799(5) 0.30281(5) 0.80382(5)
Zn20_2 Zn 0.69283(6) 0.69283(6) 0.69283(6)
N13_3 N 0.8978(2) 0.2217(3) 0.7207(3)
O21_2 O 0.6074(3) 0.2958(4) 0.2735(4)
O25_3 O 0.7905(4) 0.2187(5) 0.1132(3)
C18_2 C 0.7403(3) 0.7471(4) 0.9971(3)
C19_2 C 0.7361(5) 0.7365(6) 0.9251(5)
O11_2 O 0.7755(3) 0.7103(3) 0.8929(4)
O20_2 O 0.8926(3) 0.7042(4) 0.7735(4)
N13_4 N 0.6022(2) 0.7783(3) 0.2207(3)
C9_4 C 0.2072(3) 0.5352(4) 0.7902(4)
H5_4 H 0.1712 0.5190 0.8159
C10_4 C 0.2529(4) 0.4971(3) 0.7597(3)
C11_4 C 0.2635(6) 0.4251(5) 0.7639(5)
C12_4 C 0.2777(7) 0.5326(6) 0.7077(6)
H6_4 H 0.2940 0.5177 0.6661
C13_4 C 0.4470(9) 0.7909(7) 0.7711(8)
H7_4 H 0.4505 0.8352 0.7867
C14_4 C 0.4707(10) 0.6890(9) 0.7061(6)
H8_4 H 0.4891 0.6515 0.6843
C15_4 C 0.5021(5) 0.7636(5) 0.7520(4)
C16_4 C 0.5758(6) 0.7687(10) 0.7792(10)
N5_4 N 0.2725(3) 0.5984(4) 0.7333(3)
N8_4 N 0.3938(3) 0.7200(3) 0.7216(3)
O7_4 O 0.2897(3) 0.3929(4) 0.7245(3)
O8_4 O 0.2265(4) 0.3926(3) 0.7958(4)
N15_4 N 0.2702(3) 0.7282(3) 0.6016(3)
O25_4 O 0.7095(4) 0.7813(5) 0.6132(3)
C17_3 C 0.4648(4) 0.2902(4) 0.2928(3)
H9_3 H 0.4810 0.3159 0.3288
C18_3 C 0.5029(3) 0.2597(3) 0.2471(4)
C19_3 C 0.5749(5) 0.2639(5) 0.2365(6)
C20_3 C 0.4674(6) 0.2077(6) 0.2223(7)
H10_3 H 0.4823 0.1661 0.2060
C21_3 C 0.2091(7) 0.2711(8) 0.0530(9)
H11_3 H 0.1648 0.2867 0.0495
C22_3 C 0.3110(9) 0.2061(6) 0.0293(10)
H12_3 H 0.3485 0.1843 0.0109
N9_3 N 0.4016(4) 0.2333(3) 0.2275(3)
N12_3 N 0.2800(3) 0.2216(3) 0.1062(3)
O11_3 O 0.6071(4) 0.2245(3) 0.2103(3)
O22_2 O 0.7019(5) 0.2082(4) 0.1037(3)
C2_3 C 0.0029(3) 0.2403(3) 0.7529(4)
C3_3 C 0.0749(5) 0.2361(5) 0.7635(6)
O3_3 O 0.1071(4) 0.2755(3) 0.7897(3)
C23_3 C 0.2364(5) 0.2520(4) 0.9979(5)
C24_3 C 0.2313(10) 0.2792(10) 0.9242(6)
O13_3 O 0.2019(5) 0.2918(4) 0.8963(3)
C7_3 C 0.7364(5) 0.2480(4) 0.0021(5)
C8_3 C 0.7313(10) 0.2208(10) 0.0758(6)
C1_3 C 0.9648(4) 0.2098(4) 0.7072(3)
H1_3 H 0.9810 0.1841 0.6712
C4_3 C 0.9674(6) 0.2923(6) 0.7777(7)
H2_3 H 0.9823 0.3339 0.7940
C5_3 C 0.7091(7) 0.2289(8) 0.9470(9)
H3_3 H 0.6648 0.2133 0.9505
C6_3 C 0.8110(9) 0.2939(6) 0.9707(10)
H4_3 H 0.8485 0.3157 0.9891
N1_3 N 0.9016(4) 0.2667(3) 0.7725(3)
N4_3 N 0.7800(3) 0.2784(3) 0.8938(3)
C1_4 C 0.5352(4) 0.7902(4) 0.2072(3)
H1_4 H 0.5190 0.8159 0.1712
C2_4 C 0.4971(3) 0.7597(3) 0.2529(4)
C3_4 C 0.4251(5) 0.7639(5) 0.2635(6)
C4_4 C 0.5326(6) 0.7077(6) 0.2777(7)
H2_4 H 0.5177 0.6661 0.2940
C5_4 C 0.7909(7) 0.7711(8) 0.4470(9)
H3_4 H 0.8352 0.7867 0.4505
C6_4 C 0.6890(9) 0.7061(6) 0.4707(10)
H4_4 H 0.6515 0.6843 0.4891
C7_4 C 0.7636(5) 0.7520(4) 0.5021(5)
C8_4 C 0.7687(10) 0.7792(10) 0.5758(6)
N1_4 N 0.5984(4) 0.7333(3) 0.2725(3)
N4_4 N 0.7200(3) 0.7216(3) 0.3938(3)
O3_4 O 0.3929(4) 0.7245(3) 0.2897(3)
O5_2 O 0.7981(5) 0.7918(4) 0.6037(3)
C17_4 C 0.0352(4) 0.7098(4) 0.7928(3)
H9_4 H 0.0190 0.6841 0.8288
C20_4 C 0.0326(6) 0.7923(6) 0.7223(7)
H10_4 H 0.0177 0.8339 0.7060
C21_4 C 0.2909(7) 0.7289(8) 0.5530(9)
H11_4 H 0.3352 0.7133 0.5495
C22_4 C 0.1890(9) 0.7939(6) 0.5293(10)
H12_4 H 0.1515 0.8157 0.5109
C23_4 C 0.2636(5) 0.7480(4) 0.4979(5)
C24_4 C 0.2687(10) 0.7208(10) 0.4242(6)
N9_4 N 0.0984(4) 0.7667(3) 0.7275(3)
N12_4 N 0.2200(3) 0.7784(3) 0.6062(3)
O13_4 O 0.2981(5) 0.7082(4) 0.3963(3)
C18_4 C 0.9971(3) 0.7403(3) 0.7471(4)
C19_4 C 0.9251(5) 0.7361(5) 0.7365(6)
O11_4 O 0.8929(4) 0.7755(3) 0.7103(3)
loop_
_geom_bond_atom_site_label_1
_geom_bond_atom_site_label_2
_geom_bond_site_symmetry_1
_geom_bond_site_symmetry_2
Zn7 O11 1_555 1_555
Zn8 N9 1_555 1_555
C17 H9 1_555 1_555
C18 C17 1_555 1_555
C19 C18 1_555 1_555
C20 C18 1_555 1_555
H10 C20 1_555 1_555
C21 H11 1_555 1_555
C22 H12 1_555 1_555
N9 C20 1_555 1_555
N10 C17 1_555 1_555
N11 C21 1_555 1_555
N12 Zn8 1_555 1_555
O11 C19 1_555 1_555
O12 C19 1_555 1_555
Zn13 O12 1_555 1_555
Zn15 N11 1_555 1_555
Zn18 N10 1_555 1_555
N16 Zn8 1_555 1_555
O15 Zn7 1_555 1_555
O17 Zn8 1_555 1_555
O20 Zn7 1_555 1_555
O22 Zn7 1_555 1_555
O24 Zn7 1_555 1_555
C22 N12 1_555 1_555
N9 N10 1_555 1_555
N11 N12 1_555 1_555
Zn13 O15 1_555 1_555
Zn15 O17 1_555 1_555
Zn18 O17 1_555 1_555
C8 C7 1_555 1_555
O22 C8 1_555 1_555
O24 C8 1_555 1_555
Zn20 O24 1_555 1_555
Zn1 O1 1_555 1_555
Zn4 O1 1_555 1_555
C3 C2 1_555 1_555
O1 Zn11 1_555 1_555
O3 Zn1 1_555 1_555
O4 C3 1_555 1_555
C16 C15 1_555 1_555
O9 C16 1_555 1_555
O10 Zn4 1_555 1_555
C24 C23 1_555 1_555
O13 Zn1 1_555 1_555
O14 Zn1 1_555 1_555
Zn11 O25 1_555 1_555
Zn12 O1 1_555 1_555
O21 Zn1 1_555 1_555
O25 Zn4 1_555 1_555
Zn4 O14 1_555 1_555
C3 O3 1_555 1_555
O4 Zn12 1_555 1_555
C16 O10 1_555 1_555
O9 Zn12 1_555 1_555
O10 Zn12 1_555 1_555
C24 O13 1_555 1_555
C24 O14 1_555 1_555
Zn2 N1 1_555 1_555
Zn3 N2 1_555 1_555
C1 H1 1_555 1_555
H2 C4 1_555 1_555
C5 H3 1_555 1_555
C6 H4 1_555 1_555
N1 C4 1_555 1_555
N2 C1 1_555 1_555
N3 C5 1_555 1_555
N4 Zn2 1_555 1_555
O2 Zn2 1_555 1_555
Zn16 N3 1_555 1_555
Zn17 O2 1_555 1_555
N13 Zn3 1_555 1_555
N14 Zn3 1_555 1_555
N17 Zn2 1_555 1_555
Zn3 O2 1_555 1_555
C6 N4 1_555 1_555
N1 N2 1_555 1_555
N3 N4 1_555 1_555
O2 Zn16 1_555 1_555
Zn5 O7 1_555 1_555
C11 C10 1_555 1_555
O7 C11 1_555 1_555
O8 C11 1_555 1_555
Zn10 O8 1_555 1_555
O16 Zn5 1_555 1_555
O19 Zn5 1_555 1_555
O23 Zn5 1_555 1_555
O26 Zn5 1_555 1_555
Zn10 O16 1_555 1_555
Zn6 N5 1_555 1_555
C9 H5 1_555 1_555
H6 C12 1_555 1_555
C13 H7 1_555 1_555
C14 H8 1_555 1_555
N5 C12 1_555 1_555
N6 C9 1_555 1_555
N7 C13 1_555 1_555
N8 Zn6 1_555 1_555
Zn14 N7 1_555 1_555
Zn19 N6 1_555 1_555
N15 Zn6 1_555 1_555
O18 Zn6 1_555 1_555
C14 N8 1_555 1_555
N5 N6 1_555 1_555
N7 N8 1_555 1_555
Zn14 O18 1_555 1_555
Zn19 O18 1_555 1_555
Zn20 O15 1_555 1_555
O15 Zn11_2 1_555 1_555
Zn6_2 N5_2 1_555 1_555
C9_2 H5_2 1_555 1_555
H6_2 C12_2 1_555 1_555
C13_2 H7_2 1_555 1_555
C14_2 H8_2 1_555 1_555
C15_2 C13_2 1_555 1_555
C16_2 C15_2 1_555 1_555
N5_2 C12_2 1_555 1_555
N6_2 C9_2 1_555 1_555
N7_2 C13_2 1_555 1_555
N8_2 Zn6_2 1_555 1_555
O9_2 C16_2 1_555 1_555
O10_2 Zn20 1_555 1_555
Zn11_2 O25_2 1_555 1_555
Zn14_2 N7_2 1_555 1_555
Zn17_2 O17 1_555 1_555
Zn19_2 N6_2 1_555 1_555
N13_2 Zn18 1_555 1_555
N14_2 Zn18 1_555 1_555
N15_2 Zn6_2 1_555 1_555
O18_2 Zn6_2 1_555 1_555
O25_2 Zn20 1_555 1_555
C14_2 C15_2 1_555 1_555
C14_2 N8_2 1_555 1_555
C16_2 O10_2 1_555 1_555
N5_2 N6_2 1_555 1_555
N7_2 N8_2 1_555 1_555
O9_2 Zn13 1_555 1_555
O10_2 Zn13 1_555 1_555
Zn14_2 O18_2 1_555 1_555
Zn19_2 O18_2 1_555 1_555
Zn5_2 O7_2 1_555 1_555
C11_2 C10_2 1_555 1_555
O7_2 C11_2 1_555 1_555
O8_2 C11_2 1_555 1_555
Zn10_2 O8_2 1_555 1_555
O16_2 Zn5_2 1_555 1_555
O19_2 Zn5_2 1_555 1_555
O23_2 Zn5_2 1_555 1_555
O26_2 Zn5_2 1_555 1_555
Zn10_2 O16_2 1_555 1_555
Zn12 O7_3 1_555 1_555
Zn17_2 N5_3 1_555 1_555
C9_3 H5_3 1_555 1_555
C10_3 C9_3 1_555 1_555
C11_3 C10_3 1_555 1_555
C12_3 C10_3 1_555 1_555
H6_3 C12_3 1_555 1_555
C13_3 H7_3 1_555 1_555
C14_3 H8_3 1_555 1_555
N5_3 C12_3 1_555 1_555
N14_2 C9_3 1_555 1_555
N16 C13_3 1_555 1_555
N8_3 Zn17_2 1_555 1_555
O7_3 C11_3 1_555 1_555
O8_3 C11_3 1_555 1_555
Zn11 O8_3 1_555 1_555
N15_3 Zn17_2 1_555 1_555
C14_3 N8_3 1_555 1_555
N5_3 N14_2 1_555 1_555
N16 N8_3 1_555 1_555
Zn1_2 O16 1_555 1_555
Zn14_2 N1_2 1_555 1_555
Zn19_2 N2_2 1_555 1_555
Zn4_2 O16 1_555 1_555
C1_2 H1_2 1_555 1_555
C2_2 C1_2 1_555 1_555
C3_2 C2_2 1_555 1_555
C4_2 C2_2 1_555 1_555
H2_2 C4_2 1_555 1_555
C5_2 H3_2 1_555 1_555
C6_2 H4_2 1_555 1_555
C7_2 C5_2 1_555 1_555
C8_2 C7_2 1_555 1_555
N1_2 C4_2 1_555 1_555
N2_2 C1_2 1_555 1_555
N3_2 C5_2 1_555 1_555
N4_2 Zn14_2 1_555 1_555
O3_2 Zn1_2 1_555 1_555
O19 C3_2 1_555 1_555
O5 C8_2 1_555 1_555
O6 C8_2 1_555 1_555
C16_3 C15_3 1_555 1_555
O23 C16_3 1_555 1_555
O26 Zn4_2 1_555 1_555
Zn14 N9_2 1_555 1_555
C17_2 H9_2 1_555 1_555
H10_2 C20_2 1_555 1_555
C21_2 H11_2 1_555 1_555
C22_2 H12_2 1_555 1_555
C23_2 C21_2 1_555 1_555
C24_2 C23_2 1_555 1_555
N9_2 C20_2 1_555 1_555
N10_2 C17_2 1_555 1_555
N11_2 C21_2 1_555 1_555
N12_2 Zn14 1_555 1_555
O13_2 Zn1_2 1_555 1_555
O14_2 Zn1_2 1_555 1_555
Zn9 O5 1_555 1_555
Zn10 O25_3 1_555 1_555
Zn15_2 N11_2 1_555 1_555
Zn16_2 N3_2 1_555 1_555
Zn19 N10_2 1_555 1_555
Zn20_2 O6 1_555 1_555
N13_3 Zn19_2 1_555 1_555
O21_2 Zn1_2 1_555 1_555
O25_3 Zn4_2 1_555 1_555
Zn4_2 O14_2 1_555 1_555
C3_2 O3_2 1_555 1_555
C6_2 C7_2 1_555 1_555
C6_2 N4_2 1_555 1_555
N1_2 N2_2 1_555 1_555
N3_2 N4_2 1_555 1_555
O18_2 Zn16_2 1_555 1_555
O6 Zn9 1_555 1_555
C16_3 O26 1_555 1_555
C22_2 C23_2 1_555 1_555
C22_2 N12_2 1_555 1_555
C24_2 O13_2 1_555 1_555
C24_2 O14_2 1_555 1_555
N9_2 N10_2 1_555 1_555
N11_2 N12_2 1_555 1_555
Zn15_2 O18 1_555 1_555
Zn9 O11_2 1_555 1_555
C19_2 C18_2 1_555 1_555
O11_2 C19_2 1_555 1_555
O19_2 C19_2 1_555 1_555
O16_2 Zn9 1_555 1_555
O20_2 Zn9 1_555 1_555
N13_4 Zn19 1_555 1_555
Zn20_2 O16_2 1_555 1_555
Zn13 O7_4 1_555 1_555
Zn17 N5_4 1_555 1_555
C9_4 H5_4 1_555 1_555
C10_4 C9_4 1_555 1_555
C11_4 C10_4 1_555 1_555
C12_4 C10_4 1_555 1_555
H6_4 C12_4 1_555 1_555
C13_4 H7_4 1_555 1_555
C14_4 H8_4 1_555 1_555
C15_4 C13_4 1_555 1_555
C16_4 C15_4 1_555 1_555
N5_4 C12_4 1_555 1_555
N14 C9_4 1_555 1_555
N17 C13_4 1_555 1_555
N8_4 Zn17 1_555 1_555
O7_4 C11_4 1_555 1_555
O8_4 C11_4 1_555 1_555
O23_2 C16_4 1_555 1_555
O26_2 Zn20_2 1_555 1_555
Zn11_2 O8_4 1_555 1_555
Zn10_2 O25_4 1_555 1_555
N15_4 Zn17 1_555 1_555
O25_4 Zn20_2 1_555 1_555
C14_4 C15_4 1_555 1_555
C14_4 N8_4 1_555 1_555
C16_4 O26_2 1_555 1_555
N5_4 N14 1_555 1_555
N17 N8_4 1_555 1_555
Zn10 O11_3 1_555 1_555
Zn15 N9_3 1_555 1_555
C17_3 H9_3 1_555 1_555
C18_3 C17_3 1_555 1_555
C19_3 C18_3 1_555 1_555
C20_3 C18_3 1_555 1_555
H10_3 C20_3 1_555 1_555
C21_3 H11_3 1_555 1_555
C22_3 H12_3 1_555 1_555
N9_3 C20_3 1_555 1_555
N13_2 C17_3 1_555 1_555
N15_3 C21_3 1_555 1_555
N12_3 Zn15 1_555 1_555
O11_3 C19_3 1_555 1_555
O21_2 C19_3 1_555 1_555
O22_2 Zn10 1_555 1_555
C22_3 N12_3 1_555 1_555
N9_3 N13_2 1_555 1_555
N15_3 N12_3 1_555 1_555
C3_3 C2_3 1_555 1_555
O3_3 Zn11_2 1_555 1_555
O20 C3_3 1_555 1_555
C24_3 C23_3 1_555 1_555
O13_3 Zn11_2 1_555 1_555
C3_3 O3_3 1_555 1_555
C24_3 O13_3 1_555 1_555
C24_3 O25_2 1_555 1_555
C8_3 C7_3 1_555 1_555
O22_2 C8_3 1_555 1_555
O25_3 C8_3 1_555 1_555
Zn16_2 N1_3 1_555 1_555
C1_3 H1_3 1_555 1_555
H2_3 C4_3 1_555 1_555
C5_3 H3_3 1_555 1_555
C6_3 H4_3 1_555 1_555
N1_3 C4_3 1_555 1_555
N13_3 C1_3 1_555 1_555
N15_2 C5_3 1_555 1_555
N4_3 Zn16_2 1_555 1_555
C6_3 N4_3 1_555 1_555
N1_3 N13_3 1_555 1_555
N15_2 N4_3 1_555 1_555
Zn15_2 N1_4 1_555 1_555
C1_4 H1_4 1_555 1_555
C2_4 C1_4 1_555 1_555
C3_4 C2_4 1_555 1_555
C4_4 C2_4 1_555 1_555
H2_4 C4_4 1_555 1_555
C5_4 H3_4 1_555 1_555
C6_4 H4_4 1_555 1_555
C7_4 C5_4 1_555 1_555
C8_4 C7_4 1_555 1_555
N1_4 C4_4 1_555 1_555
N13_4 C1_4 1_555 1_555
N15 C5_4 1_555 1_555
N4_4 Zn15_2 1_555 1_555
O3_4 Zn11 1_555 1_555
O21 C3_4 1_555 1_555
O5_2 C8_4 1_555 1_555
O25_4 C8_4 1_555 1_555
Zn16 N9_4 1_555 1_555
C17_4 H9_4 1_555 1_555
H10_4 C20_4 1_555 1_555
C21_4 H11_4 1_555 1_555
C22_4 H12_4 1_555 1_555
C23_4 C21_4 1_555 1_555
C24_4 C23_4 1_555 1_555
N9_4 C20_4 1_555 1_555
N13 C17_4 1_555 1_555
N15_4 C21_4 1_555 1_555
N12_4 Zn16 1_555 1_555
O13_4 Zn11 1_555 1_555
Zn10_2 O5_2 1_555 1_555
C3_4 O3_4 1_555 1_555
C6_4 C7_4 1_555 1_555
C6_4 N4_4 1_555 1_555
N1_4 N13_4 1_555 1_555
N15 N4_4 1_555 1_555
C22_4 C23_4 1_555 1_555
C22_4 N12_4 1_555 1_555
C24_4 O13_4 1_555 1_555
C24_4 O25 1_555 1_555
N9_4 N13 1_555 1_555
N15_4 N12_4 1_555 1_555
Zn10_2 O11_4 1_555 1_555
C19_4 C18_4 1_555 1_555
O11_4 C19_4 1_555 1_555
O20_2 C19_4 1_555 1_555

#END
