
###############################################################################
#
# This file contains modified crystal structure data generated from the
# MOF subset of the Cambridge Structural Database (CSD) v543 
# hosted by the Cambridge Crystallographic Data Centre (CCDC).
#
# This work is licensed under the Creative Commons
# Attribution-NonCommercial-ShareAlike 4.0 International License.
# To view a copy of this license, visit
# http://creativecommons.org/licenses/by-nc-sa/4.0/
# or send a letter to
# Creative Commons, PO Box 1866, Mountain View, CA 94042, USA.
#
# CIF created using the CSD Python API on 29 September 2022
# The structure has been converted into the P1 space group
# The structure has a 3D framework
# The original CSD entry BUKRUW03 is in the cubic crystal system
# The original CSD entry BUKRUW03 is in a Sohncke space group
# The framework has been calculated to contain at least 10.0% void space
# The void calculation uses a probe of radius 1.32A, grid spacing 0.4
#
###############################################################################

data_BUKRUW03
_chemical_formula_moiety         '(C96 H48 N48 O54 Zn32)n'
_symmetry_cell_setting           triclinic
_symmetry_space_group_name_H-M   'P 1'
_symmetry_Int_Tables_number      1
_space_group_name_Hall           'P 1'
loop_
_symmetry_equiv_pos_site_id
_symmetry_equiv_pos_as_xyz
1 x,y,z
_cell_length_a                   20.14050(10)
_cell_length_b                   20.14050(10)
_cell_length_c                   20.14050(10)
_cell_angle_alpha                90
_cell_angle_beta                 90
_cell_angle_gamma                90
_cell_volume                     8169.79
loop_
_atom_site_label
_atom_site_type_symbol
_atom_site_fract_x
_atom_site_fract_y
_atom_site_fract_z
C7 C 0.2509(4) 0.0033(4) 0.7366(4)
O5 O 0.2080(4) 0.1034(2) 0.6964(5)
O6 O 0.2365(4) 0.1089(3) 0.7914(3)
C8 C 0.2057(7) 0.0816(6) 0.7313(7)
Zn9 Zn 0.19670(4) 0.19110(4) 0.69697(4)
Zn19 Zn 0.30776(6) 0.19224(6) 0.80776(6)
Zn1 Zn 0.30330(4) 0.80890(4) 0.19697(4)
Zn4 Zn 0.19224(6) 0.80776(6) 0.30776(6)
C2 C 0.2415(3) 0.7526(3) 0.0054(3)
C3 C 0.2388(4) 0.7557(4) 0.0748(4)
O1 O 0.2457(2) 0.7543(2) 0.2543(2)
O3 O 0.2777(3) 0.7922(3) 0.1058(2)
O4 O 0.2047(4) 0.7268(3) 0.1065(2)
C15 C 0.0033(4) 0.7366(4) 0.2509(4)
O9 O 0.1034(2) 0.6964(5) 0.2080(4)
O10 O 0.1089(3) 0.7914(3) 0.2365(4)
C16 C 0.0816(6) 0.7313(7) 0.2057(7)
Zn7 Zn 0.30303(4) 0.69670(4) 0.30890(4)
Zn8 Zn 0.69206(4) 0.69668(4) 0.30404(4)
C17 C 0.5362(3) 0.7901(4) 0.2080(3)
H9 H 0.5216 0.8170 0.1721
C18 C 0.4946(3) 0.7585(3) 0.2526(3)
C19 C 0.4252(4) 0.7612(4) 0.2557(4)
C20 C 0.5387(4) 0.7098(5) 0.2798(5)
H10 H 0.5252 0.6693 0.2997
C21 C 0.7894(5) 0.7627(2) 0.45261(13)
H11 H 0.8364 0.7647 0.4564
C22 C 0.7159(4) 0.7067(2) 0.46976(15)
H12 H 0.6871 0.6748 0.4892
C23 C 0.7634(4) 0.7491(4) 0.5033(4)
N9 N 0.6019(4) 0.7296(3) 0.2730(3)
N10 N 0.5991(2) 0.7777(2) 0.2222(3)
N11 N 0.7702(2) 0.7747(2) 0.3964(2)
N12 N 0.7222(3) 0.7246(3) 0.3969(3)
O11 O 0.3942(2) 0.7223(3) 0.2922(3)
O12 O 0.3935(2) 0.7953(4) 0.2268(3)
O13 O 0.8036(5) 0.7920(4) 0.6034(2)
O14 O 0.7086(3) 0.7635(4) 0.6089(3)
C24 C 0.7687(7) 0.7943(7) 0.5816(6)
Zn11 Zn 0.80303(4) 0.80330(4) 0.69110(4)
Zn12 Zn 0.19110(4) 0.69697(4) 0.19670(4)
Zn15 Zn 0.80404(4) 0.80794(4) 0.30332(4)
Zn18 Zn 0.69033(4) 0.80967(4) 0.19033(4)
Zn20 Zn 0.69224(6) 0.69224(6) 0.69224(6)
N15 N 0.7253(2) 0.6036(2) 0.2702(2)
O17 O 0.7483(2) 0.7517(2) 0.2483(2)
O19 O 0.2732(3) 0.6065(2) 0.2953(4)
O20 O 0.2920(4) 0.8966(2) 0.1964(5)
O21 O 0.3036(5) 0.7080(4) 0.3966(2)
O23 O 0.2635(4) 0.8911(3) 0.2914(3)
O24 O 0.2086(3) 0.7365(4) 0.3911(3)
Zn2 Zn 0.30332(4) 0.80404(4) 0.80794(4)
Zn3 Zn 0.19033(4) 0.69033(4) 0.80967(4)
C1 C 0.2099(4) 0.7080(3) 0.9638(3)
H1 H 0.1830 0.6721 0.9784
C4 C 0.2902(5) 0.7798(5) 0.9613(4)
H2 H 0.3307 0.7997 0.9748
C5 C 0.2373(2) 0.95261(13) 0.7106(5)
H3 H 0.2353 0.9564 0.6636
C6 C 0.2933(2) 0.96976(15) 0.7841(4)
H4 H 0.3252 0.9892 0.8129
N1 N 0.2704(3) 0.7730(3) 0.8981(4)
N2 N 0.2223(2) 0.7222(3) 0.9009(2)
N3 N 0.2253(2) 0.8964(2) 0.7298(2)
N4 N 0.2754(3) 0.8969(3) 0.7778(3)
O2 O 0.2483(2) 0.7483(2) 0.7517(2)
Zn14 Zn 0.19206(4) 0.80332(4) 0.69596(4)
Zn16 Zn 0.30404(4) 0.69206(4) 0.69668(4)
N13 N 0.0991(2) 0.7223(2) 0.7778(3)
N14 N 0.2222(3) 0.5991(2) 0.7777(2)
N17 N 0.3964(2) 0.7702(2) 0.7747(2)
Zn5 Zn 0.80890(4) 0.19697(4) 0.30330(4)
C10 C 0.7526(3) 0.0054(3) 0.2415(3)
C11 C 0.7557(4) 0.0748(4) 0.2388(4)
O7 O 0.7922(3) 0.1058(2) 0.2777(3)
O8 O 0.7268(3) 0.1065(2) 0.2047(4)
Zn10 Zn 0.69697(4) 0.19670(4) 0.19110(4)
O15 O 0.7543(2) 0.2543(2) 0.2457(2)
O18 O 0.7953(4) 0.2268(3) 0.3935(2)
O22 O 0.8966(2) 0.1964(5) 0.2920(4)
C9 C 0.7080(3) 0.9638(3) 0.2099(4)
H5 H 0.6721 0.9784 0.1830
C12 C 0.7798(5) 0.9613(4) 0.2902(5)
H6 H 0.7997 0.9748 0.3307
C13 C 0.95261(13) 0.7106(5) 0.2373(2)
H7 H 0.9564 0.6636 0.2353
C14 C 0.96976(15) 0.7841(4) 0.2933(2)
H8 H 0.9892 0.8129 0.3252
N5 N 0.7730(3) 0.8981(4) 0.2704(3)
N6 N 0.7222(3) 0.9009(2) 0.2223(2)
N7 N 0.8964(2) 0.7298(2) 0.2253(2)
N8 N 0.8969(3) 0.7778(3) 0.2754(3)
Zn13 Zn 0.80332(4) 0.69596(4) 0.19206(4)
Zn2_2 Zn 0.19668(4) 0.19596(4) 0.30794(4)
Zn3_2 Zn 0.30967(4) 0.30967(4) 0.30967(4)
C1_2 C 0.2901(4) 0.2920(3) 0.4638(3)
H1_2 H 0.3170 0.3279 0.4784
C2_2 C 0.2585(3) 0.2474(3) 0.5054(3)
C3_2 C 0.2612(4) 0.2443(4) 0.5748(4)
C4_2 C 0.2098(5) 0.2202(5) 0.4613(4)
H2_2 H 0.1693 0.2003 0.4748
C5_2 C 0.2627(2) 0.04739(13) 0.2106(5)
H3_2 H 0.2647 0.0436 0.1636
C6_2 C 0.2067(2) 0.03024(15) 0.2841(4)
H4_2 H 0.1748 0.0108 0.3129
N1_2 N 0.2296(3) 0.2270(3) 0.3981(4)
N2_2 N 0.2777(2) 0.2778(3) 0.4009(2)
N3_2 N 0.2747(2) 0.1036(2) 0.2298(2)
N4_2 N 0.2246(3) 0.1031(3) 0.2778(3)
O1_2 O 0.2543(2) 0.2457(2) 0.7543(2)
O2_2 O 0.2517(2) 0.2517(2) 0.2517(2)
O3_2 O 0.2223(3) 0.2078(3) 0.6058(2)
O4_2 O 0.2953(4) 0.2732(3) 0.6065(2)
Zn6 Zn 0.69596(4) 0.19206(4) 0.80332(4)
C9_2 C 0.7920(3) 0.0362(3) 0.7099(4)
H5_2 H 0.8279 0.0216 0.6830
C12_2 C 0.7202(5) 0.0387(4) 0.7902(5)
H6_2 H 0.7003 0.0252 0.8307
C13_2 C 0.54739(13) 0.2894(5) 0.7373(2)
H7_2 H 0.5436 0.3364 0.7353
C14_2 C 0.53024(15) 0.2159(4) 0.7933(2)
H8_2 H 0.5108 0.1871 0.8252
C15_2 C 0.4967(4) 0.2634(4) 0.7509(4)
N5_2 N 0.7270(3) 0.1019(4) 0.7704(3)
N6_2 N 0.7778(3) 0.0991(2) 0.7223(2)
N7_2 N 0.6036(2) 0.2702(2) 0.7253(2)
N8_2 N 0.6031(3) 0.2222(3) 0.7754(3)
O9_2 O 0.3966(2) 0.3036(5) 0.7080(4)
O10_2 O 0.3911(3) 0.2086(3) 0.7365(4)
C16_2 C 0.4184(6) 0.2687(7) 0.7057(7)
Zn7_2 Zn 0.19697(4) 0.30330(4) 0.80890(4)
C18_2 C 0.0054(3) 0.2415(3) 0.7526(3)
C19_2 C 0.0748(4) 0.2388(4) 0.7557(4)
O11_2 O 0.1058(2) 0.2777(3) 0.7922(3)
O12_2 O 0.1065(2) 0.2047(4) 0.7268(3)
Zn12_2 Zn 0.30890(4) 0.30303(4) 0.69670(4)
Zn13_2 Zn 0.69668(4) 0.30404(4) 0.69206(4)
Zn14_2 Zn 0.30794(4) 0.19668(4) 0.19596(4)
Zn16_2 Zn 0.19596(4) 0.30794(4) 0.19668(4)
Zn17 Zn 0.80967(4) 0.19033(4) 0.69033(4)
N13_2 N 0.4009(2) 0.2777(2) 0.2778(3)
N14_2 N 0.2778(3) 0.4009(2) 0.2777(2)
N16 N 0.7298(2) 0.2253(2) 0.8964(2)
N17_2 N 0.1036(2) 0.2298(2) 0.2747(2)
O16 O 0.7517(2) 0.2483(2) 0.7483(2)
O19_2 O 0.2268(3) 0.3935(2) 0.7953(4)
O21_2 O 0.1964(5) 0.2920(4) 0.8966(2)
O24_2 O 0.2914(3) 0.2635(4) 0.8911(3)
C7_2 C 0.2491(4) 0.9967(4) 0.2366(4)
C8_2 C 0.2943(7) 0.9184(6) 0.2313(7)
Zn5_2 Zn 0.69110(4) 0.80303(4) 0.80330(4)
C10_2 C 0.7474(3) 0.9946(3) 0.7415(3)
C11_2 C 0.7443(4) 0.9252(4) 0.7388(4)
O7_2 O 0.7078(3) 0.8942(2) 0.7777(3)
O8_2 O 0.7732(3) 0.8935(2) 0.7047(4)
O15_2 O 0.7457(2) 0.7457(2) 0.7457(2)
O18_2 O 0.7047(4) 0.7732(3) 0.8935(2)
O22_2 O 0.6034(2) 0.8036(5) 0.7920(4)
C23_2 C 0.7366(4) 0.2509(4) 0.0033(4)
O13_2 O 0.6964(5) 0.2080(4) 0.1034(2)
O14_2 O 0.7914(3) 0.2365(4) 0.1089(3)
C24_2 C 0.7313(7) 0.2057(7) 0.0816(6)
Zn20_2 Zn 0.80776(6) 0.30776(6) 0.19224(6)
Zn8_2 Zn 0.80794(4) 0.30332(4) 0.80404(4)
C17_2 C 0.9638(3) 0.2099(4) 0.7080(3)
H9_2 H 0.9784 0.1830 0.6721
C20_2 C 0.9613(4) 0.2902(5) 0.7798(5)
H10_2 H 0.9748 0.3307 0.7997
C21_2 C 0.7106(5) 0.2373(2) 0.95261(13)
H11_2 H 0.6636 0.2353 0.9564
C22_2 C 0.7841(4) 0.2933(2) 0.96976(15)
H12_2 H 0.8129 0.3252 0.9892
N9_2 N 0.8981(4) 0.2704(3) 0.7730(3)
N10_2 N 0.9009(2) 0.2223(2) 0.7222(3)
N12_2 N 0.7778(3) 0.2754(3) 0.8969(3)
N15_2 N 0.7747(2) 0.3964(2) 0.7702(2)
C9_3 C 0.2920(3) 0.4638(3) 0.2901(4)
H5_3 H 0.3279 0.4784 0.3170
C10_3 C 0.2474(3) 0.5054(3) 0.2585(3)
C11_3 C 0.2443(4) 0.5748(4) 0.2612(4)
C12_3 C 0.2202(5) 0.4613(4) 0.2098(5)
H6_3 H 0.2003 0.4748 0.1693
C13_3 C 0.04739(13) 0.2106(5) 0.2627(2)
H7_3 H 0.0436 0.1636 0.2647
C14_3 C 0.03024(15) 0.2841(4) 0.2067(2)
H8_3 H 0.0108 0.3129 0.1748
N5_3 N 0.2270(3) 0.3981(4) 0.2296(3)
N8_3 N 0.1031(3) 0.2778(3) 0.2246(3)
O7_3 O 0.2078(3) 0.6058(2) 0.2223(3)
N16_2 N 0.2298(2) 0.2747(2) 0.1036(2)
Zn1_2 Zn 0.69670(4) 0.30890(4) 0.30303(4)
C1_3 C 0.7901(4) 0.2080(3) 0.5362(3)
H1_3 H 0.8170 0.1721 0.5216
C2_3 C 0.7585(3) 0.2526(3) 0.4946(3)
C3_3 C 0.7612(4) 0.2557(4) 0.4252(4)
C4_3 C 0.7098(5) 0.2798(5) 0.5387(4)
H2_3 H 0.6693 0.2997 0.5252
C5_3 C 0.7627(2) 0.45261(13) 0.7894(5)
H3_3 H 0.7647 0.4564 0.8364
C6_3 C 0.7067(2) 0.46976(15) 0.7159(4)
H4_3 H 0.6748 0.4892 0.6871
C7_3 C 0.7491(4) 0.5033(4) 0.7634(4)
N1_3 N 0.7296(3) 0.2730(3) 0.6019(4)
N2_3 N 0.7777(2) 0.2222(3) 0.5991(2)
N4_3 N 0.7246(3) 0.3969(3) 0.7222(3)
O3_3 O 0.7223(3) 0.2922(3) 0.3942(2)
O5_2 O 0.7920(4) 0.6034(2) 0.8036(5)
O6_2 O 0.7635(4) 0.6089(3) 0.7086(3)
C8_3 C 0.7943(7) 0.5816(6) 0.7687(7)
C15_3 C 0.9967(4) 0.2366(4) 0.2491(4)
O10_3 O 0.8911(3) 0.2914(3) 0.2635(4)
C16_3 C 0.9184(6) 0.2313(7) 0.2943(7)
C17_3 C 0.4638(3) 0.2901(4) 0.2920(3)
H9_3 H 0.4784 0.3170 0.3279
C18_3 C 0.5054(3) 0.2585(3) 0.2474(3)
C19_3 C 0.5748(4) 0.2612(4) 0.2443(4)
C20_3 C 0.4613(4) 0.2098(5) 0.2202(5)
H10_3 H 0.4748 0.1693 0.2003
C21_3 C 0.2106(5) 0.2627(2) 0.04739(13)
H11_3 H 0.1636 0.2647 0.0436
C22_3 C 0.2841(4) 0.2067(2) 0.03024(15)
H12_3 H 0.3129 0.1748 0.0108
N9_3 N 0.3981(4) 0.2296(3) 0.2270(3)
N12_3 N 0.2778(3) 0.2246(3) 0.1031(3)
O11_3 O 0.6058(2) 0.2223(3) 0.2078(3)
O12_3 O 0.6065(2) 0.2953(4) 0.2732(3)
Zn9_2 Zn 0.80330(4) 0.69110(4) 0.80303(4)
O20_2 O 0.7080(4) 0.3966(2) 0.3036(5)
O23_2 O 0.7365(4) 0.3911(3) 0.2086(3)
C23_3 C 0.2366(4) 0.2491(4) 0.9967(4)
C24_3 C 0.2313(7) 0.2943(7) 0.9184(6)
C17_4 C 0.0362(3) 0.7099(4) 0.7920(3)
H9_4 H 0.0216 0.6830 0.8279
C20_4 C 0.0387(4) 0.7902(5) 0.7202(5)
H10_4 H 0.0252 0.8307 0.7003
C21_4 C 0.2894(5) 0.7373(2) 0.54739(13)
H11_4 H 0.3364 0.7353 0.5436
C22_4 C 0.2159(4) 0.7933(2) 0.53024(15)
H12_4 H 0.1871 0.8252 0.5108
C23_4 C 0.2634(4) 0.7509(4) 0.4967(4)
N9_4 N 0.1019(4) 0.7704(3) 0.7270(3)
N11_2 N 0.2702(2) 0.7253(2) 0.6036(2)
N12_4 N 0.2222(3) 0.7754(3) 0.6031(3)
C24_4 C 0.2687(7) 0.7057(7) 0.4184(6)
C1_4 C 0.7099(4) 0.7920(3) 0.0362(3)
H1_4 H 0.6830 0.8279 0.0216
C4_4 C 0.7902(5) 0.7202(5) 0.0387(4)
H2_4 H 0.8307 0.7003 0.0252
C5_4 C 0.7373(2) 0.54739(13) 0.2894(5)
H3_4 H 0.7353 0.5436 0.3364
C6_4 C 0.7933(2) 0.53024(15) 0.2159(4)
H4_4 H 0.8252 0.5108 0.1871
C7_4 C 0.7509(4) 0.4967(4) 0.2634(4)
N1_4 N 0.7704(3) 0.7270(3) 0.1019(4)
N2_4 N 0.7223(2) 0.7778(3) 0.0991(2)
N4_4 N 0.7754(3) 0.6031(3) 0.2222(3)
C8_4 C 0.7057(7) 0.4184(6) 0.2687(7)
C2_4 C 0.7415(3) 0.7474(3) 0.9946(3)
C3_4 C 0.7388(4) 0.7443(4) 0.9252(4)
O3_4 O 0.7777(3) 0.7078(3) 0.8942(2)
C9_4 C 0.2080(3) 0.5362(3) 0.7901(4)
H5_4 H 0.1721 0.5216 0.8170
C10_4 C 0.2526(3) 0.4946(3) 0.7585(3)
C11_4 C 0.2557(4) 0.4252(4) 0.7612(4)
C12_4 C 0.2798(5) 0.5387(4) 0.7098(5)
H6_4 H 0.2997 0.5252 0.6693
C13_4 C 0.45261(13) 0.7894(5) 0.7627(2)
H7_4 H 0.4564 0.8364 0.7647
C14_4 C 0.46976(15) 0.7159(4) 0.7067(2)
H8_4 H 0.4892 0.6871 0.6748
C15_4 C 0.5033(4) 0.7634(4) 0.7491(4)
N5_4 N 0.2730(3) 0.6019(4) 0.7296(3)
N8_4 N 0.3969(3) 0.7222(3) 0.7246(3)
O7_4 O 0.2922(3) 0.3942(2) 0.7223(3)
O10_4 O 0.6089(3) 0.7086(3) 0.7635(4)
C16_4 C 0.5816(6) 0.7687(7) 0.7943(7)
C18_4 C 0.9946(3) 0.7415(3) 0.7474(3)
C19_4 C 0.9252(4) 0.7388(4) 0.7443(4)
O11_4 O 0.8942(2) 0.7777(3) 0.7078(3)
O12_4 O 0.8935(2) 0.7047(4) 0.7732(3)
loop_
_geom_bond_atom_site_label_1
_geom_bond_atom_site_label_2
_geom_bond_site_symmetry_1
_geom_bond_site_symmetry_2
O5 C8 1_555 1_555
O6 C8 1_555 1_555
C8 C7 1_555 1_555
Zn9 O5 1_555 1_555
Zn19 O6 1_555 1_555
Zn1 O1 1_555 1_555
Zn4 O1 1_555 1_555
C3 C2 1_555 1_555
O1 Zn7 1_555 1_555
O3 Zn1 1_555 1_555
O4 C3 1_555 1_555
O9 C16 1_555 1_555
O10 Zn4 1_555 1_555
C16 C15 1_555 1_555
Zn7 O11 1_555 1_555
Zn8 N9 1_555 1_555
C17 H9 1_555 1_555
C18 C17 1_555 1_555
C19 C18 1_555 1_555
C20 C18 1_555 1_555
H10 C20 1_555 1_555
C21 H11 1_555 1_555
C22 H12 1_555 1_555
C23 C21 1_555 1_555
N9 C20 1_555 1_555
N10 C17 1_555 1_555
N11 C21 1_555 1_555
N12 Zn8 1_555 1_555
O11 C19 1_555 1_555
O12 Zn1 1_555 1_555
O13 C24 1_555 1_555
O14 C24 1_555 1_555
C24 C23 1_555 1_555
Zn11 O13 1_555 1_555
Zn12 O1 1_555 1_555
Zn15 N11 1_555 1_555
Zn18 N10 1_555 1_555
Zn20 O14 1_555 1_555
N15 Zn8 1_555 1_555
O17 Zn8 1_555 1_555
O19 Zn7 1_555 1_555
O20 Zn1 1_555 1_555
O21 Zn7 1_555 1_555
O23 Zn4 1_555 1_555
O24 Zn4 1_555 1_555
C3 O3 1_555 1_555
O4 Zn12 1_555 1_555
O9 Zn12 1_555 1_555
O10 C16 1_555 1_555
C19 O12 1_555 1_555
C22 C23 1_555 1_555
C22 N12 1_555 1_555
N9 N10 1_555 1_555
N11 N12 1_555 1_555
Zn15 O17 1_555 1_555
Zn18 O17 1_555 1_555
Zn2 N1 1_555 1_555
Zn3 N2 1_555 1_555
C1 H1 1_555 1_555
H2 C4 1_555 1_555
C5 H3 1_555 1_555
C6 H4 1_555 1_555
N1 C4 1_555 1_555
N2 C1 1_555 1_555
N3 C5 1_555 1_555
N4 Zn2 1_555 1_555
O2 Zn2 1_555 1_555
Zn14 N3 1_555 1_555
Zn16 O2 1_555 1_555
N13 Zn3 1_555 1_555
N14 Zn3 1_555 1_555
N17 Zn2 1_555 1_555
Zn3 O2 1_555 1_555
C6 N4 1_555 1_555
N1 N2 1_555 1_555
N3 N4 1_555 1_555
O2 Zn14 1_555 1_555
Zn5 O7 1_555 1_555
C11 C10 1_555 1_555
O7 C11 1_555 1_555
O8 C11 1_555 1_555
Zn10 O8 1_555 1_555
O15 Zn5 1_555 1_555
O18 Zn5 1_555 1_555
O22 Zn5 1_555 1_555
Zn10 O15 1_555 1_555
Zn15 N5 1_555 1_555
C9 H5 1_555 1_555
H6 C12 1_555 1_555
C13 H7 1_555 1_555
C14 H8 1_555 1_555
N5 C12 1_555 1_555
N6 C9 1_555 1_555
N7 C13 1_555 1_555
N8 Zn15 1_555 1_555
Zn13 N7 1_555 1_555
Zn18 N6 1_555 1_555
C14 N8 1_555 1_555
N5 N6 1_555 1_555
N7 N8 1_555 1_555
Zn13 O17 1_555 1_555
Zn9 O1_2 1_555 1_555
Zn2_2 N1_2 1_555 1_555
Zn3_2 N2_2 1_555 1_555
Zn19 O1_2 1_555 1_555
C1_2 H1_2 1_555 1_555
C2_2 C1_2 1_555 1_555
C3_2 C2_2 1_555 1_555
C4_2 C2_2 1_555 1_555
H2_2 C4_2 1_555 1_555
C5_2 H3_2 1_555 1_555
C6_2 H4_2 1_555 1_555
N1_2 C4_2 1_555 1_555
N2_2 C1_2 1_555 1_555
N3_2 C5_2 1_555 1_555
N4_2 Zn2_2 1_555 1_555
O1_2 Zn7_2 1_555 1_555
O2_2 Zn2_2 1_555 1_555
O3_2 Zn9 1_555 1_555
O4_2 C3_2 1_555 1_555
Zn6 N5_2 1_555 1_555
C9_2 H5_2 1_555 1_555
H6_2 C12_2 1_555 1_555
C13_2 H7_2 1_555 1_555
C14_2 H8_2 1_555 1_555
C15_2 C13_2 1_555 1_555
N5_2 C12_2 1_555 1_555
N6_2 C9_2 1_555 1_555
N7_2 C13_2 1_555 1_555
N8_2 Zn6 1_555 1_555
O9_2 C16_2 1_555 1_555
O10_2 Zn19 1_555 1_555
C16_2 C15_2 1_555 1_555
Zn7_2 O11_2 1_555 1_555
C19_2 C18_2 1_555 1_555
O11_2 C19_2 1_555 1_555
O12_2 Zn9 1_555 1_555
Zn12_2 O1_2 1_555 1_555
Zn13_2 N7_2 1_555 1_555
Zn14_2 N3_2 1_555 1_555
Zn16_2 O2_2 1_555 1_555
Zn17 N6_2 1_555 1_555
N13_2 Zn3_2 1_555 1_555
N14_2 Zn3_2 1_555 1_555
N16 Zn6 1_555 1_555
N17_2 Zn2_2 1_555 1_555
O16 Zn6 1_555 1_555
O19_2 Zn7_2 1_555 1_555
O21_2 Zn7_2 1_555 1_555
O24_2 Zn19 1_555 1_555
Zn3_2 O2_2 1_555 1_555
C3_2 O3_2 1_555 1_555
C6_2 N4_2 1_555 1_555
N1_2 N2_2 1_555 1_555
N3_2 N4_2 1_555 1_555
O2_2 Zn14_2 1_555 1_555
O4_2 Zn12_2 1_555 1_555
C14_2 C15_2 1_555 1_555
C14_2 N8_2 1_555 1_555
N5_2 N6_2 1_555 1_555
N7_2 N8_2 1_555 1_555
O9_2 Zn12_2 1_555 1_555
O10_2 C16_2 1_555 1_555
C19_2 O12_2 1_555 1_555
Zn13_2 O16 1_555 1_555
Zn17 O16 1_555 1_555
O20 C8_2 1_555 1_555
O23 C8_2 1_555 1_555
C8_2 C7_2 1_555 1_555
Zn5_2 O7_2 1_555 1_555
C11_2 C10_2 1_555 1_555
O7_2 C11_2 1_555 1_555
O8_2 C11_2 1_555 1_555
Zn11 O8_2 1_555 1_555
O15_2 Zn5_2 1_555 1_555
O18_2 Zn5_2 1_555 1_555
O22_2 Zn5_2 1_555 1_555
Zn11 O15_2 1_555 1_555
O13_2 C24_2 1_555 1_555
O14_2 C24_2 1_555 1_555
C24_2 C23_2 1_555 1_555
Zn10 O13_2 1_555 1_555
Zn20_2 O14_2 1_555 1_555
Zn8_2 N9_2 1_555 1_555
C17_2 H9_2 1_555 1_555
H10_2 C20_2 1_555 1_555
C21_2 H11_2 1_555 1_555
C22_2 H12_2 1_555 1_555
N9_2 C20_2 1_555 1_555
N10_2 C17_2 1_555 1_555
N16 C21_2 1_555 1_555
N12_2 Zn8_2 1_555 1_555
Zn17 N10_2 1_555 1_555
N15_2 Zn8_2 1_555 1_555
O16 Zn8_2 1_555 1_555
C22_2 N12_2 1_555 1_555
N9_2 N10_2 1_555 1_555
N16 N12_2 1_555 1_555
Zn12 O7_3 1_555 1_555
Zn16_2 N5_3 1_555 1_555
C9_3 H5_3 1_555 1_555
C10_3 C9_3 1_555 1_555
C11_3 C10_3 1_555 1_555
C12_3 C10_3 1_555 1_555
H6_3 C12_3 1_555 1_555
C13_3 H7_3 1_555 1_555
C14_3 H8_3 1_555 1_555
N5_3 C12_3 1_555 1_555
N14_2 C9_3 1_555 1_555
N17_2 C13_3 1_555 1_555
N8_3 Zn16_2 1_555 1_555
O7_3 C11_3 1_555 1_555
O19 C11_3 1_555 1_555
N16_2 Zn16_2 1_555 1_555
C14_3 N8_3 1_555 1_555
N5_3 N14_2 1_555 1_555
N17_2 N8_3 1_555 1_555
Zn1_2 O15 1_555 1_555
Zn13_2 N1_3 1_555 1_555
Zn17 N2_3 1_555 1_555
Zn20_2 O15 1_555 1_555
C1_3 H1_3 1_555 1_555
C2_3 C1_3 1_555 1_555
C3_3 C2_3 1_555 1_555
C4_3 C2_3 1_555 1_555
H2_3 C4_3 1_555 1_555
C5_3 H3_3 1_555 1_555
C6_3 H4_3 1_555 1_555
C7_3 C5_3 1_555 1_555
N1_3 C4_3 1_555 1_555
N2_3 C1_3 1_555 1_555
N15_2 C5_3 1_555 1_555
N4_3 Zn13_2 1_555 1_555
O3_3 Zn1_2 1_555 1_555
O18 C3_3 1_555 1_555
O5_2 C8_3 1_555 1_555
O6_2 C8_3 1_555 1_555
C8_3 C7_3 1_555 1_555
O22 C16_3 1_555 1_555
O10_3 Zn20_2 1_555 1_555
C16_3 C15_3 1_555 1_555
Zn10 O11_3 1_555 1_555
Zn14_2 N9_3 1_555 1_555
C17_3 H9_3 1_555 1_555
C18_3 C17_3 1_555 1_555
C19_3 C18_3 1_555 1_555
C20_3 C18_3 1_555 1_555
H10_3 C20_3 1_555 1_555
C21_3 H11_3 1_555 1_555
C22_3 H12_3 1_555 1_555
N9_3 C20_3 1_555 1_555
N13_2 C17_3 1_555 1_555
N16_2 C21_3 1_555 1_555
N12_3 Zn14_2 1_555 1_555
O11_3 C19_3 1_555 1_555
O12_3 Zn1_2 1_555 1_555
Zn9_2 O5_2 1_555 1_555
Zn20 O6_2 1_555 1_555
O20_2 Zn1_2 1_555 1_555
O23_2 Zn20_2 1_555 1_555
C3_3 O3_3 1_555 1_555
C6_3 C7_3 1_555 1_555
C6_3 N4_3 1_555 1_555
N1_3 N2_3 1_555 1_555
N15_2 N4_3 1_555 1_555
O10_3 C16_3 1_555 1_555
C19_3 O12_3 1_555 1_555
C22_3 N12_3 1_555 1_555
N9_3 N13_2 1_555 1_555
N16_2 N12_3 1_555 1_555
O21_2 C24_3 1_555 1_555
O24_2 C24_3 1_555 1_555
C24_3 C23_3 1_555 1_555
Zn14 N9_4 1_555 1_555
C17_4 H9_4 1_555 1_555
H10_4 C20_4 1_555 1_555
C21_4 H11_4 1_555 1_555
C22_4 H12_4 1_555 1_555
C23_4 C21_4 1_555 1_555
N9_4 C20_4 1_555 1_555
N13 C17_4 1_555 1_555
N11_2 C21_4 1_555 1_555
N12_4 Zn14 1_555 1_555
O21 C24_4 1_555 1_555
O24 C24_4 1_555 1_555
C24_4 C23_4 1_555 1_555
Zn16 N11_2 1_555 1_555
C22_4 C23_4 1_555 1_555
C22_4 N12_4 1_555 1_555
N9_4 N13 1_555 1_555
N11_2 N12_4 1_555 1_555
Zn13 N1_4 1_555 1_555
Zn18 N2_4 1_555 1_555
C1_4 H1_4 1_555 1_555
H2_4 C4_4 1_555 1_555
C5_4 H3_4 1_555 1_555
C6_4 H4_4 1_555 1_555
C7_4 C5_4 1_555 1_555
N1_4 C4_4 1_555 1_555
N2_4 C1_4 1_555 1_555
N15 C5_4 1_555 1_555
N4_4 Zn13 1_555 1_555
O20_2 C8_4 1_555 1_555
O23_2 C8_4 1_555 1_555
C8_4 C7_4 1_555 1_555
C6_4 C7_4 1_555 1_555
C6_4 N4_4 1_555 1_555
N1_4 N2_4 1_555 1_555
N15 N4_4 1_555 1_555
Zn9_2 O15_2 1_555 1_555
Zn20 O15_2 1_555 1_555
C3_4 C2_4 1_555 1_555
O3_4 Zn9_2 1_555 1_555
O18_2 C3_4 1_555 1_555
Zn12_2 O7_4 1_555 1_555
Zn16 N5_4 1_555 1_555
C9_4 H5_4 1_555 1_555
C10_4 C9_4 1_555 1_555
C11_4 C10_4 1_555 1_555
C12_4 C10_4 1_555 1_555
H6_4 C12_4 1_555 1_555
C13_4 H7_4 1_555 1_555
C14_4 H8_4 1_555 1_555
C15_4 C13_4 1_555 1_555
N5_4 C12_4 1_555 1_555
N14 C9_4 1_555 1_555
N17 C13_4 1_555 1_555
N8_4 Zn16 1_555 1_555
O7_4 C11_4 1_555 1_555
O19_2 C11_4 1_555 1_555
O22_2 C16_4 1_555 1_555
O10_4 Zn20 1_555 1_555
C16_4 C15_4 1_555 1_555
Zn11 O11_4 1_555 1_555
C19_4 C18_4 1_555 1_555
O11_4 C19_4 1_555 1_555
O12_4 Zn9_2 1_555 1_555
C3_4 O3_4 1_555 1_555
C14_4 C15_4 1_555 1_555
C14_4 N8_4 1_555 1_555
N5_4 N14 1_555 1_555
N17 N8_4 1_555 1_555
O10_4 C16_4 1_555 1_555
C19_4 O12_4 1_555 1_555

#END
