
###############################################################################
#
# This file contains modified crystal structure data generated from the
# MOF subset of the Cambridge Structural Database (CSD) v543 
# hosted by the Cambridge Crystallographic Data Centre (CCDC).
#
# This work is licensed under the Creative Commons
# Attribution-NonCommercial-ShareAlike 4.0 International License.
# To view a copy of this license, visit
# http://creativecommons.org/licenses/by-nc-sa/4.0/
# or send a letter to
# Creative Commons, PO Box 1866, Mountain View, CA 94042, USA.
#
# CIF created using the CSD Python API on 29 September 2022
# The structure has been converted into the P1 space group
# The structure has a 3D framework
# The original CSD entry BUKRUW01 is in the cubic crystal system
# The original CSD entry BUKRUW01 is in a Sohncke space group
# The framework has been calculated to contain at least 10.0% void space
# The void calculation uses a probe of radius 1.32A, grid spacing 0.4
# H atom positions have been added when not included in the experimental data
# Generated hydrogen atom positions removed from atoms on special positions
#
###############################################################################

data_BUKRUW01
_chemical_formula_moiety         '(C96 H120 N48 O54 Zn32)n'
_symmetry_cell_setting           triclinic
_symmetry_space_group_name_H-M   'P 1'
_symmetry_Int_Tables_number      1
_space_group_name_Hall           'P 1'
loop_
_symmetry_equiv_pos_site_id
_symmetry_equiv_pos_as_xyz
1 x,y,z
_cell_length_a                   20.1619(3)
_cell_length_b                   20.1619(3)
_cell_length_c                   20.1619(3)
_cell_angle_alpha                90
_cell_angle_beta                 90
_cell_angle_gamma                90
_cell_volume                     8195.86
loop_
_atom_site_label
_atom_site_type_symbol
_atom_site_fract_x
_atom_site_fract_y
_atom_site_fract_z
C7 C 0.2497(3) 0.0027(4) 0.2603(3)
C8 C 0.2506(3) 0.0812(4) 0.2642(3)
O3 O 0.21795(19) 0.10533(18) 0.2200(2)
O4 O 0.2914(6) 0.1115(6) 0.2920(6)
Zn4 Zn 0.19662(4) 0.19662(4) 0.19662(4)
Zn7 Zn 0.30918(5) 0.19596(5) 0.30771(5)
O8 O 0.2556(2) 0.2556(2) 0.2556(2)
O9 O 0.3911(5) 0.2429(6) 0.2964(6)
O10 O 0.3098(8) 0.2143(8) 0.3879(9)
C11 C 0.4327(5) 0.2423(5) 0.2641(5)
C14 C 0.5042(4) 0.2448(3) 0.2461(4)
C15 C 0.5472(4) 0.2071(4) 0.2785(4)
C16 C 0.5383(3) 0.2879(3) 0.2100(3)
N10 N 0.6078(3) 0.2270(3) 0.2626(3)
H7 H 0.5364 0.1720 0.3081
N11 N 0.60224(18) 0.27693(19) 0.22023(18)
H8 H 0.5200 0.3210 0.1818
Zn13 Zn 0.69920(5) 0.19920(5) 0.30080(5)
Zn14 Zn 0.69582(4) 0.30992(4) 0.19017(5)
Zn16 Zn 0.80983(5) 0.19582(4) 0.19008(4)
O15 O 0.75514(18) 0.25514(18) 0.24486(18)
N15 N 0.7197(3) 0.2923(3) 0.0992(2)
N16 N 0.7194(4) 0.4014(3) 0.2100(3)
N17 N 0.7900(3) 0.2194(4) 0.0986(3)
C20 C 0.7134(4) 0.2900(3) 0.0403(3)
C22 C 0.7893(3) 0.2092(3) 0.0415(4)
H11 H 0.6780 0.3136 0.0200
H12 H 0.8101 0.1701 0.0255
H18 H 0.384185 0.23727 0.240897
C21 C 0.7641(5) 0.0673(5) 0.7577(5)
C23 C 0.7603(3) 0.2503(3) 0.9973(4)
O16 O 0.7964(6) 0.1089(5) 0.7571(6)
C24 C 0.7642(3) 0.2494(3) 0.9188(4)
Zn17 Zn 0.80771(5) 0.19082(5) 0.80404(5)
O17 O 0.7200(2) 0.28205(19) 0.89467(18)
O18 O 0.7920(6) 0.2086(6) 0.8885(6)
O19 O 0.8879(9) 0.1902(8) 0.7857(8)
O20 O 0.7556(2) 0.2444(2) 0.7444(2)
Zn18 Zn 0.69662(4) 0.30338(4) 0.80338(4)
H21 H 0.740897 0.115815 0.76273
Zn1 Zn 0.30080(5) 0.69920(5) 0.19920(5)
O1 O 0.24486(18) 0.75514(18) 0.25514(18)
N1 N 0.2730(3) 0.7374(3) 0.1078(3)
Zn2 Zn 0.19008(4) 0.80983(5) 0.19582(4)
N2 N 0.22307(19) 0.77977(18) 0.10224(18)
C1 C 0.2929(4) 0.7215(4) 0.0472(4)
N3 N 0.2077(3) 0.9008(2) 0.2197(3)
N4 N 0.0986(3) 0.7900(3) 0.2194(4)
C2 C 0.2121(3) 0.7900(3) 0.0383(3)
H1 H 0.3280 0.6919 0.0364
C3 C 0.2552(3) 0.7539(4) 0.0042(4)
C4 C 0.2100(3) 0.9597(3) 0.2134(4)
C5 C 0.2908(3) 0.9585(4) 0.2893(3)
H2 H 0.1790 0.8182 0.0200
H3 H 0.1864 0.9800 0.1780
H4 H 0.3299 0.9745 0.3101
N5 N 0.3922(3) 0.7270(3) 0.2374(3)
N6 N 0.2626(3) 0.6078(3) 0.2270(3)
Zn5 Zn 0.30418(4) 0.80992(4) 0.30983(5)
Zn6 Zn 0.19017(5) 0.69582(4) 0.30992(4)
N7 N 0.2806(4) 0.9014(3) 0.2900(3)
C6 C 0.2577(5) 0.7359(5) 0.9327(5)
O2 O 0.2571(6) 0.7036(6) 0.8911(5)
Zn3 Zn 0.30404(5) 0.69229(5) 0.80918(5)
O5 O 0.2444(2) 0.7444(2) 0.7556(2)
O6 O 0.2857(8) 0.6121(9) 0.8098(8)
O7 O 0.3885(6) 0.7080(6) 0.7914(6)
Zn8 Zn 0.30338(4) 0.80338(4) 0.69662(4)
Zn9 Zn 0.19082(5) 0.80404(5) 0.80771(5)
Zn10 Zn 0.19229(5) 0.69082(5) 0.69596(5)
C9 C 0.4188(4) 0.7358(3) 0.7506(3)
O11 O 0.39467(18) 0.7800(2) 0.71795(19)
O12 O 0.28205(19) 0.89467(18) 0.7200(2)
O13 O 0.2800(2) 0.78205(19) 0.60533(18)
C10 C 0.4973(4) 0.7397(3) 0.7497(3)
C12 C 0.5403(3) 0.7866(4) 0.7100(3)
C13 C 0.5415(4) 0.7107(3) 0.7908(3)
N8 N 0.5992(2) 0.7803(3) 0.7077(3)
H5 H 0.5200 0.8220 0.6864
N9 N 0.5986(3) 0.7100(3) 0.7806(4)
H6 H 0.5255 0.6899 0.8299
Zn11 Zn 0.69017(5) 0.80418(4) 0.69008(4)
Zn12 Zn 0.69008(4) 0.69017(5) 0.80418(4)
N12 N 0.72023(18) 0.89776(18) 0.72307(19)
O14 O 0.74486(18) 0.74486(18) 0.74486(18)
N13 N 0.7100(3) 0.7806(4) 0.5986(3)
N14 N 0.7626(3) 0.8922(3) 0.7730(3)
C17 C 0.7100(3) 0.9617(3) 0.7121(3)
Zn15 Zn 0.80080(5) 0.80080(5) 0.80080(5)
C18 C 0.7785(4) 0.9528(4) 0.7929(4)
C19 C 0.7461(4) 0.9958(4) 0.7552(3)
H9 H 0.6818 0.9800 0.6790
H10 H 0.8081 0.9636 0.8280
H13 H 0.311713 0.7359 0.9327
Zn1_2 Zn 0.19920(5) 0.30080(5) 0.69920(5)
O1_2 O 0.25514(18) 0.24486(18) 0.75514(18)
N1_2 N 0.2270(3) 0.2626(3) 0.6078(3)
Zn2_2 Zn 0.30992(4) 0.19017(5) 0.69582(4)
N2_2 N 0.27693(19) 0.22023(18) 0.60224(18)
C1_2 C 0.2071(4) 0.2785(4) 0.5472(4)
N3_2 N 0.2923(3) 0.0992(2) 0.7197(3)
N4_2 N 0.4014(3) 0.2100(3) 0.7194(4)
C2_2 C 0.2879(3) 0.2100(3) 0.5383(3)
H1_2 H 0.1720 0.3081 0.5364
C3_2 C 0.2448(3) 0.2461(4) 0.5042(4)
C4_2 C 0.2900(3) 0.0403(3) 0.7134(4)
C5_2 C 0.2092(3) 0.0415(4) 0.7893(3)
H2_2 H 0.3210 0.1818 0.5200
C6_2 C 0.2423(5) 0.2641(5) 0.4327(5)
H3_2 H 0.3136 0.0200 0.6780
H4_2 H 0.1701 0.0255 0.8101
O2_2 O 0.2429(6) 0.2964(6) 0.3911(5)
Zn3_2 Zn 0.19596(5) 0.30771(5) 0.30918(5)
O6_2 O 0.2143(8) 0.3879(9) 0.3098(8)
N5_2 N 0.1078(3) 0.2730(3) 0.7374(3)
N6_2 N 0.2374(3) 0.3922(3) 0.7270(3)
Zn5_2 Zn 0.19582(4) 0.19008(4) 0.80983(5)
Zn6_2 Zn 0.30983(5) 0.30418(4) 0.80992(4)
N7_2 N 0.2194(4) 0.0986(3) 0.7900(3)
O7_2 O 0.1115(6) 0.2920(6) 0.2914(6)
Zn10_2 Zn 0.30771(5) 0.30918(5) 0.19596(5)
C9_2 C 0.0812(4) 0.2642(3) 0.2506(3)
O11_2 O 0.10533(18) 0.2200(2) 0.21795(19)
O13_2 O 0.2200(2) 0.21795(19) 0.10533(18)
C10_2 C 0.0027(4) 0.2603(3) 0.2497(3)
H13_2 H 0.188287 0.2641 0.4327
C7_2 C 0.2503(3) 0.9973(4) 0.7603(3)
C8_2 C 0.2494(3) 0.9188(4) 0.7642(3)
O4_2 O 0.2086(6) 0.8885(6) 0.7920(6)
O9_2 O 0.1089(5) 0.7571(6) 0.7964(6)
O10_2 O 0.1902(8) 0.7857(8) 0.8879(9)
C11_2 C 0.0673(5) 0.7577(5) 0.7641(5)
H18_2 H 0.115815 0.76273 0.740897
C12_2 C 0.9597(3) 0.2134(4) 0.2100(3)
C13_2 C 0.9585(4) 0.2893(3) 0.2908(3)
N8_2 N 0.9008(2) 0.2197(3) 0.2077(3)
H5_2 H 0.9800 0.1780 0.1864
N9_2 N 0.9014(3) 0.2900(3) 0.2806(4)
H6_2 H 0.9745 0.3101 0.3299
Zn12_2 Zn 0.80992(4) 0.30983(5) 0.30418(4)
N12_2 N 0.77977(18) 0.10224(18) 0.22307(19)
N14_2 N 0.7374(3) 0.1078(3) 0.2730(3)
C17_2 C 0.7900(3) 0.0383(3) 0.2121(3)
C18_2 C 0.7215(4) 0.0472(4) 0.2929(4)
C19_2 C 0.7539(4) 0.0042(4) 0.2552(3)
H9_2 H 0.8182 0.0200 0.1790
H10_2 H 0.6919 0.0364 0.3280
C14_2 C 0.9958(4) 0.7552(3) 0.7461(4)
C15_2 C 0.9528(4) 0.7929(4) 0.7785(4)
C16_2 C 0.9617(3) 0.7121(3) 0.7100(3)
N10_2 N 0.8922(3) 0.7730(3) 0.7626(3)
H7_2 H 0.9636 0.8280 0.8081
N11_2 N 0.89776(18) 0.72307(19) 0.72023(18)
H8_2 H 0.9800 0.6790 0.6818
Zn14_2 Zn 0.80418(4) 0.69008(4) 0.69017(5)
N15_2 N 0.7803(3) 0.7077(3) 0.5992(2)
N16_2 N 0.7806(4) 0.5986(3) 0.7100(3)
C20_2 C 0.7866(4) 0.7100(3) 0.5403(3)
C21_2 C 0.7359(5) 0.9327(5) 0.2577(5)
C22_2 C 0.7107(3) 0.7908(3) 0.5415(4)
H11_2 H 0.8220 0.6864 0.5200
C23_2 C 0.7397(3) 0.7497(3) 0.4973(4)
O16_2 O 0.7036(6) 0.8911(5) 0.2571(6)
H12_2 H 0.6899 0.8299 0.5255
C24_2 C 0.7358(3) 0.7506(3) 0.4188(4)
Zn17_2 Zn 0.69229(5) 0.80918(5) 0.30404(5)
O17_2 O 0.7800(2) 0.71795(19) 0.39467(18)
O18_2 O 0.7080(6) 0.7914(6) 0.3885(6)
O19_2 O 0.6121(9) 0.8098(8) 0.2857(8)
O20_2 O 0.7444(2) 0.7556(2) 0.2444(2)
Zn18_2 Zn 0.80338(4) 0.69662(4) 0.30338(4)
H21_2 H 0.759103 0.884185 0.26273
N1_3 N 0.7270(3) 0.2374(3) 0.3922(3)
N2_3 N 0.77693(19) 0.27977(18) 0.39776(18)
C1_3 C 0.7071(4) 0.2215(4) 0.4528(4)
N3_3 N 0.7923(3) 0.4008(2) 0.2803(3)
C2_3 C 0.7879(3) 0.2900(3) 0.4617(3)
H1_3 H 0.6720 0.1919 0.4636
C3_3 C 0.7448(3) 0.2539(4) 0.4958(4)
C4_3 C 0.7900(3) 0.4597(3) 0.2866(4)
C5_3 C 0.7092(3) 0.4585(4) 0.2107(3)
H2_3 H 0.8210 0.3182 0.4800
C6_3 C 0.7423(5) 0.2359(5) 0.5673(5)
H3_3 H 0.8136 0.4800 0.3220
C7_3 C 0.7503(3) 0.5027(4) 0.2397(3)
H4_3 H 0.6701 0.4745 0.1899
O2_3 O 0.7429(6) 0.2036(6) 0.6089(5)
C8_3 C 0.7494(3) 0.5812(4) 0.2358(3)
Zn3_3 Zn 0.69596(5) 0.19229(5) 0.69082(5)
O3_2 O 0.78205(19) 0.60533(18) 0.2800(2)
O4_3 O 0.7086(6) 0.6115(6) 0.2080(6)
O6_3 O 0.7143(8) 0.1121(9) 0.6902(8)
O7_3 O 0.6115(6) 0.2080(6) 0.7086(6)
Zn7_2 Zn 0.69082(5) 0.69596(5) 0.19229(5)
Zn9_2 Zn 0.80918(5) 0.30404(5) 0.69229(5)
C9_3 C 0.5812(4) 0.2358(3) 0.7494(3)
O9_3 O 0.6089(5) 0.7429(6) 0.2036(6)
O10_3 O 0.6902(8) 0.7143(8) 0.1121(9)
O11_3 O 0.60533(18) 0.2800(2) 0.78205(19)
O12_2 O 0.71795(19) 0.39467(18) 0.7800(2)
C10_3 C 0.5027(4) 0.2397(3) 0.7503(3)
C11_3 C 0.5673(5) 0.7423(5) 0.2359(5)
C12_3 C 0.4597(3) 0.2866(4) 0.7900(3)
C13_3 C 0.4585(4) 0.2107(3) 0.7092(3)
C14_3 C 0.4958(4) 0.7448(3) 0.2539(4)
N8_3 N 0.4008(2) 0.2803(3) 0.7923(3)
H5_3 H 0.4800 0.3220 0.8136
H6_3 H 0.4745 0.1899 0.6701
C15_3 C 0.4528(4) 0.7071(4) 0.2215(4)
C16_3 C 0.4617(3) 0.7879(3) 0.2900(3)
H7_3 H 0.4636 0.6720 0.1919
N11_3 N 0.39776(18) 0.77693(19) 0.27977(18)
H8_3 H 0.4800 0.8210 0.3182
N12_3 N 0.27977(18) 0.39776(18) 0.77693(19)
N13_2 N 0.2900(3) 0.2806(4) 0.9014(3)
C17_3 C 0.2900(3) 0.4617(3) 0.7879(3)
N15_3 N 0.2803(3) 0.7923(3) 0.4008(2)
C18_3 C 0.2215(4) 0.4528(4) 0.7071(4)
C19_3 C 0.2539(4) 0.4958(4) 0.7448(3)
H9_3 H 0.3182 0.4800 0.8210
N17_2 N 0.2100(3) 0.7194(4) 0.4014(3)
C20_3 C 0.2866(4) 0.7900(3) 0.4597(3)
H10_3 H 0.1919 0.4636 0.6720
C21_3 C 0.2359(5) 0.5673(5) 0.7423(5)
C22_3 C 0.2107(3) 0.7092(3) 0.4585(4)
H11_3 H 0.3220 0.8136 0.4800
C23_3 C 0.2397(3) 0.7503(3) 0.5027(4)
O16_3 O 0.2036(6) 0.6089(5) 0.7429(6)
H12_3 H 0.1899 0.6701 0.4745
C24_3 C 0.2358(3) 0.7494(3) 0.5812(4)
O18_3 O 0.2080(6) 0.7086(6) 0.6115(6)
O19_3 O 0.1121(9) 0.6902(8) 0.7143(8)
H13_3 H 0.688287 0.2359 0.5673
H18_3 H 0.615815 0.73727 0.259103
H21_3 H 0.259103 0.615815 0.73727
C12_4 C 0.0403(3) 0.7134(4) 0.2900(3)
C13_4 C 0.0415(4) 0.7893(3) 0.2092(3)
N8_4 N 0.0992(2) 0.7197(3) 0.2923(3)
H5_4 H 0.0200 0.6780 0.3136
H6_4 H 0.0255 0.8101 0.1701
N12_4 N 0.22023(18) 0.60224(18) 0.27693(19)
C17_4 C 0.2100(3) 0.5383(3) 0.2879(3)
C18_4 C 0.2785(4) 0.5472(4) 0.2071(4)
C19_4 C 0.2461(4) 0.5042(4) 0.2448(3)
H9_4 H 0.1818 0.5200 0.3210
H10_4 H 0.3081 0.5364 0.1720
C21_4 C 0.2641(5) 0.4327(5) 0.2423(5)
C23_4 C 0.2603(3) 0.2497(3) 0.0027(4)
O16_4 O 0.2964(6) 0.3911(5) 0.2429(6)
C24_4 C 0.2642(3) 0.2506(3) 0.0812(4)
O18_4 O 0.2920(6) 0.2914(6) 0.1115(6)
O19_4 O 0.3879(9) 0.3098(8) 0.2143(8)
H21_4 H 0.240897 0.384185 0.23727
C14_4 C 0.0042(4) 0.2552(3) 0.7539(4)
C15_4 C 0.0472(4) 0.2929(4) 0.7215(4)
C16_4 C 0.0383(3) 0.2121(3) 0.7900(3)
H7_4 H 0.0364 0.3280 0.6919
N11_4 N 0.10224(18) 0.22307(19) 0.77977(18)
H8_4 H 0.0200 0.1790 0.8182
N15_4 N 0.2197(3) 0.2077(3) 0.9008(2)
C20_4 C 0.2134(4) 0.2100(3) 0.9597(3)
C22_4 C 0.2893(3) 0.2908(3) 0.9585(4)
H11_4 H 0.1780 0.1864 0.9800
H12_4 H 0.3101 0.3299 0.9745
C6_4 C 0.7577(5) 0.7641(5) 0.0673(5)
O2_4 O 0.7571(6) 0.7964(6) 0.1089(5)
Zn3_4 Zn 0.80404(5) 0.80771(5) 0.19082(5)
O6_4 O 0.7857(8) 0.8879(9) 0.1902(8)
O7_4 O 0.8885(6) 0.7920(6) 0.2086(6)
C9_4 C 0.9188(4) 0.7642(3) 0.2494(3)
O11_4 O 0.89467(18) 0.7200(2) 0.28205(19)
C10_4 C 0.9973(4) 0.7603(3) 0.2503(3)
H13_4 H 0.811713 0.7641 0.0673
N1_4 N 0.7730(3) 0.7626(3) 0.8922(3)
N2_4 N 0.72307(19) 0.72023(18) 0.89776(18)
C1_4 C 0.7929(4) 0.7785(4) 0.9528(4)
N3_4 N 0.7077(3) 0.5992(2) 0.7803(3)
C2_4 C 0.7121(3) 0.7100(3) 0.9617(3)
H1_4 H 0.8280 0.8081 0.9636
C3_4 C 0.7552(3) 0.7461(4) 0.9958(4)
C4_4 C 0.7100(3) 0.5403(3) 0.7866(4)
C5_4 C 0.7908(3) 0.5415(4) 0.7107(3)
H2_4 H 0.6790 0.6818 0.9800
H3_4 H 0.6864 0.5200 0.8220
C7_4 C 0.7497(3) 0.4973(4) 0.7397(3)
H4_4 H 0.8299 0.5255 0.6899
C8_4 C 0.7506(3) 0.4188(4) 0.7358(3)
O4_4 O 0.7914(6) 0.3885(6) 0.7080(6)
O9_4 O 0.8911(5) 0.2571(6) 0.7036(6)
O10_4 O 0.8098(8) 0.2857(8) 0.6121(9)
C11_4 C 0.9327(5) 0.2577(5) 0.7359(5)
H18_4 H 0.884185 0.26273 0.759103
H21_5 H 0.76273 0.740897 0.115815
H13_5 H 0.9327 0.311713 0.7359
H13_6 H 0.4327 0.188287 0.2641
H21_6 H 0.26273 0.759103 0.884185
H13_7 H 0.5673 0.688287 0.2359
H21_7 H 0.73727 0.259103 0.615815
H21_8 H 0.23727 0.240897 0.384185
H13_8 H 0.0673 0.811713 0.7641
H13_9 H 0.7359 0.9327 0.311713
H13_10 H 0.2641 0.4327 0.188287
H13_11 H 0.2359 0.5673 0.688287
H13_12 H 0.7641 0.0673 0.811713
loop_
_geom_bond_atom_site_label_1
_geom_bond_atom_site_label_2
_geom_bond_site_symmetry_1
_geom_bond_site_symmetry_2
C8 C7 1_555 1_555
O3 C8 1_555 1_555
O4 C8 1_555 1_555
Zn4 O3 1_555 1_555
Zn7 O4 1_555 1_555
O8 Zn4 1_555 1_555
O9 Zn7 1_555 1_555
O10 Zn7 1_555 1_555
C11 O9 1_555 1_555
C14 C11 1_555 1_555
C15 C14 1_555 1_555
C16 C14 1_555 1_555
N10 C15 1_555 1_555
H7 C15 1_555 1_555
N11 C16 1_555 1_555
H8 C16 1_555 1_555
Zn13 N10 1_555 1_555
Zn14 N11 1_555 1_555
Zn16 O15 1_555 1_555
O15 Zn13 1_555 1_555
N15 Zn14 1_555 1_555
N16 Zn14 1_555 1_555
N17 Zn16 1_555 1_555
C20 N15 1_555 1_555
C22 N17 1_555 1_555
H11 C20 1_555 1_555
H12 C22 1_555 1_555
Zn7 O8 1_555 1_555
N10 N11 1_555 1_555
Zn14 O15 1_555 1_555
N15 N17 1_555 1_555
C11 H18 1_555 1_555
O16 C21 1_555 1_555
C24 C23 1_555 1_555
Zn17 O16 1_555 1_555
O17 C24 1_555 1_555
O18 C24 1_555 1_555
O19 Zn17 1_555 1_555
O20 Zn17 1_555 1_555
Zn18 O17 1_555 1_555
Zn17 O18 1_555 1_555
O20 Zn18 1_555 1_555
C21 H21 1_555 1_555
Zn1 O1 1_555 1_555
O1 Zn2 1_555 1_555
N1 Zn1 1_555 1_555
Zn2 N2 1_555 1_555
N2 N1 1_555 1_555
C1 N1 1_555 1_555
N3 Zn2 1_555 1_555
N4 Zn2 1_555 1_555
C2 N2 1_555 1_555
H1 C1 1_555 1_555
C3 C1 1_555 1_555
C4 N3 1_555 1_555
H2 C2 1_555 1_555
H3 C4 1_555 1_555
H4 C5 1_555 1_555
N5 Zn1 1_555 1_555
N6 Zn1 1_555 1_555
Zn5 O1 1_555 1_555
Zn6 O1 1_555 1_555
N7 N3 1_555 1_555
C2 C3 1_555 1_555
C5 N7 1_555 1_555
Zn5 N7 1_555 1_555
O2 C6 1_555 1_555
Zn3 O2 1_555 1_555
O5 Zn3 1_555 1_555
O6 Zn3 1_555 1_555
O7 Zn3 1_555 1_555
Zn8 O5 1_555 1_555
Zn9 O5 1_555 1_555
Zn10 O5 1_555 1_555
C9 O7 1_555 1_555
O11 Zn8 1_555 1_555
O12 Zn8 1_555 1_555
O13 Zn8 1_555 1_555
C10 C9 1_555 1_555
C12 C10 1_555 1_555
C13 C10 1_555 1_555
N8 C12 1_555 1_555
H5 C12 1_555 1_555
N9 C13 1_555 1_555
H6 C13 1_555 1_555
Zn11 N8 1_555 1_555
Zn12 N9 1_555 1_555
N12 Zn11 1_555 1_555
O14 Zn11 1_555 1_555
N13 Zn11 1_555 1_555
N14 N12 1_555 1_555
C17 N12 1_555 1_555
Zn15 O14 1_555 1_555
C18 N14 1_555 1_555
C19 C17 1_555 1_555
H9 C17 1_555 1_555
H10 C18 1_555 1_555
C9 O11 1_555 1_555
N8 N9 1_555 1_555
Zn12 O14 1_555 1_555
N14 Zn15 1_555 1_555
C18 C19 1_555 1_555
C6 H13 1_555 1_555
Zn1_2 O1_2 1_555 1_555
O1_2 Zn2_2 1_555 1_555
N1_2 Zn1_2 1_555 1_555
Zn2_2 N2_2 1_555 1_555
N2_2 N1_2 1_555 1_555
C1_2 N1_2 1_555 1_555
N3_2 Zn2_2 1_555 1_555
N4_2 Zn2_2 1_555 1_555
C2_2 N2_2 1_555 1_555
H1_2 C1_2 1_555 1_555
C3_2 C1_2 1_555 1_555
C4_2 N3_2 1_555 1_555
H2_2 C2_2 1_555 1_555
C6_2 C3_2 1_555 1_555
H3_2 C4_2 1_555 1_555
H4_2 C5_2 1_555 1_555
O2_2 C6_2 1_555 1_555
Zn3_2 O2_2 1_555 1_555
O8 Zn3_2 1_555 1_555
O6_2 Zn3_2 1_555 1_555
N5_2 Zn1_2 1_555 1_555
N6_2 Zn1_2 1_555 1_555
Zn5_2 O1_2 1_555 1_555
Zn6_2 O1_2 1_555 1_555
N7_2 N3_2 1_555 1_555
O7_2 Zn3_2 1_555 1_555
Zn10_2 O8 1_555 1_555
C9_2 O7_2 1_555 1_555
O11_2 Zn4 1_555 1_555
O13_2 Zn4 1_555 1_555
C10_2 C9_2 1_555 1_555
C2_2 C3_2 1_555 1_555
C5_2 N7_2 1_555 1_555
Zn5_2 N7_2 1_555 1_555
C9_2 O11_2 1_555 1_555
C6_2 H13_2 1_555 1_555
C8_2 C7_2 1_555 1_555
O12 C8_2 1_555 1_555
O4_2 C8_2 1_555 1_555
Zn9 O4_2 1_555 1_555
O9_2 Zn9 1_555 1_555
O10_2 Zn9 1_555 1_555
C11_2 O9_2 1_555 1_555
C11_2 H18_2 1_555 1_555
N8_2 C12_2 1_555 1_555
H5_2 C12_2 1_555 1_555
N9_2 C13_2 1_555 1_555
H6_2 C13_2 1_555 1_555
Zn16 N8_2 1_555 1_555
Zn12_2 N9_2 1_555 1_555
N12_2 Zn16 1_555 1_555
N14_2 N12_2 1_555 1_555
C17_2 N12_2 1_555 1_555
C18_2 N14_2 1_555 1_555
C19_2 C17_2 1_555 1_555
H9_2 C17_2 1_555 1_555
H10_2 C18_2 1_555 1_555
N8_2 N9_2 1_555 1_555
Zn12_2 O15 1_555 1_555
N14_2 Zn13 1_555 1_555
C18_2 C19_2 1_555 1_555
C15_2 C14_2 1_555 1_555
C16_2 C14_2 1_555 1_555
N10_2 C15_2 1_555 1_555
H7_2 C15_2 1_555 1_555
N11_2 C16_2 1_555 1_555
H8_2 C16_2 1_555 1_555
Zn15 N10_2 1_555 1_555
Zn14_2 N11_2 1_555 1_555
N15_2 Zn14_2 1_555 1_555
N16_2 Zn14_2 1_555 1_555
C20_2 N15_2 1_555 1_555
C22_2 N13 1_555 1_555
H11_2 C20_2 1_555 1_555
C23_2 C20_2 1_555 1_555
O16_2 C21_2 1_555 1_555
H12_2 C22_2 1_555 1_555
C24_2 C23_2 1_555 1_555
Zn17_2 O16_2 1_555 1_555
O17_2 C24_2 1_555 1_555
O18_2 C24_2 1_555 1_555
O19_2 Zn17_2 1_555 1_555
O20_2 Zn17_2 1_555 1_555
Zn18_2 O17_2 1_555 1_555
N10_2 N11_2 1_555 1_555
Zn14_2 O14 1_555 1_555
N15_2 N13 1_555 1_555
C22_2 C23_2 1_555 1_555
Zn17_2 O18_2 1_555 1_555
O20_2 Zn18_2 1_555 1_555
C21_2 H21_2 1_555 1_555
N1_3 Zn13 1_555 1_555
Zn12_2 N2_3 1_555 1_555
N2_3 N1_3 1_555 1_555
C1_3 N1_3 1_555 1_555
N3_3 Zn12_2 1_555 1_555
C2_3 N2_3 1_555 1_555
H1_3 C1_3 1_555 1_555
C3_3 C1_3 1_555 1_555
C4_3 N3_3 1_555 1_555
C5_3 C7_3 1_555 1_555
H2_3 C2_3 1_555 1_555
C6_3 C3_3 1_555 1_555
H3_3 C4_3 1_555 1_555
C7_3 C4_3 1_555 1_555
H4_3 C5_3 1_555 1_555
O2_3 C6_3 1_555 1_555
C8_3 C7_3 1_555 1_555
Zn3_3 O2_3 1_555 1_555
O3_2 C8_3 1_555 1_555
O4_3 C8_3 1_555 1_555
O20 Zn3_3 1_555 1_555
O6_3 Zn3_3 1_555 1_555
Zn18_2 O3_2 1_555 1_555
N16 N3_3 1_555 1_555
O7_3 Zn3_3 1_555 1_555
Zn7_2 O4_3 1_555 1_555
Zn9_2 O20 1_555 1_555
C9_3 O7_3 1_555 1_555
O9_3 Zn7_2 1_555 1_555
O10_3 Zn7_2 1_555 1_555
O11_3 Zn18 1_555 1_555
O12_2 Zn18 1_555 1_555
C10_3 C9_3 1_555 1_555
C11_3 O9_3 1_555 1_555
C12_3 C10_3 1_555 1_555
C13_3 C10_3 1_555 1_555
C14_3 C11_3 1_555 1_555
N8_3 C12_3 1_555 1_555
H5_3 C12_3 1_555 1_555
N4_2 C13_3 1_555 1_555
H6_3 C13_3 1_555 1_555
C15_3 C14_3 1_555 1_555
C16_3 C14_3 1_555 1_555
Zn6_2 N8_3 1_555 1_555
N5 C15_3 1_555 1_555
H7_3 C15_3 1_555 1_555
N11_3 C16_3 1_555 1_555
H8_3 C16_3 1_555 1_555
N12_3 Zn6_2 1_555 1_555
N13_2 Zn6_2 1_555 1_555
Zn5 N11_3 1_555 1_555
N6_2 N12_3 1_555 1_555
C17_3 N12_3 1_555 1_555
N15_3 Zn5 1_555 1_555
C18_3 N6_2 1_555 1_555
C19_3 C17_3 1_555 1_555
H9_3 C17_3 1_555 1_555
N17_2 Zn6 1_555 1_555
C20_3 N15_3 1_555 1_555
H10_3 C18_3 1_555 1_555
C21_3 C19_3 1_555 1_555
C22_3 N17_2 1_555 1_555
H11_3 C20_3 1_555 1_555
C23_3 C20_3 1_555 1_555
O16_3 C21_3 1_555 1_555
H12_3 C22_3 1_555 1_555
C24_3 C23_3 1_555 1_555
Zn10 O16_3 1_555 1_555
O13 C24_3 1_555 1_555
O18_3 C24_3 1_555 1_555
O19_3 Zn10 1_555 1_555
C2_3 C3_3 1_555 1_555
C5_3 N16 1_555 1_555
Zn7_2 O20_2 1_555 1_555
C9_3 O11_3 1_555 1_555
N8_3 N4_2 1_555 1_555
N5 N11_3 1_555 1_555
N15_3 N17_2 1_555 1_555
C18_3 C19_3 1_555 1_555
C22_3 C23_3 1_555 1_555
Zn10 O18_3 1_555 1_555
C6_3 H13_3 1_555 1_555
C11_3 H18_3 1_555 1_555
C21_3 H21_3 1_555 1_555
N8_4 C12_4 1_555 1_555
H5_4 C12_4 1_555 1_555
N4 C13_4 1_555 1_555
H6_4 C13_4 1_555 1_555
Zn6 N8_4 1_555 1_555
N12_4 Zn6 1_555 1_555
N6 N12_4 1_555 1_555
C17_4 N12_4 1_555 1_555
C18_4 N6 1_555 1_555
C19_4 C17_4 1_555 1_555
H9_4 C17_4 1_555 1_555
H10_4 C18_4 1_555 1_555
C21_4 C19_4 1_555 1_555
O16_4 C21_4 1_555 1_555
C24_4 C23_4 1_555 1_555
Zn10_2 O16_4 1_555 1_555
O13_2 C24_4 1_555 1_555
O18_4 C24_4 1_555 1_555
O19_4 Zn10_2 1_555 1_555
N8_4 N4 1_555 1_555
C18_4 C19_4 1_555 1_555
Zn10_2 O18_4 1_555 1_555
C21_4 H21_4 1_555 1_555
C15_4 C14_4 1_555 1_555
C16_4 C14_4 1_555 1_555
N5_2 C15_4 1_555 1_555
H7_4 C15_4 1_555 1_555
N11_4 C16_4 1_555 1_555
H8_4 C16_4 1_555 1_555
Zn5_2 N11_4 1_555 1_555
N15_4 Zn5_2 1_555 1_555
C20_4 N15_4 1_555 1_555
C22_4 N13_2 1_555 1_555
H11_4 C20_4 1_555 1_555
H12_4 C22_4 1_555 1_555
N5_2 N11_4 1_555 1_555
N15_4 N13_2 1_555 1_555
O2_4 C6_4 1_555 1_555
Zn3_4 O2_4 1_555 1_555
O20_2 Zn3_4 1_555 1_555
O6_4 Zn3_4 1_555 1_555
O7_4 Zn3_4 1_555 1_555
C9_4 O7_4 1_555 1_555
O11_4 Zn18_2 1_555 1_555
C10_4 C9_4 1_555 1_555
C9_4 O11_4 1_555 1_555
C6_4 H13_4 1_555 1_555
N1_4 Zn15 1_555 1_555
Zn12 N2_4 1_555 1_555
N2_4 N1_4 1_555 1_555
C1_4 N1_4 1_555 1_555
N3_4 Zn12 1_555 1_555
C2_4 N2_4 1_555 1_555
H1_4 C1_4 1_555 1_555
C3_4 C1_4 1_555 1_555
C4_4 N3_4 1_555 1_555
C5_4 C7_4 1_555 1_555
H2_4 C2_4 1_555 1_555
H3_4 C4_4 1_555 1_555
C7_4 C4_4 1_555 1_555
H4_4 C5_4 1_555 1_555
C8_4 C7_4 1_555 1_555
O12_2 C8_4 1_555 1_555
O4_4 C8_4 1_555 1_555
N16_2 N3_4 1_555 1_555
Zn9_2 O4_4 1_555 1_555
O9_4 Zn9_2 1_555 1_555
O10_4 Zn9_2 1_555 1_555
C11_4 O9_4 1_555 1_555
C2_4 C3_4 1_555 1_555
C5_4 N16_2 1_555 1_555
C11_4 H18_4 1_555 1_555
C6_4 H21_5 1_555 1_555
C11_4 H13_5 1_555 1_555
C11 H13_6 1_555 1_555
C6 H21_6 1_555 1_555
C11_3 H13_7 1_555 1_555
C6_3 H21_7 1_555 1_555
C6_2 H21_8 1_555 1_555
C11_2 H13_8 1_555 1_555
C21_2 H13_9 1_555 1_555
C21_4 H13_10 1_555 1_555
C21_3 H13_11 1_555 1_555
C21 H13_12 1_555 1_555

#END
