
###############################################################################
#
# This file contains modified crystal structure data generated from the
# MOF subset of the Cambridge Structural Database (CSD) v543 
# hosted by the Cambridge Crystallographic Data Centre (CCDC).
#
# This work is licensed under the Creative Commons
# Attribution-NonCommercial-ShareAlike 4.0 International License.
# To view a copy of this license, visit
# http://creativecommons.org/licenses/by-nc-sa/4.0/
# or send a letter to
# Creative Commons, PO Box 1866, Mountain View, CA 94042, USA.
#
# CIF created using the CSD Python API on 29 September 2022
# The structure has been converted into the P1 space group
# The structure has a 3D framework
# The original CSD entry BUKSIL is in the cubic crystal system
# The original CSD entry BUKSIL is in a Sohncke space group
# The framework has been calculated to contain at least 10.0% void space
# The void calculation uses a probe of radius 1.32A, grid spacing 0.4
#
###############################################################################

data_BUKSIL
_chemical_formula_moiety         '(C96 H48 Co7 N48 O54 Zn24)n'
_symmetry_cell_setting           triclinic
_symmetry_space_group_name_H-M   'P 1'
_symmetry_Int_Tables_number      1
_space_group_name_Hall           'P 1'
loop_
_symmetry_equiv_pos_site_id
_symmetry_equiv_pos_as_xyz
1 x,y,z
_cell_length_a                   20.1310(4)
_cell_length_b                   20.1310(4)
_cell_length_c                   20.1310(4)
_cell_angle_alpha                90
_cell_angle_beta                 90
_cell_angle_gamma                90
_cell_volume                     8158.23
loop_
_atom_site_label
_atom_site_type_symbol
_atom_site_fract_x
_atom_site_fract_y
_atom_site_fract_z
N9 N 0.0952(5) 0.7693(4) 0.2713(5)
N10 N 0.1049(3) 0.7180(4) 0.2270(4)
C17 C 0.0369(5) 0.7919(5) 0.2874(6)
H9 H 0.0255 0.8226 0.3207
C18 C 0.0454(8) 0.7155(9) 0.2145(8)
H10 H 0.0298 0.6837 0.1841
Zn11 Zn 0.19246(6) 0.69480(6) 0.19499(6)
Co3 Co 0.19253(6) 0.80747(6) 0.30747(6)
Zn4 Zn 0.80754(6) 0.19480(6) 0.30501(6)
N5 N 0.7739(4) 0.0990(4) 0.2661(4)
N6 N 0.7218(3) 0.1068(3) 0.2197(3)
C9 C 0.7538(5) 0.0006(6) 0.2524(5)
C10 C 0.7055(6) 0.0384(6) 0.2127(6)
H5 H 0.6705 0.0207 0.1874
C11 C 0.7871(6) 0.0454(6) 0.2888(7)
H6 H 0.8153 0.0366 0.3250
Zn9 Zn 0.69480(6) 0.19499(6) 0.19246(6)
Co5 Co 0.80747(6) 0.30747(6) 0.19253(6)
N15 N 0.7803(3) 0.2218(3) 0.3932(3)
N18 N 0.8951(3) 0.2180(4) 0.2730(4)
O17 O 0.7555(3) 0.2555(3) 0.2445(3)
Zn1 Zn 0.80484(6) 0.69678(6) 0.19279(6)
Zn2 Zn 0.30520(6) 0.69499(6) 0.30754(6)
Co2 Co 0.69058(7) 0.80942(7) 0.19058(7)
N1 N 0.4010(4) 0.7339(4) 0.2739(4)
N2 N 0.3932(3) 0.7803(3) 0.2218(3)
C1 C 0.4994(6) 0.7476(5) 0.2538(5)
C2 C 0.4616(6) 0.7873(6) 0.2055(6)
H1 H 0.4793 0.8126 0.1705
C3 C 0.4546(6) 0.7112(7) 0.2871(6)
H2 H 0.4634 0.6750 0.3153
O1 O 0.7464(3) 0.7536(3) 0.2464(3)
O2 O 0.5999(5) 0.7165(6) 0.2812(6)
O3 O 0.6040(3) 0.7863(4) 0.2134(4)
O6 O 0.2445(3) 0.7555(3) 0.2555(3)
C8 C 0.5634(8) 0.7436(8) 0.2575(7)
Zn3 Zn 0.69279(6) 0.69516(6) 0.30322(6)
O7 O 0.7812(6) 0.9001(5) 0.2835(6)
O8 O 0.7134(4) 0.8960(3) 0.2137(4)
C12 C 0.7575(7) 0.9366(8) 0.2564(8)
Zn5 Zn 0.80322(6) 0.80721(6) 0.30484(6)
O9 O 0.7835(6) 0.7188(6) 0.0999(5)
O10 O 0.7137(4) 0.7866(4) 0.1040(3)
C16 C 0.7564(8) 0.7425(7) 0.0634(8)
O11 O 0.8926(4) 0.7158(5) 0.2117(5)
O12 O 0.9055(6) 0.7925(7) 0.2912(6)
C19 C 0.9983(6) 0.7609(5) 0.2457(5)
C20 C 0.9221(7) 0.7543(7) 0.2380(6)
N11 N 0.7713(5) 0.4048(5) 0.2307(4)
N12 N 0.7270(4) 0.3951(3) 0.2820(4)
C21 C 0.7874(6) 0.4631(5) 0.2081(5)
H11 H 0.8207 0.4745 0.1774
C22 C 0.7145(8) 0.4546(8) 0.2845(9)
H12 H 0.6841 0.4702 0.3163
O13 O 0.7117(5) 0.6074(4) 0.2842(5)
O14 O 0.7912(6) 0.5945(6) 0.2075(7)
C23 C 0.7457(5) 0.5017(6) 0.2391(5)
C24 C 0.7380(6) 0.5779(7) 0.2457(7)
Zn13 Zn 0.69499(6) 0.30754(6) 0.30520(6)
Zn14 Zn 0.30501(6) 0.80754(6) 0.19480(6)
N14 N 0.2782(3) 0.6068(3) 0.2803(3)
N16 N 0.2287(5) 0.9048(5) 0.2693(4)
N17 N 0.2307(4) 0.7713(5) 0.4048(5)
N20 N 0.2820(4) 0.7270(4) 0.3951(3)
O15 O 0.7842(5) 0.7883(5) 0.3926(4)
O16 O 0.7075(7) 0.7088(6) 0.4055(6)
Zn6 Zn 0.80501(6) 0.69246(6) 0.80520(6)
N7 N 0.7661(4) 0.7261(4) 0.9010(4)
N8 N 0.7197(3) 0.7782(3) 0.8932(3)
C13 C 0.7524(5) 0.7462(5) 0.9994(6)
C14 C 0.7127(6) 0.7945(6) 0.9616(6)
H7 H 0.6874 0.8295 0.9793
C15 C 0.7888(7) 0.7129(6) 0.9546(6)
H8 H 0.8250 0.6847 0.9634
Zn12 Zn 0.69246(6) 0.80520(6) 0.80501(6)
Co6 Co 0.69253(6) 0.69253(6) 0.69253(6)
N13 N 0.8932(3) 0.7197(3) 0.7782(3)
N19 N 0.7730(4) 0.6049(3) 0.7820(4)
O18 O 0.7445(3) 0.7445(3) 0.7445(3)
Zn2_2 Zn 0.19480(6) 0.30501(6) 0.80754(6)
Co1 Co 0.30747(6) 0.19253(6) 0.80747(6)
N1_2 N 0.0990(4) 0.2661(4) 0.7739(4)
N2_2 N 0.1068(3) 0.2197(3) 0.7218(3)
C1_2 C 0.0006(6) 0.2524(5) 0.7538(5)
C2_2 C 0.0384(6) 0.2127(6) 0.7055(6)
H1_2 H 0.0207 0.1874 0.6705
C3_2 C 0.0454(6) 0.2888(7) 0.7871(6)
H2_2 H 0.0366 0.3250 0.8153
N3 N 0.4048(5) 0.2307(4) 0.7713(5)
N4 N 0.3951(3) 0.2820(4) 0.7270(4)
C4 C 0.4631(5) 0.2081(5) 0.7874(6)
H3 H 0.4745 0.1774 0.8207
C5 C 0.4546(8) 0.2845(9) 0.7145(8)
H4 H 0.4702 0.3163 0.6841
O4 O 0.6074(4) 0.2842(5) 0.7117(5)
O5 O 0.5945(6) 0.2075(7) 0.7912(6)
O6_2 O 0.2555(3) 0.2445(3) 0.7555(3)
C6 C 0.5017(6) 0.2391(5) 0.7457(5)
C7 C 0.5779(7) 0.2457(7) 0.7380(6)
Zn7 Zn 0.69516(6) 0.30322(6) 0.69279(6)
Zn8 Zn 0.69678(6) 0.19279(6) 0.80484(6)
Zn10 Zn 0.30754(6) 0.30520(6) 0.69499(6)
Zn14_2 Zn 0.19499(6) 0.19246(6) 0.69480(6)
N14_2 N 0.2218(3) 0.3932(3) 0.7803(3)
N16_2 N 0.2713(5) 0.0952(5) 0.7693(4)
N17_2 N 0.2693(4) 0.2287(5) 0.9048(5)
N20_2 N 0.2180(4) 0.2730(4) 0.8951(3)
Co2_2 Co 0.80942(7) 0.19058(7) 0.69058(7)
O1_2 O 0.7536(3) 0.2464(3) 0.7464(3)
O2_2 O 0.9001(5) 0.2835(6) 0.7812(6)
O3_2 O 0.8960(3) 0.2137(4) 0.7134(4)
C8_2 C 0.9366(8) 0.2564(8) 0.7575(7)
Zn3_2 Zn 0.80721(6) 0.30484(6) 0.80322(6)
O7_2 O 0.7188(6) 0.0999(5) 0.7835(6)
O8_2 O 0.7866(4) 0.1040(3) 0.7137(4)
C12_2 C 0.7425(7) 0.0634(8) 0.7564(8)
N7_2 N 0.7339(4) 0.2739(4) 0.4010(4)
C13_2 C 0.7476(5) 0.2538(5) 0.4994(6)
C14_2 C 0.7873(6) 0.2055(6) 0.4616(6)
H7_2 H 0.8126 0.1705 0.4793
C15_2 C 0.7112(7) 0.2871(6) 0.4546(6)
H8_2 H 0.6750 0.3153 0.4634
O9_2 O 0.7165(6) 0.2812(6) 0.5999(5)
O10_2 O 0.7863(4) 0.2134(4) 0.6040(3)
C16_2 C 0.7436(8) 0.2575(7) 0.5634(8)
N11_2 N 0.7287(5) 0.5952(5) 0.7307(4)
C21_2 C 0.7126(6) 0.5369(5) 0.7081(5)
H11_2 H 0.6793 0.5255 0.6774
C22_2 C 0.7855(8) 0.5454(8) 0.7845(9)
H12_2 H 0.8159 0.5298 0.8163
O13_2 O 0.7883(5) 0.3926(4) 0.7842(5)
O14_2 O 0.7088(6) 0.4055(6) 0.7075(7)
C23_2 C 0.7543(5) 0.4983(6) 0.7391(5)
C24_2 C 0.7620(6) 0.4221(7) 0.7457(7)
N13_2 N 0.6068(3) 0.2803(3) 0.2782(3)
O15_2 O 0.7158(5) 0.2117(5) 0.8926(4)
O16_2 O 0.7925(7) 0.2912(6) 0.9055(6)
N5_2 N 0.7261(4) 0.9010(4) 0.7661(4)
N6_2 N 0.7782(3) 0.8932(3) 0.7197(3)
C9_2 C 0.7462(5) 0.9994(6) 0.7524(5)
C10_2 C 0.7945(6) 0.9616(6) 0.7127(6)
H5_2 H 0.8295 0.9793 0.6874
C11_2 C 0.7129(6) 0.9546(6) 0.7888(7)
H6_2 H 0.6847 0.9634 0.8250
Zn9_2 Zn 0.80520(6) 0.80501(6) 0.69246(6)
N18_2 N 0.6049(3) 0.7820(4) 0.7730(4)
O4_2 O 0.1074(4) 0.2158(5) 0.2883(5)
O5_2 O 0.0945(6) 0.2925(7) 0.2088(6)
C6_2 C 0.0017(6) 0.2609(5) 0.2543(5)
C7_2 C 0.0779(7) 0.2543(7) 0.2620(6)
Zn7_2 Zn 0.19516(6) 0.19678(6) 0.30721(6)
Zn8_2 Zn 0.19678(6) 0.30721(6) 0.19516(6)
Co2_3 Co 0.30942(7) 0.30942(7) 0.30942(7)
N1_3 N 0.5990(4) 0.2339(4) 0.2261(4)
C1_3 C 0.5006(6) 0.2476(5) 0.2462(5)
C2_3 C 0.5384(6) 0.2873(6) 0.2945(6)
H1_3 H 0.5207 0.3126 0.3295
C3_3 C 0.5454(6) 0.2112(7) 0.2129(6)
H2_3 H 0.5366 0.1750 0.1847
N3_2 N 0.9048(5) 0.2693(4) 0.2287(5)
O1_3 O 0.2536(3) 0.2536(3) 0.2536(3)
O2_3 O 0.4001(5) 0.2165(6) 0.2188(6)
O3_3 O 0.3960(3) 0.2863(4) 0.2866(4)
C4_2 C 0.9631(5) 0.2919(5) 0.2126(6)
H3_2 H 0.9745 0.3226 0.1793
C5_2 C 0.9546(8) 0.2155(9) 0.2855(8)
H4_2 H 0.9702 0.1837 0.3159
C8_3 C 0.4366(8) 0.2436(8) 0.2425(7)
Zn3_3 Zn 0.30721(6) 0.19516(6) 0.19678(6)
N5_3 N 0.2261(4) 0.5990(4) 0.2339(4)
C9_3 C 0.2462(5) 0.5006(6) 0.2476(5)
C10_3 C 0.2945(6) 0.5384(6) 0.2873(6)
H5_3 H 0.3295 0.5207 0.3126
C11_3 C 0.2129(6) 0.5454(6) 0.2112(7)
H6_3 H 0.1847 0.5366 0.1750
O7_3 O 0.2188(6) 0.4001(5) 0.2165(6)
O8_3 O 0.2866(4) 0.3960(3) 0.2863(4)
C12_3 C 0.2425(7) 0.4366(8) 0.2436(8)
N7_3 N 0.2339(4) 0.2261(4) 0.5990(4)
N8_2 N 0.2803(3) 0.2782(3) 0.6068(3)
C13_3 C 0.2476(5) 0.2462(5) 0.5006(6)
C14_3 C 0.2873(6) 0.2945(6) 0.5384(6)
H7_3 H 0.3126 0.3295 0.5207
C15_3 C 0.2112(7) 0.2129(6) 0.5454(6)
H8_3 H 0.1750 0.1847 0.5366
O9_3 O 0.2165(6) 0.2188(6) 0.4001(5)
O10_3 O 0.2863(4) 0.2866(4) 0.3960(3)
C16_3 C 0.2436(8) 0.2425(7) 0.4366(8)
O13_3 O 0.2883(5) 0.1074(4) 0.2158(5)
O14_3 O 0.2088(6) 0.0945(6) 0.2925(7)
C23_3 C 0.2543(5) 0.0017(6) 0.2609(5)
C24_3 C 0.2620(6) 0.0779(7) 0.2543(7)
N15_2 N 0.2197(3) 0.7218(3) 0.1068(3)
N17_3 N 0.7693(4) 0.2713(5) 0.0952(5)
N19_2 N 0.2270(4) 0.1049(3) 0.7180(4)
N20_3 N 0.7180(4) 0.2270(4) 0.1049(3)
O15_3 O 0.2158(5) 0.2883(5) 0.1074(4)
O16_3 O 0.2925(7) 0.2088(6) 0.0945(6)
N12_2 N 0.2730(4) 0.8951(3) 0.2180(4)
C21_3 C 0.2126(6) 0.9631(5) 0.2919(5)
H11_3 H 0.1793 0.9745 0.3226
C22_3 C 0.2855(8) 0.9546(8) 0.2155(9)
H12_3 H 0.3159 0.9702 0.1837
C21_4 C 0.2874(6) 0.0369(5) 0.7919(5)
H11_4 H 0.3207 0.0255 0.8226
C22_4 C 0.2145(8) 0.0454(8) 0.7155(9)
H12_4 H 0.1841 0.0298 0.6837
N7_4 N 0.2661(4) 0.7739(4) 0.0990(4)
C13_4 C 0.2524(5) 0.7538(5) 0.0006(6)
C14_4 C 0.2127(6) 0.7055(6) 0.0384(6)
H7_4 H 0.1874 0.6705 0.0207
C15_4 C 0.2888(7) 0.7871(6) 0.0454(6)
H8_4 H 0.3250 0.8153 0.0366
Zn1_2 Zn 0.30484(6) 0.80322(6) 0.80721(6)
Co2_4 Co 0.19058(7) 0.69058(7) 0.80942(7)
O1_4 O 0.2464(3) 0.7464(3) 0.7536(3)
O2_4 O 0.0999(5) 0.7835(6) 0.7188(6)
O3_4 O 0.1040(3) 0.7137(4) 0.7866(4)
C8_4 C 0.0634(8) 0.7564(8) 0.7425(7)
Zn3_4 Zn 0.19279(6) 0.80484(6) 0.69678(6)
N5_4 N 0.2739(4) 0.4010(4) 0.7339(4)
C9_4 C 0.2538(5) 0.4994(6) 0.7476(5)
C10_4 C 0.2055(6) 0.4616(6) 0.7873(6)
H5_4 H 0.1705 0.4793 0.8126
C11_4 C 0.2871(6) 0.4546(6) 0.7112(7)
H6_4 H 0.3153 0.4634 0.6750
O7_4 O 0.2812(6) 0.5999(5) 0.7165(6)
O8_4 O 0.2134(4) 0.6040(3) 0.7863(4)
C12_4 C 0.2575(7) 0.5634(8) 0.7436(8)
Zn5_2 Zn 0.30322(6) 0.69279(6) 0.69516(6)
O9_4 O 0.2835(6) 0.7812(6) 0.9001(5)
O10_4 O 0.2137(4) 0.7134(4) 0.8960(3)
C16_4 C 0.2564(8) 0.7575(7) 0.9366(8)
N9_2 N 0.5952(5) 0.7307(4) 0.7287(5)
C17_2 C 0.5369(5) 0.7081(5) 0.7126(6)
H9_2 H 0.5255 0.6774 0.6793
C18_2 C 0.5454(8) 0.7845(9) 0.7855(8)
H10_2 H 0.5298 0.8163 0.8159
O11_2 O 0.3926(4) 0.7842(5) 0.7883(5)
O12_2 O 0.4055(6) 0.7075(7) 0.7088(6)
C19_2 C 0.4983(6) 0.7391(5) 0.7543(5)
C20_2 C 0.4221(7) 0.7457(7) 0.7620(6)
O13_4 O 0.2117(5) 0.8926(4) 0.7158(5)
O14_4 O 0.2912(6) 0.9055(6) 0.7925(7)
C23_4 C 0.2457(5) 0.9983(6) 0.7609(5)
C24_4 C 0.2380(6) 0.9221(7) 0.7543(7)
O15_4 O 0.2842(5) 0.7117(5) 0.6074(4)
O16_4 O 0.2075(7) 0.7912(6) 0.5945(6)
N1_4 N 0.9010(4) 0.7661(4) 0.7261(4)
C1_4 C 0.9994(6) 0.7524(5) 0.7462(5)
C2_4 C 0.9616(6) 0.7127(6) 0.7945(6)
H1_4 H 0.9793 0.6874 0.8295
C3_4 C 0.9546(6) 0.7888(7) 0.7129(6)
H2_4 H 0.9634 0.8250 0.6847
N17_4 N 0.7307(4) 0.7287(5) 0.5952(5)
N20_4 N 0.7820(4) 0.7730(4) 0.6049(3)
C21_5 C 0.2081(5) 0.7874(6) 0.4631(5)
H11_5 H 0.1774 0.8207 0.4745
C22_5 C 0.2845(9) 0.7145(8) 0.4546(8)
H12_5 H 0.3163 0.6841 0.4702
C23_5 C 0.2391(5) 0.7457(5) 0.5017(6)
C24_5 C 0.2457(7) 0.7380(6) 0.5779(7)
C21_6 C 0.7081(5) 0.7126(6) 0.5369(5)
H11_6 H 0.6774 0.6793 0.5255
C22_6 C 0.7845(9) 0.7855(8) 0.5454(8)
H12_6 H 0.8163 0.8159 0.5298
C23_6 C 0.7391(5) 0.7543(5) 0.4983(6)
C24_6 C 0.7457(7) 0.7620(6) 0.4221(7)
C23_7 C 0.2609(5) 0.2543(5) 0.0017(6)
C24_7 C 0.2543(7) 0.2620(6) 0.0779(7)
C21_7 C 0.2919(5) 0.2126(6) 0.9631(5)
H11_7 H 0.3226 0.1793 0.9745
C22_7 C 0.2155(9) 0.2855(8) 0.9546(8)
H12_7 H 0.1837 0.3159 0.9702
C21_8 C 0.7919(5) 0.2874(6) 0.0369(5)
H11_8 H 0.8226 0.3207 0.0255
C22_8 C 0.7155(9) 0.2145(8) 0.0454(8)
H12_8 H 0.6837 0.1841 0.0298
C23_8 C 0.7609(5) 0.2457(5) 0.9983(6)
C24_8 C 0.7543(7) 0.2380(6) 0.9221(7)
loop_
_geom_bond_atom_site_label_1
_geom_bond_atom_site_label_2
_geom_bond_site_symmetry_1
_geom_bond_site_symmetry_2
N9 N10 1_555 1_555
N10 C18 1_555 1_555
C17 N9 1_555 1_555
H9 C17 1_555 1_555
C18 H10 1_555 1_555
Zn11 N10 1_555 1_555
Co3 N9 1_555 1_555
Zn11 Co3 1_555 1_555
Zn4 N5 1_555 1_555
N5 N6 1_555 1_555
N6 C10 1_555 1_555
C9 C10 1_555 1_555
C10 H5 1_555 1_555
C11 N5 1_555 1_555
H6 C11 1_555 1_555
Zn9 N6 1_555 1_555
Co5 Zn4 1_555 1_555
N15 Zn4 1_555 1_555
N18 Zn4 1_555 1_555
O17 Zn4 1_555 1_555
C9 C11 1_555 1_555
Zn9 Co5 1_555 1_555
Zn9 O17 1_555 1_555
Co5 O17 1_555 1_555
Zn1 O1 1_555 1_555
Zn2 Co3 1_555 1_555
Co2 O1 1_555 1_555
N1 Zn2 1_555 1_555
N2 N1 1_555 1_555
C1 C2 1_555 1_555
C2 N2 1_555 1_555
H1 C2 1_555 1_555
C3 N1 1_555 1_555
H2 C3 1_555 1_555
O1 Zn3 1_555 1_555
O2 C8 1_555 1_555
O3 Co2 1_555 1_555
O6 Zn2 1_555 1_555
C8 C1 1_555 1_555
Zn3 O2 1_555 1_555
O7 C12 1_555 1_555
O8 Co2 1_555 1_555
Zn5 O1 1_555 1_555
O9 Zn1 1_555 1_555
O10 Co2 1_555 1_555
O11 Zn1 1_555 1_555
O12 Zn5 1_555 1_555
C20 O11 1_555 1_555
N11 N12 1_555 1_555
N12 C22 1_555 1_555
C21 N11 1_555 1_555
H11 C21 1_555 1_555
C22 H12 1_555 1_555
O13 Zn3 1_555 1_555
O14 Zn1 1_555 1_555
C23 C21 1_555 1_555
C24 O13 1_555 1_555
Zn13 N12 1_555 1_555
Zn14 Co3 1_555 1_555
Co5 N11 1_555 1_555
N14 Zn2 1_555 1_555
N16 Co3 1_555 1_555
N17 Co3 1_555 1_555
N20 Zn2 1_555 1_555
O15 Zn5 1_555 1_555
O16 Zn3 1_555 1_555
Co3 O6 1_555 1_555
N2 Zn14 1_555 1_555
C1 C3 1_555 1_555
O3 C8 1_555 1_555
O6 Zn11 1_555 1_555
O6 Zn14 1_555 1_555
O7 Zn5 1_555 1_555
O8 C12 1_555 1_555
O9 C16 1_555 1_555
O10 C16 1_555 1_555
O12 C20 1_555 1_555
C19 C20 1_555 1_555
C22 C23 1_555 1_555
O14 C24 1_555 1_555
C23 C24 1_555 1_555
Zn13 Co5 1_555 1_555
N17 N20 1_555 1_555
Zn6 N7 1_555 1_555
N7 N8 1_555 1_555
N8 C14 1_555 1_555
C13 C14 1_555 1_555
C14 H7 1_555 1_555
C15 N7 1_555 1_555
H8 C15 1_555 1_555
Zn12 N8 1_555 1_555
Co6 Zn6 1_555 1_555
N13 Zn6 1_555 1_555
N19 Zn6 1_555 1_555
O18 Zn6 1_555 1_555
C13 C15 1_555 1_555
Zn12 Co6 1_555 1_555
Zn12 O18 1_555 1_555
Co6 O18 1_555 1_555
Zn2_2 Co1 1_555 1_555
Co1 N3 1_555 1_555
N1_2 Zn2_2 1_555 1_555
N2_2 N1_2 1_555 1_555
C1_2 C2_2 1_555 1_555
C2_2 N2_2 1_555 1_555
H1_2 C2_2 1_555 1_555
C3_2 N1_2 1_555 1_555
H2_2 C3_2 1_555 1_555
N3 N4 1_555 1_555
N4 C5 1_555 1_555
C4 N3 1_555 1_555
H3 C4 1_555 1_555
C5 H4 1_555 1_555
O4 C7 1_555 1_555
O5 C7 1_555 1_555
O6_2 Zn2_2 1_555 1_555
C6 C4 1_555 1_555
C7 C6 1_555 1_555
Zn7 O4 1_555 1_555
Zn8 O5 1_555 1_555
Zn10 Co1 1_555 1_555
Zn14_2 Co1 1_555 1_555
N14_2 Zn2_2 1_555 1_555
N16_2 Co1 1_555 1_555
N17_2 Co1 1_555 1_555
N20_2 Zn2_2 1_555 1_555
Co1 O6_2 1_555 1_555
N2_2 Zn14_2 1_555 1_555
C1_2 C3_2 1_555 1_555
N4 Zn10 1_555 1_555
C5 C6 1_555 1_555
O6_2 Zn10 1_555 1_555
O6_2 Zn14_2 1_555 1_555
N17_2 N20_2 1_555 1_555
Zn7 O1_2 1_555 1_555
Co2_2 O1_2 1_555 1_555
O1_2 Zn3_2 1_555 1_555
O2_2 C8_2 1_555 1_555
O3_2 Co2_2 1_555 1_555
Zn3_2 O2_2 1_555 1_555
O7_2 C12_2 1_555 1_555
O8_2 Co2_2 1_555 1_555
Zn8 O1_2 1_555 1_555
Zn13 N7_2 1_555 1_555
N7_2 N15 1_555 1_555
N15 C14_2 1_555 1_555
C13_2 C14_2 1_555 1_555
C14_2 H7_2 1_555 1_555
C15_2 N7_2 1_555 1_555
H8_2 C15_2 1_555 1_555
O9_2 Zn7 1_555 1_555
O10_2 Co2_2 1_555 1_555
C16_2 C13_2 1_555 1_555
N11_2 N19 1_555 1_555
N19 C22_2 1_555 1_555
C21_2 N11_2 1_555 1_555
H11_2 C21_2 1_555 1_555
C22_2 H12_2 1_555 1_555
O13_2 Zn3_2 1_555 1_555
O14_2 Zn7 1_555 1_555
C23_2 C21_2 1_555 1_555
C24_2 O13_2 1_555 1_555
Co6 N11_2 1_555 1_555
N13_2 Zn13 1_555 1_555
O15_2 Zn8 1_555 1_555
O16_2 Zn3_2 1_555 1_555
O17 Zn13 1_555 1_555
O3_2 C8_2 1_555 1_555
O7_2 Zn8 1_555 1_555
O8_2 C12_2 1_555 1_555
C13_2 C15_2 1_555 1_555
O9_2 C16_2 1_555 1_555
O10_2 C16_2 1_555 1_555
C22_2 C23_2 1_555 1_555
O14_2 C24_2 1_555 1_555
C23_2 C24_2 1_555 1_555
Zn12 N5_2 1_555 1_555
N5_2 N6_2 1_555 1_555
N6_2 C10_2 1_555 1_555
C9_2 C10_2 1_555 1_555
C10_2 H5_2 1_555 1_555
C11_2 N5_2 1_555 1_555
H6_2 C11_2 1_555 1_555
Zn9_2 N6_2 1_555 1_555
N18_2 Zn12 1_555 1_555
C9_2 C11_2 1_555 1_555
Zn9_2 Co6 1_555 1_555
Zn9_2 O18 1_555 1_555
O4_2 C7_2 1_555 1_555
O5_2 C7_2 1_555 1_555
C7_2 C6_2 1_555 1_555
Zn7_2 O4_2 1_555 1_555
Zn8_2 O5_2 1_555 1_555
Zn7_2 O1_3 1_555 1_555
Co5 N3_2 1_555 1_555
Co2_3 O1_3 1_555 1_555
N1_3 Zn9 1_555 1_555
N13_2 N1_3 1_555 1_555
C1_3 C2_3 1_555 1_555
C2_3 N13_2 1_555 1_555
H1_3 C2_3 1_555 1_555
C3_3 N1_3 1_555 1_555
H2_3 C3_3 1_555 1_555
N3_2 N18 1_555 1_555
O1_3 Zn3_3 1_555 1_555
O2_3 C8_3 1_555 1_555
O3_3 Co2_3 1_555 1_555
N18 C5_2 1_555 1_555
C4_2 N3_2 1_555 1_555
H3_2 C4_2 1_555 1_555
C5_2 H4_2 1_555 1_555
C8_3 C1_3 1_555 1_555
Zn3_3 O2_3 1_555 1_555
Zn11 N5_3 1_555 1_555
N5_3 N14 1_555 1_555
N14 C10_3 1_555 1_555
C9_3 C10_3 1_555 1_555
C10_3 H5_3 1_555 1_555
C11_3 N5_3 1_555 1_555
H6_3 C11_3 1_555 1_555
O7_3 C12_3 1_555 1_555
O8_3 Co2_3 1_555 1_555
C12_3 C9_3 1_555 1_555
Zn8_2 O1_3 1_555 1_555
Zn14_2 N7_3 1_555 1_555
N7_3 N8_2 1_555 1_555
N8_2 C14_3 1_555 1_555
C13_3 C14_3 1_555 1_555
C14_3 H7_3 1_555 1_555
C15_3 N7_3 1_555 1_555
H8_3 C15_3 1_555 1_555
O9_3 Zn7_2 1_555 1_555
O10_3 Co2_3 1_555 1_555
C16_3 C13_3 1_555 1_555
O13_3 Zn3_3 1_555 1_555
O14_3 Zn7_2 1_555 1_555
C24_3 O13_3 1_555 1_555
Zn10 N8_2 1_555 1_555
N15_2 Zn11 1_555 1_555
N17_3 Co5 1_555 1_555
N19_2 Zn14_2 1_555 1_555
N20_3 Zn9 1_555 1_555
O15_3 Zn8_2 1_555 1_555
O16_3 Zn3_3 1_555 1_555
C1_3 C3_3 1_555 1_555
O3_3 C8_3 1_555 1_555
C9_3 C11_3 1_555 1_555
O7_3 Zn8_2 1_555 1_555
O8_3 C12_3 1_555 1_555
C13_3 C15_3 1_555 1_555
O9_3 C16_3 1_555 1_555
O10_3 C16_3 1_555 1_555
O14_3 C24_3 1_555 1_555
C23_3 C24_3 1_555 1_555
N17_3 N20_3 1_555 1_555
N16 N12_2 1_555 1_555
N12_2 C22_3 1_555 1_555
C21_3 N16 1_555 1_555
H11_3 C21_3 1_555 1_555
C22_3 H12_3 1_555 1_555
Zn14 N12_2 1_555 1_555
N16_2 N19_2 1_555 1_555
N19_2 C22_4 1_555 1_555
C21_4 N16_2 1_555 1_555
H11_4 C21_4 1_555 1_555
C22_4 H12_4 1_555 1_555
Zn14 N7_4 1_555 1_555
N7_4 N15_2 1_555 1_555
N15_2 C14_4 1_555 1_555
C13_4 C14_4 1_555 1_555
C14_4 H7_4 1_555 1_555
C15_4 N7_4 1_555 1_555
H8_4 C15_4 1_555 1_555
C13_4 C15_4 1_555 1_555
Zn1_2 O1_4 1_555 1_555
Co2_4 O1_4 1_555 1_555
O1_4 Zn3_4 1_555 1_555
O2_4 C8_4 1_555 1_555
O3_4 Co2_4 1_555 1_555
Zn3_4 O2_4 1_555 1_555
Zn10 N5_4 1_555 1_555
N5_4 N14_2 1_555 1_555
N14_2 C10_4 1_555 1_555
C9_4 C10_4 1_555 1_555
C10_4 H5_4 1_555 1_555
C11_4 N5_4 1_555 1_555
H6_4 C11_4 1_555 1_555
O7_4 C12_4 1_555 1_555
O8_4 Co2_4 1_555 1_555
C12_4 C9_4 1_555 1_555
Zn5_2 O1_4 1_555 1_555
O9_4 Zn1_2 1_555 1_555
O10_4 Co2_4 1_555 1_555
N9_2 N18_2 1_555 1_555
N18_2 C18_2 1_555 1_555
C17_2 N9_2 1_555 1_555
H9_2 C17_2 1_555 1_555
C18_2 H10_2 1_555 1_555
O11_2 Zn1_2 1_555 1_555
O12_2 Zn5_2 1_555 1_555
C19_2 C17_2 1_555 1_555
C20_2 O11_2 1_555 1_555
O13_4 Zn3_4 1_555 1_555
O14_4 Zn1_2 1_555 1_555
C24_4 O13_4 1_555 1_555
Co6 N9_2 1_555 1_555
O15_4 Zn5_2 1_555 1_555
O16_4 Zn3_4 1_555 1_555
O3_4 C8_4 1_555 1_555
C9_4 C11_4 1_555 1_555
O7_4 Zn5_2 1_555 1_555
O8_4 C12_4 1_555 1_555
O9_4 C16_4 1_555 1_555
O10_4 C16_4 1_555 1_555
C18_2 C19_2 1_555 1_555
O12_2 C20_2 1_555 1_555
C19_2 C20_2 1_555 1_555
O14_4 C24_4 1_555 1_555
C23_4 C24_4 1_555 1_555
N1_4 Zn9_2 1_555 1_555
N13 N1_4 1_555 1_555
C1_4 C2_4 1_555 1_555
C2_4 N13 1_555 1_555
H1_4 C2_4 1_555 1_555
C3_4 N1_4 1_555 1_555
H2_4 C3_4 1_555 1_555
N17_4 Co6 1_555 1_555
N20_4 Zn9_2 1_555 1_555
C1_4 C3_4 1_555 1_555
N17_4 N20_4 1_555 1_555
N20 C22_5 1_555 1_555
C21_5 N17 1_555 1_555
H11_5 C21_5 1_555 1_555
C22_5 H12_5 1_555 1_555
C23_5 C21_5 1_555 1_555
C24_5 O15_4 1_555 1_555
C22_5 C23_5 1_555 1_555
O16_4 C24_5 1_555 1_555
C23_5 C24_5 1_555 1_555
N20_4 C22_6 1_555 1_555
C21_6 N17_4 1_555 1_555
H11_6 C21_6 1_555 1_555
C22_6 H12_6 1_555 1_555
C23_6 C21_6 1_555 1_555
C24_6 O15 1_555 1_555
C22_6 C23_6 1_555 1_555
O16 C24_6 1_555 1_555
C23_6 C24_6 1_555 1_555
C24_7 O15_3 1_555 1_555
O16_3 C24_7 1_555 1_555
C23_7 C24_7 1_555 1_555
N20_2 C22_7 1_555 1_555
C21_7 N17_2 1_555 1_555
H11_7 C21_7 1_555 1_555
C22_7 H12_7 1_555 1_555
N20_3 C22_8 1_555 1_555
C21_8 N17_3 1_555 1_555
H11_8 C21_8 1_555 1_555
C22_8 H12_8 1_555 1_555
C24_8 O15_2 1_555 1_555
O16_2 C24_8 1_555 1_555
C23_8 C24_8 1_555 1_555

#END
