
###############################################################################
#
# This file contains modified crystal structure data generated from the
# MOF subset of the Cambridge Structural Database (CSD) v543 
# hosted by the Cambridge Crystallographic Data Centre (CCDC).
#
# This work is licensed under the Creative Commons
# Attribution-NonCommercial-ShareAlike 4.0 International License.
# To view a copy of this license, visit
# http://creativecommons.org/licenses/by-nc-sa/4.0/
# or send a letter to
# Creative Commons, PO Box 1866, Mountain View, CA 94042, USA.
#
# CIF created using the CSD Python API on 29 September 2022
# The structure has been converted into the P1 space group
# The structure has a 3D framework
# The original CSD entry BUKTEI is in the cubic crystal system
# The original CSD entry BUKTEI is in a Sohncke space group
# The framework has been calculated to contain at least 10.0% void space
# The void calculation uses a probe of radius 1.32A, grid spacing 0.4
#
###############################################################################

data_BUKTEI
_chemical_formula_moiety         '(C96 H48 N48 O52 Zn22)n'
_symmetry_cell_setting           triclinic
_symmetry_space_group_name_H-M   'P 1'
_symmetry_Int_Tables_number      1
_space_group_name_Hall           'P 1'
loop_
_symmetry_equiv_pos_site_id
_symmetry_equiv_pos_as_xyz
1 x,y,z
_cell_length_a                   20.11070(10)
_cell_length_b                   20.11070(10)
_cell_length_c                   20.11070(10)
_cell_angle_alpha                90
_cell_angle_beta                 90
_cell_angle_gamma                90
_cell_volume                     8133.58
loop_
_atom_site_label
_atom_site_type_symbol
_atom_site_fract_x
_atom_site_fract_y
_atom_site_fract_z
Zn1 Zn 0.19489(7) 0.19489(7) 0.19489(7)
O1 O 0.2500 0.2500 0.2500
N1 N 0.2253(4) 0.2249(4) 0.1045(5)
C2 C 0.2113(5) 0.2111(6) 0.0465(5)
H1 H 0.1790 0.1789 0.0341
N2 N 0.2747(4) 0.2751(4) 0.1045(5)
C4 C 0.2887(5) 0.2889(6) 0.0465(5)
H2 H 0.3210 0.3211 0.0341
N3 N 0.1045(5) 0.2253(4) 0.2249(4)
C6 C 0.0465(5) 0.2113(5) 0.2111(6)
H3 H 0.0341 0.1790 0.1789
N4 N 0.1045(5) 0.2747(4) 0.2751(4)
C8 C 0.0465(5) 0.2887(5) 0.2889(6)
H4 H 0.0341 0.3210 0.3211
N7 N 0.2249(4) 0.1045(5) 0.2253(4)
C14 C 0.2111(6) 0.0465(5) 0.2113(5)
H7 H 0.1789 0.0341 0.1790
N8 N 0.2751(4) 0.1045(5) 0.2747(4)
C16 C 0.2889(6) 0.0465(5) 0.2887(5)
H8 H 0.3211 0.0341 0.3210
Zn8 Zn 0.19489(7) 0.30511(7) 0.30511(7)
Zn13 Zn 0.30511(7) 0.19489(7) 0.30511(7)
Zn14 Zn 0.30511(7) 0.30511(7) 0.19489(7)
N17 N 0.2253(4) 0.2751(4) 0.3955(5)
N18 N 0.2249(4) 0.3955(5) 0.2747(4)
Zn2 Zn 0.19287(7) 0.19287(7) 0.80713(7)
O2 O 0.2500 0.2500 0.7500
O3 O 0.2134(5) 0.2135(5) 0.8981(3)
C1 C 0.2500 0.2500 0.9992(9)
C3 C 0.2500 0.2500 0.9201(14)
O4 O 0.2866(5) 0.2865(5) 0.8981(3)
O7 O 0.1019(3) 0.2134(5) 0.7865(5)
C9 C 0.0008(9) 0.2500 0.7500
C11 C 0.0799(14) 0.2500 0.7500
O8 O 0.1019(3) 0.2866(5) 0.7135(5)
O11 O 0.2135(5) 0.1019(3) 0.7866(5)
C17 C 0.2500 0.0008(9) 0.7500
C19 C 0.2500 0.0799(14) 0.7500
O12 O 0.2865(5) 0.1019(3) 0.7134(5)
Zn7 Zn 0.19287(7) 0.30713(7) 0.69287(7)
O13 O 0.2134(5) 0.2865(5) 0.6019(3)
C21 C 0.2500 0.2500 0.5008(9)
C22 C 0.2113(5) 0.2889(6) 0.4535(5)
H11 H 0.1790 0.3211 0.4659
C23 C 0.2500 0.2500 0.5799(14)
N12 N 0.2747(4) 0.2249(4) 0.3955(5)
O14 O 0.2866(5) 0.2135(5) 0.6019(3)
C24 C 0.2887(5) 0.2111(6) 0.4535(5)
H12 H 0.3210 0.1789 0.4659
Zn17 Zn 0.30713(7) 0.19287(7) 0.69287(7)
Zn18 Zn 0.30713(7) 0.30713(7) 0.80713(7)
O23 O 0.2135(5) 0.3981(3) 0.7134(5)
Zn5 Zn 0.19287(7) 0.80713(7) 0.19287(7)
O9 O 0.2135(5) 0.8981(3) 0.2134(5)
C13 C 0.2500 0.9992(9) 0.2500
C15 C 0.2500 0.9201(14) 0.2500
O10 O 0.2865(5) 0.8981(3) 0.2866(5)
Zn16 Zn 0.30713(7) 0.80713(7) 0.30713(7)
O18 O 0.2500 0.7500 0.2500
O20 O 0.2134(5) 0.7865(5) 0.1019(3)
O21 O 0.1019(3) 0.7866(5) 0.2135(5)
Zn6 Zn 0.19489(7) 0.80511(7) 0.80511(7)
N9 N 0.2249(4) 0.8955(5) 0.7747(4)
C18 C 0.2111(6) 0.9535(5) 0.7887(5)
H9 H 0.1789 0.9659 0.8210
N10 N 0.2751(4) 0.8955(5) 0.7253(4)
C20 C 0.2889(6) 0.9535(5) 0.7113(5)
H10 H 0.3211 0.9659 0.6790
Zn11 Zn 0.30511(7) 0.80511(7) 0.69489(7)
O16 O 0.2500 0.7500 0.7500
N14 N 0.2253(4) 0.7751(4) 0.8955(5)
N15 N 0.1045(5) 0.7747(4) 0.7751(4)
Zn3 Zn 0.80713(7) 0.19287(7) 0.19287(7)
O5 O 0.8981(3) 0.2134(5) 0.2135(5)
C5 C 0.9992(9) 0.2500 0.2500
C7 C 0.9201(14) 0.2500 0.2500
O6 O 0.8981(3) 0.2866(5) 0.2865(5)
Zn15 Zn 0.80713(7) 0.30713(7) 0.30713(7)
O17 O 0.7500 0.2500 0.2500
O19 O 0.7866(5) 0.2135(5) 0.1019(3)
O22 O 0.7865(5) 0.1019(3) 0.2134(5)
Zn4 Zn 0.80511(7) 0.19489(7) 0.80511(7)
N5 N 0.8955(5) 0.2253(4) 0.7751(4)
C10 C 0.9535(5) 0.2113(5) 0.7889(6)
H5 H 0.9659 0.1790 0.8211
N6 N 0.8955(5) 0.2747(4) 0.7249(4)
C12 C 0.9535(5) 0.2887(5) 0.7111(6)
H6 H 0.9659 0.3210 0.6789
Zn9 Zn 0.80511(7) 0.30511(7) 0.69489(7)
O15 O 0.7500 0.2500 0.7500
N13 N 0.7747(4) 0.2249(4) 0.8955(5)
N16 N 0.7751(4) 0.1045(5) 0.7747(4)
C5_2 C 0.0008(9) 0.7500 0.2500
C7_2 C 0.0799(14) 0.7500 0.2500
O6_2 O 0.1019(3) 0.7134(5) 0.2865(5)
Zn15_2 Zn 0.19287(7) 0.69287(7) 0.30713(7)
C10_2 C 0.0465(5) 0.7887(5) 0.7889(6)
H5_2 H 0.0341 0.8210 0.8211
N6_2 N 0.1045(5) 0.7253(4) 0.7249(4)
C12_2 C 0.0465(5) 0.7113(5) 0.7111(6)
H6_2 H 0.0341 0.6790 0.6789
Zn9_2 Zn 0.19489(7) 0.69489(7) 0.69489(7)
C13_2 C 0.7500 0.0008(9) 0.2500
C15_2 C 0.7500 0.0799(14) 0.2500
O10_2 O 0.7135(5) 0.1019(3) 0.2866(5)
Zn16_2 Zn 0.69287(7) 0.19287(7) 0.30713(7)
C18_2 C 0.7889(6) 0.0465(5) 0.7887(5)
H9_2 H 0.8211 0.0341 0.8210
N10_2 N 0.7249(4) 0.1045(5) 0.7253(4)
C20_2 C 0.7111(6) 0.0465(5) 0.7113(5)
H10_2 H 0.6789 0.0341 0.6790
Zn11_2 Zn 0.69489(7) 0.19489(7) 0.69489(7)
Zn1_2 Zn 0.80511(7) 0.80511(7) 0.19489(7)
O1_2 O 0.7500 0.7500 0.2500
N1_2 N 0.7747(4) 0.7751(4) 0.1045(5)
C2_2 C 0.7887(5) 0.7889(6) 0.0465(5)
H1_2 H 0.8210 0.8211 0.0341
N2_2 N 0.7253(4) 0.7249(4) 0.1045(5)
C4_2 C 0.7113(5) 0.7111(6) 0.0465(5)
H2_2 H 0.6790 0.6789 0.0341
N3_2 N 0.8955(5) 0.7747(4) 0.2249(4)
C6_2 C 0.9535(5) 0.7887(5) 0.2111(6)
H3_2 H 0.9659 0.8210 0.1789
N4_2 N 0.8955(5) 0.7253(4) 0.2751(4)
C8_2 C 0.9535(5) 0.7113(5) 0.2889(6)
H4_2 H 0.9659 0.6790 0.3211
N7_2 N 0.7751(4) 0.8955(5) 0.2253(4)
C14_2 C 0.7889(6) 0.9535(5) 0.2113(5)
H7_2 H 0.8211 0.9659 0.1790
N8_2 N 0.7249(4) 0.8955(5) 0.2747(4)
C16_2 C 0.7111(6) 0.9535(5) 0.2887(5)
H8_2 H 0.6789 0.9659 0.3210
Zn8_2 Zn 0.80511(7) 0.69489(7) 0.30511(7)
Zn13_2 Zn 0.69489(7) 0.80511(7) 0.30511(7)
Zn14_2 Zn 0.69489(7) 0.69489(7) 0.19489(7)
N17_2 N 0.7747(4) 0.7249(4) 0.3955(5)
N18_2 N 0.7751(4) 0.6045(5) 0.2747(4)
Zn2_2 Zn 0.80713(7) 0.80713(7) 0.80713(7)
O2_2 O 0.7500 0.7500 0.7500
O3_2 O 0.7866(5) 0.7865(5) 0.8981(3)
C1_2 C 0.7500 0.7500 0.9992(9)
C3_2 C 0.7500 0.7500 0.9201(14)
O4_2 O 0.7134(5) 0.7135(5) 0.8981(3)
O7_2 O 0.8981(3) 0.7866(5) 0.7865(5)
C9_2 C 0.9992(9) 0.7500 0.7500
C11_2 C 0.9201(14) 0.7500 0.7500
O8_2 O 0.8981(3) 0.7134(5) 0.7135(5)
O11_2 O 0.7865(5) 0.8981(3) 0.7866(5)
C17_2 C 0.7500 0.9992(9) 0.7500
C19_2 C 0.7500 0.9201(14) 0.7500
O12_2 O 0.7135(5) 0.8981(3) 0.7134(5)
Zn7_2 Zn 0.80713(7) 0.69287(7) 0.69287(7)
O13_2 O 0.7866(5) 0.7135(5) 0.6019(3)
C21_2 C 0.7500 0.7500 0.5008(9)
C22_2 C 0.7887(5) 0.7111(6) 0.4535(5)
H11_2 H 0.8210 0.6789 0.4659
C23_2 C 0.7500 0.7500 0.5799(14)
N12_2 N 0.7253(4) 0.7751(4) 0.3955(5)
O14_2 O 0.7134(5) 0.7865(5) 0.6019(3)
C24_2 C 0.7113(5) 0.7889(6) 0.4535(5)
H12_2 H 0.6790 0.8211 0.4659
Zn17_2 Zn 0.69287(7) 0.80713(7) 0.69287(7)
Zn18_2 Zn 0.69287(7) 0.69287(7) 0.80713(7)
O23_2 O 0.7865(5) 0.6019(3) 0.7134(5)
C1_3 C 0.7500 0.2500 0.0008(9)
C3_3 C 0.7500 0.2500 0.0799(14)
O4_3 O 0.7134(5) 0.2865(5) 0.1019(3)
N11 N 0.7747(4) 0.2751(4) 0.6045(5)
O13_3 O 0.7866(5) 0.2865(5) 0.3981(3)
C21_3 C 0.7500 0.2500 0.4992(9)
C22_3 C 0.7887(5) 0.2889(6) 0.5465(5)
H11_3 H 0.8210 0.3211 0.5341
C23_3 C 0.7500 0.2500 0.4201(14)
N12_3 N 0.7253(4) 0.2249(4) 0.6045(5)
O14_3 O 0.7134(5) 0.2135(5) 0.3981(3)
C24_3 C 0.7113(5) 0.2111(6) 0.5465(5)
H12_3 H 0.6790 0.1789 0.5341
Zn18_3 Zn 0.69287(7) 0.30713(7) 0.19287(7)
O23_3 O 0.7865(5) 0.3981(3) 0.2866(5)
C2_3 C 0.7887(5) 0.2111(6) 0.9535(5)
H1_3 H 0.8210 0.1789 0.9659
N2_3 N 0.7253(4) 0.2751(4) 0.8955(5)
C4_3 C 0.7113(5) 0.2889(6) 0.9535(5)
H2_3 H 0.6790 0.3211 0.9659
Zn14_3 Zn 0.69489(7) 0.30511(7) 0.80511(7)
N18_3 N 0.7751(4) 0.3955(5) 0.7253(4)
C1_4 C 0.2500 0.7500 0.0008(9)
C3_4 C 0.2500 0.7500 0.0799(14)
O4_4 O 0.2866(5) 0.7135(5) 0.1019(3)
N11_2 N 0.2253(4) 0.7249(4) 0.6045(5)
O13_4 O 0.2134(5) 0.7135(5) 0.3981(3)
C21_4 C 0.2500 0.7500 0.4992(9)
C22_4 C 0.2113(5) 0.7111(6) 0.5465(5)
H11_4 H 0.1790 0.6789 0.5341
C23_4 C 0.2500 0.7500 0.4201(14)
N12_4 N 0.2747(4) 0.7751(4) 0.6045(5)
O14_4 O 0.2866(5) 0.7865(5) 0.3981(3)
C24_4 C 0.2887(5) 0.7889(6) 0.5465(5)
H12_4 H 0.3210 0.8211 0.5341
Zn18_4 Zn 0.30713(7) 0.69287(7) 0.19287(7)
O23_4 O 0.2135(5) 0.6019(3) 0.2866(5)
C2_4 C 0.2113(5) 0.7889(6) 0.9535(5)
H1_4 H 0.1790 0.8211 0.9659
N2_4 N 0.2747(4) 0.7249(4) 0.8955(5)
C4_4 C 0.2887(5) 0.7111(6) 0.9535(5)
H2_4 H 0.3210 0.6789 0.9659
Zn14_4 Zn 0.30511(7) 0.69489(7) 0.80511(7)
N18_4 N 0.2249(4) 0.6045(5) 0.7253(4)
N17_3 N 0.3955(5) 0.2253(4) 0.2751(4)
O13_5 O 0.6019(3) 0.2134(5) 0.2865(5)
C21_5 C 0.5008(9) 0.2500 0.2500
C22_5 C 0.4535(5) 0.2113(5) 0.2889(6)
H11_5 H 0.4659 0.1790 0.3211
C23_5 C 0.5799(14) 0.2500 0.2500
N12_5 N 0.3955(5) 0.2747(4) 0.2249(4)
O14_5 O 0.6019(3) 0.2866(5) 0.2135(5)
C24_5 C 0.4535(5) 0.2887(5) 0.2111(6)
H12_5 H 0.4659 0.3210 0.1789
N17_4 N 0.3955(5) 0.7747(4) 0.7249(4)
O13_6 O 0.6019(3) 0.7866(5) 0.7135(5)
C21_6 C 0.5008(9) 0.7500 0.7500
C22_6 C 0.4535(5) 0.7887(5) 0.7111(6)
H11_6 H 0.4659 0.8210 0.6789
C23_6 C 0.5799(14) 0.7500 0.7500
N12_6 N 0.3955(5) 0.7253(4) 0.7751(4)
O14_6 O 0.6019(3) 0.7134(5) 0.7865(5)
C24_6 C 0.4535(5) 0.7113(5) 0.7889(6)
H12_6 H 0.4659 0.6790 0.8211
N11_3 N 0.6045(5) 0.7747(4) 0.2751(4)
O13_7 O 0.3981(3) 0.7866(5) 0.2865(5)
C21_7 C 0.4992(9) 0.7500 0.2500
C22_7 C 0.5465(5) 0.7887(5) 0.2889(6)
H11_7 H 0.5341 0.8210 0.3211
C23_7 C 0.4201(14) 0.7500 0.2500
N12_7 N 0.6045(5) 0.7253(4) 0.2249(4)
O14_7 O 0.3981(3) 0.7134(5) 0.2135(5)
C24_7 C 0.5465(5) 0.7113(5) 0.2111(6)
H12_7 H 0.5341 0.6790 0.1789
N11_4 N 0.6045(5) 0.2253(4) 0.7249(4)
O13_8 O 0.3981(3) 0.2134(5) 0.7135(5)
C21_8 C 0.4992(9) 0.2500 0.7500
C22_8 C 0.5465(5) 0.2113(5) 0.7111(6)
H11_8 H 0.5341 0.1790 0.6789
C23_8 C 0.4201(14) 0.2500 0.7500
N12_8 N 0.6045(5) 0.2747(4) 0.7751(4)
O14_8 O 0.3981(3) 0.2866(5) 0.7865(5)
C24_8 C 0.5465(5) 0.2887(5) 0.7889(6)
H12_8 H 0.5341 0.3210 0.8211
N17_5 N 0.2751(4) 0.3955(5) 0.2253(4)
O13_9 O 0.2865(5) 0.6019(3) 0.2134(5)
C21_9 C 0.2500 0.5008(9) 0.2500
C22_9 C 0.2889(6) 0.4535(5) 0.2113(5)
H11_9 H 0.3211 0.4659 0.1790
C23_9 C 0.2500 0.5799(14) 0.2500
C24_9 C 0.2111(6) 0.4535(5) 0.2887(5)
H12_9 H 0.1789 0.4659 0.3210
N17_6 N 0.7249(4) 0.3955(5) 0.7747(4)
O13_10 O 0.7135(5) 0.6019(3) 0.7866(5)
C21_10 C 0.7500 0.5008(9) 0.7500
C22_10 C 0.7111(6) 0.4535(5) 0.7887(5)
H11_10 H 0.6789 0.4659 0.8210
C23_10 C 0.7500 0.5799(14) 0.7500
C24_10 C 0.7889(6) 0.4535(5) 0.7113(5)
H12_10 H 0.8211 0.4659 0.6790
N11_5 N 0.2751(4) 0.6045(5) 0.7747(4)
O13_11 O 0.2865(5) 0.3981(3) 0.7866(5)
C21_11 C 0.2500 0.4992(9) 0.7500
C22_11 C 0.2889(6) 0.5465(5) 0.7887(5)
H11_11 H 0.3211 0.5341 0.8210
C23_11 C 0.2500 0.4201(14) 0.7500
C24_11 C 0.2111(6) 0.5465(5) 0.7113(5)
H12_11 H 0.1789 0.5341 0.6790
N11_6 N 0.7249(4) 0.6045(5) 0.2253(4)
O13_12 O 0.7135(5) 0.3981(3) 0.2134(5)
C21_12 C 0.7500 0.4992(9) 0.2500
C22_12 C 0.7111(6) 0.5465(5) 0.2113(5)
H11_12 H 0.6789 0.5341 0.1790
C23_12 C 0.7500 0.4201(14) 0.2500
C24_12 C 0.7889(6) 0.5465(5) 0.2887(5)
H12_12 H 0.8211 0.5341 0.3210
loop_
_geom_bond_atom_site_label_1
_geom_bond_atom_site_label_2
_geom_bond_site_symmetry_1
_geom_bond_site_symmetry_2
Zn1 O1 1_555 1_555
O1 Zn8 1_555 1_555
N1 Zn1 1_555 1_555
C2 N1 1_555 1_555
H1 C2 1_555 1_555
N2 N1 1_555 1_555
H2 C4 1_555 1_555
N3 Zn1 1_555 1_555
C6 N3 1_555 1_555
H3 C6 1_555 1_555
N4 N3 1_555 1_555
H4 C8 1_555 1_555
N7 Zn1 1_555 1_555
C14 N7 1_555 1_555
H7 C14 1_555 1_555
N8 N7 1_555 1_555
H8 C16 1_555 1_555
Zn8 N4 1_555 1_555
Zn13 O1 1_555 1_555
Zn14 O1 1_555 1_555
N17 Zn8 1_555 1_555
N18 Zn8 1_555 1_555
N2 C4 1_555 1_555
N2 Zn14 1_555 1_555
N4 C8 1_555 1_555
N8 C16 1_555 1_555
N8 Zn13 1_555 1_555
Zn2 O2 1_555 1_555
O2 Zn7 1_555 1_555
O3 Zn2 1_555 1_555
C3 O3 1_555 1_555
O4 C3 1_555 1_555
O7 Zn2 1_555 1_555
C11 O7 1_555 1_555
O8 C11 1_555 1_555
O11 Zn2 1_555 1_555
C19 O11 1_555 1_555
O12 C19 1_555 1_555
Zn7 O8 1_555 1_555
N17 C22 1_555 1_555
O13 Zn7 1_555 1_555
C21 C22 1_555 1_555
C22 H11 1_555 1_555
C23 O13 1_555 1_555
N12 N17 1_555 1_555
O14 C23 1_555 1_555
C24 C21 1_555 1_555
H12 C24 1_555 1_555
Zn13 N12 1_555 1_555
Zn17 O2 1_555 1_555
Zn18 O2 1_555 1_555
O23 Zn7 1_555 1_555
C1 C3 1_555 1_555
O4 Zn18 1_555 1_555
C9 C11 1_555 1_555
C17 C19 1_555 1_555
O12 Zn17 1_555 1_555
C21 C23 1_555 1_555
N12 C24 1_555 1_555
O14 Zn17 1_555 1_555
Zn5 O9 1_555 1_555
O9 C15 1_555 1_555
C15 C13 1_555 1_555
O10 C15 1_555 1_555
Zn16 O10 1_555 1_555
O18 Zn5 1_555 1_555
O20 Zn5 1_555 1_555
O21 Zn5 1_555 1_555
Zn16 O18 1_555 1_555
Zn6 N9 1_555 1_555
N9 C18 1_555 1_555
C18 H9 1_555 1_555
N10 N9 1_555 1_555
H10 C20 1_555 1_555
Zn11 N10 1_555 1_555
O16 Zn6 1_555 1_555
N14 Zn6 1_555 1_555
N15 Zn6 1_555 1_555
N10 C20 1_555 1_555
Zn11 O16 1_555 1_555
Zn3 O5 1_555 1_555
O5 C7 1_555 1_555
C7 C5 1_555 1_555
O6 C7 1_555 1_555
Zn15 O6 1_555 1_555
O17 Zn3 1_555 1_555
O19 Zn3 1_555 1_555
O22 Zn3 1_555 1_555
Zn15 O17 1_555 1_555
Zn4 N5 1_555 1_555
N5 C10 1_555 1_555
C10 H5 1_555 1_555
N6 N5 1_555 1_555
H6 C12 1_555 1_555
Zn9 N6 1_555 1_555
O15 Zn4 1_555 1_555
N13 Zn4 1_555 1_555
N16 Zn4 1_555 1_555
N6 C12 1_555 1_555
Zn9 O15 1_555 1_555
O21 C7_2 1_555 1_555
C7_2 C5_2 1_555 1_555
O6_2 C7_2 1_555 1_555
Zn15_2 O6_2 1_555 1_555
Zn15_2 O18 1_555 1_555
N15 C10_2 1_555 1_555
C10_2 H5_2 1_555 1_555
N6_2 N15 1_555 1_555
H6_2 C12_2 1_555 1_555
Zn9_2 N6_2 1_555 1_555
N6_2 C12_2 1_555 1_555
Zn9_2 O16 1_555 1_555
O22 C15_2 1_555 1_555
C15_2 C13_2 1_555 1_555
O10_2 C15_2 1_555 1_555
Zn16_2 O10_2 1_555 1_555
Zn16_2 O17 1_555 1_555
N16 C18_2 1_555 1_555
C18_2 H9_2 1_555 1_555
N10_2 N16 1_555 1_555
H10_2 C20_2 1_555 1_555
Zn11_2 N10_2 1_555 1_555
N10_2 C20_2 1_555 1_555
Zn11_2 O15 1_555 1_555
Zn1_2 O1_2 1_555 1_555
O1_2 Zn8_2 1_555 1_555
N1_2 Zn1_2 1_555 1_555
C2_2 N1_2 1_555 1_555
H1_2 C2_2 1_555 1_555
N2_2 N1_2 1_555 1_555
H2_2 C4_2 1_555 1_555
N3_2 Zn1_2 1_555 1_555
C6_2 N3_2 1_555 1_555
H3_2 C6_2 1_555 1_555
N4_2 N3_2 1_555 1_555
H4_2 C8_2 1_555 1_555
N7_2 Zn1_2 1_555 1_555
C14_2 N7_2 1_555 1_555
H7_2 C14_2 1_555 1_555
N8_2 N7_2 1_555 1_555
H8_2 C16_2 1_555 1_555
Zn8_2 N4_2 1_555 1_555
Zn13_2 O1_2 1_555 1_555
Zn14_2 O1_2 1_555 1_555
N17_2 Zn8_2 1_555 1_555
N18_2 Zn8_2 1_555 1_555
N2_2 C4_2 1_555 1_555
N2_2 Zn14_2 1_555 1_555
N4_2 C8_2 1_555 1_555
N8_2 C16_2 1_555 1_555
N8_2 Zn13_2 1_555 1_555
Zn2_2 O2_2 1_555 1_555
O2_2 Zn7_2 1_555 1_555
O3_2 Zn2_2 1_555 1_555
C3_2 O3_2 1_555 1_555
O4_2 C3_2 1_555 1_555
O7_2 Zn2_2 1_555 1_555
C11_2 O7_2 1_555 1_555
O8_2 C11_2 1_555 1_555
O11_2 Zn2_2 1_555 1_555
C19_2 O11_2 1_555 1_555
O12_2 C19_2 1_555 1_555
Zn7_2 O8_2 1_555 1_555
N17_2 C22_2 1_555 1_555
O13_2 Zn7_2 1_555 1_555
C21_2 C22_2 1_555 1_555
C22_2 H11_2 1_555 1_555
C23_2 O13_2 1_555 1_555
N12_2 N17_2 1_555 1_555
O14_2 C23_2 1_555 1_555
C24_2 C21_2 1_555 1_555
H12_2 C24_2 1_555 1_555
Zn13_2 N12_2 1_555 1_555
Zn17_2 O2_2 1_555 1_555
Zn18_2 O2_2 1_555 1_555
O23_2 Zn7_2 1_555 1_555
C1_2 C3_2 1_555 1_555
O4_2 Zn18_2 1_555 1_555
C9_2 C11_2 1_555 1_555
C17_2 C19_2 1_555 1_555
O12_2 Zn17_2 1_555 1_555
C21_2 C23_2 1_555 1_555
N12_2 C24_2 1_555 1_555
O14_2 Zn17_2 1_555 1_555
C3_3 O19 1_555 1_555
O4_3 C3_3 1_555 1_555
N11 C22_3 1_555 1_555
O13_3 Zn15 1_555 1_555
C21_3 C22_3 1_555 1_555
C22_3 H11_3 1_555 1_555
C23_3 O13_3 1_555 1_555
N12_3 N11 1_555 1_555
O14_3 C23_3 1_555 1_555
C24_3 C21_3 1_555 1_555
H12_3 C24_3 1_555 1_555
Zn9 N11 1_555 1_555
Zn11_2 N12_3 1_555 1_555
Zn18_3 O17 1_555 1_555
O23_3 Zn15 1_555 1_555
C1_3 C3_3 1_555 1_555
O4_3 Zn18_3 1_555 1_555
C21_3 C23_3 1_555 1_555
N12_3 C24_3 1_555 1_555
O14_3 Zn16_2 1_555 1_555
C2_3 N13 1_555 1_555
H1_3 C2_3 1_555 1_555
N2_3 N13 1_555 1_555
H2_3 C4_3 1_555 1_555
Zn14_3 O15 1_555 1_555
N18_3 Zn9 1_555 1_555
N2_3 C4_3 1_555 1_555
N2_3 Zn14_3 1_555 1_555
C3_4 O20 1_555 1_555
O4_4 C3_4 1_555 1_555
N11_2 C22_4 1_555 1_555
O13_4 Zn15_2 1_555 1_555
C21_4 C22_4 1_555 1_555
C22_4 H11_4 1_555 1_555
C23_4 O13_4 1_555 1_555
N12_4 N11_2 1_555 1_555
O14_4 C23_4 1_555 1_555
C24_4 C21_4 1_555 1_555
H12_4 C24_4 1_555 1_555
Zn9_2 N11_2 1_555 1_555
Zn11 N12_4 1_555 1_555
Zn18_4 O18 1_555 1_555
O23_4 Zn15_2 1_555 1_555
C1_4 C3_4 1_555 1_555
O4_4 Zn18_4 1_555 1_555
C21_4 C23_4 1_555 1_555
N12_4 C24_4 1_555 1_555
O14_4 Zn16 1_555 1_555
C2_4 N14 1_555 1_555
H1_4 C2_4 1_555 1_555
N2_4 N14 1_555 1_555
H2_4 C4_4 1_555 1_555
Zn14_4 O16 1_555 1_555
N18_4 Zn9_2 1_555 1_555
N2_4 C4_4 1_555 1_555
N2_4 Zn14_4 1_555 1_555
N17_3 Zn13 1_555 1_555
N17_3 C22_5 1_555 1_555
O13_5 Zn16_2 1_555 1_555
C21_5 C22_5 1_555 1_555
C22_5 H11_5 1_555 1_555
C23_5 O13_5 1_555 1_555
N12_5 N17_3 1_555 1_555
O14_5 C23_5 1_555 1_555
C24_5 C21_5 1_555 1_555
H12_5 C24_5 1_555 1_555
Zn14 N12_5 1_555 1_555
C21_5 C23_5 1_555 1_555
N12_5 C24_5 1_555 1_555
O14_5 Zn18_3 1_555 1_555
N17_4 Zn11 1_555 1_555
N17_4 C22_6 1_555 1_555
O13_6 Zn17_2 1_555 1_555
C21_6 C22_6 1_555 1_555
C22_6 H11_6 1_555 1_555
C23_6 O13_6 1_555 1_555
N12_6 N17_4 1_555 1_555
O14_6 C23_6 1_555 1_555
C24_6 C21_6 1_555 1_555
H12_6 C24_6 1_555 1_555
Zn14_4 N12_6 1_555 1_555
C21_6 C23_6 1_555 1_555
N12_6 C24_6 1_555 1_555
O14_6 Zn18_2 1_555 1_555
N11_3 C22_7 1_555 1_555
O13_7 Zn16 1_555 1_555
C21_7 C22_7 1_555 1_555
C22_7 H11_7 1_555 1_555
C23_7 O13_7 1_555 1_555
N12_7 N11_3 1_555 1_555
O14_7 C23_7 1_555 1_555
C24_7 C21_7 1_555 1_555
H12_7 C24_7 1_555 1_555
Zn13_2 N11_3 1_555 1_555
Zn14_2 N12_7 1_555 1_555
C21_7 C23_7 1_555 1_555
N12_7 C24_7 1_555 1_555
O14_7 Zn18_4 1_555 1_555
N11_4 C22_8 1_555 1_555
O13_8 Zn17 1_555 1_555
C21_8 C22_8 1_555 1_555
C22_8 H11_8 1_555 1_555
C23_8 O13_8 1_555 1_555
N12_8 N11_4 1_555 1_555
O14_8 C23_8 1_555 1_555
C24_8 C21_8 1_555 1_555
H12_8 C24_8 1_555 1_555
Zn11_2 N11_4 1_555 1_555
Zn14_3 N12_8 1_555 1_555
C21_8 C23_8 1_555 1_555
N12_8 C24_8 1_555 1_555
O14_8 Zn18 1_555 1_555
N17_5 Zn14 1_555 1_555
N17_5 C22_9 1_555 1_555
O13_9 Zn18_4 1_555 1_555
C21_9 C22_9 1_555 1_555
C22_9 H11_9 1_555 1_555
C23_9 O13_9 1_555 1_555
N18 N17_5 1_555 1_555
O23_4 C23_9 1_555 1_555
C24_9 C21_9 1_555 1_555
H12_9 C24_9 1_555 1_555
C21_9 C23_9 1_555 1_555
N18 C24_9 1_555 1_555
N17_6 Zn14_3 1_555 1_555
N17_6 C22_10 1_555 1_555
O13_10 Zn18_2 1_555 1_555
C21_10 C22_10 1_555 1_555
C22_10 H11_10 1_555 1_555
C23_10 O13_10 1_555 1_555
N18_3 N17_6 1_555 1_555
O23_2 C23_10 1_555 1_555
C24_10 C21_10 1_555 1_555
H12_10 C24_10 1_555 1_555
C21_10 C23_10 1_555 1_555
N18_3 C24_10 1_555 1_555
N11_5 C22_11 1_555 1_555
O13_11 Zn18 1_555 1_555
C21_11 C22_11 1_555 1_555
C22_11 H11_11 1_555 1_555
C23_11 O13_11 1_555 1_555
N18_4 N11_5 1_555 1_555
O23 C23_11 1_555 1_555
C24_11 C21_11 1_555 1_555
H12_11 C24_11 1_555 1_555
Zn14_4 N11_5 1_555 1_555
C21_11 C23_11 1_555 1_555
N18_4 C24_11 1_555 1_555
N11_6 C22_12 1_555 1_555
O13_12 Zn18_3 1_555 1_555
C21_12 C22_12 1_555 1_555
C22_12 H11_12 1_555 1_555
C23_12 O13_12 1_555 1_555
N18_2 N11_6 1_555 1_555
O23_3 C23_12 1_555 1_555
C24_12 C21_12 1_555 1_555
H12_12 C24_12 1_555 1_555
Zn14_2 N11_6 1_555 1_555
C21_12 C23_12 1_555 1_555
N18_2 C24_12 1_555 1_555

#END
