
###############################################################################
#
# This file contains modified crystal structure data generated from the
# MOF subset of the Cambridge Structural Database (CSD) v543 
# hosted by the Cambridge Crystallographic Data Centre (CCDC).
#
# This work is licensed under the Creative Commons
# Attribution-NonCommercial-ShareAlike 4.0 International License.
# To view a copy of this license, visit
# http://creativecommons.org/licenses/by-nc-sa/4.0/
# or send a letter to
# Creative Commons, PO Box 1866, Mountain View, CA 94042, USA.
#
# CIF created using the CSD Python API on 29 September 2022
# The structure has been converted into the P1 space group
# The structure has a 3D framework
# The original CSD entry BUKYIS is in the triclinic crystal system
# The original CSD entry BUKYIS is in a Sohncke space group
# The framework has been calculated to contain at least 10.0% void space
# The void calculation uses a probe of radius 1.32A, grid spacing 0.4
#
###############################################################################

data_BUKYIS
_chemical_formula_moiety         '(C13 H16 Er2 O20)n'
_symmetry_cell_setting           triclinic
_symmetry_space_group_name_H-M   'P 1'
_symmetry_Int_Tables_number      1
_space_group_name_Hall           'P 1'
loop_
_symmetry_equiv_pos_site_id
_symmetry_equiv_pos_as_xyz
1 x,y,z
_cell_length_a                   5.9743(4)
_cell_length_b                   7.3542(5)
_cell_length_c                   13.1941(9)
_cell_angle_alpha                102.422(2)
_cell_angle_beta                 101.664(2)
_cell_angle_gamma                90.613(2)
_cell_volume                     553.547
loop_
_atom_site_label
_atom_site_type_symbol
_atom_site_fract_x
_atom_site_fract_y
_atom_site_fract_z
Er4 Er 0.02237(6) 0.81754(5) 0.67817(4)
C4 C 0.782(3) 0.095(2) 0.0968(13)
O3 O 0.3252(17) 0.2204(14) 0.0352(8)
O5 O 0.7545(18) 0.0085(17) 0.1646(8)
O6 O 0.9232(19) 0.2283(17) 0.1163(9)
H7 H 0.205044 0.230559 0.060734
Er7 Er 0.97674(7) 0.18337(6) 0.32291(4)
C2 C 0.377(2) 0.030(2) 0.9986(11)
C3 C 0.625(2) 0.026(2) 0.9850(10)
O2 O 0.0467(18) 0.0122(14) 0.8547(8)
O4 O 0.6506(18) 0.1321(16) 0.9110(8)
H8 H 0.781856 0.108674 0.896993
O23 O 0.1644(17) 0.1402(15) 0.6911(8)
C1 C 0.217(3) 0.935(2) 0.8937(13)
H2 H 0.657132 0.897156 0.956967
C5 C 0.159(2) 0.3867(19) 0.5667(10)
C6 C 0.344(2) 0.248(2) 0.5649(10)
H3 H 0.486062 0.313271 0.562640
C7 C 0.383(2) 0.1785(18) 0.6658(10)
H4 H 0.468649 0.276784 0.723339
C8 C 0.513(2) -0.0001(19) 0.6628(10)
O1 O 0.2628(18) 0.7729(14) 0.8468(8)
O8 O 0.1795(18) 0.5253(13) 0.6436(8)
O9 O 0.2840(17) 0.1053(14) 0.4712(7)
O12 O 0.7209(17) 0.0107(14) 0.6550(7)
O13 O 0.0245(17) 0.8502(13) 0.5085(7)
H9 H 0.209316 0.015610 0.483677
H10 H 0.177068 0.179585 0.756820
H16 H 0.361306 0.026318 0.262713
O24 O 0.4085(19) 0.8542(16) 0.6686(8)
O27 O 0.2761(18) 0.3864(14) 0.3350(8)
C8_2 C 0.513(2) 0.9999(19) 0.6628(10)
O20 O 0.2270(18) 0.9763(14) 0.2509(8)
H15 H 0.214447 0.900674 0.190584
C9 C 0.849(2) 0.831(2) 0.4322(11)
C10 C 0.661(2) 0.693(2) 0.4360(10)
H5 H 0.520411 0.759729 0.438874
C11 C 0.623(2) 0.5496(19) 0.3320(10)
H6 H 0.540029 0.605856 0.275485
C12 C 0.487(2) 0.374(2) 0.3336(10)
O7 O 0.982(2) 0.3506(16) 0.4911(8)
O14 O 0.8229(16) 0.9154(14) 0.3608(8)
O15 O 0.7196(17) 0.6212(14) 0.5278(7)
O16 O 0.8368(17) 0.4868(15) 0.3050(8)
O17 O 0.5911(18) 0.2250(16) 0.3329(8)
O19 O 0.7577(19) 0.6563(15) 0.7405(8)
H11 H 0.795780 0.524486 0.520618
H12 H 0.839751 0.523445 0.246945
H13 H 0.765569 0.640855 0.805056
H14 H 0.623531 0.690512 0.723975
H1 H 0.361117 0.960519 0.052600
loop_
_geom_bond_atom_site_label_1
_geom_bond_atom_site_label_2
_geom_bond_site_symmetry_1
_geom_bond_site_symmetry_2
O5 C4 1_555 1_555
O6 C4 1_555 1_555
H7 O3 1_555 1_555
Er7 O5 1_555 1_555
O6 Er7 1_555 1_555
C3 C2 1_555 1_555
O4 C3 1_555 1_555
H8 O4 1_555 1_555
Er4 O1 1_555 1_555
C5 C6 1_555 1_555
C6 H3 1_555 1_555
C7 C6 1_555 1_555
H4 C7 1_555 1_555
C8 C7 1_555 1_555
O1 C1 1_555 1_555
O8 Er4 1_555 1_555
O23 C7 1_555 1_555
O12 C8 1_555 1_555
O13 Er4 1_555 1_555
H9 O9 1_555 1_555
H10 O23 1_555 1_555
O24 Er4 1_555 1_555
C5 O8 1_555 1_555
C6 O9 1_555 1_555
O24 C8_2 1_555 1_555
H15 O20 1_555 1_555
Er7 O7 1_555 1_555
C9 C10 1_555 1_555
C10 H5 1_555 1_555
C11 C10 1_555 1_555
H6 C11 1_555 1_555
C12 C11 1_555 1_555
O14 C9 1_555 1_555
O16 Er7 1_555 1_555
O17 Er7 1_555 1_555
O27 C12 1_555 1_555
H11 O15 1_555 1_555
H12 O16 1_555 1_555
H13 O19 1_555 1_555
H14 O19 1_555 1_555
C10 O15 1_555 1_555
C11 O16 1_555 1_555
C12 O17 1_555 1_555

#END
