
###############################################################################
#
# This file contains modified crystal structure data generated from the
# MOF subset of the Cambridge Structural Database (CSD) v543 
# hosted by the Cambridge Crystallographic Data Centre (CCDC).
#
# This work is licensed under the Creative Commons
# Attribution-NonCommercial-ShareAlike 4.0 International License.
# To view a copy of this license, visit
# http://creativecommons.org/licenses/by-nc-sa/4.0/
# or send a letter to
# Creative Commons, PO Box 1866, Mountain View, CA 94042, USA.
#
# CIF created using the CSD Python API on 29 September 2022
# The structure has been converted into the P1 space group
# The structure has a 3D framework
# The original CSD entry BUNLAZ is in the hexagonal crystal system
# The framework has been calculated to contain at least 10.0% void space
# The void calculation uses a probe of radius 1.32A, grid spacing 0.4
# H atom positions have been added when not included in the experimental data
# Generated hydrogen atom positions removed from atoms on special positions
#
###############################################################################

data_BUNLAZ
_chemical_formula_moiety         '(C324 H356 O109 Zr29)n'
_symmetry_cell_setting           triclinic
_symmetry_space_group_name_H-M   'P 1'
_symmetry_Int_Tables_number      1
_space_group_name_Hall           'P 1'
loop_
_symmetry_equiv_pos_site_id
_symmetry_equiv_pos_as_xyz
1 x,y,z
_cell_length_a                   50.72(3)
_cell_length_b                   50.72(3)
_cell_length_c                   15.502(7)
_cell_angle_alpha                90
_cell_angle_beta                 90
_cell_angle_gamma                120
_cell_volume                     34536.4
loop_
_atom_site_label
_atom_site_type_symbol
_atom_site_fract_x
_atom_site_fract_y
_atom_site_fract_z
_atom_site_U_iso_or_equiv
_atom_site_thermal_displace_type
Zr8 Zr 0.52742 0.05484 0.000 0.0327 Uiso
Zr10 Zr 0.52742 0.47258 0.000 0.0327 Uiso
Zr1 Zr 0.46539 0.000 0.11538 0.0327 Uiso
O1 O 0.47277 -0.000 0.25262 0.0702 Uiso
O2 O 0.51512 0.03024 0.12322 0.0702 Uiso
O3 O 0.47787 0.02895 0.000 0.0702 Uiso
O4 O 0.42212 0.000 0.0988 0.0702 Uiso
O5 O 0.510473 0.074937 0.093081 0.0702 Uiso
O6 O 0.47 0.042201 0.166051 0.0702 Uiso
C1 C 0.4897 0.06984 0.14833 0.0930 Uiso
C2 C 0.487868 0.09579 0.193341 0.0930 Uiso
C3 C 0.459685 0.092412 0.21417 0.0930 Uiso
C4 C 0.458024 0.11594 0.254979 0.0930 Uiso
C5 C 0.484167 0.143091 0.275725 0.0930 Uiso
C6 C 0.512729 0.146223 0.254131 0.0930 Uiso
C7 C 0.51439 0.122695 0.213322 0.0930 Uiso
C8 C 0.481655 0.1679 0.319471 0.0930 Uiso
C9 C 0.455054 0.161333 0.362742 0.0930 Uiso
C10 C 0.45271 0.184477 0.403552 0.0930 Uiso
C11 C 0.476944 0.214202 0.401161 0.0930 Uiso
C12 C 0.503569 0.220755 0.357822 0.0930 Uiso
C13 C 0.505913 0.197611 0.317012 0.0930 Uiso
C14 C 0.47882 0.23941 0.456452 0.0930 Uiso
H1 H 0.440605 0.073056 0.199795 0.1116 Uiso
H2 H 0.437749 0.11351 0.269964 0.1116 Uiso
H3 H 0.531937 0.165491 0.268238 0.1116 Uiso
H4 H 0.534665 0.125125 0.198337 0.1116 Uiso
H5 H 0.436009 0.138007 0.364673 0.1116 Uiso
H6 H 0.43356 0.179722 0.434659 0.1116 Uiso
H7 H 0.521029 0.242125 0.356028 0.1116 Uiso
H8 H 0.52505 0.202335 0.285882 0.1116 Uiso
O7 O 0.510473 0.435536 0.906919 0.0702 Uiso
O8 O 0.47 0.427799 0.833949 0.0702 Uiso
C15 C 0.4897 0.41986 0.85167 0.0930 Uiso
C16 C 0.487868 0.392078 0.806659 0.0930 Uiso
C17 C 0.459685 0.367273 0.78583 0.0930 Uiso
C18 C 0.458024 0.342084 0.745021 0.0930 Uiso
C19 C 0.484167 0.341076 0.724275 0.0930 Uiso
C20 C 0.512729 0.366506 0.745869 0.0930 Uiso
C21 C 0.51439 0.391695 0.786678 0.0930 Uiso
C22 C 0.481655 0.313755 0.680529 0.0930 Uiso
C23 C 0.455054 0.293721 0.637258 0.0930 Uiso
C24 C 0.45271 0.268233 0.596448 0.0930 Uiso
C25 C 0.476944 0.262742 0.598839 0.0930 Uiso
C26 C 0.503569 0.282814 0.642178 0.0930 Uiso
C27 C 0.505913 0.308302 0.682988 0.0930 Uiso
C28 C 0.47882 0.23941 0.543548 0.0930 Uiso
H9 H 0.440605 0.367549 0.800205 0.1116 Uiso
H10 H 0.437749 0.324239 0.730036 0.1116 Uiso
H11 H 0.531937 0.366446 0.731762 0.1116 Uiso
H12 H 0.534665 0.409540 0.801663 0.1116 Uiso
H13 H 0.436009 0.298002 0.635327 0.1116 Uiso
H14 H 0.43356 0.253838 0.565341 0.1116 Uiso
H15 H 0.521029 0.278904 0.643972 0.1116 Uiso
H16 H 0.52505 0.322715 0.714118 0.1116 Uiso
O9 O 0.510473 0.074937 0.906919 0.0702 Uiso
O10 O 0.47 0.042201 0.833949 0.0702 Uiso
C29 C 0.4897 0.06984 0.85167 0.0930 Uiso
C30 C 0.487868 0.09579 0.806659 0.0930 Uiso
C31 C 0.459685 0.092412 0.78583 0.0930 Uiso
C32 C 0.458024 0.11594 0.745021 0.0930 Uiso
C33 C 0.484167 0.143091 0.724275 0.0930 Uiso
C34 C 0.512729 0.146223 0.745869 0.0930 Uiso
C35 C 0.51439 0.122695 0.786678 0.0930 Uiso
C36 C 0.481655 0.1679 0.680529 0.0930 Uiso
C37 C 0.455054 0.161333 0.637258 0.0930 Uiso
C38 C 0.45271 0.184477 0.596448 0.0930 Uiso
C39 C 0.476944 0.214202 0.598839 0.0930 Uiso
C40 C 0.503569 0.220755 0.642178 0.0930 Uiso
C41 C 0.505913 0.197611 0.682988 0.0930 Uiso
H17 H 0.440605 0.073056 0.800205 0.1116 Uiso
H18 H 0.437749 0.11351 0.730036 0.1116 Uiso
H19 H 0.531937 0.165491 0.731762 0.1116 Uiso
H20 H 0.534665 0.125125 0.801663 0.1116 Uiso
H21 H 0.436009 0.138007 0.635327 0.1116 Uiso
H22 H 0.43356 0.179722 0.565341 0.1116 Uiso
H23 H 0.521029 0.242125 0.643972 0.1116 Uiso
H24 H 0.52505 0.202335 0.714118 0.1116 Uiso
O11 O 0.510473 0.435536 0.093081 0.0702 Uiso
O12 O 0.47 0.427799 0.166051 0.0702 Uiso
C42 C 0.4897 0.41986 0.14833 0.0930 Uiso
C43 C 0.487868 0.392078 0.193341 0.0930 Uiso
C44 C 0.459685 0.367273 0.21417 0.0930 Uiso
C45 C 0.458024 0.342084 0.254979 0.0930 Uiso
C46 C 0.484167 0.341076 0.275725 0.0930 Uiso
C47 C 0.512729 0.366506 0.254131 0.0930 Uiso
C48 C 0.51439 0.391695 0.213322 0.0930 Uiso
C49 C 0.481655 0.313755 0.319471 0.0930 Uiso
C50 C 0.455054 0.293721 0.362742 0.0930 Uiso
C51 C 0.45271 0.268233 0.403552 0.0930 Uiso
C52 C 0.476944 0.262742 0.401161 0.0930 Uiso
C53 C 0.503569 0.282814 0.357822 0.0930 Uiso
C54 C 0.505913 0.308302 0.317012 0.0930 Uiso
H25 H 0.440605 0.367549 0.199795 0.1116 Uiso
H26 H 0.437749 0.324239 0.269964 0.1116 Uiso
H27 H 0.531937 0.366446 0.268238 0.1116 Uiso
H28 H 0.534665 0.409540 0.198337 0.1116 Uiso
H29 H 0.436009 0.298002 0.364673 0.1116 Uiso
H30 H 0.43356 0.253838 0.434659 0.1116 Uiso
H31 H 0.521029 0.278904 0.356028 0.1116 Uiso
H32 H 0.52505 0.322715 0.285882 0.1116 Uiso
Zr3 Zr 0.53461 0.000 0.11538 0.0327 Uiso
O13 O 0.52723 -0.000 0.25262 0.0702 Uiso
O14 O 0.57788 0.000 0.0988 0.0702 Uiso
Zr4 Zr 0.46539 0.46539 0.11538 0.0327 Uiso
Zr6 Zr 0.46539 -0.000 0.88462 0.0327 Uiso
Zr7 Zr 0.46539 0.46539 0.88462 0.0327 Uiso
Zr8_2 Zr 0.52742 0.05484 1.000 0.0327 Uiso
Zr10_2 Zr 0.52742 0.47258 1.000 0.0327 Uiso
O19 O 0.55108 0.02895 0.000 0.0702 Uiso
O22 O 0.564464 0.074937 0.093081 0.0702 Uiso
O24 O 0.572201 0.042201 0.166051 0.0702 Uiso
O3_2 O 0.47787 0.02895 1.000 0.0702 Uiso
O17 O 0.51512 0.03024 0.87678 0.0702 Uiso
O19_2 O 0.55108 0.02895 1.000 0.0702 Uiso
O20 O 0.564464 0.074937 0.906919 0.0702 Uiso
Zr1_2 Zr 0.46539 1.000 0.11538 0.0327 Uiso
O1_2 O 0.47277 1.000 0.25262 0.0702 Uiso
O4_2 O 0.42212 1.000 0.0988 0.0702 Uiso
Zr3_2 Zr 0.53461 1.000 0.11538 0.0327 Uiso
O13_2 O 0.52723 1.000 0.25262 0.0702 Uiso
O14_2 O 0.57788 1.000 0.0988 0.0702 Uiso
O15 O 0.48488 0.96976 0.12322 0.0702 Uiso
O16 O 0.44892 0.97105 0.000 0.0702 Uiso
Zr6_2 Zr 0.46539 1.000 0.88462 0.0327 Uiso
Zr11 Zr 0.47258 0.94516 0.000 0.0327 Uiso
O18 O 0.52213 0.97105 0.000 0.0702 Uiso
O23 O 0.53 0.957799 0.166051 0.0702 Uiso
O25 O 0.427799 0.957799 0.166051 0.0702 Uiso
O16_2 O 0.44892 0.97105 1.000 0.0702 Uiso
Zr11_2 Zr 0.47258 0.94516 1.000 0.0327 Uiso
O18_2 O 0.52213 0.97105 1.000 0.0702 Uiso
Zr1_3 Zr 0.000 0.46539 0.11538 0.0327 Uiso
O1_3 O -0.000 0.47277 0.25262 0.0702 Uiso
O4_3 O -0.000 0.42212 0.0988 0.0702 Uiso
Zr3_3 Zr 0.000 0.53461 0.11538 0.0327 Uiso
O13_3 O 0.000 0.52723 0.25262 0.0702 Uiso
O14_3 O 0.000 0.57788 0.0988 0.0702 Uiso
O15_2 O 0.03024 0.51512 0.12322 0.0702 Uiso
O16_3 O 0.02895 0.47787 0.000 0.0702 Uiso
Zr6_3 Zr -0.000 0.46539 0.88462 0.0327 Uiso
Zr11_3 Zr 0.05484 0.52742 0.000 0.0327 Uiso
O18_3 O 0.02895 0.55108 0.000 0.0702 Uiso
O23_2 O 0.042201 0.572201 0.166051 0.0702 Uiso
O25_2 O 0.042201 0.470000 0.166051 0.0702 Uiso
O16_4 O 0.02895 0.47787 1.000 0.0702 Uiso
Zr11_4 Zr 0.05484 0.52742 1.000 0.0327 Uiso
O18_4 O 0.02895 0.55108 1.000 0.0702 Uiso
Zr8_3 Zr 0.94516 0.47258 0.000 0.0327 Uiso
Zr1_4 Zr 1.000 0.46539 0.11538 0.0327 Uiso
O1_4 O 1.000 0.47277 0.25262 0.0702 Uiso
O2_2 O 0.96976 0.48488 0.12322 0.0702 Uiso
O3_3 O 0.97105 0.44892 0.000 0.0702 Uiso
O4_4 O 1.000 0.42212 0.0988 0.0702 Uiso
O5_2 O 0.925063 0.435536 0.093081 0.0702 Uiso
O6_2 O 0.957799 0.427799 0.166051 0.0702 Uiso
C1_2 C 0.93016 0.41986 0.14833 0.0930 Uiso
C2_2 C 0.90421 0.392078 0.193341 0.0930 Uiso
C3_2 C 0.907588 0.367273 0.21417 0.0930 Uiso
C4_2 C 0.88406 0.342084 0.254979 0.0930 Uiso
C5_2 C 0.856909 0.341076 0.275725 0.0930 Uiso
C6_2 C 0.853777 0.366506 0.254131 0.0930 Uiso
C7_2 C 0.877305 0.391695 0.213322 0.0930 Uiso
C8_2 C 0.8321 0.313755 0.319471 0.0930 Uiso
C9_2 C 0.838667 0.293721 0.362742 0.0930 Uiso
C10_2 C 0.815523 0.268233 0.403552 0.0930 Uiso
C11_2 C 0.785798 0.262742 0.401161 0.0930 Uiso
C12_2 C 0.779245 0.282814 0.357822 0.0930 Uiso
C13_2 C 0.802389 0.308302 0.317012 0.0930 Uiso
C14_2 C 0.76059 0.23941 0.456452 0.0930 Uiso
H1_2 H 0.926944 0.367549 0.199795 0.1116 Uiso
H2_2 H 0.88649 0.324239 0.269964 0.1116 Uiso
H3_2 H 0.834509 0.366446 0.268238 0.1116 Uiso
H4_2 H 0.874875 0.409540 0.198337 0.1116 Uiso
H5_2 H 0.861993 0.298002 0.364673 0.1116 Uiso
H6_2 H 0.820278 0.253838 0.434659 0.1116 Uiso
H7_2 H 0.757875 0.278904 0.356028 0.1116 Uiso
H8_2 H 0.797665 0.322715 0.285882 0.1116 Uiso
O8_2 O 0.572201 0.042201 0.833949 0.0702 Uiso
C15_2 C 0.58014 0.06984 0.85167 0.0930 Uiso
C16_2 C 0.607922 0.095790 0.806659 0.0930 Uiso
C17_2 C 0.632727 0.092412 0.78583 0.0930 Uiso
C18_2 C 0.657916 0.115940 0.745021 0.0930 Uiso
C19_2 C 0.658924 0.143091 0.724275 0.0930 Uiso
C20_2 C 0.633494 0.146223 0.745869 0.0930 Uiso
C21_2 C 0.608305 0.122695 0.786678 0.0930 Uiso
C22_2 C 0.686245 0.167900 0.680529 0.0930 Uiso
C23_2 C 0.706279 0.161333 0.637258 0.0930 Uiso
C24_2 C 0.731767 0.184477 0.596448 0.0930 Uiso
C25_2 C 0.737258 0.214202 0.598839 0.0930 Uiso
C26_2 C 0.717186 0.220755 0.642178 0.0930 Uiso
C27_2 C 0.691698 0.197611 0.682988 0.0930 Uiso
C28_2 C 0.76059 0.23941 0.543548 0.0930 Uiso
H9_2 H 0.632451 0.073056 0.800205 0.1116 Uiso
H10_2 H 0.675761 0.113510 0.730036 0.1116 Uiso
H11_2 H 0.633554 0.165491 0.731762 0.1116 Uiso
H12_2 H 0.590460 0.125125 0.801663 0.1116 Uiso
H13_2 H 0.701998 0.138007 0.635327 0.1116 Uiso
H14_2 H 0.746162 0.179722 0.565341 0.1116 Uiso
H15_2 H 0.721096 0.242125 0.643972 0.1116 Uiso
H16_2 H 0.677285 0.202335 0.714118 0.1116 Uiso
O9_2 O 0.925063 0.435536 0.906919 0.0702 Uiso
O10_2 O 0.957799 0.427799 0.833949 0.0702 Uiso
C29_2 C 0.93016 0.41986 0.85167 0.0930 Uiso
C30_2 C 0.90421 0.392078 0.806659 0.0930 Uiso
C31_2 C 0.907588 0.367273 0.78583 0.0930 Uiso
C32_2 C 0.88406 0.342084 0.745021 0.0930 Uiso
C33_2 C 0.856909 0.341076 0.724275 0.0930 Uiso
C34_2 C 0.853777 0.366506 0.745869 0.0930 Uiso
C35_2 C 0.877305 0.391695 0.786678 0.0930 Uiso
C36_2 C 0.8321 0.313755 0.680529 0.0930 Uiso
C37_2 C 0.838667 0.293721 0.637258 0.0930 Uiso
C38_2 C 0.815523 0.268233 0.596448 0.0930 Uiso
C39_2 C 0.785798 0.262742 0.598839 0.0930 Uiso
C40_2 C 0.779245 0.282814 0.642178 0.0930 Uiso
C41_2 C 0.802389 0.308302 0.682988 0.0930 Uiso
H17_2 H 0.926944 0.367549 0.800205 0.1116 Uiso
H18_2 H 0.88649 0.324239 0.730036 0.1116 Uiso
H19_2 H 0.834509 0.366446 0.731762 0.1116 Uiso
H20_2 H 0.874875 0.409540 0.801663 0.1116 Uiso
H21_2 H 0.861993 0.298002 0.635327 0.1116 Uiso
H22_2 H 0.820278 0.253838 0.565341 0.1116 Uiso
H23_2 H 0.757875 0.278904 0.643972 0.1116 Uiso
H24_2 H 0.797665 0.322715 0.714118 0.1116 Uiso
C42_2 C 0.58014 0.06984 0.14833 0.0930 Uiso
C43_2 C 0.607922 0.095790 0.193341 0.0930 Uiso
C44_2 C 0.632727 0.092412 0.21417 0.0930 Uiso
C45_2 C 0.657916 0.115940 0.254979 0.0930 Uiso
C46_2 C 0.658924 0.143091 0.275725 0.0930 Uiso
C47_2 C 0.633494 0.146223 0.254131 0.0930 Uiso
C48_2 C 0.608305 0.122695 0.213322 0.0930 Uiso
C49_2 C 0.686245 0.167900 0.319471 0.0930 Uiso
C50_2 C 0.706279 0.161333 0.362742 0.0930 Uiso
C51_2 C 0.731767 0.184477 0.403552 0.0930 Uiso
C52_2 C 0.737258 0.214202 0.401161 0.0930 Uiso
C53_2 C 0.717186 0.220755 0.357822 0.0930 Uiso
C54_2 C 0.691698 0.197611 0.317012 0.0930 Uiso
H25_2 H 0.632451 0.073056 0.199795 0.1116 Uiso
H26_2 H 0.675761 0.113510 0.269964 0.1116 Uiso
H27_2 H 0.633554 0.165491 0.268238 0.1116 Uiso
H28_2 H 0.590460 0.125125 0.198337 0.1116 Uiso
H29_2 H 0.701998 0.138007 0.364673 0.1116 Uiso
H30_2 H 0.746162 0.179722 0.434659 0.1116 Uiso
H31_2 H 0.721096 0.242125 0.356028 0.1116 Uiso
H32_2 H 0.677285 0.202335 0.285882 0.1116 Uiso
Zr3_4 Zr 1.000 0.53461 0.11538 0.0327 Uiso
O13_4 O 1.000 0.52723 0.25262 0.0702 Uiso
O14_4 O 1.000 0.57788 0.0988 0.0702 Uiso
Zr6_4 Zr 1.000 0.46539 0.88462 0.0327 Uiso
Zr7_2 Zr 0.53461 -0.00000 0.88462 0.0327 Uiso
Zr8_4 Zr 0.94516 0.47258 1.000 0.0327 Uiso
O19_3 O 0.97105 0.52213 0.000 0.0702 Uiso
O22_2 O 0.925063 0.489527 0.093081 0.0702 Uiso
O24_2 O 0.957799 0.530000 0.166051 0.0702 Uiso
O3_4 O 0.97105 0.44892 1.000 0.0702 Uiso
O17_2 O 0.96976 0.48488 0.87678 0.0702 Uiso
O19_4 O 0.97105 0.52213 1.000 0.0702 Uiso
O20_2 O 0.925063 0.489527 0.906919 0.0702 Uiso
Zr7_3 Zr 0.53461 1.00000 0.88462 0.0327 Uiso
Zr7_4 Zr 0.00000 0.53461 0.88462 0.0327 Uiso
Zr1_5 Zr 0.53461 0.53461 0.11538 0.0327 Uiso
O1_5 O 0.52723 0.52723 0.25262 0.0702 Uiso
O2_3 O 0.51512 0.48488 0.12322 0.0702 Uiso
O3_5 O 0.55108 0.52213 0.000 0.0702 Uiso
O4_5 O 0.57788 0.57788 0.0988 0.0702 Uiso
O5_3 O 0.564464 0.489527 0.093081 0.0702 Uiso
O6_3 O 0.572201 0.53 0.166051 0.0702 Uiso
C1_3 C 0.58014 0.5103 0.14833 0.0930 Uiso
C2_3 C 0.607922 0.512132 0.193341 0.0930 Uiso
C3_3 C 0.632727 0.540315 0.21417 0.0930 Uiso
C4_3 C 0.657916 0.541976 0.254979 0.0930 Uiso
C5_3 C 0.658924 0.515833 0.275725 0.0930 Uiso
C6_3 C 0.633494 0.487271 0.254131 0.0930 Uiso
C7_3 C 0.608305 0.48561 0.213322 0.0930 Uiso
C8_3 C 0.686245 0.518345 0.319471 0.0930 Uiso
C9_3 C 0.706279 0.544946 0.362742 0.0930 Uiso
C10_3 C 0.731767 0.54729 0.403552 0.0930 Uiso
C11_3 C 0.737258 0.523056 0.401161 0.0930 Uiso
C12_3 C 0.717186 0.496431 0.357822 0.0930 Uiso
C13_3 C 0.691698 0.494087 0.317012 0.0930 Uiso
C14_3 C 0.76059 0.52118 0.456452 0.0930 Uiso
H1_3 H 0.632451 0.559395 0.199795 0.1116 Uiso
H2_3 H 0.675761 0.562251 0.269964 0.1116 Uiso
H3_3 H 0.633554 0.468063 0.268238 0.1116 Uiso
H4_3 H 0.590460 0.465335 0.198337 0.1116 Uiso
H5_3 H 0.701998 0.563991 0.364673 0.1116 Uiso
H6_3 H 0.746162 0.56644 0.434659 0.1116 Uiso
H7_3 H 0.721096 0.478971 0.356028 0.1116 Uiso
H8_3 H 0.677285 0.47495 0.285882 0.1116 Uiso
O8_3 O 0.957799 0.53 0.833949 0.0702 Uiso
C15_3 C 0.93016 0.5103 0.85167 0.0930 Uiso
C16_3 C 0.904210 0.512132 0.806659 0.0930 Uiso
C17_3 C 0.907588 0.540315 0.78583 0.0930 Uiso
C18_3 C 0.884060 0.541976 0.745021 0.0930 Uiso
C19_3 C 0.856909 0.515833 0.724275 0.0930 Uiso
C20_3 C 0.853777 0.487271 0.745869 0.0930 Uiso
C21_3 C 0.877305 0.48561 0.786678 0.0930 Uiso
C22_3 C 0.832100 0.518345 0.680529 0.0930 Uiso
C23_3 C 0.838667 0.544946 0.637258 0.0930 Uiso
C24_3 C 0.815523 0.54729 0.596448 0.0930 Uiso
C25_3 C 0.785798 0.523056 0.598839 0.0930 Uiso
C26_3 C 0.779245 0.496431 0.642178 0.0930 Uiso
C27_3 C 0.802389 0.494087 0.682988 0.0930 Uiso
C28_3 C 0.76059 0.52118 0.543548 0.0930 Uiso
H9_3 H 0.926944 0.559395 0.800205 0.1116 Uiso
H10_3 H 0.886490 0.562251 0.730036 0.1116 Uiso
H11_3 H 0.834509 0.468063 0.731762 0.1116 Uiso
H12_3 H 0.874875 0.465335 0.801663 0.1116 Uiso
H13_3 H 0.861993 0.563991 0.635327 0.1116 Uiso
H14_3 H 0.820278 0.56644 0.565341 0.1116 Uiso
H15_3 H 0.757875 0.478971 0.643972 0.1116 Uiso
H16_3 H 0.797665 0.47495 0.714118 0.1116 Uiso
O9_3 O 0.564464 0.489527 0.906919 0.0702 Uiso
O10_3 O 0.572201 0.53 0.833949 0.0702 Uiso
C29_3 C 0.58014 0.5103 0.85167 0.0930 Uiso
C30_3 C 0.607922 0.512132 0.806659 0.0930 Uiso
C31_3 C 0.632727 0.540315 0.78583 0.0930 Uiso
C32_3 C 0.657916 0.541976 0.745021 0.0930 Uiso
C33_3 C 0.658924 0.515833 0.724275 0.0930 Uiso
C34_3 C 0.633494 0.487271 0.745869 0.0930 Uiso
C35_3 C 0.608305 0.48561 0.786678 0.0930 Uiso
C36_3 C 0.686245 0.518345 0.680529 0.0930 Uiso
C37_3 C 0.706279 0.544946 0.637258 0.0930 Uiso
C38_3 C 0.731767 0.54729 0.596448 0.0930 Uiso
C39_3 C 0.737258 0.523056 0.598839 0.0930 Uiso
C40_3 C 0.717186 0.496431 0.642178 0.0930 Uiso
C41_3 C 0.691698 0.494087 0.682988 0.0930 Uiso
H17_3 H 0.632451 0.559395 0.800205 0.1116 Uiso
H18_3 H 0.675761 0.562251 0.730036 0.1116 Uiso
H19_3 H 0.633554 0.468063 0.731762 0.1116 Uiso
H20_3 H 0.590460 0.465335 0.801663 0.1116 Uiso
H21_3 H 0.701998 0.563991 0.635327 0.1116 Uiso
H22_3 H 0.746162 0.56644 0.565341 0.1116 Uiso
H23_3 H 0.721096 0.478971 0.643972 0.1116 Uiso
H24_3 H 0.677285 0.47495 0.714118 0.1116 Uiso
C42_3 C 0.93016 0.5103 0.14833 0.0930 Uiso
C43_3 C 0.904210 0.512132 0.193341 0.0930 Uiso
C44_3 C 0.907588 0.540315 0.21417 0.0930 Uiso
C45_3 C 0.884060 0.541976 0.254979 0.0930 Uiso
C46_3 C 0.856909 0.515833 0.275725 0.0930 Uiso
C47_3 C 0.853777 0.487271 0.254131 0.0930 Uiso
C48_3 C 0.877305 0.48561 0.213322 0.0930 Uiso
C49_3 C 0.832100 0.518345 0.319471 0.0930 Uiso
C50_3 C 0.838667 0.544946 0.362742 0.0930 Uiso
C51_3 C 0.815523 0.54729 0.403552 0.0930 Uiso
C52_3 C 0.785798 0.523056 0.401161 0.0930 Uiso
C53_3 C 0.779245 0.496431 0.357822 0.0930 Uiso
C54_3 C 0.802389 0.494087 0.317012 0.0930 Uiso
H25_3 H 0.926944 0.559395 0.199795 0.1116 Uiso
H26_3 H 0.886490 0.562251 0.269964 0.1116 Uiso
H27_3 H 0.834509 0.468063 0.268238 0.1116 Uiso
H28_3 H 0.874875 0.465335 0.198337 0.1116 Uiso
H29_3 H 0.861993 0.563991 0.364673 0.1116 Uiso
H30_3 H 0.820278 0.56644 0.434659 0.1116 Uiso
H31_3 H 0.757875 0.478971 0.356028 0.1116 Uiso
H32_3 H 0.797665 0.47495 0.285882 0.1116 Uiso
O13_5 O 0.47277 0.47277 0.25262 0.0702 Uiso
O14_5 O 0.42212 0.42212 0.0988 0.0702 Uiso
O15_3 O 0.48488 0.51512 0.12322 0.0702 Uiso
O16_5 O 0.52213 0.55108 0.000 0.0702 Uiso
Zr6_5 Zr 0.53461 0.53461 0.88462 0.0327 Uiso
Zr7_5 Zr 1.00000 0.53461 0.88462 0.0327 Uiso
Zr11_5 Zr 0.47258 0.52742 0.000 0.0327 Uiso
O18_5 O 0.44892 0.47787 0.000 0.0702 Uiso
O19_5 O 0.47787 0.44892 0.000 0.0702 Uiso
O23_3 O 0.427799 0.47 0.166051 0.0702 Uiso
O25_3 O 0.530000 0.572201 0.166051 0.0702 Uiso
O3_6 O 0.55108 0.52213 1.000 0.0702 Uiso
O16_6 O 0.52213 0.55108 1.000 0.0702 Uiso
Zr11_6 Zr 0.47258 0.52742 1.000 0.0327 Uiso
O17_3 O 0.51512 0.48488 0.87678 0.0702 Uiso
O18_6 O 0.44892 0.47787 1.000 0.0702 Uiso
O19_6 O 0.47787 0.44892 1.000 0.0702 Uiso
O5_4 O 0.489527 0.925063 0.093081 0.0702 Uiso
C1_4 C 0.5103 0.93016 0.14833 0.0930 Uiso
C2_4 C 0.512132 0.90421 0.193341 0.0930 Uiso
C3_4 C 0.540315 0.907588 0.21417 0.0930 Uiso
C4_4 C 0.541976 0.88406 0.254979 0.0930 Uiso
C5_4 C 0.515833 0.856909 0.275725 0.0930 Uiso
C6_4 C 0.487271 0.853777 0.254131 0.0930 Uiso
C7_4 C 0.48561 0.877305 0.213322 0.0930 Uiso
C8_4 C 0.518345 0.8321 0.319471 0.0930 Uiso
C9_4 C 0.544946 0.838667 0.362742 0.0930 Uiso
C10_4 C 0.54729 0.815523 0.403552 0.0930 Uiso
C11_4 C 0.523056 0.785798 0.401161 0.0930 Uiso
C12_4 C 0.496431 0.779245 0.357822 0.0930 Uiso
C13_4 C 0.494087 0.802389 0.317012 0.0930 Uiso
C14_4 C 0.52118 0.76059 0.456452 0.0930 Uiso
H1_4 H 0.559395 0.926944 0.199795 0.1116 Uiso
H2_4 H 0.562251 0.88649 0.269964 0.1116 Uiso
H3_4 H 0.468063 0.834509 0.268238 0.1116 Uiso
H4_4 H 0.465335 0.874875 0.198337 0.1116 Uiso
H5_4 H 0.563991 0.861993 0.364673 0.1116 Uiso
H6_4 H 0.56644 0.820278 0.434659 0.1116 Uiso
H7_4 H 0.478971 0.757875 0.356028 0.1116 Uiso
H8_4 H 0.47495 0.797665 0.285882 0.1116 Uiso
O7_2 O 0.489527 0.564464 0.906919 0.0702 Uiso
O8_4 O 0.53 0.572201 0.833949 0.0702 Uiso
C15_4 C 0.5103 0.58014 0.85167 0.0930 Uiso
C16_4 C 0.512132 0.607922 0.806659 0.0930 Uiso
C17_4 C 0.540315 0.632727 0.78583 0.0930 Uiso
C18_4 C 0.541976 0.657916 0.745021 0.0930 Uiso
C19_4 C 0.515833 0.658924 0.724275 0.0930 Uiso
C20_4 C 0.487271 0.633494 0.745869 0.0930 Uiso
C21_4 C 0.48561 0.608305 0.786678 0.0930 Uiso
C22_4 C 0.518345 0.686245 0.680529 0.0930 Uiso
C23_4 C 0.544946 0.706279 0.637258 0.0930 Uiso
C24_4 C 0.54729 0.731767 0.596448 0.0930 Uiso
C25_4 C 0.523056 0.737258 0.598839 0.0930 Uiso
C26_4 C 0.496431 0.717186 0.642178 0.0930 Uiso
C27_4 C 0.494087 0.691698 0.682988 0.0930 Uiso
C28_4 C 0.52118 0.76059 0.543548 0.0930 Uiso
H9_4 H 0.559395 0.632451 0.800205 0.1116 Uiso
H10_4 H 0.562251 0.675761 0.730036 0.1116 Uiso
H11_4 H 0.468063 0.633554 0.731762 0.1116 Uiso
H12_4 H 0.465335 0.590460 0.801663 0.1116 Uiso
H13_4 H 0.563991 0.701998 0.635327 0.1116 Uiso
H14_4 H 0.56644 0.746162 0.565341 0.1116 Uiso
H15_4 H 0.478971 0.721096 0.643972 0.1116 Uiso
H16_4 H 0.47495 0.677285 0.714118 0.1116 Uiso
O9_4 O 0.489527 0.925063 0.906919 0.0702 Uiso
O10_4 O 0.53 0.957799 0.833949 0.0702 Uiso
C29_4 C 0.5103 0.93016 0.85167 0.0930 Uiso
C30_4 C 0.512132 0.90421 0.806659 0.0930 Uiso
C31_4 C 0.540315 0.907588 0.78583 0.0930 Uiso
C32_4 C 0.541976 0.88406 0.745021 0.0930 Uiso
C33_4 C 0.515833 0.856909 0.724275 0.0930 Uiso
C34_4 C 0.487271 0.853777 0.745869 0.0930 Uiso
C35_4 C 0.48561 0.877305 0.786678 0.0930 Uiso
C36_4 C 0.518345 0.8321 0.680529 0.0930 Uiso
C37_4 C 0.544946 0.838667 0.637258 0.0930 Uiso
C38_4 C 0.54729 0.815523 0.596448 0.0930 Uiso
C39_4 C 0.523056 0.785798 0.598839 0.0930 Uiso
C40_4 C 0.496431 0.779245 0.642178 0.0930 Uiso
C41_4 C 0.494087 0.802389 0.682988 0.0930 Uiso
H17_4 H 0.559395 0.926944 0.800205 0.1116 Uiso
H18_4 H 0.562251 0.88649 0.730036 0.1116 Uiso
H19_4 H 0.468063 0.834509 0.731762 0.1116 Uiso
H20_4 H 0.465335 0.874875 0.801663 0.1116 Uiso
H21_4 H 0.563991 0.861993 0.635327 0.1116 Uiso
H22_4 H 0.56644 0.820278 0.565341 0.1116 Uiso
H23_4 H 0.478971 0.757875 0.643972 0.1116 Uiso
H24_4 H 0.47495 0.797665 0.714118 0.1116 Uiso
O11_2 O 0.489527 0.564464 0.093081 0.0702 Uiso
C42_4 C 0.5103 0.58014 0.14833 0.0930 Uiso
C43_4 C 0.512132 0.607922 0.193341 0.0930 Uiso
C44_4 C 0.540315 0.632727 0.21417 0.0930 Uiso
C45_4 C 0.541976 0.657916 0.254979 0.0930 Uiso
C46_4 C 0.515833 0.658924 0.275725 0.0930 Uiso
C47_4 C 0.487271 0.633494 0.254131 0.0930 Uiso
C48_4 C 0.48561 0.608305 0.213322 0.0930 Uiso
C49_4 C 0.518345 0.686245 0.319471 0.0930 Uiso
C50_4 C 0.544946 0.706279 0.362742 0.0930 Uiso
C51_4 C 0.54729 0.731767 0.403552 0.0930 Uiso
C52_4 C 0.523056 0.737258 0.401161 0.0930 Uiso
C53_4 C 0.496431 0.717186 0.357822 0.0930 Uiso
C54_4 C 0.494087 0.691698 0.317012 0.0930 Uiso
H25_4 H 0.559395 0.632451 0.199795 0.1116 Uiso
H26_4 H 0.562251 0.675761 0.269964 0.1116 Uiso
H27_4 H 0.468063 0.633554 0.268238 0.1116 Uiso
H28_4 H 0.465335 0.590460 0.198337 0.1116 Uiso
H29_4 H 0.563991 0.701998 0.364673 0.1116 Uiso
H30_4 H 0.56644 0.746162 0.434659 0.1116 Uiso
H31_4 H 0.478971 0.721096 0.356028 0.1116 Uiso
H32_4 H 0.47495 0.677285 0.285882 0.1116 Uiso
O22_3 O 0.435536 0.925063 0.093081 0.0702 Uiso
O17_4 O 0.48488 0.96976 0.87678 0.0702 Uiso
O20_3 O 0.435536 0.925063 0.906919 0.0702 Uiso
O5_5 O 0.074937 0.564464 0.093081 0.0702 Uiso
C1_5 C 0.06984 0.58014 0.14833 0.0930 Uiso
C2_5 C 0.09579 0.607922 0.193341 0.0930 Uiso
C3_5 C 0.092412 0.632727 0.21417 0.0930 Uiso
C4_5 C 0.11594 0.657916 0.254979 0.0930 Uiso
C5_5 C 0.143091 0.658924 0.275725 0.0930 Uiso
C6_5 C 0.146223 0.633494 0.254131 0.0930 Uiso
C7_5 C 0.122695 0.608305 0.213322 0.0930 Uiso
C8_5 C 0.1679 0.686245 0.319471 0.0930 Uiso
C9_5 C 0.161333 0.706279 0.362742 0.0930 Uiso
C10_5 C 0.184477 0.731767 0.403552 0.0930 Uiso
C11_5 C 0.214202 0.737258 0.401161 0.0930 Uiso
C12_5 C 0.220755 0.717186 0.357822 0.0930 Uiso
C13_5 C 0.197611 0.691698 0.317012 0.0930 Uiso
C14_5 C 0.23941 0.76059 0.456452 0.0930 Uiso
H1_5 H 0.073056 0.632451 0.199795 0.1116 Uiso
H2_5 H 0.11351 0.675761 0.269964 0.1116 Uiso
H3_5 H 0.165491 0.633554 0.268238 0.1116 Uiso
H4_5 H 0.125125 0.590460 0.198337 0.1116 Uiso
H5_5 H 0.138007 0.701998 0.364673 0.1116 Uiso
H6_5 H 0.179722 0.746162 0.434659 0.1116 Uiso
H7_5 H 0.242125 0.721096 0.356028 0.1116 Uiso
H8_5 H 0.202335 0.677285 0.285882 0.1116 Uiso
O8_5 O 0.427799 0.957799 0.833949 0.0702 Uiso
C15_5 C 0.41986 0.93016 0.85167 0.0930 Uiso
C16_5 C 0.392078 0.904210 0.806659 0.0930 Uiso
C17_5 C 0.367273 0.907588 0.78583 0.0930 Uiso
C18_5 C 0.342084 0.884060 0.745021 0.0930 Uiso
C19_5 C 0.341076 0.856909 0.724275 0.0930 Uiso
C20_5 C 0.366506 0.853777 0.745869 0.0930 Uiso
C21_5 C 0.391695 0.877305 0.786678 0.0930 Uiso
C22_5 C 0.313755 0.832100 0.680529 0.0930 Uiso
C23_5 C 0.293721 0.838667 0.637258 0.0930 Uiso
C24_5 C 0.268233 0.815523 0.596448 0.0930 Uiso
C25_5 C 0.262742 0.785798 0.598839 0.0930 Uiso
C26_5 C 0.282814 0.779245 0.642178 0.0930 Uiso
C27_5 C 0.308302 0.802389 0.682988 0.0930 Uiso
C28_5 C 0.23941 0.76059 0.543548 0.0930 Uiso
H9_5 H 0.367549 0.926944 0.800205 0.1116 Uiso
H10_5 H 0.324239 0.886490 0.730036 0.1116 Uiso
H11_5 H 0.366446 0.834509 0.731762 0.1116 Uiso
H12_5 H 0.409540 0.874875 0.801663 0.1116 Uiso
H13_5 H 0.298002 0.861993 0.635327 0.1116 Uiso
H14_5 H 0.253838 0.820278 0.565341 0.1116 Uiso
H15_5 H 0.278904 0.757875 0.643972 0.1116 Uiso
H16_5 H 0.322715 0.797665 0.714118 0.1116 Uiso
O9_5 O 0.074937 0.564464 0.906919 0.0702 Uiso
O10_5 O 0.042201 0.572201 0.833949 0.0702 Uiso
C29_5 C 0.06984 0.58014 0.85167 0.0930 Uiso
C30_5 C 0.09579 0.607922 0.806659 0.0930 Uiso
C31_5 C 0.092412 0.632727 0.78583 0.0930 Uiso
C32_5 C 0.11594 0.657916 0.745021 0.0930 Uiso
C33_5 C 0.143091 0.658924 0.724275 0.0930 Uiso
C34_5 C 0.146223 0.633494 0.745869 0.0930 Uiso
C35_5 C 0.122695 0.608305 0.786678 0.0930 Uiso
C36_5 C 0.1679 0.686245 0.680529 0.0930 Uiso
C37_5 C 0.161333 0.706279 0.637258 0.0930 Uiso
C38_5 C 0.184477 0.731767 0.596448 0.0930 Uiso
C39_5 C 0.214202 0.737258 0.598839 0.0930 Uiso
C40_5 C 0.220755 0.717186 0.642178 0.0930 Uiso
C41_5 C 0.197611 0.691698 0.682988 0.0930 Uiso
H17_5 H 0.073056 0.632451 0.800205 0.1116 Uiso
H18_5 H 0.11351 0.675761 0.730036 0.1116 Uiso
H19_5 H 0.165491 0.633554 0.731762 0.1116 Uiso
H20_5 H 0.125125 0.590460 0.801663 0.1116 Uiso
H21_5 H 0.138007 0.701998 0.635327 0.1116 Uiso
H22_5 H 0.179722 0.746162 0.565341 0.1116 Uiso
H23_5 H 0.242125 0.721096 0.643972 0.1116 Uiso
H24_5 H 0.202335 0.677285 0.714118 0.1116 Uiso
C42_5 C 0.41986 0.93016 0.14833 0.0930 Uiso
C43_5 C 0.392078 0.904210 0.193341 0.0930 Uiso
C44_5 C 0.367273 0.907588 0.21417 0.0930 Uiso
C45_5 C 0.342084 0.884060 0.254979 0.0930 Uiso
C46_5 C 0.341076 0.856909 0.275725 0.0930 Uiso
C47_5 C 0.366506 0.853777 0.254131 0.0930 Uiso
C48_5 C 0.391695 0.877305 0.213322 0.0930 Uiso
C49_5 C 0.313755 0.832100 0.319471 0.0930 Uiso
C50_5 C 0.293721 0.838667 0.362742 0.0930 Uiso
C51_5 C 0.268233 0.815523 0.403552 0.0930 Uiso
C52_5 C 0.262742 0.785798 0.401161 0.0930 Uiso
C53_5 C 0.282814 0.779245 0.357822 0.0930 Uiso
C54_5 C 0.308302 0.802389 0.317012 0.0930 Uiso
H25_5 H 0.367549 0.926944 0.199795 0.1116 Uiso
H26_5 H 0.324239 0.886490 0.269964 0.1116 Uiso
H27_5 H 0.366446 0.834509 0.268238 0.1116 Uiso
H28_5 H 0.409540 0.874875 0.198337 0.1116 Uiso
H29_5 H 0.298002 0.861993 0.364673 0.1116 Uiso
H30_5 H 0.253838 0.820278 0.434659 0.1116 Uiso
H31_5 H 0.278904 0.757875 0.356028 0.1116 Uiso
H32_5 H 0.322715 0.797665 0.285882 0.1116 Uiso
O22_4 O 0.074937 0.510473 0.093081 0.0702 Uiso
O17_5 O 0.03024 0.51512 0.87678 0.0702 Uiso
O20_4 O 0.074937 0.510473 0.906919 0.0702 Uiso
O5_6 O 0.435536 0.510473 0.093081 0.0702 Uiso
C1_6 C 0.41986 0.4897 0.14833 0.0930 Uiso
C2_6 C 0.392078 0.487868 0.193341 0.0930 Uiso
C3_6 C 0.367273 0.459685 0.21417 0.0930 Uiso
C4_6 C 0.342084 0.458024 0.254979 0.0930 Uiso
C5_6 C 0.341076 0.484167 0.275725 0.0930 Uiso
C6_6 C 0.366506 0.512729 0.254131 0.0930 Uiso
C7_6 C 0.391695 0.51439 0.213322 0.0930 Uiso
C8_6 C 0.313755 0.481655 0.319471 0.0930 Uiso
C9_6 C 0.293721 0.455054 0.362742 0.0930 Uiso
C10_6 C 0.268233 0.45271 0.403552 0.0930 Uiso
C11_6 C 0.262742 0.476944 0.401161 0.0930 Uiso
C12_6 C 0.282814 0.503569 0.357822 0.0930 Uiso
C13_6 C 0.308302 0.505913 0.317012 0.0930 Uiso
C14_6 C 0.23941 0.47882 0.456452 0.0930 Uiso
H1_6 H 0.367549 0.440605 0.199795 0.1116 Uiso
H2_6 H 0.324239 0.437749 0.269964 0.1116 Uiso
H3_6 H 0.366446 0.531937 0.268238 0.1116 Uiso
H4_6 H 0.409540 0.534665 0.198337 0.1116 Uiso
H5_6 H 0.298002 0.436009 0.364673 0.1116 Uiso
H6_6 H 0.253838 0.43356 0.434659 0.1116 Uiso
H7_6 H 0.278904 0.521029 0.356028 0.1116 Uiso
H8_6 H 0.322715 0.52505 0.285882 0.1116 Uiso
O8_6 O 0.042201 0.47 0.833949 0.0702 Uiso
C15_6 C 0.06984 0.4897 0.85167 0.0930 Uiso
C16_6 C 0.095790 0.487868 0.806659 0.0930 Uiso
C17_6 C 0.092412 0.459685 0.78583 0.0930 Uiso
C18_6 C 0.115940 0.458024 0.745021 0.0930 Uiso
C19_6 C 0.143091 0.484167 0.724275 0.0930 Uiso
C20_6 C 0.146223 0.512729 0.745869 0.0930 Uiso
C21_6 C 0.122695 0.51439 0.786678 0.0930 Uiso
C22_6 C 0.167900 0.481655 0.680529 0.0930 Uiso
C23_6 C 0.161333 0.455054 0.637258 0.0930 Uiso
C24_6 C 0.184477 0.45271 0.596448 0.0930 Uiso
C25_6 C 0.214202 0.476944 0.598839 0.0930 Uiso
C26_6 C 0.220755 0.503569 0.642178 0.0930 Uiso
C27_6 C 0.197611 0.505913 0.682988 0.0930 Uiso
C28_6 C 0.23941 0.47882 0.543548 0.0930 Uiso
H9_6 H 0.073056 0.440605 0.800205 0.1116 Uiso
H10_6 H 0.113510 0.437749 0.730036 0.1116 Uiso
H11_6 H 0.165491 0.531937 0.731762 0.1116 Uiso
H12_6 H 0.125125 0.534665 0.801663 0.1116 Uiso
H13_6 H 0.138007 0.436009 0.635327 0.1116 Uiso
H14_6 H 0.179722 0.43356 0.565341 0.1116 Uiso
H15_6 H 0.242125 0.521029 0.643972 0.1116 Uiso
H16_6 H 0.202335 0.52505 0.714118 0.1116 Uiso
O9_6 O 0.435536 0.510473 0.906919 0.0702 Uiso
O10_6 O 0.427799 0.47 0.833949 0.0702 Uiso
C29_6 C 0.41986 0.4897 0.85167 0.0930 Uiso
C30_6 C 0.392078 0.487868 0.806659 0.0930 Uiso
C31_6 C 0.367273 0.459685 0.78583 0.0930 Uiso
C32_6 C 0.342084 0.458024 0.745021 0.0930 Uiso
C33_6 C 0.341076 0.484167 0.724275 0.0930 Uiso
C34_6 C 0.366506 0.512729 0.745869 0.0930 Uiso
C35_6 C 0.391695 0.51439 0.786678 0.0930 Uiso
C36_6 C 0.313755 0.481655 0.680529 0.0930 Uiso
C37_6 C 0.293721 0.455054 0.637258 0.0930 Uiso
C38_6 C 0.268233 0.45271 0.596448 0.0930 Uiso
C39_6 C 0.262742 0.476944 0.598839 0.0930 Uiso
C40_6 C 0.282814 0.503569 0.642178 0.0930 Uiso
C41_6 C 0.308302 0.505913 0.682988 0.0930 Uiso
H17_6 H 0.367549 0.440605 0.800205 0.1116 Uiso
H18_6 H 0.324239 0.437749 0.730036 0.1116 Uiso
H19_6 H 0.366446 0.531937 0.731762 0.1116 Uiso
H20_6 H 0.409540 0.534665 0.801663 0.1116 Uiso
H21_6 H 0.298002 0.436009 0.635327 0.1116 Uiso
H22_6 H 0.253838 0.43356 0.565341 0.1116 Uiso
H23_6 H 0.278904 0.521029 0.643972 0.1116 Uiso
H24_6 H 0.322715 0.52505 0.714118 0.1116 Uiso
C42_6 C 0.06984 0.4897 0.14833 0.0930 Uiso
C43_6 C 0.095790 0.487868 0.193341 0.0930 Uiso
C44_6 C 0.092412 0.459685 0.21417 0.0930 Uiso
C45_6 C 0.115940 0.458024 0.254979 0.0930 Uiso
C46_6 C 0.143091 0.484167 0.275725 0.0930 Uiso
C47_6 C 0.146223 0.512729 0.254131 0.0930 Uiso
C48_6 C 0.122695 0.51439 0.213322 0.0930 Uiso
C49_6 C 0.167900 0.481655 0.319471 0.0930 Uiso
C50_6 C 0.161333 0.455054 0.362742 0.0930 Uiso
C51_6 C 0.184477 0.45271 0.403552 0.0930 Uiso
C52_6 C 0.214202 0.476944 0.401161 0.0930 Uiso
C53_6 C 0.220755 0.503569 0.357822 0.0930 Uiso
C54_6 C 0.197611 0.505913 0.317012 0.0930 Uiso
H25_6 H 0.073056 0.440605 0.199795 0.1116 Uiso
H26_6 H 0.113510 0.437749 0.269964 0.1116 Uiso
H27_6 H 0.165491 0.531937 0.268238 0.1116 Uiso
H28_6 H 0.125125 0.534665 0.198337 0.1116 Uiso
H29_6 H 0.138007 0.436009 0.364673 0.1116 Uiso
H30_6 H 0.179722 0.43356 0.434659 0.1116 Uiso
H31_6 H 0.242125 0.521029 0.356028 0.1116 Uiso
H32_6 H 0.202335 0.52505 0.285882 0.1116 Uiso
O17_6 O 0.48488 0.51512 0.87678 0.0702 Uiso
O1_6 O -0.000 0.47277 0.74738 0.0702 Uiso
O4_6 O -0.000 0.42212 0.9012 0.0702 Uiso
O13_6 O 0.000 0.52723 0.74738 0.0702 Uiso
O14_6 O 0.000 0.57788 0.9012 0.0702 Uiso
O1_7 O 1.000 0.47277 0.74738 0.0702 Uiso
O4_7 O 1.000 0.42212 0.9012 0.0702 Uiso
O13_7 O 1.000 0.52723 0.74738 0.0702 Uiso
O14_7 O 1.000 0.57788 0.9012 0.0702 Uiso
O1_8 O 0.47277 0.000 0.74738 0.0702 Uiso
O4_8 O 0.42212 0.000 0.9012 0.0702 Uiso
O13_8 O 0.52723 0.000 0.74738 0.0702 Uiso
O14_8 O 0.57788 0.000 0.9012 0.0702 Uiso
O1_9 O 0.47277 1.000 0.74738 0.0702 Uiso
O4_9 O 0.42212 1.000 0.9012 0.0702 Uiso
O13_9 O 0.52723 1.000 0.74738 0.0702 Uiso
O14_9 O 0.57788 1.000 0.9012 0.0702 Uiso
O1_10 O 0.52723 0.52723 0.74738 0.0702 Uiso
O4_10 O 0.57788 0.57788 0.9012 0.0702 Uiso
O13_10 O 0.47277 0.47277 0.74738 0.0702 Uiso
O14_10 O 0.42212 0.42212 0.9012 0.0702 Uiso
loop_
_geom_bond_atom_site_label_1
_geom_bond_atom_site_label_2
_geom_bond_site_symmetry_1
_geom_bond_site_symmetry_2
Zr1 O1 1_555 1_555
Zr8 O2 1_555 1_555
O2 Zr1 1_555 1_555
O3 Zr1 1_555 1_555
O4 Zr1 1_555 1_555
O5 Zr8 1_555 1_555
O6 Zr1 1_555 1_555
C1 O5 1_555 1_555
C2 C1 1_555 1_555
C3 C2 1_555 1_555
C4 C3 1_555 1_555
C5 C4 1_555 1_555
C6 C5 1_555 1_555
C7 C2 1_555 1_555
C8 C5 1_555 1_555
C9 C8 1_555 1_555
C10 C9 1_555 1_555
C11 C10 1_555 1_555
C12 C11 1_555 1_555
C13 C8 1_555 1_555
C14 C11 1_555 1_555
H1 C3 1_555 1_555
H2 C4 1_555 1_555
H3 C6 1_555 1_555
H4 C7 1_555 1_555
H5 C9 1_555 1_555
H6 C10 1_555 1_555
H7 C12 1_555 1_555
H8 C13 1_555 1_555
O7 C15 1_555 1_555
O8 C15 1_555 1_555
C15 C16 1_555 1_555
C16 C17 1_555 1_555
C17 C18 1_555 1_555
C18 C19 1_555 1_555
C19 C20 1_555 1_555
C20 C21 1_555 1_555
C21 C16 1_555 1_555
C22 C19 1_555 1_555
C23 C22 1_555 1_555
C24 C23 1_555 1_555
C25 C24 1_555 1_555
C26 C25 1_555 1_555
C27 C22 1_555 1_555
C28 C14 1_555 1_555
H9 C17 1_555 1_555
H10 C18 1_555 1_555
H11 C20 1_555 1_555
H12 C21 1_555 1_555
H13 C23 1_555 1_555
H14 C24 1_555 1_555
H15 C26 1_555 1_555
H16 C27 1_555 1_555
O9 C29 1_555 1_555
O10 C29 1_555 1_555
C29 C30 1_555 1_555
C30 C31 1_555 1_555
C31 C32 1_555 1_555
C32 C33 1_555 1_555
C33 C34 1_555 1_555
C34 C35 1_555 1_555
C35 C30 1_555 1_555
C36 C33 1_555 1_555
C37 C36 1_555 1_555
C38 C37 1_555 1_555
C39 C28 1_555 1_555
C40 C39 1_555 1_555
C41 C36 1_555 1_555
H17 C31 1_555 1_555
H18 C32 1_555 1_555
H19 C34 1_555 1_555
H20 C35 1_555 1_555
H21 C37 1_555 1_555
H22 C38 1_555 1_555
H23 C40 1_555 1_555
H24 C41 1_555 1_555
O11 C42 1_555 1_555
O12 C42 1_555 1_555
C42 C43 1_555 1_555
C43 C44 1_555 1_555
C44 C45 1_555 1_555
C45 C46 1_555 1_555
C46 C47 1_555 1_555
C47 C48 1_555 1_555
C48 C43 1_555 1_555
C49 C46 1_555 1_555
C50 C49 1_555 1_555
C51 C50 1_555 1_555
C52 C14 1_555 1_555
C53 C52 1_555 1_555
C54 C49 1_555 1_555
H25 C44 1_555 1_555
H26 C45 1_555 1_555
H27 C47 1_555 1_555
H28 C48 1_555 1_555
H29 C50 1_555 1_555
H30 C51 1_555 1_555
H31 C53 1_555 1_555
H32 C54 1_555 1_555
Zr3 O2 1_555 1_555
O13 Zr3 1_555 1_555
O14 Zr3 1_555 1_555
Zr4 O12 1_555 1_555
Zr6 O10 1_555 1_555
Zr7 O8 1_555 1_555
Zr8_2 O9 1_555 1_555
Zr10 O11 1_555 1_555
Zr10_2 O7 1_555 1_555
O19 Zr8 1_555 1_555
O22 Zr8 1_555 1_555
O24 Zr3 1_555 1_555
Zr8 O3 1_555 1_555
O6 C1 1_555 1_555
C6 C7 1_555 1_555
C12 C13 1_555 1_555
C25 C28 1_555 1_555
C26 C27 1_555 1_555
C38 C39 1_555 1_555
C40 C41 1_555 1_555
C51 C52 1_555 1_555
C53 C54 1_555 1_555
Zr3 O19 1_555 1_555
Zr6 O3_2 1_555 1_555
O17 Zr8_2 1_555 1_555
O19_2 Zr8_2 1_555 1_555
O20 Zr8_2 1_555 1_555
Zr8_2 O3_2 1_555 1_555
Zr6 O17 1_555 1_555
Zr1_2 O1_2 1_555 1_555
O4_2 Zr1_2 1_555 1_555
O13_2 Zr3_2 1_555 1_555
O14_2 Zr3_2 1_555 1_555
O15 Zr1_2 1_555 1_555
O16 Zr1_2 1_555 1_555
Zr11 O15 1_555 1_555
O18 Zr3_2 1_555 1_555
O23 Zr3_2 1_555 1_555
O25 Zr1_2 1_555 1_555
Zr3_2 O15 1_555 1_555
O16 Zr11 1_555 1_555
Zr11 O18 1_555 1_555
O16_2 Zr6_2 1_555 1_555
O16_2 Zr11_2 1_555 1_555
Zr11_2 O18_2 1_555 1_555
Zr1_3 O1_3 1_555 1_555
O4_3 Zr1_3 1_555 1_555
O13_3 Zr3_3 1_555 1_555
O14_3 Zr3_3 1_555 1_555
O15_2 Zr1_3 1_555 1_555
O16_3 Zr1_3 1_555 1_555
Zr11_3 O15_2 1_555 1_555
O18_3 Zr3_3 1_555 1_555
O23_2 Zr3_3 1_555 1_555
O25_2 Zr1_3 1_555 1_555
Zr3_3 O15_2 1_555 1_555
O16_3 Zr11_3 1_555 1_555
Zr11_3 O18_3 1_555 1_555
O16_4 Zr6_3 1_555 1_555
O16_4 Zr11_4 1_555 1_555
Zr11_4 O18_4 1_555 1_555
Zr1_4 O1_4 1_555 1_555
Zr8_3 O2_2 1_555 1_555
O2_2 Zr1_4 1_555 1_555
O3_3 Zr1_4 1_555 1_555
O4_4 Zr1_4 1_555 1_555
O5_2 Zr8_3 1_555 1_555
O6_2 Zr1_4 1_555 1_555
C1_2 O5_2 1_555 1_555
C2_2 C1_2 1_555 1_555
C3_2 C2_2 1_555 1_555
C4_2 C3_2 1_555 1_555
C5_2 C4_2 1_555 1_555
C6_2 C5_2 1_555 1_555
C7_2 C2_2 1_555 1_555
C8_2 C5_2 1_555 1_555
C9_2 C8_2 1_555 1_555
C10_2 C9_2 1_555 1_555
C11_2 C10_2 1_555 1_555
C12_2 C11_2 1_555 1_555
C13_2 C8_2 1_555 1_555
C14_2 C11_2 1_555 1_555
H1_2 C3_2 1_555 1_555
H2_2 C4_2 1_555 1_555
H3_2 C6_2 1_555 1_555
H4_2 C7_2 1_555 1_555
H5_2 C9_2 1_555 1_555
H6_2 C10_2 1_555 1_555
H7_2 C12_2 1_555 1_555
H8_2 C13_2 1_555 1_555
O20 C15_2 1_555 1_555
O8_2 C15_2 1_555 1_555
C15_2 C16_2 1_555 1_555
C16_2 C17_2 1_555 1_555
C17_2 C18_2 1_555 1_555
C18_2 C19_2 1_555 1_555
C19_2 C20_2 1_555 1_555
C20_2 C21_2 1_555 1_555
C21_2 C16_2 1_555 1_555
C22_2 C19_2 1_555 1_555
C23_2 C22_2 1_555 1_555
C24_2 C23_2 1_555 1_555
C25_2 C24_2 1_555 1_555
C26_2 C25_2 1_555 1_555
C27_2 C22_2 1_555 1_555
C28_2 C14_2 1_555 1_555
H9_2 C17_2 1_555 1_555
H10_2 C18_2 1_555 1_555
H11_2 C20_2 1_555 1_555
H12_2 C21_2 1_555 1_555
H13_2 C23_2 1_555 1_555
H14_2 C24_2 1_555 1_555
H15_2 C26_2 1_555 1_555
H16_2 C27_2 1_555 1_555
O9_2 C29_2 1_555 1_555
O10_2 C29_2 1_555 1_555
C29_2 C30_2 1_555 1_555
C30_2 C31_2 1_555 1_555
C31_2 C32_2 1_555 1_555
C32_2 C33_2 1_555 1_555
C33_2 C34_2 1_555 1_555
C34_2 C35_2 1_555 1_555
C35_2 C30_2 1_555 1_555
C36_2 C33_2 1_555 1_555
C37_2 C36_2 1_555 1_555
C38_2 C37_2 1_555 1_555
C39_2 C28_2 1_555 1_555
C40_2 C39_2 1_555 1_555
C41_2 C36_2 1_555 1_555
H17_2 C31_2 1_555 1_555
H18_2 C32_2 1_555 1_555
H19_2 C34_2 1_555 1_555
H20_2 C35_2 1_555 1_555
H21_2 C37_2 1_555 1_555
H22_2 C38_2 1_555 1_555
H23_2 C40_2 1_555 1_555
H24_2 C41_2 1_555 1_555
O22 C42_2 1_555 1_555
O24 C42_2 1_555 1_555
C42_2 C43_2 1_555 1_555
C43_2 C44_2 1_555 1_555
C44_2 C45_2 1_555 1_555
C45_2 C46_2 1_555 1_555
C46_2 C47_2 1_555 1_555
C47_2 C48_2 1_555 1_555
C48_2 C43_2 1_555 1_555
C49_2 C46_2 1_555 1_555
C50_2 C49_2 1_555 1_555
C51_2 C50_2 1_555 1_555
C52_2 C14_2 1_555 1_555
C53_2 C52_2 1_555 1_555
C54_2 C49_2 1_555 1_555
H25_2 C44_2 1_555 1_555
H26_2 C45_2 1_555 1_555
H27_2 C47_2 1_555 1_555
H28_2 C48_2 1_555 1_555
H29_2 C50_2 1_555 1_555
H30_2 C51_2 1_555 1_555
H31_2 C53_2 1_555 1_555
H32_2 C54_2 1_555 1_555
Zr3_4 O2_2 1_555 1_555
O13_4 Zr3_4 1_555 1_555
O14_4 Zr3_4 1_555 1_555
Zr6_4 O10_2 1_555 1_555
Zr7_2 O8_2 1_555 1_555
Zr8_4 O9_2 1_555 1_555
O19_3 Zr8_3 1_555 1_555
O22_2 Zr8_3 1_555 1_555
O24_2 Zr3_4 1_555 1_555
Zr8_3 O3_3 1_555 1_555
O6_2 C1_2 1_555 1_555
C6_2 C7_2 1_555 1_555
C12_2 C13_2 1_555 1_555
C25_2 C28_2 1_555 1_555
C26_2 C27_2 1_555 1_555
C38_2 C39_2 1_555 1_555
C40_2 C41_2 1_555 1_555
C51_2 C52_2 1_555 1_555
C53_2 C54_2 1_555 1_555
Zr3_4 O19_3 1_555 1_555
Zr6_4 O3_4 1_555 1_555
O17_2 Zr8_4 1_555 1_555
O19_4 Zr8_4 1_555 1_555
O20_2 Zr8_4 1_555 1_555
Zr8_4 O3_4 1_555 1_555
Zr6_4 O17_2 1_555 1_555
Zr1_5 O1_5 1_555 1_555
Zr10 O2_3 1_555 1_555
O2_3 Zr1_5 1_555 1_555
O3_5 Zr1_5 1_555 1_555
O4_5 Zr1_5 1_555 1_555
O5_3 Zr10 1_555 1_555
O6_3 Zr1_5 1_555 1_555
C1_3 O5_3 1_555 1_555
C2_3 C1_3 1_555 1_555
C3_3 C2_3 1_555 1_555
C4_3 C3_3 1_555 1_555
C5_3 C4_3 1_555 1_555
C6_3 C5_3 1_555 1_555
C7_3 C2_3 1_555 1_555
C8_3 C5_3 1_555 1_555
C9_3 C8_3 1_555 1_555
C10_3 C9_3 1_555 1_555
C11_3 C10_3 1_555 1_555
C12_3 C11_3 1_555 1_555
C13_3 C8_3 1_555 1_555
C14_3 C11_3 1_555 1_555
H1_3 C3_3 1_555 1_555
H2_3 C4_3 1_555 1_555
H3_3 C6_3 1_555 1_555
H4_3 C7_3 1_555 1_555
H5_3 C9_3 1_555 1_555
H6_3 C10_3 1_555 1_555
H7_3 C12_3 1_555 1_555
H8_3 C13_3 1_555 1_555
O20_2 C15_3 1_555 1_555
O8_3 C15_3 1_555 1_555
C15_3 C16_3 1_555 1_555
C16_3 C17_3 1_555 1_555
C17_3 C18_3 1_555 1_555
C18_3 C19_3 1_555 1_555
C19_3 C20_3 1_555 1_555
C20_3 C21_3 1_555 1_555
C21_3 C16_3 1_555 1_555
C22_3 C19_3 1_555 1_555
C23_3 C22_3 1_555 1_555
C24_3 C23_3 1_555 1_555
C25_3 C24_3 1_555 1_555
C26_3 C25_3 1_555 1_555
C27_3 C22_3 1_555 1_555
C28_3 C14_3 1_555 1_555
H9_3 C17_3 1_555 1_555
H10_3 C18_3 1_555 1_555
H11_3 C20_3 1_555 1_555
H12_3 C21_3 1_555 1_555
H13_3 C23_3 1_555 1_555
H14_3 C24_3 1_555 1_555
H15_3 C26_3 1_555 1_555
H16_3 C27_3 1_555 1_555
O9_3 C29_3 1_555 1_555
O10_3 C29_3 1_555 1_555
C29_3 C30_3 1_555 1_555
C30_3 C31_3 1_555 1_555
C31_3 C32_3 1_555 1_555
C32_3 C33_3 1_555 1_555
C33_3 C34_3 1_555 1_555
C34_3 C35_3 1_555 1_555
C35_3 C30_3 1_555 1_555
C36_3 C33_3 1_555 1_555
C37_3 C36_3 1_555 1_555
C38_3 C37_3 1_555 1_555
C39_3 C28_3 1_555 1_555
C40_3 C39_3 1_555 1_555
C41_3 C36_3 1_555 1_555
H17_3 C31_3 1_555 1_555
H18_3 C32_3 1_555 1_555
H19_3 C34_3 1_555 1_555
H20_3 C35_3 1_555 1_555
H21_3 C37_3 1_555 1_555
H22_3 C38_3 1_555 1_555
H23_3 C40_3 1_555 1_555
H24_3 C41_3 1_555 1_555
O22_2 C42_3 1_555 1_555
O24_2 C42_3 1_555 1_555
C42_3 C43_3 1_555 1_555
C43_3 C44_3 1_555 1_555
C44_3 C45_3 1_555 1_555
C45_3 C46_3 1_555 1_555
C46_3 C47_3 1_555 1_555
C47_3 C48_3 1_555 1_555
C48_3 C43_3 1_555 1_555
C49_3 C46_3 1_555 1_555
C50_3 C49_3 1_555 1_555
C51_3 C50_3 1_555 1_555
C52_3 C14_3 1_555 1_555
C53_3 C52_3 1_555 1_555
C54_3 C49_3 1_555 1_555
H25_3 C44_3 1_555 1_555
H26_3 C45_3 1_555 1_555
H27_3 C47_3 1_555 1_555
H28_3 C48_3 1_555 1_555
H29_3 C50_3 1_555 1_555
H30_3 C51_3 1_555 1_555
H31_3 C53_3 1_555 1_555
H32_3 C54_3 1_555 1_555
Zr4 O2_3 1_555 1_555
O13_5 Zr4 1_555 1_555
O14_5 Zr4 1_555 1_555
O15_3 Zr1_5 1_555 1_555
O16_5 Zr1_5 1_555 1_555
Zr6_5 O10_3 1_555 1_555
Zr7_5 O8_3 1_555 1_555
Zr10_2 O9_3 1_555 1_555
Zr11_5 O15_3 1_555 1_555
O18_5 Zr4 1_555 1_555
O19_5 Zr10 1_555 1_555
O23_3 Zr4 1_555 1_555
O25_3 Zr1_5 1_555 1_555
Zr10 O3_5 1_555 1_555
O6_3 C1_3 1_555 1_555
C6_3 C7_3 1_555 1_555
C12_3 C13_3 1_555 1_555
C25_3 C28_3 1_555 1_555
C26_3 C27_3 1_555 1_555
C38_3 C39_3 1_555 1_555
C40_3 C41_3 1_555 1_555
C51_3 C52_3 1_555 1_555
C53_3 C54_3 1_555 1_555
Zr4 O15_3 1_555 1_555
Zr4 O19_5 1_555 1_555
O16_5 Zr11_5 1_555 1_555
Zr11_5 O18_5 1_555 1_555
Zr6_5 O3_6 1_555 1_555
O17_3 Zr10_2 1_555 1_555
O19_6 Zr10_2 1_555 1_555
Zr10_2 O3_6 1_555 1_555
O16_6 Zr6_5 1_555 1_555
O16_6 Zr11_6 1_555 1_555
Zr6_5 O17_3 1_555 1_555
Zr11_6 O18_6 1_555 1_555
O19_2 Zr7_2 1_555 1_555
O5_4 Zr11 1_555 1_555
C1_4 O5_4 1_555 1_555
C2_4 C1_4 1_555 1_555
C3_4 C2_4 1_555 1_555
C4_4 C3_4 1_555 1_555
C5_4 C4_4 1_555 1_555
C6_4 C5_4 1_555 1_555
C7_4 C2_4 1_555 1_555
C8_4 C5_4 1_555 1_555
C9_4 C8_4 1_555 1_555
C10_4 C9_4 1_555 1_555
C11_4 C10_4 1_555 1_555
C12_4 C11_4 1_555 1_555
C13_4 C8_4 1_555 1_555
C14_4 C11_4 1_555 1_555
H1_4 C3_4 1_555 1_555
H2_4 C4_4 1_555 1_555
H3_4 C6_4 1_555 1_555
H4_4 C7_4 1_555 1_555
H5_4 C9_4 1_555 1_555
H6_4 C10_4 1_555 1_555
H7_4 C12_4 1_555 1_555
H8_4 C13_4 1_555 1_555
O7_2 C15_4 1_555 1_555
O8_4 C15_4 1_555 1_555
C15_4 C16_4 1_555 1_555
C16_4 C17_4 1_555 1_555
C17_4 C18_4 1_555 1_555
C18_4 C19_4 1_555 1_555
C19_4 C20_4 1_555 1_555
C20_4 C21_4 1_555 1_555
C21_4 C16_4 1_555 1_555
C22_4 C19_4 1_555 1_555
C23_4 C22_4 1_555 1_555
C24_4 C23_4 1_555 1_555
C25_4 C24_4 1_555 1_555
C26_4 C25_4 1_555 1_555
C27_4 C22_4 1_555 1_555
C28_4 C14_4 1_555 1_555
H9_4 C17_4 1_555 1_555
H10_4 C18_4 1_555 1_555
H11_4 C20_4 1_555 1_555
H12_4 C21_4 1_555 1_555
H13_4 C23_4 1_555 1_555
H14_4 C24_4 1_555 1_555
H15_4 C26_4 1_555 1_555
H16_4 C27_4 1_555 1_555
O9_4 C29_4 1_555 1_555
O10_4 C29_4 1_555 1_555
C29_4 C30_4 1_555 1_555
C30_4 C31_4 1_555 1_555
C31_4 C32_4 1_555 1_555
C32_4 C33_4 1_555 1_555
C33_4 C34_4 1_555 1_555
C34_4 C35_4 1_555 1_555
C35_4 C30_4 1_555 1_555
C36_4 C33_4 1_555 1_555
C37_4 C36_4 1_555 1_555
C38_4 C37_4 1_555 1_555
C39_4 C28_4 1_555 1_555
C40_4 C39_4 1_555 1_555
C41_4 C36_4 1_555 1_555
H17_4 C31_4 1_555 1_555
H18_4 C32_4 1_555 1_555
H19_4 C34_4 1_555 1_555
H20_4 C35_4 1_555 1_555
H21_4 C37_4 1_555 1_555
H22_4 C38_4 1_555 1_555
H23_4 C40_4 1_555 1_555
H24_4 C41_4 1_555 1_555
O11_2 C42_4 1_555 1_555
O25_3 C42_4 1_555 1_555
C42_4 C43_4 1_555 1_555
C43_4 C44_4 1_555 1_555
C44_4 C45_4 1_555 1_555
C45_4 C46_4 1_555 1_555
C46_4 C47_4 1_555 1_555
C47_4 C48_4 1_555 1_555
C48_4 C43_4 1_555 1_555
C49_4 C46_4 1_555 1_555
C50_4 C49_4 1_555 1_555
C51_4 C50_4 1_555 1_555
C52_4 C14_4 1_555 1_555
C53_4 C52_4 1_555 1_555
C54_4 C49_4 1_555 1_555
H25_4 C44_4 1_555 1_555
H26_4 C45_4 1_555 1_555
H27_4 C47_4 1_555 1_555
H28_4 C48_4 1_555 1_555
H29_4 C50_4 1_555 1_555
H30_4 C51_4 1_555 1_555
H31_4 C53_4 1_555 1_555
H32_4 C54_4 1_555 1_555
Zr7_3 O10_4 1_555 1_555
Zr6_5 O8_4 1_555 1_555
Zr11_2 O9_4 1_555 1_555
Zr11_5 O11_2 1_555 1_555
Zr11_6 O7_2 1_555 1_555
O22_3 Zr11 1_555 1_555
O23 C1_4 1_555 1_555
C6_4 C7_4 1_555 1_555
C12_4 C13_4 1_555 1_555
C25_4 C28_4 1_555 1_555
C26_4 C27_4 1_555 1_555
C38_4 C39_4 1_555 1_555
C40_4 C41_4 1_555 1_555
C51_4 C52_4 1_555 1_555
C53_4 C54_4 1_555 1_555
Zr7_3 O18_2 1_555 1_555
O17_4 Zr11_2 1_555 1_555
O20_3 Zr11_2 1_555 1_555
Zr7_3 O17_4 1_555 1_555
O5_5 Zr11_3 1_555 1_555
C1_5 O5_5 1_555 1_555
C2_5 C1_5 1_555 1_555
C3_5 C2_5 1_555 1_555
C4_5 C3_5 1_555 1_555
C5_5 C4_5 1_555 1_555
C6_5 C5_5 1_555 1_555
C7_5 C2_5 1_555 1_555
C8_5 C5_5 1_555 1_555
C9_5 C8_5 1_555 1_555
C10_5 C9_5 1_555 1_555
C11_5 C10_5 1_555 1_555
C12_5 C11_5 1_555 1_555
C13_5 C8_5 1_555 1_555
C14_5 C11_5 1_555 1_555
H1_5 C3_5 1_555 1_555
H2_5 C4_5 1_555 1_555
H3_5 C6_5 1_555 1_555
H4_5 C7_5 1_555 1_555
H5_5 C9_5 1_555 1_555
H6_5 C10_5 1_555 1_555
H7_5 C12_5 1_555 1_555
H8_5 C13_5 1_555 1_555
O20_3 C15_5 1_555 1_555
O8_5 C15_5 1_555 1_555
C15_5 C16_5 1_555 1_555
C16_5 C17_5 1_555 1_555
C17_5 C18_5 1_555 1_555
C18_5 C19_5 1_555 1_555
C19_5 C20_5 1_555 1_555
C20_5 C21_5 1_555 1_555
C21_5 C16_5 1_555 1_555
C22_5 C19_5 1_555 1_555
C23_5 C22_5 1_555 1_555
C24_5 C23_5 1_555 1_555
C25_5 C24_5 1_555 1_555
C26_5 C25_5 1_555 1_555
C27_5 C22_5 1_555 1_555
C28_5 C14_5 1_555 1_555
H9_5 C17_5 1_555 1_555
H10_5 C18_5 1_555 1_555
H11_5 C20_5 1_555 1_555
H12_5 C21_5 1_555 1_555
H13_5 C23_5 1_555 1_555
H14_5 C24_5 1_555 1_555
H15_5 C26_5 1_555 1_555
H16_5 C27_5 1_555 1_555
O9_5 C29_5 1_555 1_555
O10_5 C29_5 1_555 1_555
C29_5 C30_5 1_555 1_555
C30_5 C31_5 1_555 1_555
C31_5 C32_5 1_555 1_555
C32_5 C33_5 1_555 1_555
C33_5 C34_5 1_555 1_555
C34_5 C35_5 1_555 1_555
C35_5 C30_5 1_555 1_555
C36_5 C33_5 1_555 1_555
C37_5 C36_5 1_555 1_555
C38_5 C37_5 1_555 1_555
C39_5 C28_5 1_555 1_555
C40_5 C39_5 1_555 1_555
C41_5 C36_5 1_555 1_555
H17_5 C31_5 1_555 1_555
H18_5 C32_5 1_555 1_555
H19_5 C34_5 1_555 1_555
H20_5 C35_5 1_555 1_555
H21_5 C37_5 1_555 1_555
H22_5 C38_5 1_555 1_555
H23_5 C40_5 1_555 1_555
H24_5 C41_5 1_555 1_555
O22_3 C42_5 1_555 1_555
O25 C42_5 1_555 1_555
C42_5 C43_5 1_555 1_555
C43_5 C44_5 1_555 1_555
C44_5 C45_5 1_555 1_555
C45_5 C46_5 1_555 1_555
C46_5 C47_5 1_555 1_555
C47_5 C48_5 1_555 1_555
C48_5 C43_5 1_555 1_555
C49_5 C46_5 1_555 1_555
C50_5 C49_5 1_555 1_555
C51_5 C50_5 1_555 1_555
C52_5 C14_5 1_555 1_555
C53_5 C52_5 1_555 1_555
C54_5 C49_5 1_555 1_555
H25_5 C44_5 1_555 1_555
H26_5 C45_5 1_555 1_555
H27_5 C47_5 1_555 1_555
H28_5 C48_5 1_555 1_555
H29_5 C50_5 1_555 1_555
H30_5 C51_5 1_555 1_555
H31_5 C53_5 1_555 1_555
H32_5 C54_5 1_555 1_555
Zr7_4 O10_5 1_555 1_555
Zr6_2 O8_5 1_555 1_555
Zr11_4 O9_5 1_555 1_555
O22_4 Zr11_3 1_555 1_555
O23_2 C1_5 1_555 1_555
C6_5 C7_5 1_555 1_555
C12_5 C13_5 1_555 1_555
C25_5 C28_5 1_555 1_555
C26_5 C27_5 1_555 1_555
C38_5 C39_5 1_555 1_555
C40_5 C41_5 1_555 1_555
C51_5 C52_5 1_555 1_555
C53_5 C54_5 1_555 1_555
Zr7_4 O18_4 1_555 1_555
O17_5 Zr11_4 1_555 1_555
O20_4 Zr11_4 1_555 1_555
Zr7_4 O17_5 1_555 1_555
O19_4 Zr7_5 1_555 1_555
O5_6 Zr11_5 1_555 1_555
C1_6 O5_6 1_555 1_555
C2_6 C1_6 1_555 1_555
C3_6 C2_6 1_555 1_555
C4_6 C3_6 1_555 1_555
C5_6 C4_6 1_555 1_555
C6_6 C5_6 1_555 1_555
C7_6 C2_6 1_555 1_555
C8_6 C5_6 1_555 1_555
C9_6 C8_6 1_555 1_555
C10_6 C9_6 1_555 1_555
C11_6 C10_6 1_555 1_555
C12_6 C11_6 1_555 1_555
C13_6 C8_6 1_555 1_555
C14_6 C11_6 1_555 1_555
H1_6 C3_6 1_555 1_555
H2_6 C4_6 1_555 1_555
H3_6 C6_6 1_555 1_555
H4_6 C7_6 1_555 1_555
H5_6 C9_6 1_555 1_555
H6_6 C10_6 1_555 1_555
H7_6 C12_6 1_555 1_555
H8_6 C13_6 1_555 1_555
O20_4 C15_6 1_555 1_555
O8_6 C15_6 1_555 1_555
C15_6 C16_6 1_555 1_555
C16_6 C17_6 1_555 1_555
C17_6 C18_6 1_555 1_555
C18_6 C19_6 1_555 1_555
C19_6 C20_6 1_555 1_555
C20_6 C21_6 1_555 1_555
C21_6 C16_6 1_555 1_555
C22_6 C19_6 1_555 1_555
C23_6 C22_6 1_555 1_555
C24_6 C23_6 1_555 1_555
C25_6 C24_6 1_555 1_555
C26_6 C25_6 1_555 1_555
C27_6 C22_6 1_555 1_555
C28_6 C14_6 1_555 1_555
H9_6 C17_6 1_555 1_555
H10_6 C18_6 1_555 1_555
H11_6 C20_6 1_555 1_555
H12_6 C21_6 1_555 1_555
H13_6 C23_6 1_555 1_555
H14_6 C24_6 1_555 1_555
H15_6 C26_6 1_555 1_555
H16_6 C27_6 1_555 1_555
O9_6 C29_6 1_555 1_555
O10_6 C29_6 1_555 1_555
C29_6 C30_6 1_555 1_555
C30_6 C31_6 1_555 1_555
C31_6 C32_6 1_555 1_555
C32_6 C33_6 1_555 1_555
C33_6 C34_6 1_555 1_555
C34_6 C35_6 1_555 1_555
C35_6 C30_6 1_555 1_555
C36_6 C33_6 1_555 1_555
C37_6 C36_6 1_555 1_555
C38_6 C37_6 1_555 1_555
C39_6 C28_6 1_555 1_555
C40_6 C39_6 1_555 1_555
C41_6 C36_6 1_555 1_555
H17_6 C31_6 1_555 1_555
H18_6 C32_6 1_555 1_555
H19_6 C34_6 1_555 1_555
H20_6 C35_6 1_555 1_555
H21_6 C37_6 1_555 1_555
H22_6 C38_6 1_555 1_555
H23_6 C40_6 1_555 1_555
H24_6 C41_6 1_555 1_555
O22_4 C42_6 1_555 1_555
O25_2 C42_6 1_555 1_555
C42_6 C43_6 1_555 1_555
C43_6 C44_6 1_555 1_555
C44_6 C45_6 1_555 1_555
C45_6 C46_6 1_555 1_555
C46_6 C47_6 1_555 1_555
C47_6 C48_6 1_555 1_555
C48_6 C43_6 1_555 1_555
C49_6 C46_6 1_555 1_555
C50_6 C49_6 1_555 1_555
C51_6 C50_6 1_555 1_555
C52_6 C14_6 1_555 1_555
C53_6 C52_6 1_555 1_555
C54_6 C49_6 1_555 1_555
H25_6 C44_6 1_555 1_555
H26_6 C45_6 1_555 1_555
H27_6 C47_6 1_555 1_555
H28_6 C48_6 1_555 1_555
H29_6 C50_6 1_555 1_555
H30_6 C51_6 1_555 1_555
H31_6 C53_6 1_555 1_555
H32_6 C54_6 1_555 1_555
Zr7 O10_6 1_555 1_555
Zr6_3 O8_6 1_555 1_555
Zr11_6 O9_6 1_555 1_555
O23_3 C1_6 1_555 1_555
C6_6 C7_6 1_555 1_555
C12_6 C13_6 1_555 1_555
C25_6 C28_6 1_555 1_555
C26_6 C27_6 1_555 1_555
C38_6 C39_6 1_555 1_555
C40_6 C41_6 1_555 1_555
C51_6 C52_6 1_555 1_555
C53_6 C54_6 1_555 1_555
Zr7 O18_6 1_555 1_555
O17_6 Zr11_6 1_555 1_555
O19_6 Zr7 1_555 1_555
Zr7 O17_6 1_555 1_555
Zr6_3 O1_6 1_555 1_555
O17_5 Zr6_3 1_555 1_555
O4_6 Zr6_3 1_555 1_555
O13_6 Zr7_4 1_555 1_555
O14_6 Zr7_4 1_555 1_555
Zr6_4 O1_7 1_555 1_555
O4_7 Zr6_4 1_555 1_555
O13_7 Zr7_5 1_555 1_555
O14_7 Zr7_5 1_555 1_555
Zr7_5 O17_2 1_555 1_555
Zr6 O1_8 1_555 1_555
O4_8 Zr6 1_555 1_555
O13_8 Zr7_2 1_555 1_555
O14_8 Zr7_2 1_555 1_555
Zr7_2 O17 1_555 1_555
Zr6_2 O1_9 1_555 1_555
O17_4 Zr6_2 1_555 1_555
O4_9 Zr6_2 1_555 1_555
O13_9 Zr7_3 1_555 1_555
O14_9 Zr7_3 1_555 1_555
Zr6_5 O1_10 1_555 1_555
O17_6 Zr6_5 1_555 1_555
O4_10 Zr6_5 1_555 1_555
O13_10 Zr7 1_555 1_555
O14_10 Zr7 1_555 1_555
Zr7 O17_3 1_555 1_555

#END
