
###############################################################################
#
# This file contains modified crystal structure data generated from the
# MOF subset of the Cambridge Structural Database (CSD) v543 
# hosted by the Cambridge Crystallographic Data Centre (CCDC).
#
# This work is licensed under the Creative Commons
# Attribution-NonCommercial-ShareAlike 4.0 International License.
# To view a copy of this license, visit
# http://creativecommons.org/licenses/by-nc-sa/4.0/
# or send a letter to
# Creative Commons, PO Box 1866, Mountain View, CA 94042, USA.
#
# CIF created using the CSD Python API on 29 September 2022
# The structure has been converted into the P1 space group
# The structure has a 3D framework
# The original CSD entry BUNMOP is in the rhombohedral crystal system
# The framework has been calculated to contain at least 10.0% void space
# The void calculation uses a probe of radius 1.32A, grid spacing 0.4
# The framework is charged, counterions have been retained in the structure
# Generated hydrogen atom positions removed from atoms on special positions
#
###############################################################################

data_BUNMOP
_chemical_formula_moiety         '(C216 H306 N54 Ni12 O242 U18 18+)n'
_symmetry_cell_setting           triclinic
_symmetry_space_group_name_H-M   'P 1'
_symmetry_Int_Tables_number      1
_space_group_name_Hall           'P 1'
loop_
_symmetry_equiv_pos_site_id
_symmetry_equiv_pos_as_xyz
1 x,y,z
_cell_length_a                   15.8019(4)
_cell_length_b                   15.8019(4)
_cell_length_c                   45.068(2)
_cell_angle_alpha                90
_cell_angle_beta                 90
_cell_angle_gamma                120
_cell_volume                     9745.8
loop_
_atom_site_label
_atom_site_type_symbol
_atom_site_fract_x
_atom_site_fract_y
_atom_site_fract_z
U1 U 0.435736(19) 0.431339(19) 0.556260(11)
O2 O 0.5177(4) 0.3336(4) 0.55040(17)
O5 O 0.3879(4) 0.2891(4) 0.52348(15)
C1 C 0.4598(6) 0.2800(6) 0.5307(2)
O7 O 0.5125(4) 0.5103(4) 0.52813(14)
O8 O 0.3589(4) 0.3513(4) 0.58428(14)
H2 H 0.6975 0.0344 0.4474
C5 C 0.4752(7) 0.2032(7) 0.5160(2)
H3 H 0.5446 0.2253 0.5158
H4 H 0.4431 0.1438 0.5277
O10 O 0.2785(4) 0.0075(4) 0.49850(15)
N3 N 0.4263(5) 0.0863(5) 0.47567(16)
O11 O 0.5760(4) 0.1606(4) 0.45306(15)
C7 C 0.4370(6) 0.1800(6) 0.4847(2)
H7 H 0.3743 0.1771 0.4835
H8 H 0.4820 0.2312 0.4714
C8 C 0.5022(6) 0.0852(6) 0.4607(2)
C10 C 0.3431(6) 0.0042(6) 0.48540(18)
H10 H 0.5833 0.0417 0.4206
O12 O 0.3364(4) 0.5123(7) 0.55562(16)
O13 O 0.5080(7) 0.5753(4) 0.59052(14)
O14 O 0.2967(4) 0.3924(7) 0.52423(15)
O15 O 0.5789(7) 0.4875(4) 0.58745(14)
O3 O 0.0914(4) 0.8253(7) 0.42385(14)
O6 O 0.1792(4) 0.7544(7) 0.42078(14)
C2 C 0.1019(6) 0.7520(10) 0.4300(2)
C3 C 0.2809(6) 0.4566(10) 0.5347(2)
O9 O 0.1712(4) 0.5790(6) 0.46221(14)
C4 C 0.0278(6) 0.6649(10) 0.4474(2)
H1 H 0.0493 0.6699 0.4678
N1 N 0.0840(5) 0.4235(6) 0.48007(15)
N2 N 0.0060(5) 0.4949(7) 0.45452(16)
C6 C 0.1974(7) 0.4656(12) 0.5234(2)
H5 H 0.2138 0.5335 0.5241
H6 H 0.1406 0.4281 0.5359
C9 C 0.0923(6) 0.5040(8) 0.46590(19)
C11 C 0.0157(6) 0.5697(10) 0.4332(2)
H9 H 0.0718 0.5868 0.4207
C12 C 0.1735(6) 0.4281(10) 0.4914(2)
H11 H 0.2279 0.4706 0.4787
H12 H 0.1660 0.3633 0.4905
U3 U 0.235328(19) 0.897597(33) 0.389593(11)
O12_2 O 0.1759(8) 0.5123(7) 0.05562(16)
O13_2 O 0.0672(8) 0.5753(4) 0.09052(14)
O14_2 O 0.0957(8) 0.3924(7) 0.02423(15)
U1_2 U 0.435736(19) 0.004397(27) 0.056260(11)
O2_2 O 0.5177(4) 0.1841(6) 0.05040(17)
O5_2 O 0.3879(4) 0.0988(6) 0.02348(15)
C1_2 C 0.4598(6) 0.1798(8) 0.0307(2)
O7_2 O 0.5125(4) 0.0022(6) 0.02813(14)
O8_2 O 0.3589(4) 0.0076(6) 0.08428(14)
C3_2 C 0.1757(8) 0.4566(10) 0.0347(2)
C5_2 C 0.4752(7) 0.2720(10) 0.0160(2)
H3_2 H 0.5446 0.3193 0.0158
H4_2 H 0.4431 0.2993 0.0277
C6_2 C 0.2682(10) 0.4656(12) 0.0234(2)
H5_2 H 0.3197 0.5335 0.0241
H6_2 H 0.2875 0.4281 0.0359
O15_2 O 0.5789(7) 0.0915(8) 0.08745(14)
O3_2 O 0.7581(4) 0.1586(7) 0.75718(14)
O6_2 O 0.8459(4) 0.0877(7) 0.75411(14)
C2_2 C 0.7686(6) 0.0853(10) 0.7633(2)
H1_2 H 0.7160 0.0032 0.8011
U3_2 U 0.901994(19) 0.230931(33) 0.722927(11)
O1 O 0.1544(7) 0.9969(4) 0.38895(16)
O2_3 O 0.3331(4) 0.8156(4) 0.38373(17)
O3_3 O 0.7581(4) 0.5994(6) 0.25718(14)
O5_3 O 0.3776(4) 0.9454(4) 0.35681(15)
O6_3 O 0.8459(4) 0.7581(6) 0.25411(14)
C1_3 C 0.3867(6) 0.8735(6) 0.3640(2)
C2_3 C 0.7686(6) 0.6832(8) 0.2633(2)
O7_3 O 0.1564(4) 0.8208(4) 0.36146(14)
O8_3 O 0.3154(4) 0.9744(4) 0.41761(14)
O9_2 O 0.8379(4) 0.9255(4) 0.29554(14)
C4_2 C 0.6945(6) 0.6962(8) 0.2807(2)
H1_3 H 0.7160 0.7127 0.3011
H2_2 H 0.6323 0.6358 0.2807
C5_3 C 0.4635(7) 0.8581(7) 0.3493(2)
H3_3 H 0.4414 0.7887 0.3491
H4_3 H 0.5229 0.8902 0.3610
N1_2 N 0.7507(5) 0.9938(4) 0.31340(15)
N2_2 N 0.6727(5) 0.8444(5) 0.28785(16)
N3_2 N 0.5804(5) 0.9070(5) 0.30900(16)
O11_2 O 0.5061(4) 0.7573(4) 0.28639(15)
C7_2 C 0.4867(6) 0.8963(6) 0.3180(2)
H7_2 H 0.4896 0.9590 0.3168
H8_2 H 0.4355 0.8513 0.3047
C8_2 C 0.5815(6) 0.8311(6) 0.2940(2)
C9_2 C 0.7590(6) 0.9216(6) 0.29923(19)
C10_2 C 0.6625(6) 0.9902(6) 0.31873(18)
C11_2 C 0.6824(6) 0.7793(8) 0.2665(2)
H9_2 H 0.7385 0.8183 0.2540
H10_2 H 0.6250 0.7500 0.2539
U3_3 U 0.901994(19) 0.671064(27) 0.222927(11)
H2_3 H 0.0308 0.7011 0.1141
O2_4 O 0.9997(4) 0.8508(6) 0.21707(17)
O7_4 O 0.8230(4) 0.6689(6) 0.19480(14)
O8_4 O 0.9820(4) 0.6743(6) 0.25095(14)
O12_3 O 0.8210(7) 0.4908(8) 0.22229(16)
O14_3 O 0.9409(7) 0.5710(8) 0.19090(15)
C2_4 C 0.5813(10) 0.0166(8) 0.0967(2)
C3_3 C 0.8767(10) 0.4910(8) 0.2014(2)
O9_3 O 0.7543(6) 0.2589(4) 0.12888(14)
C4_3 C 0.6684(10) 0.0296(8) 0.1141(2)
H1_4 H 0.6634 0.0461 0.1345
N1_3 N 0.9098(6) 0.3272(4) 0.14674(15)
N2_3 N 0.8384(7) 0.1778(5) 0.12119(16)
N3_3 N 0.9933(7) 0.2404(5) 0.14234(16)
O11_3 O 0.9179(6) 0.0907(4) 0.11973(15)
C6_3 C 0.8677(12) 0.3985(10) 0.1901(2)
H5_3 H 0.7998 0.3470 0.1908
H6_3 H 0.9052 0.3792 0.2026
C8_3 C 0.9163(8) 0.1645(6) 0.1274(2)
C9_3 C 0.8293(8) 0.2550(6) 0.13257(19)
C10_3 C 0.9944(8) 0.3236(6) 0.15207(18)
C11_3 C 0.7636(10) 0.1127(8) 0.0999(2)
H9_3 H 0.7465 0.1517 0.0874
H10_3 H 0.7917 0.0834 0.0873
C12_2 C 0.9052(10) 0.4121(8) 0.1581(2)
H11_2 H 0.8627 0.4240 0.1454
H12_2 H 0.9700 0.4694 0.1572
O1_2 O 0.8210(7) 0.3303(4) 0.72229(16)
O4 O 0.9409(7) 0.3700(4) 0.69090(15)
C2_5 C 0.5813(10) 0.5648(6) 0.5967(2)
C3_4 C 0.8767(10) 0.3858(6) 0.7014(2)
O9_4 O 0.7543(6) 0.4955(4) 0.62888(14)
C4_4 C 0.6684(10) 0.6389(6) 0.6141(2)
H1_5 H 0.6634 0.6174 0.6345
H2_4 H 0.6702 0.7011 0.6141
N1_4 N 0.9098(6) 0.5827(5) 0.64674(15)
N2_4 N 0.8384(7) 0.6607(5) 0.62119(16)
N3_4 N 0.9933(7) 0.7530(5) 0.64234(16)
O11_4 O 0.9179(6) 0.8273(4) 0.61973(15)
C6_4 C 0.8677(12) 0.4693(7) 0.6901(2)
H5_4 H 0.7998 0.4529 0.6908
H6_4 H 0.9052 0.5261 0.7026
C8_4 C 0.9163(8) 0.7519(6) 0.6274(2)
C9_4 C 0.8293(8) 0.5744(6) 0.63257(19)
C10_4 C 0.9944(8) 0.6709(6) 0.65207(18)
C11_4 C 0.7636(10) 0.6510(6) 0.5999(2)
H9_4 H 0.7465 0.5949 0.5874
H10_4 H 0.7917 0.7084 0.5873
C12_3 C 0.9052(10) 0.4932(6) 0.6581(2)
H11_3 H 0.8627 0.4388 0.6454
H12_3 H 0.9700 0.5007 0.6572
O2_5 O 0.9997(4) 0.1490(4) 0.71707(17)
O7_5 O 0.8230(4) 0.1542(4) 0.69480(14)
O8_5 O 0.9820(4) 0.3078(4) 0.75095(14)
O1_3 O 0.1759(6) 0.6636(4) 0.55562(16)
O3_4 O 0.7339(6) 0.9086(4) 0.42385(14)
O4_2 O 0.0957(6) 0.7033(4) 0.52423(15)
O6_4 O 0.5752(6) 0.8208(4) 0.42078(14)
C2_6 C 0.6501(8) 0.8981(6) 0.4300(2)
C3_5 C 0.1757(8) 0.7191(6) 0.5347(2)
O9_5 O 0.4078(4) 0.8288(4) 0.46221(14)
C4_5 C 0.6371(8) 0.9722(6) 0.4474(2)
H1_6 H 0.6206 0.9507 0.4678
N1_5 N 0.3395(4) 0.9160(5) 0.48007(15)
N2_5 N 0.4889(5) 0.9940(5) 0.45452(16)
C6_5 C 0.2682(10) 0.8026(7) 0.5234(2)
H5_5 H 0.3197 0.7862 0.5241
H6_5 H 0.2875 0.8594 0.5359
C9_5 C 0.4117(6) 0.9077(6) 0.46590(19)
C11_5 C 0.5540(8) 0.9843(6) 0.4332(2)
H9_5 H 0.5150 0.9282 0.4207
C12_4 C 0.2546(8) 0.8265(6) 0.4914(2)
H11_4 H 0.2427 0.7721 0.4787
H12_4 H 0.1973 0.8340 0.4905
U3_4 U 0.662270(27) 0.764672(19) 0.389593(11)
O13_3 O 0.0672(8) 0.4920(7) 0.59052(14)
O2_6 O 0.4826(6) 0.6669(4) 0.38373(17)
O4_3 O 0.2743(7) 0.0366(4) 0.35756(15)
O5_4 O 0.5679(6) 0.6224(4) 0.35681(15)
C1_4 C 0.4869(8) 0.6133(6) 0.3640(2)
O7_6 O 0.6645(6) 0.8436(4) 0.36146(14)
O8_6 O 0.6591(6) 0.6846(4) 0.41761(14)
C3_6 C 0.2101(10) 0.0524(6) 0.3680(2)
O9_6 O 0.0877(6) 0.1621(4) 0.29554(14)
C4_6 C 0.0018(10) 0.3055(6) 0.2807(2)
H2_5 H 0.0036 0.3677 0.2807
C5_4 C 0.3947(10) 0.5365(7) 0.3493(2)
H3_4 H 0.3474 0.5586 0.3491
H4_4 H 0.3674 0.4771 0.3610
O10_2 O 0.3957(6) 0.3408(4) 0.33183(15)
N1_6 N 0.2432(6) 0.2493(5) 0.31340(15)
N2_6 N 0.1718(7) 0.3273(5) 0.28785(16)
N3_5 N 0.3267(7) 0.4196(5) 0.30900(16)
O11_5 O 0.2513(6) 0.4939(4) 0.28639(15)
C6_6 C 0.2011(12) 0.1359(7) 0.3567(2)
H5_6 H 0.1332 0.1195 0.3574
H6_6 H 0.2386 0.1927 0.3692
C7_3 C 0.4097(8) 0.5133(6) 0.3180(2)
H7_3 H 0.4695 0.5104 0.3168
H8_3 H 0.4159 0.5645 0.3047
C8_5 C 0.2497(8) 0.4185(6) 0.2940(2)
C9_6 C 0.1627(8) 0.2410(6) 0.29923(19)
C10_5 C 0.3278(8) 0.3375(6) 0.31873(18)
C11_6 C 0.0970(10) 0.3176(6) 0.2665(2)
H9_6 H 0.0799 0.2615 0.2540
H10_5 H 0.1251 0.3750 0.2539
C12_5 C 0.2386(10) 0.1598(6) 0.3247(2)
H11_5 H 0.1961 0.1054 0.3120
H12_5 H 0.3034 0.1673 0.3238
O12_4 O 0.8426(8) 0.8456(7) 0.38895(16)
O14_4 O 0.7624(8) 0.7257(7) 0.35756(15)
C3_7 C 0.8424(8) 0.7899(10) 0.3680(2)
O10_3 O 0.9452(4) 0.6043(6) 0.33183(15)
C6_7 C 0.9349(10) 0.7989(12) 0.3567(2)
H5_7 H 0.9864 0.8668 0.3574
H6_7 H 0.9542 0.7614 0.3692
C12_6 C 0.9213(8) 0.7614(10) 0.3247(2)
H11_6 H 0.9094 0.8039 0.3120
H12_6 H 0.8640 0.6966 0.3238
O14_5 O 0.9634(4) 0.2376(8) 0.35756(15)
C3_8 C 0.9476(6) 0.1576(8) 0.3680(2)
O10_4 O 0.6592(4) 0.0548(4) 0.33183(15)
C6_8 C 0.8641(7) 0.0651(10) 0.3567(2)
H5_8 H 0.8805 0.0136 0.3574
H6_8 H 0.8073 0.0458 0.3692
C12_7 C 0.8402(6) 0.0787(8) 0.3247(2)
H11_7 H 0.8946 0.0906 0.3120
H12_7 H 0.8327 0.1360 0.3238
H2_6 H 0.0308 0.3298 0.6141
U2 U 0.995603(27) 0.564264(19) 0.556260(11)
O12_5 O 0.4877(7) 0.8241(8) 0.55562(16)
O13_4 O 0.4247(4) 0.9328(8) 0.59052(14)
O14_6 O 0.6076(7) 0.9043(8) 0.52423(15)
O2_7 O 0.8159(6) 0.4823(4) 0.55040(17)
O3_5 O 0.1747(7) 0.2661(6) 0.42385(14)
O5_5 O 0.9012(6) 0.6121(4) 0.52348(15)
O6_5 O 0.2456(7) 0.4248(6) 0.42078(14)
C1_5 C 0.8202(8) 0.5402(6) 0.5307(2)
C2_7 C 0.2480(10) 0.3499(8) 0.4300(2)
O7_7 O 0.9978(6) 0.4875(4) 0.52813(14)
O8_7 O 0.9924(6) 0.6411(4) 0.58428(14)
C3_9 C 0.5434(10) 0.8243(8) 0.5347(2)
O9_7 O 0.4210(6) 0.5922(4) 0.46221(14)
C4_7 C 0.3351(10) 0.3629(8) 0.4474(2)
H1_7 H 0.3301 0.3794 0.4678
H2_7 H 0.3369 0.3025 0.4474
C5_5 C 0.7280(10) 0.5248(7) 0.5160(2)
H3_5 H 0.6807 0.4554 0.5158
H4_5 H 0.7007 0.5569 0.5277
O10_5 O 0.7290(6) 0.7215(4) 0.49850(15)
N1_7 N 0.5765(6) 0.6605(4) 0.48007(15)
N2_7 N 0.5051(7) 0.5111(5) 0.45452(16)
N3_6 N 0.6600(7) 0.5737(5) 0.47567(16)
O11_6 O 0.5846(6) 0.4240(4) 0.45306(15)
C6_9 C 0.5344(12) 0.7318(10) 0.5234(2)
H5_9 H 0.4665 0.6803 0.5241
H6_9 H 0.5719 0.7125 0.5359
C7_4 C 0.7430(8) 0.5630(6) 0.4847(2)
H7_4 H 0.8028 0.6257 0.4835
H8_4 H 0.7492 0.5180 0.4714
C8_6 C 0.5830(8) 0.4978(6) 0.4607(2)
C9_7 C 0.4960(8) 0.5883(6) 0.46590(19)
C10_6 C 0.6611(8) 0.6569(6) 0.48540(18)
C11_7 C 0.4303(10) 0.4460(8) 0.4332(2)
H9_7 H 0.4132 0.4850 0.4207
H10_6 H 0.4584 0.4167 0.4206
C12_8 C 0.5719(10) 0.7454(8) 0.4914(2)
H11_8 H 0.5294 0.7573 0.4787
H12_8 H 0.6367 0.8027 0.4905
U3_5 U 0.102403(33) 0.337730(27) 0.389593(11)
O15_3 O 0.9085(8) 0.4211(7) 0.58745(14)
O3_6 O 0.1747(7) 0.9086(4) 0.92385(14)
O6_6 O 0.2456(7) 0.8208(4) 0.92078(14)
C2_8 C 0.2480(10) 0.8981(6) 0.9300(2)
O9_8 O 0.4210(6) 0.8288(4) 0.96221(14)
C4_8 C 0.3351(10) 0.9722(6) 0.9474(2)
H1_8 H 0.3301 0.9507 0.9678
N1_8 N 0.5765(6) 0.9160(5) 0.98007(15)
N2_8 N 0.5051(7) 0.9940(5) 0.95452(16)
C9_8 C 0.4960(8) 0.9077(6) 0.96590(19)
C11_8 C 0.4303(10) 0.9843(6) 0.9332(2)
H9_8 H 0.4132 0.9282 0.9207
C12_9 C 0.5719(10) 0.8265(6) 0.9914(2)
H11_9 H 0.5294 0.7721 0.9787
H12_9 H 0.6367 0.8340 0.9905
U3_6 U 0.102403(33) 0.764672(19) 0.889593(11)
O2_8 O 0.1844(4) 0.6669(4) 0.88373(17)
O3_7 O 0.4006(6) 0.2419(4) 0.75718(14)
O5_6 O 0.0546(4) 0.6224(4) 0.85681(15)
O6_7 O 0.2419(6) 0.1541(4) 0.75411(14)
C1_6 C 0.1265(6) 0.6133(6) 0.8640(2)
C2_9 C 0.3168(8) 0.2314(6) 0.7633(2)
O7_8 O 0.1792(4) 0.8436(4) 0.86146(14)
O8_8 O 0.0256(4) 0.6846(4) 0.91761(14)
O9_9 O 0.0745(4) 0.1621(4) 0.79554(14)
C4_9 C 0.3038(8) 0.3055(6) 0.7807(2)
H1_9 H 0.2873 0.2840 0.8011
H2_8 H 0.3642 0.3677 0.7807
C5_6 C 0.1419(7) 0.5365(7) 0.8493(2)
H3_6 H 0.2113 0.5586 0.8491
H4_6 H 0.1098 0.4771 0.8610
N1_9 N 0.0062(4) 0.2493(5) 0.81340(15)
N2_9 N 0.1556(5) 0.3273(5) 0.78785(16)
N3_7 N 0.0930(5) 0.4196(5) 0.80900(16)
O11_7 O 0.2427(4) 0.4939(4) 0.78639(15)
C7_5 C 0.1037(6) 0.5133(6) 0.8180(2)
H7_5 H 0.0410 0.5104 0.8168
H8_5 H 0.1487 0.5645 0.8047
C8_7 C 0.1689(6) 0.4185(6) 0.7940(2)
C9_9 C 0.0784(6) 0.2410(6) 0.79923(19)
C10_7 C 0.0098(6) 0.3375(6) 0.81873(18)
C11_9 C 0.2207(8) 0.3176(6) 0.7665(2)
H9_9 H 0.1817 0.2615 0.7540
H10_7 H 0.2500 0.3750 0.7539
U3_7 U 0.328936(27) 0.098006(19) 0.722927(11)
O12_6 O 0.0031(4) 0.8456(7) 0.88895(16)
O2_9 O 0.1844(4) 0.5174(6) 0.38373(17)
O5_7 O 0.0546(4) 0.4321(6) 0.35681(15)
C1_7 C 0.1265(6) 0.5131(8) 0.3640(2)
O7_9 O 0.1792(4) 0.3355(6) 0.36146(14)
O8_9 O 0.0256(4) 0.3409(6) 0.41761(14)
O9_10 O 0.0745(4) 0.9123(6) 0.29554(14)
C4_10 C 0.3038(8) 0.9982(10) 0.2807(2)
H2_9 H 0.3642 0.9964 0.2807
C5_7 C 0.1419(7) 0.6053(10) 0.3493(2)
H3_7 H 0.2113 0.6526 0.3491
H4_7 H 0.1098 0.6326 0.3610
N1_10 N 0.0062(4) 0.7568(6) 0.31340(15)
N2_10 N 0.1556(5) 0.8282(7) 0.28785(16)
N3_8 N 0.0930(5) 0.6733(7) 0.30900(16)
O11_8 O 0.2427(4) 0.7487(6) 0.28639(15)
C7_6 C 0.1037(6) 0.5903(8) 0.3180(2)
H7_6 H 0.0410 0.5305 0.3168
H8_6 H 0.1487 0.5841 0.3047
C8_8 C 0.1689(6) 0.7503(8) 0.2940(2)
C9_10 C 0.0784(6) 0.8373(8) 0.29923(19)
C10_8 C 0.0098(6) 0.6722(8) 0.31873(18)
C11_10 C 0.2207(8) 0.9030(10) 0.2665(2)
H9_10 H 0.1817 0.9201 0.2540
H10_8 H 0.2500 0.8749 0.2539
O12_7 O 0.0031(4) 0.1574(8) 0.38895(16)
O2_10 O 0.1492(6) 0.0003(4) 0.71707(17)
O7_10 O 0.3311(6) 0.1770(4) 0.69480(14)
O8_10 O 0.3257(6) 0.0180(4) 0.75095(14)
O12_8 O 0.5092(8) 0.1790(7) 0.72229(16)
O14_7 O 0.4290(8) 0.0591(7) 0.69090(15)
C2_10 C 0.9834(8) 0.4187(10) 0.5967(2)
C3_10 C 0.5090(8) 0.1233(10) 0.7014(2)
O9_11 O 0.7411(4) 0.2457(6) 0.62888(14)
C4_11 C 0.9704(8) 0.3316(10) 0.6141(2)
H1_10 H 0.9539 0.3366 0.6345
N1_11 N 0.6728(4) 0.0902(6) 0.64674(15)
N2_11 N 0.8222(5) 0.1616(7) 0.62119(16)
N3_9 N 0.7596(5) 0.0067(7) 0.64234(16)
O11_9 O 0.9093(4) 0.0821(6) 0.61973(15)
C6_10 C 0.6015(10) 0.1323(12) 0.6901(2)
H5_10 H 0.6530 0.2002 0.6908
H6_10 H 0.6208 0.0948 0.7026
C8_9 C 0.8355(6) 0.0837(8) 0.6274(2)
C9_11 C 0.7450(6) 0.1707(8) 0.63257(19)
C10_9 C 0.6764(6) 0.0056(8) 0.65207(18)
C11_11 C 0.8873(8) 0.2364(10) 0.5999(2)
H9_11 H 0.8483 0.2535 0.5874
H10_9 H 0.9166 0.2083 0.5873
C12_10 C 0.5879(8) 0.0948(10) 0.6581(2)
H11_10 H 0.5760 0.1373 0.6454
H12_10 H 0.5306 0.0300 0.6572
H2_10 H 0.2989 0.9692 0.6141
U1_3 U 0.568661(19) 0.004397(27) 0.556260(11)
O2_11 O 0.6664(4) 0.1841(6) 0.55040(17)
O5_8 O 0.7109(4) 0.0988(6) 0.52348(15)
C1_8 C 0.7200(6) 0.1798(8) 0.5307(2)
O7_11 O 0.4897(4) 0.0022(6) 0.52813(14)
O8_11 O 0.6487(4) 0.0076(6) 0.58428(14)
H2_11 H 0.9656 0.6631 0.4474
C5_8 C 0.7968(7) 0.2720(10) 0.5160(2)
H3_8 H 0.7747 0.3193 0.5158
H4_8 H 0.8562 0.2993 0.5277
O10_6 O 0.9925(4) 0.2710(6) 0.49850(15)
N3_10 N 0.9137(5) 0.3400(7) 0.47567(16)
O11_10 O 0.8394(4) 0.4154(6) 0.45306(15)
C7_7 C 0.8200(6) 0.2570(8) 0.4847(2)
H7_7 H 0.8229 0.1972 0.4835
H8_7 H 0.7688 0.2508 0.4714
C8_10 C 0.9148(6) 0.4170(8) 0.4607(2)
C10_10 C 0.9958(6) 0.3389(8) 0.48540(18)
H10_10 H 0.9583 0.5416 0.4206
O15_4 O 0.5125(4) 0.0915(8) 0.58745(14)
O3_8 O 0.8414(7) 0.5994(6) 0.75718(14)
O6_8 O 0.9123(7) 0.7581(6) 0.75411(14)
C2_11 C 0.9147(10) 0.6832(8) 0.7633(2)
H1_11 H 0.9968 0.7127 0.8011
U3_8 U 0.769069(33) 0.671064(27) 0.722927(11)
O2_12 O 0.8510(4) 0.8508(6) 0.71707(17)
O5_9 O 0.7212(4) 0.7655(6) 0.69015(15)
C1_9 C 0.7931(6) 0.8465(8) 0.6974(2)
O7_12 O 0.8458(4) 0.6689(6) 0.69480(14)
O8_12 O 0.6922(4) 0.6743(6) 0.75095(14)
C5_9 C 0.8085(7) 0.9387(10) 0.6827(2)
H3_9 H 0.8779 0.9860 0.6825
H4_9 H 0.7764 0.9660 0.6944
O10_7 O 0.6118(4) 0.9377(6) 0.66517(15)
C7_8 C 0.7703(6) 0.9237(8) 0.6514(2)
H7_8 H 0.7076 0.8639 0.6502
H8_8 H 0.8153 0.9175 0.6381
O12_9 O 0.6697(4) 0.4908(8) 0.72229(16)
O14_8 O 0.6300(4) 0.5710(8) 0.69090(15)
O5_10 O 0.0442(4) 0.2788(4) 0.69015(15)
C1_10 C 0.0533(6) 0.2069(6) 0.6974(2)
C2_12 C 0.4352(6) 0.0166(8) 0.5967(2)
C3_11 C 0.6142(6) 0.4910(8) 0.7014(2)
O9_12 O 0.5045(4) 0.2589(4) 0.62888(14)
C4_12 C 0.3611(6) 0.0296(8) 0.6141(2)
H1_12 H 0.3826 0.0461 0.6345
C5_10 C 0.1301(7) 0.1915(7) 0.6827(2)
H3_10 H 0.1080 0.1221 0.6825
H4_10 H 0.1895 0.2236 0.6944
O10_8 O 0.3258(4) 0.3882(4) 0.66517(15)
N1_12 N 0.4173(5) 0.3272(4) 0.64674(15)
N2_12 N 0.3393(5) 0.1778(5) 0.62119(16)
N3_11 N 0.2470(5) 0.2404(5) 0.64234(16)
O11_11 O 0.1727(4) 0.0907(4) 0.61973(15)
C6_11 C 0.5307(7) 0.3985(10) 0.6901(2)
H5_11 H 0.5471 0.3470 0.6908
H6_11 H 0.4739 0.3792 0.7026
C7_9 C 0.1533(6) 0.2297(6) 0.6514(2)
H7_9 H 0.1562 0.2924 0.6502
H8_9 H 0.1021 0.1847 0.6381
C8_11 C 0.2481(6) 0.1645(6) 0.6274(2)
C9_12 C 0.4256(6) 0.2550(6) 0.63257(19)
C10_11 C 0.3291(6) 0.3236(6) 0.65207(18)
C11_12 C 0.3490(6) 0.1127(8) 0.5999(2)
H9_12 H 0.4051 0.1517 0.5874
H10_11 H 0.2916 0.0834 0.5873
C12_11 C 0.5068(6) 0.4121(8) 0.6581(2)
H11_11 H 0.5612 0.4240 0.6454
H12_11 H 0.4993 0.4694 0.6572
U1_4 U 0.995603(27) 0.431339(19) 0.056260(11)
O2_13 O 0.8159(6) 0.3336(4) 0.05040(17)
O5_11 O 0.9012(6) 0.2891(4) 0.02348(15)
C1_11 C 0.8202(8) 0.2800(6) 0.0307(2)
O7_13 O 0.9978(6) 0.5103(4) 0.02813(14)
O8_13 O 0.9924(6) 0.3513(4) 0.08428(14)
C5_11 C 0.7280(10) 0.2032(7) 0.0160(2)
H3_11 H 0.6807 0.2253 0.0158
H4_11 H 0.7007 0.1438 0.0277
O15_5 O 0.9085(8) 0.4875(4) 0.08745(14)
O3_9 O 0.4006(6) 0.1586(7) 0.25718(14)
O6_9 O 0.2419(6) 0.0877(7) 0.25411(14)
C2_13 C 0.3168(8) 0.0853(10) 0.2633(2)
H1_13 H 0.2873 0.0032 0.3011
U3_9 U 0.328936(27) 0.230931(33) 0.222927(11)
O1_4 O 0.5092(6) 0.3303(4) 0.22229(16)
O4_4 O 0.4290(6) 0.3700(4) 0.19090(15)
O5_12 O 0.7212(4) 0.9558(4) 0.19015(15)
C1_12 C 0.7931(6) 0.9467(6) 0.1974(2)
C2_14 C 0.9834(8) 0.5648(6) 0.0967(2)
C3_12 C 0.5090(8) 0.3858(6) 0.2014(2)
O9_13 O 0.7411(4) 0.4955(4) 0.12888(14)
C4_13 C 0.9704(8) 0.6389(6) 0.1141(2)
H1_14 H 0.9539 0.6174 0.1345
C5_12 C 0.8085(7) 0.8699(7) 0.1827(2)
H3_12 H 0.8779 0.8920 0.1825
H4_12 H 0.7764 0.8105 0.1944
O10_9 O 0.6118(4) 0.6742(4) 0.16517(15)
N1_13 N 0.6728(4) 0.5827(5) 0.14674(15)
N2_13 N 0.8222(5) 0.6607(5) 0.12119(16)
N3_12 N 0.7596(5) 0.7530(5) 0.14234(16)
O11_12 O 0.9093(4) 0.8273(4) 0.11973(15)
C6_12 C 0.6015(10) 0.4693(7) 0.1901(2)
H5_12 H 0.6530 0.4529 0.1908
H6_12 H 0.6208 0.5261 0.2026
C7_10 C 0.7703(6) 0.8467(6) 0.1514(2)
H7_10 H 0.7076 0.8438 0.1502
H8_10 H 0.8153 0.8979 0.1381
C8_12 C 0.8355(6) 0.7519(6) 0.1274(2)
C9_13 C 0.7450(6) 0.5744(6) 0.13257(19)
C10_12 C 0.6764(6) 0.6709(6) 0.15207(18)
C11_13 C 0.8873(8) 0.6510(6) 0.0999(2)
H9_13 H 0.8483 0.5949 0.0874
H10_12 H 0.9166 0.7084 0.0873
C12_12 C 0.5879(8) 0.4932(6) 0.1581(2)
H11_12 H 0.5760 0.4388 0.1454
H12_12 H 0.5306 0.5007 0.1572
O2_14 O 0.1492(6) 0.1490(4) 0.21707(17)
O5_13 O 0.2345(6) 0.2788(4) 0.19015(15)
C1_13 C 0.1535(8) 0.2069(6) 0.1974(2)
O7_14 O 0.3311(6) 0.1542(4) 0.19480(14)
O8_14 O 0.3257(6) 0.3078(4) 0.25095(14)
C5_13 C 0.0613(10) 0.1915(7) 0.1827(2)
H3_13 H 0.0140 0.1221 0.1825
H4_13 H 0.0340 0.2236 0.1944
O10_10 O 0.0623(6) 0.3882(4) 0.16517(15)
C7_11 C 0.0763(8) 0.2297(6) 0.1514(2)
H7_11 H 0.1361 0.2924 0.1502
H8_11 H 0.0825 0.1847 0.1381
H2_12 H 0.3369 0.0344 0.9474
O10_11 O 0.7290(6) 0.0075(4) 0.99850(15)
N3_13 N 0.6600(7) 0.0863(5) 0.97567(16)
O11_13 O 0.5846(6) 0.1606(4) 0.95306(15)
C7_12 C 0.7430(8) 0.1800(6) 0.9847(2)
H7_12 H 0.8028 0.1771 0.9835
H8_12 H 0.7492 0.2312 0.9714
C8_13 C 0.5830(8) 0.0852(6) 0.9607(2)
C10_13 C 0.6611(8) 0.0042(6) 0.98540(18)
H10_13 H 0.4584 0.0417 0.9206
O1_5 O 0.4877(7) 0.6636(4) 0.05562(16)
O4_5 O 0.6076(7) 0.7033(4) 0.02423(15)
C3_13 C 0.5434(10) 0.7191(6) 0.0347(2)
C6_13 C 0.5344(12) 0.8026(7) 0.0234(2)
H5_13 H 0.4665 0.7862 0.0241
H6_13 H 0.5719 0.8594 0.0359
U2_2 U 0.568661(33) 0.564264(19) 0.056260(11)
O2_15 O 0.6664(4) 0.4823(4) 0.05040(17)
O5_14 O 0.7109(4) 0.6121(4) 0.02348(15)
C1_14 C 0.7200(6) 0.5402(6) 0.0307(2)
O7_15 O 0.4897(4) 0.4875(4) 0.02813(14)
O8_15 O 0.6487(4) 0.6411(4) 0.08428(14)
C5_14 C 0.7968(7) 0.5248(7) 0.0160(2)
H3_14 H 0.7747 0.4554 0.0158
H4_14 H 0.8562 0.5569 0.0277
O13_5 O 0.4247(4) 0.4920(7) 0.09052(14)
O15_6 O 0.5125(4) 0.4211(7) 0.08745(14)
O3_10 O 0.8414(7) 0.2419(4) 0.25718(14)
O6_10 O 0.9123(7) 0.1541(4) 0.25411(14)
C2_15 C 0.9147(10) 0.2314(6) 0.2633(2)
H1_15 H 0.9968 0.2840 0.3011
U3_10 U 0.769069(33) 0.098006(19) 0.222927(11)
O2_16 O 0.8510(4) 0.0003(4) 0.21707(17)
O7_16 O 0.8458(4) 0.1770(4) 0.19480(14)
O8_16 O 0.6922(4) 0.0180(4) 0.25095(14)
O12_10 O 0.6697(4) 0.1790(7) 0.22229(16)
O14_9 O 0.6300(4) 0.0591(7) 0.19090(15)
C2_16 C 0.4352(6) 0.4187(10) 0.0967(2)
C3_14 C 0.6142(6) 0.1233(10) 0.2014(2)
O9_14 O 0.5045(4) 0.2457(6) 0.12888(14)
C4_14 C 0.3611(6) 0.3316(10) 0.1141(2)
H1_16 H 0.3826 0.3366 0.1345
H2_13 H 0.2989 0.3298 0.1141
N1_14 N 0.4173(5) 0.0902(6) 0.14674(15)
N2_14 N 0.3393(5) 0.1616(7) 0.12119(16)
N3_14 N 0.2470(5) 0.0067(7) 0.14234(16)
O11_14 O 0.1727(4) 0.0821(6) 0.11973(15)
C6_14 C 0.5307(7) 0.1323(12) 0.1901(2)
H5_14 H 0.5471 0.2002 0.1908
H6_14 H 0.4739 0.0948 0.2026
C8_14 C 0.2481(6) 0.0837(8) 0.1274(2)
C9_14 C 0.4256(6) 0.1707(8) 0.13257(19)
C10_14 C 0.3291(6) 0.0056(8) 0.15207(18)
C11_14 C 0.3490(6) 0.2364(10) 0.0999(2)
H9_14 H 0.4051 0.2535 0.0874
H10_14 H 0.2916 0.2083 0.0873
C12_13 C 0.5068(6) 0.0948(10) 0.1581(2)
H11_13 H 0.5612 0.1373 0.1454
H12_13 H 0.4993 0.0300 0.1572
O3_11 O 0.7339(6) 0.8253(7) 0.92385(14)
O6_11 O 0.5752(6) 0.7544(7) 0.92078(14)
C2_17 C 0.6501(8) 0.7520(10) 0.9300(2)
O9_15 O 0.4078(4) 0.5790(6) 0.96221(14)
C4_15 C 0.6371(8) 0.6649(10) 0.9474(2)
H1_17 H 0.6206 0.6699 0.9678
H2_14 H 0.6975 0.6631 0.9474
O10_12 O 0.2785(4) 0.2710(6) 0.99850(15)
N1_15 N 0.3395(4) 0.4235(6) 0.98007(15)
N2_15 N 0.4889(5) 0.4949(7) 0.95452(16)
N3_15 N 0.4263(5) 0.3400(7) 0.97567(16)
O11_15 O 0.5760(4) 0.4154(6) 0.95306(15)
C7_13 C 0.4370(6) 0.2570(8) 0.9847(2)
H7_13 H 0.3743 0.1972 0.9835
H8_13 H 0.4820 0.2508 0.9714
C8_15 C 0.5022(6) 0.4170(8) 0.9607(2)
C9_15 C 0.4117(6) 0.5040(8) 0.96590(19)
C10_15 C 0.3431(6) 0.3389(8) 0.98540(18)
C11_15 C 0.5540(8) 0.5697(10) 0.9332(2)
H9_15 H 0.5150 0.5868 0.9207
H10_15 H 0.5833 0.5416 0.9206
C12_14 C 0.2546(8) 0.4281(10) 0.9914(2)
H11_14 H 0.2427 0.4706 0.9787
H12_14 H 0.1973 0.3633 0.9905
U3_11 U 0.662270(27) 0.897597(33) 0.889593(11)
O1_6 O 0.8426(6) 0.9969(4) 0.88895(16)
O2_17 O 0.4826(6) 0.8156(4) 0.88373(17)
O5_15 O 0.5679(6) 0.9454(4) 0.85681(15)
C1_15 C 0.4869(8) 0.8735(6) 0.8640(2)
O7_17 O 0.6645(6) 0.8208(4) 0.86146(14)
O8_17 O 0.6591(6) 0.9744(4) 0.91761(14)
O9_16 O 0.0877(6) 0.9255(4) 0.79554(14)
C4_16 C 0.0018(10) 0.6962(8) 0.7807(2)
H2_15 H 0.0036 0.6358 0.7807
C5_15 C 0.3947(10) 0.8581(7) 0.8493(2)
H3_15 H 0.3474 0.7887 0.8491
H4_15 H 0.3674 0.8902 0.8610
N1_16 N 0.2432(6) 0.9938(4) 0.81340(15)
N2_16 N 0.1718(7) 0.8444(5) 0.78785(16)
N3_16 N 0.3267(7) 0.9070(5) 0.80900(16)
O11_16 O 0.2513(6) 0.7573(4) 0.78639(15)
C7_14 C 0.4097(8) 0.8963(6) 0.8180(2)
H7_14 H 0.4695 0.9590 0.8168
H8_14 H 0.4159 0.8513 0.8047
C8_16 C 0.2497(8) 0.8311(6) 0.7940(2)
C9_16 C 0.1627(8) 0.9216(6) 0.79923(19)
C10_16 C 0.3278(8) 0.9902(6) 0.81873(18)
C11_16 C 0.0970(10) 0.7793(8) 0.7665(2)
H9_16 H 0.0799 0.8183 0.7540
H10_16 H 0.1251 0.7500 0.7539
O12_11 O 0.3364(4) 0.8241(8) 0.05562(16)
O13_6 O 0.5080(7) 0.9328(8) 0.09052(14)
O14_10 O 0.2967(4) 0.9043(8) 0.02423(15)
C3_15 C 0.2809(6) 0.8243(8) 0.0347(2)
C6_15 C 0.1974(7) 0.7318(10) 0.0234(2)
H5_15 H 0.2138 0.6803 0.0241
H6_15 H 0.1406 0.7125 0.0359
H2_16 H 0.6702 0.9692 0.1141
O3_12 O 0.0914(4) 0.2661(6) 0.92385(14)
O6_12 O 0.1792(4) 0.4248(6) 0.92078(14)
C2_18 C 0.1019(6) 0.3499(8) 0.9300(2)
O9_17 O 0.1712(4) 0.5922(4) 0.96221(14)
C4_17 C 0.0278(6) 0.3629(8) 0.9474(2)
H1_18 H 0.0493 0.3794 0.9678
N1_17 N 0.0840(5) 0.6605(4) 0.98007(15)
N2_17 N 0.0060(5) 0.5111(5) 0.95452(16)
C9_17 C 0.0923(6) 0.5883(6) 0.96590(19)
C11_17 C 0.0157(6) 0.4460(8) 0.9332(2)
H9_17 H 0.0718 0.4850 0.9207
C12_15 C 0.1735(6) 0.7454(8) 0.9914(2)
H11_15 H 0.2279 0.7573 0.9787
H12_15 H 0.1660 0.8027 0.9905
U3_12 U 0.235328(19) 0.337730(27) 0.889593(11)
O4_6 O 0.7624(6) 0.0366(4) 0.85756(15)
C3_16 C 0.8424(8) 0.0524(6) 0.8680(2)
O10_13 O 0.9452(4) 0.3408(4) 0.83183(15)
C6_16 C 0.9349(10) 0.1359(7) 0.8567(2)
H5_16 H 0.9864 0.1195 0.8574
H6_16 H 0.9542 0.1927 0.8692
C12_16 C 0.9213(8) 0.1598(6) 0.8247(2)
H11_16 H 0.9094 0.1054 0.8120
H12_16 H 0.8640 0.1673 0.8238
O14_11 O 0.9634(4) 0.7257(7) 0.85756(15)
O2_18 O 0.3331(4) 0.5174(6) 0.88373(17)
O5_16 O 0.3776(4) 0.4321(6) 0.85681(15)
C1_16 C 0.3867(6) 0.5131(8) 0.8640(2)
O7_18 O 0.1564(4) 0.3355(6) 0.86146(14)
O8_18 O 0.3154(4) 0.3409(6) 0.91761(14)
C3_17 C 0.9476(6) 0.7899(10) 0.8680(2)
O9_18 O 0.8379(4) 0.9123(6) 0.79554(14)
C4_18 C 0.6945(6) 0.9982(10) 0.7807(2)
H2_17 H 0.6323 0.9964 0.7807
C5_16 C 0.4635(7) 0.6053(10) 0.8493(2)
H3_16 H 0.4414 0.6526 0.8491
H4_16 H 0.5229 0.6326 0.8610
O10_14 O 0.6592(4) 0.6043(6) 0.83183(15)
N1_18 N 0.7507(5) 0.7568(6) 0.81340(15)
N2_18 N 0.6727(5) 0.8282(7) 0.78785(16)
N3_17 N 0.5804(5) 0.6733(7) 0.80900(16)
O11_17 O 0.5061(4) 0.7487(6) 0.78639(15)
C6_17 C 0.8641(7) 0.7989(12) 0.8567(2)
H5_17 H 0.8805 0.8668 0.8574
H6_17 H 0.8073 0.7614 0.8692
C7_15 C 0.4867(6) 0.5903(8) 0.8180(2)
H7_15 H 0.4896 0.5305 0.8168
H8_15 H 0.4355 0.5841 0.8047
C8_17 C 0.5815(6) 0.7503(8) 0.7940(2)
C9_18 C 0.7590(6) 0.8373(8) 0.79923(19)
C10_17 C 0.6625(6) 0.6722(8) 0.81873(18)
C11_18 C 0.6824(6) 0.9030(10) 0.7665(2)
H9_18 H 0.7385 0.9201 0.7540
H10_17 H 0.6250 0.8749 0.7539
C12_17 C 0.8402(6) 0.7614(10) 0.8247(2)
H11_17 H 0.8946 0.8039 0.8120
H12_17 H 0.8327 0.6966 0.8238
O12_12 O 0.1544(7) 0.1574(8) 0.88895(16)
O14_12 O 0.2743(7) 0.2376(8) 0.85756(15)
C3_18 C 0.2101(10) 0.1576(8) 0.8680(2)
O10_15 O 0.3957(6) 0.0548(4) 0.83183(15)
C6_18 C 0.2011(12) 0.0651(10) 0.8567(2)
H5_18 H 0.1332 0.0136 0.8574
H6_18 H 0.2386 0.0458 0.8692
C12_18 C 0.2386(10) 0.0787(8) 0.8247(2)
H11_18 H 0.1961 0.0906 0.8120
H12_18 H 0.3034 0.1360 0.8238
H2_18 H 0.9656 0.3025 0.9474
O10_16 O 0.9925(4) 0.7215(4) 0.99850(15)
N3_18 N 0.9137(5) 0.5737(5) 0.97567(16)
O11_18 O 0.8394(4) 0.4240(4) 0.95306(15)
C7_16 C 0.8200(6) 0.5630(6) 0.9847(2)
H7_16 H 0.8229 0.6257 0.9835
H8_16 H 0.7688 0.5180 0.9714
C8_18 C 0.9148(6) 0.4978(6) 0.9607(2)
C10_18 C 0.9958(6) 0.6569(6) 0.98540(18)
H10_18 H 0.9583 0.4167 0.9206
O5_17 O 0.0442(4) 0.7655(6) 0.19015(15)
C1_17 C 0.0533(6) 0.8465(8) 0.1974(2)
C5_17 C 0.1301(7) 0.9387(10) 0.1827(2)
H3_17 H 0.1080 0.9860 0.1825
H4_17 H 0.1895 0.9660 0.1944
O10_17 O 0.3258(4) 0.9377(6) 0.16517(15)
C7_17 C 0.1533(6) 0.9237(8) 0.1514(2)
H7_17 H 0.1562 0.8639 0.1502
H8_17 H 0.1021 0.9175 0.1381
O5_18 O 0.2345(6) 0.9558(4) 0.69015(15)
C1_18 C 0.1535(8) 0.9467(6) 0.6974(2)
C5_18 C 0.0613(10) 0.8699(7) 0.6827(2)
H3_18 H 0.0140 0.8920 0.6825
H4_18 H 0.0340 0.8105 0.6944
O10_18 O 0.0623(6) 0.6742(4) 0.66517(15)
C7_18 C 0.0763(8) 0.8467(6) 0.6514(2)
H7_18 H 0.1361 0.8438 0.6502
H8_18 H 0.0825 0.8979 0.6381
Ni1 Ni 0.0000 0.0000 0.46470(4)
O16 O 0.1247(4) 0.0773(4) 0.43991(14)
H13 H 0.1337 0.1346 0.4356
H14 H 0.1199 0.0466 0.4236
O17 O 0.0491(4) 0.1220(4) 0.49034(14)
H15 H 0.0716 0.1737 0.4793
H16 H 0.0954 0.1282 0.5020
Ni1_2 Ni 0.0000 1.0000 0.46470(4)
H21 H 0.0009 0.8663 0.4356
O21 O 0.0729(6) 0.9509(4) 0.49034(14)
H23 H 0.1021 0.9284 0.4793
H24 H 0.0328 0.9046 0.5020
Ni1_3 Ni 1.0000 0.0000 0.46470(4)
O18 O 0.9227(4) 0.0474(6) 0.43991(14)
H18 H 0.9534 0.0733 0.4236
Ni1_4 Ni 1.0000 1.0000 0.46470(4)
H17 H 0.8654 0.9991 0.4356
O19 O 0.8780(4) 0.9271(6) 0.49034(14)
H19 H 0.8263 0.8979 0.4793
H20 H 0.8718 0.9672 0.5020
O20 O 0.9526(6) 0.8753(4) 0.43991(14)
H22 H 0.9267 0.8801 0.4236
H16_2 H 0.0328 0.1282 0.0020
Ni1_5 Ni 0.0000 0.0000 0.96470(4)
H13_2 H 0.0009 0.1346 0.9356
O17_2 O 0.0729(6) 0.1220(4) 0.99034(14)
H15_2 H 0.1021 0.1737 0.9793
O18_2 O 0.1247(7) 0.0474(6) 0.93991(14)
H18_2 H 0.1199 0.0733 0.9236
H20_2 H 0.0954 0.9672 0.0020
Ni1_6 Ni 0.0000 1.0000 0.96470(4)
H17_2 H 0.1337 0.9991 0.9356
O19_2 O 0.0491(7) 0.9271(6) 0.99034(14)
H19_2 H 0.0716 0.8979 0.9793
Ni1_7 Ni 1.0000 0.0000 0.96470(4)
O16_2 O 0.9526(6) 0.0773(4) 0.93991(14)
H14_2 H 0.9267 0.0466 0.9236
H24_2 H 0.8718 0.9046 0.0020
Ni1_8 Ni 1.0000 1.0000 0.96470(4)
O20_2 O 0.9227(7) 0.8753(4) 0.93991(14)
H21_2 H 0.8654 0.8663 0.9356
H22_2 H 0.9534 0.8801 0.9236
O21_2 O 0.8780(7) 0.9509(4) 0.99034(14)
H23_2 H 0.8263 0.9284 0.9793
Ni1_9 Ni 0.6667 0.3333 0.79803(4)
O16_3 O 0.7914(4) 0.4106(4) 0.77324(14)
H13_3 H 0.8004 0.4679 0.7689
H14_3 H 0.7866 0.3799 0.7569
O17_3 O 0.7158(4) 0.4553(4) 0.82367(14)
H15_3 H 0.7383 0.5070 0.8126
H16_3 H 0.7621 0.4615 0.8353
O18_3 O 0.5894(4) 0.3807(6) 0.77324(14)
H17_3 H 0.5321 0.3324 0.7689
H18_3 H 0.6201 0.4066 0.7569
O19_3 O 0.5447(4) 0.2604(6) 0.82367(14)
H19_3 H 0.4930 0.2312 0.8126
H20_3 H 0.5385 0.3005 0.8353
O20_3 O 0.6193(6) 0.2086(4) 0.77324(14)
H21_3 H 0.6676 0.1996 0.7689
H22_3 H 0.5934 0.2134 0.7569
O21_3 O 0.7396(6) 0.2842(4) 0.82367(14)
H23_3 H 0.7688 0.2617 0.8126
H24_3 H 0.6995 0.2379 0.8353
Ni1_10 Ni 0.6667 0.3333 0.29803(4)
O16_4 O 0.6193(6) 0.4106(4) 0.27324(14)
H13_4 H 0.6676 0.4679 0.2689
H14_4 H 0.5934 0.3799 0.2569
O17_4 O 0.7396(6) 0.4553(4) 0.32367(14)
H15_4 H 0.7688 0.5070 0.3126
H16_4 H 0.6995 0.4615 0.3353
O18_4 O 0.7914(7) 0.3807(6) 0.27324(14)
H17_4 H 0.8004 0.3324 0.2689
H18_4 H 0.7866 0.4066 0.2569
O19_4 O 0.7158(7) 0.2604(6) 0.32367(14)
H19_4 H 0.7383 0.2312 0.3126
H20_4 H 0.7621 0.3005 0.3353
O20_4 O 0.5894(7) 0.2086(4) 0.27324(14)
H21_4 H 0.5321 0.1996 0.2689
H22_4 H 0.6201 0.2134 0.2569
O21_4 O 0.5447(7) 0.2842(4) 0.32367(14)
H23_4 H 0.4930 0.2617 0.3126
H24_4 H 0.5385 0.2379 0.3353
Ni1_11 Ni 0.3333 0.6667 0.13137(4)
O16_5 O 0.4580(4) 0.7440(4) 0.10658(14)
H13_5 H 0.4670 0.8013 0.1023
H14_5 H 0.4532 0.7133 0.0903
O17_5 O 0.3824(4) 0.7887(4) 0.15701(14)
H15_5 H 0.4049 0.8404 0.1460
H16_5 H 0.4287 0.7949 0.1687
O18_5 O 0.2560(4) 0.7141(6) 0.10658(14)
H17_5 H 0.1987 0.6658 0.1023
H18_5 H 0.2867 0.7400 0.0903
O19_5 O 0.2113(4) 0.5938(6) 0.15701(14)
H19_5 H 0.1596 0.5646 0.1460
H20_5 H 0.2051 0.6339 0.1687
O20_5 O 0.2859(6) 0.5420(4) 0.10658(14)
H21_5 H 0.3342 0.5330 0.1023
H22_5 H 0.2600 0.5468 0.0903
O21_5 O 0.4062(6) 0.6176(4) 0.15701(14)
H23_5 H 0.4354 0.5951 0.1460
H24_5 H 0.3661 0.5713 0.1687
Ni1_12 Ni 0.3333 0.6667 0.63137(4)
O16_6 O 0.2859(6) 0.7440(4) 0.60658(14)
H13_6 H 0.3342 0.8013 0.6023
H14_6 H 0.2600 0.7133 0.5903
O17_6 O 0.4062(6) 0.7887(4) 0.65701(14)
H15_6 H 0.4354 0.8404 0.6460
H16_6 H 0.3661 0.7949 0.6687
O18_6 O 0.4580(7) 0.7141(6) 0.60658(14)
H17_6 H 0.4670 0.6658 0.6023
H18_6 H 0.4532 0.7400 0.5903
O19_6 O 0.3824(7) 0.5938(6) 0.65701(14)
H19_6 H 0.4049 0.5646 0.6460
H20_6 H 0.4287 0.6339 0.6687
O20_6 O 0.2560(7) 0.5420(4) 0.60658(14)
H21_6 H 0.1987 0.5330 0.6023
H22_6 H 0.2867 0.5468 0.5903
O21_6 O 0.2113(7) 0.6176(4) 0.65701(14)
H23_6 H 0.1596 0.5951 0.6460
H24_6 H 0.2051 0.5713 0.6687
O22 O 0.6667 0.3333 0.5875(2)
O22_2 O 0.6666 0.3333 0.0875(2)
O22_3 O 0.3334 0.6666 0.9208(2)
O22_4 O 0.3333 0.6666 0.4208(2)
O22_5 O 0.0000 -0.0000 0.2542(2)
H27 H 0.0195 0.0124 0.2348
O22_6 O 0.0000 1.0000 0.2542(2)
O22_7 O 1.0000 -0.0000 0.2542(2)
H25 H 0.9876 0.0072 0.2348
O22_8 O 1.0000 1.0000 0.2542(2)
H26 H 0.9928 0.9805 0.2348
H25_2 H 0.0195 0.0072 0.7348
O22_9 O 0.0000 0.0001 0.7542(2)
O22_10 O 0.9999 -0.0000 0.7542(2)
H27_2 H 0.9928 0.0124 0.7348
O22_11 O 0.9999 1.0000 0.7542(2)
H26_2 H 0.9876 0.9805 0.7348
O22_12 O 0.0000 1.0000 0.7542(2)
loop_
_geom_bond_atom_site_label_1
_geom_bond_atom_site_label_2
_geom_bond_site_symmetry_1
_geom_bond_site_symmetry_2
U1 O2 1_555 1_555
O2 C1 1_555 1_555
O5 U1 1_555 1_555
C1 O5 1_555 1_555
O7 U1 1_555 1_555
O8 U1 1_555 1_555
C5 C1 1_555 1_555
H3 C5 1_555 1_555
H4 C5 1_555 1_555
O10 C10 1_555 1_555
N3 C7 1_555 1_555
O11 C8 1_555 1_555
C7 C5 1_555 1_555
H7 C7 1_555 1_555
H8 C7 1_555 1_555
C8 N3 1_555 1_555
O12 U1 1_555 1_555
O13 U1 1_555 1_555
O14 U1 1_555 1_555
O15 U1 1_555 1_555
N3 C10 1_555 1_555
O12 C3 1_555 1_555
O3 C2 1_555 1_555
O14 C3 1_555 1_555
O6 C2 1_555 1_555
C2 C4 1_555 1_555
C3 C6 1_555 1_555
O9 C9 1_555 1_555
C4 H1 1_555 1_555
N1 C9 1_555 1_555
C6 H5 1_555 1_555
H6 C6 1_555 1_555
C9 N2 1_555 1_555
C11 C4 1_555 1_555
H9 C11 1_555 1_555
C12 N1 1_555 1_555
H11 C12 1_555 1_555
H12 C12 1_555 1_555
U3 O3 1_555 1_555
O6 U3 1_555 1_555
N2 C11 1_555 1_555
C6 C12 1_555 1_555
U1_2 O2_2 1_555 1_555
O12_2 C3_2 1_555 1_555
O2_2 C1_2 1_555 1_555
O14_2 C3_2 1_555 1_555
O5_2 U1_2 1_555 1_555
C1_2 O5_2 1_555 1_555
O7_2 U1_2 1_555 1_555
O8_2 U1_2 1_555 1_555
C3_2 C6_2 1_555 1_555
C5_2 C1_2 1_555 1_555
H3_2 C5_2 1_555 1_555
H4_2 C5_2 1_555 1_555
C6_2 H5_2 1_555 1_555
H6_2 C6_2 1_555 1_555
O15_2 U1_2 1_555 1_555
O3_2 C2_2 1_555 1_555
O6_2 C2_2 1_555 1_555
U3_2 O3_2 1_555 1_555
O6_2 U3_2 1_555 1_555
U3 O1 1_555 1_555
U3 O2_3 1_555 1_555
O2_3 C1_3 1_555 1_555
O3_3 C2_3 1_555 1_555
O5_3 U3 1_555 1_555
O6_3 C2_3 1_555 1_555
C1_3 O5_3 1_555 1_555
C2_3 C4_2 1_555 1_555
O7_3 U3 1_555 1_555
O8_3 U3 1_555 1_555
O9_2 C9_2 1_555 1_555
C4_2 H1_3 1_555 1_555
H2_2 C4_2 1_555 1_555
C5_3 C1_3 1_555 1_555
H3_3 C5_3 1_555 1_555
H4_3 C5_3 1_555 1_555
N1_2 C9_2 1_555 1_555
N2_2 C8_2 1_555 1_555
N3_2 C7_2 1_555 1_555
O11_2 C8_2 1_555 1_555
C7_2 C5_3 1_555 1_555
H7_2 C7_2 1_555 1_555
H8_2 C7_2 1_555 1_555
C8_2 N3_2 1_555 1_555
C9_2 N2_2 1_555 1_555
C10_2 N1_2 1_555 1_555
C11_2 C4_2 1_555 1_555
H9_2 C11_2 1_555 1_555
H10_2 C11_2 1_555 1_555
U3_3 O3_3 1_555 1_555
O6_3 U3_3 1_555 1_555
N2_2 C11_2 1_555 1_555
N3_2 C10_2 1_555 1_555
U3_3 O2_4 1_555 1_555
O7_4 U3_3 1_555 1_555
O8_4 U3_3 1_555 1_555
O12_3 U3_3 1_555 1_555
O14_3 U3_3 1_555 1_555
O12_3 C3_3 1_555 1_555
O14_3 C3_3 1_555 1_555
O15_2 C2_4 1_555 1_555
C2_4 C4_3 1_555 1_555
C3_3 C6_3 1_555 1_555
O9_3 C9_3 1_555 1_555
C4_3 H1_4 1_555 1_555
N1_3 C9_3 1_555 1_555
N2_3 C8_3 1_555 1_555
O11_3 C8_3 1_555 1_555
C6_3 H5_3 1_555 1_555
H6_3 C6_3 1_555 1_555
C8_3 N3_3 1_555 1_555
C9_3 N2_3 1_555 1_555
C10_3 N1_3 1_555 1_555
C11_3 C4_3 1_555 1_555
H9_3 C11_3 1_555 1_555
H10_3 C11_3 1_555 1_555
C12_2 N1_3 1_555 1_555
H11_2 C12_2 1_555 1_555
H12_2 C12_2 1_555 1_555
N2_3 C11_3 1_555 1_555
N3_3 C10_3 1_555 1_555
C6_3 C12_2 1_555 1_555
O1_2 C3_4 1_555 1_555
O13 C2_5 1_555 1_555
O4 C3_4 1_555 1_555
O15 C2_5 1_555 1_555
C2_5 C4_4 1_555 1_555
C3_4 C6_4 1_555 1_555
O9_4 C9_4 1_555 1_555
C4_4 H1_5 1_555 1_555
H2_4 C4_4 1_555 1_555
N1_4 C9_4 1_555 1_555
N2_4 C8_4 1_555 1_555
O11_4 C8_4 1_555 1_555
C6_4 H5_4 1_555 1_555
H6_4 C6_4 1_555 1_555
C8_4 N3_4 1_555 1_555
C9_4 N2_4 1_555 1_555
C10_4 N1_4 1_555 1_555
C11_4 C4_4 1_555 1_555
H9_4 C11_4 1_555 1_555
H10_4 C11_4 1_555 1_555
C12_3 N1_4 1_555 1_555
H11_3 C12_3 1_555 1_555
H12_3 C12_3 1_555 1_555
U3_2 O1_2 1_555 1_555
O4 U3_2 1_555 1_555
N2_4 C11_4 1_555 1_555
N3_4 C10_4 1_555 1_555
C6_4 C12_3 1_555 1_555
U3_2 O2_5 1_555 1_555
O7_5 U3_2 1_555 1_555
O8_5 U3_2 1_555 1_555
O1_3 C3_5 1_555 1_555
O3_4 C2_6 1_555 1_555
O4_2 C3_5 1_555 1_555
O6_4 C2_6 1_555 1_555
C2_6 C4_5 1_555 1_555
C3_5 C6_5 1_555 1_555
O9_5 C9_5 1_555 1_555
C4_5 H1_6 1_555 1_555
N1_5 C9_5 1_555 1_555
C6_5 H5_5 1_555 1_555
H6_5 C6_5 1_555 1_555
C9_5 N2_5 1_555 1_555
C11_5 C4_5 1_555 1_555
H9_5 C11_5 1_555 1_555
C12_4 N1_5 1_555 1_555
H11_4 C12_4 1_555 1_555
H12_4 C12_4 1_555 1_555
U3_4 O3_4 1_555 1_555
O6_4 U3_4 1_555 1_555
N2_5 C11_5 1_555 1_555
C6_5 C12_4 1_555 1_555
U3_4 O2_6 1_555 1_555
O2_6 C1_4 1_555 1_555
O4_3 C3_6 1_555 1_555
O5_4 U3_4 1_555 1_555
C1_4 O5_4 1_555 1_555
O7_6 U3_4 1_555 1_555
O8_6 U3_4 1_555 1_555
C3_6 C6_6 1_555 1_555
O9_6 C9_6 1_555 1_555
H2_5 C4_6 1_555 1_555
C5_4 C1_4 1_555 1_555
H3_4 C5_4 1_555 1_555
H4_4 C5_4 1_555 1_555
O10_2 C10_5 1_555 1_555
N1_6 C9_6 1_555 1_555
N2_6 C8_5 1_555 1_555
N3_5 C7_3 1_555 1_555
O11_5 C8_5 1_555 1_555
C6_6 H5_6 1_555 1_555
H6_6 C6_6 1_555 1_555
C7_3 C5_4 1_555 1_555
H7_3 C7_3 1_555 1_555
H8_3 C7_3 1_555 1_555
C8_5 N3_5 1_555 1_555
C9_6 N2_6 1_555 1_555
C10_5 N1_6 1_555 1_555
C11_6 C4_6 1_555 1_555
H9_6 C11_6 1_555 1_555
H10_5 C11_6 1_555 1_555
C12_5 N1_6 1_555 1_555
H11_5 C12_5 1_555 1_555
H12_5 C12_5 1_555 1_555
O12_4 U3_4 1_555 1_555
O14_4 U3_4 1_555 1_555
N2_6 C11_6 1_555 1_555
N3_5 C10_5 1_555 1_555
C6_6 C12_5 1_555 1_555
O12_4 C3_7 1_555 1_555
O14_4 C3_7 1_555 1_555
C3_7 C6_7 1_555 1_555
C6_7 H5_7 1_555 1_555
H6_7 C6_7 1_555 1_555
H11_6 C12_6 1_555 1_555
H12_6 C12_6 1_555 1_555
C6_7 C12_6 1_555 1_555
O14_5 C3_8 1_555 1_555
C3_8 C6_8 1_555 1_555
C6_8 H5_8 1_555 1_555
H6_8 C6_8 1_555 1_555
H11_7 C12_7 1_555 1_555
H12_7 C12_7 1_555 1_555
C6_8 C12_7 1_555 1_555
U2 O2_7 1_555 1_555
O12_5 C3_9 1_555 1_555
O2_7 C1_5 1_555 1_555
O3_5 C2_7 1_555 1_555
O14_6 C3_9 1_555 1_555
O5_5 U2 1_555 1_555
O6_5 C2_7 1_555 1_555
C1_5 O5_5 1_555 1_555
C2_7 C4_7 1_555 1_555
O7_7 U2 1_555 1_555
O8_7 U2 1_555 1_555
C3_9 C6_9 1_555 1_555
O9_7 C9_7 1_555 1_555
C4_7 H1_7 1_555 1_555
H2_7 C4_7 1_555 1_555
C5_5 C1_5 1_555 1_555
H3_5 C5_5 1_555 1_555
H4_5 C5_5 1_555 1_555
O10_5 C10_6 1_555 1_555
N1_7 C9_7 1_555 1_555
N2_7 C8_6 1_555 1_555
N3_6 C7_4 1_555 1_555
O11_6 C8_6 1_555 1_555
C6_9 H5_9 1_555 1_555
H6_9 C6_9 1_555 1_555
C7_4 C5_5 1_555 1_555
H7_4 C7_4 1_555 1_555
H8_4 C7_4 1_555 1_555
C8_6 N3_6 1_555 1_555
C9_7 N2_7 1_555 1_555
C10_6 N1_7 1_555 1_555
C11_7 C4_7 1_555 1_555
H9_7 C11_7 1_555 1_555
H10_6 C11_7 1_555 1_555
C12_8 N1_7 1_555 1_555
H11_8 C12_8 1_555 1_555
H12_8 C12_8 1_555 1_555
U3_5 O3_5 1_555 1_555
O15_3 U2 1_555 1_555
O6_5 U3_5 1_555 1_555
N2_7 C11_7 1_555 1_555
N3_6 C10_6 1_555 1_555
C6_9 C12_8 1_555 1_555
O3_6 C2_8 1_555 1_555
O6_6 C2_8 1_555 1_555
C2_8 C4_8 1_555 1_555
O9_8 C9_8 1_555 1_555
C4_8 H1_8 1_555 1_555
N1_8 C9_8 1_555 1_555
C9_8 N2_8 1_555 1_555
C11_8 C4_8 1_555 1_555
H9_8 C11_8 1_555 1_555
C12_9 N1_8 1_555 1_555
H11_9 C12_9 1_555 1_555
H12_9 C12_9 1_555 1_555
U3_6 O3_6 1_555 1_555
O6_6 U3_6 1_555 1_555
N2_8 C11_8 1_555 1_555
U3_6 O2_8 1_555 1_555
O2_8 C1_6 1_555 1_555
O3_7 C2_9 1_555 1_555
O5_6 U3_6 1_555 1_555
O6_7 C2_9 1_555 1_555
C1_6 O5_6 1_555 1_555
C2_9 C4_9 1_555 1_555
O7_8 U3_6 1_555 1_555
O8_8 U3_6 1_555 1_555
O9_9 C9_9 1_555 1_555
C4_9 H1_9 1_555 1_555
H2_8 C4_9 1_555 1_555
C5_6 C1_6 1_555 1_555
H3_6 C5_6 1_555 1_555
H4_6 C5_6 1_555 1_555
N1_9 C9_9 1_555 1_555
N2_9 C8_7 1_555 1_555
N3_7 C7_5 1_555 1_555
O11_7 C8_7 1_555 1_555
C7_5 C5_6 1_555 1_555
H7_5 C7_5 1_555 1_555
H8_5 C7_5 1_555 1_555
C8_7 N3_7 1_555 1_555
C9_9 N2_9 1_555 1_555
C10_7 N1_9 1_555 1_555
C11_9 C4_9 1_555 1_555
H9_9 C11_9 1_555 1_555
H10_7 C11_9 1_555 1_555
U3_7 O3_7 1_555 1_555
O12_6 U3_6 1_555 1_555
O6_7 U3_7 1_555 1_555
N2_9 C11_9 1_555 1_555
N3_7 C10_7 1_555 1_555
U3_5 O2_9 1_555 1_555
O2_9 C1_7 1_555 1_555
O5_7 U3_5 1_555 1_555
C1_7 O5_7 1_555 1_555
O7_9 U3_5 1_555 1_555
O8_9 U3_5 1_555 1_555
O9_10 C9_10 1_555 1_555
H2_9 C4_10 1_555 1_555
C5_7 C1_7 1_555 1_555
H3_7 C5_7 1_555 1_555
H4_7 C5_7 1_555 1_555
N1_10 C9_10 1_555 1_555
N2_10 C8_8 1_555 1_555
N3_8 C7_6 1_555 1_555
O11_8 C8_8 1_555 1_555
C7_6 C5_7 1_555 1_555
H7_6 C7_6 1_555 1_555
H8_6 C7_6 1_555 1_555
C8_8 N3_8 1_555 1_555
C9_10 N2_10 1_555 1_555
C10_8 N1_10 1_555 1_555
C11_10 C4_10 1_555 1_555
H9_10 C11_10 1_555 1_555
H10_8 C11_10 1_555 1_555
O12_7 U3_5 1_555 1_555
N2_10 C11_10 1_555 1_555
N3_8 C10_8 1_555 1_555
U3_7 O2_10 1_555 1_555
O7_10 U3_7 1_555 1_555
O8_10 U3_7 1_555 1_555
O12_8 U3_7 1_555 1_555
O14_7 U3_7 1_555 1_555
O12_8 C3_10 1_555 1_555
O14_7 C3_10 1_555 1_555
O15_3 C2_10 1_555 1_555
C2_10 C4_11 1_555 1_555
C3_10 C6_10 1_555 1_555
O9_11 C9_11 1_555 1_555
C4_11 H1_10 1_555 1_555
N1_11 C9_11 1_555 1_555
N2_11 C8_9 1_555 1_555
O11_9 C8_9 1_555 1_555
C6_10 H5_10 1_555 1_555
H6_10 C6_10 1_555 1_555
C8_9 N3_9 1_555 1_555
C9_11 N2_11 1_555 1_555
C10_9 N1_11 1_555 1_555
C11_11 C4_11 1_555 1_555
H9_11 C11_11 1_555 1_555
H10_9 C11_11 1_555 1_555
C12_10 N1_11 1_555 1_555
H11_10 C12_10 1_555 1_555
H12_10 C12_10 1_555 1_555
N2_11 C11_11 1_555 1_555
N3_9 C10_9 1_555 1_555
C6_10 C12_10 1_555 1_555
U1_3 O2_11 1_555 1_555
O2_11 C1_8 1_555 1_555
O5_8 U1_3 1_555 1_555
C1_8 O5_8 1_555 1_555
O7_11 U1_3 1_555 1_555
O8_11 U1_3 1_555 1_555
C5_8 C1_8 1_555 1_555
H3_8 C5_8 1_555 1_555
H4_8 C5_8 1_555 1_555
O10_6 C10_10 1_555 1_555
N3_10 C7_7 1_555 1_555
O11_10 C8_10 1_555 1_555
C7_7 C5_8 1_555 1_555
H7_7 C7_7 1_555 1_555
H8_7 C7_7 1_555 1_555
C8_10 N3_10 1_555 1_555
O15_4 U1_3 1_555 1_555
N3_10 C10_10 1_555 1_555
O3_8 C2_11 1_555 1_555
O6_8 C2_11 1_555 1_555
U3_8 O3_8 1_555 1_555
O6_8 U3_8 1_555 1_555
U3_8 O2_12 1_555 1_555
O2_12 C1_9 1_555 1_555
O5_9 U3_8 1_555 1_555
C1_9 O5_9 1_555 1_555
O7_12 U3_8 1_555 1_555
O8_12 U3_8 1_555 1_555
C5_9 C1_9 1_555 1_555
H3_9 C5_9 1_555 1_555
H4_9 C5_9 1_555 1_555
C7_8 C5_9 1_555 1_555
H7_8 C7_8 1_555 1_555
H8_8 C7_8 1_555 1_555
O12_9 U3_8 1_555 1_555
O14_8 U3_8 1_555 1_555
O12_9 C3_11 1_555 1_555
O14_8 C3_11 1_555 1_555
O15_4 C2_12 1_555 1_555
C1_10 O5_10 1_555 1_555
C2_12 C4_12 1_555 1_555
C3_11 C6_11 1_555 1_555
O9_12 C9_12 1_555 1_555
C4_12 H1_12 1_555 1_555
C5_10 C1_10 1_555 1_555
H3_10 C5_10 1_555 1_555
H4_10 C5_10 1_555 1_555
O10_8 C10_11 1_555 1_555
N1_12 C9_12 1_555 1_555
N2_12 C8_11 1_555 1_555
N3_11 C7_9 1_555 1_555
O11_11 C8_11 1_555 1_555
C6_11 H5_11 1_555 1_555
H6_11 C6_11 1_555 1_555
C7_9 C5_10 1_555 1_555
H7_9 C7_9 1_555 1_555
H8_9 C7_9 1_555 1_555
C8_11 N3_11 1_555 1_555
C9_12 N2_12 1_555 1_555
C10_11 N1_12 1_555 1_555
C11_12 C4_12 1_555 1_555
H9_12 C11_12 1_555 1_555
H10_11 C11_12 1_555 1_555
C12_11 N1_12 1_555 1_555
H11_11 C12_11 1_555 1_555
H12_11 C12_11 1_555 1_555
N2_12 C11_12 1_555 1_555
N3_11 C10_11 1_555 1_555
C6_11 C12_11 1_555 1_555
U1_4 O2_13 1_555 1_555
O2_13 C1_11 1_555 1_555
O5_11 U1_4 1_555 1_555
C1_11 O5_11 1_555 1_555
O7_13 U1_4 1_555 1_555
O8_13 U1_4 1_555 1_555
C5_11 C1_11 1_555 1_555
H3_11 C5_11 1_555 1_555
H4_11 C5_11 1_555 1_555
O15_5 U1_4 1_555 1_555
O3_9 C2_13 1_555 1_555
O6_9 C2_13 1_555 1_555
U3_9 O3_9 1_555 1_555
O6_9 U3_9 1_555 1_555
O1_4 C3_12 1_555 1_555
O4_4 C3_12 1_555 1_555
O15_5 C2_14 1_555 1_555
C1_12 O5_12 1_555 1_555
C2_14 C4_13 1_555 1_555
C3_12 C6_12 1_555 1_555
O9_13 C9_13 1_555 1_555
C4_13 H1_14 1_555 1_555
C5_12 C1_12 1_555 1_555
H3_12 C5_12 1_555 1_555
H4_12 C5_12 1_555 1_555
O10_9 C10_12 1_555 1_555
N1_13 C9_13 1_555 1_555
N2_13 C8_12 1_555 1_555
N3_12 C7_10 1_555 1_555
O11_12 C8_12 1_555 1_555
C6_12 H5_12 1_555 1_555
H6_12 C6_12 1_555 1_555
C7_10 C5_12 1_555 1_555
H7_10 C7_10 1_555 1_555
H8_10 C7_10 1_555 1_555
C8_12 N3_12 1_555 1_555
C9_13 N2_13 1_555 1_555
C10_12 N1_13 1_555 1_555
C11_13 C4_13 1_555 1_555
H9_13 C11_13 1_555 1_555
H10_12 C11_13 1_555 1_555
C12_12 N1_13 1_555 1_555
H11_12 C12_12 1_555 1_555
H12_12 C12_12 1_555 1_555
U3_9 O1_4 1_555 1_555
O4_4 U3_9 1_555 1_555
N2_13 C11_13 1_555 1_555
N3_12 C10_12 1_555 1_555
C6_12 C12_12 1_555 1_555
U3_9 O2_14 1_555 1_555
O2_14 C1_13 1_555 1_555
O5_13 U3_9 1_555 1_555
C1_13 O5_13 1_555 1_555
O7_14 U3_9 1_555 1_555
O8_14 U3_9 1_555 1_555
C5_13 C1_13 1_555 1_555
H3_13 C5_13 1_555 1_555
H4_13 C5_13 1_555 1_555
C7_11 C5_13 1_555 1_555
H7_11 C7_11 1_555 1_555
H8_11 C7_11 1_555 1_555
O10_11 C10_13 1_555 1_555
N3_13 C7_12 1_555 1_555
O11_13 C8_13 1_555 1_555
H7_12 C7_12 1_555 1_555
H8_12 C7_12 1_555 1_555
C8_13 N3_13 1_555 1_555
N3_13 C10_13 1_555 1_555
O1_5 C3_13 1_555 1_555
O4_5 C3_13 1_555 1_555
C3_13 C6_13 1_555 1_555
C6_13 H5_13 1_555 1_555
H6_13 C6_13 1_555 1_555
U2_2 O1_5 1_555 1_555
O4_5 U2_2 1_555 1_555
U2_2 O2_15 1_555 1_555
O2_15 C1_14 1_555 1_555
O5_14 U2_2 1_555 1_555
C1_14 O5_14 1_555 1_555
O7_15 U2_2 1_555 1_555
O8_15 U2_2 1_555 1_555
C5_14 C1_14 1_555 1_555
H3_14 C5_14 1_555 1_555
H4_14 C5_14 1_555 1_555
O13_5 U2_2 1_555 1_555
O15_6 U2_2 1_555 1_555
O3_10 C2_15 1_555 1_555
O6_10 C2_15 1_555 1_555
U3_10 O3_10 1_555 1_555
O6_10 U3_10 1_555 1_555
U3_10 O2_16 1_555 1_555
O7_16 U3_10 1_555 1_555
O8_16 U3_10 1_555 1_555
O12_10 U3_10 1_555 1_555
O14_9 U3_10 1_555 1_555
O12_10 C3_14 1_555 1_555
O13_5 C2_16 1_555 1_555
O14_9 C3_14 1_555 1_555
O15_6 C2_16 1_555 1_555
C2_16 C4_14 1_555 1_555
C3_14 C6_14 1_555 1_555
O9_14 C9_14 1_555 1_555
C4_14 H1_16 1_555 1_555
H2_13 C4_14 1_555 1_555
N1_14 C9_14 1_555 1_555
N2_14 C8_14 1_555 1_555
O11_14 C8_14 1_555 1_555
C6_14 H5_14 1_555 1_555
H6_14 C6_14 1_555 1_555
C8_14 N3_14 1_555 1_555
C9_14 N2_14 1_555 1_555
C10_14 N1_14 1_555 1_555
C11_14 C4_14 1_555 1_555
H9_14 C11_14 1_555 1_555
H10_14 C11_14 1_555 1_555
C12_13 N1_14 1_555 1_555
H11_13 C12_13 1_555 1_555
H12_13 C12_13 1_555 1_555
N2_14 C11_14 1_555 1_555
N3_14 C10_14 1_555 1_555
C6_14 C12_13 1_555 1_555
O3_11 C2_17 1_555 1_555
O6_11 C2_17 1_555 1_555
C2_17 C4_15 1_555 1_555
O9_15 C9_15 1_555 1_555
C4_15 H1_17 1_555 1_555
H2_14 C4_15 1_555 1_555
O10_12 C10_15 1_555 1_555
N1_15 C9_15 1_555 1_555
N2_15 C8_15 1_555 1_555
N3_15 C7_13 1_555 1_555
O11_15 C8_15 1_555 1_555
H7_13 C7_13 1_555 1_555
H8_13 C7_13 1_555 1_555
C8_15 N3_15 1_555 1_555
C9_15 N2_15 1_555 1_555
C10_15 N1_15 1_555 1_555
C11_15 C4_15 1_555 1_555
H9_15 C11_15 1_555 1_555
H10_15 C11_15 1_555 1_555
C12_14 N1_15 1_555 1_555
H11_14 C12_14 1_555 1_555
H12_14 C12_14 1_555 1_555
U3_11 O3_11 1_555 1_555
O6_11 U3_11 1_555 1_555
N2_15 C11_15 1_555 1_555
N3_15 C10_15 1_555 1_555
U3_11 O1_6 1_555 1_555
U3_11 O2_17 1_555 1_555
O2_17 C1_15 1_555 1_555
O5_15 U3_11 1_555 1_555
C1_15 O5_15 1_555 1_555
O7_17 U3_11 1_555 1_555
O8_17 U3_11 1_555 1_555
O9_16 C9_16 1_555 1_555
H2_15 C4_16 1_555 1_555
C5_15 C1_15 1_555 1_555
H3_15 C5_15 1_555 1_555
H4_15 C5_15 1_555 1_555
N1_16 C9_16 1_555 1_555
N2_16 C8_16 1_555 1_555
N3_16 C7_14 1_555 1_555
O11_16 C8_16 1_555 1_555
C7_14 C5_15 1_555 1_555
H7_14 C7_14 1_555 1_555
H8_14 C7_14 1_555 1_555
C8_16 N3_16 1_555 1_555
C9_16 N2_16 1_555 1_555
C10_16 N1_16 1_555 1_555
C11_16 C4_16 1_555 1_555
H9_16 C11_16 1_555 1_555
H10_16 C11_16 1_555 1_555
N2_16 C11_16 1_555 1_555
N3_16 C10_16 1_555 1_555
O12_11 C3_15 1_555 1_555
O14_10 C3_15 1_555 1_555
C3_15 C6_15 1_555 1_555
C6_15 H5_15 1_555 1_555
H6_15 C6_15 1_555 1_555
O3_12 C2_18 1_555 1_555
O6_12 C2_18 1_555 1_555
C2_18 C4_17 1_555 1_555
O9_17 C9_17 1_555 1_555
C4_17 H1_18 1_555 1_555
N1_17 C9_17 1_555 1_555
C9_17 N2_17 1_555 1_555
C11_17 C4_17 1_555 1_555
H9_17 C11_17 1_555 1_555
C12_15 N1_17 1_555 1_555
H11_15 C12_15 1_555 1_555
H12_15 C12_15 1_555 1_555
U3_12 O3_12 1_555 1_555
O6_12 U3_12 1_555 1_555
N2_17 C11_17 1_555 1_555
O4_6 C3_16 1_555 1_555
C3_16 C6_16 1_555 1_555
C6_16 H5_16 1_555 1_555
H6_16 C6_16 1_555 1_555
H11_16 C12_16 1_555 1_555
H12_16 C12_16 1_555 1_555
C6_16 C12_16 1_555 1_555
U3_12 O2_18 1_555 1_555
O2_18 C1_16 1_555 1_555
O14_11 C3_17 1_555 1_555
O5_16 U3_12 1_555 1_555
C1_16 O5_16 1_555 1_555
O7_18 U3_12 1_555 1_555
O8_18 U3_12 1_555 1_555
C3_17 C6_17 1_555 1_555
O9_18 C9_18 1_555 1_555
H2_17 C4_18 1_555 1_555
C5_16 C1_16 1_555 1_555
H3_16 C5_16 1_555 1_555
H4_16 C5_16 1_555 1_555
O10_14 C10_17 1_555 1_555
N1_18 C9_18 1_555 1_555
N2_18 C8_17 1_555 1_555
N3_17 C7_15 1_555 1_555
O11_17 C8_17 1_555 1_555
C6_17 H5_17 1_555 1_555
H6_17 C6_17 1_555 1_555
C7_15 C5_16 1_555 1_555
H7_15 C7_15 1_555 1_555
H8_15 C7_15 1_555 1_555
C8_17 N3_17 1_555 1_555
C9_18 N2_18 1_555 1_555
C10_17 N1_18 1_555 1_555
C11_18 C4_18 1_555 1_555
H9_18 C11_18 1_555 1_555
H10_17 C11_18 1_555 1_555
C12_17 N1_18 1_555 1_555
H11_17 C12_17 1_555 1_555
H12_17 C12_17 1_555 1_555
O12_12 U3_12 1_555 1_555
O14_12 U3_12 1_555 1_555
N2_18 C11_18 1_555 1_555
N3_17 C10_17 1_555 1_555
C6_17 C12_17 1_555 1_555
O12_12 C3_18 1_555 1_555
O14_12 C3_18 1_555 1_555
C3_18 C6_18 1_555 1_555
C6_18 H5_18 1_555 1_555
H6_18 C6_18 1_555 1_555
H11_18 C12_18 1_555 1_555
H12_18 C12_18 1_555 1_555
C6_18 C12_18 1_555 1_555
O10_16 C10_18 1_555 1_555
N3_18 C7_16 1_555 1_555
O11_18 C8_18 1_555 1_555
H7_16 C7_16 1_555 1_555
H8_16 C7_16 1_555 1_555
C8_18 N3_18 1_555 1_555
N3_18 C10_18 1_555 1_555
C1_17 O5_17 1_555 1_555
C5_17 C1_17 1_555 1_555
H3_17 C5_17 1_555 1_555
H4_17 C5_17 1_555 1_555
C7_17 C5_17 1_555 1_555
H7_17 C7_17 1_555 1_555
H8_17 C7_17 1_555 1_555
C1_18 O5_18 1_555 1_555
C5_18 C1_18 1_555 1_555
H3_18 C5_18 1_555 1_555
H4_18 C5_18 1_555 1_555
C7_18 C5_18 1_555 1_555
H7_18 C7_18 1_555 1_555
H8_18 C7_18 1_555 1_555
Ni1 O16 1_555 1_555
O16 H13 1_555 1_555
H14 O16 1_555 1_555
O17 Ni1 1_555 1_555
H15 O17 1_555 1_555
H16 O17 1_555 1_555
O21 Ni1_2 1_555 1_555
H23 O21 1_555 1_555
H24 O21 1_555 1_555
O18 Ni1_3 1_555 1_555
H18 O18 1_555 1_555
O19 Ni1_4 1_555 1_555
H19 O19 1_555 1_555
H20 O19 1_555 1_555
O20 Ni1_4 1_555 1_555
H22 O20 1_555 1_555
O17_2 Ni1_5 1_555 1_555
H15_2 O17_2 1_555 1_555
O18_2 Ni1_5 1_555 1_555
H18_2 O18_2 1_555 1_555
O19_2 Ni1_6 1_555 1_555
H19_2 O19_2 1_555 1_555
Ni1_7 O16_2 1_555 1_555
H14_2 O16_2 1_555 1_555
O20_2 Ni1_8 1_555 1_555
H21_2 O20_2 1_555 1_555
H22_2 O20_2 1_555 1_555
O21_2 Ni1_8 1_555 1_555
H23_2 O21_2 1_555 1_555
Ni1_9 O16_3 1_555 1_555
O16_3 H13_3 1_555 1_555
H14_3 O16_3 1_555 1_555
O17_3 Ni1_9 1_555 1_555
H15_3 O17_3 1_555 1_555
H16_3 O17_3 1_555 1_555
O18_3 Ni1_9 1_555 1_555
H17_3 O18_3 1_555 1_555
H18_3 O18_3 1_555 1_555
O19_3 Ni1_9 1_555 1_555
H19_3 O19_3 1_555 1_555
H20_3 O19_3 1_555 1_555
O20_3 Ni1_9 1_555 1_555
H21_3 O20_3 1_555 1_555
H22_3 O20_3 1_555 1_555
O21_3 Ni1_9 1_555 1_555
H23_3 O21_3 1_555 1_555
H24_3 O21_3 1_555 1_555
Ni1_10 O16_4 1_555 1_555
O16_4 H13_4 1_555 1_555
H14_4 O16_4 1_555 1_555
O17_4 Ni1_10 1_555 1_555
H15_4 O17_4 1_555 1_555
H16_4 O17_4 1_555 1_555
O18_4 Ni1_10 1_555 1_555
H17_4 O18_4 1_555 1_555
H18_4 O18_4 1_555 1_555
O19_4 Ni1_10 1_555 1_555
H19_4 O19_4 1_555 1_555
H20_4 O19_4 1_555 1_555
O20_4 Ni1_10 1_555 1_555
H21_4 O20_4 1_555 1_555
H22_4 O20_4 1_555 1_555
O21_4 Ni1_10 1_555 1_555
H23_4 O21_4 1_555 1_555
H24_4 O21_4 1_555 1_555
Ni1_11 O16_5 1_555 1_555
O16_5 H13_5 1_555 1_555
H14_5 O16_5 1_555 1_555
O17_5 Ni1_11 1_555 1_555
H15_5 O17_5 1_555 1_555
H16_5 O17_5 1_555 1_555
O18_5 Ni1_11 1_555 1_555
H17_5 O18_5 1_555 1_555
H18_5 O18_5 1_555 1_555
O19_5 Ni1_11 1_555 1_555
H19_5 O19_5 1_555 1_555
H20_5 O19_5 1_555 1_555
O20_5 Ni1_11 1_555 1_555
H21_5 O20_5 1_555 1_555
H22_5 O20_5 1_555 1_555
O21_5 Ni1_11 1_555 1_555
H23_5 O21_5 1_555 1_555
H24_5 O21_5 1_555 1_555
Ni1_12 O16_6 1_555 1_555
O16_6 H13_6 1_555 1_555
H14_6 O16_6 1_555 1_555
O17_6 Ni1_12 1_555 1_555
H15_6 O17_6 1_555 1_555
H16_6 O17_6 1_555 1_555
O18_6 Ni1_12 1_555 1_555
H17_6 O18_6 1_555 1_555
H18_6 O18_6 1_555 1_555
O19_6 Ni1_12 1_555 1_555
H19_6 O19_6 1_555 1_555
H20_6 O19_6 1_555 1_555
O20_6 Ni1_12 1_555 1_555
H21_6 O20_6 1_555 1_555
H22_6 O20_6 1_555 1_555
O21_6 Ni1_12 1_555 1_555
H23_6 O21_6 1_555 1_555
H24_6 O21_6 1_555 1_555
H27 O22_5 1_555 1_555
O22_7 H25 1_555 1_555
H26 O22_8 1_555 1_555
H25_2 O22_9 1_555 1_555
H27_2 O22_10 1_555 1_555
H26_2 O22_11 1_555 1_555

#END
