
###############################################################################
#
# This file contains modified crystal structure data generated from the
# MOF subset of the Cambridge Structural Database (CSD) v543 
# hosted by the Cambridge Crystallographic Data Centre (CCDC).
#
# This work is licensed under the Creative Commons
# Attribution-NonCommercial-ShareAlike 4.0 International License.
# To view a copy of this license, visit
# http://creativecommons.org/licenses/by-nc-sa/4.0/
# or send a letter to
# Creative Commons, PO Box 1866, Mountain View, CA 94042, USA.
#
# CIF created using the CSD Python API on 29 September 2022
# The structure has been converted into the P1 space group
# The structure has a 3D framework
# The original CSD entry BUPDUM is in the cubic crystal system
# The framework has been calculated to contain at least 10.0% void space
# The void calculation uses a probe of radius 1.32A, grid spacing 0.4
# The framework is charged, counterions have been retained in the structure
#
###############################################################################

data_BUPDUM
_chemical_formula_moiety         '(C384 H576 Cl32 Cu238 N768 O256 S287 28+)n'
_symmetry_cell_setting           triclinic
_symmetry_space_group_name_H-M   'P 1'
_symmetry_Int_Tables_number      1
_space_group_name_Hall           'P 1'
loop_
_symmetry_equiv_pos_site_id
_symmetry_equiv_pos_as_xyz
1 x,y,z
_cell_length_a                   36.577(7)
_cell_length_b                   36.577(7)
_cell_length_c                   36.577(7)
_cell_angle_alpha                90
_cell_angle_beta                 90
_cell_angle_gamma                90
_cell_volume                     48935.5
loop_
_atom_site_label
_atom_site_type_symbol
_atom_site_fract_x
_atom_site_fract_y
_atom_site_fract_z
Cu36 Cu 0.05481(2) 0.04652(2) 0.768750(19)
Cu40 Cu 0.2500 0.0000 0.5000
Cu44 Cu -0.0000 -0.0000 0.7500
Cu45 Cu -0.0000 0.0000 0.2500
S12 S 0.03214(4) 0.04253(4) 0.71144(4)
N40 N 0.08447(13) 0.02502(12) 0.66052(13)
H16 H 0.0853 0.0465 0.6511
H38 H 0.1331 0.0159 0.6103
H60 H 0.2645 0.0068 0.6191
H71 H 0.2619 0.0068 0.6597
C14 C 0.06332(15) 0.01394(14) 0.68903(15)
Cu4 Cu 0.0000 0.7500 0.5000
Cu5 Cu 0.14790(2) 0.64790(2) 0.35210(2)
Cu6 Cu 0.14790(2) 0.85210(2) 0.64790(2)
Cu8 Cu 0.10879(2) 0.66882(2) 0.41401(3)
Cu9 Cu 0.08599(3) 0.83118(2) 0.60879(2)
Cu12 Cu 0.08599(3) 0.60879(2) 0.33118(2)
Cu13 Cu 0.16882(2) 0.89121(2) 0.58599(3)
Cu16 Cu 0.16882(2) 0.58599(3) 0.39121(2)
Cu17 Cu 0.10879(2) 0.91401(3) 0.66882(2)
Cu19 Cu 0.04652(2) 0.731250(19) 0.44519(2)
Cu20 Cu 0.05481(2) 0.768750(19) 0.54652(2)
Cu23 Cu 0.231250(19) 0.55481(2) 0.45348(2)
Cu24 Cu 0.04652(2) 0.94519(2) 0.731250(19)
Cu27 Cu 0.05481(2) 0.54652(2) 0.268750(19)
Cu28 Cu 0.231250(19) 0.95348(2) 0.55481(2)
Cu30 Cu 0.04652(2) 0.55481(2) 0.768750(19)
Cu32 Cu 0.268750(19) 0.94519(2) 0.45348(2)
Cu35 Cu 0.268750(19) 0.45348(2) 0.44519(2)
Cu38 Cu -0.0000 0.5000 0.7500
Cu39 Cu -0.0000 0.5000 0.2500
Cu40_2 Cu 0.2500 1.0000 0.5000
Cu43 Cu 0.2500 0.5000 0.5000
Cu44_2 Cu -0.0000 1.0000 0.7500
Cu45_2 Cu -0.0000 1.0000 0.2500
Cl2 Cl 0.09962(4) 0.59962(4) 0.40038(4)
Cl3 Cl 0.09962(4) 0.90038(4) 0.59962(4)
S3 S 0.03214(4) 0.71144(4) 0.54253(4)
S5 S 0.04253(4) 0.78856(4) 0.46786(4)
S6 S 0.04253(4) 0.53214(4) 0.71144(4)
S8 S 0.21144(4) 0.96786(4) 0.45747(4)
S11 S 0.21144(4) 0.45747(4) 0.46786(4)
S15 S 0.28856(4) 0.53214(4) 0.45747(4)
S16 S 0.04253(4) 0.96786(4) 0.78856(4)
S20 S 0.03214(4) 0.45747(4) 0.78856(4)
S21 S 0.04253(4) 0.46786(4) 0.28856(4)
S22 S 0.03214(4) 0.54253(4) 0.21144(4)
S24 S 0.28856(4) 0.95747(4) 0.53214(4)
S27 S 0.16835(5) 0.68391(4) 0.39894(4)
S28 S 0.10106(4) 0.66835(5) 0.31609(4)
S29 S 0.10106(4) 0.81609(4) 0.66835(5)
S30 S 0.18391(4) 0.83165(5) 0.60106(4)
S34 S 0.18391(4) 0.60106(4) 0.33165(5)
S35 S 0.16835(5) 0.89894(4) 0.68391(4)
N9 N 0.06936(12) 0.69517(13) 0.47902(12)
N10 N 0.02098(12) 0.80483(13) 0.56936(12)
N13 N 0.02098(12) 0.56936(12) 0.30483(13)
N14 N 0.19517(13) 0.93064(12) 0.52098(12)
N17 N 0.19517(13) 0.52098(12) 0.43064(12)
N18 N 0.06936(12) 0.97902(12) 0.69517(13)
N20 N 0.09606(13) 0.66992(14) 0.46696(13)
N21 N 0.03304(13) 0.83008(14) 0.59606(13)
N24 N 0.03304(13) 0.59606(13) 0.33008(14)
N25 N 0.16992(14) 0.90394(13) 0.53304(13)
N28 N 0.16992(14) 0.53304(13) 0.40394(13)
N29 N 0.09606(13) 0.96696(13) 0.66992(14)
N31 N 0.08447(13) 0.66052(13) 0.52502(12)
N33 N 0.02502(12) 0.83948(13) 0.41553(13)
N34 N 0.02502(12) 0.58447(13) 0.66052(13)
N36 N 0.16052(13) 0.91553(13) 0.47498(12)
N39 N 0.16052(13) 0.47498(12) 0.41553(13)
H7 H 0.0853 0.6511 0.5465
H9 H 0.0465 0.8489 0.4147
H10 H 0.0465 0.5853 0.6511
H12 H 0.1511 0.9147 0.4535
H15 H 0.1511 0.4535 0.4147
N42 N 0.12949(17) 0.62237(17) 0.49604(16)
N43 N 0.00396(16) 0.87763(17) 0.62949(17)
N46 N 0.00396(16) 0.62949(17) 0.37763(17)
N47 N 0.12237(17) 0.87051(17) 0.50396(16)
N50 N 0.12237(17) 0.50396(16) 0.37051(17)
N51 N 0.12949(17) 0.99604(16) 0.62237(17)
H18 H 0.1418 0.6172 0.4767
H19 H 0.0233 0.8828 0.6418
H22 H 0.0233 0.6418 0.3828
H23 H 0.1172 0.8582 0.5233
H26 H 0.1172 0.5233 0.3582
H27 H 0.1418 0.9767 0.6172
H29 H 0.1331 0.6103 0.5159
H31 H 0.0159 0.8897 0.3669
H32 H 0.0159 0.6331 0.6103
H34 H 0.1103 0.8669 0.4841
H37 H 0.1103 0.4841 0.3669
N54 N 0.19463(14) 0.61874(13) 0.42648(14)
N55 N 0.07352(14) 0.69463(14) 0.38126(13)
N56 N 0.07352(14) 0.88126(13) 0.69463(14)
N57 N 0.11874(13) 0.80537(14) 0.57352(14)
N61 N 0.11874(13) 0.57352(14) 0.30537(14)
N62 N 0.19463(14) 0.92648(14) 0.61874(13)
N65 N 0.21841(13) 0.60714(12) 0.45389(13)
N66 N 0.04611(13) 0.71841(13) 0.39286(12)
N67 N 0.04611(13) 0.89286(12) 0.71841(13)
N68 N 0.10714(12) 0.78159(13) 0.54611(13)
N72 N 0.10714(12) 0.54611(13) 0.28159(13)
N73 N 0.21841(13) 0.95389(13) 0.60714(12)
N76 N 0.21578(15) 0.66722(13) 0.45469(13)
N77 N 0.04531(13) 0.71578(15) 0.33278(13)
N78 N 0.04531(13) 0.83278(13) 0.71578(15)
N79 N 0.16722(13) 0.78422(15) 0.54531(13)
N83 N 0.16722(13) 0.54531(13) 0.28422(15)
N84 N 0.21578(15) 0.95469(13) 0.66722(13)
H41 H 0.2194 0.6896 0.4609
H42 H 0.0391 0.7194 0.3104
H43 H 0.0391 0.8104 0.7194
H44 H 0.1896 0.7806 0.5391
H48 H 0.1896 0.5391 0.2806
H49 H 0.2194 0.9609 0.6896
N87 N 0.25540(18) 0.63890(16) 0.49800(18)
N88 N 0.00200(18) 0.75540(18) 0.36110(16)
N89 N 0.00200(18) 0.86110(16) 0.75540(18)
N90 N 0.13890(16) 0.74460(18) 0.50200(18)
N94 N 0.13890(16) 0.50200(18) 0.24460(18)
N95 N 0.25540(18) 0.99800(18) 0.63890(16)
H51 H 0.0068 0.7645 0.6191
H52 H 0.2645 0.6191 0.5068
H55 H 0.1191 0.7355 0.4932
H56 H 0.0068 0.8809 0.2355
H59 H 0.1191 0.4932 0.2355
H62 H 0.0068 0.7619 0.6597
H63 H 0.2619 0.6597 0.5068
H66 H 0.1597 0.7381 0.4932
H67 H 0.0068 0.8403 0.2381
H70 H 0.1597 0.4932 0.2381
C5 C 0.06332(15) 0.68903(15) 0.51394(14)
C7 C 0.01394(14) 0.81097(15) 0.43668(15)
C8 C 0.01394(14) 0.56332(15) 0.68903(15)
C10 C 0.18903(15) 0.93668(15) 0.48606(14)
C13 C 0.18903(15) 0.48606(14) 0.43668(15)
C16 C 0.10394(17) 0.64992(17) 0.49522(16)
C17 C 0.00478(16) 0.85008(17) 0.60394(17)
C20 C 0.00478(16) 0.60394(17) 0.35008(17)
C21 C 0.14992(17) 0.89606(17) 0.50478(16)
C24 C 0.14992(17) 0.50478(16) 0.39606(17)
C25 C 0.10394(17) 0.99522(16) 0.64992(17)
C28 C 0.19371(16) 0.65491(15) 0.42726(16)
C29 C 0.07274(16) 0.69371(16) 0.34509(15)
C30 C 0.07274(16) 0.84509(15) 0.69371(16)
C31 C 0.15491(15) 0.80629(16) 0.57274(16)
C35 C 0.15491(15) 0.57274(16) 0.30629(16)
C36 C 0.19371(16) 0.92726(16) 0.65491(15)
C39 C 0.23073(17) 0.63734(17) 0.47000(17)
C40 C 0.03000(17) 0.73073(17) 0.36266(17)
C41 C 0.03000(17) 0.86266(17) 0.73073(17)
C42 C 0.13734(17) 0.76927(17) 0.53000(17)
C46 C 0.13734(17) 0.53000(17) 0.26927(17)
C47 C 0.23073(17) 0.97000(17) 0.63734(17)
Cu37 Cu 0.94519(2) 0.04652(2) 0.231250(19)
Cu41 Cu 0.7500 0.0000 0.5000
Cu44_3 Cu 1.0000 -0.0000 0.7500
Cu45_3 Cu 1.0000 0.0000 0.2500
S13 S 0.96786(4) 0.04253(4) 0.28856(4)
N41 N 0.91553(13) 0.02502(12) 0.33948(13)
H17 H 0.9147 0.0465 0.3489
H39 H 0.8669 0.0159 0.3897
H61 H 0.7355 0.0068 0.3809
H72 H 0.7381 0.0068 0.3403
C15 C 0.93668(15) 0.01394(14) 0.31097(15)
Cu1 Cu 0.85210(2) 0.64790(2) 0.64790(2)
Cu2 Cu 0.89121(2) 0.66882(2) 0.58599(3)
Cu3 Cu 0.95348(2) 0.731250(19) 0.55481(2)
Cu4_2 Cu 1.0000 0.7500 0.5000
Cl1 Cl 0.90038(4) 0.59962(4) 0.59962(4)
S1 S 0.96786(4) 0.71144(4) 0.45747(4)
S2 S 0.83165(5) 0.68391(4) 0.60106(4)
N1 N 0.93064(12) 0.69517(13) 0.52098(12)
N2 N 0.90394(13) 0.66992(14) 0.53304(13)
N3 N 0.91553(13) 0.66052(13) 0.47498(12)
H1 H 0.9147 0.6511 0.4535
N4 N 0.87051(17) 0.62237(17) 0.50396(16)
H2 H 0.8582 0.6172 0.5233
H3 H 0.8669 0.6103 0.4841
N5 N 0.80537(14) 0.61874(13) 0.57352(14)
N6 N 0.78159(13) 0.60714(12) 0.54611(13)
N7 N 0.78422(15) 0.66722(13) 0.54531(13)
H4 H 0.7806 0.6896 0.5391
N8 N 0.74460(18) 0.63890(16) 0.50200(18)
H5 H 0.7355 0.6191 0.4932
H6 H 0.7381 0.6597 0.4932
C1 C 0.93668(15) 0.68903(15) 0.48606(14)
C2 C 0.89606(17) 0.64992(17) 0.50478(16)
C3 C 0.80629(16) 0.65491(15) 0.57274(16)
C4 C 0.76927(17) 0.63734(17) 0.53000(17)
Cu7 Cu 0.85210(2) 0.85210(2) 0.35210(2)
Cu10 Cu 0.91401(3) 0.83118(2) 0.39121(2)
Cu11 Cu 0.91401(3) 0.60879(2) 0.66882(2)
Cu14 Cu 0.83118(2) 0.89121(2) 0.41401(3)
Cu15 Cu 0.83118(2) 0.58599(3) 0.60879(2)
Cu18 Cu 0.89121(2) 0.91401(3) 0.33118(2)
Cu21 Cu 0.94519(2) 0.768750(19) 0.45348(2)
Cu22 Cu 0.768750(19) 0.55481(2) 0.54652(2)
Cu25 Cu 0.95348(2) 0.94519(2) 0.268750(19)
Cu26 Cu 0.94519(2) 0.54652(2) 0.731250(19)
Cu29 Cu 0.768750(19) 0.95348(2) 0.44519(2)
Cu31 Cu 0.95348(2) 0.55481(2) 0.231250(19)
Cu33 Cu 0.731250(19) 0.94519(2) 0.54652(2)
Cu34 Cu 0.731250(19) 0.45348(2) 0.55481(2)
Cu38_2 Cu 1.0000 0.5000 0.7500
Cu39_2 Cu 1.0000 0.5000 0.2500
Cu41_2 Cu 0.7500 1.0000 0.5000
Cu42 Cu 0.7500 0.5000 0.5000
Cu44_4 Cu 1.0000 1.0000 0.7500
Cu45_4 Cu 1.0000 1.0000 0.2500
Cl4 Cl 0.90038(4) 0.90038(4) 0.40038(4)
S4 S 0.95747(4) 0.78856(4) 0.53214(4)
S7 S 0.95747(4) 0.53214(4) 0.28856(4)
S9 S 0.78856(4) 0.96786(4) 0.54253(4)
S10 S 0.78856(4) 0.45747(4) 0.53214(4)
S14 S 0.71144(4) 0.53214(4) 0.54253(4)
S17 S 0.95747(4) 0.96786(4) 0.21144(4)
S18 S 0.95747(4) 0.46786(4) 0.71144(4)
S19 S 0.96786(4) 0.54253(4) 0.78856(4)
S23 S 0.96786(4) 0.45747(4) 0.21144(4)
S25 S 0.71144(4) 0.95747(4) 0.46786(4)
S26 S 0.89894(4) 0.66835(5) 0.68391(4)
S31 S 0.89894(4) 0.81609(4) 0.33165(5)
S32 S 0.81609(4) 0.83165(5) 0.39894(4)
S33 S 0.81609(4) 0.60106(4) 0.66835(5)
S36 S 0.83165(5) 0.89894(4) 0.31609(4)
N11 N 0.97902(12) 0.80483(13) 0.43064(12)
N12 N 0.97902(12) 0.56936(12) 0.69517(13)
N15 N 0.80483(13) 0.93064(12) 0.47902(12)
N16 N 0.80483(13) 0.52098(12) 0.56936(12)
N19 N 0.93064(12) 0.97902(12) 0.30483(13)
N22 N 0.96696(13) 0.83008(14) 0.40394(13)
N23 N 0.96696(13) 0.59606(13) 0.66992(14)
N26 N 0.83008(14) 0.90394(13) 0.46696(13)
N27 N 0.83008(14) 0.53304(13) 0.59606(13)
N30 N 0.90394(13) 0.96696(13) 0.33008(14)
N32 N 0.97498(12) 0.83948(13) 0.58447(13)
N35 N 0.97498(12) 0.58447(13) 0.33948(13)
N37 N 0.83948(13) 0.91553(13) 0.52502(12)
N38 N 0.83948(13) 0.47498(12) 0.58447(13)
H8 H 0.9535 0.8489 0.5853
H11 H 0.9535 0.5853 0.3489
H13 H 0.8489 0.9147 0.5465
H14 H 0.8489 0.4535 0.5853
N44 N 0.99604(16) 0.87763(17) 0.37051(17)
N45 N 0.99604(16) 0.62949(17) 0.62237(17)
N48 N 0.87763(17) 0.87051(17) 0.49604(16)
N49 N 0.87763(17) 0.50396(16) 0.62949(17)
N52 N 0.87051(17) 0.99604(16) 0.37763(17)
H20 H 0.9767 0.8828 0.3582
H21 H 0.9767 0.6418 0.6172
H24 H 0.8828 0.8582 0.4767
H25 H 0.8828 0.5233 0.6418
H28 H 0.8582 0.9767 0.3828
H30 H 0.9841 0.8897 0.6331
H33 H 0.9841 0.6331 0.3897
H35 H 0.8897 0.8669 0.5159
H36 H 0.8897 0.4841 0.6331
N53 N 0.92648(14) 0.69463(14) 0.61874(13)
N58 N 0.92648(14) 0.88126(13) 0.30537(14)
N59 N 0.88126(13) 0.80537(14) 0.42648(14)
N60 N 0.88126(13) 0.57352(14) 0.69463(14)
N63 N 0.80537(14) 0.92648(14) 0.38126(13)
N64 N 0.95389(13) 0.71841(13) 0.60714(12)
N69 N 0.95389(13) 0.89286(12) 0.28159(13)
N70 N 0.89286(12) 0.78159(13) 0.45389(13)
N71 N 0.89286(12) 0.54611(13) 0.71841(13)
N74 N 0.78159(13) 0.95389(13) 0.39286(12)
N75 N 0.95469(13) 0.71578(15) 0.66722(13)
N80 N 0.95469(13) 0.83278(13) 0.28422(15)
N81 N 0.83278(13) 0.78422(15) 0.45469(13)
N82 N 0.83278(13) 0.54531(13) 0.71578(15)
N85 N 0.78422(15) 0.95469(13) 0.33278(13)
H40 H 0.9609 0.7194 0.6896
H45 H 0.9609 0.8104 0.2806
H46 H 0.8104 0.7806 0.4609
H47 H 0.8104 0.5391 0.7194
H50 H 0.7806 0.9609 0.3104
N86 N 0.99800(18) 0.75540(18) 0.63890(16)
N91 N 0.99800(18) 0.86110(16) 0.24460(18)
N92 N 0.86110(16) 0.74460(18) 0.49800(18)
N93 N 0.86110(16) 0.50200(18) 0.75540(18)
N96 N 0.74460(18) 0.99800(18) 0.36110(16)
H53 H 0.9932 0.7645 0.3809
H54 H 0.9932 0.8809 0.7645
H57 H 0.8809 0.7355 0.5068
H58 H 0.8809 0.4932 0.7645
H64 H 0.9932 0.7619 0.3403
H65 H 0.9932 0.8403 0.7619
H68 H 0.8403 0.7381 0.5068
H69 H 0.8403 0.4932 0.7619
C6 C 0.98606(14) 0.81097(15) 0.56332(15)
C9 C 0.98606(14) 0.56332(15) 0.31097(15)
C11 C 0.81097(15) 0.93668(15) 0.51394(14)
C12 C 0.81097(15) 0.48606(14) 0.56332(15)
C18 C 0.99522(16) 0.85008(17) 0.39606(17)
C19 C 0.99522(16) 0.60394(17) 0.64992(17)
C22 C 0.85008(17) 0.89606(17) 0.49522(16)
C23 C 0.85008(17) 0.50478(16) 0.60394(17)
C26 C 0.89606(17) 0.99522(16) 0.35008(17)
C27 C 0.92726(16) 0.69371(16) 0.65491(15)
C32 C 0.92726(16) 0.84509(15) 0.30629(16)
C33 C 0.84509(15) 0.80629(16) 0.42726(16)
C34 C 0.84509(15) 0.57274(16) 0.69371(16)
C37 C 0.80629(16) 0.92726(16) 0.34509(15)
C38 C 0.97000(17) 0.73073(17) 0.63734(17)
C43 C 0.97000(17) 0.86266(17) 0.26927(17)
C44 C 0.86266(17) 0.76927(17) 0.47000(17)
C45 C 0.86266(17) 0.53000(17) 0.73073(17)
C48 C 0.76927(17) 0.97000(17) 0.36266(17)
Cu1_2 Cu 0.14790(2) 0.35210(2) 0.64790(2)
Cu2_2 Cu 0.10879(2) 0.33118(2) 0.58599(3)
Cu3_2 Cu 0.04652(2) 0.268750(19) 0.55481(2)
Cu4_3 Cu -0.0000 0.2500 0.5000
Cl1_2 Cl 0.09962(4) 0.40038(4) 0.59962(4)
S1_2 S 0.03214(4) 0.28856(4) 0.45747(4)
S2_2 S 0.16835(5) 0.31609(4) 0.60106(4)
N1_2 N 0.06936(12) 0.30483(13) 0.52098(12)
N2_2 N 0.09606(13) 0.33008(14) 0.53304(13)
N3_2 N 0.08447(13) 0.33948(13) 0.47498(12)
H1_2 H 0.0853 0.3489 0.4535
N4_2 N 0.12949(17) 0.37763(17) 0.50396(16)
H2_2 H 0.1418 0.3828 0.5233
H3_2 H 0.1331 0.3897 0.4841
N5_2 N 0.19463(14) 0.38126(13) 0.57352(14)
N6_2 N 0.21841(13) 0.39286(12) 0.54611(13)
N7_2 N 0.21578(15) 0.33278(13) 0.54531(13)
H4_2 H 0.2194 0.3104 0.5391
N8_2 N 0.25540(18) 0.36110(16) 0.50200(18)
H5_2 H 0.2645 0.3809 0.4932
H6_2 H 0.2619 0.3403 0.4932
C1_2 C 0.06332(15) 0.31097(15) 0.48606(14)
C2_2 C 0.10394(17) 0.35008(17) 0.50478(16)
C3_2 C 0.19371(16) 0.34509(15) 0.57274(16)
C4_2 C 0.23073(17) 0.36266(17) 0.53000(17)
Cu7_2 Cu 0.14790(2) 0.14790(2) 0.35210(2)
Cu10_2 Cu 0.08599(3) 0.16882(2) 0.39121(2)
Cu11_2 Cu 0.08599(3) 0.39121(2) 0.66882(2)
Cu14_2 Cu 0.16882(2) 0.10879(2) 0.41401(3)
Cu15_2 Cu 0.16882(2) 0.41401(3) 0.60879(2)
Cu18_2 Cu 0.10879(2) 0.08599(3) 0.33118(2)
Cu21_2 Cu 0.05481(2) 0.231250(19) 0.45348(2)
Cu22_2 Cu 0.231250(19) 0.44519(2) 0.54652(2)
Cu25_2 Cu 0.04652(2) 0.05481(2) 0.268750(19)
Cu26_2 Cu 0.05481(2) 0.45348(2) 0.731250(19)
Cu29_2 Cu 0.231250(19) 0.04652(2) 0.44519(2)
Cu31_2 Cu 0.04652(2) 0.44519(2) 0.231250(19)
Cu33_2 Cu 0.268750(19) 0.05481(2) 0.54652(2)
Cu34_2 Cu 0.268750(19) 0.54652(2) 0.55481(2)
Cl4_2 Cl 0.09962(4) 0.09962(4) 0.40038(4)
S4_2 S 0.04253(4) 0.21144(4) 0.53214(4)
S9_2 S 0.21144(4) 0.03214(4) 0.54253(4)
S10_2 S 0.21144(4) 0.54253(4) 0.53214(4)
S14_2 S 0.28856(4) 0.46786(4) 0.54253(4)
S17_2 S 0.04253(4) 0.03214(4) 0.21144(4)
S25_2 S 0.28856(4) 0.04253(4) 0.46786(4)
S26_2 S 0.10106(4) 0.33165(5) 0.68391(4)
S31_2 S 0.10106(4) 0.18391(4) 0.33165(5)
S32_2 S 0.18391(4) 0.16835(5) 0.39894(4)
S33_2 S 0.18391(4) 0.39894(4) 0.66835(5)
S36_2 S 0.16835(5) 0.10106(4) 0.31609(4)
N11_2 N 0.02098(12) 0.19517(13) 0.43064(12)
N12_2 N 0.02098(12) 0.43064(12) 0.69517(13)
N15_2 N 0.19517(13) 0.06936(12) 0.47902(12)
N16_2 N 0.19517(13) 0.47902(12) 0.56936(12)
N19_2 N 0.06936(12) 0.02098(12) 0.30483(13)
N22_2 N 0.03304(13) 0.16992(14) 0.40394(13)
N23_2 N 0.03304(13) 0.40394(13) 0.66992(14)
N26_2 N 0.16992(14) 0.09606(13) 0.46696(13)
N27_2 N 0.16992(14) 0.46696(13) 0.59606(13)
N30_2 N 0.09606(13) 0.03304(13) 0.33008(14)
N32_2 N 0.02502(12) 0.16052(13) 0.58447(13)
N35_2 N 0.02502(12) 0.41553(13) 0.33948(13)
N37_2 N 0.16052(13) 0.08447(13) 0.52502(12)
N38_2 N 0.16052(13) 0.52502(12) 0.58447(13)
H8_2 H 0.0465 0.1511 0.5853
H11_2 H 0.0465 0.4147 0.3489
H13_2 H 0.1511 0.0853 0.5465
H14_2 H 0.1511 0.5465 0.5853
N44_2 N 0.00396(16) 0.12237(17) 0.37051(17)
N45_2 N 0.00396(16) 0.37051(17) 0.62237(17)
N48_2 N 0.12237(17) 0.12949(17) 0.49604(16)
N49_2 N 0.12237(17) 0.49604(16) 0.62949(17)
N52_2 N 0.12949(17) 0.00396(16) 0.37763(17)
H20_2 H 0.0233 0.1172 0.3582
H21_2 H 0.0233 0.3582 0.6172
H24_2 H 0.1172 0.1418 0.4767
H25_2 H 0.1172 0.4767 0.6418
H28_2 H 0.1418 0.0233 0.3828
H30_2 H 0.0159 0.1103 0.6331
H33_2 H 0.0159 0.3669 0.3897
H35_2 H 0.1103 0.1331 0.5159
H36_2 H 0.1103 0.5159 0.6331
N53_2 N 0.07352(14) 0.30537(14) 0.61874(13)
N58_2 N 0.07352(14) 0.11874(13) 0.30537(14)
N59_2 N 0.11874(13) 0.19463(14) 0.42648(14)
N60_2 N 0.11874(13) 0.42648(14) 0.69463(14)
N63_2 N 0.19463(14) 0.07352(14) 0.38126(13)
N64_2 N 0.04611(13) 0.28159(13) 0.60714(12)
N69_2 N 0.04611(13) 0.10714(12) 0.28159(13)
N70_2 N 0.10714(12) 0.21841(13) 0.45389(13)
N71_2 N 0.10714(12) 0.45389(13) 0.71841(13)
N74_2 N 0.21841(13) 0.04611(13) 0.39286(12)
N75_2 N 0.04531(13) 0.28422(15) 0.66722(13)
N80_2 N 0.04531(13) 0.16722(13) 0.28422(15)
N81_2 N 0.16722(13) 0.21578(15) 0.45469(13)
N82_2 N 0.16722(13) 0.45469(13) 0.71578(15)
N85_2 N 0.21578(15) 0.04531(13) 0.33278(13)
H40_2 H 0.0391 0.2806 0.6896
H45_2 H 0.0391 0.1896 0.2806
H46_2 H 0.1896 0.2194 0.4609
H47_2 H 0.1896 0.4609 0.7194
H50_2 H 0.2194 0.0391 0.3104
N86_2 N 0.00200(18) 0.24460(18) 0.63890(16)
N91_2 N 0.00200(18) 0.13890(16) 0.24460(18)
N92_2 N 0.13890(16) 0.25540(18) 0.49800(18)
N93_2 N 0.13890(16) 0.49800(18) 0.75540(18)
N96_2 N 0.25540(18) 0.00200(18) 0.36110(16)
H53_2 H 0.0068 0.2355 0.3809
H54_2 H 0.0068 0.1191 0.7645
H57_2 H 0.1191 0.2645 0.5068
H58_2 H 0.1191 0.5068 0.7645
H64_2 H 0.0068 0.2381 0.3403
H65_2 H 0.0068 0.1597 0.7619
H68_2 H 0.1597 0.2619 0.5068
H69_2 H 0.1597 0.5068 0.7619
C6_2 C 0.01394(14) 0.18903(15) 0.56332(15)
C9_2 C 0.01394(14) 0.43668(15) 0.31097(15)
C11_2 C 0.18903(15) 0.06332(15) 0.51394(14)
C12_2 C 0.18903(15) 0.51394(14) 0.56332(15)
C18_2 C 0.00478(16) 0.14992(17) 0.39606(17)
C19_2 C 0.00478(16) 0.39606(17) 0.64992(17)
C22_2 C 0.14992(17) 0.10394(17) 0.49522(16)
C23_2 C 0.14992(17) 0.49522(16) 0.60394(17)
C26_2 C 0.10394(17) 0.00478(16) 0.35008(17)
C27_2 C 0.07274(16) 0.30629(16) 0.65491(15)
C32_2 C 0.07274(16) 0.15491(15) 0.30629(16)
C33_2 C 0.15491(15) 0.19371(16) 0.42726(16)
C34_2 C 0.15491(15) 0.42726(16) 0.69371(16)
C37_2 C 0.19371(16) 0.07274(16) 0.34509(15)
C38_2 C 0.03000(17) 0.26927(17) 0.63734(17)
C43_2 C 0.03000(17) 0.13734(17) 0.26927(17)
C44_2 C 0.13734(17) 0.23073(17) 0.47000(17)
C45_2 C 0.13734(17) 0.47000(17) 0.73073(17)
C48_2 C 0.23073(17) 0.03000(17) 0.36266(17)
Cu37_2 Cu 0.05481(2) 0.95348(2) 0.231250(19)
S13_2 S 0.03214(4) 0.95747(4) 0.28856(4)
N41_2 N 0.08447(13) 0.97498(12) 0.33948(13)
H17_2 H 0.0853 0.9535 0.3489
H39_2 H 0.1331 0.9841 0.3897
H61_2 H 0.2645 0.9932 0.3809
H72_2 H 0.2619 0.9932 0.3403
C15_2 C 0.06332(15) 0.98606(14) 0.31097(15)
Cu4_4 Cu 1.0000 0.2500 0.5000
Cu5_2 Cu 0.85210(2) 0.35210(2) 0.35210(2)
Cu6_2 Cu 0.85210(2) 0.14790(2) 0.64790(2)
Cu8_2 Cu 0.89121(2) 0.33118(2) 0.41401(3)
Cu9_2 Cu 0.91401(3) 0.16882(2) 0.60879(2)
Cu12_2 Cu 0.91401(3) 0.39121(2) 0.33118(2)
Cu13_2 Cu 0.83118(2) 0.10879(2) 0.58599(3)
Cu16_2 Cu 0.83118(2) 0.41401(3) 0.39121(2)
Cu17_2 Cu 0.89121(2) 0.08599(3) 0.66882(2)
Cu19_2 Cu 0.95348(2) 0.268750(19) 0.44519(2)
Cu20_2 Cu 0.94519(2) 0.231250(19) 0.54652(2)
Cu23_2 Cu 0.768750(19) 0.44519(2) 0.45348(2)
Cu24_2 Cu 0.95348(2) 0.05481(2) 0.731250(19)
Cu27_2 Cu 0.94519(2) 0.45348(2) 0.268750(19)
Cu28_2 Cu 0.768750(19) 0.04652(2) 0.55481(2)
Cu30_2 Cu 0.95348(2) 0.44519(2) 0.768750(19)
Cu32_2 Cu 0.731250(19) 0.05481(2) 0.45348(2)
Cu35_2 Cu 0.731250(19) 0.54652(2) 0.44519(2)
Cl2_2 Cl 0.90038(4) 0.40038(4) 0.40038(4)
Cl3_2 Cl 0.90038(4) 0.09962(4) 0.59962(4)
S3_2 S 0.96786(4) 0.28856(4) 0.54253(4)
S5_2 S 0.95747(4) 0.21144(4) 0.46786(4)
S8_2 S 0.78856(4) 0.03214(4) 0.45747(4)
S11_2 S 0.78856(4) 0.54253(4) 0.46786(4)
S15_2 S 0.71144(4) 0.46786(4) 0.45747(4)
S16_2 S 0.95747(4) 0.03214(4) 0.78856(4)
S24_2 S 0.71144(4) 0.04253(4) 0.53214(4)
S27_2 S 0.83165(5) 0.31609(4) 0.39894(4)
S28_2 S 0.89894(4) 0.33165(5) 0.31609(4)
S29_2 S 0.89894(4) 0.18391(4) 0.66835(5)
S30_2 S 0.81609(4) 0.16835(5) 0.60106(4)
S34_2 S 0.81609(4) 0.39894(4) 0.33165(5)
S35_2 S 0.83165(5) 0.10106(4) 0.68391(4)
N9_2 N 0.93064(12) 0.30483(13) 0.47902(12)
N10_2 N 0.97902(12) 0.19517(13) 0.56936(12)
N13_2 N 0.97902(12) 0.43064(12) 0.30483(13)
N14_2 N 0.80483(13) 0.06936(12) 0.52098(12)
N17_2 N 0.80483(13) 0.47902(12) 0.43064(12)
N18_2 N 0.93064(12) 0.02098(12) 0.69517(13)
N20_2 N 0.90394(13) 0.33008(14) 0.46696(13)
N21_2 N 0.96696(13) 0.16992(14) 0.59606(13)
N24_2 N 0.96696(13) 0.40394(13) 0.33008(14)
N25_2 N 0.83008(14) 0.09606(13) 0.53304(13)
N28_2 N 0.83008(14) 0.46696(13) 0.40394(13)
N29_2 N 0.90394(13) 0.03304(13) 0.66992(14)
N31_2 N 0.91553(13) 0.33948(13) 0.52502(12)
N33_2 N 0.97498(12) 0.16052(13) 0.41553(13)
N34_2 N 0.97498(12) 0.41553(13) 0.66052(13)
N36_2 N 0.83948(13) 0.08447(13) 0.47498(12)
N39_2 N 0.83948(13) 0.52502(12) 0.41553(13)
H7_2 H 0.9147 0.3489 0.5465
H9_2 H 0.9535 0.1511 0.4147
H10_2 H 0.9535 0.4147 0.6511
H12_2 H 0.8489 0.0853 0.4535
H15_2 H 0.8489 0.5465 0.4147
N42_2 N 0.87051(17) 0.37763(17) 0.49604(16)
N43_2 N 0.99604(16) 0.12237(17) 0.62949(17)
N46_2 N 0.99604(16) 0.37051(17) 0.37763(17)
N47_2 N 0.87763(17) 0.12949(17) 0.50396(16)
N50_2 N 0.87763(17) 0.49604(16) 0.37051(17)
N51_2 N 0.87051(17) 0.00396(16) 0.62237(17)
H18_2 H 0.8582 0.3828 0.4767
H19_2 H 0.9767 0.1172 0.6418
H22_2 H 0.9767 0.3582 0.3828
H23_2 H 0.8828 0.1418 0.5233
H26_2 H 0.8828 0.4767 0.3582
H27_2 H 0.8582 0.0233 0.6172
H29_2 H 0.8669 0.3897 0.5159
H31_2 H 0.9841 0.1103 0.3669
H32_2 H 0.9841 0.3669 0.6103
H34_2 H 0.8897 0.1331 0.4841
H37_2 H 0.8897 0.5159 0.3669
N54_2 N 0.80537(14) 0.38126(13) 0.42648(14)
N55_2 N 0.92648(14) 0.30537(14) 0.38126(13)
N56_2 N 0.92648(14) 0.11874(13) 0.69463(14)
N57_2 N 0.88126(13) 0.19463(14) 0.57352(14)
N61_2 N 0.88126(13) 0.42648(14) 0.30537(14)
N62_2 N 0.80537(14) 0.07352(14) 0.61874(13)
N65_2 N 0.78159(13) 0.39286(12) 0.45389(13)
N66_2 N 0.95389(13) 0.28159(13) 0.39286(12)
N67_2 N 0.95389(13) 0.10714(12) 0.71841(13)
N68_2 N 0.89286(12) 0.21841(13) 0.54611(13)
N72_2 N 0.89286(12) 0.45389(13) 0.28159(13)
N73_2 N 0.78159(13) 0.04611(13) 0.60714(12)
N76_2 N 0.78422(15) 0.33278(13) 0.45469(13)
N77_2 N 0.95469(13) 0.28422(15) 0.33278(13)
N78_2 N 0.95469(13) 0.16722(13) 0.71578(15)
N79_2 N 0.83278(13) 0.21578(15) 0.54531(13)
N83_2 N 0.83278(13) 0.45469(13) 0.28422(15)
N84_2 N 0.78422(15) 0.04531(13) 0.66722(13)
H41_2 H 0.7806 0.3104 0.4609
H42_2 H 0.9609 0.2806 0.3104
H43_2 H 0.9609 0.1896 0.7194
H44_2 H 0.8104 0.2194 0.5391
H48_2 H 0.8104 0.4609 0.2806
H49_2 H 0.7806 0.0391 0.6896
N87_2 N 0.74460(18) 0.36110(16) 0.49800(18)
N88_2 N 0.99800(18) 0.24460(18) 0.36110(16)
N89_2 N 0.99800(18) 0.13890(16) 0.75540(18)
N90_2 N 0.86110(16) 0.25540(18) 0.50200(18)
N94_2 N 0.86110(16) 0.49800(18) 0.24460(18)
N95_2 N 0.74460(18) 0.00200(18) 0.63890(16)
H51_2 H 0.9932 0.2355 0.6191
H52_2 H 0.7355 0.3809 0.5068
H55_2 H 0.8809 0.2645 0.4932
H56_2 H 0.9932 0.1191 0.2355
H59_2 H 0.8809 0.5068 0.2355
H62_2 H 0.9932 0.2381 0.6597
H63_2 H 0.7381 0.3403 0.5068
H66_2 H 0.8403 0.2619 0.4932
H67_2 H 0.9932 0.1597 0.2381
H70_2 H 0.8403 0.5068 0.2381
C5_2 C 0.93668(15) 0.31097(15) 0.51394(14)
C7_2 C 0.98606(14) 0.18903(15) 0.43668(15)
C8_2 C 0.98606(14) 0.43668(15) 0.68903(15)
C10_2 C 0.81097(15) 0.06332(15) 0.48606(14)
C13_2 C 0.81097(15) 0.51394(14) 0.43668(15)
C16_2 C 0.89606(17) 0.35008(17) 0.49522(16)
C17_2 C 0.99522(16) 0.14992(17) 0.60394(17)
C20_2 C 0.99522(16) 0.39606(17) 0.35008(17)
C21_2 C 0.85008(17) 0.10394(17) 0.50478(16)
C24_2 C 0.85008(17) 0.49522(16) 0.39606(17)
C25_2 C 0.89606(17) 0.00478(16) 0.64992(17)
C28_2 C 0.80629(16) 0.34509(15) 0.42726(16)
C29_2 C 0.92726(16) 0.30629(16) 0.34509(15)
C30_2 C 0.92726(16) 0.15491(15) 0.69371(16)
C31_2 C 0.84509(15) 0.19371(16) 0.57274(16)
C35_2 C 0.84509(15) 0.42726(16) 0.30629(16)
C36_2 C 0.80629(16) 0.07274(16) 0.65491(15)
C39_2 C 0.76927(17) 0.36266(17) 0.47000(17)
C40_2 C 0.97000(17) 0.26927(17) 0.36266(17)
C41_2 C 0.97000(17) 0.13734(17) 0.73073(17)
C42_2 C 0.86266(17) 0.23073(17) 0.53000(17)
C46_2 C 0.86266(17) 0.47000(17) 0.26927(17)
C47_2 C 0.76927(17) 0.03000(17) 0.63734(17)
Cu36_2 Cu 0.94519(2) 0.95348(2) 0.768750(19)
S12_2 S 0.96786(4) 0.95747(4) 0.71144(4)
N40_2 N 0.91553(13) 0.97498(12) 0.66052(13)
H16_2 H 0.9147 0.9535 0.6511
H38_2 H 0.8669 0.9841 0.6103
H60_2 H 0.7355 0.9932 0.6191
H71_2 H 0.7381 0.9932 0.6597
C14_2 C 0.93668(15) 0.98606(14) 0.68903(15)
Cu36_3 Cu 0.768750(19) 0.05481(2) 0.04652(2)
Cu40_3 Cu 0.5000 0.2500 0.0000
Cu44_5 Cu 0.7500 -0.0000 0.0000
Cu45_5 Cu 0.2500 -0.0000 0.0000
S12_3 S 0.71144(4) 0.03214(4) 0.04253(4)
N40_3 N 0.66052(13) 0.08447(13) 0.02502(12)
H16_3 H 0.6511 0.0853 0.0465
H38_3 H 0.6103 0.1331 0.0159
H60_3 H 0.6191 0.2645 0.0068
H71_3 H 0.6597 0.2619 0.0068
C14_3 C 0.68903(15) 0.06332(15) 0.01394(14)
Cu4_5 Cu 0.5000 -0.0000 0.7500
Cu5_3 Cu 0.35210(2) 0.14790(2) 0.64790(2)
Cu6_3 Cu 0.64790(2) 0.14790(2) 0.85210(2)
Cu8_3 Cu 0.41401(3) 0.10879(2) 0.66882(2)
Cu9_3 Cu 0.60879(2) 0.08599(3) 0.83118(2)
Cu12_3 Cu 0.33118(2) 0.08599(3) 0.60879(2)
Cu13_3 Cu 0.58599(3) 0.16882(2) 0.89121(2)
Cu16_3 Cu 0.39121(2) 0.16882(2) 0.58599(3)
Cu17_3 Cu 0.66882(2) 0.10879(2) 0.91401(3)
Cu19_3 Cu 0.44519(2) 0.04652(2) 0.731250(19)
Cu20_3 Cu 0.54652(2) 0.05481(2) 0.768750(19)
Cu23_3 Cu 0.45348(2) 0.231250(19) 0.55481(2)
Cu24_3 Cu 0.731250(19) 0.04652(2) 0.94519(2)
Cu28_3 Cu 0.55481(2) 0.231250(19) 0.95348(2)
Cu32_3 Cu 0.45348(2) 0.268750(19) 0.94519(2)
Cu35_3 Cu 0.44519(2) 0.268750(19) 0.45348(2)
Cu40_4 Cu 0.5000 0.2500 1.0000
Cu43_2 Cu 0.5000 0.2500 0.5000
Cu44_6 Cu 0.7500 -0.0000 1.0000
Cu45_6 Cu 0.2500 -0.0000 1.0000
Cl2_3 Cl 0.40038(4) 0.09962(4) 0.59962(4)
Cl3_3 Cl 0.59962(4) 0.09962(4) 0.90038(4)
S3_3 S 0.54253(4) 0.03214(4) 0.71144(4)
S5_3 S 0.46786(4) 0.04253(4) 0.78856(4)
S8_3 S 0.45747(4) 0.21144(4) 0.96786(4)
S11_3 S 0.46786(4) 0.21144(4) 0.45747(4)
S15_3 S 0.45747(4) 0.28856(4) 0.53214(4)
S16_3 S 0.78856(4) 0.04253(4) 0.96786(4)
S24_3 S 0.53214(4) 0.28856(4) 0.95747(4)
S27_3 S 0.39894(4) 0.16835(5) 0.68391(4)
S28_3 S 0.31609(4) 0.10106(4) 0.66835(5)
S29_3 S 0.66835(5) 0.10106(4) 0.81609(4)
S30_3 S 0.60106(4) 0.18391(4) 0.83165(5)
S34_3 S 0.33165(5) 0.18391(4) 0.60106(4)
S35_3 S 0.68391(4) 0.16835(5) 0.89894(4)
N9_3 N 0.47902(12) 0.06936(12) 0.69517(13)
N10_3 N 0.56936(12) 0.02098(12) 0.80483(13)
N13_3 N 0.30483(13) 0.02098(12) 0.56936(12)
N14_3 N 0.52098(12) 0.19517(13) 0.93064(12)
N17_3 N 0.43064(12) 0.19517(13) 0.52098(12)
N18_3 N 0.69517(13) 0.06936(12) 0.97902(12)
N20_3 N 0.46696(13) 0.09606(13) 0.66992(14)
N21_3 N 0.59606(13) 0.03304(13) 0.83008(14)
N24_3 N 0.33008(14) 0.03304(13) 0.59606(13)
N25_3 N 0.53304(13) 0.16992(14) 0.90394(13)
N28_3 N 0.40394(13) 0.16992(14) 0.53304(13)
N29_3 N 0.66992(14) 0.09606(13) 0.96696(13)
N31_3 N 0.52502(12) 0.08447(13) 0.66052(13)
N33_3 N 0.41553(13) 0.02502(12) 0.83948(13)
N34_3 N 0.66052(13) 0.02502(12) 0.58447(13)
N36_3 N 0.47498(12) 0.16052(13) 0.91553(13)
N39_3 N 0.41553(13) 0.16052(13) 0.47498(12)
H7_3 H 0.5465 0.0853 0.6511
H9_3 H 0.4147 0.0465 0.8489
H10_3 H 0.6511 0.0465 0.5853
H12_3 H 0.4535 0.1511 0.9147
H15_3 H 0.4147 0.1511 0.4535
N42_3 N 0.49604(16) 0.12949(17) 0.62237(17)
N43_3 N 0.62949(17) 0.00396(16) 0.87763(17)
N46_3 N 0.37763(17) 0.00396(16) 0.62949(17)
N47_3 N 0.50396(16) 0.12237(17) 0.87051(17)
N50_3 N 0.37051(17) 0.12237(17) 0.50396(16)
N51_3 N 0.62237(17) 0.12949(17) 0.99604(16)
H18_3 H 0.4767 0.1418 0.6172
H19_3 H 0.6418 0.0233 0.8828
H22_3 H 0.3828 0.0233 0.6418
H23_3 H 0.5233 0.1172 0.8582
H26_3 H 0.3582 0.1172 0.5233
H27_3 H 0.6172 0.1418 0.9767
H29_3 H 0.5159 0.1331 0.6103
H31_3 H 0.3669 0.0159 0.8897
H32_3 H 0.6103 0.0159 0.6331
H34_3 H 0.4841 0.1103 0.8669
H37_3 H 0.3669 0.1103 0.4841
N54_3 N 0.42648(14) 0.19463(14) 0.61874(13)
N55_3 N 0.38126(13) 0.07352(14) 0.69463(14)
N56_3 N 0.69463(14) 0.07352(14) 0.88126(13)
N57_3 N 0.57352(14) 0.11874(13) 0.80537(14)
N61_3 N 0.30537(14) 0.11874(13) 0.57352(14)
N62_3 N 0.61874(13) 0.19463(14) 0.92648(14)
N65_3 N 0.45389(13) 0.21841(13) 0.60714(12)
N66_3 N 0.39286(12) 0.04611(13) 0.71841(13)
N67_3 N 0.71841(13) 0.04611(13) 0.89286(12)
N68_3 N 0.54611(13) 0.10714(12) 0.78159(13)
N72_3 N 0.28159(13) 0.10714(12) 0.54611(13)
N73_3 N 0.60714(12) 0.21841(13) 0.95389(13)
N76_3 N 0.45469(13) 0.21578(15) 0.66722(13)
N77_3 N 0.33278(13) 0.04531(13) 0.71578(15)
N78_3 N 0.71578(15) 0.04531(13) 0.83278(13)
N79_3 N 0.54531(13) 0.16722(13) 0.78422(15)
N83_3 N 0.28422(15) 0.16722(13) 0.54531(13)
N84_3 N 0.66722(13) 0.21578(15) 0.95469(13)
H41_3 H 0.4609 0.2194 0.6896
H42_3 H 0.3104 0.0391 0.7194
H43_3 H 0.7194 0.0391 0.8104
H44_3 H 0.5391 0.1896 0.7806
H48_3 H 0.2806 0.1896 0.5391
H49_3 H 0.6896 0.2194 0.9609
N87_3 N 0.49800(18) 0.25540(18) 0.63890(16)
N88_3 N 0.36110(16) 0.00200(18) 0.75540(18)
N89_3 N 0.75540(18) 0.00200(18) 0.86110(16)
N90_3 N 0.50200(18) 0.13890(16) 0.74460(18)
N94_3 N 0.24460(18) 0.13890(16) 0.50200(18)
N95_3 N 0.63890(16) 0.25540(18) 0.99800(18)
H51_3 H 0.6191 0.0068 0.7645
H52_3 H 0.5068 0.2645 0.6191
H55_3 H 0.4932 0.1191 0.7355
H56_3 H 0.2355 0.0068 0.8809
H59_3 H 0.2355 0.1191 0.4932
H62_3 H 0.6597 0.0068 0.7619
H63_3 H 0.5068 0.2619 0.6597
H66_3 H 0.4932 0.1597 0.7381
H67_3 H 0.2381 0.0068 0.8403
H70_3 H 0.2381 0.1597 0.4932
C5_3 C 0.51394(14) 0.06332(15) 0.68903(15)
C7_3 C 0.43668(15) 0.01394(14) 0.81097(15)
C8_3 C 0.68903(15) 0.01394(14) 0.56332(15)
C10_3 C 0.48606(14) 0.18903(15) 0.93668(15)
C13_3 C 0.43668(15) 0.18903(15) 0.48606(14)
C16_3 C 0.49522(16) 0.10394(17) 0.64992(17)
C17_3 C 0.60394(17) 0.00478(16) 0.85008(17)
C20_3 C 0.35008(17) 0.00478(16) 0.60394(17)
C21_3 C 0.50478(16) 0.14992(17) 0.89606(17)
C24_3 C 0.39606(17) 0.14992(17) 0.50478(16)
C25_3 C 0.64992(17) 0.10394(17) 0.99522(16)
C28_3 C 0.42726(16) 0.19371(16) 0.65491(15)
C29_3 C 0.34509(15) 0.07274(16) 0.69371(16)
C30_3 C 0.69371(16) 0.07274(16) 0.84509(15)
C31_3 C 0.57274(16) 0.15491(15) 0.80629(16)
C35_3 C 0.30629(16) 0.15491(15) 0.57274(16)
C36_3 C 0.65491(15) 0.19371(16) 0.92726(16)
C39_3 C 0.47000(17) 0.23073(17) 0.63734(17)
C40_3 C 0.36266(17) 0.03000(17) 0.73073(17)
C41_3 C 0.73073(17) 0.03000(17) 0.86266(17)
C42_3 C 0.53000(17) 0.13734(17) 0.76927(17)
C46_3 C 0.26927(17) 0.13734(17) 0.53000(17)
C47_3 C 0.63734(17) 0.23073(17) 0.97000(17)
Cu37_3 Cu 0.231250(19) 0.94519(2) 0.04652(2)
Cu41_3 Cu 0.5000 0.7500 0.0000
Cu44_7 Cu 0.7500 1.0000 0.0000
Cu45_7 Cu 0.2500 1.0000 0.0000
S13_3 S 0.28856(4) 0.96786(4) 0.04253(4)
N41_3 N 0.33948(13) 0.91553(13) 0.02502(12)
H17_3 H 0.3489 0.9147 0.0465
H39_3 H 0.3897 0.8669 0.0159
H61_3 H 0.3809 0.7355 0.0068
H72_3 H 0.3403 0.7381 0.0068
C15_3 C 0.31097(15) 0.93668(15) 0.01394(14)
Cu1_3 Cu 0.64790(2) 0.85210(2) 0.64790(2)
Cu2_3 Cu 0.58599(3) 0.89121(2) 0.66882(2)
Cu3_3 Cu 0.55481(2) 0.95348(2) 0.731250(19)
Cu4_6 Cu 0.5000 1.0000 0.7500
Cl1_3 Cl 0.59962(4) 0.90038(4) 0.59962(4)
S1_3 S 0.45747(4) 0.96786(4) 0.71144(4)
S2_3 S 0.60106(4) 0.83165(5) 0.68391(4)
N1_3 N 0.52098(12) 0.93064(12) 0.69517(13)
N2_3 N 0.53304(13) 0.90394(13) 0.66992(14)
N3_3 N 0.47498(12) 0.91553(13) 0.66052(13)
H1_3 H 0.4535 0.9147 0.6511
N4_3 N 0.50396(16) 0.87051(17) 0.62237(17)
H2_3 H 0.5233 0.8582 0.6172
H3_3 H 0.4841 0.8669 0.6103
N5_3 N 0.57352(14) 0.80537(14) 0.61874(13)
N6_3 N 0.54611(13) 0.78159(13) 0.60714(12)
N7_3 N 0.54531(13) 0.78422(15) 0.66722(13)
H4_3 H 0.5391 0.7806 0.6896
N8_3 N 0.50200(18) 0.74460(18) 0.63890(16)
H5_3 H 0.4932 0.7355 0.6191
H6_3 H 0.4932 0.7381 0.6597
C1_3 C 0.48606(14) 0.93668(15) 0.68903(15)
C2_3 C 0.50478(16) 0.89606(17) 0.64992(17)
C3_3 C 0.57274(16) 0.80629(16) 0.65491(15)
C4_3 C 0.53000(17) 0.76927(17) 0.63734(17)
Cu7_3 Cu 0.35210(2) 0.85210(2) 0.85210(2)
Cu10_3 Cu 0.39121(2) 0.91401(3) 0.83118(2)
Cu11_3 Cu 0.66882(2) 0.91401(3) 0.60879(2)
Cu14_3 Cu 0.41401(3) 0.83118(2) 0.89121(2)
Cu15_3 Cu 0.60879(2) 0.83118(2) 0.58599(3)
Cu18_3 Cu 0.33118(2) 0.89121(2) 0.91401(3)
Cu21_3 Cu 0.45348(2) 0.94519(2) 0.768750(19)
Cu22_3 Cu 0.54652(2) 0.768750(19) 0.55481(2)
Cu25_3 Cu 0.268750(19) 0.95348(2) 0.94519(2)
Cu29_3 Cu 0.44519(2) 0.768750(19) 0.95348(2)
Cu33_3 Cu 0.54652(2) 0.731250(19) 0.94519(2)
Cu34_3 Cu 0.55481(2) 0.731250(19) 0.45348(2)
Cu41_4 Cu 0.5000 0.7500 1.0000
Cu42_2 Cu 0.5000 0.7500 0.5000
Cu44_8 Cu 0.7500 1.0000 1.0000
Cu45_8 Cu 0.2500 1.0000 1.0000
Cl4_3 Cl 0.40038(4) 0.90038(4) 0.90038(4)
S4_3 S 0.53214(4) 0.95747(4) 0.78856(4)
S9_3 S 0.54253(4) 0.78856(4) 0.96786(4)
S10_3 S 0.53214(4) 0.78856(4) 0.45747(4)
S14_3 S 0.54253(4) 0.71144(4) 0.53214(4)
S17_3 S 0.21144(4) 0.95747(4) 0.96786(4)
S25_3 S 0.46786(4) 0.71144(4) 0.95747(4)
S26_3 S 0.68391(4) 0.89894(4) 0.66835(5)
S31_3 S 0.33165(5) 0.89894(4) 0.81609(4)
S32_3 S 0.39894(4) 0.81609(4) 0.83165(5)
S33_3 S 0.66835(5) 0.81609(4) 0.60106(4)
S36_3 S 0.31609(4) 0.83165(5) 0.89894(4)
N11_3 N 0.43064(12) 0.97902(12) 0.80483(13)
N12_3 N 0.69517(13) 0.97902(12) 0.56936(12)
N15_3 N 0.47902(12) 0.80483(13) 0.93064(12)
N16_3 N 0.56936(12) 0.80483(13) 0.52098(12)
N19_3 N 0.30483(13) 0.93064(12) 0.97902(12)
N22_3 N 0.40394(13) 0.96696(13) 0.83008(14)
N23_3 N 0.66992(14) 0.96696(13) 0.59606(13)
N26_3 N 0.46696(13) 0.83008(14) 0.90394(13)
N27_3 N 0.59606(13) 0.83008(14) 0.53304(13)
N30_3 N 0.33008(14) 0.90394(13) 0.96696(13)
N32_3 N 0.58447(13) 0.97498(12) 0.83948(13)
N35_3 N 0.33948(13) 0.97498(12) 0.58447(13)
N37_3 N 0.52502(12) 0.83948(13) 0.91553(13)
N38_3 N 0.58447(13) 0.83948(13) 0.47498(12)
H8_3 H 0.5853 0.9535 0.8489
H11_3 H 0.3489 0.9535 0.5853
H13_3 H 0.5465 0.8489 0.9147
H14_3 H 0.5853 0.8489 0.4535
N44_3 N 0.37051(17) 0.99604(16) 0.87763(17)
N45_3 N 0.62237(17) 0.99604(16) 0.62949(17)
N48_3 N 0.49604(16) 0.87763(17) 0.87051(17)
N49_3 N 0.62949(17) 0.87763(17) 0.50396(16)
N52_3 N 0.37763(17) 0.87051(17) 0.99604(16)
H20_3 H 0.3582 0.9767 0.8828
H21_3 H 0.6172 0.9767 0.6418
H24_3 H 0.4767 0.8828 0.8582
H25_3 H 0.6418 0.8828 0.5233
H28_3 H 0.3828 0.8582 0.9767
H30_3 H 0.6331 0.9841 0.8897
H33_3 H 0.3897 0.9841 0.6331
H35_3 H 0.5159 0.8897 0.8669
H36_3 H 0.6331 0.8897 0.4841
N53_3 N 0.61874(13) 0.92648(14) 0.69463(14)
N58_3 N 0.30537(14) 0.92648(14) 0.88126(13)
N59_3 N 0.42648(14) 0.88126(13) 0.80537(14)
N60_3 N 0.69463(14) 0.88126(13) 0.57352(14)
N63_3 N 0.38126(13) 0.80537(14) 0.92648(14)
N64_3 N 0.60714(12) 0.95389(13) 0.71841(13)
N69_3 N 0.28159(13) 0.95389(13) 0.89286(12)
N70_3 N 0.45389(13) 0.89286(12) 0.78159(13)
N71_3 N 0.71841(13) 0.89286(12) 0.54611(13)
N74_3 N 0.39286(12) 0.78159(13) 0.95389(13)
N75_3 N 0.66722(13) 0.95469(13) 0.71578(15)
N80_3 N 0.28422(15) 0.95469(13) 0.83278(13)
N81_3 N 0.45469(13) 0.83278(13) 0.78422(15)
N82_3 N 0.71578(15) 0.83278(13) 0.54531(13)
N85_3 N 0.33278(13) 0.78422(15) 0.95469(13)
H40_3 H 0.6896 0.9609 0.7194
H45_3 H 0.2806 0.9609 0.8104
H46_3 H 0.4609 0.8104 0.7806
H47_3 H 0.7194 0.8104 0.5391
H50_3 H 0.3104 0.7806 0.9609
N86_3 N 0.63890(16) 0.99800(18) 0.75540(18)
N91_3 N 0.24460(18) 0.99800(18) 0.86110(16)
N92_3 N 0.49800(18) 0.86110(16) 0.74460(18)
N93_3 N 0.75540(18) 0.86110(16) 0.50200(18)
N96_3 N 0.36110(16) 0.74460(18) 0.99800(18)
H53_3 H 0.3809 0.9932 0.7645
H54_3 H 0.7645 0.9932 0.8809
H57_3 H 0.5068 0.8809 0.7355
H58_3 H 0.7645 0.8809 0.4932
H64_3 H 0.3403 0.9932 0.7619
H65_3 H 0.7619 0.9932 0.8403
H68_3 H 0.5068 0.8403 0.7381
H69_3 H 0.7619 0.8403 0.4932
C6_3 C 0.56332(15) 0.98606(14) 0.81097(15)
C9_3 C 0.31097(15) 0.98606(14) 0.56332(15)
C11_3 C 0.51394(14) 0.81097(15) 0.93668(15)
C12_3 C 0.56332(15) 0.81097(15) 0.48606(14)
C18_3 C 0.39606(17) 0.99522(16) 0.85008(17)
C19_3 C 0.64992(17) 0.99522(16) 0.60394(17)
C22_3 C 0.49522(16) 0.85008(17) 0.89606(17)
C23_3 C 0.60394(17) 0.85008(17) 0.50478(16)
C26_3 C 0.35008(17) 0.89606(17) 0.99522(16)
C27_3 C 0.65491(15) 0.92726(16) 0.69371(16)
C32_3 C 0.30629(16) 0.92726(16) 0.84509(15)
C33_3 C 0.42726(16) 0.84509(15) 0.80629(16)
C34_3 C 0.69371(16) 0.84509(15) 0.57274(16)
C37_3 C 0.34509(15) 0.80629(16) 0.92726(16)
C38_3 C 0.63734(17) 0.97000(17) 0.73073(17)
C43_3 C 0.26927(17) 0.97000(17) 0.86266(17)
C44_3 C 0.47000(17) 0.86266(17) 0.76927(17)
C45_3 C 0.73073(17) 0.86266(17) 0.53000(17)
C48_3 C 0.36266(17) 0.76927(17) 0.97000(17)
Cu1_4 Cu 0.64790(2) 0.14790(2) 0.35210(2)
Cu2_4 Cu 0.58599(3) 0.10879(2) 0.33118(2)
Cu3_4 Cu 0.55481(2) 0.04652(2) 0.268750(19)
Cu4_7 Cu 0.5000 0.0000 0.2500
Cl1_4 Cl 0.59962(4) 0.09962(4) 0.40038(4)
S1_4 S 0.45747(4) 0.03214(4) 0.28856(4)
S2_4 S 0.60106(4) 0.16835(5) 0.31609(4)
N1_4 N 0.52098(12) 0.06936(12) 0.30483(13)
N2_4 N 0.53304(13) 0.09606(13) 0.33008(14)
N3_4 N 0.47498(12) 0.08447(13) 0.33948(13)
H1_4 H 0.4535 0.0853 0.3489
N4_4 N 0.50396(16) 0.12949(17) 0.37763(17)
H2_4 H 0.5233 0.1418 0.3828
H3_4 H 0.4841 0.1331 0.3897
N5_4 N 0.57352(14) 0.19463(14) 0.38126(13)
N6_4 N 0.54611(13) 0.21841(13) 0.39286(12)
N7_4 N 0.54531(13) 0.21578(15) 0.33278(13)
H4_4 H 0.5391 0.2194 0.3104
N8_4 N 0.50200(18) 0.25540(18) 0.36110(16)
H5_4 H 0.4932 0.2645 0.3809
H6_4 H 0.4932 0.2619 0.3403
C1_4 C 0.48606(14) 0.06332(15) 0.31097(15)
C2_4 C 0.50478(16) 0.10394(17) 0.35008(17)
C3_4 C 0.57274(16) 0.19371(16) 0.34509(15)
C4_4 C 0.53000(17) 0.23073(17) 0.36266(17)
Cu7_4 Cu 0.35210(2) 0.14790(2) 0.14790(2)
Cu10_4 Cu 0.39121(2) 0.08599(3) 0.16882(2)
Cu11_4 Cu 0.66882(2) 0.08599(3) 0.39121(2)
Cu14_4 Cu 0.41401(3) 0.16882(2) 0.10879(2)
Cu15_4 Cu 0.60879(2) 0.16882(2) 0.41401(3)
Cu18_4 Cu 0.33118(2) 0.10879(2) 0.08599(3)
Cu21_4 Cu 0.45348(2) 0.05481(2) 0.231250(19)
Cu22_4 Cu 0.54652(2) 0.231250(19) 0.44519(2)
Cu25_4 Cu 0.268750(19) 0.04652(2) 0.05481(2)
Cu29_4 Cu 0.44519(2) 0.231250(19) 0.04652(2)
Cu33_4 Cu 0.54652(2) 0.268750(19) 0.05481(2)
Cu34_4 Cu 0.55481(2) 0.268750(19) 0.54652(2)
Cl4_4 Cl 0.40038(4) 0.09962(4) 0.09962(4)
S4_4 S 0.53214(4) 0.04253(4) 0.21144(4)
S9_4 S 0.54253(4) 0.21144(4) 0.03214(4)
S10_4 S 0.53214(4) 0.21144(4) 0.54253(4)
S14_4 S 0.54253(4) 0.28856(4) 0.46786(4)
S17_4 S 0.21144(4) 0.04253(4) 0.03214(4)
S25_4 S 0.46786(4) 0.28856(4) 0.04253(4)
S26_4 S 0.68391(4) 0.10106(4) 0.33165(5)
S31_4 S 0.33165(5) 0.10106(4) 0.18391(4)
S32_4 S 0.39894(4) 0.18391(4) 0.16835(5)
S33_4 S 0.66835(5) 0.18391(4) 0.39894(4)
S36_4 S 0.31609(4) 0.16835(5) 0.10106(4)
N11_4 N 0.43064(12) 0.02098(12) 0.19517(13)
N12_4 N 0.69517(13) 0.02098(12) 0.43064(12)
N15_4 N 0.47902(12) 0.19517(13) 0.06936(12)
N16_4 N 0.56936(12) 0.19517(13) 0.47902(12)
N19_4 N 0.30483(13) 0.06936(12) 0.02098(12)
N22_4 N 0.40394(13) 0.03304(13) 0.16992(14)
N23_4 N 0.66992(14) 0.03304(13) 0.40394(13)
N26_4 N 0.46696(13) 0.16992(14) 0.09606(13)
N27_4 N 0.59606(13) 0.16992(14) 0.46696(13)
N30_4 N 0.33008(14) 0.09606(13) 0.03304(13)
N32_4 N 0.58447(13) 0.02502(12) 0.16052(13)
N35_4 N 0.33948(13) 0.02502(12) 0.41553(13)
N37_4 N 0.52502(12) 0.16052(13) 0.08447(13)
N38_4 N 0.58447(13) 0.16052(13) 0.52502(12)
H8_4 H 0.5853 0.0465 0.1511
H11_4 H 0.3489 0.0465 0.4147
H13_4 H 0.5465 0.1511 0.0853
H14_4 H 0.5853 0.1511 0.5465
N44_4 N 0.37051(17) 0.00396(16) 0.12237(17)
N45_4 N 0.62237(17) 0.00396(16) 0.37051(17)
N48_4 N 0.49604(16) 0.12237(17) 0.12949(17)
N49_4 N 0.62949(17) 0.12237(17) 0.49604(16)
N52_4 N 0.37763(17) 0.12949(17) 0.00396(16)
H20_4 H 0.3582 0.0233 0.1172
H21_4 H 0.6172 0.0233 0.3582
H24_4 H 0.4767 0.1172 0.1418
H25_4 H 0.6418 0.1172 0.4767
H28_4 H 0.3828 0.1418 0.0233
H30_4 H 0.6331 0.0159 0.1103
H33_4 H 0.3897 0.0159 0.3669
H35_4 H 0.5159 0.1103 0.1331
H36_4 H 0.6331 0.1103 0.5159
N53_4 N 0.61874(13) 0.07352(14) 0.30537(14)
N58_4 N 0.30537(14) 0.07352(14) 0.11874(13)
N59_4 N 0.42648(14) 0.11874(13) 0.19463(14)
N60_4 N 0.69463(14) 0.11874(13) 0.42648(14)
N63_4 N 0.38126(13) 0.19463(14) 0.07352(14)
N64_4 N 0.60714(12) 0.04611(13) 0.28159(13)
N69_4 N 0.28159(13) 0.04611(13) 0.10714(12)
N70_4 N 0.45389(13) 0.10714(12) 0.21841(13)
N71_4 N 0.71841(13) 0.10714(12) 0.45389(13)
N74_4 N 0.39286(12) 0.21841(13) 0.04611(13)
N75_4 N 0.66722(13) 0.04531(13) 0.28422(15)
N80_4 N 0.28422(15) 0.04531(13) 0.16722(13)
N81_4 N 0.45469(13) 0.16722(13) 0.21578(15)
N82_4 N 0.71578(15) 0.16722(13) 0.45469(13)
N85_4 N 0.33278(13) 0.21578(15) 0.04531(13)
H40_4 H 0.6896 0.0391 0.2806
H45_4 H 0.2806 0.0391 0.1896
H46_4 H 0.4609 0.1896 0.2194
H47_4 H 0.7194 0.1896 0.4609
H50_4 H 0.3104 0.2194 0.0391
N86_4 N 0.63890(16) 0.00200(18) 0.24460(18)
N91_4 N 0.24460(18) 0.00200(18) 0.13890(16)
N92_4 N 0.49800(18) 0.13890(16) 0.25540(18)
N93_4 N 0.75540(18) 0.13890(16) 0.49800(18)
N96_4 N 0.36110(16) 0.25540(18) 0.00200(18)
H53_4 H 0.3809 0.0068 0.2355
H54_4 H 0.7645 0.0068 0.1191
H57_4 H 0.5068 0.1191 0.2645
H58_4 H 0.7645 0.1191 0.5068
H64_4 H 0.3403 0.0068 0.2381
H65_4 H 0.7619 0.0068 0.1597
H68_4 H 0.5068 0.1597 0.2619
H69_4 H 0.7619 0.1597 0.5068
C6_4 C 0.56332(15) 0.01394(14) 0.18903(15)
C9_4 C 0.31097(15) 0.01394(14) 0.43668(15)
C11_4 C 0.51394(14) 0.18903(15) 0.06332(15)
C12_4 C 0.56332(15) 0.18903(15) 0.51394(14)
C18_4 C 0.39606(17) 0.00478(16) 0.14992(17)
C19_4 C 0.64992(17) 0.00478(16) 0.39606(17)
C22_4 C 0.49522(16) 0.14992(17) 0.10394(17)
C23_4 C 0.60394(17) 0.14992(17) 0.49522(16)
C26_4 C 0.35008(17) 0.10394(17) 0.00478(16)
C27_4 C 0.65491(15) 0.07274(16) 0.30629(16)
C32_4 C 0.30629(16) 0.07274(16) 0.15491(15)
C33_4 C 0.42726(16) 0.15491(15) 0.19371(16)
C34_4 C 0.69371(16) 0.15491(15) 0.42726(16)
C37_4 C 0.34509(15) 0.19371(16) 0.07274(16)
C38_4 C 0.63734(17) 0.03000(17) 0.26927(17)
C43_4 C 0.26927(17) 0.03000(17) 0.13734(17)
C44_4 C 0.47000(17) 0.13734(17) 0.23073(17)
C45_4 C 0.73073(17) 0.13734(17) 0.47000(17)
C48_4 C 0.36266(17) 0.23073(17) 0.03000(17)
Cu37_4 Cu 0.231250(19) 0.05481(2) 0.95348(2)
S13_4 S 0.28856(4) 0.03214(4) 0.95747(4)
N41_4 N 0.33948(13) 0.08447(13) 0.97498(12)
H17_4 H 0.3489 0.0853 0.9535
H39_4 H 0.3897 0.1331 0.9841
H61_4 H 0.3809 0.2645 0.9932
H72_4 H 0.3403 0.2619 0.9932
C15_4 C 0.31097(15) 0.06332(15) 0.98606(14)
Cu4_8 Cu 0.5000 1.0000 0.2500
Cu5_4 Cu 0.35210(2) 0.85210(2) 0.35210(2)
Cu6_4 Cu 0.64790(2) 0.85210(2) 0.14790(2)
Cu8_4 Cu 0.41401(3) 0.89121(2) 0.33118(2)
Cu9_4 Cu 0.60879(2) 0.91401(3) 0.16882(2)
Cu12_4 Cu 0.33118(2) 0.91401(3) 0.39121(2)
Cu13_4 Cu 0.58599(3) 0.83118(2) 0.10879(2)
Cu16_4 Cu 0.39121(2) 0.83118(2) 0.41401(3)
Cu17_4 Cu 0.66882(2) 0.89121(2) 0.08599(3)
Cu19_4 Cu 0.44519(2) 0.95348(2) 0.268750(19)
Cu20_4 Cu 0.54652(2) 0.94519(2) 0.231250(19)
Cu23_4 Cu 0.45348(2) 0.768750(19) 0.44519(2)
Cu24_4 Cu 0.731250(19) 0.95348(2) 0.05481(2)
Cu28_4 Cu 0.55481(2) 0.768750(19) 0.04652(2)
Cu32_4 Cu 0.45348(2) 0.731250(19) 0.05481(2)
Cu35_4 Cu 0.44519(2) 0.731250(19) 0.54652(2)
Cl2_4 Cl 0.40038(4) 0.90038(4) 0.40038(4)
Cl3_4 Cl 0.59962(4) 0.90038(4) 0.09962(4)
S3_4 S 0.54253(4) 0.96786(4) 0.28856(4)
S5_4 S 0.46786(4) 0.95747(4) 0.21144(4)
S8_4 S 0.45747(4) 0.78856(4) 0.03214(4)
S11_4 S 0.46786(4) 0.78856(4) 0.54253(4)
S15_4 S 0.45747(4) 0.71144(4) 0.46786(4)
S16_4 S 0.78856(4) 0.95747(4) 0.03214(4)
S24_4 S 0.53214(4) 0.71144(4) 0.04253(4)
S27_4 S 0.39894(4) 0.83165(5) 0.31609(4)
S28_4 S 0.31609(4) 0.89894(4) 0.33165(5)
S29_4 S 0.66835(5) 0.89894(4) 0.18391(4)
S30_4 S 0.60106(4) 0.81609(4) 0.16835(5)
S34_4 S 0.33165(5) 0.81609(4) 0.39894(4)
S35_4 S 0.68391(4) 0.83165(5) 0.10106(4)
N9_4 N 0.47902(12) 0.93064(12) 0.30483(13)
N10_4 N 0.56936(12) 0.97902(12) 0.19517(13)
N13_4 N 0.30483(13) 0.97902(12) 0.43064(12)
N14_4 N 0.52098(12) 0.80483(13) 0.06936(12)
N17_4 N 0.43064(12) 0.80483(13) 0.47902(12)
N18_4 N 0.69517(13) 0.93064(12) 0.02098(12)
N20_4 N 0.46696(13) 0.90394(13) 0.33008(14)
N21_4 N 0.59606(13) 0.96696(13) 0.16992(14)
N24_4 N 0.33008(14) 0.96696(13) 0.40394(13)
N25_4 N 0.53304(13) 0.83008(14) 0.09606(13)
N28_4 N 0.40394(13) 0.83008(14) 0.46696(13)
N29_4 N 0.66992(14) 0.90394(13) 0.03304(13)
N31_4 N 0.52502(12) 0.91553(13) 0.33948(13)
N33_4 N 0.41553(13) 0.97498(12) 0.16052(13)
N34_4 N 0.66052(13) 0.97498(12) 0.41553(13)
N36_4 N 0.47498(12) 0.83948(13) 0.08447(13)
N39_4 N 0.41553(13) 0.83948(13) 0.52502(12)
H7_4 H 0.5465 0.9147 0.3489
H9_4 H 0.4147 0.9535 0.1511
H10_4 H 0.6511 0.9535 0.4147
H12_4 H 0.4535 0.8489 0.0853
H15_4 H 0.4147 0.8489 0.5465
N42_4 N 0.49604(16) 0.87051(17) 0.37763(17)
N43_4 N 0.62949(17) 0.99604(16) 0.12237(17)
N46_4 N 0.37763(17) 0.99604(16) 0.37051(17)
N47_4 N 0.50396(16) 0.87763(17) 0.12949(17)
N50_4 N 0.37051(17) 0.87763(17) 0.49604(16)
N51_4 N 0.62237(17) 0.87051(17) 0.00396(16)
H18_4 H 0.4767 0.8582 0.3828
H19_4 H 0.6418 0.9767 0.1172
H22_4 H 0.3828 0.9767 0.3582
H23_4 H 0.5233 0.8828 0.1418
H26_4 H 0.3582 0.8828 0.4767
H27_4 H 0.6172 0.8582 0.0233
H29_4 H 0.5159 0.8669 0.3897
H31_4 H 0.3669 0.9841 0.1103
H32_4 H 0.6103 0.9841 0.3669
H34_4 H 0.4841 0.8897 0.1331
H37_4 H 0.3669 0.8897 0.5159
N54_4 N 0.42648(14) 0.80537(14) 0.38126(13)
N55_4 N 0.38126(13) 0.92648(14) 0.30537(14)
N56_4 N 0.69463(14) 0.92648(14) 0.11874(13)
N57_4 N 0.57352(14) 0.88126(13) 0.19463(14)
N61_4 N 0.30537(14) 0.88126(13) 0.42648(14)
N62_4 N 0.61874(13) 0.80537(14) 0.07352(14)
N65_4 N 0.45389(13) 0.78159(13) 0.39286(12)
N66_4 N 0.39286(12) 0.95389(13) 0.28159(13)
N67_4 N 0.71841(13) 0.95389(13) 0.10714(12)
N68_4 N 0.54611(13) 0.89286(12) 0.21841(13)
N72_4 N 0.28159(13) 0.89286(12) 0.45389(13)
N73_4 N 0.60714(12) 0.78159(13) 0.04611(13)
N76_4 N 0.45469(13) 0.78422(15) 0.33278(13)
N77_4 N 0.33278(13) 0.95469(13) 0.28422(15)
N78_4 N 0.71578(15) 0.95469(13) 0.16722(13)
N79_4 N 0.54531(13) 0.83278(13) 0.21578(15)
N83_4 N 0.28422(15) 0.83278(13) 0.45469(13)
N84_4 N 0.66722(13) 0.78422(15) 0.04531(13)
H41_4 H 0.4609 0.7806 0.3104
H42_4 H 0.3104 0.9609 0.2806
H43_4 H 0.7194 0.9609 0.1896
H44_4 H 0.5391 0.8104 0.2194
H48_4 H 0.2806 0.8104 0.4609
H49_4 H 0.6896 0.7806 0.0391
N87_4 N 0.49800(18) 0.74460(18) 0.36110(16)
N88_4 N 0.36110(16) 0.99800(18) 0.24460(18)
N89_4 N 0.75540(18) 0.99800(18) 0.13890(16)
N90_4 N 0.50200(18) 0.86110(16) 0.25540(18)
N94_4 N 0.24460(18) 0.86110(16) 0.49800(18)
N95_4 N 0.63890(16) 0.74460(18) 0.00200(18)
H51_4 H 0.6191 0.9932 0.2355
H52_4 H 0.5068 0.7355 0.3809
H55_4 H 0.4932 0.8809 0.2645
H56_4 H 0.2355 0.9932 0.1191
H59_4 H 0.2355 0.8809 0.5068
H62_4 H 0.6597 0.9932 0.2381
H63_4 H 0.5068 0.7381 0.3403
H66_4 H 0.4932 0.8403 0.2619
H67_4 H 0.2381 0.9932 0.1597
H70_4 H 0.2381 0.8403 0.5068
C5_4 C 0.51394(14) 0.93668(15) 0.31097(15)
C7_4 C 0.43668(15) 0.98606(14) 0.18903(15)
C8_4 C 0.68903(15) 0.98606(14) 0.43668(15)
C10_4 C 0.48606(14) 0.81097(15) 0.06332(15)
C13_4 C 0.43668(15) 0.81097(15) 0.51394(14)
C16_4 C 0.49522(16) 0.89606(17) 0.35008(17)
C17_4 C 0.60394(17) 0.99522(16) 0.14992(17)
C20_4 C 0.35008(17) 0.99522(16) 0.39606(17)
C21_4 C 0.50478(16) 0.85008(17) 0.10394(17)
C24_4 C 0.39606(17) 0.85008(17) 0.49522(16)
C25_4 C 0.64992(17) 0.89606(17) 0.00478(16)
C28_4 C 0.42726(16) 0.80629(16) 0.34509(15)
C29_4 C 0.34509(15) 0.92726(16) 0.30629(16)
C30_4 C 0.69371(16) 0.92726(16) 0.15491(15)
C31_4 C 0.57274(16) 0.84509(15) 0.19371(16)
C35_4 C 0.30629(16) 0.84509(15) 0.42726(16)
C36_4 C 0.65491(15) 0.80629(16) 0.07274(16)
C39_4 C 0.47000(17) 0.76927(17) 0.36266(17)
C40_4 C 0.36266(17) 0.97000(17) 0.26927(17)
C41_4 C 0.73073(17) 0.97000(17) 0.13734(17)
C42_4 C 0.53000(17) 0.86266(17) 0.23073(17)
C46_4 C 0.26927(17) 0.86266(17) 0.47000(17)
C47_4 C 0.63734(17) 0.76927(17) 0.03000(17)
Cu36_4 Cu 0.768750(19) 0.94519(2) 0.95348(2)
S12_4 S 0.71144(4) 0.96786(4) 0.95747(4)
N40_4 N 0.66052(13) 0.91553(13) 0.97498(12)
H16_4 H 0.6511 0.9147 0.9535
H38_4 H 0.6103 0.8669 0.9841
H60_4 H 0.6191 0.7355 0.9932
H71_4 H 0.6597 0.7381 0.9932
C14_4 C 0.68903(15) 0.93668(15) 0.98606(14)
Cu36_5 Cu 0.04652(2) 0.768750(19) 0.05481(2)
Cu44_9 Cu -0.0000 0.7500 -0.0000
Cu45_9 Cu -0.0000 0.2500 -0.0000
S12_5 S 0.04253(4) 0.71144(4) 0.03214(4)
N40_5 N 0.02502(12) 0.66052(13) 0.08447(13)
H16_5 H 0.0465 0.6511 0.0853
H38_5 H 0.0159 0.6103 0.1331
H60_5 H 0.0068 0.6191 0.2645
H71_5 H 0.0068 0.6597 0.2619
C14_5 C 0.01394(14) 0.68903(15) 0.06332(15)
Cu37_5 Cu 0.04652(2) 0.231250(19) 0.94519(2)
Cu44_10 Cu -0.0000 0.7500 1.0000
Cu45_10 Cu 0.0000 0.2500 1.0000
S13_5 S 0.04253(4) 0.28856(4) 0.96786(4)
N41_5 N 0.02502(12) 0.33948(13) 0.91553(13)
H17_5 H 0.0465 0.3489 0.9147
H39_5 H 0.0159 0.3897 0.8669
H61_5 H 0.0068 0.3809 0.7355
H72_5 H 0.0068 0.3403 0.7381
C15_5 C 0.01394(14) 0.31097(15) 0.93668(15)
Cu4_9 Cu 0.7500 0.5000 0.0000
Cu5_5 Cu 0.64790(2) 0.35210(2) 0.14790(2)
Cu6_5 Cu 0.85210(2) 0.64790(2) 0.14790(2)
Cu8_5 Cu 0.66882(2) 0.41401(3) 0.10879(2)
Cu9_5 Cu 0.83118(2) 0.60879(2) 0.08599(3)
Cu12_5 Cu 0.60879(2) 0.33118(2) 0.08599(3)
Cu13_5 Cu 0.89121(2) 0.58599(3) 0.16882(2)
Cu16_5 Cu 0.58599(3) 0.39121(2) 0.16882(2)
Cu17_5 Cu 0.91401(3) 0.66882(2) 0.10879(2)
Cu19_5 Cu 0.731250(19) 0.44519(2) 0.04652(2)
Cu20_5 Cu 0.768750(19) 0.54652(2) 0.05481(2)
Cu23_5 Cu 0.55481(2) 0.45348(2) 0.231250(19)
Cu24_5 Cu 0.94519(2) 0.731250(19) 0.04652(2)
Cu35_5 Cu 0.45348(2) 0.44519(2) 0.268750(19)
Cu43_3 Cu 0.5000 0.5000 0.2500
Cu44_11 Cu 1.0000 0.7500 -0.0000
Cu45_11 Cu 1.0000 0.2500 -0.0000
Cl2_5 Cl 0.59962(4) 0.40038(4) 0.09962(4)
Cl3_5 Cl 0.90038(4) 0.59962(4) 0.09962(4)
S3_5 S 0.71144(4) 0.54253(4) 0.03214(4)
S5_5 S 0.78856(4) 0.46786(4) 0.04253(4)
S11_5 S 0.45747(4) 0.46786(4) 0.21144(4)
S15_5 S 0.53214(4) 0.45747(4) 0.28856(4)
S16_5 S 0.96786(4) 0.78856(4) 0.04253(4)
S27_5 S 0.68391(4) 0.39894(4) 0.16835(5)
S28_5 S 0.66835(5) 0.31609(4) 0.10106(4)
S29_5 S 0.81609(4) 0.66835(5) 0.10106(4)
S30_5 S 0.83165(5) 0.60106(4) 0.18391(4)
S34_5 S 0.60106(4) 0.33165(5) 0.18391(4)
S35_5 S 0.89894(4) 0.68391(4) 0.16835(5)
N9_5 N 0.69517(13) 0.47902(12) 0.06936(12)
N10_5 N 0.80483(13) 0.56936(12) 0.02098(12)
N13_5 N 0.56936(12) 0.30483(13) 0.02098(12)
N14_5 N 0.93064(12) 0.52098(12) 0.19517(13)
N17_5 N 0.52098(12) 0.43064(12) 0.19517(13)
N18_5 N 0.97902(12) 0.69517(13) 0.06936(12)
N20_5 N 0.66992(14) 0.46696(13) 0.09606(13)
N21_5 N 0.83008(14) 0.59606(13) 0.03304(13)
N24_5 N 0.59606(13) 0.33008(14) 0.03304(13)
N25_5 N 0.90394(13) 0.53304(13) 0.16992(14)
N28_5 N 0.53304(13) 0.40394(13) 0.16992(14)
N29_5 N 0.96696(13) 0.66992(14) 0.09606(13)
N31_5 N 0.66052(13) 0.52502(12) 0.08447(13)
N33_5 N 0.83948(13) 0.41553(13) 0.02502(12)
N34_5 N 0.58447(13) 0.66052(13) 0.02502(12)
N36_5 N 0.91553(13) 0.47498(12) 0.16052(13)
N39_5 N 0.47498(12) 0.41553(13) 0.16052(13)
H7_5 H 0.6511 0.5465 0.0853
H9_5 H 0.8489 0.4147 0.0465
H10_5 H 0.5853 0.6511 0.0465
H12_5 H 0.9147 0.4535 0.1511
H15_5 H 0.4535 0.4147 0.1511
N42_5 N 0.62237(17) 0.49604(16) 0.12949(17)
N43_5 N 0.87763(17) 0.62949(17) 0.00396(16)
N46_5 N 0.62949(17) 0.37763(17) 0.00396(16)
N47_5 N 0.87051(17) 0.50396(16) 0.12237(17)
N50_5 N 0.50396(16) 0.37051(17) 0.12237(17)
N51_5 N 0.99604(16) 0.62237(17) 0.12949(17)
H18_5 H 0.6172 0.4767 0.1418
H19_5 H 0.8828 0.6418 0.0233
H22_5 H 0.6418 0.3828 0.0233
H23_5 H 0.8582 0.5233 0.1172
H26_5 H 0.5233 0.3582 0.1172
H27_5 H 0.9767 0.6172 0.1418
H29_5 H 0.6103 0.5159 0.1331
H31_5 H 0.8897 0.3669 0.0159
H32_5 H 0.6331 0.6103 0.0159
H34_5 H 0.8669 0.4841 0.1103
H37_5 H 0.4841 0.3669 0.1103
N54_5 N 0.61874(13) 0.42648(14) 0.19463(14)
N55_5 N 0.69463(14) 0.38126(13) 0.07352(14)
N56_5 N 0.88126(13) 0.69463(14) 0.07352(14)
N57_5 N 0.80537(14) 0.57352(14) 0.11874(13)
N61_5 N 0.57352(14) 0.30537(14) 0.11874(13)
N62_5 N 0.92648(14) 0.61874(13) 0.19463(14)
N65_5 N 0.60714(12) 0.45389(13) 0.21841(13)
N66_5 N 0.71841(13) 0.39286(12) 0.04611(13)
N67_5 N 0.89286(12) 0.71841(13) 0.04611(13)
N68_5 N 0.78159(13) 0.54611(13) 0.10714(12)
N72_5 N 0.54611(13) 0.28159(13) 0.10714(12)
N73_5 N 0.95389(13) 0.60714(12) 0.21841(13)
N76_5 N 0.66722(13) 0.45469(13) 0.21578(15)
N77_5 N 0.71578(15) 0.33278(13) 0.04531(13)
N78_5 N 0.83278(13) 0.71578(15) 0.04531(13)
N79_5 N 0.78422(15) 0.54531(13) 0.16722(13)
N83_5 N 0.54531(13) 0.28422(15) 0.16722(13)
N84_5 N 0.95469(13) 0.66722(13) 0.21578(15)
H41_5 H 0.6896 0.4609 0.2194
H42_5 H 0.7194 0.3104 0.0391
H43_5 H 0.8104 0.7194 0.0391
H44_5 H 0.7806 0.5391 0.1896
H48_5 H 0.5391 0.2806 0.1896
H49_5 H 0.9609 0.6896 0.2194
N87_5 N 0.63890(16) 0.49800(18) 0.25540(18)
N88_5 N 0.75540(18) 0.36110(16) 0.00200(18)
N89_5 N 0.86110(16) 0.75540(18) 0.00200(18)
N90_5 N 0.74460(18) 0.50200(18) 0.13890(16)
N94_5 N 0.50200(18) 0.24460(18) 0.13890(16)
N95_5 N 0.99800(18) 0.63890(16) 0.25540(18)
H51_5 H 0.7645 0.6191 0.0068
H52_5 H 0.6191 0.5068 0.2645
H55_5 H 0.7355 0.4932 0.1191
H56_5 H 0.8809 0.2355 0.0068
H59_5 H 0.4932 0.2355 0.1191
H62_5 H 0.7619 0.6597 0.0068
H63_5 H 0.6597 0.5068 0.2619
H66_5 H 0.7381 0.4932 0.1597
H67_5 H 0.8403 0.2381 0.0068
H70_5 H 0.4932 0.2381 0.1597
C5_5 C 0.68903(15) 0.51394(14) 0.06332(15)
C7_5 C 0.81097(15) 0.43668(15) 0.01394(14)
C8_5 C 0.56332(15) 0.68903(15) 0.01394(14)
C10_5 C 0.93668(15) 0.48606(14) 0.18903(15)
C13_5 C 0.48606(14) 0.43668(15) 0.18903(15)
C16_5 C 0.64992(17) 0.49522(16) 0.10394(17)
C17_5 C 0.85008(17) 0.60394(17) 0.00478(16)
C20_5 C 0.60394(17) 0.35008(17) 0.00478(16)
C21_5 C 0.89606(17) 0.50478(16) 0.14992(17)
C24_5 C 0.50478(16) 0.39606(17) 0.14992(17)
C25_5 C 0.99522(16) 0.64992(17) 0.10394(17)
C28_5 C 0.65491(15) 0.42726(16) 0.19371(16)
C29_5 C 0.69371(16) 0.34509(15) 0.07274(16)
C30_5 C 0.84509(15) 0.69371(16) 0.07274(16)
C31_5 C 0.80629(16) 0.57274(16) 0.15491(15)
C35_5 C 0.57274(16) 0.30629(16) 0.15491(15)
C36_5 C 0.92726(16) 0.65491(15) 0.19371(16)
C39_5 C 0.63734(17) 0.47000(17) 0.23073(17)
C40_5 C 0.73073(17) 0.36266(17) 0.03000(17)
C41_5 C 0.86266(17) 0.73073(17) 0.03000(17)
C42_5 C 0.76927(17) 0.53000(17) 0.13734(17)
C46_5 C 0.53000(17) 0.26927(17) 0.13734(17)
C47_5 C 0.97000(17) 0.63734(17) 0.23073(17)
Cu1_5 Cu 0.64790(2) 0.64790(2) 0.85210(2)
Cu2_5 Cu 0.66882(2) 0.58599(3) 0.89121(2)
Cu3_5 Cu 0.731250(19) 0.55481(2) 0.95348(2)
Cu4_10 Cu 0.7500 0.5000 1.0000
Cl1_5 Cl 0.59962(4) 0.59962(4) 0.90038(4)
S1_5 S 0.71144(4) 0.45747(4) 0.96786(4)
S2_5 S 0.68391(4) 0.60106(4) 0.83165(5)
N1_5 N 0.69517(13) 0.52098(12) 0.93064(12)
N2_5 N 0.66992(14) 0.53304(13) 0.90394(13)
N3_5 N 0.66052(13) 0.47498(12) 0.91553(13)
H1_5 H 0.6511 0.4535 0.9147
N4_5 N 0.62237(17) 0.50396(16) 0.87051(17)
H2_5 H 0.6172 0.5233 0.8582
H3_5 H 0.6103 0.4841 0.8669
N5_5 N 0.61874(13) 0.57352(14) 0.80537(14)
N6_5 N 0.60714(12) 0.54611(13) 0.78159(13)
N7_5 N 0.66722(13) 0.54531(13) 0.78422(15)
H4_5 H 0.6896 0.5391 0.7806
N8_5 N 0.63890(16) 0.50200(18) 0.74460(18)
H5_5 H 0.6191 0.4932 0.7355
H6_5 H 0.6597 0.4932 0.7381
C1_5 C 0.68903(15) 0.48606(14) 0.93668(15)
C2_5 C 0.64992(17) 0.50478(16) 0.89606(17)
C3_5 C 0.65491(15) 0.57274(16) 0.80629(16)
C4_5 C 0.63734(17) 0.53000(17) 0.76927(17)
Cu7_5 Cu 0.85210(2) 0.35210(2) 0.85210(2)
Cu10_5 Cu 0.83118(2) 0.39121(2) 0.91401(3)
Cu11_5 Cu 0.60879(2) 0.66882(2) 0.91401(3)
Cu14_5 Cu 0.89121(2) 0.41401(3) 0.83118(2)
Cu15_5 Cu 0.58599(3) 0.60879(2) 0.83118(2)
Cu18_5 Cu 0.91401(3) 0.33118(2) 0.89121(2)
Cu21_5 Cu 0.768750(19) 0.45348(2) 0.94519(2)
Cu22_5 Cu 0.55481(2) 0.54652(2) 0.768750(19)
Cu25_5 Cu 0.94519(2) 0.268750(19) 0.95348(2)
Cu34_5 Cu 0.45348(2) 0.55481(2) 0.731250(19)
Cu42_3 Cu 0.5000 0.5000 0.7500
Cu44_12 Cu 1.0000 0.7500 1.0000
Cu45_12 Cu 1.0000 0.2500 1.0000
Cl4_5 Cl 0.90038(4) 0.40038(4) 0.90038(4)
S4_5 S 0.78856(4) 0.53214(4) 0.95747(4)
S10_5 S 0.45747(4) 0.53214(4) 0.78856(4)
S14_5 S 0.53214(4) 0.54253(4) 0.71144(4)
S17_5 S 0.96786(4) 0.21144(4) 0.95747(4)
S26_5 S 0.66835(5) 0.68391(4) 0.89894(4)
S31_5 S 0.81609(4) 0.33165(5) 0.89894(4)
S32_5 S 0.83165(5) 0.39894(4) 0.81609(4)
S33_5 S 0.60106(4) 0.66835(5) 0.81609(4)
S36_5 S 0.89894(4) 0.31609(4) 0.83165(5)
N11_5 N 0.80483(13) 0.43064(12) 0.97902(12)
N12_5 N 0.56936(12) 0.69517(13) 0.97902(12)
N15_5 N 0.93064(12) 0.47902(12) 0.80483(13)
N16_5 N 0.52098(12) 0.56936(12) 0.80483(13)
N19_5 N 0.97902(12) 0.30483(13) 0.93064(12)
N22_5 N 0.83008(14) 0.40394(13) 0.96696(13)
N23_5 N 0.59606(13) 0.66992(14) 0.96696(13)
N26_5 N 0.90394(13) 0.46696(13) 0.83008(14)
N27_5 N 0.53304(13) 0.59606(13) 0.83008(14)
N30_5 N 0.96696(13) 0.33008(14) 0.90394(13)
N32_5 N 0.83948(13) 0.58447(13) 0.97498(12)
N35_5 N 0.58447(13) 0.33948(13) 0.97498(12)
N37_5 N 0.91553(13) 0.52502(12) 0.83948(13)
N38_5 N 0.47498(12) 0.58447(13) 0.83948(13)
H8_5 H 0.8489 0.5853 0.9535
H11_5 H 0.5853 0.3489 0.9535
H13_5 H 0.9147 0.5465 0.8489
H14_5 H 0.4535 0.5853 0.8489
N44_5 N 0.87763(17) 0.37051(17) 0.99604(16)
N45_5 N 0.62949(17) 0.62237(17) 0.99604(16)
N48_5 N 0.87051(17) 0.49604(16) 0.87763(17)
N49_5 N 0.50396(16) 0.62949(17) 0.87763(17)
N52_5 N 0.99604(16) 0.37763(17) 0.87051(17)
H20_5 H 0.8828 0.3582 0.9767
H21_5 H 0.6418 0.6172 0.9767
H24_5 H 0.8582 0.4767 0.8828
H25_5 H 0.5233 0.6418 0.8828
H28_5 H 0.9767 0.3828 0.8582
H30_5 H 0.8897 0.6331 0.9841
H33_5 H 0.6331 0.3897 0.9841
H35_5 H 0.8669 0.5159 0.8897
H36_5 H 0.4841 0.6331 0.8897
N53_5 N 0.69463(14) 0.61874(13) 0.92648(14)
N58_5 N 0.88126(13) 0.30537(14) 0.92648(14)
N59_5 N 0.80537(14) 0.42648(14) 0.88126(13)
N60_5 N 0.57352(14) 0.69463(14) 0.88126(13)
N63_5 N 0.92648(14) 0.38126(13) 0.80537(14)
N64_5 N 0.71841(13) 0.60714(12) 0.95389(13)
N69_5 N 0.89286(12) 0.28159(13) 0.95389(13)
N70_5 N 0.78159(13) 0.45389(13) 0.89286(12)
N71_5 N 0.54611(13) 0.71841(13) 0.89286(12)
N74_5 N 0.95389(13) 0.39286(12) 0.78159(13)
N75_5 N 0.71578(15) 0.66722(13) 0.95469(13)
N80_5 N 0.83278(13) 0.28422(15) 0.95469(13)
N81_5 N 0.78422(15) 0.45469(13) 0.83278(13)
N82_5 N 0.54531(13) 0.71578(15) 0.83278(13)
N85_5 N 0.95469(13) 0.33278(13) 0.78422(15)
H40_5 H 0.7194 0.6896 0.9609
H45_5 H 0.8104 0.2806 0.9609
H46_5 H 0.7806 0.4609 0.8104
H47_5 H 0.5391 0.7194 0.8104
H50_5 H 0.9609 0.3104 0.7806
N86_5 N 0.75540(18) 0.63890(16) 0.99800(18)
N91_5 N 0.86110(16) 0.24460(18) 0.99800(18)
N92_5 N 0.74460(18) 0.49800(18) 0.86110(16)
N93_5 N 0.50200(18) 0.75540(18) 0.86110(16)
N96_5 N 0.99800(18) 0.36110(16) 0.74460(18)
H53_5 H 0.7645 0.3809 0.9932
H54_5 H 0.8809 0.7645 0.9932
H57_5 H 0.7355 0.5068 0.8809
H58_5 H 0.4932 0.7645 0.8809
H64_5 H 0.7619 0.3403 0.9932
H65_5 H 0.8403 0.7619 0.9932
H68_5 H 0.7381 0.5068 0.8403
H69_5 H 0.4932 0.7619 0.8403
C6_5 C 0.81097(15) 0.56332(15) 0.98606(14)
C9_5 C 0.56332(15) 0.31097(15) 0.98606(14)
C11_5 C 0.93668(15) 0.51394(14) 0.81097(15)
C12_5 C 0.48606(14) 0.56332(15) 0.81097(15)
C18_5 C 0.85008(17) 0.39606(17) 0.99522(16)
C19_5 C 0.60394(17) 0.64992(17) 0.99522(16)
C22_5 C 0.89606(17) 0.49522(16) 0.85008(17)
C23_5 C 0.50478(16) 0.60394(17) 0.85008(17)
C26_5 C 0.99522(16) 0.35008(17) 0.89606(17)
C27_5 C 0.69371(16) 0.65491(15) 0.92726(16)
C32_5 C 0.84509(15) 0.30629(16) 0.92726(16)
C33_5 C 0.80629(16) 0.42726(16) 0.84509(15)
C34_5 C 0.57274(16) 0.69371(16) 0.84509(15)
C37_5 C 0.92726(16) 0.34509(15) 0.80629(16)
C38_5 C 0.73073(17) 0.63734(17) 0.97000(17)
C43_5 C 0.86266(17) 0.26927(17) 0.97000(17)
C44_5 C 0.76927(17) 0.47000(17) 0.86266(17)
C45_5 C 0.53000(17) 0.73073(17) 0.86266(17)
C48_5 C 0.97000(17) 0.36266(17) 0.76927(17)
Cu1_6 Cu 0.35210(2) 0.64790(2) 0.14790(2)
Cu2_6 Cu 0.33118(2) 0.58599(3) 0.10879(2)
Cu3_6 Cu 0.268750(19) 0.55481(2) 0.04652(2)
Cu4_11 Cu 0.2500 0.5000 0.0000
Cl1_6 Cl 0.40038(4) 0.59962(4) 0.09962(4)
S1_6 S 0.28856(4) 0.45747(4) 0.03214(4)
S2_6 S 0.31609(4) 0.60106(4) 0.16835(5)
N1_6 N 0.30483(13) 0.52098(12) 0.06936(12)
N2_6 N 0.33008(14) 0.53304(13) 0.09606(13)
N3_6 N 0.33948(13) 0.47498(12) 0.08447(13)
H1_6 H 0.3489 0.4535 0.0853
N4_6 N 0.37763(17) 0.50396(16) 0.12949(17)
H2_6 H 0.3828 0.5233 0.1418
H3_6 H 0.3897 0.4841 0.1331
N5_6 N 0.38126(13) 0.57352(14) 0.19463(14)
N6_6 N 0.39286(12) 0.54611(13) 0.21841(13)
N7_6 N 0.33278(13) 0.54531(13) 0.21578(15)
H4_6 H 0.3104 0.5391 0.2194
N8_6 N 0.36110(16) 0.50200(18) 0.25540(18)
H5_6 H 0.3809 0.4932 0.2645
H6_6 H 0.3403 0.4932 0.2619
C1_6 C 0.31097(15) 0.48606(14) 0.06332(15)
C2_6 C 0.35008(17) 0.50478(16) 0.10394(17)
C3_6 C 0.34509(15) 0.57274(16) 0.19371(16)
C4_6 C 0.36266(17) 0.53000(17) 0.23073(17)
Cu7_6 Cu 0.14790(2) 0.35210(2) 0.14790(2)
Cu10_6 Cu 0.16882(2) 0.39121(2) 0.08599(3)
Cu11_6 Cu 0.39121(2) 0.66882(2) 0.08599(3)
Cu14_6 Cu 0.10879(2) 0.41401(3) 0.16882(2)
Cu15_6 Cu 0.41401(3) 0.60879(2) 0.16882(2)
Cu18_6 Cu 0.08599(3) 0.33118(2) 0.10879(2)
Cu21_6 Cu 0.231250(19) 0.45348(2) 0.05481(2)
Cu22_6 Cu 0.44519(2) 0.54652(2) 0.231250(19)
Cu25_6 Cu 0.05481(2) 0.268750(19) 0.04652(2)
Cu34_6 Cu 0.54652(2) 0.55481(2) 0.268750(19)
Cl4_6 Cl 0.09962(4) 0.40038(4) 0.09962(4)
S4_6 S 0.21144(4) 0.53214(4) 0.04253(4)
S10_6 S 0.54253(4) 0.53214(4) 0.21144(4)
S14_6 S 0.46786(4) 0.54253(4) 0.28856(4)
S17_6 S 0.03214(4) 0.21144(4) 0.04253(4)
S26_6 S 0.33165(5) 0.68391(4) 0.10106(4)
S31_6 S 0.18391(4) 0.33165(5) 0.10106(4)
S32_6 S 0.16835(5) 0.39894(4) 0.18391(4)
S33_6 S 0.39894(4) 0.66835(5) 0.18391(4)
S36_6 S 0.10106(4) 0.31609(4) 0.16835(5)
N11_6 N 0.19517(13) 0.43064(12) 0.02098(12)
N12_6 N 0.43064(12) 0.69517(13) 0.02098(12)
N15_6 N 0.06936(12) 0.47902(12) 0.19517(13)
N16_6 N 0.47902(12) 0.56936(12) 0.19517(13)
N19_6 N 0.02098(12) 0.30483(13) 0.06936(12)
N22_6 N 0.16992(14) 0.40394(13) 0.03304(13)
N23_6 N 0.40394(13) 0.66992(14) 0.03304(13)
N26_6 N 0.09606(13) 0.46696(13) 0.16992(14)
N27_6 N 0.46696(13) 0.59606(13) 0.16992(14)
N30_6 N 0.03304(13) 0.33008(14) 0.09606(13)
N32_6 N 0.16052(13) 0.58447(13) 0.02502(12)
N35_6 N 0.41553(13) 0.33948(13) 0.02502(12)
N37_6 N 0.08447(13) 0.52502(12) 0.16052(13)
N38_6 N 0.52502(12) 0.58447(13) 0.16052(13)
H8_6 H 0.1511 0.5853 0.0465
H11_6 H 0.4147 0.3489 0.0465
H13_6 H 0.0853 0.5465 0.1511
H14_6 H 0.5465 0.5853 0.1511
N44_6 N 0.12237(17) 0.37051(17) 0.00396(16)
N45_6 N 0.37051(17) 0.62237(17) 0.00396(16)
N48_6 N 0.12949(17) 0.49604(16) 0.12237(17)
N49_6 N 0.49604(16) 0.62949(17) 0.12237(17)
N52_6 N 0.00396(16) 0.37763(17) 0.12949(17)
H20_6 H 0.1172 0.3582 0.0233
H21_6 H 0.3582 0.6172 0.0233
H24_6 H 0.1418 0.4767 0.1172
H25_6 H 0.4767 0.6418 0.1172
H28_6 H 0.0233 0.3828 0.1418
H30_6 H 0.1103 0.6331 0.0159
H33_6 H 0.3669 0.3897 0.0159
H35_6 H 0.1331 0.5159 0.1103
H36_6 H 0.5159 0.6331 0.1103
N53_6 N 0.30537(14) 0.61874(13) 0.07352(14)
N58_6 N 0.11874(13) 0.30537(14) 0.07352(14)
N59_6 N 0.19463(14) 0.42648(14) 0.11874(13)
N60_6 N 0.42648(14) 0.69463(14) 0.11874(13)
N63_6 N 0.07352(14) 0.38126(13) 0.19463(14)
N64_6 N 0.28159(13) 0.60714(12) 0.04611(13)
N69_6 N 0.10714(12) 0.28159(13) 0.04611(13)
N70_6 N 0.21841(13) 0.45389(13) 0.10714(12)
N71_6 N 0.45389(13) 0.71841(13) 0.10714(12)
N74_6 N 0.04611(13) 0.39286(12) 0.21841(13)
N75_6 N 0.28422(15) 0.66722(13) 0.04531(13)
N80_6 N 0.16722(13) 0.28422(15) 0.04531(13)
N81_6 N 0.21578(15) 0.45469(13) 0.16722(13)
N82_6 N 0.45469(13) 0.71578(15) 0.16722(13)
N85_6 N 0.04531(13) 0.33278(13) 0.21578(15)
H40_6 H 0.2806 0.6896 0.0391
H45_6 H 0.1896 0.2806 0.0391
H46_6 H 0.2194 0.4609 0.1896
H47_6 H 0.4609 0.7194 0.1896
H50_6 H 0.0391 0.3104 0.2194
N86_6 N 0.24460(18) 0.63890(16) 0.00200(18)
N91_6 N 0.13890(16) 0.24460(18) 0.00200(18)
N92_6 N 0.25540(18) 0.49800(18) 0.13890(16)
N93_6 N 0.49800(18) 0.75540(18) 0.13890(16)
N96_6 N 0.00200(18) 0.36110(16) 0.25540(18)
H53_6 H 0.2355 0.3809 0.0068
H54_6 H 0.1191 0.7645 0.0068
H57_6 H 0.2645 0.5068 0.1191
H58_6 H 0.5068 0.7645 0.1191
H64_6 H 0.2381 0.3403 0.0068
H65_6 H 0.1597 0.7619 0.0068
H68_6 H 0.2619 0.5068 0.1597
H69_6 H 0.5068 0.7619 0.1597
C6_6 C 0.18903(15) 0.56332(15) 0.01394(14)
C9_6 C 0.43668(15) 0.31097(15) 0.01394(14)
C11_6 C 0.06332(15) 0.51394(14) 0.18903(15)
C12_6 C 0.51394(14) 0.56332(15) 0.18903(15)
C18_6 C 0.14992(17) 0.39606(17) 0.00478(16)
C19_6 C 0.39606(17) 0.64992(17) 0.00478(16)
C22_6 C 0.10394(17) 0.49522(16) 0.14992(17)
C23_6 C 0.49522(16) 0.60394(17) 0.14992(17)
C26_6 C 0.00478(16) 0.35008(17) 0.10394(17)
C27_6 C 0.30629(16) 0.65491(15) 0.07274(16)
C32_6 C 0.15491(15) 0.30629(16) 0.07274(16)
C33_6 C 0.19371(16) 0.42726(16) 0.15491(15)
C34_6 C 0.42726(16) 0.69371(16) 0.15491(15)
C37_6 C 0.07274(16) 0.34509(15) 0.19371(16)
C38_6 C 0.26927(17) 0.63734(17) 0.03000(17)
C43_6 C 0.13734(17) 0.26927(17) 0.03000(17)
C44_6 C 0.23073(17) 0.47000(17) 0.13734(17)
C45_6 C 0.47000(17) 0.73073(17) 0.13734(17)
C48_6 C 0.03000(17) 0.36266(17) 0.23073(17)
Cu4_12 Cu 0.2500 0.5000 1.0000
Cu5_6 Cu 0.35210(2) 0.35210(2) 0.85210(2)
Cu6_6 Cu 0.14790(2) 0.64790(2) 0.85210(2)
Cu8_6 Cu 0.33118(2) 0.41401(3) 0.89121(2)
Cu9_6 Cu 0.16882(2) 0.60879(2) 0.91401(3)
Cu12_6 Cu 0.39121(2) 0.33118(2) 0.91401(3)
Cu13_6 Cu 0.10879(2) 0.58599(3) 0.83118(2)
Cu16_6 Cu 0.41401(3) 0.39121(2) 0.83118(2)
Cu17_6 Cu 0.08599(3) 0.66882(2) 0.89121(2)
Cu19_6 Cu 0.268750(19) 0.44519(2) 0.95348(2)
Cu20_6 Cu 0.231250(19) 0.54652(2) 0.94519(2)
Cu23_6 Cu 0.44519(2) 0.45348(2) 0.768750(19)
Cu24_6 Cu 0.05481(2) 0.731250(19) 0.95348(2)
Cu35_6 Cu 0.54652(2) 0.44519(2) 0.731250(19)
Cl2_6 Cl 0.40038(4) 0.40038(4) 0.90038(4)
Cl3_6 Cl 0.09962(4) 0.59962(4) 0.90038(4)
S3_6 S 0.28856(4) 0.54253(4) 0.96786(4)
S5_6 S 0.21144(4) 0.46786(4) 0.95747(4)
S11_6 S 0.54253(4) 0.46786(4) 0.78856(4)
S15_6 S 0.46786(4) 0.45747(4) 0.71144(4)
S16_6 S 0.03214(4) 0.78856(4) 0.95747(4)
S27_6 S 0.31609(4) 0.39894(4) 0.83165(5)
S28_6 S 0.33165(5) 0.31609(4) 0.89894(4)
S29_6 S 0.18391(4) 0.66835(5) 0.89894(4)
S30_6 S 0.16835(5) 0.60106(4) 0.81609(4)
S34_6 S 0.39894(4) 0.33165(5) 0.81609(4)
S35_6 S 0.10106(4) 0.68391(4) 0.83165(5)
N9_6 N 0.30483(13) 0.47902(12) 0.93064(12)
N10_6 N 0.19517(13) 0.56936(12) 0.97902(12)
N13_6 N 0.43064(12) 0.30483(13) 0.97902(12)
N14_6 N 0.06936(12) 0.52098(12) 0.80483(13)
N17_6 N 0.47902(12) 0.43064(12) 0.80483(13)
N18_6 N 0.02098(12) 0.69517(13) 0.93064(12)
N20_6 N 0.33008(14) 0.46696(13) 0.90394(13)
N21_6 N 0.16992(14) 0.59606(13) 0.96696(13)
N24_6 N 0.40394(13) 0.33008(14) 0.96696(13)
N25_6 N 0.09606(13) 0.53304(13) 0.83008(14)
N28_6 N 0.46696(13) 0.40394(13) 0.83008(14)
N29_6 N 0.03304(13) 0.66992(14) 0.90394(13)
N31_6 N 0.33948(13) 0.52502(12) 0.91553(13)
N33_6 N 0.16052(13) 0.41553(13) 0.97498(12)
N34_6 N 0.41553(13) 0.66052(13) 0.97498(12)
N36_6 N 0.08447(13) 0.47498(12) 0.83948(13)
N39_6 N 0.52502(12) 0.41553(13) 0.83948(13)
H7_6 H 0.3489 0.5465 0.9147
H9_6 H 0.1511 0.4147 0.9535
H10_6 H 0.4147 0.6511 0.9535
H12_6 H 0.0853 0.4535 0.8489
H15_6 H 0.5465 0.4147 0.8489
N42_6 N 0.37763(17) 0.49604(16) 0.87051(17)
N43_6 N 0.12237(17) 0.62949(17) 0.99604(16)
N46_6 N 0.37051(17) 0.37763(17) 0.99604(16)
N47_6 N 0.12949(17) 0.50396(16) 0.87763(17)
N50_6 N 0.49604(16) 0.37051(17) 0.87763(17)
N51_6 N 0.00396(16) 0.62237(17) 0.87051(17)
H18_6 H 0.3828 0.4767 0.8582
H19_6 H 0.1172 0.6418 0.9767
H22_6 H 0.3582 0.3828 0.9767
H23_6 H 0.1418 0.5233 0.8828
H26_6 H 0.4767 0.3582 0.8828
H27_6 H 0.0233 0.6172 0.8582
H29_6 H 0.3897 0.5159 0.8669
H31_6 H 0.1103 0.3669 0.9841
H32_6 H 0.3669 0.6103 0.9841
H34_6 H 0.1331 0.4841 0.8897
H37_6 H 0.5159 0.3669 0.8897
N54_6 N 0.38126(13) 0.42648(14) 0.80537(14)
N55_6 N 0.30537(14) 0.38126(13) 0.92648(14)
N56_6 N 0.11874(13) 0.69463(14) 0.92648(14)
N57_6 N 0.19463(14) 0.57352(14) 0.88126(13)
N61_6 N 0.42648(14) 0.30537(14) 0.88126(13)
N62_6 N 0.07352(14) 0.61874(13) 0.80537(14)
N65_6 N 0.39286(12) 0.45389(13) 0.78159(13)
N66_6 N 0.28159(13) 0.39286(12) 0.95389(13)
N67_6 N 0.10714(12) 0.71841(13) 0.95389(13)
N68_6 N 0.21841(13) 0.54611(13) 0.89286(12)
N72_6 N 0.45389(13) 0.28159(13) 0.89286(12)
N73_6 N 0.04611(13) 0.60714(12) 0.78159(13)
N76_6 N 0.33278(13) 0.45469(13) 0.78422(15)
N77_6 N 0.28422(15) 0.33278(13) 0.95469(13)
N78_6 N 0.16722(13) 0.71578(15) 0.95469(13)
N79_6 N 0.21578(15) 0.54531(13) 0.83278(13)
N83_6 N 0.45469(13) 0.28422(15) 0.83278(13)
N84_6 N 0.04531(13) 0.66722(13) 0.78422(15)
H41_6 H 0.3104 0.4609 0.7806
H42_6 H 0.2806 0.3104 0.9609
H43_6 H 0.1896 0.7194 0.9609
H44_6 H 0.2194 0.5391 0.8104
H48_6 H 0.4609 0.2806 0.8104
H49_6 H 0.0391 0.6896 0.7806
N87_6 N 0.36110(16) 0.49800(18) 0.74460(18)
N88_6 N 0.24460(18) 0.36110(16) 0.99800(18)
N89_6 N 0.13890(16) 0.75540(18) 0.99800(18)
N90_6 N 0.25540(18) 0.50200(18) 0.86110(16)
N94_6 N 0.49800(18) 0.24460(18) 0.86110(16)
N95_6 N 0.00200(18) 0.63890(16) 0.74460(18)
H51_6 H 0.2355 0.6191 0.9932
H52_6 H 0.3809 0.5068 0.7355
H55_6 H 0.2645 0.4932 0.8809
H56_6 H 0.1191 0.2355 0.9932
H59_6 H 0.5068 0.2355 0.8809
H62_6 H 0.2381 0.6597 0.9932
H63_6 H 0.3403 0.5068 0.7381
H66_6 H 0.2619 0.4932 0.8403
H67_6 H 0.1597 0.2381 0.9932
H70_6 H 0.5068 0.2381 0.8403
C5_6 C 0.31097(15) 0.51394(14) 0.93668(15)
C7_6 C 0.18903(15) 0.43668(15) 0.98606(14)
C8_6 C 0.43668(15) 0.68903(15) 0.98606(14)
C10_6 C 0.06332(15) 0.48606(14) 0.81097(15)
C13_6 C 0.51394(14) 0.43668(15) 0.81097(15)
C16_6 C 0.35008(17) 0.49522(16) 0.89606(17)
C17_6 C 0.14992(17) 0.60394(17) 0.99522(16)
C20_6 C 0.39606(17) 0.35008(17) 0.99522(16)
C21_6 C 0.10394(17) 0.50478(16) 0.85008(17)
C24_6 C 0.49522(16) 0.39606(17) 0.85008(17)
C25_6 C 0.00478(16) 0.64992(17) 0.89606(17)
C28_6 C 0.34509(15) 0.42726(16) 0.80629(16)
C29_6 C 0.30629(16) 0.34509(15) 0.92726(16)
C30_6 C 0.15491(15) 0.69371(16) 0.92726(16)
C31_6 C 0.19371(16) 0.57274(16) 0.84509(15)
C35_6 C 0.42726(16) 0.30629(16) 0.84509(15)
C36_6 C 0.07274(16) 0.65491(15) 0.80629(16)
C39_6 C 0.36266(17) 0.47000(17) 0.76927(17)
C40_6 C 0.26927(17) 0.36266(17) 0.97000(17)
C41_6 C 0.13734(17) 0.73073(17) 0.97000(17)
C42_6 C 0.23073(17) 0.53000(17) 0.86266(17)
C46_6 C 0.47000(17) 0.26927(17) 0.86266(17)
C47_6 C 0.03000(17) 0.63734(17) 0.76927(17)
Cu37_6 Cu 0.95348(2) 0.231250(19) 0.05481(2)
S13_6 S 0.95747(4) 0.28856(4) 0.03214(4)
N41_6 N 0.97498(12) 0.33948(13) 0.08447(13)
H17_6 H 0.9535 0.3489 0.0853
H39_6 H 0.9841 0.3897 0.1331
H61_6 H 0.9932 0.3809 0.2645
H72_6 H 0.9932 0.3403 0.2619
C15_6 C 0.98606(14) 0.31097(15) 0.06332(15)
Cu36_6 Cu 0.95348(2) 0.768750(19) 0.94519(2)
S12_6 S 0.95747(4) 0.71144(4) 0.96786(4)
N40_6 N 0.97498(12) 0.66052(13) 0.91553(13)
H16_6 H 0.9535 0.6511 0.9147
H38_6 H 0.9841 0.6103 0.8669
H60_6 H 0.9932 0.6191 0.7355
H71_6 H 0.9932 0.6597 0.7381
C14_6 C 0.98606(14) 0.68903(15) 0.93668(15)
N31_7 N 0.08447(13) 0.16052(13) 0.02502(12)
N34_7 N 0.02502(12) 0.08447(13) 0.16052(13)
H7_7 H 0.0853 0.1511 0.0465
H10_7 H 0.0465 0.0853 0.1511
H29_7 H 0.1331 0.1103 0.0159
H32_7 H 0.0159 0.1331 0.1103
H51_7 H 0.0068 0.2645 0.1191
H52_7 H 0.2645 0.1191 0.0068
H62_7 H 0.0068 0.2619 0.1597
H63_7 H 0.2619 0.1597 0.0068
C5_7 C 0.06332(15) 0.18903(15) 0.01394(14)
C8_7 C 0.01394(14) 0.06332(15) 0.18903(15)
Cu5_7 Cu 0.14790(2) 0.14790(2) 0.85210(2)
Cu8_7 Cu 0.10879(2) 0.16882(2) 0.91401(3)
Cu12_7 Cu 0.08599(3) 0.10879(2) 0.83118(2)
Cu16_7 Cu 0.16882(2) 0.08599(3) 0.89121(2)
Cl2_7 Cl 0.09962(4) 0.09962(4) 0.90038(4)
S27_7 S 0.16835(5) 0.18391(4) 0.89894(4)
S28_7 S 0.10106(4) 0.16835(5) 0.81609(4)
S34_7 S 0.18391(4) 0.10106(4) 0.83165(5)
N9_7 N 0.06936(12) 0.19517(13) 0.97902(12)
N13_7 N 0.02098(12) 0.06936(12) 0.80483(13)
N17_7 N 0.19517(13) 0.02098(12) 0.93064(12)
N20_7 N 0.09606(13) 0.16992(14) 0.96696(13)
N24_7 N 0.03304(13) 0.09606(13) 0.83008(14)
N28_7 N 0.16992(14) 0.03304(13) 0.90394(13)
N42_7 N 0.12949(17) 0.12237(17) 0.99604(16)
N46_7 N 0.00396(16) 0.12949(17) 0.87763(17)
N50_7 N 0.12237(17) 0.00396(16) 0.87051(17)
H18_7 H 0.1418 0.1172 0.9767
H22_7 H 0.0233 0.1418 0.8828
H26_7 H 0.1172 0.0233 0.8582
N54_7 N 0.19463(14) 0.11874(13) 0.92648(14)
N55_7 N 0.07352(14) 0.19463(14) 0.88126(13)
N61_7 N 0.11874(13) 0.07352(14) 0.80537(14)
N65_7 N 0.21841(13) 0.10714(12) 0.95389(13)
N66_7 N 0.04611(13) 0.21841(13) 0.89286(12)
N72_7 N 0.10714(12) 0.04611(13) 0.78159(13)
N76_7 N 0.21578(15) 0.16722(13) 0.95469(13)
N77_7 N 0.04531(13) 0.21578(15) 0.83278(13)
N83_7 N 0.16722(13) 0.04531(13) 0.78422(15)
H41_7 H 0.2194 0.1896 0.9609
H42_7 H 0.0391 0.2194 0.8104
H48_7 H 0.1896 0.0391 0.7806
N87_7 N 0.25540(18) 0.13890(16) 0.99800(18)
N88_7 N 0.00200(18) 0.25540(18) 0.86110(16)
N94_7 N 0.13890(16) 0.00200(18) 0.74460(18)
C16_7 C 0.10394(17) 0.14992(17) 0.99522(16)
C20_7 C 0.00478(16) 0.10394(17) 0.85008(17)
C24_7 C 0.14992(17) 0.00478(16) 0.89606(17)
C28_7 C 0.19371(16) 0.15491(15) 0.92726(16)
C29_7 C 0.07274(16) 0.19371(16) 0.84509(15)
C35_7 C 0.15491(15) 0.07274(16) 0.80629(16)
C39_7 C 0.23073(17) 0.13734(17) 0.97000(17)
C40_7 C 0.03000(17) 0.23073(17) 0.86266(17)
C46_7 C 0.13734(17) 0.03000(17) 0.76927(17)
N39_7 N 0.16052(13) 0.97498(12) 0.91553(13)
H15_7 H 0.1511 0.9535 0.9147
H37_7 H 0.1103 0.9841 0.8669
H59_7 H 0.1191 0.9932 0.7355
H70_7 H 0.1597 0.9932 0.7381
C13_7 C 0.18903(15) 0.98606(14) 0.93668(15)
Cu1_7 Cu 0.85210(2) 0.14790(2) 0.14790(2)
Cu2_7 Cu 0.89121(2) 0.16882(2) 0.08599(3)
Cl1_7 Cl 0.90038(4) 0.09962(4) 0.09962(4)
S2_7 S 0.83165(5) 0.18391(4) 0.10106(4)
N1_7 N 0.93064(12) 0.19517(13) 0.02098(12)
N2_7 N 0.90394(13) 0.16992(14) 0.03304(13)
N4_7 N 0.87051(17) 0.12237(17) 0.00396(16)
H2_7 H 0.8582 0.1172 0.0233
N5_7 N 0.80537(14) 0.11874(13) 0.07352(14)
N6_7 N 0.78159(13) 0.10714(12) 0.04611(13)
N7_7 N 0.78422(15) 0.16722(13) 0.04531(13)
H4_7 H 0.7806 0.1896 0.0391
N8_7 N 0.74460(18) 0.13890(16) 0.00200(18)
C2_7 C 0.89606(17) 0.14992(17) 0.00478(16)
C3_7 C 0.80629(16) 0.15491(15) 0.07274(16)
C4_7 C 0.76927(17) 0.13734(17) 0.03000(17)
Cu11_7 Cu 0.91401(3) 0.10879(2) 0.16882(2)
Cu15_7 Cu 0.83118(2) 0.08599(3) 0.10879(2)
S26_7 S 0.89894(4) 0.16835(5) 0.18391(4)
S33_7 S 0.81609(4) 0.10106(4) 0.16835(5)
N12_7 N 0.97902(12) 0.06936(12) 0.19517(13)
N16_7 N 0.80483(13) 0.02098(12) 0.06936(12)
N23_7 N 0.96696(13) 0.09606(13) 0.16992(14)
N27_7 N 0.83008(14) 0.03304(13) 0.09606(13)
N45_7 N 0.99604(16) 0.12949(17) 0.12237(17)
N49_7 N 0.87763(17) 0.00396(16) 0.12949(17)
H21_7 H 0.9767 0.1418 0.1172
H25_7 H 0.8828 0.0233 0.1418
N53_7 N 0.92648(14) 0.19463(14) 0.11874(13)
N60_7 N 0.88126(13) 0.07352(14) 0.19463(14)
N64_7 N 0.95389(13) 0.21841(13) 0.10714(12)
N71_7 N 0.89286(12) 0.04611(13) 0.21841(13)
N75_7 N 0.95469(13) 0.21578(15) 0.16722(13)
N82_7 N 0.83278(13) 0.04531(13) 0.21578(15)
H40_7 H 0.9609 0.2194 0.1896
H47_7 H 0.8104 0.0391 0.2194
N86_7 N 0.99800(18) 0.25540(18) 0.13890(16)
N93_7 N 0.86110(16) 0.00200(18) 0.25540(18)
C19_7 C 0.99522(16) 0.10394(17) 0.14992(17)
C23_7 C 0.85008(17) 0.00478(16) 0.10394(17)
C27_7 C 0.92726(16) 0.19371(16) 0.15491(15)
C34_7 C 0.84509(15) 0.07274(16) 0.19371(16)
C38_7 C 0.97000(17) 0.23073(17) 0.13734(17)
C45_7 C 0.86266(17) 0.03000(17) 0.23073(17)
N3_7 N 0.91553(13) 0.16052(13) 0.97498(12)
H1_7 H 0.9147 0.1511 0.9535
H3_7 H 0.8669 0.1103 0.9841
H5_7 H 0.7355 0.1191 0.9932
H6_7 H 0.7381 0.1597 0.9932
C1_7 C 0.93668(15) 0.18903(15) 0.98606(14)
N35_7 N 0.97498(12) 0.08447(13) 0.83948(13)
H11_7 H 0.9535 0.0853 0.8489
H33_7 H 0.9841 0.1331 0.8897
H53_7 H 0.9932 0.2645 0.8809
H64_7 H 0.9932 0.2619 0.8403
C9_7 C 0.98606(14) 0.06332(15) 0.81097(15)
N38_7 N 0.83948(13) 0.97498(12) 0.08447(13)
H14_7 H 0.8489 0.9535 0.0853
H36_7 H 0.8897 0.9841 0.1331
H58_7 H 0.8809 0.9932 0.2645
H69_7 H 0.8403 0.9932 0.2619
C12_7 C 0.81097(15) 0.98606(14) 0.06332(15)
N38_8 N 0.16052(13) 0.02502(12) 0.08447(13)
H14_8 H 0.1511 0.0465 0.0853
H36_8 H 0.1103 0.0159 0.1331
H58_8 H 0.1191 0.0068 0.2645
H69_8 H 0.1597 0.0068 0.2619
C12_8 C 0.18903(15) 0.01394(14) 0.06332(15)
Cu1_8 Cu 0.14790(2) 0.85210(2) 0.14790(2)
Cu2_8 Cu 0.10879(2) 0.83118(2) 0.08599(3)
Cl1_8 Cl 0.09962(4) 0.90038(4) 0.09962(4)
S2_8 S 0.16835(5) 0.81609(4) 0.10106(4)
N1_8 N 0.06936(12) 0.80483(13) 0.02098(12)
N2_8 N 0.09606(13) 0.83008(14) 0.03304(13)
N4_8 N 0.12949(17) 0.87763(17) 0.00396(16)
H2_8 H 0.1418 0.8828 0.0233
N5_8 N 0.19463(14) 0.88126(13) 0.07352(14)
N6_8 N 0.21841(13) 0.89286(12) 0.04611(13)
N7_8 N 0.21578(15) 0.83278(13) 0.04531(13)
H4_8 H 0.2194 0.8104 0.0391
N8_8 N 0.25540(18) 0.86110(16) 0.00200(18)
C2_8 C 0.10394(17) 0.85008(17) 0.00478(16)
C3_8 C 0.19371(16) 0.84509(15) 0.07274(16)
C4_8 C 0.23073(17) 0.86266(17) 0.03000(17)
Cu11_8 Cu 0.08599(3) 0.89121(2) 0.16882(2)
Cu15_8 Cu 0.16882(2) 0.91401(3) 0.10879(2)
S26_8 S 0.10106(4) 0.83165(5) 0.18391(4)
S33_8 S 0.18391(4) 0.89894(4) 0.16835(5)
N12_8 N 0.02098(12) 0.93064(12) 0.19517(13)
N16_8 N 0.19517(13) 0.97902(12) 0.06936(12)
N23_8 N 0.03304(13) 0.90394(13) 0.16992(14)
N27_8 N 0.16992(14) 0.96696(13) 0.09606(13)
N45_8 N 0.00396(16) 0.87051(17) 0.12237(17)
N49_8 N 0.12237(17) 0.99604(16) 0.12949(17)
H21_8 H 0.0233 0.8582 0.1172
H25_8 H 0.1172 0.9767 0.1418
N53_8 N 0.07352(14) 0.80537(14) 0.11874(13)
N60_8 N 0.11874(13) 0.92648(14) 0.19463(14)
N64_8 N 0.04611(13) 0.78159(13) 0.10714(12)
N71_8 N 0.10714(12) 0.95389(13) 0.21841(13)
N75_8 N 0.04531(13) 0.78422(15) 0.16722(13)
N82_8 N 0.16722(13) 0.95469(13) 0.21578(15)
H40_8 H 0.0391 0.7806 0.1896
H47_8 H 0.1896 0.9609 0.2194
N86_8 N 0.00200(18) 0.74460(18) 0.13890(16)
N93_8 N 0.13890(16) 0.99800(18) 0.25540(18)
C19_8 C 0.00478(16) 0.89606(17) 0.14992(17)
C23_8 C 0.14992(17) 0.99522(16) 0.10394(17)
C27_8 C 0.07274(16) 0.80629(16) 0.15491(15)
C34_8 C 0.15491(15) 0.92726(16) 0.19371(16)
C38_8 C 0.03000(17) 0.76927(17) 0.13734(17)
C45_8 C 0.13734(17) 0.97000(17) 0.23073(17)
N3_8 N 0.08447(13) 0.83948(13) 0.97498(12)
H1_8 H 0.0853 0.8489 0.9535
H3_8 H 0.1331 0.8897 0.9841
H5_8 H 0.2645 0.8809 0.9932
H6_8 H 0.2619 0.8403 0.9932
C1_8 C 0.06332(15) 0.81097(15) 0.98606(14)
N35_8 N 0.02502(12) 0.91553(13) 0.83948(13)
H11_8 H 0.0465 0.9147 0.8489
H33_8 H 0.0159 0.8669 0.8897
H53_8 H 0.0068 0.7355 0.8809
H64_8 H 0.0068 0.7381 0.8403
C9_8 C 0.01394(14) 0.93668(15) 0.81097(15)
N39_8 N 0.83948(13) 0.02502(12) 0.91553(13)
H15_8 H 0.8489 0.0465 0.9147
H37_8 H 0.8897 0.0159 0.8669
H59_8 H 0.8809 0.0068 0.7355
H70_8 H 0.8403 0.0068 0.7381
C13_8 C 0.81097(15) 0.01394(14) 0.93668(15)
N31_8 N 0.91553(13) 0.83948(13) 0.02502(12)
N34_8 N 0.97498(12) 0.91553(13) 0.16052(13)
H7_8 H 0.9147 0.8489 0.0465
H10_8 H 0.9535 0.9147 0.1511
H29_8 H 0.8669 0.8897 0.0159
H32_8 H 0.9841 0.8669 0.1103
H51_8 H 0.9932 0.7355 0.1191
H52_8 H 0.7355 0.8809 0.0068
H62_8 H 0.9932 0.7381 0.1597
H63_8 H 0.7381 0.8403 0.0068
C5_8 C 0.93668(15) 0.81097(15) 0.01394(14)
C8_8 C 0.98606(14) 0.93668(15) 0.18903(15)
Cu5_8 Cu 0.85210(2) 0.85210(2) 0.85210(2)
Cu8_8 Cu 0.89121(2) 0.83118(2) 0.91401(3)
Cu12_8 Cu 0.91401(3) 0.89121(2) 0.83118(2)
Cu16_8 Cu 0.83118(2) 0.91401(3) 0.89121(2)
Cl2_8 Cl 0.90038(4) 0.90038(4) 0.90038(4)
S27_8 S 0.83165(5) 0.81609(4) 0.89894(4)
S28_8 S 0.89894(4) 0.83165(5) 0.81609(4)
S34_8 S 0.81609(4) 0.89894(4) 0.83165(5)
N9_8 N 0.93064(12) 0.80483(13) 0.97902(12)
N13_8 N 0.97902(12) 0.93064(12) 0.80483(13)
N17_8 N 0.80483(13) 0.97902(12) 0.93064(12)
N20_8 N 0.90394(13) 0.83008(14) 0.96696(13)
N24_8 N 0.96696(13) 0.90394(13) 0.83008(14)
N28_8 N 0.83008(14) 0.96696(13) 0.90394(13)
N42_8 N 0.87051(17) 0.87763(17) 0.99604(16)
N46_8 N 0.99604(16) 0.87051(17) 0.87763(17)
N50_8 N 0.87763(17) 0.99604(16) 0.87051(17)
H18_8 H 0.8582 0.8828 0.9767
H22_8 H 0.9767 0.8582 0.8828
H26_8 H 0.8828 0.9767 0.8582
N54_8 N 0.80537(14) 0.88126(13) 0.92648(14)
N55_8 N 0.92648(14) 0.80537(14) 0.88126(13)
N61_8 N 0.88126(13) 0.92648(14) 0.80537(14)
N65_8 N 0.78159(13) 0.89286(12) 0.95389(13)
N66_8 N 0.95389(13) 0.78159(13) 0.89286(12)
N72_8 N 0.89286(12) 0.95389(13) 0.78159(13)
N76_8 N 0.78422(15) 0.83278(13) 0.95469(13)
N77_8 N 0.95469(13) 0.78422(15) 0.83278(13)
N83_8 N 0.83278(13) 0.95469(13) 0.78422(15)
H41_8 H 0.7806 0.8104 0.9609
H42_8 H 0.9609 0.7806 0.8104
H48_8 H 0.8104 0.9609 0.7806
N87_8 N 0.74460(18) 0.86110(16) 0.99800(18)
N88_8 N 0.99800(18) 0.74460(18) 0.86110(16)
N94_8 N 0.86110(16) 0.99800(18) 0.74460(18)
C16_8 C 0.89606(17) 0.85008(17) 0.99522(16)
C20_8 C 0.99522(16) 0.89606(17) 0.85008(17)
C24_8 C 0.85008(17) 0.99522(16) 0.89606(17)
C28_8 C 0.80629(16) 0.84509(15) 0.92726(16)
C29_8 C 0.92726(16) 0.80629(16) 0.84509(15)
C35_8 C 0.84509(15) 0.92726(16) 0.80629(16)
C39_8 C 0.76927(17) 0.86266(17) 0.97000(17)
C40_8 C 0.97000(17) 0.76927(17) 0.86266(17)
C46_8 C 0.86266(17) 0.97000(17) 0.76927(17)
Cu6_7 Cu 0.64790(2) 0.64790(2) 0.35210(2)
Cu7_7 Cu 0.35210(2) 0.35210(2) 0.35210(2)
Cu9_7 Cu 0.60879(2) 0.58599(3) 0.33118(2)
Cu10_7 Cu 0.39121(2) 0.41401(3) 0.33118(2)
Cu13_7 Cu 0.58599(3) 0.66882(2) 0.39121(2)
Cu14_7 Cu 0.41401(3) 0.33118(2) 0.39121(2)
Cu17_7 Cu 0.66882(2) 0.60879(2) 0.41401(3)
Cu18_7 Cu 0.33118(2) 0.39121(2) 0.41401(3)
Cl3_7 Cl 0.59962(4) 0.59962(4) 0.40038(4)
Cl4_7 Cl 0.40038(4) 0.40038(4) 0.40038(4)
S29_7 S 0.66835(5) 0.60106(4) 0.31609(4)
S30_7 S 0.60106(4) 0.68391(4) 0.33165(5)
S31_7 S 0.33165(5) 0.39894(4) 0.31609(4)
S32_7 S 0.39894(4) 0.31609(4) 0.33165(5)
S35_7 S 0.68391(4) 0.66835(5) 0.39894(4)
S36_7 S 0.31609(4) 0.33165(5) 0.39894(4)
N10_7 N 0.56936(12) 0.52098(12) 0.30483(13)
N11_7 N 0.43064(12) 0.47902(12) 0.30483(13)
N14_7 N 0.52098(12) 0.69517(13) 0.43064(12)
N15_7 N 0.47902(12) 0.30483(13) 0.43064(12)
N18_7 N 0.69517(13) 0.56936(12) 0.47902(12)
N19_7 N 0.30483(13) 0.43064(12) 0.47902(12)
N21_7 N 0.59606(13) 0.53304(13) 0.33008(14)
N22_7 N 0.40394(13) 0.46696(13) 0.33008(14)
N25_7 N 0.53304(13) 0.66992(14) 0.40394(13)
N26_7 N 0.46696(13) 0.33008(14) 0.40394(13)
N29_7 N 0.66992(14) 0.59606(13) 0.46696(13)
N30_7 N 0.33008(14) 0.40394(13) 0.46696(13)
N32_7 N 0.58447(13) 0.47498(12) 0.33948(13)
N33_7 N 0.41553(13) 0.52502(12) 0.33948(13)
N36_7 N 0.47498(12) 0.66052(13) 0.41553(13)
N37_7 N 0.52502(12) 0.33948(13) 0.41553(13)
N40_7 N 0.66052(13) 0.58447(13) 0.52502(12)
N41_7 N 0.33948(13) 0.41553(13) 0.52502(12)
H8_7 H 0.5853 0.4535 0.3489
H9_7 H 0.4147 0.5465 0.3489
H12_7 H 0.4535 0.6511 0.4147
H13_7 H 0.5465 0.3489 0.4147
H16_7 H 0.6511 0.5853 0.5465
H17_7 H 0.3489 0.4147 0.5465
N43_7 N 0.62949(17) 0.50396(16) 0.37763(17)
N44_7 N 0.37051(17) 0.49604(16) 0.37763(17)
N47_7 N 0.50396(16) 0.62237(17) 0.37051(17)
N48_7 N 0.49604(16) 0.37763(17) 0.37051(17)
N51_7 N 0.62237(17) 0.62949(17) 0.49604(16)
N52_7 N 0.37763(17) 0.37051(17) 0.49604(16)
H19_7 H 0.6418 0.5233 0.3828
H20_7 H 0.3582 0.4767 0.3828
H23_7 H 0.5233 0.6172 0.3582
H24_7 H 0.4767 0.3828 0.3582
H27_7 H 0.6172 0.6418 0.4767
H28_7 H 0.3828 0.3582 0.4767
H30_7 H 0.6331 0.4841 0.3897
H31_7 H 0.3669 0.5159 0.3897
H34_7 H 0.4841 0.6103 0.3669
H35_7 H 0.5159 0.3897 0.3669
H38_7 H 0.6103 0.6331 0.5159
H39_7 H 0.3897 0.3669 0.5159
N56_7 N 0.69463(14) 0.57352(14) 0.38126(13)
N57_7 N 0.57352(14) 0.61874(13) 0.30537(14)
N58_7 N 0.30537(14) 0.42648(14) 0.38126(13)
N59_7 N 0.42648(14) 0.38126(13) 0.30537(14)
N62_7 N 0.61874(13) 0.69463(14) 0.42648(14)
N63_7 N 0.38126(13) 0.30537(14) 0.42648(14)
N67_7 N 0.71841(13) 0.54611(13) 0.39286(12)
N68_7 N 0.54611(13) 0.60714(12) 0.28159(13)
N69_7 N 0.28159(13) 0.45389(13) 0.39286(12)
N70_7 N 0.45389(13) 0.39286(12) 0.28159(13)
N73_7 N 0.60714(12) 0.71841(13) 0.45389(13)
N74_7 N 0.39286(12) 0.28159(13) 0.45389(13)
N78_7 N 0.71578(15) 0.54531(13) 0.33278(13)
N79_7 N 0.54531(13) 0.66722(13) 0.28422(15)
N80_7 N 0.28422(15) 0.45469(13) 0.33278(13)
N81_7 N 0.45469(13) 0.33278(13) 0.28422(15)
N84_7 N 0.66722(13) 0.71578(15) 0.45469(13)
N85_7 N 0.33278(13) 0.28422(15) 0.45469(13)
H43_7 H 0.7194 0.5391 0.3104
H44_7 H 0.5391 0.6896 0.2806
H45_7 H 0.2806 0.4609 0.3104
H46_7 H 0.4609 0.3104 0.2806
H49_7 H 0.6896 0.7194 0.4609
H50_7 H 0.3104 0.2806 0.4609
N89_7 N 0.75540(18) 0.50200(18) 0.36110(16)
N90_7 N 0.50200(18) 0.63890(16) 0.24460(18)
N91_7 N 0.24460(18) 0.49800(18) 0.36110(16)
N92_7 N 0.49800(18) 0.36110(16) 0.24460(18)
N95_7 N 0.63890(16) 0.75540(18) 0.49800(18)
N96_7 N 0.36110(16) 0.24460(18) 0.49800(18)
H54_7 H 0.7645 0.4932 0.3809
H55_7 H 0.4932 0.6191 0.2355
H56_7 H 0.2355 0.5068 0.3809
H57_7 H 0.5068 0.3809 0.2355
H60_7 H 0.6191 0.7645 0.5068
H61_7 H 0.3809 0.2355 0.5068
H65_7 H 0.7619 0.4932 0.3403
H66_7 H 0.4932 0.6597 0.2381
H67_7 H 0.2381 0.5068 0.3403
H68_7 H 0.5068 0.3403 0.2381
H71_7 H 0.6597 0.7619 0.5068
H72_7 H 0.3403 0.2381 0.5068
C6_7 C 0.56332(15) 0.48606(14) 0.31097(15)
C7_7 C 0.43668(15) 0.51394(14) 0.31097(15)
C10_7 C 0.48606(14) 0.68903(15) 0.43668(15)
C11_7 C 0.51394(14) 0.31097(15) 0.43668(15)
C14_7 C 0.68903(15) 0.56332(15) 0.51394(14)
C15_7 C 0.31097(15) 0.43668(15) 0.51394(14)
C17_7 C 0.60394(17) 0.50478(16) 0.35008(17)
C18_7 C 0.39606(17) 0.49522(16) 0.35008(17)
C21_7 C 0.50478(16) 0.64992(17) 0.39606(17)
C22_7 C 0.49522(16) 0.35008(17) 0.39606(17)
C25_7 C 0.64992(17) 0.60394(17) 0.49522(16)
C26_7 C 0.35008(17) 0.39606(17) 0.49522(16)
C30_7 C 0.69371(16) 0.57274(16) 0.34509(15)
C31_7 C 0.57274(16) 0.65491(15) 0.30629(16)
C32_7 C 0.30629(16) 0.42726(16) 0.34509(15)
C33_7 C 0.42726(16) 0.34509(15) 0.30629(16)
C36_7 C 0.65491(15) 0.69371(16) 0.42726(16)
C37_7 C 0.34509(15) 0.30629(16) 0.42726(16)
C41_7 C 0.73073(17) 0.53000(17) 0.36266(17)
C42_7 C 0.53000(17) 0.63734(17) 0.26927(17)
C43_7 C 0.26927(17) 0.47000(17) 0.36266(17)
C44_7 C 0.47000(17) 0.36266(17) 0.26927(17)
C47_7 C 0.63734(17) 0.73073(17) 0.47000(17)
C48_7 C 0.36266(17) 0.26927(17) 0.47000(17)
Cu6_8 Cu 0.64790(2) 0.35210(2) 0.64790(2)
Cu7_8 Cu 0.35210(2) 0.64790(2) 0.64790(2)
Cu9_8 Cu 0.60879(2) 0.41401(3) 0.66882(2)
Cu10_8 Cu 0.39121(2) 0.58599(3) 0.66882(2)
Cu13_8 Cu 0.58599(3) 0.33118(2) 0.60879(2)
Cu14_8 Cu 0.41401(3) 0.66882(2) 0.60879(2)
Cu17_8 Cu 0.66882(2) 0.39121(2) 0.58599(3)
Cu18_8 Cu 0.33118(2) 0.60879(2) 0.58599(3)
Cl3_8 Cl 0.59962(4) 0.40038(4) 0.59962(4)
Cl4_8 Cl 0.40038(4) 0.59962(4) 0.59962(4)
S29_8 S 0.66835(5) 0.39894(4) 0.68391(4)
S30_8 S 0.60106(4) 0.31609(4) 0.66835(5)
S31_8 S 0.33165(5) 0.60106(4) 0.68391(4)
S32_8 S 0.39894(4) 0.68391(4) 0.66835(5)
S35_8 S 0.68391(4) 0.33165(5) 0.60106(4)
S36_8 S 0.31609(4) 0.66835(5) 0.60106(4)
N10_8 N 0.56936(12) 0.47902(12) 0.69517(13)
N11_8 N 0.43064(12) 0.52098(12) 0.69517(13)
N14_8 N 0.52098(12) 0.30483(13) 0.56936(12)
N15_8 N 0.47902(12) 0.69517(13) 0.56936(12)
N18_8 N 0.69517(13) 0.43064(12) 0.52098(12)
N19_8 N 0.30483(13) 0.56936(12) 0.52098(12)
N21_8 N 0.59606(13) 0.46696(13) 0.66992(14)
N22_8 N 0.40394(13) 0.53304(13) 0.66992(14)
N25_8 N 0.53304(13) 0.33008(14) 0.59606(13)
N26_8 N 0.46696(13) 0.66992(14) 0.59606(13)
N29_8 N 0.66992(14) 0.40394(13) 0.53304(13)
N30_8 N 0.33008(14) 0.59606(13) 0.53304(13)
N32_8 N 0.58447(13) 0.52502(12) 0.66052(13)
N33_8 N 0.41553(13) 0.47498(12) 0.66052(13)
N36_8 N 0.47498(12) 0.33948(13) 0.58447(13)
N37_8 N 0.52502(12) 0.66052(13) 0.58447(13)
N40_8 N 0.66052(13) 0.41553(13) 0.47498(12)
N41_8 N 0.33948(13) 0.58447(13) 0.47498(12)
H8_8 H 0.5853 0.5465 0.6511
H9_8 H 0.4147 0.4535 0.6511
H12_8 H 0.4535 0.3489 0.5853
H13_8 H 0.5465 0.6511 0.5853
H16_8 H 0.6511 0.4147 0.4535
H17_8 H 0.3489 0.5853 0.4535
N43_8 N 0.62949(17) 0.49604(16) 0.62237(17)
N44_8 N 0.37051(17) 0.50396(16) 0.62237(17)
N47_8 N 0.50396(16) 0.37763(17) 0.62949(17)
N48_8 N 0.49604(16) 0.62237(17) 0.62949(17)
N51_8 N 0.62237(17) 0.37051(17) 0.50396(16)
N52_8 N 0.37763(17) 0.62949(17) 0.50396(16)
H19_8 H 0.6418 0.4767 0.6172
H20_8 H 0.3582 0.5233 0.6172
H23_8 H 0.5233 0.3828 0.6418
H24_8 H 0.4767 0.6172 0.6418
H27_8 H 0.6172 0.3582 0.5233
H28_8 H 0.3828 0.6418 0.5233
H30_8 H 0.6331 0.5159 0.6103
H31_8 H 0.3669 0.4841 0.6103
H34_8 H 0.4841 0.3897 0.6331
H35_8 H 0.5159 0.6103 0.6331
H38_8 H 0.6103 0.3669 0.4841
H39_8 H 0.3897 0.6331 0.4841
N56_8 N 0.69463(14) 0.42648(14) 0.61874(13)
N57_8 N 0.57352(14) 0.38126(13) 0.69463(14)
N58_8 N 0.30537(14) 0.57352(14) 0.61874(13)
N59_8 N 0.42648(14) 0.61874(13) 0.69463(14)
N62_8 N 0.61874(13) 0.30537(14) 0.57352(14)
N63_8 N 0.38126(13) 0.69463(14) 0.57352(14)
N67_8 N 0.71841(13) 0.45389(13) 0.60714(12)
N68_8 N 0.54611(13) 0.39286(12) 0.71841(13)
N69_8 N 0.28159(13) 0.54611(13) 0.60714(12)
N70_8 N 0.45389(13) 0.60714(12) 0.71841(13)
N73_8 N 0.60714(12) 0.28159(13) 0.54611(13)
N74_8 N 0.39286(12) 0.71841(13) 0.54611(13)
N78_8 N 0.71578(15) 0.45469(13) 0.66722(13)
N79_8 N 0.54531(13) 0.33278(13) 0.71578(15)
N80_8 N 0.28422(15) 0.54531(13) 0.66722(13)
N81_8 N 0.45469(13) 0.66722(13) 0.71578(15)
N84_8 N 0.66722(13) 0.28422(15) 0.54531(13)
N85_8 N 0.33278(13) 0.71578(15) 0.54531(13)
H43_8 H 0.7194 0.4609 0.6896
H44_8 H 0.5391 0.3104 0.7194
H45_8 H 0.2806 0.5391 0.6896
H46_8 H 0.4609 0.6896 0.7194
H49_8 H 0.6896 0.2806 0.5391
H50_8 H 0.3104 0.7194 0.5391
N89_8 N 0.75540(18) 0.49800(18) 0.63890(16)
N90_8 N 0.50200(18) 0.36110(16) 0.75540(18)
N91_8 N 0.24460(18) 0.50200(18) 0.63890(16)
N92_8 N 0.49800(18) 0.63890(16) 0.75540(18)
N95_8 N 0.63890(16) 0.24460(18) 0.50200(18)
N96_8 N 0.36110(16) 0.75540(18) 0.50200(18)
H54_8 H 0.7645 0.5068 0.6191
H55_8 H 0.4932 0.3809 0.7645
H56_8 H 0.2355 0.4932 0.6191
H57_8 H 0.5068 0.6191 0.7645
H60_8 H 0.6191 0.2355 0.4932
H61_8 H 0.3809 0.7645 0.4932
H65_8 H 0.7619 0.5068 0.6597
H66_8 H 0.4932 0.3403 0.7619
H67_8 H 0.2381 0.4932 0.6597
H68_8 H 0.5068 0.6597 0.7619
H71_8 H 0.6597 0.2381 0.4932
H72_8 H 0.3403 0.7619 0.4932
C6_8 C 0.56332(15) 0.51394(14) 0.68903(15)
C7_8 C 0.43668(15) 0.48606(14) 0.68903(15)
C10_8 C 0.48606(14) 0.31097(15) 0.56332(15)
C11_8 C 0.51394(14) 0.68903(15) 0.56332(15)
C14_8 C 0.68903(15) 0.43668(15) 0.48606(14)
C15_8 C 0.31097(15) 0.56332(15) 0.48606(14)
C17_8 C 0.60394(17) 0.49522(16) 0.64992(17)
C18_8 C 0.39606(17) 0.50478(16) 0.64992(17)
C21_8 C 0.50478(16) 0.35008(17) 0.60394(17)
C22_8 C 0.49522(16) 0.64992(17) 0.60394(17)
C25_8 C 0.64992(17) 0.39606(17) 0.50478(16)
C26_8 C 0.35008(17) 0.60394(17) 0.50478(16)
C30_8 C 0.69371(16) 0.42726(16) 0.65491(15)
C31_8 C 0.57274(16) 0.34509(15) 0.69371(16)
C32_8 C 0.30629(16) 0.57274(16) 0.65491(15)
C33_8 C 0.42726(16) 0.65491(15) 0.69371(16)
C36_8 C 0.65491(15) 0.30629(16) 0.57274(16)
C37_8 C 0.34509(15) 0.69371(16) 0.57274(16)
C41_8 C 0.73073(17) 0.47000(17) 0.63734(17)
C42_8 C 0.53000(17) 0.36266(17) 0.73073(17)
C43_8 C 0.26927(17) 0.53000(17) 0.63734(17)
C44_8 C 0.47000(17) 0.63734(17) 0.73073(17)
C47_8 C 0.63734(17) 0.26927(17) 0.53000(17)
C48_8 C 0.36266(17) 0.73073(17) 0.53000(17)
S37 S -0.0000 0.2500 0.2500
O1 O 0.02244(14) 0.23879(12) 0.28147(13)
O2 O 0.02244(14) 0.26121(12) 0.21853(13)
S37_2 S 1.0000 0.2500 0.2500
O3 O 0.97756(14) 0.21853(13) 0.23879(12)
O4 O 0.97756(14) 0.28147(13) 0.26121(12)
S37_3 S 0.0000 0.7500 0.2500
O3_2 O 0.02244(14) 0.78147(13) 0.23879(12)
O4_2 O 0.02244(14) 0.71853(13) 0.26121(12)
S37_4 S 1.0000 0.7500 0.2500
O1_2 O 0.97756(14) 0.76121(12) 0.28147(13)
O2_2 O 0.97756(14) 0.73879(12) 0.21853(13)
S37_5 S 0.0000 0.2500 0.7500
O3_3 O 0.02244(14) 0.21853(13) 0.76121(12)
O4_3 O 0.02244(14) 0.28147(13) 0.73879(12)
S37_6 S 1.0000 0.2500 0.7500
O1_3 O 0.97756(14) 0.23879(12) 0.71853(13)
O2_3 O 0.97756(14) 0.26121(12) 0.78147(13)
S37_7 S -0.0000 0.7500 0.7500
O1_4 O 0.02244(14) 0.76121(12) 0.71853(13)
O2_4 O 0.02244(14) 0.73879(12) 0.78147(13)
S37_8 S 1.0000 0.7500 0.7500
O3_4 O 0.97756(14) 0.78147(13) 0.76121(12)
O4_4 O 0.97756(14) 0.71853(13) 0.73879(12)
S37_9 S 0.2500 -0.0000 0.2500
O1_5 O 0.28147(13) 0.02244(14) 0.23879(12)
O2_5 O 0.21853(13) 0.02244(14) 0.26121(12)
S37_10 S 0.2500 1.0000 0.2500
O3_5 O 0.23879(12) 0.97756(14) 0.21853(13)
O4_5 O 0.26121(12) 0.97756(14) 0.28147(13)
S37_11 S 0.2500 0.0000 0.7500
O3_6 O 0.23879(12) 0.02244(14) 0.78147(13)
O4_6 O 0.26121(12) 0.02244(14) 0.71853(13)
S37_12 S 0.2500 1.0000 0.7500
O1_6 O 0.28147(13) 0.97756(14) 0.76121(12)
O2_6 O 0.21853(13) 0.97756(14) 0.73879(12)
S37_13 S 0.7500 0.0000 0.2500
O3_7 O 0.76121(12) 0.02244(14) 0.21853(13)
O4_7 O 0.73879(12) 0.02244(14) 0.28147(13)
S37_14 S 0.7500 1.0000 0.2500
O1_7 O 0.71853(13) 0.97756(14) 0.23879(12)
O2_7 O 0.78147(13) 0.97756(14) 0.26121(12)
S37_15 S 0.7500 -0.0000 0.7500
O1_8 O 0.71853(13) 0.02244(14) 0.76121(12)
O2_8 O 0.78147(13) 0.02244(14) 0.73879(12)
S37_16 S 0.7500 1.0000 0.7500
O3_8 O 0.76121(12) 0.97756(14) 0.78147(13)
O4_8 O 0.73879(12) 0.97756(14) 0.71853(13)
S37_17 S 0.2500 0.2500 -0.0000
O1_9 O 0.23879(12) 0.28147(13) 0.02244(14)
O2_9 O 0.26121(12) 0.21853(13) 0.02244(14)
S37_18 S 0.2500 0.2500 1.0000
O3_9 O 0.21853(13) 0.23879(12) 0.97756(14)
O4_9 O 0.28147(13) 0.26121(12) 0.97756(14)
S37_19 S 0.7500 0.2500 0.0000
O3_10 O 0.78147(13) 0.23879(12) 0.02244(14)
O4_10 O 0.71853(13) 0.26121(12) 0.02244(14)
S37_20 S 0.7500 0.2500 1.0000
O1_10 O 0.76121(12) 0.28147(13) 0.97756(14)
O2_10 O 0.73879(12) 0.21853(13) 0.97756(14)
S37_21 S 0.2500 0.7500 0.0000
O3_11 O 0.21853(13) 0.76121(12) 0.02244(14)
O4_11 O 0.28147(13) 0.73879(12) 0.02244(14)
S37_22 S 0.2500 0.7500 1.0000
O1_11 O 0.23879(12) 0.71853(13) 0.97756(14)
O2_11 O 0.26121(12) 0.78147(13) 0.97756(14)
S37_23 S 0.7500 0.7500 -0.0000
O1_12 O 0.76121(12) 0.71853(13) 0.02244(14)
O2_12 O 0.73879(12) 0.78147(13) 0.02244(14)
S37_24 S 0.7500 0.7500 1.0000
O3_12 O 0.78147(13) 0.76121(12) 0.97756(14)
O4_12 O 0.71853(13) 0.73879(12) 0.97756(14)
S37_25 S 0.7500 0.5000 0.7500
O1_13 O 0.73879(12) 0.52244(14) 0.78147(13)
O2_13 O 0.76121(12) 0.52244(14) 0.71853(13)
O3_13 O 0.71853(13) 0.47756(14) 0.73879(12)
O4_13 O 0.78147(13) 0.47756(14) 0.76121(12)
S37_26 S 0.2500 0.5000 0.7500
O1_14 O 0.26121(12) 0.47756(14) 0.78147(13)
O2_14 O 0.23879(12) 0.47756(14) 0.71853(13)
O3_14 O 0.28147(13) 0.52244(14) 0.73879(12)
O4_14 O 0.21853(13) 0.52244(14) 0.76121(12)
S37_27 S 0.7500 0.5000 0.2500
O1_15 O 0.73879(12) 0.47756(14) 0.21853(13)
O2_15 O 0.76121(12) 0.47756(14) 0.28147(13)
O3_15 O 0.71853(13) 0.52244(14) 0.26121(12)
O4_15 O 0.78147(13) 0.52244(14) 0.23879(12)
S37_28 S 0.2500 0.5000 0.2500
O1_16 O 0.26121(12) 0.52244(14) 0.21853(13)
O2_16 O 0.23879(12) 0.52244(14) 0.28147(13)
O3_16 O 0.28147(13) 0.47756(14) 0.26121(12)
O4_16 O 0.21853(13) 0.47756(14) 0.23879(12)
S37_29 S 0.5000 0.7500 0.7500
O1_17 O 0.52244(14) 0.78147(13) 0.73879(12)
O2_17 O 0.52244(14) 0.71853(13) 0.76121(12)
O3_17 O 0.47756(14) 0.73879(12) 0.71853(13)
O4_17 O 0.47756(14) 0.76121(12) 0.78147(13)
S37_30 S 0.5000 0.7500 0.2500
O1_18 O 0.47756(14) 0.78147(13) 0.26121(12)
O2_18 O 0.47756(14) 0.71853(13) 0.23879(12)
O3_18 O 0.52244(14) 0.73879(12) 0.28147(13)
O4_18 O 0.52244(14) 0.76121(12) 0.21853(13)
S37_31 S 0.5000 0.2500 0.7500
O1_19 O 0.47756(14) 0.21853(13) 0.73879(12)
O2_19 O 0.47756(14) 0.28147(13) 0.76121(12)
O3_19 O 0.52244(14) 0.26121(12) 0.71853(13)
O4_19 O 0.52244(14) 0.23879(12) 0.78147(13)
S37_32 S 0.5000 0.2500 0.2500
O1_20 O 0.52244(14) 0.21853(13) 0.26121(12)
O2_20 O 0.52244(14) 0.28147(13) 0.23879(12)
O3_20 O 0.47756(14) 0.26121(12) 0.28147(13)
O4_20 O 0.47756(14) 0.23879(12) 0.21853(13)
S37_33 S 0.7500 0.7500 0.5000
O1_21 O 0.78147(13) 0.73879(12) 0.52244(14)
O2_21 O 0.71853(13) 0.76121(12) 0.52244(14)
O3_21 O 0.73879(12) 0.71853(13) 0.47756(14)
O4_21 O 0.76121(12) 0.78147(13) 0.47756(14)
S37_34 S 0.7500 0.2500 0.5000
O1_22 O 0.78147(13) 0.26121(12) 0.47756(14)
O2_22 O 0.71853(13) 0.23879(12) 0.47756(14)
O3_22 O 0.73879(12) 0.28147(13) 0.52244(14)
O4_22 O 0.76121(12) 0.21853(13) 0.52244(14)
S37_35 S 0.2500 0.7500 0.5000
O1_23 O 0.21853(13) 0.73879(12) 0.47756(14)
O2_23 O 0.28147(13) 0.76121(12) 0.47756(14)
O3_23 O 0.26121(12) 0.71853(13) 0.52244(14)
O4_23 O 0.23879(12) 0.78147(13) 0.52244(14)
S37_36 S 0.2500 0.2500 0.5000
O1_24 O 0.21853(13) 0.26121(12) 0.52244(14)
O2_24 O 0.28147(13) 0.23879(12) 0.52244(14)
O3_24 O 0.26121(12) 0.28147(13) 0.47756(14)
O4_24 O 0.23879(12) 0.21853(13) 0.47756(14)
S38 S -0.0000 0.0000 0.5000
O6 O 0.02309(16) 0.02309(16) 0.47691(16)
S38_2 S -0.0000 1.0000 0.5000
O7 O 0.02309(16) 0.97691(16) 0.52309(16)
S38_3 S 1.0000 0.0000 0.5000
O8 O 0.97691(16) 0.02309(16) 0.52309(16)
S38_4 S 1.0000 1.0000 0.5000
O5 O 0.97691(16) 0.97691(16) 0.47691(16)
S38_5 S 0.5000 -0.0000 0.0000
O6_2 O 0.47691(16) 0.02309(16) 0.02309(16)
S38_6 S 0.5000 -0.0000 1.0000
O7_2 O 0.52309(16) 0.02309(16) 0.97691(16)
S38_7 S 0.5000 1.0000 0.0000
O8_2 O 0.52309(16) 0.97691(16) 0.02309(16)
S38_8 S 0.5000 1.0000 1.0000
O5_2 O 0.47691(16) 0.97691(16) 0.97691(16)
S38_9 S 0.0000 0.5000 -0.0000
O6_3 O 0.02309(16) 0.47691(16) 0.02309(16)
S38_10 S 0.0000 0.5000 1.0000
O8_3 O 0.02309(16) 0.52309(16) 0.97691(16)
S38_11 S 1.0000 0.5000 -0.0000
O7_3 O 0.97691(16) 0.52309(16) 0.02309(16)
S38_12 S 1.0000 0.5000 1.0000
O5_3 O 0.97691(16) 0.47691(16) 0.97691(16)
S38_13 S 0.5000 0.5000 0.0000
O7_4 O 0.47691(16) 0.52309(16) 0.02309(16)
O8_4 O 0.52309(16) 0.47691(16) 0.02309(16)
S38_14 S 0.5000 0.5000 1.0000
O5_4 O 0.47691(16) 0.47691(16) 0.97691(16)
O6_4 O 0.52309(16) 0.52309(16) 0.97691(16)
S38_15 S 0.5000 0.0000 0.5000
O7_5 O 0.52309(16) 0.02309(16) 0.47691(16)
O8_5 O 0.47691(16) 0.02309(16) 0.52309(16)
S38_16 S 0.5000 1.0000 0.5000
O5_5 O 0.47691(16) 0.97691(16) 0.47691(16)
O6_5 O 0.52309(16) 0.97691(16) 0.52309(16)
S38_17 S -0.0000 0.5000 0.5000
O7_6 O 0.02309(16) 0.47691(16) 0.52309(16)
O8_6 O 0.02309(16) 0.52309(16) 0.47691(16)
S38_18 S 1.0000 0.5000 0.5000
O5_6 O 0.97691(16) 0.47691(16) 0.47691(16)
O6_6 O 0.97691(16) 0.52309(16) 0.52309(16)
S38_19 S 0.5000 0.5000 0.5000
O5_7 O 0.47691(16) 0.47691(16) 0.47691(16)
O6_7 O 0.47691(16) 0.52309(16) 0.52309(16)
O7_7 O 0.52309(16) 0.52309(16) 0.47691(16)
O8_7 O 0.52309(16) 0.47691(16) 0.52309(16)
S38_20 S 0.0000 0.0000 -0.0000
S38_21 S 0.0000 0.0000 1.0000
O8_8 O 0.02309(16) 0.02309(16) 0.97691(16)
S38_22 S -0.0000 1.0000 -0.0000
O7_8 O 0.02309(16) 0.97691(16) 0.02309(16)
S38_23 S -0.0000 1.0000 1.0000
S38_24 S 1.0000 0.0000 -0.0000
O6_8 O 0.97691(16) 0.02309(16) 0.02309(16)
S38_25 S 1.0000 0.0000 1.0000
S38_26 S 1.0000 1.0000 -0.0000
S38_27 S 1.0000 1.0000 1.0000
O5_8 O 0.97691(16) 0.97691(16) 0.97691(16)
S39 S 0.91510(10) 0.08490(10) 0.41510(10)
O9 O 0.9385(3) 0.0615(3) 0.4385(3)
O10 O 0.87712(18) 0.07040(19) 0.4112(2)
O11 O 0.92960(19) 0.0888(2) 0.37712(18)
O12 O 0.9112(2) 0.12288(18) 0.42960(19)
S39_2 S 0.08490(10) 0.91510(10) 0.41510(10)
O9_2 O 0.0615(3) 0.9385(3) 0.4385(3)
O10_2 O 0.12288(18) 0.92960(19) 0.4112(2)
O11_2 O 0.07040(19) 0.9112(2) 0.37712(18)
O12_2 O 0.0888(2) 0.87712(18) 0.42960(19)
S39_3 S 0.08490(10) 0.08490(10) 0.58490(10)
O9_3 O 0.0615(3) 0.0615(3) 0.5615(3)
O10_3 O 0.12288(18) 0.07040(19) 0.5888(2)
O11_3 O 0.07040(19) 0.0888(2) 0.62288(18)
O12_3 O 0.0888(2) 0.12288(18) 0.57040(19)
S39_4 S 0.91510(10) 0.91510(10) 0.58490(10)
O9_4 O 0.9385(3) 0.9385(3) 0.5615(3)
O10_4 O 0.87712(18) 0.92960(19) 0.5888(2)
O11_4 O 0.92960(19) 0.9112(2) 0.62288(18)
O12_4 O 0.9112(2) 0.87712(18) 0.57040(19)
S39_5 S 0.41510(10) 0.91510(10) 0.08490(10)
O9_5 O 0.4385(3) 0.9385(3) 0.0615(3)
O10_5 O 0.4112(2) 0.87712(18) 0.07040(19)
O11_5 O 0.37712(18) 0.92960(19) 0.0888(2)
O12_5 O 0.42960(19) 0.9112(2) 0.12288(18)
S39_6 S 0.41510(10) 0.08490(10) 0.91510(10)
O9_6 O 0.4385(3) 0.0615(3) 0.9385(3)
O10_6 O 0.4112(2) 0.12288(18) 0.92960(19)
O11_6 O 0.37712(18) 0.07040(19) 0.9112(2)
O12_6 O 0.42960(19) 0.0888(2) 0.87712(18)
S39_7 S 0.58490(10) 0.08490(10) 0.08490(10)
O9_7 O 0.5615(3) 0.0615(3) 0.0615(3)
O10_7 O 0.5888(2) 0.12288(18) 0.07040(19)
O11_7 O 0.62288(18) 0.07040(19) 0.0888(2)
O12_7 O 0.57040(19) 0.0888(2) 0.12288(18)
S39_8 S 0.58490(10) 0.91510(10) 0.91510(10)
O9_8 O 0.5615(3) 0.9385(3) 0.9385(3)
O10_8 O 0.5888(2) 0.87712(18) 0.92960(19)
O11_8 O 0.62288(18) 0.92960(19) 0.9112(2)
O12_8 O 0.57040(19) 0.9112(2) 0.87712(18)
S39_9 S 0.08490(10) 0.41510(10) 0.91510(10)
O9_9 O 0.0615(3) 0.4385(3) 0.9385(3)
O10_9 O 0.07040(19) 0.4112(2) 0.87712(18)
O11_9 O 0.0888(2) 0.37712(18) 0.92960(19)
O12_9 O 0.12288(18) 0.42960(19) 0.9112(2)
S39_10 S 0.91510(10) 0.41510(10) 0.08490(10)
O9_10 O 0.9385(3) 0.4385(3) 0.0615(3)
O10_10 O 0.92960(19) 0.4112(2) 0.12288(18)
O11_10 O 0.9112(2) 0.37712(18) 0.07040(19)
O12_10 O 0.87712(18) 0.42960(19) 0.0888(2)
S39_11 S 0.08490(10) 0.58490(10) 0.08490(10)
O9_11 O 0.0615(3) 0.5615(3) 0.0615(3)
O10_11 O 0.07040(19) 0.5888(2) 0.12288(18)
O11_11 O 0.0888(2) 0.62288(18) 0.07040(19)
O12_11 O 0.12288(18) 0.57040(19) 0.0888(2)
S39_12 S 0.91510(10) 0.58490(10) 0.91510(10)
O9_12 O 0.9385(3) 0.5615(3) 0.9385(3)
O10_12 O 0.92960(19) 0.5888(2) 0.87712(18)
O11_12 O 0.9112(2) 0.62288(18) 0.92960(19)
O12_12 O 0.87712(18) 0.57040(19) 0.9112(2)
S39_13 S 0.58490(10) 0.41510(10) 0.91510(10)
O9_13 O 0.5615(3) 0.4385(3) 0.9385(3)
O10_13 O 0.57040(19) 0.37712(18) 0.9112(2)
O11_13 O 0.5888(2) 0.42960(19) 0.87712(18)
O12_13 O 0.62288(18) 0.4112(2) 0.92960(19)
S39_14 S 0.41510(10) 0.58490(10) 0.91510(10)
O9_14 O 0.4385(3) 0.5615(3) 0.9385(3)
O10_14 O 0.42960(19) 0.62288(18) 0.9112(2)
O11_14 O 0.4112(2) 0.57040(19) 0.87712(18)
O12_14 O 0.37712(18) 0.5888(2) 0.92960(19)
S39_15 S 0.58490(10) 0.58490(10) 0.08490(10)
O9_15 O 0.5615(3) 0.5615(3) 0.0615(3)
O10_15 O 0.57040(19) 0.62288(18) 0.0888(2)
O11_15 O 0.5888(2) 0.57040(19) 0.12288(18)
O12_15 O 0.62288(18) 0.5888(2) 0.07040(19)
S39_16 S 0.41510(10) 0.41510(10) 0.08490(10)
O9_16 O 0.4385(3) 0.4385(3) 0.0615(3)
O10_16 O 0.42960(19) 0.37712(18) 0.0888(2)
O11_16 O 0.4112(2) 0.42960(19) 0.12288(18)
O12_16 O 0.37712(18) 0.4112(2) 0.07040(19)
S39_17 S 0.41510(10) 0.91510(10) 0.58490(10)
O9_17 O 0.4385(3) 0.9385(3) 0.5615(3)
O10_17 O 0.37712(18) 0.9112(2) 0.57040(19)
O11_17 O 0.42960(19) 0.87712(18) 0.5888(2)
O12_17 O 0.4112(2) 0.92960(19) 0.62288(18)
S39_18 S 0.58490(10) 0.91510(10) 0.41510(10)
O9_18 O 0.5615(3) 0.9385(3) 0.4385(3)
O10_18 O 0.62288(18) 0.9112(2) 0.42960(19)
O11_18 O 0.57040(19) 0.87712(18) 0.4112(2)
O12_18 O 0.5888(2) 0.92960(19) 0.37712(18)
S39_19 S 0.58490(10) 0.08490(10) 0.58490(10)
O9_19 O 0.5615(3) 0.0615(3) 0.5615(3)
O10_19 O 0.62288(18) 0.0888(2) 0.57040(19)
O11_19 O 0.57040(19) 0.12288(18) 0.5888(2)
O12_19 O 0.5888(2) 0.07040(19) 0.62288(18)
S39_20 S 0.41510(10) 0.08490(10) 0.41510(10)
O9_20 O 0.4385(3) 0.0615(3) 0.4385(3)
O10_20 O 0.37712(18) 0.0888(2) 0.42960(19)
O11_20 O 0.42960(19) 0.12288(18) 0.4112(2)
O12_20 O 0.4112(2) 0.07040(19) 0.37712(18)
S39_21 S 0.91510(10) 0.58490(10) 0.41510(10)
O9_21 O 0.9385(3) 0.5615(3) 0.4385(3)
O10_21 O 0.9112(2) 0.57040(19) 0.37712(18)
O11_21 O 0.87712(18) 0.5888(2) 0.42960(19)
O12_21 O 0.92960(19) 0.62288(18) 0.4112(2)
S39_22 S 0.91510(10) 0.41510(10) 0.58490(10)
O9_22 O 0.9385(3) 0.4385(3) 0.5615(3)
O10_22 O 0.9112(2) 0.42960(19) 0.62288(18)
O11_22 O 0.87712(18) 0.4112(2) 0.57040(19)
O12_22 O 0.92960(19) 0.37712(18) 0.5888(2)
S39_23 S 0.08490(10) 0.58490(10) 0.58490(10)
O9_23 O 0.0615(3) 0.5615(3) 0.5615(3)
O10_23 O 0.0888(2) 0.57040(19) 0.62288(18)
O11_23 O 0.12288(18) 0.5888(2) 0.57040(19)
O12_23 O 0.07040(19) 0.62288(18) 0.5888(2)
S39_24 S 0.08490(10) 0.41510(10) 0.41510(10)
O9_24 O 0.0615(3) 0.4385(3) 0.4385(3)
O10_24 O 0.0888(2) 0.42960(19) 0.37712(18)
O11_24 O 0.12288(18) 0.4112(2) 0.42960(19)
O12_24 O 0.07040(19) 0.37712(18) 0.4112(2)
S39_25 S 0.41510(10) 0.41510(10) 0.58490(10)
O9_25 O 0.4385(3) 0.4385(3) 0.5615(3)
O10_25 O 0.4112(2) 0.37712(18) 0.57040(19)
O11_25 O 0.37712(18) 0.42960(19) 0.5888(2)
O12_25 O 0.42960(19) 0.4112(2) 0.62288(18)
S39_26 S 0.41510(10) 0.58490(10) 0.41510(10)
O9_26 O 0.4385(3) 0.5615(3) 0.4385(3)
O10_26 O 0.4112(2) 0.62288(18) 0.42960(19)
O11_26 O 0.37712(18) 0.57040(19) 0.4112(2)
O12_26 O 0.42960(19) 0.5888(2) 0.37712(18)
S39_27 S 0.58490(10) 0.58490(10) 0.58490(10)
O9_27 O 0.5615(3) 0.5615(3) 0.5615(3)
O10_27 O 0.5888(2) 0.62288(18) 0.57040(19)
O11_27 O 0.62288(18) 0.57040(19) 0.5888(2)
O12_27 O 0.57040(19) 0.5888(2) 0.62288(18)
S39_28 S 0.58490(10) 0.41510(10) 0.41510(10)
O9_28 O 0.5615(3) 0.4385(3) 0.4385(3)
O10_28 O 0.5888(2) 0.37712(18) 0.42960(19)
O11_28 O 0.62288(18) 0.42960(19) 0.4112(2)
O12_28 O 0.57040(19) 0.4112(2) 0.37712(18)
S39_29 S 0.91510(10) 0.08490(10) 0.91510(10)
O9_29 O 0.9385(3) 0.0615(3) 0.9385(3)
O10_29 O 0.9112(2) 0.07040(19) 0.87712(18)
O11_29 O 0.87712(18) 0.0888(2) 0.92960(19)
O12_29 O 0.92960(19) 0.12288(18) 0.9112(2)
S39_30 S 0.91510(10) 0.91510(10) 0.08490(10)
O9_30 O 0.9385(3) 0.9385(3) 0.0615(3)
O10_30 O 0.9112(2) 0.92960(19) 0.12288(18)
O11_30 O 0.87712(18) 0.9112(2) 0.07040(19)
O12_30 O 0.92960(19) 0.87712(18) 0.0888(2)
S39_31 S 0.08490(10) 0.08490(10) 0.08490(10)
O9_31 O 0.0615(3) 0.0615(3) 0.0615(3)
O10_31 O 0.0888(2) 0.07040(19) 0.12288(18)
O11_31 O 0.12288(18) 0.0888(2) 0.07040(19)
O12_31 O 0.07040(19) 0.12288(18) 0.0888(2)
S39_32 S 0.08490(10) 0.91510(10) 0.91510(10)
O9_32 O 0.0615(3) 0.9385(3) 0.9385(3)
O10_32 O 0.0888(2) 0.92960(19) 0.87712(18)
O11_32 O 0.12288(18) 0.9112(2) 0.92960(19)
O12_32 O 0.07040(19) 0.87712(18) 0.9112(2)
loop_
_geom_bond_atom_site_label_1
_geom_bond_atom_site_label_2
_geom_bond_site_symmetry_1
_geom_bond_site_symmetry_2
Cu36 S12 1_555 1_555
Cu44 S12 1_555 1_555
S12 C14 1_555 1_555
N40 H16 1_555 1_555
N40 C14 1_555 1_555
Cu5 S27 1_555 1_555
Cu6 S29 1_555 1_555
Cu8 Cl2 1_555 1_555
Cu9 Cl3 1_555 1_555
Cu12 Cl2 1_555 1_555
Cu13 Cl3 1_555 1_555
Cu16 Cl2 1_555 1_555
Cu17 Cl3 1_555 1_555
Cu19 S5 1_555 1_555
Cu20 S3 1_555 1_555
Cu23 S15 1_555 1_555
Cu24 S16 1_555 1_555
Cu27 S22 1_555 1_555
Cu28 S24 1_555 1_555
Cu30 S6 1_555 1_555
Cu32 S8 1_555 1_555
Cu35 S11 1_555 1_555
Cu38 S6 1_555 1_555
Cu40_2 S8 1_555 1_555
Cu43 S11 1_555 1_555
S3 Cu4 1_555 1_555
S5 Cu4 1_555 1_555
S6 C8 1_555 1_555
S8 C10 1_555 1_555
S11 C13 1_555 1_555
S15 Cu43 1_555 1_555
S16 Cu44_2 1_555 1_555
S20 Cu38 1_555 1_555
S21 Cu39 1_555 1_555
S22 Cu39 1_555 1_555
S24 Cu40_2 1_555 1_555
S27 Cu8 1_555 1_555
S28 Cu5 1_555 1_555
S29 Cu9 1_555 1_555
S30 Cu6 1_555 1_555
S34 Cu5 1_555 1_555
S35 Cu6 1_555 1_555
N9 Cu19 1_555 1_555
N10 Cu20 1_555 1_555
N13 Cu27 1_555 1_555
N14 Cu28 1_555 1_555
N17 Cu23 1_555 1_555
N18 Cu24 1_555 1_555
N20 Cu8 1_555 1_555
N21 Cu9 1_555 1_555
N24 Cu12 1_555 1_555
N25 Cu13 1_555 1_555
N28 Cu16 1_555 1_555
N29 Cu17 1_555 1_555
N31 H7 1_555 1_555
N33 H9 1_555 1_555
N34 H10 1_555 1_555
N36 H12 1_555 1_555
N39 H15 1_555 1_555
N42 H18 1_555 1_555
N43 H19 1_555 1_555
N46 H22 1_555 1_555
N47 H23 1_555 1_555
N50 H26 1_555 1_555
N51 H27 1_555 1_555
H29 N42 1_555 1_555
H34 N47 1_555 1_555
H37 N50 1_555 1_555
N54 Cu16 1_555 1_555
N55 Cu8 1_555 1_555
N56 Cu17 1_555 1_555
N57 Cu9 1_555 1_555
N61 Cu12 1_555 1_555
N62 Cu13 1_555 1_555
N65 Cu23 1_555 1_555
N66 Cu19 1_555 1_555
N67 Cu24 1_555 1_555
N68 Cu20 1_555 1_555
N72 Cu27 1_555 1_555
N73 Cu28 1_555 1_555
N76 H41 1_555 1_555
N77 H42 1_555 1_555
N78 H43 1_555 1_555
N79 H44 1_555 1_555
N83 H48 1_555 1_555
N84 H49 1_555 1_555
N87 H52 1_555 1_555
N90 H55 1_555 1_555
N94 H59 1_555 1_555
H63 N87 1_555 1_555
H66 N90 1_555 1_555
H70 N94 1_555 1_555
C5 S3 1_555 1_555
C7 S5 1_555 1_555
C10 N14 1_555 1_555
C13 N17 1_555 1_555
C16 N20 1_555 1_555
C17 N21 1_555 1_555
C20 N24 1_555 1_555
C21 N25 1_555 1_555
C24 N28 1_555 1_555
C25 N29 1_555 1_555
C28 S27 1_555 1_555
C29 S28 1_555 1_555
C30 S29 1_555 1_555
C31 S30 1_555 1_555
C35 S34 1_555 1_555
C36 S35 1_555 1_555
C39 N65 1_555 1_555
C40 N66 1_555 1_555
C41 N67 1_555 1_555
C42 N68 1_555 1_555
C46 N72 1_555 1_555
C47 N73 1_555 1_555
Cu12 S28 1_555 1_555
Cu13 S30 1_555 1_555
Cu16 S34 1_555 1_555
Cu17 S35 1_555 1_555
N9 N20 1_555 1_555
N9 C5 1_555 1_555
N10 N21 1_555 1_555
N13 N24 1_555 1_555
N14 N25 1_555 1_555
N17 N28 1_555 1_555
N18 N29 1_555 1_555
N31 C5 1_555 1_555
N31 C16 1_555 1_555
N33 C7 1_555 1_555
N34 C8 1_555 1_555
N36 C10 1_555 1_555
N36 C21 1_555 1_555
N39 C13 1_555 1_555
N39 C24 1_555 1_555
N42 C16 1_555 1_555
N43 C17 1_555 1_555
N46 C20 1_555 1_555
N47 C21 1_555 1_555
N50 C24 1_555 1_555
N51 C25 1_555 1_555
N54 N65 1_555 1_555
N54 C28 1_555 1_555
N55 N66 1_555 1_555
N55 C29 1_555 1_555
N56 N67 1_555 1_555
N56 C30 1_555 1_555
N57 N68 1_555 1_555
N57 C31 1_555 1_555
N61 N72 1_555 1_555
N61 C35 1_555 1_555
N62 N73 1_555 1_555
N62 C36 1_555 1_555
N76 C28 1_555 1_555
N76 C39 1_555 1_555
N77 C29 1_555 1_555
N77 C40 1_555 1_555
N78 C30 1_555 1_555
N78 C41 1_555 1_555
N79 C31 1_555 1_555
N79 C42 1_555 1_555
N83 C35 1_555 1_555
N83 C46 1_555 1_555
N84 C36 1_555 1_555
N84 C47 1_555 1_555
N87 C39 1_555 1_555
N88 C40 1_555 1_555
N89 C41 1_555 1_555
N90 C42 1_555 1_555
N94 C46 1_555 1_555
N95 C47 1_555 1_555
Cu37 S13 1_555 1_555
Cu45_3 S13 1_555 1_555
S13 C15 1_555 1_555
N41 H17 1_555 1_555
N41 C15 1_555 1_555
Cu1 S2 1_555 1_555
Cu2 Cl1 1_555 1_555
Cu3 N1 1_555 1_555
Cu4_2 S1 1_555 1_555
Cl1 Cu11 1_555 1_555
S1 C1 1_555 1_555
S2 Cu2 1_555 1_555
N1 N2 1_555 1_555
N2 Cu2 1_555 1_555
N3 H1 1_555 1_555
N4 H2 1_555 1_555
H3 N4 1_555 1_555
N5 N6 1_555 1_555
N6 C4 1_555 1_555
N7 H4 1_555 1_555
N8 H5 1_555 1_555
H6 N8 1_555 1_555
C1 N1 1_555 1_555
C2 N2 1_555 1_555
C3 S2 1_555 1_555
C4 N7 1_555 1_555
Cu7 S31 1_555 1_555
Cu10 Cl4 1_555 1_555
Cu11 S26 1_555 1_555
Cu14 Cl4 1_555 1_555
Cu15 Cl1 1_555 1_555
Cu18 Cl4 1_555 1_555
Cu21 S1 1_555 1_555
Cu22 N6 1_555 1_555
Cu25 S17 1_555 1_555
Cu26 S19 1_555 1_555
Cu29 S25 1_555 1_555
Cu31 S7 1_555 1_555
Cu33 S9 1_555 1_555
Cu34 S10 1_555 1_555
Cu39_2 S7 1_555 1_555
Cu41_2 S9 1_555 1_555
Cu42 S10 1_555 1_555
S4 Cu3 1_555 1_555
S7 C9 1_555 1_555
S9 C11 1_555 1_555
S10 C12 1_555 1_555
S14 Cu22 1_555 1_555
S17 Cu45_4 1_555 1_555
S18 Cu38_2 1_555 1_555
S19 Cu38_2 1_555 1_555
S23 Cu39_2 1_555 1_555
S25 Cu41_2 1_555 1_555
S26 Cu1 1_555 1_555
S31 Cu10 1_555 1_555
S32 Cu7 1_555 1_555
S33 Cu1 1_555 1_555
S36 Cu7 1_555 1_555
N11 Cu21 1_555 1_555
N12 Cu26 1_555 1_555
N15 Cu29 1_555 1_555
N16 Cu22 1_555 1_555
N19 Cu25 1_555 1_555
N22 Cu10 1_555 1_555
N23 Cu11 1_555 1_555
N26 Cu14 1_555 1_555
N27 Cu15 1_555 1_555
N30 Cu18 1_555 1_555
N32 H8 1_555 1_555
N35 H11 1_555 1_555
N37 H13 1_555 1_555
N38 H14 1_555 1_555
N44 H20 1_555 1_555
N45 H21 1_555 1_555
N48 H24 1_555 1_555
N49 H25 1_555 1_555
N52 H28 1_555 1_555
H35 N48 1_555 1_555
H36 N49 1_555 1_555
N53 Cu2 1_555 1_555
N58 Cu18 1_555 1_555
N59 Cu10 1_555 1_555
N60 Cu11 1_555 1_555
N63 Cu14 1_555 1_555
N64 Cu3 1_555 1_555
N69 Cu25 1_555 1_555
N70 Cu21 1_555 1_555
N71 Cu26 1_555 1_555
N74 Cu29 1_555 1_555
N75 H40 1_555 1_555
N80 H45 1_555 1_555
N81 H46 1_555 1_555
N82 H47 1_555 1_555
N85 H50 1_555 1_555
N92 H57 1_555 1_555
N93 H58 1_555 1_555
H68 N92 1_555 1_555
H69 N93 1_555 1_555
C6 S4 1_555 1_555
C11 N15 1_555 1_555
C12 N16 1_555 1_555
C18 N22 1_555 1_555
C19 N23 1_555 1_555
C22 N26 1_555 1_555
C23 N27 1_555 1_555
C26 N30 1_555 1_555
C27 S26 1_555 1_555
C32 S31 1_555 1_555
C33 S32 1_555 1_555
C34 S33 1_555 1_555
C37 S36 1_555 1_555
C38 N64 1_555 1_555
C43 N69 1_555 1_555
C44 N70 1_555 1_555
C45 N71 1_555 1_555
C48 N74 1_555 1_555
Cu4_2 S4 1_555 1_555
N3 C1 1_555 1_555
N3 C2 1_555 1_555
N4 C2 1_555 1_555
N5 C3 1_555 1_555
N5 Cu15 1_555 1_555
N7 C3 1_555 1_555
N8 C4 1_555 1_555
Cu14 S32 1_555 1_555
Cu15 S33 1_555 1_555
Cu18 S36 1_555 1_555
Cu42 S14 1_555 1_555
N11 N22 1_555 1_555
N12 N23 1_555 1_555
N15 N26 1_555 1_555
N16 N27 1_555 1_555
N19 N30 1_555 1_555
N32 C6 1_555 1_555
N35 C9 1_555 1_555
N37 C11 1_555 1_555
N37 C22 1_555 1_555
N38 C12 1_555 1_555
N38 C23 1_555 1_555
N44 C18 1_555 1_555
N45 C19 1_555 1_555
N48 C22 1_555 1_555
N49 C23 1_555 1_555
N52 C26 1_555 1_555
N53 N64 1_555 1_555
N53 C27 1_555 1_555
N58 N69 1_555 1_555
N58 C32 1_555 1_555
N59 N70 1_555 1_555
N59 C33 1_555 1_555
N60 N71 1_555 1_555
N60 C34 1_555 1_555
N63 N74 1_555 1_555
N63 C37 1_555 1_555
N75 C27 1_555 1_555
N75 C38 1_555 1_555
N80 C32 1_555 1_555
N80 C43 1_555 1_555
N81 C33 1_555 1_555
N81 C44 1_555 1_555
N82 C34 1_555 1_555
N82 C45 1_555 1_555
N85 C37 1_555 1_555
N85 C48 1_555 1_555
N86 C38 1_555 1_555
N91 C43 1_555 1_555
N92 C44 1_555 1_555
N93 C45 1_555 1_555
N96 C48 1_555 1_555
Cu1_2 S2_2 1_555 1_555
Cu2_2 Cl1_2 1_555 1_555
Cu3_2 N1_2 1_555 1_555
Cu4_3 S1_2 1_555 1_555
Cl1_2 Cu11_2 1_555 1_555
S1_2 C1_2 1_555 1_555
S2_2 Cu2_2 1_555 1_555
N1_2 N2_2 1_555 1_555
N2_2 Cu2_2 1_555 1_555
N3_2 H1_2 1_555 1_555
N4_2 H2_2 1_555 1_555
H3_2 N4_2 1_555 1_555
N5_2 N6_2 1_555 1_555
N6_2 C4_2 1_555 1_555
N7_2 H4_2 1_555 1_555
N8_2 H5_2 1_555 1_555
H6_2 N8_2 1_555 1_555
C1_2 N1_2 1_555 1_555
C2_2 N2_2 1_555 1_555
C3_2 S2_2 1_555 1_555
C4_2 N7_2 1_555 1_555
Cu7_2 S31_2 1_555 1_555
Cu10_2 Cl4_2 1_555 1_555
Cu11_2 S26_2 1_555 1_555
Cu14_2 Cl4_2 1_555 1_555
Cu15_2 Cl1_2 1_555 1_555
Cu18_2 Cl4_2 1_555 1_555
Cu21_2 S1_2 1_555 1_555
Cu22_2 N6_2 1_555 1_555
Cu25_2 S17_2 1_555 1_555
Cu26_2 S20 1_555 1_555
Cu29_2 S25_2 1_555 1_555
Cu31_2 S21 1_555 1_555
Cu33_2 S9_2 1_555 1_555
Cu34_2 S10_2 1_555 1_555
Cu40 S9_2 1_555 1_555
Cu43 S10_2 1_555 1_555
S4_2 Cu3_2 1_555 1_555
S21 C9_2 1_555 1_555
S9_2 C11_2 1_555 1_555
S10_2 C12_2 1_555 1_555
S14_2 Cu22_2 1_555 1_555
S17_2 Cu45 1_555 1_555
S25_2 Cu40 1_555 1_555
S26_2 Cu1_2 1_555 1_555
S31_2 Cu10_2 1_555 1_555
S32_2 Cu7_2 1_555 1_555
S33_2 Cu1_2 1_555 1_555
S36_2 Cu7_2 1_555 1_555
N11_2 Cu21_2 1_555 1_555
N12_2 Cu26_2 1_555 1_555
N15_2 Cu29_2 1_555 1_555
N16_2 Cu22_2 1_555 1_555
N19_2 Cu25_2 1_555 1_555
N22_2 Cu10_2 1_555 1_555
N23_2 Cu11_2 1_555 1_555
N26_2 Cu14_2 1_555 1_555
N27_2 Cu15_2 1_555 1_555
N30_2 Cu18_2 1_555 1_555
N32_2 H8_2 1_555 1_555
N35_2 H11_2 1_555 1_555
N37_2 H13_2 1_555 1_555
N38_2 H14_2 1_555 1_555
N44_2 H20_2 1_555 1_555
N45_2 H21_2 1_555 1_555
N48_2 H24_2 1_555 1_555
N49_2 H25_2 1_555 1_555
N52_2 H28_2 1_555 1_555
H35_2 N48_2 1_555 1_555
H36_2 N49_2 1_555 1_555
N53_2 Cu2_2 1_555 1_555
N58_2 Cu18_2 1_555 1_555
N59_2 Cu10_2 1_555 1_555
N60_2 Cu11_2 1_555 1_555
N63_2 Cu14_2 1_555 1_555
N64_2 Cu3_2 1_555 1_555
N69_2 Cu25_2 1_555 1_555
N70_2 Cu21_2 1_555 1_555
N71_2 Cu26_2 1_555 1_555
N74_2 Cu29_2 1_555 1_555
N75_2 H40_2 1_555 1_555
N80_2 H45_2 1_555 1_555
N81_2 H46_2 1_555 1_555
N82_2 H47_2 1_555 1_555
N85_2 H50_2 1_555 1_555
N92_2 H57_2 1_555 1_555
N93_2 H58_2 1_555 1_555
H68_2 N92_2 1_555 1_555
H69_2 N93_2 1_555 1_555
C6_2 S4_2 1_555 1_555
C11_2 N15_2 1_555 1_555
C12_2 N16_2 1_555 1_555
C18_2 N22_2 1_555 1_555
C19_2 N23_2 1_555 1_555
C22_2 N26_2 1_555 1_555
C23_2 N27_2 1_555 1_555
C26_2 N30_2 1_555 1_555
C27_2 S26_2 1_555 1_555
C32_2 S31_2 1_555 1_555
C33_2 S32_2 1_555 1_555
C34_2 S33_2 1_555 1_555
C37_2 S36_2 1_555 1_555
C38_2 N64_2 1_555 1_555
C43_2 N69_2 1_555 1_555
C44_2 N70_2 1_555 1_555
C45_2 N71_2 1_555 1_555
C48_2 N74_2 1_555 1_555
Cu4_3 S4_2 1_555 1_555
N3_2 C1_2 1_555 1_555
N3_2 C2_2 1_555 1_555
N4_2 C2_2 1_555 1_555
N5_2 C3_2 1_555 1_555
N5_2 Cu15_2 1_555 1_555
N7_2 C3_2 1_555 1_555
N8_2 C4_2 1_555 1_555
Cu14_2 S32_2 1_555 1_555
Cu15_2 S33_2 1_555 1_555
Cu18_2 S36_2 1_555 1_555
Cu43 S14_2 1_555 1_555
N11_2 N22_2 1_555 1_555
N12_2 N23_2 1_555 1_555
N15_2 N26_2 1_555 1_555
N16_2 N27_2 1_555 1_555
N19_2 N30_2 1_555 1_555
N32_2 C6_2 1_555 1_555
N35_2 C9_2 1_555 1_555
N37_2 C11_2 1_555 1_555
N37_2 C22_2 1_555 1_555
N38_2 C12_2 1_555 1_555
N38_2 C23_2 1_555 1_555
N44_2 C18_2 1_555 1_555
N45_2 C19_2 1_555 1_555
N48_2 C22_2 1_555 1_555
N49_2 C23_2 1_555 1_555
N52_2 C26_2 1_555 1_555
N53_2 N64_2 1_555 1_555
N53_2 C27_2 1_555 1_555
N58_2 N69_2 1_555 1_555
N58_2 C32_2 1_555 1_555
N59_2 N70_2 1_555 1_555
N59_2 C33_2 1_555 1_555
N60_2 N71_2 1_555 1_555
N60_2 C34_2 1_555 1_555
N63_2 N74_2 1_555 1_555
N63_2 C37_2 1_555 1_555
N75_2 C27_2 1_555 1_555
N75_2 C38_2 1_555 1_555
N80_2 C32_2 1_555 1_555
N80_2 C43_2 1_555 1_555
N81_2 C33_2 1_555 1_555
N81_2 C44_2 1_555 1_555
N82_2 C34_2 1_555 1_555
N82_2 C45_2 1_555 1_555
N85_2 C37_2 1_555 1_555
N85_2 C48_2 1_555 1_555
N86_2 C38_2 1_555 1_555
N91_2 C43_2 1_555 1_555
N92_2 C44_2 1_555 1_555
N93_2 C45_2 1_555 1_555
N96_2 C48_2 1_555 1_555
Cu37_2 S13_2 1_555 1_555
Cu45_2 S13_2 1_555 1_555
S13_2 C15_2 1_555 1_555
N41_2 H17_2 1_555 1_555
N41_2 C15_2 1_555 1_555
Cu5_2 S27_2 1_555 1_555
Cu6_2 S29_2 1_555 1_555
Cu8_2 Cl2_2 1_555 1_555
Cu9_2 Cl3_2 1_555 1_555
Cu12_2 Cl2_2 1_555 1_555
Cu13_2 Cl3_2 1_555 1_555
Cu16_2 Cl2_2 1_555 1_555
Cu17_2 Cl3_2 1_555 1_555
Cu19_2 S5_2 1_555 1_555
Cu20_2 S3_2 1_555 1_555
Cu23_2 S15_2 1_555 1_555
Cu24_2 S16_2 1_555 1_555
Cu27_2 S23 1_555 1_555
Cu28_2 S24_2 1_555 1_555
Cu30_2 S18 1_555 1_555
Cu32_2 S8_2 1_555 1_555
Cu35_2 S11_2 1_555 1_555
Cu41 S8_2 1_555 1_555
Cu42 S11_2 1_555 1_555
S3_2 Cu4_4 1_555 1_555
S5_2 Cu4_4 1_555 1_555
S18 C8_2 1_555 1_555
S8_2 C10_2 1_555 1_555
S11_2 C13_2 1_555 1_555
S15_2 Cu42 1_555 1_555
S16_2 Cu44_3 1_555 1_555
S24_2 Cu41 1_555 1_555
S27_2 Cu8_2 1_555 1_555
S28_2 Cu5_2 1_555 1_555
S29_2 Cu9_2 1_555 1_555
S30_2 Cu6_2 1_555 1_555
S34_2 Cu5_2 1_555 1_555
S35_2 Cu6_2 1_555 1_555
N9_2 Cu19_2 1_555 1_555
N10_2 Cu20_2 1_555 1_555
N13_2 Cu27_2 1_555 1_555
N14_2 Cu28_2 1_555 1_555
N17_2 Cu23_2 1_555 1_555
N18_2 Cu24_2 1_555 1_555
N20_2 Cu8_2 1_555 1_555
N21_2 Cu9_2 1_555 1_555
N24_2 Cu12_2 1_555 1_555
N25_2 Cu13_2 1_555 1_555
N28_2 Cu16_2 1_555 1_555
N29_2 Cu17_2 1_555 1_555
N31_2 H7_2 1_555 1_555
N33_2 H9_2 1_555 1_555
N34_2 H10_2 1_555 1_555
N36_2 H12_2 1_555 1_555
N39_2 H15_2 1_555 1_555
N42_2 H18_2 1_555 1_555
N43_2 H19_2 1_555 1_555
N46_2 H22_2 1_555 1_555
N47_2 H23_2 1_555 1_555
N50_2 H26_2 1_555 1_555
N51_2 H27_2 1_555 1_555
H29_2 N42_2 1_555 1_555
H34_2 N47_2 1_555 1_555
H37_2 N50_2 1_555 1_555
N54_2 Cu16_2 1_555 1_555
N55_2 Cu8_2 1_555 1_555
N56_2 Cu17_2 1_555 1_555
N57_2 Cu9_2 1_555 1_555
N61_2 Cu12_2 1_555 1_555
N62_2 Cu13_2 1_555 1_555
N65_2 Cu23_2 1_555 1_555
N66_2 Cu19_2 1_555 1_555
N67_2 Cu24_2 1_555 1_555
N68_2 Cu20_2 1_555 1_555
N72_2 Cu27_2 1_555 1_555
N73_2 Cu28_2 1_555 1_555
N76_2 H41_2 1_555 1_555
N77_2 H42_2 1_555 1_555
N78_2 H43_2 1_555 1_555
N79_2 H44_2 1_555 1_555
N83_2 H48_2 1_555 1_555
N84_2 H49_2 1_555 1_555
N87_2 H52_2 1_555 1_555
N90_2 H55_2 1_555 1_555
N94_2 H59_2 1_555 1_555
H63_2 N87_2 1_555 1_555
H66_2 N90_2 1_555 1_555
H70_2 N94_2 1_555 1_555
C5_2 S3_2 1_555 1_555
C7_2 S5_2 1_555 1_555
C10_2 N14_2 1_555 1_555
C13_2 N17_2 1_555 1_555
C16_2 N20_2 1_555 1_555
C17_2 N21_2 1_555 1_555
C20_2 N24_2 1_555 1_555
C21_2 N25_2 1_555 1_555
C24_2 N28_2 1_555 1_555
C25_2 N29_2 1_555 1_555
C28_2 S27_2 1_555 1_555
C29_2 S28_2 1_555 1_555
C30_2 S29_2 1_555 1_555
C31_2 S30_2 1_555 1_555
C35_2 S34_2 1_555 1_555
C36_2 S35_2 1_555 1_555
C39_2 N65_2 1_555 1_555
C40_2 N66_2 1_555 1_555
C41_2 N67_2 1_555 1_555
C42_2 N68_2 1_555 1_555
C46_2 N72_2 1_555 1_555
C47_2 N73_2 1_555 1_555
Cu12_2 S28_2 1_555 1_555
Cu13_2 S30_2 1_555 1_555
Cu16_2 S34_2 1_555 1_555
Cu17_2 S35_2 1_555 1_555
N9_2 N20_2 1_555 1_555
N9_2 C5_2 1_555 1_555
N10_2 N21_2 1_555 1_555
N13_2 N24_2 1_555 1_555
N14_2 N25_2 1_555 1_555
N17_2 N28_2 1_555 1_555
N18_2 N29_2 1_555 1_555
N31_2 C5_2 1_555 1_555
N31_2 C16_2 1_555 1_555
N33_2 C7_2 1_555 1_555
N34_2 C8_2 1_555 1_555
N36_2 C10_2 1_555 1_555
N36_2 C21_2 1_555 1_555
N39_2 C13_2 1_555 1_555
N39_2 C24_2 1_555 1_555
N42_2 C16_2 1_555 1_555
N43_2 C17_2 1_555 1_555
N46_2 C20_2 1_555 1_555
N47_2 C21_2 1_555 1_555
N50_2 C24_2 1_555 1_555
N51_2 C25_2 1_555 1_555
N54_2 N65_2 1_555 1_555
N54_2 C28_2 1_555 1_555
N55_2 N66_2 1_555 1_555
N55_2 C29_2 1_555 1_555
N56_2 N67_2 1_555 1_555
N56_2 C30_2 1_555 1_555
N57_2 N68_2 1_555 1_555
N57_2 C31_2 1_555 1_555
N61_2 N72_2 1_555 1_555
N61_2 C35_2 1_555 1_555
N62_2 N73_2 1_555 1_555
N62_2 C36_2 1_555 1_555
N76_2 C28_2 1_555 1_555
N76_2 C39_2 1_555 1_555
N77_2 C29_2 1_555 1_555
N77_2 C40_2 1_555 1_555
N78_2 C30_2 1_555 1_555
N78_2 C41_2 1_555 1_555
N79_2 C31_2 1_555 1_555
N79_2 C42_2 1_555 1_555
N83_2 C35_2 1_555 1_555
N83_2 C46_2 1_555 1_555
N84_2 C36_2 1_555 1_555
N84_2 C47_2 1_555 1_555
N87_2 C39_2 1_555 1_555
N88_2 C40_2 1_555 1_555
N89_2 C41_2 1_555 1_555
N90_2 C42_2 1_555 1_555
N94_2 C46_2 1_555 1_555
N95_2 C47_2 1_555 1_555
Cu36_2 S12_2 1_555 1_555
Cu44_4 S12_2 1_555 1_555
S12_2 C14_2 1_555 1_555
N40_2 H16_2 1_555 1_555
N40_2 C14_2 1_555 1_555
Cu36_3 S12_3 1_555 1_555
Cu44_5 S12_3 1_555 1_555
S12_3 C14_3 1_555 1_555
N40_3 H16_3 1_555 1_555
N40_3 C14_3 1_555 1_555
Cu5_3 S27_3 1_555 1_555
Cu6_3 S29_3 1_555 1_555
Cu8_3 Cl2_3 1_555 1_555
Cu9_3 Cl3_3 1_555 1_555
Cu12_3 Cl2_3 1_555 1_555
Cu13_3 Cl3_3 1_555 1_555
Cu16_3 Cl2_3 1_555 1_555
Cu17_3 Cl3_3 1_555 1_555
Cu19_3 S5_3 1_555 1_555
Cu20_3 S3_3 1_555 1_555
Cu23_3 S15_3 1_555 1_555
Cu24_3 S16_3 1_555 1_555
Cu28_3 S24_3 1_555 1_555
Cu32_3 S8_3 1_555 1_555
Cu35_3 S11_3 1_555 1_555
Cu40_4 S8_3 1_555 1_555
Cu43_2 S11_3 1_555 1_555
S3_3 Cu4_5 1_555 1_555
S5_3 Cu4_5 1_555 1_555
S24_2 C8_3 1_555 1_555
S8_3 C10_3 1_555 1_555
S11_3 C13_3 1_555 1_555
S15_3 Cu43_2 1_555 1_555
S16_3 Cu44_6 1_555 1_555
S24_3 Cu40_4 1_555 1_555
S27_3 Cu8_3 1_555 1_555
S28_3 Cu5_3 1_555 1_555
S29_3 Cu9_3 1_555 1_555
S30_3 Cu6_3 1_555 1_555
S34_3 Cu5_3 1_555 1_555
S35_3 Cu6_3 1_555 1_555
N9_3 Cu19_3 1_555 1_555
N10_3 Cu20_3 1_555 1_555
N13_3 Cu33_2 1_555 1_555
N14_3 Cu28_3 1_555 1_555
N17_3 Cu23_3 1_555 1_555
N18_3 Cu24_3 1_555 1_555
N20_3 Cu8_3 1_555 1_555
N21_3 Cu9_3 1_555 1_555
N24_3 Cu12_3 1_555 1_555
N25_3 Cu13_3 1_555 1_555
N28_3 Cu16_3 1_555 1_555
N29_3 Cu17_3 1_555 1_555
N31_3 H7_3 1_555 1_555
N33_3 H9_3 1_555 1_555
N34_3 H10_3 1_555 1_555
N36_3 H12_3 1_555 1_555
N39_3 H15_3 1_555 1_555
N42_3 H18_3 1_555 1_555
N43_3 H19_3 1_555 1_555
N46_3 H22_3 1_555 1_555
N47_3 H23_3 1_555 1_555
N50_3 H26_3 1_555 1_555
N51_3 H27_3 1_555 1_555
H29_3 N42_3 1_555 1_555
H34_3 N47_3 1_555 1_555
H37_3 N50_3 1_555 1_555
N54_3 Cu16_3 1_555 1_555
N55_3 Cu8_3 1_555 1_555
N56_3 Cu17_3 1_555 1_555
N57_3 Cu9_3 1_555 1_555
N61_3 Cu12_3 1_555 1_555
N62_3 Cu13_3 1_555 1_555
N65_3 Cu23_3 1_555 1_555
N66_3 Cu19_3 1_555 1_555
N67_3 Cu24_3 1_555 1_555
N68_3 Cu20_3 1_555 1_555
N72_3 Cu33_2 1_555 1_555
N73_3 Cu28_3 1_555 1_555
N76_3 H41_3 1_555 1_555
N77_3 H42_3 1_555 1_555
N78_3 H43_3 1_555 1_555
N79_3 H44_3 1_555 1_555
N83_3 H48_3 1_555 1_555
N84_3 H49_3 1_555 1_555
N87_3 H52_3 1_555 1_555
N90_3 H55_3 1_555 1_555
N94_3 H59_3 1_555 1_555
H63_3 N87_3 1_555 1_555
H66_3 N90_3 1_555 1_555
H70_3 N94_3 1_555 1_555
C5_3 S3_3 1_555 1_555
C7_3 S5_3 1_555 1_555
C10_3 N14_3 1_555 1_555
C13_3 N17_3 1_555 1_555
C16_3 N20_3 1_555 1_555
C17_3 N21_3 1_555 1_555
C20_3 N24_3 1_555 1_555
C21_3 N25_3 1_555 1_555
C24_3 N28_3 1_555 1_555
C25_3 N29_3 1_555 1_555
C28_3 S27_3 1_555 1_555
C29_3 S28_3 1_555 1_555
C30_3 S29_3 1_555 1_555
C31_3 S30_3 1_555 1_555
C35_3 S34_3 1_555 1_555
C36_3 S35_3 1_555 1_555
C39_3 N65_3 1_555 1_555
C40_3 N66_3 1_555 1_555
C41_3 N67_3 1_555 1_555
C42_3 N68_3 1_555 1_555
C46_3 N72_3 1_555 1_555
C47_3 N73_3 1_555 1_555
Cu12_3 S28_3 1_555 1_555
Cu13_3 S30_3 1_555 1_555
Cu16_3 S34_3 1_555 1_555
Cu17_3 S35_3 1_555 1_555
N9_3 N20_3 1_555 1_555
N9_3 C5_3 1_555 1_555
N10_3 N21_3 1_555 1_555
N13_3 N24_3 1_555 1_555
N14_3 N25_3 1_555 1_555
N17_3 N28_3 1_555 1_555
N18_3 N29_3 1_555 1_555
N31_3 C5_3 1_555 1_555
N31_3 C16_3 1_555 1_555
N33_3 C7_3 1_555 1_555
N34_3 C8_3 1_555 1_555
N36_3 C10_3 1_555 1_555
N36_3 C21_3 1_555 1_555
N39_3 C13_3 1_555 1_555
N39_3 C24_3 1_555 1_555
N42_3 C16_3 1_555 1_555
N43_3 C17_3 1_555 1_555
N46_3 C20_3 1_555 1_555
N47_3 C21_3 1_555 1_555
N50_3 C24_3 1_555 1_555
N51_3 C25_3 1_555 1_555
N54_3 N65_3 1_555 1_555
N54_3 C28_3 1_555 1_555
N55_3 N66_3 1_555 1_555
N55_3 C29_3 1_555 1_555
N56_3 N67_3 1_555 1_555
N56_3 C30_3 1_555 1_555
N57_3 N68_3 1_555 1_555
N57_3 C31_3 1_555 1_555
N61_3 N72_3 1_555 1_555
N61_3 C35_3 1_555 1_555
N62_3 N73_3 1_555 1_555
N62_3 C36_3 1_555 1_555
N76_3 C28_3 1_555 1_555
N76_3 C39_3 1_555 1_555
N77_3 C29_3 1_555 1_555
N77_3 C40_3 1_555 1_555
N78_3 C30_3 1_555 1_555
N78_3 C41_3 1_555 1_555
N79_3 C31_3 1_555 1_555
N79_3 C42_3 1_555 1_555
N83_3 C35_3 1_555 1_555
N83_3 C46_3 1_555 1_555
N84_3 C36_3 1_555 1_555
N84_3 C47_3 1_555 1_555
N87_3 C39_3 1_555 1_555
N88_3 C40_3 1_555 1_555
N89_3 C41_3 1_555 1_555
N90_3 C42_3 1_555 1_555
N94_3 C46_3 1_555 1_555
N95_3 C47_3 1_555 1_555
Cu37_3 S13_3 1_555 1_555
Cu45_7 S13_3 1_555 1_555
S13_3 C15_3 1_555 1_555
N41_3 H17_3 1_555 1_555
N41_3 C15_3 1_555 1_555
Cu1_3 S2_3 1_555 1_555
Cu2_3 Cl1_3 1_555 1_555
Cu3_3 N1_3 1_555 1_555
Cu4_6 S1_3 1_555 1_555
Cl1_3 Cu11_3 1_555 1_555
S1_3 C1_3 1_555 1_555
S2_3 Cu2_3 1_555 1_555
N1_3 N2_3 1_555 1_555
N2_3 Cu2_3 1_555 1_555
N3_3 H1_3 1_555 1_555
N4_3 H2_3 1_555 1_555
H3_3 N4_3 1_555 1_555
N5_3 N6_3 1_555 1_555
N6_3 C4_3 1_555 1_555
N7_3 H4_3 1_555 1_555
N8_3 H5_3 1_555 1_555
H6_3 N8_3 1_555 1_555
C1_3 N1_3 1_555 1_555
C2_3 N2_3 1_555 1_555
C3_3 S2_3 1_555 1_555
C4_3 N7_3 1_555 1_555
Cu7_3 S31_3 1_555 1_555
Cu10_3 Cl4_3 1_555 1_555
Cu11_3 S26_3 1_555 1_555
Cu14_3 Cl4_3 1_555 1_555
Cu15_3 Cl1_3 1_555 1_555
Cu18_3 Cl4_3 1_555 1_555
Cu21_3 S1_3 1_555 1_555
Cu22_3 N6_3 1_555 1_555
Cu25_3 S17_3 1_555 1_555
Cu29_3 S25_3 1_555 1_555
Cu33_3 S9_3 1_555 1_555
Cu34_3 S10_3 1_555 1_555
Cu41_4 S9_3 1_555 1_555
Cu42_2 S10_3 1_555 1_555
S4_3 Cu3_3 1_555 1_555
S24 C9_3 1_555 1_555
S9_3 C11_3 1_555 1_555
S10_3 C12_3 1_555 1_555
S14_3 Cu22_3 1_555 1_555
S17_3 Cu45_8 1_555 1_555
S25_3 Cu41_4 1_555 1_555
S26_3 Cu1_3 1_555 1_555
S31_3 Cu10_3 1_555 1_555
S32_3 Cu7_3 1_555 1_555
S33_3 Cu1_3 1_555 1_555
S36_3 Cu7_3 1_555 1_555
N11_3 Cu21_3 1_555 1_555
N12_3 Cu33 1_555 1_555
N15_3 Cu29_3 1_555 1_555
N16_3 Cu22_3 1_555 1_555
N19_3 Cu25_3 1_555 1_555
N22_3 Cu10_3 1_555 1_555
N23_3 Cu11_3 1_555 1_555
N26_3 Cu14_3 1_555 1_555
N27_3 Cu15_3 1_555 1_555
N30_3 Cu18_3 1_555 1_555
N32_3 H8_3 1_555 1_555
N35_3 H11_3 1_555 1_555
N37_3 H13_3 1_555 1_555
N38_3 H14_3 1_555 1_555
N44_3 H20_3 1_555 1_555
N45_3 H21_3 1_555 1_555
N48_3 H24_3 1_555 1_555
N49_3 H25_3 1_555 1_555
N52_3 H28_3 1_555 1_555
H35_3 N48_3 1_555 1_555
H36_3 N49_3 1_555 1_555
N53_3 Cu2_3 1_555 1_555
N58_3 Cu18_3 1_555 1_555
N59_3 Cu10_3 1_555 1_555
N60_3 Cu11_3 1_555 1_555
N63_3 Cu14_3 1_555 1_555
N64_3 Cu3_3 1_555 1_555
N69_3 Cu25_3 1_555 1_555
N70_3 Cu21_3 1_555 1_555
N71_3 Cu33 1_555 1_555
N74_3 Cu29_3 1_555 1_555
N75_3 H40_3 1_555 1_555
N80_3 H45_3 1_555 1_555
N81_3 H46_3 1_555 1_555
N82_3 H47_3 1_555 1_555
N85_3 H50_3 1_555 1_555
N92_3 H57_3 1_555 1_555
N93_3 H58_3 1_555 1_555
H68_3 N92_3 1_555 1_555
H69_3 N93_3 1_555 1_555
C6_3 S4_3 1_555 1_555
C11_3 N15_3 1_555 1_555
C12_3 N16_3 1_555 1_555
C18_3 N22_3 1_555 1_555
C19_3 N23_3 1_555 1_555
C22_3 N26_3 1_555 1_555
C23_3 N27_3 1_555 1_555
C26_3 N30_3 1_555 1_555
C27_3 S26_3 1_555 1_555
C32_3 S31_3 1_555 1_555
C33_3 S32_3 1_555 1_555
C34_3 S33_3 1_555 1_555
C37_3 S36_3 1_555 1_555
C38_3 N64_3 1_555 1_555
C43_3 N69_3 1_555 1_555
C44_3 N70_3 1_555 1_555
C45_3 N71_3 1_555 1_555
C48_3 N74_3 1_555 1_555
Cu4_6 S4_3 1_555 1_555
N3_3 C1_3 1_555 1_555
N3_3 C2_3 1_555 1_555
N4_3 C2_3 1_555 1_555
N5_3 C3_3 1_555 1_555
N5_3 Cu15_3 1_555 1_555
N7_3 C3_3 1_555 1_555
N8_3 C4_3 1_555 1_555
Cu14_3 S32_3 1_555 1_555
Cu15_3 S33_3 1_555 1_555
Cu18_3 S36_3 1_555 1_555
Cu42_2 S14_3 1_555 1_555
N11_3 N22_3 1_555 1_555
N12_3 N23_3 1_555 1_555
N15_3 N26_3 1_555 1_555
N16_3 N27_3 1_555 1_555
N19_3 N30_3 1_555 1_555
N32_3 C6_3 1_555 1_555
N35_3 C9_3 1_555 1_555
N37_3 C11_3 1_555 1_555
N37_3 C22_3 1_555 1_555
N38_3 C12_3 1_555 1_555
N38_3 C23_3 1_555 1_555
N44_3 C18_3 1_555 1_555
N45_3 C19_3 1_555 1_555
N48_3 C22_3 1_555 1_555
N49_3 C23_3 1_555 1_555
N52_3 C26_3 1_555 1_555
N53_3 N64_3 1_555 1_555
N53_3 C27_3 1_555 1_555
N58_3 N69_3 1_555 1_555
N58_3 C32_3 1_555 1_555
N59_3 N70_3 1_555 1_555
N59_3 C33_3 1_555 1_555
N60_3 N71_3 1_555 1_555
N60_3 C34_3 1_555 1_555
N63_3 N74_3 1_555 1_555
N63_3 C37_3 1_555 1_555
N75_3 C27_3 1_555 1_555
N75_3 C38_3 1_555 1_555
N80_3 C32_3 1_555 1_555
N80_3 C43_3 1_555 1_555
N81_3 C33_3 1_555 1_555
N81_3 C44_3 1_555 1_555
N82_3 C34_3 1_555 1_555
N82_3 C45_3 1_555 1_555
N85_3 C37_3 1_555 1_555
N85_3 C48_3 1_555 1_555
N86_3 C38_3 1_555 1_555
N91_3 C43_3 1_555 1_555
N92_3 C44_3 1_555 1_555
N93_3 C45_3 1_555 1_555
N96_3 C48_3 1_555 1_555
Cu1_4 S2_4 1_555 1_555
Cu2_4 Cl1_4 1_555 1_555
Cu3_4 N1_4 1_555 1_555
Cu4_7 S1_4 1_555 1_555
Cl1_4 Cu11_4 1_555 1_555
S1_4 C1_4 1_555 1_555
S2_4 Cu2_4 1_555 1_555
N1_4 N2_4 1_555 1_555
N2_4 Cu2_4 1_555 1_555
N3_4 H1_4 1_555 1_555
N4_4 H2_4 1_555 1_555
H3_4 N4_4 1_555 1_555
N5_4 N6_4 1_555 1_555
N6_4 C4_4 1_555 1_555
N7_4 H4_4 1_555 1_555
N8_4 H5_4 1_555 1_555
H6_4 N8_4 1_555 1_555
C1_4 N1_4 1_555 1_555
C2_4 N2_4 1_555 1_555
C3_4 S2_4 1_555 1_555
C4_4 N7_4 1_555 1_555
Cu7_4 S31_4 1_555 1_555
Cu10_4 Cl4_4 1_555 1_555
Cu11_4 S26_4 1_555 1_555
Cu14_4 Cl4_4 1_555 1_555
Cu15_4 Cl1_4 1_555 1_555
Cu18_4 Cl4_4 1_555 1_555
Cu21_4 S1_4 1_555 1_555
Cu22_4 N6_4 1_555 1_555
Cu25_4 S17_4 1_555 1_555
Cu29_4 S25_4 1_555 1_555
Cu33_4 S9_4 1_555 1_555
Cu34_4 S10_4 1_555 1_555
Cu40_3 S9_4 1_555 1_555
Cu43_2 S10_4 1_555 1_555
S4_4 Cu3_4 1_555 1_555
S25_2 C9_4 1_555 1_555
S9_4 C11_4 1_555 1_555
S10_4 C12_4 1_555 1_555
S14_4 Cu22_4 1_555 1_555
S17_4 Cu45_5 1_555 1_555
S25_4 Cu40_3 1_555 1_555
S26_4 Cu1_4 1_555 1_555
S31_4 Cu10_4 1_555 1_555
S32_4 Cu7_4 1_555 1_555
S33_4 Cu1_4 1_555 1_555
S36_4 Cu7_4 1_555 1_555
N11_4 Cu21_4 1_555 1_555
N12_4 Cu32_2 1_555 1_555
N15_4 Cu29_4 1_555 1_555
N16_4 Cu22_4 1_555 1_555
N19_4 Cu25_4 1_555 1_555
N22_4 Cu10_4 1_555 1_555
N23_4 Cu11_4 1_555 1_555
N26_4 Cu14_4 1_555 1_555
N27_4 Cu15_4 1_555 1_555
N30_4 Cu18_4 1_555 1_555
N32_4 H8_4 1_555 1_555
N35_4 H11_4 1_555 1_555
N37_4 H13_4 1_555 1_555
N38_4 H14_4 1_555 1_555
N44_4 H20_4 1_555 1_555
N45_4 H21_4 1_555 1_555
N48_4 H24_4 1_555 1_555
N49_4 H25_4 1_555 1_555
N52_4 H28_4 1_555 1_555
H35_4 N48_4 1_555 1_555
H36_4 N49_4 1_555 1_555
N53_4 Cu2_4 1_555 1_555
N58_4 Cu18_4 1_555 1_555
N59_4 Cu10_4 1_555 1_555
N60_4 Cu11_4 1_555 1_555
N63_4 Cu14_4 1_555 1_555
N64_4 Cu3_4 1_555 1_555
N69_4 Cu25_4 1_555 1_555
N70_4 Cu21_4 1_555 1_555
N71_4 Cu32_2 1_555 1_555
N74_4 Cu29_4 1_555 1_555
N75_4 H40_4 1_555 1_555
N80_4 H45_4 1_555 1_555
N81_4 H46_4 1_555 1_555
N82_4 H47_4 1_555 1_555
N85_4 H50_4 1_555 1_555
N92_4 H57_4 1_555 1_555
N93_4 H58_4 1_555 1_555
H68_4 N92_4 1_555 1_555
H69_4 N93_4 1_555 1_555
C6_4 S4_4 1_555 1_555
C11_4 N15_4 1_555 1_555
C12_4 N16_4 1_555 1_555
C18_4 N22_4 1_555 1_555
C19_4 N23_4 1_555 1_555
C22_4 N26_4 1_555 1_555
C23_4 N27_4 1_555 1_555
C26_4 N30_4 1_555 1_555
C27_4 S26_4 1_555 1_555
C32_4 S31_4 1_555 1_555
C33_4 S32_4 1_555 1_555
C34_4 S33_4 1_555 1_555
C37_4 S36_4 1_555 1_555
C38_4 N64_4 1_555 1_555
C43_4 N69_4 1_555 1_555
C44_4 N70_4 1_555 1_555
C45_4 N71_4 1_555 1_555
C48_4 N74_4 1_555 1_555
Cu4_7 S4_4 1_555 1_555
N3_4 C1_4 1_555 1_555
N3_4 C2_4 1_555 1_555
N4_4 C2_4 1_555 1_555
N5_4 C3_4 1_555 1_555
N5_4 Cu15_4 1_555 1_555
N7_4 C3_4 1_555 1_555
N8_4 C4_4 1_555 1_555
Cu14_4 S32_4 1_555 1_555
Cu15_4 S33_4 1_555 1_555
Cu18_4 S36_4 1_555 1_555
Cu43_2 S14_4 1_555 1_555
N11_4 N22_4 1_555 1_555
N12_4 N23_4 1_555 1_555
N15_4 N26_4 1_555 1_555
N16_4 N27_4 1_555 1_555
N19_4 N30_4 1_555 1_555
N32_4 C6_4 1_555 1_555
N35_4 C9_4 1_555 1_555
N37_4 C11_4 1_555 1_555
N37_4 C22_4 1_555 1_555
N38_4 C12_4 1_555 1_555
N38_4 C23_4 1_555 1_555
N44_4 C18_4 1_555 1_555
N45_4 C19_4 1_555 1_555
N48_4 C22_4 1_555 1_555
N49_4 C23_4 1_555 1_555
N52_4 C26_4 1_555 1_555
N53_4 N64_4 1_555 1_555
N53_4 C27_4 1_555 1_555
N58_4 N69_4 1_555 1_555
N58_4 C32_4 1_555 1_555
N59_4 N70_4 1_555 1_555
N59_4 C33_4 1_555 1_555
N60_4 N71_4 1_555 1_555
N60_4 C34_4 1_555 1_555
N63_4 N74_4 1_555 1_555
N63_4 C37_4 1_555 1_555
N75_4 C27_4 1_555 1_555
N75_4 C38_4 1_555 1_555
N80_4 C32_4 1_555 1_555
N80_4 C43_4 1_555 1_555
N81_4 C33_4 1_555 1_555
N81_4 C44_4 1_555 1_555
N82_4 C34_4 1_555 1_555
N82_4 C45_4 1_555 1_555
N85_4 C37_4 1_555 1_555
N85_4 C48_4 1_555 1_555
N86_4 C38_4 1_555 1_555
N91_4 C43_4 1_555 1_555
N92_4 C44_4 1_555 1_555
N93_4 C45_4 1_555 1_555
N96_4 C48_4 1_555 1_555
Cu37_4 S13_4 1_555 1_555
Cu45_6 S13_4 1_555 1_555
S13_4 C15_4 1_555 1_555
N41_4 H17_4 1_555 1_555
N41_4 C15_4 1_555 1_555
Cu5_4 S27_4 1_555 1_555
Cu6_4 S29_4 1_555 1_555
Cu8_4 Cl2_4 1_555 1_555
Cu9_4 Cl3_4 1_555 1_555
Cu12_4 Cl2_4 1_555 1_555
Cu13_4 Cl3_4 1_555 1_555
Cu16_4 Cl2_4 1_555 1_555
Cu17_4 Cl3_4 1_555 1_555
Cu19_4 S5_4 1_555 1_555
Cu20_4 S3_4 1_555 1_555
Cu23_4 S15_4 1_555 1_555
Cu24_4 S16_4 1_555 1_555
Cu28_4 S24_4 1_555 1_555
Cu32_4 S8_4 1_555 1_555
Cu35_4 S11_4 1_555 1_555
Cu41_3 S8_4 1_555 1_555
Cu42_2 S11_4 1_555 1_555
S3_4 Cu4_8 1_555 1_555
S5_4 Cu4_8 1_555 1_555
S25 C8_4 1_555 1_555
S8_4 C10_4 1_555 1_555
S11_4 C13_4 1_555 1_555
S15_4 Cu42_2 1_555 1_555
S16_4 Cu44_7 1_555 1_555
S24_4 Cu41_3 1_555 1_555
S27_4 Cu8_4 1_555 1_555
S28_4 Cu5_4 1_555 1_555
S29_4 Cu9_4 1_555 1_555
S30_4 Cu6_4 1_555 1_555
S34_4 Cu5_4 1_555 1_555
S35_4 Cu6_4 1_555 1_555
N9_4 Cu19_4 1_555 1_555
N10_4 Cu20_4 1_555 1_555
N13_4 Cu32 1_555 1_555
N14_4 Cu28_4 1_555 1_555
N17_4 Cu23_4 1_555 1_555
N18_4 Cu24_4 1_555 1_555
N20_4 Cu8_4 1_555 1_555
N21_4 Cu9_4 1_555 1_555
N24_4 Cu12_4 1_555 1_555
N25_4 Cu13_4 1_555 1_555
N28_4 Cu16_4 1_555 1_555
N29_4 Cu17_4 1_555 1_555
N31_4 H7_4 1_555 1_555
N33_4 H9_4 1_555 1_555
N34_4 H10_4 1_555 1_555
N36_4 H12_4 1_555 1_555
N39_4 H15_4 1_555 1_555
N42_4 H18_4 1_555 1_555
N43_4 H19_4 1_555 1_555
N46_4 H22_4 1_555 1_555
N47_4 H23_4 1_555 1_555
N50_4 H26_4 1_555 1_555
N51_4 H27_4 1_555 1_555
H29_4 N42_4 1_555 1_555
H34_4 N47_4 1_555 1_555
H37_4 N50_4 1_555 1_555
N54_4 Cu16_4 1_555 1_555
N55_4 Cu8_4 1_555 1_555
N56_4 Cu17_4 1_555 1_555
N57_4 Cu9_4 1_555 1_555
N61_4 Cu12_4 1_555 1_555
N62_4 Cu13_4 1_555 1_555
N65_4 Cu23_4 1_555 1_555
N66_4 Cu19_4 1_555 1_555
N67_4 Cu24_4 1_555 1_555
N68_4 Cu20_4 1_555 1_555
N72_4 Cu32 1_555 1_555
N73_4 Cu28_4 1_555 1_555
N76_4 H41_4 1_555 1_555
N77_4 H42_4 1_555 1_555
N78_4 H43_4 1_555 1_555
N79_4 H44_4 1_555 1_555
N83_4 H48_4 1_555 1_555
N84_4 H49_4 1_555 1_555
N87_4 H52_4 1_555 1_555
N90_4 H55_4 1_555 1_555
N94_4 H59_4 1_555 1_555
H63_4 N87_4 1_555 1_555
H66_4 N90_4 1_555 1_555
H70_4 N94_4 1_555 1_555
C5_4 S3_4 1_555 1_555
C7_4 S5_4 1_555 1_555
C10_4 N14_4 1_555 1_555
C13_4 N17_4 1_555 1_555
C16_4 N20_4 1_555 1_555
C17_4 N21_4 1_555 1_555
C20_4 N24_4 1_555 1_555
C21_4 N25_4 1_555 1_555
C24_4 N28_4 1_555 1_555
C25_4 N29_4 1_555 1_555
C28_4 S27_4 1_555 1_555
C29_4 S28_4 1_555 1_555
C30_4 S29_4 1_555 1_555
C31_4 S30_4 1_555 1_555
C35_4 S34_4 1_555 1_555
C36_4 S35_4 1_555 1_555
C39_4 N65_4 1_555 1_555
C40_4 N66_4 1_555 1_555
C41_4 N67_4 1_555 1_555
C42_4 N68_4 1_555 1_555
C46_4 N72_4 1_555 1_555
C47_4 N73_4 1_555 1_555
Cu12_4 S28_4 1_555 1_555
Cu13_4 S30_4 1_555 1_555
Cu16_4 S34_4 1_555 1_555
Cu17_4 S35_4 1_555 1_555
N9_4 N20_4 1_555 1_555
N9_4 C5_4 1_555 1_555
N10_4 N21_4 1_555 1_555
N13_4 N24_4 1_555 1_555
N14_4 N25_4 1_555 1_555
N17_4 N28_4 1_555 1_555
N18_4 N29_4 1_555 1_555
N31_4 C5_4 1_555 1_555
N31_4 C16_4 1_555 1_555
N33_4 C7_4 1_555 1_555
N34_4 C8_4 1_555 1_555
N36_4 C10_4 1_555 1_555
N36_4 C21_4 1_555 1_555
N39_4 C13_4 1_555 1_555
N39_4 C24_4 1_555 1_555
N42_4 C16_4 1_555 1_555
N43_4 C17_4 1_555 1_555
N46_4 C20_4 1_555 1_555
N47_4 C21_4 1_555 1_555
N50_4 C24_4 1_555 1_555
N51_4 C25_4 1_555 1_555
N54_4 N65_4 1_555 1_555
N54_4 C28_4 1_555 1_555
N55_4 N66_4 1_555 1_555
N55_4 C29_4 1_555 1_555
N56_4 N67_4 1_555 1_555
N56_4 C30_4 1_555 1_555
N57_4 N68_4 1_555 1_555
N57_4 C31_4 1_555 1_555
N61_4 N72_4 1_555 1_555
N61_4 C35_4 1_555 1_555
N62_4 N73_4 1_555 1_555
N62_4 C36_4 1_555 1_555
N76_4 C28_4 1_555 1_555
N76_4 C39_4 1_555 1_555
N77_4 C29_4 1_555 1_555
N77_4 C40_4 1_555 1_555
N78_4 C30_4 1_555 1_555
N78_4 C41_4 1_555 1_555
N79_4 C31_4 1_555 1_555
N79_4 C42_4 1_555 1_555
N83_4 C35_4 1_555 1_555
N83_4 C46_4 1_555 1_555
N84_4 C36_4 1_555 1_555
N84_4 C47_4 1_555 1_555
N87_4 C39_4 1_555 1_555
N88_4 C40_4 1_555 1_555
N89_4 C41_4 1_555 1_555
N90_4 C42_4 1_555 1_555
N94_4 C46_4 1_555 1_555
N95_4 C47_4 1_555 1_555
Cu36_4 S12_4 1_555 1_555
Cu44_8 S12_4 1_555 1_555
S12_4 C14_4 1_555 1_555
N40_4 H16_4 1_555 1_555
N40_4 C14_4 1_555 1_555
Cu36_5 S12_5 1_555 1_555
Cu44_9 S12_5 1_555 1_555
S12_5 C14_5 1_555 1_555
N40_5 H16_5 1_555 1_555
N40_5 C14_5 1_555 1_555
Cu37_5 S13_5 1_555 1_555
Cu45_10 S13_5 1_555 1_555
S13_5 C15_5 1_555 1_555
N41_5 H17_5 1_555 1_555
N41_5 C15_5 1_555 1_555
Cu5_5 S27_5 1_555 1_555
Cu6_5 S29_5 1_555 1_555
Cu8_5 Cl2_5 1_555 1_555
Cu9_5 Cl3_5 1_555 1_555
Cu12_5 Cl2_5 1_555 1_555
Cu13_5 Cl3_5 1_555 1_555
Cu16_5 Cl2_5 1_555 1_555
Cu17_5 Cl3_5 1_555 1_555
Cu19_5 S5_5 1_555 1_555
Cu20_5 S3_5 1_555 1_555
Cu23_5 S15_5 1_555 1_555
Cu24_5 S16_5 1_555 1_555
Cu35_5 S11_5 1_555 1_555
Cu43_3 S11_5 1_555 1_555
S3_5 Cu4_9 1_555 1_555
S5_5 Cu4_9 1_555 1_555
S24_4 C8_5 1_555 1_555
S23 C10_5 1_555 1_555
S11_5 C13_5 1_555 1_555
S15_5 Cu43_3 1_555 1_555
S16_5 Cu44_11 1_555 1_555
S27_5 Cu8_5 1_555 1_555
S28_5 Cu5_5 1_555 1_555
S29_5 Cu9_5 1_555 1_555
S30_5 Cu6_5 1_555 1_555
S34_5 Cu5_5 1_555 1_555
S35_5 Cu6_5 1_555 1_555
N9_5 Cu19_5 1_555 1_555
N10_5 Cu20_5 1_555 1_555
N13_5 Cu33_4 1_555 1_555
N14_5 Cu31 1_555 1_555
N17_5 Cu23_5 1_555 1_555
N18_5 Cu24_5 1_555 1_555
N20_5 Cu8_5 1_555 1_555
N21_5 Cu9_5 1_555 1_555
N24_5 Cu12_5 1_555 1_555
N25_5 Cu13_5 1_555 1_555
N28_5 Cu16_5 1_555 1_555
N29_5 Cu17_5 1_555 1_555
N31_5 H7_5 1_555 1_555
N33_5 H9_5 1_555 1_555
N34_5 H10_5 1_555 1_555
N36_5 H12_5 1_555 1_555
N39_5 H15_5 1_555 1_555
N42_5 H18_5 1_555 1_555
N43_5 H19_5 1_555 1_555
N46_5 H22_5 1_555 1_555
N47_5 H23_5 1_555 1_555
N50_5 H26_5 1_555 1_555
N51_5 H27_5 1_555 1_555
H29_5 N42_5 1_555 1_555
H34_5 N47_5 1_555 1_555
H37_5 N50_5 1_555 1_555
N54_5 Cu16_5 1_555 1_555
N55_5 Cu8_5 1_555 1_555
N56_5 Cu17_5 1_555 1_555
N57_5 Cu9_5 1_555 1_555
N61_5 Cu12_5 1_555 1_555
N62_5 Cu13_5 1_555 1_555
N65_5 Cu23_5 1_555 1_555
N66_5 Cu19_5 1_555 1_555
N67_5 Cu24_5 1_555 1_555
N68_5 Cu20_5 1_555 1_555
N72_5 Cu33_4 1_555 1_555
N73_5 Cu31 1_555 1_555
N76_5 H41_5 1_555 1_555
N77_5 H42_5 1_555 1_555
N78_5 H43_5 1_555 1_555
N79_5 H44_5 1_555 1_555
N83_5 H48_5 1_555 1_555
N84_5 H49_5 1_555 1_555
N87_5 H52_5 1_555 1_555
N90_5 H55_5 1_555 1_555
N94_5 H59_5 1_555 1_555
H63_5 N87_5 1_555 1_555
H66_5 N90_5 1_555 1_555
H70_5 N94_5 1_555 1_555
C5_5 S3_5 1_555 1_555
C7_5 S5_5 1_555 1_555
C10_5 N14_5 1_555 1_555
C13_5 N17_5 1_555 1_555
C16_5 N20_5 1_555 1_555
C17_5 N21_5 1_555 1_555
C20_5 N24_5 1_555 1_555
C21_5 N25_5 1_555 1_555
C24_5 N28_5 1_555 1_555
C25_5 N29_5 1_555 1_555
C28_5 S27_5 1_555 1_555
C29_5 S28_5 1_555 1_555
C30_5 S29_5 1_555 1_555
C31_5 S30_5 1_555 1_555
C35_5 S34_5 1_555 1_555
C36_5 S35_5 1_555 1_555
C39_5 N65_5 1_555 1_555
C40_5 N66_5 1_555 1_555
C41_5 N67_5 1_555 1_555
C42_5 N68_5 1_555 1_555
C46_5 N72_5 1_555 1_555
C47_5 N73_5 1_555 1_555
Cu12_5 S28_5 1_555 1_555
Cu13_5 S30_5 1_555 1_555
Cu16_5 S34_5 1_555 1_555
Cu17_5 S35_5 1_555 1_555
N9_5 N20_5 1_555 1_555
N9_5 C5_5 1_555 1_555
N10_5 N21_5 1_555 1_555
N13_5 N24_5 1_555 1_555
N14_5 N25_5 1_555 1_555
N17_5 N28_5 1_555 1_555
N18_5 N29_5 1_555 1_555
N31_5 C5_5 1_555 1_555
N31_5 C16_5 1_555 1_555
N33_5 C7_5 1_555 1_555
N34_5 C8_5 1_555 1_555
N36_5 C10_5 1_555 1_555
N36_5 C21_5 1_555 1_555
N39_5 C13_5 1_555 1_555
N39_5 C24_5 1_555 1_555
N42_5 C16_5 1_555 1_555
N43_5 C17_5 1_555 1_555
N46_5 C20_5 1_555 1_555
N47_5 C21_5 1_555 1_555
N50_5 C24_5 1_555 1_555
N51_5 C25_5 1_555 1_555
N54_5 N65_5 1_555 1_555
N54_5 C28_5 1_555 1_555
N55_5 N66_5 1_555 1_555
N55_5 C29_5 1_555 1_555
N56_5 N67_5 1_555 1_555
N56_5 C30_5 1_555 1_555
N57_5 N68_5 1_555 1_555
N57_5 C31_5 1_555 1_555
N61_5 N72_5 1_555 1_555
N61_5 C35_5 1_555 1_555
N62_5 N73_5 1_555 1_555
N62_5 C36_5 1_555 1_555
N76_5 C28_5 1_555 1_555
N76_5 C39_5 1_555 1_555
N77_5 C29_5 1_555 1_555
N77_5 C40_5 1_555 1_555
N78_5 C30_5 1_555 1_555
N78_5 C41_5 1_555 1_555
N79_5 C31_5 1_555 1_555
N79_5 C42_5 1_555 1_555
N83_5 C35_5 1_555 1_555
N83_5 C46_5 1_555 1_555
N84_5 C36_5 1_555 1_555
N84_5 C47_5 1_555 1_555
N87_5 C39_5 1_555 1_555
N88_5 C40_5 1_555 1_555
N89_5 C41_5 1_555 1_555
N90_5 C42_5 1_555 1_555
N94_5 C46_5 1_555 1_555
N95_5 C47_5 1_555 1_555
Cu1_5 S2_5 1_555 1_555
Cu2_5 Cl1_5 1_555 1_555
Cu3_5 N1_5 1_555 1_555
Cu4_10 S1_5 1_555 1_555
Cl1_5 Cu11_5 1_555 1_555
S1_5 C1_5 1_555 1_555
S2_5 Cu2_5 1_555 1_555
N1_5 N2_5 1_555 1_555
N2_5 Cu2_5 1_555 1_555
N3_5 H1_5 1_555 1_555
N4_5 H2_5 1_555 1_555
H3_5 N4_5 1_555 1_555
N5_5 N6_5 1_555 1_555
N6_5 C4_5 1_555 1_555
N7_5 H4_5 1_555 1_555
N8_5 H5_5 1_555 1_555
H6_5 N8_5 1_555 1_555
C1_5 N1_5 1_555 1_555
C2_5 N2_5 1_555 1_555
C3_5 S2_5 1_555 1_555
C4_5 N7_5 1_555 1_555
Cu7_5 S31_5 1_555 1_555
Cu10_5 Cl4_5 1_555 1_555
Cu11_5 S26_5 1_555 1_555
Cu14_5 Cl4_5 1_555 1_555
Cu15_5 Cl1_5 1_555 1_555
Cu18_5 Cl4_5 1_555 1_555
Cu21_5 S1_5 1_555 1_555
Cu22_5 N6_5 1_555 1_555
Cu25_5 S17_5 1_555 1_555
Cu34_5 S10_5 1_555 1_555
Cu42_3 S10_5 1_555 1_555
S4_5 Cu3_5 1_555 1_555
S24_3 C9_5 1_555 1_555
S19 C11_5 1_555 1_555
S10_5 C12_5 1_555 1_555
S14_5 Cu22_5 1_555 1_555
S17_5 Cu45_12 1_555 1_555
S26_5 Cu1_5 1_555 1_555
S31_5 Cu10_5 1_555 1_555
S32_5 Cu7_5 1_555 1_555
S33_5 Cu1_5 1_555 1_555
S36_5 Cu7_5 1_555 1_555
N11_5 Cu21_5 1_555 1_555
N12_5 Cu33_3 1_555 1_555
N15_5 Cu30_2 1_555 1_555
N16_5 Cu22_5 1_555 1_555
N19_5 Cu25_5 1_555 1_555
N22_5 Cu10_5 1_555 1_555
N23_5 Cu11_5 1_555 1_555
N26_5 Cu14_5 1_555 1_555
N27_5 Cu15_5 1_555 1_555
N30_5 Cu18_5 1_555 1_555
N32_5 H8_5 1_555 1_555
N35_5 H11_5 1_555 1_555
N37_5 H13_5 1_555 1_555
N38_5 H14_5 1_555 1_555
N44_5 H20_5 1_555 1_555
N45_5 H21_5 1_555 1_555
N48_5 H24_5 1_555 1_555
N49_5 H25_5 1_555 1_555
N52_5 H28_5 1_555 1_555
H35_5 N48_5 1_555 1_555
H36_5 N49_5 1_555 1_555
N53_5 Cu2_5 1_555 1_555
N58_5 Cu18_5 1_555 1_555
N59_5 Cu10_5 1_555 1_555
N60_5 Cu11_5 1_555 1_555
N63_5 Cu14_5 1_555 1_555
N64_5 Cu3_5 1_555 1_555
N69_5 Cu25_5 1_555 1_555
N70_5 Cu21_5 1_555 1_555
N71_5 Cu33_3 1_555 1_555
N74_5 Cu30_2 1_555 1_555
N75_5 H40_5 1_555 1_555
N80_5 H45_5 1_555 1_555
N81_5 H46_5 1_555 1_555
N82_5 H47_5 1_555 1_555
N85_5 H50_5 1_555 1_555
N92_5 H57_5 1_555 1_555
N93_5 H58_5 1_555 1_555
H68_5 N92_5 1_555 1_555
H69_5 N93_5 1_555 1_555
C6_5 S4_5 1_555 1_555
C11_5 N15_5 1_555 1_555
C12_5 N16_5 1_555 1_555
C18_5 N22_5 1_555 1_555
C19_5 N23_5 1_555 1_555
C22_5 N26_5 1_555 1_555
C23_5 N27_5 1_555 1_555
C26_5 N30_5 1_555 1_555
C27_5 S26_5 1_555 1_555
C32_5 S31_5 1_555 1_555
C33_5 S32_5 1_555 1_555
C34_5 S33_5 1_555 1_555
C37_5 S36_5 1_555 1_555
C38_5 N64_5 1_555 1_555
C43_5 N69_5 1_555 1_555
C44_5 N70_5 1_555 1_555
C45_5 N71_5 1_555 1_555
C48_5 N74_5 1_555 1_555
Cu4_10 S4_5 1_555 1_555
N3_5 C1_5 1_555 1_555
N3_5 C2_5 1_555 1_555
N4_5 C2_5 1_555 1_555
N5_5 C3_5 1_555 1_555
N5_5 Cu15_5 1_555 1_555
N7_5 C3_5 1_555 1_555
N8_5 C4_5 1_555 1_555
Cu14_5 S32_5 1_555 1_555
Cu15_5 S33_5 1_555 1_555
Cu18_5 S36_5 1_555 1_555
Cu42_3 S14_5 1_555 1_555
N11_5 N22_5 1_555 1_555
N12_5 N23_5 1_555 1_555
N15_5 N26_5 1_555 1_555
N16_5 N27_5 1_555 1_555
N19_5 N30_5 1_555 1_555
N32_5 C6_5 1_555 1_555
N35_5 C9_5 1_555 1_555
N37_5 C11_5 1_555 1_555
N37_5 C22_5 1_555 1_555
N38_5 C12_5 1_555 1_555
N38_5 C23_5 1_555 1_555
N44_5 C18_5 1_555 1_555
N45_5 C19_5 1_555 1_555
N48_5 C22_5 1_555 1_555
N49_5 C23_5 1_555 1_555
N52_5 C26_5 1_555 1_555
N53_5 N64_5 1_555 1_555
N53_5 C27_5 1_555 1_555
N58_5 N69_5 1_555 1_555
N58_5 C32_5 1_555 1_555
N59_5 N70_5 1_555 1_555
N59_5 C33_5 1_555 1_555
N60_5 N71_5 1_555 1_555
N60_5 C34_5 1_555 1_555
N63_5 N74_5 1_555 1_555
N63_5 C37_5 1_555 1_555
N75_5 C27_5 1_555 1_555
N75_5 C38_5 1_555 1_555
N80_5 C32_5 1_555 1_555
N80_5 C43_5 1_555 1_555
N81_5 C33_5 1_555 1_555
N81_5 C44_5 1_555 1_555
N82_5 C34_5 1_555 1_555
N82_5 C45_5 1_555 1_555
N85_5 C37_5 1_555 1_555
N85_5 C48_5 1_555 1_555
N86_5 C38_5 1_555 1_555
N91_5 C43_5 1_555 1_555
N92_5 C44_5 1_555 1_555
N93_5 C45_5 1_555 1_555
N96_5 C48_5 1_555 1_555
Cu1_6 S2_6 1_555 1_555
Cu2_6 Cl1_6 1_555 1_555
Cu3_6 N1_6 1_555 1_555
Cu4_11 S1_6 1_555 1_555
Cl1_6 Cu11_6 1_555 1_555
S1_6 C1_6 1_555 1_555
S2_6 Cu2_6 1_555 1_555
N1_6 N2_6 1_555 1_555
N2_6 Cu2_6 1_555 1_555
N3_6 H1_6 1_555 1_555
N4_6 H2_6 1_555 1_555
H3_6 N4_6 1_555 1_555
N5_6 N6_6 1_555 1_555
N6_6 C4_6 1_555 1_555
N7_6 H4_6 1_555 1_555
N8_6 H5_6 1_555 1_555
H6_6 N8_6 1_555 1_555
C1_6 N1_6 1_555 1_555
C2_6 N2_6 1_555 1_555
C3_6 S2_6 1_555 1_555
C4_6 N7_6 1_555 1_555
Cu7_6 S31_6 1_555 1_555
Cu10_6 Cl4_6 1_555 1_555
Cu11_6 S26_6 1_555 1_555
Cu14_6 Cl4_6 1_555 1_555
Cu15_6 Cl1_6 1_555 1_555
Cu18_6 Cl4_6 1_555 1_555
Cu21_6 S1_6 1_555 1_555
Cu22_6 N6_6 1_555 1_555
Cu25_6 S17_6 1_555 1_555
Cu34_6 S10_6 1_555 1_555
Cu43_3 S10_6 1_555 1_555
S4_6 Cu3_6 1_555 1_555
S25_4 C9_6 1_555 1_555
S22 C11_6 1_555 1_555
S10_6 C12_6 1_555 1_555
S14_6 Cu22_6 1_555 1_555
S17_6 Cu45_9 1_555 1_555
S26_6 Cu1_6 1_555 1_555
S31_6 Cu10_6 1_555 1_555
S32_6 Cu7_6 1_555 1_555
S33_6 Cu1_6 1_555 1_555
S36_6 Cu7_6 1_555 1_555
N11_6 Cu21_6 1_555 1_555
N12_6 Cu32_4 1_555 1_555
N15_6 Cu31_2 1_555 1_555
N16_6 Cu22_6 1_555 1_555
N19_6 Cu25_6 1_555 1_555
N22_6 Cu10_6 1_555 1_555
N23_6 Cu11_6 1_555 1_555
N26_6 Cu14_6 1_555 1_555
N27_6 Cu15_6 1_555 1_555
N30_6 Cu18_6 1_555 1_555
N32_6 H8_6 1_555 1_555
N35_6 H11_6 1_555 1_555
N37_6 H13_6 1_555 1_555
N38_6 H14_6 1_555 1_555
N44_6 H20_6 1_555 1_555
N45_6 H21_6 1_555 1_555
N48_6 H24_6 1_555 1_555
N49_6 H25_6 1_555 1_555
N52_6 H28_6 1_555 1_555
H35_6 N48_6 1_555 1_555
H36_6 N49_6 1_555 1_555
N53_6 Cu2_6 1_555 1_555
N58_6 Cu18_6 1_555 1_555
N59_6 Cu10_6 1_555 1_555
N60_6 Cu11_6 1_555 1_555
N63_6 Cu14_6 1_555 1_555
N64_6 Cu3_6 1_555 1_555
N69_6 Cu25_6 1_555 1_555
N70_6 Cu21_6 1_555 1_555
N71_6 Cu32_4 1_555 1_555
N74_6 Cu31_2 1_555 1_555
N75_6 H40_6 1_555 1_555
N80_6 H45_6 1_555 1_555
N81_6 H46_6 1_555 1_555
N82_6 H47_6 1_555 1_555
N85_6 H50_6 1_555 1_555
N92_6 H57_6 1_555 1_555
N93_6 H58_6 1_555 1_555
H68_6 N92_6 1_555 1_555
H69_6 N93_6 1_555 1_555
C6_6 S4_6 1_555 1_555
C11_6 N15_6 1_555 1_555
C12_6 N16_6 1_555 1_555
C18_6 N22_6 1_555 1_555
C19_6 N23_6 1_555 1_555
C22_6 N26_6 1_555 1_555
C23_6 N27_6 1_555 1_555
C26_6 N30_6 1_555 1_555
C27_6 S26_6 1_555 1_555
C32_6 S31_6 1_555 1_555
C33_6 S32_6 1_555 1_555
C34_6 S33_6 1_555 1_555
C37_6 S36_6 1_555 1_555
C38_6 N64_6 1_555 1_555
C43_6 N69_6 1_555 1_555
C44_6 N70_6 1_555 1_555
C45_6 N71_6 1_555 1_555
C48_6 N74_6 1_555 1_555
Cu4_11 S4_6 1_555 1_555
N3_6 C1_6 1_555 1_555
N3_6 C2_6 1_555 1_555
N4_6 C2_6 1_555 1_555
N5_6 C3_6 1_555 1_555
N5_6 Cu15_6 1_555 1_555
N7_6 C3_6 1_555 1_555
N8_6 C4_6 1_555 1_555
Cu14_6 S32_6 1_555 1_555
Cu15_6 S33_6 1_555 1_555
Cu18_6 S36_6 1_555 1_555
Cu43_3 S14_6 1_555 1_555
N11_6 N22_6 1_555 1_555
N12_6 N23_6 1_555 1_555
N15_6 N26_6 1_555 1_555
N16_6 N27_6 1_555 1_555
N19_6 N30_6 1_555 1_555
N32_6 C6_6 1_555 1_555
N35_6 C9_6 1_555 1_555
N37_6 C11_6 1_555 1_555
N37_6 C22_6 1_555 1_555
N38_6 C12_6 1_555 1_555
N38_6 C23_6 1_555 1_555
N44_6 C18_6 1_555 1_555
N45_6 C19_6 1_555 1_555
N48_6 C22_6 1_555 1_555
N49_6 C23_6 1_555 1_555
N52_6 C26_6 1_555 1_555
N53_6 N64_6 1_555 1_555
N53_6 C27_6 1_555 1_555
N58_6 N69_6 1_555 1_555
N58_6 C32_6 1_555 1_555
N59_6 N70_6 1_555 1_555
N59_6 C33_6 1_555 1_555
N60_6 N71_6 1_555 1_555
N60_6 C34_6 1_555 1_555
N63_6 N74_6 1_555 1_555
N63_6 C37_6 1_555 1_555
N75_6 C27_6 1_555 1_555
N75_6 C38_6 1_555 1_555
N80_6 C32_6 1_555 1_555
N80_6 C43_6 1_555 1_555
N81_6 C33_6 1_555 1_555
N81_6 C44_6 1_555 1_555
N82_6 C34_6 1_555 1_555
N82_6 C45_6 1_555 1_555
N85_6 C37_6 1_555 1_555
N85_6 C48_6 1_555 1_555
N86_6 C38_6 1_555 1_555
N91_6 C43_6 1_555 1_555
N92_6 C44_6 1_555 1_555
N93_6 C45_6 1_555 1_555
N96_6 C48_6 1_555 1_555
Cu5_6 S27_6 1_555 1_555
Cu6_6 S29_6 1_555 1_555
Cu8_6 Cl2_6 1_555 1_555
Cu9_6 Cl3_6 1_555 1_555
Cu12_6 Cl2_6 1_555 1_555
Cu13_6 Cl3_6 1_555 1_555
Cu16_6 Cl2_6 1_555 1_555
Cu17_6 Cl3_6 1_555 1_555
Cu19_6 S5_6 1_555 1_555
Cu20_6 S3_6 1_555 1_555
Cu23_6 S15_6 1_555 1_555
Cu24_6 S16_6 1_555 1_555
Cu35_6 S11_6 1_555 1_555
Cu42_3 S11_6 1_555 1_555
S3_6 Cu4_12 1_555 1_555
S5_6 Cu4_12 1_555 1_555
S25_3 C8_6 1_555 1_555
S20 C10_6 1_555 1_555
S11_6 C13_6 1_555 1_555
S15_6 Cu42_3 1_555 1_555
S16_6 Cu44_10 1_555 1_555
S27_6 Cu8_6 1_555 1_555
S28_6 Cu5_6 1_555 1_555
S29_6 Cu9_6 1_555 1_555
S30_6 Cu6_6 1_555 1_555
S34_6 Cu5_6 1_555 1_555
S35_6 Cu6_6 1_555 1_555
N9_6 Cu19_6 1_555 1_555
N10_6 Cu20_6 1_555 1_555
N13_6 Cu32_3 1_555 1_555
N14_6 Cu30 1_555 1_555
N17_6 Cu23_6 1_555 1_555
N18_6 Cu24_6 1_555 1_555
N20_6 Cu8_6 1_555 1_555
N21_6 Cu9_6 1_555 1_555
N24_6 Cu12_6 1_555 1_555
N25_6 Cu13_6 1_555 1_555
N28_6 Cu16_6 1_555 1_555
N29_6 Cu17_6 1_555 1_555
N31_6 H7_6 1_555 1_555
N33_6 H9_6 1_555 1_555
N34_6 H10_6 1_555 1_555
N36_6 H12_6 1_555 1_555
N39_6 H15_6 1_555 1_555
N42_6 H18_6 1_555 1_555
N43_6 H19_6 1_555 1_555
N46_6 H22_6 1_555 1_555
N47_6 H23_6 1_555 1_555
N50_6 H26_6 1_555 1_555
N51_6 H27_6 1_555 1_555
H29_6 N42_6 1_555 1_555
H34_6 N47_6 1_555 1_555
H37_6 N50_6 1_555 1_555
N54_6 Cu16_6 1_555 1_555
N55_6 Cu8_6 1_555 1_555
N56_6 Cu17_6 1_555 1_555
N57_6 Cu9_6 1_555 1_555
N61_6 Cu12_6 1_555 1_555
N62_6 Cu13_6 1_555 1_555
N65_6 Cu23_6 1_555 1_555
N66_6 Cu19_6 1_555 1_555
N67_6 Cu24_6 1_555 1_555
N68_6 Cu20_6 1_555 1_555
N72_6 Cu32_3 1_555 1_555
N73_6 Cu30 1_555 1_555
N76_6 H41_6 1_555 1_555
N77_6 H42_6 1_555 1_555
N78_6 H43_6 1_555 1_555
N79_6 H44_6 1_555 1_555
N83_6 H48_6 1_555 1_555
N84_6 H49_6 1_555 1_555
N87_6 H52_6 1_555 1_555
N90_6 H55_6 1_555 1_555
N94_6 H59_6 1_555 1_555
H63_6 N87_6 1_555 1_555
H66_6 N90_6 1_555 1_555
H70_6 N94_6 1_555 1_555
C5_6 S3_6 1_555 1_555
C7_6 S5_6 1_555 1_555
C10_6 N14_6 1_555 1_555
C13_6 N17_6 1_555 1_555
C16_6 N20_6 1_555 1_555
C17_6 N21_6 1_555 1_555
C20_6 N24_6 1_555 1_555
C21_6 N25_6 1_555 1_555
C24_6 N28_6 1_555 1_555
C25_6 N29_6 1_555 1_555
C28_6 S27_6 1_555 1_555
C29_6 S28_6 1_555 1_555
C30_6 S29_6 1_555 1_555
C31_6 S30_6 1_555 1_555
C35_6 S34_6 1_555 1_555
C36_6 S35_6 1_555 1_555
C39_6 N65_6 1_555 1_555
C40_6 N66_6 1_555 1_555
C41_6 N67_6 1_555 1_555
C42_6 N68_6 1_555 1_555
C46_6 N72_6 1_555 1_555
C47_6 N73_6 1_555 1_555
Cu12_6 S28_6 1_555 1_555
Cu13_6 S30_6 1_555 1_555
Cu16_6 S34_6 1_555 1_555
Cu17_6 S35_6 1_555 1_555
N9_6 N20_6 1_555 1_555
N9_6 C5_6 1_555 1_555
N10_6 N21_6 1_555 1_555
N13_6 N24_6 1_555 1_555
N14_6 N25_6 1_555 1_555
N17_6 N28_6 1_555 1_555
N18_6 N29_6 1_555 1_555
N31_6 C5_6 1_555 1_555
N31_6 C16_6 1_555 1_555
N33_6 C7_6 1_555 1_555
N34_6 C8_6 1_555 1_555
N36_6 C10_6 1_555 1_555
N36_6 C21_6 1_555 1_555
N39_6 C13_6 1_555 1_555
N39_6 C24_6 1_555 1_555
N42_6 C16_6 1_555 1_555
N43_6 C17_6 1_555 1_555
N46_6 C20_6 1_555 1_555
N47_6 C21_6 1_555 1_555
N50_6 C24_6 1_555 1_555
N51_6 C25_6 1_555 1_555
N54_6 N65_6 1_555 1_555
N54_6 C28_6 1_555 1_555
N55_6 N66_6 1_555 1_555
N55_6 C29_6 1_555 1_555
N56_6 N67_6 1_555 1_555
N56_6 C30_6 1_555 1_555
N57_6 N68_6 1_555 1_555
N57_6 C31_6 1_555 1_555
N61_6 N72_6 1_555 1_555
N61_6 C35_6 1_555 1_555
N62_6 N73_6 1_555 1_555
N62_6 C36_6 1_555 1_555
N76_6 C28_6 1_555 1_555
N76_6 C39_6 1_555 1_555
N77_6 C29_6 1_555 1_555
N77_6 C40_6 1_555 1_555
N78_6 C30_6 1_555 1_555
N78_6 C41_6 1_555 1_555
N79_6 C31_6 1_555 1_555
N79_6 C42_6 1_555 1_555
N83_6 C35_6 1_555 1_555
N83_6 C46_6 1_555 1_555
N84_6 C36_6 1_555 1_555
N84_6 C47_6 1_555 1_555
N87_6 C39_6 1_555 1_555
N88_6 C40_6 1_555 1_555
N89_6 C41_6 1_555 1_555
N90_6 C42_6 1_555 1_555
N94_6 C46_6 1_555 1_555
N95_6 C47_6 1_555 1_555
Cu37_6 S13_6 1_555 1_555
Cu45_11 S13_6 1_555 1_555
S13_6 C15_6 1_555 1_555
N41_6 H17_6 1_555 1_555
N41_6 C15_6 1_555 1_555
Cu36_6 S12_6 1_555 1_555
Cu44_12 S12_6 1_555 1_555
S12_6 C14_6 1_555 1_555
N40_6 H16_6 1_555 1_555
N40_6 C14_6 1_555 1_555
S17_2 C8_7 1_555 1_555
N31_7 H7_7 1_555 1_555
N34_7 H10_7 1_555 1_555
C5_7 S17_6 1_555 1_555
N31_7 C5_7 1_555 1_555
N34_7 C8_7 1_555 1_555
Cu5_7 S27_7 1_555 1_555
Cu8_7 Cl2_7 1_555 1_555
Cu12_7 Cl2_7 1_555 1_555
Cu16_7 Cl2_7 1_555 1_555
S27_7 Cu8_7 1_555 1_555
S28_7 Cu5_7 1_555 1_555
S34_7 Cu5_7 1_555 1_555
N9_7 Cu37_5 1_555 1_555
N13_7 Cu36 1_555 1_555
N17_7 Cu37_4 1_555 1_555
N20_7 Cu8_7 1_555 1_555
N24_7 Cu12_7 1_555 1_555
N28_7 Cu16_7 1_555 1_555
N42_7 H18_7 1_555 1_555
N46_7 H22_7 1_555 1_555
N50_7 H26_7 1_555 1_555
N54_7 Cu16_7 1_555 1_555
N55_7 Cu8_7 1_555 1_555
N61_7 Cu12_7 1_555 1_555
N65_7 Cu37_4 1_555 1_555
N66_7 Cu37_5 1_555 1_555
N72_7 Cu36 1_555 1_555
N76_7 H41_7 1_555 1_555
N77_7 H42_7 1_555 1_555
N83_7 H48_7 1_555 1_555
C16_7 N20_7 1_555 1_555
C20_7 N24_7 1_555 1_555
C24_7 N28_7 1_555 1_555
C28_7 S27_7 1_555 1_555
C29_7 S28_7 1_555 1_555
C35_7 S34_7 1_555 1_555
C39_7 N65_7 1_555 1_555
C40_7 N66_7 1_555 1_555
C46_7 N72_7 1_555 1_555
Cu12_7 S28_7 1_555 1_555
Cu16_7 S34_7 1_555 1_555
N9_7 N20_7 1_555 1_555
N13_7 N24_7 1_555 1_555
N17_7 N28_7 1_555 1_555
N42_7 C16_7 1_555 1_555
N46_7 C20_7 1_555 1_555
N50_7 C24_7 1_555 1_555
N54_7 N65_7 1_555 1_555
N54_7 C28_7 1_555 1_555
N55_7 N66_7 1_555 1_555
N55_7 C29_7 1_555 1_555
N61_7 N72_7 1_555 1_555
N61_7 C35_7 1_555 1_555
N76_7 C28_7 1_555 1_555
N76_7 C39_7 1_555 1_555
N77_7 C29_7 1_555 1_555
N77_7 C40_7 1_555 1_555
N83_7 C35_7 1_555 1_555
N83_7 C46_7 1_555 1_555
N87_7 C39_7 1_555 1_555
N88_7 C40_7 1_555 1_555
N94_7 C46_7 1_555 1_555
S17_3 C13_7 1_555 1_555
N39_7 H15_7 1_555 1_555
N39_7 C13_7 1_555 1_555
Cu1_7 S2_7 1_555 1_555
Cu2_7 Cl1_7 1_555 1_555
Cu37_6 N1_7 1_555 1_555
Cl1_7 Cu11_7 1_555 1_555
S2_7 Cu2_7 1_555 1_555
N1_7 N2_7 1_555 1_555
N2_7 Cu2_7 1_555 1_555
N4_7 H2_7 1_555 1_555
N5_7 N6_7 1_555 1_555
N6_7 C4_7 1_555 1_555
N7_7 H4_7 1_555 1_555
C2_7 N2_7 1_555 1_555
C3_7 S2_7 1_555 1_555
C4_7 N7_7 1_555 1_555
Cu11_7 S26_7 1_555 1_555
Cu15_7 Cl1_7 1_555 1_555
Cu36_3 N6_7 1_555 1_555
S26_7 Cu1_7 1_555 1_555
S33_7 Cu1_7 1_555 1_555
N12_7 Cu37 1_555 1_555
N16_7 Cu36_3 1_555 1_555
N23_7 Cu11_7 1_555 1_555
N27_7 Cu15_7 1_555 1_555
N45_7 H21_7 1_555 1_555
N49_7 H25_7 1_555 1_555
N53_7 Cu2_7 1_555 1_555
N60_7 Cu11_7 1_555 1_555
N64_7 Cu37_6 1_555 1_555
N71_7 Cu37 1_555 1_555
N75_7 H40_7 1_555 1_555
N82_7 H47_7 1_555 1_555
C19_7 N23_7 1_555 1_555
C23_7 N27_7 1_555 1_555
C27_7 S26_7 1_555 1_555
C34_7 S33_7 1_555 1_555
C38_7 N64_7 1_555 1_555
C45_7 N71_7 1_555 1_555
N4_7 C2_7 1_555 1_555
N5_7 C3_7 1_555 1_555
N5_7 Cu15_7 1_555 1_555
N7_7 C3_7 1_555 1_555
N8_7 C4_7 1_555 1_555
Cu15_7 S33_7 1_555 1_555
N12_7 N23_7 1_555 1_555
N16_7 N27_7 1_555 1_555
N45_7 C19_7 1_555 1_555
N49_7 C23_7 1_555 1_555
N53_7 N64_7 1_555 1_555
N53_7 C27_7 1_555 1_555
N60_7 N71_7 1_555 1_555
N60_7 C34_7 1_555 1_555
N75_7 C27_7 1_555 1_555
N75_7 C38_7 1_555 1_555
N82_7 C34_7 1_555 1_555
N82_7 C45_7 1_555 1_555
N86_7 C38_7 1_555 1_555
N93_7 C45_7 1_555 1_555
S17_5 C1_7 1_555 1_555
N3_7 H1_7 1_555 1_555
S16_2 C9_7 1_555 1_555
N35_7 H11_7 1_555 1_555
N3_7 C1_7 1_555 1_555
N35_7 C9_7 1_555 1_555
S16_4 C12_7 1_555 1_555
N38_7 H14_7 1_555 1_555
N38_7 C12_7 1_555 1_555
S17_4 C12_8 1_555 1_555
N38_8 H14_8 1_555 1_555
N38_8 C12_8 1_555 1_555
Cu1_8 S2_8 1_555 1_555
Cu2_8 Cl1_8 1_555 1_555
Cu36_5 N1_8 1_555 1_555
Cl1_8 Cu11_8 1_555 1_555
S2_8 Cu2_8 1_555 1_555
N1_8 N2_8 1_555 1_555
N2_8 Cu2_8 1_555 1_555
N4_8 H2_8 1_555 1_555
N5_8 N6_8 1_555 1_555
N6_8 C4_8 1_555 1_555
N7_8 H4_8 1_555 1_555
C2_8 N2_8 1_555 1_555
C3_8 S2_8 1_555 1_555
C4_8 N7_8 1_555 1_555
Cu11_8 S26_8 1_555 1_555
Cu15_8 Cl1_8 1_555 1_555
Cu37_3 N6_8 1_555 1_555
S26_8 Cu1_8 1_555 1_555
S33_8 Cu1_8 1_555 1_555
N12_8 Cu37_2 1_555 1_555
N16_8 Cu37_3 1_555 1_555
N23_8 Cu11_8 1_555 1_555
N27_8 Cu15_8 1_555 1_555
N45_8 H21_8 1_555 1_555
N49_8 H25_8 1_555 1_555
N53_8 Cu2_8 1_555 1_555
N60_8 Cu11_8 1_555 1_555
N64_8 Cu36_5 1_555 1_555
N71_8 Cu37_2 1_555 1_555
N75_8 H40_8 1_555 1_555
N82_8 H47_8 1_555 1_555
C19_8 N23_8 1_555 1_555
C23_8 N27_8 1_555 1_555
C27_8 S26_8 1_555 1_555
C34_8 S33_8 1_555 1_555
C38_8 N64_8 1_555 1_555
C45_8 N71_8 1_555 1_555
N4_8 C2_8 1_555 1_555
N5_8 C3_8 1_555 1_555
N5_8 Cu15_8 1_555 1_555
N7_8 C3_8 1_555 1_555
N8_8 C4_8 1_555 1_555
Cu15_8 S33_8 1_555 1_555
N12_8 N23_8 1_555 1_555
N16_8 N27_8 1_555 1_555
N45_8 C19_8 1_555 1_555
N49_8 C23_8 1_555 1_555
N53_8 N64_8 1_555 1_555
N53_8 C27_8 1_555 1_555
N60_8 N71_8 1_555 1_555
N60_8 C34_8 1_555 1_555
N75_8 C27_8 1_555 1_555
N75_8 C38_8 1_555 1_555
N82_8 C34_8 1_555 1_555
N82_8 C45_8 1_555 1_555
N86_8 C38_8 1_555 1_555
N93_8 C45_8 1_555 1_555
S16_6 C1_8 1_555 1_555
N3_8 H1_8 1_555 1_555
S16 C9_8 1_555 1_555
N35_8 H11_8 1_555 1_555
N3_8 C1_8 1_555 1_555
N35_8 C9_8 1_555 1_555
S16_3 C13_8 1_555 1_555
N39_8 H15_8 1_555 1_555
N39_8 C13_8 1_555 1_555
S17 C8_8 1_555 1_555
N31_8 H7_8 1_555 1_555
N34_8 H10_8 1_555 1_555
C5_8 S16_5 1_555 1_555
N31_8 C5_8 1_555 1_555
N34_8 C8_8 1_555 1_555
Cu5_8 S27_8 1_555 1_555
Cu8_8 Cl2_8 1_555 1_555
Cu12_8 Cl2_8 1_555 1_555
Cu16_8 Cl2_8 1_555 1_555
S27_8 Cu8_8 1_555 1_555
S28_8 Cu5_8 1_555 1_555
S34_8 Cu5_8 1_555 1_555
N9_8 Cu36_6 1_555 1_555
N13_8 Cu36_2 1_555 1_555
N17_8 Cu36_4 1_555 1_555
N20_8 Cu8_8 1_555 1_555
N24_8 Cu12_8 1_555 1_555
N28_8 Cu16_8 1_555 1_555
N42_8 H18_8 1_555 1_555
N46_8 H22_8 1_555 1_555
N50_8 H26_8 1_555 1_555
N54_8 Cu16_8 1_555 1_555
N55_8 Cu8_8 1_555 1_555
N61_8 Cu12_8 1_555 1_555
N65_8 Cu36_4 1_555 1_555
N66_8 Cu36_6 1_555 1_555
N72_8 Cu36_2 1_555 1_555
N76_8 H41_8 1_555 1_555
N77_8 H42_8 1_555 1_555
N83_8 H48_8 1_555 1_555
C16_8 N20_8 1_555 1_555
C20_8 N24_8 1_555 1_555
C24_8 N28_8 1_555 1_555
C28_8 S27_8 1_555 1_555
C29_8 S28_8 1_555 1_555
C35_8 S34_8 1_555 1_555
C39_8 N65_8 1_555 1_555
C40_8 N66_8 1_555 1_555
C46_8 N72_8 1_555 1_555
Cu12_8 S28_8 1_555 1_555
Cu16_8 S34_8 1_555 1_555
N9_8 N20_8 1_555 1_555
N13_8 N24_8 1_555 1_555
N17_8 N28_8 1_555 1_555
N42_8 C16_8 1_555 1_555
N46_8 C20_8 1_555 1_555
N50_8 C24_8 1_555 1_555
N54_8 N65_8 1_555 1_555
N54_8 C28_8 1_555 1_555
N55_8 N66_8 1_555 1_555
N55_8 C29_8 1_555 1_555
N61_8 N72_8 1_555 1_555
N61_8 C35_8 1_555 1_555
N76_8 C28_8 1_555 1_555
N76_8 C39_8 1_555 1_555
N77_8 C29_8 1_555 1_555
N77_8 C40_8 1_555 1_555
N83_8 C35_8 1_555 1_555
N83_8 C46_8 1_555 1_555
N87_8 C39_8 1_555 1_555
N88_8 C40_8 1_555 1_555
N94_8 C46_8 1_555 1_555
Cu6_7 S29_7 1_555 1_555
Cu7_7 S31_7 1_555 1_555
Cu9_7 Cl3_7 1_555 1_555
Cu10_7 Cl4_7 1_555 1_555
Cu13_7 Cl3_7 1_555 1_555
Cu14_7 Cl4_7 1_555 1_555
Cu17_7 Cl3_7 1_555 1_555
Cu18_7 Cl4_7 1_555 1_555
S15_4 C10_7 1_555 1_555
S14_4 C11_7 1_555 1_555
S14 C14_7 1_555 1_555
S14_2 C15_7 1_555 1_555
S29_7 Cu9_7 1_555 1_555
S30_7 Cu6_7 1_555 1_555
S31_7 Cu10_7 1_555 1_555
S32_7 Cu7_7 1_555 1_555
S35_7 Cu6_7 1_555 1_555
S36_7 Cu7_7 1_555 1_555
N10_7 Cu34_6 1_555 1_555
N11_7 Cu35_5 1_555 1_555
N14_7 Cu34_3 1_555 1_555
N15_7 Cu35_3 1_555 1_555
N18_7 Cu35_2 1_555 1_555
N19_7 Cu35 1_555 1_555
N21_7 Cu9_7 1_555 1_555
N22_7 Cu10_7 1_555 1_555
N25_7 Cu13_7 1_555 1_555
N26_7 Cu14_7 1_555 1_555
N29_7 Cu17_7 1_555 1_555
N30_7 Cu18_7 1_555 1_555
N32_7 H8_7 1_555 1_555
N33_7 H9_7 1_555 1_555
N36_7 H12_7 1_555 1_555
N37_7 H13_7 1_555 1_555
N40_7 H16_7 1_555 1_555
N41_7 H17_7 1_555 1_555
N43_7 H19_7 1_555 1_555
N44_7 H20_7 1_555 1_555
N47_7 H23_7 1_555 1_555
N48_7 H24_7 1_555 1_555
N51_7 H27_7 1_555 1_555
N52_7 H28_7 1_555 1_555
H30_7 N43_7 1_555 1_555
H31_7 N44_7 1_555 1_555
H34_7 N47_7 1_555 1_555
H35_7 N48_7 1_555 1_555
H38_7 N51_7 1_555 1_555
H39_7 N52_7 1_555 1_555
N56_7 Cu17_7 1_555 1_555
N57_7 Cu9_7 1_555 1_555
N58_7 Cu18_7 1_555 1_555
N59_7 Cu10_7 1_555 1_555
N62_7 Cu13_7 1_555 1_555
N63_7 Cu14_7 1_555 1_555
N67_7 Cu35_2 1_555 1_555
N68_7 Cu34_6 1_555 1_555
N69_7 Cu35 1_555 1_555
N70_7 Cu35_5 1_555 1_555
N73_7 Cu34_3 1_555 1_555
N74_7 Cu35_3 1_555 1_555
N78_7 H43_7 1_555 1_555
N79_7 H44_7 1_555 1_555
N80_7 H45_7 1_555 1_555
N81_7 H46_7 1_555 1_555
N84_7 H49_7 1_555 1_555
N85_7 H50_7 1_555 1_555
N89_7 H54_7 1_555 1_555
N90_7 H55_7 1_555 1_555
N91_7 H56_7 1_555 1_555
N92_7 H57_7 1_555 1_555
N95_7 H60_7 1_555 1_555
N96_7 H61_7 1_555 1_555
H65_7 N89_7 1_555 1_555
H66_7 N90_7 1_555 1_555
H67_7 N91_7 1_555 1_555
H68_7 N92_7 1_555 1_555
H71_7 N95_7 1_555 1_555
H72_7 N96_7 1_555 1_555
C6_7 S15_5 1_555 1_555
C7_7 S14_6 1_555 1_555
C10_7 N14_7 1_555 1_555
C11_7 N15_7 1_555 1_555
C14_7 N18_7 1_555 1_555
C15_7 N19_7 1_555 1_555
C17_7 N21_7 1_555 1_555
C18_7 N22_7 1_555 1_555
C21_7 N25_7 1_555 1_555
C22_7 N26_7 1_555 1_555
C25_7 N29_7 1_555 1_555
C26_7 N30_7 1_555 1_555
C30_7 S29_7 1_555 1_555
C31_7 S30_7 1_555 1_555
C32_7 S31_7 1_555 1_555
C33_7 S32_7 1_555 1_555
C36_7 S35_7 1_555 1_555
C37_7 S36_7 1_555 1_555
C41_7 N67_7 1_555 1_555
C42_7 N68_7 1_555 1_555
C43_7 N69_7 1_555 1_555
C44_7 N70_7 1_555 1_555
C47_7 N73_7 1_555 1_555
C48_7 N74_7 1_555 1_555
Cu13_7 S30_7 1_555 1_555
Cu14_7 S32_7 1_555 1_555
Cu17_7 S35_7 1_555 1_555
Cu18_7 S36_7 1_555 1_555
N10_7 N21_7 1_555 1_555
N10_7 C6_7 1_555 1_555
N11_7 N22_7 1_555 1_555
N11_7 C7_7 1_555 1_555
N14_7 N25_7 1_555 1_555
N15_7 N26_7 1_555 1_555
N18_7 N29_7 1_555 1_555
N19_7 N30_7 1_555 1_555
N32_7 C6_7 1_555 1_555
N32_7 C17_7 1_555 1_555
N33_7 C7_7 1_555 1_555
N33_7 C18_7 1_555 1_555
N36_7 C10_7 1_555 1_555
N36_7 C21_7 1_555 1_555
N37_7 C11_7 1_555 1_555
N37_7 C22_7 1_555 1_555
N40_7 C14_7 1_555 1_555
N40_7 C25_7 1_555 1_555
N41_7 C15_7 1_555 1_555
N41_7 C26_7 1_555 1_555
N43_7 C17_7 1_555 1_555
N44_7 C18_7 1_555 1_555
N47_7 C21_7 1_555 1_555
N48_7 C22_7 1_555 1_555
N51_7 C25_7 1_555 1_555
N52_7 C26_7 1_555 1_555
N56_7 N67_7 1_555 1_555
N56_7 C30_7 1_555 1_555
N57_7 N68_7 1_555 1_555
N57_7 C31_7 1_555 1_555
N58_7 N69_7 1_555 1_555
N58_7 C32_7 1_555 1_555
N59_7 N70_7 1_555 1_555
N59_7 C33_7 1_555 1_555
N62_7 N73_7 1_555 1_555
N62_7 C36_7 1_555 1_555
N63_7 N74_7 1_555 1_555
N63_7 C37_7 1_555 1_555
N78_7 C30_7 1_555 1_555
N78_7 C41_7 1_555 1_555
N79_7 C31_7 1_555 1_555
N79_7 C42_7 1_555 1_555
N80_7 C32_7 1_555 1_555
N80_7 C43_7 1_555 1_555
N81_7 C33_7 1_555 1_555
N81_7 C44_7 1_555 1_555
N84_7 C36_7 1_555 1_555
N84_7 C47_7 1_555 1_555
N85_7 C37_7 1_555 1_555
N85_7 C48_7 1_555 1_555
N89_7 C41_7 1_555 1_555
N90_7 C42_7 1_555 1_555
N91_7 C43_7 1_555 1_555
N92_7 C44_7 1_555 1_555
N95_7 C47_7 1_555 1_555
N96_7 C48_7 1_555 1_555
Cu6_8 S29_8 1_555 1_555
Cu7_8 S31_8 1_555 1_555
Cu9_8 Cl3_8 1_555 1_555
Cu10_8 Cl4_8 1_555 1_555
Cu13_8 Cl3_8 1_555 1_555
Cu14_8 Cl4_8 1_555 1_555
Cu17_8 Cl3_8 1_555 1_555
Cu18_8 Cl4_8 1_555 1_555
S15_3 C10_8 1_555 1_555
S14_3 C11_8 1_555 1_555
S15_2 C14_8 1_555 1_555
S15 C15_8 1_555 1_555
S29_8 Cu9_8 1_555 1_555
S30_8 Cu6_8 1_555 1_555
S31_8 Cu10_8 1_555 1_555
S32_8 Cu7_8 1_555 1_555
S35_8 Cu6_8 1_555 1_555
S36_8 Cu7_8 1_555 1_555
N10_8 Cu35_6 1_555 1_555
N11_8 Cu34_5 1_555 1_555
N14_8 Cu34_4 1_555 1_555
N15_8 Cu35_4 1_555 1_555
N18_8 Cu34 1_555 1_555
N19_8 Cu34_2 1_555 1_555
N21_8 Cu9_8 1_555 1_555
N22_8 Cu10_8 1_555 1_555
N25_8 Cu13_8 1_555 1_555
N26_8 Cu14_8 1_555 1_555
N29_8 Cu17_8 1_555 1_555
N30_8 Cu18_8 1_555 1_555
N32_8 H8_8 1_555 1_555
N33_8 H9_8 1_555 1_555
N36_8 H12_8 1_555 1_555
N37_8 H13_8 1_555 1_555
N40_8 H16_8 1_555 1_555
N41_8 H17_8 1_555 1_555
N43_8 H19_8 1_555 1_555
N44_8 H20_8 1_555 1_555
N47_8 H23_8 1_555 1_555
N48_8 H24_8 1_555 1_555
N51_8 H27_8 1_555 1_555
N52_8 H28_8 1_555 1_555
H30_8 N43_8 1_555 1_555
H31_8 N44_8 1_555 1_555
H34_8 N47_8 1_555 1_555
H35_8 N48_8 1_555 1_555
H38_8 N51_8 1_555 1_555
H39_8 N52_8 1_555 1_555
N56_8 Cu17_8 1_555 1_555
N57_8 Cu9_8 1_555 1_555
N58_8 Cu18_8 1_555 1_555
N59_8 Cu10_8 1_555 1_555
N62_8 Cu13_8 1_555 1_555
N63_8 Cu14_8 1_555 1_555
N67_8 Cu34 1_555 1_555
N68_8 Cu35_6 1_555 1_555
N69_8 Cu34_2 1_555 1_555
N70_8 Cu34_5 1_555 1_555
N73_8 Cu34_4 1_555 1_555
N74_8 Cu35_4 1_555 1_555
N78_8 H43_8 1_555 1_555
N79_8 H44_8 1_555 1_555
N80_8 H45_8 1_555 1_555
N81_8 H46_8 1_555 1_555
N84_8 H49_8 1_555 1_555
N85_8 H50_8 1_555 1_555
N89_8 H54_8 1_555 1_555
N90_8 H55_8 1_555 1_555
N91_8 H56_8 1_555 1_555
N92_8 H57_8 1_555 1_555
N95_8 H60_8 1_555 1_555
N96_8 H61_8 1_555 1_555
H65_8 N89_8 1_555 1_555
H66_8 N90_8 1_555 1_555
H67_8 N91_8 1_555 1_555
H68_8 N92_8 1_555 1_555
H71_8 N95_8 1_555 1_555
H72_8 N96_8 1_555 1_555
C6_8 S14_5 1_555 1_555
C7_8 S15_6 1_555 1_555
C10_8 N14_8 1_555 1_555
C11_8 N15_8 1_555 1_555
C14_8 N18_8 1_555 1_555
C15_8 N19_8 1_555 1_555
C17_8 N21_8 1_555 1_555
C18_8 N22_8 1_555 1_555
C21_8 N25_8 1_555 1_555
C22_8 N26_8 1_555 1_555
C25_8 N29_8 1_555 1_555
C26_8 N30_8 1_555 1_555
C30_8 S29_8 1_555 1_555
C31_8 S30_8 1_555 1_555
C32_8 S31_8 1_555 1_555
C33_8 S32_8 1_555 1_555
C36_8 S35_8 1_555 1_555
C37_8 S36_8 1_555 1_555
C41_8 N67_8 1_555 1_555
C42_8 N68_8 1_555 1_555
C43_8 N69_8 1_555 1_555
C44_8 N70_8 1_555 1_555
C47_8 N73_8 1_555 1_555
C48_8 N74_8 1_555 1_555
Cu13_8 S30_8 1_555 1_555
Cu14_8 S32_8 1_555 1_555
Cu17_8 S35_8 1_555 1_555
Cu18_8 S36_8 1_555 1_555
N10_8 N21_8 1_555 1_555
N10_8 C6_8 1_555 1_555
N11_8 N22_8 1_555 1_555
N11_8 C7_8 1_555 1_555
N14_8 N25_8 1_555 1_555
N15_8 N26_8 1_555 1_555
N18_8 N29_8 1_555 1_555
N19_8 N30_8 1_555 1_555
N32_8 C6_8 1_555 1_555
N32_8 C17_8 1_555 1_555
N33_8 C7_8 1_555 1_555
N33_8 C18_8 1_555 1_555
N36_8 C10_8 1_555 1_555
N36_8 C21_8 1_555 1_555
N37_8 C11_8 1_555 1_555
N37_8 C22_8 1_555 1_555
N40_8 C14_8 1_555 1_555
N40_8 C25_8 1_555 1_555
N41_8 C15_8 1_555 1_555
N41_8 C26_8 1_555 1_555
N43_8 C17_8 1_555 1_555
N44_8 C18_8 1_555 1_555
N47_8 C21_8 1_555 1_555
N48_8 C22_8 1_555 1_555
N51_8 C25_8 1_555 1_555
N52_8 C26_8 1_555 1_555
N56_8 N67_8 1_555 1_555
N56_8 C30_8 1_555 1_555
N57_8 N68_8 1_555 1_555
N57_8 C31_8 1_555 1_555
N58_8 N69_8 1_555 1_555
N58_8 C32_8 1_555 1_555
N59_8 N70_8 1_555 1_555
N59_8 C33_8 1_555 1_555
N62_8 N73_8 1_555 1_555
N62_8 C36_8 1_555 1_555
N63_8 N74_8 1_555 1_555
N63_8 C37_8 1_555 1_555
N78_8 C30_8 1_555 1_555
N78_8 C41_8 1_555 1_555
N79_8 C31_8 1_555 1_555
N79_8 C42_8 1_555 1_555
N80_8 C32_8 1_555 1_555
N80_8 C43_8 1_555 1_555
N81_8 C33_8 1_555 1_555
N81_8 C44_8 1_555 1_555
N84_8 C36_8 1_555 1_555
N84_8 C47_8 1_555 1_555
N85_8 C37_8 1_555 1_555
N85_8 C48_8 1_555 1_555
N89_8 C41_8 1_555 1_555
N90_8 C42_8 1_555 1_555
N91_8 C43_8 1_555 1_555
N92_8 C44_8 1_555 1_555
N95_8 C47_8 1_555 1_555
N96_8 C48_8 1_555 1_555
S37 O1 1_555 1_555
O2 S37 1_555 1_555
O3 S37_2 1_555 1_555
O4 S37_2 1_555 1_555
O3_2 S37_3 1_555 1_555
O4_2 S37_3 1_555 1_555
S37_4 O1_2 1_555 1_555
O2_2 S37_4 1_555 1_555
O3_3 S37_5 1_555 1_555
O4_3 S37_5 1_555 1_555
S37_6 O1_3 1_555 1_555
O2_3 S37_6 1_555 1_555
S37_7 O1_4 1_555 1_555
O2_4 S37_7 1_555 1_555
O3_4 S37_8 1_555 1_555
O4_4 S37_8 1_555 1_555
S37_9 O1_5 1_555 1_555
O2_5 S37_9 1_555 1_555
O3_5 S37_10 1_555 1_555
O4_5 S37_10 1_555 1_555
O3_6 S37_11 1_555 1_555
O4_6 S37_11 1_555 1_555
S37_12 O1_6 1_555 1_555
O2_6 S37_12 1_555 1_555
O3_7 S37_13 1_555 1_555
O4_7 S37_13 1_555 1_555
S37_14 O1_7 1_555 1_555
O2_7 S37_14 1_555 1_555
S37_15 O1_8 1_555 1_555
O2_8 S37_15 1_555 1_555
O3_8 S37_16 1_555 1_555
O4_8 S37_16 1_555 1_555
S37_17 O1_9 1_555 1_555
O2_9 S37_17 1_555 1_555
O3_9 S37_18 1_555 1_555
O4_9 S37_18 1_555 1_555
O3_10 S37_19 1_555 1_555
O4_10 S37_19 1_555 1_555
S37_20 O1_10 1_555 1_555
O2_10 S37_20 1_555 1_555
O3_11 S37_21 1_555 1_555
O4_11 S37_21 1_555 1_555
S37_22 O1_11 1_555 1_555
O2_11 S37_22 1_555 1_555
S37_23 O1_12 1_555 1_555
O2_12 S37_23 1_555 1_555
O3_12 S37_24 1_555 1_555
O4_12 S37_24 1_555 1_555
S37_25 O1_13 1_555 1_555
O2_13 S37_25 1_555 1_555
O3_13 S37_25 1_555 1_555
O4_13 S37_25 1_555 1_555
S37_26 O1_14 1_555 1_555
O2_14 S37_26 1_555 1_555
O3_14 S37_26 1_555 1_555
O4_14 S37_26 1_555 1_555
S37_27 O1_15 1_555 1_555
O2_15 S37_27 1_555 1_555
O3_15 S37_27 1_555 1_555
O4_15 S37_27 1_555 1_555
S37_28 O1_16 1_555 1_555
O2_16 S37_28 1_555 1_555
O3_16 S37_28 1_555 1_555
O4_16 S37_28 1_555 1_555
S37_29 O1_17 1_555 1_555
O2_17 S37_29 1_555 1_555
O3_17 S37_29 1_555 1_555
O4_17 S37_29 1_555 1_555
S37_30 O1_18 1_555 1_555
O2_18 S37_30 1_555 1_555
O3_18 S37_30 1_555 1_555
O4_18 S37_30 1_555 1_555
S37_31 O1_19 1_555 1_555
O2_19 S37_31 1_555 1_555
O3_19 S37_31 1_555 1_555
O4_19 S37_31 1_555 1_555
S37_32 O1_20 1_555 1_555
O2_20 S37_32 1_555 1_555
O3_20 S37_32 1_555 1_555
O4_20 S37_32 1_555 1_555
S37_33 O1_21 1_555 1_555
O2_21 S37_33 1_555 1_555
O3_21 S37_33 1_555 1_555
O4_21 S37_33 1_555 1_555
S37_34 O1_22 1_555 1_555
O2_22 S37_34 1_555 1_555
O3_22 S37_34 1_555 1_555
O4_22 S37_34 1_555 1_555
S37_35 O1_23 1_555 1_555
O2_23 S37_35 1_555 1_555
O3_23 S37_35 1_555 1_555
O4_23 S37_35 1_555 1_555
S37_36 O1_24 1_555 1_555
O2_24 S37_36 1_555 1_555
O3_24 S37_36 1_555 1_555
O4_24 S37_36 1_555 1_555
O6 S38 1_555 1_555
O7 S38_2 1_555 1_555
O8 S38_3 1_555 1_555
S38_4 O5 1_555 1_555
O6_2 S38_5 1_555 1_555
O7_2 S38_6 1_555 1_555
O8_2 S38_7 1_555 1_555
S38_8 O5_2 1_555 1_555
O6_3 S38_9 1_555 1_555
O8_3 S38_10 1_555 1_555
O7_3 S38_11 1_555 1_555
S38_12 O5_3 1_555 1_555
O7_4 S38_13 1_555 1_555
O8_4 S38_13 1_555 1_555
S38_14 O5_4 1_555 1_555
O6_4 S38_14 1_555 1_555
O7_5 S38_15 1_555 1_555
O8_5 S38_15 1_555 1_555
S38_16 O5_5 1_555 1_555
O6_5 S38_16 1_555 1_555
O7_6 S38_17 1_555 1_555
O8_6 S38_17 1_555 1_555
S38_18 O5_6 1_555 1_555
O6_6 S38_18 1_555 1_555
S38_19 O5_7 1_555 1_555
O6_7 S38_19 1_555 1_555
O7_7 S38_19 1_555 1_555
O8_7 S38_19 1_555 1_555
O8_8 S38_21 1_555 1_555
O7_8 S38_22 1_555 1_555
O6_8 S38_24 1_555 1_555
S38_27 O5_8 1_555 1_555
S39 O9 1_555 1_555
O10 S39 1_555 1_555
O11 S39 1_555 1_555
O12 S39 1_555 1_555
S39_2 O9_2 1_555 1_555
O10_2 S39_2 1_555 1_555
O11_2 S39_2 1_555 1_555
O12_2 S39_2 1_555 1_555
S39_3 O9_3 1_555 1_555
O10_3 S39_3 1_555 1_555
O11_3 S39_3 1_555 1_555
O12_3 S39_3 1_555 1_555
S39_4 O9_4 1_555 1_555
O10_4 S39_4 1_555 1_555
O11_4 S39_4 1_555 1_555
O12_4 S39_4 1_555 1_555
S39_5 O9_5 1_555 1_555
O10_5 S39_5 1_555 1_555
O11_5 S39_5 1_555 1_555
O12_5 S39_5 1_555 1_555
S39_6 O9_6 1_555 1_555
O10_6 S39_6 1_555 1_555
O11_6 S39_6 1_555 1_555
O12_6 S39_6 1_555 1_555
S39_7 O9_7 1_555 1_555
O10_7 S39_7 1_555 1_555
O11_7 S39_7 1_555 1_555
O12_7 S39_7 1_555 1_555
S39_8 O9_8 1_555 1_555
O10_8 S39_8 1_555 1_555
O11_8 S39_8 1_555 1_555
O12_8 S39_8 1_555 1_555
S39_9 O9_9 1_555 1_555
O10_9 S39_9 1_555 1_555
O11_9 S39_9 1_555 1_555
O12_9 S39_9 1_555 1_555
S39_10 O9_10 1_555 1_555
O10_10 S39_10 1_555 1_555
O11_10 S39_10 1_555 1_555
O12_10 S39_10 1_555 1_555
S39_11 O9_11 1_555 1_555
O10_11 S39_11 1_555 1_555
O11_11 S39_11 1_555 1_555
O12_11 S39_11 1_555 1_555
S39_12 O9_12 1_555 1_555
O10_12 S39_12 1_555 1_555
O11_12 S39_12 1_555 1_555
O12_12 S39_12 1_555 1_555
S39_13 O9_13 1_555 1_555
O10_13 S39_13 1_555 1_555
O11_13 S39_13 1_555 1_555
O12_13 S39_13 1_555 1_555
S39_14 O9_14 1_555 1_555
O10_14 S39_14 1_555 1_555
O11_14 S39_14 1_555 1_555
O12_14 S39_14 1_555 1_555
S39_15 O9_15 1_555 1_555
O10_15 S39_15 1_555 1_555
O11_15 S39_15 1_555 1_555
O12_15 S39_15 1_555 1_555
S39_16 O9_16 1_555 1_555
O10_16 S39_16 1_555 1_555
O11_16 S39_16 1_555 1_555
O12_16 S39_16 1_555 1_555
S39_17 O9_17 1_555 1_555
O10_17 S39_17 1_555 1_555
O11_17 S39_17 1_555 1_555
O12_17 S39_17 1_555 1_555
S39_18 O9_18 1_555 1_555
O10_18 S39_18 1_555 1_555
O11_18 S39_18 1_555 1_555
O12_18 S39_18 1_555 1_555
S39_19 O9_19 1_555 1_555
O10_19 S39_19 1_555 1_555
O11_19 S39_19 1_555 1_555
O12_19 S39_19 1_555 1_555
S39_20 O9_20 1_555 1_555
O10_20 S39_20 1_555 1_555
O11_20 S39_20 1_555 1_555
O12_20 S39_20 1_555 1_555
S39_21 O9_21 1_555 1_555
O10_21 S39_21 1_555 1_555
O11_21 S39_21 1_555 1_555
O12_21 S39_21 1_555 1_555
S39_22 O9_22 1_555 1_555
O10_22 S39_22 1_555 1_555
O11_22 S39_22 1_555 1_555
O12_22 S39_22 1_555 1_555
S39_23 O9_23 1_555 1_555
O10_23 S39_23 1_555 1_555
O11_23 S39_23 1_555 1_555
O12_23 S39_23 1_555 1_555
S39_24 O9_24 1_555 1_555
O10_24 S39_24 1_555 1_555
O11_24 S39_24 1_555 1_555
O12_24 S39_24 1_555 1_555
S39_25 O9_25 1_555 1_555
O10_25 S39_25 1_555 1_555
O11_25 S39_25 1_555 1_555
O12_25 S39_25 1_555 1_555
S39_26 O9_26 1_555 1_555
O10_26 S39_26 1_555 1_555
O11_26 S39_26 1_555 1_555
O12_26 S39_26 1_555 1_555
S39_27 O9_27 1_555 1_555
O10_27 S39_27 1_555 1_555
O11_27 S39_27 1_555 1_555
O12_27 S39_27 1_555 1_555
S39_28 O9_28 1_555 1_555
O10_28 S39_28 1_555 1_555
O11_28 S39_28 1_555 1_555
O12_28 S39_28 1_555 1_555
S39_29 O9_29 1_555 1_555
O10_29 S39_29 1_555 1_555
O11_29 S39_29 1_555 1_555
O12_29 S39_29 1_555 1_555
S39_30 O9_30 1_555 1_555
O10_30 S39_30 1_555 1_555
O11_30 S39_30 1_555 1_555
O12_30 S39_30 1_555 1_555
S39_31 O9_31 1_555 1_555
O10_31 S39_31 1_555 1_555
O11_31 S39_31 1_555 1_555
O12_31 S39_31 1_555 1_555
S39_32 O9_32 1_555 1_555
O10_32 S39_32 1_555 1_555
O11_32 S39_32 1_555 1_555
O12_32 S39_32 1_555 1_555

#END
