
###############################################################################
#
# This file contains modified crystal structure data generated from the
# MOF subset of the Cambridge Structural Database (CSD) v543 
# hosted by the Cambridge Crystallographic Data Centre (CCDC).
#
# This work is licensed under the Creative Commons
# Attribution-NonCommercial-ShareAlike 4.0 International License.
# To view a copy of this license, visit
# http://creativecommons.org/licenses/by-nc-sa/4.0/
# or send a letter to
# Creative Commons, PO Box 1866, Mountain View, CA 94042, USA.
#
# CIF created using the CSD Python API on 29 September 2022
# The structure has been converted into the P1 space group
# The structure has a 3D framework
# The original CSD entry BUPGUP is in the orthorhombic crystal system
# The framework has been calculated to contain at least 10.0% void space
# The void calculation uses a probe of radius 1.32A, grid spacing 0.4
# The framework is charged, counterions have been retained in the structure
#
###############################################################################

data_BUPGUP
_chemical_formula_moiety         '(C656 H670 Co32 N128 O207)n'
_symmetry_cell_setting           triclinic
_symmetry_space_group_name_H-M   'P 1'
_symmetry_Int_Tables_number      1
_space_group_name_Hall           'P 1'
loop_
_symmetry_equiv_pos_site_id
_symmetry_equiv_pos_as_xyz
1 x,y,z
_cell_length_a                   36.481(2)
_cell_length_b                   49.104(3)
_cell_length_c                   11.8446(7)
_cell_angle_alpha                90
_cell_angle_beta                 90
_cell_angle_gamma                90
_cell_volume                     21218
loop_
_atom_site_label
_atom_site_type_symbol
_atom_site_fract_x
_atom_site_fract_y
_atom_site_fract_z
C31 C 0.11205(13) 0.07427(9) 0.0326(5)
H22 H 0.0909 0.0692 0.0714
C35 C 0.17748(13) 0.07650(8) 0.0211(4)
H25 H 0.2005 0.0730 0.0517
N7 N 0.14576(10) 0.06916(7) 0.0805(3)
Co5 Co 0.144774(15) 0.046479(11) 0.23422(5)
C1 C 0.02343(12) 0.14858(9) 0.3535(4)
C2 C 0.02485(11) 0.16429(9) 0.2552(4)
H1 H 0.0256 0.1832 0.2597
C3 C 0.02511(11) 0.15142(8) 0.1513(4)
C4 C 0.02343(11) 0.12283(8) 0.1444(4)
H2 H 0.0233 0.1143 0.0744
C5 C 0.02202(11) 0.10751(8) 0.2425(4)
C6 C 0.02210(12) 0.12039(9) 0.3470(4)
H3 H 0.0212 0.1101 0.4128
C7 C 0.02293(11) 0.16274(8) 0.4662(4)
C8 C 0.01105(12) 0.20459(9) 0.5730(4)
H4 H 0.0092 0.1923 0.6368
C9 C 0.04495(11) 0.22135(8) 0.5857(4)
C10 C 0.02251(12) 0.16695(9) 0.0432(4)
C13 C 0.02153(12) 0.07671(9) 0.2287(4)
C14 C 0.02657(12) 0.03411(9) 0.2844(4)
H8 H 0.0163 0.0222 0.3417
H9 H 0.0132 0.0308 0.2149
C15 C 0.06563(10) 0.02620(7) 0.2662(4)
C16 C 0.17794(11) 0.19902(9) 0.3774(4)
H10 H 0.1959 0.2099 0.4102
C17 C 0.18757(11) 0.18066(8) 0.2942(4)
H11 H 0.2121 0.1794 0.2735
C18 C 0.16355(10) 0.16477(8) 0.2424(3)
C19 C 0.12815(12) 0.16696(9) 0.2752(4)
H12 H 0.1101 0.1568 0.2390
C20 C 0.11875(11) 0.18439(8) 0.3628(3)
H13 H 0.0947 0.1843 0.3887
C26 C 0.11374(13) 0.08996(8) 0.3932(4)
H18 H 0.0916 0.0822 0.3714
C27 C 0.11276(12) 0.11006(8) 0.4689(4)
H19 H 0.0903 0.1170 0.4923
C28 C 0.14477(12) 0.12052(8) 0.5124(4)
C29 C 0.17594(11) 0.11033(8) 0.4667(3)
H20 H 0.1984 0.1163 0.4939
C30 C 0.17524(11) 0.09111(9) 0.3804(4)
H21 H 0.1971 0.0859 0.3460
C32 C 0.10887(13) 0.08676(10) 0.9278(4)
H23 H 0.0859 0.0902 0.8972
C33 C 0.14035(14) 0.09397(9) 0.8694(4)
C34 C 0.17436(13) 0.08896(9) 0.9164(4)
H24 H 0.1954 0.0940 0.8773
C36 C 0.17390(11) 0.14626(8) 0.1520(3)
H26 H 0.1628 0.1286 0.1666
H27 H 0.2003 0.1439 0.1536
C37 C 0.16258(11) 0.15569(8) 0.0325(4)
H29 H 0.1360 0.1557 0.0276
C38 C 0.17679(11) 0.18401(8) 0.0011(3)
H30 H 0.1686 0.1967 0.0585
H31 H 0.2034 0.1836 0.0039
C39 C 0.14590(13) 0.14064(8) 0.6060(4)
H32 H 0.1651 0.1535 0.5871
H33 H 0.1230 0.1506 0.6026
C40 C 0.15153(12) 0.13320(9) 0.7278(4)
H34 H 0.1404 0.1470 0.7753
H35 H 0.1776 0.1328 0.7441
C41 C 0.13520(12) 0.10597(10) 0.7561(4)
H36 H 0.1447 0.0930 0.7017
H37 H 0.1090 0.1073 0.7432
Co1 Co 0.125640(15) 0.232000(11) 0.52661(5)
N1 N 0.00980(9) 0.18827(7) 0.4667(3)
H38 H 0.0007 0.1952 0.4061
N2 N 0.02142(9) 0.19423(7) 0.0454(3)
H39 H 0.0045 0.1984 0.0978
N3 N 0.02005(9) 0.06340(7) 0.3199(3)
H40 H 0.0162 0.0695 0.3869
N4 N 0.14277(9) 0.20132(7) 0.4116(3)
N6 N 0.14438(9) 0.08029(7) 0.3470(3)
O1 O 0.03346(8) 0.15038(6) 0.5469(2)
O2 O 0.07365(8) 0.21511(6) 0.5327(3)
O3 O 0.04346(7) 0.24001(6) 0.6572(2)
O7 O 0.02370(8) 0.06837(6) 0.1300(3)
O8 O 0.08890(7) 0.04401(5) 0.2478(3)
O9 O 0.07397(7) 0.00137(5) 0.2689(2)
O10 O 0.10560(8) 0.25769(6) 0.3899(2)
H41 H 0.0813 0.2524 0.3648
H42 H 0.1223 0.2581 0.3262
O11 O 0.10507(7) 0.26728(5) 0.6239(2)
H43 H 0.0807 0.2642 0.6539
H44 H 0.1216 0.2725 0.6842
Co7 Co 0.105226(15) 0.296479(11) 0.48422(5)
N8 N 0.14242(10) 0.21287(7) 0.6832(3)
O12 O 0.20096(7) 0.04555(6) 0.2419(3)
O13 O 0.17603(7) 0.25137(5) 0.5189(2)
O14 O 0.14440(8) 0.00769(6) 0.1399(2)
H45 H 0.1687 0.0024 0.1148
H46 H 0.1277 0.0081 0.0762
O15 O 0.14493(7) 0.01728(5) 0.3739(2)
H47 H 0.1693 0.0142 0.4039
H48 H 0.1284 0.0225 0.4342
C11 C 0.01404(11) 0.21236(9) 0.9476(4)
H6 H 0.0224 0.2036 0.8789
H7 H 0.0276 0.2292 0.9568
C21 C 0.16584(12) 0.19455(8) 0.8914(4)
C22 C 0.18970(12) 0.19876(8) 0.8067(4)
H14 H 0.2144 0.1949 0.8162
C23 C 0.17697(12) 0.20895(8) 0.7057(4)
H15 H 0.1941 0.2133 0.6503
C24 C 0.11955(12) 0.20632(8) 0.7602(4)
H16 H 0.0947 0.2081 0.7445
C25 C 0.12942(13) 0.19694(9) 0.8632(4)
H17 H 0.1115 0.1921 0.9152
H28 H 0.1717 0.1426 0.9778
O4 O 0.02433(8) 0.15435(6) 0.9536(3)
Co4 Co 0.124360(15) 0.982000(11) 0.27661(5)
C12 C 0.97293(12) 0.21878(8) 0.9372(4)
O5 O 0.95096(7) 0.20445(6) 0.9919(3)
O6 O 0.96544(8) 0.23723(6) 0.8737(2)
Co6 Co 0.894774(15) 0.203521(11) 0.98422(5)
C12_2 C 0.02707(12) 0.78122(8) 0.9372(4)
O5_2 O 0.04904(7) 0.79555(6) 0.9919(3)
O6_2 O 0.03456(8) 0.76277(6) 0.8737(2)
Co6_2 Co 0.105226(15) 0.796479(11) 0.98422(5)
Co4_2 Co 0.875640(15) 0.018000(11) 0.27661(5)
C31_2 C 0.88795(13) 0.92573(9) 0.0326(5)
H22_2 H 0.9091 0.9308 0.0714
C35_2 C 0.82252(13) 0.92350(8) 0.0211(4)
H25_2 H 0.7995 0.9270 0.0517
N7_2 N 0.85424(10) 0.93084(7) 0.0805(3)
Co5_2 Co 0.855226(15) 0.953521(11) 0.23422(5)
C1_2 C 0.97657(12) 0.85142(9) 0.3535(4)
C2_2 C 0.97515(11) 0.83571(9) 0.2552(4)
H1_2 H 0.9744 0.8168 0.2597
C3_2 C 0.97489(11) 0.84858(8) 0.1513(4)
C4_2 C 0.97657(11) 0.87717(8) 0.1444(4)
H2_2 H 0.9767 0.8857 0.0744
C5_2 C 0.97798(11) 0.89249(8) 0.2425(4)
C6_2 C 0.97790(12) 0.87961(9) 0.3470(4)
H3_2 H 0.9788 0.8899 0.4128
C7_2 C 0.97707(11) 0.83726(8) 0.4662(4)
C8_2 C 0.98895(12) 0.79541(9) 0.5730(4)
H4_2 H 0.9908 0.8077 0.6368
C9_2 C 0.95505(11) 0.77865(8) 0.5857(4)
C10_2 C 0.97749(12) 0.83305(9) 0.0432(4)
C13_2 C 0.97847(12) 0.92329(9) 0.2287(4)
C14_2 C 0.97343(12) 0.96589(9) 0.2844(4)
H8_2 H 0.9837 0.9778 0.3417
H9_2 H 0.9868 0.9692 0.2149
C15_2 C 0.93437(10) 0.97380(7) 0.2662(4)
C16_2 C 0.82206(11) 0.80098(9) 0.3774(4)
H10_2 H 0.8041 0.7901 0.4102
C17_2 C 0.81243(11) 0.81934(8) 0.2942(4)
H11_2 H 0.7879 0.8206 0.2735
C18_2 C 0.83645(10) 0.83523(8) 0.2424(3)
C19_2 C 0.87185(12) 0.83304(9) 0.2752(4)
H12_2 H 0.8899 0.8432 0.2390
C20_2 C 0.88125(11) 0.81561(8) 0.3628(3)
H13_2 H 0.9053 0.8157 0.3887
C26_2 C 0.88626(13) 0.91004(8) 0.3932(4)
H18_2 H 0.9084 0.9178 0.3714
C27_2 C 0.88724(12) 0.88994(8) 0.4689(4)
H19_2 H 0.9097 0.8830 0.4923
C28_2 C 0.85523(12) 0.87948(8) 0.5124(4)
C29_2 C 0.82406(11) 0.88967(8) 0.4667(3)
H20_2 H 0.8016 0.8837 0.4939
C30_2 C 0.82476(11) 0.90889(9) 0.3804(4)
H21_2 H 0.8029 0.9141 0.3460
C32_2 C 0.89113(13) 0.91324(10) 0.9278(4)
H23_2 H 0.9141 0.9098 0.8972
C33_2 C 0.85965(14) 0.90603(9) 0.8694(4)
C34_2 C 0.82564(13) 0.91104(9) 0.9164(4)
H24_2 H 0.8046 0.9060 0.8773
C36_2 C 0.82610(11) 0.85374(8) 0.1520(3)
H26_2 H 0.8372 0.8714 0.1666
H27_2 H 0.7997 0.8561 0.1536
C37_2 C 0.83742(11) 0.84431(8) 0.0325(4)
H29_2 H 0.8640 0.8443 0.0276
C38_2 C 0.82321(11) 0.81599(8) 0.0011(3)
H30_2 H 0.8314 0.8033 0.0585
H31_2 H 0.7966 0.8164 0.0039
C39_2 C 0.85410(13) 0.85936(8) 0.6060(4)
H32_2 H 0.8349 0.8465 0.5871
H33_2 H 0.8770 0.8494 0.6026
C40_2 C 0.84847(12) 0.86680(9) 0.7278(4)
H34_2 H 0.8596 0.8530 0.7753
H35_2 H 0.8224 0.8672 0.7441
C41_2 C 0.86480(12) 0.89403(10) 0.7561(4)
H36_2 H 0.8553 0.9070 0.7017
H37_2 H 0.8910 0.8927 0.7432
Co1_2 Co 0.874360(15) 0.768000(11) 0.52661(5)
N1_2 N 0.99020(9) 0.81173(7) 0.4667(3)
H38_2 H 0.9993 0.8048 0.4061
N2_2 N 0.97858(9) 0.80577(7) 0.0454(3)
H39_2 H 0.9955 0.8016 0.0978
N3_2 N 0.97995(9) 0.93660(7) 0.3199(3)
H40_2 H 0.9838 0.9305 0.3869
N4_2 N 0.85723(9) 0.79868(7) 0.4116(3)
N6_2 N 0.85562(9) 0.91971(7) 0.3470(3)
O1_2 O 0.96654(8) 0.84962(6) 0.5469(2)
O2_2 O 0.92635(8) 0.78489(6) 0.5327(3)
O3_2 O 0.95654(7) 0.75999(6) 0.6572(2)
O7_2 O 0.97630(8) 0.93163(6) 0.1300(3)
O8_2 O 0.91110(7) 0.95599(5) 0.2478(3)
O9_2 O 0.92603(7) 0.99863(5) 0.2689(2)
O10_2 O 0.89440(8) 0.74231(6) 0.3899(2)
H41_2 H 0.9187 0.7476 0.3648
H42_2 H 0.8777 0.7419 0.3262
O11_2 O 0.89493(7) 0.73272(5) 0.6239(2)
H43_2 H 0.9193 0.7358 0.6539
H44_2 H 0.8784 0.7275 0.6842
Co7_2 Co 0.894774(15) 0.703521(11) 0.48422(5)
N8_2 N 0.85758(10) 0.78713(7) 0.6832(3)
O12_2 O 0.79904(7) 0.95445(6) 0.2419(3)
O13_2 O 0.82397(7) 0.74863(5) 0.5189(2)
O14_2 O 0.85560(8) 0.99231(6) 0.1399(2)
H45_2 H 0.8313 0.9976 0.1148
H46_2 H 0.8723 0.9919 0.0762
O15_2 O 0.85507(7) 0.98272(5) 0.3739(2)
H47_2 H 0.8307 0.9858 0.4039
H48_2 H 0.8716 0.9775 0.4342
C11_2 C 0.98596(11) 0.78764(9) 0.9476(4)
H6_2 H 0.9776 0.7964 0.8789
H7_2 H 0.9724 0.7708 0.9568
C21_2 C 0.83416(12) 0.80545(8) 0.8914(4)
C22_2 C 0.81030(12) 0.80124(8) 0.8067(4)
H14_2 H 0.7856 0.8051 0.8162
C23_2 C 0.82303(12) 0.79105(8) 0.7057(4)
H15_2 H 0.8059 0.7867 0.6503
C24_2 C 0.88045(12) 0.79368(8) 0.7602(4)
H16_2 H 0.9053 0.7919 0.7445
C25_2 C 0.87058(13) 0.80306(9) 0.8632(4)
H17_2 H 0.8885 0.8079 0.9152
H28_2 H 0.8283 0.8574 0.9778
O4_2 O 0.97567(8) 0.84565(6) 0.9536(3)
C31_3 C 0.36205(13) 0.17573(9) 0.2826(5)
H22_3 H 0.3409 0.1808 0.3214
C32_3 C 0.35887(13) 0.16324(10) 0.1778(4)
H23_3 H 0.3359 0.1598 0.1472
C33_3 C 0.39035(14) 0.15603(9) 0.1194(4)
C34_3 C 0.42436(13) 0.16104(9) 0.1664(4)
H24_3 H 0.4454 0.1560 0.1273
C35_3 C 0.42748(13) 0.17350(8) 0.2711(4)
H25_3 H 0.4505 0.1770 0.3017
H34_3 H 0.3904 0.1030 0.0253
C41_3 C 0.38520(12) 0.14403(10) 0.0061(4)
N7_3 N 0.39576(10) 0.18084(7) 0.3305(3)
Co5_3 Co 0.394774(15) 0.203521(11) 0.48422(5)
C1_3 C 0.27343(12) 0.10142(9) 0.6035(4)
C2_3 C 0.27485(11) 0.08571(9) 0.5052(4)
H1_3 H 0.2756 0.0668 0.5097
C3_3 C 0.27511(11) 0.09858(8) 0.4013(4)
C4_3 C 0.27343(11) 0.12717(8) 0.3944(4)
H2_3 H 0.2733 0.1357 0.3244
C5_3 C 0.27202(11) 0.14249(8) 0.4925(4)
C6_3 C 0.27210(12) 0.12961(9) 0.5970(4)
H3_3 H 0.2712 0.1399 0.6628
C7_3 C 0.27293(11) 0.08726(8) 0.7162(4)
C8_3 C 0.26105(12) 0.04541(9) 0.8230(4)
H4_3 H 0.2592 0.0577 0.8868
H5 H 0.2399 0.0334 0.8249
C9_3 C 0.29495(11) 0.02865(8) 0.8357(4)
C10_3 C 0.27251(12) 0.08305(9) 0.2932(4)
C11_3 C 0.26404(11) 0.03764(9) 0.1976(4)
H6_3 H 0.2724 0.0464 0.1289
H7_3 H 0.2776 0.0208 0.2068
C12_3 C 0.22293(12) 0.03122(8) 0.1872(4)
C13_3 C 0.27153(12) 0.17329(9) 0.4787(4)
C14_3 C 0.27657(12) 0.21589(9) 0.5344(4)
H8_3 H 0.2663 0.2278 0.5917
H9_3 H 0.2632 0.2192 0.4649
C15_3 C 0.31563(10) 0.22380(7) 0.5162(4)
C16_3 C 0.42794(11) 0.05098(9) 0.6274(4)
H10_3 H 0.4459 0.0401 0.6602
C17_3 C 0.43757(11) 0.06934(8) 0.5442(4)
H11_3 H 0.4621 0.0706 0.5235
C18_3 C 0.41355(10) 0.08523(8) 0.4924(3)
C19_3 C 0.37815(12) 0.08304(9) 0.5252(4)
H12_3 H 0.3601 0.0932 0.4890
C20_3 C 0.36875(11) 0.06561(8) 0.6128(3)
H13_3 H 0.3447 0.0657 0.6387
C21_3 C 0.41584(12) 0.05545(8) 0.1414(4)
C22_3 C 0.43970(12) 0.05124(8) 0.0567(4)
H14_3 H 0.4644 0.0551 0.0662
C24_3 C 0.36955(12) 0.04368(8) 0.0102(4)
C25_3 C 0.37942(13) 0.05306(9) 0.1132(4)
H17_3 H 0.3615 0.0579 0.1652
C26_3 C 0.36374(13) 0.16004(8) 0.6432(4)
H18_3 H 0.3416 0.1678 0.6214
C27_3 C 0.36276(12) 0.13994(8) 0.7189(4)
H19_3 H 0.3403 0.1330 0.7423
C28_3 C 0.39477(12) 0.12948(8) 0.7624(4)
C29_3 C 0.42594(11) 0.13967(8) 0.7167(3)
H20_3 H 0.4484 0.1337 0.7439
C30_3 C 0.42524(11) 0.15889(9) 0.6304(4)
H21_3 H 0.4471 0.1641 0.5960
C36_3 C 0.42390(11) 0.10374(8) 0.4020(3)
H26_3 H 0.4128 0.1214 0.4166
H27_3 H 0.4503 0.1061 0.4036
C37_3 C 0.41258(11) 0.09431(8) 0.2825(4)
H28_3 H 0.4217 0.1074 0.2278
H29_3 H 0.3860 0.0943 0.2776
C38_3 C 0.42679(11) 0.06599(8) 0.2511(3)
H30_3 H 0.4186 0.0533 0.3085
H31_3 H 0.4534 0.0664 0.2539
C39_3 C 0.39590(13) 0.10936(8) 0.8560(4)
H32_3 H 0.4151 0.0965 0.8371
H33_3 H 0.3730 0.0994 0.8526
C40_3 C 0.40153(12) 0.11680(9) 0.9778(4)
H35_3 H 0.4276 0.1172 0.9941
H36_3 H 0.3947 0.1570 0.9517
H37_3 H 0.3590 0.1427 0.9932
Co1_3 Co 0.375640(15) 0.018000(11) 0.77661(5)
N1_3 N 0.25980(9) 0.06173(7) 0.7167(3)
H38_3 H 0.2507 0.0548 0.6561
N2_3 N 0.27142(9) 0.05577(7) 0.2954(3)
H39_3 H 0.2545 0.0516 0.3478
N3_3 N 0.27005(9) 0.18660(7) 0.5699(3)
H40_3 H 0.2662 0.1805 0.6369
N4_3 N 0.39277(9) 0.04868(7) 0.6616(3)
N6_3 N 0.39438(9) 0.16971(7) 0.5970(3)
O1_3 O 0.28346(8) 0.09962(6) 0.7969(2)
O2_3 O 0.32365(8) 0.03489(6) 0.7827(3)
O3_3 O 0.29346(7) 0.00999(6) 0.9072(2)
O4_3 O 0.27433(8) 0.09565(6) 0.2036(3)
O6_3 O 0.21544(8) 0.01277(6) 0.1237(2)
O7_3 O 0.27370(8) 0.18163(6) 0.3800(3)
O8_3 O 0.33890(7) 0.20599(5) 0.4978(3)
O9_3 O 0.32397(7) 0.24863(5) 0.5189(2)
Co4_3 Co 0.374360(15) 0.268000(11) 0.52661(5)
N8_3 N 0.39242(10) 0.03713(7) 0.9332(3)
O12_3 O 0.45096(7) 0.20445(6) 0.4919(3)
O14_3 O 0.39440(8) 0.24231(6) 0.3899(2)
H45_3 H 0.4187 0.2476 0.3648
H46_3 H 0.3777 0.2419 0.3262
O15_3 O 0.39493(7) 0.23272(5) 0.6239(2)
H47_3 H 0.4193 0.2358 0.6539
H48_3 H 0.3784 0.2275 0.6842
C23_3 C 0.42697(12) 0.04105(8) 0.9557(4)
H15_3 H 0.4441 0.0367 0.9003
H16_3 H 0.3447 0.0419 0.9945
O10_3 O 0.35560(8) 0.99231(6) 0.6399(2)
H41_3 H 0.3313 0.9976 0.6148
H42_3 H 0.3723 0.9919 0.5762
O11_3 O 0.35507(7) 0.98272(5) 0.8739(2)
H43_3 H 0.3307 0.9858 0.9039
H44_3 H 0.3716 0.9775 0.9342
Co7_3 Co 0.355226(15) 0.953521(11) 0.73422(5)
O13_3 O 0.42603(7) 0.99863(5) 0.7689(2)
C31_4 C 0.13795(13) 0.32427(9) 0.2826(5)
H22_4 H 0.1591 0.3192 0.3214
C32_4 C 0.14113(13) 0.33676(10) 0.1778(4)
H23_4 H 0.1641 0.3402 0.1472
C33_4 C 0.10965(14) 0.34397(9) 0.1194(4)
C34_4 C 0.07564(13) 0.33896(9) 0.1664(4)
H24_4 H 0.0546 0.3440 0.1273
C35_4 C 0.07252(13) 0.32650(8) 0.2711(4)
H25_4 H 0.0495 0.3230 0.3017
H34_4 H 0.1096 0.3970 0.0253
C41_4 C 0.11480(12) 0.35597(10) 0.0061(4)
N7_4 N 0.10424(10) 0.31916(7) 0.3305(3)
C1_4 C 0.22657(12) 0.39858(9) 0.6035(4)
C2_4 C 0.22515(11) 0.41429(9) 0.5052(4)
H1_4 H 0.2244 0.4332 0.5097
C3_4 C 0.22489(11) 0.40142(8) 0.4013(4)
C4_4 C 0.22657(11) 0.37283(8) 0.3944(4)
H2_4 H 0.2267 0.3643 0.3244
C5_4 C 0.22798(11) 0.35751(8) 0.4925(4)
C6_4 C 0.22790(12) 0.37039(9) 0.5970(4)
H3_4 H 0.2288 0.3601 0.6628
C7_4 C 0.22707(11) 0.41274(8) 0.7162(4)
C8_4 C 0.23895(12) 0.45459(9) 0.8230(4)
H4_4 H 0.2408 0.4423 0.8868
H5_2 H 0.2601 0.4666 0.8249
C9_4 C 0.20505(11) 0.47135(8) 0.8357(4)
C10_4 C 0.22749(12) 0.41695(9) 0.2932(4)
C11_4 C 0.23596(11) 0.46236(9) 0.1976(4)
H6_4 H 0.2276 0.4536 0.1289
H7_4 H 0.2224 0.4792 0.2068
C12_4 C 0.27707(12) 0.46878(8) 0.1872(4)
C13_4 C 0.22847(12) 0.32671(9) 0.4787(4)
C14_4 C 0.22343(12) 0.28411(9) 0.5344(4)
H8_4 H 0.2337 0.2722 0.5917
H9_4 H 0.2368 0.2808 0.4649
C15_4 C 0.18437(10) 0.27620(7) 0.5162(4)
C16_4 C 0.07206(11) 0.44902(9) 0.6274(4)
H10_4 H 0.0541 0.4599 0.6602
C17_4 C 0.06243(11) 0.43066(8) 0.5442(4)
H11_4 H 0.0379 0.4294 0.5235
C18_4 C 0.08645(10) 0.41477(8) 0.4924(3)
C19_4 C 0.12185(12) 0.41696(9) 0.5252(4)
H12_4 H 0.1399 0.4068 0.4890
C20_4 C 0.13125(11) 0.43439(8) 0.6128(3)
H13_4 H 0.1553 0.4343 0.6387
C21_4 C 0.08416(12) 0.44455(8) 0.1414(4)
C22_4 C 0.06030(12) 0.44876(8) 0.0567(4)
H14_4 H 0.0356 0.4449 0.0662
C24_4 C 0.13045(12) 0.45632(8) 0.0102(4)
C25_4 C 0.12058(13) 0.44694(9) 0.1132(4)
H17_4 H 0.1385 0.4421 0.1652
C26_4 C 0.13626(13) 0.33996(8) 0.6432(4)
H18_4 H 0.1584 0.3322 0.6214
C27_4 C 0.13724(12) 0.36006(8) 0.7189(4)
H19_4 H 0.1597 0.3670 0.7423
C28_4 C 0.10523(12) 0.37052(8) 0.7624(4)
C29_4 C 0.07406(11) 0.36033(8) 0.7167(3)
H20_4 H 0.0516 0.3663 0.7439
C30_4 C 0.07476(11) 0.34111(9) 0.6304(4)
H21_4 H 0.0529 0.3359 0.5960
C36_4 C 0.07610(11) 0.39626(8) 0.4020(3)
H26_4 H 0.0872 0.3786 0.4166
H27_4 H 0.0497 0.3939 0.4036
C37_4 C 0.08742(11) 0.40569(8) 0.2825(4)
H28_4 H 0.0783 0.3926 0.2278
H29_4 H 0.1140 0.4057 0.2776
C38_4 C 0.07321(11) 0.43401(8) 0.2511(3)
H30_4 H 0.0814 0.4467 0.3085
H31_4 H 0.0466 0.4336 0.2539
C39_4 C 0.10410(13) 0.39064(8) 0.8560(4)
H32_4 H 0.0849 0.4035 0.8371
H33_4 H 0.1270 0.4006 0.8526
C40_4 C 0.09847(12) 0.38320(9) 0.9778(4)
H35_4 H 0.0724 0.3828 0.9941
H36_4 H 0.1053 0.3430 0.9517
H37_4 H 0.1410 0.3573 0.9932
Co1_4 Co 0.124360(15) 0.482000(11) 0.77661(5)
N1_4 N 0.24020(9) 0.43827(7) 0.7167(3)
H38_4 H 0.2493 0.4452 0.6561
N2_4 N 0.22858(9) 0.44423(7) 0.2954(3)
H39_4 H 0.2455 0.4484 0.3478
N3_4 N 0.22995(9) 0.31340(7) 0.5699(3)
H40_4 H 0.2338 0.3195 0.6369
N4_4 N 0.10723(9) 0.45132(7) 0.6616(3)
N6_4 N 0.10562(9) 0.33029(7) 0.5970(3)
O1_4 O 0.21654(8) 0.40038(6) 0.7969(2)
O2_4 O 0.17635(8) 0.46511(6) 0.7827(3)
O3_4 O 0.20654(7) 0.49001(6) 0.9072(2)
O4_4 O 0.22567(8) 0.40435(6) 0.2036(3)
O5_3 O 0.29904(7) 0.45445(6) 0.2419(3)
O6_4 O 0.28456(8) 0.48723(6) 0.1237(2)
O7_4 O 0.22630(8) 0.31837(6) 0.3800(3)
O8_4 O 0.16110(7) 0.29401(5) 0.4978(3)
O10_4 O 0.14440(8) 0.50769(6) 0.6399(2)
H41_4 H 0.1687 0.5024 0.6148
H42_4 H 0.1277 0.5081 0.5762
O11_4 O 0.14493(7) 0.51728(5) 0.8739(2)
H43_4 H 0.1693 0.5142 0.9039
H44_4 H 0.1284 0.5225 0.9342
Co6_3 Co 0.355226(15) 0.453521(11) 0.23422(5)
Co7_4 Co 0.144774(15) 0.546479(11) 0.73422(5)
N8_4 N 0.10758(10) 0.46287(7) 0.9332(3)
O12_4 O 0.04904(7) 0.29555(6) 0.4919(3)
O13_4 O 0.07397(7) 0.50137(5) 0.7689(2)
C23_4 C 0.07303(12) 0.45895(8) 0.9557(4)
H15_4 H 0.0559 0.4633 0.9003
H16_4 H 0.1553 0.4581 0.9945
C8_5 C 0.01105(12) 0.70459(9) 0.0730(4)
H4_5 H 0.0092 0.6923 0.1368
C9_5 C 0.04495(11) 0.72135(8) 0.0857(4)
C28_5 C 0.14477(12) 0.62052(8) 0.0124(4)
C31_5 C 0.11205(13) 0.57427(9) 0.5326(5)
H22_5 H 0.0909 0.5692 0.5714
C32_5 C 0.10887(13) 0.58676(10) 0.4278(4)
H23_5 H 0.0859 0.5902 0.3972
C33_5 C 0.14035(14) 0.59397(9) 0.3694(4)
C34_5 C 0.17436(13) 0.58896(9) 0.4164(4)
H24_5 H 0.1954 0.5940 0.3773
C35_5 C 0.17748(13) 0.57650(8) 0.5211(4)
H25_5 H 0.2005 0.5730 0.5517
C39_5 C 0.14590(13) 0.64064(8) 0.1060(4)
H32_5 H 0.1651 0.6535 0.0871
H33_5 H 0.1230 0.6506 0.1026
C40_5 C 0.15153(12) 0.63320(9) 0.2278(4)
H34_5 H 0.1404 0.6470 0.2753
H35_5 H 0.1776 0.6328 0.2441
C41_5 C 0.13520(12) 0.60597(10) 0.2561(4)
H36_5 H 0.1447 0.5930 0.2017
H37_5 H 0.1090 0.6073 0.2432
Co1_5 Co 0.125640(15) 0.732000(11) 0.02661(5)
N7_5 N 0.14576(10) 0.56916(7) 0.5805(3)
O1_5 O 0.03346(8) 0.65038(6) 0.0469(2)
O2_5 O 0.07365(8) 0.71511(6) 0.0327(3)
O3_5 O 0.04346(7) 0.74001(6) 0.1572(2)
O11_5 O 0.10507(7) 0.76728(5) 0.1239(2)
H43_5 H 0.0807 0.7642 0.1539
H44_5 H 0.1216 0.7725 0.1842
N8_5 N 0.14242(10) 0.71287(7) 0.1832(3)
O13_5 O 0.17603(7) 0.75137(5) 0.0189(2)
C1_5 C 0.02343(12) 0.64858(9) 0.8535(4)
C2_5 C 0.02485(11) 0.66429(9) 0.7552(4)
H1_5 H 0.0256 0.6832 0.7597
C3_5 C 0.02511(11) 0.65142(8) 0.6513(4)
C4_5 C 0.02343(11) 0.62283(8) 0.6444(4)
H2_5 H 0.0233 0.6143 0.5744
C5_5 C 0.02202(11) 0.60751(8) 0.7425(4)
C6_5 C 0.02210(12) 0.62039(9) 0.8470(4)
H3_5 H 0.0212 0.6101 0.9128
C7_5 C 0.02293(11) 0.66274(8) 0.9662(4)
C10_5 C 0.02251(12) 0.66695(9) 0.5432(4)
C11_5 C 0.01404(11) 0.71236(9) 0.4476(4)
H6_5 H 0.0224 0.7036 0.3789
H7_5 H 0.0276 0.7292 0.4568
C13_5 C 0.02153(12) 0.57671(9) 0.7287(4)
C14_5 C 0.02657(12) 0.53411(9) 0.7844(4)
H8_5 H 0.0163 0.5222 0.8417
H9_5 H 0.0132 0.5308 0.7149
C15_5 C 0.06563(10) 0.52620(7) 0.7662(4)
C16_5 C 0.17794(11) 0.69902(9) 0.8774(4)
H10_5 H 0.1959 0.7099 0.9102
C17_5 C 0.18757(11) 0.68066(8) 0.7942(4)
H11_5 H 0.2121 0.6794 0.7735
C18_5 C 0.16355(10) 0.66477(8) 0.7424(3)
C19_5 C 0.12815(12) 0.66696(9) 0.7752(4)
H12_5 H 0.1101 0.6568 0.7390
C20_5 C 0.11875(11) 0.68439(8) 0.8628(3)
H13_5 H 0.0947 0.6843 0.8887
C21_5 C 0.16584(12) 0.69455(8) 0.3914(4)
C22_5 C 0.18970(12) 0.69876(8) 0.3067(4)
H14_5 H 0.2144 0.6949 0.3162
C23_5 C 0.17697(12) 0.70895(8) 0.2057(4)
H15_5 H 0.1941 0.7133 0.1503
C24_5 C 0.11955(12) 0.70632(8) 0.2602(4)
H16_5 H 0.0947 0.7081 0.2445
C25_5 C 0.12942(13) 0.69694(9) 0.3632(4)
H17_5 H 0.1115 0.6921 0.4152
C26_5 C 0.11374(13) 0.58996(8) 0.8932(4)
H18_5 H 0.0916 0.5822 0.8714
C27_5 C 0.11276(12) 0.61006(8) 0.9689(4)
H19_5 H 0.0903 0.6170 0.9923
C29_5 C 0.17594(11) 0.61033(8) 0.9667(3)
H20_5 H 0.1984 0.6163 0.9939
C30_5 C 0.17524(11) 0.59111(9) 0.8804(4)
H21_5 H 0.1971 0.5859 0.8460
C36_5 C 0.17390(11) 0.64626(8) 0.6520(3)
H26_5 H 0.1628 0.6286 0.6666
H27_5 H 0.2003 0.6439 0.6536
C37_5 C 0.16258(11) 0.65569(8) 0.5325(4)
H28_5 H 0.1717 0.6426 0.4778
H29_5 H 0.1360 0.6557 0.5276
C38_5 C 0.17679(11) 0.68401(8) 0.5011(3)
H30_5 H 0.1686 0.6967 0.5585
H31_5 H 0.2034 0.6836 0.5039
N1_5 N 0.00980(9) 0.68827(7) 0.9667(3)
H38_5 H 0.0007 0.6952 0.9061
N2_5 N 0.02142(9) 0.69423(7) 0.5454(3)
H39_5 H 0.0045 0.6984 0.5978
N3_5 N 0.02005(9) 0.56340(7) 0.8199(3)
H40_5 H 0.0162 0.5695 0.8869
N4_5 N 0.14277(9) 0.70132(7) 0.9116(3)
N6_5 N 0.14438(9) 0.58029(7) 0.8470(3)
O4_5 O 0.02433(8) 0.65435(6) 0.4536(3)
O7_5 O 0.02370(8) 0.56837(6) 0.6300(3)
O8_5 O 0.08890(7) 0.54401(5) 0.7478(3)
O10_5 O 0.10560(8) 0.75769(6) 0.8899(2)
H41_5 H 0.0813 0.7524 0.8648
H42_5 H 0.1223 0.7581 0.8262
O12_5 O 0.20096(7) 0.54555(6) 0.7419(3)
C12_5 C 0.97293(12) 0.71878(8) 0.4372(4)
O5_4 O 0.95096(7) 0.70445(6) 0.4919(3)
O6_5 O 0.96544(8) 0.73723(6) 0.3737(2)
C12_6 C 0.02707(12) 0.28122(8) 0.4372(4)
O6_6 O 0.03456(8) 0.26277(6) 0.3737(2)
C8_6 C 0.98895(12) 0.29541(9) 0.0730(4)
H4_6 H 0.9908 0.3077 0.1368
C9_6 C 0.95505(11) 0.27865(8) 0.0857(4)
C28_6 C 0.85523(12) 0.37948(8) 0.0124(4)
C31_6 C 0.88795(13) 0.42573(9) 0.5326(5)
H22_6 H 0.9091 0.4308 0.5714
C32_6 C 0.89113(13) 0.41324(10) 0.4278(4)
H23_6 H 0.9141 0.4098 0.3972
C33_6 C 0.85965(14) 0.40603(9) 0.3694(4)
C34_6 C 0.82564(13) 0.41104(9) 0.4164(4)
H24_6 H 0.8046 0.4060 0.3773
C35_6 C 0.82252(13) 0.42350(8) 0.5211(4)
H25_6 H 0.7995 0.4270 0.5517
C39_6 C 0.85410(13) 0.35936(8) 0.1060(4)
H32_6 H 0.8349 0.3465 0.0871
H33_6 H 0.8770 0.3494 0.1026
C40_6 C 0.84847(12) 0.36680(9) 0.2278(4)
H34_6 H 0.8596 0.3530 0.2753
H35_6 H 0.8224 0.3672 0.2441
C41_6 C 0.86480(12) 0.39403(10) 0.2561(4)
H36_6 H 0.8553 0.4070 0.2017
H37_6 H 0.8910 0.3927 0.2432
Co1_6 Co 0.874360(15) 0.268000(11) 0.02661(5)
N7_6 N 0.85424(10) 0.43084(7) 0.5805(3)
O1_6 O 0.96654(8) 0.34962(6) 0.0469(2)
O2_6 O 0.92635(8) 0.28489(6) 0.0327(3)
O3_6 O 0.95654(7) 0.25999(6) 0.1572(2)
O11_6 O 0.89493(7) 0.23272(5) 0.1239(2)
H43_6 H 0.9193 0.2358 0.1539
H44_6 H 0.8784 0.2275 0.1842
Co5_4 Co 0.855226(15) 0.453521(11) 0.73422(5)
N8_6 N 0.85758(10) 0.28713(7) 0.1832(3)
O13_6 O 0.82397(7) 0.24863(5) 0.0189(2)
C1_6 C 0.97657(12) 0.35142(9) 0.8535(4)
C2_6 C 0.97515(11) 0.33571(9) 0.7552(4)
H1_6 H 0.9744 0.3168 0.7597
C3_6 C 0.97489(11) 0.34858(8) 0.6513(4)
C4_6 C 0.97657(11) 0.37717(8) 0.6444(4)
H2_6 H 0.9767 0.3857 0.5744
C5_6 C 0.97798(11) 0.39249(8) 0.7425(4)
C6_6 C 0.97790(12) 0.37961(9) 0.8470(4)
H3_6 H 0.9788 0.3899 0.9128
C7_6 C 0.97707(11) 0.33726(8) 0.9662(4)
C10_6 C 0.97749(12) 0.33305(9) 0.5432(4)
C11_6 C 0.98596(11) 0.28764(9) 0.4476(4)
H6_6 H 0.9776 0.2964 0.3789
H7_6 H 0.9724 0.2708 0.4568
C13_6 C 0.97847(12) 0.42329(9) 0.7287(4)
C14_6 C 0.97343(12) 0.46589(9) 0.7844(4)
H8_6 H 0.9837 0.4778 0.8417
H9_6 H 0.9868 0.4692 0.7149
C15_6 C 0.93437(10) 0.47380(7) 0.7662(4)
C16_6 C 0.82206(11) 0.30098(9) 0.8774(4)
H10_6 H 0.8041 0.2901 0.9102
C17_6 C 0.81243(11) 0.31934(8) 0.7942(4)
H11_6 H 0.7879 0.3206 0.7735
C18_6 C 0.83645(10) 0.33523(8) 0.7424(3)
C19_6 C 0.87185(12) 0.33304(9) 0.7752(4)
H12_6 H 0.8899 0.3432 0.7390
C20_6 C 0.88125(11) 0.31561(8) 0.8628(3)
H13_6 H 0.9053 0.3157 0.8887
C21_6 C 0.83416(12) 0.30545(8) 0.3914(4)
C22_6 C 0.81030(12) 0.30124(8) 0.3067(4)
H14_6 H 0.7856 0.3051 0.3162
C23_6 C 0.82303(12) 0.29105(8) 0.2057(4)
H15_6 H 0.8059 0.2867 0.1503
C24_6 C 0.88045(12) 0.29368(8) 0.2602(4)
H16_6 H 0.9053 0.2919 0.2445
C25_6 C 0.87058(13) 0.30306(9) 0.3632(4)
H17_6 H 0.8885 0.3079 0.4152
C26_6 C 0.88626(13) 0.41004(8) 0.8932(4)
H18_6 H 0.9084 0.4178 0.8714
C27_6 C 0.88724(12) 0.38994(8) 0.9689(4)
H19_6 H 0.9097 0.3830 0.9923
C29_6 C 0.82406(11) 0.38967(8) 0.9667(3)
H20_6 H 0.8016 0.3837 0.9939
C30_6 C 0.82476(11) 0.40889(9) 0.8804(4)
H21_6 H 0.8029 0.4141 0.8460
C36_6 C 0.82610(11) 0.35374(8) 0.6520(3)
H26_6 H 0.8372 0.3714 0.6666
H27_6 H 0.7997 0.3561 0.6536
C37_6 C 0.83742(11) 0.34431(8) 0.5325(4)
H28_6 H 0.8283 0.3574 0.4778
H29_6 H 0.8640 0.3443 0.5276
C38_6 C 0.82321(11) 0.31599(8) 0.5011(3)
H30_6 H 0.8314 0.3033 0.5585
H31_6 H 0.7966 0.3164 0.5039
N1_6 N 0.99020(9) 0.31173(7) 0.9667(3)
H38_6 H 0.9993 0.3048 0.9061
N2_6 N 0.97858(9) 0.30577(7) 0.5454(3)
H39_6 H 0.9955 0.3016 0.5978
N3_6 N 0.97995(9) 0.43660(7) 0.8199(3)
H40_6 H 0.9838 0.4305 0.8869
N4_6 N 0.85723(9) 0.29868(7) 0.9116(3)
N6_6 N 0.85562(9) 0.41971(7) 0.8470(3)
O4_6 O 0.97567(8) 0.34565(6) 0.4536(3)
O7_6 O 0.97630(8) 0.43163(6) 0.6300(3)
O8_6 O 0.91110(7) 0.45599(5) 0.7478(3)
O9_4 O 0.92603(7) 0.49863(5) 0.7689(2)
O10_6 O 0.89440(8) 0.24231(6) 0.8899(2)
H41_6 H 0.9187 0.2476 0.8648
H42_6 H 0.8777 0.2419 0.8262
Co4_4 Co 0.875640(15) 0.518000(11) 0.77661(5)
O12_6 O 0.79904(7) 0.45445(6) 0.7419(3)
O14_4 O 0.85560(8) 0.49231(6) 0.6399(2)
H45_4 H 0.8313 0.4976 0.6148
H46_4 H 0.8723 0.4919 0.5762
O15_4 O 0.85507(7) 0.48272(5) 0.8739(2)
H47_4 H 0.8307 0.4858 0.9039
H48_4 H 0.8716 0.4775 0.9342
C1_7 C 0.27343(12) 0.60142(9) 0.1035(4)
C2_7 C 0.27485(11) 0.58571(9) 0.0052(4)
H1_7 H 0.2756 0.5668 0.0097
C6_7 C 0.27210(12) 0.62961(9) 0.0970(4)
H3_7 H 0.2712 0.6399 0.1628
C7_7 C 0.27293(11) 0.58726(8) 0.2162(4)
C8_7 C 0.26105(12) 0.54541(9) 0.3230(4)
H4_7 H 0.2592 0.5577 0.3868
H5_3 H 0.2399 0.5334 0.3249
C9_7 C 0.29495(11) 0.52865(8) 0.3357(4)
C14_7 C 0.27657(12) 0.71589(9) 0.0344(4)
H8_7 H 0.2663 0.7278 0.0917
C15_7 C 0.31563(10) 0.72380(7) 0.0162(4)
C16_7 C 0.42794(11) 0.55098(9) 0.1274(4)
H10_7 H 0.4459 0.5401 0.1602
C17_7 C 0.43757(11) 0.56934(8) 0.0442(4)
H11_7 H 0.4621 0.5706 0.0235
C19_7 C 0.37815(12) 0.58304(9) 0.0252(4)
C20_7 C 0.36875(11) 0.56561(8) 0.1128(3)
H13_7 H 0.3447 0.5657 0.1387
C26_7 C 0.36374(13) 0.66004(8) 0.1432(4)
H18_7 H 0.3416 0.6678 0.1214
C27_7 C 0.36276(12) 0.63994(8) 0.2189(4)
H19_7 H 0.3403 0.6330 0.2423
C28_7 C 0.39477(12) 0.62948(8) 0.2624(4)
C29_7 C 0.42594(11) 0.63967(8) 0.2167(3)
H20_7 H 0.4484 0.6337 0.2439
C30_7 C 0.42524(11) 0.65889(9) 0.1304(4)
H21_7 H 0.4471 0.6641 0.0960
C31_7 C 0.36205(13) 0.67573(9) 0.7826(5)
H22_7 H 0.3409 0.6808 0.8214
C32_7 C 0.35887(13) 0.66324(10) 0.6778(4)
H23_7 H 0.3359 0.6598 0.6472
C33_7 C 0.39035(14) 0.65603(9) 0.6194(4)
C34_7 C 0.42436(13) 0.66104(9) 0.6664(4)
H24_7 H 0.4454 0.6560 0.6273
C35_7 C 0.42748(13) 0.67350(8) 0.7711(4)
H25_7 H 0.4505 0.6770 0.8017
C39_7 C 0.39590(13) 0.60936(8) 0.3560(4)
H32_7 H 0.4151 0.5965 0.3371
H33_7 H 0.3730 0.5994 0.3526
C40_7 C 0.40153(12) 0.61680(9) 0.4778(4)
H34_7 H 0.3904 0.6030 0.5253
H35_7 H 0.4276 0.6172 0.4941
C41_7 C 0.38520(12) 0.64403(10) 0.5061(4)
H36_7 H 0.3947 0.6570 0.4517
H37_7 H 0.3590 0.6427 0.4932
Co1_7 Co 0.375640(15) 0.518000(11) 0.27661(5)
N1_7 N 0.25980(9) 0.56173(7) 0.2167(3)
H38_7 H 0.2507 0.5548 0.1561
N3_7 N 0.27005(9) 0.68660(7) 0.0699(3)
H40_7 H 0.2662 0.6805 0.1369
N4_7 N 0.39277(9) 0.54868(7) 0.1616(3)
N6_7 N 0.39438(9) 0.66971(7) 0.0970(3)
N7_7 N 0.39576(10) 0.68084(7) 0.8305(3)
O1_7 O 0.28346(8) 0.59962(6) 0.2969(2)
O2_7 O 0.32365(8) 0.53489(6) 0.2827(3)
O3_7 O 0.29346(7) 0.50999(6) 0.4072(2)
O9_5 O 0.32397(7) 0.74863(5) 0.0189(2)
O10_7 O 0.35560(8) 0.49231(6) 0.1399(2)
H41_7 H 0.3313 0.4976 0.1148
H42_7 H 0.3723 0.4919 0.0762
O11_7 O 0.35507(7) 0.48272(5) 0.3739(2)
H43_7 H 0.3307 0.4858 0.4039
H44_7 H 0.3716 0.4775 0.4342
Co4_5 Co 0.374360(15) 0.768000(11) 0.02661(5)
Co5_5 Co 0.394774(15) 0.703521(11) 0.98422(5)
N8_7 N 0.39242(10) 0.53713(7) 0.4332(3)
O13_7 O 0.42603(7) 0.49863(5) 0.2689(2)
O15_5 O 0.39493(7) 0.73272(5) 0.1239(2)
H47_5 H 0.4193 0.7358 0.1539
H48_5 H 0.3784 0.7275 0.1842
C3_7 C 0.27511(11) 0.59858(8) 0.9013(4)
C4_7 C 0.27343(11) 0.62717(8) 0.8944(4)
H2_7 H 0.2733 0.6357 0.8244
C5_7 C 0.27202(11) 0.64249(8) 0.9925(4)
C10_7 C 0.27251(12) 0.58305(9) 0.7932(4)
C11_7 C 0.26404(11) 0.53764(9) 0.6976(4)
H6_7 H 0.2724 0.5464 0.6289
H7_7 H 0.2776 0.5208 0.7068
C12_7 C 0.22293(12) 0.53122(8) 0.6872(4)
C13_7 C 0.27153(12) 0.67329(9) 0.9787(4)
H9_7 H 0.2632 0.7192 0.9649
C18_7 C 0.41355(10) 0.58523(8) 0.9924(3)
H12_7 H 0.3601 0.5932 0.9890
C21_7 C 0.41584(12) 0.55545(8) 0.6414(4)
C22_7 C 0.43970(12) 0.55124(8) 0.5567(4)
H14_7 H 0.4644 0.5551 0.5662
C23_7 C 0.42697(12) 0.54105(8) 0.4557(4)
H15_7 H 0.4441 0.5367 0.4003
C24_7 C 0.36955(12) 0.54368(8) 0.5102(4)
H16_7 H 0.3447 0.5419 0.4945
C25_7 C 0.37942(13) 0.55306(9) 0.6132(4)
H17_7 H 0.3615 0.5579 0.6652
C36_7 C 0.42390(11) 0.60374(8) 0.9020(3)
H26_7 H 0.4128 0.6214 0.9166
H27_7 H 0.4503 0.6061 0.9036
C37_7 C 0.41258(11) 0.59431(8) 0.7825(4)
H28_7 H 0.4217 0.6074 0.7278
H29_7 H 0.3860 0.5943 0.7776
C38_7 C 0.42679(11) 0.56599(8) 0.7511(3)
H30_7 H 0.4186 0.5533 0.8085
H31_7 H 0.4534 0.5664 0.7539
N2_7 N 0.27142(9) 0.55577(7) 0.7954(3)
H39_7 H 0.2545 0.5516 0.8478
O4_7 O 0.27433(8) 0.59565(6) 0.7036(3)
O6_7 O 0.21544(8) 0.51277(6) 0.6237(2)
O7_7 O 0.27370(8) 0.68163(6) 0.8800(3)
O8_7 O 0.33890(7) 0.70599(5) 0.9978(3)
O12_7 O 0.45096(7) 0.70445(6) 0.9919(3)
O14_5 O 0.39440(8) 0.74231(6) 0.8899(2)
H45_5 H 0.4187 0.7476 0.8648
H46_5 H 0.3777 0.7419 0.8262
C1_8 C 0.22657(12) 0.89858(9) 0.1035(4)
C2_8 C 0.22515(11) 0.91429(9) 0.0052(4)
H1_8 H 0.2244 0.9332 0.0097
C6_8 C 0.22790(12) 0.87039(9) 0.0970(4)
H3_8 H 0.2288 0.8601 0.1628
C7_8 C 0.22707(11) 0.91274(8) 0.2162(4)
C8_8 C 0.23895(12) 0.95459(9) 0.3230(4)
H4_8 H 0.2408 0.9423 0.3868
H5_4 H 0.2601 0.9666 0.3249
C9_8 C 0.20505(11) 0.97135(8) 0.3357(4)
C14_8 C 0.22343(12) 0.78411(9) 0.0344(4)
H8_8 H 0.2337 0.7722 0.0917
C15_8 C 0.18437(10) 0.77620(7) 0.0162(4)
C16_8 C 0.07206(11) 0.94902(9) 0.1274(4)
H10_8 H 0.0541 0.9599 0.1602
C17_8 C 0.06243(11) 0.93066(8) 0.0442(4)
H11_8 H 0.0379 0.9294 0.0235
C19_8 C 0.12185(12) 0.91696(9) 0.0252(4)
C20_8 C 0.13125(11) 0.93439(8) 0.1128(3)
H13_8 H 0.1553 0.9343 0.1387
C26_8 C 0.13626(13) 0.83996(8) 0.1432(4)
H18_8 H 0.1584 0.8322 0.1214
C27_8 C 0.13724(12) 0.86006(8) 0.2189(4)
H19_8 H 0.1597 0.8670 0.2423
C28_8 C 0.10523(12) 0.87052(8) 0.2624(4)
C29_8 C 0.07406(11) 0.86033(8) 0.2167(3)
H20_8 H 0.0516 0.8663 0.2439
C30_8 C 0.07476(11) 0.84111(9) 0.1304(4)
H21_8 H 0.0529 0.8359 0.0960
C31_8 C 0.13795(13) 0.82427(9) 0.7826(5)
H22_8 H 0.1591 0.8192 0.8214
C32_8 C 0.14113(13) 0.83676(10) 0.6778(4)
H23_8 H 0.1641 0.8402 0.6472
C33_8 C 0.10965(14) 0.84397(9) 0.6194(4)
C34_8 C 0.07564(13) 0.83896(9) 0.6664(4)
H24_8 H 0.0546 0.8440 0.6273
C35_8 C 0.07252(13) 0.82650(8) 0.7711(4)
H25_8 H 0.0495 0.8230 0.8017
C39_8 C 0.10410(13) 0.89064(8) 0.3560(4)
H32_8 H 0.0849 0.9035 0.3371
H33_8 H 0.1270 0.9006 0.3526
C40_8 C 0.09847(12) 0.88320(9) 0.4778(4)
H34_8 H 0.1096 0.8970 0.5253
H35_8 H 0.0724 0.8828 0.4941
C41_8 C 0.11480(12) 0.85597(10) 0.5061(4)
H36_8 H 0.1053 0.8430 0.4517
H37_8 H 0.1410 0.8573 0.4932
N1_8 N 0.24020(9) 0.93827(7) 0.2167(3)
H38_8 H 0.2493 0.9452 0.1561
N3_8 N 0.22995(9) 0.81340(7) 0.0699(3)
H40_8 H 0.2338 0.8195 0.1369
N4_8 N 0.10723(9) 0.95132(7) 0.1616(3)
N6_8 N 0.10562(9) 0.83029(7) 0.0970(3)
N7_8 N 0.10424(10) 0.81916(7) 0.8305(3)
O1_8 O 0.21654(8) 0.90038(6) 0.2969(2)
O2_8 O 0.17635(8) 0.96511(6) 0.2827(3)
O3_8 O 0.20654(7) 0.99001(6) 0.4072(2)
N8_8 N 0.10758(10) 0.96287(7) 0.4332(3)
C3_8 C 0.22489(11) 0.90142(8) 0.9013(4)
C4_8 C 0.22657(11) 0.87283(8) 0.8944(4)
H2_8 H 0.2267 0.8643 0.8244
C5_8 C 0.22798(11) 0.85751(8) 0.9925(4)
C10_8 C 0.22749(12) 0.91695(9) 0.7932(4)
C11_8 C 0.23596(11) 0.96236(9) 0.6976(4)
H6_8 H 0.2276 0.9536 0.6289
H7_8 H 0.2224 0.9792 0.7068
C12_8 C 0.27707(12) 0.96878(8) 0.6872(4)
C13_8 C 0.22847(12) 0.82671(9) 0.9787(4)
H9_8 H 0.2368 0.7808 0.9649
C18_8 C 0.08645(10) 0.91477(8) 0.9924(3)
H12_8 H 0.1399 0.9068 0.9890
C21_8 C 0.08416(12) 0.94455(8) 0.6414(4)
C22_8 C 0.06030(12) 0.94876(8) 0.5567(4)
H14_8 H 0.0356 0.9449 0.5662
C23_8 C 0.07303(12) 0.95895(8) 0.4557(4)
H15_8 H 0.0559 0.9633 0.4003
C24_8 C 0.13045(12) 0.95632(8) 0.5102(4)
H16_8 H 0.1553 0.9581 0.4945
C25_8 C 0.12058(13) 0.94694(9) 0.6132(4)
H17_8 H 0.1385 0.9421 0.6652
C36_8 C 0.07610(11) 0.89626(8) 0.9020(3)
H26_8 H 0.0872 0.8786 0.9166
H27_8 H 0.0497 0.8939 0.9036
C37_8 C 0.08742(11) 0.90569(8) 0.7825(4)
H28_8 H 0.0783 0.8926 0.7278
H29_8 H 0.1140 0.9057 0.7776
C38_8 C 0.07321(11) 0.93401(8) 0.7511(3)
H30_8 H 0.0814 0.9467 0.8085
H31_8 H 0.0466 0.9336 0.7539
N2_8 N 0.22858(9) 0.94423(7) 0.7954(3)
H39_8 H 0.2455 0.9484 0.8478
O4_8 O 0.22567(8) 0.90435(6) 0.7036(3)
O5_5 O 0.29904(7) 0.95445(6) 0.7419(3)
O6_8 O 0.28456(8) 0.98723(6) 0.6237(2)
O7_8 O 0.22630(8) 0.81837(6) 0.8800(3)
O8_8 O 0.16110(7) 0.79401(5) 0.9978(3)
C8_9 C 0.51105(12) 0.20459(9) 0.0730(4)
H4_9 H 0.5092 0.1923 0.1368
H5_5 H 0.4899 0.2166 0.0749
C9_9 C 0.54495(11) 0.22135(8) 0.0857(4)
C28_9 C 0.64477(12) 0.12052(8) 0.0124(4)
C31_9 C 0.61205(13) 0.07427(9) 0.5326(5)
H22_9 H 0.5909 0.0692 0.5714
C32_9 C 0.60887(13) 0.08676(10) 0.4278(4)
H23_9 H 0.5859 0.0902 0.3972
C33_9 C 0.64035(14) 0.09397(9) 0.3694(4)
C34_9 C 0.67436(13) 0.08896(9) 0.4164(4)
H24_9 H 0.6954 0.0940 0.3773
C35_9 C 0.67748(13) 0.07650(8) 0.5211(4)
H25_9 H 0.7005 0.0730 0.5517
C39_9 C 0.64590(13) 0.14064(8) 0.1060(4)
H32_9 H 0.6651 0.1535 0.0871
H33_9 H 0.6230 0.1506 0.1026
C40_9 C 0.65153(12) 0.13320(9) 0.2278(4)
H34_9 H 0.6404 0.1470 0.2753
H35_9 H 0.6776 0.1328 0.2441
C41_9 C 0.63520(12) 0.10597(10) 0.2561(4)
H36_9 H 0.6447 0.0930 0.2017
H37_9 H 0.6090 0.1073 0.2432
Co1_8 Co 0.625640(15) 0.232000(11) 0.02661(5)
N7_9 N 0.64576(10) 0.06916(7) 0.5805(3)
O1_9 O 0.53346(8) 0.15038(6) 0.0469(2)
O2_9 O 0.57365(8) 0.21511(6) 0.0327(3)
O3_9 O 0.54346(7) 0.24001(6) 0.1572(2)
O11_8 O 0.60507(7) 0.26728(5) 0.1239(2)
H43_8 H 0.5807 0.2642 0.1539
H44_8 H 0.6216 0.2725 0.1842
Co5_6 Co 0.644774(15) 0.046479(11) 0.73422(5)
N8_9 N 0.64242(10) 0.21287(7) 0.1832(3)
O13_8 O 0.67603(7) 0.25137(5) 0.0189(2)
C1_9 C 0.52343(12) 0.14858(9) 0.8535(4)
C2_9 C 0.52485(11) 0.16429(9) 0.7552(4)
H1_9 H 0.5256 0.1832 0.7597
C3_9 C 0.52511(11) 0.15142(8) 0.6513(4)
C4_9 C 0.52343(11) 0.12283(8) 0.6444(4)
H2_9 H 0.5233 0.1143 0.5744
C5_9 C 0.52202(11) 0.10751(8) 0.7425(4)
C6_9 C 0.52210(12) 0.12039(9) 0.8470(4)
H3_9 H 0.5212 0.1101 0.9128
C7_9 C 0.52293(11) 0.16274(8) 0.9662(4)
C10_9 C 0.52251(12) 0.16695(9) 0.5432(4)
C11_9 C 0.51404(11) 0.21236(9) 0.4476(4)
H6_9 H 0.5224 0.2036 0.3789
H7_9 H 0.5276 0.2292 0.4568
C12_9 C 0.47293(12) 0.21878(8) 0.4372(4)
C13_9 C 0.52153(12) 0.07671(9) 0.7287(4)
C14_9 C 0.52657(12) 0.03411(9) 0.7844(4)
H8_9 H 0.5163 0.0222 0.8417
H9_9 H 0.5132 0.0308 0.7149
C15_9 C 0.56563(10) 0.02620(7) 0.7662(4)
C16_9 C 0.67794(11) 0.19902(9) 0.8774(4)
H10_9 H 0.6959 0.2099 0.9102
C17_9 C 0.68757(11) 0.18066(8) 0.7942(4)
H11_9 H 0.7121 0.1794 0.7735
C18_9 C 0.66355(10) 0.16477(8) 0.7424(3)
C19_9 C 0.62815(12) 0.16696(9) 0.7752(4)
H12_9 H 0.6101 0.1568 0.7390
C20_9 C 0.61875(11) 0.18439(8) 0.8628(3)
H13_9 H 0.5947 0.1843 0.8887
C21_9 C 0.66584(12) 0.19455(8) 0.3914(4)
C22_9 C 0.68970(12) 0.19876(8) 0.3067(4)
H14_9 H 0.7144 0.1949 0.3162
C23_9 C 0.67697(12) 0.20895(8) 0.2057(4)
H15_9 H 0.6941 0.2133 0.1503
C24_9 C 0.61955(12) 0.20632(8) 0.2602(4)
H16_9 H 0.5947 0.2081 0.2445
C25_9 C 0.62942(13) 0.19694(9) 0.3632(4)
H17_9 H 0.6115 0.1921 0.4152
C26_9 C 0.61374(13) 0.08996(8) 0.8932(4)
H18_9 H 0.5916 0.0822 0.8714
C27_9 C 0.61276(12) 0.11006(8) 0.9689(4)
H19_9 H 0.5903 0.1170 0.9923
C29_9 C 0.67594(11) 0.11033(8) 0.9667(3)
H20_9 H 0.6984 0.1163 0.9939
C30_9 C 0.67524(11) 0.09111(9) 0.8804(4)
H21_9 H 0.6971 0.0859 0.8460
C36_9 C 0.67390(11) 0.14626(8) 0.6520(3)
H26_9 H 0.6628 0.1286 0.6666
H27_9 H 0.7003 0.1439 0.6536
C37_9 C 0.66258(11) 0.15569(8) 0.5325(4)
H28_9 H 0.6717 0.1426 0.4778
H29_9 H 0.6360 0.1557 0.5276
C38_9 C 0.67679(11) 0.18401(8) 0.5011(3)
H30_9 H 0.6686 0.1967 0.5585
H31_9 H 0.7034 0.1836 0.5039
N1_9 N 0.50980(9) 0.18827(7) 0.9667(3)
H38_9 H 0.5007 0.1952 0.9061
N2_9 N 0.52142(9) 0.19423(7) 0.5454(3)
H39_9 H 0.5045 0.1984 0.5978
N3_9 N 0.52005(9) 0.06340(7) 0.8199(3)
H40_9 H 0.5162 0.0695 0.8869
N4_9 N 0.64277(9) 0.20132(7) 0.9116(3)
N6_9 N 0.64438(9) 0.08029(7) 0.8470(3)
O4_9 O 0.52433(8) 0.15435(6) 0.4536(3)
O6_9 O 0.46544(8) 0.23723(6) 0.3737(2)
O7_9 O 0.52370(8) 0.06837(6) 0.6300(3)
O8_9 O 0.58890(7) 0.04401(5) 0.7478(3)
O9_6 O 0.57397(7) 0.00137(5) 0.7689(2)
O10_8 O 0.60560(8) 0.25769(6) 0.8899(2)
H41_8 H 0.5813 0.2524 0.8648
H42_8 H 0.6223 0.2581 0.8262
Co7_5 Co 0.605226(15) 0.296479(11) 0.98422(5)
O12_8 O 0.70096(7) 0.04555(6) 0.7419(3)
O14_6 O 0.64440(8) 0.00769(6) 0.6399(2)
H45_6 H 0.6687 0.0024 0.6148
H46_6 H 0.6277 0.0081 0.5762
O15_6 O 0.64493(7) 0.01728(5) 0.8739(2)
H47_6 H 0.6693 0.0142 0.9039
H48_6 H 0.6284 0.0225 0.9342
Co4_6 Co 0.624360(15) 0.982000(11) 0.77661(5)
C8_10 C 0.48895(12) 0.79541(9) 0.0730(4)
H4_10 H 0.4908 0.8077 0.1368
H5_6 H 0.5101 0.7834 0.0749
C9_10 C 0.45505(11) 0.77865(8) 0.0857(4)
C28_10 C 0.35523(12) 0.87948(8) 0.0124(4)
C31_10 C 0.38795(13) 0.92573(9) 0.5326(5)
H22_10 H 0.4091 0.9308 0.5714
C32_10 C 0.39113(13) 0.91324(10) 0.4278(4)
H23_10 H 0.4141 0.9098 0.3972
C33_10 C 0.35965(14) 0.90603(9) 0.3694(4)
C34_10 C 0.32564(13) 0.91104(9) 0.4164(4)
H24_10 H 0.3046 0.9060 0.3773
C35_10 C 0.32252(13) 0.92350(8) 0.5211(4)
H25_10 H 0.2995 0.9270 0.5517
C39_10 C 0.35410(13) 0.85936(8) 0.1060(4)
H32_10 H 0.3349 0.8465 0.0871
H33_10 H 0.3770 0.8494 0.1026
C40_10 C 0.34847(12) 0.86680(9) 0.2278(4)
H34_10 H 0.3596 0.8530 0.2753
H35_10 H 0.3224 0.8672 0.2441
C41_10 C 0.36480(12) 0.89403(10) 0.2561(4)
H36_10 H 0.3553 0.9070 0.2017
H37_10 H 0.3910 0.8927 0.2432
N7_10 N 0.35424(10) 0.93084(7) 0.5805(3)
O1_10 O 0.46654(8) 0.84962(6) 0.0469(2)
O2_10 O 0.42635(8) 0.78489(6) 0.0327(3)
O3_10 O 0.45654(7) 0.75999(6) 0.1572(2)
N8_10 N 0.35758(10) 0.78713(7) 0.1832(3)
C1_10 C 0.47657(12) 0.85142(9) 0.8535(4)
C2_10 C 0.47515(11) 0.83571(9) 0.7552(4)
H1_10 H 0.4744 0.8168 0.7597
C3_10 C 0.47489(11) 0.84858(8) 0.6513(4)
C4_10 C 0.47657(11) 0.87717(8) 0.6444(4)
H2_10 H 0.4767 0.8857 0.5744
C5_10 C 0.47798(11) 0.89249(8) 0.7425(4)
C6_10 C 0.47790(12) 0.87961(9) 0.8470(4)
H3_10 H 0.4788 0.8899 0.9128
C7_10 C 0.47707(11) 0.83726(8) 0.9662(4)
C10_10 C 0.47749(12) 0.83305(9) 0.5432(4)
C11_10 C 0.48596(11) 0.78764(9) 0.4476(4)
H6_10 H 0.4776 0.7964 0.3789
H7_10 H 0.4724 0.7708 0.4568
C12_10 C 0.52707(12) 0.78122(8) 0.4372(4)
C13_10 C 0.47847(12) 0.92329(9) 0.7287(4)
C14_10 C 0.47343(12) 0.96589(9) 0.7844(4)
H8_10 H 0.4837 0.9778 0.8417
H9_10 H 0.4868 0.9692 0.7149
C15_10 C 0.43437(10) 0.97380(7) 0.7662(4)
C16_10 C 0.32206(11) 0.80098(9) 0.8774(4)
H10_10 H 0.3041 0.7901 0.9102
C17_10 C 0.31243(11) 0.81934(8) 0.7942(4)
H11_10 H 0.2879 0.8206 0.7735
C18_10 C 0.33645(10) 0.83523(8) 0.7424(3)
C19_10 C 0.37185(12) 0.83304(9) 0.7752(4)
H12_10 H 0.3899 0.8432 0.7390
C20_10 C 0.38125(11) 0.81561(8) 0.8628(3)
H13_10 H 0.4053 0.8157 0.8887
C21_10 C 0.33416(12) 0.80545(8) 0.3914(4)
C22_10 C 0.31030(12) 0.80124(8) 0.3067(4)
H14_10 H 0.2856 0.8051 0.3162
C23_10 C 0.32303(12) 0.79105(8) 0.2057(4)
H15_10 H 0.3059 0.7867 0.1503
C24_10 C 0.38045(12) 0.79368(8) 0.2602(4)
H16_10 H 0.4053 0.7919 0.2445
C25_10 C 0.37058(13) 0.80306(9) 0.3632(4)
H17_10 H 0.3885 0.8079 0.4152
C26_10 C 0.38626(13) 0.91004(8) 0.8932(4)
H18_10 H 0.4084 0.9178 0.8714
C27_10 C 0.38724(12) 0.88994(8) 0.9689(4)
H19_10 H 0.4097 0.8830 0.9923
C29_10 C 0.32406(11) 0.88967(8) 0.9667(3)
H20_10 H 0.3016 0.8837 0.9939
C30_10 C 0.32476(11) 0.90889(9) 0.8804(4)
H21_10 H 0.3029 0.9141 0.8460
C36_10 C 0.32610(11) 0.85374(8) 0.6520(3)
H26_10 H 0.3372 0.8714 0.6666
H27_10 H 0.2997 0.8561 0.6536
C37_10 C 0.33742(11) 0.84431(8) 0.5325(4)
H28_10 H 0.3283 0.8574 0.4778
H29_10 H 0.3640 0.8443 0.5276
C38_10 C 0.32321(11) 0.81599(8) 0.5011(3)
H30_10 H 0.3314 0.8033 0.5585
H31_10 H 0.2966 0.8164 0.5039
N1_10 N 0.49020(9) 0.81173(7) 0.9667(3)
H38_10 H 0.4993 0.8048 0.9061
N2_10 N 0.47858(9) 0.80577(7) 0.5454(3)
H39_10 H 0.4955 0.8016 0.5978
N3_10 N 0.47995(9) 0.93660(7) 0.8199(3)
H40_10 H 0.4838 0.9305 0.8869
N4_10 N 0.35723(9) 0.79868(7) 0.9116(3)
N6_10 N 0.35562(9) 0.91971(7) 0.8470(3)
O4_10 O 0.47567(8) 0.84565(6) 0.4536(3)
O5_6 O 0.54904(7) 0.79555(6) 0.4919(3)
O6_10 O 0.53456(8) 0.76277(6) 0.3737(2)
O7_10 O 0.47630(8) 0.93163(6) 0.6300(3)
O8_10 O 0.41110(7) 0.95599(5) 0.7478(3)
Co6_4 Co 0.605226(15) 0.796479(11) 0.48422(5)
C1_11 C 0.77343(12) 0.10142(9) 0.1035(4)
C2_11 C 0.77485(11) 0.08571(9) 0.0052(4)
H1_11 H 0.7756 0.0668 0.0097
C6_11 C 0.77210(12) 0.12961(9) 0.0970(4)
H3_11 H 0.7712 0.1399 0.1628
C7_11 C 0.77293(11) 0.08726(8) 0.2162(4)
C8_11 C 0.76105(12) 0.04541(9) 0.3230(4)
H4_11 H 0.7592 0.0577 0.3868
H5_7 H 0.7399 0.0334 0.3249
C9_11 C 0.79495(11) 0.02865(8) 0.3357(4)
C14_11 C 0.77657(12) 0.21589(9) 0.0344(4)
H8_11 H 0.7663 0.2278 0.0917
C15_11 C 0.81563(10) 0.22380(7) 0.0162(4)
C16_11 C 0.92794(11) 0.05098(9) 0.1274(4)
H10_11 H 0.9459 0.0401 0.1602
C17_11 C 0.93757(11) 0.06934(8) 0.0442(4)
H11_11 H 0.9621 0.0706 0.0235
C19_11 C 0.87815(12) 0.08304(9) 0.0252(4)
C20_11 C 0.86875(11) 0.06561(8) 0.1128(3)
H13_11 H 0.8447 0.0657 0.1387
C26_11 C 0.86374(13) 0.16004(8) 0.1432(4)
H18_11 H 0.8416 0.1678 0.1214
C27_11 C 0.86276(12) 0.13994(8) 0.2189(4)
H19_11 H 0.8403 0.1330 0.2423
C28_11 C 0.89477(12) 0.12948(8) 0.2624(4)
C29_11 C 0.92594(11) 0.13967(8) 0.2167(3)
H20_11 H 0.9484 0.1337 0.2439
C30_11 C 0.92524(11) 0.15889(9) 0.1304(4)
H21_11 H 0.9471 0.1641 0.0960
C31_11 C 0.86205(13) 0.17573(9) 0.7826(5)
H22_11 H 0.8409 0.1808 0.8214
C32_11 C 0.85887(13) 0.16324(10) 0.6778(4)
H23_11 H 0.8359 0.1598 0.6472
C33_11 C 0.89035(14) 0.15603(9) 0.6194(4)
C34_11 C 0.92436(13) 0.16104(9) 0.6664(4)
H24_11 H 0.9454 0.1560 0.6273
C35_11 C 0.92748(13) 0.17350(8) 0.7711(4)
H25_11 H 0.9505 0.1770 0.8017
C39_11 C 0.89590(13) 0.10936(8) 0.3560(4)
H32_11 H 0.9151 0.0965 0.3371
H33_11 H 0.8730 0.0994 0.3526
C40_11 C 0.90153(12) 0.11680(9) 0.4778(4)
H34_11 H 0.8904 0.1030 0.5253
H35_11 H 0.9276 0.1172 0.4941
C41_11 C 0.88520(12) 0.14403(10) 0.5061(4)
H36_11 H 0.8947 0.1570 0.4517
H37_11 H 0.8590 0.1427 0.4932
N1_11 N 0.75980(9) 0.06173(7) 0.2167(3)
H38_11 H 0.7507 0.0548 0.1561
N3_11 N 0.77005(9) 0.18660(7) 0.0699(3)
H40_11 H 0.7662 0.1805 0.1369
N4_11 N 0.89277(9) 0.04868(7) 0.1616(3)
N6_11 N 0.89438(9) 0.16971(7) 0.0970(3)
N7_11 N 0.89576(10) 0.18084(7) 0.8305(3)
O1_11 O 0.78346(8) 0.09962(6) 0.2969(2)
O2_11 O 0.82365(8) 0.03489(6) 0.2827(3)
O3_11 O 0.79346(7) 0.00999(6) 0.4072(2)
N8_11 N 0.89242(10) 0.03713(7) 0.4332(3)
C3_11 C 0.77511(11) 0.09858(8) 0.9013(4)
C4_11 C 0.77343(11) 0.12717(8) 0.8944(4)
H2_11 H 0.7733 0.1357 0.8244
C5_11 C 0.77202(11) 0.14249(8) 0.9925(4)
C10_11 C 0.77251(12) 0.08305(9) 0.7932(4)
C11_11 C 0.76404(11) 0.03764(9) 0.6976(4)
H6_11 H 0.7724 0.0464 0.6289
H7_11 H 0.7776 0.0208 0.7068
C12_11 C 0.72293(12) 0.03122(8) 0.6872(4)
C13_11 C 0.77153(12) 0.17329(9) 0.9787(4)
H9_11 H 0.7632 0.2192 0.9649
C18_11 C 0.91355(10) 0.08523(8) 0.9924(3)
H12_11 H 0.8601 0.0932 0.9890
C21_11 C 0.91584(12) 0.05545(8) 0.6414(4)
C22_11 C 0.93970(12) 0.05124(8) 0.5567(4)
H14_11 H 0.9644 0.0551 0.5662
C23_11 C 0.92697(12) 0.04105(8) 0.4557(4)
H15_11 H 0.9441 0.0367 0.4003
C24_11 C 0.86955(12) 0.04368(8) 0.5102(4)
H16_11 H 0.8447 0.0419 0.4945
C25_11 C 0.87942(13) 0.05306(9) 0.6132(4)
H17_11 H 0.8615 0.0579 0.6652
C36_11 C 0.92390(11) 0.10374(8) 0.9020(3)
H26_11 H 0.9128 0.1214 0.9166
H27_11 H 0.9503 0.1061 0.9036
C37_11 C 0.91258(11) 0.09431(8) 0.7825(4)
H28_11 H 0.9217 0.1074 0.7278
H29_11 H 0.8860 0.0943 0.7776
C38_11 C 0.92679(11) 0.06599(8) 0.7511(3)
H30_11 H 0.9186 0.0533 0.8085
H31_11 H 0.9534 0.0664 0.7539
N2_11 N 0.77142(9) 0.05577(7) 0.7954(3)
H39_11 H 0.7545 0.0516 0.8478
O4_11 O 0.77433(8) 0.09565(6) 0.7036(3)
O6_11 O 0.71544(8) 0.01277(6) 0.6237(2)
O7_11 O 0.77370(8) 0.18163(6) 0.8800(3)
O8_11 O 0.83890(7) 0.20599(5) 0.9978(3)
C1_12 C 0.72657(12) 0.39858(9) 0.1035(4)
C2_12 C 0.72515(11) 0.41429(9) 0.0052(4)
H1_12 H 0.7244 0.4332 0.0097
C6_12 C 0.72790(12) 0.37039(9) 0.0970(4)
H3_12 H 0.7288 0.3601 0.1628
C7_12 C 0.72707(11) 0.41274(8) 0.2162(4)
C8_12 C 0.73895(12) 0.45459(9) 0.3230(4)
H4_12 H 0.7408 0.4423 0.3868
H5_8 H 0.7601 0.4666 0.3249
C9_12 C 0.70505(11) 0.47135(8) 0.3357(4)
C14_12 C 0.72343(12) 0.28411(9) 0.0344(4)
H8_12 H 0.7337 0.2722 0.0917
C15_12 C 0.68437(10) 0.27620(7) 0.0162(4)
C16_12 C 0.57206(11) 0.44902(9) 0.1274(4)
H10_12 H 0.5541 0.4599 0.1602
C17_12 C 0.56243(11) 0.43066(8) 0.0442(4)
H11_12 H 0.5379 0.4294 0.0235
C19_12 C 0.62185(12) 0.41696(9) 0.0252(4)
C20_12 C 0.63125(11) 0.43439(8) 0.1128(3)
H13_12 H 0.6553 0.4343 0.1387
C26_12 C 0.63626(13) 0.33996(8) 0.1432(4)
H18_12 H 0.6584 0.3322 0.1214
C27_12 C 0.63724(12) 0.36006(8) 0.2189(4)
H19_12 H 0.6597 0.3670 0.2423
C28_12 C 0.60523(12) 0.37052(8) 0.2624(4)
C29_12 C 0.57406(11) 0.36033(8) 0.2167(3)
H20_12 H 0.5516 0.3663 0.2439
C30_12 C 0.57476(11) 0.34111(9) 0.1304(4)
H21_12 H 0.5529 0.3359 0.0960
C31_12 C 0.63795(13) 0.32427(9) 0.7826(5)
H22_12 H 0.6591 0.3192 0.8214
C32_12 C 0.64113(13) 0.33676(10) 0.6778(4)
H23_12 H 0.6641 0.3402 0.6472
C33_12 C 0.60965(14) 0.34397(9) 0.6194(4)
C34_12 C 0.57564(13) 0.33896(9) 0.6664(4)
H24_12 H 0.5546 0.3440 0.6273
C35_12 C 0.57252(13) 0.32650(8) 0.7711(4)
H25_12 H 0.5495 0.3230 0.8017
C39_12 C 0.60410(13) 0.39064(8) 0.3560(4)
H32_12 H 0.5849 0.4035 0.3371
H33_12 H 0.6270 0.4006 0.3526
C40_12 C 0.59847(12) 0.38320(9) 0.4778(4)
H34_12 H 0.6096 0.3970 0.5253
H35_12 H 0.5724 0.3828 0.4941
C41_12 C 0.61480(12) 0.35597(10) 0.5061(4)
H36_12 H 0.6053 0.3430 0.4517
H37_12 H 0.6410 0.3573 0.4932
Co1_9 Co 0.624360(15) 0.482000(11) 0.27661(5)
N1_12 N 0.74020(9) 0.43827(7) 0.2167(3)
H38_12 H 0.7493 0.4452 0.1561
N3_12 N 0.72995(9) 0.31340(7) 0.0699(3)
H40_12 H 0.7338 0.3195 0.1369
N4_12 N 0.60723(9) 0.45132(7) 0.1616(3)
N6_12 N 0.60562(9) 0.33029(7) 0.0970(3)
N7_12 N 0.60424(10) 0.31916(7) 0.8305(3)
O1_12 O 0.71654(8) 0.40038(6) 0.2969(2)
O2_12 O 0.67635(8) 0.46511(6) 0.2827(3)
O3_12 O 0.70654(7) 0.49001(6) 0.4072(2)
O10_9 O 0.64440(8) 0.50769(6) 0.1399(2)
H41_9 H 0.6687 0.5024 0.1148
H42_9 H 0.6277 0.5081 0.0762
O11_9 O 0.64493(7) 0.51728(5) 0.3739(2)
H43_9 H 0.6693 0.5142 0.4039
H44_9 H 0.6284 0.5225 0.4342
Co7_6 Co 0.644774(15) 0.546479(11) 0.23422(5)
N8_12 N 0.60758(10) 0.46287(7) 0.4332(3)
O13_9 O 0.57397(7) 0.50137(5) 0.2689(2)
C3_12 C 0.72489(11) 0.40142(8) 0.9013(4)
C4_12 C 0.72657(11) 0.37283(8) 0.8944(4)
H2_12 H 0.7267 0.3643 0.8244
C5_12 C 0.72798(11) 0.35751(8) 0.9925(4)
C10_12 C 0.72749(12) 0.41695(9) 0.7932(4)
C11_12 C 0.73596(11) 0.46236(9) 0.6976(4)
H6_12 H 0.7276 0.4536 0.6289
H7_12 H 0.7224 0.4792 0.7068
C12_12 C 0.77707(12) 0.46878(8) 0.6872(4)
C13_12 C 0.72847(12) 0.32671(9) 0.9787(4)
H9_12 H 0.7368 0.2808 0.9649
C18_12 C 0.58645(10) 0.41477(8) 0.9924(3)
H12_12 H 0.6399 0.4068 0.9890
C21_12 C 0.58416(12) 0.44455(8) 0.6414(4)
C22_12 C 0.56030(12) 0.44876(8) 0.5567(4)
H14_12 H 0.5356 0.4449 0.5662
C23_12 C 0.57303(12) 0.45895(8) 0.4557(4)
H15_12 H 0.5559 0.4633 0.4003
C24_12 C 0.63045(12) 0.45632(8) 0.5102(4)
H16_12 H 0.6553 0.4581 0.4945
C25_12 C 0.62058(13) 0.44694(9) 0.6132(4)
H17_12 H 0.6385 0.4421 0.6652
C36_12 C 0.57610(11) 0.39626(8) 0.9020(3)
H26_12 H 0.5872 0.3786 0.9166
H27_12 H 0.5497 0.3939 0.9036
C37_12 C 0.58742(11) 0.40569(8) 0.7825(4)
H28_12 H 0.5783 0.3926 0.7278
H29_12 H 0.6140 0.4057 0.7776
C38_12 C 0.57321(11) 0.43401(8) 0.7511(3)
H30_12 H 0.5814 0.4467 0.8085
H31_12 H 0.5466 0.4336 0.7539
N2_12 N 0.72858(9) 0.44423(7) 0.7954(3)
H39_12 H 0.7455 0.4484 0.8478
O4_12 O 0.72567(8) 0.40435(6) 0.7036(3)
O6_12 O 0.78456(8) 0.48723(6) 0.6237(2)
O7_12 O 0.72630(8) 0.31837(6) 0.8800(3)
O8_12 O 0.66110(7) 0.29401(5) 0.9978(3)
O12_9 O 0.54904(7) 0.29555(6) 0.9919(3)
C31_13 C 0.61205(13) 0.57427(9) 0.0326(5)
H22_13 H 0.5909 0.5692 0.0714
C35_13 C 0.67748(13) 0.57650(8) 0.0211(4)
H25_13 H 0.7005 0.5730 0.0517
N7_13 N 0.64576(10) 0.56916(7) 0.0805(3)
C1_13 C 0.52343(12) 0.64858(9) 0.3535(4)
C2_13 C 0.52485(11) 0.66429(9) 0.2552(4)
H1_13 H 0.5256 0.6832 0.2597
C3_13 C 0.52511(11) 0.65142(8) 0.1513(4)
C4_13 C 0.52343(11) 0.62283(8) 0.1444(4)
H2_13 H 0.5233 0.6143 0.0744
C5_13 C 0.52202(11) 0.60751(8) 0.2425(4)
C6_13 C 0.52210(12) 0.62039(9) 0.3470(4)
H3_13 H 0.5212 0.6101 0.4128
C7_13 C 0.52293(11) 0.66274(8) 0.4662(4)
C8_13 C 0.51105(12) 0.70459(9) 0.5730(4)
H4_13 H 0.5092 0.6923 0.6368
H5_9 H 0.4899 0.7166 0.5749
C9_13 C 0.54495(11) 0.72135(8) 0.5857(4)
C10_13 C 0.52251(12) 0.66695(9) 0.0432(4)
C13_13 C 0.52153(12) 0.57671(9) 0.2287(4)
C14_13 C 0.52657(12) 0.53411(9) 0.2844(4)
H8_13 H 0.5163 0.5222 0.3417
H9_13 H 0.5132 0.5308 0.2149
C15_13 C 0.56563(10) 0.52620(7) 0.2662(4)
C16_13 C 0.67794(11) 0.69902(9) 0.3774(4)
H10_13 H 0.6959 0.7099 0.4102
C17_13 C 0.68757(11) 0.68066(8) 0.2942(4)
H11_13 H 0.7121 0.6794 0.2735
C18_13 C 0.66355(10) 0.66477(8) 0.2424(3)
C19_13 C 0.62815(12) 0.66696(9) 0.2752(4)
H12_13 H 0.6101 0.6568 0.2390
C20_13 C 0.61875(11) 0.68439(8) 0.3628(3)
H13_13 H 0.5947 0.6843 0.3887
C26_13 C 0.61374(13) 0.58996(8) 0.3932(4)
H18_13 H 0.5916 0.5822 0.3714
C27_13 C 0.61276(12) 0.61006(8) 0.4689(4)
H19_13 H 0.5903 0.6170 0.4923
C28_13 C 0.64477(12) 0.62052(8) 0.5124(4)
C29_13 C 0.67594(11) 0.61033(8) 0.4667(3)
H20_13 H 0.6984 0.6163 0.4939
C30_13 C 0.67524(11) 0.59111(9) 0.3804(4)
H21_13 H 0.6971 0.5859 0.3460
C32_13 C 0.60887(13) 0.58676(10) 0.9278(4)
H23_13 H 0.5859 0.5902 0.8972
C33_13 C 0.64035(14) 0.59397(9) 0.8694(4)
C34_13 C 0.67436(13) 0.58896(9) 0.9164(4)
H24_13 H 0.6954 0.5940 0.8773
C36_13 C 0.67390(11) 0.64626(8) 0.1520(3)
H26_13 H 0.6628 0.6286 0.1666
H27_13 H 0.7003 0.6439 0.1536
C37_13 C 0.66258(11) 0.65569(8) 0.0325(4)
H29_13 H 0.6360 0.6557 0.0276
C38_13 C 0.67679(11) 0.68401(8) 0.0011(3)
H30_13 H 0.6686 0.6967 0.0585
H31_13 H 0.7034 0.6836 0.0039
C39_13 C 0.64590(13) 0.64064(8) 0.6060(4)
H32_13 H 0.6651 0.6535 0.5871
H33_13 H 0.6230 0.6506 0.6026
C40_13 C 0.65153(12) 0.63320(9) 0.7278(4)
H34_13 H 0.6404 0.6470 0.7753
H35_13 H 0.6776 0.6328 0.7441
C41_13 C 0.63520(12) 0.60597(10) 0.7561(4)
H36_13 H 0.6447 0.5930 0.7017
H37_13 H 0.6090 0.6073 0.7432
Co1_10 Co 0.625640(15) 0.732000(11) 0.52661(5)
N1_13 N 0.50980(9) 0.68827(7) 0.4667(3)
H38_13 H 0.5007 0.6952 0.4061
N2_13 N 0.52142(9) 0.69423(7) 0.0454(3)
H39_13 H 0.5045 0.6984 0.0978
N3_13 N 0.52005(9) 0.56340(7) 0.3199(3)
H40_13 H 0.5162 0.5695 0.3869
N4_13 N 0.64277(9) 0.70132(7) 0.4116(3)
N6_13 N 0.64438(9) 0.58029(7) 0.3470(3)
O1_13 O 0.53346(8) 0.65038(6) 0.5469(2)
O2_13 O 0.57365(8) 0.71511(6) 0.5327(3)
O3_13 O 0.54346(7) 0.74001(6) 0.6572(2)
O7_13 O 0.52370(8) 0.56837(6) 0.1300(3)
O8_13 O 0.58890(7) 0.54401(5) 0.2478(3)
O10_10 O 0.60560(8) 0.75769(6) 0.3899(2)
H41_10 H 0.5813 0.7524 0.3648
H42_10 H 0.6223 0.7581 0.3262
O11_10 O 0.60507(7) 0.76728(5) 0.6239(2)
H43_10 H 0.5807 0.7642 0.6539
H44_10 H 0.6216 0.7725 0.6842
N8_13 N 0.64242(10) 0.71287(7) 0.6832(3)
O12_10 O 0.70096(7) 0.54555(6) 0.2419(3)
O13_10 O 0.67603(7) 0.75137(5) 0.5189(2)
C11_13 C 0.51404(11) 0.71236(9) 0.9476(4)
H6_13 H 0.5224 0.7036 0.8789
H7_13 H 0.5276 0.7292 0.9568
C12_13 C 0.47293(12) 0.71878(8) 0.9372(4)
C21_13 C 0.66584(12) 0.69455(8) 0.8914(4)
C22_13 C 0.68970(12) 0.69876(8) 0.8067(4)
H14_13 H 0.7144 0.6949 0.8162
C23_13 C 0.67697(12) 0.70895(8) 0.7057(4)
H15_13 H 0.6941 0.7133 0.6503
C24_13 C 0.61955(12) 0.70632(8) 0.7602(4)
H16_13 H 0.5947 0.7081 0.7445
C25_13 C 0.62942(13) 0.69694(9) 0.8632(4)
H17_13 H 0.6115 0.6921 0.9152
H28_13 H 0.6717 0.6426 0.9778
O4_13 O 0.52433(8) 0.65435(6) 0.9536(3)
O6_13 O 0.46544(8) 0.73723(6) 0.8737(2)
C31_14 C 0.38795(13) 0.42573(9) 0.0326(5)
H22_14 H 0.4091 0.4308 0.0714
C35_14 C 0.32252(13) 0.42350(8) 0.0211(4)
H25_14 H 0.2995 0.4270 0.0517
N7_14 N 0.35424(10) 0.43084(7) 0.0805(3)
C1_14 C 0.47657(12) 0.35142(9) 0.3535(4)
C2_14 C 0.47515(11) 0.33571(9) 0.2552(4)
H1_14 H 0.4744 0.3168 0.2597
C3_14 C 0.47489(11) 0.34858(8) 0.1513(4)
C4_14 C 0.47657(11) 0.37717(8) 0.1444(4)
H2_14 H 0.4767 0.3857 0.0744
C5_14 C 0.47798(11) 0.39249(8) 0.2425(4)
C6_14 C 0.47790(12) 0.37961(9) 0.3470(4)
H3_14 H 0.4788 0.3899 0.4128
C7_14 C 0.47707(11) 0.33726(8) 0.4662(4)
C8_14 C 0.48895(12) 0.29541(9) 0.5730(4)
H4_14 H 0.4908 0.3077 0.6368
H5_10 H 0.5101 0.2834 0.5749
C9_14 C 0.45505(11) 0.27865(8) 0.5857(4)
C10_14 C 0.47749(12) 0.33305(9) 0.0432(4)
C13_14 C 0.47847(12) 0.42329(9) 0.2287(4)
C14_14 C 0.47343(12) 0.46589(9) 0.2844(4)
H8_14 H 0.4837 0.4778 0.3417
H9_14 H 0.4868 0.4692 0.2149
C15_14 C 0.43437(10) 0.47380(7) 0.2662(4)
C16_14 C 0.32206(11) 0.30098(9) 0.3774(4)
H10_14 H 0.3041 0.2901 0.4102
C17_14 C 0.31243(11) 0.31934(8) 0.2942(4)
H11_14 H 0.2879 0.3206 0.2735
C18_14 C 0.33645(10) 0.33523(8) 0.2424(3)
C19_14 C 0.37185(12) 0.33304(9) 0.2752(4)
H12_14 H 0.3899 0.3432 0.2390
C20_14 C 0.38125(11) 0.31561(8) 0.3628(3)
H13_14 H 0.4053 0.3157 0.3887
C26_14 C 0.38626(13) 0.41004(8) 0.3932(4)
H18_14 H 0.4084 0.4178 0.3714
C27_14 C 0.38724(12) 0.38994(8) 0.4689(4)
H19_14 H 0.4097 0.3830 0.4923
C28_14 C 0.35523(12) 0.37948(8) 0.5124(4)
C29_14 C 0.32406(11) 0.38967(8) 0.4667(3)
H20_14 H 0.3016 0.3837 0.4939
C30_14 C 0.32476(11) 0.40889(9) 0.3804(4)
H21_14 H 0.3029 0.4141 0.3460
C32_14 C 0.39113(13) 0.41324(10) 0.9278(4)
H23_14 H 0.4141 0.4098 0.8972
C33_14 C 0.35965(14) 0.40603(9) 0.8694(4)
C34_14 C 0.32564(13) 0.41104(9) 0.9164(4)
H24_14 H 0.3046 0.4060 0.8773
C36_14 C 0.32610(11) 0.35374(8) 0.1520(3)
H26_14 H 0.3372 0.3714 0.1666
H27_14 H 0.2997 0.3561 0.1536
C37_14 C 0.33742(11) 0.34431(8) 0.0325(4)
H29_14 H 0.3640 0.3443 0.0276
C38_14 C 0.32321(11) 0.31599(8) 0.0011(3)
H30_14 H 0.3314 0.3033 0.0585
H31_14 H 0.2966 0.3164 0.0039
C39_14 C 0.35410(13) 0.35936(8) 0.6060(4)
H32_14 H 0.3349 0.3465 0.5871
H33_14 H 0.3770 0.3494 0.6026
C40_14 C 0.34847(12) 0.36680(9) 0.7278(4)
H34_14 H 0.3596 0.3530 0.7753
H35_14 H 0.3224 0.3672 0.7441
C41_14 C 0.36480(12) 0.39403(10) 0.7561(4)
H36_14 H 0.3553 0.4070 0.7017
H37_14 H 0.3910 0.3927 0.7432
N1_14 N 0.49020(9) 0.31173(7) 0.4667(3)
H38_14 H 0.4993 0.3048 0.4061
N2_14 N 0.47858(9) 0.30577(7) 0.0454(3)
H39_14 H 0.4955 0.3016 0.0978
N3_14 N 0.47995(9) 0.43660(7) 0.3199(3)
H40_14 H 0.4838 0.4305 0.3869
N4_14 N 0.35723(9) 0.29868(7) 0.4116(3)
N6_14 N 0.35562(9) 0.41971(7) 0.3470(3)
O1_14 O 0.46654(8) 0.34962(6) 0.5469(2)
O2_14 O 0.42635(8) 0.28489(6) 0.5327(3)
O3_14 O 0.45654(7) 0.25999(6) 0.6572(2)
O7_14 O 0.47630(8) 0.43163(6) 0.1300(3)
O8_14 O 0.41110(7) 0.45599(5) 0.2478(3)
N8_14 N 0.35758(10) 0.28713(7) 0.6832(3)
C11_14 C 0.48596(11) 0.28764(9) 0.9476(4)
H6_14 H 0.4776 0.2964 0.8789
H7_14 H 0.4724 0.2708 0.9568
C12_14 C 0.52707(12) 0.28122(8) 0.9372(4)
C21_14 C 0.33416(12) 0.30545(8) 0.8914(4)
C22_14 C 0.31030(12) 0.30124(8) 0.8067(4)
H14_14 H 0.2856 0.3051 0.8162
C23_14 C 0.32303(12) 0.29105(8) 0.7057(4)
H15_14 H 0.3059 0.2867 0.6503
C24_14 C 0.38045(12) 0.29368(8) 0.7602(4)
H16_14 H 0.4053 0.2919 0.7445
C25_14 C 0.37058(13) 0.30306(9) 0.8632(4)
H17_14 H 0.3885 0.3079 0.9152
H28_14 H 0.3283 0.3574 0.9778
O4_14 O 0.47567(8) 0.34565(6) 0.9536(3)
O6_14 O 0.53456(8) 0.26277(6) 0.8737(2)
C31_15 C 0.86205(13) 0.67573(9) 0.2826(5)
H22_15 H 0.8409 0.6808 0.3214
C32_15 C 0.85887(13) 0.66324(10) 0.1778(4)
H23_15 H 0.8359 0.6598 0.1472
C33_15 C 0.89035(14) 0.65603(9) 0.1194(4)
C34_15 C 0.92436(13) 0.66104(9) 0.1664(4)
H24_15 H 0.9454 0.6560 0.1273
C35_15 C 0.92748(13) 0.67350(8) 0.2711(4)
H25_15 H 0.9505 0.6770 0.3017
H34_15 H 0.8904 0.6030 0.0253
C41_15 C 0.88520(12) 0.64403(10) 0.0061(4)
N7_15 N 0.89576(10) 0.68084(7) 0.3305(3)
C1_15 C 0.77343(12) 0.60142(9) 0.6035(4)
C2_15 C 0.77485(11) 0.58571(9) 0.5052(4)
H1_15 H 0.7756 0.5668 0.5097
C3_15 C 0.77511(11) 0.59858(8) 0.4013(4)
C4_15 C 0.77343(11) 0.62717(8) 0.3944(4)
H2_15 H 0.7733 0.6357 0.3244
C5_15 C 0.77202(11) 0.64249(8) 0.4925(4)
C6_15 C 0.77210(12) 0.62961(9) 0.5970(4)
H3_15 H 0.7712 0.6399 0.6628
C7_15 C 0.77293(11) 0.58726(8) 0.7162(4)
C8_15 C 0.76105(12) 0.54541(9) 0.8230(4)
H4_15 H 0.7592 0.5577 0.8868
H5_11 H 0.7399 0.5334 0.8249
C9_15 C 0.79495(11) 0.52865(8) 0.8357(4)
C10_15 C 0.77251(12) 0.58305(9) 0.2932(4)
C11_15 C 0.76404(11) 0.53764(9) 0.1976(4)
H6_15 H 0.7724 0.5464 0.1289
H7_15 H 0.7776 0.5208 0.2068
C12_15 C 0.72293(12) 0.53122(8) 0.1872(4)
C13_15 C 0.77153(12) 0.67329(9) 0.4787(4)
C14_15 C 0.77657(12) 0.71589(9) 0.5344(4)
H8_15 H 0.7663 0.7278 0.5917
H9_15 H 0.7632 0.7192 0.4649
C15_15 C 0.81563(10) 0.72380(7) 0.5162(4)
C16_15 C 0.92794(11) 0.55098(9) 0.6274(4)
H10_15 H 0.9459 0.5401 0.6602
C17_15 C 0.93757(11) 0.56934(8) 0.5442(4)
H11_15 H 0.9621 0.5706 0.5235
C18_15 C 0.91355(10) 0.58523(8) 0.4924(3)
C19_15 C 0.87815(12) 0.58304(9) 0.5252(4)
H12_15 H 0.8601 0.5932 0.4890
C20_15 C 0.86875(11) 0.56561(8) 0.6128(3)
H13_15 H 0.8447 0.5657 0.6387
C21_15 C 0.91584(12) 0.55545(8) 0.1414(4)
C22_15 C 0.93970(12) 0.55124(8) 0.0567(4)
H14_15 H 0.9644 0.5551 0.0662
C24_15 C 0.86955(12) 0.54368(8) 0.0102(4)
C25_15 C 0.87942(13) 0.55306(9) 0.1132(4)
H17_15 H 0.8615 0.5579 0.1652
C26_15 C 0.86374(13) 0.66004(8) 0.6432(4)
H18_15 H 0.8416 0.6678 0.6214
C27_15 C 0.86276(12) 0.63994(8) 0.7189(4)
H19_15 H 0.8403 0.6330 0.7423
C28_15 C 0.89477(12) 0.62948(8) 0.7624(4)
C29_15 C 0.92594(11) 0.63967(8) 0.7167(3)
H20_15 H 0.9484 0.6337 0.7439
C30_15 C 0.92524(11) 0.65889(9) 0.6304(4)
H21_15 H 0.9471 0.6641 0.5960
C36_15 C 0.92390(11) 0.60374(8) 0.4020(3)
H26_15 H 0.9128 0.6214 0.4166
H27_15 H 0.9503 0.6061 0.4036
C37_15 C 0.91258(11) 0.59431(8) 0.2825(4)
H28_15 H 0.9217 0.6074 0.2278
H29_15 H 0.8860 0.5943 0.2776
C38_15 C 0.92679(11) 0.56599(8) 0.2511(3)
H30_15 H 0.9186 0.5533 0.3085
H31_15 H 0.9534 0.5664 0.2539
C39_15 C 0.89590(13) 0.60936(8) 0.8560(4)
H32_15 H 0.9151 0.5965 0.8371
H33_15 H 0.8730 0.5994 0.8526
C40_15 C 0.90153(12) 0.61680(9) 0.9778(4)
H35_15 H 0.9276 0.6172 0.9941
H36_15 H 0.8947 0.6570 0.9517
H37_15 H 0.8590 0.6427 0.9932
N1_15 N 0.75980(9) 0.56173(7) 0.7167(3)
H38_15 H 0.7507 0.5548 0.6561
N2_15 N 0.77142(9) 0.55577(7) 0.2954(3)
H39_15 H 0.7545 0.5516 0.3478
N3_15 N 0.77005(9) 0.68660(7) 0.5699(3)
H40_15 H 0.7662 0.6805 0.6369
N4_15 N 0.89277(9) 0.54868(7) 0.6616(3)
N6_15 N 0.89438(9) 0.66971(7) 0.5970(3)
O1_15 O 0.78346(8) 0.59962(6) 0.7969(2)
O2_15 O 0.82365(8) 0.53489(6) 0.7827(3)
O3_15 O 0.79346(7) 0.50999(6) 0.9072(2)
O4_15 O 0.77433(8) 0.59565(6) 0.2036(3)
O6_15 O 0.71544(8) 0.51277(6) 0.1237(2)
O7_15 O 0.77370(8) 0.68163(6) 0.3800(3)
O8_15 O 0.83890(7) 0.70599(5) 0.4978(3)
N8_15 N 0.89242(10) 0.53713(7) 0.9332(3)
C23_15 C 0.92697(12) 0.54105(8) 0.9557(4)
H15_15 H 0.9441 0.5367 0.9003
H16_15 H 0.8447 0.5419 0.9945
C31_16 C 0.63795(13) 0.82427(9) 0.2826(5)
H22_16 H 0.6591 0.8192 0.3214
C32_16 C 0.64113(13) 0.83676(10) 0.1778(4)
H23_16 H 0.6641 0.8402 0.1472
C33_16 C 0.60965(14) 0.84397(9) 0.1194(4)
C34_16 C 0.57564(13) 0.83896(9) 0.1664(4)
H24_16 H 0.5546 0.8440 0.1273
C35_16 C 0.57252(13) 0.82650(8) 0.2711(4)
H25_16 H 0.5495 0.8230 0.3017
H34_16 H 0.6096 0.8970 0.0253
C41_16 C 0.61480(12) 0.85597(10) 0.0061(4)
N7_16 N 0.60424(10) 0.81916(7) 0.3305(3)
C1_16 C 0.72657(12) 0.89858(9) 0.6035(4)
C2_16 C 0.72515(11) 0.91429(9) 0.5052(4)
H1_16 H 0.7244 0.9332 0.5097
C3_16 C 0.72489(11) 0.90142(8) 0.4013(4)
C4_16 C 0.72657(11) 0.87283(8) 0.3944(4)
H2_16 H 0.7267 0.8643 0.3244
C5_16 C 0.72798(11) 0.85751(8) 0.4925(4)
C6_16 C 0.72790(12) 0.87039(9) 0.5970(4)
H3_16 H 0.7288 0.8601 0.6628
C7_16 C 0.72707(11) 0.91274(8) 0.7162(4)
C8_16 C 0.73895(12) 0.95459(9) 0.8230(4)
H4_16 H 0.7408 0.9423 0.8868
H5_12 H 0.7601 0.9666 0.8249
C9_16 C 0.70505(11) 0.97135(8) 0.8357(4)
C10_16 C 0.72749(12) 0.91695(9) 0.2932(4)
C11_16 C 0.73596(11) 0.96236(9) 0.1976(4)
H6_16 H 0.7276 0.9536 0.1289
H7_16 H 0.7224 0.9792 0.2068
C12_16 C 0.77707(12) 0.96878(8) 0.1872(4)
C13_16 C 0.72847(12) 0.82671(9) 0.4787(4)
C14_16 C 0.72343(12) 0.78411(9) 0.5344(4)
H8_16 H 0.7337 0.7722 0.5917
H9_16 H 0.7368 0.7808 0.4649
C15_16 C 0.68437(10) 0.77620(7) 0.5162(4)
C16_16 C 0.57206(11) 0.94902(9) 0.6274(4)
H10_16 H 0.5541 0.9599 0.6602
C17_16 C 0.56243(11) 0.93066(8) 0.5442(4)
H11_16 H 0.5379 0.9294 0.5235
C18_16 C 0.58645(10) 0.91477(8) 0.4924(3)
C19_16 C 0.62185(12) 0.91696(9) 0.5252(4)
H12_16 H 0.6399 0.9068 0.4890
C20_16 C 0.63125(11) 0.93439(8) 0.6128(3)
H13_16 H 0.6553 0.9343 0.6387
C21_16 C 0.58416(12) 0.94455(8) 0.1414(4)
C22_16 C 0.56030(12) 0.94876(8) 0.0567(4)
H14_16 H 0.5356 0.9449 0.0662
C24_16 C 0.63045(12) 0.95632(8) 0.0102(4)
C25_16 C 0.62058(13) 0.94694(9) 0.1132(4)
H17_16 H 0.6385 0.9421 0.1652
C26_16 C 0.63626(13) 0.83996(8) 0.6432(4)
H18_16 H 0.6584 0.8322 0.6214
C27_16 C 0.63724(12) 0.86006(8) 0.7189(4)
H19_16 H 0.6597 0.8670 0.7423
C28_16 C 0.60523(12) 0.87052(8) 0.7624(4)
C29_16 C 0.57406(11) 0.86033(8) 0.7167(3)
H20_16 H 0.5516 0.8663 0.7439
C30_16 C 0.57476(11) 0.84111(9) 0.6304(4)
H21_16 H 0.5529 0.8359 0.5960
C36_16 C 0.57610(11) 0.89626(8) 0.4020(3)
H26_16 H 0.5872 0.8786 0.4166
H27_16 H 0.5497 0.8939 0.4036
C37_16 C 0.58742(11) 0.90569(8) 0.2825(4)
H28_16 H 0.5783 0.8926 0.2278
H29_16 H 0.6140 0.9057 0.2776
C38_16 C 0.57321(11) 0.93401(8) 0.2511(3)
H30_16 H 0.5814 0.9467 0.3085
H31_16 H 0.5466 0.9336 0.2539
C39_16 C 0.60410(13) 0.89064(8) 0.8560(4)
H32_16 H 0.5849 0.9035 0.8371
H33_16 H 0.6270 0.9006 0.8526
C40_16 C 0.59847(12) 0.88320(9) 0.9778(4)
H35_16 H 0.5724 0.8828 0.9941
H36_16 H 0.6053 0.8430 0.9517
H37_16 H 0.6410 0.8573 0.9932
N1_16 N 0.74020(9) 0.93827(7) 0.7167(3)
H38_16 H 0.7493 0.9452 0.6561
N2_16 N 0.72858(9) 0.94423(7) 0.2954(3)
H39_16 H 0.7455 0.9484 0.3478
N3_16 N 0.72995(9) 0.81340(7) 0.5699(3)
H40_16 H 0.7338 0.8195 0.6369
N4_16 N 0.60723(9) 0.95132(7) 0.6616(3)
N6_16 N 0.60562(9) 0.83029(7) 0.5970(3)
O1_16 O 0.71654(8) 0.90038(6) 0.7969(2)
O2_16 O 0.67635(8) 0.96511(6) 0.7827(3)
O3_16 O 0.70654(7) 0.99001(6) 0.9072(2)
O4_16 O 0.72567(8) 0.90435(6) 0.2036(3)
O6_16 O 0.78456(8) 0.98723(6) 0.1237(2)
O7_16 O 0.72630(8) 0.81837(6) 0.3800(3)
O8_16 O 0.66110(7) 0.79401(5) 0.4978(3)
N8_16 N 0.60758(10) 0.96287(7) 0.9332(3)
C23_16 C 0.57303(12) 0.95895(8) 0.9557(4)
H15_16 H 0.5559 0.9633 0.9003
H16_16 H 0.6553 0.9581 0.9945
H5_13 H 0.9899 0.2166 0.5749
H5_14 H 0.0101 0.7834 0.5749
H5_15 H 0.9899 0.7166 0.0749
H5_16 H 0.0101 0.2834 0.0749
N10 N 0.09358(10) 0.24732(7) 0.0778(3)
O16 O 0.06939(9) 0.24433(6) 0.1536(3)
O17 O 0.12582(9) 0.24090(6) 0.0980(3)
O18 O 0.08531(9) 0.25767(7) 0.9864(3)
N10_2 N 0.90642(10) 0.75268(7) 0.0778(3)
O16_2 O 0.93061(9) 0.75567(6) 0.1536(3)
O17_2 O 0.87418(9) 0.75910(6) 0.0980(3)
O18_2 O 0.91469(9) 0.74233(7) 0.9864(3)
N10_3 N 0.34358(10) 0.00268(7) 0.3278(3)
O16_3 O 0.31939(9) 0.00567(6) 0.4036(3)
O17_3 O 0.37582(9) 0.00910(6) 0.3480(3)
O18_3 O 0.33531(9) 0.99233(7) 0.2364(3)
N10_4 N 0.15642(10) 0.49732(7) 0.3278(3)
O16_4 O 0.18061(9) 0.49433(6) 0.4036(3)
O17_4 O 0.12418(9) 0.49090(6) 0.3480(3)
O18_4 O 0.16469(9) 0.50767(7) 0.2364(3)
N10_5 N 0.09358(10) 0.74732(7) 0.5778(3)
O16_5 O 0.06939(9) 0.74433(6) 0.6536(3)
O17_5 O 0.12582(9) 0.74090(6) 0.5980(3)
O18_5 O 0.08531(9) 0.75767(7) 0.4864(3)
N10_6 N 0.90642(10) 0.25268(7) 0.5778(3)
O16_6 O 0.93061(9) 0.25567(6) 0.6536(3)
O17_6 O 0.87418(9) 0.25910(6) 0.5980(3)
O18_6 O 0.91469(9) 0.24233(7) 0.4864(3)
N10_7 N 0.34358(10) 0.50268(7) 0.8278(3)
O16_7 O 0.31939(9) 0.50567(6) 0.9036(3)
O17_7 O 0.37582(9) 0.50910(6) 0.8480(3)
O18_7 O 0.33531(9) 0.49233(7) 0.7364(3)
O18_8 O 0.16469(9) 0.00767(7) 0.7364(3)
N10_8 N 0.15642(10) 0.99732(7) 0.8278(3)
O16_8 O 0.18061(9) 0.99433(6) 0.9036(3)
O17_8 O 0.12418(9) 0.99090(6) 0.8480(3)
N10_9 N 0.59358(10) 0.24732(7) 0.5778(3)
O16_9 O 0.56939(9) 0.24433(6) 0.6536(3)
O17_9 O 0.62582(9) 0.24090(6) 0.5980(3)
O18_9 O 0.58531(9) 0.25767(7) 0.4864(3)
N10_10 N 0.40642(10) 0.75268(7) 0.5778(3)
O16_10 O 0.43061(9) 0.75567(6) 0.6536(3)
O17_10 O 0.37418(9) 0.75910(6) 0.5980(3)
O18_10 O 0.41469(9) 0.74233(7) 0.4864(3)
N10_11 N 0.84358(10) 0.00268(7) 0.8278(3)
O16_11 O 0.81939(9) 0.00567(6) 0.9036(3)
O17_11 O 0.87582(9) 0.00910(6) 0.8480(3)
O18_11 O 0.83531(9) 0.99233(7) 0.7364(3)
N10_12 N 0.65642(10) 0.49732(7) 0.8278(3)
O16_12 O 0.68061(9) 0.49433(6) 0.9036(3)
O17_12 O 0.62418(9) 0.49090(6) 0.8480(3)
O18_12 O 0.66469(9) 0.50767(7) 0.7364(3)
N10_13 N 0.59358(10) 0.74732(7) 0.0778(3)
O16_13 O 0.56939(9) 0.74433(6) 0.1536(3)
O17_13 O 0.62582(9) 0.74090(6) 0.0980(3)
O18_13 O 0.58531(9) 0.75767(7) 0.9864(3)
N10_14 N 0.40642(10) 0.25268(7) 0.0778(3)
O16_14 O 0.43061(9) 0.25567(6) 0.1536(3)
O17_14 O 0.37418(9) 0.25910(6) 0.0980(3)
O18_14 O 0.41469(9) 0.24233(7) 0.9864(3)
N10_15 N 0.84358(10) 0.50268(7) 0.3278(3)
O16_15 O 0.81939(9) 0.50567(6) 0.4036(3)
O17_15 O 0.87582(9) 0.50910(6) 0.3480(3)
O18_15 O 0.83531(9) 0.49233(7) 0.2364(3)
O18_16 O 0.66469(9) 0.00767(7) 0.2364(3)
N10_16 N 0.65642(10) 0.99732(7) 0.3278(3)
O16_16 O 0.68061(9) 0.99433(6) 0.4036(3)
O17_16 O 0.62418(9) 0.99090(6) 0.3480(3)
loop_
_geom_bond_atom_site_label_1
_geom_bond_atom_site_label_2
_geom_bond_site_symmetry_1
_geom_bond_site_symmetry_2
C31 H22 1_555 1_555
H25 C35 1_555 1_555
N7 C31 1_555 1_555
Co5 N7 1_555 1_555
C35 N7 1_555 1_555
C1 C2 1_555 1_555
C2 H1 1_555 1_555
C3 C2 1_555 1_555
C4 C3 1_555 1_555
H2 C4 1_555 1_555
C5 C4 1_555 1_555
C6 C1 1_555 1_555
H3 C6 1_555 1_555
C7 C1 1_555 1_555
C8 H4 1_555 1_555
C9 C8 1_555 1_555
C10 C3 1_555 1_555
C13 C5 1_555 1_555
C14 H8 1_555 1_555
H9 C14 1_555 1_555
C15 C14 1_555 1_555
C16 H10 1_555 1_555
C17 C16 1_555 1_555
H11 C17 1_555 1_555
C18 C17 1_555 1_555
C19 C18 1_555 1_555
H12 C19 1_555 1_555
C20 C19 1_555 1_555
H13 C20 1_555 1_555
C26 H18 1_555 1_555
C27 C26 1_555 1_555
H19 C27 1_555 1_555
C28 C27 1_555 1_555
C29 C28 1_555 1_555
H20 C29 1_555 1_555
C30 C29 1_555 1_555
H21 C30 1_555 1_555
H23 C32 1_555 1_555
C33 C32 1_555 1_555
C34 C33 1_555 1_555
H24 C34 1_555 1_555
C36 C18 1_555 1_555
H26 C36 1_555 1_555
H27 C36 1_555 1_555
C37 C36 1_555 1_555
H29 C37 1_555 1_555
H30 C38 1_555 1_555
H31 C38 1_555 1_555
C39 C28 1_555 1_555
H32 C39 1_555 1_555
H33 C39 1_555 1_555
C40 C39 1_555 1_555
H34 C40 1_555 1_555
H35 C40 1_555 1_555
C41 C33 1_555 1_555
H36 C41 1_555 1_555
H37 C41 1_555 1_555
Co1 N4 1_555 1_555
Co5 N6 1_555 1_555
N1 C7 1_555 1_555
H38 N1 1_555 1_555
N2 C10 1_555 1_555
H39 N2 1_555 1_555
N3 C13 1_555 1_555
H40 N3 1_555 1_555
N4 C16 1_555 1_555
N6 C26 1_555 1_555
O1 C7 1_555 1_555
O2 C9 1_555 1_555
O3 C9 1_555 1_555
O7 C13 1_555 1_555
O8 C15 1_555 1_555
O9 C15 1_555 1_555
O10 Co1 1_555 1_555
H41 O10 1_555 1_555
H42 O10 1_555 1_555
O11 Co1 1_555 1_555
H43 O11 1_555 1_555
H44 O11 1_555 1_555
Co7 O10 1_555 1_555
N8 Co1 1_555 1_555
O12 Co5 1_555 1_555
O13 Co1 1_555 1_555
O14 Co5 1_555 1_555
H45 O14 1_555 1_555
H46 O14 1_555 1_555
O15 Co5 1_555 1_555
H47 O15 1_555 1_555
H48 O15 1_555 1_555
C5 C6 1_555 1_555
C8 N1 1_555 1_555
C14 N3 1_555 1_555
C20 N4 1_555 1_555
C30 N6 1_555 1_555
C37 C38 1_555 1_555
C40 C41 1_555 1_555
Co1 O2 1_555 1_555
Co5 O8 1_555 1_555
O11 Co7 1_555 1_555
C11 H6 1_555 1_555
H7 C11 1_555 1_555
C21 C22 1_555 1_555
C22 H14 1_555 1_555
C23 C22 1_555 1_555
H15 C23 1_555 1_555
C24 H16 1_555 1_555
C25 C21 1_555 1_555
H17 C25 1_555 1_555
N8 C23 1_555 1_555
C24 C25 1_555 1_555
C24 N8 1_555 1_555
O5 C12 1_555 1_555
O6 C12 1_555 1_555
Co6 O5 1_555 1_555
O5_2 C12_2 1_555 1_555
O6_2 C12_2 1_555 1_555
Co6_2 O5_2 1_555 1_555
C31_2 H22_2 1_555 1_555
H25_2 C35_2 1_555 1_555
N7_2 C31_2 1_555 1_555
Co5_2 N7_2 1_555 1_555
C35_2 N7_2 1_555 1_555
C1_2 C2_2 1_555 1_555
C2_2 H1_2 1_555 1_555
C3_2 C2_2 1_555 1_555
C4_2 C3_2 1_555 1_555
H2_2 C4_2 1_555 1_555
C5_2 C4_2 1_555 1_555
C6_2 C1_2 1_555 1_555
H3_2 C6_2 1_555 1_555
C7_2 C1_2 1_555 1_555
C8_2 H4_2 1_555 1_555
C9_2 C8_2 1_555 1_555
C10_2 C3_2 1_555 1_555
C13_2 C5_2 1_555 1_555
C14_2 H8_2 1_555 1_555
H9_2 C14_2 1_555 1_555
C15_2 C14_2 1_555 1_555
C16_2 H10_2 1_555 1_555
C17_2 C16_2 1_555 1_555
H11_2 C17_2 1_555 1_555
C18_2 C17_2 1_555 1_555
C19_2 C18_2 1_555 1_555
H12_2 C19_2 1_555 1_555
C20_2 C19_2 1_555 1_555
H13_2 C20_2 1_555 1_555
C26_2 H18_2 1_555 1_555
C27_2 C26_2 1_555 1_555
H19_2 C27_2 1_555 1_555
C28_2 C27_2 1_555 1_555
C29_2 C28_2 1_555 1_555
H20_2 C29_2 1_555 1_555
C30_2 C29_2 1_555 1_555
H21_2 C30_2 1_555 1_555
H23_2 C32_2 1_555 1_555
C33_2 C32_2 1_555 1_555
C34_2 C33_2 1_555 1_555
H24_2 C34_2 1_555 1_555
C36_2 C18_2 1_555 1_555
H26_2 C36_2 1_555 1_555
H27_2 C36_2 1_555 1_555
C37_2 C36_2 1_555 1_555
H29_2 C37_2 1_555 1_555
H30_2 C38_2 1_555 1_555
H31_2 C38_2 1_555 1_555
C39_2 C28_2 1_555 1_555
H32_2 C39_2 1_555 1_555
H33_2 C39_2 1_555 1_555
C40_2 C39_2 1_555 1_555
H34_2 C40_2 1_555 1_555
H35_2 C40_2 1_555 1_555
C41_2 C33_2 1_555 1_555
H36_2 C41_2 1_555 1_555
H37_2 C41_2 1_555 1_555
Co1_2 N4_2 1_555 1_555
Co5_2 N6_2 1_555 1_555
N1_2 C7_2 1_555 1_555
H38_2 N1_2 1_555 1_555
N2_2 C10_2 1_555 1_555
H39_2 N2_2 1_555 1_555
N3_2 C13_2 1_555 1_555
H40_2 N3_2 1_555 1_555
N4_2 C16_2 1_555 1_555
N6_2 C26_2 1_555 1_555
O1_2 C7_2 1_555 1_555
O2_2 C9_2 1_555 1_555
O3_2 C9_2 1_555 1_555
O7_2 C13_2 1_555 1_555
O8_2 C15_2 1_555 1_555
O9_2 C15_2 1_555 1_555
O10_2 Co1_2 1_555 1_555
H41_2 O10_2 1_555 1_555
H42_2 O10_2 1_555 1_555
O11_2 Co1_2 1_555 1_555
H43_2 O11_2 1_555 1_555
H44_2 O11_2 1_555 1_555
Co7_2 O10_2 1_555 1_555
N8_2 Co1_2 1_555 1_555
O12_2 Co5_2 1_555 1_555
O13_2 Co1_2 1_555 1_555
O14_2 Co5_2 1_555 1_555
H45_2 O14_2 1_555 1_555
H46_2 O14_2 1_555 1_555
O15_2 Co5_2 1_555 1_555
H47_2 O15_2 1_555 1_555
H48_2 O15_2 1_555 1_555
C5_2 C6_2 1_555 1_555
C8_2 N1_2 1_555 1_555
C14_2 N3_2 1_555 1_555
C20_2 N4_2 1_555 1_555
C30_2 N6_2 1_555 1_555
C37_2 C38_2 1_555 1_555
C40_2 C41_2 1_555 1_555
Co1_2 O2_2 1_555 1_555
Co5_2 O8_2 1_555 1_555
O11_2 Co7_2 1_555 1_555
C11_2 H6_2 1_555 1_555
H7_2 C11_2 1_555 1_555
C21_2 C22_2 1_555 1_555
C22_2 H14_2 1_555 1_555
C23_2 C22_2 1_555 1_555
H15_2 C23_2 1_555 1_555
C24_2 H16_2 1_555 1_555
C25_2 C21_2 1_555 1_555
H17_2 C25_2 1_555 1_555
N8_2 C23_2 1_555 1_555
C24_2 C25_2 1_555 1_555
C24_2 N8_2 1_555 1_555
C31_3 H22_3 1_555 1_555
C32_3 C31_3 1_555 1_555
H23_3 C32_3 1_555 1_555
C33_3 C32_3 1_555 1_555
C34_3 C33_3 1_555 1_555
H24_3 C34_3 1_555 1_555
C35_3 C34_3 1_555 1_555
H25_3 C35_3 1_555 1_555
C41_3 C33_3 1_555 1_555
N7_3 C31_3 1_555 1_555
Co5_3 N7_3 1_555 1_555
C35_3 N7_3 1_555 1_555
C1_3 C2_3 1_555 1_555
C2_3 H1_3 1_555 1_555
C3_3 C2_3 1_555 1_555
C4_3 C3_3 1_555 1_555
H2_3 C4_3 1_555 1_555
C5_3 C4_3 1_555 1_555
C6_3 C1_3 1_555 1_555
H3_3 C6_3 1_555 1_555
C7_3 C1_3 1_555 1_555
C8_3 H4_3 1_555 1_555
H5 C8_3 1_555 1_555
C9_3 C8_3 1_555 1_555
C10_3 C3_3 1_555 1_555
C11_3 H6_3 1_555 1_555
H7_3 C11_3 1_555 1_555
C12_3 C11_3 1_555 1_555
C13_3 C5_3 1_555 1_555
C14_3 H8_3 1_555 1_555
H9_3 C14_3 1_555 1_555
C15_3 C14_3 1_555 1_555
C16_3 H10_3 1_555 1_555
C17_3 C16_3 1_555 1_555
H11_3 C17_3 1_555 1_555
C18_3 C17_3 1_555 1_555
C19_3 C18_3 1_555 1_555
H12_3 C19_3 1_555 1_555
C20_3 C19_3 1_555 1_555
H13_3 C20_3 1_555 1_555
C21_3 C22_3 1_555 1_555
C22_3 H14_3 1_555 1_555
C25_3 C21_3 1_555 1_555
H17_3 C25_3 1_555 1_555
C26_3 H18_3 1_555 1_555
C27_3 C26_3 1_555 1_555
H19_3 C27_3 1_555 1_555
C28_3 C27_3 1_555 1_555
C29_3 C28_3 1_555 1_555
H20_3 C29_3 1_555 1_555
C30_3 C29_3 1_555 1_555
H21_3 C30_3 1_555 1_555
C36_3 C18_3 1_555 1_555
H26_3 C36_3 1_555 1_555
H27_3 C36_3 1_555 1_555
C37_3 C36_3 1_555 1_555
H28_3 C37_3 1_555 1_555
H29_3 C37_3 1_555 1_555
C38_3 C21_3 1_555 1_555
H30_3 C38_3 1_555 1_555
H31_3 C38_3 1_555 1_555
C39_3 C28_3 1_555 1_555
H32_3 C39_3 1_555 1_555
H33_3 C39_3 1_555 1_555
C40_3 C39_3 1_555 1_555
H35_3 C40_3 1_555 1_555
Co1_3 N4_3 1_555 1_555
Co5_3 N6_3 1_555 1_555
N1_3 C7_3 1_555 1_555
H38_3 N1_3 1_555 1_555
N2_3 C10_3 1_555 1_555
H39_3 N2_3 1_555 1_555
N3_3 C13_3 1_555 1_555
H40_3 N3_3 1_555 1_555
N4_3 C16_3 1_555 1_555
N6_3 C26_3 1_555 1_555
O1_3 C7_3 1_555 1_555
O2_3 C9_3 1_555 1_555
O3_3 C9_3 1_555 1_555
O4_3 C10_3 1_555 1_555
O12 C12_3 1_555 1_555
O6_3 C12_3 1_555 1_555
O7_3 C13_3 1_555 1_555
O8_3 C15_3 1_555 1_555
O9_3 C15_3 1_555 1_555
Co4_3 O9_3 1_555 1_555
N8_3 Co1_3 1_555 1_555
O12_3 Co5_3 1_555 1_555
O14_3 Co5_3 1_555 1_555
H45_3 O14_3 1_555 1_555
H46_3 O14_3 1_555 1_555
O15_3 Co5_3 1_555 1_555
H47_3 O15_3 1_555 1_555
H48_3 O15_3 1_555 1_555
C5_3 C6_3 1_555 1_555
C8_3 N1_3 1_555 1_555
C11_3 N2_3 1_555 1_555
C14_3 N3_3 1_555 1_555
C20_3 N4_3 1_555 1_555
C24_3 C25_3 1_555 1_555
C30_3 N6_3 1_555 1_555
C37_3 C38_3 1_555 1_555
Co1_3 O2_3 1_555 1_555
Co5_3 O8_3 1_555 1_555
Co4_3 O14_3 1_555 1_555
Co4_3 O15_3 1_555 1_555
H15_3 C23_3 1_555 1_555
N8_3 C23_3 1_555 1_555
H41_3 O10_3 1_555 1_555
H42_3 O10_3 1_555 1_555
H43_3 O11_3 1_555 1_555
H44_3 O11_3 1_555 1_555
Co7_3 O10_3 1_555 1_555
O11_3 Co7_3 1_555 1_555
C31_4 H22_4 1_555 1_555
C32_4 C31_4 1_555 1_555
H23_4 C32_4 1_555 1_555
C33_4 C32_4 1_555 1_555
C34_4 C33_4 1_555 1_555
H24_4 C34_4 1_555 1_555
C35_4 C34_4 1_555 1_555
H25_4 C35_4 1_555 1_555
C41_4 C33_4 1_555 1_555
N7_4 C31_4 1_555 1_555
Co7 N7_4 1_555 1_555
C35_4 N7_4 1_555 1_555
C1_4 C2_4 1_555 1_555
C2_4 H1_4 1_555 1_555
C3_4 C2_4 1_555 1_555
C4_4 C3_4 1_555 1_555
H2_4 C4_4 1_555 1_555
C5_4 C4_4 1_555 1_555
C6_4 C1_4 1_555 1_555
H3_4 C6_4 1_555 1_555
C7_4 C1_4 1_555 1_555
C8_4 H4_4 1_555 1_555
H5_2 C8_4 1_555 1_555
C9_4 C8_4 1_555 1_555
C10_4 C3_4 1_555 1_555
C11_4 H6_4 1_555 1_555
H7_4 C11_4 1_555 1_555
C12_4 C11_4 1_555 1_555
C13_4 C5_4 1_555 1_555
C14_4 H8_4 1_555 1_555
H9_4 C14_4 1_555 1_555
C15_4 C14_4 1_555 1_555
C16_4 H10_4 1_555 1_555
C17_4 C16_4 1_555 1_555
H11_4 C17_4 1_555 1_555
C18_4 C17_4 1_555 1_555
C19_4 C18_4 1_555 1_555
H12_4 C19_4 1_555 1_555
C20_4 C19_4 1_555 1_555
H13_4 C20_4 1_555 1_555
C21_4 C22_4 1_555 1_555
C22_4 H14_4 1_555 1_555
C25_4 C21_4 1_555 1_555
H17_4 C25_4 1_555 1_555
C26_4 H18_4 1_555 1_555
C27_4 C26_4 1_555 1_555
H19_4 C27_4 1_555 1_555
C28_4 C27_4 1_555 1_555
C29_4 C28_4 1_555 1_555
H20_4 C29_4 1_555 1_555
C30_4 C29_4 1_555 1_555
H21_4 C30_4 1_555 1_555
C36_4 C18_4 1_555 1_555
H26_4 C36_4 1_555 1_555
H27_4 C36_4 1_555 1_555
C37_4 C36_4 1_555 1_555
H28_4 C37_4 1_555 1_555
H29_4 C37_4 1_555 1_555
C38_4 C21_4 1_555 1_555
H30_4 C38_4 1_555 1_555
H31_4 C38_4 1_555 1_555
C39_4 C28_4 1_555 1_555
H32_4 C39_4 1_555 1_555
H33_4 C39_4 1_555 1_555
C40_4 C39_4 1_555 1_555
H35_4 C40_4 1_555 1_555
Co1_4 N4_4 1_555 1_555
Co7 N6_4 1_555 1_555
N1_4 C7_4 1_555 1_555
H38_4 N1_4 1_555 1_555
N2_4 C10_4 1_555 1_555
H39_4 N2_4 1_555 1_555
N3_4 C13_4 1_555 1_555
H40_4 N3_4 1_555 1_555
N4_4 C16_4 1_555 1_555
N6_4 C26_4 1_555 1_555
O1_4 C7_4 1_555 1_555
O2_4 C9_4 1_555 1_555
O3_4 C9_4 1_555 1_555
O4_4 C10_4 1_555 1_555
O5_3 C12_4 1_555 1_555
O6_4 C12_4 1_555 1_555
O7_4 C13_4 1_555 1_555
O8_4 C15_4 1_555 1_555
O13 C15_4 1_555 1_555
O10_4 Co1_4 1_555 1_555
H41_4 O10_4 1_555 1_555
H42_4 O10_4 1_555 1_555
O11_4 Co1_4 1_555 1_555
H43_4 O11_4 1_555 1_555
H44_4 O11_4 1_555 1_555
Co6_3 O5_3 1_555 1_555
Co7_4 O10_4 1_555 1_555
N8_4 Co1_4 1_555 1_555
O12_4 Co7 1_555 1_555
O13_4 Co1_4 1_555 1_555
C5_4 C6_4 1_555 1_555
C8_4 N1_4 1_555 1_555
C11_4 N2_4 1_555 1_555
C14_4 N3_4 1_555 1_555
C20_4 N4_4 1_555 1_555
C24_4 C25_4 1_555 1_555
C30_4 N6_4 1_555 1_555
C37_4 C38_4 1_555 1_555
Co1_4 O2_4 1_555 1_555
Co7 O8_4 1_555 1_555
O11_4 Co7_4 1_555 1_555
H15_4 C23_4 1_555 1_555
N8_4 C23_4 1_555 1_555
C8_5 H4_5 1_555 1_555
C9_5 C8_5 1_555 1_555
C31_5 H22_5 1_555 1_555
C32_5 C31_5 1_555 1_555
H23_5 C32_5 1_555 1_555
C33_5 C32_5 1_555 1_555
C34_5 C33_5 1_555 1_555
H24_5 C34_5 1_555 1_555
C35_5 C34_5 1_555 1_555
H25_5 C35_5 1_555 1_555
C39_5 C28_5 1_555 1_555
H32_5 C39_5 1_555 1_555
H33_5 C39_5 1_555 1_555
C40_5 C39_5 1_555 1_555
H34_5 C40_5 1_555 1_555
H35_5 C40_5 1_555 1_555
C41_5 C33_5 1_555 1_555
H36_5 C41_5 1_555 1_555
H37_5 C41_5 1_555 1_555
N7_5 C31_5 1_555 1_555
O2_5 C9_5 1_555 1_555
O3_5 C9_5 1_555 1_555
O11_5 Co1_5 1_555 1_555
H43_5 O11_5 1_555 1_555
H44_5 O11_5 1_555 1_555
Co7_4 N7_5 1_555 1_555
N8_5 Co1_5 1_555 1_555
O13_5 Co1_5 1_555 1_555
C35_5 N7_5 1_555 1_555
C40_5 C41_5 1_555 1_555
Co1_5 O2_5 1_555 1_555
C1_5 C2_5 1_555 1_555
C2_5 H1_5 1_555 1_555
C3_5 C2_5 1_555 1_555
C4_5 C3_5 1_555 1_555
H2_5 C4_5 1_555 1_555
C5_5 C4_5 1_555 1_555
C6_5 C1_5 1_555 1_555
H3_5 C6_5 1_555 1_555
C7_5 C1_5 1_555 1_555
C10_5 C3_5 1_555 1_555
C11_5 H6_5 1_555 1_555
H7_5 C11_5 1_555 1_555
C13_5 C5_5 1_555 1_555
C14_5 H8_5 1_555 1_555
H9_5 C14_5 1_555 1_555
C15_5 C14_5 1_555 1_555
C16_5 H10_5 1_555 1_555
C17_5 C16_5 1_555 1_555
H11_5 C17_5 1_555 1_555
C18_5 C17_5 1_555 1_555
C19_5 C18_5 1_555 1_555
H12_5 C19_5 1_555 1_555
C20_5 C19_5 1_555 1_555
H13_5 C20_5 1_555 1_555
C21_5 C22_5 1_555 1_555
C22_5 H14_5 1_555 1_555
C23_5 C22_5 1_555 1_555
H15_5 C23_5 1_555 1_555
C24_5 H16_5 1_555 1_555
C25_5 C21_5 1_555 1_555
H17_5 C25_5 1_555 1_555
C26_5 H18_5 1_555 1_555
C27_5 C26_5 1_555 1_555
H19_5 C27_5 1_555 1_555
H20_5 C29_5 1_555 1_555
C30_5 C29_5 1_555 1_555
H21_5 C30_5 1_555 1_555
C36_5 C18_5 1_555 1_555
H26_5 C36_5 1_555 1_555
H27_5 C36_5 1_555 1_555
C37_5 C36_5 1_555 1_555
H28_5 C37_5 1_555 1_555
H29_5 C37_5 1_555 1_555
C38_5 C21_5 1_555 1_555
H30_5 C38_5 1_555 1_555
H31_5 C38_5 1_555 1_555
Co7_4 N6_5 1_555 1_555
N1_5 C7_5 1_555 1_555
H38_5 N1_5 1_555 1_555
N2_5 C10_5 1_555 1_555
H39_5 N2_5 1_555 1_555
N3_5 C13_5 1_555 1_555
H40_5 N3_5 1_555 1_555
N4_5 C16_5 1_555 1_555
N8_5 C23_5 1_555 1_555
N6_5 C26_5 1_555 1_555
O4_5 C10_5 1_555 1_555
O7_5 C13_5 1_555 1_555
O8_5 C15_5 1_555 1_555
O13_4 C15_5 1_555 1_555
H41_5 O10_5 1_555 1_555
H42_5 O10_5 1_555 1_555
Co6_2 O10_5 1_555 1_555
O12_5 Co7_4 1_555 1_555
C5_5 C6_5 1_555 1_555
C11_5 N2_5 1_555 1_555
C14_5 N3_5 1_555 1_555
C20_5 N4_5 1_555 1_555
C24_5 C25_5 1_555 1_555
C24_5 N8_5 1_555 1_555
C30_5 N6_5 1_555 1_555
C37_5 C38_5 1_555 1_555
Co7_4 O8_5 1_555 1_555
O5_4 C12_5 1_555 1_555
O6_5 C12_5 1_555 1_555
Co7_2 O5_4 1_555 1_555
O12_4 C12_6 1_555 1_555
O6_6 C12_6 1_555 1_555
C8_6 H4_6 1_555 1_555
C9_6 C8_6 1_555 1_555
C31_6 H22_6 1_555 1_555
C32_6 C31_6 1_555 1_555
H23_6 C32_6 1_555 1_555
C33_6 C32_6 1_555 1_555
C34_6 C33_6 1_555 1_555
H24_6 C34_6 1_555 1_555
C35_6 C34_6 1_555 1_555
H25_6 C35_6 1_555 1_555
C39_6 C28_6 1_555 1_555
H32_6 C39_6 1_555 1_555
H33_6 C39_6 1_555 1_555
C40_6 C39_6 1_555 1_555
H34_6 C40_6 1_555 1_555
H35_6 C40_6 1_555 1_555
C41_6 C33_6 1_555 1_555
H36_6 C41_6 1_555 1_555
H37_6 C41_6 1_555 1_555
N7_6 C31_6 1_555 1_555
O2_6 C9_6 1_555 1_555
O3_6 C9_6 1_555 1_555
O11_6 Co1_6 1_555 1_555
H43_6 O11_6 1_555 1_555
H44_6 O11_6 1_555 1_555
Co5_4 N7_6 1_555 1_555
N8_6 Co1_6 1_555 1_555
O13_6 Co1_6 1_555 1_555
C35_6 N7_6 1_555 1_555
C40_6 C41_6 1_555 1_555
Co1_6 O2_6 1_555 1_555
C1_6 C2_6 1_555 1_555
C2_6 H1_6 1_555 1_555
C3_6 C2_6 1_555 1_555
C4_6 C3_6 1_555 1_555
H2_6 C4_6 1_555 1_555
C5_6 C4_6 1_555 1_555
C6_6 C1_6 1_555 1_555
H3_6 C6_6 1_555 1_555
C7_6 C1_6 1_555 1_555
C10_6 C3_6 1_555 1_555
C11_6 H6_6 1_555 1_555
H7_6 C11_6 1_555 1_555
C13_6 C5_6 1_555 1_555
C14_6 H8_6 1_555 1_555
H9_6 C14_6 1_555 1_555
C15_6 C14_6 1_555 1_555
C16_6 H10_6 1_555 1_555
C17_6 C16_6 1_555 1_555
H11_6 C17_6 1_555 1_555
C18_6 C17_6 1_555 1_555
C19_6 C18_6 1_555 1_555
H12_6 C19_6 1_555 1_555
C20_6 C19_6 1_555 1_555
H13_6 C20_6 1_555 1_555
C21_6 C22_6 1_555 1_555
C22_6 H14_6 1_555 1_555
C23_6 C22_6 1_555 1_555
H15_6 C23_6 1_555 1_555
C24_6 H16_6 1_555 1_555
C25_6 C21_6 1_555 1_555
H17_6 C25_6 1_555 1_555
C26_6 H18_6 1_555 1_555
C27_6 C26_6 1_555 1_555
H19_6 C27_6 1_555 1_555
H20_6 C29_6 1_555 1_555
C30_6 C29_6 1_555 1_555
H21_6 C30_6 1_555 1_555
C36_6 C18_6 1_555 1_555
H26_6 C36_6 1_555 1_555
H27_6 C36_6 1_555 1_555
C37_6 C36_6 1_555 1_555
H28_6 C37_6 1_555 1_555
H29_6 C37_6 1_555 1_555
C38_6 C21_6 1_555 1_555
H30_6 C38_6 1_555 1_555
H31_6 C38_6 1_555 1_555
Co5_4 N6_6 1_555 1_555
N1_6 C7_6 1_555 1_555
H38_6 N1_6 1_555 1_555
N2_6 C10_6 1_555 1_555
H39_6 N2_6 1_555 1_555
N3_6 C13_6 1_555 1_555
H40_6 N3_6 1_555 1_555
N4_6 C16_6 1_555 1_555
N8_6 C23_6 1_555 1_555
N6_6 C26_6 1_555 1_555
O4_6 C10_6 1_555 1_555
O7_6 C13_6 1_555 1_555
O8_6 C15_6 1_555 1_555
O9_4 C15_6 1_555 1_555
H41_6 O10_6 1_555 1_555
H42_6 O10_6 1_555 1_555
Co4_4 O9_4 1_555 1_555
Co6 O10_6 1_555 1_555
O12_6 Co5_4 1_555 1_555
O14_4 Co5_4 1_555 1_555
H45_4 O14_4 1_555 1_555
H46_4 O14_4 1_555 1_555
O15_4 Co5_4 1_555 1_555
H47_4 O15_4 1_555 1_555
H48_4 O15_4 1_555 1_555
C5_6 C6_6 1_555 1_555
C11_6 N2_6 1_555 1_555
C14_6 N3_6 1_555 1_555
C20_6 N4_6 1_555 1_555
C24_6 C25_6 1_555 1_555
C24_6 N8_6 1_555 1_555
C30_6 N6_6 1_555 1_555
C37_6 C38_6 1_555 1_555
Co5_4 O8_6 1_555 1_555
Co4_4 O14_4 1_555 1_555
Co4_4 O15_4 1_555 1_555
C1_7 C2_7 1_555 1_555
C2_7 H1_7 1_555 1_555
C6_7 C1_7 1_555 1_555
H3_7 C6_7 1_555 1_555
C7_7 C1_7 1_555 1_555
C8_7 H4_7 1_555 1_555
H5_3 C8_7 1_555 1_555
C9_7 C8_7 1_555 1_555
C14_7 H8_7 1_555 1_555
C15_7 C14_7 1_555 1_555
C16_7 H10_7 1_555 1_555
C17_7 C16_7 1_555 1_555
H11_7 C17_7 1_555 1_555
C20_7 C19_7 1_555 1_555
H13_7 C20_7 1_555 1_555
C26_7 H18_7 1_555 1_555
C27_7 C26_7 1_555 1_555
H19_7 C27_7 1_555 1_555
C28_7 C27_7 1_555 1_555
C29_7 C28_7 1_555 1_555
H20_7 C29_7 1_555 1_555
C30_7 C29_7 1_555 1_555
H21_7 C30_7 1_555 1_555
C31_7 H22_7 1_555 1_555
C32_7 C31_7 1_555 1_555
H23_7 C32_7 1_555 1_555
C33_7 C32_7 1_555 1_555
C34_7 C33_7 1_555 1_555
H24_7 C34_7 1_555 1_555
C35_7 C34_7 1_555 1_555
H25_7 C35_7 1_555 1_555
C39_7 C28_7 1_555 1_555
H32_7 C39_7 1_555 1_555
H33_7 C39_7 1_555 1_555
C40_7 C39_7 1_555 1_555
H34_7 C40_7 1_555 1_555
H35_7 C40_7 1_555 1_555
C41_7 C33_7 1_555 1_555
H36_7 C41_7 1_555 1_555
H37_7 C41_7 1_555 1_555
Co1_7 N4_7 1_555 1_555
N1_7 C7_7 1_555 1_555
H38_7 N1_7 1_555 1_555
H40_7 N3_7 1_555 1_555
N4_7 C16_7 1_555 1_555
N6_7 C26_7 1_555 1_555
N7_7 C31_7 1_555 1_555
O1_7 C7_7 1_555 1_555
O2_7 C9_7 1_555 1_555
O3_7 C9_7 1_555 1_555
O9_5 C15_7 1_555 1_555
O10_7 Co1_7 1_555 1_555
H41_7 O10_7 1_555 1_555
H42_7 O10_7 1_555 1_555
O11_7 Co1_7 1_555 1_555
H43_7 O11_7 1_555 1_555
H44_7 O11_7 1_555 1_555
Co4_5 O9_5 1_555 1_555
Co5_5 N7_7 1_555 1_555
Co6_3 O10_7 1_555 1_555
N8_7 Co1_7 1_555 1_555
O13_7 Co1_7 1_555 1_555
H47_5 O15_5 1_555 1_555
H48_5 O15_5 1_555 1_555
C8_7 N1_7 1_555 1_555
C14_7 N3_7 1_555 1_555
C20_7 N4_7 1_555 1_555
C30_7 N6_7 1_555 1_555
C35_7 N7_7 1_555 1_555
C40_7 C41_7 1_555 1_555
Co1_7 O2_7 1_555 1_555
O11_7 Co6_3 1_555 1_555
Co4_5 O15_5 1_555 1_555
C4_7 C3_7 1_555 1_555
H2_7 C4_7 1_555 1_555
C5_7 C4_7 1_555 1_555
C10_7 C3_7 1_555 1_555
C11_7 H6_7 1_555 1_555
H7_7 C11_7 1_555 1_555
C12_7 C11_7 1_555 1_555
C13_7 C5_7 1_555 1_555
C21_7 C22_7 1_555 1_555
C22_7 H14_7 1_555 1_555
C23_7 C22_7 1_555 1_555
H15_7 C23_7 1_555 1_555
C24_7 H16_7 1_555 1_555
C25_7 C21_7 1_555 1_555
H17_7 C25_7 1_555 1_555
C36_7 C18_7 1_555 1_555
H26_7 C36_7 1_555 1_555
H27_7 C36_7 1_555 1_555
C37_7 C36_7 1_555 1_555
H28_7 C37_7 1_555 1_555
H29_7 C37_7 1_555 1_555
C38_7 C21_7 1_555 1_555
H30_7 C38_7 1_555 1_555
H31_7 C38_7 1_555 1_555
N2_7 C10_7 1_555 1_555
H39_7 N2_7 1_555 1_555
N8_7 C23_7 1_555 1_555
O4_7 C10_7 1_555 1_555
O12_5 C12_7 1_555 1_555
O6_7 C12_7 1_555 1_555
O7_7 C13_7 1_555 1_555
O12_7 Co5_5 1_555 1_555
O14_5 Co5_5 1_555 1_555
H45_5 O14_5 1_555 1_555
H46_5 O14_5 1_555 1_555
C11_7 N2_7 1_555 1_555
C24_7 C25_7 1_555 1_555
C24_7 N8_7 1_555 1_555
C37_7 C38_7 1_555 1_555
Co5_5 O8_7 1_555 1_555
C1_8 C2_8 1_555 1_555
C2_8 H1_8 1_555 1_555
C6_8 C1_8 1_555 1_555
H3_8 C6_8 1_555 1_555
C7_8 C1_8 1_555 1_555
C8_8 H4_8 1_555 1_555
H5_4 C8_8 1_555 1_555
C9_8 C8_8 1_555 1_555
C14_8 H8_8 1_555 1_555
C15_8 C14_8 1_555 1_555
C16_8 H10_8 1_555 1_555
C17_8 C16_8 1_555 1_555
H11_8 C17_8 1_555 1_555
C20_8 C19_8 1_555 1_555
H13_8 C20_8 1_555 1_555
C26_8 H18_8 1_555 1_555
C27_8 C26_8 1_555 1_555
H19_8 C27_8 1_555 1_555
C28_8 C27_8 1_555 1_555
C29_8 C28_8 1_555 1_555
H20_8 C29_8 1_555 1_555
C30_8 C29_8 1_555 1_555
H21_8 C30_8 1_555 1_555
C31_8 H22_8 1_555 1_555
C32_8 C31_8 1_555 1_555
H23_8 C32_8 1_555 1_555
C33_8 C32_8 1_555 1_555
C34_8 C33_8 1_555 1_555
H24_8 C34_8 1_555 1_555
C35_8 C34_8 1_555 1_555
H25_8 C35_8 1_555 1_555
C39_8 C28_8 1_555 1_555
H32_8 C39_8 1_555 1_555
H33_8 C39_8 1_555 1_555
C40_8 C39_8 1_555 1_555
H34_8 C40_8 1_555 1_555
H35_8 C40_8 1_555 1_555
C41_8 C33_8 1_555 1_555
H36_8 C41_8 1_555 1_555
H37_8 C41_8 1_555 1_555
Co4 N4_8 1_555 1_555
N1_8 C7_8 1_555 1_555
H38_8 N1_8 1_555 1_555
H40_8 N3_8 1_555 1_555
N4_8 C16_8 1_555 1_555
N6_8 C26_8 1_555 1_555
N7_8 C31_8 1_555 1_555
O1_8 C7_8 1_555 1_555
O2_8 C9_8 1_555 1_555
O3_8 C9_8 1_555 1_555
O13_5 C15_8 1_555 1_555
Co6_2 N7_8 1_555 1_555
N8_8 Co4 1_555 1_555
C8_8 N1_8 1_555 1_555
C14_8 N3_8 1_555 1_555
C20_8 N4_8 1_555 1_555
C30_8 N6_8 1_555 1_555
C35_8 N7_8 1_555 1_555
C40_8 C41_8 1_555 1_555
Co4 O2_8 1_555 1_555
C4_8 C3_8 1_555 1_555
H2_8 C4_8 1_555 1_555
C5_8 C4_8 1_555 1_555
C10_8 C3_8 1_555 1_555
C11_8 H6_8 1_555 1_555
H7_8 C11_8 1_555 1_555
C12_8 C11_8 1_555 1_555
C13_8 C5_8 1_555 1_555
C21_8 C22_8 1_555 1_555
C22_8 H14_8 1_555 1_555
C23_8 C22_8 1_555 1_555
H15_8 C23_8 1_555 1_555
C24_8 H16_8 1_555 1_555
C25_8 C21_8 1_555 1_555
H17_8 C25_8 1_555 1_555
C36_8 C18_8 1_555 1_555
H26_8 C36_8 1_555 1_555
H27_8 C36_8 1_555 1_555
C37_8 C36_8 1_555 1_555
H28_8 C37_8 1_555 1_555
H29_8 C37_8 1_555 1_555
C38_8 C21_8 1_555 1_555
H30_8 C38_8 1_555 1_555
H31_8 C38_8 1_555 1_555
N2_8 C10_8 1_555 1_555
H39_8 N2_8 1_555 1_555
N8_8 C23_8 1_555 1_555
O4_8 C10_8 1_555 1_555
O5_5 C12_8 1_555 1_555
O6_8 C12_8 1_555 1_555
O7_8 C13_8 1_555 1_555
Co7_3 O5_5 1_555 1_555
C11_8 N2_8 1_555 1_555
C24_8 C25_8 1_555 1_555
C24_8 N8_8 1_555 1_555
C37_8 C38_8 1_555 1_555
Co6_2 O8_8 1_555 1_555
C8_9 H4_9 1_555 1_555
H5_5 C8_9 1_555 1_555
C9_9 C8_9 1_555 1_555
C31_9 H22_9 1_555 1_555
C32_9 C31_9 1_555 1_555
H23_9 C32_9 1_555 1_555
C33_9 C32_9 1_555 1_555
C34_9 C33_9 1_555 1_555
H24_9 C34_9 1_555 1_555
C35_9 C34_9 1_555 1_555
H25_9 C35_9 1_555 1_555
C39_9 C28_9 1_555 1_555
H32_9 C39_9 1_555 1_555
H33_9 C39_9 1_555 1_555
C40_9 C39_9 1_555 1_555
H34_9 C40_9 1_555 1_555
H35_9 C40_9 1_555 1_555
C41_9 C33_9 1_555 1_555
H36_9 C41_9 1_555 1_555
H37_9 C41_9 1_555 1_555
N7_9 C31_9 1_555 1_555
O2_9 C9_9 1_555 1_555
O3_9 C9_9 1_555 1_555
O11_8 Co1_8 1_555 1_555
H43_8 O11_8 1_555 1_555
H44_8 O11_8 1_555 1_555
Co5_6 N7_9 1_555 1_555
N8_9 Co1_8 1_555 1_555
O13_8 Co1_8 1_555 1_555
C35_9 N7_9 1_555 1_555
C40_9 C41_9 1_555 1_555
Co1_8 O2_9 1_555 1_555
C1_9 C2_9 1_555 1_555
C2_9 H1_9 1_555 1_555
C3_9 C2_9 1_555 1_555
C4_9 C3_9 1_555 1_555
H2_9 C4_9 1_555 1_555
C5_9 C4_9 1_555 1_555
C6_9 C1_9 1_555 1_555
H3_9 C6_9 1_555 1_555
C7_9 C1_9 1_555 1_555
C10_9 C3_9 1_555 1_555
C11_9 H6_9 1_555 1_555
H7_9 C11_9 1_555 1_555
C12_9 C11_9 1_555 1_555
C13_9 C5_9 1_555 1_555
C14_9 H8_9 1_555 1_555
H9_9 C14_9 1_555 1_555
C15_9 C14_9 1_555 1_555
C16_9 H10_9 1_555 1_555
C17_9 C16_9 1_555 1_555
H11_9 C17_9 1_555 1_555
C18_9 C17_9 1_555 1_555
C19_9 C18_9 1_555 1_555
H12_9 C19_9 1_555 1_555
C20_9 C19_9 1_555 1_555
H13_9 C20_9 1_555 1_555
C21_9 C22_9 1_555 1_555
C22_9 H14_9 1_555 1_555
C23_9 C22_9 1_555 1_555
H15_9 C23_9 1_555 1_555
C24_9 H16_9 1_555 1_555
C25_9 C21_9 1_555 1_555
H17_9 C25_9 1_555 1_555
C26_9 H18_9 1_555 1_555
C27_9 C26_9 1_555 1_555
H19_9 C27_9 1_555 1_555
H20_9 C29_9 1_555 1_555
C30_9 C29_9 1_555 1_555
H21_9 C30_9 1_555 1_555
C36_9 C18_9 1_555 1_555
H26_9 C36_9 1_555 1_555
H27_9 C36_9 1_555 1_555
C37_9 C36_9 1_555 1_555
H28_9 C37_9 1_555 1_555
H29_9 C37_9 1_555 1_555
C38_9 C21_9 1_555 1_555
H30_9 C38_9 1_555 1_555
H31_9 C38_9 1_555 1_555
Co5_6 N6_9 1_555 1_555
N1_9 C7_9 1_555 1_555
H38_9 N1_9 1_555 1_555
N2_9 C10_9 1_555 1_555
H39_9 N2_9 1_555 1_555
N3_9 C13_9 1_555 1_555
H40_9 N3_9 1_555 1_555
N4_9 C16_9 1_555 1_555
N8_9 C23_9 1_555 1_555
N6_9 C26_9 1_555 1_555
O4_9 C10_9 1_555 1_555
O12_3 C12_9 1_555 1_555
O6_9 C12_9 1_555 1_555
O7_9 C13_9 1_555 1_555
O8_9 C15_9 1_555 1_555
O9_6 C15_9 1_555 1_555
H41_8 O10_8 1_555 1_555
H42_8 O10_8 1_555 1_555
Co7_5 O10_8 1_555 1_555
O12_8 Co5_6 1_555 1_555
O14_6 Co5_6 1_555 1_555
H45_6 O14_6 1_555 1_555
H46_6 O14_6 1_555 1_555
O15_6 Co5_6 1_555 1_555
H47_6 O15_6 1_555 1_555
H48_6 O15_6 1_555 1_555
C5_9 C6_9 1_555 1_555
C11_9 N2_9 1_555 1_555
C14_9 N3_9 1_555 1_555
C20_9 N4_9 1_555 1_555
C24_9 C25_9 1_555 1_555
C24_9 N8_9 1_555 1_555
C30_9 N6_9 1_555 1_555
C37_9 C38_9 1_555 1_555
Co5_6 O8_9 1_555 1_555
C8_10 H4_10 1_555 1_555
H5_6 C8_10 1_555 1_555
C9_10 C8_10 1_555 1_555
C31_10 H22_10 1_555 1_555
C32_10 C31_10 1_555 1_555
H23_10 C32_10 1_555 1_555
C33_10 C32_10 1_555 1_555
C34_10 C33_10 1_555 1_555
H24_10 C34_10 1_555 1_555
C35_10 C34_10 1_555 1_555
H25_10 C35_10 1_555 1_555
C39_10 C28_10 1_555 1_555
H32_10 C39_10 1_555 1_555
H33_10 C39_10 1_555 1_555
C40_10 C39_10 1_555 1_555
H34_10 C40_10 1_555 1_555
H35_10 C40_10 1_555 1_555
C41_10 C33_10 1_555 1_555
H36_10 C41_10 1_555 1_555
H37_10 C41_10 1_555 1_555
N7_10 C31_10 1_555 1_555
O2_10 C9_10 1_555 1_555
O3_10 C9_10 1_555 1_555
Co7_3 N7_10 1_555 1_555
N8_10 Co4_5 1_555 1_555
C35_10 N7_10 1_555 1_555
C40_10 C41_10 1_555 1_555
Co4_5 O2_10 1_555 1_555
C1_10 C2_10 1_555 1_555
C2_10 H1_10 1_555 1_555
C3_10 C2_10 1_555 1_555
C4_10 C3_10 1_555 1_555
H2_10 C4_10 1_555 1_555
C5_10 C4_10 1_555 1_555
C6_10 C1_10 1_555 1_555
H3_10 C6_10 1_555 1_555
C7_10 C1_10 1_555 1_555
C10_10 C3_10 1_555 1_555
C11_10 H6_10 1_555 1_555
H7_10 C11_10 1_555 1_555
C12_10 C11_10 1_555 1_555
C13_10 C5_10 1_555 1_555
C14_10 H8_10 1_555 1_555
H9_10 C14_10 1_555 1_555
C15_10 C14_10 1_555 1_555
C16_10 H10_10 1_555 1_555
C17_10 C16_10 1_555 1_555
H11_10 C17_10 1_555 1_555
C18_10 C17_10 1_555 1_555
C19_10 C18_10 1_555 1_555
H12_10 C19_10 1_555 1_555
C20_10 C19_10 1_555 1_555
H13_10 C20_10 1_555 1_555
C21_10 C22_10 1_555 1_555
C22_10 H14_10 1_555 1_555
C23_10 C22_10 1_555 1_555
H15_10 C23_10 1_555 1_555
C24_10 H16_10 1_555 1_555
C25_10 C21_10 1_555 1_555
H17_10 C25_10 1_555 1_555
C26_10 H18_10 1_555 1_555
C27_10 C26_10 1_555 1_555
H19_10 C27_10 1_555 1_555
H20_10 C29_10 1_555 1_555
C30_10 C29_10 1_555 1_555
H21_10 C30_10 1_555 1_555
C36_10 C18_10 1_555 1_555
H26_10 C36_10 1_555 1_555
H27_10 C36_10 1_555 1_555
C37_10 C36_10 1_555 1_555
H28_10 C37_10 1_555 1_555
H29_10 C37_10 1_555 1_555
C38_10 C21_10 1_555 1_555
H30_10 C38_10 1_555 1_555
H31_10 C38_10 1_555 1_555
Co7_3 N6_10 1_555 1_555
N1_10 C7_10 1_555 1_555
H38_10 N1_10 1_555 1_555
N2_10 C10_10 1_555 1_555
H39_10 N2_10 1_555 1_555
N3_10 C13_10 1_555 1_555
H40_10 N3_10 1_555 1_555
N4_10 C16_10 1_555 1_555
N8_10 C23_10 1_555 1_555
N6_10 C26_10 1_555 1_555
O4_10 C10_10 1_555 1_555
O5_6 C12_10 1_555 1_555
O6_10 C12_10 1_555 1_555
O7_10 C13_10 1_555 1_555
O8_10 C15_10 1_555 1_555
O13_3 C15_10 1_555 1_555
Co6_4 O5_6 1_555 1_555
C5_10 C6_10 1_555 1_555
C11_10 N2_10 1_555 1_555
C14_10 N3_10 1_555 1_555
C20_10 N4_10 1_555 1_555
C24_10 C25_10 1_555 1_555
C24_10 N8_10 1_555 1_555
C30_10 N6_10 1_555 1_555
C37_10 C38_10 1_555 1_555
Co7_3 O8_10 1_555 1_555
C1_11 C2_11 1_555 1_555
C2_11 H1_11 1_555 1_555
C6_11 C1_11 1_555 1_555
H3_11 C6_11 1_555 1_555
C7_11 C1_11 1_555 1_555
C8_11 H4_11 1_555 1_555
H5_7 C8_11 1_555 1_555
C9_11 C8_11 1_555 1_555
C14_11 H8_11 1_555 1_555
C15_11 C14_11 1_555 1_555
C16_11 H10_11 1_555 1_555
C17_11 C16_11 1_555 1_555
H11_11 C17_11 1_555 1_555
C20_11 C19_11 1_555 1_555
H13_11 C20_11 1_555 1_555
C26_11 H18_11 1_555 1_555
C27_11 C26_11 1_555 1_555
H19_11 C27_11 1_555 1_555
C28_11 C27_11 1_555 1_555
C29_11 C28_11 1_555 1_555
H20_11 C29_11 1_555 1_555
C30_11 C29_11 1_555 1_555
H21_11 C30_11 1_555 1_555
C31_11 H22_11 1_555 1_555
C32_11 C31_11 1_555 1_555
H23_11 C32_11 1_555 1_555
C33_11 C32_11 1_555 1_555
C34_11 C33_11 1_555 1_555
H24_11 C34_11 1_555 1_555
C35_11 C34_11 1_555 1_555
H25_11 C35_11 1_555 1_555
C39_11 C28_11 1_555 1_555
H32_11 C39_11 1_555 1_555
H33_11 C39_11 1_555 1_555
C40_11 C39_11 1_555 1_555
H34_11 C40_11 1_555 1_555
H35_11 C40_11 1_555 1_555
C41_11 C33_11 1_555 1_555
H36_11 C41_11 1_555 1_555
H37_11 C41_11 1_555 1_555
Co4_2 N4_11 1_555 1_555
N1_11 C7_11 1_555 1_555
H38_11 N1_11 1_555 1_555
H40_11 N3_11 1_555 1_555
N4_11 C16_11 1_555 1_555
N6_11 C26_11 1_555 1_555
N7_11 C31_11 1_555 1_555
O1_11 C7_11 1_555 1_555
O2_11 C9_11 1_555 1_555
O3_11 C9_11 1_555 1_555
O13_6 C15_11 1_555 1_555
Co6 N7_11 1_555 1_555
N8_11 Co4_2 1_555 1_555
C8_11 N1_11 1_555 1_555
C14_11 N3_11 1_555 1_555
C20_11 N4_11 1_555 1_555
C30_11 N6_11 1_555 1_555
C35_11 N7_11 1_555 1_555
C40_11 C41_11 1_555 1_555
Co4_2 O2_11 1_555 1_555
C4_11 C3_11 1_555 1_555
H2_11 C4_11 1_555 1_555
C5_11 C4_11 1_555 1_555
C10_11 C3_11 1_555 1_555
C11_11 H6_11 1_555 1_555
H7_11 C11_11 1_555 1_555
C12_11 C11_11 1_555 1_555
C13_11 C5_11 1_555 1_555
C21_11 C22_11 1_555 1_555
C22_11 H14_11 1_555 1_555
C23_11 C22_11 1_555 1_555
H15_11 C23_11 1_555 1_555
C24_11 H16_11 1_555 1_555
C25_11 C21_11 1_555 1_555
H17_11 C25_11 1_555 1_555
C36_11 C18_11 1_555 1_555
H26_11 C36_11 1_555 1_555
H27_11 C36_11 1_555 1_555
C37_11 C36_11 1_555 1_555
H28_11 C37_11 1_555 1_555
H29_11 C37_11 1_555 1_555
C38_11 C21_11 1_555 1_555
H30_11 C38_11 1_555 1_555
H31_11 C38_11 1_555 1_555
N2_11 C10_11 1_555 1_555
H39_11 N2_11 1_555 1_555
N8_11 C23_11 1_555 1_555
O4_11 C10_11 1_555 1_555
O12_8 C12_11 1_555 1_555
O6_11 C12_11 1_555 1_555
O7_11 C13_11 1_555 1_555
C11_11 N2_11 1_555 1_555
C24_11 C25_11 1_555 1_555
C24_11 N8_11 1_555 1_555
C37_11 C38_11 1_555 1_555
Co6 O8_11 1_555 1_555
C1_12 C2_12 1_555 1_555
C2_12 H1_12 1_555 1_555
C6_12 C1_12 1_555 1_555
H3_12 C6_12 1_555 1_555
C7_12 C1_12 1_555 1_555
C8_12 H4_12 1_555 1_555
H5_8 C8_12 1_555 1_555
C9_12 C8_12 1_555 1_555
C14_12 H8_12 1_555 1_555
C15_12 C14_12 1_555 1_555
C16_12 H10_12 1_555 1_555
C17_12 C16_12 1_555 1_555
H11_12 C17_12 1_555 1_555
C20_12 C19_12 1_555 1_555
H13_12 C20_12 1_555 1_555
C26_12 H18_12 1_555 1_555
C27_12 C26_12 1_555 1_555
H19_12 C27_12 1_555 1_555
C28_12 C27_12 1_555 1_555
C29_12 C28_12 1_555 1_555
H20_12 C29_12 1_555 1_555
C30_12 C29_12 1_555 1_555
H21_12 C30_12 1_555 1_555
C31_12 H22_12 1_555 1_555
C32_12 C31_12 1_555 1_555
H23_12 C32_12 1_555 1_555
C33_12 C32_12 1_555 1_555
C34_12 C33_12 1_555 1_555
H24_12 C34_12 1_555 1_555
C35_12 C34_12 1_555 1_555
H25_12 C35_12 1_555 1_555
C39_12 C28_12 1_555 1_555
H32_12 C39_12 1_555 1_555
H33_12 C39_12 1_555 1_555
C40_12 C39_12 1_555 1_555
H34_12 C40_12 1_555 1_555
H35_12 C40_12 1_555 1_555
C41_12 C33_12 1_555 1_555
H36_12 C41_12 1_555 1_555
H37_12 C41_12 1_555 1_555
Co1_9 N4_12 1_555 1_555
N1_12 C7_12 1_555 1_555
H38_12 N1_12 1_555 1_555
H40_12 N3_12 1_555 1_555
N4_12 C16_12 1_555 1_555
N6_12 C26_12 1_555 1_555
N7_12 C31_12 1_555 1_555
O1_12 C7_12 1_555 1_555
O2_12 C9_12 1_555 1_555
O3_12 C9_12 1_555 1_555
O13_8 C15_12 1_555 1_555
O10_9 Co1_9 1_555 1_555
H41_9 O10_9 1_555 1_555
H42_9 O10_9 1_555 1_555
O11_9 Co1_9 1_555 1_555
H43_9 O11_9 1_555 1_555
H44_9 O11_9 1_555 1_555
Co7_5 N7_12 1_555 1_555
Co7_6 O10_9 1_555 1_555
N8_12 Co1_9 1_555 1_555
O13_9 Co1_9 1_555 1_555
C8_12 N1_12 1_555 1_555
C14_12 N3_12 1_555 1_555
C20_12 N4_12 1_555 1_555
C30_12 N6_12 1_555 1_555
C35_12 N7_12 1_555 1_555
C40_12 C41_12 1_555 1_555
Co1_9 O2_12 1_555 1_555
O11_9 Co7_6 1_555 1_555
C4_12 C3_12 1_555 1_555
H2_12 C4_12 1_555 1_555
C5_12 C4_12 1_555 1_555
C10_12 C3_12 1_555 1_555
C11_12 H6_12 1_555 1_555
H7_12 C11_12 1_555 1_555
C12_12 C11_12 1_555 1_555
C13_12 C5_12 1_555 1_555
C21_12 C22_12 1_555 1_555
C22_12 H14_12 1_555 1_555
C23_12 C22_12 1_555 1_555
H15_12 C23_12 1_555 1_555
C24_12 H16_12 1_555 1_555
C25_12 C21_12 1_555 1_555
H17_12 C25_12 1_555 1_555
C36_12 C18_12 1_555 1_555
H26_12 C36_12 1_555 1_555
H27_12 C36_12 1_555 1_555
C37_12 C36_12 1_555 1_555
H28_12 C37_12 1_555 1_555
H29_12 C37_12 1_555 1_555
C38_12 C21_12 1_555 1_555
H30_12 C38_12 1_555 1_555
H31_12 C38_12 1_555 1_555
N2_12 C10_12 1_555 1_555
H39_12 N2_12 1_555 1_555
N8_12 C23_12 1_555 1_555
O4_12 C10_12 1_555 1_555
O12_6 C12_12 1_555 1_555
O6_12 C12_12 1_555 1_555
O7_12 C13_12 1_555 1_555
O12_9 Co7_5 1_555 1_555
C11_12 N2_12 1_555 1_555
C24_12 C25_12 1_555 1_555
C24_12 N8_12 1_555 1_555
C37_12 C38_12 1_555 1_555
Co7_5 O8_12 1_555 1_555
C31_13 H22_13 1_555 1_555
H25_13 C35_13 1_555 1_555
N7_13 C31_13 1_555 1_555
Co7_6 N7_13 1_555 1_555
C35_13 N7_13 1_555 1_555
C1_13 C2_13 1_555 1_555
C2_13 H1_13 1_555 1_555
C3_13 C2_13 1_555 1_555
C4_13 C3_13 1_555 1_555
H2_13 C4_13 1_555 1_555
C5_13 C4_13 1_555 1_555
C6_13 C1_13 1_555 1_555
H3_13 C6_13 1_555 1_555
C7_13 C1_13 1_555 1_555
C8_13 H4_13 1_555 1_555
H5_9 C8_13 1_555 1_555
C9_13 C8_13 1_555 1_555
C10_13 C3_13 1_555 1_555
C13_13 C5_13 1_555 1_555
C14_13 H8_13 1_555 1_555
H9_13 C14_13 1_555 1_555
C15_13 C14_13 1_555 1_555
C16_13 H10_13 1_555 1_555
C17_13 C16_13 1_555 1_555
H11_13 C17_13 1_555 1_555
C18_13 C17_13 1_555 1_555
C19_13 C18_13 1_555 1_555
H12_13 C19_13 1_555 1_555
C20_13 C19_13 1_555 1_555
H13_13 C20_13 1_555 1_555
C26_13 H18_13 1_555 1_555
C27_13 C26_13 1_555 1_555
H19_13 C27_13 1_555 1_555
C28_13 C27_13 1_555 1_555
C29_13 C28_13 1_555 1_555
H20_13 C29_13 1_555 1_555
C30_13 C29_13 1_555 1_555
H21_13 C30_13 1_555 1_555
H23_13 C32_13 1_555 1_555
C33_13 C32_13 1_555 1_555
C34_13 C33_13 1_555 1_555
H24_13 C34_13 1_555 1_555
C36_13 C18_13 1_555 1_555
H26_13 C36_13 1_555 1_555
H27_13 C36_13 1_555 1_555
C37_13 C36_13 1_555 1_555
H29_13 C37_13 1_555 1_555
H30_13 C38_13 1_555 1_555
H31_13 C38_13 1_555 1_555
C39_13 C28_13 1_555 1_555
H32_13 C39_13 1_555 1_555
H33_13 C39_13 1_555 1_555
C40_13 C39_13 1_555 1_555
H34_13 C40_13 1_555 1_555
H35_13 C40_13 1_555 1_555
C41_13 C33_13 1_555 1_555
H36_13 C41_13 1_555 1_555
H37_13 C41_13 1_555 1_555
Co1_10 N4_13 1_555 1_555
Co7_6 N6_13 1_555 1_555
N1_13 C7_13 1_555 1_555
H38_13 N1_13 1_555 1_555
N2_13 C10_13 1_555 1_555
H39_13 N2_13 1_555 1_555
N3_13 C13_13 1_555 1_555
H40_13 N3_13 1_555 1_555
N4_13 C16_13 1_555 1_555
N6_13 C26_13 1_555 1_555
O1_13 C7_13 1_555 1_555
O2_13 C9_13 1_555 1_555
O3_13 C9_13 1_555 1_555
O7_13 C13_13 1_555 1_555
O8_13 C15_13 1_555 1_555
O13_9 C15_13 1_555 1_555
O10_10 Co1_10 1_555 1_555
H41_10 O10_10 1_555 1_555
H42_10 O10_10 1_555 1_555
O11_10 Co1_10 1_555 1_555
H43_10 O11_10 1_555 1_555
H44_10 O11_10 1_555 1_555
Co6_4 O10_10 1_555 1_555
N8_13 Co1_10 1_555 1_555
O12_10 Co7_6 1_555 1_555
O13_10 Co1_10 1_555 1_555
C5_13 C6_13 1_555 1_555
C8_13 N1_13 1_555 1_555
C14_13 N3_13 1_555 1_555
C20_13 N4_13 1_555 1_555
C30_13 N6_13 1_555 1_555
C37_13 C38_13 1_555 1_555
C40_13 C41_13 1_555 1_555
Co1_10 O2_13 1_555 1_555
Co7_6 O8_13 1_555 1_555
O11_10 Co6_4 1_555 1_555
C11_13 H6_13 1_555 1_555
H7_13 C11_13 1_555 1_555
C12_13 C11_13 1_555 1_555
C21_13 C22_13 1_555 1_555
C22_13 H14_13 1_555 1_555
C23_13 C22_13 1_555 1_555
H15_13 C23_13 1_555 1_555
C24_13 H16_13 1_555 1_555
C25_13 C21_13 1_555 1_555
H17_13 C25_13 1_555 1_555
N8_13 C23_13 1_555 1_555
O12_7 C12_13 1_555 1_555
O6_13 C12_13 1_555 1_555
C24_13 C25_13 1_555 1_555
C24_13 N8_13 1_555 1_555
C31_14 H22_14 1_555 1_555
H25_14 C35_14 1_555 1_555
N7_14 C31_14 1_555 1_555
Co6_3 N7_14 1_555 1_555
C35_14 N7_14 1_555 1_555
C1_14 C2_14 1_555 1_555
C2_14 H1_14 1_555 1_555
C3_14 C2_14 1_555 1_555
C4_14 C3_14 1_555 1_555
H2_14 C4_14 1_555 1_555
C5_14 C4_14 1_555 1_555
C6_14 C1_14 1_555 1_555
H3_14 C6_14 1_555 1_555
C7_14 C1_14 1_555 1_555
C8_14 H4_14 1_555 1_555
H5_10 C8_14 1_555 1_555
C9_14 C8_14 1_555 1_555
C10_14 C3_14 1_555 1_555
C13_14 C5_14 1_555 1_555
C14_14 H8_14 1_555 1_555
H9_14 C14_14 1_555 1_555
C15_14 C14_14 1_555 1_555
C16_14 H10_14 1_555 1_555
C17_14 C16_14 1_555 1_555
H11_14 C17_14 1_555 1_555
C18_14 C17_14 1_555 1_555
C19_14 C18_14 1_555 1_555
H12_14 C19_14 1_555 1_555
C20_14 C19_14 1_555 1_555
H13_14 C20_14 1_555 1_555
C26_14 H18_14 1_555 1_555
C27_14 C26_14 1_555 1_555
H19_14 C27_14 1_555 1_555
C28_14 C27_14 1_555 1_555
C29_14 C28_14 1_555 1_555
H20_14 C29_14 1_555 1_555
C30_14 C29_14 1_555 1_555
H21_14 C30_14 1_555 1_555
H23_14 C32_14 1_555 1_555
C33_14 C32_14 1_555 1_555
C34_14 C33_14 1_555 1_555
H24_14 C34_14 1_555 1_555
C36_14 C18_14 1_555 1_555
H26_14 C36_14 1_555 1_555
H27_14 C36_14 1_555 1_555
C37_14 C36_14 1_555 1_555
H29_14 C37_14 1_555 1_555
H30_14 C38_14 1_555 1_555
H31_14 C38_14 1_555 1_555
C39_14 C28_14 1_555 1_555
H32_14 C39_14 1_555 1_555
H33_14 C39_14 1_555 1_555
C40_14 C39_14 1_555 1_555
H34_14 C40_14 1_555 1_555
H35_14 C40_14 1_555 1_555
C41_14 C33_14 1_555 1_555
H36_14 C41_14 1_555 1_555
H37_14 C41_14 1_555 1_555
Co4_3 N4_14 1_555 1_555
Co6_3 N6_14 1_555 1_555
N1_14 C7_14 1_555 1_555
H38_14 N1_14 1_555 1_555
N2_14 C10_14 1_555 1_555
H39_14 N2_14 1_555 1_555
N3_14 C13_14 1_555 1_555
H40_14 N3_14 1_555 1_555
N4_14 C16_14 1_555 1_555
N6_14 C26_14 1_555 1_555
O1_14 C7_14 1_555 1_555
O2_14 C9_14 1_555 1_555
O3_14 C9_14 1_555 1_555
O7_14 C13_14 1_555 1_555
O8_14 C15_14 1_555 1_555
O13_7 C15_14 1_555 1_555
N8_14 Co4_3 1_555 1_555
C5_14 C6_14 1_555 1_555
C8_14 N1_14 1_555 1_555
C14_14 N3_14 1_555 1_555
C20_14 N4_14 1_555 1_555
C30_14 N6_14 1_555 1_555
C37_14 C38_14 1_555 1_555
C40_14 C41_14 1_555 1_555
Co4_3 O2_14 1_555 1_555
Co6_3 O8_14 1_555 1_555
C11_14 H6_14 1_555 1_555
H7_14 C11_14 1_555 1_555
C12_14 C11_14 1_555 1_555
C21_14 C22_14 1_555 1_555
C22_14 H14_14 1_555 1_555
C23_14 C22_14 1_555 1_555
H15_14 C23_14 1_555 1_555
C24_14 H16_14 1_555 1_555
C25_14 C21_14 1_555 1_555
H17_14 C25_14 1_555 1_555
N8_14 C23_14 1_555 1_555
O12_9 C12_14 1_555 1_555
O6_14 C12_14 1_555 1_555
C24_14 C25_14 1_555 1_555
C24_14 N8_14 1_555 1_555
C31_15 H22_15 1_555 1_555
C32_15 C31_15 1_555 1_555
H23_15 C32_15 1_555 1_555
C33_15 C32_15 1_555 1_555
C34_15 C33_15 1_555 1_555
H24_15 C34_15 1_555 1_555
C35_15 C34_15 1_555 1_555
H25_15 C35_15 1_555 1_555
C41_15 C33_15 1_555 1_555
N7_15 C31_15 1_555 1_555
Co7_2 N7_15 1_555 1_555
C35_15 N7_15 1_555 1_555
C1_15 C2_15 1_555 1_555
C2_15 H1_15 1_555 1_555
C3_15 C2_15 1_555 1_555
C4_15 C3_15 1_555 1_555
H2_15 C4_15 1_555 1_555
C5_15 C4_15 1_555 1_555
C6_15 C1_15 1_555 1_555
H3_15 C6_15 1_555 1_555
C7_15 C1_15 1_555 1_555
C8_15 H4_15 1_555 1_555
H5_11 C8_15 1_555 1_555
C9_15 C8_15 1_555 1_555
C10_15 C3_15 1_555 1_555
C11_15 H6_15 1_555 1_555
H7_15 C11_15 1_555 1_555
C12_15 C11_15 1_555 1_555
C13_15 C5_15 1_555 1_555
C14_15 H8_15 1_555 1_555
H9_15 C14_15 1_555 1_555
C15_15 C14_15 1_555 1_555
C16_15 H10_15 1_555 1_555
C17_15 C16_15 1_555 1_555
H11_15 C17_15 1_555 1_555
C18_15 C17_15 1_555 1_555
C19_15 C18_15 1_555 1_555
H12_15 C19_15 1_555 1_555
C20_15 C19_15 1_555 1_555
H13_15 C20_15 1_555 1_555
C21_15 C22_15 1_555 1_555
C22_15 H14_15 1_555 1_555
C25_15 C21_15 1_555 1_555
H17_15 C25_15 1_555 1_555
C26_15 H18_15 1_555 1_555
C27_15 C26_15 1_555 1_555
H19_15 C27_15 1_555 1_555
C28_15 C27_15 1_555 1_555
C29_15 C28_15 1_555 1_555
H20_15 C29_15 1_555 1_555
C30_15 C29_15 1_555 1_555
H21_15 C30_15 1_555 1_555
C36_15 C18_15 1_555 1_555
H26_15 C36_15 1_555 1_555
H27_15 C36_15 1_555 1_555
C37_15 C36_15 1_555 1_555
H28_15 C37_15 1_555 1_555
H29_15 C37_15 1_555 1_555
C38_15 C21_15 1_555 1_555
H30_15 C38_15 1_555 1_555
H31_15 C38_15 1_555 1_555
C39_15 C28_15 1_555 1_555
H32_15 C39_15 1_555 1_555
H33_15 C39_15 1_555 1_555
C40_15 C39_15 1_555 1_555
H35_15 C40_15 1_555 1_555
Co4_4 N4_15 1_555 1_555
Co7_2 N6_15 1_555 1_555
N1_15 C7_15 1_555 1_555
H38_15 N1_15 1_555 1_555
N2_15 C10_15 1_555 1_555
H39_15 N2_15 1_555 1_555
N3_15 C13_15 1_555 1_555
H40_15 N3_15 1_555 1_555
N4_15 C16_15 1_555 1_555
N6_15 C26_15 1_555 1_555
O1_15 C7_15 1_555 1_555
O2_15 C9_15 1_555 1_555
O3_15 C9_15 1_555 1_555
O4_15 C10_15 1_555 1_555
O12_10 C12_15 1_555 1_555
O6_15 C12_15 1_555 1_555
O7_15 C13_15 1_555 1_555
O8_15 C15_15 1_555 1_555
O13_2 C15_15 1_555 1_555
N8_15 Co4_4 1_555 1_555
C5_15 C6_15 1_555 1_555
C8_15 N1_15 1_555 1_555
C11_15 N2_15 1_555 1_555
C14_15 N3_15 1_555 1_555
C20_15 N4_15 1_555 1_555
C24_15 C25_15 1_555 1_555
C30_15 N6_15 1_555 1_555
C37_15 C38_15 1_555 1_555
Co4_4 O2_15 1_555 1_555
Co7_2 O8_15 1_555 1_555
H15_15 C23_15 1_555 1_555
N8_15 C23_15 1_555 1_555
C31_16 H22_16 1_555 1_555
C32_16 C31_16 1_555 1_555
H23_16 C32_16 1_555 1_555
C33_16 C32_16 1_555 1_555
C34_16 C33_16 1_555 1_555
H24_16 C34_16 1_555 1_555
C35_16 C34_16 1_555 1_555
H25_16 C35_16 1_555 1_555
C41_16 C33_16 1_555 1_555
N7_16 C31_16 1_555 1_555
Co6_4 N7_16 1_555 1_555
C35_16 N7_16 1_555 1_555
C1_16 C2_16 1_555 1_555
C2_16 H1_16 1_555 1_555
C3_16 C2_16 1_555 1_555
C4_16 C3_16 1_555 1_555
H2_16 C4_16 1_555 1_555
C5_16 C4_16 1_555 1_555
C6_16 C1_16 1_555 1_555
H3_16 C6_16 1_555 1_555
C7_16 C1_16 1_555 1_555
C8_16 H4_16 1_555 1_555
H5_12 C8_16 1_555 1_555
C9_16 C8_16 1_555 1_555
C10_16 C3_16 1_555 1_555
C11_16 H6_16 1_555 1_555
H7_16 C11_16 1_555 1_555
C12_16 C11_16 1_555 1_555
C13_16 C5_16 1_555 1_555
C14_16 H8_16 1_555 1_555
H9_16 C14_16 1_555 1_555
C15_16 C14_16 1_555 1_555
C16_16 H10_16 1_555 1_555
C17_16 C16_16 1_555 1_555
H11_16 C17_16 1_555 1_555
C18_16 C17_16 1_555 1_555
C19_16 C18_16 1_555 1_555
H12_16 C19_16 1_555 1_555
C20_16 C19_16 1_555 1_555
H13_16 C20_16 1_555 1_555
C21_16 C22_16 1_555 1_555
C22_16 H14_16 1_555 1_555
C25_16 C21_16 1_555 1_555
H17_16 C25_16 1_555 1_555
C26_16 H18_16 1_555 1_555
C27_16 C26_16 1_555 1_555
H19_16 C27_16 1_555 1_555
C28_16 C27_16 1_555 1_555
C29_16 C28_16 1_555 1_555
H20_16 C29_16 1_555 1_555
C30_16 C29_16 1_555 1_555
H21_16 C30_16 1_555 1_555
C36_16 C18_16 1_555 1_555
H26_16 C36_16 1_555 1_555
H27_16 C36_16 1_555 1_555
C37_16 C36_16 1_555 1_555
H28_16 C37_16 1_555 1_555
H29_16 C37_16 1_555 1_555
C38_16 C21_16 1_555 1_555
H30_16 C38_16 1_555 1_555
H31_16 C38_16 1_555 1_555
C39_16 C28_16 1_555 1_555
H32_16 C39_16 1_555 1_555
H33_16 C39_16 1_555 1_555
C40_16 C39_16 1_555 1_555
H35_16 C40_16 1_555 1_555
Co4_6 N4_16 1_555 1_555
Co6_4 N6_16 1_555 1_555
N1_16 C7_16 1_555 1_555
H38_16 N1_16 1_555 1_555
N2_16 C10_16 1_555 1_555
H39_16 N2_16 1_555 1_555
N3_16 C13_16 1_555 1_555
H40_16 N3_16 1_555 1_555
N4_16 C16_16 1_555 1_555
N6_16 C26_16 1_555 1_555
O1_16 C7_16 1_555 1_555
O2_16 C9_16 1_555 1_555
O3_16 C9_16 1_555 1_555
O4_16 C10_16 1_555 1_555
O12_2 C12_16 1_555 1_555
O6_16 C12_16 1_555 1_555
O7_16 C13_16 1_555 1_555
O8_16 C15_16 1_555 1_555
O13_10 C15_16 1_555 1_555
N8_16 Co4_6 1_555 1_555
C5_16 C6_16 1_555 1_555
C8_16 N1_16 1_555 1_555
C11_16 N2_16 1_555 1_555
C14_16 N3_16 1_555 1_555
C20_16 N4_16 1_555 1_555
C24_16 C25_16 1_555 1_555
C30_16 N6_16 1_555 1_555
C37_16 C38_16 1_555 1_555
Co4_6 O2_16 1_555 1_555
Co6_4 O8_16 1_555 1_555
H15_16 C23_16 1_555 1_555
N8_16 C23_16 1_555 1_555
N10 O16 1_555 1_555
O17 N10 1_555 1_555
N10_2 O16_2 1_555 1_555
O17_2 N10_2 1_555 1_555
N10_3 O16_3 1_555 1_555
O17_3 N10_3 1_555 1_555
N10_4 O16_4 1_555 1_555
O17_4 N10_4 1_555 1_555
O18_4 N10_4 1_555 1_555
N10_5 O16_5 1_555 1_555
O17_5 N10_5 1_555 1_555
O18_5 N10_5 1_555 1_555
N10_6 O16_6 1_555 1_555
O17_6 N10_6 1_555 1_555
O18_6 N10_6 1_555 1_555
N10_7 O16_7 1_555 1_555
O17_7 N10_7 1_555 1_555
O18_7 N10_7 1_555 1_555
N10_8 O16_8 1_555 1_555
O17_8 N10_8 1_555 1_555
N10_9 O16_9 1_555 1_555
O17_9 N10_9 1_555 1_555
O18_9 N10_9 1_555 1_555
N10_10 O16_10 1_555 1_555
O17_10 N10_10 1_555 1_555
O18_10 N10_10 1_555 1_555
N10_11 O16_11 1_555 1_555
O17_11 N10_11 1_555 1_555
N10_12 O16_12 1_555 1_555
O17_12 N10_12 1_555 1_555
O18_12 N10_12 1_555 1_555
N10_13 O16_13 1_555 1_555
O17_13 N10_13 1_555 1_555
N10_14 O16_14 1_555 1_555
O17_14 N10_14 1_555 1_555
N10_15 O16_15 1_555 1_555
O17_15 N10_15 1_555 1_555
O18_15 N10_15 1_555 1_555
N10_16 O16_16 1_555 1_555
O17_16 N10_16 1_555 1_555

#END
