
###############################################################################
#
# This file contains modified crystal structure data generated from the
# MOF subset of the Cambridge Structural Database (CSD) v543 
# hosted by the Cambridge Crystallographic Data Centre (CCDC).
#
# This work is licensed under the Creative Commons
# Attribution-NonCommercial-ShareAlike 4.0 International License.
# To view a copy of this license, visit
# http://creativecommons.org/licenses/by-nc-sa/4.0/
# or send a letter to
# Creative Commons, PO Box 1866, Mountain View, CA 94042, USA.
#
# CIF created using the CSD Python API on 29 September 2022
# The structure has been converted into the P1 space group
# The structure has a 3D framework
# The original CSD entry BUPSUD is in the orthorhombic crystal system
# The framework has been calculated to contain at least 10.0% void space
# The void calculation uses a probe of radius 1.32A, grid spacing 0.4
#
###############################################################################

data_BUPSUD
_chemical_formula_moiety         '(C2560 H1920 Cu61 N160 O460)n'
_symmetry_cell_setting           triclinic
_symmetry_space_group_name_H-M   'P 1'
_symmetry_Int_Tables_number      1
_space_group_name_Hall           'P 1'
loop_
_symmetry_equiv_pos_site_id
_symmetry_equiv_pos_as_xyz
1 x,y,z
_cell_length_a                   25.590(8)
_cell_length_b                   35.595(11)
_cell_length_c                   70.64(2)
_cell_angle_alpha                90
_cell_angle_beta                 90
_cell_angle_gamma                90
_cell_volume                     64344.3
loop_
_atom_site_label
_atom_site_type_symbol
_atom_site_fract_x
_atom_site_fract_y
_atom_site_fract_z
Cu1 Cu 0.26172(5) 0.50594(3) 0.54694(2)
Cu2 Cu 0.2500 0.5000 0.2500
Cu3 Cu 0.23012(4) 0.48990(3) 0.60251(2)
O1 O 0.22238(19) 0.48148(13) 0.52706(7)
O2 O 0.2830(3) 0.5019(2) 0.50790(9)
O3 O 0.2164(2) 0.4607(2) 0.44432(8)
O4 O 0.2529(3) 0.5374(2) 0.35405(10)
O5 O 0.2973(4) 0.5301(2) 0.27029(12)
O6 O 0.2320(4) 0.5006(3) 0.28421(13)
O7 O 0.29736(17) 0.52620(12) 0.57213(8)
O8 O 0.33977(17) 0.54658(14) 0.54714(8)
O9 O 0.5035(2) 0.60769(18) 0.57400(7)
O10 O 0.19901(19) 0.47544(13) 0.57197(8)
O11 O 0.16334(18) 0.45464(14) 0.59806(8)
O13 O 0.27507(16) 0.51716(12) 0.62020(6)
O14 O 0.2182(2) 0.48884(13) 0.63877(7)
O15 O 0.2583(2) 0.54410(16) 0.70405(7)
N1 N 0.3056(3) 0.46003(19) 0.54855(9)
N2 N 0.2140(3) 0.5495(2) 0.54559(10)
N3 N 0.2815(3) 0.44779(18) 0.60158(9)
N4 N 0.1885(2) 0.53718(18) 0.59936(9)
N5 N 0.1919(4) 0.5385(3) 0.24827(19)
C1 C 0.1378(5) 0.5369(3) 0.2469(3)
H1 H 0.1210 0.5138 0.2462
C2 C 0.1088(4) 0.5699(4) 0.2466(3)
H2 H 0.0726 0.5689 0.2456
C3 C 0.1339(5) 0.6045(3) 0.2476(3)
C4 C 0.1880(5) 0.6061(3) 0.2490(3)
H3 H 0.2048 0.6292 0.2497
C5 C 0.2171(4) 0.5731(3) 0.2493(2)
H4 H 0.2533 0.5741 0.2502
C6 C 0.2436(3) 0.4835(2) 0.51073(12)
C7 C 0.2177(3) 0.4608(3) 0.49520(12)
C8 C 0.1826(4) 0.4328(3) 0.49969(13)
H5 H 0.1746 0.4278 0.5123
C9 C 0.1596(4) 0.4122(3) 0.48563(14)
H6 H 0.1381 0.3921 0.4887
C10 C 0.1684(4) 0.4214(3) 0.46683(14)
H7 H 0.1512 0.4086 0.4572
C11 C 0.2027(4) 0.4496(3) 0.46274(12)
C12 C 0.2293(4) 0.4694(3) 0.47658(12)
H8 H 0.2539 0.4876 0.4735
C13 C 0.1841(4) 0.4467(3) 0.42976(14)
H9 H 0.1479 0.4530 0.4323
H10 H 0.1871 0.4195 0.4291
C14 C 0.2016(4) 0.4642(3) 0.41133(14)
C15 C 0.1689(5) 0.4891(3) 0.40272(17)
H11 H 0.1386 0.4976 0.4086
C16 C 0.1821(5) 0.5004(3) 0.38569(18)
H12 H 0.1592 0.5166 0.3795
C17 C 0.2259(5) 0.4907(3) 0.37636(16)
C18 C 0.2594(5) 0.4648(4) 0.38494(17)
H13 H 0.2895 0.4568 0.3788
C19 C 0.2469(5) 0.4511(3) 0.40282(16)
H14 H 0.2683 0.4337 0.4089
C20 C 0.2349(5) 0.4998(4) 0.35514(17)
H15 H 0.2606 0.4828 0.3498
H16 H 0.2025 0.4970 0.3481
C21 C 0.2710(4) 0.5488(3) 0.33570(17)
C22 C 0.2585(3) 0.5300(3) 0.31936(16)
H17 H 0.2365 0.5093 0.3195
C23 C 0.2801(4) 0.5434(3) 0.30262(14)
C24 C 0.3136(4) 0.5730(4) 0.30184(18)
H18 H 0.3287 0.5805 0.2905
C25 C 0.3247(5) 0.5920(3) 0.3191(2)
H19 H 0.3462 0.6130 0.3191
C26 C 0.3032(4) 0.5788(3) 0.33567(17)
H20 H 0.3109 0.5908 0.3470
C27 C 0.2686(6) 0.5216(4) 0.2851(2)
C28 C 0.1643(4) 0.5446(2) 0.54831(11)
H21 H 0.1527 0.5203 0.5507
C29 C 0.1277(3) 0.5727(2) 0.54793(11)
H22 H 0.0925 0.5672 0.5498
C30 C 0.1434(3) 0.6094(2) 0.54471(10)
C31 C 0.1964(3) 0.6147(2) 0.54129(11)
H23 H 0.2092 0.6385 0.5385
C32 C 0.2303(3) 0.5842(3) 0.54213(13)
H24 H 0.2657 0.5883 0.5402
C33 C 0.2815(3) 0.4276(3) 0.55198(11)
H25 H 0.2458 0.4279 0.5543
C34 C 0.3070(3) 0.3938(2) 0.55216(10)
H26 H 0.2888 0.3718 0.5547
C35 C 0.3605(3) 0.3926(2) 0.54846(9)
C36 C 0.3859(3) 0.4264(2) 0.54479(10)
H27 H 0.4217 0.4268 0.5424
C37 C 0.3572(3) 0.4596(2) 0.54469(11)
H28 H 0.3740 0.4821 0.5419
C38 C 0.1374(3) 0.5398(2) 0.60167(11)
H29 H 0.1182 0.5180 0.6038
C39 C 0.1114(3) 0.57377(19) 0.60101(10)
H30 H 0.0753 0.5745 0.6026
C40 C 0.1388(3) 0.60650(18) 0.59801(8)
C41 C 0.1915(3) 0.6036(2) 0.59514(10)
H31 H 0.2111 0.6251 0.5927
C42 C 0.2156(3) 0.5693(2) 0.59579(11)
H32 H 0.2514 0.5679 0.5937
C43 C 0.2676(3) 0.4117(2) 0.60538(11)
H33 H 0.2328 0.4065 0.6081
C44 C 0.3030(3) 0.3828(2) 0.60534(10)
H34 H 0.2923 0.3584 0.6082
C45 C 0.3557(3) 0.39008(18) 0.60097(9)
C46 C 0.3679(3) 0.42726(19) 0.59719(9)
H35 H 0.4024 0.4337 0.5945
C47 C 0.3309(3) 0.4544(2) 0.59725(11)
H36 H 0.3406 0.4787 0.5941
C48 C 0.3348(3) 0.54376(19) 0.56437(12)
C49 C 0.3754(3) 0.56152(18) 0.57698(10)
C50 C 0.3692(3) 0.56292(19) 0.59650(10)
H37 H 0.3402 0.5517 0.6020
C51 C 0.4052(3) 0.5806(2) 0.60769(11)
H38 H 0.4000 0.5821 0.6207
C52 C 0.4488(3) 0.5960(2) 0.59969(11)
H39 H 0.4731 0.6085 0.6072
C53 C 0.4570(3) 0.5929(2) 0.58005(11)
C54 C 0.4201(3) 0.5769(2) 0.56902(11)
H40 H 0.4247 0.5762 0.5560
C55 C 0.5175(3) 0.6009(3) 0.55439(11)
H41 H 0.4951 0.6152 0.5460
H42 H 0.5144 0.5744 0.5513
C56 C 0.5730(3) 0.6136(3) 0.55265(11)
C57 C 0.6127(4) 0.5879(3) 0.55233(12)
H43 H 0.6049 0.5624 0.5520
C58 C 0.5852(3) 0.6506(3) 0.55248(12)
H44 H 0.5587 0.6685 0.5525
C59 C 0.1637(3) 0.45775(18) 0.58018(13)
C60 C 0.1204(2) 0.43974(18) 0.56920(10)
C61 C 0.1260(3) 0.4360(2) 0.54980(11)
H45 H 0.1555 0.4450 0.5436
C62 C 0.0856(3) 0.4180(2) 0.53965(12)
H46 H 0.0887 0.4150 0.5266
C63 C 0.0420(3) 0.4050(3) 0.54861(12)
H47 H 0.0159 0.3929 0.5418
C64 C 0.0367(3) 0.4098(2) 0.56793(11)
C65 C 0.0758(2) 0.42724(19) 0.57860(10)
H48 H 0.0722 0.4304 0.5916
H50 H 0.0064 0.3843 0.6021
C70 C 0.2539(3) 0.51185(19) 0.63626(10)
C71 C 0.3011(3) 0.5679(2) 0.64881(10)
H53 H 0.3121 0.5734 0.6366
C72 C 0.2722(2) 0.53603(18) 0.65220(9)
C73 C 0.2570(3) 0.5271(2) 0.67074(9)
H54 H 0.2375 0.5055 0.6731
C74 C 0.2712(3) 0.5502(2) 0.68516(10)
C75 C 0.2990(3) 0.5823(2) 0.68214(10)
H55 H 0.3078 0.5977 0.6923
C76 C 0.3142(3) 0.5920(2) 0.66384(11)
H56 H 0.3326 0.6140 0.6616
C77 C 0.2436(4) 0.5060(2) 0.70872(11)
H57 H 0.2674 0.4883 0.7029
H58 H 0.2085 0.5008 0.7043
C78 C 0.2461(4) 0.5028(3) 0.73034(12)
C79 C 0.2965(5) 0.5079(3) 0.73936(14)
H59 H 0.3264 0.5130 0.7323
C80 C 0.2018(5) 0.4954(3) 0.74095(14)
H60 H 0.1699 0.4924 0.7348
O16 O 0.95264(17) 0.72380(12) 0.57213(8)
O17 O 0.91023(17) 0.70342(14) 0.54714(8)
O18 O 0.7465(2) 0.64231(18) 0.57400(7)
C81 C 0.9152(3) 0.70624(19) 0.56437(12)
C82 C 0.8746(3) 0.68848(18) 0.57698(10)
C83 C 0.8808(3) 0.68708(19) 0.59650(10)
H61 H 0.9098 0.6983 0.6020
C84 C 0.8448(3) 0.6694(2) 0.60769(11)
H62 H 0.8500 0.6679 0.6207
C85 C 0.8012(3) 0.6540(2) 0.59969(11)
H63 H 0.7769 0.6415 0.6072
C86 C 0.7930(3) 0.6571(2) 0.58005(11)
C87 C 0.8299(3) 0.6731(2) 0.56902(11)
H64 H 0.8253 0.6738 0.5560
C88 C 0.7325(3) 0.6491(3) 0.55439(11)
H65 H 0.7549 0.6348 0.5460
H66 H 0.7356 0.6756 0.5513
C89 C 0.6770(3) 0.6364(3) 0.55265(11)
C90 C 0.6373(4) 0.6621(3) 0.55233(12)
H67 H 0.6451 0.6876 0.5520
C91 C 0.6648(3) 0.5994(3) 0.55248(12)
H68 H 0.6913 0.5815 0.5525
O22 O 0.22493(16) 0.48284(12) 0.87980(6)
O23 O 0.2818(2) 0.51116(13) 0.86123(7)
O24 O 0.2417(2) 0.45590(16) 0.79595(7)
C103 C 0.2461(3) 0.48815(19) 0.86374(10)
C104 C 0.1989(3) 0.4321(2) 0.85119(10)
H77 H 0.1879 0.4266 0.8634
C105 C 0.2278(2) 0.46397(18) 0.84780(9)
C106 C 0.2430(3) 0.4729(2) 0.82926(9)
H78 H 0.2625 0.4945 0.8269
C107 C 0.2288(3) 0.4498(2) 0.81484(10)
C108 C 0.2010(3) 0.4177(2) 0.81786(10)
H79 H 0.1922 0.4023 0.8077
C109 C 0.1858(3) 0.4080(2) 0.83616(11)
H80 H 0.1674 0.3860 0.8384
C110 C 0.2564(4) 0.4940(2) 0.79128(11)
H81 H 0.2326 0.5117 0.7971
H82 H 0.2915 0.4992 0.7957
C111 C 0.2539(4) 0.4972(3) 0.76966(12)
C112 C 0.2035(5) 0.4921(3) 0.76064(14)
H83 H 0.1736 0.4870 0.7677
C113 C 0.2982(5) 0.5046(3) 0.75905(14)
H84 H 0.3301 0.5076 0.7652
N6 N 0.4444(3) 0.28997(19) 0.54855(9)
C114 C 0.4685(3) 0.3224(3) 0.55198(11)
H85 H 0.5042 0.3221 0.5543
C115 C 0.4430(3) 0.3562(2) 0.55216(10)
H86 H 0.4612 0.3782 0.5547
C116 C 0.3895(3) 0.3574(2) 0.54846(9)
C117 C 0.3641(3) 0.3236(2) 0.54479(10)
H87 H 0.3283 0.3232 0.5424
C118 C 0.3928(3) 0.2904(2) 0.54469(11)
H88 H 0.3760 0.2679 0.5419
N7 N 0.0360(3) 0.7005(2) 0.54559(10)
C119 C 0.0857(4) 0.7054(2) 0.54831(11)
H89 H 0.0973 0.7297 0.5507
C120 C 0.1223(3) 0.6773(2) 0.54793(11)
H90 H 0.1575 0.6828 0.5498
C121 C 0.1066(3) 0.6406(2) 0.54471(10)
C122 C 0.0536(3) 0.6353(2) 0.54129(11)
H91 H 0.0408 0.6115 0.5385
C123 C 0.0197(3) 0.6658(3) 0.54213(13)
N8 N 0.4685(3) 0.30221(18) 0.60158(9)
C124 C 0.4824(3) 0.3383(2) 0.60538(11)
H93 H 0.5172 0.3435 0.6081
C125 C 0.4470(3) 0.3672(2) 0.60534(10)
H94 H 0.4577 0.3916 0.6082
C126 C 0.3943(3) 0.35992(18) 0.60097(9)
C127 C 0.3821(3) 0.32274(19) 0.59719(9)
H95 H 0.3476 0.3163 0.5945
C128 C 0.4191(3) 0.2956(2) 0.59725(11)
H96 H 0.4094 0.2713 0.5941
N9 N 0.0615(2) 0.71282(18) 0.59936(9)
C129 C 0.1126(3) 0.7102(2) 0.60167(11)
H97 H 0.1318 0.7320 0.6038
C130 C 0.1386(3) 0.67623(19) 0.60101(10)
H98 H 0.1747 0.6755 0.6026
C131 C 0.1112(3) 0.64350(18) 0.59801(8)
C132 C 0.0585(3) 0.6464(2) 0.59514(10)
H99 H 0.0389 0.6249 0.5927
C133 C 0.0344(3) 0.6807(2) 0.59579(11)
N10 N 0.0581(4) 0.7115(3) 0.24827(19)
C134 C 0.1122(5) 0.7131(3) 0.2469(3)
H101 H 0.1290 0.7362 0.2462
C135 C 0.1412(4) 0.6801(4) 0.2466(3)
H102 H 0.1774 0.6811 0.2456
C136 C 0.1161(5) 0.6455(3) 0.2476(3)
C137 C 0.0620(5) 0.6439(3) 0.2490(3)
H103 H 0.0452 0.6208 0.2497
C138 C 0.0329(4) 0.6769(3) 0.2493(2)
Cu5 Cu 0.01988(4) 0.76010(3) 0.60251(2)
O25 O 0.02762(19) 0.76852(13) 0.52706(7)
O27 O 0.0336(2) 0.7893(2) 0.44432(8)
O30 O 0.0180(4) 0.7494(3) 0.28421(13)
C139 C 0.0064(3) 0.7665(2) 0.51073(12)
C140 C 0.0323(3) 0.7892(3) 0.49520(12)
C141 C 0.0674(4) 0.8172(3) 0.49969(13)
H105 H 0.0754 0.8222 0.5123
C142 C 0.0904(4) 0.8378(3) 0.48563(14)
H106 H 0.1119 0.8579 0.4887
C143 C 0.0816(4) 0.8286(3) 0.46683(14)
H107 H 0.0988 0.8414 0.4572
C144 C 0.0473(4) 0.8004(3) 0.46274(12)
C145 C 0.0207(4) 0.7806(3) 0.47658(12)
C146 C 0.0659(4) 0.8033(3) 0.42976(14)
H109 H 0.1021 0.7970 0.4323
H110 H 0.0629 0.8305 0.4291
C147 C 0.0484(4) 0.7858(3) 0.41133(14)
C148 C 0.0811(5) 0.7609(3) 0.40272(17)
H111 H 0.1114 0.7524 0.4086
C149 C 0.0679(5) 0.7496(3) 0.38569(18)
H112 H 0.0908 0.7334 0.3795
C150 C 0.0241(5) 0.7593(3) 0.37636(16)
C152 C 0.0031(5) 0.7989(3) 0.40282(16)
C153 C 0.0151(5) 0.7502(4) 0.35514(17)
H116 H 0.0475 0.7530 0.3481
H117 H 0.0135 0.7407 0.3195
Cu6 Cu 0.98828(5) 0.74406(3) 0.54694(2)
Cu8 Cu 0.48828(5) 0.24406(3) 0.54694(2)
Cu9 Cu -0.0000 0.7500 0.2500
Cu11 Cu 0.51988(4) 0.26010(3) 0.60251(2)
Cu12 Cu 0.26988(4) 0.51010(3) 0.89749(2)
O31 O 0.2027(4) 0.4699(2) 0.22971(12)
O32 O 0.2680(4) 0.4994(3) 0.21579(13)
O35 O 0.05099(19) 0.77456(13) 0.57197(8)
O36 O 0.08666(18) 0.79536(14) 0.59806(8)
O38 O 0.0318(2) 0.76116(13) 0.63877(7)
N13 N 0.3081(4) 0.4615(3) 0.25173(19)
O12 O 0.9912(2) 0.39663(18) 0.57528(7)
C66 C 0.9824(3) 0.4001(2) 0.59509(11)
H49 H 0.9867 0.4259 0.5991
C67 C 0.9266(3) 0.3872(2) 0.59806(10)
C68 C 0.9147(3) 0.3499(2) 0.59851(11)
H51 H 0.9416 0.3323 0.5988
C69 C 0.8858(3) 0.4121(2) 0.59849(11)
H52 H 0.8928 0.4377 0.5988
O19 O 0.55099(19) 0.27456(13) 0.57197(8)
O20 O 0.58666(18) 0.29536(14) 0.59806(8)
O21 O 0.7588(2) 0.35337(18) 0.57528(7)
C92 C 0.5863(3) 0.29225(18) 0.58018(13)
C93 C 0.6296(2) 0.31026(18) 0.56920(10)
C94 C 0.6240(3) 0.3140(2) 0.54980(11)
H69 H 0.5945 0.3050 0.5436
C95 C 0.6644(3) 0.3320(2) 0.53965(12)
H70 H 0.6613 0.3350 0.5266
C96 C 0.7080(3) 0.3450(3) 0.54861(12)
H71 H 0.7341 0.3571 0.5418
C97 C 0.7133(3) 0.3402(2) 0.56793(11)
C98 C 0.6742(2) 0.32276(19) 0.57860(10)
H72 H 0.6778 0.3196 0.5916
C99 C 0.7676(3) 0.3499(2) 0.59509(11)
H73 H 0.7633 0.3241 0.5991
H74 H 0.7436 0.3657 0.6021
C100 C 0.8234(3) 0.3628(2) 0.59806(10)
C101 C 0.8353(3) 0.4001(2) 0.59851(11)
H75 H 0.8084 0.4177 0.5988
C102 C 0.8642(3) 0.3379(2) 0.59849(11)
H76 H 0.8572 0.3123 0.5988
H92 H 0.9843 0.6617 0.5402
H100 H 0.9986 0.6821 0.5937
H104 H 0.9967 0.6759 0.2502
O26 O 0.9670(3) 0.7481(2) 0.50790(9)
O28 O 0.9971(3) 0.7126(2) 0.35405(10)
O29 O 0.9527(4) 0.7199(2) 0.27029(12)
H108 H 0.9961 0.7624 0.4735
C151 C 0.9906(5) 0.7852(4) 0.38494(17)
H113 H 0.9605 0.7932 0.3788
H114 H 0.9817 0.8163 0.4089
H115 H 0.9894 0.7672 0.3498
C154 C 0.9790(4) 0.7012(3) 0.33570(17)
C155 C 0.9915(3) 0.7200(3) 0.31936(16)
C156 C 0.9699(4) 0.7066(3) 0.30262(14)
C157 C 0.9364(4) 0.6770(4) 0.30184(18)
H118 H 0.9213 0.6695 0.2905
C158 C 0.9253(5) 0.6580(3) 0.3191(2)
H119 H 0.9038 0.6370 0.3191
C159 C 0.9468(4) 0.6712(3) 0.33567(17)
H120 H 0.9391 0.6592 0.3470
C160 C 0.9814(6) 0.7284(4) 0.2851(2)
Cu9_2 Cu 1.0000 0.7500 0.2500
O37 O 0.97493(16) 0.73284(12) 0.62020(6)
N11 N 0.9444(3) 0.78997(19) 0.54855(9)
N12 N 0.9685(3) 0.80221(18) 0.60158(9)
Cu7 Cu 0.76172(5) 0.00594(3) 0.54694(2)
O12_2 O 0.2588(2) 0.85337(18) 0.57528(7)
H25_2 H 0.0042 0.8221 0.5543
H33_2 H 0.0172 0.8435 0.6081
C59_2 C 0.0863(3) 0.79225(18) 0.58018(13)
C60_2 C 0.1296(2) 0.81026(18) 0.56920(10)
C61_2 C 0.1240(3) 0.8140(2) 0.54980(11)
H45_2 H 0.0945 0.8050 0.5436
C62_2 C 0.1644(3) 0.8320(2) 0.53965(12)
H46_2 H 0.1613 0.8350 0.5266
C63_2 C 0.2080(3) 0.8450(3) 0.54861(12)
H47_2 H 0.2341 0.8571 0.5418
C64_2 C 0.2133(3) 0.8402(2) 0.56793(11)
C65_2 C 0.1742(2) 0.82276(19) 0.57860(10)
H48_2 H 0.1778 0.8196 0.5916
C66_2 C 0.2676(3) 0.8499(2) 0.59509(11)
H49_2 H 0.2633 0.8241 0.5991
H50_2 H 0.2436 0.8657 0.6021
C67_2 C 0.3234(3) 0.8628(2) 0.59806(10)
C68_2 C 0.3353(3) 0.9001(2) 0.59851(11)
H51_2 H 0.3084 0.9177 0.5988
C69_2 C 0.3642(3) 0.8379(2) 0.59849(11)
H52_2 H 0.3572 0.8123 0.5988
H54_2 H 0.0125 0.7445 0.6731
C77_2 C 0.0064(4) 0.7440(2) 0.70872(11)
H58_2 H 0.0415 0.7492 0.7043
C78_2 C 0.0039(4) 0.7472(3) 0.73034(12)
C80_2 C 0.0482(5) 0.7546(3) 0.74095(14)
H60_2 H 0.0801 0.7576 0.7348
O19_2 O 0.69901(19) 0.97544(13) 0.57197(8)
O20_2 O 0.66334(18) 0.95464(14) 0.59806(8)
O21_2 O 0.4912(2) 0.89663(18) 0.57528(7)
C92_2 C 0.6637(3) 0.95775(18) 0.58018(13)
C93_2 C 0.6204(2) 0.93974(18) 0.56920(10)
C94_2 C 0.6260(3) 0.9360(2) 0.54980(11)
H69_2 H 0.6555 0.9450 0.5436
C95_2 C 0.5856(3) 0.9180(2) 0.53965(12)
H70_2 H 0.5887 0.9150 0.5266
C96_2 C 0.5420(3) 0.9050(3) 0.54861(12)
H71_2 H 0.5159 0.8929 0.5418
C97_2 C 0.5367(3) 0.9098(2) 0.56793(11)
C98_2 C 0.5758(2) 0.92724(19) 0.57860(10)
H72_2 H 0.5722 0.9304 0.5916
C99_2 C 0.4824(3) 0.9001(2) 0.59509(11)
H73_2 H 0.4867 0.9259 0.5991
H74_2 H 0.5064 0.8843 0.6021
C100_2 C 0.4266(3) 0.8872(2) 0.59806(10)
C101_2 C 0.4147(3) 0.8499(2) 0.59851(11)
H75_2 H 0.4416 0.8323 0.5988
C102_2 C 0.3858(3) 0.9121(2) 0.59849(11)
H76_2 H 0.3928 0.9377 0.5988
O22_2 O 0.02507(16) 0.76716(12) 0.87980(6)
O24_2 O 0.0083(2) 0.79410(16) 0.79595(7)
C103_2 C 0.0039(3) 0.76185(19) 0.86374(10)
C104_2 C 0.0511(3) 0.8179(2) 0.85119(10)
H77_2 H 0.0621 0.8234 0.8634
C105_2 C 0.0222(2) 0.78603(18) 0.84780(9)
C106_2 C 0.0070(3) 0.7771(2) 0.82926(9)
C107_2 C 0.0212(3) 0.8002(2) 0.81484(10)
C108_2 C 0.0490(3) 0.8323(2) 0.81786(10)
H79_2 H 0.0578 0.8477 0.8077
C109_2 C 0.0642(3) 0.8420(2) 0.83616(11)
H80_2 H 0.0826 0.8640 0.8384
H81_2 H 0.0174 0.7383 0.7971
C112_2 C 0.0465(5) 0.7579(3) 0.76064(14)
H83_2 H 0.0764 0.7630 0.7677
Cu10 Cu 0.73012(4) 0.98990(3) 0.60251(2)
O31_2 O 0.0473(4) 0.7801(2) 0.22971(12)
O15_2 O 0.9917(2) 0.70590(16) 0.70405(7)
C33_2 C 0.9685(3) 0.8224(3) 0.55198(11)
C34_2 C 0.9430(3) 0.8562(2) 0.55216(10)
H26_2 H 0.9612 0.8782 0.5547
C35_2 C 0.8895(3) 0.8574(2) 0.54846(9)
C36_2 C 0.8641(3) 0.8236(2) 0.54479(10)
H27_2 H 0.8283 0.8232 0.5424
C37_2 C 0.8928(3) 0.7904(2) 0.54469(11)
H28_2 H 0.8760 0.7679 0.5419
C43_2 C 0.9824(3) 0.8383(2) 0.60538(11)
C44_2 C 0.9470(3) 0.8672(2) 0.60534(10)
H34_2 H 0.9577 0.8916 0.6082
C45_2 C 0.8943(3) 0.85992(18) 0.60097(9)
C46_2 C 0.8821(3) 0.82274(19) 0.59719(9)
H35_2 H 0.8476 0.8163 0.5945
C47_2 C 0.9191(3) 0.7956(2) 0.59725(11)
H36_2 H 0.9094 0.7713 0.5941
C70_2 C 0.9961(3) 0.73815(19) 0.63626(10)
C71_2 C 0.9489(3) 0.6821(2) 0.64881(10)
H53_2 H 0.9379 0.6766 0.6366
C72_2 C 0.9778(2) 0.71397(18) 0.65220(9)
C73_2 C 0.9930(3) 0.7229(2) 0.67074(9)
C74_2 C 0.9788(3) 0.6998(2) 0.68516(10)
C75_2 C 0.9510(3) 0.6677(2) 0.68214(10)
H55_2 H 0.9422 0.6523 0.6923
C76_2 C 0.9358(3) 0.6580(2) 0.66384(11)
H56_2 H 0.9174 0.6360 0.6616
H57_2 H 0.9826 0.7617 0.7029
C79_2 C 0.9535(5) 0.7421(3) 0.73936(14)
H59_2 H 0.9236 0.7370 0.7323
O23_2 O 0.9682(2) 0.73884(13) 0.86123(7)
H78_2 H 0.9875 0.7555 0.8269
C110_2 C 0.9936(4) 0.7560(2) 0.79128(11)
H82_2 H 0.9585 0.7508 0.7957
C111_2 C 0.9961(4) 0.7528(3) 0.76966(12)
C113_2 C 0.9518(5) 0.7454(3) 0.75905(14)
H84_2 H 0.9199 0.7424 0.7652
N6_2 N 0.8056(3) 0.96003(19) 0.54855(9)
C114_2 C 0.7815(3) 0.9276(3) 0.55198(11)
H85_2 H 0.7458 0.9279 0.5543
C115_2 C 0.8070(3) 0.8938(2) 0.55216(10)
H86_2 H 0.7888 0.8718 0.5547
C116_2 C 0.8605(3) 0.8926(2) 0.54846(9)
C117_2 C 0.8859(3) 0.9264(2) 0.54479(10)
H87_2 H 0.9217 0.9268 0.5424
C118_2 C 0.8572(3) 0.9596(2) 0.54469(11)
H88_2 H 0.8740 0.9821 0.5419
N8_2 N 0.7815(3) 0.94779(18) 0.60158(9)
C124_2 C 0.7676(3) 0.9117(2) 0.60538(11)
H93_2 H 0.7328 0.9065 0.6081
C125_2 C 0.8030(3) 0.8828(2) 0.60534(10)
H94_2 H 0.7923 0.8584 0.6082
C126_2 C 0.8557(3) 0.89008(18) 0.60097(9)
C127_2 C 0.8679(3) 0.92726(19) 0.59719(9)
H95_2 H 0.9024 0.9337 0.5945
C128_2 C 0.8309(3) 0.9544(2) 0.59725(11)
H96_2 H 0.8406 0.9787 0.5941
Cu12_2 Cu 0.98012(4) 0.73990(3) 0.89749(2)
O32_2 O 0.9820(4) 0.7506(3) 0.21579(13)
N13_2 N 0.9419(4) 0.7885(3) 0.25173(19)
O9_2 O 0.0035(2) 0.10769(18) 0.57400(7)
C55_2 C 0.0175(3) 0.1009(3) 0.55439(11)
H42_2 H 0.0144 0.0744 0.5513
C56_2 C 0.0730(3) 0.1136(3) 0.55265(11)
C57_2 C 0.1127(4) 0.0879(3) 0.55233(12)
H43_2 H 0.1049 0.0624 0.5520
C58_2 C 0.0852(3) 0.1506(3) 0.55248(12)
H44_2 H 0.0587 0.1685 0.5525
O16_2 O 0.45264(17) 0.22380(12) 0.57213(8)
O17_2 O 0.41023(17) 0.20342(14) 0.54714(8)
O18_2 O 0.2465(2) 0.14231(18) 0.57400(7)
C81_2 C 0.4152(3) 0.20624(19) 0.56437(12)
C82_2 C 0.3746(3) 0.18848(18) 0.57698(10)
C83_2 C 0.3808(3) 0.18708(19) 0.59650(10)
H61_2 H 0.4098 0.1983 0.6020
C84_2 C 0.3448(3) 0.1694(2) 0.60769(11)
H62_2 H 0.3500 0.1679 0.6207
C85_2 C 0.3012(3) 0.1540(2) 0.59969(11)
H63_2 H 0.2769 0.1415 0.6072
C86_2 C 0.2930(3) 0.1571(2) 0.58005(11)
C87_2 C 0.3299(3) 0.1731(2) 0.56902(11)
H64_2 H 0.3253 0.1738 0.5560
C88_2 C 0.2325(3) 0.1491(3) 0.55439(11)
H65_2 H 0.2549 0.1348 0.5460
H66_2 H 0.2356 0.1756 0.5513
C89_2 C 0.1770(3) 0.1364(3) 0.55265(11)
C90_2 C 0.1373(4) 0.1621(3) 0.55233(12)
H67_2 H 0.1451 0.1876 0.5520
C91_2 C 0.1648(3) 0.0994(3) 0.55248(12)
H68_2 H 0.1913 0.0815 0.5525
Cu2_2 Cu 0.7500 -0.0000 0.2500
O2_2 O 0.7830(3) 0.0019(2) 0.50790(9)
O4_2 O 0.7529(3) 0.0374(2) 0.35405(10)
O5_2 O 0.7973(4) 0.0301(2) 0.27029(12)
O6_2 O 0.7320(4) 0.0006(3) 0.28421(13)
O7_2 O 0.79736(17) 0.02620(12) 0.57213(8)
O8_2 O 0.83977(17) 0.04658(14) 0.54714(8)
O13_2 O 0.77507(16) 0.01716(12) 0.62020(6)
O15_3 O 0.7583(2) 0.04410(16) 0.70405(7)
N2_2 N 0.7140(3) 0.0495(2) 0.54559(10)
N4_2 N 0.6885(2) 0.03718(18) 0.59936(9)
N5_2 N 0.6919(4) 0.0385(3) 0.24827(19)
C1_2 C 0.6378(5) 0.0369(3) 0.2469(3)
H1_2 H 0.6210 0.0138 0.2462
C2_2 C 0.6088(4) 0.0699(4) 0.2466(3)
H2_2 H 0.5726 0.0689 0.2456
C3_2 C 0.6339(5) 0.1045(3) 0.2476(3)
C4_2 C 0.6880(5) 0.1061(3) 0.2490(3)
H3_2 H 0.7048 0.1292 0.2497
C5_2 C 0.7171(4) 0.0731(3) 0.2493(2)
H4_2 H 0.7533 0.0741 0.2502
C16_2 C 0.6821(5) 0.0004(3) 0.38569(18)
H12_2 H 0.6592 0.0166 0.3795
C21_2 C 0.7710(4) 0.0488(3) 0.33570(17)
C22_2 C 0.7585(3) 0.0300(3) 0.31936(16)
H17_2 H 0.7365 0.0093 0.3195
C23_2 C 0.7801(4) 0.0434(3) 0.30262(14)
C24_2 C 0.8136(4) 0.0730(4) 0.30184(18)
H18_2 H 0.8287 0.0805 0.2905
C25_2 C 0.8247(5) 0.0920(3) 0.3191(2)
H19_2 H 0.8462 0.1130 0.3191
C26_2 C 0.8032(4) 0.0788(3) 0.33567(17)
H20_2 H 0.8109 0.0908 0.3470
C27_2 C 0.7686(6) 0.0216(4) 0.2851(2)
C28_2 C 0.6643(4) 0.0446(2) 0.54831(11)
H21_2 H 0.6527 0.0203 0.5507
C29_2 C 0.6277(3) 0.0727(2) 0.54793(11)
H22_2 H 0.5925 0.0672 0.5498
C30_2 C 0.6434(3) 0.1094(2) 0.54471(10)
C31_2 C 0.6964(3) 0.1147(2) 0.54129(11)
H23_2 H 0.7092 0.1385 0.5385
C32_2 C 0.7303(3) 0.0842(3) 0.54213(13)
H24_2 H 0.7657 0.0883 0.5402
C38_2 C 0.6374(3) 0.0398(2) 0.60167(11)
H29_2 H 0.6182 0.0180 0.6038
C39_2 C 0.6114(3) 0.07377(19) 0.60101(10)
H30_2 H 0.5753 0.0745 0.6026
C40_2 C 0.6388(3) 0.10650(18) 0.59801(8)
C41_2 C 0.6915(3) 0.1036(2) 0.59514(10)
H31_2 H 0.7111 0.1251 0.5927
C42_2 C 0.7156(3) 0.0693(2) 0.59579(11)
H32_2 H 0.7514 0.0679 0.5937
C48_2 C 0.8348(3) 0.04376(19) 0.56437(12)
C49_2 C 0.8754(3) 0.06152(18) 0.57698(10)
C50_2 C 0.8692(3) 0.06292(19) 0.59650(10)
H37_2 H 0.8402 0.0517 0.6020
C51_2 C 0.9052(3) 0.0806(2) 0.60769(11)
H38_2 H 0.9000 0.0821 0.6207
C52_2 C 0.9488(3) 0.0960(2) 0.59969(11)
H39_2 H 0.9731 0.1085 0.6072
C53_2 C 0.9570(3) 0.0929(2) 0.58005(11)
C54_2 C 0.9201(3) 0.0769(2) 0.56902(11)
H40_2 H 0.9247 0.0762 0.5560
H41_2 H 0.9951 0.1152 0.5460
C70_3 C 0.7539(3) 0.01185(19) 0.63626(10)
C71_3 C 0.8011(3) 0.0679(2) 0.64881(10)
H53_3 H 0.8121 0.0734 0.6366
C72_3 C 0.7722(2) 0.03603(18) 0.65220(9)
C73_3 C 0.7570(3) 0.0271(2) 0.67074(9)
H54_3 H 0.7375 0.0055 0.6731
C74_3 C 0.7712(3) 0.0502(2) 0.68516(10)
C75_3 C 0.7990(3) 0.0823(2) 0.68214(10)
H55_3 H 0.8078 0.0977 0.6923
C76_3 C 0.8142(3) 0.0920(2) 0.66384(11)
H56_3 H 0.8326 0.1140 0.6616
C77_3 C 0.7436(4) 0.0060(2) 0.70872(11)
H58_3 H 0.7085 0.0008 0.7043
C78_3 C 0.7461(4) 0.0028(3) 0.73034(12)
C79_3 C 0.7965(5) 0.0079(3) 0.73936(14)
H59_3 H 0.8264 0.0130 0.7323
O23_3 O 0.7818(2) 0.01116(13) 0.86123(7)
H81_3 H 0.7326 0.0117 0.7971
C113_3 C 0.7982(5) 0.0046(3) 0.75905(14)
H84_3 H 0.8301 0.0076 0.7652
N7_2 N 0.5360(3) 0.2005(2) 0.54559(10)
C119_2 C 0.5857(4) 0.2054(2) 0.54831(11)
H89_2 H 0.5973 0.2297 0.5507
C120_2 C 0.6223(3) 0.1773(2) 0.54793(11)
H90_2 H 0.6575 0.1828 0.5498
C121_2 C 0.6066(3) 0.1406(2) 0.54471(10)
C122_2 C 0.5536(3) 0.1353(2) 0.54129(11)
H91_2 H 0.5408 0.1115 0.5385
C123_2 C 0.5197(3) 0.1658(3) 0.54213(13)
H92_2 H 0.4843 0.1617 0.5402
N9_2 N 0.5615(2) 0.21282(18) 0.59936(9)
C129_2 C 0.6126(3) 0.2102(2) 0.60167(11)
H97_2 H 0.6318 0.2320 0.6038
C130_2 C 0.6386(3) 0.17623(19) 0.60101(10)
H98_2 H 0.6747 0.1755 0.6026
C131_2 C 0.6112(3) 0.14350(18) 0.59801(8)
C132_2 C 0.5585(3) 0.1464(2) 0.59514(10)
H99_2 H 0.5389 0.1249 0.5927
C133_2 C 0.5344(3) 0.1807(2) 0.59579(11)
H100_2 H 0.4986 0.1821 0.5937
N10_2 N 0.5581(4) 0.2115(3) 0.24827(19)
C134_2 C 0.6122(5) 0.2131(3) 0.2469(3)
H101_2 H 0.6290 0.2362 0.2462
C135_2 C 0.6412(4) 0.1801(4) 0.2466(3)
H102_2 H 0.6774 0.1811 0.2456
C136_2 C 0.6161(5) 0.1455(3) 0.2476(3)
C137_2 C 0.5620(5) 0.1439(3) 0.2490(3)
H103_2 H 0.5452 0.1208 0.2497
C138_2 C 0.5329(4) 0.1769(3) 0.2493(2)
H104_2 H 0.4967 0.1759 0.2502
O25_2 O 0.52762(19) 0.26852(13) 0.52706(7)
O26_2 O 0.4670(3) 0.2481(2) 0.50790(9)
O27_2 O 0.5336(2) 0.2893(2) 0.44432(8)
O28_2 O 0.4971(3) 0.2126(2) 0.35405(10)
O29_2 O 0.4527(4) 0.2199(2) 0.27029(12)
O30_2 O 0.5180(4) 0.2494(3) 0.28421(13)
C139_2 C 0.5064(3) 0.2665(2) 0.51073(12)
C140_2 C 0.5323(3) 0.2892(3) 0.49520(12)
C141_2 C 0.5674(4) 0.3172(3) 0.49969(13)
H105_2 H 0.5754 0.3222 0.5123
C142_2 C 0.5904(4) 0.3378(3) 0.48563(14)
H106_2 H 0.6119 0.3579 0.4887
C143_2 C 0.5816(4) 0.3286(3) 0.46683(14)
H107_2 H 0.5988 0.3414 0.4572
C144_2 C 0.5473(4) 0.3004(3) 0.46274(12)
C145_2 C 0.5207(4) 0.2806(3) 0.47658(12)
H108_2 H 0.4961 0.2624 0.4735
C146_2 C 0.5659(4) 0.3033(3) 0.42976(14)
H109_2 H 0.6021 0.2970 0.4323
H110_2 H 0.5629 0.3305 0.4291
C147_2 C 0.5484(4) 0.2858(3) 0.41133(14)
C148_2 C 0.5811(5) 0.2609(3) 0.40272(17)
H111_2 H 0.6114 0.2524 0.4086
C149_2 C 0.5679(5) 0.2496(3) 0.38569(18)
H112_2 H 0.5908 0.2334 0.3795
C150_2 C 0.5241(5) 0.2593(3) 0.37636(16)
C151_2 C 0.4906(5) 0.2852(4) 0.38494(17)
H113_2 H 0.4605 0.2932 0.3788
C152_2 C 0.5031(5) 0.2989(3) 0.40282(16)
H114_2 H 0.4817 0.3163 0.4089
C153_2 C 0.5151(5) 0.2502(4) 0.35514(17)
H115_2 H 0.4894 0.2672 0.3498
H116_2 H 0.5475 0.2530 0.3481
C154_2 C 0.4790(4) 0.2012(3) 0.33570(17)
C155_2 C 0.4915(3) 0.2200(3) 0.31936(16)
H117_2 H 0.5135 0.2407 0.3195
C156_2 C 0.4699(4) 0.2066(3) 0.30262(14)
C157_2 C 0.4364(4) 0.1770(4) 0.30184(18)
H118_2 H 0.4213 0.1695 0.2905
C158_2 C 0.4253(5) 0.1580(3) 0.3191(2)
H119_2 H 0.4038 0.1370 0.3191
C159_2 C 0.4468(4) 0.1712(3) 0.33567(17)
H120_2 H 0.4391 0.1592 0.3470
C160_2 C 0.4814(6) 0.2284(4) 0.2851(2)
Cu9_3 Cu 0.5000 0.2500 0.2500
Cu12_3 Cu 0.76988(4) 0.01010(3) 0.89749(2)
O37_2 O 0.47493(16) 0.23284(12) 0.62020(6)
O38_2 O 0.5318(2) 0.26116(13) 0.63877(7)
Cu2_3 Cu 0.7500 1.0000 0.2500
O1_2 O 0.72238(19) 0.98148(13) 0.52706(7)
O3_2 O 0.7164(2) 0.9607(2) 0.44432(8)
O14_2 O 0.7182(2) 0.98884(13) 0.63877(7)
C6_2 C 0.7436(3) 0.9835(2) 0.51073(12)
C7_2 C 0.7177(3) 0.9608(3) 0.49520(12)
C8_2 C 0.6826(4) 0.9328(3) 0.49969(13)
H5_2 H 0.6746 0.9278 0.5123
C9_2 C 0.6596(4) 0.9122(3) 0.48563(14)
H6_2 H 0.6381 0.8921 0.4887
C10_2 C 0.6684(4) 0.9214(3) 0.46683(14)
H7_2 H 0.6512 0.9086 0.4572
C11_2 C 0.7027(4) 0.9496(3) 0.46274(12)
C12_2 C 0.7293(4) 0.9694(3) 0.47658(12)
H8_2 H 0.7539 0.9876 0.4735
C13_2 C 0.6841(4) 0.9467(3) 0.42976(14)
H9_2 H 0.6479 0.9530 0.4323
H10_2 H 0.6871 0.9195 0.4291
C14_2 C 0.7016(4) 0.9642(3) 0.41133(14)
C15_2 C 0.6689(5) 0.9891(3) 0.40272(17)
H11_2 H 0.6386 0.9976 0.4086
C17_2 C 0.7259(5) 0.9907(3) 0.37636(16)
C18_2 C 0.7594(5) 0.9648(4) 0.38494(17)
H13_2 H 0.7895 0.9568 0.3788
C19_2 C 0.7469(5) 0.9511(3) 0.40282(16)
H14_2 H 0.7683 0.9337 0.4089
C20_2 C 0.7349(5) 0.9998(4) 0.35514(17)
H15_2 H 0.7606 0.9828 0.3498
H16_2 H 0.7025 0.9970 0.3481
H57_3 H 0.7674 0.9883 0.7029
C80_3 C 0.7018(5) 0.9954(3) 0.74095(14)
H60_3 H 0.6699 0.9924 0.7348
O22_3 O 0.72493(16) 0.98284(12) 0.87980(6)
O24_3 O 0.7417(2) 0.95590(16) 0.79595(7)
C103_3 C 0.7461(3) 0.98815(19) 0.86374(10)
C104_3 C 0.6989(3) 0.9321(2) 0.85119(10)
H77_3 H 0.6879 0.9266 0.8634
C105_3 C 0.7278(2) 0.96397(18) 0.84780(9)
C106_3 C 0.7430(3) 0.9729(2) 0.82926(9)
H78_3 H 0.7625 0.9945 0.8269
C107_3 C 0.7288(3) 0.9498(2) 0.81484(10)
C108_3 C 0.7010(3) 0.9177(2) 0.81786(10)
H79_3 H 0.6922 0.9023 0.8077
C109_3 C 0.6858(3) 0.9080(2) 0.83616(11)
H80_3 H 0.6674 0.8860 0.8384
C110_3 C 0.7564(4) 0.9940(2) 0.79128(11)
H82_3 H 0.7915 0.9992 0.7957
C111_3 C 0.7539(4) 0.9972(3) 0.76966(12)
C112_3 C 0.7035(5) 0.9921(3) 0.76064(14)
H83_3 H 0.6736 0.9870 0.7677
O31_3 O 0.7027(4) 0.9699(2) 0.22971(12)
O32_3 O 0.7680(4) 0.9994(3) 0.21579(13)
N13_3 N 0.8081(4) 0.9615(3) 0.25173(19)
O15_4 O 0.4917(2) 0.20590(16) 0.70405(7)
C70_4 C 0.4961(3) 0.23815(19) 0.63626(10)
C71_4 C 0.4489(3) 0.1821(2) 0.64881(10)
H53_4 H 0.4379 0.1766 0.6366
C72_4 C 0.4778(2) 0.21397(18) 0.65220(9)
C73_4 C 0.4930(3) 0.2229(2) 0.67074(9)
H54_4 H 0.5125 0.2445 0.6731
C74_4 C 0.4788(3) 0.1998(2) 0.68516(10)
C75_4 C 0.4510(3) 0.1677(2) 0.68214(10)
H55_4 H 0.4422 0.1523 0.6923
C76_4 C 0.4358(3) 0.1580(2) 0.66384(11)
H56_4 H 0.4174 0.1360 0.6616
C77_4 C 0.5064(4) 0.2440(2) 0.70872(11)
H57_4 H 0.4826 0.2617 0.7029
H58_4 H 0.5415 0.2492 0.7043
C78_4 C 0.5039(4) 0.2472(3) 0.73034(12)
C79_4 C 0.4535(5) 0.2421(3) 0.73936(14)
H59_4 H 0.4236 0.2370 0.7323
C80_4 C 0.5482(5) 0.2546(3) 0.74095(14)
H60_4 H 0.5801 0.2576 0.7348
O22_4 O 0.52507(16) 0.26716(12) 0.87980(6)
O23_4 O 0.4682(2) 0.23884(13) 0.86123(7)
O24_4 O 0.5083(2) 0.29410(16) 0.79595(7)
C103_4 C 0.5039(3) 0.26185(19) 0.86374(10)
C104_4 C 0.5511(3) 0.3179(2) 0.85119(10)
H77_4 H 0.5621 0.3234 0.8634
C105_4 C 0.5222(2) 0.28603(18) 0.84780(9)
C106_4 C 0.5070(3) 0.2771(2) 0.82926(9)
H78_4 H 0.4875 0.2555 0.8269
C107_4 C 0.5212(3) 0.3002(2) 0.81484(10)
C108_4 C 0.5490(3) 0.3323(2) 0.81786(10)
H79_4 H 0.5578 0.3477 0.8077
C109_4 C 0.5642(3) 0.3420(2) 0.83616(11)
H80_4 H 0.5826 0.3640 0.8384
C110_4 C 0.4936(4) 0.2560(2) 0.79128(11)
H81_4 H 0.5174 0.2383 0.7971
H82_4 H 0.4585 0.2508 0.7957
C111_4 C 0.4961(4) 0.2528(3) 0.76966(12)
C112_4 C 0.5465(5) 0.2579(3) 0.76064(14)
H83_4 H 0.5764 0.2630 0.7677
C113_4 C 0.4518(5) 0.2454(3) 0.75905(14)
H84_4 H 0.4199 0.2424 0.7652
Cu12_4 Cu 0.48012(4) 0.23990(3) 0.89749(2)
O31_4 O 0.5473(4) 0.2801(2) 0.22971(12)
O32_4 O 0.4820(4) 0.2506(3) 0.21579(13)
N13_4 N 0.4419(4) 0.2885(3) 0.25173(19)
O12_3 O 0.0088(2) 0.10337(18) 0.92472(7)
C66_3 C 0.0176(3) 0.0999(2) 0.90491(11)
H49_3 H 0.0133 0.0741 0.9009
C67_3 C 0.0734(3) 0.1128(2) 0.90194(10)
C68_3 C 0.0853(3) 0.1501(2) 0.90149(11)
H51_3 H 0.0584 0.1677 0.9012
C69_3 C 0.1142(3) 0.0879(2) 0.90151(11)
H52_3 H 0.1072 0.0623 0.9012
O19_3 O 0.44901(19) 0.22544(13) 0.92803(8)
O20_3 O 0.41334(18) 0.20464(14) 0.90194(8)
O21_3 O 0.2412(2) 0.14663(18) 0.92472(7)
C92_3 C 0.4137(3) 0.20775(18) 0.91982(13)
C93_3 C 0.3704(2) 0.18974(18) 0.93080(10)
C94_3 C 0.3760(3) 0.1860(2) 0.95020(11)
H69_3 H 0.4055 0.1950 0.9564
C95_3 C 0.3356(3) 0.1680(2) 0.96035(12)
H70_3 H 0.3387 0.1650 0.9734
C96_3 C 0.2920(3) 0.1550(3) 0.95139(12)
H71_3 H 0.2659 0.1429 0.9582
C97_3 C 0.2867(3) 0.1598(2) 0.93207(11)
C98_3 C 0.3258(2) 0.17724(19) 0.92140(10)
H72_3 H 0.3222 0.1804 0.9084
C99_3 C 0.2324(3) 0.1501(2) 0.90491(11)
H73_3 H 0.2367 0.1759 0.9009
H74_3 H 0.2564 0.1343 0.8979
C100_3 C 0.1766(3) 0.1372(2) 0.90194(10)
C101_3 C 0.1647(3) 0.0999(2) 0.90149(11)
H75_3 H 0.1916 0.0823 0.9012
C102_3 C 0.1358(3) 0.1621(2) 0.90151(11)
H76_3 H 0.1428 0.1877 0.9012
Cu7_2 Cu 0.51172(5) 0.25594(3) 0.95306(2)
H104_3 H 0.0033 0.8241 0.2498
O28_3 O 0.0029(3) 0.7874(2) 0.14595(10)
H108_3 H 0.0039 0.7376 0.0265
C151_3 C 0.0094(5) 0.7148(4) 0.11506(17)
H113_3 H 0.0395 0.7068 0.1212
H114_3 H 0.0183 0.6837 0.0911
H115_3 H 0.0106 0.7328 0.1502
C154_3 C 0.0210(4) 0.7988(3) 0.16430(17)
C155_3 C 0.0085(3) 0.7800(3) 0.18064(16)
C156_3 C 0.0301(4) 0.7934(3) 0.19738(14)
C157_3 C 0.0636(4) 0.8230(4) 0.19816(18)
H118_3 H 0.0787 0.8305 0.2095
C158_3 C 0.0747(5) 0.8420(3) 0.1809(2)
H119_3 H 0.0962 0.8630 0.1809
C159_3 C 0.0532(4) 0.8288(3) 0.16433(17)
H120_3 H 0.0609 0.8408 0.1530
C160_3 C 0.0186(6) 0.7716(4) 0.2149(2)
H92_3 H 0.0157 0.8383 0.9598
H100_3 H 0.0014 0.8179 0.9063
Cu4 Cu 0.01172(5) 0.75594(3) 0.95306(2)
O26_3 O 0.0330(3) 0.7519(2) 0.99210(9)
O33 O 0.04736(17) 0.77620(12) 0.92787(8)
O34 O 0.08977(17) 0.79658(14) 0.95286(8)
N11_2 N 0.0556(3) 0.71003(19) 0.95145(9)
N12_2 N 0.0315(3) 0.69779(18) 0.89842(9)
O3_3 O 0.7836(2) 0.0393(2) 0.05568(8)
C7_3 C 0.7823(3) 0.0392(3) 0.00480(12)
C8_3 C 0.8174(4) 0.0672(3) 0.00031(13)
C9_3 C 0.8404(4) 0.0878(3) 0.01437(14)
H6_3 H 0.8619 0.1079 0.0113
C10_3 C 0.8316(4) 0.0786(3) 0.03317(14)
H7_3 H 0.8488 0.0914 0.0428
C11_3 C 0.7973(4) 0.0504(3) 0.03726(12)
C12_3 C 0.7707(4) 0.0306(3) 0.02342(12)
H8_3 H 0.7461 0.0124 0.0265
C13_3 C 0.8159(4) 0.0533(3) 0.07024(14)
H9_3 H 0.8521 0.0470 0.0677
H10_3 H 0.8129 0.0805 0.0709
C14_3 C 0.7984(4) 0.0358(3) 0.08867(14)
C15_3 C 0.8311(5) 0.0109(3) 0.09728(17)
H11_3 H 0.8614 0.0024 0.0914
C17_3 C 0.7741(5) 0.0093(3) 0.12364(16)
C18_3 C 0.7406(5) 0.0352(4) 0.11506(17)
H13_3 H 0.7105 0.0432 0.1212
C19_3 C 0.7531(5) 0.0489(3) 0.09718(16)
H14_3 H 0.7317 0.0663 0.0911
C20_3 C 0.7651(5) 0.0002(4) 0.14486(17)
H15_3 H 0.7394 0.0172 0.1502
H16_3 H 0.7975 0.0030 0.1519
O1_3 O 0.77762(19) 0.01852(13) 0.97294(7)
O10_2 O 0.80099(19) 0.02456(13) 0.92803(8)
O11_2 O 0.83666(18) 0.04536(14) 0.90194(8)
N1_2 N 0.6944(3) 0.03997(19) 0.95145(9)
N3_2 N 0.7185(3) 0.05221(18) 0.89842(9)
C6_3 C 0.7564(3) 0.0165(2) 0.98927(12)
H5_3 H 0.8254 0.0722 0.9877
C33_3 C 0.7185(3) 0.0724(3) 0.94802(11)
H25_3 H 0.7542 0.0721 0.9457
C34_3 C 0.6930(3) 0.1062(2) 0.94784(10)
H26_3 H 0.7112 0.1282 0.9453
C35_3 C 0.6395(3) 0.1074(2) 0.95154(9)
C36_3 C 0.6141(3) 0.0736(2) 0.95521(10)
H27_3 H 0.5783 0.0732 0.9576
C37_3 C 0.6428(3) 0.0404(2) 0.95531(11)
H28_3 H 0.6260 0.0179 0.9581
C43_3 C 0.7324(3) 0.0883(2) 0.89462(11)
H33_3 H 0.7672 0.0935 0.8919
C44_3 C 0.6970(3) 0.1172(2) 0.89466(10)
H34_3 H 0.7077 0.1416 0.8918
C45_3 C 0.6443(3) 0.10992(18) 0.89903(9)
C46_3 C 0.6321(3) 0.07274(19) 0.90281(9)
H35_3 H 0.5976 0.0663 0.9055
C47_3 C 0.6691(3) 0.0456(2) 0.90275(11)
H36_3 H 0.6594 0.0213 0.9059
C59_3 C 0.8363(3) 0.04225(18) 0.91982(13)
C60_3 C 0.8796(2) 0.06026(18) 0.93080(10)
C61_3 C 0.8740(3) 0.0640(2) 0.95020(11)
H45_3 H 0.8445 0.0550 0.9564
C62_3 C 0.9144(3) 0.0820(2) 0.96035(12)
H46_3 H 0.9113 0.0850 0.9734
C63_3 C 0.9580(3) 0.0950(3) 0.95139(12)
H47_3 H 0.9841 0.1071 0.9582
C64_3 C 0.9633(3) 0.0902(2) 0.93207(11)
C65_3 C 0.9242(2) 0.07276(19) 0.92140(10)
H48_3 H 0.9278 0.0696 0.9084
H50_3 H 0.9936 0.1157 0.8979
N6_3 N 0.5556(3) 0.21003(19) 0.95145(9)
C114_3 C 0.5315(3) 0.1776(3) 0.94802(11)
H85_3 H 0.4958 0.1779 0.9457
C115_3 C 0.5570(3) 0.1438(2) 0.94784(10)
H86_3 H 0.5388 0.1218 0.9453
C116_3 C 0.6105(3) 0.1426(2) 0.95154(9)
C117_3 C 0.6359(3) 0.1764(2) 0.95521(10)
H87_3 H 0.6717 0.1768 0.9576
C118_3 C 0.6072(3) 0.2096(2) 0.95531(11)
H88_3 H 0.6240 0.2321 0.9581
N8_3 N 0.5315(3) 0.19779(18) 0.89842(9)
C124_3 C 0.5176(3) 0.1617(2) 0.89462(11)
H93_3 H 0.4828 0.1565 0.8919
C125_3 C 0.5530(3) 0.1328(2) 0.89466(10)
H94_3 H 0.5423 0.1084 0.8918
C126_3 C 0.6057(3) 0.14008(18) 0.89903(9)
C127_3 C 0.6179(3) 0.17726(19) 0.90281(9)
H95_3 H 0.6524 0.1837 0.9055
C128_3 C 0.5809(3) 0.2044(2) 0.90275(11)
H96_3 H 0.5906 0.2287 0.9059
O4_3 O 0.7471(3) 0.9626(2) 0.14595(10)
C1_3 C 0.8622(5) 0.9631(3) 0.2531(3)
H1_3 H 0.8790 0.9862 0.2538
C2_3 C 0.8912(4) 0.9301(4) 0.2534(3)
H2_3 H 0.9274 0.9311 0.2544
C3_3 C 0.8661(5) 0.8955(3) 0.2524(3)
C4_3 C 0.8120(5) 0.8939(3) 0.2510(3)
H3_3 H 0.7952 0.8708 0.2503
C5_3 C 0.7829(4) 0.9269(3) 0.2507(2)
H4_3 H 0.7467 0.9259 0.2498
C16_3 C 0.8179(5) 0.9996(3) 0.11431(18)
H12_3 H 0.8408 0.9834 0.1205
C21_3 C 0.7290(4) 0.9512(3) 0.16430(17)
C22_3 C 0.7415(3) 0.9700(3) 0.18064(16)
H17_3 H 0.7635 0.9907 0.1805
C23_3 C 0.7199(4) 0.9566(3) 0.19738(14)
C24_3 C 0.6864(4) 0.9270(4) 0.19816(18)
H18_3 H 0.6713 0.9195 0.2095
C25_3 C 0.6753(5) 0.9080(3) 0.1809(2)
H19_3 H 0.6538 0.8870 0.1809
C26_3 C 0.6968(4) 0.9212(3) 0.16433(17)
H20_3 H 0.6891 0.9092 0.1530
C27_3 C 0.7314(6) 0.9784(4) 0.2149(2)
C134_3 C 0.8878(5) 0.7869(3) 0.2531(3)
H101_3 H 0.8710 0.7638 0.2538
C135_3 C 0.8588(4) 0.8199(4) 0.2534(3)
H102_3 H 0.8226 0.8189 0.2544
C136_3 C 0.8839(5) 0.8545(3) 0.2524(3)
C137_3 C 0.9380(5) 0.8561(3) 0.2510(3)
H103_3 H 0.9548 0.8792 0.2503
C138_3 C 0.9671(4) 0.8231(3) 0.2507(2)
O27_3 O 0.9664(2) 0.7107(2) 0.05568(8)
C140_3 C 0.9677(3) 0.7108(3) 0.00480(12)
C141_3 C 0.9326(4) 0.6828(3) 0.00031(13)
C142_3 C 0.9096(4) 0.6622(3) 0.01437(14)
H106_3 H 0.8881 0.6421 0.0113
C143_3 C 0.9184(4) 0.6714(3) 0.03317(14)
H107_3 H 0.9012 0.6586 0.0428
C144_3 C 0.9527(4) 0.6996(3) 0.03726(12)
C145_3 C 0.9793(4) 0.7194(3) 0.02342(12)
C146_3 C 0.9341(4) 0.6967(3) 0.07024(14)
H109_3 H 0.8979 0.7030 0.0677
H110_3 H 0.9371 0.6695 0.0709
C147_3 C 0.9516(4) 0.7142(3) 0.08867(14)
C148_3 C 0.9189(5) 0.7391(3) 0.09728(17)
H111_3 H 0.8886 0.7476 0.0914
C149_3 C 0.9321(5) 0.7504(3) 0.11431(18)
H112_3 H 0.9092 0.7666 0.1205
C150_3 C 0.9759(5) 0.7407(3) 0.12364(16)
C152_3 C 0.9969(5) 0.7011(3) 0.09718(16)
C153_3 C 0.9849(5) 0.7498(4) 0.14486(17)
H116_3 H 0.9525 0.7470 0.1519
H117_3 H 0.9865 0.7593 0.1805
Cu1_2 Cu 0.73828(5) 0.99406(3) 0.95306(2)
O2_3 O 0.7170(3) 0.9981(2) 0.99210(9)
O7_3 O 0.70264(17) 0.97380(12) 0.92787(8)
O8_3 O 0.66023(17) 0.95342(14) 0.95286(8)
O9_3 O 0.4965(2) 0.89231(18) 0.92600(7)
N2_3 N 0.7860(3) 0.9505(2) 0.95441(10)
N4_3 N 0.8115(2) 0.96282(18) 0.90064(9)
C28_3 C 0.8357(4) 0.9554(2) 0.95169(11)
H21_3 H 0.8473 0.9797 0.9493
C29_3 C 0.8723(3) 0.9273(2) 0.95207(11)
H22_3 H 0.9075 0.9328 0.9502
C30_3 C 0.8566(3) 0.8906(2) 0.95529(10)
C31_3 C 0.8036(3) 0.8853(2) 0.95871(11)
H23_3 H 0.7908 0.8615 0.9615
C32_3 C 0.7697(3) 0.9158(3) 0.95787(13)
H24_3 H 0.7343 0.9117 0.9598
C38_3 C 0.8626(3) 0.9602(2) 0.89833(11)
H29_3 H 0.8818 0.9820 0.8962
C39_3 C 0.8886(3) 0.92623(19) 0.89899(10)
H30_3 H 0.9247 0.9255 0.8974
C40_3 C 0.8612(3) 0.89350(18) 0.90199(8)
C41_3 C 0.8085(3) 0.8964(2) 0.90486(10)
H31_3 H 0.7889 0.8749 0.9073
C42_3 C 0.7844(3) 0.9307(2) 0.90421(11)
H32_3 H 0.7486 0.9321 0.9063
C48_3 C 0.6652(3) 0.95624(19) 0.93563(12)
C49_3 C 0.6246(3) 0.93848(18) 0.92302(10)
C50_3 C 0.6308(3) 0.93708(19) 0.90350(10)
H37_3 H 0.6598 0.9483 0.8980
C51_3 C 0.5948(3) 0.9194(2) 0.89231(11)
H38_3 H 0.6000 0.9179 0.8793
C52_3 C 0.5512(3) 0.9040(2) 0.90031(11)
H39_3 H 0.5269 0.8915 0.8928
C53_3 C 0.5430(3) 0.9071(2) 0.91995(11)
C54_3 C 0.5799(3) 0.9231(2) 0.93098(11)
H40_3 H 0.5753 0.9238 0.9440
C55_3 C 0.4825(3) 0.8991(3) 0.94561(11)
H41_3 H 0.5049 0.8848 0.9540
H42_3 H 0.4856 0.9256 0.9487
C56_3 C 0.4270(3) 0.8864(3) 0.94735(11)
C57_3 C 0.3873(4) 0.9121(3) 0.94767(12)
H43_3 H 0.3951 0.9376 0.9480
C58_3 C 0.4148(3) 0.8494(3) 0.94752(12)
H44_3 H 0.4413 0.8315 0.9475
O18_3 O 0.2535(2) 0.85769(18) 0.92600(7)
C81_3 C 0.0848(3) 0.79376(19) 0.93563(12)
C82_3 C 0.1254(3) 0.81152(18) 0.92302(10)
C83_3 C 0.1192(3) 0.81292(19) 0.90350(10)
H61_3 H 0.0902 0.8017 0.8980
C84_3 C 0.1552(3) 0.8306(2) 0.89231(11)
H62_3 H 0.1500 0.8321 0.8793
C85_3 C 0.1988(3) 0.8460(2) 0.90031(11)
H63_3 H 0.2231 0.8585 0.8928
C86_3 C 0.2070(3) 0.8429(2) 0.91995(11)
C87_3 C 0.1701(3) 0.8269(2) 0.93098(11)
H64_3 H 0.1747 0.8262 0.9440
C88_3 C 0.2675(3) 0.8509(3) 0.94561(11)
H65_3 H 0.2451 0.8652 0.9540
H66_3 H 0.2644 0.8244 0.9487
C89_3 C 0.3230(3) 0.8636(3) 0.94735(11)
C90_3 C 0.3627(4) 0.8379(3) 0.94767(12)
H67_3 H 0.3549 0.8124 0.9480
C91_3 C 0.3352(3) 0.9006(3) 0.94752(12)
H68_3 H 0.3087 0.9185 0.9475
N7_3 N 0.9640(3) 0.7995(2) 0.95441(10)
C119_3 C 0.9143(4) 0.7946(2) 0.95169(11)
H89_3 H 0.9027 0.7703 0.9493
C120_3 C 0.8777(3) 0.8227(2) 0.95207(11)
H90_3 H 0.8425 0.8172 0.9502
C121_3 C 0.8934(3) 0.8594(2) 0.95529(10)
C122_3 C 0.9464(3) 0.8647(2) 0.95871(11)
H91_3 H 0.9592 0.8885 0.9615
C123_3 C 0.9803(3) 0.8342(3) 0.95787(13)
N9_3 N 0.9385(2) 0.78718(18) 0.90064(9)
C129_3 C 0.8874(3) 0.7898(2) 0.89833(11)
H97_3 H 0.8682 0.7680 0.8962
C130_3 C 0.8614(3) 0.82377(19) 0.89899(10)
H98_3 H 0.8253 0.8245 0.8974
C131_3 C 0.8888(3) 0.85650(18) 0.90199(8)
C132_3 C 0.9415(3) 0.8536(2) 0.90486(10)
H99_3 H 0.9611 0.8751 0.9073
C133_3 C 0.9656(3) 0.8193(2) 0.90421(11)
O25_3 O 0.97238(19) 0.73148(13) 0.97294(7)
C139_3 C 0.9936(3) 0.7335(2) 0.98927(12)
H105_3 H 0.9246 0.6778 0.9877
O35_2 O 0.94901(19) 0.72544(13) 0.92803(8)
O36_2 O 0.91334(18) 0.70464(14) 0.90194(8)
C33_4 C 0.0315(3) 0.6776(3) 0.94802(11)
C34_4 C 0.0570(3) 0.6438(2) 0.94784(10)
H26_4 H 0.0388 0.6218 0.9453
C35_4 C 0.1105(3) 0.6426(2) 0.95154(9)
C36_4 C 0.1359(3) 0.6764(2) 0.95521(10)
H27_4 H 0.1717 0.6768 0.9576
C37_4 C 0.1072(3) 0.7096(2) 0.95531(11)
H28_4 H 0.1240 0.7321 0.9581
C43_4 C 0.0176(3) 0.6617(2) 0.89462(11)
C44_4 C 0.0530(3) 0.6328(2) 0.89466(10)
H34_4 H 0.0423 0.6084 0.8918
C45_4 C 0.1057(3) 0.64008(18) 0.89903(9)
C46_4 C 0.1179(3) 0.67726(19) 0.90281(9)
H35_4 H 0.1524 0.6837 0.9055
C47_4 C 0.0809(3) 0.7044(2) 0.90275(11)
H36_4 H 0.0906 0.7287 0.9059
N6_4 N 0.1944(3) 0.53997(19) 0.95145(9)
C114_4 C 0.2185(3) 0.5724(3) 0.94802(11)
H85_4 H 0.2542 0.5721 0.9457
C115_4 C 0.1930(3) 0.6062(2) 0.94784(10)
H86_4 H 0.2112 0.6282 0.9453
C116_4 C 0.1395(3) 0.6074(2) 0.95154(9)
C117_4 C 0.1141(3) 0.5736(2) 0.95521(10)
H87_4 H 0.0783 0.5732 0.9576
C118_4 C 0.1428(3) 0.5404(2) 0.95531(11)
H88_4 H 0.1260 0.5179 0.9581
N8_4 N 0.2185(3) 0.55221(18) 0.89842(9)
C124_4 C 0.2324(3) 0.5883(2) 0.89462(11)
H93_4 H 0.2672 0.5935 0.8919
C125_4 C 0.1970(3) 0.6172(2) 0.89466(10)
H94_4 H 0.2077 0.6416 0.8918
C126_4 C 0.1443(3) 0.60992(18) 0.89903(9)
C127_4 C 0.1321(3) 0.57274(19) 0.90281(9)
H95_4 H 0.0976 0.5663 0.9055
C128_4 C 0.1691(3) 0.5456(2) 0.90275(11)
H96_4 H 0.1594 0.5213 0.9059
Cu8_2 Cu 0.23828(5) 0.49406(3) 0.95306(2)
O12_4 O 0.7412(2) 0.64663(18) 0.92472(7)
H25_4 H 0.9958 0.6779 0.9457
H33_4 H 0.9828 0.6565 0.8919
C59_4 C 0.9137(3) 0.70775(18) 0.91982(13)
C60_4 C 0.8704(2) 0.68974(18) 0.93080(10)
C61_4 C 0.8760(3) 0.6860(2) 0.95020(11)
H45_4 H 0.9055 0.6950 0.9564
C62_4 C 0.8356(3) 0.6680(2) 0.96035(12)
H46_4 H 0.8387 0.6650 0.9734
C63_4 C 0.7920(3) 0.6550(3) 0.95139(12)
H47_4 H 0.7659 0.6429 0.9582
C64_4 C 0.7867(3) 0.6598(2) 0.93207(11)
C65_4 C 0.8258(2) 0.67724(19) 0.92140(10)
H48_4 H 0.8222 0.6804 0.9084
C66_4 C 0.7324(3) 0.6501(2) 0.90491(11)
H49_4 H 0.7367 0.6759 0.9009
H50_4 H 0.7564 0.6343 0.8979
C67_4 C 0.6766(3) 0.6372(2) 0.90194(10)
C68_4 C 0.6647(3) 0.5999(2) 0.90149(11)
H51_4 H 0.6916 0.5823 0.9012
C69_4 C 0.6358(3) 0.6621(2) 0.90151(11)
H52_4 H 0.6428 0.6877 0.9012
O19_4 O 0.30099(19) 0.52456(13) 0.92803(8)
O20_4 O 0.33666(18) 0.54536(14) 0.90194(8)
O21_4 O 0.5088(2) 0.60337(18) 0.92472(7)
C92_4 C 0.3363(3) 0.54225(18) 0.91982(13)
C93_4 C 0.3796(2) 0.56026(18) 0.93080(10)
C94_4 C 0.3740(3) 0.5640(2) 0.95020(11)
H69_4 H 0.3445 0.5550 0.9564
C95_4 C 0.4144(3) 0.5820(2) 0.96035(12)
H70_4 H 0.4113 0.5850 0.9734
C96_4 C 0.4580(3) 0.5950(3) 0.95139(12)
H71_4 H 0.4841 0.6071 0.9582
C97_4 C 0.4633(3) 0.5902(2) 0.93207(11)
C98_4 C 0.4242(2) 0.57276(19) 0.92140(10)
H72_4 H 0.4278 0.5696 0.9084
C99_4 C 0.5176(3) 0.5999(2) 0.90491(11)
H73_4 H 0.5133 0.5741 0.9009
H74_4 H 0.4936 0.6157 0.8979
C100_4 C 0.5734(3) 0.6128(2) 0.90194(10)
C101_4 C 0.5853(3) 0.6501(2) 0.90149(11)
H75_4 H 0.5584 0.6677 0.9012
C102_4 C 0.6142(3) 0.5879(2) 0.90151(11)
H76_4 H 0.6072 0.5623 0.9012
O3_4 O 0.2836(2) 0.5393(2) 0.05568(8)
O4_4 O 0.2471(3) 0.4626(2) 0.14595(10)
C1_4 C 0.3622(5) 0.4631(3) 0.2531(3)
H1_4 H 0.3790 0.4862 0.2538
C2_4 C 0.3912(4) 0.4301(4) 0.2534(3)
H2_4 H 0.4274 0.4311 0.2544
C3_4 C 0.3661(5) 0.3955(3) 0.2524(3)
C4_4 C 0.3120(5) 0.3939(3) 0.2510(3)
H3_4 H 0.2952 0.3708 0.2503
C5_4 C 0.2829(4) 0.4269(3) 0.2507(2)
H4_4 H 0.2467 0.4259 0.2498
C7_4 C 0.2823(3) 0.5392(3) 0.00480(12)
C8_4 C 0.3174(4) 0.5672(3) 0.00031(13)
C9_4 C 0.3404(4) 0.5878(3) 0.01437(14)
H6_4 H 0.3619 0.6079 0.0113
C10_4 C 0.3316(4) 0.5786(3) 0.03317(14)
H7_4 H 0.3488 0.5914 0.0428
C11_4 C 0.2973(4) 0.5504(3) 0.03726(12)
C12_4 C 0.2707(4) 0.5306(3) 0.02342(12)
H8_4 H 0.2461 0.5124 0.0265
C13_4 C 0.3159(4) 0.5533(3) 0.07024(14)
H9_4 H 0.3521 0.5470 0.0677
H10_4 H 0.3129 0.5805 0.0709
C14_4 C 0.2984(4) 0.5358(3) 0.08867(14)
C15_4 C 0.3311(5) 0.5109(3) 0.09728(17)
H11_4 H 0.3614 0.5024 0.0914
C16_4 C 0.3179(5) 0.4996(3) 0.11431(18)
H12_4 H 0.3408 0.4834 0.1205
C17_4 C 0.2741(5) 0.5093(3) 0.12364(16)
C18_4 C 0.2406(5) 0.5352(4) 0.11506(17)
H13_4 H 0.2105 0.5432 0.1212
C19_4 C 0.2531(5) 0.5489(3) 0.09718(16)
H14_4 H 0.2317 0.5663 0.0911
C20_4 C 0.2651(5) 0.5002(4) 0.14486(17)
H15_4 H 0.2394 0.5172 0.1502
H16_4 H 0.2975 0.5030 0.1519
C21_4 C 0.2290(4) 0.4512(3) 0.16430(17)
C22_4 C 0.2415(3) 0.4700(3) 0.18064(16)
H17_4 H 0.2635 0.4907 0.1805
C23_4 C 0.2199(4) 0.4566(3) 0.19738(14)
C24_4 C 0.1864(4) 0.4270(4) 0.19816(18)
H18_4 H 0.1713 0.4195 0.2095
C25_4 C 0.1753(5) 0.4080(3) 0.1809(2)
H19_4 H 0.1538 0.3870 0.1809
C26_4 C 0.1968(4) 0.4212(3) 0.16433(17)
H20_4 H 0.1891 0.4092 0.1530
C27_4 C 0.2314(6) 0.4784(4) 0.2149(2)
C134_4 C 0.3878(5) 0.2869(3) 0.2531(3)
H101_4 H 0.3710 0.2638 0.2538
C135_4 C 0.3588(4) 0.3199(4) 0.2534(3)
H102_4 H 0.3226 0.3189 0.2544
C136_4 C 0.3839(5) 0.3545(3) 0.2524(3)
C137_4 C 0.4380(5) 0.3561(3) 0.2510(3)
H103_4 H 0.4548 0.3792 0.2503
C138_4 C 0.4671(4) 0.3231(3) 0.2507(2)
H104_4 H 0.5033 0.3241 0.2498
O27_4 O 0.4664(2) 0.2107(2) 0.05568(8)
O28_4 O 0.5029(3) 0.2874(2) 0.14595(10)
C140_4 C 0.4677(3) 0.2108(3) 0.00480(12)
C141_4 C 0.4326(4) 0.1828(3) 0.00031(13)
C142_4 C 0.4096(4) 0.1622(3) 0.01437(14)
H106_4 H 0.3881 0.1421 0.0113
C143_4 C 0.4184(4) 0.1714(3) 0.03317(14)
H107_4 H 0.4012 0.1586 0.0428
C144_4 C 0.4527(4) 0.1996(3) 0.03726(12)
C145_4 C 0.4793(4) 0.2194(3) 0.02342(12)
H108_4 H 0.5039 0.2376 0.0265
C146_4 C 0.4341(4) 0.1967(3) 0.07024(14)
H109_4 H 0.3979 0.2030 0.0677
H110_4 H 0.4371 0.1695 0.0709
C147_4 C 0.4516(4) 0.2142(3) 0.08867(14)
C148_4 C 0.4189(5) 0.2391(3) 0.09728(17)
H111_4 H 0.3886 0.2476 0.0914
C149_4 C 0.4321(5) 0.2504(3) 0.11431(18)
H112_4 H 0.4092 0.2666 0.1205
C150_4 C 0.4759(5) 0.2407(3) 0.12364(16)
C151_4 C 0.5094(5) 0.2148(4) 0.11506(17)
H113_4 H 0.5395 0.2068 0.1212
C152_4 C 0.4969(5) 0.2011(3) 0.09718(16)
H114_4 H 0.5183 0.1837 0.0911
C153_4 C 0.4849(5) 0.2498(4) 0.14486(17)
H115_4 H 0.5106 0.2328 0.1502
H116_4 H 0.4525 0.2470 0.1519
C154_4 C 0.5210(4) 0.2988(3) 0.16430(17)
C155_4 C 0.5085(3) 0.2800(3) 0.18064(16)
H117_4 H 0.4865 0.2593 0.1805
C156_4 C 0.5301(4) 0.2934(3) 0.19738(14)
C157_4 C 0.5636(4) 0.3230(4) 0.19816(18)
H118_4 H 0.5787 0.3305 0.2095
C158_4 C 0.5747(5) 0.3420(3) 0.1809(2)
H119_4 H 0.5962 0.3630 0.1809
C159_4 C 0.5532(4) 0.3288(3) 0.16433(17)
H120_4 H 0.5609 0.3408 0.1530
C160_4 C 0.5186(6) 0.2716(4) 0.2149(2)
O1_4 O 0.27762(19) 0.51852(13) 0.97294(7)
O2_4 O 0.2170(3) 0.4981(2) 0.99210(9)
O7_4 O 0.20264(17) 0.47380(12) 0.92787(8)
O8_4 O 0.16023(17) 0.45342(14) 0.95286(8)
N2_4 N 0.2860(3) 0.4505(2) 0.95441(10)
N4_4 N 0.3115(2) 0.46282(18) 0.90064(9)
C6_4 C 0.2564(3) 0.5165(2) 0.98927(12)
H5_4 H 0.3254 0.5722 0.9877
C28_4 C 0.3357(4) 0.4554(2) 0.95169(11)
H21_4 H 0.3473 0.4797 0.9493
C29_4 C 0.3723(3) 0.4273(2) 0.95207(11)
H22_4 H 0.4075 0.4328 0.9502
C30_4 C 0.3566(3) 0.3906(2) 0.95529(10)
C31_4 C 0.3036(3) 0.3853(2) 0.95871(11)
H23_4 H 0.2908 0.3615 0.9615
C32_4 C 0.2697(3) 0.4158(3) 0.95787(13)
H24_4 H 0.2343 0.4117 0.9598
C38_4 C 0.3626(3) 0.4602(2) 0.89833(11)
H29_4 H 0.3818 0.4820 0.8962
C39_4 C 0.3886(3) 0.42623(19) 0.89899(10)
H30_4 H 0.4247 0.4255 0.8974
C40_4 C 0.3612(3) 0.39350(18) 0.90199(8)
C41_4 C 0.3085(3) 0.3964(2) 0.90486(10)
H31_4 H 0.2889 0.3749 0.9073
C42_4 C 0.2844(3) 0.4307(2) 0.90421(11)
H32_4 H 0.2486 0.4321 0.9063
C48_4 C 0.1652(3) 0.45624(19) 0.93563(12)
C49_4 C 0.1246(3) 0.43848(18) 0.92302(10)
C50_4 C 0.1308(3) 0.43708(19) 0.90350(10)
H37_4 H 0.1598 0.4483 0.8980
C51_4 C 0.0948(3) 0.4194(2) 0.89231(11)
H38_4 H 0.1000 0.4179 0.8793
C52_4 C 0.0512(3) 0.4040(2) 0.90031(11)
H39_4 H 0.0269 0.3915 0.8928
C53_4 C 0.0430(3) 0.4071(2) 0.91995(11)
C54_4 C 0.0799(3) 0.4231(2) 0.93098(11)
H40_4 H 0.0753 0.4238 0.9440
H41_4 H 0.0049 0.3848 0.9540
N7_4 N 0.4640(3) 0.2995(2) 0.95441(10)
C119_4 C 0.4143(4) 0.2946(2) 0.95169(11)
H89_4 H 0.4027 0.2703 0.9493
C120_4 C 0.3777(3) 0.3227(2) 0.95207(11)
H90_4 H 0.3425 0.3172 0.9502
C121_4 C 0.3934(3) 0.3594(2) 0.95529(10)
C122_4 C 0.4464(3) 0.3647(2) 0.95871(11)
H91_4 H 0.4592 0.3885 0.9615
C123_4 C 0.4803(3) 0.3342(3) 0.95787(13)
H92_4 H 0.5157 0.3383 0.9598
N9_4 N 0.4385(2) 0.28718(18) 0.90064(9)
C129_4 C 0.3874(3) 0.2898(2) 0.89833(11)
H97_4 H 0.3682 0.2680 0.8962
C130_4 C 0.3614(3) 0.32377(19) 0.89899(10)
H98_4 H 0.3253 0.3245 0.8974
C131_4 C 0.3888(3) 0.35650(18) 0.90199(8)
C132_4 C 0.4415(3) 0.3536(2) 0.90486(10)
H99_4 H 0.4611 0.3751 0.9073
C133_4 C 0.4656(3) 0.3193(2) 0.90421(11)
H100_4 H 0.5014 0.3179 0.9063
O25_4 O 0.47238(19) 0.23148(13) 0.97294(7)
O26_4 O 0.5330(3) 0.2519(2) 0.99210(9)
C139_4 C 0.4936(3) 0.2335(2) 0.98927(12)
H105_4 H 0.4246 0.1778 0.9877
O33_2 O 0.54736(17) 0.27620(12) 0.92787(8)
O34_2 O 0.58977(17) 0.29658(14) 0.95286(8)
O9_4 O 0.9965(2) 0.39231(18) 0.92600(7)
C55_4 C 0.9825(3) 0.3991(3) 0.94561(11)
H42_4 H 0.9856 0.4256 0.9487
C56_4 C 0.9270(3) 0.3864(3) 0.94735(11)
C57_4 C 0.8873(4) 0.4121(3) 0.94767(12)
H43_4 H 0.8951 0.4376 0.9480
C58_4 C 0.9148(3) 0.3494(3) 0.94752(12)
H44_4 H 0.9413 0.3315 0.9475
O18_4 O 0.7535(2) 0.35769(18) 0.92600(7)
C81_4 C 0.5848(3) 0.29376(19) 0.93563(12)
C82_4 C 0.6254(3) 0.31152(18) 0.92302(10)
C83_4 C 0.6192(3) 0.31292(19) 0.90350(10)
H61_4 H 0.5902 0.3017 0.8980
C84_4 C 0.6552(3) 0.3306(2) 0.89231(11)
H62_4 H 0.6500 0.3321 0.8793
C85_4 C 0.6988(3) 0.3460(2) 0.90031(11)
H63_4 H 0.7231 0.3585 0.8928
C86_4 C 0.7070(3) 0.3429(2) 0.91995(11)
C87_4 C 0.6701(3) 0.3269(2) 0.93098(11)
H64_4 H 0.6747 0.3262 0.9440
C88_4 C 0.7675(3) 0.3509(3) 0.94561(11)
H65_4 H 0.7451 0.3652 0.9540
H66_4 H 0.7644 0.3244 0.9487
C89_4 C 0.8230(3) 0.3636(3) 0.94735(11)
C90_4 C 0.8627(4) 0.3379(3) 0.94767(12)
H67_4 H 0.8549 0.3124 0.9480
C91_4 C 0.8352(3) 0.4006(3) 0.94752(12)
H68_4 H 0.8087 0.4185 0.9475
Cu8_3 Cu 0.48828(5) 0.00594(3) 0.70306(2)
Cu2_4 Cu 0.2500 0.7500 0.0000
N5_3 N 0.1919(4) 0.7115(3) 0.00173(19)
C1_5 C 0.1378(5) 0.7131(3) 0.0031(3)
H1_5 H 0.1210 0.7362 0.0038
C2_5 C 0.1088(4) 0.6801(4) 0.0034(3)
H2_5 H 0.0726 0.6811 0.0044
C3_5 C 0.1339(5) 0.6455(3) 0.0024(3)
C4_5 C 0.1880(5) 0.6439(3) 0.0010(3)
H3_5 H 0.2048 0.6208 0.0003
C5_5 C 0.2171(4) 0.6769(3) 0.0007(2)
N10_3 N 0.0581(4) 0.5385(3) 0.00173(19)
C134_5 C 0.1122(5) 0.5369(3) 0.0031(3)
H101_5 H 0.1290 0.5138 0.0038
C135_5 C 0.1412(4) 0.5699(4) 0.0034(3)
H102_5 H 0.1774 0.5689 0.0044
C136_5 C 0.1161(5) 0.6045(3) 0.0024(3)
C137_5 C 0.0620(5) 0.6061(3) 0.0010(3)
H103_5 H 0.0452 0.6292 0.0003
C138_5 C 0.0329(4) 0.5731(3) 0.0007(2)
Cu9_4 Cu -0.0000 0.5000 0.0000
O31_5 O 0.2027(4) 0.7801(2) 0.02029(12)
O32_5 O 0.2680(4) 0.7506(3) 0.03421(13)
Cu1_3 Cu 0.26172(5) 0.74406(3) 0.70306(2)
Cu2_5 Cu 0.2500 0.7500 1.0000
Cu3_2 Cu 0.23012(4) 0.76010(3) 0.64749(2)
O1_5 O 0.22238(19) 0.76852(13) 0.72294(7)
O2_5 O 0.2830(3) 0.7481(2) 0.74210(9)
O3_5 O 0.2164(2) 0.7893(2) 0.80568(8)
O4_5 O 0.2529(3) 0.7126(2) 0.89595(10)
O5_3 O 0.2973(4) 0.7199(2) 0.97971(12)
O6_3 O 0.2320(4) 0.7494(3) 0.96579(13)
O7_5 O 0.29736(17) 0.72380(12) 0.67787(8)
O8_5 O 0.33977(17) 0.70342(14) 0.70286(8)
O9_5 O 0.5035(2) 0.64231(18) 0.67600(7)
O10_3 O 0.19901(19) 0.77456(13) 0.67803(8)
O11_3 O 0.16334(18) 0.79536(14) 0.65194(8)
O13_3 O 0.27507(16) 0.73284(12) 0.62980(6)
O14_3 O 0.2182(2) 0.76116(13) 0.61123(7)
O15_5 O 0.2583(2) 0.70590(16) 0.54595(7)
N1_3 N 0.3056(3) 0.78997(19) 0.70145(9)
N2_5 N 0.2140(3) 0.7005(2) 0.70441(10)
N3_3 N 0.2815(3) 0.80221(18) 0.64842(9)
N4_5 N 0.1885(2) 0.71282(18) 0.65064(9)
H4_5 H 0.2533 0.6759 0.9998
C6_5 C 0.2436(3) 0.7665(2) 0.73927(12)
C7_5 C 0.2177(3) 0.7892(3) 0.75480(12)
C8_5 C 0.1826(4) 0.8172(3) 0.75031(13)
H5_5 H 0.1746 0.8222 0.7377
C9_5 C 0.1596(4) 0.8378(3) 0.76437(14)
H6_5 H 0.1381 0.8579 0.7613
C10_5 C 0.1684(4) 0.8286(3) 0.78317(14)
H7_5 H 0.1512 0.8414 0.7928
C11_5 C 0.2027(4) 0.8004(3) 0.78726(12)
C12_5 C 0.2293(4) 0.7806(3) 0.77342(12)
H8_5 H 0.2539 0.7624 0.7765
C13_5 C 0.1841(4) 0.8033(3) 0.82024(14)
H9_5 H 0.1479 0.7970 0.8177
H10_5 H 0.1871 0.8305 0.8209
C14_5 C 0.2016(4) 0.7858(3) 0.83867(14)
C15_5 C 0.1689(5) 0.7609(3) 0.84728(17)
H11_5 H 0.1386 0.7524 0.8414
C16_5 C 0.1821(5) 0.7496(3) 0.86431(18)
H12_5 H 0.1592 0.7334 0.8705
C17_5 C 0.2259(5) 0.7593(3) 0.87364(16)
C18_5 C 0.2594(5) 0.7852(4) 0.86506(17)
H13_5 H 0.2895 0.7932 0.8712
C19_5 C 0.2469(5) 0.7989(3) 0.84718(16)
H14_5 H 0.2683 0.8163 0.8411
C20_5 C 0.2349(5) 0.7502(4) 0.89486(17)
H15_5 H 0.2606 0.7672 0.9002
H16_5 H 0.2025 0.7530 0.9019
C21_5 C 0.2710(4) 0.7012(3) 0.91430(17)
C22_5 C 0.2585(3) 0.7200(3) 0.93064(16)
H17_5 H 0.2365 0.7407 0.9305
C23_5 C 0.2801(4) 0.7066(3) 0.94738(14)
C24_5 C 0.3136(4) 0.6770(4) 0.94816(18)
H18_5 H 0.3287 0.6695 0.9595
C25_5 C 0.3247(5) 0.6580(3) 0.9309(2)
H19_5 H 0.3462 0.6370 0.9309
C26_5 C 0.3032(4) 0.6712(3) 0.91433(17)
H20_5 H 0.3109 0.6592 0.9030
C27_5 C 0.2686(6) 0.7284(4) 0.9649(2)
C28_5 C 0.1643(4) 0.7054(2) 0.70169(11)
H21_5 H 0.1527 0.7297 0.6993
C29_5 C 0.1277(3) 0.6773(2) 0.70207(11)
H22_5 H 0.0925 0.6828 0.7002
C30_5 C 0.1434(3) 0.6406(2) 0.70529(10)
C31_5 C 0.1964(3) 0.6353(2) 0.70871(11)
H23_5 H 0.2092 0.6115 0.7115
C32_5 C 0.2303(3) 0.6658(3) 0.70787(13)
H24_5 H 0.2657 0.6617 0.7098
C33_5 C 0.2815(3) 0.8224(3) 0.69802(11)
H25_5 H 0.2458 0.8221 0.6957
C34_5 C 0.3070(3) 0.8562(2) 0.69784(10)
H26_5 H 0.2888 0.8782 0.6953
C35_5 C 0.3605(3) 0.8574(2) 0.70154(9)
C36_5 C 0.3859(3) 0.8236(2) 0.70521(10)
H27_5 H 0.4217 0.8232 0.7076
C37_5 C 0.3572(3) 0.7904(2) 0.70531(11)
H28_5 H 0.3740 0.7679 0.7081
C38_5 C 0.1374(3) 0.7102(2) 0.64833(11)
H29_5 H 0.1182 0.7320 0.6462
C39_5 C 0.1114(3) 0.67623(19) 0.64899(10)
H30_5 H 0.0753 0.6755 0.6474
C40_5 C 0.1388(3) 0.64350(18) 0.65199(8)
C41_5 C 0.1915(3) 0.6464(2) 0.65486(10)
H31_5 H 0.2111 0.6249 0.6573
C42_5 C 0.2156(3) 0.6807(2) 0.65421(11)
H32_5 H 0.2514 0.6821 0.6563
C43_5 C 0.2676(3) 0.8383(2) 0.64462(11)
H33_5 H 0.2328 0.8435 0.6419
C44_5 C 0.3030(3) 0.8672(2) 0.64466(10)
H34_5 H 0.2923 0.8916 0.6418
C45_5 C 0.3557(3) 0.85992(18) 0.64903(9)
C46_5 C 0.3679(3) 0.82274(19) 0.65281(9)
H35_5 H 0.4024 0.8163 0.6555
C47_5 C 0.3309(3) 0.7956(2) 0.65275(11)
H36_5 H 0.3406 0.7713 0.6559
C48_5 C 0.3348(3) 0.70624(19) 0.68563(12)
C49_5 C 0.3754(3) 0.68848(18) 0.67302(10)
C50_5 C 0.3692(3) 0.68708(19) 0.65350(10)
H37_5 H 0.3402 0.6983 0.6480
C51_5 C 0.4052(3) 0.6694(2) 0.64231(11)
H38_5 H 0.4000 0.6679 0.6293
C52_5 C 0.4488(3) 0.6540(2) 0.65031(11)
H39_5 H 0.4731 0.6415 0.6428
C53_5 C 0.4570(3) 0.6571(2) 0.66995(11)
C54_5 C 0.4201(3) 0.6731(2) 0.68098(11)
H40_5 H 0.4247 0.6738 0.6940
C55_5 C 0.5175(3) 0.6491(3) 0.69561(11)
H41_5 H 0.4951 0.6348 0.7040
H42_5 H 0.5144 0.6756 0.6987
C56_5 C 0.5730(3) 0.6364(3) 0.69735(11)
C57_5 C 0.6127(4) 0.6621(3) 0.69767(12)
H43_5 H 0.6049 0.6876 0.6980
C58_5 C 0.5852(3) 0.5994(3) 0.69752(12)
H44_5 H 0.5587 0.5815 0.6975
C59_5 C 0.1637(3) 0.79225(18) 0.66982(13)
C60_5 C 0.1204(2) 0.81026(18) 0.68080(10)
C61_5 C 0.1260(3) 0.8140(2) 0.70020(11)
H45_5 H 0.1555 0.8050 0.7064
C62_5 C 0.0856(3) 0.8320(2) 0.71035(12)
H46_5 H 0.0887 0.8350 0.7234
C63_5 C 0.0420(3) 0.8450(3) 0.70139(12)
H47_5 H 0.0159 0.8571 0.7082
C64_5 C 0.0367(3) 0.8402(2) 0.68207(11)
C65_5 C 0.0758(2) 0.82276(19) 0.67140(10)
H48_5 H 0.0722 0.8196 0.6584
H50_5 H 0.0064 0.8657 0.6479
C70_5 C 0.2539(3) 0.73815(19) 0.61374(10)
C71_5 C 0.3011(3) 0.6821(2) 0.60119(10)
H53_5 H 0.3121 0.6766 0.6134
C72_5 C 0.2722(2) 0.71397(18) 0.59780(9)
C73_5 C 0.2570(3) 0.7229(2) 0.57926(9)
H54_5 H 0.2375 0.7445 0.5769
C74_5 C 0.2712(3) 0.6998(2) 0.56484(10)
C75_5 C 0.2990(3) 0.6677(2) 0.56786(10)
H55_5 H 0.3078 0.6523 0.5577
C76_5 C 0.3142(3) 0.6580(2) 0.58616(11)
H56_5 H 0.3326 0.6360 0.5884
C77_5 C 0.2436(4) 0.7440(2) 0.54128(11)
H57_5 H 0.2674 0.7617 0.5471
H58_5 H 0.2085 0.7492 0.5457
C78_5 C 0.2461(4) 0.7472(3) 0.51966(12)
C79_5 C 0.2965(5) 0.7421(3) 0.51064(14)
H59_5 H 0.3264 0.7370 0.5177
C80_5 C 0.2018(5) 0.7546(3) 0.50905(14)
H60_5 H 0.1699 0.7576 0.5152
O16_3 O 0.95264(17) 0.52620(12) 0.67787(8)
O17_3 O 0.91023(17) 0.54658(14) 0.70286(8)
O18_5 O 0.7465(2) 0.60769(18) 0.67600(7)
C81_5 C 0.9152(3) 0.54376(19) 0.68563(12)
C82_5 C 0.8746(3) 0.56152(18) 0.67302(10)
C83_5 C 0.8808(3) 0.56292(19) 0.65350(10)
H61_5 H 0.9098 0.5517 0.6480
C84_5 C 0.8448(3) 0.5806(2) 0.64231(11)
H62_5 H 0.8500 0.5821 0.6293
C85_5 C 0.8012(3) 0.5960(2) 0.65031(11)
H63_5 H 0.7769 0.6085 0.6428
C86_5 C 0.7930(3) 0.5929(2) 0.66995(11)
C87_5 C 0.8299(3) 0.5769(2) 0.68098(11)
H64_5 H 0.8253 0.5762 0.6940
C88_5 C 0.7325(3) 0.6009(3) 0.69561(11)
H65_5 H 0.7549 0.6152 0.7040
H66_5 H 0.7356 0.5744 0.6987
C89_5 C 0.6770(3) 0.6136(3) 0.69735(11)
C90_5 C 0.6373(4) 0.5879(3) 0.69767(12)
H67_5 H 0.6451 0.5624 0.6980
C91_5 C 0.6648(3) 0.6506(3) 0.69752(12)
H68_5 H 0.6913 0.6685 0.6975
O22_5 O 0.22493(16) 0.76716(12) 0.37020(6)
O23_5 O 0.2818(2) 0.73884(13) 0.38877(7)
O24_5 O 0.2417(2) 0.79410(16) 0.45405(7)
C103_5 C 0.2461(3) 0.76185(19) 0.38626(10)
C104_5 C 0.1989(3) 0.8179(2) 0.39881(10)
H77_5 H 0.1879 0.8234 0.3866
C105_5 C 0.2278(2) 0.78603(18) 0.40220(9)
C106_5 C 0.2430(3) 0.7771(2) 0.42074(9)
H78_5 H 0.2625 0.7555 0.4231
C107_5 C 0.2288(3) 0.8002(2) 0.43516(10)
C108_5 C 0.2010(3) 0.8323(2) 0.43214(10)
H79_5 H 0.1922 0.8477 0.4423
C109_5 C 0.1858(3) 0.8420(2) 0.41384(11)
H80_5 H 0.1674 0.8640 0.4116
C110_5 C 0.2564(4) 0.7560(2) 0.45872(11)
H81_5 H 0.2326 0.7383 0.4529
H82_5 H 0.2915 0.7508 0.4543
C111_5 C 0.2539(4) 0.7528(3) 0.48034(12)
C112_5 C 0.2035(5) 0.7579(3) 0.48936(14)
H83_5 H 0.1736 0.7630 0.4823
C113_5 C 0.2982(5) 0.7454(3) 0.49095(14)
H84_5 H 0.3301 0.7424 0.4848
N6_5 N 0.4444(3) 0.96003(19) 0.70145(9)
C114_5 C 0.4685(3) 0.9276(3) 0.69802(11)
H85_5 H 0.5042 0.9279 0.6957
C115_5 C 0.4430(3) 0.8938(2) 0.69784(10)
H86_5 H 0.4612 0.8718 0.6953
C116_5 C 0.3895(3) 0.8926(2) 0.70154(9)
C117_5 C 0.3641(3) 0.9264(2) 0.70521(10)
H87_5 H 0.3283 0.9268 0.7076
C118_5 C 0.3928(3) 0.9596(2) 0.70531(11)
H88_5 H 0.3760 0.9821 0.7081
N7_5 N 0.0360(3) 0.5495(2) 0.70441(10)
C119_5 C 0.0857(4) 0.5446(2) 0.70169(11)
H89_5 H 0.0973 0.5203 0.6993
C120_5 C 0.1223(3) 0.5727(2) 0.70207(11)
H90_5 H 0.1575 0.5672 0.7002
C121_5 C 0.1066(3) 0.6094(2) 0.70529(10)
C122_5 C 0.0536(3) 0.6147(2) 0.70871(11)
H91_5 H 0.0408 0.6385 0.7115
C123_5 C 0.0197(3) 0.5842(3) 0.70787(13)
N8_5 N 0.4685(3) 0.94779(18) 0.64842(9)
C124_5 C 0.4824(3) 0.9117(2) 0.64462(11)
H93_5 H 0.5172 0.9065 0.6419
C125_5 C 0.4470(3) 0.8828(2) 0.64466(10)
H94_5 H 0.4577 0.8584 0.6418
C126_5 C 0.3943(3) 0.89008(18) 0.64903(9)
C127_5 C 0.3821(3) 0.92726(19) 0.65281(9)
H95_5 H 0.3476 0.9337 0.6555
C128_5 C 0.4191(3) 0.9544(2) 0.65275(11)
H96_5 H 0.4094 0.9787 0.6559
N9_5 N 0.0615(2) 0.53718(18) 0.65064(9)
C129_5 C 0.1126(3) 0.5398(2) 0.64833(11)
H97_5 H 0.1318 0.5180 0.6462
C130_5 C 0.1386(3) 0.57377(19) 0.64899(10)
H98_5 H 0.1747 0.5745 0.6474
C131_5 C 0.1112(3) 0.60650(18) 0.65199(8)
C132_5 C 0.0585(3) 0.6036(2) 0.65486(10)
H99_5 H 0.0389 0.6251 0.6573
C133_5 C 0.0344(3) 0.5693(2) 0.65421(11)
Cu5_2 Cu 0.01988(4) 0.48990(3) 0.64749(2)
O25_5 O 0.02762(19) 0.48148(13) 0.72294(7)
O27_5 O 0.0336(2) 0.4607(2) 0.80568(8)
O30_3 O 0.0180(4) 0.5006(3) 0.96579(13)
C139_5 C 0.0064(3) 0.4835(2) 0.73927(12)
C140_5 C 0.0323(3) 0.4608(3) 0.75480(12)
C141_5 C 0.0674(4) 0.4328(3) 0.75031(13)
H105_5 H 0.0754 0.4278 0.7377
C142_5 C 0.0904(4) 0.4122(3) 0.76437(14)
H106_5 H 0.1119 0.3921 0.7613
C143_5 C 0.0816(4) 0.4214(3) 0.78317(14)
H107_5 H 0.0988 0.4086 0.7928
C144_5 C 0.0473(4) 0.4496(3) 0.78726(12)
C145_5 C 0.0207(4) 0.4694(3) 0.77342(12)
C146_5 C 0.0659(4) 0.4467(3) 0.82024(14)
H109_5 H 0.1021 0.4530 0.8177
H110_5 H 0.0629 0.4195 0.8209
C147_5 C 0.0484(4) 0.4642(3) 0.83867(14)
C148_5 C 0.0811(5) 0.4891(3) 0.84728(17)
H111_5 H 0.1114 0.4976 0.8414
C149_5 C 0.0679(5) 0.5004(3) 0.86431(18)
H112_5 H 0.0908 0.5166 0.8705
C150_5 C 0.0241(5) 0.4907(3) 0.87364(16)
C152_5 C 0.0031(5) 0.4511(3) 0.84718(16)
C153_5 C 0.0151(5) 0.4998(4) 0.89486(17)
H116_5 H 0.0475 0.4970 0.9019
H117_5 H 0.0135 0.5093 0.9305
Cu6_2 Cu 0.98828(5) 0.50594(3) 0.70306(2)
Cu9_5 Cu 0.0000 0.5000 1.0000
Cu11_2 Cu 0.51988(4) 0.98990(3) 0.64749(2)
Cu12_5 Cu 0.26988(4) 0.73990(3) 0.35251(2)
O35_3 O 0.05099(19) 0.47544(13) 0.67803(8)
O36_3 O 0.08666(18) 0.45464(14) 0.65194(8)
O38_3 O 0.0318(2) 0.48884(13) 0.61123(7)
N13_5 N 0.3081(4) 0.7885(3) 0.99827(19)
Cu9_6 Cu 1.0000 0.5000 0.0000
O12_5 O 0.9912(2) 0.85337(18) 0.67472(7)
C66_5 C 0.9824(3) 0.8499(2) 0.65491(11)
H49_5 H 0.9867 0.8241 0.6509
C67_5 C 0.9266(3) 0.8628(2) 0.65194(10)
C68_5 C 0.9147(3) 0.9001(2) 0.65149(11)
H51_5 H 0.9416 0.9177 0.6512
C69_5 C 0.8858(3) 0.8379(2) 0.65151(11)
H52_5 H 0.8928 0.8123 0.6512
O19_5 O 0.55099(19) 0.97544(13) 0.67803(8)
O20_5 O 0.58666(18) 0.95464(14) 0.65194(8)
O21_5 O 0.7588(2) 0.89663(18) 0.67472(7)
C92_5 C 0.5863(3) 0.95775(18) 0.66982(13)
C93_5 C 0.6296(2) 0.93974(18) 0.68080(10)
C94_5 C 0.6240(3) 0.9360(2) 0.70020(11)
H69_5 H 0.5945 0.9450 0.7064
C95_5 C 0.6644(3) 0.9180(2) 0.71035(12)
H70_5 H 0.6613 0.9150 0.7234
C96_5 C 0.7080(3) 0.9050(3) 0.70139(12)
H71_5 H 0.7341 0.8929 0.7082
C97_5 C 0.7133(3) 0.9098(2) 0.68207(11)
C98_5 C 0.6742(2) 0.92724(19) 0.67140(10)
H72_5 H 0.6778 0.9304 0.6584
C99_5 C 0.7676(3) 0.9001(2) 0.65491(11)
H73_5 H 0.7633 0.9259 0.6509
H74_5 H 0.7436 0.8843 0.6479
C100_5 C 0.8234(3) 0.8872(2) 0.65194(10)
C101_5 C 0.8353(3) 0.8499(2) 0.65149(11)
H75_5 H 0.8084 0.8323 0.6512
C102_5 C 0.8642(3) 0.9121(2) 0.65151(11)
H76_5 H 0.8572 0.9377 0.6512
H92_5 H 0.9843 0.5883 0.7098
H100_5 H 0.9986 0.5679 0.6563
H104_5 H 0.9967 0.5741 0.9998
O26_5 O 0.9670(3) 0.5019(2) 0.74210(9)
O28_5 O 0.9971(3) 0.5374(2) 0.89595(10)
O29_3 O 0.9527(4) 0.5301(2) 0.97971(12)
H108_5 H 0.9961 0.4876 0.7765
C151_5 C 0.9906(5) 0.4648(4) 0.86506(17)
H113_5 H 0.9605 0.4568 0.8712
H114_5 H 0.9817 0.4337 0.8411
H115_5 H 0.9894 0.4828 0.9002
C154_5 C 0.9790(4) 0.5488(3) 0.91430(17)
C155_5 C 0.9915(3) 0.5300(3) 0.93064(16)
C156_5 C 0.9699(4) 0.5434(3) 0.94738(14)
C157_5 C 0.9364(4) 0.5730(4) 0.94816(18)
H118_5 H 0.9213 0.5805 0.9595
C158_5 C 0.9253(5) 0.5920(3) 0.9309(2)
H119_5 H 0.9038 0.6130 0.9309
C159_5 C 0.9468(4) 0.5788(3) 0.91433(17)
H120_5 H 0.9391 0.5908 0.9030
C160_5 C 0.9814(6) 0.5216(4) 0.9649(2)
Cu9_7 Cu 1.0000 0.5000 1.0000
O37_3 O 0.97493(16) 0.51716(12) 0.62980(6)
N11_3 N 0.9444(3) 0.46003(19) 0.70145(9)
N12_3 N 0.9685(3) 0.44779(18) 0.64842(9)
O31_6 O 0.0473(4) 0.4699(2) 0.02029(12)
O12_6 O 0.2588(2) 0.39663(18) 0.67472(7)
H25_6 H 0.0042 0.4279 0.6957
H33_6 H 0.0172 0.4065 0.6419
C59_6 C 0.0863(3) 0.45775(18) 0.66982(13)
C60_6 C 0.1296(2) 0.43974(18) 0.68080(10)
C61_6 C 0.1240(3) 0.4360(2) 0.70020(11)
H45_6 H 0.0945 0.4450 0.7064
C62_6 C 0.1644(3) 0.4180(2) 0.71035(12)
H46_6 H 0.1613 0.4150 0.7234
C63_6 C 0.2080(3) 0.4050(3) 0.70139(12)
H47_6 H 0.2341 0.3929 0.7082
C64_6 C 0.2133(3) 0.4098(2) 0.68207(11)
C65_6 C 0.1742(2) 0.42724(19) 0.67140(10)
H48_6 H 0.1778 0.4304 0.6584
C66_6 C 0.2676(3) 0.4001(2) 0.65491(11)
H49_6 H 0.2633 0.4259 0.6509
H50_6 H 0.2436 0.3843 0.6479
C67_6 C 0.3234(3) 0.3872(2) 0.65194(10)
C68_6 C 0.3353(3) 0.3499(2) 0.65149(11)
H51_6 H 0.3084 0.3323 0.6512
C69_6 C 0.3642(3) 0.4121(2) 0.65151(11)
H52_6 H 0.3572 0.4377 0.6512
H54_6 H 0.0125 0.5055 0.5769
C77_6 C 0.0064(4) 0.5060(2) 0.54128(11)
H58_6 H 0.0415 0.5008 0.5457
C78_6 C 0.0039(4) 0.5028(3) 0.51966(12)
C80_6 C 0.0482(5) 0.4954(3) 0.50905(14)
H60_6 H 0.0801 0.4924 0.5152
O19_6 O 0.69901(19) 0.27456(13) 0.67803(8)
O20_6 O 0.66334(18) 0.29536(14) 0.65194(8)
O21_6 O 0.4912(2) 0.35337(18) 0.67472(7)
C92_6 C 0.6637(3) 0.29225(18) 0.66982(13)
C93_6 C 0.6204(2) 0.31026(18) 0.68080(10)
C94_6 C 0.6260(3) 0.3140(2) 0.70020(11)
H69_6 H 0.6555 0.3050 0.7064
C95_6 C 0.5856(3) 0.3320(2) 0.71035(12)
H70_6 H 0.5887 0.3350 0.7234
C96_6 C 0.5420(3) 0.3450(3) 0.70139(12)
H71_6 H 0.5159 0.3571 0.7082
C97_6 C 0.5367(3) 0.3402(2) 0.68207(11)
C98_6 C 0.5758(2) 0.32276(19) 0.67140(10)
H72_6 H 0.5722 0.3196 0.6584
C99_6 C 0.4824(3) 0.3499(2) 0.65491(11)
H73_6 H 0.4867 0.3241 0.6509
H74_6 H 0.5064 0.3657 0.6479
C100_6 C 0.4266(3) 0.3628(2) 0.65194(10)
C101_6 C 0.4147(3) 0.4001(2) 0.65149(11)
H75_6 H 0.4416 0.4177 0.6512
C102_6 C 0.3858(3) 0.3379(2) 0.65151(11)
H76_6 H 0.3928 0.3123 0.6512
O22_6 O 0.02507(16) 0.48284(12) 0.37020(6)
O24_6 O 0.0083(2) 0.45590(16) 0.45405(7)
C103_6 C 0.0039(3) 0.48815(19) 0.38626(10)
C104_6 C 0.0511(3) 0.4321(2) 0.39881(10)
H77_6 H 0.0621 0.4266 0.3866
C105_6 C 0.0222(2) 0.46397(18) 0.40220(9)
C106_6 C 0.0070(3) 0.4729(2) 0.42074(9)
C107_6 C 0.0212(3) 0.4498(2) 0.43516(10)
C108_6 C 0.0490(3) 0.4177(2) 0.43214(10)
H79_6 H 0.0578 0.4023 0.4423
C109_6 C 0.0642(3) 0.4080(2) 0.41384(11)
H80_6 H 0.0826 0.3860 0.4116
H81_6 H 0.0174 0.5117 0.4529
C112_6 C 0.0465(5) 0.4921(3) 0.48936(14)
H83_6 H 0.0764 0.4870 0.4823
Cu7_3 Cu 0.76172(5) 0.24406(3) 0.70306(2)
Cu10_2 Cu 0.73012(4) 0.26010(3) 0.64749(2)
O32_6 O 0.9820(4) 0.4994(3) 0.03421(13)
O15_6 O 0.9917(2) 0.54410(16) 0.54595(7)
C33_6 C 0.9685(3) 0.4276(3) 0.69802(11)
C34_6 C 0.9430(3) 0.3938(2) 0.69784(10)
H26_6 H 0.9612 0.3718 0.6953
C35_6 C 0.8895(3) 0.3926(2) 0.70154(9)
C36_6 C 0.8641(3) 0.4264(2) 0.70521(10)
H27_6 H 0.8283 0.4268 0.7076
C37_6 C 0.8928(3) 0.4596(2) 0.70531(11)
H28_6 H 0.8760 0.4821 0.7081
C43_6 C 0.9824(3) 0.4117(2) 0.64462(11)
C44_6 C 0.9470(3) 0.3828(2) 0.64466(10)
H34_6 H 0.9577 0.3584 0.6418
C45_6 C 0.8943(3) 0.39008(18) 0.64903(9)
C46_6 C 0.8821(3) 0.42726(19) 0.65281(9)
H35_6 H 0.8476 0.4337 0.6555
C47_6 C 0.9191(3) 0.4544(2) 0.65275(11)
H36_6 H 0.9094 0.4787 0.6559
C70_6 C 0.9961(3) 0.51185(19) 0.61374(10)
C71_6 C 0.9489(3) 0.5679(2) 0.60119(10)
H53_6 H 0.9379 0.5734 0.6134
C72_6 C 0.9778(2) 0.53603(18) 0.59780(9)
C73_6 C 0.9930(3) 0.5271(2) 0.57926(9)
C74_6 C 0.9788(3) 0.5502(2) 0.56484(10)
C75_6 C 0.9510(3) 0.5823(2) 0.56786(10)
H55_6 H 0.9422 0.5977 0.5577
C76_6 C 0.9358(3) 0.5920(2) 0.58616(11)
H56_6 H 0.9174 0.6140 0.5884
H57_6 H 0.9826 0.4883 0.5471
C79_6 C 0.9535(5) 0.5079(3) 0.51064(14)
H59_6 H 0.9236 0.5130 0.5177
O23_6 O 0.9682(2) 0.51116(13) 0.38877(7)
H78_6 H 0.9875 0.4945 0.4231
C110_6 C 0.9936(4) 0.4940(2) 0.45872(11)
H82_6 H 0.9585 0.4992 0.4543
C111_6 C 0.9961(4) 0.4972(3) 0.48034(12)
C113_6 C 0.9518(5) 0.5046(3) 0.49095(14)
H84_6 H 0.9199 0.5076 0.4848
N6_6 N 0.8056(3) 0.28997(19) 0.70145(9)
C114_6 C 0.7815(3) 0.3224(3) 0.69802(11)
H85_6 H 0.7458 0.3221 0.6957
C115_6 C 0.8070(3) 0.3562(2) 0.69784(10)
H86_6 H 0.7888 0.3782 0.6953
C116_6 C 0.8605(3) 0.3574(2) 0.70154(9)
C117_6 C 0.8859(3) 0.3236(2) 0.70521(10)
H87_6 H 0.9217 0.3232 0.7076
C118_6 C 0.8572(3) 0.2904(2) 0.70531(11)
H88_6 H 0.8740 0.2679 0.7081
N8_6 N 0.7815(3) 0.30221(18) 0.64842(9)
C124_6 C 0.7676(3) 0.3383(2) 0.64462(11)
H93_6 H 0.7328 0.3435 0.6419
C125_6 C 0.8030(3) 0.3672(2) 0.64466(10)
H94_6 H 0.7923 0.3916 0.6418
C126_6 C 0.8557(3) 0.35992(18) 0.64903(9)
C127_6 C 0.8679(3) 0.32274(19) 0.65281(9)
H95_6 H 0.9024 0.3163 0.6555
C128_6 C 0.8309(3) 0.2956(2) 0.65275(11)
H96_6 H 0.8406 0.2713 0.6559
Cu12_6 Cu 0.98012(4) 0.51010(3) 0.35251(2)
N13_6 N 0.9419(4) 0.4615(3) 0.99827(19)
O9_6 O 0.0035(2) 0.14231(18) 0.67600(7)
C55_6 C 0.0175(3) 0.1491(3) 0.69561(11)
H42_6 H 0.0144 0.1756 0.6987
C56_6 C 0.0730(3) 0.1364(3) 0.69735(11)
C57_6 C 0.1127(4) 0.1621(3) 0.69767(12)
H43_6 H 0.1049 0.1876 0.6980
C58_6 C 0.0852(3) 0.0994(3) 0.69752(12)
H44_6 H 0.0587 0.0815 0.6975
O16_4 O 0.45264(17) 0.02620(12) 0.67787(8)
O17_4 O 0.41023(17) 0.04658(14) 0.70286(8)
O18_6 O 0.2465(2) 0.10769(18) 0.67600(7)
C81_6 C 0.4152(3) 0.04376(19) 0.68563(12)
C82_6 C 0.3746(3) 0.06152(18) 0.67302(10)
C83_6 C 0.3808(3) 0.06292(19) 0.65350(10)
H61_6 H 0.4098 0.0517 0.6480
C84_6 C 0.3448(3) 0.0806(2) 0.64231(11)
H62_6 H 0.3500 0.0821 0.6293
C85_6 C 0.3012(3) 0.0960(2) 0.65031(11)
H63_6 H 0.2769 0.1085 0.6428
C86_6 C 0.2930(3) 0.0929(2) 0.66995(11)
C87_6 C 0.3299(3) 0.0769(2) 0.68098(11)
H64_6 H 0.3253 0.0762 0.6940
C88_6 C 0.2325(3) 0.1009(3) 0.69561(11)
H65_6 H 0.2549 0.1152 0.7040
H66_6 H 0.2356 0.0744 0.6987
C89_6 C 0.1770(3) 0.1136(3) 0.69735(11)
C90_6 C 0.1373(4) 0.0879(3) 0.69767(12)
H67_6 H 0.1451 0.0624 0.6980
C91_6 C 0.1648(3) 0.1506(3) 0.69752(12)
H68_6 H 0.1913 0.1685 0.6975
Cu2_6 Cu 0.7500 0.2500 0.0000
N5_4 N 0.6919(4) 0.2115(3) 0.00173(19)
C1_6 C 0.6378(5) 0.2131(3) 0.0031(3)
H1_6 H 0.6210 0.2362 0.0038
C2_6 C 0.6088(4) 0.1801(4) 0.0034(3)
H2_6 H 0.5726 0.1811 0.0044
C3_6 C 0.6339(5) 0.1455(3) 0.0024(3)
C4_6 C 0.6880(5) 0.1439(3) 0.0010(3)
H3_6 H 0.7048 0.1208 0.0003
C5_6 C 0.7171(4) 0.1769(3) 0.0007(2)
N10_4 N 0.5581(4) 0.0385(3) 0.00173(19)
C134_6 C 0.6122(5) 0.0369(3) 0.0031(3)
H101_6 H 0.6290 0.0138 0.0038
C135_6 C 0.6412(4) 0.0699(4) 0.0034(3)
H102_6 H 0.6774 0.0689 0.0044
C136_6 C 0.6161(5) 0.1045(3) 0.0024(3)
C137_6 C 0.5620(5) 0.1061(3) 0.0010(3)
H103_6 H 0.5452 0.1292 0.0003
C138_6 C 0.5329(4) 0.0731(3) 0.0007(2)
Cu9_8 Cu 0.5000 0.0000 0.0000
O31_7 O 0.7027(4) 0.2801(2) 0.02029(12)
O32_7 O 0.7680(4) 0.2506(3) 0.03421(13)
Cu2_7 Cu 0.7500 0.2500 1.0000
O1_6 O 0.72238(19) 0.26852(13) 0.72294(7)
O2_6 O 0.7830(3) 0.2481(2) 0.74210(9)
O3_6 O 0.7164(2) 0.2893(2) 0.80568(8)
O4_6 O 0.7529(3) 0.2126(2) 0.89595(10)
O5_4 O 0.7973(4) 0.2199(2) 0.97971(12)
O6_4 O 0.7320(4) 0.2494(3) 0.96579(13)
O7_6 O 0.79736(17) 0.22380(12) 0.67787(8)
O8_6 O 0.83977(17) 0.20342(14) 0.70286(8)
O13_4 O 0.77507(16) 0.23284(12) 0.62980(6)
O14_4 O 0.7182(2) 0.26116(13) 0.61123(7)
O15_7 O 0.7583(2) 0.20590(16) 0.54595(7)
N2_6 N 0.7140(3) 0.2005(2) 0.70441(10)
N4_6 N 0.6885(2) 0.21282(18) 0.65064(9)
H4_6 H 0.7533 0.1759 0.9998
C6_6 C 0.7436(3) 0.2665(2) 0.73927(12)
C7_6 C 0.7177(3) 0.2892(3) 0.75480(12)
C8_6 C 0.6826(4) 0.3172(3) 0.75031(13)
H5_6 H 0.6746 0.3222 0.7377
C9_6 C 0.6596(4) 0.3378(3) 0.76437(14)
H6_6 H 0.6381 0.3579 0.7613
C10_6 C 0.6684(4) 0.3286(3) 0.78317(14)
H7_6 H 0.6512 0.3414 0.7928
C11_6 C 0.7027(4) 0.3004(3) 0.78726(12)
C12_6 C 0.7293(4) 0.2806(3) 0.77342(12)
H8_6 H 0.7539 0.2624 0.7765
C13_6 C 0.6841(4) 0.3033(3) 0.82024(14)
H9_6 H 0.6479 0.2970 0.8177
H10_6 H 0.6871 0.3305 0.8209
C14_6 C 0.7016(4) 0.2858(3) 0.83867(14)
C15_6 C 0.6689(5) 0.2609(3) 0.84728(17)
H11_6 H 0.6386 0.2524 0.8414
C16_6 C 0.6821(5) 0.2496(3) 0.86431(18)
H12_6 H 0.6592 0.2334 0.8705
C17_6 C 0.7259(5) 0.2593(3) 0.87364(16)
C18_6 C 0.7594(5) 0.2852(4) 0.86506(17)
H13_6 H 0.7895 0.2932 0.8712
C19_6 C 0.7469(5) 0.2989(3) 0.84718(16)
H14_6 H 0.7683 0.3163 0.8411
C20_6 C 0.7349(5) 0.2502(4) 0.89486(17)
H15_6 H 0.7606 0.2672 0.9002
H16_6 H 0.7025 0.2530 0.9019
C21_6 C 0.7710(4) 0.2012(3) 0.91430(17)
C22_6 C 0.7585(3) 0.2200(3) 0.93064(16)
H17_6 H 0.7365 0.2407 0.9305
C23_6 C 0.7801(4) 0.2066(3) 0.94738(14)
C24_6 C 0.8136(4) 0.1770(4) 0.94816(18)
H18_6 H 0.8287 0.1695 0.9595
C25_6 C 0.8247(5) 0.1580(3) 0.9309(2)
H19_6 H 0.8462 0.1370 0.9309
C26_6 C 0.8032(4) 0.1712(3) 0.91433(17)
H20_6 H 0.8109 0.1592 0.9030
C27_6 C 0.7686(6) 0.2284(4) 0.9649(2)
C28_6 C 0.6643(4) 0.2054(2) 0.70169(11)
H21_6 H 0.6527 0.2297 0.6993
C29_6 C 0.6277(3) 0.1773(2) 0.70207(11)
H22_6 H 0.5925 0.1828 0.7002
C30_6 C 0.6434(3) 0.1406(2) 0.70529(10)
C31_6 C 0.6964(3) 0.1353(2) 0.70871(11)
H23_6 H 0.7092 0.1115 0.7115
C32_6 C 0.7303(3) 0.1658(3) 0.70787(13)
H24_6 H 0.7657 0.1617 0.7098
C38_6 C 0.6374(3) 0.2102(2) 0.64833(11)
H29_6 H 0.6182 0.2320 0.6462
C39_6 C 0.6114(3) 0.17623(19) 0.64899(10)
H30_6 H 0.5753 0.1755 0.6474
C40_6 C 0.6388(3) 0.14350(18) 0.65199(8)
C41_6 C 0.6915(3) 0.1464(2) 0.65486(10)
H31_6 H 0.7111 0.1249 0.6573
C42_6 C 0.7156(3) 0.1807(2) 0.65421(11)
H32_6 H 0.7514 0.1821 0.6563
C48_6 C 0.8348(3) 0.20624(19) 0.68563(12)
C49_6 C 0.8754(3) 0.18848(18) 0.67302(10)
C50_6 C 0.8692(3) 0.18708(19) 0.65350(10)
H37_6 H 0.8402 0.1983 0.6480
C51_6 C 0.9052(3) 0.1694(2) 0.64231(11)
H38_6 H 0.9000 0.1679 0.6293
C52_6 C 0.9488(3) 0.1540(2) 0.65031(11)
H39_6 H 0.9731 0.1415 0.6428
C53_6 C 0.9570(3) 0.1571(2) 0.66995(11)
C54_6 C 0.9201(3) 0.1731(2) 0.68098(11)
H40_6 H 0.9247 0.1738 0.6940
H41_6 H 0.9951 0.1348 0.7040
C70_7 C 0.7539(3) 0.23815(19) 0.61374(10)
C71_7 C 0.8011(3) 0.1821(2) 0.60119(10)
H53_7 H 0.8121 0.1766 0.6134
C72_7 C 0.7722(2) 0.21397(18) 0.59780(9)
C73_7 C 0.7570(3) 0.2229(2) 0.57926(9)
H54_7 H 0.7375 0.2445 0.5769
C74_7 C 0.7712(3) 0.1998(2) 0.56484(10)
C75_7 C 0.7990(3) 0.1677(2) 0.56786(10)
H55_7 H 0.8078 0.1523 0.5577
C76_7 C 0.8142(3) 0.1580(2) 0.58616(11)
H56_7 H 0.8326 0.1360 0.5884
C77_7 C 0.7436(4) 0.2440(2) 0.54128(11)
H57_7 H 0.7674 0.2617 0.5471
H58_7 H 0.7085 0.2492 0.5457
C78_7 C 0.7461(4) 0.2472(3) 0.51966(12)
C79_7 C 0.7965(5) 0.2421(3) 0.51064(14)
H59_7 H 0.8264 0.2370 0.5177
C80_7 C 0.7018(5) 0.2546(3) 0.50905(14)
H60_7 H 0.6699 0.2576 0.5152
O22_7 O 0.72493(16) 0.26716(12) 0.37020(6)
O23_7 O 0.7818(2) 0.23884(13) 0.38877(7)
O24_7 O 0.7417(2) 0.29410(16) 0.45405(7)
C103_7 C 0.7461(3) 0.26185(19) 0.38626(10)
C104_7 C 0.6989(3) 0.3179(2) 0.39881(10)
H77_7 H 0.6879 0.3234 0.3866
C105_7 C 0.7278(2) 0.28603(18) 0.40220(9)
C106_7 C 0.7430(3) 0.2771(2) 0.42074(9)
H78_7 H 0.7625 0.2555 0.4231
C107_7 C 0.7288(3) 0.3002(2) 0.43516(10)
C108_7 C 0.7010(3) 0.3323(2) 0.43214(10)
H79_7 H 0.6922 0.3477 0.4423
C109_7 C 0.6858(3) 0.3420(2) 0.41384(11)
H80_7 H 0.6674 0.3640 0.4116
C110_7 C 0.7564(4) 0.2560(2) 0.45872(11)
H81_7 H 0.7326 0.2383 0.4529
H82_7 H 0.7915 0.2508 0.4543
C111_7 C 0.7539(4) 0.2528(3) 0.48034(12)
C112_7 C 0.7035(5) 0.2579(3) 0.48936(14)
H83_7 H 0.6736 0.2630 0.4823
C113_7 C 0.7982(5) 0.2454(3) 0.49095(14)
H84_7 H 0.8301 0.2424 0.4848
N7_6 N 0.5360(3) 0.0495(2) 0.70441(10)
C119_6 C 0.5857(4) 0.0446(2) 0.70169(11)
H89_6 H 0.5973 0.0203 0.6993
C120_6 C 0.6223(3) 0.0727(2) 0.70207(11)
H90_6 H 0.6575 0.0672 0.7002
C121_6 C 0.6066(3) 0.1094(2) 0.70529(10)
C122_6 C 0.5536(3) 0.1147(2) 0.70871(11)
H91_6 H 0.5408 0.1385 0.7115
C123_6 C 0.5197(3) 0.0842(3) 0.70787(13)
H92_6 H 0.4843 0.0883 0.7098
N9_6 N 0.5615(2) 0.03718(18) 0.65064(9)
C129_6 C 0.6126(3) 0.0398(2) 0.64833(11)
H97_6 H 0.6318 0.0180 0.6462
C130_6 C 0.6386(3) 0.07377(19) 0.64899(10)
H98_6 H 0.6747 0.0745 0.6474
C131_6 C 0.6112(3) 0.10650(18) 0.65199(8)
C132_6 C 0.5585(3) 0.1036(2) 0.65486(10)
H99_6 H 0.5389 0.1251 0.6573
C133_6 C 0.5344(3) 0.0693(2) 0.65421(11)
H100_6 H 0.4986 0.0679 0.6563
H104_6 H 0.4967 0.0741 0.9998
O26_6 O 0.4670(3) 0.0019(2) 0.74210(9)
O28_6 O 0.4971(3) 0.0374(2) 0.89595(10)
O29_4 O 0.4527(4) 0.0301(2) 0.97971(12)
O30_4 O 0.5180(4) 0.0006(3) 0.96579(13)
C149_6 C 0.5679(5) 0.0004(3) 0.86431(18)
H112_6 H 0.5908 0.0166 0.8705
C154_6 C 0.4790(4) 0.0488(3) 0.91430(17)
C155_6 C 0.4915(3) 0.0300(3) 0.93064(16)
H117_6 H 0.5135 0.0093 0.9305
C156_6 C 0.4699(4) 0.0434(3) 0.94738(14)
C157_6 C 0.4364(4) 0.0730(4) 0.94816(18)
H118_6 H 0.4213 0.0805 0.9595
C158_6 C 0.4253(5) 0.0920(3) 0.9309(2)
H119_6 H 0.4038 0.1130 0.9309
C159_6 C 0.4468(4) 0.0788(3) 0.91433(17)
H120_6 H 0.4391 0.0908 0.9030
C160_6 C 0.4814(6) 0.0216(4) 0.9649(2)
Cu9_9 Cu 0.5000 0.0000 1.0000
Cu12_7 Cu 0.76988(4) 0.23990(3) 0.35251(2)
O37_4 O 0.47493(16) 0.01716(12) 0.62980(6)
N13_7 N 0.8081(4) 0.2885(3) 0.99827(19)
Cu9_10 Cu 0.5000 1.0000 0.0000
O25_6 O 0.52762(19) 0.98148(13) 0.72294(7)
O27_6 O 0.5336(2) 0.9607(2) 0.80568(8)
C139_6 C 0.5064(3) 0.9835(2) 0.73927(12)
C140_6 C 0.5323(3) 0.9608(3) 0.75480(12)
C141_6 C 0.5674(4) 0.9328(3) 0.75031(13)
H105_6 H 0.5754 0.9278 0.7377
C142_6 C 0.5904(4) 0.9122(3) 0.76437(14)
H106_6 H 0.6119 0.8921 0.7613
C143_6 C 0.5816(4) 0.9214(3) 0.78317(14)
H107_6 H 0.5988 0.9086 0.7928
C144_6 C 0.5473(4) 0.9496(3) 0.78726(12)
C145_6 C 0.5207(4) 0.9694(3) 0.77342(12)
H108_6 H 0.4961 0.9876 0.7765
C146_6 C 0.5659(4) 0.9467(3) 0.82024(14)
H109_6 H 0.6021 0.9530 0.8177
H110_6 H 0.5629 0.9195 0.8209
C147_6 C 0.5484(4) 0.9642(3) 0.83867(14)
C148_6 C 0.5811(5) 0.9891(3) 0.84728(17)
H111_6 H 0.6114 0.9976 0.8414
C150_6 C 0.5241(5) 0.9907(3) 0.87364(16)
C151_6 C 0.4906(5) 0.9648(4) 0.86506(17)
H113_6 H 0.4605 0.9568 0.8712
C152_6 C 0.5031(5) 0.9511(3) 0.84718(16)
H114_6 H 0.4817 0.9337 0.8411
C153_6 C 0.5151(5) 0.9998(4) 0.89486(17)
H115_6 H 0.4894 0.9828 0.9002
H116_6 H 0.5475 0.9970 0.9019
Cu9_11 Cu 0.5000 1.0000 1.0000
O38_4 O 0.5318(2) 0.98884(13) 0.61123(7)
O15_8 O 0.4917(2) 0.04410(16) 0.54595(7)
C70_8 C 0.4961(3) 0.01185(19) 0.61374(10)
C71_8 C 0.4489(3) 0.0679(2) 0.60119(10)
H53_8 H 0.4379 0.0734 0.6134
C72_8 C 0.4778(2) 0.03603(18) 0.59780(9)
C73_8 C 0.4930(3) 0.0271(2) 0.57926(9)
H54_8 H 0.5125 0.0055 0.5769
C74_8 C 0.4788(3) 0.0502(2) 0.56484(10)
C75_8 C 0.4510(3) 0.0823(2) 0.56786(10)
H55_8 H 0.4422 0.0977 0.5577
C76_8 C 0.4358(3) 0.0920(2) 0.58616(11)
H56_8 H 0.4174 0.1140 0.5884
C77_8 C 0.5064(4) 0.0060(2) 0.54128(11)
H58_8 H 0.5415 0.0008 0.5457
C78_8 C 0.5039(4) 0.0028(3) 0.51966(12)
C79_8 C 0.4535(5) 0.0079(3) 0.51064(14)
H59_8 H 0.4236 0.0130 0.5177
O23_8 O 0.4682(2) 0.01116(13) 0.38877(7)
H81_8 H 0.5174 0.0117 0.4529
C113_8 C 0.4518(5) 0.0046(3) 0.49095(14)
H84_8 H 0.4199 0.0076 0.4848
Cu12_8 Cu 0.48012(4) 0.01010(3) 0.35251(2)
O31_8 O 0.5473(4) 0.9699(2) 0.02029(12)
O32_8 O 0.4820(4) 0.9994(3) 0.03421(13)
H57_8 H 0.4826 0.9883 0.5471
C80_8 C 0.5482(5) 0.9954(3) 0.50905(14)
H60_8 H 0.5801 0.9924 0.5152
O22_8 O 0.52507(16) 0.98284(12) 0.37020(6)
O24_8 O 0.5083(2) 0.95590(16) 0.45405(7)
C103_8 C 0.5039(3) 0.98815(19) 0.38626(10)
C104_8 C 0.5511(3) 0.9321(2) 0.39881(10)
H77_8 H 0.5621 0.9266 0.3866
C105_8 C 0.5222(2) 0.96397(18) 0.40220(9)
C106_8 C 0.5070(3) 0.9729(2) 0.42074(9)
H78_8 H 0.4875 0.9945 0.4231
C107_8 C 0.5212(3) 0.9498(2) 0.43516(10)
C108_8 C 0.5490(3) 0.9177(2) 0.43214(10)
H79_8 H 0.5578 0.9023 0.4423
C109_8 C 0.5642(3) 0.9080(2) 0.41384(11)
H80_8 H 0.5826 0.8860 0.4116
C110_8 C 0.4936(4) 0.9940(2) 0.45872(11)
H82_8 H 0.4585 0.9992 0.4543
C111_8 C 0.4961(4) 0.9972(3) 0.48034(12)
C112_8 C 0.5465(5) 0.9921(3) 0.48936(14)
H83_8 H 0.5764 0.9870 0.4823
N13_8 N 0.4419(4) 0.9615(3) 0.99827(19)
O12_7 O 0.0088(2) 0.14663(18) 0.32528(7)
C66_7 C 0.0176(3) 0.1501(2) 0.34509(11)
H49_7 H 0.0133 0.1759 0.3491
C67_7 C 0.0734(3) 0.1372(2) 0.34806(10)
C68_7 C 0.0853(3) 0.0999(2) 0.34851(11)
H51_7 H 0.0584 0.0823 0.3488
C69_7 C 0.1142(3) 0.1621(2) 0.34849(11)
H52_7 H 0.1072 0.1877 0.3488
O19_7 O 0.44901(19) 0.02456(13) 0.32197(8)
O20_7 O 0.41334(18) 0.04536(14) 0.34806(8)
O21_7 O 0.2412(2) 0.10337(18) 0.32528(7)
C92_7 C 0.4137(3) 0.04225(18) 0.33018(13)
C93_7 C 0.3704(2) 0.06026(18) 0.31920(10)
C94_7 C 0.3760(3) 0.0640(2) 0.29980(11)
H69_7 H 0.4055 0.0550 0.2936
C95_7 C 0.3356(3) 0.0820(2) 0.28965(12)
H70_7 H 0.3387 0.0850 0.2766
C96_7 C 0.2920(3) 0.0950(3) 0.29861(12)
H71_7 H 0.2659 0.1071 0.2918
C97_7 C 0.2867(3) 0.0902(2) 0.31793(11)
C98_7 C 0.3258(2) 0.07276(19) 0.32860(10)
H72_7 H 0.3222 0.0696 0.3416
C99_7 C 0.2324(3) 0.0999(2) 0.34509(11)
H73_7 H 0.2367 0.0741 0.3491
H74_7 H 0.2564 0.1157 0.3521
C100_7 C 0.1766(3) 0.1128(2) 0.34806(10)
C101_7 C 0.1647(3) 0.1501(2) 0.34851(11)
H75_7 H 0.1916 0.1677 0.3488
C102_7 C 0.1358(3) 0.0879(2) 0.34849(11)
H76_7 H 0.1428 0.0623 0.3488
H92_7 H 0.0157 0.4117 0.2902
H100_7 H 0.0014 0.4321 0.3437
H104_7 H 0.0033 0.4259 0.0002
Cu4_2 Cu 0.01172(5) 0.49406(3) 0.29694(2)
O26_7 O 0.0330(3) 0.4981(2) 0.25790(9)
O28_7 O 0.0029(3) 0.4626(2) 0.10405(10)
H108_7 H 0.0039 0.5124 0.2235
C151_7 C 0.0094(5) 0.5352(4) 0.13494(17)
H113_7 H 0.0395 0.5432 0.1288
H114_7 H 0.0183 0.5663 0.1589
H115_7 H 0.0106 0.5172 0.0998
C154_7 C 0.0210(4) 0.4512(3) 0.08570(17)
C155_7 C 0.0085(3) 0.4700(3) 0.06936(16)
C156_7 C 0.0301(4) 0.4566(3) 0.05262(14)
C157_7 C 0.0636(4) 0.4270(4) 0.05184(18)
H118_7 H 0.0787 0.4195 0.0405
C158_7 C 0.0747(5) 0.4080(3) 0.0691(2)
H119_7 H 0.0962 0.3870 0.0691
C159_7 C 0.0532(4) 0.4212(3) 0.08567(17)
H120_7 H 0.0609 0.4092 0.0970
C160_7 C 0.0186(6) 0.4784(4) 0.0351(2)
O33_3 O 0.04736(17) 0.47380(12) 0.32213(8)
O34_3 O 0.08977(17) 0.45342(14) 0.29714(8)
N11_4 N 0.0556(3) 0.53997(19) 0.29855(9)
N12_4 N 0.0315(3) 0.55221(18) 0.35158(9)
Cu7_4 Cu 0.51172(5) 0.99406(3) 0.29694(2)
Cu1_4 Cu 0.73828(5) 0.25594(3) 0.29694(2)
O1_7 O 0.77762(19) 0.23148(13) 0.27706(7)
O2_7 O 0.7170(3) 0.2519(2) 0.25790(9)
O3_7 O 0.7836(2) 0.2107(2) 0.19432(8)
O4_7 O 0.7471(3) 0.2874(2) 0.10405(10)
O7_7 O 0.70264(17) 0.27620(12) 0.32213(8)
O8_7 O 0.66023(17) 0.29658(14) 0.29714(8)
O9_7 O 0.4965(2) 0.35769(18) 0.32400(7)
O10_4 O 0.80099(19) 0.22544(13) 0.32197(8)
O11_4 O 0.83666(18) 0.20464(14) 0.34806(8)
N1_4 N 0.6944(3) 0.21003(19) 0.29855(9)
N2_7 N 0.7860(3) 0.2995(2) 0.29559(10)
N3_4 N 0.7185(3) 0.19779(18) 0.35158(9)
N4_7 N 0.8115(2) 0.28718(18) 0.34936(9)
H4_7 H 0.7467 0.3241 0.0002
C6_7 C 0.7564(3) 0.2335(2) 0.26073(12)
C7_7 C 0.7823(3) 0.2108(3) 0.24520(12)
C8_7 C 0.8174(4) 0.1828(3) 0.24969(13)
H5_7 H 0.8254 0.1778 0.2623
C9_7 C 0.8404(4) 0.1622(3) 0.23563(14)
H6_7 H 0.8619 0.1421 0.2387
C10_7 C 0.8316(4) 0.1714(3) 0.21683(14)
H7_7 H 0.8488 0.1586 0.2072
C11_7 C 0.7973(4) 0.1996(3) 0.21274(12)
C12_7 C 0.7707(4) 0.2194(3) 0.22658(12)
H8_7 H 0.7461 0.2376 0.2235
C13_7 C 0.8159(4) 0.1967(3) 0.17976(14)
H9_7 H 0.8521 0.2030 0.1823
H10_7 H 0.8129 0.1695 0.1791
C14_7 C 0.7984(4) 0.2142(3) 0.16133(14)
C15_7 C 0.8311(5) 0.2391(3) 0.15272(17)
H11_7 H 0.8614 0.2476 0.1586
C16_7 C 0.8179(5) 0.2504(3) 0.13569(18)
H12_7 H 0.8408 0.2666 0.1295
C17_7 C 0.7741(5) 0.2407(3) 0.12636(16)
C18_7 C 0.7406(5) 0.2148(4) 0.13494(17)
H13_7 H 0.7105 0.2068 0.1288
C19_7 C 0.7531(5) 0.2011(3) 0.15282(16)
H14_7 H 0.7317 0.1837 0.1589
C20_7 C 0.7651(5) 0.2498(4) 0.10514(17)
H15_7 H 0.7394 0.2328 0.0998
H16_7 H 0.7975 0.2470 0.0981
C21_7 C 0.7290(4) 0.2988(3) 0.08570(17)
C22_7 C 0.7415(3) 0.2800(3) 0.06936(16)
H17_7 H 0.7635 0.2593 0.0695
C23_7 C 0.7199(4) 0.2934(3) 0.05262(14)
C24_7 C 0.6864(4) 0.3230(4) 0.05184(18)
H18_7 H 0.6713 0.3305 0.0405
C25_7 C 0.6753(5) 0.3420(3) 0.0691(2)
H19_7 H 0.6538 0.3630 0.0691
C26_7 C 0.6968(4) 0.3288(3) 0.08567(17)
H20_7 H 0.6891 0.3408 0.0970
C27_7 C 0.7314(6) 0.2716(4) 0.0351(2)
C28_7 C 0.8357(4) 0.2946(2) 0.29831(11)
H21_7 H 0.8473 0.2703 0.3007
C29_7 C 0.8723(3) 0.3227(2) 0.29793(11)
H22_7 H 0.9075 0.3172 0.2998
C30_7 C 0.8566(3) 0.3594(2) 0.29471(10)
C31_7 C 0.8036(3) 0.3647(2) 0.29129(11)
H23_7 H 0.7908 0.3885 0.2885
C32_7 C 0.7697(3) 0.3342(3) 0.29213(13)
H24_7 H 0.7343 0.3383 0.2902
C33_7 C 0.7185(3) 0.1776(3) 0.30198(11)
H25_7 H 0.7542 0.1779 0.3043
C34_7 C 0.6930(3) 0.1438(2) 0.30216(10)
H26_7 H 0.7112 0.1218 0.3047
C35_7 C 0.6395(3) 0.1426(2) 0.29846(9)
C36_7 C 0.6141(3) 0.1764(2) 0.29479(10)
H27_7 H 0.5783 0.1768 0.2924
C37_7 C 0.6428(3) 0.2096(2) 0.29469(11)
H28_7 H 0.6260 0.2321 0.2919
C38_7 C 0.8626(3) 0.2898(2) 0.35167(11)
H29_7 H 0.8818 0.2680 0.3538
C39_7 C 0.8886(3) 0.32377(19) 0.35101(10)
H30_7 H 0.9247 0.3245 0.3526
C40_7 C 0.8612(3) 0.35650(18) 0.34801(8)
C41_7 C 0.8085(3) 0.3536(2) 0.34514(10)
H31_7 H 0.7889 0.3751 0.3427
C42_7 C 0.7844(3) 0.3193(2) 0.34579(11)
H32_7 H 0.7486 0.3179 0.3437
C43_7 C 0.7324(3) 0.1617(2) 0.35538(11)
H33_7 H 0.7672 0.1565 0.3581
C44_7 C 0.6970(3) 0.1328(2) 0.35534(10)
H34_7 H 0.7077 0.1084 0.3582
C45_7 C 0.6443(3) 0.14008(18) 0.35097(9)
C46_7 C 0.6321(3) 0.17726(19) 0.34719(9)
H35_7 H 0.5976 0.1837 0.3445
C47_7 C 0.6691(3) 0.2044(2) 0.34725(11)
H36_7 H 0.6594 0.2287 0.3441
C48_7 C 0.6652(3) 0.29376(19) 0.31437(12)
C49_7 C 0.6246(3) 0.31152(18) 0.32698(10)
C50_7 C 0.6308(3) 0.31292(19) 0.34650(10)
H37_7 H 0.6598 0.3017 0.3520
C51_7 C 0.5948(3) 0.3306(2) 0.35769(11)
H38_7 H 0.6000 0.3321 0.3707
C52_7 C 0.5512(3) 0.3460(2) 0.34969(11)
H39_7 H 0.5269 0.3585 0.3572
C53_7 C 0.5430(3) 0.3429(2) 0.33005(11)
C54_7 C 0.5799(3) 0.3269(2) 0.31902(11)
H40_7 H 0.5753 0.3262 0.3060
C55_7 C 0.4825(3) 0.3509(3) 0.30439(11)
H41_7 H 0.5049 0.3652 0.2960
H42_7 H 0.4856 0.3244 0.3013
C56_7 C 0.4270(3) 0.3636(3) 0.30265(11)
C57_7 C 0.3873(4) 0.3379(3) 0.30233(12)
H43_7 H 0.3951 0.3124 0.3020
C58_7 C 0.4148(3) 0.4006(3) 0.30248(12)
H44_7 H 0.4413 0.4185 0.3025
C59_7 C 0.8363(3) 0.20775(18) 0.33018(13)
C60_7 C 0.8796(2) 0.18974(18) 0.31920(10)
C61_7 C 0.8740(3) 0.1860(2) 0.29980(11)
H45_7 H 0.8445 0.1950 0.2936
C62_7 C 0.9144(3) 0.1680(2) 0.28965(12)
H46_7 H 0.9113 0.1650 0.2766
C63_7 C 0.9580(3) 0.1550(3) 0.29861(12)
H47_7 H 0.9841 0.1429 0.2918
C64_7 C 0.9633(3) 0.1598(2) 0.31793(11)
C65_7 C 0.9242(2) 0.17724(19) 0.32860(10)
H48_7 H 0.9278 0.1804 0.3416
H50_7 H 0.9936 0.1343 0.3521
O18_7 O 0.2535(2) 0.39231(18) 0.32400(7)
C81_7 C 0.0848(3) 0.45624(19) 0.31437(12)
C82_7 C 0.1254(3) 0.43848(18) 0.32698(10)
C83_7 C 0.1192(3) 0.43708(19) 0.34650(10)
H61_7 H 0.0902 0.4483 0.3520
C84_7 C 0.1552(3) 0.4194(2) 0.35769(11)
H62_7 H 0.1500 0.4179 0.3707
C85_7 C 0.1988(3) 0.4040(2) 0.34969(11)
H63_7 H 0.2231 0.3915 0.3572
C86_7 C 0.2070(3) 0.4071(2) 0.33005(11)
C87_7 C 0.1701(3) 0.4231(2) 0.31902(11)
H64_7 H 0.1747 0.4238 0.3060
C88_7 C 0.2675(3) 0.3991(3) 0.30439(11)
H65_7 H 0.2451 0.3848 0.2960
H66_7 H 0.2644 0.4256 0.3013
C89_7 C 0.3230(3) 0.3864(3) 0.30265(11)
C90_7 C 0.3627(4) 0.4121(3) 0.30233(12)
H67_7 H 0.3549 0.4376 0.3020
C91_7 C 0.3352(3) 0.3494(3) 0.30248(12)
H68_7 H 0.3087 0.3315 0.3025
N6_7 N 0.5556(3) 0.03997(19) 0.29855(9)
C114_7 C 0.5315(3) 0.0724(3) 0.30198(11)
H85_7 H 0.4958 0.0721 0.3043
C115_7 C 0.5570(3) 0.1062(2) 0.30216(10)
H86_7 H 0.5388 0.1282 0.3047
C116_7 C 0.6105(3) 0.1074(2) 0.29846(9)
C117_7 C 0.6359(3) 0.0736(2) 0.29479(10)
H87_7 H 0.6717 0.0732 0.2924
C118_7 C 0.6072(3) 0.0404(2) 0.29469(11)
H88_7 H 0.6240 0.0179 0.2919
N7_7 N 0.9640(3) 0.4505(2) 0.29559(10)
C119_7 C 0.9143(4) 0.4554(2) 0.29831(11)
H89_7 H 0.9027 0.4797 0.3007
C120_7 C 0.8777(3) 0.4273(2) 0.29793(11)
H90_7 H 0.8425 0.4328 0.2998
C121_7 C 0.8934(3) 0.3906(2) 0.29471(10)
C122_7 C 0.9464(3) 0.3853(2) 0.29129(11)
H91_7 H 0.9592 0.3615 0.2885
C123_7 C 0.9803(3) 0.4158(3) 0.29213(13)
N8_7 N 0.5315(3) 0.05221(18) 0.35158(9)
C124_7 C 0.5176(3) 0.0883(2) 0.35538(11)
H93_7 H 0.4828 0.0935 0.3581
C125_7 C 0.5530(3) 0.1172(2) 0.35534(10)
H94_7 H 0.5423 0.1416 0.3582
C126_7 C 0.6057(3) 0.10992(18) 0.35097(9)
C127_7 C 0.6179(3) 0.07274(19) 0.34719(9)
H95_7 H 0.6524 0.0663 0.3445
C128_7 C 0.5809(3) 0.0456(2) 0.34725(11)
H96_7 H 0.5906 0.0213 0.3441
N9_7 N 0.9385(2) 0.46282(18) 0.34936(9)
C129_7 C 0.8874(3) 0.4602(2) 0.35167(11)
H97_7 H 0.8682 0.4820 0.3538
C130_7 C 0.8614(3) 0.42623(19) 0.35101(10)
H98_7 H 0.8253 0.4255 0.3526
C131_7 C 0.8888(3) 0.39350(18) 0.34801(8)
C132_7 C 0.9415(3) 0.3964(2) 0.34514(10)
H99_7 H 0.9611 0.3749 0.3427
C133_7 C 0.9656(3) 0.4307(2) 0.34579(11)
O25_7 O 0.97238(19) 0.51852(13) 0.27706(7)
O27_7 O 0.9664(2) 0.5393(2) 0.19432(8)
C139_7 C 0.9936(3) 0.5165(2) 0.26073(12)
C140_7 C 0.9677(3) 0.5392(3) 0.24520(12)
C141_7 C 0.9326(4) 0.5672(3) 0.24969(13)
H105_7 H 0.9246 0.5722 0.2623
C142_7 C 0.9096(4) 0.5878(3) 0.23563(14)
H106_7 H 0.8881 0.6079 0.2387
C143_7 C 0.9184(4) 0.5786(3) 0.21683(14)
H107_7 H 0.9012 0.5914 0.2072
C144_7 C 0.9527(4) 0.5504(3) 0.21274(12)
C145_7 C 0.9793(4) 0.5306(3) 0.22658(12)
C146_7 C 0.9341(4) 0.5533(3) 0.17976(14)
H109_7 H 0.8979 0.5470 0.1823
H110_7 H 0.9371 0.5805 0.1791
C147_7 C 0.9516(4) 0.5358(3) 0.16133(14)
C148_7 C 0.9189(5) 0.5109(3) 0.15272(17)
H111_7 H 0.8886 0.5024 0.1586
C149_7 C 0.9321(5) 0.4996(3) 0.13569(18)
H112_7 H 0.9092 0.4834 0.1295
C150_7 C 0.9759(5) 0.5093(3) 0.12636(16)
C152_7 C 0.9969(5) 0.5489(3) 0.15282(16)
C153_7 C 0.9849(5) 0.5002(4) 0.10514(17)
H116_7 H 0.9525 0.5030 0.0981
H117_7 H 0.9865 0.4907 0.0695
O35_4 O 0.94901(19) 0.52456(13) 0.32197(8)
O36_4 O 0.91334(18) 0.54536(14) 0.34806(8)
C1_7 C 0.8622(5) 0.2869(3) 0.9969(3)
H1_7 H 0.8790 0.2638 0.9962
C2_7 C 0.8912(4) 0.3199(4) 0.9966(3)
H2_7 H 0.9274 0.3189 0.9956
C3_7 C 0.8661(5) 0.3545(3) 0.9976(3)
C4_7 C 0.8120(5) 0.3561(3) 0.9990(3)
H3_7 H 0.7952 0.3792 0.9997
C5_7 C 0.7829(4) 0.3231(3) 0.9993(2)
C134_7 C 0.8878(5) 0.4631(3) 0.9969(3)
H101_7 H 0.8710 0.4862 0.9962
C135_7 C 0.8588(4) 0.4301(4) 0.9966(3)
H102_7 H 0.8226 0.4311 0.9956
C136_7 C 0.8839(5) 0.3955(3) 0.9976(3)
C137_7 C 0.9380(5) 0.3939(3) 0.9990(3)
H103_7 H 0.9548 0.3708 0.9997
C138_7 C 0.9671(4) 0.4269(3) 0.9993(2)
C33_8 C 0.0315(3) 0.5724(3) 0.30198(11)
C34_8 C 0.0570(3) 0.6062(2) 0.30216(10)
H26_8 H 0.0388 0.6282 0.3047
C35_8 C 0.1105(3) 0.6074(2) 0.29846(9)
C36_8 C 0.1359(3) 0.5736(2) 0.29479(10)
H27_8 H 0.1717 0.5732 0.2924
C37_8 C 0.1072(3) 0.5404(2) 0.29469(11)
H28_8 H 0.1240 0.5179 0.2919
C43_8 C 0.0176(3) 0.5883(2) 0.35538(11)
C44_8 C 0.0530(3) 0.6172(2) 0.35534(10)
H34_8 H 0.0423 0.6416 0.3582
C45_8 C 0.1057(3) 0.60992(18) 0.35097(9)
C46_8 C 0.1179(3) 0.57274(19) 0.34719(9)
H35_8 H 0.1524 0.5663 0.3445
C47_8 C 0.0809(3) 0.5456(2) 0.34725(11)
H36_8 H 0.0906 0.5213 0.3441
N6_8 N 0.1944(3) 0.71003(19) 0.29855(9)
C114_8 C 0.2185(3) 0.6776(3) 0.30198(11)
H85_8 H 0.2542 0.6779 0.3043
C115_8 C 0.1930(3) 0.6438(2) 0.30216(10)
H86_8 H 0.2112 0.6218 0.3047
C116_8 C 0.1395(3) 0.6426(2) 0.29846(9)
C117_8 C 0.1141(3) 0.6764(2) 0.29479(10)
H87_8 H 0.0783 0.6768 0.2924
C118_8 C 0.1428(3) 0.7096(2) 0.29469(11)
H88_8 H 0.1260 0.7321 0.2919
N8_8 N 0.2185(3) 0.69779(18) 0.35158(9)
C124_8 C 0.2324(3) 0.6617(2) 0.35538(11)
H93_8 H 0.2672 0.6565 0.3581
C125_8 C 0.1970(3) 0.6328(2) 0.35534(10)
H94_8 H 0.2077 0.6084 0.3582
C126_8 C 0.1443(3) 0.64008(18) 0.35097(9)
C127_8 C 0.1321(3) 0.67726(19) 0.34719(9)
H95_8 H 0.0976 0.6837 0.3445
C128_8 C 0.1691(3) 0.7044(2) 0.34725(11)
H96_8 H 0.1594 0.7287 0.3441
Cu8_4 Cu 0.23828(5) 0.75594(3) 0.29694(2)
O12_8 O 0.7412(2) 0.60337(18) 0.32528(7)
H25_8 H 0.9958 0.5721 0.3043
H33_8 H 0.9828 0.5935 0.3581
C59_8 C 0.9137(3) 0.54225(18) 0.33018(13)
C60_8 C 0.8704(2) 0.56026(18) 0.31920(10)
C61_8 C 0.8760(3) 0.5640(2) 0.29980(11)
H45_8 H 0.9055 0.5550 0.2936
C62_8 C 0.8356(3) 0.5820(2) 0.28965(12)
H46_8 H 0.8387 0.5850 0.2766
C63_8 C 0.7920(3) 0.5950(3) 0.29861(12)
H47_8 H 0.7659 0.6071 0.2918
C64_8 C 0.7867(3) 0.5902(2) 0.31793(11)
C65_8 C 0.8258(2) 0.57276(19) 0.32860(10)
H48_8 H 0.8222 0.5696 0.3416
C66_8 C 0.7324(3) 0.5999(2) 0.34509(11)
H49_8 H 0.7367 0.5741 0.3491
H50_8 H 0.7564 0.6157 0.3521
C67_8 C 0.6766(3) 0.6128(2) 0.34806(10)
C68_8 C 0.6647(3) 0.6501(2) 0.34851(11)
H51_8 H 0.6916 0.6677 0.3488
C69_8 C 0.6358(3) 0.5879(2) 0.34849(11)
H52_8 H 0.6428 0.5623 0.3488
O19_8 O 0.30099(19) 0.72544(13) 0.32197(8)
O20_8 O 0.33666(18) 0.70464(14) 0.34806(8)
O21_8 O 0.5088(2) 0.64663(18) 0.32528(7)
C92_8 C 0.3363(3) 0.70775(18) 0.33018(13)
C93_8 C 0.3796(2) 0.68974(18) 0.31920(10)
C94_8 C 0.3740(3) 0.6860(2) 0.29980(11)
H69_8 H 0.3445 0.6950 0.2936
C95_8 C 0.4144(3) 0.6680(2) 0.28965(12)
H70_8 H 0.4113 0.6650 0.2766
C96_8 C 0.4580(3) 0.6550(3) 0.29861(12)
H71_8 H 0.4841 0.6429 0.2918
C97_8 C 0.4633(3) 0.6598(2) 0.31793(11)
C98_8 C 0.4242(2) 0.67724(19) 0.32860(10)
H72_8 H 0.4278 0.6804 0.3416
C99_8 C 0.5176(3) 0.6501(2) 0.34509(11)
H73_8 H 0.5133 0.6759 0.3491
H74_8 H 0.4936 0.6343 0.3521
C100_8 C 0.5734(3) 0.6372(2) 0.34806(10)
C101_8 C 0.5853(3) 0.5999(2) 0.34851(11)
H75_8 H 0.5584 0.5823 0.3488
C102_8 C 0.6142(3) 0.6621(2) 0.34849(11)
H76_8 H 0.6072 0.6877 0.3488
O25_8 O 0.47238(19) 0.01852(13) 0.27706(7)
O27_8 O 0.4664(2) 0.0393(2) 0.19432(8)
C139_8 C 0.4936(3) 0.0165(2) 0.26073(12)
C140_8 C 0.4677(3) 0.0392(3) 0.24520(12)
C141_8 C 0.4326(4) 0.0672(3) 0.24969(13)
H105_8 H 0.4246 0.0722 0.2623
C142_8 C 0.4096(4) 0.0878(3) 0.23563(14)
H106_8 H 0.3881 0.1079 0.2387
C143_8 C 0.4184(4) 0.0786(3) 0.21683(14)
H107_8 H 0.4012 0.0914 0.2072
C144_8 C 0.4527(4) 0.0504(3) 0.21274(12)
C145_8 C 0.4793(4) 0.0306(3) 0.22658(12)
H108_8 H 0.5039 0.0124 0.2235
C146_8 C 0.4341(4) 0.0533(3) 0.17976(14)
H109_8 H 0.3979 0.0470 0.1823
H110_8 H 0.4371 0.0805 0.1791
C147_8 C 0.4516(4) 0.0358(3) 0.16133(14)
C148_8 C 0.4189(5) 0.0109(3) 0.15272(17)
H111_8 H 0.3886 0.0024 0.1586
C150_8 C 0.4759(5) 0.0093(3) 0.12636(16)
C151_8 C 0.5094(5) 0.0352(4) 0.13494(17)
H113_8 H 0.5395 0.0432 0.1288
C152_8 C 0.4969(5) 0.0489(3) 0.15282(16)
H114_8 H 0.5183 0.0663 0.1589
C153_8 C 0.4849(5) 0.0002(4) 0.10514(17)
H115_8 H 0.5106 0.0172 0.0998
H116_8 H 0.4525 0.0030 0.0981
O1_8 O 0.27762(19) 0.73148(13) 0.27706(7)
O2_8 O 0.2170(3) 0.7519(2) 0.25790(9)
O3_8 O 0.2836(2) 0.7107(2) 0.19432(8)
O4_8 O 0.2471(3) 0.7874(2) 0.10405(10)
O7_8 O 0.20264(17) 0.77620(12) 0.32213(8)
O8_8 O 0.16023(17) 0.79658(14) 0.29714(8)
N2_8 N 0.2860(3) 0.7995(2) 0.29559(10)
N4_8 N 0.3115(2) 0.78718(18) 0.34936(9)
H4_8 H 0.2467 0.8241 0.0002
C6_8 C 0.2564(3) 0.7335(2) 0.26073(12)
C7_8 C 0.2823(3) 0.7108(3) 0.24520(12)
C8_8 C 0.3174(4) 0.6828(3) 0.24969(13)
H5_8 H 0.3254 0.6778 0.2623
C9_8 C 0.3404(4) 0.6622(3) 0.23563(14)
H6_8 H 0.3619 0.6421 0.2387
C10_8 C 0.3316(4) 0.6714(3) 0.21683(14)
H7_8 H 0.3488 0.6586 0.2072
C11_8 C 0.2973(4) 0.6996(3) 0.21274(12)
C12_8 C 0.2707(4) 0.7194(3) 0.22658(12)
H8_8 H 0.2461 0.7376 0.2235
C13_8 C 0.3159(4) 0.6967(3) 0.17976(14)
H9_8 H 0.3521 0.7030 0.1823
H10_8 H 0.3129 0.6695 0.1791
C14_8 C 0.2984(4) 0.7142(3) 0.16133(14)
C15_8 C 0.3311(5) 0.7391(3) 0.15272(17)
H11_8 H 0.3614 0.7476 0.1586
C16_8 C 0.3179(5) 0.7504(3) 0.13569(18)
H12_8 H 0.3408 0.7666 0.1295
C17_8 C 0.2741(5) 0.7407(3) 0.12636(16)
C18_8 C 0.2406(5) 0.7148(4) 0.13494(17)
H13_8 H 0.2105 0.7068 0.1288
C19_8 C 0.2531(5) 0.7011(3) 0.15282(16)
H14_8 H 0.2317 0.6837 0.1589
C20_8 C 0.2651(5) 0.7498(4) 0.10514(17)
H15_8 H 0.2394 0.7328 0.0998
H16_8 H 0.2975 0.7470 0.0981
C21_8 C 0.2290(4) 0.7988(3) 0.08570(17)
C22_8 C 0.2415(3) 0.7800(3) 0.06936(16)
H17_8 H 0.2635 0.7593 0.0695
C23_8 C 0.2199(4) 0.7934(3) 0.05262(14)
C24_8 C 0.1864(4) 0.8230(4) 0.05184(18)
H18_8 H 0.1713 0.8305 0.0405
C25_8 C 0.1753(5) 0.8420(3) 0.0691(2)
H19_8 H 0.1538 0.8630 0.0691
C26_8 C 0.1968(4) 0.8288(3) 0.08567(17)
H20_8 H 0.1891 0.8408 0.0970
C27_8 C 0.2314(6) 0.7716(4) 0.0351(2)
C28_8 C 0.3357(4) 0.7946(2) 0.29831(11)
H21_8 H 0.3473 0.7703 0.3007
C29_8 C 0.3723(3) 0.8227(2) 0.29793(11)
H22_8 H 0.4075 0.8172 0.2998
C30_8 C 0.3566(3) 0.8594(2) 0.29471(10)
C31_8 C 0.3036(3) 0.8647(2) 0.29129(11)
H23_8 H 0.2908 0.8885 0.2885
C32_8 C 0.2697(3) 0.8342(3) 0.29213(13)
H24_8 H 0.2343 0.8383 0.2902
C38_8 C 0.3626(3) 0.7898(2) 0.35167(11)
H29_8 H 0.3818 0.7680 0.3538
C39_8 C 0.3886(3) 0.82377(19) 0.35101(10)
H30_8 H 0.4247 0.8245 0.3526
C40_8 C 0.3612(3) 0.85650(18) 0.34801(8)
C41_8 C 0.3085(3) 0.8536(2) 0.34514(10)
H31_8 H 0.2889 0.8751 0.3427
C42_8 C 0.2844(3) 0.8193(2) 0.34579(11)
H32_8 H 0.2486 0.8179 0.3437
C48_8 C 0.1652(3) 0.79376(19) 0.31437(12)
C49_8 C 0.1246(3) 0.81152(18) 0.32698(10)
C50_8 C 0.1308(3) 0.81292(19) 0.34650(10)
H37_8 H 0.1598 0.8017 0.3520
C51_8 C 0.0948(3) 0.8306(2) 0.35769(11)
H38_8 H 0.1000 0.8321 0.3707
C52_8 C 0.0512(3) 0.8460(2) 0.34969(11)
H39_8 H 0.0269 0.8585 0.3572
C53_8 C 0.0430(3) 0.8429(2) 0.33005(11)
C54_8 C 0.0799(3) 0.8269(2) 0.31902(11)
H40_8 H 0.0753 0.8262 0.3060
H41_8 H 0.0049 0.8652 0.2960
N7_8 N 0.4640(3) 0.9505(2) 0.29559(10)
C119_8 C 0.4143(4) 0.9554(2) 0.29831(11)
H89_8 H 0.4027 0.9797 0.3007
C120_8 C 0.3777(3) 0.9273(2) 0.29793(11)
H90_8 H 0.3425 0.9328 0.2998
C121_8 C 0.3934(3) 0.8906(2) 0.29471(10)
C122_8 C 0.4464(3) 0.8853(2) 0.29129(11)
H91_8 H 0.4592 0.8615 0.2885
C123_8 C 0.4803(3) 0.9158(3) 0.29213(13)
H92_8 H 0.5157 0.9117 0.2902
N9_8 N 0.4385(2) 0.96282(18) 0.34936(9)
C129_8 C 0.3874(3) 0.9602(2) 0.35167(11)
H97_8 H 0.3682 0.9820 0.3538
C130_8 C 0.3614(3) 0.92623(19) 0.35101(10)
H98_8 H 0.3253 0.9255 0.3526
C131_8 C 0.3888(3) 0.89350(18) 0.34801(8)
C132_8 C 0.4415(3) 0.8964(2) 0.34514(10)
H99_8 H 0.4611 0.8749 0.3427
C133_8 C 0.4656(3) 0.9307(2) 0.34579(11)
H100_8 H 0.5014 0.9321 0.3437
H104_8 H 0.5033 0.9259 0.0002
O26_8 O 0.5330(3) 0.9981(2) 0.25790(9)
O28_8 O 0.5029(3) 0.9626(2) 0.10405(10)
C149_8 C 0.4321(5) 0.9996(3) 0.13569(18)
H112_8 H 0.4092 0.9834 0.1295
C154_8 C 0.5210(4) 0.9512(3) 0.08570(17)
C155_8 C 0.5085(3) 0.9700(3) 0.06936(16)
H117_8 H 0.4865 0.9907 0.0695
C156_8 C 0.5301(4) 0.9566(3) 0.05262(14)
C157_8 C 0.5636(4) 0.9270(4) 0.05184(18)
H118_8 H 0.5787 0.9195 0.0405
C158_8 C 0.5747(5) 0.9080(3) 0.0691(2)
H119_8 H 0.5962 0.8870 0.0691
C159_8 C 0.5532(4) 0.9212(3) 0.08567(17)
H120_8 H 0.5609 0.9092 0.0970
C160_8 C 0.5186(6) 0.9784(4) 0.0351(2)
O33_4 O 0.54736(17) 0.97380(12) 0.32213(8)
O34_4 O 0.58977(17) 0.95342(14) 0.29714(8)
C1_8 C 0.3622(5) 0.7869(3) 0.9969(3)
H1_8 H 0.3790 0.7638 0.9962
C2_8 C 0.3912(4) 0.8199(4) 0.9966(3)
H2_8 H 0.4274 0.8189 0.9956
C3_8 C 0.3661(5) 0.8545(3) 0.9976(3)
C4_8 C 0.3120(5) 0.8561(3) 0.9990(3)
H3_8 H 0.2952 0.8792 0.9997
C5_8 C 0.2829(4) 0.8231(3) 0.9993(2)
C134_8 C 0.3878(5) 0.9631(3) 0.9969(3)
H101_8 H 0.3710 0.9862 0.9962
C135_8 C 0.3588(4) 0.9301(4) 0.9966(3)
H102_8 H 0.3226 0.9311 0.9956
C136_8 C 0.3839(5) 0.8955(3) 0.9976(3)
C137_8 C 0.4380(5) 0.8939(3) 0.9990(3)
H103_8 H 0.4548 0.8708 0.9997
C138_8 C 0.4671(4) 0.9269(3) 0.9993(2)
O9_8 O 0.9965(2) 0.85769(18) 0.32400(7)
C55_8 C 0.9825(3) 0.8509(3) 0.30439(11)
H42_8 H 0.9856 0.8244 0.3013
C56_8 C 0.9270(3) 0.8636(3) 0.30265(11)
C57_8 C 0.8873(4) 0.8379(3) 0.30233(12)
H43_8 H 0.8951 0.8124 0.3020
C58_8 C 0.9148(3) 0.9006(3) 0.30248(12)
H44_8 H 0.9413 0.9185 0.3025
O18_8 O 0.7535(2) 0.89231(18) 0.32400(7)
C81_8 C 0.5848(3) 0.95624(19) 0.31437(12)
C82_8 C 0.6254(3) 0.93848(18) 0.32698(10)
C83_8 C 0.6192(3) 0.93708(19) 0.34650(10)
H61_8 H 0.5902 0.9483 0.3520
C84_8 C 0.6552(3) 0.9194(2) 0.35769(11)
H62_8 H 0.6500 0.9179 0.3707
C85_8 C 0.6988(3) 0.9040(2) 0.34969(11)
H63_8 H 0.7231 0.8915 0.3572
C86_8 C 0.7070(3) 0.9071(2) 0.33005(11)
C87_8 C 0.6701(3) 0.9231(2) 0.31902(11)
H64_8 H 0.6747 0.9238 0.3060
C88_8 C 0.7675(3) 0.8991(3) 0.30439(11)
H65_8 H 0.7451 0.8848 0.2960
H66_8 H 0.7644 0.9256 0.3013
C89_8 C 0.8230(3) 0.8864(3) 0.30265(11)
C90_8 C 0.8627(4) 0.9121(3) 0.30233(12)
H67_8 H 0.8549 0.9376 0.3020
C91_8 C 0.8352(3) 0.8494(3) 0.30248(12)
H68_8 H 0.8087 0.8315 0.3025
Cu1_5 Cu 0.26172(5) 0.00594(3) 0.04694(2)
O2_9 O 0.2830(3) 0.0019(2) 0.00790(9)
O7_9 O 0.29736(17) 0.02620(12) 0.07213(8)
O8_9 O 0.33977(17) 0.04658(14) 0.04714(8)
O9_9 O 0.5035(2) 0.10769(18) 0.07400(7)
O13_5 O 0.27507(16) 0.01716(12) 0.12020(6)
O15_9 O 0.2583(2) 0.04410(16) 0.20405(7)
N2_9 N 0.2140(3) 0.0495(2) 0.04559(10)
N4_9 N 0.1885(2) 0.03718(18) 0.09936(9)
C28_9 C 0.1643(4) 0.0446(2) 0.04831(11)
H21_9 H 0.1527 0.0203 0.0507
C29_9 C 0.1277(3) 0.0727(2) 0.04793(11)
H22_9 H 0.0925 0.0672 0.0498
C30_9 C 0.1434(3) 0.1094(2) 0.04471(10)
C31_9 C 0.1964(3) 0.1147(2) 0.04129(11)
H23_9 H 0.2092 0.1385 0.0385
C32_9 C 0.2303(3) 0.0842(3) 0.04213(13)
H24_9 H 0.2657 0.0883 0.0402
C38_9 C 0.1374(3) 0.0398(2) 0.10167(11)
H29_9 H 0.1182 0.0180 0.1038
C39_9 C 0.1114(3) 0.07377(19) 0.10101(10)
H30_9 H 0.0753 0.0745 0.1026
C40_9 C 0.1388(3) 0.10650(18) 0.09801(8)
C41_9 C 0.1915(3) 0.1036(2) 0.09514(10)
H31_9 H 0.2111 0.1251 0.0927
C42_9 C 0.2156(3) 0.0693(2) 0.09579(11)
H32_9 H 0.2514 0.0679 0.0937
C48_9 C 0.3348(3) 0.04376(19) 0.06437(12)
C49_9 C 0.3754(3) 0.06152(18) 0.07698(10)
C50_9 C 0.3692(3) 0.06292(19) 0.09650(10)
H37_9 H 0.3402 0.0517 0.1020
C51_9 C 0.4052(3) 0.0806(2) 0.10769(11)
H38_9 H 0.4000 0.0821 0.1207
C52_9 C 0.4488(3) 0.0960(2) 0.09969(11)
H39_9 H 0.4731 0.1085 0.1072
C53_9 C 0.4570(3) 0.0929(2) 0.08005(11)
C54_9 C 0.4201(3) 0.0769(2) 0.06902(11)
H40_9 H 0.4247 0.0762 0.0560
C55_9 C 0.5175(3) 0.1009(3) 0.05439(11)
H41_9 H 0.4951 0.1152 0.0460
H42_9 H 0.5144 0.0744 0.0513
C56_9 C 0.5730(3) 0.1136(3) 0.05265(11)
C57_9 C 0.6127(4) 0.0879(3) 0.05233(12)
H43_9 H 0.6049 0.0624 0.0520
C58_9 C 0.5852(3) 0.1506(3) 0.05248(12)
H44_9 H 0.5587 0.1685 0.0525
C70_9 C 0.2539(3) 0.01185(19) 0.13626(10)
C71_9 C 0.3011(3) 0.0679(2) 0.14881(10)
H53_9 H 0.3121 0.0734 0.1366
C72_9 C 0.2722(2) 0.03603(18) 0.15220(9)
C73_9 C 0.2570(3) 0.0271(2) 0.17074(9)
H54_9 H 0.2375 0.0055 0.1731
C74_9 C 0.2712(3) 0.0502(2) 0.18516(10)
C75_9 C 0.2990(3) 0.0823(2) 0.18214(10)
H55_9 H 0.3078 0.0977 0.1923
C76_9 C 0.3142(3) 0.0920(2) 0.16384(11)
H56_9 H 0.3326 0.1140 0.1616
C77_9 C 0.2436(4) 0.0060(2) 0.20872(11)
H58_9 H 0.2085 0.0008 0.2043
C78_9 C 0.2461(4) 0.0028(3) 0.23034(12)
C79_9 C 0.2965(5) 0.0079(3) 0.23936(14)
H59_9 H 0.3264 0.0130 0.2323
O16_5 O 0.95264(17) 0.22380(12) 0.07213(8)
O17_5 O 0.91023(17) 0.20342(14) 0.04714(8)
O18_9 O 0.7465(2) 0.14231(18) 0.07400(7)
C81_9 C 0.9152(3) 0.20624(19) 0.06437(12)
C82_9 C 0.8746(3) 0.18848(18) 0.07698(10)
C83_9 C 0.8808(3) 0.18708(19) 0.09650(10)
H61_9 H 0.9098 0.1983 0.1020
C84_9 C 0.8448(3) 0.1694(2) 0.10769(11)
H62_9 H 0.8500 0.1679 0.1207
C85_9 C 0.8012(3) 0.1540(2) 0.09969(11)
H63_9 H 0.7769 0.1415 0.1072
C86_9 C 0.7930(3) 0.1571(2) 0.08005(11)
C87_9 C 0.8299(3) 0.1731(2) 0.06902(11)
H64_9 H 0.8253 0.1738 0.0560
C88_9 C 0.7325(3) 0.1491(3) 0.05439(11)
H65_9 H 0.7549 0.1348 0.0460
H66_9 H 0.7356 0.1756 0.0513
C89_9 C 0.6770(3) 0.1364(3) 0.05265(11)
C90_9 C 0.6373(4) 0.1621(3) 0.05233(12)
H67_9 H 0.6451 0.1876 0.0520
C91_9 C 0.6648(3) 0.0994(3) 0.05248(12)
H68_9 H 0.6913 0.0815 0.0525
O23_9 O 0.2818(2) 0.01116(13) 0.36123(7)
H81_9 H 0.2326 0.0117 0.2971
C113_9 C 0.2982(5) 0.0046(3) 0.25905(14)
H84_9 H 0.3301 0.0076 0.2652
N7_9 N 0.0360(3) 0.2005(2) 0.04559(10)
C119_9 C 0.0857(4) 0.2054(2) 0.04831(11)
H89_9 H 0.0973 0.2297 0.0507
C120_9 C 0.1223(3) 0.1773(2) 0.04793(11)
H90_9 H 0.1575 0.1828 0.0498
C121_9 C 0.1066(3) 0.1406(2) 0.04471(10)
C122_9 C 0.0536(3) 0.1353(2) 0.04129(11)
H91_9 H 0.0408 0.1115 0.0385
C123_9 C 0.0197(3) 0.1658(3) 0.04213(13)
N9_9 N 0.0615(2) 0.21282(18) 0.09936(9)
C129_9 C 0.1126(3) 0.2102(2) 0.10167(11)
H97_9 H 0.1318 0.2320 0.1038
C130_9 C 0.1386(3) 0.17623(19) 0.10101(10)
H98_9 H 0.1747 0.1755 0.1026
C131_9 C 0.1112(3) 0.14350(18) 0.09801(8)
C132_9 C 0.0585(3) 0.1464(2) 0.09514(10)
H99_9 H 0.0389 0.1249 0.0927
C133_9 C 0.0344(3) 0.1807(2) 0.09579(11)
Cu5_3 Cu 0.01988(4) 0.26010(3) 0.10251(2)
O25_9 O 0.02762(19) 0.26852(13) 0.02706(7)
C139_9 C 0.0064(3) 0.2665(2) 0.01073(12)
H105_9 H 0.0754 0.3222 0.0123
Cu6_3 Cu 0.98828(5) 0.24406(3) 0.04694(2)
Cu12_9 Cu 0.26988(4) 0.01010(3) 0.39749(2)
O35_5 O 0.05099(19) 0.27456(13) 0.07197(8)
O36_5 O 0.08666(18) 0.29536(14) 0.09806(8)
O38_5 O 0.0318(2) 0.26116(13) 0.13877(7)
Cu2_8 Cu 0.2500 -0.0000 0.7500
O4_9 O 0.2529(3) 0.0374(2) 0.85405(10)
O5_5 O 0.2973(4) 0.0301(2) 0.77029(12)
O6_5 O 0.2320(4) 0.0006(3) 0.78421(13)
N5_5 N 0.1919(4) 0.0385(3) 0.74827(19)
C1_9 C 0.1378(5) 0.0369(3) 0.7469(3)
H1_9 H 0.1210 0.0138 0.7462
C2_9 C 0.1088(4) 0.0699(4) 0.7466(3)
H2_9 H 0.0726 0.0689 0.7456
C3_9 C 0.1339(5) 0.1045(3) 0.7476(3)
C4_9 C 0.1880(5) 0.1061(3) 0.7490(3)
H3_9 H 0.2048 0.1292 0.7497
C5_9 C 0.2171(4) 0.0731(3) 0.7493(2)
H4_9 H 0.2533 0.0741 0.7502
C16_9 C 0.1821(5) 0.0004(3) 0.88569(18)
H12_9 H 0.1592 0.0166 0.8795
C21_9 C 0.2710(4) 0.0488(3) 0.83570(17)
C22_9 C 0.2585(3) 0.0300(3) 0.81936(16)
H17_9 H 0.2365 0.0093 0.8195
C23_9 C 0.2801(4) 0.0434(3) 0.80262(14)
C24_9 C 0.3136(4) 0.0730(4) 0.80184(18)
H18_9 H 0.3287 0.0805 0.7905
C25_9 C 0.3247(5) 0.0920(3) 0.8191(2)
H19_9 H 0.3462 0.1130 0.8191
C26_9 C 0.3032(4) 0.0788(3) 0.83567(17)
H20_9 H 0.3109 0.0908 0.8470
C27_9 C 0.2686(6) 0.0216(4) 0.7851(2)
N10_5 N 0.0581(4) 0.2115(3) 0.74827(19)
C134_9 C 0.1122(5) 0.2131(3) 0.7469(3)
H101_9 H 0.1290 0.2362 0.7462
C135_9 C 0.1412(4) 0.1801(4) 0.7466(3)
H102_9 H 0.1774 0.1811 0.7456
C136_9 C 0.1161(5) 0.1455(3) 0.7476(3)
C137_9 C 0.0620(5) 0.1439(3) 0.7490(3)
H103_9 H 0.0452 0.1208 0.7497
C138_9 C 0.0329(4) 0.1769(3) 0.7493(2)
O27_9 O 0.0336(2) 0.2893(2) 0.94432(8)
O30_5 O 0.0180(4) 0.2494(3) 0.78421(13)
C140_9 C 0.0323(3) 0.2892(3) 0.99520(12)
C141_9 C 0.0674(4) 0.3172(3) 0.99969(13)
C142_9 C 0.0904(4) 0.3378(3) 0.98563(14)
H106_9 H 0.1119 0.3579 0.9887
C143_9 C 0.0816(4) 0.3286(3) 0.96683(14)
H107_9 H 0.0988 0.3414 0.9572
C144_9 C 0.0473(4) 0.3004(3) 0.96274(12)
C145_9 C 0.0207(4) 0.2806(3) 0.97658(12)
C146_9 C 0.0659(4) 0.3033(3) 0.92976(14)
H109_9 H 0.1021 0.2970 0.9323
H110_9 H 0.0629 0.3305 0.9291
C147_9 C 0.0484(4) 0.2858(3) 0.91133(14)
C148_9 C 0.0811(5) 0.2609(3) 0.90272(17)
H111_9 H 0.1114 0.2524 0.9086
C149_9 C 0.0679(5) 0.2496(3) 0.88569(18)
H112_9 H 0.0908 0.2334 0.8795
C150_9 C 0.0241(5) 0.2593(3) 0.87636(16)
C152_9 C 0.0031(5) 0.2989(3) 0.90282(16)
C153_9 C 0.0151(5) 0.2502(4) 0.85514(17)
H116_9 H 0.0475 0.2530 0.8481
H117_9 H 0.0135 0.2407 0.8195
Cu9_12 Cu -0.0000 0.2500 0.7500
Cu3_3 Cu 0.23012(4) 0.98990(3) 0.10251(2)
O1_9 O 0.22238(19) 0.98148(13) 0.02706(7)
O10_5 O 0.19901(19) 0.97544(13) 0.07197(8)
O11_5 O 0.16334(18) 0.95464(14) 0.09806(8)
O14_5 O 0.2182(2) 0.98884(13) 0.13877(7)
N1_5 N 0.3056(3) 0.96003(19) 0.04855(9)
N3_5 N 0.2815(3) 0.94779(18) 0.10158(9)
C6_9 C 0.2436(3) 0.9835(2) 0.01073(12)
H5_9 H 0.1746 0.9278 0.0123
C33_9 C 0.2815(3) 0.9276(3) 0.05198(11)
H25_9 H 0.2458 0.9279 0.0543
C34_9 C 0.3070(3) 0.8938(2) 0.05216(10)
H26_9 H 0.2888 0.8718 0.0547
C35_9 C 0.3605(3) 0.8926(2) 0.04846(9)
C36_9 C 0.3859(3) 0.9264(2) 0.04479(10)
H27_9 H 0.4217 0.9268 0.0424
C37_9 C 0.3572(3) 0.9596(2) 0.04469(11)
H28_9 H 0.3740 0.9821 0.0419
C43_9 C 0.2676(3) 0.9117(2) 0.10538(11)
H33_9 H 0.2328 0.9065 0.1081
C44_9 C 0.3030(3) 0.8828(2) 0.10534(10)
H34_9 H 0.2923 0.8584 0.1082
C45_9 C 0.3557(3) 0.89008(18) 0.10097(9)
C46_9 C 0.3679(3) 0.92726(19) 0.09719(9)
H35_9 H 0.4024 0.9337 0.0945
C47_9 C 0.3309(3) 0.9544(2) 0.09725(11)
H36_9 H 0.3406 0.9787 0.0941
C59_9 C 0.1637(3) 0.95775(18) 0.08018(13)
C60_9 C 0.1204(2) 0.93974(18) 0.06920(10)
C61_9 C 0.1260(3) 0.9360(2) 0.04980(11)
H45_9 H 0.1555 0.9450 0.0436
C62_9 C 0.0856(3) 0.9180(2) 0.03965(12)
H46_9 H 0.0887 0.9150 0.0266
C63_9 C 0.0420(3) 0.9050(3) 0.04861(12)
H47_9 H 0.0159 0.8929 0.0418
C64_9 C 0.0367(3) 0.9098(2) 0.06793(11)
C65_9 C 0.0758(2) 0.92724(19) 0.07860(10)
H48_9 H 0.0722 0.9304 0.0916
H50_9 H 0.0064 0.8843 0.1021
H57_9 H 0.2674 0.9883 0.2029
C80_9 C 0.2018(5) 0.9954(3) 0.24095(14)
H60_9 H 0.1699 0.9924 0.2348
O22_9 O 0.22493(16) 0.98284(12) 0.37980(6)
O24_9 O 0.2417(2) 0.95590(16) 0.29595(7)
C103_9 C 0.2461(3) 0.98815(19) 0.36374(10)
C104_9 C 0.1989(3) 0.9321(2) 0.35119(10)
H77_9 H 0.1879 0.9266 0.3634
C105_9 C 0.2278(2) 0.96397(18) 0.34780(9)
C106_9 C 0.2430(3) 0.9729(2) 0.32926(9)
H78_9 H 0.2625 0.9945 0.3269
C107_9 C 0.2288(3) 0.9498(2) 0.31484(10)
C108_9 C 0.2010(3) 0.9177(2) 0.31786(10)
H79_9 H 0.1922 0.9023 0.3077
C109_9 C 0.1858(3) 0.9080(2) 0.33616(11)
H80_9 H 0.1674 0.8860 0.3384
C110_9 C 0.2564(4) 0.9940(2) 0.29128(11)
H82_9 H 0.2915 0.9992 0.2957
C111_9 C 0.2539(4) 0.9972(3) 0.26966(12)
C112_9 C 0.2035(5) 0.9921(3) 0.26064(14)
H83_9 H 0.1736 0.9870 0.2677
N6_9 N 0.4444(3) 0.78997(19) 0.04855(9)
C114_9 C 0.4685(3) 0.8224(3) 0.05198(11)
H85_9 H 0.5042 0.8221 0.0543
C115_9 C 0.4430(3) 0.8562(2) 0.05216(10)
H86_9 H 0.4612 0.8782 0.0547
C116_9 C 0.3895(3) 0.8574(2) 0.04846(9)
C117_9 C 0.3641(3) 0.8236(2) 0.04479(10)
H87_9 H 0.3283 0.8232 0.0424
C118_9 C 0.3928(3) 0.7904(2) 0.04469(11)
H88_9 H 0.3760 0.7679 0.0419
N8_9 N 0.4685(3) 0.80221(18) 0.10158(9)
C124_9 C 0.4824(3) 0.8383(2) 0.10538(11)
H93_9 H 0.5172 0.8435 0.1081
C125_9 C 0.4470(3) 0.8672(2) 0.10534(10)
H94_9 H 0.4577 0.8916 0.1082
C126_9 C 0.3943(3) 0.85992(18) 0.10097(9)
C127_9 C 0.3821(3) 0.82274(19) 0.09719(9)
H95_9 H 0.3476 0.8163 0.0945
C128_9 C 0.4191(3) 0.7956(2) 0.09725(11)
H96_9 H 0.4094 0.7713 0.0941
Cu8_5 Cu 0.48828(5) 0.74406(3) 0.04694(2)
Cu11_3 Cu 0.51988(4) 0.76010(3) 0.10251(2)
Cu2_9 Cu 0.2500 1.0000 0.7500
O3_9 O 0.2164(2) 0.9607(2) 0.94432(8)
C7_9 C 0.2177(3) 0.9608(3) 0.99520(12)
C8_9 C 0.1826(4) 0.9328(3) 0.99969(13)
C9_9 C 0.1596(4) 0.9122(3) 0.98563(14)
H6_9 H 0.1381 0.8921 0.9887
C10_9 C 0.1684(4) 0.9214(3) 0.96683(14)
H7_9 H 0.1512 0.9086 0.9572
C11_9 C 0.2027(4) 0.9496(3) 0.96274(12)
C12_9 C 0.2293(4) 0.9694(3) 0.97658(12)
H8_9 H 0.2539 0.9876 0.9735
C13_9 C 0.1841(4) 0.9467(3) 0.92976(14)
H9_9 H 0.1479 0.9530 0.9323
H10_9 H 0.1871 0.9195 0.9291
C14_9 C 0.2016(4) 0.9642(3) 0.91133(14)
C15_9 C 0.1689(5) 0.9891(3) 0.90272(17)
H11_9 H 0.1386 0.9976 0.9086
C17_9 C 0.2259(5) 0.9907(3) 0.87636(16)
C18_9 C 0.2594(5) 0.9648(4) 0.88494(17)
H13_9 H 0.2895 0.9568 0.8788
C19_9 C 0.2469(5) 0.9511(3) 0.90282(16)
H14_9 H 0.2683 0.9337 0.9089
C20_9 C 0.2349(5) 0.9998(4) 0.85514(17)
H15_9 H 0.2606 0.9828 0.8498
H16_9 H 0.2025 0.9970 0.8481
O31_9 O 0.2027(4) 0.9699(2) 0.72971(12)
O32_9 O 0.2680(4) 0.9994(3) 0.71579(13)
N13_9 N 0.3081(4) 0.9615(3) 0.75173(19)
H92_9 H 0.9843 0.1617 0.0402
H100_9 H 0.9986 0.1821 0.0937
O26_9 O 0.9670(3) 0.2481(2) 0.00790(9)
O37_5 O 0.97493(16) 0.23284(12) 0.12020(6)
N11_5 N 0.9444(3) 0.28997(19) 0.04855(9)
N12_5 N 0.9685(3) 0.30221(18) 0.10158(9)
H104_9 H 0.9967 0.1759 0.7502
O28_9 O 0.9971(3) 0.2126(2) 0.85405(10)
O29_5 O 0.9527(4) 0.2199(2) 0.77029(12)
H108_9 H 0.9961 0.2624 0.9735
C151_9 C 0.9906(5) 0.2852(4) 0.88494(17)
H113_9 H 0.9605 0.2932 0.8788
H114_9 H 0.9817 0.3163 0.9089
H115_9 H 0.9894 0.2672 0.8498
C154_9 C 0.9790(4) 0.2012(3) 0.83570(17)
C155_9 C 0.9915(3) 0.2200(3) 0.81936(16)
C156_9 C 0.9699(4) 0.2066(3) 0.80262(14)
C157_9 C 0.9364(4) 0.1770(4) 0.80184(18)
H118_9 H 0.9213 0.1695 0.7905
C158_9 C 0.9253(5) 0.1580(3) 0.8191(2)
H119_9 H 0.9038 0.1370 0.8191
C159_9 C 0.9468(4) 0.1712(3) 0.83567(17)
H120_9 H 0.9391 0.1592 0.8470
C160_9 C 0.9814(6) 0.2284(4) 0.7851(2)
Cu9_13 Cu 1.0000 0.2500 0.7500
O12_9 O 0.9912(2) 0.89663(18) 0.07528(7)
C66_9 C 0.9824(3) 0.9001(2) 0.09509(11)
H49_9 H 0.9867 0.9259 0.0991
C67_9 C 0.9266(3) 0.8872(2) 0.09806(10)
C68_9 C 0.9147(3) 0.8499(2) 0.09851(11)
H51_9 H 0.9416 0.8323 0.0988
C69_9 C 0.8858(3) 0.9121(2) 0.09849(11)
H52_9 H 0.8928 0.9377 0.0988
O19_9 O 0.55099(19) 0.77456(13) 0.07197(8)
O20_9 O 0.58666(18) 0.79536(14) 0.09806(8)
O21_9 O 0.7588(2) 0.85337(18) 0.07528(7)
C92_9 C 0.5863(3) 0.79225(18) 0.08018(13)
C93_9 C 0.6296(2) 0.81026(18) 0.06920(10)
C94_9 C 0.6240(3) 0.8140(2) 0.04980(11)
H69_9 H 0.5945 0.8050 0.0436
C95_9 C 0.6644(3) 0.8320(2) 0.03965(12)
H70_9 H 0.6613 0.8350 0.0266
C96_9 C 0.7080(3) 0.8450(3) 0.04861(12)
H71_9 H 0.7341 0.8571 0.0418
C97_9 C 0.7133(3) 0.8402(2) 0.06793(11)
C98_9 C 0.6742(2) 0.82276(19) 0.07860(10)
H72_9 H 0.6778 0.8196 0.0916
C99_9 C 0.7676(3) 0.8499(2) 0.09509(11)
H73_9 H 0.7633 0.8241 0.0991
H74_9 H 0.7436 0.8657 0.1021
C100_9 C 0.8234(3) 0.8628(2) 0.09806(10)
C101_9 C 0.8353(3) 0.9001(2) 0.09851(11)
H75_9 H 0.8084 0.9177 0.0988
C102_9 C 0.8642(3) 0.8379(2) 0.09849(11)
H76_9 H 0.8572 0.8123 0.0988
O12_10 O 0.2588(2) 0.35337(18) 0.07528(7)
H25_10 H 0.0042 0.3221 0.0543
H33_10 H 0.0172 0.3435 0.1081
C59_10 C 0.0863(3) 0.29225(18) 0.08018(13)
C60_10 C 0.1296(2) 0.31026(18) 0.06920(10)
C61_10 C 0.1240(3) 0.3140(2) 0.04980(11)
H45_10 H 0.0945 0.3050 0.0436
C62_10 C 0.1644(3) 0.3320(2) 0.03965(12)
H46_10 H 0.1613 0.3350 0.0266
C63_10 C 0.2080(3) 0.3450(3) 0.04861(12)
H47_10 H 0.2341 0.3571 0.0418
C64_10 C 0.2133(3) 0.3402(2) 0.06793(11)
C65_10 C 0.1742(2) 0.32276(19) 0.07860(10)
H48_10 H 0.1778 0.3196 0.0916
C66_10 C 0.2676(3) 0.3499(2) 0.09509(11)
H49_10 H 0.2633 0.3241 0.0991
H50_10 H 0.2436 0.3657 0.1021
C67_10 C 0.3234(3) 0.3628(2) 0.09806(10)
C68_10 C 0.3353(3) 0.4001(2) 0.09851(11)
H51_10 H 0.3084 0.4177 0.0988
C69_10 C 0.3642(3) 0.3379(2) 0.09849(11)
H52_10 H 0.3572 0.3123 0.0988
H54_10 H 0.0125 0.2445 0.1731
C77_10 C 0.0064(4) 0.2440(2) 0.20872(11)
H58_10 H 0.0415 0.2492 0.2043
C78_10 C 0.0039(4) 0.2472(3) 0.23034(12)
C80_10 C 0.0482(5) 0.2546(3) 0.24095(14)
H60_10 H 0.0801 0.2576 0.2348
O19_10 O 0.69901(19) 0.47544(13) 0.07197(8)
O20_10 O 0.66334(18) 0.45464(14) 0.09806(8)
O21_10 O 0.4912(2) 0.39663(18) 0.07528(7)
C92_10 C 0.6637(3) 0.45775(18) 0.08018(13)
C93_10 C 0.6204(2) 0.43974(18) 0.06920(10)
C94_10 C 0.6260(3) 0.4360(2) 0.04980(11)
H69_10 H 0.6555 0.4450 0.0436
C95_10 C 0.5856(3) 0.4180(2) 0.03965(12)
H70_10 H 0.5887 0.4150 0.0266
C96_10 C 0.5420(3) 0.4050(3) 0.04861(12)
H71_10 H 0.5159 0.3929 0.0418
C97_10 C 0.5367(3) 0.4098(2) 0.06793(11)
C98_10 C 0.5758(2) 0.42724(19) 0.07860(10)
H72_10 H 0.5722 0.4304 0.0916
C99_10 C 0.4824(3) 0.4001(2) 0.09509(11)
H73_10 H 0.4867 0.4259 0.0991
H74_10 H 0.5064 0.3843 0.1021
C100_10 C 0.4266(3) 0.3872(2) 0.09806(10)
C101_10 C 0.4147(3) 0.3499(2) 0.09851(11)
H75_10 H 0.4416 0.3323 0.0988
C102_10 C 0.3858(3) 0.4121(2) 0.09849(11)
H76_10 H 0.3928 0.4377 0.0988
O22_10 O 0.02507(16) 0.26716(12) 0.37980(6)
O24_10 O 0.0083(2) 0.29410(16) 0.29595(7)
C103_10 C 0.0039(3) 0.26185(19) 0.36374(10)
C104_10 C 0.0511(3) 0.3179(2) 0.35119(10)
H77_10 H 0.0621 0.3234 0.3634
C105_10 C 0.0222(2) 0.28603(18) 0.34780(9)
C106_10 C 0.0070(3) 0.2771(2) 0.32926(9)
C107_10 C 0.0212(3) 0.3002(2) 0.31484(10)
C108_10 C 0.0490(3) 0.3323(2) 0.31786(10)
H79_10 H 0.0578 0.3477 0.3077
C109_10 C 0.0642(3) 0.3420(2) 0.33616(11)
H80_10 H 0.0826 0.3640 0.3384
H81_10 H 0.0174 0.2383 0.2971
C112_10 C 0.0465(5) 0.2579(3) 0.26064(14)
H83_10 H 0.0764 0.2630 0.2677
Cu7_5 Cu 0.76172(5) 0.50594(3) 0.04694(2)
Cu10_3 Cu 0.73012(4) 0.48990(3) 0.10251(2)
O31_10 O 0.0473(4) 0.2801(2) 0.72971(12)
O15_10 O 0.9917(2) 0.20590(16) 0.20405(7)
C33_10 C 0.9685(3) 0.3224(3) 0.05198(11)
C34_10 C 0.9430(3) 0.3562(2) 0.05216(10)
H26_10 H 0.9612 0.3782 0.0547
C35_10 C 0.8895(3) 0.3574(2) 0.04846(9)
C36_10 C 0.8641(3) 0.3236(2) 0.04479(10)
H27_10 H 0.8283 0.3232 0.0424
C37_10 C 0.8928(3) 0.2904(2) 0.04469(11)
H28_10 H 0.8760 0.2679 0.0419
C43_10 C 0.9824(3) 0.3383(2) 0.10538(11)
C44_10 C 0.9470(3) 0.3672(2) 0.10534(10)
H34_10 H 0.9577 0.3916 0.1082
C45_10 C 0.8943(3) 0.35992(18) 0.10097(9)
C46_10 C 0.8821(3) 0.32274(19) 0.09719(9)
H35_10 H 0.8476 0.3163 0.0945
C47_10 C 0.9191(3) 0.2956(2) 0.09725(11)
H36_10 H 0.9094 0.2713 0.0941
C70_10 C 0.9961(3) 0.23815(19) 0.13626(10)
C71_10 C 0.9489(3) 0.1821(2) 0.14881(10)
H53_10 H 0.9379 0.1766 0.1366
C72_10 C 0.9778(2) 0.21397(18) 0.15220(9)
C73_10 C 0.9930(3) 0.2229(2) 0.17074(9)
C74_10 C 0.9788(3) 0.1998(2) 0.18516(10)
C75_10 C 0.9510(3) 0.1677(2) 0.18214(10)
H55_10 H 0.9422 0.1523 0.1923
C76_10 C 0.9358(3) 0.1580(2) 0.16384(11)
H56_10 H 0.9174 0.1360 0.1616
H57_10 H 0.9826 0.2617 0.2029
C79_10 C 0.9535(5) 0.2421(3) 0.23936(14)
H59_10 H 0.9236 0.2370 0.2323
O23_10 O 0.9682(2) 0.23884(13) 0.36123(7)
H78_10 H 0.9875 0.2555 0.3269
C110_10 C 0.9936(4) 0.2560(2) 0.29128(11)
H82_10 H 0.9585 0.2508 0.2957
C111_10 C 0.9961(4) 0.2528(3) 0.26966(12)
C113_10 C 0.9518(5) 0.2454(3) 0.25905(14)
H84_10 H 0.9199 0.2424 0.2652
N6_10 N 0.8056(3) 0.46003(19) 0.04855(9)
C114_10 C 0.7815(3) 0.4276(3) 0.05198(11)
H85_10 H 0.7458 0.4279 0.0543
C115_10 C 0.8070(3) 0.3938(2) 0.05216(10)
H86_10 H 0.7888 0.3718 0.0547
C116_10 C 0.8605(3) 0.3926(2) 0.04846(9)
C117_10 C 0.8859(3) 0.4264(2) 0.04479(10)
H87_10 H 0.9217 0.4268 0.0424
C118_10 C 0.8572(3) 0.4596(2) 0.04469(11)
H88_10 H 0.8740 0.4821 0.0419
N8_10 N 0.7815(3) 0.44779(18) 0.10158(9)
C124_10 C 0.7676(3) 0.4117(2) 0.10538(11)
H93_10 H 0.7328 0.4065 0.1081
C125_10 C 0.8030(3) 0.3828(2) 0.10534(10)
H94_10 H 0.7923 0.3584 0.1082
C126_10 C 0.8557(3) 0.39008(18) 0.10097(9)
C127_10 C 0.8679(3) 0.42726(19) 0.09719(9)
H95_10 H 0.9024 0.4337 0.0945
C128_10 C 0.8309(3) 0.4544(2) 0.09725(11)
H96_10 H 0.8406 0.4787 0.0941
Cu12_10 Cu 0.98012(4) 0.23990(3) 0.39749(2)
O32_10 O 0.9820(4) 0.2506(3) 0.71579(13)
N13_10 N 0.9419(4) 0.2885(3) 0.75173(19)
O9_10 O 0.0035(2) 0.60769(18) 0.07400(7)
C55_10 C 0.0175(3) 0.6009(3) 0.05439(11)
H42_10 H 0.0144 0.5744 0.0513
C56_10 C 0.0730(3) 0.6136(3) 0.05265(11)
C57_10 C 0.1127(4) 0.5879(3) 0.05233(12)
H43_10 H 0.1049 0.5624 0.0520
C58_10 C 0.0852(3) 0.6506(3) 0.05248(12)
H44_10 H 0.0587 0.6685 0.0525
O16_6 O 0.45264(17) 0.72380(12) 0.07213(8)
O17_6 O 0.41023(17) 0.70342(14) 0.04714(8)
O18_10 O 0.2465(2) 0.64231(18) 0.07400(7)
C81_10 C 0.4152(3) 0.70624(19) 0.06437(12)
C82_10 C 0.3746(3) 0.68848(18) 0.07698(10)
C83_10 C 0.3808(3) 0.68708(19) 0.09650(10)
H61_10 H 0.4098 0.6983 0.1020
C84_10 C 0.3448(3) 0.6694(2) 0.10769(11)
H62_10 H 0.3500 0.6679 0.1207
C85_10 C 0.3012(3) 0.6540(2) 0.09969(11)
H63_10 H 0.2769 0.6415 0.1072
C86_10 C 0.2930(3) 0.6571(2) 0.08005(11)
C87_10 C 0.3299(3) 0.6731(2) 0.06902(11)
H64_10 H 0.3253 0.6738 0.0560
C88_10 C 0.2325(3) 0.6491(3) 0.05439(11)
H65_10 H 0.2549 0.6348 0.0460
H66_10 H 0.2356 0.6756 0.0513
C89_10 C 0.1770(3) 0.6364(3) 0.05265(11)
C90_10 C 0.1373(4) 0.6621(3) 0.05233(12)
H67_10 H 0.1451 0.6876 0.0520
C91_10 C 0.1648(3) 0.5994(3) 0.05248(12)
H68_10 H 0.1913 0.5815 0.0525
O1_10 O 0.72238(19) 0.48148(13) 0.02706(7)
O2_10 O 0.7830(3) 0.5019(2) 0.00790(9)
O7_10 O 0.79736(17) 0.52620(12) 0.07213(8)
O8_10 O 0.83977(17) 0.54658(14) 0.04714(8)
O13_6 O 0.77507(16) 0.51716(12) 0.12020(6)
O14_6 O 0.7182(2) 0.48884(13) 0.13877(7)
O15_11 O 0.7583(2) 0.54410(16) 0.20405(7)
N2_10 N 0.7140(3) 0.5495(2) 0.04559(10)
N4_10 N 0.6885(2) 0.53718(18) 0.09936(9)
C6_10 C 0.7436(3) 0.4835(2) 0.01073(12)
H5_10 H 0.6746 0.4278 0.0123
C28_10 C 0.6643(4) 0.5446(2) 0.04831(11)
H21_10 H 0.6527 0.5203 0.0507
C29_10 C 0.6277(3) 0.5727(2) 0.04793(11)
H22_10 H 0.5925 0.5672 0.0498
C30_10 C 0.6434(3) 0.6094(2) 0.04471(10)
C31_10 C 0.6964(3) 0.6147(2) 0.04129(11)
H23_10 H 0.7092 0.6385 0.0385
C32_10 C 0.7303(3) 0.5842(3) 0.04213(13)
H24_10 H 0.7657 0.5883 0.0402
C38_10 C 0.6374(3) 0.5398(2) 0.10167(11)
H29_10 H 0.6182 0.5180 0.1038
C39_10 C 0.6114(3) 0.57377(19) 0.10101(10)
H30_10 H 0.5753 0.5745 0.1026
C40_10 C 0.6388(3) 0.60650(18) 0.09801(8)
C41_10 C 0.6915(3) 0.6036(2) 0.09514(10)
H31_10 H 0.7111 0.6251 0.0927
C42_10 C 0.7156(3) 0.5693(2) 0.09579(11)
H32_10 H 0.7514 0.5679 0.0937
C48_10 C 0.8348(3) 0.54376(19) 0.06437(12)
C49_10 C 0.8754(3) 0.56152(18) 0.07698(10)
C50_10 C 0.8692(3) 0.56292(19) 0.09650(10)
H37_10 H 0.8402 0.5517 0.1020
C51_10 C 0.9052(3) 0.5806(2) 0.10769(11)
H38_10 H 0.9000 0.5821 0.1207
C52_10 C 0.9488(3) 0.5960(2) 0.09969(11)
H39_10 H 0.9731 0.6085 0.1072
C53_10 C 0.9570(3) 0.5929(2) 0.08005(11)
C54_10 C 0.9201(3) 0.5769(2) 0.06902(11)
H40_10 H 0.9247 0.5762 0.0560
H41_10 H 0.9951 0.6152 0.0460
C70_11 C 0.7539(3) 0.51185(19) 0.13626(10)
C71_11 C 0.8011(3) 0.5679(2) 0.14881(10)
H53_11 H 0.8121 0.5734 0.1366
C72_11 C 0.7722(2) 0.53603(18) 0.15220(9)
C73_11 C 0.7570(3) 0.5271(2) 0.17074(9)
H54_11 H 0.7375 0.5055 0.1731
C74_11 C 0.7712(3) 0.5502(2) 0.18516(10)
C75_11 C 0.7990(3) 0.5823(2) 0.18214(10)
H55_11 H 0.8078 0.5977 0.1923
C76_11 C 0.8142(3) 0.5920(2) 0.16384(11)
H56_11 H 0.8326 0.6140 0.1616
C77_11 C 0.7436(4) 0.5060(2) 0.20872(11)
H57_11 H 0.7674 0.4883 0.2029
H58_11 H 0.7085 0.5008 0.2043
C78_11 C 0.7461(4) 0.5028(3) 0.23034(12)
C79_11 C 0.7965(5) 0.5079(3) 0.23936(14)
H59_11 H 0.8264 0.5130 0.2323
C80_11 C 0.7018(5) 0.4954(3) 0.24095(14)
H60_11 H 0.6699 0.4924 0.2348
O22_11 O 0.72493(16) 0.48284(12) 0.37980(6)
O23_11 O 0.7818(2) 0.51116(13) 0.36123(7)
O24_11 O 0.7417(2) 0.45590(16) 0.29595(7)
C103_11 C 0.7461(3) 0.48815(19) 0.36374(10)
C104_11 C 0.6989(3) 0.4321(2) 0.35119(10)
H77_11 H 0.6879 0.4266 0.3634
C105_11 C 0.7278(2) 0.46397(18) 0.34780(9)
C106_11 C 0.7430(3) 0.4729(2) 0.32926(9)
H78_11 H 0.7625 0.4945 0.3269
C107_11 C 0.7288(3) 0.4498(2) 0.31484(10)
C108_11 C 0.7010(3) 0.4177(2) 0.31786(10)
H79_11 H 0.6922 0.4023 0.3077
C109_11 C 0.6858(3) 0.4080(2) 0.33616(11)
H80_11 H 0.6674 0.3860 0.3384
C110_11 C 0.7564(4) 0.4940(2) 0.29128(11)
H81_11 H 0.7326 0.5117 0.2971
H82_11 H 0.7915 0.4992 0.2957
C111_11 C 0.7539(4) 0.4972(3) 0.26966(12)
C112_11 C 0.7035(5) 0.4921(3) 0.26064(14)
H83_11 H 0.6736 0.4870 0.2677
C113_11 C 0.7982(5) 0.5046(3) 0.25905(14)
H84_11 H 0.8301 0.5076 0.2652
N7_10 N 0.5360(3) 0.7005(2) 0.04559(10)
C119_10 C 0.5857(4) 0.7054(2) 0.04831(11)
H89_10 H 0.5973 0.7297 0.0507
C120_10 C 0.6223(3) 0.6773(2) 0.04793(11)
H90_10 H 0.6575 0.6828 0.0498
C121_10 C 0.6066(3) 0.6406(2) 0.04471(10)
C122_10 C 0.5536(3) 0.6353(2) 0.04129(11)
H91_10 H 0.5408 0.6115 0.0385
C123_10 C 0.5197(3) 0.6658(3) 0.04213(13)
H92_10 H 0.4843 0.6617 0.0402
N9_10 N 0.5615(2) 0.71282(18) 0.09936(9)
C129_10 C 0.6126(3) 0.7102(2) 0.10167(11)
H97_10 H 0.6318 0.7320 0.1038
C130_10 C 0.6386(3) 0.67623(19) 0.10101(10)
H98_10 H 0.6747 0.6755 0.1026
C131_10 C 0.6112(3) 0.64350(18) 0.09801(8)
C132_10 C 0.5585(3) 0.6464(2) 0.09514(10)
H99_10 H 0.5389 0.6249 0.0927
C133_10 C 0.5344(3) 0.6807(2) 0.09579(11)
H100_10 H 0.4986 0.6821 0.0937
O25_10 O 0.52762(19) 0.76852(13) 0.02706(7)
O26_10 O 0.4670(3) 0.7481(2) 0.00790(9)
C139_10 C 0.5064(3) 0.7665(2) 0.01073(12)
H105_10 H 0.5754 0.8222 0.0123
Cu12_11 Cu 0.76988(4) 0.51010(3) 0.39749(2)
O37_6 O 0.47493(16) 0.73284(12) 0.12020(6)
O38_6 O 0.5318(2) 0.76116(13) 0.13877(7)
Cu2_10 Cu 0.7500 0.5000 0.7500
O3_10 O 0.7164(2) 0.4607(2) 0.94432(8)
O4_10 O 0.7529(3) 0.5374(2) 0.85405(10)
O5_6 O 0.7973(4) 0.5301(2) 0.77029(12)
O6_6 O 0.7320(4) 0.5006(3) 0.78421(13)
N5_6 N 0.6919(4) 0.5385(3) 0.74827(19)
C1_10 C 0.6378(5) 0.5369(3) 0.7469(3)
H1_10 H 0.6210 0.5138 0.7462
C2_10 C 0.6088(4) 0.5699(4) 0.7466(3)
H2_10 H 0.5726 0.5689 0.7456
C3_10 C 0.6339(5) 0.6045(3) 0.7476(3)
C4_10 C 0.6880(5) 0.6061(3) 0.7490(3)
H3_10 H 0.7048 0.6292 0.7497
C5_10 C 0.7171(4) 0.5731(3) 0.7493(2)
H4_10 H 0.7533 0.5741 0.7502
C7_10 C 0.7177(3) 0.4608(3) 0.99520(12)
C8_10 C 0.6826(4) 0.4328(3) 0.99969(13)
C9_10 C 0.6596(4) 0.4122(3) 0.98563(14)
H6_10 H 0.6381 0.3921 0.9887
C10_10 C 0.6684(4) 0.4214(3) 0.96683(14)
H7_10 H 0.6512 0.4086 0.9572
C11_10 C 0.7027(4) 0.4496(3) 0.96274(12)
C12_10 C 0.7293(4) 0.4694(3) 0.97658(12)
H8_10 H 0.7539 0.4876 0.9735
C13_10 C 0.6841(4) 0.4467(3) 0.92976(14)
H9_10 H 0.6479 0.4530 0.9323
H10_10 H 0.6871 0.4195 0.9291
C14_10 C 0.7016(4) 0.4642(3) 0.91133(14)
C15_10 C 0.6689(5) 0.4891(3) 0.90272(17)
H11_10 H 0.6386 0.4976 0.9086
C16_10 C 0.6821(5) 0.5004(3) 0.88569(18)
H12_10 H 0.6592 0.5166 0.8795
C17_10 C 0.7259(5) 0.4907(3) 0.87636(16)
C18_10 C 0.7594(5) 0.4648(4) 0.88494(17)
H13_10 H 0.7895 0.4568 0.8788
C19_10 C 0.7469(5) 0.4511(3) 0.90282(16)
H14_10 H 0.7683 0.4337 0.9089
C20_10 C 0.7349(5) 0.4998(4) 0.85514(17)
H15_10 H 0.7606 0.4828 0.8498
H16_10 H 0.7025 0.4970 0.8481
C21_10 C 0.7710(4) 0.5488(3) 0.83570(17)
C22_10 C 0.7585(3) 0.5300(3) 0.81936(16)
H17_10 H 0.7365 0.5093 0.8195
C23_10 C 0.7801(4) 0.5434(3) 0.80262(14)
C24_10 C 0.8136(4) 0.5730(4) 0.80184(18)
H18_10 H 0.8287 0.5805 0.7905
C25_10 C 0.8247(5) 0.5920(3) 0.8191(2)
H19_10 H 0.8462 0.6130 0.8191
C26_10 C 0.8032(4) 0.5788(3) 0.83567(17)
H20_10 H 0.8109 0.5908 0.8470
C27_10 C 0.7686(6) 0.5216(4) 0.7851(2)
N10_6 N 0.5581(4) 0.7115(3) 0.74827(19)
C134_10 C 0.6122(5) 0.7131(3) 0.7469(3)
H101_10 H 0.6290 0.7362 0.7462
C135_10 C 0.6412(4) 0.6801(4) 0.7466(3)
H102_10 H 0.6774 0.6811 0.7456
C136_10 C 0.6161(5) 0.6455(3) 0.7476(3)
C137_10 C 0.5620(5) 0.6439(3) 0.7490(3)
H103_10 H 0.5452 0.6208 0.7497
C138_10 C 0.5329(4) 0.6769(3) 0.7493(2)
H104_10 H 0.4967 0.6759 0.7502
O27_10 O 0.5336(2) 0.7893(2) 0.94432(8)
O28_10 O 0.4971(3) 0.7126(2) 0.85405(10)
O29_6 O 0.4527(4) 0.7199(2) 0.77029(12)
O30_6 O 0.5180(4) 0.7494(3) 0.78421(13)
C140_10 C 0.5323(3) 0.7892(3) 0.99520(12)
C141_10 C 0.5674(4) 0.8172(3) 0.99969(13)
C142_10 C 0.5904(4) 0.8378(3) 0.98563(14)
H106_10 H 0.6119 0.8579 0.9887
C143_10 C 0.5816(4) 0.8286(3) 0.96683(14)
H107_10 H 0.5988 0.8414 0.9572
C144_10 C 0.5473(4) 0.8004(3) 0.96274(12)
C145_10 C 0.5207(4) 0.7806(3) 0.97658(12)
H108_10 H 0.4961 0.7624 0.9735
C146_10 C 0.5659(4) 0.8033(3) 0.92976(14)
H109_10 H 0.6021 0.7970 0.9323
H110_10 H 0.5629 0.8305 0.9291
C147_10 C 0.5484(4) 0.7858(3) 0.91133(14)
C148_10 C 0.5811(5) 0.7609(3) 0.90272(17)
H111_10 H 0.6114 0.7524 0.9086
C149_10 C 0.5679(5) 0.7496(3) 0.88569(18)
H112_10 H 0.5908 0.7334 0.8795
C150_10 C 0.5241(5) 0.7593(3) 0.87636(16)
C151_10 C 0.4906(5) 0.7852(4) 0.88494(17)
H113_10 H 0.4605 0.7932 0.8788
C152_10 C 0.5031(5) 0.7989(3) 0.90282(16)
H114_10 H 0.4817 0.8163 0.9089
C153_10 C 0.5151(5) 0.7502(4) 0.85514(17)
H115_10 H 0.4894 0.7672 0.8498
H116_10 H 0.5475 0.7530 0.8481
C154_10 C 0.4790(4) 0.7012(3) 0.83570(17)
C155_10 C 0.4915(3) 0.7200(3) 0.81936(16)
H117_10 H 0.5135 0.7407 0.8195
C156_10 C 0.4699(4) 0.7066(3) 0.80262(14)
C157_10 C 0.4364(4) 0.6770(4) 0.80184(18)
H118_10 H 0.4213 0.6695 0.7905
C158_10 C 0.4253(5) 0.6580(3) 0.8191(2)
H119_10 H 0.4038 0.6370 0.8191
C159_10 C 0.4468(4) 0.6712(3) 0.83567(17)
H120_10 H 0.4391 0.6592 0.8470
C160_10 C 0.4814(6) 0.7284(4) 0.7851(2)
Cu9_14 Cu 0.5000 0.7500 0.7500
O31_11 O 0.7027(4) 0.4699(2) 0.72971(12)
O32_11 O 0.7680(4) 0.4994(3) 0.71579(13)
N13_11 N 0.8081(4) 0.4615(3) 0.75173(19)
O15_12 O 0.4917(2) 0.70590(16) 0.20405(7)
C70_12 C 0.4961(3) 0.73815(19) 0.13626(10)
C71_12 C 0.4489(3) 0.6821(2) 0.14881(10)
H53_12 H 0.4379 0.6766 0.1366
C72_12 C 0.4778(2) 0.71397(18) 0.15220(9)
C73_12 C 0.4930(3) 0.7229(2) 0.17074(9)
H54_12 H 0.5125 0.7445 0.1731
C74_12 C 0.4788(3) 0.6998(2) 0.18516(10)
C75_12 C 0.4510(3) 0.6677(2) 0.18214(10)
H55_12 H 0.4422 0.6523 0.1923
C76_12 C 0.4358(3) 0.6580(2) 0.16384(11)
H56_12 H 0.4174 0.6360 0.1616
C77_12 C 0.5064(4) 0.7440(2) 0.20872(11)
H57_12 H 0.4826 0.7617 0.2029
H58_12 H 0.5415 0.7492 0.2043
C78_12 C 0.5039(4) 0.7472(3) 0.23034(12)
C79_12 C 0.4535(5) 0.7421(3) 0.23936(14)
H59_12 H 0.4236 0.7370 0.2323
C80_12 C 0.5482(5) 0.7546(3) 0.24095(14)
H60_12 H 0.5801 0.7576 0.2348
O22_12 O 0.52507(16) 0.76716(12) 0.37980(6)
O23_12 O 0.4682(2) 0.73884(13) 0.36123(7)
O24_12 O 0.5083(2) 0.79410(16) 0.29595(7)
C103_12 C 0.5039(3) 0.76185(19) 0.36374(10)
C104_12 C 0.5511(3) 0.8179(2) 0.35119(10)
H77_12 H 0.5621 0.8234 0.3634
C105_12 C 0.5222(2) 0.78603(18) 0.34780(9)
C106_12 C 0.5070(3) 0.7771(2) 0.32926(9)
H78_12 H 0.4875 0.7555 0.3269
C107_12 C 0.5212(3) 0.8002(2) 0.31484(10)
C108_12 C 0.5490(3) 0.8323(2) 0.31786(10)
H79_12 H 0.5578 0.8477 0.3077
C109_12 C 0.5642(3) 0.8420(2) 0.33616(11)
H80_12 H 0.5826 0.8640 0.3384
C110_12 C 0.4936(4) 0.7560(2) 0.29128(11)
H81_12 H 0.5174 0.7383 0.2971
H82_12 H 0.4585 0.7508 0.2957
C111_12 C 0.4961(4) 0.7528(3) 0.26966(12)
C112_12 C 0.5465(5) 0.7579(3) 0.26064(14)
H83_12 H 0.5764 0.7630 0.2677
C113_12 C 0.4518(5) 0.7454(3) 0.25905(14)
H84_12 H 0.4199 0.7424 0.2652
Cu12_12 Cu 0.48012(4) 0.73990(3) 0.39749(2)
O31_12 O 0.5473(4) 0.7801(2) 0.72971(12)
O32_12 O 0.4820(4) 0.7506(3) 0.71579(13)
N13_12 N 0.4419(4) 0.7885(3) 0.75173(19)
O12_11 O 0.0088(2) 0.60337(18) 0.42472(7)
C66_11 C 0.0176(3) 0.5999(2) 0.40491(11)
H49_11 H 0.0133 0.5741 0.4009
C67_11 C 0.0734(3) 0.6128(2) 0.40194(10)
C68_11 C 0.0853(3) 0.6501(2) 0.40149(11)
H51_11 H 0.0584 0.6677 0.4012
C69_11 C 0.1142(3) 0.5879(2) 0.40151(11)
H52_11 H 0.1072 0.5623 0.4012
O19_11 O 0.44901(19) 0.72544(13) 0.42803(8)
O20_11 O 0.41334(18) 0.70464(14) 0.40194(8)
O21_11 O 0.2412(2) 0.64663(18) 0.42472(7)
C92_11 C 0.4137(3) 0.70775(18) 0.41982(13)
C93_11 C 0.3704(2) 0.68974(18) 0.43080(10)
C94_11 C 0.3760(3) 0.6860(2) 0.45020(11)
H69_11 H 0.4055 0.6950 0.4564
C95_11 C 0.3356(3) 0.6680(2) 0.46035(12)
H70_11 H 0.3387 0.6650 0.4734
C96_11 C 0.2920(3) 0.6550(3) 0.45139(12)
H71_11 H 0.2659 0.6429 0.4582
C97_11 C 0.2867(3) 0.6598(2) 0.43207(11)
C98_11 C 0.3258(2) 0.67724(19) 0.42140(10)
H72_11 H 0.3222 0.6804 0.4084
C99_11 C 0.2324(3) 0.6501(2) 0.40491(11)
H73_11 H 0.2367 0.6759 0.4009
H74_11 H 0.2564 0.6343 0.3979
C100_11 C 0.1766(3) 0.6372(2) 0.40194(10)
C101_11 C 0.1647(3) 0.5999(2) 0.40149(11)
H75_11 H 0.1916 0.5823 0.4012
C102_11 C 0.1358(3) 0.6621(2) 0.40151(11)
H76_11 H 0.1428 0.6877 0.4012
H92_11 H 0.0157 0.3383 0.4598
H100_11 H 0.0014 0.3179 0.4063
H104_11 H 0.0033 0.3241 0.7498
Cu4_3 Cu 0.01172(5) 0.25594(3) 0.45306(2)
O26_11 O 0.0330(3) 0.2519(2) 0.49210(9)
O28_11 O 0.0029(3) 0.2874(2) 0.64595(10)
H108_11 H 0.0039 0.2376 0.5265
C151_11 C 0.0094(5) 0.2148(4) 0.61506(17)
H113_11 H 0.0395 0.2068 0.6212
H114_11 H 0.0183 0.1837 0.5911
H115_11 H 0.0106 0.2328 0.6502
C154_11 C 0.0210(4) 0.2988(3) 0.66430(17)
C155_11 C 0.0085(3) 0.2800(3) 0.68064(16)
C156_11 C 0.0301(4) 0.2934(3) 0.69738(14)
C157_11 C 0.0636(4) 0.3230(4) 0.69816(18)
H118_11 H 0.0787 0.3305 0.7095
C158_11 C 0.0747(5) 0.3420(3) 0.6809(2)
H119_11 H 0.0962 0.3630 0.6809
C159_11 C 0.0532(4) 0.3288(3) 0.66433(17)
H120_11 H 0.0609 0.3408 0.6530
C160_11 C 0.0186(6) 0.2716(4) 0.7149(2)
Cu7_6 Cu 0.51172(5) 0.75594(3) 0.45306(2)
O33_5 O 0.04736(17) 0.27620(12) 0.42787(8)
O34_5 O 0.08977(17) 0.29658(14) 0.45286(8)
N11_6 N 0.0556(3) 0.21003(19) 0.45145(9)
N12_6 N 0.0315(3) 0.19779(18) 0.39842(9)
Cu1_6 Cu 0.73828(5) 0.49406(3) 0.45306(2)
O1_11 O 0.77762(19) 0.51852(13) 0.47294(7)
O2_11 O 0.7170(3) 0.4981(2) 0.49210(9)
O3_11 O 0.7836(2) 0.5393(2) 0.55568(8)
O4_11 O 0.7471(3) 0.4626(2) 0.64595(10)
O7_11 O 0.70264(17) 0.47380(12) 0.42787(8)
O8_11 O 0.66023(17) 0.45342(14) 0.45286(8)
O9_11 O 0.4965(2) 0.39231(18) 0.42600(7)
O10_6 O 0.80099(19) 0.52456(13) 0.42803(8)
O11_6 O 0.83666(18) 0.54536(14) 0.40194(8)
N1_6 N 0.6944(3) 0.53997(19) 0.45145(9)
N2_11 N 0.7860(3) 0.4505(2) 0.45441(10)
N3_6 N 0.7185(3) 0.55221(18) 0.39842(9)
N4_11 N 0.8115(2) 0.46282(18) 0.40064(9)
C1_11 C 0.8622(5) 0.4631(3) 0.7531(3)
H1_11 H 0.8790 0.4862 0.7538
C2_11 C 0.8912(4) 0.4301(4) 0.7534(3)
H2_11 H 0.9274 0.4311 0.7544
C3_11 C 0.8661(5) 0.3955(3) 0.7524(3)
C4_11 C 0.8120(5) 0.3939(3) 0.7510(3)
H3_11 H 0.7952 0.3708 0.7503
C5_11 C 0.7829(4) 0.4269(3) 0.7507(2)
H4_11 H 0.7467 0.4259 0.7498
C6_11 C 0.7564(3) 0.5165(2) 0.48927(12)
C7_11 C 0.7823(3) 0.5392(3) 0.50480(12)
C8_11 C 0.8174(4) 0.5672(3) 0.50031(13)
H5_11 H 0.8254 0.5722 0.4877
C9_11 C 0.8404(4) 0.5878(3) 0.51437(14)
H6_11 H 0.8619 0.6079 0.5113
C10_11 C 0.8316(4) 0.5786(3) 0.53317(14)
H7_11 H 0.8488 0.5914 0.5428
C11_11 C 0.7973(4) 0.5504(3) 0.53726(12)
C12_11 C 0.7707(4) 0.5306(3) 0.52342(12)
H8_11 H 0.7461 0.5124 0.5265
C13_11 C 0.8159(4) 0.5533(3) 0.57024(14)
H9_11 H 0.8521 0.5470 0.5677
H10_11 H 0.8129 0.5805 0.5709
C14_11 C 0.7984(4) 0.5358(3) 0.58867(14)
C15_11 C 0.8311(5) 0.5109(3) 0.59728(17)
H11_11 H 0.8614 0.5024 0.5914
C16_11 C 0.8179(5) 0.4996(3) 0.61431(18)
H12_11 H 0.8408 0.4834 0.6205
C17_11 C 0.7741(5) 0.5093(3) 0.62364(16)
C18_11 C 0.7406(5) 0.5352(4) 0.61506(17)
H13_11 H 0.7105 0.5432 0.6212
C19_11 C 0.7531(5) 0.5489(3) 0.59718(16)
H14_11 H 0.7317 0.5663 0.5911
C20_11 C 0.7651(5) 0.5002(4) 0.64486(17)
H15_11 H 0.7394 0.5172 0.6502
H16_11 H 0.7975 0.5030 0.6519
C21_11 C 0.7290(4) 0.4512(3) 0.66430(17)
C22_11 C 0.7415(3) 0.4700(3) 0.68064(16)
H17_11 H 0.7635 0.4907 0.6805
C23_11 C 0.7199(4) 0.4566(3) 0.69738(14)
C24_11 C 0.6864(4) 0.4270(4) 0.69816(18)
H18_11 H 0.6713 0.4195 0.7095
C25_11 C 0.6753(5) 0.4080(3) 0.6809(2)
H19_11 H 0.6538 0.3870 0.6809
C26_11 C 0.6968(4) 0.4212(3) 0.66433(17)
H20_11 H 0.6891 0.4092 0.6530
C27_11 C 0.7314(6) 0.4784(4) 0.7149(2)
C28_11 C 0.8357(4) 0.4554(2) 0.45169(11)
H21_11 H 0.8473 0.4797 0.4493
C29_11 C 0.8723(3) 0.4273(2) 0.45207(11)
H22_11 H 0.9075 0.4328 0.4502
C30_11 C 0.8566(3) 0.3906(2) 0.45529(10)
C31_11 C 0.8036(3) 0.3853(2) 0.45871(11)
H23_11 H 0.7908 0.3615 0.4615
C32_11 C 0.7697(3) 0.4158(3) 0.45787(13)
H24_11 H 0.7343 0.4117 0.4598
C33_11 C 0.7185(3) 0.5724(3) 0.44802(11)
H25_11 H 0.7542 0.5721 0.4457
C34_11 C 0.6930(3) 0.6062(2) 0.44784(10)
H26_11 H 0.7112 0.6282 0.4453
C35_11 C 0.6395(3) 0.6074(2) 0.45154(9)
C36_11 C 0.6141(3) 0.5736(2) 0.45521(10)
H27_11 H 0.5783 0.5732 0.4576
C37_11 C 0.6428(3) 0.5404(2) 0.45531(11)
H28_11 H 0.6260 0.5179 0.4581
C38_11 C 0.8626(3) 0.4602(2) 0.39833(11)
H29_11 H 0.8818 0.4820 0.3962
C39_11 C 0.8886(3) 0.42623(19) 0.39899(10)
H30_11 H 0.9247 0.4255 0.3974
C40_11 C 0.8612(3) 0.39350(18) 0.40199(8)
C41_11 C 0.8085(3) 0.3964(2) 0.40486(10)
H31_11 H 0.7889 0.3749 0.4073
C42_11 C 0.7844(3) 0.4307(2) 0.40421(11)
H32_11 H 0.7486 0.4321 0.4063
C43_11 C 0.7324(3) 0.5883(2) 0.39462(11)
H33_11 H 0.7672 0.5935 0.3919
C44_11 C 0.6970(3) 0.6172(2) 0.39466(10)
H34_11 H 0.7077 0.6416 0.3918
C45_11 C 0.6443(3) 0.60992(18) 0.39903(9)
C46_11 C 0.6321(3) 0.57274(19) 0.40281(9)
H35_11 H 0.5976 0.5663 0.4055
C47_11 C 0.6691(3) 0.5456(2) 0.40275(11)
H36_11 H 0.6594 0.5213 0.4059
C48_11 C 0.6652(3) 0.45624(19) 0.43563(12)
C49_11 C 0.6246(3) 0.43848(18) 0.42302(10)
C50_11 C 0.6308(3) 0.43708(19) 0.40350(10)
H37_11 H 0.6598 0.4483 0.3980
C51_11 C 0.5948(3) 0.4194(2) 0.39231(11)
H38_11 H 0.6000 0.4179 0.3793
C52_11 C 0.5512(3) 0.4040(2) 0.40031(11)
H39_11 H 0.5269 0.3915 0.3928
C53_11 C 0.5430(3) 0.4071(2) 0.41995(11)
C54_11 C 0.5799(3) 0.4231(2) 0.43098(11)
H40_11 H 0.5753 0.4238 0.4440
C55_11 C 0.4825(3) 0.3991(3) 0.44561(11)
H41_11 H 0.5049 0.3848 0.4540
H42_11 H 0.4856 0.4256 0.4487
C56_11 C 0.4270(3) 0.3864(3) 0.44735(11)
C57_11 C 0.3873(4) 0.4121(3) 0.44767(12)
H43_11 H 0.3951 0.4376 0.4480
C58_11 C 0.4148(3) 0.3494(3) 0.44752(12)
H44_11 H 0.4413 0.3315 0.4475
C59_11 C 0.8363(3) 0.54225(18) 0.41982(13)
C60_11 C 0.8796(2) 0.56026(18) 0.43080(10)
C61_11 C 0.8740(3) 0.5640(2) 0.45020(11)
H45_11 H 0.8445 0.5550 0.4564
C62_11 C 0.9144(3) 0.5820(2) 0.46035(12)
H46_11 H 0.9113 0.5850 0.4734
C63_11 C 0.9580(3) 0.5950(3) 0.45139(12)
H47_11 H 0.9841 0.6071 0.4582
C64_11 C 0.9633(3) 0.5902(2) 0.43207(11)
C65_11 C 0.9242(2) 0.57276(19) 0.42140(10)
H48_11 H 0.9278 0.5696 0.4084
H50_11 H 0.9936 0.6157 0.3979
O18_11 O 0.2535(2) 0.35769(18) 0.42600(7)
C81_11 C 0.0848(3) 0.29376(19) 0.43563(12)
C82_11 C 0.1254(3) 0.31152(18) 0.42302(10)
C83_11 C 0.1192(3) 0.31292(19) 0.40350(10)
H61_11 H 0.0902 0.3017 0.3980
C84_11 C 0.1552(3) 0.3306(2) 0.39231(11)
H62_11 H 0.1500 0.3321 0.3793
C85_11 C 0.1988(3) 0.3460(2) 0.40031(11)
H63_11 H 0.2231 0.3585 0.3928
C86_11 C 0.2070(3) 0.3429(2) 0.41995(11)
C87_11 C 0.1701(3) 0.3269(2) 0.43098(11)
H64_11 H 0.1747 0.3262 0.4440
C88_11 C 0.2675(3) 0.3509(3) 0.44561(11)
H65_11 H 0.2451 0.3652 0.4540
H66_11 H 0.2644 0.3244 0.4487
C89_11 C 0.3230(3) 0.3636(3) 0.44735(11)
C90_11 C 0.3627(4) 0.3379(3) 0.44767(12)
H67_11 H 0.3549 0.3124 0.4480
C91_11 C 0.3352(3) 0.4006(3) 0.44752(12)
H68_11 H 0.3087 0.4185 0.4475
N6_11 N 0.5556(3) 0.71003(19) 0.45145(9)
C114_11 C 0.5315(3) 0.6776(3) 0.44802(11)
H85_11 H 0.4958 0.6779 0.4457
C115_11 C 0.5570(3) 0.6438(2) 0.44784(10)
H86_11 H 0.5388 0.6218 0.4453
C116_11 C 0.6105(3) 0.6426(2) 0.45154(9)
C117_11 C 0.6359(3) 0.6764(2) 0.45521(10)
H87_11 H 0.6717 0.6768 0.4576
C118_11 C 0.6072(3) 0.7096(2) 0.45531(11)
H88_11 H 0.6240 0.7321 0.4581
N7_11 N 0.9640(3) 0.2995(2) 0.45441(10)
C119_11 C 0.9143(4) 0.2946(2) 0.45169(11)
H89_11 H 0.9027 0.2703 0.4493
C120_11 C 0.8777(3) 0.3227(2) 0.45207(11)
H90_11 H 0.8425 0.3172 0.4502
C121_11 C 0.8934(3) 0.3594(2) 0.45529(10)
C122_11 C 0.9464(3) 0.3647(2) 0.45871(11)
H91_11 H 0.9592 0.3885 0.4615
C123_11 C 0.9803(3) 0.3342(3) 0.45787(13)
N8_11 N 0.5315(3) 0.69779(18) 0.39842(9)
C124_11 C 0.5176(3) 0.6617(2) 0.39462(11)
H93_11 H 0.4828 0.6565 0.3919
C125_11 C 0.5530(3) 0.6328(2) 0.39466(10)
H94_11 H 0.5423 0.6084 0.3918
C126_11 C 0.6057(3) 0.64008(18) 0.39903(9)
C127_11 C 0.6179(3) 0.67726(19) 0.40281(9)
H95_11 H 0.6524 0.6837 0.4055
C128_11 C 0.5809(3) 0.7044(2) 0.40275(11)
H96_11 H 0.5906 0.7287 0.4059
N9_11 N 0.9385(2) 0.28718(18) 0.40064(9)
C129_11 C 0.8874(3) 0.2898(2) 0.39833(11)
H97_11 H 0.8682 0.2680 0.3962
C130_11 C 0.8614(3) 0.32377(19) 0.39899(10)
H98_11 H 0.8253 0.3245 0.3974
C131_11 C 0.8888(3) 0.35650(18) 0.40199(8)
C132_11 C 0.9415(3) 0.3536(2) 0.40486(10)
H99_11 H 0.9611 0.3751 0.4073
C133_11 C 0.9656(3) 0.3193(2) 0.40421(11)
C134_11 C 0.8878(5) 0.2869(3) 0.7531(3)
H101_11 H 0.8710 0.2638 0.7538
C135_11 C 0.8588(4) 0.3199(4) 0.7534(3)
H102_11 H 0.8226 0.3189 0.7544
C136_11 C 0.8839(5) 0.3545(3) 0.7524(3)
C137_11 C 0.9380(5) 0.3561(3) 0.7510(3)
H103_11 H 0.9548 0.3792 0.7503
C138_11 C 0.9671(4) 0.3231(3) 0.7507(2)
O25_11 O 0.97238(19) 0.23148(13) 0.47294(7)
O27_11 O 0.9664(2) 0.2107(2) 0.55568(8)
C139_11 C 0.9936(3) 0.2335(2) 0.48927(12)
C140_11 C 0.9677(3) 0.2108(3) 0.50480(12)
C141_11 C 0.9326(4) 0.1828(3) 0.50031(13)
H105_11 H 0.9246 0.1778 0.4877
C142_11 C 0.9096(4) 0.1622(3) 0.51437(14)
H106_11 H 0.8881 0.1421 0.5113
C143_11 C 0.9184(4) 0.1714(3) 0.53317(14)
H107_11 H 0.9012 0.1586 0.5428
C144_11 C 0.9527(4) 0.1996(3) 0.53726(12)
C145_11 C 0.9793(4) 0.2194(3) 0.52342(12)
C146_11 C 0.9341(4) 0.1967(3) 0.57024(14)
H109_11 H 0.8979 0.2030 0.5677
H110_11 H 0.9371 0.1695 0.5709
C147_11 C 0.9516(4) 0.2142(3) 0.58867(14)
C148_11 C 0.9189(5) 0.2391(3) 0.59728(17)
H111_11 H 0.8886 0.2476 0.5914
C149_11 C 0.9321(5) 0.2504(3) 0.61431(18)
H112_11 H 0.9092 0.2666 0.6205
C150_11 C 0.9759(5) 0.2407(3) 0.62364(16)
C152_11 C 0.9969(5) 0.2011(3) 0.59718(16)
C153_11 C 0.9849(5) 0.2498(4) 0.64486(17)
H116_11 H 0.9525 0.2470 0.6519
H117_11 H 0.9865 0.2593 0.6805
O35_6 O 0.94901(19) 0.22544(13) 0.42803(8)
O36_6 O 0.91334(18) 0.20464(14) 0.40194(8)
C33_12 C 0.0315(3) 0.1776(3) 0.44802(11)
C34_12 C 0.0570(3) 0.1438(2) 0.44784(10)
H26_12 H 0.0388 0.1218 0.4453
C35_12 C 0.1105(3) 0.1426(2) 0.45154(9)
C36_12 C 0.1359(3) 0.1764(2) 0.45521(10)
H27_12 H 0.1717 0.1768 0.4576
C37_12 C 0.1072(3) 0.2096(2) 0.45531(11)
H28_12 H 0.1240 0.2321 0.4581
C43_12 C 0.0176(3) 0.1617(2) 0.39462(11)
C44_12 C 0.0530(3) 0.1328(2) 0.39466(10)
H34_12 H 0.0423 0.1084 0.3918
C45_12 C 0.1057(3) 0.14008(18) 0.39903(9)
C46_12 C 0.1179(3) 0.17726(19) 0.40281(9)
H35_12 H 0.1524 0.1837 0.4055
C47_12 C 0.0809(3) 0.2044(2) 0.40275(11)
H36_12 H 0.0906 0.2287 0.4059
N6_12 N 0.1944(3) 0.03997(19) 0.45145(9)
C114_12 C 0.2185(3) 0.0724(3) 0.44802(11)
H85_12 H 0.2542 0.0721 0.4457
C115_12 C 0.1930(3) 0.1062(2) 0.44784(10)
H86_12 H 0.2112 0.1282 0.4453
C116_12 C 0.1395(3) 0.1074(2) 0.45154(9)
C117_12 C 0.1141(3) 0.0736(2) 0.45521(10)
H87_12 H 0.0783 0.0732 0.4576
C118_12 C 0.1428(3) 0.0404(2) 0.45531(11)
H88_12 H 0.1260 0.0179 0.4581
N8_12 N 0.2185(3) 0.05221(18) 0.39842(9)
C124_12 C 0.2324(3) 0.0883(2) 0.39462(11)
H93_12 H 0.2672 0.0935 0.3919
C125_12 C 0.1970(3) 0.1172(2) 0.39466(10)
H94_12 H 0.2077 0.1416 0.3918
C126_12 C 0.1443(3) 0.10992(18) 0.39903(9)
C127_12 C 0.1321(3) 0.07274(19) 0.40281(9)
H95_12 H 0.0976 0.0663 0.4055
C128_12 C 0.1691(3) 0.0456(2) 0.40275(11)
H96_12 H 0.1594 0.0213 0.4059
Cu8_6 Cu 0.23828(5) 0.99406(3) 0.45306(2)
O12_12 O 0.7412(2) 0.14663(18) 0.42472(7)
H25_12 H 0.9958 0.1779 0.4457
H33_12 H 0.9828 0.1565 0.3919
C59_12 C 0.9137(3) 0.20775(18) 0.41982(13)
C60_12 C 0.8704(2) 0.18974(18) 0.43080(10)
C61_12 C 0.8760(3) 0.1860(2) 0.45020(11)
H45_12 H 0.9055 0.1950 0.4564
C62_12 C 0.8356(3) 0.1680(2) 0.46035(12)
H46_12 H 0.8387 0.1650 0.4734
C63_12 C 0.7920(3) 0.1550(3) 0.45139(12)
H47_12 H 0.7659 0.1429 0.4582
C64_12 C 0.7867(3) 0.1598(2) 0.43207(11)
C65_12 C 0.8258(2) 0.17724(19) 0.42140(10)
H48_12 H 0.8222 0.1804 0.4084
C66_12 C 0.7324(3) 0.1501(2) 0.40491(11)
H49_12 H 0.7367 0.1759 0.4009
H50_12 H 0.7564 0.1343 0.3979
C67_12 C 0.6766(3) 0.1372(2) 0.40194(10)
C68_12 C 0.6647(3) 0.0999(2) 0.40149(11)
H51_12 H 0.6916 0.0823 0.4012
C69_12 C 0.6358(3) 0.1621(2) 0.40151(11)
H52_12 H 0.6428 0.1877 0.4012
O19_12 O 0.30099(19) 0.02456(13) 0.42803(8)
O20_12 O 0.33666(18) 0.04536(14) 0.40194(8)
O21_12 O 0.5088(2) 0.10337(18) 0.42472(7)
C92_12 C 0.3363(3) 0.04225(18) 0.41982(13)
C93_12 C 0.3796(2) 0.06026(18) 0.43080(10)
C94_12 C 0.3740(3) 0.0640(2) 0.45020(11)
H69_12 H 0.3445 0.0550 0.4564
C95_12 C 0.4144(3) 0.0820(2) 0.46035(12)
H70_12 H 0.4113 0.0850 0.4734
C96_12 C 0.4580(3) 0.0950(3) 0.45139(12)
H71_12 H 0.4841 0.1071 0.4582
C97_12 C 0.4633(3) 0.0902(2) 0.43207(11)
C98_12 C 0.4242(2) 0.07276(19) 0.42140(10)
H72_12 H 0.4278 0.0696 0.4084
C99_12 C 0.5176(3) 0.0999(2) 0.40491(11)
H73_12 H 0.5133 0.0741 0.4009
H74_12 H 0.4936 0.1157 0.3979
C100_12 C 0.5734(3) 0.1128(2) 0.40194(10)
C101_12 C 0.5853(3) 0.1501(2) 0.40149(11)
H75_12 H 0.5584 0.1677 0.4012
C102_12 C 0.6142(3) 0.0879(2) 0.40151(11)
H76_12 H 0.6072 0.0623 0.4012
O1_12 O 0.27762(19) 0.01852(13) 0.47294(7)
O3_12 O 0.2836(2) 0.0393(2) 0.55568(8)
C6_12 C 0.2564(3) 0.0165(2) 0.48927(12)
C7_12 C 0.2823(3) 0.0392(3) 0.50480(12)
C8_12 C 0.3174(4) 0.0672(3) 0.50031(13)
H5_12 H 0.3254 0.0722 0.4877
C9_12 C 0.3404(4) 0.0878(3) 0.51437(14)
H6_12 H 0.3619 0.1079 0.5113
C10_12 C 0.3316(4) 0.0786(3) 0.53317(14)
H7_12 H 0.3488 0.0914 0.5428
C11_12 C 0.2973(4) 0.0504(3) 0.53726(12)
C12_12 C 0.2707(4) 0.0306(3) 0.52342(12)
H8_12 H 0.2461 0.0124 0.5265
C13_12 C 0.3159(4) 0.0533(3) 0.57024(14)
H9_12 H 0.3521 0.0470 0.5677
H10_12 H 0.3129 0.0805 0.5709
C14_12 C 0.2984(4) 0.0358(3) 0.58867(14)
C15_12 C 0.3311(5) 0.0109(3) 0.59728(17)
H11_12 H 0.3614 0.0024 0.5914
C17_12 C 0.2741(5) 0.0093(3) 0.62364(16)
C18_12 C 0.2406(5) 0.0352(4) 0.61506(17)
H13_12 H 0.2105 0.0432 0.6212
C19_12 C 0.2531(5) 0.0489(3) 0.59718(16)
H14_12 H 0.2317 0.0663 0.5911
C20_12 C 0.2651(5) 0.0002(4) 0.64486(17)
H15_12 H 0.2394 0.0172 0.6502
H16_12 H 0.2975 0.0030 0.6519
O2_12 O 0.2170(3) 0.9981(2) 0.49210(9)
O4_12 O 0.2471(3) 0.9626(2) 0.64595(10)
O7_12 O 0.20264(17) 0.97380(12) 0.42787(8)
O8_12 O 0.16023(17) 0.95342(14) 0.45286(8)
N2_12 N 0.2860(3) 0.9505(2) 0.45441(10)
N4_12 N 0.3115(2) 0.96282(18) 0.40064(9)
C1_12 C 0.3622(5) 0.9631(3) 0.7531(3)
H1_12 H 0.3790 0.9862 0.7538
C2_12 C 0.3912(4) 0.9301(4) 0.7534(3)
H2_12 H 0.4274 0.9311 0.7544
C3_12 C 0.3661(5) 0.8955(3) 0.7524(3)
C4_12 C 0.3120(5) 0.8939(3) 0.7510(3)
H3_12 H 0.2952 0.8708 0.7503
C5_12 C 0.2829(4) 0.9269(3) 0.7507(2)
H4_12 H 0.2467 0.9259 0.7498
C16_12 C 0.3179(5) 0.9996(3) 0.61431(18)
H12_12 H 0.3408 0.9834 0.6205
C21_12 C 0.2290(4) 0.9512(3) 0.66430(17)
C22_12 C 0.2415(3) 0.9700(3) 0.68064(16)
H17_12 H 0.2635 0.9907 0.6805
C23_12 C 0.2199(4) 0.9566(3) 0.69738(14)
C24_12 C 0.1864(4) 0.9270(4) 0.69816(18)
H18_12 H 0.1713 0.9195 0.7095
C25_12 C 0.1753(5) 0.9080(3) 0.6809(2)
H19_12 H 0.1538 0.8870 0.6809
C26_12 C 0.1968(4) 0.9212(3) 0.66433(17)
H20_12 H 0.1891 0.9092 0.6530
C27_12 C 0.2314(6) 0.9784(4) 0.7149(2)
C28_12 C 0.3357(4) 0.9554(2) 0.45169(11)
H21_12 H 0.3473 0.9797 0.4493
C29_12 C 0.3723(3) 0.9273(2) 0.45207(11)
H22_12 H 0.4075 0.9328 0.4502
C30_12 C 0.3566(3) 0.8906(2) 0.45529(10)
C31_12 C 0.3036(3) 0.8853(2) 0.45871(11)
H23_12 H 0.2908 0.8615 0.4615
C32_12 C 0.2697(3) 0.9158(3) 0.45787(13)
H24_12 H 0.2343 0.9117 0.4598
C38_12 C 0.3626(3) 0.9602(2) 0.39833(11)
H29_12 H 0.3818 0.9820 0.3962
C39_12 C 0.3886(3) 0.92623(19) 0.39899(10)
H30_12 H 0.4247 0.9255 0.3974
C40_12 C 0.3612(3) 0.89350(18) 0.40199(8)
C41_12 C 0.3085(3) 0.8964(2) 0.40486(10)
H31_12 H 0.2889 0.8749 0.4073
C42_12 C 0.2844(3) 0.9307(2) 0.40421(11)
H32_12 H 0.2486 0.9321 0.4063
C48_12 C 0.1652(3) 0.95624(19) 0.43563(12)
C49_12 C 0.1246(3) 0.93848(18) 0.42302(10)
C50_12 C 0.1308(3) 0.93708(19) 0.40350(10)
H37_12 H 0.1598 0.9483 0.3980
C51_12 C 0.0948(3) 0.9194(2) 0.39231(11)
H38_12 H 0.1000 0.9179 0.3793
C52_12 C 0.0512(3) 0.9040(2) 0.40031(11)
H39_12 H 0.0269 0.8915 0.3928
C53_12 C 0.0430(3) 0.9071(2) 0.41995(11)
C54_12 C 0.0799(3) 0.9231(2) 0.43098(11)
H40_12 H 0.0753 0.9238 0.4440
H41_12 H 0.0049 0.8848 0.4540
N7_12 N 0.4640(3) 0.7995(2) 0.45441(10)
C119_12 C 0.4143(4) 0.7946(2) 0.45169(11)
H89_12 H 0.4027 0.7703 0.4493
C120_12 C 0.3777(3) 0.8227(2) 0.45207(11)
H90_12 H 0.3425 0.8172 0.4502
C121_12 C 0.3934(3) 0.8594(2) 0.45529(10)
C122_12 C 0.4464(3) 0.8647(2) 0.45871(11)
H91_12 H 0.4592 0.8885 0.4615
C123_12 C 0.4803(3) 0.8342(3) 0.45787(13)
H92_12 H 0.5157 0.8383 0.4598
N9_12 N 0.4385(2) 0.78718(18) 0.40064(9)
C129_12 C 0.3874(3) 0.7898(2) 0.39833(11)
H97_12 H 0.3682 0.7680 0.3962
C130_12 C 0.3614(3) 0.82377(19) 0.39899(10)
H98_12 H 0.3253 0.8245 0.3974
C131_12 C 0.3888(3) 0.85650(18) 0.40199(8)
C132_12 C 0.4415(3) 0.8536(2) 0.40486(10)
H99_12 H 0.4611 0.8751 0.4073
C133_12 C 0.4656(3) 0.8193(2) 0.40421(11)
H100_12 H 0.5014 0.8179 0.4063
C134_12 C 0.3878(5) 0.7869(3) 0.7531(3)
H101_12 H 0.3710 0.7638 0.7538
C135_12 C 0.3588(4) 0.8199(4) 0.7534(3)
H102_12 H 0.3226 0.8189 0.7544
C136_12 C 0.3839(5) 0.8545(3) 0.7524(3)
C137_12 C 0.4380(5) 0.8561(3) 0.7510(3)
H103_12 H 0.4548 0.8792 0.7503
C138_12 C 0.4671(4) 0.8231(3) 0.7507(2)
H104_12 H 0.5033 0.8241 0.7498
O25_12 O 0.47238(19) 0.73148(13) 0.47294(7)
O26_12 O 0.5330(3) 0.7519(2) 0.49210(9)
O27_12 O 0.4664(2) 0.7107(2) 0.55568(8)
O28_12 O 0.5029(3) 0.7874(2) 0.64595(10)
C139_12 C 0.4936(3) 0.7335(2) 0.48927(12)
C140_12 C 0.4677(3) 0.7108(3) 0.50480(12)
C141_12 C 0.4326(4) 0.6828(3) 0.50031(13)
H105_12 H 0.4246 0.6778 0.4877
C142_12 C 0.4096(4) 0.6622(3) 0.51437(14)
H106_12 H 0.3881 0.6421 0.5113
C143_12 C 0.4184(4) 0.6714(3) 0.53317(14)
H107_12 H 0.4012 0.6586 0.5428
C144_12 C 0.4527(4) 0.6996(3) 0.53726(12)
C145_12 C 0.4793(4) 0.7194(3) 0.52342(12)
H108_12 H 0.5039 0.7376 0.5265
C146_12 C 0.4341(4) 0.6967(3) 0.57024(14)
H109_12 H 0.3979 0.7030 0.5677
H110_12 H 0.4371 0.6695 0.5709
C147_12 C 0.4516(4) 0.7142(3) 0.58867(14)
C148_12 C 0.4189(5) 0.7391(3) 0.59728(17)
H111_12 H 0.3886 0.7476 0.5914
C149_12 C 0.4321(5) 0.7504(3) 0.61431(18)
H112_12 H 0.4092 0.7666 0.6205
C150_12 C 0.4759(5) 0.7407(3) 0.62364(16)
C151_12 C 0.5094(5) 0.7148(4) 0.61506(17)
H113_12 H 0.5395 0.7068 0.6212
C152_12 C 0.4969(5) 0.7011(3) 0.59718(16)
H114_12 H 0.5183 0.6837 0.5911
C153_12 C 0.4849(5) 0.7498(4) 0.64486(17)
H115_12 H 0.5106 0.7328 0.6502
H116_12 H 0.4525 0.7470 0.6519
C154_12 C 0.5210(4) 0.7988(3) 0.66430(17)
C155_12 C 0.5085(3) 0.7800(3) 0.68064(16)
H117_12 H 0.4865 0.7593 0.6805
C156_12 C 0.5301(4) 0.7934(3) 0.69738(14)
C157_12 C 0.5636(4) 0.8230(4) 0.69816(18)
H118_12 H 0.5787 0.8305 0.7095
C158_12 C 0.5747(5) 0.8420(3) 0.6809(2)
H119_12 H 0.5962 0.8630 0.6809
C159_12 C 0.5532(4) 0.8288(3) 0.66433(17)
H120_12 H 0.5609 0.8408 0.6530
C160_12 C 0.5186(6) 0.7716(4) 0.7149(2)
O33_6 O 0.54736(17) 0.77620(12) 0.42787(8)
O34_6 O 0.58977(17) 0.79658(14) 0.45286(8)
O9_12 O 0.9965(2) 0.89231(18) 0.42600(7)
C55_12 C 0.9825(3) 0.8991(3) 0.44561(11)
H42_12 H 0.9856 0.9256 0.4487
C56_12 C 0.9270(3) 0.8864(3) 0.44735(11)
C57_12 C 0.8873(4) 0.9121(3) 0.44767(12)
H43_12 H 0.8951 0.9376 0.4480
C58_12 C 0.9148(3) 0.8494(3) 0.44752(12)
H44_12 H 0.9413 0.8315 0.4475
O18_12 O 0.7535(2) 0.85769(18) 0.42600(7)
C81_12 C 0.5848(3) 0.79376(19) 0.43563(12)
C82_12 C 0.6254(3) 0.81152(18) 0.42302(10)
C83_12 C 0.6192(3) 0.81292(19) 0.40350(10)
H61_12 H 0.5902 0.8017 0.3980
C84_12 C 0.6552(3) 0.8306(2) 0.39231(11)
H62_12 H 0.6500 0.8321 0.3793
C85_12 C 0.6988(3) 0.8460(2) 0.40031(11)
H63_12 H 0.7231 0.8585 0.3928
C86_12 C 0.7070(3) 0.8429(2) 0.41995(11)
C87_12 C 0.6701(3) 0.8269(2) 0.43098(11)
H64_12 H 0.6747 0.8262 0.4440
C88_12 C 0.7675(3) 0.8509(3) 0.44561(11)
H65_12 H 0.7451 0.8652 0.4540
H66_12 H 0.7644 0.8244 0.4487
C89_12 C 0.8230(3) 0.8636(3) 0.44735(11)
C90_12 C 0.8627(4) 0.8379(3) 0.44767(12)
H67_12 H 0.8549 0.8124 0.4480
C91_12 C 0.8352(3) 0.9006(3) 0.44752(12)
H68_12 H 0.8087 0.9185 0.4475
Cu1_7 Cu 0.26172(5) 0.24406(3) 0.20306(2)
Cu2_11 Cu 0.2500 0.2500 0.5000
Cu3_4 Cu 0.23012(4) 0.26010(3) 0.14749(2)
O1_13 O 0.22238(19) 0.26852(13) 0.22294(7)
O2_13 O 0.2830(3) 0.2481(2) 0.24210(9)
O3_13 O 0.2164(2) 0.2893(2) 0.30568(8)
O4_13 O 0.2529(3) 0.2126(2) 0.39595(10)
O5_7 O 0.2973(4) 0.2199(2) 0.47971(12)
O6_7 O 0.2320(4) 0.2494(3) 0.46579(13)
O7_13 O 0.29736(17) 0.22380(12) 0.17787(8)
O8_13 O 0.33977(17) 0.20342(14) 0.20286(8)
O9_13 O 0.5035(2) 0.14231(18) 0.17600(7)
O10_7 O 0.19901(19) 0.27456(13) 0.17803(8)
O11_7 O 0.16334(18) 0.29536(14) 0.15194(8)
O13_7 O 0.27507(16) 0.23284(12) 0.12980(6)
O14_7 O 0.2182(2) 0.26116(13) 0.11123(7)
O15_13 O 0.2583(2) 0.20590(16) 0.04595(7)
N1_7 N 0.3056(3) 0.28997(19) 0.20145(9)
N2_13 N 0.2140(3) 0.2005(2) 0.20441(10)
N3_7 N 0.2815(3) 0.30221(18) 0.14842(9)
N4_13 N 0.1885(2) 0.21282(18) 0.15064(9)
N5_7 N 0.1919(4) 0.2115(3) 0.50173(19)
C1_13 C 0.1378(5) 0.2131(3) 0.5031(3)
H1_13 H 0.1210 0.2362 0.5038
C2_13 C 0.1088(4) 0.1801(4) 0.5034(3)
H2_13 H 0.0726 0.1811 0.5044
C3_13 C 0.1339(5) 0.1455(3) 0.5024(3)
C4_13 C 0.1880(5) 0.1439(3) 0.5010(3)
H3_13 H 0.2048 0.1208 0.5003
C5_13 C 0.2171(4) 0.1769(3) 0.5007(2)
H4_13 H 0.2533 0.1759 0.4998
C6_13 C 0.2436(3) 0.2665(2) 0.23927(12)
C7_13 C 0.2177(3) 0.2892(3) 0.25480(12)
C8_13 C 0.1826(4) 0.3172(3) 0.25031(13)
H5_13 H 0.1746 0.3222 0.2377
C9_13 C 0.1596(4) 0.3378(3) 0.26437(14)
H6_13 H 0.1381 0.3579 0.2613
C10_13 C 0.1684(4) 0.3286(3) 0.28317(14)
H7_13 H 0.1512 0.3414 0.2928
C11_13 C 0.2027(4) 0.3004(3) 0.28726(12)
C12_13 C 0.2293(4) 0.2806(3) 0.27342(12)
H8_13 H 0.2539 0.2624 0.2765
C13_13 C 0.1841(4) 0.3033(3) 0.32024(14)
H9_13 H 0.1479 0.2970 0.3177
H10_13 H 0.1871 0.3305 0.3209
C14_13 C 0.2016(4) 0.2858(3) 0.33867(14)
C15_13 C 0.1689(5) 0.2609(3) 0.34728(17)
H11_13 H 0.1386 0.2524 0.3414
C16_13 C 0.1821(5) 0.2496(3) 0.36431(18)
H12_13 H 0.1592 0.2334 0.3705
C17_13 C 0.2259(5) 0.2593(3) 0.37364(16)
C18_13 C 0.2594(5) 0.2852(4) 0.36506(17)
H13_13 H 0.2895 0.2932 0.3712
C19_13 C 0.2469(5) 0.2989(3) 0.34718(16)
H14_13 H 0.2683 0.3163 0.3411
C20_13 C 0.2349(5) 0.2502(4) 0.39486(17)
H15_13 H 0.2606 0.2672 0.4002
H16_13 H 0.2025 0.2530 0.4019
C21_13 C 0.2710(4) 0.2012(3) 0.41430(17)
C22_13 C 0.2585(3) 0.2200(3) 0.43064(16)
H17_13 H 0.2365 0.2407 0.4305
C23_13 C 0.2801(4) 0.2066(3) 0.44738(14)
C24_13 C 0.3136(4) 0.1770(4) 0.44816(18)
H18_13 H 0.3287 0.1695 0.4595
C25_13 C 0.3247(5) 0.1580(3) 0.4309(2)
H19_13 H 0.3462 0.1370 0.4309
C26_13 C 0.3032(4) 0.1712(3) 0.41433(17)
H20_13 H 0.3109 0.1592 0.4030
C27_13 C 0.2686(6) 0.2284(4) 0.4649(2)
C28_13 C 0.1643(4) 0.2054(2) 0.20169(11)
H21_13 H 0.1527 0.2297 0.1993
C29_13 C 0.1277(3) 0.1773(2) 0.20207(11)
H22_13 H 0.0925 0.1828 0.2002
C30_13 C 0.1434(3) 0.1406(2) 0.20529(10)
C31_13 C 0.1964(3) 0.1353(2) 0.20871(11)
H23_13 H 0.2092 0.1115 0.2115
C32_13 C 0.2303(3) 0.1658(3) 0.20787(13)
H24_13 H 0.2657 0.1617 0.2098
C33_13 C 0.2815(3) 0.3224(3) 0.19802(11)
H25_13 H 0.2458 0.3221 0.1957
C34_13 C 0.3070(3) 0.3562(2) 0.19784(10)
H26_13 H 0.2888 0.3782 0.1953
C35_13 C 0.3605(3) 0.3574(2) 0.20154(9)
C36_13 C 0.3859(3) 0.3236(2) 0.20521(10)
H27_13 H 0.4217 0.3232 0.2076
C37_13 C 0.3572(3) 0.2904(2) 0.20531(11)
H28_13 H 0.3740 0.2679 0.2081
C38_13 C 0.1374(3) 0.2102(2) 0.14833(11)
H29_13 H 0.1182 0.2320 0.1462
C39_13 C 0.1114(3) 0.17623(19) 0.14899(10)
H30_13 H 0.0753 0.1755 0.1474
C40_13 C 0.1388(3) 0.14350(18) 0.15199(8)
C41_13 C 0.1915(3) 0.1464(2) 0.15486(10)
H31_13 H 0.2111 0.1249 0.1573
C42_13 C 0.2156(3) 0.1807(2) 0.15421(11)
H32_13 H 0.2514 0.1821 0.1563
C43_13 C 0.2676(3) 0.3383(2) 0.14462(11)
H33_13 H 0.2328 0.3435 0.1419
C44_13 C 0.3030(3) 0.3672(2) 0.14466(10)
H34_13 H 0.2923 0.3916 0.1418
C45_13 C 0.3557(3) 0.35992(18) 0.14903(9)
C46_13 C 0.3679(3) 0.32274(19) 0.15281(9)
H35_13 H 0.4024 0.3163 0.1555
C47_13 C 0.3309(3) 0.2956(2) 0.15275(11)
H36_13 H 0.3406 0.2713 0.1559
C48_13 C 0.3348(3) 0.20624(19) 0.18563(12)
C49_13 C 0.3754(3) 0.18848(18) 0.17302(10)
C50_13 C 0.3692(3) 0.18708(19) 0.15350(10)
H37_13 H 0.3402 0.1983 0.1480
C51_13 C 0.4052(3) 0.1694(2) 0.14231(11)
H38_13 H 0.4000 0.1679 0.1293
C52_13 C 0.4488(3) 0.1540(2) 0.15031(11)
H39_13 H 0.4731 0.1415 0.1428
C53_13 C 0.4570(3) 0.1571(2) 0.16995(11)
C54_13 C 0.4201(3) 0.1731(2) 0.18098(11)
H40_13 H 0.4247 0.1738 0.1940
C55_13 C 0.5175(3) 0.1491(3) 0.19561(11)
H41_13 H 0.4951 0.1348 0.2040
H42_13 H 0.5144 0.1756 0.1987
C56_13 C 0.5730(3) 0.1364(3) 0.19735(11)
C57_13 C 0.6127(4) 0.1621(3) 0.19767(12)
H43_13 H 0.6049 0.1876 0.1980
C58_13 C 0.5852(3) 0.0994(3) 0.19752(12)
H44_13 H 0.5587 0.0815 0.1975
C59_13 C 0.1637(3) 0.29225(18) 0.16982(13)
C60_13 C 0.1204(2) 0.31026(18) 0.18080(10)
C61_13 C 0.1260(3) 0.3140(2) 0.20020(11)
H45_13 H 0.1555 0.3050 0.2064
C62_13 C 0.0856(3) 0.3320(2) 0.21035(12)
H46_13 H 0.0887 0.3350 0.2234
C63_13 C 0.0420(3) 0.3450(3) 0.20139(12)
H47_13 H 0.0159 0.3571 0.2082
C64_13 C 0.0367(3) 0.3402(2) 0.18207(11)
C65_13 C 0.0758(2) 0.32276(19) 0.17140(10)
H48_13 H 0.0722 0.3196 0.1584
H50_13 H 0.0064 0.3657 0.1479
C70_13 C 0.2539(3) 0.23815(19) 0.11374(10)
C71_13 C 0.3011(3) 0.1821(2) 0.10119(10)
H53_13 H 0.3121 0.1766 0.1134
C72_13 C 0.2722(2) 0.21397(18) 0.09780(9)
C73_13 C 0.2570(3) 0.2229(2) 0.07926(9)
H54_13 H 0.2375 0.2445 0.0769
C74_13 C 0.2712(3) 0.1998(2) 0.06484(10)
C75_13 C 0.2990(3) 0.1677(2) 0.06786(10)
H55_13 H 0.3078 0.1523 0.0577
C76_13 C 0.3142(3) 0.1580(2) 0.08616(11)
H56_13 H 0.3326 0.1360 0.0884
C77_13 C 0.2436(4) 0.2440(2) 0.04128(11)
H57_13 H 0.2674 0.2617 0.0471
H58_13 H 0.2085 0.2492 0.0457
C78_13 C 0.2461(4) 0.2472(3) 0.01966(12)
C79_13 C 0.2965(5) 0.2421(3) 0.01064(14)
H59_13 H 0.3264 0.2370 0.0177
C80_13 C 0.2018(5) 0.2546(3) 0.00905(14)
H60_13 H 0.1699 0.2576 0.0152
O16_7 O 0.95264(17) 0.02620(12) 0.17787(8)
O17_7 O 0.91023(17) 0.04658(14) 0.20286(8)
O18_13 O 0.7465(2) 0.10769(18) 0.17600(7)
C81_13 C 0.9152(3) 0.04376(19) 0.18563(12)
C82_13 C 0.8746(3) 0.06152(18) 0.17302(10)
C83_13 C 0.8808(3) 0.06292(19) 0.15350(10)
H61_13 H 0.9098 0.0517 0.1480
C84_13 C 0.8448(3) 0.0806(2) 0.14231(11)
H62_13 H 0.8500 0.0821 0.1293
C85_13 C 0.8012(3) 0.0960(2) 0.15031(11)
H63_13 H 0.7769 0.1085 0.1428
C86_13 C 0.7930(3) 0.0929(2) 0.16995(11)
C87_13 C 0.8299(3) 0.0769(2) 0.18098(11)
H64_13 H 0.8253 0.0762 0.1940
C88_13 C 0.7325(3) 0.1009(3) 0.19561(11)
H65_13 H 0.7549 0.1152 0.2040
H66_13 H 0.7356 0.0744 0.1987
C89_13 C 0.6770(3) 0.1136(3) 0.19735(11)
C90_13 C 0.6373(4) 0.0879(3) 0.19767(12)
H67_13 H 0.6451 0.0624 0.1980
C91_13 C 0.6648(3) 0.1506(3) 0.19752(12)
H68_13 H 0.6913 0.1685 0.1975
N6_13 N 0.4444(3) 0.46003(19) 0.20145(9)
C114_13 C 0.4685(3) 0.4276(3) 0.19802(11)
H85_13 H 0.5042 0.4279 0.1957
C115_13 C 0.4430(3) 0.3938(2) 0.19784(10)
H86_13 H 0.4612 0.3718 0.1953
C116_13 C 0.3895(3) 0.3926(2) 0.20154(9)
C117_13 C 0.3641(3) 0.4264(2) 0.20521(10)
H87_13 H 0.3283 0.4268 0.2076
C118_13 C 0.3928(3) 0.4596(2) 0.20531(11)
H88_13 H 0.3760 0.4821 0.2081
N7_13 N 0.0360(3) 0.0495(2) 0.20441(10)
C119_13 C 0.0857(4) 0.0446(2) 0.20169(11)
H89_13 H 0.0973 0.0203 0.1993
C120_13 C 0.1223(3) 0.0727(2) 0.20207(11)
H90_13 H 0.1575 0.0672 0.2002
C121_13 C 0.1066(3) 0.1094(2) 0.20529(10)
C122_13 C 0.0536(3) 0.1147(2) 0.20871(11)
H91_13 H 0.0408 0.1385 0.2115
C123_13 C 0.0197(3) 0.0842(3) 0.20787(13)
N8_13 N 0.4685(3) 0.44779(18) 0.14842(9)
C124_13 C 0.4824(3) 0.4117(2) 0.14462(11)
H93_13 H 0.5172 0.4065 0.1419
C125_13 C 0.4470(3) 0.3828(2) 0.14466(10)
H94_13 H 0.4577 0.3584 0.1418
C126_13 C 0.3943(3) 0.39008(18) 0.14903(9)
C127_13 C 0.3821(3) 0.42726(19) 0.15281(9)
H95_13 H 0.3476 0.4337 0.1555
C128_13 C 0.4191(3) 0.4544(2) 0.15275(11)
H96_13 H 0.4094 0.4787 0.1559
N9_13 N 0.0615(2) 0.03718(18) 0.15064(9)
C129_13 C 0.1126(3) 0.0398(2) 0.14833(11)
H97_13 H 0.1318 0.0180 0.1462
C130_13 C 0.1386(3) 0.07377(19) 0.14899(10)
H98_13 H 0.1747 0.0745 0.1474
C131_13 C 0.1112(3) 0.10650(18) 0.15199(8)
C132_13 C 0.0585(3) 0.1036(2) 0.15486(10)
H99_13 H 0.0389 0.1251 0.1573
C133_13 C 0.0344(3) 0.0693(2) 0.15421(11)
N10_7 N 0.0581(4) 0.0385(3) 0.50173(19)
C134_13 C 0.1122(5) 0.0369(3) 0.5031(3)
H101_13 H 0.1290 0.0138 0.5038
C135_13 C 0.1412(4) 0.0699(4) 0.5034(3)
H102_13 H 0.1774 0.0689 0.5044
C136_13 C 0.1161(5) 0.1045(3) 0.5024(3)
C137_13 C 0.0620(5) 0.1061(3) 0.5010(3)
H103_13 H 0.0452 0.1292 0.5003
C138_13 C 0.0329(4) 0.0731(3) 0.5007(2)
O30_7 O 0.0180(4) 0.0006(3) 0.46579(13)
C149_13 C 0.0679(5) 0.0004(3) 0.36431(18)
H112_13 H 0.0908 0.0166 0.3705
H117_13 H 0.0135 0.0093 0.4305
Cu6_4 Cu 0.98828(5) 0.00594(3) 0.20306(2)
Cu8_7 Cu 0.48828(5) 0.50594(3) 0.20306(2)
Cu9_15 Cu 0.0000 0.0000 0.5000
Cu11_4 Cu 0.51988(4) 0.48990(3) 0.14749(2)
O31_13 O 0.2027(4) 0.2801(2) 0.52029(12)
O32_13 O 0.2680(4) 0.2506(3) 0.53421(13)
N13_13 N 0.3081(4) 0.2885(3) 0.49827(19)
O22_13 O 0.22493(16) 0.26716(12) 0.87020(6)
O23_13 O 0.2818(2) 0.23884(13) 0.88877(7)
O24_13 O 0.2417(2) 0.29410(16) 0.95405(7)
C103_13 C 0.2461(3) 0.26185(19) 0.88626(10)
C104_13 C 0.1989(3) 0.3179(2) 0.89881(10)
H77_13 H 0.1879 0.3234 0.8866
C105_13 C 0.2278(2) 0.28603(18) 0.90220(9)
C106_13 C 0.2430(3) 0.2771(2) 0.92074(9)
H78_13 H 0.2625 0.2555 0.9231
C107_13 C 0.2288(3) 0.3002(2) 0.93516(10)
C108_13 C 0.2010(3) 0.3323(2) 0.93214(10)
H79_13 H 0.1922 0.3477 0.9423
C109_13 C 0.1858(3) 0.3420(2) 0.91384(11)
H80_13 H 0.1674 0.3640 0.9116
C110_13 C 0.2564(4) 0.2560(2) 0.95872(11)
H81_13 H 0.2326 0.2383 0.9529
H82_13 H 0.2915 0.2508 0.9543
C111_13 C 0.2539(4) 0.2528(3) 0.98034(12)
C112_13 C 0.2035(5) 0.2579(3) 0.98936(14)
H83_13 H 0.1736 0.2630 0.9823
C113_13 C 0.2982(5) 0.2454(3) 0.99095(14)
H84_13 H 0.3301 0.2424 0.9848
Cu12_13 Cu 0.26988(4) 0.23990(3) 0.85251(2)
Cu5_4 Cu 0.01988(4) 0.98990(3) 0.14749(2)
O25_13 O 0.02762(19) 0.98148(13) 0.22294(7)
O27_13 O 0.0336(2) 0.9607(2) 0.30568(8)
C139_13 C 0.0064(3) 0.9835(2) 0.23927(12)
C140_13 C 0.0323(3) 0.9608(3) 0.25480(12)
C141_13 C 0.0674(4) 0.9328(3) 0.25031(13)
H105_13 H 0.0754 0.9278 0.2377
C142_13 C 0.0904(4) 0.9122(3) 0.26437(14)
H106_13 H 0.1119 0.8921 0.2613
C143_13 C 0.0816(4) 0.9214(3) 0.28317(14)
H107_13 H 0.0988 0.9086 0.2928
C144_13 C 0.0473(4) 0.9496(3) 0.28726(12)
C145_13 C 0.0207(4) 0.9694(3) 0.27342(12)
C146_13 C 0.0659(4) 0.9467(3) 0.32024(14)
H109_13 H 0.1021 0.9530 0.3177
H110_13 H 0.0629 0.9195 0.3209
C147_13 C 0.0484(4) 0.9642(3) 0.33867(14)
C148_13 C 0.0811(5) 0.9891(3) 0.34728(17)
H111_13 H 0.1114 0.9976 0.3414
C150_13 C 0.0241(5) 0.9907(3) 0.37364(16)
C152_13 C 0.0031(5) 0.9511(3) 0.34718(16)
C153_13 C 0.0151(5) 0.9998(4) 0.39486(17)
H116_13 H 0.0475 0.9970 0.4019
Cu9_16 Cu 0.0000 1.0000 0.5000
O35_7 O 0.05099(19) 0.97544(13) 0.17803(8)
O36_7 O 0.08666(18) 0.95464(14) 0.15194(8)
O38_7 O 0.0318(2) 0.98884(13) 0.11123(7)
O12_13 O 0.9912(2) 0.35337(18) 0.17472(7)
C66_13 C 0.9824(3) 0.3499(2) 0.15491(11)
H49_13 H 0.9867 0.3241 0.1509
C67_13 C 0.9266(3) 0.3628(2) 0.15194(10)
C68_13 C 0.9147(3) 0.4001(2) 0.15149(11)
H51_13 H 0.9416 0.4177 0.1512
C69_13 C 0.8858(3) 0.3379(2) 0.15151(11)
H52_13 H 0.8928 0.3123 0.1512
O19_13 O 0.55099(19) 0.47544(13) 0.17803(8)
O20_13 O 0.58666(18) 0.45464(14) 0.15194(8)
O21_13 O 0.7588(2) 0.39663(18) 0.17472(7)
C92_13 C 0.5863(3) 0.45775(18) 0.16982(13)
C93_13 C 0.6296(2) 0.43974(18) 0.18080(10)
C94_13 C 0.6240(3) 0.4360(2) 0.20020(11)
H69_13 H 0.5945 0.4450 0.2064
C95_13 C 0.6644(3) 0.4180(2) 0.21035(12)
H70_13 H 0.6613 0.4150 0.2234
C96_13 C 0.7080(3) 0.4050(3) 0.20139(12)
H71_13 H 0.7341 0.3929 0.2082
C97_13 C 0.7133(3) 0.4098(2) 0.18207(11)
C98_13 C 0.6742(2) 0.42724(19) 0.17140(10)
H72_13 H 0.6778 0.4304 0.1584
C99_13 C 0.7676(3) 0.4001(2) 0.15491(11)
H73_13 H 0.7633 0.4259 0.1509
H74_13 H 0.7436 0.3843 0.1479
C100_13 C 0.8234(3) 0.3872(2) 0.15194(10)
C101_13 C 0.8353(3) 0.3499(2) 0.15149(11)
H75_13 H 0.8084 0.3323 0.1512
C102_13 C 0.8642(3) 0.4121(2) 0.15151(11)
H76_13 H 0.8572 0.4377 0.1512
H92_13 H 0.9843 0.0883 0.2098
H100_13 H 0.9986 0.0679 0.1563
H104_13 H 0.9967 0.0741 0.4998
O26_13 O 0.9670(3) 0.0019(2) 0.24210(9)
O28_13 O 0.9971(3) 0.0374(2) 0.39595(10)
O29_7 O 0.9527(4) 0.0301(2) 0.47971(12)
C154_13 C 0.9790(4) 0.0488(3) 0.41430(17)
C155_13 C 0.9915(3) 0.0300(3) 0.43064(16)
C156_13 C 0.9699(4) 0.0434(3) 0.44738(14)
C157_13 C 0.9364(4) 0.0730(4) 0.44816(18)
H118_13 H 0.9213 0.0805 0.4595
C158_13 C 0.9253(5) 0.0920(3) 0.4309(2)
H119_13 H 0.9038 0.1130 0.4309
C159_13 C 0.9468(4) 0.0788(3) 0.41433(17)
H120_13 H 0.9391 0.0908 0.4030
C160_13 C 0.9814(6) 0.0216(4) 0.4649(2)
Cu9_17 Cu 1.0000 0.0000 0.5000
O37_7 O 0.97493(16) 0.01716(12) 0.12980(6)
H108_13 H 0.9961 0.9876 0.2765
C151_13 C 0.9906(5) 0.9648(4) 0.36506(17)
H113_13 H 0.9605 0.9568 0.3712
H114_13 H 0.9817 0.9337 0.3411
H115_13 H 0.9894 0.9828 0.4002
Cu9_18 Cu 1.0000 1.0000 0.5000
N11_7 N 0.9444(3) 0.96003(19) 0.20145(9)
N12_7 N 0.9685(3) 0.94779(18) 0.14842(9)
H54_14 H 0.0125 0.0055 0.0769
C77_14 C 0.0064(4) 0.0060(2) 0.04128(11)
H58_14 H 0.0415 0.0008 0.0457
C78_14 C 0.0039(4) 0.0028(3) 0.01966(12)
H81_14 H 0.0174 0.0117 0.9529
O12_14 O 0.2588(2) 0.89663(18) 0.17472(7)
H25_14 H 0.0042 0.9279 0.1957
H33_14 H 0.0172 0.9065 0.1419
C59_14 C 0.0863(3) 0.95775(18) 0.16982(13)
C60_14 C 0.1296(2) 0.93974(18) 0.18080(10)
C61_14 C 0.1240(3) 0.9360(2) 0.20020(11)
H45_14 H 0.0945 0.9450 0.2064
C62_14 C 0.1644(3) 0.9180(2) 0.21035(12)
H46_14 H 0.1613 0.9150 0.2234
C63_14 C 0.2080(3) 0.9050(3) 0.20139(12)
H47_14 H 0.2341 0.8929 0.2082
C64_14 C 0.2133(3) 0.9098(2) 0.18207(11)
C65_14 C 0.1742(2) 0.92724(19) 0.17140(10)
H48_14 H 0.1778 0.9304 0.1584
C66_14 C 0.2676(3) 0.9001(2) 0.15491(11)
H49_14 H 0.2633 0.9259 0.1509
H50_14 H 0.2436 0.8843 0.1479
C67_14 C 0.3234(3) 0.8872(2) 0.15194(10)
C68_14 C 0.3353(3) 0.8499(2) 0.15149(11)
H51_14 H 0.3084 0.8323 0.1512
C69_14 C 0.3642(3) 0.9121(2) 0.15151(11)
H52_14 H 0.3572 0.9377 0.1512
C80_14 C 0.0482(5) 0.9954(3) 0.00905(14)
H60_14 H 0.0801 0.9924 0.0152
O19_14 O 0.69901(19) 0.77456(13) 0.17803(8)
O20_14 O 0.66334(18) 0.79536(14) 0.15194(8)
O21_14 O 0.4912(2) 0.85337(18) 0.17472(7)
C92_14 C 0.6637(3) 0.79225(18) 0.16982(13)
C93_14 C 0.6204(2) 0.81026(18) 0.18080(10)
C94_14 C 0.6260(3) 0.8140(2) 0.20020(11)
H69_14 H 0.6555 0.8050 0.2064
C95_14 C 0.5856(3) 0.8320(2) 0.21035(12)
H70_14 H 0.5887 0.8350 0.2234
C96_14 C 0.5420(3) 0.8450(3) 0.20139(12)
H71_14 H 0.5159 0.8571 0.2082
C97_14 C 0.5367(3) 0.8402(2) 0.18207(11)
C98_14 C 0.5758(2) 0.82276(19) 0.17140(10)
H72_14 H 0.5722 0.8196 0.1584
C99_14 C 0.4824(3) 0.8499(2) 0.15491(11)
H73_14 H 0.4867 0.8241 0.1509
H74_14 H 0.5064 0.8657 0.1479
C100_14 C 0.4266(3) 0.8628(2) 0.15194(10)
C101_14 C 0.4147(3) 0.9001(2) 0.15149(11)
H75_14 H 0.4416 0.9177 0.1512
C102_14 C 0.3858(3) 0.8379(2) 0.15151(11)
H76_14 H 0.3928 0.8123 0.1512
Cu7_7 Cu 0.76172(5) 0.74406(3) 0.20306(2)
Cu10_4 Cu 0.73012(4) 0.76010(3) 0.14749(2)
O31_14 O 0.0473(4) 0.9699(2) 0.52029(12)
O22_14 O 0.02507(16) 0.98284(12) 0.87020(6)
O24_14 O 0.0083(2) 0.95590(16) 0.95405(7)
C103_14 C 0.0039(3) 0.98815(19) 0.88626(10)
C104_14 C 0.0511(3) 0.9321(2) 0.89881(10)
H77_14 H 0.0621 0.9266 0.8866
C105_14 C 0.0222(2) 0.96397(18) 0.90220(9)
C106_14 C 0.0070(3) 0.9729(2) 0.92074(9)
C107_14 C 0.0212(3) 0.9498(2) 0.93516(10)
C108_14 C 0.0490(3) 0.9177(2) 0.93214(10)
H79_14 H 0.0578 0.9023 0.9423
C109_14 C 0.0642(3) 0.9080(2) 0.91384(11)
H80_14 H 0.0826 0.8860 0.9116
C112_14 C 0.0465(5) 0.9921(3) 0.98936(14)
H83_14 H 0.0764 0.9870 0.9823
O15_14 O 0.9917(2) 0.04410(16) 0.04595(7)
C70_14 C 0.9961(3) 0.01185(19) 0.11374(10)
C71_14 C 0.9489(3) 0.0679(2) 0.10119(10)
H53_14 H 0.9379 0.0734 0.1134
C72_14 C 0.9778(2) 0.03603(18) 0.09780(9)
C73_14 C 0.9930(3) 0.0271(2) 0.07926(9)
C74_14 C 0.9788(3) 0.0502(2) 0.06484(10)
C75_14 C 0.9510(3) 0.0823(2) 0.06786(10)
H55_14 H 0.9422 0.0977 0.0577
C76_14 C 0.9358(3) 0.0920(2) 0.08616(11)
H56_14 H 0.9174 0.1140 0.0884
C79_14 C 0.9535(5) 0.0079(3) 0.01064(14)
H59_14 H 0.9236 0.0130 0.0177
O23_14 O 0.9682(2) 0.01116(13) 0.88877(7)
C113_14 C 0.9518(5) 0.0046(3) 0.99095(14)
H84_14 H 0.9199 0.0076 0.9848
Cu12_14 Cu 0.98012(4) 0.01010(3) 0.85251(2)
C33_14 C 0.9685(3) 0.9276(3) 0.19802(11)
C34_14 C 0.9430(3) 0.8938(2) 0.19784(10)
H26_14 H 0.9612 0.8718 0.1953
C35_14 C 0.8895(3) 0.8926(2) 0.20154(9)
C36_14 C 0.8641(3) 0.9264(2) 0.20521(10)
H27_14 H 0.8283 0.9268 0.2076
C37_14 C 0.8928(3) 0.9596(2) 0.20531(11)
H28_14 H 0.8760 0.9821 0.2081
C43_14 C 0.9824(3) 0.9117(2) 0.14462(11)
C44_14 C 0.9470(3) 0.8828(2) 0.14466(10)
H34_14 H 0.9577 0.8584 0.1418
C45_14 C 0.8943(3) 0.89008(18) 0.14903(9)
C46_14 C 0.8821(3) 0.92726(19) 0.15281(9)
H35_14 H 0.8476 0.9337 0.1555
C47_14 C 0.9191(3) 0.9544(2) 0.15275(11)
H36_14 H 0.9094 0.9787 0.1559
H57_14 H 0.9826 0.9883 0.0471
N6_14 N 0.8056(3) 0.78997(19) 0.20145(9)
C114_14 C 0.7815(3) 0.8224(3) 0.19802(11)
H85_14 H 0.7458 0.8221 0.1957
C115_14 C 0.8070(3) 0.8562(2) 0.19784(10)
H86_14 H 0.7888 0.8782 0.1953
C116_14 C 0.8605(3) 0.8574(2) 0.20154(9)
C117_14 C 0.8859(3) 0.8236(2) 0.20521(10)
H87_14 H 0.9217 0.8232 0.2076
C118_14 C 0.8572(3) 0.7904(2) 0.20531(11)
H88_14 H 0.8740 0.7679 0.2081
N8_14 N 0.7815(3) 0.80221(18) 0.14842(9)
C124_14 C 0.7676(3) 0.8383(2) 0.14462(11)
H93_14 H 0.7328 0.8435 0.1419
C125_14 C 0.8030(3) 0.8672(2) 0.14466(10)
H94_14 H 0.7923 0.8916 0.1418
C126_14 C 0.8557(3) 0.85992(18) 0.14903(9)
C127_14 C 0.8679(3) 0.82274(19) 0.15281(9)
H95_14 H 0.9024 0.8163 0.1555
C128_14 C 0.8309(3) 0.7956(2) 0.15275(11)
H96_14 H 0.8406 0.7713 0.1559
O32_14 O 0.9820(4) 0.9994(3) 0.53421(13)
N13_14 N 0.9419(4) 0.9615(3) 0.49827(19)
H78_14 H 0.9875 0.9945 0.9231
C110_14 C 0.9936(4) 0.9940(2) 0.95872(11)
H82_14 H 0.9585 0.9992 0.9543
C111_14 C 0.9961(4) 0.9972(3) 0.98034(12)
O9_14 O 0.0035(2) 0.64231(18) 0.17600(7)
C55_14 C 0.0175(3) 0.6491(3) 0.19561(11)
H42_14 H 0.0144 0.6756 0.1987
C56_14 C 0.0730(3) 0.6364(3) 0.19735(11)
C57_14 C 0.1127(4) 0.6621(3) 0.19767(12)
H43_14 H 0.1049 0.6876 0.1980
C58_14 C 0.0852(3) 0.5994(3) 0.19752(12)
H44_14 H 0.0587 0.5815 0.1975
O16_8 O 0.45264(17) 0.52620(12) 0.17787(8)
O17_8 O 0.41023(17) 0.54658(14) 0.20286(8)
O18_14 O 0.2465(2) 0.60769(18) 0.17600(7)
C81_14 C 0.4152(3) 0.54376(19) 0.18563(12)
C82_14 C 0.3746(3) 0.56152(18) 0.17302(10)
C83_14 C 0.3808(3) 0.56292(19) 0.15350(10)
H61_14 H 0.4098 0.5517 0.1480
C84_14 C 0.3448(3) 0.5806(2) 0.14231(11)
H62_14 H 0.3500 0.5821 0.1293
C85_14 C 0.3012(3) 0.5960(2) 0.15031(11)
H63_14 H 0.2769 0.6085 0.1428
C86_14 C 0.2930(3) 0.5929(2) 0.16995(11)
C87_14 C 0.3299(3) 0.5769(2) 0.18098(11)
H64_14 H 0.3253 0.5762 0.1940
C88_14 C 0.2325(3) 0.6009(3) 0.19561(11)
H65_14 H 0.2549 0.6152 0.2040
H66_14 H 0.2356 0.5744 0.1987
C89_14 C 0.1770(3) 0.6136(3) 0.19735(11)
C90_14 C 0.1373(4) 0.5879(3) 0.19767(12)
H67_14 H 0.1451 0.5624 0.1980
C91_14 C 0.1648(3) 0.6506(3) 0.19752(12)
H68_14 H 0.1913 0.6685 0.1975
Cu2_12 Cu 0.7500 0.7500 0.5000
O1_14 O 0.72238(19) 0.76852(13) 0.22294(7)
O2_14 O 0.7830(3) 0.7481(2) 0.24210(9)
O3_14 O 0.7164(2) 0.7893(2) 0.30568(8)
O4_14 O 0.7529(3) 0.7126(2) 0.39595(10)
O5_8 O 0.7973(4) 0.7199(2) 0.47971(12)
O6_8 O 0.7320(4) 0.7494(3) 0.46579(13)
O7_14 O 0.79736(17) 0.72380(12) 0.17787(8)
O8_14 O 0.83977(17) 0.70342(14) 0.20286(8)
O13_8 O 0.77507(16) 0.73284(12) 0.12980(6)
O14_8 O 0.7182(2) 0.76116(13) 0.11123(7)
O15_15 O 0.7583(2) 0.70590(16) 0.04595(7)
N2_14 N 0.7140(3) 0.7005(2) 0.20441(10)
N4_14 N 0.6885(2) 0.71282(18) 0.15064(9)
N5_8 N 0.6919(4) 0.7115(3) 0.50173(19)
C1_14 C 0.6378(5) 0.7131(3) 0.5031(3)
H1_14 H 0.6210 0.7362 0.5038
C2_14 C 0.6088(4) 0.6801(4) 0.5034(3)
H2_14 H 0.5726 0.6811 0.5044
C3_14 C 0.6339(5) 0.6455(3) 0.5024(3)
C4_14 C 0.6880(5) 0.6439(3) 0.5010(3)
H3_14 H 0.7048 0.6208 0.5003
C5_14 C 0.7171(4) 0.6769(3) 0.5007(2)
H4_14 H 0.7533 0.6759 0.4998
C6_14 C 0.7436(3) 0.7665(2) 0.23927(12)
C7_14 C 0.7177(3) 0.7892(3) 0.25480(12)
C8_14 C 0.6826(4) 0.8172(3) 0.25031(13)
H5_14 H 0.6746 0.8222 0.2377
C9_14 C 0.6596(4) 0.8378(3) 0.26437(14)
H6_14 H 0.6381 0.8579 0.2613
C10_14 C 0.6684(4) 0.8286(3) 0.28317(14)
H7_14 H 0.6512 0.8414 0.2928
C11_14 C 0.7027(4) 0.8004(3) 0.28726(12)
C12_14 C 0.7293(4) 0.7806(3) 0.27342(12)
H8_14 H 0.7539 0.7624 0.2765
C13_14 C 0.6841(4) 0.8033(3) 0.32024(14)
H9_14 H 0.6479 0.7970 0.3177
H10_14 H 0.6871 0.8305 0.3209
C14_14 C 0.7016(4) 0.7858(3) 0.33867(14)
C15_14 C 0.6689(5) 0.7609(3) 0.34728(17)
H11_14 H 0.6386 0.7524 0.3414
C16_14 C 0.6821(5) 0.7496(3) 0.36431(18)
H12_14 H 0.6592 0.7334 0.3705
C17_14 C 0.7259(5) 0.7593(3) 0.37364(16)
C18_14 C 0.7594(5) 0.7852(4) 0.36506(17)
H13_14 H 0.7895 0.7932 0.3712
C19_14 C 0.7469(5) 0.7989(3) 0.34718(16)
H14_14 H 0.7683 0.8163 0.3411
C20_14 C 0.7349(5) 0.7502(4) 0.39486(17)
H15_14 H 0.7606 0.7672 0.4002
H16_14 H 0.7025 0.7530 0.4019
C21_14 C 0.7710(4) 0.7012(3) 0.41430(17)
C22_14 C 0.7585(3) 0.7200(3) 0.43064(16)
H17_14 H 0.7365 0.7407 0.4305
C23_14 C 0.7801(4) 0.7066(3) 0.44738(14)
C24_14 C 0.8136(4) 0.6770(4) 0.44816(18)
H18_14 H 0.8287 0.6695 0.4595
C25_14 C 0.8247(5) 0.6580(3) 0.4309(2)
H19_14 H 0.8462 0.6370 0.4309
C26_14 C 0.8032(4) 0.6712(3) 0.41433(17)
H20_14 H 0.8109 0.6592 0.4030
C27_14 C 0.7686(6) 0.7284(4) 0.4649(2)
C28_14 C 0.6643(4) 0.7054(2) 0.20169(11)
H21_14 H 0.6527 0.7297 0.1993
C29_14 C 0.6277(3) 0.6773(2) 0.20207(11)
H22_14 H 0.5925 0.6828 0.2002
C30_14 C 0.6434(3) 0.6406(2) 0.20529(10)
C31_14 C 0.6964(3) 0.6353(2) 0.20871(11)
H23_14 H 0.7092 0.6115 0.2115
C32_14 C 0.7303(3) 0.6658(3) 0.20787(13)
H24_14 H 0.7657 0.6617 0.2098
C38_14 C 0.6374(3) 0.7102(2) 0.14833(11)
H29_14 H 0.6182 0.7320 0.1462
C39_14 C 0.6114(3) 0.67623(19) 0.14899(10)
H30_14 H 0.5753 0.6755 0.1474
C40_14 C 0.6388(3) 0.64350(18) 0.15199(8)
C41_14 C 0.6915(3) 0.6464(2) 0.15486(10)
H31_14 H 0.7111 0.6249 0.1573
C42_14 C 0.7156(3) 0.6807(2) 0.15421(11)
H32_14 H 0.7514 0.6821 0.1563
C48_14 C 0.8348(3) 0.70624(19) 0.18563(12)
C49_14 C 0.8754(3) 0.68848(18) 0.17302(10)
C50_14 C 0.8692(3) 0.68708(19) 0.15350(10)
H37_14 H 0.8402 0.6983 0.1480
C51_14 C 0.9052(3) 0.6694(2) 0.14231(11)
H38_14 H 0.9000 0.6679 0.1293
C52_14 C 0.9488(3) 0.6540(2) 0.15031(11)
H39_14 H 0.9731 0.6415 0.1428
C53_14 C 0.9570(3) 0.6571(2) 0.16995(11)
C54_14 C 0.9201(3) 0.6731(2) 0.18098(11)
H40_14 H 0.9247 0.6738 0.1940
H41_14 H 0.9951 0.6348 0.2040
C70_15 C 0.7539(3) 0.73815(19) 0.11374(10)
C71_15 C 0.8011(3) 0.6821(2) 0.10119(10)
H53_15 H 0.8121 0.6766 0.1134
C72_15 C 0.7722(2) 0.71397(18) 0.09780(9)
C73_15 C 0.7570(3) 0.7229(2) 0.07926(9)
H54_15 H 0.7375 0.7445 0.0769
C74_15 C 0.7712(3) 0.6998(2) 0.06484(10)
C75_15 C 0.7990(3) 0.6677(2) 0.06786(10)
H55_15 H 0.8078 0.6523 0.0577
C76_15 C 0.8142(3) 0.6580(2) 0.08616(11)
H56_15 H 0.8326 0.6360 0.0884
C77_15 C 0.7436(4) 0.7440(2) 0.04128(11)
H57_15 H 0.7674 0.7617 0.0471
H58_15 H 0.7085 0.7492 0.0457
C78_15 C 0.7461(4) 0.7472(3) 0.01966(12)
C79_15 C 0.7965(5) 0.7421(3) 0.01064(14)
H59_15 H 0.8264 0.7370 0.0177
C80_15 C 0.7018(5) 0.7546(3) 0.00905(14)
H60_15 H 0.6699 0.7576 0.0152
N7_14 N 0.5360(3) 0.5495(2) 0.20441(10)
C119_14 C 0.5857(4) 0.5446(2) 0.20169(11)
H89_14 H 0.5973 0.5203 0.1993
C120_14 C 0.6223(3) 0.5727(2) 0.20207(11)
H90_14 H 0.6575 0.5672 0.2002
C121_14 C 0.6066(3) 0.6094(2) 0.20529(10)
C122_14 C 0.5536(3) 0.6147(2) 0.20871(11)
H91_14 H 0.5408 0.6385 0.2115
C123_14 C 0.5197(3) 0.5842(3) 0.20787(13)
H92_14 H 0.4843 0.5883 0.2098
N9_14 N 0.5615(2) 0.53718(18) 0.15064(9)
C129_14 C 0.6126(3) 0.5398(2) 0.14833(11)
H97_14 H 0.6318 0.5180 0.1462
C130_14 C 0.6386(3) 0.57377(19) 0.14899(10)
H98_14 H 0.6747 0.5745 0.1474
C131_14 C 0.6112(3) 0.60650(18) 0.15199(8)
C132_14 C 0.5585(3) 0.6036(2) 0.15486(10)
H99_14 H 0.5389 0.6251 0.1573
C133_14 C 0.5344(3) 0.5693(2) 0.15421(11)
H100_14 H 0.4986 0.5679 0.1563
N10_8 N 0.5581(4) 0.5385(3) 0.50173(19)
C134_14 C 0.6122(5) 0.5369(3) 0.5031(3)
H101_14 H 0.6290 0.5138 0.5038
C135_14 C 0.6412(4) 0.5699(4) 0.5034(3)
H102_14 H 0.6774 0.5689 0.5044
C136_14 C 0.6161(5) 0.6045(3) 0.5024(3)
C137_14 C 0.5620(5) 0.6061(3) 0.5010(3)
H103_14 H 0.5452 0.6292 0.5003
C138_14 C 0.5329(4) 0.5731(3) 0.5007(2)
H104_14 H 0.4967 0.5741 0.4998
O25_14 O 0.52762(19) 0.48148(13) 0.22294(7)
O26_14 O 0.4670(3) 0.5019(2) 0.24210(9)
O27_14 O 0.5336(2) 0.4607(2) 0.30568(8)
O28_14 O 0.4971(3) 0.5374(2) 0.39595(10)
O29_8 O 0.4527(4) 0.5301(2) 0.47971(12)
O30_8 O 0.5180(4) 0.5006(3) 0.46579(13)
C139_14 C 0.5064(3) 0.4835(2) 0.23927(12)
C140_14 C 0.5323(3) 0.4608(3) 0.25480(12)
C141_14 C 0.5674(4) 0.4328(3) 0.25031(13)
H105_14 H 0.5754 0.4278 0.2377
C142_14 C 0.5904(4) 0.4122(3) 0.26437(14)
H106_14 H 0.6119 0.3921 0.2613
C143_14 C 0.5816(4) 0.4214(3) 0.28317(14)
H107_14 H 0.5988 0.4086 0.2928
C144_14 C 0.5473(4) 0.4496(3) 0.28726(12)
C145_14 C 0.5207(4) 0.4694(3) 0.27342(12)
H108_14 H 0.4961 0.4876 0.2765
C146_14 C 0.5659(4) 0.4467(3) 0.32024(14)
H109_14 H 0.6021 0.4530 0.3177
H110_14 H 0.5629 0.4195 0.3209
C147_14 C 0.5484(4) 0.4642(3) 0.33867(14)
C148_14 C 0.5811(5) 0.4891(3) 0.34728(17)
H111_14 H 0.6114 0.4976 0.3414
C149_14 C 0.5679(5) 0.5004(3) 0.36431(18)
H112_14 H 0.5908 0.5166 0.3705
C150_14 C 0.5241(5) 0.4907(3) 0.37364(16)
C151_14 C 0.4906(5) 0.4648(4) 0.36506(17)
H113_14 H 0.4605 0.4568 0.3712
C152_14 C 0.5031(5) 0.4511(3) 0.34718(16)
H114_14 H 0.4817 0.4337 0.3411
C153_14 C 0.5151(5) 0.4998(4) 0.39486(17)
H115_14 H 0.4894 0.4828 0.4002
H116_14 H 0.5475 0.4970 0.4019
C154_14 C 0.4790(4) 0.5488(3) 0.41430(17)
C155_14 C 0.4915(3) 0.5300(3) 0.43064(16)
H117_14 H 0.5135 0.5093 0.4305
C156_14 C 0.4699(4) 0.5434(3) 0.44738(14)
C157_14 C 0.4364(4) 0.5730(4) 0.44816(18)
H118_14 H 0.4213 0.5805 0.4595
C158_14 C 0.4253(5) 0.5920(3) 0.4309(2)
H119_14 H 0.4038 0.6130 0.4309
C159_14 C 0.4468(4) 0.5788(3) 0.41433(17)
H120_14 H 0.4391 0.5908 0.4030
C160_14 C 0.4814(6) 0.5216(4) 0.4649(2)
Cu9_19 Cu 0.5000 0.5000 0.5000
O31_15 O 0.7027(4) 0.7801(2) 0.52029(12)
O32_15 O 0.7680(4) 0.7506(3) 0.53421(13)
O37_8 O 0.47493(16) 0.51716(12) 0.12980(6)
O38_8 O 0.5318(2) 0.48884(13) 0.11123(7)
N13_15 N 0.8081(4) 0.7885(3) 0.49827(19)
O22_15 O 0.72493(16) 0.76716(12) 0.87020(6)
O23_15 O 0.7818(2) 0.73884(13) 0.88877(7)
O24_15 O 0.7417(2) 0.79410(16) 0.95405(7)
C103_15 C 0.7461(3) 0.76185(19) 0.88626(10)
C104_15 C 0.6989(3) 0.8179(2) 0.89881(10)
H77_15 H 0.6879 0.8234 0.8866
C105_15 C 0.7278(2) 0.78603(18) 0.90220(9)
C106_15 C 0.7430(3) 0.7771(2) 0.92074(9)
H78_15 H 0.7625 0.7555 0.9231
C107_15 C 0.7288(3) 0.8002(2) 0.93516(10)
C108_15 C 0.7010(3) 0.8323(2) 0.93214(10)
H79_15 H 0.6922 0.8477 0.9423
C109_15 C 0.6858(3) 0.8420(2) 0.91384(11)
H80_15 H 0.6674 0.8640 0.9116
C110_15 C 0.7564(4) 0.7560(2) 0.95872(11)
H81_15 H 0.7326 0.7383 0.9529
H82_15 H 0.7915 0.7508 0.9543
C111_15 C 0.7539(4) 0.7528(3) 0.98034(12)
C112_15 C 0.7035(5) 0.7579(3) 0.98936(14)
H83_15 H 0.6736 0.7630 0.9823
C113_15 C 0.7982(5) 0.7454(3) 0.99095(14)
H84_15 H 0.8301 0.7424 0.9848
Cu12_15 Cu 0.76988(4) 0.73990(3) 0.85251(2)
O15_16 O 0.4917(2) 0.54410(16) 0.04595(7)
C70_16 C 0.4961(3) 0.51185(19) 0.11374(10)
C71_16 C 0.4489(3) 0.5679(2) 0.10119(10)
H53_16 H 0.4379 0.5734 0.1134
C72_16 C 0.4778(2) 0.53603(18) 0.09780(9)
C73_16 C 0.4930(3) 0.5271(2) 0.07926(9)
H54_16 H 0.5125 0.5055 0.0769
C74_16 C 0.4788(3) 0.5502(2) 0.06484(10)
C75_16 C 0.4510(3) 0.5823(2) 0.06786(10)
H55_16 H 0.4422 0.5977 0.0577
C76_16 C 0.4358(3) 0.5920(2) 0.08616(11)
H56_16 H 0.4174 0.6140 0.0884
C77_16 C 0.5064(4) 0.5060(2) 0.04128(11)
H57_16 H 0.4826 0.4883 0.0471
H58_16 H 0.5415 0.5008 0.0457
C78_16 C 0.5039(4) 0.5028(3) 0.01966(12)
C79_16 C 0.4535(5) 0.5079(3) 0.01064(14)
H59_16 H 0.4236 0.5130 0.0177
C80_16 C 0.5482(5) 0.4954(3) 0.00905(14)
H60_16 H 0.5801 0.4924 0.0152
O31_16 O 0.5473(4) 0.4699(2) 0.52029(12)
O32_16 O 0.4820(4) 0.4994(3) 0.53421(13)
N13_16 N 0.4419(4) 0.4615(3) 0.49827(19)
O22_16 O 0.52507(16) 0.48284(12) 0.87020(6)
O23_16 O 0.4682(2) 0.51116(13) 0.88877(7)
O24_16 O 0.5083(2) 0.45590(16) 0.95405(7)
C103_16 C 0.5039(3) 0.48815(19) 0.88626(10)
C104_16 C 0.5511(3) 0.4321(2) 0.89881(10)
H77_16 H 0.5621 0.4266 0.8866
C105_16 C 0.5222(2) 0.46397(18) 0.90220(9)
C106_16 C 0.5070(3) 0.4729(2) 0.92074(9)
H78_16 H 0.4875 0.4945 0.9231
C107_16 C 0.5212(3) 0.4498(2) 0.93516(10)
C108_16 C 0.5490(3) 0.4177(2) 0.93214(10)
H79_16 H 0.5578 0.4023 0.9423
C109_16 C 0.5642(3) 0.4080(2) 0.91384(11)
H80_16 H 0.5826 0.3860 0.9116
C110_16 C 0.4936(4) 0.4940(2) 0.95872(11)
H81_16 H 0.5174 0.5117 0.9529
H82_16 H 0.4585 0.4992 0.9543
C111_16 C 0.4961(4) 0.4972(3) 0.98034(12)
C112_16 C 0.5465(5) 0.4921(3) 0.98936(14)
H83_16 H 0.5764 0.4870 0.9823
C113_16 C 0.4518(5) 0.5046(3) 0.99095(14)
H84_16 H 0.4199 0.5076 0.9848
Cu12_16 Cu 0.48012(4) 0.51010(3) 0.85251(2)
H108_15 H 0.0039 0.0124 0.7235
C151_15 C 0.0094(5) 0.0352(4) 0.63494(17)
H113_15 H 0.0395 0.0432 0.6288
H114_15 H 0.0183 0.0663 0.6589
H115_15 H 0.0106 0.0172 0.5998
N11_8 N 0.0556(3) 0.03997(19) 0.79855(9)
N12_8 N 0.0315(3) 0.05221(18) 0.85158(9)
O12_15 O 0.0088(2) 0.64663(18) 0.82528(7)
C66_15 C 0.0176(3) 0.6501(2) 0.84509(11)
H49_15 H 0.0133 0.6759 0.8491
C67_15 C 0.0734(3) 0.6372(2) 0.84806(10)
C68_15 C 0.0853(3) 0.5999(2) 0.84851(11)
H51_15 H 0.0584 0.5823 0.8488
C69_15 C 0.1142(3) 0.6621(2) 0.84849(11)
H52_15 H 0.1072 0.6877 0.8488
O19_15 O 0.44901(19) 0.52456(13) 0.82197(8)
O20_15 O 0.41334(18) 0.54536(14) 0.84806(8)
O21_15 O 0.2412(2) 0.60337(18) 0.82528(7)
C92_15 C 0.4137(3) 0.54225(18) 0.83018(13)
C93_15 C 0.3704(2) 0.56026(18) 0.81920(10)
C94_15 C 0.3760(3) 0.5640(2) 0.79980(11)
H69_15 H 0.4055 0.5550 0.7936
C95_15 C 0.3356(3) 0.5820(2) 0.78965(12)
H70_15 H 0.3387 0.5850 0.7766
C96_15 C 0.2920(3) 0.5950(3) 0.79861(12)
H71_15 H 0.2659 0.6071 0.7918
C97_15 C 0.2867(3) 0.5902(2) 0.81793(11)
C98_15 C 0.3258(2) 0.57276(19) 0.82860(10)
H72_15 H 0.3222 0.5696 0.8416
C99_15 C 0.2324(3) 0.5999(2) 0.84509(11)
H73_15 H 0.2367 0.5741 0.8491
H74_15 H 0.2564 0.6157 0.8521
C100_15 C 0.1766(3) 0.6128(2) 0.84806(10)
C101_15 C 0.1647(3) 0.6501(2) 0.84851(11)
H75_15 H 0.1916 0.6677 0.8488
C102_15 C 0.1358(3) 0.5879(2) 0.84849(11)
H76_15 H 0.1428 0.5623 0.8488
H92_15 H 0.0157 0.9117 0.7902
H100_15 H 0.0014 0.9321 0.8437
H104_15 H 0.0033 0.9259 0.5002
Cu4_4 Cu 0.01172(5) 0.99406(3) 0.79694(2)
O26_15 O 0.0330(3) 0.9981(2) 0.75790(9)
O28_15 O 0.0029(3) 0.9626(2) 0.60405(10)
C154_15 C 0.0210(4) 0.9512(3) 0.58570(17)
C155_15 C 0.0085(3) 0.9700(3) 0.56936(16)
C156_15 C 0.0301(4) 0.9566(3) 0.55262(14)
C157_15 C 0.0636(4) 0.9270(4) 0.55184(18)
H118_15 H 0.0787 0.9195 0.5405
C158_15 C 0.0747(5) 0.9080(3) 0.5691(2)
H119_15 H 0.0962 0.8870 0.5691
C159_15 C 0.0532(4) 0.9212(3) 0.58567(17)
H120_15 H 0.0609 0.9092 0.5970
C160_15 C 0.0186(6) 0.9784(4) 0.5351(2)
Cu7_8 Cu 0.51172(5) 0.49406(3) 0.79694(2)
O33_7 O 0.04736(17) 0.97380(12) 0.82213(8)
O34_7 O 0.08977(17) 0.95342(14) 0.79714(8)
O25_15 O 0.97238(19) 0.01852(13) 0.77706(7)
O27_15 O 0.9664(2) 0.0393(2) 0.69432(8)
C139_15 C 0.9936(3) 0.0165(2) 0.76073(12)
C140_15 C 0.9677(3) 0.0392(3) 0.74520(12)
C141_15 C 0.9326(4) 0.0672(3) 0.74969(13)
H105_15 H 0.9246 0.0722 0.7623
C142_15 C 0.9096(4) 0.0878(3) 0.73563(14)
H106_15 H 0.8881 0.1079 0.7387
C143_15 C 0.9184(4) 0.0786(3) 0.71683(14)
H107_15 H 0.9012 0.0914 0.7072
C144_15 C 0.9527(4) 0.0504(3) 0.71274(12)
C145_15 C 0.9793(4) 0.0306(3) 0.72658(12)
C146_15 C 0.9341(4) 0.0533(3) 0.67976(14)
H109_15 H 0.8979 0.0470 0.6823
H110_15 H 0.9371 0.0805 0.6791
C147_15 C 0.9516(4) 0.0358(3) 0.66133(14)
C148_15 C 0.9189(5) 0.0109(3) 0.65272(17)
H111_15 H 0.8886 0.0024 0.6586
C150_15 C 0.9759(5) 0.0093(3) 0.62636(16)
C152_15 C 0.9969(5) 0.0489(3) 0.65282(16)
C153_15 C 0.9849(5) 0.0002(4) 0.60514(17)
H116_15 H 0.9525 0.0030 0.5981
O35_8 O 0.94901(19) 0.02456(13) 0.82197(8)
O36_8 O 0.91334(18) 0.04536(14) 0.84806(8)
Cu1_8 Cu 0.73828(5) 0.75594(3) 0.79694(2)
O1_15 O 0.77762(19) 0.73148(13) 0.77706(7)
O2_15 O 0.7170(3) 0.7519(2) 0.75790(9)
O3_15 O 0.7836(2) 0.7107(2) 0.69432(8)
O4_15 O 0.7471(3) 0.7874(2) 0.60405(10)
O7_15 O 0.70264(17) 0.77620(12) 0.82213(8)
O8_15 O 0.66023(17) 0.79658(14) 0.79714(8)
O9_15 O 0.4965(2) 0.85769(18) 0.82400(7)
O10_8 O 0.80099(19) 0.72544(13) 0.82197(8)
O11_8 O 0.83666(18) 0.70464(14) 0.84806(8)
N1_8 N 0.6944(3) 0.71003(19) 0.79855(9)
N2_15 N 0.7860(3) 0.7995(2) 0.79559(10)
N3_8 N 0.7185(3) 0.69779(18) 0.85158(9)
N4_15 N 0.8115(2) 0.78718(18) 0.84936(9)
C1_15 C 0.8622(5) 0.7869(3) 0.4969(3)
H1_15 H 0.8790 0.7638 0.4962
C2_15 C 0.8912(4) 0.8199(4) 0.4966(3)
H2_15 H 0.9274 0.8189 0.4956
C3_15 C 0.8661(5) 0.8545(3) 0.4976(3)
C4_15 C 0.8120(5) 0.8561(3) 0.4990(3)
H3_15 H 0.7952 0.8792 0.4997
C5_15 C 0.7829(4) 0.8231(3) 0.4993(2)
H4_15 H 0.7467 0.8241 0.5002
C6_15 C 0.7564(3) 0.7335(2) 0.76073(12)
C7_15 C 0.7823(3) 0.7108(3) 0.74520(12)
C8_15 C 0.8174(4) 0.6828(3) 0.74969(13)
H5_15 H 0.8254 0.6778 0.7623
C9_15 C 0.8404(4) 0.6622(3) 0.73563(14)
H6_15 H 0.8619 0.6421 0.7387
C10_15 C 0.8316(4) 0.6714(3) 0.71683(14)
H7_15 H 0.8488 0.6586 0.7072
C11_15 C 0.7973(4) 0.6996(3) 0.71274(12)
C12_15 C 0.7707(4) 0.7194(3) 0.72658(12)
H8_15 H 0.7461 0.7376 0.7235
C13_15 C 0.8159(4) 0.6967(3) 0.67976(14)
H9_15 H 0.8521 0.7030 0.6823
H10_15 H 0.8129 0.6695 0.6791
C14_15 C 0.7984(4) 0.7142(3) 0.66133(14)
C15_15 C 0.8311(5) 0.7391(3) 0.65272(17)
H11_15 H 0.8614 0.7476 0.6586
C16_15 C 0.8179(5) 0.7504(3) 0.63569(18)
H12_15 H 0.8408 0.7666 0.6295
C17_15 C 0.7741(5) 0.7407(3) 0.62636(16)
C18_15 C 0.7406(5) 0.7148(4) 0.63494(17)
H13_15 H 0.7105 0.7068 0.6288
C19_15 C 0.7531(5) 0.7011(3) 0.65282(16)
H14_15 H 0.7317 0.6837 0.6589
C20_15 C 0.7651(5) 0.7498(4) 0.60514(17)
H15_15 H 0.7394 0.7328 0.5998
H16_15 H 0.7975 0.7470 0.5981
C21_15 C 0.7290(4) 0.7988(3) 0.58570(17)
C22_15 C 0.7415(3) 0.7800(3) 0.56936(16)
H17_15 H 0.7635 0.7593 0.5695
C23_15 C 0.7199(4) 0.7934(3) 0.55262(14)
C24_15 C 0.6864(4) 0.8230(4) 0.55184(18)
H18_15 H 0.6713 0.8305 0.5405
C25_15 C 0.6753(5) 0.8420(3) 0.5691(2)
H19_15 H 0.6538 0.8630 0.5691
C26_15 C 0.6968(4) 0.8288(3) 0.58567(17)
H20_15 H 0.6891 0.8408 0.5970
C27_15 C 0.7314(6) 0.7716(4) 0.5351(2)
C28_15 C 0.8357(4) 0.7946(2) 0.79831(11)
H21_15 H 0.8473 0.7703 0.8007
C29_15 C 0.8723(3) 0.8227(2) 0.79793(11)
H22_15 H 0.9075 0.8172 0.7998
C30_15 C 0.8566(3) 0.8594(2) 0.79471(10)
C31_15 C 0.8036(3) 0.8647(2) 0.79129(11)
H23_15 H 0.7908 0.8885 0.7885
C32_15 C 0.7697(3) 0.8342(3) 0.79213(13)
H24_15 H 0.7343 0.8383 0.7902
C33_15 C 0.7185(3) 0.6776(3) 0.80198(11)
H25_15 H 0.7542 0.6779 0.8043
C34_15 C 0.6930(3) 0.6438(2) 0.80216(10)
H26_15 H 0.7112 0.6218 0.8047
C35_15 C 0.6395(3) 0.6426(2) 0.79846(9)
C36_15 C 0.6141(3) 0.6764(2) 0.79479(10)
H27_15 H 0.5783 0.6768 0.7924
C37_15 C 0.6428(3) 0.7096(2) 0.79469(11)
H28_15 H 0.6260 0.7321 0.7919
C38_15 C 0.8626(3) 0.7898(2) 0.85167(11)
H29_15 H 0.8818 0.7680 0.8538
C39_15 C 0.8886(3) 0.82377(19) 0.85101(10)
H30_15 H 0.9247 0.8245 0.8526
C40_15 C 0.8612(3) 0.85650(18) 0.84801(8)
C41_15 C 0.8085(3) 0.8536(2) 0.84514(10)
H31_15 H 0.7889 0.8751 0.8427
C42_15 C 0.7844(3) 0.8193(2) 0.84579(11)
H32_15 H 0.7486 0.8179 0.8437
C43_15 C 0.7324(3) 0.6617(2) 0.85538(11)
H33_15 H 0.7672 0.6565 0.8581
C44_15 C 0.6970(3) 0.6328(2) 0.85534(10)
H34_15 H 0.7077 0.6084 0.8582
C45_15 C 0.6443(3) 0.64008(18) 0.85097(9)
C46_15 C 0.6321(3) 0.67726(19) 0.84719(9)
H35_15 H 0.5976 0.6837 0.8445
C47_15 C 0.6691(3) 0.7044(2) 0.84725(11)
H36_15 H 0.6594 0.7287 0.8441
C48_15 C 0.6652(3) 0.79376(19) 0.81437(12)
C49_15 C 0.6246(3) 0.81152(18) 0.82698(10)
C50_15 C 0.6308(3) 0.81292(19) 0.84650(10)
H37_15 H 0.6598 0.8017 0.8520
C51_15 C 0.5948(3) 0.8306(2) 0.85769(11)
H38_15 H 0.6000 0.8321 0.8707
C52_15 C 0.5512(3) 0.8460(2) 0.84969(11)
H39_15 H 0.5269 0.8585 0.8572
C53_15 C 0.5430(3) 0.8429(2) 0.83005(11)
C54_15 C 0.5799(3) 0.8269(2) 0.81902(11)
H40_15 H 0.5753 0.8262 0.8060
C55_15 C 0.4825(3) 0.8509(3) 0.80439(11)
H41_15 H 0.5049 0.8652 0.7960
H42_15 H 0.4856 0.8244 0.8013
C56_15 C 0.4270(3) 0.8636(3) 0.80265(11)
C57_15 C 0.3873(4) 0.8379(3) 0.80233(12)
H43_15 H 0.3951 0.8124 0.8020
C58_15 C 0.4148(3) 0.9006(3) 0.80248(12)
H44_15 H 0.4413 0.9185 0.8025
C59_15 C 0.8363(3) 0.70775(18) 0.83018(13)
C60_15 C 0.8796(2) 0.68974(18) 0.81920(10)
C61_15 C 0.8740(3) 0.6860(2) 0.79980(11)
H45_15 H 0.8445 0.6950 0.7936
C62_15 C 0.9144(3) 0.6680(2) 0.78965(12)
H46_15 H 0.9113 0.6650 0.7766
C63_15 C 0.9580(3) 0.6550(3) 0.79861(12)
H47_15 H 0.9841 0.6429 0.7918
C64_15 C 0.9633(3) 0.6598(2) 0.81793(11)
C65_15 C 0.9242(2) 0.67724(19) 0.82860(10)
H48_15 H 0.9278 0.6804 0.8416
H50_15 H 0.9936 0.6343 0.8521
O18_15 O 0.2535(2) 0.89231(18) 0.82400(7)
C81_15 C 0.0848(3) 0.95624(19) 0.81437(12)
C82_15 C 0.1254(3) 0.93848(18) 0.82698(10)
C83_15 C 0.1192(3) 0.93708(19) 0.84650(10)
H61_15 H 0.0902 0.9483 0.8520
C84_15 C 0.1552(3) 0.9194(2) 0.85769(11)
H62_15 H 0.1500 0.9179 0.8707
C85_15 C 0.1988(3) 0.9040(2) 0.84969(11)
H63_15 H 0.2231 0.8915 0.8572
C86_15 C 0.2070(3) 0.9071(2) 0.83005(11)
C87_15 C 0.1701(3) 0.9231(2) 0.81902(11)
H64_15 H 0.1747 0.9238 0.8060
C88_15 C 0.2675(3) 0.8991(3) 0.80439(11)
H65_15 H 0.2451 0.8848 0.7960
H66_15 H 0.2644 0.9256 0.8013
C89_15 C 0.3230(3) 0.8864(3) 0.80265(11)
C90_15 C 0.3627(4) 0.9121(3) 0.80233(12)
H67_15 H 0.3549 0.9376 0.8020
C91_15 C 0.3352(3) 0.8494(3) 0.80248(12)
H68_15 H 0.3087 0.8315 0.8025
N6_15 N 0.5556(3) 0.53997(19) 0.79855(9)
C114_15 C 0.5315(3) 0.5724(3) 0.80198(11)
H85_15 H 0.4958 0.5721 0.8043
C115_15 C 0.5570(3) 0.6062(2) 0.80216(10)
H86_15 H 0.5388 0.6282 0.8047
C116_15 C 0.6105(3) 0.6074(2) 0.79846(9)
C117_15 C 0.6359(3) 0.5736(2) 0.79479(10)
H87_15 H 0.6717 0.5732 0.7924
C118_15 C 0.6072(3) 0.5404(2) 0.79469(11)
H88_15 H 0.6240 0.5179 0.7919
N7_15 N 0.9640(3) 0.9505(2) 0.79559(10)
C119_15 C 0.9143(4) 0.9554(2) 0.79831(11)
H89_15 H 0.9027 0.9797 0.8007
C120_15 C 0.8777(3) 0.9273(2) 0.79793(11)
H90_15 H 0.8425 0.9328 0.7998
C121_15 C 0.8934(3) 0.8906(2) 0.79471(10)
C122_15 C 0.9464(3) 0.8853(2) 0.79129(11)
H91_15 H 0.9592 0.8615 0.7885
C123_15 C 0.9803(3) 0.9158(3) 0.79213(13)
N8_15 N 0.5315(3) 0.55221(18) 0.85158(9)
C124_15 C 0.5176(3) 0.5883(2) 0.85538(11)
H93_15 H 0.4828 0.5935 0.8581
C125_15 C 0.5530(3) 0.6172(2) 0.85534(10)
H94_15 H 0.5423 0.6416 0.8582
C126_15 C 0.6057(3) 0.60992(18) 0.85097(9)
C127_15 C 0.6179(3) 0.57274(19) 0.84719(9)
H95_15 H 0.6524 0.5663 0.8445
C128_15 C 0.5809(3) 0.5456(2) 0.84725(11)
H96_15 H 0.5906 0.5213 0.8441
N9_15 N 0.9385(2) 0.96282(18) 0.84936(9)
C129_15 C 0.8874(3) 0.9602(2) 0.85167(11)
H97_15 H 0.8682 0.9820 0.8538
C130_15 C 0.8614(3) 0.92623(19) 0.85101(10)
H98_15 H 0.8253 0.9255 0.8526
C131_15 C 0.8888(3) 0.89350(18) 0.84801(8)
C132_15 C 0.9415(3) 0.8964(2) 0.84514(10)
H99_15 H 0.9611 0.8749 0.8427
C133_15 C 0.9656(3) 0.9307(2) 0.84579(11)
C134_15 C 0.8878(5) 0.9631(3) 0.4969(3)
H101_15 H 0.8710 0.9862 0.4962
C135_15 C 0.8588(4) 0.9301(4) 0.4966(3)
H102_15 H 0.8226 0.9311 0.4956
C136_15 C 0.8839(5) 0.8955(3) 0.4976(3)
C137_15 C 0.9380(5) 0.8939(3) 0.4990(3)
H103_15 H 0.9548 0.8708 0.4997
C138_15 C 0.9671(4) 0.9269(3) 0.4993(2)
C149_15 C 0.9321(5) 0.9996(3) 0.63569(18)
H112_15 H 0.9092 0.9834 0.6295
H117_15 H 0.9865 0.9907 0.5695
C33_16 C 0.0315(3) 0.0724(3) 0.80198(11)
C34_16 C 0.0570(3) 0.1062(2) 0.80216(10)
H26_16 H 0.0388 0.1282 0.8047
C35_16 C 0.1105(3) 0.1074(2) 0.79846(9)
C36_16 C 0.1359(3) 0.0736(2) 0.79479(10)
H27_16 H 0.1717 0.0732 0.7924
C37_16 C 0.1072(3) 0.0404(2) 0.79469(11)
H28_16 H 0.1240 0.0179 0.7919
C43_16 C 0.0176(3) 0.0883(2) 0.85538(11)
C44_16 C 0.0530(3) 0.1172(2) 0.85534(10)
H34_16 H 0.0423 0.1416 0.8582
C45_16 C 0.1057(3) 0.10992(18) 0.85097(9)
C46_16 C 0.1179(3) 0.07274(19) 0.84719(9)
H35_16 H 0.1524 0.0663 0.8445
C47_16 C 0.0809(3) 0.0456(2) 0.84725(11)
H36_16 H 0.0906 0.0213 0.8441
N6_16 N 0.1944(3) 0.21003(19) 0.79855(9)
C114_16 C 0.2185(3) 0.1776(3) 0.80198(11)
H85_16 H 0.2542 0.1779 0.8043
C115_16 C 0.1930(3) 0.1438(2) 0.80216(10)
H86_16 H 0.2112 0.1218 0.8047
C116_16 C 0.1395(3) 0.1426(2) 0.79846(9)
C117_16 C 0.1141(3) 0.1764(2) 0.79479(10)
H87_16 H 0.0783 0.1768 0.7924
C118_16 C 0.1428(3) 0.2096(2) 0.79469(11)
H88_16 H 0.1260 0.2321 0.7919
N8_16 N 0.2185(3) 0.19779(18) 0.85158(9)
C124_16 C 0.2324(3) 0.1617(2) 0.85538(11)
H93_16 H 0.2672 0.1565 0.8581
C125_16 C 0.1970(3) 0.1328(2) 0.85534(10)
H94_16 H 0.2077 0.1084 0.8582
C126_16 C 0.1443(3) 0.14008(18) 0.85097(9)
C127_16 C 0.1321(3) 0.17726(19) 0.84719(9)
H95_16 H 0.0976 0.1837 0.8445
C128_16 C 0.1691(3) 0.2044(2) 0.84725(11)
H96_16 H 0.1594 0.2287 0.8441
Cu8_8 Cu 0.23828(5) 0.25594(3) 0.79694(2)
O12_16 O 0.7412(2) 0.10337(18) 0.82528(7)
H25_16 H 0.9958 0.0721 0.8043
H33_16 H 0.9828 0.0935 0.8581
C59_16 C 0.9137(3) 0.04225(18) 0.83018(13)
C60_16 C 0.8704(2) 0.06026(18) 0.81920(10)
C61_16 C 0.8760(3) 0.0640(2) 0.79980(11)
H45_16 H 0.9055 0.0550 0.7936
C62_16 C 0.8356(3) 0.0820(2) 0.78965(12)
H46_16 H 0.8387 0.0850 0.7766
C63_16 C 0.7920(3) 0.0950(3) 0.79861(12)
H47_16 H 0.7659 0.1071 0.7918
C64_16 C 0.7867(3) 0.0902(2) 0.81793(11)
C65_16 C 0.8258(2) 0.07276(19) 0.82860(10)
H48_16 H 0.8222 0.0696 0.8416
C66_16 C 0.7324(3) 0.0999(2) 0.84509(11)
H49_16 H 0.7367 0.0741 0.8491
H50_16 H 0.7564 0.1157 0.8521
C67_16 C 0.6766(3) 0.1128(2) 0.84806(10)
C68_16 C 0.6647(3) 0.1501(2) 0.84851(11)
H51_16 H 0.6916 0.1677 0.8488
C69_16 C 0.6358(3) 0.0879(2) 0.84849(11)
H52_16 H 0.6428 0.0623 0.8488
O19_16 O 0.30099(19) 0.22544(13) 0.82197(8)
O20_16 O 0.33666(18) 0.20464(14) 0.84806(8)
O21_16 O 0.5088(2) 0.14663(18) 0.82528(7)
C92_16 C 0.3363(3) 0.20775(18) 0.83018(13)
C93_16 C 0.3796(2) 0.18974(18) 0.81920(10)
C94_16 C 0.3740(3) 0.1860(2) 0.79980(11)
H69_16 H 0.3445 0.1950 0.7936
C95_16 C 0.4144(3) 0.1680(2) 0.78965(12)
H70_16 H 0.4113 0.1650 0.7766
C96_16 C 0.4580(3) 0.1550(3) 0.79861(12)
H71_16 H 0.4841 0.1429 0.7918
C97_16 C 0.4633(3) 0.1598(2) 0.81793(11)
C98_16 C 0.4242(2) 0.17724(19) 0.82860(10)
H72_16 H 0.4278 0.1804 0.8416
C99_16 C 0.5176(3) 0.1501(2) 0.84509(11)
H73_16 H 0.5133 0.1759 0.8491
H74_16 H 0.4936 0.1343 0.8521
C100_16 C 0.5734(3) 0.1372(2) 0.84806(10)
C101_16 C 0.5853(3) 0.0999(2) 0.84851(11)
H75_16 H 0.5584 0.0823 0.8488
C102_16 C 0.6142(3) 0.1621(2) 0.84849(11)
H76_16 H 0.6072 0.1877 0.8488
O1_16 O 0.27762(19) 0.23148(13) 0.77706(7)
O2_16 O 0.2170(3) 0.2519(2) 0.75790(9)
O3_16 O 0.2836(2) 0.2107(2) 0.69432(8)
O4_16 O 0.2471(3) 0.2874(2) 0.60405(10)
O7_16 O 0.20264(17) 0.27620(12) 0.82213(8)
O8_16 O 0.16023(17) 0.29658(14) 0.79714(8)
N2_16 N 0.2860(3) 0.2995(2) 0.79559(10)
N4_16 N 0.3115(2) 0.28718(18) 0.84936(9)
C1_16 C 0.3622(5) 0.2869(3) 0.4969(3)
H1_16 H 0.3790 0.2638 0.4962
C2_16 C 0.3912(4) 0.3199(4) 0.4966(3)
H2_16 H 0.4274 0.3189 0.4956
C3_16 C 0.3661(5) 0.3545(3) 0.4976(3)
C4_16 C 0.3120(5) 0.3561(3) 0.4990(3)
H3_16 H 0.2952 0.3792 0.4997
C5_16 C 0.2829(4) 0.3231(3) 0.4993(2)
H4_16 H 0.2467 0.3241 0.5002
C6_16 C 0.2564(3) 0.2335(2) 0.76073(12)
C7_16 C 0.2823(3) 0.2108(3) 0.74520(12)
C8_16 C 0.3174(4) 0.1828(3) 0.74969(13)
H5_16 H 0.3254 0.1778 0.7623
C9_16 C 0.3404(4) 0.1622(3) 0.73563(14)
H6_16 H 0.3619 0.1421 0.7387
C10_16 C 0.3316(4) 0.1714(3) 0.71683(14)
H7_16 H 0.3488 0.1586 0.7072
C11_16 C 0.2973(4) 0.1996(3) 0.71274(12)
C12_16 C 0.2707(4) 0.2194(3) 0.72658(12)
H8_16 H 0.2461 0.2376 0.7235
C13_16 C 0.3159(4) 0.1967(3) 0.67976(14)
H9_16 H 0.3521 0.2030 0.6823
H10_16 H 0.3129 0.1695 0.6791
C14_16 C 0.2984(4) 0.2142(3) 0.66133(14)
C15_16 C 0.3311(5) 0.2391(3) 0.65272(17)
H11_16 H 0.3614 0.2476 0.6586
C16_16 C 0.3179(5) 0.2504(3) 0.63569(18)
H12_16 H 0.3408 0.2666 0.6295
C17_16 C 0.2741(5) 0.2407(3) 0.62636(16)
C18_16 C 0.2406(5) 0.2148(4) 0.63494(17)
H13_16 H 0.2105 0.2068 0.6288
C19_16 C 0.2531(5) 0.2011(3) 0.65282(16)
H14_16 H 0.2317 0.1837 0.6589
C20_16 C 0.2651(5) 0.2498(4) 0.60514(17)
H15_16 H 0.2394 0.2328 0.5998
H16_16 H 0.2975 0.2470 0.5981
C21_16 C 0.2290(4) 0.2988(3) 0.58570(17)
C22_16 C 0.2415(3) 0.2800(3) 0.56936(16)
H17_16 H 0.2635 0.2593 0.5695
C23_16 C 0.2199(4) 0.2934(3) 0.55262(14)
C24_16 C 0.1864(4) 0.3230(4) 0.55184(18)
H18_16 H 0.1713 0.3305 0.5405
C25_16 C 0.1753(5) 0.3420(3) 0.5691(2)
H19_16 H 0.1538 0.3630 0.5691
C26_16 C 0.1968(4) 0.3288(3) 0.58567(17)
H20_16 H 0.1891 0.3408 0.5970
C27_16 C 0.2314(6) 0.2716(4) 0.5351(2)
C28_16 C 0.3357(4) 0.2946(2) 0.79831(11)
H21_16 H 0.3473 0.2703 0.8007
C29_16 C 0.3723(3) 0.3227(2) 0.79793(11)
H22_16 H 0.4075 0.3172 0.7998
C30_16 C 0.3566(3) 0.3594(2) 0.79471(10)
C31_16 C 0.3036(3) 0.3647(2) 0.79129(11)
H23_16 H 0.2908 0.3885 0.7885
C32_16 C 0.2697(3) 0.3342(3) 0.79213(13)
H24_16 H 0.2343 0.3383 0.7902
C38_16 C 0.3626(3) 0.2898(2) 0.85167(11)
H29_16 H 0.3818 0.2680 0.8538
C39_16 C 0.3886(3) 0.32377(19) 0.85101(10)
H30_16 H 0.4247 0.3245 0.8526
C40_16 C 0.3612(3) 0.35650(18) 0.84801(8)
C41_16 C 0.3085(3) 0.3536(2) 0.84514(10)
H31_16 H 0.2889 0.3751 0.8427
C42_16 C 0.2844(3) 0.3193(2) 0.84579(11)
H32_16 H 0.2486 0.3179 0.8437
C48_16 C 0.1652(3) 0.29376(19) 0.81437(12)
C49_16 C 0.1246(3) 0.31152(18) 0.82698(10)
C50_16 C 0.1308(3) 0.31292(19) 0.84650(10)
H37_16 H 0.1598 0.3017 0.8520
C51_16 C 0.0948(3) 0.3306(2) 0.85769(11)
H38_16 H 0.1000 0.3321 0.8707
C52_16 C 0.0512(3) 0.3460(2) 0.84969(11)
H39_16 H 0.0269 0.3585 0.8572
C53_16 C 0.0430(3) 0.3429(2) 0.83005(11)
C54_16 C 0.0799(3) 0.3269(2) 0.81902(11)
H40_16 H 0.0753 0.3262 0.8060
H41_16 H 0.0049 0.3652 0.7960
N7_16 N 0.4640(3) 0.4505(2) 0.79559(10)
C119_16 C 0.4143(4) 0.4554(2) 0.79831(11)
H89_16 H 0.4027 0.4797 0.8007
C120_16 C 0.3777(3) 0.4273(2) 0.79793(11)
H90_16 H 0.3425 0.4328 0.7998
C121_16 C 0.3934(3) 0.3906(2) 0.79471(10)
C122_16 C 0.4464(3) 0.3853(2) 0.79129(11)
H91_16 H 0.4592 0.3615 0.7885
C123_16 C 0.4803(3) 0.4158(3) 0.79213(13)
H92_16 H 0.5157 0.4117 0.7902
N9_16 N 0.4385(2) 0.46282(18) 0.84936(9)
C129_16 C 0.3874(3) 0.4602(2) 0.85167(11)
H97_16 H 0.3682 0.4820 0.8538
C130_16 C 0.3614(3) 0.42623(19) 0.85101(10)
H98_16 H 0.3253 0.4255 0.8526
C131_16 C 0.3888(3) 0.39350(18) 0.84801(8)
C132_16 C 0.4415(3) 0.3964(2) 0.84514(10)
H99_16 H 0.4611 0.3749 0.8427
C133_16 C 0.4656(3) 0.4307(2) 0.84579(11)
H100_16 H 0.5014 0.4321 0.8437
C134_16 C 0.3878(5) 0.4631(3) 0.4969(3)
H101_16 H 0.3710 0.4862 0.4962
C135_16 C 0.3588(4) 0.4301(4) 0.4966(3)
H102_16 H 0.3226 0.4311 0.4956
C136_16 C 0.3839(5) 0.3955(3) 0.4976(3)
C137_16 C 0.4380(5) 0.3939(3) 0.4990(3)
H103_16 H 0.4548 0.3708 0.4997
C138_16 C 0.4671(4) 0.4269(3) 0.4993(2)
H104_16 H 0.5033 0.4259 0.5002
O25_16 O 0.47238(19) 0.51852(13) 0.77706(7)
O26_16 O 0.5330(3) 0.4981(2) 0.75790(9)
O27_16 O 0.4664(2) 0.5393(2) 0.69432(8)
O28_16 O 0.5029(3) 0.4626(2) 0.60405(10)
C139_16 C 0.4936(3) 0.5165(2) 0.76073(12)
C140_16 C 0.4677(3) 0.5392(3) 0.74520(12)
C141_16 C 0.4326(4) 0.5672(3) 0.74969(13)
H105_16 H 0.4246 0.5722 0.7623
C142_16 C 0.4096(4) 0.5878(3) 0.73563(14)
H106_16 H 0.3881 0.6079 0.7387
C143_16 C 0.4184(4) 0.5786(3) 0.71683(14)
H107_16 H 0.4012 0.5914 0.7072
C144_16 C 0.4527(4) 0.5504(3) 0.71274(12)
C145_16 C 0.4793(4) 0.5306(3) 0.72658(12)
H108_16 H 0.5039 0.5124 0.7235
C146_16 C 0.4341(4) 0.5533(3) 0.67976(14)
H109_16 H 0.3979 0.5470 0.6823
H110_16 H 0.4371 0.5805 0.6791
C147_16 C 0.4516(4) 0.5358(3) 0.66133(14)
C148_16 C 0.4189(5) 0.5109(3) 0.65272(17)
H111_16 H 0.3886 0.5024 0.6586
C149_16 C 0.4321(5) 0.4996(3) 0.63569(18)
H112_16 H 0.4092 0.4834 0.6295
C150_16 C 0.4759(5) 0.5093(3) 0.62636(16)
C151_16 C 0.5094(5) 0.5352(4) 0.63494(17)
H113_16 H 0.5395 0.5432 0.6288
C152_16 C 0.4969(5) 0.5489(3) 0.65282(16)
H114_16 H 0.5183 0.5663 0.6589
C153_16 C 0.4849(5) 0.5002(4) 0.60514(17)
H115_16 H 0.5106 0.5172 0.5998
H116_16 H 0.4525 0.5030 0.5981
C154_16 C 0.5210(4) 0.4512(3) 0.58570(17)
C155_16 C 0.5085(3) 0.4700(3) 0.56936(16)
H117_16 H 0.4865 0.4907 0.5695
C156_16 C 0.5301(4) 0.4566(3) 0.55262(14)
C157_16 C 0.5636(4) 0.4270(4) 0.55184(18)
H118_16 H 0.5787 0.4195 0.5405
C158_16 C 0.5747(5) 0.4080(3) 0.5691(2)
H119_16 H 0.5962 0.3870 0.5691
C159_16 C 0.5532(4) 0.4212(3) 0.58567(17)
H120_16 H 0.5609 0.4092 0.5970
C160_16 C 0.5186(6) 0.4784(4) 0.5351(2)
O33_8 O 0.54736(17) 0.47380(12) 0.82213(8)
O34_8 O 0.58977(17) 0.45342(14) 0.79714(8)
O9_16 O 0.9965(2) 0.35769(18) 0.82400(7)
C55_16 C 0.9825(3) 0.3509(3) 0.80439(11)
H42_16 H 0.9856 0.3244 0.8013
C56_16 C 0.9270(3) 0.3636(3) 0.80265(11)
C57_16 C 0.8873(4) 0.3379(3) 0.80233(12)
H43_16 H 0.8951 0.3124 0.8020
C58_16 C 0.9148(3) 0.4006(3) 0.80248(12)
H44_16 H 0.9413 0.4185 0.8025
O18_16 O 0.7535(2) 0.39231(18) 0.82400(7)
C81_16 C 0.5848(3) 0.45624(19) 0.81437(12)
C82_16 C 0.6254(3) 0.43848(18) 0.82698(10)
C83_16 C 0.6192(3) 0.43708(19) 0.84650(10)
H61_16 H 0.5902 0.4483 0.8520
C84_16 C 0.6552(3) 0.4194(2) 0.85769(11)
H62_16 H 0.6500 0.4179 0.8707
C85_16 C 0.6988(3) 0.4040(2) 0.84969(11)
H63_16 H 0.7231 0.3915 0.8572
C86_16 C 0.7070(3) 0.4071(2) 0.83005(11)
C87_16 C 0.6701(3) 0.4231(2) 0.81902(11)
H64_16 H 0.6747 0.4238 0.8060
C88_16 C 0.7675(3) 0.3991(3) 0.80439(11)
H65_16 H 0.7451 0.3848 0.7960
H66_16 H 0.7644 0.4256 0.8013
C89_16 C 0.8230(3) 0.3864(3) 0.80265(11)
C90_16 C 0.8627(4) 0.4121(3) 0.80233(12)
H67_16 H 0.8549 0.4376 0.8020
C91_16 C 0.8352(3) 0.3494(3) 0.80248(12)
H68_16 H 0.8087 0.3315 0.8025
loop_
_geom_bond_atom_site_label_1
_geom_bond_atom_site_label_2
_geom_bond_site_symmetry_1
_geom_bond_site_symmetry_2
Cu1 O1 1_555 1_555
Cu2 O5 1_555 1_555
Cu3 O10 1_555 1_555
O1 C6 1_555 1_555
O2 C6 1_555 1_555
O3 C11 1_555 1_555
O4 C20 1_555 1_555
O5 C27 1_555 1_555
O6 Cu2 1_555 1_555
O7 Cu1 1_555 1_555
O8 Cu1 1_555 1_555
O9 C53 1_555 1_555
O10 Cu1 1_555 1_555
O11 Cu3 1_555 1_555
O13 Cu3 1_555 1_555
O14 Cu3 1_555 1_555
O15 C74 1_555 1_555
N1 Cu1 1_555 1_555
N2 Cu1 1_555 1_555
N3 Cu3 1_555 1_555
N4 Cu3 1_555 1_555
N5 Cu2 1_555 1_555
C1 N5 1_555 1_555
H1 C1 1_555 1_555
C2 C1 1_555 1_555
H2 C2 1_555 1_555
C3 C2 1_555 1_555
C4 C3 1_555 1_555
H3 C4 1_555 1_555
C5 N5 1_555 1_555
H4 C5 1_555 1_555
C6 C7 1_555 1_555
C7 C8 1_555 1_555
C8 H5 1_555 1_555
C9 C8 1_555 1_555
H6 C9 1_555 1_555
C10 C9 1_555 1_555
H7 C10 1_555 1_555
C11 C10 1_555 1_555
C12 C7 1_555 1_555
H8 C12 1_555 1_555
C13 O3 1_555 1_555
H9 C13 1_555 1_555
H10 C13 1_555 1_555
C14 C13 1_555 1_555
C15 C14 1_555 1_555
H11 C15 1_555 1_555
C16 C15 1_555 1_555
H12 C16 1_555 1_555
C17 C16 1_555 1_555
C18 C17 1_555 1_555
H13 C18 1_555 1_555
C19 C14 1_555 1_555
H14 C19 1_555 1_555
C20 C17 1_555 1_555
H15 C20 1_555 1_555
H16 C20 1_555 1_555
C21 O4 1_555 1_555
C22 C21 1_555 1_555
H17 C22 1_555 1_555
C23 C22 1_555 1_555
C24 C23 1_555 1_555
H18 C24 1_555 1_555
C25 C24 1_555 1_555
H19 C25 1_555 1_555
C26 C21 1_555 1_555
H20 C26 1_555 1_555
C27 O6 1_555 1_555
C28 N2 1_555 1_555
H21 C28 1_555 1_555
C29 C28 1_555 1_555
H22 C29 1_555 1_555
C30 C29 1_555 1_555
C31 C30 1_555 1_555
H23 C31 1_555 1_555
C32 N2 1_555 1_555
H24 C32 1_555 1_555
C33 N1 1_555 1_555
H25 C33 1_555 1_555
C34 C33 1_555 1_555
H26 C34 1_555 1_555
C35 C34 1_555 1_555
C36 C35 1_555 1_555
H27 C36 1_555 1_555
C37 N1 1_555 1_555
H28 C37 1_555 1_555
C38 N4 1_555 1_555
H29 C38 1_555 1_555
C39 C38 1_555 1_555
H30 C39 1_555 1_555
C40 C39 1_555 1_555
C41 C40 1_555 1_555
H31 C41 1_555 1_555
C42 N4 1_555 1_555
H32 C42 1_555 1_555
C43 N3 1_555 1_555
H33 C43 1_555 1_555
C44 C43 1_555 1_555
H34 C44 1_555 1_555
C45 C44 1_555 1_555
C46 C45 1_555 1_555
H35 C46 1_555 1_555
C47 N3 1_555 1_555
H36 C47 1_555 1_555
C48 O7 1_555 1_555
C49 C48 1_555 1_555
C50 C49 1_555 1_555
H37 C50 1_555 1_555
C51 C50 1_555 1_555
H38 C51 1_555 1_555
C52 C51 1_555 1_555
H39 C52 1_555 1_555
C53 C52 1_555 1_555
C54 C49 1_555 1_555
H40 C54 1_555 1_555
C55 O9 1_555 1_555
H41 C55 1_555 1_555
H42 C55 1_555 1_555
C56 C55 1_555 1_555
C57 C56 1_555 1_555
H43 C57 1_555 1_555
C58 C56 1_555 1_555
H44 C58 1_555 1_555
C59 O10 1_555 1_555
C60 C59 1_555 1_555
C61 C60 1_555 1_555
H45 C61 1_555 1_555
C62 C61 1_555 1_555
H46 C62 1_555 1_555
C63 C62 1_555 1_555
H47 C63 1_555 1_555
C64 C63 1_555 1_555
C65 C60 1_555 1_555
H48 C65 1_555 1_555
C70 O13 1_555 1_555
C71 H53 1_555 1_555
C72 C70 1_555 1_555
C73 C72 1_555 1_555
H54 C73 1_555 1_555
C74 C73 1_555 1_555
C75 C74 1_555 1_555
H55 C75 1_555 1_555
C76 C71 1_555 1_555
H56 C76 1_555 1_555
C77 O15 1_555 1_555
H57 C77 1_555 1_555
H58 C77 1_555 1_555
C78 C77 1_555 1_555
C79 C78 1_555 1_555
H59 C79 1_555 1_555
C80 C78 1_555 1_555
H60 C80 1_555 1_555
O16 C81 1_555 1_555
O17 C81 1_555 1_555
O18 C86 1_555 1_555
C81 C82 1_555 1_555
C82 C83 1_555 1_555
C83 H61 1_555 1_555
C84 C83 1_555 1_555
H62 C84 1_555 1_555
C85 C84 1_555 1_555
H63 C85 1_555 1_555
C86 C85 1_555 1_555
C87 C82 1_555 1_555
H64 C87 1_555 1_555
C88 O18 1_555 1_555
H65 C88 1_555 1_555
H66 C88 1_555 1_555
C89 C88 1_555 1_555
C90 C58 1_555 1_555
H67 C90 1_555 1_555
C91 C57 1_555 1_555
H68 C91 1_555 1_555
O22 C103 1_555 1_555
O23 C103 1_555 1_555
O24 C107 1_555 1_555
C103 C105 1_555 1_555
C104 H77 1_555 1_555
C105 C104 1_555 1_555
C106 C105 1_555 1_555
H78 C106 1_555 1_555
C107 C106 1_555 1_555
C108 C107 1_555 1_555
H79 C108 1_555 1_555
C109 C104 1_555 1_555
H80 C109 1_555 1_555
C110 O24 1_555 1_555
H81 C110 1_555 1_555
H82 C110 1_555 1_555
C111 C110 1_555 1_555
C112 C80 1_555 1_555
H83 C112 1_555 1_555
C113 C79 1_555 1_555
H84 C113 1_555 1_555
N6 C114 1_555 1_555
C114 H85 1_555 1_555
C115 C114 1_555 1_555
H86 C115 1_555 1_555
C116 C35 1_555 1_555
C117 C116 1_555 1_555
H87 C117 1_555 1_555
C118 N6 1_555 1_555
H88 C118 1_555 1_555
N7 C119 1_555 1_555
C119 H89 1_555 1_555
C120 C119 1_555 1_555
H90 C120 1_555 1_555
C121 C30 1_555 1_555
C122 C121 1_555 1_555
H91 C122 1_555 1_555
C123 N7 1_555 1_555
N8 C124 1_555 1_555
C124 H93 1_555 1_555
C125 C124 1_555 1_555
H94 C125 1_555 1_555
C126 C45 1_555 1_555
C127 C126 1_555 1_555
H95 C127 1_555 1_555
C128 N8 1_555 1_555
H96 C128 1_555 1_555
N9 C129 1_555 1_555
C129 H97 1_555 1_555
C130 C129 1_555 1_555
H98 C130 1_555 1_555
C131 C40 1_555 1_555
C132 C131 1_555 1_555
H99 C132 1_555 1_555
C133 N9 1_555 1_555
N10 C134 1_555 1_555
C134 H101 1_555 1_555
C135 C134 1_555 1_555
H102 C135 1_555 1_555
C136 C3 1_555 1_555
C137 C136 1_555 1_555
H103 C137 1_555 1_555
C138 N10 1_555 1_555
Cu5 N9 1_555 1_555
O27 C144 1_555 1_555
C139 O25 1_555 1_555
C140 C139 1_555 1_555
C141 C140 1_555 1_555
H105 C141 1_555 1_555
C142 C141 1_555 1_555
H106 C142 1_555 1_555
C143 C142 1_555 1_555
H107 C143 1_555 1_555
C144 C143 1_555 1_555
C145 C140 1_555 1_555
C146 O27 1_555 1_555
H109 C146 1_555 1_555
H110 C146 1_555 1_555
C147 C146 1_555 1_555
C148 C147 1_555 1_555
H111 C148 1_555 1_555
C149 C148 1_555 1_555
H112 C149 1_555 1_555
C150 C149 1_555 1_555
C152 C147 1_555 1_555
C153 C150 1_555 1_555
H116 C153 1_555 1_555
Cu6 O16 1_555 1_555
Cu8 N6 1_555 1_555
Cu9 N10 1_555 1_555
Cu11 N8 1_555 1_555
Cu12 O22 1_555 1_555
O31 Cu2 1_555 1_555
O32 Cu2 1_555 1_555
O36 Cu5 1_555 1_555
O38 Cu5 1_555 1_555
N13 Cu2 1_555 1_555
O8 C48 1_555 1_555
O11 C59 1_555 1_555
O14 C70 1_555 1_555
C4 C5 1_555 1_555
C11 C12 1_555 1_555
C18 C19 1_555 1_555
C23 C27 1_555 1_555
C25 C26 1_555 1_555
C31 C32 1_555 1_555
C36 C37 1_555 1_555
C41 C42 1_555 1_555
C46 C47 1_555 1_555
C53 C54 1_555 1_555
C64 C65 1_555 1_555
C71 C72 1_555 1_555
C75 C76 1_555 1_555
O17 Cu6 1_555 1_555
C86 C87 1_555 1_555
C89 C90 1_555 1_555
C89 C91 1_555 1_555
O23 Cu12 1_555 1_555
C108 C109 1_555 1_555
C111 C112 1_555 1_555
C111 C113 1_555 1_555
C115 C116 1_555 1_555
C117 C118 1_555 1_555
C120 C121 1_555 1_555
C122 C123 1_555 1_555
C125 C126 1_555 1_555
C127 C128 1_555 1_555
C130 C131 1_555 1_555
C132 C133 1_555 1_555
C135 C136 1_555 1_555
C137 C138 1_555 1_555
Cu5 O35 1_555 1_555
O30 Cu9 1_555 1_555
C144 C145 1_555 1_555
C66 O12 1_555 1_555
H49 C66 1_555 1_555
C67 C66 1_555 1_555
C68 C67 1_555 1_555
H51 C68 1_555 1_555
C69 C67 1_555 1_555
H52 C69 1_555 1_555
O19 C92 1_555 1_555
O20 C92 1_555 1_555
O21 C97 1_555 1_555
C92 C93 1_555 1_555
C93 C94 1_555 1_555
C94 H69 1_555 1_555
C95 C94 1_555 1_555
H70 C95 1_555 1_555
C96 C95 1_555 1_555
H71 C96 1_555 1_555
C97 C96 1_555 1_555
C98 C93 1_555 1_555
H72 C98 1_555 1_555
C99 O21 1_555 1_555
H73 C99 1_555 1_555
H74 C99 1_555 1_555
C100 C99 1_555 1_555
C101 C69 1_555 1_555
H75 C101 1_555 1_555
C102 C68 1_555 1_555
H76 C102 1_555 1_555
O29 C160 1_555 1_555
H113 C151 1_555 1_555
C154 O28 1_555 1_555
C155 C154 1_555 1_555
C156 C155 1_555 1_555
C157 C156 1_555 1_555
H118 C157 1_555 1_555
C158 C157 1_555 1_555
H119 C158 1_555 1_555
C159 C154 1_555 1_555
H120 C159 1_555 1_555
C160 C156 1_555 1_555
Cu8 O19 1_555 1_555
Cu11 O19 1_555 1_555
N11 Cu6 1_555 1_555
O20 Cu11 1_555 1_555
C97 C98 1_555 1_555
C100 C101 1_555 1_555
C100 C102 1_555 1_555
O29 Cu9_2 1_555 1_555
C158 C159 1_555 1_555
O12_2 C64_2 1_555 1_555
C59_2 O35 1_555 1_555
C60_2 C59_2 1_555 1_555
C61_2 C60_2 1_555 1_555
H45_2 C61_2 1_555 1_555
C62_2 C61_2 1_555 1_555
H46_2 C62_2 1_555 1_555
C63_2 C62_2 1_555 1_555
H47_2 C63_2 1_555 1_555
C64_2 C63_2 1_555 1_555
C65_2 C60_2 1_555 1_555
H48_2 C65_2 1_555 1_555
C66_2 O12_2 1_555 1_555
H49_2 C66_2 1_555 1_555
H50_2 C66_2 1_555 1_555
C67_2 C66_2 1_555 1_555
C68_2 C67_2 1_555 1_555
H51_2 C68_2 1_555 1_555
C69_2 C67_2 1_555 1_555
H52_2 C69_2 1_555 1_555
H58_2 C77_2 1_555 1_555
C78_2 C77_2 1_555 1_555
C80_2 C78_2 1_555 1_555
H60_2 C80_2 1_555 1_555
O19_2 C92_2 1_555 1_555
O20_2 C92_2 1_555 1_555
O21_2 C97_2 1_555 1_555
C92_2 C93_2 1_555 1_555
C93_2 C94_2 1_555 1_555
C94_2 H69_2 1_555 1_555
C95_2 C94_2 1_555 1_555
H70_2 C95_2 1_555 1_555
C96_2 C95_2 1_555 1_555
H71_2 C96_2 1_555 1_555
C97_2 C96_2 1_555 1_555
C98_2 C93_2 1_555 1_555
H72_2 C98_2 1_555 1_555
C99_2 O21_2 1_555 1_555
H73_2 C99_2 1_555 1_555
H74_2 C99_2 1_555 1_555
C100_2 C99_2 1_555 1_555
C101_2 C69_2 1_555 1_555
H75_2 C101_2 1_555 1_555
C102_2 C68_2 1_555 1_555
H76_2 C102_2 1_555 1_555
O22_2 C103_2 1_555 1_555
O24_2 C107_2 1_555 1_555
C103_2 C105_2 1_555 1_555
C104_2 H77_2 1_555 1_555
C105_2 C104_2 1_555 1_555
C106_2 C105_2 1_555 1_555
C107_2 C106_2 1_555 1_555
C108_2 C107_2 1_555 1_555
H79_2 C108_2 1_555 1_555
C109_2 C104_2 1_555 1_555
H80_2 C109_2 1_555 1_555
C112_2 C80_2 1_555 1_555
H83_2 C112_2 1_555 1_555
Cu10 O19_2 1_555 1_555
O31_2 Cu9 1_555 1_555
O36 C59_2 1_555 1_555
C64_2 C65_2 1_555 1_555
O20_2 Cu10 1_555 1_555
C97_2 C98_2 1_555 1_555
C100_2 C101_2 1_555 1_555
C100_2 C102_2 1_555 1_555
C108_2 C109_2 1_555 1_555
O15_2 C74_2 1_555 1_555
C33_2 N11 1_555 1_555
C34_2 C33_2 1_555 1_555
H26_2 C34_2 1_555 1_555
C35_2 C34_2 1_555 1_555
C36_2 C35_2 1_555 1_555
H27_2 C36_2 1_555 1_555
C37_2 N11 1_555 1_555
H28_2 C37_2 1_555 1_555
C43_2 N12 1_555 1_555
C44_2 C43_2 1_555 1_555
H34_2 C44_2 1_555 1_555
C45_2 C44_2 1_555 1_555
C46_2 C45_2 1_555 1_555
H35_2 C46_2 1_555 1_555
C47_2 N12 1_555 1_555
H36_2 C47_2 1_555 1_555
C70_2 O37 1_555 1_555
C71_2 H53_2 1_555 1_555
C72_2 C70_2 1_555 1_555
C73_2 C72_2 1_555 1_555
C74_2 C73_2 1_555 1_555
C75_2 C74_2 1_555 1_555
H55_2 C75_2 1_555 1_555
C76_2 C71_2 1_555 1_555
H56_2 C76_2 1_555 1_555
H59_2 C79_2 1_555 1_555
H82_2 C110_2 1_555 1_555
C111_2 C110_2 1_555 1_555
C113_2 C79_2 1_555 1_555
H84_2 C113_2 1_555 1_555
N6_2 C114_2 1_555 1_555
C114_2 H85_2 1_555 1_555
C115_2 C114_2 1_555 1_555
H86_2 C115_2 1_555 1_555
C116_2 C35_2 1_555 1_555
C117_2 C116_2 1_555 1_555
H87_2 C117_2 1_555 1_555
C118_2 N6_2 1_555 1_555
H88_2 C118_2 1_555 1_555
N8_2 C124_2 1_555 1_555
C124_2 H93_2 1_555 1_555
C125_2 C124_2 1_555 1_555
H94_2 C125_2 1_555 1_555
C126_2 C45_2 1_555 1_555
C127_2 C126_2 1_555 1_555
H95_2 C127_2 1_555 1_555
C128_2 N8_2 1_555 1_555
H96_2 C128_2 1_555 1_555
Cu10 N8_2 1_555 1_555
O32_2 Cu9_2 1_555 1_555
N13_2 Cu9_2 1_555 1_555
C36_2 C37_2 1_555 1_555
C46_2 C47_2 1_555 1_555
C71_2 C72_2 1_555 1_555
C75_2 C76_2 1_555 1_555
O23_2 Cu12_2 1_555 1_555
C111_2 C113_2 1_555 1_555
C115_2 C116_2 1_555 1_555
C117_2 C118_2 1_555 1_555
C125_2 C126_2 1_555 1_555
C127_2 C128_2 1_555 1_555
C55_2 O9_2 1_555 1_555
H42_2 C55_2 1_555 1_555
C56_2 C55_2 1_555 1_555
C57_2 C56_2 1_555 1_555
H43_2 C57_2 1_555 1_555
C58_2 C56_2 1_555 1_555
H44_2 C58_2 1_555 1_555
O16_2 C81_2 1_555 1_555
O17_2 C81_2 1_555 1_555
O18_2 C86_2 1_555 1_555
C81_2 C82_2 1_555 1_555
C82_2 C83_2 1_555 1_555
C83_2 H61_2 1_555 1_555
C84_2 C83_2 1_555 1_555
H62_2 C84_2 1_555 1_555
C85_2 C84_2 1_555 1_555
H63_2 C85_2 1_555 1_555
C86_2 C85_2 1_555 1_555
C87_2 C82_2 1_555 1_555
H64_2 C87_2 1_555 1_555
C88_2 O18_2 1_555 1_555
H65_2 C88_2 1_555 1_555
H66_2 C88_2 1_555 1_555
C89_2 C88_2 1_555 1_555
C90_2 C58_2 1_555 1_555
H67_2 C90_2 1_555 1_555
C91_2 C57_2 1_555 1_555
H68_2 C91_2 1_555 1_555
Cu8 O16_2 1_555 1_555
O17_2 Cu8 1_555 1_555
C86_2 C87_2 1_555 1_555
C89_2 C90_2 1_555 1_555
C89_2 C91_2 1_555 1_555
Cu2_2 O5_2 1_555 1_555
O5_2 C27_2 1_555 1_555
O6_2 Cu2_2 1_555 1_555
O7_2 Cu7 1_555 1_555
O8_2 Cu7 1_555 1_555
O15_3 C74_3 1_555 1_555
N2_2 Cu7 1_555 1_555
N5_2 Cu2_2 1_555 1_555
C1_2 N5_2 1_555 1_555
H1_2 C1_2 1_555 1_555
C2_2 C1_2 1_555 1_555
H2_2 C2_2 1_555 1_555
C3_2 C2_2 1_555 1_555
C4_2 C3_2 1_555 1_555
H3_2 C4_2 1_555 1_555
C5_2 N5_2 1_555 1_555
H4_2 C5_2 1_555 1_555
H12_2 C16_2 1_555 1_555
C21_2 O4_2 1_555 1_555
C22_2 C21_2 1_555 1_555
H17_2 C22_2 1_555 1_555
C23_2 C22_2 1_555 1_555
C24_2 C23_2 1_555 1_555
H18_2 C24_2 1_555 1_555
C25_2 C24_2 1_555 1_555
H19_2 C25_2 1_555 1_555
C26_2 C21_2 1_555 1_555
H20_2 C26_2 1_555 1_555
C27_2 O6_2 1_555 1_555
C28_2 N2_2 1_555 1_555
H21_2 C28_2 1_555 1_555
C29_2 C28_2 1_555 1_555
H22_2 C29_2 1_555 1_555
C30_2 C29_2 1_555 1_555
C31_2 C30_2 1_555 1_555
H23_2 C31_2 1_555 1_555
C32_2 N2_2 1_555 1_555
H24_2 C32_2 1_555 1_555
C38_2 N4_2 1_555 1_555
H29_2 C38_2 1_555 1_555
C39_2 C38_2 1_555 1_555
H30_2 C39_2 1_555 1_555
C40_2 C39_2 1_555 1_555
C41_2 C40_2 1_555 1_555
H31_2 C41_2 1_555 1_555
C42_2 N4_2 1_555 1_555
H32_2 C42_2 1_555 1_555
C48_2 O7_2 1_555 1_555
C49_2 C48_2 1_555 1_555
C50_2 C49_2 1_555 1_555
H37_2 C50_2 1_555 1_555
C51_2 C50_2 1_555 1_555
H38_2 C51_2 1_555 1_555
C52_2 C51_2 1_555 1_555
H39_2 C52_2 1_555 1_555
C53_2 C52_2 1_555 1_555
C54_2 C49_2 1_555 1_555
H40_2 C54_2 1_555 1_555
C70_3 O13_2 1_555 1_555
C71_3 H53_3 1_555 1_555
C72_3 C70_3 1_555 1_555
C73_3 C72_3 1_555 1_555
H54_3 C73_3 1_555 1_555
C74_3 C73_3 1_555 1_555
C75_3 C74_3 1_555 1_555
H55_3 C75_3 1_555 1_555
C76_3 C71_3 1_555 1_555
H56_3 C76_3 1_555 1_555
C77_3 O15_3 1_555 1_555
H58_3 C77_3 1_555 1_555
C78_3 C77_3 1_555 1_555
C79_3 C78_3 1_555 1_555
H59_3 C79_3 1_555 1_555
C113_3 C79_3 1_555 1_555
H84_3 C113_3 1_555 1_555
N7_2 C119_2 1_555 1_555
C119_2 H89_2 1_555 1_555
C120_2 C119_2 1_555 1_555
H90_2 C120_2 1_555 1_555
C121_2 C30_2 1_555 1_555
C122_2 C121_2 1_555 1_555
H91_2 C122_2 1_555 1_555
C123_2 N7_2 1_555 1_555
H92_2 C123_2 1_555 1_555
N9_2 C129_2 1_555 1_555
C129_2 H97_2 1_555 1_555
C130_2 C129_2 1_555 1_555
H98_2 C130_2 1_555 1_555
C131_2 C40_2 1_555 1_555
C132_2 C131_2 1_555 1_555
H99_2 C132_2 1_555 1_555
C133_2 N9_2 1_555 1_555
H100_2 C133_2 1_555 1_555
N10_2 C134_2 1_555 1_555
C134_2 H101_2 1_555 1_555
C135_2 C134_2 1_555 1_555
H102_2 C135_2 1_555 1_555
C136_2 C3_2 1_555 1_555
C137_2 C136_2 1_555 1_555
H103_2 C137_2 1_555 1_555
C138_2 N10_2 1_555 1_555
H104_2 C138_2 1_555 1_555
Cu8 N7_2 1_555 1_555
Cu11 N9_2 1_555 1_555
O25_2 Cu8 1_555 1_555
O26_2 C139_2 1_555 1_555
O27_2 C144_2 1_555 1_555
O28_2 C153_2 1_555 1_555
O29_2 C160_2 1_555 1_555
O30_2 C160_2 1_555 1_555
C139_2 O25_2 1_555 1_555
C140_2 C139_2 1_555 1_555
C141_2 C140_2 1_555 1_555
H105_2 C141_2 1_555 1_555
C142_2 C141_2 1_555 1_555
H106_2 C142_2 1_555 1_555
C143_2 C142_2 1_555 1_555
H107_2 C143_2 1_555 1_555
C144_2 C143_2 1_555 1_555
C145_2 C140_2 1_555 1_555
H108_2 C145_2 1_555 1_555
C146_2 O27_2 1_555 1_555
H109_2 C146_2 1_555 1_555
H110_2 C146_2 1_555 1_555
C147_2 C146_2 1_555 1_555
C148_2 C147_2 1_555 1_555
H111_2 C148_2 1_555 1_555
C149_2 C148_2 1_555 1_555
H112_2 C149_2 1_555 1_555
C150_2 C149_2 1_555 1_555
C151_2 C150_2 1_555 1_555
H113_2 C151_2 1_555 1_555
C152_2 C147_2 1_555 1_555
H114_2 C152_2 1_555 1_555
C153_2 C150_2 1_555 1_555
H115_2 C153_2 1_555 1_555
H116_2 C153_2 1_555 1_555
C154_2 O28_2 1_555 1_555
C155_2 C154_2 1_555 1_555
H117_2 C155_2 1_555 1_555
C156_2 C155_2 1_555 1_555
C157_2 C156_2 1_555 1_555
H118_2 C157_2 1_555 1_555
C158_2 C157_2 1_555 1_555
H119_2 C158_2 1_555 1_555
C159_2 C154_2 1_555 1_555
H120_2 C159_2 1_555 1_555
C160_2 C156_2 1_555 1_555
Cu9_3 N10_2 1_555 1_555
O37_2 Cu11 1_555 1_555
O38_2 Cu11 1_555 1_555
O8_2 C48_2 1_555 1_555
C4_2 C5_2 1_555 1_555
C23_2 C27_2 1_555 1_555
C25_2 C26_2 1_555 1_555
C31_2 C32_2 1_555 1_555
C41_2 C42_2 1_555 1_555
C53_2 C54_2 1_555 1_555
C71_3 C72_3 1_555 1_555
C75_3 C76_3 1_555 1_555
O23_3 Cu12_3 1_555 1_555
C120_2 C121_2 1_555 1_555
C122_2 C123_2 1_555 1_555
C130_2 C131_2 1_555 1_555
C132_2 C133_2 1_555 1_555
C135_2 C136_2 1_555 1_555
C137_2 C138_2 1_555 1_555
O29_2 Cu9_3 1_555 1_555
O30_2 Cu9_3 1_555 1_555
C144_2 C145_2 1_555 1_555
C151_2 C152_2 1_555 1_555
C158_2 C159_2 1_555 1_555
O1_2 C6_2 1_555 1_555
O3_2 C11_2 1_555 1_555
O14_2 Cu10 1_555 1_555
C6_2 C7_2 1_555 1_555
C7_2 C8_2 1_555 1_555
C8_2 H5_2 1_555 1_555
C9_2 C8_2 1_555 1_555
H6_2 C9_2 1_555 1_555
C10_2 C9_2 1_555 1_555
H7_2 C10_2 1_555 1_555
C11_2 C10_2 1_555 1_555
C12_2 C7_2 1_555 1_555
H8_2 C12_2 1_555 1_555
C13_2 O3_2 1_555 1_555
H9_2 C13_2 1_555 1_555
H10_2 C13_2 1_555 1_555
C14_2 C13_2 1_555 1_555
C15_2 C14_2 1_555 1_555
H11_2 C15_2 1_555 1_555
C18_2 C17_2 1_555 1_555
H13_2 C18_2 1_555 1_555
C19_2 C14_2 1_555 1_555
H14_2 C19_2 1_555 1_555
C20_2 C17_2 1_555 1_555
H15_2 C20_2 1_555 1_555
H16_2 C20_2 1_555 1_555
H60_3 C80_3 1_555 1_555
O22_3 C103_3 1_555 1_555
O24_3 C107_3 1_555 1_555
C103_3 C105_3 1_555 1_555
C104_3 H77_3 1_555 1_555
C105_3 C104_3 1_555 1_555
C106_3 C105_3 1_555 1_555
H78_3 C106_3 1_555 1_555
C107_3 C106_3 1_555 1_555
C108_3 C107_3 1_555 1_555
H79_3 C108_3 1_555 1_555
C109_3 C104_3 1_555 1_555
H80_3 C109_3 1_555 1_555
C110_3 O24_3 1_555 1_555
H82_3 C110_3 1_555 1_555
C111_3 C110_3 1_555 1_555
C112_3 C80_3 1_555 1_555
H83_3 C112_3 1_555 1_555
O31_3 Cu2_3 1_555 1_555
O32_3 Cu2_3 1_555 1_555
N13_3 Cu2_3 1_555 1_555
C11_2 C12_2 1_555 1_555
C18_2 C19_2 1_555 1_555
C108_3 C109_3 1_555 1_555
C111_3 C112_3 1_555 1_555
O15_4 C74_4 1_555 1_555
C70_4 O37_2 1_555 1_555
C71_4 H53_4 1_555 1_555
C72_4 C70_4 1_555 1_555
C73_4 C72_4 1_555 1_555
H54_4 C73_4 1_555 1_555
C74_4 C73_4 1_555 1_555
C75_4 C74_4 1_555 1_555
H55_4 C75_4 1_555 1_555
C76_4 C71_4 1_555 1_555
H56_4 C76_4 1_555 1_555
C77_4 O15_4 1_555 1_555
H57_4 C77_4 1_555 1_555
H58_4 C77_4 1_555 1_555
C78_4 C77_4 1_555 1_555
C79_4 C78_4 1_555 1_555
H59_4 C79_4 1_555 1_555
C80_4 C78_4 1_555 1_555
H60_4 C80_4 1_555 1_555
O22_4 C103_4 1_555 1_555
O23_4 C103_4 1_555 1_555
O24_4 C107_4 1_555 1_555
C103_4 C105_4 1_555 1_555
C104_4 H77_4 1_555 1_555
C105_4 C104_4 1_555 1_555
C106_4 C105_4 1_555 1_555
H78_4 C106_4 1_555 1_555
C107_4 C106_4 1_555 1_555
C108_4 C107_4 1_555 1_555
H79_4 C108_4 1_555 1_555
C109_4 C104_4 1_555 1_555
H80_4 C109_4 1_555 1_555
C110_4 O24_4 1_555 1_555
H81_4 C110_4 1_555 1_555
H82_4 C110_4 1_555 1_555
C111_4 C110_4 1_555 1_555
C112_4 C80_4 1_555 1_555
H83_4 C112_4 1_555 1_555
C113_4 C79_4 1_555 1_555
H84_4 C113_4 1_555 1_555
Cu12_4 O22_4 1_555 1_555
O31_4 Cu9_3 1_555 1_555
O32_4 Cu9_3 1_555 1_555
N13_4 Cu9_3 1_555 1_555
O38_2 C70_4 1_555 1_555
C71_4 C72_4 1_555 1_555
C75_4 C76_4 1_555 1_555
O23_4 Cu12_4 1_555 1_555
C108_4 C109_4 1_555 1_555
C111_4 C112_4 1_555 1_555
C111_4 C113_4 1_555 1_555
C66_3 O12_3 1_555 1_555
H49_3 C66_3 1_555 1_555
C67_3 C66_3 1_555 1_555
C68_3 C67_3 1_555 1_555
H51_3 C68_3 1_555 1_555
C69_3 C67_3 1_555 1_555
H52_3 C69_3 1_555 1_555
O19_3 C92_3 1_555 1_555
O20_3 C92_3 1_555 1_555
O21_3 C97_3 1_555 1_555
C92_3 C93_3 1_555 1_555
C93_3 C94_3 1_555 1_555
C94_3 H69_3 1_555 1_555
C95_3 C94_3 1_555 1_555
H70_3 C95_3 1_555 1_555
C96_3 C95_3 1_555 1_555
H71_3 C96_3 1_555 1_555
C97_3 C96_3 1_555 1_555
C98_3 C93_3 1_555 1_555
H72_3 C98_3 1_555 1_555
C99_3 O21_3 1_555 1_555
H73_3 C99_3 1_555 1_555
H74_3 C99_3 1_555 1_555
C100_3 C99_3 1_555 1_555
C101_3 C69_3 1_555 1_555
H75_3 C101_3 1_555 1_555
C102_3 C68_3 1_555 1_555
H76_3 C102_3 1_555 1_555
Cu7_2 O19_3 1_555 1_555
Cu12_4 O19_3 1_555 1_555
O20_3 Cu12_4 1_555 1_555
C97_3 C98_3 1_555 1_555
C100_3 C101_3 1_555 1_555
C100_3 C102_3 1_555 1_555
O31_2 C160_3 1_555 1_555
H113_3 C151_3 1_555 1_555
C154_3 O28_3 1_555 1_555
C155_3 C154_3 1_555 1_555
C156_3 C155_3 1_555 1_555
C157_3 C156_3 1_555 1_555
H118_3 C157_3 1_555 1_555
C158_3 C157_3 1_555 1_555
H119_3 C158_3 1_555 1_555
C159_3 C154_3 1_555 1_555
H120_3 C159_3 1_555 1_555
C160_3 C156_3 1_555 1_555
C158_3 C159_3 1_555 1_555
O33 Cu4 1_555 1_555
O34 Cu4 1_555 1_555
N11_2 Cu4 1_555 1_555
O3_3 C11_3 1_555 1_555
C7_3 C8_3 1_555 1_555
C9_3 C8_3 1_555 1_555
H6_3 C9_3 1_555 1_555
C10_3 C9_3 1_555 1_555
H7_3 C10_3 1_555 1_555
C11_3 C10_3 1_555 1_555
C12_3 C7_3 1_555 1_555
H8_3 C12_3 1_555 1_555
C13_3 O3_3 1_555 1_555
H9_3 C13_3 1_555 1_555
H10_3 C13_3 1_555 1_555
C14_3 C13_3 1_555 1_555
C15_3 C14_3 1_555 1_555
H11_3 C15_3 1_555 1_555
C18_3 C17_3 1_555 1_555
H13_3 C18_3 1_555 1_555
C19_3 C14_3 1_555 1_555
H14_3 C19_3 1_555 1_555
C20_3 C17_3 1_555 1_555
H15_3 C20_3 1_555 1_555
H16_3 C20_3 1_555 1_555
C11_3 C12_3 1_555 1_555
C18_3 C19_3 1_555 1_555
Cu12_3 O10_2 1_555 1_555
O1_3 C6_3 1_555 1_555
O11_2 Cu12_3 1_555 1_555
N3_2 Cu12_3 1_555 1_555
C33_3 N1_2 1_555 1_555
H25_3 C33_3 1_555 1_555
C34_3 C33_3 1_555 1_555
H26_3 C34_3 1_555 1_555
C35_3 C34_3 1_555 1_555
C36_3 C35_3 1_555 1_555
H27_3 C36_3 1_555 1_555
C37_3 N1_2 1_555 1_555
H28_3 C37_3 1_555 1_555
C43_3 N3_2 1_555 1_555
H33_3 C43_3 1_555 1_555
C44_3 C43_3 1_555 1_555
H34_3 C44_3 1_555 1_555
C45_3 C44_3 1_555 1_555
C46_3 C45_3 1_555 1_555
H35_3 C46_3 1_555 1_555
C47_3 N3_2 1_555 1_555
H36_3 C47_3 1_555 1_555
C59_3 O10_2 1_555 1_555
C60_3 C59_3 1_555 1_555
C61_3 C60_3 1_555 1_555
H45_3 C61_3 1_555 1_555
C62_3 C61_3 1_555 1_555
H46_3 C62_3 1_555 1_555
C63_3 C62_3 1_555 1_555
H47_3 C63_3 1_555 1_555
C64_3 C63_3 1_555 1_555
C65_3 C60_3 1_555 1_555
H48_3 C65_3 1_555 1_555
N6_3 C114_3 1_555 1_555
C114_3 H85_3 1_555 1_555
C115_3 C114_3 1_555 1_555
H86_3 C115_3 1_555 1_555
C116_3 C35_3 1_555 1_555
C117_3 C116_3 1_555 1_555
H87_3 C117_3 1_555 1_555
C118_3 N6_3 1_555 1_555
H88_3 C118_3 1_555 1_555
N8_3 C124_3 1_555 1_555
C124_3 H93_3 1_555 1_555
C125_3 C124_3 1_555 1_555
H94_3 C125_3 1_555 1_555
C126_3 C45_3 1_555 1_555
C127_3 C126_3 1_555 1_555
H95_3 C127_3 1_555 1_555
C128_3 N8_3 1_555 1_555
H96_3 C128_3 1_555 1_555
Cu7_2 N6_3 1_555 1_555
Cu12_4 N8_3 1_555 1_555
O11_2 C59_3 1_555 1_555
C36_3 C37_3 1_555 1_555
C46_3 C47_3 1_555 1_555
C64_3 C65_3 1_555 1_555
C115_3 C116_3 1_555 1_555
C117_3 C118_3 1_555 1_555
C125_3 C126_3 1_555 1_555
C127_3 C128_3 1_555 1_555
O31_3 C27_3 1_555 1_555
C1_3 N13_3 1_555 1_555
H1_3 C1_3 1_555 1_555
C2_3 C1_3 1_555 1_555
H2_3 C2_3 1_555 1_555
C3_3 C2_3 1_555 1_555
C4_3 C3_3 1_555 1_555
H3_3 C4_3 1_555 1_555
C5_3 N13_3 1_555 1_555
H4_3 C5_3 1_555 1_555
H12_3 C16_3 1_555 1_555
C21_3 O4_3 1_555 1_555
C22_3 C21_3 1_555 1_555
H17_3 C22_3 1_555 1_555
C23_3 C22_3 1_555 1_555
C24_3 C23_3 1_555 1_555
H18_3 C24_3 1_555 1_555
C25_3 C24_3 1_555 1_555
H19_3 C25_3 1_555 1_555
C26_3 C21_3 1_555 1_555
H20_3 C26_3 1_555 1_555
C27_3 O32_3 1_555 1_555
N13_2 C134_3 1_555 1_555
C134_3 H101_3 1_555 1_555
C135_3 C134_3 1_555 1_555
H102_3 C135_3 1_555 1_555
C136_3 C3_3 1_555 1_555
C137_3 C136_3 1_555 1_555
H103_3 C137_3 1_555 1_555
C138_3 N13_2 1_555 1_555
O27_3 C144_3 1_555 1_555
C141_3 C140_3 1_555 1_555
C142_3 C141_3 1_555 1_555
H106_3 C142_3 1_555 1_555
C143_3 C142_3 1_555 1_555
H107_3 C143_3 1_555 1_555
C144_3 C143_3 1_555 1_555
C145_3 C140_3 1_555 1_555
C146_3 O27_3 1_555 1_555
H109_3 C146_3 1_555 1_555
H110_3 C146_3 1_555 1_555
C147_3 C146_3 1_555 1_555
C148_3 C147_3 1_555 1_555
H111_3 C148_3 1_555 1_555
C149_3 C148_3 1_555 1_555
H112_3 C149_3 1_555 1_555
C150_3 C149_3 1_555 1_555
C152_3 C147_3 1_555 1_555
C153_3 C150_3 1_555 1_555
H116_3 C153_3 1_555 1_555
C4_3 C5_3 1_555 1_555
C23_3 C27_3 1_555 1_555
C25_3 C26_3 1_555 1_555
C135_3 C136_3 1_555 1_555
C137_3 C138_3 1_555 1_555
C144_3 C145_3 1_555 1_555
O7_3 Cu1_2 1_555 1_555
O8_3 Cu1_2 1_555 1_555
O9_3 C53_3 1_555 1_555
N2_3 Cu1_2 1_555 1_555
C28_3 N2_3 1_555 1_555
H21_3 C28_3 1_555 1_555
C29_3 C28_3 1_555 1_555
H22_3 C29_3 1_555 1_555
C30_3 C29_3 1_555 1_555
C31_3 C30_3 1_555 1_555
H23_3 C31_3 1_555 1_555
C32_3 N2_3 1_555 1_555
H24_3 C32_3 1_555 1_555
C38_3 N4_3 1_555 1_555
H29_3 C38_3 1_555 1_555
C39_3 C38_3 1_555 1_555
H30_3 C39_3 1_555 1_555
C40_3 C39_3 1_555 1_555
C41_3 C40_3 1_555 1_555
H31_3 C41_3 1_555 1_555
C42_3 N4_3 1_555 1_555
H32_3 C42_3 1_555 1_555
C48_3 O7_3 1_555 1_555
C49_3 C48_3 1_555 1_555
C50_3 C49_3 1_555 1_555
H37_3 C50_3 1_555 1_555
C51_3 C50_3 1_555 1_555
H38_3 C51_3 1_555 1_555
C52_3 C51_3 1_555 1_555
H39_3 C52_3 1_555 1_555
C53_3 C52_3 1_555 1_555
C54_3 C49_3 1_555 1_555
H40_3 C54_3 1_555 1_555
C55_3 O9_3 1_555 1_555
H41_3 C55_3 1_555 1_555
H42_3 C55_3 1_555 1_555
C56_3 C55_3 1_555 1_555
C57_3 C56_3 1_555 1_555
H43_3 C57_3 1_555 1_555
C58_3 C56_3 1_555 1_555
H44_3 C58_3 1_555 1_555
O33 C81_3 1_555 1_555
O34 C81_3 1_555 1_555
O18_3 C86_3 1_555 1_555
C81_3 C82_3 1_555 1_555
C82_3 C83_3 1_555 1_555
C83_3 H61_3 1_555 1_555
C84_3 C83_3 1_555 1_555
H62_3 C84_3 1_555 1_555
C85_3 C84_3 1_555 1_555
H63_3 C85_3 1_555 1_555
C86_3 C85_3 1_555 1_555
C87_3 C82_3 1_555 1_555
H64_3 C87_3 1_555 1_555
C88_3 O18_3 1_555 1_555
H65_3 C88_3 1_555 1_555
H66_3 C88_3 1_555 1_555
C89_3 C88_3 1_555 1_555
C90_3 C58_3 1_555 1_555
H67_3 C90_3 1_555 1_555
C91_3 C57_3 1_555 1_555
H68_3 C91_3 1_555 1_555
N7_3 C119_3 1_555 1_555
C119_3 H89_3 1_555 1_555
C120_3 C119_3 1_555 1_555
H90_3 C120_3 1_555 1_555
C121_3 C30_3 1_555 1_555
C122_3 C121_3 1_555 1_555
H91_3 C122_3 1_555 1_555
C123_3 N7_3 1_555 1_555
N9_3 C129_3 1_555 1_555
C129_3 H97_3 1_555 1_555
C130_3 C129_3 1_555 1_555
H98_3 C130_3 1_555 1_555
C131_3 C40_3 1_555 1_555
C132_3 C131_3 1_555 1_555
H99_3 C132_3 1_555 1_555
C133_3 N9_3 1_555 1_555
Cu12_2 N9_3 1_555 1_555
C139_3 O25_3 1_555 1_555
O36_2 Cu12_2 1_555 1_555
O8_3 C48_3 1_555 1_555
C31_3 C32_3 1_555 1_555
C41_3 C42_3 1_555 1_555
C53_3 C54_3 1_555 1_555
C86_3 C87_3 1_555 1_555
C89_3 C90_3 1_555 1_555
C89_3 C91_3 1_555 1_555
C120_3 C121_3 1_555 1_555
C122_3 C123_3 1_555 1_555
C130_3 C131_3 1_555 1_555
C132_3 C133_3 1_555 1_555
Cu12_2 O35_2 1_555 1_555
C33_4 N11_2 1_555 1_555
C34_4 C33_4 1_555 1_555
H26_4 C34_4 1_555 1_555
C35_4 C34_4 1_555 1_555
C36_4 C35_4 1_555 1_555
H27_4 C36_4 1_555 1_555
C37_4 N11_2 1_555 1_555
H28_4 C37_4 1_555 1_555
C43_4 N12_2 1_555 1_555
C44_4 C43_4 1_555 1_555
H34_4 C44_4 1_555 1_555
C45_4 C44_4 1_555 1_555
C46_4 C45_4 1_555 1_555
H35_4 C46_4 1_555 1_555
C47_4 N12_2 1_555 1_555
H36_4 C47_4 1_555 1_555
N6_4 C114_4 1_555 1_555
C114_4 H85_4 1_555 1_555
C115_4 C114_4 1_555 1_555
H86_4 C115_4 1_555 1_555
C116_4 C35_4 1_555 1_555
C117_4 C116_4 1_555 1_555
H87_4 C117_4 1_555 1_555
C118_4 N6_4 1_555 1_555
H88_4 C118_4 1_555 1_555
N8_4 C124_4 1_555 1_555
C124_4 H93_4 1_555 1_555
C125_4 C124_4 1_555 1_555
H94_4 C125_4 1_555 1_555
C126_4 C45_4 1_555 1_555
C127_4 C126_4 1_555 1_555
H95_4 C127_4 1_555 1_555
C128_4 N8_4 1_555 1_555
H96_4 C128_4 1_555 1_555
Cu8_2 N6_4 1_555 1_555
Cu12 N8_4 1_555 1_555
C36_4 C37_4 1_555 1_555
C46_4 C47_4 1_555 1_555
C115_4 C116_4 1_555 1_555
C117_4 C118_4 1_555 1_555
C125_4 C126_4 1_555 1_555
C127_4 C128_4 1_555 1_555
O12_4 C64_4 1_555 1_555
C59_4 O35_2 1_555 1_555
C60_4 C59_4 1_555 1_555
C61_4 C60_4 1_555 1_555
H45_4 C61_4 1_555 1_555
C62_4 C61_4 1_555 1_555
H46_4 C62_4 1_555 1_555
C63_4 C62_4 1_555 1_555
H47_4 C63_4 1_555 1_555
C64_4 C63_4 1_555 1_555
C65_4 C60_4 1_555 1_555
H48_4 C65_4 1_555 1_555
C66_4 O12_4 1_555 1_555
H49_4 C66_4 1_555 1_555
H50_4 C66_4 1_555 1_555
C67_4 C66_4 1_555 1_555
C68_4 C67_4 1_555 1_555
H51_4 C68_4 1_555 1_555
C69_4 C67_4 1_555 1_555
H52_4 C69_4 1_555 1_555
O19_4 C92_4 1_555 1_555
O20_4 C92_4 1_555 1_555
O21_4 C97_4 1_555 1_555
C92_4 C93_4 1_555 1_555
C93_4 C94_4 1_555 1_555
C94_4 H69_4 1_555 1_555
C95_4 C94_4 1_555 1_555
H70_4 C95_4 1_555 1_555
C96_4 C95_4 1_555 1_555
H71_4 C96_4 1_555 1_555
C97_4 C96_4 1_555 1_555
C98_4 C93_4 1_555 1_555
H72_4 C98_4 1_555 1_555
C99_4 O21_4 1_555 1_555
H73_4 C99_4 1_555 1_555
H74_4 C99_4 1_555 1_555
C100_4 C99_4 1_555 1_555
C101_4 C69_4 1_555 1_555
H75_4 C101_4 1_555 1_555
C102_4 C68_4 1_555 1_555
H76_4 C102_4 1_555 1_555
Cu8_2 O19_4 1_555 1_555
Cu12 O19_4 1_555 1_555
O36_2 C59_4 1_555 1_555
C64_4 C65_4 1_555 1_555
O20_4 Cu12 1_555 1_555
C97_4 C98_4 1_555 1_555
C100_4 C101_4 1_555 1_555
C100_4 C102_4 1_555 1_555
O3_4 C11_4 1_555 1_555
O4_4 C20_4 1_555 1_555
O31 C27_4 1_555 1_555
C1_4 N13 1_555 1_555
H1_4 C1_4 1_555 1_555
C2_4 C1_4 1_555 1_555
H2_4 C2_4 1_555 1_555
C3_4 C2_4 1_555 1_555
C4_4 C3_4 1_555 1_555
H3_4 C4_4 1_555 1_555
C5_4 N13 1_555 1_555
H4_4 C5_4 1_555 1_555
C7_4 C8_4 1_555 1_555
C9_4 C8_4 1_555 1_555
H6_4 C9_4 1_555 1_555
C10_4 C9_4 1_555 1_555
H7_4 C10_4 1_555 1_555
C11_4 C10_4 1_555 1_555
C12_4 C7_4 1_555 1_555
H8_4 C12_4 1_555 1_555
C13_4 O3_4 1_555 1_555
H9_4 C13_4 1_555 1_555
H10_4 C13_4 1_555 1_555
C14_4 C13_4 1_555 1_555
C15_4 C14_4 1_555 1_555
H11_4 C15_4 1_555 1_555
C16_4 C15_4 1_555 1_555
H12_4 C16_4 1_555 1_555
C17_4 C16_4 1_555 1_555
C18_4 C17_4 1_555 1_555
H13_4 C18_4 1_555 1_555
C19_4 C14_4 1_555 1_555
H14_4 C19_4 1_555 1_555
C20_4 C17_4 1_555 1_555
H15_4 C20_4 1_555 1_555
H16_4 C20_4 1_555 1_555
C21_4 O4_4 1_555 1_555
C22_4 C21_4 1_555 1_555
H17_4 C22_4 1_555 1_555
C23_4 C22_4 1_555 1_555
C24_4 C23_4 1_555 1_555
H18_4 C24_4 1_555 1_555
C25_4 C24_4 1_555 1_555
H19_4 C25_4 1_555 1_555
C26_4 C21_4 1_555 1_555
H20_4 C26_4 1_555 1_555
C27_4 O32 1_555 1_555
N13_4 C134_4 1_555 1_555
C134_4 H101_4 1_555 1_555
C135_4 C134_4 1_555 1_555
H102_4 C135_4 1_555 1_555
C136_4 C3_4 1_555 1_555
C137_4 C136_4 1_555 1_555
H103_4 C137_4 1_555 1_555
C138_4 N13_4 1_555 1_555
H104_4 C138_4 1_555 1_555
O27_4 C144_4 1_555 1_555
O28_4 C153_4 1_555 1_555
O31_4 C160_4 1_555 1_555
O32_4 C160_4 1_555 1_555
C141_4 C140_4 1_555 1_555
C142_4 C141_4 1_555 1_555
H106_4 C142_4 1_555 1_555
C143_4 C142_4 1_555 1_555
H107_4 C143_4 1_555 1_555
C144_4 C143_4 1_555 1_555
C145_4 C140_4 1_555 1_555
H108_4 C145_4 1_555 1_555
C146_4 O27_4 1_555 1_555
H109_4 C146_4 1_555 1_555
H110_4 C146_4 1_555 1_555
C147_4 C146_4 1_555 1_555
C148_4 C147_4 1_555 1_555
H111_4 C148_4 1_555 1_555
C149_4 C148_4 1_555 1_555
H112_4 C149_4 1_555 1_555
C150_4 C149_4 1_555 1_555
C151_4 C150_4 1_555 1_555
H113_4 C151_4 1_555 1_555
C152_4 C147_4 1_555 1_555
H114_4 C152_4 1_555 1_555
C153_4 C150_4 1_555 1_555
H115_4 C153_4 1_555 1_555
H116_4 C153_4 1_555 1_555
C154_4 O28_4 1_555 1_555
C155_4 C154_4 1_555 1_555
H117_4 C155_4 1_555 1_555
C156_4 C155_4 1_555 1_555
C157_4 C156_4 1_555 1_555
H118_4 C157_4 1_555 1_555
C158_4 C157_4 1_555 1_555
H119_4 C158_4 1_555 1_555
C159_4 C154_4 1_555 1_555
H120_4 C159_4 1_555 1_555
C160_4 C156_4 1_555 1_555
C4_4 C5_4 1_555 1_555
C11_4 C12_4 1_555 1_555
C18_4 C19_4 1_555 1_555
C23_4 C27_4 1_555 1_555
C25_4 C26_4 1_555 1_555
C135_4 C136_4 1_555 1_555
C137_4 C138_4 1_555 1_555
C144_4 C145_4 1_555 1_555
C151_4 C152_4 1_555 1_555
C158_4 C159_4 1_555 1_555
Cu8_2 O1_4 1_555 1_555
O1_4 C6_4 1_555 1_555
O2_4 C6_4 1_555 1_555
O7_4 Cu8_2 1_555 1_555
O8_4 Cu8_2 1_555 1_555
N2_4 Cu8_2 1_555 1_555
N4_4 Cu12 1_555 1_555
C28_4 N2_4 1_555 1_555
H21_4 C28_4 1_555 1_555
C29_4 C28_4 1_555 1_555
H22_4 C29_4 1_555 1_555
C30_4 C29_4 1_555 1_555
C31_4 C30_4 1_555 1_555
H23_4 C31_4 1_555 1_555
C32_4 N2_4 1_555 1_555
H24_4 C32_4 1_555 1_555
C38_4 N4_4 1_555 1_555
H29_4 C38_4 1_555 1_555
C39_4 C38_4 1_555 1_555
H30_4 C39_4 1_555 1_555
C40_4 C39_4 1_555 1_555
C41_4 C40_4 1_555 1_555
H31_4 C41_4 1_555 1_555
C42_4 N4_4 1_555 1_555
H32_4 C42_4 1_555 1_555
C48_4 O7_4 1_555 1_555
C49_4 C48_4 1_555 1_555
C50_4 C49_4 1_555 1_555
H37_4 C50_4 1_555 1_555
C51_4 C50_4 1_555 1_555
H38_4 C51_4 1_555 1_555
C52_4 C51_4 1_555 1_555
H39_4 C52_4 1_555 1_555
C53_4 C52_4 1_555 1_555
C54_4 C49_4 1_555 1_555
H40_4 C54_4 1_555 1_555
N7_4 C119_4 1_555 1_555
C119_4 H89_4 1_555 1_555
C120_4 C119_4 1_555 1_555
H90_4 C120_4 1_555 1_555
C121_4 C30_4 1_555 1_555
C122_4 C121_4 1_555 1_555
H91_4 C122_4 1_555 1_555
C123_4 N7_4 1_555 1_555
H92_4 C123_4 1_555 1_555
N9_4 C129_4 1_555 1_555
C129_4 H97_4 1_555 1_555
C130_4 C129_4 1_555 1_555
H98_4 C130_4 1_555 1_555
C131_4 C40_4 1_555 1_555
C132_4 C131_4 1_555 1_555
H99_4 C132_4 1_555 1_555
C133_4 N9_4 1_555 1_555
H100_4 C133_4 1_555 1_555
Cu7_2 N7_4 1_555 1_555
Cu12_4 N9_4 1_555 1_555
O25_4 Cu7_2 1_555 1_555
O26_4 C139_4 1_555 1_555
C139_4 O25_4 1_555 1_555
O33_2 Cu7_2 1_555 1_555
O34_2 Cu7_2 1_555 1_555
O8_4 C48_4 1_555 1_555
C31_4 C32_4 1_555 1_555
C41_4 C42_4 1_555 1_555
C53_4 C54_4 1_555 1_555
C120_4 C121_4 1_555 1_555
C122_4 C123_4 1_555 1_555
C130_4 C131_4 1_555 1_555
C132_4 C133_4 1_555 1_555
C55_4 O9_4 1_555 1_555
H42_4 C55_4 1_555 1_555
C56_4 C55_4 1_555 1_555
C57_4 C56_4 1_555 1_555
H43_4 C57_4 1_555 1_555
C58_4 C56_4 1_555 1_555
H44_4 C58_4 1_555 1_555
O33_2 C81_4 1_555 1_555
O34_2 C81_4 1_555 1_555
O18_4 C86_4 1_555 1_555
C81_4 C82_4 1_555 1_555
C82_4 C83_4 1_555 1_555
C83_4 H61_4 1_555 1_555
C84_4 C83_4 1_555 1_555
H62_4 C84_4 1_555 1_555
C85_4 C84_4 1_555 1_555
H63_4 C85_4 1_555 1_555
C86_4 C85_4 1_555 1_555
C87_4 C82_4 1_555 1_555
H64_4 C87_4 1_555 1_555
C88_4 O18_4 1_555 1_555
H65_4 C88_4 1_555 1_555
H66_4 C88_4 1_555 1_555
C89_4 C88_4 1_555 1_555
C90_4 C58_4 1_555 1_555
H67_4 C90_4 1_555 1_555
C91_4 C57_4 1_555 1_555
H68_4 C91_4 1_555 1_555
C86_4 C87_4 1_555 1_555
C89_4 C90_4 1_555 1_555
C89_4 C91_4 1_555 1_555
N5_3 Cu2_4 1_555 1_555
C1_5 N5_3 1_555 1_555
H1_5 C1_5 1_555 1_555
C2_5 C1_5 1_555 1_555
H2_5 C2_5 1_555 1_555
C3_5 C2_5 1_555 1_555
C4_5 C3_5 1_555 1_555
H3_5 C4_5 1_555 1_555
C5_5 N5_3 1_555 1_555
N10_3 C134_5 1_555 1_555
C134_5 H101_5 1_555 1_555
C135_5 C134_5 1_555 1_555
H102_5 C135_5 1_555 1_555
C136_5 C3_5 1_555 1_555
C137_5 C136_5 1_555 1_555
H103_5 C137_5 1_555 1_555
C138_5 N10_3 1_555 1_555
Cu9_4 N10_3 1_555 1_555
O31_5 Cu2_4 1_555 1_555
O32_5 Cu2_4 1_555 1_555
C4_5 C5_5 1_555 1_555
C135_5 C136_5 1_555 1_555
C137_5 C138_5 1_555 1_555
Cu1_3 O1_5 1_555 1_555
Cu2_5 O5_3 1_555 1_555
Cu3_2 O10_3 1_555 1_555
O1_5 C6_5 1_555 1_555
O2_5 C6_5 1_555 1_555
O3_5 C11_5 1_555 1_555
O4_5 C20_5 1_555 1_555
O5_3 C27_5 1_555 1_555
O6_3 Cu2_5 1_555 1_555
O7_5 Cu1_3 1_555 1_555
O8_5 Cu1_3 1_555 1_555
O9_5 C53_5 1_555 1_555
O10_3 Cu1_3 1_555 1_555
O11_3 Cu3_2 1_555 1_555
O13_3 Cu3_2 1_555 1_555
O14_3 Cu3_2 1_555 1_555
O15_5 C74_5 1_555 1_555
N1_3 Cu1_3 1_555 1_555
N2_5 Cu1_3 1_555 1_555
N3_3 Cu3_2 1_555 1_555
N4_5 Cu3_2 1_555 1_555
C6_5 C7_5 1_555 1_555
C7_5 C8_5 1_555 1_555
C8_5 H5_5 1_555 1_555
C9_5 C8_5 1_555 1_555
H6_5 C9_5 1_555 1_555
C10_5 C9_5 1_555 1_555
H7_5 C10_5 1_555 1_555
C11_5 C10_5 1_555 1_555
C12_5 C7_5 1_555 1_555
H8_5 C12_5 1_555 1_555
C13_5 O3_5 1_555 1_555
H9_5 C13_5 1_555 1_555
H10_5 C13_5 1_555 1_555
C14_5 C13_5 1_555 1_555
C15_5 C14_5 1_555 1_555
H11_5 C15_5 1_555 1_555
C16_5 C15_5 1_555 1_555
H12_5 C16_5 1_555 1_555
C17_5 C16_5 1_555 1_555
C18_5 C17_5 1_555 1_555
H13_5 C18_5 1_555 1_555
C19_5 C14_5 1_555 1_555
H14_5 C19_5 1_555 1_555
C20_5 C17_5 1_555 1_555
H15_5 C20_5 1_555 1_555
H16_5 C20_5 1_555 1_555
C21_5 O4_5 1_555 1_555
C22_5 C21_5 1_555 1_555
H17_5 C22_5 1_555 1_555
C23_5 C22_5 1_555 1_555
C24_5 C23_5 1_555 1_555
H18_5 C24_5 1_555 1_555
C25_5 C24_5 1_555 1_555
H19_5 C25_5 1_555 1_555
C26_5 C21_5 1_555 1_555
H20_5 C26_5 1_555 1_555
C27_5 O6_3 1_555 1_555
C28_5 N2_5 1_555 1_555
H21_5 C28_5 1_555 1_555
C29_5 C28_5 1_555 1_555
H22_5 C29_5 1_555 1_555
C30_5 C29_5 1_555 1_555
C31_5 C30_5 1_555 1_555
H23_5 C31_5 1_555 1_555
C32_5 N2_5 1_555 1_555
H24_5 C32_5 1_555 1_555
C33_5 N1_3 1_555 1_555
H25_5 C33_5 1_555 1_555
C34_5 C33_5 1_555 1_555
H26_5 C34_5 1_555 1_555
C35_5 C34_5 1_555 1_555
C36_5 C35_5 1_555 1_555
H27_5 C36_5 1_555 1_555
C37_5 N1_3 1_555 1_555
H28_5 C37_5 1_555 1_555
C38_5 N4_5 1_555 1_555
H29_5 C38_5 1_555 1_555
C39_5 C38_5 1_555 1_555
H30_5 C39_5 1_555 1_555
C40_5 C39_5 1_555 1_555
C41_5 C40_5 1_555 1_555
H31_5 C41_5 1_555 1_555
C42_5 N4_5 1_555 1_555
H32_5 C42_5 1_555 1_555
C43_5 N3_3 1_555 1_555
H33_5 C43_5 1_555 1_555
C44_5 C43_5 1_555 1_555
H34_5 C44_5 1_555 1_555
C45_5 C44_5 1_555 1_555
C46_5 C45_5 1_555 1_555
H35_5 C46_5 1_555 1_555
C47_5 N3_3 1_555 1_555
H36_5 C47_5 1_555 1_555
C48_5 O7_5 1_555 1_555
C49_5 C48_5 1_555 1_555
C50_5 C49_5 1_555 1_555
H37_5 C50_5 1_555 1_555
C51_5 C50_5 1_555 1_555
H38_5 C51_5 1_555 1_555
C52_5 C51_5 1_555 1_555
H39_5 C52_5 1_555 1_555
C53_5 C52_5 1_555 1_555
C54_5 C49_5 1_555 1_555
H40_5 C54_5 1_555 1_555
C55_5 O9_5 1_555 1_555
H41_5 C55_5 1_555 1_555
H42_5 C55_5 1_555 1_555
C56_5 C55_5 1_555 1_555
C57_5 C56_5 1_555 1_555
H43_5 C57_5 1_555 1_555
C58_5 C56_5 1_555 1_555
H44_5 C58_5 1_555 1_555
C59_5 O10_3 1_555 1_555
C60_5 C59_5 1_555 1_555
C61_5 C60_5 1_555 1_555
H45_5 C61_5 1_555 1_555
C62_5 C61_5 1_555 1_555
H46_5 C62_5 1_555 1_555
C63_5 C62_5 1_555 1_555
H47_5 C63_5 1_555 1_555
C64_5 C63_5 1_555 1_555
C65_5 C60_5 1_555 1_555
H48_5 C65_5 1_555 1_555
C70_5 O13_3 1_555 1_555
C71_5 H53_5 1_555 1_555
C72_5 C70_5 1_555 1_555
C73_5 C72_5 1_555 1_555
H54_5 C73_5 1_555 1_555
C74_5 C73_5 1_555 1_555
C75_5 C74_5 1_555 1_555
H55_5 C75_5 1_555 1_555
C76_5 C71_5 1_555 1_555
H56_5 C76_5 1_555 1_555
C77_5 O15_5 1_555 1_555
H57_5 C77_5 1_555 1_555
H58_5 C77_5 1_555 1_555
C78_5 C77_5 1_555 1_555
C79_5 C78_5 1_555 1_555
H59_5 C79_5 1_555 1_555
C80_5 C78_5 1_555 1_555
H60_5 C80_5 1_555 1_555
O16_3 C81_5 1_555 1_555
O17_3 C81_5 1_555 1_555
O18_5 C86_5 1_555 1_555
C81_5 C82_5 1_555 1_555
C82_5 C83_5 1_555 1_555
C83_5 H61_5 1_555 1_555
C84_5 C83_5 1_555 1_555
H62_5 C84_5 1_555 1_555
C85_5 C84_5 1_555 1_555
H63_5 C85_5 1_555 1_555
C86_5 C85_5 1_555 1_555
C87_5 C82_5 1_555 1_555
H64_5 C87_5 1_555 1_555
C88_5 O18_5 1_555 1_555
H65_5 C88_5 1_555 1_555
H66_5 C88_5 1_555 1_555
C89_5 C88_5 1_555 1_555
C90_5 C58_5 1_555 1_555
H67_5 C90_5 1_555 1_555
C91_5 C57_5 1_555 1_555
H68_5 C91_5 1_555 1_555
O22_5 C103_5 1_555 1_555
O23_5 C103_5 1_555 1_555
O24_5 C107_5 1_555 1_555
C103_5 C105_5 1_555 1_555
C104_5 H77_5 1_555 1_555
C105_5 C104_5 1_555 1_555
C106_5 C105_5 1_555 1_555
H78_5 C106_5 1_555 1_555
C107_5 C106_5 1_555 1_555
C108_5 C107_5 1_555 1_555
H79_5 C108_5 1_555 1_555
C109_5 C104_5 1_555 1_555
H80_5 C109_5 1_555 1_555
C110_5 O24_5 1_555 1_555
H81_5 C110_5 1_555 1_555
H82_5 C110_5 1_555 1_555
C111_5 C110_5 1_555 1_555
C112_5 C80_5 1_555 1_555
H83_5 C112_5 1_555 1_555
C113_5 C79_5 1_555 1_555
H84_5 C113_5 1_555 1_555
N6_5 C114_5 1_555 1_555
C114_5 H85_5 1_555 1_555
C115_5 C114_5 1_555 1_555
H86_5 C115_5 1_555 1_555
C116_5 C35_5 1_555 1_555
C117_5 C116_5 1_555 1_555
H87_5 C117_5 1_555 1_555
C118_5 N6_5 1_555 1_555
H88_5 C118_5 1_555 1_555
N7_5 C119_5 1_555 1_555
C119_5 H89_5 1_555 1_555
C120_5 C119_5 1_555 1_555
H90_5 C120_5 1_555 1_555
C121_5 C30_5 1_555 1_555
C122_5 C121_5 1_555 1_555
H91_5 C122_5 1_555 1_555
C123_5 N7_5 1_555 1_555
N8_5 C124_5 1_555 1_555
C124_5 H93_5 1_555 1_555
C125_5 C124_5 1_555 1_555
H94_5 C125_5 1_555 1_555
C126_5 C45_5 1_555 1_555
C127_5 C126_5 1_555 1_555
H95_5 C127_5 1_555 1_555
C128_5 N8_5 1_555 1_555
H96_5 C128_5 1_555 1_555
N9_5 C129_5 1_555 1_555
C129_5 H97_5 1_555 1_555
C130_5 C129_5 1_555 1_555
H98_5 C130_5 1_555 1_555
C131_5 C40_5 1_555 1_555
C132_5 C131_5 1_555 1_555
H99_5 C132_5 1_555 1_555
C133_5 N9_5 1_555 1_555
Cu5_2 N9_5 1_555 1_555
O27_5 C144_5 1_555 1_555
C139_5 O25_5 1_555 1_555
C140_5 C139_5 1_555 1_555
C141_5 C140_5 1_555 1_555
H105_5 C141_5 1_555 1_555
C142_5 C141_5 1_555 1_555
H106_5 C142_5 1_555 1_555
C143_5 C142_5 1_555 1_555
H107_5 C143_5 1_555 1_555
C144_5 C143_5 1_555 1_555
C145_5 C140_5 1_555 1_555
C146_5 O27_5 1_555 1_555
H109_5 C146_5 1_555 1_555
H110_5 C146_5 1_555 1_555
C147_5 C146_5 1_555 1_555
C148_5 C147_5 1_555 1_555
H111_5 C148_5 1_555 1_555
C149_5 C148_5 1_555 1_555
H112_5 C149_5 1_555 1_555
C150_5 C149_5 1_555 1_555
C152_5 C147_5 1_555 1_555
C153_5 C150_5 1_555 1_555
H116_5 C153_5 1_555 1_555
Cu6_2 O16_3 1_555 1_555
Cu11_2 N8_5 1_555 1_555
Cu12_5 O22_5 1_555 1_555
O36_3 Cu5_2 1_555 1_555
O38_3 Cu5_2 1_555 1_555
N13_5 Cu2_5 1_555 1_555
O8_5 C48_5 1_555 1_555
O11_3 C59_5 1_555 1_555
O14_3 C70_5 1_555 1_555
C11_5 C12_5 1_555 1_555
C18_5 C19_5 1_555 1_555
C23_5 C27_5 1_555 1_555
C25_5 C26_5 1_555 1_555
C31_5 C32_5 1_555 1_555
C36_5 C37_5 1_555 1_555
C41_5 C42_5 1_555 1_555
C46_5 C47_5 1_555 1_555
C53_5 C54_5 1_555 1_555
C64_5 C65_5 1_555 1_555
C71_5 C72_5 1_555 1_555
C75_5 C76_5 1_555 1_555
O17_3 Cu6_2 1_555 1_555
C86_5 C87_5 1_555 1_555
C89_5 C90_5 1_555 1_555
C89_5 C91_5 1_555 1_555
O23_5 Cu12_5 1_555 1_555
C108_5 C109_5 1_555 1_555
C111_5 C112_5 1_555 1_555
C111_5 C113_5 1_555 1_555
C115_5 C116_5 1_555 1_555
C117_5 C118_5 1_555 1_555
C120_5 C121_5 1_555 1_555
C122_5 C123_5 1_555 1_555
C125_5 C126_5 1_555 1_555
C127_5 C128_5 1_555 1_555
C130_5 C131_5 1_555 1_555
C132_5 C133_5 1_555 1_555
Cu5_2 O35_3 1_555 1_555
O30_3 Cu9_5 1_555 1_555
C144_5 C145_5 1_555 1_555
C66_5 O12_5 1_555 1_555
H49_5 C66_5 1_555 1_555
C67_5 C66_5 1_555 1_555
C68_5 C67_5 1_555 1_555
H51_5 C68_5 1_555 1_555
C69_5 C67_5 1_555 1_555
H52_5 C69_5 1_555 1_555
O19_5 C92_5 1_555 1_555
O20_5 C92_5 1_555 1_555
O21_5 C97_5 1_555 1_555
C92_5 C93_5 1_555 1_555
C93_5 C94_5 1_555 1_555
C94_5 H69_5 1_555 1_555
C95_5 C94_5 1_555 1_555
H70_5 C95_5 1_555 1_555
C96_5 C95_5 1_555 1_555
H71_5 C96_5 1_555 1_555
C97_5 C96_5 1_555 1_555
C98_5 C93_5 1_555 1_555
H72_5 C98_5 1_555 1_555
C99_5 O21_5 1_555 1_555
H73_5 C99_5 1_555 1_555
H74_5 C99_5 1_555 1_555
C100_5 C99_5 1_555 1_555
C101_5 C69_5 1_555 1_555
H75_5 C101_5 1_555 1_555
C102_5 C68_5 1_555 1_555
H76_5 C102_5 1_555 1_555
O29_3 C160_5 1_555 1_555
H113_5 C151_5 1_555 1_555
C154_5 O28_5 1_555 1_555
C155_5 C154_5 1_555 1_555
C156_5 C155_5 1_555 1_555
C157_5 C156_5 1_555 1_555
H118_5 C157_5 1_555 1_555
C158_5 C157_5 1_555 1_555
H119_5 C158_5 1_555 1_555
C159_5 C154_5 1_555 1_555
H120_5 C159_5 1_555 1_555
C160_5 C156_5 1_555 1_555
Cu11_2 O19_5 1_555 1_555
N11_3 Cu6_2 1_555 1_555
O20_5 Cu11_2 1_555 1_555
C97_5 C98_5 1_555 1_555
C100_5 C101_5 1_555 1_555
C100_5 C102_5 1_555 1_555
O29_3 Cu9_7 1_555 1_555
C158_5 C159_5 1_555 1_555
O31_6 Cu9_4 1_555 1_555
O12_6 C64_6 1_555 1_555
C59_6 O35_3 1_555 1_555
C60_6 C59_6 1_555 1_555
C61_6 C60_6 1_555 1_555
H45_6 C61_6 1_555 1_555
C62_6 C61_6 1_555 1_555
H46_6 C62_6 1_555 1_555
C63_6 C62_6 1_555 1_555
H47_6 C63_6 1_555 1_555
C64_6 C63_6 1_555 1_555
C65_6 C60_6 1_555 1_555
H48_6 C65_6 1_555 1_555
C66_6 O12_6 1_555 1_555
H49_6 C66_6 1_555 1_555
H50_6 C66_6 1_555 1_555
C67_6 C66_6 1_555 1_555
C68_6 C67_6 1_555 1_555
H51_6 C68_6 1_555 1_555
C69_6 C67_6 1_555 1_555
H52_6 C69_6 1_555 1_555
H58_6 C77_6 1_555 1_555
C78_6 C77_6 1_555 1_555
C80_6 C78_6 1_555 1_555
H60_6 C80_6 1_555 1_555
O19_6 C92_6 1_555 1_555
O20_6 C92_6 1_555 1_555
O21_6 C97_6 1_555 1_555
C92_6 C93_6 1_555 1_555
C93_6 C94_6 1_555 1_555
C94_6 H69_6 1_555 1_555
C95_6 C94_6 1_555 1_555
H70_6 C95_6 1_555 1_555
C96_6 C95_6 1_555 1_555
H71_6 C96_6 1_555 1_555
C97_6 C96_6 1_555 1_555
C98_6 C93_6 1_555 1_555
H72_6 C98_6 1_555 1_555
C99_6 O21_6 1_555 1_555
H73_6 C99_6 1_555 1_555
H74_6 C99_6 1_555 1_555
C100_6 C99_6 1_555 1_555
C101_6 C69_6 1_555 1_555
H75_6 C101_6 1_555 1_555
C102_6 C68_6 1_555 1_555
H76_6 C102_6 1_555 1_555
O22_6 C103_6 1_555 1_555
O24_6 C107_6 1_555 1_555
C103_6 C105_6 1_555 1_555
C104_6 H77_6 1_555 1_555
C105_6 C104_6 1_555 1_555
C106_6 C105_6 1_555 1_555
C107_6 C106_6 1_555 1_555
C108_6 C107_6 1_555 1_555
H79_6 C108_6 1_555 1_555
C109_6 C104_6 1_555 1_555
H80_6 C109_6 1_555 1_555
C112_6 C80_6 1_555 1_555
H83_6 C112_6 1_555 1_555
Cu7_3 O19_6 1_555 1_555
Cu10_2 O19_6 1_555 1_555
O36_3 C59_6 1_555 1_555
C64_6 C65_6 1_555 1_555
O20_6 Cu10_2 1_555 1_555
C97_6 C98_6 1_555 1_555
C100_6 C101_6 1_555 1_555
C100_6 C102_6 1_555 1_555
C108_6 C109_6 1_555 1_555
O32_6 Cu9_6 1_555 1_555
O15_6 C74_6 1_555 1_555
C33_6 N11_3 1_555 1_555
C34_6 C33_6 1_555 1_555
H26_6 C34_6 1_555 1_555
C35_6 C34_6 1_555 1_555
C36_6 C35_6 1_555 1_555
H27_6 C36_6 1_555 1_555
C37_6 N11_3 1_555 1_555
H28_6 C37_6 1_555 1_555
C43_6 N12_3 1_555 1_555
C44_6 C43_6 1_555 1_555
H34_6 C44_6 1_555 1_555
C45_6 C44_6 1_555 1_555
C46_6 C45_6 1_555 1_555
H35_6 C46_6 1_555 1_555
C47_6 N12_3 1_555 1_555
H36_6 C47_6 1_555 1_555
C70_6 O37_3 1_555 1_555
C71_6 H53_6 1_555 1_555
C72_6 C70_6 1_555 1_555
C73_6 C72_6 1_555 1_555
C74_6 C73_6 1_555 1_555
C75_6 C74_6 1_555 1_555
H55_6 C75_6 1_555 1_555
C76_6 C71_6 1_555 1_555
H56_6 C76_6 1_555 1_555
H59_6 C79_6 1_555 1_555
H82_6 C110_6 1_555 1_555
C111_6 C110_6 1_555 1_555
C113_6 C79_6 1_555 1_555
H84_6 C113_6 1_555 1_555
N6_6 C114_6 1_555 1_555
C114_6 H85_6 1_555 1_555
C115_6 C114_6 1_555 1_555
H86_6 C115_6 1_555 1_555
C116_6 C35_6 1_555 1_555
C117_6 C116_6 1_555 1_555
H87_6 C117_6 1_555 1_555
C118_6 N6_6 1_555 1_555
H88_6 C118_6 1_555 1_555
N8_6 C124_6 1_555 1_555
C124_6 H93_6 1_555 1_555
C125_6 C124_6 1_555 1_555
H94_6 C125_6 1_555 1_555
C126_6 C45_6 1_555 1_555
C127_6 C126_6 1_555 1_555
H95_6 C127_6 1_555 1_555
C128_6 N8_6 1_555 1_555
H96_6 C128_6 1_555 1_555
Cu7_3 N6_6 1_555 1_555
Cu10_2 N8_6 1_555 1_555
N13_6 Cu9_7 1_555 1_555
C36_6 C37_6 1_555 1_555
C46_6 C47_6 1_555 1_555
C71_6 C72_6 1_555 1_555
C75_6 C76_6 1_555 1_555
O23_6 Cu12_6 1_555 1_555
C111_6 C113_6 1_555 1_555
C115_6 C116_6 1_555 1_555
C117_6 C118_6 1_555 1_555
C125_6 C126_6 1_555 1_555
C127_6 C128_6 1_555 1_555
C55_6 O9_6 1_555 1_555
H42_6 C55_6 1_555 1_555
C56_6 C55_6 1_555 1_555
C57_6 C56_6 1_555 1_555
H43_6 C57_6 1_555 1_555
C58_6 C56_6 1_555 1_555
H44_6 C58_6 1_555 1_555
O16_4 C81_6 1_555 1_555
O17_4 C81_6 1_555 1_555
O18_6 C86_6 1_555 1_555
C81_6 C82_6 1_555 1_555
C82_6 C83_6 1_555 1_555
C83_6 H61_6 1_555 1_555
C84_6 C83_6 1_555 1_555
H62_6 C84_6 1_555 1_555
C85_6 C84_6 1_555 1_555
H63_6 C85_6 1_555 1_555
C86_6 C85_6 1_555 1_555
C87_6 C82_6 1_555 1_555
H64_6 C87_6 1_555 1_555
C88_6 O18_6 1_555 1_555
H65_6 C88_6 1_555 1_555
H66_6 C88_6 1_555 1_555
C89_6 C88_6 1_555 1_555
C90_6 C58_6 1_555 1_555
H67_6 C90_6 1_555 1_555
C91_6 C57_6 1_555 1_555
H68_6 C91_6 1_555 1_555
Cu8_3 O16_4 1_555 1_555
O17_4 Cu8_3 1_555 1_555
C86_6 C87_6 1_555 1_555
C89_6 C90_6 1_555 1_555
C89_6 C91_6 1_555 1_555
N5_4 Cu2_6 1_555 1_555
C1_6 N5_4 1_555 1_555
H1_6 C1_6 1_555 1_555
C2_6 C1_6 1_555 1_555
H2_6 C2_6 1_555 1_555
C3_6 C2_6 1_555 1_555
C4_6 C3_6 1_555 1_555
H3_6 C4_6 1_555 1_555
C5_6 N5_4 1_555 1_555
N10_4 C134_6 1_555 1_555
C134_6 H101_6 1_555 1_555
C135_6 C134_6 1_555 1_555
H102_6 C135_6 1_555 1_555
C136_6 C3_6 1_555 1_555
C137_6 C136_6 1_555 1_555
H103_6 C137_6 1_555 1_555
C138_6 N10_4 1_555 1_555
Cu9_8 N10_4 1_555 1_555
O31_7 Cu2_6 1_555 1_555
O32_7 Cu2_6 1_555 1_555
C4_6 C5_6 1_555 1_555
C135_6 C136_6 1_555 1_555
C137_6 C138_6 1_555 1_555
Cu7_3 O1_6 1_555 1_555
Cu2_7 O5_4 1_555 1_555
O1_6 C6_6 1_555 1_555
O2_6 C6_6 1_555 1_555
O3_6 C11_6 1_555 1_555
O4_6 C20_6 1_555 1_555
O5_4 C27_6 1_555 1_555
O6_4 Cu2_7 1_555 1_555
O7_6 Cu7_3 1_555 1_555
O8_6 Cu7_3 1_555 1_555
O13_4 Cu10_2 1_555 1_555
O14_4 Cu10_2 1_555 1_555
O15_7 C74_7 1_555 1_555
N2_6 Cu7_3 1_555 1_555
N4_6 Cu10_2 1_555 1_555
C6_6 C7_6 1_555 1_555
C7_6 C8_6 1_555 1_555
C8_6 H5_6 1_555 1_555
C9_6 C8_6 1_555 1_555
H6_6 C9_6 1_555 1_555
C10_6 C9_6 1_555 1_555
H7_6 C10_6 1_555 1_555
C11_6 C10_6 1_555 1_555
C12_6 C7_6 1_555 1_555
H8_6 C12_6 1_555 1_555
C13_6 O3_6 1_555 1_555
H9_6 C13_6 1_555 1_555
H10_6 C13_6 1_555 1_555
C14_6 C13_6 1_555 1_555
C15_6 C14_6 1_555 1_555
H11_6 C15_6 1_555 1_555
C16_6 C15_6 1_555 1_555
H12_6 C16_6 1_555 1_555
C17_6 C16_6 1_555 1_555
C18_6 C17_6 1_555 1_555
H13_6 C18_6 1_555 1_555
C19_6 C14_6 1_555 1_555
H14_6 C19_6 1_555 1_555
C20_6 C17_6 1_555 1_555
H15_6 C20_6 1_555 1_555
H16_6 C20_6 1_555 1_555
C21_6 O4_6 1_555 1_555
C22_6 C21_6 1_555 1_555
H17_6 C22_6 1_555 1_555
C23_6 C22_6 1_555 1_555
C24_6 C23_6 1_555 1_555
H18_6 C24_6 1_555 1_555
C25_6 C24_6 1_555 1_555
H19_6 C25_6 1_555 1_555
C26_6 C21_6 1_555 1_555
H20_6 C26_6 1_555 1_555
C27_6 O6_4 1_555 1_555
C28_6 N2_6 1_555 1_555
H21_6 C28_6 1_555 1_555
C29_6 C28_6 1_555 1_555
H22_6 C29_6 1_555 1_555
C30_6 C29_6 1_555 1_555
C31_6 C30_6 1_555 1_555
H23_6 C31_6 1_555 1_555
C32_6 N2_6 1_555 1_555
H24_6 C32_6 1_555 1_555
C38_6 N4_6 1_555 1_555
H29_6 C38_6 1_555 1_555
C39_6 C38_6 1_555 1_555
H30_6 C39_6 1_555 1_555
C40_6 C39_6 1_555 1_555
C41_6 C40_6 1_555 1_555
H31_6 C41_6 1_555 1_555
C42_6 N4_6 1_555 1_555
H32_6 C42_6 1_555 1_555
C48_6 O7_6 1_555 1_555
C49_6 C48_6 1_555 1_555
C50_6 C49_6 1_555 1_555
H37_6 C50_6 1_555 1_555
C51_6 C50_6 1_555 1_555
H38_6 C51_6 1_555 1_555
C52_6 C51_6 1_555 1_555
H39_6 C52_6 1_555 1_555
C53_6 C52_6 1_555 1_555
C54_6 C49_6 1_555 1_555
H40_6 C54_6 1_555 1_555
C70_7 O13_4 1_555 1_555
C71_7 H53_7 1_555 1_555
C72_7 C70_7 1_555 1_555
C73_7 C72_7 1_555 1_555
H54_7 C73_7 1_555 1_555
C74_7 C73_7 1_555 1_555
C75_7 C74_7 1_555 1_555
H55_7 C75_7 1_555 1_555
C76_7 C71_7 1_555 1_555
H56_7 C76_7 1_555 1_555
C77_7 O15_7 1_555 1_555
H57_7 C77_7 1_555 1_555
H58_7 C77_7 1_555 1_555
C78_7 C77_7 1_555 1_555
C79_7 C78_7 1_555 1_555
H59_7 C79_7 1_555 1_555
C80_7 C78_7 1_555 1_555
H60_7 C80_7 1_555 1_555
O22_7 C103_7 1_555 1_555
O23_7 C103_7 1_555 1_555
O24_7 C107_7 1_555 1_555
C103_7 C105_7 1_555 1_555
C104_7 H77_7 1_555 1_555
C105_7 C104_7 1_555 1_555
C106_7 C105_7 1_555 1_555
H78_7 C106_7 1_555 1_555
C107_7 C106_7 1_555 1_555
C108_7 C107_7 1_555 1_555
H79_7 C108_7 1_555 1_555
C109_7 C104_7 1_555 1_555
H80_7 C109_7 1_555 1_555
C110_7 O24_7 1_555 1_555
H81_7 C110_7 1_555 1_555
H82_7 C110_7 1_555 1_555
C111_7 C110_7 1_555 1_555
C112_7 C80_7 1_555 1_555
H83_7 C112_7 1_555 1_555
C113_7 C79_7 1_555 1_555
H84_7 C113_7 1_555 1_555
N7_6 C119_6 1_555 1_555
C119_6 H89_6 1_555 1_555
C120_6 C119_6 1_555 1_555
H90_6 C120_6 1_555 1_555
C121_6 C30_6 1_555 1_555
C122_6 C121_6 1_555 1_555
H91_6 C122_6 1_555 1_555
C123_6 N7_6 1_555 1_555
H92_6 C123_6 1_555 1_555
N9_6 C129_6 1_555 1_555
C129_6 H97_6 1_555 1_555
C130_6 C129_6 1_555 1_555
H98_6 C130_6 1_555 1_555
C131_6 C40_6 1_555 1_555
C132_6 C131_6 1_555 1_555
H99_6 C132_6 1_555 1_555
C133_6 N9_6 1_555 1_555
H100_6 C133_6 1_555 1_555
Cu8_3 N7_6 1_555 1_555
O29_4 C160_6 1_555 1_555
O30_4 C160_6 1_555 1_555
H112_6 C149_6 1_555 1_555
C154_6 O28_6 1_555 1_555
C155_6 C154_6 1_555 1_555
H117_6 C155_6 1_555 1_555
C156_6 C155_6 1_555 1_555
C157_6 C156_6 1_555 1_555
H118_6 C157_6 1_555 1_555
C158_6 C157_6 1_555 1_555
H119_6 C158_6 1_555 1_555
C159_6 C154_6 1_555 1_555
H120_6 C159_6 1_555 1_555
C160_6 C156_6 1_555 1_555
Cu12_7 O22_7 1_555 1_555
N13_7 Cu2_7 1_555 1_555
O8_6 C48_6 1_555 1_555
O14_4 C70_7 1_555 1_555
C11_6 C12_6 1_555 1_555
C18_6 C19_6 1_555 1_555
C23_6 C27_6 1_555 1_555
C25_6 C26_6 1_555 1_555
C31_6 C32_6 1_555 1_555
C41_6 C42_6 1_555 1_555
C53_6 C54_6 1_555 1_555
C71_7 C72_7 1_555 1_555
C75_7 C76_7 1_555 1_555
O23_7 Cu12_7 1_555 1_555
C108_7 C109_7 1_555 1_555
C111_7 C112_7 1_555 1_555
C111_7 C113_7 1_555 1_555
C120_6 C121_6 1_555 1_555
C122_6 C123_6 1_555 1_555
C130_6 C131_6 1_555 1_555
C132_6 C133_6 1_555 1_555
O29_4 Cu9_9 1_555 1_555
O30_4 Cu9_9 1_555 1_555
C158_6 C159_6 1_555 1_555
O27_6 C144_6 1_555 1_555
C139_6 O25_6 1_555 1_555
C140_6 C139_6 1_555 1_555
C141_6 C140_6 1_555 1_555
H105_6 C141_6 1_555 1_555
C142_6 C141_6 1_555 1_555
H106_6 C142_6 1_555 1_555
C143_6 C142_6 1_555 1_555
H107_6 C143_6 1_555 1_555
C144_6 C143_6 1_555 1_555
C145_6 C140_6 1_555 1_555
H108_6 C145_6 1_555 1_555
C146_6 O27_6 1_555 1_555
H109_6 C146_6 1_555 1_555
H110_6 C146_6 1_555 1_555
C147_6 C146_6 1_555 1_555
C148_6 C147_6 1_555 1_555
H111_6 C148_6 1_555 1_555
C151_6 C150_6 1_555 1_555
H113_6 C151_6 1_555 1_555
C152_6 C147_6 1_555 1_555
H114_6 C152_6 1_555 1_555
C153_6 C150_6 1_555 1_555
H115_6 C153_6 1_555 1_555
H116_6 C153_6 1_555 1_555
O38_4 Cu11_2 1_555 1_555
C144_6 C145_6 1_555 1_555
C151_6 C152_6 1_555 1_555
O15_8 C74_8 1_555 1_555
C70_8 O37_4 1_555 1_555
C71_8 H53_8 1_555 1_555
C72_8 C70_8 1_555 1_555
C73_8 C72_8 1_555 1_555
H54_8 C73_8 1_555 1_555
C74_8 C73_8 1_555 1_555
C75_8 C74_8 1_555 1_555
H55_8 C75_8 1_555 1_555
C76_8 C71_8 1_555 1_555
H56_8 C76_8 1_555 1_555
C77_8 O15_8 1_555 1_555
H58_8 C77_8 1_555 1_555
C78_8 C77_8 1_555 1_555
C79_8 C78_8 1_555 1_555
H59_8 C79_8 1_555 1_555
C113_8 C79_8 1_555 1_555
H84_8 C113_8 1_555 1_555
C71_8 C72_8 1_555 1_555
C75_8 C76_8 1_555 1_555
O23_8 Cu12_8 1_555 1_555
O31_8 Cu9_10 1_555 1_555
O32_8 Cu9_10 1_555 1_555
H60_8 C80_8 1_555 1_555
O22_8 C103_8 1_555 1_555
O24_8 C107_8 1_555 1_555
C103_8 C105_8 1_555 1_555
C104_8 H77_8 1_555 1_555
C105_8 C104_8 1_555 1_555
C106_8 C105_8 1_555 1_555
H78_8 C106_8 1_555 1_555
C107_8 C106_8 1_555 1_555
C108_8 C107_8 1_555 1_555
H79_8 C108_8 1_555 1_555
C109_8 C104_8 1_555 1_555
H80_8 C109_8 1_555 1_555
C110_8 O24_8 1_555 1_555
H82_8 C110_8 1_555 1_555
C111_8 C110_8 1_555 1_555
C112_8 C80_8 1_555 1_555
H83_8 C112_8 1_555 1_555
N13_8 Cu9_11 1_555 1_555
C108_8 C109_8 1_555 1_555
C111_8 C112_8 1_555 1_555
C66_7 O12_7 1_555 1_555
H49_7 C66_7 1_555 1_555
C67_7 C66_7 1_555 1_555
C68_7 C67_7 1_555 1_555
H51_7 C68_7 1_555 1_555
C69_7 C67_7 1_555 1_555
H52_7 C69_7 1_555 1_555
O19_7 C92_7 1_555 1_555
O20_7 C92_7 1_555 1_555
O21_7 C97_7 1_555 1_555
C92_7 C93_7 1_555 1_555
C93_7 C94_7 1_555 1_555
C94_7 H69_7 1_555 1_555
C95_7 C94_7 1_555 1_555
H70_7 C95_7 1_555 1_555
C96_7 C95_7 1_555 1_555
H71_7 C96_7 1_555 1_555
C97_7 C96_7 1_555 1_555
C98_7 C93_7 1_555 1_555
H72_7 C98_7 1_555 1_555
C99_7 O21_7 1_555 1_555
H73_7 C99_7 1_555 1_555
H74_7 C99_7 1_555 1_555
C100_7 C99_7 1_555 1_555
C101_7 C69_7 1_555 1_555
H75_7 C101_7 1_555 1_555
C102_7 C68_7 1_555 1_555
H76_7 C102_7 1_555 1_555
O31_6 C160_7 1_555 1_555
H113_7 C151_7 1_555 1_555
C154_7 O28_7 1_555 1_555
C155_7 C154_7 1_555 1_555
C156_7 C155_7 1_555 1_555
C157_7 C156_7 1_555 1_555
H118_7 C157_7 1_555 1_555
C158_7 C157_7 1_555 1_555
H119_7 C158_7 1_555 1_555
C159_7 C154_7 1_555 1_555
H120_7 C159_7 1_555 1_555
C160_7 C156_7 1_555 1_555
Cu12_8 O19_7 1_555 1_555
O33_3 Cu4_2 1_555 1_555
O34_3 Cu4_2 1_555 1_555
N11_4 Cu4_2 1_555 1_555
O20_7 Cu12_8 1_555 1_555
C97_7 C98_7 1_555 1_555
C100_7 C101_7 1_555 1_555
C100_7 C102_7 1_555 1_555
C158_7 C159_7 1_555 1_555
Cu1_4 O1_7 1_555 1_555
Cu12_7 O10_4 1_555 1_555
O1_7 C6_7 1_555 1_555
O2_7 C6_7 1_555 1_555
O3_7 C11_7 1_555 1_555
O4_7 C20_7 1_555 1_555
O31_7 C27_7 1_555 1_555
O7_7 Cu1_4 1_555 1_555
O8_7 Cu1_4 1_555 1_555
O9_7 C53_7 1_555 1_555
O10_4 Cu1_4 1_555 1_555
O11_4 Cu12_7 1_555 1_555
N1_4 Cu1_4 1_555 1_555
N2_7 Cu1_4 1_555 1_555
N3_4 Cu12_7 1_555 1_555
N4_7 Cu12_7 1_555 1_555
C6_7 C7_7 1_555 1_555
C7_7 C8_7 1_555 1_555
C8_7 H5_7 1_555 1_555
C9_7 C8_7 1_555 1_555
H6_7 C9_7 1_555 1_555
C10_7 C9_7 1_555 1_555
H7_7 C10_7 1_555 1_555
C11_7 C10_7 1_555 1_555
C12_7 C7_7 1_555 1_555
H8_7 C12_7 1_555 1_555
C13_7 O3_7 1_555 1_555
H9_7 C13_7 1_555 1_555
H10_7 C13_7 1_555 1_555
C14_7 C13_7 1_555 1_555
C15_7 C14_7 1_555 1_555
H11_7 C15_7 1_555 1_555
C16_7 C15_7 1_555 1_555
H12_7 C16_7 1_555 1_555
C17_7 C16_7 1_555 1_555
C18_7 C17_7 1_555 1_555
H13_7 C18_7 1_555 1_555
C19_7 C14_7 1_555 1_555
H14_7 C19_7 1_555 1_555
C20_7 C17_7 1_555 1_555
H15_7 C20_7 1_555 1_555
H16_7 C20_7 1_555 1_555
C21_7 O4_7 1_555 1_555
C22_7 C21_7 1_555 1_555
H17_7 C22_7 1_555 1_555
C23_7 C22_7 1_555 1_555
C24_7 C23_7 1_555 1_555
H18_7 C24_7 1_555 1_555
C25_7 C24_7 1_555 1_555
H19_7 C25_7 1_555 1_555
C26_7 C21_7 1_555 1_555
H20_7 C26_7 1_555 1_555
C27_7 O32_7 1_555 1_555
C28_7 N2_7 1_555 1_555
H21_7 C28_7 1_555 1_555
C29_7 C28_7 1_555 1_555
H22_7 C29_7 1_555 1_555
C30_7 C29_7 1_555 1_555
C31_7 C30_7 1_555 1_555
H23_7 C31_7 1_555 1_555
C32_7 N2_7 1_555 1_555
H24_7 C32_7 1_555 1_555
C33_7 N1_4 1_555 1_555
H25_7 C33_7 1_555 1_555
C34_7 C33_7 1_555 1_555
H26_7 C34_7 1_555 1_555
C35_7 C34_7 1_555 1_555
C36_7 C35_7 1_555 1_555
H27_7 C36_7 1_555 1_555
C37_7 N1_4 1_555 1_555
H28_7 C37_7 1_555 1_555
C38_7 N4_7 1_555 1_555
H29_7 C38_7 1_555 1_555
C39_7 C38_7 1_555 1_555
H30_7 C39_7 1_555 1_555
C40_7 C39_7 1_555 1_555
C41_7 C40_7 1_555 1_555
H31_7 C41_7 1_555 1_555
C42_7 N4_7 1_555 1_555
H32_7 C42_7 1_555 1_555
C43_7 N3_4 1_555 1_555
H33_7 C43_7 1_555 1_555
C44_7 C43_7 1_555 1_555
H34_7 C44_7 1_555 1_555
C45_7 C44_7 1_555 1_555
C46_7 C45_7 1_555 1_555
H35_7 C46_7 1_555 1_555
C47_7 N3_4 1_555 1_555
H36_7 C47_7 1_555 1_555
C48_7 O7_7 1_555 1_555
C49_7 C48_7 1_555 1_555
C50_7 C49_7 1_555 1_555
H37_7 C50_7 1_555 1_555
C51_7 C50_7 1_555 1_555
H38_7 C51_7 1_555 1_555
C52_7 C51_7 1_555 1_555
H39_7 C52_7 1_555 1_555
C53_7 C52_7 1_555 1_555
C54_7 C49_7 1_555 1_555
H40_7 C54_7 1_555 1_555
C55_7 O9_7 1_555 1_555
H41_7 C55_7 1_555 1_555
H42_7 C55_7 1_555 1_555
C56_7 C55_7 1_555 1_555
C57_7 C56_7 1_555 1_555
H43_7 C57_7 1_555 1_555
C58_7 C56_7 1_555 1_555
H44_7 C58_7 1_555 1_555
C59_7 O10_4 1_555 1_555
C60_7 C59_7 1_555 1_555
C61_7 C60_7 1_555 1_555
H45_7 C61_7 1_555 1_555
C62_7 C61_7 1_555 1_555
H46_7 C62_7 1_555 1_555
C63_7 C62_7 1_555 1_555
H47_7 C63_7 1_555 1_555
C64_7 C63_7 1_555 1_555
C65_7 C60_7 1_555 1_555
H48_7 C65_7 1_555 1_555
O33_3 C81_7 1_555 1_555
O34_3 C81_7 1_555 1_555
O18_7 C86_7 1_555 1_555
C81_7 C82_7 1_555 1_555
C82_7 C83_7 1_555 1_555
C83_7 H61_7 1_555 1_555
C84_7 C83_7 1_555 1_555
H62_7 C84_7 1_555 1_555
C85_7 C84_7 1_555 1_555
H63_7 C85_7 1_555 1_555
C86_7 C85_7 1_555 1_555
C87_7 C82_7 1_555 1_555
H64_7 C87_7 1_555 1_555
C88_7 O18_7 1_555 1_555
H65_7 C88_7 1_555 1_555
H66_7 C88_7 1_555 1_555
C89_7 C88_7 1_555 1_555
C90_7 C58_7 1_555 1_555
H67_7 C90_7 1_555 1_555
C91_7 C57_7 1_555 1_555
H68_7 C91_7 1_555 1_555
N6_7 C114_7 1_555 1_555
C114_7 H85_7 1_555 1_555
C115_7 C114_7 1_555 1_555
H86_7 C115_7 1_555 1_555
C116_7 C35_7 1_555 1_555
C117_7 C116_7 1_555 1_555
H87_7 C117_7 1_555 1_555
C118_7 N6_7 1_555 1_555
H88_7 C118_7 1_555 1_555
N7_7 C119_7 1_555 1_555
C119_7 H89_7 1_555 1_555
C120_7 C119_7 1_555 1_555
H90_7 C120_7 1_555 1_555
C121_7 C30_7 1_555 1_555
C122_7 C121_7 1_555 1_555
H91_7 C122_7 1_555 1_555
C123_7 N7_7 1_555 1_555
N8_7 C124_7 1_555 1_555
C124_7 H93_7 1_555 1_555
C125_7 C124_7 1_555 1_555
H94_7 C125_7 1_555 1_555
C126_7 C45_7 1_555 1_555
C127_7 C126_7 1_555 1_555
H95_7 C127_7 1_555 1_555
C128_7 N8_7 1_555 1_555
H96_7 C128_7 1_555 1_555
N9_7 C129_7 1_555 1_555
C129_7 H97_7 1_555 1_555
C130_7 C129_7 1_555 1_555
H98_7 C130_7 1_555 1_555
C131_7 C40_7 1_555 1_555
C132_7 C131_7 1_555 1_555
H99_7 C132_7 1_555 1_555
C133_7 N9_7 1_555 1_555
Cu12_6 N9_7 1_555 1_555
O27_7 C144_7 1_555 1_555
C139_7 O25_7 1_555 1_555
C140_7 C139_7 1_555 1_555
C141_7 C140_7 1_555 1_555
H105_7 C141_7 1_555 1_555
C142_7 C141_7 1_555 1_555
H106_7 C142_7 1_555 1_555
C143_7 C142_7 1_555 1_555
H107_7 C143_7 1_555 1_555
C144_7 C143_7 1_555 1_555
C145_7 C140_7 1_555 1_555
C146_7 O27_7 1_555 1_555
H109_7 C146_7 1_555 1_555
H110_7 C146_7 1_555 1_555
C147_7 C146_7 1_555 1_555
C148_7 C147_7 1_555 1_555
H111_7 C148_7 1_555 1_555
C149_7 C148_7 1_555 1_555
H112_7 C149_7 1_555 1_555
C150_7 C149_7 1_555 1_555
C152_7 C147_7 1_555 1_555
C153_7 C150_7 1_555 1_555
H116_7 C153_7 1_555 1_555
Cu12_8 N8_7 1_555 1_555
O36_4 Cu12_6 1_555 1_555
O8_7 C48_7 1_555 1_555
O11_4 C59_7 1_555 1_555
C11_7 C12_7 1_555 1_555
C18_7 C19_7 1_555 1_555
C23_7 C27_7 1_555 1_555
C25_7 C26_7 1_555 1_555
C31_7 C32_7 1_555 1_555
C36_7 C37_7 1_555 1_555
C41_7 C42_7 1_555 1_555
C46_7 C47_7 1_555 1_555
C53_7 C54_7 1_555 1_555
C64_7 C65_7 1_555 1_555
C86_7 C87_7 1_555 1_555
C89_7 C90_7 1_555 1_555
C89_7 C91_7 1_555 1_555
C115_7 C116_7 1_555 1_555
C117_7 C118_7 1_555 1_555
C120_7 C121_7 1_555 1_555
C122_7 C123_7 1_555 1_555
C125_7 C126_7 1_555 1_555
C127_7 C128_7 1_555 1_555
C130_7 C131_7 1_555 1_555
C132_7 C133_7 1_555 1_555
Cu12_6 O35_4 1_555 1_555
C144_7 C145_7 1_555 1_555
C1_7 N13_7 1_555 1_555
H1_7 C1_7 1_555 1_555
C2_7 C1_7 1_555 1_555
H2_7 C2_7 1_555 1_555
C3_7 C2_7 1_555 1_555
C4_7 C3_7 1_555 1_555
H3_7 C4_7 1_555 1_555
C5_7 N13_7 1_555 1_555
N13_6 C134_7 1_555 1_555
C134_7 H101_7 1_555 1_555
C135_7 C134_7 1_555 1_555
H102_7 C135_7 1_555 1_555
C136_7 C3_7 1_555 1_555
C137_7 C136_7 1_555 1_555
H103_7 C137_7 1_555 1_555
C138_7 N13_6 1_555 1_555
C4_7 C5_7 1_555 1_555
C135_7 C136_7 1_555 1_555
C137_7 C138_7 1_555 1_555
C33_8 N11_4 1_555 1_555
C34_8 C33_8 1_555 1_555
H26_8 C34_8 1_555 1_555
C35_8 C34_8 1_555 1_555
C36_8 C35_8 1_555 1_555
H27_8 C36_8 1_555 1_555
C37_8 N11_4 1_555 1_555
H28_8 C37_8 1_555 1_555
C43_8 N12_4 1_555 1_555
C44_8 C43_8 1_555 1_555
H34_8 C44_8 1_555 1_555
C45_8 C44_8 1_555 1_555
C46_8 C45_8 1_555 1_555
H35_8 C46_8 1_555 1_555
C47_8 N12_4 1_555 1_555
H36_8 C47_8 1_555 1_555
N6_8 C114_8 1_555 1_555
C114_8 H85_8 1_555 1_555
C115_8 C114_8 1_555 1_555
H86_8 C115_8 1_555 1_555
C116_8 C35_8 1_555 1_555
C117_8 C116_8 1_555 1_555
H87_8 C117_8 1_555 1_555
C118_8 N6_8 1_555 1_555
H88_8 C118_8 1_555 1_555
N8_8 C124_8 1_555 1_555
C124_8 H93_8 1_555 1_555
C125_8 C124_8 1_555 1_555
H94_8 C125_8 1_555 1_555
C126_8 C45_8 1_555 1_555
C127_8 C126_8 1_555 1_555
H95_8 C127_8 1_555 1_555
C128_8 N8_8 1_555 1_555
H96_8 C128_8 1_555 1_555
Cu8_4 N6_8 1_555 1_555
Cu12_5 N8_8 1_555 1_555
C36_8 C37_8 1_555 1_555
C46_8 C47_8 1_555 1_555
C115_8 C116_8 1_555 1_555
C117_8 C118_8 1_555 1_555
C125_8 C126_8 1_555 1_555
C127_8 C128_8 1_555 1_555
O12_8 C64_8 1_555 1_555
C59_8 O35_4 1_555 1_555
C60_8 C59_8 1_555 1_555
C61_8 C60_8 1_555 1_555
H45_8 C61_8 1_555 1_555
C62_8 C61_8 1_555 1_555
H46_8 C62_8 1_555 1_555
C63_8 C62_8 1_555 1_555
H47_8 C63_8 1_555 1_555
C64_8 C63_8 1_555 1_555
C65_8 C60_8 1_555 1_555
H48_8 C65_8 1_555 1_555
C66_8 O12_8 1_555 1_555
H49_8 C66_8 1_555 1_555
H50_8 C66_8 1_555 1_555
C67_8 C66_8 1_555 1_555
C68_8 C67_8 1_555 1_555
H51_8 C68_8 1_555 1_555
C69_8 C67_8 1_555 1_555
H52_8 C69_8 1_555 1_555
O19_8 C92_8 1_555 1_555
O20_8 C92_8 1_555 1_555
O21_8 C97_8 1_555 1_555
C92_8 C93_8 1_555 1_555
C93_8 C94_8 1_555 1_555
C94_8 H69_8 1_555 1_555
C95_8 C94_8 1_555 1_555
H70_8 C95_8 1_555 1_555
C96_8 C95_8 1_555 1_555
H71_8 C96_8 1_555 1_555
C97_8 C96_8 1_555 1_555
C98_8 C93_8 1_555 1_555
H72_8 C98_8 1_555 1_555
C99_8 O21_8 1_555 1_555
H73_8 C99_8 1_555 1_555
H74_8 C99_8 1_555 1_555
C100_8 C99_8 1_555 1_555
C101_8 C69_8 1_555 1_555
H75_8 C101_8 1_555 1_555
C102_8 C68_8 1_555 1_555
H76_8 C102_8 1_555 1_555
Cu8_4 O19_8 1_555 1_555
Cu12_5 O19_8 1_555 1_555
O36_4 C59_8 1_555 1_555
C64_8 C65_8 1_555 1_555
O20_8 Cu12_5 1_555 1_555
C97_8 C98_8 1_555 1_555
C100_8 C101_8 1_555 1_555
C100_8 C102_8 1_555 1_555
O27_8 C144_8 1_555 1_555
C139_8 O25_8 1_555 1_555
C140_8 C139_8 1_555 1_555
C141_8 C140_8 1_555 1_555
H105_8 C141_8 1_555 1_555
C142_8 C141_8 1_555 1_555
H106_8 C142_8 1_555 1_555
C143_8 C142_8 1_555 1_555
H107_8 C143_8 1_555 1_555
C144_8 C143_8 1_555 1_555
C145_8 C140_8 1_555 1_555
H108_8 C145_8 1_555 1_555
C146_8 O27_8 1_555 1_555
H109_8 C146_8 1_555 1_555
H110_8 C146_8 1_555 1_555
C147_8 C146_8 1_555 1_555
C148_8 C147_8 1_555 1_555
H111_8 C148_8 1_555 1_555
C151_8 C150_8 1_555 1_555
H113_8 C151_8 1_555 1_555
C152_8 C147_8 1_555 1_555
H114_8 C152_8 1_555 1_555
C153_8 C150_8 1_555 1_555
H115_8 C153_8 1_555 1_555
H116_8 C153_8 1_555 1_555
C144_8 C145_8 1_555 1_555
C151_8 C152_8 1_555 1_555
Cu8_4 O1_8 1_555 1_555
O1_8 C6_8 1_555 1_555
O2_8 C6_8 1_555 1_555
O3_8 C11_8 1_555 1_555
O4_8 C20_8 1_555 1_555
O31_5 C27_8 1_555 1_555
O7_8 Cu8_4 1_555 1_555
O8_8 Cu8_4 1_555 1_555
N2_8 Cu8_4 1_555 1_555
N4_8 Cu12_5 1_555 1_555
C6_8 C7_8 1_555 1_555
C7_8 C8_8 1_555 1_555
C8_8 H5_8 1_555 1_555
C9_8 C8_8 1_555 1_555
H6_8 C9_8 1_555 1_555
C10_8 C9_8 1_555 1_555
H7_8 C10_8 1_555 1_555
C11_8 C10_8 1_555 1_555
C12_8 C7_8 1_555 1_555
H8_8 C12_8 1_555 1_555
C13_8 O3_8 1_555 1_555
H9_8 C13_8 1_555 1_555
H10_8 C13_8 1_555 1_555
C14_8 C13_8 1_555 1_555
C15_8 C14_8 1_555 1_555
H11_8 C15_8 1_555 1_555
C16_8 C15_8 1_555 1_555
H12_8 C16_8 1_555 1_555
C17_8 C16_8 1_555 1_555
C18_8 C17_8 1_555 1_555
H13_8 C18_8 1_555 1_555
C19_8 C14_8 1_555 1_555
H14_8 C19_8 1_555 1_555
C20_8 C17_8 1_555 1_555
H15_8 C20_8 1_555 1_555
H16_8 C20_8 1_555 1_555
C21_8 O4_8 1_555 1_555
C22_8 C21_8 1_555 1_555
H17_8 C22_8 1_555 1_555
C23_8 C22_8 1_555 1_555
C24_8 C23_8 1_555 1_555
H18_8 C24_8 1_555 1_555
C25_8 C24_8 1_555 1_555
H19_8 C25_8 1_555 1_555
C26_8 C21_8 1_555 1_555
H20_8 C26_8 1_555 1_555
C27_8 O32_5 1_555 1_555
C28_8 N2_8 1_555 1_555
H21_8 C28_8 1_555 1_555
C29_8 C28_8 1_555 1_555
H22_8 C29_8 1_555 1_555
C30_8 C29_8 1_555 1_555
C31_8 C30_8 1_555 1_555
H23_8 C31_8 1_555 1_555
C32_8 N2_8 1_555 1_555
H24_8 C32_8 1_555 1_555
C38_8 N4_8 1_555 1_555
H29_8 C38_8 1_555 1_555
C39_8 C38_8 1_555 1_555
H30_8 C39_8 1_555 1_555
C40_8 C39_8 1_555 1_555
C41_8 C40_8 1_555 1_555
H31_8 C41_8 1_555 1_555
C42_8 N4_8 1_555 1_555
H32_8 C42_8 1_555 1_555
C48_8 O7_8 1_555 1_555
C49_8 C48_8 1_555 1_555
C50_8 C49_8 1_555 1_555
H37_8 C50_8 1_555 1_555
C51_8 C50_8 1_555 1_555
H38_8 C51_8 1_555 1_555
C52_8 C51_8 1_555 1_555
H39_8 C52_8 1_555 1_555
C53_8 C52_8 1_555 1_555
C54_8 C49_8 1_555 1_555
H40_8 C54_8 1_555 1_555
N7_8 C119_8 1_555 1_555
C119_8 H89_8 1_555 1_555
C120_8 C119_8 1_555 1_555
H90_8 C120_8 1_555 1_555
C121_8 C30_8 1_555 1_555
C122_8 C121_8 1_555 1_555
H91_8 C122_8 1_555 1_555
C123_8 N7_8 1_555 1_555
H92_8 C123_8 1_555 1_555
N9_8 C129_8 1_555 1_555
C129_8 H97_8 1_555 1_555
C130_8 C129_8 1_555 1_555
H98_8 C130_8 1_555 1_555
C131_8 C40_8 1_555 1_555
C132_8 C131_8 1_555 1_555
H99_8 C132_8 1_555 1_555
C133_8 N9_8 1_555 1_555
H100_8 C133_8 1_555 1_555
Cu7_4 N7_8 1_555 1_555
O31_8 C160_8 1_555 1_555
O32_8 C160_8 1_555 1_555
H112_8 C149_8 1_555 1_555
C154_8 O28_8 1_555 1_555
C155_8 C154_8 1_555 1_555
H117_8 C155_8 1_555 1_555
C156_8 C155_8 1_555 1_555
C157_8 C156_8 1_555 1_555
H118_8 C157_8 1_555 1_555
C158_8 C157_8 1_555 1_555
H119_8 C158_8 1_555 1_555
C159_8 C154_8 1_555 1_555
H120_8 C159_8 1_555 1_555
C160_8 C156_8 1_555 1_555
O33_4 Cu7_4 1_555 1_555
O34_4 Cu7_4 1_555 1_555
O8_8 C48_8 1_555 1_555
C11_8 C12_8 1_555 1_555
C18_8 C19_8 1_555 1_555
C23_8 C27_8 1_555 1_555
C25_8 C26_8 1_555 1_555
C31_8 C32_8 1_555 1_555
C41_8 C42_8 1_555 1_555
C53_8 C54_8 1_555 1_555
C120_8 C121_8 1_555 1_555
C122_8 C123_8 1_555 1_555
C130_8 C131_8 1_555 1_555
C132_8 C133_8 1_555 1_555
C158_8 C159_8 1_555 1_555
C1_8 N13_5 1_555 1_555
H1_8 C1_8 1_555 1_555
C2_8 C1_8 1_555 1_555
H2_8 C2_8 1_555 1_555
C3_8 C2_8 1_555 1_555
C4_8 C3_8 1_555 1_555
H3_8 C4_8 1_555 1_555
C5_8 N13_5 1_555 1_555
N13_8 C134_8 1_555 1_555
C134_8 H101_8 1_555 1_555
C135_8 C134_8 1_555 1_555
H102_8 C135_8 1_555 1_555
C136_8 C3_8 1_555 1_555
C137_8 C136_8 1_555 1_555
H103_8 C137_8 1_555 1_555
C138_8 N13_8 1_555 1_555
C4_8 C5_8 1_555 1_555
C135_8 C136_8 1_555 1_555
C137_8 C138_8 1_555 1_555
C55_8 O9_8 1_555 1_555
H42_8 C55_8 1_555 1_555
C56_8 C55_8 1_555 1_555
C57_8 C56_8 1_555 1_555
H43_8 C57_8 1_555 1_555
C58_8 C56_8 1_555 1_555
H44_8 C58_8 1_555 1_555
O33_4 C81_8 1_555 1_555
O34_4 C81_8 1_555 1_555
O18_8 C86_8 1_555 1_555
C81_8 C82_8 1_555 1_555
C82_8 C83_8 1_555 1_555
C83_8 H61_8 1_555 1_555
C84_8 C83_8 1_555 1_555
H62_8 C84_8 1_555 1_555
C85_8 C84_8 1_555 1_555
H63_8 C85_8 1_555 1_555
C86_8 C85_8 1_555 1_555
C87_8 C82_8 1_555 1_555
H64_8 C87_8 1_555 1_555
C88_8 O18_8 1_555 1_555
H65_8 C88_8 1_555 1_555
H66_8 C88_8 1_555 1_555
C89_8 C88_8 1_555 1_555
C90_8 C58_8 1_555 1_555
H67_8 C90_8 1_555 1_555
C91_8 C57_8 1_555 1_555
H68_8 C91_8 1_555 1_555
C86_8 C87_8 1_555 1_555
C89_8 C90_8 1_555 1_555
C89_8 C91_8 1_555 1_555
O7_9 Cu1_5 1_555 1_555
O8_9 Cu1_5 1_555 1_555
O9_9 C53_9 1_555 1_555
O15_9 C74_9 1_555 1_555
N2_9 Cu1_5 1_555 1_555
C28_9 N2_9 1_555 1_555
H21_9 C28_9 1_555 1_555
C29_9 C28_9 1_555 1_555
H22_9 C29_9 1_555 1_555
C30_9 C29_9 1_555 1_555
C31_9 C30_9 1_555 1_555
H23_9 C31_9 1_555 1_555
C32_9 N2_9 1_555 1_555
H24_9 C32_9 1_555 1_555
C38_9 N4_9 1_555 1_555
H29_9 C38_9 1_555 1_555
C39_9 C38_9 1_555 1_555
H30_9 C39_9 1_555 1_555
C40_9 C39_9 1_555 1_555
C41_9 C40_9 1_555 1_555
H31_9 C41_9 1_555 1_555
C42_9 N4_9 1_555 1_555
H32_9 C42_9 1_555 1_555
C48_9 O7_9 1_555 1_555
C49_9 C48_9 1_555 1_555
C50_9 C49_9 1_555 1_555
H37_9 C50_9 1_555 1_555
C51_9 C50_9 1_555 1_555
H38_9 C51_9 1_555 1_555
C52_9 C51_9 1_555 1_555
H39_9 C52_9 1_555 1_555
C53_9 C52_9 1_555 1_555
C54_9 C49_9 1_555 1_555
H40_9 C54_9 1_555 1_555
C55_9 O9_9 1_555 1_555
H41_9 C55_9 1_555 1_555
H42_9 C55_9 1_555 1_555
C56_9 C55_9 1_555 1_555
C57_9 C56_9 1_555 1_555
H43_9 C57_9 1_555 1_555
C58_9 C56_9 1_555 1_555
H44_9 C58_9 1_555 1_555
C70_9 O13_5 1_555 1_555
C71_9 H53_9 1_555 1_555
C72_9 C70_9 1_555 1_555
C73_9 C72_9 1_555 1_555
H54_9 C73_9 1_555 1_555
C74_9 C73_9 1_555 1_555
C75_9 C74_9 1_555 1_555
H55_9 C75_9 1_555 1_555
C76_9 C71_9 1_555 1_555
H56_9 C76_9 1_555 1_555
C77_9 O15_9 1_555 1_555
H58_9 C77_9 1_555 1_555
C78_9 C77_9 1_555 1_555
C79_9 C78_9 1_555 1_555
H59_9 C79_9 1_555 1_555
O16_5 C81_9 1_555 1_555
O17_5 C81_9 1_555 1_555
O18_9 C86_9 1_555 1_555
C81_9 C82_9 1_555 1_555
C82_9 C83_9 1_555 1_555
C83_9 H61_9 1_555 1_555
C84_9 C83_9 1_555 1_555
H62_9 C84_9 1_555 1_555
C85_9 C84_9 1_555 1_555
H63_9 C85_9 1_555 1_555
C86_9 C85_9 1_555 1_555
C87_9 C82_9 1_555 1_555
H64_9 C87_9 1_555 1_555
C88_9 O18_9 1_555 1_555
H65_9 C88_9 1_555 1_555
H66_9 C88_9 1_555 1_555
C89_9 C88_9 1_555 1_555
C90_9 C58_9 1_555 1_555
H67_9 C90_9 1_555 1_555
C91_9 C57_9 1_555 1_555
H68_9 C91_9 1_555 1_555
C113_9 C79_9 1_555 1_555
H84_9 C113_9 1_555 1_555
N7_9 C119_9 1_555 1_555
C119_9 H89_9 1_555 1_555
C120_9 C119_9 1_555 1_555
H90_9 C120_9 1_555 1_555
C121_9 C30_9 1_555 1_555
C122_9 C121_9 1_555 1_555
H91_9 C122_9 1_555 1_555
C123_9 N7_9 1_555 1_555
N9_9 C129_9 1_555 1_555
C129_9 H97_9 1_555 1_555
C130_9 C129_9 1_555 1_555
H98_9 C130_9 1_555 1_555
C131_9 C40_9 1_555 1_555
C132_9 C131_9 1_555 1_555
H99_9 C132_9 1_555 1_555
C133_9 N9_9 1_555 1_555
Cu5_3 N9_9 1_555 1_555
C139_9 O25_9 1_555 1_555
Cu6_3 O16_5 1_555 1_555
O36_5 Cu5_3 1_555 1_555
O38_5 Cu5_3 1_555 1_555
O8_9 C48_9 1_555 1_555
C31_9 C32_9 1_555 1_555
C41_9 C42_9 1_555 1_555
C53_9 C54_9 1_555 1_555
C71_9 C72_9 1_555 1_555
C75_9 C76_9 1_555 1_555
O17_5 Cu6_3 1_555 1_555
C86_9 C87_9 1_555 1_555
C89_9 C90_9 1_555 1_555
C89_9 C91_9 1_555 1_555
O23_9 Cu12_9 1_555 1_555
C120_9 C121_9 1_555 1_555
C122_9 C123_9 1_555 1_555
C130_9 C131_9 1_555 1_555
C132_9 C133_9 1_555 1_555
Cu5_3 O35_5 1_555 1_555
Cu2_8 O5_5 1_555 1_555
O5_5 C27_9 1_555 1_555
O6_5 Cu2_8 1_555 1_555
N5_5 Cu2_8 1_555 1_555
C1_9 N5_5 1_555 1_555
H1_9 C1_9 1_555 1_555
C2_9 C1_9 1_555 1_555
H2_9 C2_9 1_555 1_555
C3_9 C2_9 1_555 1_555
C4_9 C3_9 1_555 1_555
H3_9 C4_9 1_555 1_555
C5_9 N5_5 1_555 1_555
H4_9 C5_9 1_555 1_555
H12_9 C16_9 1_555 1_555
C21_9 O4_9 1_555 1_555
C22_9 C21_9 1_555 1_555
H17_9 C22_9 1_555 1_555
C23_9 C22_9 1_555 1_555
C24_9 C23_9 1_555 1_555
H18_9 C24_9 1_555 1_555
C25_9 C24_9 1_555 1_555
H19_9 C25_9 1_555 1_555
C26_9 C21_9 1_555 1_555
H20_9 C26_9 1_555 1_555
C27_9 O6_5 1_555 1_555
N10_5 C134_9 1_555 1_555
C134_9 H101_9 1_555 1_555
C135_9 C134_9 1_555 1_555
H102_9 C135_9 1_555 1_555
C136_9 C3_9 1_555 1_555
C137_9 C136_9 1_555 1_555
H103_9 C137_9 1_555 1_555
C138_9 N10_5 1_555 1_555
O27_9 C144_9 1_555 1_555
C141_9 C140_9 1_555 1_555
C142_9 C141_9 1_555 1_555
H106_9 C142_9 1_555 1_555
C143_9 C142_9 1_555 1_555
H107_9 C143_9 1_555 1_555
C144_9 C143_9 1_555 1_555
C145_9 C140_9 1_555 1_555
C146_9 O27_9 1_555 1_555
H109_9 C146_9 1_555 1_555
H110_9 C146_9 1_555 1_555
C147_9 C146_9 1_555 1_555
C148_9 C147_9 1_555 1_555
H111_9 C148_9 1_555 1_555
C149_9 C148_9 1_555 1_555
H112_9 C149_9 1_555 1_555
C150_9 C149_9 1_555 1_555
C152_9 C147_9 1_555 1_555
C153_9 C150_9 1_555 1_555
H116_9 C153_9 1_555 1_555
Cu9_12 N10_5 1_555 1_555
C4_9 C5_9 1_555 1_555
C23_9 C27_9 1_555 1_555
C25_9 C26_9 1_555 1_555
C135_9 C136_9 1_555 1_555
C137_9 C138_9 1_555 1_555
O30_5 Cu9_12 1_555 1_555
C144_9 C145_9 1_555 1_555
Cu3_3 O10_5 1_555 1_555
O1_9 C6_9 1_555 1_555
O11_5 Cu3_3 1_555 1_555
O14_5 Cu3_3 1_555 1_555
N3_5 Cu3_3 1_555 1_555
C33_9 N1_5 1_555 1_555
H25_9 C33_9 1_555 1_555
C34_9 C33_9 1_555 1_555
H26_9 C34_9 1_555 1_555
C35_9 C34_9 1_555 1_555
C36_9 C35_9 1_555 1_555
H27_9 C36_9 1_555 1_555
C37_9 N1_5 1_555 1_555
H28_9 C37_9 1_555 1_555
C43_9 N3_5 1_555 1_555
H33_9 C43_9 1_555 1_555
C44_9 C43_9 1_555 1_555
H34_9 C44_9 1_555 1_555
C45_9 C44_9 1_555 1_555
C46_9 C45_9 1_555 1_555
H35_9 C46_9 1_555 1_555
C47_9 N3_5 1_555 1_555
H36_9 C47_9 1_555 1_555
C59_9 O10_5 1_555 1_555
C60_9 C59_9 1_555 1_555
C61_9 C60_9 1_555 1_555
H45_9 C61_9 1_555 1_555
C62_9 C61_9 1_555 1_555
H46_9 C62_9 1_555 1_555
C63_9 C62_9 1_555 1_555
H47_9 C63_9 1_555 1_555
C64_9 C63_9 1_555 1_555
C65_9 C60_9 1_555 1_555
H48_9 C65_9 1_555 1_555
H60_9 C80_9 1_555 1_555
O22_9 C103_9 1_555 1_555
O24_9 C107_9 1_555 1_555
C103_9 C105_9 1_555 1_555
C104_9 H77_9 1_555 1_555
C105_9 C104_9 1_555 1_555
C106_9 C105_9 1_555 1_555
H78_9 C106_9 1_555 1_555
C107_9 C106_9 1_555 1_555
C108_9 C107_9 1_555 1_555
H79_9 C108_9 1_555 1_555
C109_9 C104_9 1_555 1_555
H80_9 C109_9 1_555 1_555
C110_9 O24_9 1_555 1_555
H82_9 C110_9 1_555 1_555
C111_9 C110_9 1_555 1_555
C112_9 C80_9 1_555 1_555
H83_9 C112_9 1_555 1_555
N6_9 C114_9 1_555 1_555
C114_9 H85_9 1_555 1_555
C115_9 C114_9 1_555 1_555
H86_9 C115_9 1_555 1_555
C116_9 C35_9 1_555 1_555
C117_9 C116_9 1_555 1_555
H87_9 C117_9 1_555 1_555
C118_9 N6_9 1_555 1_555
H88_9 C118_9 1_555 1_555
N8_9 C124_9 1_555 1_555
C124_9 H93_9 1_555 1_555
C125_9 C124_9 1_555 1_555
H94_9 C125_9 1_555 1_555
C126_9 C45_9 1_555 1_555
C127_9 C126_9 1_555 1_555
H95_9 C127_9 1_555 1_555
C128_9 N8_9 1_555 1_555
H96_9 C128_9 1_555 1_555
Cu8_5 N6_9 1_555 1_555
Cu11_3 N8_9 1_555 1_555
O11_5 C59_9 1_555 1_555
C36_9 C37_9 1_555 1_555
C46_9 C47_9 1_555 1_555
C64_9 C65_9 1_555 1_555
C108_9 C109_9 1_555 1_555
C111_9 C112_9 1_555 1_555
C115_9 C116_9 1_555 1_555
C117_9 C118_9 1_555 1_555
C125_9 C126_9 1_555 1_555
C127_9 C128_9 1_555 1_555
O3_9 C11_9 1_555 1_555
C7_9 C8_9 1_555 1_555
C9_9 C8_9 1_555 1_555
H6_9 C9_9 1_555 1_555
C10_9 C9_9 1_555 1_555
H7_9 C10_9 1_555 1_555
C11_9 C10_9 1_555 1_555
C12_9 C7_9 1_555 1_555
H8_9 C12_9 1_555 1_555
C13_9 O3_9 1_555 1_555
H9_9 C13_9 1_555 1_555
H10_9 C13_9 1_555 1_555
C14_9 C13_9 1_555 1_555
C15_9 C14_9 1_555 1_555
H11_9 C15_9 1_555 1_555
C18_9 C17_9 1_555 1_555
H13_9 C18_9 1_555 1_555
C19_9 C14_9 1_555 1_555
H14_9 C19_9 1_555 1_555
C20_9 C17_9 1_555 1_555
H15_9 C20_9 1_555 1_555
H16_9 C20_9 1_555 1_555
O31_9 Cu2_9 1_555 1_555
O32_9 Cu2_9 1_555 1_555
N13_9 Cu2_9 1_555 1_555
C11_9 C12_9 1_555 1_555
C18_9 C19_9 1_555 1_555
N11_5 Cu6_3 1_555 1_555
O29_5 C160_9 1_555 1_555
H113_9 C151_9 1_555 1_555
C154_9 O28_9 1_555 1_555
C155_9 C154_9 1_555 1_555
C156_9 C155_9 1_555 1_555
C157_9 C156_9 1_555 1_555
H118_9 C157_9 1_555 1_555
C158_9 C157_9 1_555 1_555
H119_9 C158_9 1_555 1_555
C159_9 C154_9 1_555 1_555
H120_9 C159_9 1_555 1_555
C160_9 C156_9 1_555 1_555
O29_5 Cu9_13 1_555 1_555
C158_9 C159_9 1_555 1_555
C66_9 O12_9 1_555 1_555
H49_9 C66_9 1_555 1_555
C67_9 C66_9 1_555 1_555
C68_9 C67_9 1_555 1_555
H51_9 C68_9 1_555 1_555
C69_9 C67_9 1_555 1_555
H52_9 C69_9 1_555 1_555
O19_9 C92_9 1_555 1_555
O20_9 C92_9 1_555 1_555
O21_9 C97_9 1_555 1_555
C92_9 C93_9 1_555 1_555
C93_9 C94_9 1_555 1_555
C94_9 H69_9 1_555 1_555
C95_9 C94_9 1_555 1_555
H70_9 C95_9 1_555 1_555
C96_9 C95_9 1_555 1_555
H71_9 C96_9 1_555 1_555
C97_9 C96_9 1_555 1_555
C98_9 C93_9 1_555 1_555
H72_9 C98_9 1_555 1_555
C99_9 O21_9 1_555 1_555
H73_9 C99_9 1_555 1_555
H74_9 C99_9 1_555 1_555
C100_9 C99_9 1_555 1_555
C101_9 C69_9 1_555 1_555
H75_9 C101_9 1_555 1_555
C102_9 C68_9 1_555 1_555
H76_9 C102_9 1_555 1_555
Cu8_5 O19_9 1_555 1_555
Cu11_3 O19_9 1_555 1_555
O20_9 Cu11_3 1_555 1_555
C97_9 C98_9 1_555 1_555
C100_9 C101_9 1_555 1_555
C100_9 C102_9 1_555 1_555
O12_10 C64_10 1_555 1_555
C59_10 O35_5 1_555 1_555
C60_10 C59_10 1_555 1_555
C61_10 C60_10 1_555 1_555
H45_10 C61_10 1_555 1_555
C62_10 C61_10 1_555 1_555
H46_10 C62_10 1_555 1_555
C63_10 C62_10 1_555 1_555
H47_10 C63_10 1_555 1_555
C64_10 C63_10 1_555 1_555
C65_10 C60_10 1_555 1_555
H48_10 C65_10 1_555 1_555
C66_10 O12_10 1_555 1_555
H49_10 C66_10 1_555 1_555
H50_10 C66_10 1_555 1_555
C67_10 C66_10 1_555 1_555
C68_10 C67_10 1_555 1_555
H51_10 C68_10 1_555 1_555
C69_10 C67_10 1_555 1_555
H52_10 C69_10 1_555 1_555
H58_10 C77_10 1_555 1_555
C78_10 C77_10 1_555 1_555
C80_10 C78_10 1_555 1_555
H60_10 C80_10 1_555 1_555
O19_10 C92_10 1_555 1_555
O20_10 C92_10 1_555 1_555
O21_10 C97_10 1_555 1_555
C92_10 C93_10 1_555 1_555
C93_10 C94_10 1_555 1_555
C94_10 H69_10 1_555 1_555
C95_10 C94_10 1_555 1_555
H70_10 C95_10 1_555 1_555
C96_10 C95_10 1_555 1_555
H71_10 C96_10 1_555 1_555
C97_10 C96_10 1_555 1_555
C98_10 C93_10 1_555 1_555
H72_10 C98_10 1_555 1_555
C99_10 O21_10 1_555 1_555
H73_10 C99_10 1_555 1_555
H74_10 C99_10 1_555 1_555
C100_10 C99_10 1_555 1_555
C101_10 C69_10 1_555 1_555
H75_10 C101_10 1_555 1_555
C102_10 C68_10 1_555 1_555
H76_10 C102_10 1_555 1_555
O22_10 C103_10 1_555 1_555
O24_10 C107_10 1_555 1_555
C103_10 C105_10 1_555 1_555
C104_10 H77_10 1_555 1_555
C105_10 C104_10 1_555 1_555
C106_10 C105_10 1_555 1_555
C107_10 C106_10 1_555 1_555
C108_10 C107_10 1_555 1_555
H79_10 C108_10 1_555 1_555
C109_10 C104_10 1_555 1_555
H80_10 C109_10 1_555 1_555
C112_10 C80_10 1_555 1_555
H83_10 C112_10 1_555 1_555
Cu7_5 O19_10 1_555 1_555
Cu10_3 O19_10 1_555 1_555
O36_5 C59_10 1_555 1_555
C64_10 C65_10 1_555 1_555
O20_10 Cu10_3 1_555 1_555
C97_10 C98_10 1_555 1_555
C100_10 C101_10 1_555 1_555
C100_10 C102_10 1_555 1_555
C108_10 C109_10 1_555 1_555
O31_10 Cu9_12 1_555 1_555
O15_10 C74_10 1_555 1_555
C33_10 N11_5 1_555 1_555
C34_10 C33_10 1_555 1_555
H26_10 C34_10 1_555 1_555
C35_10 C34_10 1_555 1_555
C36_10 C35_10 1_555 1_555
H27_10 C36_10 1_555 1_555
C37_10 N11_5 1_555 1_555
H28_10 C37_10 1_555 1_555
C43_10 N12_5 1_555 1_555
C44_10 C43_10 1_555 1_555
H34_10 C44_10 1_555 1_555
C45_10 C44_10 1_555 1_555
C46_10 C45_10 1_555 1_555
H35_10 C46_10 1_555 1_555
C47_10 N12_5 1_555 1_555
H36_10 C47_10 1_555 1_555
C70_10 O37_5 1_555 1_555
C71_10 H53_10 1_555 1_555
C72_10 C70_10 1_555 1_555
C73_10 C72_10 1_555 1_555
C74_10 C73_10 1_555 1_555
C75_10 C74_10 1_555 1_555
H55_10 C75_10 1_555 1_555
C76_10 C71_10 1_555 1_555
H56_10 C76_10 1_555 1_555
H59_10 C79_10 1_555 1_555
H82_10 C110_10 1_555 1_555
C111_10 C110_10 1_555 1_555
C113_10 C79_10 1_555 1_555
H84_10 C113_10 1_555 1_555
N6_10 C114_10 1_555 1_555
C114_10 H85_10 1_555 1_555
C115_10 C114_10 1_555 1_555
H86_10 C115_10 1_555 1_555
C116_10 C35_10 1_555 1_555
C117_10 C116_10 1_555 1_555
H87_10 C117_10 1_555 1_555
C118_10 N6_10 1_555 1_555
H88_10 C118_10 1_555 1_555
N8_10 C124_10 1_555 1_555
C124_10 H93_10 1_555 1_555
C125_10 C124_10 1_555 1_555
H94_10 C125_10 1_555 1_555
C126_10 C45_10 1_555 1_555
C127_10 C126_10 1_555 1_555
H95_10 C127_10 1_555 1_555
C128_10 N8_10 1_555 1_555
H96_10 C128_10 1_555 1_555
Cu7_5 N6_10 1_555 1_555
Cu10_3 N8_10 1_555 1_555
C36_10 C37_10 1_555 1_555
C46_10 C47_10 1_555 1_555
C71_10 C72_10 1_555 1_555
C75_10 C76_10 1_555 1_555
O23_10 Cu12_10 1_555 1_555
C111_10 C113_10 1_555 1_555
C115_10 C116_10 1_555 1_555
C117_10 C118_10 1_555 1_555
C125_10 C126_10 1_555 1_555
C127_10 C128_10 1_555 1_555
O32_10 Cu9_13 1_555 1_555
N13_10 Cu9_13 1_555 1_555
C55_10 O9_10 1_555 1_555
H42_10 C55_10 1_555 1_555
C56_10 C55_10 1_555 1_555
C57_10 C56_10 1_555 1_555
H43_10 C57_10 1_555 1_555
C58_10 C56_10 1_555 1_555
H44_10 C58_10 1_555 1_555
O16_6 C81_10 1_555 1_555
O17_6 C81_10 1_555 1_555
O18_10 C86_10 1_555 1_555
C81_10 C82_10 1_555 1_555
C82_10 C83_10 1_555 1_555
C83_10 H61_10 1_555 1_555
C84_10 C83_10 1_555 1_555
H62_10 C84_10 1_555 1_555
C85_10 C84_10 1_555 1_555
H63_10 C85_10 1_555 1_555
C86_10 C85_10 1_555 1_555
C87_10 C82_10 1_555 1_555
H64_10 C87_10 1_555 1_555
C88_10 O18_10 1_555 1_555
H65_10 C88_10 1_555 1_555
H66_10 C88_10 1_555 1_555
C89_10 C88_10 1_555 1_555
C90_10 C58_10 1_555 1_555
H67_10 C90_10 1_555 1_555
C91_10 C57_10 1_555 1_555
H68_10 C91_10 1_555 1_555
Cu8_5 O16_6 1_555 1_555
O17_6 Cu8_5 1_555 1_555
C86_10 C87_10 1_555 1_555
C89_10 C90_10 1_555 1_555
C89_10 C91_10 1_555 1_555
Cu7_5 O1_10 1_555 1_555
O1_10 C6_10 1_555 1_555
O2_10 C6_10 1_555 1_555
O7_10 Cu7_5 1_555 1_555
O8_10 Cu7_5 1_555 1_555
O13_6 Cu10_3 1_555 1_555
O14_6 Cu10_3 1_555 1_555
O15_11 C74_11 1_555 1_555
N2_10 Cu7_5 1_555 1_555
N4_10 Cu10_3 1_555 1_555
C28_10 N2_10 1_555 1_555
H21_10 C28_10 1_555 1_555
C29_10 C28_10 1_555 1_555
H22_10 C29_10 1_555 1_555
C30_10 C29_10 1_555 1_555
C31_10 C30_10 1_555 1_555
H23_10 C31_10 1_555 1_555
C32_10 N2_10 1_555 1_555
H24_10 C32_10 1_555 1_555
C38_10 N4_10 1_555 1_555
H29_10 C38_10 1_555 1_555
C39_10 C38_10 1_555 1_555
H30_10 C39_10 1_555 1_555
C40_10 C39_10 1_555 1_555
C41_10 C40_10 1_555 1_555
H31_10 C41_10 1_555 1_555
C42_10 N4_10 1_555 1_555
H32_10 C42_10 1_555 1_555
C48_10 O7_10 1_555 1_555
C49_10 C48_10 1_555 1_555
C50_10 C49_10 1_555 1_555
H37_10 C50_10 1_555 1_555
C51_10 C50_10 1_555 1_555
H38_10 C51_10 1_555 1_555
C52_10 C51_10 1_555 1_555
H39_10 C52_10 1_555 1_555
C53_10 C52_10 1_555 1_555
C54_10 C49_10 1_555 1_555
H40_10 C54_10 1_555 1_555
C70_11 O13_6 1_555 1_555
C71_11 H53_11 1_555 1_555
C72_11 C70_11 1_555 1_555
C73_11 C72_11 1_555 1_555
H54_11 C73_11 1_555 1_555
C74_11 C73_11 1_555 1_555
C75_11 C74_11 1_555 1_555
H55_11 C75_11 1_555 1_555
C76_11 C71_11 1_555 1_555
H56_11 C76_11 1_555 1_555
C77_11 O15_11 1_555 1_555
H57_11 C77_11 1_555 1_555
H58_11 C77_11 1_555 1_555
C78_11 C77_11 1_555 1_555
C79_11 C78_11 1_555 1_555
H59_11 C79_11 1_555 1_555
C80_11 C78_11 1_555 1_555
H60_11 C80_11 1_555 1_555
O22_11 C103_11 1_555 1_555
O23_11 C103_11 1_555 1_555
O24_11 C107_11 1_555 1_555
C103_11 C105_11 1_555 1_555
C104_11 H77_11 1_555 1_555
C105_11 C104_11 1_555 1_555
C106_11 C105_11 1_555 1_555
H78_11 C106_11 1_555 1_555
C107_11 C106_11 1_555 1_555
C108_11 C107_11 1_555 1_555
H79_11 C108_11 1_555 1_555
C109_11 C104_11 1_555 1_555
H80_11 C109_11 1_555 1_555
C110_11 O24_11 1_555 1_555
H81_11 C110_11 1_555 1_555
H82_11 C110_11 1_555 1_555
C111_11 C110_11 1_555 1_555
C112_11 C80_11 1_555 1_555
H83_11 C112_11 1_555 1_555
C113_11 C79_11 1_555 1_555
H84_11 C113_11 1_555 1_555
N7_10 C119_10 1_555 1_555
C119_10 H89_10 1_555 1_555
C120_10 C119_10 1_555 1_555
H90_10 C120_10 1_555 1_555
C121_10 C30_10 1_555 1_555
C122_10 C121_10 1_555 1_555
H91_10 C122_10 1_555 1_555
C123_10 N7_10 1_555 1_555
H92_10 C123_10 1_555 1_555
N9_10 C129_10 1_555 1_555
C129_10 H97_10 1_555 1_555
C130_10 C129_10 1_555 1_555
H98_10 C130_10 1_555 1_555
C131_10 C40_10 1_555 1_555
C132_10 C131_10 1_555 1_555
H99_10 C132_10 1_555 1_555
C133_10 N9_10 1_555 1_555
H100_10 C133_10 1_555 1_555
Cu8_5 N7_10 1_555 1_555
Cu11_3 N9_10 1_555 1_555
O25_10 Cu8_5 1_555 1_555
O26_10 C139_10 1_555 1_555
C139_10 O25_10 1_555 1_555
Cu12_11 O22_11 1_555 1_555
O37_6 Cu11_3 1_555 1_555
O38_6 Cu11_3 1_555 1_555
O8_10 C48_10 1_555 1_555
O14_6 C70_11 1_555 1_555
C31_10 C32_10 1_555 1_555
C41_10 C42_10 1_555 1_555
C53_10 C54_10 1_555 1_555
C71_11 C72_11 1_555 1_555
C75_11 C76_11 1_555 1_555
O23_11 Cu12_11 1_555 1_555
C108_11 C109_11 1_555 1_555
C111_11 C112_11 1_555 1_555
C111_11 C113_11 1_555 1_555
C120_10 C121_10 1_555 1_555
C122_10 C123_10 1_555 1_555
C130_10 C131_10 1_555 1_555
C132_10 C133_10 1_555 1_555
Cu2_10 O5_6 1_555 1_555
O3_10 C11_10 1_555 1_555
O4_10 C20_10 1_555 1_555
O5_6 C27_10 1_555 1_555
O6_6 Cu2_10 1_555 1_555
N5_6 Cu2_10 1_555 1_555
C1_10 N5_6 1_555 1_555
H1_10 C1_10 1_555 1_555
C2_10 C1_10 1_555 1_555
H2_10 C2_10 1_555 1_555
C3_10 C2_10 1_555 1_555
C4_10 C3_10 1_555 1_555
H3_10 C4_10 1_555 1_555
C5_10 N5_6 1_555 1_555
H4_10 C5_10 1_555 1_555
C7_10 C8_10 1_555 1_555
C9_10 C8_10 1_555 1_555
H6_10 C9_10 1_555 1_555
C10_10 C9_10 1_555 1_555
H7_10 C10_10 1_555 1_555
C11_10 C10_10 1_555 1_555
C12_10 C7_10 1_555 1_555
H8_10 C12_10 1_555 1_555
C13_10 O3_10 1_555 1_555
H9_10 C13_10 1_555 1_555
H10_10 C13_10 1_555 1_555
C14_10 C13_10 1_555 1_555
C15_10 C14_10 1_555 1_555
H11_10 C15_10 1_555 1_555
C16_10 C15_10 1_555 1_555
H12_10 C16_10 1_555 1_555
C17_10 C16_10 1_555 1_555
C18_10 C17_10 1_555 1_555
H13_10 C18_10 1_555 1_555
C19_10 C14_10 1_555 1_555
H14_10 C19_10 1_555 1_555
C20_10 C17_10 1_555 1_555
H15_10 C20_10 1_555 1_555
H16_10 C20_10 1_555 1_555
C21_10 O4_10 1_555 1_555
C22_10 C21_10 1_555 1_555
H17_10 C22_10 1_555 1_555
C23_10 C22_10 1_555 1_555
C24_10 C23_10 1_555 1_555
H18_10 C24_10 1_555 1_555
C25_10 C24_10 1_555 1_555
H19_10 C25_10 1_555 1_555
C26_10 C21_10 1_555 1_555
H20_10 C26_10 1_555 1_555
C27_10 O6_6 1_555 1_555
N10_6 C134_10 1_555 1_555
C134_10 H101_10 1_555 1_555
C135_10 C134_10 1_555 1_555
H102_10 C135_10 1_555 1_555
C136_10 C3_10 1_555 1_555
C137_10 C136_10 1_555 1_555
H103_10 C137_10 1_555 1_555
C138_10 N10_6 1_555 1_555
H104_10 C138_10 1_555 1_555
O27_10 C144_10 1_555 1_555
O28_10 C153_10 1_555 1_555
O29_6 C160_10 1_555 1_555
O30_6 C160_10 1_555 1_555
C141_10 C140_10 1_555 1_555
C142_10 C141_10 1_555 1_555
H106_10 C142_10 1_555 1_555
C143_10 C142_10 1_555 1_555
H107_10 C143_10 1_555 1_555
C144_10 C143_10 1_555 1_555
C145_10 C140_10 1_555 1_555
H108_10 C145_10 1_555 1_555
C146_10 O27_10 1_555 1_555
H109_10 C146_10 1_555 1_555
H110_10 C146_10 1_555 1_555
C147_10 C146_10 1_555 1_555
C148_10 C147_10 1_555 1_555
H111_10 C148_10 1_555 1_555
C149_10 C148_10 1_555 1_555
H112_10 C149_10 1_555 1_555
C150_10 C149_10 1_555 1_555
C151_10 C150_10 1_555 1_555
H113_10 C151_10 1_555 1_555
C152_10 C147_10 1_555 1_555
H114_10 C152_10 1_555 1_555
C153_10 C150_10 1_555 1_555
H115_10 C153_10 1_555 1_555
H116_10 C153_10 1_555 1_555
C154_10 O28_10 1_555 1_555
C155_10 C154_10 1_555 1_555
H117_10 C155_10 1_555 1_555
C156_10 C155_10 1_555 1_555
C157_10 C156_10 1_555 1_555
H118_10 C157_10 1_555 1_555
C158_10 C157_10 1_555 1_555
H119_10 C158_10 1_555 1_555
C159_10 C154_10 1_555 1_555
H120_10 C159_10 1_555 1_555
C160_10 C156_10 1_555 1_555
Cu9_14 N10_6 1_555 1_555
O31_11 Cu2_10 1_555 1_555
O32_11 Cu2_10 1_555 1_555
N13_11 Cu2_10 1_555 1_555
C4_10 C5_10 1_555 1_555
C11_10 C12_10 1_555 1_555
C18_10 C19_10 1_555 1_555
C23_10 C27_10 1_555 1_555
C25_10 C26_10 1_555 1_555
C135_10 C136_10 1_555 1_555
C137_10 C138_10 1_555 1_555
O29_6 Cu9_14 1_555 1_555
O30_6 Cu9_14 1_555 1_555
C144_10 C145_10 1_555 1_555
C151_10 C152_10 1_555 1_555
C158_10 C159_10 1_555 1_555
O15_12 C74_12 1_555 1_555
C70_12 O37_6 1_555 1_555
C71_12 H53_12 1_555 1_555
C72_12 C70_12 1_555 1_555
C73_12 C72_12 1_555 1_555
H54_12 C73_12 1_555 1_555
C74_12 C73_12 1_555 1_555
C75_12 C74_12 1_555 1_555
H55_12 C75_12 1_555 1_555
C76_12 C71_12 1_555 1_555
H56_12 C76_12 1_555 1_555
C77_12 O15_12 1_555 1_555
H57_12 C77_12 1_555 1_555
H58_12 C77_12 1_555 1_555
C78_12 C77_12 1_555 1_555
C79_12 C78_12 1_555 1_555
H59_12 C79_12 1_555 1_555
C80_12 C78_12 1_555 1_555
H60_12 C80_12 1_555 1_555
O22_12 C103_12 1_555 1_555
O23_12 C103_12 1_555 1_555
O24_12 C107_12 1_555 1_555
C103_12 C105_12 1_555 1_555
C104_12 H77_12 1_555 1_555
C105_12 C104_12 1_555 1_555
C106_12 C105_12 1_555 1_555
H78_12 C106_12 1_555 1_555
C107_12 C106_12 1_555 1_555
C108_12 C107_12 1_555 1_555
H79_12 C108_12 1_555 1_555
C109_12 C104_12 1_555 1_555
H80_12 C109_12 1_555 1_555
C110_12 O24_12 1_555 1_555
H81_12 C110_12 1_555 1_555
H82_12 C110_12 1_555 1_555
C111_12 C110_12 1_555 1_555
C112_12 C80_12 1_555 1_555
H83_12 C112_12 1_555 1_555
C113_12 C79_12 1_555 1_555
H84_12 C113_12 1_555 1_555
Cu12_12 O22_12 1_555 1_555
O38_6 C70_12 1_555 1_555
C71_12 C72_12 1_555 1_555
C75_12 C76_12 1_555 1_555
O23_12 Cu12_12 1_555 1_555
C108_12 C109_12 1_555 1_555
C111_12 C112_12 1_555 1_555
C111_12 C113_12 1_555 1_555
O31_12 Cu9_14 1_555 1_555
O32_12 Cu9_14 1_555 1_555
N13_12 Cu9_14 1_555 1_555
C66_11 O12_11 1_555 1_555
H49_11 C66_11 1_555 1_555
C67_11 C66_11 1_555 1_555
C68_11 C67_11 1_555 1_555
H51_11 C68_11 1_555 1_555
C69_11 C67_11 1_555 1_555
H52_11 C69_11 1_555 1_555
O19_11 C92_11 1_555 1_555
O20_11 C92_11 1_555 1_555
O21_11 C97_11 1_555 1_555
C92_11 C93_11 1_555 1_555
C93_11 C94_11 1_555 1_555
C94_11 H69_11 1_555 1_555
C95_11 C94_11 1_555 1_555
H70_11 C95_11 1_555 1_555
C96_11 C95_11 1_555 1_555
H71_11 C96_11 1_555 1_555
C97_11 C96_11 1_555 1_555
C98_11 C93_11 1_555 1_555
H72_11 C98_11 1_555 1_555
C99_11 O21_11 1_555 1_555
H73_11 C99_11 1_555 1_555
H74_11 C99_11 1_555 1_555
C100_11 C99_11 1_555 1_555
C101_11 C69_11 1_555 1_555
H75_11 C101_11 1_555 1_555
C102_11 C68_11 1_555 1_555
H76_11 C102_11 1_555 1_555
O31_10 C160_11 1_555 1_555
H113_11 C151_11 1_555 1_555
C154_11 O28_11 1_555 1_555
C155_11 C154_11 1_555 1_555
C156_11 C155_11 1_555 1_555
C157_11 C156_11 1_555 1_555
H118_11 C157_11 1_555 1_555
C158_11 C157_11 1_555 1_555
H119_11 C158_11 1_555 1_555
C159_11 C154_11 1_555 1_555
H120_11 C159_11 1_555 1_555
C160_11 C156_11 1_555 1_555
Cu7_6 O19_11 1_555 1_555
Cu12_12 O19_11 1_555 1_555
O33_5 Cu4_3 1_555 1_555
O34_5 Cu4_3 1_555 1_555
N11_6 Cu4_3 1_555 1_555
O20_11 Cu12_12 1_555 1_555
C97_11 C98_11 1_555 1_555
C100_11 C101_11 1_555 1_555
C100_11 C102_11 1_555 1_555
C158_11 C159_11 1_555 1_555
Cu1_6 O1_11 1_555 1_555
Cu12_11 O10_6 1_555 1_555
O1_11 C6_11 1_555 1_555
O2_11 C6_11 1_555 1_555
O3_11 C11_11 1_555 1_555
O4_11 C20_11 1_555 1_555
O31_11 C27_11 1_555 1_555
O7_11 Cu1_6 1_555 1_555
O8_11 Cu1_6 1_555 1_555
O9_11 C53_11 1_555 1_555
O10_6 Cu1_6 1_555 1_555
O11_6 Cu12_11 1_555 1_555
N1_6 Cu1_6 1_555 1_555
N2_11 Cu1_6 1_555 1_555
N3_6 Cu12_11 1_555 1_555
N4_11 Cu12_11 1_555 1_555
C1_11 N13_11 1_555 1_555
H1_11 C1_11 1_555 1_555
C2_11 C1_11 1_555 1_555
H2_11 C2_11 1_555 1_555
C3_11 C2_11 1_555 1_555
C4_11 C3_11 1_555 1_555
H3_11 C4_11 1_555 1_555
C5_11 N13_11 1_555 1_555
H4_11 C5_11 1_555 1_555
C6_11 C7_11 1_555 1_555
C7_11 C8_11 1_555 1_555
C8_11 H5_11 1_555 1_555
C9_11 C8_11 1_555 1_555
H6_11 C9_11 1_555 1_555
C10_11 C9_11 1_555 1_555
H7_11 C10_11 1_555 1_555
C11_11 C10_11 1_555 1_555
C12_11 C7_11 1_555 1_555
H8_11 C12_11 1_555 1_555
C13_11 O3_11 1_555 1_555
H9_11 C13_11 1_555 1_555
H10_11 C13_11 1_555 1_555
C14_11 C13_11 1_555 1_555
C15_11 C14_11 1_555 1_555
H11_11 C15_11 1_555 1_555
C16_11 C15_11 1_555 1_555
H12_11 C16_11 1_555 1_555
C17_11 C16_11 1_555 1_555
C18_11 C17_11 1_555 1_555
H13_11 C18_11 1_555 1_555
C19_11 C14_11 1_555 1_555
H14_11 C19_11 1_555 1_555
C20_11 C17_11 1_555 1_555
H15_11 C20_11 1_555 1_555
H16_11 C20_11 1_555 1_555
C21_11 O4_11 1_555 1_555
C22_11 C21_11 1_555 1_555
H17_11 C22_11 1_555 1_555
C23_11 C22_11 1_555 1_555
C24_11 C23_11 1_555 1_555
H18_11 C24_11 1_555 1_555
C25_11 C24_11 1_555 1_555
H19_11 C25_11 1_555 1_555
C26_11 C21_11 1_555 1_555
H20_11 C26_11 1_555 1_555
C27_11 O32_11 1_555 1_555
C28_11 N2_11 1_555 1_555
H21_11 C28_11 1_555 1_555
C29_11 C28_11 1_555 1_555
H22_11 C29_11 1_555 1_555
C30_11 C29_11 1_555 1_555
C31_11 C30_11 1_555 1_555
H23_11 C31_11 1_555 1_555
C32_11 N2_11 1_555 1_555
H24_11 C32_11 1_555 1_555
C33_11 N1_6 1_555 1_555
H25_11 C33_11 1_555 1_555
C34_11 C33_11 1_555 1_555
H26_11 C34_11 1_555 1_555
C35_11 C34_11 1_555 1_555
C36_11 C35_11 1_555 1_555
H27_11 C36_11 1_555 1_555
C37_11 N1_6 1_555 1_555
H28_11 C37_11 1_555 1_555
C38_11 N4_11 1_555 1_555
H29_11 C38_11 1_555 1_555
C39_11 C38_11 1_555 1_555
H30_11 C39_11 1_555 1_555
C40_11 C39_11 1_555 1_555
C41_11 C40_11 1_555 1_555
H31_11 C41_11 1_555 1_555
C42_11 N4_11 1_555 1_555
H32_11 C42_11 1_555 1_555
C43_11 N3_6 1_555 1_555
H33_11 C43_11 1_555 1_555
C44_11 C43_11 1_555 1_555
H34_11 C44_11 1_555 1_555
C45_11 C44_11 1_555 1_555
C46_11 C45_11 1_555 1_555
H35_11 C46_11 1_555 1_555
C47_11 N3_6 1_555 1_555
H36_11 C47_11 1_555 1_555
C48_11 O7_11 1_555 1_555
C49_11 C48_11 1_555 1_555
C50_11 C49_11 1_555 1_555
H37_11 C50_11 1_555 1_555
C51_11 C50_11 1_555 1_555
H38_11 C51_11 1_555 1_555
C52_11 C51_11 1_555 1_555
H39_11 C52_11 1_555 1_555
C53_11 C52_11 1_555 1_555
C54_11 C49_11 1_555 1_555
H40_11 C54_11 1_555 1_555
C55_11 O9_11 1_555 1_555
H41_11 C55_11 1_555 1_555
H42_11 C55_11 1_555 1_555
C56_11 C55_11 1_555 1_555
C57_11 C56_11 1_555 1_555
H43_11 C57_11 1_555 1_555
C58_11 C56_11 1_555 1_555
H44_11 C58_11 1_555 1_555
C59_11 O10_6 1_555 1_555
C60_11 C59_11 1_555 1_555
C61_11 C60_11 1_555 1_555
H45_11 C61_11 1_555 1_555
C62_11 C61_11 1_555 1_555
H46_11 C62_11 1_555 1_555
C63_11 C62_11 1_555 1_555
H47_11 C63_11 1_555 1_555
C64_11 C63_11 1_555 1_555
C65_11 C60_11 1_555 1_555
H48_11 C65_11 1_555 1_555
O33_5 C81_11 1_555 1_555
O34_5 C81_11 1_555 1_555
O18_11 C86_11 1_555 1_555
C81_11 C82_11 1_555 1_555
C82_11 C83_11 1_555 1_555
C83_11 H61_11 1_555 1_555
C84_11 C83_11 1_555 1_555
H62_11 C84_11 1_555 1_555
C85_11 C84_11 1_555 1_555
H63_11 C85_11 1_555 1_555
C86_11 C85_11 1_555 1_555
C87_11 C82_11 1_555 1_555
H64_11 C87_11 1_555 1_555
C88_11 O18_11 1_555 1_555
H65_11 C88_11 1_555 1_555
H66_11 C88_11 1_555 1_555
C89_11 C88_11 1_555 1_555
C90_11 C58_11 1_555 1_555
H67_11 C90_11 1_555 1_555
C91_11 C57_11 1_555 1_555
H68_11 C91_11 1_555 1_555
N6_11 C114_11 1_555 1_555
C114_11 H85_11 1_555 1_555
C115_11 C114_11 1_555 1_555
H86_11 C115_11 1_555 1_555
C116_11 C35_11 1_555 1_555
C117_11 C116_11 1_555 1_555
H87_11 C117_11 1_555 1_555
C118_11 N6_11 1_555 1_555
H88_11 C118_11 1_555 1_555
N7_11 C119_11 1_555 1_555
C119_11 H89_11 1_555 1_555
C120_11 C119_11 1_555 1_555
H90_11 C120_11 1_555 1_555
C121_11 C30_11 1_555 1_555
C122_11 C121_11 1_555 1_555
H91_11 C122_11 1_555 1_555
C123_11 N7_11 1_555 1_555
N8_11 C124_11 1_555 1_555
C124_11 H93_11 1_555 1_555
C125_11 C124_11 1_555 1_555
H94_11 C125_11 1_555 1_555
C126_11 C45_11 1_555 1_555
C127_11 C126_11 1_555 1_555
H95_11 C127_11 1_555 1_555
C128_11 N8_11 1_555 1_555
H96_11 C128_11 1_555 1_555
N9_11 C129_11 1_555 1_555
C129_11 H97_11 1_555 1_555
C130_11 C129_11 1_555 1_555
H98_11 C130_11 1_555 1_555
C131_11 C40_11 1_555 1_555
C132_11 C131_11 1_555 1_555
H99_11 C132_11 1_555 1_555
C133_11 N9_11 1_555 1_555
N13_10 C134_11 1_555 1_555
C134_11 H101_11 1_555 1_555
C135_11 C134_11 1_555 1_555
H102_11 C135_11 1_555 1_555
C136_11 C3_11 1_555 1_555
C137_11 C136_11 1_555 1_555
H103_11 C137_11 1_555 1_555
C138_11 N13_10 1_555 1_555
Cu12_10 N9_11 1_555 1_555
O27_11 C144_11 1_555 1_555
C139_11 O25_11 1_555 1_555
C140_11 C139_11 1_555 1_555
C141_11 C140_11 1_555 1_555
H105_11 C141_11 1_555 1_555
C142_11 C141_11 1_555 1_555
H106_11 C142_11 1_555 1_555
C143_11 C142_11 1_555 1_555
H107_11 C143_11 1_555 1_555
C144_11 C143_11 1_555 1_555
C145_11 C140_11 1_555 1_555
C146_11 O27_11 1_555 1_555
H109_11 C146_11 1_555 1_555
H110_11 C146_11 1_555 1_555
C147_11 C146_11 1_555 1_555
C148_11 C147_11 1_555 1_555
H111_11 C148_11 1_555 1_555
C149_11 C148_11 1_555 1_555
H112_11 C149_11 1_555 1_555
C150_11 C149_11 1_555 1_555
C152_11 C147_11 1_555 1_555
C153_11 C150_11 1_555 1_555
H116_11 C153_11 1_555 1_555
Cu7_6 N6_11 1_555 1_555
Cu12_12 N8_11 1_555 1_555
O36_6 Cu12_10 1_555 1_555
O8_11 C48_11 1_555 1_555
O11_6 C59_11 1_555 1_555
C4_11 C5_11 1_555 1_555
C11_11 C12_11 1_555 1_555
C18_11 C19_11 1_555 1_555
C23_11 C27_11 1_555 1_555
C25_11 C26_11 1_555 1_555
C31_11 C32_11 1_555 1_555
C36_11 C37_11 1_555 1_555
C41_11 C42_11 1_555 1_555
C46_11 C47_11 1_555 1_555
C53_11 C54_11 1_555 1_555
C64_11 C65_11 1_555 1_555
C86_11 C87_11 1_555 1_555
C89_11 C90_11 1_555 1_555
C89_11 C91_11 1_555 1_555
C115_11 C116_11 1_555 1_555
C117_11 C118_11 1_555 1_555
C120_11 C121_11 1_555 1_555
C122_11 C123_11 1_555 1_555
C125_11 C126_11 1_555 1_555
C127_11 C128_11 1_555 1_555
C130_11 C131_11 1_555 1_555
C132_11 C133_11 1_555 1_555
C135_11 C136_11 1_555 1_555
C137_11 C138_11 1_555 1_555
Cu12_10 O35_6 1_555 1_555
C144_11 C145_11 1_555 1_555
C33_12 N11_6 1_555 1_555
C34_12 C33_12 1_555 1_555
H26_12 C34_12 1_555 1_555
C35_12 C34_12 1_555 1_555
C36_12 C35_12 1_555 1_555
H27_12 C36_12 1_555 1_555
C37_12 N11_6 1_555 1_555
H28_12 C37_12 1_555 1_555
C43_12 N12_6 1_555 1_555
C44_12 C43_12 1_555 1_555
H34_12 C44_12 1_555 1_555
C45_12 C44_12 1_555 1_555
C46_12 C45_12 1_555 1_555
H35_12 C46_12 1_555 1_555
C47_12 N12_6 1_555 1_555
H36_12 C47_12 1_555 1_555
N6_12 C114_12 1_555 1_555
C114_12 H85_12 1_555 1_555
C115_12 C114_12 1_555 1_555
H86_12 C115_12 1_555 1_555
C116_12 C35_12 1_555 1_555
C117_12 C116_12 1_555 1_555
H87_12 C117_12 1_555 1_555
C118_12 N6_12 1_555 1_555
H88_12 C118_12 1_555 1_555
N8_12 C124_12 1_555 1_555
C124_12 H93_12 1_555 1_555
C125_12 C124_12 1_555 1_555
H94_12 C125_12 1_555 1_555
C126_12 C45_12 1_555 1_555
C127_12 C126_12 1_555 1_555
H95_12 C127_12 1_555 1_555
C128_12 N8_12 1_555 1_555
H96_12 C128_12 1_555 1_555
Cu12_9 N8_12 1_555 1_555
C36_12 C37_12 1_555 1_555
C46_12 C47_12 1_555 1_555
C115_12 C116_12 1_555 1_555
C117_12 C118_12 1_555 1_555
C125_12 C126_12 1_555 1_555
C127_12 C128_12 1_555 1_555
O12_12 C64_12 1_555 1_555
C59_12 O35_6 1_555 1_555
C60_12 C59_12 1_555 1_555
C61_12 C60_12 1_555 1_555
H45_12 C61_12 1_555 1_555
C62_12 C61_12 1_555 1_555
H46_12 C62_12 1_555 1_555
C63_12 C62_12 1_555 1_555
H47_12 C63_12 1_555 1_555
C64_12 C63_12 1_555 1_555
C65_12 C60_12 1_555 1_555
H48_12 C65_12 1_555 1_555
C66_12 O12_12 1_555 1_555
H49_12 C66_12 1_555 1_555
H50_12 C66_12 1_555 1_555
C67_12 C66_12 1_555 1_555
C68_12 C67_12 1_555 1_555
H51_12 C68_12 1_555 1_555
C69_12 C67_12 1_555 1_555
H52_12 C69_12 1_555 1_555
O19_12 C92_12 1_555 1_555
O20_12 C92_12 1_555 1_555
O21_12 C97_12 1_555 1_555
C92_12 C93_12 1_555 1_555
C93_12 C94_12 1_555 1_555
C94_12 H69_12 1_555 1_555
C95_12 C94_12 1_555 1_555
H70_12 C95_12 1_555 1_555
C96_12 C95_12 1_555 1_555
H71_12 C96_12 1_555 1_555
C97_12 C96_12 1_555 1_555
C98_12 C93_12 1_555 1_555
H72_12 C98_12 1_555 1_555
C99_12 O21_12 1_555 1_555
H73_12 C99_12 1_555 1_555
H74_12 C99_12 1_555 1_555
C100_12 C99_12 1_555 1_555
C101_12 C69_12 1_555 1_555
H75_12 C101_12 1_555 1_555
C102_12 C68_12 1_555 1_555
H76_12 C102_12 1_555 1_555
Cu12_9 O19_12 1_555 1_555
O36_6 C59_12 1_555 1_555
C64_12 C65_12 1_555 1_555
O20_12 Cu12_9 1_555 1_555
C97_12 C98_12 1_555 1_555
C100_12 C101_12 1_555 1_555
C100_12 C102_12 1_555 1_555
O1_12 C6_12 1_555 1_555
O3_12 C11_12 1_555 1_555
C6_12 C7_12 1_555 1_555
C7_12 C8_12 1_555 1_555
C8_12 H5_12 1_555 1_555
C9_12 C8_12 1_555 1_555
H6_12 C9_12 1_555 1_555
C10_12 C9_12 1_555 1_555
H7_12 C10_12 1_555 1_555
C11_12 C10_12 1_555 1_555
C12_12 C7_12 1_555 1_555
H8_12 C12_12 1_555 1_555
C13_12 O3_12 1_555 1_555
H9_12 C13_12 1_555 1_555
H10_12 C13_12 1_555 1_555
C14_12 C13_12 1_555 1_555
C15_12 C14_12 1_555 1_555
H11_12 C15_12 1_555 1_555
C18_12 C17_12 1_555 1_555
H13_12 C18_12 1_555 1_555
C19_12 C14_12 1_555 1_555
H14_12 C19_12 1_555 1_555
C20_12 C17_12 1_555 1_555
H15_12 C20_12 1_555 1_555
H16_12 C20_12 1_555 1_555
C11_12 C12_12 1_555 1_555
C18_12 C19_12 1_555 1_555
O31_9 C27_12 1_555 1_555
O7_12 Cu8_6 1_555 1_555
O8_12 Cu8_6 1_555 1_555
N2_12 Cu8_6 1_555 1_555
C1_12 N13_9 1_555 1_555
H1_12 C1_12 1_555 1_555
C2_12 C1_12 1_555 1_555
H2_12 C2_12 1_555 1_555
C3_12 C2_12 1_555 1_555
C4_12 C3_12 1_555 1_555
H3_12 C4_12 1_555 1_555
C5_12 N13_9 1_555 1_555
H4_12 C5_12 1_555 1_555
H12_12 C16_12 1_555 1_555
C21_12 O4_12 1_555 1_555
C22_12 C21_12 1_555 1_555
H17_12 C22_12 1_555 1_555
C23_12 C22_12 1_555 1_555
C24_12 C23_12 1_555 1_555
H18_12 C24_12 1_555 1_555
C25_12 C24_12 1_555 1_555
H19_12 C25_12 1_555 1_555
C26_12 C21_12 1_555 1_555
H20_12 C26_12 1_555 1_555
C27_12 O32_9 1_555 1_555
C28_12 N2_12 1_555 1_555
H21_12 C28_12 1_555 1_555
C29_12 C28_12 1_555 1_555
H22_12 C29_12 1_555 1_555
C30_12 C29_12 1_555 1_555
C31_12 C30_12 1_555 1_555
H23_12 C31_12 1_555 1_555
C32_12 N2_12 1_555 1_555
H24_12 C32_12 1_555 1_555
C38_12 N4_12 1_555 1_555
H29_12 C38_12 1_555 1_555
C39_12 C38_12 1_555 1_555
H30_12 C39_12 1_555 1_555
C40_12 C39_12 1_555 1_555
C41_12 C40_12 1_555 1_555
H31_12 C41_12 1_555 1_555
C42_12 N4_12 1_555 1_555
H32_12 C42_12 1_555 1_555
C48_12 O7_12 1_555 1_555
C49_12 C48_12 1_555 1_555
C50_12 C49_12 1_555 1_555
H37_12 C50_12 1_555 1_555
C51_12 C50_12 1_555 1_555
H38_12 C51_12 1_555 1_555
C52_12 C51_12 1_555 1_555
H39_12 C52_12 1_555 1_555
C53_12 C52_12 1_555 1_555
C54_12 C49_12 1_555 1_555
H40_12 C54_12 1_555 1_555
N7_12 C119_12 1_555 1_555
C119_12 H89_12 1_555 1_555
C120_12 C119_12 1_555 1_555
H90_12 C120_12 1_555 1_555
C121_12 C30_12 1_555 1_555
C122_12 C121_12 1_555 1_555
H91_12 C122_12 1_555 1_555
C123_12 N7_12 1_555 1_555
H92_12 C123_12 1_555 1_555
N9_12 C129_12 1_555 1_555
C129_12 H97_12 1_555 1_555
C130_12 C129_12 1_555 1_555
H98_12 C130_12 1_555 1_555
C131_12 C40_12 1_555 1_555
C132_12 C131_12 1_555 1_555
H99_12 C132_12 1_555 1_555
C133_12 N9_12 1_555 1_555
H100_12 C133_12 1_555 1_555
N13_12 C134_12 1_555 1_555
C134_12 H101_12 1_555 1_555
C135_12 C134_12 1_555 1_555
H102_12 C135_12 1_555 1_555
C136_12 C3_12 1_555 1_555
C137_12 C136_12 1_555 1_555
H103_12 C137_12 1_555 1_555
C138_12 N13_12 1_555 1_555
H104_12 C138_12 1_555 1_555
Cu7_6 N7_12 1_555 1_555
Cu12_12 N9_12 1_555 1_555
O25_12 Cu7_6 1_555 1_555
O26_12 C139_12 1_555 1_555
O27_12 C144_12 1_555 1_555
O28_12 C153_12 1_555 1_555
O31_12 C160_12 1_555 1_555
O32_12 C160_12 1_555 1_555
C139_12 O25_12 1_555 1_555
C140_12 C139_12 1_555 1_555
C141_12 C140_12 1_555 1_555
H105_12 C141_12 1_555 1_555
C142_12 C141_12 1_555 1_555
H106_12 C142_12 1_555 1_555
C143_12 C142_12 1_555 1_555
H107_12 C143_12 1_555 1_555
C144_12 C143_12 1_555 1_555
C145_12 C140_12 1_555 1_555
H108_12 C145_12 1_555 1_555
C146_12 O27_12 1_555 1_555
H109_12 C146_12 1_555 1_555
H110_12 C146_12 1_555 1_555
C147_12 C146_12 1_555 1_555
C148_12 C147_12 1_555 1_555
H111_12 C148_12 1_555 1_555
C149_12 C148_12 1_555 1_555
H112_12 C149_12 1_555 1_555
C150_12 C149_12 1_555 1_555
C151_12 C150_12 1_555 1_555
H113_12 C151_12 1_555 1_555
C152_12 C147_12 1_555 1_555
H114_12 C152_12 1_555 1_555
C153_12 C150_12 1_555 1_555
H115_12 C153_12 1_555 1_555
H116_12 C153_12 1_555 1_555
C154_12 O28_12 1_555 1_555
C155_12 C154_12 1_555 1_555
H117_12 C155_12 1_555 1_555
C156_12 C155_12 1_555 1_555
C157_12 C156_12 1_555 1_555
H118_12 C157_12 1_555 1_555
C158_12 C157_12 1_555 1_555
H119_12 C158_12 1_555 1_555
C159_12 C154_12 1_555 1_555
H120_12 C159_12 1_555 1_555
C160_12 C156_12 1_555 1_555
O33_6 Cu7_6 1_555 1_555
O34_6 Cu7_6 1_555 1_555
O8_12 C48_12 1_555 1_555
C4_12 C5_12 1_555 1_555
C23_12 C27_12 1_555 1_555
C25_12 C26_12 1_555 1_555
C31_12 C32_12 1_555 1_555
C41_12 C42_12 1_555 1_555
C53_12 C54_12 1_555 1_555
C120_12 C121_12 1_555 1_555
C122_12 C123_12 1_555 1_555
C130_12 C131_12 1_555 1_555
C132_12 C133_12 1_555 1_555
C135_12 C136_12 1_555 1_555
C137_12 C138_12 1_555 1_555
C144_12 C145_12 1_555 1_555
C151_12 C152_12 1_555 1_555
C158_12 C159_12 1_555 1_555
C55_12 O9_12 1_555 1_555
H42_12 C55_12 1_555 1_555
C56_12 C55_12 1_555 1_555
C57_12 C56_12 1_555 1_555
H43_12 C57_12 1_555 1_555
C58_12 C56_12 1_555 1_555
H44_12 C58_12 1_555 1_555
O33_6 C81_12 1_555 1_555
O34_6 C81_12 1_555 1_555
O18_12 C86_12 1_555 1_555
C81_12 C82_12 1_555 1_555
C82_12 C83_12 1_555 1_555
C83_12 H61_12 1_555 1_555
C84_12 C83_12 1_555 1_555
H62_12 C84_12 1_555 1_555
C85_12 C84_12 1_555 1_555
H63_12 C85_12 1_555 1_555
C86_12 C85_12 1_555 1_555
C87_12 C82_12 1_555 1_555
H64_12 C87_12 1_555 1_555
C88_12 O18_12 1_555 1_555
H65_12 C88_12 1_555 1_555
H66_12 C88_12 1_555 1_555
C89_12 C88_12 1_555 1_555
C90_12 C58_12 1_555 1_555
H67_12 C90_12 1_555 1_555
C91_12 C57_12 1_555 1_555
H68_12 C91_12 1_555 1_555
C86_12 C87_12 1_555 1_555
C89_12 C90_12 1_555 1_555
C89_12 C91_12 1_555 1_555
Cu1_7 O1_13 1_555 1_555
Cu2_11 O5_7 1_555 1_555
Cu3_4 O10_7 1_555 1_555
O1_13 C6_13 1_555 1_555
O2_13 C6_13 1_555 1_555
O3_13 C11_13 1_555 1_555
O4_13 C20_13 1_555 1_555
O5_7 C27_13 1_555 1_555
O6_7 Cu2_11 1_555 1_555
O7_13 Cu1_7 1_555 1_555
O8_13 Cu1_7 1_555 1_555
O9_13 C53_13 1_555 1_555
O10_7 Cu1_7 1_555 1_555
O11_7 Cu3_4 1_555 1_555
O13_7 Cu3_4 1_555 1_555
O14_7 Cu3_4 1_555 1_555
O15_13 C74_13 1_555 1_555
N1_7 Cu1_7 1_555 1_555
N2_13 Cu1_7 1_555 1_555
N3_7 Cu3_4 1_555 1_555
N4_13 Cu3_4 1_555 1_555
N5_7 Cu2_11 1_555 1_555
C1_13 N5_7 1_555 1_555
H1_13 C1_13 1_555 1_555
C2_13 C1_13 1_555 1_555
H2_13 C2_13 1_555 1_555
C3_13 C2_13 1_555 1_555
C4_13 C3_13 1_555 1_555
H3_13 C4_13 1_555 1_555
C5_13 N5_7 1_555 1_555
H4_13 C5_13 1_555 1_555
C6_13 C7_13 1_555 1_555
C7_13 C8_13 1_555 1_555
C8_13 H5_13 1_555 1_555
C9_13 C8_13 1_555 1_555
H6_13 C9_13 1_555 1_555
C10_13 C9_13 1_555 1_555
H7_13 C10_13 1_555 1_555
C11_13 C10_13 1_555 1_555
C12_13 C7_13 1_555 1_555
H8_13 C12_13 1_555 1_555
C13_13 O3_13 1_555 1_555
H9_13 C13_13 1_555 1_555
H10_13 C13_13 1_555 1_555
C14_13 C13_13 1_555 1_555
C15_13 C14_13 1_555 1_555
H11_13 C15_13 1_555 1_555
C16_13 C15_13 1_555 1_555
H12_13 C16_13 1_555 1_555
C17_13 C16_13 1_555 1_555
C18_13 C17_13 1_555 1_555
H13_13 C18_13 1_555 1_555
C19_13 C14_13 1_555 1_555
H14_13 C19_13 1_555 1_555
C20_13 C17_13 1_555 1_555
H15_13 C20_13 1_555 1_555
H16_13 C20_13 1_555 1_555
C21_13 O4_13 1_555 1_555
C22_13 C21_13 1_555 1_555
H17_13 C22_13 1_555 1_555
C23_13 C22_13 1_555 1_555
C24_13 C23_13 1_555 1_555
H18_13 C24_13 1_555 1_555
C25_13 C24_13 1_555 1_555
H19_13 C25_13 1_555 1_555
C26_13 C21_13 1_555 1_555
H20_13 C26_13 1_555 1_555
C27_13 O6_7 1_555 1_555
C28_13 N2_13 1_555 1_555
H21_13 C28_13 1_555 1_555
C29_13 C28_13 1_555 1_555
H22_13 C29_13 1_555 1_555
C30_13 C29_13 1_555 1_555
C31_13 C30_13 1_555 1_555
H23_13 C31_13 1_555 1_555
C32_13 N2_13 1_555 1_555
H24_13 C32_13 1_555 1_555
C33_13 N1_7 1_555 1_555
H25_13 C33_13 1_555 1_555
C34_13 C33_13 1_555 1_555
H26_13 C34_13 1_555 1_555
C35_13 C34_13 1_555 1_555
C36_13 C35_13 1_555 1_555
H27_13 C36_13 1_555 1_555
C37_13 N1_7 1_555 1_555
H28_13 C37_13 1_555 1_555
C38_13 N4_13 1_555 1_555
H29_13 C38_13 1_555 1_555
C39_13 C38_13 1_555 1_555
H30_13 C39_13 1_555 1_555
C40_13 C39_13 1_555 1_555
C41_13 C40_13 1_555 1_555
H31_13 C41_13 1_555 1_555
C42_13 N4_13 1_555 1_555
H32_13 C42_13 1_555 1_555
C43_13 N3_7 1_555 1_555
H33_13 C43_13 1_555 1_555
C44_13 C43_13 1_555 1_555
H34_13 C44_13 1_555 1_555
C45_13 C44_13 1_555 1_555
C46_13 C45_13 1_555 1_555
H35_13 C46_13 1_555 1_555
C47_13 N3_7 1_555 1_555
H36_13 C47_13 1_555 1_555
C48_13 O7_13 1_555 1_555
C49_13 C48_13 1_555 1_555
C50_13 C49_13 1_555 1_555
H37_13 C50_13 1_555 1_555
C51_13 C50_13 1_555 1_555
H38_13 C51_13 1_555 1_555
C52_13 C51_13 1_555 1_555
H39_13 C52_13 1_555 1_555
C53_13 C52_13 1_555 1_555
C54_13 C49_13 1_555 1_555
H40_13 C54_13 1_555 1_555
C55_13 O9_13 1_555 1_555
H41_13 C55_13 1_555 1_555
H42_13 C55_13 1_555 1_555
C56_13 C55_13 1_555 1_555
C57_13 C56_13 1_555 1_555
H43_13 C57_13 1_555 1_555
C58_13 C56_13 1_555 1_555
H44_13 C58_13 1_555 1_555
C59_13 O10_7 1_555 1_555
C60_13 C59_13 1_555 1_555
C61_13 C60_13 1_555 1_555
H45_13 C61_13 1_555 1_555
C62_13 C61_13 1_555 1_555
H46_13 C62_13 1_555 1_555
C63_13 C62_13 1_555 1_555
H47_13 C63_13 1_555 1_555
C64_13 C63_13 1_555 1_555
C65_13 C60_13 1_555 1_555
H48_13 C65_13 1_555 1_555
C70_13 O13_7 1_555 1_555
C71_13 H53_13 1_555 1_555
C72_13 C70_13 1_555 1_555
C73_13 C72_13 1_555 1_555
H54_13 C73_13 1_555 1_555
C74_13 C73_13 1_555 1_555
C75_13 C74_13 1_555 1_555
H55_13 C75_13 1_555 1_555
C76_13 C71_13 1_555 1_555
H56_13 C76_13 1_555 1_555
C77_13 O15_13 1_555 1_555
H57_13 C77_13 1_555 1_555
H58_13 C77_13 1_555 1_555
C78_13 C77_13 1_555 1_555
C79_13 C78_13 1_555 1_555
H59_13 C79_13 1_555 1_555
C80_13 C78_13 1_555 1_555
H60_13 C80_13 1_555 1_555
O16_7 C81_13 1_555 1_555
O17_7 C81_13 1_555 1_555
O18_13 C86_13 1_555 1_555
C81_13 C82_13 1_555 1_555
C82_13 C83_13 1_555 1_555
C83_13 H61_13 1_555 1_555
C84_13 C83_13 1_555 1_555
H62_13 C84_13 1_555 1_555
C85_13 C84_13 1_555 1_555
H63_13 C85_13 1_555 1_555
C86_13 C85_13 1_555 1_555
C87_13 C82_13 1_555 1_555
H64_13 C87_13 1_555 1_555
C88_13 O18_13 1_555 1_555
H65_13 C88_13 1_555 1_555
H66_13 C88_13 1_555 1_555
C89_13 C88_13 1_555 1_555
C90_13 C58_13 1_555 1_555
H67_13 C90_13 1_555 1_555
C91_13 C57_13 1_555 1_555
H68_13 C91_13 1_555 1_555
N6_13 C114_13 1_555 1_555
C114_13 H85_13 1_555 1_555
C115_13 C114_13 1_555 1_555
H86_13 C115_13 1_555 1_555
C116_13 C35_13 1_555 1_555
C117_13 C116_13 1_555 1_555
H87_13 C117_13 1_555 1_555
C118_13 N6_13 1_555 1_555
H88_13 C118_13 1_555 1_555
N7_13 C119_13 1_555 1_555
C119_13 H89_13 1_555 1_555
C120_13 C119_13 1_555 1_555
H90_13 C120_13 1_555 1_555
C121_13 C30_13 1_555 1_555
C122_13 C121_13 1_555 1_555
H91_13 C122_13 1_555 1_555
C123_13 N7_13 1_555 1_555
N8_13 C124_13 1_555 1_555
C124_13 H93_13 1_555 1_555
C125_13 C124_13 1_555 1_555
H94_13 C125_13 1_555 1_555
C126_13 C45_13 1_555 1_555
C127_13 C126_13 1_555 1_555
H95_13 C127_13 1_555 1_555
C128_13 N8_13 1_555 1_555
H96_13 C128_13 1_555 1_555
N9_13 C129_13 1_555 1_555
C129_13 H97_13 1_555 1_555
C130_13 C129_13 1_555 1_555
H98_13 C130_13 1_555 1_555
C131_13 C40_13 1_555 1_555
C132_13 C131_13 1_555 1_555
H99_13 C132_13 1_555 1_555
C133_13 N9_13 1_555 1_555
N10_7 C134_13 1_555 1_555
C134_13 H101_13 1_555 1_555
C135_13 C134_13 1_555 1_555
H102_13 C135_13 1_555 1_555
C136_13 C3_13 1_555 1_555
C137_13 C136_13 1_555 1_555
H103_13 C137_13 1_555 1_555
C138_13 N10_7 1_555 1_555
H112_13 C149_13 1_555 1_555
Cu6_4 O16_7 1_555 1_555
Cu8_7 N6_13 1_555 1_555
Cu9_15 N10_7 1_555 1_555
Cu11_4 N8_13 1_555 1_555
O31_13 Cu2_11 1_555 1_555
O32_13 Cu2_11 1_555 1_555
N13_13 Cu2_11 1_555 1_555
O8_13 C48_13 1_555 1_555
O11_7 C59_13 1_555 1_555
O14_7 C70_13 1_555 1_555
C4_13 C5_13 1_555 1_555
C11_13 C12_13 1_555 1_555
C18_13 C19_13 1_555 1_555
C23_13 C27_13 1_555 1_555
C25_13 C26_13 1_555 1_555
C31_13 C32_13 1_555 1_555
C36_13 C37_13 1_555 1_555
C41_13 C42_13 1_555 1_555
C46_13 C47_13 1_555 1_555
C53_13 C54_13 1_555 1_555
C64_13 C65_13 1_555 1_555
C71_13 C72_13 1_555 1_555
C75_13 C76_13 1_555 1_555
O17_7 Cu6_4 1_555 1_555
C86_13 C87_13 1_555 1_555
C89_13 C90_13 1_555 1_555
C89_13 C91_13 1_555 1_555
C115_13 C116_13 1_555 1_555
C117_13 C118_13 1_555 1_555
C120_13 C121_13 1_555 1_555
C122_13 C123_13 1_555 1_555
C125_13 C126_13 1_555 1_555
C127_13 C128_13 1_555 1_555
C130_13 C131_13 1_555 1_555
C132_13 C133_13 1_555 1_555
C135_13 C136_13 1_555 1_555
C137_13 C138_13 1_555 1_555
O30_7 Cu9_15 1_555 1_555
O22_13 C103_13 1_555 1_555
O23_13 C103_13 1_555 1_555
O24_13 C107_13 1_555 1_555
C103_13 C105_13 1_555 1_555
C104_13 H77_13 1_555 1_555
C105_13 C104_13 1_555 1_555
C106_13 C105_13 1_555 1_555
H78_13 C106_13 1_555 1_555
C107_13 C106_13 1_555 1_555
C108_13 C107_13 1_555 1_555
H79_13 C108_13 1_555 1_555
C109_13 C104_13 1_555 1_555
H80_13 C109_13 1_555 1_555
C110_13 O24_13 1_555 1_555
H81_13 C110_13 1_555 1_555
H82_13 C110_13 1_555 1_555
C111_13 C110_13 1_555 1_555
H83_13 C112_13 1_555 1_555
H84_13 C113_13 1_555 1_555
Cu12_13 O22_13 1_555 1_555
O23_13 Cu12_13 1_555 1_555
C108_13 C109_13 1_555 1_555
C111_13 C112_13 1_555 1_555
C111_13 C113_13 1_555 1_555
O27_13 C144_13 1_555 1_555
C139_13 O25_13 1_555 1_555
C140_13 C139_13 1_555 1_555
C141_13 C140_13 1_555 1_555
H105_13 C141_13 1_555 1_555
C142_13 C141_13 1_555 1_555
H106_13 C142_13 1_555 1_555
C143_13 C142_13 1_555 1_555
H107_13 C143_13 1_555 1_555
C144_13 C143_13 1_555 1_555
C145_13 C140_13 1_555 1_555
C146_13 O27_13 1_555 1_555
H109_13 C146_13 1_555 1_555
H110_13 C146_13 1_555 1_555
C147_13 C146_13 1_555 1_555
C148_13 C147_13 1_555 1_555
H111_13 C148_13 1_555 1_555
C152_13 C147_13 1_555 1_555
C153_13 C150_13 1_555 1_555
H116_13 C153_13 1_555 1_555
O36_7 Cu5_4 1_555 1_555
O38_7 Cu5_4 1_555 1_555
Cu5_4 O35_7 1_555 1_555
C144_13 C145_13 1_555 1_555
C66_13 O12_13 1_555 1_555
H49_13 C66_13 1_555 1_555
C67_13 C66_13 1_555 1_555
C68_13 C67_13 1_555 1_555
H51_13 C68_13 1_555 1_555
C69_13 C67_13 1_555 1_555
H52_13 C69_13 1_555 1_555
O19_13 C92_13 1_555 1_555
O20_13 C92_13 1_555 1_555
O21_13 C97_13 1_555 1_555
C92_13 C93_13 1_555 1_555
C93_13 C94_13 1_555 1_555
C94_13 H69_13 1_555 1_555
C95_13 C94_13 1_555 1_555
H70_13 C95_13 1_555 1_555
C96_13 C95_13 1_555 1_555
H71_13 C96_13 1_555 1_555
C97_13 C96_13 1_555 1_555
C98_13 C93_13 1_555 1_555
H72_13 C98_13 1_555 1_555
C99_13 O21_13 1_555 1_555
H73_13 C99_13 1_555 1_555
H74_13 C99_13 1_555 1_555
C100_13 C99_13 1_555 1_555
C101_13 C69_13 1_555 1_555
H75_13 C101_13 1_555 1_555
C102_13 C68_13 1_555 1_555
H76_13 C102_13 1_555 1_555
O29_7 C160_13 1_555 1_555
C154_13 O28_13 1_555 1_555
C155_13 C154_13 1_555 1_555
C156_13 C155_13 1_555 1_555
C157_13 C156_13 1_555 1_555
H118_13 C157_13 1_555 1_555
C158_13 C157_13 1_555 1_555
H119_13 C158_13 1_555 1_555
C159_13 C154_13 1_555 1_555
H120_13 C159_13 1_555 1_555
C160_13 C156_13 1_555 1_555
Cu8_7 O19_13 1_555 1_555
Cu11_4 O19_13 1_555 1_555
O20_13 Cu11_4 1_555 1_555
C97_13 C98_13 1_555 1_555
C100_13 C101_13 1_555 1_555
C100_13 C102_13 1_555 1_555
O29_7 Cu9_17 1_555 1_555
C158_13 C159_13 1_555 1_555
H113_13 C151_13 1_555 1_555
H58_14 C77_14 1_555 1_555
C78_14 C77_14 1_555 1_555
O12_14 C64_14 1_555 1_555
C59_14 O35_7 1_555 1_555
C60_14 C59_14 1_555 1_555
C61_14 C60_14 1_555 1_555
H45_14 C61_14 1_555 1_555
C62_14 C61_14 1_555 1_555
H46_14 C62_14 1_555 1_555
C63_14 C62_14 1_555 1_555
H47_14 C63_14 1_555 1_555
C64_14 C63_14 1_555 1_555
C65_14 C60_14 1_555 1_555
H48_14 C65_14 1_555 1_555
C66_14 O12_14 1_555 1_555
H49_14 C66_14 1_555 1_555
H50_14 C66_14 1_555 1_555
C67_14 C66_14 1_555 1_555
C68_14 C67_14 1_555 1_555
H51_14 C68_14 1_555 1_555
C69_14 C67_14 1_555 1_555
H52_14 C69_14 1_555 1_555
H60_14 C80_14 1_555 1_555
O19_14 C92_14 1_555 1_555
O20_14 C92_14 1_555 1_555
O21_14 C97_14 1_555 1_555
C92_14 C93_14 1_555 1_555
C93_14 C94_14 1_555 1_555
C94_14 H69_14 1_555 1_555
C95_14 C94_14 1_555 1_555
H70_14 C95_14 1_555 1_555
C96_14 C95_14 1_555 1_555
H71_14 C96_14 1_555 1_555
C97_14 C96_14 1_555 1_555
C98_14 C93_14 1_555 1_555
H72_14 C98_14 1_555 1_555
C99_14 O21_14 1_555 1_555
H73_14 C99_14 1_555 1_555
H74_14 C99_14 1_555 1_555
C100_14 C99_14 1_555 1_555
C101_14 C69_14 1_555 1_555
H75_14 C101_14 1_555 1_555
C102_14 C68_14 1_555 1_555
H76_14 C102_14 1_555 1_555
Cu7_7 O19_14 1_555 1_555
Cu10_4 O19_14 1_555 1_555
O31_14 Cu9_16 1_555 1_555
O36_7 C59_14 1_555 1_555
C64_14 C65_14 1_555 1_555
O20_14 Cu10_4 1_555 1_555
C97_14 C98_14 1_555 1_555
C100_14 C101_14 1_555 1_555
C100_14 C102_14 1_555 1_555
O22_14 C103_14 1_555 1_555
O24_14 C107_14 1_555 1_555
C103_14 C105_14 1_555 1_555
C104_14 H77_14 1_555 1_555
C105_14 C104_14 1_555 1_555
C106_14 C105_14 1_555 1_555
C107_14 C106_14 1_555 1_555
C108_14 C107_14 1_555 1_555
H79_14 C108_14 1_555 1_555
C109_14 C104_14 1_555 1_555
H80_14 C109_14 1_555 1_555
H83_14 C112_14 1_555 1_555
C108_14 C109_14 1_555 1_555
O15_14 C74_14 1_555 1_555
C70_14 O37_7 1_555 1_555
C71_14 H53_14 1_555 1_555
C72_14 C70_14 1_555 1_555
C73_14 C72_14 1_555 1_555
C74_14 C73_14 1_555 1_555
C75_14 C74_14 1_555 1_555
H55_14 C75_14 1_555 1_555
C76_14 C71_14 1_555 1_555
H56_14 C76_14 1_555 1_555
H59_14 C79_14 1_555 1_555
C71_14 C72_14 1_555 1_555
C75_14 C76_14 1_555 1_555
H84_14 C113_14 1_555 1_555
O23_14 Cu12_14 1_555 1_555
C33_14 N11_7 1_555 1_555
C34_14 C33_14 1_555 1_555
H26_14 C34_14 1_555 1_555
C35_14 C34_14 1_555 1_555
C36_14 C35_14 1_555 1_555
H27_14 C36_14 1_555 1_555
C37_14 N11_7 1_555 1_555
H28_14 C37_14 1_555 1_555
C43_14 N12_7 1_555 1_555
C44_14 C43_14 1_555 1_555
H34_14 C44_14 1_555 1_555
C45_14 C44_14 1_555 1_555
C46_14 C45_14 1_555 1_555
H35_14 C46_14 1_555 1_555
C47_14 N12_7 1_555 1_555
H36_14 C47_14 1_555 1_555
N6_14 C114_14 1_555 1_555
C114_14 H85_14 1_555 1_555
C115_14 C114_14 1_555 1_555
H86_14 C115_14 1_555 1_555
C116_14 C35_14 1_555 1_555
C117_14 C116_14 1_555 1_555
H87_14 C117_14 1_555 1_555
C118_14 N6_14 1_555 1_555
H88_14 C118_14 1_555 1_555
N8_14 C124_14 1_555 1_555
C124_14 H93_14 1_555 1_555
C125_14 C124_14 1_555 1_555
H94_14 C125_14 1_555 1_555
C126_14 C45_14 1_555 1_555
C127_14 C126_14 1_555 1_555
H95_14 C127_14 1_555 1_555
C128_14 N8_14 1_555 1_555
H96_14 C128_14 1_555 1_555
Cu7_7 N6_14 1_555 1_555
Cu10_4 N8_14 1_555 1_555
O32_14 Cu9_18 1_555 1_555
N13_14 Cu9_18 1_555 1_555
C36_14 C37_14 1_555 1_555
C46_14 C47_14 1_555 1_555
C115_14 C116_14 1_555 1_555
C117_14 C118_14 1_555 1_555
C125_14 C126_14 1_555 1_555
C127_14 C128_14 1_555 1_555
H82_14 C110_14 1_555 1_555
C111_14 C110_14 1_555 1_555
C55_14 O9_14 1_555 1_555
H42_14 C55_14 1_555 1_555
C56_14 C55_14 1_555 1_555
C57_14 C56_14 1_555 1_555
H43_14 C57_14 1_555 1_555
C58_14 C56_14 1_555 1_555
H44_14 C58_14 1_555 1_555
O16_8 C81_14 1_555 1_555
O17_8 C81_14 1_555 1_555
O18_14 C86_14 1_555 1_555
C81_14 C82_14 1_555 1_555
C82_14 C83_14 1_555 1_555
C83_14 H61_14 1_555 1_555
C84_14 C83_14 1_555 1_555
H62_14 C84_14 1_555 1_555
C85_14 C84_14 1_555 1_555
H63_14 C85_14 1_555 1_555
C86_14 C85_14 1_555 1_555
C87_14 C82_14 1_555 1_555
H64_14 C87_14 1_555 1_555
C88_14 O18_14 1_555 1_555
H65_14 C88_14 1_555 1_555
H66_14 C88_14 1_555 1_555
C89_14 C88_14 1_555 1_555
C90_14 C58_14 1_555 1_555
H67_14 C90_14 1_555 1_555
C91_14 C57_14 1_555 1_555
H68_14 C91_14 1_555 1_555
Cu8_7 O16_8 1_555 1_555
O17_8 Cu8_7 1_555 1_555
C86_14 C87_14 1_555 1_555
C89_14 C90_14 1_555 1_555
C89_14 C91_14 1_555 1_555
Cu7_7 O1_14 1_555 1_555
Cu2_12 O5_8 1_555 1_555
O1_14 C6_14 1_555 1_555
O2_14 C6_14 1_555 1_555
O3_14 C11_14 1_555 1_555
O4_14 C20_14 1_555 1_555
O5_8 C27_14 1_555 1_555
O6_8 Cu2_12 1_555 1_555
O7_14 Cu7_7 1_555 1_555
O8_14 Cu7_7 1_555 1_555
O13_8 Cu10_4 1_555 1_555
O14_8 Cu10_4 1_555 1_555
O15_15 C74_15 1_555 1_555
N2_14 Cu7_7 1_555 1_555
N4_14 Cu10_4 1_555 1_555
N5_8 Cu2_12 1_555 1_555
C1_14 N5_8 1_555 1_555
H1_14 C1_14 1_555 1_555
C2_14 C1_14 1_555 1_555
H2_14 C2_14 1_555 1_555
C3_14 C2_14 1_555 1_555
C4_14 C3_14 1_555 1_555
H3_14 C4_14 1_555 1_555
C5_14 N5_8 1_555 1_555
H4_14 C5_14 1_555 1_555
C6_14 C7_14 1_555 1_555
C7_14 C8_14 1_555 1_555
C8_14 H5_14 1_555 1_555
C9_14 C8_14 1_555 1_555
H6_14 C9_14 1_555 1_555
C10_14 C9_14 1_555 1_555
H7_14 C10_14 1_555 1_555
C11_14 C10_14 1_555 1_555
C12_14 C7_14 1_555 1_555
H8_14 C12_14 1_555 1_555
C13_14 O3_14 1_555 1_555
H9_14 C13_14 1_555 1_555
H10_14 C13_14 1_555 1_555
C14_14 C13_14 1_555 1_555
C15_14 C14_14 1_555 1_555
H11_14 C15_14 1_555 1_555
C16_14 C15_14 1_555 1_555
H12_14 C16_14 1_555 1_555
C17_14 C16_14 1_555 1_555
C18_14 C17_14 1_555 1_555
H13_14 C18_14 1_555 1_555
C19_14 C14_14 1_555 1_555
H14_14 C19_14 1_555 1_555
C20_14 C17_14 1_555 1_555
H15_14 C20_14 1_555 1_555
H16_14 C20_14 1_555 1_555
C21_14 O4_14 1_555 1_555
C22_14 C21_14 1_555 1_555
H17_14 C22_14 1_555 1_555
C23_14 C22_14 1_555 1_555
C24_14 C23_14 1_555 1_555
H18_14 C24_14 1_555 1_555
C25_14 C24_14 1_555 1_555
H19_14 C25_14 1_555 1_555
C26_14 C21_14 1_555 1_555
H20_14 C26_14 1_555 1_555
C27_14 O6_8 1_555 1_555
C28_14 N2_14 1_555 1_555
H21_14 C28_14 1_555 1_555
C29_14 C28_14 1_555 1_555
H22_14 C29_14 1_555 1_555
C30_14 C29_14 1_555 1_555
C31_14 C30_14 1_555 1_555
H23_14 C31_14 1_555 1_555
C32_14 N2_14 1_555 1_555
H24_14 C32_14 1_555 1_555
C38_14 N4_14 1_555 1_555
H29_14 C38_14 1_555 1_555
C39_14 C38_14 1_555 1_555
H30_14 C39_14 1_555 1_555
C40_14 C39_14 1_555 1_555
C41_14 C40_14 1_555 1_555
H31_14 C41_14 1_555 1_555
C42_14 N4_14 1_555 1_555
H32_14 C42_14 1_555 1_555
C48_14 O7_14 1_555 1_555
C49_14 C48_14 1_555 1_555
C50_14 C49_14 1_555 1_555
H37_14 C50_14 1_555 1_555
C51_14 C50_14 1_555 1_555
H38_14 C51_14 1_555 1_555
C52_14 C51_14 1_555 1_555
H39_14 C52_14 1_555 1_555
C53_14 C52_14 1_555 1_555
C54_14 C49_14 1_555 1_555
H40_14 C54_14 1_555 1_555
C70_15 O13_8 1_555 1_555
C71_15 H53_15 1_555 1_555
C72_15 C70_15 1_555 1_555
C73_15 C72_15 1_555 1_555
H54_15 C73_15 1_555 1_555
C74_15 C73_15 1_555 1_555
C75_15 C74_15 1_555 1_555
H55_15 C75_15 1_555 1_555
C76_15 C71_15 1_555 1_555
H56_15 C76_15 1_555 1_555
C77_15 O15_15 1_555 1_555
H57_15 C77_15 1_555 1_555
H58_15 C77_15 1_555 1_555
C78_15 C77_15 1_555 1_555
C79_15 C78_15 1_555 1_555
H59_15 C79_15 1_555 1_555
C80_15 C78_15 1_555 1_555
H60_15 C80_15 1_555 1_555
N7_14 C119_14 1_555 1_555
C119_14 H89_14 1_555 1_555
C120_14 C119_14 1_555 1_555
H90_14 C120_14 1_555 1_555
C121_14 C30_14 1_555 1_555
C122_14 C121_14 1_555 1_555
H91_14 C122_14 1_555 1_555
C123_14 N7_14 1_555 1_555
H92_14 C123_14 1_555 1_555
N9_14 C129_14 1_555 1_555
C129_14 H97_14 1_555 1_555
C130_14 C129_14 1_555 1_555
H98_14 C130_14 1_555 1_555
C131_14 C40_14 1_555 1_555
C132_14 C131_14 1_555 1_555
H99_14 C132_14 1_555 1_555
C133_14 N9_14 1_555 1_555
H100_14 C133_14 1_555 1_555
N10_8 C134_14 1_555 1_555
C134_14 H101_14 1_555 1_555
C135_14 C134_14 1_555 1_555
H102_14 C135_14 1_555 1_555
C136_14 C3_14 1_555 1_555
C137_14 C136_14 1_555 1_555
H103_14 C137_14 1_555 1_555
C138_14 N10_8 1_555 1_555
H104_14 C138_14 1_555 1_555
Cu8_7 N7_14 1_555 1_555
Cu11_4 N9_14 1_555 1_555
O25_14 Cu8_7 1_555 1_555
O26_14 C139_14 1_555 1_555
O27_14 C144_14 1_555 1_555
O28_14 C153_14 1_555 1_555
O29_8 C160_14 1_555 1_555
O30_8 C160_14 1_555 1_555
C139_14 O25_14 1_555 1_555
C140_14 C139_14 1_555 1_555
C141_14 C140_14 1_555 1_555
H105_14 C141_14 1_555 1_555
C142_14 C141_14 1_555 1_555
H106_14 C142_14 1_555 1_555
C143_14 C142_14 1_555 1_555
H107_14 C143_14 1_555 1_555
C144_14 C143_14 1_555 1_555
C145_14 C140_14 1_555 1_555
H108_14 C145_14 1_555 1_555
C146_14 O27_14 1_555 1_555
H109_14 C146_14 1_555 1_555
H110_14 C146_14 1_555 1_555
C147_14 C146_14 1_555 1_555
C148_14 C147_14 1_555 1_555
H111_14 C148_14 1_555 1_555
C149_14 C148_14 1_555 1_555
H112_14 C149_14 1_555 1_555
C150_14 C149_14 1_555 1_555
C151_14 C150_14 1_555 1_555
H113_14 C151_14 1_555 1_555
C152_14 C147_14 1_555 1_555
H114_14 C152_14 1_555 1_555
C153_14 C150_14 1_555 1_555
H115_14 C153_14 1_555 1_555
H116_14 C153_14 1_555 1_555
C154_14 O28_14 1_555 1_555
C155_14 C154_14 1_555 1_555
H117_14 C155_14 1_555 1_555
C156_14 C155_14 1_555 1_555
C157_14 C156_14 1_555 1_555
H118_14 C157_14 1_555 1_555
C158_14 C157_14 1_555 1_555
H119_14 C158_14 1_555 1_555
C159_14 C154_14 1_555 1_555
H120_14 C159_14 1_555 1_555
C160_14 C156_14 1_555 1_555
Cu9_19 N10_8 1_555 1_555
O31_15 Cu2_12 1_555 1_555
O32_15 Cu2_12 1_555 1_555
O37_8 Cu11_4 1_555 1_555
O38_8 Cu11_4 1_555 1_555
N13_15 Cu2_12 1_555 1_555
O8_14 C48_14 1_555 1_555
O14_8 C70_15 1_555 1_555
C4_14 C5_14 1_555 1_555
C11_14 C12_14 1_555 1_555
C18_14 C19_14 1_555 1_555
C23_14 C27_14 1_555 1_555
C25_14 C26_14 1_555 1_555
C31_14 C32_14 1_555 1_555
C41_14 C42_14 1_555 1_555
C53_14 C54_14 1_555 1_555
C71_15 C72_15 1_555 1_555
C75_15 C76_15 1_555 1_555
C120_14 C121_14 1_555 1_555
C122_14 C123_14 1_555 1_555
C130_14 C131_14 1_555 1_555
C132_14 C133_14 1_555 1_555
C135_14 C136_14 1_555 1_555
C137_14 C138_14 1_555 1_555
O29_8 Cu9_19 1_555 1_555
O30_8 Cu9_19 1_555 1_555
C144_14 C145_14 1_555 1_555
C151_14 C152_14 1_555 1_555
C158_14 C159_14 1_555 1_555
O22_15 C103_15 1_555 1_555
O23_15 C103_15 1_555 1_555
O24_15 C107_15 1_555 1_555
C103_15 C105_15 1_555 1_555
C104_15 H77_15 1_555 1_555
C105_15 C104_15 1_555 1_555
C106_15 C105_15 1_555 1_555
H78_15 C106_15 1_555 1_555
C107_15 C106_15 1_555 1_555
C108_15 C107_15 1_555 1_555
H79_15 C108_15 1_555 1_555
C109_15 C104_15 1_555 1_555
H80_15 C109_15 1_555 1_555
C110_15 O24_15 1_555 1_555
H81_15 C110_15 1_555 1_555
H82_15 C110_15 1_555 1_555
C111_15 C110_15 1_555 1_555
H83_15 C112_15 1_555 1_555
H84_15 C113_15 1_555 1_555
Cu12_15 O22_15 1_555 1_555
O23_15 Cu12_15 1_555 1_555
C108_15 C109_15 1_555 1_555
C111_15 C112_15 1_555 1_555
C111_15 C113_15 1_555 1_555
O15_16 C74_16 1_555 1_555
C70_16 O37_8 1_555 1_555
C71_16 H53_16 1_555 1_555
C72_16 C70_16 1_555 1_555
C73_16 C72_16 1_555 1_555
H54_16 C73_16 1_555 1_555
C74_16 C73_16 1_555 1_555
C75_16 C74_16 1_555 1_555
H55_16 C75_16 1_555 1_555
C76_16 C71_16 1_555 1_555
H56_16 C76_16 1_555 1_555
C77_16 O15_16 1_555 1_555
H57_16 C77_16 1_555 1_555
H58_16 C77_16 1_555 1_555
C78_16 C77_16 1_555 1_555
C79_16 C78_16 1_555 1_555
H59_16 C79_16 1_555 1_555
C80_16 C78_16 1_555 1_555
H60_16 C80_16 1_555 1_555
O31_16 Cu9_19 1_555 1_555
O32_16 Cu9_19 1_555 1_555
N13_16 Cu9_19 1_555 1_555
O38_8 C70_16 1_555 1_555
C71_16 C72_16 1_555 1_555
C75_16 C76_16 1_555 1_555
O22_16 C103_16 1_555 1_555
O23_16 C103_16 1_555 1_555
O24_16 C107_16 1_555 1_555
C103_16 C105_16 1_555 1_555
C104_16 H77_16 1_555 1_555
C105_16 C104_16 1_555 1_555
C106_16 C105_16 1_555 1_555
H78_16 C106_16 1_555 1_555
C107_16 C106_16 1_555 1_555
C108_16 C107_16 1_555 1_555
H79_16 C108_16 1_555 1_555
C109_16 C104_16 1_555 1_555
H80_16 C109_16 1_555 1_555
C110_16 O24_16 1_555 1_555
H81_16 C110_16 1_555 1_555
H82_16 C110_16 1_555 1_555
C111_16 C110_16 1_555 1_555
H83_16 C112_16 1_555 1_555
H84_16 C113_16 1_555 1_555
Cu12_16 O22_16 1_555 1_555
O23_16 Cu12_16 1_555 1_555
C108_16 C109_16 1_555 1_555
C111_16 C112_16 1_555 1_555
C111_16 C113_16 1_555 1_555
H113_15 C151_15 1_555 1_555
C66_15 O12_15 1_555 1_555
H49_15 C66_15 1_555 1_555
C67_15 C66_15 1_555 1_555
C68_15 C67_15 1_555 1_555
H51_15 C68_15 1_555 1_555
C69_15 C67_15 1_555 1_555
H52_15 C69_15 1_555 1_555
O19_15 C92_15 1_555 1_555
O20_15 C92_15 1_555 1_555
O21_15 C97_15 1_555 1_555
C92_15 C93_15 1_555 1_555
C93_15 C94_15 1_555 1_555
C94_15 H69_15 1_555 1_555
C95_15 C94_15 1_555 1_555
H70_15 C95_15 1_555 1_555
C96_15 C95_15 1_555 1_555
H71_15 C96_15 1_555 1_555
C97_15 C96_15 1_555 1_555
C98_15 C93_15 1_555 1_555
H72_15 C98_15 1_555 1_555
C99_15 O21_15 1_555 1_555
H73_15 C99_15 1_555 1_555
H74_15 C99_15 1_555 1_555
C100_15 C99_15 1_555 1_555
C101_15 C69_15 1_555 1_555
H75_15 C101_15 1_555 1_555
C102_15 C68_15 1_555 1_555
H76_15 C102_15 1_555 1_555
O31_14 C160_15 1_555 1_555
C154_15 O28_15 1_555 1_555
C155_15 C154_15 1_555 1_555
C156_15 C155_15 1_555 1_555
C157_15 C156_15 1_555 1_555
H118_15 C157_15 1_555 1_555
C158_15 C157_15 1_555 1_555
H119_15 C158_15 1_555 1_555
C159_15 C154_15 1_555 1_555
H120_15 C159_15 1_555 1_555
C160_15 C156_15 1_555 1_555
Cu7_8 O19_15 1_555 1_555
Cu12_16 O19_15 1_555 1_555
O33_7 Cu4_4 1_555 1_555
O34_7 Cu4_4 1_555 1_555
O20_15 Cu12_16 1_555 1_555
C97_15 C98_15 1_555 1_555
C100_15 C101_15 1_555 1_555
C100_15 C102_15 1_555 1_555
C158_15 C159_15 1_555 1_555
O27_15 C144_15 1_555 1_555
C139_15 O25_15 1_555 1_555
C140_15 C139_15 1_555 1_555
C141_15 C140_15 1_555 1_555
H105_15 C141_15 1_555 1_555
C142_15 C141_15 1_555 1_555
H106_15 C142_15 1_555 1_555
C143_15 C142_15 1_555 1_555
H107_15 C143_15 1_555 1_555
C144_15 C143_15 1_555 1_555
C145_15 C140_15 1_555 1_555
C146_15 O27_15 1_555 1_555
H109_15 C146_15 1_555 1_555
H110_15 C146_15 1_555 1_555
C147_15 C146_15 1_555 1_555
C148_15 C147_15 1_555 1_555
H111_15 C148_15 1_555 1_555
C152_15 C147_15 1_555 1_555
C153_15 C150_15 1_555 1_555
H116_15 C153_15 1_555 1_555
O36_8 Cu12_14 1_555 1_555
Cu12_14 O35_8 1_555 1_555
C144_15 C145_15 1_555 1_555
Cu1_8 O1_15 1_555 1_555
Cu12_15 O10_8 1_555 1_555
O1_15 C6_15 1_555 1_555
O2_15 C6_15 1_555 1_555
O3_15 C11_15 1_555 1_555
O4_15 C20_15 1_555 1_555
O31_15 C27_15 1_555 1_555
O7_15 Cu1_8 1_555 1_555
O8_15 Cu1_8 1_555 1_555
O9_15 C53_15 1_555 1_555
O10_8 Cu1_8 1_555 1_555
O11_8 Cu12_15 1_555 1_555
N1_8 Cu1_8 1_555 1_555
N2_15 Cu1_8 1_555 1_555
N3_8 Cu12_15 1_555 1_555
N4_15 Cu12_15 1_555 1_555
C1_15 N13_15 1_555 1_555
H1_15 C1_15 1_555 1_555
C2_15 C1_15 1_555 1_555
H2_15 C2_15 1_555 1_555
C3_15 C2_15 1_555 1_555
C4_15 C3_15 1_555 1_555
H3_15 C4_15 1_555 1_555
C5_15 N13_15 1_555 1_555
H4_15 C5_15 1_555 1_555
C6_15 C7_15 1_555 1_555
C7_15 C8_15 1_555 1_555
C8_15 H5_15 1_555 1_555
C9_15 C8_15 1_555 1_555
H6_15 C9_15 1_555 1_555
C10_15 C9_15 1_555 1_555
H7_15 C10_15 1_555 1_555
C11_15 C10_15 1_555 1_555
C12_15 C7_15 1_555 1_555
H8_15 C12_15 1_555 1_555
C13_15 O3_15 1_555 1_555
H9_15 C13_15 1_555 1_555
H10_15 C13_15 1_555 1_555
C14_15 C13_15 1_555 1_555
C15_15 C14_15 1_555 1_555
H11_15 C15_15 1_555 1_555
C16_15 C15_15 1_555 1_555
H12_15 C16_15 1_555 1_555
C17_15 C16_15 1_555 1_555
C18_15 C17_15 1_555 1_555
H13_15 C18_15 1_555 1_555
C19_15 C14_15 1_555 1_555
H14_15 C19_15 1_555 1_555
C20_15 C17_15 1_555 1_555
H15_15 C20_15 1_555 1_555
H16_15 C20_15 1_555 1_555
C21_15 O4_15 1_555 1_555
C22_15 C21_15 1_555 1_555
H17_15 C22_15 1_555 1_555
C23_15 C22_15 1_555 1_555
C24_15 C23_15 1_555 1_555
H18_15 C24_15 1_555 1_555
C25_15 C24_15 1_555 1_555
H19_15 C25_15 1_555 1_555
C26_15 C21_15 1_555 1_555
H20_15 C26_15 1_555 1_555
C27_15 O32_15 1_555 1_555
C28_15 N2_15 1_555 1_555
H21_15 C28_15 1_555 1_555
C29_15 C28_15 1_555 1_555
H22_15 C29_15 1_555 1_555
C30_15 C29_15 1_555 1_555
C31_15 C30_15 1_555 1_555
H23_15 C31_15 1_555 1_555
C32_15 N2_15 1_555 1_555
H24_15 C32_15 1_555 1_555
C33_15 N1_8 1_555 1_555
H25_15 C33_15 1_555 1_555
C34_15 C33_15 1_555 1_555
H26_15 C34_15 1_555 1_555
C35_15 C34_15 1_555 1_555
C36_15 C35_15 1_555 1_555
H27_15 C36_15 1_555 1_555
C37_15 N1_8 1_555 1_555
H28_15 C37_15 1_555 1_555
C38_15 N4_15 1_555 1_555
H29_15 C38_15 1_555 1_555
C39_15 C38_15 1_555 1_555
H30_15 C39_15 1_555 1_555
C40_15 C39_15 1_555 1_555
C41_15 C40_15 1_555 1_555
H31_15 C41_15 1_555 1_555
C42_15 N4_15 1_555 1_555
H32_15 C42_15 1_555 1_555
C43_15 N3_8 1_555 1_555
H33_15 C43_15 1_555 1_555
C44_15 C43_15 1_555 1_555
H34_15 C44_15 1_555 1_555
C45_15 C44_15 1_555 1_555
C46_15 C45_15 1_555 1_555
H35_15 C46_15 1_555 1_555
C47_15 N3_8 1_555 1_555
H36_15 C47_15 1_555 1_555
C48_15 O7_15 1_555 1_555
C49_15 C48_15 1_555 1_555
C50_15 C49_15 1_555 1_555
H37_15 C50_15 1_555 1_555
C51_15 C50_15 1_555 1_555
H38_15 C51_15 1_555 1_555
C52_15 C51_15 1_555 1_555
H39_15 C52_15 1_555 1_555
C53_15 C52_15 1_555 1_555
C54_15 C49_15 1_555 1_555
H40_15 C54_15 1_555 1_555
C55_15 O9_15 1_555 1_555
H41_15 C55_15 1_555 1_555
H42_15 C55_15 1_555 1_555
C56_15 C55_15 1_555 1_555
C57_15 C56_15 1_555 1_555
H43_15 C57_15 1_555 1_555
C58_15 C56_15 1_555 1_555
H44_15 C58_15 1_555 1_555
C59_15 O10_8 1_555 1_555
C60_15 C59_15 1_555 1_555
C61_15 C60_15 1_555 1_555
H45_15 C61_15 1_555 1_555
C62_15 C61_15 1_555 1_555
H46_15 C62_15 1_555 1_555
C63_15 C62_15 1_555 1_555
H47_15 C63_15 1_555 1_555
C64_15 C63_15 1_555 1_555
C65_15 C60_15 1_555 1_555
H48_15 C65_15 1_555 1_555
O33_7 C81_15 1_555 1_555
O34_7 C81_15 1_555 1_555
O18_15 C86_15 1_555 1_555
C81_15 C82_15 1_555 1_555
C82_15 C83_15 1_555 1_555
C83_15 H61_15 1_555 1_555
C84_15 C83_15 1_555 1_555
H62_15 C84_15 1_555 1_555
C85_15 C84_15 1_555 1_555
H63_15 C85_15 1_555 1_555
C86_15 C85_15 1_555 1_555
C87_15 C82_15 1_555 1_555
H64_15 C87_15 1_555 1_555
C88_15 O18_15 1_555 1_555
H65_15 C88_15 1_555 1_555
H66_15 C88_15 1_555 1_555
C89_15 C88_15 1_555 1_555
C90_15 C58_15 1_555 1_555
H67_15 C90_15 1_555 1_555
C91_15 C57_15 1_555 1_555
H68_15 C91_15 1_555 1_555
N6_15 C114_15 1_555 1_555
C114_15 H85_15 1_555 1_555
C115_15 C114_15 1_555 1_555
H86_15 C115_15 1_555 1_555
C116_15 C35_15 1_555 1_555
C117_15 C116_15 1_555 1_555
H87_15 C117_15 1_555 1_555
C118_15 N6_15 1_555 1_555
H88_15 C118_15 1_555 1_555
N7_15 C119_15 1_555 1_555
C119_15 H89_15 1_555 1_555
C120_15 C119_15 1_555 1_555
H90_15 C120_15 1_555 1_555
C121_15 C30_15 1_555 1_555
C122_15 C121_15 1_555 1_555
H91_15 C122_15 1_555 1_555
C123_15 N7_15 1_555 1_555
N8_15 C124_15 1_555 1_555
C124_15 H93_15 1_555 1_555
C125_15 C124_15 1_555 1_555
H94_15 C125_15 1_555 1_555
C126_15 C45_15 1_555 1_555
C127_15 C126_15 1_555 1_555
H95_15 C127_15 1_555 1_555
C128_15 N8_15 1_555 1_555
H96_15 C128_15 1_555 1_555
N9_15 C129_15 1_555 1_555
C129_15 H97_15 1_555 1_555
C130_15 C129_15 1_555 1_555
H98_15 C130_15 1_555 1_555
C131_15 C40_15 1_555 1_555
C132_15 C131_15 1_555 1_555
H99_15 C132_15 1_555 1_555
C133_15 N9_15 1_555 1_555
N13_14 C134_15 1_555 1_555
C134_15 H101_15 1_555 1_555
C135_15 C134_15 1_555 1_555
H102_15 C135_15 1_555 1_555
C136_15 C3_15 1_555 1_555
C137_15 C136_15 1_555 1_555
H103_15 C137_15 1_555 1_555
C138_15 N13_14 1_555 1_555
H112_15 C149_15 1_555 1_555
Cu7_8 N6_15 1_555 1_555
Cu12_16 N8_15 1_555 1_555
O8_15 C48_15 1_555 1_555
O11_8 C59_15 1_555 1_555
C4_15 C5_15 1_555 1_555
C11_15 C12_15 1_555 1_555
C18_15 C19_15 1_555 1_555
C23_15 C27_15 1_555 1_555
C25_15 C26_15 1_555 1_555
C31_15 C32_15 1_555 1_555
C36_15 C37_15 1_555 1_555
C41_15 C42_15 1_555 1_555
C46_15 C47_15 1_555 1_555
C53_15 C54_15 1_555 1_555
C64_15 C65_15 1_555 1_555
C86_15 C87_15 1_555 1_555
C89_15 C90_15 1_555 1_555
C89_15 C91_15 1_555 1_555
C115_15 C116_15 1_555 1_555
C117_15 C118_15 1_555 1_555
C120_15 C121_15 1_555 1_555
C122_15 C123_15 1_555 1_555
C125_15 C126_15 1_555 1_555
C127_15 C128_15 1_555 1_555
C130_15 C131_15 1_555 1_555
C132_15 C133_15 1_555 1_555
C135_15 C136_15 1_555 1_555
C137_15 C138_15 1_555 1_555
C33_16 N11_8 1_555 1_555
C34_16 C33_16 1_555 1_555
H26_16 C34_16 1_555 1_555
C35_16 C34_16 1_555 1_555
C36_16 C35_16 1_555 1_555
H27_16 C36_16 1_555 1_555
C37_16 N11_8 1_555 1_555
H28_16 C37_16 1_555 1_555
C43_16 N12_8 1_555 1_555
C44_16 C43_16 1_555 1_555
H34_16 C44_16 1_555 1_555
C45_16 C44_16 1_555 1_555
C46_16 C45_16 1_555 1_555
H35_16 C46_16 1_555 1_555
C47_16 N12_8 1_555 1_555
H36_16 C47_16 1_555 1_555
N6_16 C114_16 1_555 1_555
C114_16 H85_16 1_555 1_555
C115_16 C114_16 1_555 1_555
H86_16 C115_16 1_555 1_555
C116_16 C35_16 1_555 1_555
C117_16 C116_16 1_555 1_555
H87_16 C117_16 1_555 1_555
C118_16 N6_16 1_555 1_555
H88_16 C118_16 1_555 1_555
N8_16 C124_16 1_555 1_555
C124_16 H93_16 1_555 1_555
C125_16 C124_16 1_555 1_555
H94_16 C125_16 1_555 1_555
C126_16 C45_16 1_555 1_555
C127_16 C126_16 1_555 1_555
H95_16 C127_16 1_555 1_555
C128_16 N8_16 1_555 1_555
H96_16 C128_16 1_555 1_555
Cu8_8 N6_16 1_555 1_555
Cu12_13 N8_16 1_555 1_555
C36_16 C37_16 1_555 1_555
C46_16 C47_16 1_555 1_555
C115_16 C116_16 1_555 1_555
C117_16 C118_16 1_555 1_555
C125_16 C126_16 1_555 1_555
C127_16 C128_16 1_555 1_555
O12_16 C64_16 1_555 1_555
C59_16 O35_8 1_555 1_555
C60_16 C59_16 1_555 1_555
C61_16 C60_16 1_555 1_555
H45_16 C61_16 1_555 1_555
C62_16 C61_16 1_555 1_555
H46_16 C62_16 1_555 1_555
C63_16 C62_16 1_555 1_555
H47_16 C63_16 1_555 1_555
C64_16 C63_16 1_555 1_555
C65_16 C60_16 1_555 1_555
H48_16 C65_16 1_555 1_555
C66_16 O12_16 1_555 1_555
H49_16 C66_16 1_555 1_555
H50_16 C66_16 1_555 1_555
C67_16 C66_16 1_555 1_555
C68_16 C67_16 1_555 1_555
H51_16 C68_16 1_555 1_555
C69_16 C67_16 1_555 1_555
H52_16 C69_16 1_555 1_555
O19_16 C92_16 1_555 1_555
O20_16 C92_16 1_555 1_555
O21_16 C97_16 1_555 1_555
C92_16 C93_16 1_555 1_555
C93_16 C94_16 1_555 1_555
C94_16 H69_16 1_555 1_555
C95_16 C94_16 1_555 1_555
H70_16 C95_16 1_555 1_555
C96_16 C95_16 1_555 1_555
H71_16 C96_16 1_555 1_555
C97_16 C96_16 1_555 1_555
C98_16 C93_16 1_555 1_555
H72_16 C98_16 1_555 1_555
C99_16 O21_16 1_555 1_555
H73_16 C99_16 1_555 1_555
H74_16 C99_16 1_555 1_555
C100_16 C99_16 1_555 1_555
C101_16 C69_16 1_555 1_555
H75_16 C101_16 1_555 1_555
C102_16 C68_16 1_555 1_555
H76_16 C102_16 1_555 1_555
Cu8_8 O19_16 1_555 1_555
Cu12_13 O19_16 1_555 1_555
O36_8 C59_16 1_555 1_555
C64_16 C65_16 1_555 1_555
O20_16 Cu12_13 1_555 1_555
C97_16 C98_16 1_555 1_555
C100_16 C101_16 1_555 1_555
C100_16 C102_16 1_555 1_555
Cu8_8 O1_16 1_555 1_555
O1_16 C6_16 1_555 1_555
O2_16 C6_16 1_555 1_555
O3_16 C11_16 1_555 1_555
O4_16 C20_16 1_555 1_555
O31_13 C27_16 1_555 1_555
O7_16 Cu8_8 1_555 1_555
O8_16 Cu8_8 1_555 1_555
N2_16 Cu8_8 1_555 1_555
N4_16 Cu12_13 1_555 1_555
C1_16 N13_13 1_555 1_555
H1_16 C1_16 1_555 1_555
C2_16 C1_16 1_555 1_555
H2_16 C2_16 1_555 1_555
C3_16 C2_16 1_555 1_555
C4_16 C3_16 1_555 1_555
H3_16 C4_16 1_555 1_555
C5_16 N13_13 1_555 1_555
H4_16 C5_16 1_555 1_555
C6_16 C7_16 1_555 1_555
C7_16 C8_16 1_555 1_555
C8_16 H5_16 1_555 1_555
C9_16 C8_16 1_555 1_555
H6_16 C9_16 1_555 1_555
C10_16 C9_16 1_555 1_555
H7_16 C10_16 1_555 1_555
C11_16 C10_16 1_555 1_555
C12_16 C7_16 1_555 1_555
H8_16 C12_16 1_555 1_555
C13_16 O3_16 1_555 1_555
H9_16 C13_16 1_555 1_555
H10_16 C13_16 1_555 1_555
C14_16 C13_16 1_555 1_555
C15_16 C14_16 1_555 1_555
H11_16 C15_16 1_555 1_555
C16_16 C15_16 1_555 1_555
H12_16 C16_16 1_555 1_555
C17_16 C16_16 1_555 1_555
C18_16 C17_16 1_555 1_555
H13_16 C18_16 1_555 1_555
C19_16 C14_16 1_555 1_555
H14_16 C19_16 1_555 1_555
C20_16 C17_16 1_555 1_555
H15_16 C20_16 1_555 1_555
H16_16 C20_16 1_555 1_555
C21_16 O4_16 1_555 1_555
C22_16 C21_16 1_555 1_555
H17_16 C22_16 1_555 1_555
C23_16 C22_16 1_555 1_555
C24_16 C23_16 1_555 1_555
H18_16 C24_16 1_555 1_555
C25_16 C24_16 1_555 1_555
H19_16 C25_16 1_555 1_555
C26_16 C21_16 1_555 1_555
H20_16 C26_16 1_555 1_555
C27_16 O32_13 1_555 1_555
C28_16 N2_16 1_555 1_555
H21_16 C28_16 1_555 1_555
C29_16 C28_16 1_555 1_555
H22_16 C29_16 1_555 1_555
C30_16 C29_16 1_555 1_555
C31_16 C30_16 1_555 1_555
H23_16 C31_16 1_555 1_555
C32_16 N2_16 1_555 1_555
H24_16 C32_16 1_555 1_555
C38_16 N4_16 1_555 1_555
H29_16 C38_16 1_555 1_555
C39_16 C38_16 1_555 1_555
H30_16 C39_16 1_555 1_555
C40_16 C39_16 1_555 1_555
C41_16 C40_16 1_555 1_555
H31_16 C41_16 1_555 1_555
C42_16 N4_16 1_555 1_555
H32_16 C42_16 1_555 1_555
C48_16 O7_16 1_555 1_555
C49_16 C48_16 1_555 1_555
C50_16 C49_16 1_555 1_555
H37_16 C50_16 1_555 1_555
C51_16 C50_16 1_555 1_555
H38_16 C51_16 1_555 1_555
C52_16 C51_16 1_555 1_555
H39_16 C52_16 1_555 1_555
C53_16 C52_16 1_555 1_555
C54_16 C49_16 1_555 1_555
H40_16 C54_16 1_555 1_555
N7_16 C119_16 1_555 1_555
C119_16 H89_16 1_555 1_555
C120_16 C119_16 1_555 1_555
H90_16 C120_16 1_555 1_555
C121_16 C30_16 1_555 1_555
C122_16 C121_16 1_555 1_555
H91_16 C122_16 1_555 1_555
C123_16 N7_16 1_555 1_555
H92_16 C123_16 1_555 1_555
N9_16 C129_16 1_555 1_555
C129_16 H97_16 1_555 1_555
C130_16 C129_16 1_555 1_555
H98_16 C130_16 1_555 1_555
C131_16 C40_16 1_555 1_555
C132_16 C131_16 1_555 1_555
H99_16 C132_16 1_555 1_555
C133_16 N9_16 1_555 1_555
H100_16 C133_16 1_555 1_555
N13_16 C134_16 1_555 1_555
C134_16 H101_16 1_555 1_555
C135_16 C134_16 1_555 1_555
H102_16 C135_16 1_555 1_555
C136_16 C3_16 1_555 1_555
C137_16 C136_16 1_555 1_555
H103_16 C137_16 1_555 1_555
C138_16 N13_16 1_555 1_555
H104_16 C138_16 1_555 1_555
Cu7_8 N7_16 1_555 1_555
Cu12_16 N9_16 1_555 1_555
O25_16 Cu7_8 1_555 1_555
O26_16 C139_16 1_555 1_555
O27_16 C144_16 1_555 1_555
O28_16 C153_16 1_555 1_555
O31_16 C160_16 1_555 1_555
O32_16 C160_16 1_555 1_555
C139_16 O25_16 1_555 1_555
C140_16 C139_16 1_555 1_555
C141_16 C140_16 1_555 1_555
H105_16 C141_16 1_555 1_555
C142_16 C141_16 1_555 1_555
H106_16 C142_16 1_555 1_555
C143_16 C142_16 1_555 1_555
H107_16 C143_16 1_555 1_555
C144_16 C143_16 1_555 1_555
C145_16 C140_16 1_555 1_555
H108_16 C145_16 1_555 1_555
C146_16 O27_16 1_555 1_555
H109_16 C146_16 1_555 1_555
H110_16 C146_16 1_555 1_555
C147_16 C146_16 1_555 1_555
C148_16 C147_16 1_555 1_555
H111_16 C148_16 1_555 1_555
C149_16 C148_16 1_555 1_555
H112_16 C149_16 1_555 1_555
C150_16 C149_16 1_555 1_555
C151_16 C150_16 1_555 1_555
H113_16 C151_16 1_555 1_555
C152_16 C147_16 1_555 1_555
H114_16 C152_16 1_555 1_555
C153_16 C150_16 1_555 1_555
H115_16 C153_16 1_555 1_555
H116_16 C153_16 1_555 1_555
C154_16 O28_16 1_555 1_555
C155_16 C154_16 1_555 1_555
H117_16 C155_16 1_555 1_555
C156_16 C155_16 1_555 1_555
C157_16 C156_16 1_555 1_555
H118_16 C157_16 1_555 1_555
C158_16 C157_16 1_555 1_555
H119_16 C158_16 1_555 1_555
C159_16 C154_16 1_555 1_555
H120_16 C159_16 1_555 1_555
C160_16 C156_16 1_555 1_555
O33_8 Cu7_8 1_555 1_555
O34_8 Cu7_8 1_555 1_555
O8_16 C48_16 1_555 1_555
C4_16 C5_16 1_555 1_555
C11_16 C12_16 1_555 1_555
C18_16 C19_16 1_555 1_555
C23_16 C27_16 1_555 1_555
C25_16 C26_16 1_555 1_555
C31_16 C32_16 1_555 1_555
C41_16 C42_16 1_555 1_555
C53_16 C54_16 1_555 1_555
C120_16 C121_16 1_555 1_555
C122_16 C123_16 1_555 1_555
C130_16 C131_16 1_555 1_555
C132_16 C133_16 1_555 1_555
C135_16 C136_16 1_555 1_555
C137_16 C138_16 1_555 1_555
C144_16 C145_16 1_555 1_555
C151_16 C152_16 1_555 1_555
C158_16 C159_16 1_555 1_555
C55_16 O9_16 1_555 1_555
H42_16 C55_16 1_555 1_555
C56_16 C55_16 1_555 1_555
C57_16 C56_16 1_555 1_555
H43_16 C57_16 1_555 1_555
C58_16 C56_16 1_555 1_555
H44_16 C58_16 1_555 1_555
O33_8 C81_16 1_555 1_555
O34_8 C81_16 1_555 1_555
O18_16 C86_16 1_555 1_555
C81_16 C82_16 1_555 1_555
C82_16 C83_16 1_555 1_555
C83_16 H61_16 1_555 1_555
C84_16 C83_16 1_555 1_555
H62_16 C84_16 1_555 1_555
C85_16 C84_16 1_555 1_555
H63_16 C85_16 1_555 1_555
C86_16 C85_16 1_555 1_555
C87_16 C82_16 1_555 1_555
H64_16 C87_16 1_555 1_555
C88_16 O18_16 1_555 1_555
H65_16 C88_16 1_555 1_555
H66_16 C88_16 1_555 1_555
C89_16 C88_16 1_555 1_555
C90_16 C58_16 1_555 1_555
H67_16 C90_16 1_555 1_555
C91_16 C57_16 1_555 1_555
H68_16 C91_16 1_555 1_555
C86_16 C87_16 1_555 1_555
C89_16 C90_16 1_555 1_555
C89_16 C91_16 1_555 1_555

#END
