
###############################################################################
#
# This file contains modified crystal structure data generated from the
# MOF subset of the Cambridge Structural Database (CSD) v543 
# hosted by the Cambridge Crystallographic Data Centre (CCDC).
#
# This work is licensed under the Creative Commons
# Attribution-NonCommercial-ShareAlike 4.0 International License.
# To view a copy of this license, visit
# http://creativecommons.org/licenses/by-nc-sa/4.0/
# or send a letter to
# Creative Commons, PO Box 1866, Mountain View, CA 94042, USA.
#
# CIF created using the CSD Python API on 29 September 2022
# The structure has been converted into the P1 space group
# The structure has a 3D framework
# The original CSD entry BUPVIT is in the cubic crystal system
# The framework has been calculated to contain at least 10.0% void space
# The void calculation uses a probe of radius 1.32A, grid spacing 0.4
# H atom positions have been added when not included in the experimental data
#
###############################################################################

data_BUPVIT
_chemical_formula_moiety         '(C288 H144 Ce28 O160)n'
_symmetry_cell_setting           triclinic
_symmetry_space_group_name_H-M   'P 1'
_symmetry_Int_Tables_number      1
_space_group_name_Hall           'P 1'
loop_
_symmetry_equiv_pos_site_id
_symmetry_equiv_pos_as_xyz
1 x,y,z
_cell_length_a                   21.4727(3)
_cell_length_b                   21.4727(3)
_cell_length_c                   21.4727(3)
_cell_angle_alpha                90
_cell_angle_beta                 90
_cell_angle_gamma                90
_cell_volume                     9900.56
loop_
_atom_site_label
_atom_site_type_symbol
_atom_site_fract_x
_atom_site_fract_y
_atom_site_fract_z
_atom_site_U_iso_or_equiv
_atom_site_thermal_displace_type
Ce1 Ce 0.12416(18) 0.000 0.000 0.0046 Uiso
O1 O 0.1747(7) 0.000 0.0997(6) 0.0177 Uiso
C1 C 0.157(2) 0.000 0.157(2) 0.0063 Uiso
C2 C 0.204(2) 0.000 0.204(2) 0.0063 Uiso
C3 C 0.2666(9) 0.000 0.1875(9) 0.0063 Uiso
O2 O 0.0656(7) 0.0656(7) 0.0656(7) 0.0177 Uiso
O3 O 0.0997(6) 0.000 0.1747(7) 0.0177 Uiso
C4 C 0.1875(9) 0.000 0.2666(9) 0.0063 Uiso
O4 O 0.4003(6) 0.000 0.3253(7) 0.0177 Uiso
C5 C 0.343(2) 0.000 0.343(2) 0.0063 Uiso
C6 C 0.296(2) 0.000 0.296(2) 0.0063 Uiso
C7 C 0.3125(9) 0.000 0.2334(9) 0.0063 Uiso
O5 O 0.3253(7) 0.000 0.4003(6) 0.0177 Uiso
C8 C 0.2334(9) 0.000 0.3125(9) 0.0063 Uiso
Ce2 Ce 0.000 0.000 0.12416(18) 0.0046 Uiso
O11 O 0.000 0.0997(6) 0.1747(7) 0.0177 Uiso
C17 C 0.000 0.157(2) 0.157(2) 0.0063 Uiso
C18 C 0.000 0.204(2) 0.204(2) 0.0063 Uiso
C19 C -0.000 0.1875(9) 0.2666(9) 0.0063 Uiso
O13 O 0.000 0.1747(7) 0.0997(6) 0.0177 Uiso
C20 C 0.000 0.2666(9) 0.1875(9) 0.0063 Uiso
O14 O 0.000 0.3253(7) 0.4003(6) 0.0177 Uiso
C21 C 0.000 0.343(2) 0.343(2) 0.0063 Uiso
C22 C 0.000 0.296(2) 0.296(2) 0.0063 Uiso
C23 C 0.000 0.2334(9) 0.3125(9) 0.0063 Uiso
O15 O 0.000 0.4003(6) 0.3253(7) 0.0177 Uiso
C24 C 0.000 0.3125(9) 0.2334(9) 0.0063 Uiso
Ce3 Ce 0.000 0.12416(18) 0.000 0.0046 Uiso
Ce7 Ce 0.37584(18) 0.000 0.500 0.0046 Uiso
Ce8 Ce 0.500 0.000 0.37584(18) 0.0046 Uiso
Ce9 Ce 0.000 0.37584(18) 0.500 0.0046 Uiso
Ce11 Ce 0.000 0.500 0.37584(18) 0.0046 Uiso
O20 O 0.0997(6) 0.1747(7) 0.000 0.0177 Uiso
O23 O 0.1747(7) 0.0997(6) 0.000 0.0177 Uiso
H2 H 6.16298e-33 0.138539 0.279826 . .
H3 H 0.279826 4.62223e-33 0.138539 . .
H4 H 0.361461 6.16298e-33 0.220174 . .
H7 H 0.220174 6.16298e-33 0.361461 . .
H9 H 0.138539 0 0.279826 . .
H10 H 6.16298e-33 0.220174 0.361461 . .
H11 H 7.70372e-33 0.361461 0.220174 . .
H12 H 1.07852e-32 0.279826 0.138539 . .
Ce1_2 Ce 0.12416(18) 0.000 1.000 0.0046 Uiso
Ce3_2 Ce 0.000 0.12416(18) 1.000 0.0046 Uiso
Ce6 Ce 0.000 0.000 0.87584(18) 0.0046 Uiso
O17 O 0.000 0.1747(7) 0.9003(6) 0.0177 Uiso
O20_2 O 0.0997(6) 0.1747(7) 1.000 0.0177 Uiso
O21 O 0.1747(7) 0.000 0.9003(6) 0.0177 Uiso
O23_2 O 0.1747(7) 0.0997(6) 1.000 0.0177 Uiso
O26 O 0.0656(7) 0.0656(7) 0.9344(7) 0.0177 Uiso
Ce1_3 Ce 0.12416(18) 1.000 0.000 0.0046 Uiso
O1_2 O 0.1747(7) 1.000 0.0997(6) 0.0177 Uiso
C1_2 C 0.157(2) 1.000 0.157(2) 0.0063 Uiso
C2_2 C 0.204(2) 1.000 0.204(2) 0.0063 Uiso
C3_2 C 0.2666(9) 1.000 0.1875(9) 0.0063 Uiso
O3_2 O 0.0997(6) 1.000 0.1747(7) 0.0177 Uiso
C4_2 C 0.1875(9) 1.000 0.2666(9) 0.0063 Uiso
O4_2 O 0.4003(6) 1.000 0.3253(7) 0.0177 Uiso
C5_2 C 0.343(2) 1.000 0.343(2) 0.0063 Uiso
C6_2 C 0.296(2) 1.000 0.296(2) 0.0063 Uiso
C7_2 C 0.3125(9) 1.000 0.2334(9) 0.0063 Uiso
O5_2 O 0.3253(7) 1.000 0.4003(6) 0.0177 Uiso
C8_2 C 0.2334(9) 1.000 0.3125(9) 0.0063 Uiso
Ce2_2 Ce 0.000 1.000 0.12416(18) 0.0046 Uiso
O6 O 0.000 0.9003(6) 0.1747(7) 0.0177 Uiso
C9 C 0.000 0.843(2) 0.157(2) 0.0063 Uiso
C10 C 0.000 0.796(2) 0.204(2) 0.0063 Uiso
C11 C 0.000 0.8125(9) 0.2666(9) 0.0063 Uiso
O8 O 0.000 0.8253(7) 0.0997(6) 0.0177 Uiso
C12 C 0.000 0.7334(9) 0.1875(9) 0.0063 Uiso
O9 O 0.000 0.6747(7) 0.4003(6) 0.0177 Uiso
C13 C -0.000 0.657(2) 0.343(2) 0.0063 Uiso
C14 C 0.000 0.704(2) 0.296(2) 0.0063 Uiso
C15 C 0.000 0.7666(9) 0.3125(9) 0.0063 Uiso
O10 O 0.000 0.5997(6) 0.3253(7) 0.0177 Uiso
C16 C 0.000 0.6875(9) 0.2334(9) 0.0063 Uiso
Ce5 Ce 0.000 0.87584(18) 0.000 0.0046 Uiso
Ce7_2 Ce 0.37584(18) 1.000 0.500 0.0046 Uiso
Ce8_2 Ce 0.500 1.000 0.37584(18) 0.0046 Uiso
Ce12 Ce 0.000 0.62416(18) 0.500 0.0046 Uiso
O22 O 0.1747(7) 0.9003(6) 0.000 0.0177 Uiso
O25 O 0.0656(7) 0.9344(7) 0.0656(7) 0.0177 Uiso
H1 H 9.24446e-33 0.861461 0.279826 . .
H3_2 H 0.279826 1 0.138539 . .
H4_2 H 0.361461 1 0.220174 . .
H5 H 1.54074e-33 0.720174 0.138539 . .
H6 H 7.70372e-33 0.638539 0.220174 . .
H7_2 H 0.220174 1 0.361461 . .
H8 H 1.2326e-32 0.779826 0.361461 . .
H9_2 H 0.138539 1 0.279826 . .
Ce1_4 Ce 0.12416(18) 1.000 1.000 0.0046 Uiso
Ce5_2 Ce 0.000 0.87584(18) 1.000 0.0046 Uiso
Ce6_2 Ce 0.000 1.000 0.87584(18) 0.0046 Uiso
O21_2 O 0.1747(7) 1.000 0.9003(6) 0.0177 Uiso
O22_2 O 0.1747(7) 0.9003(6) 1.000 0.0177 Uiso
O24 O 0.0656(7) 0.9344(7) 0.9344(7) 0.0177 Uiso
Ce2_3 Ce 1.000 0.000 0.12416(18) 0.0046 Uiso
O11_2 O 1.000 0.0997(6) 0.1747(7) 0.0177 Uiso
C17_2 C 1.000 0.157(2) 0.157(2) 0.0063 Uiso
C18_2 C 1.000 0.204(2) 0.204(2) 0.0063 Uiso
C19_2 C 1.000 0.1875(9) 0.2666(9) 0.0063 Uiso
O12 O 0.9344(7) 0.0656(7) 0.0656(7) 0.0177 Uiso
O13_2 O 1.000 0.1747(7) 0.0997(6) 0.0177 Uiso
C20_2 C 1.000 0.2666(9) 0.1875(9) 0.0063 Uiso
O14_2 O 1.000 0.3253(7) 0.4003(6) 0.0177 Uiso
C21_2 C 1.000 0.343(2) 0.343(2) 0.0063 Uiso
C22_2 C 1.000 0.296(2) 0.296(2) 0.0063 Uiso
C23_2 C 1.000 0.2334(9) 0.3125(9) 0.0063 Uiso
O15_2 O 1.000 0.4003(6) 0.3253(7) 0.0177 Uiso
C24_2 C 1.000 0.3125(9) 0.2334(9) 0.0063 Uiso
Ce3_3 Ce 1.000 0.12416(18) 0.000 0.0046 Uiso
Ce4 Ce 0.87584(18) 0.000 0.000 0.0046 Uiso
Ce9_2 Ce 1.000 0.37584(18) 0.500 0.0046 Uiso
Ce11_2 Ce 1.000 0.500 0.37584(18) 0.0046 Uiso
O18 O 0.9003(6) 0.000 0.1747(7) 0.0177 Uiso
O19 O 0.9003(6) 0.1747(7) 0.000 0.0177 Uiso
H2_2 H 1 0.138539 0.279826 . .
H10_2 H 1 0.220174 0.361461 . .
H11_2 H 1 0.361461 0.220174 . .
H12_2 H 1 0.279826 0.138539 . .
Ce3_4 Ce 1.000 0.12416(18) 1.000 0.0046 Uiso
O16 O 0.9344(7) 0.0656(7) 0.9344(7) 0.0177 Uiso
Ce4_2 Ce 0.87584(18) 0.000 1.000 0.0046 Uiso
Ce6_3 Ce 1.000 0.000 0.87584(18) 0.0046 Uiso
O17_2 O 1.000 0.1747(7) 0.9003(6) 0.0177 Uiso
O19_2 O 0.9003(6) 0.1747(7) 1.000 0.0177 Uiso
Ce2_4 Ce 1.000 1.000 0.12416(18) 0.0046 Uiso
O6_2 O 1.000 0.9003(6) 0.1747(7) 0.0177 Uiso
C9_2 C 1.000 0.843(2) 0.157(2) 0.0063 Uiso
C10_2 C 1.000 0.796(2) 0.204(2) 0.0063 Uiso
C11_2 C 1.000 0.8125(9) 0.2666(9) 0.0063 Uiso
O7 O 0.9344(7) 0.9344(7) 0.0656(7) 0.0177 Uiso
O8_2 O 1.000 0.8253(7) 0.0997(6) 0.0177 Uiso
C12_2 C 1.000 0.7334(9) 0.1875(9) 0.0063 Uiso
O9_2 O 1.000 0.6747(7) 0.4003(6) 0.0177 Uiso
C13_2 C 1.000 0.657(2) 0.343(2) 0.0063 Uiso
C14_2 C 1.000 0.704(2) 0.296(2) 0.0063 Uiso
C15_2 C 1.000 0.7666(9) 0.3125(9) 0.0063 Uiso
O10_2 O 1.000 0.5997(6) 0.3253(7) 0.0177 Uiso
C16_2 C 1.000 0.6875(9) 0.2334(9) 0.0063 Uiso
Ce4_3 Ce 0.87584(18) 1.000 0.000 0.0046 Uiso
Ce5_3 Ce 1.000 0.87584(18) 0.000 0.0046 Uiso
Ce12_2 Ce 1.000 0.62416(18) 0.500 0.0046 Uiso
O18_2 O 0.9003(6) 1.000 0.1747(7) 0.0177 Uiso
H1_2 H 1 0.861461 0.279826 . .
H5_2 H 1 0.720174 0.138539 . .
H6_2 H 1 0.638539 0.220174 . .
H8_2 H 1 0.779826 0.361461 . .
Ce4_4 Ce 0.87584(18) 1.000 1.000 0.0046 Uiso
Ce5_4 Ce 1.000 0.87584(18) 1.000 0.0046 Uiso
Ce6_4 Ce 1.000 1.000 0.87584(18) 0.0046 Uiso
O19_3 O 0.0997(6) 0.8253(7) 0.000 0.0177 Uiso
O17_3 O 0.000 0.8253(7) 0.9003(6) 0.0177 Uiso
O19_4 O 0.0997(6) 0.8253(7) 1.000 0.0177 Uiso
O1_3 O 0.8253(7) 0.000 0.0997(6) 0.0177 Uiso
C1_3 C 0.843(2) 0.000 0.157(2) 0.0063 Uiso
C2_3 C 0.796(2) 0.000 0.204(2) 0.0063 Uiso
C3_3 C 0.7334(9) -0.000 0.1875(9) 0.0063 Uiso
C4_3 C 0.8125(9) 0.000 0.2666(9) 0.0063 Uiso
O4_3 O 0.5997(6) -0.000 0.3253(7) 0.0177 Uiso
C5_3 C 0.657(2) -0.000 0.343(2) 0.0063 Uiso
C6_3 C 0.704(2) 0.000 0.296(2) 0.0063 Uiso
C7_3 C 0.6875(9) 0.000 0.2334(9) 0.0063 Uiso
O5_3 O 0.6747(7) -0.000 0.4003(6) 0.0177 Uiso
C8_3 C 0.7666(9) 0.000 0.3125(9) 0.0063 Uiso
Ce7_3 Ce 0.62416(18) 0.000 0.500 0.0046 Uiso
O22_3 O 0.8253(7) 0.0997(6) 0.000 0.0177 Uiso
H3_3 H 0.720174 -4.62223e-33 0.138539 . .
H4_3 H 0.638539 -3.08149e-33 0.220174 . .
H7_3 H 0.779826 -3.08149e-33 0.361461 . .
H9_3 H 0.861461 0 0.279826 . .
O21_3 O 0.8253(7) 0.000 0.9003(6) 0.0177 Uiso
O22_4 O 0.8253(7) 0.0997(6) 1.000 0.0177 Uiso
O1_4 O 0.8253(7) 1.000 0.0997(6) 0.0177 Uiso
C1_4 C 0.843(2) 1.000 0.157(2) 0.0063 Uiso
C2_4 C 0.796(2) 1.000 0.204(2) 0.0063 Uiso
C3_4 C 0.7334(9) 1.000 0.1875(9) 0.0063 Uiso
C4_4 C 0.8125(9) 1.000 0.2666(9) 0.0063 Uiso
O4_4 O 0.5997(6) 1.000 0.3253(7) 0.0177 Uiso
C5_4 C 0.657(2) 1.000 0.343(2) 0.0063 Uiso
C6_4 C 0.704(2) 1.000 0.296(2) 0.0063 Uiso
C7_4 C 0.6875(9) 1.000 0.2334(9) 0.0063 Uiso
O5_4 O 0.6747(7) 1.000 0.4003(6) 0.0177 Uiso
C8_4 C 0.7666(9) 1.000 0.3125(9) 0.0063 Uiso
Ce7_4 Ce 0.62416(18) 1.000 0.500 0.0046 Uiso
O20_3 O 0.9003(6) 0.8253(7) 0.000 0.0177 Uiso
O23_3 O 0.8253(7) 0.9003(6) 0.000 0.0177 Uiso
H3_4 H 0.720174 1 0.138539 . .
H4_4 H 0.638539 1 0.220174 . .
H7_4 H 0.779826 1 0.361461 . .
H9_4 H 0.861461 1 0.279826 . .
O17_4 O 1.000 0.8253(7) 0.9003(6) 0.0177 Uiso
O20_4 O 0.9003(6) 0.8253(7) 1.000 0.0177 Uiso
O21_4 O 0.8253(7) 1.000 0.9003(6) 0.0177 Uiso
O23_4 O 0.8253(7) 0.9003(6) 1.000 0.0177 Uiso
O26_2 O 0.9344(7) 0.9344(7) 0.9344(7) 0.0177 Uiso
O17_5 O 0.000 0.0997(6) 0.8253(7) 0.0177 Uiso
O19_5 O 0.0997(6) 0.000 0.8253(7) 0.0177 Uiso
C17_3 C 0.000 0.843(2) 0.843(2) 0.0063 Uiso
C18_3 C 0.000 0.796(2) 0.796(2) 0.0063 Uiso
C19_3 C 0.000 0.7334(9) 0.8125(9) 0.0063 Uiso
O13_3 O 0.000 0.9003(6) 0.8253(7) 0.0177 Uiso
C20_3 C 0.000 0.8125(9) 0.7334(9) 0.0063 Uiso
O14_3 O 0.000 0.5997(6) 0.6747(7) 0.0177 Uiso
C21_3 C 0.000 0.657(2) 0.657(2) 0.0063 Uiso
C22_3 C 0.000 0.704(2) 0.704(2) 0.0063 Uiso
C23_3 C 0.000 0.6875(9) 0.7666(9) 0.0063 Uiso
O15_3 O 0.000 0.6747(7) 0.5997(6) 0.0177 Uiso
C24_3 C 0.000 0.7666(9) 0.6875(9) 0.0063 Uiso
Ce9_3 Ce -0.000 0.500 0.62416(18) 0.0046 Uiso
O19_6 O 0.0997(6) 1.000 0.8253(7) 0.0177 Uiso
H2_3 H -6.16298e-33 0.720174 0.861461 . .
H10_3 H 6.16298e-33 0.638539 0.779826 . .
H11_3 H 0 0.779826 0.638539 . .
H12_3 H 0 0.861461 0.720174 . .
O17_6 O 1.000 0.0997(6) 0.8253(7) 0.0177 Uiso
O20_5 O 0.9003(6) 0.000 0.8253(7) 0.0177 Uiso
C1_5 C 0.843(2) 0.843(2) -0.000 0.0063 Uiso
C2_5 C 0.796(2) 0.796(2) -0.000 0.0063 Uiso
C3_5 C 0.7334(9) 0.8125(9) -0.000 0.0063 Uiso
C4_5 C 0.8125(9) 0.7334(9) -0.000 0.0063 Uiso
O4_5 O 0.5997(6) 0.6747(7) -0.000 0.0177 Uiso
C5_5 C 0.657(2) 0.657(2) -0.000 0.0063 Uiso
C6_5 C 0.704(2) 0.704(2) -0.000 0.0063 Uiso
C7_5 C 0.6875(9) 0.7666(9) -0.000 0.0063 Uiso
O5_5 O 0.6747(7) 0.5997(6) -0.000 0.0177 Uiso
C8_5 C 0.7666(9) 0.6875(9) -0.000 0.0063 Uiso
Ce7_5 Ce 0.62416(18) 0.500 -0.000 0.0046 Uiso
Ce8_3 Ce 0.500 0.62416(18) -0.000 0.0046 Uiso
H3_5 H 0.720174 0.861461 -4.62223e-33 . .
H4_5 H 0.638539 0.779826 -4.62223e-33 . .
H7_5 H 0.779826 0.638539 -3.08149e-33 . .
H9_5 H 0.861461 0.720174 0 . .
C1_6 C 0.843(2) 0.843(2) 1.000 0.0063 Uiso
C2_6 C 0.796(2) 0.796(2) 1.000 0.0063 Uiso
C3_6 C 0.7334(9) 0.8125(9) 1.000 0.0063 Uiso
C4_6 C 0.8125(9) 0.7334(9) 1.000 0.0063 Uiso
O4_6 O 0.5997(6) 0.6747(7) 1.000 0.0177 Uiso
C5_6 C 0.657(2) 0.657(2) 1.000 0.0063 Uiso
C6_6 C 0.704(2) 0.704(2) 1.000 0.0063 Uiso
C7_6 C 0.6875(9) 0.7666(9) 1.000 0.0063 Uiso
O5_6 O 0.6747(7) 0.5997(6) 1.000 0.0177 Uiso
C8_6 C 0.7666(9) 0.6875(9) 1.000 0.0063 Uiso
C17_4 C 1.000 0.843(2) 0.843(2) 0.0063 Uiso
C18_4 C 1.000 0.796(2) 0.796(2) 0.0063 Uiso
C19_4 C 1.000 0.7334(9) 0.8125(9) 0.0063 Uiso
O13_4 O 1.000 0.9003(6) 0.8253(7) 0.0177 Uiso
C20_4 C 1.000 0.8125(9) 0.7334(9) 0.0063 Uiso
O14_4 O 1.000 0.5997(6) 0.6747(7) 0.0177 Uiso
C21_4 C 1.000 0.657(2) 0.657(2) 0.0063 Uiso
C22_4 C 1.000 0.704(2) 0.704(2) 0.0063 Uiso
C23_4 C 1.000 0.6875(9) 0.7666(9) 0.0063 Uiso
O15_4 O 1.000 0.6747(7) 0.5997(6) 0.0177 Uiso
C24_4 C 1.000 0.7666(9) 0.6875(9) 0.0063 Uiso
Ce7_6 Ce 0.62416(18) 0.500 1.000 0.0046 Uiso
Ce8_4 Ce 0.500 0.62416(18) 1.000 0.0046 Uiso
Ce9_4 Ce 1.000 0.500 0.62416(18) 0.0046 Uiso
O20_6 O 0.9003(6) 1.000 0.8253(7) 0.0177 Uiso
H2_4 H 1 0.720174 0.861461 . .
H3_6 H 0.720174 0.861461 1 . .
H4_6 H 0.638539 0.779826 1 . .
H7_6 H 0.779826 0.638539 1 . .
H9_6 H 0.861461 0.720174 1 . .
H10_4 H 1 0.638539 0.779826 . .
H11_4 H 1 0.779826 0.638539 . .
H12_4 H 1 0.861461 0.720174 . .
C9_3 C 0.000 0.157(2) 0.843(2) 0.0063 Uiso
C10_3 C -0.000 0.204(2) 0.796(2) 0.0063 Uiso
C11_3 C 0.000 0.2666(9) 0.8125(9) 0.0063 Uiso
C12_3 C 0.000 0.1875(9) 0.7334(9) 0.0063 Uiso
O9_3 O 0.000 0.4003(6) 0.6747(7) 0.0177 Uiso
C13_3 C 0.000 0.343(2) 0.657(2) 0.0063 Uiso
C14_3 C 0.000 0.296(2) 0.704(2) 0.0063 Uiso
C15_3 C 0.000 0.3125(9) 0.7666(9) 0.0063 Uiso
O10_3 O 0.000 0.3253(7) 0.5997(6) 0.0177 Uiso
C16_3 C 0.000 0.2334(9) 0.6875(9) 0.0063 Uiso
H1_3 H 6.16298e-33 0.279826 0.861461 . .
H5_3 H 0 0.138539 0.720174 . .
H6_3 H 6.16298e-33 0.220174 0.638539 . .
H8_3 H 1.2326e-32 0.361461 0.779826 . .
C1_7 C 0.843(2) 0.157(2) 0.000 0.0063 Uiso
C2_7 C 0.796(2) 0.204(2) 0.000 0.0063 Uiso
C3_7 C 0.7334(9) 0.1875(9) 0.000 0.0063 Uiso
C4_7 C 0.8125(9) 0.2666(9) 0.000 0.0063 Uiso
O4_7 O 0.5997(6) 0.3253(7) 0.000 0.0177 Uiso
C5_7 C 0.657(2) 0.343(2) 0.000 0.0063 Uiso
C6_7 C 0.704(2) 0.296(2) 0.000 0.0063 Uiso
C7_7 C 0.6875(9) 0.2334(9) 0.000 0.0063 Uiso
O5_7 O 0.6747(7) 0.4003(6) 0.000 0.0177 Uiso
C8_7 C 0.7666(9) 0.3125(9) 0.000 0.0063 Uiso
Ce8_5 Ce 0.500 0.37584(18) 0.000 0.0046 Uiso
H3_7 H 0.720174 0.138539 4.62223e-33 . .
H4_7 H 0.638539 0.220174 4.62223e-33 . .
H7_7 H 0.779826 0.361461 3.08149e-33 . .
H9_7 H 0.861461 0.279826 0 . .
C1_8 C 0.843(2) 0.157(2) 1.000 0.0063 Uiso
C2_8 C 0.796(2) 0.204(2) 1.000 0.0063 Uiso
C3_8 C 0.7334(9) 0.1875(9) 1.000 0.0063 Uiso
C4_8 C 0.8125(9) 0.2666(9) 1.000 0.0063 Uiso
O4_8 O 0.5997(6) 0.3253(7) 1.000 0.0177 Uiso
C5_8 C 0.657(2) 0.343(2) 1.000 0.0063 Uiso
C6_8 C 0.704(2) 0.296(2) 1.000 0.0063 Uiso
C7_8 C 0.6875(9) 0.2334(9) 1.000 0.0063 Uiso
O5_8 O 0.6747(7) 0.4003(6) 1.000 0.0177 Uiso
C8_8 C 0.7666(9) 0.3125(9) 1.000 0.0063 Uiso
C9_4 C 1.000 0.157(2) 0.843(2) 0.0063 Uiso
C10_4 C 1.000 0.204(2) 0.796(2) 0.0063 Uiso
C11_4 C 1.000 0.2666(9) 0.8125(9) 0.0063 Uiso
C12_4 C 1.000 0.1875(9) 0.7334(9) 0.0063 Uiso
O9_4 O 1.000 0.4003(6) 0.6747(7) 0.0177 Uiso
C13_4 C 1.000 0.343(2) 0.657(2) 0.0063 Uiso
C14_4 C 1.000 0.296(2) 0.704(2) 0.0063 Uiso
C15_4 C 1.000 0.3125(9) 0.7666(9) 0.0063 Uiso
O10_4 O 1.000 0.3253(7) 0.5997(6) 0.0177 Uiso
C16_4 C 1.000 0.2334(9) 0.6875(9) 0.0063 Uiso
Ce8_6 Ce 0.500 0.37584(18) 1.000 0.0046 Uiso
H1_4 H 1 0.279826 0.861461 . .
H3_8 H 0.720174 0.138539 1 . .
H4_8 H 0.638539 0.220174 1 . .
H5_4 H 1 0.138539 0.720174 . .
H6_4 H 1 0.220174 0.638539 . .
H7_8 H 0.779826 0.361461 1 . .
H8_4 H 1 0.361461 0.779826 . .
H9_8 H 0.861461 0.279826 1 . .
C1_9 C 0.843(2) 0.000 0.843(2) 0.0063 Uiso
C2_9 C 0.796(2) 0.000 0.796(2) 0.0063 Uiso
C3_9 C 0.7334(9) 0.000 0.8125(9) 0.0063 Uiso
C4_9 C 0.8125(9) 0.000 0.7334(9) 0.0063 Uiso
O4_9 O 0.5997(6) 0.000 0.6747(7) 0.0177 Uiso
C5_9 C 0.657(2) 0.000 0.657(2) 0.0063 Uiso
C6_9 C 0.704(2) 0.000 0.704(2) 0.0063 Uiso
C7_9 C 0.6875(9) 0.000 0.7666(9) 0.0063 Uiso
O5_9 O 0.6747(7) 0.000 0.5997(6) 0.0177 Uiso
C8_9 C 0.7666(9) 0.000 0.6875(9) 0.0063 Uiso
Ce8_7 Ce 0.500 0.000 0.62416(18) 0.0046 Uiso
H3_9 H 0.720174 1.84889e-32 0.861461 . .
H4_9 H 0.638539 1.2326e-32 0.779826 . .
H7_9 H 0.779826 1.2326e-32 0.638539 . .
H9_9 H 0.861461 6.16298e-33 0.720174 . .
C1_10 C 0.843(2) 1.000 0.843(2) 0.0063 Uiso
C2_10 C 0.796(2) 1.000 0.796(2) 0.0063 Uiso
C3_10 C 0.7334(9) 1.000 0.8125(9) 0.0063 Uiso
C4_10 C 0.8125(9) 1.000 0.7334(9) 0.0063 Uiso
O4_10 O 0.5997(6) 1.000 0.6747(7) 0.0177 Uiso
C5_10 C 0.657(2) 1.000 0.657(2) 0.0063 Uiso
C6_10 C 0.704(2) 1.000 0.704(2) 0.0063 Uiso
C7_10 C 0.6875(9) 1.000 0.7666(9) 0.0063 Uiso
O5_10 O 0.6747(7) 1.000 0.5997(6) 0.0177 Uiso
C8_10 C 0.7666(9) 1.000 0.6875(9) 0.0063 Uiso
Ce8_8 Ce 0.500 1.000 0.62416(18) 0.0046 Uiso
H3_10 H 0.720174 1 0.861461 . .
H4_10 H 0.638539 1 0.779826 . .
H7_10 H 0.779826 1 0.638539 . .
H9_10 H 0.861461 1 0.720174 . .
C9_5 C 0.157(2) 0.000 0.843(2) 0.0063 Uiso
C10_5 C 0.204(2) 0.000 0.796(2) 0.0063 Uiso
C11_5 C 0.1875(9) 0.000 0.7334(9) 0.0063 Uiso
C12_5 C 0.2666(9) 0.000 0.8125(9) 0.0063 Uiso
O9_5 O 0.3253(7) 0.000 0.5997(6) 0.0177 Uiso
C13_5 C 0.343(2) 0.000 0.657(2) 0.0063 Uiso
C14_5 C 0.296(2) 0.000 0.704(2) 0.0063 Uiso
C15_5 C 0.2334(9) 0.000 0.6875(9) 0.0063 Uiso
O10_5 O 0.4003(6) 0.000 0.6747(7) 0.0177 Uiso
C16_5 C 0.3125(9) 0.000 0.7666(9) 0.0063 Uiso
H1_5 H 0.138539 6.16298e-33 0.720174 . .
H5_5 H 0.279826 1.2326e-32 0.861461 . .
H6_5 H 0.361461 6.16298e-33 0.779826 . .
H8_5 H 0.220174 6.16298e-33 0.638539 . .
C9_6 C 0.157(2) 1.000 0.843(2) 0.0063 Uiso
C10_6 C 0.204(2) 1.000 0.796(2) 0.0063 Uiso
C11_6 C 0.1875(9) 1.000 0.7334(9) 0.0063 Uiso
C12_6 C 0.2666(9) 1.000 0.8125(9) 0.0063 Uiso
O9_6 O 0.3253(7) 1.000 0.5997(6) 0.0177 Uiso
C13_6 C 0.343(2) 1.000 0.657(2) 0.0063 Uiso
C14_6 C 0.296(2) 1.000 0.704(2) 0.0063 Uiso
C15_6 C 0.2334(9) 1.000 0.6875(9) 0.0063 Uiso
O10_6 O 0.4003(6) 1.000 0.6747(7) 0.0177 Uiso
C16_6 C 0.3125(9) 1.000 0.7666(9) 0.0063 Uiso
H1_6 H 0.138539 1 0.720174 . .
H5_6 H 0.279826 1 0.861461 . .
H6_6 H 0.361461 1 0.779826 . .
H8_6 H 0.220174 1 0.638539 . .
C9_7 C 0.157(2) 0.843(2) 0.000 0.0063 Uiso
C10_7 C 0.204(2) 0.796(2) 0.000 0.0063 Uiso
C11_7 C 0.1875(9) 0.7334(9) 0.000 0.0063 Uiso
C12_7 C 0.2666(9) 0.8125(9) 0.000 0.0063 Uiso
O9_7 O 0.3253(7) 0.5997(6) -0.000 0.0177 Uiso
C13_7 C 0.343(2) 0.657(2) -0.000 0.0063 Uiso
C14_7 C 0.296(2) 0.704(2) 0.000 0.0063 Uiso
C15_7 C 0.2334(9) 0.6875(9) 0.000 0.0063 Uiso
O10_7 O 0.4003(6) 0.6747(7) 0.000 0.0177 Uiso
C16_7 C 0.3125(9) 0.7666(9) 0.000 0.0063 Uiso
Ce12_3 Ce 0.37584(18) 0.500 0.000 0.0046 Uiso
H1_7 H 0.138539 0.720174 0 . .
H5_7 H 0.279826 0.861461 1.54074e-33 . .
H6_7 H 0.361461 0.779826 1.54074e-33 . .
H8_7 H 0.220174 0.638539 0 . .
C9_8 C 0.157(2) 0.843(2) 1.000 0.0063 Uiso
C10_8 C 0.204(2) 0.796(2) 1.000 0.0063 Uiso
C11_8 C 0.1875(9) 0.7334(9) 1.000 0.0063 Uiso
C12_8 C 0.2666(9) 0.8125(9) 1.000 0.0063 Uiso
O9_8 O 0.3253(7) 0.5997(6) 1.000 0.0177 Uiso
C13_8 C 0.343(2) 0.657(2) 1.000 0.0063 Uiso
C14_8 C 0.296(2) 0.704(2) 1.000 0.0063 Uiso
C15_8 C 0.2334(9) 0.6875(9) 1.000 0.0063 Uiso
O10_8 O 0.4003(6) 0.6747(7) 1.000 0.0177 Uiso
C16_8 C 0.3125(9) 0.7666(9) 1.000 0.0063 Uiso
Ce12_4 Ce 0.37584(18) 0.500 1.000 0.0046 Uiso
H1_8 H 0.138539 0.720174 1 . .
H5_8 H 0.279826 0.861461 1 . .
H6_8 H 0.361461 0.779826 1 . .
H8_8 H 0.220174 0.638539 1 . .
C9_9 C 0.157(2) 0.157(2) 0.000 0.0063 Uiso
C10_9 C 0.204(2) 0.204(2) 0.000 0.0063 Uiso
C11_9 C 0.1875(9) 0.2666(9) 0.000 0.0063 Uiso
C12_9 C 0.2666(9) 0.1875(9) -0.000 0.0063 Uiso
O9_9 O 0.3253(7) 0.4003(6) 0.000 0.0177 Uiso
C13_9 C 0.343(2) 0.343(2) 0.000 0.0063 Uiso
C14_9 C 0.296(2) 0.296(2) 0.000 0.0063 Uiso
C15_9 C 0.2334(9) 0.3125(9) 0.000 0.0063 Uiso
O10_9 O 0.4003(6) 0.3253(7) 0.000 0.0177 Uiso
C16_9 C 0.3125(9) 0.2334(9) 0.000 0.0063 Uiso
H1_9 H 0.138539 0.279826 0 . .
H5_9 H 0.279826 0.138539 -1.54074e-33 . .
H6_9 H 0.361461 0.220174 -1.54074e-33 . .
H8_9 H 0.220174 0.361461 0 . .
C9_10 C 0.157(2) 0.157(2) 1.000 0.0063 Uiso
C10_10 C 0.204(2) 0.204(2) 1.000 0.0063 Uiso
C11_10 C 0.1875(9) 0.2666(9) 1.000 0.0063 Uiso
C12_10 C 0.2666(9) 0.1875(9) 1.000 0.0063 Uiso
O9_10 O 0.3253(7) 0.4003(6) 1.000 0.0177 Uiso
C13_10 C 0.343(2) 0.343(2) 1.000 0.0063 Uiso
C14_10 C 0.296(2) 0.296(2) 1.000 0.0063 Uiso
C15_10 C 0.2334(9) 0.3125(9) 1.000 0.0063 Uiso
O10_10 O 0.4003(6) 0.3253(7) 1.000 0.0177 Uiso
C16_10 C 0.3125(9) 0.2334(9) 1.000 0.0063 Uiso
H1_10 H 0.138539 0.279826 1 . .
H5_10 H 0.279826 0.138539 1 . .
H6_10 H 0.361461 0.220174 1 . .
H8_10 H 0.220174 0.361461 1 . .
O1_5 O 0.6747(7) 0.500 0.0997(6) 0.0177 Uiso
C1_11 C 0.657(2) 0.500 0.157(2) 0.0063 Uiso
C2_11 C 0.704(2) 0.500 0.204(2) 0.0063 Uiso
C3_11 C 0.7666(9) 0.500 0.1875(9) 0.0063 Uiso
O2_2 O 0.5656(7) 0.5656(7) 0.0656(7) 0.0177 Uiso
O3_3 O 0.5997(6) 0.500 0.1747(7) 0.0177 Uiso
C4_11 C 0.6875(9) 0.500 0.2666(9) 0.0063 Uiso
O4_11 O 0.9003(6) 0.500 0.3253(7) 0.0177 Uiso
C5_11 C 0.843(2) 0.500 0.343(2) 0.0063 Uiso
C6_11 C 0.796(2) 0.500 0.296(2) 0.0063 Uiso
C7_11 C 0.8125(9) 0.500 0.2334(9) 0.0063 Uiso
O5_11 O 0.8253(7) 0.500 0.4003(6) 0.0177 Uiso
C8_11 C 0.7334(9) 0.500 0.3125(9) 0.0063 Uiso
Ce2_5 Ce 0.500 0.500 0.12416(18) 0.0046 Uiso
O6_3 O 0.500 0.4003(6) 0.1747(7) 0.0177 Uiso
C9_11 C 0.500 0.343(2) 0.157(2) 0.0063 Uiso
C10_11 C 0.500 0.296(2) 0.204(2) 0.0063 Uiso
C11_11 C 0.500 0.3125(9) 0.2666(9) 0.0063 Uiso
O7_2 O 0.4344(7) 0.4344(7) 0.0656(7) 0.0177 Uiso
O8_3 O 0.500 0.3253(7) 0.0997(6) 0.0177 Uiso
C12_11 C 0.500 0.2334(9) 0.1875(9) 0.0063 Uiso
O9_11 O 0.500 0.1747(7) 0.4003(6) 0.0177 Uiso
C13_11 C 0.500 0.157(2) 0.343(2) 0.0063 Uiso
C14_11 C 0.500 0.204(2) 0.296(2) 0.0063 Uiso
C15_11 C 0.500 0.2666(9) 0.3125(9) 0.0063 Uiso
O10_11 O 0.500 0.0997(6) 0.3253(7) 0.0177 Uiso
C16_11 C 0.500 0.1875(9) 0.2334(9) 0.0063 Uiso
O11_3 O 0.500 0.5997(6) 0.1747(7) 0.0177 Uiso
C17_5 C 0.500 0.657(2) 0.157(2) 0.0063 Uiso
C18_5 C 0.500 0.704(2) 0.204(2) 0.0063 Uiso
C19_5 C 0.500 0.6875(9) 0.2666(9) 0.0063 Uiso
O12_2 O 0.4344(7) 0.5656(7) 0.0656(7) 0.0177 Uiso
O13_5 O 0.500 0.6747(7) 0.0997(6) 0.0177 Uiso
C20_5 C 0.500 0.7666(9) 0.1875(9) 0.0063 Uiso
O14_5 O 0.500 0.8253(7) 0.4003(6) 0.0177 Uiso
C21_5 C 0.500 0.843(2) 0.343(2) 0.0063 Uiso
C22_5 C 0.500 0.796(2) 0.296(2) 0.0063 Uiso
C23_5 C 0.500 0.7334(9) 0.3125(9) 0.0063 Uiso
O15_5 O 0.500 0.9003(6) 0.3253(7) 0.0177 Uiso
C24_5 C 0.500 0.8125(9) 0.2334(9) 0.0063 Uiso
Ce7_7 Ce 0.87584(18) 0.500 0.500 0.0046 Uiso
Ce9_5 Ce 0.500 0.87584(18) 0.500 0.0046 Uiso
Ce12_5 Ce 0.500 0.12416(18) 0.500 0.0046 Uiso
O18_3 O 0.4003(6) 0.500 0.1747(7) 0.0177 Uiso
O25_2 O 0.5656(7) 0.4344(7) 0.0656(7) 0.0177 Uiso
H1_11 H 0.5 0.361461 0.279826 . .
H2_5 H 0.5 0.638539 0.279826 . .
H3_11 H 0.779826 0.5 0.138539 . .
H4_11 H 0.861461 0.5 0.220174 . .
H5_11 H 0.5 0.220174 0.138539 . .
H6_11 H 0.5 0.138539 0.220174 . .
H7_11 H 0.720174 0.5 0.361461 . .
H8_11 H 0.5 0.279826 0.361461 . .
H9_11 H 0.638539 0.5 0.279826 . .
H10_5 H 0.5 0.720174 0.361461 . .
H11_5 H 0.5 0.861461 0.220174 . .
H12_5 H 0.5 0.779826 0.138539 . .
O16_2 O 0.4344(7) 0.5656(7) 0.9344(7) 0.0177 Uiso
Ce6_5 Ce 0.500 0.500 0.87584(18) 0.0046 Uiso
O17_7 O 0.500 0.6747(7) 0.9003(6) 0.0177 Uiso
O21_5 O 0.6747(7) 0.500 0.9003(6) 0.0177 Uiso
O24_2 O 0.5656(7) 0.4344(7) 0.9344(7) 0.0177 Uiso
O26_3 O 0.5656(7) 0.5656(7) 0.9344(7) 0.0177 Uiso
O1_6 O 0.3253(7) 0.500 0.0997(6) 0.0177 Uiso
C1_12 C 0.343(2) 0.500 0.157(2) 0.0063 Uiso
C2_12 C 0.296(2) 0.500 0.204(2) 0.0063 Uiso
C3_12 C 0.2334(9) 0.500 0.1875(9) 0.0063 Uiso
C4_12 C 0.3125(9) 0.500 0.2666(9) 0.0063 Uiso
O4_12 O 0.0997(6) 0.500 0.3253(7) 0.0177 Uiso
C5_12 C 0.157(2) 0.500 0.343(2) 0.0063 Uiso
C6_12 C 0.204(2) 0.500 0.296(2) 0.0063 Uiso
C7_12 C 0.1875(9) 0.500 0.2334(9) 0.0063 Uiso
O5_12 O 0.1747(7) 0.500 0.4003(6) 0.0177 Uiso
C8_12 C 0.2666(9) 0.500 0.3125(9) 0.0063 Uiso
Ce7_8 Ce 0.12416(18) 0.500 0.500 0.0046 Uiso
H3_12 H 0.220174 0.5 0.138539 . .
H4_12 H 0.138539 0.5 0.220174 . .
H7_12 H 0.279826 0.5 0.361461 . .
H9_12 H 0.361461 0.5 0.279826 . .
O17_8 O 0.500 0.3253(7) 0.9003(6) 0.0177 Uiso
O21_6 O 0.3253(7) 0.500 0.9003(6) 0.0177 Uiso
O26_4 O 0.4344(7) 0.4344(7) 0.9344(7) 0.0177 Uiso
C17_6 C 0.500 0.343(2) 0.843(2) 0.0063 Uiso
C18_6 C 0.500 0.296(2) 0.796(2) 0.0063 Uiso
C19_6 C 0.500 0.2334(9) 0.8125(9) 0.0063 Uiso
O13_6 O 0.500 0.4003(6) 0.8253(7) 0.0177 Uiso
C20_6 C 0.500 0.3125(9) 0.7334(9) 0.0063 Uiso
O14_6 O 0.500 0.0997(6) 0.6747(7) 0.0177 Uiso
C21_6 C 0.500 0.157(2) 0.657(2) 0.0063 Uiso
C22_6 C 0.500 0.204(2) 0.704(2) 0.0063 Uiso
C23_6 C 0.500 0.1875(9) 0.7666(9) 0.0063 Uiso
O15_6 O 0.500 0.1747(7) 0.5997(6) 0.0177 Uiso
C24_6 C 0.500 0.2666(9) 0.6875(9) 0.0063 Uiso
O17_9 O 0.500 0.5997(6) 0.8253(7) 0.0177 Uiso
O19_7 O 0.5997(6) 0.500 0.8253(7) 0.0177 Uiso
O20_7 O 0.4003(6) 0.500 0.8253(7) 0.0177 Uiso
H2_6 H 0.5 0.220174 0.861461 . .
H10_6 H 0.5 0.138539 0.779826 . .
H11_6 H 0.5 0.279826 0.638539 . .
H12_6 H 0.5 0.361461 0.720174 . .
C9_12 C 0.500 0.657(2) 0.843(2) 0.0063 Uiso
C10_12 C 0.500 0.704(2) 0.796(2) 0.0063 Uiso
C11_12 C 0.500 0.7666(9) 0.8125(9) 0.0063 Uiso
C12_12 C 0.500 0.6875(9) 0.7334(9) 0.0063 Uiso
O9_12 O 0.500 0.9003(6) 0.6747(7) 0.0177 Uiso
C13_12 C 0.500 0.843(2) 0.657(2) 0.0063 Uiso
C14_12 C 0.500 0.796(2) 0.704(2) 0.0063 Uiso
C15_12 C 0.500 0.8125(9) 0.7666(9) 0.0063 Uiso
O10_12 O 0.500 0.8253(7) 0.5997(6) 0.0177 Uiso
C16_12 C 0.500 0.7334(9) 0.6875(9) 0.0063 Uiso
H1_12 H 0.5 0.779826 0.861461 . .
H5_12 H 0.5 0.638539 0.720174 . .
H6_12 H 0.5 0.720174 0.638539 . .
H8_12 H 0.5 0.861461 0.779826 . .
C1_13 C 0.343(2) 0.500 0.843(2) 0.0063 Uiso
C2_13 C 0.296(2) 0.500 0.796(2) 0.0063 Uiso
C3_13 C 0.2334(9) 0.500 0.8125(9) 0.0063 Uiso
C4_13 C 0.3125(9) 0.500 0.7334(9) 0.0063 Uiso
O4_13 O 0.0997(6) 0.500 0.6747(7) 0.0177 Uiso
C5_13 C 0.157(2) 0.500 0.657(2) 0.0063 Uiso
C6_13 C 0.204(2) 0.500 0.704(2) 0.0063 Uiso
C7_13 C 0.1875(9) 0.500 0.7666(9) 0.0063 Uiso
O5_13 O 0.1747(7) 0.500 0.5997(6) 0.0177 Uiso
C8_13 C 0.2666(9) 0.500 0.6875(9) 0.0063 Uiso
H3_13 H 0.220174 0.5 0.861461 . .
H4_13 H 0.138539 0.5 0.779826 . .
H7_13 H 0.279826 0.5 0.638539 . .
H9_13 H 0.361461 0.5 0.720174 . .
C9_13 C 0.657(2) 0.500 0.843(2) 0.0063 Uiso
C10_13 C 0.704(2) 0.500 0.796(2) 0.0063 Uiso
C11_13 C 0.6875(9) 0.500 0.7334(9) 0.0063 Uiso
C12_13 C 0.7666(9) 0.500 0.8125(9) 0.0063 Uiso
O9_13 O 0.8253(7) 0.500 0.5997(6) 0.0177 Uiso
C13_13 C 0.843(2) 0.500 0.657(2) 0.0063 Uiso
C14_13 C 0.796(2) 0.500 0.704(2) 0.0063 Uiso
C15_13 C 0.7334(9) 0.500 0.6875(9) 0.0063 Uiso
O10_13 O 0.9003(6) 0.500 0.6747(7) 0.0177 Uiso
C16_13 C 0.8125(9) 0.500 0.7666(9) 0.0063 Uiso
H1_13 H 0.638539 0.5 0.720174 . .
H5_13 H 0.779826 0.5 0.861461 . .
H6_13 H 0.861461 0.5 0.779826 . .
H8_13 H 0.720174 0.5 0.638539 . .
O2_3 O 0.5656(7) 0.0656(7) 0.5656(7) 0.0177 Uiso
O12_3 O 0.4344(7) 0.0656(7) 0.5656(7) 0.0177 Uiso
O16_3 O 0.4344(7) 0.0656(7) 0.4344(7) 0.0177 Uiso
O19_8 O 0.4003(6) 0.1747(7) 0.500 0.0177 Uiso
O20_8 O 0.5997(6) 0.1747(7) 0.500 0.0177 Uiso
O23_5 O 0.6747(7) 0.0997(6) 0.500 0.0177 Uiso
O26_5 O 0.5656(7) 0.0656(7) 0.4344(7) 0.0177 Uiso
O7_3 O 0.4344(7) 0.9344(7) 0.5656(7) 0.0177 Uiso
O22_5 O 0.6747(7) 0.9003(6) 0.500 0.0177 Uiso
O24_3 O 0.5656(7) 0.9344(7) 0.4344(7) 0.0177 Uiso
O25_3 O 0.5656(7) 0.9344(7) 0.5656(7) 0.0177 Uiso
O22_6 O 0.3253(7) 0.0997(6) 0.500 0.0177 Uiso
O19_9 O 0.5997(6) 0.8253(7) 0.500 0.0177 Uiso
O20_9 O 0.4003(6) 0.8253(7) 0.500 0.0177 Uiso
O23_6 O 0.3253(7) 0.9003(6) 0.500 0.0177 Uiso
O26_6 O 0.4344(7) 0.9344(7) 0.4344(7) 0.0177 Uiso
C1_14 C 0.343(2) 0.843(2) 0.500 0.0063 Uiso
C2_14 C 0.296(2) 0.796(2) 0.500 0.0063 Uiso
C3_14 C 0.2334(9) 0.8125(9) 0.500 0.0063 Uiso
C4_14 C 0.3125(9) 0.7334(9) 0.500 0.0063 Uiso
O4_14 O 0.0997(6) 0.6747(7) 0.500 0.0177 Uiso
C5_14 C 0.157(2) 0.657(2) 0.500 0.0063 Uiso
C6_14 C 0.204(2) 0.704(2) 0.500 0.0063 Uiso
C7_14 C 0.1875(9) 0.7666(9) 0.500 0.0063 Uiso
O5_14 O 0.1747(7) 0.5997(6) 0.500 0.0177 Uiso
C8_14 C 0.2666(9) 0.6875(9) 0.500 0.0063 Uiso
H3_14 H 0.220174 0.861461 0.5 . .
H4_14 H 0.138539 0.779826 0.5 . .
H7_14 H 0.279826 0.638539 0.5 . .
H9_14 H 0.361461 0.720174 0.5 . .
C1_15 C 0.343(2) 0.157(2) 0.500 0.0063 Uiso
C2_15 C 0.296(2) 0.204(2) 0.500 0.0063 Uiso
C3_15 C 0.2334(9) 0.1875(9) 0.500 0.0063 Uiso
C4_15 C 0.3125(9) 0.2666(9) 0.500 0.0063 Uiso
O4_15 O 0.0997(6) 0.3253(7) 0.500 0.0177 Uiso
C5_15 C 0.157(2) 0.343(2) 0.500 0.0063 Uiso
C6_15 C 0.204(2) 0.296(2) 0.500 0.0063 Uiso
C7_15 C 0.1875(9) 0.2334(9) 0.500 0.0063 Uiso
O5_15 O 0.1747(7) 0.4003(6) 0.500 0.0177 Uiso
C8_15 C 0.2666(9) 0.3125(9) 0.500 0.0063 Uiso
H3_15 H 0.220174 0.138539 0.5 . .
H4_15 H 0.138539 0.220174 0.5 . .
H7_15 H 0.279826 0.361461 0.5 . .
H9_15 H 0.361461 0.279826 0.5 . .
C9_14 C 0.657(2) 0.843(2) 0.500 0.0063 Uiso
C10_14 C 0.704(2) 0.796(2) 0.500 0.0063 Uiso
C11_14 C 0.6875(9) 0.7334(9) 0.500 0.0063 Uiso
C12_14 C 0.7666(9) 0.8125(9) 0.500 0.0063 Uiso
O9_14 O 0.8253(7) 0.5997(6) 0.500 0.0177 Uiso
C13_14 C 0.843(2) 0.657(2) 0.500 0.0063 Uiso
C14_14 C 0.796(2) 0.704(2) 0.500 0.0063 Uiso
C15_14 C 0.7334(9) 0.6875(9) 0.500 0.0063 Uiso
O10_14 O 0.9003(6) 0.6747(7) 0.500 0.0177 Uiso
C16_14 C 0.8125(9) 0.7666(9) 0.500 0.0063 Uiso
H1_14 H 0.638539 0.720174 0.5 . .
H5_14 H 0.779826 0.861461 0.5 . .
H6_14 H 0.861461 0.779826 0.5 . .
H8_14 H 0.720174 0.638539 0.5 . .
C9_15 C 0.657(2) 0.157(2) 0.500 0.0063 Uiso
C10_15 C 0.704(2) 0.204(2) 0.500 0.0063 Uiso
C11_15 C 0.6875(9) 0.2666(9) 0.500 0.0063 Uiso
C12_15 C 0.7666(9) 0.1875(9) 0.500 0.0063 Uiso
O9_15 O 0.8253(7) 0.4003(6) 0.500 0.0177 Uiso
C13_15 C 0.843(2) 0.343(2) 0.500 0.0063 Uiso
C14_15 C 0.796(2) 0.296(2) 0.500 0.0063 Uiso
C15_15 C 0.7334(9) 0.3125(9) 0.500 0.0063 Uiso
O10_15 O 0.9003(6) 0.3253(7) 0.500 0.0177 Uiso
C16_15 C 0.8125(9) 0.2334(9) 0.500 0.0063 Uiso
H1_15 H 0.638539 0.279826 0.5 . .
H5_15 H 0.779826 0.138539 0.5 . .
H6_15 H 0.861461 0.220174 0.5 . .
H8_15 H 0.720174 0.361461 0.5 . .
O2_4 O 0.0656(7) 0.5656(7) 0.5656(7) 0.0177 Uiso
O24_4 O 0.0656(7) 0.4344(7) 0.4344(7) 0.0177 Uiso
O25_4 O 0.0656(7) 0.4344(7) 0.5656(7) 0.0177 Uiso
O26_7 O 0.0656(7) 0.5656(7) 0.4344(7) 0.0177 Uiso
O7_4 O 0.9344(7) 0.4344(7) 0.5656(7) 0.0177 Uiso
O12_4 O 0.9344(7) 0.5656(7) 0.5656(7) 0.0177 Uiso
O16_4 O 0.9344(7) 0.5656(7) 0.4344(7) 0.0177 Uiso
O26_8 O 0.9344(7) 0.4344(7) 0.4344(7) 0.0177 Uiso
loop_
_geom_bond_atom_site_label_1
_geom_bond_atom_site_label_2
_geom_bond_site_symmetry_1
_geom_bond_site_symmetry_2
Ce1 O1 1_555 1_555
O1 C1 1_555 1_555
C1 C2 1_555 1_555
C2 C3 1_555 1_555
C3 C7 1_555 1_555
O2 Ce1 1_555 1_555
O3 C1 1_555 1_555
C4 C2 1_555 1_555
O4 C5 1_555 1_555
C5 C6 1_555 1_555
C6 C7 1_555 1_555
O5 C5 1_555 1_555
C8 C4 1_555 1_555
Ce2 O2 1_555 1_555
O11 Ce2 1_555 1_555
C17 O11 1_555 1_555
C18 C17 1_555 1_555
C19 C18 1_555 1_555
O13 C17 1_555 1_555
C20 C18 1_555 1_555
O14 C21 1_555 1_555
C21 C22 1_555 1_555
C22 C23 1_555 1_555
C23 C19 1_555 1_555
O15 C21 1_555 1_555
C24 C20 1_555 1_555
Ce3 O2 1_555 1_555
Ce7 O5 1_555 1_555
Ce8 O4 1_555 1_555
Ce9 O14 1_555 1_555
Ce11 O15 1_555 1_555
O20 Ce3 1_555 1_555
O23 Ce1 1_555 1_555
O3 Ce2 1_555 1_555
C6 C8 1_555 1_555
O13 Ce3 1_555 1_555
C22 C24 1_555 1_555
C19 H2 1_555 1_555
C3 H3 1_555 1_555
C7 H4 1_555 1_555
C8 H7 1_555 1_555
C4 H9 1_555 1_555
C23 H10 1_555 1_555
C24 H11 1_555 1_555
C20 H12 1_555 1_555
O17 Ce3_2 1_555 1_555
O20_2 Ce3_2 1_555 1_555
O21 Ce1_2 1_555 1_555
O23_2 Ce1_2 1_555 1_555
O26 Ce1_2 1_555 1_555
Ce3_2 O26 1_555 1_555
Ce6 O26 1_555 1_555
Ce1_3 O1_2 1_555 1_555
O1_2 C1_2 1_555 1_555
C1_2 C2_2 1_555 1_555
C2_2 C3_2 1_555 1_555
C3_2 C7_2 1_555 1_555
O3_2 C1_2 1_555 1_555
C4_2 C2_2 1_555 1_555
O4_2 C5_2 1_555 1_555
C5_2 C6_2 1_555 1_555
C6_2 C7_2 1_555 1_555
O5_2 C5_2 1_555 1_555
C8_2 C4_2 1_555 1_555
O6 Ce2_2 1_555 1_555
C9 O6 1_555 1_555
C10 C9 1_555 1_555
C11 C10 1_555 1_555
O8 C9 1_555 1_555
C12 C10 1_555 1_555
O9 C13 1_555 1_555
C13 C14 1_555 1_555
C14 C15 1_555 1_555
C15 C11 1_555 1_555
O10 C13 1_555 1_555
C16 C12 1_555 1_555
Ce7_2 O5_2 1_555 1_555
Ce8_2 O4_2 1_555 1_555
Ce11 O10 1_555 1_555
Ce12 O9 1_555 1_555
O22 Ce1_3 1_555 1_555
O25 Ce1_3 1_555 1_555
O3_2 Ce2_2 1_555 1_555
C6_2 C8_2 1_555 1_555
Ce2_2 O25 1_555 1_555
O8 Ce5 1_555 1_555
C14 C16 1_555 1_555
Ce5 O25 1_555 1_555
C11 H1 1_555 1_555
C3_2 H3_2 1_555 1_555
C7_2 H4_2 1_555 1_555
C12 H5 1_555 1_555
C16 H6 1_555 1_555
C8_2 H7_2 1_555 1_555
C15 H8 1_555 1_555
C4_2 H9_2 1_555 1_555
O21_2 Ce1_4 1_555 1_555
O22_2 Ce1_4 1_555 1_555
O24 Ce1_4 1_555 1_555
Ce5_2 O24 1_555 1_555
Ce6_2 O24 1_555 1_555
O11_2 Ce2_3 1_555 1_555
C17_2 O11_2 1_555 1_555
C18_2 C17_2 1_555 1_555
C19_2 C18_2 1_555 1_555
O12 Ce2_3 1_555 1_555
O13_2 C17_2 1_555 1_555
C20_2 C18_2 1_555 1_555
O14_2 C21_2 1_555 1_555
C21_2 C22_2 1_555 1_555
C22_2 C23_2 1_555 1_555
C23_2 C19_2 1_555 1_555
O15_2 C21_2 1_555 1_555
C24_2 C20_2 1_555 1_555
Ce9_2 O14_2 1_555 1_555
Ce11_2 O15_2 1_555 1_555
O18 Ce2_3 1_555 1_555
O19 Ce3_3 1_555 1_555
O12 Ce3_3 1_555 1_555
O12 Ce4 1_555 1_555
O13_2 Ce3_3 1_555 1_555
C22_2 C24_2 1_555 1_555
C19_2 H2_2 1_555 1_555
C23_2 H10_2 1_555 1_555
C24_2 H11_2 1_555 1_555
C20_2 H12_2 1_555 1_555
O16 Ce3_4 1_555 1_555
Ce6_3 O16 1_555 1_555
O17_2 Ce3_4 1_555 1_555
O19_2 Ce3_4 1_555 1_555
O16 Ce4_2 1_555 1_555
O6_2 Ce2_4 1_555 1_555
C9_2 O6_2 1_555 1_555
C10_2 C9_2 1_555 1_555
C11_2 C10_2 1_555 1_555
O7 Ce2_4 1_555 1_555
O8_2 C9_2 1_555 1_555
C12_2 C10_2 1_555 1_555
O9_2 C13_2 1_555 1_555
C13_2 C14_2 1_555 1_555
C14_2 C15_2 1_555 1_555
C15_2 C11_2 1_555 1_555
O10_2 C13_2 1_555 1_555
C16_2 C12_2 1_555 1_555
Ce4_3 O7 1_555 1_555
Ce5_3 O7 1_555 1_555
Ce11_2 O10_2 1_555 1_555
Ce12_2 O9_2 1_555 1_555
O18_2 Ce2_4 1_555 1_555
O8_2 Ce5_3 1_555 1_555
C14_2 C16_2 1_555 1_555
C11_2 H1_2 1_555 1_555
C12_2 H5_2 1_555 1_555
C16_2 H6_2 1_555 1_555
C15_2 H8_2 1_555 1_555
O19_3 Ce5 1_555 1_555
O17_3 Ce5_2 1_555 1_555
O19_4 Ce5_2 1_555 1_555
Ce4 O1_3 1_555 1_555
O1_3 C1_3 1_555 1_555
C1_3 C2_3 1_555 1_555
C2_3 C3_3 1_555 1_555
C3_3 C7_3 1_555 1_555
O18 C1_3 1_555 1_555
C4_3 C2_3 1_555 1_555
O4_3 C5_3 1_555 1_555
C5_3 C6_3 1_555 1_555
C6_3 C7_3 1_555 1_555
O5_3 C5_3 1_555 1_555
C8_3 C4_3 1_555 1_555
Ce7_3 O5_3 1_555 1_555
Ce8 O4_3 1_555 1_555
O22_3 Ce4 1_555 1_555
C6_3 C8_3 1_555 1_555
C3_3 H3_3 1_555 1_555
C7_3 H4_3 1_555 1_555
C8_3 H7_3 1_555 1_555
C4_3 H9_3 1_555 1_555
O21_3 Ce4_2 1_555 1_555
O22_4 Ce4_2 1_555 1_555
Ce4_3 O1_4 1_555 1_555
O1_4 C1_4 1_555 1_555
C1_4 C2_4 1_555 1_555
C2_4 C3_4 1_555 1_555
C3_4 C7_4 1_555 1_555
O18_2 C1_4 1_555 1_555
C4_4 C2_4 1_555 1_555
O4_4 C5_4 1_555 1_555
C5_4 C6_4 1_555 1_555
C6_4 C7_4 1_555 1_555
O5_4 C5_4 1_555 1_555
C8_4 C4_4 1_555 1_555
Ce7_4 O5_4 1_555 1_555
Ce8_2 O4_4 1_555 1_555
O20_3 Ce5_3 1_555 1_555
O23_3 Ce4_3 1_555 1_555
C6_4 C8_4 1_555 1_555
C3_4 H3_4 1_555 1_555
C7_4 H4_4 1_555 1_555
C8_4 H7_4 1_555 1_555
C4_4 H9_4 1_555 1_555
O17_4 Ce5_4 1_555 1_555
O20_4 Ce5_4 1_555 1_555
O21_4 Ce4_4 1_555 1_555
O23_4 Ce4_4 1_555 1_555
O26_2 Ce4_4 1_555 1_555
Ce5_4 O26_2 1_555 1_555
Ce6_4 O26_2 1_555 1_555
O17_5 Ce6 1_555 1_555
O19_5 Ce6 1_555 1_555
C17_3 O17_3 1_555 1_555
C18_3 C17_3 1_555 1_555
C19_3 C18_3 1_555 1_555
O13_3 C17_3 1_555 1_555
C20_3 C18_3 1_555 1_555
O14_3 C21_3 1_555 1_555
C21_3 C22_3 1_555 1_555
C22_3 C23_3 1_555 1_555
C23_3 C19_3 1_555 1_555
O15_3 C21_3 1_555 1_555
C24_3 C20_3 1_555 1_555
Ce9_3 O14_3 1_555 1_555
Ce12 O15_3 1_555 1_555
O19_6 Ce6_2 1_555 1_555
O13_3 Ce6_2 1_555 1_555
C22_3 C24_3 1_555 1_555
C19_3 H2_3 1_555 1_555
C23_3 H10_3 1_555 1_555
C24_3 H11_3 1_555 1_555
C20_3 H12_3 1_555 1_555
O17_6 Ce6_3 1_555 1_555
O20_5 Ce6_3 1_555 1_555
O23_3 C1_5 1_555 1_555
C1_5 C2_5 1_555 1_555
C2_5 C3_5 1_555 1_555
C3_5 C7_5 1_555 1_555
O20_3 C1_5 1_555 1_555
C4_5 C2_5 1_555 1_555
O4_5 C5_5 1_555 1_555
C5_5 C6_5 1_555 1_555
C6_5 C7_5 1_555 1_555
O5_5 C5_5 1_555 1_555
C8_5 C4_5 1_555 1_555
Ce7_5 O5_5 1_555 1_555
Ce8_3 O4_5 1_555 1_555
C6_5 C8_5 1_555 1_555
C3_5 H3_5 1_555 1_555
C7_5 H4_5 1_555 1_555
C8_5 H7_5 1_555 1_555
C4_5 H9_5 1_555 1_555
O23_4 C1_6 1_555 1_555
C1_6 C2_6 1_555 1_555
C2_6 C3_6 1_555 1_555
C3_6 C7_6 1_555 1_555
O20_4 C1_6 1_555 1_555
C4_6 C2_6 1_555 1_555
O4_6 C5_6 1_555 1_555
C5_6 C6_6 1_555 1_555
C6_6 C7_6 1_555 1_555
O5_6 C5_6 1_555 1_555
C8_6 C4_6 1_555 1_555
C17_4 O17_4 1_555 1_555
C18_4 C17_4 1_555 1_555
C19_4 C18_4 1_555 1_555
O13_4 C17_4 1_555 1_555
C20_4 C18_4 1_555 1_555
O14_4 C21_4 1_555 1_555
C21_4 C22_4 1_555 1_555
C22_4 C23_4 1_555 1_555
C23_4 C19_4 1_555 1_555
O15_4 C21_4 1_555 1_555
C24_4 C20_4 1_555 1_555
Ce7_6 O5_6 1_555 1_555
Ce8_4 O4_6 1_555 1_555
Ce9_4 O14_4 1_555 1_555
Ce12_2 O15_4 1_555 1_555
O20_6 Ce6_4 1_555 1_555
C6_6 C8_6 1_555 1_555
O13_4 Ce6_4 1_555 1_555
C22_4 C24_4 1_555 1_555
C19_4 H2_4 1_555 1_555
C3_6 H3_6 1_555 1_555
C7_6 H4_6 1_555 1_555
C8_6 H7_6 1_555 1_555
C4_6 H9_6 1_555 1_555
C23_4 H10_4 1_555 1_555
C24_4 H11_4 1_555 1_555
C20_4 H12_4 1_555 1_555
C9_3 O17 1_555 1_555
C10_3 C9_3 1_555 1_555
C11_3 C10_3 1_555 1_555
O17_5 C9_3 1_555 1_555
C12_3 C10_3 1_555 1_555
O9_3 C13_3 1_555 1_555
C13_3 C14_3 1_555 1_555
C14_3 C15_3 1_555 1_555
C15_3 C11_3 1_555 1_555
O10_3 C13_3 1_555 1_555
C16_3 C12_3 1_555 1_555
Ce9 O10_3 1_555 1_555
Ce9_3 O9_3 1_555 1_555
C14_3 C16_3 1_555 1_555
C11_3 H1_3 1_555 1_555
C12_3 H5_3 1_555 1_555
C16_3 H6_3 1_555 1_555
C15_3 H8_3 1_555 1_555
O22_3 C1_7 1_555 1_555
C1_7 C2_7 1_555 1_555
C2_7 C3_7 1_555 1_555
C3_7 C7_7 1_555 1_555
O19 C1_7 1_555 1_555
C4_7 C2_7 1_555 1_555
O4_7 C5_7 1_555 1_555
C5_7 C6_7 1_555 1_555
C6_7 C7_7 1_555 1_555
O5_7 C5_7 1_555 1_555
C8_7 C4_7 1_555 1_555
Ce7_5 O5_7 1_555 1_555
Ce8_5 O4_7 1_555 1_555
C6_7 C8_7 1_555 1_555
C3_7 H3_7 1_555 1_555
C7_7 H4_7 1_555 1_555
C8_7 H7_7 1_555 1_555
C4_7 H9_7 1_555 1_555
O22_4 C1_8 1_555 1_555
C1_8 C2_8 1_555 1_555
C2_8 C3_8 1_555 1_555
C3_8 C7_8 1_555 1_555
O19_2 C1_8 1_555 1_555
C4_8 C2_8 1_555 1_555
O4_8 C5_8 1_555 1_555
C5_8 C6_8 1_555 1_555
C6_8 C7_8 1_555 1_555
O5_8 C5_8 1_555 1_555
C8_8 C4_8 1_555 1_555
C9_4 O17_2 1_555 1_555
C10_4 C9_4 1_555 1_555
C11_4 C10_4 1_555 1_555
O17_6 C9_4 1_555 1_555
C12_4 C10_4 1_555 1_555
O9_4 C13_4 1_555 1_555
C13_4 C14_4 1_555 1_555
C14_4 C15_4 1_555 1_555
C15_4 C11_4 1_555 1_555
O10_4 C13_4 1_555 1_555
C16_4 C12_4 1_555 1_555
Ce7_6 O5_8 1_555 1_555
Ce8_6 O4_8 1_555 1_555
Ce9_2 O10_4 1_555 1_555
Ce9_4 O9_4 1_555 1_555
C6_8 C8_8 1_555 1_555
C14_4 C16_4 1_555 1_555
C11_4 H1_4 1_555 1_555
C3_8 H3_8 1_555 1_555
C7_8 H4_8 1_555 1_555
C12_4 H5_4 1_555 1_555
C16_4 H6_4 1_555 1_555
C8_8 H7_8 1_555 1_555
C15_4 H8_4 1_555 1_555
C4_8 H9_8 1_555 1_555
O21_3 C1_9 1_555 1_555
C1_9 C2_9 1_555 1_555
C2_9 C3_9 1_555 1_555
C3_9 C7_9 1_555 1_555
O20_5 C1_9 1_555 1_555
C4_9 C2_9 1_555 1_555
O4_9 C5_9 1_555 1_555
C5_9 C6_9 1_555 1_555
C6_9 C7_9 1_555 1_555
O5_9 C5_9 1_555 1_555
C8_9 C4_9 1_555 1_555
Ce7_3 O5_9 1_555 1_555
Ce8_7 O4_9 1_555 1_555
C6_9 C8_9 1_555 1_555
C3_9 H3_9 1_555 1_555
C7_9 H4_9 1_555 1_555
C8_9 H7_9 1_555 1_555
C4_9 H9_9 1_555 1_555
O21_4 C1_10 1_555 1_555
C1_10 C2_10 1_555 1_555
C2_10 C3_10 1_555 1_555
C3_10 C7_10 1_555 1_555
O20_6 C1_10 1_555 1_555
C4_10 C2_10 1_555 1_555
O4_10 C5_10 1_555 1_555
C5_10 C6_10 1_555 1_555
C6_10 C7_10 1_555 1_555
O5_10 C5_10 1_555 1_555
C8_10 C4_10 1_555 1_555
Ce7_4 O5_10 1_555 1_555
Ce8_8 O4_10 1_555 1_555
C6_10 C8_10 1_555 1_555
C3_10 H3_10 1_555 1_555
C7_10 H4_10 1_555 1_555
C8_10 H7_10 1_555 1_555
C4_10 H9_10 1_555 1_555
C9_5 O19_5 1_555 1_555
C10_5 C9_5 1_555 1_555
C11_5 C10_5 1_555 1_555
O21 C9_5 1_555 1_555
C12_5 C10_5 1_555 1_555
O9_5 C13_5 1_555 1_555
C13_5 C14_5 1_555 1_555
C14_5 C15_5 1_555 1_555
C15_5 C11_5 1_555 1_555
O10_5 C13_5 1_555 1_555
C16_5 C12_5 1_555 1_555
Ce8_7 O10_5 1_555 1_555
Ce7 O9_5 1_555 1_555
C14_5 C16_5 1_555 1_555
C11_5 H1_5 1_555 1_555
C12_5 H5_5 1_555 1_555
C16_5 H6_5 1_555 1_555
C15_5 H8_5 1_555 1_555
C9_6 O19_6 1_555 1_555
C10_6 C9_6 1_555 1_555
C11_6 C10_6 1_555 1_555
O21_2 C9_6 1_555 1_555
C12_6 C10_6 1_555 1_555
O9_6 C13_6 1_555 1_555
C13_6 C14_6 1_555 1_555
C14_6 C15_6 1_555 1_555
C15_6 C11_6 1_555 1_555
O10_6 C13_6 1_555 1_555
C16_6 C12_6 1_555 1_555
Ce8_8 O10_6 1_555 1_555
Ce7_2 O9_6 1_555 1_555
C14_6 C16_6 1_555 1_555
C11_6 H1_6 1_555 1_555
C12_6 H5_6 1_555 1_555
C16_6 H6_6 1_555 1_555
C15_6 H8_6 1_555 1_555
C9_7 O19_3 1_555 1_555
C10_7 C9_7 1_555 1_555
C11_7 C10_7 1_555 1_555
O22 C9_7 1_555 1_555
C12_7 C10_7 1_555 1_555
O9_7 C13_7 1_555 1_555
C13_7 C14_7 1_555 1_555
C14_7 C15_7 1_555 1_555
C15_7 C11_7 1_555 1_555
O10_7 C13_7 1_555 1_555
C16_7 C12_7 1_555 1_555
Ce8_3 O10_7 1_555 1_555
Ce12_3 O9_7 1_555 1_555
C14_7 C16_7 1_555 1_555
C11_7 H1_7 1_555 1_555
C12_7 H5_7 1_555 1_555
C16_7 H6_7 1_555 1_555
C15_7 H8_7 1_555 1_555
C9_8 O19_4 1_555 1_555
C10_8 C9_8 1_555 1_555
C11_8 C10_8 1_555 1_555
O22_2 C9_8 1_555 1_555
C12_8 C10_8 1_555 1_555
O9_8 C13_8 1_555 1_555
C13_8 C14_8 1_555 1_555
C14_8 C15_8 1_555 1_555
C15_8 C11_8 1_555 1_555
O10_8 C13_8 1_555 1_555
C16_8 C12_8 1_555 1_555
Ce8_4 O10_8 1_555 1_555
Ce12_4 O9_8 1_555 1_555
C14_8 C16_8 1_555 1_555
C11_8 H1_8 1_555 1_555
C12_8 H5_8 1_555 1_555
C16_8 H6_8 1_555 1_555
C15_8 H8_8 1_555 1_555
C9_9 O20 1_555 1_555
C10_9 C9_9 1_555 1_555
C11_9 C10_9 1_555 1_555
O23 C9_9 1_555 1_555
C12_9 C10_9 1_555 1_555
O9_9 C13_9 1_555 1_555
C13_9 C14_9 1_555 1_555
C14_9 C15_9 1_555 1_555
C15_9 C11_9 1_555 1_555
O10_9 C13_9 1_555 1_555
C16_9 C12_9 1_555 1_555
Ce8_5 O10_9 1_555 1_555
Ce12_3 O9_9 1_555 1_555
C14_9 C16_9 1_555 1_555
C11_9 H1_9 1_555 1_555
C12_9 H5_9 1_555 1_555
C16_9 H6_9 1_555 1_555
C15_9 H8_9 1_555 1_555
C9_10 O20_2 1_555 1_555
C10_10 C9_10 1_555 1_555
C11_10 C10_10 1_555 1_555
O23_2 C9_10 1_555 1_555
C12_10 C10_10 1_555 1_555
O9_10 C13_10 1_555 1_555
C13_10 C14_10 1_555 1_555
C14_10 C15_10 1_555 1_555
C15_10 C11_10 1_555 1_555
O10_10 C13_10 1_555 1_555
C16_10 C12_10 1_555 1_555
Ce8_6 O10_10 1_555 1_555
Ce12_4 O9_10 1_555 1_555
C14_10 C16_10 1_555 1_555
C11_10 H1_10 1_555 1_555
C12_10 H5_10 1_555 1_555
C16_10 H6_10 1_555 1_555
C15_10 H8_10 1_555 1_555
Ce7_5 O1_5 1_555 1_555
O1_5 C1_11 1_555 1_555
C1_11 C2_11 1_555 1_555
C2_11 C3_11 1_555 1_555
C3_11 C7_11 1_555 1_555
O2_2 Ce7_5 1_555 1_555
O3_3 C1_11 1_555 1_555
C4_11 C2_11 1_555 1_555
O4_11 C5_11 1_555 1_555
C5_11 C6_11 1_555 1_555
C6_11 C7_11 1_555 1_555
O5_11 C5_11 1_555 1_555
C8_11 C4_11 1_555 1_555
Ce2_5 O2_2 1_555 1_555
O6_3 Ce2_5 1_555 1_555
C9_11 O6_3 1_555 1_555
C10_11 C9_11 1_555 1_555
C11_11 C10_11 1_555 1_555
O7_2 Ce2_5 1_555 1_555
O8_3 C9_11 1_555 1_555
C12_11 C10_11 1_555 1_555
O9_11 C13_11 1_555 1_555
C13_11 C14_11 1_555 1_555
C14_11 C15_11 1_555 1_555
C15_11 C11_11 1_555 1_555
O10_11 C13_11 1_555 1_555
C16_11 C12_11 1_555 1_555
O11_3 Ce2_5 1_555 1_555
C17_5 O11_3 1_555 1_555
C18_5 C17_5 1_555 1_555
C19_5 C18_5 1_555 1_555
O12_2 Ce2_5 1_555 1_555
O13_5 C17_5 1_555 1_555
C20_5 C18_5 1_555 1_555
O14_5 C21_5 1_555 1_555
C21_5 C22_5 1_555 1_555
C22_5 C23_5 1_555 1_555
C23_5 C19_5 1_555 1_555
O15_5 C21_5 1_555 1_555
C24_5 C20_5 1_555 1_555
Ce8_3 O2_2 1_555 1_555
Ce12_3 O7_2 1_555 1_555
Ce8_5 O7_2 1_555 1_555
Ce7_7 O5_11 1_555 1_555
Ce11_2 O4_11 1_555 1_555
Ce9_5 O14_5 1_555 1_555
Ce8 O10_11 1_555 1_555
Ce8_2 O15_5 1_555 1_555
Ce12_5 O9_11 1_555 1_555
O18_3 Ce2_5 1_555 1_555
O25_2 Ce7_5 1_555 1_555
O3_3 Ce2_5 1_555 1_555
C6_11 C8_11 1_555 1_555
Ce2_5 O25_2 1_555 1_555
O8_3 Ce8_5 1_555 1_555
C14_11 C16_11 1_555 1_555
O12_2 Ce8_3 1_555 1_555
O12_2 Ce12_3 1_555 1_555
O13_5 Ce8_3 1_555 1_555
C22_5 C24_5 1_555 1_555
Ce8_5 O25_2 1_555 1_555
C11_11 H1_11 1_555 1_555
C19_5 H2_5 1_555 1_555
C3_11 H3_11 1_555 1_555
C7_11 H4_11 1_555 1_555
C12_11 H5_11 1_555 1_555
C16_11 H6_11 1_555 1_555
C8_11 H7_11 1_555 1_555
C15_11 H8_11 1_555 1_555
C4_11 H9_11 1_555 1_555
C23_5 H10_5 1_555 1_555
C24_5 H11_5 1_555 1_555
C20_5 H12_5 1_555 1_555
O16_2 Ce8_4 1_555 1_555
Ce6_5 O16_2 1_555 1_555
O17_7 Ce8_4 1_555 1_555
O21_5 Ce7_6 1_555 1_555
O24_2 Ce7_6 1_555 1_555
O26_3 Ce7_6 1_555 1_555
Ce8_4 O26_3 1_555 1_555
O16_2 Ce12_4 1_555 1_555
Ce8_6 O24_2 1_555 1_555
Ce6_5 O24_2 1_555 1_555
Ce6_5 O26_3 1_555 1_555
Ce12_3 O1_6 1_555 1_555
O1_6 C1_12 1_555 1_555
C1_12 C2_12 1_555 1_555
C2_12 C3_12 1_555 1_555
C3_12 C7_12 1_555 1_555
O18_3 C1_12 1_555 1_555
C4_12 C2_12 1_555 1_555
O4_12 C5_12 1_555 1_555
C5_12 C6_12 1_555 1_555
C6_12 C7_12 1_555 1_555
O5_12 C5_12 1_555 1_555
C8_12 C4_12 1_555 1_555
Ce7_8 O5_12 1_555 1_555
Ce11 O4_12 1_555 1_555
C6_12 C8_12 1_555 1_555
C3_12 H3_12 1_555 1_555
C7_12 H4_12 1_555 1_555
C8_12 H7_12 1_555 1_555
C4_12 H9_12 1_555 1_555
O17_8 Ce8_6 1_555 1_555
O21_6 Ce12_4 1_555 1_555
O26_4 Ce12_4 1_555 1_555
Ce8_6 O26_4 1_555 1_555
Ce6_5 O26_4 1_555 1_555
C17_6 O17_8 1_555 1_555
C18_6 C17_6 1_555 1_555
C19_6 C18_6 1_555 1_555
O13_6 C17_6 1_555 1_555
C20_6 C18_6 1_555 1_555
O14_6 C21_6 1_555 1_555
C21_6 C22_6 1_555 1_555
C22_6 C23_6 1_555 1_555
C23_6 C19_6 1_555 1_555
O15_6 C21_6 1_555 1_555
C24_6 C20_6 1_555 1_555
Ce8_7 O14_6 1_555 1_555
Ce12_5 O15_6 1_555 1_555
O17_9 Ce6_5 1_555 1_555
O19_7 Ce6_5 1_555 1_555
O20_7 Ce6_5 1_555 1_555
O13_6 Ce6_5 1_555 1_555
C22_6 C24_6 1_555 1_555
C19_6 H2_6 1_555 1_555
C23_6 H10_6 1_555 1_555
C24_6 H11_6 1_555 1_555
C20_6 H12_6 1_555 1_555
C9_12 O17_7 1_555 1_555
C10_12 C9_12 1_555 1_555
C11_12 C10_12 1_555 1_555
O17_9 C9_12 1_555 1_555
C12_12 C10_12 1_555 1_555
O9_12 C13_12 1_555 1_555
C13_12 C14_12 1_555 1_555
C14_12 C15_12 1_555 1_555
C15_12 C11_12 1_555 1_555
O10_12 C13_12 1_555 1_555
C16_12 C12_12 1_555 1_555
Ce9_5 O10_12 1_555 1_555
Ce8_8 O9_12 1_555 1_555
C14_12 C16_12 1_555 1_555
C11_12 H1_12 1_555 1_555
C12_12 H5_12 1_555 1_555
C16_12 H6_12 1_555 1_555
C15_12 H8_12 1_555 1_555
O21_6 C1_13 1_555 1_555
C1_13 C2_13 1_555 1_555
C2_13 C3_13 1_555 1_555
C3_13 C7_13 1_555 1_555
O20_7 C1_13 1_555 1_555
C4_13 C2_13 1_555 1_555
O4_13 C5_13 1_555 1_555
C5_13 C6_13 1_555 1_555
C6_13 C7_13 1_555 1_555
O5_13 C5_13 1_555 1_555
C8_13 C4_13 1_555 1_555
Ce7_8 O5_13 1_555 1_555
Ce9_3 O4_13 1_555 1_555
C6_13 C8_13 1_555 1_555
C3_13 H3_13 1_555 1_555
C7_13 H4_13 1_555 1_555
C8_13 H7_13 1_555 1_555
C4_13 H9_13 1_555 1_555
C9_13 O19_7 1_555 1_555
C10_13 C9_13 1_555 1_555
C11_13 C10_13 1_555 1_555
O21_5 C9_13 1_555 1_555
C12_13 C10_13 1_555 1_555
O9_13 C13_13 1_555 1_555
C13_13 C14_13 1_555 1_555
C14_13 C15_13 1_555 1_555
C15_13 C11_13 1_555 1_555
O10_13 C13_13 1_555 1_555
C16_13 C12_13 1_555 1_555
Ce9_4 O10_13 1_555 1_555
Ce7_7 O9_13 1_555 1_555
C14_13 C16_13 1_555 1_555
C11_13 H1_13 1_555 1_555
C12_13 H5_13 1_555 1_555
C16_13 H6_13 1_555 1_555
C15_13 H8_13 1_555 1_555
O2_3 Ce7_3 1_555 1_555
Ce8_7 O2_3 1_555 1_555
O12_3 Ce8_7 1_555 1_555
Ce12_5 O2_3 1_555 1_555
O16_3 Ce12_5 1_555 1_555
Ce8 O16_3 1_555 1_555
O19_8 Ce12_5 1_555 1_555
O20_8 Ce12_5 1_555 1_555
O23_5 Ce7_3 1_555 1_555
O26_5 Ce7_3 1_555 1_555
O12_3 Ce12_5 1_555 1_555
O12_3 Ce7 1_555 1_555
Ce12_5 O26_5 1_555 1_555
O16_3 Ce7 1_555 1_555
Ce8 O26_5 1_555 1_555
O7_3 Ce8_8 1_555 1_555
Ce7_2 O7_3 1_555 1_555
Ce9_5 O7_3 1_555 1_555
O22_5 Ce7_4 1_555 1_555
O24_3 Ce7_4 1_555 1_555
O25_3 Ce7_4 1_555 1_555
Ce8_8 O25_3 1_555 1_555
Ce9_5 O24_3 1_555 1_555
Ce9_5 O25_3 1_555 1_555
Ce8_2 O24_3 1_555 1_555
O22_6 Ce7 1_555 1_555
O19_9 Ce9_5 1_555 1_555
O20_9 Ce9_5 1_555 1_555
O23_6 Ce7_2 1_555 1_555
O26_6 Ce7_2 1_555 1_555
Ce9_5 O26_6 1_555 1_555
Ce8_2 O26_6 1_555 1_555
O23_6 C1_14 1_555 1_555
C1_14 C2_14 1_555 1_555
C2_14 C3_14 1_555 1_555
C3_14 C7_14 1_555 1_555
O20_9 C1_14 1_555 1_555
C4_14 C2_14 1_555 1_555
O4_14 C5_14 1_555 1_555
C5_14 C6_14 1_555 1_555
C6_14 C7_14 1_555 1_555
O5_14 C5_14 1_555 1_555
C8_14 C4_14 1_555 1_555
Ce7_8 O5_14 1_555 1_555
Ce12 O4_14 1_555 1_555
C6_14 C8_14 1_555 1_555
C3_14 H3_14 1_555 1_555
C7_14 H4_14 1_555 1_555
C8_14 H7_14 1_555 1_555
C4_14 H9_14 1_555 1_555
O22_6 C1_15 1_555 1_555
C1_15 C2_15 1_555 1_555
C2_15 C3_15 1_555 1_555
C3_15 C7_15 1_555 1_555
O19_8 C1_15 1_555 1_555
C4_15 C2_15 1_555 1_555
O4_15 C5_15 1_555 1_555
C5_15 C6_15 1_555 1_555
C6_15 C7_15 1_555 1_555
O5_15 C5_15 1_555 1_555
C8_15 C4_15 1_555 1_555
Ce7_8 O5_15 1_555 1_555
Ce9 O4_15 1_555 1_555
C6_15 C8_15 1_555 1_555
C3_15 H3_15 1_555 1_555
C7_15 H4_15 1_555 1_555
C8_15 H7_15 1_555 1_555
C4_15 H9_15 1_555 1_555
C9_14 O19_9 1_555 1_555
C10_14 C9_14 1_555 1_555
C11_14 C10_14 1_555 1_555
O22_5 C9_14 1_555 1_555
C12_14 C10_14 1_555 1_555
O9_14 C13_14 1_555 1_555
C13_14 C14_14 1_555 1_555
C14_14 C15_14 1_555 1_555
C15_14 C11_14 1_555 1_555
O10_14 C13_14 1_555 1_555
C16_14 C12_14 1_555 1_555
Ce12_2 O10_14 1_555 1_555
Ce7_7 O9_14 1_555 1_555
C14_14 C16_14 1_555 1_555
C11_14 H1_14 1_555 1_555
C12_14 H5_14 1_555 1_555
C16_14 H6_14 1_555 1_555
C15_14 H8_14 1_555 1_555
C9_15 O20_8 1_555 1_555
C10_15 C9_15 1_555 1_555
C11_15 C10_15 1_555 1_555
O23_5 C9_15 1_555 1_555
C12_15 C10_15 1_555 1_555
O9_15 C13_15 1_555 1_555
C13_15 C14_15 1_555 1_555
C14_15 C15_15 1_555 1_555
C15_15 C11_15 1_555 1_555
O10_15 C13_15 1_555 1_555
C16_15 C12_15 1_555 1_555
Ce9_2 O10_15 1_555 1_555
Ce7_7 O9_15 1_555 1_555
C14_15 C16_15 1_555 1_555
C11_15 H1_15 1_555 1_555
C12_15 H5_15 1_555 1_555
C16_15 H6_15 1_555 1_555
C15_15 H8_15 1_555 1_555
O2_4 Ce7_8 1_555 1_555
Ce9_3 O2_4 1_555 1_555
Ce12 O2_4 1_555 1_555
O24_4 Ce7_8 1_555 1_555
O25_4 Ce7_8 1_555 1_555
O26_7 Ce7_8 1_555 1_555
Ce9_3 O25_4 1_555 1_555
Ce12 O26_7 1_555 1_555
Ce9 O24_4 1_555 1_555
Ce9 O25_4 1_555 1_555
Ce11 O24_4 1_555 1_555
Ce11 O26_7 1_555 1_555
O7_4 Ce9_4 1_555 1_555
O12_4 Ce9_4 1_555 1_555
O16_4 Ce12_2 1_555 1_555
Ce7_7 O7_4 1_555 1_555
Ce9_2 O7_4 1_555 1_555
Ce11_2 O16_4 1_555 1_555
O12_4 Ce12_2 1_555 1_555
O12_4 Ce7_7 1_555 1_555
O16_4 Ce7_7 1_555 1_555
O26_8 Ce7_7 1_555 1_555
Ce9_2 O26_8 1_555 1_555
Ce11_2 O26_8 1_555 1_555

#END
