
###############################################################################
#
# This file contains modified crystal structure data generated from the
# MOF subset of the Cambridge Structural Database (CSD) v543 
# hosted by the Cambridge Crystallographic Data Centre (CCDC).
#
# This work is licensed under the Creative Commons
# Attribution-NonCommercial-ShareAlike 4.0 International License.
# To view a copy of this license, visit
# http://creativecommons.org/licenses/by-nc-sa/4.0/
# or send a letter to
# Creative Commons, PO Box 1866, Mountain View, CA 94042, USA.
#
# CIF created using the CSD Python API on 29 September 2022
# The structure has been converted into the P1 space group
# The structure has a 3D framework
# The original CSD entry BUPVEP is in the cubic crystal system
# The framework has been calculated to contain at least 10.0% void space
# The void calculation uses a probe of radius 1.32A, grid spacing 0.4
# H atom positions have been added when not included in the experimental data
#
###############################################################################

data_BUPVEP
_chemical_formula_moiety         '(C108 H48 Ce23 O114)n'
_symmetry_cell_setting           triclinic
_symmetry_space_group_name_H-M   'P 1'
_symmetry_Int_Tables_number      1
_space_group_name_Hall           'P 1'
loop_
_symmetry_equiv_pos_site_id
_symmetry_equiv_pos_as_xyz
1 x,y,z
_cell_length_a                   18.57284(16)
_cell_length_b                   18.57284(16)
_cell_length_c                   18.57284(16)
_cell_angle_alpha                90
_cell_angle_beta                 90
_cell_angle_gamma                90
_cell_volume                     6406.71
loop_
_atom_site_label
_atom_site_type_symbol
_atom_site_fract_x
_atom_site_fract_y
_atom_site_fract_z
_atom_site_U_iso_or_equiv
_atom_site_thermal_displace_type
Ce1 Ce 0.39290(10) 0.2598(4) 0.2441(5) 0.0293 Uiso
O1 O 0.3225(7) 0.3225(7) 0.1775(7) 0.0293 Uiso
O2 O 0.3349(17) 0.3349(17) 0.3349(17) 0.0293 Uiso
O3 O 0.452(2) 0.273(2) 0.128(3) 0.0293 Uiso
O4 O 0.357(2) 0.257(3) 0.053(2) 0.0293 Uiso
C1 C 0.426(5) 0.269(4) 0.064(5) 0.0293 Uiso
C2 C 0.463(4) 0.274(3) 0.000(4) 0.0293 Uiso
O5 O 0.4696(19) 0.257(2) 0.349(2) 0.0293 Uiso
O6 O 0.383(3) 0.252(2) 0.4345(18) 0.0293 Uiso
C3 C 0.450(4) 0.259(5) 0.419(5) 0.0293 Uiso
C4 C 0.509(4) 0.267(4) 0.464(4) 0.0293 Uiso
C6 C 0.537(4) 0.274(3) 0.000(4) 0.0293 Uiso
O9 O 0.5304(19) 0.257(2) 0.651(2) 0.0293 Uiso
O10 O 0.617(3) 0.252(2) 0.5655(18) 0.0293 Uiso
C7 C 0.550(4) 0.259(5) 0.581(5) 0.0293 Uiso
C8 C 0.491(4) 0.267(4) 0.536(4) 0.0293 Uiso
Ce3 Ce 0.2402(4) 0.2559(5) 0.10710(10) 0.0293 Uiso
O12 O 0.1775(7) 0.3225(7) 0.1775(7) 0.0293 Uiso
O13 O 0.1651(17) 0.1651(17) 0.1651(17) 0.0293 Uiso
O14 O 0.227(2) 0.372(3) 0.048(2) 0.0293 Uiso
O15 O 0.243(3) 0.447(2) 0.143(2) 0.0293 Uiso
C9 C 0.231(4) 0.436(5) 0.074(5) 0.0293 Uiso
C10 C 0.226(3) 0.500(4) 0.037(4) 0.0293 Uiso
O16 O 0.243(2) 0.151(2) 0.0304(19) 0.0293 Uiso
O17 O 0.248(2) 0.0655(18) 0.117(3) 0.0293 Uiso
C11 C 0.241(5) 0.081(5) 0.050(4) 0.0293 Uiso
Ce5 Ce 0.2559(5) 0.10710(10) 0.2402(4) 0.0293 Uiso
O27 O 0.3225(7) 0.1775(7) 0.1775(7) 0.0293 Uiso
O28 O 0.151(2) 0.0304(19) 0.243(2) 0.0293 Uiso
O29 O 0.0655(18) 0.117(3) 0.248(2) 0.0293 Uiso
C21 C 0.081(5) 0.050(4) 0.241(5) 0.0293 Uiso
Ce7 Ce 0.60710(10) 0.2598(4) 0.7559(5) 0.0293 Uiso
Ce8 Ce 0.10710(10) 0.2402(4) 0.2559(5) 0.0293 Uiso
Ce10 Ce 0.7402(4) 0.2441(5) 0.60710(10) 0.0293 Uiso
Ce17 Ce 0.2441(5) 0.39290(10) 0.2598(4) 0.0293 Uiso
Ce19 Ce 0.2598(4) 0.2441(5) 0.39290(10) 0.0293 Uiso
O33 O 0.1775(7) 0.1775(7) 0.3225(7) 0.0293 Uiso
O38 O 0.3225(7) 0.1775(7) 0.3225(7) 0.0293 Uiso
O42 O 0.372(3) 0.048(2) 0.227(2) 0.0293 Uiso
O44 O 0.447(2) 0.143(2) 0.243(3) 0.0293 Uiso
O47 O 0.257(3) 0.053(2) 0.357(2) 0.0293 Uiso
O51 O 0.117(3) 0.248(2) 0.0655(18) 0.0293 Uiso
O54 O 0.4345(18) 0.383(3) 0.252(2) 0.0293 Uiso
H1 H 0.563986 0.272705 0.444456 . .
H2 H 0.436014 0.272705 0.555544 . .
H4 H 0.566336 0.277954 0.0506135 . .
H8 H 0.222046 0.550614 0.0663357 . .
C2_2 C 0.463(4) 0.274(3) 1.000(4) 0.0293 Uiso
O7 O 0.548(2) 0.273(2) 0.872(3) 0.0293 Uiso
O8 O 0.643(2) 0.257(3) 0.947(2) 0.0293 Uiso
C5 C 0.574(5) 0.269(4) 0.936(5) 0.0293 Uiso
C6_2 C 0.537(4) 0.274(3) 1.000(4) 0.0293 Uiso
O11 O 0.6775(7) 0.3225(7) 0.8225(7) 0.0293 Uiso
C12 C 0.233(4) 0.036(4) 0.991(4) 0.0293 Uiso
O18 O 0.227(2) 0.628(3) 0.952(2) 0.0293 Uiso
O19 O 0.243(3) 0.553(2) 0.857(2) 0.0293 Uiso
C13 C 0.231(4) 0.564(5) 0.926(5) 0.0293 Uiso
C14 C 0.226(3) 0.500(4) 0.963(4) 0.0293 Uiso
Ce12 Ce 0.2402(4) 0.7441(5) 0.89290(10) 0.0293 Uiso
Ce13 Ce 0.7559(5) 0.39290(10) 0.7402(4) 0.0293 Uiso
Ce15 Ce 0.2441(5) 0.60710(10) 0.7402(4) 0.0293 Uiso
Ce20 Ce 0.7598(4) 0.2559(5) 0.89290(10) 0.0293 Uiso
O35 O 0.6775(7) 0.1775(7) 0.6775(7) 0.0293 Uiso
O36 O 0.6775(7) 0.1775(7) 0.8225(7) 0.0293 Uiso
O40 O 0.6651(17) 0.3349(17) 0.6651(17) 0.0293 Uiso
O45 O 0.553(2) 0.143(2) 0.757(3) 0.0293 Uiso
O53 O 0.5655(18) 0.383(3) 0.748(2) 0.0293 Uiso
H3 H 0.433664 0.277954 0.949386 . .
H5 H 0.222046 0.449386 0.933664 . .
H7 H 0.227295 0.0555437 0.936014 . .
C16 C 0.233(4) 0.964(4) 0.009(4) 0.0293 Uiso
C22 C 0.036(4) 0.991(4) 0.233(4) 0.0293 Uiso
H6 H 0.0555437 0.936014 0.227295 . .
H11 H 0.227295 0.944456 0.0639858 . .
O20 O 0.243(2) 0.849(2) 0.9696(19) 0.0293 Uiso
O21 O 0.248(2) 0.9345(18) 0.883(3) 0.0293 Uiso
C15 C 0.241(5) 0.919(5) 0.950(4) 0.0293 Uiso
O22 O 0.1775(7) 0.6775(7) 0.8225(7) 0.0293 Uiso
Ce6 Ce 0.2559(5) 0.89290(10) 0.7598(4) 0.0293 Uiso
O32 O 0.3225(7) 0.8225(7) 0.8225(7) 0.0293 Uiso
Ce9 Ce 0.10710(10) 0.7598(4) 0.7441(5) 0.0293 Uiso
Ce21 Ce 0.39290(10) 0.7402(4) 0.7559(5) 0.0293 Uiso
O34 O 0.1775(7) 0.8225(7) 0.6775(7) 0.0293 Uiso
O37 O 0.3225(7) 0.8225(7) 0.6775(7) 0.0293 Uiso
O39 O 0.3225(7) 0.6775(7) 0.8225(7) 0.0293 Uiso
O41 O 0.1651(17) 0.8349(17) 0.8349(17) 0.0293 Uiso
O43 O 0.372(3) 0.952(2) 0.773(2) 0.0293 Uiso
O46 O 0.257(3) 0.947(2) 0.643(2) 0.0293 Uiso
O48 O 0.357(2) 0.743(3) 0.947(2) 0.0293 Uiso
O50 O 0.151(2) 0.9696(19) 0.757(2) 0.0293 Uiso
O52 O 0.117(3) 0.752(2) 0.9345(18) 0.0293 Uiso
C24 C 0.964(4) 0.009(4) 0.233(4) 0.0293 Uiso
H12 H 0.944456 0.0639858 0.227295 . .
O30 O 0.849(2) 0.9696(19) 0.243(2) 0.0293 Uiso
O31 O 0.9345(18) 0.883(3) 0.248(2) 0.0293 Uiso
C23 C 0.919(5) 0.950(4) 0.241(5) 0.0293 Uiso
Ce18 Ce 0.7441(5) 0.89290(10) 0.2402(4) 0.0293 Uiso
Ce22 Ce 0.89290(10) 0.7598(4) 0.2559(5) 0.0293 Uiso
C24_2 C 0.036(4) 0.009(4) 0.767(4) 0.0293 Uiso
H12_2 H 0.0555437 0.0639858 0.772705 . .
O31_2 O 0.0655(18) 0.883(3) 0.752(2) 0.0293 Uiso
C23_2 C 0.081(5) 0.950(4) 0.759(5) 0.0293 Uiso
C12_2 C 0.767(4) 0.036(4) 0.009(4) 0.0293 Uiso
O18_2 O 0.773(2) 0.628(3) 0.048(2) 0.0293 Uiso
O19_2 O 0.757(3) 0.553(2) 0.143(2) 0.0293 Uiso
C13_2 C 0.769(4) 0.564(5) 0.074(5) 0.0293 Uiso
C14_2 C 0.774(3) 0.500(4) 0.037(4) 0.0293 Uiso
Ce12_2 Ce 0.7598(4) 0.7441(5) 0.10710(10) 0.0293 Uiso
Ce15_2 Ce 0.7559(5) 0.60710(10) 0.2598(4) 0.0293 Uiso
H5_2 H 0.777954 0.449386 0.0663357 . .
H7_2 H 0.772705 0.0555437 0.0639858 . .
O12_2 O 0.8225(7) 0.3225(7) 0.8225(7) 0.0293 Uiso
O13_2 O 0.8349(17) 0.1651(17) 0.8349(17) 0.0293 Uiso
O14_2 O 0.773(2) 0.372(3) 0.952(2) 0.0293 Uiso
O15_2 O 0.757(3) 0.447(2) 0.857(2) 0.0293 Uiso
C9_2 C 0.769(4) 0.436(5) 0.926(5) 0.0293 Uiso
C10_2 C 0.774(3) 0.500(4) 0.963(4) 0.0293 Uiso
O16_2 O 0.757(2) 0.151(2) 0.9696(19) 0.0293 Uiso
O17_2 O 0.752(2) 0.0655(18) 0.883(3) 0.0293 Uiso
C11_2 C 0.759(5) 0.081(5) 0.950(4) 0.0293 Uiso
Ce5_2 Ce 0.7441(5) 0.10710(10) 0.7598(4) 0.0293 Uiso
O28_2 O 0.849(2) 0.0304(19) 0.757(2) 0.0293 Uiso
O29_2 O 0.9345(18) 0.117(3) 0.752(2) 0.0293 Uiso
C21_2 C 0.919(5) 0.050(4) 0.759(5) 0.0293 Uiso
Ce8_2 Ce 0.89290(10) 0.2402(4) 0.7441(5) 0.0293 Uiso
O33_2 O 0.8225(7) 0.1775(7) 0.6775(7) 0.0293 Uiso
O42_2 O 0.628(3) 0.048(2) 0.773(2) 0.0293 Uiso
O47_2 O 0.743(3) 0.053(2) 0.643(2) 0.0293 Uiso
O51_2 O 0.883(3) 0.248(2) 0.9345(18) 0.0293 Uiso
H8_2 H 0.777954 0.550614 0.933664 . .
O20_2 O 0.757(2) 0.849(2) 0.0304(19) 0.0293 Uiso
O21_2 O 0.752(2) 0.9345(18) 0.117(3) 0.0293 Uiso
C15_2 C 0.759(5) 0.919(5) 0.050(4) 0.0293 Uiso
O22_2 O 0.8225(7) 0.6775(7) 0.1775(7) 0.0293 Uiso
O32_2 O 0.6775(7) 0.8225(7) 0.1775(7) 0.0293 Uiso
Ce21_2 Ce 0.60710(10) 0.7402(4) 0.2441(5) 0.0293 Uiso
O34_2 O 0.8225(7) 0.8225(7) 0.3225(7) 0.0293 Uiso
O37_2 O 0.6775(7) 0.8225(7) 0.3225(7) 0.0293 Uiso
O39_2 O 0.6775(7) 0.6775(7) 0.1775(7) 0.0293 Uiso
O41_2 O 0.8349(17) 0.8349(17) 0.1651(17) 0.0293 Uiso
O43_2 O 0.628(3) 0.952(2) 0.227(2) 0.0293 Uiso
O46_2 O 0.743(3) 0.947(2) 0.357(2) 0.0293 Uiso
O48_2 O 0.643(2) 0.743(3) 0.053(2) 0.0293 Uiso
O52_2 O 0.883(3) 0.752(2) 0.0655(18) 0.0293 Uiso
C16_2 C 0.767(4) 0.964(4) 0.991(4) 0.0293 Uiso
C22_2 C 0.964(4) 0.991(4) 0.767(4) 0.0293 Uiso
H6_2 H 0.944456 0.936014 0.772705 . .
H11_2 H 0.772705 0.944456 0.936014 . .
C18 C 0.274(3) -0.000(4) 0.537(4) 0.0293 Uiso
O25 O 0.273(2) 0.128(3) 0.452(2) 0.0293 Uiso
C19 C 0.269(4) 0.064(5) 0.426(5) 0.0293 Uiso
C20 C 0.274(3) -0.000(4) 0.463(4) 0.0293 Uiso
H10 H 0.277954 0.0506135 0.566336 . .
O3_2 O 0.048(2) 0.227(2) 0.372(3) 0.0293 Uiso
O4_2 O 0.143(2) 0.243(3) 0.447(2) 0.0293 Uiso
C1_2 C 0.074(5) 0.231(4) 0.436(5) 0.0293 Uiso
C2_3 C 0.037(4) 0.226(3) 0.500(4) 0.0293 Uiso
O5_2 O 0.0304(19) 0.243(2) 0.151(2) 0.0293 Uiso
C3_2 C 0.050(4) 0.241(5) 0.081(5) 0.0293 Uiso
O16_3 O 0.257(2) 0.349(2) 0.4696(19) 0.0293 Uiso
O17_3 O 0.252(2) 0.4345(18) 0.383(3) 0.0293 Uiso
C11_3 C 0.259(5) 0.419(5) 0.450(4) 0.0293 Uiso
C12_3 C 0.267(4) 0.464(4) 0.509(4) 0.0293 Uiso
O20_3 O 0.257(2) 0.651(2) 0.5304(19) 0.0293 Uiso
O21_3 O 0.252(2) 0.5655(18) 0.617(3) 0.0293 Uiso
C15_3 C 0.259(5) 0.581(5) 0.550(4) 0.0293 Uiso
C16_3 C 0.267(4) 0.536(4) 0.491(4) 0.0293 Uiso
Ce4 Ce 0.2598(4) 0.7559(5) 0.60710(10) 0.0293 Uiso
O23 O 0.273(2) 0.872(3) 0.548(2) 0.0293 Uiso
C17 C 0.269(4) 0.936(5) 0.574(5) 0.0293 Uiso
C18_2 C 0.274(3) 1.000(4) 0.537(4) 0.0293 Uiso
C20_2 C 0.274(3) 1.000(4) 0.463(4) 0.0293 Uiso
O27_2 O 0.1775(7) 0.3225(7) 0.3225(7) 0.0293 Uiso
O28_3 O 0.349(2) 0.4696(19) 0.257(2) 0.0293 Uiso
C21_3 C 0.419(5) 0.450(4) 0.259(5) 0.0293 Uiso
C22_3 C 0.464(4) 0.509(4) 0.267(4) 0.0293 Uiso
O30_2 O 0.651(2) 0.5304(19) 0.257(2) 0.0293 Uiso
O31_3 O 0.5655(18) 0.617(3) 0.252(2) 0.0293 Uiso
C23_3 C 0.581(5) 0.550(4) 0.259(5) 0.0293 Uiso
C24_3 C 0.536(4) 0.491(4) 0.267(4) 0.0293 Uiso
O32_3 O 0.1775(7) 0.6775(7) 0.6775(7) 0.0293 Uiso
O41_3 O 0.3349(17) 0.6651(17) 0.6651(17) 0.0293 Uiso
O42_3 O 0.128(3) 0.452(2) 0.273(2) 0.0293 Uiso
O43_3 O 0.128(3) 0.548(2) 0.727(2) 0.0293 Uiso
O44_2 O 0.053(2) 0.357(2) 0.257(3) 0.0293 Uiso
O48_3 O 0.143(2) 0.757(3) 0.553(2) 0.0293 Uiso
O50_2 O 0.349(2) 0.5304(19) 0.743(2) 0.0293 Uiso
O52_3 O 0.383(3) 0.748(2) 0.5655(18) 0.0293 Uiso
H3_2 H 0.0663357 0.222046 0.550614 . .
H6_3 H 0.444456 0.563986 0.272705 . .
H7_3 H 0.272705 0.444456 0.563986 . .
H9 H 0.277954 0.949386 0.433664 . .
H11_3 H 0.272705 0.555544 0.436014 . .
H12_3 H 0.555544 0.436014 0.272705 . .
C8_2 C 0.009(4) 0.233(4) 0.964(4) 0.0293 Uiso
H2_2 H 0.0639858 0.227295 0.944456 . .
C4_2 C 0.991(4) 0.233(4) 0.036(4) 0.0293 Uiso
O7_2 O 0.952(2) 0.227(2) 0.628(3) 0.0293 Uiso
O8_2 O 0.857(2) 0.243(3) 0.553(2) 0.0293 Uiso
C5_2 C 0.926(5) 0.231(4) 0.564(5) 0.0293 Uiso
C6_3 C 0.963(4) 0.226(3) 0.500(4) 0.0293 Uiso
O36_2 O 0.8225(7) 0.3225(7) 0.6775(7) 0.0293 Uiso
O45_2 O 0.947(2) 0.357(2) 0.743(3) 0.0293 Uiso
O49 O 0.9696(19) 0.243(2) 0.849(2) 0.0293 Uiso
H1_2 H 0.936014 0.227295 0.0555437 . .
H4_2 H 0.933664 0.222046 0.449386 . .
C7_2 C 0.950(4) 0.241(5) 0.919(5) 0.0293 Uiso
C8_3 C 0.009(4) 0.767(4) 0.036(4) 0.0293 Uiso
H2_3 H 0.0639858 0.772705 0.0555437 . .
O3_3 O 0.048(2) 0.773(2) 0.628(3) 0.0293 Uiso
C1_3 C 0.074(5) 0.769(4) 0.564(5) 0.0293 Uiso
C2_4 C 0.037(4) 0.774(3) 0.500(4) 0.0293 Uiso
O5_3 O 0.0304(19) 0.757(2) 0.849(2) 0.0293 Uiso
C3_3 C 0.050(4) 0.759(5) 0.919(5) 0.0293 Uiso
O29_3 O 0.4345(18) 0.617(3) 0.748(2) 0.0293 Uiso
C21_4 C 0.419(5) 0.550(4) 0.741(5) 0.0293 Uiso
C22_4 C 0.464(4) 0.491(4) 0.733(4) 0.0293 Uiso
O30_3 O 0.651(2) 0.4696(19) 0.743(2) 0.0293 Uiso
C23_4 C 0.581(5) 0.450(4) 0.741(5) 0.0293 Uiso
C24_4 C 0.536(4) 0.509(4) 0.733(4) 0.0293 Uiso
O44_3 O 0.053(2) 0.643(2) 0.743(3) 0.0293 Uiso
H3_3 H 0.0663357 0.777954 0.449386 . .
H6_4 H 0.444456 0.436014 0.727295 . .
H12_4 H 0.555544 0.563986 0.727295 . .
O9_2 O 0.9696(19) 0.757(2) 0.151(2) 0.0293 Uiso
C7_3 C 0.950(4) 0.759(5) 0.081(5) 0.0293 Uiso
C4_3 C 0.991(4) 0.767(4) 0.964(4) 0.0293 Uiso
O7_3 O 0.952(2) 0.773(2) 0.372(3) 0.0293 Uiso
O8_3 O 0.857(2) 0.757(3) 0.447(2) 0.0293 Uiso
C5_3 C 0.926(5) 0.769(4) 0.436(5) 0.0293 Uiso
C6_4 C 0.963(4) 0.774(3) 0.500(4) 0.0293 Uiso
Ce20_2 Ce 0.7402(4) 0.7559(5) 0.39290(10) 0.0293 Uiso
O36_3 O 0.8225(7) 0.6775(7) 0.3225(7) 0.0293 Uiso
O45_3 O 0.947(2) 0.643(2) 0.257(3) 0.0293 Uiso
H1_3 H 0.936014 0.772705 0.944456 . .
H4_3 H 0.933664 0.777954 0.550614 . .
C17_2 C 0.436(5) 0.074(5) 0.231(4) 0.0293 Uiso
C18_3 C 0.500(4) 0.037(4) 0.226(3) 0.0293 Uiso
H10_2 H 0.550614 0.0663357 0.222046 . .
O26 O 0.553(2) 0.857(2) 0.243(3) 0.0293 Uiso
C19_2 C 0.564(5) 0.926(5) 0.231(4) 0.0293 Uiso
C20_3 C 0.500(4) 0.963(4) 0.226(3) 0.0293 Uiso
H9_2 H 0.449386 0.933664 0.222046 . .
C2_5 C 0.726(3) 0.000(4) 0.463(4) 0.0293 Uiso
O7_4 O 0.727(2) 0.128(3) 0.548(2) 0.0293 Uiso
C5_4 C 0.731(4) 0.064(5) 0.574(5) 0.0293 Uiso
C6_5 C 0.726(3) 0.000(4) 0.537(4) 0.0293 Uiso
O49_2 O 0.743(2) 0.349(2) 0.5304(19) 0.0293 Uiso
H3_4 H 0.722046 0.0506135 0.433664 . .
O2_2 O 0.6651(17) 0.6651(17) 0.3349(17) 0.0293 Uiso
O3_4 O 0.727(2) 0.872(3) 0.452(2) 0.0293 Uiso
C1_4 C 0.731(4) 0.936(5) 0.426(5) 0.0293 Uiso
C2_6 C 0.726(3) 1.000(4) 0.463(4) 0.0293 Uiso
O5_4 O 0.743(2) 0.651(2) 0.4696(19) 0.0293 Uiso
O6_2 O 0.748(2) 0.5655(18) 0.383(3) 0.0293 Uiso
C3_4 C 0.741(5) 0.581(5) 0.450(4) 0.0293 Uiso
C4_4 C 0.733(4) 0.536(4) 0.509(4) 0.0293 Uiso
C6_6 C 0.726(3) 1.000(4) 0.537(4) 0.0293 Uiso
O10_2 O 0.748(2) 0.4345(18) 0.617(3) 0.0293 Uiso
C7_4 C 0.741(5) 0.419(5) 0.550(4) 0.0293 Uiso
C8_4 C 0.733(4) 0.464(4) 0.491(4) 0.0293 Uiso
O54_2 O 0.617(3) 0.748(2) 0.4345(18) 0.0293 Uiso
H1_4 H 0.727295 0.555544 0.563986 . .
H2_4 H 0.727295 0.444456 0.436014 . .
H4_4 H 0.722046 0.949386 0.566336 . .
C19_3 C 0.564(5) 0.074(5) 0.769(4) 0.0293 Uiso
C20_4 C 0.500(4) 0.037(4) 0.774(3) 0.0293 Uiso
H9_3 H 0.449386 0.0663357 0.777954 . .
O24 O 0.447(2) 0.857(2) 0.757(3) 0.0293 Uiso
C17_3 C 0.436(5) 0.926(5) 0.769(4) 0.0293 Uiso
C18_4 C 0.500(4) 0.963(4) 0.774(3) 0.0293 Uiso
H10_3 H 0.550614 0.933664 0.777954 . .
C18_5 C -0.000(4) 0.537(4) 0.274(3) 0.0293 Uiso
C19_4 C 0.064(5) 0.426(5) 0.269(4) 0.0293 Uiso
C20_5 C -0.000(4) 0.463(4) 0.274(3) 0.0293 Uiso
H10_4 H 0.0506135 0.566336 0.277954 . .
O23_2 O 0.872(3) 0.548(2) 0.273(2) 0.0293 Uiso
C17_4 C 0.936(5) 0.574(5) 0.269(4) 0.0293 Uiso
C18_6 C 1.000(4) 0.537(4) 0.274(3) 0.0293 Uiso
C20_6 C 1.000(4) 0.463(4) 0.274(3) 0.0293 Uiso
O43_4 O 0.548(2) 0.727(2) 0.128(3) 0.0293 Uiso
O50_3 O 0.5304(19) 0.743(2) 0.349(2) 0.0293 Uiso
H9_4 H 0.949386 0.433664 0.277954 . .
C18_7 C -0.000(4) 0.463(4) 0.726(3) 0.0293 Uiso
C19_5 C 0.064(5) 0.574(5) 0.731(4) 0.0293 Uiso
C20_7 C -0.000(4) 0.537(4) 0.726(3) 0.0293 Uiso
H10_5 H 0.0506135 0.433664 0.722046 . .
O23_3 O 0.872(3) 0.452(2) 0.727(2) 0.0293 Uiso
C17_5 C 0.936(5) 0.426(5) 0.731(4) 0.0293 Uiso
C18_8 C 1.000(4) 0.463(4) 0.726(3) 0.0293 Uiso
C20_8 C 1.000(4) 0.537(4) 0.726(3) 0.0293 Uiso
O28_4 O 0.4696(19) 0.743(2) 0.651(2) 0.0293 Uiso
C21_5 C 0.450(4) 0.741(5) 0.581(5) 0.0293 Uiso
C22_5 C 0.509(4) 0.733(4) 0.536(4) 0.0293 Uiso
C23_5 C 0.550(4) 0.741(5) 0.419(5) 0.0293 Uiso
C24_5 C 0.491(4) 0.733(4) 0.464(4) 0.0293 Uiso
O42_4 O 0.452(2) 0.727(2) 0.872(3) 0.0293 Uiso
H6_5 H 0.563986 0.727295 0.555544 . .
H9_5 H 0.949386 0.566336 0.722046 . .
H12_5 H 0.436014 0.727295 0.444456 . .
C10_3 C 0.463(4) 0.726(3) -0.000(4) 0.0293 Uiso
C13_3 C 0.574(5) 0.731(4) 0.064(5) 0.0293 Uiso
C14_3 C 0.537(4) 0.726(3) -0.000(4) 0.0293 Uiso
H8_3 H 0.433664 0.722046 0.0506135 . .
C9_3 C 0.426(5) 0.731(4) 0.936(5) 0.0293 Uiso
C10_4 C 0.463(4) 0.726(3) 1.000(4) 0.0293 Uiso
C14_4 C 0.537(4) 0.726(3) 1.000(4) 0.0293 Uiso
H5_3 H 0.566336 0.722046 0.949386 . .
loop_
_geom_bond_atom_site_label_1
_geom_bond_atom_site_label_2
_geom_bond_site_symmetry_1
_geom_bond_site_symmetry_2
Ce1 O1 1_555 1_555
O1 Ce3 1_555 1_555
O2 Ce1 1_555 1_555
O3 Ce1 1_555 1_555
O4 C1 1_555 1_555
C1 O3 1_555 1_555
C2 C1 1_555 1_555
O5 Ce1 1_555 1_555
O6 C3 1_555 1_555
C3 O5 1_555 1_555
C4 C3 1_555 1_555
C6 C2 1_555 1_555
O9 C7 1_555 1_555
O10 C7 1_555 1_555
C7 C8 1_555 1_555
C8 C4 1_555 1_555
Ce3 O4 1_555 1_555
O12 Ce3 1_555 1_555
O13 Ce3 1_555 1_555
O14 Ce3 1_555 1_555
O15 C9 1_555 1_555
C9 O14 1_555 1_555
C10 C9 1_555 1_555
O16 Ce3 1_555 1_555
O17 C11 1_555 1_555
C11 O16 1_555 1_555
Ce5 O13 1_555 1_555
O27 Ce1 1_555 1_555
O28 Ce5 1_555 1_555
O29 C21 1_555 1_555
C21 O28 1_555 1_555
Ce7 O9 1_555 1_555
Ce8 O12 1_555 1_555
Ce10 O10 1_555 1_555
Ce17 O1 1_555 1_555
Ce19 O2 1_555 1_555
O33 Ce5 1_555 1_555
O38 Ce1 1_555 1_555
O42 Ce5 1_555 1_555
O44 Ce1 1_555 1_555
O47 Ce5 1_555 1_555
O51 Ce3 1_555 1_555
O54 Ce1 1_555 1_555
O2 Ce17 1_555 1_555
O6 Ce19 1_555 1_555
Ce3 O27 1_555 1_555
O12 Ce17 1_555 1_555
O13 Ce8 1_555 1_555
O15 Ce17 1_555 1_555
O17 Ce5 1_555 1_555
Ce5 O27 1_555 1_555
Ce5 O38 1_555 1_555
O29 Ce8 1_555 1_555
Ce8 O33 1_555 1_555
Ce19 O33 1_555 1_555
Ce19 O38 1_555 1_555
C4 H1 1_555 1_555
C8 H2 1_555 1_555
C6 H4 1_555 1_555
C10 H8 1_555 1_555
O7 C5 1_555 1_555
O8 C5 1_555 1_555
C5 C6_2 1_555 1_555
C6_2 C2_2 1_555 1_555
Ce7 O7 1_555 1_555
O11 Ce7 1_555 1_555
O18 C13 1_555 1_555
O19 C13 1_555 1_555
C13 C14 1_555 1_555
Ce12 O18 1_555 1_555
Ce13 O11 1_555 1_555
Ce15 O19 1_555 1_555
Ce20 O8 1_555 1_555
O35 Ce7 1_555 1_555
O36 Ce7 1_555 1_555
O40 Ce7 1_555 1_555
O45 Ce7 1_555 1_555
O53 Ce7 1_555 1_555
O11 Ce20 1_555 1_555
Ce13 O40 1_555 1_555
Ce20 O36 1_555 1_555
C2_2 H3 1_555 1_555
C14 H5 1_555 1_555
C12 H7 1_555 1_555
C22 H6 1_555 1_555
C16 H11 1_555 1_555
O20 C15 1_555 1_555
O21 C15 1_555 1_555
Ce12 O20 1_555 1_555
O22 Ce12 1_555 1_555
Ce6 O21 1_555 1_555
O32 Ce12 1_555 1_555
Ce9 O22 1_555 1_555
Ce15 O22 1_555 1_555
Ce21 O32 1_555 1_555
O34 Ce6 1_555 1_555
O37 Ce6 1_555 1_555
O39 Ce12 1_555 1_555
O41 Ce12 1_555 1_555
O43 Ce6 1_555 1_555
O46 Ce6 1_555 1_555
O48 Ce12 1_555 1_555
O50 Ce6 1_555 1_555
O52 Ce12 1_555 1_555
Ce6 O32 1_555 1_555
Ce6 O41 1_555 1_555
Ce9 O34 1_555 1_555
Ce9 O41 1_555 1_555
Ce15 O39 1_555 1_555
Ce21 O37 1_555 1_555
Ce21 O39 1_555 1_555
C24 H12 1_555 1_555
O30 C23 1_555 1_555
O31 C23 1_555 1_555
Ce18 O30 1_555 1_555
Ce22 O31 1_555 1_555
C24_2 H12_2 1_555 1_555
O50 C23_2 1_555 1_555
O31_2 C23_2 1_555 1_555
Ce9 O31_2 1_555 1_555
O18_2 C13_2 1_555 1_555
O19_2 C13_2 1_555 1_555
C13_2 C14_2 1_555 1_555
Ce12_2 O18_2 1_555 1_555
Ce15_2 O19_2 1_555 1_555
C14_2 H5_2 1_555 1_555
C12_2 H7_2 1_555 1_555
O12_2 Ce20 1_555 1_555
O13_2 Ce20 1_555 1_555
O14_2 Ce20 1_555 1_555
O15_2 C9_2 1_555 1_555
C9_2 O14_2 1_555 1_555
C10_2 C9_2 1_555 1_555
O16_2 Ce20 1_555 1_555
O17_2 C11_2 1_555 1_555
C11_2 O16_2 1_555 1_555
Ce5_2 O13_2 1_555 1_555
O28_2 Ce5_2 1_555 1_555
O29_2 C21_2 1_555 1_555
C21_2 O28_2 1_555 1_555
Ce8_2 O12_2 1_555 1_555
Ce10 O40 1_555 1_555
O33_2 Ce5_2 1_555 1_555
O42_2 Ce5_2 1_555 1_555
O47_2 Ce5_2 1_555 1_555
O51_2 Ce20 1_555 1_555
O12_2 Ce13 1_555 1_555
O13_2 Ce8_2 1_555 1_555
O15_2 Ce13 1_555 1_555
O17_2 Ce5_2 1_555 1_555
Ce5_2 O36 1_555 1_555
Ce5_2 O35 1_555 1_555
O29_2 Ce8_2 1_555 1_555
Ce8_2 O33_2 1_555 1_555
Ce10 O33_2 1_555 1_555
Ce10 O35 1_555 1_555
C10_2 H8_2 1_555 1_555
O20_2 C15_2 1_555 1_555
O21_2 C15_2 1_555 1_555
Ce12_2 O20_2 1_555 1_555
O22_2 Ce12_2 1_555 1_555
Ce18 O21_2 1_555 1_555
O32_2 Ce12_2 1_555 1_555
Ce22 O22_2 1_555 1_555
Ce15_2 O22_2 1_555 1_555
Ce21_2 O32_2 1_555 1_555
O34_2 Ce18 1_555 1_555
O37_2 Ce18 1_555 1_555
O39_2 Ce12_2 1_555 1_555
O41_2 Ce12_2 1_555 1_555
O43_2 Ce18 1_555 1_555
O46_2 Ce18 1_555 1_555
O48_2 Ce12_2 1_555 1_555
O52_2 Ce12_2 1_555 1_555
Ce18 O32_2 1_555 1_555
Ce18 O41_2 1_555 1_555
Ce22 O34_2 1_555 1_555
Ce22 O41_2 1_555 1_555
Ce15_2 O39_2 1_555 1_555
Ce21_2 O37_2 1_555 1_555
Ce21_2 O39_2 1_555 1_555
C22_2 H6_2 1_555 1_555
C16_2 H11_2 1_555 1_555
O25 C19 1_555 1_555
O47 C19 1_555 1_555
C19 C20 1_555 1_555
C20 C18 1_555 1_555
Ce19 O25 1_555 1_555
C18 H10 1_555 1_555
O3_2 Ce8 1_555 1_555
O4_2 C1_2 1_555 1_555
C1_2 O3_2 1_555 1_555
C2_3 C1_2 1_555 1_555
O5_2 Ce8 1_555 1_555
O51 C3_2 1_555 1_555
C3_2 O5_2 1_555 1_555
Ce19 O4_2 1_555 1_555
O16_3 Ce19 1_555 1_555
O17_3 C11_3 1_555 1_555
C11_3 O16_3 1_555 1_555
C12_3 C11_3 1_555 1_555
O20_3 C15_3 1_555 1_555
O21_3 C15_3 1_555 1_555
C15_3 C16_3 1_555 1_555
C16_3 C12_3 1_555 1_555
Ce4 O20_3 1_555 1_555
O37 Ce4 1_555 1_555
O23 Ce4 1_555 1_555
O46 C17 1_555 1_555
C17 O23 1_555 1_555
C18_2 C17 1_555 1_555
C20_2 C18_2 1_555 1_555
O27_2 Ce8 1_555 1_555
O28_3 Ce17 1_555 1_555
O54 C21_3 1_555 1_555
C21_3 O28_3 1_555 1_555
C22_3 C21_3 1_555 1_555
O30_2 C23_3 1_555 1_555
O31_3 C23_3 1_555 1_555
C23_3 C24_3 1_555 1_555
C24_3 C22_3 1_555 1_555
Ce15 O21_3 1_555 1_555
O32_3 Ce4 1_555 1_555
Ce15_2 O30_2 1_555 1_555
Ce9 O32_3 1_555 1_555
Ce21_2 O31_3 1_555 1_555
O34 Ce4 1_555 1_555
O41_3 Ce4 1_555 1_555
O42_3 Ce17 1_555 1_555
O43_3 Ce15 1_555 1_555
O44_2 Ce8 1_555 1_555
O48_3 Ce4 1_555 1_555
O50_2 Ce15 1_555 1_555
O52_3 Ce4 1_555 1_555
Ce19 O27_2 1_555 1_555
O17_3 Ce17 1_555 1_555
Ce17 O27_2 1_555 1_555
Ce15 O32_3 1_555 1_555
Ce15 O41_3 1_555 1_555
Ce21 O41_3 1_555 1_555
C2_3 H3_2 1_555 1_555
C22_3 H6_3 1_555 1_555
C12_3 H7_3 1_555 1_555
C20_2 H9 1_555 1_555
C16_3 H11_3 1_555 1_555
C24_3 H12_3 1_555 1_555
C8_2 H2_2 1_555 1_555
O7_2 C5_2 1_555 1_555
O8_2 C5_2 1_555 1_555
C5_2 C6_3 1_555 1_555
Ce8_2 O7_2 1_555 1_555
Ce10 O8_2 1_555 1_555
O36_2 Ce8_2 1_555 1_555
O45_2 Ce8_2 1_555 1_555
O49 Ce8_2 1_555 1_555
Ce10 O36_2 1_555 1_555
C4_2 H1_2 1_555 1_555
C6_3 H4_2 1_555 1_555
O49 C7_2 1_555 1_555
O51_2 C7_2 1_555 1_555
C8_3 H2_3 1_555 1_555
O3_3 Ce9 1_555 1_555
O48_3 C1_3 1_555 1_555
C1_3 O3_3 1_555 1_555
C2_4 C1_3 1_555 1_555
O5_3 Ce9 1_555 1_555
O52 C3_3 1_555 1_555
C3_3 O5_3 1_555 1_555
O29_3 C21_4 1_555 1_555
C21_4 O50_2 1_555 1_555
C22_4 C21_4 1_555 1_555
O30_3 C23_4 1_555 1_555
O53 C23_4 1_555 1_555
C23_4 C24_4 1_555 1_555
C24_4 C22_4 1_555 1_555
Ce13 O30_3 1_555 1_555
O44_3 Ce9 1_555 1_555
O29_3 Ce21 1_555 1_555
C2_4 H3_3 1_555 1_555
C22_4 H6_4 1_555 1_555
C24_4 H12_4 1_555 1_555
O9_2 C7_3 1_555 1_555
O52_2 C7_3 1_555 1_555
Ce22 O9_2 1_555 1_555
O7_3 C5_3 1_555 1_555
O8_3 C5_3 1_555 1_555
C5_3 C6_4 1_555 1_555
Ce22 O7_3 1_555 1_555
Ce20_2 O8_3 1_555 1_555
O36_3 Ce22 1_555 1_555
O45_3 Ce22 1_555 1_555
O34_2 Ce20_2 1_555 1_555
Ce20_2 O36_3 1_555 1_555
C4_3 H1_3 1_555 1_555
C6_4 H4_3 1_555 1_555
O44 C17_2 1_555 1_555
C17_2 O42 1_555 1_555
C18_3 C17_2 1_555 1_555
C18_3 H10_2 1_555 1_555
O43_2 C19_2 1_555 1_555
O26 C19_2 1_555 1_555
C19_2 C20_3 1_555 1_555
Ce21_2 O26 1_555 1_555
C20_3 H9_2 1_555 1_555
O7_4 C5_4 1_555 1_555
O47_2 C5_4 1_555 1_555
C5_4 C6_5 1_555 1_555
C6_5 C2_5 1_555 1_555
Ce10 O7_4 1_555 1_555
O49_2 Ce10 1_555 1_555
C2_5 H3_4 1_555 1_555
Ce20_2 O37_2 1_555 1_555
O2_2 Ce20_2 1_555 1_555
O3_4 Ce20_2 1_555 1_555
O46_2 C1_4 1_555 1_555
C1_4 O3_4 1_555 1_555
C2_6 C1_4 1_555 1_555
O5_4 Ce20_2 1_555 1_555
O6_2 C3_4 1_555 1_555
C3_4 O5_4 1_555 1_555
C4_4 C3_4 1_555 1_555
C6_6 C2_6 1_555 1_555
O49_2 C7_4 1_555 1_555
O10_2 C7_4 1_555 1_555
C7_4 C8_4 1_555 1_555
C8_4 C4_4 1_555 1_555
Ce13 O10_2 1_555 1_555
Ce15_2 O2_2 1_555 1_555
O54_2 Ce20_2 1_555 1_555
O2_2 Ce21_2 1_555 1_555
O6_2 Ce15_2 1_555 1_555
Ce15_2 O36_3 1_555 1_555
C4_4 H1_4 1_555 1_555
C8_4 H2_4 1_555 1_555
C6_6 H4_4 1_555 1_555
O42_2 C19_3 1_555 1_555
O45 C19_3 1_555 1_555
C19_3 C20_4 1_555 1_555
C20_4 H9_3 1_555 1_555
O24 C17_3 1_555 1_555
C17_3 O43 1_555 1_555
C18_4 C17_3 1_555 1_555
O24 Ce21 1_555 1_555
C18_4 H10_3 1_555 1_555
Ce13 O36_2 1_555 1_555
O42_3 C19_4 1_555 1_555
O44_2 C19_4 1_555 1_555
C19_4 C20_5 1_555 1_555
C20_5 C18_5 1_555 1_555
C18_5 H10_4 1_555 1_555
O23_2 Ce15_2 1_555 1_555
O45_3 C17_4 1_555 1_555
C17_4 O23_2 1_555 1_555
C18_6 C17_4 1_555 1_555
C20_6 C18_6 1_555 1_555
O43_4 Ce21_2 1_555 1_555
O50_3 Ce21_2 1_555 1_555
C20_6 H9_4 1_555 1_555
O43_3 C19_5 1_555 1_555
O44_3 C19_5 1_555 1_555
C19_5 C20_7 1_555 1_555
C20_7 C18_7 1_555 1_555
C18_7 H10_5 1_555 1_555
O23_3 Ce13 1_555 1_555
O45_2 C17_5 1_555 1_555
C17_5 O23_3 1_555 1_555
C18_8 C17_5 1_555 1_555
C20_8 C18_8 1_555 1_555
O28_4 Ce21 1_555 1_555
O52_3 C21_5 1_555 1_555
C21_5 O28_4 1_555 1_555
C22_5 C21_5 1_555 1_555
O50_3 C23_5 1_555 1_555
O54_2 C23_5 1_555 1_555
C23_5 C24_5 1_555 1_555
C24_5 C22_5 1_555 1_555
O42_4 Ce21 1_555 1_555
C22_5 H6_5 1_555 1_555
C20_8 H9_5 1_555 1_555
C24_5 H12_5 1_555 1_555
O43_4 C13_3 1_555 1_555
O48_2 C13_3 1_555 1_555
C13_3 C14_3 1_555 1_555
C14_3 C10_3 1_555 1_555
C10_3 H8_3 1_555 1_555
O48 C9_3 1_555 1_555
C9_3 O42_4 1_555 1_555
C10_4 C9_3 1_555 1_555
C14_4 C10_4 1_555 1_555
C14_4 H5_3 1_555 1_555

#END
