
###############################################################################
#
# This file contains modified crystal structure data generated from the
# MOF subset of the Cambridge Structural Database (CSD) v543 
# hosted by the Cambridge Crystallographic Data Centre (CCDC).
#
# This work is licensed under the Creative Commons
# Attribution-NonCommercial-ShareAlike 4.0 International License.
# To view a copy of this license, visit
# http://creativecommons.org/licenses/by-nc-sa/4.0/
# or send a letter to
# Creative Commons, PO Box 1866, Mountain View, CA 94042, USA.
#
# CIF created using the CSD Python API on 29 September 2022
# The structure has been converted into the P1 space group
# The structure has a 3D framework
# The original CSD entry BUQROX is in the orthorhombic crystal system
# The framework has been calculated to contain at least 10.0% void space
# The void calculation uses a probe of radius 1.32A, grid spacing 0.4
#
###############################################################################

data_BUQROX
_chemical_formula_moiety         '(C224 H192 N32 O40 Zn8)n'
_symmetry_cell_setting           triclinic
_symmetry_space_group_name_H-M   'P 1'
_symmetry_Int_Tables_number      1
_space_group_name_Hall           'P 1'
loop_
_symmetry_equiv_pos_site_id
_symmetry_equiv_pos_as_xyz
1 x,y,z
_cell_length_a                   14.6653(2)
_cell_length_b                   19.3880(2)
_cell_length_c                   19.5968(2)
_cell_angle_alpha                90
_cell_angle_beta                 90
_cell_angle_gamma                90
_cell_volume                     5571.97
loop_
_atom_site_label
_atom_site_type_symbol
_atom_site_fract_x
_atom_site_fract_y
_atom_site_fract_z
N7 N 0.26364(16) 0.00221(11) 0.70868(10)
C39 C 0.20507(18) 0.04847(14) 0.60389(13)
H35 H 0.2099 0.0828 0.5695
C40 C 0.26555(18) 0.04793(13) 0.65754(13)
H36 H 0.3117 0.0823 0.6583
C41 C 0.07788(19) 0.04286(15) 0.48991(13)
H37 H 0.1122 0.0851 0.5021
H38 H 0.1118 0.0188 0.4533
Zn4 Zn 0.34812(2) 0.00156(2) 0.78917(2)
O10 O 0.1857(2) 0.03969(15) 0.89066(12)
H47 H 0.0903 0.0048 0.9931
O1 O 0.39613(14) 0.09199(10) 0.81606(11)
O2 O 0.45718(15) 0.09517(11) 0.71247(11)
O3 O 0.6522(2) 0.35304(15) 0.84711(12)
C15 C 0.44740(19) 0.11945(14) 0.77090(16)
C16 C 0.4985(2) 0.18295(14) 0.79211(14)
C17 C 0.4812(2) 0.21440(15) 0.85414(15)
H17 H 0.4341 0.1970 0.8826
C18 C 0.5318(2) 0.27109(15) 0.87526(16)
H18 H 0.5198 0.2927 0.9178
C19 C 0.6004(2) 0.29555(16) 0.83282(16)
C20 C 0.6184(2) 0.26489(16) 0.77118(16)
H19 H 0.6657 0.2821 0.7428
C21 C 0.5674(2) 0.20894(15) 0.75077(16)
H20 H 0.5794 0.1879 0.7079
C22 C 0.6588(3) 0.37844(19) 0.91333(17)
C23 C 0.7259(3) 0.35217(19) 0.95539(19)
H21 H 0.7604 0.3130 0.9419
C26 C 0.6256(2) 0.4659(2) 0.99376(17)
C27 C 0.6082(3) 0.4338(2) 0.93224(18)
H24 H 0.5611 0.4504 0.9033
N8 N 0.07157(16) 0.99812(11) 0.54949(11)
C36 C 0.19820(19) 0.95396(15) 0.70461(13)
H33 H 0.1947 0.9207 0.7401
C37 C 0.13655(19) 0.94977(14) 0.65278(14)
H34 H 0.0931 0.9134 0.6525
C38 C 0.13624(18) 0.99834(13) 0.59982(13)
C42 C 0.01553(19) 0.93735(14) 0.53608(14)
H39 H 0.0463 0.9079 0.5018
H40 H 0.0090 0.9103 0.5786
O9 O 0.27979(13) 0.95512(10) 0.86283(10)
C52 C 0.2422(3) 0.88397(17) 0.98202(17)
H46 H 0.2869 0.8655 0.9520
C53 C 0.1938(2) 0.94218(16) 0.96344(15)
C56 C 0.2197(2) 0.98238(16) 0.90076(14)
N1 N 0.45490(15) 0.93499(12) 0.78781(10)
N2 N 0.67141(16) 0.79442(12) 0.78516(11)
C1 C 0.51808(18) 0.93475(14) 0.73791(13)
H1 H 0.5130 0.9685 0.7029
C2 C 0.58913(18) 0.88902(14) 0.73437(14)
H2 H 0.6302 0.8904 0.6969
C3 C 0.60094(18) 0.83990(14) 0.78663(13)
C4 C 0.53601(19) 0.84099(14) 0.83956(14)
H3 H 0.5407 0.8095 0.8765
C5 C 0.46658(19) 0.88735(14) 0.83747(13)
H4 H 0.4232 0.8862 0.8734
C6 C 0.6987(2) 0.75536(16) 0.84565(14)
H5 H 0.6804 0.7807 0.8873
H6 H 0.6675 0.7101 0.8459
C7 C 0.72767(19) 0.78516(14) 0.72409(14)
H7 H 0.6892 0.7901 0.6829
H8 H 0.7752 0.8214 0.7226
N6 N 0.82859(16) 0.70558(12) 0.78516(11)
C29 C 0.98192(18) 0.56525(14) 0.73791(13)
H25 H 0.9870 0.5315 0.7029
C30 C 0.91087(18) 0.61098(14) 0.73437(14)
H26 H 0.8698 0.6096 0.6969
C31 C 0.89906(18) 0.66010(14) 0.78663(13)
C32 C 0.96399(19) 0.65901(14) 0.83956(14)
H27 H 0.9593 0.6905 0.8765
C34 C 0.8013(2) 0.74464(16) 0.84565(14)
H29 H 0.8196 0.7193 0.8873
H30 H 0.8325 0.7899 0.8459
C35 C 0.77233(19) 0.71484(14) 0.72409(14)
H31 H 0.8108 0.7099 0.6829
H32 H 0.7248 0.6786 0.7226
O8 O 0.8478(2) 0.14696(15) 0.84711(12)
C46 C 0.9682(2) 0.22891(15) 0.87526(16)
H42 H 0.9802 0.2073 0.9178
C47 C 0.8996(2) 0.20445(16) 0.83282(16)
C48 C 0.8816(2) 0.23511(16) 0.77118(16)
H43 H 0.8343 0.2179 0.7428
C49 C 0.9326(2) 0.29106(15) 0.75077(16)
H44 H 0.9206 0.3121 0.7079
C50 C 0.8412(3) 0.12156(19) 0.91333(17)
C51 C 0.7741(3) 0.14783(19) 0.95539(19)
H45 H 0.7396 0.1870 0.9419
C54 C 0.8744(2) 0.0341(2) 0.99376(17)
C55 C 0.8918(3) 0.0662(2) 0.93224(18)
H48 H 0.9389 0.0496 0.9033
N1_2 N 0.54510(15) 0.06501(12) 0.21219(10)
N2_2 N 0.32859(16) 0.20558(12) 0.21484(11)
N4 N 0.92843(16) 0.00188(11) 0.45051(11)
C1_2 C 0.48192(18) 0.06525(14) 0.26209(13)
H1_2 H 0.4870 0.0315 0.2971
C2_2 C 0.41087(18) 0.11098(14) 0.26563(14)
H2_2 H 0.3698 0.1096 0.3031
C3_2 C 0.39906(18) 0.16010(14) 0.21337(13)
C4_2 C 0.46399(19) 0.15901(14) 0.16044(14)
H3_2 H 0.4593 0.1905 0.1235
C5_2 C 0.53342(19) 0.11265(14) 0.16253(13)
H4_2 H 0.5768 0.1138 0.1266
C6_2 C 0.3013(2) 0.24464(16) 0.15435(14)
H5_2 H 0.3196 0.2193 0.1127
H6_2 H 0.3325 0.2899 0.1541
C7_2 C 0.27233(19) 0.21484(14) 0.27591(14)
H7_2 H 0.3108 0.2099 0.3171
H8_2 H 0.2248 0.1786 0.2774
C8 C 0.80180(19) 0.04604(15) 0.29539(13)
H9 H 0.8053 0.0793 0.2599
C9 C 0.86345(19) 0.05023(14) 0.34722(14)
H10 H 0.9069 0.0866 0.3475
C10 C 0.86376(18) 0.00166(13) 0.40018(13)
C14 C 0.98447(19) 0.06265(14) 0.46392(14)
H15 H 0.9537 0.0921 0.4982
H16 H 0.9910 0.0897 0.4214
N6_2 N 0.17141(16) 0.29442(12) 0.21484(11)
C29_2 C 0.01808(18) 0.43475(14) 0.26209(13)
H25_2 H 0.0130 0.4685 0.2971
C30_2 C 0.08913(18) 0.38902(14) 0.26563(14)
H26_2 H 0.1302 0.3904 0.3031
C31_2 C 0.10094(18) 0.33990(14) 0.21337(13)
C32_2 C 0.03601(19) 0.34099(14) 0.16044(14)
H27_2 H 0.0407 0.3095 0.1235
C34_2 C 0.1987(2) 0.25536(16) 0.15435(14)
H29_2 H 0.1804 0.2807 0.1127
H30_2 H 0.1675 0.2101 0.1541
C35_2 C 0.22767(19) 0.28516(14) 0.27591(14)
H31_2 H 0.1892 0.2901 0.3171
H32_2 H 0.2752 0.3214 0.2774
O8_2 O 0.1522(2) 0.85304(15) 0.15289(12)
C46_2 C 0.0318(2) 0.77109(15) 0.12474(16)
H42_2 H 0.0198 0.7927 0.0822
C47_2 C 0.1004(2) 0.79555(16) 0.16718(16)
C48_2 C 0.1184(2) 0.76489(16) 0.22882(16)
H43_2 H 0.1657 0.7821 0.2572
C49_2 C 0.0674(2) 0.70894(15) 0.24923(16)
H44_2 H 0.0794 0.6879 0.2921
C50_2 C 0.1588(3) 0.87844(19) 0.08667(17)
C51_2 C 0.2259(3) 0.85217(19) 0.04461(19)
H45_2 H 0.2604 0.8130 0.0581
C54_2 C 0.1256(2) 0.9659(2) 0.00624(17)
C55_2 C 0.1082(3) 0.9338(2) 0.06776(18)
H48_2 H 0.0611 0.9504 0.0967
O12 O 0.72021(13) 0.04488(10) 0.13717(10)
C52_2 C 0.7578(3) 0.11603(17) 0.01798(17)
H46_2 H 0.7131 0.1345 0.0480
C53_2 C 0.8062(2) 0.05782(16) 0.03656(15)
C56_2 C 0.7803(2) 0.01762(16) 0.09924(14)
Zn1 Zn 0.65188(2) 0.99844(2) 0.21083(2)
O1_2 O 0.60387(14) 0.90801(10) 0.18394(11)
O2_2 O 0.54282(15) 0.90483(11) 0.28753(11)
O3_2 O 0.3478(2) 0.64696(15) 0.15289(12)
N3 N 0.73636(16) 0.99779(11) 0.29132(10)
C11 C 0.79493(18) 0.95153(14) 0.39611(13)
H11 H 0.7901 0.9172 0.4305
C12 C 0.73445(18) 0.95207(13) 0.34246(13)
H12 H 0.6883 0.9177 0.3417
C13 C 0.92212(19) 0.95714(15) 0.51009(13)
H13 H 0.8878 0.9149 0.4979
H14 H 0.8882 0.9812 0.5467
C15_2 C 0.55260(19) 0.88055(14) 0.22910(16)
C16_2 C 0.5015(2) 0.81705(14) 0.20789(14)
C17_2 C 0.5188(2) 0.78560(15) 0.14586(15)
H17_2 H 0.5659 0.8030 0.1174
C18_2 C 0.4682(2) 0.72891(15) 0.12474(16)
H18_2 H 0.4802 0.7073 0.0822
C19_2 C 0.3996(2) 0.70445(16) 0.16718(16)
C20_2 C 0.3816(2) 0.73511(16) 0.22882(16)
H19_2 H 0.3343 0.7179 0.2572
C21_2 C 0.4326(2) 0.79106(15) 0.24923(16)
H20_2 H 0.4206 0.8121 0.2921
C22_2 C 0.3412(3) 0.62156(19) 0.08667(17)
C23_2 C 0.2741(3) 0.64783(19) 0.04461(19)
H21_2 H 0.2396 0.6870 0.0581
C26_2 C 0.3744(2) 0.5341(2) 0.00624(17)
C27_2 C 0.3918(3) 0.5662(2) 0.06776(18)
H24_2 H 0.4389 0.5496 0.0967
O10_2 O 0.8143(2) 0.96031(15) 0.10934(12)
H47_2 H 0.9097 0.9952 0.0069
O4 O 0.22021(13) 0.54488(10) 0.86283(10)
O5 O 0.3143(2) 0.46031(15) 0.89066(12)
C24 C 0.2578(3) 0.61603(17) 0.98202(17)
H22 H 0.2131 0.6345 0.9520
C25 C 0.3062(2) 0.55782(16) 0.96344(15)
H23 H 0.4097 0.4952 0.9931
C28 C 0.2803(2) 0.51762(16) 0.90076(14)
Zn5 Zn 0.15188(2) 0.49844(2) 0.78917(2)
N5 N 0.95490(15) 0.43499(12) 0.21219(10)
C33 C 0.96658(19) 0.38735(14) 0.16253(13)
H28 H 0.9232 0.3862 0.1266
Zn2 Zn 0.84812(2) 0.50156(2) 0.21083(2)
O6 O 0.89613(14) 0.59199(10) 0.18394(11)
O7 O 0.95718(15) 0.59517(11) 0.28753(11)
C43 C 0.94740(19) 0.61945(14) 0.22910(16)
C44 C 0.9985(2) 0.68295(14) 0.20789(14)
C45 C 0.9812(2) 0.71440(15) 0.14586(15)
H41 H 0.9341 0.6970 0.1174
O11 O 0.77979(13) 0.45512(10) 0.13717(10)
N9 N 0.76364(16) 0.50221(11) 0.29132(10)
N4_2 N 0.57157(16) 0.49812(11) 0.45051(11)
C8_2 C 0.69820(19) 0.45396(15) 0.29539(13)
H9_2 H 0.6947 0.4207 0.2599
C9_2 C 0.63655(19) 0.44977(14) 0.34722(14)
H10_2 H 0.5931 0.4134 0.3475
C10_2 C 0.63624(18) 0.49834(13) 0.40018(13)
C11_2 C 0.70507(18) 0.54847(14) 0.39611(13)
H11_2 H 0.7099 0.5828 0.4305
C12_2 C 0.76555(18) 0.54793(13) 0.34246(13)
H12_2 H 0.8117 0.5823 0.3417
C13_2 C 0.57788(19) 0.54286(15) 0.51009(13)
H13_2 H 0.6122 0.5851 0.4979
H14_2 H 0.6118 0.5188 0.5467
C14_2 C 0.51553(19) 0.43735(14) 0.46392(14)
H15_2 H 0.5463 0.4079 0.4982
H16_2 H 0.5090 0.4103 0.4214
N7_2 N 0.23636(16) 0.49779(11) 0.70868(10)
N8_2 N 0.42843(16) 0.50188(11) 0.54949(11)
C36_2 C 0.30180(19) 0.54604(15) 0.70461(13)
H33_2 H 0.3053 0.5793 0.7401
C37_2 C 0.36345(19) 0.55023(14) 0.65278(14)
H34_2 H 0.4069 0.5866 0.6525
C38_2 C 0.36376(18) 0.50166(13) 0.59982(13)
C39_2 C 0.29493(18) 0.45153(14) 0.60389(13)
H35_2 H 0.2901 0.4172 0.5695
C40_2 C 0.23445(18) 0.45207(13) 0.65754(13)
H36_2 H 0.1883 0.4177 0.6583
C41_2 C 0.42212(19) 0.45714(15) 0.48991(13)
H37_2 H 0.3878 0.4149 0.5021
H38_2 H 0.3882 0.4812 0.4533
C42_2 C 0.48447(19) 0.56265(14) 0.53608(14)
H39_2 H 0.4537 0.5921 0.5018
H40_2 H 0.4910 0.5897 0.5786
N5_2 N 0.04510(15) 0.56501(12) 0.78781(10)
C33_2 C 0.03342(19) 0.61265(14) 0.83747(13)
H28_2 H 0.0768 0.6138 0.8734
O6_2 O 0.10387(14) 0.40801(10) 0.81606(11)
O7_2 O 0.04282(15) 0.40483(11) 0.71247(11)
C43_2 C 0.05260(19) 0.38055(14) 0.77090(16)
C44_2 C 0.0015(2) 0.31705(14) 0.79211(14)
C45_2 C 0.0188(2) 0.28560(15) 0.85414(15)
H41_2 H 0.0659 0.3030 0.8826
O5_2 O 0.6857(2) 0.53969(15) 0.10934(12)
C24_2 C 0.7422(3) 0.38397(17) 0.01798(17)
H22_2 H 0.7869 0.3655 0.0480
C25_2 C 0.6938(2) 0.44218(16) 0.03656(15)
H23_2 H 0.5903 0.5048 0.0069
C28_2 C 0.7197(2) 0.48238(16) 0.09924(14)
Zn2_2 Zn 0.15188(2) 0.00156(2) 0.28917(2)
O6_3 O 0.10387(14) 0.09199(10) 0.31606(11)
O7_3 O 0.04282(15) 0.09517(11) 0.21247(11)
C43_3 C 0.05260(19) 0.11945(14) 0.27090(16)
C44_3 C 0.0015(2) 0.18295(14) 0.29211(14)
C45_3 C 0.0188(2) 0.21440(15) 0.35414(15)
H41_3 H 0.0659 0.1970 0.3826
N9_2 N 0.23636(16) 0.00221(11) 0.20868(10)
C11_3 C 0.29493(18) 0.04847(14) 0.10389(13)
H11_3 H 0.2901 0.0828 0.0695
C12_3 C 0.23445(18) 0.04793(13) 0.15754(13)
H12_3 H 0.1883 0.0823 0.1583
H13_3 H 0.3878 0.0851 0.0021
O5_3 O 0.3143(2) 0.03969(15) 0.39066(12)
H23_3 H 0.4097 0.0048 0.4931
N5_3 N 0.04510(15) 0.93499(12) 0.28781(10)
C33_3 C 0.03342(19) 0.88735(14) 0.33747(13)
H28_3 H 0.0768 0.8862 0.3734
O11_2 O 0.22021(13) 0.95512(10) 0.36283(10)
O8_3 O 0.8478(2) 0.35304(15) 0.34711(12)
O9_2 O 0.72021(13) 0.45512(10) 0.63717(10)
O10_3 O 0.8143(2) 0.53969(15) 0.60934(12)
C46_3 C 0.9682(2) 0.27109(15) 0.37526(16)
H42_3 H 0.9802 0.2927 0.4178
C47_3 C 0.8996(2) 0.29555(16) 0.33282(16)
C48_3 C 0.8816(2) 0.26489(16) 0.27118(16)
H43_3 H 0.8343 0.2821 0.2428
C49_3 C 0.9326(2) 0.20894(15) 0.25077(16)
H44_3 H 0.9206 0.1879 0.2079
C50_3 C 0.8412(3) 0.37844(19) 0.41333(17)
C51_3 C 0.7741(3) 0.35217(19) 0.45539(19)
H45_3 H 0.7396 0.3130 0.4419
C52_3 C 0.7578(3) 0.38397(17) 0.51798(17)
H46_3 H 0.7131 0.3655 0.5480
C53_3 C 0.8062(2) 0.44218(16) 0.53656(15)
C54_3 C 0.8744(2) 0.4659(2) 0.49376(17)
H47_3 H 0.9097 0.5048 0.5069
C55_3 C 0.8918(3) 0.4338(2) 0.43224(18)
H48_3 H 0.9389 0.4504 0.4033
C56_3 C 0.7803(2) 0.48238(16) 0.59924(14)
Zn3 Zn 0.65188(2) 0.50156(2) 0.71083(2)
N7_3 N 0.73636(16) 0.50221(11) 0.79132(10)
N8_3 N 0.92843(16) 0.49812(11) 0.95051(11)
C36_3 C 0.80180(19) 0.45396(15) 0.79539(13)
H33_3 H 0.8053 0.4207 0.7599
C37_3 C 0.86345(19) 0.44977(14) 0.84722(14)
H34_3 H 0.9069 0.4134 0.8475
C38_3 C 0.86376(18) 0.49834(13) 0.90018(13)
C39_3 C 0.79493(18) 0.54847(14) 0.89611(13)
H35_3 H 0.7901 0.5828 0.9305
C40_3 C 0.73445(18) 0.54793(13) 0.84246(13)
H36_3 H 0.6883 0.5823 0.8417
H37_3 H 0.8878 0.5851 0.9979
C42_3 C 0.98447(19) 0.43735(14) 0.96392(14)
H39_3 H 0.9537 0.4079 0.9982
H40_3 H 0.9910 0.4103 0.9214
N4_3 N 0.42843(16) 0.99812(11) 0.04949(11)
C8_3 C 0.30180(19) 0.95396(15) 0.20461(13)
H9_3 H 0.3053 0.9207 0.2401
C9_3 C 0.36345(19) 0.94977(14) 0.15278(14)
H10_3 H 0.4069 0.9134 0.1525
C10_3 C 0.36376(18) 0.99834(13) 0.09982(13)
C14_3 C 0.48447(19) 0.93735(14) 0.03608(14)
H15_3 H 0.4537 0.9079 0.0018
H16_3 H 0.4910 0.9103 0.0786
C41_3 C 0.57788(19) 0.95714(15) 0.01009(13)
H38_3 H 0.6118 0.9812 0.0467
O1_3 O 0.60387(14) 0.59199(10) 0.68394(11)
O2_3 O 0.54282(15) 0.59517(11) 0.78753(11)
O3_3 O 0.3478(2) 0.85304(15) 0.65289(12)
N1_3 N 0.54510(15) 0.43499(12) 0.71219(10)
N2_3 N 0.32859(16) 0.29442(12) 0.71484(11)
C1_3 C 0.48192(18) 0.43475(14) 0.76209(13)
H1_3 H 0.4870 0.4685 0.7971
C2_3 C 0.41087(18) 0.38902(14) 0.76563(14)
H2_3 H 0.3698 0.3904 0.8031
C3_3 C 0.39906(18) 0.33990(14) 0.71337(13)
C4_3 C 0.46399(19) 0.34099(14) 0.66044(14)
H3_3 H 0.4593 0.3095 0.6235
C5_3 C 0.53342(19) 0.38735(14) 0.66253(13)
H4_3 H 0.5768 0.3862 0.6266
C6_3 C 0.3013(2) 0.25536(16) 0.65435(14)
H5_3 H 0.3196 0.2807 0.6127
H6_3 H 0.3325 0.2101 0.6541
C7_3 C 0.27233(19) 0.28516(14) 0.77591(14)
H7_3 H 0.3108 0.2901 0.8171
H8_3 H 0.2248 0.3214 0.7774
C15_3 C 0.55260(19) 0.61945(14) 0.72910(16)
C16_3 C 0.5015(2) 0.68295(14) 0.70789(14)
C17_3 C 0.5188(2) 0.71440(15) 0.64586(15)
H17_3 H 0.5659 0.6970 0.6174
C18_3 C 0.4682(2) 0.77109(15) 0.62474(16)
H18_3 H 0.4802 0.7927 0.5822
C19_3 C 0.3996(2) 0.79555(16) 0.66718(16)
C20_3 C 0.3816(2) 0.76489(16) 0.72882(16)
H19_3 H 0.3343 0.7821 0.7572
C21_3 C 0.4326(2) 0.70894(15) 0.74923(16)
H20_3 H 0.4206 0.6879 0.7921
C22_3 C 0.3412(3) 0.87844(19) 0.58667(17)
C23_3 C 0.2741(3) 0.85217(19) 0.54461(19)
H21_3 H 0.2396 0.8130 0.5581
C24_3 C 0.2578(3) 0.88397(17) 0.48202(17)
H22_3 H 0.2131 0.8655 0.4520
C25_3 C 0.3062(2) 0.94218(16) 0.46344(15)
C26_3 C 0.3744(2) 0.9659(2) 0.50624(17)
C27_3 C 0.3918(3) 0.9338(2) 0.56776(18)
H24_3 H 0.4389 0.9504 0.5967
C28_3 C 0.2803(2) 0.98238(16) 0.40076(14)
N6_3 N 0.17141(16) 0.20558(12) 0.71484(11)
C29_3 C 0.01808(18) 0.06525(14) 0.76209(13)
H25_3 H 0.0130 0.0315 0.7971
C30_3 C 0.08913(18) 0.11098(14) 0.76563(14)
H26_3 H 0.1302 0.1096 0.8031
C31_3 C 0.10094(18) 0.16010(14) 0.71337(13)
C32_3 C 0.03601(19) 0.15901(14) 0.66044(14)
H27_3 H 0.0407 0.1905 0.6235
C34_3 C 0.1987(2) 0.24464(16) 0.65435(14)
H29_3 H 0.1804 0.2193 0.6127
H30_3 H 0.1675 0.2899 0.6541
C35_3 C 0.22767(19) 0.21484(14) 0.77591(14)
H31_3 H 0.1892 0.2099 0.8171
H32_3 H 0.2752 0.1786 0.7774
Zn1_2 Zn 0.34812(2) 0.49844(2) 0.28917(2)
O1_4 O 0.39613(14) 0.40801(10) 0.31606(11)
O2_4 O 0.45718(15) 0.40483(11) 0.21247(11)
O3_4 O 0.6522(2) 0.14696(15) 0.34711(12)
O4_2 O 0.77979(13) 0.04488(10) 0.63717(10)
N1_4 N 0.45490(15) 0.56501(12) 0.28781(10)
N2_4 N 0.67141(16) 0.70558(12) 0.28516(11)
N3_2 N 0.26364(16) 0.49779(11) 0.20868(10)
N4_4 N 0.07157(16) 0.50188(11) 0.04949(11)
C1_4 C 0.51808(18) 0.56525(14) 0.23791(13)
H1_4 H 0.5130 0.5315 0.2029
C2_4 C 0.58913(18) 0.61098(14) 0.23437(14)
H2_4 H 0.6302 0.6096 0.1969
C3_4 C 0.60094(18) 0.66010(14) 0.28663(13)
C4_4 C 0.53601(19) 0.65901(14) 0.33956(14)
H3_4 H 0.5407 0.6905 0.3765
C5_4 C 0.46658(19) 0.61265(14) 0.33747(13)
H4_4 H 0.4232 0.6138 0.3734
C6_4 C 0.6987(2) 0.74464(16) 0.34565(14)
H5_4 H 0.6804 0.7193 0.3873
H6_4 H 0.6675 0.7899 0.3459
C7_4 C 0.72767(19) 0.71484(14) 0.22409(14)
H7_4 H 0.6892 0.7099 0.1829
H8_4 H 0.7752 0.6786 0.2226
C8_4 C 0.19820(19) 0.54604(15) 0.20461(13)
H9_4 H 0.1947 0.5793 0.2401
C9_4 C 0.13655(19) 0.55023(14) 0.15278(14)
H10_4 H 0.0931 0.5866 0.1525
C10_4 C 0.13624(18) 0.50166(13) 0.09982(13)
C11_4 C 0.20507(18) 0.45153(14) 0.10389(13)
H11_4 H 0.2099 0.4172 0.0695
C12_4 C 0.26555(18) 0.45207(13) 0.15754(13)
H12_4 H 0.3117 0.4177 0.1583
H13_4 H 0.1122 0.4149 0.0021
C14_4 C 0.01553(19) 0.56265(14) 0.03608(14)
H15_4 H 0.0463 0.5921 0.0018
H16_4 H 0.0090 0.5897 0.0786
C15_4 C 0.44740(19) 0.38055(14) 0.27090(16)
C16_4 C 0.4985(2) 0.31705(14) 0.29211(14)
C17_4 C 0.4812(2) 0.28560(15) 0.35414(15)
H17_4 H 0.4341 0.3030 0.3826
C18_4 C 0.5318(2) 0.22891(15) 0.37526(16)
H18_4 H 0.5198 0.2073 0.4178
C19_4 C 0.6004(2) 0.20445(16) 0.33282(16)
C20_4 C 0.6184(2) 0.23511(16) 0.27118(16)
H19_4 H 0.6657 0.2179 0.2428
C21_4 C 0.5674(2) 0.29106(15) 0.25077(16)
H20_4 H 0.5794 0.3121 0.2079
C22_4 C 0.6588(3) 0.12156(19) 0.41333(17)
C23_4 C 0.7259(3) 0.14783(19) 0.45539(19)
H21_4 H 0.7604 0.1870 0.4419
C24_4 C 0.7422(3) 0.11603(17) 0.51798(17)
H22_4 H 0.7869 0.1345 0.5480
C25_4 C 0.6938(2) 0.05782(16) 0.53656(15)
C26_4 C 0.6256(2) 0.0341(2) 0.49376(17)
C27_4 C 0.6082(3) 0.0662(2) 0.43224(18)
H24_4 H 0.5611 0.0496 0.4033
C28_4 C 0.7197(2) 0.01762(16) 0.59924(14)
N6_4 N 0.82859(16) 0.79442(12) 0.28516(11)
C29_4 C 0.98192(18) 0.93475(14) 0.23791(13)
H25_4 H 0.9870 0.9685 0.2029
C30_4 C 0.91087(18) 0.88902(14) 0.23437(14)
H26_4 H 0.8698 0.8904 0.1969
C31_4 C 0.89906(18) 0.83990(14) 0.28663(13)
C32_4 C 0.96399(19) 0.84099(14) 0.33956(14)
H27_4 H 0.9593 0.8095 0.3765
C34_4 C 0.8013(2) 0.75536(16) 0.34565(14)
H29_4 H 0.8196 0.7807 0.3873
H30_4 H 0.8325 0.7101 0.3459
C35_4 C 0.77233(19) 0.78516(14) 0.22409(14)
H31_4 H 0.8108 0.7901 0.1829
H32_4 H 0.7248 0.8214 0.2226
O12_2 O 0.27979(13) 0.54488(10) 0.36283(10)
C13_3 C 0.42212(19) 0.04286(15) 0.98991(13)
H14_3 H 0.3882 0.0188 0.9533
N8_4 N 0.57157(16) 0.00188(11) 0.95051(11)
C36_4 C 0.69820(19) 0.04604(15) 0.79539(13)
H33_4 H 0.6947 0.0793 0.7599
C37_4 C 0.63655(19) 0.05023(14) 0.84722(14)
H34_4 H 0.5931 0.0866 0.8475
C38_4 C 0.63624(18) 0.00166(13) 0.90018(13)
C42_4 C 0.51553(19) 0.06265(14) 0.96392(14)
H39_4 H 0.5463 0.0921 0.9982
H40_4 H 0.5090 0.0897 0.9214
O8_4 O 0.1522(2) 0.64696(15) 0.65289(12)
O10_4 O 0.1857(2) 0.46031(15) 0.39066(12)
C46_4 C 0.0318(2) 0.72891(15) 0.62474(16)
H42_4 H 0.0198 0.7073 0.5822
C47_4 C 0.1004(2) 0.70445(16) 0.66718(16)
C48_4 C 0.1184(2) 0.73511(16) 0.72882(16)
H43_4 H 0.1657 0.7179 0.7572
C49_4 C 0.0674(2) 0.79106(15) 0.74923(16)
H44_4 H 0.0794 0.8121 0.7921
C50_4 C 0.1588(3) 0.62156(19) 0.58667(17)
C51_4 C 0.2259(3) 0.64783(19) 0.54461(19)
H45_4 H 0.2604 0.6870 0.5581
C52_4 C 0.2422(3) 0.61603(17) 0.48202(17)
H46_4 H 0.2869 0.6345 0.4520
C53_4 C 0.1938(2) 0.55782(16) 0.46344(15)
C54_4 C 0.1256(2) 0.5341(2) 0.50624(17)
H47_4 H 0.0903 0.4952 0.4931
C55_4 C 0.1082(3) 0.5662(2) 0.56776(18)
H48_4 H 0.0611 0.5496 0.5967
C56_4 C 0.2197(2) 0.51762(16) 0.40076(14)
N5_4 N 0.95490(15) 0.06501(12) 0.71219(10)
C33_4 C 0.96658(19) 0.11265(14) 0.66253(13)
H28_4 H 0.9232 0.1138 0.6266
C13_4 C 0.07788(19) 0.45714(15) 0.98991(13)
H14_4 H 0.1118 0.4812 0.9533
O5_4 O 0.6857(2) 0.96031(15) 0.60934(12)
H23_4 H 0.5903 0.9952 0.5069
Zn5_2 Zn 0.84812(2) 0.99844(2) 0.71083(2)
N7_4 N 0.76364(16) 0.99779(11) 0.79132(10)
C39_4 C 0.70507(18) 0.95153(14) 0.89611(13)
H35_4 H 0.7099 0.9172 0.9305
C40_4 C 0.76555(18) 0.95207(13) 0.84246(13)
H36_4 H 0.8117 0.9177 0.8417
H37_4 H 0.6122 0.9149 0.9979
O6_4 O 0.89613(14) 0.90801(10) 0.68394(11)
O7_4 O 0.95718(15) 0.90483(11) 0.78753(11)
C43_4 C 0.94740(19) 0.88055(14) 0.72910(16)
C44_4 C 0.9985(2) 0.81705(14) 0.70789(14)
C45_4 C 0.9812(2) 0.78560(15) 0.64586(15)
H41_4 H 0.9341 0.8030 0.6174
C41_4 C 0.92212(19) 0.54286(15) 0.01009(13)
H38_4 H 0.8882 0.5188 0.0467
loop_
_geom_bond_atom_site_label_1
_geom_bond_atom_site_label_2
_geom_bond_site_symmetry_1
_geom_bond_site_symmetry_2
H35 C39 1_555 1_555
C40 N7 1_555 1_555
H36 C40 1_555 1_555
H37 C41 1_555 1_555
H38 C41 1_555 1_555
Zn4 N7 1_555 1_555
C39 C40 1_555 1_555
Zn4 O1 1_555 1_555
O1 C15 1_555 1_555
O2 C15 1_555 1_555
O3 C19 1_555 1_555
C15 C16 1_555 1_555
C16 C17 1_555 1_555
C17 H17 1_555 1_555
C18 C17 1_555 1_555
H18 C18 1_555 1_555
C19 C18 1_555 1_555
C20 C19 1_555 1_555
H19 C20 1_555 1_555
C21 C16 1_555 1_555
H20 C21 1_555 1_555
C22 O3 1_555 1_555
C23 C22 1_555 1_555
H21 C23 1_555 1_555
C27 C22 1_555 1_555
H24 C27 1_555 1_555
C20 C21 1_555 1_555
C26 C27 1_555 1_555
N8 C38 1_555 1_555
C36 H33 1_555 1_555
C37 C36 1_555 1_555
H34 C37 1_555 1_555
C38 C37 1_555 1_555
H39 C42 1_555 1_555
H40 C42 1_555 1_555
N8 C42 1_555 1_555
O9 C56 1_555 1_555
H46 C52 1_555 1_555
C53 C52 1_555 1_555
C56 C53 1_555 1_555
N2 C3 1_555 1_555
C1 N1 1_555 1_555
H1 C1 1_555 1_555
C2 C1 1_555 1_555
H2 C2 1_555 1_555
C3 C2 1_555 1_555
C4 C3 1_555 1_555
H3 C4 1_555 1_555
C5 N1 1_555 1_555
H4 C5 1_555 1_555
C6 N2 1_555 1_555
H5 C6 1_555 1_555
H6 C6 1_555 1_555
C7 N2 1_555 1_555
H7 C7 1_555 1_555
H8 C7 1_555 1_555
N6 C31 1_555 1_555
C29 H25 1_555 1_555
C30 C29 1_555 1_555
H26 C30 1_555 1_555
C31 C30 1_555 1_555
C32 C31 1_555 1_555
H27 C32 1_555 1_555
C34 C6 1_555 1_555
H29 C34 1_555 1_555
H30 C34 1_555 1_555
C35 C7 1_555 1_555
H31 C35 1_555 1_555
H32 C35 1_555 1_555
O8 C47 1_555 1_555
H42 C46 1_555 1_555
C47 C46 1_555 1_555
C48 C47 1_555 1_555
H43 C48 1_555 1_555
H44 C49 1_555 1_555
C50 O8 1_555 1_555
C51 C50 1_555 1_555
H45 C51 1_555 1_555
C55 C50 1_555 1_555
H48 C55 1_555 1_555
C4 C5 1_555 1_555
N6 C34 1_555 1_555
N6 C35 1_555 1_555
C48 C49 1_555 1_555
C54 C55 1_555 1_555
N2_2 C3_2 1_555 1_555
N4 C10 1_555 1_555
C1_2 N1_2 1_555 1_555
H1_2 C1_2 1_555 1_555
C2_2 C1_2 1_555 1_555
H2_2 C2_2 1_555 1_555
C3_2 C2_2 1_555 1_555
C4_2 C3_2 1_555 1_555
H3_2 C4_2 1_555 1_555
C5_2 N1_2 1_555 1_555
H4_2 C5_2 1_555 1_555
C6_2 N2_2 1_555 1_555
H5_2 C6_2 1_555 1_555
H6_2 C6_2 1_555 1_555
C7_2 N2_2 1_555 1_555
H7_2 C7_2 1_555 1_555
H8_2 C7_2 1_555 1_555
H9 C8 1_555 1_555
C9 C8 1_555 1_555
H10 C9 1_555 1_555
C10 C9 1_555 1_555
C14 N4 1_555 1_555
H15 C14 1_555 1_555
H16 C14 1_555 1_555
N6_2 C31_2 1_555 1_555
C29_2 H25_2 1_555 1_555
C30_2 C29_2 1_555 1_555
H26_2 C30_2 1_555 1_555
C31_2 C30_2 1_555 1_555
C32_2 C31_2 1_555 1_555
H27_2 C32_2 1_555 1_555
C34_2 C6_2 1_555 1_555
H29_2 C34_2 1_555 1_555
H30_2 C34_2 1_555 1_555
C35_2 C7_2 1_555 1_555
H31_2 C35_2 1_555 1_555
H32_2 C35_2 1_555 1_555
O8_2 C47_2 1_555 1_555
H42_2 C46_2 1_555 1_555
C47_2 C46_2 1_555 1_555
C48_2 C47_2 1_555 1_555
H43_2 C48_2 1_555 1_555
H44_2 C49_2 1_555 1_555
C50_2 O8_2 1_555 1_555
C51_2 C50_2 1_555 1_555
H45_2 C51_2 1_555 1_555
C55_2 C50_2 1_555 1_555
H48_2 C55_2 1_555 1_555
C4_2 C5_2 1_555 1_555
N6_2 C34_2 1_555 1_555
N6_2 C35_2 1_555 1_555
C48_2 C49_2 1_555 1_555
C54_2 C55_2 1_555 1_555
O12 C56_2 1_555 1_555
H46_2 C52_2 1_555 1_555
C53_2 C52_2 1_555 1_555
C56_2 C53_2 1_555 1_555
Zn1 O1_2 1_555 1_555
O1_2 C15_2 1_555 1_555
O2_2 C15_2 1_555 1_555
O3_2 C19_2 1_555 1_555
N3 Zn1 1_555 1_555
H11 C11 1_555 1_555
C12 N3 1_555 1_555
H12 C12 1_555 1_555
H13 C13 1_555 1_555
H14 C13 1_555 1_555
C15_2 C16_2 1_555 1_555
C16_2 C17_2 1_555 1_555
C17_2 H17_2 1_555 1_555
C18_2 C17_2 1_555 1_555
H18_2 C18_2 1_555 1_555
C19_2 C18_2 1_555 1_555
C20_2 C19_2 1_555 1_555
H19_2 C20_2 1_555 1_555
C21_2 C16_2 1_555 1_555
H20_2 C21_2 1_555 1_555
C22_2 O3_2 1_555 1_555
C23_2 C22_2 1_555 1_555
H21_2 C23_2 1_555 1_555
C27_2 C22_2 1_555 1_555
H24_2 C27_2 1_555 1_555
C11 C12 1_555 1_555
C20_2 C21_2 1_555 1_555
C26_2 C27_2 1_555 1_555
O4 C28 1_555 1_555
O5 C28 1_555 1_555
H22 C24 1_555 1_555
C25 C24 1_555 1_555
C28 C25 1_555 1_555
Zn5 O4 1_555 1_555
C33 N5 1_555 1_555
H28 C33 1_555 1_555
Zn2 N5 1_555 1_555
O6 Zn2 1_555 1_555
O7 C43 1_555 1_555
C43 O6 1_555 1_555
C44 C43 1_555 1_555
C45 C44 1_555 1_555
H41 C45 1_555 1_555
O11 Zn2 1_555 1_555
N9 Zn2 1_555 1_555
N4_2 C10_2 1_555 1_555
C8_2 N9 1_555 1_555
H9_2 C8_2 1_555 1_555
C9_2 C8_2 1_555 1_555
H10_2 C9_2 1_555 1_555
C10_2 C9_2 1_555 1_555
C11_2 C10_2 1_555 1_555
H11_2 C11_2 1_555 1_555
C12_2 N9 1_555 1_555
H12_2 C12_2 1_555 1_555
C13_2 N4_2 1_555 1_555
H13_2 C13_2 1_555 1_555
H14_2 C13_2 1_555 1_555
C14_2 N4_2 1_555 1_555
H15_2 C14_2 1_555 1_555
H16_2 C14_2 1_555 1_555
N7_2 C36_2 1_555 1_555
N8_2 C38_2 1_555 1_555
C36_2 H33_2 1_555 1_555
C37_2 C36_2 1_555 1_555
H34_2 C37_2 1_555 1_555
C38_2 C37_2 1_555 1_555
C39_2 C38_2 1_555 1_555
H35_2 C39_2 1_555 1_555
C40_2 N7_2 1_555 1_555
H36_2 C40_2 1_555 1_555
C41_2 C14_2 1_555 1_555
H37_2 C41_2 1_555 1_555
H38_2 C41_2 1_555 1_555
C42_2 C13_2 1_555 1_555
H39_2 C42_2 1_555 1_555
H40_2 C42_2 1_555 1_555
Zn5 N7_2 1_555 1_555
C11_2 C12_2 1_555 1_555
N8_2 C41_2 1_555 1_555
N8_2 C42_2 1_555 1_555
C39_2 C40_2 1_555 1_555
C33_2 N5_2 1_555 1_555
H28_2 C33_2 1_555 1_555
Zn5 N5_2 1_555 1_555
O6_2 Zn5 1_555 1_555
O7_2 C43_2 1_555 1_555
C43_2 O6_2 1_555 1_555
C44_2 C43_2 1_555 1_555
C45_2 C44_2 1_555 1_555
H41_2 C45_2 1_555 1_555
O11 C28_2 1_555 1_555
O5_2 C28_2 1_555 1_555
H22_2 C24_2 1_555 1_555
C25_2 C24_2 1_555 1_555
C28_2 C25_2 1_555 1_555
O6_3 Zn2_2 1_555 1_555
O7_3 C43_3 1_555 1_555
C43_3 O6_3 1_555 1_555
C44_3 C43_3 1_555 1_555
C45_3 C44_3 1_555 1_555
H41_3 C45_3 1_555 1_555
N9_2 Zn2_2 1_555 1_555
H11_3 C11_3 1_555 1_555
C12_3 N9_2 1_555 1_555
H12_3 C12_3 1_555 1_555
C11_3 C12_3 1_555 1_555
C33_3 N5_3 1_555 1_555
H28_3 C33_3 1_555 1_555
O8_3 C47_3 1_555 1_555
O9_2 C56_3 1_555 1_555
O10_3 C56_3 1_555 1_555
H42_3 C46_3 1_555 1_555
C47_3 C46_3 1_555 1_555
C48_3 C47_3 1_555 1_555
H43_3 C48_3 1_555 1_555
H44_3 C49_3 1_555 1_555
C50_3 O8_3 1_555 1_555
C51_3 C50_3 1_555 1_555
H45_3 C51_3 1_555 1_555
C52_3 C51_3 1_555 1_555
H46_3 C52_3 1_555 1_555
C53_3 C52_3 1_555 1_555
C54_3 C53_3 1_555 1_555
H47_3 C54_3 1_555 1_555
C55_3 C50_3 1_555 1_555
H48_3 C55_3 1_555 1_555
C56_3 C53_3 1_555 1_555
Zn3 O9_2 1_555 1_555
C48_3 C49_3 1_555 1_555
C54_3 C55_3 1_555 1_555
N7_3 C36_3 1_555 1_555
N8_3 C38_3 1_555 1_555
C36_3 H33_3 1_555 1_555
C37_3 C36_3 1_555 1_555
H34_3 C37_3 1_555 1_555
C38_3 C37_3 1_555 1_555
C39_3 C38_3 1_555 1_555
H35_3 C39_3 1_555 1_555
C40_3 N7_3 1_555 1_555
H36_3 C40_3 1_555 1_555
H39_3 C42_3 1_555 1_555
H40_3 C42_3 1_555 1_555
Zn3 N7_3 1_555 1_555
N8_3 C42_3 1_555 1_555
C39_3 C40_3 1_555 1_555
N4_3 C10_3 1_555 1_555
H9_3 C8_3 1_555 1_555
C9_3 C8_3 1_555 1_555
H10_3 C9_3 1_555 1_555
C10_3 C9_3 1_555 1_555
C14_3 N4_3 1_555 1_555
H15_3 C14_3 1_555 1_555
H16_3 C14_3 1_555 1_555
C41_3 C14_3 1_555 1_555
H38_3 C41_3 1_555 1_555
Zn3 O1_3 1_555 1_555
O1_3 C15_3 1_555 1_555
O2_3 C15_3 1_555 1_555
O3_3 C19_3 1_555 1_555
O11_2 C28_3 1_555 1_555
N1_3 Zn3 1_555 1_555
N2_3 C3_3 1_555 1_555
C1_3 N1_3 1_555 1_555
H1_3 C1_3 1_555 1_555
C2_3 C1_3 1_555 1_555
H2_3 C2_3 1_555 1_555
C3_3 C2_3 1_555 1_555
C4_3 C3_3 1_555 1_555
H3_3 C4_3 1_555 1_555
C5_3 N1_3 1_555 1_555
H4_3 C5_3 1_555 1_555
C6_3 N2_3 1_555 1_555
H5_3 C6_3 1_555 1_555
H6_3 C6_3 1_555 1_555
C7_3 N2_3 1_555 1_555
H7_3 C7_3 1_555 1_555
H8_3 C7_3 1_555 1_555
C15_3 C16_3 1_555 1_555
C16_3 C17_3 1_555 1_555
C17_3 H17_3 1_555 1_555
C18_3 C17_3 1_555 1_555
H18_3 C18_3 1_555 1_555
C19_3 C18_3 1_555 1_555
C20_3 C19_3 1_555 1_555
H19_3 C20_3 1_555 1_555
C21_3 C16_3 1_555 1_555
H20_3 C21_3 1_555 1_555
C22_3 O3_3 1_555 1_555
C23_3 C22_3 1_555 1_555
H21_3 C23_3 1_555 1_555
C24_3 C23_3 1_555 1_555
H22_3 C24_3 1_555 1_555
C25_3 C24_3 1_555 1_555
C26_3 C25_3 1_555 1_555
C27_3 C22_3 1_555 1_555
H24_3 C27_3 1_555 1_555
C28_3 C25_3 1_555 1_555
N6_3 C31_3 1_555 1_555
C29_3 H25_3 1_555 1_555
C30_3 C29_3 1_555 1_555
H26_3 C30_3 1_555 1_555
C31_3 C30_3 1_555 1_555
C32_3 C31_3 1_555 1_555
H27_3 C32_3 1_555 1_555
C34_3 C6_3 1_555 1_555
H29_3 C34_3 1_555 1_555
H30_3 C34_3 1_555 1_555
C35_3 C7_3 1_555 1_555
H31_3 C35_3 1_555 1_555
H32_3 C35_3 1_555 1_555
C4_3 C5_3 1_555 1_555
C20_3 C21_3 1_555 1_555
C26_3 C27_3 1_555 1_555
N6_3 C34_3 1_555 1_555
N6_3 C35_3 1_555 1_555
Zn1_2 O1_4 1_555 1_555
O1_4 C15_4 1_555 1_555
O2_4 C15_4 1_555 1_555
O3_4 C19_4 1_555 1_555
O4_2 C28_4 1_555 1_555
N1_4 Zn1_2 1_555 1_555
N2_4 C3_4 1_555 1_555
N3_2 Zn1_2 1_555 1_555
N4_4 C10_4 1_555 1_555
C1_4 N1_4 1_555 1_555
H1_4 C1_4 1_555 1_555
C2_4 C1_4 1_555 1_555
H2_4 C2_4 1_555 1_555
C3_4 C2_4 1_555 1_555
C4_4 C3_4 1_555 1_555
H3_4 C4_4 1_555 1_555
C5_4 N1_4 1_555 1_555
H4_4 C5_4 1_555 1_555
C6_4 N2_4 1_555 1_555
H5_4 C6_4 1_555 1_555
H6_4 C6_4 1_555 1_555
C7_4 N2_4 1_555 1_555
H7_4 C7_4 1_555 1_555
H8_4 C7_4 1_555 1_555
C8_4 N3_2 1_555 1_555
H9_4 C8_4 1_555 1_555
C9_4 C8_4 1_555 1_555
H10_4 C9_4 1_555 1_555
C10_4 C9_4 1_555 1_555
C11_4 C10_4 1_555 1_555
H11_4 C11_4 1_555 1_555
C12_4 N3_2 1_555 1_555
H12_4 C12_4 1_555 1_555
C14_4 N4_4 1_555 1_555
H15_4 C14_4 1_555 1_555
H16_4 C14_4 1_555 1_555
C15_4 C16_4 1_555 1_555
C16_4 C17_4 1_555 1_555
C17_4 H17_4 1_555 1_555
C18_4 C17_4 1_555 1_555
H18_4 C18_4 1_555 1_555
C19_4 C18_4 1_555 1_555
C20_4 C19_4 1_555 1_555
H19_4 C20_4 1_555 1_555
C21_4 C16_4 1_555 1_555
H20_4 C21_4 1_555 1_555
C22_4 O3_4 1_555 1_555
C23_4 C22_4 1_555 1_555
H21_4 C23_4 1_555 1_555
C24_4 C23_4 1_555 1_555
H22_4 C24_4 1_555 1_555
C25_4 C24_4 1_555 1_555
C26_4 C25_4 1_555 1_555
C27_4 C22_4 1_555 1_555
H24_4 C27_4 1_555 1_555
C28_4 C25_4 1_555 1_555
N6_4 C31_4 1_555 1_555
C29_4 H25_4 1_555 1_555
C30_4 C29_4 1_555 1_555
H26_4 C30_4 1_555 1_555
C31_4 C30_4 1_555 1_555
C32_4 C31_4 1_555 1_555
H27_4 C32_4 1_555 1_555
C34_4 C6_4 1_555 1_555
H29_4 C34_4 1_555 1_555
H30_4 C34_4 1_555 1_555
C35_4 C7_4 1_555 1_555
H31_4 C35_4 1_555 1_555
H32_4 C35_4 1_555 1_555
O12_2 Zn1_2 1_555 1_555
C4_4 C5_4 1_555 1_555
C11_4 C12_4 1_555 1_555
C20_4 C21_4 1_555 1_555
C26_4 C27_4 1_555 1_555
N6_4 C34_4 1_555 1_555
N6_4 C35_4 1_555 1_555
H14_3 C13_3 1_555 1_555
N8_4 C38_4 1_555 1_555
C36_4 H33_4 1_555 1_555
C37_4 C36_4 1_555 1_555
H34_4 C37_4 1_555 1_555
C38_4 C37_4 1_555 1_555
C42_4 C13_3 1_555 1_555
H39_4 C42_4 1_555 1_555
H40_4 C42_4 1_555 1_555
N8_4 C42_4 1_555 1_555
O8_4 C47_4 1_555 1_555
O12_2 C56_4 1_555 1_555
O10_4 C56_4 1_555 1_555
H42_4 C46_4 1_555 1_555
C47_4 C46_4 1_555 1_555
C48_4 C47_4 1_555 1_555
H43_4 C48_4 1_555 1_555
H44_4 C49_4 1_555 1_555
C50_4 O8_4 1_555 1_555
C51_4 C50_4 1_555 1_555
H45_4 C51_4 1_555 1_555
C52_4 C51_4 1_555 1_555
H46_4 C52_4 1_555 1_555
C53_4 C52_4 1_555 1_555
C54_4 C53_4 1_555 1_555
H47_4 C54_4 1_555 1_555
C55_4 C50_4 1_555 1_555
H48_4 C55_4 1_555 1_555
C56_4 C53_4 1_555 1_555
C48_4 C49_4 1_555 1_555
C54_4 C55_4 1_555 1_555
C33_4 N5_4 1_555 1_555
H28_4 C33_4 1_555 1_555
H14_4 C13_4 1_555 1_555
H35_4 C39_4 1_555 1_555
C40_4 N7_4 1_555 1_555
H36_4 C40_4 1_555 1_555
Zn5_2 N7_4 1_555 1_555
C39_4 C40_4 1_555 1_555
O6_4 Zn5_2 1_555 1_555
O7_4 C43_4 1_555 1_555
C43_4 O6_4 1_555 1_555
C44_4 C43_4 1_555 1_555
C45_4 C44_4 1_555 1_555
H41_4 C45_4 1_555 1_555
H38_4 C41_4 1_555 1_555

#END
