
###############################################################################
#
# This file contains modified crystal structure data generated from the
# MOF subset of the Cambridge Structural Database (CSD) v543 
# hosted by the Cambridge Crystallographic Data Centre (CCDC).
#
# This work is licensed under the Creative Commons
# Attribution-NonCommercial-ShareAlike 4.0 International License.
# To view a copy of this license, visit
# http://creativecommons.org/licenses/by-nc-sa/4.0/
# or send a letter to
# Creative Commons, PO Box 1866, Mountain View, CA 94042, USA.
#
# CIF created using the CSD Python API on 29 September 2022
# The structure has been converted into the P1 space group
# The structure has a 3D framework
# The original CSD entry BUQRUD is in the orthorhombic crystal system
# The framework has been calculated to contain at least 10.0% void space
# The void calculation uses a probe of radius 1.32A, grid spacing 0.4
#
###############################################################################

data_BUQRUD
_chemical_formula_moiety         '(C224 H192 N32 O40 Zn8)n'
_symmetry_cell_setting           triclinic
_symmetry_space_group_name_H-M   'P 1'
_symmetry_Int_Tables_number      1
_space_group_name_Hall           'P 1'
loop_
_symmetry_equiv_pos_site_id
_symmetry_equiv_pos_as_xyz
1 x,y,z
_cell_length_a                   14.505(16)
_cell_length_b                   19.147(19)
_cell_length_c                   19.93(2)
_cell_angle_alpha                90
_cell_angle_beta                 90
_cell_angle_gamma                90
_cell_volume                     5535.1
loop_
_atom_site_label
_atom_site_type_symbol
_atom_site_fract_x
_atom_site_fract_y
_atom_site_fract_z
C39 C 0.13063(17) 0.04677(13) 0.84496(13)
H35 H 0.0857 0.0829 0.8448
C40 C 0.19197(17) 0.04224(13) 0.79355(13)
H36 H 0.1867 0.0749 0.7579
C41 C 0.01267(17) 0.06153(13) 0.96135(13)
H37 H 0.0460 0.0931 0.9923
H38 H 0.0028 0.0869 0.9186
N1 N 0.54745(14) 0.93749(11) 0.28303(11)
N2 N 0.32897(15) 0.79539(11) 0.27736(11)
C1 C 0.53295(17) 0.89115(13) 0.33264(13)
H1 H 0.5746 0.8911 0.3694
C2 C 0.46216(17) 0.84421(13) 0.33344(13)
H2 H 0.4547 0.8136 0.3706
C3 C 0.40025(17) 0.84128(13) 0.27906(13)
C4 C 0.41484(17) 0.88982(13) 0.22759(13)
H3 H 0.3753 0.8906 0.1896
C5 C 0.48647(17) 0.93617(13) 0.23235(13)
H4 H 0.4935 0.9696 0.1975
C6 C 0.27363(17) 0.78537(13) 0.21705(13)
H5 H 0.3137 0.7892 0.1770
H6 H 0.2265 0.8226 0.2143
C7 C 0.30137(17) 0.75646(14) 0.33640(13)
H7 H 0.3186 0.7829 0.3772
H8 H 0.3343 0.7112 0.3374
C11 C 0.86937(17) 0.95323(13) 0.15504(13)
H11 H 0.9143 0.9171 0.1552
C12 C 0.80803(17) 0.95776(13) 0.20645(13)
H12 H 0.8133 0.9251 0.2421
C13 C 0.98733(17) 0.93847(13) 0.03865(13)
H13 H 0.9540 0.9069 0.0077
H14 H 0.9972 0.9131 0.0814
N6 N 0.17103(15) 0.70461(11) 0.27736(11)
C30 C 0.03784(17) 0.65579(13) 0.33344(13)
H26 H 0.0453 0.6864 0.3706
C31 C 0.09975(17) 0.65872(13) 0.27906(13)
C32 C 0.08516(17) 0.61018(13) 0.22759(13)
H27 H 0.1247 0.6094 0.1896
C33 C 0.01353(17) 0.56383(13) 0.23235(13)
H28 H 0.0065 0.5304 0.1975
C34 C 0.22637(17) 0.71463(13) 0.21705(13)
H29 H 0.1863 0.7108 0.1770
H30 H 0.2735 0.6774 0.2143
C35 C 0.19863(17) 0.74354(14) 0.33640(13)
H31 H 0.1814 0.7171 0.3772
H32 H 0.1657 0.7888 0.3374
O8 O 0.17308(17) 0.15211(12) 0.34896(10)
O9 O 0.28326(12) 0.04377(10) 0.63675(9)
C44 C 0.00113(17) 0.31409(13) 0.29283(13)
C45 C 0.06876(18) 0.28761(14) 0.25034(13)
H41 H 0.0762 0.3071 0.2068
C46 C 0.12488(19) 0.23365(14) 0.27034(13)
H42 H 0.1705 0.2157 0.2408
C47 C 0.1144(2) 0.20576(14) 0.33373(14)
C48 C 0.04783(19) 0.23108(14) 0.37692(14)
H43 H 0.0412 0.2119 0.4206
C50 C 0.1761(2) 0.12556(16) 0.41388(14)
C51 C 0.2428(2) 0.14949(16) 0.45697(15)
H45 H 0.2808 0.1878 0.4446
C52 C 0.2543(2) 0.11731(15) 0.51881(14)
H46 H 0.2996 0.1342 0.5492
C53 C 0.20008(18) 0.06068(14) 0.53656(13)
C54 C 0.1322(2) 0.03862(16) 0.49273(15)
H47 H 0.0936 0.0006 0.5049
C55 C 0.1196(2) 0.07102(17) 0.43151(15)
H48 H 0.0724 0.0558 0.4019
C56 C 0.21825(18) 0.02005(14) 0.60013(14)
O12 O 0.71674(12) 0.95623(10) 0.36325(9)
N1_2 N 0.45255(14) 0.06251(11) 0.71697(11)
N2_2 N 0.67103(15) 0.20461(11) 0.72264(11)
C1_2 C 0.46705(17) 0.10885(13) 0.66736(13)
H1_2 H 0.4254 0.1089 0.6306
C2_2 C 0.53784(17) 0.15579(13) 0.66656(13)
H2_2 H 0.5453 0.1864 0.6294
C3_2 C 0.59975(17) 0.15872(13) 0.72094(13)
C4_2 C 0.58516(17) 0.11018(13) 0.77241(13)
H3_2 H 0.6247 0.1094 0.8104
C5_2 C 0.51353(17) 0.06383(13) 0.76765(13)
H4_2 H 0.5065 0.0304 0.8025
C6_2 C 0.72637(17) 0.21463(13) 0.78295(13)
H5_2 H 0.6863 0.2108 0.8230
H6_2 H 0.7735 0.1774 0.7857
C7_2 C 0.69863(17) 0.24354(14) 0.66360(13)
H7_2 H 0.6814 0.2171 0.6228
H8_2 H 0.6657 0.2888 0.6626
N6_2 N 0.82897(15) 0.29539(11) 0.72264(11)
C30_2 C 0.96216(17) 0.34421(13) 0.66656(13)
H26_2 H 0.9547 0.3136 0.6294
C31_2 C 0.90025(17) 0.34128(13) 0.72094(13)
C32_2 C 0.91484(17) 0.38982(13) 0.77241(13)
H27_2 H 0.8753 0.3906 0.8104
C33_2 C 0.98647(17) 0.43617(13) 0.76765(13)
H28_2 H 0.9935 0.4696 0.8025
C34_2 C 0.77363(17) 0.28537(13) 0.78295(13)
H29_2 H 0.8137 0.2892 0.8230
H30_2 H 0.7265 0.3226 0.7857
C35_2 C 0.80137(17) 0.25646(14) 0.66360(13)
H31_2 H 0.8186 0.2829 0.6228
H32_2 H 0.8343 0.2112 0.6626
O8_2 O 0.82692(17) 0.84789(12) 0.65104(10)
C44_2 C 0.99887(17) 0.68591(13) 0.70717(13)
C45_2 C 0.93124(18) 0.71239(14) 0.74966(13)
H41_2 H 0.9238 0.6929 0.7932
C46_2 C 0.87512(19) 0.76635(14) 0.72966(13)
H42_2 H 0.8295 0.7843 0.7592
C47_2 C 0.8856(2) 0.79424(14) 0.66627(14)
C48_2 C 0.95217(19) 0.76892(14) 0.62308(14)
H43_2 H 0.9588 0.7881 0.5794
C50_2 C 0.8239(2) 0.87444(16) 0.58612(14)
C51_2 C 0.7572(2) 0.85051(16) 0.54303(15)
H45_2 H 0.7192 0.8122 0.5554
C52_2 C 0.7457(2) 0.88269(15) 0.48119(14)
H46_2 H 0.7004 0.8658 0.4508
C53_2 C 0.79992(18) 0.93932(14) 0.46344(13)
C54_2 C 0.8678(2) 0.96138(16) 0.50727(15)
H47_2 H 0.9064 0.9994 0.4951
C55_2 C 0.8804(2) 0.92898(17) 0.56849(15)
H48_2 H 0.9276 0.9442 0.5981
C56_2 C 0.78175(18) 0.97995(14) 0.39987(14)
C42 C 0.07969(17) 0.95713(14) 0.00850(13)
H40 H 0.1168 0.9829 0.0420
N7 N 0.25947(14) 0.99448(10) 0.79012(10)
N8 N 0.06912(14) 0.99979(11) 0.94863(10)
C36 C 0.26346(17) 0.94929(13) 0.84156(13)
H33 H 0.3111 0.9152 0.8411
C37 C 0.20350(17) 0.94909(13) 0.89448(13)
H34 H 0.2097 0.9151 0.9289
C38 C 0.13267(16) 0.99901(13) 0.89825(12)
H39 H 0.1133 0.9138 0.9969
Zn4 Zn 0.34491(2) 0.99499(2) 0.71096(2)
O10 O 0.17368(18) 0.96788(13) 0.61136(12)
N5 N 0.95255(14) 0.56251(11) 0.28303(11)
C29 C 0.96705(17) 0.60885(13) 0.33264(13)
H25 H 0.9254 0.6089 0.3694
Zn2 Zn 0.84491(2) 0.49499(2) 0.28904(2)
O6 O 0.89521(12) 0.40448(9) 0.31662(9)
O7 O 0.95120(13) 0.39759(10) 0.21279(10)
C43 C 0.94550(17) 0.37610(13) 0.27103(13)
C49 C 0.99094(17) 0.28474(13) 0.35582(13)
H44 H 0.9442 0.3017 0.3850
O11 O 0.78326(12) 0.54377(10) 0.36325(9)
N9 N 0.75947(14) 0.49448(10) 0.20988(10)
N4 N 0.56912(14) 0.49979(11) 0.05137(10)
C8 C 0.76346(17) 0.44929(13) 0.15844(13)
H9 H 0.8111 0.4152 0.1589
C9 C 0.70350(17) 0.44909(13) 0.10552(13)
H10 H 0.7097 0.4151 0.0711
C10 C 0.63267(16) 0.49901(13) 0.10175(12)
C11_2 C 0.63063(17) 0.54677(13) 0.15504(13)
H11_2 H 0.5857 0.5829 0.1552
C12_2 C 0.69197(17) 0.54224(13) 0.20645(13)
H12_2 H 0.6867 0.5749 0.2421
C13_2 C 0.51267(17) 0.56153(13) 0.03865(13)
H13_2 H 0.5460 0.5931 0.0077
H14_2 H 0.5028 0.5869 0.0814
H15 H 0.6133 0.4138 0.0031
C42_2 C 0.42031(17) 0.54287(14) 0.00850(13)
H40_2 H 0.3832 0.5171 0.0420
O1 O 0.39521(12) 0.90448(9) 0.68338(9)
O2 O 0.45120(13) 0.89759(10) 0.78721(10)
O3 O 0.67308(17) 0.65211(12) 0.65104(10)
O5 O 0.67368(18) 0.46788(13) 0.38864(12)
C15 C 0.44550(17) 0.87610(13) 0.72897(13)
C16 C 0.50113(17) 0.81409(13) 0.70717(13)
C17 C 0.56876(18) 0.78761(14) 0.74966(13)
H17 H 0.5762 0.8071 0.7932
C18 C 0.62488(19) 0.73365(14) 0.72966(13)
H18 H 0.6705 0.7157 0.7592
C19 C 0.6144(2) 0.70576(14) 0.66627(14)
C20 C 0.54783(19) 0.73108(14) 0.62308(14)
H19 H 0.5412 0.7119 0.5794
C21 C 0.49094(17) 0.78474(13) 0.64418(13)
H20 H 0.4442 0.8017 0.6150
C22 C 0.6761(2) 0.62556(16) 0.58612(14)
C23 C 0.7428(2) 0.64949(16) 0.54303(15)
H21 H 0.7808 0.6878 0.5554
C24 C 0.7543(2) 0.61731(15) 0.48119(14)
H22 H 0.7996 0.6342 0.4508
C25 C 0.70008(18) 0.56068(14) 0.46344(13)
C26 C 0.6322(2) 0.53862(16) 0.50727(15)
H23 H 0.5936 0.5006 0.4951
C27 C 0.6196(2) 0.57102(17) 0.56849(15)
H24 H 0.5724 0.5558 0.5981
C28 C 0.71825(18) 0.52005(14) 0.39987(14)
Zn1 Zn 0.65509(2) 0.00501(2) 0.28904(2)
O1_2 O 0.60479(12) 0.09552(9) 0.31662(9)
O2_2 O 0.54880(13) 0.10241(10) 0.21279(10)
O3_2 O 0.32692(17) 0.34789(12) 0.34896(10)
O4 O 0.21674(12) 0.45623(10) 0.63675(9)
O5_2 O 0.32632(18) 0.53212(13) 0.61136(12)
N3 N 0.74053(14) 0.00552(10) 0.20988(10)
N4_2 N 0.93088(14) 0.00021(11) 0.05137(10)
C8_2 C 0.73654(17) 0.05071(13) 0.15844(13)
H9_2 H 0.6889 0.0848 0.1589
C9_2 C 0.79650(17) 0.05091(13) 0.10552(13)
H10_2 H 0.7903 0.0849 0.0711
C10_2 C 0.86733(16) 0.00099(13) 0.10175(12)
H15_2 H 0.8867 0.0862 0.0031
C15_2 C 0.55450(17) 0.12390(13) 0.27103(13)
C16_2 C 0.49887(17) 0.18591(13) 0.29283(13)
C17_2 C 0.43124(18) 0.21239(14) 0.25034(13)
H17_2 H 0.4238 0.1929 0.2068
C18_2 C 0.37512(19) 0.26635(14) 0.27034(13)
H18_2 H 0.3295 0.2843 0.2408
C19_2 C 0.3856(2) 0.29424(14) 0.33373(14)
C20_2 C 0.45217(19) 0.26892(14) 0.37692(14)
H19_2 H 0.4588 0.2881 0.4206
C21_2 C 0.50906(17) 0.21526(13) 0.35582(13)
H20_2 H 0.5558 0.1983 0.3850
C22_2 C 0.3239(2) 0.37444(16) 0.41388(14)
C23_2 C 0.2572(2) 0.35051(16) 0.45697(15)
H21_2 H 0.2192 0.3122 0.4446
C24_2 C 0.2457(2) 0.38269(15) 0.51881(14)
H22_2 H 0.2004 0.3658 0.5492
C25_2 C 0.29992(18) 0.43932(14) 0.53656(13)
C26_2 C 0.3678(2) 0.46138(16) 0.49273(15)
H23_2 H 0.4064 0.4994 0.5049
C27_2 C 0.3804(2) 0.42898(17) 0.43151(15)
H24_2 H 0.4276 0.4442 0.4019
C28_2 C 0.28175(18) 0.47995(14) 0.60013(14)
Zn5 Zn 0.15509(2) 0.50501(2) 0.71096(2)
C14 C 0.57969(17) 0.45713(14) 0.99150(13)
H16 H 0.6168 0.4829 0.9580
N7_2 N 0.24053(14) 0.50552(10) 0.79012(10)
N8_2 N 0.43088(14) 0.50021(11) 0.94863(10)
C36_2 C 0.23654(17) 0.55071(13) 0.84156(13)
H33_2 H 0.1889 0.5848 0.8411
C37_2 C 0.29650(17) 0.55091(13) 0.89448(13)
H34_2 H 0.2903 0.5849 0.9289
C38_2 C 0.36733(16) 0.50099(13) 0.89825(12)
C39_2 C 0.36937(17) 0.45323(13) 0.84496(13)
H35_2 H 0.4143 0.4171 0.8448
C40_2 C 0.30803(17) 0.45776(13) 0.79355(13)
H36_2 H 0.3133 0.4251 0.7579
C41_2 C 0.48733(17) 0.43847(13) 0.96135(13)
H37_2 H 0.4540 0.4069 0.9923
H38_2 H 0.4972 0.4131 0.9186
H39_2 H 0.3867 0.5862 0.9969
N5_2 N 0.04745(14) 0.43749(11) 0.71697(11)
C29_2 C 0.03295(17) 0.39115(13) 0.66736(13)
H25_2 H 0.0746 0.3911 0.6306
O6_2 O 0.10479(12) 0.59552(9) 0.68338(9)
O7_2 O 0.04880(13) 0.60241(10) 0.78721(10)
C43_2 C 0.05450(17) 0.62390(13) 0.72897(13)
C49_2 C 0.00906(17) 0.71526(13) 0.64418(13)
H44_2 H 0.0558 0.6983 0.6150
O10_2 O 0.82632(18) 0.03212(13) 0.38864(12)
C14_2 C 0.92031(17) 0.04287(14) 0.99150(13)
H16_2 H 0.8832 0.0171 0.9580
N5_3 N 0.04745(14) 0.06251(11) 0.21697(11)
C29_3 C 0.03295(17) 0.10885(13) 0.16736(13)
H25_3 H 0.0746 0.1089 0.1306
O11_2 O 0.21674(12) 0.04377(10) 0.13675(9)
O5_3 O 0.67368(18) 0.03212(13) 0.88864(12)
Zn5_2 Zn 0.84491(2) 0.00501(2) 0.78904(2)
C11_3 C 0.36937(17) 0.04677(13) 0.34496(13)
H11_3 H 0.4143 0.0829 0.3448
C12_3 C 0.30803(17) 0.04224(13) 0.29355(13)
H12_3 H 0.3133 0.0749 0.2579
C13_3 C 0.48733(17) 0.06153(13) 0.46135(13)
H13_3 H 0.4540 0.0931 0.4923
H14_3 H 0.4972 0.0869 0.4186
N7_3 N 0.75947(14) 0.00552(10) 0.70988(10)
N8_3 N 0.56912(14) 0.00021(11) 0.55137(10)
C36_3 C 0.76346(17) 0.05071(13) 0.65844(13)
H33_3 H 0.8111 0.0848 0.6589
C37_3 C 0.70350(17) 0.05091(13) 0.60552(13)
H34_3 H 0.7097 0.0849 0.5711
C38_3 C 0.63267(16) 0.00099(13) 0.60175(12)
C42_3 C 0.57969(17) 0.04287(14) 0.49150(13)
H39_3 H 0.6133 0.0862 0.5031
H40_3 H 0.6168 0.0171 0.4580
C24_3 C 0.2457(2) 0.11731(15) 0.01881(14)
H22_3 H 0.2004 0.1342 0.0492
C25_3 C 0.29992(18) 0.06068(14) 0.03656(13)
H23_3 H 0.4064 0.0006 0.0049
C28_3 C 0.28175(18) 0.02005(14) 0.10013(14)
O6_3 O 0.89521(12) 0.09552(9) 0.81662(9)
O7_3 O 0.95120(13) 0.10241(10) 0.71279(10)
C43_3 C 0.94550(17) 0.12390(13) 0.77103(13)
C49_3 C 0.99094(17) 0.21526(13) 0.85582(13)
H44_3 H 0.9442 0.1983 0.8850
Zn2_2 Zn 0.15509(2) 0.99499(2) 0.21096(2)
O6_4 O 0.10479(12) 0.90448(9) 0.18338(9)
O7_4 O 0.04880(13) 0.89759(10) 0.28721(10)
C43_4 C 0.05450(17) 0.87610(13) 0.22897(13)
C49_4 C 0.00906(17) 0.78474(13) 0.14418(13)
H44_4 H 0.0558 0.8017 0.1150
N9_2 N 0.24053(14) 0.99448(10) 0.29012(10)
O4_2 O 0.78326(12) 0.95623(10) 0.86325(9)
C24_4 C 0.7543(2) 0.88269(15) 0.98119(14)
H22_4 H 0.7996 0.8658 0.9508
C25_4 C 0.70008(18) 0.93932(14) 0.96344(13)
H23_4 H 0.5936 0.9994 0.9951
C28_4 C 0.71825(18) 0.97995(14) 0.89987(14)
N4_3 N 0.43088(14) 0.99979(11) 0.44863(10)
C8_3 C 0.23654(17) 0.94929(13) 0.34156(13)
H9_3 H 0.1889 0.9152 0.3411
C9_3 C 0.29650(17) 0.94909(13) 0.39448(13)
H10_3 H 0.2903 0.9151 0.4289
C10_3 C 0.36733(16) 0.99901(13) 0.39825(12)
C14_3 C 0.42031(17) 0.95713(14) 0.50850(13)
H15_3 H 0.3867 0.9138 0.4969
H16_3 H 0.3832 0.9829 0.5420
C39_3 C 0.63063(17) 0.95323(13) 0.65504(13)
H35_3 H 0.5857 0.9171 0.6552
C40_3 C 0.69197(17) 0.95776(13) 0.70645(13)
H36_3 H 0.6867 0.9251 0.7421
C41_3 C 0.51267(17) 0.93847(13) 0.53865(13)
H37_3 H 0.5460 0.9069 0.5077
H38_3 H 0.5028 0.9131 0.5814
O5_4 O 0.32632(18) 0.96788(13) 0.11136(12)
N5_4 N 0.95255(14) 0.93749(11) 0.78303(11)
C29_4 C 0.96705(17) 0.89115(13) 0.83264(13)
H25_4 H 0.9254 0.8911 0.8694
Zn1_2 Zn 0.34491(2) 0.50501(2) 0.21096(2)
O1_3 O 0.39521(12) 0.59552(9) 0.18338(9)
O2_3 O 0.45120(13) 0.60241(10) 0.28721(10)
O3_3 O 0.67308(17) 0.84789(12) 0.15104(10)
N1_3 N 0.45255(14) 0.43749(11) 0.21697(11)
N2_3 N 0.67103(15) 0.29539(11) 0.22264(11)
N3_2 N 0.25947(14) 0.50552(10) 0.29012(10)
N4_4 N 0.06912(14) 0.50021(11) 0.44863(10)
C1_3 C 0.46705(17) 0.39115(13) 0.16736(13)
H1_3 H 0.4254 0.3911 0.1306
C2_3 C 0.53784(17) 0.34421(13) 0.16656(13)
H2_3 H 0.5453 0.3136 0.1294
C3_3 C 0.59975(17) 0.34128(13) 0.22094(13)
C4_3 C 0.58516(17) 0.38982(13) 0.27241(13)
H3_3 H 0.6247 0.3906 0.3104
C5_3 C 0.51353(17) 0.43617(13) 0.26765(13)
H4_3 H 0.5065 0.4696 0.3025
C6_3 C 0.72637(17) 0.28537(13) 0.28295(13)
H5_3 H 0.6863 0.2892 0.3230
H6_3 H 0.7735 0.3226 0.2857
C7_3 C 0.69863(17) 0.25646(14) 0.16360(13)
H7_3 H 0.6814 0.2829 0.1228
H8_3 H 0.6657 0.2112 0.1626
C8_4 C 0.26346(17) 0.55071(13) 0.34156(13)
H9_4 H 0.3111 0.5848 0.3411
C9_4 C 0.20350(17) 0.55091(13) 0.39448(13)
H10_4 H 0.2097 0.5849 0.4289
C10_4 C 0.13267(16) 0.50099(13) 0.39825(12)
C11_4 C 0.13063(17) 0.45323(13) 0.34496(13)
H11_4 H 0.0857 0.4171 0.3448
C12_4 C 0.19197(17) 0.45776(13) 0.29355(13)
H12_4 H 0.1867 0.4251 0.2579
C13_4 C 0.01267(17) 0.43847(13) 0.46135(13)
H13_4 H 0.0460 0.4069 0.4923
H14_4 H 0.0028 0.4131 0.4186
C14_4 C 0.07969(17) 0.54287(14) 0.50850(13)
H15_4 H 0.1133 0.5862 0.4969
H16_4 H 0.1168 0.5171 0.5420
C15_3 C 0.44550(17) 0.62390(13) 0.22897(13)
C16_3 C 0.50113(17) 0.68591(13) 0.20717(13)
C17_3 C 0.56876(18) 0.71239(14) 0.24966(13)
H17_3 H 0.5762 0.6929 0.2932
C18_3 C 0.62488(19) 0.76635(14) 0.22966(13)
H18_3 H 0.6705 0.7843 0.2592
C19_3 C 0.6144(2) 0.79424(14) 0.16627(14)
C20_3 C 0.54783(19) 0.76892(14) 0.12308(14)
H19_3 H 0.5412 0.7881 0.0794
C21_3 C 0.49094(17) 0.71526(13) 0.14418(13)
H20_3 H 0.4442 0.6983 0.1150
C22_3 C 0.6761(2) 0.87444(16) 0.08612(14)
C23_3 C 0.7428(2) 0.85051(16) 0.04303(15)
H21_3 H 0.7808 0.8122 0.0554
C26_3 C 0.6322(2) 0.96138(16) 0.00727(15)
C27_3 C 0.6196(2) 0.92898(17) 0.06849(15)
H24_3 H 0.5724 0.9442 0.0981
N6_3 N 0.82897(15) 0.20461(11) 0.22264(11)
C30_3 C 0.96216(17) 0.15579(13) 0.16656(13)
H26_3 H 0.9547 0.1864 0.1294
C31_3 C 0.90025(17) 0.15872(13) 0.22094(13)
C32_3 C 0.91484(17) 0.11018(13) 0.27241(13)
H27_3 H 0.8753 0.1094 0.3104
C33_3 C 0.98647(17) 0.06383(13) 0.26765(13)
H28_3 H 0.9935 0.0304 0.3025
C34_3 C 0.77363(17) 0.21463(13) 0.28295(13)
H29_3 H 0.8137 0.2108 0.3230
H30_3 H 0.7265 0.1774 0.2857
C35_3 C 0.80137(17) 0.24354(14) 0.16360(13)
H31_3 H 0.8186 0.2171 0.1228
H32_3 H 0.8343 0.2888 0.1626
O12_2 O 0.28326(12) 0.45623(10) 0.13675(9)
O10_3 O 0.17368(18) 0.53212(13) 0.11136(12)
C52_3 C 0.2543(2) 0.38269(15) 0.01881(14)
H46_3 H 0.2996 0.3658 0.0492
C53_3 C 0.20008(18) 0.43932(14) 0.03656(13)
H47_3 H 0.0936 0.4994 0.0049
C56_3 C 0.21825(18) 0.47995(14) 0.10013(14)
O8_3 O 0.82692(17) 0.65211(12) 0.15104(10)
C44_3 C 0.99887(17) 0.81409(13) 0.20717(13)
C45_3 C 0.93124(18) 0.78761(14) 0.24966(13)
H41_3 H 0.9238 0.8071 0.2932
C46_3 C 0.87512(19) 0.73365(14) 0.22966(13)
H42_3 H 0.8295 0.7157 0.2592
C47_3 C 0.8856(2) 0.70576(14) 0.16627(14)
C48_3 C 0.95217(19) 0.73108(14) 0.12308(14)
H43_3 H 0.9588 0.7119 0.0794
C50_3 C 0.8239(2) 0.62556(16) 0.08612(14)
C51_3 C 0.7572(2) 0.64949(16) 0.04303(15)
H45_3 H 0.7192 0.6878 0.0554
C54_3 C 0.8678(2) 0.53862(16) 0.00727(15)
C55_3 C 0.8804(2) 0.57102(17) 0.06849(15)
H48_3 H 0.9276 0.5558 0.0981
O9_2 O 0.71674(12) 0.54377(10) 0.86325(9)
O10_4 O 0.82632(18) 0.46788(13) 0.88864(12)
C52_4 C 0.7457(2) 0.61731(15) 0.98119(14)
H46_4 H 0.7004 0.6342 0.9508
C53_4 C 0.79992(18) 0.56068(14) 0.96344(13)
H47_4 H 0.9064 0.5006 0.9951
C56_4 C 0.78175(18) 0.52005(14) 0.89987(14)
Zn3 Zn 0.65509(2) 0.49499(2) 0.78904(2)
N7_4 N 0.74053(14) 0.49448(10) 0.70988(10)
N8_4 N 0.93088(14) 0.49979(11) 0.55137(10)
C36_4 C 0.73654(17) 0.44929(13) 0.65844(13)
H33_4 H 0.6889 0.4152 0.6589
C37_4 C 0.79650(17) 0.44909(13) 0.60552(13)
H34_4 H 0.7903 0.4151 0.5711
C38_4 C 0.86733(16) 0.49901(13) 0.60175(12)
C39_4 C 0.86937(17) 0.54677(13) 0.65504(13)
H35_4 H 0.9143 0.5829 0.6552
C40_4 C 0.80803(17) 0.54224(13) 0.70645(13)
H36_4 H 0.8133 0.5749 0.7421
C41_4 C 0.98733(17) 0.56153(13) 0.53865(13)
H37_4 H 0.9540 0.5931 0.5077
H38_4 H 0.9972 0.5869 0.5814
C42_4 C 0.92031(17) 0.45713(14) 0.49150(13)
H39_4 H 0.8867 0.4138 0.5031
H40_4 H 0.8832 0.4829 0.4580
O1_4 O 0.60479(12) 0.40448(9) 0.81662(9)
O2_4 O 0.54880(13) 0.39759(10) 0.71279(10)
O3_4 O 0.32692(17) 0.15211(12) 0.84896(10)
N1_4 N 0.54745(14) 0.56251(11) 0.78303(11)
N2_4 N 0.32897(15) 0.70461(11) 0.77736(11)
C1_4 C 0.53295(17) 0.60885(13) 0.83264(13)
H1_4 H 0.5746 0.6089 0.8694
C2_4 C 0.46216(17) 0.65579(13) 0.83344(13)
H2_4 H 0.4547 0.6864 0.8706
C3_4 C 0.40025(17) 0.65872(13) 0.77906(13)
C4_4 C 0.41484(17) 0.61018(13) 0.72759(13)
H3_4 H 0.3753 0.6094 0.6896
C5_4 C 0.48647(17) 0.56383(13) 0.73235(13)
H4_4 H 0.4935 0.5304 0.6975
C6_4 C 0.27363(17) 0.71463(13) 0.71705(13)
H5_4 H 0.3137 0.7108 0.6770
H6_4 H 0.2265 0.6774 0.7143
C7_4 C 0.30137(17) 0.74354(14) 0.83640(13)
H7_4 H 0.3186 0.7171 0.8772
H8_4 H 0.3343 0.7888 0.8374
C15_4 C 0.55450(17) 0.37610(13) 0.77103(13)
C16_4 C 0.49887(17) 0.31409(13) 0.79283(13)
C17_4 C 0.43124(18) 0.28761(14) 0.75034(13)
H17_4 H 0.4238 0.3071 0.7068
C18_4 C 0.37512(19) 0.23365(14) 0.77034(13)
H18_4 H 0.3295 0.2157 0.7408
C19_4 C 0.3856(2) 0.20576(14) 0.83373(14)
C20_4 C 0.45217(19) 0.23108(14) 0.87692(14)
H19_4 H 0.4588 0.2119 0.9206
C21_4 C 0.50906(17) 0.28474(13) 0.85582(13)
H20_4 H 0.5558 0.3017 0.8850
C22_4 C 0.3239(2) 0.12556(16) 0.91388(14)
C23_4 C 0.2572(2) 0.14949(16) 0.95697(15)
H21_4 H 0.2192 0.1878 0.9446
C26_4 C 0.3678(2) 0.03862(16) 0.99273(15)
C27_4 C 0.3804(2) 0.07102(17) 0.93151(15)
H24_4 H 0.4276 0.0558 0.9019
N6_4 N 0.17103(15) 0.79539(11) 0.77736(11)
C30_4 C 0.03784(17) 0.84421(13) 0.83344(13)
H26_4 H 0.0453 0.8136 0.8706
C31_4 C 0.09975(17) 0.84128(13) 0.77906(13)
C32_4 C 0.08516(17) 0.88982(13) 0.72759(13)
H27_4 H 0.1247 0.8906 0.6896
C33_4 C 0.01353(17) 0.93617(13) 0.73235(13)
H28_4 H 0.0065 0.9696 0.6975
C34_4 C 0.22637(17) 0.78537(13) 0.71705(13)
H29_4 H 0.1863 0.7892 0.6770
H30_4 H 0.2735 0.8226 0.7143
C35_4 C 0.19863(17) 0.75646(14) 0.83640(13)
H31_4 H 0.1814 0.7829 0.8772
H32_4 H 0.1657 0.7112 0.8374
O8_4 O 0.17308(17) 0.34789(12) 0.84896(10)
C44_4 C 0.00113(17) 0.18591(13) 0.79283(13)
C45_4 C 0.06876(18) 0.21239(14) 0.75034(13)
H41_4 H 0.0762 0.1929 0.7068
C46_4 C 0.12488(19) 0.26635(14) 0.77034(13)
H42_4 H 0.1705 0.2843 0.7408
C47_4 C 0.1144(2) 0.29424(14) 0.83373(14)
C48_4 C 0.04783(19) 0.26892(14) 0.87692(14)
H43_4 H 0.0412 0.2881 0.9206
C50_4 C 0.1761(2) 0.37444(16) 0.91388(14)
C51_4 C 0.2428(2) 0.35051(16) 0.95697(15)
H45_4 H 0.2808 0.3122 0.9446
C54_4 C 0.1322(2) 0.46138(16) 0.99273(15)
C55_4 C 0.1196(2) 0.42898(17) 0.93151(15)
H48_4 H 0.0724 0.4442 0.9019
loop_
_geom_bond_atom_site_label_1
_geom_bond_atom_site_label_2
_geom_bond_site_symmetry_1
_geom_bond_site_symmetry_2
H35 C39 1_555 1_555
H36 C40 1_555 1_555
H37 C41 1_555 1_555
H38 C41 1_555 1_555
C39 C40 1_555 1_555
N2 C3 1_555 1_555
C1 N1 1_555 1_555
H1 C1 1_555 1_555
C2 C1 1_555 1_555
H2 C2 1_555 1_555
C3 C2 1_555 1_555
C4 C3 1_555 1_555
H3 C4 1_555 1_555
C5 N1 1_555 1_555
H4 C5 1_555 1_555
C6 N2 1_555 1_555
H5 C6 1_555 1_555
H6 C6 1_555 1_555
C7 N2 1_555 1_555
H7 C7 1_555 1_555
H8 C7 1_555 1_555
H11 C11 1_555 1_555
H12 C12 1_555 1_555
H13 C13 1_555 1_555
H14 C13 1_555 1_555
N6 C31 1_555 1_555
H26 C30 1_555 1_555
C31 C30 1_555 1_555
C32 C31 1_555 1_555
H27 C32 1_555 1_555
H28 C33 1_555 1_555
C34 C6 1_555 1_555
H29 C34 1_555 1_555
H30 C34 1_555 1_555
C35 C7 1_555 1_555
H31 C35 1_555 1_555
H32 C35 1_555 1_555
O8 C47 1_555 1_555
O9 C56 1_555 1_555
C45 C44 1_555 1_555
H41 C45 1_555 1_555
C46 C45 1_555 1_555
H42 C46 1_555 1_555
C47 C46 1_555 1_555
C48 C47 1_555 1_555
H43 C48 1_555 1_555
C50 O8 1_555 1_555
C51 C50 1_555 1_555
H45 C51 1_555 1_555
C52 C51 1_555 1_555
H46 C52 1_555 1_555
C53 C52 1_555 1_555
C54 C53 1_555 1_555
H47 C54 1_555 1_555
C55 C50 1_555 1_555
H48 C55 1_555 1_555
C56 C53 1_555 1_555
C4 C5 1_555 1_555
C11 C12 1_555 1_555
N6 C34 1_555 1_555
N6 C35 1_555 1_555
C32 C33 1_555 1_555
C54 C55 1_555 1_555
N2_2 C3_2 1_555 1_555
C1_2 N1_2 1_555 1_555
H1_2 C1_2 1_555 1_555
C2_2 C1_2 1_555 1_555
H2_2 C2_2 1_555 1_555
C3_2 C2_2 1_555 1_555
C4_2 C3_2 1_555 1_555
H3_2 C4_2 1_555 1_555
C5_2 N1_2 1_555 1_555
H4_2 C5_2 1_555 1_555
C6_2 N2_2 1_555 1_555
H5_2 C6_2 1_555 1_555
H6_2 C6_2 1_555 1_555
C7_2 N2_2 1_555 1_555
H7_2 C7_2 1_555 1_555
H8_2 C7_2 1_555 1_555
N6_2 C31_2 1_555 1_555
H26_2 C30_2 1_555 1_555
C31_2 C30_2 1_555 1_555
C32_2 C31_2 1_555 1_555
H27_2 C32_2 1_555 1_555
H28_2 C33_2 1_555 1_555
C34_2 C6_2 1_555 1_555
H29_2 C34_2 1_555 1_555
H30_2 C34_2 1_555 1_555
C35_2 C7_2 1_555 1_555
H31_2 C35_2 1_555 1_555
H32_2 C35_2 1_555 1_555
O8_2 C47_2 1_555 1_555
O12 C56_2 1_555 1_555
C45_2 C44_2 1_555 1_555
H41_2 C45_2 1_555 1_555
C46_2 C45_2 1_555 1_555
H42_2 C46_2 1_555 1_555
C47_2 C46_2 1_555 1_555
C48_2 C47_2 1_555 1_555
H43_2 C48_2 1_555 1_555
C50_2 O8_2 1_555 1_555
C51_2 C50_2 1_555 1_555
H45_2 C51_2 1_555 1_555
C52_2 C51_2 1_555 1_555
H46_2 C52_2 1_555 1_555
C53_2 C52_2 1_555 1_555
C54_2 C53_2 1_555 1_555
H47_2 C54_2 1_555 1_555
C55_2 C50_2 1_555 1_555
H48_2 C55_2 1_555 1_555
C56_2 C53_2 1_555 1_555
C4_2 C5_2 1_555 1_555
N6_2 C34_2 1_555 1_555
N6_2 C35_2 1_555 1_555
C32_2 C33_2 1_555 1_555
C54_2 C55_2 1_555 1_555
H40 C42 1_555 1_555
N7 C36 1_555 1_555
N8 C38 1_555 1_555
C36 H33 1_555 1_555
C37 C36 1_555 1_555
H34 C37 1_555 1_555
C38 C37 1_555 1_555
Zn4 N7 1_555 1_555
N5 C29 1_555 1_555
C29 H25 1_555 1_555
Zn2 N5 1_555 1_555
O6 Zn2 1_555 1_555
O7 C43 1_555 1_555
C43 O6 1_555 1_555
H44 C49 1_555 1_555
O11 Zn2 1_555 1_555
N9 Zn2 1_555 1_555
N4 C10 1_555 1_555
C8 N9 1_555 1_555
H9 C8 1_555 1_555
C9 C8 1_555 1_555
H10 C9 1_555 1_555
C10 C9 1_555 1_555
C11_2 C10 1_555 1_555
H11_2 C11_2 1_555 1_555
C12_2 N9 1_555 1_555
H12_2 C12_2 1_555 1_555
C13_2 N4 1_555 1_555
H13_2 C13_2 1_555 1_555
H14_2 C13_2 1_555 1_555
C42_2 C13_2 1_555 1_555
H40_2 C42_2 1_555 1_555
C11_2 C12_2 1_555 1_555
Zn4 O1 1_555 1_555
O1 C15 1_555 1_555
O2 C15 1_555 1_555
O3 C19 1_555 1_555
O11 C28 1_555 1_555
O5 C28 1_555 1_555
C15 C16 1_555 1_555
C16 C17 1_555 1_555
C17 H17 1_555 1_555
C18 C17 1_555 1_555
H18 C18 1_555 1_555
C19 C18 1_555 1_555
C20 C19 1_555 1_555
H19 C20 1_555 1_555
C21 C16 1_555 1_555
H20 C21 1_555 1_555
C22 O3 1_555 1_555
C23 C22 1_555 1_555
H21 C23 1_555 1_555
C24 C23 1_555 1_555
H22 C24 1_555 1_555
C25 C24 1_555 1_555
C26 C25 1_555 1_555
H23 C26 1_555 1_555
C27 C22 1_555 1_555
H24 C27 1_555 1_555
C28 C25 1_555 1_555
C20 C21 1_555 1_555
C26 C27 1_555 1_555
Zn1 O1_2 1_555 1_555
O1_2 C15_2 1_555 1_555
O2_2 C15_2 1_555 1_555
O3_2 C19_2 1_555 1_555
O4 C28_2 1_555 1_555
O5_2 C28_2 1_555 1_555
N3 Zn1 1_555 1_555
N4_2 C10_2 1_555 1_555
C8_2 N3 1_555 1_555
H9_2 C8_2 1_555 1_555
C9_2 C8_2 1_555 1_555
H10_2 C9_2 1_555 1_555
C10_2 C9_2 1_555 1_555
C15_2 C16_2 1_555 1_555
C16_2 C17_2 1_555 1_555
C17_2 H17_2 1_555 1_555
C18_2 C17_2 1_555 1_555
H18_2 C18_2 1_555 1_555
C19_2 C18_2 1_555 1_555
C20_2 C19_2 1_555 1_555
H19_2 C20_2 1_555 1_555
C21_2 C16_2 1_555 1_555
H20_2 C21_2 1_555 1_555
C22_2 O3_2 1_555 1_555
C23_2 C22_2 1_555 1_555
H21_2 C23_2 1_555 1_555
C24_2 C23_2 1_555 1_555
H22_2 C24_2 1_555 1_555
C25_2 C24_2 1_555 1_555
C26_2 C25_2 1_555 1_555
H23_2 C26_2 1_555 1_555
C27_2 C22_2 1_555 1_555
H24_2 C27_2 1_555 1_555
C28_2 C25_2 1_555 1_555
Zn5 O4 1_555 1_555
C20_2 C21_2 1_555 1_555
C26_2 C27_2 1_555 1_555
H16 C14 1_555 1_555
N7_2 C36_2 1_555 1_555
N8_2 C38_2 1_555 1_555
C36_2 H33_2 1_555 1_555
C37_2 C36_2 1_555 1_555
H34_2 C37_2 1_555 1_555
C38_2 C37_2 1_555 1_555
C39_2 C38_2 1_555 1_555
H35_2 C39_2 1_555 1_555
C40_2 N7_2 1_555 1_555
H36_2 C40_2 1_555 1_555
C41_2 C14 1_555 1_555
H37_2 C41_2 1_555 1_555
H38_2 C41_2 1_555 1_555
Zn5 N7_2 1_555 1_555
N8_2 C41_2 1_555 1_555
C39_2 C40_2 1_555 1_555
N5_2 C29_2 1_555 1_555
C29_2 H25_2 1_555 1_555
Zn5 N5_2 1_555 1_555
O6_2 Zn5 1_555 1_555
O7_2 C43_2 1_555 1_555
C43_2 O6_2 1_555 1_555
H44_2 C49_2 1_555 1_555
H16_2 C14_2 1_555 1_555
N5_3 C29_3 1_555 1_555
C29_3 H25_3 1_555 1_555
H11_3 C11_3 1_555 1_555
H12_3 C12_3 1_555 1_555
H13_3 C13_3 1_555 1_555
H14_3 C13_3 1_555 1_555
N7_3 C36_3 1_555 1_555
N8_3 C38_3 1_555 1_555
C36_3 H33_3 1_555 1_555
C37_3 C36_3 1_555 1_555
H34_3 C37_3 1_555 1_555
C38_3 C37_3 1_555 1_555
C42_3 C13_3 1_555 1_555
H39_3 C42_3 1_555 1_555
H40_3 C42_3 1_555 1_555
Zn5_2 N7_3 1_555 1_555
C11_3 C12_3 1_555 1_555
N8_3 C42_3 1_555 1_555
O11_2 C28_3 1_555 1_555
H22_3 C24_3 1_555 1_555
C25_3 C24_3 1_555 1_555
C28_3 C25_3 1_555 1_555
O6_3 Zn5_2 1_555 1_555
O7_3 C43_3 1_555 1_555
C43_3 O6_3 1_555 1_555
H44_3 C49_3 1_555 1_555
O6_4 Zn2_2 1_555 1_555
O7_4 C43_4 1_555 1_555
C43_4 O6_4 1_555 1_555
H44_4 C49_4 1_555 1_555
N9_2 Zn2_2 1_555 1_555
O4_2 C28_4 1_555 1_555
H22_4 C24_4 1_555 1_555
C25_4 C24_4 1_555 1_555
C28_4 C25_4 1_555 1_555
N4_3 C10_3 1_555 1_555
C8_3 N9_2 1_555 1_555
H9_3 C8_3 1_555 1_555
C9_3 C8_3 1_555 1_555
H10_3 C9_3 1_555 1_555
C10_3 C9_3 1_555 1_555
C14_3 N4_3 1_555 1_555
H15_3 C14_3 1_555 1_555
H16_3 C14_3 1_555 1_555
H35_3 C39_3 1_555 1_555
H36_3 C40_3 1_555 1_555
C41_3 C14_3 1_555 1_555
H37_3 C41_3 1_555 1_555
H38_3 C41_3 1_555 1_555
C39_3 C40_3 1_555 1_555
N5_4 C29_4 1_555 1_555
C29_4 H25_4 1_555 1_555
Zn1_2 O1_3 1_555 1_555
O1_3 C15_3 1_555 1_555
O2_3 C15_3 1_555 1_555
O3_3 C19_3 1_555 1_555
N1_3 Zn1_2 1_555 1_555
N2_3 C3_3 1_555 1_555
N3_2 Zn1_2 1_555 1_555
N4_4 C10_4 1_555 1_555
C1_3 N1_3 1_555 1_555
H1_3 C1_3 1_555 1_555
C2_3 C1_3 1_555 1_555
H2_3 C2_3 1_555 1_555
C3_3 C2_3 1_555 1_555
C4_3 C3_3 1_555 1_555
H3_3 C4_3 1_555 1_555
C5_3 N1_3 1_555 1_555
H4_3 C5_3 1_555 1_555
C6_3 N2_3 1_555 1_555
H5_3 C6_3 1_555 1_555
H6_3 C6_3 1_555 1_555
C7_3 N2_3 1_555 1_555
H7_3 C7_3 1_555 1_555
H8_3 C7_3 1_555 1_555
C8_4 N3_2 1_555 1_555
H9_4 C8_4 1_555 1_555
C9_4 C8_4 1_555 1_555
H10_4 C9_4 1_555 1_555
C10_4 C9_4 1_555 1_555
C11_4 C10_4 1_555 1_555
H11_4 C11_4 1_555 1_555
C12_4 N3_2 1_555 1_555
H12_4 C12_4 1_555 1_555
C13_4 N4_4 1_555 1_555
H13_4 C13_4 1_555 1_555
H14_4 C13_4 1_555 1_555
C14_4 N4_4 1_555 1_555
H15_4 C14_4 1_555 1_555
H16_4 C14_4 1_555 1_555
C15_3 C16_3 1_555 1_555
C16_3 C17_3 1_555 1_555
C17_3 H17_3 1_555 1_555
C18_3 C17_3 1_555 1_555
H18_3 C18_3 1_555 1_555
C19_3 C18_3 1_555 1_555
C20_3 C19_3 1_555 1_555
H19_3 C20_3 1_555 1_555
C21_3 C16_3 1_555 1_555
H20_3 C21_3 1_555 1_555
C22_3 O3_3 1_555 1_555
C23_3 C22_3 1_555 1_555
H21_3 C23_3 1_555 1_555
C27_3 C22_3 1_555 1_555
H24_3 C27_3 1_555 1_555
N6_3 C31_3 1_555 1_555
H26_3 C30_3 1_555 1_555
C31_3 C30_3 1_555 1_555
C32_3 C31_3 1_555 1_555
H27_3 C32_3 1_555 1_555
H28_3 C33_3 1_555 1_555
C34_3 C6_3 1_555 1_555
H29_3 C34_3 1_555 1_555
H30_3 C34_3 1_555 1_555
C35_3 C7_3 1_555 1_555
H31_3 C35_3 1_555 1_555
H32_3 C35_3 1_555 1_555
O12_2 Zn1_2 1_555 1_555
C4_3 C5_3 1_555 1_555
C11_4 C12_4 1_555 1_555
C20_3 C21_3 1_555 1_555
C26_3 C27_3 1_555 1_555
N6_3 C34_3 1_555 1_555
N6_3 C35_3 1_555 1_555
C32_3 C33_3 1_555 1_555
O12_2 C56_3 1_555 1_555
O10_3 C56_3 1_555 1_555
H46_3 C52_3 1_555 1_555
C53_3 C52_3 1_555 1_555
C56_3 C53_3 1_555 1_555
O8_3 C47_3 1_555 1_555
C45_3 C44_3 1_555 1_555
H41_3 C45_3 1_555 1_555
C46_3 C45_3 1_555 1_555
H42_3 C46_3 1_555 1_555
C47_3 C46_3 1_555 1_555
C48_3 C47_3 1_555 1_555
H43_3 C48_3 1_555 1_555
C50_3 O8_3 1_555 1_555
C51_3 C50_3 1_555 1_555
H45_3 C51_3 1_555 1_555
C55_3 C50_3 1_555 1_555
H48_3 C55_3 1_555 1_555
C54_3 C55_3 1_555 1_555
O9_2 C56_4 1_555 1_555
O10_4 C56_4 1_555 1_555
H46_4 C52_4 1_555 1_555
C53_4 C52_4 1_555 1_555
C56_4 C53_4 1_555 1_555
Zn3 O9_2 1_555 1_555
N7_4 C36_4 1_555 1_555
N8_4 C38_4 1_555 1_555
C36_4 H33_4 1_555 1_555
C37_4 C36_4 1_555 1_555
H34_4 C37_4 1_555 1_555
C38_4 C37_4 1_555 1_555
C39_4 C38_4 1_555 1_555
H35_4 C39_4 1_555 1_555
C40_4 N7_4 1_555 1_555
H36_4 C40_4 1_555 1_555
H37_4 C41_4 1_555 1_555
H38_4 C41_4 1_555 1_555
H39_4 C42_4 1_555 1_555
H40_4 C42_4 1_555 1_555
Zn3 N7_4 1_555 1_555
N8_4 C41_4 1_555 1_555
N8_4 C42_4 1_555 1_555
C39_4 C40_4 1_555 1_555
Zn3 O1_4 1_555 1_555
O1_4 C15_4 1_555 1_555
O2_4 C15_4 1_555 1_555
O3_4 C19_4 1_555 1_555
N1_4 Zn3 1_555 1_555
N2_4 C3_4 1_555 1_555
C1_4 N1_4 1_555 1_555
H1_4 C1_4 1_555 1_555
C2_4 C1_4 1_555 1_555
H2_4 C2_4 1_555 1_555
C3_4 C2_4 1_555 1_555
C4_4 C3_4 1_555 1_555
H3_4 C4_4 1_555 1_555
C5_4 N1_4 1_555 1_555
H4_4 C5_4 1_555 1_555
C6_4 N2_4 1_555 1_555
H5_4 C6_4 1_555 1_555
H6_4 C6_4 1_555 1_555
C7_4 N2_4 1_555 1_555
H7_4 C7_4 1_555 1_555
H8_4 C7_4 1_555 1_555
C15_4 C16_4 1_555 1_555
C16_4 C17_4 1_555 1_555
C17_4 H17_4 1_555 1_555
C18_4 C17_4 1_555 1_555
H18_4 C18_4 1_555 1_555
C19_4 C18_4 1_555 1_555
C20_4 C19_4 1_555 1_555
H19_4 C20_4 1_555 1_555
C21_4 C16_4 1_555 1_555
H20_4 C21_4 1_555 1_555
C22_4 O3_4 1_555 1_555
C23_4 C22_4 1_555 1_555
H21_4 C23_4 1_555 1_555
C27_4 C22_4 1_555 1_555
H24_4 C27_4 1_555 1_555
N6_4 C31_4 1_555 1_555
H26_4 C30_4 1_555 1_555
C31_4 C30_4 1_555 1_555
C32_4 C31_4 1_555 1_555
H27_4 C32_4 1_555 1_555
H28_4 C33_4 1_555 1_555
C34_4 C6_4 1_555 1_555
H29_4 C34_4 1_555 1_555
H30_4 C34_4 1_555 1_555
C35_4 C7_4 1_555 1_555
H31_4 C35_4 1_555 1_555
H32_4 C35_4 1_555 1_555
C4_4 C5_4 1_555 1_555
C20_4 C21_4 1_555 1_555
C26_4 C27_4 1_555 1_555
N6_4 C34_4 1_555 1_555
N6_4 C35_4 1_555 1_555
C32_4 C33_4 1_555 1_555
O8_4 C47_4 1_555 1_555
C45_4 C44_4 1_555 1_555
H41_4 C45_4 1_555 1_555
C46_4 C45_4 1_555 1_555
H42_4 C46_4 1_555 1_555
C47_4 C46_4 1_555 1_555
C48_4 C47_4 1_555 1_555
H43_4 C48_4 1_555 1_555
C50_4 O8_4 1_555 1_555
C51_4 C50_4 1_555 1_555
H45_4 C51_4 1_555 1_555
C55_4 C50_4 1_555 1_555
H48_4 C55_4 1_555 1_555
C54_4 C55_4 1_555 1_555

#END
