
###############################################################################
#
# This file contains modified crystal structure data generated from the
# MOF subset of the Cambridge Structural Database (CSD) v543 
# hosted by the Cambridge Crystallographic Data Centre (CCDC).
#
# This work is licensed under the Creative Commons
# Attribution-NonCommercial-ShareAlike 4.0 International License.
# To view a copy of this license, visit
# http://creativecommons.org/licenses/by-nc-sa/4.0/
# or send a letter to
# Creative Commons, PO Box 1866, Mountain View, CA 94042, USA.
#
# CIF created using the CSD Python API on 29 September 2022
# The structure has been converted into the P1 space group
# The structure has a 3D framework
# The original CSD entry BUQSUE is in the triclinic crystal system
# The framework has been calculated to contain at least 10.0% void space
# The void calculation uses a probe of radius 1.32A, grid spacing 0.4
#
###############################################################################

data_BUQSUE
_chemical_formula_moiety         '(C168 H144 N24 O30 Zn6)n'
_symmetry_cell_setting           triclinic
_symmetry_space_group_name_H-M   'P 1'
_symmetry_Int_Tables_number      1
_space_group_name_Hall           'P 1'
loop_
_symmetry_equiv_pos_site_id
_symmetry_equiv_pos_as_xyz
1 x,y,z
_cell_length_a                   12.41(3)
_cell_length_b                   15.33(4)
_cell_length_c                   26.64(7)
_cell_angle_alpha                76.96(7)
_cell_angle_beta                 80.97(5)
_cell_angle_gamma                78.43(5)
_cell_volume                     4803.87
loop_
_atom_site_label
_atom_site_type_symbol
_atom_site_fract_x
_atom_site_fract_y
_atom_site_fract_z
_atom_site_U_iso_or_equiv
_atom_site_thermal_displace_type
H75 H 0.1793 0.1628 0.0038 0.1030 Uiso
C90 C 0.0506(15) 0.0426(10) 0.0263(3) 0.0947 Uani
H77 H 0.1227 0.0455 0.0368 0.1140 Uiso
H130 H 0.4005 0.6612 0.0085 0.0680 Uiso
N13 N 0.1926(9) 0.2966(6) 0.8946(4) 0.0626 Uani
N14 N 0.0569(8) 0.0701(6) 0.9724(3) 0.0608 Uani
C85 C 0.1308(13) 0.2588(10) 0.8723(5) 0.0826 Uani
H73 H 0.1188 0.2851 0.8373 0.0990 Uiso
C86 C 0.0821(12) 0.1836(9) 0.8964(5) 0.0741 Uani
H74 H 0.0382 0.1595 0.8785 0.0890 Uiso
C87 C 0.0999(12) 0.1447(7) 0.9476(5) 0.0651 Uani
C88 C 0.1647(14) 0.1863(9) 0.9689(5) 0.0861 Uani
C89 C 0.2069(14) 0.2573(9) 0.9427(5) 0.0836 Uani
H76 H 0.2513 0.2822 0.9600 0.1000 Uiso
Zn7 Zn 0.27075(12) 0.39051(8) 0.85118(5) 0.0567 Uani
O16 O 0.3352(9) 0.3379(5) 0.7905(3) 0.0803 Uani
O17 O 0.4168(9) 0.2092(6) 0.8358(4) 0.0830 Uani
O18 O 0.4674(9) 0.1265(7) 0.6117(4) 0.0970 Uani
O21 O 0.3814(6) 0.4487(5) 0.8678(3) 0.0553 Uani
O22 O 0.2576(7) 0.4640(6) 0.9313(4) 0.0726 Uani
O23 O 0.5677(6) 0.7176(6) 0.9618(3) 0.0723 Uani
O24 O 0.9921(6) 0.8739(5) 0.8523(3) 0.0594 Uani
N17 N 0.1614(8) 0.4907(6) 0.8136(3) 0.0497 Uani
C99 C 0.1537(11) 0.4927(8) 0.7644(4) 0.0631 Uani
H89 H 0.1906 0.4420 0.7498 0.0760 Uiso
C100 C 0.0951(10) 0.5641(8) 0.7337(5) 0.0603 Uani
H90 H 0.0897 0.5610 0.6990 0.0720 Uiso
C101 C 0.0428(9) 0.6419(8) 0.7527(4) 0.0515 Uani
C102 C 0.0473(10) 0.6357(8) 0.8044(4) 0.0562 Uani
H91 H 0.0083 0.6829 0.8214 0.0680 Uiso
C103 C 0.1115(9) 0.5572(8) 0.8323(4) 0.0548 Uani
H92 H 0.1167 0.5556 0.8677 0.0650 Uiso
C105 C 0.0063(11) 0.7266(9) 0.6680(5) 0.0674 Uani
H95 H 0.0734 0.6851 0.6569 0.0810 Uiso
C106 C 0.0177(9) 0.8244(8) 0.6434(5) 0.0582 Uani
H97 H 0.0282 0.8317 0.6052 0.0700 Uiso
H98 H 0.0839 0.8388 0.6542 0.0700 Uiso
H101 H 0.0200 0.9605 0.5698 0.0600 Uiso
C127 C 0.3829(14) 0.2563(9) 0.7963(5) 0.0790 Uani
C128 C 0.3957(10) 0.2221(8) 0.7462(5) 0.0584 Uani
C129 C 0.4396(11) 0.1320(9) 0.7484(5) 0.0677 Uani
H121 H 0.4586 0.0928 0.7800 0.0810 Uiso
C130 C 0.4552(12) 0.1006(10) 0.7018(6) 0.0793 Uani
H122 H 0.4799 0.0379 0.7016 0.0950 Uiso
C131 C 0.4359(11) 0.1572(10) 0.6595(5) 0.0678 Uani
C132 C 0.3929(15) 0.2444(10) 0.6566(6) 0.0922 Uani
H123 H 0.3770 0.2836 0.6246 0.1110 Uiso
C133 C 0.3724(14) 0.2754(9) 0.7023(5) 0.0838 Uani
H124 H 0.3404 0.3373 0.7019 0.1010 Uiso
C134 C 0.4283(11) 0.0559(9) 0.6051(5) 0.0705 Uani
C135 C 0.3261(10) 0.0351(8) 0.6248(5) 0.0603 Uani
H125 H 0.2823 0.0653 0.6505 0.0720 Uiso
C139 C 0.4918(10) 0.0111(11) 0.5698(6) 0.0801 Uani
H128 H 0.5609 0.0279 0.5543 0.0960 Uiso
C141 C 0.3454(9) 0.4794(7) 0.9057(4) 0.0442 Uani
C142 C 0.4084(8) 0.5393(7) 0.9227(4) 0.0489 Uani
C143 C 0.3764(9) 0.5736(7) 0.9657(5) 0.0565 Uani
H129 H 0.3144 0.5546 0.9882 0.0680 Uiso
C144 C 0.4286(9) 0.6348(8) 0.9791(5) 0.0568 Uani
C145 C 0.5241(9) 0.6563(8) 0.9478(4) 0.0524 Uani
C146 C 0.5613(10) 0.6184(9) 0.9049(5) 0.0644 Uani
H131 H 0.6281 0.6310 0.8841 0.0770 Uiso
C147 C 0.5029(9) 0.5637(8) 0.8928(5) 0.0582 Uani
H132 H 0.5275 0.5404 0.8620 0.0700 Uiso
C148 C 0.6693(9) 0.7343(8) 0.9395(5) 0.0541 Uani
C149 C 0.7609(11) 0.6683(9) 0.9462(5) 0.0683 Uani
H133 H 0.7529 0.6079 0.9629 0.0820 Uiso
C150 C 0.8632(10) 0.6890(8) 0.9290(4) 0.0587 Uani
H134 H 0.9270 0.6441 0.9356 0.0700 Uiso
C151 C 0.8747(9) 0.7767(7) 0.9015(4) 0.0464 Uani
C152 C 0.7824(8) 0.8417(8) 0.8957(4) 0.0558 Uani
H135 H 0.7884 0.9025 0.8790 0.0670 Uiso
C153 C 0.6799(9) 0.8178(8) 0.9145(5) 0.0556 Uani
H136 H 0.6153 0.8624 0.9094 0.0670 Uiso
C154 C 0.9870(9) 0.7988(8) 0.8851(4) 0.0504 Uani
N2 N 0.0079(7) 0.2846(6) 0.2771(3) 0.0506 Uani
N3 N 0.0785(7) 0.1135(7) 0.3414(4) 0.0605 Uani
C6 C 0.0608(10) 0.2081(9) 0.2565(4) 0.0652 Uani
H5 H 0.1028 0.2284 0.2225 0.0780 Uiso
H6 H 0.0042 0.1754 0.2508 0.0780 Uiso
H8 H 0.0583 0.2889 0.3436 0.0810 Uiso
C9 C 0.1399(9) 0.1432(8) 0.2923(4) 0.0606 Uani
H11 H 0.1752 0.0902 0.2766 0.0730 Uiso
H12 H 0.1989 0.1745 0.2971 0.0730 Uiso
C10 C 0.1149(8) 0.0389(8) 0.3736(5) 0.0509 Uani
C11 C 0.0514(9) 0.0068(7) 0.4212(4) 0.0500 Uani
H16 H 0.2677 0.0051 0.3359 0.0660 Uiso
C21 C 0.0257(15) 0.9583(11) 0.0481(6) 0.0994 Uani
H23 H 0.0024 0.9562 0.0856 0.1190 Uiso
H24 H 0.0946 0.9133 0.0450 0.1190 Uiso
H22 H 0.0058 0.9123 0.9583 0.1140 Uiso
N4 N 0.1884(7) 0.8806(6) 0.4440(4) 0.0500 Uani
C12 C 0.0914(9) 0.9314(8) 0.4530(5) 0.0525 Uani
H14 H 0.0468 0.9128 0.4846 0.0630 Uiso
C13 C 0.2488(9) 0.9106(8) 0.3996(4) 0.0499 Uani
H15 H 0.3189 0.8751 0.3917 0.0600 Uiso
C14 C 0.2182(9) 0.9867(8) 0.3657(4) 0.0548 Uani
Zn10 Zn 0.24536(10) 0.77185(8) 0.49773(5) 0.0502 Uani
Zn2 Zn 0.86257(10) 0.10536(7) 0.17206(5) 0.0440 Uani
O10 O 0.9336(7) 0.2492(6) 0.0989(3) 0.0642 Uani
O11 O 0.8812(9) 0.0014(7) 0.2274(4) 0.1028 Uani
N7 N 0.7742(6) 0.1987(5) 0.2104(3) 0.0441 Uani
N8 N 0.6088(7) 0.3906(6) 0.2936(3) 0.0480 Uani
N9 N 0.5053(7) 0.5211(6) 0.3537(4) 0.0509 Uani
N10 N 0.3335(7) 0.6923(6) 0.4490(4) 0.0530 Uani
N11 N 0.7684(7) 0.0811(5) 0.1245(3) 0.0458 Uani
N12 N 0.5675(8) 0.0198(6) 0.0322(4) 0.0577 Uani
C22 C 0.7222(9) 0.2807(7) 0.1874(4) 0.0499 Uani
H25 H 0.7248 0.2940 0.1506 0.0600 Uiso
C23 C 0.6666(8) 0.3447(7) 0.2138(4) 0.0416 Uani
H26 H 0.6308 0.4013 0.1959 0.0500 Uiso
C24 C 0.6626(8) 0.3273(7) 0.2667(4) 0.0468 Uani
C25 C 0.7100(9) 0.2420(7) 0.2894(4) 0.0518 Uani
H27 H 0.7039 0.2251 0.3262 0.0620 Uiso
C26 C 0.7639(9) 0.1831(7) 0.2615(4) 0.0501 Uani
H28 H 0.7976 0.1255 0.2792 0.0600 Uiso
C27 C 0.6180(12) 0.3765(8) 0.3489(4) 0.0661 Uani
H29 H 0.6910 0.3395 0.3562 0.0790 Uiso
H30 H 0.5601 0.3421 0.3688 0.0790 Uiso
C28 C 0.5493(9) 0.4743(7) 0.2709(4) 0.0503 Uani
H31 H 0.5162 0.4661 0.2412 0.0600 Uiso
H32 H 0.6011 0.5179 0.2574 0.0600 Uiso
C29 C 0.4614(9) 0.5124(7) 0.3074(4) 0.0550 Uani
H33 H 0.4047 0.4725 0.3179 0.0660 Uiso
H34 H 0.4253 0.5729 0.2901 0.0660 Uiso
C30 C 0.6056(11) 0.4646(10) 0.3666(6) 0.0830 Uani
H35 H 0.6068 0.4524 0.4046 0.1000 Uiso
H36 H 0.6684 0.4958 0.3499 0.1000 Uiso
C31 C 0.4486(9) 0.5752(8) 0.3846(4) 0.0524 Uani
C32 C 0.3451(9) 0.6247(8) 0.3768(5) 0.0591 Uani
H37 H 0.3093 0.6180 0.3492 0.0710 Uiso
C33 C 0.2953(10) 0.6809(8) 0.4069(5) 0.0645 Uani
H38 H 0.2263 0.7167 0.3983 0.0770 Uiso
C34 C 0.4292(12) 0.6453(9) 0.4576(5) 0.0748 Uani
H39 H 0.4607 0.6515 0.4867 0.0900 Uiso
C35 C 0.4858(10) 0.5892(9) 0.4284(5) 0.0696 Uani
H40 H 0.5557 0.5564 0.4377 0.0830 Uiso
C36 C 0.7398(8) 0.1394(7) 0.0805(5) 0.0499 Uani
H41 H 0.7645 0.1963 0.0716 0.0600 Uiso
C37 C 0.6779(9) 0.1196(7) 0.0491(5) 0.0536 Uani
H42 H 0.6650 0.1601 0.0171 0.0640 Uiso
C38 C 0.6321(9) 0.0406(7) 0.0628(4) 0.0480 Uani
C40 C 0.7275(9) 0.0065(7) 0.1374(4) 0.0523 Uani
O32 O 0.3727(6) 0.8129(5) 0.5223(3) 0.0510 Uani
O34 O 0.2069(6) 0.8577(5) 0.5609(3) 0.0582 Uani
O36 O 0.2323(8) 0.6482(6) 0.5551(3) 0.0668 Uani
O38 O 0.0870(8) 0.7180(7) 0.5195(4) 0.0806 Uani
C42 C 0.5501(15) 0.0755(10) 0.9804(6) 0.1016 Uani
H47 H 0.5417 0.1403 0.9824 0.1220 Uiso
H48 H 0.6175 0.0614 0.9563 0.1220 Uiso
C95 C 0.3403(8) 0.0160(6) 0.8909(4) 0.0442 Uani
H83 H 0.3692 0.0710 0.8790 0.0530 Uiso
H84 H 0.2537 0.0346 0.8315 0.0630 Uiso
C97 C 0.4628(16) 0.0649(10) 0.9599(7) 0.1213 Uani
H85 H 0.3978 0.1063 0.9729 0.1460 Uiso
H86 H 0.4762 0.0869 0.9220 0.1460 Uiso
O27 O 0.0192(12) 0.0734(10) 0.8255(6) 0.1284 Uani
C155 C 0.0575(17) 0.0586(12) 0.7779(10) 0.1113 Uani
C156 C 0.0301(11) 0.1346(9) 0.7332(6) 0.0702 Uani
C157 C 0.0251(12) 0.1222(9) 0.6831(6) 0.1058 Uani
H137 H 0.0433 0.0622 0.6768 0.1250 Uiso
C161 C 0.011(2) 0.2148(13) 0.7400(8) 0.1423 Uani
H140 H 0.0228 0.2250 0.7724 0.1720 Uiso
C165 C 0.0842(11) 0.5734(9) 0.5672(5) 0.0753 Uani
C166 C 0.1389(10) 0.4923(8) 0.5917(6) 0.0691 Uani
H143 H 0.2141 0.4898 0.5960 0.0830 Uiso
C167 C 0.0974(11) 0.4176(9) 0.6099(7) 0.0912 Uani
H144 H 0.1402 0.3631 0.6263 0.1090 Uiso
C168 C 0.1405(14) 0.6517(9) 0.5458(5) 0.0675 Uani
C136 C 0.2875(9) 0.9734(8) 0.6083(4) 0.0545 Uani
H126 H 0.2141 0.9630 0.6204 0.0660 Uiso
C137 C 0.3535(9) 0.9233(7) 0.5734(4) 0.0499 Uani
C138 C 0.4554(9) 0.9393(8) 0.5559(5) 0.0593 Uani
H127 H 0.5033 0.9028 0.5343 0.0710 Uiso
C140 C 0.3073(11) 0.8597(7) 0.5517(4) 0.0529 Uani
O4 O 0.6273(6) 0.1871(5) 0.4777(3) 0.0510 Uani
O5 O 0.7931(6) 0.1423(5) 0.4391(3) 0.0582 Uani
C52 C 0.7125(9) 0.0266(8) 0.3917(4) 0.0545 Uani
H54 H 0.7859 0.0370 0.3796 0.0660 Uiso
C53 C 0.6465(9) 0.0767(7) 0.4266(4) 0.0499 Uani
C54 C 0.5446(9) 0.0607(8) 0.4441(5) 0.0593 Uani
H55 H 0.4967 0.0972 0.4657 0.0710 Uiso
C56 C 0.6927(11) 0.1403(7) 0.4483(4) 0.0529 Uani
H78 H 0.9942 0.0877 0.0417 0.1140 Uiso
Zn13 Zn 0.75464(10) 0.22815(8) 0.50227(5) 0.0502 Uani
O12 O 0.9808(12) 0.9266(10) 0.1745(6) 0.1284 Uani
O14 O 0.7677(8) 0.3518(6) 0.4449(3) 0.0668 Uani
O15 O 0.9130(8) 0.2820(7) 0.4805(4) 0.0806 Uani
C39 C 0.6597(8) 0.9840(6) 0.1091(4) 0.0442 Uani
H43 H 0.6308 0.9290 0.1210 0.0530 Uiso
H44 H 0.7463 0.9654 0.1685 0.0630 Uiso
C41 C 0.5372(16) 0.9351(10) 0.0401(7) 0.1213 Uani
H45 H 0.6022 0.8937 0.0271 0.1460 Uiso
H46 H 0.5238 0.9131 0.0780 0.1460 Uiso
C71 C 0.9425(17) 0.9414(12) 0.2221(10) 0.1113 Uani
C72 C 0.9699(11) 0.8654(9) 0.2668(6) 0.0702 Uani
C73 C 0.9749(12) 0.8778(9) 0.3169(6) 0.1058 Uani
H65 H 0.9567 0.9378 0.3232 0.1250 Uiso
C77 C 0.989(2) 0.7852(13) 0.2600(8) 0.1423 Uani
H68 H 0.9772 0.7750 0.2276 0.1720 Uiso
C81 C 0.9158(11) 0.4266(9) 0.4328(5) 0.0753 Uani
C82 C 0.8611(10) 0.5077(8) 0.4083(6) 0.0691 Uani
H71 H 0.7859 0.5102 0.4040 0.0830 Uiso
C83 C 0.9026(11) 0.5824(9) 0.3901(7) 0.0912 Uani
H72 H 0.8598 0.6369 0.3737 0.1090 Uiso
C84 C 0.8595(14) 0.3483(9) 0.4542(5) 0.0675 Uani
C98 C 0.4499(15) 0.9245(10) 0.0196(6) 0.1016 Uani
H87 H 0.4583 0.8597 0.0176 0.1220 Uiso
H88 H 0.3825 0.9386 0.0437 0.1220 Uiso
N15 N 0.2316(7) 0.9189(5) 0.8755(3) 0.0458 Uani
N16 N 0.4325(8) 0.9802(6) 0.9678(4) 0.0577 Uani
C92 C 0.2602(8) 0.8606(7) 0.9195(5) 0.0499 Uani
H81 H 0.2355 0.8037 0.9284 0.0600 Uiso
C93 C 0.3221(9) 0.8804(7) 0.9509(5) 0.0536 Uani
H82 H 0.3350 0.8399 0.9829 0.0640 Uiso
C94 C 0.3679(9) 0.9594(7) 0.9372(4) 0.0480 Uani
C96 C 0.2725(9) 0.9935(7) 0.8626(4) 0.0523 Uani
Zn5 Zn 0.13743(10) 0.89464(7) 0.82794(5) 0.0440 Uani
O25 O 0.0664(7) 0.7508(6) 0.9011(3) 0.0642 Uani
O26 O 0.1188(9) 0.9986(7) 0.7726(4) 0.1028 Uani
N21 N 0.2258(6) 0.8013(5) 0.7896(3) 0.0441 Uani
N22 N 0.3912(7) 0.6094(6) 0.7064(3) 0.0480 Uani
N23 N 0.4947(7) 0.4789(6) 0.6463(4) 0.0509 Uani
N24 N 0.6665(7) 0.3077(6) 0.5510(4) 0.0530 Uani
C113 C 0.2778(9) 0.7193(7) 0.8126(4) 0.0499 Uani
H105 H 0.2752 0.7060 0.8494 0.0600 Uiso
C114 C 0.3334(8) 0.6553(7) 0.7862(4) 0.0416 Uani
H106 H 0.3692 0.5987 0.8041 0.0500 Uiso
C115 C 0.3374(8) 0.6727(7) 0.7333(4) 0.0468 Uani
C116 C 0.2900(9) 0.7580(7) 0.7106(4) 0.0518 Uani
H107 H 0.2961 0.7749 0.6738 0.0620 Uiso
C117 C 0.2361(9) 0.8169(7) 0.7385(4) 0.0501 Uani
H108 H 0.2024 0.8745 0.7208 0.0600 Uiso
C118 C 0.3820(12) 0.6235(8) 0.6511(4) 0.0661 Uani
H109 H 0.3090 0.6605 0.6438 0.0790 Uiso
H110 H 0.4399 0.6579 0.6312 0.0790 Uiso
C119 C 0.4507(9) 0.5257(7) 0.7291(4) 0.0503 Uani
H111 H 0.4838 0.5339 0.7588 0.0600 Uiso
H112 H 0.3989 0.4821 0.7426 0.0600 Uiso
C120 C 0.5386(9) 0.4876(7) 0.6926(4) 0.0550 Uani
H113 H 0.5953 0.5275 0.6821 0.0660 Uiso
H114 H 0.5747 0.4271 0.7099 0.0660 Uiso
C121 C 0.3944(11) 0.5354(10) 0.6334(6) 0.0830 Uani
H115 H 0.3932 0.5476 0.5954 0.1000 Uiso
H116 H 0.3316 0.5042 0.6501 0.1000 Uiso
C122 C 0.5514(9) 0.4248(8) 0.6154(4) 0.0524 Uani
C123 C 0.6549(9) 0.3753(8) 0.6232(5) 0.0591 Uani
H117 H 0.6907 0.3820 0.6508 0.0710 Uiso
C124 C 0.7047(10) 0.3191(8) 0.5931(5) 0.0645 Uani
H118 H 0.7737 0.2833 0.6017 0.0770 Uiso
C125 C 0.5708(12) 0.3547(9) 0.5424(5) 0.0748 Uani
H119 H 0.5393 0.3485 0.5133 0.0900 Uiso
C126 C 0.5142(10) 0.4108(9) 0.5716(5) 0.0696 Uani
H120 H 0.4443 0.4436 0.5623 0.0830 Uiso
N26 N 0.8116(7) 0.1194(6) 0.5560(4) 0.0500 Uani
C110 C 0.9086(9) 0.0686(8) 0.5470(5) 0.0525 Uani
H102 H 0.9532 0.0872 0.5154 0.0630 Uiso
C111 C 0.7512(9) 0.0894(8) 0.6004(4) 0.0499 Uani
H103 H 0.6811 0.1249 0.6083 0.0600 Uiso
C112 C 0.7818(9) 0.0133(8) 0.6343(4) 0.0548 Uani
C91 C 0.9743(15) 0.0417(11) 0.9519(6) 0.0994 Uani
H79 H 0.9976 0.0438 0.9144 0.1190 Uiso
H80 H 0.9054 0.0867 0.9550 0.1190 Uiso
N18 N 0.9921(7) 0.7154(6) 0.7229(3) 0.0506 Uani
N19 N 0.9215(7) 0.8865(7) 0.6586(4) 0.0605 Uani
C104 C 0.9392(10) 0.7919(9) 0.7435(4) 0.0652 Uani
H93 H 0.8972 0.7716 0.7775 0.0780 Uiso
H94 H 0.9958 0.8246 0.7492 0.0780 Uiso
H96 H 0.9417 0.7111 0.6564 0.0810 Uiso
C107 C 0.8601(9) 0.8568(8) 0.7077(4) 0.0606 Uani
H99 H 0.8248 0.9098 0.7234 0.0730 Uiso
H100 H 0.8011 0.8255 0.7029 0.0730 Uiso
C108 C 0.8851(8) 0.9611(8) 0.6264(5) 0.0509 Uani
C109 C 0.9486(9) 0.9932(7) 0.5788(4) 0.0500 Uani
H104 H 0.7323 0.9949 0.6641 0.0660 Uiso
Zn1 Zn 0.72925(12) 0.60949(8) 0.14882(5) 0.0567 Uani
O1 O 0.6648(9) 0.6621(5) 0.2095(3) 0.0803 Uani
O2 O 0.5832(9) 0.7908(6) 0.1642(4) 0.0830 Uani
O3 O 0.5326(9) 0.8735(7) 0.3883(4) 0.0970 Uani
O6 O 0.6186(6) 0.5513(5) 0.1322(3) 0.0553 Uani
O7 O 0.7424(7) 0.5360(6) 0.0687(4) 0.0726 Uani
O8 O 0.4323(6) 0.2824(6) 0.0382(3) 0.0723 Uani
O9 O 0.0079(6) 0.1261(5) 0.1477(3) 0.0594 Uani
N1 N 0.8386(8) 0.5093(6) 0.1864(3) 0.0497 Uani
N5 N 0.8074(9) 0.7034(6) 0.1054(4) 0.0626 Uani
N6 N 0.9431(8) 0.9299(6) 0.0276(3) 0.0608 Uani
C1 C 0.8463(11) 0.5073(8) 0.2356(4) 0.0631 Uani
H1 H 0.8094 0.5580 0.2502 0.0760 Uiso
C2 C 0.9049(10) 0.4359(8) 0.2663(5) 0.0603 Uani
H2 H 0.9103 0.4390 0.3010 0.0720 Uiso
C3 C 0.9572(9) 0.3581(8) 0.2473(4) 0.0515 Uani
C4 C 0.9527(10) 0.3643(8) 0.1956(4) 0.0562 Uani
H3 H 0.9917 0.3171 0.1786 0.0680 Uiso
C5 C 0.8885(9) 0.4428(8) 0.1677(4) 0.0548 Uani
H4 H 0.8833 0.4444 0.1323 0.0650 Uiso
C7 C 0.9937(11) 0.2734(9) 0.3320(5) 0.0674 Uani
H7 H 0.9266 0.3149 0.3431 0.0810 Uiso
C8 C 0.9823(9) 0.1756(8) 0.3566(5) 0.0582 Uani
H9 H 0.9718 0.1683 0.3948 0.0700 Uiso
H10 H 0.9161 0.1612 0.3458 0.0700 Uiso
H13 H 0.9800 0.0395 0.4302 0.0600 Uiso
C15 C 0.8692(13) 0.7412(10) 0.1277(5) 0.0826 Uani
H17 H 0.8812 0.7149 0.1627 0.0990 Uiso
C16 C 0.9179(12) 0.8164(9) 0.1036(5) 0.0741 Uani
H18 H 0.9618 0.8405 0.1215 0.0890 Uiso
C17 C 0.9001(12) 0.8553(7) 0.0524(5) 0.0651 Uani
C18 C 0.8353(14) 0.8137(9) 0.0311(5) 0.0861 Uani
C19 C 0.7931(14) 0.7427(9) 0.0573(5) 0.0836 Uani
H20 H 0.7487 0.7178 0.0400 0.1000 Uiso
C43 C 0.6171(14) 0.7437(9) 0.2037(5) 0.0790 Uani
C44 C 0.6043(10) 0.7779(8) 0.2538(5) 0.0584 Uani
C45 C 0.5604(11) 0.8680(9) 0.2516(5) 0.0677 Uani
H49 H 0.5414 0.9072 0.2200 0.0810 Uiso
C46 C 0.5448(12) 0.8994(10) 0.2982(6) 0.0793 Uani
H50 H 0.5201 0.9621 0.2984 0.0950 Uiso
C47 C 0.5641(11) 0.8428(10) 0.3405(5) 0.0678 Uani
C48 C 0.6071(15) 0.7556(10) 0.3434(6) 0.0922 Uani
H51 H 0.6230 0.7164 0.3754 0.1110 Uiso
C49 C 0.6276(14) 0.7246(9) 0.2977(5) 0.0838 Uani
H52 H 0.6596 0.6627 0.2981 0.1010 Uiso
C50 C 0.5717(11) 0.9441(9) 0.3949(5) 0.0705 Uani
C51 C 0.6739(10) 0.9649(8) 0.3752(5) 0.0603 Uani
H53 H 0.7177 0.9347 0.3495 0.0720 Uiso
C55 C 0.5082(10) 0.9889(11) 0.4302(6) 0.0801 Uani
H56 H 0.4391 0.9721 0.4457 0.0960 Uiso
C57 C 0.6546(9) 0.5206(7) 0.0943(4) 0.0442 Uani
C58 C 0.5916(8) 0.4607(7) 0.0773(4) 0.0489 Uani
C59 C 0.6236(9) 0.4264(7) 0.0343(5) 0.0565 Uani
H57 H 0.6856 0.4454 0.0118 0.0680 Uiso
C60 C 0.5714(9) 0.3652(8) 0.0209(5) 0.0568 Uani
C61 C 0.4759(9) 0.3437(8) 0.0522(4) 0.0524 Uani
C62 C 0.4387(10) 0.3816(9) 0.0951(5) 0.0644 Uani
H59 H 0.3719 0.3690 0.1159 0.0770 Uiso
C63 C 0.4971(9) 0.4363(8) 0.1072(5) 0.0582 Uani
H60 H 0.4725 0.4596 0.1380 0.0700 Uiso
C64 C 0.3307(9) 0.2657(8) 0.0605(5) 0.0541 Uani
C65 C 0.2391(11) 0.3317(9) 0.0538(5) 0.0683 Uani
H61 H 0.2471 0.3921 0.0371 0.0820 Uiso
C66 C 0.1368(10) 0.3110(8) 0.0710(4) 0.0587 Uani
H62 H 0.0730 0.3559 0.0644 0.0700 Uiso
C67 C 0.1253(9) 0.2233(7) 0.0985(4) 0.0464 Uani
C68 C 0.2176(8) 0.1583(8) 0.1043(4) 0.0558 Uani
H63 H 0.2116 0.0975 0.1210 0.0670 Uiso
C69 C 0.3201(9) 0.1822(8) 0.0855(5) 0.0556 Uani
H64 H 0.3847 0.1376 0.0906 0.0670 Uiso
C70 C 0.0130(9) 0.2012(8) 0.1149(4) 0.0504 Uani
H19 H 0.8207 0.8372 0.9962 0.1030 Uiso
C20 C 0.9494(15) 0.9574(10) 0.9737(3) 0.0947 Uani
H21 H 0.8773 0.9545 0.9632 0.1140 Uiso
H58 H 0.5995 0.3388 0.9915 0.0680 Uiso
O13 O 0.0595(10) 0.6559(7) 0.3874(5) 0.1206 Uani
C74 C 0.0039(13) 0.8098(13) 0.3562(8) 0.1023 Uani
H66 H 0.0071 0.8203 0.3897 0.1230 Uiso
C75 C 0.0278(12) 0.7277(11) 0.3459(7) 0.0873 Uani
C76 C 0.0270(15) 0.7096(10) 0.2975(9) 0.1109 Uani
H67 H 0.0503 0.6504 0.2901 0.1330 Uiso
C78 C 0.0103(14) 0.5773(10) 0.3962(7) 0.1126 Uani
C79 C 0.0680(14) 0.5064(12) 0.4188(9) 0.1577 Uani
H69 H 0.1429 0.5072 0.4220 0.1870 Uiso
C80 C 0.0251(12) 0.4263(10) 0.4392(8) 0.1253 Uani
H70 H 0.0690 0.3735 0.4568 0.1520 Uiso
O28 O 0.9405(10) 0.3441(7) 0.6126(5) 0.1206 Uani
C158 C 0.9961(13) 0.1902(13) 0.6438(8) 0.1023 Uani
H138 H 0.9929 0.1797 0.6103 0.1230 Uiso
C159 C 0.9722(12) 0.2723(11) 0.6541(7) 0.0873 Uani
C160 C 0.9730(15) 0.2904(10) 0.7025(9) 0.1109 Uani
H139 H 0.9497 0.3496 0.7099 0.1330 Uiso
C162 C 0.9897(14) 0.4227(10) 0.6038(7) 0.1126 Uani
C163 C 0.9320(14) 0.4936(12) 0.5812(9) 0.1577 Uani
H141 H 0.8571 0.4928 0.5780 0.1870 Uiso
C164 C 0.9749(12) 0.5737(10) 0.5608(8) 0.1253 Uani
H142 H 0.9310 0.6265 0.5432 0.1520 Uiso
loop_
_atom_site_aniso_label
_atom_site_aniso_U_11
_atom_site_aniso_U_22
_atom_site_aniso_U_33
_atom_site_aniso_U_23
_atom_site_aniso_U_13
_atom_site_aniso_U_12
C90 0.155 0.084 0.051 0.011 -0.011 -0.063
N13 0.104 0.043 0.043 -0.006 -0.004 -0.024
N14 0.08 0.045 0.056 0 0.004 -0.028
C85 0.127 0.086 0.046 0.009 -0.015 -0.066
C86 0.102 0.075 0.048 0.006 -0.012 -0.04
C87 0.116 0.033 0.041 -0.005 0.024 -0.029
C88 0.151 0.059 0.053 0.008 -0.01 -0.052
C89 0.153 0.066 0.037 -0.007 0.011 -0.052
Zn7 0.0918 0.0354 0.0436 -0.0003 -0.0021 -0.026
O16 0.157 0.035 0.048 -0.013 0.012 -0.028
O17 0.138 0.065 0.05 0 -0.021 -0.032
O18 0.125 0.12 0.077 -0.056 0.027 -0.082
O21 0.062 0.051 0.043 0.008 -0.004 -0.008
O22 0.064 0.09 0.069 -0.01 -0.005 -0.034
O23 0.061 0.088 0.078 -0.033 0.014 -0.035
O24 0.074 0.051 0.055 -0.007 -0.009 -0.018
N17 0.073 0.041 0.042 -0.006 -0.009 -0.027
C99 0.104 0.055 0.039 0 -0.01 -0.043
C100 0.083 0.058 0.045 -0.013 -0.002 -0.025
C101 0.052 0.059 0.047 0.001 -0.015 -0.024
C102 0.083 0.058 0.032 -0.005 -0.003 -0.03
C103 0.073 0.057 0.038 0.006 -0.016 -0.03
C105 0.08 0.074 0.048 -0.009 -0.021 -0.006
C106 0.052 0.067 0.046 0.005 -0.004 -0.008
C127 0.138 0.05 0.052 -0.009 -0.003 -0.031
C128 0.071 0.054 0.056 -0.019 -0.005 -0.017
C129 0.085 0.062 0.062 -0.027 -0.006 -0.012
C130 0.089 0.068 0.089 -0.027 -0.009 -0.021
C131 0.08 0.086 0.05 -0.019 0.002 -0.045
C132 0.151 0.069 0.062 -0.02 -0.006 -0.029
C133 0.146 0.052 0.041 -0.005 -0.002 0
C134 0.087 0.07 0.068 -0.025 0.01 -0.047
C135 0.067 0.052 0.072 -0.028 0.003 -0.025
C139 0.05 0.13 0.081 -0.05 0.013 -0.047
C141 0.049 0.036 0.039 0.011 -0.008 -0.006
C142 0.042 0.05 0.046 0.005 0.005 -0.012
C143 0.057 0.042 0.061 -0.001 0.01 -0.01
C144 0.056 0.07 0.044 -0.01 -0.003 -0.014
C145 0.057 0.062 0.039 -0.011 0.006 -0.02
C146 0.055 0.076 0.066 -0.015 0.003 -0.027
C147 0.053 0.071 0.052 -0.018 0.005 -0.016
C148 0.051 0.063 0.052 -0.012 -0.002 -0.021
C149 0.081 0.064 0.064 -0.014 0.01 -0.035
C150 0.069 0.062 0.048 -0.014 -0.004 -0.017
C151 0.055 0.046 0.043 -0.009 -0.007 -0.019
C152 0.045 0.067 0.053 0.002 -0.017 -0.011
C153 0.047 0.07 0.057 -0.025 -0.005 -0.014
C154 0.053 0.058 0.047 -0.027 -0.011 -0.003
N2 0.058 0.052 0.04 -0.009 -0.005 -0.006
N3 0.046 0.077 0.048 -0.003 -0.008 0.005
C6 0.069 0.093 0.035 0 -0.012 -0.027
C9 0.06 0.068 0.045 0.002 0.001 -0.011
C10 0.034 0.059 0.057 -0.011 -0.008 0
C11 0.048 0.046 0.053 -0.01 -0.002 -0.004
C21 0.135 0.093 0.067 0.024 -0.01 -0.059
N4 0.049 0.048 0.056 -0.011 -0.004 -0.016
C12 0.054 0.056 0.05 -0.013 -0.003 -0.015
C13 0.052 0.055 0.045 -0.014 -0.007 -0.009
C14 0.059 0.067 0.036 -0.005 -0.007 -0.01
Zn10 0.0565 0.0468 0.05 -0.012 -0.007 -0.0123
Zn2 0.0553 0.035 0.046 -0.006 -0.0174 -0.011
O10 0.055 0.065 0.07 -0.005 -0.014 -0.009
O11 0.094 0.079 0.089 0.026 0.024 0.018
N7 0.045 0.035 0.051 -0.001 -0.011 -0.008
N8 0.063 0.045 0.031 -0.008 0.001 -0.002
N9 0.049 0.055 0.044 -0.011 -0.006 0.004
N10 0.05 0.055 0.058 -0.021 -0.011 -0.004
N11 0.056 0.037 0.048 -0.003 -0.021 -0.011
N12 0.081 0.049 0.051 0.004 -0.024 -0.033
C22 0.064 0.048 0.039 -0.001 -0.014 -0.015
C23 0.05 0.038 0.037 0 -0.007 -0.015
C24 0.051 0.048 0.038 0.003 -0.002 -0.016
C25 0.055 0.049 0.042 0.004 -0.004 -0.003
C26 0.068 0.041 0.038 0 -0.011 -0.007
C27 0.102 0.048 0.043 -0.008 -0.029 0.014
C28 0.063 0.039 0.044 -0.006 -0.005 -0.001
C29 0.068 0.04 0.054 0.002 -0.016 -0.008
C30 0.073 0.093 0.072 -0.023 -0.014 0.023
C31 0.055 0.066 0.037 -0.009 -0.005 -0.014
C32 0.059 0.055 0.072 -0.021 -0.029 -0.004
C33 0.059 0.062 0.079 -0.042 -0.009 0.007
C34 0.1 0.08 0.047 -0.02 -0.028 0.002
C35 0.061 0.076 0.07 -0.025 -0.02 0.014
C36 0.051 0.039 0.066 -0.013 -0.01 -0.017
C37 0.061 0.038 0.068 -0.006 -0.028 -0.012
C38 0.055 0.044 0.048 -0.005 -0.017 -0.012
C40 0.074 0.035 0.052 0.003 -0.032 -0.013
O32 0.056 0.053 0.051 -0.021 -0.005 -0.015
O34 0.055 0.067 0.06 -0.022 0.006 -0.027
O36 0.077 0.07 0.059 -0.008 -0.013 -0.027
O38 0.106 0.078 0.065 0.009 -0.024 -0.048
C42 0.175 0.086 0.071 0.027 -0.08 -0.083
C95 0.064 0.028 0.045 -0.003 -0.019 -0.013
C97 0.185 0.069 0.131 0.05 -0.119 -0.072
O27 0.142 0.125 0.119 -0.038 -0.022 -0.004
C155 0.093 0.058 0.18 0.02 -0.044 -0.034
C156 0.067 0.048 0.093 0.01 -0.034 -0.012
C157 0.078 0.042 0.18 -0.001 0.037 -0.034
C161 0.25 0.096 0.111 -0.004 -0.034 -0.109
C165 0.09 0.07 0.063 0.026 -0.034 -0.032
C166 0.065 0.052 0.093 -0.009 -0.023 -0.012
C167 0.071 0.052 0.143 0.03 -0.05 -0.02
C168 0.114 0.053 0.041 0.002 -0.022 -0.03
C136 0.046 0.065 0.047 -0.005 -0.003 -0.006
C137 0.061 0.05 0.041 -0.004 -0.009 -0.018
C138 0.05 0.071 0.066 -0.039 -0.002 -0.007
C140 0.078 0.046 0.036 0.003 -0.016 -0.019
O4 0.056 0.053 0.051 -0.021 -0.005 -0.015
O5 0.055 0.067 0.06 -0.022 0.006 -0.027
C52 0.046 0.065 0.047 -0.005 -0.003 -0.006
C53 0.061 0.05 0.041 -0.004 -0.009 -0.018
C54 0.05 0.071 0.066 -0.039 -0.002 -0.007
C56 0.078 0.046 0.036 0.003 -0.016 -0.019
Zn13 0.0565 0.0468 0.05 -0.012 -0.007 -0.0123
O12 0.142 0.125 0.119 -0.038 -0.022 -0.004
O14 0.077 0.07 0.059 -0.008 -0.013 -0.027
O15 0.106 0.078 0.065 0.009 -0.024 -0.048
C39 0.064 0.028 0.045 -0.003 -0.019 -0.013
C41 0.185 0.069 0.131 0.05 -0.119 -0.072
C71 0.093 0.058 0.18 0.02 -0.044 -0.034
C72 0.067 0.048 0.093 0.01 -0.034 -0.012
C73 0.078 0.042 0.18 -0.001 0.037 -0.034
C77 0.25 0.096 0.111 -0.004 -0.034 -0.109
C81 0.09 0.07 0.063 0.026 -0.034 -0.032
C82 0.065 0.052 0.093 -0.009 -0.023 -0.012
C83 0.071 0.052 0.143 0.03 -0.05 -0.02
C84 0.114 0.053 0.041 0.002 -0.022 -0.03
C98 0.175 0.086 0.071 0.027 -0.08 -0.083
N15 0.056 0.037 0.048 -0.003 -0.021 -0.011
N16 0.081 0.049 0.051 0.004 -0.024 -0.033
C92 0.051 0.039 0.066 -0.013 -0.01 -0.017
C93 0.061 0.038 0.068 -0.006 -0.028 -0.012
C94 0.055 0.044 0.048 -0.005 -0.017 -0.012
C96 0.074 0.035 0.052 0.003 -0.032 -0.013
Zn5 0.0553 0.035 0.046 -0.006 -0.0174 -0.011
O25 0.055 0.065 0.07 -0.005 -0.014 -0.009
O26 0.094 0.079 0.089 0.026 0.024 0.018
N21 0.045 0.035 0.051 -0.001 -0.011 -0.008
N22 0.063 0.045 0.031 -0.008 0.001 -0.002
N23 0.049 0.055 0.044 -0.011 -0.006 0.004
N24 0.05 0.055 0.058 -0.021 -0.011 -0.004
C113 0.064 0.048 0.039 -0.001 -0.014 -0.015
C114 0.05 0.038 0.037 0 -0.007 -0.015
C115 0.051 0.048 0.038 0.003 -0.002 -0.016
C116 0.055 0.049 0.042 0.004 -0.004 -0.003
C117 0.068 0.041 0.038 0 -0.011 -0.007
C118 0.102 0.048 0.043 -0.008 -0.029 0.014
C119 0.063 0.039 0.044 -0.006 -0.005 -0.001
C120 0.068 0.04 0.054 0.002 -0.016 -0.008
C121 0.073 0.093 0.072 -0.023 -0.014 0.023
C122 0.055 0.066 0.037 -0.009 -0.005 -0.014
C123 0.059 0.055 0.072 -0.021 -0.029 -0.004
C124 0.059 0.062 0.079 -0.042 -0.009 0.007
C125 0.1 0.08 0.047 -0.02 -0.028 0.002
C126 0.061 0.076 0.07 -0.025 -0.02 0.014
N26 0.049 0.048 0.056 -0.011 -0.004 -0.016
C110 0.054 0.056 0.05 -0.013 -0.003 -0.015
C111 0.052 0.055 0.045 -0.014 -0.007 -0.009
C112 0.059 0.067 0.036 -0.005 -0.007 -0.01
C91 0.135 0.093 0.067 0.024 -0.01 -0.059
N18 0.058 0.052 0.04 -0.009 -0.005 -0.006
N19 0.046 0.077 0.048 -0.003 -0.008 0.005
C104 0.069 0.093 0.035 0 -0.012 -0.027
C107 0.06 0.068 0.045 0.002 0.001 -0.011
C108 0.034 0.059 0.057 -0.011 -0.008 0
C109 0.048 0.046 0.053 -0.01 -0.002 -0.004
Zn1 0.0918 0.0354 0.0436 -0.0003 -0.0021 -0.026
O1 0.157 0.035 0.048 -0.013 0.012 -0.028
O2 0.138 0.065 0.05 0 -0.021 -0.032
O3 0.125 0.12 0.077 -0.056 0.027 -0.082
O6 0.062 0.051 0.043 0.008 -0.004 -0.008
O7 0.064 0.09 0.069 -0.01 -0.005 -0.034
O8 0.061 0.088 0.078 -0.033 0.014 -0.035
O9 0.074 0.051 0.055 -0.007 -0.009 -0.018
N1 0.073 0.041 0.042 -0.006 -0.009 -0.027
N5 0.104 0.043 0.043 -0.006 -0.004 -0.024
N6 0.08 0.045 0.056 0 0.004 -0.028
C1 0.104 0.055 0.039 0 -0.01 -0.043
C2 0.083 0.058 0.045 -0.013 -0.002 -0.025
C3 0.052 0.059 0.047 0.001 -0.015 -0.024
C4 0.083 0.058 0.032 -0.005 -0.003 -0.03
C5 0.073 0.057 0.038 0.006 -0.016 -0.03
C7 0.08 0.074 0.048 -0.009 -0.021 -0.006
C8 0.052 0.067 0.046 0.005 -0.004 -0.008
C15 0.127 0.086 0.046 0.009 -0.015 -0.066
C16 0.102 0.075 0.048 0.006 -0.012 -0.04
C17 0.116 0.033 0.041 -0.005 0.024 -0.029
C18 0.151 0.059 0.053 0.008 -0.01 -0.052
C19 0.153 0.066 0.037 -0.007 0.011 -0.052
C43 0.138 0.05 0.052 -0.009 -0.003 -0.031
C44 0.071 0.054 0.056 -0.019 -0.005 -0.017
C45 0.085 0.062 0.062 -0.027 -0.006 -0.012
C46 0.089 0.068 0.089 -0.027 -0.009 -0.021
C47 0.08 0.086 0.05 -0.019 0.002 -0.045
C48 0.151 0.069 0.062 -0.02 -0.006 -0.029
C49 0.146 0.052 0.041 -0.005 -0.002 0
C50 0.087 0.07 0.068 -0.025 0.01 -0.047
C51 0.067 0.052 0.072 -0.028 0.003 -0.025
C55 0.05 0.13 0.081 -0.05 0.013 -0.047
C57 0.049 0.036 0.039 0.011 -0.008 -0.006
C58 0.042 0.05 0.046 0.005 0.005 -0.012
C59 0.057 0.042 0.061 -0.001 0.01 -0.01
C60 0.056 0.07 0.044 -0.01 -0.003 -0.014
C61 0.057 0.062 0.039 -0.011 0.006 -0.02
C62 0.055 0.076 0.066 -0.015 0.003 -0.027
C63 0.053 0.071 0.052 -0.018 0.005 -0.016
C64 0.051 0.063 0.052 -0.012 -0.002 -0.021
C65 0.081 0.064 0.064 -0.014 0.01 -0.035
C66 0.069 0.062 0.048 -0.014 -0.004 -0.017
C67 0.055 0.046 0.043 -0.009 -0.007 -0.019
C68 0.045 0.067 0.053 0.002 -0.017 -0.011
C69 0.047 0.07 0.057 -0.025 -0.005 -0.014
C70 0.053 0.058 0.047 -0.027 -0.011 -0.003
C20 0.155 0.084 0.051 0.011 -0.011 -0.063
O13 0.123 0.092 0.138 0.048 -0.063 -0.041
C74 0.103 0.101 0.122 -0.026 -0.009 -0.061
C75 0.078 0.068 0.103 0.044 -0.046 -0.024
C76 0.131 0.041 0.152 -0.01 0.004 -0.021
C78 0.106 0.077 0.137 0.071 -0.053 -0.049
C79 0.088 0.112 0.24 0.103 -0.078 -0.051
C80 0.076 0.075 0.2 0.076 -0.054 -0.043
O28 0.123 0.092 0.138 0.048 -0.063 -0.041
C158 0.103 0.101 0.122 -0.026 -0.009 -0.061
C159 0.078 0.068 0.103 0.044 -0.046 -0.024
C160 0.131 0.041 0.152 -0.01 0.004 -0.021
C162 0.106 0.077 0.137 0.071 -0.053 -0.049
C163 0.088 0.112 0.24 0.103 -0.078 -0.051
C164 0.076 0.075 0.2 0.076 -0.054 -0.043
loop_
_geom_bond_atom_site_label_1
_geom_bond_atom_site_label_2
_geom_bond_site_symmetry_1
_geom_bond_site_symmetry_2
H77 C90 1_555 1_555
N13 C85 1_555 1_555
N14 C87 1_555 1_555
C85 H73 1_555 1_555
C86 C85 1_555 1_555
H74 C86 1_555 1_555
C87 C86 1_555 1_555
C88 C87 1_555 1_555
C89 N13 1_555 1_555
H76 C89 1_555 1_555
Zn7 N13 1_555 1_555
C88 C89 1_555 1_555
Zn7 O16 1_555 1_555
O16 C127 1_555 1_555
O17 C127 1_555 1_555
O18 C131 1_555 1_555
O21 Zn7 1_555 1_555
O22 C141 1_555 1_555
O23 C145 1_555 1_555
N17 Zn7 1_555 1_555
C99 N17 1_555 1_555
H89 C99 1_555 1_555
C100 C99 1_555 1_555
H90 C100 1_555 1_555
C101 C100 1_555 1_555
C102 C101 1_555 1_555
H91 C102 1_555 1_555
C103 N17 1_555 1_555
H92 C103 1_555 1_555
H95 C105 1_555 1_555
C106 C105 1_555 1_555
H97 C106 1_555 1_555
H98 C106 1_555 1_555
C127 C128 1_555 1_555
C128 C129 1_555 1_555
C129 H121 1_555 1_555
C130 C129 1_555 1_555
H122 C130 1_555 1_555
C131 C130 1_555 1_555
C132 C131 1_555 1_555
H123 C132 1_555 1_555
C133 C128 1_555 1_555
H124 C133 1_555 1_555
C134 O18 1_555 1_555
C135 C134 1_555 1_555
H125 C135 1_555 1_555
C139 C134 1_555 1_555
H128 C139 1_555 1_555
C141 O21 1_555 1_555
C142 C141 1_555 1_555
C143 C142 1_555 1_555
H129 C143 1_555 1_555
C144 C143 1_555 1_555
C145 C144 1_555 1_555
C146 C145 1_555 1_555
H131 C146 1_555 1_555
C147 C142 1_555 1_555
H132 C147 1_555 1_555
C148 O23 1_555 1_555
C149 C148 1_555 1_555
H133 C149 1_555 1_555
C150 C149 1_555 1_555
H134 C150 1_555 1_555
C151 C150 1_555 1_555
C152 C151 1_555 1_555
H135 C152 1_555 1_555
C153 C148 1_555 1_555
H136 C153 1_555 1_555
C154 O24 1_555 1_555
C102 C103 1_555 1_555
C132 C133 1_555 1_555
C146 C147 1_555 1_555
C151 C154 1_555 1_555
C152 C153 1_555 1_555
C6 N2 1_555 1_555
H5 C6 1_555 1_555
H6 C6 1_555 1_555
C9 N3 1_555 1_555
H11 C9 1_555 1_555
H12 C9 1_555 1_555
C10 N3 1_555 1_555
C11 C10 1_555 1_555
H23 C21 1_555 1_555
H24 C21 1_555 1_555
C6 C9 1_555 1_555
N4 C12 1_555 1_555
H14 C12 1_555 1_555
C13 N4 1_555 1_555
H15 C13 1_555 1_555
Zn10 N4 1_555 1_555
C13 C14 1_555 1_555
Zn10 N10 1_555 1_555
O11 Zn2 1_555 1_555
N7 Zn2 1_555 1_555
N8 C24 1_555 1_555
N9 C29 1_555 1_555
N10 C33 1_555 1_555
N11 Zn2 1_555 1_555
N12 C38 1_555 1_555
C22 N7 1_555 1_555
H25 C22 1_555 1_555
C23 C22 1_555 1_555
H26 C23 1_555 1_555
C24 C23 1_555 1_555
C25 C24 1_555 1_555
H27 C25 1_555 1_555
C26 N7 1_555 1_555
H28 C26 1_555 1_555
C27 N8 1_555 1_555
H29 C27 1_555 1_555
H30 C27 1_555 1_555
C28 N8 1_555 1_555
H31 C28 1_555 1_555
H32 C28 1_555 1_555
C29 C28 1_555 1_555
H33 C29 1_555 1_555
H34 C29 1_555 1_555
C30 N9 1_555 1_555
H35 C30 1_555 1_555
H36 C30 1_555 1_555
C31 N9 1_555 1_555
C32 C31 1_555 1_555
H37 C32 1_555 1_555
C33 C32 1_555 1_555
H38 C33 1_555 1_555
C34 N10 1_555 1_555
H39 C34 1_555 1_555
C35 C31 1_555 1_555
H40 C35 1_555 1_555
C36 N11 1_555 1_555
H41 C36 1_555 1_555
C37 C36 1_555 1_555
H42 C37 1_555 1_555
C38 C37 1_555 1_555
C40 N11 1_555 1_555
O32 Zn10 1_555 1_555
O34 Zn10 1_555 1_555
O36 Zn10 1_555 1_555
O38 Zn10 1_555 1_555
C25 C26 1_555 1_555
C27 C30 1_555 1_555
C34 C35 1_555 1_555
H47 C42 1_555 1_555
H48 C42 1_555 1_555
H83 C95 1_555 1_555
C97 C42 1_555 1_555
H85 C97 1_555 1_555
H86 C97 1_555 1_555
O27 C155 1_555 1_555
O36 C168 1_555 1_555
O38 C168 1_555 1_555
C156 C155 1_555 1_555
C157 C156 1_555 1_555
H137 C157 1_555 1_555
C161 C156 1_555 1_555
H140 C161 1_555 1_555
C166 C165 1_555 1_555
H143 C166 1_555 1_555
H144 C167 1_555 1_555
C168 C165 1_555 1_555
C166 C167 1_555 1_555
O32 C140 1_555 1_555
O34 C140 1_555 1_555
H126 C136 1_555 1_555
C137 C136 1_555 1_555
C138 C137 1_555 1_555
H127 C138 1_555 1_555
C140 C137 1_555 1_555
O4 C56 1_555 1_555
O5 C56 1_555 1_555
H54 C52 1_555 1_555
C53 C52 1_555 1_555
C54 C53 1_555 1_555
H55 C54 1_555 1_555
C56 C53 1_555 1_555
Zn13 O4 1_555 1_555
O5 Zn13 1_555 1_555
O12 C71 1_555 1_555
O14 C84 1_555 1_555
O15 C84 1_555 1_555
H43 C39 1_555 1_555
H45 C41 1_555 1_555
H46 C41 1_555 1_555
C72 C71 1_555 1_555
C73 C72 1_555 1_555
H65 C73 1_555 1_555
C77 C72 1_555 1_555
H68 C77 1_555 1_555
C82 C81 1_555 1_555
H71 C82 1_555 1_555
H72 C83 1_555 1_555
C84 C81 1_555 1_555
C98 C41 1_555 1_555
H87 C98 1_555 1_555
H88 C98 1_555 1_555
Zn13 O14 1_555 1_555
O15 Zn13 1_555 1_555
C82 C83 1_555 1_555
N15 C92 1_555 1_555
N16 C94 1_555 1_555
C92 H81 1_555 1_555
C93 C92 1_555 1_555
H82 C93 1_555 1_555
C94 C93 1_555 1_555
C96 N15 1_555 1_555
Zn5 N15 1_555 1_555
Zn13 N24 1_555 1_555
O26 Zn5 1_555 1_555
N21 Zn5 1_555 1_555
N22 C115 1_555 1_555
N23 C120 1_555 1_555
N24 C124 1_555 1_555
C113 N21 1_555 1_555
H105 C113 1_555 1_555
C114 C113 1_555 1_555
H106 C114 1_555 1_555
C115 C114 1_555 1_555
C116 C115 1_555 1_555
H107 C116 1_555 1_555
C117 N21 1_555 1_555
H108 C117 1_555 1_555
C118 N22 1_555 1_555
H109 C118 1_555 1_555
H110 C118 1_555 1_555
C119 N22 1_555 1_555
H111 C119 1_555 1_555
H112 C119 1_555 1_555
C120 C119 1_555 1_555
H113 C120 1_555 1_555
H114 C120 1_555 1_555
C121 N23 1_555 1_555
H115 C121 1_555 1_555
H116 C121 1_555 1_555
C122 N23 1_555 1_555
C123 C122 1_555 1_555
H117 C123 1_555 1_555
C124 C123 1_555 1_555
H118 C124 1_555 1_555
C125 N24 1_555 1_555
H119 C125 1_555 1_555
C126 C122 1_555 1_555
H120 C126 1_555 1_555
N26 Zn13 1_555 1_555
C116 C117 1_555 1_555
C118 C121 1_555 1_555
C125 C126 1_555 1_555
N26 C110 1_555 1_555
H102 C110 1_555 1_555
C111 N26 1_555 1_555
H103 C111 1_555 1_555
C111 C112 1_555 1_555
H79 C91 1_555 1_555
H80 C91 1_555 1_555
C104 N18 1_555 1_555
H93 C104 1_555 1_555
H94 C104 1_555 1_555
C107 N19 1_555 1_555
H99 C107 1_555 1_555
H100 C107 1_555 1_555
C108 N19 1_555 1_555
C109 C108 1_555 1_555
C104 C107 1_555 1_555
Zn1 O1 1_555 1_555
O1 C43 1_555 1_555
O2 C43 1_555 1_555
O3 C47 1_555 1_555
O6 Zn1 1_555 1_555
O7 C57 1_555 1_555
O8 C61 1_555 1_555
O9 C70 1_555 1_555
N1 Zn1 1_555 1_555
N5 Zn1 1_555 1_555
N6 C17 1_555 1_555
C1 N1 1_555 1_555
H1 C1 1_555 1_555
C2 C1 1_555 1_555
H2 C2 1_555 1_555
C3 C2 1_555 1_555
C4 C3 1_555 1_555
H3 C4 1_555 1_555
C5 N1 1_555 1_555
H4 C5 1_555 1_555
H7 C7 1_555 1_555
C8 C7 1_555 1_555
H9 C8 1_555 1_555
H10 C8 1_555 1_555
C15 N5 1_555 1_555
H17 C15 1_555 1_555
C16 C15 1_555 1_555
H18 C16 1_555 1_555
C17 C16 1_555 1_555
C18 C17 1_555 1_555
C19 N5 1_555 1_555
H20 C19 1_555 1_555
C43 C44 1_555 1_555
C44 C45 1_555 1_555
C45 H49 1_555 1_555
C46 C45 1_555 1_555
H50 C46 1_555 1_555
C47 C46 1_555 1_555
C48 C47 1_555 1_555
H51 C48 1_555 1_555
C49 C44 1_555 1_555
H52 C49 1_555 1_555
C50 O3 1_555 1_555
C51 C50 1_555 1_555
H53 C51 1_555 1_555
C55 C50 1_555 1_555
H56 C55 1_555 1_555
C57 O6 1_555 1_555
C58 C57 1_555 1_555
C59 C58 1_555 1_555
H57 C59 1_555 1_555
C60 C59 1_555 1_555
C61 C60 1_555 1_555
C62 C61 1_555 1_555
H59 C62 1_555 1_555
C63 C58 1_555 1_555
H60 C63 1_555 1_555
C64 O8 1_555 1_555
C65 C64 1_555 1_555
H61 C65 1_555 1_555
C66 C65 1_555 1_555
H62 C66 1_555 1_555
C67 C66 1_555 1_555
C68 C67 1_555 1_555
H63 C68 1_555 1_555
C69 C64 1_555 1_555
H64 C69 1_555 1_555
C70 C67 1_555 1_555
C4 C5 1_555 1_555
C18 C19 1_555 1_555
C48 C49 1_555 1_555
C62 C63 1_555 1_555
C68 C69 1_555 1_555
H21 C20 1_555 1_555
O13 C75 1_555 1_555
H66 C74 1_555 1_555
C75 C74 1_555 1_555
C76 C75 1_555 1_555
H67 C76 1_555 1_555
C78 O13 1_555 1_555
C79 C78 1_555 1_555
H69 C79 1_555 1_555
C80 C79 1_555 1_555
H70 C80 1_555 1_555
O28 C159 1_555 1_555
H138 C158 1_555 1_555
C159 C158 1_555 1_555
C160 C159 1_555 1_555
H139 C160 1_555 1_555
C162 O28 1_555 1_555
C163 C162 1_555 1_555
H141 C163 1_555 1_555
C164 C163 1_555 1_555
H142 C164 1_555 1_555

#END
