
###############################################################################
#
# This file contains modified crystal structure data generated from the
# MOF subset of the Cambridge Structural Database (CSD) v543 
# hosted by the Cambridge Crystallographic Data Centre (CCDC).
#
# This work is licensed under the Creative Commons
# Attribution-NonCommercial-ShareAlike 4.0 International License.
# To view a copy of this license, visit
# http://creativecommons.org/licenses/by-nc-sa/4.0/
# or send a letter to
# Creative Commons, PO Box 1866, Mountain View, CA 94042, USA.
#
# CIF created using the CSD Python API on 29 September 2022
# The structure has been converted into the P1 space group
# The structure has a 3D framework
# The original CSD entry BUQSEO is in the triclinic crystal system
# The framework has been calculated to contain at least 10.0% void space
# The void calculation uses a probe of radius 1.32A, grid spacing 0.4
#
###############################################################################

data_BUQSEO
_chemical_formula_moiety         '(C168 H144 N24 O30 Zn6)n'
_symmetry_cell_setting           triclinic
_symmetry_space_group_name_H-M   'P 1'
_symmetry_Int_Tables_number      1
_space_group_name_Hall           'P 1'
loop_
_symmetry_equiv_pos_site_id
_symmetry_equiv_pos_as_xyz
1 x,y,z
_cell_length_a                   12.1818(14)
_cell_length_b                   15.8710(16)
_cell_length_c                   26.587(3)
_cell_angle_alpha                76.731(5)
_cell_angle_beta                 84.818(5)
_cell_angle_gamma                78.673(5)
_cell_volume                     4900.07
loop_
_atom_site_label
_atom_site_type_symbol
_atom_site_fract_x
_atom_site_fract_y
_atom_site_fract_z
_atom_site_U_iso_or_equiv
_atom_site_thermal_displace_type
O2 O 0.0295(4) 0.0715(3) 0.31010(18) 0.0923 Uani
O4 O 0.0484(9) 0.7292(4) 0.0147(3) 0.1990 Uani
O5 O 0.2044(9) 0.6563(4) 0.0476(3) 0.1556 Uani
H17 H 0.2559 0.0280 0.3218 0.0810 Uiso
C16 C 0.3388(5) 0.0128(4) 0.3853(2) 0.0589 Uani
H18 H 0.3663 0.0665 0.3745 0.0710 Uiso
C21 C 0.4735(10) 0.0602(6) 0.4547(3) 0.1580 Uani
H23 H 0.5070 0.0681 0.4190 0.1890 Uiso
H24 H 0.4067 0.1073 0.4543 0.1890 Uiso
C43 C 0.0536(6) 0.0595(5) 0.2664(3) 0.0735 Uani
C44 C 0.0297(5) 0.1356(4) 0.2205(2) 0.0631 Uani
C45 C 0.0242(5) 0.1267(5) 0.1707(3) 0.0803 Uani
H49 H 0.0412 0.0695 0.1635 0.0970 Uiso
C49 C 0.0084(7) 0.2182(5) 0.2307(3) 0.0933 Uani
H52 H 0.0127 0.2261 0.2647 0.1120 Uiso
C51 C 0.0881(8) 0.4235(4) 0.1009(3) 0.1125 Uani
H53 H 0.1339 0.3722 0.1194 0.1350 Uiso
C52 C 0.1239(8) 0.5015(5) 0.0843(3) 0.1148 Uani
H54 H 0.1990 0.5036 0.0903 0.1380 Uiso
C53 C 0.0558(10) 0.5801(4) 0.0587(2) 0.1017 Uani
C56 C 0.1071(17) 0.6623(7) 0.0373(4) 0.1796 Uani
N13 N 0.7673(4) 0.0850(3) 0.63498(16) 0.0563 Uani
N14 N 0.5666(4) 0.0228(3) 0.53407(16) 0.0682 Uani
C85 C 0.7265(5) 0.0113(4) 0.6460(2) 0.0671 Uani
C87 C 0.6351(4) 0.0419(4) 0.5668(2) 0.0529 Uani
C88 C 0.6747(5) 0.1203(4) 0.55521(19) 0.0595 Uani
H75 H 0.6560 0.1615 0.5238 0.0710 Uiso
C89 C 0.7409(4) 0.1393(4) 0.5888(2) 0.0569 Uani
H76 H 0.7693 0.1927 0.5792 0.0690 Uiso
C90 C 0.5452(9) 0.0755(6) 0.4834(3) 0.1349 Uani
H77 H 0.6180 0.0729 0.4635 0.1620 Uiso
H78 H 0.5210 0.1372 0.4872 0.1620 Uiso
Zn7 Zn 0.87316(5) 0.10943(4) 0.68171(2) 0.0518 Uani
Zn13 Zn 0.25243(6) 0.76372(5) 0.99878(3) 0.0766 Uani
O14 O 0.3701(3) 0.8140(2) 0.02572(14) 0.0593 Uani
O15 O 0.2050(4) 0.8523(3) 0.06521(18) 0.0849 Uani
C80 C 0.2896(5) 0.9692(4) 0.1097(2) 0.0619 Uani
H70 H 0.2171 0.9574 0.1215 0.0740 Uiso
C81 C 0.3514(4) 0.9225(3) 0.07570(18) 0.0492 Uani
C82 C 0.4592(6) 0.9379(5) 0.0606(2) 0.0852 Uani
H71 H 0.5069 0.9022 0.0403 0.1030 Uiso
C84 C 0.3068(5) 0.8578(4) 0.0549(2) 0.0560 Uani
C97 C 0.0253(8) 0.9667(5) 0.5513(2) 0.1067 Uani
H85 H 0.0968 0.9240 0.5535 0.1280 Uiso
H88 H 0.0113 0.9099 0.4603 0.1630 Uiso
N22 N 0.0371(5) 0.2914(4) 0.7874(2) 0.0785 Uani
N23 N 0.1004(4) 0.1200(5) 0.8525(2) 0.0854 Uani
H107 H 0.0073 0.3231 0.6885 0.0790 Uiso
C118 C 0.0939(6) 0.2153(5) 0.7664(2) 0.0811 Uani
H109 H 0.1396 0.2355 0.7348 0.0970 Uiso
H110 H 0.0375 0.1852 0.7569 0.0970 Uiso
C119 C 0.0241(7) 0.2776(5) 0.8436(3) 0.0946 Uani
H111 H 0.0921 0.2879 0.8573 0.1130 Uiso
C120 C 0.0062(5) 0.1864(5) 0.8671(2) 0.0785 Uani
C121 C 0.1663(6) 0.1535(6) 0.8049(3) 0.1036 Uani
H115 H 0.2056 0.1034 0.7900 0.1240 Uiso
H116 H 0.2235 0.1834 0.8139 0.1240 Uiso
C122 C 0.1266(5) 0.0389(5) 0.8822(3) 0.0713 Uani
C123 C 0.0560(5) 0.0057(5) 0.9242(3) 0.0677 Uani
H120 H 0.2813 0.0020 0.8473 0.1080 Uiso
N24 N 0.1854(4) 0.8712(4) 0.9469(2) 0.0772 Uani
C124 C 0.0897(5) 0.9239(5) 0.9539(3) 0.0690 Uani
H118 H 0.0405 0.9032 0.9818 0.0830 Uiso
C125 C 0.2501(7) 0.9002(6) 0.9076(4) 0.1084 Uani
H119 H 0.3174 0.8618 0.9010 0.1300 Uiso
C126 C 0.2287(5) 0.9837(6) 0.8742(3) 0.0904 Uani
N26 N 0.3512(5) 0.6905(4) 0.9501(3) 0.1106 Uani
O16 O 0.8951(4) 0.0116(3) 0.74351(16) 0.0753 Uani
O22 O 0.9310(4) 0.2525(3) 0.60632(16) 0.0733 Uani
N17 N 0.7896(4) 0.2050(3) 0.71813(15) 0.0507 Uani
N18 N 0.6187(4) 0.3877(3) 0.80247(17) 0.0626 Uani
N19 N 0.5115(5) 0.5113(4) 0.8622(3) 0.0847 Uani
C99 C 0.7343(5) 0.2859(4) 0.69445(19) 0.0563 Uani
H89 H 0.7348 0.3003 0.6577 0.0670 Uiso
C100 C 0.6793(5) 0.3460(3) 0.72024(19) 0.0544 Uani
H90 H 0.6427 0.4014 0.7016 0.0650 Uiso
C101 C 0.6753(5) 0.3284(3) 0.7739(2) 0.0521 Uani
C102 C 0.7349(6) 0.2459(4) 0.7982(2) 0.0727 Uani
H91 H 0.7369 0.2301 0.8348 0.0870 Uiso
C103 C 0.7891(5) 0.1893(4) 0.7693(2) 0.0621 Uani
H92 H 0.8296 0.1346 0.7868 0.0740 Uiso
C104 C 0.6313(11) 0.3716(6) 0.8555(3) 0.1767 Uani
H93 H 0.7107 0.3708 0.8613 0.2120 Uiso
H94 H 0.6153 0.3121 0.8711 0.2120 Uiso
C105 C 0.5638(7) 0.4732(4) 0.7780(3) 0.0971 Uani
H95 H 0.6189 0.5133 0.7708 0.1170 Uiso
H96 H 0.5376 0.4703 0.7444 0.1170 Uiso
C106 C 0.4688(10) 0.5103(7) 0.8083(4) 0.1627 Uani
H97 H 0.4373 0.5709 0.7901 0.1950 Uiso
H98 H 0.4095 0.4742 0.8131 0.1950 Uiso
C107 C 0.5669(12) 0.4288(9) 0.8805(5) 0.1867 Uani
H99 H 0.5086 0.3968 0.8997 0.2240 Uiso
H100 H 0.6149 0.4349 0.9071 0.2240 Uiso
C108 C 0.4602(5) 0.5667(5) 0.8912(3) 0.0859 Uani
C109 C 0.3626(8) 0.6328(6) 0.8676(5) 0.1405 Uani
H101 H 0.3371 0.6328 0.8348 0.1680 Uiso
C110 C 0.3113(9) 0.6943(7) 0.8966(4) 0.1442 Uani
H102 H 0.2510 0.7391 0.8829 0.1730 Uiso
C111 C 0.4406(6) 0.6551(7) 0.9536(3) 0.1361 Uani
H103 H 0.4824 0.6695 0.9780 0.1630 Uiso
C112 C 0.4972(6) 0.5929(8) 0.9266(4) 0.1525 Uani
H104 H 0.5719 0.5674 0.9359 0.1830 Uiso
Zn1 Zn 0.12684(5) 0.89057(4) 0.31829(2) 0.0518 Uani
O1 O 0.1049(4) 0.9884(3) 0.25649(16) 0.0753 Uani
O7 O 0.0690(4) 0.7475(3) 0.39368(16) 0.0733 Uani
N1 N 0.2104(4) 0.7950(3) 0.28187(15) 0.0507 Uani
N2 N 0.3813(4) 0.6123(3) 0.19753(17) 0.0626 Uani
N3 N 0.4885(5) 0.4887(4) 0.1378(3) 0.0847 Uani
N4 N 0.6488(5) 0.3095(4) 0.0499(3) 0.1106 Uani
N5 N 0.2327(4) 0.9150(3) 0.36502(16) 0.0563 Uani
N6 N 0.4334(4) 0.9772(3) 0.46593(16) 0.0682 Uani
C1 C 0.2657(5) 0.7141(4) 0.30555(19) 0.0563 Uani
H1 H 0.2652 0.6997 0.3423 0.0670 Uiso
C2 C 0.3207(5) 0.6540(3) 0.27976(19) 0.0544 Uani
H2 H 0.3573 0.5986 0.2984 0.0650 Uiso
C3 C 0.3247(5) 0.6716(3) 0.2261(2) 0.0521 Uani
C4 C 0.2651(6) 0.7541(4) 0.2018(2) 0.0727 Uani
H3 H 0.2631 0.7699 0.1652 0.0870 Uiso
C5 C 0.2109(5) 0.8107(4) 0.2307(2) 0.0621 Uani
H4 H 0.1704 0.8654 0.2132 0.0740 Uiso
C6 C 0.3687(11) 0.6284(6) 0.1445(3) 0.1767 Uani
H5 H 0.2893 0.6292 0.1387 0.2120 Uiso
H6 H 0.3847 0.6879 0.1289 0.2120 Uiso
C7 C 0.4362(7) 0.5268(4) 0.2220(3) 0.0971 Uani
H7 H 0.3811 0.4867 0.2292 0.1170 Uiso
H8 H 0.4624 0.5297 0.2556 0.1170 Uiso
C8 C 0.5312(10) 0.4897(7) 0.1917(4) 0.1627 Uani
H9 H 0.5627 0.4291 0.2099 0.1950 Uiso
H10 H 0.5905 0.5258 0.1869 0.1950 Uiso
C9 C 0.4331(12) 0.5712(9) 0.1195(5) 0.1867 Uani
H11 H 0.4914 0.6032 0.1003 0.2240 Uiso
H12 H 0.3851 0.5651 0.0929 0.2240 Uiso
C10 C 0.5398(5) 0.4333(5) 0.1088(3) 0.0859 Uani
C11 C 0.6374(8) 0.3672(6) 0.1324(5) 0.1405 Uani
H13 H 0.6629 0.3672 0.1652 0.1680 Uiso
C12 C 0.6887(9) 0.3057(7) 0.1034(4) 0.1442 Uani
H14 H 0.7490 0.2609 0.1171 0.1730 Uiso
C13 C 0.5594(6) 0.3449(7) 0.0464(3) 0.1361 Uani
H15 H 0.5176 0.3305 0.0220 0.1630 Uiso
C14 C 0.5028(6) 0.4071(8) 0.0734(4) 0.1525 Uani
H16 H 0.4281 0.4326 0.0641 0.1830 Uiso
C15 C 0.2735(5) 0.9887(4) 0.3540(2) 0.0671 Uani
C17 C 0.3649(4) 0.9581(4) 0.4332(2) 0.0529 Uani
C18 C 0.3253(5) 0.8797(4) 0.44479(19) 0.0595 Uani
H19 H 0.3440 0.8385 0.4762 0.0710 Uiso
C19 C 0.2591(4) 0.8607(4) 0.4112(2) 0.0569 Uani
H20 H 0.2307 0.8073 0.4208 0.0690 Uiso
C20 C 0.4548(9) 0.9245(6) 0.5166(3) 0.1349 Uani
H21 H 0.3820 0.9271 0.5365 0.1620 Uiso
H22 H 0.4790 0.8628 0.5128 0.1620 Uiso
H73 H 0.7441 0.9720 0.6782 0.0810 Uiso
C86 C 0.6612(5) 0.9872(4) 0.6147(2) 0.0589 Uani
H74 H 0.6337 0.9335 0.6255 0.0710 Uiso
C91 C 0.5265(10) 0.9398(6) 0.5453(3) 0.1580 Uani
H79 H 0.4930 0.9319 0.5810 0.1890 Uiso
H80 H 0.5933 0.8927 0.5457 0.1890 Uiso
Zn10 Zn 0.74757(6) 0.23628(5) 0.00122(3) 0.0766 Uani
N10 N 0.8146(4) 0.1288(4) 0.0531(2) 0.0772 Uani
C33 C 0.9103(5) 0.0761(5) 0.0461(3) 0.0690 Uani
H38 H 0.9595 0.0968 0.0182 0.0830 Uiso
C34 C 0.7499(7) 0.0998(6) 0.0924(4) 0.1084 Uani
H39 H 0.6826 0.1382 0.0990 0.1300 Uiso
C35 C 0.7713(5) 0.0163(6) 0.1258(3) 0.0904 Uani
O32 O 0.7956(9) 0.3437(4) 0.9524(3) 0.1556 Uani
O34 O 0.6299(3) 0.1860(2) 0.97428(14) 0.0593 Uani
O36 O 0.7950(4) 0.1477(3) 0.93479(18) 0.0849 Uani
N8 N 0.9629(5) 0.7086(4) 0.2126(2) 0.0785 Uani
N9 N 0.8996(4) 0.8800(5) 0.1475(2) 0.0854 Uani
H27 H 0.9927 0.6769 0.3115 0.0790 Uiso
C27 C 0.9061(6) 0.7847(5) 0.2336(2) 0.0811 Uani
H29 H 0.8604 0.7645 0.2652 0.0970 Uiso
H30 H 0.9625 0.8148 0.2431 0.0970 Uiso
C28 C 0.9759(7) 0.7224(5) 0.1564(3) 0.0946 Uani
H31 H 0.9079 0.7121 0.1427 0.1130 Uiso
C29 C 0.9938(5) 0.8136(5) 0.1329(2) 0.0785 Uani
C30 C 0.8337(6) 0.8465(6) 0.1951(3) 0.1036 Uani
H35 H 0.7944 0.8966 0.2100 0.1240 Uiso
H36 H 0.7765 0.8166 0.1861 0.1240 Uiso
C31 C 0.8734(5) 0.9611(5) 0.1178(3) 0.0713 Uani
C32 C 0.9440(5) 0.9943(5) 0.0758(3) 0.0677 Uani
H40 H 0.7187 0.9980 0.1527 0.1080 Uiso
C41 C 0.9747(8) 0.0333(5) 0.4487(2) 0.1067 Uani
H45 H 0.9032 0.0760 0.4465 0.1280 Uiso
H48 H 0.9887 0.0901 0.5397 0.1630 Uiso
C164 C 0.7104(5) 0.0308(4) 0.8903(2) 0.0619 Uani
H142 H 0.7829 0.0426 0.8785 0.0740 Uiso
C165 C 0.6486(4) 0.0775(3) 0.92430(18) 0.0492 Uani
C166 C 0.5408(6) 0.0621(5) 0.9394(2) 0.0852 Uani
H143 H 0.4931 0.0978 0.9597 0.1030 Uiso
C168 C 0.6932(5) 0.1422(4) 0.9451(2) 0.0560 Uani
O17 O 0.9705(4) 0.9285(3) 0.68990(18) 0.0923 Uani
O19 O 0.9516(9) 0.2708(4) 0.9853(3) 0.1990 Uani
C127 C 0.9464(6) 0.9405(5) 0.7336(3) 0.0735 Uani
C128 C 0.9703(5) 0.8644(4) 0.7795(2) 0.0631 Uani
C129 C 0.9758(5) 0.8733(5) 0.8293(3) 0.0803 Uani
H121 H 0.9588 0.9305 0.8365 0.0970 Uiso
C133 C 0.9916(7) 0.7818(5) 0.7693(3) 0.0933 Uani
H124 H 0.9873 0.7739 0.7353 0.1120 Uiso
C135 C 0.9119(8) 0.5765(4) 0.8991(3) 0.1125 Uani
H125 H 0.8661 0.6278 0.8806 0.1350 Uiso
C136 C 0.8761(8) 0.4985(5) 0.9157(3) 0.1148 Uani
H126 H 0.8010 0.4964 0.9097 0.1380 Uiso
C137 C 0.9442(10) 0.4199(4) 0.9413(2) 0.1017 Uani
C140 C 0.8929(17) 0.3377(7) 0.9627(4) 0.1796 Uani
O3 O 0.9344(6) 0.3465(4) 0.1007(2) 0.1294 Uani
C46 C 0.9953(7) 0.1974(5) 0.1314(3) 0.0951 Uani
H50 H 0.9902 0.1901 0.0973 0.1140 Uiso
C47 C 0.9739(7) 0.2786(5) 0.1421(3) 0.0959 Uani
C48 C 0.9796(7) 0.2920(5) 0.1891(4) 0.1019 Uani
H51 H 0.9646 0.3501 0.1950 0.1220 Uiso
C50 C 0.9830(8) 0.4246(5) 0.0890(3) 0.1081 Uani
C54 C 0.9470(12) 0.5802(7) 0.0499(5) 0.1733 Uani
H55 H 0.8991 0.6325 0.0340 0.2080 Uiso
C55 C 0.9106(9) 0.5039(8) 0.0647(4) 0.1414 Uani
H56 H 0.8353 0.5018 0.0592 0.1700 Uiso
Zn2 Zn 0.25715(6) 0.38694(4) 0.34725(2) 0.0636 Uani
O6 O 0.9793(3) 0.8677(3) 0.34543(17) 0.0747 Uani
O8 O 0.5651(3) 0.7098(3) 0.46352(16) 0.0752 Uani
O9 O 0.3689(4) 0.4427(2) 0.36793(14) 0.0672 Uani
O10 O 0.2392(4) 0.4634(3) 0.42929(16) 0.0738 Uani
O11 O 0.3179(4) 0.3388(3) 0.28658(15) 0.0799 Uani
O12 O 0.4134(5) 0.2169(3) 0.3383(2) 0.1139 Uani
O13 O 0.4653(6) 0.1271(5) 0.1130(3) 0.1710 Uani
N7 N 0.1444(4) 0.4846(3) 0.30757(17) 0.0634 Uani
N11 N 0.1837(4) 0.2912(3) 0.39037(16) 0.0656 Uani
N12 N 0.0553(4) 0.0685(3) 0.47164(16) 0.0706 Uani
C22 C 0.1295(7) 0.4887(5) 0.2567(2) 0.0816 Uani
H25 H 0.1624 0.4391 0.2428 0.0980 Uiso
C23 C 0.0694(6) 0.5609(5) 0.2241(2) 0.0819 Uani
H26 H 0.0639 0.5600 0.1888 0.0980 Uiso
C24 C 0.0168(6) 0.6354(5) 0.2431(2) 0.0707 Uani
C25 C 0.0279(5) 0.6296(4) 0.2960(2) 0.0653 Uani
C26 C 0.0904(5) 0.5546(4) 0.3258(2) 0.0652 Uani
H28 H 0.0952 0.5529 0.3614 0.0780 Uiso
H32 H 0.0405 0.6797 0.1467 0.1130 Uiso
H33 H 0.0647 0.8224 0.1447 0.0940 Uiso
H34 H 0.0007 0.8218 0.0948 0.0940 Uiso
H37 H 0.0142 0.9600 0.0684 0.0810 Uiso
C36 C 0.1967(6) 0.2603(4) 0.4400(2) 0.0760 Uani
H41 H 0.2366 0.2898 0.4575 0.0920 Uiso
C37 C 0.1565(6) 0.1879(4) 0.4683(2) 0.0781 Uani
H42 H 0.1703 0.1683 0.5041 0.0940 Uiso
C38 C 0.0954(5) 0.1428(4) 0.44471(19) 0.0643 Uani
C39 C 0.0804(6) 0.1750(4) 0.3924(2) 0.0810 Uani
H43 H 0.0403 0.1471 0.3739 0.0970 Uiso
C40 C 0.1245(6) 0.2483(4) 0.3674(2) 0.0812 Uani
H44 H 0.1124 0.2698 0.3315 0.0980 Uiso
H46 H 0.0022 0.0306 0.4128 0.1280 Uiso
C42 C 0.0475(9) 0.0452(6) 0.5278(2) 0.1355 Uani
H47 H 0.1194 0.0506 0.5403 0.1630 Uiso
C57 C 0.9825(6) 0.7952(5) 0.3783(2) 0.0647 Uani
C58 C 0.8699(5) 0.7720(4) 0.3984(2) 0.0637 Uani
C59 C 0.7740(5) 0.8332(4) 0.3898(2) 0.0696 Uani
H57 H 0.7772 0.8906 0.3698 0.0830 Uiso
C60 C 0.6699(6) 0.8112(4) 0.4106(3) 0.0776 Uani
H58 H 0.6027 0.8533 0.4045 0.0930 Uiso
C61 C 0.6676(6) 0.7269(4) 0.4402(2) 0.0682 Uani
C62 C 0.7667(6) 0.6652(4) 0.4487(2) 0.0689 Uani
H59 H 0.7657 0.6080 0.4695 0.0830 Uiso
C63 C 0.8641(5) 0.6884(4) 0.4270(2) 0.0648 Uani
H60 H 0.9310 0.6456 0.4315 0.0780 Uiso
C64 C 0.5157(5) 0.6481(3) 0.4496(2) 0.0565 Uani
C65 C 0.5538(5) 0.6092(3) 0.40802(19) 0.0553 Uani
H61 H 0.6206 0.6216 0.3889 0.0660 Uiso
C66 C 0.4957(5) 0.5530(3) 0.39448(19) 0.0538 Uani
H62 H 0.5217 0.5270 0.3658 0.0650 Uiso
C67 C 0.3970(5) 0.5336(3) 0.4232(2) 0.0516 Uani
C68 C 0.3640(5) 0.5712(3) 0.4641(2) 0.0633 Uani
H63 H 0.2988 0.5574 0.4842 0.0760 Uiso
C69 C 0.4205(5) 0.6284(4) 0.4778(2) 0.0708 Uani
H64 H 0.3941 0.6541 0.5065 0.0850 Uiso
C70 C 0.3315(6) 0.4739(3) 0.4073(2) 0.0617 Uani
C71 C 0.3762(7) 0.2613(5) 0.2963(3) 0.0846 Uani
C72 C 0.3654(8) 0.2726(7) 0.2004(4) 0.1264 Uani
H65 H 0.3290 0.3320 0.1983 0.1520 Uiso
C73 C 0.3887(8) 0.2412(8) 0.1544(4) 0.1365 Uani
H66 H 0.3757 0.2783 0.1211 0.1640 Uiso
C74 C 0.4306(8) 0.1551(7) 0.1611(4) 0.1107 Uani
C75 C 0.4628(12) 0.1046(8) 0.2022(4) 0.1610 Uani
H67 H 0.4905 0.0442 0.2026 0.1930 Uiso
C76 C 0.4588(13) 0.1382(7) 0.2529(4) 0.2113 Uani
H68 H 0.4956 0.1066 0.2834 0.2540 Uiso
C77 C 0.3917(7) 0.2233(5) 0.2465(3) 0.0924 Uani
C78 C 0.4261(7) 0.0541(6) 0.1046(3) 0.1114 Uani
C79 C 0.3288(6) 0.0316(5) 0.1271(3) 0.0876 Uani
H69 H 0.2896 0.0581 0.1538 0.1050 Uiso
C83 C 0.4968(7) 0.0041(8) 0.0746(4) 0.1578 Uani
H72 H 0.5700 0.0156 0.0641 0.1890 Uiso
N15 N 0.8163(4) 0.7088(3) 0.60963(16) 0.0656 Uani
N16 N 0.9447(4) 0.9315(3) 0.52836(16) 0.0706 Uani
C92 C 0.8033(6) 0.7397(4) 0.5600(2) 0.0760 Uani
H81 H 0.7634 0.7102 0.5425 0.0920 Uiso
C93 C 0.8435(6) 0.8121(4) 0.5317(2) 0.0781 Uani
H82 H 0.8297 0.8317 0.4959 0.0940 Uiso
C94 C 0.9046(5) 0.8572(4) 0.55529(19) 0.0643 Uani
C95 C 0.9196(6) 0.8250(4) 0.6076(2) 0.0810 Uani
H83 H 0.9597 0.8529 0.6261 0.0970 Uiso
C96 C 0.8755(6) 0.7517(4) 0.6326(2) 0.0812 Uani
H84 H 0.8876 0.7302 0.6685 0.0980 Uiso
H86 H 0.9978 0.9694 0.5872 0.1280 Uiso
C98 C 0.9525(9) 0.9548(6) 0.4722(2) 0.1355 Uani
H87 H 0.8806 0.9494 0.4597 0.1630 Uiso
Zn5 Zn 0.74285(6) 0.61306(4) 0.65275(2) 0.0636 Uani
O21 O 0.0207(3) 0.1323(3) 0.65457(17) 0.0747 Uani
O23 O 0.4349(3) 0.2902(3) 0.53648(16) 0.0752 Uani
O24 O 0.6311(4) 0.5573(2) 0.63207(14) 0.0672 Uani
O25 O 0.7608(4) 0.5366(3) 0.57071(16) 0.0738 Uani
O26 O 0.6821(4) 0.6612(3) 0.71342(15) 0.0799 Uani
O27 O 0.5866(5) 0.7831(3) 0.6617(2) 0.1139 Uani
O28 O 0.5347(6) 0.8729(5) 0.8870(3) 0.1710 Uani
N21 N 0.8556(4) 0.5154(3) 0.69243(17) 0.0634 Uani
C113 C 0.8705(7) 0.5113(5) 0.7433(2) 0.0816 Uani
H105 H 0.8376 0.5609 0.7572 0.0980 Uiso
C114 C 0.9306(6) 0.4391(5) 0.7759(2) 0.0819 Uani
H106 H 0.9361 0.4400 0.8112 0.0980 Uiso
C115 C 0.9832(6) 0.3646(5) 0.7569(2) 0.0707 Uani
C116 C 0.9721(5) 0.3704(4) 0.7040(2) 0.0653 Uani
C117 C 0.9096(5) 0.4454(4) 0.6742(2) 0.0652 Uani
H108 H 0.9048 0.4471 0.6386 0.0780 Uiso
H112 H 0.9595 0.3203 0.8533 0.1130 Uiso
H113 H 0.9353 0.1776 0.8553 0.0940 Uiso
H114 H 0.9993 0.1782 0.9052 0.0940 Uiso
H117 H 0.9858 0.0400 0.9316 0.0810 Uiso
C141 C 0.0175(6) 0.2048(5) 0.6217(2) 0.0647 Uani
C142 C 0.1301(5) 0.2280(4) 0.6016(2) 0.0637 Uani
C143 C 0.2260(5) 0.1668(4) 0.6102(2) 0.0696 Uani
H129 H 0.2228 0.1094 0.6302 0.0830 Uiso
C144 C 0.3301(6) 0.1888(4) 0.5894(3) 0.0776 Uani
H130 H 0.3973 0.1467 0.5955 0.0930 Uiso
C145 C 0.3324(6) 0.2731(4) 0.5598(2) 0.0682 Uani
C146 C 0.2333(6) 0.3348(4) 0.5513(2) 0.0689 Uani
H131 H 0.2343 0.3920 0.5305 0.0830 Uiso
C147 C 0.1359(5) 0.3116(4) 0.5730(2) 0.0648 Uani
H132 H 0.0690 0.3544 0.5685 0.0780 Uiso
C148 C 0.4843(5) 0.3519(3) 0.5504(2) 0.0565 Uani
C149 C 0.4462(5) 0.3908(3) 0.59198(19) 0.0553 Uani
H133 H 0.3794 0.3784 0.6111 0.0660 Uiso
C150 C 0.5043(5) 0.4470(3) 0.60552(19) 0.0538 Uani
H134 H 0.4783 0.4730 0.6342 0.0650 Uiso
C151 C 0.6030(5) 0.4664(3) 0.5768(2) 0.0516 Uani
C152 C 0.6360(5) 0.4288(3) 0.5359(2) 0.0633 Uani
H135 H 0.7012 0.4426 0.5158 0.0760 Uiso
C153 C 0.5795(5) 0.3716(4) 0.5222(2) 0.0708 Uani
H136 H 0.6059 0.3459 0.4935 0.0850 Uiso
C154 C 0.6685(6) 0.5261(3) 0.5927(2) 0.0617 Uani
C155 C 0.6238(7) 0.7387(5) 0.7037(3) 0.0846 Uani
C156 C 0.6346(8) 0.7274(7) 0.7996(4) 0.1264 Uani
H137 H 0.6710 0.6680 0.8017 0.1520 Uiso
C157 C 0.6113(8) 0.7588(8) 0.8456(4) 0.1365 Uani
H138 H 0.6243 0.7217 0.8789 0.1640 Uiso
C158 C 0.5694(8) 0.8449(7) 0.8389(4) 0.1107 Uani
C159 C 0.5372(12) 0.8954(8) 0.7978(4) 0.1610 Uani
H139 H 0.5095 0.9558 0.7974 0.1930 Uiso
C160 C 0.5412(13) 0.8618(7) 0.7471(4) 0.2113 Uani
H140 H 0.5044 0.8934 0.7166 0.2540 Uiso
C161 C 0.6083(7) 0.7767(5) 0.7535(3) 0.0924 Uani
C162 C 0.5739(7) 0.9459(6) 0.8954(3) 0.1114 Uani
C163 C 0.6712(6) 0.9684(5) 0.8729(3) 0.0876 Uani
H141 H 0.7104 0.9419 0.8462 0.1050 Uiso
C167 C 0.5032(7) 0.9959(8) 0.9254(4) 0.1578 Uani
H144 H 0.4300 0.9844 0.9359 0.1890 Uiso
O18 O 0.0656(6) 0.6535(4) 0.8993(2) 0.1294 Uani
C130 C 0.0047(7) 0.8026(5) 0.8686(3) 0.0951 Uani
H122 H 0.0098 0.8099 0.9027 0.1140 Uiso
C131 C 0.0261(7) 0.7214(5) 0.8579(3) 0.0959 Uani
C132 C 0.0204(7) 0.7080(5) 0.8109(4) 0.1019 Uani
H123 H 0.0354 0.6499 0.8050 0.1220 Uiso
C134 C 0.0170(8) 0.5754(5) 0.9110(3) 0.1081 Uani
C138 C 0.0530(12) 0.4198(7) 0.9501(5) 0.1733 Uani
H127 H 0.1009 0.3675 0.9660 0.2080 Uiso
C139 C 0.0894(9) 0.4961(8) 0.9353(4) 0.1414 Uani
H128 H 0.1647 0.4982 0.9408 0.1700 Uiso
loop_
_atom_site_aniso_label
_atom_site_aniso_U_11
_atom_site_aniso_U_22
_atom_site_aniso_U_33
_atom_site_aniso_U_23
_atom_site_aniso_U_13
_atom_site_aniso_U_12
O2 0.121 0.087 0.083 -0.037 0.005 -0.035
O4 0.42 0.063 0.123 0.017 -0.134 -0.054
O5 0.316 0.092 0.087 -0.02 -0.051 -0.085
C16 0.063 0.061 0.06 -0.005 -0.014 -0.033
C21 0.278 0.139 0.094 0.045 -0.104 -0.166
C43 0.086 0.084 0.076 -0.048 0.007 -0.045
C44 0.056 0.067 0.072 -0.016 -0.017 -0.017
C45 0.079 0.069 0.112 -0.048 -0.01 -0.023
C49 0.14 0.078 0.081 -0.036 -0.026 -0.034
C51 0.156 0.047 0.144 -0.001 -0.094 -0.025
C52 0.172 0.08 0.118 -0.048 -0.059 -0.029
C53 0.213 0.034 0.055 -0.006 -0.044 -0.002
C56 0.41 0.091 0.073 -0.016 -0.097 -0.093
N13 0.065 0.07 0.048 -0.021 0.001 -0.038
N14 0.096 0.082 0.042 -0.006 -0.016 -0.056
C85 0.086 0.068 0.054 0.006 -0.023 -0.044
C87 0.054 0.066 0.051 -0.023 -0.001 -0.029
C88 0.069 0.08 0.041 -0.009 -0.004 -0.045
C89 0.062 0.065 0.056 -0.023 0.005 -0.033
C90 0.22 0.129 0.08 0.04 -0.085 -0.128
Zn7 0.0651 0.0608 0.0428 -0.0198 -0.0005 -0.0337
Zn13 0.053 0.0644 0.126 -0.0546 -0.0252 0.0067
O14 0.05 0.061 0.073 -0.04 -0.0072 0.007
O15 0.058 0.105 0.107 -0.054 -0.002 -0.016
C80 0.064 0.066 0.059 -0.023 0.022 -0.02
C81 0.053 0.057 0.04 -0.021 0.014 -0.011
C82 0.084 0.122 0.082 -0.077 0.039 -0.051
C84 0.054 0.068 0.051 -0.023 -0.007 -0.009
C97 0.192 0.122 0.042 -0.013 0.013 -0.128
N22 0.078 0.105 0.062 -0.05 0.001 -0.004
N23 0.056 0.122 0.08 -0.052 -0.004 0.015
C118 0.076 0.098 0.066 -0.03 -0.002 0.006
C119 0.119 0.097 0.073 -0.043 -0.023 0.005
C120 0.074 0.087 0.07 -0.036 -0.007 0.02
C121 0.089 0.138 0.079 -0.051 0.001 0.021
C122 0.059 0.084 0.074 -0.048 -0.025 0.026
C123 0.046 0.093 0.076 -0.054 -0.014 0.006
N24 0.052 0.107 0.094 -0.075 -0.018 0.004
C124 0.049 0.081 0.09 -0.048 -0.019 -0.001
C125 0.079 0.131 0.122 -0.092 -0.06 0.066
C126 0.061 0.127 0.074 -0.046 -0.006 0.035
N26 0.045 0.102 0.224 -0.117 -0.012 -0.008
O16 0.086 0.066 0.08 -0.028 0.014 -0.022
O22 0.068 0.1 0.064 -0.03 0.009 -0.035
N17 0.064 0.055 0.038 -0.009 0.002 -0.026
N18 0.073 0.061 0.052 -0.014 -0.003 -0.006
N19 0.081 0.053 0.12 -0.031 -0.008 0.004
C99 0.076 0.069 0.031 -0.01 0.002 -0.033
C100 0.07 0.048 0.045 -0.001 -0.005 -0.02
C101 0.065 0.039 0.053 -0.009 -0.007 -0.01
C102 0.106 0.071 0.039 -0.015 -0.013 -0.003
C103 0.086 0.058 0.04 -0.015 -0.009 0
C104 0.312 0.119 0.069 -0.063 -0.075 0.113
C105 0.141 0.05 0.085 -0.011 0.006 0.01
C106 0.189 0.144 0.157 -0.085 -0.085 0.062
C107 0.196 0.191 0.163 -0.046 -0.009 -0.002
C108 0.043 0.079 0.154 -0.065 0.008 -0.014
C109 0.13 0.104 0.217 -0.105 -0.064 0.016
C110 0.131 0.13 0.204 -0.101 -0.043 -0.009
C111 0.045 0.263 0.141 -0.146 0.014 -0.013
C112 0.054 0.279 0.147 -0.149 -0.029 0.048
Zn1 0.0651 0.0608 0.0428 -0.0198 -0.0005 -0.0337
O1 0.086 0.066 0.08 -0.028 0.014 -0.022
O7 0.068 0.1 0.064 -0.03 0.009 -0.035
N1 0.064 0.055 0.038 -0.009 0.002 -0.026
N2 0.073 0.061 0.052 -0.014 -0.003 -0.006
N3 0.081 0.053 0.12 -0.031 -0.008 0.004
N4 0.045 0.102 0.224 -0.117 -0.012 -0.008
N5 0.065 0.07 0.048 -0.021 0.001 -0.038
N6 0.096 0.082 0.042 -0.006 -0.016 -0.056
C1 0.076 0.069 0.031 -0.01 0.002 -0.033
C2 0.07 0.048 0.045 -0.001 -0.005 -0.02
C3 0.065 0.039 0.053 -0.009 -0.007 -0.01
C4 0.106 0.071 0.039 -0.015 -0.013 -0.003
C5 0.086 0.058 0.04 -0.015 -0.009 0
C6 0.312 0.119 0.069 -0.063 -0.075 0.113
C7 0.141 0.05 0.085 -0.011 0.006 0.01
C8 0.189 0.144 0.157 -0.085 -0.085 0.062
C9 0.196 0.191 0.163 -0.046 -0.009 -0.002
C10 0.043 0.079 0.154 -0.065 0.008 -0.014
C11 0.13 0.104 0.217 -0.105 -0.064 0.016
C12 0.131 0.13 0.204 -0.101 -0.043 -0.009
C13 0.045 0.263 0.141 -0.146 0.014 -0.013
C14 0.054 0.279 0.147 -0.149 -0.029 0.048
C15 0.086 0.068 0.054 0.006 -0.023 -0.044
C17 0.054 0.066 0.051 -0.023 -0.001 -0.029
C18 0.069 0.08 0.041 -0.009 -0.004 -0.045
C19 0.062 0.065 0.056 -0.023 0.005 -0.033
C20 0.22 0.129 0.08 0.04 -0.085 -0.128
C86 0.063 0.061 0.06 -0.005 -0.014 -0.033
C91 0.278 0.139 0.094 0.045 -0.104 -0.166
Zn10 0.053 0.0644 0.126 -0.0546 -0.0252 0.0067
N10 0.052 0.107 0.094 -0.075 -0.018 0.004
C33 0.049 0.081 0.09 -0.048 -0.019 -0.001
C34 0.079 0.131 0.122 -0.092 -0.06 0.066
C35 0.061 0.127 0.074 -0.046 -0.006 0.035
O32 0.316 0.092 0.087 -0.02 -0.051 -0.085
O34 0.05 0.061 0.073 -0.04 -0.0072 0.007
O36 0.058 0.105 0.107 -0.054 -0.002 -0.016
N8 0.078 0.105 0.062 -0.05 0.001 -0.004
N9 0.056 0.122 0.08 -0.052 -0.004 0.015
C27 0.076 0.098 0.066 -0.03 -0.002 0.006
C28 0.119 0.097 0.073 -0.043 -0.023 0.005
C29 0.074 0.087 0.07 -0.036 -0.007 0.02
C30 0.089 0.138 0.079 -0.051 0.001 0.021
C31 0.059 0.084 0.074 -0.048 -0.025 0.026
C32 0.046 0.093 0.076 -0.054 -0.014 0.006
C41 0.192 0.122 0.042 -0.013 0.013 -0.128
C164 0.064 0.066 0.059 -0.023 0.022 -0.02
C165 0.053 0.057 0.04 -0.021 0.014 -0.011
C166 0.084 0.122 0.082 -0.077 0.039 -0.051
C168 0.054 0.068 0.051 -0.023 -0.007 -0.009
O17 0.121 0.087 0.083 -0.037 0.005 -0.035
O19 0.42 0.063 0.123 0.017 -0.134 -0.054
C127 0.086 0.084 0.076 -0.048 0.007 -0.045
C128 0.056 0.067 0.072 -0.016 -0.017 -0.017
C129 0.079 0.069 0.112 -0.048 -0.01 -0.023
C133 0.14 0.078 0.081 -0.036 -0.026 -0.034
C135 0.156 0.047 0.144 -0.001 -0.094 -0.025
C136 0.172 0.08 0.118 -0.048 -0.059 -0.029
C137 0.213 0.034 0.055 -0.006 -0.044 -0.002
C140 0.41 0.091 0.073 -0.016 -0.097 -0.093
O3 0.177 0.087 0.132 -0.011 -0.09 -0.02
C46 0.112 0.084 0.1 -0.029 -0.046 -0.014
C47 0.104 0.077 0.106 0.003 -0.061 -0.016
C48 0.135 0.059 0.127 -0.052 -0.026 -0.008
C50 0.134 0.06 0.129 -0.023 -0.061 0.013
C54 0.214 0.098 0.184 0.061 -0.104 -0.036
C55 0.13 0.141 0.134 -0.019 -0.06 0.033
Zn2 0.1083 0.0515 0.0451 -0.0205 0.0219 -0.0479
O6 0.08 0.078 0.082 -0.038 0.023 -0.04
O8 0.08 0.088 0.085 -0.059 0.038 -0.052
O9 0.099 0.052 0.062 -0.024 0.015 -0.036
O10 0.088 0.067 0.081 -0.027 0.025 -0.049
O11 0.144 0.045 0.059 -0.024 0.029 -0.037
O12 0.185 0.077 0.066 -0.004 0.035 -0.023
O13 0.204 0.232 0.158 -0.157 0.118 -0.155
N7 0.093 0.054 0.053 -0.021 0.017 -0.035
N11 0.113 0.065 0.038 -0.024 0.023 -0.059
N12 0.115 0.077 0.041 -0.019 0.023 -0.073
C22 0.126 0.069 0.062 -0.033 0.012 -0.032
C23 0.122 0.08 0.058 -0.041 0 -0.024
C24 0.086 0.08 0.058 -0.028 0.008 -0.033
C25 0.068 0.077 0.064 -0.034 0.013 -0.03
C26 0.087 0.07 0.051 -0.028 0.023 -0.038
C36 0.121 0.081 0.051 -0.032 0.026 -0.071
C37 0.14 0.076 0.041 -0.019 0.022 -0.078
C38 0.104 0.067 0.041 -0.026 0.035 -0.062
C39 0.139 0.086 0.046 -0.033 0.037 -0.084
C40 0.143 0.081 0.044 -0.024 0.021 -0.078
C42 0.255 0.166 0.035 -0.012 0.013 -0.177
C57 0.087 0.074 0.054 -0.038 0.018 -0.046
C58 0.085 0.076 0.052 -0.041 0.017 -0.044
C59 0.071 0.062 0.084 -0.02 0.002 -0.029
C60 0.07 0.065 0.104 -0.029 0.012 -0.022
C61 0.088 0.073 0.067 -0.05 0.03 -0.045
C62 0.083 0.067 0.071 -0.036 0.025 -0.036
C63 0.067 0.071 0.07 -0.041 0.032 -0.031
C64 0.068 0.055 0.059 -0.031 0.015 -0.027
C65 0.064 0.061 0.05 -0.026 0.014 -0.024
C66 0.074 0.05 0.045 -0.023 0.014 -0.022
C67 0.07 0.036 0.052 -0.008 0.01 -0.025
C68 0.074 0.05 0.075 -0.032 0.029 -0.026
C69 0.079 0.07 0.079 -0.043 0.044 -0.041
C70 0.098 0.045 0.049 -0.006 0.002 -0.037
C71 0.139 0.07 0.066 -0.041 0.056 -0.066
C72 0.15 0.157 0.094 -0.083 -0.009 -0.013
C73 0.145 0.199 0.106 -0.097 0.006 -0.058
C74 0.136 0.109 0.122 -0.078 0.035 -0.062
C75 0.271 0.149 0.074 -0.065 0.035 -0.036
C76 0.37 0.096 0.16 -0.067 0.16 -0.055
C77 0.144 0.066 0.082 -0.035 0.056 -0.06
C78 0.121 0.135 0.115 -0.088 0.053 -0.066
C79 0.094 0.094 0.096 -0.064 0.058 -0.045
C83 0.111 0.293 0.16 -0.186 0.105 -0.142
N15 0.113 0.065 0.038 -0.024 0.023 -0.059
N16 0.115 0.077 0.041 -0.019 0.023 -0.073
C92 0.121 0.081 0.051 -0.032 0.026 -0.071
C93 0.14 0.076 0.041 -0.019 0.022 -0.078
C94 0.104 0.067 0.041 -0.026 0.035 -0.062
C95 0.139 0.086 0.046 -0.033 0.037 -0.084
C96 0.143 0.081 0.044 -0.024 0.021 -0.078
C98 0.255 0.166 0.035 -0.012 0.013 -0.177
Zn5 0.1083 0.0515 0.0451 -0.0205 0.0219 -0.0479
O21 0.08 0.078 0.082 -0.038 0.023 -0.04
O23 0.08 0.088 0.085 -0.059 0.038 -0.052
O24 0.099 0.052 0.062 -0.024 0.015 -0.036
O25 0.088 0.067 0.081 -0.027 0.025 -0.049
O26 0.144 0.045 0.059 -0.024 0.029 -0.037
O27 0.185 0.077 0.066 -0.004 0.035 -0.023
O28 0.204 0.232 0.158 -0.157 0.118 -0.155
N21 0.093 0.054 0.053 -0.021 0.017 -0.035
C113 0.126 0.069 0.062 -0.033 0.012 -0.032
C114 0.122 0.08 0.058 -0.041 0 -0.024
C115 0.086 0.08 0.058 -0.028 0.008 -0.033
C116 0.068 0.077 0.064 -0.034 0.013 -0.03
C117 0.087 0.07 0.051 -0.028 0.023 -0.038
C141 0.087 0.074 0.054 -0.038 0.018 -0.046
C142 0.085 0.076 0.052 -0.041 0.017 -0.044
C143 0.071 0.062 0.084 -0.02 0.002 -0.029
C144 0.07 0.065 0.104 -0.029 0.012 -0.022
C145 0.088 0.073 0.067 -0.05 0.03 -0.045
C146 0.083 0.067 0.071 -0.036 0.025 -0.036
C147 0.067 0.071 0.07 -0.041 0.032 -0.031
C148 0.068 0.055 0.059 -0.031 0.015 -0.027
C149 0.064 0.061 0.05 -0.026 0.014 -0.024
C150 0.074 0.05 0.045 -0.023 0.014 -0.022
C151 0.07 0.036 0.052 -0.008 0.01 -0.025
C152 0.074 0.05 0.075 -0.032 0.029 -0.026
C153 0.079 0.07 0.079 -0.043 0.044 -0.041
C154 0.098 0.045 0.049 -0.006 0.002 -0.037
C155 0.139 0.07 0.066 -0.041 0.056 -0.066
C156 0.15 0.157 0.094 -0.083 -0.009 -0.013
C157 0.145 0.199 0.106 -0.097 0.006 -0.058
C158 0.136 0.109 0.122 -0.078 0.035 -0.062
C159 0.271 0.149 0.074 -0.065 0.035 -0.036
C160 0.37 0.096 0.16 -0.067 0.16 -0.055
C161 0.144 0.066 0.082 -0.035 0.056 -0.06
C162 0.121 0.135 0.115 -0.088 0.053 -0.066
C163 0.094 0.094 0.096 -0.064 0.058 -0.045
C167 0.111 0.293 0.16 -0.186 0.105 -0.142
O18 0.177 0.087 0.132 -0.011 -0.09 -0.02
C130 0.112 0.084 0.1 -0.029 -0.046 -0.014
C131 0.104 0.077 0.106 0.003 -0.061 -0.016
C132 0.135 0.059 0.127 -0.052 -0.026 -0.008
C134 0.134 0.06 0.129 -0.023 -0.061 0.013
C138 0.214 0.098 0.184 0.061 -0.104 -0.036
C139 0.13 0.141 0.134 -0.019 -0.06 0.033
loop_
_geom_bond_atom_site_label_1
_geom_bond_atom_site_label_2
_geom_bond_site_symmetry_1
_geom_bond_site_symmetry_2
O2 C43 1_555 1_555
O4 C56 1_555 1_555
O5 C56 1_555 1_555
H18 C16 1_555 1_555
H23 C21 1_555 1_555
H24 C21 1_555 1_555
C43 C44 1_555 1_555
C44 C45 1_555 1_555
C45 H49 1_555 1_555
C49 C44 1_555 1_555
H52 C49 1_555 1_555
H53 C51 1_555 1_555
C52 C51 1_555 1_555
H54 C52 1_555 1_555
C53 C52 1_555 1_555
C56 C53 1_555 1_555
N13 C85 1_555 1_555
N14 C87 1_555 1_555
C88 C87 1_555 1_555
H75 C88 1_555 1_555
C89 N13 1_555 1_555
H76 C89 1_555 1_555
C90 C21 1_555 1_555
H77 C90 1_555 1_555
H78 C90 1_555 1_555
Zn7 N13 1_555 1_555
N14 C90 1_555 1_555
C88 C89 1_555 1_555
O14 C84 1_555 1_555
O15 C84 1_555 1_555
H70 C80 1_555 1_555
C81 C80 1_555 1_555
C82 C81 1_555 1_555
H71 C82 1_555 1_555
C84 C81 1_555 1_555
H85 C97 1_555 1_555
N23 C120 1_555 1_555
C118 N22 1_555 1_555
H109 C118 1_555 1_555
H110 C118 1_555 1_555
C119 N22 1_555 1_555
H111 C119 1_555 1_555
C120 C119 1_555 1_555
C121 N23 1_555 1_555
H115 C121 1_555 1_555
H116 C121 1_555 1_555
C122 N23 1_555 1_555
C123 C122 1_555 1_555
C118 C121 1_555 1_555
Zn13 N24 1_555 1_555
N24 C124 1_555 1_555
H118 C124 1_555 1_555
C125 N24 1_555 1_555
H119 C125 1_555 1_555
N26 Zn13 1_555 1_555
C125 C126 1_555 1_555
Zn7 O16 1_555 1_555
N17 Zn7 1_555 1_555
N18 C101 1_555 1_555
N19 C106 1_555 1_555
N26 C110 1_555 1_555
C99 N17 1_555 1_555
H89 C99 1_555 1_555
C100 C99 1_555 1_555
H90 C100 1_555 1_555
C101 C100 1_555 1_555
C102 C101 1_555 1_555
H91 C102 1_555 1_555
C103 N17 1_555 1_555
H92 C103 1_555 1_555
C104 N18 1_555 1_555
H93 C104 1_555 1_555
H94 C104 1_555 1_555
C105 N18 1_555 1_555
H95 C105 1_555 1_555
H96 C105 1_555 1_555
C106 C105 1_555 1_555
H97 C106 1_555 1_555
H98 C106 1_555 1_555
C107 N19 1_555 1_555
H99 C107 1_555 1_555
H100 C107 1_555 1_555
C108 N19 1_555 1_555
C109 C108 1_555 1_555
H101 C109 1_555 1_555
C110 C109 1_555 1_555
H102 C110 1_555 1_555
C111 N26 1_555 1_555
H103 C111 1_555 1_555
C112 C108 1_555 1_555
H104 C112 1_555 1_555
C102 C103 1_555 1_555
C104 C107 1_555 1_555
C111 C112 1_555 1_555
Zn1 O1 1_555 1_555
N1 Zn1 1_555 1_555
N2 C3 1_555 1_555
N3 C8 1_555 1_555
N4 C12 1_555 1_555
N5 Zn1 1_555 1_555
N6 C17 1_555 1_555
C1 N1 1_555 1_555
H1 C1 1_555 1_555
C2 C1 1_555 1_555
H2 C2 1_555 1_555
C3 C2 1_555 1_555
C4 C3 1_555 1_555
H3 C4 1_555 1_555
C5 N1 1_555 1_555
H4 C5 1_555 1_555
C6 N2 1_555 1_555
H5 C6 1_555 1_555
H6 C6 1_555 1_555
C7 N2 1_555 1_555
H7 C7 1_555 1_555
H8 C7 1_555 1_555
C8 C7 1_555 1_555
H9 C8 1_555 1_555
H10 C8 1_555 1_555
C9 N3 1_555 1_555
H11 C9 1_555 1_555
H12 C9 1_555 1_555
C10 N3 1_555 1_555
C11 C10 1_555 1_555
H13 C11 1_555 1_555
C12 C11 1_555 1_555
H14 C12 1_555 1_555
C13 N4 1_555 1_555
H15 C13 1_555 1_555
C14 C10 1_555 1_555
H16 C14 1_555 1_555
C15 N5 1_555 1_555
C18 C17 1_555 1_555
H19 C18 1_555 1_555
C19 N5 1_555 1_555
H20 C19 1_555 1_555
C20 N6 1_555 1_555
H21 C20 1_555 1_555
H22 C20 1_555 1_555
H74 C86 1_555 1_555
C91 C20 1_555 1_555
H79 C91 1_555 1_555
H80 C91 1_555 1_555
Zn10 N4 1_555 1_555
C4 C5 1_555 1_555
C6 C9 1_555 1_555
C13 C14 1_555 1_555
C18 C19 1_555 1_555
Zn10 N10 1_555 1_555
N10 C33 1_555 1_555
H38 C33 1_555 1_555
C34 N10 1_555 1_555
H39 C34 1_555 1_555
C34 C35 1_555 1_555
N9 C29 1_555 1_555
C27 N8 1_555 1_555
H29 C27 1_555 1_555
H30 C27 1_555 1_555
C28 N8 1_555 1_555
H31 C28 1_555 1_555
C29 C28 1_555 1_555
C30 N9 1_555 1_555
H35 C30 1_555 1_555
H36 C30 1_555 1_555
C31 N9 1_555 1_555
C32 C31 1_555 1_555
H45 C41 1_555 1_555
O34 C168 1_555 1_555
O36 C168 1_555 1_555
H142 C164 1_555 1_555
C165 C164 1_555 1_555
C166 C165 1_555 1_555
H143 C166 1_555 1_555
C168 C165 1_555 1_555
C27 C30 1_555 1_555
O17 C127 1_555 1_555
O19 C140 1_555 1_555
O32 C140 1_555 1_555
C127 C128 1_555 1_555
C128 C129 1_555 1_555
C129 H121 1_555 1_555
C133 C128 1_555 1_555
H124 C133 1_555 1_555
H125 C135 1_555 1_555
C136 C135 1_555 1_555
H126 C136 1_555 1_555
C137 C136 1_555 1_555
C140 C137 1_555 1_555
O3 C47 1_555 1_555
H50 C46 1_555 1_555
C47 C46 1_555 1_555
C48 C47 1_555 1_555
H51 C48 1_555 1_555
C50 O3 1_555 1_555
H55 C54 1_555 1_555
C55 C50 1_555 1_555
H56 C55 1_555 1_555
C54 C55 1_555 1_555
Zn2 O9 1_555 1_555
O8 C61 1_555 1_555
O9 C70 1_555 1_555
O10 C70 1_555 1_555
O11 Zn2 1_555 1_555
O12 C71 1_555 1_555
O13 C74 1_555 1_555
N7 Zn2 1_555 1_555
N11 Zn2 1_555 1_555
N12 C38 1_555 1_555
C22 N7 1_555 1_555
H25 C22 1_555 1_555
C23 C22 1_555 1_555
H26 C23 1_555 1_555
C24 C23 1_555 1_555
C25 C24 1_555 1_555
C26 N7 1_555 1_555
H28 C26 1_555 1_555
C36 N11 1_555 1_555
H41 C36 1_555 1_555
C37 C36 1_555 1_555
H42 C37 1_555 1_555
C38 C37 1_555 1_555
C39 C38 1_555 1_555
H43 C39 1_555 1_555
C40 N11 1_555 1_555
H44 C40 1_555 1_555
C42 N12 1_555 1_555
H47 C42 1_555 1_555
C57 O6 1_555 1_555
C58 C57 1_555 1_555
C59 C58 1_555 1_555
H57 C59 1_555 1_555
C60 C59 1_555 1_555
H58 C60 1_555 1_555
C61 C60 1_555 1_555
C62 C61 1_555 1_555
H59 C62 1_555 1_555
C63 C58 1_555 1_555
H60 C63 1_555 1_555
C64 O8 1_555 1_555
C65 C64 1_555 1_555
H61 C65 1_555 1_555
C66 C65 1_555 1_555
H62 C66 1_555 1_555
C67 C66 1_555 1_555
C68 C67 1_555 1_555
H63 C68 1_555 1_555
C69 C64 1_555 1_555
H64 C69 1_555 1_555
C70 C67 1_555 1_555
C71 O11 1_555 1_555
C72 H65 1_555 1_555
C73 C72 1_555 1_555
H66 C73 1_555 1_555
C74 C73 1_555 1_555
C75 C74 1_555 1_555
H67 C75 1_555 1_555
C76 C75 1_555 1_555
H68 C76 1_555 1_555
C77 C71 1_555 1_555
C78 O13 1_555 1_555
C79 C78 1_555 1_555
H69 C79 1_555 1_555
C83 C78 1_555 1_555
H72 C83 1_555 1_555
C25 C26 1_555 1_555
C39 C40 1_555 1_555
C62 C63 1_555 1_555
C68 C69 1_555 1_555
C72 C77 1_555 1_555
C76 C77 1_555 1_555
N15 C92 1_555 1_555
N16 C94 1_555 1_555
C92 H81 1_555 1_555
C93 C92 1_555 1_555
H82 C93 1_555 1_555
C94 C93 1_555 1_555
C95 C94 1_555 1_555
H83 C95 1_555 1_555
C96 N15 1_555 1_555
H84 C96 1_555 1_555
H87 C98 1_555 1_555
Zn5 N15 1_555 1_555
O23 C145 1_555 1_555
O24 Zn5 1_555 1_555
O25 C154 1_555 1_555
O26 Zn5 1_555 1_555
O27 C155 1_555 1_555
O28 C158 1_555 1_555
N21 Zn5 1_555 1_555
C113 N21 1_555 1_555
H105 C113 1_555 1_555
C114 C113 1_555 1_555
H106 C114 1_555 1_555
C115 C114 1_555 1_555
C116 C115 1_555 1_555
C117 N21 1_555 1_555
H108 C117 1_555 1_555
C141 O21 1_555 1_555
C142 C141 1_555 1_555
C143 C142 1_555 1_555
H129 C143 1_555 1_555
C144 C143 1_555 1_555
H130 C144 1_555 1_555
C145 C144 1_555 1_555
C146 C145 1_555 1_555
H131 C146 1_555 1_555
C147 C142 1_555 1_555
H132 C147 1_555 1_555
C148 O23 1_555 1_555
C149 C148 1_555 1_555
H133 C149 1_555 1_555
C150 C149 1_555 1_555
H134 C150 1_555 1_555
C151 C150 1_555 1_555
C152 C151 1_555 1_555
H135 C152 1_555 1_555
C153 C148 1_555 1_555
H136 C153 1_555 1_555
C154 O24 1_555 1_555
C155 O26 1_555 1_555
C156 H137 1_555 1_555
C157 C156 1_555 1_555
H138 C157 1_555 1_555
C158 C157 1_555 1_555
C159 C158 1_555 1_555
H139 C159 1_555 1_555
C160 C159 1_555 1_555
H140 C160 1_555 1_555
C161 C155 1_555 1_555
C162 O28 1_555 1_555
C163 C162 1_555 1_555
H141 C163 1_555 1_555
C167 C162 1_555 1_555
H144 C167 1_555 1_555
N16 C98 1_555 1_555
C95 C96 1_555 1_555
C116 C117 1_555 1_555
C146 C147 1_555 1_555
C151 C154 1_555 1_555
C152 C153 1_555 1_555
C156 C161 1_555 1_555
C160 C161 1_555 1_555
O18 C131 1_555 1_555
H122 C130 1_555 1_555
C131 C130 1_555 1_555
C132 C131 1_555 1_555
H123 C132 1_555 1_555
C134 O18 1_555 1_555
H127 C138 1_555 1_555
C139 C134 1_555 1_555
H128 C139 1_555 1_555
C138 C139 1_555 1_555

#END
