
###############################################################################
#
# This file contains modified crystal structure data generated from the
# MOF subset of the Cambridge Structural Database (CSD) v543 
# hosted by the Cambridge Crystallographic Data Centre (CCDC).
#
# This work is licensed under the Creative Commons
# Attribution-NonCommercial-ShareAlike 4.0 International License.
# To view a copy of this license, visit
# http://creativecommons.org/licenses/by-nc-sa/4.0/
# or send a letter to
# Creative Commons, PO Box 1866, Mountain View, CA 94042, USA.
#
# CIF created using the CSD Python API on 29 September 2022
# The structure has been converted into the P1 space group
# The structure has a 3D framework
# The original CSD entry BUQSIS is in the triclinic crystal system
# The framework has been calculated to contain at least 10.0% void space
# The void calculation uses a probe of radius 1.32A, grid spacing 0.4
#
###############################################################################

data_BUQSIS
_chemical_formula_moiety         '(C168 H144 N24 O30 Zn6)n'
_symmetry_cell_setting           triclinic
_symmetry_space_group_name_H-M   'P 1'
_symmetry_Int_Tables_number      1
_space_group_name_Hall           'P 1'
loop_
_symmetry_equiv_pos_site_id
_symmetry_equiv_pos_as_xyz
1 x,y,z
_cell_length_a                   12.3787(3)
_cell_length_b                   15.8239(4)
_cell_length_c                   26.0960(7)
_cell_angle_alpha                76.6920(10)
_cell_angle_beta                 86.5340(10)
_cell_angle_gamma                78.3580(10)
_cell_volume                     4871.54
loop_
_atom_site_label
_atom_site_type_symbol
_atom_site_fract_x
_atom_site_fract_y
_atom_site_fract_z
_atom_site_U_iso_or_equiv
_atom_site_thermal_displace_type
Zn13 Zn 0.25168(10) 0.73832(8) 0.00534(4) 0.0554 Uani
Zn1 Zn 0.22905(9) 0.12403(7) 0.65018(4) 0.0430 Uani
O1 O 0.1639(5) 0.1701(4) 0.7115(2) 0.0520 Uani
O2 O 0.0778(6) 0.2953(5) 0.6619(3) 0.0609 Uani
O3 O 0.0311(7) 0.3749(6) 0.8921(3) 0.1018 Uani
O4 O 0.1369(5) 0.6949(4) 0.9730(2) 0.0520 Uani
O5 O 0.2947(6) 0.6549(5) 0.9340(2) 0.0624 Uani
O6 O 0.1178(5) 0.0688(4) 0.6280(2) 0.0497 Uani
O7 O 0.2486(5) 0.0421(4) 0.5683(2) 0.0561 Uani
N1 N 0.3454(6) 0.0270(5) 0.6920(3) 0.0408 Uani
N5 N 0.3034(6) 0.2187(5) 0.6075(3) 0.0447 Uani
N6 N 0.4441(6) 0.4323(5) 0.5277(3) 0.0509 Uani
C1 C 0.3560(8) 0.0208(7) 0.7436(4) 0.0472 Uani
H1 H 0.3167 0.0681 0.7581 0.0560 Uiso
C15 C 0.3628(9) 0.2576(8) 0.6316(4) 0.0781 Uani
H17 H 0.3733 0.2359 0.6684 0.0940 Uiso
C16 C 0.4083(9) 0.3246(8) 0.6080(4) 0.0786 Uani
H18 H 0.4495 0.3495 0.6282 0.0940 Uiso
C17 C 0.3978(8) 0.3606(6) 0.5533(3) 0.0447 Uani
C18 C 0.3286(9) 0.3222(7) 0.5304(4) 0.0685 Uani
H19 H 0.3089 0.3453 0.4946 0.0820 Uiso
C19 C 0.2889(8) 0.2527(6) 0.5581(4) 0.0545 Uani
H20 H 0.2462 0.2260 0.5397 0.0650 Uiso
C20 C 0.4424(13) 0.4609(9) 0.4715(4) 0.1180 Uani
H21 H 0.4815 0.4100 0.4573 0.1420 Uiso
H22 H 0.3644 0.4717 0.4611 0.1420 Uiso
C21 C 0.5176(12) 0.4703(10) 0.5534(4) 0.1218 Uani
H23 H 0.4780 0.4860 0.5850 0.1460 Uiso
H24 H 0.5813 0.4224 0.5661 0.1460 Uiso
C43 C 0.1102(8) 0.2497(7) 0.7041(4) 0.0394 Uani
C44 C 0.0921(8) 0.2824(7) 0.7539(4) 0.0485 Uani
C45 C 0.0505(11) 0.3660(9) 0.7513(5) 0.0919 Uani
H49 H 0.0340 0.4040 0.7177 0.1100 Uiso
C46 C 0.0280(11) 0.4039(9) 0.7988(5) 0.0858 Uani
C47 C 0.0565(10) 0.3465(10) 0.8440(5) 0.0737 Uani
C48 C 0.0977(10) 0.2595(9) 0.8483(4) 0.0805 Uani
H51 H 0.1140 0.2211 0.8818 0.0970 Uiso
C49 C 0.1164(10) 0.2263(8) 0.8017(4) 0.0709 Uani
H52 H 0.1456 0.1653 0.8038 0.0850 Uiso
C50 C 0.0712(9) 0.4458(8) 0.8996(5) 0.0793 Uani
C51 C 0.1734(9) 0.4634(8) 0.8806(4) 0.0737 Uani
H53 H 0.2159 0.4296 0.8581 0.0880 Uiso
C52 C 0.2126(9) 0.5297(7) 0.8945(4) 0.0644 Uani
H54 H 0.2841 0.5396 0.8829 0.0780 Uiso
C53 C 0.1503(8) 0.5823(6) 0.9251(3) 0.0477 Uani
C54 C 0.0466(9) 0.5674(8) 0.9416(4) 0.0804 Uani
H55 H 0.0018 0.6040 0.9620 0.0960 Uiso
C55 C 0.0089(9) 0.5007(9) 0.9289(5) 0.0953 Uani
C56 C 0.1961(9) 0.6491(7) 0.9442(3) 0.0478 Uani
C57 C 0.1599(9) 0.0311(6) 0.5903(4) 0.0471 Uani
N13 N 0.6966(6) 0.7813(5) 0.3925(3) 0.0447 Uani
N14 N 0.5559(6) 0.5677(5) 0.4723(3) 0.0509 Uani
C85 C 0.6372(9) 0.7424(8) 0.3684(4) 0.0781 Uani
H73 H 0.6267 0.7641 0.3316 0.0940 Uiso
C86 C 0.5917(9) 0.6754(8) 0.3920(4) 0.0786 Uani
H74 H 0.5505 0.6505 0.3718 0.0940 Uiso
C87 C 0.6022(8) 0.6394(6) 0.4467(3) 0.0447 Uani
C88 C 0.6714(9) 0.6778(7) 0.4696(4) 0.0685 Uani
H75 H 0.6911 0.6547 0.5054 0.0820 Uiso
C89 C 0.7111(8) 0.7473(6) 0.4419(4) 0.0545 Uani
H76 H 0.7538 0.7740 0.4603 0.0650 Uiso
C90 C 0.5576(13) 0.5391(9) 0.5285(4) 0.1180 Uani
H77 H 0.5185 0.5900 0.5427 0.1420 Uiso
H78 H 0.6356 0.5283 0.5389 0.1420 Uiso
C91 C 0.4824(12) 0.5297(10) 0.4466(4) 0.1218 Uani
H79 H 0.5220 0.5140 0.4150 0.1460 Uiso
H80 H 0.4187 0.5776 0.4339 0.1460 Uiso
Zn7 Zn 0.77095(9) 0.87597(7) 0.34982(4) 0.0430 Uani
N2 N 0.5329(7) 0.8067(6) 0.7896(3) 0.0652 Uani
N3 N 0.5987(7) 0.6338(6) 0.8527(3) 0.0596 Uani
N4 N 0.6833(7) 0.3781(5) 0.9441(3) 0.0472 Uani
C2 C 0.4189(8) 0.9519(7) 0.7766(4) 0.0484 Uani
H2 H 0.4251 0.9531 0.8125 0.0580 Uiso
C3 C 0.4743(8) 0.8793(7) 0.7575(4) 0.0487 Uani
C4 C 0.4660(8) 0.8884(7) 0.7027(4) 0.0542 Uani
H3 H 0.5064 0.8436 0.6865 0.0650 Uiso
C5 C 0.4015(8) 0.9597(7) 0.6730(4) 0.0457 Uani
H4 H 0.3960 0.9619 0.6366 0.0550 Uiso
C6 C 0.5955(10) 0.7301(8) 0.7685(4) 0.0849 Uani
H5 H 0.5426 0.7027 0.7540 0.1020 Uiso
H6 H 0.6446 0.7522 0.7393 0.1020 Uiso
C7 C 0.5261(10) 0.7913(7) 0.8477(4) 0.0733 Uani
H7 H 0.4634 0.8335 0.8587 0.0880 Uiso
H8 H 0.5948 0.7998 0.8617 0.0880 Uiso
C8 C 0.5099(9) 0.6982(8) 0.8684(4) 0.0667 Uani
H9 H 0.5048 0.6861 0.9073 0.0800 Uiso
H10 H 0.4393 0.6917 0.8552 0.0800 Uiso
C9 C 0.6584(10) 0.6659(8) 0.8066(5) 0.0972 Uani
H11 H 0.7190 0.6909 0.8167 0.1170 Uiso
H12 H 0.6924 0.6153 0.7908 0.1170 Uiso
C10 C 0.6243(8) 0.5489(7) 0.8818(4) 0.0507 Uani
C11 C 0.7259(9) 0.4932(7) 0.8744(4) 0.0617 Uani
H13 H 0.7760 0.5139 0.8477 0.0740 Uiso
C12 C 0.7523(9) 0.4118(7) 0.9047(4) 0.0586 Uani
H14 H 0.8211 0.3758 0.8989 0.0700 Uiso
C13 C 0.5907(8) 0.4275(7) 0.9516(4) 0.0457 Uani
H15 H 0.5432 0.4045 0.9790 0.0550 Uiso
C14 C 0.5564(8) 0.5118(8) 0.9223(4) 0.0529 Uani
H16 H 0.4865 0.5452 0.9294 0.0640 Uiso
C58 C 0.0956(7) 0.9690(6) 0.5761(3) 0.0358 Uani
C59 C 0.1301(7) 0.9291(6) 0.5354(3) 0.0381 Uani
H57 H 0.1929 0.9427 0.5149 0.0460 Uiso
C60 C 0.0735(7) 0.8686(6) 0.5239(4) 0.0487 Uani
H58 H 0.0980 0.8407 0.4956 0.0590 Uiso
C63 C 0.0028(7) 0.9494(6) 0.6052(3) 0.0441 Uani
Zn10 Zn 0.74832(10) 0.26168(8) 0.99466(4) 0.0554 Uani
O14 O 0.2663(13) 0.8607(8) 0.9564(3) 0.1431 Uani
O15 O 0.4228(13) 0.7768(7) 0.9924(4) 0.1540 Uani
C79 C 0.5863(10) 0.9917(8) 0.9373(4) 0.0802 Uani
H69 H 0.6624 0.9873 0.9435 0.0960 Uiso
C80 C 0.5369(16) 0.9164(8) 0.9561(5) 0.0998 Uani
H70 H 0.5777 0.8620 0.9752 0.1200 Uiso
C81 C 0.4274(16) 0.9263(10) 0.9453(5) 0.0901 Uani
C84 C 0.368(2) 0.8453(13) 0.9662(6) 0.1128 Uani
N24 N 0.1598(8) 0.8053(6) 0.0578(4) 0.0602 Uani
C120 C 0.0227(12) 0.9802(9) 0.2005(5) 0.1066 Uani
H114 H 0.0465 0.9173 0.2184 0.1280 Uiso
C122 C 0.0471(10) 0.9269(8) 0.1176(5) 0.0660 Uani
C123 C 0.1366(9) 0.8607(8) 0.1388(5) 0.0757 Uani
H117 H 0.1607 0.8550 0.1736 0.0910 Uiso
C124 C 0.1881(10) 0.8050(8) 0.1083(5) 0.0812 Uani
H118 H 0.2495 0.7616 0.1231 0.0970 Uiso
C125 C 0.0699(12) 0.8657(10) 0.0417(5) 0.0878 Uani
H119 H 0.0398 0.8658 0.0091 0.1050 Uiso
C126 C 0.0169(10) 0.9285(8) 0.0688(5) 0.0825 Uani
N26 N 0.3167(7) 0.6219(5) 0.0559(3) 0.0472 Uani
O32 O 0.8631(5) 0.3051(4) 0.0270(2) 0.0520 Uani
O34 O 0.7053(6) 0.3451(5) 0.0660(2) 0.0624 Uani
O36 O 0.7337(13) 0.1393(8) 0.0436(3) 0.1431 Uani
O38 O 0.5772(13) 0.2232(7) 0.0076(4) 0.1540 Uani
N10 N 0.8402(8) 0.1947(6) 0.9422(4) 0.0602 Uani
C29 C 0.9773(12) 0.0198(9) 0.7995(5) 0.1066 Uani
H34 H 0.9535 0.0827 0.7816 0.1280 Uiso
C31 C 0.9529(10) 0.0731(8) 0.8824(5) 0.0660 Uani
C32 C 0.8634(9) 0.1393(8) 0.8612(5) 0.0757 Uani
H37 H 0.8393 0.1450 0.8264 0.0910 Uiso
C33 C 0.8119(10) 0.1950(8) 0.8917(5) 0.0812 Uani
H38 H 0.7505 0.2384 0.8769 0.0970 Uiso
C34 C 0.9301(12) 0.1343(10) 0.9583(5) 0.0878 Uani
H39 H 0.9602 0.1342 0.9909 0.1050 Uiso
C35 C 0.9831(10) 0.0715(8) 0.9312(5) 0.0825 Uani
C163 C 0.4137(10) 0.0083(8) 0.0627(4) 0.0802 Uani
H141 H 0.3376 0.0127 0.0565 0.0960 Uiso
C164 C 0.4631(16) 0.0836(8) 0.0439(5) 0.0998 Uani
H142 H 0.4223 0.1380 0.0248 0.1200 Uiso
C165 C 0.5726(16) 0.0737(10) 0.0547(5) 0.0901 Uani
C168 C 0.632(2) 0.1547(13) 0.0338(6) 0.1128 Uani
N18 N 0.4671(7) 0.1933(6) 0.2104(3) 0.0652 Uani
N19 N 0.4013(7) 0.3662(6) 0.1473(3) 0.0596 Uani
C100 C 0.5811(8) 0.0481(7) 0.2234(4) 0.0484 Uani
H90 H 0.5749 0.0469 0.1875 0.0580 Uiso
C101 C 0.5257(8) 0.1207(7) 0.2425(4) 0.0487 Uani
C102 C 0.5340(8) 0.1116(7) 0.2973(4) 0.0542 Uani
H91 H 0.4936 0.1564 0.3135 0.0650 Uiso
C103 C 0.5985(8) 0.0403(7) 0.3270(4) 0.0457 Uani
H92 H 0.6040 0.0381 0.3634 0.0550 Uiso
C104 C 0.4045(10) 0.2699(8) 0.2315(4) 0.0849 Uani
H93 H 0.4574 0.2973 0.2460 0.1020 Uiso
H94 H 0.3554 0.2478 0.2607 0.1020 Uiso
C105 C 0.4739(10) 0.2087(7) 0.1523(4) 0.0733 Uani
H95 H 0.5366 0.1665 0.1413 0.0880 Uiso
H96 H 0.4052 0.2002 0.1383 0.0880 Uiso
C106 C 0.4901(9) 0.3018(8) 0.1316(4) 0.0667 Uani
H97 H 0.4952 0.3139 0.0927 0.0800 Uiso
H98 H 0.5607 0.3083 0.1448 0.0800 Uiso
C107 C 0.3416(10) 0.3341(8) 0.1934(5) 0.0972 Uani
H99 H 0.2810 0.3091 0.1833 0.1170 Uiso
H100 H 0.3076 0.3847 0.2092 0.1170 Uiso
C108 C 0.3757(8) 0.4511(7) 0.1182(4) 0.0507 Uani
C109 C 0.2741(9) 0.5068(7) 0.1256(4) 0.0617 Uani
H101 H 0.2240 0.4861 0.1523 0.0740 Uiso
C110 C 0.2477(9) 0.5882(7) 0.0953(4) 0.0586 Uani
H102 H 0.1789 0.6242 0.1011 0.0700 Uiso
C111 C 0.4093(8) 0.5725(7) 0.0484(4) 0.0457 Uani
H103 H 0.4568 0.5955 0.0210 0.0550 Uiso
C112 C 0.4436(8) 0.4882(8) 0.0777(4) 0.0529 Uani
H104 H 0.5135 0.4548 0.0706 0.0640 Uiso
C142 C 0.9044(7) 0.0310(6) 0.4239(3) 0.0358 Uani
C143 C 0.8699(7) 0.0709(6) 0.4646(3) 0.0381 Uani
H129 H 0.8071 0.0573 0.4851 0.0460 Uiso
C144 C 0.9265(7) 0.1314(6) 0.4761(4) 0.0487 Uani
H130 H 0.9020 0.1593 0.5044 0.0590 Uiso
C147 C 0.9972(7) 0.0506(6) 0.3948(3) 0.0441 Uani
O16 O 0.8361(5) 0.8299(4) 0.2885(2) 0.0520 Uani
O17 O 0.9222(6) 0.7047(5) 0.3381(3) 0.0609 Uani
O18 O 0.9689(7) 0.6251(6) 0.1079(3) 0.1018 Uani
O21 O 0.8822(5) 0.9312(4) 0.3720(2) 0.0497 Uani
O22 O 0.7514(5) 0.9579(4) 0.4317(2) 0.0561 Uani
N17 N 0.6546(6) 0.9730(5) 0.3080(3) 0.0408 Uani
C99 C 0.6440(8) 0.9792(7) 0.2564(4) 0.0472 Uani
H89 H 0.6833 0.9319 0.2419 0.0560 Uiso
C127 C 0.8898(8) 0.7503(7) 0.2959(4) 0.0394 Uani
C128 C 0.9079(8) 0.7176(7) 0.2461(4) 0.0485 Uani
C129 C 0.9495(11) 0.6340(9) 0.2487(5) 0.0919 Uani
H121 H 0.9660 0.5960 0.2823 0.1100 Uiso
C130 C 0.9720(11) 0.5961(9) 0.2012(5) 0.0858 Uani
C131 C 0.9435(10) 0.6535(10) 0.1560(5) 0.0737 Uani
C132 C 0.9023(10) 0.7405(9) 0.1517(4) 0.0805 Uani
H123 H 0.8860 0.7789 0.1182 0.0970 Uiso
C133 C 0.8836(10) 0.7737(8) 0.1983(4) 0.0709 Uani
H124 H 0.8544 0.8347 0.1962 0.0850 Uiso
C134 C 0.9288(9) 0.5542(8) 0.1004(5) 0.0793 Uani
C135 C 0.8266(9) 0.5366(8) 0.1194(4) 0.0737 Uani
H125 H 0.7841 0.5704 0.1419 0.0880 Uiso
C136 C 0.7874(9) 0.4703(7) 0.1055(4) 0.0644 Uani
H126 H 0.7159 0.4604 0.1171 0.0780 Uiso
C137 C 0.8497(8) 0.4177(6) 0.0749(3) 0.0477 Uani
C138 C 0.9534(9) 0.4326(8) 0.0584(4) 0.0804 Uani
H127 H 0.9982 0.3960 0.0380 0.0960 Uiso
C139 C 0.9911(9) 0.4993(9) 0.0711(5) 0.0953 Uani
C140 C 0.8039(9) 0.3509(7) 0.0558(3) 0.0478 Uani
C141 C 0.8401(9) 0.9689(6) 0.4097(4) 0.0471 Uani
N9 N 0.0082(8) 0.0145(7) 0.8529(4) 0.0757 Uani
H31 H 0.1223 0.0184 0.7621 0.0860 Uiso
H40 H 0.0419 0.0267 0.9474 0.0990 Uiso
H50 H 0.9958 0.4643 0.7970 0.1030 Uiso
H56 H 0.9371 0.4913 0.9405 0.1150 Uiso
Zn2 Zn 0.38450(9) 0.60819(7) 0.68187(4) 0.0437 Uani
O8 O 0.9343(6) 0.7840(5) 0.5415(3) 0.0881 Uani
O9 O 0.5308(5) 0.6304(5) 0.6580(2) 0.0568 Uani
O10 O 0.4417(6) 0.7504(5) 0.6055(3) 0.0648 Uani
O11 O 0.4043(5) 0.5118(4) 0.7463(2) 0.0514 Uani
O12 O 0.4820(6) 0.4316(5) 0.6894(3) 0.0644 Uani
O13 O 0.5813(6) 0.1402(5) 0.8985(3) 0.0831 Uani
N7 N 0.3025(6) 0.7063(5) 0.7166(3) 0.0427 Uani
N8 N 0.1228(7) 0.8915(6) 0.7968(3) 0.0595 Uani
N11 N 0.2788(6) 0.5846(5) 0.6342(3) 0.0468 Uani
N12 N 0.0652(6) 0.5234(5) 0.5355(3) 0.0488 Uani
C22 C 0.2487(7) 0.7854(7) 0.6917(3) 0.0443 Uani
H25 H 0.2516 0.7990 0.6543 0.0530 Uiso
C23 C 0.1918(8) 0.8463(7) 0.7152(3) 0.0467 Uani
H26 H 0.1563 0.9009 0.6939 0.0560 Uiso
C24 C 0.1814(8) 0.8341(7) 0.7695(4) 0.0541 Uani
C25 C 0.2432(9) 0.7465(7) 0.7952(4) 0.0630 Uani
H27 H 0.2447 0.7302 0.8326 0.0750 Uiso
C26 C 0.2963(8) 0.6901(7) 0.7683(4) 0.0524 Uani
H28 H 0.3328 0.6340 0.7874 0.0630 Uiso
C27 C 0.1467(12) 0.8876(9) 0.8514(4) 0.1134 Uani
H29 H 0.1689 0.8247 0.8697 0.1360 Uiso
H30 H 0.2103 0.9166 0.8519 0.1360 Uiso
C28 C 0.0673(9) 0.9794(7) 0.7702(4) 0.0715 Uani
H32 H 0.0390 0.9755 0.7364 0.0860 Uiso
C30 C 0.0619(15) 0.9262(10) 0.8785(5) 0.1554 Uani
H35 H 0.0897 0.9286 0.9128 0.1840 Uiso
H36 H 0.0060 0.8881 0.8858 0.1840 Uiso
C36 C 0.2370(8) 0.5114(6) 0.6472(4) 0.0599 Uani
H41 H 0.2575 0.4714 0.6798 0.0720 Uiso
C37 C 0.1646(8) 0.4903(6) 0.6154(4) 0.0507 Uani
H42 H 0.1373 0.4370 0.6271 0.0610 Uiso
C38 C 0.1315(7) 0.5451(6) 0.5670(3) 0.0417 Uani
C39 C 0.1771(8) 0.6221(6) 0.5528(4) 0.0510 Uani
H43 H 0.1601 0.6621 0.5199 0.0610 Uiso
C40 C 0.2476(8) 0.6395(6) 0.5875(4) 0.0515 Uani
H44 H 0.2750 0.6930 0.5776 0.0620 Uiso
C41 C 0.0255(14) 0.5840(8) 0.4868(5) 0.1273 Uani
H46 H 0.0864 0.6138 0.4708 0.1520 Uiso
C42 C 0.0129(12) 0.4488(7) 0.5509(4) 0.0979 Uani
H47 H 0.0661 0.4001 0.5723 0.1170 Uiso
C61 C 0.9820(8) 0.8486(6) 0.5534(4) 0.0498 Uani
C62 C 0.9455(7) 0.8895(6) 0.5945(3) 0.0451 Uani
H59 H 0.8823 0.8765 0.6149 0.0550 Uiso
H60 H 0.9782 0.9779 0.6333 0.0530 Uiso
C64 C 0.8328(11) 0.7699(9) 0.5640(4) 0.0622 Uani
C65 C 0.8337(9) 0.6870(8) 0.5954(4) 0.0669 Uani
H61 H 0.9005 0.6449 0.6029 0.0800 Uiso
C66 C 0.7290(9) 0.6668(8) 0.6163(4) 0.0583 Uani
H62 H 0.7268 0.6103 0.6383 0.0700 Uiso
C67 C 0.6319(9) 0.7279(7) 0.6049(3) 0.0470 Uani
C68 C 0.6387(9) 0.8098(7) 0.5738(3) 0.0545 Uani
H63 H 0.5725 0.8524 0.5658 0.0660 Uiso
C69 C 0.7387(10) 0.8334(8) 0.5533(4) 0.0636 Uani
H64 H 0.7411 0.8910 0.5328 0.0760 Uiso
C70 C 0.5288(9) 0.7008(8) 0.6251(4) 0.0470 Uani
C71 C 0.4528(9) 0.4413(8) 0.7341(4) 0.0533 Uani
C72 C 0.4793(7) 0.3597(7) 0.7786(4) 0.0472 Uani
C73 C 0.4751(7) 0.3675(7) 0.8316(4) 0.0482 Uani
H65 H 0.4526 0.4238 0.8401 0.0580 Uiso
C74 C 0.5039(8) 0.2927(7) 0.8708(4) 0.0520 Uani
H66 H 0.4979 0.2972 0.9066 0.0620 Uiso
C75 C 0.5412(9) 0.2113(8) 0.8589(5) 0.0691 Uani
C76 C 0.5460(10) 0.2041(8) 0.8070(5) 0.0764 Uani
H67 H 0.5720 0.1482 0.7985 0.0920 Uiso
C77 C 0.5132(9) 0.2777(7) 0.7680(4) 0.0599 Uani
H68 H 0.5141 0.2716 0.7326 0.0720 Uiso
C78 C 0.5261(10) 0.0712(7) 0.9104(4) 0.0605 Uani
C82 C 0.3673(11) 0.0057(9) 0.9172(4) 0.0753 Uani
H71 H 0.2917 0.0101 0.9103 0.0900 Uiso
C83 C 0.4166(10) 0.0784(7) 0.8993(4) 0.0661 Uani
H72 H 0.3757 0.1323 0.8797 0.0800 Uiso
H85 H 0.0344 0.3698 0.5041 0.1520 Uiso
H88 H 0.0500 0.5356 0.4256 0.1170 Uiso
H113 H 0.0859 0.0101 0.1998 0.1280 Uiso
H33 H 0.9141 0.9899 0.8002 0.1280 Uiso
H45 H 0.9656 0.6302 0.4959 0.1520 Uiso
H48 H 0.9500 0.4644 0.5744 0.1170 Uiso
N15 N 0.7212(6) 0.4154(5) 0.3658(3) 0.0468 Uani
N16 N 0.9348(6) 0.4766(5) 0.4645(3) 0.0488 Uani
C92 C 0.7630(8) 0.4886(6) 0.3528(4) 0.0599 Uani
H81 H 0.7425 0.5286 0.3202 0.0720 Uiso
C93 C 0.8354(8) 0.5097(6) 0.3846(4) 0.0507 Uani
H82 H 0.8627 0.5630 0.3729 0.0610 Uiso
C94 C 0.8685(7) 0.4549(6) 0.4330(3) 0.0417 Uani
C95 C 0.8229(8) 0.3779(6) 0.4472(4) 0.0510 Uani
H83 H 0.8399 0.3379 0.4801 0.0610 Uiso
C96 C 0.7524(8) 0.3605(6) 0.4125(4) 0.0515 Uani
H84 H 0.7250 0.3070 0.4224 0.0620 Uiso
C97 C 0.9745(14) 0.4160(8) 0.5132(5) 0.1273 Uani
H86 H 0.9136 0.3862 0.5292 0.1520 Uiso
C98 C 0.9871(12) 0.5512(7) 0.4491(4) 0.0979 Uani
H87 H 0.9339 0.5999 0.4277 0.1170 Uiso
Zn5 Zn 0.61550(9) 0.39181(7) 0.31813(4) 0.0437 Uani
O23 O 0.0657(6) 0.2160(5) 0.4585(3) 0.0881 Uani
O24 O 0.4692(5) 0.3696(5) 0.3420(2) 0.0568 Uani
O25 O 0.5583(6) 0.2496(5) 0.3945(3) 0.0648 Uani
O26 O 0.5957(5) 0.4882(4) 0.2537(2) 0.0514 Uani
O27 O 0.5180(6) 0.5684(5) 0.3106(3) 0.0644 Uani
O28 O 0.4187(6) 0.8598(5) 0.1015(3) 0.0831 Uani
N21 N 0.6975(6) 0.2937(5) 0.2834(3) 0.0427 Uani
N22 N 0.8772(7) 0.1085(6) 0.2032(3) 0.0595 Uani
C113 C 0.7513(7) 0.2146(7) 0.3083(3) 0.0443 Uani
H105 H 0.7484 0.2010 0.3457 0.0530 Uiso
C114 C 0.8082(8) 0.1537(7) 0.2848(3) 0.0467 Uani
H106 H 0.8437 0.0991 0.3061 0.0560 Uiso
C115 C 0.8186(8) 0.1659(7) 0.2305(4) 0.0541 Uani
C116 C 0.7568(9) 0.2535(7) 0.2048(4) 0.0630 Uani
H107 H 0.7553 0.2698 0.1674 0.0750 Uiso
C117 C 0.7037(8) 0.3099(7) 0.2317(4) 0.0524 Uani
H108 H 0.6672 0.3660 0.2126 0.0630 Uiso
C118 C 0.8533(12) 0.1124(9) 0.1486(4) 0.1134 Uani
H109 H 0.8311 0.1753 0.1303 0.1360 Uiso
H110 H 0.7897 0.0834 0.1481 0.1360 Uiso
C119 C 0.9327(9) 0.0206(7) 0.2298(4) 0.0715 Uani
H112 H 0.9610 0.0245 0.2636 0.0860 Uiso
C121 C 0.9381(15) 0.0738(10) 0.1215(5) 0.1554 Uani
H115 H 0.9103 0.0714 0.0872 0.1840 Uiso
H116 H 0.9940 0.1119 0.1142 0.1840 Uiso
C145 C 0.0180(8) 0.1514(6) 0.4466(4) 0.0498 Uani
C146 C 0.0545(7) 0.1105(6) 0.4055(3) 0.0451 Uani
H131 H 0.1177 0.1235 0.3851 0.0550 Uiso
H132 H 0.0218 0.0221 0.3667 0.0530 Uiso
C148 C 0.1672(11) 0.2301(9) 0.4360(4) 0.0622 Uani
C149 C 0.1663(9) 0.3130(8) 0.4046(4) 0.0669 Uani
H133 H 0.0995 0.3551 0.3971 0.0800 Uiso
C150 C 0.2710(9) 0.3332(8) 0.3837(4) 0.0583 Uani
H134 H 0.2732 0.3897 0.3617 0.0700 Uiso
C151 C 0.3681(9) 0.2721(7) 0.3951(3) 0.0470 Uani
C152 C 0.3613(9) 0.1902(7) 0.4262(3) 0.0545 Uani
H135 H 0.4275 0.1476 0.4342 0.0660 Uiso
C153 C 0.2613(10) 0.1666(8) 0.4467(4) 0.0636 Uani
H136 H 0.2589 0.1090 0.4672 0.0760 Uiso
C154 C 0.4712(9) 0.2992(8) 0.3749(4) 0.0470 Uani
C155 C 0.5472(9) 0.5587(8) 0.2659(4) 0.0533 Uani
C156 C 0.5207(7) 0.6403(7) 0.2214(4) 0.0472 Uani
C157 C 0.5249(7) 0.6325(7) 0.1684(4) 0.0482 Uani
H137 H 0.5474 0.5762 0.1599 0.0580 Uiso
C158 C 0.4961(8) 0.7073(7) 0.1292(4) 0.0520 Uani
H138 H 0.5021 0.7028 0.0934 0.0620 Uiso
C159 C 0.4588(9) 0.7887(8) 0.1411(5) 0.0691 Uani
C160 C 0.4540(10) 0.7959(8) 0.1930(5) 0.0764 Uani
H139 H 0.4280 0.8518 0.2015 0.0920 Uiso
C161 C 0.4868(9) 0.7223(7) 0.2320(4) 0.0599 Uani
H140 H 0.4859 0.7284 0.2674 0.0720 Uiso
C162 C 0.4739(10) 0.9288(7) 0.0896(4) 0.0605 Uani
C166 C 0.6327(11) 0.9943(9) 0.0828(4) 0.0753 Uani
H143 H 0.7083 0.9899 0.0897 0.0900 Uiso
C167 C 0.5834(10) 0.9216(7) 0.1007(4) 0.0661 Uani
H144 H 0.6243 0.8677 0.1203 0.0800 Uiso
N23 N 0.9918(8) 0.9855(7) 0.1471(4) 0.0757 Uani
H111 H 0.8777 0.9816 0.2379 0.0860 Uiso
H120 H 0.9581 0.9733 0.0526 0.0990 Uiso
H122 H 0.0042 0.5357 0.2030 0.1030 Uiso
H128 H 0.0629 0.5087 0.0595 0.1150 Uiso
loop_
_atom_site_aniso_label
_atom_site_aniso_U_11
_atom_site_aniso_U_22
_atom_site_aniso_U_33
_atom_site_aniso_U_23
_atom_site_aniso_U_13
_atom_site_aniso_U_12
Zn13 0.0748 0.0509 0.0507 -0.0147 0.0027 -0.0327
Zn1 0.0574 0.0452 0.0333 -0.0118 0.0068 -0.0246
O1 0.076 0.041 0.04 -0.014 0.019 -0.014
O2 0.078 0.06 0.044 -0.005 -0.001 -0.019
O3 0.113 0.136 0.103 -0.09 0.065 -0.079
O4 0.075 0.05 0.04 -0.022 0.005 -0.021
O5 0.076 0.075 0.045 -0.018 0.004 -0.031
O6 0.049 0.056 0.056 -0.03 0.003 -0.019
O7 0.043 0.082 0.052 -0.02 0.011 -0.03
N1 0.05 0.037 0.036 -0.009 0.001 -0.009
N5 0.058 0.052 0.028 -0.004 0.001 -0.026
N6 0.067 0.069 0.027 -0.01 0.003 -0.039
C1 0.056 0.047 0.043 -0.013 0 -0.017
C15 0.11 0.109 0.043 -0.008 0.01 -0.099
C16 0.102 0.117 0.037 -0.013 -0.008 -0.071
C17 0.06 0.052 0.031 -0.014 0.012 -0.03
C18 0.125 0.068 0.029 0 -0.023 -0.063
C19 0.084 0.058 0.032 -0.004 -0.008 -0.043
C20 0.219 0.15 0.021 0.013 -0.012 -0.153
C21 0.18 0.192 0.037 -0.005 -0.006 -0.159
C43 0.045 0.04 0.038 -0.009 0.007 -0.021
C44 0.054 0.028 0.07 -0.018 0.002 -0.016
C45 0.126 0.088 0.059 -0.007 -0.003 -0.025
C46 0.116 0.072 0.078 -0.038 0.002 -0.015
C47 0.086 0.088 0.076 -0.047 0.026 -0.059
C48 0.109 0.08 0.059 -0.016 0.01 -0.036
C49 0.116 0.056 0.039 -0.013 0.003 -0.011
C50 0.073 0.11 0.091 -0.069 0.029 -0.057
C51 0.068 0.084 0.093 -0.056 0.038 -0.04
C52 0.081 0.075 0.051 -0.028 0.026 -0.039
C53 0.055 0.057 0.042 -0.028 0.007 -0.019
C54 0.08 0.118 0.083 -0.079 0.034 -0.057
C55 0.056 0.153 0.121 -0.104 0.05 -0.053
C56 0.057 0.057 0.032 0.001 -0.002 -0.029
C57 0.059 0.039 0.043 -0.004 -0.02 -0.009
N13 0.058 0.052 0.028 -0.004 0.001 -0.026
N14 0.067 0.069 0.027 -0.01 0.003 -0.039
C85 0.11 0.109 0.043 -0.008 0.01 -0.099
C86 0.102 0.117 0.037 -0.013 -0.008 -0.071
C87 0.06 0.052 0.031 -0.014 0.012 -0.03
C88 0.125 0.068 0.029 0 -0.023 -0.063
C89 0.084 0.058 0.032 -0.004 -0.008 -0.043
C90 0.219 0.15 0.021 0.013 -0.012 -0.153
C91 0.18 0.192 0.037 -0.005 -0.006 -0.159
Zn7 0.0574 0.0452 0.0333 -0.0118 0.0068 -0.0246
N2 0.09 0.061 0.031 -0.007 0.009 0.01
N3 0.062 0.052 0.058 -0.014 0.021 0
N4 0.06 0.057 0.034 -0.014 0.001 -0.029
C2 0.061 0.055 0.029 -0.011 0.002 -0.01
C3 0.064 0.056 0.026 -0.011 0.003 -0.01
C4 0.057 0.055 0.054 -0.023 0.011 -0.01
C5 0.068 0.041 0.031 -0.005 0.004 -0.022
C6 0.1 0.097 0.028 -0.001 0.008 0.032
C7 0.107 0.057 0.041 -0.005 0.002 0.011
C8 0.076 0.087 0.027 -0.011 -0.001 0.006
C9 0.092 0.096 0.072 0.011 0.057 0.004
C10 0.056 0.055 0.046 -0.02 0.007 -0.014
C11 0.074 0.056 0.053 -0.01 0.023 -0.017
C12 0.066 0.05 0.064 -0.019 0.004 -0.015
C13 0.047 0.054 0.041 -0.018 0.015 -0.017
C14 0.047 0.075 0.047 -0.028 0.02 -0.025
C58 0.034 0.044 0.03 -0.002 0.003 -0.017
C59 0.044 0.039 0.031 -0.006 0.011 -0.013
C60 0.053 0.049 0.046 -0.019 0.021 -0.011
C63 0.055 0.047 0.033 -0.019 -0.009 -0.002
Zn10 0.0748 0.0509 0.0507 -0.0147 0.0027 -0.0327
O14 0.276 0.157 0.043 -0.003 0.008 -0.175
O15 0.362 0.075 0.051 -0.005 0.018 -0.119
C79 0.092 0.075 0.066 -0.005 0.02 -0.017
C80 0.205 0.05 0.054 -0.006 0.03 -0.063
C81 0.177 0.073 0.049 -0.029 0.04 -0.085
C84 0.24 0.107 0.036 -0.039 0.035 -0.121
N24 0.067 0.057 0.064 -0.022 0.002 -0.02
C120 0.131 0.105 0.07 -0.021 -0.015 0.015
C122 0.072 0.058 0.072 -0.012 0.006 -0.027
C123 0.064 0.088 0.085 -0.048 -0.004 -0.004
C124 0.073 0.086 0.104 -0.053 -0.008 -0.022
C125 0.1 0.117 0.053 -0.034 0.003 -0.02
C126 0.089 0.086 0.061 -0.024 -0.002 0.019
N26 0.06 0.057 0.034 -0.014 0.001 -0.029
O32 0.075 0.05 0.04 -0.022 0.005 -0.021
O34 0.076 0.075 0.045 -0.018 0.004 -0.031
O36 0.276 0.157 0.043 -0.003 0.008 -0.175
O38 0.362 0.075 0.051 -0.005 0.018 -0.119
N10 0.067 0.057 0.064 -0.022 0.002 -0.02
C29 0.131 0.105 0.07 -0.021 -0.015 0.015
C31 0.072 0.058 0.072 -0.012 0.006 -0.027
C32 0.064 0.088 0.085 -0.048 -0.004 -0.004
C33 0.073 0.086 0.104 -0.053 -0.008 -0.022
C34 0.1 0.117 0.053 -0.034 0.003 -0.02
C35 0.089 0.086 0.061 -0.024 -0.002 0.019
C163 0.092 0.075 0.066 -0.005 0.02 -0.017
C164 0.205 0.05 0.054 -0.006 0.03 -0.063
C165 0.177 0.073 0.049 -0.029 0.04 -0.085
C168 0.24 0.107 0.036 -0.039 0.035 -0.121
N18 0.09 0.061 0.031 -0.007 0.009 0.01
N19 0.062 0.052 0.058 -0.014 0.021 0
C100 0.061 0.055 0.029 -0.011 0.002 -0.01
C101 0.064 0.056 0.026 -0.011 0.003 -0.01
C102 0.057 0.055 0.054 -0.023 0.011 -0.01
C103 0.068 0.041 0.031 -0.005 0.004 -0.022
C104 0.1 0.097 0.028 -0.001 0.008 0.032
C105 0.107 0.057 0.041 -0.005 0.002 0.011
C106 0.076 0.087 0.027 -0.011 -0.001 0.006
C107 0.092 0.096 0.072 0.011 0.057 0.004
C108 0.056 0.055 0.046 -0.02 0.007 -0.014
C109 0.074 0.056 0.053 -0.01 0.023 -0.017
C110 0.066 0.05 0.064 -0.019 0.004 -0.015
C111 0.047 0.054 0.041 -0.018 0.015 -0.017
C112 0.047 0.075 0.047 -0.028 0.02 -0.025
C142 0.034 0.044 0.03 -0.002 0.003 -0.017
C143 0.044 0.039 0.031 -0.006 0.011 -0.013
C144 0.053 0.049 0.046 -0.019 0.021 -0.011
C147 0.055 0.047 0.033 -0.019 -0.009 -0.002
O16 0.076 0.041 0.04 -0.014 0.019 -0.014
O17 0.078 0.06 0.044 -0.005 -0.001 -0.019
O18 0.113 0.136 0.103 -0.09 0.065 -0.079
O21 0.049 0.056 0.056 -0.03 0.003 -0.019
O22 0.043 0.082 0.052 -0.02 0.011 -0.03
N17 0.05 0.037 0.036 -0.009 0.001 -0.009
C99 0.056 0.047 0.043 -0.013 0 -0.017
C127 0.045 0.04 0.038 -0.009 0.007 -0.021
C128 0.054 0.028 0.07 -0.018 0.002 -0.016
C129 0.126 0.088 0.059 -0.007 -0.003 -0.025
C130 0.116 0.072 0.078 -0.038 0.002 -0.015
C131 0.086 0.088 0.076 -0.047 0.026 -0.059
C132 0.109 0.08 0.059 -0.016 0.01 -0.036
C133 0.116 0.056 0.039 -0.013 0.003 -0.011
C134 0.073 0.11 0.091 -0.069 0.029 -0.057
C135 0.068 0.084 0.093 -0.056 0.038 -0.04
C136 0.081 0.075 0.051 -0.028 0.026 -0.039
C137 0.055 0.057 0.042 -0.028 0.007 -0.019
C138 0.08 0.118 0.083 -0.079 0.034 -0.057
C139 0.056 0.153 0.121 -0.104 0.05 -0.053
C140 0.057 0.057 0.032 0.001 -0.002 -0.029
C141 0.059 0.039 0.043 -0.004 -0.02 -0.009
N9 0.085 0.073 0.071 -0.026 0.024 -0.016
Zn2 0.0552 0.0463 0.0358 -0.005 -0.0073 -0.0267
O8 0.105 0.109 0.091 -0.073 0.065 -0.076
O9 0.06 0.062 0.046 0.009 0.001 -0.031
O10 0.078 0.07 0.054 -0.006 0.007 -0.043
O11 0.059 0.041 0.057 -0.005 0.003 -0.024
O12 0.079 0.079 0.04 -0.005 -0.007 -0.034
O13 0.096 0.05 0.095 0.023 -0.027 -0.032
N7 0.053 0.049 0.029 -0.003 0 -0.023
N8 0.073 0.053 0.044 -0.008 0.014 0
N11 0.05 0.046 0.048 -0.006 -0.011 -0.02
N12 0.069 0.044 0.041 -0.001 -0.021 -0.032
C22 0.053 0.054 0.027 -0.007 0.002 -0.016
C23 0.058 0.055 0.028 -0.003 -0.005 -0.019
C24 0.049 0.066 0.051 -0.007 0.004 -0.028
C25 0.08 0.065 0.035 0.006 0.006 -0.015
C26 0.061 0.05 0.039 -0.003 0.006 -0.004
C27 0.163 0.096 0.05 -0.022 0.008 0.051
C28 0.082 0.068 0.05 -0.009 0.013 0.01
C30 0.29 0.085 0.044 -0.011 -0.016 0.073
C36 0.08 0.044 0.06 0.008 -0.019 -0.039
C37 0.063 0.043 0.047 0.01 -0.012 -0.032
C38 0.051 0.038 0.041 -0.004 -0.016 -0.021
C39 0.067 0.033 0.052 0.003 -0.028 -0.014
C40 0.062 0.035 0.062 0.001 -0.018 -0.028
C41 0.23 0.074 0.088 0.051 -0.105 -0.102
C42 0.177 0.068 0.067 0.019 -0.064 -0.087
C61 0.067 0.046 0.051 -0.023 0.023 -0.038
C62 0.052 0.053 0.038 -0.011 0.01 -0.03
C64 0.088 0.086 0.046 -0.043 0.035 -0.072
C65 0.063 0.094 0.051 -0.012 -0.003 -0.036
C66 0.076 0.072 0.038 -0.006 0.002 -0.048
C67 0.056 0.06 0.037 -0.017 0.004 -0.033
C68 0.082 0.053 0.041 -0.02 0.01 -0.034
C69 0.079 0.06 0.067 -0.027 0.031 -0.043
C70 0.053 0.065 0.033 -0.018 0.001 -0.027
C71 0.065 0.069 0.042 -0.012 -0.003 -0.05
C72 0.048 0.055 0.043 -0.009 0.004 -0.024
C73 0.045 0.052 0.051 -0.01 0.004 -0.02
C74 0.059 0.061 0.041 -0.007 -0.006 -0.027
C75 0.08 0.062 0.068 0.004 -0.006 -0.04
C76 0.104 0.039 0.094 -0.026 0.005 -0.021
C77 0.086 0.054 0.05 -0.023 0.016 -0.029
C78 0.088 0.027 0.062 0.005 -0.001 -0.018
C82 0.111 0.069 0.064 -0.024 0.027 -0.057
C83 0.094 0.055 0.056 -0.006 0.002 -0.038
N15 0.05 0.046 0.048 -0.006 -0.011 -0.02
N16 0.069 0.044 0.041 -0.001 -0.021 -0.032
C92 0.08 0.044 0.06 0.008 -0.019 -0.039
C93 0.063 0.043 0.047 0.01 -0.012 -0.032
C94 0.051 0.038 0.041 -0.004 -0.016 -0.021
C95 0.067 0.033 0.052 0.003 -0.028 -0.014
C96 0.062 0.035 0.062 0.001 -0.018 -0.028
C97 0.23 0.074 0.088 0.051 -0.105 -0.102
C98 0.177 0.068 0.067 0.019 -0.064 -0.087
Zn5 0.0552 0.0463 0.0358 -0.005 -0.0073 -0.0267
O23 0.105 0.109 0.091 -0.073 0.065 -0.076
O24 0.06 0.062 0.046 0.009 0.001 -0.031
O25 0.078 0.07 0.054 -0.006 0.007 -0.043
O26 0.059 0.041 0.057 -0.005 0.003 -0.024
O27 0.079 0.079 0.04 -0.005 -0.007 -0.034
O28 0.096 0.05 0.095 0.023 -0.027 -0.032
N21 0.053 0.049 0.029 -0.003 0 -0.023
N22 0.073 0.053 0.044 -0.008 0.014 0
C113 0.053 0.054 0.027 -0.007 0.002 -0.016
C114 0.058 0.055 0.028 -0.003 -0.005 -0.019
C115 0.049 0.066 0.051 -0.007 0.004 -0.028
C116 0.08 0.065 0.035 0.006 0.006 -0.015
C117 0.061 0.05 0.039 -0.003 0.006 -0.004
C118 0.163 0.096 0.05 -0.022 0.008 0.051
C119 0.082 0.068 0.05 -0.009 0.013 0.01
C121 0.29 0.085 0.044 -0.011 -0.016 0.073
C145 0.067 0.046 0.051 -0.023 0.023 -0.038
C146 0.052 0.053 0.038 -0.011 0.01 -0.03
C148 0.088 0.086 0.046 -0.043 0.035 -0.072
C149 0.063 0.094 0.051 -0.012 -0.003 -0.036
C150 0.076 0.072 0.038 -0.006 0.002 -0.048
C151 0.056 0.06 0.037 -0.017 0.004 -0.033
C152 0.082 0.053 0.041 -0.02 0.01 -0.034
C153 0.079 0.06 0.067 -0.027 0.031 -0.043
C154 0.053 0.065 0.033 -0.018 0.001 -0.027
C155 0.065 0.069 0.042 -0.012 -0.003 -0.05
C156 0.048 0.055 0.043 -0.009 0.004 -0.024
C157 0.045 0.052 0.051 -0.01 0.004 -0.02
C158 0.059 0.061 0.041 -0.007 -0.006 -0.027
C159 0.08 0.062 0.068 0.004 -0.006 -0.04
C160 0.104 0.039 0.094 -0.026 0.005 -0.021
C161 0.086 0.054 0.05 -0.023 0.016 -0.029
C162 0.088 0.027 0.062 0.005 -0.001 -0.018
C166 0.111 0.069 0.064 -0.024 0.027 -0.057
C167 0.094 0.055 0.056 -0.006 0.002 -0.038
N23 0.085 0.073 0.071 -0.026 0.024 -0.016
loop_
_geom_bond_atom_site_label_1
_geom_bond_atom_site_label_2
_geom_bond_site_symmetry_1
_geom_bond_site_symmetry_2
Zn1 O1 1_555 1_555
O1 C43 1_555 1_555
O2 C43 1_555 1_555
O3 C47 1_555 1_555
O4 C56 1_555 1_555
O5 C56 1_555 1_555
O6 Zn1 1_555 1_555
O7 C57 1_555 1_555
N1 Zn1 1_555 1_555
N5 Zn1 1_555 1_555
N6 C17 1_555 1_555
C1 N1 1_555 1_555
H1 C1 1_555 1_555
C15 N5 1_555 1_555
H17 C15 1_555 1_555
C16 C15 1_555 1_555
H18 C16 1_555 1_555
C17 C16 1_555 1_555
C18 C17 1_555 1_555
H19 C18 1_555 1_555
C19 N5 1_555 1_555
H20 C19 1_555 1_555
C20 N6 1_555 1_555
H21 C20 1_555 1_555
H22 C20 1_555 1_555
C21 N6 1_555 1_555
H23 C21 1_555 1_555
H24 C21 1_555 1_555
C43 C44 1_555 1_555
C44 C45 1_555 1_555
C45 H49 1_555 1_555
C46 C45 1_555 1_555
C47 C46 1_555 1_555
C48 C47 1_555 1_555
H51 C48 1_555 1_555
C49 C44 1_555 1_555
H52 C49 1_555 1_555
C50 O3 1_555 1_555
C51 C50 1_555 1_555
H53 C51 1_555 1_555
C52 C51 1_555 1_555
H54 C52 1_555 1_555
C53 C52 1_555 1_555
C54 C53 1_555 1_555
H55 C54 1_555 1_555
C55 C50 1_555 1_555
C56 C53 1_555 1_555
C57 O6 1_555 1_555
N13 C85 1_555 1_555
N14 C87 1_555 1_555
C85 H73 1_555 1_555
C86 C85 1_555 1_555
H74 C86 1_555 1_555
C87 C86 1_555 1_555
C88 C87 1_555 1_555
H75 C88 1_555 1_555
C89 N13 1_555 1_555
H76 C89 1_555 1_555
C90 C21 1_555 1_555
H77 C90 1_555 1_555
H78 C90 1_555 1_555
C91 C20 1_555 1_555
H79 C91 1_555 1_555
H80 C91 1_555 1_555
Zn7 N13 1_555 1_555
C18 C19 1_555 1_555
C48 C49 1_555 1_555
C54 C55 1_555 1_555
N14 C90 1_555 1_555
N14 C91 1_555 1_555
C88 C89 1_555 1_555
N2 C3 1_555 1_555
N3 C8 1_555 1_555
N4 C12 1_555 1_555
H2 C2 1_555 1_555
C3 C2 1_555 1_555
C4 C3 1_555 1_555
H3 C4 1_555 1_555
H4 C5 1_555 1_555
C6 N2 1_555 1_555
H5 C6 1_555 1_555
H6 C6 1_555 1_555
C7 N2 1_555 1_555
H7 C7 1_555 1_555
H8 C7 1_555 1_555
C8 C7 1_555 1_555
H9 C8 1_555 1_555
H10 C8 1_555 1_555
C9 N3 1_555 1_555
H11 C9 1_555 1_555
H12 C9 1_555 1_555
C10 N3 1_555 1_555
C11 C10 1_555 1_555
H13 C11 1_555 1_555
C12 C11 1_555 1_555
H14 C12 1_555 1_555
C13 N4 1_555 1_555
H15 C13 1_555 1_555
C14 C10 1_555 1_555
H16 C14 1_555 1_555
C59 C58 1_555 1_555
H57 C59 1_555 1_555
C60 C59 1_555 1_555
H58 C60 1_555 1_555
C63 C58 1_555 1_555
Zn10 N4 1_555 1_555
C4 C5 1_555 1_555
C6 C9 1_555 1_555
C13 C14 1_555 1_555
O14 C84 1_555 1_555
O15 C84 1_555 1_555
H69 C79 1_555 1_555
C80 C79 1_555 1_555
H70 C80 1_555 1_555
C81 C80 1_555 1_555
C84 C81 1_555 1_555
Zn13 N24 1_555 1_555
N24 C124 1_555 1_555
H114 C120 1_555 1_555
C123 C122 1_555 1_555
H117 C123 1_555 1_555
C124 C123 1_555 1_555
H118 C124 1_555 1_555
C125 N24 1_555 1_555
H119 C125 1_555 1_555
C126 C122 1_555 1_555
N26 Zn13 1_555 1_555
C125 C126 1_555 1_555
Zn10 N10 1_555 1_555
N10 C33 1_555 1_555
H34 C29 1_555 1_555
C32 C31 1_555 1_555
H37 C32 1_555 1_555
C33 C32 1_555 1_555
H38 C33 1_555 1_555
C34 N10 1_555 1_555
H39 C34 1_555 1_555
C35 C31 1_555 1_555
O36 C168 1_555 1_555
O38 C168 1_555 1_555
H141 C163 1_555 1_555
C164 C163 1_555 1_555
H142 C164 1_555 1_555
C165 C164 1_555 1_555
C168 C165 1_555 1_555
C34 C35 1_555 1_555
N18 C101 1_555 1_555
N19 C106 1_555 1_555
N26 C110 1_555 1_555
H90 C100 1_555 1_555
C101 C100 1_555 1_555
C102 C101 1_555 1_555
H91 C102 1_555 1_555
H92 C103 1_555 1_555
C104 N18 1_555 1_555
H93 C104 1_555 1_555
H94 C104 1_555 1_555
C105 N18 1_555 1_555
H95 C105 1_555 1_555
H96 C105 1_555 1_555
C106 C105 1_555 1_555
H97 C106 1_555 1_555
H98 C106 1_555 1_555
C107 N19 1_555 1_555
H99 C107 1_555 1_555
H100 C107 1_555 1_555
C108 N19 1_555 1_555
C109 C108 1_555 1_555
H101 C109 1_555 1_555
C110 C109 1_555 1_555
H102 C110 1_555 1_555
C111 N26 1_555 1_555
H103 C111 1_555 1_555
C112 C108 1_555 1_555
H104 C112 1_555 1_555
C143 C142 1_555 1_555
H129 C143 1_555 1_555
C144 C143 1_555 1_555
H130 C144 1_555 1_555
C147 C142 1_555 1_555
C102 C103 1_555 1_555
C104 C107 1_555 1_555
C111 C112 1_555 1_555
Zn7 O16 1_555 1_555
O16 C127 1_555 1_555
O17 C127 1_555 1_555
O18 C131 1_555 1_555
O32 C140 1_555 1_555
O34 C140 1_555 1_555
O21 Zn7 1_555 1_555
O22 C141 1_555 1_555
N17 Zn7 1_555 1_555
C99 N17 1_555 1_555
H89 C99 1_555 1_555
C127 C128 1_555 1_555
C128 C129 1_555 1_555
C129 H121 1_555 1_555
C130 C129 1_555 1_555
C131 C130 1_555 1_555
C132 C131 1_555 1_555
H123 C132 1_555 1_555
C133 C128 1_555 1_555
H124 C133 1_555 1_555
C134 O18 1_555 1_555
C135 C134 1_555 1_555
H125 C135 1_555 1_555
C136 C135 1_555 1_555
H126 C136 1_555 1_555
C137 C136 1_555 1_555
C138 C137 1_555 1_555
H127 C138 1_555 1_555
C139 C134 1_555 1_555
C140 C137 1_555 1_555
C141 O21 1_555 1_555
C132 C133 1_555 1_555
C138 C139 1_555 1_555
Zn2 O9 1_555 1_555
O8 C61 1_555 1_555
O9 C70 1_555 1_555
O10 C70 1_555 1_555
O11 Zn2 1_555 1_555
O12 C71 1_555 1_555
O13 C75 1_555 1_555
N7 Zn2 1_555 1_555
N8 C24 1_555 1_555
N11 Zn2 1_555 1_555
N12 C38 1_555 1_555
C22 N7 1_555 1_555
H25 C22 1_555 1_555
C23 C22 1_555 1_555
H26 C23 1_555 1_555
C24 C23 1_555 1_555
C25 C24 1_555 1_555
H27 C25 1_555 1_555
C26 N7 1_555 1_555
H28 C26 1_555 1_555
C27 N8 1_555 1_555
H29 C27 1_555 1_555
H30 C27 1_555 1_555
C28 N8 1_555 1_555
H32 C28 1_555 1_555
H35 C30 1_555 1_555
H36 C30 1_555 1_555
C36 N11 1_555 1_555
H41 C36 1_555 1_555
C37 C36 1_555 1_555
H42 C37 1_555 1_555
C38 C37 1_555 1_555
C39 C38 1_555 1_555
H43 C39 1_555 1_555
C40 N11 1_555 1_555
H44 C40 1_555 1_555
C41 N12 1_555 1_555
H46 C41 1_555 1_555
C42 N12 1_555 1_555
H47 C42 1_555 1_555
C62 C61 1_555 1_555
H59 C62 1_555 1_555
C64 O8 1_555 1_555
C65 C64 1_555 1_555
H61 C65 1_555 1_555
C66 C65 1_555 1_555
H62 C66 1_555 1_555
C67 C66 1_555 1_555
C68 C67 1_555 1_555
H63 C68 1_555 1_555
C69 C64 1_555 1_555
H64 C69 1_555 1_555
C70 C67 1_555 1_555
C71 O11 1_555 1_555
C72 C71 1_555 1_555
C73 C72 1_555 1_555
H65 C73 1_555 1_555
C74 C73 1_555 1_555
H66 C74 1_555 1_555
C75 C74 1_555 1_555
C76 C75 1_555 1_555
H67 C76 1_555 1_555
C77 C72 1_555 1_555
H68 C77 1_555 1_555
C78 O13 1_555 1_555
H71 C82 1_555 1_555
C83 C78 1_555 1_555
H72 C83 1_555 1_555
C25 C26 1_555 1_555
C27 C30 1_555 1_555
C39 C40 1_555 1_555
C68 C69 1_555 1_555
C76 C77 1_555 1_555
C82 C83 1_555 1_555
N15 C92 1_555 1_555
N16 C94 1_555 1_555
C92 H81 1_555 1_555
C93 C92 1_555 1_555
H82 C93 1_555 1_555
C94 C93 1_555 1_555
C95 C94 1_555 1_555
H83 C95 1_555 1_555
C96 N15 1_555 1_555
H84 C96 1_555 1_555
H86 C97 1_555 1_555
H87 C98 1_555 1_555
Zn5 N15 1_555 1_555
O23 C145 1_555 1_555
O24 Zn5 1_555 1_555
O25 C154 1_555 1_555
O26 Zn5 1_555 1_555
O27 C155 1_555 1_555
O28 C159 1_555 1_555
N21 Zn5 1_555 1_555
N22 C115 1_555 1_555
C113 N21 1_555 1_555
H105 C113 1_555 1_555
C114 C113 1_555 1_555
H106 C114 1_555 1_555
C115 C114 1_555 1_555
C116 C115 1_555 1_555
H107 C116 1_555 1_555
C117 N21 1_555 1_555
H108 C117 1_555 1_555
C118 N22 1_555 1_555
H109 C118 1_555 1_555
H110 C118 1_555 1_555
C119 N22 1_555 1_555
H112 C119 1_555 1_555
H115 C121 1_555 1_555
H116 C121 1_555 1_555
C146 C145 1_555 1_555
H131 C146 1_555 1_555
C148 O23 1_555 1_555
C149 C148 1_555 1_555
H133 C149 1_555 1_555
C150 C149 1_555 1_555
H134 C150 1_555 1_555
C151 C150 1_555 1_555
C152 C151 1_555 1_555
H135 C152 1_555 1_555
C153 C148 1_555 1_555
H136 C153 1_555 1_555
C154 O24 1_555 1_555
C155 O26 1_555 1_555
C156 C155 1_555 1_555
C157 C156 1_555 1_555
H137 C157 1_555 1_555
C158 C157 1_555 1_555
H138 C158 1_555 1_555
C159 C158 1_555 1_555
C160 C159 1_555 1_555
H139 C160 1_555 1_555
C161 C156 1_555 1_555
H140 C161 1_555 1_555
C162 O28 1_555 1_555
H143 C166 1_555 1_555
C167 C162 1_555 1_555
H144 C167 1_555 1_555
N16 C97 1_555 1_555
N16 C98 1_555 1_555
C95 C96 1_555 1_555
C116 C117 1_555 1_555
C118 C121 1_555 1_555
C151 C154 1_555 1_555
C152 C153 1_555 1_555
C160 C161 1_555 1_555
C166 C167 1_555 1_555

#END
