
###############################################################################
#
# This file contains modified crystal structure data generated from the
# MOF subset of the Cambridge Structural Database (CSD) v543 
# hosted by the Cambridge Crystallographic Data Centre (CCDC).
#
# This work is licensed under the Creative Commons
# Attribution-NonCommercial-ShareAlike 4.0 International License.
# To view a copy of this license, visit
# http://creativecommons.org/licenses/by-nc-sa/4.0/
# or send a letter to
# Creative Commons, PO Box 1866, Mountain View, CA 94042, USA.
#
# CIF created using the CSD Python API on 29 September 2022
# The structure has been converted into the P1 space group
# The structure has a 3D framework
# The original CSD entry BUQSAK is in the orthorhombic crystal system
# The framework has been calculated to contain at least 10.0% void space
# The void calculation uses a probe of radius 1.32A, grid spacing 0.4
#
###############################################################################

data_BUQSAK
_chemical_formula_moiety         '(C224 H192 N32 O40 Zn8)n'
_symmetry_cell_setting           triclinic
_symmetry_space_group_name_H-M   'P 1'
_symmetry_Int_Tables_number      1
_space_group_name_Hall           'P 1'
loop_
_symmetry_equiv_pos_site_id
_symmetry_equiv_pos_as_xyz
1 x,y,z
_cell_length_a                   14.62(3)
_cell_length_b                   18.87(4)
_cell_length_c                   19.94(5)
_cell_angle_alpha                90
_cell_angle_beta                 90
_cell_angle_gamma                90
_cell_volume                     5501.04
loop_
_atom_site_label
_atom_site_type_symbol
_atom_site_fract_x
_atom_site_fract_y
_atom_site_fract_z
O5 O 0.1924(8) 0.0508(7) 0.3901(5)
H22 H 0.0900 0.0135 0.4924
Zn5 Zn 0.34314(10) 0.00490(8) 0.28841(8)
Zn1 Zn 0.84314(10) 0.50490(8) 0.71159(8)
O1 O 0.8912(7) 0.5957(5) 0.6792(6)
O2 O 0.9519(8) 0.6001(6) 0.7824(7)
N1 N 0.9515(7) 0.4353(6) 0.7111(5)
N3 N 0.7603(7) 0.5051(6) 0.7917(5)
N4 N 0.5703(7) 0.4992(6) 0.9503(5)
C5 C 0.9621(8) 0.3885(6) 0.6616(6)
H4 H 0.9169 0.3872 0.6275
C8 C 0.6932(9) 0.4552(7) 0.7954(6)
H9 H 0.6887 0.4214 0.7603
C9 C 0.6325(8) 0.4513(7) 0.8467(6)
H10 H 0.5880 0.4147 0.8468
C10 C 0.6340(7) 0.5009(7) 0.9001(6)
C11 C 0.7059(8) 0.5486(6) 0.8974(6)
H11 H 0.7141 0.5814 0.9330
C12 C 0.7656(8) 0.5492(6) 0.8443(6)
H12 H 0.8137 0.5830 0.8448
C13 C 0.5134(8) 0.4367(7) 0.9619(6)
H13 H 0.5448 0.4046 0.9937
H14 H 0.5049 0.4109 0.9192
H15 H 0.6158 0.5859 0.9977
C15 C 0.9421(10) 0.6232(8) 0.7253(9)
C16 C 0.9963(10) 0.6879(7) 0.7025(7)
C17 C 0.9822(11) 0.7183(7) 0.6422(9)
H17 H 0.9361 0.6998 0.6135
C42 C 0.4189(8) 0.4574(7) 0.9907(6)
H40 H 0.3837 0.4838 0.9565
O12 O 0.7739(5) 0.4572(5) 0.6393(5)
N7 N 0.2603(7) 0.0051(6) 0.2083(5)
C38 C 0.1340(7) 0.0009(7) 0.0999(6)
C39 C 0.2059(8) 0.0486(6) 0.1026(6)
H35 H 0.2141 0.0814 0.0670
C40 C 0.2656(8) 0.0492(6) 0.1557(6)
H36 H 0.3137 0.0830 0.1552
H39 H 0.1158 0.0859 0.0023
O6 O 0.3912(7) 0.0957(5) 0.3208(6)
O7 O 0.4519(8) 0.1001(6) 0.2176(7)
O8 O 0.6555(10) 0.3592(7) 0.3502(6)
O10 O 0.6924(8) 0.5508(7) 0.6099(5)
C43 C 0.4421(10) 0.1232(8) 0.2747(9)
C44 C 0.4963(10) 0.1879(7) 0.2975(7)
C45 C 0.4822(11) 0.2183(7) 0.3578(9)
H41 H 0.4361 0.1998 0.3865
C46 C 0.5332(12) 0.2756(8) 0.3788(8)
H42 H 0.5216 0.2976 0.4208
C47 C 0.6006(11) 0.2997(8) 0.3376(8)
C48 C 0.6179(11) 0.2706(8) 0.2745(7)
H43 H 0.6645 0.2893 0.2464
C49 C 0.5648(10) 0.2134(8) 0.2543(8)
H44 H 0.5746 0.1919 0.2118
C50 C 0.6621(13) 0.3848(9) 0.4164(7)
C51 C 0.6077(11) 0.4404(9) 0.4362(8)
H45 H 0.5586 0.4559 0.4087
C52 C 0.6249(9) 0.4730(9) 0.4955(7)
H46 H 0.5900 0.5135 0.5076
C53 C 0.6923(9) 0.4488(7) 0.5390(7)
C54 C 0.7387(10) 0.3877(9) 0.5203(9)
H47 H 0.7794 0.3657 0.5511
C55 C 0.7260(12) 0.3582(9) 0.4568(9)
H48 H 0.7627 0.3195 0.4425
C56 C 0.7187(9) 0.4858(8) 0.6012(8)
O3 O 0.1555(10) 0.8592(7) 0.6498(6)
O4 O 0.2739(5) 0.9572(5) 0.3607(5)
N2 N 0.1716(7) 0.2948(6) 0.7092(6)
C1 C 0.0135(8) 0.4345(6) 0.7597(6)
H1 H 0.0071 0.4679 0.7950
C2 C 0.0851(8) 0.3893(7) 0.7623(6)
H2 H 0.1259 0.3901 0.7994
C3 C 0.0985(9) 0.3409(6) 0.7090(7)
C4 C 0.0333(8) 0.3424(7) 0.6567(7)
H3 H 0.0391 0.3120 0.6190
C6 C 0.2274(9) 0.2865(6) 0.7699(6)
H5 H 0.1884 0.2916 0.8102
H6 H 0.2750 0.3238 0.7713
C7 C 0.1986(8) 0.2564(7) 0.6502(6)
H7 H 0.1813 0.2838 0.6097
H8 H 0.1661 0.2104 0.6487
C18 C 0.0332(12) 0.7756(8) 0.6212(8)
H18 H 0.0216 0.7976 0.5792
C19 C 0.1006(11) 0.7997(8) 0.6624(8)
C20 C 0.1179(11) 0.7706(8) 0.7255(7)
H19 H 0.1645 0.7893 0.7536
C21 C 0.0648(10) 0.7134(8) 0.7457(8)
H20 H 0.0746 0.6919 0.7882
C22 C 0.1621(13) 0.8848(9) 0.5836(7)
C23 C 0.1077(11) 0.9404(9) 0.5638(8)
H21 H 0.0586 0.9559 0.5913
C24 C 0.1249(9) 0.9730(9) 0.5045(7)
C25 C 0.1923(9) 0.9488(7) 0.4610(7)
C26 C 0.2387(10) 0.8877(9) 0.4797(9)
H23 H 0.2794 0.8657 0.4489
C27 C 0.2260(12) 0.8582(9) 0.5432(9)
H24 H 0.2627 0.8195 0.5575
C28 C 0.2187(9) 0.9858(8) 0.3988(8)
N5 N 0.5485(7) 0.0647(6) 0.7111(5)
N6 N 0.3284(7) 0.2052(6) 0.7092(6)
C29 C 0.4865(8) 0.0655(6) 0.7597(6)
H25 H 0.4929 0.0321 0.7950
C30 C 0.4149(8) 0.1107(7) 0.7623(6)
H26 H 0.3741 0.1099 0.7994
C31 C 0.4015(9) 0.1591(6) 0.7090(7)
C32 C 0.4667(8) 0.1576(7) 0.6567(7)
H27 H 0.4609 0.1880 0.6190
C33 C 0.5379(8) 0.1115(6) 0.6616(6)
H28 H 0.5831 0.1128 0.6275
C34 C 0.2726(9) 0.2135(6) 0.7699(6)
H29 H 0.3116 0.2084 0.8102
H30 H 0.2250 0.1762 0.7713
C35 C 0.3014(8) 0.2436(7) 0.6502(6)
H31 H 0.3187 0.2162 0.6097
H32 H 0.3339 0.2896 0.6487
O11 O 0.7261(5) 0.0428(5) 0.6393(5)
N8 N 0.0703(7) 0.9992(6) 0.0497(5)
C36 C 0.1932(9) 0.9552(7) 0.2046(6)
H33 H 0.1887 0.9214 0.2397
C37 C 0.1325(8) 0.9513(7) 0.1533(6)
H34 H 0.0880 0.9147 0.1532
C41 C 0.0134(8) 0.9367(7) 0.0381(6)
H37 H 0.0448 0.9046 0.0063
H38 H 0.0049 0.9109 0.0808
N4_2 N 0.9297(7) 0.0008(6) 0.9503(5)
C8_2 C 0.8068(9) 0.0448(7) 0.7954(6)
H9_2 H 0.8113 0.0786 0.7603
C9_2 C 0.8675(8) 0.0487(7) 0.8467(6)
H10_2 H 0.9120 0.0853 0.8468
C13_2 C 0.9866(8) 0.0633(7) 0.9619(6)
H13_2 H 0.9552 0.0954 0.9937
H14_2 H 0.9951 0.0891 0.9192
O3_2 O 0.8445(10) 0.1408(7) 0.3502(6)
N2_2 N 0.8284(7) 0.7052(6) 0.2908(6)
C1_2 C 0.9865(8) 0.5655(6) 0.2403(6)
H1_2 H 0.9929 0.5321 0.2050
C2_2 C 0.9149(8) 0.6107(7) 0.2377(6)
H2_2 H 0.8741 0.6099 0.2006
C3_2 C 0.9015(9) 0.6591(6) 0.2910(7)
C4_2 C 0.9667(8) 0.6576(7) 0.3433(7)
H3_2 H 0.9609 0.6880 0.3810
C6_2 C 0.7726(9) 0.7135(6) 0.2301(6)
H5_2 H 0.8116 0.7084 0.1898
H6_2 H 0.7250 0.6762 0.2287
C7_2 C 0.8014(8) 0.7436(7) 0.3498(6)
H7_2 H 0.8187 0.7162 0.3903
H8_2 H 0.8339 0.7896 0.3513
C18_2 C 0.9668(12) 0.2244(8) 0.3788(8)
H18_2 H 0.9784 0.2024 0.4208
C19_2 C 0.8994(11) 0.2003(8) 0.3376(8)
C20_2 C 0.8821(11) 0.2294(8) 0.2745(7)
H19_2 H 0.8355 0.2107 0.2464
C21_2 C 0.9352(10) 0.2866(8) 0.2543(8)
H20_2 H 0.9254 0.3081 0.2118
C22_2 C 0.8379(13) 0.1152(9) 0.4164(7)
C23_2 C 0.8923(11) 0.0596(9) 0.4362(8)
H21_2 H 0.9414 0.0441 0.4087
C24_2 C 0.8751(9) 0.0270(9) 0.4955(7)
C25_2 C 0.8077(9) 0.0512(7) 0.5390(7)
C26_2 C 0.7613(10) 0.1123(9) 0.5203(9)
H23_2 H 0.7206 0.1343 0.5511
C27_2 C 0.7740(12) 0.1418(9) 0.4568(9)
H24_2 H 0.7373 0.1805 0.4425
C28_2 C 0.7813(9) 0.0142(8) 0.6012(8)
N5_2 N 0.4515(7) 0.9353(6) 0.2889(5)
N6_2 N 0.6716(7) 0.7948(6) 0.2908(6)
C29_2 C 0.5135(8) 0.9345(6) 0.2403(6)
H25_2 H 0.5071 0.9679 0.2050
C30_2 C 0.5851(8) 0.8893(7) 0.2377(6)
H26_2 H 0.6259 0.8901 0.2006
C31_2 C 0.5985(9) 0.8409(6) 0.2910(7)
C32_2 C 0.5333(8) 0.8424(7) 0.3433(7)
H27_2 H 0.5391 0.8120 0.3810
C33_2 C 0.4621(8) 0.8885(6) 0.3384(6)
H28_2 H 0.4169 0.8872 0.3725
C34_2 C 0.7274(9) 0.7865(6) 0.2301(6)
H29_2 H 0.6884 0.7916 0.1898
H30_2 H 0.7750 0.8238 0.2287
C35_2 C 0.6986(8) 0.7564(7) 0.3498(6)
H31_2 H 0.6813 0.7838 0.3903
H32_2 H 0.6661 0.7104 0.3513
Zn2 Zn 0.65686(10) 0.99510(8) 0.71159(8)
O6_2 O 0.6088(7) 0.9043(5) 0.6792(6)
O7_2 O 0.5481(8) 0.8999(6) 0.7824(7)
O8_2 O 0.3445(10) 0.6408(7) 0.6498(6)
O9 O 0.2261(5) 0.5428(5) 0.3607(5)
O10_2 O 0.3076(8) 0.4492(7) 0.3901(5)
C43_2 C 0.5579(10) 0.8768(8) 0.7253(9)
C44_2 C 0.5037(10) 0.8121(7) 0.7025(7)
C45_2 C 0.5178(11) 0.7817(7) 0.6422(9)
H41_2 H 0.5639 0.8002 0.6135
C46_2 C 0.4668(12) 0.7244(8) 0.6212(8)
H42_2 H 0.4784 0.7024 0.5792
C47_2 C 0.3994(11) 0.7003(8) 0.6624(8)
C48_2 C 0.3821(11) 0.7294(8) 0.7255(7)
H43_2 H 0.3355 0.7107 0.7536
C49_2 C 0.4352(10) 0.7866(8) 0.7457(8)
H44_2 H 0.4254 0.8081 0.7882
C50_2 C 0.3379(13) 0.6152(9) 0.5836(7)
C51_2 C 0.3923(11) 0.5596(9) 0.5638(8)
H45_2 H 0.4414 0.5441 0.5913
C52_2 C 0.3751(9) 0.5270(9) 0.5045(7)
H46_2 H 0.4100 0.4865 0.4924
C53_2 C 0.3077(9) 0.5512(7) 0.4610(7)
C54_2 C 0.2613(10) 0.6123(9) 0.4797(9)
H47_2 H 0.2206 0.6343 0.4489
C55_2 C 0.2740(12) 0.6418(9) 0.5432(9)
H48_2 H 0.2373 0.6805 0.5575
C56_2 C 0.2813(9) 0.5142(8) 0.3988(8)
Zn4 Zn 0.15686(10) 0.49510(8) 0.28841(8)
N9 N 0.7397(7) 0.9949(6) 0.7917(5)
C14 C 0.5811(8) 0.5426(7) 0.0093(6)
H16 H 0.6163 0.5162 0.0435
N7_2 N 0.2397(7) 0.4949(6) 0.2083(5)
N8_2 N 0.4297(7) 0.5008(6) 0.0497(5)
C36_2 C 0.3068(9) 0.5448(7) 0.2046(6)
H33_2 H 0.3113 0.5786 0.2397
C37_2 C 0.3675(8) 0.5487(7) 0.1533(6)
H34_2 H 0.4120 0.5853 0.1532
C38_2 C 0.3660(7) 0.4991(7) 0.0999(6)
C39_2 C 0.2941(8) 0.4514(6) 0.1026(6)
H35_2 H 0.2859 0.4186 0.0670
C40_2 C 0.2344(8) 0.4508(6) 0.1557(6)
H36_2 H 0.1863 0.4170 0.1552
C41_2 C 0.4866(8) 0.5633(7) 0.0381(6)
H37_2 H 0.4552 0.5954 0.0063
H38_2 H 0.4951 0.5891 0.0808
H39_2 H 0.3842 0.4141 0.0023
C10_2 C 0.8660(7) 0.9991(7) 0.9001(6)
C11_2 C 0.7941(8) 0.9514(6) 0.8974(6)
H11_2 H 0.7859 0.9186 0.9330
C12_2 C 0.7344(8) 0.9508(6) 0.8443(6)
H12_2 H 0.6863 0.9170 0.8448
H15_2 H 0.8842 0.9141 0.9977
O1_2 O 0.1088(7) 0.4043(5) 0.3208(6)
O2_2 O 0.0481(8) 0.3999(6) 0.2176(7)
N1_2 N 0.0485(7) 0.5647(6) 0.2889(5)
C5_2 C 0.0379(8) 0.6115(6) 0.3384(6)
H4_2 H 0.0831 0.6128 0.3725
C15_2 C 0.0579(10) 0.3768(8) 0.2747(9)
C16_2 C 0.0037(10) 0.3121(7) 0.2975(7)
C17_2 C 0.0178(11) 0.2817(7) 0.3578(9)
H17_2 H 0.0639 0.3002 0.3865
O5_2 O 0.8076(8) 0.9492(7) 0.6099(5)
H22_2 H 0.9100 0.9865 0.5076
C42_2 C 0.0811(8) 0.0426(7) 0.9907(6)
H40_2 H 0.1163 0.0162 0.9565
C14_2 C 0.9189(8) 0.9574(7) 0.0093(6)
H16_2 H 0.8837 0.9838 0.0435
Zn1_2 Zn 0.15686(10) 0.00490(8) 0.78841(8)
O1_3 O 0.1088(7) 0.0957(5) 0.8208(6)
O2_3 O 0.0481(8) 0.1001(6) 0.7176(7)
N3_2 N 0.2397(7) 0.0051(6) 0.7083(5)
C10_3 C 0.3660(7) 0.0009(7) 0.5999(6)
C11_3 C 0.2941(8) 0.0486(6) 0.6026(6)
H11_3 H 0.2859 0.0814 0.5670
C12_3 C 0.2344(8) 0.0492(6) 0.6557(6)
H12_3 H 0.1863 0.0830 0.6552
C14_3 C 0.4189(8) 0.0426(7) 0.4907(6)
H15_3 H 0.3842 0.0859 0.5023
H16_3 H 0.3837 0.0162 0.4565
C15_3 C 0.0579(10) 0.1232(8) 0.7747(9)
C16_3 C 0.0037(10) 0.1879(7) 0.7975(7)
C17_3 C 0.0178(11) 0.2183(7) 0.8578(9)
H17_3 H 0.0639 0.1998 0.8865
N8_3 N 0.5703(7) 0.0008(6) 0.4503(5)
C36_3 C 0.6932(9) 0.0448(7) 0.2954(6)
H33_3 H 0.6887 0.0786 0.2603
C37_3 C 0.6325(8) 0.0487(7) 0.3467(6)
H34_3 H 0.5880 0.0853 0.3468
C41_3 C 0.5134(8) 0.0633(7) 0.4619(6)
H37_3 H 0.5448 0.0954 0.4937
H38_3 H 0.5049 0.0891 0.4192
O9_2 O 0.7739(5) 0.0428(5) 0.1393(5)
C53_3 C 0.6923(9) 0.0512(7) 0.0390(7)
C54_3 C 0.7387(10) 0.1123(9) 0.0203(9)
H47_3 H 0.7794 0.1343 0.0511
C56_3 C 0.7187(9) 0.0142(8) 0.1012(8)
O10_3 O 0.3076(8) 0.0508(7) 0.8901(5)
H46_3 H 0.4100 0.0135 0.9924
N1_3 N 0.9515(7) 0.0647(6) 0.2111(5)
C5_3 C 0.9621(8) 0.1115(6) 0.1616(6)
H4_3 H 0.9169 0.1128 0.1275
N1_4 N 0.0485(7) 0.9353(6) 0.7889(5)
N4_3 N 0.4297(7) 0.9992(6) 0.5497(5)
C5_4 C 0.0379(8) 0.8885(6) 0.8384(6)
H4_4 H 0.0831 0.8872 0.8725
C8_3 C 0.3068(9) 0.9552(7) 0.7046(6)
H9_3 H 0.3113 0.9214 0.7397
C9_3 C 0.3675(8) 0.9513(7) 0.6533(6)
H10_3 H 0.4120 0.9147 0.6532
C13_3 C 0.4866(8) 0.9367(7) 0.5381(6)
H13_3 H 0.4552 0.9046 0.5063
H14_3 H 0.4951 0.9109 0.5808
N7_3 N 0.7603(7) 0.9949(6) 0.2917(5)
C38_3 C 0.6340(7) 0.9991(7) 0.4001(6)
C39_3 C 0.7059(8) 0.9514(6) 0.3974(6)
H35_3 H 0.7141 0.9186 0.4330
C40_3 C 0.7656(8) 0.9508(6) 0.3443(6)
H36_3 H 0.8137 0.9170 0.3448
C42_3 C 0.5811(8) 0.9574(7) 0.5093(6)
H39_3 H 0.6158 0.9141 0.4977
H40_3 H 0.6163 0.9838 0.5435
Zn3 Zn 0.84314(10) 0.99510(8) 0.21159(8)
O12_2 O 0.2261(5) 0.9572(5) 0.8607(5)
O10_4 O 0.6924(8) 0.9492(7) 0.1099(5)
H46_4 H 0.5900 0.9865 0.0076
C53_4 C 0.3077(9) 0.9488(7) 0.9610(7)
C54_4 C 0.2613(10) 0.8877(9) 0.9797(9)
H47_4 H 0.2206 0.8657 0.9489
C56_4 C 0.2813(9) 0.9858(8) 0.8988(8)
O1_4 O 0.8912(7) 0.9043(5) 0.1792(6)
O2_4 O 0.9519(8) 0.8999(6) 0.2824(7)
C15_4 C 0.9421(10) 0.8768(8) 0.2253(9)
C16_4 C 0.9963(10) 0.8121(7) 0.2025(7)
C17_4 C 0.9822(11) 0.7817(7) 0.1422(9)
H17_4 H 0.9361 0.8002 0.1135
O4_2 O 0.7261(5) 0.4572(5) 0.1393(5)
O5_3 O 0.8076(8) 0.5508(7) 0.1099(5)
H22_3 H 0.9100 0.5135 0.0076
C25_3 C 0.8077(9) 0.4488(7) 0.0390(7)
C26_3 C 0.7613(10) 0.3877(9) 0.0203(9)
H23_3 H 0.7206 0.3657 0.0511
C28_3 C 0.7813(9) 0.4858(8) 0.1012(8)
Zn5_2 Zn 0.65686(10) 0.50490(8) 0.21159(8)
N7_4 N 0.7397(7) 0.5051(6) 0.2917(5)
N8_4 N 0.9297(7) 0.4992(6) 0.4503(5)
C36_4 C 0.8068(9) 0.4552(7) 0.2954(6)
H33_4 H 0.8113 0.4214 0.2603
C37_4 C 0.8675(8) 0.4513(7) 0.3467(6)
H34_4 H 0.9120 0.4147 0.3468
C38_4 C 0.8660(7) 0.5009(7) 0.4001(6)
C39_4 C 0.7941(8) 0.5486(6) 0.3974(6)
H35_4 H 0.7859 0.5814 0.4330
C40_4 C 0.7344(8) 0.5492(6) 0.3443(6)
H36_4 H 0.6863 0.5830 0.3448
C41_4 C 0.9866(8) 0.4367(7) 0.4619(6)
H37_4 H 0.9552 0.4046 0.4937
H38_4 H 0.9951 0.4109 0.4192
C42_4 C 0.9189(8) 0.5426(7) 0.5093(6)
H39_4 H 0.8842 0.5859 0.4977
H40_4 H 0.8837 0.5162 0.5435
N2_3 N 0.1716(7) 0.2052(6) 0.2092(6)
C1_3 C 0.0135(8) 0.0655(6) 0.2597(6)
H1_3 H 0.0071 0.0321 0.2950
C2_3 C 0.0851(8) 0.1107(7) 0.2623(6)
H2_3 H 0.1259 0.1099 0.2994
C3_3 C 0.0985(9) 0.1591(6) 0.2090(7)
C4_3 C 0.0333(8) 0.1576(7) 0.1567(7)
H3_3 H 0.0391 0.1880 0.1190
C6_3 C 0.2274(9) 0.2135(6) 0.2699(6)
H5_3 H 0.1884 0.2084 0.3102
H6_3 H 0.2750 0.1762 0.2713
C7_3 C 0.1986(8) 0.2436(7) 0.1502(6)
H7_3 H 0.1813 0.2162 0.1097
H8_3 H 0.1661 0.2896 0.1487
N5_3 N 0.5485(7) 0.4353(6) 0.2111(5)
N6_3 N 0.3284(7) 0.2948(6) 0.2092(6)
C29_3 C 0.4865(8) 0.4345(6) 0.2597(6)
H25_3 H 0.4929 0.4679 0.2950
C30_3 C 0.4149(8) 0.3893(7) 0.2623(6)
H26_3 H 0.3741 0.3901 0.2994
C31_3 C 0.4015(9) 0.3409(6) 0.2090(7)
C32_3 C 0.4667(8) 0.3424(7) 0.1567(7)
H27_3 H 0.4609 0.3120 0.1190
C33_3 C 0.5379(8) 0.3885(6) 0.1616(6)
H28_3 H 0.5831 0.3872 0.1275
C34_3 C 0.2726(9) 0.2865(6) 0.2699(6)
H29_3 H 0.3116 0.2916 0.3102
H30_3 H 0.2250 0.3238 0.2713
C35_3 C 0.3014(8) 0.2564(7) 0.1502(6)
H31_3 H 0.3187 0.2838 0.1097
H32_3 H 0.3339 0.2104 0.1487
O6_3 O 0.6088(7) 0.5957(5) 0.1792(6)
O7_3 O 0.5481(8) 0.6001(6) 0.2824(7)
O8_3 O 0.3445(10) 0.8592(7) 0.1498(6)
C43_3 C 0.5579(10) 0.6232(8) 0.2253(9)
C44_3 C 0.5037(10) 0.6879(7) 0.2025(7)
C45_3 C 0.5178(11) 0.7183(7) 0.1422(9)
H41_3 H 0.5639 0.6998 0.1135
C46_3 C 0.4668(12) 0.7756(8) 0.1212(8)
H42_3 H 0.4784 0.7976 0.0792
C47_3 C 0.3994(11) 0.7997(8) 0.1624(8)
C48_3 C 0.3821(11) 0.7706(8) 0.2255(7)
H43_3 H 0.3355 0.7893 0.2536
C49_3 C 0.4352(10) 0.7134(8) 0.2457(8)
H44_3 H 0.4254 0.6919 0.2882
C50_3 C 0.3379(13) 0.8848(9) 0.0836(7)
C51_3 C 0.3923(11) 0.9404(9) 0.0638(8)
H45_3 H 0.4414 0.9559 0.0913
C52_3 C 0.3751(9) 0.9730(9) 0.0045(7)
C55_3 C 0.2740(12) 0.8582(9) 0.0432(9)
H48_3 H 0.2373 0.8195 0.0575
O3_3 O 0.8445(10) 0.3592(7) 0.8502(6)
C18_3 C 0.9668(12) 0.2756(8) 0.8788(8)
H18_3 H 0.9784 0.2976 0.9208
C19_3 C 0.8994(11) 0.2997(8) 0.8376(8)
C20_3 C 0.8821(11) 0.2706(8) 0.7745(7)
H19_3 H 0.8355 0.2893 0.7464
C21_3 C 0.9352(10) 0.2134(8) 0.7543(8)
H20_3 H 0.9254 0.1919 0.7118
C22_3 C 0.8379(13) 0.3848(9) 0.9164(7)
C23_3 C 0.8923(11) 0.4404(9) 0.9362(8)
H21_3 H 0.9414 0.4559 0.9087
C24_3 C 0.8751(9) 0.4730(9) 0.9955(7)
C27_3 C 0.7740(12) 0.3582(9) 0.9568(9)
H24_3 H 0.7373 0.3195 0.9425
N2_4 N 0.8284(7) 0.7948(6) 0.7908(6)
C1_4 C 0.9865(8) 0.9345(6) 0.7403(6)
H1_4 H 0.9929 0.9679 0.7050
C2_4 C 0.9149(8) 0.8893(7) 0.7377(6)
H2_4 H 0.8741 0.8901 0.7006
C3_4 C 0.9015(9) 0.8409(6) 0.7910(7)
C4_4 C 0.9667(8) 0.8424(7) 0.8433(7)
H3_4 H 0.9609 0.8120 0.8810
C6_4 C 0.7726(9) 0.7865(6) 0.7301(6)
H5_4 H 0.8116 0.7916 0.6898
H6_4 H 0.7250 0.8238 0.7287
C7_4 C 0.8014(8) 0.7564(7) 0.8498(6)
H7_4 H 0.8187 0.7838 0.8903
H8_4 H 0.8339 0.7104 0.8513
N5_4 N 0.4515(7) 0.5647(6) 0.7889(5)
N6_4 N 0.6716(7) 0.7052(6) 0.7908(6)
C29_4 C 0.5135(8) 0.5655(6) 0.7403(6)
H25_4 H 0.5071 0.5321 0.7050
C30_4 C 0.5851(8) 0.6107(7) 0.7377(6)
H26_4 H 0.6259 0.6099 0.7006
C31_4 C 0.5985(9) 0.6591(6) 0.7910(7)
C32_4 C 0.5333(8) 0.6576(7) 0.8433(7)
H27_4 H 0.5391 0.6880 0.8810
C33_4 C 0.4621(8) 0.6115(6) 0.8384(6)
H28_4 H 0.4169 0.6128 0.8725
C34_4 C 0.7274(9) 0.7135(6) 0.7301(6)
H29_4 H 0.6884 0.7084 0.6898
H30_4 H 0.7750 0.6762 0.7287
C35_4 C 0.6986(8) 0.7436(7) 0.8498(6)
H31_4 H 0.6813 0.7162 0.8903
H32_4 H 0.6661 0.7896 0.8513
Zn2_2 Zn 0.34314(10) 0.49510(8) 0.78841(8)
O6_4 O 0.3912(7) 0.4043(5) 0.8208(6)
O7_4 O 0.4519(8) 0.3999(6) 0.7176(7)
O8_4 O 0.6555(10) 0.1408(7) 0.8502(6)
C43_4 C 0.4421(10) 0.3768(8) 0.7747(9)
C44_4 C 0.4963(10) 0.3121(7) 0.7975(7)
C45_4 C 0.4822(11) 0.2817(7) 0.8578(9)
H41_4 H 0.4361 0.3002 0.8865
C46_4 C 0.5332(12) 0.2244(8) 0.8788(8)
H42_4 H 0.5216 0.2024 0.9208
C47_4 C 0.6006(11) 0.2003(8) 0.8376(8)
C48_4 C 0.6179(11) 0.2294(8) 0.7745(7)
H43_4 H 0.6645 0.2107 0.7464
C49_4 C 0.5648(10) 0.2866(8) 0.7543(8)
H44_4 H 0.5746 0.3081 0.7118
C50_4 C 0.6621(13) 0.1152(9) 0.9164(7)
C51_4 C 0.6077(11) 0.0596(9) 0.9362(8)
H45_4 H 0.5586 0.0441 0.9087
C52_4 C 0.6249(9) 0.0270(9) 0.9955(7)
C55_4 C 0.7260(12) 0.1418(9) 0.9568(9)
H48_4 H 0.7627 0.1805 0.9425
O11_2 O 0.2739(5) 0.5428(5) 0.8607(5)
N9_2 N 0.2603(7) 0.4949(6) 0.7083(5)
N4_4 N 0.0703(7) 0.5008(6) 0.5497(5)
C8_4 C 0.1932(9) 0.5448(7) 0.7046(6)
H9_4 H 0.1887 0.5786 0.7397
C9_4 C 0.1325(8) 0.5487(7) 0.6533(6)
H10_4 H 0.0880 0.5853 0.6532
C10_4 C 0.1340(7) 0.4991(7) 0.5999(6)
C11_4 C 0.2059(8) 0.4514(6) 0.6026(6)
H11_4 H 0.2141 0.4186 0.5670
C12_4 C 0.2656(8) 0.4508(6) 0.6557(6)
H12_4 H 0.3137 0.4170 0.6552
C13_4 C 0.0134(8) 0.5633(7) 0.5381(6)
H13_4 H 0.0448 0.5954 0.5063
H14_4 H 0.0049 0.5891 0.5808
C14_4 C 0.0811(8) 0.4574(7) 0.4907(6)
H15_4 H 0.1158 0.4141 0.5023
H16_4 H 0.1163 0.4838 0.4565
O5_4 O 0.1924(8) 0.4492(7) 0.8901(5)
H22_4 H 0.0900 0.4865 0.9924
C25_4 C 0.1923(9) 0.5512(7) 0.9610(7)
C26_4 C 0.2387(10) 0.6123(9) 0.9797(9)
H23_4 H 0.2794 0.6343 0.9489
C28_4 C 0.2187(9) 0.5142(8) 0.8988(8)
O3_4 O 0.1555(10) 0.6408(7) 0.1498(6)
C18_4 C 0.0332(12) 0.7244(8) 0.1212(8)
H18_4 H 0.0216 0.7024 0.0792
C19_4 C 0.1006(11) 0.7003(8) 0.1624(8)
C20_4 C 0.1179(11) 0.7294(8) 0.2255(7)
H19_4 H 0.1645 0.7107 0.2536
C21_4 C 0.0648(10) 0.7866(8) 0.2457(8)
H20_4 H 0.0746 0.8081 0.2882
C22_4 C 0.1621(13) 0.6152(9) 0.0836(7)
C23_4 C 0.1077(11) 0.5596(9) 0.0638(8)
H21_4 H 0.0586 0.5441 0.0913
C24_4 C 0.1249(9) 0.5270(9) 0.0045(7)
C27_4 C 0.2260(12) 0.6418(9) 0.0432(9)
H24_4 H 0.2627 0.6805 0.0575
loop_
_geom_bond_atom_site_label_1
_geom_bond_atom_site_label_2
_geom_bond_site_symmetry_1
_geom_bond_site_symmetry_2
Zn1 O1 1_555 1_555
O1 C15 1_555 1_555
O2 C15 1_555 1_555
N1 Zn1 1_555 1_555
N3 Zn1 1_555 1_555
N4 C10 1_555 1_555
C5 N1 1_555 1_555
H4 C5 1_555 1_555
C8 N3 1_555 1_555
H9 C8 1_555 1_555
C9 C8 1_555 1_555
H10 C9 1_555 1_555
C10 C9 1_555 1_555
C11 C10 1_555 1_555
H11 C11 1_555 1_555
C12 N3 1_555 1_555
H12 C12 1_555 1_555
C13 N4 1_555 1_555
H13 C13 1_555 1_555
H14 C13 1_555 1_555
C15 C16 1_555 1_555
C16 C17 1_555 1_555
C17 H17 1_555 1_555
C42 C13 1_555 1_555
H40 C42 1_555 1_555
O12 Zn1 1_555 1_555
C11 C12 1_555 1_555
C39 C38 1_555 1_555
H35 C39 1_555 1_555
C40 N7 1_555 1_555
H36 C40 1_555 1_555
Zn5 N7 1_555 1_555
C39 C40 1_555 1_555
O6 Zn5 1_555 1_555
O7 C43 1_555 1_555
O8 C47 1_555 1_555
O12 C56 1_555 1_555
O10 C56 1_555 1_555
C43 O6 1_555 1_555
C44 C43 1_555 1_555
C45 C44 1_555 1_555
H41 C45 1_555 1_555
C46 C45 1_555 1_555
H42 C46 1_555 1_555
C47 C46 1_555 1_555
C48 C47 1_555 1_555
H43 C48 1_555 1_555
C49 C44 1_555 1_555
H44 C49 1_555 1_555
C50 O8 1_555 1_555
C51 C50 1_555 1_555
H45 C51 1_555 1_555
C52 C51 1_555 1_555
H46 C52 1_555 1_555
C53 C52 1_555 1_555
C54 C53 1_555 1_555
H47 C54 1_555 1_555
C55 C50 1_555 1_555
H48 C55 1_555 1_555
C56 C53 1_555 1_555
C48 C49 1_555 1_555
C54 C55 1_555 1_555
O3 C19 1_555 1_555
O4 C28 1_555 1_555
N2 C3 1_555 1_555
H1 C1 1_555 1_555
C2 C1 1_555 1_555
H2 C2 1_555 1_555
C3 C2 1_555 1_555
C4 C3 1_555 1_555
H3 C4 1_555 1_555
C6 N2 1_555 1_555
H5 C6 1_555 1_555
H6 C6 1_555 1_555
C7 N2 1_555 1_555
H7 C7 1_555 1_555
H8 C7 1_555 1_555
H18 C18 1_555 1_555
C19 C18 1_555 1_555
C20 C19 1_555 1_555
H19 C20 1_555 1_555
H20 C21 1_555 1_555
C22 O3 1_555 1_555
C23 C22 1_555 1_555
H21 C23 1_555 1_555
C24 C23 1_555 1_555
C25 C24 1_555 1_555
C26 C25 1_555 1_555
H23 C26 1_555 1_555
C27 C22 1_555 1_555
H24 C27 1_555 1_555
C28 C25 1_555 1_555
N5 C29 1_555 1_555
N6 C31 1_555 1_555
C29 H25 1_555 1_555
C30 C29 1_555 1_555
H26 C30 1_555 1_555
C31 C30 1_555 1_555
C32 C31 1_555 1_555
H27 C32 1_555 1_555
C33 N5 1_555 1_555
H28 C33 1_555 1_555
C34 C6 1_555 1_555
H29 C34 1_555 1_555
H30 C34 1_555 1_555
C35 C7 1_555 1_555
H31 C35 1_555 1_555
H32 C35 1_555 1_555
C20 C21 1_555 1_555
C26 C27 1_555 1_555
N6 C34 1_555 1_555
N6 C35 1_555 1_555
C32 C33 1_555 1_555
C36 H33 1_555 1_555
C37 C36 1_555 1_555
H34 C37 1_555 1_555
H37 C41 1_555 1_555
H38 C41 1_555 1_555
N8 C41 1_555 1_555
H9_2 C8_2 1_555 1_555
C9_2 C8_2 1_555 1_555
H10_2 C9_2 1_555 1_555
C13_2 N4_2 1_555 1_555
H13_2 C13_2 1_555 1_555
H14_2 C13_2 1_555 1_555
O3_2 C19_2 1_555 1_555
O11 C28_2 1_555 1_555
N2_2 C3_2 1_555 1_555
H1_2 C1_2 1_555 1_555
C2_2 C1_2 1_555 1_555
H2_2 C2_2 1_555 1_555
C3_2 C2_2 1_555 1_555
C4_2 C3_2 1_555 1_555
H3_2 C4_2 1_555 1_555
C6_2 N2_2 1_555 1_555
H5_2 C6_2 1_555 1_555
H6_2 C6_2 1_555 1_555
C7_2 N2_2 1_555 1_555
H7_2 C7_2 1_555 1_555
H8_2 C7_2 1_555 1_555
H18_2 C18_2 1_555 1_555
C19_2 C18_2 1_555 1_555
C20_2 C19_2 1_555 1_555
H19_2 C20_2 1_555 1_555
H20_2 C21_2 1_555 1_555
C22_2 O3_2 1_555 1_555
C23_2 C22_2 1_555 1_555
H21_2 C23_2 1_555 1_555
C24_2 C23_2 1_555 1_555
C25_2 C24_2 1_555 1_555
C26_2 C25_2 1_555 1_555
H23_2 C26_2 1_555 1_555
C27_2 C22_2 1_555 1_555
H24_2 C27_2 1_555 1_555
C28_2 C25_2 1_555 1_555
N5_2 C29_2 1_555 1_555
N6_2 C31_2 1_555 1_555
C29_2 H25_2 1_555 1_555
C30_2 C29_2 1_555 1_555
H26_2 C30_2 1_555 1_555
C31_2 C30_2 1_555 1_555
C32_2 C31_2 1_555 1_555
H27_2 C32_2 1_555 1_555
C33_2 N5_2 1_555 1_555
H28_2 C33_2 1_555 1_555
C34_2 C6_2 1_555 1_555
H29_2 C34_2 1_555 1_555
H30_2 C34_2 1_555 1_555
C35_2 C7_2 1_555 1_555
H31_2 C35_2 1_555 1_555
H32_2 C35_2 1_555 1_555
C20_2 C21_2 1_555 1_555
C26_2 C27_2 1_555 1_555
N6_2 C34_2 1_555 1_555
N6_2 C35_2 1_555 1_555
C32_2 C33_2 1_555 1_555
O6_2 Zn2 1_555 1_555
O7_2 C43_2 1_555 1_555
O8_2 C47_2 1_555 1_555
O9 C56_2 1_555 1_555
O10_2 C56_2 1_555 1_555
C43_2 O6_2 1_555 1_555
C44_2 C43_2 1_555 1_555
C45_2 C44_2 1_555 1_555
H41_2 C45_2 1_555 1_555
C46_2 C45_2 1_555 1_555
H42_2 C46_2 1_555 1_555
C47_2 C46_2 1_555 1_555
C48_2 C47_2 1_555 1_555
H43_2 C48_2 1_555 1_555
C49_2 C44_2 1_555 1_555
H44_2 C49_2 1_555 1_555
C50_2 O8_2 1_555 1_555
C51_2 C50_2 1_555 1_555
H45_2 C51_2 1_555 1_555
C52_2 C51_2 1_555 1_555
H46_2 C52_2 1_555 1_555
C53_2 C52_2 1_555 1_555
C54_2 C53_2 1_555 1_555
H47_2 C54_2 1_555 1_555
C55_2 C50_2 1_555 1_555
H48_2 C55_2 1_555 1_555
C56_2 C53_2 1_555 1_555
Zn4 O9 1_555 1_555
N9 Zn2 1_555 1_555
C48_2 C49_2 1_555 1_555
C54_2 C55_2 1_555 1_555
H16 C14 1_555 1_555
N7_2 C36_2 1_555 1_555
N8_2 C38_2 1_555 1_555
C36_2 H33_2 1_555 1_555
C37_2 C36_2 1_555 1_555
H34_2 C37_2 1_555 1_555
C38_2 C37_2 1_555 1_555
C39_2 C38_2 1_555 1_555
H35_2 C39_2 1_555 1_555
C40_2 N7_2 1_555 1_555
H36_2 C40_2 1_555 1_555
C41_2 C14 1_555 1_555
H37_2 C41_2 1_555 1_555
H38_2 C41_2 1_555 1_555
Zn4 N7_2 1_555 1_555
N8_2 C41_2 1_555 1_555
C39_2 C40_2 1_555 1_555
C11_2 C10_2 1_555 1_555
H11_2 C11_2 1_555 1_555
C12_2 N9 1_555 1_555
H12_2 C12_2 1_555 1_555
C11_2 C12_2 1_555 1_555
Zn4 O1_2 1_555 1_555
O1_2 C15_2 1_555 1_555
O2_2 C15_2 1_555 1_555
N1_2 Zn4 1_555 1_555
C5_2 N1_2 1_555 1_555
H4_2 C5_2 1_555 1_555
C15_2 C16_2 1_555 1_555
C16_2 C17_2 1_555 1_555
C17_2 H17_2 1_555 1_555
H40_2 C42_2 1_555 1_555
H16_2 C14_2 1_555 1_555
Zn1_2 O1_3 1_555 1_555
O1_3 C15_3 1_555 1_555
O2_3 C15_3 1_555 1_555
N3_2 Zn1_2 1_555 1_555
C11_3 C10_3 1_555 1_555
H11_3 C11_3 1_555 1_555
C12_3 N3_2 1_555 1_555
H12_3 C12_3 1_555 1_555
H15_3 C14_3 1_555 1_555
H16_3 C14_3 1_555 1_555
C15_3 C16_3 1_555 1_555
C16_3 C17_3 1_555 1_555
C17_3 H17_3 1_555 1_555
C36_3 H33_3 1_555 1_555
C37_3 C36_3 1_555 1_555
H34_3 C37_3 1_555 1_555
C41_3 C14_3 1_555 1_555
H37_3 C41_3 1_555 1_555
H38_3 C41_3 1_555 1_555
C11_3 C12_3 1_555 1_555
N8_3 C41_3 1_555 1_555
O9_2 C56_3 1_555 1_555
C54_3 C53_3 1_555 1_555
H47_3 C54_3 1_555 1_555
C56_3 C53_3 1_555 1_555
C5_3 N1_3 1_555 1_555
H4_3 C5_3 1_555 1_555
C5_4 N1_4 1_555 1_555
H4_4 C5_4 1_555 1_555
H9_3 C8_3 1_555 1_555
C9_3 C8_3 1_555 1_555
H10_3 C9_3 1_555 1_555
C13_3 N4_3 1_555 1_555
H13_3 C13_3 1_555 1_555
H14_3 C13_3 1_555 1_555
C39_3 C38_3 1_555 1_555
H35_3 C39_3 1_555 1_555
C40_3 N7_3 1_555 1_555
H36_3 C40_3 1_555 1_555
C42_3 C13_3 1_555 1_555
H39_3 C42_3 1_555 1_555
H40_3 C42_3 1_555 1_555
Zn3 N7_3 1_555 1_555
C39_3 C40_3 1_555 1_555
O12_2 C56_4 1_555 1_555
C54_4 C53_4 1_555 1_555
H47_4 C54_4 1_555 1_555
C56_4 C53_4 1_555 1_555
Zn3 O1_4 1_555 1_555
O1_4 C15_4 1_555 1_555
O2_4 C15_4 1_555 1_555
C15_4 C16_4 1_555 1_555
C16_4 C17_4 1_555 1_555
C17_4 H17_4 1_555 1_555
O4_2 C28_3 1_555 1_555
O5_3 C28_3 1_555 1_555
C26_3 C25_3 1_555 1_555
H23_3 C26_3 1_555 1_555
C28_3 C25_3 1_555 1_555
Zn5_2 O4_2 1_555 1_555
N7_4 C36_4 1_555 1_555
N8_4 C38_4 1_555 1_555
C36_4 H33_4 1_555 1_555
C37_4 C36_4 1_555 1_555
H34_4 C37_4 1_555 1_555
C38_4 C37_4 1_555 1_555
C39_4 C38_4 1_555 1_555
H35_4 C39_4 1_555 1_555
C40_4 N7_4 1_555 1_555
H36_4 C40_4 1_555 1_555
H37_4 C41_4 1_555 1_555
H38_4 C41_4 1_555 1_555
H39_4 C42_4 1_555 1_555
H40_4 C42_4 1_555 1_555
Zn5_2 N7_4 1_555 1_555
N8_4 C41_4 1_555 1_555
N8_4 C42_4 1_555 1_555
C39_4 C40_4 1_555 1_555
N2_3 C3_3 1_555 1_555
H1_3 C1_3 1_555 1_555
C2_3 C1_3 1_555 1_555
H2_3 C2_3 1_555 1_555
C3_3 C2_3 1_555 1_555
C4_3 C3_3 1_555 1_555
H3_3 C4_3 1_555 1_555
C6_3 N2_3 1_555 1_555
H5_3 C6_3 1_555 1_555
H6_3 C6_3 1_555 1_555
C7_3 N2_3 1_555 1_555
H7_3 C7_3 1_555 1_555
H8_3 C7_3 1_555 1_555
N5_3 C29_3 1_555 1_555
N6_3 C31_3 1_555 1_555
C29_3 H25_3 1_555 1_555
C30_3 C29_3 1_555 1_555
H26_3 C30_3 1_555 1_555
C31_3 C30_3 1_555 1_555
C32_3 C31_3 1_555 1_555
H27_3 C32_3 1_555 1_555
C33_3 N5_3 1_555 1_555
H28_3 C33_3 1_555 1_555
C34_3 C6_3 1_555 1_555
H29_3 C34_3 1_555 1_555
H30_3 C34_3 1_555 1_555
C35_3 C7_3 1_555 1_555
H31_3 C35_3 1_555 1_555
H32_3 C35_3 1_555 1_555
Zn5_2 N5_3 1_555 1_555
O6_3 Zn5_2 1_555 1_555
O7_3 C43_3 1_555 1_555
O8_3 C47_3 1_555 1_555
C43_3 O6_3 1_555 1_555
C44_3 C43_3 1_555 1_555
C45_3 C44_3 1_555 1_555
H41_3 C45_3 1_555 1_555
C46_3 C45_3 1_555 1_555
H42_3 C46_3 1_555 1_555
C47_3 C46_3 1_555 1_555
C48_3 C47_3 1_555 1_555
H43_3 C48_3 1_555 1_555
C49_3 C44_3 1_555 1_555
H44_3 C49_3 1_555 1_555
C50_3 O8_3 1_555 1_555
C51_3 C50_3 1_555 1_555
H45_3 C51_3 1_555 1_555
C52_3 C51_3 1_555 1_555
C55_3 C50_3 1_555 1_555
H48_3 C55_3 1_555 1_555
N6_3 C34_3 1_555 1_555
N6_3 C35_3 1_555 1_555
C32_3 C33_3 1_555 1_555
C48_3 C49_3 1_555 1_555
O3_3 C19_3 1_555 1_555
H18_3 C18_3 1_555 1_555
C19_3 C18_3 1_555 1_555
C20_3 C19_3 1_555 1_555
H19_3 C20_3 1_555 1_555
H20_3 C21_3 1_555 1_555
C22_3 O3_3 1_555 1_555
C23_3 C22_3 1_555 1_555
H21_3 C23_3 1_555 1_555
C24_3 C23_3 1_555 1_555
C27_3 C22_3 1_555 1_555
H24_3 C27_3 1_555 1_555
C20_3 C21_3 1_555 1_555
N2_4 C3_4 1_555 1_555
H1_4 C1_4 1_555 1_555
C2_4 C1_4 1_555 1_555
H2_4 C2_4 1_555 1_555
C3_4 C2_4 1_555 1_555
C4_4 C3_4 1_555 1_555
H3_4 C4_4 1_555 1_555
C6_4 N2_4 1_555 1_555
H5_4 C6_4 1_555 1_555
H6_4 C6_4 1_555 1_555
C7_4 N2_4 1_555 1_555
H7_4 C7_4 1_555 1_555
H8_4 C7_4 1_555 1_555
N5_4 C29_4 1_555 1_555
N6_4 C31_4 1_555 1_555
C29_4 H25_4 1_555 1_555
C30_4 C29_4 1_555 1_555
H26_4 C30_4 1_555 1_555
C31_4 C30_4 1_555 1_555
C32_4 C31_4 1_555 1_555
H27_4 C32_4 1_555 1_555
C33_4 N5_4 1_555 1_555
H28_4 C33_4 1_555 1_555
C34_4 C6_4 1_555 1_555
H29_4 C34_4 1_555 1_555
H30_4 C34_4 1_555 1_555
C35_4 C7_4 1_555 1_555
H31_4 C35_4 1_555 1_555
H32_4 C35_4 1_555 1_555
Zn2_2 N5_4 1_555 1_555
O6_4 Zn2_2 1_555 1_555
O7_4 C43_4 1_555 1_555
O8_4 C47_4 1_555 1_555
C43_4 O6_4 1_555 1_555
C44_4 C43_4 1_555 1_555
C45_4 C44_4 1_555 1_555
H41_4 C45_4 1_555 1_555
C46_4 C45_4 1_555 1_555
H42_4 C46_4 1_555 1_555
C47_4 C46_4 1_555 1_555
C48_4 C47_4 1_555 1_555
H43_4 C48_4 1_555 1_555
C49_4 C44_4 1_555 1_555
H44_4 C49_4 1_555 1_555
C50_4 O8_4 1_555 1_555
C51_4 C50_4 1_555 1_555
H45_4 C51_4 1_555 1_555
C52_4 C51_4 1_555 1_555
C55_4 C50_4 1_555 1_555
H48_4 C55_4 1_555 1_555
O11_2 Zn2_2 1_555 1_555
N9_2 Zn2_2 1_555 1_555
N6_4 C34_4 1_555 1_555
N6_4 C35_4 1_555 1_555
C32_4 C33_4 1_555 1_555
C48_4 C49_4 1_555 1_555
N4_4 C10_4 1_555 1_555
C8_4 N9_2 1_555 1_555
H9_4 C8_4 1_555 1_555
C9_4 C8_4 1_555 1_555
H10_4 C9_4 1_555 1_555
C10_4 C9_4 1_555 1_555
C11_4 C10_4 1_555 1_555
H11_4 C11_4 1_555 1_555
C12_4 N9_2 1_555 1_555
H12_4 C12_4 1_555 1_555
C13_4 N4_4 1_555 1_555
H13_4 C13_4 1_555 1_555
H14_4 C13_4 1_555 1_555
C14_4 N4_4 1_555 1_555
H15_4 C14_4 1_555 1_555
H16_4 C14_4 1_555 1_555
C11_4 C12_4 1_555 1_555
O11_2 C28_4 1_555 1_555
O5_4 C28_4 1_555 1_555
C26_4 C25_4 1_555 1_555
H23_4 C26_4 1_555 1_555
C28_4 C25_4 1_555 1_555
O3_4 C19_4 1_555 1_555
H18_4 C18_4 1_555 1_555
C19_4 C18_4 1_555 1_555
C20_4 C19_4 1_555 1_555
H19_4 C20_4 1_555 1_555
H20_4 C21_4 1_555 1_555
C22_4 O3_4 1_555 1_555
C23_4 C22_4 1_555 1_555
H21_4 C23_4 1_555 1_555
C24_4 C23_4 1_555 1_555
C27_4 C22_4 1_555 1_555
H24_4 C27_4 1_555 1_555
C20_4 C21_4 1_555 1_555

#END
