
###############################################################################
#
# This file contains modified crystal structure data generated from the
# MOF subset of the Cambridge Structural Database (CSD) v543 
# hosted by the Cambridge Crystallographic Data Centre (CCDC).
#
# This work is licensed under the Creative Commons
# Attribution-NonCommercial-ShareAlike 4.0 International License.
# To view a copy of this license, visit
# http://creativecommons.org/licenses/by-nc-sa/4.0/
# or send a letter to
# Creative Commons, PO Box 1866, Mountain View, CA 94042, USA.
#
# CIF created using the CSD Python API on 29 September 2022
# The structure has been converted into the P1 space group
# The structure has a 3D framework
# The original CSD entry BURJOO is in the monoclinic crystal system
# The framework has been calculated to contain at least 10.0% void space
# The void calculation uses a probe of radius 1.32A, grid spacing 0.4
#
###############################################################################

data_BURJOO
_chemical_formula_moiety         '(C168 H104 Co10 N56 O30)n'
_symmetry_cell_setting           triclinic
_symmetry_space_group_name_H-M   'P 1'
_symmetry_Int_Tables_number      1
_space_group_name_Hall           'P 1'
loop_
_symmetry_equiv_pos_site_id
_symmetry_equiv_pos_as_xyz
1 x,y,z
_cell_length_a                   28.368(6)
_cell_length_b                   11.144(2)
_cell_length_c                   16.695(3)
_cell_angle_alpha                90
_cell_angle_beta                 116.37(3)
_cell_angle_gamma                90
_cell_volume                     4728.65
loop_
_atom_site_label
_atom_site_type_symbol
_atom_site_fract_x
_atom_site_fract_y
_atom_site_fract_z
Co1 Co 0.2500 0.2500 0.0000
Co2 Co 0.7500 0.2500 0.0000
H1 H 0.1658 0.0429 0.1310
C10 C 0.35524(19) 0.0878(5) 0.0907(3)
H4 H 0.3368 0.0493 0.1176
C11 C 0.40658(19) 0.0522(5) 0.1156(3)
C12 C 0.43481(18) 0.1070(4) 0.0760(3)
C13 C 0.40898(19) 0.1955(5) 0.0132(3)
C15 C 0.48956(18) 0.0783(4) 0.0970(3)
C16 C 0.56348(19) 0.0912(5) 0.0951(3)
C17 C 0.60731(18) 0.1277(4) 0.0757(3)
C18 C 0.5989(2) 0.2139(5) 0.0107(4)
C20 C 0.69547(19) 0.1156(5) 0.0953(3)
H10 H 0.7288 0.0819 0.1249
C21 C 0.65696(18) 0.0775(5) 0.1181(3)
H11 H 0.6642 0.0186 0.1614
N1 N 0.33033(14) 0.1731(3) 0.0314(2)
N2 N 0.51657(15) 0.1434(4) 0.0614(3)
N5 N 0.68742(15) 0.1984(3) 0.0327(3)
O1 O 0.23272(12) 0.1115(3) 0.0673(2)
H13 H 0.1263 0.0175 0.2600
H19 H 0.0740 0.2656 0.0158
C35 C 0.14162(19) 0.2749(4) 0.0059(3)
H20 H 0.1577 0.2144 0.0476
N16 N 0.29058(15) 0.3380(3) 0.1273(2)
O8 O 0.74094(13) 0.4324(3) 0.0159(2)
O11 O 0.80619(12) 0.2437(3) 0.1325(2)
Co1_2 Co 0.2500 0.2500 1.0000
Co2_2 Co 0.7500 0.2500 1.0000
H6 H 0.4260 0.2344 0.9842
C14 C 0.35838(19) 0.2251(4) 0.9941(3)
H7 H 0.3423 0.2856 0.9524
H8 H 0.5660 0.2497 0.9805
C19 C 0.6395(2) 0.2458(5) 0.9914(4)
H9 H 0.6333 0.3032 0.9473
Co7 Co 0.2500 0.2500 0.5000
C22 C 0.23502(16) 0.0008(4) 0.5715(3)
C23 C 0.22978(17) 0.0557(4) 0.6505(3)
C24 C 0.26565(17) 0.1420(4) 0.7072(3)
C25 C 0.31247(18) 0.1882(4) 0.6962(3)
C26 C 0.18955(18) 0.0138(4) 0.6682(3)
C27 C 0.18517(18) 0.0577(4) 0.7425(3)
C28 C 0.22113(17) 0.1408(4) 0.8004(3)
C29 C 0.26101(18) 0.1841(4) 0.7818(3)
H15 H 0.2845 0.2410 0.8189
C30 C 0.16826(19) 0.0939(4) 0.8562(3)
H16 H 0.1523 0.0893 0.8941
C31 C 0.14476(19) 0.4122(5) 0.9093(3)
H17 H 0.1632 0.4507 0.8824
C32 C 0.09342(19) 0.4478(5) 0.8844(3)
H18 H 0.0781 0.5077 0.8417
C33 C 0.06519(18) 0.3930(4) 0.9240(3)
C34 C 0.09102(19) 0.3045(5) 0.9868(3)
C36 C 0.01044(18) 0.4217(4) 0.9030(3)
N8 N 0.16967(14) 0.3269(3) 0.9686(2)
N13 N 0.81258(15) 0.3016(3) 0.9673(3)
N14 N 0.15138(16) 0.0314(4) 0.7796(3)
N15 N 0.20942(15) 0.1620(3) 0.8727(2)
O6 O 0.26728(12) 0.3885(3) 0.9327(2)
O7 O 0.24094(13) 0.0676(3) 0.5159(2)
O9 O 0.75906(13) 0.0676(3) 0.9841(2)
O10 O 0.30619(12) 0.2563(3) 0.6325(2)
O12 O 0.69381(12) 0.2563(3) 0.8675(2)
O13 O 0.35703(14) 0.1623(4) 0.7569(3)
C1 C 0.23502(16) 0.9992(4) 0.0715(3)
C2 C 0.22978(17) 0.9443(4) 0.1505(3)
C3 C 0.26565(17) 0.8580(4) 0.2072(3)
C4 C 0.31247(18) 0.8118(4) 0.1962(3)
C5 C 0.18955(18) 0.9862(4) 0.1682(3)
C6 C 0.18517(18) 0.9423(4) 0.2425(3)
C7 C 0.22113(17) 0.8592(4) 0.3004(3)
C8 C 0.26101(18) 0.8159(4) 0.2818(3)
H2 H 0.2845 0.7590 0.3189
C9 C 0.16826(19) 0.9061(4) 0.3562(3)
H3 H 0.1523 0.9107 0.3941
H5 H 0.4219 0.9923 0.1583
N3 N 0.51726(15) 0.9884(4) 0.1492(3)
N4 N 0.56443(15) 0.9994(4) 0.1473(3)
N6 N 0.15138(16) 0.9686(4) 0.2796(3)
N7 N 0.20942(15) 0.8380(3) 0.3727(2)
O2 O 0.24094(13) 0.9324(3) 0.0159(2)
O3 O 0.30619(12) 0.7437(3) 0.1325(2)
O4 O 0.35703(14) 0.8377(4) 0.2569(3)
H12 H 0.5879 0.9529 0.1772
Co3 Co 0.2500 0.7500 0.5000
Co5 Co 0.2500 0.7500 0.0000
Co5_2 Co 0.2500 0.7500 1.0000
H14 H 0.1658 0.9571 0.6310
O5 O 0.23272(12) 0.8885(3) 0.5673(2)
H26 H 0.1263 0.9825 0.7600
H21 H 0.9340 0.2503 0.0195
C40 C 0.8605(2) 0.2542(5) 0.0086(4)
H22 H 0.8667 0.1968 0.0527
C37 C 0.93652(19) 0.4088(5) 0.9049(3)
C38 C 0.89269(18) 0.3723(4) 0.9243(3)
C39 C 0.9011(2) 0.2861(5) 0.9893(4)
C41 C 0.80453(19) 0.3844(5) 0.9047(3)
H23 H 0.7712 0.4181 0.8751
C42 C 0.84304(18) 0.4225(5) 0.8819(3)
H24 H 0.8358 0.4814 0.8386
N9 N 0.98343(15) 0.3566(4) 0.9386(3)
N10 N 0.98274(15) 0.5116(4) 0.8508(3)
N11 N 0.93557(15) 0.5006(4) 0.8527(3)
H25 H 0.9121 0.5471 0.8228
C37_2 C 0.06348(19) 0.4088(5) 0.5951(3)
C38_2 C 0.10731(18) 0.3723(4) 0.5757(3)
C39_2 C 0.0989(2) 0.2861(5) 0.5107(4)
H21_2 H 0.0660 0.2503 0.4805
C40_2 C 0.1395(2) 0.2542(5) 0.4914(4)
H22_2 H 0.1333 0.1968 0.4473
C41_2 C 0.19547(19) 0.3844(5) 0.5953(3)
H23_2 H 0.2288 0.4181 0.6249
C42_2 C 0.15696(18) 0.4225(5) 0.6181(3)
H24_2 H 0.1642 0.4814 0.6614
N9_2 N 0.01657(15) 0.3566(4) 0.5614(3)
N10_2 N 0.01726(15) 0.5116(4) 0.6492(3)
N11_2 N 0.06443(15) 0.5006(4) 0.6473(3)
N12 N 0.18742(15) 0.3016(3) 0.5327(3)
H25_2 H 0.0879 0.5471 0.6772
Co1_3 Co 0.7500 0.2500 0.5000
H1_2 H 0.8342 0.0429 0.3690
C10_2 C 0.64476(19) 0.0878(5) 0.4093(3)
H4_2 H 0.6632 0.0493 0.3824
C11_2 C 0.59342(19) 0.0522(5) 0.3844(3)
C12_2 C 0.56519(18) 0.1070(4) 0.4240(3)
C13_2 C 0.59102(19) 0.1955(5) 0.4868(3)
H6_2 H 0.5740 0.2344 0.5158
C14_2 C 0.64162(19) 0.2251(4) 0.5059(3)
H7_2 H 0.6577 0.2856 0.5476
C15_2 C 0.51044(18) 0.0783(4) 0.4030(3)
C16_2 C 0.43652(19) 0.0912(5) 0.4049(3)
C17_2 C 0.39269(18) 0.1277(4) 0.4243(3)
C18_2 C 0.4011(2) 0.2139(5) 0.4893(4)
H8_2 H 0.4340 0.2497 0.5195
C19_2 C 0.3605(2) 0.2458(5) 0.5086(4)
H9_2 H 0.3667 0.3032 0.5527
C20_2 C 0.30453(19) 0.1156(5) 0.4047(3)
H10_2 H 0.2712 0.0819 0.3751
C21_2 C 0.34304(18) 0.0775(5) 0.3819(3)
H11_2 H 0.3358 0.0186 0.3386
N1_2 N 0.66967(14) 0.1731(3) 0.4686(2)
N2_2 N 0.48343(15) 0.1434(4) 0.4386(3)
N5_2 N 0.31258(15) 0.1984(3) 0.4673(3)
O1_2 O 0.76728(12) 0.1115(3) 0.4327(2)
H13_2 H 0.8737 0.0175 0.2400
C22_2 C 0.76498(16) 0.0008(4) 0.9285(3)
C23_2 C 0.77022(17) 0.0557(4) 0.8495(3)
C24_2 C 0.73435(17) 0.1420(4) 0.7928(3)
C25_2 C 0.68753(18) 0.1882(4) 0.8038(3)
C26_2 C 0.81045(18) 0.0138(4) 0.8318(3)
C27_2 C 0.81483(18) 0.0577(4) 0.7575(3)
C28_2 C 0.77887(17) 0.1408(4) 0.6996(3)
C29_2 C 0.73899(18) 0.1841(4) 0.7182(3)
H15_2 H 0.7155 0.2410 0.6811
C30_2 C 0.83174(19) 0.0939(4) 0.6438(3)
H16_2 H 0.8477 0.0893 0.6059
C31_2 C 0.85524(19) 0.4122(5) 0.5907(3)
H17_2 H 0.8368 0.4507 0.6176
C32_2 C 0.90658(19) 0.4478(5) 0.6156(3)
H18_2 H 0.9219 0.5077 0.6583
C33_2 C 0.93481(18) 0.3930(4) 0.5760(3)
C34_2 C 0.90898(19) 0.3045(5) 0.5132(3)
H19_2 H 0.9260 0.2656 0.4842
C35_2 C 0.85838(19) 0.2749(4) 0.4941(3)
H20_2 H 0.8423 0.2144 0.4524
C36_2 C 0.98956(18) 0.4217(4) 0.5970(3)
N8_2 N 0.83033(14) 0.3269(3) 0.5314(2)
N14_2 N 0.84862(16) 0.0314(4) 0.7204(3)
N15_2 N 0.79058(15) 0.1620(3) 0.6273(2)
N16_2 N 0.70942(15) 0.3380(3) 0.3727(2)
O6_2 O 0.73272(12) 0.3885(3) 0.5673(2)
O8_2 O 0.25906(13) 0.4324(3) 0.4841(2)
O11_2 O 0.19381(12) 0.2437(3) 0.3675(2)
O13_2 O 0.64297(14) 0.1623(4) 0.7431(3)
Co4 Co 0.7500 0.7500 0.0000
C1_2 C 0.76498(16) 0.9992(4) 0.4285(3)
C2_2 C 0.77022(17) 0.9443(4) 0.3495(3)
C3_2 C 0.73435(17) 0.8580(4) 0.2928(3)
C4_2 C 0.68753(18) 0.8118(4) 0.3038(3)
C5_2 C 0.81045(18) 0.9862(4) 0.3318(3)
C6_2 C 0.81483(18) 0.9423(4) 0.2575(3)
C7_2 C 0.77887(17) 0.8592(4) 0.1996(3)
C8_2 C 0.73899(18) 0.8159(4) 0.2182(3)
H2_2 H 0.7155 0.7590 0.1811
C9_2 C 0.83174(19) 0.9061(4) 0.1438(3)
H3_2 H 0.8477 0.9107 0.1059
H5_2 H 0.5781 0.9923 0.3417
N3_2 N 0.48274(15) 0.9884(4) 0.3508(3)
N4_2 N 0.43557(15) 0.9994(4) 0.3527(3)
N6_2 N 0.84862(16) 0.9686(4) 0.2204(3)
N7_2 N 0.79058(15) 0.8380(3) 0.1273(2)
O2_2 O 0.75906(13) 0.9324(3) 0.4841(2)
O3_2 O 0.69381(12) 0.7437(3) 0.3675(2)
O4_2 O 0.64297(14) 0.8377(4) 0.2431(3)
H12_2 H 0.4121 0.9529 0.3228
Co4_2 Co 0.7500 0.7500 1.0000
Co5_3 Co 0.7500 0.7500 0.5000
H14_2 H 0.8342 0.9571 0.8690
O5_2 O 0.76728(12) 0.8885(3) 0.9327(2)
H26_2 H 0.8737 0.9825 0.7400
C16_3 C 0.06348(19) 0.5912(5) 0.0951(3)
C17_3 C 0.10731(18) 0.6277(4) 0.0757(3)
C18_3 C 0.0989(2) 0.7139(5) 0.0107(4)
C20_3 C 0.19547(19) 0.6156(5) 0.0953(3)
H10_3 H 0.2288 0.5819 0.1249
C21_3 C 0.15696(18) 0.5775(5) 0.1181(3)
H11_3 H 0.1642 0.5186 0.1614
N2_3 N 0.01657(15) 0.6434(4) 0.0614(3)
N3_3 N 0.01726(15) 0.4884(4) 0.1492(3)
N4_3 N 0.06443(15) 0.4994(4) 0.1473(3)
N5_3 N 0.18742(15) 0.6984(3) 0.0327(3)
H12_3 H 0.0879 0.4529 0.1772
H8_3 H 0.0660 0.7497 0.9805
C19_3 C 0.1395(2) 0.7458(5) 0.9914(4)
H9_3 H 0.1333 0.8032 0.9473
N13_2 N 0.31258(15) 0.8016(3) 0.9673(3)
O9_2 O 0.25906(13) 0.5676(3) 0.9841(2)
O12_2 O 0.19381(12) 0.7563(3) 0.8675(2)
H18_3 H 0.5781 0.0077 0.8417
N10_3 N 0.48274(15) 0.0116(4) 0.8508(3)
N11_3 N 0.43557(15) 0.0006(4) 0.8527(3)
H25_3 H 0.4121 0.0471 0.8228
C1_3 C 0.73502(16) 0.4992(4) 0.0715(3)
C2_3 C 0.72978(17) 0.4443(4) 0.1505(3)
C3_3 C 0.76565(17) 0.3580(4) 0.2072(3)
C4_3 C 0.81247(18) 0.3118(4) 0.1962(3)
C5_3 C 0.68955(18) 0.4862(4) 0.1682(3)
H1_3 H 0.6658 0.5429 0.1310
C6_3 C 0.68517(18) 0.4423(4) 0.2425(3)
C7_3 C 0.72113(17) 0.3592(4) 0.3004(3)
C8_3 C 0.76101(18) 0.3159(4) 0.2818(3)
H2_3 H 0.7845 0.2590 0.3189
C9_3 C 0.66826(19) 0.4061(4) 0.3562(3)
H3_3 H 0.6523 0.4107 0.3941
C10_3 C 0.85524(19) 0.5878(5) 0.0907(3)
H4_3 H 0.8368 0.5493 0.1176
C11_3 C 0.90658(19) 0.5522(5) 0.1156(3)
H5_3 H 0.9219 0.4923 0.1583
C12_3 C 0.93481(18) 0.6070(4) 0.0760(3)
C13_3 C 0.90898(19) 0.6955(5) 0.0132(3)
C15_3 C 0.98956(18) 0.5783(4) 0.0970(3)
N1_3 N 0.83033(14) 0.6731(3) 0.0314(2)
N6_3 N 0.65138(16) 0.4686(4) 0.2796(3)
O1_3 O 0.73272(12) 0.6115(3) 0.0673(2)
O4_3 O 0.85703(14) 0.3377(4) 0.2569(3)
H13_3 H 0.6263 0.5175 0.2600
H19_3 H 0.5740 0.7656 0.0158
C35_3 C 0.64162(19) 0.7749(4) 0.0059(3)
H20_3 H 0.6577 0.7144 0.0476
H21_3 H 0.4340 0.7503 0.0195
C40_3 C 0.3605(2) 0.7542(5) 0.0086(4)
H22_3 H 0.3667 0.6968 0.0527
H6_3 H 0.9260 0.7344 0.9842
C14_3 C 0.85838(19) 0.7251(4) 0.9941(3)
H7_3 H 0.8423 0.7856 0.9524
C22_3 C 0.73502(16) 0.5008(4) 0.5715(3)
C23_3 C 0.72978(17) 0.5557(4) 0.6505(3)
C24_3 C 0.76565(17) 0.6420(4) 0.7072(3)
C25_3 C 0.81247(18) 0.6882(4) 0.6962(3)
C26_3 C 0.68955(18) 0.5138(4) 0.6682(3)
H14_3 H 0.6658 0.4571 0.6310
C27_3 C 0.68517(18) 0.5577(4) 0.7425(3)
C28_3 C 0.72113(17) 0.6408(4) 0.8004(3)
C29_3 C 0.76101(18) 0.6841(4) 0.7818(3)
H15_3 H 0.7845 0.7410 0.8189
C30_3 C 0.66826(19) 0.5939(4) 0.8562(3)
H16_3 H 0.6523 0.5893 0.8941
C31_3 C 0.64476(19) 0.9122(5) 0.9093(3)
H17_3 H 0.6632 0.9507 0.8824
C32_3 C 0.59342(19) 0.9478(5) 0.8844(3)
C33_3 C 0.56519(18) 0.8930(4) 0.9240(3)
C34_3 C 0.59102(19) 0.8045(5) 0.9868(3)
C36_3 C 0.51044(18) 0.9217(4) 0.9030(3)
C37_3 C 0.43652(19) 0.9088(5) 0.9049(3)
C38_3 C 0.39269(18) 0.8723(4) 0.9243(3)
C39_3 C 0.4011(2) 0.7861(5) 0.9893(4)
C41_3 C 0.30453(19) 0.8844(5) 0.9047(3)
H23_3 H 0.2712 0.9181 0.8751
C42_3 C 0.34304(18) 0.9225(5) 0.8819(3)
H24_3 H 0.3358 0.9814 0.8386
N8_3 N 0.66967(14) 0.8269(3) 0.9686(2)
N9_3 N 0.48343(15) 0.8566(4) 0.9386(3)
N14_3 N 0.65138(16) 0.5314(4) 0.7796(3)
N15_3 N 0.70942(15) 0.6620(3) 0.8727(2)
O7_2 O 0.74094(13) 0.5676(3) 0.5159(2)
O10_2 O 0.80619(12) 0.7563(3) 0.6325(2)
O13_3 O 0.85703(14) 0.6623(4) 0.7569(3)
H26_3 H 0.6263 0.4825 0.7600
H18_4 H 0.4219 0.0077 0.6583
N10_4 N 0.51726(15) 0.0116(4) 0.6492(3)
N11_4 N 0.56443(15) 0.0006(4) 0.6473(3)
H25_4 H 0.5879 0.0471 0.6772
C1_4 C 0.26498(16) 0.4992(4) 0.4285(3)
C2_4 C 0.27022(17) 0.4443(4) 0.3495(3)
C3_4 C 0.23435(17) 0.3580(4) 0.2928(3)
C4_4 C 0.18753(18) 0.3118(4) 0.3038(3)
C5_4 C 0.31045(18) 0.4862(4) 0.3318(3)
H1_4 H 0.3342 0.5429 0.3690
C6_4 C 0.31483(18) 0.4423(4) 0.2575(3)
C7_4 C 0.27887(17) 0.3592(4) 0.1996(3)
C8_4 C 0.23899(18) 0.3159(4) 0.2182(3)
H2_4 H 0.2155 0.2590 0.1811
C9_4 C 0.33174(19) 0.4061(4) 0.1438(3)
H3_4 H 0.3477 0.4107 0.1059
C10_4 C 0.14476(19) 0.5878(5) 0.4093(3)
H4_4 H 0.1632 0.5493 0.3824
C11_4 C 0.09342(19) 0.5522(5) 0.3844(3)
H5_4 H 0.0781 0.4923 0.3417
C12_4 C 0.06519(18) 0.6070(4) 0.4240(3)
C13_4 C 0.09102(19) 0.6955(5) 0.4868(3)
H6_4 H 0.0740 0.7344 0.5158
C14_4 C 0.14162(19) 0.7251(4) 0.5059(3)
H7_4 H 0.1577 0.7856 0.5476
C15_4 C 0.01044(18) 0.5783(4) 0.4030(3)
N1_4 N 0.16967(14) 0.6731(3) 0.4686(2)
N6_4 N 0.34862(16) 0.4686(4) 0.2204(3)
O1_4 O 0.26728(12) 0.6115(3) 0.4327(2)
O4_4 O 0.14297(14) 0.3377(4) 0.2431(3)
H13_4 H 0.3737 0.5175 0.2400
C22_4 C 0.26498(16) 0.5008(4) 0.9285(3)
C23_4 C 0.27022(17) 0.5557(4) 0.8495(3)
C24_4 C 0.23435(17) 0.6420(4) 0.7928(3)
C25_4 C 0.18753(18) 0.6882(4) 0.8038(3)
C26_4 C 0.31045(18) 0.5138(4) 0.8318(3)
H14_4 H 0.3342 0.4571 0.8690
C27_4 C 0.31483(18) 0.5577(4) 0.7575(3)
C28_4 C 0.27887(17) 0.6408(4) 0.6996(3)
C29_4 C 0.23899(18) 0.6841(4) 0.7182(3)
H15_4 H 0.2155 0.7410 0.6811
C30_4 C 0.33174(19) 0.5939(4) 0.6438(3)
H16_4 H 0.3477 0.5893 0.6059
C31_4 C 0.35524(19) 0.9122(5) 0.5907(3)
H17_4 H 0.3368 0.9507 0.6176
C32_4 C 0.40658(19) 0.9478(5) 0.6156(3)
C33_4 C 0.43481(18) 0.8930(4) 0.5760(3)
C34_4 C 0.40898(19) 0.8045(5) 0.5132(3)
H19_4 H 0.4260 0.7656 0.4842
C35_4 C 0.35838(19) 0.7749(4) 0.4941(3)
H20_4 H 0.3423 0.7144 0.4524
C36_4 C 0.48956(18) 0.9217(4) 0.5970(3)
C37_4 C 0.56348(19) 0.9088(5) 0.5951(3)
C38_4 C 0.60731(18) 0.8723(4) 0.5757(3)
C39_4 C 0.5989(2) 0.7861(5) 0.5107(4)
H21_4 H 0.5660 0.7503 0.4805
C40_4 C 0.6395(2) 0.7542(5) 0.4914(4)
H22_4 H 0.6333 0.6968 0.4473
C41_4 C 0.69547(19) 0.8844(5) 0.5953(3)
H23_4 H 0.7288 0.9181 0.6249
C42_4 C 0.65696(18) 0.9225(5) 0.6181(3)
H24_4 H 0.6642 0.9814 0.6614
N8_4 N 0.33033(14) 0.8269(3) 0.5314(2)
N9_4 N 0.51657(15) 0.8566(4) 0.5614(3)
N12_2 N 0.68742(15) 0.8016(3) 0.5327(3)
N14_4 N 0.34862(16) 0.5314(4) 0.7204(3)
N15_4 N 0.29058(15) 0.6620(3) 0.6273(2)
O13_4 O 0.14297(14) 0.6623(4) 0.7431(3)
H26_4 H 0.3737 0.4825 0.7400
C16_4 C 0.93652(19) 0.5912(5) 0.4049(3)
C17_4 C 0.89269(18) 0.6277(4) 0.4243(3)
C18_4 C 0.9011(2) 0.7139(5) 0.4893(4)
H8_4 H 0.9340 0.7497 0.5195
C19_4 C 0.8605(2) 0.7458(5) 0.5086(4)
H9_4 H 0.8667 0.8032 0.5527
C20_4 C 0.80453(19) 0.6156(5) 0.4047(3)
H10_4 H 0.7712 0.5819 0.3751
C21_4 C 0.84304(18) 0.5775(5) 0.3819(3)
H11_4 H 0.8358 0.5186 0.3386
N2_4 N 0.98343(15) 0.6434(4) 0.4386(3)
N3_4 N 0.98274(15) 0.4884(4) 0.3508(3)
N4_4 N 0.93557(15) 0.4994(4) 0.3527(3)
N5_4 N 0.81258(15) 0.6984(3) 0.4673(3)
H12_4 H 0.9121 0.4529 0.3228
loop_
_geom_bond_atom_site_label_1
_geom_bond_atom_site_label_2
_geom_bond_site_symmetry_1
_geom_bond_site_symmetry_2
Co1 N1 1_555 1_555
Co2 N5 1_555 1_555
C10 H4 1_555 1_555
C11 C10 1_555 1_555
C12 C11 1_555 1_555
C13 C12 1_555 1_555
C15 C12 1_555 1_555
C16 C17 1_555 1_555
C17 C18 1_555 1_555
C20 H10 1_555 1_555
C21 C17 1_555 1_555
H11 C21 1_555 1_555
N1 C10 1_555 1_555
N2 C15 1_555 1_555
O1 Co1 1_555 1_555
H20 C35 1_555 1_555
N16 Co1 1_555 1_555
O8 Co2 1_555 1_555
O11 Co2 1_555 1_555
C16 N2 1_555 1_555
C20 C21 1_555 1_555
C20 N5 1_555 1_555
H7 C14 1_555 1_555
H9 C19 1_555 1_555
Co7 O7 1_555 1_555
C22 C23 1_555 1_555
C23 C24 1_555 1_555
C24 C25 1_555 1_555
C25 O10 1_555 1_555
C26 C23 1_555 1_555
C27 C26 1_555 1_555
C28 C27 1_555 1_555
C29 C24 1_555 1_555
H15 C29 1_555 1_555
C30 H16 1_555 1_555
C31 H17 1_555 1_555
C32 C31 1_555 1_555
H18 C32 1_555 1_555
C33 C32 1_555 1_555
C34 C33 1_555 1_555
C36 C33 1_555 1_555
N8 Co1_2 1_555 1_555
N13 Co2_2 1_555 1_555
N14 C27 1_555 1_555
N15 Co1_2 1_555 1_555
O6 Co1_2 1_555 1_555
O7 C22 1_555 1_555
O9 Co2_2 1_555 1_555
O10 Co7 1_555 1_555
O12 Co2_2 1_555 1_555
O13 C25 1_555 1_555
C28 C29 1_555 1_555
C28 N15 1_555 1_555
C30 N14 1_555 1_555
C30 N15 1_555 1_555
C31 N8 1_555 1_555
C1 C2 1_555 1_555
C2 C3 1_555 1_555
C3 C4 1_555 1_555
C4 O3 1_555 1_555
C5 C2 1_555 1_555
C6 C5 1_555 1_555
C7 C6 1_555 1_555
C8 C3 1_555 1_555
H2 C8 1_555 1_555
C9 H3 1_555 1_555
N6 C6 1_555 1_555
N7 C7 1_555 1_555
O2 C1 1_555 1_555
O3 Co5 1_555 1_555
O4 C4 1_555 1_555
H12 N4 1_555 1_555
Co3 N7 1_555 1_555
Co5 O2 1_555 1_555
C7 C8 1_555 1_555
C9 N6 1_555 1_555
C9 N7 1_555 1_555
N3 N4 1_555 1_555
Co3 O5 1_555 1_555
H22 C40 1_555 1_555
C37 C38 1_555 1_555
C38 C39 1_555 1_555
C41 H23 1_555 1_555
C42 C38 1_555 1_555
H24 C42 1_555 1_555
N11 C37 1_555 1_555
H25 N11 1_555 1_555
C37 N9 1_555 1_555
C41 C42 1_555 1_555
C41 N13 1_555 1_555
N10 N11 1_555 1_555
Co7 N12 1_555 1_555
C37_2 C38_2 1_555 1_555
C38_2 C39_2 1_555 1_555
C39_2 H21_2 1_555 1_555
C40_2 C39_2 1_555 1_555
H22_2 C40_2 1_555 1_555
C41_2 H23_2 1_555 1_555
C42_2 C38_2 1_555 1_555
H24_2 C42_2 1_555 1_555
N11_2 C37_2 1_555 1_555
N12 C40_2 1_555 1_555
H25_2 N11_2 1_555 1_555
C37_2 N9_2 1_555 1_555
C41_2 C42_2 1_555 1_555
C41_2 N12 1_555 1_555
N10_2 N11_2 1_555 1_555
Co1_3 N1_2 1_555 1_555
Co7 N5_2 1_555 1_555
C10_2 H4_2 1_555 1_555
C11_2 C10_2 1_555 1_555
C12_2 C11_2 1_555 1_555
C13_2 C12_2 1_555 1_555
H6_2 C13_2 1_555 1_555
C14_2 C13_2 1_555 1_555
H7_2 C14_2 1_555 1_555
C15_2 C12_2 1_555 1_555
C16_2 C17_2 1_555 1_555
C17_2 C18_2 1_555 1_555
C18_2 H8_2 1_555 1_555
C19_2 C18_2 1_555 1_555
H9_2 C19_2 1_555 1_555
C20_2 H10_2 1_555 1_555
C21_2 C17_2 1_555 1_555
H11_2 C21_2 1_555 1_555
N1_2 C10_2 1_555 1_555
N2_2 C15_2 1_555 1_555
N5_2 C19_2 1_555 1_555
O1_2 Co1_3 1_555 1_555
C22_2 C23_2 1_555 1_555
C23_2 C24_2 1_555 1_555
C24_2 C25_2 1_555 1_555
C25_2 O12 1_555 1_555
C26_2 C23_2 1_555 1_555
C27_2 C26_2 1_555 1_555
C28_2 C27_2 1_555 1_555
C29_2 C24_2 1_555 1_555
H15_2 C29_2 1_555 1_555
C30_2 H16_2 1_555 1_555
C31_2 H17_2 1_555 1_555
C32_2 C31_2 1_555 1_555
H18_2 C32_2 1_555 1_555
C33_2 C32_2 1_555 1_555
C34_2 C33_2 1_555 1_555
H19_2 C34_2 1_555 1_555
C35_2 C34_2 1_555 1_555
H20_2 C35_2 1_555 1_555
C36_2 C33_2 1_555 1_555
N8_2 Co1_3 1_555 1_555
N14_2 C27_2 1_555 1_555
N15_2 Co1_3 1_555 1_555
N16_2 Co1_3 1_555 1_555
O6_2 Co1_3 1_555 1_555
O9 C22_2 1_555 1_555
O8_2 Co7 1_555 1_555
O11_2 Co7 1_555 1_555
O13_2 C25_2 1_555 1_555
C14_2 N1_2 1_555 1_555
C16_2 N2_2 1_555 1_555
C20_2 C21_2 1_555 1_555
C20_2 N5_2 1_555 1_555
C28_2 C29_2 1_555 1_555
C28_2 N15_2 1_555 1_555
C30_2 N14_2 1_555 1_555
C30_2 N15_2 1_555 1_555
C31_2 N8_2 1_555 1_555
C35_2 N8_2 1_555 1_555
C1_2 C2_2 1_555 1_555
C2_2 C3_2 1_555 1_555
C3_2 C4_2 1_555 1_555
C4_2 O3_2 1_555 1_555
C5_2 C2_2 1_555 1_555
C6_2 C5_2 1_555 1_555
C7_2 C6_2 1_555 1_555
C8_2 C3_2 1_555 1_555
H2_2 C8_2 1_555 1_555
C9_2 H3_2 1_555 1_555
N6_2 C6_2 1_555 1_555
N7_2 C7_2 1_555 1_555
O2_2 C1_2 1_555 1_555
O3_2 Co5_3 1_555 1_555
O4_2 C4_2 1_555 1_555
H12_2 N4_2 1_555 1_555
Co4 N7_2 1_555 1_555
Co4_2 O5_2 1_555 1_555
Co5_3 O2_2 1_555 1_555
C7_2 C8_2 1_555 1_555
C9_2 N6_2 1_555 1_555
C9_2 N7_2 1_555 1_555
N3_2 N4_2 1_555 1_555
Co5 N5_3 1_555 1_555
C16_3 C17_3 1_555 1_555
C17_3 C18_3 1_555 1_555
C20_3 H10_3 1_555 1_555
C21_3 C17_3 1_555 1_555
H11_3 C21_3 1_555 1_555
N4_3 C16_3 1_555 1_555
H12_3 N4_3 1_555 1_555
C16_3 N2_3 1_555 1_555
C20_3 C21_3 1_555 1_555
C20_3 N5_3 1_555 1_555
N3_3 N4_3 1_555 1_555
H9_3 C19_3 1_555 1_555
N13_2 Co5_2 1_555 1_555
O9_2 Co5_2 1_555 1_555
O12_2 Co5_2 1_555 1_555
H25_3 N11_3 1_555 1_555
N10_3 N11_3 1_555 1_555
Co4 N1_3 1_555 1_555
C1_3 C2_3 1_555 1_555
C2_3 C3_3 1_555 1_555
C3_3 C4_3 1_555 1_555
C4_3 O11 1_555 1_555
C5_3 C2_3 1_555 1_555
H1_3 C5_3 1_555 1_555
C6_3 C5_3 1_555 1_555
C7_3 C6_3 1_555 1_555
C8_3 C3_3 1_555 1_555
H2_3 C8_3 1_555 1_555
C9_3 H3_3 1_555 1_555
C10_3 H4_3 1_555 1_555
C11_3 C10_3 1_555 1_555
H5_3 C11_3 1_555 1_555
C12_3 C11_3 1_555 1_555
C13_3 C12_3 1_555 1_555
C15_3 C12_3 1_555 1_555
N1_3 C10_3 1_555 1_555
N6_3 C6_3 1_555 1_555
N16_2 C7_3 1_555 1_555
O1_3 Co4 1_555 1_555
O8 C1_3 1_555 1_555
O4_3 C4_3 1_555 1_555
H13_3 N6_3 1_555 1_555
H20_3 C35_3 1_555 1_555
H22_3 C40_3 1_555 1_555
C1_3 O1_3 1_555 1_555
C7_3 C8_3 1_555 1_555
C9_3 N6_3 1_555 1_555
C9_3 N16_2 1_555 1_555
H7_3 C14_3 1_555 1_555
Co5_3 O7_2 1_555 1_555
C22_3 C23_3 1_555 1_555
C23_3 C24_3 1_555 1_555
C24_3 C25_3 1_555 1_555
C25_3 O10_2 1_555 1_555
C26_3 C23_3 1_555 1_555
H14_3 C26_3 1_555 1_555
C27_3 C26_3 1_555 1_555
C28_3 C27_3 1_555 1_555
C29_3 C24_3 1_555 1_555
H15_3 C29_3 1_555 1_555
C30_3 H16_3 1_555 1_555
C31_3 H17_3 1_555 1_555
C32_3 C31_3 1_555 1_555
C33_3 C32_3 1_555 1_555
C34_3 C33_3 1_555 1_555
C36_3 C33_3 1_555 1_555
C37_3 C38_3 1_555 1_555
C38_3 C39_3 1_555 1_555
C41_3 H23_3 1_555 1_555
C42_3 C38_3 1_555 1_555
H24_3 C42_3 1_555 1_555
N8_3 Co4_2 1_555 1_555
N9_3 C36_3 1_555 1_555
N14_3 C27_3 1_555 1_555
N15_3 Co4_2 1_555 1_555
O6_2 C22_3 1_555 1_555
O7_2 C22_3 1_555 1_555
O10_2 Co5_3 1_555 1_555
O13_3 C25_3 1_555 1_555
H26_3 N14_3 1_555 1_555
C28_3 C29_3 1_555 1_555
C28_3 N15_3 1_555 1_555
C30_3 N14_3 1_555 1_555
C30_3 N15_3 1_555 1_555
C31_3 N8_3 1_555 1_555
C37_3 N9_3 1_555 1_555
C41_3 C42_3 1_555 1_555
C41_3 N13_2 1_555 1_555
H25_4 N11_4 1_555 1_555
N10_4 N11_4 1_555 1_555
Co3 N1_4 1_555 1_555
C1_4 C2_4 1_555 1_555
C2_4 C3_4 1_555 1_555
C3_4 C4_4 1_555 1_555
C4_4 O11_2 1_555 1_555
C5_4 C2_4 1_555 1_555
H1_4 C5_4 1_555 1_555
C6_4 C5_4 1_555 1_555
C7_4 C6_4 1_555 1_555
C8_4 C3_4 1_555 1_555
H2_4 C8_4 1_555 1_555
C9_4 H3_4 1_555 1_555
C10_4 H4_4 1_555 1_555
C11_4 C10_4 1_555 1_555
H5_4 C11_4 1_555 1_555
C12_4 C11_4 1_555 1_555
C13_4 C12_4 1_555 1_555
H6_4 C13_4 1_555 1_555
C14_4 C13_4 1_555 1_555
H7_4 C14_4 1_555 1_555
C15_4 C12_4 1_555 1_555
N1_4 C10_4 1_555 1_555
N6_4 C6_4 1_555 1_555
N16 C7_4 1_555 1_555
O1_4 Co3 1_555 1_555
O8_2 C1_4 1_555 1_555
O4_4 C4_4 1_555 1_555
H13_4 N6_4 1_555 1_555
Co5_3 N12_2 1_555 1_555
C22_4 C23_4 1_555 1_555
C23_4 C24_4 1_555 1_555
C24_4 C25_4 1_555 1_555
C25_4 O12_2 1_555 1_555
C26_4 C23_4 1_555 1_555
H14_4 C26_4 1_555 1_555
C27_4 C26_4 1_555 1_555
C28_4 C27_4 1_555 1_555
C29_4 C24_4 1_555 1_555
H15_4 C29_4 1_555 1_555
C30_4 H16_4 1_555 1_555
C31_4 H17_4 1_555 1_555
C32_4 C31_4 1_555 1_555
C33_4 C32_4 1_555 1_555
C34_4 C33_4 1_555 1_555
H19_4 C34_4 1_555 1_555
C35_4 C34_4 1_555 1_555
H20_4 C35_4 1_555 1_555
C36_4 C33_4 1_555 1_555
C37_4 C38_4 1_555 1_555
C38_4 C39_4 1_555 1_555
C39_4 H21_4 1_555 1_555
C40_4 C39_4 1_555 1_555
H22_4 C40_4 1_555 1_555
C41_4 H23_4 1_555 1_555
C42_4 C38_4 1_555 1_555
H24_4 C42_4 1_555 1_555
N8_4 Co3 1_555 1_555
N9_4 C36_4 1_555 1_555
N12_2 C40_4 1_555 1_555
N14_4 C27_4 1_555 1_555
N15_4 Co3 1_555 1_555
O6 C22_4 1_555 1_555
O9_2 C22_4 1_555 1_555
O13_4 C25_4 1_555 1_555
H26_4 N14_4 1_555 1_555
C1_4 O1_4 1_555 1_555
C7_4 C8_4 1_555 1_555
C9_4 N6_4 1_555 1_555
C9_4 N16 1_555 1_555
C14_4 N1_4 1_555 1_555
C28_4 C29_4 1_555 1_555
C28_4 N15_4 1_555 1_555
C30_4 N14_4 1_555 1_555
C30_4 N15_4 1_555 1_555
C31_4 N8_4 1_555 1_555
C35_4 N8_4 1_555 1_555
C37_4 N9_4 1_555 1_555
C41_4 C42_4 1_555 1_555
C41_4 N12_2 1_555 1_555
Co5_3 N5_4 1_555 1_555
C16_4 C17_4 1_555 1_555
C17_4 C18_4 1_555 1_555
C18_4 H8_4 1_555 1_555
C19_4 C18_4 1_555 1_555
H9_4 C19_4 1_555 1_555
C20_4 H10_4 1_555 1_555
C21_4 C17_4 1_555 1_555
H11_4 C21_4 1_555 1_555
N4_4 C16_4 1_555 1_555
N5_4 C19_4 1_555 1_555
H12_4 N4_4 1_555 1_555
C16_4 N2_4 1_555 1_555
C20_4 C21_4 1_555 1_555
C20_4 N5_4 1_555 1_555
N3_4 N4_4 1_555 1_555

#END
