
###############################################################################
#
# This file contains modified crystal structure data generated from the
# MOF subset of the Cambridge Structural Database (CSD) v543 
# hosted by the Cambridge Crystallographic Data Centre (CCDC).
#
# This work is licensed under the Creative Commons
# Attribution-NonCommercial-ShareAlike 4.0 International License.
# To view a copy of this license, visit
# http://creativecommons.org/licenses/by-nc-sa/4.0/
# or send a letter to
# Creative Commons, PO Box 1866, Mountain View, CA 94042, USA.
#
# CIF created using the CSD Python API on 29 September 2022
# The structure has been converted into the P1 space group
# The structure has a 3D framework
# The original CSD entry BUSGOM is in the monoclinic crystal system
# The framework has been calculated to contain at least 10.0% void space
# The void calculation uses a probe of radius 1.32A, grid spacing 0.4
#
###############################################################################

data_BUSGOM
_chemical_formula_moiety         '(C56 H32 Cu4 N8 O29 Sm4)n'
_symmetry_cell_setting           triclinic
_symmetry_space_group_name_H-M   'P 1'
_symmetry_Int_Tables_number      1
_space_group_name_Hall           'P 1'
loop_
_symmetry_equiv_pos_site_id
_symmetry_equiv_pos_as_xyz
1 x,y,z
_cell_length_a                   9.5503(15)
_cell_length_b                   21.585(3)
_cell_length_c                   9.2333(15)
_cell_angle_alpha                90
_cell_angle_beta                 116.006(2)
_cell_angle_gamma                90
_cell_volume                     1710.66
loop_
_atom_site_label
_atom_site_type_symbol
_atom_site_fract_x
_atom_site_fract_y
_atom_site_fract_z
Sm1 Sm 0.14078(3) 0.008557(12) 0.37659(3)
Cu1 Cu 0.19116(8) 0.14545(3) 0.04086(9)
O1 O 0.1178(4) 0.05786(16) 0.1268(4)
O4 O 0.3846(4) 0.06628(17) 0.4488(4)
C13 C 0.5080(6) 0.0355(3) 0.5112(6)
O7 O 0.6421(4) 0.05686(17) 0.5911(4)
Cu6 Cu 0.19116(8) 0.35455(3) 0.54086(9)
C16 C 0.0273(6) 0.1205(2) 0.5114(6)
N4 N 0.3631(5) 0.1169(2) 0.0050(6)
C25 C 0.0775(6) 0.2330(2) 0.5291(6)
H15 H 0.1542 0.2239 0.4960
N6 N 0.0568(5) 0.2925(2) 0.5577(6)
N7 N 0.0568(5) 0.2075(2) 0.0577(6)
O18 O 0.1145(4) 0.11438(17) 0.4431(5)
C14 C 0.0228(5) 0.0337(2) 0.9965(6)
C20 C 0.3826(6) 0.9186(3) 0.0441(6)
H10 H 0.2969 0.9301 0.0608
C21 C 0.5018(7) 0.8852(3) 0.1592(7)
H11 H 0.4993 0.8748 0.2558
C24 C 0.6247(6) 0.8675(3) 0.1296(6)
H14 H 0.7032 0.8436 0.2063
O3 O 0.0317(4) 0.92451(17) 0.4496(4)
C1 C 0.0085(6) 0.8155(2) 0.4540(6)
C3 C 0.1237(7) 0.8021(3) 0.4059(7)
H1 H 0.1827 0.8336 0.3911
C9 C 0.1486(7) 0.7413(3) 0.3807(7)
H5 H 0.2281 0.7310 0.3528
C12 C 0.0570(7) 0.6959(3) 0.3965(7)
H8 H 0.0735 0.6552 0.3748
Sm4 Sm 0.85922(3) 0.991443(12) 0.62341(3)
Cu5 Cu 0.80884(8) 0.85455(3) 0.95914(9)
O10 O 0.1321(4) 0.96962(19) 0.7800(4)
O14 O 0.6154(4) 0.93372(17) 0.5512(4)
C18 C 0.2595(6) 0.9694(2) 0.7719(6)
C19 C 0.3904(6) 0.9349(2) 0.9038(6)
C22 C 0.5211(6) 0.9173(3) 0.8850(7)
H12 H 0.5292 0.9297 0.7925
N3 N 0.6369(5) 0.8831(2) 0.9950(6)
C27 C 0.4920(6) 0.9645(3) 0.4888(6)
O16 O 0.2873(4) 0.99420(17) 0.6640(4)
O20 O 0.3579(4) 0.94314(17) 0.4089(4)
O22 O 0.0377(4) 0.93933(16) 0.1366(4)
O2 O 0.8679(4) 0.03038(19) 0.2200(4)
C4 C 0.7405(6) 0.0306(2) 0.2281(6)
C5 C 0.6096(6) 0.0651(2) 0.0962(6)
C8 C 0.4789(6) 0.0827(3) 0.1150(7)
H4 H 0.4708 0.0703 0.2075
O5 O 0.7127(4) 0.00580(17) 0.3360(4)
O12 O 0.9683(4) 0.07549(17) 0.5504(4)
C15 C 0.9915(6) 0.1845(2) 0.5460(6)
C17 C 0.8763(7) 0.1979(3) 0.5941(7)
H9 H 0.8173 0.1664 0.6089
C23 C 0.8514(7) 0.2587(3) 0.6193(7)
H13 H 0.7719 0.2690 0.6472
C26 C 0.9430(7) 0.3041(3) 0.6035(7)
H16 H 0.9265 0.3448 0.6252
C6 C 0.6174(6) 0.0814(3) 0.9559(6)
H2 H 0.7031 0.0699 0.9392
C7 C 0.4982(7) 0.1148(3) 0.8408(7)
H3 H 0.5007 0.1252 0.7442
C10 C 0.3753(6) 0.1325(3) 0.8704(6)
H6 H 0.2968 0.1564 0.7937
O8 O 0.9623(4) 0.06067(16) 0.8634(4)
C2 C 0.9727(6) 0.8795(2) 0.4886(6)
C11 C 0.9225(6) 0.7670(2) 0.4709(6)
H7 H 0.8458 0.7761 0.5040
N2 N 0.9432(5) 0.7075(2) 0.4423(6)
O6 O 0.8855(4) 0.88562(17) 0.5569(5)
Cu4 Cu 0.80884(8) 0.64545(3) 0.45914(9)
C28 C 0.9772(5) 0.9663(2) 0.0035(6)
O9 O 0.8822(4) 0.94214(16) 0.8732(4)
N8 N 0.9432(5) 0.7925(2) 0.9423(6)
O17 O 0.2873(4) 0.50580(17) 0.1640(4)
O2_2 O 0.1321(4) 0.53038(19) 0.2800(4)
C2_2 C 0.0273(6) 0.3795(2) 0.0114(6)
C4_2 C 0.2595(6) 0.5306(2) 0.2719(6)
C5_2 C 0.3904(6) 0.5651(2) 0.4038(6)
C6_2 C 0.3826(6) 0.5814(3) 0.5441(6)
H2_2 H 0.2969 0.5699 0.5608
C7_2 C 0.5018(7) 0.6148(3) 0.6592(7)
H3_2 H 0.4993 0.6252 0.7558
C8_2 C 0.5211(6) 0.5827(3) 0.3850(7)
H4_2 H 0.5292 0.5703 0.2925
N1 N 0.6369(5) 0.6169(2) 0.4950(6)
C10_2 C 0.6247(6) 0.6325(3) 0.6296(6)
H6_2 H 0.7032 0.6564 0.7063
C11_2 C 0.0775(6) 0.2670(2) 0.0291(6)
O8_2 O 0.0377(4) 0.56067(16) 0.6366(4)
Sm2 Sm 0.14078(3) 0.491443(12) 0.87659(3)
O9_2 O 0.1178(4) 0.44214(16) 0.6268(4)
O13 O 0.0317(4) 0.57549(17) 0.9496(4)
O15 O 0.3846(4) 0.43372(17) 0.9488(4)
N5 N 0.3631(5) 0.3831(2) 0.5050(6)
O19 O 0.1145(4) 0.38562(17) 0.9431(5)
O21 O 0.3579(4) 0.55686(17) 0.9089(4)
C28_2 C 0.0228(5) 0.4663(2) 0.4965(6)
H7_2 H 0.1542 0.2761 0.9960
C15_2 C 0.0085(6) 0.6845(2) 0.9540(6)
C17_2 C 0.1237(7) 0.6979(3) 0.9059(7)
H9_2 H 0.1827 0.6664 0.8911
C23_2 C 0.1486(7) 0.7587(3) 0.8807(7)
H13_2 H 0.2281 0.7690 0.8528
C26_2 C 0.0570(7) 0.8041(3) 0.8965(7)
H16_2 H 0.0735 0.8448 0.8748
Sm1_2 Sm 0.85922(3) 0.508557(12) 0.12341(3)
O1_2 O 0.8822(4) 0.55786(16) 0.3732(4)
O3_2 O 0.9683(4) 0.42451(17) 0.0504(4)
O4_2 O 0.6154(4) 0.56628(17) 0.0512(4)
C1_2 C 0.9915(6) 0.3155(2) 0.0460(6)
C3_2 C 0.8763(7) 0.3021(3) 0.0941(7)
H1_2 H 0.8173 0.3336 0.1089
C9_2 C 0.8514(7) 0.2413(3) 0.1193(7)
H5_2 H 0.7719 0.2310 0.1472
C12_2 C 0.9430(7) 0.1959(3) 0.1035(7)
H8_2 H 0.9265 0.1552 0.1252
C14_2 C 0.9772(5) 0.5337(2) 0.5035(6)
O11 O 0.8679(4) 0.46962(19) 0.7200(4)
H15_2 H 0.8458 0.7239 0.0040
C27_2 C 0.5080(6) 0.4645(3) 0.0112(6)
O18_2 O 0.8855(4) 0.61438(17) 0.0569(5)
O20_2 O 0.6421(4) 0.44314(17) 0.0911(4)
O22_2 O 0.9623(4) 0.43933(16) 0.3634(4)
C13_2 C 0.4920(6) 0.5355(3) 0.9888(6)
C16_2 C 0.9727(6) 0.6205(2) 0.9886(6)
C18_2 C 0.7405(6) 0.4694(2) 0.7281(6)
C19_2 C 0.6096(6) 0.4349(2) 0.5962(6)
C20_2 C 0.6174(6) 0.4186(3) 0.4559(6)
H10_2 H 0.7031 0.4301 0.4392
C21_2 C 0.4982(7) 0.3852(3) 0.3408(7)
H11_2 H 0.5007 0.3748 0.2442
C22_2 C 0.4789(6) 0.4173(3) 0.6150(7)
H12_2 H 0.4708 0.4297 0.7075
C24_2 C 0.3753(6) 0.3675(3) 0.3704(6)
H14_2 H 0.2968 0.3436 0.2937
C25_2 C 0.9225(6) 0.7330(2) 0.9709(6)
O16_2 O 0.7127(4) 0.49420(17) 0.8360(4)
loop_
_geom_bond_atom_site_label_1
_geom_bond_atom_site_label_2
_geom_bond_site_symmetry_1
_geom_bond_site_symmetry_2
Sm1 O1 1_555 1_555
Cu1 O1 1_555 1_555
O4 Sm1 1_555 1_555
C13 O4 1_555 1_555
O7 C13 1_555 1_555
Cu6 N6 1_555 1_555
N4 Cu1 1_555 1_555
H15 C25 1_555 1_555
N6 C25 1_555 1_555
N7 Cu1 1_555 1_555
O18 Sm1 1_555 1_555
C16 O18 1_555 1_555
H10 C20 1_555 1_555
C21 C20 1_555 1_555
H11 C21 1_555 1_555
C24 C21 1_555 1_555
H14 C24 1_555 1_555
C3 C1 1_555 1_555
H1 C3 1_555 1_555
C9 C3 1_555 1_555
H5 C9 1_555 1_555
C12 C9 1_555 1_555
H8 C12 1_555 1_555
Cu5 N3 1_555 1_555
O14 Sm4 1_555 1_555
C18 O10 1_555 1_555
C19 C18 1_555 1_555
C22 C19 1_555 1_555
H12 C22 1_555 1_555
N3 C22 1_555 1_555
O14 C27 1_555 1_555
C18 O16 1_555 1_555
C27 O20 1_555 1_555
C4 O2 1_555 1_555
C5 C4 1_555 1_555
C8 C5 1_555 1_555
H4 C8 1_555 1_555
N4 C8 1_555 1_555
O5 C4 1_555 1_555
C17 C15 1_555 1_555
H9 C17 1_555 1_555
C23 C17 1_555 1_555
H13 C23 1_555 1_555
C26 C23 1_555 1_555
H16 C26 1_555 1_555
H2 C6 1_555 1_555
C7 C6 1_555 1_555
H3 C7 1_555 1_555
C10 C7 1_555 1_555
H6 C10 1_555 1_555
H7 C11 1_555 1_555
N2 C11 1_555 1_555
O6 C2 1_555 1_555
Cu4 N2 1_555 1_555
O6 Sm4 1_555 1_555
Sm4 O9 1_555 1_555
Cu5 O9 1_555 1_555
N8 Cu5 1_555 1_555
C4_2 O2_2 1_555 1_555
C5_2 C4_2 1_555 1_555
C6_2 C5_2 1_555 1_555
H2_2 C6_2 1_555 1_555
C7_2 C6_2 1_555 1_555
H3_2 C7_2 1_555 1_555
C8_2 C5_2 1_555 1_555
H4_2 C8_2 1_555 1_555
N1 C8_2 1_555 1_555
C10_2 C7_2 1_555 1_555
H6_2 C10_2 1_555 1_555
N7 C11_2 1_555 1_555
O17 C4_2 1_555 1_555
O8_2 Sm2 1_555 1_555
Sm2 O9_2 1_555 1_555
Cu6 O9_2 1_555 1_555
Cu4 N1 1_555 1_555
O9_2 C28_2 1_555 1_555
O13 Sm2 1_555 1_555
O15 Sm2 1_555 1_555
N5 Cu6 1_555 1_555
O19 Sm2 1_555 1_555
O21 Sm2 1_555 1_555
N1 C10_2 1_555 1_555
C17_2 C15_2 1_555 1_555
H9_2 C17_2 1_555 1_555
C23_2 C17_2 1_555 1_555
H13_2 C23_2 1_555 1_555
C26_2 C23_2 1_555 1_555
H16_2 C26_2 1_555 1_555
Sm1_2 O1_2 1_555 1_555
Cu4 O1_2 1_555 1_555
O1_2 C14_2 1_555 1_555
O3_2 Sm1_2 1_555 1_555
O4_2 Sm1_2 1_555 1_555
C3_2 C1_2 1_555 1_555
H1_2 C3_2 1_555 1_555
C9_2 C3_2 1_555 1_555
H5_2 C9_2 1_555 1_555
C12_2 C9_2 1_555 1_555
H8_2 C12_2 1_555 1_555
O18_2 Sm1_2 1_555 1_555
O20_2 Sm1_2 1_555 1_555
O22_2 Sm1_2 1_555 1_555
C27_2 O20_2 1_555 1_555
O21 C13_2 1_555 1_555
C18_2 O11 1_555 1_555
C19_2 C18_2 1_555 1_555
C20_2 C19_2 1_555 1_555
H10_2 C20_2 1_555 1_555
C21_2 C20_2 1_555 1_555
H11_2 C21_2 1_555 1_555
C22_2 C19_2 1_555 1_555
H12_2 C22_2 1_555 1_555
N5 C22_2 1_555 1_555
C24_2 C21_2 1_555 1_555
H14_2 C24_2 1_555 1_555
N8 C25_2 1_555 1_555
C18_2 O16_2 1_555 1_555
N5 C24_2 1_555 1_555

#END
