
###############################################################################
#
# This file contains modified crystal structure data generated from the
# MOF subset of the Cambridge Structural Database (CSD) v543 
# hosted by the Cambridge Crystallographic Data Centre (CCDC).
#
# This work is licensed under the Creative Commons
# Attribution-NonCommercial-ShareAlike 4.0 International License.
# To view a copy of this license, visit
# http://creativecommons.org/licenses/by-nc-sa/4.0/
# or send a letter to
# Creative Commons, PO Box 1866, Mountain View, CA 94042, USA.
#
# CIF created using the CSD Python API on 29 September 2022
# The structure has been converted into the P1 space group
# The structure has a 3D framework
# The original CSD entry BUSMUY is in the rhombohedral crystal system
# The framework has been calculated to contain at least 10.0% void space
# The void calculation uses a probe of radius 1.32A, grid spacing 0.4
#
###############################################################################

data_BUSMUY
_chemical_formula_moiety         '(C216 H144 Co16 N90)n'
_symmetry_cell_setting           triclinic
_symmetry_space_group_name_H-M   'P 1'
_symmetry_Int_Tables_number      1
_space_group_name_Hall           'P 1'
loop_
_symmetry_equiv_pos_site_id
_symmetry_equiv_pos_as_xyz
1 x,y,z
_cell_length_a                   28.222(5)
_cell_length_b                   28.222(5)
_cell_length_c                   9.413(3)
_cell_angle_alpha                90
_cell_angle_beta                 90
_cell_angle_gamma                120
_cell_volume                     6492.83
loop_
_atom_site_label
_atom_site_type_symbol
_atom_site_fract_x
_atom_site_fract_y
_atom_site_fract_z
Co1 Co -0.0000 0.5000 0.0000
N6 N 0.06879(8) 0.51516(8) 0.1344(2)
N9 N 0.01175(9) 0.56811(8) 0.3949(2)
C13 C 0.10855(13) 0.50378(13) 0.1088(3)
H9 H 0.1090 0.4885 0.0216
C14 C 0.14863(14) 0.51366(16) 0.2049(4)
H10 H 0.1756 0.5051 0.1832
C15 C 0.14877(15) 0.53626(16) 0.3338(4)
H11 H 0.1760 0.5435 0.4002
C16 C 0.10843(13) 0.54801(13) 0.3632(3)
H12 H 0.1076 0.5632 0.4502
C17 C 0.06888(10) 0.53701(10) 0.2620(3)
C18 C 0.02246(10) 0.54596(9) 0.2828(3)
H14 H 0.0126 0.6172 0.0397
Co1_2 Co 0.0000 0.5000 1.0000
N2 N 0.01567(8) 0.47118(8) 0.81846(19)
N3 N 0.05461(8) 0.45986(8) 0.7724(2)
N5 N 0.12548(8) 0.37581(8) 0.4193(2)
C7 C 0.03624(10) 0.43642(9) 0.6461(2)
C8 C 0.06715(9) 0.41681(9) 0.5637(2)
C9 C 0.04748(11) 0.38659(13) 0.4427(3)
H5 H 0.0139 0.3794 0.4061
C10 C 0.07680(12) 0.36681(14) 0.3751(3)
H6 H 0.0620 0.3459 0.2936
C11 C 0.14465(11) 0.40610(12) 0.5346(3)
H7 H 0.1790 0.4141 0.5670
C12 C 0.11713(11) 0.42652(12) 0.6097(3)
H8 H 0.1324 0.4469 0.6917
Co2 Co 0.1667 0.3333 0.3333
N12 N 0.04248(8) 0.58366(11) 0.9140(2)
Co1_3 Co 0.5000 0.5000 1.0000
N1 N 0.51516(8) 0.44637(11) 0.8656(2)
N2_2 N 0.52882(8) 0.54449(11) 0.81846(19)
N3_2 N 0.54014(8) 0.59475(11) 0.7724(2)
N4 N 0.56811(8) 0.55636(12) 0.6051(2)
N5_2 N 0.62419(8) 0.74967(11) 0.4193(2)
C1 C 0.50378(13) 0.39523(18) 0.8912(3)
H1 H 0.4885 0.3795 0.9784
C2 C 0.51366(16) 0.36503(21) 0.7951(4)
H2 H 0.5051 0.3295 0.8168
C3 C 0.53626(16) 0.38749(22) 0.6662(4)
H3 H 0.5435 0.3675 0.5998
C4 C 0.54801(13) 0.43958(18) 0.6368(3)
H4 H 0.5632 0.4556 0.5498
C5 C 0.53701(10) 0.46813(14) 0.7380(3)
C6 C 0.54596(9) 0.52350(13) 0.7172(3)
C7_2 C 0.56358(9) 0.59982(13) 0.6461(2)
C8_2 C 0.58319(9) 0.65034(13) 0.5637(2)
C9_2 C 0.61341(13) 0.66089(17) 0.4427(3)
H5_2 H 0.6206 0.6345 0.4061
C10_2 C 0.63319(14) 0.70999(18) 0.3751(3)
H6_2 H 0.6541 0.7161 0.2936
C11_2 C 0.59390(12) 0.73855(16) 0.5346(3)
H7_2 H 0.5859 0.7649 0.5670
C12_2 C 0.57348(12) 0.69061(16) 0.6097(3)
H8_2 H 0.5531 0.6855 0.6917
Co2_2 Co 0.6667 0.8333 0.3333
N12_2 N 0.41634(11) 0.45881(14) 0.9140(2)
Co1_4 Co 0.5000 1.0000 1.0000
N2_3 N 0.45551(11) 0.98433(8) 0.81846(19)
N3_3 N 0.40525(11) 0.94539(8) 0.7724(2)
N5_3 N 0.25033(11) 0.87452(8) 0.4193(2)
C7_3 C 0.40018(13) 0.96376(10) 0.6461(2)
C8_3 C 0.34966(13) 0.93285(9) 0.5637(2)
C9_3 C 0.33911(17) 0.95252(11) 0.4427(3)
H5_3 H 0.3655 0.9861 0.4061
C10_3 C 0.29001(18) 0.92320(12) 0.3751(3)
H6_3 H 0.2839 0.9380 0.2936
C11_3 C 0.26145(16) 0.85535(11) 0.5346(3)
H7_3 H 0.2351 0.8210 0.5670
C12_3 C 0.30939(16) 0.88287(11) 0.6097(3)
H8_3 H 0.3145 0.8676 0.6917
Co2_3 Co 0.1667 0.8333 0.3333
N12_3 N 0.54119(14) 0.95752(8) 0.9140(2)
N1_2 N 0.59788(8) 0.81817(8) 0.1989(2)
N2_4 N 0.68234(8) 0.80451(8) 0.15179(19)
N3_4 N 0.72128(8) 0.79319(8) 0.1057(2)
C1_2 C 0.55812(13) 0.82955(13) 0.2245(3)
H1_2 H 0.5577 0.8448 0.3117
C2_2 C 0.51804(14) 0.81967(16) 0.1284(4)
H2_2 H 0.4911 0.8282 0.1501
C5_2 C 0.59779(10) 0.79632(10) 0.0713(3)
C6_2 C 0.64421(10) 0.78737(9) 0.0505(3)
H8_4 H 0.7991 0.7802 0.0250
N6_2 N 0.73546(8) 0.84849(8) 0.4677(2)
N7 N 0.65100(8) 0.86215(8) 0.51487(19)
N8 N 0.61206(8) 0.87347(8) 0.5609(2)
N9_2 N 0.67842(9) 0.90144(8) 0.7282(2)
N12_4 N 0.70914(8) 0.91700(11) 0.2474(2)
C13_2 C 0.77522(13) 0.83711(13) 0.4421(3)
H9_2 H 0.7757 0.8218 0.3549
C14_2 C 0.81530(14) 0.84699(16) 0.5382(4)
H10_2 H 0.8423 0.8384 0.5165
C15_2 C 0.81544(15) 0.86959(16) 0.6671(4)
H11_2 H 0.8427 0.8768 0.7335
C16_2 C 0.77510(13) 0.88134(13) 0.6965(3)
H12_2 H 0.7743 0.8965 0.7835
C17_2 C 0.73555(10) 0.87034(10) 0.5953(3)
C18_2 C 0.68913(10) 0.87929(9) 0.6161(3)
C19 C 0.63043(10) 0.89691(9) 0.6872(2)
C20 C 0.59952(9) 0.91652(9) 0.7696(2)
C21 C 0.61919(11) 0.94674(13) 0.8906(3)
H13 H 0.6528 0.9539 0.9272
C22 C 0.58987(12) 0.96652(14) 0.9582(3)
C23 C 0.52202(11) 0.92723(12) 0.7987(3)
H15 H 0.4877 0.9192 0.7663
C24 C 0.54954(11) 0.90681(12) 0.7236(3)
H16 H 0.5343 0.8864 0.6416
N1_3 N 0.18183(8) 0.77970(11) 0.1989(2)
N2_5 N 0.19549(8) 0.87782(11) 0.15179(19)
N3_5 N 0.20681(8) 0.92808(11) 0.1057(2)
C1_3 C 0.17045(13) 0.72856(18) 0.2245(3)
H1_3 H 0.1552 0.7128 0.3117
C2_3 C 0.18033(16) 0.69836(21) 0.1284(4)
H2_3 H 0.1718 0.6628 0.1501
C5_3 C 0.20368(10) 0.80146(14) 0.0713(3)
C6_3 C 0.21263(9) 0.85683(13) 0.0505(3)
N6_3 N 0.15151(8) 0.88696(11) 0.4677(2)
N7_2 N 0.13785(8) 0.78884(11) 0.51487(19)
N8_2 N 0.12653(8) 0.73858(11) 0.5609(2)
N9_3 N 0.09856(8) 0.77697(12) 0.7282(2)
N12_5 N 0.08300(11) 0.79215(14) 0.2474(2)
C13_3 C 0.16289(13) 0.93810(18) 0.4421(3)
H9_3 H 0.1782 0.9538 0.3549
C14_3 C 0.15301(16) 0.96830(21) 0.5382(4)
C15_3 C 0.13041(16) 0.94584(22) 0.6671(4)
H11_3 H 0.1232 0.9658 0.7335
C16_3 C 0.11866(13) 0.89375(18) 0.6965(3)
H12_3 H 0.1035 0.8777 0.7835
C17_3 C 0.12966(10) 0.86520(14) 0.5953(3)
C18_3 C 0.12071(9) 0.80983(13) 0.6161(3)
C19_2 C 0.10309(9) 0.73351(13) 0.6872(2)
C20_2 C 0.08348(9) 0.68299(13) 0.7696(2)
C21_2 C 0.05326(13) 0.67244(17) 0.8906(3)
H13_2 H 0.0461 0.6988 0.9272
C22_2 C 0.03348(14) 0.62334(18) 0.9582(3)
C23_2 C 0.07277(12) 0.59478(16) 0.7987(3)
H15_2 H 0.0808 0.5684 0.7663
C24_2 C 0.09319(12) 0.64272(16) 0.7236(3)
H16_2 H 0.1136 0.6478 0.6416
N1_4 N 0.22030(11) 0.40212(8) 0.1989(2)
N2_6 N 0.12218(11) 0.31766(8) 0.15179(19)
N3_6 N 0.07192(11) 0.27872(8) 0.1057(2)
C1_4 C 0.27144(18) 0.44188(13) 0.2245(3)
H1_4 H 0.2872 0.4423 0.3117
C2_4 C 0.30164(21) 0.48196(14) 0.1284(4)
H2_4 H 0.3372 0.5089 0.1501
C5_4 C 0.19854(14) 0.40221(10) 0.0713(3)
C6_4 C 0.14317(13) 0.35579(10) 0.0505(3)
N6_4 N 0.11304(11) 0.26454(8) 0.4677(2)
N7_3 N 0.21116(11) 0.34900(8) 0.51487(19)
N8_3 N 0.26142(11) 0.38794(8) 0.5609(2)
N9_4 N 0.22303(12) 0.32158(9) 0.7282(2)
N12_6 N 0.20785(14) 0.29086(8) 0.2474(2)
C13_4 C 0.06190(18) 0.22478(13) 0.4421(3)
H9_4 H 0.0462 0.2243 0.3549
C14_4 C 0.03170(21) 0.18470(14) 0.5382(4)
C15_4 C 0.05416(22) 0.18456(15) 0.6671(4)
H11_4 H 0.0342 0.1573 0.7335
C16_4 C 0.10625(18) 0.22490(13) 0.6965(3)
H12_4 H 0.1223 0.2257 0.7835
C17_4 C 0.13480(14) 0.26445(10) 0.5953(3)
C18_4 C 0.19017(13) 0.31087(10) 0.6161(3)
C19_3 C 0.26649(13) 0.36957(10) 0.6872(2)
C20_3 C 0.31701(13) 0.40048(9) 0.7696(2)
C21_3 C 0.32756(17) 0.38081(11) 0.8906(3)
H13_3 H 0.3012 0.3472 0.9272
C22_3 C 0.37666(18) 0.41013(12) 0.9582(3)
C23_3 C 0.40522(16) 0.47798(11) 0.7987(3)
H15_3 H 0.4316 0.5123 0.7663
C24_3 C 0.35728(16) 0.45046(11) 0.7236(3)
H16_3 H 0.3522 0.4657 0.6416
N9_5 N 0.34508(9) 0.23478(8) 0.0616(2)
C15_5 C 0.48210(15) 0.20293(16) 0.0005(4)
H11_5 H 0.5093 0.2102 0.0669
C16_5 C 0.44176(13) 0.21468(13) 0.0299(3)
H12_5 H 0.4409 0.2299 0.1169
C19_4 C 0.29709(10) 0.23025(9) 0.0206(2)
C20_4 C 0.26618(9) 0.24986(9) 0.1030(2)
C21_4 C 0.28585(11) 0.28008(13) 0.2240(3)
H13_4 H 0.3194 0.2873 0.2606
C22_4 C 0.25653(12) 0.29986(14) 0.2916(3)
H14_2 H 0.2713 0.3208 0.3731
C23_4 C 0.18868(11) 0.26057(12) 0.1321(3)
H15_4 H 0.1543 0.2526 0.0997
C24_4 C 0.21620(11) 0.24015(12) 0.0570(3)
C22_5 C 0.70014(14) 0.95668(18) 0.2916(3)
H14_3 H 0.6792 0.9506 0.3731
C23_5 C 0.73943(12) 0.92812(16) 0.1321(3)
H15_5 H 0.7474 0.9018 0.0997
C24_5 C 0.75985(12) 0.97606(16) 0.0570(3)
C22_6 C 0.04332(18) 0.74347(12) 0.2916(3)
H14_4 H 0.0494 0.7287 0.3731
C23_6 C 0.07188(16) 0.81132(11) 0.1321(3)
H15_6 H 0.0982 0.8457 0.0997
C24_6 C 0.02394(16) 0.78380(11) 0.0570(3)
H6_4 H 0.6172 0.6047 0.9603
Co1_5 Co 1.0000 0.5000 0.0000
Co3 Co 0.8333 0.6667 0.6667
N7_4 N 0.98433(8) 0.52882(8) 0.18154(19)
N8_4 N 0.94539(8) 0.54014(8) 0.2276(2)
N10 N 0.87452(8) 0.62419(8) 0.5807(2)
N11 N 0.95752(8) 0.41634(11) 0.0860(2)
C19_5 C 0.96376(10) 0.56358(9) 0.3539(2)
C20_5 C 0.93285(9) 0.58319(9) 0.4363(2)
C21_5 C 0.95252(11) 0.61341(13) 0.5573(3)
H13_5 H 0.9861 0.6206 0.5939
C22_7 C 0.92320(12) 0.63319(14) 0.6249(3)
H14_5 H 0.9380 0.6541 0.7064
C23_7 C 0.85535(11) 0.59390(12) 0.4654(3)
H15_7 H 0.8210 0.5859 0.4330
C24_7 C 0.88287(11) 0.57348(12) 0.3903(3)
H16_4 H 0.8676 0.5531 0.3083
Co1_6 Co 0.5000 0.5000 0.0000
Co3_2 Co 0.3333 0.1667 0.6667
N6_5 N 0.48484(8) 0.55363(11) 0.1344(2)
N7_5 N 0.47118(8) 0.45551(11) 0.18154(19)
N8_5 N 0.45986(8) 0.40525(11) 0.2276(2)
N9_6 N 0.43189(8) 0.44364(12) 0.3949(2)
N10_2 N 0.37581(8) 0.25033(11) 0.5807(2)
N11_2 N 0.58366(11) 0.54119(14) 0.0860(2)
C13_5 C 0.49622(13) 0.60477(18) 0.1088(3)
H9_5 H 0.5115 0.6205 0.0216
C14_5 C 0.48634(16) 0.63497(21) 0.2049(4)
H10_3 H 0.4949 0.6705 0.1832
C15_6 C 0.46374(16) 0.61251(22) 0.3338(4)
H11_6 H 0.4565 0.6325 0.4002
C16_6 C 0.45199(13) 0.56042(18) 0.3632(3)
H12_6 H 0.4368 0.5444 0.4502
C17_5 C 0.46299(10) 0.53187(14) 0.2620(3)
C18_5 C 0.45404(9) 0.47650(13) 0.2828(3)
C19_6 C 0.43642(9) 0.40018(13) 0.3539(2)
C20_6 C 0.41681(9) 0.34966(13) 0.4363(2)
C21_6 C 0.38659(13) 0.33911(17) 0.5573(3)
H13_6 H 0.3794 0.3655 0.5939
C22_8 C 0.36681(14) 0.29001(18) 0.6249(3)
H14_6 H 0.3459 0.2839 0.7064
C23_8 C 0.40610(12) 0.26145(16) 0.4654(3)
H15_8 H 0.4141 0.2351 0.4330
C24_8 C 0.42652(12) 0.30939(16) 0.3903(3)
H16_5 H 0.4469 0.3145 0.3083
Co1_7 Co 0.5000 -0.0000 0.0000
Co3_3 Co 0.8333 0.1667 0.6667
N7_6 N 0.54449(11) 0.01567(8) 0.18154(19)
N8_6 N 0.59475(11) 0.05461(8) 0.2276(2)
N10_3 N 0.74967(11) 0.12548(8) 0.5807(2)
N11_3 N 0.45881(14) 0.04248(8) 0.0860(2)
C19_7 C 0.59982(13) 0.03624(10) 0.3539(2)
C20_7 C 0.65034(13) 0.06715(9) 0.4363(2)
C21_7 C 0.66089(17) 0.04748(11) 0.5573(3)
H13_7 H 0.6345 0.0139 0.5939
C22_9 C 0.70999(18) 0.07680(12) 0.6249(3)
H14_7 H 0.7161 0.0620 0.7064
C23_9 C 0.73855(16) 0.14465(11) 0.4654(3)
H15_9 H 0.7649 0.1790 0.4330
C24_9 C 0.69061(16) 0.11713(11) 0.3903(3)
H16_6 H 0.6855 0.1324 0.3083
N4_2 N 0.65492(9) 0.76522(8) 0.9384(2)
N5_4 N 0.79215(8) 0.70914(8) 0.7526(2)
C3_2 C 0.51790(15) 0.79707(16) 0.9995(4)
H3_2 H 0.4907 0.7898 0.9331
C4_2 C 0.55824(13) 0.78532(13) 0.9701(3)
H4_2 H 0.5591 0.7701 0.8831
C7_4 C 0.70291(10) 0.76975(9) 0.9794(2)
C8_4 C 0.73382(9) 0.75014(9) 0.8970(2)
C9_4 C 0.71415(11) 0.71992(13) 0.7760(3)
H5_4 H 0.6806 0.7127 0.7394
C10_4 C 0.74347(12) 0.70014(14) 0.7084(3)
H6_5 H 0.7287 0.6792 0.6269
C11_4 C 0.81132(11) 0.73943(12) 0.8679(3)
H7_4 H 0.8457 0.7474 0.9003
C12_4 C 0.78380(11) 0.75985(12) 0.9430(3)
N5_5 N 0.29086(8) 0.08300(11) 0.7526(2)
C10_5 C 0.29986(14) 0.04332(18) 0.7084(3)
H6_6 H 0.3208 0.0494 0.6269
C11_5 C 0.26057(12) 0.07188(16) 0.8679(3)
H7_5 H 0.2526 0.0982 0.9003
C12_5 C 0.24015(12) 0.02394(16) 0.9430(3)
H14_8 H 0.3828 0.3953 0.0397
N5_6 N 0.91700(11) 0.20785(8) 0.7526(2)
C10_6 C 0.95668(18) 0.25653(12) 0.7084(3)
H6_7 H 0.9506 0.2713 0.6269
C11_6 C 0.92812(16) 0.18868(11) 0.8679(3)
H7_6 H 0.9018 0.1543 0.9003
C12_6 C 0.97606(16) 0.21620(11) 0.9430(3)
N1_5 N 0.26454(8) 0.15151(8) 0.5323(2)
N2_7 N 0.34900(8) 0.13785(8) 0.48513(19)
N3_7 N 0.38794(8) 0.12653(8) 0.4391(2)
N4_3 N 0.32158(9) 0.09856(8) 0.2718(2)
C1_5 C 0.22478(13) 0.16289(13) 0.5579(3)
H1_5 H 0.2243 0.1782 0.6451
C2_5 C 0.18470(14) 0.15301(16) 0.4618(4)
H2_5 H 0.1577 0.1616 0.4835
C3_3 C 0.18456(15) 0.13041(16) 0.3329(4)
H3_3 H 0.1573 0.1232 0.2665
C4_3 C 0.22490(13) 0.11866(13) 0.3035(3)
H4_3 H 0.2257 0.1035 0.2165
C5_5 C 0.26445(10) 0.12966(10) 0.4047(3)
C6_5 C 0.31087(10) 0.12071(9) 0.3839(3)
C7_5 C 0.36957(10) 0.10309(9) 0.3128(2)
C8_5 C 0.40048(9) 0.08348(9) 0.2304(2)
C9_5 C 0.38081(11) 0.05326(13) 0.1094(3)
H5_5 H 0.3472 0.0461 0.0728
C10_7 C 0.41013(12) 0.03348(14) 0.0418(3)
C11_7 C 0.47798(11) 0.07277(12) 0.2013(3)
H7_7 H 0.5123 0.0808 0.2337
C12_7 C 0.45046(11) 0.09319(12) 0.2764(3)
H8_5 H 0.4657 0.1136 0.3584
N6_6 N 0.40212(8) 0.18183(8) 0.8011(2)
N7_7 N 0.31766(8) 0.19549(8) 0.84821(19)
N8_7 N 0.27872(8) 0.20681(8) 0.8943(2)
C13_6 C 0.44188(13) 0.17045(13) 0.7755(3)
H9_6 H 0.4423 0.1552 0.6883
C14_6 C 0.48196(14) 0.18033(16) 0.8716(4)
H10_4 H 0.5089 0.1718 0.8499
C17_6 C 0.40221(10) 0.20368(10) 0.9287(3)
C18_6 C 0.35579(10) 0.21263(9) 0.9495(3)
H16_7 H 0.2009 0.2198 0.9750
N1_6 N 0.84849(8) 0.11304(11) 0.5323(2)
N2_8 N 0.86215(8) 0.21116(11) 0.48513(19)
N3_8 N 0.87347(8) 0.26142(11) 0.4391(2)
N4_4 N 0.90144(8) 0.22303(12) 0.2718(2)
C1_6 C 0.83711(13) 0.06190(18) 0.5579(3)
H1_6 H 0.8218 0.0462 0.6451
C2_6 C 0.84699(16) 0.03170(21) 0.4618(4)
C3_4 C 0.86959(16) 0.05416(22) 0.3329(4)
H3_4 H 0.8768 0.0342 0.2665
C4_4 C 0.88134(13) 0.10625(18) 0.3035(3)
H4_4 H 0.8965 0.1223 0.2165
C5_6 C 0.87034(10) 0.13480(14) 0.4047(3)
C6_6 C 0.87929(9) 0.19017(13) 0.3839(3)
C7_6 C 0.89691(9) 0.26649(13) 0.3128(2)
C8_6 C 0.91652(9) 0.31701(13) 0.2304(2)
C9_6 C 0.94674(13) 0.32756(17) 0.1094(3)
H5_6 H 0.9539 0.3012 0.0728
C10_8 C 0.96652(14) 0.37666(18) 0.0418(3)
C11_8 C 0.92723(12) 0.40522(16) 0.2013(3)
H7_8 H 0.9192 0.4316 0.2337
C12_8 C 0.90681(12) 0.35728(16) 0.2764(3)
H8_6 H 0.8864 0.3522 0.3584
N6_7 N 0.81817(8) 0.22030(11) 0.8011(2)
N7_8 N 0.80451(8) 0.12218(11) 0.84821(19)
N8_8 N 0.79319(8) 0.07192(11) 0.8943(2)
C13_7 C 0.82955(13) 0.27144(18) 0.7755(3)
H9_7 H 0.8448 0.2872 0.6883
C14_7 C 0.81967(16) 0.30164(21) 0.8716(4)
H10_5 H 0.8282 0.3372 0.8499
C17_7 C 0.79632(10) 0.19854(14) 0.9287(3)
C18_7 C 0.78737(9) 0.14317(13) 0.9495(3)
N1_7 N 0.88696(11) 0.73546(8) 0.5323(2)
N2_9 N 0.78884(11) 0.65100(8) 0.48513(19)
N3_9 N 0.73858(11) 0.61206(8) 0.4391(2)
N4_5 N 0.77697(12) 0.67842(9) 0.2718(2)
C1_7 C 0.93810(18) 0.77522(13) 0.5579(3)
H1_7 H 0.9538 0.7757 0.6451
C2_7 C 0.96830(21) 0.81530(14) 0.4618(4)
C3_5 C 0.94584(22) 0.81544(15) 0.3329(4)
H3_5 H 0.9658 0.8427 0.2665
C4_5 C 0.89375(18) 0.77510(13) 0.3035(3)
H4_5 H 0.8777 0.7743 0.2165
C5_7 C 0.86520(14) 0.73555(10) 0.4047(3)
C6_7 C 0.80983(13) 0.68913(10) 0.3839(3)
C7_7 C 0.73351(13) 0.63043(10) 0.3128(2)
C8_7 C 0.68299(13) 0.59952(9) 0.2304(2)
C9_7 C 0.67244(17) 0.61919(11) 0.1094(3)
H5_7 H 0.6988 0.6528 0.0728
C10_9 C 0.62334(18) 0.58987(12) 0.0418(3)
C11_9 C 0.59478(16) 0.52202(11) 0.2013(3)
H7_9 H 0.5684 0.4877 0.2337
C12_9 C 0.64272(16) 0.54954(11) 0.2764(3)
H8_7 H 0.6478 0.5343 0.3584
N6_8 N 0.77970(11) 0.59788(8) 0.8011(2)
N7_9 N 0.87782(11) 0.68234(8) 0.84821(19)
N8_9 N 0.92808(11) 0.72128(8) 0.8943(2)
C13_8 C 0.72856(18) 0.55812(13) 0.7755(3)
H9_8 H 0.7128 0.5577 0.6883
C14_8 C 0.69836(21) 0.51804(14) 0.8716(4)
H10_6 H 0.6628 0.4911 0.8499
C17_8 C 0.80146(14) 0.59779(10) 0.9287(3)
C18_8 C 0.85683(13) 0.64421(10) 0.9495(3)
Co1_8 Co 1.0000 0.5000 1.0000
N1_8 N 0.93121(8) 0.48484(8) 0.8656(2)
N4_6 N 0.98825(9) 0.43189(8) 0.6051(2)
C1_8 C 0.89145(13) 0.49622(13) 0.8912(3)
H1_8 H 0.8910 0.5115 0.9784
C2_8 C 0.85137(14) 0.48634(16) 0.7951(4)
H2_6 H 0.8244 0.4949 0.8168
C3_6 C 0.85123(15) 0.46374(16) 0.6662(4)
H3_6 H 0.8240 0.4565 0.5998
C4_6 C 0.89157(13) 0.45199(13) 0.6368(3)
H4_6 H 0.8924 0.4368 0.5498
C5_8 C 0.93112(10) 0.46299(10) 0.7380(3)
C6_8 C 0.97754(10) 0.45404(9) 0.7172(3)
H6_8 H 0.9874 0.3828 0.9603
Co1_9 Co 0.5000 -0.0000 1.0000
N1_9 N 0.55363(11) 0.06879(8) 0.8656(2)
N4_7 N 0.44364(12) 0.01175(9) 0.6051(2)
C1_9 C 0.60477(18) 0.10855(13) 0.8912(3)
H1_9 H 0.6205 0.1090 0.9784
C2_9 C 0.63497(21) 0.14863(14) 0.7951(4)
H2_7 H 0.6705 0.1756 0.8168
C3_7 C 0.61251(22) 0.14877(15) 0.6662(4)
H3_7 H 0.6325 0.1760 0.5998
C4_7 C 0.56042(18) 0.10843(13) 0.6368(3)
H4_7 H 0.5444 0.1076 0.5498
C5_9 C 0.53187(14) 0.06888(10) 0.7380(3)
C6_9 C 0.47650(13) 0.02246(10) 0.7172(3)
H6_9 H 0.3953 0.0126 0.9603
Co1_10 Co 0.5000 1.0000 0.0000
N6_9 N 0.44637(11) 0.93121(8) 0.1344(2)
N9_7 N 0.55636(12) 0.98825(9) 0.3949(2)
C13_9 C 0.39523(18) 0.89145(13) 0.1088(3)
H9_9 H 0.3795 0.8910 0.0216
C14_9 C 0.36503(21) 0.85137(14) 0.2049(4)
H10_7 H 0.3295 0.8244 0.1832
C15_7 C 0.38749(22) 0.85123(15) 0.3338(4)
H11_7 H 0.3675 0.8240 0.4002
C16_7 C 0.43958(18) 0.89157(13) 0.3632(3)
H12_7 H 0.4556 0.8924 0.4502
C17_9 C 0.46813(14) 0.93112(10) 0.2620(3)
C18_9 C 0.52350(13) 0.97754(10) 0.2828(3)
H14_9 H 0.6047 0.9874 0.0397
H8_8 H 0.2198 0.0188 0.0250
H10_8 H 0.1616 0.0038 0.5165
N4_8 N 0.23478(8) 0.88969(12) 0.9384(2)
C3_8 C 0.20293(16) 0.72082(22) 0.9995(4)
H3_8 H 0.2102 0.7008 0.9331
C4_8 C 0.21468(13) 0.77291(18) 0.9701(3)
H4_8 H 0.2299 0.7889 0.8831
C7_8 C 0.23025(9) 0.93315(13) 0.9794(2)
C8_8 C 0.24986(9) 0.98367(13) 0.8970(2)
C9_8 C 0.28008(13) 0.99422(17) 0.7760(3)
H5_8 H 0.2873 0.9678 0.7394
N4_9 N 0.11031(12) 0.34508(9) 0.9384(2)
C3_9 C 0.27918(22) 0.48210(15) 0.9995(4)
H3_9 H 0.2992 0.5093 0.9331
C4_9 C 0.22709(18) 0.44176(13) 0.9701(3)
H4_9 H 0.2111 0.4409 0.8831
C7_9 C 0.06685(13) 0.29709(10) 0.9794(2)
C8_9 C 0.01633(13) 0.26618(9) 0.8970(2)
C9_9 C 0.00578(17) 0.28585(11) 0.7760(3)
H5_9 H 0.0322 0.3194 0.7394
H8_9 H 0.9812 0.2009 0.0250
H10_9 H 0.9962 0.1577 0.5165
N9_8 N 0.76522(8) 0.11031(12) 0.0616(2)
C15_8 C 0.79707(16) 0.27918(22) 0.0005(4)
H11_8 H 0.7898 0.2992 0.0669
C16_8 C 0.78532(13) 0.22709(18) 0.0299(3)
H12_8 H 0.7701 0.2111 0.1169
C19_8 C 0.76975(9) 0.06685(13) 0.0206(2)
C20_8 C 0.75014(9) 0.01633(13) 0.1030(2)
C21_8 C 0.71992(13) 0.00578(17) 0.2240(3)
H13_8 H 0.7127 0.0322 0.2606
H2_8 H 0.8384 0.9962 0.4835
H16_8 H 0.7802 0.9812 0.9750
H2_9 H 0.0038 0.8423 0.4835
H16_9 H 0.0188 0.7991 0.9750
N9_9 N 0.88969(12) 0.65492(9) 0.0616(2)
C15_9 C 0.72082(22) 0.51790(15) 0.0005(4)
H11_9 H 0.7008 0.4907 0.0669
C16_9 C 0.77291(18) 0.55824(13) 0.0299(3)
H12_9 H 0.7889 0.5591 0.1169
C19_9 C 0.93315(13) 0.70291(10) 0.0206(2)
C20_9 C 0.98367(13) 0.73382(9) 0.1030(2)
C21_9 C 0.99422(17) 0.71415(11) 0.2240(3)
H13_9 H 0.9678 0.6806 0.2606
loop_
_geom_bond_atom_site_label_1
_geom_bond_atom_site_label_2
_geom_bond_site_symmetry_1
_geom_bond_site_symmetry_2
N6 Co1 1_555 1_555
N9 C18 1_555 1_555
C13 N6 1_555 1_555
H9 C13 1_555 1_555
C14 C13 1_555 1_555
H10 C14 1_555 1_555
C15 C14 1_555 1_555
H11 C15 1_555 1_555
C16 C15 1_555 1_555
H12 C16 1_555 1_555
C17 N6 1_555 1_555
C16 C17 1_555 1_555
C17 C18 1_555 1_555
N2 Co1_2 1_555 1_555
N3 N2 1_555 1_555
N5 C10 1_555 1_555
C7 N3 1_555 1_555
C8 C7 1_555 1_555
C9 C8 1_555 1_555
H5 C9 1_555 1_555
C10 C9 1_555 1_555
H6 C10 1_555 1_555
C11 N5 1_555 1_555
H7 C11 1_555 1_555
C12 C8 1_555 1_555
H8 C12 1_555 1_555
Co2 N5 1_555 1_555
N12 Co1_2 1_555 1_555
C11 C12 1_555 1_555
Co1_3 N1 1_555 1_555
N1 C1 1_555 1_555
N2_2 Co1_3 1_555 1_555
N3_2 N2_2 1_555 1_555
N4 C6 1_555 1_555
N5_2 C10_2 1_555 1_555
C1 H1 1_555 1_555
C2 C1 1_555 1_555
H2 C2 1_555 1_555
C3 C2 1_555 1_555
H3 C3 1_555 1_555
C4 C3 1_555 1_555
H4 C4 1_555 1_555
C5 N1 1_555 1_555
C6 N2_2 1_555 1_555
C7_2 N3_2 1_555 1_555
C8_2 C7_2 1_555 1_555
C9_2 C8_2 1_555 1_555
H5_2 C9_2 1_555 1_555
C10_2 C9_2 1_555 1_555
H6_2 C10_2 1_555 1_555
C11_2 N5_2 1_555 1_555
H7_2 C11_2 1_555 1_555
C12_2 C8_2 1_555 1_555
H8_2 C12_2 1_555 1_555
Co2_2 N5_2 1_555 1_555
N12_2 Co1_3 1_555 1_555
N4 C7_2 1_555 1_555
C4 C5 1_555 1_555
C5 C6 1_555 1_555
C11_2 C12_2 1_555 1_555
N2_3 Co1_4 1_555 1_555
N3_3 N2_3 1_555 1_555
N5_3 C10_3 1_555 1_555
C7_3 N3_3 1_555 1_555
C8_3 C7_3 1_555 1_555
C9_3 C8_3 1_555 1_555
H5_3 C9_3 1_555 1_555
C10_3 C9_3 1_555 1_555
H6_3 C10_3 1_555 1_555
C11_3 N5_3 1_555 1_555
H7_3 C11_3 1_555 1_555
C12_3 C8_3 1_555 1_555
H8_3 C12_3 1_555 1_555
Co2_3 N5_3 1_555 1_555
N12_3 Co1_4 1_555 1_555
C11_3 C12_3 1_555 1_555
Co2_2 N1_2 1_555 1_555
N1_2 C1_2 1_555 1_555
N2_4 Co2_2 1_555 1_555
N3_4 N2_4 1_555 1_555
C1_2 H1_2 1_555 1_555
C2_2 C1_2 1_555 1_555
H2_2 C2_2 1_555 1_555
C5_2 N1_2 1_555 1_555
C6_2 N2_4 1_555 1_555
N6_2 Co2_2 1_555 1_555
N7 Co2_2 1_555 1_555
N8 N7 1_555 1_555
N9_2 C18_2 1_555 1_555
N12_3 C22 1_555 1_555
N12_4 Co2_2 1_555 1_555
C13_2 N6_2 1_555 1_555
H9_2 C13_2 1_555 1_555
C14_2 C13_2 1_555 1_555
H10_2 C14_2 1_555 1_555
C15_2 C14_2 1_555 1_555
H11_2 C15_2 1_555 1_555
C16_2 C15_2 1_555 1_555
H12_2 C16_2 1_555 1_555
C17_2 N6_2 1_555 1_555
C18_2 N7 1_555 1_555
C19 N8 1_555 1_555
C20 C19 1_555 1_555
C21 C20 1_555 1_555
H13 C21 1_555 1_555
C22 C21 1_555 1_555
C23 N12_3 1_555 1_555
H15 C23 1_555 1_555
C24 C20 1_555 1_555
H16 C24 1_555 1_555
C5_2 C6_2 1_555 1_555
N9_2 C19 1_555 1_555
C16_2 C17_2 1_555 1_555
C17_2 C18_2 1_555 1_555
C23 C24 1_555 1_555
Co2_3 N1_3 1_555 1_555
N1_3 C1_3 1_555 1_555
N2_5 Co2_3 1_555 1_555
N3_5 N2_5 1_555 1_555
C1_3 H1_3 1_555 1_555
C2_3 C1_3 1_555 1_555
H2_3 C2_3 1_555 1_555
C5_3 N1_3 1_555 1_555
C6_3 N2_5 1_555 1_555
N6_3 Co2_3 1_555 1_555
N7_2 Co2_3 1_555 1_555
N8_2 N7_2 1_555 1_555
N9_3 C18_3 1_555 1_555
N12 C22_2 1_555 1_555
N12_5 Co2_3 1_555 1_555
C13_3 N6_3 1_555 1_555
H9_3 C13_3 1_555 1_555
C14_3 C13_3 1_555 1_555
C15_3 C14_3 1_555 1_555
H11_3 C15_3 1_555 1_555
C16_3 C15_3 1_555 1_555
H12_3 C16_3 1_555 1_555
C17_3 N6_3 1_555 1_555
C18_3 N7_2 1_555 1_555
C19_2 N8_2 1_555 1_555
C20_2 C19_2 1_555 1_555
C21_2 C20_2 1_555 1_555
H13_2 C21_2 1_555 1_555
C22_2 C21_2 1_555 1_555
C23_2 N12 1_555 1_555
H15_2 C23_2 1_555 1_555
C24_2 C20_2 1_555 1_555
H16_2 C24_2 1_555 1_555
C5_3 C6_3 1_555 1_555
N9_3 C19_2 1_555 1_555
C16_3 C17_3 1_555 1_555
C17_3 C18_3 1_555 1_555
C23_2 C24_2 1_555 1_555
Co2 N1_4 1_555 1_555
N1_4 C1_4 1_555 1_555
N2_6 Co2 1_555 1_555
N3_6 N2_6 1_555 1_555
C1_4 H1_4 1_555 1_555
C2_4 C1_4 1_555 1_555
H2_4 C2_4 1_555 1_555
C5_4 N1_4 1_555 1_555
C6_4 N2_6 1_555 1_555
N6_4 Co2 1_555 1_555
N7_3 Co2 1_555 1_555
N8_3 N7_3 1_555 1_555
N9_4 C18_4 1_555 1_555
N12_2 C22_3 1_555 1_555
N12_6 Co2 1_555 1_555
C13_4 N6_4 1_555 1_555
H9_4 C13_4 1_555 1_555
C14_4 C13_4 1_555 1_555
C15_4 C14_4 1_555 1_555
H11_4 C15_4 1_555 1_555
C16_4 C15_4 1_555 1_555
H12_4 C16_4 1_555 1_555
C17_4 N6_4 1_555 1_555
C18_4 N7_3 1_555 1_555
C19_3 N8_3 1_555 1_555
C20_3 C19_3 1_555 1_555
C21_3 C20_3 1_555 1_555
H13_3 C21_3 1_555 1_555
C22_3 C21_3 1_555 1_555
C23_3 N12_2 1_555 1_555
H15_3 C23_3 1_555 1_555
C24_3 C20_3 1_555 1_555
H16_3 C24_3 1_555 1_555
C5_4 C6_4 1_555 1_555
N9_4 C19_3 1_555 1_555
C16_4 C17_4 1_555 1_555
C17_4 C18_4 1_555 1_555
C23_3 C24_3 1_555 1_555
N12_6 C22_4 1_555 1_555
H11_5 C15_5 1_555 1_555
C16_5 C15_5 1_555 1_555
H12_5 C16_5 1_555 1_555
C20_4 C19_4 1_555 1_555
C21_4 C20_4 1_555 1_555
H13_4 C21_4 1_555 1_555
C22_4 C21_4 1_555 1_555
H14_2 C22_4 1_555 1_555
C23_4 N12_6 1_555 1_555
H15_4 C23_4 1_555 1_555
C24_4 C20_4 1_555 1_555
N9_5 C19_4 1_555 1_555
C23_4 C24_4 1_555 1_555
N12_4 C22_5 1_555 1_555
H14_3 C22_5 1_555 1_555
C23_5 N12_4 1_555 1_555
H15_5 C23_5 1_555 1_555
C23_5 C24_5 1_555 1_555
N12_5 C22_6 1_555 1_555
H14_4 C22_6 1_555 1_555
C23_6 N12_5 1_555 1_555
H15_6 C23_6 1_555 1_555
C23_6 C24_6 1_555 1_555
Co3 N10 1_555 1_555
N7_4 Co1_5 1_555 1_555
N8_4 N7_4 1_555 1_555
N10 C22_7 1_555 1_555
N11 Co1_5 1_555 1_555
C19_5 N8_4 1_555 1_555
C20_5 C19_5 1_555 1_555
C21_5 C20_5 1_555 1_555
H13_5 C21_5 1_555 1_555
C22_7 C21_5 1_555 1_555
H14_5 C22_7 1_555 1_555
C23_7 N10 1_555 1_555
H15_7 C23_7 1_555 1_555
C24_7 C20_5 1_555 1_555
H16_4 C24_7 1_555 1_555
C23_7 C24_7 1_555 1_555
Co3_2 N10_2 1_555 1_555
N6_5 Co1_6 1_555 1_555
N7_5 Co1_6 1_555 1_555
N8_5 N7_5 1_555 1_555
N9_6 C18_5 1_555 1_555
N10_2 C22_8 1_555 1_555
N11_2 Co1_6 1_555 1_555
C13_5 N6_5 1_555 1_555
H9_5 C13_5 1_555 1_555
C14_5 C13_5 1_555 1_555
H10_3 C14_5 1_555 1_555
C15_6 C14_5 1_555 1_555
H11_6 C15_6 1_555 1_555
C16_6 C15_6 1_555 1_555
H12_6 C16_6 1_555 1_555
C17_5 N6_5 1_555 1_555
C18_5 N7_5 1_555 1_555
C19_6 N8_5 1_555 1_555
C20_6 C19_6 1_555 1_555
C21_6 C20_6 1_555 1_555
H13_6 C21_6 1_555 1_555
C22_8 C21_6 1_555 1_555
H14_6 C22_8 1_555 1_555
C23_8 N10_2 1_555 1_555
H15_8 C23_8 1_555 1_555
C24_8 C20_6 1_555 1_555
H16_5 C24_8 1_555 1_555
N9_6 C19_6 1_555 1_555
C16_6 C17_5 1_555 1_555
C17_5 C18_5 1_555 1_555
C23_8 C24_8 1_555 1_555
Co3_3 N10_3 1_555 1_555
N7_6 Co1_7 1_555 1_555
N8_6 N7_6 1_555 1_555
N10_3 C22_9 1_555 1_555
N11_3 Co1_7 1_555 1_555
C19_7 N8_6 1_555 1_555
C20_7 C19_7 1_555 1_555
C21_7 C20_7 1_555 1_555
H13_7 C21_7 1_555 1_555
C22_9 C21_7 1_555 1_555
H14_7 C22_9 1_555 1_555
C23_9 N10_3 1_555 1_555
H15_9 C23_9 1_555 1_555
C24_9 C20_7 1_555 1_555
H16_6 C24_9 1_555 1_555
C23_9 C24_9 1_555 1_555
N5_4 C10_4 1_555 1_555
H3_2 C3_2 1_555 1_555
C4_2 C3_2 1_555 1_555
H4_2 C4_2 1_555 1_555
C8_4 C7_4 1_555 1_555
C9_4 C8_4 1_555 1_555
H5_4 C9_4 1_555 1_555
C10_4 C9_4 1_555 1_555
H6_5 C10_4 1_555 1_555
C11_4 N5_4 1_555 1_555
H7_4 C11_4 1_555 1_555
C12_4 C8_4 1_555 1_555
Co3 N5_4 1_555 1_555
N4_2 C7_4 1_555 1_555
C11_4 C12_4 1_555 1_555
N5_5 C10_5 1_555 1_555
H6_6 C10_5 1_555 1_555
C11_5 N5_5 1_555 1_555
H7_5 C11_5 1_555 1_555
Co3_2 N5_5 1_555 1_555
C11_5 C12_5 1_555 1_555
N5_6 C10_6 1_555 1_555
H6_7 C10_6 1_555 1_555
C11_6 N5_6 1_555 1_555
H7_6 C11_6 1_555 1_555
Co3_3 N5_6 1_555 1_555
C11_6 C12_6 1_555 1_555
Co3_2 N1_5 1_555 1_555
N1_5 C1_5 1_555 1_555
N2_7 Co3_2 1_555 1_555
N3_7 N2_7 1_555 1_555
N4_3 C6_5 1_555 1_555
N11_3 C10_7 1_555 1_555
C1_5 H1_5 1_555 1_555
C2_5 C1_5 1_555 1_555
H2_5 C2_5 1_555 1_555
C3_3 C2_5 1_555 1_555
H3_3 C3_3 1_555 1_555
C4_3 C3_3 1_555 1_555
H4_3 C4_3 1_555 1_555
C5_5 N1_5 1_555 1_555
C6_5 N2_7 1_555 1_555
C7_5 N3_7 1_555 1_555
C8_5 C7_5 1_555 1_555
C9_5 C8_5 1_555 1_555
H5_5 C9_5 1_555 1_555
C10_7 C9_5 1_555 1_555
C11_7 N11_3 1_555 1_555
H7_7 C11_7 1_555 1_555
C12_7 C8_5 1_555 1_555
H8_5 C12_7 1_555 1_555
N6_6 Co3_2 1_555 1_555
N7_7 Co3_2 1_555 1_555
N8_7 N7_7 1_555 1_555
C13_6 N6_6 1_555 1_555
H9_6 C13_6 1_555 1_555
C14_6 C13_6 1_555 1_555
H10_4 C14_6 1_555 1_555
C17_6 N6_6 1_555 1_555
C18_6 N7_7 1_555 1_555
N4_3 C7_5 1_555 1_555
C4_3 C5_5 1_555 1_555
C5_5 C6_5 1_555 1_555
C11_7 C12_7 1_555 1_555
C17_6 C18_6 1_555 1_555
Co3_3 N1_6 1_555 1_555
N1_6 C1_6 1_555 1_555
N2_8 Co3_3 1_555 1_555
N3_8 N2_8 1_555 1_555
N4_4 C6_6 1_555 1_555
N11 C10_8 1_555 1_555
C1_6 H1_6 1_555 1_555
C2_6 C1_6 1_555 1_555
C3_4 C2_6 1_555 1_555
H3_4 C3_4 1_555 1_555
C4_4 C3_4 1_555 1_555
H4_4 C4_4 1_555 1_555
C5_6 N1_6 1_555 1_555
C6_6 N2_8 1_555 1_555
C7_6 N3_8 1_555 1_555
C8_6 C7_6 1_555 1_555
C9_6 C8_6 1_555 1_555
H5_6 C9_6 1_555 1_555
C10_8 C9_6 1_555 1_555
C11_8 N11 1_555 1_555
H7_8 C11_8 1_555 1_555
C12_8 C8_6 1_555 1_555
H8_6 C12_8 1_555 1_555
N6_7 Co3_3 1_555 1_555
N7_8 Co3_3 1_555 1_555
N8_8 N7_8 1_555 1_555
C13_7 N6_7 1_555 1_555
H9_7 C13_7 1_555 1_555
C14_7 C13_7 1_555 1_555
H10_5 C14_7 1_555 1_555
C17_7 N6_7 1_555 1_555
C18_7 N7_8 1_555 1_555
N4_4 C7_6 1_555 1_555
C4_4 C5_6 1_555 1_555
C5_6 C6_6 1_555 1_555
C11_8 C12_8 1_555 1_555
C17_7 C18_7 1_555 1_555
Co3 N1_7 1_555 1_555
N1_7 C1_7 1_555 1_555
N2_9 Co3 1_555 1_555
N3_9 N2_9 1_555 1_555
N4_5 C6_7 1_555 1_555
N11_2 C10_9 1_555 1_555
C1_7 H1_7 1_555 1_555
C2_7 C1_7 1_555 1_555
C3_5 C2_7 1_555 1_555
H3_5 C3_5 1_555 1_555
C4_5 C3_5 1_555 1_555
H4_5 C4_5 1_555 1_555
C5_7 N1_7 1_555 1_555
C6_7 N2_9 1_555 1_555
C7_7 N3_9 1_555 1_555
C8_7 C7_7 1_555 1_555
C9_7 C8_7 1_555 1_555
H5_7 C9_7 1_555 1_555
C10_9 C9_7 1_555 1_555
C11_9 N11_2 1_555 1_555
H7_9 C11_9 1_555 1_555
C12_9 C8_7 1_555 1_555
H8_7 C12_9 1_555 1_555
N6_8 Co3 1_555 1_555
N7_9 Co3 1_555 1_555
N8_9 N7_9 1_555 1_555
C13_8 N6_8 1_555 1_555
H9_8 C13_8 1_555 1_555
C14_8 C13_8 1_555 1_555
H10_6 C14_8 1_555 1_555
C17_8 N6_8 1_555 1_555
C18_8 N7_9 1_555 1_555
N4_5 C7_7 1_555 1_555
C4_5 C5_7 1_555 1_555
C5_7 C6_7 1_555 1_555
C11_9 C12_9 1_555 1_555
C17_8 C18_8 1_555 1_555
Co1_8 N1_8 1_555 1_555
N1_8 C1_8 1_555 1_555
N4_6 C6_8 1_555 1_555
C1_8 H1_8 1_555 1_555
C2_8 C1_8 1_555 1_555
H2_6 C2_8 1_555 1_555
C3_6 C2_8 1_555 1_555
H3_6 C3_6 1_555 1_555
C4_6 C3_6 1_555 1_555
H4_6 C4_6 1_555 1_555
C5_8 N1_8 1_555 1_555
C4_6 C5_8 1_555 1_555
C5_8 C6_8 1_555 1_555
Co1_9 N1_9 1_555 1_555
N1_9 C1_9 1_555 1_555
N4_7 C6_9 1_555 1_555
C1_9 H1_9 1_555 1_555
C2_9 C1_9 1_555 1_555
H2_7 C2_9 1_555 1_555
C3_7 C2_9 1_555 1_555
H3_7 C3_7 1_555 1_555
C4_7 C3_7 1_555 1_555
H4_7 C4_7 1_555 1_555
C5_9 N1_9 1_555 1_555
C4_7 C5_9 1_555 1_555
C5_9 C6_9 1_555 1_555
N6_9 Co1_10 1_555 1_555
N9_7 C18_9 1_555 1_555
C13_9 N6_9 1_555 1_555
H9_9 C13_9 1_555 1_555
C14_9 C13_9 1_555 1_555
H10_7 C14_9 1_555 1_555
C15_7 C14_9 1_555 1_555
H11_7 C15_7 1_555 1_555
C16_7 C15_7 1_555 1_555
H12_7 C16_7 1_555 1_555
C17_9 N6_9 1_555 1_555
C16_7 C17_9 1_555 1_555
C17_9 C18_9 1_555 1_555
H3_8 C3_8 1_555 1_555
C4_8 C3_8 1_555 1_555
H4_8 C4_8 1_555 1_555
C8_8 C7_8 1_555 1_555
C9_8 C8_8 1_555 1_555
H5_8 C9_8 1_555 1_555
N4_8 C7_8 1_555 1_555
H3_9 C3_9 1_555 1_555
C4_9 C3_9 1_555 1_555
H4_9 C4_9 1_555 1_555
C8_9 C7_9 1_555 1_555
C9_9 C8_9 1_555 1_555
H5_9 C9_9 1_555 1_555
N4_9 C7_9 1_555 1_555
H11_8 C15_8 1_555 1_555
C16_8 C15_8 1_555 1_555
H12_8 C16_8 1_555 1_555
C20_8 C19_8 1_555 1_555
C21_8 C20_8 1_555 1_555
H13_8 C21_8 1_555 1_555
N9_8 C19_8 1_555 1_555
H11_9 C15_9 1_555 1_555
C16_9 C15_9 1_555 1_555
H12_9 C16_9 1_555 1_555
C20_9 C19_9 1_555 1_555
C21_9 C20_9 1_555 1_555
H13_9 C21_9 1_555 1_555
N9_9 C19_9 1_555 1_555

#END
