
###############################################################################
#
# This file contains modified crystal structure data generated from the
# MOF subset of the Cambridge Structural Database (CSD) v543 
# hosted by the Cambridge Crystallographic Data Centre (CCDC).
#
# This work is licensed under the Creative Commons
# Attribution-NonCommercial-ShareAlike 4.0 International License.
# To view a copy of this license, visit
# http://creativecommons.org/licenses/by-nc-sa/4.0/
# or send a letter to
# Creative Commons, PO Box 1866, Mountain View, CA 94042, USA.
#
# CIF created using the CSD Python API on 29 September 2022
# The structure has been converted into the P1 space group
# The structure has a 3D framework
# The original CSD entry BUSNAF is in the rhombohedral crystal system
# The framework has been calculated to contain at least 10.0% void space
# The void calculation uses a probe of radius 1.32A, grid spacing 0.4
#
###############################################################################

data_BUSNAF
_chemical_formula_moiety         '(C240 H180 Co16 N90)n'
_symmetry_cell_setting           triclinic
_symmetry_space_group_name_H-M   'P 1'
_symmetry_Int_Tables_number      1
_space_group_name_Hall           'P 1'
loop_
_symmetry_equiv_pos_site_id
_symmetry_equiv_pos_as_xyz
1 x,y,z
_cell_length_a                   27.070(9)
_cell_length_b                   27.070(9)
_cell_length_c                   10.126(7)
_cell_angle_alpha                90
_cell_angle_beta                 90
_cell_angle_gamma                120
_cell_volume                     6426.06
loop_
_atom_site_label
_atom_site_type_symbol
_atom_site_fract_x
_atom_site_fract_y
_atom_site_fract_z
Co3 Co 0.1666 0.3333 0.3333
N9 N 0.3499(2) 0.2345(2) 0.0415(4)
N10 N 0.2087(2) 0.2885(2) 0.2457(4)
H13 H 0.5168 0.1984 0.0183
C17 C 0.4491(3) 0.2087(3) 0.0000(6)
C20 C 0.3003(3) 0.2316(2) 0.0068(5)
C21 C 0.2684(3) 0.2498(2) 0.0924(5)
C22 C 0.2125(3) 0.2340(3) 0.0658(6)
C23 C 0.1846(3) 0.2535(3) 0.1421(6)
H15 H 0.1469 0.2422 0.1215
C24 C 0.2617(3) 0.3018(3) 0.2737(6)
H16 H 0.2790 0.3249 0.3468
C25 C 0.2930(3) 0.2838(3) 0.2019(6)
H17 H 0.3301 0.2944 0.2267
C26 C 0.4522(3) 0.2329(3) 0.1368(6)
H18 H 0.4218 0.2412 0.1471
H19 H 0.4484 0.2054 0.2020
H20 H 0.4882 0.2672 0.1478
Co2 Co 0.5001 1.0000 1.0000
Co2_2 Co -0.0000 0.5000 1.0000
Co3_2 Co 0.6667 0.8333 0.3333
N10_2 N 0.7115(2) 0.9201(3) 0.2457(4)
C22_2 C 0.7660(3) 0.9784(4) 0.0658(6)
C23_2 C 0.7465(3) 0.9310(4) 0.1421(6)
H15_2 H 0.7578 0.9046 0.1215
C24_2 C 0.6982(3) 0.9598(4) 0.2737(6)
H16_2 H 0.6751 0.9540 0.3468
Co3_3 Co 0.1667 0.8334 0.3333
N10_3 N 0.0799(3) 0.7913(2) 0.2457(4)
C22_3 C 0.0216(4) 0.7875(3) 0.0658(6)
C23_3 C 0.0690(4) 0.8154(3) 0.1421(6)
H15_3 H 0.0954 0.8531 0.1215
C24_3 C 0.0402(4) 0.7383(3) 0.2737(6)
H16_3 H 0.0460 0.7210 0.3468
H6 H 0.6207 0.6123 0.9865
Co2_3 Co 0.5000 0.4999 1.0000
N2 N 0.0122(2) 0.46731(18) 0.8298(4)
N3 N 0.0525(2) 0.45584(19) 0.7808(4)
N5 N 0.1247(2) 0.3781(2) 0.4209(4)
C7 C 0.0331(3) 0.4350(2) 0.6598(5)
C8 C 0.0650(3) 0.4168(2) 0.5742(5)
C9 C 0.1209(3) 0.4326(3) 0.6008(6)
H4 H 0.1397 0.4568 0.6714
C10 C 0.1488(3) 0.4131(3) 0.5245(6)
H5 H 0.1865 0.4244 0.5451
C11 C 0.0717(3) 0.3648(3) 0.3929(6)
H6_2 H 0.0544 0.3417 0.3198
C12 C 0.0404(3) 0.3828(3) 0.4647(6)
H7 H 0.0033 0.3722 0.4399
N12 N 0.0448(2) 0.5868(3) 0.9124(4)
H11 H 0.1101 0.4865 0.9984
N1 N 0.5139(2) 0.4416(3) 0.8814(4)
N2_2 N 0.53269(18) 0.54485(27) 0.8298(4)
N3_2 N 0.54416(19) 0.59662(28) 0.7808(4)
N4 N 0.5679(2) 0.5513(3) 0.6251(4)
N5_2 N 0.6219(2) 0.7465(3) 0.4209(4)
C1 C 0.4999(3) 0.3888(4) 0.9165(6)
C2 C 0.5048(4) 0.3525(5) 0.8307(7)
H2 H 0.4935 0.3153 0.8555
C3 C 0.5270(4) 0.3723(6) 0.7062(7)
H3 H 0.5318 0.3483 0.6483
C4 C 0.5421(3) 0.4263(4) 0.6666(6)
C5 C 0.5348(2) 0.4607(3) 0.7584(5)
C6 C 0.5463(2) 0.5190(4) 0.7349(5)
C7_2 C 0.5650(2) 0.5980(4) 0.6598(5)
C8_2 C 0.5832(2) 0.6481(4) 0.5742(5)
C9_2 C 0.5674(3) 0.6882(4) 0.6008(6)
H4_2 H 0.5432 0.6828 0.6714
C10_2 C 0.5869(3) 0.7356(4) 0.5245(6)
H5_2 H 0.5756 0.7620 0.5451
C11_2 C 0.6352(3) 0.7068(4) 0.3929(6)
H6_3 H 0.6583 0.7126 0.3198
C12_2 C 0.6172(3) 0.6575(4) 0.4647(6)
H7_2 H 0.6278 0.6310 0.4399
C13 C 0.5663(3) 0.4474(4) 0.5298(6)
H8 H 0.5746 0.4861 0.5195
H9 H 0.5388 0.4237 0.4646
H10 H 0.6006 0.4457 0.5188
N12_2 N 0.4132(3) 0.4580(4) 0.9124(4)
H11_2 H 0.5135 0.6237 0.9984
N2_3 N 0.45515(27) 0.9878(2) 0.8298(4)
N3_3 N 0.40338(28) 0.9475(2) 0.7808(4)
N5_3 N 0.2535(3) 0.8753(2) 0.4209(4)
C7_3 C 0.4020(4) 0.9669(3) 0.6598(5)
C8_3 C 0.3519(4) 0.9350(3) 0.5742(5)
C9_3 C 0.3118(4) 0.8791(3) 0.6008(6)
H4_3 H 0.3172 0.8603 0.6714
C10_3 C 0.2644(4) 0.8512(3) 0.5245(6)
H5_3 H 0.2380 0.8135 0.5451
C11_3 C 0.2932(4) 0.9283(3) 0.3929(6)
H6_4 H 0.2874 0.9456 0.3198
C12_3 C 0.3425(4) 0.9596(3) 0.4647(6)
H7_3 H 0.3690 0.9967 0.4399
N12_3 N 0.5420(4) 0.9552(2) 0.9124(4)
H11_3 H 0.3763 0.8899 0.9984
N1_2 N 0.5944(2) 0.8195(2) 0.2148(4)
N2_4 N 0.6788(2) 0.80065(18) 0.1632(4)
N3_4 N 0.7191(2) 0.78918(19) 0.1142(4)
C1_2 C 0.5556(3) 0.8335(3) 0.2499(6)
H1 H 0.5565 0.8469 0.3350
C2_2 C 0.5144(3) 0.8286(4) 0.1641(7)
H2_2 H 0.4885 0.8399 0.1889
C3_2 C 0.5120(4) 0.8064(4) 0.0396(7)
C4_2 C 0.5509(3) 0.7913(3) -0.0000(6)
C5_2 C 0.5926(2) 0.7986(2) 0.0918(5)
C6_2 C 0.6394(3) 0.7871(2) 0.0683(5)
H4_4 H 0.8063 0.7902 0.0048
N6 N 0.7389(2) 0.8472(2) 0.4519(4)
N7 N 0.6545(2) 0.86602(18) 0.5035(4)
N8 N 0.6142(2) 0.87749(19) 0.5525(4)
N9_2 N 0.6832(2) 0.9012(2) 0.7082(4)
C14 C 0.7777(3) 0.8332(3) 0.4168(6)
H11_4 H 0.7768 0.8198 0.3317
C15 C 0.8189(3) 0.8381(4) 0.5026(7)
H12 H 0.8448 0.8268 0.4778
C16 C 0.8213(4) 0.8603(4) 0.6271(7)
H13_2 H 0.8501 0.8651 0.6850
C17_2 C 0.7824(3) 0.8754(3) 0.6667(6)
C18 C 0.7407(2) 0.8681(2) 0.5749(5)
C19 C 0.6939(3) 0.8796(2) 0.5984(5)
C20_2 C 0.6336(3) 0.8983(2) 0.6735(5)
C21_2 C 0.6017(3) 0.9165(2) 0.7591(5)
C22_4 C 0.5458(3) 0.9007(3) 0.7325(6)
H14 H 0.5270 0.8765 0.6619
C23_4 C 0.5179(3) 0.9202(3) 0.8088(6)
H15_4 H 0.4802 0.9089 0.7882
C24_4 C 0.5950(3) 0.9685(3) 0.9404(6)
C25_2 C 0.6263(3) 0.9505(3) 0.8686(6)
H17_2 H 0.6634 0.9611 0.8934
C26_2 C 0.7855(3) 0.8996(3) 0.8035(6)
H18_2 H 0.7551 0.9079 0.8138
H19_2 H 0.7817 0.8721 0.8687
H20_2 H 0.8215 0.9339 0.8145
N1_3 N 0.1805(2) 0.7750(3) 0.2148(4)
N2_5 N 0.19935(18) 0.87819(27) 0.1632(4)
N3_5 N 0.21082(19) 0.92996(28) 0.1142(4)
C1_3 C 0.1665(3) 0.7222(4) 0.2499(6)
H1_2 H 0.1531 0.7097 0.3350
C2_3 C 0.1714(4) 0.6859(5) 0.1641(7)
H2_3 H 0.1601 0.6487 0.1889
C3_3 C 0.1936(4) 0.7057(6) 0.0396(7)
C4_3 C 0.2087(3) 0.7597(4) -0.0000(6)
C5_3 C 0.2014(2) 0.7941(3) 0.0918(5)
C6_3 C 0.2129(2) 0.8524(4) 0.0683(5)
N6_2 N 0.1528(2) 0.8917(3) 0.4519(4)
N7_2 N 0.13398(18) 0.78848(27) 0.5035(4)
N8_2 N 0.12251(19) 0.73671(28) 0.5525(4)
N9_3 N 0.0988(2) 0.7820(3) 0.7082(4)
C14_2 C 0.1668(3) 0.9445(4) 0.4168(6)
H11_5 H 0.1802 0.9570 0.3317
C15_2 C 0.1619(4) 0.9808(5) 0.5026(7)
C16_2 C 0.1397(4) 0.9610(6) 0.6271(7)
H13_3 H 0.1349 0.9850 0.6850
C17_3 C 0.1246(3) 0.9070(4) 0.6667(6)
C18_2 C 0.1319(2) 0.8726(3) 0.5749(5)
C19_2 C 0.1204(2) 0.8143(4) 0.5984(5)
C20_3 C 0.1017(2) 0.7353(4) 0.6735(5)
C21_3 C 0.0835(2) 0.6852(4) 0.7591(5)
C22_5 C 0.0993(3) 0.6451(4) 0.7325(6)
H14_2 H 0.1235 0.6505 0.6619
C23_5 C 0.0798(3) 0.5977(4) 0.8088(6)
H15_5 H 0.0911 0.5713 0.7882
C24_5 C 0.0315(3) 0.6265(4) 0.9404(6)
C25_3 C 0.0495(3) 0.6758(4) 0.8686(6)
H17_3 H 0.0389 0.7023 0.8934
C26_3 C 0.1004(3) 0.8859(4) 0.8035(6)
H18_3 H 0.0921 0.8472 0.8138
H19_3 H 0.1279 0.9096 0.8687
H20_3 H 0.0661 0.8876 0.8145
N1_4 N 0.2250(3) 0.4056(2) 0.2148(4)
N2_6 N 0.12181(27) 0.3212(2) 0.1632(4)
N3_6 N 0.07004(28) 0.2809(2) 0.1142(4)
C1_4 C 0.2778(4) 0.4444(3) 0.2499(6)
H1_3 H 0.2903 0.4435 0.3350
C2_4 C 0.3141(5) 0.4856(3) 0.1641(7)
H2_4 H 0.3513 0.5115 0.1889
C3_4 C 0.2943(6) 0.4880(4) 0.0396(7)
C4_4 C 0.2403(4) 0.4491(3) -0.0000(6)
C5_4 C 0.2059(3) 0.4074(2) 0.0918(5)
C6_4 C 0.1476(4) 0.3606(3) 0.0683(5)
N6_3 N 0.1083(3) 0.2611(2) 0.4519(4)
N7_3 N 0.21152(27) 0.3455(2) 0.5035(4)
N8_3 N 0.26329(28) 0.3858(2) 0.5525(4)
N9_4 N 0.2180(3) 0.3168(2) 0.7082(4)
C14_3 C 0.0555(4) 0.2223(3) 0.4168(6)
H11_6 H 0.0430 0.2232 0.3317
C15_3 C 0.0192(5) 0.1811(3) 0.5026(7)
C16_3 C 0.0390(6) 0.1787(4) 0.6271(7)
H13_4 H 0.0150 0.1499 0.6850
C17_4 C 0.0930(4) 0.2176(3) 0.6667(6)
C18_3 C 0.1274(3) 0.2593(2) 0.5749(5)
C19_3 C 0.1857(4) 0.3061(3) 0.5984(5)
C20_4 C 0.2647(4) 0.3664(3) 0.6735(5)
C21_4 C 0.3148(4) 0.3983(3) 0.7591(5)
C22_6 C 0.3549(4) 0.4542(3) 0.7325(6)
H14_3 H 0.3495 0.4730 0.6619
C23_6 C 0.4023(4) 0.4821(3) 0.8088(6)
H15_6 H 0.4287 0.5198 0.7882
C24_6 C 0.3735(4) 0.4050(3) 0.9404(6)
C25_4 C 0.3242(4) 0.3737(3) 0.8686(6)
H17_4 H 0.2977 0.3366 0.8934
C26_4 C 0.1141(4) 0.2145(3) 0.8035(6)
H18_4 H 0.1528 0.2449 0.8138
H19_4 H 0.0904 0.2183 0.8687
H20_4 H 0.1124 0.1785 0.8145
Co1 Co 0.3333 0.1667 0.6667
N1_5 N 0.2611(2) 0.1528(2) 0.5481(4)
N2_7 N 0.3455(2) 0.13398(18) 0.4965(4)
N3_7 N 0.3858(2) 0.12251(19) 0.4475(4)
N4_2 N 0.3168(2) 0.0988(2) 0.2918(4)
N5_4 N 0.4580(2) 0.0448(2) 0.0876(4)
C1_5 C 0.2223(3) 0.1668(3) 0.5832(6)
H1_4 H 0.2232 0.1802 0.6683
C2_5 C 0.1811(3) 0.1619(4) 0.4974(7)
H2_5 H 0.1552 0.1732 0.5222
C3_5 C 0.1787(4) 0.1397(4) 0.3729(7)
H3_2 H 0.1499 0.1349 0.3150
C4_5 C 0.2176(3) 0.1246(3) 0.3333(6)
C5_5 C 0.2593(2) 0.1319(2) 0.4251(5)
C6_5 C 0.3061(3) 0.1204(2) 0.4016(5)
C7_4 C 0.3664(3) 0.1017(2) 0.3265(5)
C8_4 C 0.3983(3) 0.0835(2) 0.2409(5)
C9_4 C 0.4542(3) 0.0993(3) 0.2675(6)
H4_5 H 0.4730 0.1235 0.3381
C10_4 C 0.4821(3) 0.0798(3) 0.1912(6)
H5_4 H 0.5198 0.0911 0.2118
C11_4 C 0.4050(3) 0.0315(3) 0.0596(6)
C12_4 C 0.3737(3) 0.0495(3) 0.1314(6)
H7_4 H 0.3366 0.0389 0.1066
C13_2 C 0.2145(3) 0.1004(3) 0.1965(6)
H8_2 H 0.2449 0.0921 0.1862
H9_2 H 0.2183 0.1279 0.1313
H10_2 H 0.1785 0.0661 0.1855
Co2_4 Co 0.5001 0.0000 0.0000
N6_4 N 0.4056(2) 0.1805(2) 0.7852(4)
N7_4 N 0.3212(2) 0.19935(18) 0.8368(4)
N8_4 N 0.2809(2) 0.21082(19) 0.8858(4)
N11 N 0.2885(2) 0.0799(3) 0.7543(4)
N12_4 N 0.3781(2) 0.2535(3) 0.5791(4)
C14_4 C 0.4444(3) 0.1665(3) 0.7501(6)
H11_7 H 0.4435 0.1531 0.6650
C15_4 C 0.4856(3) 0.1714(4) 0.8359(7)
H12_2 H 0.5115 0.1601 0.8111
C16_4 C 0.4880(4) 0.1936(4) 0.9604(7)
C17_5 C 0.4491(3) 0.2087(3) 1.0000(6)
C18_4 C 0.4074(2) 0.2014(2) 0.9082(5)
C19_4 C 0.3606(3) 0.2129(2) 0.9317(5)
H14_4 H 0.1937 0.2098 0.9952
Co1_2 Co 0.8333 0.1666 0.6667
N1_6 N 0.8472(2) 0.1083(3) 0.5481(4)
N2_8 N 0.86602(18) 0.21152(27) 0.4965(4)
N3_8 N 0.87749(19) 0.26329(28) 0.4475(4)
N4_3 N 0.9012(2) 0.2180(3) 0.2918(4)
N5_5 N 0.9552(2) 0.4132(3) 0.0876(4)
C1_6 C 0.8332(3) 0.0555(4) 0.5832(6)
H1_5 H 0.8198 0.0430 0.6683
C2_6 C 0.8381(4) 0.0192(5) 0.4974(7)
C3_6 C 0.8603(4) 0.0390(6) 0.3729(7)
H3_3 H 0.8651 0.0150 0.3150
C4_6 C 0.8754(3) 0.0930(4) 0.3333(6)
C5_6 C 0.8681(2) 0.1274(3) 0.4251(5)
C6_6 C 0.8796(2) 0.1857(4) 0.4016(5)
C7_5 C 0.8983(2) 0.2647(4) 0.3265(5)
C8_5 C 0.9165(2) 0.3148(4) 0.2409(5)
C9_5 C 0.9007(3) 0.3549(4) 0.2675(6)
H4_6 H 0.8765 0.3495 0.3381
C10_5 C 0.9202(3) 0.4023(4) 0.1912(6)
H5_5 H 0.9089 0.4287 0.2118
C11_5 C 0.9685(3) 0.3735(4) 0.0596(6)
C12_5 C 0.9505(3) 0.3242(4) 0.1314(6)
H7_5 H 0.9611 0.2977 0.1066
C13_3 C 0.8996(3) 0.1141(4) 0.1965(6)
H8_3 H 0.9079 0.1528 0.1862
H9_3 H 0.8721 0.0904 0.1313
H10_3 H 0.9339 0.1124 0.1855
Co2_5 Co 1.0000 0.5000 0.0000
N6_5 N 0.8195(2) 0.2250(3) 0.7852(4)
N7_5 N 0.80065(18) 0.12181(27) 0.8368(4)
N8_5 N 0.78918(19) 0.07004(28) 0.8858(4)
N11_2 N 0.9201(3) 0.2087(4) 0.7543(4)
N12_5 N 0.7465(3) 0.1247(4) 0.5791(4)
C14_5 C 0.8335(3) 0.2778(4) 0.7501(6)
H11_8 H 0.8469 0.2903 0.6650
C15_5 C 0.8286(4) 0.3141(5) 0.8359(7)
H12_3 H 0.8399 0.3513 0.8111
C16_5 C 0.8064(4) 0.2943(6) 0.9604(7)
C17_6 C 0.7913(3) 0.2403(4) 1.0000(6)
C18_5 C 0.7986(2) 0.2059(3) 0.9082(5)
C19_5 C 0.7871(2) 0.1476(4) 0.9317(5)
Co1_3 Co 0.8334 0.6667 0.6667
N1_7 N 0.8917(3) 0.7389(2) 0.5481(4)
N2_9 N 0.78848(27) 0.6545(2) 0.4965(4)
N3_9 N 0.73671(28) 0.6142(2) 0.4475(4)
N4_4 N 0.7820(3) 0.6832(2) 0.2918(4)
N5_6 N 0.5868(3) 0.5420(2) 0.0876(4)
C1_7 C 0.9445(4) 0.7777(3) 0.5832(6)
H1_6 H 0.9570 0.7768 0.6683
C2_7 C 0.9808(5) 0.8189(3) 0.4974(7)
C3_7 C 0.9610(6) 0.8213(4) 0.3729(7)
H3_4 H 0.9850 0.8501 0.3150
C4_7 C 0.9070(4) 0.7824(3) 0.3333(6)
C5_7 C 0.8726(3) 0.7407(2) 0.4251(5)
C6_7 C 0.8143(4) 0.6939(3) 0.4016(5)
C7_6 C 0.7353(4) 0.6336(3) 0.3265(5)
C8_6 C 0.6852(4) 0.6017(3) 0.2409(5)
C9_6 C 0.6451(4) 0.5458(3) 0.2675(6)
H4_7 H 0.6505 0.5270 0.3381
C10_6 C 0.5977(4) 0.5179(3) 0.1912(6)
H5_6 H 0.5713 0.4802 0.2118
C11_6 C 0.6265(4) 0.5950(3) 0.0596(6)
C12_6 C 0.6758(4) 0.6263(3) 0.1314(6)
H7_6 H 0.7023 0.6634 0.1066
C13_4 C 0.8859(4) 0.7855(3) 0.1965(6)
H8_4 H 0.8472 0.7551 0.1862
H9_4 H 0.9096 0.7817 0.1313
H10_4 H 0.8876 0.8215 0.1855
Co2_6 Co 0.5000 0.4999 0.0000
N6_6 N 0.7750(3) 0.5944(2) 0.7852(4)
N7_6 N 0.87819(27) 0.6788(2) 0.8368(4)
N8_6 N 0.92996(28) 0.7191(2) 0.8858(4)
N11_3 N 0.7913(4) 0.7115(2) 0.7543(4)
N12_6 N 0.8753(4) 0.6219(2) 0.5791(4)
C14_6 C 0.7222(4) 0.5556(3) 0.7501(6)
H11_9 H 0.7097 0.5565 0.6650
C15_6 C 0.6859(5) 0.5144(3) 0.8359(7)
H12_4 H 0.6487 0.4885 0.8111
C16_6 C 0.7057(6) 0.5120(4) 0.9604(7)
C17_7 C 0.7597(4) 0.5509(3) 1.0000(6)
C18_6 C 0.7941(3) 0.5926(2) 0.9082(5)
C19_6 C 0.8524(4) 0.6394(3) 0.9317(5)
H1_7 H 0.8899 0.5135 0.0016
N7_7 N 0.9878(2) 0.53269(18) 0.1702(4)
N8_7 N 0.9475(2) 0.54416(19) 0.2192(4)
C20_5 C 0.9669(3) 0.5650(2) 0.3402(5)
C21_5 C 0.9350(3) 0.5832(2) 0.4258(5)
C22_7 C 0.8791(3) 0.5674(3) 0.3992(6)
H14_5 H 0.8603 0.5432 0.3286
C23_7 C 0.8512(3) 0.5869(3) 0.4755(6)
H15_7 H 0.8135 0.5756 0.4549
C24_7 C 0.9283(3) 0.6352(3) 0.6071(6)
H16_4 H 0.9456 0.6583 0.6802
C25_5 C 0.9596(3) 0.6172(3) 0.5353(6)
H17_5 H 0.9967 0.6278 0.5601
H1_8 H 0.4865 0.3763 0.0016
N6_7 N 0.4861(2) 0.5584(3) 0.1186(4)
N7_8 N 0.46731(18) 0.45515(27) 0.1702(4)
N8_8 N 0.45584(19) 0.40338(28) 0.2192(4)
N9_5 N 0.4321(2) 0.4487(3) 0.3749(4)
C14_7 C 0.5001(3) 0.6112(4) 0.0835(6)
C15_7 C 0.4952(4) 0.6475(5) 0.1693(7)
H12_5 H 0.5065 0.6847 0.1445
C16_7 C 0.4730(4) 0.6277(6) 0.2938(7)
H13_5 H 0.4682 0.6517 0.3517
C17_8 C 0.4579(3) 0.5737(4) 0.3334(6)
C18_7 C 0.4652(2) 0.5393(3) 0.2416(5)
C19_7 C 0.4537(2) 0.4810(4) 0.2651(5)
C20_6 C 0.4350(2) 0.4020(4) 0.3402(5)
C21_6 C 0.4168(2) 0.3519(4) 0.4258(5)
C22_8 C 0.4326(3) 0.3118(4) 0.3992(6)
H14_6 H 0.4568 0.3172 0.3286
C23_8 C 0.4131(3) 0.2644(4) 0.4755(6)
H15_8 H 0.4244 0.2380 0.4549
C24_8 C 0.3648(3) 0.2932(4) 0.6071(6)
H16_5 H 0.3417 0.2874 0.6802
C25_6 C 0.3828(3) 0.3425(4) 0.5353(6)
H17_6 H 0.3722 0.3690 0.5601
C26_5 C 0.4337(3) 0.5526(4) 0.4702(6)
H18_5 H 0.4254 0.5139 0.4805
H19_5 H 0.4612 0.5763 0.5354
H20_5 H 0.3994 0.5543 0.4812
H1_9 H 0.6237 0.1101 0.0016
N7_9 N 0.54485(27) 0.0122(2) 0.1702(4)
N8_9 N 0.59662(28) 0.0525(2) 0.2192(4)
C20_7 C 0.5980(4) 0.0331(3) 0.3402(5)
C21_7 C 0.6481(4) 0.0650(3) 0.4258(5)
C22_9 C 0.6882(4) 0.1209(3) 0.3992(6)
H14_7 H 0.6828 0.1397 0.3286
C23_9 C 0.7356(4) 0.1488(3) 0.4755(6)
H15_9 H 0.7620 0.1865 0.4549
C24_9 C 0.7068(4) 0.0717(3) 0.6071(6)
H16_6 H 0.7126 0.0544 0.6802
C25_7 C 0.6575(4) 0.0404(3) 0.5353(6)
H17_7 H 0.6310 0.0033 0.5601
N4_5 N 0.6501(2) 0.7655(2) 0.9585(4)
H3_5 H 0.4832 0.8016 0.9817
C4_8 C 0.5509(3) 0.7913(3) 1.0000(6)
C7_7 C 0.6997(3) 0.7684(2) 0.9932(5)
C8_7 C 0.7316(3) 0.7502(2) 0.9076(5)
C9_7 C 0.7875(3) 0.7660(3) 0.9342(6)
C10_7 C 0.8154(3) 0.7465(3) 0.8579(6)
H5_7 H 0.8531 0.7578 0.8785
C11_7 C 0.7383(3) 0.6982(3) 0.7263(6)
H6_5 H 0.7210 0.6751 0.6532
C12_7 C 0.7070(3) 0.7162(3) 0.7981(6)
H7_7 H 0.6699 0.7056 0.7733
C13_5 C 0.5478(3) 0.7671(3) 0.8632(6)
H8_5 H 0.5782 0.7588 0.8529
H9_5 H 0.5516 0.7946 0.7980
H10_5 H 0.5118 0.7328 0.8522
C9_8 C 0.2340(3) 0.0216(4) 0.9342(6)
C10_8 C 0.2535(3) 0.0690(4) 0.8579(6)
H5_8 H 0.2422 0.0954 0.8785
C11_8 C 0.3018(3) 0.0402(4) 0.7263(6)
H6_6 H 0.3249 0.0460 0.6532
H16_7 H 0.3793 0.3877 0.0135
C9_9 C 0.9784(4) 0.2125(3) 0.9342(6)
C10_9 C 0.9310(4) 0.1846(3) 0.8579(6)
H5_9 H 0.9046 0.1469 0.8785
C11_9 C 0.9598(4) 0.2617(3) 0.7263(6)
H6_7 H 0.9540 0.2790 0.6532
H6_8 H 0.3877 0.0084 0.9865
Co2_7 Co 0.5001 0.0000 1.0000
N1_8 N 0.5584(3) 0.0722(2) 0.8814(4)
N4_6 N 0.4487(3) 0.0165(2) 0.6251(4)
C1_8 C 0.6112(4) 0.1110(3) 0.9165(6)
C2_8 C 0.6475(5) 0.1522(3) 0.8307(7)
H2_6 H 0.6847 0.1781 0.8555
C3_8 C 0.6277(6) 0.1546(4) 0.7062(7)
H3_6 H 0.6517 0.1834 0.6483
C4_9 C 0.5737(4) 0.1157(3) 0.6666(6)
C5_8 C 0.5393(3) 0.0740(2) 0.7584(5)
C6_8 C 0.4810(4) 0.0272(3) 0.7349(5)
C13_6 C 0.5526(4) 0.1188(3) 0.5298(6)
H8_6 H 0.5139 0.0884 0.5195
H9_6 H 0.5763 0.1150 0.4646
H10_6 H 0.5543 0.1548 0.5188
Co2_8 Co 0.5001 1.0000 0.0000
N6_8 N 0.4416(3) 0.9278(2) 0.1186(4)
N9_6 N 0.5513(3) 0.9835(2) 0.3749(4)
C14_8 C 0.3888(4) 0.8890(3) 0.0835(6)
C15_8 C 0.3525(5) 0.8478(3) 0.1693(7)
H12_6 H 0.3153 0.8219 0.1445
C16_8 C 0.3723(6) 0.8454(4) 0.2938(7)
H13_6 H 0.3483 0.8166 0.3517
C17_9 C 0.4263(4) 0.8843(3) 0.3334(6)
C18_8 C 0.4607(3) 0.9260(2) 0.2416(5)
C19_8 C 0.5190(4) 0.9728(3) 0.2651(5)
C26_6 C 0.4474(4) 0.8812(3) 0.4702(6)
H18_6 H 0.4861 0.9116 0.4805
H19_6 H 0.4237 0.8850 0.5354
H20_6 H 0.4457 0.8452 0.4812
H16_8 H 0.6123 0.9916 0.0135
Co2_9 Co -0.0000 0.5000 0.0000
N6_9 N 0.0722(2) 0.5139(2) 0.1186(4)
N9_7 N 0.0165(2) 0.5679(2) 0.3749(4)
C14_9 C 0.1110(3) 0.4999(3) 0.0835(6)
C15_9 C 0.1522(3) 0.5048(4) 0.1693(7)
H12_7 H 0.1781 0.4935 0.1445
C16_9 C 0.1546(4) 0.5270(4) 0.2938(7)
H13_7 H 0.1834 0.5318 0.3517
C17_10 C 0.1157(3) 0.5421(3) 0.3334(6)
C18_9 C 0.0740(2) 0.5348(2) 0.2416(5)
C19_9 C 0.0272(3) 0.5463(2) 0.2651(5)
C26_7 C 0.1188(3) 0.5663(3) 0.4702(6)
H18_7 H 0.0884 0.5746 0.4805
H19_7 H 0.1150 0.5388 0.5354
H20_7 H 0.1548 0.6006 0.4812
H16_9 H 0.0084 0.6207 0.0135
N9_8 N 0.7655(2) 0.1153(3) 0.0415(4)
H13_8 H 0.8016 0.3183 0.0183
C17_11 C 0.7913(3) 0.2403(4) 0.0000(6)
C20_8 C 0.7684(2) 0.0686(4) 0.0068(5)
C21_8 C 0.7502(2) 0.0185(4) 0.0924(5)
C25_8 C 0.7162(3) 0.0091(4) 0.2019(6)
H17_8 H 0.7056 0.0356 0.2267
C26_8 C 0.7671(3) 0.2192(4) 0.1368(6)
H18_8 H 0.7588 0.1805 0.1471
H19_8 H 0.7946 0.2429 0.2020
H20_8 H 0.7328 0.2209 0.1478
H6_9 H 0.9916 0.3793 0.9865
Co2_10 Co 1.0000 0.5000 1.0000
N1_9 N 0.9278(2) 0.4861(2) 0.8814(4)
N4_7 N 0.9835(2) 0.4321(2) 0.6251(4)
C1_9 C 0.8890(3) 0.5001(3) 0.9165(6)
C2_9 C 0.8478(3) 0.4952(4) 0.8307(7)
H2_7 H 0.8219 0.5065 0.8555
C3_9 C 0.8454(4) 0.4730(4) 0.7062(7)
H3_7 H 0.8166 0.4682 0.6483
C4_10 C 0.8843(3) 0.4579(3) 0.6666(6)
C5_9 C 0.9260(2) 0.4652(2) 0.7584(5)
C6_9 C 0.9728(3) 0.4537(2) 0.7349(5)
C13_7 C 0.8812(3) 0.4337(3) 0.5298(6)
H8_7 H 0.9116 0.4254 0.5195
H9_7 H 0.8850 0.4612 0.4646
H10_7 H 0.8452 0.3994 0.5188
H2_8 H 0.8268 0.9820 0.5222
H14_8 H 0.7902 0.9838 0.9952
H2_9 H 0.0180 0.8448 0.5222
H14_9 H 0.0162 0.8063 0.9952
N9_9 N 0.8847(3) 0.6501(2) 0.0415(4)
H13_9 H 0.6817 0.4832 0.0183
C17_12 C 0.7597(4) 0.5509(3) 0.0000(6)
C20_9 C 0.9314(4) 0.6997(3) 0.0068(5)
C21_9 C 0.9815(4) 0.7316(3) 0.0924(5)
C25_9 C 0.9909(4) 0.7070(3) 0.2019(6)
H17_9 H 0.9644 0.6699 0.2267
C26_9 C 0.7808(4) 0.5478(3) 0.1368(6)
H18_9 H 0.8195 0.5782 0.1471
H19_9 H 0.7571 0.5516 0.2020
H20_9 H 0.7791 0.5118 0.1478
H4_8 H 0.2098 0.0162 0.0048
H12_8 H 0.1732 0.0180 0.4778
N4_8 N 0.2345(2) 0.8847(3) 0.9585(4)
H3_8 H 0.1984 0.6817 0.9817
C4_11 C 0.2087(3) 0.7597(4) 1.0000(6)
C7_8 C 0.2316(2) 0.9314(4) 0.9932(5)
C8_8 C 0.2498(2) 0.9815(4) 0.9076(5)
C12_8 C 0.2838(3) 0.9909(4) 0.7981(6)
H7_8 H 0.2944 0.9644 0.7733
C13_8 C 0.2329(3) 0.7808(4) 0.8632(6)
H8_8 H 0.2412 0.8195 0.8529
H9_8 H 0.2054 0.7571 0.7980
H10_8 H 0.2672 0.7791 0.8522
N4_9 N 0.1153(3) 0.3499(2) 0.9585(4)
H3_9 H 0.3183 0.5168 0.9817
C4_12 C 0.2403(4) 0.4491(3) 1.0000(6)
C7_9 C 0.0686(4) 0.3003(3) 0.9932(5)
C8_9 C 0.0185(4) 0.2684(3) 0.9076(5)
C12_9 C 0.0091(4) 0.2930(3) 0.7981(6)
H7_9 H 0.0356 0.3301 0.7733
C13_9 C 0.2192(4) 0.4522(3) 0.8632(6)
H8_9 H 0.1805 0.4218 0.8529
H9_9 H 0.2429 0.4484 0.7980
H10_9 H 0.2209 0.4882 0.8522
H4_9 H 0.9838 0.1937 0.0048
H12_9 H 0.9820 0.1552 0.4778
loop_
_geom_bond_atom_site_label_1
_geom_bond_atom_site_label_2
_geom_bond_site_symmetry_1
_geom_bond_site_symmetry_2
Co3 N10 1_555 1_555
N10 C23 1_555 1_555
C21 C20 1_555 1_555
C22 C21 1_555 1_555
C23 C22 1_555 1_555
H15 C23 1_555 1_555
C24 N10 1_555 1_555
H16 C24 1_555 1_555
C25 C21 1_555 1_555
H17 C25 1_555 1_555
C26 C17 1_555 1_555
H18 C26 1_555 1_555
H19 C26 1_555 1_555
H20 C26 1_555 1_555
N9 C20 1_555 1_555
C24 C25 1_555 1_555
Co3_2 N10_2 1_555 1_555
N10_2 C23_2 1_555 1_555
C23_2 C22_2 1_555 1_555
H15_2 C23_2 1_555 1_555
C24_2 N10_2 1_555 1_555
H16_2 C24_2 1_555 1_555
Co3_3 N10_3 1_555 1_555
N10_3 C23_3 1_555 1_555
C23_3 C22_3 1_555 1_555
H15_3 C23_3 1_555 1_555
C24_3 N10_3 1_555 1_555
H16_3 C24_3 1_555 1_555
N2 Co2_2 1_555 1_555
N3 N2 1_555 1_555
N5 C10 1_555 1_555
C7 N3 1_555 1_555
C8 C7 1_555 1_555
C9 C8 1_555 1_555
H4 C9 1_555 1_555
C10 C9 1_555 1_555
H5 C10 1_555 1_555
C11 N5 1_555 1_555
H6_2 C11 1_555 1_555
C12 C8 1_555 1_555
H7 C12 1_555 1_555
Co3 N5 1_555 1_555
N12 Co2_2 1_555 1_555
C11 C12 1_555 1_555
Co2_3 N1 1_555 1_555
N1 C1 1_555 1_555
N2_2 Co2_3 1_555 1_555
N3_2 N2_2 1_555 1_555
N4 C6 1_555 1_555
N5_2 C10_2 1_555 1_555
C2 C1 1_555 1_555
H2 C2 1_555 1_555
C3 C2 1_555 1_555
H3 C3 1_555 1_555
C4 C3 1_555 1_555
C5 N1 1_555 1_555
C6 N2_2 1_555 1_555
C7_2 N3_2 1_555 1_555
C8_2 C7_2 1_555 1_555
C9_2 C8_2 1_555 1_555
H4_2 C9_2 1_555 1_555
C10_2 C9_2 1_555 1_555
H5_2 C10_2 1_555 1_555
C11_2 N5_2 1_555 1_555
H6_3 C11_2 1_555 1_555
C12_2 C8_2 1_555 1_555
H7_2 C12_2 1_555 1_555
C13 C4 1_555 1_555
H8 C13 1_555 1_555
H9 C13 1_555 1_555
H10 C13 1_555 1_555
Co3_2 N5_2 1_555 1_555
N12_2 Co2_3 1_555 1_555
N4 C7_2 1_555 1_555
C4 C5 1_555 1_555
C5 C6 1_555 1_555
C11_2 C12_2 1_555 1_555
N2_3 Co2 1_555 1_555
N3_3 N2_3 1_555 1_555
N5_3 C10_3 1_555 1_555
C7_3 N3_3 1_555 1_555
C8_3 C7_3 1_555 1_555
C9_3 C8_3 1_555 1_555
H4_3 C9_3 1_555 1_555
C10_3 C9_3 1_555 1_555
H5_3 C10_3 1_555 1_555
C11_3 N5_3 1_555 1_555
H6_4 C11_3 1_555 1_555
C12_3 C8_3 1_555 1_555
H7_3 C12_3 1_555 1_555
Co3_3 N5_3 1_555 1_555
N12_3 Co2 1_555 1_555
C11_3 C12_3 1_555 1_555
Co3_2 N1_2 1_555 1_555
N1_2 C1_2 1_555 1_555
N2_4 Co3_2 1_555 1_555
N3_4 N2_4 1_555 1_555
C1_2 H1 1_555 1_555
C2_2 C1_2 1_555 1_555
H2_2 C2_2 1_555 1_555
C3_2 C2_2 1_555 1_555
C4_2 C3_2 1_555 1_555
C5_2 N1_2 1_555 1_555
C6_2 N2_4 1_555 1_555
N6 Co3_2 1_555 1_555
N7 Co3_2 1_555 1_555
N8 N7 1_555 1_555
N9_2 C19 1_555 1_555
N12_3 C23_4 1_555 1_555
C14 N6 1_555 1_555
H11_4 C14 1_555 1_555
C15 C14 1_555 1_555
H12 C15 1_555 1_555
C16 C15 1_555 1_555
H13_2 C16 1_555 1_555
C17_2 C16 1_555 1_555
C18 N6 1_555 1_555
C19 N7 1_555 1_555
C20_2 N8 1_555 1_555
C21_2 C20_2 1_555 1_555
C22_4 C21_2 1_555 1_555
H14 C22_4 1_555 1_555
C23_4 C22_4 1_555 1_555
H15_4 C23_4 1_555 1_555
C24_4 N12_3 1_555 1_555
C25_2 C21_2 1_555 1_555
H17_2 C25_2 1_555 1_555
C26_2 C17_2 1_555 1_555
H18_2 C26_2 1_555 1_555
H19_2 C26_2 1_555 1_555
H20_2 C26_2 1_555 1_555
C4_2 C5_2 1_555 1_555
C5_2 C6_2 1_555 1_555
N9_2 C20_2 1_555 1_555
C17_2 C18 1_555 1_555
C18 C19 1_555 1_555
C24_4 C25_2 1_555 1_555
Co3_3 N1_3 1_555 1_555
N1_3 C1_3 1_555 1_555
N2_5 Co3_3 1_555 1_555
N3_5 N2_5 1_555 1_555
C1_3 H1_2 1_555 1_555
C2_3 C1_3 1_555 1_555
H2_3 C2_3 1_555 1_555
C3_3 C2_3 1_555 1_555
C4_3 C3_3 1_555 1_555
C5_3 N1_3 1_555 1_555
C6_3 N2_5 1_555 1_555
N6_2 Co3_3 1_555 1_555
N7_2 Co3_3 1_555 1_555
N8_2 N7_2 1_555 1_555
N9_3 C19_2 1_555 1_555
N12 C23_5 1_555 1_555
C14_2 N6_2 1_555 1_555
H11_5 C14_2 1_555 1_555
C15_2 C14_2 1_555 1_555
C16_2 C15_2 1_555 1_555
H13_3 C16_2 1_555 1_555
C17_3 C16_2 1_555 1_555
C18_2 N6_2 1_555 1_555
C19_2 N7_2 1_555 1_555
C20_3 N8_2 1_555 1_555
C21_3 C20_3 1_555 1_555
C22_5 C21_3 1_555 1_555
H14_2 C22_5 1_555 1_555
C23_5 C22_5 1_555 1_555
H15_5 C23_5 1_555 1_555
C24_5 N12 1_555 1_555
C25_3 C21_3 1_555 1_555
H17_3 C25_3 1_555 1_555
C26_3 C17_3 1_555 1_555
H18_3 C26_3 1_555 1_555
H19_3 C26_3 1_555 1_555
H20_3 C26_3 1_555 1_555
C4_3 C5_3 1_555 1_555
C5_3 C6_3 1_555 1_555
N9_3 C20_3 1_555 1_555
C17_3 C18_2 1_555 1_555
C18_2 C19_2 1_555 1_555
C24_5 C25_3 1_555 1_555
Co3 N1_4 1_555 1_555
N1_4 C1_4 1_555 1_555
N2_6 Co3 1_555 1_555
N3_6 N2_6 1_555 1_555
C1_4 H1_3 1_555 1_555
C2_4 C1_4 1_555 1_555
H2_4 C2_4 1_555 1_555
C3_4 C2_4 1_555 1_555
C4_4 C3_4 1_555 1_555
C5_4 N1_4 1_555 1_555
C6_4 N2_6 1_555 1_555
N6_3 Co3 1_555 1_555
N7_3 Co3 1_555 1_555
N8_3 N7_3 1_555 1_555
N9_4 C19_3 1_555 1_555
N12_2 C23_6 1_555 1_555
C14_3 N6_3 1_555 1_555
H11_6 C14_3 1_555 1_555
C15_3 C14_3 1_555 1_555
C16_3 C15_3 1_555 1_555
H13_4 C16_3 1_555 1_555
C17_4 C16_3 1_555 1_555
C18_3 N6_3 1_555 1_555
C19_3 N7_3 1_555 1_555
C20_4 N8_3 1_555 1_555
C21_4 C20_4 1_555 1_555
C22_6 C21_4 1_555 1_555
H14_3 C22_6 1_555 1_555
C23_6 C22_6 1_555 1_555
H15_6 C23_6 1_555 1_555
C24_6 N12_2 1_555 1_555
C25_4 C21_4 1_555 1_555
H17_4 C25_4 1_555 1_555
C26_4 C17_4 1_555 1_555
H18_4 C26_4 1_555 1_555
H19_4 C26_4 1_555 1_555
H20_4 C26_4 1_555 1_555
C4_4 C5_4 1_555 1_555
C5_4 C6_4 1_555 1_555
N9_4 C20_4 1_555 1_555
C17_4 C18_3 1_555 1_555
C18_3 C19_3 1_555 1_555
C24_6 C25_4 1_555 1_555
Co1 N1_5 1_555 1_555
N1_5 C1_5 1_555 1_555
N2_7 Co1 1_555 1_555
N3_7 N2_7 1_555 1_555
N4_2 C6_5 1_555 1_555
N5_4 C10_4 1_555 1_555
C1_5 H1_4 1_555 1_555
C2_5 C1_5 1_555 1_555
H2_5 C2_5 1_555 1_555
C3_5 C2_5 1_555 1_555
H3_2 C3_5 1_555 1_555
C4_5 C3_5 1_555 1_555
C5_5 N1_5 1_555 1_555
C6_5 N2_7 1_555 1_555
C7_4 N3_7 1_555 1_555
C8_4 C7_4 1_555 1_555
C9_4 C8_4 1_555 1_555
H4_5 C9_4 1_555 1_555
C10_4 C9_4 1_555 1_555
H5_4 C10_4 1_555 1_555
C11_4 N5_4 1_555 1_555
C12_4 C8_4 1_555 1_555
H7_4 C12_4 1_555 1_555
C13_2 C4_5 1_555 1_555
H8_2 C13_2 1_555 1_555
H9_2 C13_2 1_555 1_555
H10_2 C13_2 1_555 1_555
Co2_4 N5_4 1_555 1_555
N6_4 Co1 1_555 1_555
N7_4 Co1 1_555 1_555
N8_4 N7_4 1_555 1_555
N11 Co1 1_555 1_555
N12_4 Co1 1_555 1_555
C14_4 N6_4 1_555 1_555
H11_7 C14_4 1_555 1_555
C15_4 C14_4 1_555 1_555
H12_2 C15_4 1_555 1_555
C16_4 C15_4 1_555 1_555
C17_5 C16_4 1_555 1_555
C18_4 N6_4 1_555 1_555
C19_4 N7_4 1_555 1_555
N4_2 C7_4 1_555 1_555
C4_5 C5_5 1_555 1_555
C5_5 C6_5 1_555 1_555
C11_4 C12_4 1_555 1_555
C17_5 C18_4 1_555 1_555
C18_4 C19_4 1_555 1_555
Co1_2 N1_6 1_555 1_555
N1_6 C1_6 1_555 1_555
N2_8 Co1_2 1_555 1_555
N3_8 N2_8 1_555 1_555
N4_3 C6_6 1_555 1_555
N5_5 C10_5 1_555 1_555
C1_6 H1_5 1_555 1_555
C2_6 C1_6 1_555 1_555
C3_6 C2_6 1_555 1_555
H3_3 C3_6 1_555 1_555
C4_6 C3_6 1_555 1_555
C5_6 N1_6 1_555 1_555
C6_6 N2_8 1_555 1_555
C7_5 N3_8 1_555 1_555
C8_5 C7_5 1_555 1_555
C9_5 C8_5 1_555 1_555
H4_6 C9_5 1_555 1_555
C10_5 C9_5 1_555 1_555
H5_5 C10_5 1_555 1_555
C11_5 N5_5 1_555 1_555
C12_5 C8_5 1_555 1_555
H7_5 C12_5 1_555 1_555
C13_3 C4_6 1_555 1_555
H8_3 C13_3 1_555 1_555
H9_3 C13_3 1_555 1_555
H10_3 C13_3 1_555 1_555
Co2_5 N5_5 1_555 1_555
N6_5 Co1_2 1_555 1_555
N7_5 Co1_2 1_555 1_555
N8_5 N7_5 1_555 1_555
N11_2 Co1_2 1_555 1_555
N12_5 Co1_2 1_555 1_555
C14_5 N6_5 1_555 1_555
H11_8 C14_5 1_555 1_555
C15_5 C14_5 1_555 1_555
H12_3 C15_5 1_555 1_555
C16_5 C15_5 1_555 1_555
C17_6 C16_5 1_555 1_555
C18_5 N6_5 1_555 1_555
C19_5 N7_5 1_555 1_555
N4_3 C7_5 1_555 1_555
C4_6 C5_6 1_555 1_555
C5_6 C6_6 1_555 1_555
C11_5 C12_5 1_555 1_555
C17_6 C18_5 1_555 1_555
C18_5 C19_5 1_555 1_555
Co1_3 N1_7 1_555 1_555
N1_7 C1_7 1_555 1_555
N2_9 Co1_3 1_555 1_555
N3_9 N2_9 1_555 1_555
N4_4 C6_7 1_555 1_555
N5_6 C10_6 1_555 1_555
C1_7 H1_6 1_555 1_555
C2_7 C1_7 1_555 1_555
C3_7 C2_7 1_555 1_555
H3_4 C3_7 1_555 1_555
C4_7 C3_7 1_555 1_555
C5_7 N1_7 1_555 1_555
C6_7 N2_9 1_555 1_555
C7_6 N3_9 1_555 1_555
C8_6 C7_6 1_555 1_555
C9_6 C8_6 1_555 1_555
H4_7 C9_6 1_555 1_555
C10_6 C9_6 1_555 1_555
H5_6 C10_6 1_555 1_555
C11_6 N5_6 1_555 1_555
C12_6 C8_6 1_555 1_555
H7_6 C12_6 1_555 1_555
C13_4 C4_7 1_555 1_555
H8_4 C13_4 1_555 1_555
H9_4 C13_4 1_555 1_555
H10_4 C13_4 1_555 1_555
Co2_6 N5_6 1_555 1_555
N6_6 Co1_3 1_555 1_555
N7_6 Co1_3 1_555 1_555
N8_6 N7_6 1_555 1_555
N11_3 Co1_3 1_555 1_555
N12_6 Co1_3 1_555 1_555
C14_6 N6_6 1_555 1_555
H11_9 C14_6 1_555 1_555
C15_6 C14_6 1_555 1_555
H12_4 C15_6 1_555 1_555
C16_6 C15_6 1_555 1_555
C17_7 C16_6 1_555 1_555
C18_6 N6_6 1_555 1_555
C19_6 N7_6 1_555 1_555
N4_4 C7_6 1_555 1_555
C4_7 C5_7 1_555 1_555
C5_7 C6_7 1_555 1_555
C11_6 C12_6 1_555 1_555
C17_7 C18_6 1_555 1_555
C18_6 C19_6 1_555 1_555
N7_7 Co2_5 1_555 1_555
N8_7 N7_7 1_555 1_555
N12_6 C23_7 1_555 1_555
C20_5 N8_7 1_555 1_555
C21_5 C20_5 1_555 1_555
C22_7 C21_5 1_555 1_555
H14_5 C22_7 1_555 1_555
C23_7 C22_7 1_555 1_555
H15_7 C23_7 1_555 1_555
C24_7 N12_6 1_555 1_555
H16_4 C24_7 1_555 1_555
C25_5 C21_5 1_555 1_555
H17_5 C25_5 1_555 1_555
C24_7 C25_5 1_555 1_555
N6_7 Co2_6 1_555 1_555
N7_8 Co2_6 1_555 1_555
N8_8 N7_8 1_555 1_555
N9_5 C19_7 1_555 1_555
N12_4 C23_8 1_555 1_555
C14_7 N6_7 1_555 1_555
C15_7 C14_7 1_555 1_555
H12_5 C15_7 1_555 1_555
C16_7 C15_7 1_555 1_555
H13_5 C16_7 1_555 1_555
C17_8 C16_7 1_555 1_555
C18_7 N6_7 1_555 1_555
C19_7 N7_8 1_555 1_555
C20_6 N8_8 1_555 1_555
C21_6 C20_6 1_555 1_555
C22_8 C21_6 1_555 1_555
H14_6 C22_8 1_555 1_555
C23_8 C22_8 1_555 1_555
H15_8 C23_8 1_555 1_555
C24_8 N12_4 1_555 1_555
H16_5 C24_8 1_555 1_555
C25_6 C21_6 1_555 1_555
H17_6 C25_6 1_555 1_555
C26_5 C17_8 1_555 1_555
H18_5 C26_5 1_555 1_555
H19_5 C26_5 1_555 1_555
H20_5 C26_5 1_555 1_555
N9_5 C20_6 1_555 1_555
C17_8 C18_7 1_555 1_555
C18_7 C19_7 1_555 1_555
C24_8 C25_6 1_555 1_555
N7_9 Co2_4 1_555 1_555
N8_9 N7_9 1_555 1_555
N12_5 C23_9 1_555 1_555
C20_7 N8_9 1_555 1_555
C21_7 C20_7 1_555 1_555
C22_9 C21_7 1_555 1_555
H14_7 C22_9 1_555 1_555
C23_9 C22_9 1_555 1_555
H15_9 C23_9 1_555 1_555
C24_9 N12_5 1_555 1_555
H16_6 C24_9 1_555 1_555
C25_7 C21_7 1_555 1_555
H17_7 C25_7 1_555 1_555
C24_9 C25_7 1_555 1_555
N11_3 C10_7 1_555 1_555
C8_7 C7_7 1_555 1_555
C9_7 C8_7 1_555 1_555
C10_7 C9_7 1_555 1_555
H5_7 C10_7 1_555 1_555
C11_7 N11_3 1_555 1_555
H6_5 C11_7 1_555 1_555
C12_7 C8_7 1_555 1_555
H7_7 C12_7 1_555 1_555
C13_5 C4_8 1_555 1_555
H8_5 C13_5 1_555 1_555
H9_5 C13_5 1_555 1_555
H10_5 C13_5 1_555 1_555
N4_5 C7_7 1_555 1_555
C11_7 C12_7 1_555 1_555
N11 C10_8 1_555 1_555
C10_8 C9_8 1_555 1_555
H5_8 C10_8 1_555 1_555
C11_8 N11 1_555 1_555
H6_6 C11_8 1_555 1_555
N11_2 C10_9 1_555 1_555
C10_9 C9_9 1_555 1_555
H5_9 C10_9 1_555 1_555
C11_9 N11_2 1_555 1_555
H6_7 C11_9 1_555 1_555
Co2_7 N1_8 1_555 1_555
N1_8 C1_8 1_555 1_555
N4_6 C6_8 1_555 1_555
C2_8 C1_8 1_555 1_555
H2_6 C2_8 1_555 1_555
C3_8 C2_8 1_555 1_555
H3_6 C3_8 1_555 1_555
C4_9 C3_8 1_555 1_555
C5_8 N1_8 1_555 1_555
C13_6 C4_9 1_555 1_555
H8_6 C13_6 1_555 1_555
H9_6 C13_6 1_555 1_555
H10_6 C13_6 1_555 1_555
C4_9 C5_8 1_555 1_555
C5_8 C6_8 1_555 1_555
N6_8 Co2_8 1_555 1_555
N9_6 C19_8 1_555 1_555
C14_8 N6_8 1_555 1_555
C15_8 C14_8 1_555 1_555
H12_6 C15_8 1_555 1_555
C16_8 C15_8 1_555 1_555
H13_6 C16_8 1_555 1_555
C17_9 C16_8 1_555 1_555
C18_8 N6_8 1_555 1_555
C26_6 C17_9 1_555 1_555
H18_6 C26_6 1_555 1_555
H19_6 C26_6 1_555 1_555
H20_6 C26_6 1_555 1_555
C17_9 C18_8 1_555 1_555
C18_8 C19_8 1_555 1_555
N6_9 Co2_9 1_555 1_555
N9_7 C19_9 1_555 1_555
C14_9 N6_9 1_555 1_555
C15_9 C14_9 1_555 1_555
H12_7 C15_9 1_555 1_555
C16_9 C15_9 1_555 1_555
H13_7 C16_9 1_555 1_555
C17_10 C16_9 1_555 1_555
C18_9 N6_9 1_555 1_555
C26_7 C17_10 1_555 1_555
H18_7 C26_7 1_555 1_555
H19_7 C26_7 1_555 1_555
H20_7 C26_7 1_555 1_555
C17_10 C18_9 1_555 1_555
C18_9 C19_9 1_555 1_555
C21_8 C20_8 1_555 1_555
C25_8 C21_8 1_555 1_555
H17_8 C25_8 1_555 1_555
C26_8 C17_11 1_555 1_555
H18_8 C26_8 1_555 1_555
H19_8 C26_8 1_555 1_555
H20_8 C26_8 1_555 1_555
N9_8 C20_8 1_555 1_555
Co2_10 N1_9 1_555 1_555
N1_9 C1_9 1_555 1_555
N4_7 C6_9 1_555 1_555
C2_9 C1_9 1_555 1_555
H2_7 C2_9 1_555 1_555
C3_9 C2_9 1_555 1_555
H3_7 C3_9 1_555 1_555
C4_10 C3_9 1_555 1_555
C5_9 N1_9 1_555 1_555
C13_7 C4_10 1_555 1_555
H8_7 C13_7 1_555 1_555
H9_7 C13_7 1_555 1_555
H10_7 C13_7 1_555 1_555
C4_10 C5_9 1_555 1_555
C5_9 C6_9 1_555 1_555
C21_9 C20_9 1_555 1_555
C25_9 C21_9 1_555 1_555
H17_9 C25_9 1_555 1_555
C26_9 C17_12 1_555 1_555
H18_9 C26_9 1_555 1_555
H19_9 C26_9 1_555 1_555
H20_9 C26_9 1_555 1_555
N9_9 C20_9 1_555 1_555
C8_8 C7_8 1_555 1_555
C12_8 C8_8 1_555 1_555
H7_8 C12_8 1_555 1_555
C13_8 C4_11 1_555 1_555
H8_8 C13_8 1_555 1_555
H9_8 C13_8 1_555 1_555
H10_8 C13_8 1_555 1_555
N4_8 C7_8 1_555 1_555
C8_9 C7_9 1_555 1_555
C12_9 C8_9 1_555 1_555
H7_9 C12_9 1_555 1_555
C13_9 C4_12 1_555 1_555
H8_9 C13_9 1_555 1_555
H9_9 C13_9 1_555 1_555
H10_9 C13_9 1_555 1_555
N4_9 C7_9 1_555 1_555

#END
