
###############################################################################
#
# This file contains modified crystal structure data generated from the
# MOF subset of the Cambridge Structural Database (CSD) v543 
# hosted by the Cambridge Crystallographic Data Centre (CCDC).
#
# This work is licensed under the Creative Commons
# Attribution-NonCommercial-ShareAlike 4.0 International License.
# To view a copy of this license, visit
# http://creativecommons.org/licenses/by-nc-sa/4.0/
# or send a letter to
# Creative Commons, PO Box 1866, Mountain View, CA 94042, USA.
#
# CIF created using the CSD Python API on 29 September 2022
# The structure has been converted into the P1 space group
# The structure has a 3D framework
# The original CSD entry BUSQUC is in the monoclinic crystal system
# The framework has been calculated to contain at least 10.0% void space
# The void calculation uses a probe of radius 1.32A, grid spacing 0.4
#
###############################################################################

data_BUSQUC
_chemical_formula_moiety         '(C144 H96 Cu8 N8 O32)n'
_symmetry_cell_setting           triclinic
_symmetry_space_group_name_H-M   'P 1'
_symmetry_Int_Tables_number      1
_space_group_name_Hall           'P 1'
loop_
_symmetry_equiv_pos_site_id
_symmetry_equiv_pos_as_xyz
1 x,y,z
_cell_length_a                   17.094(3)
_cell_length_b                   19.605(3)
_cell_length_c                   11.782(2)
_cell_angle_alpha                90
_cell_angle_beta                 113.950(4)
_cell_angle_gamma                90
_cell_volume                     3608.51
loop_
_atom_site_label
_atom_site_type_symbol
_atom_site_fract_x
_atom_site_fract_y
_atom_site_fract_z
Cu4 Cu 0.04560(3) 0.27681(2) 0.87412(4)
C5 C 0.7613(3) 0.0076(2) 0.7939(4)
C6 C 0.6584(3) 0.0201(3) 0.5787(4)
H3 H 0.6385 0.0432 0.5033
C7 C 0.7340(3) 0.0430(2) 0.6790(4)
C8 C 0.8358(3) 0.0312(3) 0.8952(5)
H4 H 0.8552 0.0079 0.9704
C9 C 0.8788(3) 0.0870(3) 0.8840(4)
H5 H 0.9262 0.1024 0.9522
C10 C 0.7809(3) 0.1002(2) 0.6692(4)
H6 H 0.7632 0.1234 0.5941
C11 C 0.8523(3) 0.1222(2) 0.7690(4)
C12 C 0.9016(3) 0.1829(2) 0.7585(4)
O3 O 0.9571(2) 0.20633(16) 0.8578(3)
O4 O 0.88409(19) 0.20554(16) 0.6499(3)
C23 C 0.2387(3) 0.0076(2) 0.7061(4)
C24 C 0.3416(3) 0.0201(3) 0.9213(4)
H15 H 0.3615 0.0432 0.9967
C25 C 0.2660(3) 0.0430(2) 0.8210(4)
C26 C 0.1642(3) 0.0312(3) 0.6048(5)
H16 H 0.1448 0.0079 0.5296
C27 C 0.1212(3) 0.0870(3) 0.6160(4)
H17 H 0.0738 0.1024 0.5478
C28 C 0.2191(3) 0.1002(2) 0.8308(4)
H18 H 0.2368 0.1234 0.9059
C29 C 0.1477(3) 0.1222(2) 0.7310(4)
C30 C 0.0984(3) 0.1829(2) 0.7415(4)
Cu6 Cu 0.95440(3) 0.27681(2) 0.62588(4)
O7 O 0.0429(2) 0.20633(16) 0.6422(3)
O10 O 0.11591(19) 0.20554(16) 0.8501(3)
C1 C 0.5919(2) 0.87057(19) 0.7213(4)
C2 C 0.6421(3) 0.9300(2) 0.7062(4)
C3 C 0.7146(3) 0.9509(2) 0.8043(4)
H1 H 0.7330 0.9271 0.8790
C4 C 0.6152(3) 0.9652(2) 0.5924(4)
H2 H 0.5668 0.9503 0.5253
Cu1 Cu 0.54560(3) 0.77681(2) 0.87412(4)
O1 O 0.61251(18) 0.84716(15) 0.8291(3)
O2 O 0.53181(18) 0.84880(15) 0.6236(3)
C19 C 0.4081(2) 0.87057(19) 0.7787(4)
C20 C 0.3579(3) 0.9300(2) 0.7938(4)
C21 C 0.2854(3) 0.9509(2) 0.6957(4)
H13 H 0.2670 0.9271 0.6210
C22 C 0.3848(3) 0.9652(2) 0.9076(4)
H14 H 0.4332 0.9503 0.9747
Cu2 Cu 0.45440(3) 0.77681(2) 0.62588(4)
N3 N 0.3892(2) 0.77425(19) 0.4259(3)
O5 O 0.38749(18) 0.84716(15) 0.6709(3)
O6 O 0.46819(18) 0.84880(15) 0.8764(3)
O8 O 0.4571(2) 0.70633(16) 0.8578(3)
O9 O 0.5429(2) 0.70633(16) 0.6422(3)
O11 O 0.38409(19) 0.70554(16) 0.6499(3)
O12 O 0.61591(19) 0.70554(16) 0.8501(3)
C13 C 0.3205(4) 0.7349(3) 0.3699(5)
H7 H 0.2999 0.7097 0.4188
C14 C 0.4122(4) 0.8135(3) 0.3548(5)
H8 H 0.4578 0.8432 0.3927
C15 C 0.2789(5) 0.7301(4) 0.2426(6)
H9 H 0.2323 0.7010 0.2065
C16 C 0.3722(5) 0.8132(5) 0.2262(5)
H10 H 0.3902 0.8431 0.1802
C17 C 0.3078(6) 0.7698(5) 0.1683(5)
C18 C 0.29856(14) 0.7479(10) 0.0391(7)
H11 H 0.3194 0.7017 0.0403
H12 H 0.3295 0.7784 0.0072
C1_2 C 0.0919(2) 0.37057(19) 0.7213(4)
C2_2 C 0.1421(3) 0.4300(2) 0.7062(4)
C3_2 C 0.2146(3) 0.4509(2) 0.8043(4)
H1_2 H 0.2330 0.4271 0.8790
C4_2 C 0.1152(3) 0.4652(2) 0.5924(4)
H2_2 H 0.0668 0.4503 0.5253
C5_2 C 0.2613(3) 0.5076(2) 0.7939(4)
C6_2 C 0.1584(3) 0.5201(3) 0.5787(4)
H3_2 H 0.1385 0.5432 0.5033
C7_2 C 0.2340(3) 0.5430(2) 0.6790(4)
C8_2 C 0.3358(3) 0.5312(3) 0.8952(5)
H4_2 H 0.3552 0.5079 0.9704
C9_2 C 0.3788(3) 0.5870(3) 0.8840(4)
H5_2 H 0.4262 0.6024 0.9522
C10_2 C 0.2809(3) 0.6002(2) 0.6692(4)
H6_2 H 0.2632 0.6234 0.5941
C11_2 C 0.3523(3) 0.6222(2) 0.7690(4)
C12_2 C 0.4016(3) 0.6829(2) 0.7585(4)
O1_2 O 0.11251(18) 0.34716(15) 0.8291(3)
O2_2 O 0.03181(18) 0.34880(15) 0.6236(3)
C19_2 C 0.9081(2) 0.37057(19) 0.7787(4)
C20_2 C 0.8579(3) 0.4300(2) 0.7938(4)
C21_2 C 0.7854(3) 0.4509(2) 0.6957(4)
H13_2 H 0.7670 0.4271 0.6210
C22_2 C 0.8848(3) 0.4652(2) 0.9076(4)
H14_2 H 0.9332 0.4503 0.9747
C23_2 C 0.7387(3) 0.5076(2) 0.7061(4)
C24_2 C 0.8416(3) 0.5201(3) 0.9213(4)
H15_2 H 0.8615 0.5432 0.9967
C25_2 C 0.7660(3) 0.5430(2) 0.8210(4)
C26_2 C 0.6642(3) 0.5312(3) 0.6048(5)
H16_2 H 0.6448 0.5079 0.5296
C27_2 C 0.6212(3) 0.5870(3) 0.6160(4)
H17_2 H 0.5738 0.6024 0.5478
C28_2 C 0.7191(3) 0.6002(2) 0.8308(4)
H18_2 H 0.7368 0.6234 0.9059
C29_2 C 0.6477(3) 0.6222(2) 0.7310(4)
C30_2 C 0.5984(3) 0.6829(2) 0.7415(4)
N3_2 N 0.8892(2) 0.27425(19) 0.4259(3)
O5_2 O 0.88749(18) 0.34716(15) 0.6709(3)
O6_2 O 0.96819(18) 0.34880(15) 0.8764(3)
C13_2 C 0.8205(4) 0.2349(3) 0.3699(5)
H7_2 H 0.7999 0.2097 0.4188
C14_2 C 0.9122(4) 0.3135(3) 0.3548(5)
H8_2 H 0.9578 0.3432 0.3927
C15_2 C 0.7789(5) 0.2301(4) 0.2426(6)
H9_2 H 0.7323 0.2010 0.2065
C16_2 C 0.8722(5) 0.3132(5) 0.2262(5)
H10_2 H 0.8902 0.3431 0.1802
C17_2 C 0.8078(6) 0.2698(5) 0.1683(5)
C18_2 C 0.79856(14) 0.2479(10) 0.0391(7)
H11_2 H 0.8194 0.2017 0.0403
H12_2 H 0.8295 0.2784 0.0072
Cu7 Cu 0.95440(3) 0.72319(2) 0.12588(4)
C31 C 0.1795(4) 0.7651(3) 0.6301(5)
H19 H 0.2001 0.7903 0.5812
C32 C 0.0878(4) 0.6865(3) 0.6452(5)
H20 H 0.0422 0.6568 0.6073
C33 C 0.2211(5) 0.7699(4) 0.7574(6)
H21 H 0.2677 0.7990 0.7935
C34 C 0.1278(5) 0.6868(5) 0.7738(5)
H22 H 0.1098 0.6569 0.8198
C35 C 0.1922(6) 0.7302(5) 0.8317(5)
C36 C 0.20144(14) 0.7521(10) 0.9609(7)
H23 H 0.1806 0.7983 0.9597
H24 H 0.1705 0.7216 0.9928
Cu7_2 Cu 0.04560(3) 0.72319(2) 0.37412(4)
N2 N 0.1108(2) 0.72575(19) 0.5741(3)
Cu7_3 Cu 0.45440(3) 0.22319(2) 0.12588(4)
C31_2 C 0.6795(4) 0.2651(3) 0.6301(5)
H19_2 H 0.7001 0.2903 0.5812
C32_2 C 0.5878(4) 0.1865(3) 0.6452(5)
H20_2 H 0.5422 0.1568 0.6073
C33_2 C 0.7211(5) 0.2699(4) 0.7574(6)
H21_2 H 0.7677 0.2990 0.7935
C34_2 C 0.6278(5) 0.1868(5) 0.7738(5)
H22_2 H 0.6098 0.1569 0.8198
C35_2 C 0.6922(6) 0.2302(5) 0.8317(5)
C36_2 C 0.70144(14) 0.2521(10) 0.9609(7)
H23_2 H 0.6806 0.2983 0.9597
H24_2 H 0.6705 0.2216 0.9928
Cu7_4 Cu 0.54560(3) 0.22319(2) 0.37412(4)
N2_2 N 0.6108(2) 0.22575(19) 0.5741(3)
C1_3 C 0.4081(2) 0.12943(19) 0.2787(4)
C2_3 C 0.3579(3) 0.0700(2) 0.2938(4)
C3_3 C 0.2854(3) 0.0491(2) 0.1957(4)
H1_3 H 0.2670 0.0729 0.1210
C4_3 C 0.3848(3) 0.0348(2) 0.4076(4)
H2_3 H 0.4332 0.0497 0.4747
O1_3 O 0.38749(18) 0.15284(15) 0.1709(3)
O2_3 O 0.46819(18) 0.15120(15) 0.3764(3)
C19_3 C 0.5919(2) 0.12943(19) 0.2213(4)
C20_3 C 0.6421(3) 0.0700(2) 0.2062(4)
C21_3 C 0.7146(3) 0.0491(2) 0.3043(4)
H13_3 H 0.7330 0.0729 0.3790
C22_3 C 0.6152(3) 0.0348(2) 0.0924(4)
H14_3 H 0.5668 0.0497 0.0253
O5_3 O 0.61251(18) 0.15284(15) 0.3291(3)
O6_3 O 0.53181(18) 0.15120(15) 0.1236(3)
O8_2 O 0.5429(2) 0.29367(16) 0.1422(3)
O9_2 O 0.4571(2) 0.29367(16) 0.3578(3)
O11_2 O 0.61591(19) 0.29446(16) 0.3501(3)
O12_2 O 0.38409(19) 0.29446(16) 0.1499(3)
C5_3 C 0.2387(3) 0.9924(2) 0.2061(4)
C6_3 C 0.3416(3) 0.9799(3) 0.4213(4)
H3_3 H 0.3615 0.9568 0.4967
C7_3 C 0.2660(3) 0.9570(2) 0.3210(4)
C8_3 C 0.1642(3) 0.9688(3) 0.1048(5)
H4_3 H 0.1448 0.9921 0.0296
C9_3 C 0.1212(3) 0.9130(3) 0.1160(4)
H5_3 H 0.0738 0.8976 0.0478
C10_3 C 0.2191(3) 0.8998(2) 0.3308(4)
H6_3 H 0.2368 0.8766 0.4059
C11_3 C 0.1477(3) 0.8778(2) 0.2310(4)
C12_3 C 0.0984(3) 0.8171(2) 0.2415(4)
O3_2 O 0.0429(2) 0.79367(16) 0.1422(3)
O4_2 O 0.11591(19) 0.79446(16) 0.3501(3)
C23_3 C 0.7613(3) 0.9924(2) 0.2939(4)
C24_3 C 0.6584(3) 0.9799(3) 0.0787(4)
H15_3 H 0.6385 0.9568 0.0033
C25_3 C 0.7340(3) 0.9570(2) 0.1790(4)
C26_3 C 0.8358(3) 0.9688(3) 0.3952(5)
H16_3 H 0.8552 0.9921 0.4704
C27_3 C 0.8788(3) 0.9130(3) 0.3840(4)
H17_3 H 0.9262 0.8976 0.4522
C28_3 C 0.7809(3) 0.8998(2) 0.1692(4)
H18_3 H 0.7632 0.8766 0.0941
C29_3 C 0.8523(3) 0.8778(2) 0.2690(4)
C30_3 C 0.9016(3) 0.8171(2) 0.2585(4)
O7_2 O 0.9571(2) 0.79367(16) 0.3578(3)
O10_2 O 0.88409(19) 0.79446(16) 0.1499(3)
C19_4 C 0.0919(2) 0.62943(19) 0.2213(4)
C20_4 C 0.1421(3) 0.5700(2) 0.2062(4)
C21_4 C 0.2146(3) 0.5491(2) 0.3043(4)
H13_4 H 0.2330 0.5729 0.3790
C22_4 C 0.1152(3) 0.5348(2) 0.0924(4)
H14_4 H 0.0668 0.5497 0.0253
C23_4 C 0.2613(3) 0.4924(2) 0.2939(4)
C24_4 C 0.1584(3) 0.4799(3) 0.0787(4)
H15_4 H 0.1385 0.4568 0.0033
C25_4 C 0.2340(3) 0.4570(2) 0.1790(4)
C26_4 C 0.3358(3) 0.4688(3) 0.3952(5)
H16_4 H 0.3552 0.4921 0.4704
C27_4 C 0.3788(3) 0.4130(3) 0.3840(4)
H17_4 H 0.4262 0.3976 0.4522
C28_4 C 0.2809(3) 0.3998(2) 0.1692(4)
H18_4 H 0.2632 0.3766 0.0941
C29_4 C 0.3523(3) 0.3778(2) 0.2690(4)
C30_4 C 0.4016(3) 0.3171(2) 0.2585(4)
O5_4 O 0.11251(18) 0.65284(15) 0.3291(3)
O6_4 O 0.03181(18) 0.65120(15) 0.1236(3)
C1_4 C 0.9081(2) 0.62943(19) 0.2787(4)
C2_4 C 0.8579(3) 0.5700(2) 0.2938(4)
C3_4 C 0.7854(3) 0.5491(2) 0.1957(4)
H1_4 H 0.7670 0.5729 0.1210
C4_4 C 0.8848(3) 0.5348(2) 0.4076(4)
H2_4 H 0.9332 0.5497 0.4747
C5_4 C 0.7387(3) 0.4924(2) 0.2061(4)
C6_4 C 0.8416(3) 0.4799(3) 0.4213(4)
H3_4 H 0.8615 0.4568 0.4967
C7_4 C 0.7660(3) 0.4570(2) 0.3210(4)
C8_4 C 0.6642(3) 0.4688(3) 0.1048(5)
H4_4 H 0.6448 0.4921 0.0296
C9_4 C 0.6212(3) 0.4130(3) 0.1160(4)
H5_4 H 0.5738 0.3976 0.0478
C10_4 C 0.7191(3) 0.3998(2) 0.3308(4)
H6_4 H 0.7368 0.3766 0.4059
C11_4 C 0.6477(3) 0.3778(2) 0.2310(4)
C12_4 C 0.5984(3) 0.3171(2) 0.2415(4)
O1_4 O 0.88749(18) 0.65284(15) 0.1709(3)
O2_4 O 0.96819(18) 0.65120(15) 0.3764(3)
C13_3 C 0.6795(4) 0.7349(3) 0.1301(5)
H7_3 H 0.7001 0.7097 0.0812
C14_3 C 0.5878(4) 0.8135(3) 0.1452(5)
H8_3 H 0.5422 0.8432 0.1073
C15_3 C 0.7211(5) 0.7301(4) 0.2574(6)
H9_3 H 0.7677 0.7010 0.2935
C16_3 C 0.6278(5) 0.8132(5) 0.2738(5)
H10_3 H 0.6098 0.8431 0.3198
C17_3 C 0.6922(6) 0.7698(5) 0.3317(5)
C18_3 C 0.70144(14) 0.7479(10) 0.4609(7)
H11_3 H 0.6806 0.7017 0.4597
H12_3 H 0.6705 0.7784 0.4928
N1 N 0.6108(2) 0.77425(19) 0.0741(3)
C31_3 C 0.8205(4) 0.7651(3) 0.8699(5)
H19_3 H 0.7999 0.7903 0.9188
C32_3 C 0.9122(4) 0.6865(3) 0.8548(5)
H20_3 H 0.9578 0.6568 0.8927
C33_3 C 0.7789(5) 0.7699(4) 0.7426(6)
H21_3 H 0.7323 0.7990 0.7065
C34_3 C 0.8722(5) 0.6868(5) 0.7262(5)
H22_3 H 0.8902 0.6569 0.6802
C35_3 C 0.8078(6) 0.7302(5) 0.6683(5)
C36_3 C 0.79856(14) 0.7521(10) 0.5391(7)
H23_3 H 0.8194 0.7983 0.5403
H24_3 H 0.8295 0.7216 0.5072
N2_3 N 0.8892(2) 0.72575(19) 0.9259(3)
C13_4 C 0.1795(4) 0.2349(3) 0.1301(5)
H7_4 H 0.2001 0.2097 0.0812
C14_4 C 0.0878(4) 0.3135(3) 0.1452(5)
H8_4 H 0.0422 0.3432 0.1073
C15_4 C 0.2211(5) 0.2301(4) 0.2574(6)
H9_4 H 0.2677 0.2010 0.2935
C16_4 C 0.1278(5) 0.3132(5) 0.2738(5)
H10_4 H 0.1098 0.3431 0.3198
C17_4 C 0.1922(6) 0.2698(5) 0.3317(5)
C18_4 C 0.20144(14) 0.2479(10) 0.4609(7)
H11_4 H 0.1806 0.2017 0.4597
H12_4 H 0.1705 0.2784 0.4928
N1_2 N 0.1108(2) 0.27425(19) 0.0741(3)
C31_4 C 0.3205(4) 0.2651(3) 0.8699(5)
H19_4 H 0.2999 0.2903 0.9188
C32_4 C 0.4122(4) 0.1865(3) 0.8548(5)
H20_4 H 0.4578 0.1568 0.8927
C33_4 C 0.2789(5) 0.2699(4) 0.7426(6)
H21_4 H 0.2323 0.2990 0.7065
C34_4 C 0.3722(5) 0.1868(5) 0.7262(5)
H22_4 H 0.3902 0.1569 0.6802
C35_4 C 0.3078(6) 0.2302(5) 0.6683(5)
C36_4 C 0.29856(14) 0.2521(10) 0.5391(7)
H23_4 H 0.3194 0.2983 0.5403
H24_4 H 0.3295 0.2216 0.5072
N2_4 N 0.3892(2) 0.22575(19) 0.9259(3)
loop_
_geom_bond_atom_site_label_1
_geom_bond_atom_site_label_2
_geom_bond_site_symmetry_1
_geom_bond_site_symmetry_2
H3 C6 1_555 1_555
C7 C5 1_555 1_555
C8 C5 1_555 1_555
H4 C8 1_555 1_555
C9 C8 1_555 1_555
H5 C9 1_555 1_555
C10 C7 1_555 1_555
H6 C10 1_555 1_555
C11 C9 1_555 1_555
C12 C11 1_555 1_555
O3 C12 1_555 1_555
O4 C12 1_555 1_555
H15 C24 1_555 1_555
C25 C23 1_555 1_555
C26 C23 1_555 1_555
H16 C26 1_555 1_555
C27 C26 1_555 1_555
H17 C27 1_555 1_555
C28 C25 1_555 1_555
H18 C28 1_555 1_555
C29 C27 1_555 1_555
C30 C29 1_555 1_555
Cu6 O4 1_555 1_555
O7 C30 1_555 1_555
O10 C30 1_555 1_555
C6 C7 1_555 1_555
C10 C11 1_555 1_555
C24 C25 1_555 1_555
C28 C29 1_555 1_555
Cu4 O10 1_555 1_555
C1 C2 1_555 1_555
C2 C3 1_555 1_555
C3 H1 1_555 1_555
C4 C2 1_555 1_555
H2 C4 1_555 1_555
O1 C1 1_555 1_555
O2 C1 1_555 1_555
C19 C20 1_555 1_555
C20 C21 1_555 1_555
C21 H13 1_555 1_555
C22 C20 1_555 1_555
H14 C22 1_555 1_555
Cu2 Cu1 1_555 1_555
N3 Cu2 1_555 1_555
O5 C19 1_555 1_555
O6 Cu1 1_555 1_555
O8 Cu1 1_555 1_555
O9 Cu2 1_555 1_555
O11 Cu2 1_555 1_555
O12 Cu1 1_555 1_555
Cu1 O1 1_555 1_555
O2 Cu2 1_555 1_555
C19 O6 1_555 1_555
Cu2 O5 1_555 1_555
C13 H7 1_555 1_555
C14 H8 1_555 1_555
C15 C13 1_555 1_555
H9 C15 1_555 1_555
C16 C14 1_555 1_555
H10 C16 1_555 1_555
C17 C15 1_555 1_555
C18 C17 1_555 1_555
H11 C18 1_555 1_555
H12 C18 1_555 1_555
N3 C13 1_555 1_555
C14 N3 1_555 1_555
C16 C17 1_555 1_555
C1_2 C2_2 1_555 1_555
C2_2 C3_2 1_555 1_555
C3_2 H1_2 1_555 1_555
C4_2 C2_2 1_555 1_555
H2_2 C4_2 1_555 1_555
C5_2 C3_2 1_555 1_555
C6_2 C4_2 1_555 1_555
H3_2 C6_2 1_555 1_555
C7_2 C5_2 1_555 1_555
C8_2 C5_2 1_555 1_555
H4_2 C8_2 1_555 1_555
C9_2 C8_2 1_555 1_555
H5_2 C9_2 1_555 1_555
C10_2 C7_2 1_555 1_555
H6_2 C10_2 1_555 1_555
C11_2 C9_2 1_555 1_555
C12_2 C11_2 1_555 1_555
O1_2 C1_2 1_555 1_555
O2_2 C1_2 1_555 1_555
O8 C12_2 1_555 1_555
O11 C12_2 1_555 1_555
C6_2 C7_2 1_555 1_555
C10_2 C11_2 1_555 1_555
Cu4 O1_2 1_555 1_555
C19_2 C20_2 1_555 1_555
C20_2 C21_2 1_555 1_555
C21_2 H13_2 1_555 1_555
C22_2 C20_2 1_555 1_555
H14_2 C22_2 1_555 1_555
C23_2 C21_2 1_555 1_555
C24_2 C22_2 1_555 1_555
H15_2 C24_2 1_555 1_555
C25_2 C23_2 1_555 1_555
C26_2 C23_2 1_555 1_555
H16_2 C26_2 1_555 1_555
C27_2 C26_2 1_555 1_555
H17_2 C27_2 1_555 1_555
C28_2 C25_2 1_555 1_555
H18_2 C28_2 1_555 1_555
C29_2 C27_2 1_555 1_555
C30_2 C29_2 1_555 1_555
N3_2 Cu6 1_555 1_555
O5_2 C19_2 1_555 1_555
O9 C30_2 1_555 1_555
O12 C30_2 1_555 1_555
C19_2 O6_2 1_555 1_555
C24_2 C25_2 1_555 1_555
C28_2 C29_2 1_555 1_555
Cu6 O5_2 1_555 1_555
C13_2 H7_2 1_555 1_555
C14_2 H8_2 1_555 1_555
C15_2 C13_2 1_555 1_555
H9_2 C15_2 1_555 1_555
C16_2 C14_2 1_555 1_555
H10_2 C16_2 1_555 1_555
C17_2 C15_2 1_555 1_555
C18_2 C17_2 1_555 1_555
H11_2 C18_2 1_555 1_555
H12_2 C18_2 1_555 1_555
N3_2 C13_2 1_555 1_555
C14_2 N3_2 1_555 1_555
C16_2 C17_2 1_555 1_555
C31 H19 1_555 1_555
C32 H20 1_555 1_555
C33 C31 1_555 1_555
H21 C33 1_555 1_555
C34 C32 1_555 1_555
H22 C34 1_555 1_555
C35 C33 1_555 1_555
H23 C36 1_555 1_555
H24 C36 1_555 1_555
Cu7_2 N2 1_555 1_555
N2 C31 1_555 1_555
C32 N2 1_555 1_555
C34 C35 1_555 1_555
C35 C36 1_555 1_555
C31_2 H19_2 1_555 1_555
C32_2 H20_2 1_555 1_555
C33_2 C31_2 1_555 1_555
H21_2 C33_2 1_555 1_555
C34_2 C32_2 1_555 1_555
H22_2 C34_2 1_555 1_555
C35_2 C33_2 1_555 1_555
H23_2 C36_2 1_555 1_555
H24_2 C36_2 1_555 1_555
Cu7_4 N2_2 1_555 1_555
N2_2 C31_2 1_555 1_555
C32_2 N2_2 1_555 1_555
C34_2 C35_2 1_555 1_555
C35_2 C36_2 1_555 1_555
C1_3 C2_3 1_555 1_555
C2_3 C3_3 1_555 1_555
C3_3 H1_3 1_555 1_555
C4_3 C2_3 1_555 1_555
H2_3 C4_3 1_555 1_555
O1_3 C1_3 1_555 1_555
O2_3 C1_3 1_555 1_555
C19_3 C20_3 1_555 1_555
C20_3 C21_3 1_555 1_555
C21_3 H13_3 1_555 1_555
C22_3 C20_3 1_555 1_555
H14_3 C22_3 1_555 1_555
Cu7_4 Cu7_3 1_555 1_555
O5_3 C19_3 1_555 1_555
O6_3 Cu7_3 1_555 1_555
O8_2 Cu7_3 1_555 1_555
O9_2 Cu7_4 1_555 1_555
O11_2 Cu7_4 1_555 1_555
O12_2 Cu7_3 1_555 1_555
Cu7_3 O1_3 1_555 1_555
O2_3 Cu7_4 1_555 1_555
C19_3 O6_3 1_555 1_555
Cu7_4 O5_3 1_555 1_555
H3_3 C6_3 1_555 1_555
C7_3 C5_3 1_555 1_555
C8_3 C5_3 1_555 1_555
H4_3 C8_3 1_555 1_555
C9_3 C8_3 1_555 1_555
H5_3 C9_3 1_555 1_555
C10_3 C7_3 1_555 1_555
H6_3 C10_3 1_555 1_555
C11_3 C9_3 1_555 1_555
C12_3 C11_3 1_555 1_555
O3_2 C12_3 1_555 1_555
O4_2 C12_3 1_555 1_555
H15_3 C24_3 1_555 1_555
C25_3 C23_3 1_555 1_555
C26_3 C23_3 1_555 1_555
H16_3 C26_3 1_555 1_555
C27_3 C26_3 1_555 1_555
H17_3 C27_3 1_555 1_555
C28_3 C25_3 1_555 1_555
H18_3 C28_3 1_555 1_555
C29_3 C27_3 1_555 1_555
C30_3 C29_3 1_555 1_555
Cu7_2 O4_2 1_555 1_555
O7_2 C30_3 1_555 1_555
O10_2 C30_3 1_555 1_555
C6_3 C7_3 1_555 1_555
C10_3 C11_3 1_555 1_555
C24_3 C25_3 1_555 1_555
C28_3 C29_3 1_555 1_555
Cu7 O10_2 1_555 1_555
C19_4 C20_4 1_555 1_555
C20_4 C21_4 1_555 1_555
C21_4 H13_4 1_555 1_555
C22_4 C20_4 1_555 1_555
H14_4 C22_4 1_555 1_555
C23_4 C21_4 1_555 1_555
C24_4 C22_4 1_555 1_555
H15_4 C24_4 1_555 1_555
C25_4 C23_4 1_555 1_555
C26_4 C23_4 1_555 1_555
H16_4 C26_4 1_555 1_555
C27_4 C26_4 1_555 1_555
H17_4 C27_4 1_555 1_555
C28_4 C25_4 1_555 1_555
H18_4 C28_4 1_555 1_555
C29_4 C27_4 1_555 1_555
C30_4 C29_4 1_555 1_555
O5_4 C19_4 1_555 1_555
O9_2 C30_4 1_555 1_555
O12_2 C30_4 1_555 1_555
C19_4 O6_4 1_555 1_555
C24_4 C25_4 1_555 1_555
C28_4 C29_4 1_555 1_555
Cu7_2 O5_4 1_555 1_555
C1_4 C2_4 1_555 1_555
C2_4 C3_4 1_555 1_555
C3_4 H1_4 1_555 1_555
C4_4 C2_4 1_555 1_555
H2_4 C4_4 1_555 1_555
C5_4 C3_4 1_555 1_555
C6_4 C4_4 1_555 1_555
H3_4 C6_4 1_555 1_555
C7_4 C5_4 1_555 1_555
C8_4 C5_4 1_555 1_555
H4_4 C8_4 1_555 1_555
C9_4 C8_4 1_555 1_555
H5_4 C9_4 1_555 1_555
C10_4 C7_4 1_555 1_555
H6_4 C10_4 1_555 1_555
C11_4 C9_4 1_555 1_555
C12_4 C11_4 1_555 1_555
O1_4 C1_4 1_555 1_555
O2_4 C1_4 1_555 1_555
O8_2 C12_4 1_555 1_555
O11_2 C12_4 1_555 1_555
C6_4 C7_4 1_555 1_555
C10_4 C11_4 1_555 1_555
Cu7 O1_4 1_555 1_555
C13_3 H7_3 1_555 1_555
C14_3 H8_3 1_555 1_555
C15_3 C13_3 1_555 1_555
H9_3 C15_3 1_555 1_555
C16_3 C14_3 1_555 1_555
H10_3 C16_3 1_555 1_555
C17_3 C15_3 1_555 1_555
C18_3 C17_3 1_555 1_555
H11_3 C18_3 1_555 1_555
H12_3 C18_3 1_555 1_555
N1 C13_3 1_555 1_555
C31_3 H19_3 1_555 1_555
C32_3 H20_3 1_555 1_555
C33_3 C31_3 1_555 1_555
H21_3 C33_3 1_555 1_555
C34_3 C32_3 1_555 1_555
H22_3 C34_3 1_555 1_555
C35_3 C33_3 1_555 1_555
C36_3 C18_3 1_555 1_555
H23_3 C36_3 1_555 1_555
H24_3 C36_3 1_555 1_555
N2_3 C31_3 1_555 1_555
C14_3 N1 1_555 1_555
C16_3 C17_3 1_555 1_555
C32_3 N2_3 1_555 1_555
C34_3 C35_3 1_555 1_555
C35_3 C36_3 1_555 1_555
C13_4 H7_4 1_555 1_555
C14_4 H8_4 1_555 1_555
C15_4 C13_4 1_555 1_555
H9_4 C15_4 1_555 1_555
C16_4 C14_4 1_555 1_555
H10_4 C16_4 1_555 1_555
C17_4 C15_4 1_555 1_555
C18_4 C17_4 1_555 1_555
H11_4 C18_4 1_555 1_555
H12_4 C18_4 1_555 1_555
N1_2 C13_4 1_555 1_555
C31_4 H19_4 1_555 1_555
C32_4 H20_4 1_555 1_555
C33_4 C31_4 1_555 1_555
H21_4 C33_4 1_555 1_555
C34_4 C32_4 1_555 1_555
H22_4 C34_4 1_555 1_555
C35_4 C33_4 1_555 1_555
C36_4 C18_4 1_555 1_555
H23_4 C36_4 1_555 1_555
H24_4 C36_4 1_555 1_555
N2_4 C31_4 1_555 1_555
C14_4 N1_2 1_555 1_555
C16_4 C17_4 1_555 1_555
C32_4 N2_4 1_555 1_555
C34_4 C35_4 1_555 1_555
C35_4 C36_4 1_555 1_555

#END
