
###############################################################################
#
# This file contains modified crystal structure data generated from the
# MOF subset of the Cambridge Structural Database (CSD) v543 
# hosted by the Cambridge Crystallographic Data Centre (CCDC).
#
# This work is licensed under the Creative Commons
# Attribution-NonCommercial-ShareAlike 4.0 International License.
# To view a copy of this license, visit
# http://creativecommons.org/licenses/by-nc-sa/4.0/
# or send a letter to
# Creative Commons, PO Box 1866, Mountain View, CA 94042, USA.
#
# CIF created using the CSD Python API on 29 September 2022
# The structure has been converted into the P1 space group
# The structure has a 3D framework
# The original CSD entry BUSQOW is in the monoclinic crystal system
# The original CSD entry BUSQOW is in a Sohncke space group
# The framework has been calculated to contain at least 10.0% void space
# The void calculation uses a probe of radius 1.32A, grid spacing 0.4
#
###############################################################################

data_BUSQOW
_chemical_formula_moiety         '(C204 H120 Cu9 N12 O48)n'
_symmetry_cell_setting           triclinic
_symmetry_space_group_name_H-M   'P 1'
_symmetry_Int_Tables_number      1
_space_group_name_Hall           'P 1'
loop_
_symmetry_equiv_pos_site_id
_symmetry_equiv_pos_as_xyz
1 x,y,z
_cell_length_a                   17.250(10)
_cell_length_b                   19.467(9)
_cell_length_c                   14.031(12)
_cell_angle_alpha                90
_cell_angle_beta                 95.22(5)
_cell_angle_gamma                90
_cell_volume                     4692.15
loop_
_atom_site_label
_atom_site_type_symbol
_atom_site_fract_x
_atom_site_fract_y
_atom_site_fract_z
Cu5 Cu 0.00392(3) 0.68757(3) 0.40607(3)
Cu1 Cu 0.50392(3) 0.18757(3) 0.40607(3)
N1 N 0.5026(2) 0.1895(4) 0.2510(2)
O1 O 0.5874(3) 0.2569(2) 0.4337(4)
O2 O 0.5750(3) 0.2624(2) 0.5911(4)
O3 O 0.9203(3) 0.6147(2) 0.5688(4)
O4 O 0.9233(3) 0.6186(2) 0.4091(4)
C1 C 0.5617(3) 0.1614(4) 0.2079(3)
H1 H 0.6026 0.1410 0.2454
C2 C 0.5634(3) 0.1619(4) 0.1096(3)
H2 H 0.6061 0.1444 0.0817
C3 C 0.5003(3) 0.1889(5) 0.0530(3)
C4 C 0.4390(3) 0.2141(4) 0.0988(3)
H3 H 0.3950 0.2312 0.0633
C5 C 0.4431(3) 0.2139(4) 0.1968(3)
H4 H 0.4016 0.2321 0.2264
C6 C 0.6011(4) 0.2815(3) 0.5180(5)
C7 C 0.6569(4) 0.3409(3) 0.5287(5)
C8 C 0.6638(5) 0.3800(4) 0.6136(5)
H5 H 0.6377 0.3666 0.6657
C9 C 0.7089(5) 0.4371(4) 0.6187(6)
H6 H 0.7101 0.4642 0.6734
C10 C 0.7536(4) 0.4568(3) 0.5452(5)
C11 C 0.8022(4) 0.5146(3) 0.5505(5)
H7 H 0.8056 0.5413 0.6057
C12 C 0.8439(4) 0.5325(3) 0.4790(5)
C13 C 0.8351(5) 0.4962(4) 0.3916(6)
H8 H 0.8626 0.5104 0.3412
C14 C 0.7867(5) 0.4405(4) 0.3797(5)
H9 H 0.7798 0.4176 0.3214
C15 C 0.7471(5) 0.4186(4) 0.4602(5)
C16 C 0.6962(5) 0.3601(4) 0.4523(5)
H10 H 0.6899 0.3353 0.3955
C17 C 0.8988(4) 0.5925(3) 0.4868(5)
Cu3 Cu 0.49608(3) 0.18757(3) 0.59393(3)
Cu4 Cu 0.99608(3) 0.68757(3) 0.59393(3)
O5 O 0.4126(3) 0.2569(2) 0.5663(4)
O7 O 0.4250(3) 0.2624(2) 0.4089(4)
O9 O 0.0797(3) 0.6147(2) 0.4312(4)
O10 O 0.5797(3) 0.1147(2) 0.4312(4)
O12 O 0.0767(3) 0.6186(2) 0.5909(4)
O13 O 0.4233(3) 0.1186(2) 0.4091(4)
C23 C 0.3989(4) 0.2815(3) 0.4820(5)
C24 C 0.3431(4) 0.3409(3) 0.4713(5)
C25 C 0.3362(5) 0.3800(4) 0.3864(5)
H15 H 0.3623 0.3666 0.3343
C26 C 0.2911(5) 0.4371(4) 0.3813(6)
H16 H 0.2899 0.4642 0.3266
C27 C 0.2464(4) 0.4568(3) 0.4548(5)
C28 C 0.1978(4) 0.5146(3) 0.4495(5)
H17 H 0.1944 0.5413 0.3943
C29 C 0.1561(4) 0.5325(3) 0.5210(5)
C30 C 0.1649(5) 0.4962(4) 0.6084(6)
H18 H 0.1374 0.5104 0.6588
C31 C 0.2133(5) 0.4405(4) 0.6203(5)
H19 H 0.2202 0.4176 0.6786
C32 C 0.2529(5) 0.4186(4) 0.5398(5)
C33 C 0.3038(5) 0.3601(4) 0.5477(5)
H20 H 0.3101 0.3353 0.6045
C34 C 0.1012(4) 0.5925(3) 0.5132(5)
N2 N 0.4974(2) 0.1895(4) 0.7490(2)
O11 O 0.4203(3) 0.1147(2) 0.5688(4)
O14 O 0.5767(3) 0.1186(2) 0.5909(4)
C18 C 0.4383(3) 0.1614(4) 0.7921(3)
H11 H 0.3974 0.1410 0.7546
C19 C 0.4366(3) 0.1619(4) 0.8904(3)
H12 H 0.3939 0.1444 0.9183
C20 C 0.4997(3) 0.1889(5) 0.9470(3)
C21 C 0.5610(3) 0.2141(4) 0.9012(3)
H13 H 0.6050 0.2312 0.9367
C22 C 0.5569(3) 0.2139(4) 0.8032(3)
H14 H 0.5984 0.2321 0.7736
C11_2 C 0.3022(4) 0.0146(3) 0.5505(5)
H7_2 H 0.3056 0.0413 0.6057
C12_2 C 0.3439(4) 0.0325(3) 0.4790(5)
H8_2 H 0.3626 0.0104 0.3412
C17_2 C 0.3988(4) 0.0925(3) 0.4868(5)
N1_2 N 0.0026(2) 0.6895(4) 0.2510(2)
O1_2 O 0.0874(3) 0.7569(2) 0.4337(4)
O2_2 O 0.0750(3) 0.7624(2) 0.5911(4)
C1_2 C 0.0617(3) 0.6614(4) 0.2079(3)
H1_2 H 0.1026 0.6410 0.2454
C2_2 C 0.0634(3) 0.6619(4) 0.1096(3)
H2_2 H 0.1061 0.6444 0.0817
C3_2 C 0.0003(3) 0.6889(5) 0.0530(3)
C6_2 C 0.1011(4) 0.7815(3) 0.5180(5)
C7_2 C 0.1569(4) 0.8409(3) 0.5287(5)
C8_2 C 0.1638(5) 0.8800(4) 0.6136(5)
H5_2 H 0.1377 0.8666 0.6657
C9_2 C 0.2089(5) 0.9371(4) 0.6187(6)
H6_2 H 0.2101 0.9642 0.6734
C10_2 C 0.2536(4) 0.9568(3) 0.5452(5)
C13_2 C 0.3351(5) 0.9962(4) 0.3916(6)
C14_2 C 0.2867(5) 0.9405(4) 0.3797(5)
H9_2 H 0.2798 0.9176 0.3214
C15_2 C 0.2471(5) 0.9186(4) 0.4602(5)
C16_2 C 0.1962(5) 0.8601(4) 0.4523(5)
H10_2 H 0.1899 0.8353 0.3955
C21_2 C 0.0610(3) 0.7141(4) 0.9012(3)
H13_2 H 0.1050 0.7312 0.9367
C22_2 C 0.0569(3) 0.7139(4) 0.8032(3)
H14_2 H 0.0984 0.7321 0.7736
C28_2 C 0.6978(4) 0.0146(3) 0.4495(5)
H17_2 H 0.6944 0.0413 0.3943
C29_2 C 0.6561(4) 0.0325(3) 0.5210(5)
H18_2 H 0.6374 0.0104 0.6588
C34_2 C 0.6012(4) 0.0925(3) 0.5132(5)
C4_2 C 0.9390(3) 0.7141(4) 0.0988(3)
H3_2 H 0.8950 0.7312 0.0633
C5_2 C 0.9431(3) 0.7139(4) 0.1968(3)
H4_2 H 0.9016 0.7321 0.2264
O5_2 O 0.9126(3) 0.7569(2) 0.5663(4)
O7_2 O 0.9250(3) 0.7624(2) 0.4089(4)
C23_2 C 0.8989(4) 0.7815(3) 0.4820(5)
C24_2 C 0.8431(4) 0.8409(3) 0.4713(5)
C25_2 C 0.8362(5) 0.8800(4) 0.3864(5)
H15_2 H 0.8623 0.8666 0.3343
C26_2 C 0.7911(5) 0.9371(4) 0.3813(6)
H16_2 H 0.7899 0.9642 0.3266
C27_2 C 0.7464(4) 0.9568(3) 0.4548(5)
C30_2 C 0.6649(5) 0.9962(4) 0.6084(6)
C31_2 C 0.7133(5) 0.9405(4) 0.6203(5)
H19_2 H 0.7202 0.9176 0.6786
C32_2 C 0.7529(5) 0.9186(4) 0.5398(5)
C33_2 C 0.8038(5) 0.8601(4) 0.5477(5)
H20_2 H 0.8101 0.8353 0.6045
N2_2 N 0.9974(2) 0.6895(4) 0.7490(2)
C18_2 C 0.9383(3) 0.6614(4) 0.7921(3)
H11_2 H 0.8974 0.6410 0.7546
C19_2 C 0.9366(3) 0.6619(4) 0.8904(3)
H12_2 H 0.8939 0.6444 0.9183
C20_2 C 0.9997(3) 0.6889(5) 0.9470(3)
Cu15 Cu 0.32579(3) 0.65420(4) 0.25519(3)
Cu20 Cu 0.33505(3) 0.65413(4) 0.06699(3)
O30 O 0.2464(3) 0.5838(2) 0.2270(4)
O32 O 0.2582(3) 0.5817(3) 0.0697(4)
H52 H 0.0386 0.0168 0.0665
C91 C 0.2297(4) 0.5586(3) 0.1466(5)
C92 C 0.1748(4) 0.4978(3) 0.1382(5)
C93 C 0.1257(5) 0.4853(4) 0.2042(6)
H55 H 0.1234 0.5162 0.2544
C94 C 0.0776(5) 0.4276(4) 0.2008(6)
C95 C 0.0224(6) 0.4147(5) 0.2661(7)
H56 H 0.0157 0.4474 0.3130
C98 C 0.0329(5) 0.3219(4) 0.1185(6)
H58 H 0.0343 0.2917 0.0674
C99 C 0.0821(5) 0.3811(4) 0.1238(6)
C100 C 0.1294(6) 0.3974(5) 0.0489(7)
C101 C 0.1752(6) 0.4548(4) 0.0583(6)
H60 H 0.2073 0.4654 0.0105
H59 H 0.1291 0.3697 0.9949
N5 N 0.3262(2) 0.6511(4) 0.4094(2)
N6 N 0.3329(2) 0.6523(5) 0.9126(2)
O23 O 0.2448(3) 0.7258(2) 0.2302(4)
O24 O 0.2530(3) 0.7267(2) 0.0711(4)
O27 O 0.4037(3) 0.5823(3) 0.2526(4)
O35 O 0.4070(3) 0.7274(2) 0.2506(4)
C69 C 0.3771(3) 0.6130(4) 0.4632(3)
H41 H 0.4121 0.5863 0.4326
C70 C 0.3810(4) 0.6109(4) 0.5621(3)
H42 H 0.4185 0.5844 0.5968
C71 C 0.3279(3) 0.6491(6) 0.6084(3)
C72 C 0.2715(3) 0.6845(5) 0.5517(3)
H43 H 0.2330 0.7088 0.5795
C73 C 0.2729(3) 0.6834(4) 0.4532(3)
H44 H 0.2340 0.7067 0.4161
C74 C 0.3295(3) 0.6508(6) 0.7140(3)
C75 C 0.3984(3) 0.6540(5) 0.7707(3)
H45 H 0.4455 0.6554 0.7433
C76 C 0.3972(3) 0.6550(5) 0.8696(3)
H46 H 0.4444 0.6577 0.9071
C77 C 0.2665(3) 0.6452(5) 0.8585(3)
H47 H 0.2210 0.6400 0.8885
C78 C 0.2611(3) 0.6451(5) 0.7586(3)
H48 H 0.2131 0.6412 0.7230
C79 C 0.2298(4) 0.7487(3) 0.1447(5)
C80 C 0.1775(4) 0.8093(3) 0.1350(5)
C81 C 0.1306(4) 0.8244(3) 0.2077(5)
H49 H 0.1313 0.7960 0.2610
C82 C 0.0814(4) 0.8833(4) 0.2009(5)
C83 C 0.0334(5) 0.9002(4) 0.2749(5)
H50 H 0.0336 0.8728 0.3293
C86 C 0.0363(5) 0.9862(4) 0.1171(5)
C87 C 0.0841(4) 0.9283(4) 0.1211(5)
C88 C 0.1345(4) 0.9121(4) 0.0522(5)
H53 H 0.1375 0.9420 0.0010
C89 C 0.1797(5) 0.8547(4) 0.0562(6)
H54 H 0.2117 0.8454 0.0078
Cu10 Cu 0.83505(3) 0.15413(4) 0.06699(3)
Cu12 Cu 0.82579(3) 0.15420(4) 0.25519(3)
O25 O 0.7530(3) 0.2267(2) 0.0711(4)
O29 O 0.9152(3) 0.0843(2) 0.0949(4)
O33 O 0.7582(3) 0.0817(3) 0.0697(4)
O37 O 0.9151(3) 0.2256(2) 0.0918(4)
N3 N 0.8262(2) 0.1511(4) 0.4094(2)
N4 N 0.8329(2) 0.1523(5) 0.9126(2)
O15 O 0.7448(3) 0.2258(2) 0.2302(4)
O18 O 0.4152(3) 0.5843(2) 0.0949(4)
O19 O 0.7464(3) 0.0838(2) 0.2270(4)
C35 C 0.8771(3) 0.1130(4) 0.4632(3)
H21 H 0.9121 0.0863 0.4326
C36 C 0.8810(4) 0.1109(4) 0.5621(3)
H22 H 0.9185 0.0844 0.5968
C37 C 0.8279(3) 0.1491(6) 0.6084(3)
C38 C 0.7715(3) 0.1845(5) 0.5517(3)
H23 H 0.7330 0.2088 0.5795
C39 C 0.7729(3) 0.1834(4) 0.4532(3)
H24 H 0.7340 0.2067 0.4161
C40 C 0.8295(3) 0.1508(6) 0.7140(3)
C41 C 0.8984(3) 0.1540(5) 0.7707(3)
H25 H 0.9455 0.1554 0.7433
C42 C 0.8972(3) 0.1550(5) 0.8696(3)
H26 H 0.9444 0.1577 0.9071
C43 C 0.7665(3) 0.1452(5) 0.8585(3)
H27 H 0.7210 0.1400 0.8885
C44 C 0.7611(3) 0.1451(5) 0.7586(3)
H28 H 0.7131 0.1412 0.7230
C45 C 0.7298(4) 0.2487(3) 0.1447(5)
C46 C 0.6775(4) 0.3093(3) 0.1350(5)
C47 C 0.6306(4) 0.3244(3) 0.2077(5)
H29 H 0.6313 0.2960 0.2610
C48 C 0.5814(4) 0.3833(4) 0.2009(5)
C49 C 0.5334(5) 0.4002(4) 0.2749(5)
H30 H 0.5336 0.3728 0.3293
C50 C 0.4873(5) 0.4569(4) 0.2651(5)
H31 H 0.4553 0.4678 0.3128
C51 C 0.4871(4) 0.4993(3) 0.1837(5)
C52 C 0.5363(5) 0.4862(4) 0.1171(5)
H32 H 0.5386 0.5168 0.0665
C53 C 0.5841(4) 0.4283(4) 0.1211(5)
C54 C 0.6345(4) 0.4121(4) 0.0522(5)
H33 H 0.6375 0.4420 0.0010
C55 C 0.6797(5) 0.3547(4) 0.0562(6)
H34 H 0.7117 0.3454 0.0078
C56 C 0.4325(4) 0.5594(3) 0.1756(5)
C57 C 0.7297(4) 0.0586(3) 0.1466(5)
H35 H 0.6234 0.0162 0.2544
O26 O 0.9037(3) 0.0823(3) 0.2526(4)
O34 O 0.9070(3) 0.2274(2) 0.2506(4)
C90 C 0.9325(4) 0.0594(3) 0.1756(5)
C96 C 0.9781(6) 0.3568(5) 0.2640(7)
H57 H 0.9449 0.3486 0.3114
C97 C 0.9834(4) 0.3092(4) 0.1884(6)
C102 C 0.9305(4) 0.2484(3) 0.1781(5)
O22 O 0.4151(3) 0.7256(2) 0.0918(4)
C58 C 0.6748(4) 0.9978(3) 0.1382(5)
C59 C 0.6257(5) 0.9853(4) 0.2042(6)
C60 C 0.5776(5) 0.9276(4) 0.2008(6)
C61 C 0.5224(6) 0.9147(5) 0.2661(7)
H36 H 0.5157 0.9474 0.3130
C62 C 0.4781(6) 0.8568(5) 0.2640(7)
H37 H 0.4449 0.8486 0.3114
C63 C 0.4834(4) 0.8092(4) 0.1884(6)
C64 C 0.5329(5) 0.8219(4) 0.1185(6)
H38 H 0.5343 0.7917 0.0674
C65 C 0.5821(5) 0.8811(4) 0.1238(6)
C66 C 0.6294(6) 0.8974(5) 0.0489(7)
C67 C 0.6752(6) 0.9548(4) 0.0583(6)
H40 H 0.7073 0.9654 0.0105
C68 C 0.4305(4) 0.7484(3) 0.1781(5)
C84 C 0.9873(5) 0.9569(4) 0.2651(5)
H51 H 0.9553 0.9678 0.3128
C85 C 0.9871(4) 0.9993(3) 0.1837(5)
H39 H 0.6291 0.8697 0.9949
N7 N 0.1671(2) 0.1523(5) 0.0874(2)
Cu9 Cu 0.17421(3) 0.15420(4) 0.74481(3)
N3_2 N 0.1738(2) 0.1511(4) 0.5906(2)
O15_2 O 0.2552(3) 0.2258(2) 0.7698(4)
O16 O 0.2470(3) 0.2267(2) 0.9289(4)
O17 O 0.5963(3) 0.5823(3) 0.7474(4)
O18_2 O 0.5848(3) 0.5843(2) 0.9051(4)
O19_2 O 0.2536(3) 0.0838(2) 0.7730(4)
O20 O 0.2418(3) 0.0817(3) 0.9303(4)
C35_2 C 0.1229(3) 0.1130(4) 0.5368(3)
H21_2 H 0.0879 0.0863 0.5674
C36_2 C 0.1190(4) 0.1109(4) 0.4379(3)
H22_2 H 0.0815 0.0844 0.4032
C37_2 C 0.1721(3) 0.1491(6) 0.3916(3)
C38_2 C 0.2285(3) 0.1845(5) 0.4483(3)
H23_2 H 0.2670 0.2088 0.4205
C39_2 C 0.2271(3) 0.1834(4) 0.5468(3)
H24_2 H 0.2660 0.2067 0.5839
C40_2 C 0.1705(3) 0.1508(6) 0.2860(3)
C41_2 C 0.1016(3) 0.1540(5) 0.2293(3)
H25_2 H 0.0545 0.1554 0.2567
C42_2 C 0.1028(3) 0.1550(5) 0.1304(3)
H26_2 H 0.0556 0.1577 0.0929
C43_2 C 0.2335(3) 0.1452(5) 0.1415(3)
H27_2 H 0.2790 0.1400 0.1115
C44_2 C 0.2389(3) 0.1451(5) 0.2414(3)
H28_2 H 0.2869 0.1412 0.2770
C45_2 C 0.2702(4) 0.2487(3) 0.8553(5)
C46_2 C 0.3225(4) 0.3093(3) 0.8650(5)
C47_2 C 0.3694(4) 0.3244(3) 0.7923(5)
H29_2 H 0.3687 0.2960 0.7390
C48_2 C 0.4186(4) 0.3833(4) 0.7991(5)
C49_2 C 0.4666(5) 0.4002(4) 0.7251(5)
H30_2 H 0.4664 0.3728 0.6707
C50_2 C 0.5127(5) 0.4569(4) 0.7349(5)
H31_2 H 0.5447 0.4678 0.6872
C51_2 C 0.5129(4) 0.4993(3) 0.8163(5)
C52_2 C 0.4637(5) 0.4862(4) 0.8829(5)
H32_2 H 0.4614 0.5168 0.9335
C53_2 C 0.4159(4) 0.4283(4) 0.8789(5)
C54_2 C 0.3655(4) 0.4121(4) 0.9478(5)
H33_2 H 0.3625 0.4420 0.9990
C55_2 C 0.3203(5) 0.3547(4) 0.9438(6)
H34_2 H 0.2883 0.3454 0.9922
C56_2 C 0.5675(4) 0.5594(3) 0.8244(5)
C57_2 C 0.2703(4) 0.0586(3) 0.8534(5)
H35_2 H 0.3766 0.0162 0.7456
Cu13 Cu 0.67421(3) 0.65420(4) 0.74481(3)
Cu16 Cu 0.16495(3) 0.15413(4) 0.93301(3)
Cu17 Cu 0.66495(3) 0.65413(4) 0.93301(3)
O26_2 O 0.0963(3) 0.0823(3) 0.7474(4)
O28 O 0.0848(3) 0.0843(2) 0.9051(4)
O34_2 O 0.0930(3) 0.2274(2) 0.7494(4)
O36 O 0.0849(3) 0.2256(2) 0.9082(4)
C90_2 C 0.0675(4) 0.0594(3) 0.8244(5)
C96_2 C 0.0219(6) 0.3568(5) 0.7360(7)
H57_2 H 0.0551 0.3486 0.6886
C97_2 C 0.0166(4) 0.3092(4) 0.8116(6)
C102_2 C 0.0695(4) 0.2484(3) 0.8219(5)
H39_2 H 0.3709 0.8697 0.0051
O21 O 0.5930(3) 0.7274(2) 0.7494(4)
O22_2 O 0.5849(3) 0.7256(2) 0.9082(4)
C58_2 C 0.3252(4) 0.9978(3) 0.8618(5)
C59_2 C 0.3743(5) 0.9853(4) 0.7958(6)
C60_2 C 0.4224(5) 0.9276(4) 0.7992(6)
C61_2 C 0.4776(6) 0.9147(5) 0.7339(7)
H36_2 H 0.4843 0.9474 0.6870
C62_2 C 0.5219(6) 0.8568(5) 0.7360(7)
H37_2 H 0.5551 0.8486 0.6886
C63_2 C 0.5166(4) 0.8092(4) 0.8116(6)
C64_2 C 0.4671(5) 0.8219(4) 0.8815(6)
H38_2 H 0.4657 0.7917 0.9326
C65_2 C 0.4179(5) 0.8811(4) 0.8762(6)
C66_2 C 0.3706(6) 0.8974(5) 0.9511(7)
C67_2 C 0.3248(6) 0.9548(4) 0.9417(6)
H40_2 H 0.2927 0.9654 0.9895
C68_2 C 0.5695(4) 0.7484(3) 0.8219(5)
C84_2 C 0.0127(5) 0.9569(4) 0.7349(5)
H51_2 H 0.0447 0.9678 0.6872
C85_2 C 0.0129(4) 0.9993(3) 0.8163(5)
H59_2 H 0.8709 0.3697 0.0051
O30_2 O 0.7536(3) 0.5838(2) 0.7730(4)
O32_2 O 0.7418(3) 0.5817(3) 0.9303(4)
H52_2 H 0.9614 0.0168 0.9335
C91_2 C 0.7703(4) 0.5586(3) 0.8534(5)
C92_2 C 0.8252(4) 0.4978(3) 0.8618(5)
C93_2 C 0.8743(5) 0.4853(4) 0.7958(6)
H55_2 H 0.8766 0.5162 0.7456
C94_2 C 0.9224(5) 0.4276(4) 0.7992(6)
C95_2 C 0.9776(6) 0.4147(5) 0.7339(7)
H56_2 H 0.9843 0.4474 0.6870
C98_2 C 0.9671(5) 0.3219(4) 0.8815(6)
H58_2 H 0.9657 0.2917 0.9326
C99_2 C 0.9179(5) 0.3811(4) 0.8762(6)
C100_2 C 0.8706(6) 0.3974(5) 0.9511(7)
C101_2 C 0.8248(6) 0.4548(4) 0.9417(6)
H60_2 H 0.7927 0.4654 0.9895
N5_2 N 0.6738(2) 0.6511(4) 0.5906(2)
N6_2 N 0.6671(2) 0.6523(5) 0.0874(2)
O23_2 O 0.7552(3) 0.7258(2) 0.7698(4)
O24_2 O 0.7470(3) 0.7267(2) 0.9289(4)
C69_2 C 0.6229(3) 0.6130(4) 0.5368(3)
H41_2 H 0.5879 0.5863 0.5674
C70_2 C 0.6190(4) 0.6109(4) 0.4379(3)
H42_2 H 0.5815 0.5844 0.4032
C71_2 C 0.6721(3) 0.6491(6) 0.3916(3)
C72_2 C 0.7285(3) 0.6845(5) 0.4483(3)
H43_2 H 0.7670 0.7088 0.4205
C73_2 C 0.7271(3) 0.6834(4) 0.5468(3)
H44_2 H 0.7660 0.7067 0.5839
C74_2 C 0.6705(3) 0.6508(6) 0.2860(3)
C75_2 C 0.6016(3) 0.6540(5) 0.2293(3)
H45_2 H 0.5545 0.6554 0.2567
C76_2 C 0.6028(3) 0.6550(5) 0.1304(3)
H46_2 H 0.5556 0.6577 0.0929
C77_2 C 0.7335(3) 0.6452(5) 0.1415(3)
H47_2 H 0.7790 0.6400 0.1115
C78_2 C 0.7389(3) 0.6451(5) 0.2414(3)
H48_2 H 0.7869 0.6412 0.2770
C79_2 C 0.7702(4) 0.7487(3) 0.8553(5)
C80_2 C 0.8225(4) 0.8093(3) 0.8650(5)
C81_2 C 0.8694(4) 0.8244(3) 0.7923(5)
H49_2 H 0.8687 0.7960 0.7390
C82_2 C 0.9186(4) 0.8833(4) 0.7991(5)
C83_2 C 0.9666(5) 0.9002(4) 0.7251(5)
H50_2 H 0.9664 0.8728 0.6707
C86_2 C 0.9637(5) 0.9862(4) 0.8829(5)
C87_2 C 0.9159(4) 0.9283(4) 0.8789(5)
C88_2 C 0.8655(4) 0.9121(4) 0.9478(5)
H53_2 H 0.8625 0.9420 0.9990
C89_2 C 0.8203(5) 0.8547(4) 0.9438(6)
H54_2 H 0.7883 0.8454 0.9922
loop_
_geom_bond_atom_site_label_1
_geom_bond_atom_site_label_2
_geom_bond_site_symmetry_1
_geom_bond_site_symmetry_2
Cu1 N1 1_555 1_555
N1 C1 1_555 1_555
O1 Cu1 1_555 1_555
O2 C6 1_555 1_555
O3 C17 1_555 1_555
O4 C17 1_555 1_555
C1 H1 1_555 1_555
C2 C1 1_555 1_555
H2 C2 1_555 1_555
C3 C2 1_555 1_555
C4 C3 1_555 1_555
H3 C4 1_555 1_555
C5 N1 1_555 1_555
H4 C5 1_555 1_555
C6 O1 1_555 1_555
C7 C6 1_555 1_555
C8 C7 1_555 1_555
H5 C8 1_555 1_555
C9 C8 1_555 1_555
H6 C9 1_555 1_555
C10 C9 1_555 1_555
C11 C10 1_555 1_555
H7 C11 1_555 1_555
C12 C11 1_555 1_555
C13 C12 1_555 1_555
H8 C13 1_555 1_555
C14 C13 1_555 1_555
H9 C14 1_555 1_555
C15 C10 1_555 1_555
C16 C7 1_555 1_555
H10 C16 1_555 1_555
C17 C12 1_555 1_555
Cu3 Cu1 1_555 1_555
Cu4 O3 1_555 1_555
O5 Cu3 1_555 1_555
O7 Cu1 1_555 1_555
O9 Cu5 1_555 1_555
O10 Cu1 1_555 1_555
O12 C34 1_555 1_555
O13 Cu1 1_555 1_555
C23 O5 1_555 1_555
C24 C23 1_555 1_555
C25 C24 1_555 1_555
H15 C25 1_555 1_555
C26 C25 1_555 1_555
H16 C26 1_555 1_555
C27 C26 1_555 1_555
C28 C27 1_555 1_555
H17 C28 1_555 1_555
C29 C28 1_555 1_555
C30 C29 1_555 1_555
H18 C30 1_555 1_555
C31 C30 1_555 1_555
H19 C31 1_555 1_555
C32 C27 1_555 1_555
C33 C24 1_555 1_555
H20 C33 1_555 1_555
C34 O9 1_555 1_555
O2 Cu3 1_555 1_555
C4 C5 1_555 1_555
C14 C15 1_555 1_555
C15 C16 1_555 1_555
O7 C23 1_555 1_555
C29 C34 1_555 1_555
C31 C32 1_555 1_555
C32 C33 1_555 1_555
N2 Cu3 1_555 1_555
O11 Cu3 1_555 1_555
O14 Cu3 1_555 1_555
C18 N2 1_555 1_555
H11 C18 1_555 1_555
C19 C18 1_555 1_555
H12 C19 1_555 1_555
C21 C20 1_555 1_555
H13 C21 1_555 1_555
C22 N2 1_555 1_555
H14 C22 1_555 1_555
C19 C20 1_555 1_555
C21 C22 1_555 1_555
O11 C17_2 1_555 1_555
O13 C17_2 1_555 1_555
H7_2 C11_2 1_555 1_555
C12_2 C11_2 1_555 1_555
C17_2 C12_2 1_555 1_555
Cu5 N1_2 1_555 1_555
N1_2 C1_2 1_555 1_555
O1_2 Cu5 1_555 1_555
O2_2 C6_2 1_555 1_555
C1_2 H1_2 1_555 1_555
C2_2 C1_2 1_555 1_555
H2_2 C2_2 1_555 1_555
C3_2 C2_2 1_555 1_555
C6_2 O1_2 1_555 1_555
C7_2 C6_2 1_555 1_555
C8_2 C7_2 1_555 1_555
H5_2 C8_2 1_555 1_555
C9_2 C8_2 1_555 1_555
H6_2 C9_2 1_555 1_555
C10_2 C9_2 1_555 1_555
C14_2 C13_2 1_555 1_555
H9_2 C14_2 1_555 1_555
C15_2 C10_2 1_555 1_555
C16_2 C7_2 1_555 1_555
H10_2 C16_2 1_555 1_555
C14_2 C15_2 1_555 1_555
C15_2 C16_2 1_555 1_555
H13_2 C21_2 1_555 1_555
H14_2 C22_2 1_555 1_555
C21_2 C22_2 1_555 1_555
O14 C34_2 1_555 1_555
H17_2 C28_2 1_555 1_555
C29_2 C28_2 1_555 1_555
C34_2 O10 1_555 1_555
C29_2 C34_2 1_555 1_555
H3_2 C4_2 1_555 1_555
H4_2 C5_2 1_555 1_555
O5_2 Cu4 1_555 1_555
C23_2 O5_2 1_555 1_555
C24_2 C23_2 1_555 1_555
C25_2 C24_2 1_555 1_555
H15_2 C25_2 1_555 1_555
C26_2 C25_2 1_555 1_555
H16_2 C26_2 1_555 1_555
C27_2 C26_2 1_555 1_555
C31_2 C30_2 1_555 1_555
H19_2 C31_2 1_555 1_555
C32_2 C27_2 1_555 1_555
C33_2 C24_2 1_555 1_555
H20_2 C33_2 1_555 1_555
C4_2 C5_2 1_555 1_555
O7_2 C23_2 1_555 1_555
C31_2 C32_2 1_555 1_555
C32_2 C33_2 1_555 1_555
N2_2 Cu4 1_555 1_555
C18_2 N2_2 1_555 1_555
H11_2 C18_2 1_555 1_555
C19_2 C18_2 1_555 1_555
H12_2 C19_2 1_555 1_555
C19_2 C20_2 1_555 1_555
Cu15 Cu20 1_555 1_555
Cu20 O32 1_555 1_555
O30 Cu15 1_555 1_555
O32 C91 1_555 1_555
C91 O30 1_555 1_555
C92 C91 1_555 1_555
C93 C92 1_555 1_555
H55 C93 1_555 1_555
C94 C93 1_555 1_555
C95 C94 1_555 1_555
H56 C95 1_555 1_555
H58 C98 1_555 1_555
C99 C94 1_555 1_555
C100 C99 1_555 1_555
C101 C92 1_555 1_555
H60 C101 1_555 1_555
C98 C99 1_555 1_555
C100 C101 1_555 1_555
Cu20 O24 1_555 1_555
N5 Cu15 1_555 1_555
N6 C76 1_555 1_555
O23 Cu15 1_555 1_555
O24 C79 1_555 1_555
O27 Cu15 1_555 1_555
O35 Cu15 1_555 1_555
C69 N5 1_555 1_555
H41 C69 1_555 1_555
C70 C69 1_555 1_555
H42 C70 1_555 1_555
C71 C70 1_555 1_555
C72 C71 1_555 1_555
H43 C72 1_555 1_555
C73 N5 1_555 1_555
H44 C73 1_555 1_555
C74 C71 1_555 1_555
C75 C74 1_555 1_555
H45 C75 1_555 1_555
C76 C75 1_555 1_555
H46 C76 1_555 1_555
C77 N6 1_555 1_555
H47 C77 1_555 1_555
C78 C74 1_555 1_555
H48 C78 1_555 1_555
C79 O23 1_555 1_555
C80 C79 1_555 1_555
C81 C80 1_555 1_555
H49 C81 1_555 1_555
C82 C81 1_555 1_555
C83 C82 1_555 1_555
H50 C83 1_555 1_555
C87 C82 1_555 1_555
C88 C87 1_555 1_555
H53 C88 1_555 1_555
C89 C80 1_555 1_555
H54 C89 1_555 1_555
C72 C73 1_555 1_555
C77 C78 1_555 1_555
C86 C87 1_555 1_555
C88 C89 1_555 1_555
Cu12 Cu10 1_555 1_555
O25 Cu10 1_555 1_555
O29 Cu10 1_555 1_555
O33 Cu10 1_555 1_555
O37 Cu10 1_555 1_555
Cu12 N3 1_555 1_555
N3 C35 1_555 1_555
N4 C42 1_555 1_555
O15 Cu12 1_555 1_555
O25 C45 1_555 1_555
O27 C56 1_555 1_555
O18 C56 1_555 1_555
O19 Cu12 1_555 1_555
O33 C57 1_555 1_555
C35 H21 1_555 1_555
C36 C35 1_555 1_555
H22 C36 1_555 1_555
C37 C36 1_555 1_555
C38 C37 1_555 1_555
H23 C38 1_555 1_555
C39 N3 1_555 1_555
H24 C39 1_555 1_555
C40 C37 1_555 1_555
C41 C40 1_555 1_555
H25 C41 1_555 1_555
C42 C41 1_555 1_555
H26 C42 1_555 1_555
C43 N4 1_555 1_555
H27 C43 1_555 1_555
C44 C40 1_555 1_555
H28 C44 1_555 1_555
C45 O15 1_555 1_555
C46 C45 1_555 1_555
C47 C46 1_555 1_555
H29 C47 1_555 1_555
C48 C47 1_555 1_555
C49 C48 1_555 1_555
H30 C49 1_555 1_555
C50 C49 1_555 1_555
H31 C50 1_555 1_555
C51 C50 1_555 1_555
C52 C51 1_555 1_555
H32 C52 1_555 1_555
C53 C48 1_555 1_555
C54 C53 1_555 1_555
H33 C54 1_555 1_555
C55 C46 1_555 1_555
H34 C55 1_555 1_555
C56 C51 1_555 1_555
C57 O19 1_555 1_555
Cu20 O18 1_555 1_555
O26 Cu12 1_555 1_555
O34 Cu12 1_555 1_555
C90 O26 1_555 1_555
H57 C96 1_555 1_555
C97 C96 1_555 1_555
C102 O34 1_555 1_555
C38 C39 1_555 1_555
C43 C44 1_555 1_555
C52 C53 1_555 1_555
C54 C55 1_555 1_555
O29 C90 1_555 1_555
O37 C102 1_555 1_555
C97 C102 1_555 1_555
O35 C68 1_555 1_555
O22 C68 1_555 1_555
C59 C58 1_555 1_555
C60 C59 1_555 1_555
C61 C60 1_555 1_555
H36 C61 1_555 1_555
C62 C61 1_555 1_555
H37 C62 1_555 1_555
C63 C62 1_555 1_555
C64 C63 1_555 1_555
H38 C64 1_555 1_555
C65 C60 1_555 1_555
C66 C65 1_555 1_555
C67 C58 1_555 1_555
H40 C67 1_555 1_555
C68 C63 1_555 1_555
Cu20 O22 1_555 1_555
H51 C84 1_555 1_555
C85 C84 1_555 1_555
C64 C65 1_555 1_555
C66 C67 1_555 1_555
Cu9 N3_2 1_555 1_555
N3_2 C35_2 1_555 1_555
N7 C42_2 1_555 1_555
O15_2 Cu9 1_555 1_555
O16 C45_2 1_555 1_555
O17 C56_2 1_555 1_555
O18_2 C56_2 1_555 1_555
O19_2 Cu9 1_555 1_555
O20 C57_2 1_555 1_555
C35_2 H21_2 1_555 1_555
C36_2 C35_2 1_555 1_555
H22_2 C36_2 1_555 1_555
C37_2 C36_2 1_555 1_555
C38_2 C37_2 1_555 1_555
H23_2 C38_2 1_555 1_555
C39_2 N3_2 1_555 1_555
H24_2 C39_2 1_555 1_555
C40_2 C37_2 1_555 1_555
C41_2 C40_2 1_555 1_555
H25_2 C41_2 1_555 1_555
C42_2 C41_2 1_555 1_555
H26_2 C42_2 1_555 1_555
C43_2 N7 1_555 1_555
H27_2 C43_2 1_555 1_555
C44_2 C40_2 1_555 1_555
H28_2 C44_2 1_555 1_555
C45_2 O15_2 1_555 1_555
C46_2 C45_2 1_555 1_555
C47_2 C46_2 1_555 1_555
H29_2 C47_2 1_555 1_555
C48_2 C47_2 1_555 1_555
C49_2 C48_2 1_555 1_555
H30_2 C49_2 1_555 1_555
C50_2 C49_2 1_555 1_555
H31_2 C50_2 1_555 1_555
C51_2 C50_2 1_555 1_555
C52_2 C51_2 1_555 1_555
H32_2 C52_2 1_555 1_555
C53_2 C48_2 1_555 1_555
C54_2 C53_2 1_555 1_555
H33_2 C54_2 1_555 1_555
C55_2 C46_2 1_555 1_555
H34_2 C55_2 1_555 1_555
C56_2 C51_2 1_555 1_555
C57_2 O19_2 1_555 1_555
Cu13 O17 1_555 1_555
Cu16 Cu9 1_555 1_555
Cu17 O18_2 1_555 1_555
O26_2 Cu9 1_555 1_555
O28 Cu16 1_555 1_555
O34_2 Cu9 1_555 1_555
O36 Cu16 1_555 1_555
C90_2 O26_2 1_555 1_555
H57_2 C96_2 1_555 1_555
C97_2 C96_2 1_555 1_555
C102_2 O34_2 1_555 1_555
O16 Cu16 1_555 1_555
O20 Cu16 1_555 1_555
C38_2 C39_2 1_555 1_555
C43_2 C44_2 1_555 1_555
C52_2 C53_2 1_555 1_555
C54_2 C55_2 1_555 1_555
Cu13 Cu17 1_555 1_555
O28 C90_2 1_555 1_555
O36 C102_2 1_555 1_555
C97_2 C102_2 1_555 1_555
O21 C68_2 1_555 1_555
O22_2 C68_2 1_555 1_555
C59_2 C58_2 1_555 1_555
C60_2 C59_2 1_555 1_555
C61_2 C60_2 1_555 1_555
H36_2 C61_2 1_555 1_555
C62_2 C61_2 1_555 1_555
H37_2 C62_2 1_555 1_555
C63_2 C62_2 1_555 1_555
C64_2 C63_2 1_555 1_555
H38_2 C64_2 1_555 1_555
C65_2 C60_2 1_555 1_555
C66_2 C65_2 1_555 1_555
C67_2 C58_2 1_555 1_555
H40_2 C67_2 1_555 1_555
C68_2 C63_2 1_555 1_555
Cu13 O21 1_555 1_555
Cu17 O22_2 1_555 1_555
H51_2 C84_2 1_555 1_555
C85_2 C84_2 1_555 1_555
C64_2 C65_2 1_555 1_555
C66_2 C67_2 1_555 1_555
Cu17 O32_2 1_555 1_555
O30_2 Cu13 1_555 1_555
O32_2 C91_2 1_555 1_555
C91_2 O30_2 1_555 1_555
C92_2 C91_2 1_555 1_555
C93_2 C92_2 1_555 1_555
H55_2 C93_2 1_555 1_555
C94_2 C93_2 1_555 1_555
C95_2 C94_2 1_555 1_555
H56_2 C95_2 1_555 1_555
H58_2 C98_2 1_555 1_555
C99_2 C94_2 1_555 1_555
C100_2 C99_2 1_555 1_555
C101_2 C92_2 1_555 1_555
H60_2 C101_2 1_555 1_555
C98_2 C99_2 1_555 1_555
C100_2 C101_2 1_555 1_555
Cu17 O24_2 1_555 1_555
N5_2 Cu13 1_555 1_555
N6_2 C76_2 1_555 1_555
O23_2 Cu13 1_555 1_555
O24_2 C79_2 1_555 1_555
C69_2 N5_2 1_555 1_555
H41_2 C69_2 1_555 1_555
C70_2 C69_2 1_555 1_555
H42_2 C70_2 1_555 1_555
C71_2 C70_2 1_555 1_555
C72_2 C71_2 1_555 1_555
H43_2 C72_2 1_555 1_555
C73_2 N5_2 1_555 1_555
H44_2 C73_2 1_555 1_555
C74_2 C71_2 1_555 1_555
C75_2 C74_2 1_555 1_555
H45_2 C75_2 1_555 1_555
C76_2 C75_2 1_555 1_555
H46_2 C76_2 1_555 1_555
C77_2 N6_2 1_555 1_555
H47_2 C77_2 1_555 1_555
C78_2 C74_2 1_555 1_555
H48_2 C78_2 1_555 1_555
C79_2 O23_2 1_555 1_555
C80_2 C79_2 1_555 1_555
C81_2 C80_2 1_555 1_555
H49_2 C81_2 1_555 1_555
C82_2 C81_2 1_555 1_555
C83_2 C82_2 1_555 1_555
H50_2 C83_2 1_555 1_555
C87_2 C82_2 1_555 1_555
C88_2 C87_2 1_555 1_555
H53_2 C88_2 1_555 1_555
C89_2 C80_2 1_555 1_555
H54_2 C89_2 1_555 1_555
C72_2 C73_2 1_555 1_555
C77_2 C78_2 1_555 1_555
C86_2 C87_2 1_555 1_555
C88_2 C89_2 1_555 1_555

#END
