
###############################################################################
#
# This file contains modified crystal structure data generated from the
# MOF subset of the Cambridge Structural Database (CSD) v543 
# hosted by the Cambridge Crystallographic Data Centre (CCDC).
#
# This work is licensed under the Creative Commons
# Attribution-NonCommercial-ShareAlike 4.0 International License.
# To view a copy of this license, visit
# http://creativecommons.org/licenses/by-nc-sa/4.0/
# or send a letter to
# Creative Commons, PO Box 1866, Mountain View, CA 94042, USA.
#
# CIF created using the CSD Python API on 29 September 2022
# The structure has been converted into the P1 space group
# The structure has a 3D framework
# The original CSD entry BUSQEM is in the orthorhombic crystal system
# The framework has been calculated to contain at least 10.0% void space
# The void calculation uses a probe of radius 1.32A, grid spacing 0.4
#
###############################################################################

data_BUSQEM
_chemical_formula_moiety         '(C76 H32 Mn2 N20)n'
_symmetry_cell_setting           triclinic
_symmetry_space_group_name_H-M   'P 1'
_symmetry_Int_Tables_number      1
_space_group_name_Hall           'P 1'
loop_
_symmetry_equiv_pos_site_id
_symmetry_equiv_pos_as_xyz
1 x,y,z
_cell_length_a                   11.616(3)
_cell_length_b                   12.503(3)
_cell_length_c                   14.891(4)
_cell_angle_alpha                90
_cell_angle_beta                 90
_cell_angle_gamma                90
_cell_volume                     2162.69
loop_
_atom_site_label
_atom_site_type_symbol
_atom_site_fract_x
_atom_site_fract_y
_atom_site_fract_z
Mn5 Mn 0.5000 0.5000 0.7500
N10 N 0.0941(6) 0.1396(5) 0.6427(5)
N11 N 0.0941(6) 0.1396(5) 0.3573(5)
N13 N 0.3045(2) 0.5000 0.7500
C24 C 0.0638(8) 0.0272(7) 0.5000
C25 C 0.0771(4) 0.0920(3) 0.5797(4)
C26 C 0.0771(4) 0.0920(3) 0.4203(4)
C29 C 0.2449(3) 0.5882(2) 0.7678(2)
C30 C 0.2449(3) 0.4118(2) 0.7322(2)
C32 C 0.1257(2) 0.5920(2) 0.7681(2)
C33 C 0.1257(2) 0.4080(2) 0.7319(2)
C34 C 0.0642(3) 0.5000 0.7500
H12 H 0.2860 0.3481 0.7187
H13 H 0.2860 0.6519 0.7813
H15 H 0.0867 0.3429 0.7192
H16 H 0.0867 0.6571 0.7808
Mn4 Mn 0.5000 0.5000 0.2500
N5 N 0.5014(2) 0.6253(2) 0.6458(2)
N6 N 0.5014(2) 0.6253(2) 0.3542(2)
C13 C 0.4632(3) 0.6583(2) 0.5798(2)
C14 C 0.4632(3) 0.6583(2) 0.4202(2)
C15 C 0.4173(4) 0.6979(4) 0.5000
C16 C 0.3232(5) 0.7736(4) 0.5000
C18 C 0.2757(4) 0.8120(4) 0.5804(3)
C19 C 0.2757(4) 0.8120(4) 0.4196(3)
C21 C 0.1942(5) 0.8926(5) 0.5800(4)
C22 C 0.1942(5) 0.8926(5) 0.4200(4)
C23 C 0.1565(7) 0.9362(6) 0.5000
H6 H 0.3006 0.7826 0.3641
H7 H 0.3006 0.7826 0.6359
H9 H 0.1635 0.9180 0.3648
H10 H 0.1635 0.9180 0.6352
N1 N 0.4986(2) 0.3747(2) 0.6458(2)
N3 N 0.6955(2) 0.5000 0.7500
C1 C 0.5368(3) 0.3417(2) 0.5798(2)
C2 C 0.5827(4) 0.3021(4) 0.5000
C3 C 0.6768(5) 0.2264(4) 0.5000
C4 C 0.7243(4) 0.1880(4) 0.5804(3)
C5 C 0.8058(5) 0.1074(5) 0.5800(4)
C6 C 0.8435(7) 0.0638(6) 0.5000
C9 C 0.7551(3) 0.4118(2) 0.7678(2)
C10 C 0.8743(2) 0.4080(2) 0.7681(2)
C11 C 0.9358(3) 0.5000 0.7500
H1 H 0.6994 0.2174 0.6359
H2 H 0.8365 0.0820 0.6352
H3 H 0.7140 0.3481 0.7813
H4 H 0.9133 0.3429 0.7808
N4 N 0.4986(2) 0.3747(2) 0.3542(2)
N8 N 0.4986(2) 0.6253(2) 0.8542(2)
N9 N 0.5014(2) 0.3747(2) 0.8542(2)
C12 C 0.5368(3) 0.3417(2) 0.4202(2)
C17 C 0.7243(4) 0.1880(4) 0.4196(3)
C20 C 0.8058(5) 0.1074(5) 0.4200(4)
C28 C 0.7551(3) 0.5882(2) 0.7322(2)
C31 C 0.8743(2) 0.5920(2) 0.7319(2)
H5 H 0.6994 0.2174 0.3641
H8 H 0.8365 0.0820 0.3648
H11 H 0.7140 0.6519 0.7187
H14 H 0.9133 0.6571 0.7192
N2 N 0.9059(6) 0.8604(5) 0.6427(5)
C7 C 0.9362(8) 0.9728(7) 0.5000
C8 C 0.9229(4) 0.9080(3) 0.5797(4)
N12 N 0.9059(6) 0.8604(5) 0.3573(5)
C27 C 0.9229(4) 0.9080(3) 0.4203(4)
N6_2 N 0.5014(2) 0.3747(2) 0.1458(2)
C14_2 C 0.4632(3) 0.3417(2) 0.0798(2)
C15_2 C 0.4173(4) 0.3021(4) -0.0000
C16_2 C 0.3232(5) 0.2264(4) -0.0000
C19_2 C 0.2757(4) 0.1880(4) 0.0804(3)
C22_2 C 0.1942(5) 0.1074(5) 0.0800(4)
C23_2 C 0.1565(7) 0.0638(6) -0.0000
H6_2 H 0.3006 0.2174 0.1359
H9_2 H 0.1635 0.0820 0.1352
C13_2 C 0.4632(3) 0.3417(2) 0.9202(2)
C15_3 C 0.4173(4) 0.3021(4) 1.0000
C16_3 C 0.3232(5) 0.2264(4) 1.0000
C18_2 C 0.2757(4) 0.1880(4) 0.9196(3)
C21_2 C 0.1942(5) 0.1074(5) 0.9200(4)
C23_3 C 0.1565(7) 0.0638(6) 1.0000
H7_2 H 0.3006 0.2174 0.8641
H10_2 H 0.1635 0.0820 0.8648
N11_2 N 0.0941(6) 0.8604(5) 0.1427(5)
C24_2 C 0.0638(8) 0.9728(7) -0.0000
C26_2 C 0.0771(4) 0.9080(3) 0.0797(4)
N10_2 N 0.0941(6) 0.8604(5) 0.8573(5)
C24_3 C 0.0638(8) 0.9728(7) 1.0000
C25_2 C 0.0771(4) 0.9080(3) 0.9203(4)
C7_2 C 0.9362(8) 0.0272(7) -0.0000
N12_2 N 0.9059(6) 0.1396(5) 0.1427(5)
C27_2 C 0.9229(4) 0.0920(3) 0.0797(4)
N2_2 N 0.9059(6) 0.1396(5) 0.8573(5)
C7_3 C 0.9362(8) 0.0272(7) 1.0000
C8_2 C 0.9229(4) 0.0920(3) 0.9203(4)
C2_2 C 0.5827(4) 0.6979(4) -0.0000
C3_2 C 0.6768(5) 0.7736(4) -0.0000
C6_2 C 0.8435(7) 0.9362(6) -0.0000
N4_2 N 0.4986(2) 0.6253(2) 0.1458(2)
C12_2 C 0.5368(3) 0.6583(2) 0.0798(2)
C17_2 C 0.7243(4) 0.8120(4) 0.0804(3)
C20_2 C 0.8058(5) 0.8926(5) 0.0800(4)
H5_2 H 0.6994 0.7826 0.1359
H8_2 H 0.8365 0.9180 0.1352
C1_2 C 0.5368(3) 0.6583(2) 0.9202(2)
C2_3 C 0.5827(4) 0.6979(4) 1.0000
C3_3 C 0.6768(5) 0.7736(4) 1.0000
C4_2 C 0.7243(4) 0.8120(4) 0.9196(3)
C5_2 C 0.8058(5) 0.8926(5) 0.9200(4)
C6_3 C 0.8435(7) 0.9362(6) 1.0000
H1_2 H 0.6994 0.7826 0.8641
H2_2 H 0.8365 0.9180 0.8648
N3_2 N 0.3045(2) 0.5000 0.2500
C9_2 C 0.2449(3) 0.5882(2) 0.2322(2)
C10_2 C 0.1257(2) 0.5920(2) 0.2319(2)
C11_2 C 0.0642(3) 0.5000 0.2500
H3_2 H 0.2860 0.6519 0.2187
H4_2 H 0.0867 0.6571 0.2192
N14 N 0.6955(2) 0.5000 0.2500
C28_2 C 0.2449(3) 0.4118(2) 0.2678(2)
C31_2 C 0.1257(2) 0.4080(2) 0.2681(2)
H11_2 H 0.2860 0.3481 0.2813
H14_2 H 0.0867 0.3429 0.2808
C29_2 C 0.7551(3) 0.4118(2) 0.2322(2)
C30_2 C 0.7551(3) 0.5882(2) 0.2678(2)
C32_2 C 0.8743(2) 0.4080(2) 0.2319(2)
C33_2 C 0.8743(2) 0.5920(2) 0.2681(2)
C34_2 C 0.9358(3) 0.5000 0.2500
H12_2 H 0.7140 0.6519 0.2813
H13_2 H 0.7140 0.3481 0.2187
H15_2 H 0.9133 0.6571 0.2808
H16_2 H 0.9133 0.3429 0.2192
loop_
_geom_bond_atom_site_label_1
_geom_bond_atom_site_label_2
_geom_bond_site_symmetry_1
_geom_bond_site_symmetry_2
Mn5 N13 1_555 1_555
N10 C25 1_555 1_555
N11 C26 1_555 1_555
N13 C29 1_555 1_555
C25 C24 1_555 1_555
C26 C24 1_555 1_555
C29 C32 1_555 1_555
C30 N13 1_555 1_555
C32 C34 1_555 1_555
C33 C30 1_555 1_555
H12 C30 1_555 1_555
H13 C29 1_555 1_555
H15 C33 1_555 1_555
H16 C32 1_555 1_555
C33 C34 1_555 1_555
Mn5 N5 1_555 1_555
Mn4 N6 1_555 1_555
N5 C13 1_555 1_555
N6 C14 1_555 1_555
C13 C15 1_555 1_555
C14 C15 1_555 1_555
C15 C16 1_555 1_555
C16 C18 1_555 1_555
C18 C21 1_555 1_555
C19 C16 1_555 1_555
C21 C23 1_555 1_555
C22 C19 1_555 1_555
C23 C22 1_555 1_555
H6 C19 1_555 1_555
H7 C18 1_555 1_555
H9 C22 1_555 1_555
H10 C21 1_555 1_555
Mn5 N1 1_555 1_555
N1 C1 1_555 1_555
N3 Mn5 1_555 1_555
C1 C2 1_555 1_555
C2 C3 1_555 1_555
C3 C4 1_555 1_555
C4 C5 1_555 1_555
C5 C6 1_555 1_555
C9 N3 1_555 1_555
C10 C9 1_555 1_555
C11 C10 1_555 1_555
H1 C4 1_555 1_555
H2 C5 1_555 1_555
H3 C9 1_555 1_555
H4 C10 1_555 1_555
Mn4 N4 1_555 1_555
N4 C12 1_555 1_555
N8 Mn5 1_555 1_555
N9 Mn5 1_555 1_555
C12 C2 1_555 1_555
C17 C3 1_555 1_555
C20 C6 1_555 1_555
C28 N3 1_555 1_555
C31 C11 1_555 1_555
H5 C17 1_555 1_555
H8 C20 1_555 1_555
H11 C28 1_555 1_555
H14 C31 1_555 1_555
C17 C20 1_555 1_555
C28 C31 1_555 1_555
N2 C8 1_555 1_555
C7 C8 1_555 1_555
N12 C27 1_555 1_555
C27 C7 1_555 1_555
Mn4 N6_2 1_555 1_555
N6_2 C14_2 1_555 1_555
C14_2 C15_2 1_555 1_555
C15_2 C16_2 1_555 1_555
C19_2 C16_2 1_555 1_555
C22_2 C19_2 1_555 1_555
C23_2 C22_2 1_555 1_555
H6_2 C19_2 1_555 1_555
H9_2 C22_2 1_555 1_555
N9 C13_2 1_555 1_555
C13_2 C15_3 1_555 1_555
C15_3 C16_3 1_555 1_555
C16_3 C18_2 1_555 1_555
C18_2 C21_2 1_555 1_555
C21_2 C23_3 1_555 1_555
H7_2 C18_2 1_555 1_555
H10_2 C21_2 1_555 1_555
N11_2 C26_2 1_555 1_555
C26_2 C24_2 1_555 1_555
N10_2 C25_2 1_555 1_555
C25_2 C24_3 1_555 1_555
N12_2 C27_2 1_555 1_555
C27_2 C7_2 1_555 1_555
N2_2 C8_2 1_555 1_555
C7_3 C8_2 1_555 1_555
C2_2 C3_2 1_555 1_555
Mn4 N4_2 1_555 1_555
N4_2 C12_2 1_555 1_555
C12_2 C2_2 1_555 1_555
C17_2 C3_2 1_555 1_555
C20_2 C6_2 1_555 1_555
H5_2 C17_2 1_555 1_555
H8_2 C20_2 1_555 1_555
C17_2 C20_2 1_555 1_555
N8 C1_2 1_555 1_555
C1_2 C2_3 1_555 1_555
C2_3 C3_3 1_555 1_555
C3_3 C4_2 1_555 1_555
C4_2 C5_2 1_555 1_555
C5_2 C6_3 1_555 1_555
H1_2 C4_2 1_555 1_555
H2_2 C5_2 1_555 1_555
N3_2 Mn4 1_555 1_555
C9_2 N3_2 1_555 1_555
C10_2 C9_2 1_555 1_555
C11_2 C10_2 1_555 1_555
H3_2 C9_2 1_555 1_555
H4_2 C10_2 1_555 1_555
N14 Mn4 1_555 1_555
C28_2 N3_2 1_555 1_555
C31_2 C11_2 1_555 1_555
H11_2 C28_2 1_555 1_555
H14_2 C31_2 1_555 1_555
C28_2 C31_2 1_555 1_555
N14 C29_2 1_555 1_555
C29_2 C32_2 1_555 1_555
C30_2 N14 1_555 1_555
C32_2 C34_2 1_555 1_555
C33_2 C30_2 1_555 1_555
H12_2 C30_2 1_555 1_555
H13_2 C29_2 1_555 1_555
H15_2 C33_2 1_555 1_555
H16_2 C32_2 1_555 1_555
C33_2 C34_2 1_555 1_555

#END
