
###############################################################################
#
# This file contains modified crystal structure data generated from the
# MOF subset of the Cambridge Structural Database (CSD) v543 
# hosted by the Cambridge Crystallographic Data Centre (CCDC).
#
# This work is licensed under the Creative Commons
# Attribution-NonCommercial-ShareAlike 4.0 International License.
# To view a copy of this license, visit
# http://creativecommons.org/licenses/by-nc-sa/4.0/
# or send a letter to
# Creative Commons, PO Box 1866, Mountain View, CA 94042, USA.
#
# CIF created using the CSD Python API on 29 September 2022
# The structure has been converted into the P1 space group
# The structure has a 3D framework
# The original CSD entry BUSRUE is in the monoclinic crystal system
# The framework has been calculated to contain at least 10.0% void space
# The void calculation uses a probe of radius 1.32A, grid spacing 0.4
#
###############################################################################

data_BUSRUE
_chemical_formula_moiety         '(C152 H80 Cd4 N16 O32)n'
_symmetry_cell_setting           triclinic
_symmetry_space_group_name_H-M   'P 1'
_symmetry_Int_Tables_number      1
_space_group_name_Hall           'P 1'
loop_
_symmetry_equiv_pos_site_id
_symmetry_equiv_pos_as_xyz
1 x,y,z
_cell_length_a                   11.7797(6)
_cell_length_b                   29.1825(9)
_cell_length_c                   14.2285(6)
_cell_angle_alpha                90
_cell_angle_beta                 100.679(4)
_cell_angle_gamma                90
_cell_volume                     4806.49
loop_
_atom_site_label
_atom_site_type_symbol
_atom_site_fract_x
_atom_site_fract_y
_atom_site_fract_z
C15 C 0.1712(7) 0.0458(3) 0.0066(5)
C16 C 0.3288(6) 0.0592(2) 0.1219(5)
H10 H 0.4081 0.0640 0.1388
C17 C 0.0977(6) 0.0474(3) 0.0712(5)
H11 H 0.0184 0.0440 0.0515
C18 C 0.2643(6) 0.0611(2) 0.1922(5)
H12 H 0.2983 0.0668 0.2554
C19 C 0.1455(7) 0.0543(2) 0.1657(5)
C20 C 0.0771(6) 0.0924(2) 0.2978(5)
C21 C 0.0143(6) 0.0127(2) 0.2480(5)
C23 C 0.0125(6) 0.0893(2) 0.3784(5)
C26 C 0.0115(7) 0.1252(2) 0.4376(5)
H14 H 0.0561 0.1510 0.4317
N1 N 0.2847(5) 0.05106(16) 0.0309(4)
N2 N 0.0750(5) 0.05334(18) 0.2388(4)
O6 O 0.1287(5) 0.12610(18) 0.2824(4)
O10 O 0.5618(4) 0.04051(14) 0.0424(3)
Cd4 Cd 0.90048(4) 0.456235(14) 0.41426(3)
Cd4_2 Cd 0.59952(4) 0.956235(14) 0.08574(3)
C28 C 0.5575(7) 0.6234(2) 0.9915(5)
H16 H 0.5610 0.6489 0.9530
C30 C 0.6187(6) 0.5856(2) 0.9780(5)
C32 C 0.7405(6) 0.5033(3) 0.9446(5)
C33 C 0.6930(7) 0.5849(3) 0.9054(5)
C34 C 0.8226(6) 0.5417(2) 0.8220(5)
C35 C 0.9334(7) 0.5277(3) 0.8478(5)
H17 H 0.9620 0.5188 0.9105
C36 C 0.7849(7) 0.5545(2) 0.7291(5)
H18 H 0.7086 0.5635 0.7083
C38 C 0.8610(7) 0.5541(2) 0.6669(5)
H20 H 0.8355 0.5645 0.6047
N3 N 0.7469(5) 0.54298(19) 0.8900(4)
N4 N 0.9699(5) 0.53960(16) 0.6914(4)
O7 O 0.7079(6) 0.61783(18) 0.8597(4)
O8 O 0.7824(5) 0.46773(17) 0.9238(4)
O10_2 O 0.9382(4) 0.54051(14) 0.4576(3)
C22 C 0.0528(6) 0.9887(2) 0.6737(4)
C24 C 0.0507(6) 0.9509(2) 0.6119(5)
C28_2 C 0.0575(7) 0.8766(2) 0.4915(5)
H16_2 H 0.0610 0.8511 0.4530
C29 C 0.1785(6) 0.9935(2) 0.5259(5)
C30_2 C 0.1187(6) 0.9144(2) 0.4780(5)
C31 C 0.1159(6) 0.9526(2) 0.5388(5)
C32_2 C 0.2405(6) 0.9967(3) 0.4446(5)
C33_2 C 0.1930(7) 0.9151(3) 0.4054(5)
C34_2 C 0.3226(6) 0.9583(2) 0.3220(5)
C35_2 C 0.4334(7) 0.9723(3) 0.3478(5)
H17_2 H 0.4620 0.9812 0.4105
C36_2 C 0.2849(7) 0.9455(2) 0.2291(5)
H18_2 H 0.2086 0.9365 0.2083
C37 C 0.5030(7) 0.9733(3) 0.2808(5)
H19 H 0.5785 0.9836 0.2997
C38_2 C 0.3610(7) 0.9459(2) 0.1669(5)
H20_2 H 0.3355 0.9355 0.1047
N3_2 N 0.2469(5) 0.95702(19) 0.3900(4)
N4_2 N 0.4699(5) 0.96040(16) 0.1914(4)
O7_2 O 0.2079(6) 0.88217(18) 0.3597(4)
O11 O 0.7091(5) 0.01946(14) 0.1509(3)
C1 C 0.6666(6) 0.8741(2) 0.1683(5)
C2 C 0.6946(7) 0.8269(2) 0.2080(6)
C3 C 0.6383(11) 0.7899(3) 0.1633(8)
H1 H 0.5808 0.7940 0.1096
C4 C 0.7775(8) 0.8183(3) 0.2867(7)
H2 H 0.8200 0.8427 0.3168
C5 C 0.6668(11) 0.7462(3) 0.1981(9)
H3 H 0.6316 0.7211 0.1641
C6 C 0.8006(8) 0.7753(3) 0.3230(7)
H4 H 0.8560 0.7714 0.3782
C7 C 0.7452(8) 0.7385(2) 0.2808(6)
C8 C 0.7689(7) 0.6904(2) 0.3147(6)
C9 C 0.7031(11) 0.6545(3) 0.2745(10)
H5 H 0.6404 0.6600 0.2256
C10 C 0.8642(8) 0.6797(3) 0.3844(6)
H6 H 0.9109 0.7032 0.4140
C11 C 0.7284(10) 0.6095(3) 0.3055(9)
H7 H 0.6783 0.5861 0.2802
C12 C 0.8912(7) 0.6343(2) 0.4109(5)
H8 H 0.9568 0.6281 0.4566
C13 C 0.8234(6) 0.5988(2) 0.3711(5)
C14 C 0.8517(6) 0.5500(2) 0.3933(5)
H9 H 0.8603 0.9592 0.0575
O1 O 0.7213(5) 0.90750(15) 0.2059(4)
O2 O 0.5870(5) 0.87715(15) 0.0964(4)
O4 O 0.7909(5) 0.51946(14) 0.3491(3)
C1_2 C 0.8334(6) 0.3741(2) 0.3317(5)
C2_2 C 0.8054(7) 0.3269(2) 0.2920(6)
C3_2 C 0.8617(11) 0.2899(3) 0.3367(8)
H1_2 H 0.9192 0.2940 0.3904
C4_2 C 0.7225(8) 0.3183(3) 0.2133(7)
H2_2 H 0.6800 0.3427 0.1832
C5_2 C 0.8332(11) 0.2462(3) 0.3019(9)
H3_2 H 0.8684 0.2211 0.3359
C6_2 C 0.6994(8) 0.2753(3) 0.1770(7)
H4_2 H 0.6440 0.2714 0.1218
C7_2 C 0.7548(8) 0.2385(2) 0.2192(6)
C8_2 C 0.7311(7) 0.1904(2) 0.1853(6)
C9_2 C 0.7969(11) 0.1545(3) 0.2255(10)
H5_2 H 0.8596 0.1600 0.2744
C10_2 C 0.6358(8) 0.1797(3) 0.1156(6)
H6_2 H 0.5891 0.2032 0.0860
C11_2 C 0.7716(10) 0.1095(3) 0.1945(9)
H7_2 H 0.8217 0.0861 0.2198
C12_2 C 0.6088(7) 0.1343(2) 0.0891(5)
H8_2 H 0.5432 0.1281 0.0434
C13_2 C 0.6766(6) 0.0988(2) 0.1289(5)
C14_2 C 0.6483(6) 0.0500(2) 0.1067(5)
C15_2 C 0.6712(7) 0.4542(3) 0.5066(5)
H9_2 H 0.6397 0.4592 0.4425
C16_2 C 0.8288(6) 0.4408(2) 0.6219(5)
H10_2 H 0.9081 0.4360 0.6388
C17_2 C 0.5977(6) 0.4526(3) 0.5712(5)
H11_2 H 0.5184 0.4560 0.5515
C18_2 C 0.7643(6) 0.4389(2) 0.6922(5)
H12_2 H 0.7983 0.4332 0.7554
C19_2 C 0.6455(7) 0.4457(2) 0.6657(5)
C20_2 C 0.5771(6) 0.4076(2) 0.7978(5)
C21_2 C 0.5143(6) 0.4873(2) 0.7480(5)
C22_2 C 0.4472(6) 0.4887(2) 0.8263(4)
C23_2 C 0.5125(6) 0.4107(2) 0.8784(5)
C24_2 C 0.4493(6) 0.4509(2) 0.8881(5)
C25 C 0.3843(6) 0.5271(2) 0.8384(5)
H13 H 0.3832 0.5518 0.7969
C26_2 C 0.5115(7) 0.3748(2) 0.9376(5)
H14_2 H 0.5561 0.3490 0.9317
C27 C 0.3223(6) 0.5294(2) 0.9124(5)
H15 H 0.2806 0.5558 0.9201
C29_2 C 0.3215(6) 0.4935(2) 0.9741(5)
C31_2 C 0.3841(6) 0.4526(2) 0.9612(5)
N1_2 N 0.7847(5) 0.44894(16) 0.5309(4)
N2_2 N 0.5750(5) 0.44666(18) 0.7388(4)
O1_2 O 0.7787(5) 0.40750(15) 0.2941(4)
O2_2 O 0.9130(5) 0.37715(15) 0.4036(4)
O5 O 0.5186(4) 0.51891(17) 0.6963(3)
O6_2 O 0.6287(5) 0.37390(18) 0.7824(4)
C37_2 C 0.9970(7) 0.4733(3) 0.2192(5)
H19_2 H 0.9215 0.4836 0.2003
C1_3 C 0.3334(6) 0.1259(2) 0.8317(5)
C2_3 C 0.3054(7) 0.1731(2) 0.7920(6)
C3_3 C 0.3617(11) 0.2101(3) 0.8367(8)
H1_3 H 0.4192 0.2060 0.8904
C4_3 C 0.2225(8) 0.1817(3) 0.7133(7)
H2_3 H 0.1800 0.1573 0.6832
C5_3 C 0.3332(11) 0.2538(3) 0.8019(9)
H3_3 H 0.3684 0.2789 0.8359
C6_3 C 0.1994(8) 0.2247(3) 0.6770(7)
H4_3 H 0.1440 0.2286 0.6218
C7_3 C 0.2548(8) 0.2615(2) 0.7192(6)
C8_3 C 0.2311(7) 0.3096(2) 0.6853(6)
C9_3 C 0.2969(11) 0.3455(3) 0.7255(10)
H5_3 H 0.3596 0.3400 0.7744
C10_3 C 0.1358(8) 0.3203(3) 0.6156(6)
H6_3 H 0.0891 0.2968 0.5860
C11_3 C 0.2716(10) 0.3905(3) 0.6945(9)
H7_3 H 0.3217 0.4139 0.7198
C12_3 C 0.1088(7) 0.3657(2) 0.5891(5)
H8_3 H 0.0432 0.3719 0.5434
C13_3 C 0.1766(6) 0.4012(2) 0.6289(5)
C14_3 C 0.1483(6) 0.4500(2) 0.6067(5)
H9_3 H 0.1397 0.0408 0.9425
O1_3 O 0.2787(5) 0.09250(15) 0.7941(4)
O2_3 O 0.4130(5) 0.12285(15) 0.9036(4)
O3 O 0.0618(4) 0.45949(14) 0.5424(3)
O4_2 O 0.2091(5) 0.48054(14) 0.6509(3)
Cd1 Cd 0.40048(4) 0.043765(14) 0.91426(3)
N5 N 0.5301(5) 0.03960(16) 0.8086(4)
Cd3 Cd 0.09952(4) 0.543765(14) 0.58574(3)
O9 O 0.4382(4) 0.95949(14) 0.9576(3)
O11_2 O 0.2909(5) 0.98054(14) 0.8491(3)
C22_3 C 0.9472(6) 0.0113(2) 0.3263(4)
C24_3 C 0.9493(6) 0.0491(2) 0.3881(5)
C28_3 C 0.9425(7) 0.1234(2) 0.5085(5)
H16_3 H 0.9390 0.1489 0.5470
C29_3 C 0.8215(6) 0.0065(2) 0.4741(5)
C30_3 C 0.8813(6) 0.0856(2) 0.5220(5)
C31_3 C 0.8841(6) 0.0474(2) 0.4612(5)
C32_3 C 0.7595(6) 0.0033(3) 0.5554(5)
C33_3 C 0.8070(7) 0.0849(3) 0.5946(5)
C34_3 C 0.6774(6) 0.0417(2) 0.6780(5)
C35_3 C 0.5666(7) 0.0277(3) 0.6522(5)
H17_3 H 0.5380 0.0188 0.5895
C36_3 C 0.7151(7) 0.0545(2) 0.7709(5)
H18_3 H 0.7914 0.0635 0.7917
C37_3 C 0.4970(7) 0.0267(3) 0.7192(5)
H19_3 H 0.4215 0.0164 0.7003
C38_3 C 0.6390(7) 0.0541(2) 0.8331(5)
H20_3 H 0.6645 0.0645 0.8953
N3_3 N 0.7531(5) 0.04298(19) 0.6100(4)
O7_3 O 0.7921(6) 0.11783(18) 0.6403(4)
C37_4 C 0.0030(7) 0.5267(3) 0.7808(5)
H19_4 H 0.0785 0.5164 0.7997
C1_4 C 0.1666(6) 0.6259(2) 0.6683(5)
C2_4 C 0.1946(7) 0.6731(2) 0.7080(6)
C3_4 C 0.1383(11) 0.7101(3) 0.6633(8)
H1_4 H 0.0808 0.7060 0.6096
C4_4 C 0.2775(8) 0.6817(3) 0.7867(7)
H2_4 H 0.3200 0.6573 0.8168
C5_4 C 0.1668(11) 0.7538(3) 0.6981(9)
H3_4 H 0.1316 0.7789 0.6641
C6_4 C 0.3006(8) 0.7247(3) 0.8230(7)
H4_4 H 0.3560 0.7286 0.8782
C7_4 C 0.2452(8) 0.7615(2) 0.7808(6)
C8_4 C 0.2689(7) 0.8096(2) 0.8147(6)
C9_4 C 0.2031(11) 0.8455(3) 0.7745(10)
H5_4 H 0.1404 0.8400 0.7256
C10_4 C 0.3642(8) 0.8203(3) 0.8844(6)
H6_4 H 0.4109 0.7968 0.9140
C11_4 C 0.2284(10) 0.8905(3) 0.8055(9)
H7_4 H 0.1783 0.9139 0.7802
C12_4 C 0.3912(7) 0.8657(2) 0.9109(5)
H8_4 H 0.4568 0.8719 0.9566
C13_4 C 0.3234(6) 0.9012(2) 0.8711(5)
C14_4 C 0.3517(6) 0.9500(2) 0.8933(5)
C15_3 C 0.3288(7) 0.5458(3) 0.4934(5)
H9_4 H 0.3603 0.5408 0.5575
C16_3 C 0.1712(6) 0.5592(2) 0.3781(5)
H10_3 H 0.0919 0.5640 0.3612
C17_3 C 0.4023(6) 0.5474(3) 0.4288(5)
H11_3 H 0.4816 0.5440 0.4485
C18_3 C 0.2357(6) 0.5611(2) 0.3078(5)
H12_3 H 0.2017 0.5668 0.2446
C19_3 C 0.3545(7) 0.5543(2) 0.3343(5)
C20_3 C 0.4229(6) 0.5924(2) 0.2022(5)
C21_3 C 0.4857(6) 0.5127(2) 0.2520(5)
C22_4 C 0.5528(6) 0.5113(2) 0.1737(4)
C23_3 C 0.4875(6) 0.5893(2) 0.1216(5)
C24_4 C 0.5507(6) 0.5491(2) 0.1119(5)
C25_2 C 0.6157(6) 0.4729(2) 0.1616(5)
H13_2 H 0.6168 0.4482 0.2031
C26_3 C 0.4885(7) 0.6252(2) 0.0624(5)
H14_3 H 0.4439 0.6510 0.0683
C27_2 C 0.6777(6) 0.4706(2) 0.0876(5)
H15_2 H 0.7194 0.4442 0.0799
C29_4 C 0.6785(6) 0.5065(2) 0.0259(5)
C31_4 C 0.6159(6) 0.5474(2) 0.0388(5)
N1_3 N 0.2153(5) 0.55106(16) 0.4691(4)
N2_3 N 0.4250(5) 0.55334(18) 0.2612(4)
O1_4 O 0.2213(5) 0.59250(15) 0.7059(4)
O2_4 O 0.0870(5) 0.62285(15) 0.5964(4)
O5_2 O 0.4814(4) 0.48109(17) 0.3037(3)
O6_3 O 0.3713(5) 0.62610(18) 0.2176(4)
C15_4 C 0.8288(7) 0.9542(3) 0.9934(5)
C16_4 C 0.6712(6) 0.9408(2) 0.8781(5)
H10_4 H 0.5919 0.9360 0.8612
C17_4 C 0.9023(6) 0.9526(3) 0.9288(5)
H11_4 H 0.9816 0.9560 0.9485
C18_4 C 0.7357(6) 0.9389(2) 0.8078(5)
H12_4 H 0.7017 0.9332 0.7446
C19_4 C 0.8545(7) 0.9457(2) 0.8343(5)
C20_4 C 0.9229(6) 0.9076(2) 0.7022(5)
C21_4 C 0.9857(6) 0.9873(2) 0.7520(5)
C23_4 C 0.9875(6) 0.9107(2) 0.6216(5)
C26_4 C 0.9885(7) 0.8748(2) 0.5624(5)
H14_4 H 0.9439 0.8490 0.5683
N1_4 N 0.7153(5) 0.94894(16) 0.9691(4)
N2_4 N 0.9250(5) 0.94666(18) 0.7612(4)
O6_4 O 0.8713(5) 0.87390(18) 0.7176(4)
N5_2 N 0.0301(5) 0.46040(16) 0.3086(4)
C28_4 C 0.4425(7) 0.3766(2) 0.0085(5)
H16_4 H 0.4390 0.3511 0.0470
C30_4 C 0.3813(6) 0.4144(2) 0.0220(5)
C32_4 C 0.2595(6) 0.4967(3) 0.0554(5)
C33_4 C 0.3070(7) 0.4151(3) 0.0946(5)
C34_4 C 0.1774(6) 0.4583(2) 0.1780(5)
C35_4 C 0.0666(7) 0.4723(3) 0.1522(5)
H17_4 H 0.0380 0.4812 0.0895
C36_4 C 0.2151(7) 0.4455(2) 0.2709(5)
H18_4 H 0.2914 0.4365 0.2917
C38_4 C 0.1390(7) 0.4459(2) 0.3331(5)
H20_4 H 0.1645 0.4355 0.3953
N3_4 N 0.2531(5) 0.45702(19) 0.1100(4)
O7_4 O 0.2921(6) 0.38217(18) 0.1403(4)
O8_2 O 0.2176(5) 0.53227(17) 0.0762(4)
O5_3 O 0.0186(4) 0.98109(17) 0.1963(3)
C25_3 C 0.8843(6) 0.9729(2) 0.3384(5)
H13_3 H 0.8832 0.9482 0.2969
C27_3 C 0.8223(6) 0.9706(2) 0.4124(5)
H15_3 H 0.7806 0.9442 0.4201
O8_3 O 0.7176(5) 0.96773(17) 0.5762(4)
C25_4 C 0.1157(6) 0.0271(2) 0.6616(5)
H13_4 H 0.1168 0.0518 0.7031
C27_4 C 0.1777(6) 0.0294(2) 0.5876(5)
H15_4 H 0.2194 0.0558 0.5799
O8_4 O 0.2824(5) 0.03227(17) 0.4238(4)
O5_4 O 0.9814(4) 0.01891(17) 0.8037(3)
loop_
_geom_bond_atom_site_label_1
_geom_bond_atom_site_label_2
_geom_bond_site_symmetry_1
_geom_bond_site_symmetry_2
C16 H10 1_555 1_555
C17 C15 1_555 1_555
H11 C17 1_555 1_555
C18 C16 1_555 1_555
H12 C18 1_555 1_555
C19 C17 1_555 1_555
C20 C23 1_555 1_555
C26 C23 1_555 1_555
H14 C26 1_555 1_555
N1 C15 1_555 1_555
N2 C19 1_555 1_555
O6 C20 1_555 1_555
C16 N1 1_555 1_555
C18 C19 1_555 1_555
C20 N2 1_555 1_555
C21 N2 1_555 1_555
H16 C28 1_555 1_555
C30 C28 1_555 1_555
C33 C30 1_555 1_555
C34 C35 1_555 1_555
C35 H17 1_555 1_555
C36 C34 1_555 1_555
H18 C36 1_555 1_555
C38 C36 1_555 1_555
H20 C38 1_555 1_555
N3 C32 1_555 1_555
O7 C33 1_555 1_555
O8 C32 1_555 1_555
C33 N3 1_555 1_555
C34 N3 1_555 1_555
C38 N4 1_555 1_555
C22 C24 1_555 1_555
C24 C31 1_555 1_555
H16_2 C28_2 1_555 1_555
C30_2 C28_2 1_555 1_555
C31 C29 1_555 1_555
C32_2 C29 1_555 1_555
C33_2 C30_2 1_555 1_555
C34_2 C35_2 1_555 1_555
C35_2 H17_2 1_555 1_555
C36_2 C34_2 1_555 1_555
H18_2 C36_2 1_555 1_555
C37 C35_2 1_555 1_555
H19 C37 1_555 1_555
C38_2 C36_2 1_555 1_555
H20_2 C38_2 1_555 1_555
N3_2 C32_2 1_555 1_555
N4_2 C37 1_555 1_555
O7_2 C33_2 1_555 1_555
Cd4_2 N4_2 1_555 1_555
C30_2 C31 1_555 1_555
C33_2 N3_2 1_555 1_555
C34_2 N3_2 1_555 1_555
C38_2 N4_2 1_555 1_555
C1 C2 1_555 1_555
C2 C3 1_555 1_555
C3 H1 1_555 1_555
C4 C2 1_555 1_555
H2 C4 1_555 1_555
C5 C3 1_555 1_555
H3 C5 1_555 1_555
C6 C4 1_555 1_555
H4 C6 1_555 1_555
C7 C5 1_555 1_555
C8 C7 1_555 1_555
C9 C8 1_555 1_555
H5 C9 1_555 1_555
C10 C8 1_555 1_555
H6 C10 1_555 1_555
C11 C9 1_555 1_555
H7 C11 1_555 1_555
C12 C10 1_555 1_555
H8 C12 1_555 1_555
C13 C11 1_555 1_555
C14 C13 1_555 1_555
O1 C1 1_555 1_555
O2 C1 1_555 1_555
O10_2 C14 1_555 1_555
O4 C14 1_555 1_555
Cd4 O10_2 1_555 1_555
C6 C7 1_555 1_555
C12 C13 1_555 1_555
O1 Cd4_2 1_555 1_555
O2 Cd4_2 1_555 1_555
O4 Cd4 1_555 1_555
C1_2 C2_2 1_555 1_555
C2_2 C3_2 1_555 1_555
C3_2 H1_2 1_555 1_555
C4_2 C2_2 1_555 1_555
H2_2 C4_2 1_555 1_555
C5_2 C3_2 1_555 1_555
H3_2 C5_2 1_555 1_555
C6_2 C4_2 1_555 1_555
H4_2 C6_2 1_555 1_555
C7_2 C5_2 1_555 1_555
C8_2 C7_2 1_555 1_555
C9_2 C8_2 1_555 1_555
H5_2 C9_2 1_555 1_555
C10_2 C8_2 1_555 1_555
H6_2 C10_2 1_555 1_555
C11_2 C9_2 1_555 1_555
H7_2 C11_2 1_555 1_555
C12_2 C10_2 1_555 1_555
H8_2 C12_2 1_555 1_555
C13_2 C11_2 1_555 1_555
C14_2 C13_2 1_555 1_555
C15_2 H9_2 1_555 1_555
C16_2 H10_2 1_555 1_555
C17_2 C15_2 1_555 1_555
H11_2 C17_2 1_555 1_555
C18_2 C16_2 1_555 1_555
H12_2 C18_2 1_555 1_555
C19_2 C17_2 1_555 1_555
C20_2 C23_2 1_555 1_555
C21_2 C22_2 1_555 1_555
C22_2 C24_2 1_555 1_555
C23_2 C24_2 1_555 1_555
C24_2 C31_2 1_555 1_555
C25 C22_2 1_555 1_555
H13 C25 1_555 1_555
C26_2 C23_2 1_555 1_555
H14_2 C26_2 1_555 1_555
C27 C25 1_555 1_555
H15 C27 1_555 1_555
C29_2 C27 1_555 1_555
C31_2 C29_2 1_555 1_555
N1_2 C15_2 1_555 1_555
N2_2 C19_2 1_555 1_555
O1_2 C1_2 1_555 1_555
O2_2 C1_2 1_555 1_555
O10 C14_2 1_555 1_555
O11 C14_2 1_555 1_555
O5 C21_2 1_555 1_555
O6_2 C20_2 1_555 1_555
Cd4 N1_2 1_555 1_555
C6_2 C7_2 1_555 1_555
C12_2 C13_2 1_555 1_555
C16_2 N1_2 1_555 1_555
C18_2 C19_2 1_555 1_555
C20_2 N2_2 1_555 1_555
C21_2 N2_2 1_555 1_555
O1_2 Cd4 1_555 1_555
O2_2 Cd4 1_555 1_555
H19_2 C37_2 1_555 1_555
C1_3 C2_3 1_555 1_555
C2_3 C3_3 1_555 1_555
C3_3 H1_3 1_555 1_555
C4_3 C2_3 1_555 1_555
H2_3 C4_3 1_555 1_555
C5_3 C3_3 1_555 1_555
H3_3 C5_3 1_555 1_555
C6_3 C4_3 1_555 1_555
H4_3 C6_3 1_555 1_555
C7_3 C5_3 1_555 1_555
C8_3 C7_3 1_555 1_555
C9_3 C8_3 1_555 1_555
H5_3 C9_3 1_555 1_555
C10_3 C8_3 1_555 1_555
H6_3 C10_3 1_555 1_555
C11_3 C9_3 1_555 1_555
H7_3 C11_3 1_555 1_555
C12_3 C10_3 1_555 1_555
H8_3 C12_3 1_555 1_555
C13_3 C11_3 1_555 1_555
C14_3 C13_3 1_555 1_555
O1_3 C1_3 1_555 1_555
O2_3 C1_3 1_555 1_555
O3 C14_3 1_555 1_555
O4_2 C14_3 1_555 1_555
N5 Cd1 1_555 1_555
Cd3 O3 1_555 1_555
C6_3 C7_3 1_555 1_555
C12_3 C13_3 1_555 1_555
O1_3 Cd1 1_555 1_555
O2_3 Cd1 1_555 1_555
O4_2 Cd3 1_555 1_555
C22_3 C24_3 1_555 1_555
C24_3 C31_3 1_555 1_555
H16_3 C28_3 1_555 1_555
C30_3 C28_3 1_555 1_555
C31_3 C29_3 1_555 1_555
C32_3 C29_3 1_555 1_555
C33_3 C30_3 1_555 1_555
C34_3 C35_3 1_555 1_555
C35_3 H17_3 1_555 1_555
C36_3 C34_3 1_555 1_555
H18_3 C36_3 1_555 1_555
C37_3 C35_3 1_555 1_555
H19_3 C37_3 1_555 1_555
C38_3 C36_3 1_555 1_555
H20_3 C38_3 1_555 1_555
N3_3 C32_3 1_555 1_555
N5 C37_3 1_555 1_555
O7_3 C33_3 1_555 1_555
C30_3 C31_3 1_555 1_555
C33_3 N3_3 1_555 1_555
C34_3 N3_3 1_555 1_555
C38_3 N5 1_555 1_555
H19_4 C37_4 1_555 1_555
C1_4 C2_4 1_555 1_555
C2_4 C3_4 1_555 1_555
C3_4 H1_4 1_555 1_555
C4_4 C2_4 1_555 1_555
H2_4 C4_4 1_555 1_555
C5_4 C3_4 1_555 1_555
H3_4 C5_4 1_555 1_555
C6_4 C4_4 1_555 1_555
H4_4 C6_4 1_555 1_555
C7_4 C5_4 1_555 1_555
C8_4 C7_4 1_555 1_555
C9_4 C8_4 1_555 1_555
H5_4 C9_4 1_555 1_555
C10_4 C8_4 1_555 1_555
H6_4 C10_4 1_555 1_555
C11_4 C9_4 1_555 1_555
H7_4 C11_4 1_555 1_555
C12_4 C10_4 1_555 1_555
H8_4 C12_4 1_555 1_555
C13_4 C11_4 1_555 1_555
C14_4 C13_4 1_555 1_555
C15_3 H9_4 1_555 1_555
C16_3 H10_3 1_555 1_555
C17_3 C15_3 1_555 1_555
H11_3 C17_3 1_555 1_555
C18_3 C16_3 1_555 1_555
H12_3 C18_3 1_555 1_555
C19_3 C17_3 1_555 1_555
C20_3 C23_3 1_555 1_555
C21_3 C22_4 1_555 1_555
C22_4 C24_4 1_555 1_555
C23_3 C24_4 1_555 1_555
C24_4 C31_4 1_555 1_555
C25_2 C22_4 1_555 1_555
H13_2 C25_2 1_555 1_555
C26_3 C23_3 1_555 1_555
H14_3 C26_3 1_555 1_555
C27_2 C25_2 1_555 1_555
H15_2 C27_2 1_555 1_555
C29_4 C27_2 1_555 1_555
C31_4 C29_4 1_555 1_555
N1_3 C15_3 1_555 1_555
N2_3 C19_3 1_555 1_555
O1_4 C1_4 1_555 1_555
O2_4 C1_4 1_555 1_555
O9 C14_4 1_555 1_555
O11_2 C14_4 1_555 1_555
O5_2 C21_3 1_555 1_555
O6_3 C20_3 1_555 1_555
Cd3 N1_3 1_555 1_555
C6_4 C7_4 1_555 1_555
C12_4 C13_4 1_555 1_555
C16_3 N1_3 1_555 1_555
C18_3 C19_3 1_555 1_555
C20_3 N2_3 1_555 1_555
C21_3 N2_3 1_555 1_555
O1_4 Cd3 1_555 1_555
O2_4 Cd3 1_555 1_555
C16_4 H10_4 1_555 1_555
C17_4 C15_4 1_555 1_555
H11_4 C17_4 1_555 1_555
C18_4 C16_4 1_555 1_555
H12_4 C18_4 1_555 1_555
C19_4 C17_4 1_555 1_555
C20_4 C23_4 1_555 1_555
C26_4 C23_4 1_555 1_555
H14_4 C26_4 1_555 1_555
N1_4 C15_4 1_555 1_555
N2_4 C19_4 1_555 1_555
O6_4 C20_4 1_555 1_555
C16_4 N1_4 1_555 1_555
C18_4 C19_4 1_555 1_555
C20_4 N2_4 1_555 1_555
C21_4 N2_4 1_555 1_555
H16_4 C28_4 1_555 1_555
C30_4 C28_4 1_555 1_555
C33_4 C30_4 1_555 1_555
C34_4 C35_4 1_555 1_555
C35_4 H17_4 1_555 1_555
C36_4 C34_4 1_555 1_555
H18_4 C36_4 1_555 1_555
C38_4 C36_4 1_555 1_555
H20_4 C38_4 1_555 1_555
N3_4 C32_4 1_555 1_555
O7_4 C33_4 1_555 1_555
O8_2 C32_4 1_555 1_555
C33_4 N3_4 1_555 1_555
C34_4 N3_4 1_555 1_555
C38_4 N5_2 1_555 1_555
H13_3 C25_3 1_555 1_555
C27_3 C25_3 1_555 1_555
H15_3 C27_3 1_555 1_555
H13_4 C25_4 1_555 1_555
C27_4 C25_4 1_555 1_555
H15_4 C27_4 1_555 1_555

#END
