
###############################################################################
#
# This file contains modified crystal structure data generated from the
# MOF subset of the Cambridge Structural Database (CSD) v543 
# hosted by the Cambridge Crystallographic Data Centre (CCDC).
#
# This work is licensed under the Creative Commons
# Attribution-NonCommercial-ShareAlike 4.0 International License.
# To view a copy of this license, visit
# http://creativecommons.org/licenses/by-nc-sa/4.0/
# or send a letter to
# Creative Commons, PO Box 1866, Mountain View, CA 94042, USA.
#
# CIF created using the CSD Python API on 29 September 2022
# The structure has been converted into the P1 space group
# The structure has a 3D framework
# The original CSD entry BUTPIR is in the orthorhombic crystal system
# The original CSD entry BUTPIR is in a Sohncke space group
# The framework has been calculated to contain at least 10.0% void space
# The void calculation uses a probe of radius 1.32A, grid spacing 0.4
#
###############################################################################

data_BUTPIR
_chemical_formula_moiety         '(C264 H296 N16 O64 Zn16)n'
_symmetry_cell_setting           triclinic
_symmetry_space_group_name_H-M   'P 1'
_symmetry_Int_Tables_number      1
_space_group_name_Hall           'P 1'
loop_
_symmetry_equiv_pos_site_id
_symmetry_equiv_pos_as_xyz
1 x,y,z
_cell_length_a                   18.4486(11)
_cell_length_b                   19.2044(12)
_cell_length_c                   31.3758(18)
_cell_angle_alpha                90
_cell_angle_beta                 90
_cell_angle_gamma                90
_cell_volume                     11116.3
loop_
_atom_site_label
_atom_site_type_symbol
_atom_site_fract_x
_atom_site_fract_y
_atom_site_fract_z
Zn1 Zn 0.22487(3) 0.76158(4) 0.70747(2)
Zn2 Zn 0.26579(3) 0.75939(4) 0.79606(2)
O1 O 0.3466(3) 0.8096(3) 0.76285(15)
O2 O 0.3155(3) 0.3512(3) 0.76820(14)
O3 O 0.6477(3) 0.7914(3) 0.75772(16)
N1 N 0.1738(3) 0.7460(3) 0.35128(13)
N2 N 0.1662(3) 0.7621(3) 0.65269(13)
O4 O 0.2855(3) 0.3510(3) 0.70076(14)
O5 O 0.3010(3) 0.6680(3) 0.77111(15)
O6 O 0.2759(3) 0.6711(3) 0.70177(14)
O7 O 0.6707(3) 0.7883(3) 0.68707(15)
O8 O 0.3187(3) 0.8093(3) 0.69340(14)
C1 C 0.3463(4) 0.5761(4) 0.7280(3)
H1 H 0.3765 0.5823 0.7026
C2 C 0.4319(3) 0.8570(5) 0.7128(3)
H2 H 0.4255 0.8854 0.6871
C3 C 0.3604(3) 0.8220(4) 0.7241(2)
C4 C 0.0372(3) 0.7565(5) 0.53958(14)
C5 C 0.3036(4) 0.6433(4) 0.7338(2)
C6 C 0.6335(4) 0.8066(4) 0.7195(2)
C7 C 0.0852(3) 0.7537(5) 0.42219(15)
C8 C 0.0397(3) 0.7580(5) 0.46161(14)
C9 C 0.3138(4) 0.3773(4) 0.7321(2)
C10 C 0.0795(3) 0.7606(5) 0.57955(15)
C11 C 0.5626(3) 0.8495(4) 0.7108(2)
C12 C 0.3527(4) 0.4498(4) 0.7271(2)
C13 C 0.0747(3) 0.7585(4) 0.50061(14)
H3 H 0.1250 0.7602 0.5010
C14 C 0.4958(4) 0.7425(4) 0.7359(4)
H4 H 0.5004 0.7608 0.7643
H5 H 0.4511 0.7171 0.7335
H6 H 0.5357 0.7120 0.7300
C15 C 0.2958(4) 0.5122(4) 0.7191(3)
C16 C 0.2337(4) 0.5103(5) 0.7505(2)
H7 H 0.2034 0.4708 0.7445
H8 H 0.2525 0.5066 0.7789
H9 H 0.2057 0.5522 0.7480
C17 C 0.1362(4) 0.7146(5) 0.58460(18)
H10 H 0.1471 0.6827 0.5633
C18 C 0.1821(4) 0.7959(4) 0.37935(19)
H11 H 0.2188 0.8284 0.3752
C19 C 0.4959(4) 0.8009(5) 0.7047(3)
C20 C 0.1769(4) 0.7164(4) 0.62195(19)
H12 H 0.2136 0.6837 0.6254
C21 C 0.1385(4) 0.8021(5) 0.41491(19)
H13 H 0.1452 0.8389 0.4338
C22 C 0.0783(4) 0.7030(5) 0.3936(2)
H14 H 0.0423 0.6696 0.3975
C23 C 0.3963(6) 0.5571(5) 0.7639(3)
H15 H 0.3804 0.5779 0.7905
H16 H 0.4455 0.5722 0.7580
C24 C 0.0673(4) 0.8068(5) 0.61185(18)
H17 H 0.0290 0.8382 0.6097
C25 C 0.3914(5) 0.4752(5) 0.7659(3)
H18 H 0.4397 0.4553 0.7670
H19 H 0.3653 0.4610 0.7913
C26 C 0.5444(5) 0.8938(6) 0.7527(3)
H20 H 0.5575 0.8687 0.7784
H21 H 0.5689 0.9385 0.7525
C27 C 0.4605(5) 0.9023(5) 0.7486(3)
H22 H 0.4375 0.8892 0.7752
H23 H 0.4488 0.9507 0.7429
C28 C 0.4040(5) 0.4445(5) 0.6878(3)
H24 H 0.3771 0.4280 0.6636
H25 H 0.4238 0.4896 0.6815
H26 H 0.4427 0.4126 0.6939
C29 C 0.2640(6) 0.5105(5) 0.6729(3)
H27 H 0.3030 0.5117 0.6526
H28 H 0.2364 0.4685 0.6690
H29 H 0.2331 0.5501 0.6686
C30 C 0.5770(5) 0.8973(7) 0.6722(4)
H30 H 0.6186 0.9258 0.6779
H31 H 0.5858 0.8693 0.6474
H32 H 0.5355 0.9264 0.6674
C31 C 0.4888(5) 0.7731(7) 0.6611(3)
H33 H 0.4889 0.8109 0.6410
H34 H 0.5288 0.7426 0.6552
H35 H 0.4442 0.7477 0.6587
C32 C 0.1221(4) 0.6984(5) 0.3591(2)
H36 H 0.1162 0.6614 0.3403
C33 C 0.1109(4) 0.8074(5) 0.6475(2)
H37 H 0.1020 0.8401 0.6688
Zn7 Zn 0.27513(3) 0.26158(4) 0.79253(2)
Zn8 Zn 0.72487(3) 0.73842(4) 0.79253(2)
Zn11 Zn 0.23421(3) 0.74061(4) 0.29606(2)
Zn12 Zn 0.23421(3) 0.25939(4) 0.70394(2)
Zn14 Zn 0.76579(3) 0.74061(4) 0.70394(2)
O18 O 0.1845(3) 0.8512(3) 0.73180(14)
O20 O 0.1477(3) 0.7086(3) 0.74228(16)
N5 N 0.3262(3) 0.7540(3) 0.85128(13)
O22 O 0.2145(3) 0.8510(3) 0.79924(14)
O24 O 0.1707(3) 0.7117(3) 0.81293(15)
N3 N 0.8262(3) 0.7460(3) 0.64872(13)
N4 N 0.8338(3) 0.7621(3) 0.34731(13)
C34 C 0.9628(3) 0.7565(5) 0.46042(14)
C35 C 0.9148(3) 0.7537(5) 0.57781(15)
C36 C 0.9603(3) 0.7580(5) 0.53839(14)
C37 C 0.9205(3) 0.7606(5) 0.42045(15)
C38 C 0.9253(3) 0.7585(4) 0.49939(14)
H38 H 0.8750 0.7602 0.4990
C39 C 0.8638(4) 0.7146(5) 0.41540(18)
H39 H 0.8529 0.6827 0.4367
C40 C 0.8179(4) 0.7959(4) 0.62065(19)
H40 H 0.7812 0.8284 0.6248
C41 C 0.8231(4) 0.7164(4) 0.37805(19)
H41 H 0.7864 0.6837 0.3746
C42 C 0.8615(4) 0.8021(5) 0.58509(19)
H42 H 0.8548 0.8389 0.5662
C43 C 0.9217(4) 0.7030(5) 0.6064(2)
H43 H 0.9577 0.6696 0.6025
C44 C 0.9327(4) 0.8068(5) 0.38815(18)
H44 H 0.9710 0.8382 0.3903
C45 C 0.8779(4) 0.6984(5) 0.6409(2)
H45 H 0.8838 0.6614 0.6597
C46 C 0.8891(4) 0.8074(5) 0.3525(2)
H46 H 0.8980 0.8401 0.3312
Zn3 Zn 0.77513(3) 0.76158(4) 0.29253(2)
Zn4 Zn 0.73421(3) 0.75939(4) 0.20394(2)
O9 O 0.6534(3) 0.8096(3) 0.23715(15)
O10 O 0.6845(3) 0.3512(3) 0.23180(14)
O11 O 0.3523(3) 0.7914(3) 0.24228(16)
O12 O 0.7145(3) 0.3510(3) 0.29924(14)
O13 O 0.6990(3) 0.6680(3) 0.22889(15)
O14 O 0.7241(3) 0.6711(3) 0.29823(14)
O15 O 0.3293(3) 0.7883(3) 0.31293(15)
O16 O 0.6813(3) 0.8093(3) 0.30660(14)
C47 C 0.6537(4) 0.5761(4) 0.2720(3)
H47 H 0.6235 0.5823 0.2974
C48 C 0.5681(3) 0.8570(5) 0.2872(3)
H48 H 0.5745 0.8854 0.3129
C49 C 0.6396(3) 0.8220(4) 0.2759(2)
C50 C 0.6964(4) 0.6433(4) 0.2662(2)
C51 C 0.3665(4) 0.8066(4) 0.2805(2)
C52 C 0.6862(4) 0.3773(4) 0.2679(2)
C53 C 0.4374(3) 0.8495(4) 0.2892(2)
C54 C 0.6473(4) 0.4498(4) 0.2729(2)
C55 C 0.5042(4) 0.7425(4) 0.2641(4)
H49 H 0.4996 0.7608 0.2357
H50 H 0.5489 0.7171 0.2665
H51 H 0.4643 0.7120 0.2700
C56 C 0.7042(4) 0.5122(4) 0.2809(3)
C57 C 0.7663(4) 0.5103(5) 0.2495(2)
H52 H 0.7966 0.4708 0.2555
H53 H 0.7475 0.5066 0.2211
H54 H 0.7943 0.5522 0.2520
C58 C 0.5041(4) 0.8009(5) 0.2953(3)
C59 C 0.6037(6) 0.5571(5) 0.2361(3)
H55 H 0.6196 0.5779 0.2095
H56 H 0.5545 0.5722 0.2420
C60 C 0.6086(5) 0.4752(5) 0.2341(3)
H57 H 0.5603 0.4553 0.2330
H58 H 0.6347 0.4610 0.2087
C61 C 0.4556(5) 0.8938(6) 0.2473(3)
H59 H 0.4425 0.8687 0.2216
H60 H 0.4311 0.9385 0.2475
C62 C 0.5395(5) 0.9023(5) 0.2514(3)
H61 H 0.5625 0.8892 0.2248
H62 H 0.5512 0.9507 0.2571
C63 C 0.5960(5) 0.4445(5) 0.3122(3)
H63 H 0.6229 0.4280 0.3364
H64 H 0.5762 0.4896 0.3185
H65 H 0.5573 0.4126 0.3061
C64 C 0.7360(6) 0.5105(5) 0.3271(3)
H66 H 0.6970 0.5117 0.3474
H67 H 0.7636 0.4685 0.3310
H68 H 0.7669 0.5501 0.3314
C65 C 0.4230(5) 0.8973(7) 0.3278(4)
H69 H 0.3814 0.9258 0.3221
H70 H 0.4142 0.8693 0.3526
H71 H 0.4645 0.9264 0.3326
C66 C 0.5112(5) 0.7731(7) 0.3389(3)
H72 H 0.5111 0.8109 0.3590
H73 H 0.4712 0.7426 0.3448
H74 H 0.5558 0.7477 0.3413
Zn5 Zn 0.72487(3) 0.26158(4) 0.20747(2)
Zn6 Zn 0.27513(3) 0.73842(4) 0.20747(2)
Zn9 Zn 0.76579(3) 0.25939(4) 0.29606(2)
O17 O 0.8155(3) 0.8512(3) 0.26820(14)
O19 O 0.8523(3) 0.7086(3) 0.25772(16)
N6 N 0.6738(3) 0.7540(3) 0.14872(13)
O21 O 0.7855(3) 0.8510(3) 0.20076(14)
O23 O 0.8293(3) 0.7117(3) 0.18707(15)
N3_2 N 0.1738(3) 0.2540(3) 0.64872(13)
N4_2 N 0.1662(3) 0.2379(3) 0.34731(13)
C34_2 C 0.0372(3) 0.2435(5) 0.46042(14)
C35_2 C 0.0852(3) 0.2463(5) 0.57781(15)
C36_2 C 0.0397(3) 0.2420(5) 0.53839(14)
C37_2 C 0.0795(3) 0.2394(5) 0.42045(15)
C38_2 C 0.0747(3) 0.2415(4) 0.49939(14)
H38_2 H 0.1250 0.2398 0.4990
C39_2 C 0.1362(4) 0.2854(5) 0.41540(18)
H39_2 H 0.1471 0.3173 0.4367
C40_2 C 0.1821(4) 0.2041(4) 0.62065(19)
H40_2 H 0.2188 0.1716 0.6248
C41_2 C 0.1769(4) 0.2836(4) 0.37805(19)
H41_2 H 0.2136 0.3163 0.3746
C42_2 C 0.1385(4) 0.1979(5) 0.58509(19)
H42_2 H 0.1452 0.1611 0.5662
C43_2 C 0.0783(4) 0.2970(5) 0.6064(2)
H43_2 H 0.0423 0.3304 0.6025
C44_2 C 0.0673(4) 0.1932(5) 0.38815(18)
H44_2 H 0.0290 0.1618 0.3903
C45_2 C 0.1221(4) 0.3016(5) 0.6409(2)
H45_2 H 0.1162 0.3386 0.6597
C46_2 C 0.1109(4) 0.1926(5) 0.3525(2)
H46_2 H 0.1020 0.1599 0.3312
Zn3_2 Zn 0.22487(3) 0.23842(4) 0.29253(2)
Zn4_2 Zn 0.26579(3) 0.24061(4) 0.20394(2)
O9_2 O 0.3466(3) 0.1904(3) 0.23715(15)
O10_2 O 0.3155(3) 0.6488(3) 0.23180(14)
O11_2 O 0.6477(3) 0.2086(3) 0.24228(16)
O12_2 O 0.2855(3) 0.6490(3) 0.29924(14)
O13_2 O 0.3010(3) 0.3320(3) 0.22889(15)
O14_2 O 0.2759(3) 0.3289(3) 0.29823(14)
O15_2 O 0.6707(3) 0.2117(3) 0.31293(15)
O16_2 O 0.3187(3) 0.1907(3) 0.30660(14)
C47_2 C 0.3463(4) 0.4239(4) 0.2720(3)
H47_2 H 0.3765 0.4177 0.2974
C48_2 C 0.4319(3) 0.1430(5) 0.2872(3)
H48_2 H 0.4255 0.1146 0.3129
C49_2 C 0.3604(3) 0.1780(4) 0.2759(2)
C50_2 C 0.3036(4) 0.3567(4) 0.2662(2)
C51_2 C 0.6335(4) 0.1934(4) 0.2805(2)
C52_2 C 0.3138(4) 0.6227(4) 0.2679(2)
C53_2 C 0.5626(3) 0.1505(4) 0.2892(2)
C54_2 C 0.3527(4) 0.5502(4) 0.2729(2)
C55_2 C 0.4958(4) 0.2575(4) 0.2641(4)
H49_2 H 0.5004 0.2392 0.2357
H50_2 H 0.4511 0.2829 0.2665
H51_2 H 0.5357 0.2880 0.2700
C56_2 C 0.2958(4) 0.4878(4) 0.2809(3)
C57_2 C 0.2337(4) 0.4897(5) 0.2495(2)
H52_2 H 0.2034 0.5292 0.2555
H53_2 H 0.2525 0.4934 0.2211
H54_2 H 0.2057 0.4478 0.2520
C58_2 C 0.4959(4) 0.1991(5) 0.2953(3)
C59_2 C 0.3963(6) 0.4429(5) 0.2361(3)
H55_2 H 0.3804 0.4221 0.2095
H56_2 H 0.4455 0.4278 0.2420
C60_2 C 0.3914(5) 0.5248(5) 0.2341(3)
H57_2 H 0.4397 0.5447 0.2330
H58_2 H 0.3653 0.5390 0.2087
C61_2 C 0.5444(5) 0.1062(6) 0.2473(3)
H59_2 H 0.5575 0.1313 0.2216
H60_2 H 0.5689 0.0615 0.2475
C62_2 C 0.4605(5) 0.0977(5) 0.2514(3)
H61_2 H 0.4375 0.1108 0.2248
H62_2 H 0.4488 0.0493 0.2571
C63_2 C 0.4040(5) 0.5555(5) 0.3122(3)
H63_2 H 0.3771 0.5720 0.3364
H64_2 H 0.4238 0.5104 0.3185
H65_2 H 0.4427 0.5874 0.3061
C64_2 C 0.2640(6) 0.4895(5) 0.3271(3)
H66_2 H 0.3030 0.4883 0.3474
H67_2 H 0.2364 0.5315 0.3310
H68_2 H 0.2331 0.4499 0.3314
C65_2 C 0.5770(5) 0.1027(7) 0.3278(4)
H69_2 H 0.6186 0.0742 0.3221
H70_2 H 0.5858 0.1307 0.3526
H71_2 H 0.5355 0.0736 0.3326
C66_2 C 0.4888(5) 0.2269(7) 0.3389(3)
H72_2 H 0.4889 0.1891 0.3590
H73_2 H 0.5288 0.2574 0.3448
H74_2 H 0.4442 0.2523 0.3413
O17_2 O 0.1845(3) 0.1488(3) 0.26820(14)
O19_2 O 0.1477(3) 0.2914(3) 0.25772(16)
N6_2 N 0.3262(3) 0.2460(3) 0.14872(13)
O21_2 O 0.2145(3) 0.1490(3) 0.20076(14)
O23_2 O 0.1707(3) 0.2883(3) 0.18707(15)
Zn1_2 Zn 0.77513(3) 0.23842(4) 0.70747(2)
Zn2_2 Zn 0.73421(3) 0.24061(4) 0.79606(2)
O1_2 O 0.6534(3) 0.1904(3) 0.76285(15)
O2_2 O 0.6845(3) 0.6488(3) 0.76820(14)
O3_2 O 0.3523(3) 0.2086(3) 0.75772(16)
N1_2 N 0.8262(3) 0.2540(3) 0.35128(13)
N2_2 N 0.8338(3) 0.2379(3) 0.65269(13)
O4_2 O 0.7145(3) 0.6490(3) 0.70076(14)
O5_2 O 0.6990(3) 0.3320(3) 0.77111(15)
O6_2 O 0.7241(3) 0.3289(3) 0.70177(14)
O7_2 O 0.3293(3) 0.2117(3) 0.68707(15)
O8_2 O 0.6813(3) 0.1907(3) 0.69340(14)
C1_2 C 0.6537(4) 0.4239(4) 0.7280(3)
H1_2 H 0.6235 0.4177 0.7026
C2_2 C 0.5681(3) 0.1430(5) 0.7128(3)
H2_2 H 0.5745 0.1146 0.6871
C3_2 C 0.6396(3) 0.1780(4) 0.7241(2)
C4_2 C 0.9628(3) 0.2435(5) 0.53958(14)
C5_2 C 0.6964(4) 0.3567(4) 0.7338(2)
C6_2 C 0.3665(4) 0.1934(4) 0.7195(2)
C7_2 C 0.9148(3) 0.2463(5) 0.42219(15)
C8_2 C 0.9603(3) 0.2420(5) 0.46161(14)
C9_2 C 0.6862(4) 0.6227(4) 0.7321(2)
C10_2 C 0.9205(3) 0.2394(5) 0.57955(15)
C11_2 C 0.4374(3) 0.1505(4) 0.7108(2)
C12_2 C 0.6473(4) 0.5502(4) 0.7271(2)
C13_2 C 0.9253(3) 0.2415(4) 0.50061(14)
H3_2 H 0.8750 0.2398 0.5010
C14_2 C 0.5042(4) 0.2575(4) 0.7359(4)
H4_2 H 0.4996 0.2392 0.7643
H5_2 H 0.5489 0.2829 0.7335
H6_2 H 0.4643 0.2880 0.7300
C15_2 C 0.7042(4) 0.4878(4) 0.7191(3)
C16_2 C 0.7663(4) 0.4897(5) 0.7505(2)
H7_2 H 0.7966 0.5292 0.7445
H8_2 H 0.7475 0.4934 0.7789
H9_2 H 0.7943 0.4478 0.7480
C17_2 C 0.8638(4) 0.2854(5) 0.58460(18)
H10_2 H 0.8529 0.3173 0.5633
C18_2 C 0.8179(4) 0.2041(4) 0.37935(19)
H11_2 H 0.7812 0.1716 0.3752
C19_2 C 0.5041(4) 0.1991(5) 0.7047(3)
C20_2 C 0.8231(4) 0.2836(4) 0.62195(19)
H12_2 H 0.7864 0.3163 0.6254
C21_2 C 0.8615(4) 0.1979(5) 0.41491(19)
H13_2 H 0.8548 0.1611 0.4338
C22_2 C 0.9217(4) 0.2970(5) 0.3936(2)
H14_2 H 0.9577 0.3304 0.3975
C23_2 C 0.6037(6) 0.4429(5) 0.7639(3)
H15_2 H 0.6196 0.4221 0.7905
H16_2 H 0.5545 0.4278 0.7580
C24_2 C 0.9327(4) 0.1932(5) 0.61185(18)
H17_2 H 0.9710 0.1618 0.6097
C25_2 C 0.6086(5) 0.5248(5) 0.7659(3)
H18_2 H 0.5603 0.5447 0.7670
H19_2 H 0.6347 0.5390 0.7913
C26_2 C 0.4556(5) 0.1062(6) 0.7527(3)
H20_2 H 0.4425 0.1313 0.7784
H21_2 H 0.4311 0.0615 0.7525
C27_2 C 0.5395(5) 0.0977(5) 0.7486(3)
H22_2 H 0.5625 0.1108 0.7752
H23_2 H 0.5512 0.0493 0.7429
C28_2 C 0.5960(5) 0.5555(5) 0.6878(3)
H24_2 H 0.6229 0.5720 0.6636
H25_2 H 0.5762 0.5104 0.6815
H26_2 H 0.5573 0.5874 0.6939
C29_2 C 0.7360(6) 0.4895(5) 0.6729(3)
H27_2 H 0.6970 0.4883 0.6526
H28_2 H 0.7636 0.5315 0.6690
H29_2 H 0.7669 0.4499 0.6686
C30_2 C 0.4230(5) 0.1027(7) 0.6722(4)
H30_2 H 0.3814 0.0742 0.6779
H31_2 H 0.4142 0.1307 0.6474
H32_2 H 0.4645 0.0736 0.6674
C31_2 C 0.5112(5) 0.2269(7) 0.6611(3)
H33_2 H 0.5111 0.1891 0.6410
H34_2 H 0.4712 0.2574 0.6552
H35_2 H 0.5558 0.2523 0.6587
C32_2 C 0.8779(4) 0.3016(5) 0.3591(2)
H36_2 H 0.8838 0.3386 0.3403
C33_2 C 0.8891(4) 0.1926(5) 0.6475(2)
H37_2 H 0.8980 0.1599 0.6688
O18_2 O 0.8155(3) 0.1488(3) 0.73180(14)
O20_2 O 0.8523(3) 0.2914(3) 0.74228(16)
N5_2 N 0.6738(3) 0.2460(3) 0.85128(13)
O22_2 O 0.7855(3) 0.1490(3) 0.79924(14)
O24_2 O 0.8293(3) 0.2883(3) 0.81293(15)
C6_3 C 0.1335(4) 0.3066(4) 0.2195(2)
C11_3 C 0.0626(3) 0.3495(4) 0.2108(2)
H4_3 H 0.0004 0.2608 0.2643
H6_3 H 0.0357 0.2120 0.2300
C26_3 C 0.0444(5) 0.3938(6) 0.2527(3)
H20_3 H 0.0575 0.3687 0.2784
H21_3 H 0.0689 0.4385 0.2525
C30_3 C 0.0770(5) 0.3973(7) 0.1722(4)
H30_3 H 0.1186 0.4258 0.1779
H31_3 H 0.0858 0.3693 0.1474
H32_3 H 0.0355 0.4264 0.1674
H34_3 H 0.0288 0.2426 0.1552
O1_3 O 0.8466(3) 0.3096(3) 0.26285(15)
N2_3 N 0.6662(3) 0.2621(3) 0.15269(13)
O5_3 O 0.8010(3) 0.1680(3) 0.27111(15)
O6_3 O 0.7759(3) 0.1711(3) 0.20177(14)
O8_3 O 0.8187(3) 0.3093(3) 0.19340(14)
C1_3 C 0.8463(4) 0.0761(4) 0.2280(3)
H1_3 H 0.8765 0.0823 0.2026
C2_3 C 0.9319(3) 0.3570(5) 0.2128(3)
H2_3 H 0.9255 0.3854 0.1871
C3_3 C 0.8604(3) 0.3220(4) 0.2241(2)
C4_3 C 0.5372(3) 0.2565(5) 0.03958(14)
C5_3 C 0.8036(4) 0.1433(4) 0.2338(2)
C10_3 C 0.5795(3) 0.2606(5) 0.07955(15)
C13_3 C 0.5747(3) 0.2585(4) 0.00061(14)
H3_3 H 0.6250 0.2602 0.0010
C14_3 C 0.9958(4) 0.2425(4) 0.2359(4)
H5_3 H 0.9511 0.2171 0.2335
C15_3 C 0.7958(4) 0.0122(4) 0.2191(3)
C16_3 C 0.7337(4) 0.0103(5) 0.2505(2)
H8_3 H 0.7525 0.0066 0.2789
H9_3 H 0.7057 0.0522 0.2480
C17_3 C 0.6362(4) 0.2146(5) 0.08460(18)
H10_3 H 0.6471 0.1827 0.0633
C19_3 C 0.9959(4) 0.3009(5) 0.2047(3)
C20_3 C 0.6769(4) 0.2164(4) 0.12195(19)
H12_3 H 0.7136 0.1837 0.1254
C23_3 C 0.8963(6) 0.0571(5) 0.2639(3)
H15_3 H 0.8804 0.0779 0.2905
H16_3 H 0.9455 0.0722 0.2580
C24_3 C 0.5673(4) 0.3068(5) 0.11185(18)
H17_3 H 0.5290 0.3382 0.1097
C27_3 C 0.9605(5) 0.4023(5) 0.2486(3)
H22_3 H 0.9375 0.3892 0.2752
H23_3 H 0.9488 0.4507 0.2429
C29_3 C 0.7640(6) 0.0105(5) 0.1729(3)
H27_3 H 0.8030 0.0117 0.1526
H29_3 H 0.7331 0.0501 0.1686
C31_3 C 0.9888(5) 0.2731(7) 0.1611(3)
H33_3 H 0.9889 0.3109 0.1410
H35_3 H 0.9442 0.2477 0.1587
C33_3 C 0.6109(4) 0.3074(5) 0.1475(2)
H37_3 H 0.6020 0.3401 0.1688
C35_3 C 0.4148(3) 0.2537(5) 0.07781(15)
C36_3 C 0.4603(3) 0.2580(5) 0.03839(14)
C40_3 C 0.3179(4) 0.2959(4) 0.12065(19)
H40_3 H 0.2812 0.3284 0.1248
C42_3 C 0.3615(4) 0.3021(5) 0.08509(19)
H42_3 H 0.3548 0.3389 0.0662
C43_3 C 0.4217(4) 0.2030(5) 0.1064(2)
H43_3 H 0.4577 0.1696 0.1025
C45_3 C 0.3779(4) 0.1984(5) 0.1409(2)
H45_3 H 0.3838 0.1614 0.1597
C7_3 C 0.5852(3) 0.2537(5) 0.92219(15)
C8_3 C 0.5397(3) 0.2580(5) 0.96161(14)
C18_3 C 0.6821(4) 0.2959(4) 0.87935(19)
H11_3 H 0.7188 0.3284 0.8752
C21_3 C 0.6385(4) 0.3021(5) 0.91491(19)
H13_3 H 0.6452 0.3389 0.9338
C22_3 C 0.5783(4) 0.2030(5) 0.8936(2)
H14_3 H 0.5423 0.1696 0.8975
C32_3 C 0.6221(4) 0.1984(5) 0.8591(2)
H36_3 H 0.6162 0.1614 0.8403
N4_3 N 0.3338(3) 0.2621(3) 0.84731(13)
C34_3 C 0.4628(3) 0.2565(5) 0.96042(14)
C37_3 C 0.4205(3) 0.2606(5) 0.92045(15)
C38_3 C 0.4253(3) 0.2585(4) 0.99939(14)
H38_3 H 0.3750 0.2602 0.9990
C39_3 C 0.3638(4) 0.2146(5) 0.91540(18)
H39_3 H 0.3529 0.1827 0.9367
C41_3 C 0.3231(4) 0.2164(4) 0.87805(19)
H41_3 H 0.2864 0.1837 0.8746
C44_3 C 0.4327(4) 0.3068(5) 0.88815(18)
H44_3 H 0.4710 0.3382 0.8903
C46_3 C 0.3891(4) 0.3074(5) 0.8525(2)
H46_3 H 0.3980 0.3401 0.8312
O9_3 O 0.1534(3) 0.3096(3) 0.73715(15)
O13_3 O 0.1990(3) 0.1680(3) 0.72889(15)
O14_3 O 0.2241(3) 0.1711(3) 0.79823(14)
O16_3 O 0.1813(3) 0.3093(3) 0.80660(14)
C47_3 C 0.1537(4) 0.0761(4) 0.7720(3)
H47_3 H 0.1235 0.0823 0.7974
C48_3 C 0.0681(3) 0.3570(5) 0.7872(3)
H48_3 H 0.0745 0.3854 0.8129
C49_3 C 0.1396(3) 0.3220(4) 0.7759(2)
C50_3 C 0.1964(4) 0.1433(4) 0.7662(2)
C55_3 C 0.0042(4) 0.2425(4) 0.7641(4)
H50_3 H 0.0489 0.2171 0.7665
C56_3 C 0.2042(4) 0.0122(4) 0.7809(3)
C57_3 C 0.2663(4) 0.0103(5) 0.7495(2)
H53_3 H 0.2475 0.0066 0.7211
H54_3 H 0.2943 0.0522 0.7520
C58_3 C 0.0041(4) 0.3009(5) 0.7953(3)
C59_3 C 0.1037(6) 0.0571(5) 0.7361(3)
H55_3 H 0.1196 0.0779 0.7095
H56_3 H 0.0545 0.0722 0.7420
C62_3 C 0.0395(5) 0.4023(5) 0.7514(3)
H61_3 H 0.0625 0.3892 0.7248
H62_3 H 0.0512 0.4507 0.7571
C64_3 C 0.2360(6) 0.0105(5) 0.8271(3)
H66_3 H 0.1970 0.0117 0.8474
H68_3 H 0.2669 0.0501 0.8314
C66_3 C 0.0112(5) 0.2731(7) 0.8389(3)
H72_3 H 0.0111 0.3109 0.8590
H74_3 H 0.0558 0.2477 0.8413
C9_3 C 0.8138(4) 0.8773(4) 0.2321(2)
C12_3 C 0.8527(4) 0.9498(4) 0.2271(2)
H7_3 H 0.7034 0.9708 0.2445
C25_3 C 0.8914(5) 0.9752(5) 0.2659(3)
H18_3 H 0.9397 0.9553 0.2670
H19_3 H 0.8653 0.9610 0.2913
C28_3 C 0.9040(5) 0.9445(5) 0.1878(3)
H24_3 H 0.8771 0.9280 0.1636
H25_3 H 0.9238 0.9896 0.1815
H26_3 H 0.9427 0.9126 0.1939
H28_3 H 0.7364 0.9685 0.1690
C52_3 C 0.1862(4) 0.8773(4) 0.7679(2)
C54_3 C 0.1473(4) 0.9498(4) 0.7729(2)
H52_3 H 0.2966 0.9708 0.7555
C60_3 C 0.1086(5) 0.9752(5) 0.7341(3)
H57_3 H 0.0603 0.9553 0.7330
H58_3 H 0.1347 0.9610 0.7087
C63_3 C 0.0960(5) 0.9445(5) 0.8122(3)
H63_3 H 0.1229 0.9280 0.8364
H64_3 H 0.0762 0.9896 0.8185
H65_3 H 0.0573 0.9126 0.8061
H67_3 H 0.2636 0.9685 0.8310
C51_3 C 0.8665(4) 0.3066(4) 0.7805(2)
C53_3 C 0.9374(3) 0.3495(4) 0.7892(2)
H49_3 H 0.9996 0.2608 0.7357
H51_3 H 0.9643 0.2120 0.7700
C61_3 C 0.9556(5) 0.3938(6) 0.7473(3)
H59_3 H 0.9425 0.3687 0.7216
H60_3 H 0.9311 0.4385 0.7475
C65_3 C 0.9230(5) 0.3973(7) 0.8278(4)
H69_3 H 0.8814 0.4258 0.8221
H70_3 H 0.9142 0.3693 0.8526
H71_3 H 0.9645 0.4264 0.8326
H73_3 H 0.9712 0.2426 0.8448
C51_4 C 0.1335(4) 0.6934(4) 0.7805(2)
C53_4 C 0.0626(3) 0.6505(4) 0.7892(2)
H49_4 H 0.0004 0.7392 0.7357
H51_4 H 0.0357 0.7880 0.7700
C61_4 C 0.0444(5) 0.6062(6) 0.7473(3)
H59_4 H 0.0575 0.6313 0.7216
H60_4 H 0.0689 0.5615 0.7475
C65_4 C 0.0770(5) 0.6027(7) 0.8278(4)
H69_4 H 0.1186 0.5742 0.8221
H70_4 H 0.0858 0.6307 0.8526
H71_4 H 0.0355 0.5736 0.8326
H73_4 H 0.0288 0.7574 0.8448
C9_4 C 0.1862(4) 0.1227(4) 0.2321(2)
C12_4 C 0.1473(4) 0.0502(4) 0.2271(2)
H7_4 H 0.2966 0.0292 0.2445
C25_4 C 0.1086(5) 0.0248(5) 0.2659(3)
H18_4 H 0.0603 0.0447 0.2670
H19_4 H 0.1347 0.0390 0.2913
C28_4 C 0.0960(5) 0.0555(5) 0.1878(3)
H24_4 H 0.1229 0.0720 0.1636
H25_4 H 0.0762 0.0104 0.1815
H26_4 H 0.0573 0.0874 0.1939
H28_4 H 0.2636 0.0315 0.1690
C52_4 C 0.8138(4) 0.1227(4) 0.7679(2)
C54_4 C 0.8527(4) 0.0502(4) 0.7729(2)
H52_4 H 0.7034 0.0292 0.7555
C60_4 C 0.8914(5) 0.0248(5) 0.7341(3)
H57_4 H 0.9397 0.0447 0.7330
H58_4 H 0.8653 0.0390 0.7087
C63_4 C 0.9040(5) 0.0555(5) 0.8122(3)
H63_4 H 0.8771 0.0720 0.8364
H64_4 H 0.9238 0.0104 0.8185
H65_4 H 0.9427 0.0874 0.8061
H67_4 H 0.7364 0.0315 0.8310
O1_4 O 0.1534(3) 0.6904(3) 0.26285(15)
N2_4 N 0.3338(3) 0.7379(3) 0.15269(13)
O5_4 O 0.1990(3) 0.8320(3) 0.27111(15)
O6_4 O 0.2241(3) 0.8289(3) 0.20177(14)
O8_4 O 0.1813(3) 0.6907(3) 0.19340(14)
C1_4 C 0.1537(4) 0.9239(4) 0.2280(3)
H1_4 H 0.1235 0.9177 0.2026
C2_4 C 0.0681(3) 0.6430(5) 0.2128(3)
H2_4 H 0.0745 0.6146 0.1871
C3_4 C 0.1396(3) 0.6780(4) 0.2241(2)
C4_4 C 0.4628(3) 0.7435(5) 0.03958(14)
C5_4 C 0.1964(4) 0.8567(4) 0.2338(2)
C10_4 C 0.4205(3) 0.7394(5) 0.07955(15)
C13_4 C 0.4253(3) 0.7415(4) 0.00061(14)
H3_4 H 0.3750 0.7398 0.0010
C14_4 C 0.0042(4) 0.7575(4) 0.2359(4)
H5_4 H 0.0489 0.7829 0.2335
C15_4 C 0.2042(4) 0.9878(4) 0.2191(3)
C16_4 C 0.2663(4) 0.9897(5) 0.2505(2)
H8_4 H 0.2475 0.9934 0.2789
H9_4 H 0.2943 0.9478 0.2480
C17_4 C 0.3638(4) 0.7854(5) 0.08460(18)
H10_4 H 0.3529 0.8173 0.0633
C19_4 C 0.0041(4) 0.6991(5) 0.2047(3)
C20_4 C 0.3231(4) 0.7836(4) 0.12195(19)
H12_4 H 0.2864 0.8163 0.1254
C23_4 C 0.1037(6) 0.9429(5) 0.2639(3)
H15_4 H 0.1196 0.9221 0.2905
H16_4 H 0.0545 0.9278 0.2580
C24_4 C 0.4327(4) 0.6932(5) 0.11185(18)
H17_4 H 0.4710 0.6618 0.1097
C27_4 C 0.0395(5) 0.5977(5) 0.2486(3)
H22_4 H 0.0625 0.6108 0.2752
H23_4 H 0.0512 0.5493 0.2429
C29_4 C 0.2360(6) 0.9895(5) 0.1729(3)
H27_4 H 0.1970 0.9883 0.1526
H29_4 H 0.2669 0.9499 0.1686
C31_4 C 0.0112(5) 0.7269(7) 0.1611(3)
H33_4 H 0.0111 0.6891 0.1410
H35_4 H 0.0558 0.7523 0.1587
C33_4 C 0.3891(4) 0.6926(5) 0.1475(2)
H37_4 H 0.3980 0.6599 0.1688
C35_4 C 0.5852(3) 0.7463(5) 0.07781(15)
C36_4 C 0.5397(3) 0.7420(5) 0.03839(14)
C40_4 C 0.6821(4) 0.7041(4) 0.12065(19)
H40_4 H 0.7188 0.6716 0.1248
C42_4 C 0.6385(4) 0.6979(5) 0.08509(19)
H42_4 H 0.6452 0.6611 0.0662
C43_4 C 0.5783(4) 0.7970(5) 0.1064(2)
H43_4 H 0.5423 0.8304 0.1025
C45_4 C 0.6221(4) 0.8016(5) 0.1409(2)
H45_4 H 0.6162 0.8386 0.1597
C7_4 C 0.4148(3) 0.7463(5) 0.92219(15)
C8_4 C 0.4603(3) 0.7420(5) 0.96161(14)
C18_4 C 0.3179(4) 0.7041(4) 0.87935(19)
H11_4 H 0.2812 0.6716 0.8752
C21_4 C 0.3615(4) 0.6979(5) 0.91491(19)
H13_4 H 0.3548 0.6611 0.9338
C22_4 C 0.4217(4) 0.7970(5) 0.8936(2)
H14_4 H 0.4577 0.8304 0.8975
C32_4 C 0.3779(4) 0.8016(5) 0.8591(2)
H36_4 H 0.3838 0.8386 0.8403
N4_4 N 0.6662(3) 0.7379(3) 0.84731(13)
C34_4 C 0.5372(3) 0.7435(5) 0.96042(14)
C37_4 C 0.5795(3) 0.7394(5) 0.92045(15)
C38_4 C 0.5747(3) 0.7415(4) 0.99939(14)
H38_4 H 0.6250 0.7398 0.9990
C39_4 C 0.6362(4) 0.7854(5) 0.91540(18)
H39_4 H 0.6471 0.8173 0.9367
C41_4 C 0.6769(4) 0.7836(4) 0.87805(19)
H41_4 H 0.7136 0.8163 0.8746
C44_4 C 0.5673(4) 0.6932(5) 0.88815(18)
H44_4 H 0.5290 0.6618 0.8903
C46_4 C 0.6109(4) 0.6926(5) 0.8525(2)
H46_4 H 0.6020 0.6599 0.8312
O9_4 O 0.8466(3) 0.6904(3) 0.73715(15)
O13_4 O 0.8010(3) 0.8320(3) 0.72889(15)
O14_4 O 0.7759(3) 0.8289(3) 0.79823(14)
O16_4 O 0.8187(3) 0.6907(3) 0.80660(14)
C47_4 C 0.8463(4) 0.9239(4) 0.7720(3)
H47_4 H 0.8765 0.9177 0.7974
C48_4 C 0.9319(3) 0.6430(5) 0.7872(3)
H48_4 H 0.9255 0.6146 0.8129
C49_4 C 0.8604(3) 0.6780(4) 0.7759(2)
C50_4 C 0.8036(4) 0.8567(4) 0.7662(2)
C55_4 C 0.9958(4) 0.7575(4) 0.7641(4)
H50_4 H 0.9511 0.7829 0.7665
C56_4 C 0.7958(4) 0.9878(4) 0.7809(3)
C57_4 C 0.7337(4) 0.9897(5) 0.7495(2)
H53_4 H 0.7525 0.9934 0.7211
H54_4 H 0.7057 0.9478 0.7520
C58_4 C 0.9959(4) 0.6991(5) 0.7953(3)
C59_4 C 0.8963(6) 0.9429(5) 0.7361(3)
H55_4 H 0.8804 0.9221 0.7095
H56_4 H 0.9455 0.9278 0.7420
C62_4 C 0.9605(5) 0.5977(5) 0.7514(3)
H61_4 H 0.9375 0.6108 0.7248
H62_4 H 0.9488 0.5493 0.7571
C64_4 C 0.7640(6) 0.9895(5) 0.8271(3)
H66_4 H 0.8030 0.9883 0.8474
H68_4 H 0.7331 0.9499 0.8314
C66_4 C 0.9888(5) 0.7269(7) 0.8389(3)
H72_4 H 0.9889 0.6891 0.8590
H74_4 H 0.9442 0.7523 0.8413
C6_4 C 0.8665(4) 0.6934(4) 0.2195(2)
C11_4 C 0.9374(3) 0.6505(4) 0.2108(2)
H4_4 H 0.9996 0.7392 0.2643
H6_4 H 0.9643 0.7880 0.2300
C26_4 C 0.9556(5) 0.6062(6) 0.2527(3)
H20_4 H 0.9425 0.6313 0.2784
H21_4 H 0.9311 0.5615 0.2525
C30_4 C 0.9230(5) 0.6027(7) 0.1722(4)
H30_4 H 0.8814 0.5742 0.1779
H31_4 H 0.9142 0.6307 0.1474
H32_4 H 0.9645 0.5736 0.1674
H34_4 H 0.9712 0.7574 0.1552
loop_
_geom_bond_atom_site_label_1
_geom_bond_atom_site_label_2
_geom_bond_site_symmetry_1
_geom_bond_site_symmetry_2
Zn1 N2 1_555 1_555
Zn2 O1 1_555 1_555
O1 C3 1_555 1_555
O2 C9 1_555 1_555
O3 C6 1_555 1_555
N1 C18 1_555 1_555
N2 C20 1_555 1_555
O4 C9 1_555 1_555
O5 Zn2 1_555 1_555
O6 Zn1 1_555 1_555
O7 C6 1_555 1_555
O8 Zn1 1_555 1_555
C1 H1 1_555 1_555
C2 H2 1_555 1_555
C3 O8 1_555 1_555
C4 C10 1_555 1_555
C5 O5 1_555 1_555
C6 C11 1_555 1_555
C7 C8 1_555 1_555
C8 C13 1_555 1_555
C9 C12 1_555 1_555
C10 C17 1_555 1_555
C11 C19 1_555 1_555
C12 C15 1_555 1_555
C13 C4 1_555 1_555
H3 C13 1_555 1_555
C14 H4 1_555 1_555
H5 C14 1_555 1_555
H6 C14 1_555 1_555
C15 C1 1_555 1_555
C16 C15 1_555 1_555
H7 C16 1_555 1_555
H8 C16 1_555 1_555
H9 C16 1_555 1_555
C17 H10 1_555 1_555
C18 H11 1_555 1_555
C19 C2 1_555 1_555
C20 C17 1_555 1_555
H12 C20 1_555 1_555
C21 C7 1_555 1_555
H13 C21 1_555 1_555
C22 C7 1_555 1_555
H14 C22 1_555 1_555
C23 C1 1_555 1_555
H15 C23 1_555 1_555
H16 C23 1_555 1_555
C24 C10 1_555 1_555
H17 C24 1_555 1_555
C25 C12 1_555 1_555
H18 C25 1_555 1_555
H19 C25 1_555 1_555
C26 C11 1_555 1_555
H20 C26 1_555 1_555
H21 C26 1_555 1_555
C27 C2 1_555 1_555
H22 C27 1_555 1_555
H23 C27 1_555 1_555
C28 C12 1_555 1_555
H24 C28 1_555 1_555
H25 C28 1_555 1_555
H26 C28 1_555 1_555
C29 C15 1_555 1_555
H27 C29 1_555 1_555
H28 C29 1_555 1_555
H29 C29 1_555 1_555
C30 C11 1_555 1_555
H30 C30 1_555 1_555
H31 C30 1_555 1_555
H32 C30 1_555 1_555
C31 C19 1_555 1_555
H33 C31 1_555 1_555
H34 C31 1_555 1_555
H35 C31 1_555 1_555
C32 N1 1_555 1_555
H36 C32 1_555 1_555
C33 N2 1_555 1_555
H37 C33 1_555 1_555
Zn7 O2 1_555 1_555
Zn8 O3 1_555 1_555
Zn11 N1 1_555 1_555
Zn12 O4 1_555 1_555
Zn14 O7 1_555 1_555
O18 Zn1 1_555 1_555
O20 Zn1 1_555 1_555
N5 Zn2 1_555 1_555
O22 Zn2 1_555 1_555
O24 Zn2 1_555 1_555
O6 C5 1_555 1_555
C1 C5 1_555 1_555
C2 C3 1_555 1_555
C14 C19 1_555 1_555
C18 C21 1_555 1_555
C22 C32 1_555 1_555
C23 C25 1_555 1_555
C24 C33 1_555 1_555
C26 C27 1_555 1_555
N3 C40 1_555 1_555
N4 C41 1_555 1_555
C35 C36 1_555 1_555
C37 C34 1_555 1_555
C38 C34 1_555 1_555
H38 C38 1_555 1_555
C39 C37 1_555 1_555
H39 C39 1_555 1_555
C40 H40 1_555 1_555
C41 C39 1_555 1_555
H41 C41 1_555 1_555
C42 C35 1_555 1_555
H42 C42 1_555 1_555
C43 C35 1_555 1_555
H43 C43 1_555 1_555
C44 C37 1_555 1_555
H44 C44 1_555 1_555
C45 N3 1_555 1_555
H45 C45 1_555 1_555
C46 N4 1_555 1_555
H46 C46 1_555 1_555
Zn3 N4 1_555 1_555
Zn4 O9 1_555 1_555
O9 C49 1_555 1_555
O10 C52 1_555 1_555
O11 C51 1_555 1_555
O12 C52 1_555 1_555
O13 Zn4 1_555 1_555
O14 Zn3 1_555 1_555
O15 C51 1_555 1_555
O16 Zn3 1_555 1_555
C47 H47 1_555 1_555
C48 H48 1_555 1_555
C49 O16 1_555 1_555
C50 O13 1_555 1_555
C51 C53 1_555 1_555
C52 C54 1_555 1_555
C53 C58 1_555 1_555
C54 C56 1_555 1_555
C55 H49 1_555 1_555
H50 C55 1_555 1_555
H51 C55 1_555 1_555
C56 C47 1_555 1_555
C57 C56 1_555 1_555
H52 C57 1_555 1_555
H53 C57 1_555 1_555
H54 C57 1_555 1_555
C58 C48 1_555 1_555
C59 C47 1_555 1_555
H55 C59 1_555 1_555
H56 C59 1_555 1_555
C60 C54 1_555 1_555
H57 C60 1_555 1_555
H58 C60 1_555 1_555
C61 C53 1_555 1_555
H59 C61 1_555 1_555
H60 C61 1_555 1_555
C62 C48 1_555 1_555
H61 C62 1_555 1_555
H62 C62 1_555 1_555
C63 C54 1_555 1_555
H63 C63 1_555 1_555
H64 C63 1_555 1_555
H65 C63 1_555 1_555
C64 C56 1_555 1_555
H66 C64 1_555 1_555
H67 C64 1_555 1_555
H68 C64 1_555 1_555
C65 C53 1_555 1_555
H69 C65 1_555 1_555
H70 C65 1_555 1_555
H71 C65 1_555 1_555
C66 C58 1_555 1_555
H72 C66 1_555 1_555
H73 C66 1_555 1_555
H74 C66 1_555 1_555
Zn5 O10 1_555 1_555
Zn6 O11 1_555 1_555
Zn9 O12 1_555 1_555
Zn11 O15 1_555 1_555
Zn14 N3 1_555 1_555
O17 Zn3 1_555 1_555
O19 Zn3 1_555 1_555
N6 Zn4 1_555 1_555
O21 Zn4 1_555 1_555
O23 Zn4 1_555 1_555
C36 C38 1_555 1_555
C40 C42 1_555 1_555
C43 C45 1_555 1_555
C44 C46 1_555 1_555
O14 C50 1_555 1_555
C47 C50 1_555 1_555
C48 C49 1_555 1_555
C55 C58 1_555 1_555
C59 C60 1_555 1_555
C61 C62 1_555 1_555
N3_2 C40_2 1_555 1_555
N4_2 C41_2 1_555 1_555
C35_2 C36_2 1_555 1_555
C37_2 C34_2 1_555 1_555
C38_2 C34_2 1_555 1_555
H38_2 C38_2 1_555 1_555
C39_2 C37_2 1_555 1_555
H39_2 C39_2 1_555 1_555
C40_2 H40_2 1_555 1_555
C41_2 C39_2 1_555 1_555
H41_2 C41_2 1_555 1_555
C42_2 C35_2 1_555 1_555
H42_2 C42_2 1_555 1_555
C43_2 C35_2 1_555 1_555
H43_2 C43_2 1_555 1_555
C44_2 C37_2 1_555 1_555
H44_2 C44_2 1_555 1_555
C45_2 N3_2 1_555 1_555
H45_2 C45_2 1_555 1_555
C46_2 N4_2 1_555 1_555
H46_2 C46_2 1_555 1_555
Zn3_2 N4_2 1_555 1_555
Zn4_2 O9_2 1_555 1_555
O9_2 C49_2 1_555 1_555
O10_2 C52_2 1_555 1_555
O11_2 C51_2 1_555 1_555
O12_2 C52_2 1_555 1_555
O13_2 Zn4_2 1_555 1_555
O14_2 Zn3_2 1_555 1_555
O15_2 C51_2 1_555 1_555
O16_2 Zn3_2 1_555 1_555
C47_2 H47_2 1_555 1_555
C48_2 H48_2 1_555 1_555
C49_2 O16_2 1_555 1_555
C50_2 O13_2 1_555 1_555
C51_2 C53_2 1_555 1_555
C52_2 C54_2 1_555 1_555
C53_2 C58_2 1_555 1_555
C54_2 C56_2 1_555 1_555
C55_2 H49_2 1_555 1_555
H50_2 C55_2 1_555 1_555
H51_2 C55_2 1_555 1_555
C56_2 C47_2 1_555 1_555
C57_2 C56_2 1_555 1_555
H52_2 C57_2 1_555 1_555
H53_2 C57_2 1_555 1_555
H54_2 C57_2 1_555 1_555
C58_2 C48_2 1_555 1_555
C59_2 C47_2 1_555 1_555
H55_2 C59_2 1_555 1_555
H56_2 C59_2 1_555 1_555
C60_2 C54_2 1_555 1_555
H57_2 C60_2 1_555 1_555
H58_2 C60_2 1_555 1_555
C61_2 C53_2 1_555 1_555
H59_2 C61_2 1_555 1_555
H60_2 C61_2 1_555 1_555
C62_2 C48_2 1_555 1_555
H61_2 C62_2 1_555 1_555
H62_2 C62_2 1_555 1_555
C63_2 C54_2 1_555 1_555
H63_2 C63_2 1_555 1_555
H64_2 C63_2 1_555 1_555
H65_2 C63_2 1_555 1_555
C64_2 C56_2 1_555 1_555
H66_2 C64_2 1_555 1_555
H67_2 C64_2 1_555 1_555
H68_2 C64_2 1_555 1_555
C65_2 C53_2 1_555 1_555
H69_2 C65_2 1_555 1_555
H70_2 C65_2 1_555 1_555
H71_2 C65_2 1_555 1_555
C66_2 C58_2 1_555 1_555
H72_2 C66_2 1_555 1_555
H73_2 C66_2 1_555 1_555
H74_2 C66_2 1_555 1_555
Zn6 O10_2 1_555 1_555
Zn5 O11_2 1_555 1_555
Zn11 O12_2 1_555 1_555
Zn9 O15_2 1_555 1_555
Zn12 N3_2 1_555 1_555
O17_2 Zn3_2 1_555 1_555
O19_2 Zn3_2 1_555 1_555
N6_2 Zn4_2 1_555 1_555
O21_2 Zn4_2 1_555 1_555
O23_2 Zn4_2 1_555 1_555
C36_2 C38_2 1_555 1_555
C40_2 C42_2 1_555 1_555
C43_2 C45_2 1_555 1_555
C44_2 C46_2 1_555 1_555
O14_2 C50_2 1_555 1_555
C47_2 C50_2 1_555 1_555
C48_2 C49_2 1_555 1_555
C55_2 C58_2 1_555 1_555
C59_2 C60_2 1_555 1_555
C61_2 C62_2 1_555 1_555
Zn1_2 N2_2 1_555 1_555
Zn2_2 O1_2 1_555 1_555
O1_2 C3_2 1_555 1_555
O2_2 C9_2 1_555 1_555
O3_2 C6_2 1_555 1_555
N1_2 C18_2 1_555 1_555
N2_2 C20_2 1_555 1_555
O4_2 C9_2 1_555 1_555
O5_2 Zn2_2 1_555 1_555
O6_2 Zn1_2 1_555 1_555
O7_2 C6_2 1_555 1_555
O8_2 Zn1_2 1_555 1_555
C1_2 H1_2 1_555 1_555
C2_2 H2_2 1_555 1_555
C3_2 O8_2 1_555 1_555
C4_2 C10_2 1_555 1_555
C5_2 O5_2 1_555 1_555
C6_2 C11_2 1_555 1_555
C7_2 C8_2 1_555 1_555
C8_2 C13_2 1_555 1_555
C9_2 C12_2 1_555 1_555
C10_2 C17_2 1_555 1_555
C11_2 C19_2 1_555 1_555
C12_2 C15_2 1_555 1_555
C13_2 C4_2 1_555 1_555
H3_2 C13_2 1_555 1_555
C14_2 H4_2 1_555 1_555
H5_2 C14_2 1_555 1_555
H6_2 C14_2 1_555 1_555
C15_2 C1_2 1_555 1_555
C16_2 C15_2 1_555 1_555
H7_2 C16_2 1_555 1_555
H8_2 C16_2 1_555 1_555
H9_2 C16_2 1_555 1_555
C17_2 H10_2 1_555 1_555
C18_2 H11_2 1_555 1_555
C19_2 C2_2 1_555 1_555
C20_2 C17_2 1_555 1_555
H12_2 C20_2 1_555 1_555
C21_2 C7_2 1_555 1_555
H13_2 C21_2 1_555 1_555
C22_2 C7_2 1_555 1_555
H14_2 C22_2 1_555 1_555
C23_2 C1_2 1_555 1_555
H15_2 C23_2 1_555 1_555
H16_2 C23_2 1_555 1_555
C24_2 C10_2 1_555 1_555
H17_2 C24_2 1_555 1_555
C25_2 C12_2 1_555 1_555
H18_2 C25_2 1_555 1_555
H19_2 C25_2 1_555 1_555
C26_2 C11_2 1_555 1_555
H20_2 C26_2 1_555 1_555
H21_2 C26_2 1_555 1_555
C27_2 C2_2 1_555 1_555
H22_2 C27_2 1_555 1_555
H23_2 C27_2 1_555 1_555
C28_2 C12_2 1_555 1_555
H24_2 C28_2 1_555 1_555
H25_2 C28_2 1_555 1_555
H26_2 C28_2 1_555 1_555
C29_2 C15_2 1_555 1_555
H27_2 C29_2 1_555 1_555
H28_2 C29_2 1_555 1_555
H29_2 C29_2 1_555 1_555
C30_2 C11_2 1_555 1_555
H30_2 C30_2 1_555 1_555
H31_2 C30_2 1_555 1_555
H32_2 C30_2 1_555 1_555
C31_2 C19_2 1_555 1_555
H33_2 C31_2 1_555 1_555
H34_2 C31_2 1_555 1_555
H35_2 C31_2 1_555 1_555
C32_2 N1_2 1_555 1_555
H36_2 C32_2 1_555 1_555
C33_2 N2_2 1_555 1_555
H37_2 C33_2 1_555 1_555
Zn8 O2_2 1_555 1_555
Zn7 O3_2 1_555 1_555
Zn9 N1_2 1_555 1_555
Zn14 O4_2 1_555 1_555
Zn12 O7_2 1_555 1_555
O18_2 Zn1_2 1_555 1_555
O20_2 Zn1_2 1_555 1_555
N5_2 Zn2_2 1_555 1_555
O22_2 Zn2_2 1_555 1_555
O24_2 Zn2_2 1_555 1_555
O6_2 C5_2 1_555 1_555
C1_2 C5_2 1_555 1_555
C2_2 C3_2 1_555 1_555
C14_2 C19_2 1_555 1_555
C18_2 C21_2 1_555 1_555
C22_2 C32_2 1_555 1_555
C23_2 C25_2 1_555 1_555
C24_2 C33_2 1_555 1_555
C26_2 C27_2 1_555 1_555
O19_2 C6_3 1_555 1_555
O23_2 C6_3 1_555 1_555
C6_3 C11_3 1_555 1_555
C26_3 C11_3 1_555 1_555
H20_3 C26_3 1_555 1_555
H21_3 C26_3 1_555 1_555
C30_3 C11_3 1_555 1_555
H30_3 C30_3 1_555 1_555
H31_3 C30_3 1_555 1_555
H32_3 C30_3 1_555 1_555
Zn5 N2_3 1_555 1_555
Zn9 O1_3 1_555 1_555
O1_3 C3_3 1_555 1_555
N2_3 C20_3 1_555 1_555
O5_3 Zn9 1_555 1_555
O6_3 Zn5 1_555 1_555
O8_3 Zn5 1_555 1_555
C1_3 H1_3 1_555 1_555
C2_3 H2_3 1_555 1_555
C3_3 O8_3 1_555 1_555
C4_3 C10_3 1_555 1_555
C5_3 O5_3 1_555 1_555
C10_3 C17_3 1_555 1_555
C13_3 C4_3 1_555 1_555
H3_3 C13_3 1_555 1_555
H5_3 C14_3 1_555 1_555
C15_3 C1_3 1_555 1_555
C16_3 C15_3 1_555 1_555
H8_3 C16_3 1_555 1_555
H9_3 C16_3 1_555 1_555
C17_3 H10_3 1_555 1_555
C19_3 C2_3 1_555 1_555
C20_3 C17_3 1_555 1_555
H12_3 C20_3 1_555 1_555
C23_3 C1_3 1_555 1_555
H15_3 C23_3 1_555 1_555
H16_3 C23_3 1_555 1_555
C24_3 C10_3 1_555 1_555
H17_3 C24_3 1_555 1_555
C27_3 C2_3 1_555 1_555
H22_3 C27_3 1_555 1_555
H23_3 C27_3 1_555 1_555
C29_3 C15_3 1_555 1_555
H27_3 C29_3 1_555 1_555
H29_3 C29_3 1_555 1_555
C31_3 C19_3 1_555 1_555
H33_3 C31_3 1_555 1_555
H35_3 C31_3 1_555 1_555
C33_3 N2_3 1_555 1_555
H37_3 C33_3 1_555 1_555
N6_2 C40_3 1_555 1_555
C35_3 C36_3 1_555 1_555
C36_3 C4_3 1_555 1_555
C40_3 H40_3 1_555 1_555
C42_3 C35_3 1_555 1_555
H42_3 C42_3 1_555 1_555
C43_3 C35_3 1_555 1_555
H43_3 C43_3 1_555 1_555
C45_3 N6_2 1_555 1_555
H45_3 C45_3 1_555 1_555
O6_3 C5_3 1_555 1_555
C1_3 C5_3 1_555 1_555
C2_3 C3_3 1_555 1_555
C14_3 C19_3 1_555 1_555
C24_3 C33_3 1_555 1_555
C40_3 C42_3 1_555 1_555
C43_3 C45_3 1_555 1_555
N5_2 C18_3 1_555 1_555
C7_3 C8_3 1_555 1_555
C18_3 H11_3 1_555 1_555
C21_3 C7_3 1_555 1_555
H13_3 C21_3 1_555 1_555
C22_3 C7_3 1_555 1_555
H14_3 C22_3 1_555 1_555
C32_3 N5_2 1_555 1_555
H36_3 C32_3 1_555 1_555
N4_3 C41_3 1_555 1_555
C34_3 C8_3 1_555 1_555
C37_3 C34_3 1_555 1_555
C38_3 C34_3 1_555 1_555
H38_3 C38_3 1_555 1_555
C39_3 C37_3 1_555 1_555
H39_3 C39_3 1_555 1_555
C41_3 C39_3 1_555 1_555
H41_3 C41_3 1_555 1_555
C44_3 C37_3 1_555 1_555
H44_3 C44_3 1_555 1_555
C46_3 N4_3 1_555 1_555
H46_3 C46_3 1_555 1_555
Zn7 N4_3 1_555 1_555
Zn12 O9_3 1_555 1_555
O9_3 C49_3 1_555 1_555
O13_3 Zn12 1_555 1_555
O14_3 Zn7 1_555 1_555
O16_3 Zn7 1_555 1_555
C47_3 H47_3 1_555 1_555
C48_3 H48_3 1_555 1_555
C49_3 O16_3 1_555 1_555
C50_3 O13_3 1_555 1_555
H50_3 C55_3 1_555 1_555
C56_3 C47_3 1_555 1_555
C57_3 C56_3 1_555 1_555
H53_3 C57_3 1_555 1_555
H54_3 C57_3 1_555 1_555
C58_3 C48_3 1_555 1_555
C59_3 C47_3 1_555 1_555
H55_3 C59_3 1_555 1_555
H56_3 C59_3 1_555 1_555
C62_3 C48_3 1_555 1_555
H61_3 C62_3 1_555 1_555
H62_3 C62_3 1_555 1_555
C64_3 C56_3 1_555 1_555
H66_3 C64_3 1_555 1_555
H68_3 C64_3 1_555 1_555
C66_3 C58_3 1_555 1_555
H72_3 C66_3 1_555 1_555
H74_3 C66_3 1_555 1_555
C18_3 C21_3 1_555 1_555
C22_3 C32_3 1_555 1_555
C44_3 C46_3 1_555 1_555
O14_3 C50_3 1_555 1_555
C47_3 C50_3 1_555 1_555
C48_3 C49_3 1_555 1_555
C55_3 C58_3 1_555 1_555
O17 C9_3 1_555 1_555
O21 C9_3 1_555 1_555
C9_3 C12_3 1_555 1_555
C25_3 C12_3 1_555 1_555
H18_3 C25_3 1_555 1_555
H19_3 C25_3 1_555 1_555
C28_3 C12_3 1_555 1_555
H24_3 C28_3 1_555 1_555
H25_3 C28_3 1_555 1_555
H26_3 C28_3 1_555 1_555
O18 C52_3 1_555 1_555
O22 C52_3 1_555 1_555
C52_3 C54_3 1_555 1_555
C60_3 C54_3 1_555 1_555
H57_3 C60_3 1_555 1_555
H58_3 C60_3 1_555 1_555
C63_3 C54_3 1_555 1_555
H63_3 C63_3 1_555 1_555
H64_3 C63_3 1_555 1_555
H65_3 C63_3 1_555 1_555
O20_2 C51_3 1_555 1_555
O24_2 C51_3 1_555 1_555
C51_3 C53_3 1_555 1_555
C61_3 C53_3 1_555 1_555
H59_3 C61_3 1_555 1_555
H60_3 C61_3 1_555 1_555
C65_3 C53_3 1_555 1_555
H69_3 C65_3 1_555 1_555
H70_3 C65_3 1_555 1_555
H71_3 C65_3 1_555 1_555
O20 C51_4 1_555 1_555
O24 C51_4 1_555 1_555
C51_4 C53_4 1_555 1_555
C61_4 C53_4 1_555 1_555
H59_4 C61_4 1_555 1_555
H60_4 C61_4 1_555 1_555
C65_4 C53_4 1_555 1_555
H69_4 C65_4 1_555 1_555
H70_4 C65_4 1_555 1_555
H71_4 C65_4 1_555 1_555
O17_2 C9_4 1_555 1_555
O21_2 C9_4 1_555 1_555
C9_4 C12_4 1_555 1_555
C25_4 C12_4 1_555 1_555
H18_4 C25_4 1_555 1_555
H19_4 C25_4 1_555 1_555
C28_4 C12_4 1_555 1_555
H24_4 C28_4 1_555 1_555
H25_4 C28_4 1_555 1_555
H26_4 C28_4 1_555 1_555
O18_2 C52_4 1_555 1_555
O22_2 C52_4 1_555 1_555
C52_4 C54_4 1_555 1_555
C60_4 C54_4 1_555 1_555
H57_4 C60_4 1_555 1_555
H58_4 C60_4 1_555 1_555
C63_4 C54_4 1_555 1_555
H63_4 C63_4 1_555 1_555
H64_4 C63_4 1_555 1_555
H65_4 C63_4 1_555 1_555
Zn6 N2_4 1_555 1_555
Zn11 O1_4 1_555 1_555
O1_4 C3_4 1_555 1_555
N2_4 C20_4 1_555 1_555
O5_4 Zn11 1_555 1_555
O6_4 Zn6 1_555 1_555
O8_4 Zn6 1_555 1_555
C1_4 H1_4 1_555 1_555
C2_4 H2_4 1_555 1_555
C3_4 O8_4 1_555 1_555
C4_4 C10_4 1_555 1_555
C5_4 O5_4 1_555 1_555
C10_4 C17_4 1_555 1_555
C13_4 C4_4 1_555 1_555
H3_4 C13_4 1_555 1_555
H5_4 C14_4 1_555 1_555
C15_4 C1_4 1_555 1_555
C16_4 C15_4 1_555 1_555
H8_4 C16_4 1_555 1_555
H9_4 C16_4 1_555 1_555
C17_4 H10_4 1_555 1_555
C19_4 C2_4 1_555 1_555
C20_4 C17_4 1_555 1_555
H12_4 C20_4 1_555 1_555
C23_4 C1_4 1_555 1_555
H15_4 C23_4 1_555 1_555
H16_4 C23_4 1_555 1_555
C24_4 C10_4 1_555 1_555
H17_4 C24_4 1_555 1_555
C27_4 C2_4 1_555 1_555
H22_4 C27_4 1_555 1_555
H23_4 C27_4 1_555 1_555
C29_4 C15_4 1_555 1_555
H27_4 C29_4 1_555 1_555
H29_4 C29_4 1_555 1_555
C31_4 C19_4 1_555 1_555
H33_4 C31_4 1_555 1_555
H35_4 C31_4 1_555 1_555
C33_4 N2_4 1_555 1_555
H37_4 C33_4 1_555 1_555
N6 C40_4 1_555 1_555
C35_4 C36_4 1_555 1_555
C36_4 C4_4 1_555 1_555
C40_4 H40_4 1_555 1_555
C42_4 C35_4 1_555 1_555
H42_4 C42_4 1_555 1_555
C43_4 C35_4 1_555 1_555
H43_4 C43_4 1_555 1_555
C45_4 N6 1_555 1_555
H45_4 C45_4 1_555 1_555
O6_4 C5_4 1_555 1_555
C1_4 C5_4 1_555 1_555
C2_4 C3_4 1_555 1_555
C14_4 C19_4 1_555 1_555
C24_4 C33_4 1_555 1_555
C40_4 C42_4 1_555 1_555
C43_4 C45_4 1_555 1_555
N5 C18_4 1_555 1_555
C7_4 C8_4 1_555 1_555
C18_4 H11_4 1_555 1_555
C21_4 C7_4 1_555 1_555
H13_4 C21_4 1_555 1_555
C22_4 C7_4 1_555 1_555
H14_4 C22_4 1_555 1_555
C32_4 N5 1_555 1_555
H36_4 C32_4 1_555 1_555
N4_4 C41_4 1_555 1_555
C34_4 C8_4 1_555 1_555
C37_4 C34_4 1_555 1_555
C38_4 C34_4 1_555 1_555
H38_4 C38_4 1_555 1_555
C39_4 C37_4 1_555 1_555
H39_4 C39_4 1_555 1_555
C41_4 C39_4 1_555 1_555
H41_4 C41_4 1_555 1_555
C44_4 C37_4 1_555 1_555
H44_4 C44_4 1_555 1_555
C46_4 N4_4 1_555 1_555
H46_4 C46_4 1_555 1_555
Zn8 N4_4 1_555 1_555
Zn14 O9_4 1_555 1_555
O9_4 C49_4 1_555 1_555
O13_4 Zn14 1_555 1_555
O14_4 Zn8 1_555 1_555
O16_4 Zn8 1_555 1_555
C47_4 H47_4 1_555 1_555
C48_4 H48_4 1_555 1_555
C49_4 O16_4 1_555 1_555
C50_4 O13_4 1_555 1_555
H50_4 C55_4 1_555 1_555
C56_4 C47_4 1_555 1_555
C57_4 C56_4 1_555 1_555
H53_4 C57_4 1_555 1_555
H54_4 C57_4 1_555 1_555
C58_4 C48_4 1_555 1_555
C59_4 C47_4 1_555 1_555
H55_4 C59_4 1_555 1_555
H56_4 C59_4 1_555 1_555
C62_4 C48_4 1_555 1_555
H61_4 C62_4 1_555 1_555
H62_4 C62_4 1_555 1_555
C64_4 C56_4 1_555 1_555
H66_4 C64_4 1_555 1_555
H68_4 C64_4 1_555 1_555
C66_4 C58_4 1_555 1_555
H72_4 C66_4 1_555 1_555
H74_4 C66_4 1_555 1_555
C18_4 C21_4 1_555 1_555
C22_4 C32_4 1_555 1_555
C44_4 C46_4 1_555 1_555
O14_4 C50_4 1_555 1_555
C47_4 C50_4 1_555 1_555
C48_4 C49_4 1_555 1_555
C55_4 C58_4 1_555 1_555
O19 C6_4 1_555 1_555
O23 C6_4 1_555 1_555
C6_4 C11_4 1_555 1_555
C26_4 C11_4 1_555 1_555
H20_4 C26_4 1_555 1_555
H21_4 C26_4 1_555 1_555
C30_4 C11_4 1_555 1_555
H30_4 C30_4 1_555 1_555
H31_4 C30_4 1_555 1_555
H32_4 C30_4 1_555 1_555

#END
