
###############################################################################
#
# This file contains modified crystal structure data generated from the
# MOF subset of the Cambridge Structural Database (CSD) v543 
# hosted by the Cambridge Crystallographic Data Centre (CCDC).
#
# This work is licensed under the Creative Commons
# Attribution-NonCommercial-ShareAlike 4.0 International License.
# To view a copy of this license, visit
# http://creativecommons.org/licenses/by-nc-sa/4.0/
# or send a letter to
# Creative Commons, PO Box 1866, Mountain View, CA 94042, USA.
#
# CIF created using the CSD Python API on 29 September 2022
# The structure has been converted into the P1 space group
# The structure has a 3D framework
# The original CSD entry BUVFAC is in the monoclinic crystal system
# The framework has been calculated to contain at least 10.0% void space
# The void calculation uses a probe of radius 1.32A, grid spacing 0.4
# The framework is charged, counterions have been retained in the structure
#
###############################################################################

data_BUVFAC
_chemical_formula_moiety         '(C152 H96 Ca2 O80 Zn8 8-)n'
_symmetry_cell_setting           triclinic
_symmetry_space_group_name_H-M   'P 1'
_symmetry_Int_Tables_number      1
_space_group_name_Hall           'P 1'
loop_
_symmetry_equiv_pos_site_id
_symmetry_equiv_pos_as_xyz
1 x,y,z
_cell_length_a                   27.761(3)
_cell_length_b                   15.927(2)
_cell_length_c                   13.7189(17)
_cell_angle_alpha                90
_cell_angle_beta                 116.167(2)
_cell_angle_gamma                90
_cell_volume                     5444.14
loop_
_atom_site_label
_atom_site_type_symbol
_atom_site_fract_x
_atom_site_fract_y
_atom_site_fract_z
C2 C 0.19375(8) 0.17303(11) 0.24196(16)
C4 C 0.15509(7) 0.09723(12) 0.06268(15)
H3 H 0.1259 0.1335 0.0387
C8 C 0.23981(7) 0.05052(12) 0.20381(15)
H5 H 0.2669 0.0548 0.2743
C9 C 0.19600(7) 0.10509(11) 0.16708(15)
O6 O 0.15404(6) 0.22270(10) 0.19898(12)
O9 O 0.22886(6) 0.17578(9) 0.33679(13)
Zn3 Zn 0.133391(7) 0.325887(12) 0.245950(16)
Ca2 Ca 0.2500 0.2500 0.5000
C1 C 0.00584(8) 0.17338(12) 0.54145(16)
O1 O 0.09479(6) 0.30844(10) 0.33305(13)
O2 O 0.15914(6) 0.22900(10) 0.45632(13)
O3 O 0.06502(6) 0.05223(10) 0.61224(13)
O4 O 0.11484(6) 0.02790(10) 0.89376(11)
C7 C 0.02602(7) 0.27077(12) 0.42945(15)
H4 H 0.0164 0.3168 0.3829
C10 C 0.07265(7) 0.22561(12) 0.45004(15)
C11 C 0.11256(8) 0.25595(12) 0.41089(16)
C14 C 0.05011(7) 0.12587(12) 0.55522(15)
C16 C 0.08429(8) 0.15320(13) 0.51214(16)
H10 H 0.1151 0.1227 0.5251
C17 C 0.03482(7) 0.02532(13) 0.66749(15)
H12 H 0.0333 0.0693 0.7150
C19 C 0.15768(7) 0.03483(12) 0.99328(14)
C34 C 0.05104(7) 0.30178(13) 0.02739(15)
C37 C 0.00576(7) 0.24643(12) 0.02097(14)
O18 O 0.07061(5) 0.35470(9) 0.10533(11)
O21 O 0.34086(6) 0.27100(10) 0.54368(13)
O25 O 0.21642(6) 0.36696(9) 0.39205(13)
O26 O 0.28358(6) 0.13304(9) 0.60795(13)
O28 O 0.27114(6) 0.32422(9) 0.66321(13)
O30 O 0.17308(6) 0.43392(11) 0.24116(13)
C3 C 0.20207(7) 0.98263(12) 0.02852(15)
C5 C 0.24233(7) 0.98986(11) 0.13371(15)
C6 C 0.28666(7) 0.92675(12) 0.16859(16)
O7 O 0.28358(6) 0.86696(9) 0.10795(13)
O10 O 0.32692(6) 0.93392(11) 0.25884(13)
Zn6 Zn 0.366609(7) 0.825887(12) 0.254050(16)
Ca6 Ca 0.2500 0.7500 0.0000
H2 H 0.2049 0.9428 0.9817
C12 C 0.06344(8) 0.94898(12) 0.73284(15)
H6 H 0.0661 0.9073 0.6840
H7 H 0.0420 0.9251 0.7657
C13 C 0.11872(8) 0.96685(12) 0.82073(15)
H8 H 0.1347 0.9156 0.8599
H9 H 0.1414 0.9881 0.7890
Ca6_2 Ca 0.2500 0.7500 1.0000
H1 H 0.9840 0.1568 0.5735
O5 O 0.93385(8) 0.29564(14) 0.54455(15)
C15 C 0.94896(7) 0.30178(13) 0.47261(15)
H11 H 0.9985 0.0111 0.6159
C18 C 0.99424(7) 0.24643(12) 0.47903(14)
O8 O 0.92939(5) 0.35470(9) 0.39467(11)
Zn2 Zn 0.866609(7) 0.325887(12) 0.254050(16)
O11 O 0.90521(6) 0.30844(10) 0.16695(13)
O12 O 0.84086(6) 0.22900(10) 0.04368(13)
C26 C 0.97398(7) 0.27077(12) 0.07055(15)
H16 H 0.9836 0.3168 0.1171
C29 C 0.92735(7) 0.22561(12) 0.04996(15)
C30 C 0.88744(8) 0.25595(12) 0.08911(16)
Ca4 Ca 0.7500 0.2500 0.0000
O23 O 0.84596(6) 0.22270(10) 0.30102(12)
O24 O 0.78358(6) 0.36696(9) 0.10795(13)
O29 O 0.82692(6) 0.43392(11) 0.25884(13)
C20 C 0.99416(8) 0.17338(12) 0.95855(16)
C21 C 0.80625(8) 0.17303(11) 0.25804(16)
O13 O 0.93498(6) 0.05223(10) 0.88776(13)
O14 O 0.88516(6) 0.02790(10) 0.60624(11)
C23 C 0.84491(7) 0.09723(12) 0.43732(15)
H15 H 0.8741 0.1335 0.4613
C27 C 0.76019(7) 0.05052(12) 0.29619(15)
H17 H 0.7331 0.0548 0.2257
C28 C 0.80400(7) 0.10509(11) 0.33292(15)
C33 C 0.94989(7) 0.12587(12) 0.94478(15)
C35 C 0.91571(8) 0.15320(13) 0.98786(16)
H22 H 0.8849 0.1227 0.9749
C36 C 0.96518(7) 0.02532(13) 0.83251(15)
H24 H 0.9667 0.0693 0.7850
C38 C 0.84232(7) 0.03483(12) 0.50672(14)
O19 O 0.77114(6) 0.17578(9) 0.16321(13)
Ca4_2 Ca 0.7500 0.2500 1.0000
C22 C 0.79793(7) 0.98263(12) 0.47148(15)
H14 H 0.7951 0.9428 0.5183
C24 C 0.75767(7) 0.98986(11) 0.36629(15)
C25 C 0.71334(7) 0.92675(12) 0.33141(16)
C31 C 0.93656(8) 0.94898(12) 0.76716(15)
H18 H 0.9339 0.9073 0.8160
H19 H 0.9580 0.9251 0.7343
C32 C 0.88128(8) 0.96685(12) 0.67927(15)
H20 H 0.8653 0.9156 0.6401
H21 H 0.8586 0.9881 0.7110
O17 O 0.71642(6) 0.86696(9) 0.39205(13)
O20 O 0.67308(6) 0.93392(11) 0.24116(13)
Zn5 Zn 0.633391(7) 0.825887(12) 0.245950(16)
Ca5 Ca 0.7500 0.7500 0.5000
O21_2 O 0.65914(6) 0.27100(10) 0.95632(13)
O26_2 O 0.71642(6) 0.13304(9) 0.89205(13)
O28_2 O 0.72886(6) 0.32422(9) 0.83679(13)
C2_2 C 0.69375(8) 0.67303(11) 0.24196(16)
C3_2 C 0.70207(7) 0.48263(12) 0.02852(15)
C4_2 C 0.65509(7) 0.59723(12) 0.06268(15)
H3_2 H 0.6259 0.6335 0.0387
C5_2 C 0.74233(7) 0.48986(11) 0.13371(15)
C6_2 C 0.78666(7) 0.42675(12) 0.16859(16)
C8_2 C 0.73981(7) 0.55052(12) 0.20381(15)
H5_2 H 0.7669 0.5548 0.2743
C9_2 C 0.69600(7) 0.60509(11) 0.16708(15)
O6_2 O 0.65404(6) 0.72270(10) 0.19898(12)
O9_2 O 0.72886(6) 0.67578(9) 0.33679(13)
C1_2 C 0.50584(8) 0.67338(12) 0.54145(16)
H1_2 H 0.4840 0.6568 0.5735
O1_2 O 0.59479(6) 0.80844(10) 0.33305(13)
O2_2 O 0.65914(6) 0.72900(10) 0.45632(13)
O3_2 O 0.56502(6) 0.55223(10) 0.61224(13)
O4_2 O 0.61484(6) 0.52790(10) 0.89376(11)
H2_2 H 0.7049 0.4428 0.9817
C7_2 C 0.52602(7) 0.77077(12) 0.42945(15)
H4_2 H 0.5164 0.8168 0.3829
C10_2 C 0.57265(7) 0.72561(12) 0.45004(15)
C11_2 C 0.61256(8) 0.75595(12) 0.41089(16)
C12_2 C 0.56344(8) 0.44898(12) 0.73284(15)
H6_2 H 0.5661 0.4073 0.6840
H7_2 H 0.5420 0.4251 0.7657
C13_2 C 0.61872(8) 0.46685(12) 0.82073(15)
H8_2 H 0.6347 0.4156 0.8599
H9_2 H 0.6414 0.4881 0.7890
C14_2 C 0.55011(7) 0.62587(12) 0.55522(15)
O5_2 O 0.43385(8) 0.79564(14) 0.54455(15)
C15_2 C 0.44896(7) 0.80178(13) 0.47261(15)
C16_2 C 0.58429(8) 0.65320(13) 0.51214(16)
H10_2 H 0.6151 0.6227 0.5251
C17_2 C 0.53482(7) 0.52532(13) 0.66749(15)
H11_2 H 0.4985 0.5111 0.6159
H12_2 H 0.5333 0.5693 0.7150
C18_2 C 0.49424(7) 0.74643(12) 0.47903(14)
C19_2 C 0.65768(7) 0.53483(12) 0.99328(14)
O8_2 O 0.42939(5) 0.85470(9) 0.39467(11)
O11_2 O 0.40521(6) 0.80844(10) 0.16695(13)
O12_2 O 0.34086(6) 0.72900(10) 0.04368(13)
C26_2 C 0.47398(7) 0.77077(12) 0.07055(15)
H16_2 H 0.4836 0.8168 0.1171
C29_2 C 0.42735(7) 0.72561(12) 0.04996(15)
C30_2 C 0.38744(8) 0.75595(12) 0.08911(16)
C34_2 C 0.55104(7) 0.80178(13) 0.02739(15)
C37_2 C 0.50576(7) 0.74643(12) 0.02097(14)
O18_2 O 0.57061(5) 0.85470(9) 0.10533(11)
O21_3 O 0.84086(6) 0.77100(10) 0.54368(13)
O23_2 O 0.34596(6) 0.72270(10) 0.30102(12)
O26_3 O 0.78358(6) 0.63304(9) 0.60795(13)
O28_3 O 0.77114(6) 0.82422(9) 0.66321(13)
C20_2 C 0.49416(8) 0.67338(12) 0.95855(16)
H13 H 0.5160 0.6568 0.9265
C21_2 C 0.30625(8) 0.67303(11) 0.25804(16)
O13_2 O 0.43498(6) 0.55223(10) 0.88776(13)
O14_2 O 0.38516(6) 0.52790(10) 0.60624(11)
C22_2 C 0.29793(7) 0.48263(12) 0.47148(15)
H14_2 H 0.2951 0.4428 0.5183
C23_2 C 0.34491(7) 0.59723(12) 0.43732(15)
H15_2 H 0.3741 0.6335 0.4613
C24_2 C 0.25767(7) 0.48986(11) 0.36629(15)
C25_2 C 0.21334(7) 0.42675(12) 0.33141(16)
C27_2 C 0.26019(7) 0.55052(12) 0.29619(15)
H17_2 H 0.2331 0.5548 0.2257
C28_2 C 0.30400(7) 0.60509(11) 0.33292(15)
C31_2 C 0.43656(8) 0.44898(12) 0.76716(15)
H18_2 H 0.4339 0.4073 0.8160
H19_2 H 0.4580 0.4251 0.7343
C32_2 C 0.38128(8) 0.46685(12) 0.67927(15)
H20_2 H 0.3653 0.4156 0.6401
H21_2 H 0.3586 0.4881 0.7110
C33_2 C 0.44989(7) 0.62587(12) 0.94478(15)
O15 O 0.56615(8) 0.79564(14) 0.95545(15)
C35_2 C 0.41571(8) 0.65320(13) 0.98786(16)
H22_2 H 0.3849 0.6227 0.9749
C36_2 C 0.46518(7) 0.52532(13) 0.83251(15)
H23 H 0.5015 0.5111 0.8841
H24_2 H 0.4667 0.5693 0.7850
C38_2 C 0.34232(7) 0.53483(12) 0.50672(14)
O19_2 O 0.27114(6) 0.67578(9) 0.16321(13)
O21_4 O 0.15914(6) 0.77100(10) 0.95632(13)
O26_4 O 0.21642(6) 0.63304(9) 0.89205(13)
O28_4 O 0.22886(6) 0.82422(9) 0.83679(13)
C22_3 C 0.20207(7) 0.01737(12) 0.52852(15)
H14_3 H 0.2049 0.0572 0.4817
C24_3 C 0.24233(7) 0.01014(11) 0.63371(15)
C25_3 C 0.28666(7) 0.07325(12) 0.66859(16)
C31_3 C 0.06344(8) 0.05102(12) 0.23284(15)
H18_3 H 0.0661 0.0927 0.1840
H19_3 H 0.0420 0.0749 0.2657
C32_3 C 0.11872(8) 0.03315(12) 0.32073(15)
H20_3 H 0.1347 0.0844 0.3599
H21_3 H 0.1414 0.0119 0.2890
O20_2 O 0.32692(6) 0.06608(11) 0.75884(13)
Zn5_2 Zn 0.366609(7) 0.174113(12) 0.754050(16)
C20_3 C 0.00584(8) 0.82662(12) 0.04145(16)
C21_3 C 0.19375(8) 0.82697(11) 0.74196(16)
O13_3 O 0.06502(6) 0.94777(10) 0.11224(13)
O14_3 O 0.11484(6) 0.97210(10) 0.39376(11)
C23_3 C 0.15509(7) 0.90277(12) 0.56268(15)
H15_3 H 0.1259 0.8665 0.5387
C27_3 C 0.23981(7) 0.94948(12) 0.70381(15)
H17_3 H 0.2669 0.9452 0.7743
C28_3 C 0.19600(7) 0.89491(11) 0.66708(15)
C33_3 C 0.05011(7) 0.87413(12) 0.05522(15)
C35_3 C 0.08429(8) 0.84680(13) 0.01214(16)
H22_3 H 0.1151 0.8773 0.0251
C36_3 C 0.03482(7) 0.97468(13) 0.16749(15)
H24_3 H 0.0333 0.9307 0.2150
C38_3 C 0.15768(7) 0.96517(12) 0.49328(14)
O16 O 0.15404(6) 0.77730(10) 0.69898(12)
Zn4 Zn 0.133391(7) 0.674113(12) 0.745950(16)
H1_3 H 0.0160 0.8432 0.4265
O5_3 O 0.06615(8) 0.70436(14) 0.45545(15)
C15_3 C 0.05104(7) 0.69822(13) 0.52739(15)
H11_3 H 0.0015 0.9889 0.3841
C18_3 C 0.00576(7) 0.75357(12) 0.52097(14)
O8_3 O 0.07061(5) 0.64530(9) 0.60533(11)
O11_3 O 0.09479(6) 0.69156(10) 0.83305(13)
C26_3 C 0.02602(7) 0.72923(12) 0.92945(15)
H16_3 H 0.0164 0.6832 0.8829
C29_3 C 0.07265(7) 0.77439(12) 0.95004(15)
C30_3 C 0.11256(8) 0.74405(12) 0.91089(16)
O29_2 O 0.17308(6) 0.56608(11) 0.74116(13)
H2_3 H 0.7951 0.0572 0.0183
C12_3 C 0.93656(8) 0.05102(12) 0.26716(15)
H6_3 H 0.9339 0.0927 0.3160
H7_3 H 0.9580 0.0749 0.2343
C13_3 C 0.88128(8) 0.03315(12) 0.17927(15)
H8_3 H 0.8653 0.0844 0.1401
H9_3 H 0.8586 0.0119 0.2110
C3_3 C 0.79793(7) 0.01737(12) 0.97148(15)
C5_3 C 0.75767(7) 0.01014(11) 0.86629(15)
C6_3 C 0.71334(7) 0.07325(12) 0.83141(16)
O10_2 O 0.67308(6) 0.06608(11) 0.74116(13)
Zn6_2 Zn 0.633391(7) 0.174113(12) 0.745950(16)
Zn1 Zn 0.866609(7) 0.674113(12) 0.754050(16)
C1_3 C 0.99416(8) 0.82662(12) 0.45855(16)
O1_3 O 0.90521(6) 0.69156(10) 0.66695(13)
O3_3 O 0.93498(6) 0.94777(10) 0.38776(13)
O4_3 O 0.88516(6) 0.97210(10) 0.10624(11)
C7_3 C 0.97398(7) 0.72923(12) 0.57055(15)
H4_3 H 0.9836 0.6832 0.6171
C10_3 C 0.92735(7) 0.77439(12) 0.54996(15)
C11_3 C 0.88744(8) 0.74405(12) 0.58911(16)
C14_3 C 0.94989(7) 0.87413(12) 0.44478(15)
C16_3 C 0.91571(8) 0.84680(13) 0.48786(16)
H10_3 H 0.8849 0.8773 0.4749
C17_3 C 0.96518(7) 0.97468(13) 0.33251(15)
H12_3 H 0.9667 0.9307 0.2850
C19_3 C 0.84232(7) 0.96517(12) 0.00672(14)
C34_3 C 0.94896(7) 0.69822(13) 0.97261(15)
C37_3 C 0.99424(7) 0.75357(12) 0.97903(14)
O18_3 O 0.92939(5) 0.64530(9) 0.89467(11)
O22 O 0.84596(6) 0.77730(10) 0.80102(12)
O30_2 O 0.82692(6) 0.56608(11) 0.75884(13)
C2_3 C 0.80625(8) 0.82697(11) 0.75804(16)
C4_3 C 0.84491(7) 0.90277(12) 0.93732(15)
H3_3 H 0.8741 0.8665 0.9613
C8_3 C 0.76019(7) 0.94948(12) 0.79619(15)
H5_3 H 0.7331 0.9452 0.7257
C9_3 C 0.80400(7) 0.89491(11) 0.83292(15)
C20_4 C 0.50584(8) 0.32662(12) 0.04145(16)
H13_2 H 0.4840 0.3432 0.0735
C21_4 C 0.69375(8) 0.32697(11) 0.74196(16)
O13_4 O 0.56502(6) 0.44777(10) 0.11224(13)
O14_4 O 0.61484(6) 0.47210(10) 0.39376(11)
C22_4 C 0.70207(7) 0.51737(12) 0.52852(15)
H14_4 H 0.7049 0.5572 0.4817
C23_4 C 0.65509(7) 0.40277(12) 0.56268(15)
H15_4 H 0.6259 0.3665 0.5387
C24_4 C 0.74233(7) 0.51014(11) 0.63371(15)
C25_4 C 0.78666(7) 0.57325(12) 0.66859(16)
C27_4 C 0.73981(7) 0.44948(12) 0.70381(15)
H17_4 H 0.7669 0.4452 0.7743
C28_4 C 0.69600(7) 0.39491(11) 0.66708(15)
C31_4 C 0.56344(8) 0.55102(12) 0.23284(15)
H18_4 H 0.5661 0.5927 0.1840
H19_4 H 0.5420 0.5749 0.2657
C32_4 C 0.61872(8) 0.53315(12) 0.32073(15)
H20_4 H 0.6347 0.5844 0.3599
H21_4 H 0.6414 0.5119 0.2890
C33_4 C 0.55011(7) 0.37413(12) 0.05522(15)
O15_2 O 0.43385(8) 0.20436(14) 0.04455(15)
C35_4 C 0.58429(8) 0.34680(13) 0.01214(16)
H22_4 H 0.6151 0.3773 0.0251
C36_4 C 0.53482(7) 0.47468(13) 0.16749(15)
H23_2 H 0.4985 0.4889 0.1159
H24_4 H 0.5333 0.4307 0.2150
C38_4 C 0.65768(7) 0.46517(12) 0.49328(14)
O16_2 O 0.65404(6) 0.27730(10) 0.69898(12)
C1_4 C 0.49416(8) 0.32662(12) 0.45855(16)
H1_4 H 0.5160 0.3432 0.4265
O1_4 O 0.40521(6) 0.19156(10) 0.66695(13)
O3_4 O 0.43498(6) 0.44777(10) 0.38776(13)
O4_4 O 0.38516(6) 0.47210(10) 0.10624(11)
H2_4 H 0.2951 0.5572 0.0183
C7_4 C 0.47398(7) 0.22923(12) 0.57055(15)
H4_4 H 0.4836 0.1832 0.6171
C10_4 C 0.42735(7) 0.27439(12) 0.54996(15)
C11_4 C 0.38744(8) 0.24405(12) 0.58911(16)
C12_4 C 0.43656(8) 0.55102(12) 0.26716(15)
H6_4 H 0.4339 0.5927 0.3160
H7_4 H 0.4580 0.5749 0.2343
C13_4 C 0.38128(8) 0.53315(12) 0.17927(15)
H8_4 H 0.3653 0.5844 0.1401
H9_4 H 0.3586 0.5119 0.2110
C14_4 C 0.44989(7) 0.37413(12) 0.44478(15)
O5_4 O 0.56615(8) 0.20436(14) 0.45545(15)
C15_4 C 0.55104(7) 0.19822(13) 0.52739(15)
C16_4 C 0.41571(8) 0.34680(13) 0.48786(16)
H10_4 H 0.3849 0.3773 0.4749
C17_4 C 0.46518(7) 0.47468(13) 0.33251(15)
H11_4 H 0.5015 0.4889 0.3841
H12_4 H 0.4667 0.4307 0.2850
C18_4 C 0.50576(7) 0.25357(12) 0.52097(14)
C19_4 C 0.34232(7) 0.46517(12) 0.00672(14)
O8_4 O 0.57061(5) 0.14530(9) 0.60533(11)
O11_4 O 0.59479(6) 0.19156(10) 0.83305(13)
C26_4 C 0.52602(7) 0.22923(12) 0.92945(15)
H16_4 H 0.5164 0.1832 0.8829
C29_4 C 0.57265(7) 0.27439(12) 0.95004(15)
C30_4 C 0.61256(8) 0.24405(12) 0.91089(16)
C34_4 C 0.44896(7) 0.19822(13) 0.97261(15)
C37_4 C 0.49424(7) 0.25357(12) 0.97903(14)
O18_4 O 0.42939(5) 0.14530(9) 0.89467(11)
O22_2 O 0.34596(6) 0.27730(10) 0.80102(12)
C2_4 C 0.30625(8) 0.32697(11) 0.75804(16)
C3_4 C 0.29793(7) 0.51737(12) 0.97148(15)
C4_4 C 0.34491(7) 0.40277(12) 0.93732(15)
H3_4 H 0.3741 0.3665 0.9613
C5_4 C 0.25767(7) 0.51014(11) 0.86629(15)
C6_4 C 0.21334(7) 0.57325(12) 0.83141(16)
C8_4 C 0.26019(7) 0.44948(12) 0.79619(15)
H5_4 H 0.2331 0.4452 0.7257
C9_4 C 0.30400(7) 0.39491(11) 0.83292(15)
H13_3 H 0.0160 0.1568 0.9265
O15_3 O 0.06615(8) 0.29564(14) 0.95545(15)
H23_3 H 0.0015 0.0111 0.8841
H13_4 H 0.9840 0.8432 0.0735
O15_4 O 0.93385(8) 0.70436(14) 0.04455(15)
H23_4 H 0.9985 0.9889 0.1159
loop_
_geom_bond_atom_site_label_1
_geom_bond_atom_site_label_2
_geom_bond_site_symmetry_1
_geom_bond_site_symmetry_2
C2 C9 1_555 1_555
C4 H3 1_555 1_555
H5 C8 1_555 1_555
C9 C4 1_555 1_555
O6 C2 1_555 1_555
O9 C2 1_555 1_555
Zn3 O6 1_555 1_555
Ca2 O9 1_555 1_555
C8 C9 1_555 1_555
Zn3 O1 1_555 1_555
Ca2 O2 1_555 1_555
O1 C11 1_555 1_555
O2 C11 1_555 1_555
O3 C14 1_555 1_555
C7 H4 1_555 1_555
C10 C7 1_555 1_555
C11 C10 1_555 1_555
C14 C1 1_555 1_555
C16 C10 1_555 1_555
H10 C16 1_555 1_555
C17 O3 1_555 1_555
H12 C17 1_555 1_555
C19 O4 1_555 1_555
C34 C37 1_555 1_555
O18 Zn3 1_555 1_555
O21 Ca2 1_555 1_555
O25 Zn3 1_555 1_555
O26 Ca2 1_555 1_555
O28 Ca2 1_555 1_555
O30 Zn3 1_555 1_555
Ca2 O25 1_555 1_555
C14 C16 1_555 1_555
C34 O18 1_555 1_555
C5 C3 1_555 1_555
C6 C5 1_555 1_555
O7 C6 1_555 1_555
O10 C6 1_555 1_555
Zn6 O7 1_555 1_555
Ca6 O7 1_555 1_555
O10 Zn6 1_555 1_555
C12 H6 1_555 1_555
H7 C12 1_555 1_555
C13 C12 1_555 1_555
H8 C13 1_555 1_555
H9 C13 1_555 1_555
O5 C15 1_555 1_555
C15 C18 1_555 1_555
O8 C15 1_555 1_555
Zn2 O8 1_555 1_555
O11 Zn2 1_555 1_555
O12 C30 1_555 1_555
C26 H16 1_555 1_555
C29 C26 1_555 1_555
C30 O11 1_555 1_555
Ca4 O12 1_555 1_555
O23 Zn2 1_555 1_555
O24 Zn2 1_555 1_555
O29 Zn2 1_555 1_555
C29 C30 1_555 1_555
Ca4 O24 1_555 1_555
C21 C28 1_555 1_555
O13 C33 1_555 1_555
C23 H15 1_555 1_555
H17 C27 1_555 1_555
C28 C23 1_555 1_555
C33 C20 1_555 1_555
H22 C35 1_555 1_555
C36 O13 1_555 1_555
H24 C36 1_555 1_555
C38 O14 1_555 1_555
O23 C21 1_555 1_555
O19 C21 1_555 1_555
Ca4 O19 1_555 1_555
C23 C38 1_555 1_555
C27 C28 1_555 1_555
C33 C35 1_555 1_555
C22 H14 1_555 1_555
C24 C22 1_555 1_555
C25 C24 1_555 1_555
C31 H18 1_555 1_555
H19 C31 1_555 1_555
C32 C31 1_555 1_555
H20 C32 1_555 1_555
H21 C32 1_555 1_555
O17 C25 1_555 1_555
O20 C25 1_555 1_555
Zn5 O17 1_555 1_555
Ca5 O17 1_555 1_555
O20 Zn5 1_555 1_555
O21_2 Ca4_2 1_555 1_555
O26_2 Ca4_2 1_555 1_555
O28_2 Ca4_2 1_555 1_555
C2_2 C9_2 1_555 1_555
C4_2 H3_2 1_555 1_555
C5_2 C3_2 1_555 1_555
C6_2 C5_2 1_555 1_555
C8_2 C5_2 1_555 1_555
H5_2 C8_2 1_555 1_555
C9_2 C4_2 1_555 1_555
O6_2 C2_2 1_555 1_555
O24 C6_2 1_555 1_555
O9_2 C2_2 1_555 1_555
O29 C6_2 1_555 1_555
Zn5 O6_2 1_555 1_555
Ca5 O9_2 1_555 1_555
C8_2 C9_2 1_555 1_555
Zn5 O1_2 1_555 1_555
Ca5 O2_2 1_555 1_555
C1_2 H1_2 1_555 1_555
O1_2 C11_2 1_555 1_555
O2_2 C11_2 1_555 1_555
O3_2 C14_2 1_555 1_555
O4_2 C13_2 1_555 1_555
C7_2 H4_2 1_555 1_555
C10_2 C7_2 1_555 1_555
C11_2 C10_2 1_555 1_555
C12_2 H6_2 1_555 1_555
H7_2 C12_2 1_555 1_555
C13_2 C12_2 1_555 1_555
H8_2 C13_2 1_555 1_555
H9_2 C13_2 1_555 1_555
C14_2 C1_2 1_555 1_555
O5_2 C15_2 1_555 1_555
C15_2 C18_2 1_555 1_555
C16_2 C10_2 1_555 1_555
H10_2 C16_2 1_555 1_555
C17_2 O3_2 1_555 1_555
H11_2 C17_2 1_555 1_555
H12_2 C17_2 1_555 1_555
C18_2 C1_2 1_555 1_555
C19_2 O4_2 1_555 1_555
O8_2 C15_2 1_555 1_555
Zn6 O8_2 1_555 1_555
O11_2 Zn6 1_555 1_555
O12_2 C30_2 1_555 1_555
C26_2 H16_2 1_555 1_555
C29_2 C26_2 1_555 1_555
C30_2 O11_2 1_555 1_555
C34_2 C37_2 1_555 1_555
O18_2 Zn5 1_555 1_555
Ca6 O12_2 1_555 1_555
O21_3 Ca5 1_555 1_555
O23_2 Zn6 1_555 1_555
O26_3 Ca5 1_555 1_555
O28_3 Ca5 1_555 1_555
C7_2 C18_2 1_555 1_555
C12_2 C17_2 1_555 1_555
C14_2 C16_2 1_555 1_555
C26_2 C37_2 1_555 1_555
C29_2 C30_2 1_555 1_555
C34_2 O18_2 1_555 1_555
C20_2 H13 1_555 1_555
C21_2 C28_2 1_555 1_555
O13_2 C33_2 1_555 1_555
O14_2 C32_2 1_555 1_555
C22_2 H14_2 1_555 1_555
C23_2 H15_2 1_555 1_555
C24_2 C22_2 1_555 1_555
C25_2 C24_2 1_555 1_555
C27_2 C24_2 1_555 1_555
H17_2 C27_2 1_555 1_555
C28_2 C23_2 1_555 1_555
C31_2 H18_2 1_555 1_555
H19_2 C31_2 1_555 1_555
C32_2 C31_2 1_555 1_555
H20_2 C32_2 1_555 1_555
H21_2 C32_2 1_555 1_555
C33_2 C20_2 1_555 1_555
H22_2 C35_2 1_555 1_555
C36_2 O13_2 1_555 1_555
H23 C36_2 1_555 1_555
H24_2 C36_2 1_555 1_555
C38_2 O14_2 1_555 1_555
O23_2 C21_2 1_555 1_555
O25 C25_2 1_555 1_555
O19_2 C21_2 1_555 1_555
O30 C25_2 1_555 1_555
Ca6 O19_2 1_555 1_555
C22_2 C38_2 1_555 1_555
C23_2 C38_2 1_555 1_555
C27_2 C28_2 1_555 1_555
C31_2 C36_2 1_555 1_555
C33_2 C35_2 1_555 1_555
O21_4 Ca6_2 1_555 1_555
O26_4 Ca6_2 1_555 1_555
O28_4 Ca6_2 1_555 1_555
C22_3 H14_3 1_555 1_555
C24_3 C22_3 1_555 1_555
C25_3 C24_3 1_555 1_555
C31_3 H18_3 1_555 1_555
H19_3 C31_3 1_555 1_555
C32_3 C31_3 1_555 1_555
H20_3 C32_3 1_555 1_555
H21_3 C32_3 1_555 1_555
O26 C25_3 1_555 1_555
O20_2 C25_3 1_555 1_555
Zn5_2 O26 1_555 1_555
O20_2 Zn5_2 1_555 1_555
C21_3 C28_3 1_555 1_555
O13_3 C33_3 1_555 1_555
C23_3 H15_3 1_555 1_555
H17_3 C27_3 1_555 1_555
C28_3 C23_3 1_555 1_555
C33_3 C20_3 1_555 1_555
H22_3 C35_3 1_555 1_555
C36_3 O13_3 1_555 1_555
H24_3 C36_3 1_555 1_555
C38_3 O14_3 1_555 1_555
O16 C21_3 1_555 1_555
O28_4 C21_3 1_555 1_555
Zn4 O16 1_555 1_555
C23_3 C38_3 1_555 1_555
C27_3 C28_3 1_555 1_555
C33_3 C35_3 1_555 1_555
O5_3 C15_3 1_555 1_555
C15_3 C18_3 1_555 1_555
O8_3 C15_3 1_555 1_555
Zn4 O8_3 1_555 1_555
O11_3 Zn4 1_555 1_555
O21_4 C30_3 1_555 1_555
C26_3 H16_3 1_555 1_555
C29_3 C26_3 1_555 1_555
C30_3 O11_3 1_555 1_555
O26_4 Zn4 1_555 1_555
O29_2 Zn4 1_555 1_555
C29_3 C30_3 1_555 1_555
C12_3 H6_3 1_555 1_555
H7_3 C12_3 1_555 1_555
C13_3 C12_3 1_555 1_555
H8_3 C13_3 1_555 1_555
H9_3 C13_3 1_555 1_555
C5_3 C3_3 1_555 1_555
C6_3 C5_3 1_555 1_555
O26_2 C6_3 1_555 1_555
O10_2 C6_3 1_555 1_555
Zn6_2 O26_2 1_555 1_555
O10_2 Zn6_2 1_555 1_555
Zn1 O1_3 1_555 1_555
O1_3 C11_3 1_555 1_555
O21_3 C11_3 1_555 1_555
O3_3 C14_3 1_555 1_555
C7_3 H4_3 1_555 1_555
C10_3 C7_3 1_555 1_555
C11_3 C10_3 1_555 1_555
C14_3 C1_3 1_555 1_555
C16_3 C10_3 1_555 1_555
H10_3 C16_3 1_555 1_555
C17_3 O3_3 1_555 1_555
H12_3 C17_3 1_555 1_555
C19_3 O4_3 1_555 1_555
C34_3 C37_3 1_555 1_555
O18_3 Zn1 1_555 1_555
O22 Zn1 1_555 1_555
O26_3 Zn1 1_555 1_555
O30_2 Zn1 1_555 1_555
C14_3 C16_3 1_555 1_555
C34_3 O18_3 1_555 1_555
C2_3 C9_3 1_555 1_555
C4_3 H3_3 1_555 1_555
H5_3 C8_3 1_555 1_555
C9_3 C4_3 1_555 1_555
O22 C2_3 1_555 1_555
O28_3 C2_3 1_555 1_555
C8_3 C9_3 1_555 1_555
C20_4 H13_2 1_555 1_555
C21_4 C28_4 1_555 1_555
O13_4 C33_4 1_555 1_555
O14_4 C32_4 1_555 1_555
C22_4 H14_4 1_555 1_555
C23_4 H15_4 1_555 1_555
C24_4 C22_4 1_555 1_555
C25_4 C24_4 1_555 1_555
C27_4 C24_4 1_555 1_555
H17_4 C27_4 1_555 1_555
C28_4 C23_4 1_555 1_555
C31_4 H18_4 1_555 1_555
H19_4 C31_4 1_555 1_555
C32_4 C31_4 1_555 1_555
H20_4 C32_4 1_555 1_555
H21_4 C32_4 1_555 1_555
C33_4 C20_4 1_555 1_555
H22_4 C35_4 1_555 1_555
C36_4 O13_4 1_555 1_555
H23_2 C36_4 1_555 1_555
H24_4 C36_4 1_555 1_555
C38_4 O14_4 1_555 1_555
O16_2 C21_4 1_555 1_555
O26_3 C25_4 1_555 1_555
O28_2 C21_4 1_555 1_555
O30_2 C25_4 1_555 1_555
Zn6_2 O16_2 1_555 1_555
C22_4 C38_4 1_555 1_555
C23_4 C38_4 1_555 1_555
C27_4 C28_4 1_555 1_555
C31_4 C36_4 1_555 1_555
C33_4 C35_4 1_555 1_555
Zn5_2 O1_4 1_555 1_555
C1_4 H1_4 1_555 1_555
O1_4 C11_4 1_555 1_555
O21 C11_4 1_555 1_555
O3_4 C14_4 1_555 1_555
O4_4 C13_4 1_555 1_555
C7_4 H4_4 1_555 1_555
C10_4 C7_4 1_555 1_555
C11_4 C10_4 1_555 1_555
C12_4 H6_4 1_555 1_555
H7_4 C12_4 1_555 1_555
C13_4 C12_4 1_555 1_555
H8_4 C13_4 1_555 1_555
H9_4 C13_4 1_555 1_555
C14_4 C1_4 1_555 1_555
O5_4 C15_4 1_555 1_555
C15_4 C18_4 1_555 1_555
C16_4 C10_4 1_555 1_555
H10_4 C16_4 1_555 1_555
C17_4 O3_4 1_555 1_555
H11_4 C17_4 1_555 1_555
H12_4 C17_4 1_555 1_555
C18_4 C1_4 1_555 1_555
C19_4 O4_4 1_555 1_555
O8_4 C15_4 1_555 1_555
Zn6_2 O8_4 1_555 1_555
O11_4 Zn6_2 1_555 1_555
O21_2 C30_4 1_555 1_555
C26_4 H16_4 1_555 1_555
C29_4 C26_4 1_555 1_555
C30_4 O11_4 1_555 1_555
C34_4 C37_4 1_555 1_555
O18_4 Zn5_2 1_555 1_555
O22_2 Zn5_2 1_555 1_555
C7_4 C18_4 1_555 1_555
C12_4 C17_4 1_555 1_555
C14_4 C16_4 1_555 1_555
C26_4 C37_4 1_555 1_555
C29_4 C30_4 1_555 1_555
C34_4 O18_4 1_555 1_555
C2_4 C9_4 1_555 1_555
C4_4 H3_4 1_555 1_555
C5_4 C3_4 1_555 1_555
C6_4 C5_4 1_555 1_555
C8_4 C5_4 1_555 1_555
H5_4 C8_4 1_555 1_555
C9_4 C4_4 1_555 1_555
O22_2 C2_4 1_555 1_555
O26_4 C6_4 1_555 1_555
O28 C2_4 1_555 1_555
O29_2 C6_4 1_555 1_555
C8_4 C9_4 1_555 1_555

#END
