
###############################################################################
#
# This file contains modified crystal structure data generated from the
# MOF subset of the Cambridge Structural Database (CSD) v543 
# hosted by the Cambridge Crystallographic Data Centre (CCDC).
#
# This work is licensed under the Creative Commons
# Attribution-NonCommercial-ShareAlike 4.0 International License.
# To view a copy of this license, visit
# http://creativecommons.org/licenses/by-nc-sa/4.0/
# or send a letter to
# Creative Commons, PO Box 1866, Mountain View, CA 94042, USA.
#
# CIF created using the CSD Python API on 29 September 2022
# The structure has been converted into the P1 space group
# The structure has a 3D framework
# The original CSD entry BUVWOF03 is in the rhombohedral crystal system
# The framework has been calculated to contain at least 10.0% void space
# The void calculation uses a probe of radius 1.32A, grid spacing 0.4
#
###############################################################################

data_BUVWOF03
_chemical_formula_moiety         '(C432 H288 Fe27 N180)n'
_symmetry_cell_setting           triclinic
_symmetry_space_group_name_H-M   'P 1'
_symmetry_Int_Tables_number      1
_space_group_name_Hall           'P 1'
loop_
_symmetry_equiv_pos_site_id
_symmetry_equiv_pos_as_xyz
1 x,y,z
_cell_length_a                   29.932(6)
_cell_length_b                   29.932(6)
_cell_length_c                   16.139(4)
_cell_angle_alpha                90
_cell_angle_beta                 90
_cell_angle_gamma                120
_cell_volume                     12522.1
loop_
_atom_site_label
_atom_site_type_symbol
_atom_site_fract_x
_atom_site_fract_y
_atom_site_fract_z
N3 N 0.1233(2) 0.48003(18) 0.0297(3)
C1 C 0.0937(2) 0.4986(2) 0.0015(4)
H5 H 0.1703 0.4273 0.0786
H6 H 0.1950 0.3863 0.1683
C11 C 0.0948(3) 0.3623(2) 0.2547(4)
H7 H 0.0742 0.3450 0.3000
C12 C 0.0780(3) 0.3872(2) 0.2021(5)
H8 H 0.0465 0.3854 0.2118
Fe3 Fe 0.1668 0.3334 0.3333
N6 N 0.04657(16) 0.47610(16) 0.0391(3)
N7 N 0.04671(15) 0.44192(16) 0.0935(3)
N10 N 0.02824(15) 0.55643(23) 0.0882(3)
N12 N 0.13847(17) 0.36157(15) 0.2451(3)
C14 C 0.0922(2) 0.4454(2) 0.0860(4)
C20 C 0.1067(2) 0.4138(2) 0.1374(4)
C21 C 0.1499(3) 0.4114(3) 0.1249(5)
C22 C 0.1643(3) 0.3861(2) 0.1791(4)
Fe1 Fe 0.9999 0.5000 1.0000
N1 N 0.95343(16) 0.52390(16) 0.9609(3)
N2 N 0.95329(15) 0.55808(16) 0.9065(3)
N5 N 0.86153(17) 0.63843(15) 0.7549(3)
C2 C 0.9078(2) 0.5546(2) 0.9140(4)
C8 C 0.8933(2) 0.5862(2) 0.8626(4)
C9 C 0.8501(3) 0.5886(3) 0.8751(5)
C10 C 0.8357(3) 0.6139(2) 0.8209(4)
Fe2 Fe 0.8334 0.6668 0.6667
N8 N 0.8767(2) 0.51997(18) 0.9703(3)
N11 N 0.97176(15) 0.44357(23) 0.9118(3)
C13 C 0.9063(2) 0.5014(2) 0.9985(4)
H13 H 0.8297 0.5727 0.9214
H14 H 0.8050 0.6137 0.8317
C23 C 0.9052(3) 0.6377(2) 0.7453(4)
H15 H 0.9258 0.6550 0.7000
C24 C 0.9220(3) 0.6128(2) 0.7979(5)
H16 H 0.9535 0.6146 0.7882
Fe1_2 Fe 0.5000 0.4999 0.0000
N3_2 N 0.51997(18) 0.64327(27) 0.0297(3)
C1_2 C 0.5014(2) 0.5951(3) 0.0015(4)
C4 C 0.5657(2) 0.4171(4) 0.1011(5)
H1 H 0.5595 0.3837 0.0930
C5 C 0.6034(3) 0.4491(4) 0.1555(5)
H2 H 0.6236 0.4382 0.1830
C6 C 0.6105(3) 0.4973(4) 0.1682(5)
H3 H 0.6356 0.5199 0.2050
C7 C 0.5804(2) 0.5120(3) 0.1263(4)
H4 H 0.5848 0.5445 0.1366
H5_2 H 0.5727 0.7430 0.0786
H6_2 H 0.6137 0.8087 0.1683
C11_2 C 0.6377(2) 0.7325(4) 0.2547(4)
H7_2 H 0.6550 0.7292 0.3000
C12_2 C 0.6128(2) 0.6908(4) 0.2021(5)
H8_2 H 0.6146 0.6611 0.2118
Fe3_2 Fe 0.6666 0.8333 0.3333
N6_2 N 0.52390(16) 0.57047(23) 0.0391(3)
N7_2 N 0.55808(16) 0.60479(22) 0.0935(3)
N9 N 0.54465(16) 0.48150(23) 0.0708(3)
N10_2 N 0.44357(23) 0.47180(27) 0.0882(3)
N12_2 N 0.63843(15) 0.77690(23) 0.2451(3)
C14_2 C 0.5546(2) 0.6468(3) 0.0860(4)
C15 C 0.5376(2) 0.4335(3) 0.0591(4)
C20_2 C 0.5862(2) 0.6929(3) 0.1374(4)
C21_2 C 0.5886(3) 0.7385(4) 0.1249(5)
C22_2 C 0.6139(2) 0.7782(4) 0.1791(4)
Fe1_3 Fe 0.5000 0.4999 1.0000
N1_2 N 0.47610(16) 0.42953(23) 0.9609(3)
N2_2 N 0.44192(16) 0.39521(22) 0.9065(3)
N4 N 0.45535(16) 0.51850(23) 0.9292(3)
N5_2 N 0.36157(15) 0.22310(23) 0.7549(3)
C2_2 C 0.4454(2) 0.3532(3) 0.9140(4)
C3 C 0.4624(2) 0.5665(3) 0.9409(4)
C8_2 C 0.4138(2) 0.3071(3) 0.8626(4)
C9_2 C 0.4114(3) 0.2615(4) 0.8751(5)
C10_2 C 0.3861(2) 0.2218(4) 0.8209(4)
Fe2_2 Fe 0.3332 0.1667 0.6667
N8_2 N 0.48003(18) 0.35673(27) 0.9703(3)
N11_2 N 0.55643(23) 0.52820(27) 0.9118(3)
C13_2 C 0.4986(2) 0.4049(3) 0.9985(4)
C16 C 0.4343(2) 0.5829(4) 0.8989(5)
H9 H 0.4405 0.6163 0.9070
C17 C 0.3966(3) 0.5509(4) 0.8445(5)
H10 H 0.3764 0.5618 0.8170
C18 C 0.3895(3) 0.5027(4) 0.8318(5)
H11 H 0.3644 0.4801 0.7950
C19 C 0.4196(2) 0.4880(3) 0.8737(4)
H12 H 0.4152 0.4555 0.8634
H13_2 H 0.4273 0.2570 0.9214
H14_2 H 0.3863 0.1913 0.8317
C23_2 C 0.3623(2) 0.2675(4) 0.7453(4)
H15_2 H 0.3450 0.2708 0.7000
C24_2 C 0.3872(2) 0.3092(4) 0.7979(5)
H16_2 H 0.3854 0.3389 0.7882
Fe1_4 Fe 0.5001 0.0001 1.0000
N1_3 N 0.57047(23) 0.04657(16) 0.9609(3)
N2_3 N 0.60479(22) 0.04671(15) 0.9065(3)
N5_3 N 0.77690(23) 0.13847(17) 0.7549(3)
C2_3 C 0.6468(3) 0.0922(2) 0.9140(4)
C8_3 C 0.6929(3) 0.1067(2) 0.8626(4)
C9_3 C 0.7385(4) 0.1499(3) 0.8751(5)
C10_3 C 0.7782(4) 0.1643(3) 0.8209(4)
Fe2_3 Fe 0.8333 0.1666 0.6667
N8_3 N 0.64327(27) 0.1233(2) 0.9703(3)
N11_3 N 0.47180(27) 0.02824(15) 0.9118(3)
C13_3 C 0.5951(3) 0.0937(2) 0.9985(4)
H13_3 H 0.7430 0.1703 0.9214
H14_3 H 0.8087 0.1950 0.8317
C23_3 C 0.7325(4) 0.0948(3) 0.7453(4)
H15_3 H 0.7292 0.0742 0.7000
C24_3 C 0.6908(4) 0.0780(3) 0.7979(5)
H16_3 H 0.6611 0.0465 0.7882
N3_3 N 0.35673(27) 0.8767(2) 0.0297(3)
C1_3 C 0.4049(3) 0.9063(2) 0.0015(4)
H5_3 H 0.2570 0.8297 0.0786
H6_3 H 0.1913 0.8050 0.1683
C11_3 C 0.2675(4) 0.9052(3) 0.2547(4)
H7_3 H 0.2708 0.9258 0.3000
C12_3 C 0.3092(4) 0.9220(3) 0.2021(5)
H8_3 H 0.3389 0.9535 0.2118
Fe3_3 Fe 0.1667 0.8332 0.3333
N6_3 N 0.42953(23) 0.95343(16) 0.0391(3)
N7_3 N 0.39521(22) 0.95329(15) 0.0935(3)
N10_3 N 0.52820(27) 0.97176(15) 0.0882(3)
N12_3 N 0.22310(23) 0.86153(17) 0.2451(3)
C14_3 C 0.3532(3) 0.9078(2) 0.0860(4)
C20_3 C 0.3071(3) 0.8933(2) 0.1374(4)
C21_3 C 0.2615(4) 0.8501(3) 0.1249(5)
C22_3 C 0.2218(4) 0.8357(3) 0.1791(4)
N1_4 N 0.62010(16) 0.85723(16) 0.2942(3)
N2_4 N 0.61996(15) 0.89141(16) 0.2398(3)
N3_4 N 0.7900(2) 0.81336(18) 0.3630(3)
N4_2 N 0.72982(16) 0.87798(16) 0.2625(3)
C1_4 C 0.7604(2) 0.8319(2) 0.3348(4)
C2_4 C 0.5745(2) 0.8879(2) 0.2473(4)
C3_2 C 0.7708(2) 0.8709(2) 0.2742(4)
C4_2 C 0.5181(3) 0.7676(2) 0.4344(5)
H1_2 H 0.4909 0.7738 0.4263
C5_2 C 0.5124(3) 0.7299(3) 0.4888(5)
H2_2 H 0.4813 0.7097 0.5163
C6_2 C 0.5535(3) 0.7228(3) 0.5015(5)
H3_2 H 0.5510 0.6977 0.5383
C7_2 C 0.5983(2) 0.7529(2) 0.4596(4)
H4_2 H 0.6264 0.7485 0.4699
C8_4 C 0.5600(2) 0.9195(2) 0.1959(4)
C9_4 C 0.5168(3) 0.9219(3) 0.2084(5)
H5_4 H 0.8370 0.7606 0.4119
C10_4 C 0.5024(3) 0.9472(2) 0.1542(4)
H6_4 H 0.8617 0.7196 0.5016
C11_4 C 0.7615(3) 0.6956(2) 0.5880(4)
H7_4 H 0.7409 0.6783 0.6333
C12_4 C 0.7447(3) 0.7205(2) 0.5354(5)
H8_4 H 0.7132 0.7187 0.5451
N6_4 N 0.71324(16) 0.80943(16) 0.3724(3)
N7_4 N 0.71338(15) 0.77525(16) 0.4268(3)
N8_4 N 0.5434(2) 0.85330(18) 0.3036(3)
N9_2 N 0.60352(16) 0.78868(16) 0.4041(3)
N10_4 N 0.69490(15) 0.88977(23) 0.4216(3)
N12_4 N 0.80514(17) 0.69490(15) 0.5784(3)
C13_4 C 0.5730(2) 0.8347(2) 0.3318(4)
C14_4 C 0.7589(2) 0.7787(2) 0.4193(4)
C15_2 C 0.5626(2) 0.7957(2) 0.3924(4)
C16_2 C 0.8153(3) 0.8990(2) 0.2322(5)
H9_2 H 0.8425 0.8928 0.2403
C17_2 C 0.8210(3) 0.9367(3) 0.1778(5)
H10_2 H 0.8521 0.9569 0.1503
C18_2 C 0.7799(3) 0.9438(3) 0.1651(5)
H11_2 H 0.7824 0.9689 0.1283
C19_2 C 0.7351(2) 0.9137(2) 0.2070(4)
H12_2 H 0.7070 0.9181 0.1967
C20_4 C 0.7734(2) 0.7471(2) 0.4707(4)
C21_4 C 0.8166(3) 0.7447(3) 0.4582(5)
H13_4 H 0.4964 0.9060 0.2547
C22_4 C 0.8310(3) 0.7194(2) 0.5124(4)
H14_4 H 0.4717 0.9470 0.1650
C23_4 C 0.5719(3) 0.9710(2) 0.0786(4)
H15_4 H 0.5925 0.9883 0.0333
C24_4 C 0.5887(3) 0.9461(2) 0.1312(5)
H16_4 H 0.6202 0.9479 0.1215
H5_5 H 0.2394 0.0763 0.4119
H6_5 H 0.2804 0.1420 0.5016
C11_5 C 0.3044(2) 0.0658(4) 0.5880(4)
H7_5 H 0.3217 0.0625 0.6333
C12_5 C 0.2795(2) 0.0241(4) 0.5354(5)
N12_5 N 0.30510(15) 0.11023(23) 0.5784(3)
C20_5 C 0.2529(2) 0.0262(3) 0.4707(4)
C21_5 C 0.2553(3) 0.0718(4) 0.4582(5)
C22_5 C 0.2806(2) 0.1115(4) 0.5124(4)
N1_5 N 0.14277(16) 0.76286(23) 0.2942(3)
N2_5 N 0.10859(16) 0.72854(22) 0.2398(3)
N3_5 N 0.18664(18) 0.97660(27) 0.3630(3)
N4_3 N 0.12202(16) 0.85183(23) 0.2625(3)
C1_5 C 0.1681(2) 0.9284(3) 0.3348(4)
C2_5 C 0.1121(2) 0.6865(3) 0.2473(4)
C3_3 C 0.1291(2) 0.8998(3) 0.2742(4)
C4_3 C 0.2324(2) 0.7504(4) 0.4344(5)
H1_3 H 0.2262 0.7170 0.4263
C5_3 C 0.2701(3) 0.7824(4) 0.4888(5)
H2_3 H 0.2903 0.7715 0.5163
C6_3 C 0.2772(3) 0.8306(4) 0.5015(5)
H3_3 H 0.3023 0.8532 0.5383
C7_3 C 0.2471(2) 0.8453(3) 0.4596(4)
H4_3 H 0.2515 0.8778 0.4699
C8_5 C 0.0805(2) 0.6404(3) 0.1959(4)
C9_5 C 0.0781(3) 0.5948(4) 0.2084(5)
C10_5 C 0.0528(2) 0.5551(4) 0.1542(4)
H8_5 H 0.2813 0.9944 0.5451
N6_5 N 0.19057(16) 0.90380(23) 0.3724(3)
N7_5 N 0.22475(16) 0.93812(22) 0.4268(3)
N8_5 N 0.14670(18) 0.69006(27) 0.3036(3)
N9_3 N 0.21132(16) 0.81483(23) 0.4041(3)
N10_5 N 0.11023(23) 0.80514(27) 0.4216(3)
C13_5 C 0.1653(2) 0.7382(3) 0.3318(4)
C14_5 C 0.2213(2) 0.9801(3) 0.4193(4)
C15_3 C 0.2043(2) 0.7668(3) 0.3924(4)
C16_3 C 0.1010(2) 0.9162(4) 0.2322(5)
H9_3 H 0.1072 0.9496 0.2403
C17_3 C 0.0633(3) 0.8842(4) 0.1778(5)
H10_3 H 0.0431 0.8951 0.1503
C18_3 C 0.0562(3) 0.8360(4) 0.1651(5)
H11_3 H 0.0311 0.8134 0.1283
C19_3 C 0.0863(2) 0.8213(3) 0.2070(4)
H12_3 H 0.0819 0.7888 0.1967
H13_5 H 0.0940 0.5903 0.2547
H14_5 H 0.0530 0.5246 0.1650
C23_5 C 0.0290(2) 0.6008(4) 0.0786(4)
H15_5 H 0.0117 0.6041 0.0333
C24_5 C 0.0539(2) 0.6425(4) 0.1312(5)
H16_5 H 0.0521 0.6722 0.1215
N1_6 N 0.23714(23) 0.37990(16) 0.2942(3)
N2_6 N 0.27146(22) 0.38004(15) 0.2398(3)
N3_6 N 0.02340(27) 0.2100(2) 0.3630(3)
N4_4 N 0.14817(23) 0.27018(16) 0.2625(3)
C1_6 C 0.0716(3) 0.2396(2) 0.3348(4)
C2_6 C 0.3135(3) 0.4255(2) 0.2473(4)
C3_4 C 0.1002(3) 0.2292(2) 0.2742(4)
C4_4 C 0.2496(4) 0.4819(3) 0.4344(5)
H1_4 H 0.2830 0.5091 0.4263
C5_4 C 0.2176(4) 0.4876(3) 0.4888(5)
H2_4 H 0.2285 0.5187 0.5163
C6_4 C 0.1694(4) 0.4465(3) 0.5015(5)
H3_4 H 0.1468 0.4490 0.5383
C7_4 C 0.1547(3) 0.4017(2) 0.4596(4)
H4_4 H 0.1222 0.3736 0.4699
C8_6 C 0.3596(3) 0.4400(2) 0.1959(4)
C9_6 C 0.4052(4) 0.4832(3) 0.2084(5)
C10_6 C 0.4449(4) 0.4976(3) 0.1542(4)
H8_6 H 0.0056 0.2868 0.5451
N6_6 N 0.09620(23) 0.28676(16) 0.3724(3)
N7_6 N 0.06188(22) 0.28662(15) 0.4268(3)
N8_6 N 0.30994(27) 0.4566(2) 0.3036(3)
N9_4 N 0.18517(23) 0.39648(16) 0.4041(3)
N10_6 N 0.19486(27) 0.30510(15) 0.4216(3)
C13_6 C 0.2618(3) 0.4270(2) 0.3318(4)
C14_6 C 0.0199(3) 0.2411(2) 0.4193(4)
C15_4 C 0.2332(3) 0.4374(2) 0.3924(4)
C16_4 C 0.0838(4) 0.1847(3) 0.2322(5)
H9_4 H 0.0504 0.1575 0.2403
C17_4 C 0.1158(4) 0.1790(3) 0.1778(5)
H10_4 H 0.1049 0.1479 0.1503
C18_4 C 0.1640(4) 0.2201(3) 0.1651(5)
H11_4 H 0.1866 0.2176 0.1283
C19_4 C 0.1787(3) 0.2649(2) 0.2070(4)
H12_4 H 0.2112 0.2930 0.1967
H13_6 H 0.4097 0.5036 0.2547
H14_6 H 0.4754 0.5283 0.1650
C23_6 C 0.3992(4) 0.4281(3) 0.0786(4)
H15_6 H 0.3959 0.4075 0.0333
C24_6 C 0.3575(4) 0.4113(3) 0.1312(5)
H16_6 H 0.3278 0.3798 0.1215
H5_6 H 0.9237 0.1630 0.4119
H6_6 H 0.8580 0.1383 0.5016
C11_6 C 0.9342(4) 0.2385(3) 0.5880(4)
H7_6 H 0.9375 0.2591 0.6333
C12_6 C 0.9759(4) 0.2553(3) 0.5354(5)
N12_6 N 0.88977(23) 0.19486(17) 0.5784(3)
C20_6 C 0.9738(3) 0.2266(2) 0.4707(4)
C21_6 C 0.9282(4) 0.1834(3) 0.4582(5)
C22_6 C 0.8885(4) 0.1690(3) 0.5124(4)
N1_7 N 0.28676(16) 0.19057(16) 0.6276(3)
N2_7 N 0.28662(15) 0.22475(16) 0.5732(3)
N3_7 N 0.4566(2) 0.14670(18) 0.6964(3)
N4_5 N 0.39648(16) 0.21132(16) 0.5959(3)
C1_7 C 0.4270(2) 0.1653(2) 0.6682(4)
C2_7 C 0.2411(2) 0.2213(2) 0.5807(4)
C3_5 C 0.4374(2) 0.2043(2) 0.6076(4)
C4_5 C 0.1847(3) 0.1010(2) 0.7678(5)
H1_5 H 0.1575 0.1072 0.7597
C5_5 C 0.1790(3) 0.0633(3) 0.8222(5)
H2_5 H 0.1479 0.0431 0.8497
C6_5 C 0.2201(3) 0.0562(3) 0.8349(5)
H3_5 H 0.2176 0.0311 0.8717
C7_5 C 0.2649(2) 0.0863(2) 0.7930(4)
H4_5 H 0.2930 0.0819 0.8033
C8_7 C 0.2266(2) 0.2529(2) 0.5293(4)
C9_7 C 0.1834(3) 0.2553(3) 0.5418(5)
H5_7 H 0.5036 0.0940 0.7453
C10_7 C 0.1690(3) 0.2806(2) 0.4876(4)
H6_7 H 0.5283 0.0530 0.8350
C11_7 C 0.4281(3) 0.0290(2) 0.9214(4)
H7_7 H 0.4075 0.0117 0.9667
C12_7 C 0.4113(3) 0.0539(2) 0.8688(5)
H8_7 H 0.3798 0.0521 0.8785
N6_7 N 0.37990(16) 0.14277(16) 0.7058(3)
N7_7 N 0.38004(15) 0.10859(16) 0.7602(3)
N8_7 N 0.2100(2) 0.18664(18) 0.6370(3)
N9_5 N 0.27018(16) 0.12202(16) 0.7375(3)
C13_7 C 0.2396(2) 0.1681(2) 0.6652(4)
C14_7 C 0.4255(2) 0.1121(2) 0.7527(4)
C15_5 C 0.2292(2) 0.1291(2) 0.7258(4)
C16_5 C 0.4819(3) 0.2324(2) 0.5656(5)
H9_5 H 0.5091 0.2262 0.5737
C17_5 C 0.4876(3) 0.2701(3) 0.5112(5)
H10_5 H 0.5187 0.2903 0.4837
C18_5 C 0.4465(3) 0.2772(3) 0.4985(5)
H11_5 H 0.4490 0.3023 0.4617
C19_5 C 0.4017(2) 0.2471(2) 0.5404(4)
H12_5 H 0.3736 0.2515 0.5301
C20_7 C 0.4400(2) 0.0805(2) 0.8041(4)
C21_7 C 0.4832(3) 0.0781(3) 0.7916(5)
H13_7 H 0.1630 0.2394 0.5881
C22_7 C 0.4976(3) 0.0528(2) 0.8458(4)
H14_7 H 0.1383 0.2804 0.4984
C23_7 C 0.2385(3) 0.3044(2) 0.4120(4)
H15_7 H 0.2591 0.3217 0.3667
C24_7 C 0.2553(3) 0.2795(2) 0.4646(5)
H16_7 H 0.2868 0.2813 0.4549
N1_8 N 0.80943(16) 0.09620(23) 0.6276(3)
N2_8 N 0.77525(16) 0.06188(22) 0.5732(3)
N3_8 N 0.85330(18) 0.30994(27) 0.6964(3)
N4_6 N 0.78868(16) 0.18517(23) 0.5959(3)
C1_8 C 0.8347(2) 0.2618(3) 0.6682(4)
C2_8 C 0.7787(2) 0.0199(3) 0.5807(4)
C3_6 C 0.7957(2) 0.2332(3) 0.6076(4)
C4_6 C 0.8990(2) 0.0838(4) 0.7678(5)
H1_6 H 0.8928 0.0504 0.7597
C5_6 C 0.9367(3) 0.1158(4) 0.8222(5)
H2_6 H 0.9569 0.1049 0.8497
C6_6 C 0.9438(3) 0.1640(4) 0.8349(5)
H3_6 H 0.9689 0.1866 0.8717
C7_6 C 0.9137(2) 0.1787(3) 0.7930(4)
H4_6 H 0.9181 0.2112 0.8033
H5_8 H 0.9060 0.4097 0.7453
H6_8 H 0.9470 0.4754 0.8350
C11_8 C 0.9710(2) 0.3992(4) 0.9214(4)
H7_8 H 0.9883 0.3959 0.9667
C12_8 C 0.9461(2) 0.3575(4) 0.8688(5)
H8_8 H 0.9479 0.3278 0.8785
N6_8 N 0.85723(16) 0.23714(23) 0.7058(3)
N7_8 N 0.89141(16) 0.27146(22) 0.7602(3)
N8_8 N 0.81336(18) 0.02340(27) 0.6370(3)
N9_6 N 0.87798(16) 0.14817(23) 0.7375(3)
C13_8 C 0.8319(2) 0.0716(3) 0.6652(4)
C14_8 C 0.8879(2) 0.3135(3) 0.7527(4)
C15_6 C 0.8709(2) 0.1002(3) 0.7258(4)
C16_6 C 0.7676(2) 0.2496(4) 0.5656(5)
H9_6 H 0.7738 0.2830 0.5737
C17_6 C 0.7299(3) 0.2176(4) 0.5112(5)
H10_6 H 0.7097 0.2285 0.4837
C18_6 C 0.7228(3) 0.1694(4) 0.4985(5)
H11_6 H 0.6977 0.1468 0.4617
C19_6 C 0.7529(2) 0.1547(3) 0.5404(4)
H12_6 H 0.7485 0.1222 0.5301
C20_8 C 0.9195(2) 0.3596(3) 0.8041(4)
C21_8 C 0.9219(3) 0.4052(4) 0.7916(5)
C22_8 C 0.9472(2) 0.4449(4) 0.8458(4)
H16_8 H 0.7187 0.0056 0.4549
C8_8 C 0.7471(2) 0.9738(3) 0.5293(4)
C9_8 C 0.7447(3) 0.9282(4) 0.5418(5)
C10_8 C 0.7194(2) 0.8885(4) 0.4876(4)
H13_8 H 0.7606 0.9237 0.5881
H14_8 H 0.7196 0.8580 0.4984
C23_8 C 0.6956(2) 0.9342(4) 0.4120(4)
H15_8 H 0.6783 0.9375 0.3667
C24_8 C 0.7205(2) 0.9759(4) 0.4646(5)
C8_9 C 0.0262(3) 0.7734(2) 0.5293(4)
C9_9 C 0.0718(4) 0.8166(3) 0.5418(5)
C10_9 C 0.1115(4) 0.8310(3) 0.4876(4)
H13_9 H 0.0763 0.8370 0.5881
H14_9 H 0.1420 0.8617 0.4984
C23_9 C 0.0658(4) 0.7615(3) 0.4120(4)
H15_9 H 0.0625 0.7409 0.3667
C24_9 C 0.0241(4) 0.7447(3) 0.4646(5)
N1_9 N 0.90380(23) 0.71324(16) 0.6276(3)
N2_9 N 0.93812(22) 0.71338(15) 0.5732(3)
N3_9 N 0.69006(27) 0.5434(2) 0.6964(3)
N4_7 N 0.81483(23) 0.60352(16) 0.5959(3)
C1_9 C 0.7382(3) 0.5730(2) 0.6682(4)
C2_9 C 0.9801(3) 0.7589(2) 0.5807(4)
C3_7 C 0.7668(3) 0.5626(2) 0.6076(4)
C4_7 C 0.9162(4) 0.8153(3) 0.7678(5)
H1_7 H 0.9496 0.8425 0.7597
C5_7 C 0.8842(4) 0.8210(3) 0.8222(5)
H2_7 H 0.8951 0.8521 0.8497
C6_7 C 0.8360(4) 0.7799(3) 0.8349(5)
H3_7 H 0.8134 0.7824 0.8717
C7_7 C 0.8213(3) 0.7351(2) 0.7930(4)
H4_7 H 0.7888 0.7070 0.8033
H5_9 H 0.5903 0.4964 0.7453
H6_9 H 0.5246 0.4717 0.8350
C11_9 C 0.6008(4) 0.5719(3) 0.9214(4)
H7_9 H 0.6041 0.5925 0.9667
C12_9 C 0.6425(4) 0.5887(3) 0.8688(5)
H8_9 H 0.6722 0.6202 0.8785
N6_9 N 0.76286(23) 0.62010(16) 0.7058(3)
N7_9 N 0.72854(22) 0.61996(15) 0.7602(3)
N8_9 N 0.97660(27) 0.7900(2) 0.6370(3)
N9_7 N 0.85183(23) 0.72982(16) 0.7375(3)
C13_9 C 0.9284(3) 0.7604(2) 0.6652(4)
C14_9 C 0.6865(3) 0.5745(2) 0.7527(4)
C15_7 C 0.8998(3) 0.7708(2) 0.7258(4)
C16_7 C 0.7504(4) 0.5181(3) 0.5656(5)
H9_7 H 0.7170 0.4909 0.5737
C17_7 C 0.7824(4) 0.5124(3) 0.5112(5)
H10_7 H 0.7715 0.4813 0.4837
C18_7 C 0.8306(4) 0.5535(3) 0.4985(5)
H11_7 H 0.8532 0.5510 0.4617
C19_7 C 0.8453(3) 0.5983(2) 0.5404(4)
H12_7 H 0.8778 0.6264 0.5301
C20_9 C 0.6404(3) 0.5600(2) 0.8041(4)
C21_9 C 0.5948(4) 0.5168(3) 0.7916(5)
C22_9 C 0.5551(4) 0.5024(3) 0.8458(4)
H16_9 H 0.9944 0.7132 0.4549
Fe1_5 Fe 0.0001 0.5000 0.0000
Fe1_6 Fe 0.4999 0.9999 0.0000
N4_8 N 0.06315(16) 0.54465(16) 0.9292(3)
C3_8 C 0.1041(2) 0.5376(2) 0.9409(4)
C16_8 C 0.1486(3) 0.5657(2) 0.8989(5)
H9_8 H 0.1758 0.5595 0.9070
C17_8 C 0.1543(3) 0.6034(3) 0.8445(5)
H10_8 H 0.1854 0.6236 0.8170
C18_8 C 0.1132(3) 0.6105(3) 0.8318(5)
H11_8 H 0.1157 0.6356 0.7950
C19_8 C 0.0684(2) 0.5804(2) 0.8737(4)
H12_8 H 0.0403 0.5848 0.8634
Fe1_7 Fe 0.0001 0.5000 1.0000
Fe1_8 Fe 0.9999 0.5000 0.0000
C4_8 C 0.8514(3) 0.4343(2) 0.1011(5)
H1_8 H 0.8242 0.4405 0.0930
C5_8 C 0.8457(3) 0.3966(3) 0.1555(5)
H2_8 H 0.8146 0.3764 0.1830
C6_8 C 0.8868(3) 0.3895(3) 0.1682(5)
H3_8 H 0.8843 0.3644 0.2050
C7_8 C 0.9316(2) 0.4196(2) 0.1263(4)
H4_8 H 0.9597 0.4152 0.1366
N9_8 N 0.93685(16) 0.45535(16) 0.0708(3)
C15_8 C 0.8959(2) 0.4624(2) 0.0591(4)
Fe1_9 Fe 0.5001 0.0001 0.0000
C4_9 C 0.5829(4) 0.1486(3) 0.1011(5)
H1_9 H 0.6163 0.1758 0.0930
C5_9 C 0.5509(4) 0.1543(3) 0.1555(5)
H2_9 H 0.5618 0.1854 0.1830
C6_9 C 0.5027(4) 0.1132(3) 0.1682(5)
H3_9 H 0.4801 0.1157 0.2050
C7_9 C 0.4880(3) 0.0684(2) 0.1263(4)
H4_9 H 0.4555 0.0403 0.1366
N9_9 N 0.51850(23) 0.06315(16) 0.0708(3)
C15_9 C 0.5665(3) 0.1041(2) 0.0591(4)
N4_9 N 0.48150(23) 0.93685(16) 0.9292(3)
C3_9 C 0.4335(3) 0.8959(2) 0.9409(4)
C16_9 C 0.4171(4) 0.8514(3) 0.8989(5)
H9_9 H 0.3837 0.8242 0.9070
C17_9 C 0.4491(4) 0.8457(3) 0.8445(5)
H10_9 H 0.4382 0.8146 0.8170
C18_9 C 0.4973(4) 0.8868(3) 0.8318(5)
H11_9 H 0.5199 0.8843 0.7950
C19_9 C 0.5120(3) 0.9316(2) 0.8737(4)
H12_9 H 0.5445 0.9597 0.8634
Fe1_10 Fe 0.4999 0.9999 1.0000
N3_10 N 0.48003(18) 0.1233(2) 0.4703(3)
N4_10 N 0.54465(16) 0.06315(16) 0.5708(3)
C1_10 C 0.4986(2) 0.0937(2) 0.4985(4)
C3_10 C 0.5376(2) 0.1041(2) 0.5591(4)
H5_10 H 0.4273 0.1703 0.4214
H6_10 H 0.3863 0.1950 0.3317
C11_10 C 0.3623(2) 0.0948(3) 0.2453(4)
H7_10 H 0.3450 0.0742 0.2000
C12_10 C 0.3872(2) 0.0780(3) 0.2979(5)
H8_10 H 0.3854 0.0465 0.2882
Fe3_4 Fe 0.3334 0.1668 0.1667
N6_10 N 0.47610(16) 0.04657(16) 0.4609(3)
N7_10 N 0.44192(16) 0.04671(15) 0.4065(3)
N10_7 N 0.55643(23) 0.02824(15) 0.4118(3)
N12_7 N 0.36157(15) 0.13847(17) 0.2549(3)
C14_10 C 0.4454(2) 0.0922(2) 0.4140(4)
C16_10 C 0.5657(2) 0.1486(3) 0.6011(5)
H9_10 H 0.5595 0.1758 0.5930
C17_10 C 0.6034(3) 0.1543(3) 0.6555(5)
H10_10 H 0.6236 0.1854 0.6830
C18_10 C 0.6105(3) 0.1132(3) 0.6682(5)
H11_10 H 0.6356 0.1157 0.7050
C19_10 C 0.5804(2) 0.0684(2) 0.6263(4)
H12_10 H 0.5848 0.0403 0.6366
C20_10 C 0.4138(2) 0.1067(2) 0.3626(4)
C21_10 C 0.4114(3) 0.1499(3) 0.3751(5)
C22_10 C 0.3861(2) 0.1643(3) 0.3209(4)
Fe1_11 Fe 0.5000 0.9999 0.5000
N1_10 N 0.52390(16) 0.95343(16) 0.5391(3)
N2_10 N 0.55808(16) 0.95329(15) 0.5935(3)
N5_4 N 0.63843(15) 0.86153(17) 0.7451(3)
C2_10 C 0.5546(2) 0.9078(2) 0.5860(4)
C4_10 C 0.4343(2) 0.8514(3) 0.3989(5)
H1_10 H 0.4405 0.8242 0.4070
C5_10 C 0.3966(3) 0.8457(3) 0.3445(5)
H2_10 H 0.3764 0.8146 0.3170
C6_10 C 0.3895(3) 0.8868(3) 0.3318(5)
H3_10 H 0.3644 0.8843 0.2950
C7_10 C 0.4196(2) 0.9316(2) 0.3737(4)
H4_10 H 0.4152 0.9597 0.3634
C8_10 C 0.5862(2) 0.8933(2) 0.6374(4)
C9_10 C 0.5886(3) 0.8501(3) 0.6249(5)
C10_10 C 0.6139(2) 0.8357(3) 0.6791(4)
Fe2_4 Fe 0.6668 0.8334 0.8333
N8_10 N 0.51997(18) 0.8767(2) 0.5297(3)
N9_10 N 0.45535(16) 0.93685(16) 0.4292(3)
N11_4 N 0.44357(23) 0.97176(15) 0.5882(3)
C13_10 C 0.5014(2) 0.9063(2) 0.5015(4)
C15_10 C 0.4624(2) 0.8959(2) 0.4409(4)
H13_10 H 0.5727 0.8297 0.5786
H14_10 H 0.6137 0.8050 0.6683
C23_10 C 0.6377(2) 0.9052(3) 0.7547(4)
H15_10 H 0.6550 0.9258 0.8000
C24_10 C 0.6128(2) 0.9220(3) 0.7021(5)
H16_10 H 0.6146 0.9535 0.7118
Fe1_12 Fe 0.4999 0.5000 0.5000
N1_11 N 0.42953(23) 0.47610(16) 0.5391(3)
N2_11 N 0.39521(22) 0.44192(16) 0.5935(3)
N3_11 N 0.64327(27) 0.51997(18) 0.4703(3)
N4_11 N 0.51850(23) 0.45535(16) 0.5708(3)
N5_5 N 0.22310(23) 0.36157(15) 0.7451(3)
C1_11 C 0.5951(3) 0.5014(2) 0.4985(4)
C2_11 C 0.3532(3) 0.4454(2) 0.5860(4)
C3_11 C 0.5665(3) 0.4624(2) 0.5591(4)
C4_11 C 0.4171(4) 0.5657(2) 0.3989(5)
H1_11 H 0.3837 0.5595 0.4070
C5_11 C 0.4491(4) 0.6034(3) 0.3445(5)
H2_11 H 0.4382 0.6236 0.3170
C6_11 C 0.4973(4) 0.6105(3) 0.3318(5)
H3_11 H 0.5199 0.6356 0.2950
C7_11 C 0.5120(3) 0.5804(2) 0.3737(4)
H4_11 H 0.5445 0.5848 0.3634
C8_11 C 0.3071(3) 0.4138(2) 0.6374(4)
C9_11 C 0.2615(4) 0.4114(3) 0.6249(5)
H5_11 H 0.7430 0.5727 0.4214
C10_11 C 0.2218(4) 0.3861(2) 0.6791(4)
H6_11 H 0.8087 0.6137 0.3317
C11_11 C 0.7325(4) 0.6377(2) 0.2453(4)
H7_11 H 0.7292 0.6550 0.2000
C12_11 C 0.6908(4) 0.6128(2) 0.2979(5)
H8_11 H 0.6611 0.6146 0.2882
Fe2_5 Fe 0.1667 0.3332 0.8333
Fe3_5 Fe 0.8333 0.6666 0.1667
N6_11 N 0.57047(23) 0.52390(16) 0.4609(3)
N7_11 N 0.60479(22) 0.55808(16) 0.4065(3)
N8_11 N 0.35673(27) 0.48003(18) 0.5297(3)
N9_11 N 0.48150(23) 0.54465(16) 0.4292(3)
N10_8 N 0.47180(27) 0.44357(23) 0.4118(3)
N11_5 N 0.52820(27) 0.55643(23) 0.5882(3)
N12_8 N 0.77690(23) 0.63843(15) 0.2549(3)
C13_11 C 0.4049(3) 0.4986(2) 0.5015(4)
C14_11 C 0.6468(3) 0.5546(2) 0.4140(4)
C15_11 C 0.4335(3) 0.5376(2) 0.4409(4)
C16_11 C 0.5829(4) 0.4343(2) 0.6011(5)
H9_11 H 0.6163 0.4405 0.5930
C17_11 C 0.5509(4) 0.3966(3) 0.6555(5)
H10_11 H 0.5618 0.3764 0.6830
C18_11 C 0.5027(4) 0.3895(3) 0.6682(5)
H11_11 H 0.4801 0.3644 0.7050
C19_11 C 0.4880(3) 0.4196(2) 0.6263(4)
H12_11 H 0.4555 0.4152 0.6366
C20_11 C 0.6929(3) 0.5862(2) 0.3626(4)
C21_11 C 0.7385(4) 0.5886(3) 0.3751(5)
H13_11 H 0.2570 0.4273 0.5786
C22_11 C 0.7782(4) 0.6139(2) 0.3209(4)
H14_11 H 0.1913 0.3863 0.6683
C23_11 C 0.2675(4) 0.3623(2) 0.7547(4)
H15_11 H 0.2708 0.3450 0.8000
C24_11 C 0.3092(4) 0.3872(2) 0.7021(5)
H16_11 H 0.3389 0.3854 0.7118
Fe1_13 Fe 0.0001 0.5001 0.5000
N1_12 N 0.04657(16) 0.57047(23) 0.5391(3)
N2_12 N 0.04671(15) 0.60479(22) 0.5935(3)
N5_6 N 0.13847(17) 0.77690(23) 0.7451(3)
C2_12 C 0.0922(2) 0.6468(3) 0.5860(4)
C4_12 C 0.1486(3) 0.5829(4) 0.3989(5)
H1_12 H 0.1758 0.6163 0.4070
C5_12 C 0.1543(3) 0.5509(4) 0.3445(5)
H2_12 H 0.1854 0.5618 0.3170
C6_12 C 0.1132(3) 0.5027(4) 0.3318(5)
H3_12 H 0.1157 0.4801 0.2950
C7_12 C 0.0684(2) 0.4880(3) 0.3737(4)
H4_12 H 0.0403 0.4555 0.3634
C8_12 C 0.1067(2) 0.6929(3) 0.6374(4)
C9_12 C 0.1499(3) 0.7385(4) 0.6249(5)
C10_12 C 0.1643(3) 0.7782(4) 0.6791(4)
Fe2_6 Fe 0.1666 0.8333 0.8333
N8_12 N 0.1233(2) 0.64327(27) 0.5297(3)
N9_12 N 0.06315(16) 0.51850(23) 0.4292(3)
N11_6 N 0.02824(15) 0.47180(27) 0.5882(3)
C13_12 C 0.0937(2) 0.5951(3) 0.5015(4)
C15_12 C 0.1041(2) 0.5665(3) 0.4409(4)
H13_12 H 0.1703 0.7430 0.5786
H14_12 H 0.1950 0.8087 0.6683
C23_12 C 0.0948(3) 0.7325(4) 0.7547(4)
H15_12 H 0.0742 0.7292 0.8000
C24_12 C 0.0780(3) 0.6908(4) 0.7021(5)
H16_12 H 0.0465 0.6611 0.7118
N3_12 N 0.8767(2) 0.35673(27) 0.4703(3)
N4_12 N 0.93685(16) 0.48150(23) 0.5708(3)
C1_12 C 0.9063(2) 0.4049(3) 0.4985(4)
C3_12 C 0.8959(2) 0.4335(3) 0.5591(4)
H5_12 H 0.8297 0.2570 0.4214
H6_12 H 0.8050 0.1913 0.3317
C11_12 C 0.9052(3) 0.2675(4) 0.2453(4)
H7_12 H 0.9258 0.2708 0.2000
C12_12 C 0.9220(3) 0.3092(4) 0.2979(5)
H8_12 H 0.9535 0.3389 0.2882
Fe3_6 Fe 0.8332 0.1667 0.1667
N6_12 N 0.95343(16) 0.42953(23) 0.4609(3)
N7_12 N 0.95329(15) 0.39521(22) 0.4065(3)
N10_9 N 0.97176(15) 0.52820(27) 0.4118(3)
N12_9 N 0.86153(17) 0.22310(23) 0.2549(3)
C14_12 C 0.9078(2) 0.3532(3) 0.4140(4)
C16_12 C 0.8514(3) 0.4171(4) 0.6011(5)
H9_12 H 0.8242 0.3837 0.5930
C17_12 C 0.8457(3) 0.4491(4) 0.6555(5)
H10_12 H 0.8146 0.4382 0.6830
C18_12 C 0.8868(3) 0.4973(4) 0.6682(5)
H11_12 H 0.8843 0.5199 0.7050
C19_12 C 0.9316(2) 0.5120(3) 0.6263(4)
H12_12 H 0.9597 0.5445 0.6366
C20_12 C 0.8933(2) 0.3071(3) 0.3626(4)
C21_12 C 0.8501(3) 0.2615(4) 0.3751(5)
C22_12 C 0.8357(3) 0.2218(4) 0.3209(4)
N5_7 N 0.30510(15) 0.19486(17) 0.0784(3)
C10_13 C 0.2806(2) 0.1690(3) 0.0124(4)
H10_13 H 0.2903 0.5187 0.0163
C18_13 C 0.2772(3) 0.4465(3) 0.0015(5)
H11_13 H 0.3023 0.4490 0.0383
H14_13 H 0.2804 0.1383 0.0016
C23_13 C 0.3044(2) 0.2385(3) 0.0880(4)
H15_13 H 0.3217 0.2591 0.1333
C24_13 C 0.2795(2) 0.2553(3) 0.0354(5)
H16_13 H 0.2813 0.2868 0.0451
N1_13 N 0.19057(16) 0.28676(16) 0.8724(3)
N2_13 N 0.22475(16) 0.28662(15) 0.9268(3)
N3_13 N 0.14670(18) 0.4566(2) 0.8036(3)
N4_13 N 0.21132(16) 0.39648(16) 0.9041(3)
C1_13 C 0.1653(2) 0.4270(2) 0.8318(4)
C2_13 C 0.2213(2) 0.2411(2) 0.9193(4)
C3_13 C 0.2043(2) 0.4374(2) 0.8924(4)
C4_13 C 0.1010(2) 0.1847(3) 0.7322(5)
H1_13 H 0.1072 0.1575 0.7403
C5_13 C 0.0633(3) 0.1790(3) 0.6778(5)
H2_13 H 0.0431 0.1479 0.6503
C6_13 C 0.0562(3) 0.2201(3) 0.6651(5)
H3_13 H 0.0311 0.2176 0.6283
C7_13 C 0.0863(2) 0.2649(2) 0.7070(4)
H4_13 H 0.0819 0.2930 0.6967
C8_13 C 0.2529(2) 0.2266(2) 0.9707(4)
C9_13 C 0.2553(3) 0.1834(3) 0.9582(5)
H5_13 H 0.0940 0.5036 0.7547
H6_13 H 0.0530 0.5283 0.6650
C11_13 C 0.0290(2) 0.4281(3) 0.5786(4)
H7_13 H 0.0117 0.4075 0.5333
C12_13 C 0.0539(2) 0.4113(3) 0.6312(5)
H8_13 H 0.0521 0.3798 0.6215
N6_13 N 0.14277(16) 0.37990(16) 0.7942(3)
N7_13 N 0.10859(16) 0.38004(15) 0.7398(3)
N8_13 N 0.18664(18) 0.2100(2) 0.8630(3)
N9_13 N 0.12202(16) 0.27018(16) 0.7625(3)
N11_7 N 0.11023(23) 0.30510(15) 0.9216(3)
C13_13 C 0.1681(2) 0.2396(2) 0.8348(4)
C14_13 C 0.1121(2) 0.4255(2) 0.7473(4)
C15_13 C 0.1291(2) 0.2292(2) 0.7742(4)
C16_13 C 0.2324(2) 0.4819(3) 0.9344(5)
H9_13 H 0.2262 0.5091 0.9263
C17_13 C 0.2701(3) 0.4876(3) 0.9888(5)
C19_13 C 0.2471(2) 0.4017(2) 0.9596(4)
H12_13 H 0.2515 0.3736 0.9699
C20_13 C 0.0805(2) 0.4400(2) 0.6959(4)
C21_13 C 0.0781(3) 0.4832(3) 0.7084(5)
H13_13 H 0.2394 0.1630 0.9119
C22_13 C 0.0528(2) 0.4976(3) 0.6542(4)
N1_14 N 0.09620(23) 0.80943(16) 0.8724(3)
N2_14 N 0.06188(22) 0.77525(16) 0.9268(3)
N3_14 N 0.30994(27) 0.85330(18) 0.8036(3)
N4_14 N 0.18517(23) 0.78868(16) 0.9041(3)
C1_14 C 0.2618(3) 0.8347(2) 0.8318(4)
C2_14 C 0.0199(3) 0.7787(2) 0.9193(4)
C3_14 C 0.2332(3) 0.7957(2) 0.8924(4)
C4_14 C 0.0838(4) 0.8990(2) 0.7322(5)
H1_14 H 0.0504 0.8928 0.7403
C5_14 C 0.1158(4) 0.9367(3) 0.6778(5)
H2_14 H 0.1049 0.9569 0.6503
C6_14 C 0.1640(4) 0.9438(3) 0.6651(5)
H3_14 H 0.1866 0.9689 0.6283
C7_14 C 0.1787(3) 0.9137(2) 0.7070(4)
H4_14 H 0.2112 0.9181 0.6967
H5_14 H 0.4097 0.9060 0.7547
H6_14 H 0.4754 0.9470 0.6650
C11_14 C 0.3992(4) 0.9710(2) 0.5786(4)
H7_14 H 0.3959 0.9883 0.5333
C12_14 C 0.3575(4) 0.9461(2) 0.6312(5)
H8_14 H 0.3278 0.9479 0.6215
N6_14 N 0.23714(23) 0.85723(16) 0.7942(3)
N7_14 N 0.27146(22) 0.89141(16) 0.7398(3)
N8_14 N 0.02340(27) 0.81336(18) 0.8630(3)
N9_14 N 0.14817(23) 0.87798(16) 0.7625(3)
N11_8 N 0.19486(27) 0.88977(23) 0.9216(3)
C13_14 C 0.0716(3) 0.8319(2) 0.8348(4)
C14_14 C 0.3135(3) 0.8879(2) 0.7473(4)
C15_14 C 0.1002(3) 0.8709(2) 0.7742(4)
C16_14 C 0.2496(4) 0.7676(2) 0.9344(5)
H9_14 H 0.2830 0.7738 0.9263
C17_14 C 0.2176(4) 0.7299(3) 0.9888(5)
C19_14 C 0.1547(3) 0.7529(2) 0.9596(4)
H12_14 H 0.1222 0.7485 0.9699
C20_14 C 0.3596(3) 0.9195(2) 0.6959(4)
C21_14 C 0.4052(4) 0.9219(3) 0.7084(5)
C22_14 C 0.4449(4) 0.9472(2) 0.6542(4)
N5_8 N 0.88977(23) 0.69490(15) 0.0784(3)
C10_14 C 0.8885(4) 0.7194(2) 0.0124(4)
H14_14 H 0.8580 0.7196 0.0016
C23_14 C 0.9342(4) 0.6956(2) 0.0880(4)
H15_14 H 0.9375 0.6783 0.1333
C24_14 C 0.9759(4) 0.7205(2) 0.0354(5)
N5_9 N 0.80514(17) 0.11023(23) 0.0784(3)
C10_15 C 0.8310(3) 0.1115(4) 0.0124(4)
H14_15 H 0.8617 0.1420 0.0016
C23_15 C 0.7615(3) 0.0658(4) 0.0880(4)
H15_15 H 0.7409 0.0625 0.1333
C24_15 C 0.7447(3) 0.0241(4) 0.0354(5)
N1_15 N 0.71324(16) 0.90380(23) 0.8724(3)
N2_15 N 0.71338(15) 0.93812(22) 0.9268(3)
N3_15 N 0.5434(2) 0.69006(27) 0.8036(3)
N4_15 N 0.60352(16) 0.81483(23) 0.9041(3)
C1_15 C 0.5730(2) 0.7382(3) 0.8318(4)
C2_15 C 0.7589(2) 0.9801(3) 0.9193(4)
C3_15 C 0.5626(2) 0.7668(3) 0.8924(4)
C4_15 C 0.8153(3) 0.9162(4) 0.7322(5)
H1_15 H 0.8425 0.9496 0.7403
C5_15 C 0.8210(3) 0.8842(4) 0.6778(5)
H2_15 H 0.8521 0.8951 0.6503
C6_15 C 0.7799(3) 0.8360(4) 0.6651(5)
H3_15 H 0.7824 0.8134 0.6283
C7_15 C 0.7351(2) 0.8213(3) 0.7070(4)
H4_15 H 0.7070 0.7888 0.6967
H5_15 H 0.4964 0.5903 0.7547
H6_15 H 0.4717 0.5246 0.6650
C11_15 C 0.5719(3) 0.6008(4) 0.5786(4)
H7_15 H 0.5925 0.6041 0.5333
C12_15 C 0.5887(3) 0.6425(4) 0.6312(5)
H8_15 H 0.6202 0.6722 0.6215
N6_15 N 0.62010(16) 0.76286(23) 0.7942(3)
N7_15 N 0.61996(15) 0.72854(22) 0.7398(3)
N8_15 N 0.7900(2) 0.97660(27) 0.8630(3)
N9_15 N 0.72982(16) 0.85183(23) 0.7625(3)
N11_9 N 0.69490(15) 0.80514(27) 0.9216(3)
C13_15 C 0.7604(2) 0.9284(3) 0.8348(4)
C14_15 C 0.5745(2) 0.6865(3) 0.7473(4)
C15_15 C 0.7708(2) 0.8998(3) 0.7742(4)
C16_15 C 0.5181(3) 0.7504(4) 0.9344(5)
H9_15 H 0.4909 0.7170 0.9263
C17_15 C 0.5124(3) 0.7824(4) 0.9888(5)
C19_15 C 0.5983(2) 0.8453(3) 0.9596(4)
H12_15 H 0.6264 0.8778 0.9699
C20_15 C 0.5600(2) 0.6404(3) 0.6959(4)
C21_15 C 0.5168(3) 0.5948(4) 0.7084(5)
C22_15 C 0.5024(3) 0.5551(4) 0.6542(4)
N1_16 N 0.85723(16) 0.62010(16) 0.2058(3)
N2_16 N 0.89141(16) 0.61996(15) 0.2602(3)
N3_16 N 0.81336(18) 0.7900(2) 0.1370(3)
N4_16 N 0.87798(16) 0.72982(16) 0.2375(3)
C1_16 C 0.8319(2) 0.7604(2) 0.1652(4)
C2_16 C 0.8879(2) 0.5745(2) 0.2527(4)
C3_16 C 0.8709(2) 0.7708(2) 0.2258(4)
C4_16 C 0.7676(2) 0.5181(3) 0.0656(5)
H1_16 H 0.7738 0.4909 0.0737
C5_16 C 0.7299(3) 0.5124(3) 0.0112(5)
C7_16 C 0.7529(2) 0.5983(2) 0.0404(4)
H4_16 H 0.7485 0.6264 0.0301
C8_14 C 0.9195(2) 0.5600(2) 0.3041(4)
C9_14 C 0.9219(3) 0.5168(3) 0.2916(5)
H5_16 H 0.7606 0.8370 0.0881
C10_16 C 0.9472(2) 0.5024(3) 0.3458(4)
N6_16 N 0.80943(16) 0.71324(16) 0.1276(3)
N7_16 N 0.77525(16) 0.71338(15) 0.0732(3)
N8_16 N 0.85330(18) 0.5434(2) 0.1964(3)
N9_16 N 0.78868(16) 0.60352(16) 0.0959(3)
C13_16 C 0.8347(2) 0.5730(2) 0.1682(4)
C14_16 C 0.7787(2) 0.7589(2) 0.0807(4)
C15_16 C 0.7957(2) 0.5626(2) 0.1076(4)
C16_16 C 0.8990(2) 0.8153(3) 0.2678(5)
H9_16 H 0.8928 0.8425 0.2597
C17_16 C 0.9367(3) 0.8210(3) 0.3222(5)
H10_14 H 0.9569 0.8521 0.3497
C18_14 C 0.9438(3) 0.7799(3) 0.3349(5)
H11_14 H 0.9689 0.7824 0.3717
C19_16 C 0.9137(2) 0.7351(2) 0.2930(4)
H12_16 H 0.9181 0.7070 0.3033
C20_16 C 0.7471(2) 0.7734(2) 0.0293(4)
C21_16 C 0.7447(3) 0.8166(3) 0.0418(5)
H13_14 H 0.9060 0.4964 0.2453
H14_16 H 0.9470 0.4717 0.3350
C23_16 C 0.9710(2) 0.5719(3) 0.4214(4)
H15_16 H 0.9883 0.5925 0.4667
C24_16 C 0.9461(2) 0.5887(3) 0.3688(5)
H16_14 H 0.9479 0.6202 0.3785
H2_16 H 0.7097 0.4813 0.9837
C6_16 C 0.7228(3) 0.5535(3) 0.9985(5)
H3_16 H 0.6977 0.5510 0.9617
H6_16 H 0.7196 0.8617 0.9984
C11_16 C 0.6956(2) 0.7615(3) 0.9120(4)
H7_16 H 0.6783 0.7409 0.8667
C12_16 C 0.7205(2) 0.7447(3) 0.9646(5)
H8_16 H 0.7187 0.7132 0.9549
C22_16 C 0.7194(2) 0.8310(3) 0.9876(4)
H6_17 H 0.1420 0.2804 0.9984
C11_17 C 0.0658(4) 0.3044(2) 0.9120(4)
H7_17 H 0.0625 0.3217 0.8667
C12_17 C 0.0241(4) 0.2795(2) 0.9646(5)
C22_17 C 0.1115(4) 0.2806(2) 0.9876(4)
N1_17 N 0.76286(23) 0.14277(16) 0.2058(3)
N2_17 N 0.72854(22) 0.10859(16) 0.2602(3)
N3_17 N 0.97660(27) 0.18664(18) 0.1370(3)
N4_17 N 0.85183(23) 0.12202(16) 0.2375(3)
C1_17 C 0.9284(3) 0.1681(2) 0.1652(4)
C2_17 C 0.6865(3) 0.1121(2) 0.2527(4)
C3_17 C 0.8998(3) 0.1291(2) 0.2258(4)
C4_17 C 0.7504(4) 0.2324(2) 0.0656(5)
H1_17 H 0.7170 0.2262 0.0737
C5_17 C 0.7824(4) 0.2701(3) 0.0112(5)
C7_17 C 0.8453(3) 0.2471(2) 0.0404(4)
H4_17 H 0.8778 0.2515 0.0301
C8_15 C 0.6404(3) 0.0805(2) 0.3041(4)
C9_15 C 0.5948(4) 0.0781(3) 0.2916(5)
C10_17 C 0.5551(4) 0.0528(2) 0.3458(4)
N6_17 N 0.90380(23) 0.19057(16) 0.1276(3)
N7_17 N 0.93812(22) 0.22475(16) 0.0732(3)
N8_17 N 0.69006(27) 0.14670(18) 0.1964(3)
N9_17 N 0.81483(23) 0.21132(16) 0.0959(3)
C13_17 C 0.7382(3) 0.1653(2) 0.1682(4)
C14_17 C 0.9801(3) 0.2213(2) 0.0807(4)
C15_17 C 0.7668(3) 0.2043(2) 0.1076(4)
C16_17 C 0.9162(4) 0.1010(2) 0.2678(5)
H9_17 H 0.9496 0.1072 0.2597
C17_17 C 0.8842(4) 0.0633(3) 0.3222(5)
H10_15 H 0.8951 0.0431 0.3497
C18_15 C 0.8360(4) 0.0562(3) 0.3349(5)
H11_15 H 0.8134 0.0311 0.3717
C19_17 C 0.8213(3) 0.0863(2) 0.2930(4)
H12_17 H 0.7888 0.0819 0.3033
H13_15 H 0.5903 0.0940 0.2453
H14_17 H 0.5246 0.0530 0.3350
C23_17 C 0.6008(4) 0.0290(2) 0.4214(4)
H15_17 H 0.6041 0.0117 0.4667
C24_17 C 0.6425(4) 0.0539(2) 0.3688(5)
H16_15 H 0.6722 0.0521 0.3785
N1_18 N 0.37990(16) 0.23714(23) 0.2058(3)
N2_18 N 0.38004(15) 0.27146(22) 0.2602(3)
N3_18 N 0.2100(2) 0.02340(27) 0.1370(3)
N4_18 N 0.27018(16) 0.14817(23) 0.2375(3)
C1_18 C 0.2396(2) 0.0716(3) 0.1652(4)
C2_18 C 0.4255(2) 0.3135(3) 0.2527(4)
C3_18 C 0.2292(2) 0.1002(3) 0.2258(4)
C4_18 C 0.4819(3) 0.2496(4) 0.0656(5)
H1_18 H 0.5091 0.2830 0.0737
C5_18 C 0.4876(3) 0.2176(4) 0.0112(5)
C7_18 C 0.4017(2) 0.1547(3) 0.0404(4)
H4_18 H 0.3736 0.1222 0.0301
C8_16 C 0.4400(2) 0.3596(3) 0.3041(4)
C9_16 C 0.4832(3) 0.4052(4) 0.2916(5)
C10_18 C 0.4976(3) 0.4449(4) 0.3458(4)
N6_18 N 0.28676(16) 0.09620(23) 0.1276(3)
N7_18 N 0.28662(15) 0.06188(22) 0.0732(3)
N8_18 N 0.4566(2) 0.30994(27) 0.1964(3)
N9_18 N 0.39648(16) 0.18517(23) 0.0959(3)
C13_18 C 0.4270(2) 0.2618(3) 0.1682(4)
C14_18 C 0.2411(2) 0.0199(3) 0.0807(4)
C15_18 C 0.4374(2) 0.2332(3) 0.1076(4)
C16_18 C 0.1847(3) 0.0838(4) 0.2678(5)
H9_18 H 0.1575 0.0504 0.2597
C17_18 C 0.1790(3) 0.1158(4) 0.3222(5)
H10_16 H 0.1479 0.1049 0.3497
C18_16 C 0.2201(3) 0.1640(4) 0.3349(5)
H11_16 H 0.2176 0.1866 0.3717
C19_18 C 0.2649(2) 0.1787(3) 0.2930(4)
H12_18 H 0.2930 0.2112 0.3033
H13_16 H 0.5036 0.4097 0.2453
H14_18 H 0.5283 0.4754 0.3350
C23_18 C 0.4281(3) 0.3992(4) 0.4214(4)
H15_18 H 0.4075 0.3959 0.4667
C24_18 C 0.4113(3) 0.3575(4) 0.3688(5)
H16_16 H 0.3798 0.3278 0.3785
H6_18 H 0.1383 0.8580 0.9984
C11_18 C 0.2385(3) 0.9342(4) 0.9120(4)
H7_18 H 0.2591 0.9375 0.8667
C12_18 C 0.2553(3) 0.9759(4) 0.9646(5)
C22_18 C 0.1690(3) 0.8885(4) 0.9876(4)
Fe1_14 Fe 0.5000 0.0001 0.5000
Fe1_15 Fe 0.9999 0.4999 0.5000
H10_17 H 0.2285 0.7097 0.0163
C18_17 C 0.1694(4) 0.7228(3) 0.0015(5)
H11_17 H 0.1468 0.6977 0.0383
H16_17 H 0.0056 0.7187 0.0451
C8_17 C 0.9738(3) 0.7471(2) 0.9707(4)
C9_17 C 0.9282(4) 0.7447(3) 0.9582(5)
H13_17 H 0.9237 0.7606 0.9119
C8_18 C 0.7734(2) 0.0262(3) 0.9707(4)
C9_18 C 0.8166(3) 0.0718(4) 0.9582(5)
H13_18 H 0.8370 0.0763 0.9119
H10_18 H 0.4813 0.7715 0.0163
C18_18 C 0.5535(3) 0.8306(4) 0.0015(5)
H11_18 H 0.5510 0.8532 0.0383
H16_18 H 0.7132 0.9944 0.0451
H5_17 H 0.0763 0.2394 0.0881
C20_17 C 0.0262(3) 0.2529(2) 0.0293(4)
C21_17 C 0.0718(4) 0.2553(3) 0.0418(5)
H2_17 H 0.7715 0.2903 0.9837
C6_17 C 0.8306(4) 0.2772(3) 0.9985(5)
H3_17 H 0.8532 0.3023 0.9617
H8_17 H 0.9944 0.2813 0.9549
H2_18 H 0.5187 0.2285 0.9837
C6_18 C 0.4465(3) 0.1694(4) 0.9985(5)
H3_18 H 0.4490 0.1468 0.9617
H8_18 H 0.2868 0.0056 0.9549
H5_18 H 0.1630 0.9237 0.0881
C20_18 C 0.2266(2) 0.9738(3) 0.0293(4)
C21_18 C 0.1834(3) 0.9282(4) 0.0418(5)
loop_
_geom_bond_atom_site_label_1
_geom_bond_atom_site_label_2
_geom_bond_site_symmetry_1
_geom_bond_site_symmetry_2
N3 C1 1_555 1_555
H5 C21 1_555 1_555
H6 C22 1_555 1_555
C11 H7 1_555 1_555
C12 C11 1_555 1_555
H8 C12 1_555 1_555
Fe3 N12 1_555 1_555
N7 N6 1_555 1_555
N12 C11 1_555 1_555
C14 N3 1_555 1_555
C20 C12 1_555 1_555
C21 C20 1_555 1_555
C22 N12 1_555 1_555
C1 N6 1_555 1_555
N7 C14 1_555 1_555
C14 C20 1_555 1_555
C21 C22 1_555 1_555
Fe1 N1 1_555 1_555
N1 N2 1_555 1_555
N2 C2 1_555 1_555
N5 C10 1_555 1_555
C2 C8 1_555 1_555
C8 C9 1_555 1_555
C9 C10 1_555 1_555
C10 H14 1_555 1_555
Fe2 N5 1_555 1_555
N8 C2 1_555 1_555
N11 Fe1 1_555 1_555
C13 N1 1_555 1_555
H13 C9 1_555 1_555
C23 N5 1_555 1_555
H15 C23 1_555 1_555
C24 C8 1_555 1_555
H16 C24 1_555 1_555
N8 C13 1_555 1_555
C23 C24 1_555 1_555
N3_2 C1_2 1_555 1_555
C4 H1 1_555 1_555
C5 C4 1_555 1_555
H2 C5 1_555 1_555
C6 C5 1_555 1_555
H3 C6 1_555 1_555
C7 C6 1_555 1_555
H4 C7 1_555 1_555
H5_2 C21_2 1_555 1_555
H6_2 C22_2 1_555 1_555
C11_2 H7_2 1_555 1_555
C12_2 C11_2 1_555 1_555
H8_2 C12_2 1_555 1_555
Fe3_2 N12_2 1_555 1_555
N6_2 Fe1_2 1_555 1_555
N7_2 N6_2 1_555 1_555
N9 Fe1_2 1_555 1_555
N10_2 Fe1_2 1_555 1_555
N12_2 C11_2 1_555 1_555
C14_2 N3_2 1_555 1_555
C15 C4 1_555 1_555
C20_2 C12_2 1_555 1_555
C21_2 C20_2 1_555 1_555
C22_2 N12_2 1_555 1_555
C1_2 N6_2 1_555 1_555
C7 N9 1_555 1_555
N7_2 C14_2 1_555 1_555
N9 C15 1_555 1_555
C14_2 C20_2 1_555 1_555
C21_2 C22_2 1_555 1_555
Fe1_3 N1_2 1_555 1_555
N1_2 N2_2 1_555 1_555
N2_2 C2_2 1_555 1_555
N4 Fe1_3 1_555 1_555
N5_2 C10_2 1_555 1_555
C2_2 C8_2 1_555 1_555
C3 N4 1_555 1_555
C8_2 C9_2 1_555 1_555
C9_2 C10_2 1_555 1_555
C10_2 H14_2 1_555 1_555
Fe2_2 N5_2 1_555 1_555
N8_2 C2_2 1_555 1_555
N11_2 Fe1_3 1_555 1_555
C13_2 N1_2 1_555 1_555
C16 C3 1_555 1_555
H9 C16 1_555 1_555
C17 C16 1_555 1_555
H10 C17 1_555 1_555
C18 C17 1_555 1_555
H11 C18 1_555 1_555
C19 N4 1_555 1_555
H12 C19 1_555 1_555
H13_2 C9_2 1_555 1_555
C23_2 N5_2 1_555 1_555
H15_2 C23_2 1_555 1_555
C24_2 C8_2 1_555 1_555
H16_2 C24_2 1_555 1_555
N8_2 C13_2 1_555 1_555
C18 C19 1_555 1_555
C23_2 C24_2 1_555 1_555
Fe1_4 N1_3 1_555 1_555
N1_3 N2_3 1_555 1_555
N2_3 C2_3 1_555 1_555
N5_3 C10_3 1_555 1_555
C2_3 C8_3 1_555 1_555
C8_3 C9_3 1_555 1_555
C9_3 C10_3 1_555 1_555
C10_3 H14_3 1_555 1_555
Fe2_3 N5_3 1_555 1_555
N8_3 C2_3 1_555 1_555
N11_3 Fe1_4 1_555 1_555
C13_3 N1_3 1_555 1_555
H13_3 C9_3 1_555 1_555
C23_3 N5_3 1_555 1_555
H15_3 C23_3 1_555 1_555
C24_3 C8_3 1_555 1_555
H16_3 C24_3 1_555 1_555
N8_3 C13_3 1_555 1_555
C23_3 C24_3 1_555 1_555
N3_3 C1_3 1_555 1_555
H5_3 C21_3 1_555 1_555
H6_3 C22_3 1_555 1_555
C11_3 H7_3 1_555 1_555
C12_3 C11_3 1_555 1_555
H8_3 C12_3 1_555 1_555
Fe3_3 N12_3 1_555 1_555
N7_3 N6_3 1_555 1_555
N12_3 C11_3 1_555 1_555
C14_3 N3_3 1_555 1_555
C20_3 C12_3 1_555 1_555
C21_3 C20_3 1_555 1_555
C22_3 N12_3 1_555 1_555
C1_3 N6_3 1_555 1_555
N7_3 C14_3 1_555 1_555
C14_3 C20_3 1_555 1_555
C21_3 C22_3 1_555 1_555
Fe3_2 N1_4 1_555 1_555
N1_4 N2_4 1_555 1_555
N2_4 C2_4 1_555 1_555
N3_4 C1_4 1_555 1_555
N4_2 Fe3_2 1_555 1_555
N10_3 C10_4 1_555 1_555
C1_4 C3_2 1_555 1_555
C2_4 C8_4 1_555 1_555
C3_2 N4_2 1_555 1_555
C4_2 H1_2 1_555 1_555
C5_2 C4_2 1_555 1_555
H2_2 C5_2 1_555 1_555
C6_2 C5_2 1_555 1_555
H3_2 C6_2 1_555 1_555
C7_2 C6_2 1_555 1_555
H4_2 C7_2 1_555 1_555
C8_4 C9_4 1_555 1_555
C9_4 C10_4 1_555 1_555
H5_4 C21_4 1_555 1_555
C10_4 H14_4 1_555 1_555
H6_4 C22_4 1_555 1_555
C11_4 H7_4 1_555 1_555
C12_4 C11_4 1_555 1_555
H8_4 C12_4 1_555 1_555
Fe2 N12_4 1_555 1_555
N6_4 Fe3_2 1_555 1_555
N7_4 N6_4 1_555 1_555
N8_4 C2_4 1_555 1_555
N9_2 Fe3_2 1_555 1_555
N10_4 Fe3_2 1_555 1_555
N12_4 C11_4 1_555 1_555
C13_4 N1_4 1_555 1_555
C14_4 N3_4 1_555 1_555
C15_2 C4_2 1_555 1_555
C16_2 C3_2 1_555 1_555
H9_2 C16_2 1_555 1_555
C17_2 C16_2 1_555 1_555
H10_2 C17_2 1_555 1_555
C18_2 C17_2 1_555 1_555
H11_2 C18_2 1_555 1_555
C19_2 N4_2 1_555 1_555
H12_2 C19_2 1_555 1_555
C20_4 C12_4 1_555 1_555
C21_4 C20_4 1_555 1_555
H13_4 C9_4 1_555 1_555
C22_4 N12_4 1_555 1_555
C23_4 N10_3 1_555 1_555
H15_4 C23_4 1_555 1_555
C24_4 C8_4 1_555 1_555
H16_4 C24_4 1_555 1_555
C1_4 N6_4 1_555 1_555
C7_2 N9_2 1_555 1_555
N7_4 C14_4 1_555 1_555
N8_4 C13_4 1_555 1_555
N9_2 C15_2 1_555 1_555
C13_4 C15_2 1_555 1_555
C14_4 C20_4 1_555 1_555
C18_2 C19_2 1_555 1_555
C21_4 C22_4 1_555 1_555
C23_4 C24_4 1_555 1_555
H5_5 C21_5 1_555 1_555
H6_5 C22_5 1_555 1_555
C11_5 H7_5 1_555 1_555
C12_5 C11_5 1_555 1_555
Fe2_2 N12_5 1_555 1_555
N12_5 C11_5 1_555 1_555
C20_5 C12_5 1_555 1_555
C21_5 C20_5 1_555 1_555
C22_5 N12_5 1_555 1_555
C21_5 C22_5 1_555 1_555
Fe3_3 N1_5 1_555 1_555
N1_5 N2_5 1_555 1_555
N2_5 C2_5 1_555 1_555
N3_5 C1_5 1_555 1_555
N4_3 Fe3_3 1_555 1_555
N10 C10_5 1_555 1_555
C1_5 C3_3 1_555 1_555
C2_5 C8_5 1_555 1_555
C3_3 N4_3 1_555 1_555
C4_3 H1_3 1_555 1_555
C5_3 C4_3 1_555 1_555
H2_3 C5_3 1_555 1_555
C6_3 C5_3 1_555 1_555
H3_3 C6_3 1_555 1_555
C7_3 C6_3 1_555 1_555
H4_3 C7_3 1_555 1_555
C8_5 C9_5 1_555 1_555
C9_5 C10_5 1_555 1_555
C10_5 H14_5 1_555 1_555
N6_5 Fe3_3 1_555 1_555
N7_5 N6_5 1_555 1_555
N8_5 C2_5 1_555 1_555
N9_3 Fe3_3 1_555 1_555
N10_5 Fe3_3 1_555 1_555
C13_5 N1_5 1_555 1_555
C14_5 N3_5 1_555 1_555
C15_3 C4_3 1_555 1_555
C16_3 C3_3 1_555 1_555
H9_3 C16_3 1_555 1_555
C17_3 C16_3 1_555 1_555
H10_3 C17_3 1_555 1_555
C18_3 C17_3 1_555 1_555
H11_3 C18_3 1_555 1_555
C19_3 N4_3 1_555 1_555
H12_3 C19_3 1_555 1_555
H13_5 C9_5 1_555 1_555
C23_5 N10 1_555 1_555
H15_5 C23_5 1_555 1_555
C24_5 C8_5 1_555 1_555
H16_5 C24_5 1_555 1_555
C1_5 N6_5 1_555 1_555
C7_3 N9_3 1_555 1_555
N7_5 C14_5 1_555 1_555
N8_5 C13_5 1_555 1_555
N9_3 C15_3 1_555 1_555
C13_5 C15_3 1_555 1_555
C18_3 C19_3 1_555 1_555
C23_5 C24_5 1_555 1_555
Fe3 N1_6 1_555 1_555
N1_6 N2_6 1_555 1_555
N2_6 C2_6 1_555 1_555
N3_6 C1_6 1_555 1_555
N4_4 Fe3 1_555 1_555
N10_2 C10_6 1_555 1_555
C1_6 C3_4 1_555 1_555
C2_6 C8_6 1_555 1_555
C3_4 N4_4 1_555 1_555
C4_4 H1_4 1_555 1_555
C5_4 C4_4 1_555 1_555
H2_4 C5_4 1_555 1_555
C6_4 C5_4 1_555 1_555
H3_4 C6_4 1_555 1_555
C7_4 C6_4 1_555 1_555
H4_4 C7_4 1_555 1_555
C8_6 C9_6 1_555 1_555
C9_6 C10_6 1_555 1_555
C10_6 H14_6 1_555 1_555
N6_6 Fe3 1_555 1_555
N7_6 N6_6 1_555 1_555
N8_6 C2_6 1_555 1_555
N9_4 Fe3 1_555 1_555
N10_6 Fe3 1_555 1_555
C13_6 N1_6 1_555 1_555
C14_6 N3_6 1_555 1_555
C15_4 C4_4 1_555 1_555
C16_4 C3_4 1_555 1_555
H9_4 C16_4 1_555 1_555
C17_4 C16_4 1_555 1_555
H10_4 C17_4 1_555 1_555
C18_4 C17_4 1_555 1_555
H11_4 C18_4 1_555 1_555
C19_4 N4_4 1_555 1_555
H12_4 C19_4 1_555 1_555
H13_6 C9_6 1_555 1_555
C23_6 N10_2 1_555 1_555
H15_6 C23_6 1_555 1_555
C24_6 C8_6 1_555 1_555
H16_6 C24_6 1_555 1_555
C1_6 N6_6 1_555 1_555
C7_4 N9_4 1_555 1_555
N7_6 C14_6 1_555 1_555
N8_6 C13_6 1_555 1_555
N9_4 C15_4 1_555 1_555
C13_6 C15_4 1_555 1_555
C18_4 C19_4 1_555 1_555
C23_6 C24_6 1_555 1_555
H5_6 C21_6 1_555 1_555
H6_6 C22_6 1_555 1_555
C11_6 H7_6 1_555 1_555
C12_6 C11_6 1_555 1_555
Fe2_3 N12_6 1_555 1_555
N12_6 C11_6 1_555 1_555
C20_6 C12_6 1_555 1_555
C21_6 C20_6 1_555 1_555
C22_6 N12_6 1_555 1_555
C21_6 C22_6 1_555 1_555
Fe2_2 N1_7 1_555 1_555
N1_7 N2_7 1_555 1_555
N2_7 C2_7 1_555 1_555
N3_7 C1_7 1_555 1_555
N4_5 Fe2_2 1_555 1_555
N10_6 C10_7 1_555 1_555
C1_7 C3_5 1_555 1_555
C2_7 C8_7 1_555 1_555
C3_5 N4_5 1_555 1_555
C4_5 H1_5 1_555 1_555
C5_5 C4_5 1_555 1_555
H2_5 C5_5 1_555 1_555
C6_5 C5_5 1_555 1_555
H3_5 C6_5 1_555 1_555
C7_5 C6_5 1_555 1_555
H4_5 C7_5 1_555 1_555
C8_7 C9_7 1_555 1_555
C9_7 C10_7 1_555 1_555
H5_7 C21_7 1_555 1_555
C10_7 H14_7 1_555 1_555
H6_7 C22_7 1_555 1_555
C11_7 H7_7 1_555 1_555
C12_7 C11_7 1_555 1_555
H8_7 C12_7 1_555 1_555
N6_7 Fe2_2 1_555 1_555
N7_7 N6_7 1_555 1_555
N8_7 C2_7 1_555 1_555
N9_5 Fe2_2 1_555 1_555
N11_3 C11_7 1_555 1_555
C13_7 N1_7 1_555 1_555
C14_7 N3_7 1_555 1_555
C15_5 C4_5 1_555 1_555
C16_5 C3_5 1_555 1_555
H9_5 C16_5 1_555 1_555
C17_5 C16_5 1_555 1_555
H10_5 C17_5 1_555 1_555
C18_5 C17_5 1_555 1_555
H11_5 C18_5 1_555 1_555
C19_5 N4_5 1_555 1_555
H12_5 C19_5 1_555 1_555
C20_7 C12_7 1_555 1_555
C21_7 C20_7 1_555 1_555
H13_7 C9_7 1_555 1_555
C22_7 N11_3 1_555 1_555
C23_7 N10_6 1_555 1_555
H15_7 C23_7 1_555 1_555
C24_7 C8_7 1_555 1_555
H16_7 C24_7 1_555 1_555
C1_7 N6_7 1_555 1_555
C7_5 N9_5 1_555 1_555
N7_7 C14_7 1_555 1_555
N8_7 C13_7 1_555 1_555
N9_5 C15_5 1_555 1_555
C13_7 C15_5 1_555 1_555
C14_7 C20_7 1_555 1_555
C18_5 C19_5 1_555 1_555
C21_7 C22_7 1_555 1_555
C23_7 C24_7 1_555 1_555
Fe2_3 N1_8 1_555 1_555
N1_8 N2_8 1_555 1_555
N2_8 C2_8 1_555 1_555
N3_8 C1_8 1_555 1_555
N4_6 Fe2_3 1_555 1_555
C1_8 C3_6 1_555 1_555
C3_6 N4_6 1_555 1_555
C4_6 H1_6 1_555 1_555
C5_6 C4_6 1_555 1_555
H2_6 C5_6 1_555 1_555
C6_6 C5_6 1_555 1_555
H3_6 C6_6 1_555 1_555
C7_6 C6_6 1_555 1_555
H4_6 C7_6 1_555 1_555
H5_8 C21_8 1_555 1_555
H6_8 C22_8 1_555 1_555
C11_8 H7_8 1_555 1_555
C12_8 C11_8 1_555 1_555
H8_8 C12_8 1_555 1_555
N6_8 Fe2_3 1_555 1_555
N7_8 N6_8 1_555 1_555
N8_8 C2_8 1_555 1_555
N9_6 Fe2_3 1_555 1_555
N11 C11_8 1_555 1_555
C13_8 N1_8 1_555 1_555
C14_8 N3_8 1_555 1_555
C15_6 C4_6 1_555 1_555
C16_6 C3_6 1_555 1_555
H9_6 C16_6 1_555 1_555
C17_6 C16_6 1_555 1_555
H10_6 C17_6 1_555 1_555
C18_6 C17_6 1_555 1_555
H11_6 C18_6 1_555 1_555
C19_6 N4_6 1_555 1_555
H12_6 C19_6 1_555 1_555
C20_8 C12_8 1_555 1_555
C21_8 C20_8 1_555 1_555
C22_8 N11 1_555 1_555
C1_8 N6_8 1_555 1_555
C7_6 N9_6 1_555 1_555
N7_8 C14_8 1_555 1_555
N8_8 C13_8 1_555 1_555
N9_6 C15_6 1_555 1_555
C13_8 C15_6 1_555 1_555
C14_8 C20_8 1_555 1_555
C18_6 C19_6 1_555 1_555
C21_8 C22_8 1_555 1_555
N10_4 C10_8 1_555 1_555
C8_8 C9_8 1_555 1_555
C9_8 C10_8 1_555 1_555
C10_8 H14_8 1_555 1_555
H13_8 C9_8 1_555 1_555
C23_8 N10_4 1_555 1_555
H15_8 C23_8 1_555 1_555
C24_8 C8_8 1_555 1_555
C23_8 C24_8 1_555 1_555
N10_5 C10_9 1_555 1_555
C8_9 C9_9 1_555 1_555
C9_9 C10_9 1_555 1_555
C10_9 H14_9 1_555 1_555
H13_9 C9_9 1_555 1_555
C23_9 N10_5 1_555 1_555
H15_9 C23_9 1_555 1_555
C24_9 C8_9 1_555 1_555
C23_9 C24_9 1_555 1_555
Fe2 N1_9 1_555 1_555
N1_9 N2_9 1_555 1_555
N2_9 C2_9 1_555 1_555
N3_9 C1_9 1_555 1_555
N4_7 Fe2 1_555 1_555
C1_9 C3_7 1_555 1_555
C3_7 N4_7 1_555 1_555
C4_7 H1_7 1_555 1_555
C5_7 C4_7 1_555 1_555
H2_7 C5_7 1_555 1_555
C6_7 C5_7 1_555 1_555
H3_7 C6_7 1_555 1_555
C7_7 C6_7 1_555 1_555
H4_7 C7_7 1_555 1_555
H5_9 C21_9 1_555 1_555
H6_9 C22_9 1_555 1_555
C11_9 H7_9 1_555 1_555
C12_9 C11_9 1_555 1_555
H8_9 C12_9 1_555 1_555
N6_9 Fe2 1_555 1_555
N7_9 N6_9 1_555 1_555
N8_9 C2_9 1_555 1_555
N9_7 Fe2 1_555 1_555
N11_2 C11_9 1_555 1_555
C13_9 N1_9 1_555 1_555
C14_9 N3_9 1_555 1_555
C15_7 C4_7 1_555 1_555
C16_7 C3_7 1_555 1_555
H9_7 C16_7 1_555 1_555
C17_7 C16_7 1_555 1_555
H10_7 C17_7 1_555 1_555
C18_7 C17_7 1_555 1_555
H11_7 C18_7 1_555 1_555
C19_7 N4_7 1_555 1_555
H12_7 C19_7 1_555 1_555
C20_9 C12_9 1_555 1_555
C21_9 C20_9 1_555 1_555
C22_9 N11_2 1_555 1_555
C1_9 N6_9 1_555 1_555
C7_7 N9_7 1_555 1_555
N7_9 C14_9 1_555 1_555
N8_9 C13_9 1_555 1_555
N9_7 C15_7 1_555 1_555
C13_9 C15_7 1_555 1_555
C14_9 C20_9 1_555 1_555
C18_7 C19_7 1_555 1_555
C21_9 C22_9 1_555 1_555
Fe1_5 N6 1_555 1_555
N10 Fe1_5 1_555 1_555
Fe1_6 N6_3 1_555 1_555
N10_3 Fe1_6 1_555 1_555
C3_8 N4_8 1_555 1_555
C16_8 C3_8 1_555 1_555
H9_8 C16_8 1_555 1_555
C17_8 C16_8 1_555 1_555
H10_8 C17_8 1_555 1_555
C18_8 C17_8 1_555 1_555
H11_8 C18_8 1_555 1_555
C19_8 N4_8 1_555 1_555
H12_8 C19_8 1_555 1_555
C18_8 C19_8 1_555 1_555
N4_8 Fe1_7 1_555 1_555
C4_8 H1_8 1_555 1_555
C5_8 C4_8 1_555 1_555
H2_8 C5_8 1_555 1_555
C6_8 C5_8 1_555 1_555
H3_8 C6_8 1_555 1_555
C7_8 C6_8 1_555 1_555
H4_8 C7_8 1_555 1_555
N9_8 Fe1_8 1_555 1_555
C15_8 C4_8 1_555 1_555
C7_8 N9_8 1_555 1_555
N9_8 C15_8 1_555 1_555
C4_9 H1_9 1_555 1_555
C5_9 C4_9 1_555 1_555
H2_9 C5_9 1_555 1_555
C6_9 C5_9 1_555 1_555
H3_9 C6_9 1_555 1_555
C7_9 C6_9 1_555 1_555
H4_9 C7_9 1_555 1_555
N9_9 Fe1_9 1_555 1_555
C15_9 C4_9 1_555 1_555
C7_9 N9_9 1_555 1_555
N9_9 C15_9 1_555 1_555
C3_9 N4_9 1_555 1_555
C16_9 C3_9 1_555 1_555
H9_9 C16_9 1_555 1_555
C17_9 C16_9 1_555 1_555
H10_9 C17_9 1_555 1_555
C18_9 C17_9 1_555 1_555
H11_9 C18_9 1_555 1_555
C19_9 N4_9 1_555 1_555
H12_9 C19_9 1_555 1_555
C18_9 C19_9 1_555 1_555
N4_9 Fe1_10 1_555 1_555
N3_10 C1_10 1_555 1_555
C1_10 C3_10 1_555 1_555
C3_10 N4_10 1_555 1_555
H5_10 C21_10 1_555 1_555
H6_10 C22_10 1_555 1_555
C11_10 H7_10 1_555 1_555
C12_10 C11_10 1_555 1_555
H8_10 C12_10 1_555 1_555
Fe3_4 N12_7 1_555 1_555
N7_10 N6_10 1_555 1_555
N12_7 C11_10 1_555 1_555
C14_10 N3_10 1_555 1_555
C16_10 C3_10 1_555 1_555
H9_10 C16_10 1_555 1_555
C17_10 C16_10 1_555 1_555
H10_10 C17_10 1_555 1_555
C18_10 C17_10 1_555 1_555
H11_10 C18_10 1_555 1_555
C19_10 N4_10 1_555 1_555
H12_10 C19_10 1_555 1_555
C20_10 C12_10 1_555 1_555
C21_10 C20_10 1_555 1_555
C22_10 N12_7 1_555 1_555
C1_10 N6_10 1_555 1_555
N7_10 C14_10 1_555 1_555
C14_10 C20_10 1_555 1_555
C18_10 C19_10 1_555 1_555
C21_10 C22_10 1_555 1_555
Fe1_11 N1_10 1_555 1_555
N1_10 N2_10 1_555 1_555
N2_10 C2_10 1_555 1_555
N5_4 C10_10 1_555 1_555
C2_10 C8_10 1_555 1_555
C4_10 H1_10 1_555 1_555
C5_10 C4_10 1_555 1_555
H2_10 C5_10 1_555 1_555
C6_10 C5_10 1_555 1_555
H3_10 C6_10 1_555 1_555
C7_10 C6_10 1_555 1_555
H4_10 C7_10 1_555 1_555
C8_10 C9_10 1_555 1_555
C9_10 C10_10 1_555 1_555
C10_10 H14_10 1_555 1_555
Fe2_4 N5_4 1_555 1_555
N8_10 C2_10 1_555 1_555
N9_10 Fe1_11 1_555 1_555
N11_4 Fe1_11 1_555 1_555
C13_10 N1_10 1_555 1_555
C15_10 C4_10 1_555 1_555
H13_10 C9_10 1_555 1_555
C23_10 N5_4 1_555 1_555
H15_10 C23_10 1_555 1_555
C24_10 C8_10 1_555 1_555
H16_10 C24_10 1_555 1_555
C7_10 N9_10 1_555 1_555
N8_10 C13_10 1_555 1_555
N9_10 C15_10 1_555 1_555
C13_10 C15_10 1_555 1_555
C23_10 C24_10 1_555 1_555
Fe1_12 N1_11 1_555 1_555
N1_11 N2_11 1_555 1_555
N2_11 C2_11 1_555 1_555
N3_11 C1_11 1_555 1_555
N4_11 Fe1_12 1_555 1_555
N5_5 C10_11 1_555 1_555
C1_11 C3_11 1_555 1_555
C2_11 C8_11 1_555 1_555
C3_11 N4_11 1_555 1_555
C4_11 H1_11 1_555 1_555
C5_11 C4_11 1_555 1_555
H2_11 C5_11 1_555 1_555
C6_11 C5_11 1_555 1_555
H3_11 C6_11 1_555 1_555
C7_11 C6_11 1_555 1_555
H4_11 C7_11 1_555 1_555
C8_11 C9_11 1_555 1_555
C9_11 C10_11 1_555 1_555
H5_11 C21_11 1_555 1_555
C10_11 H14_11 1_555 1_555
H6_11 C22_11 1_555 1_555
C11_11 H7_11 1_555 1_555
C12_11 C11_11 1_555 1_555
H8_11 C12_11 1_555 1_555
Fe2_5 N5_5 1_555 1_555
Fe3_5 N12_8 1_555 1_555
N6_11 Fe1_12 1_555 1_555
N7_11 N6_11 1_555 1_555
N8_11 C2_11 1_555 1_555
N9_11 Fe1_12 1_555 1_555
N10_8 Fe1_12 1_555 1_555
N11_5 Fe1_12 1_555 1_555
N12_8 C11_11 1_555 1_555
C13_11 N1_11 1_555 1_555
C14_11 N3_11 1_555 1_555
C15_11 C4_11 1_555 1_555
C16_11 C3_11 1_555 1_555
H9_11 C16_11 1_555 1_555
C17_11 C16_11 1_555 1_555
H10_11 C17_11 1_555 1_555
C18_11 C17_11 1_555 1_555
H11_11 C18_11 1_555 1_555
C19_11 N4_11 1_555 1_555
H12_11 C19_11 1_555 1_555
C20_11 C12_11 1_555 1_555
C21_11 C20_11 1_555 1_555
H13_11 C9_11 1_555 1_555
C22_11 N12_8 1_555 1_555
C23_11 N5_5 1_555 1_555
H15_11 C23_11 1_555 1_555
C24_11 C8_11 1_555 1_555
H16_11 C24_11 1_555 1_555
C1_11 N6_11 1_555 1_555
C7_11 N9_11 1_555 1_555
N7_11 C14_11 1_555 1_555
N8_11 C13_11 1_555 1_555
N9_11 C15_11 1_555 1_555
C13_11 C15_11 1_555 1_555
C14_11 C20_11 1_555 1_555
C18_11 C19_11 1_555 1_555
C21_11 C22_11 1_555 1_555
C23_11 C24_11 1_555 1_555
Fe1_13 N1_12 1_555 1_555
N1_12 N2_12 1_555 1_555
N2_12 C2_12 1_555 1_555
N5_6 C10_12 1_555 1_555
C2_12 C8_12 1_555 1_555
C4_12 H1_12 1_555 1_555
C5_12 C4_12 1_555 1_555
H2_12 C5_12 1_555 1_555
C6_12 C5_12 1_555 1_555
H3_12 C6_12 1_555 1_555
C7_12 C6_12 1_555 1_555
H4_12 C7_12 1_555 1_555
C8_12 C9_12 1_555 1_555
C9_12 C10_12 1_555 1_555
C10_12 H14_12 1_555 1_555
Fe2_6 N5_6 1_555 1_555
N8_12 C2_12 1_555 1_555
N9_12 Fe1_13 1_555 1_555
N11_6 Fe1_13 1_555 1_555
C13_12 N1_12 1_555 1_555
C15_12 C4_12 1_555 1_555
H13_12 C9_12 1_555 1_555
C23_12 N5_6 1_555 1_555
H15_12 C23_12 1_555 1_555
C24_12 C8_12 1_555 1_555
H16_12 C24_12 1_555 1_555
C7_12 N9_12 1_555 1_555
N8_12 C13_12 1_555 1_555
N9_12 C15_12 1_555 1_555
C13_12 C15_12 1_555 1_555
C23_12 C24_12 1_555 1_555
N3_12 C1_12 1_555 1_555
C1_12 C3_12 1_555 1_555
C3_12 N4_12 1_555 1_555
H5_12 C21_12 1_555 1_555
H6_12 C22_12 1_555 1_555
C11_12 H7_12 1_555 1_555
C12_12 C11_12 1_555 1_555
H8_12 C12_12 1_555 1_555
Fe3_6 N12_9 1_555 1_555
N7_12 N6_12 1_555 1_555
N12_9 C11_12 1_555 1_555
C14_12 N3_12 1_555 1_555
C16_12 C3_12 1_555 1_555
H9_12 C16_12 1_555 1_555
C17_12 C16_12 1_555 1_555
H10_12 C17_12 1_555 1_555
C18_12 C17_12 1_555 1_555
H11_12 C18_12 1_555 1_555
C19_12 N4_12 1_555 1_555
H12_12 C19_12 1_555 1_555
C20_12 C12_12 1_555 1_555
C21_12 C20_12 1_555 1_555
C22_12 N12_9 1_555 1_555
C1_12 N6_12 1_555 1_555
N7_12 C14_12 1_555 1_555
C14_12 C20_12 1_555 1_555
C18_12 C19_12 1_555 1_555
C21_12 C22_12 1_555 1_555
N5_7 C10_13 1_555 1_555
C10_13 H14_13 1_555 1_555
Fe3_4 N5_7 1_555 1_555
H11_13 C18_13 1_555 1_555
C23_13 N5_7 1_555 1_555
H15_13 C23_13 1_555 1_555
H16_13 C24_13 1_555 1_555
C23_13 C24_13 1_555 1_555
Fe2_5 N1_13 1_555 1_555
N1_13 N2_13 1_555 1_555
N2_13 C2_13 1_555 1_555
N3_13 C1_13 1_555 1_555
N4_13 Fe2_5 1_555 1_555
C1_13 C3_13 1_555 1_555
C2_13 C8_13 1_555 1_555
C3_13 N4_13 1_555 1_555
C4_13 H1_13 1_555 1_555
C5_13 C4_13 1_555 1_555
H2_13 C5_13 1_555 1_555
C6_13 C5_13 1_555 1_555
H3_13 C6_13 1_555 1_555
C7_13 C6_13 1_555 1_555
H4_13 C7_13 1_555 1_555
C8_13 C9_13 1_555 1_555
H5_13 C21_13 1_555 1_555
H6_13 C22_13 1_555 1_555
C11_13 H7_13 1_555 1_555
C12_13 C11_13 1_555 1_555
H8_13 C12_13 1_555 1_555
N6_13 Fe2_5 1_555 1_555
N7_13 N6_13 1_555 1_555
N8_13 C2_13 1_555 1_555
N9_13 Fe2_5 1_555 1_555
N11_7 Fe2_5 1_555 1_555
N11_6 C11_13 1_555 1_555
C13_13 N1_13 1_555 1_555
C14_13 N3_13 1_555 1_555
C15_13 C4_13 1_555 1_555
C16_13 C3_13 1_555 1_555
H9_13 C16_13 1_555 1_555
C17_13 C16_13 1_555 1_555
C19_13 N4_13 1_555 1_555
H12_13 C19_13 1_555 1_555
C20_13 C12_13 1_555 1_555
C21_13 C20_13 1_555 1_555
H13_13 C9_13 1_555 1_555
C22_13 N11_6 1_555 1_555
C1_13 N6_13 1_555 1_555
C7_13 N9_13 1_555 1_555
N7_13 C14_13 1_555 1_555
N8_13 C13_13 1_555 1_555
N9_13 C15_13 1_555 1_555
C13_13 C15_13 1_555 1_555
C14_13 C20_13 1_555 1_555
C21_13 C22_13 1_555 1_555
Fe2_6 N1_14 1_555 1_555
N1_14 N2_14 1_555 1_555
N2_14 C2_14 1_555 1_555
N3_14 C1_14 1_555 1_555
N4_14 Fe2_6 1_555 1_555
C1_14 C3_14 1_555 1_555
C3_14 N4_14 1_555 1_555
C4_14 H1_14 1_555 1_555
C5_14 C4_14 1_555 1_555
H2_14 C5_14 1_555 1_555
C6_14 C5_14 1_555 1_555
H3_14 C6_14 1_555 1_555
C7_14 C6_14 1_555 1_555
H4_14 C7_14 1_555 1_555
H5_14 C21_14 1_555 1_555
H6_14 C22_14 1_555 1_555
C11_14 H7_14 1_555 1_555
C12_14 C11_14 1_555 1_555
H8_14 C12_14 1_555 1_555
N6_14 Fe2_6 1_555 1_555
N7_14 N6_14 1_555 1_555
N8_14 C2_14 1_555 1_555
N9_14 Fe2_6 1_555 1_555
N11_8 Fe2_6 1_555 1_555
N11_4 C11_14 1_555 1_555
C13_14 N1_14 1_555 1_555
C14_14 N3_14 1_555 1_555
C15_14 C4_14 1_555 1_555
C16_14 C3_14 1_555 1_555
H9_14 C16_14 1_555 1_555
C17_14 C16_14 1_555 1_555
C19_14 N4_14 1_555 1_555
H12_14 C19_14 1_555 1_555
C20_14 C12_14 1_555 1_555
C21_14 C20_14 1_555 1_555
C22_14 N11_4 1_555 1_555
C1_14 N6_14 1_555 1_555
C7_14 N9_14 1_555 1_555
N7_14 C14_14 1_555 1_555
N8_14 C13_14 1_555 1_555
N9_14 C15_14 1_555 1_555
C13_14 C15_14 1_555 1_555
C14_14 C20_14 1_555 1_555
C21_14 C22_14 1_555 1_555
N5_8 C10_14 1_555 1_555
C10_14 H14_14 1_555 1_555
Fe3_5 N5_8 1_555 1_555
C23_14 N5_8 1_555 1_555
H15_14 C23_14 1_555 1_555
C23_14 C24_14 1_555 1_555
N5_9 C10_15 1_555 1_555
C10_15 H14_15 1_555 1_555
Fe3_6 N5_9 1_555 1_555
C23_15 N5_9 1_555 1_555
H15_15 C23_15 1_555 1_555
C23_15 C24_15 1_555 1_555
Fe2_4 N1_15 1_555 1_555
N1_15 N2_15 1_555 1_555
N2_15 C2_15 1_555 1_555
N3_15 C1_15 1_555 1_555
N4_15 Fe2_4 1_555 1_555
C1_15 C3_15 1_555 1_555
C3_15 N4_15 1_555 1_555
C4_15 H1_15 1_555 1_555
C5_15 C4_15 1_555 1_555
H2_15 C5_15 1_555 1_555
C6_15 C5_15 1_555 1_555
H3_15 C6_15 1_555 1_555
C7_15 C6_15 1_555 1_555
H4_15 C7_15 1_555 1_555
H5_15 C21_15 1_555 1_555
H6_15 C22_15 1_555 1_555
C11_15 H7_15 1_555 1_555
C12_15 C11_15 1_555 1_555
H8_15 C12_15 1_555 1_555
N6_15 Fe2_4 1_555 1_555
N7_15 N6_15 1_555 1_555
N8_15 C2_15 1_555 1_555
N9_15 Fe2_4 1_555 1_555
N11_9 Fe2_4 1_555 1_555
N11_5 C11_15 1_555 1_555
C13_15 N1_15 1_555 1_555
C14_15 N3_15 1_555 1_555
C15_15 C4_15 1_555 1_555
C16_15 C3_15 1_555 1_555
H9_15 C16_15 1_555 1_555
C17_15 C16_15 1_555 1_555
C19_15 N4_15 1_555 1_555
H12_15 C19_15 1_555 1_555
C20_15 C12_15 1_555 1_555
C21_15 C20_15 1_555 1_555
C22_15 N11_5 1_555 1_555
C1_15 N6_15 1_555 1_555
C7_15 N9_15 1_555 1_555
N7_15 C14_15 1_555 1_555
N8_15 C13_15 1_555 1_555
N9_15 C15_15 1_555 1_555
C13_15 C15_15 1_555 1_555
C14_15 C20_15 1_555 1_555
C21_15 C22_15 1_555 1_555
Fe3_5 N1_16 1_555 1_555
N1_16 N2_16 1_555 1_555
N2_16 C2_16 1_555 1_555
N3_16 C1_16 1_555 1_555
N4_16 Fe3_5 1_555 1_555
N10_9 C10_16 1_555 1_555
C1_16 C3_16 1_555 1_555
C2_16 C8_14 1_555 1_555
C3_16 N4_16 1_555 1_555
C4_16 H1_16 1_555 1_555
C5_16 C4_16 1_555 1_555
H4_16 C7_16 1_555 1_555
C8_14 C9_14 1_555 1_555
C9_14 C10_16 1_555 1_555
H5_16 C21_16 1_555 1_555
C10_16 H14_16 1_555 1_555
N6_16 Fe3_5 1_555 1_555
N7_16 N6_16 1_555 1_555
N8_16 C2_16 1_555 1_555
N9_16 Fe3_5 1_555 1_555
C13_16 N1_16 1_555 1_555
C14_16 N3_16 1_555 1_555
C15_16 C4_16 1_555 1_555
C16_16 C3_16 1_555 1_555
H9_16 C16_16 1_555 1_555
C17_16 C16_16 1_555 1_555
H10_14 C17_16 1_555 1_555
C18_14 C17_16 1_555 1_555
H11_14 C18_14 1_555 1_555
C19_16 N4_16 1_555 1_555
H12_16 C19_16 1_555 1_555
C21_16 C20_16 1_555 1_555
H13_14 C9_14 1_555 1_555
C23_16 N10_9 1_555 1_555
H15_16 C23_16 1_555 1_555
C24_16 C8_14 1_555 1_555
H16_14 C24_16 1_555 1_555
C1_16 N6_16 1_555 1_555
C7_16 N9_16 1_555 1_555
N7_16 C14_16 1_555 1_555
N8_16 C13_16 1_555 1_555
N9_16 C15_16 1_555 1_555
C13_16 C15_16 1_555 1_555
C14_16 C20_16 1_555 1_555
C18_14 C19_16 1_555 1_555
C23_16 C24_16 1_555 1_555
H3_16 C6_16 1_555 1_555
H6_16 C22_16 1_555 1_555
C11_16 H7_16 1_555 1_555
C12_16 C11_16 1_555 1_555
H8_16 C12_16 1_555 1_555
N11_9 C11_16 1_555 1_555
C22_16 N11_9 1_555 1_555
H6_17 C22_17 1_555 1_555
C11_17 H7_17 1_555 1_555
C12_17 C11_17 1_555 1_555
N11_7 C11_17 1_555 1_555
C22_17 N11_7 1_555 1_555
Fe3_6 N1_17 1_555 1_555
N1_17 N2_17 1_555 1_555
N2_17 C2_17 1_555 1_555
N3_17 C1_17 1_555 1_555
N4_17 Fe3_6 1_555 1_555
N10_7 C10_17 1_555 1_555
C1_17 C3_17 1_555 1_555
C2_17 C8_15 1_555 1_555
C3_17 N4_17 1_555 1_555
C4_17 H1_17 1_555 1_555
C5_17 C4_17 1_555 1_555
H4_17 C7_17 1_555 1_555
C8_15 C9_15 1_555 1_555
C9_15 C10_17 1_555 1_555
C10_17 H14_17 1_555 1_555
N6_17 Fe3_6 1_555 1_555
N7_17 N6_17 1_555 1_555
N8_17 C2_17 1_555 1_555
N9_17 Fe3_6 1_555 1_555
C13_17 N1_17 1_555 1_555
C14_17 N3_17 1_555 1_555
C15_17 C4_17 1_555 1_555
C16_17 C3_17 1_555 1_555
H9_17 C16_17 1_555 1_555
C17_17 C16_17 1_555 1_555
H10_15 C17_17 1_555 1_555
C18_15 C17_17 1_555 1_555
H11_15 C18_15 1_555 1_555
C19_17 N4_17 1_555 1_555
H12_17 C19_17 1_555 1_555
H13_15 C9_15 1_555 1_555
C23_17 N10_7 1_555 1_555
H15_17 C23_17 1_555 1_555
C24_17 C8_15 1_555 1_555
H16_15 C24_17 1_555 1_555
C1_17 N6_17 1_555 1_555
C7_17 N9_17 1_555 1_555
N7_17 C14_17 1_555 1_555
N8_17 C13_17 1_555 1_555
N9_17 C15_17 1_555 1_555
C13_17 C15_17 1_555 1_555
C18_15 C19_17 1_555 1_555
C23_17 C24_17 1_555 1_555
Fe3_4 N1_18 1_555 1_555
N1_18 N2_18 1_555 1_555
N2_18 C2_18 1_555 1_555
N3_18 C1_18 1_555 1_555
N4_18 Fe3_4 1_555 1_555
N10_8 C10_18 1_555 1_555
C1_18 C3_18 1_555 1_555
C2_18 C8_16 1_555 1_555
C3_18 N4_18 1_555 1_555
C4_18 H1_18 1_555 1_555
C5_18 C4_18 1_555 1_555
H4_18 C7_18 1_555 1_555
C8_16 C9_16 1_555 1_555
C9_16 C10_18 1_555 1_555
C10_18 H14_18 1_555 1_555
N6_18 Fe3_4 1_555 1_555
N7_18 N6_18 1_555 1_555
N8_18 C2_18 1_555 1_555
N9_18 Fe3_4 1_555 1_555
C13_18 N1_18 1_555 1_555
C14_18 N3_18 1_555 1_555
C15_18 C4_18 1_555 1_555
C16_18 C3_18 1_555 1_555
H9_18 C16_18 1_555 1_555
C17_18 C16_18 1_555 1_555
H10_16 C17_18 1_555 1_555
C18_16 C17_18 1_555 1_555
H11_16 C18_16 1_555 1_555
C19_18 N4_18 1_555 1_555
H12_18 C19_18 1_555 1_555
H13_16 C9_16 1_555 1_555
C23_18 N10_8 1_555 1_555
H15_18 C23_18 1_555 1_555
C24_18 C8_16 1_555 1_555
H16_16 C24_18 1_555 1_555
C1_18 N6_18 1_555 1_555
C7_18 N9_18 1_555 1_555
N7_18 C14_18 1_555 1_555
N8_18 C13_18 1_555 1_555
N9_18 C15_18 1_555 1_555
C13_18 C15_18 1_555 1_555
C18_16 C19_18 1_555 1_555
C23_18 C24_18 1_555 1_555
H6_18 C22_18 1_555 1_555
C11_18 H7_18 1_555 1_555
C12_18 C11_18 1_555 1_555
N11_8 C11_18 1_555 1_555
C22_18 N11_8 1_555 1_555
Fe1_14 N6_10 1_555 1_555
N4_10 Fe1_14 1_555 1_555
N10_7 Fe1_14 1_555 1_555
Fe1_15 N6_12 1_555 1_555
N4_12 Fe1_15 1_555 1_555
N10_9 Fe1_15 1_555 1_555
H11_17 C18_17 1_555 1_555
C8_17 C9_17 1_555 1_555
H13_17 C9_17 1_555 1_555
C8_18 C9_18 1_555 1_555
H13_18 C9_18 1_555 1_555
H11_18 C18_18 1_555 1_555
H5_17 C21_17 1_555 1_555
C21_17 C20_17 1_555 1_555
H3_17 C6_17 1_555 1_555
H3_18 C6_18 1_555 1_555
H5_18 C21_18 1_555 1_555
C21_18 C20_18 1_555 1_555

#END
