
###############################################################################
#
# This file contains modified crystal structure data generated from the
# MOF subset of the Cambridge Structural Database (CSD) v543 
# hosted by the Cambridge Crystallographic Data Centre (CCDC).
#
# This work is licensed under the Creative Commons
# Attribution-NonCommercial-ShareAlike 4.0 International License.
# To view a copy of this license, visit
# http://creativecommons.org/licenses/by-nc-sa/4.0/
# or send a letter to
# Creative Commons, PO Box 1866, Mountain View, CA 94042, USA.
#
# CIF created using the CSD Python API on 29 September 2022
# The structure has been converted into the P1 space group
# The structure has a 3D framework
# The original CSD entry BUVWOF02 is in the rhombohedral crystal system
# The framework has been calculated to contain at least 10.0% void space
# The void calculation uses a probe of radius 1.32A, grid spacing 0.4
#
###############################################################################

data_BUVWOF02
_chemical_formula_moiety         '(C216 H144 Fe11 N90)n'
_symmetry_cell_setting           triclinic
_symmetry_space_group_name_H-M   'P 1'
_symmetry_Int_Tables_number      1
_space_group_name_Hall           'P 1'
loop_
_symmetry_equiv_pos_site_id
_symmetry_equiv_pos_as_xyz
1 x,y,z
_cell_length_a                   27.8061(17)
_cell_length_b                   27.8061(17)
_cell_length_c                   9.0879(9)
_cell_angle_alpha                90
_cell_angle_beta                 90
_cell_angle_gamma                120
_cell_volume                     6085.19
loop_
_atom_site_label
_atom_site_type_symbol
_atom_site_fract_x
_atom_site_fract_y
_atom_site_fract_z
H7 H 0.0008 0.3922 0.4664
Fe2 Fe 0.0001 0.5000 0.5000
N2 N 0.01661(18) 0.47324(13) 0.3175(4)
N3 N 0.05772(19) 0.46406(14) 0.2678(4)
C7 C 0.03803(23) 0.43857(16) 0.1378(5)
C8 C 0.06962(22) 0.41838(16) 0.0530(5)
C9 C 0.12428(25) 0.43451(19) 0.0884(6)
H5 H 0.1426 0.4609 0.1615
C10 C 0.15093(25) 0.41188(18) 0.0168(5)
H6 H 0.1878 0.4241 0.0413
N6 N 0.06716(19) 0.51563(14) 0.6222(4)
N9 N 0.01193(22) 0.56859(16) 0.9016(5)
N12 N 0.03949(24) 0.57901(14) 0.4207(4)
C13 C 0.10779(27) 0.5043(2) 0.5859(7)
H9 H 0.1065 0.4883 0.4951
C14 C 0.1511(4) 0.5161(3) 0.6825(7)
H10 H 0.1782 0.5074 0.6565
C15 C 0.1540(4) 0.5404(3) 0.8155(8)
H11 H 0.1839 0.5498 0.8782
C16 C 0.1126(3) 0.5510(2) 0.8558(7)
H12 H 0.1129 0.5660 0.9475
C17 C 0.07008(23) 0.53853(17) 0.7558(5)
C18 C 0.02249(22) 0.54604(16) 0.7849(5)
N7 N 0.13991(13) 0.78997(12) 0.0158(4)
N8 N 0.13073(14) 0.73968(13) 0.0655(4)
N9_2 N 0.09808(16) 0.77668(15) 0.2349(5)
C14_2 C 0.1506(3) 0.9684(2) 0.0158(7)
C15_2 C 0.1263(3) 0.9470(2) 0.1488(8)
H11_2 H 0.1169 0.9675 0.2115
C16_2 C 0.1157(2) 0.8950(2) 0.1891(7)
H12_2 H 0.1007 0.8803 0.2808
C17_2 C 0.12814(17) 0.86489(16) 0.0891(5)
C18_2 C 0.12063(16) 0.80979(15) 0.1182(5)
C19 C 0.10524(16) 0.73388(16) 0.1955(5)
C20 C 0.08505(16) 0.68210(15) 0.2803(5)
C21 C 0.10118(19) 0.64357(17) 0.2449(6)
H13 H 0.1276 0.6517 0.1718
C22 C 0.07855(18) 0.59429(17) 0.3165(5)
H14 H 0.0908 0.5697 0.2920
C23 C 0.0251(2) 0.61662(18) 0.4587(6)
C24 C 0.0472(2) 0.66822(18) 0.3911(6)
H16 H 0.0362 0.6932 0.4213
Fe1 Fe 0.8333 0.1667 0.1667
N1 N 0.84896(14) 0.11513(13) 0.0445(4)
C1 C 0.8376(2) 0.06314(18) 0.0808(7)
H1 H 0.8216 0.0484 0.1716
N6_2 N 0.81771(14) 0.21820(13) 0.2888(4)
N7_2 N 0.80658(13) 0.12330(12) 0.3491(4)
N8_2 N 0.79740(14) 0.07301(13) 0.3988(4)
N9_3 N 0.76475(16) 0.11001(15) 0.5682(5)
N11 N 0.91234(14) 0.20619(20) 0.2460(4)
N12_2 N 0.75432(14) 0.12715(20) 0.0874(4)
C13_2 C 0.8291(2) 0.27019(18) 0.2525(7)
H9_2 H 0.8451 0.2849 0.1617
C14_3 C 0.8173(3) 0.3017(2) 0.3491(7)
H10_2 H 0.8260 0.3375 0.3231
C15_3 C 0.7930(3) 0.2803(2) 0.4821(8)
H11_3 H 0.7836 0.3008 0.5448
C16_3 C 0.7824(2) 0.2283(2) 0.5224(7)
H12_3 H 0.7674 0.2136 0.6141
C17_3 C 0.79481(17) 0.19822(16) 0.4224(5)
C18_3 C 0.78730(16) 0.14312(15) 0.4515(5)
C19_2 C 0.77191(16) 0.06721(16) 0.5288(5)
C20_2 C 0.75172(16) 0.01543(15) 0.6136(5)
C24_2 C 0.7139(2) 0.00155(18) 0.7244(6)
H16_2 H 0.7029 0.0265 0.7546
C23_2 C 0.71671(18) 0.07515(27) 0.1254(6)
H15 H 0.7255 0.0581 0.2003
C24_3 C 0.66511(18) 0.04565(27) 0.0578(6)
H16_3 H 0.6401 0.0097 0.0880
C9_2 C 0.97690(17) 0.20906(25) 0.4218(6)
H5_2 H 0.9850 0.1908 0.4949
C10_2 C 0.92762(17) 0.18241(25) 0.3502(5)
H6_2 H 0.9030 0.1456 0.3747
C11 C 0.94995(18) 0.25819(27) 0.2080(6)
H7_2 H 0.9411 0.2753 0.1331
H10_3 H 0.9958 0.1551 0.9898
N2_2 N 0.86009(13) 0.21003(12) 0.9842(4)
N3_2 N 0.86927(14) 0.26032(13) 0.9345(4)
N4 N 0.90192(16) 0.22332(15) 0.7651(5)
N5 N 0.96051(14) 0.42099(14) 0.5793(4)
C2 C 0.8494(3) 0.0316(2) 0.9842(7)
C3 C 0.8737(3) 0.0530(2) 0.8512(8)
H3 H 0.8831 0.0325 0.7885
C4 C 0.8843(2) 0.1050(2) 0.8109(7)
H4 H 0.8993 0.1197 0.7192
C5 C 0.87186(17) 0.13511(16) 0.9109(5)
C6 C 0.87937(16) 0.19021(15) 0.8818(5)
C7_2 C 0.89476(16) 0.26612(16) 0.8045(5)
C8_2 C 0.91495(16) 0.31790(15) 0.7197(5)
C9_3 C 0.89882(19) 0.35643(17) 0.7551(6)
H5_3 H 0.8724 0.3483 0.8282
C10_3 C 0.92145(18) 0.40571(17) 0.6835(5)
H6_3 H 0.9092 0.4303 0.7080
C11_2 C 0.9749(2) 0.38338(18) 0.5413(6)
C12 C 0.9528(2) 0.33178(18) 0.6089(6)
H8 H 0.9638 0.3068 0.5787
N1_2 N 0.93284(19) 0.48437(14) 0.3778(4)
N4_2 N 0.98807(22) 0.43141(16) 0.0984(5)
C1_2 C 0.89221(27) 0.4957(2) 0.4141(7)
H1_2 H 0.8935 0.5117 0.5049
C2_2 C 0.8489(4) 0.4839(3) 0.3175(7)
H2 H 0.8218 0.4926 0.3435
C3_2 C 0.8460(4) 0.4596(3) 0.1845(8)
H3_2 H 0.8161 0.4502 0.1218
C4_2 C 0.8874(3) 0.4490(2) 0.1442(7)
H4_2 H 0.8871 0.4340 0.0525
C5_2 C 0.92992(23) 0.46147(17) 0.2442(5)
C6_2 C 0.97751(22) 0.45396(16) 0.2151(5)
N7_3 N 0.98339(18) 0.52676(13) 0.6825(4)
N8_3 N 0.94228(19) 0.53594(14) 0.7322(4)
C19_3 C 0.96197(23) 0.56143(16) 0.8622(5)
C20_3 C 0.93038(22) 0.58162(16) 0.9470(5)
C21_2 C 0.87572(25) 0.56549(19) 0.9116(6)
H13_2 H 0.8574 0.5391 0.8385
C22_2 C 0.84907(25) 0.58812(18) 0.9832(5)
H14_2 H 0.8122 0.5759 0.9587
H15_2 H 0.9992 0.6078 0.5336
Fe2_2 Fe 0.9999 0.5000 0.5000
H2_2 H 0.8407 0.9958 0.0102
Fe3 Fe 0.6667 0.8334 0.8334
N10 N 0.70616(14) 0.91234(14) 0.7540(4)
C21_3 C 0.76785(19) 0.97690(17) 0.5782(6)
H13_3 H 0.7943 0.9850 0.5051
C22_3 C 0.74522(18) 0.92762(17) 0.6498(5)
H14_3 H 0.7575 0.9030 0.6253
C23_3 C 0.6918(2) 0.94995(18) 0.7920(6)
H15_3 H 0.6659 0.9411 0.8669
Fe1_2 Fe 0.8333 0.6666 0.1667
N1_3 N 0.88487(13) 0.73383(19) 0.0445(4)
C1_3 C 0.93686(18) 0.77446(27) 0.0808(7)
H1_3 H 0.9516 0.7732 0.1716
N6_3 N 0.78180(13) 0.59950(19) 0.2888(4)
N7_4 N 0.87670(12) 0.68327(18) 0.3491(4)
N8_4 N 0.92699(13) 0.72438(19) 0.3988(4)
N9_4 N 0.88999(15) 0.65473(22) 0.5682(5)
N11_2 N 0.79381(20) 0.70616(24) 0.2460(4)
N12_3 N 0.87285(20) 0.62718(24) 0.0874(4)
C13_3 C 0.72981(18) 0.55887(27) 0.2525(7)
H9_3 H 0.7151 0.5601 0.1617
C14_4 C 0.6983(2) 0.5155(4) 0.3491(7)
H10_4 H 0.6625 0.4884 0.3231
C15_4 C 0.7197(2) 0.5126(4) 0.4821(8)
H11_4 H 0.6992 0.4827 0.5448
C16_4 C 0.7717(2) 0.5540(3) 0.5224(7)
H12_4 H 0.7864 0.5537 0.6141
C17_4 C 0.80178(16) 0.59658(23) 0.4224(5)
C18_4 C 0.85688(15) 0.64417(22) 0.4515(5)
C19_4 C 0.93279(16) 0.70469(23) 0.5288(5)
C20_4 C 0.98457(15) 0.73628(22) 0.6136(5)
C24_4 C 0.99845(18) 0.71231(27) 0.7244(6)
H16_4 H 0.9735 0.6763 0.7546
N5_2 N 0.62718(14) 0.75432(14) 0.9126(4)
C11_3 C 0.6416(2) 0.71671(18) 0.8746(6)
H7_3 H 0.6675 0.7255 0.7997
C12_2 C 0.6195(2) 0.66511(18) 0.9422(6)
H8_2 H 0.6305 0.6401 0.9120
C23_4 C 0.92485(27) 0.6416(2) 0.1254(6)
H15_4 H 0.9419 0.6675 0.2003
C24_5 C 0.95435(27) 0.6195(2) 0.0578(6)
H16_5 H 0.9903 0.6305 0.0880
N1_4 N 0.59950(19) 0.81771(14) 0.7112(4)
N2_3 N 0.68327(18) 0.80658(13) 0.6509(4)
N3_3 N 0.72438(19) 0.79740(14) 0.6012(4)
N4_3 N 0.65473(22) 0.76475(16) 0.4318(5)
C1_4 C 0.55887(27) 0.8291(2) 0.7475(7)
H1_4 H 0.5601 0.8451 0.8383
C2_3 C 0.5155(4) 0.8173(3) 0.6509(7)
H2_3 H 0.4884 0.8260 0.6769
C3_3 C 0.5126(4) 0.7930(3) 0.5179(8)
H3_3 H 0.4827 0.7836 0.4552
C4_3 C 0.5540(3) 0.7824(2) 0.4776(7)
H4_3 H 0.5537 0.7674 0.3859
C5_3 C 0.59658(23) 0.79481(17) 0.5776(5)
C6_3 C 0.64417(22) 0.78730(16) 0.5485(5)
C7_3 C 0.70469(23) 0.77191(16) 0.4712(5)
C8_3 C 0.73628(22) 0.75172(16) 0.3864(5)
C9_4 C 0.79094(25) 0.76785(19) 0.4218(6)
H5_4 H 0.8092 0.7943 0.4949
C10_4 C 0.81759(25) 0.74522(18) 0.3502(5)
H6_4 H 0.8544 0.7575 0.3747
C11_4 C 0.74181(27) 0.6918(2) 0.2080(6)
H7_4 H 0.7247 0.6659 0.1331
C12_3 C 0.71231(27) 0.7139(2) 0.2756(6)
H8_3 H 0.6763 0.7029 0.2454
N6_4 N 0.73383(19) 0.84896(14) 0.9555(4)
C13_4 C 0.77446(27) 0.8376(2) 0.9192(7)
H9_4 H 0.7732 0.8216 0.8284
H10_5 H 0.8449 0.8407 0.9898
H2_4 H 0.0042 0.8449 0.0102
Fe3_2 Fe 0.1666 0.8334 0.8334
N10_2 N 0.08766(14) 0.79381(20) 0.7540(4)
C21_4 C 0.02310(17) 0.79094(25) 0.5782(6)
H13_4 H 0.0150 0.8092 0.5051
C22_4 C 0.07238(17) 0.81759(25) 0.6498(5)
H14_4 H 0.0970 0.8544 0.6253
C23_5 C 0.05005(18) 0.74181(27) 0.7920(6)
H15_5 H 0.0589 0.7247 0.8669
N5_3 N 0.24568(14) 0.87285(20) 0.9126(4)
C11_5 C 0.28329(18) 0.92485(27) 0.8746(6)
H7_5 H 0.2745 0.9419 0.7997
C12_4 C 0.33489(18) 0.95435(27) 0.9422(6)
H8_4 H 0.3599 0.9903 0.9120
N1_5 N 0.18229(14) 0.78180(13) 0.7112(4)
N2_4 N 0.19342(13) 0.87670(12) 0.6509(4)
N3_4 N 0.20260(14) 0.92699(13) 0.6012(4)
N4_4 N 0.23525(16) 0.88999(15) 0.4318(5)
C1_5 C 0.1709(2) 0.72981(18) 0.7475(7)
H1_5 H 0.1549 0.7151 0.8383
C2_4 C 0.1827(3) 0.6983(2) 0.6509(7)
H2_5 H 0.1740 0.6625 0.6769
C3_4 C 0.2070(3) 0.7197(2) 0.5179(8)
H3_4 H 0.2164 0.6992 0.4552
C4_4 C 0.2176(2) 0.7717(2) 0.4776(7)
H4_4 H 0.2326 0.7864 0.3859
C5_4 C 0.20519(17) 0.80178(16) 0.5776(5)
C6_4 C 0.21270(16) 0.85688(15) 0.5485(5)
C7_4 C 0.22809(16) 0.93279(16) 0.4712(5)
C8_4 C 0.24828(16) 0.98457(15) 0.3864(5)
C12_5 C 0.2861(2) 0.99845(18) 0.2756(6)
H8_5 H 0.2971 0.9735 0.2454
N6_5 N 0.15104(14) 0.88487(13) 0.9555(4)
C13_5 C 0.1624(2) 0.93686(18) 0.9192(7)
H9_5 H 0.1784 0.9516 0.8284
N2_5 N 0.78997(12) 0.65006(18) 0.9842(4)
N3_5 N 0.73968(13) 0.60895(19) 0.9345(4)
N4_5 N 0.77668(15) 0.67860(22) 0.7651(5)
N5_4 N 0.57901(14) 0.53952(20) 0.5793(4)
C2_5 C 0.9684(2) 0.8178(4) 0.9842(7)
C3_5 C 0.9470(2) 0.8207(4) 0.8512(8)
H3_5 H 0.9675 0.8506 0.7885
C4_5 C 0.8950(2) 0.7793(3) 0.8109(7)
H4_5 H 0.8803 0.7796 0.7192
C5_5 C 0.86489(16) 0.73675(23) 0.9109(5)
C6_5 C 0.80979(15) 0.68916(22) 0.8818(5)
C7_5 C 0.73388(16) 0.62864(23) 0.8045(5)
C8_5 C 0.68210(15) 0.59705(22) 0.7197(5)
C9_5 C 0.64357(17) 0.54239(25) 0.7551(6)
H5_5 H 0.6517 0.5241 0.8282
C10_5 C 0.59429(17) 0.51574(25) 0.6835(5)
H6_5 H 0.5697 0.4789 0.7080
C11_6 C 0.61662(18) 0.59152(27) 0.5413(6)
H7_6 H 0.6078 0.6086 0.4664
C12_6 C 0.66822(18) 0.62102(27) 0.6089(6)
H8_6 H 0.6932 0.6570 0.5787
Fe2_3 Fe 0.5000 0.5000 0.5000
N1_6 N 0.51563(14) 0.44846(13) 0.3778(4)
N2_6 N 0.52676(13) 0.54336(12) 0.3175(4)
N3_6 N 0.53594(14) 0.59365(13) 0.2678(4)
N4_6 N 0.56859(16) 0.55665(15) 0.0984(5)
C1_6 C 0.5043(2) 0.39647(18) 0.4141(7)
H1_6 H 0.4883 0.3817 0.5049
C2_6 C 0.5161(3) 0.3649(2) 0.3175(7)
H2_6 H 0.5074 0.3291 0.3435
C3_6 C 0.5404(3) 0.3863(2) 0.1845(8)
H3_6 H 0.5498 0.3658 0.1218
C4_6 C 0.5510(2) 0.4383(2) 0.1442(7)
H4_6 H 0.5660 0.4530 0.0525
C5_6 C 0.53853(17) 0.46844(16) 0.2442(5)
C6_6 C 0.54604(16) 0.52354(15) 0.2151(5)
C7_6 C 0.56143(16) 0.59945(16) 0.1378(5)
C8_6 C 0.58162(16) 0.65123(15) 0.0530(5)
C9_6 C 0.56549(19) 0.68976(17) 0.0884(6)
H5_6 H 0.5391 0.6816 0.1615
C10_6 C 0.58812(18) 0.73904(17) 0.0168(5)
H6_6 H 0.5759 0.7636 0.0413
N6_6 N 0.48437(14) 0.55154(13) 0.6222(4)
N7_5 N 0.47324(13) 0.45664(12) 0.6825(4)
N8_5 N 0.46406(14) 0.40635(13) 0.7322(4)
N9_5 N 0.43141(16) 0.44335(15) 0.9016(5)
N12_4 N 0.42099(14) 0.46048(20) 0.4207(4)
C13_6 C 0.4957(2) 0.60353(18) 0.5859(7)
H9_6 H 0.5117 0.6183 0.4951
C14_5 C 0.4839(3) 0.6351(2) 0.6825(7)
H10_6 H 0.4926 0.6709 0.6565
C15_5 C 0.4596(3) 0.6137(2) 0.8155(8)
H11_5 H 0.4502 0.6342 0.8782
C16_5 C 0.4490(2) 0.5617(2) 0.8558(7)
H12_5 H 0.4340 0.5470 0.9475
C17_5 C 0.46147(17) 0.53156(16) 0.7558(5)
C18_5 C 0.45396(16) 0.47646(15) 0.7849(5)
C19_5 C 0.43857(16) 0.40055(16) 0.8622(5)
C20_5 C 0.41838(16) 0.34877(15) 0.9470(5)
C21_5 C 0.43451(19) 0.31024(17) 0.9116(6)
H13_5 H 0.4609 0.3184 0.8385
C22_5 C 0.41188(18) 0.26096(17) 0.9832(5)
H14_5 H 0.4241 0.2364 0.9587
N7_6 N 0.21003(12) 0.34994(18) 0.0158(4)
N8_6 N 0.26032(13) 0.39105(19) 0.0655(4)
N9_6 N 0.22332(15) 0.32140(22) 0.2349(5)
C14_6 C 0.0316(2) 0.1822(4) 0.0158(7)
C15_6 C 0.0530(2) 0.1793(4) 0.1488(8)
H11_6 H 0.0325 0.1494 0.2115
C16_6 C 0.1050(2) 0.2207(3) 0.1891(7)
H12_6 H 0.1197 0.2204 0.2808
C17_6 C 0.13511(16) 0.26325(23) 0.0891(5)
C18_6 C 0.19021(15) 0.31084(22) 0.1182(5)
C19_6 C 0.26612(16) 0.37136(23) 0.1955(5)
C20_6 C 0.31790(15) 0.40295(22) 0.2803(5)
C21_6 C 0.35643(17) 0.45761(25) 0.2449(6)
H13_6 H 0.3483 0.4759 0.1718
C22_6 C 0.40571(17) 0.48426(25) 0.3165(5)
H14_6 H 0.4303 0.5211 0.2920
C23_6 C 0.38338(18) 0.40848(27) 0.4587(6)
H15_6 H 0.3922 0.3914 0.5336
C24_6 C 0.33178(18) 0.37898(27) 0.3911(6)
H16_6 H 0.3068 0.3430 0.4213
Fe1_3 Fe 0.3334 0.1667 0.1667
N1_7 N 0.26617(19) 0.15104(14) 0.0445(4)
C1_7 C 0.22554(27) 0.1624(2) 0.0808(7)
H1_7 H 0.2268 0.1784 0.1716
H2_7 H 0.1551 0.1593 0.0102
Fe3_3 Fe 0.1666 0.3333 0.8334
N6_7 N 0.40050(19) 0.18229(14) 0.2888(4)
N7_7 N 0.31673(18) 0.19342(13) 0.3491(4)
N8_7 N 0.27562(19) 0.20260(14) 0.3988(4)
N9_7 N 0.34527(22) 0.23525(16) 0.5682(5)
N10_3 N 0.20619(20) 0.29384(14) 0.7540(4)
N11_3 N 0.29384(24) 0.08766(14) 0.2460(4)
N12_5 N 0.37282(24) 0.24568(14) 0.0874(4)
C13_7 C 0.44113(27) 0.1709(2) 0.2525(7)
H9_7 H 0.4399 0.1549 0.1617
C14_7 C 0.4845(4) 0.1827(3) 0.3491(7)
H10_7 H 0.5116 0.1740 0.3231
C15_7 C 0.4874(4) 0.2070(3) 0.4821(8)
H11_7 H 0.5173 0.2164 0.5448
C16_7 C 0.4460(3) 0.2176(2) 0.5224(7)
H12_7 H 0.4463 0.2326 0.6141
C17_7 C 0.40342(23) 0.20519(17) 0.4224(5)
C18_7 C 0.35583(22) 0.21270(16) 0.4515(5)
C19_7 C 0.29531(23) 0.22809(16) 0.5288(5)
C20_7 C 0.26372(22) 0.24828(16) 0.6136(5)
C21_7 C 0.20906(25) 0.23215(19) 0.5782(6)
H13_7 H 0.1908 0.2057 0.5051
C22_7 C 0.18241(25) 0.25478(18) 0.6498(5)
H14_7 H 0.1456 0.2425 0.6253
C23_7 C 0.25819(27) 0.3082(2) 0.7920(6)
H15_7 H 0.2753 0.3341 0.8669
C24_7 C 0.28769(27) 0.2861(2) 0.7244(6)
H16_7 H 0.3237 0.2971 0.7546
C23_8 C 0.3584(2) 0.28329(18) 0.1254(6)
H15_8 H 0.3325 0.2745 0.2003
C24_8 C 0.3805(2) 0.33489(18) 0.0578(6)
H16_8 H 0.3695 0.3599 0.0880
N5_5 N 0.12715(20) 0.37282(14) 0.9126(4)
C11_7 C 0.07515(27) 0.3584(2) 0.8746(6)
H7_7 H 0.0581 0.3325 0.7997
C12_7 C 0.04565(27) 0.3805(2) 0.9422(6)
H8_7 H 0.0097 0.3695 0.9120
C9_7 C 0.23215(19) 0.02310(17) 0.4218(6)
H5_7 H 0.2057 0.0150 0.4949
C10_7 C 0.25478(18) 0.07238(17) 0.3502(5)
H6_7 H 0.2425 0.0970 0.3747
C11_8 C 0.3082(2) 0.05005(18) 0.2080(6)
H7_8 H 0.3341 0.0589 0.1331
H10_8 H 0.1593 0.0042 0.9898
N1_8 N 0.21820(13) 0.40050(19) 0.7112(4)
N2_7 N 0.12330(12) 0.31673(18) 0.6509(4)
N3_7 N 0.07301(13) 0.27562(19) 0.6012(4)
N4_7 N 0.11001(15) 0.34527(22) 0.4318(5)
C1_8 C 0.27019(18) 0.44113(27) 0.7475(7)
H1_8 H 0.2849 0.4399 0.8383
C2_7 C 0.3017(2) 0.4845(4) 0.6509(7)
H2_8 H 0.3375 0.5116 0.6769
C3_7 C 0.2803(2) 0.4874(4) 0.5179(8)
H3_7 H 0.3008 0.5173 0.4552
C4_7 C 0.2283(2) 0.4460(3) 0.4776(7)
H4_7 H 0.2136 0.4463 0.3859
C5_7 C 0.19822(16) 0.40342(23) 0.5776(5)
C6_7 C 0.14312(15) 0.35583(22) 0.5485(5)
C7_7 C 0.06721(16) 0.29531(23) 0.4712(5)
C8_7 C 0.01543(15) 0.26372(22) 0.3864(5)
C12_8 C 0.00155(18) 0.28769(27) 0.2756(6)
H8_8 H 0.0265 0.3237 0.2454
N6_8 N 0.11513(13) 0.26617(19) 0.9555(4)
C13_8 C 0.06314(18) 0.22554(27) 0.9192(7)
H9_8 H 0.0484 0.2268 0.8284
N2_8 N 0.34994(18) 0.13991(13) 0.9842(4)
N3_8 N 0.39105(19) 0.13073(14) 0.9345(4)
N4_8 N 0.32140(22) 0.09808(16) 0.7651(5)
N5_6 N 0.46048(20) 0.03949(14) 0.5793(4)
C2_8 C 0.1822(4) 0.1506(3) 0.9842(7)
C3_8 C 0.1793(4) 0.1263(3) 0.8512(8)
H3_8 H 0.1494 0.1169 0.7885
C4_8 C 0.2207(3) 0.1157(2) 0.8109(7)
H4_8 H 0.2204 0.1007 0.7192
C5_8 C 0.26325(23) 0.12814(17) 0.9109(5)
C6_8 C 0.31084(22) 0.12063(16) 0.8818(5)
C7_8 C 0.37136(23) 0.10524(16) 0.8045(5)
C8_8 C 0.40295(22) 0.08505(16) 0.7197(5)
C9_8 C 0.45761(25) 0.10118(19) 0.7551(6)
H5_8 H 0.4759 0.1276 0.8282
C10_8 C 0.48426(25) 0.07855(18) 0.6835(5)
H6_8 H 0.5211 0.0908 0.7080
C11_9 C 0.40848(27) 0.0251(2) 0.5413(6)
C12_9 C 0.37898(27) 0.0472(2) 0.6089(6)
H8_9 H 0.3430 0.0362 0.5787
N1_9 N 0.55154(13) 0.06716(19) 0.3778(4)
N4_9 N 0.44335(15) 0.01193(22) 0.0984(5)
C1_9 C 0.60353(18) 0.10779(27) 0.4141(7)
H1_9 H 0.6183 0.1065 0.5049
C2_9 C 0.6351(2) 0.1511(4) 0.3175(7)
H2_9 H 0.6709 0.1782 0.3435
C3_9 C 0.6137(2) 0.1540(4) 0.1845(8)
H3_9 H 0.6342 0.1839 0.1218
C4_9 C 0.5617(2) 0.1126(3) 0.1442(7)
H4_9 H 0.5470 0.1129 0.0525
C5_9 C 0.53156(16) 0.07008(23) 0.2442(5)
C6_9 C 0.47646(15) 0.02249(22) 0.2151(5)
N7_8 N 0.54336(12) 0.01661(18) 0.6825(4)
N8_8 N 0.59365(13) 0.05772(19) 0.7322(4)
C19_8 C 0.59945(16) 0.03803(23) 0.8622(5)
C20_8 C 0.65123(15) 0.06962(22) 0.9470(5)
C21_8 C 0.68976(17) 0.12428(25) 0.9116(6)
H13_8 H 0.6816 0.1426 0.8385
C22_8 C 0.73904(17) 0.15093(25) 0.9832(5)
H14_8 H 0.7636 0.1878 0.9587
H15_9 H 0.6086 0.0008 0.5336
Fe2_4 Fe 0.5000 0.0001 0.5000
H7_9 H 0.3914 0.9992 0.4664
Fe2_5 Fe 0.5000 0.9999 0.5000
N2_9 N 0.45664(12) 0.98339(18) 0.3175(4)
N3_9 N 0.40635(13) 0.94228(19) 0.2678(4)
C7_9 C 0.40055(16) 0.96197(23) 0.1378(5)
C8_9 C 0.34877(15) 0.93038(22) 0.0530(5)
C9_9 C 0.31024(17) 0.87572(25) 0.0884(6)
H5_9 H 0.3184 0.8574 0.1615
C10_9 C 0.26096(17) 0.84907(25) 0.0168(5)
H6_9 H 0.2364 0.8122 0.0413
N6_9 N 0.44846(13) 0.93284(19) 0.6222(4)
N9_8 N 0.55665(15) 0.98807(22) 0.9016(5)
N12_6 N 0.53952(20) 0.96051(24) 0.4207(4)
C13_9 C 0.39647(18) 0.89221(27) 0.5859(7)
H9_9 H 0.3817 0.8935 0.4951
C14_8 C 0.3649(2) 0.8489(4) 0.6825(7)
H10_9 H 0.3291 0.8218 0.6565
C15_8 C 0.3863(2) 0.8460(4) 0.8155(8)
H11_8 H 0.3658 0.8161 0.8782
C16_8 C 0.4383(2) 0.8874(3) 0.8558(7)
H12_8 H 0.4530 0.8871 0.9475
C17_8 C 0.46844(16) 0.92992(23) 0.7558(5)
C18_8 C 0.52354(15) 0.97751(22) 0.7849(5)
N7_9 N 0.65006(18) 0.86009(13) 0.0158(4)
N8_9 N 0.60895(19) 0.86927(14) 0.0655(4)
N9_9 N 0.67860(22) 0.90192(16) 0.2349(5)
C14_9 C 0.8178(4) 0.8494(3) 0.0158(7)
C15_9 C 0.8207(4) 0.8737(3) 0.1488(8)
H11_9 H 0.8506 0.8831 0.2115
C16_9 C 0.7793(3) 0.8843(2) 0.1891(7)
H12_9 H 0.7796 0.8993 0.2808
C17_9 C 0.73675(23) 0.87186(17) 0.0891(5)
C18_9 C 0.68916(22) 0.87937(16) 0.1182(5)
C19_9 C 0.62864(23) 0.89476(16) 0.1955(5)
C20_9 C 0.59705(22) 0.91495(16) 0.2803(5)
C21_9 C 0.54239(25) 0.89882(19) 0.2449(6)
H13_9 H 0.5241 0.8724 0.1718
C22_9 C 0.51574(25) 0.92145(18) 0.3165(5)
H14_9 H 0.4789 0.9092 0.2920
C23_9 C 0.59152(27) 0.9749(2) 0.4587(6)
C24_9 C 0.62102(27) 0.9528(2) 0.3911(6)
H16_9 H 0.6570 0.9638 0.4213
loop_
_geom_bond_atom_site_label_1
_geom_bond_atom_site_label_2
_geom_bond_site_symmetry_1
_geom_bond_site_symmetry_2
N2 Fe2 1_555 1_555
N3 N2 1_555 1_555
C7 N3 1_555 1_555
C8 C7 1_555 1_555
C9 C8 1_555 1_555
H5 C9 1_555 1_555
C10 C9 1_555 1_555
H6 C10 1_555 1_555
N6 Fe2 1_555 1_555
N9 C18 1_555 1_555
N12 Fe2 1_555 1_555
C13 N6 1_555 1_555
H9 C13 1_555 1_555
C14 C13 1_555 1_555
H10 C14 1_555 1_555
C15 C14 1_555 1_555
H11 C15 1_555 1_555
C16 C15 1_555 1_555
H12 C16 1_555 1_555
C17 N6 1_555 1_555
C16 C17 1_555 1_555
C17 C18 1_555 1_555
N8 N7 1_555 1_555
N9_2 C18_2 1_555 1_555
N12 C22 1_555 1_555
C15_2 C14_2 1_555 1_555
H11_2 C15_2 1_555 1_555
C16_2 C15_2 1_555 1_555
H12_2 C16_2 1_555 1_555
C18_2 N7 1_555 1_555
C19 N8 1_555 1_555
C20 C19 1_555 1_555
C21 C20 1_555 1_555
H13 C21 1_555 1_555
C22 C21 1_555 1_555
H14 C22 1_555 1_555
C23 N12 1_555 1_555
C24 C20 1_555 1_555
H16 C24 1_555 1_555
N9_2 C19 1_555 1_555
C16_2 C17_2 1_555 1_555
C17_2 C18_2 1_555 1_555
C23 C24 1_555 1_555
Fe1 N1 1_555 1_555
N1 C1 1_555 1_555
C1 H1 1_555 1_555
N6_2 Fe1 1_555 1_555
N7_2 Fe1 1_555 1_555
N8_2 N7_2 1_555 1_555
N9_3 C18_3 1_555 1_555
N11 Fe1 1_555 1_555
N12_2 Fe1 1_555 1_555
C13_2 N6_2 1_555 1_555
H9_2 C13_2 1_555 1_555
C14_3 C13_2 1_555 1_555
H10_2 C14_3 1_555 1_555
C15_3 C14_3 1_555 1_555
H11_3 C15_3 1_555 1_555
C16_3 C15_3 1_555 1_555
H12_3 C16_3 1_555 1_555
C17_3 N6_2 1_555 1_555
C18_3 N7_2 1_555 1_555
C19_2 N8_2 1_555 1_555
C20_2 C19_2 1_555 1_555
C24_2 C20_2 1_555 1_555
H16_2 C24_2 1_555 1_555
N9_3 C19_2 1_555 1_555
C16_3 C17_3 1_555 1_555
C17_3 C18_3 1_555 1_555
C23_2 N12_2 1_555 1_555
H15 C23_2 1_555 1_555
H16_3 C24_3 1_555 1_555
C23_2 C24_3 1_555 1_555
N11 C10_2 1_555 1_555
H5_2 C9_2 1_555 1_555
C10_2 C9_2 1_555 1_555
H6_2 C10_2 1_555 1_555
C11 N11 1_555 1_555
H7_2 C11 1_555 1_555
N3_2 N2_2 1_555 1_555
N4 C6 1_555 1_555
N5 C10_3 1_555 1_555
C3 C2 1_555 1_555
H3 C3 1_555 1_555
C4 C3 1_555 1_555
H4 C4 1_555 1_555
C6 N2_2 1_555 1_555
C7_2 N3_2 1_555 1_555
C8_2 C7_2 1_555 1_555
C9_3 C8_2 1_555 1_555
H5_3 C9_3 1_555 1_555
C10_3 C9_3 1_555 1_555
H6_3 C10_3 1_555 1_555
C11_2 N5 1_555 1_555
C12 C8_2 1_555 1_555
H8 C12 1_555 1_555
N4 C7_2 1_555 1_555
C4 C5 1_555 1_555
C5 C6 1_555 1_555
C11_2 C12 1_555 1_555
N1_2 C1_2 1_555 1_555
N4_2 C6_2 1_555 1_555
C1_2 H1_2 1_555 1_555
C2_2 C1_2 1_555 1_555
H2 C2_2 1_555 1_555
C3_2 C2_2 1_555 1_555
H3_2 C3_2 1_555 1_555
C4_2 C3_2 1_555 1_555
H4_2 C4_2 1_555 1_555
C5_2 N1_2 1_555 1_555
N8_3 N7_3 1_555 1_555
C19_3 N8_3 1_555 1_555
C20_3 C19_3 1_555 1_555
C21_2 C20_3 1_555 1_555
H13_2 C21_2 1_555 1_555
C22_2 C21_2 1_555 1_555
H14_2 C22_2 1_555 1_555
C4_2 C5_2 1_555 1_555
C5_2 C6_2 1_555 1_555
N7_3 Fe2_2 1_555 1_555
N1_2 Fe2_2 1_555 1_555
N5 Fe2_2 1_555 1_555
Fe3 N10 1_555 1_555
N10 C22_3 1_555 1_555
H13_3 C21_3 1_555 1_555
C22_3 C21_3 1_555 1_555
H14_3 C22_3 1_555 1_555
C23_3 N10 1_555 1_555
H15_3 C23_3 1_555 1_555
Fe1_2 N1_3 1_555 1_555
N1_3 C1_3 1_555 1_555
C1_3 H1_3 1_555 1_555
N6_3 Fe1_2 1_555 1_555
N7_4 Fe1_2 1_555 1_555
N8_4 N7_4 1_555 1_555
N9_4 C18_4 1_555 1_555
N11_2 Fe1_2 1_555 1_555
N12_3 Fe1_2 1_555 1_555
C13_3 N6_3 1_555 1_555
H9_3 C13_3 1_555 1_555
C14_4 C13_3 1_555 1_555
H10_4 C14_4 1_555 1_555
C15_4 C14_4 1_555 1_555
H11_4 C15_4 1_555 1_555
C16_4 C15_4 1_555 1_555
H12_4 C16_4 1_555 1_555
C17_4 N6_3 1_555 1_555
C18_4 N7_4 1_555 1_555
C19_4 N8_4 1_555 1_555
C20_4 C19_4 1_555 1_555
C24_4 C20_4 1_555 1_555
H16_4 C24_4 1_555 1_555
N9_4 C19_4 1_555 1_555
C16_4 C17_4 1_555 1_555
C17_4 C18_4 1_555 1_555
C11_3 N5_2 1_555 1_555
H7_3 C11_3 1_555 1_555
H8_2 C12_2 1_555 1_555
Fe3 N5_2 1_555 1_555
C11_3 C12_2 1_555 1_555
C23_4 N12_3 1_555 1_555
H15_4 C23_4 1_555 1_555
H16_5 C24_5 1_555 1_555
C23_4 C24_5 1_555 1_555
Fe3 N1_4 1_555 1_555
N1_4 C1_4 1_555 1_555
N2_3 Fe3 1_555 1_555
N3_3 N2_3 1_555 1_555
N4_3 C6_3 1_555 1_555
N11_2 C10_4 1_555 1_555
C1_4 H1_4 1_555 1_555
C2_3 C1_4 1_555 1_555
H2_3 C2_3 1_555 1_555
C3_3 C2_3 1_555 1_555
H3_3 C3_3 1_555 1_555
C4_3 C3_3 1_555 1_555
H4_3 C4_3 1_555 1_555
C5_3 N1_4 1_555 1_555
C6_3 N2_3 1_555 1_555
C7_3 N3_3 1_555 1_555
C8_3 C7_3 1_555 1_555
C9_4 C8_3 1_555 1_555
H5_4 C9_4 1_555 1_555
C10_4 C9_4 1_555 1_555
H6_4 C10_4 1_555 1_555
C11_4 N11_2 1_555 1_555
H7_4 C11_4 1_555 1_555
C12_3 C8_3 1_555 1_555
H8_3 C12_3 1_555 1_555
N6_4 Fe3 1_555 1_555
C13_4 N6_4 1_555 1_555
H9_4 C13_4 1_555 1_555
N4_3 C7_3 1_555 1_555
C4_3 C5_3 1_555 1_555
C5_3 C6_3 1_555 1_555
C11_4 C12_3 1_555 1_555
Fe3_2 N10_2 1_555 1_555
N10_2 C22_4 1_555 1_555
H13_4 C21_4 1_555 1_555
C22_4 C21_4 1_555 1_555
H14_4 C22_4 1_555 1_555
C23_5 N10_2 1_555 1_555
H15_5 C23_5 1_555 1_555
C11_5 N5_3 1_555 1_555
H7_5 C11_5 1_555 1_555
H8_4 C12_4 1_555 1_555
Fe3_2 N5_3 1_555 1_555
C11_5 C12_4 1_555 1_555
Fe3_2 N1_5 1_555 1_555
N1_5 C1_5 1_555 1_555
N2_4 Fe3_2 1_555 1_555
N3_4 N2_4 1_555 1_555
N4_4 C6_4 1_555 1_555
C1_5 H1_5 1_555 1_555
C2_4 C1_5 1_555 1_555
H2_5 C2_4 1_555 1_555
C3_4 C2_4 1_555 1_555
H3_4 C3_4 1_555 1_555
C4_4 C3_4 1_555 1_555
H4_4 C4_4 1_555 1_555
C5_4 N1_5 1_555 1_555
C6_4 N2_4 1_555 1_555
C7_4 N3_4 1_555 1_555
C8_4 C7_4 1_555 1_555
C12_5 C8_4 1_555 1_555
H8_5 C12_5 1_555 1_555
N6_5 Fe3_2 1_555 1_555
C13_5 N6_5 1_555 1_555
H9_5 C13_5 1_555 1_555
N4_4 C7_4 1_555 1_555
C4_4 C5_4 1_555 1_555
C5_4 C6_4 1_555 1_555
N3_5 N2_5 1_555 1_555
N4_5 C6_5 1_555 1_555
N5_4 C10_5 1_555 1_555
C3_5 C2_5 1_555 1_555
H3_5 C3_5 1_555 1_555
C4_5 C3_5 1_555 1_555
H4_5 C4_5 1_555 1_555
C6_5 N2_5 1_555 1_555
C7_5 N3_5 1_555 1_555
C8_5 C7_5 1_555 1_555
C9_5 C8_5 1_555 1_555
H5_5 C9_5 1_555 1_555
C10_5 C9_5 1_555 1_555
H6_5 C10_5 1_555 1_555
C11_6 N5_4 1_555 1_555
H7_6 C11_6 1_555 1_555
C12_6 C8_5 1_555 1_555
H8_6 C12_6 1_555 1_555
Fe2_3 N5_4 1_555 1_555
N4_5 C7_5 1_555 1_555
C4_5 C5_5 1_555 1_555
C5_5 C6_5 1_555 1_555
C11_6 C12_6 1_555 1_555
Fe2_3 N1_6 1_555 1_555
N1_6 C1_6 1_555 1_555
N2_6 Fe2_3 1_555 1_555
N3_6 N2_6 1_555 1_555
N4_6 C6_6 1_555 1_555
C1_6 H1_6 1_555 1_555
C2_6 C1_6 1_555 1_555
H2_6 C2_6 1_555 1_555
C3_6 C2_6 1_555 1_555
H3_6 C3_6 1_555 1_555
C4_6 C3_6 1_555 1_555
H4_6 C4_6 1_555 1_555
C5_6 N1_6 1_555 1_555
C6_6 N2_6 1_555 1_555
C7_6 N3_6 1_555 1_555
C8_6 C7_6 1_555 1_555
C9_6 C8_6 1_555 1_555
H5_6 C9_6 1_555 1_555
C10_6 C9_6 1_555 1_555
H6_6 C10_6 1_555 1_555
N6_6 Fe2_3 1_555 1_555
N7_5 Fe2_3 1_555 1_555
N8_5 N7_5 1_555 1_555
N9_5 C18_5 1_555 1_555
N12_4 Fe2_3 1_555 1_555
C13_6 N6_6 1_555 1_555
H9_6 C13_6 1_555 1_555
C14_5 C13_6 1_555 1_555
H10_6 C14_5 1_555 1_555
C15_5 C14_5 1_555 1_555
H11_5 C15_5 1_555 1_555
C16_5 C15_5 1_555 1_555
H12_5 C16_5 1_555 1_555
C17_5 N6_6 1_555 1_555
C18_5 N7_5 1_555 1_555
C19_5 N8_5 1_555 1_555
C20_5 C19_5 1_555 1_555
C21_5 C20_5 1_555 1_555
H13_5 C21_5 1_555 1_555
C22_5 C21_5 1_555 1_555
H14_5 C22_5 1_555 1_555
N4_6 C7_6 1_555 1_555
C4_6 C5_6 1_555 1_555
C5_6 C6_6 1_555 1_555
N9_5 C19_5 1_555 1_555
C16_5 C17_5 1_555 1_555
C17_5 C18_5 1_555 1_555
N8_6 N7_6 1_555 1_555
N9_6 C18_6 1_555 1_555
N12_4 C22_6 1_555 1_555
C15_6 C14_6 1_555 1_555
H11_6 C15_6 1_555 1_555
C16_6 C15_6 1_555 1_555
H12_6 C16_6 1_555 1_555
C18_6 N7_6 1_555 1_555
C19_6 N8_6 1_555 1_555
C20_6 C19_6 1_555 1_555
C21_6 C20_6 1_555 1_555
H13_6 C21_6 1_555 1_555
C22_6 C21_6 1_555 1_555
H14_6 C22_6 1_555 1_555
C23_6 N12_4 1_555 1_555
H15_6 C23_6 1_555 1_555
C24_6 C20_6 1_555 1_555
H16_6 C24_6 1_555 1_555
N9_6 C19_6 1_555 1_555
C16_6 C17_6 1_555 1_555
C17_6 C18_6 1_555 1_555
C23_6 C24_6 1_555 1_555
Fe1_3 N1_7 1_555 1_555
N1_7 C1_7 1_555 1_555
C1_7 H1_7 1_555 1_555
Fe3_3 N10_3 1_555 1_555
N6_7 Fe1_3 1_555 1_555
N7_7 Fe1_3 1_555 1_555
N8_7 N7_7 1_555 1_555
N9_7 C18_7 1_555 1_555
N10_3 C22_7 1_555 1_555
N11_3 Fe1_3 1_555 1_555
N12_5 Fe1_3 1_555 1_555
C13_7 N6_7 1_555 1_555
H9_7 C13_7 1_555 1_555
C14_7 C13_7 1_555 1_555
H10_7 C14_7 1_555 1_555
C15_7 C14_7 1_555 1_555
H11_7 C15_7 1_555 1_555
C16_7 C15_7 1_555 1_555
H12_7 C16_7 1_555 1_555
C17_7 N6_7 1_555 1_555
C18_7 N7_7 1_555 1_555
C19_7 N8_7 1_555 1_555
C20_7 C19_7 1_555 1_555
C21_7 C20_7 1_555 1_555
H13_7 C21_7 1_555 1_555
C22_7 C21_7 1_555 1_555
H14_7 C22_7 1_555 1_555
C23_7 N10_3 1_555 1_555
H15_7 C23_7 1_555 1_555
C24_7 C20_7 1_555 1_555
H16_7 C24_7 1_555 1_555
N9_7 C19_7 1_555 1_555
C16_7 C17_7 1_555 1_555
C17_7 C18_7 1_555 1_555
C23_7 C24_7 1_555 1_555
C23_8 N12_5 1_555 1_555
H15_8 C23_8 1_555 1_555
H16_8 C24_8 1_555 1_555
C23_8 C24_8 1_555 1_555
C11_7 N5_5 1_555 1_555
H7_7 C11_7 1_555 1_555
H8_7 C12_7 1_555 1_555
Fe3_3 N5_5 1_555 1_555
C11_7 C12_7 1_555 1_555
N11_3 C10_7 1_555 1_555
H5_7 C9_7 1_555 1_555
C10_7 C9_7 1_555 1_555
H6_7 C10_7 1_555 1_555
C11_8 N11_3 1_555 1_555
H7_8 C11_8 1_555 1_555
Fe3_3 N1_8 1_555 1_555
N1_8 C1_8 1_555 1_555
N2_7 Fe3_3 1_555 1_555
N3_7 N2_7 1_555 1_555
N4_7 C6_7 1_555 1_555
C1_8 H1_8 1_555 1_555
C2_7 C1_8 1_555 1_555
H2_8 C2_7 1_555 1_555
C3_7 C2_7 1_555 1_555
H3_7 C3_7 1_555 1_555
C4_7 C3_7 1_555 1_555
H4_7 C4_7 1_555 1_555
C5_7 N1_8 1_555 1_555
C6_7 N2_7 1_555 1_555
C7_7 N3_7 1_555 1_555
C8_7 C7_7 1_555 1_555
C12_8 C8_7 1_555 1_555
H8_8 C12_8 1_555 1_555
N6_8 Fe3_3 1_555 1_555
C13_8 N6_8 1_555 1_555
H9_8 C13_8 1_555 1_555
N4_7 C7_7 1_555 1_555
C4_7 C5_7 1_555 1_555
C5_7 C6_7 1_555 1_555
N3_8 N2_8 1_555 1_555
N4_8 C6_8 1_555 1_555
N5_6 C10_8 1_555 1_555
C3_8 C2_8 1_555 1_555
H3_8 C3_8 1_555 1_555
C4_8 C3_8 1_555 1_555
H4_8 C4_8 1_555 1_555
C6_8 N2_8 1_555 1_555
C7_8 N3_8 1_555 1_555
C8_8 C7_8 1_555 1_555
C9_8 C8_8 1_555 1_555
H5_8 C9_8 1_555 1_555
C10_8 C9_8 1_555 1_555
H6_8 C10_8 1_555 1_555
C11_9 N5_6 1_555 1_555
C12_9 C8_8 1_555 1_555
H8_9 C12_9 1_555 1_555
N4_8 C7_8 1_555 1_555
C4_8 C5_8 1_555 1_555
C5_8 C6_8 1_555 1_555
C11_9 C12_9 1_555 1_555
N1_9 C1_9 1_555 1_555
N4_9 C6_9 1_555 1_555
C1_9 H1_9 1_555 1_555
C2_9 C1_9 1_555 1_555
H2_9 C2_9 1_555 1_555
C3_9 C2_9 1_555 1_555
H3_9 C3_9 1_555 1_555
C4_9 C3_9 1_555 1_555
H4_9 C4_9 1_555 1_555
C5_9 N1_9 1_555 1_555
N8_8 N7_8 1_555 1_555
C19_8 N8_8 1_555 1_555
C20_8 C19_8 1_555 1_555
C21_8 C20_8 1_555 1_555
H13_8 C21_8 1_555 1_555
C22_8 C21_8 1_555 1_555
H14_8 C22_8 1_555 1_555
C4_9 C5_9 1_555 1_555
C5_9 C6_9 1_555 1_555
N7_8 Fe2_4 1_555 1_555
N1_9 Fe2_4 1_555 1_555
N5_6 Fe2_4 1_555 1_555
N2_9 Fe2_5 1_555 1_555
N3_9 N2_9 1_555 1_555
C7_9 N3_9 1_555 1_555
C8_9 C7_9 1_555 1_555
C9_9 C8_9 1_555 1_555
H5_9 C9_9 1_555 1_555
C10_9 C9_9 1_555 1_555
H6_9 C10_9 1_555 1_555
N6_9 Fe2_5 1_555 1_555
N9_8 C18_8 1_555 1_555
N12_6 Fe2_5 1_555 1_555
C13_9 N6_9 1_555 1_555
H9_9 C13_9 1_555 1_555
C14_8 C13_9 1_555 1_555
H10_9 C14_8 1_555 1_555
C15_8 C14_8 1_555 1_555
H11_8 C15_8 1_555 1_555
C16_8 C15_8 1_555 1_555
H12_8 C16_8 1_555 1_555
C17_8 N6_9 1_555 1_555
C16_8 C17_8 1_555 1_555
C17_8 C18_8 1_555 1_555
N8_9 N7_9 1_555 1_555
N9_9 C18_9 1_555 1_555
N12_6 C22_9 1_555 1_555
C15_9 C14_9 1_555 1_555
H11_9 C15_9 1_555 1_555
C16_9 C15_9 1_555 1_555
H12_9 C16_9 1_555 1_555
C18_9 N7_9 1_555 1_555
C19_9 N8_9 1_555 1_555
C20_9 C19_9 1_555 1_555
C21_9 C20_9 1_555 1_555
H13_9 C21_9 1_555 1_555
C22_9 C21_9 1_555 1_555
H14_9 C22_9 1_555 1_555
C23_9 N12_6 1_555 1_555
C24_9 C20_9 1_555 1_555
H16_9 C24_9 1_555 1_555
N9_9 C19_9 1_555 1_555
C16_9 C17_9 1_555 1_555
C17_9 C18_9 1_555 1_555
C23_9 C24_9 1_555 1_555

#END
