
###############################################################################
#
# This file contains modified crystal structure data generated from the
# MOF subset of the Cambridge Structural Database (CSD) v543 
# hosted by the Cambridge Crystallographic Data Centre (CCDC).
#
# This work is licensed under the Creative Commons
# Attribution-NonCommercial-ShareAlike 4.0 International License.
# To view a copy of this license, visit
# http://creativecommons.org/licenses/by-nc-sa/4.0/
# or send a letter to
# Creative Commons, PO Box 1866, Mountain View, CA 94042, USA.
#
# CIF created using the CSD Python API on 29 September 2022
# The structure has been converted into the P1 space group
# The structure has a 3D framework
# The original CSD entry BUVXOG01 is in the rhombohedral crystal system
# The framework has been calculated to contain at least 10.0% void space
# The void calculation uses a probe of radius 1.32A, grid spacing 0.4
#
###############################################################################

data_BUVXOG01
_chemical_formula_moiety         '(C216 H144 Fe16 N90)n'
_symmetry_cell_setting           triclinic
_symmetry_space_group_name_H-M   'P 1'
_symmetry_Int_Tables_number      1
_space_group_name_Hall           'P 1'
loop_
_symmetry_equiv_pos_site_id
_symmetry_equiv_pos_as_xyz
1 x,y,z
_cell_length_a                   27.787(4)
_cell_length_b                   27.787(4)
_cell_length_c                   9.1222(14)
_cell_angle_alpha                90
_cell_angle_beta                 90
_cell_angle_gamma                120
_cell_volume                     6099.77
loop_
_atom_site_label
_atom_site_type_symbol
_atom_site_fract_x
_atom_site_fract_y
_atom_site_fract_z
Fe1 Fe 0.5000 -0.0000 0.0000
N1 N 0.47294(13) 0.01662(14) 0.1809(3)
N2 N 0.46390(14) 0.05753(14) 0.2306(3)
N5 N 0.37266(14) 0.12752(14) 0.5877(3)
C2 C 0.43840(17) 0.03843(17) 0.3613(4)
C8 C 0.41829(17) 0.06930(17) 0.4455(4)
C9 C 0.3805(2) 0.04587(19) 0.5579(5)
H5 H 0.3701 0.0102 0.5901
C10 C 0.3580(2) 0.07505(19) 0.6233(5)
H6 H 0.3313 0.0574 0.6958
C11 C 0.41183(19) 0.15105(18) 0.4829(5)
H7 H 0.4240 0.1879 0.4582
C12 C 0.4348(2) 0.12427(19) 0.4107(5)
H8 H 0.4614 0.1427 0.3385
Fe3 Fe 0.3333 0.1667 0.6667
N12 N 0.57847(20) 0.03933(14) 0.0790(3)
H12 H 0.4886 0.1066 0.0064
Fe1_2 Fe 1.0000 0.5000 0.0000
N1_2 N 0.98338(14) 0.45632(19) 0.1809(3)
N2_2 N 0.94247(14) 0.40637(20) 0.2306(3)
N5_2 N 0.87248(14) 0.24514(20) 0.5877(3)
C2_2 C 0.96157(17) 0.39997(24) 0.3613(4)
C8_2 C 0.93070(17) 0.34899(24) 0.4455(4)
C9_2 C 0.95413(19) 0.33463(28) 0.5579(5)
H5_2 H 0.9898 0.3599 0.5901
C10_2 C 0.92495(19) 0.28295(28) 0.6233(5)
H6_2 H 0.9426 0.2739 0.6958
C11_2 C 0.84895(18) 0.26078(26) 0.4829(5)
H7_2 H 0.8121 0.2361 0.4582
C12_2 C 0.87573(19) 0.31053(28) 0.4107(5)
H8_2 H 0.8573 0.3187 0.3385
Fe3_2 Fe 0.8333 0.1667 0.6667
N12_2 N 0.96067(14) 0.53915(24) 0.0790(3)
H12_2 H 0.8934 0.3820 0.0064
Fe1_3 Fe 0.5000 0.5000 0.0000
N1_3 N 0.54368(19) 0.52706(13) 0.1809(3)
N2_3 N 0.59363(20) 0.53610(14) 0.2306(3)
N3 N 0.55668(23) 0.56856(16) 0.4002(4)
N4 N 0.44815(21) 0.51534(14) 0.1198(3)
N5_3 N 0.75486(20) 0.62734(14) 0.5877(3)
C1 C 0.52282(25) 0.54605(18) 0.2828(4)
C2_3 C 0.60003(24) 0.56160(17) 0.3613(4)
C3 C 0.46810(25) 0.53848(18) 0.2556(4)
C4 C 0.4380(3) 0.5505(2) 0.3535(5)
H1 H 0.4528 0.5659 0.4444
C5 C 0.3848(3) 0.5392(2) 0.3144(6)
H2 H 0.3635 0.5473 0.3777
C6 C 0.3644(4) 0.5154(3) 0.1778(6)
H3 H 0.3289 0.5070 0.1494
C7 C 0.3965(3) 0.5043(2) 0.0845(5)
C8_3 C 0.65101(24) 0.58171(17) 0.4455(4)
C9_3 C 0.66537(28) 0.6195(2) 0.5579(5)
H5_3 H 0.6401 0.6299 0.5901
C10_3 C 0.71705(28) 0.6420(2) 0.6233(5)
H6_3 H 0.7261 0.6687 0.6958
C11_3 C 0.73922(26) 0.58817(19) 0.4829(5)
H7_3 H 0.7639 0.5760 0.4582
C12_3 C 0.68947(28) 0.5652(2) 0.4107(5)
H8_3 H 0.6813 0.5386 0.3385
Fe3_3 Fe 0.8333 0.6667 0.6667
N12_3 N 0.46085(24) 0.42153(20) 0.0790(3)
H12_3 H 0.6180 0.5114 0.0064
N8 N 0.23523(16) 0.34521(16) 0.9331(4)
N10 N 0.29401(14) 0.20581(14) 0.7456(3)
C14 C 0.22827(17) 0.29490(17) 0.9720(4)
C16 C 0.2172(2) 0.4458(2) 0.9798(5)
H9 H 0.2326 0.4464 0.8889
H10 H 0.2140 0.5171 0.9556
C20 C 0.24838(17) 0.26403(17) 0.8878(4)
C21 C 0.2862(2) 0.28746(19) 0.7754(5)
H13 H 0.2966 0.3231 0.7432
C22 C 0.3087(2) 0.25828(19) 0.7100(5)
H14 H 0.3354 0.2759 0.6375
C23 C 0.25484(19) 0.18228(18) 0.8504(5)
H15 H 0.2427 0.1454 0.8751
C24 C 0.2319(2) 0.20906(19) 0.9226(5)
H16 H 0.2053 0.1906 0.9948
H6_4 H 0.9980 0.3907 0.0291
N10_2 N 0.79419(14) 0.08819(20) 0.7456(3)
C22_2 C 0.74172(19) 0.05038(28) 0.7100(5)
H14_2 H 0.7241 0.0594 0.6375
C23_2 C 0.81772(18) 0.07255(26) 0.8504(5)
H15_2 H 0.8546 0.0972 0.8751
C24_2 C 0.79094(19) 0.02280(28) 0.9226(5)
H16_2 H 0.8094 0.0146 0.9948
H6_5 H 0.6093 0.6072 0.0291
H6_6 H 0.3928 0.0020 0.0291
N10_3 N 0.91181(20) 0.70599(14) 0.7456(3)
C22_3 C 0.94962(28) 0.6913(2) 0.7100(5)
H14_3 H 0.9406 0.6646 0.6375
C23_3 C 0.92745(26) 0.74516(19) 0.8504(5)
H15_3 H 0.9028 0.7573 0.8751
C24_3 C 0.97720(28) 0.7681(2) 0.9226(5)
H16_3 H 0.9854 0.7947 0.9948
N1_4 N 0.80627(13) 0.68329(14) 0.8476(3)
N2_4 N 0.79723(14) 0.72420(14) 0.8973(3)
N4_2 N 0.81799(14) 0.59948(15) 0.7865(3)
C1_2 C 0.78728(18) 0.64344(18) 0.9495(4)
C3_2 C 0.79485(18) 0.59629(18) 0.9223(4)
C5_2 C 0.7941(2) 0.5123(2) 0.9811(6)
C6_2 C 0.8179(3) 0.5157(2) 0.8445(6)
H3_2 H 0.8263 0.4886 0.8161
C7_2 C 0.8290(2) 0.5589(2) 0.7512(5)
H4 H 0.8447 0.5601 0.6603
N6 N 0.86039(13) 0.65005(14) 0.4858(3)
N7 N 0.86943(14) 0.60914(14) 0.4361(3)
N8_2 N 0.90189(16) 0.67855(16) 0.2665(4)
N9 N 0.84867(14) 0.73386(15) 0.5469(3)
C13 C 0.87938(18) 0.68990(18) 0.3839(4)
C14_2 C 0.89493(17) 0.62824(17) 0.3054(4)
C15 C 0.87181(18) 0.73705(18) 0.4111(4)
C16_2 C 0.8838(2) 0.7792(2) 0.3132(5)
H9_2 H 0.8992 0.7798 0.2223
C17 C 0.8725(2) 0.8211(2) 0.3523(6)
H10_2 H 0.8806 0.8505 0.2890
C18 C 0.8487(3) 0.8177(2) 0.4889(6)
H11 H 0.8403 0.8448 0.5173
C19 C 0.8376(2) 0.7745(2) 0.5822(5)
H12_4 H 0.8219 0.7733 0.6731
C20_2 C 0.91504(17) 0.59737(17) 0.2212(4)
C21_2 C 0.9528(2) 0.62080(19) 0.1088(5)
H13_2 H 0.9632 0.6565 0.0766
C22_4 C 0.9753(2) 0.59162(19) 0.0434(5)
C23_4 C 0.92150(19) 0.51562(18) 0.1838(5)
H15_4 H 0.9093 0.4788 0.2085
C24_4 C 0.8985(2) 0.54240(19) 0.2560(5)
H16_4 H 0.8719 0.5240 0.3282
N1_5 N 0.31671(14) 0.12299(19) 0.8476(3)
N2_5 N 0.27580(14) 0.07304(20) 0.8973(3)
N4_3 N 0.40052(15) 0.21852(21) 0.7865(3)
C1_3 C 0.35656(18) 0.14385(25) 0.9495(4)
C3_3 C 0.40371(18) 0.19857(25) 0.9223(4)
C5_3 C 0.4877(2) 0.2819(3) 0.9811(6)
C6_3 C 0.4843(2) 0.3023(4) 0.8445(6)
H3_3 H 0.5114 0.3378 0.8161
C7_3 C 0.4411(2) 0.2702(3) 0.7512(5)
H4_2 H 0.4399 0.2847 0.6603
N6_2 N 0.34995(14) 0.21035(19) 0.4858(3)
N7_2 N 0.39086(14) 0.26030(20) 0.4361(3)
N8_3 N 0.32145(16) 0.22335(23) 0.2665(4)
N9_2 N 0.26614(15) 0.11482(21) 0.5469(3)
C13_2 C 0.31010(18) 0.18949(25) 0.3839(4)
C14_3 C 0.37176(17) 0.26670(24) 0.3054(4)
C15_2 C 0.26295(18) 0.13477(25) 0.4111(4)
C16_3 C 0.2208(2) 0.1047(3) 0.3132(5)
H9_3 H 0.2202 0.1195 0.2223
C17_2 C 0.1789(2) 0.0515(3) 0.3523(6)
H10_3 H 0.1495 0.0302 0.2890
C18_2 C 0.1823(2) 0.0311(4) 0.4889(6)
C19_2 C 0.2255(2) 0.0632(3) 0.5822(5)
H12_5 H 0.2267 0.0487 0.6731
C20_3 C 0.40263(17) 0.31768(24) 0.2212(4)
C21_3 C 0.37920(19) 0.33204(28) 0.1088(5)
H13_3 H 0.3435 0.3068 0.0766
C22_5 C 0.40838(19) 0.38372(28) 0.0434(5)
C23_5 C 0.48438(18) 0.40589(26) 0.1838(5)
H15_5 H 0.5212 0.4306 0.2085
C24_5 C 0.45760(19) 0.35614(28) 0.2560(5)
H16_5 H 0.4760 0.3480 0.3282
N1_6 N 0.87701(19) 0.19373(13) 0.8476(3)
N2_6 N 0.92696(20) 0.20277(14) 0.8973(3)
N4_4 N 0.78148(21) 0.18201(14) 0.7865(3)
C1_4 C 0.85615(25) 0.21272(18) 0.9495(4)
C3_4 C 0.80143(25) 0.20515(18) 0.9223(4)
C5_4 C 0.7181(3) 0.2059(2) 0.9811(6)
C6_4 C 0.6977(4) 0.1821(3) 0.8445(6)
H3_4 H 0.6622 0.1737 0.8161
C7_4 C 0.7298(3) 0.1710(2) 0.7512(5)
H4_3 H 0.7153 0.1553 0.6603
N6_3 N 0.78965(19) 0.13961(13) 0.4858(3)
N7_3 N 0.73970(20) 0.13057(14) 0.4361(3)
N8_4 N 0.77665(23) 0.09811(16) 0.2665(4)
N9_3 N 0.88518(21) 0.15133(14) 0.5469(3)
C13_3 C 0.81051(25) 0.12062(18) 0.3839(4)
C14_4 C 0.73330(24) 0.10507(17) 0.3054(4)
C15_3 C 0.86523(25) 0.12819(18) 0.4111(4)
C16_4 C 0.8953(3) 0.1162(2) 0.3132(5)
H9_4 H 0.8805 0.1008 0.2223
C17_3 C 0.9485(3) 0.1275(2) 0.3523(6)
H10_4 H 0.9698 0.1194 0.2890
C18_3 C 0.9689(4) 0.1513(3) 0.4889(6)
C19_3 C 0.9368(3) 0.1624(2) 0.5822(5)
H12_6 H 0.9513 0.1781 0.6731
C20_4 C 0.68232(24) 0.08496(17) 0.2212(4)
C21_4 C 0.66796(28) 0.0472(2) 0.1088(5)
H13_4 H 0.6932 0.0368 0.0766
C22_6 C 0.61628(28) 0.0247(2) 0.0434(5)
C23_6 C 0.59411(26) 0.07850(19) 0.1838(5)
H15_6 H 0.5694 0.0907 0.2085
C24_6 C 0.64386(28) 0.1015(2) 0.2560(5)
H16_6 H 0.6520 0.1281 0.3282
Fe1_4 Fe 0.5000 -0.0000 1.0000
N8_5 N 0.56856(16) 0.01188(16) 0.5998(4)
N9_4 N 0.51534(14) 0.06719(15) 0.8802(3)
C13_4 C 0.54605(18) 0.02323(18) 0.7172(4)
C15_4 C 0.53848(18) 0.07038(18) 0.7444(4)
C16_5 C 0.5505(2) 0.1125(2) 0.6465(5)
H9_5 H 0.5659 0.1131 0.5556
C17_4 C 0.5392(2) 0.1544(2) 0.6856(6)
H10_5 H 0.5473 0.1838 0.6223
C18_4 C 0.5154(3) 0.1510(2) 0.8222(6)
H11_2 H 0.5070 0.1781 0.8506
C19_4 C 0.5043(2) 0.1078(2) 0.9155(5)
Fe1_5 Fe 0.5000 1.0000 0.0000
N3_2 N 0.43144(16) 0.98812(16) 0.4002(4)
N4_5 N 0.48466(14) 0.93281(15) 0.1198(3)
C1_5 C 0.45395(18) 0.97677(18) 0.2828(4)
C3_5 C 0.46152(18) 0.92962(18) 0.2556(4)
C4_2 C 0.4495(2) 0.8875(2) 0.3535(5)
H1_2 H 0.4341 0.8869 0.4444
C5_5 C 0.4608(2) 0.8456(2) 0.3144(6)
H2_2 H 0.4527 0.8162 0.3777
C6_5 C 0.4846(3) 0.8490(2) 0.1778(6)
H3_5 H 0.4930 0.8219 0.1494
C7_5 C 0.4957(2) 0.8922(2) 0.0845(5)
Fe1_6 Fe 0.5000 1.0000 1.0000
H4_4 H 0.5114 0.8934 0.9936
Fe2 Fe 0.6667 0.8333 0.3333
N6_4 N 0.52706(13) 0.98338(14) 0.8191(3)
N7_4 N 0.53610(14) 0.94247(14) 0.7694(3)
N10_4 N 0.62734(14) 0.87248(14) 0.4123(3)
N11 N 0.42153(20) 0.96067(14) 0.9210(3)
C14_5 C 0.56160(17) 0.96157(17) 0.6387(4)
C20_5 C 0.58171(17) 0.93070(17) 0.5545(4)
C21_5 C 0.6195(2) 0.95413(19) 0.4421(5)
H13_5 H 0.6299 0.9898 0.4099
C22_7 C 0.6420(2) 0.92495(19) 0.3767(5)
H14_4 H 0.6687 0.9426 0.3042
C23_7 C 0.58817(19) 0.84895(18) 0.5171(5)
H15_7 H 0.5760 0.8121 0.5418
C24_7 C 0.5652(2) 0.87573(19) 0.5893(5)
H16_7 H 0.5386 0.8573 0.6615
Fe1_7 Fe 0.0000 0.5000 1.0000
H4_5 H 0.1066 0.6180 0.9936
Fe2_2 Fe 0.1667 0.8333 0.3333
N6_5 N 0.01662(14) 0.54368(19) 0.8191(3)
N7_5 N 0.05753(14) 0.59363(20) 0.7694(3)
N10_5 N 0.12752(14) 0.75486(20) 0.4123(3)
N11_2 N 0.03933(14) 0.46085(24) 0.9210(3)
C14_6 C 0.03843(17) 0.60003(24) 0.6387(4)
C20_6 C 0.06930(17) 0.65101(24) 0.5545(4)
C21_6 C 0.04587(19) 0.66537(28) 0.4421(5)
H13_6 H 0.0102 0.6401 0.4099
C22_8 C 0.07505(19) 0.71705(28) 0.3767(5)
H14_5 H 0.0574 0.7261 0.3042
C23_8 C 0.15105(18) 0.73922(26) 0.5171(5)
H15_8 H 0.1879 0.7639 0.5418
C24_8 C 0.12427(19) 0.68947(28) 0.5893(5)
H16_8 H 0.1427 0.6813 0.6615
Fe1_8 Fe 0.5000 0.5000 1.0000
H4_6 H 0.3820 0.4886 0.9936
Fe2_3 Fe 0.1667 0.3333 0.3333
N6_6 N 0.45632(19) 0.47294(13) 0.8191(3)
N7_6 N 0.40637(20) 0.46390(14) 0.7694(3)
N8_6 N 0.44332(23) 0.43144(16) 0.5998(4)
N9_5 N 0.55185(21) 0.48466(14) 0.8802(3)
N10_6 N 0.24514(20) 0.37266(14) 0.4123(3)
N11_3 N 0.53915(24) 0.57847(20) 0.9210(3)
C13_5 C 0.47718(25) 0.45395(18) 0.7172(4)
C14_7 C 0.39997(24) 0.43840(17) 0.6387(4)
C15_5 C 0.53190(25) 0.46152(18) 0.7444(4)
C16_6 C 0.5620(3) 0.4495(2) 0.6465(5)
H9_6 H 0.5472 0.4341 0.5556
C17_5 C 0.6152(3) 0.4608(2) 0.6856(6)
H10_6 H 0.6365 0.4527 0.6223
C18_5 C 0.6356(4) 0.4846(3) 0.8222(6)
H11_3 H 0.6711 0.4930 0.8506
C19_5 C 0.6035(3) 0.4957(2) 0.9155(5)
C20_7 C 0.34899(24) 0.41829(17) 0.5545(4)
C21_7 C 0.33463(28) 0.3805(2) 0.4421(5)
H13_7 H 0.3599 0.3701 0.4099
C22_9 C 0.28295(28) 0.3580(2) 0.3767(5)
H14_6 H 0.2739 0.3313 0.3042
C23_9 C 0.26078(26) 0.41183(19) 0.5171(5)
H15_9 H 0.2361 0.4240 0.5418
C24_9 C 0.31053(28) 0.4348(2) 0.5893(5)
H16_9 H 0.3187 0.4614 0.6615
N1_7 N 0.13961(13) 0.34995(14) 0.5142(3)
N2_7 N 0.13057(14) 0.39086(14) 0.5639(3)
N3_3 N 0.09811(16) 0.32145(16) 0.7335(4)
N4_6 N 0.15133(14) 0.26614(15) 0.4531(3)
C1_6 C 0.12062(18) 0.31010(18) 0.6161(4)
C2_4 C 0.10507(17) 0.37176(17) 0.6946(4)
C3_6 C 0.12819(18) 0.26295(18) 0.5889(4)
C4_3 C 0.1162(2) 0.2208(2) 0.6868(5)
H1_3 H 0.1008 0.2202 0.7777
C5_6 C 0.1275(2) 0.1789(2) 0.6477(6)
H2_3 H 0.1194 0.1495 0.7110
C6_6 C 0.1513(3) 0.1823(2) 0.5111(6)
H3_6 H 0.1597 0.1552 0.4827
C7_6 C 0.1624(2) 0.2255(2) 0.4178(5)
H4_7 H 0.1781 0.2267 0.3269
C8_4 C 0.08496(17) 0.40263(17) 0.7788(4)
C9_4 C 0.0472(2) 0.37920(19) 0.8912(5)
H5_4 H 0.0368 0.3435 0.9234
C10_4 C 0.0247(2) 0.40838(19) 0.9566(5)
C11_4 C 0.07850(19) 0.48438(18) 0.8162(5)
H7_4 H 0.0907 0.5212 0.7915
C12_4 C 0.1015(2) 0.45760(19) 0.7440(5)
H8_4 H 0.1281 0.4760 0.6718
N6_7 N 0.19373(13) 0.31671(14) 0.1524(3)
N7_7 N 0.20277(14) 0.27580(14) 0.1027(3)
N9_6 N 0.18201(14) 0.40052(15) 0.2135(3)
N11_4 N 0.08819(20) 0.29401(14) 0.2544(3)
C13_6 C 0.21272(18) 0.35656(18) 0.0505(4)
C15_6 C 0.20515(18) 0.40371(18) 0.0777(4)
C17_6 C 0.2059(2) 0.4877(2) 0.0189(6)
C18_6 C 0.1821(3) 0.4843(2) 0.1555(6)
H11_4 H 0.1737 0.5114 0.1839
C19_6 C 0.1710(2) 0.4411(2) 0.2488(5)
H12_7 H 0.1553 0.4399 0.3397
N1_8 N 0.65005(14) 0.78965(19) 0.5142(3)
N2_8 N 0.60914(14) 0.73970(20) 0.5639(3)
N3_4 N 0.67855(16) 0.77665(23) 0.7335(4)
N4_7 N 0.73386(15) 0.88518(21) 0.4531(3)
C1_7 C 0.68990(18) 0.81051(25) 0.6161(4)
C2_5 C 0.62824(17) 0.73330(24) 0.6946(4)
C3_7 C 0.73705(18) 0.86523(25) 0.5889(4)
C4_4 C 0.7792(2) 0.8953(3) 0.6868(5)
H1_4 H 0.7798 0.8805 0.7777
C5_7 C 0.8211(2) 0.9485(3) 0.6477(6)
H2_4 H 0.8505 0.9698 0.7110
C6_7 C 0.8177(2) 0.9689(4) 0.5111(6)
C7_7 C 0.7745(2) 0.9368(3) 0.4178(5)
H4_8 H 0.7733 0.9513 0.3269
C8_5 C 0.59737(17) 0.68232(24) 0.7788(4)
C9_5 C 0.62080(19) 0.66796(28) 0.8912(5)
H5_5 H 0.6565 0.6932 0.9234
C10_5 C 0.59162(19) 0.61628(28) 0.9566(5)
C11_5 C 0.51562(18) 0.59411(26) 0.8162(5)
H7_5 H 0.4788 0.5694 0.7915
C12_5 C 0.54240(19) 0.64386(28) 0.7440(5)
H8_5 H 0.5240 0.6520 0.6718
N6_8 N 0.68329(14) 0.87701(19) 0.1524(3)
N7_8 N 0.72420(14) 0.92696(20) 0.1027(3)
N9_7 N 0.59948(15) 0.78148(21) 0.2135(3)
N11_5 N 0.70599(14) 0.79419(24) 0.2544(3)
C13_7 C 0.64344(18) 0.85615(25) 0.0505(4)
C15_7 C 0.59629(18) 0.80143(25) 0.0777(4)
C17_7 C 0.5123(2) 0.7181(3) 0.0189(6)
C18_7 C 0.5157(2) 0.6977(4) 0.1555(6)
H11_5 H 0.4886 0.6622 0.1839
C19_7 C 0.5589(2) 0.7298(3) 0.2488(5)
H12_8 H 0.5601 0.7153 0.3397
N1_9 N 0.21035(19) 0.86039(13) 0.5142(3)
N2_9 N 0.26030(20) 0.86943(14) 0.5639(3)
N3_5 N 0.22335(23) 0.90189(16) 0.7335(4)
N4_8 N 0.11482(21) 0.84867(14) 0.4531(3)
C1_8 C 0.18949(25) 0.87938(18) 0.6161(4)
C2_6 C 0.26670(24) 0.89493(17) 0.6946(4)
C3_8 C 0.13477(25) 0.87181(18) 0.5889(4)
C4_5 C 0.1047(3) 0.8838(2) 0.6868(5)
H1_5 H 0.1195 0.8992 0.7777
C5_8 C 0.0515(3) 0.8725(2) 0.6477(6)
H2_5 H 0.0302 0.8806 0.7110
C6_8 C 0.0311(4) 0.8487(3) 0.5111(6)
C7_8 C 0.0632(3) 0.8376(2) 0.4178(5)
H4_9 H 0.0487 0.8219 0.3269
C8_6 C 0.31768(24) 0.91504(17) 0.7788(4)
C9_6 C 0.33204(28) 0.9528(2) 0.8912(5)
H5_6 H 0.3068 0.9632 0.9234
C10_6 C 0.38372(28) 0.9753(2) 0.9566(5)
C11_6 C 0.40589(26) 0.92150(19) 0.8162(5)
H7_6 H 0.4306 0.9093 0.7915
C12_6 C 0.35614(28) 0.8985(2) 0.7440(5)
H8_6 H 0.3480 0.8719 0.6718
N6_9 N 0.12299(19) 0.80627(13) 0.1524(3)
N7_9 N 0.07304(20) 0.79723(14) 0.1027(3)
N9_8 N 0.21852(21) 0.81799(14) 0.2135(3)
N11_6 N 0.20581(24) 0.91181(20) 0.2544(3)
C13_8 C 0.14385(25) 0.78728(18) 0.0505(4)
C15_8 C 0.19857(25) 0.79485(18) 0.0777(4)
C17_8 C 0.2819(3) 0.7941(2) 0.0189(6)
C18_8 C 0.3023(4) 0.8179(3) 0.1555(6)
H11_6 H 0.3378 0.8263 0.1839
C19_8 C 0.2702(3) 0.8290(2) 0.2488(5)
H12_9 H 0.2847 0.8447 0.3397
H14_7 H 0.0020 0.6093 0.9709
N3_6 N 0.76477(16) 0.65479(16) 0.0669(4)
C2_7 C 0.77173(17) 0.70510(17) 0.0280(4)
C4_6 C 0.7828(2) 0.5542(2) 0.0202(5)
H1_6 H 0.7674 0.5536 0.1111
H2_6 H 0.7860 0.4829 0.0444
C8_7 C 0.75162(17) 0.73597(17) 0.1122(4)
C9_7 C 0.7138(2) 0.71254(19) 0.2246(5)
H5_7 H 0.7034 0.6769 0.2568
C10_7 C 0.6913(2) 0.74172(19) 0.2900(5)
H6_7 H 0.6646 0.7241 0.3625
C11_7 C 0.74516(19) 0.81772(18) 0.1496(5)
H7_7 H 0.7573 0.8546 0.1249
C12_7 C 0.7681(2) 0.79094(19) 0.0774(5)
H8_7 H 0.7947 0.8094 0.0052
H14_8 H 0.3907 0.3928 0.9709
C10_8 C 0.25828(19) 0.94962(28) 0.2900(5)
H6_8 H 0.2759 0.9406 0.3625
C11_8 C 0.18228(18) 0.92745(26) 0.1496(5)
H7_8 H 0.1454 0.9028 0.1249
C12_8 C 0.20906(19) 0.97720(28) 0.0774(5)
H8_8 H 0.1906 0.9854 0.0052
C10_9 C 0.05038(28) 0.3087(2) 0.2900(5)
H6_9 H 0.0594 0.3354 0.3625
C11_9 C 0.07255(26) 0.25484(19) 0.1496(5)
H7_9 H 0.0972 0.2427 0.1249
C12_9 C 0.02280(28) 0.2319(2) 0.0774(5)
H8_9 H 0.0146 0.2053 0.0052
H14_9 H 0.6072 0.9980 0.9709
Fe1_9 Fe 0.0000 0.5000 0.0000
N3_7 N 0.01188(16) 0.44332(23) 0.4002(4)
N4_9 N 0.06719(15) 0.55185(21) 0.1198(3)
C1_9 C 0.02323(18) 0.47718(25) 0.2828(4)
C3_9 C 0.07038(18) 0.53190(25) 0.2556(4)
C4_7 C 0.1125(2) 0.5620(3) 0.3535(5)
H1_7 H 0.1131 0.5472 0.4444
C5_9 C 0.1544(2) 0.6152(3) 0.3144(6)
H2_7 H 0.1838 0.6365 0.3777
C6_9 C 0.1510(2) 0.6356(4) 0.1778(6)
H3_7 H 0.1781 0.6711 0.1494
C7_9 C 0.1078(2) 0.6035(3) 0.0845(5)
Fe1_10 Fe 1.0000 0.5000 1.0000
N8_7 N 0.98812(16) 0.55668(23) 0.5998(4)
N9_9 N 0.93281(15) 0.44815(21) 0.8802(3)
C13_9 C 0.97677(18) 0.52282(25) 0.7172(4)
C15_9 C 0.92962(18) 0.46810(25) 0.7444(4)
C16_7 C 0.8875(2) 0.4380(3) 0.6465(5)
H9_7 H 0.8869 0.4528 0.5556
C17_9 C 0.8456(2) 0.3848(3) 0.6856(6)
H10_7 H 0.8162 0.3635 0.6223
C18_9 C 0.8490(2) 0.3644(4) 0.8222(6)
H11_7 H 0.8219 0.3289 0.8506
C19_9 C 0.8922(2) 0.3965(3) 0.9155(5)
H3_8 H 0.8448 0.0044 0.4827
N8_8 N 0.65479(16) 0.89001(23) 0.9331(4)
C14_8 C 0.70510(17) 0.93336(24) 0.9720(4)
C16_8 C 0.5542(2) 0.7713(3) 0.9798(5)
H9_8 H 0.5536 0.7861 0.8889
H10_8 H 0.4829 0.6968 0.9556
C20_8 C 0.73597(17) 0.98434(24) 0.8878(4)
C21_8 C 0.71254(19) 0.99870(28) 0.7754(5)
H13_8 H 0.6769 0.9734 0.7432
N8_9 N 0.10999(23) 0.76477(16) 0.9331(4)
C14_9 C 0.06664(24) 0.77173(17) 0.9720(4)
C16_9 C 0.2287(3) 0.7828(2) 0.9798(5)
H9_9 H 0.2139 0.7674 0.8889
H10_9 H 0.3032 0.7860 0.9556
C20_9 C 0.01566(24) 0.75162(17) 0.8878(4)
C21_9 C 0.00130(28) 0.7138(2) 0.7754(5)
H13_9 H 0.0266 0.7034 0.7432
H3_9 H 0.9956 0.8403 0.4827
N3_8 N 0.34521(16) 0.10999(23) 0.0669(4)
C2_8 C 0.29490(17) 0.06664(24) 0.0280(4)
C4_8 C 0.4458(2) 0.2287(3) 0.0202(5)
H1_8 H 0.4464 0.2139 0.1111
H2_8 H 0.5171 0.3032 0.0444
C8_8 C 0.26403(17) 0.01566(24) 0.1122(4)
C9_8 C 0.28746(19) 0.00130(28) 0.2246(5)
H5_8 H 0.3231 0.0266 0.2568
H11_8 H 0.1552 0.9956 0.5173
H11_9 H 0.0044 0.1597 0.5173
N3_9 N 0.89001(23) 0.23523(16) 0.0669(4)
C2_9 C 0.93336(24) 0.22827(17) 0.0280(4)
C4_9 C 0.7713(3) 0.2172(2) 0.0202(5)
H1_9 H 0.7861 0.2326 0.1111
H2_9 H 0.6968 0.2140 0.0444
C8_9 C 0.98434(24) 0.24838(17) 0.1122(4)
C9_9 C 0.99870(28) 0.2862(2) 0.2246(5)
H5_9 H 0.9734 0.2966 0.2568
loop_
_geom_bond_atom_site_label_1
_geom_bond_atom_site_label_2
_geom_bond_site_symmetry_1
_geom_bond_site_symmetry_2
Fe1 N1 1_555 1_555
N1 N2 1_555 1_555
N2 C2 1_555 1_555
N5 C10 1_555 1_555
C8 C2 1_555 1_555
C9 C8 1_555 1_555
H5 C9 1_555 1_555
C10 C9 1_555 1_555
H6 C10 1_555 1_555
C11 N5 1_555 1_555
H7 C11 1_555 1_555
C12 C8 1_555 1_555
H8 C12 1_555 1_555
Fe3 N5 1_555 1_555
N12 Fe1 1_555 1_555
C11 C12 1_555 1_555
Fe1_2 N1_2 1_555 1_555
N1_2 N2_2 1_555 1_555
N2_2 C2_2 1_555 1_555
N5_2 C10_2 1_555 1_555
C8_2 C2_2 1_555 1_555
C9_2 C8_2 1_555 1_555
H5_2 C9_2 1_555 1_555
C10_2 C9_2 1_555 1_555
H6_2 C10_2 1_555 1_555
C11_2 N5_2 1_555 1_555
H7_2 C11_2 1_555 1_555
C12_2 C8_2 1_555 1_555
H8_2 C12_2 1_555 1_555
Fe3_2 N5_2 1_555 1_555
N12_2 Fe1_2 1_555 1_555
C11_2 C12_2 1_555 1_555
Fe1_3 N1_3 1_555 1_555
N1_3 N2_3 1_555 1_555
N2_3 C2_3 1_555 1_555
N3 C1 1_555 1_555
N4 Fe1_3 1_555 1_555
N5_3 C10_3 1_555 1_555
C1 N1_3 1_555 1_555
C2_3 N3 1_555 1_555
C3 N4 1_555 1_555
C4 C3 1_555 1_555
H1 C4 1_555 1_555
C5 C4 1_555 1_555
H2 C5 1_555 1_555
C6 C5 1_555 1_555
H3 C6 1_555 1_555
C7 N4 1_555 1_555
C8_3 C2_3 1_555 1_555
C9_3 C8_3 1_555 1_555
H5_3 C9_3 1_555 1_555
C10_3 C9_3 1_555 1_555
H6_3 C10_3 1_555 1_555
C11_3 N5_3 1_555 1_555
H7_3 C11_3 1_555 1_555
C12_3 C8_3 1_555 1_555
H8_3 C12_3 1_555 1_555
Fe3_3 N5_3 1_555 1_555
N12_3 Fe1_3 1_555 1_555
C1 C3 1_555 1_555
C6 C7 1_555 1_555
C11_3 C12_3 1_555 1_555
Fe3 N10 1_555 1_555
N10 C22 1_555 1_555
H9 C16 1_555 1_555
C20 C14 1_555 1_555
C21 C20 1_555 1_555
H13 C21 1_555 1_555
C22 C21 1_555 1_555
H14 C22 1_555 1_555
C23 N10 1_555 1_555
H15 C23 1_555 1_555
C24 C20 1_555 1_555
H16 C24 1_555 1_555
N8 C14 1_555 1_555
C23 C24 1_555 1_555
Fe3_2 N10_2 1_555 1_555
N10_2 C22_2 1_555 1_555
H14_2 C22_2 1_555 1_555
C23_2 N10_2 1_555 1_555
H15_2 C23_2 1_555 1_555
H16_2 C24_2 1_555 1_555
C23_2 C24_2 1_555 1_555
Fe3_3 N10_3 1_555 1_555
N10_3 C22_3 1_555 1_555
H14_3 C22_3 1_555 1_555
C23_3 N10_3 1_555 1_555
H15_3 C23_3 1_555 1_555
H16_3 C24_3 1_555 1_555
C23_3 C24_3 1_555 1_555
Fe3_3 N1_4 1_555 1_555
N1_4 N2_4 1_555 1_555
N4_2 Fe3_3 1_555 1_555
C1_2 N1_4 1_555 1_555
C3_2 N4_2 1_555 1_555
C6_2 C5_2 1_555 1_555
H3_2 C6_2 1_555 1_555
C7_2 N4_2 1_555 1_555
H4 C7_2 1_555 1_555
N6 Fe3_3 1_555 1_555
N7 N6 1_555 1_555
N8_2 C13 1_555 1_555
N9 Fe3_3 1_555 1_555
N12_2 C22_4 1_555 1_555
C13 N6 1_555 1_555
C14_2 N7 1_555 1_555
C15 N9 1_555 1_555
C16_2 C15 1_555 1_555
H9_2 C16_2 1_555 1_555
C17 C16_2 1_555 1_555
H10_2 C17 1_555 1_555
C18 C17 1_555 1_555
H11 C18 1_555 1_555
C19 N9 1_555 1_555
H12_4 C19 1_555 1_555
C20_2 C14_2 1_555 1_555
C21_2 C20_2 1_555 1_555
H13_2 C21_2 1_555 1_555
C22_4 C21_2 1_555 1_555
C23_4 N12_2 1_555 1_555
H15_4 C23_4 1_555 1_555
C24_4 C20_2 1_555 1_555
H16_4 C24_4 1_555 1_555
C1_2 C3_2 1_555 1_555
C6_2 C7_2 1_555 1_555
N8_2 C14_2 1_555 1_555
C13 C15 1_555 1_555
C18 C19 1_555 1_555
C23_4 C24_4 1_555 1_555
Fe3 N1_5 1_555 1_555
N1_5 N2_5 1_555 1_555
N4_3 Fe3 1_555 1_555
C1_3 N1_5 1_555 1_555
C3_3 N4_3 1_555 1_555
C6_3 C5_3 1_555 1_555
H3_3 C6_3 1_555 1_555
C7_3 N4_3 1_555 1_555
H4_2 C7_3 1_555 1_555
N6_2 Fe3 1_555 1_555
N7_2 N6_2 1_555 1_555
N8_3 C13_2 1_555 1_555
N9_2 Fe3 1_555 1_555
N12_3 C22_5 1_555 1_555
C13_2 N6_2 1_555 1_555
C14_3 N7_2 1_555 1_555
C15_2 N9_2 1_555 1_555
C16_3 C15_2 1_555 1_555
H9_3 C16_3 1_555 1_555
C17_2 C16_3 1_555 1_555
H10_3 C17_2 1_555 1_555
C18_2 C17_2 1_555 1_555
C19_2 N9_2 1_555 1_555
H12_5 C19_2 1_555 1_555
C20_3 C14_3 1_555 1_555
C21_3 C20_3 1_555 1_555
H13_3 C21_3 1_555 1_555
C22_5 C21_3 1_555 1_555
C23_5 N12_3 1_555 1_555
H15_5 C23_5 1_555 1_555
C24_5 C20_3 1_555 1_555
H16_5 C24_5 1_555 1_555
C1_3 C3_3 1_555 1_555
C6_3 C7_3 1_555 1_555
N8_3 C14_3 1_555 1_555
C13_2 C15_2 1_555 1_555
C18_2 C19_2 1_555 1_555
C23_5 C24_5 1_555 1_555
Fe3_2 N1_6 1_555 1_555
N1_6 N2_6 1_555 1_555
N4_4 Fe3_2 1_555 1_555
C1_4 N1_6 1_555 1_555
C3_4 N4_4 1_555 1_555
C6_4 C5_4 1_555 1_555
H3_4 C6_4 1_555 1_555
C7_4 N4_4 1_555 1_555
H4_3 C7_4 1_555 1_555
N6_3 Fe3_2 1_555 1_555
N7_3 N6_3 1_555 1_555
N8_4 C13_3 1_555 1_555
N9_3 Fe3_2 1_555 1_555
N12 C22_6 1_555 1_555
C13_3 N6_3 1_555 1_555
C14_4 N7_3 1_555 1_555
C15_3 N9_3 1_555 1_555
C16_4 C15_3 1_555 1_555
H9_4 C16_4 1_555 1_555
C17_3 C16_4 1_555 1_555
H10_4 C17_3 1_555 1_555
C18_3 C17_3 1_555 1_555
C19_3 N9_3 1_555 1_555
H12_6 C19_3 1_555 1_555
C20_4 C14_4 1_555 1_555
C21_4 C20_4 1_555 1_555
H13_4 C21_4 1_555 1_555
C22_6 C21_4 1_555 1_555
C23_6 N12 1_555 1_555
H15_6 C23_6 1_555 1_555
C24_6 C20_4 1_555 1_555
H16_6 C24_6 1_555 1_555
C1_4 C3_4 1_555 1_555
C6_4 C7_4 1_555 1_555
N8_4 C14_4 1_555 1_555
C13_3 C15_3 1_555 1_555
C18_3 C19_3 1_555 1_555
C23_6 C24_6 1_555 1_555
N8_5 C13_4 1_555 1_555
N9_4 Fe1_4 1_555 1_555
C15_4 N9_4 1_555 1_555
C16_5 C15_4 1_555 1_555
H9_5 C16_5 1_555 1_555
C17_4 C16_5 1_555 1_555
H10_5 C17_4 1_555 1_555
C18_4 C17_4 1_555 1_555
H11_2 C18_4 1_555 1_555
C19_4 N9_4 1_555 1_555
C13_4 C15_4 1_555 1_555
C18_4 C19_4 1_555 1_555
N3_2 C1_5 1_555 1_555
N4_5 Fe1_5 1_555 1_555
C3_5 N4_5 1_555 1_555
C4_2 C3_5 1_555 1_555
H1_2 C4_2 1_555 1_555
C5_5 C4_2 1_555 1_555
H2_2 C5_5 1_555 1_555
C6_5 C5_5 1_555 1_555
H3_5 C6_5 1_555 1_555
C7_5 N4_5 1_555 1_555
C1_5 C3_5 1_555 1_555
C6_5 C7_5 1_555 1_555
Fe2 N10_4 1_555 1_555
N6_4 Fe1_6 1_555 1_555
N7_4 N6_4 1_555 1_555
N10_4 C22_7 1_555 1_555
N11 Fe1_6 1_555 1_555
C14_5 N7_4 1_555 1_555
C20_5 C14_5 1_555 1_555
C21_5 C20_5 1_555 1_555
H13_5 C21_5 1_555 1_555
C22_7 C21_5 1_555 1_555
H14_4 C22_7 1_555 1_555
C23_7 N10_4 1_555 1_555
H15_7 C23_7 1_555 1_555
C24_7 C20_5 1_555 1_555
H16_7 C24_7 1_555 1_555
C23_7 C24_7 1_555 1_555
Fe2_2 N10_5 1_555 1_555
N6_5 Fe1_7 1_555 1_555
N7_5 N6_5 1_555 1_555
N10_5 C22_8 1_555 1_555
N11_2 Fe1_7 1_555 1_555
C14_6 N7_5 1_555 1_555
C20_6 C14_6 1_555 1_555
C21_6 C20_6 1_555 1_555
H13_6 C21_6 1_555 1_555
C22_8 C21_6 1_555 1_555
H14_5 C22_8 1_555 1_555
C23_8 N10_5 1_555 1_555
H15_8 C23_8 1_555 1_555
C24_8 C20_6 1_555 1_555
H16_8 C24_8 1_555 1_555
C23_8 C24_8 1_555 1_555
Fe2_3 N10_6 1_555 1_555
N6_6 Fe1_8 1_555 1_555
N7_6 N6_6 1_555 1_555
N8_6 C13_5 1_555 1_555
N9_5 Fe1_8 1_555 1_555
N10_6 C22_9 1_555 1_555
N11_3 Fe1_8 1_555 1_555
C13_5 N6_6 1_555 1_555
C14_7 N7_6 1_555 1_555
C15_5 N9_5 1_555 1_555
C16_6 C15_5 1_555 1_555
H9_6 C16_6 1_555 1_555
C17_5 C16_6 1_555 1_555
H10_6 C17_5 1_555 1_555
C18_5 C17_5 1_555 1_555
H11_3 C18_5 1_555 1_555
C19_5 N9_5 1_555 1_555
C20_7 C14_7 1_555 1_555
C21_7 C20_7 1_555 1_555
H13_7 C21_7 1_555 1_555
C22_9 C21_7 1_555 1_555
H14_6 C22_9 1_555 1_555
C23_9 N10_6 1_555 1_555
H15_9 C23_9 1_555 1_555
C24_9 C20_7 1_555 1_555
H16_9 C24_9 1_555 1_555
N8_6 C14_7 1_555 1_555
C13_5 C15_5 1_555 1_555
C18_5 C19_5 1_555 1_555
C23_9 C24_9 1_555 1_555
Fe2_3 N1_7 1_555 1_555
N1_7 N2_7 1_555 1_555
N2_7 C2_4 1_555 1_555
N3_3 C1_6 1_555 1_555
N4_6 Fe2_3 1_555 1_555
N11_2 C10_4 1_555 1_555
C1_6 N1_7 1_555 1_555
C2_4 N3_3 1_555 1_555
C3_6 N4_6 1_555 1_555
C4_3 C3_6 1_555 1_555
H1_3 C4_3 1_555 1_555
C5_6 C4_3 1_555 1_555
H2_3 C5_6 1_555 1_555
C6_6 C5_6 1_555 1_555
H3_6 C6_6 1_555 1_555
C7_6 N4_6 1_555 1_555
H4_7 C7_6 1_555 1_555
C8_4 C2_4 1_555 1_555
C9_4 C8_4 1_555 1_555
H5_4 C9_4 1_555 1_555
C10_4 C9_4 1_555 1_555
C11_4 N11_2 1_555 1_555
H7_4 C11_4 1_555 1_555
C12_4 C8_4 1_555 1_555
H8_4 C12_4 1_555 1_555
N6_7 Fe2_3 1_555 1_555
N7_7 N6_7 1_555 1_555
N9_6 Fe2_3 1_555 1_555
N11_4 Fe2_3 1_555 1_555
C13_6 N6_7 1_555 1_555
C15_6 N9_6 1_555 1_555
C18_6 C17_6 1_555 1_555
H11_4 C18_6 1_555 1_555
C19_6 N9_6 1_555 1_555
H12_7 C19_6 1_555 1_555
C1_6 C3_6 1_555 1_555
C6_6 C7_6 1_555 1_555
C11_4 C12_4 1_555 1_555
C13_6 C15_6 1_555 1_555
C18_6 C19_6 1_555 1_555
Fe2 N1_8 1_555 1_555
N1_8 N2_8 1_555 1_555
N2_8 C2_5 1_555 1_555
N3_4 C1_7 1_555 1_555
N4_7 Fe2 1_555 1_555
N11_3 C10_5 1_555 1_555
C1_7 N1_8 1_555 1_555
C2_5 N3_4 1_555 1_555
C3_7 N4_7 1_555 1_555
C4_4 C3_7 1_555 1_555
H1_4 C4_4 1_555 1_555
C5_7 C4_4 1_555 1_555
H2_4 C5_7 1_555 1_555
C6_7 C5_7 1_555 1_555
C7_7 N4_7 1_555 1_555
H4_8 C7_7 1_555 1_555
C8_5 C2_5 1_555 1_555
C9_5 C8_5 1_555 1_555
H5_5 C9_5 1_555 1_555
C10_5 C9_5 1_555 1_555
C11_5 N11_3 1_555 1_555
H7_5 C11_5 1_555 1_555
C12_5 C8_5 1_555 1_555
H8_5 C12_5 1_555 1_555
N6_8 Fe2 1_555 1_555
N7_8 N6_8 1_555 1_555
N9_7 Fe2 1_555 1_555
N11_5 Fe2 1_555 1_555
C13_7 N6_8 1_555 1_555
C15_7 N9_7 1_555 1_555
C18_7 C17_7 1_555 1_555
H11_5 C18_7 1_555 1_555
C19_7 N9_7 1_555 1_555
H12_8 C19_7 1_555 1_555
C1_7 C3_7 1_555 1_555
C6_7 C7_7 1_555 1_555
C11_5 C12_5 1_555 1_555
C13_7 C15_7 1_555 1_555
C18_7 C19_7 1_555 1_555
Fe2_2 N1_9 1_555 1_555
N1_9 N2_9 1_555 1_555
N2_9 C2_6 1_555 1_555
N3_5 C1_8 1_555 1_555
N4_8 Fe2_2 1_555 1_555
N11 C10_6 1_555 1_555
C1_8 N1_9 1_555 1_555
C2_6 N3_5 1_555 1_555
C3_8 N4_8 1_555 1_555
C4_5 C3_8 1_555 1_555
H1_5 C4_5 1_555 1_555
C5_8 C4_5 1_555 1_555
H2_5 C5_8 1_555 1_555
C6_8 C5_8 1_555 1_555
C7_8 N4_8 1_555 1_555
H4_9 C7_8 1_555 1_555
C8_6 C2_6 1_555 1_555
C9_6 C8_6 1_555 1_555
H5_6 C9_6 1_555 1_555
C10_6 C9_6 1_555 1_555
C11_6 N11 1_555 1_555
H7_6 C11_6 1_555 1_555
C12_6 C8_6 1_555 1_555
H8_6 C12_6 1_555 1_555
N6_9 Fe2_2 1_555 1_555
N7_9 N6_9 1_555 1_555
N9_8 Fe2_2 1_555 1_555
N11_6 Fe2_2 1_555 1_555
C13_8 N6_9 1_555 1_555
C15_8 N9_8 1_555 1_555
C18_8 C17_8 1_555 1_555
H11_6 C18_8 1_555 1_555
C19_8 N9_8 1_555 1_555
H12_9 C19_8 1_555 1_555
C1_8 C3_8 1_555 1_555
C6_8 C7_8 1_555 1_555
C11_6 C12_6 1_555 1_555
C13_8 C15_8 1_555 1_555
C18_8 C19_8 1_555 1_555
N11_5 C10_7 1_555 1_555
C2_7 N3_6 1_555 1_555
H1_6 C4_6 1_555 1_555
C8_7 C2_7 1_555 1_555
C9_7 C8_7 1_555 1_555
H5_7 C9_7 1_555 1_555
C10_7 C9_7 1_555 1_555
H6_7 C10_7 1_555 1_555
C11_7 N11_5 1_555 1_555
H7_7 C11_7 1_555 1_555
C12_7 C8_7 1_555 1_555
H8_7 C12_7 1_555 1_555
C11_7 C12_7 1_555 1_555
N11_6 C10_8 1_555 1_555
H6_8 C10_8 1_555 1_555
C11_8 N11_6 1_555 1_555
H7_8 C11_8 1_555 1_555
H8_8 C12_8 1_555 1_555
C11_8 C12_8 1_555 1_555
N11_4 C10_9 1_555 1_555
H6_9 C10_9 1_555 1_555
C11_9 N11_4 1_555 1_555
H7_9 C11_9 1_555 1_555
H8_9 C12_9 1_555 1_555
C11_9 C12_9 1_555 1_555
N3_7 C1_9 1_555 1_555
N4_9 Fe1_9 1_555 1_555
C3_9 N4_9 1_555 1_555
C4_7 C3_9 1_555 1_555
H1_7 C4_7 1_555 1_555
C5_9 C4_7 1_555 1_555
H2_7 C5_9 1_555 1_555
C6_9 C5_9 1_555 1_555
H3_7 C6_9 1_555 1_555
C7_9 N4_9 1_555 1_555
C1_9 C3_9 1_555 1_555
C6_9 C7_9 1_555 1_555
N8_7 C13_9 1_555 1_555
N9_9 Fe1_10 1_555 1_555
C15_9 N9_9 1_555 1_555
C16_7 C15_9 1_555 1_555
H9_7 C16_7 1_555 1_555
C17_9 C16_7 1_555 1_555
H10_7 C17_9 1_555 1_555
C18_9 C17_9 1_555 1_555
H11_7 C18_9 1_555 1_555
C19_9 N9_9 1_555 1_555
C13_9 C15_9 1_555 1_555
C18_9 C19_9 1_555 1_555
H9_8 C16_8 1_555 1_555
C20_8 C14_8 1_555 1_555
C21_8 C20_8 1_555 1_555
H13_8 C21_8 1_555 1_555
N8_8 C14_8 1_555 1_555
H9_9 C16_9 1_555 1_555
C20_9 C14_9 1_555 1_555
C21_9 C20_9 1_555 1_555
H13_9 C21_9 1_555 1_555
N8_9 C14_9 1_555 1_555
C2_8 N3_8 1_555 1_555
H1_8 C4_8 1_555 1_555
C8_8 C2_8 1_555 1_555
C9_8 C8_8 1_555 1_555
H5_8 C9_8 1_555 1_555
C2_9 N3_9 1_555 1_555
H1_9 C4_9 1_555 1_555
C8_9 C2_9 1_555 1_555
C9_9 C8_9 1_555 1_555
H5_9 C9_9 1_555 1_555

#END
