
###############################################################################
#
# This file contains modified crystal structure data generated from the
# MOF subset of the Cambridge Structural Database (CSD) v543 
# hosted by the Cambridge Crystallographic Data Centre (CCDC).
#
# This work is licensed under the Creative Commons
# Attribution-NonCommercial-ShareAlike 4.0 International License.
# To view a copy of this license, visit
# http://creativecommons.org/licenses/by-nc-sa/4.0/
# or send a letter to
# Creative Commons, PO Box 1866, Mountain View, CA 94042, USA.
#
# CIF created using the CSD Python API on 29 September 2022
# The structure has been converted into the P1 space group
# The structure has a 3D framework
# The original CSD entry BUVXOG is in the rhombohedral crystal system
# The framework has been calculated to contain at least 10.0% void space
# The void calculation uses a probe of radius 1.32A, grid spacing 0.4
#
###############################################################################

data_BUVXOG
_chemical_formula_moiety         '(C216 H144 Fe16 N90)n'
_symmetry_cell_setting           triclinic
_symmetry_space_group_name_H-M   'P 1'
_symmetry_Int_Tables_number      1
_space_group_name_Hall           'P 1'
loop_
_symmetry_equiv_pos_site_id
_symmetry_equiv_pos_as_xyz
1 x,y,z
_cell_length_a                   27.608(4)
_cell_length_b                   27.608(4)
_cell_length_c                   8.937(3)
_cell_angle_alpha                90
_cell_angle_beta                 90
_cell_angle_gamma                120
_cell_volume                     5899.19
loop_
_atom_site_label
_atom_site_type_symbol
_atom_site_fract_x
_atom_site_fract_y
_atom_site_fract_z
Fe1 Fe 0.0000 0.5000 0.0000
N3 N 0.0121(2) 0.5678(2) 0.4074(6)
N4 N 0.0674(2) 0.5151(2) 0.1207(6)
C1 C 0.0239(3) 0.5456(3) 0.2884(7)
C3 C 0.0710(3) 0.5382(3) 0.2585(8)
C4 C 0.1144(3) 0.5512(3) 0.3548(8)
H1 H 0.1155 0.5675 0.4493
C5 C 0.1566(3) 0.5406(3) 0.3144(9)
H2 H 0.1871 0.5496 0.3797
C6 C 0.1532(3) 0.5166(3) 0.1773(9)
H3 H 0.1813 0.5084 0.1469
C7 C 0.1087(3) 0.5044(3) 0.0837(8)
Fe1_2 Fe 0.0000 0.5000 1.0000
H4 H 0.1069 0.4878 0.9894
Fe2 Fe 0.1667 0.3333 0.3333
N6 N 0.0166(2) 0.4747(2) 0.8150(6)
N7 N 0.0578(2) 0.4657(2) 0.7618(6)
N10 N 0.1273(2) 0.3722(2) 0.4077(6)
N11 N 0.0389(2) 0.5782(3) 0.9256(6)
C14 C 0.0382(3) 0.4399(3) 0.6314(7)
C20 C 0.0696(3) 0.4200(3) 0.5464(7)
C21 C 0.0451(3) 0.3796(3) 0.4354(7)
H13 H 0.0080 0.3677 0.4040
C22 C 0.0741(3) 0.3573(3) 0.3718(8)
H14 H 0.0559 0.3295 0.2972
C23 C 0.1518(3) 0.4137(3) 0.5097(7)
H15 H 0.1900 0.4273 0.5332
C24 C 0.1250(3) 0.4371(3) 0.5807(8)
H16 H 0.1442 0.4653 0.6539
Fe1_3 Fe 0.5000 0.5000 1.0000
H4_2 H 0.5122 0.6191 0.9894
Fe2_2 Fe 0.6667 0.8333 0.3333
N6_2 N 0.5253(2) 0.5419(3) 0.8150(6)
N7_2 N 0.5343(2) 0.5921(3) 0.7618(6)
N8 N 0.5678(2) 0.5557(3) 0.5926(6)
N9 N 0.5151(2) 0.4477(3) 0.8793(6)
N10_2 N 0.6278(2) 0.7551(3) 0.4077(6)
N11_2 N 0.4218(3) 0.4606(4) 0.9256(6)
C13 C 0.5456(3) 0.5217(4) 0.7116(7)
C14_2 C 0.5601(3) 0.5983(4) 0.6314(7)
C15 C 0.5382(3) 0.4672(4) 0.7415(8)
C16 C 0.5512(3) 0.4368(4) 0.6452(8)
H9 H 0.5675 0.4520 0.5507
C17 C 0.5406(3) 0.3840(4) 0.6856(9)
H10 H 0.5496 0.3625 0.6203
C18 C 0.5166(3) 0.3634(4) 0.8227(9)
H11 H 0.5084 0.3271 0.8531
C19 C 0.5044(3) 0.3957(4) 0.9163(8)
C20_2 C 0.5800(3) 0.6496(4) 0.5464(7)
C21_2 C 0.6204(3) 0.6655(4) 0.4354(7)
H13_2 H 0.6323 0.6403 0.4040
C22_2 C 0.6427(3) 0.7168(4) 0.3718(8)
H14_2 H 0.6705 0.7264 0.2972
C23_2 C 0.5863(3) 0.7381(4) 0.5097(7)
H15_2 H 0.5727 0.7627 0.5332
C24_2 C 0.5629(3) 0.6879(4) 0.5807(8)
H16_2 H 0.5347 0.6789 0.6539
Fe1_4 Fe 0.5000 1.0000 1.0000
H4_3 H 0.3809 0.8931 0.9894
Fe2_3 Fe 0.1667 0.8333 0.3333
N6_3 N 0.4581(3) 0.9834(2) 0.8150(6)
N7_3 N 0.4079(3) 0.9422(2) 0.7618(6)
N10_3 N 0.2449(3) 0.8727(2) 0.4077(6)
N11_3 N 0.5394(4) 0.9611(2) 0.9256(6)
C14_3 C 0.4017(4) 0.9618(3) 0.6314(7)
C20_3 C 0.3504(4) 0.9304(3) 0.5464(7)
C21_3 C 0.3345(4) 0.9549(3) 0.4354(7)
H13_3 H 0.3597 0.9920 0.4040
C22_3 C 0.2832(4) 0.9259(3) 0.3718(8)
H14_3 H 0.2736 0.9441 0.2972
C23_3 C 0.2619(4) 0.8482(3) 0.5097(7)
H15_3 H 0.2373 0.8100 0.5332
C24_3 C 0.3121(4) 0.8750(3) 0.5807(8)
H16_3 H 0.3211 0.8558 0.6539
N1 N 0.6501(2) 0.8586(2) 0.5183(6)
N2 N 0.6089(2) 0.8676(2) 0.5715(6)
N3_2 N 0.6788(2) 0.9011(2) 0.7407(6)
N4_2 N 0.7341(2) 0.8484(2) 0.4540(6)
C1_2 C 0.6906(3) 0.8789(3) 0.6217(7)
C2 C 0.6285(3) 0.8934(3) 0.7019(7)
C3_2 C 0.7377(3) 0.8715(3) 0.5918(8)
C4_2 C 0.7811(3) 0.8845(3) 0.6881(8)
H1_2 H 0.7822 0.9008 0.7826
C5_2 C 0.8233(3) 0.8739(3) 0.6477(9)
H2_2 H 0.8538 0.8829 0.7130
C6_2 C 0.8199(3) 0.8499(3) 0.5106(9)
H3_2 H 0.8480 0.8417 0.4802
C7_2 C 0.7754(3) 0.8377(3) 0.4170(8)
H4_4 H 0.7736 0.8211 0.3227
C8 C 0.5971(3) 0.9133(3) 0.7869(7)
C9 C 0.6216(3) 0.9537(3) 0.8979(7)
H5 H 0.6587 0.9656 0.9293
C10 C 0.5926(3) 0.9760(3) 0.9615(8)
C11 C 0.5149(3) 0.9196(3) 0.8236(7)
H7 H 0.4767 0.9060 0.8001
C12 C 0.5417(3) 0.8962(3) 0.7526(8)
H8 H 0.5225 0.8680 0.6794
N6_4 N 0.6833(2) 0.8080(2) 0.1483(6)
N7_4 N 0.7245(2) 0.7990(2) 0.0951(6)
N9_2 N 0.5993(2) 0.8182(2) 0.2126(6)
N11_4 N 0.7055(2) 0.9116(3) 0.2590(6)
C13_2 C 0.6428(3) 0.7877(3) 0.0449(7)
C15_2 C 0.5957(3) 0.7951(3) 0.0748(8)
C17_2 C 0.5101(3) 0.7927(3) 0.0189(9)
C18_2 C 0.5135(3) 0.8167(3) 0.1560(9)
H11_2 H 0.4854 0.8249 0.1864
C19_2 C 0.5580(3) 0.8289(3) 0.2496(8)
H12 H 0.5598 0.8455 0.3439
N1_2 N 0.1414(2) 0.7914(3) 0.5183(6)
N2_2 N 0.1324(2) 0.7412(3) 0.5715(6)
N3_3 N 0.0989(2) 0.7776(3) 0.7407(6)
N4_3 N 0.1516(2) 0.8856(3) 0.4540(6)
C1_3 C 0.1211(3) 0.8116(4) 0.6217(7)
C2_2 C 0.1066(3) 0.7350(4) 0.7019(7)
C3_3 C 0.1285(3) 0.8661(4) 0.5918(8)
C4_3 C 0.1155(3) 0.8965(4) 0.6881(8)
H1_3 H 0.0992 0.8813 0.7826
C5_3 C 0.1261(3) 0.9493(4) 0.6477(9)
H2_3 H 0.1171 0.9708 0.7130
C6_3 C 0.1501(3) 0.9699(4) 0.5106(9)
C7_3 C 0.1623(3) 0.9376(4) 0.4170(8)
H4_5 H 0.1789 0.9524 0.3227
C8_2 C 0.0867(3) 0.6837(4) 0.7869(7)
C9_2 C 0.0463(3) 0.6678(4) 0.8979(7)
H5_2 H 0.0344 0.6930 0.9293
C10_2 C 0.0240(3) 0.6165(4) 0.9615(8)
C11_2 C 0.0804(3) 0.5952(4) 0.8236(7)
H7_2 H 0.0940 0.5706 0.8001
C12_2 C 0.1038(3) 0.6454(4) 0.7526(8)
H8_2 H 0.1320 0.6544 0.6794
N6_5 N 0.1920(2) 0.8752(3) 0.1483(6)
N7_5 N 0.2010(2) 0.9254(3) 0.0951(6)
N9_3 N 0.1818(2) 0.7810(3) 0.2126(6)
N11_5 N 0.0884(3) 0.7940(4) 0.2590(6)
C13_3 C 0.2123(3) 0.8550(4) 0.0449(7)
C15_3 C 0.2049(3) 0.8005(4) 0.0748(8)
C17_3 C 0.2073(3) 0.7173(4) 0.0189(9)
C18_3 C 0.1833(3) 0.6967(4) 0.1560(9)
H11_3 H 0.1751 0.6604 0.1864
C19_3 C 0.1711(3) 0.7290(4) 0.2496(8)
H12_2 H 0.1545 0.7142 0.3439
N1_3 N 0.2086(3) 0.3499(2) 0.5183(6)
N2_3 N 0.2588(3) 0.3911(2) 0.5715(6)
N3_4 N 0.2224(3) 0.3212(2) 0.7407(6)
N4_4 N 0.1144(3) 0.2659(2) 0.4540(6)
C1_4 C 0.1884(4) 0.3094(3) 0.6217(7)
C2_3 C 0.2650(4) 0.3715(3) 0.7019(7)
C3_4 C 0.1339(4) 0.2623(3) 0.5918(8)
C4_4 C 0.1035(4) 0.2189(3) 0.6881(8)
H1_4 H 0.1187 0.2178 0.7826
C5_4 C 0.0507(4) 0.1767(3) 0.6477(9)
H2_4 H 0.0292 0.1462 0.7130
C6_4 C 0.0301(4) 0.1801(3) 0.5106(9)
C7_4 C 0.0624(4) 0.2246(3) 0.4170(8)
H4_6 H 0.0476 0.2264 0.3227
C8_3 C 0.3163(4) 0.4029(3) 0.7869(7)
C9_3 C 0.3322(4) 0.3784(3) 0.8979(7)
H5_3 H 0.3070 0.3413 0.9293
C10_3 C 0.3835(4) 0.4074(3) 0.9615(8)
C11_3 C 0.4048(4) 0.4851(3) 0.8236(7)
H7_3 H 0.4294 0.5233 0.8001
C12_3 C 0.3546(4) 0.4583(3) 0.7526(8)
H8_3 H 0.3456 0.4775 0.6794
N6_6 N 0.1248(3) 0.3167(2) 0.1483(6)
N7_6 N 0.0746(3) 0.2755(2) 0.0951(6)
N9_4 N 0.2190(3) 0.4007(2) 0.2126(6)
N11_6 N 0.2060(4) 0.2945(2) 0.2590(6)
C13_4 C 0.1450(4) 0.3572(3) 0.0449(7)
C15_4 C 0.1995(4) 0.4043(3) 0.0748(8)
C17_4 C 0.2827(4) 0.4899(3) 0.0189(9)
C18_4 C 0.3033(4) 0.4865(3) 0.1560(9)
H11_4 H 0.3396 0.5146 0.1864
C19_4 C 0.2710(4) 0.4420(3) 0.2496(8)
H12_3 H 0.2858 0.4402 0.3439
N3_5 N 0.3454(2) 0.2345(2) 0.0741(6)
C2_4 C 0.2951(3) 0.2268(3) 0.0353(7)
C4_5 C 0.4477(3) 0.2179(3) 0.0215(8)
H1_5 H 0.4488 0.2342 0.1160
H2_5 H 0.5204 0.2163 0.0464
C8_4 C 0.2637(3) 0.2467(3) 0.1203(7)
C9_4 C 0.2882(3) 0.2871(3) 0.2313(7)
H5_4 H 0.3253 0.2990 0.2627
C10_4 C 0.2592(3) 0.3094(3) 0.2949(8)
H6 H 0.2774 0.3372 0.3695
C11_4 C 0.1815(3) 0.2530(3) 0.1570(7)
H7_4 H 0.1433 0.2394 0.1335
C12_4 C 0.2083(3) 0.2296(3) 0.0860(8)
H8_4 H 0.1891 0.2014 0.0128
H14_4 H 0.3892 0.9962 0.9639
H14_5 H 0.0038 0.3931 0.9639
C10_5 C 0.6906(3) 0.9499(4) 0.2949(8)
H6_2 H 0.6628 0.9403 0.3695
C11_5 C 0.7470(3) 0.9286(4) 0.1570(7)
H7_5 H 0.7606 0.9040 0.1335
C12_5 C 0.7704(3) 0.9788(4) 0.0860(8)
H8_5 H 0.7986 0.9878 0.0128
C10_6 C 0.0501(4) 0.7408(3) 0.2949(8)
H6_3 H 0.0597 0.7226 0.3695
C11_6 C 0.0714(4) 0.8185(3) 0.1570(7)
H7_6 H 0.0960 0.8567 0.1335
C12_6 C 0.0212(4) 0.7917(3) 0.0860(8)
H8_6 H 0.0122 0.8109 0.0128
H14_6 H 0.6069 0.6108 0.9639
Fe1_5 Fe 1.0000 0.5000 0.0000
N1_4 N 0.9834(2) 0.5253(2) 0.1850(6)
N2_4 N 0.9422(2) 0.5343(2) 0.2382(6)
N5 N 0.8727(2) 0.6278(2) 0.5923(6)
C2_5 C 0.9618(3) 0.5601(3) 0.3686(7)
C8_5 C 0.9304(3) 0.5800(3) 0.4536(7)
C9_5 C 0.9549(3) 0.6204(3) 0.5646(7)
H5_5 H 0.9920 0.6323 0.5960
C10_7 C 0.9259(3) 0.6427(3) 0.6282(8)
H6_4 H 0.9441 0.6705 0.7028
C11_7 C 0.8482(3) 0.5863(3) 0.4903(7)
H7_7 H 0.8100 0.5727 0.4668
C12_7 C 0.8750(3) 0.5629(3) 0.4193(8)
H8_7 H 0.8558 0.5347 0.3461
Fe3 Fe 0.8333 0.6667 0.6667
N12 N 0.9611(2) 0.4218(3) 0.0744(6)
H12_4 H 0.8931 0.5122 0.0106
Fe1_6 Fe 0.5000 0.5000 0.0000
N1_5 N 0.4747(2) 0.4581(3) 0.1850(6)
N2_5 N 0.4657(2) 0.4079(3) 0.2382(6)
N3_6 N 0.4322(2) 0.4443(3) 0.4074(6)
N4_5 N 0.4849(2) 0.5523(3) 0.1207(6)
N5_2 N 0.3722(2) 0.2449(3) 0.5923(6)
C1_5 C 0.4544(3) 0.4783(4) 0.2884(7)
C2_6 C 0.4399(3) 0.4017(4) 0.3686(7)
C3_5 C 0.4618(3) 0.5328(4) 0.2585(8)
C4_6 C 0.4488(3) 0.5632(4) 0.3548(8)
H1_6 H 0.4325 0.5480 0.4493
C5_5 C 0.4594(3) 0.6160(4) 0.3144(9)
H2_6 H 0.4504 0.6375 0.3797
C6_5 C 0.4834(3) 0.6366(4) 0.1773(9)
H3_3 H 0.4916 0.6729 0.1469
C7_5 C 0.4956(3) 0.6043(4) 0.0837(8)
C8_6 C 0.4200(3) 0.3504(4) 0.4536(7)
C9_6 C 0.3796(3) 0.3345(4) 0.5646(7)
H5_6 H 0.3677 0.3597 0.5960
C10_8 C 0.3573(3) 0.2832(4) 0.6282(8)
H6_5 H 0.3295 0.2736 0.7028
C11_8 C 0.4137(3) 0.2619(4) 0.4903(7)
H7_8 H 0.4273 0.2373 0.4668
C12_8 C 0.4371(3) 0.3121(4) 0.4193(8)
H8_8 H 0.4653 0.3211 0.3461
Fe3_2 Fe 0.3333 0.1667 0.6667
N12_2 N 0.5782(3) 0.5394(4) 0.0744(6)
H12_5 H 0.4878 0.3809 0.0106
Fe1_7 Fe 0.5000 0.0000 0.0000
N1_6 N 0.5419(3) 0.0166(2) 0.1850(6)
N2_6 N 0.5921(3) 0.0578(2) 0.2382(6)
N5_3 N 0.7551(3) 0.1273(2) 0.5923(6)
C2_7 C 0.5983(4) 0.0382(3) 0.3686(7)
C8_7 C 0.6496(4) 0.0696(3) 0.4536(7)
C9_7 C 0.6655(4) 0.0451(3) 0.5646(7)
H5_7 H 0.6403 0.0080 0.5960
C10_9 C 0.7168(4) 0.0741(3) 0.6282(8)
H6_6 H 0.7264 0.0559 0.7028
C11_9 C 0.7381(4) 0.1518(3) 0.4903(7)
H7_9 H 0.7627 0.1900 0.4668
C12_9 C 0.6879(4) 0.1250(3) 0.4193(8)
H8_9 H 0.6789 0.1442 0.3461
Fe3_3 Fe 0.8333 0.1667 0.6667
N12_3 N 0.4606(4) 0.0389(2) 0.0744(6)
H12_6 H 0.6191 0.1069 0.0106
H6_7 H 0.6108 0.0038 0.0361
N8_2 N 0.6546(2) 0.7655(2) 0.9259(6)
N10_4 N 0.7940(2) 0.7055(2) 0.7410(6)
C14_4 C 0.7049(3) 0.7732(3) 0.9647(7)
C16_2 C 0.5523(3) 0.7821(3) 0.9785(8)
H9_2 H 0.5512 0.7658 0.8840
H10_2 H 0.4796 0.7837 0.9536
C20_4 C 0.7363(3) 0.7533(3) 0.8797(7)
C21_4 C 0.7118(3) 0.7129(3) 0.7687(7)
H13_4 H 0.6747 0.7010 0.7373
C22_4 C 0.7408(3) 0.6906(3) 0.7051(8)
H14_7 H 0.7226 0.6628 0.6305
C23_4 C 0.8185(3) 0.7470(3) 0.8430(7)
H15_4 H 0.8567 0.7606 0.8665
C24_4 C 0.7917(3) 0.7704(3) 0.9140(8)
H16_4 H 0.8109 0.7986 0.9872
N10_5 N 0.2945(2) 0.0884(3) 0.7410(6)
C22_5 C 0.3094(3) 0.0501(4) 0.7051(8)
H14_8 H 0.3372 0.0597 0.6305
C23_5 C 0.2530(3) 0.0714(4) 0.8430(7)
H15_5 H 0.2394 0.0960 0.8665
C24_5 C 0.2296(3) 0.0212(4) 0.9140(8)
H16_5 H 0.2014 0.0122 0.9872
H6_8 H 0.9962 0.6069 0.0361
H6_9 H 0.3931 0.3892 0.0361
N10_6 N 0.9116(3) 0.2060(2) 0.7410(6)
C22_6 C 0.9499(4) 0.2592(3) 0.7051(8)
H14_9 H 0.9403 0.2774 0.6305
C23_6 C 0.9286(4) 0.1815(3) 0.8430(7)
H15_6 H 0.9040 0.1433 0.8665
C24_6 C 0.9788(4) 0.2083(3) 0.9140(8)
H16_6 H 0.9878 0.1891 0.9872
N1_7 N 0.3167(2) 0.1920(2) 0.8517(6)
N2_7 N 0.2755(2) 0.2010(2) 0.9049(6)
N4_6 N 0.4007(2) 0.1818(2) 0.7874(6)
C1_6 C 0.3572(3) 0.2123(3) 0.9551(7)
C3_6 C 0.4043(3) 0.2049(3) 0.9252(8)
C5_6 C 0.4899(3) 0.2073(3) 0.9811(9)
C6_6 C 0.4865(3) 0.1833(3) 0.8440(9)
H3_4 H 0.5146 0.1751 0.8136
C7_6 C 0.4420(3) 0.1711(3) 0.7504(8)
H4_7 H 0.4402 0.1545 0.6561
N6_7 N 0.3499(2) 0.1414(2) 0.4817(6)
N7_7 N 0.3911(2) 0.1324(2) 0.4285(6)
N8_3 N 0.3212(2) 0.0989(2) 0.2593(6)
N9_5 N 0.2659(2) 0.1516(2) 0.5460(6)
C13_5 C 0.3094(3) 0.1211(3) 0.3783(7)
C14_5 C 0.3715(3) 0.1066(3) 0.2981(7)
C15_5 C 0.2623(3) 0.1285(3) 0.4082(8)
C16_3 C 0.2189(3) 0.1155(3) 0.3119(8)
H9_3 H 0.2178 0.0992 0.2174
C17_5 C 0.1767(3) 0.1261(3) 0.3523(9)
H10_3 H 0.1462 0.1171 0.2870
C18_5 C 0.1801(3) 0.1501(3) 0.4894(9)
H11_5 H 0.1520 0.1583 0.5198
C19_5 C 0.2246(3) 0.1623(3) 0.5830(8)
H12_7 H 0.2264 0.1789 0.6773
C20_5 C 0.4029(3) 0.0867(3) 0.2131(7)
C21_5 C 0.3784(3) 0.0463(3) 0.1021(7)
H13_5 H 0.3413 0.0344 0.0707
C22_7 C 0.4074(3) 0.0240(3) 0.0385(8)
C23_7 C 0.4851(3) 0.0804(3) 0.1764(7)
H15_7 H 0.5233 0.0940 0.1999
C24_7 C 0.4583(3) 0.1038(3) 0.2474(8)
H16_7 H 0.4775 0.1320 0.3206
N1_8 N 0.8080(2) 0.1248(3) 0.8517(6)
N2_8 N 0.7990(2) 0.0746(3) 0.9049(6)
N4_7 N 0.8182(2) 0.2190(3) 0.7874(6)
C1_7 C 0.7877(3) 0.1450(4) 0.9551(7)
C3_7 C 0.7951(3) 0.1995(4) 0.9252(8)
C5_7 C 0.7927(3) 0.2827(4) 0.9811(9)
C6_7 C 0.8167(3) 0.3033(4) 0.8440(9)
H3_5 H 0.8249 0.3396 0.8136
C7_7 C 0.8289(3) 0.2710(4) 0.7504(8)
H4_8 H 0.8455 0.2858 0.6561
N6_8 N 0.8586(2) 0.2086(3) 0.4817(6)
N7_8 N 0.8676(2) 0.2588(3) 0.4285(6)
N8_4 N 0.9011(2) 0.2224(3) 0.2593(6)
N9_6 N 0.8484(2) 0.1144(3) 0.5460(6)
C13_6 C 0.8789(3) 0.1884(4) 0.3783(7)
C14_6 C 0.8934(3) 0.2650(4) 0.2981(7)
C15_6 C 0.8715(3) 0.1339(4) 0.4082(8)
C16_4 C 0.8845(3) 0.1035(4) 0.3119(8)
H9_4 H 0.9008 0.1187 0.2174
C17_6 C 0.8739(3) 0.0507(4) 0.3523(9)
H10_4 H 0.8829 0.0292 0.2870
C18_6 C 0.8499(3) 0.0301(4) 0.4894(9)
C19_6 C 0.8377(3) 0.0624(4) 0.5830(8)
H12_8 H 0.8211 0.0476 0.6773
C20_6 C 0.9133(3) 0.3163(4) 0.2131(7)
C21_6 C 0.9537(3) 0.3322(4) 0.1021(7)
H13_6 H 0.9656 0.3070 0.0707
C22_8 C 0.9760(3) 0.3835(4) 0.0385(8)
C23_8 C 0.9196(3) 0.4048(4) 0.1764(7)
H15_8 H 0.9060 0.4294 0.1999
C24_8 C 0.8962(3) 0.3546(4) 0.2474(8)
H16_8 H 0.8680 0.3456 0.3206
N1_9 N 0.8752(3) 0.6833(2) 0.8517(6)
N2_9 N 0.9254(3) 0.7245(2) 0.9049(6)
N4_8 N 0.7810(3) 0.5993(2) 0.7874(6)
C1_8 C 0.8550(4) 0.6428(3) 0.9551(7)
C3_8 C 0.8005(4) 0.5957(3) 0.9252(8)
C5_8 C 0.7173(4) 0.5101(3) 0.9811(9)
C6_8 C 0.6967(4) 0.5135(3) 0.8440(9)
H3_6 H 0.6604 0.4854 0.8136
C7_8 C 0.7290(4) 0.5580(3) 0.7504(8)
H4_9 H 0.7142 0.5598 0.6561
N6_9 N 0.7914(3) 0.6501(2) 0.4817(6)
N7_9 N 0.7412(3) 0.6089(2) 0.4285(6)
N8_5 N 0.7776(3) 0.6788(2) 0.2593(6)
N9_7 N 0.8856(3) 0.7341(2) 0.5460(6)
C13_7 C 0.8116(4) 0.6906(3) 0.3783(7)
C14_7 C 0.7350(4) 0.6285(3) 0.2981(7)
C15_7 C 0.8661(4) 0.7377(3) 0.4082(8)
C16_5 C 0.8965(4) 0.7811(3) 0.3119(8)
H9_5 H 0.8813 0.7822 0.2174
C17_7 C 0.9493(4) 0.8233(3) 0.3523(9)
H10_5 H 0.9708 0.8538 0.2870
C18_7 C 0.9699(4) 0.8199(3) 0.4894(9)
C19_7 C 0.9376(4) 0.7754(3) 0.5830(8)
H12_9 H 0.9524 0.7736 0.6773
C20_7 C 0.6837(4) 0.5971(3) 0.2131(7)
C21_7 C 0.6678(4) 0.6216(3) 0.1021(7)
H13_7 H 0.6930 0.6587 0.0707
C22_9 C 0.6165(4) 0.5926(3) 0.0385(8)
C23_9 C 0.5952(4) 0.5149(3) 0.1764(7)
H15_9 H 0.5706 0.4767 0.1999
C24_9 C 0.6454(4) 0.5417(3) 0.2474(8)
H16_9 H 0.6544 0.5225 0.3206
Fe1_8 Fe 1.0000 0.5000 1.0000
N8_6 N 0.9879(2) 0.4322(2) 0.5926(6)
N9_8 N 0.9326(2) 0.4849(2) 0.8793(6)
C13_8 C 0.9761(3) 0.4544(3) 0.7116(7)
C15_8 C 0.9290(3) 0.4618(3) 0.7415(8)
C16_6 C 0.8856(3) 0.4488(3) 0.6452(8)
H9_6 H 0.8845 0.4325 0.5507
C17_8 C 0.8434(3) 0.4594(3) 0.6856(9)
H10_6 H 0.8129 0.4504 0.6203
C18_8 C 0.8468(3) 0.4834(3) 0.8227(9)
H11_6 H 0.8187 0.4916 0.8531
C19_8 C 0.8913(3) 0.4956(3) 0.9163(8)
Fe1_9 Fe 0.5000 0.0000 1.0000
N8_7 N 0.4443(3) 0.0121(2) 0.5926(6)
N9_9 N 0.5523(3) 0.0674(2) 0.8793(6)
C13_9 C 0.4783(4) 0.0239(3) 0.7116(7)
C15_9 C 0.5328(4) 0.0710(3) 0.7415(8)
C16_7 C 0.5632(4) 0.1144(3) 0.6452(8)
H9_7 H 0.5480 0.1155 0.5507
C17_9 C 0.6160(4) 0.1566(3) 0.6856(9)
H10_7 H 0.6375 0.1871 0.6203
C18_9 C 0.6366(4) 0.1532(3) 0.8227(9)
H11_7 H 0.6729 0.1813 0.8531
C19_9 C 0.6043(4) 0.1087(3) 0.9163(8)
Fe1_10 Fe 0.5000 1.0000 0.0000
N3_7 N 0.5557(3) 0.9879(2) 0.4074(6)
N4_9 N 0.4477(3) 0.9326(2) 0.1207(6)
C1_9 C 0.5217(4) 0.9761(3) 0.2884(7)
C3_9 C 0.4672(4) 0.9290(3) 0.2585(8)
C4_7 C 0.4368(4) 0.8856(3) 0.3548(8)
H1_7 H 0.4520 0.8845 0.4493
C5_9 C 0.3840(4) 0.8434(3) 0.3144(9)
H2_7 H 0.3625 0.8129 0.3797
C6_9 C 0.3634(4) 0.8468(3) 0.1773(9)
H3_7 H 0.3271 0.8187 0.1469
C7_9 C 0.3957(4) 0.8913(3) 0.0837(8)
H3_8 H 0.1583 0.0062 0.4802
N8_8 N 0.2345(2) 0.8890(3) 0.9259(6)
C14_8 C 0.2268(3) 0.9316(4) 0.9647(7)
C16_8 C 0.2179(3) 0.7701(4) 0.9785(8)
H9_8 H 0.2342 0.7853 0.8840
H10_8 H 0.2163 0.6958 0.9536
C20_8 C 0.2467(3) 0.9829(4) 0.8797(7)
C21_8 C 0.2871(3) 0.9988(4) 0.7687(7)
H13_8 H 0.2990 0.9736 0.7373
N8_9 N 0.1110(3) 0.3454(2) 0.9259(6)
C14_9 C 0.0684(4) 0.2951(3) 0.9647(7)
C16_9 C 0.2299(4) 0.4477(3) 0.9785(8)
H9_9 H 0.2147 0.4488 0.8840
H10_9 H 0.3042 0.5204 0.9536
C20_9 C 0.0171(4) 0.2637(3) 0.8797(7)
C21_9 C 0.0012(4) 0.2882(3) 0.7687(7)
H13_9 H 0.0264 0.3253 0.7373
H3_9 H 0.9938 0.1520 0.4802
N3_8 N 0.7655(2) 0.1110(3) 0.0741(6)
C2_8 C 0.7732(3) 0.0684(4) 0.0353(7)
C4_8 C 0.7821(3) 0.2299(4) 0.0215(8)
H1_8 H 0.7658 0.2147 0.1160
H2_8 H 0.7837 0.3042 0.0464
C8_8 C 0.7533(3) 0.0171(4) 0.1203(7)
C9_8 C 0.7129(3) 0.0012(4) 0.2313(7)
H5_8 H 0.7010 0.0264 0.2627
H11_8 H 0.8417 0.9938 0.5198
H11_9 H 0.0062 0.8480 0.5198
N3_9 N 0.8890(3) 0.6546(2) 0.0741(6)
C2_9 C 0.9316(4) 0.7049(3) 0.0353(7)
C4_9 C 0.7701(4) 0.5523(3) 0.0215(8)
H1_9 H 0.7853 0.5512 0.1160
H2_9 H 0.6958 0.4796 0.0464
C8_9 C 0.9829(4) 0.7363(3) 0.1203(7)
C9_9 C 0.9988(4) 0.7118(3) 0.2313(7)
H5_9 H 0.9736 0.6747 0.2627
loop_
_geom_bond_atom_site_label_1
_geom_bond_atom_site_label_2
_geom_bond_site_symmetry_1
_geom_bond_site_symmetry_2
N3 C1 1_555 1_555
N4 Fe1 1_555 1_555
C3 N4 1_555 1_555
C4 C3 1_555 1_555
H1 C4 1_555 1_555
C5 C4 1_555 1_555
H2 C5 1_555 1_555
C6 C5 1_555 1_555
H3 C6 1_555 1_555
C7 N4 1_555 1_555
C1 C3 1_555 1_555
C6 C7 1_555 1_555
Fe2 N10 1_555 1_555
N6 Fe1_2 1_555 1_555
N7 N6 1_555 1_555
N10 C22 1_555 1_555
N11 Fe1_2 1_555 1_555
C14 N7 1_555 1_555
C20 C14 1_555 1_555
C21 C20 1_555 1_555
H13 C21 1_555 1_555
C22 C21 1_555 1_555
H14 C22 1_555 1_555
C23 N10 1_555 1_555
H15 C23 1_555 1_555
C24 C20 1_555 1_555
H16 C24 1_555 1_555
C23 C24 1_555 1_555
Fe2_2 N10_2 1_555 1_555
N6_2 Fe1_3 1_555 1_555
N7_2 N6_2 1_555 1_555
N8 C13 1_555 1_555
N9 Fe1_3 1_555 1_555
N10_2 C22_2 1_555 1_555
N11_2 Fe1_3 1_555 1_555
C13 N6_2 1_555 1_555
C14_2 N7_2 1_555 1_555
C15 N9 1_555 1_555
C16 C15 1_555 1_555
H9 C16 1_555 1_555
C17 C16 1_555 1_555
H10 C17 1_555 1_555
C18 C17 1_555 1_555
H11 C18 1_555 1_555
C19 N9 1_555 1_555
C20_2 C14_2 1_555 1_555
C21_2 C20_2 1_555 1_555
H13_2 C21_2 1_555 1_555
C22_2 C21_2 1_555 1_555
H14_2 C22_2 1_555 1_555
C23_2 N10_2 1_555 1_555
H15_2 C23_2 1_555 1_555
C24_2 C20_2 1_555 1_555
H16_2 C24_2 1_555 1_555
N8 C14_2 1_555 1_555
C13 C15 1_555 1_555
C18 C19 1_555 1_555
C23_2 C24_2 1_555 1_555
Fe2_3 N10_3 1_555 1_555
N6_3 Fe1_4 1_555 1_555
N7_3 N6_3 1_555 1_555
N10_3 C22_3 1_555 1_555
N11_3 Fe1_4 1_555 1_555
C14_3 N7_3 1_555 1_555
C20_3 C14_3 1_555 1_555
C21_3 C20_3 1_555 1_555
H13_3 C21_3 1_555 1_555
C22_3 C21_3 1_555 1_555
H14_3 C22_3 1_555 1_555
C23_3 N10_3 1_555 1_555
H15_3 C23_3 1_555 1_555
C24_3 C20_3 1_555 1_555
H16_3 C24_3 1_555 1_555
C23_3 C24_3 1_555 1_555
Fe2_2 N1 1_555 1_555
N1 N2 1_555 1_555
N2 C2 1_555 1_555
N3_2 C1_2 1_555 1_555
N4_2 Fe2_2 1_555 1_555
N11_3 C10 1_555 1_555
C1_2 N1 1_555 1_555
C2 N3_2 1_555 1_555
C3_2 N4_2 1_555 1_555
C4_2 C3_2 1_555 1_555
H1_2 C4_2 1_555 1_555
C5_2 C4_2 1_555 1_555
H2_2 C5_2 1_555 1_555
C6_2 C5_2 1_555 1_555
H3_2 C6_2 1_555 1_555
C7_2 N4_2 1_555 1_555
H4_4 C7_2 1_555 1_555
C8 C2 1_555 1_555
C9 C8 1_555 1_555
H5 C9 1_555 1_555
C10 C9 1_555 1_555
C11 N11_3 1_555 1_555
H7 C11 1_555 1_555
C12 C8 1_555 1_555
H8 C12 1_555 1_555
N6_4 Fe2_2 1_555 1_555
N7_4 N6_4 1_555 1_555
N9_2 Fe2_2 1_555 1_555
N11_4 Fe2_2 1_555 1_555
C13_2 N6_4 1_555 1_555
C15_2 N9_2 1_555 1_555
C18_2 C17_2 1_555 1_555
H11_2 C18_2 1_555 1_555
C19_2 N9_2 1_555 1_555
H12 C19_2 1_555 1_555
C1_2 C3_2 1_555 1_555
C6_2 C7_2 1_555 1_555
C11 C12 1_555 1_555
C13_2 C15_2 1_555 1_555
C18_2 C19_2 1_555 1_555
Fe2_3 N1_2 1_555 1_555
N1_2 N2_2 1_555 1_555
N2_2 C2_2 1_555 1_555
N3_3 C1_3 1_555 1_555
N4_3 Fe2_3 1_555 1_555
N11 C10_2 1_555 1_555
C1_3 N1_2 1_555 1_555
C2_2 N3_3 1_555 1_555
C3_3 N4_3 1_555 1_555
C4_3 C3_3 1_555 1_555
H1_3 C4_3 1_555 1_555
C5_3 C4_3 1_555 1_555
H2_3 C5_3 1_555 1_555
C6_3 C5_3 1_555 1_555
C7_3 N4_3 1_555 1_555
H4_5 C7_3 1_555 1_555
C8_2 C2_2 1_555 1_555
C9_2 C8_2 1_555 1_555
H5_2 C9_2 1_555 1_555
C10_2 C9_2 1_555 1_555
C11_2 N11 1_555 1_555
H7_2 C11_2 1_555 1_555
C12_2 C8_2 1_555 1_555
H8_2 C12_2 1_555 1_555
N6_5 Fe2_3 1_555 1_555
N7_5 N6_5 1_555 1_555
N9_3 Fe2_3 1_555 1_555
N11_5 Fe2_3 1_555 1_555
C13_3 N6_5 1_555 1_555
C15_3 N9_3 1_555 1_555
C18_3 C17_3 1_555 1_555
H11_3 C18_3 1_555 1_555
C19_3 N9_3 1_555 1_555
H12_2 C19_3 1_555 1_555
C1_3 C3_3 1_555 1_555
C6_3 C7_3 1_555 1_555
C11_2 C12_2 1_555 1_555
C13_3 C15_3 1_555 1_555
C18_3 C19_3 1_555 1_555
Fe2 N1_3 1_555 1_555
N1_3 N2_3 1_555 1_555
N2_3 C2_3 1_555 1_555
N3_4 C1_4 1_555 1_555
N4_4 Fe2 1_555 1_555
N11_2 C10_3 1_555 1_555
C1_4 N1_3 1_555 1_555
C2_3 N3_4 1_555 1_555
C3_4 N4_4 1_555 1_555
C4_4 C3_4 1_555 1_555
H1_4 C4_4 1_555 1_555
C5_4 C4_4 1_555 1_555
H2_4 C5_4 1_555 1_555
C6_4 C5_4 1_555 1_555
C7_4 N4_4 1_555 1_555
H4_6 C7_4 1_555 1_555
C8_3 C2_3 1_555 1_555
C9_3 C8_3 1_555 1_555
H5_3 C9_3 1_555 1_555
C10_3 C9_3 1_555 1_555
C11_3 N11_2 1_555 1_555
H7_3 C11_3 1_555 1_555
C12_3 C8_3 1_555 1_555
H8_3 C12_3 1_555 1_555
N6_6 Fe2 1_555 1_555
N7_6 N6_6 1_555 1_555
N9_4 Fe2 1_555 1_555
N11_6 Fe2 1_555 1_555
C13_4 N6_6 1_555 1_555
C15_4 N9_4 1_555 1_555
C18_4 C17_4 1_555 1_555
H11_4 C18_4 1_555 1_555
C19_4 N9_4 1_555 1_555
H12_3 C19_4 1_555 1_555
C1_4 C3_4 1_555 1_555
C6_4 C7_4 1_555 1_555
C11_3 C12_3 1_555 1_555
C13_4 C15_4 1_555 1_555
C18_4 C19_4 1_555 1_555
N11_6 C10_4 1_555 1_555
C2_4 N3_5 1_555 1_555
H1_5 C4_5 1_555 1_555
C8_4 C2_4 1_555 1_555
C9_4 C8_4 1_555 1_555
H5_4 C9_4 1_555 1_555
C10_4 C9_4 1_555 1_555
H6 C10_4 1_555 1_555
C11_4 N11_6 1_555 1_555
H7_4 C11_4 1_555 1_555
C12_4 C8_4 1_555 1_555
H8_4 C12_4 1_555 1_555
C11_4 C12_4 1_555 1_555
N11_4 C10_5 1_555 1_555
H6_2 C10_5 1_555 1_555
C11_5 N11_4 1_555 1_555
H7_5 C11_5 1_555 1_555
H8_5 C12_5 1_555 1_555
C11_5 C12_5 1_555 1_555
N11_5 C10_6 1_555 1_555
H6_3 C10_6 1_555 1_555
C11_6 N11_5 1_555 1_555
H7_6 C11_6 1_555 1_555
H8_6 C12_6 1_555 1_555
C11_6 C12_6 1_555 1_555
Fe1_5 N1_4 1_555 1_555
N1_4 N2_4 1_555 1_555
N2_4 C2_5 1_555 1_555
N5 C10_7 1_555 1_555
C8_5 C2_5 1_555 1_555
C9_5 C8_5 1_555 1_555
H5_5 C9_5 1_555 1_555
C10_7 C9_5 1_555 1_555
H6_4 C10_7 1_555 1_555
C11_7 N5 1_555 1_555
H7_7 C11_7 1_555 1_555
C12_7 C8_5 1_555 1_555
H8_7 C12_7 1_555 1_555
Fe3 N5 1_555 1_555
N12 Fe1_5 1_555 1_555
C11_7 C12_7 1_555 1_555
Fe1_6 N1_5 1_555 1_555
N1_5 N2_5 1_555 1_555
N2_5 C2_6 1_555 1_555
N3_6 C1_5 1_555 1_555
N4_5 Fe1_6 1_555 1_555
N5_2 C10_8 1_555 1_555
C1_5 N1_5 1_555 1_555
C2_6 N3_6 1_555 1_555
C3_5 N4_5 1_555 1_555
C4_6 C3_5 1_555 1_555
H1_6 C4_6 1_555 1_555
C5_5 C4_6 1_555 1_555
H2_6 C5_5 1_555 1_555
C6_5 C5_5 1_555 1_555
H3_3 C6_5 1_555 1_555
C7_5 N4_5 1_555 1_555
C8_6 C2_6 1_555 1_555
C9_6 C8_6 1_555 1_555
H5_6 C9_6 1_555 1_555
C10_8 C9_6 1_555 1_555
H6_5 C10_8 1_555 1_555
C11_8 N5_2 1_555 1_555
H7_8 C11_8 1_555 1_555
C12_8 C8_6 1_555 1_555
H8_8 C12_8 1_555 1_555
Fe3_2 N5_2 1_555 1_555
N12_2 Fe1_6 1_555 1_555
C1_5 C3_5 1_555 1_555
C6_5 C7_5 1_555 1_555
C11_8 C12_8 1_555 1_555
Fe1_7 N1_6 1_555 1_555
N1_6 N2_6 1_555 1_555
N2_6 C2_7 1_555 1_555
N5_3 C10_9 1_555 1_555
C8_7 C2_7 1_555 1_555
C9_7 C8_7 1_555 1_555
H5_7 C9_7 1_555 1_555
C10_9 C9_7 1_555 1_555
H6_6 C10_9 1_555 1_555
C11_9 N5_3 1_555 1_555
H7_9 C11_9 1_555 1_555
C12_9 C8_7 1_555 1_555
H8_9 C12_9 1_555 1_555
Fe3_3 N5_3 1_555 1_555
N12_3 Fe1_7 1_555 1_555
C11_9 C12_9 1_555 1_555
Fe3 N10_4 1_555 1_555
N10_4 C22_4 1_555 1_555
H9_2 C16_2 1_555 1_555
C20_4 C14_4 1_555 1_555
C21_4 C20_4 1_555 1_555
H13_4 C21_4 1_555 1_555
C22_4 C21_4 1_555 1_555
H14_7 C22_4 1_555 1_555
C23_4 N10_4 1_555 1_555
H15_4 C23_4 1_555 1_555
C24_4 C20_4 1_555 1_555
H16_4 C24_4 1_555 1_555
N8_2 C14_4 1_555 1_555
C23_4 C24_4 1_555 1_555
Fe3_2 N10_5 1_555 1_555
N10_5 C22_5 1_555 1_555
H14_8 C22_5 1_555 1_555
C23_5 N10_5 1_555 1_555
H15_5 C23_5 1_555 1_555
H16_5 C24_5 1_555 1_555
C23_5 C24_5 1_555 1_555
Fe3_3 N10_6 1_555 1_555
N10_6 C22_6 1_555 1_555
H14_9 C22_6 1_555 1_555
C23_6 N10_6 1_555 1_555
H15_6 C23_6 1_555 1_555
H16_6 C24_6 1_555 1_555
C23_6 C24_6 1_555 1_555
Fe3_2 N1_7 1_555 1_555
N1_7 N2_7 1_555 1_555
N4_6 Fe3_2 1_555 1_555
C1_6 N1_7 1_555 1_555
C3_6 N4_6 1_555 1_555
C6_6 C5_6 1_555 1_555
H3_4 C6_6 1_555 1_555
C7_6 N4_6 1_555 1_555
H4_7 C7_6 1_555 1_555
N6_7 Fe3_2 1_555 1_555
N7_7 N6_7 1_555 1_555
N8_3 C13_5 1_555 1_555
N9_5 Fe3_2 1_555 1_555
N12_3 C22_7 1_555 1_555
C13_5 N6_7 1_555 1_555
C14_5 N7_7 1_555 1_555
C15_5 N9_5 1_555 1_555
C16_3 C15_5 1_555 1_555
H9_3 C16_3 1_555 1_555
C17_5 C16_3 1_555 1_555
H10_3 C17_5 1_555 1_555
C18_5 C17_5 1_555 1_555
H11_5 C18_5 1_555 1_555
C19_5 N9_5 1_555 1_555
H12_7 C19_5 1_555 1_555
C20_5 C14_5 1_555 1_555
C21_5 C20_5 1_555 1_555
H13_5 C21_5 1_555 1_555
C22_7 C21_5 1_555 1_555
C23_7 N12_3 1_555 1_555
H15_7 C23_7 1_555 1_555
C24_7 C20_5 1_555 1_555
H16_7 C24_7 1_555 1_555
C1_6 C3_6 1_555 1_555
C6_6 C7_6 1_555 1_555
N8_3 C14_5 1_555 1_555
C13_5 C15_5 1_555 1_555
C18_5 C19_5 1_555 1_555
C23_7 C24_7 1_555 1_555
Fe3_3 N1_8 1_555 1_555
N1_8 N2_8 1_555 1_555
N4_7 Fe3_3 1_555 1_555
C1_7 N1_8 1_555 1_555
C3_7 N4_7 1_555 1_555
C6_7 C5_7 1_555 1_555
H3_5 C6_7 1_555 1_555
C7_7 N4_7 1_555 1_555
H4_8 C7_7 1_555 1_555
N6_8 Fe3_3 1_555 1_555
N7_8 N6_8 1_555 1_555
N8_4 C13_6 1_555 1_555
N9_6 Fe3_3 1_555 1_555
N12 C22_8 1_555 1_555
C13_6 N6_8 1_555 1_555
C14_6 N7_8 1_555 1_555
C15_6 N9_6 1_555 1_555
C16_4 C15_6 1_555 1_555
H9_4 C16_4 1_555 1_555
C17_6 C16_4 1_555 1_555
H10_4 C17_6 1_555 1_555
C18_6 C17_6 1_555 1_555
C19_6 N9_6 1_555 1_555
H12_8 C19_6 1_555 1_555
C20_6 C14_6 1_555 1_555
C21_6 C20_6 1_555 1_555
H13_6 C21_6 1_555 1_555
C22_8 C21_6 1_555 1_555
C23_8 N12 1_555 1_555
H15_8 C23_8 1_555 1_555
C24_8 C20_6 1_555 1_555
H16_8 C24_8 1_555 1_555
C1_7 C3_7 1_555 1_555
C6_7 C7_7 1_555 1_555
N8_4 C14_6 1_555 1_555
C13_6 C15_6 1_555 1_555
C18_6 C19_6 1_555 1_555
C23_8 C24_8 1_555 1_555
Fe3 N1_9 1_555 1_555
N1_9 N2_9 1_555 1_555
N4_8 Fe3 1_555 1_555
C1_8 N1_9 1_555 1_555
C3_8 N4_8 1_555 1_555
C6_8 C5_8 1_555 1_555
H3_6 C6_8 1_555 1_555
C7_8 N4_8 1_555 1_555
H4_9 C7_8 1_555 1_555
N6_9 Fe3 1_555 1_555
N7_9 N6_9 1_555 1_555
N8_5 C13_7 1_555 1_555
N9_7 Fe3 1_555 1_555
N12_2 C22_9 1_555 1_555
C13_7 N6_9 1_555 1_555
C14_7 N7_9 1_555 1_555
C15_7 N9_7 1_555 1_555
C16_5 C15_7 1_555 1_555
H9_5 C16_5 1_555 1_555
C17_7 C16_5 1_555 1_555
H10_5 C17_7 1_555 1_555
C18_7 C17_7 1_555 1_555
C19_7 N9_7 1_555 1_555
H12_9 C19_7 1_555 1_555
C20_7 C14_7 1_555 1_555
C21_7 C20_7 1_555 1_555
H13_7 C21_7 1_555 1_555
C22_9 C21_7 1_555 1_555
C23_9 N12_2 1_555 1_555
H15_9 C23_9 1_555 1_555
C24_9 C20_7 1_555 1_555
H16_9 C24_9 1_555 1_555
C1_8 C3_8 1_555 1_555
C6_8 C7_8 1_555 1_555
N8_5 C14_7 1_555 1_555
C13_7 C15_7 1_555 1_555
C18_7 C19_7 1_555 1_555
C23_9 C24_9 1_555 1_555
N8_6 C13_8 1_555 1_555
N9_8 Fe1_8 1_555 1_555
C15_8 N9_8 1_555 1_555
C16_6 C15_8 1_555 1_555
H9_6 C16_6 1_555 1_555
C17_8 C16_6 1_555 1_555
H10_6 C17_8 1_555 1_555
C18_8 C17_8 1_555 1_555
H11_6 C18_8 1_555 1_555
C19_8 N9_8 1_555 1_555
C13_8 C15_8 1_555 1_555
C18_8 C19_8 1_555 1_555
N8_7 C13_9 1_555 1_555
N9_9 Fe1_9 1_555 1_555
C15_9 N9_9 1_555 1_555
C16_7 C15_9 1_555 1_555
H9_7 C16_7 1_555 1_555
C17_9 C16_7 1_555 1_555
H10_7 C17_9 1_555 1_555
C18_9 C17_9 1_555 1_555
H11_7 C18_9 1_555 1_555
C19_9 N9_9 1_555 1_555
C13_9 C15_9 1_555 1_555
C18_9 C19_9 1_555 1_555
N3_7 C1_9 1_555 1_555
N4_9 Fe1_10 1_555 1_555
C3_9 N4_9 1_555 1_555
C4_7 C3_9 1_555 1_555
H1_7 C4_7 1_555 1_555
C5_9 C4_7 1_555 1_555
H2_7 C5_9 1_555 1_555
C6_9 C5_9 1_555 1_555
H3_7 C6_9 1_555 1_555
C7_9 N4_9 1_555 1_555
C1_9 C3_9 1_555 1_555
C6_9 C7_9 1_555 1_555
H9_8 C16_8 1_555 1_555
C20_8 C14_8 1_555 1_555
C21_8 C20_8 1_555 1_555
H13_8 C21_8 1_555 1_555
N8_8 C14_8 1_555 1_555
H9_9 C16_9 1_555 1_555
C20_9 C14_9 1_555 1_555
C21_9 C20_9 1_555 1_555
H13_9 C21_9 1_555 1_555
N8_9 C14_9 1_555 1_555
C2_8 N3_8 1_555 1_555
H1_8 C4_8 1_555 1_555
C8_8 C2_8 1_555 1_555
C9_8 C8_8 1_555 1_555
H5_8 C9_8 1_555 1_555
C2_9 N3_9 1_555 1_555
H1_9 C4_9 1_555 1_555
C8_9 C2_9 1_555 1_555
C9_9 C8_9 1_555 1_555
H5_9 C9_9 1_555 1_555

#END
