
###############################################################################
#
# This file contains modified crystal structure data generated from the
# MOF subset of the Cambridge Structural Database (CSD) v543 
# hosted by the Cambridge Crystallographic Data Centre (CCDC).
#
# This work is licensed under the Creative Commons
# Attribution-NonCommercial-ShareAlike 4.0 International License.
# To view a copy of this license, visit
# http://creativecommons.org/licenses/by-nc-sa/4.0/
# or send a letter to
# Creative Commons, PO Box 1866, Mountain View, CA 94042, USA.
#
# CIF created using the CSD Python API on 29 September 2022
# The structure has been converted into the P1 space group
# The structure has a 3D framework
# The original CSD entry BUVYIB01 is in the rhombohedral crystal system
# The framework has been calculated to contain at least 10.0% void space
# The void calculation uses a probe of radius 1.32A, grid spacing 0.4
#
###############################################################################

data_BUVYIB01
_chemical_formula_moiety         '(C216 H144 Fe11 N90)n'
_symmetry_cell_setting           triclinic
_symmetry_space_group_name_H-M   'P 1'
_symmetry_Int_Tables_number      1
_space_group_name_Hall           'P 1'
loop_
_symmetry_equiv_pos_site_id
_symmetry_equiv_pos_as_xyz
1 x,y,z
_cell_length_a                   31.931(2)
_cell_length_b                   31.931(2)
_cell_length_c                   12.3983(13)
_cell_angle_alpha                90
_cell_angle_beta                 90
_cell_angle_gamma                120
_cell_volume                     10947.6
loop_
_atom_site_label
_atom_site_type_symbol
_atom_site_fract_x
_atom_site_fract_y
_atom_site_fract_z
Fe1 Fe 0.3333 0.1667 0.1667
N1 N 0.38095(9) 0.14679(9) 0.1978(2)
N2 N 0.38807(10) 0.12054(9) 0.2736(2)
N3 N 0.44714(10) 0.14429(10) 0.1484(2)
N4 N 0.37709(10) 0.19601(9) 0.03886(19)
N5 N 0.47879(9) 0.03951(9) 0.4171(2)
C1 C 0.41627(12) 0.16058(12) 0.1252(2)
C2 C 0.42771(13) 0.11969(12) 0.2401(3)
C3 C 0.41583(13) 0.18889(12) 0.0351(3)
C8 C 0.44653(12) 0.09300(12) 0.2999(3)
C9 C 0.48408(12) 0.08770(12) 0.2647(3)
H5 H 0.4997 0.1023 0.2005
C10 C 0.49905(12) 0.06125(13) 0.3225(3)
H6 H 0.5245 0.0580 0.2955
C11 C 0.44196(12) 0.04540(12) 0.4532(3)
H7 H 0.4274 0.0312 0.5184
C12 C 0.42534(12) 0.07117(13) 0.3985(3)
H8 H 0.4000 0.0743 0.4265
Fe2 Fe 0.5001 0.0000 0.5000
N6 N 0.28572(9) 0.18654(9) 0.1355(2)
N7 N 0.27860(10) 0.21279(9) 0.0597(2)
N8 N 0.21953(10) 0.18904(10) 0.1849(2)
N9 N 0.28958(10) 0.13732(9) 0.29447(19)
N11 N 0.29382(9) 0.10595(13) 0.0838(2)
N12 N 0.37284(9) 0.22739(13) 0.2496(2)
C13 C 0.25040(12) 0.17275(12) 0.2081(2)
C14 C 0.23896(13) 0.21364(12) 0.0932(3)
C15 C 0.25084(13) 0.14444(12) 0.2982(3)
C16 C 0.21673(15) 0.12586(15) 0.3798(3)
H9 H 0.1909 0.1316 0.3802
C17 C 0.22137(17) 0.09884(17) 0.4603(3)
H10 H 0.1989 0.0862 0.5159
C18 C 0.25994(16) 0.09065(15) 0.4575(3)
H11 H 0.2635 0.0721 0.5106
C19 C 0.29275(13) 0.11017(12) 0.3756(3)
H12 H 0.3188 0.1046 0.3752
C20 C 0.22014(12) 0.24033(12) 0.0334(3)
C21 C 0.18259(12) 0.24563(12) 0.0686(3)
H13 H 0.1670 0.2310 0.1328
C22 C 0.16762(12) 0.27208(13) 0.0108(3)
H14 H 0.1422 0.2753 0.0378
C4 C 0.44994(15) 0.20747(15) 0.9535(3)
H1 H 0.4758 0.2017 0.9531
C5 C 0.44530(17) 0.23449(17) 0.8730(3)
H2 H 0.4678 0.2471 0.8174
C6 C 0.40673(16) 0.24268(15) 0.8758(3)
H3 H 0.4032 0.2612 0.8227
C7 C 0.37392(13) 0.22316(12) 0.9577(3)
H4 H 0.3479 0.2287 0.9581
Fe3 Fe 0.1667 0.3334 0.8334
N10 N 0.18788(9) 0.29382(9) 0.9162(2)
C23 C 0.22471(12) 0.28793(12) 0.8801(3)
H15 H 0.2393 0.3021 0.8149
C24 C 0.24133(12) 0.26216(13) 0.9348(3)
H16 H 0.2667 0.2590 0.9068
Fe1_2 Fe 0.8333 0.1666 0.1667
N1_2 N 0.85321(9) 0.23416(13) 0.1978(2)
N2_2 N 0.87946(9) 0.26753(13) 0.2736(2)
N3_2 N 0.85571(10) 0.30285(14) 0.1484(2)
N4_2 N 0.80399(9) 0.18108(13) 0.03886(19)
N5_2 N 0.96049(9) 0.43928(13) 0.4171(2)
C1_2 C 0.83942(12) 0.25569(17) 0.1252(2)
C2_2 C 0.88031(12) 0.30802(18) 0.2401(3)
C3_2 C 0.81111(12) 0.22694(18) 0.0351(3)
C8_2 C 0.90700(12) 0.35353(17) 0.2999(3)
C9_2 C 0.91230(12) 0.39638(17) 0.2647(3)
H5_2 H 0.8977 0.3974 0.2005
C10_2 C 0.93875(13) 0.43780(18) 0.3225(3)
H6_2 H 0.9420 0.4665 0.2955
C11_2 C 0.95460(12) 0.39656(17) 0.4532(3)
H7_2 H 0.9688 0.3962 0.5184
C12_2 C 0.92883(13) 0.35417(18) 0.3985(3)
H8_2 H 0.9257 0.3257 0.4265
Fe2_2 Fe 1.0000 0.5000 0.5000
N6_2 N 0.81346(9) 0.09917(13) 0.1355(2)
N7_2 N 0.78721(9) 0.06580(13) 0.0597(2)
N8_2 N 0.81096(10) 0.03048(14) 0.1849(2)
N9_2 N 0.86268(9) 0.15225(13) 0.29447(19)
N11_2 N 0.89405(13) 0.18788(16) 0.0838(2)
N12_2 N 0.77261(13) 0.14546(16) 0.2496(2)
C13_2 C 0.82725(12) 0.07764(17) 0.2081(2)
C14_2 C 0.78636(12) 0.02531(18) 0.0932(3)
C15_2 C 0.85556(12) 0.10639(18) 0.2982(3)
C16_2 C 0.87414(15) 0.09086(21) 0.3798(3)
H9_2 H 0.8684 0.0592 0.3802
C17_2 C 0.90116(17) 0.12252(24) 0.4603(3)
H10_2 H 0.9138 0.1126 0.5159
C18_2 C 0.90935(15) 0.16928(22) 0.4575(3)
H11_2 H 0.9279 0.1913 0.5106
C19_2 C 0.88983(12) 0.18257(18) 0.3756(3)
H12_2 H 0.8954 0.2141 0.3752
Fe3_2 Fe 0.6666 0.8334 0.8334
N10_2 N 0.70618(9) 0.89405(13) 0.9162(2)
C23_2 C 0.71207(12) 0.93677(17) 0.8801(3)
H15_2 H 0.6979 0.9371 0.8149
C24_2 C 0.73784(13) 0.97916(18) 0.9348(3)
Fe3_3 Fe 0.1666 0.8333 0.8334
N10_3 N 0.10595(13) 0.81212(9) 0.9162(2)
C23_3 C 0.06323(17) 0.77529(12) 0.8801(3)
H15_3 H 0.0629 0.7607 0.8149
C24_3 C 0.02084(18) 0.75867(12) 0.9348(3)
Fe1_3 Fe 0.8334 0.6667 0.1667
N1_3 N 0.76584(13) 0.61905(9) 0.1978(2)
N2_3 N 0.73247(13) 0.61193(10) 0.2736(2)
N3_3 N 0.69715(14) 0.55286(10) 0.1484(2)
N4_3 N 0.81892(13) 0.62291(10) 0.03886(19)
N5_3 N 0.56072(13) 0.52121(9) 0.4171(2)
C1_3 C 0.74431(17) 0.58373(12) 0.1252(2)
C2_3 C 0.69198(18) 0.57229(13) 0.2401(3)
C3_3 C 0.77306(18) 0.58417(13) 0.0351(3)
C8_3 C 0.64647(17) 0.55347(12) 0.2999(3)
C9_3 C 0.60362(17) 0.51592(12) 0.2647(3)
H5_3 H 0.6026 0.5003 0.2005
C10_3 C 0.56220(18) 0.50095(12) 0.3225(3)
H6_3 H 0.5335 0.4755 0.2955
C11_3 C 0.60344(17) 0.55804(12) 0.4532(3)
H7_3 H 0.6038 0.5726 0.5184
C12_3 C 0.64583(18) 0.57466(12) 0.3985(3)
H8_3 H 0.6743 0.6000 0.4265
Fe2_3 Fe 0.5000 0.4999 0.5000
N6_3 N 0.90083(13) 0.71428(9) 0.1355(2)
N7_3 N 0.93420(13) 0.72140(10) 0.0597(2)
N8_3 N 0.96952(14) 0.78047(10) 0.1849(2)
N9_3 N 0.84775(13) 0.71042(10) 0.29447(19)
N11_3 N 0.81212(16) 0.70618(9) 0.0838(2)
N12_3 N 0.85454(16) 0.62716(9) 0.2496(2)
C13_3 C 0.92236(17) 0.74960(12) 0.2081(2)
C14_3 C 0.97469(18) 0.76104(13) 0.0932(3)
C15_3 C 0.89361(18) 0.74916(13) 0.2982(3)
C16_3 C 0.90914(21) 0.78327(15) 0.3798(3)
H9_3 H 0.9408 0.8091 0.3802
C17_3 C 0.87748(24) 0.77863(17) 0.4603(3)
H10_3 H 0.8874 0.8011 0.5159
C18_3 C 0.83072(22) 0.74006(16) 0.4575(3)
H11_3 H 0.8087 0.7365 0.5106
C19_3 C 0.81743(18) 0.70725(13) 0.3756(3)
H12_3 H 0.7859 0.6812 0.3752
N1_4 N 0.04762(9) 0.48012(9) 0.5311(2)
N2_4 N 0.05474(10) 0.45387(9) 0.6069(2)
N3_4 N 0.11381(10) 0.47762(10) 0.4817(2)
N4_4 N 0.04376(10) 0.52934(9) 0.37219(19)
N5_4 N 0.14546(9) 0.37284(9) 0.7504(2)
C1_4 C 0.08294(12) 0.49391(12) 0.4585(2)
C2_4 C 0.09438(13) 0.45302(12) 0.5734(3)
C3_4 C 0.08250(13) 0.52222(12) 0.3684(3)
C4_2 C 0.11661(15) 0.54080(15) 0.2868(3)
H1_2 H 0.1425 0.5350 0.2864
C5_2 C 0.11197(17) 0.56782(17) 0.2063(3)
H2_2 H 0.1345 0.5804 0.1507
C6_2 C 0.07340(16) 0.57601(15) 0.2091(3)
H3_2 H 0.0699 0.5945 0.1560
C7_2 C 0.04059(13) 0.55649(12) 0.2910(3)
H4_2 H 0.0146 0.5620 0.2914
C8_4 C 0.11320(12) 0.42633(12) 0.6332(3)
C9_4 C 0.15075(12) 0.42103(12) 0.5980(3)
H5_4 H 0.1664 0.4356 0.5338
C10_4 C 0.16572(12) 0.39458(13) 0.6558(3)
H6_4 H 0.1912 0.3913 0.6288
C11_4 C 0.10863(12) 0.37873(12) 0.7865(3)
H7_4 H 0.0941 0.3645 0.8517
C12_4 C 0.09201(12) 0.40450(13) 0.7318(3)
H8_4 H 0.0667 0.4076 0.7598
N12_4 N 0.03951(9) 0.56072(13) 0.5829(2)
N6_4 N 0.95238(9) 0.51988(9) 0.4689(2)
N7_4 N 0.94526(10) 0.54613(9) 0.3931(2)
N8_4 N 0.88619(10) 0.52238(10) 0.5183(2)
N9_4 N 0.95624(10) 0.47066(9) 0.62781(19)
C13_4 C 0.91706(12) 0.50609(12) 0.5415(2)
C14_4 C 0.90562(13) 0.54698(12) 0.4266(3)
C15_4 C 0.91750(13) 0.47778(12) 0.6316(3)
C16_4 C 0.88339(15) 0.45920(15) 0.7132(3)
H9_4 H 0.8575 0.4650 0.7136
C17_4 C 0.88803(17) 0.43218(17) 0.7937(3)
H10_4 H 0.8655 0.4196 0.8493
C18_4 C 0.92660(16) 0.42399(15) 0.7909(3)
H11_4 H 0.9301 0.4055 0.8440
C19_4 C 0.95941(13) 0.44351(12) 0.7090(3)
H12_4 H 0.9854 0.4380 0.7086
C20_2 C 0.88680(12) 0.57367(12) 0.3668(3)
C21_2 C 0.84925(12) 0.57897(12) 0.4020(3)
H13_2 H 0.8336 0.5644 0.4662
C22_2 C 0.83428(12) 0.60542(13) 0.3442(3)
H14_2 H 0.8088 0.6087 0.3712
C23_4 C 0.89137(12) 0.62127(12) 0.2135(3)
H15_4 H 0.9059 0.6355 0.1483
C24_4 C 0.90799(12) 0.59550(13) 0.2682(3)
H16_2 H 0.9333 0.5924 0.2402
N1_5 N 0.51988(9) 0.56749(13) 0.5311(2)
N2_5 N 0.54613(9) 0.60086(13) 0.6069(2)
N3_5 N 0.52238(10) 0.63618(14) 0.4817(2)
N4_5 N 0.47066(9) 0.51441(13) 0.37219(19)
N5_5 N 0.62716(9) 0.77261(13) 0.7504(2)
C1_5 C 0.50609(12) 0.58902(17) 0.4585(2)
C2_5 C 0.54698(12) 0.64135(18) 0.5734(3)
C3_5 C 0.47778(12) 0.56027(18) 0.3684(3)
C4_3 C 0.45920(15) 0.57580(21) 0.2868(3)
H1_3 H 0.4650 0.6074 0.2864
C5_3 C 0.43218(17) 0.54414(24) 0.2063(3)
H2_3 H 0.4196 0.5540 0.1507
C6_3 C 0.42399(15) 0.49738(22) 0.2091(3)
H3_3 H 0.4055 0.4753 0.1560
C7_3 C 0.44351(12) 0.48409(18) 0.2910(3)
H4_3 H 0.4380 0.4525 0.2914
C8_5 C 0.57367(12) 0.68686(17) 0.6332(3)
C9_5 C 0.57897(12) 0.72971(17) 0.5980(3)
H5_5 H 0.5644 0.7307 0.5338
C10_5 C 0.60542(13) 0.77113(18) 0.6558(3)
H6_5 H 0.6087 0.7998 0.6288
C11_5 C 0.62127(12) 0.72989(17) 0.7865(3)
H7_5 H 0.6355 0.7295 0.8517
C12_5 C 0.59550(13) 0.68750(18) 0.7318(3)
H8_5 H 0.5924 0.6590 0.7598
N6_5 N 0.48012(9) 0.43251(13) 0.4689(2)
N7_5 N 0.45387(9) 0.39914(13) 0.3931(2)
N8_5 N 0.47762(10) 0.36382(14) 0.5183(2)
N9_5 N 0.52934(9) 0.48559(13) 0.62781(19)
N12_5 N 0.43928(13) 0.47879(16) 0.5829(2)
C13_5 C 0.49391(12) 0.41098(17) 0.5415(2)
C14_5 C 0.45302(12) 0.35865(18) 0.4266(3)
C15_5 C 0.52222(12) 0.43973(18) 0.6316(3)
C16_5 C 0.54080(15) 0.42420(21) 0.7132(3)
H9_5 H 0.5350 0.3926 0.7136
C17_5 C 0.56782(17) 0.45586(24) 0.7937(3)
H10_5 H 0.5804 0.4460 0.8493
C18_5 C 0.57601(15) 0.50262(22) 0.7909(3)
H11_5 H 0.5945 0.5247 0.8440
C19_5 C 0.55649(12) 0.51591(18) 0.7090(3)
H12_5 H 0.5620 0.5475 0.7086
C20_3 C 0.42633(12) 0.31314(17) 0.3668(3)
C21_3 C 0.42103(12) 0.27029(17) 0.4020(3)
H13_3 H 0.4356 0.2693 0.4662
C22_3 C 0.39458(13) 0.22887(18) 0.3442(3)
H14_3 H 0.3913 0.2002 0.3712
C23_5 C 0.37873(12) 0.27011(17) 0.2135(3)
H15_5 H 0.3645 0.2705 0.1483
C24_5 C 0.40450(13) 0.31250(18) 0.2682(3)
H16_3 H 0.4076 0.3410 0.2402
N6_6 N 0.56749(13) 0.04762(9) 0.4689(2)
N7_6 N 0.60086(13) 0.05474(10) 0.3931(2)
N8_6 N 0.63618(14) 0.11381(10) 0.5183(2)
N9_6 N 0.51441(13) 0.04376(10) 0.62781(19)
C13_6 C 0.58902(17) 0.08294(12) 0.5415(2)
C14_6 C 0.64135(18) 0.09438(13) 0.4266(3)
C15_6 C 0.56027(18) 0.08250(13) 0.6316(3)
C16_6 C 0.57580(21) 0.11661(15) 0.7132(3)
H9_6 H 0.6074 0.1425 0.7136
C17_6 C 0.54414(24) 0.11197(17) 0.7937(3)
H10_6 H 0.5540 0.1345 0.8493
C18_6 C 0.49738(22) 0.07340(16) 0.7909(3)
H11_6 H 0.4753 0.0699 0.8440
C19_6 C 0.48409(18) 0.04059(13) 0.7090(3)
H12_6 H 0.4525 0.0146 0.7086
C20_4 C 0.68686(17) 0.11320(12) 0.3668(3)
C21_4 C 0.72971(17) 0.15075(12) 0.4020(3)
H13_4 H 0.7307 0.1664 0.4662
C22_4 C 0.77113(18) 0.16572(12) 0.3442(3)
H14_4 H 0.7998 0.1912 0.3712
C23_6 C 0.72989(17) 0.10863(12) 0.2135(3)
H15_6 H 0.7295 0.0941 0.1483
C24_6 C 0.68750(18) 0.09201(12) 0.2682(3)
H16_4 H 0.6590 0.0667 0.2402
N1_6 N 0.43251(13) 0.95238(9) 0.5311(2)
N2_6 N 0.39914(13) 0.94526(10) 0.6069(2)
N3_6 N 0.36382(14) 0.88619(10) 0.4817(2)
N4_6 N 0.48559(13) 0.95624(10) 0.37219(19)
N5_6 N 0.22739(13) 0.85454(9) 0.7504(2)
C1_6 C 0.41098(17) 0.91706(12) 0.4585(2)
C2_6 C 0.35865(18) 0.90562(13) 0.5734(3)
C3_6 C 0.43973(18) 0.91750(13) 0.3684(3)
C4_4 C 0.42420(21) 0.88339(15) 0.2868(3)
H1_4 H 0.3926 0.8575 0.2864
C5_4 C 0.45586(24) 0.88803(17) 0.2063(3)
H2_4 H 0.4460 0.8655 0.1507
C6_4 C 0.50262(22) 0.92660(16) 0.2091(3)
H3_4 H 0.5247 0.9301 0.1560
C7_4 C 0.51591(18) 0.95941(13) 0.2910(3)
H4_4 H 0.5475 0.9854 0.2914
C8_6 C 0.31314(17) 0.88680(12) 0.6332(3)
C9_6 C 0.27029(17) 0.84925(12) 0.5980(3)
H5_6 H 0.2693 0.8336 0.5338
C10_6 C 0.22887(18) 0.83428(12) 0.6558(3)
H6_6 H 0.2002 0.8088 0.6288
C11_6 C 0.27011(17) 0.89137(12) 0.7865(3)
H7_6 H 0.2705 0.9059 0.8517
C12_6 C 0.31250(18) 0.90799(12) 0.7318(3)
H8_6 H 0.3410 0.9333 0.7598
N12_6 N 0.52121(16) 0.96049(9) 0.5829(2)
C11_7 C 0.77529(12) 0.71207(12) 0.1199(3)
H7_7 H 0.7607 0.6979 0.1851
C12_7 C 0.75867(12) 0.73784(13) 0.0652(3)
H8_7 H 0.7333 0.7410 0.0932
C16_7 C 0.55006(15) 0.79253(15) 0.0465(3)
H9_7 H 0.5242 0.7983 0.0469
C17_7 C 0.55470(17) 0.76551(17) 0.1270(3)
H10_7 H 0.5322 0.7529 0.1826
C18_7 C 0.59327(16) 0.75732(15) 0.1242(3)
H11_7 H 0.5968 0.7388 0.1773
C19_7 C 0.62608(13) 0.77684(12) 0.0423(3)
H12_7 H 0.6521 0.7713 0.0419
N1_7 N 0.71428(9) 0.81346(9) 0.8645(2)
N2_7 N 0.72140(10) 0.78721(9) 0.9403(2)
N3_7 N 0.78047(10) 0.81096(10) 0.8151(2)
N4_7 N 0.71042(10) 0.86268(9) 0.70553(19)
C1_7 C 0.74960(12) 0.82725(12) 0.7919(2)
C2_7 C 0.76104(13) 0.78636(12) 0.9068(3)
C3_7 C 0.74916(13) 0.85556(12) 0.7018(3)
C4_5 C 0.78327(15) 0.87414(15) 0.6202(3)
H1_5 H 0.8091 0.8684 0.6198
C5_5 C 0.77863(17) 0.90116(17) 0.5397(3)
H2_5 H 0.8011 0.9138 0.4841
C6_5 C 0.74006(16) 0.90935(15) 0.5425(3)
H3_5 H 0.7365 0.9279 0.4894
C7_5 C 0.70725(13) 0.88983(12) 0.6244(3)
H4_5 H 0.6812 0.8954 0.6248
C8_7 C 0.77986(12) 0.75967(12) 0.9666(3)
C9_7 C 0.81741(12) 0.75437(12) 0.9314(3)
H5_7 H 0.8330 0.7690 0.8672
C10_7 C 0.83238(12) 0.72792(13) 0.9892(3)
H6_7 H 0.8578 0.7247 0.9622
N6_7 N 0.61905(9) 0.85321(9) 0.8022(2)
N7_7 N 0.61193(10) 0.87946(9) 0.7264(2)
N8_7 N 0.55286(10) 0.85571(10) 0.8516(2)
N9_7 N 0.62291(10) 0.80399(9) 0.96114(19)
C13_7 C 0.58373(12) 0.83942(12) 0.8748(2)
C14_7 C 0.57229(13) 0.88031(12) 0.7599(3)
C15_7 C 0.58417(13) 0.81111(12) 0.9649(3)
C20_5 C 0.55347(12) 0.90700(12) 0.7001(3)
C21_5 C 0.51592(12) 0.91230(12) 0.7353(3)
H13_5 H 0.5003 0.8977 0.7995
C22_5 C 0.50095(12) 0.93875(13) 0.6775(3)
H14_5 H 0.4755 0.9420 0.7045
C23_7 C 0.55804(12) 0.95460(12) 0.5468(3)
H15_7 H 0.5726 0.9688 0.4816
C24_7 C 0.57466(12) 0.92883(13) 0.6015(3)
H16_5 H 0.6000 0.9257 0.5735
C11_8 C 0.28793(12) 0.06323(17) 0.1199(3)
H7_8 H 0.3021 0.0629 0.1851
C12_8 C 0.26216(13) 0.02084(18) 0.0652(3)
N1_8 N 0.18654(9) 0.90083(13) 0.8645(2)
N2_8 N 0.21279(9) 0.93420(13) 0.9403(2)
N3_8 N 0.18904(10) 0.96952(14) 0.8151(2)
N4_8 N 0.13732(9) 0.84775(13) 0.70553(19)
C1_8 C 0.17275(12) 0.92236(17) 0.7919(2)
C2_8 C 0.21364(12) 0.97469(18) 0.9068(3)
C3_8 C 0.14444(12) 0.89361(18) 0.7018(3)
C4_6 C 0.12586(15) 0.90914(21) 0.6202(3)
H1_6 H 0.1316 0.9408 0.6198
C5_6 C 0.09884(17) 0.87748(24) 0.5397(3)
H2_6 H 0.0862 0.8874 0.4841
C6_6 C 0.09065(15) 0.83072(22) 0.5425(3)
H3_6 H 0.0721 0.8087 0.4894
C7_6 C 0.11017(12) 0.81743(18) 0.6244(3)
H4_6 H 0.1046 0.7859 0.6248
N6_8 N 0.14679(9) 0.76584(13) 0.8022(2)
N7_8 N 0.12054(9) 0.73247(13) 0.7264(2)
N8_8 N 0.14429(10) 0.69715(14) 0.8516(2)
N9_8 N 0.19601(9) 0.81892(13) 0.96114(19)
C13_8 C 0.16058(12) 0.74431(17) 0.8748(2)
C14_8 C 0.11969(12) 0.69198(18) 0.7599(3)
C15_8 C 0.18889(12) 0.77306(18) 0.9649(3)
C20_6 C 0.09300(12) 0.64647(17) 0.7001(3)
C21_6 C 0.08770(12) 0.60362(17) 0.7353(3)
H13_6 H 0.1023 0.6026 0.7995
C22_6 C 0.06125(13) 0.56220(18) 0.6775(3)
H14_6 H 0.0580 0.5335 0.7045
C23_8 C 0.04540(12) 0.60344(17) 0.5468(3)
H15_8 H 0.0312 0.6038 0.4816
C24_8 C 0.07117(13) 0.64583(18) 0.6015(3)
H16_6 H 0.0743 0.6743 0.5735
N1_9 N 0.09917(13) 0.28572(9) 0.8645(2)
N2_9 N 0.06580(13) 0.27860(10) 0.9403(2)
N3_9 N 0.03048(14) 0.21953(10) 0.8151(2)
N4_9 N 0.15225(13) 0.28958(10) 0.70553(19)
C1_9 C 0.07764(17) 0.25040(12) 0.7919(2)
C2_9 C 0.02531(18) 0.23896(13) 0.9068(3)
C3_9 C 0.10639(18) 0.25084(13) 0.7018(3)
C4_7 C 0.09086(21) 0.21673(15) 0.6202(3)
H1_7 H 0.0592 0.1909 0.6198
C5_7 C 0.12252(24) 0.22137(17) 0.5397(3)
H2_7 H 0.1126 0.1989 0.4841
C6_7 C 0.16928(22) 0.25994(16) 0.5425(3)
H3_7 H 0.1913 0.2635 0.4894
C7_7 C 0.18257(18) 0.29275(13) 0.6244(3)
H4_7 H 0.2141 0.3188 0.6248
N6_9 N 0.23416(13) 0.38095(9) 0.8022(2)
N7_9 N 0.26753(13) 0.38807(10) 0.7264(2)
N8_9 N 0.30285(14) 0.44714(10) 0.8516(2)
N9_9 N 0.18108(13) 0.37709(10) 0.96114(19)
C13_9 C 0.25569(17) 0.41627(12) 0.8748(2)
C14_9 C 0.30802(18) 0.42771(13) 0.7599(3)
C15_9 C 0.22694(18) 0.41583(13) 0.9649(3)
C20_7 C 0.35353(17) 0.44653(12) 0.7001(3)
C21_7 C 0.39638(17) 0.48408(12) 0.7353(3)
H13_7 H 0.3974 0.4997 0.7995
C22_7 C 0.43780(18) 0.49905(12) 0.6775(3)
H14_7 H 0.4665 0.5245 0.7045
C23_9 C 0.39656(17) 0.44196(12) 0.5468(3)
H15_9 H 0.3962 0.4274 0.4816
C24_9 C 0.35417(18) 0.42534(12) 0.6015(3)
H16_7 H 0.3257 0.4000 0.5735
C11_9 C 0.93677(17) 0.22471(12) 0.1199(3)
H7_9 H 0.9371 0.2393 0.1851
C12_9 C 0.97916(18) 0.24133(12) 0.0652(3)
Fe2_4 Fe 0.4999 1.0000 0.5000
Fe2_5 Fe 0.0000 0.5000 0.5000
C4_8 C 0.79253(15) 0.24247(21) 0.9535(3)
H1_8 H 0.7983 0.2741 0.9531
C5_8 C 0.76551(17) 0.21081(24) 0.8730(3)
H2_8 H 0.7529 0.2207 0.8174
C6_8 C 0.75732(15) 0.16405(22) 0.8758(3)
H3_8 H 0.7388 0.1420 0.8227
C7_8 C 0.77684(12) 0.15076(18) 0.9577(3)
H4_8 H 0.7713 0.1192 0.9581
H16_8 H 0.7410 0.0076 0.9068
C20_8 C 0.75967(12) 0.97980(17) 0.0334(3)
C21_8 C 0.75437(12) 0.93695(17) 0.0686(3)
H13_8 H 0.7690 0.9359 0.1328
C22_8 C 0.72792(13) 0.89553(18) 0.0108(3)
H14_8 H 0.7247 0.8668 0.0378
C20_9 C 0.02020(17) 0.77986(12) 0.0334(3)
C21_9 C 0.06305(17) 0.81741(12) 0.0686(3)
H13_9 H 0.0641 0.8330 0.1328
C22_9 C 0.10447(18) 0.83238(12) 0.0108(3)
H14_9 H 0.1332 0.8578 0.0378
C4_9 C 0.75753(21) 0.55006(15) 0.9535(3)
H1_9 H 0.7259 0.5242 0.9531
C5_9 C 0.78919(24) 0.55470(17) 0.8730(3)
H2_9 H 0.7793 0.5322 0.8174
C6_9 C 0.83595(22) 0.59327(16) 0.8758(3)
H3_9 H 0.8580 0.5968 0.8227
C7_9 C 0.84924(18) 0.62608(13) 0.9577(3)
H4_9 H 0.8808 0.6521 0.9581
H16_9 H 0.9924 0.7333 0.9068
C8_8 C 0.24033(12) 0.02020(17) 0.9666(3)
C9_8 C 0.24563(12) 0.06305(17) 0.9314(3)
H5_8 H 0.2310 0.0641 0.8672
C10_8 C 0.27208(13) 0.10447(18) 0.9892(3)
H6_8 H 0.2753 0.1332 0.9622
H8_8 H 0.2590 0.9924 0.0932
C16_8 C 0.20747(15) 0.75753(21) 0.0465(3)
H9_8 H 0.2017 0.7259 0.0469
C17_8 C 0.23449(17) 0.78919(24) 0.1270(3)
H10_8 H 0.2471 0.7793 0.1826
C18_8 C 0.24268(15) 0.83595(22) 0.1242(3)
H11_8 H 0.2612 0.8580 0.1773
C19_8 C 0.22316(12) 0.84924(18) 0.0423(3)
H12_8 H 0.2287 0.8808 0.0419
H8_9 H 0.0076 0.2667 0.0932
C16_9 C 0.24247(21) 0.44994(15) 0.0465(3)
H9_9 H 0.2741 0.4758 0.0469
C17_9 C 0.21081(24) 0.44530(17) 0.1270(3)
H10_9 H 0.2207 0.4678 0.1826
C18_9 C 0.16405(22) 0.40673(16) 0.1242(3)
H11_9 H 0.1420 0.4032 0.1773
C19_9 C 0.15076(18) 0.37392(13) 0.0423(3)
H12_9 H 0.1192 0.3479 0.0419
C8_9 C 0.97980(17) 0.22014(12) 0.9666(3)
C9_9 C 0.93695(17) 0.18259(12) 0.9314(3)
H5_9 H 0.9359 0.1670 0.8672
C10_9 C 0.89553(18) 0.16762(12) 0.9892(3)
H6_9 H 0.8668 0.1422 0.9622
loop_
_geom_bond_atom_site_label_1
_geom_bond_atom_site_label_2
_geom_bond_site_symmetry_1
_geom_bond_site_symmetry_2
Fe1 N1 1_555 1_555
N1 N2 1_555 1_555
N2 C2 1_555 1_555
N3 C1 1_555 1_555
N4 Fe1 1_555 1_555
N5 C10 1_555 1_555
C1 N1 1_555 1_555
C2 N3 1_555 1_555
C3 N4 1_555 1_555
C8 C2 1_555 1_555
C9 C8 1_555 1_555
H5 C9 1_555 1_555
C10 C9 1_555 1_555
H6 C10 1_555 1_555
C11 N5 1_555 1_555
H7 C11 1_555 1_555
C12 C8 1_555 1_555
H8 C12 1_555 1_555
Fe2 N5 1_555 1_555
N6 Fe1 1_555 1_555
N7 N6 1_555 1_555
N8 C13 1_555 1_555
N9 Fe1 1_555 1_555
N11 Fe1 1_555 1_555
N12 Fe1 1_555 1_555
C13 N6 1_555 1_555
C14 N7 1_555 1_555
C15 N9 1_555 1_555
C16 C15 1_555 1_555
H9 C16 1_555 1_555
C17 C16 1_555 1_555
H10 C17 1_555 1_555
C18 C17 1_555 1_555
H11 C18 1_555 1_555
C19 N9 1_555 1_555
H12 C19 1_555 1_555
C20 C14 1_555 1_555
C21 C20 1_555 1_555
H13 C21 1_555 1_555
C22 C21 1_555 1_555
H14 C22 1_555 1_555
C1 C3 1_555 1_555
C11 C12 1_555 1_555
N8 C14 1_555 1_555
C13 C15 1_555 1_555
C18 C19 1_555 1_555
H1 C4 1_555 1_555
C5 C4 1_555 1_555
H2 C5 1_555 1_555
C6 C5 1_555 1_555
H3 C6 1_555 1_555
H4 C7 1_555 1_555
Fe3 N10 1_555 1_555
C23 N10 1_555 1_555
H15 C23 1_555 1_555
H16 C24 1_555 1_555
C6 C7 1_555 1_555
C23 C24 1_555 1_555
Fe1_2 N1_2 1_555 1_555
N1_2 N2_2 1_555 1_555
N2_2 C2_2 1_555 1_555
N3_2 C1_2 1_555 1_555
N4_2 Fe1_2 1_555 1_555
N5_2 C10_2 1_555 1_555
C1_2 N1_2 1_555 1_555
C2_2 N3_2 1_555 1_555
C3_2 N4_2 1_555 1_555
C8_2 C2_2 1_555 1_555
C9_2 C8_2 1_555 1_555
H5_2 C9_2 1_555 1_555
C10_2 C9_2 1_555 1_555
H6_2 C10_2 1_555 1_555
C11_2 N5_2 1_555 1_555
H7_2 C11_2 1_555 1_555
C12_2 C8_2 1_555 1_555
H8_2 C12_2 1_555 1_555
Fe2_2 N5_2 1_555 1_555
N6_2 Fe1_2 1_555 1_555
N7_2 N6_2 1_555 1_555
N8_2 C13_2 1_555 1_555
N9_2 Fe1_2 1_555 1_555
N11_2 Fe1_2 1_555 1_555
N12_2 Fe1_2 1_555 1_555
C13_2 N6_2 1_555 1_555
C14_2 N7_2 1_555 1_555
C15_2 N9_2 1_555 1_555
C16_2 C15_2 1_555 1_555
H9_2 C16_2 1_555 1_555
C17_2 C16_2 1_555 1_555
H10_2 C17_2 1_555 1_555
C18_2 C17_2 1_555 1_555
H11_2 C18_2 1_555 1_555
C19_2 N9_2 1_555 1_555
H12_2 C19_2 1_555 1_555
C1_2 C3_2 1_555 1_555
C11_2 C12_2 1_555 1_555
N8_2 C14_2 1_555 1_555
C13_2 C15_2 1_555 1_555
C18_2 C19_2 1_555 1_555
Fe3_2 N10_2 1_555 1_555
C23_2 N10_2 1_555 1_555
H15_2 C23_2 1_555 1_555
C23_2 C24_2 1_555 1_555
Fe3_3 N10_3 1_555 1_555
C23_3 N10_3 1_555 1_555
H15_3 C23_3 1_555 1_555
C23_3 C24_3 1_555 1_555
Fe1_3 N1_3 1_555 1_555
N1_3 N2_3 1_555 1_555
N2_3 C2_3 1_555 1_555
N3_3 C1_3 1_555 1_555
N4_3 Fe1_3 1_555 1_555
N5_3 C10_3 1_555 1_555
C1_3 N1_3 1_555 1_555
C2_3 N3_3 1_555 1_555
C3_3 N4_3 1_555 1_555
C8_3 C2_3 1_555 1_555
C9_3 C8_3 1_555 1_555
H5_3 C9_3 1_555 1_555
C10_3 C9_3 1_555 1_555
H6_3 C10_3 1_555 1_555
C11_3 N5_3 1_555 1_555
H7_3 C11_3 1_555 1_555
C12_3 C8_3 1_555 1_555
H8_3 C12_3 1_555 1_555
Fe2_3 N5_3 1_555 1_555
N6_3 Fe1_3 1_555 1_555
N7_3 N6_3 1_555 1_555
N8_3 C13_3 1_555 1_555
N9_3 Fe1_3 1_555 1_555
N11_3 Fe1_3 1_555 1_555
N12_3 Fe1_3 1_555 1_555
C13_3 N6_3 1_555 1_555
C14_3 N7_3 1_555 1_555
C15_3 N9_3 1_555 1_555
C16_3 C15_3 1_555 1_555
H9_3 C16_3 1_555 1_555
C17_3 C16_3 1_555 1_555
H10_3 C17_3 1_555 1_555
C18_3 C17_3 1_555 1_555
H11_3 C18_3 1_555 1_555
C19_3 N9_3 1_555 1_555
H12_3 C19_3 1_555 1_555
C1_3 C3_3 1_555 1_555
C11_3 C12_3 1_555 1_555
N8_3 C14_3 1_555 1_555
C13_3 C15_3 1_555 1_555
C18_3 C19_3 1_555 1_555
N1_4 N2_4 1_555 1_555
N2_4 C2_4 1_555 1_555
N3_4 C1_4 1_555 1_555
N5_4 C10_4 1_555 1_555
C1_4 N1_4 1_555 1_555
C2_4 N3_4 1_555 1_555
C3_4 N4_4 1_555 1_555
C4_2 C3_4 1_555 1_555
H1_2 C4_2 1_555 1_555
C5_2 C4_2 1_555 1_555
H2_2 C5_2 1_555 1_555
C6_2 C5_2 1_555 1_555
H3_2 C6_2 1_555 1_555
C7_2 N4_4 1_555 1_555
H4_2 C7_2 1_555 1_555
C8_4 C2_4 1_555 1_555
C9_4 C8_4 1_555 1_555
H5_4 C9_4 1_555 1_555
C10_4 C9_4 1_555 1_555
H6_4 C10_4 1_555 1_555
C11_4 N5_4 1_555 1_555
H7_4 C11_4 1_555 1_555
C12_4 C8_4 1_555 1_555
H8_4 C12_4 1_555 1_555
Fe3 N5_4 1_555 1_555
C1_4 C3_4 1_555 1_555
C6_2 C7_2 1_555 1_555
C11_4 C12_4 1_555 1_555
N6_4 Fe2_2 1_555 1_555
N7_4 N6_4 1_555 1_555
N8_4 C13_4 1_555 1_555
N9_4 Fe2_2 1_555 1_555
N12_3 C22_2 1_555 1_555
C13_4 N6_4 1_555 1_555
C14_4 N7_4 1_555 1_555
C15_4 N9_4 1_555 1_555
C16_4 C15_4 1_555 1_555
H9_4 C16_4 1_555 1_555
C17_4 C16_4 1_555 1_555
H10_4 C17_4 1_555 1_555
C18_4 C17_4 1_555 1_555
H11_4 C18_4 1_555 1_555
C19_4 N9_4 1_555 1_555
H12_4 C19_4 1_555 1_555
C20_2 C14_4 1_555 1_555
C21_2 C20_2 1_555 1_555
H13_2 C21_2 1_555 1_555
C22_2 C21_2 1_555 1_555
H14_2 C22_2 1_555 1_555
C23_4 N12_3 1_555 1_555
H15_4 C23_4 1_555 1_555
C24_4 C20_2 1_555 1_555
H16_2 C24_4 1_555 1_555
N8_4 C14_4 1_555 1_555
C13_4 C15_4 1_555 1_555
C18_4 C19_4 1_555 1_555
C23_4 C24_4 1_555 1_555
Fe2_3 N1_5 1_555 1_555
N1_5 N2_5 1_555 1_555
N2_5 C2_5 1_555 1_555
N3_5 C1_5 1_555 1_555
N4_5 Fe2_3 1_555 1_555
N5_5 C10_5 1_555 1_555
C1_5 N1_5 1_555 1_555
C2_5 N3_5 1_555 1_555
C3_5 N4_5 1_555 1_555
C4_3 C3_5 1_555 1_555
H1_3 C4_3 1_555 1_555
C5_3 C4_3 1_555 1_555
H2_3 C5_3 1_555 1_555
C6_3 C5_3 1_555 1_555
H3_3 C6_3 1_555 1_555
C7_3 N4_5 1_555 1_555
H4_3 C7_3 1_555 1_555
C8_5 C2_5 1_555 1_555
C9_5 C8_5 1_555 1_555
H5_5 C9_5 1_555 1_555
C10_5 C9_5 1_555 1_555
H6_5 C10_5 1_555 1_555
C11_5 N5_5 1_555 1_555
H7_5 C11_5 1_555 1_555
C12_5 C8_5 1_555 1_555
H8_5 C12_5 1_555 1_555
Fe3_2 N5_5 1_555 1_555
N6_5 Fe2_3 1_555 1_555
N7_5 N6_5 1_555 1_555
N8_5 C13_5 1_555 1_555
N9_5 Fe2_3 1_555 1_555
N12 C22_3 1_555 1_555
N12_5 Fe2_3 1_555 1_555
C13_5 N6_5 1_555 1_555
C14_5 N7_5 1_555 1_555
C15_5 N9_5 1_555 1_555
C16_5 C15_5 1_555 1_555
H9_5 C16_5 1_555 1_555
C17_5 C16_5 1_555 1_555
H10_5 C17_5 1_555 1_555
C18_5 C17_5 1_555 1_555
H11_5 C18_5 1_555 1_555
C19_5 N9_5 1_555 1_555
H12_5 C19_5 1_555 1_555
C20_3 C14_5 1_555 1_555
C21_3 C20_3 1_555 1_555
H13_3 C21_3 1_555 1_555
C22_3 C21_3 1_555 1_555
H14_3 C22_3 1_555 1_555
C23_5 N12 1_555 1_555
H15_5 C23_5 1_555 1_555
C24_5 C20_3 1_555 1_555
H16_3 C24_5 1_555 1_555
C1_5 C3_5 1_555 1_555
C6_3 C7_3 1_555 1_555
C11_5 C12_5 1_555 1_555
N8_5 C14_5 1_555 1_555
C13_5 C15_5 1_555 1_555
C18_5 C19_5 1_555 1_555
C23_5 C24_5 1_555 1_555
N6_6 Fe2 1_555 1_555
N7_6 N6_6 1_555 1_555
N8_6 C13_6 1_555 1_555
N9_6 Fe2 1_555 1_555
N12_2 C22_4 1_555 1_555
C13_6 N6_6 1_555 1_555
C14_6 N7_6 1_555 1_555
C15_6 N9_6 1_555 1_555
C16_6 C15_6 1_555 1_555
H9_6 C16_6 1_555 1_555
C17_6 C16_6 1_555 1_555
H10_6 C17_6 1_555 1_555
C18_6 C17_6 1_555 1_555
H11_6 C18_6 1_555 1_555
C19_6 N9_6 1_555 1_555
H12_6 C19_6 1_555 1_555
C20_4 C14_6 1_555 1_555
C21_4 C20_4 1_555 1_555
H13_4 C21_4 1_555 1_555
C22_4 C21_4 1_555 1_555
H14_4 C22_4 1_555 1_555
C23_6 N12_2 1_555 1_555
H15_6 C23_6 1_555 1_555
C24_6 C20_4 1_555 1_555
H16_4 C24_6 1_555 1_555
N8_6 C14_6 1_555 1_555
C13_6 C15_6 1_555 1_555
C18_6 C19_6 1_555 1_555
C23_6 C24_6 1_555 1_555
N1_6 N2_6 1_555 1_555
N2_6 C2_6 1_555 1_555
N3_6 C1_6 1_555 1_555
N5_6 C10_6 1_555 1_555
C1_6 N1_6 1_555 1_555
C2_6 N3_6 1_555 1_555
C3_6 N4_6 1_555 1_555
C4_4 C3_6 1_555 1_555
H1_4 C4_4 1_555 1_555
C5_4 C4_4 1_555 1_555
H2_4 C5_4 1_555 1_555
C6_4 C5_4 1_555 1_555
H3_4 C6_4 1_555 1_555
C7_4 N4_6 1_555 1_555
H4_4 C7_4 1_555 1_555
C8_6 C2_6 1_555 1_555
C9_6 C8_6 1_555 1_555
H5_6 C9_6 1_555 1_555
C10_6 C9_6 1_555 1_555
H6_6 C10_6 1_555 1_555
C11_6 N5_6 1_555 1_555
H7_6 C11_6 1_555 1_555
C12_6 C8_6 1_555 1_555
H8_6 C12_6 1_555 1_555
Fe3_3 N5_6 1_555 1_555
C1_6 C3_6 1_555 1_555
C6_4 C7_4 1_555 1_555
C11_6 C12_6 1_555 1_555
C11_7 N11_3 1_555 1_555
H7_7 C11_7 1_555 1_555
H8_7 C12_7 1_555 1_555
H9_7 C16_7 1_555 1_555
C17_7 C16_7 1_555 1_555
H10_7 C17_7 1_555 1_555
C18_7 C17_7 1_555 1_555
H11_7 C18_7 1_555 1_555
H12_7 C19_7 1_555 1_555
C11_7 C12_7 1_555 1_555
C18_7 C19_7 1_555 1_555
Fe3_2 N1_7 1_555 1_555
N1_7 N2_7 1_555 1_555
N2_7 C2_7 1_555 1_555
N3_7 C1_7 1_555 1_555
N4_7 Fe3_2 1_555 1_555
C1_7 N1_7 1_555 1_555
C2_7 N3_7 1_555 1_555
C3_7 N4_7 1_555 1_555
C4_5 C3_7 1_555 1_555
H1_5 C4_5 1_555 1_555
C5_5 C4_5 1_555 1_555
H2_5 C5_5 1_555 1_555
C6_5 C5_5 1_555 1_555
H3_5 C6_5 1_555 1_555
C7_5 N4_7 1_555 1_555
H4_5 C7_5 1_555 1_555
C8_7 C2_7 1_555 1_555
C9_7 C8_7 1_555 1_555
H5_7 C9_7 1_555 1_555
C10_7 C9_7 1_555 1_555
H6_7 C10_7 1_555 1_555
N6_7 Fe3_2 1_555 1_555
N7_7 N6_7 1_555 1_555
N8_7 C13_7 1_555 1_555
N9_7 Fe3_2 1_555 1_555
N12_6 C22_5 1_555 1_555
C13_7 N6_7 1_555 1_555
C14_7 N7_7 1_555 1_555
C15_7 N9_7 1_555 1_555
C20_5 C14_7 1_555 1_555
C21_5 C20_5 1_555 1_555
H13_5 C21_5 1_555 1_555
C22_5 C21_5 1_555 1_555
H14_5 C22_5 1_555 1_555
C23_7 N12_6 1_555 1_555
H15_7 C23_7 1_555 1_555
C24_7 C20_5 1_555 1_555
H16_5 C24_7 1_555 1_555
C1_7 C3_7 1_555 1_555
C6_5 C7_5 1_555 1_555
N8_7 C14_7 1_555 1_555
C13_7 C15_7 1_555 1_555
C23_7 C24_7 1_555 1_555
C11_8 N11 1_555 1_555
H7_8 C11_8 1_555 1_555
C11_8 C12_8 1_555 1_555
Fe3_3 N1_8 1_555 1_555
N1_8 N2_8 1_555 1_555
N2_8 C2_8 1_555 1_555
N3_8 C1_8 1_555 1_555
N4_8 Fe3_3 1_555 1_555
C1_8 N1_8 1_555 1_555
C2_8 N3_8 1_555 1_555
C3_8 N4_8 1_555 1_555
C4_6 C3_8 1_555 1_555
H1_6 C4_6 1_555 1_555
C5_6 C4_6 1_555 1_555
H2_6 C5_6 1_555 1_555
C6_6 C5_6 1_555 1_555
H3_6 C6_6 1_555 1_555
C7_6 N4_8 1_555 1_555
H4_6 C7_6 1_555 1_555
N6_8 Fe3_3 1_555 1_555
N7_8 N6_8 1_555 1_555
N8_8 C13_8 1_555 1_555
N9_8 Fe3_3 1_555 1_555
N12_4 C22_6 1_555 1_555
C13_8 N6_8 1_555 1_555
C14_8 N7_8 1_555 1_555
C15_8 N9_8 1_555 1_555
C20_6 C14_8 1_555 1_555
C21_6 C20_6 1_555 1_555
H13_6 C21_6 1_555 1_555
C22_6 C21_6 1_555 1_555
H14_6 C22_6 1_555 1_555
C23_8 N12_4 1_555 1_555
H15_8 C23_8 1_555 1_555
C24_8 C20_6 1_555 1_555
H16_6 C24_8 1_555 1_555
C1_8 C3_8 1_555 1_555
C6_6 C7_6 1_555 1_555
N8_8 C14_8 1_555 1_555
C13_8 C15_8 1_555 1_555
C23_8 C24_8 1_555 1_555
Fe3 N1_9 1_555 1_555
N1_9 N2_9 1_555 1_555
N2_9 C2_9 1_555 1_555
N3_9 C1_9 1_555 1_555
N4_9 Fe3 1_555 1_555
C1_9 N1_9 1_555 1_555
C2_9 N3_9 1_555 1_555
C3_9 N4_9 1_555 1_555
C4_7 C3_9 1_555 1_555
H1_7 C4_7 1_555 1_555
C5_7 C4_7 1_555 1_555
H2_7 C5_7 1_555 1_555
C6_7 C5_7 1_555 1_555
H3_7 C6_7 1_555 1_555
C7_7 N4_9 1_555 1_555
H4_7 C7_7 1_555 1_555
N6_9 Fe3 1_555 1_555
N7_9 N6_9 1_555 1_555
N8_9 C13_9 1_555 1_555
N9_9 Fe3 1_555 1_555
N12_5 C22_7 1_555 1_555
C13_9 N6_9 1_555 1_555
C14_9 N7_9 1_555 1_555
C15_9 N9_9 1_555 1_555
C20_7 C14_9 1_555 1_555
C21_7 C20_7 1_555 1_555
H13_7 C21_7 1_555 1_555
C22_7 C21_7 1_555 1_555
H14_7 C22_7 1_555 1_555
C23_9 N12_5 1_555 1_555
H15_9 C23_9 1_555 1_555
C24_9 C20_7 1_555 1_555
H16_7 C24_9 1_555 1_555
C1_9 C3_9 1_555 1_555
C6_7 C7_7 1_555 1_555
N8_9 C14_9 1_555 1_555
C13_9 C15_9 1_555 1_555
C23_9 C24_9 1_555 1_555
C11_9 N11_2 1_555 1_555
H7_9 C11_9 1_555 1_555
C11_9 C12_9 1_555 1_555
Fe2_4 N12_6 1_555 1_555
Fe2_5 N12_4 1_555 1_555
N1_4 Fe2_5 1_555 1_555
N4_4 Fe2_5 1_555 1_555
N1_6 Fe2_4 1_555 1_555
N4_6 Fe2_4 1_555 1_555
H1_8 C4_8 1_555 1_555
C5_8 C4_8 1_555 1_555
H2_8 C5_8 1_555 1_555
C6_8 C5_8 1_555 1_555
H3_8 C6_8 1_555 1_555
H4_8 C7_8 1_555 1_555
C6_8 C7_8 1_555 1_555
C21_8 C20_8 1_555 1_555
H13_8 C21_8 1_555 1_555
C22_8 C21_8 1_555 1_555
H14_8 C22_8 1_555 1_555
C21_9 C20_9 1_555 1_555
H13_9 C21_9 1_555 1_555
C22_9 C21_9 1_555 1_555
H14_9 C22_9 1_555 1_555
H1_9 C4_9 1_555 1_555
C5_9 C4_9 1_555 1_555
H2_9 C5_9 1_555 1_555
C6_9 C5_9 1_555 1_555
H3_9 C6_9 1_555 1_555
H4_9 C7_9 1_555 1_555
C6_9 C7_9 1_555 1_555
C9_8 C8_8 1_555 1_555
H5_8 C9_8 1_555 1_555
C10_8 C9_8 1_555 1_555
H6_8 C10_8 1_555 1_555
H9_8 C16_8 1_555 1_555
C17_8 C16_8 1_555 1_555
H10_8 C17_8 1_555 1_555
C18_8 C17_8 1_555 1_555
H11_8 C18_8 1_555 1_555
H12_8 C19_8 1_555 1_555
C18_8 C19_8 1_555 1_555
H9_9 C16_9 1_555 1_555
C17_9 C16_9 1_555 1_555
H10_9 C17_9 1_555 1_555
C18_9 C17_9 1_555 1_555
H11_9 C18_9 1_555 1_555
H12_9 C19_9 1_555 1_555
C18_9 C19_9 1_555 1_555
C9_9 C8_9 1_555 1_555
H5_9 C9_9 1_555 1_555
C10_9 C9_9 1_555 1_555
H6_9 C10_9 1_555 1_555

#END
