
###############################################################################
#
# This file contains modified crystal structure data generated from the
# MOF subset of the Cambridge Structural Database (CSD) v543 
# hosted by the Cambridge Crystallographic Data Centre (CCDC).
#
# This work is licensed under the Creative Commons
# Attribution-NonCommercial-ShareAlike 4.0 International License.
# To view a copy of this license, visit
# http://creativecommons.org/licenses/by-nc-sa/4.0/
# or send a letter to
# Creative Commons, PO Box 1866, Mountain View, CA 94042, USA.
#
# CIF created using the CSD Python API on 29 September 2022
# The structure has been converted into the P1 space group
# The structure has a 3D framework
# The original CSD entry BUVYEX is in the rhombohedral crystal system
# The framework has been calculated to contain at least 10.0% void space
# The void calculation uses a probe of radius 1.32A, grid spacing 0.4
#
###############################################################################

data_BUVYEX
_chemical_formula_moiety         '(C432 H288 Fe27 N180)n'
_symmetry_cell_setting           triclinic
_symmetry_space_group_name_H-M   'P 1'
_symmetry_Int_Tables_number      1
_space_group_name_Hall           'P 1'
loop_
_symmetry_equiv_pos_site_id
_symmetry_equiv_pos_as_xyz
1 x,y,z
_cell_length_a                   29.710(6)
_cell_length_b                   29.710(6)
_cell_length_c                   16.145(7)
_cell_angle_alpha                90
_cell_angle_beta                 90
_cell_angle_gamma                120
_cell_volume                     12341.7
loop_
_atom_site_label
_atom_site_type_symbol
_atom_site_fract_x
_atom_site_fract_y
_atom_site_fract_z
Fe1 Fe 0.3333 0.1667 0.1667
N1 N 0.2870(3) 0.0960(2) 0.1286(4)
N2 N 0.2873(2) 0.0617(2) 0.0745(4)
N3 N 0.2097(3) 0.0233(3) 0.1357(5)
N4 N 0.2708(2) 0.1491(2) 0.2368(4)
C1 C 0.2395(4) 0.0718(3) 0.1637(5)
C2 C 0.2417(4) 0.0195(3) 0.0810(5)
C3 C 0.2294(3) 0.1020(3) 0.2246(5)
C4 C 0.1818(4) 0.0839(3) 0.2648(6)
H1 H 0.1541 0.0507 0.2545
C5 C 0.1769(4) 0.1158(4) 0.3190(7)
H2 H 0.1456 0.1054 0.3463
C6 C 0.2204(4) 0.1653(4) 0.3329(7)
H3 H 0.2183 0.1881 0.3701
C7 C 0.2657(3) 0.1797(3) 0.2913(5)
H4 H 0.2942 0.2124 0.3017
Fe3 Fe 0.5000 0.5001 0.5000
N6 N 0.3797(3) 0.2373(2) 0.2047(4)
N7 N 0.3794(2) 0.2716(2) 0.2588(4)
N8 N 0.4570(3) 0.3100(3) 0.1976(5)
N9 N 0.3959(2) 0.1842(2) 0.0965(4)
N10 N 0.4722(2) 0.4442(2) 0.4129(4)
N11 N 0.3613(3) 0.1388(2) 0.2537(4)
N12 N 0.3054(3) 0.1945(2) 0.0796(4)
C13 C 0.4272(4) 0.2615(3) 0.1696(5)
C14 C 0.4250(4) 0.3138(3) 0.2523(5)
C15 C 0.4373(3) 0.2313(3) 0.1087(5)
C16 C 0.4849(4) 0.2494(3) 0.0685(6)
H9 H 0.5126 0.2826 0.0788
C17 C 0.4898(4) 0.2175(4) 0.0143(7)
C18 C 0.4463(4) 0.1680(4) 0.0004(7)
C19 C 0.4010(3) 0.1536(3) 0.0420(5)
H12 H 0.3725 0.1209 0.0316
C20 C 0.4405(3) 0.3600(3) 0.3037(5)
C21 C 0.4120(3) 0.3575(3) 0.3706(6)
H13 H 0.3807 0.3273 0.3809
C22 C 0.4291(3) 0.3990(3) 0.4234(6)
H14 H 0.4089 0.3952 0.4698
C23 C 0.4979(3) 0.4466(3) 0.3444(6)
H15 H 0.5282 0.4777 0.3331
C24 C 0.4834(4) 0.4070(3) 0.2896(6)
H16 H 0.5030 0.4122 0.2419
N5 N 0.1945(2) 0.8891(2) 0.9204(4)
C9 C 0.2547(3) 0.9758(3) 0.9627(6)
C10 C 0.2376(3) 0.9343(3) 0.9099(6)
H6 H 0.2578 0.9381 0.8635
C11 C 0.1688(3) 0.8867(3) 0.9889(6)
Fe2 Fe 0.1666 0.8333 0.8334
N5_2 N 0.1109(2) 0.3054(3) 0.9204(4)
C9_2 C 0.0242(3) 0.2789(4) 0.9627(6)
C10_2 C 0.0657(3) 0.3033(4) 0.9099(6)
H6_2 H 0.0619 0.3197 0.8635
C11_2 C 0.1133(3) 0.2821(4) 0.9889(6)
Fe2_2 Fe 0.1667 0.3334 0.8334
Fe1_2 Fe 0.8333 0.1666 0.1667
N1_2 N 0.9040(2) 0.1910(4) 0.1286(4)
N2_2 N 0.9383(2) 0.2256(3) 0.0745(4)
N3_2 N 0.9767(3) 0.1864(4) 0.1357(5)
N4_2 N 0.8509(2) 0.1217(3) 0.2368(4)
C1_2 C 0.9282(3) 0.1677(5) 0.1637(5)
C2_2 C 0.9805(3) 0.2222(5) 0.0810(5)
C3_2 C 0.8980(3) 0.1274(4) 0.2246(5)
C4_2 C 0.9161(3) 0.0979(5) 0.2648(6)
H1_2 H 0.9493 0.1034 0.2545
C5_2 C 0.8842(4) 0.0611(6) 0.3190(7)
H2_2 H 0.8946 0.0402 0.3463
C6_2 C 0.8347(4) 0.0551(6) 0.3329(7)
H3_2 H 0.8119 0.0302 0.3701
C7_2 C 0.8203(3) 0.0860(4) 0.2913(5)
H4_2 H 0.7876 0.0818 0.3017
Fe3_2 Fe 0.4999 -0.0000 0.5000
N6_2 N 0.7627(2) 0.1423(4) 0.2047(4)
N7_2 N 0.7284(2) 0.1077(3) 0.2588(4)
N8_2 N 0.6900(3) 0.1469(4) 0.1976(5)
N9_2 N 0.8158(2) 0.2116(3) 0.0965(4)
N10_2 N 0.5558(2) 0.0279(3) 0.4129(4)
N11_2 N 0.8612(2) 0.2224(4) 0.2537(4)
N12_2 N 0.8055(2) 0.1109(4) 0.0796(4)
C13_2 C 0.7385(3) 0.1656(5) 0.1696(5)
C14_2 C 0.6862(3) 0.1111(5) 0.2523(5)
C15_2 C 0.7687(3) 0.2059(4) 0.1087(5)
C16_2 C 0.7506(3) 0.2354(5) 0.0685(6)
H9_2 H 0.7174 0.2299 0.0788
C17_2 C 0.7825(4) 0.2722(6) 0.0143(7)
C18_2 C 0.8320(4) 0.2782(6) 0.0004(7)
C19_2 C 0.8464(3) 0.2473(4) 0.0420(5)
H12_2 H 0.8791 0.2515 0.0316
C20_2 C 0.6400(3) 0.0804(4) 0.3037(5)
C21_2 C 0.6425(3) 0.0544(4) 0.3706(6)
H13_2 H 0.6727 0.0533 0.3809
C22_2 C 0.6010(3) 0.0300(4) 0.4234(6)
H14_2 H 0.6048 0.0136 0.4698
C23_2 C 0.5534(3) 0.0512(4) 0.3444(6)
H15_2 H 0.5223 0.0504 0.3331
C24_2 C 0.5930(3) 0.0763(5) 0.2896(6)
H16_2 H 0.5878 0.0907 0.2419
Fe3_3 Fe 0.4999 1.0000 0.5000
Fe3_4 Fe 0.0000 0.5000 0.5000
Fe1_3 Fe 0.8334 0.6667 0.1667
N1_3 N 0.8090(4) 0.7130(3) 0.1286(4)
N2_3 N 0.7744(3) 0.7127(2) 0.0745(4)
N3_3 N 0.8136(4) 0.7903(3) 0.1357(5)
N4_3 N 0.8783(3) 0.7292(2) 0.2368(4)
C1_3 C 0.8323(5) 0.7605(4) 0.1637(5)
C2_3 C 0.7778(5) 0.7583(4) 0.0810(5)
C3_3 C 0.8726(4) 0.7706(3) 0.2246(5)
C4_3 C 0.9021(5) 0.8182(4) 0.2648(6)
H1_3 H 0.8966 0.8459 0.2545
C5_3 C 0.9389(6) 0.8231(4) 0.3190(7)
H2_3 H 0.9598 0.8544 0.3463
C6_3 C 0.9449(6) 0.7796(4) 0.3329(7)
H3_3 H 0.9698 0.7817 0.3701
C7_3 C 0.9140(4) 0.7343(3) 0.2913(5)
H4_3 H 0.9182 0.7058 0.3017
C8 C 0.7471(4) 0.7738(3) 0.0296(5)
H7 H 0.7171 0.8615 0.0002
C12 C 0.7430(5) 0.8167(4) 0.0437(6)
H8 H 0.7574 0.8363 0.0914
Fe3_5 Fe 1.0000 0.5000 0.5000
N6_3 N 0.8577(4) 0.6203(3) 0.2047(4)
N7_3 N 0.8923(3) 0.6206(2) 0.2588(4)
N8_3 N 0.8531(4) 0.5430(3) 0.1976(5)
N9_3 N 0.7884(3) 0.6041(2) 0.0965(4)
N10_3 N 0.9721(3) 0.5278(2) 0.4129(4)
N11_3 N 0.7776(4) 0.6387(3) 0.2537(4)
N12_3 N 0.8891(4) 0.6946(3) 0.0796(4)
C13_3 C 0.8344(5) 0.5728(4) 0.1696(5)
C14_3 C 0.8889(5) 0.5750(4) 0.2523(5)
C15_3 C 0.7941(4) 0.5627(3) 0.1087(5)
C16_3 C 0.7646(5) 0.5151(4) 0.0685(6)
H9_3 H 0.7701 0.4874 0.0788
C17_3 C 0.7278(6) 0.5102(4) 0.0143(7)
C18_3 C 0.7218(6) 0.5537(4) 0.0004(7)
C19_3 C 0.7527(4) 0.5990(3) 0.0420(5)
H12_3 H 0.7485 0.6275 0.0316
C20_3 C 0.9196(4) 0.5595(3) 0.3037(5)
C21_3 C 0.9456(4) 0.5880(3) 0.3706(6)
H13_3 H 0.9467 0.6193 0.3809
C22_3 C 0.9700(4) 0.5709(3) 0.4234(6)
H14_3 H 0.9864 0.5911 0.4698
C23_3 C 0.9488(4) 0.5021(3) 0.3444(6)
H15_3 H 0.9496 0.4718 0.3331
C24_3 C 0.9237(5) 0.5166(4) 0.2896(6)
H16_3 H 0.9093 0.4970 0.2419
N5_3 N 0.6946(3) 0.8055(2) 0.9204(4)
C9_3 C 0.7211(4) 0.7453(3) 0.9627(6)
H5 H 0.7200 0.7140 0.9524
C10_3 C 0.6967(4) 0.7624(3) 0.9099(6)
H6_3 H 0.6803 0.7422 0.8635
C11_3 C 0.7179(4) 0.8312(3) 0.9889(6)
Fe2_3 Fe 0.6666 0.8334 0.8334
H10 H 0.7069 0.4789 0.9870
H11 H 0.6969 0.5516 0.9632
N6_4 N 0.0463(3) 0.5707(2) 0.5381(4)
N7_4 N 0.0460(2) 0.6050(2) 0.5922(4)
N8_4 N 0.1236(3) 0.6434(3) 0.5310(5)
N9_4 N 0.0625(2) 0.5176(2) 0.4299(4)
N10_4 N 0.1388(2) 0.7776(2) 0.7463(4)
N11_4 N 0.0279(3) 0.4722(2) 0.5871(4)
C13_4 C 0.0938(4) 0.5949(3) 0.5030(5)
C14_4 C 0.0916(4) 0.6472(3) 0.5857(5)
C15_4 C 0.1039(3) 0.5647(3) 0.4421(5)
C16_4 C 0.1515(4) 0.5828(3) 0.4019(6)
H9_4 H 0.1792 0.6160 0.4122
C17_4 C 0.1564(4) 0.5509(4) 0.3477(7)
H10_2 H 0.1877 0.5613 0.3204
C18_4 C 0.1129(4) 0.5014(4) 0.3338(7)
H11_2 H 0.1150 0.4786 0.2966
C19_4 C 0.0676(3) 0.4870(3) 0.3754(5)
H12_4 H 0.0391 0.4543 0.3650
C20_4 C 0.1071(3) 0.6934(3) 0.6371(5)
C21_4 C 0.0786(3) 0.6909(3) 0.7040(6)
H13_4 H 0.0473 0.6607 0.7143
C22_4 C 0.0957(3) 0.7324(3) 0.7568(6)
H14_4 H 0.0755 0.7286 0.8032
C23_4 C 0.1645(3) 0.7800(3) 0.6778(6)
H15_4 H 0.1948 0.8111 0.6665
C24_4 C 0.1500(4) 0.7404(3) 0.6230(6)
H16_4 H 0.1696 0.7456 0.5753
N1_4 N 0.9537(3) 0.4293(2) 0.4619(4)
N2_4 N 0.9540(2) 0.3950(2) 0.4078(4)
N3_4 N 0.8764(3) 0.3566(3) 0.4690(5)
N4_4 N 0.9375(2) 0.4824(2) 0.5701(4)
C1_4 C 0.9062(4) 0.4051(3) 0.4970(5)
C2_4 C 0.9084(4) 0.3528(3) 0.4143(5)
C3_4 C 0.8961(3) 0.4353(3) 0.5579(5)
C4_4 C 0.8485(4) 0.4172(3) 0.5981(6)
H1_4 H 0.8208 0.3840 0.5878
C5_4 C 0.8436(4) 0.4491(4) 0.6523(7)
H2_4 H 0.8123 0.4387 0.6796
C6_4 C 0.8871(4) 0.4986(4) 0.6662(7)
H3_4 H 0.8850 0.5214 0.7034
C7_4 C 0.9324(3) 0.5130(3) 0.6246(5)
H4_4 H 0.9609 0.5457 0.6350
C8_2 C 0.8929(3) 0.3066(3) 0.3629(5)
C9_4 C 0.9214(3) 0.3091(3) 0.2960(6)
H5_2 H 0.9527 0.3393 0.2857
C10_4 C 0.9043(3) 0.2676(3) 0.2432(6)
H6_4 H 0.9245 0.2714 0.1968
C11_4 C 0.8355(3) 0.2200(3) 0.3222(6)
H7_2 H 0.8052 0.1889 0.3335
C12_2 C 0.8500(4) 0.2596(3) 0.3770(6)
H8_2 H 0.8304 0.2544 0.4247
N1_5 N 0.5707(2) 0.5243(4) 0.4619(4)
N2_5 N 0.6050(2) 0.5589(3) 0.4078(4)
N3_5 N 0.6434(3) 0.5197(4) 0.4690(5)
N4_5 N 0.5176(2) 0.4550(3) 0.5701(4)
C1_5 C 0.5949(3) 0.5010(5) 0.4970(5)
C2_5 C 0.6472(3) 0.5555(5) 0.4143(5)
C3_5 C 0.5647(3) 0.4607(4) 0.5579(5)
C4_5 C 0.5828(3) 0.4312(5) 0.5981(6)
H1_5 H 0.6160 0.4367 0.5878
C5_5 C 0.5509(4) 0.3944(6) 0.6523(7)
H2_5 H 0.5613 0.3735 0.6796
C6_5 C 0.5014(4) 0.3884(6) 0.6662(7)
H3_5 H 0.4786 0.3635 0.7034
C7_5 C 0.4870(3) 0.4193(4) 0.6246(5)
H4_5 H 0.4543 0.4151 0.6350
C8_3 C 0.6934(3) 0.5862(4) 0.3629(5)
C9_5 C 0.6909(3) 0.6122(4) 0.2960(6)
H5_3 H 0.6607 0.6133 0.2857
C10_5 C 0.7324(3) 0.6366(4) 0.2432(6)
H6_5 H 0.7286 0.6530 0.1968
C11_5 C 0.7800(3) 0.6154(4) 0.3222(6)
H7_3 H 0.8111 0.6162 0.3335
C12_3 C 0.7404(3) 0.5903(5) 0.3770(6)
H8_3 H 0.7456 0.5759 0.4247
N6_5 N 0.4293(2) 0.4757(4) 0.5381(4)
N7_5 N 0.3950(2) 0.4411(3) 0.5922(4)
N8_5 N 0.3566(3) 0.4803(4) 0.5310(5)
N9_5 N 0.4824(2) 0.5450(3) 0.4299(4)
N10_5 N 0.2224(2) 0.3613(3) 0.7463(4)
N11_5 N 0.5278(2) 0.5558(4) 0.5871(4)
C13_5 C 0.4051(3) 0.4990(5) 0.5030(5)
C14_5 C 0.3528(3) 0.4445(5) 0.5857(5)
C15_5 C 0.4353(3) 0.5393(4) 0.4421(5)
C16_5 C 0.4172(3) 0.5688(5) 0.4019(6)
H9_5 H 0.3840 0.5633 0.4122
C17_5 C 0.4491(4) 0.6056(6) 0.3477(7)
H10_3 H 0.4387 0.6265 0.3204
C18_5 C 0.4986(4) 0.6116(6) 0.3338(7)
H11_3 H 0.5214 0.6365 0.2966
C19_5 C 0.5130(3) 0.5807(4) 0.3754(5)
H12_5 H 0.5457 0.5849 0.3650
C20_5 C 0.3066(3) 0.4138(4) 0.6371(5)
C21_5 C 0.3091(3) 0.3878(4) 0.7040(6)
H13_5 H 0.3393 0.3867 0.7143
C22_5 C 0.2676(3) 0.3634(4) 0.7568(6)
H14_5 H 0.2714 0.3470 0.8032
C23_5 C 0.2200(3) 0.3846(4) 0.6778(6)
H15_5 H 0.1889 0.3838 0.6665
C24_5 C 0.2596(3) 0.4097(5) 0.6230(6)
H16_5 H 0.2544 0.4241 0.5753
N1_6 N 0.4757(4) 0.0463(3) 0.4619(4)
N2_6 N 0.4411(3) 0.0460(2) 0.4078(4)
N3_6 N 0.4803(4) 0.1236(3) 0.4690(5)
N4_6 N 0.5450(3) 0.0625(2) 0.5701(4)
C1_6 C 0.4990(5) 0.0938(4) 0.4970(5)
C2_6 C 0.4445(5) 0.0916(4) 0.4143(5)
C3_6 C 0.5393(4) 0.1039(3) 0.5579(5)
C4_6 C 0.5688(5) 0.1515(4) 0.5981(6)
H1_6 H 0.5633 0.1792 0.5878
C5_6 C 0.6056(6) 0.1564(4) 0.6523(7)
H2_6 H 0.6265 0.1877 0.6796
C6_6 C 0.6116(6) 0.1129(4) 0.6662(7)
H3_6 H 0.6365 0.1150 0.7034
C7_6 C 0.5807(4) 0.0676(3) 0.6246(5)
H4_6 H 0.5849 0.0391 0.6350
C8_4 C 0.4138(4) 0.1071(3) 0.3629(5)
C9_6 C 0.3878(4) 0.0786(3) 0.2960(6)
H5_4 H 0.3867 0.0473 0.2857
C10_6 C 0.3634(4) 0.0957(3) 0.2432(6)
H6_6 H 0.3470 0.0755 0.1968
C11_6 C 0.3846(4) 0.1645(3) 0.3222(6)
H7_4 H 0.3838 0.1948 0.3335
C12_4 C 0.4097(5) 0.1500(4) 0.3770(6)
H8_4 H 0.4241 0.1696 0.4247
N6_6 N 0.5243(4) 0.9537(3) 0.5381(4)
N7_6 N 0.5589(3) 0.9540(2) 0.5922(4)
N8_6 N 0.5197(4) 0.8764(3) 0.5310(5)
N9_6 N 0.4550(3) 0.9375(2) 0.4299(4)
N10_6 N 0.6387(3) 0.8612(2) 0.7463(4)
N11_6 N 0.4442(4) 0.9721(3) 0.5871(4)
C13_6 C 0.5010(5) 0.9062(4) 0.5030(5)
C14_6 C 0.5555(5) 0.9084(4) 0.5857(5)
C15_6 C 0.4607(4) 0.8961(3) 0.4421(5)
C16_6 C 0.4312(5) 0.8485(4) 0.4019(6)
H9_6 H 0.4367 0.8208 0.4122
C17_6 C 0.3944(6) 0.8436(4) 0.3477(7)
H10_4 H 0.3735 0.8123 0.3204
C18_6 C 0.3884(6) 0.8871(4) 0.3338(7)
H11_4 H 0.3635 0.8850 0.2966
C19_6 C 0.4193(4) 0.9324(3) 0.3754(5)
H12_6 H 0.4151 0.9609 0.3650
C20_6 C 0.5862(4) 0.8929(3) 0.6371(5)
C21_6 C 0.6122(4) 0.9214(3) 0.7040(6)
H13_6 H 0.6133 0.9527 0.7143
C22_6 C 0.6366(4) 0.9043(3) 0.7568(6)
H14_6 H 0.6530 0.9245 0.8032
C23_6 C 0.6154(4) 0.8355(3) 0.6778(6)
H15_6 H 0.6162 0.8052 0.6665
C24_6 C 0.5903(5) 0.8500(4) 0.6230(6)
H16_6 H 0.5759 0.8304 0.5753
C21_7 C 0.7453(3) 0.0242(3) 0.0373(6)
C22_7 C 0.7624(3) 0.0657(3) 0.0901(6)
H14_7 H 0.7422 0.0619 0.1365
C23_7 C 0.8312(3) 0.1133(3) 0.0111(6)
N1_7 N 0.6203(3) 0.7627(2) 0.7953(4)
N2_7 N 0.6206(2) 0.7284(2) 0.7412(4)
N3_7 N 0.5430(3) 0.6900(3) 0.8024(5)
N4_7 N 0.6041(2) 0.8158(2) 0.9035(4)
C1_7 C 0.5728(4) 0.7385(3) 0.8304(5)
C2_7 C 0.5750(4) 0.6862(3) 0.7477(5)
C3_7 C 0.5627(3) 0.7687(3) 0.8913(5)
C4_7 C 0.5151(4) 0.7506(3) 0.9315(6)
H1_7 H 0.4874 0.7174 0.9212
C5_7 C 0.5102(4) 0.7825(4) 0.9857(7)
C6_7 C 0.5537(4) 0.8320(4) 0.9996(7)
C7_7 C 0.5990(3) 0.8464(3) 0.9580(5)
H4_7 H 0.6275 0.8791 0.9684
C8_5 C 0.5595(3) 0.6400(3) 0.6963(5)
C9_7 C 0.5880(3) 0.6425(3) 0.6294(6)
H5_5 H 0.6193 0.6727 0.6191
C10_7 C 0.5709(3) 0.6010(3) 0.5766(6)
H6_7 H 0.5911 0.6048 0.5302
C11_7 C 0.5021(3) 0.5534(3) 0.6556(6)
H7_5 H 0.4718 0.5223 0.6669
C12_5 C 0.5166(4) 0.5930(3) 0.7104(6)
H8_5 H 0.4970 0.5878 0.7581
N6_7 N 0.7130(3) 0.9040(2) 0.8714(4)
N7_7 N 0.7127(2) 0.9383(2) 0.9255(4)
N8_7 N 0.7903(3) 0.9767(3) 0.8643(5)
N9_7 N 0.7292(2) 0.8509(2) 0.7632(4)
C13_7 C 0.7605(4) 0.9282(3) 0.8363(5)
C14_7 C 0.7583(4) 0.9805(3) 0.9190(5)
C15_7 C 0.7706(3) 0.8980(3) 0.7754(5)
C16_7 C 0.8182(4) 0.9161(3) 0.7352(6)
H9_7 H 0.8459 0.9493 0.7455
C17_7 C 0.8231(4) 0.8842(4) 0.6810(7)
H10_5 H 0.8544 0.8946 0.6537
C18_7 C 0.7796(4) 0.8347(4) 0.6671(7)
H11_5 H 0.7817 0.8119 0.6299
C19_7 C 0.7343(3) 0.8203(3) 0.7087(5)
H12_7 H 0.7058 0.7876 0.6983
N1_8 N 0.2373(2) 0.8577(4) 0.7953(4)
N2_8 N 0.2716(2) 0.8923(3) 0.7412(4)
N3_8 N 0.3100(3) 0.8531(4) 0.8024(5)
N4_8 N 0.1842(2) 0.7884(3) 0.9035(4)
C1_8 C 0.2615(3) 0.8344(5) 0.8304(5)
C2_8 C 0.3138(3) 0.8889(5) 0.7477(5)
C3_8 C 0.2313(3) 0.7941(4) 0.8913(5)
C4_8 C 0.2494(3) 0.7646(5) 0.9315(6)
H1_8 H 0.2826 0.7701 0.9212
C5_8 C 0.2175(4) 0.7278(6) 0.9857(7)
C6_8 C 0.1680(4) 0.7218(6) 0.9996(7)
C7_8 C 0.1536(3) 0.7527(4) 0.9580(5)
H4_8 H 0.1209 0.7485 0.9684
C8_6 C 0.3600(3) 0.9196(4) 0.6963(5)
C9_8 C 0.3575(3) 0.9456(4) 0.6294(6)
H5_6 H 0.3273 0.9467 0.6191
C10_8 C 0.3990(3) 0.9700(4) 0.5766(6)
H6_8 H 0.3952 0.9864 0.5302
C11_8 C 0.4466(3) 0.9488(4) 0.6556(6)
H7_6 H 0.4777 0.9496 0.6669
C12_6 C 0.4070(3) 0.9237(5) 0.7104(6)
H8_6 H 0.4122 0.9093 0.7581
N6_8 N 0.0960(2) 0.8090(4) 0.8714(4)
N7_8 N 0.0617(2) 0.7744(3) 0.9255(4)
N8_8 N 0.0233(3) 0.8136(4) 0.8643(5)
N9_8 N 0.1491(2) 0.8783(3) 0.7632(4)
C13_8 C 0.0718(3) 0.8323(5) 0.8363(5)
C14_8 C 0.0195(3) 0.7778(5) 0.9190(5)
C15_8 C 0.1020(3) 0.8726(4) 0.7754(5)
C16_8 C 0.0839(3) 0.9021(5) 0.7352(6)
H9_8 H 0.0507 0.8966 0.7455
C17_8 C 0.1158(4) 0.9389(6) 0.6810(7)
H10_6 H 0.1054 0.9598 0.6537
C18_8 C 0.1653(4) 0.9449(6) 0.6671(7)
H11_6 H 0.1881 0.9698 0.6299
C19_8 C 0.1797(3) 0.9140(4) 0.7087(5)
H12_8 H 0.2124 0.9182 0.6983
C21_8 C 0.9758(3) 0.7211(4) 0.0373(6)
C22_8 C 0.9343(3) 0.6967(4) 0.0901(6)
H14_8 H 0.9381 0.6803 0.1365
C23_8 C 0.8867(3) 0.7179(4) 0.0111(6)
H2_7 H 0.2931 0.5211 0.0130
H3_7 H 0.3031 0.4484 0.0368
C21_9 C 0.2789(4) 0.2547(3) 0.0373(6)
H13_7 H 0.2800 0.2860 0.0476
C22_9 C 0.3033(4) 0.2376(3) 0.0901(6)
H14_9 H 0.3197 0.2578 0.1365
C23_9 C 0.2821(4) 0.1688(3) 0.0111(6)
N1_9 N 0.1423(4) 0.3797(3) 0.7953(4)
N2_9 N 0.1077(3) 0.3794(2) 0.7412(4)
N3_9 N 0.1469(4) 0.4570(3) 0.8024(5)
N4_9 N 0.2116(3) 0.3959(2) 0.9035(4)
C1_9 C 0.1656(5) 0.4272(4) 0.8304(5)
C2_9 C 0.1111(5) 0.4250(4) 0.7477(5)
C3_9 C 0.2059(4) 0.4373(3) 0.8913(5)
C4_9 C 0.2354(5) 0.4849(4) 0.9315(6)
H1_9 H 0.2299 0.5126 0.9212
C5_9 C 0.2722(6) 0.4898(4) 0.9857(7)
C6_9 C 0.2782(6) 0.4463(4) 0.9996(7)
C7_9 C 0.2473(4) 0.4010(3) 0.9580(5)
H4_9 H 0.2515 0.3725 0.9684
C8_7 C 0.0804(4) 0.4405(3) 0.6963(5)
C9_9 C 0.0544(4) 0.4120(3) 0.6294(6)
H5_7 H 0.0533 0.3807 0.6191
C10_9 C 0.0300(4) 0.4291(3) 0.5766(6)
H6_9 H 0.0136 0.4089 0.5302
C11_9 C 0.0512(4) 0.4979(3) 0.6556(6)
H7_7 H 0.0504 0.5282 0.6669
C12_7 C 0.0763(5) 0.4834(4) 0.7104(6)
H8_7 H 0.0907 0.5030 0.7581
N6_9 N 0.1910(4) 0.2870(3) 0.8714(4)
N7_9 N 0.2256(3) 0.2873(2) 0.9255(4)
N8_9 N 0.1864(4) 0.2097(3) 0.8643(5)
N9_9 N 0.1217(3) 0.2708(2) 0.7632(4)
C13_9 C 0.1677(5) 0.2395(4) 0.8363(5)
C14_9 C 0.2222(5) 0.2417(4) 0.9190(5)
C15_9 C 0.1274(4) 0.2294(3) 0.7754(5)
C16_9 C 0.0979(5) 0.1818(4) 0.7352(6)
H9_9 H 0.1034 0.1541 0.7455
C17_9 C 0.0611(6) 0.1769(4) 0.6810(7)
H10_7 H 0.0402 0.1456 0.6537
C18_9 C 0.0551(6) 0.2204(4) 0.6671(7)
H11_7 H 0.0302 0.2183 0.6299
C19_9 C 0.0860(4) 0.2657(3) 0.7087(5)
H12_9 H 0.0818 0.2942 0.6983
C20_7 C 0.2529(4) 0.2262(3) 0.9704(5)
H15_7 H 0.2829 0.1385 0.9998
C24_7 C 0.2570(5) 0.1833(4) 0.9563(6)
H16_7 H 0.2426 0.1637 0.9086
H5_8 H 0.2860 0.0060 0.9524
H10_8 H 0.5211 0.2279 0.9870
H11_8 H 0.4484 0.1452 0.9632
C8_8 C 0.2262(3) 0.9733(3) 0.0296(5)
H7_8 H 0.1385 0.8556 0.0002
C12_8 C 0.1833(4) 0.9263(3) 0.0437(6)
H8_8 H 0.1637 0.9211 0.0914
C8_9 C 0.0267(3) 0.2529(4) 0.0296(5)
H7_9 H 0.1444 0.2829 0.0002
C12_9 C 0.0737(3) 0.2570(5) 0.0437(6)
H8_9 H 0.0789 0.2426 0.0914
H5_9 H 0.9940 0.2800 0.9524
H10_9 H 0.7721 0.2931 0.9870
H11_9 H 0.8548 0.3031 0.9632
Fe1_4 Fe 0.1667 0.3333 0.3333
N1_10 N 0.0960(2) 0.2870(3) 0.3714(4)
N2_10 N 0.0617(2) 0.2873(2) 0.4255(4)
N3_10 N 0.0233(3) 0.2097(3) 0.3643(5)
N4_10 N 0.1491(2) 0.2708(2) 0.2632(4)
C1_10 C 0.0718(3) 0.2395(4) 0.3363(5)
C2_10 C 0.0195(3) 0.2417(4) 0.4190(5)
C3_10 C 0.1020(3) 0.2294(3) 0.2754(5)
C4_10 C 0.0839(3) 0.1818(4) 0.2352(6)
H1_10 H 0.0507 0.1541 0.2455
C5_10 C 0.1158(4) 0.1769(4) 0.1810(7)
H2_8 H 0.1054 0.1456 0.1537
C6_10 C 0.1653(4) 0.2204(4) 0.1671(7)
H3_8 H 0.1881 0.2183 0.1299
C7_10 C 0.1797(3) 0.2657(3) 0.2087(5)
H4_10 H 0.2124 0.2942 0.1983
H5_10 H 0.0060 0.2860 0.5476
Fe3_6 Fe 0.5001 0.5000 0.0000
N6_10 N 0.2373(2) 0.3797(3) 0.2953(4)
N7_10 N 0.2716(2) 0.3794(2) 0.2412(4)
N8_10 N 0.3100(3) 0.4570(3) 0.3024(5)
N9_10 N 0.1842(2) 0.3959(2) 0.4035(4)
N10_7 N 0.4442(2) 0.4722(2) 0.0871(4)
N11_7 N 0.1388(2) 0.3613(3) 0.2463(4)
N12_4 N 0.1945(2) 0.3054(3) 0.4204(4)
C13_10 C 0.2615(3) 0.4272(4) 0.3304(5)
C14_10 C 0.3138(3) 0.4250(4) 0.2477(5)
C15_10 C 0.2313(3) 0.4373(3) 0.3913(5)
C16_10 C 0.2494(3) 0.4849(4) 0.4315(6)
H9_10 H 0.2826 0.5126 0.4212
C17_10 C 0.2175(4) 0.4898(4) 0.4857(7)
H10_10 H 0.2279 0.5211 0.5130
C18_10 C 0.1680(4) 0.4463(4) 0.4996(7)
H11_10 H 0.1452 0.4484 0.5368
C19_10 C 0.1536(3) 0.4010(3) 0.4580(5)
H12_10 H 0.1209 0.3725 0.4684
C20_8 C 0.3600(3) 0.4405(3) 0.1963(5)
C21_10 C 0.3575(3) 0.4120(3) 0.1294(6)
H13_8 H 0.3273 0.3807 0.1191
C22_10 C 0.3990(3) 0.4291(3) 0.0766(6)
H14_10 H 0.3952 0.4089 0.0302
C23_10 C 0.4466(3) 0.4979(3) 0.1556(6)
H15_8 H 0.4777 0.5282 0.1669
C24_8 C 0.4070(3) 0.4834(4) 0.2104(6)
H16_8 H 0.4122 0.5030 0.2581
Fe3_7 Fe 0.5001 0.5000 1.0000
N5_4 N 0.8891(2) 0.1945(2) 0.5796(4)
C8_10 C 0.9733(3) 0.2262(3) 0.4704(5)
C9_10 C 0.9758(3) 0.2547(3) 0.5373(6)
C10_10 C 0.9343(3) 0.2376(3) 0.5901(6)
H6_10 H 0.9381 0.2578 0.6365
C11_10 C 0.8867(3) 0.1688(3) 0.5111(6)
H7_10 H 0.8556 0.1385 0.4998
C12_10 C 0.9263(3) 0.1833(4) 0.4563(6)
H8_10 H 0.9211 0.1637 0.4086
Fe2_4 Fe 0.8333 0.1666 0.6666
N5_5 N 0.3054(3) 0.1109(2) 0.5796(4)
C8_11 C 0.2529(4) 0.0267(3) 0.4704(5)
C9_11 C 0.2789(4) 0.0242(3) 0.5373(6)
C10_11 C 0.3033(4) 0.0657(3) 0.5901(6)
H6_11 H 0.3197 0.0619 0.6365
C11_11 C 0.2821(4) 0.1133(3) 0.5111(6)
H7_11 H 0.2829 0.1444 0.4998
C12_11 C 0.2570(5) 0.0737(3) 0.4563(6)
H8_11 H 0.2426 0.0789 0.4086
Fe2_5 Fe 0.3334 0.1667 0.6666
Fe1_5 Fe 0.1666 0.8333 0.3333
N1_11 N 0.1910(4) 0.9040(2) 0.3714(4)
N2_11 N 0.2256(3) 0.9383(2) 0.4255(4)
N3_11 N 0.1864(4) 0.9767(3) 0.3643(5)
N4_11 N 0.1217(3) 0.8509(2) 0.2632(4)
C1_11 C 0.1677(5) 0.9282(3) 0.3363(5)
C2_11 C 0.2222(5) 0.9805(3) 0.4190(5)
C3_11 C 0.1274(4) 0.8980(3) 0.2754(5)
C4_11 C 0.0979(5) 0.9161(3) 0.2352(6)
H1_11 H 0.1034 0.9493 0.2455
C5_11 C 0.0611(6) 0.8842(4) 0.1810(7)
H2_9 H 0.0402 0.8946 0.1537
C6_11 C 0.0551(6) 0.8347(4) 0.1671(7)
H3_9 H 0.0302 0.8119 0.1299
C7_11 C 0.0860(4) 0.8203(3) 0.2087(5)
H4_11 H 0.0818 0.7876 0.1983
H5_11 H 0.2800 0.9940 0.5476
Fe3_8 Fe -0.0000 0.4999 0.0000
N6_11 N 0.1423(4) 0.7627(2) 0.2953(4)
N7_11 N 0.1077(3) 0.7284(2) 0.2412(4)
N8_11 N 0.1469(4) 0.6900(3) 0.3024(5)
N9_11 N 0.2116(3) 0.8158(2) 0.4035(4)
N10_8 N 0.0279(3) 0.5558(2) 0.0871(4)
N11_8 N 0.2224(4) 0.8612(2) 0.2463(4)
N12_5 N 0.1109(4) 0.8055(2) 0.4204(4)
C13_11 C 0.1656(5) 0.7385(3) 0.3304(5)
C14_11 C 0.1111(5) 0.6862(3) 0.2477(5)
C15_11 C 0.2059(4) 0.7687(3) 0.3913(5)
C16_11 C 0.2354(5) 0.7506(3) 0.4315(6)
H9_11 H 0.2299 0.7174 0.4212
C17_11 C 0.2722(6) 0.7825(4) 0.4857(7)
H10_11 H 0.2931 0.7721 0.5130
C18_11 C 0.2782(6) 0.8320(4) 0.4996(7)
H11_11 H 0.3031 0.8548 0.5368
C19_11 C 0.2473(4) 0.8464(3) 0.4580(5)
H12_11 H 0.2515 0.8791 0.4684
C20_9 C 0.0804(4) 0.6400(3) 0.1963(5)
C21_11 C 0.0544(4) 0.6425(3) 0.1294(6)
H13_9 H 0.0533 0.6727 0.1191
C22_11 C 0.0300(4) 0.6010(3) 0.0766(6)
H14_11 H 0.0136 0.6048 0.0302
C23_11 C 0.0512(4) 0.5534(3) 0.1556(6)
H15_9 H 0.0504 0.5223 0.1669
C24_9 C 0.0763(5) 0.5930(3) 0.2104(6)
H16_9 H 0.0907 0.5878 0.2581
Fe3_9 Fe 1.0000 0.4999 1.0000
Fe3_10 Fe 0.5000 0.0000 1.0000
Fe1_6 Fe 0.6667 0.8334 0.3333
N1_12 N 0.7130(3) 0.8090(4) 0.3714(4)
N2_12 N 0.7127(2) 0.7744(3) 0.4255(4)
N3_12 N 0.7903(3) 0.8136(4) 0.3643(5)
N4_12 N 0.7292(2) 0.8783(3) 0.2632(4)
N5_6 N 0.8055(2) 0.6946(3) 0.5796(4)
C1_12 C 0.7605(4) 0.8323(5) 0.3363(5)
C2_12 C 0.7583(4) 0.7778(5) 0.4190(5)
C3_12 C 0.7706(3) 0.8726(4) 0.2754(5)
C4_12 C 0.8182(4) 0.9021(5) 0.2352(6)
H1_12 H 0.8459 0.8966 0.2455
C5_12 C 0.8231(4) 0.9389(6) 0.1810(7)
H2_10 H 0.8544 0.9598 0.1537
C6_12 C 0.7796(4) 0.9449(6) 0.1671(7)
H3_10 H 0.7817 0.9698 0.1299
C7_12 C 0.7343(3) 0.9140(4) 0.2087(5)
H4_12 H 0.7058 0.9182 0.1983
C8_12 C 0.7738(3) 0.7471(4) 0.4704(5)
C9_12 C 0.7453(3) 0.7211(4) 0.5373(6)
H5_12 H 0.7140 0.7200 0.5476
C10_12 C 0.7624(3) 0.6967(4) 0.5901(6)
H6_12 H 0.7422 0.6803 0.6365
C11_12 C 0.8312(3) 0.7179(4) 0.5111(6)
H7_12 H 0.8615 0.7171 0.4998
C12_12 C 0.8167(4) 0.7430(5) 0.4563(6)
H8_12 H 0.8363 0.7574 0.4086
Fe2_6 Fe 0.8334 0.6666 0.6666
Fe3_11 Fe 0.5000 1.0000 0.0000
N6_12 N 0.6203(3) 0.8577(4) 0.2953(4)
N7_12 N 0.6206(2) 0.8923(3) 0.2412(4)
N8_12 N 0.5430(3) 0.8531(4) 0.3024(5)
N9_12 N 0.6041(2) 0.7884(3) 0.4035(4)
N10_9 N 0.5278(2) 0.9721(3) 0.0871(4)
N11_9 N 0.6387(3) 0.7776(4) 0.2463(4)
N12_6 N 0.6946(3) 0.8891(4) 0.4204(4)
C13_12 C 0.5728(4) 0.8344(5) 0.3304(5)
C14_12 C 0.5750(4) 0.8889(5) 0.2477(5)
C15_12 C 0.5627(3) 0.7941(4) 0.3913(5)
C16_12 C 0.5151(4) 0.7646(5) 0.4315(6)
H9_12 H 0.4874 0.7701 0.4212
C17_12 C 0.5102(4) 0.7278(6) 0.4857(7)
H10_12 H 0.4789 0.7069 0.5130
C18_12 C 0.5537(4) 0.7218(6) 0.4996(7)
H11_12 H 0.5516 0.6969 0.5368
C19_12 C 0.5990(3) 0.7527(4) 0.4580(5)
H12_12 H 0.6275 0.7485 0.4684
C20_10 C 0.5595(3) 0.9196(4) 0.1963(5)
C21_12 C 0.5880(3) 0.9456(4) 0.1294(6)
H13_10 H 0.6193 0.9467 0.1191
C22_12 C 0.5709(3) 0.9700(4) 0.0766(6)
H14_12 H 0.5911 0.9864 0.0302
C23_12 C 0.5021(3) 0.9488(4) 0.1556(6)
H15_10 H 0.4718 0.9496 0.1669
C24_10 C 0.5166(4) 0.9237(5) 0.2104(6)
H16_10 H 0.4970 0.9093 0.2581
C20_11 C 0.0267(3) 0.7738(3) 0.5296(5)
C21_13 C 0.0242(3) 0.7453(3) 0.4627(6)
C22_13 C 0.0657(3) 0.7624(3) 0.4099(6)
H14_13 H 0.0619 0.7422 0.3635
C23_13 C 0.1133(3) 0.8312(3) 0.4889(6)
H15_11 H 0.1444 0.8615 0.5002
C24_11 C 0.0737(3) 0.8167(4) 0.5437(6)
H16_11 H 0.0789 0.8363 0.5914
N1_13 N 0.7627(2) 0.6203(3) 0.7047(4)
N2_13 N 0.7284(2) 0.6206(2) 0.7588(4)
N3_13 N 0.6900(3) 0.5430(3) 0.6976(5)
N4_13 N 0.8158(2) 0.6041(2) 0.5965(4)
N5_7 N 0.5558(2) 0.5278(2) 0.9129(4)
C1_13 C 0.7385(3) 0.5728(4) 0.6696(5)
C2_13 C 0.6862(3) 0.5750(4) 0.7523(5)
C3_13 C 0.7687(3) 0.5627(3) 0.6087(5)
C4_13 C 0.7506(3) 0.5151(4) 0.5685(6)
H1_13 H 0.7174 0.4874 0.5788
C5_13 C 0.7825(4) 0.5102(4) 0.5143(7)
H2_11 H 0.7721 0.4789 0.4870
C6_13 C 0.8320(4) 0.5537(4) 0.5004(7)
H3_11 H 0.8548 0.5516 0.4632
C7_13 C 0.8464(3) 0.5990(3) 0.5420(5)
H4_13 H 0.8791 0.6275 0.5316
C8_13 C 0.6400(3) 0.5595(3) 0.8037(5)
C9_13 C 0.6425(3) 0.5880(3) 0.8706(6)
H5_13 H 0.6727 0.6193 0.8809
C10_13 C 0.6010(3) 0.5709(3) 0.9234(6)
H6_13 H 0.6048 0.5911 0.9698
C11_13 C 0.5534(3) 0.5021(3) 0.8444(6)
H7_13 H 0.5223 0.4718 0.8331
C12_13 C 0.5930(3) 0.5166(4) 0.7896(6)
H8_13 H 0.5878 0.4970 0.7419
N6_13 N 0.9040(2) 0.7130(3) 0.6286(4)
N7_13 N 0.9383(2) 0.7127(2) 0.5745(4)
N8_13 N 0.9767(3) 0.7903(3) 0.6357(5)
N9_13 N 0.8509(2) 0.7292(2) 0.7368(4)
N12_7 N 0.8612(2) 0.6387(3) 0.7537(4)
C13_13 C 0.9282(3) 0.7605(4) 0.6637(5)
C14_13 C 0.9805(3) 0.7583(4) 0.5810(5)
C15_13 C 0.8980(3) 0.7706(3) 0.7246(5)
C16_13 C 0.9161(3) 0.8182(4) 0.7648(6)
H9_13 H 0.9493 0.8459 0.7545
C17_13 C 0.8842(4) 0.8231(4) 0.8190(7)
H10_13 H 0.8946 0.8544 0.8463
C18_13 C 0.8347(4) 0.7796(4) 0.8329(7)
H11_13 H 0.8119 0.7817 0.8701
C19_13 C 0.8203(3) 0.7343(3) 0.7913(5)
H12_13 H 0.7876 0.7058 0.8017
H13_11 H 0.9940 0.7140 0.4524
N1_14 N 0.8577(4) 0.2373(2) 0.7047(4)
N2_14 N 0.8923(3) 0.2716(2) 0.7588(4)
N3_14 N 0.8531(4) 0.3100(3) 0.6976(5)
N4_14 N 0.7884(3) 0.1842(2) 0.5965(4)
N5_8 N 0.9721(3) 0.4442(2) 0.9129(4)
C1_14 C 0.8344(5) 0.2615(3) 0.6696(5)
C2_14 C 0.8889(5) 0.3138(3) 0.7523(5)
C3_14 C 0.7941(4) 0.2313(3) 0.6087(5)
C4_14 C 0.7646(5) 0.2494(3) 0.5685(6)
H1_14 H 0.7701 0.2826 0.5788
C5_14 C 0.7278(6) 0.2175(4) 0.5143(7)
H2_12 H 0.7069 0.2279 0.4870
C6_14 C 0.7218(6) 0.1680(4) 0.5004(7)
H3_12 H 0.6969 0.1452 0.4632
C7_14 C 0.7527(4) 0.1536(3) 0.5420(5)
H4_14 H 0.7485 0.1209 0.5316
C8_14 C 0.9196(4) 0.3600(3) 0.8037(5)
C9_14 C 0.9456(4) 0.3575(3) 0.8706(6)
H5_14 H 0.9467 0.3273 0.8809
C10_14 C 0.9700(4) 0.3990(3) 0.9234(6)
H6_14 H 0.9864 0.3952 0.9698
C11_14 C 0.9488(4) 0.4466(3) 0.8444(6)
H7_14 H 0.9496 0.4777 0.8331
C12_14 C 0.9237(5) 0.4070(3) 0.7896(6)
H8_14 H 0.9093 0.4122 0.7419
N6_14 N 0.8090(4) 0.0960(2) 0.6286(4)
N7_14 N 0.7744(3) 0.0617(2) 0.5745(4)
N8_14 N 0.8136(4) 0.0233(3) 0.6357(5)
N9_14 N 0.8783(3) 0.1491(2) 0.7368(4)
N12_8 N 0.7776(4) 0.1388(2) 0.7537(4)
C13_14 C 0.8323(5) 0.0718(3) 0.6637(5)
C14_14 C 0.7778(5) 0.0195(3) 0.5810(5)
C15_14 C 0.8726(4) 0.1020(3) 0.7246(5)
C16_14 C 0.9021(5) 0.0839(3) 0.7648(6)
H9_14 H 0.8966 0.0507 0.7545
C17_14 C 0.9389(6) 0.1158(4) 0.8190(7)
H10_14 H 0.9598 0.1054 0.8463
C18_14 C 0.9449(6) 0.1653(4) 0.8329(7)
H11_14 H 0.9698 0.1881 0.8701
C19_14 C 0.9140(4) 0.1797(3) 0.7913(5)
H12_14 H 0.9182 0.2124 0.8017
H13_12 H 0.7200 0.0060 0.4524
C20_12 C 0.7471(4) 0.9733(3) 0.5296(5)
C21_14 C 0.7211(4) 0.9758(3) 0.4627(6)
C22_14 C 0.6967(4) 0.9343(3) 0.4099(6)
H14_14 H 0.6803 0.9381 0.3635
C23_14 C 0.7179(4) 0.8867(3) 0.4889(6)
H15_12 H 0.7171 0.8556 0.5002
C24_12 C 0.7430(5) 0.9263(3) 0.5437(6)
H16_12 H 0.7574 0.9211 0.5914
N1_15 N 0.3797(3) 0.1423(4) 0.7047(4)
N2_15 N 0.3794(2) 0.1077(3) 0.7588(4)
N3_15 N 0.4570(3) 0.1469(4) 0.6976(5)
N4_15 N 0.3959(2) 0.2116(3) 0.5965(4)
N5_9 N 0.4722(2) 0.0279(3) 0.9129(4)
C1_15 C 0.4272(4) 0.1656(5) 0.6696(5)
C2_15 C 0.4250(4) 0.1111(5) 0.7523(5)
C3_15 C 0.4373(3) 0.2059(4) 0.6087(5)
C4_15 C 0.4849(4) 0.2354(5) 0.5685(6)
H1_15 H 0.5126 0.2299 0.5788
C5_15 C 0.4898(4) 0.2722(6) 0.5143(7)
H2_13 H 0.5211 0.2931 0.4870
C6_15 C 0.4463(4) 0.2782(6) 0.5004(7)
H3_13 H 0.4484 0.3031 0.4632
C7_15 C 0.4010(3) 0.2473(4) 0.5420(5)
H4_15 H 0.3725 0.2515 0.5316
C8_15 C 0.4405(3) 0.0804(4) 0.8037(5)
C9_15 C 0.4120(3) 0.0544(4) 0.8706(6)
H5_15 H 0.3807 0.0533 0.8809
C10_15 C 0.4291(3) 0.0300(4) 0.9234(6)
H6_15 H 0.4089 0.0136 0.9698
C11_15 C 0.4979(3) 0.0512(4) 0.8444(6)
H7_15 H 0.5282 0.0504 0.8331
C12_15 C 0.4834(4) 0.0763(5) 0.7896(6)
H8_15 H 0.5030 0.0907 0.7419
N6_15 N 0.2870(3) 0.1910(4) 0.6286(4)
N7_15 N 0.2873(2) 0.2256(3) 0.5745(4)
N8_15 N 0.2097(3) 0.1864(4) 0.6357(5)
N9_15 N 0.2708(2) 0.1217(3) 0.7368(4)
N12_9 N 0.3613(3) 0.2224(4) 0.7537(4)
C13_15 C 0.2395(4) 0.1677(5) 0.6637(5)
C14_15 C 0.2417(4) 0.2222(5) 0.5810(5)
C15_15 C 0.2294(3) 0.1274(4) 0.7246(5)
C16_15 C 0.1818(4) 0.0979(5) 0.7648(6)
H9_15 H 0.1541 0.1034 0.7545
C17_15 C 0.1769(4) 0.0611(6) 0.8190(7)
H10_15 H 0.1456 0.0402 0.8463
C18_15 C 0.2204(4) 0.0551(6) 0.8329(7)
H11_15 H 0.2183 0.0302 0.8701
C19_15 C 0.2657(3) 0.0860(4) 0.7913(5)
H12_15 H 0.2942 0.0818 0.8017
C20_13 C 0.2262(3) 0.2529(4) 0.5296(5)
C21_15 C 0.2547(3) 0.2789(4) 0.4627(6)
H13_13 H 0.2860 0.2800 0.4524
C22_15 C 0.2376(3) 0.3033(4) 0.4099(6)
H14_15 H 0.2578 0.3197 0.3635
C23_15 C 0.1688(3) 0.2821(4) 0.4889(6)
H15_13 H 0.1385 0.2829 0.5002
C24_13 C 0.1833(4) 0.2570(5) 0.5437(6)
H16_13 H 0.1637 0.2426 0.5914
N6_16 N 0.5707(2) 0.0463(3) 0.9619(4)
N7_16 N 0.6050(2) 0.0460(2) 0.9078(4)
N8_16 N 0.6434(3) 0.1236(3) 0.9690(5)
C13_16 C 0.5949(3) 0.0938(4) 0.9970(5)
C14_16 C 0.6472(3) 0.0916(4) 0.9143(5)
C20_14 C 0.6934(3) 0.1071(3) 0.8629(5)
C21_16 C 0.6909(3) 0.0786(3) 0.7960(6)
H13_14 H 0.6607 0.0473 0.7857
C22_16 C 0.7324(3) 0.0957(3) 0.7432(6)
H14_16 H 0.7286 0.0755 0.6968
C23_16 C 0.7800(3) 0.1645(3) 0.8222(6)
H15_14 H 0.8111 0.1948 0.8335
C24_14 C 0.7404(3) 0.1500(4) 0.8770(6)
H16_14 H 0.7456 0.1696 0.9247
N1_16 N 0.4293(2) 0.9537(3) 0.0381(4)
N2_16 N 0.3950(2) 0.9540(2) 0.0922(4)
N3_16 N 0.3566(3) 0.8764(3) 0.0310(5)
C1_16 C 0.4051(3) 0.9062(4) 0.0030(5)
C2_16 C 0.3528(3) 0.9084(4) 0.0857(5)
C8_16 C 0.3066(3) 0.8929(3) 0.1371(5)
C9_16 C 0.3091(3) 0.9214(3) 0.2040(6)
H5_16 H 0.3393 0.9527 0.2143
C10_16 C 0.2676(3) 0.9043(3) 0.2568(6)
H6_16 H 0.2714 0.9245 0.3032
C11_16 C 0.2200(3) 0.8355(3) 0.1778(6)
H7_16 H 0.1889 0.8052 0.1665
C12_16 C 0.2596(3) 0.8500(4) 0.1230(6)
H8_16 H 0.2544 0.8304 0.0753
N1_17 N 0.5243(4) 0.5707(2) 0.0381(4)
N2_17 N 0.5589(3) 0.6050(2) 0.0922(4)
N3_17 N 0.5197(4) 0.6434(3) 0.0310(5)
C1_17 C 0.5010(5) 0.5949(3) 0.0030(5)
C2_17 C 0.5555(5) 0.6472(3) 0.0857(5)
C8_17 C 0.5862(4) 0.6934(3) 0.1371(5)
C9_17 C 0.6122(4) 0.6909(3) 0.2040(6)
H5_17 H 0.6133 0.6607 0.2143
C10_17 C 0.6366(4) 0.7324(3) 0.2568(6)
H6_17 H 0.6530 0.7286 0.3032
C11_17 C 0.6154(4) 0.7800(3) 0.1778(6)
H7_17 H 0.6162 0.8111 0.1665
C12_17 C 0.5903(5) 0.7404(3) 0.1230(6)
H8_17 H 0.5759 0.7456 0.0753
N9_16 N 0.5450(3) 0.4824(2) 0.0701(4)
C15_16 C 0.5393(4) 0.4353(3) 0.0579(5)
C16_16 C 0.5688(5) 0.4172(3) 0.0981(6)
H9_16 H 0.5633 0.3840 0.0878
C17_16 C 0.6056(6) 0.4491(4) 0.1523(7)
H10_16 H 0.6265 0.4387 0.1796
C18_16 C 0.6116(6) 0.4986(4) 0.1662(7)
H11_16 H 0.6365 0.5214 0.2034
C19_16 C 0.5807(4) 0.5130(3) 0.1246(5)
H12_16 H 0.5849 0.5457 0.1350
N4_16 N 0.4550(3) 0.5176(2) 0.9299(4)
C3_16 C 0.4607(4) 0.5647(3) 0.9421(5)
C4_16 C 0.4312(5) 0.5828(3) 0.9019(6)
H1_16 H 0.4367 0.6160 0.9122
C5_16 C 0.3944(6) 0.5509(4) 0.8477(7)
H2_14 H 0.3735 0.5613 0.8204
C6_16 C 0.3884(6) 0.5014(4) 0.8338(7)
H3_14 H 0.3635 0.4786 0.7966
C7_16 C 0.4193(4) 0.4870(3) 0.8754(5)
H4_16 H 0.4151 0.4543 0.8650
N6_17 N 0.4757(4) 0.4293(2) 0.9619(4)
N7_17 N 0.4411(3) 0.3950(2) 0.9078(4)
N8_17 N 0.4803(4) 0.3566(3) 0.9690(5)
C13_17 C 0.4990(5) 0.4051(3) 0.9970(5)
C14_17 C 0.4445(5) 0.3528(3) 0.9143(5)
C20_15 C 0.4138(4) 0.3066(3) 0.8629(5)
C21_17 C 0.3878(4) 0.3091(3) 0.7960(6)
H13_15 H 0.3867 0.3393 0.7857
C22_17 C 0.3634(4) 0.2676(3) 0.7432(6)
H14_17 H 0.3470 0.2714 0.6968
C23_17 C 0.3846(4) 0.2200(3) 0.8222(6)
H15_15 H 0.3838 0.1889 0.8335
C24_15 C 0.4097(5) 0.2596(3) 0.8770(6)
H16_15 H 0.4241 0.2544 0.9247
N1_18 N 0.0463(3) 0.4757(4) 0.0381(4)
N2_18 N 0.0460(2) 0.4411(3) 0.0922(4)
N3_18 N 0.1236(3) 0.4803(4) 0.0310(5)
C1_18 C 0.0938(4) 0.4990(5) 0.0030(5)
C2_18 C 0.0916(4) 0.4445(5) 0.0857(5)
C8_18 C 0.1071(3) 0.4138(4) 0.1371(5)
C9_18 C 0.0786(3) 0.3878(4) 0.2040(6)
H5_18 H 0.0473 0.3867 0.2143
C10_18 C 0.0957(3) 0.3634(4) 0.2568(6)
H6_18 H 0.0755 0.3470 0.3032
C11_18 C 0.1645(3) 0.3846(4) 0.1778(6)
H7_18 H 0.1948 0.3838 0.1665
C12_18 C 0.1500(4) 0.4097(5) 0.1230(6)
H8_18 H 0.1696 0.4241 0.0753
N6_18 N 0.9537(3) 0.5243(4) 0.9619(4)
N7_18 N 0.9540(2) 0.5589(3) 0.9078(4)
N8_18 N 0.8764(3) 0.5197(4) 0.9690(5)
C13_18 C 0.9062(4) 0.5010(5) 0.9970(5)
C14_18 C 0.9084(4) 0.5555(5) 0.9143(5)
C20_16 C 0.8929(3) 0.5862(4) 0.8629(5)
C21_18 C 0.9214(3) 0.6122(4) 0.7960(6)
H13_16 H 0.9527 0.6133 0.7857
C22_18 C 0.9043(3) 0.6366(4) 0.7432(6)
H14_18 H 0.9245 0.6530 0.6968
C23_18 C 0.8355(3) 0.6154(4) 0.8222(6)
H15_16 H 0.8052 0.6162 0.8335
C24_16 C 0.8500(4) 0.5903(5) 0.8770(6)
H16_16 H 0.8304 0.5759 0.9247
Fe3_12 Fe -0.0000 0.4999 1.0000
N4_17 N 0.0625(2) 0.5450(3) 0.9299(4)
C3_17 C 0.1039(3) 0.5393(4) 0.9421(5)
C4_17 C 0.1515(4) 0.5688(5) 0.9019(6)
H1_17 H 0.1792 0.5633 0.9122
C5_17 C 0.1564(4) 0.6056(6) 0.8477(7)
H2_15 H 0.1877 0.6265 0.8204
C6_17 C 0.1129(4) 0.6116(6) 0.8338(7)
H3_15 H 0.1150 0.6365 0.7966
C7_17 C 0.0676(3) 0.5807(4) 0.8754(5)
H4_17 H 0.0391 0.5849 0.8650
Fe3_13 Fe 1.0000 0.4999 0.0000
N9_17 N 0.9375(2) 0.4550(3) 0.0701(4)
C15_17 C 0.8961(3) 0.4607(4) 0.0579(5)
C16_17 C 0.8485(4) 0.4312(5) 0.0981(6)
H9_17 H 0.8208 0.4367 0.0878
C17_17 C 0.8436(4) 0.3944(6) 0.1523(7)
H10_17 H 0.8123 0.3735 0.1796
C18_17 C 0.8871(4) 0.3884(6) 0.1662(7)
H11_17 H 0.8850 0.3635 0.2034
C19_17 C 0.9324(3) 0.4193(4) 0.1246(5)
H12_17 H 0.9609 0.4151 0.1350
Fe3_14 Fe 0.5000 0.0000 0.0000
N9_18 N 0.5176(2) 0.0625(2) 0.0701(4)
C15_18 C 0.5647(3) 0.1039(3) 0.0579(5)
C16_18 C 0.5828(3) 0.1515(4) 0.0981(6)
H9_18 H 0.6160 0.1792 0.0878
C17_18 C 0.5509(4) 0.1564(4) 0.1523(7)
H10_18 H 0.5613 0.1877 0.1796
C18_18 C 0.5014(4) 0.1129(4) 0.1662(7)
H11_18 H 0.4786 0.1150 0.2034
C19_18 C 0.4870(3) 0.0676(3) 0.1246(5)
H12_18 H 0.4543 0.0391 0.1350
Fe3_15 Fe 0.5000 1.0000 1.0000
N4_18 N 0.4824(2) 0.9375(2) 0.9299(4)
C3_18 C 0.4353(3) 0.8961(3) 0.9421(5)
C4_18 C 0.4172(3) 0.8485(4) 0.9019(6)
H1_18 H 0.3840 0.8208 0.9122
C5_18 C 0.4491(4) 0.8436(4) 0.8477(7)
H2_16 H 0.4387 0.8123 0.8204
C6_18 C 0.4986(4) 0.8871(4) 0.8338(7)
H3_16 H 0.5214 0.8850 0.7966
C7_18 C 0.5130(3) 0.9324(3) 0.8754(5)
H4_18 H 0.5457 0.9609 0.8650
C20_17 C 0.7738(3) 0.0267(3) 0.9704(5)
H15_17 H 0.8615 0.1444 0.9998
C24_17 C 0.8167(4) 0.0737(3) 0.9563(6)
H16_17 H 0.8363 0.0789 0.9086
H2_17 H 0.4789 0.7721 0.0130
H3_17 H 0.5516 0.8548 0.0368
H13_17 H 0.7140 0.9940 0.0476
H2_18 H 0.2279 0.7069 0.0130
H3_18 H 0.1452 0.6969 0.0368
H13_18 H 0.0060 0.7200 0.0476
C20_18 C 0.9733(3) 0.7471(4) 0.9704(5)
H15_18 H 0.8556 0.7171 0.9998
C24_18 C 0.9263(3) 0.7430(5) 0.9563(6)
H16_18 H 0.9211 0.7574 0.9086
loop_
_geom_bond_atom_site_label_1
_geom_bond_atom_site_label_2
_geom_bond_site_symmetry_1
_geom_bond_site_symmetry_2
Fe1 N1 1_555 1_555
N1 N2 1_555 1_555
N2 C2 1_555 1_555
N3 C1 1_555 1_555
N4 Fe1 1_555 1_555
C1 N1 1_555 1_555
C2 N3 1_555 1_555
C3 N4 1_555 1_555
C4 C3 1_555 1_555
H1 C4 1_555 1_555
C5 C4 1_555 1_555
H2 C5 1_555 1_555
C6 C5 1_555 1_555
H3 C6 1_555 1_555
C7 N4 1_555 1_555
H4 C7 1_555 1_555
Fe3 N10 1_555 1_555
N6 Fe1 1_555 1_555
N7 N6 1_555 1_555
N8 C13 1_555 1_555
N9 Fe1 1_555 1_555
N10 C22 1_555 1_555
N11 Fe1 1_555 1_555
N12 Fe1 1_555 1_555
C13 N6 1_555 1_555
C14 N7 1_555 1_555
C15 N9 1_555 1_555
C16 C15 1_555 1_555
H9 C16 1_555 1_555
C17 C16 1_555 1_555
C18 C17 1_555 1_555
C19 N9 1_555 1_555
H12 C19 1_555 1_555
C20 C14 1_555 1_555
C21 C20 1_555 1_555
H13 C21 1_555 1_555
C22 C21 1_555 1_555
H14 C22 1_555 1_555
C23 N10 1_555 1_555
H15 C23 1_555 1_555
C24 C20 1_555 1_555
H16 C24 1_555 1_555
C1 C3 1_555 1_555
C6 C7 1_555 1_555
N8 C14 1_555 1_555
C13 C15 1_555 1_555
C18 C19 1_555 1_555
C23 C24 1_555 1_555
N5 C10 1_555 1_555
C10 C9 1_555 1_555
H6 C10 1_555 1_555
C11 N5 1_555 1_555
Fe2 N5 1_555 1_555
N5_2 C10_2 1_555 1_555
C10_2 C9_2 1_555 1_555
H6_2 C10_2 1_555 1_555
C11_2 N5_2 1_555 1_555
Fe2_2 N5_2 1_555 1_555
Fe1_2 N1_2 1_555 1_555
N1_2 N2_2 1_555 1_555
N2_2 C2_2 1_555 1_555
N3_2 C1_2 1_555 1_555
N4_2 Fe1_2 1_555 1_555
C1_2 N1_2 1_555 1_555
C2_2 N3_2 1_555 1_555
C3_2 N4_2 1_555 1_555
C4_2 C3_2 1_555 1_555
H1_2 C4_2 1_555 1_555
C5_2 C4_2 1_555 1_555
H2_2 C5_2 1_555 1_555
C6_2 C5_2 1_555 1_555
H3_2 C6_2 1_555 1_555
C7_2 N4_2 1_555 1_555
H4_2 C7_2 1_555 1_555
Fe3_2 N10_2 1_555 1_555
N6_2 Fe1_2 1_555 1_555
N7_2 N6_2 1_555 1_555
N8_2 C13_2 1_555 1_555
N9_2 Fe1_2 1_555 1_555
N10_2 C22_2 1_555 1_555
N11_2 Fe1_2 1_555 1_555
N12_2 Fe1_2 1_555 1_555
C13_2 N6_2 1_555 1_555
C14_2 N7_2 1_555 1_555
C15_2 N9_2 1_555 1_555
C16_2 C15_2 1_555 1_555
H9_2 C16_2 1_555 1_555
C17_2 C16_2 1_555 1_555
C18_2 C17_2 1_555 1_555
C19_2 N9_2 1_555 1_555
H12_2 C19_2 1_555 1_555
C20_2 C14_2 1_555 1_555
C21_2 C20_2 1_555 1_555
H13_2 C21_2 1_555 1_555
C22_2 C21_2 1_555 1_555
H14_2 C22_2 1_555 1_555
C23_2 N10_2 1_555 1_555
H15_2 C23_2 1_555 1_555
C24_2 C20_2 1_555 1_555
H16_2 C24_2 1_555 1_555
C1_2 C3_2 1_555 1_555
C6_2 C7_2 1_555 1_555
N8_2 C14_2 1_555 1_555
C13_2 C15_2 1_555 1_555
C18_2 C19_2 1_555 1_555
C23_2 C24_2 1_555 1_555
Fe1_3 N1_3 1_555 1_555
N1_3 N2_3 1_555 1_555
N2_3 C2_3 1_555 1_555
N3_3 C1_3 1_555 1_555
N4_3 Fe1_3 1_555 1_555
C1_3 N1_3 1_555 1_555
C2_3 N3_3 1_555 1_555
C3_3 N4_3 1_555 1_555
C4_3 C3_3 1_555 1_555
H1_3 C4_3 1_555 1_555
C5_3 C4_3 1_555 1_555
H2_3 C5_3 1_555 1_555
C6_3 C5_3 1_555 1_555
H3_3 C6_3 1_555 1_555
C7_3 N4_3 1_555 1_555
H4_3 C7_3 1_555 1_555
C8 C2_3 1_555 1_555
C12 C8 1_555 1_555
H8 C12 1_555 1_555
Fe3_5 N10_3 1_555 1_555
N6_3 Fe1_3 1_555 1_555
N7_3 N6_3 1_555 1_555
N8_3 C13_3 1_555 1_555
N9_3 Fe1_3 1_555 1_555
N10_3 C22_3 1_555 1_555
N11_3 Fe1_3 1_555 1_555
N12_3 Fe1_3 1_555 1_555
C13_3 N6_3 1_555 1_555
C14_3 N7_3 1_555 1_555
C15_3 N9_3 1_555 1_555
C16_3 C15_3 1_555 1_555
H9_3 C16_3 1_555 1_555
C17_3 C16_3 1_555 1_555
C18_3 C17_3 1_555 1_555
C19_3 N9_3 1_555 1_555
H12_3 C19_3 1_555 1_555
C20_3 C14_3 1_555 1_555
C21_3 C20_3 1_555 1_555
H13_3 C21_3 1_555 1_555
C22_3 C21_3 1_555 1_555
H14_3 C22_3 1_555 1_555
C23_3 N10_3 1_555 1_555
H15_3 C23_3 1_555 1_555
C24_3 C20_3 1_555 1_555
H16_3 C24_3 1_555 1_555
C1_3 C3_3 1_555 1_555
C6_3 C7_3 1_555 1_555
N8_3 C14_3 1_555 1_555
C13_3 C15_3 1_555 1_555
C18_3 C19_3 1_555 1_555
C23_3 C24_3 1_555 1_555
N5_3 C10_3 1_555 1_555
H5 C9_3 1_555 1_555
C10_3 C9_3 1_555 1_555
H6_3 C10_3 1_555 1_555
C11_3 N5_3 1_555 1_555
Fe2_3 N5_3 1_555 1_555
Fe2 N10_4 1_555 1_555
N6_4 Fe3_4 1_555 1_555
N7_4 N6_4 1_555 1_555
N8_4 C13_4 1_555 1_555
N9_4 Fe3_4 1_555 1_555
N10_4 C22_4 1_555 1_555
N11_4 Fe3_4 1_555 1_555
C13_4 N6_4 1_555 1_555
C14_4 N7_4 1_555 1_555
C15_4 N9_4 1_555 1_555
C16_4 C15_4 1_555 1_555
H9_4 C16_4 1_555 1_555
C17_4 C16_4 1_555 1_555
H10_2 C17_4 1_555 1_555
C18_4 C17_4 1_555 1_555
H11_2 C18_4 1_555 1_555
C19_4 N9_4 1_555 1_555
H12_4 C19_4 1_555 1_555
C20_4 C14_4 1_555 1_555
C21_4 C20_4 1_555 1_555
H13_4 C21_4 1_555 1_555
C22_4 C21_4 1_555 1_555
H14_4 C22_4 1_555 1_555
C23_4 N10_4 1_555 1_555
H15_4 C23_4 1_555 1_555
C24_4 C20_4 1_555 1_555
H16_4 C24_4 1_555 1_555
N8_4 C14_4 1_555 1_555
C13_4 C15_4 1_555 1_555
C18_4 C19_4 1_555 1_555
C23_4 C24_4 1_555 1_555
Fe3_5 N1_4 1_555 1_555
N1_4 N2_4 1_555 1_555
N2_4 C2_4 1_555 1_555
N3_4 C1_4 1_555 1_555
N4_4 Fe3_5 1_555 1_555
N11_2 C10_4 1_555 1_555
C1_4 N1_4 1_555 1_555
C2_4 N3_4 1_555 1_555
C3_4 N4_4 1_555 1_555
C4_4 C3_4 1_555 1_555
H1_4 C4_4 1_555 1_555
C5_4 C4_4 1_555 1_555
H2_4 C5_4 1_555 1_555
C6_4 C5_4 1_555 1_555
H3_4 C6_4 1_555 1_555
C7_4 N4_4 1_555 1_555
H4_4 C7_4 1_555 1_555
C8_2 C2_4 1_555 1_555
C9_4 C8_2 1_555 1_555
H5_2 C9_4 1_555 1_555
C10_4 C9_4 1_555 1_555
H6_4 C10_4 1_555 1_555
C11_4 N11_2 1_555 1_555
H7_2 C11_4 1_555 1_555
C12_2 C8_2 1_555 1_555
H8_2 C12_2 1_555 1_555
C1_4 C3_4 1_555 1_555
C6_4 C7_4 1_555 1_555
C11_4 C12_2 1_555 1_555
Fe3 N1_5 1_555 1_555
N1_5 N2_5 1_555 1_555
N2_5 C2_5 1_555 1_555
N3_5 C1_5 1_555 1_555
N4_5 Fe3 1_555 1_555
N11_3 C10_5 1_555 1_555
C1_5 N1_5 1_555 1_555
C2_5 N3_5 1_555 1_555
C3_5 N4_5 1_555 1_555
C4_5 C3_5 1_555 1_555
H1_5 C4_5 1_555 1_555
C5_5 C4_5 1_555 1_555
H2_5 C5_5 1_555 1_555
C6_5 C5_5 1_555 1_555
H3_5 C6_5 1_555 1_555
C7_5 N4_5 1_555 1_555
H4_5 C7_5 1_555 1_555
C8_3 C2_5 1_555 1_555
C9_5 C8_3 1_555 1_555
H5_3 C9_5 1_555 1_555
C10_5 C9_5 1_555 1_555
H6_5 C10_5 1_555 1_555
C11_5 N11_3 1_555 1_555
H7_3 C11_5 1_555 1_555
C12_3 C8_3 1_555 1_555
H8_3 C12_3 1_555 1_555
Fe2_2 N10_5 1_555 1_555
N6_5 Fe3 1_555 1_555
N7_5 N6_5 1_555 1_555
N8_5 C13_5 1_555 1_555
N9_5 Fe3 1_555 1_555
N10_5 C22_5 1_555 1_555
N11_5 Fe3 1_555 1_555
C13_5 N6_5 1_555 1_555
C14_5 N7_5 1_555 1_555
C15_5 N9_5 1_555 1_555
C16_5 C15_5 1_555 1_555
H9_5 C16_5 1_555 1_555
C17_5 C16_5 1_555 1_555
H10_3 C17_5 1_555 1_555
C18_5 C17_5 1_555 1_555
H11_3 C18_5 1_555 1_555
C19_5 N9_5 1_555 1_555
H12_5 C19_5 1_555 1_555
C20_5 C14_5 1_555 1_555
C21_5 C20_5 1_555 1_555
H13_5 C21_5 1_555 1_555
C22_5 C21_5 1_555 1_555
H14_5 C22_5 1_555 1_555
C23_5 N10_5 1_555 1_555
H15_5 C23_5 1_555 1_555
C24_5 C20_5 1_555 1_555
H16_5 C24_5 1_555 1_555
C1_5 C3_5 1_555 1_555
C6_5 C7_5 1_555 1_555
C11_5 C12_3 1_555 1_555
N8_5 C14_5 1_555 1_555
C13_5 C15_5 1_555 1_555
C18_5 C19_5 1_555 1_555
C23_5 C24_5 1_555 1_555
Fe3_2 N1_6 1_555 1_555
N1_6 N2_6 1_555 1_555
N2_6 C2_6 1_555 1_555
N3_6 C1_6 1_555 1_555
N4_6 Fe3_2 1_555 1_555
N11 C10_6 1_555 1_555
C1_6 N1_6 1_555 1_555
C2_6 N3_6 1_555 1_555
C3_6 N4_6 1_555 1_555
C4_6 C3_6 1_555 1_555
H1_6 C4_6 1_555 1_555
C5_6 C4_6 1_555 1_555
H2_6 C5_6 1_555 1_555
C6_6 C5_6 1_555 1_555
H3_6 C6_6 1_555 1_555
C7_6 N4_6 1_555 1_555
H4_6 C7_6 1_555 1_555
C8_4 C2_6 1_555 1_555
C9_6 C8_4 1_555 1_555
H5_4 C9_6 1_555 1_555
C10_6 C9_6 1_555 1_555
H6_6 C10_6 1_555 1_555
C11_6 N11 1_555 1_555
H7_4 C11_6 1_555 1_555
C12_4 C8_4 1_555 1_555
H8_4 C12_4 1_555 1_555
C1_6 C3_6 1_555 1_555
C6_6 C7_6 1_555 1_555
C11_6 C12_4 1_555 1_555
Fe2_3 N10_6 1_555 1_555
N6_6 Fe3_3 1_555 1_555
N7_6 N6_6 1_555 1_555
N8_6 C13_6 1_555 1_555
N9_6 Fe3_3 1_555 1_555
N10_6 C22_6 1_555 1_555
N11_6 Fe3_3 1_555 1_555
C13_6 N6_6 1_555 1_555
C14_6 N7_6 1_555 1_555
C15_6 N9_6 1_555 1_555
C16_6 C15_6 1_555 1_555
H9_6 C16_6 1_555 1_555
C17_6 C16_6 1_555 1_555
H10_4 C17_6 1_555 1_555
C18_6 C17_6 1_555 1_555
H11_4 C18_6 1_555 1_555
C19_6 N9_6 1_555 1_555
H12_6 C19_6 1_555 1_555
C20_6 C14_6 1_555 1_555
C21_6 C20_6 1_555 1_555
H13_6 C21_6 1_555 1_555
C22_6 C21_6 1_555 1_555
H14_6 C22_6 1_555 1_555
C23_6 N10_6 1_555 1_555
H15_6 C23_6 1_555 1_555
C24_6 C20_6 1_555 1_555
H16_6 C24_6 1_555 1_555
N8_6 C14_6 1_555 1_555
C13_6 C15_6 1_555 1_555
C18_6 C19_6 1_555 1_555
C23_6 C24_6 1_555 1_555
N12_2 C22_7 1_555 1_555
C22_7 C21_7 1_555 1_555
H14_7 C22_7 1_555 1_555
C23_7 N12_2 1_555 1_555
Fe2_3 N1_7 1_555 1_555
N1_7 N2_7 1_555 1_555
N2_7 C2_7 1_555 1_555
N3_7 C1_7 1_555 1_555
N4_7 Fe2_3 1_555 1_555
N11_5 C10_7 1_555 1_555
C1_7 N1_7 1_555 1_555
C2_7 N3_7 1_555 1_555
C3_7 N4_7 1_555 1_555
C4_7 C3_7 1_555 1_555
H1_7 C4_7 1_555 1_555
C5_7 C4_7 1_555 1_555
C6_7 C5_7 1_555 1_555
C7_7 N4_7 1_555 1_555
H4_7 C7_7 1_555 1_555
C8_5 C2_7 1_555 1_555
C9_7 C8_5 1_555 1_555
H5_5 C9_7 1_555 1_555
C10_7 C9_7 1_555 1_555
H6_7 C10_7 1_555 1_555
C11_7 N11_5 1_555 1_555
H7_5 C11_7 1_555 1_555
C12_5 C8_5 1_555 1_555
H8_5 C12_5 1_555 1_555
N6_7 Fe2_3 1_555 1_555
N7_7 N6_7 1_555 1_555
N8_7 C13_7 1_555 1_555
N9_7 Fe2_3 1_555 1_555
C13_7 N6_7 1_555 1_555
C14_7 N7_7 1_555 1_555
C15_7 N9_7 1_555 1_555
C16_7 C15_7 1_555 1_555
H9_7 C16_7 1_555 1_555
C17_7 C16_7 1_555 1_555
H10_5 C17_7 1_555 1_555
C18_7 C17_7 1_555 1_555
H11_5 C18_7 1_555 1_555
C19_7 N9_7 1_555 1_555
H12_7 C19_7 1_555 1_555
C1_7 C3_7 1_555 1_555
C6_7 C7_7 1_555 1_555
C11_7 C12_5 1_555 1_555
N8_7 C14_7 1_555 1_555
C13_7 C15_7 1_555 1_555
C18_7 C19_7 1_555 1_555
Fe2 N1_8 1_555 1_555
N1_8 N2_8 1_555 1_555
N2_8 C2_8 1_555 1_555
N3_8 C1_8 1_555 1_555
N4_8 Fe2 1_555 1_555
N11_6 C10_8 1_555 1_555
C1_8 N1_8 1_555 1_555
C2_8 N3_8 1_555 1_555
C3_8 N4_8 1_555 1_555
C4_8 C3_8 1_555 1_555
H1_8 C4_8 1_555 1_555
C5_8 C4_8 1_555 1_555
C6_8 C5_8 1_555 1_555
C7_8 N4_8 1_555 1_555
H4_8 C7_8 1_555 1_555
C8_6 C2_8 1_555 1_555
C9_8 C8_6 1_555 1_555
H5_6 C9_8 1_555 1_555
C10_8 C9_8 1_555 1_555
H6_8 C10_8 1_555 1_555
C11_8 N11_6 1_555 1_555
H7_6 C11_8 1_555 1_555
C12_6 C8_6 1_555 1_555
H8_6 C12_6 1_555 1_555
N6_8 Fe2 1_555 1_555
N7_8 N6_8 1_555 1_555
N8_8 C13_8 1_555 1_555
N9_8 Fe2 1_555 1_555
C13_8 N6_8 1_555 1_555
C14_8 N7_8 1_555 1_555
C15_8 N9_8 1_555 1_555
C16_8 C15_8 1_555 1_555
H9_8 C16_8 1_555 1_555
C17_8 C16_8 1_555 1_555
H10_6 C17_8 1_555 1_555
C18_8 C17_8 1_555 1_555
H11_6 C18_8 1_555 1_555
C19_8 N9_8 1_555 1_555
H12_8 C19_8 1_555 1_555
C1_8 C3_8 1_555 1_555
C6_8 C7_8 1_555 1_555
C11_8 C12_6 1_555 1_555
N8_8 C14_8 1_555 1_555
C13_8 C15_8 1_555 1_555
C18_8 C19_8 1_555 1_555
N12_3 C22_8 1_555 1_555
C22_8 C21_8 1_555 1_555
H14_8 C22_8 1_555 1_555
C23_8 N12_3 1_555 1_555
N12 C22_9 1_555 1_555
H13_7 C21_9 1_555 1_555
C22_9 C21_9 1_555 1_555
H14_9 C22_9 1_555 1_555
C23_9 N12 1_555 1_555
Fe2_2 N1_9 1_555 1_555
N1_9 N2_9 1_555 1_555
N2_9 C2_9 1_555 1_555
N3_9 C1_9 1_555 1_555
N4_9 Fe2_2 1_555 1_555
N11_4 C10_9 1_555 1_555
C1_9 N1_9 1_555 1_555
C2_9 N3_9 1_555 1_555
C3_9 N4_9 1_555 1_555
C4_9 C3_9 1_555 1_555
H1_9 C4_9 1_555 1_555
C5_9 C4_9 1_555 1_555
C6_9 C5_9 1_555 1_555
C7_9 N4_9 1_555 1_555
H4_9 C7_9 1_555 1_555
C8_7 C2_9 1_555 1_555
C9_9 C8_7 1_555 1_555
H5_7 C9_9 1_555 1_555
C10_9 C9_9 1_555 1_555
H6_9 C10_9 1_555 1_555
C11_9 N11_4 1_555 1_555
H7_7 C11_9 1_555 1_555
C12_7 C8_7 1_555 1_555
H8_7 C12_7 1_555 1_555
N6_9 Fe2_2 1_555 1_555
N7_9 N6_9 1_555 1_555
N8_9 C13_9 1_555 1_555
N9_9 Fe2_2 1_555 1_555
C13_9 N6_9 1_555 1_555
C14_9 N7_9 1_555 1_555
C15_9 N9_9 1_555 1_555
C16_9 C15_9 1_555 1_555
H9_9 C16_9 1_555 1_555
C17_9 C16_9 1_555 1_555
H10_7 C17_9 1_555 1_555
C18_9 C17_9 1_555 1_555
H11_7 C18_9 1_555 1_555
C19_9 N9_9 1_555 1_555
H12_9 C19_9 1_555 1_555
C20_7 C14_9 1_555 1_555
C24_7 C20_7 1_555 1_555
H16_7 C24_7 1_555 1_555
C1_9 C3_9 1_555 1_555
C6_9 C7_9 1_555 1_555
C11_9 C12_7 1_555 1_555
N8_9 C14_9 1_555 1_555
C13_9 C15_9 1_555 1_555
C18_9 C19_9 1_555 1_555
C12_8 C8_8 1_555 1_555
H8_8 C12_8 1_555 1_555
C12_9 C8_9 1_555 1_555
H8_9 C12_9 1_555 1_555
Fe1_4 N1_10 1_555 1_555
N1_10 N2_10 1_555 1_555
N2_10 C2_10 1_555 1_555
N3_10 C1_10 1_555 1_555
N4_10 Fe1_4 1_555 1_555
C1_10 N1_10 1_555 1_555
C2_10 N3_10 1_555 1_555
C3_10 N4_10 1_555 1_555
C4_10 C3_10 1_555 1_555
H1_10 C4_10 1_555 1_555
C5_10 C4_10 1_555 1_555
H2_8 C5_10 1_555 1_555
C6_10 C5_10 1_555 1_555
H3_8 C6_10 1_555 1_555
C7_10 N4_10 1_555 1_555
H4_10 C7_10 1_555 1_555
Fe3_6 N10_7 1_555 1_555
N6_10 Fe1_4 1_555 1_555
N7_10 N6_10 1_555 1_555
N8_10 C13_10 1_555 1_555
N9_10 Fe1_4 1_555 1_555
N10_7 C22_10 1_555 1_555
N11_7 Fe1_4 1_555 1_555
N12_4 Fe1_4 1_555 1_555
C13_10 N6_10 1_555 1_555
C14_10 N7_10 1_555 1_555
C15_10 N9_10 1_555 1_555
C16_10 C15_10 1_555 1_555
H9_10 C16_10 1_555 1_555
C17_10 C16_10 1_555 1_555
H10_10 C17_10 1_555 1_555
C18_10 C17_10 1_555 1_555
H11_10 C18_10 1_555 1_555
C19_10 N9_10 1_555 1_555
H12_10 C19_10 1_555 1_555
C20_8 C14_10 1_555 1_555
C21_10 C20_8 1_555 1_555
H13_8 C21_10 1_555 1_555
C22_10 C21_10 1_555 1_555
H14_10 C22_10 1_555 1_555
C23_10 N10_7 1_555 1_555
H15_8 C23_10 1_555 1_555
C24_8 C20_8 1_555 1_555
H16_8 C24_8 1_555 1_555
C1_10 C3_10 1_555 1_555
C6_10 C7_10 1_555 1_555
N8_10 C14_10 1_555 1_555
C13_10 C15_10 1_555 1_555
C18_10 C19_10 1_555 1_555
C23_10 C24_8 1_555 1_555
N5_4 C10_10 1_555 1_555
C9_10 C8_10 1_555 1_555
C10_10 C9_10 1_555 1_555
H6_10 C10_10 1_555 1_555
C11_10 N5_4 1_555 1_555
H7_10 C11_10 1_555 1_555
C12_10 C8_10 1_555 1_555
H8_10 C12_10 1_555 1_555
Fe2_4 N5_4 1_555 1_555
C11_10 C12_10 1_555 1_555
N5_5 C10_11 1_555 1_555
C9_11 C8_11 1_555 1_555
C10_11 C9_11 1_555 1_555
H6_11 C10_11 1_555 1_555
C11_11 N5_5 1_555 1_555
H7_11 C11_11 1_555 1_555
C12_11 C8_11 1_555 1_555
H8_11 C12_11 1_555 1_555
Fe2_5 N5_5 1_555 1_555
C11_11 C12_11 1_555 1_555
Fe1_5 N1_11 1_555 1_555
N1_11 N2_11 1_555 1_555
N2_11 C2_11 1_555 1_555
N3_11 C1_11 1_555 1_555
N4_11 Fe1_5 1_555 1_555
C1_11 N1_11 1_555 1_555
C2_11 N3_11 1_555 1_555
C3_11 N4_11 1_555 1_555
C4_11 C3_11 1_555 1_555
H1_11 C4_11 1_555 1_555
C5_11 C4_11 1_555 1_555
H2_9 C5_11 1_555 1_555
C6_11 C5_11 1_555 1_555
H3_9 C6_11 1_555 1_555
C7_11 N4_11 1_555 1_555
H4_11 C7_11 1_555 1_555
Fe3_8 N10_8 1_555 1_555
N6_11 Fe1_5 1_555 1_555
N7_11 N6_11 1_555 1_555
N8_11 C13_11 1_555 1_555
N9_11 Fe1_5 1_555 1_555
N10_8 C22_11 1_555 1_555
N11_8 Fe1_5 1_555 1_555
N12_5 Fe1_5 1_555 1_555
C13_11 N6_11 1_555 1_555
C14_11 N7_11 1_555 1_555
C15_11 N9_11 1_555 1_555
C16_11 C15_11 1_555 1_555
H9_11 C16_11 1_555 1_555
C17_11 C16_11 1_555 1_555
H10_11 C17_11 1_555 1_555
C18_11 C17_11 1_555 1_555
H11_11 C18_11 1_555 1_555
C19_11 N9_11 1_555 1_555
H12_11 C19_11 1_555 1_555
C20_9 C14_11 1_555 1_555
C21_11 C20_9 1_555 1_555
H13_9 C21_11 1_555 1_555
C22_11 C21_11 1_555 1_555
H14_11 C22_11 1_555 1_555
C23_11 N10_8 1_555 1_555
H15_9 C23_11 1_555 1_555
C24_9 C20_9 1_555 1_555
H16_9 C24_9 1_555 1_555
C1_11 C3_11 1_555 1_555
C6_11 C7_11 1_555 1_555
N8_11 C14_11 1_555 1_555
C13_11 C15_11 1_555 1_555
C18_11 C19_11 1_555 1_555
C23_11 C24_9 1_555 1_555
Fe1_6 N1_12 1_555 1_555
N1_12 N2_12 1_555 1_555
N2_12 C2_12 1_555 1_555
N3_12 C1_12 1_555 1_555
N4_12 Fe1_6 1_555 1_555
N5_6 C10_12 1_555 1_555
C1_12 N1_12 1_555 1_555
C2_12 N3_12 1_555 1_555
C3_12 N4_12 1_555 1_555
C4_12 C3_12 1_555 1_555
H1_12 C4_12 1_555 1_555
C5_12 C4_12 1_555 1_555
H2_10 C5_12 1_555 1_555
C6_12 C5_12 1_555 1_555
H3_10 C6_12 1_555 1_555
C7_12 N4_12 1_555 1_555
H4_12 C7_12 1_555 1_555
C8_12 C2_12 1_555 1_555
C9_12 C8_12 1_555 1_555
H5_12 C9_12 1_555 1_555
C10_12 C9_12 1_555 1_555
H6_12 C10_12 1_555 1_555
C11_12 N5_6 1_555 1_555
H7_12 C11_12 1_555 1_555
C12_12 C8_12 1_555 1_555
H8_12 C12_12 1_555 1_555
Fe2_6 N5_6 1_555 1_555
Fe3_11 N10_9 1_555 1_555
N6_12 Fe1_6 1_555 1_555
N7_12 N6_12 1_555 1_555
N8_12 C13_12 1_555 1_555
N9_12 Fe1_6 1_555 1_555
N10_9 C22_12 1_555 1_555
N11_9 Fe1_6 1_555 1_555
N12_6 Fe1_6 1_555 1_555
C13_12 N6_12 1_555 1_555
C14_12 N7_12 1_555 1_555
C15_12 N9_12 1_555 1_555
C16_12 C15_12 1_555 1_555
H9_12 C16_12 1_555 1_555
C17_12 C16_12 1_555 1_555
H10_12 C17_12 1_555 1_555
C18_12 C17_12 1_555 1_555
H11_12 C18_12 1_555 1_555
C19_12 N9_12 1_555 1_555
H12_12 C19_12 1_555 1_555
C20_10 C14_12 1_555 1_555
C21_12 C20_10 1_555 1_555
H13_10 C21_12 1_555 1_555
C22_12 C21_12 1_555 1_555
H14_12 C22_12 1_555 1_555
C23_12 N10_9 1_555 1_555
H15_10 C23_12 1_555 1_555
C24_10 C20_10 1_555 1_555
H16_10 C24_10 1_555 1_555
C1_12 C3_12 1_555 1_555
C6_12 C7_12 1_555 1_555
C11_12 C12_12 1_555 1_555
N8_12 C14_12 1_555 1_555
C13_12 C15_12 1_555 1_555
C18_12 C19_12 1_555 1_555
C23_12 C24_10 1_555 1_555
N12_5 C22_13 1_555 1_555
C21_13 C20_11 1_555 1_555
C22_13 C21_13 1_555 1_555
H14_13 C22_13 1_555 1_555
C23_13 N12_5 1_555 1_555
H15_11 C23_13 1_555 1_555
C24_11 C20_11 1_555 1_555
H16_11 C24_11 1_555 1_555
C23_13 C24_11 1_555 1_555
Fe2_6 N1_13 1_555 1_555
N1_13 N2_13 1_555 1_555
N2_13 C2_13 1_555 1_555
N3_13 C1_13 1_555 1_555
N4_13 Fe2_6 1_555 1_555
N5_7 C10_13 1_555 1_555
C1_13 N1_13 1_555 1_555
C2_13 N3_13 1_555 1_555
C3_13 N4_13 1_555 1_555
C4_13 C3_13 1_555 1_555
H1_13 C4_13 1_555 1_555
C5_13 C4_13 1_555 1_555
H2_11 C5_13 1_555 1_555
C6_13 C5_13 1_555 1_555
H3_11 C6_13 1_555 1_555
C7_13 N4_13 1_555 1_555
H4_13 C7_13 1_555 1_555
C8_13 C2_13 1_555 1_555
C9_13 C8_13 1_555 1_555
H5_13 C9_13 1_555 1_555
C10_13 C9_13 1_555 1_555
H6_13 C10_13 1_555 1_555
C11_13 N5_7 1_555 1_555
H7_13 C11_13 1_555 1_555
C12_13 C8_13 1_555 1_555
H8_13 C12_13 1_555 1_555
Fe3_7 N5_7 1_555 1_555
N6_13 Fe2_6 1_555 1_555
N7_13 N6_13 1_555 1_555
N8_13 C13_13 1_555 1_555
N9_13 Fe2_6 1_555 1_555
N12_7 Fe2_6 1_555 1_555
C13_13 N6_13 1_555 1_555
C14_13 N7_13 1_555 1_555
C15_13 N9_13 1_555 1_555
C16_13 C15_13 1_555 1_555
H9_13 C16_13 1_555 1_555
C17_13 C16_13 1_555 1_555
H10_13 C17_13 1_555 1_555
C18_13 C17_13 1_555 1_555
H11_13 C18_13 1_555 1_555
C19_13 N9_13 1_555 1_555
H12_13 C19_13 1_555 1_555
C1_13 C3_13 1_555 1_555
C6_13 C7_13 1_555 1_555
C11_13 C12_13 1_555 1_555
N8_13 C14_13 1_555 1_555
C13_13 C15_13 1_555 1_555
C18_13 C19_13 1_555 1_555
Fe2_4 N1_14 1_555 1_555
N1_14 N2_14 1_555 1_555
N2_14 C2_14 1_555 1_555
N3_14 C1_14 1_555 1_555
N4_14 Fe2_4 1_555 1_555
N5_8 C10_14 1_555 1_555
C1_14 N1_14 1_555 1_555
C2_14 N3_14 1_555 1_555
C3_14 N4_14 1_555 1_555
C4_14 C3_14 1_555 1_555
H1_14 C4_14 1_555 1_555
C5_14 C4_14 1_555 1_555
H2_12 C5_14 1_555 1_555
C6_14 C5_14 1_555 1_555
H3_12 C6_14 1_555 1_555
C7_14 N4_14 1_555 1_555
H4_14 C7_14 1_555 1_555
C8_14 C2_14 1_555 1_555
C9_14 C8_14 1_555 1_555
H5_14 C9_14 1_555 1_555
C10_14 C9_14 1_555 1_555
H6_14 C10_14 1_555 1_555
C11_14 N5_8 1_555 1_555
H7_14 C11_14 1_555 1_555
C12_14 C8_14 1_555 1_555
H8_14 C12_14 1_555 1_555
Fe3_9 N5_8 1_555 1_555
N6_14 Fe2_4 1_555 1_555
N7_14 N6_14 1_555 1_555
N8_14 C13_14 1_555 1_555
N9_14 Fe2_4 1_555 1_555
N12_8 Fe2_4 1_555 1_555
C13_14 N6_14 1_555 1_555
C14_14 N7_14 1_555 1_555
C15_14 N9_14 1_555 1_555
C16_14 C15_14 1_555 1_555
H9_14 C16_14 1_555 1_555
C17_14 C16_14 1_555 1_555
H10_14 C17_14 1_555 1_555
C18_14 C17_14 1_555 1_555
H11_14 C18_14 1_555 1_555
C19_14 N9_14 1_555 1_555
H12_14 C19_14 1_555 1_555
C1_14 C3_14 1_555 1_555
C6_14 C7_14 1_555 1_555
C11_14 C12_14 1_555 1_555
N8_14 C14_14 1_555 1_555
C13_14 C15_14 1_555 1_555
C18_14 C19_14 1_555 1_555
N12_6 C22_14 1_555 1_555
C21_14 C20_12 1_555 1_555
C22_14 C21_14 1_555 1_555
H14_14 C22_14 1_555 1_555
C23_14 N12_6 1_555 1_555
H15_12 C23_14 1_555 1_555
C24_12 C20_12 1_555 1_555
H16_12 C24_12 1_555 1_555
C23_14 C24_12 1_555 1_555
Fe2_5 N1_15 1_555 1_555
N1_15 N2_15 1_555 1_555
N2_15 C2_15 1_555 1_555
N3_15 C1_15 1_555 1_555
N4_15 Fe2_5 1_555 1_555
N5_9 C10_15 1_555 1_555
C1_15 N1_15 1_555 1_555
C2_15 N3_15 1_555 1_555
C3_15 N4_15 1_555 1_555
C4_15 C3_15 1_555 1_555
H1_15 C4_15 1_555 1_555
C5_15 C4_15 1_555 1_555
H2_13 C5_15 1_555 1_555
C6_15 C5_15 1_555 1_555
H3_13 C6_15 1_555 1_555
C7_15 N4_15 1_555 1_555
H4_15 C7_15 1_555 1_555
C8_15 C2_15 1_555 1_555
C9_15 C8_15 1_555 1_555
H5_15 C9_15 1_555 1_555
C10_15 C9_15 1_555 1_555
H6_15 C10_15 1_555 1_555
C11_15 N5_9 1_555 1_555
H7_15 C11_15 1_555 1_555
C12_15 C8_15 1_555 1_555
H8_15 C12_15 1_555 1_555
Fe3_10 N5_9 1_555 1_555
N6_15 Fe2_5 1_555 1_555
N7_15 N6_15 1_555 1_555
N8_15 C13_15 1_555 1_555
N9_15 Fe2_5 1_555 1_555
N12_4 C22_15 1_555 1_555
N12_9 Fe2_5 1_555 1_555
C13_15 N6_15 1_555 1_555
C14_15 N7_15 1_555 1_555
C15_15 N9_15 1_555 1_555
C16_15 C15_15 1_555 1_555
H9_15 C16_15 1_555 1_555
C17_15 C16_15 1_555 1_555
H10_15 C17_15 1_555 1_555
C18_15 C17_15 1_555 1_555
H11_15 C18_15 1_555 1_555
C19_15 N9_15 1_555 1_555
H12_15 C19_15 1_555 1_555
C20_13 C14_15 1_555 1_555
C21_15 C20_13 1_555 1_555
H13_13 C21_15 1_555 1_555
C22_15 C21_15 1_555 1_555
H14_15 C22_15 1_555 1_555
C23_15 N12_4 1_555 1_555
H15_13 C23_15 1_555 1_555
C24_13 C20_13 1_555 1_555
H16_13 C24_13 1_555 1_555
C1_15 C3_15 1_555 1_555
C6_15 C7_15 1_555 1_555
C11_15 C12_15 1_555 1_555
N8_15 C14_15 1_555 1_555
C13_15 C15_15 1_555 1_555
C18_15 C19_15 1_555 1_555
C23_15 C24_13 1_555 1_555
N6_16 Fe3_10 1_555 1_555
N7_16 N6_16 1_555 1_555
N8_16 C13_16 1_555 1_555
N12_8 C22_16 1_555 1_555
C13_16 N6_16 1_555 1_555
C14_16 N7_16 1_555 1_555
C20_14 C14_16 1_555 1_555
C21_16 C20_14 1_555 1_555
H13_14 C21_16 1_555 1_555
C22_16 C21_16 1_555 1_555
H14_16 C22_16 1_555 1_555
C23_16 N12_8 1_555 1_555
H15_14 C23_16 1_555 1_555
C24_14 C20_14 1_555 1_555
H16_14 C24_14 1_555 1_555
N8_16 C14_16 1_555 1_555
C23_16 C24_14 1_555 1_555
Fe3_11 N1_16 1_555 1_555
N1_16 N2_16 1_555 1_555
N2_16 C2_16 1_555 1_555
N3_16 C1_16 1_555 1_555
N11_8 C10_16 1_555 1_555
C1_16 N1_16 1_555 1_555
C2_16 N3_16 1_555 1_555
C8_16 C2_16 1_555 1_555
C9_16 C8_16 1_555 1_555
H5_16 C9_16 1_555 1_555
C10_16 C9_16 1_555 1_555
H6_16 C10_16 1_555 1_555
C11_16 N11_8 1_555 1_555
H7_16 C11_16 1_555 1_555
C12_16 C8_16 1_555 1_555
H8_16 C12_16 1_555 1_555
C11_16 C12_16 1_555 1_555
Fe3_6 N1_17 1_555 1_555
N1_17 N2_17 1_555 1_555
N2_17 C2_17 1_555 1_555
N3_17 C1_17 1_555 1_555
N11_9 C10_17 1_555 1_555
C1_17 N1_17 1_555 1_555
C2_17 N3_17 1_555 1_555
C8_17 C2_17 1_555 1_555
C9_17 C8_17 1_555 1_555
H5_17 C9_17 1_555 1_555
C10_17 C9_17 1_555 1_555
H6_17 C10_17 1_555 1_555
C11_17 N11_9 1_555 1_555
H7_17 C11_17 1_555 1_555
C12_17 C8_17 1_555 1_555
H8_17 C12_17 1_555 1_555
N9_16 Fe3_6 1_555 1_555
C15_16 N9_16 1_555 1_555
C16_16 C15_16 1_555 1_555
H9_16 C16_16 1_555 1_555
C17_16 C16_16 1_555 1_555
H10_16 C17_16 1_555 1_555
C18_16 C17_16 1_555 1_555
H11_16 C18_16 1_555 1_555
C19_16 N9_16 1_555 1_555
H12_16 C19_16 1_555 1_555
C11_17 C12_17 1_555 1_555
C18_16 C19_16 1_555 1_555
N4_16 Fe3_7 1_555 1_555
C3_16 N4_16 1_555 1_555
C4_16 C3_16 1_555 1_555
H1_16 C4_16 1_555 1_555
C5_16 C4_16 1_555 1_555
H2_14 C5_16 1_555 1_555
C6_16 C5_16 1_555 1_555
H3_14 C6_16 1_555 1_555
C7_16 N4_16 1_555 1_555
H4_16 C7_16 1_555 1_555
N6_17 Fe3_7 1_555 1_555
N7_17 N6_17 1_555 1_555
N8_17 C13_17 1_555 1_555
N12_9 C22_17 1_555 1_555
C13_17 N6_17 1_555 1_555
C14_17 N7_17 1_555 1_555
C20_15 C14_17 1_555 1_555
C21_17 C20_15 1_555 1_555
H13_15 C21_17 1_555 1_555
C22_17 C21_17 1_555 1_555
H14_17 C22_17 1_555 1_555
C23_17 N12_9 1_555 1_555
H15_15 C23_17 1_555 1_555
C24_15 C20_15 1_555 1_555
H16_15 C24_15 1_555 1_555
C6_16 C7_16 1_555 1_555
N8_17 C14_17 1_555 1_555
C23_17 C24_15 1_555 1_555
Fe3_8 N1_18 1_555 1_555
N1_18 N2_18 1_555 1_555
N2_18 C2_18 1_555 1_555
N3_18 C1_18 1_555 1_555
N11_7 C10_18 1_555 1_555
C1_18 N1_18 1_555 1_555
C2_18 N3_18 1_555 1_555
C8_18 C2_18 1_555 1_555
C9_18 C8_18 1_555 1_555
H5_18 C9_18 1_555 1_555
C10_18 C9_18 1_555 1_555
H6_18 C10_18 1_555 1_555
C11_18 N11_7 1_555 1_555
H7_18 C11_18 1_555 1_555
C12_18 C8_18 1_555 1_555
H8_18 C12_18 1_555 1_555
C11_18 C12_18 1_555 1_555
N6_18 Fe3_9 1_555 1_555
N7_18 N6_18 1_555 1_555
N8_18 C13_18 1_555 1_555
N12_7 C22_18 1_555 1_555
C13_18 N6_18 1_555 1_555
C14_18 N7_18 1_555 1_555
C20_16 C14_18 1_555 1_555
C21_18 C20_16 1_555 1_555
H13_16 C21_18 1_555 1_555
C22_18 C21_18 1_555 1_555
H14_18 C22_18 1_555 1_555
C23_18 N12_7 1_555 1_555
H15_16 C23_18 1_555 1_555
C24_16 C20_16 1_555 1_555
H16_16 C24_16 1_555 1_555
N8_18 C14_18 1_555 1_555
C23_18 C24_16 1_555 1_555
N4_17 Fe3_12 1_555 1_555
C3_17 N4_17 1_555 1_555
C4_17 C3_17 1_555 1_555
H1_17 C4_17 1_555 1_555
C5_17 C4_17 1_555 1_555
H2_15 C5_17 1_555 1_555
C6_17 C5_17 1_555 1_555
H3_15 C6_17 1_555 1_555
C7_17 N4_17 1_555 1_555
H4_17 C7_17 1_555 1_555
C6_17 C7_17 1_555 1_555
N9_17 Fe3_13 1_555 1_555
C15_17 N9_17 1_555 1_555
C16_17 C15_17 1_555 1_555
H9_17 C16_17 1_555 1_555
C17_17 C16_17 1_555 1_555
H10_17 C17_17 1_555 1_555
C18_17 C17_17 1_555 1_555
H11_17 C18_17 1_555 1_555
C19_17 N9_17 1_555 1_555
H12_17 C19_17 1_555 1_555
C18_17 C19_17 1_555 1_555
N9_18 Fe3_14 1_555 1_555
C15_18 N9_18 1_555 1_555
C16_18 C15_18 1_555 1_555
H9_18 C16_18 1_555 1_555
C17_18 C16_18 1_555 1_555
H10_18 C17_18 1_555 1_555
C18_18 C17_18 1_555 1_555
H11_18 C18_18 1_555 1_555
C19_18 N9_18 1_555 1_555
H12_18 C19_18 1_555 1_555
C18_18 C19_18 1_555 1_555
N4_18 Fe3_15 1_555 1_555
C3_18 N4_18 1_555 1_555
C4_18 C3_18 1_555 1_555
H1_18 C4_18 1_555 1_555
C5_18 C4_18 1_555 1_555
H2_16 C5_18 1_555 1_555
C6_18 C5_18 1_555 1_555
H3_16 C6_18 1_555 1_555
C7_18 N4_18 1_555 1_555
H4_18 C7_18 1_555 1_555
C6_18 C7_18 1_555 1_555
C24_17 C20_17 1_555 1_555
H16_17 C24_17 1_555 1_555
C24_18 C20_18 1_555 1_555
H16_18 C24_18 1_555 1_555

#END
