
###############################################################################
#
# This file contains modified crystal structure data generated from the
# MOF subset of the Cambridge Structural Database (CSD) v543 
# hosted by the Cambridge Crystallographic Data Centre (CCDC).
#
# This work is licensed under the Creative Commons
# Attribution-NonCommercial-ShareAlike 4.0 International License.
# To view a copy of this license, visit
# http://creativecommons.org/licenses/by-nc-sa/4.0/
# or send a letter to
# Creative Commons, PO Box 1866, Mountain View, CA 94042, USA.
#
# CIF created using the CSD Python API on 29 September 2022
# The structure has been converted into the P1 space group
# The structure has a 3D framework
# The original CSD entry BUVYIB is in the rhombohedral crystal system
# The framework has been calculated to contain at least 10.0% void space
# The void calculation uses a probe of radius 1.32A, grid spacing 0.4
#
###############################################################################

data_BUVYIB
_chemical_formula_moiety         '(C216 H144 Fe16 N90)n'
_symmetry_cell_setting           triclinic
_symmetry_space_group_name_H-M   'P 1'
_symmetry_Int_Tables_number      1
_space_group_name_Hall           'P 1'
loop_
_symmetry_equiv_pos_site_id
_symmetry_equiv_pos_as_xyz
1 x,y,z
_cell_length_a                   32.1469(10)
_cell_length_b                   32.1469(10)
_cell_length_c                   11.8998(7)
_cell_angle_alpha                90
_cell_angle_beta                 90
_cell_angle_gamma                120
_cell_volume                     10650
loop_
_atom_site_label
_atom_site_type_symbol
_atom_site_fract_x
_atom_site_fract_y
_atom_site_fract_z
Fe1 Fe 0.0000 0.5000 -0.0000
Fe2 Fe 0.1667 0.8333 0.3333
N6 N 0.04831(12) 0.56730(11) 0.0286(3)
N7 N 0.05487(12) 0.60146(11) 0.1058(3)
N10 N 0.14531(12) 0.77299(11) 0.2483(3)
N11 N 0.03899(16) 0.47864(12) 0.0850(3)
C14 C 0.09466(15) 0.64125(14) 0.0698(3)
C20 C 0.11276(14) 0.68637(14) 0.1303(3)
C21 C 0.09187(14) 0.68815(14) 0.2306(4)
H13 H 0.0659 0.6596 0.2607
C22 C 0.10827(15) 0.73054(14) 0.2869(3)
H14 H 0.0933 0.7305 0.3558
C23 C 0.16582(14) 0.77138(14) 0.1505(3)
H15 H 0.1918 0.8004 0.1222
C24 C 0.15093(15) 0.72981(14) 0.0897(4)
H16 H 0.1663 0.7305 0.0210
Fe1_2 Fe 1.0000 0.5000 1.0000
N1 N 0.95169(12) 0.43270(11) 0.9714(3)
N2 N 0.94513(12) 0.39854(11) 0.8942(3)
N5 N 0.85469(12) 0.22701(11) 0.7517(3)
C2 C 0.90534(15) 0.35875(14) 0.9302(3)
C8 C 0.88724(14) 0.31363(14) 0.8697(3)
C9 C 0.90813(14) 0.31185(14) 0.7694(4)
H5 H 0.9341 0.3404 0.7393
C10 C 0.89173(15) 0.26946(14) 0.7131(3)
H6 H 0.9067 0.2695 0.6442
C11 C 0.83418(14) 0.22862(14) 0.8495(3)
H7 H 0.8082 0.1996 0.8778
C12 C 0.84907(15) 0.27019(14) 0.9103(4)
H8 H 0.8337 0.2695 0.9790
Fe3 Fe 0.8333 0.1667 0.6667
N12 N 0.96101(16) 0.52136(12) 0.9150(3)
Fe1_3 Fe 0.5000 0.5000 -0.0000
N3 N 0.63463(12) 0.52075(18) 0.0257(3)
N4 N 0.51282(12) 0.46971(17) 0.1349(3)
C1 C 0.58820(14) 0.50470(21) 0.0470(3)
C3 C 0.55795(14) 0.47513(20) 0.1401(3)
C4 C 0.57241(16) 0.45511(23) 0.2222(4)
H1 H 0.6041 0.4600 0.2220
C5 C 0.54025(17) 0.42781(25) 0.3051(4)
H2 H 0.5491 0.4134 0.3630
C6 C 0.49431(17) 0.42205(25) 0.3010(4)
H3 H 0.4713 0.4034 0.3568
C7 C 0.48225(15) 0.44300(22) 0.2175(3)
H4 H 0.4507 0.4386 0.2172
Fe2_2 Fe 0.1667 0.3333 0.3333
N6_2 N 0.43270(11) 0.48101(16) 0.0286(3)
N7_2 N 0.39854(11) 0.45341(16) 0.1058(3)
N10_2 N 0.22701(11) 0.37232(16) 0.2483(3)
N11_2 N 0.52136(12) 0.56034(20) 0.0850(3)
C14_2 C 0.35875(14) 0.45341(21) 0.0698(3)
C20_2 C 0.31363(14) 0.42639(20) 0.1303(3)
C21_2 C 0.31185(14) 0.40372(20) 0.2306(4)
H13_2 H 0.3404 0.4063 0.2607
C22_2 C 0.26946(14) 0.37773(21) 0.2869(3)
H14_2 H 0.2695 0.3628 0.3558
C23_2 C 0.22862(14) 0.39444(20) 0.1505(3)
H15_2 H 0.1996 0.3914 0.1222
C24_2 C 0.27019(14) 0.42112(21) 0.0897(4)
H16_2 H 0.2695 0.4358 0.0210
Fe1_4 Fe 0.5000 0.5000 1.0000
N1_2 N 0.56730(11) 0.51899(16) 0.9714(3)
N2_2 N 0.60146(11) 0.54659(16) 0.8942(3)
N5_2 N 0.77299(11) 0.62768(16) 0.7517(3)
C2_2 C 0.64125(14) 0.54659(21) 0.9302(3)
C8_2 C 0.68637(14) 0.57361(20) 0.8697(3)
C9_2 C 0.68815(14) 0.59628(20) 0.7694(4)
H5_2 H 0.6596 0.5937 0.7393
C10_2 C 0.73054(14) 0.62227(21) 0.7131(3)
H6_2 H 0.7305 0.6372 0.6442
C11_2 C 0.77138(14) 0.60556(20) 0.8495(3)
H7_2 H 0.8004 0.6086 0.8778
C12_2 C 0.72981(14) 0.57888(21) 0.9103(4)
H8_2 H 0.7305 0.5642 0.9790
Fe3_2 Fe 0.8333 0.6667 0.6667
N8 N 0.36537(12) 0.47925(18) 0.9743(3)
N9 N 0.48718(12) 0.53029(17) 0.8651(3)
N12_2 N 0.47864(12) 0.43966(20) 0.9150(3)
C13 C 0.41180(14) 0.49530(21) 0.9530(3)
C15 C 0.44205(14) 0.52487(20) 0.8599(3)
C16 C 0.42759(16) 0.54489(23) 0.7778(4)
H9 H 0.3959 0.5400 0.7780
C17 C 0.45975(17) 0.57219(25) 0.6949(4)
H10 H 0.4509 0.5866 0.6370
C18 C 0.50569(17) 0.57795(25) 0.6990(4)
H11 H 0.5287 0.5966 0.6432
C19 C 0.51775(15) 0.55700(22) 0.7825(3)
H12 H 0.5493 0.5614 0.7828
Fe1_5 Fe 0.5000 0.0000 1.0000
N1_3 N 0.48101(16) 0.04831(12) 0.9714(3)
N2_3 N 0.45341(16) 0.05487(12) 0.8942(3)
N5_3 N 0.37232(16) 0.14531(12) 0.7517(3)
C2_3 C 0.45341(21) 0.09466(15) 0.9302(3)
C8_3 C 0.42639(20) 0.11276(14) 0.8697(3)
C9_3 C 0.40372(20) 0.09187(14) 0.7694(4)
H5_3 H 0.4063 0.0659 0.7393
C10_3 C 0.37773(21) 0.10827(15) 0.7131(3)
H6_3 H 0.3628 0.0933 0.6442
C11_3 C 0.39444(20) 0.16582(14) 0.8495(3)
H7_3 H 0.3914 0.1918 0.8778
C12_3 C 0.42112(21) 0.15093(15) 0.9103(4)
H8_3 H 0.4358 0.1663 0.9790
Fe3_3 Fe 0.3333 0.1667 0.6667
N12_3 N 0.56034(20) 0.03899(16) 0.9150(3)
Fe1_6 Fe 0.5000 1.0000 -0.0000
Fe2_3 Fe 0.6667 0.8333 0.3333
N6_3 N 0.51899(16) 0.95169(12) 0.0286(3)
N7_3 N 0.54659(16) 0.94513(12) 0.1058(3)
N10_3 N 0.62768(16) 0.85469(12) 0.2483(3)
N11_3 N 0.43966(20) 0.96101(16) 0.0850(3)
C14_3 C 0.54659(21) 0.90534(15) 0.0698(3)
C20_3 C 0.57361(20) 0.88724(14) 0.1303(3)
C21_3 C 0.59628(20) 0.90813(14) 0.2306(4)
H13_3 H 0.5937 0.9341 0.2607
C22_3 C 0.62227(21) 0.89173(15) 0.2869(3)
H14_3 H 0.6372 0.9067 0.3558
C23_3 C 0.60556(20) 0.83418(14) 0.1505(3)
H15_3 H 0.6086 0.8082 0.1222
C24_3 C 0.57888(21) 0.84907(15) 0.0897(4)
H16_3 H 0.5642 0.8337 0.0210
N10_4 N 0.81198(12) 0.10632(11) 0.5816(3)
C20_4 C 0.77943(14) 0.01970(14) 0.4636(3)
C21_4 C 0.75854(14) 0.02148(14) 0.5639(4)
C22_4 C 0.77494(15) 0.06387(14) 0.6202(3)
H14_4 H 0.7600 0.0638 0.6891
C23_4 C 0.83249(14) 0.10471(14) 0.4838(3)
H15_4 H 0.8585 0.1337 0.4555
C24_4 C 0.81760(15) 0.06314(14) 0.4230(4)
H16_4 H 0.8330 0.0638 0.3543
N1_4 N 0.61836(12) 0.76603(11) 0.3047(3)
N2_4 N 0.61180(12) 0.73187(11) 0.2275(3)
N3_2 N 0.55279(13) 0.69870(12) 0.3590(3)
N4_2 N 0.62356(12) 0.82051(12) 0.4682(3)
C1_2 C 0.58317(15) 0.74513(14) 0.3803(3)
C2_4 C 0.57201(15) 0.69208(14) 0.2635(3)
C3_2 C 0.58385(14) 0.77538(14) 0.4734(3)
C4_2 C 0.54937(17) 0.76092(16) 0.5555(4)
H1_2 H 0.5226 0.7292 0.5553
C5_2 C 0.55423(18) 0.79308(17) 0.6384(4)
H2_2 H 0.5310 0.7842 0.6963
C6_2 C 0.59441(18) 0.83902(17) 0.6343(4)
H3_2 H 0.5988 0.8620 0.6901
C7_2 C 0.62742(16) 0.85108(15) 0.5508(3)
H4_2 H 0.6546 0.8826 0.5505
C8_4 C 0.55391(14) 0.64696(14) 0.2030(3)
C9_4 C 0.57480(14) 0.64518(14) 0.1027(4)
H5_4 H 0.6008 0.6737 0.0726
C10_4 C 0.55840(15) 0.60279(14) 0.0464(3)
C11_4 C 0.50085(14) 0.56195(14) 0.1828(3)
H7_4 H 0.4749 0.5329 0.2111
C12_4 C 0.51574(15) 0.60352(14) 0.2436(4)
H8_4 H 0.5004 0.6028 0.3123
N6_4 N 0.71498(12) 0.90063(11) 0.3619(3)
N7_4 N 0.72154(12) 0.93479(11) 0.4391(3)
N8_2 N 0.78055(13) 0.96796(12) 0.3076(3)
N9_2 N 0.70978(12) 0.84615(12) 0.1984(3)
N11_4 N 0.70565(16) 0.81198(12) 0.4184(3)
C13_2 C 0.75017(15) 0.92153(14) 0.2863(3)
C14_4 C 0.76133(15) 0.97458(14) 0.4031(3)
C15_2 C 0.74949(14) 0.89128(14) 0.1932(3)
C16_2 C 0.78397(17) 0.90574(16) 0.1111(4)
H9_2 H 0.8108 0.9374 0.1113
C17_2 C 0.77911(18) 0.87358(17) 0.0282(4)
C18_2 C 0.73893(18) 0.82764(17) 0.0323(4)
C19_2 C 0.70592(16) 0.81558(15) 0.1158(3)
H12_2 H 0.6788 0.7840 0.1161
H13_4 H 0.7326 0.9929 0.5940
H6_4 H 0.5734 0.6028 0.9775
H10_2 H 0.8024 0.8824 0.9703
H11_2 H 0.7346 0.8046 0.9765
N1_5 N 0.23397(11) 0.85232(16) 0.3047(3)
N2_5 N 0.26813(11) 0.87992(16) 0.2275(3)
N3_3 N 0.30130(12) 0.85408(18) 0.3590(3)
N4_3 N 0.17949(12) 0.80304(17) 0.4682(3)
C1_3 C 0.25487(14) 0.83803(21) 0.3803(3)
C2_5 C 0.30792(14) 0.87992(21) 0.2635(3)
C3_3 C 0.22462(14) 0.80846(20) 0.4734(3)
C4_3 C 0.23908(16) 0.78844(23) 0.5555(4)
H1_3 H 0.2708 0.7933 0.5553
C5_3 C 0.20692(17) 0.76114(25) 0.6384(4)
H2_3 H 0.2158 0.7467 0.6963
C6_3 C 0.16098(17) 0.75538(25) 0.6343(4)
H3_3 H 0.1380 0.7367 0.6901
C7_3 C 0.14892(15) 0.77633(22) 0.5508(3)
H4_3 H 0.1174 0.7719 0.5505
C8_5 C 0.35304(14) 0.90694(20) 0.2030(3)
C9_5 C 0.35482(14) 0.92961(20) 0.1027(4)
H5_5 H 0.3263 0.9270 0.0726
C10_5 C 0.39721(14) 0.95560(21) 0.0464(3)
C11_5 C 0.43805(14) 0.93889(20) 0.1828(3)
H7_5 H 0.4671 0.9419 0.2111
C12_5 C 0.39648(14) 0.91221(21) 0.2436(4)
H8_5 H 0.3972 0.8975 0.3123
N6_5 N 0.09937(11) 0.81434(16) 0.3619(3)
N7_5 N 0.06521(11) 0.78674(16) 0.4391(3)
N8_3 N 0.03204(12) 0.81258(18) 0.3076(3)
N9_3 N 0.15385(12) 0.86362(17) 0.1984(3)
N11_5 N 0.18802(12) 0.89368(20) 0.4184(3)
C13_3 C 0.07847(14) 0.82863(21) 0.2863(3)
C14_5 C 0.02542(14) 0.78674(21) 0.4031(3)
C15_3 C 0.10872(14) 0.85820(20) 0.1932(3)
C16_3 C 0.09426(16) 0.87822(23) 0.1111(4)
H9_3 H 0.0626 0.8733 0.1113
C17_3 C 0.12642(17) 0.90552(25) 0.0282(4)
C18_3 C 0.17236(17) 0.91128(25) 0.0323(4)
C19_3 C 0.18442(15) 0.89033(22) 0.1158(3)
H12_3 H 0.2160 0.8947 0.1161
H13_5 H 0.0071 0.7396 0.5940
N10_5 N 0.89368(11) 0.70565(16) 0.5816(3)
C20_5 C 0.98030(14) 0.75972(20) 0.4636(3)
C21_5 C 0.97852(14) 0.73705(20) 0.5639(4)
C22_5 C 0.93613(14) 0.71106(21) 0.6202(3)
H14_5 H 0.9362 0.6961 0.6891
C23_5 C 0.89529(14) 0.72777(20) 0.4838(3)
H15_5 H 0.8663 0.7247 0.4555
C24_5 C 0.93686(14) 0.75445(21) 0.4230(4)
H16_5 H 0.9362 0.7691 0.3543
N1_6 N 0.14768(16) 0.38164(12) 0.3047(3)
N2_6 N 0.12008(16) 0.38820(12) 0.2275(3)
N3_4 N 0.14592(18) 0.44721(13) 0.3590(3)
N4_4 N 0.19696(17) 0.37644(12) 0.4682(3)
C1_4 C 0.16197(21) 0.41683(15) 0.3803(3)
C2_6 C 0.12008(21) 0.42799(15) 0.2635(3)
C3_4 C 0.19154(20) 0.41615(14) 0.4734(3)
C4_4 C 0.21156(23) 0.45063(17) 0.5555(4)
H1_4 H 0.2067 0.4774 0.5553
C5_4 C 0.23886(25) 0.44577(18) 0.6384(4)
H2_4 H 0.2533 0.4690 0.6963
C6_4 C 0.24462(25) 0.40559(18) 0.6343(4)
H3_4 H 0.2633 0.4012 0.6901
C7_4 C 0.22367(22) 0.37258(16) 0.5508(3)
H4_4 H 0.2281 0.3454 0.5505
C8_6 C 0.09306(20) 0.44609(14) 0.2030(3)
C9_6 C 0.07039(20) 0.42520(14) 0.1027(4)
H5_6 H 0.0730 0.3992 0.0726
C10_6 C 0.04440(21) 0.44160(15) 0.0464(3)
C11_6 C 0.06111(20) 0.49915(14) 0.1828(3)
H7_6 H 0.0581 0.5251 0.2111
C12_6 C 0.08779(21) 0.48426(15) 0.2436(4)
H8_6 H 0.1025 0.4996 0.3123
N6_6 N 0.18566(16) 0.28502(12) 0.3619(3)
N7_6 N 0.21326(16) 0.27846(12) 0.4391(3)
N8_4 N 0.18742(18) 0.21945(13) 0.3076(3)
N9_4 N 0.13638(17) 0.29022(12) 0.1984(3)
N10_6 N 0.29435(16) 0.18802(12) 0.5816(3)
N11_6 N 0.10632(20) 0.29435(16) 0.4184(3)
C13_4 C 0.17137(21) 0.24983(15) 0.2863(3)
C14_6 C 0.21326(21) 0.23867(15) 0.4031(3)
C15_4 C 0.14180(20) 0.25051(14) 0.1932(3)
C16_4 C 0.12178(23) 0.21603(17) 0.1111(4)
H9_4 H 0.1267 0.1892 0.1113
C17_4 C 0.09448(25) 0.22089(18) 0.0282(4)
C18_4 C 0.08872(25) 0.26107(18) 0.0323(4)
C19_4 C 0.10967(22) 0.29408(16) 0.1158(3)
H12_4 H 0.1053 0.3212 0.1161
C20_6 C 0.24028(20) 0.22057(14) 0.4636(3)
C21_6 C 0.26295(20) 0.24146(14) 0.5639(4)
H13_6 H 0.2604 0.2674 0.5940
C22_6 C 0.28894(21) 0.22506(15) 0.6202(3)
H14_6 H 0.3039 0.2400 0.6891
C23_6 C 0.27223(20) 0.16751(14) 0.4838(3)
H15_6 H 0.2753 0.1415 0.4555
C24_6 C 0.24555(21) 0.18240(15) 0.4230(4)
H16_6 H 0.2309 0.1670 0.3543
H2_5 H 0.1976 0.1176 0.0297
H3_5 H 0.2654 0.1954 0.0235
H14_7 H 0.4266 0.3972 0.0225
N1_7 N 0.28502(12) 0.09937(11) 0.6381(3)
N2_7 N 0.27846(12) 0.06521(11) 0.5609(3)
N3_5 N 0.21945(13) 0.03204(12) 0.6924(3)
N4_5 N 0.29022(12) 0.15385(12) 0.8016(3)
C1_5 C 0.24983(15) 0.07847(14) 0.7137(3)
C2_7 C 0.23867(15) 0.02542(14) 0.5969(3)
C3_5 C 0.25051(14) 0.10872(14) 0.8068(3)
C4_5 C 0.21603(17) 0.09426(16) 0.8889(4)
H1_5 H 0.1892 0.0626 0.8887
C5_5 C 0.22089(18) 0.12642(17) 0.9718(4)
C6_5 C 0.26107(18) 0.17236(17) 0.9677(4)
C7_5 C 0.29408(16) 0.18442(15) 0.8842(3)
H4_5 H 0.3212 0.2160 0.8839
H5_7 H 0.2674 0.0071 0.4060
N6_7 N 0.38164(12) 0.23397(11) 0.6953(3)
N7_7 N 0.38820(12) 0.26813(11) 0.7725(3)
N8_5 N 0.44721(13) 0.30130(12) 0.6410(3)
N9_5 N 0.37644(12) 0.17949(12) 0.5318(3)
C13_5 C 0.41683(15) 0.25487(14) 0.6197(3)
C14_7 C 0.42799(15) 0.30792(14) 0.7365(3)
C15_5 C 0.41615(14) 0.22462(14) 0.5266(3)
C16_5 C 0.45063(17) 0.23908(16) 0.4445(4)
H9_5 H 0.4774 0.2708 0.4447
C17_5 C 0.44577(18) 0.20692(17) 0.3616(4)
H10_3 H 0.4690 0.2158 0.3037
C18_5 C 0.40559(18) 0.16098(17) 0.3657(4)
H11_3 H 0.4012 0.1380 0.3099
C19_5 C 0.37258(16) 0.14892(15) 0.4492(3)
H12_5 H 0.3454 0.1174 0.4495
C20_7 C 0.44609(14) 0.35304(14) 0.7970(3)
C21_7 C 0.42520(14) 0.35482(14) 0.8973(4)
H13_7 H 0.3992 0.3263 0.9274
C22_7 C 0.44160(15) 0.39721(14) 0.9536(3)
C23_7 C 0.49915(14) 0.43805(14) 0.8172(3)
H15_7 H 0.5251 0.4671 0.7889
C24_7 C 0.48426(15) 0.39648(14) 0.7564(4)
H16_7 H 0.4996 0.3972 0.6877
C8_7 C 0.22057(14) 0.98030(14) 0.5364(3)
C9_7 C 0.24146(14) 0.97852(14) 0.4361(4)
C10_7 C 0.22506(15) 0.93613(14) 0.3798(3)
H6_5 H 0.2400 0.9362 0.3109
C11_7 C 0.16751(14) 0.89529(14) 0.5162(3)
H7_7 H 0.1415 0.8663 0.5445
C12_7 C 0.18240(15) 0.93686(14) 0.5770(4)
H8_7 H 0.1670 0.9362 0.6457
C8_8 C 0.01970(14) 0.24028(20) 0.5364(3)
C9_8 C 0.02148(14) 0.26295(20) 0.4361(4)
C10_8 C 0.06387(14) 0.28894(21) 0.3798(3)
H6_6 H 0.0638 0.3039 0.3109
C11_8 C 0.10471(14) 0.27223(20) 0.5162(3)
H7_8 H 0.1337 0.2753 0.5445
C12_8 C 0.06314(14) 0.24555(21) 0.5770(4)
H8_8 H 0.0638 0.2309 0.6457
N1_8 N 0.90063(11) 0.18566(16) 0.6381(3)
N2_8 N 0.93479(11) 0.21326(16) 0.5609(3)
N3_6 N 0.96796(12) 0.18742(18) 0.6924(3)
N4_6 N 0.84615(12) 0.13638(17) 0.8016(3)
C1_6 C 0.92153(14) 0.17137(21) 0.7137(3)
C2_8 C 0.97458(14) 0.21326(21) 0.5969(3)
C3_6 C 0.89128(14) 0.14180(20) 0.8068(3)
C4_6 C 0.90574(16) 0.12178(23) 0.8889(4)
H1_6 H 0.9374 0.1267 0.8887
C5_6 C 0.87358(17) 0.09448(25) 0.9718(4)
C6_6 C 0.82764(17) 0.08872(25) 0.9677(4)
C7_6 C 0.81558(15) 0.10967(22) 0.8842(3)
H4_6 H 0.7840 0.1053 0.8839
H5_8 H 0.9929 0.2604 0.4060
N6_8 N 0.76603(11) 0.14768(16) 0.6953(3)
N7_8 N 0.73187(11) 0.12008(16) 0.7725(3)
N8_6 N 0.69870(12) 0.14592(18) 0.6410(3)
N9_6 N 0.82051(12) 0.19696(17) 0.5318(3)
C13_6 C 0.74513(14) 0.16197(21) 0.6197(3)
C14_8 C 0.69208(14) 0.12008(21) 0.7365(3)
C15_6 C 0.77538(14) 0.19154(20) 0.5266(3)
C16_6 C 0.76092(16) 0.21156(23) 0.4445(4)
H9_6 H 0.7292 0.2067 0.4447
C17_6 C 0.79308(17) 0.23886(25) 0.3616(4)
H10_4 H 0.7842 0.2533 0.3037
C18_6 C 0.83902(17) 0.24462(25) 0.3657(4)
H11_4 H 0.8620 0.2633 0.3099
C19_6 C 0.85108(15) 0.22367(22) 0.4492(3)
H12_6 H 0.8826 0.2281 0.4495
C20_8 C 0.64696(14) 0.09306(20) 0.7970(3)
C21_8 C 0.64518(14) 0.07039(20) 0.8973(4)
H13_8 H 0.6737 0.0730 0.9274
C22_8 C 0.60279(14) 0.04440(21) 0.9536(3)
C23_8 C 0.56195(14) 0.06111(20) 0.8172(3)
H15_8 H 0.5329 0.0581 0.7889
C24_8 C 0.60352(14) 0.08779(21) 0.7564(4)
H16_8 H 0.6028 0.1025 0.6877
N1_9 N 0.81434(16) 0.71498(12) 0.6381(3)
N2_9 N 0.78674(16) 0.72154(12) 0.5609(3)
N3_7 N 0.81258(18) 0.78055(13) 0.6924(3)
N4_7 N 0.86362(17) 0.70978(12) 0.8016(3)
C1_7 C 0.82863(21) 0.75017(15) 0.7137(3)
C2_9 C 0.78674(21) 0.76133(15) 0.5969(3)
C3_7 C 0.85820(20) 0.74949(14) 0.8068(3)
C4_7 C 0.87822(23) 0.78397(17) 0.8889(4)
H1_7 H 0.8733 0.8108 0.8887
C5_7 C 0.90552(25) 0.77911(18) 0.9718(4)
C6_7 C 0.91128(25) 0.73893(18) 0.9677(4)
C7_7 C 0.89033(22) 0.70592(16) 0.8842(3)
H4_7 H 0.8947 0.6788 0.8839
C8_9 C 0.75972(20) 0.77943(14) 0.5364(3)
C9_9 C 0.73705(20) 0.75854(14) 0.4361(4)
H5_9 H 0.7396 0.7326 0.4060
C10_9 C 0.71106(21) 0.77494(15) 0.3798(3)
H6_7 H 0.6961 0.7600 0.3109
C11_9 C 0.72777(20) 0.83249(14) 0.5162(3)
H7_9 H 0.7247 0.8585 0.5445
C12_9 C 0.75445(21) 0.81760(15) 0.5770(4)
H8_9 H 0.7691 0.8330 0.6457
N6_9 N 0.85232(16) 0.61836(12) 0.6953(3)
N7_9 N 0.87992(16) 0.61180(12) 0.7725(3)
N8_7 N 0.85408(18) 0.55279(13) 0.6410(3)
N9_7 N 0.80304(17) 0.62356(12) 0.5318(3)
C13_7 C 0.83803(21) 0.58317(15) 0.6197(3)
C14_9 C 0.87992(21) 0.57201(15) 0.7365(3)
C15_7 C 0.80846(20) 0.58385(14) 0.5266(3)
C16_7 C 0.78844(23) 0.54937(17) 0.4445(4)
H9_7 H 0.7933 0.5226 0.4447
C17_7 C 0.76114(25) 0.55423(18) 0.3616(4)
H10_5 H 0.7467 0.5310 0.3037
C18_7 C 0.75538(25) 0.59441(18) 0.3657(4)
H11_5 H 0.7367 0.5988 0.3099
C19_7 C 0.77633(22) 0.62742(16) 0.4492(3)
H12_7 H 0.7719 0.6546 0.4495
C20_9 C 0.90694(20) 0.55391(14) 0.7970(3)
C21_9 C 0.92961(20) 0.57480(14) 0.8973(4)
H13_9 H 0.9270 0.6008 0.9274
C22_9 C 0.95560(21) 0.55840(15) 0.9536(3)
C23_9 C 0.93889(20) 0.50085(14) 0.8172(3)
H15_9 H 0.9419 0.4749 0.7889
C24_9 C 0.91221(21) 0.51574(15) 0.7564(4)
H16_9 H 0.8975 0.5004 0.6877
Fe1_7 Fe -0.0000 0.5000 1.0000
N8_8 N 0.11388(13) 0.63463(12) 0.9743(3)
N9_8 N 0.04311(12) 0.51282(12) 0.8651(3)
C13_8 C 0.08350(15) 0.58820(14) 0.9530(3)
C15_8 C 0.08282(14) 0.55795(14) 0.8599(3)
C16_8 C 0.11730(17) 0.57241(16) 0.7778(4)
H9_8 H 0.1441 0.6041 0.7780
C17_8 C 0.11244(18) 0.54025(17) 0.6949(4)
H10_6 H 0.1357 0.5491 0.6370
C18_8 C 0.07226(18) 0.49431(17) 0.6990(4)
H11_6 H 0.0679 0.4713 0.6432
C19_8 C 0.03925(16) 0.48225(15) 0.7825(3)
H12_8 H 0.0121 0.4507 0.7828
H6_8 H 0.0295 0.4266 0.9775
H10_7 H 0.0801 0.1976 0.9703
H11_7 H 0.0701 0.2654 0.9765
Fe1_8 Fe 1.0000 0.5000 -0.0000
N3_8 N 0.88612(13) 0.36537(12) 0.0257(3)
N4_8 N 0.95689(12) 0.48718(12) 0.1349(3)
C1_8 C 0.91650(15) 0.41180(14) 0.0470(3)
C3_8 C 0.91718(14) 0.44205(14) 0.1401(3)
C4_8 C 0.88270(17) 0.42759(16) 0.2222(4)
H1_8 H 0.8559 0.3959 0.2220
C5_8 C 0.88756(18) 0.45975(17) 0.3051(4)
H2_6 H 0.8643 0.4509 0.3630
C6_8 C 0.92774(18) 0.50569(17) 0.3010(4)
H3_6 H 0.9321 0.5287 0.3568
C7_8 C 0.96075(16) 0.51775(15) 0.2175(3)
H4_8 H 0.9879 0.5493 0.2172
H2_7 H 0.9199 0.8024 0.0297
H3_7 H 0.9299 0.7346 0.0235
H14_8 H 0.9705 0.5734 0.0225
Fe1_9 Fe 0.5000 0.0000 -0.0000
N3_9 N 0.47925(18) 0.11388(13) 0.0257(3)
N4_9 N 0.53029(17) 0.04311(12) 0.1349(3)
C1_9 C 0.49530(21) 0.08350(15) 0.0470(3)
C3_9 C 0.52487(20) 0.08282(14) 0.1401(3)
C4_9 C 0.54489(23) 0.11730(17) 0.2222(4)
H1_9 H 0.5400 0.1441 0.2220
C5_9 C 0.57219(25) 0.11244(18) 0.3051(4)
H2_8 H 0.5866 0.1357 0.3630
C6_9 C 0.57795(25) 0.07226(18) 0.3010(4)
H3_8 H 0.5966 0.0679 0.3568
C7_9 C 0.55700(22) 0.03925(16) 0.2175(3)
H4_9 H 0.5614 0.0121 0.2172
H2_9 H 0.8824 0.0801 0.0297
H3_9 H 0.8046 0.0701 0.0235
H14_9 H 0.6028 0.0295 0.0225
Fe1_10 Fe 0.5000 1.0000 1.0000
N8_9 N 0.52075(18) 0.88612(13) 0.9743(3)
N9_9 N 0.46971(17) 0.95689(12) 0.8651(3)
C13_9 C 0.50470(21) 0.91650(15) 0.9530(3)
C15_9 C 0.47513(20) 0.91718(14) 0.8599(3)
C16_9 C 0.45511(23) 0.88270(17) 0.7778(4)
H9_9 H 0.4600 0.8559 0.7780
C17_9 C 0.42781(25) 0.88756(18) 0.6949(4)
H10_8 H 0.4134 0.8643 0.6370
C18_9 C 0.42205(25) 0.92774(18) 0.6990(4)
H11_8 H 0.4034 0.9321 0.6432
C19_9 C 0.44300(22) 0.96075(16) 0.7825(3)
H12_9 H 0.4386 0.9879 0.7828
H6_9 H 0.3972 0.9705 0.9775
H10_9 H 0.1176 0.9199 0.9703
H11_9 H 0.1954 0.9299 0.9765
loop_
_geom_bond_atom_site_label_1
_geom_bond_atom_site_label_2
_geom_bond_site_symmetry_1
_geom_bond_site_symmetry_2
Fe2 N10 1_555 1_555
N6 Fe1 1_555 1_555
N7 N6 1_555 1_555
N10 C22 1_555 1_555
N11 Fe1 1_555 1_555
C14 N7 1_555 1_555
C20 C14 1_555 1_555
C21 C20 1_555 1_555
H13 C21 1_555 1_555
C22 C21 1_555 1_555
H14 C22 1_555 1_555
C23 N10 1_555 1_555
H15 C23 1_555 1_555
C24 C20 1_555 1_555
H16 C24 1_555 1_555
C23 C24 1_555 1_555
Fe1_2 N1 1_555 1_555
N1 N2 1_555 1_555
N2 C2 1_555 1_555
N5 C10 1_555 1_555
C8 C2 1_555 1_555
C9 C8 1_555 1_555
H5 C9 1_555 1_555
C10 C9 1_555 1_555
H6 C10 1_555 1_555
C11 N5 1_555 1_555
H7 C11 1_555 1_555
C12 C8 1_555 1_555
H8 C12 1_555 1_555
Fe3 N5 1_555 1_555
N12 Fe1_2 1_555 1_555
C11 C12 1_555 1_555
N3 C1 1_555 1_555
N4 Fe1_3 1_555 1_555
C3 N4 1_555 1_555
C4 C3 1_555 1_555
H1 C4 1_555 1_555
C5 C4 1_555 1_555
H2 C5 1_555 1_555
C6 C5 1_555 1_555
H3 C6 1_555 1_555
C7 N4 1_555 1_555
H4 C7 1_555 1_555
Fe2_2 N10_2 1_555 1_555
N6_2 Fe1_3 1_555 1_555
N7_2 N6_2 1_555 1_555
N10_2 C22_2 1_555 1_555
N11_2 Fe1_3 1_555 1_555
C14_2 N7_2 1_555 1_555
C20_2 C14_2 1_555 1_555
C21_2 C20_2 1_555 1_555
H13_2 C21_2 1_555 1_555
C22_2 C21_2 1_555 1_555
H14_2 C22_2 1_555 1_555
C23_2 N10_2 1_555 1_555
H15_2 C23_2 1_555 1_555
C24_2 C20_2 1_555 1_555
H16_2 C24_2 1_555 1_555
C1 C3 1_555 1_555
C6 C7 1_555 1_555
C23_2 C24_2 1_555 1_555
Fe1_4 N1_2 1_555 1_555
N1_2 N2_2 1_555 1_555
N2_2 C2_2 1_555 1_555
N5_2 C10_2 1_555 1_555
C8_2 C2_2 1_555 1_555
C9_2 C8_2 1_555 1_555
H5_2 C9_2 1_555 1_555
C10_2 C9_2 1_555 1_555
H6_2 C10_2 1_555 1_555
C11_2 N5_2 1_555 1_555
H7_2 C11_2 1_555 1_555
C12_2 C8_2 1_555 1_555
H8_2 C12_2 1_555 1_555
Fe3_2 N5_2 1_555 1_555
N8 C13 1_555 1_555
N9 Fe1_4 1_555 1_555
N12_2 Fe1_4 1_555 1_555
C15 N9 1_555 1_555
C16 C15 1_555 1_555
H9 C16 1_555 1_555
C17 C16 1_555 1_555
H10 C17 1_555 1_555
C18 C17 1_555 1_555
H11 C18 1_555 1_555
C19 N9 1_555 1_555
H12 C19 1_555 1_555
C11_2 C12_2 1_555 1_555
C13 C15 1_555 1_555
C18 C19 1_555 1_555
Fe1_5 N1_3 1_555 1_555
N1_3 N2_3 1_555 1_555
N2_3 C2_3 1_555 1_555
N5_3 C10_3 1_555 1_555
C8_3 C2_3 1_555 1_555
C9_3 C8_3 1_555 1_555
H5_3 C9_3 1_555 1_555
C10_3 C9_3 1_555 1_555
H6_3 C10_3 1_555 1_555
C11_3 N5_3 1_555 1_555
H7_3 C11_3 1_555 1_555
C12_3 C8_3 1_555 1_555
H8_3 C12_3 1_555 1_555
Fe3_3 N5_3 1_555 1_555
N12_3 Fe1_5 1_555 1_555
C11_3 C12_3 1_555 1_555
Fe2_3 N10_3 1_555 1_555
N6_3 Fe1_6 1_555 1_555
N7_3 N6_3 1_555 1_555
N10_3 C22_3 1_555 1_555
N11_3 Fe1_6 1_555 1_555
C14_3 N7_3 1_555 1_555
C20_3 C14_3 1_555 1_555
C21_3 C20_3 1_555 1_555
H13_3 C21_3 1_555 1_555
C22_3 C21_3 1_555 1_555
H14_3 C22_3 1_555 1_555
C23_3 N10_3 1_555 1_555
H15_3 C23_3 1_555 1_555
C24_3 C20_3 1_555 1_555
H16_3 C24_3 1_555 1_555
C23_3 C24_3 1_555 1_555
Fe3 N10_4 1_555 1_555
N10_4 C22_4 1_555 1_555
C21_4 C20_4 1_555 1_555
C22_4 C21_4 1_555 1_555
H14_4 C22_4 1_555 1_555
C23_4 N10_4 1_555 1_555
H15_4 C23_4 1_555 1_555
C24_4 C20_4 1_555 1_555
H16_4 C24_4 1_555 1_555
C23_4 C24_4 1_555 1_555
Fe2_3 N1_4 1_555 1_555
N1_4 N2_4 1_555 1_555
N2_4 C2_4 1_555 1_555
N3_2 C1_2 1_555 1_555
N4_2 Fe2_3 1_555 1_555
N11_2 C10_4 1_555 1_555
C1_2 N1_4 1_555 1_555
C2_4 N3_2 1_555 1_555
C3_2 N4_2 1_555 1_555
C4_2 C3_2 1_555 1_555
H1_2 C4_2 1_555 1_555
C5_2 C4_2 1_555 1_555
H2_2 C5_2 1_555 1_555
C6_2 C5_2 1_555 1_555
H3_2 C6_2 1_555 1_555
C7_2 N4_2 1_555 1_555
H4_2 C7_2 1_555 1_555
C8_4 C2_4 1_555 1_555
C9_4 C8_4 1_555 1_555
H5_4 C9_4 1_555 1_555
C10_4 C9_4 1_555 1_555
C11_4 N11_2 1_555 1_555
H7_4 C11_4 1_555 1_555
C12_4 C8_4 1_555 1_555
H8_4 C12_4 1_555 1_555
N6_4 Fe2_3 1_555 1_555
N7_4 N6_4 1_555 1_555
N8_2 C13_2 1_555 1_555
N9_2 Fe2_3 1_555 1_555
N11_4 Fe2_3 1_555 1_555
C13_2 N6_4 1_555 1_555
C14_4 N7_4 1_555 1_555
C15_2 N9_2 1_555 1_555
C16_2 C15_2 1_555 1_555
H9_2 C16_2 1_555 1_555
C17_2 C16_2 1_555 1_555
C18_2 C17_2 1_555 1_555
C19_2 N9_2 1_555 1_555
H12_2 C19_2 1_555 1_555
C1_2 C3_2 1_555 1_555
C6_2 C7_2 1_555 1_555
C11_4 C12_4 1_555 1_555
N8_2 C14_4 1_555 1_555
C13_2 C15_2 1_555 1_555
C18_2 C19_2 1_555 1_555
Fe2 N1_5 1_555 1_555
N1_5 N2_5 1_555 1_555
N2_5 C2_5 1_555 1_555
N3_3 C1_3 1_555 1_555
N4_3 Fe2 1_555 1_555
N11_3 C10_5 1_555 1_555
C1_3 N1_5 1_555 1_555
C2_5 N3_3 1_555 1_555
C3_3 N4_3 1_555 1_555
C4_3 C3_3 1_555 1_555
H1_3 C4_3 1_555 1_555
C5_3 C4_3 1_555 1_555
H2_3 C5_3 1_555 1_555
C6_3 C5_3 1_555 1_555
H3_3 C6_3 1_555 1_555
C7_3 N4_3 1_555 1_555
H4_3 C7_3 1_555 1_555
C8_5 C2_5 1_555 1_555
C9_5 C8_5 1_555 1_555
H5_5 C9_5 1_555 1_555
C10_5 C9_5 1_555 1_555
C11_5 N11_3 1_555 1_555
H7_5 C11_5 1_555 1_555
C12_5 C8_5 1_555 1_555
H8_5 C12_5 1_555 1_555
N6_5 Fe2 1_555 1_555
N7_5 N6_5 1_555 1_555
N8_3 C13_3 1_555 1_555
N9_3 Fe2 1_555 1_555
N11_5 Fe2 1_555 1_555
C13_3 N6_5 1_555 1_555
C14_5 N7_5 1_555 1_555
C15_3 N9_3 1_555 1_555
C16_3 C15_3 1_555 1_555
H9_3 C16_3 1_555 1_555
C17_3 C16_3 1_555 1_555
C18_3 C17_3 1_555 1_555
C19_3 N9_3 1_555 1_555
H12_3 C19_3 1_555 1_555
C1_3 C3_3 1_555 1_555
C6_3 C7_3 1_555 1_555
C11_5 C12_5 1_555 1_555
N8_3 C14_5 1_555 1_555
C13_3 C15_3 1_555 1_555
C18_3 C19_3 1_555 1_555
Fe3_2 N10_5 1_555 1_555
N10_5 C22_5 1_555 1_555
C21_5 C20_5 1_555 1_555
C22_5 C21_5 1_555 1_555
H14_5 C22_5 1_555 1_555
C23_5 N10_5 1_555 1_555
H15_5 C23_5 1_555 1_555
C24_5 C20_5 1_555 1_555
H16_5 C24_5 1_555 1_555
C23_5 C24_5 1_555 1_555
Fe2_2 N1_6 1_555 1_555
N1_6 N2_6 1_555 1_555
N2_6 C2_6 1_555 1_555
N3_4 C1_4 1_555 1_555
N4_4 Fe2_2 1_555 1_555
N11 C10_6 1_555 1_555
C1_4 N1_6 1_555 1_555
C2_6 N3_4 1_555 1_555
C3_4 N4_4 1_555 1_555
C4_4 C3_4 1_555 1_555
H1_4 C4_4 1_555 1_555
C5_4 C4_4 1_555 1_555
H2_4 C5_4 1_555 1_555
C6_4 C5_4 1_555 1_555
H3_4 C6_4 1_555 1_555
C7_4 N4_4 1_555 1_555
H4_4 C7_4 1_555 1_555
C8_6 C2_6 1_555 1_555
C9_6 C8_6 1_555 1_555
H5_6 C9_6 1_555 1_555
C10_6 C9_6 1_555 1_555
C11_6 N11 1_555 1_555
H7_6 C11_6 1_555 1_555
C12_6 C8_6 1_555 1_555
H8_6 C12_6 1_555 1_555
Fe3_3 N10_6 1_555 1_555
N6_6 Fe2_2 1_555 1_555
N7_6 N6_6 1_555 1_555
N8_4 C13_4 1_555 1_555
N9_4 Fe2_2 1_555 1_555
N10_6 C22_6 1_555 1_555
N11_6 Fe2_2 1_555 1_555
C13_4 N6_6 1_555 1_555
C14_6 N7_6 1_555 1_555
C15_4 N9_4 1_555 1_555
C16_4 C15_4 1_555 1_555
H9_4 C16_4 1_555 1_555
C17_4 C16_4 1_555 1_555
C18_4 C17_4 1_555 1_555
C19_4 N9_4 1_555 1_555
H12_4 C19_4 1_555 1_555
C20_6 C14_6 1_555 1_555
C21_6 C20_6 1_555 1_555
H13_6 C21_6 1_555 1_555
C22_6 C21_6 1_555 1_555
H14_6 C22_6 1_555 1_555
C23_6 N10_6 1_555 1_555
H15_6 C23_6 1_555 1_555
C24_6 C20_6 1_555 1_555
H16_6 C24_6 1_555 1_555
C1_4 C3_4 1_555 1_555
C6_4 C7_4 1_555 1_555
C11_6 C12_6 1_555 1_555
N8_4 C14_6 1_555 1_555
C13_4 C15_4 1_555 1_555
C18_4 C19_4 1_555 1_555
C23_6 C24_6 1_555 1_555
Fe3_3 N1_7 1_555 1_555
N1_7 N2_7 1_555 1_555
N2_7 C2_7 1_555 1_555
N3_5 C1_5 1_555 1_555
N4_5 Fe3_3 1_555 1_555
C1_5 N1_7 1_555 1_555
C2_7 N3_5 1_555 1_555
C3_5 N4_5 1_555 1_555
C4_5 C3_5 1_555 1_555
H1_5 C4_5 1_555 1_555
C5_5 C4_5 1_555 1_555
C6_5 C5_5 1_555 1_555
C7_5 N4_5 1_555 1_555
H4_5 C7_5 1_555 1_555
N6_7 Fe3_3 1_555 1_555
N7_7 N6_7 1_555 1_555
N8_5 C13_5 1_555 1_555
N9_5 Fe3_3 1_555 1_555
N12_2 C22_7 1_555 1_555
C13_5 N6_7 1_555 1_555
C14_7 N7_7 1_555 1_555
C15_5 N9_5 1_555 1_555
C16_5 C15_5 1_555 1_555
H9_5 C16_5 1_555 1_555
C17_5 C16_5 1_555 1_555
H10_3 C17_5 1_555 1_555
C18_5 C17_5 1_555 1_555
H11_3 C18_5 1_555 1_555
C19_5 N9_5 1_555 1_555
H12_5 C19_5 1_555 1_555
C20_7 C14_7 1_555 1_555
C21_7 C20_7 1_555 1_555
H13_7 C21_7 1_555 1_555
C22_7 C21_7 1_555 1_555
C23_7 N12_2 1_555 1_555
H15_7 C23_7 1_555 1_555
C24_7 C20_7 1_555 1_555
H16_7 C24_7 1_555 1_555
C1_5 C3_5 1_555 1_555
C6_5 C7_5 1_555 1_555
N8_5 C14_7 1_555 1_555
C13_5 C15_5 1_555 1_555
C18_5 C19_5 1_555 1_555
C23_7 C24_7 1_555 1_555
N11_5 C10_7 1_555 1_555
C9_7 C8_7 1_555 1_555
C10_7 C9_7 1_555 1_555
H6_5 C10_7 1_555 1_555
C11_7 N11_5 1_555 1_555
H7_7 C11_7 1_555 1_555
C12_7 C8_7 1_555 1_555
H8_7 C12_7 1_555 1_555
C11_7 C12_7 1_555 1_555
N11_6 C10_8 1_555 1_555
C9_8 C8_8 1_555 1_555
C10_8 C9_8 1_555 1_555
H6_6 C10_8 1_555 1_555
C11_8 N11_6 1_555 1_555
H7_8 C11_8 1_555 1_555
C12_8 C8_8 1_555 1_555
H8_8 C12_8 1_555 1_555
C11_8 C12_8 1_555 1_555
Fe3 N1_8 1_555 1_555
N1_8 N2_8 1_555 1_555
N2_8 C2_8 1_555 1_555
N3_6 C1_6 1_555 1_555
N4_6 Fe3 1_555 1_555
C1_6 N1_8 1_555 1_555
C2_8 N3_6 1_555 1_555
C3_6 N4_6 1_555 1_555
C4_6 C3_6 1_555 1_555
H1_6 C4_6 1_555 1_555
C5_6 C4_6 1_555 1_555
C6_6 C5_6 1_555 1_555
C7_6 N4_6 1_555 1_555
H4_6 C7_6 1_555 1_555
N6_8 Fe3 1_555 1_555
N7_8 N6_8 1_555 1_555
N8_6 C13_6 1_555 1_555
N9_6 Fe3 1_555 1_555
N12_3 C22_8 1_555 1_555
C13_6 N6_8 1_555 1_555
C14_8 N7_8 1_555 1_555
C15_6 N9_6 1_555 1_555
C16_6 C15_6 1_555 1_555
H9_6 C16_6 1_555 1_555
C17_6 C16_6 1_555 1_555
H10_4 C17_6 1_555 1_555
C18_6 C17_6 1_555 1_555
H11_4 C18_6 1_555 1_555
C19_6 N9_6 1_555 1_555
H12_6 C19_6 1_555 1_555
C20_8 C14_8 1_555 1_555
C21_8 C20_8 1_555 1_555
H13_8 C21_8 1_555 1_555
C22_8 C21_8 1_555 1_555
C23_8 N12_3 1_555 1_555
H15_8 C23_8 1_555 1_555
C24_8 C20_8 1_555 1_555
H16_8 C24_8 1_555 1_555
C1_6 C3_6 1_555 1_555
C6_6 C7_6 1_555 1_555
N8_6 C14_8 1_555 1_555
C13_6 C15_6 1_555 1_555
C18_6 C19_6 1_555 1_555
C23_8 C24_8 1_555 1_555
Fe3_2 N1_9 1_555 1_555
N1_9 N2_9 1_555 1_555
N2_9 C2_9 1_555 1_555
N3_7 C1_7 1_555 1_555
N4_7 Fe3_2 1_555 1_555
N11_4 C10_9 1_555 1_555
C1_7 N1_9 1_555 1_555
C2_9 N3_7 1_555 1_555
C3_7 N4_7 1_555 1_555
C4_7 C3_7 1_555 1_555
H1_7 C4_7 1_555 1_555
C5_7 C4_7 1_555 1_555
C6_7 C5_7 1_555 1_555
C7_7 N4_7 1_555 1_555
H4_7 C7_7 1_555 1_555
C8_9 C2_9 1_555 1_555
C9_9 C8_9 1_555 1_555
H5_9 C9_9 1_555 1_555
C10_9 C9_9 1_555 1_555
H6_7 C10_9 1_555 1_555
C11_9 N11_4 1_555 1_555
H7_9 C11_9 1_555 1_555
C12_9 C8_9 1_555 1_555
H8_9 C12_9 1_555 1_555
N6_9 Fe3_2 1_555 1_555
N7_9 N6_9 1_555 1_555
N8_7 C13_7 1_555 1_555
N9_7 Fe3_2 1_555 1_555
N12 C22_9 1_555 1_555
C13_7 N6_9 1_555 1_555
C14_9 N7_9 1_555 1_555
C15_7 N9_7 1_555 1_555
C16_7 C15_7 1_555 1_555
H9_7 C16_7 1_555 1_555
C17_7 C16_7 1_555 1_555
H10_5 C17_7 1_555 1_555
C18_7 C17_7 1_555 1_555
H11_5 C18_7 1_555 1_555
C19_7 N9_7 1_555 1_555
H12_7 C19_7 1_555 1_555
C20_9 C14_9 1_555 1_555
C21_9 C20_9 1_555 1_555
H13_9 C21_9 1_555 1_555
C22_9 C21_9 1_555 1_555
C23_9 N12 1_555 1_555
H15_9 C23_9 1_555 1_555
C24_9 C20_9 1_555 1_555
H16_9 C24_9 1_555 1_555
C1_7 C3_7 1_555 1_555
C6_7 C7_7 1_555 1_555
C11_9 C12_9 1_555 1_555
N8_7 C14_9 1_555 1_555
C13_7 C15_7 1_555 1_555
C18_7 C19_7 1_555 1_555
C23_9 C24_9 1_555 1_555
N8_8 C13_8 1_555 1_555
N9_8 Fe1_7 1_555 1_555
C15_8 N9_8 1_555 1_555
C16_8 C15_8 1_555 1_555
H9_8 C16_8 1_555 1_555
C17_8 C16_8 1_555 1_555
H10_6 C17_8 1_555 1_555
C18_8 C17_8 1_555 1_555
H11_6 C18_8 1_555 1_555
C19_8 N9_8 1_555 1_555
H12_8 C19_8 1_555 1_555
C13_8 C15_8 1_555 1_555
C18_8 C19_8 1_555 1_555
N3_8 C1_8 1_555 1_555
N4_8 Fe1_8 1_555 1_555
C3_8 N4_8 1_555 1_555
C4_8 C3_8 1_555 1_555
H1_8 C4_8 1_555 1_555
C5_8 C4_8 1_555 1_555
H2_6 C5_8 1_555 1_555
C6_8 C5_8 1_555 1_555
H3_6 C6_8 1_555 1_555
C7_8 N4_8 1_555 1_555
H4_8 C7_8 1_555 1_555
C1_8 C3_8 1_555 1_555
C6_8 C7_8 1_555 1_555
N3_9 C1_9 1_555 1_555
N4_9 Fe1_9 1_555 1_555
C3_9 N4_9 1_555 1_555
C4_9 C3_9 1_555 1_555
H1_9 C4_9 1_555 1_555
C5_9 C4_9 1_555 1_555
H2_8 C5_9 1_555 1_555
C6_9 C5_9 1_555 1_555
H3_8 C6_9 1_555 1_555
C7_9 N4_9 1_555 1_555
H4_9 C7_9 1_555 1_555
C1_9 C3_9 1_555 1_555
C6_9 C7_9 1_555 1_555
N8_9 C13_9 1_555 1_555
N9_9 Fe1_10 1_555 1_555
C15_9 N9_9 1_555 1_555
C16_9 C15_9 1_555 1_555
H9_9 C16_9 1_555 1_555
C17_9 C16_9 1_555 1_555
H10_8 C17_9 1_555 1_555
C18_9 C17_9 1_555 1_555
H11_8 C18_9 1_555 1_555
C19_9 N9_9 1_555 1_555
H12_9 C19_9 1_555 1_555
C13_9 C15_9 1_555 1_555
C18_9 C19_9 1_555 1_555

#END
