
###############################################################################
#
# This file contains modified crystal structure data generated from the
# MOF subset of the Cambridge Structural Database (CSD) v543 
# hosted by the Cambridge Crystallographic Data Centre (CCDC).
#
# This work is licensed under the Creative Commons
# Attribution-NonCommercial-ShareAlike 4.0 International License.
# To view a copy of this license, visit
# http://creativecommons.org/licenses/by-nc-sa/4.0/
# or send a letter to
# Creative Commons, PO Box 1866, Mountain View, CA 94042, USA.
#
# CIF created using the CSD Python API on 29 September 2022
# The structure has been converted into the P1 space group
# The structure has a 3D framework
# The original CSD entry BUWGEG is in the monoclinic crystal system
# The framework has been calculated to contain at least 10.0% void space
# The void calculation uses a probe of radius 1.32A, grid spacing 0.4
#
###############################################################################

data_BUWGEG
_chemical_formula_moiety         '(C48 H24 Cu4 N20 O15)n'
_symmetry_cell_setting           triclinic
_symmetry_space_group_name_H-M   'P 1'
_symmetry_Int_Tables_number      1
_space_group_name_Hall           'P 1'
loop_
_symmetry_equiv_pos_site_id
_symmetry_equiv_pos_as_xyz
1 x,y,z
_cell_length_a                   4.651(2)
_cell_length_b                   34.683(4)
_cell_length_c                   10.812(1)
_cell_angle_alpha                90
_cell_angle_beta                 95.80(2)
_cell_angle_gamma                90
_cell_volume                     1735.16
loop_
_atom_site_label
_atom_site_type_symbol
_atom_site_fract_x
_atom_site_fract_y
_atom_site_fract_z
_atom_site_U_iso_or_equiv
_atom_site_thermal_displace_type
Cu5 Cu 0.08395 0.80205 0.11471 2.5640 Uiso
C20 C 0.03187 0.87785 0.11663 2.0000 Uiso
H9 H 0.0533 0.9381 0.1334 1.0000 Uiso
H10 H 0.1898 0.8745 0.1793 1.0000 Uiso
C9 C 0.38438 0.14497 0.00157 2.0000 Uiso
C10 C 0.49757 0.10795 0.00588 2.0000 Uiso
N5 N 0.5279 0.02319 0.1001 2.0000 Uiso
H5 H 0.4934 0.1663 0.031 1.0000 Uiso
H6 H 0.6953 0.104 0.0425 1.0000 Uiso
O10 O 0.12249 0.22919 0.01264 2.0000 Uiso
O11 O 0.12249 0.27081 0.51264 2.0000 Uiso
N9 N 0.11641 0.3487 0.44685 2.0000 Uiso
H7 H 0.0504 0.2207 0.4302 1.0000 Uiso
C7 C 0.06033 0.08326 0.90149 2.0000 Uiso
N3 N 0.11641 0.1513 0.94685 2.0000 Uiso
C11 C 0.32346 0.0775 0.97385 2.0000 Uiso
C12 C 0.44092 0.03678 0.98731 2.0000 Uiso
N4 N 0.44835 0.01438 0.88598 2.0000 Uiso
H1 H 0.0504 0.2793 0.9302 1.0000 Uiso
C19 C 0.93967 0.91674 0.09851 2.0000 Uiso
N8 N 0.88359 0.8487 0.05315 2.0000 Uiso
C23 C 0.67654 0.9225 0.02615 2.0000 Uiso
C24 C 0.55908 0.96322 0.01269 2.0000 Uiso
N10 N 0.55165 0.98562 0.11402 2.0000 Uiso
C21 C 0.61562 0.85503 0.99843 2.0000 Uiso
C22 C 0.50243 0.89205 0.99412 2.0000 Uiso
N11 N 0.4721 0.97681 0.8999 2.0000 Uiso
H11 H 0.5066 0.8337 0.969 1.0000 Uiso
H12 H 0.3047 0.896 0.9575 1.0000 Uiso
Cu2 Cu 0.91605 0.30205 0.38529 2.5640 Uiso
O5 O 0.68291 0.31022 0.22015 2.0000 Uiso
C13 C 0.5708 0.28981 0.13233 2.0000 Uiso
O6 O 0.49513 0.30065 0.02551 2.0000 Uiso
C14 C 0.6602 0.25085 0.19669 2.0000 Uiso
N6 N 0.81472 0.25225 0.30618 2.0000 Uiso
C15 C 0.91119 0.21893 0.36186 2.0000 Uiso
C16 C 0.81301 0.18435 0.30664 2.0000 Uiso
N7 N 0.6549 0.18272 0.19965 2.0000 Uiso
C17 C 0.56732 0.21564 0.14376 2.0000 Uiso
C18 C 0.37398 0.21379 0.02126 2.0000 Uiso
O8 O 0.45077 0.30329 0.43632 2.0000 Uiso
H8 H 0.8564 0.1608 0.3543 1.0000 Uiso
Cu1 Cu 0.91605 0.19795 0.88529 2.5640 Uiso
O1 O 0.68291 0.18978 0.72015 2.0000 Uiso
C1 C 0.5708 0.21019 0.63233 2.0000 Uiso
O2 O 0.49513 0.19935 0.52551 2.0000 Uiso
C2 C 0.6602 0.24915 0.69669 2.0000 Uiso
N1 N 0.81472 0.24775 0.80618 2.0000 Uiso
C3 C 0.91119 0.28107 0.86186 2.0000 Uiso
C4 C 0.81301 0.31565 0.80664 2.0000 Uiso
N2 N 0.6549 0.31728 0.69965 2.0000 Uiso
C5 C 0.56732 0.28436 0.64376 2.0000 Uiso
C6 C 0.37398 0.28621 0.52126 2.0000 Uiso
C8 C 0.96813 0.12215 0.88337 2.0000 Uiso
H2 H 0.8564 0.3392 0.8543 1.0000 Uiso
H3 H 0.9467 0.0619 0.8666 1.0000 Uiso
H4 H 0.8102 0.1255 0.8207 1.0000 Uiso
O7 O 0.45077 0.19671 0.93632 2.0000 Uiso
Cu6 Cu 0.08395 0.69795 0.61471 2.5640 Uiso
O3 O 0.54923 0.80329 0.06368 2.0000 Uiso
O1_2 O 0.31709 0.68978 0.77985 2.0000 Uiso
C1_2 C 0.4292 0.71019 0.86767 2.0000 Uiso
O2_2 O 0.50487 0.69935 0.97449 2.0000 Uiso
C2_2 C 0.3398 0.74915 0.80331 2.0000 Uiso
N1_2 N 0.18528 0.74775 0.69382 2.0000 Uiso
C3_2 C 0.08881 0.78107 0.63814 2.0000 Uiso
C4_2 C 0.18699 0.81565 0.69336 2.0000 Uiso
N2_2 N 0.3451 0.81728 0.80035 2.0000 Uiso
C5_2 C 0.43268 0.78436 0.85624 2.0000 Uiso
C6_2 C 0.62602 0.78621 0.97874 2.0000 Uiso
O4 O 0.87751 0.77081 0.98736 2.0000 Uiso
C8_2 C 0.03187 0.62215 0.61663 2.0000 Uiso
H2_2 H 0.1436 0.8392 0.6457 1.0000 Uiso
H3_2 H 0.0533 0.5619 0.6334 1.0000 Uiso
H4_2 H 0.1898 0.6255 0.6793 1.0000 Uiso
O5_2 O 0.31709 0.81022 0.27985 2.0000 Uiso
C13_2 C 0.4292 0.78981 0.36767 2.0000 Uiso
O6_2 O 0.50487 0.80065 0.47449 2.0000 Uiso
C14_2 C 0.3398 0.75085 0.30331 2.0000 Uiso
N6_2 N 0.18528 0.75225 0.19382 2.0000 Uiso
C15_2 C 0.08881 0.71893 0.13814 2.0000 Uiso
C16_2 C 0.18699 0.68435 0.19336 2.0000 Uiso
N7_2 N 0.3451 0.68272 0.30035 2.0000 Uiso
C17_2 C 0.43268 0.71564 0.35624 2.0000 Uiso
C18_2 C 0.62602 0.71379 0.47874 2.0000 Uiso
O7_2 O 0.54923 0.69671 0.56368 2.0000 Uiso
O9 O 0.87751 0.72919 0.48736 2.0000 Uiso
H8_2 H 0.1436 0.6608 0.1457 1.0000 Uiso
C7_2 C 0.93967 0.58326 0.59851 2.0000 Uiso
N3_2 N 0.88359 0.6513 0.55315 2.0000 Uiso
C9_2 C 0.61562 0.64497 0.49843 2.0000 Uiso
C10_2 C 0.50243 0.60795 0.49412 2.0000 Uiso
C11_2 C 0.67654 0.5775 0.52615 2.0000 Uiso
C12_2 C 0.55908 0.53678 0.51269 2.0000 Uiso
N4_2 N 0.55165 0.51438 0.61402 2.0000 Uiso
N5_2 N 0.4721 0.52319 0.3999 2.0000 Uiso
H1_2 H 0.9496 0.7793 0.5698 1.0000 Uiso
H5_2 H 0.5066 0.6663 0.469 1.0000 Uiso
H6_2 H 0.3047 0.604 0.4575 1.0000 Uiso
C19_2 C 0.06033 0.41674 0.40149 2.0000 Uiso
C21_2 C 0.38438 0.35503 0.50157 2.0000 Uiso
C22_2 C 0.49757 0.39205 0.50588 2.0000 Uiso
C23_2 C 0.32346 0.4225 0.47385 2.0000 Uiso
C24_2 C 0.44092 0.46322 0.48731 2.0000 Uiso
N10_2 N 0.44835 0.48562 0.38598 2.0000 Uiso
N11_2 N 0.5279 0.47681 0.6001 2.0000 Uiso
H7_2 H 0.9496 0.7207 0.0698 1.0000 Uiso
H11_2 H 0.4934 0.3337 0.531 1.0000 Uiso
H12_2 H 0.6953 0.396 0.5425 1.0000 Uiso
C20_2 C 0.96813 0.37785 0.38337 2.0000 Uiso
H9_2 H 0.9467 0.4381 0.3666 1.0000 Uiso
H10_2 H 0.8102 0.3745 0.3207 1.0000 Uiso
loop_
_geom_bond_atom_site_label_1
_geom_bond_atom_site_label_2
_geom_bond_site_symmetry_1
_geom_bond_site_symmetry_2
H10 C20 1_555 1_555
C10 C9 1_555 1_555
H5 C9 1_555 1_555
H6 C10 1_555 1_555
C11 C7 1_555 1_555
C12 C11 1_555 1_555
N4 C12 1_555 1_555
C23 C19 1_555 1_555
C24 C23 1_555 1_555
C24 N10 1_555 1_555
C21 C22 1_555 1_555
H11 C21 1_555 1_555
H12 C22 1_555 1_555
Cu2 O5 1_555 1_555
O5 C13 1_555 1_555
C13 O6 1_555 1_555
C14 C13 1_555 1_555
N6 Cu2 1_555 1_555
C15 N6 1_555 1_555
C16 C15 1_555 1_555
N7 C16 1_555 1_555
C17 C14 1_555 1_555
C18 C17 1_555 1_555
O8 Cu2 1_555 1_555
O10 C18 1_555 1_555
H8 C16 1_555 1_555
C14 N6 1_555 1_555
N7 C17 1_555 1_555
Cu1 O1 1_555 1_555
O1 C1 1_555 1_555
C1 O2 1_555 1_555
C2 C1 1_555 1_555
N1 Cu1 1_555 1_555
C3 N1 1_555 1_555
C4 C3 1_555 1_555
N2 C4 1_555 1_555
C5 C2 1_555 1_555
C6 C5 1_555 1_555
O8 C6 1_555 1_555
O11 C6 1_555 1_555
H2 C4 1_555 1_555
H4 C8 1_555 1_555
O7 Cu1 1_555 1_555
C2 N1 1_555 1_555
N2 C5 1_555 1_555
Cu5 O3 1_555 1_555
Cu6 O1_2 1_555 1_555
O1_2 C1_2 1_555 1_555
C1_2 O2_2 1_555 1_555
C2_2 C1_2 1_555 1_555
N1_2 Cu6 1_555 1_555
C3_2 N1_2 1_555 1_555
C4_2 C3_2 1_555 1_555
N2_2 C4_2 1_555 1_555
C5_2 C2_2 1_555 1_555
C6_2 C5_2 1_555 1_555
O4 C6_2 1_555 1_555
H2_2 C4_2 1_555 1_555
H4_2 C8_2 1_555 1_555
Cu5 O5_2 1_555 1_555
O5_2 C13_2 1_555 1_555
C13_2 O6_2 1_555 1_555
C14_2 C13_2 1_555 1_555
N6_2 Cu5 1_555 1_555
C15_2 N6_2 1_555 1_555
C16_2 C15_2 1_555 1_555
N7_2 C16_2 1_555 1_555
C17_2 C14_2 1_555 1_555
C18_2 C17_2 1_555 1_555
O7_2 Cu6 1_555 1_555
O9 C18_2 1_555 1_555
H8_2 C16_2 1_555 1_555
C2_2 N1_2 1_555 1_555
N2_2 C5_2 1_555 1_555
C14_2 N6_2 1_555 1_555
N7_2 C17_2 1_555 1_555
C18_2 O7_2 1_555 1_555
C9_2 N3_2 1_555 1_555
C10_2 C9_2 1_555 1_555
C11_2 C7_2 1_555 1_555
C12_2 C11_2 1_555 1_555
N4_2 C12_2 1_555 1_555
N5_2 C12_2 1_555 1_555
H5_2 C9_2 1_555 1_555
H6_2 C10_2 1_555 1_555
N9 C21_2 1_555 1_555
C21_2 C22_2 1_555 1_555
C22_2 C23_2 1_555 1_555
C23_2 C19_2 1_555 1_555
C24_2 C23_2 1_555 1_555
N10_2 N5_2 1_555 1_555
N11_2 N4_2 1_555 1_555
H11_2 C21_2 1_555 1_555
H12_2 C22_2 1_555 1_555
C10_2 C11_2 1_555 1_555
C24_2 N10_2 1_555 1_555
C24_2 N11_2 1_555 1_555
H10_2 C20_2 1_555 1_555

#END
