
###############################################################################
#
# This file contains modified crystal structure data generated from the
# MOF subset of the Cambridge Structural Database (CSD) v543 
# hosted by the Cambridge Crystallographic Data Centre (CCDC).
#
# This work is licensed under the Creative Commons
# Attribution-NonCommercial-ShareAlike 4.0 International License.
# To view a copy of this license, visit
# http://creativecommons.org/licenses/by-nc-sa/4.0/
# or send a letter to
# Creative Commons, PO Box 1866, Mountain View, CA 94042, USA.
#
# CIF created using the CSD Python API on 29 September 2022
# The structure has been converted into the P1 space group
# The structure has a 3D framework
# The original CSD entry BUWGAC is in the monoclinic crystal system
# The framework has been calculated to contain at least 10.0% void space
# The void calculation uses a probe of radius 1.32A, grid spacing 0.4
#
###############################################################################

data_BUWGAC
_chemical_formula_moiety         '(C44 H24 Cu4 N12 O13)n'
_symmetry_cell_setting           triclinic
_symmetry_space_group_name_H-M   'P 1'
_symmetry_Int_Tables_number      1
_space_group_name_Hall           'P 1'
loop_
_symmetry_equiv_pos_site_id
_symmetry_equiv_pos_as_xyz
1 x,y,z
_cell_length_a                   4.7160(3)
_cell_length_b                   27.833(2)
_cell_length_c                   10.8881(7)
_cell_angle_alpha                90
_cell_angle_beta                 96.103(7)
_cell_angle_gamma                90
_cell_volume                     1421.08
loop_
_atom_site_label
_atom_site_type_symbol
_atom_site_fract_x
_atom_site_fract_y
_atom_site_fract_z
_atom_site_U_iso_or_equiv
_atom_site_thermal_displace_type
Cu3 Cu 0.38898 0.31124 0.0792 0.0025 Uiso
O3 O 0.18968 0.29247 0.94162 0.0031 Uiso
O4 O 0.80318 0.30367 0.03272 0.0031 Uiso
Cu1 Cu 0.38898 0.18876 0.5792 0.0025 Uiso
O1 O 0.5478 0.17082 0.75158 0.0031 Uiso
O2 O 0.84697 0.19469 0.90949 0.0031 Uiso
N1 N 0.4762 0.2534 0.6522 0.0031 Uiso
N2 N 0.6895 0.3353 0.764 0.0031 Uiso
N3 N 0.25998 0.12026 0.54083 0.0031 Uiso
C1 C 0.6814 0.2008 0.8167 0.0031 Uiso
C2 C 0.6404 0.2515 0.763 0.0031 Uiso
C3 C 0.4154 0.2962 0.5978 0.0031 Uiso
C4 C 0.5254 0.3368 0.6582 0.0031 Uiso
C5 C 0.7511 0.2927 0.8193 0.0031 Uiso
C6 C 0.9268 0.2966 0.9413 0.0031 Uiso
C7 C 0.08577 0.10097 0.62469 0.0031 Uiso
C8 C 0.29936 0.0956 0.43356 0.0031 Uiso
C9 C 0.19071 0.04779 0.41519 0.0031 Uiso
C11 C 0.03535 0.02677 0.50371 0.0031 Uiso
H1 H 0.037 0.1194 0.6921 0.0204 Uiso
H2 H 0.402 0.1095 0.3691 0.0204 Uiso
H3 H 0.224 0.0291 0.3437 0.0204 Uiso
H5 H 0.301 0.298 0.52 0.0204 Uiso
H6 H 0.481 0.37 0.622 0.0204 Uiso
O7 O 0.18968 0.20753 0.44162 0.0031 Uiso
O10 O 0.80318 0.19633 0.53272 0.0031 Uiso
C21 C 0.02683 0.9464 0.39359 0.0031 Uiso
H10 H 0.148 0.9595 0.3386 0.0204 Uiso
C10 C 0.97317 0.0536 0.60641 0.0031 Uiso
H4 H 0.852 0.0405 0.6614 0.0204 Uiso
O5 O 0.5478 0.32918 0.25158 0.0031 Uiso
O6 O 0.84697 0.30531 0.40949 0.0031 Uiso
N4 N 0.4762 0.2466 0.1522 0.0031 Uiso
N5 N 0.6895 0.1647 0.264 0.0031 Uiso
N7 N 0.25998 0.37974 0.04083 0.0031 Uiso
C12 C 0.6814 0.2992 0.3167 0.0031 Uiso
C13 C 0.6404 0.2485 0.263 0.0031 Uiso
C14 C 0.4154 0.2038 0.0978 0.0031 Uiso
C15 C 0.5254 0.1632 0.1582 0.0031 Uiso
C16 C 0.7511 0.2073 0.3193 0.0031 Uiso
C17 C 0.9268 0.2034 0.4413 0.0031 Uiso
H11 H 0.301 0.202 0.02 0.0204 Uiso
H12 H 0.481 0.13 0.122 0.0204 Uiso
Cu5 Cu 0.61102 0.81124 0.4208 0.0025 Uiso
N6 N 0.74002 0.87974 0.45917 0.0031 Uiso
C18 C 0.91423 0.89903 0.37531 0.0031 Uiso
C19 C 0.70064 0.9044 0.56644 0.0031 Uiso
C20 C 0.80929 0.95221 0.58481 0.0031 Uiso
C22 C 0.96465 0.97323 0.49629 0.0031 Uiso
H7 H 0.963 0.8806 0.3079 0.0204 Uiso
H8 H 0.598 0.8905 0.6309 0.0204 Uiso
H9 H 0.776 0.9709 0.6563 0.0204 Uiso
O5_2 O 0.4522 0.82918 0.24842 0.0031 Uiso
O6_2 O 0.15303 0.80531 0.09051 0.0031 Uiso
O8 O 0.81032 0.79247 0.55838 0.0031 Uiso
O11 O 0.19682 0.80367 0.46728 0.0031 Uiso
N4_2 N 0.5238 0.7466 0.3478 0.0031 Uiso
N5_2 N 0.3105 0.6647 0.236 0.0031 Uiso
C12_2 C 0.3186 0.7992 0.1833 0.0031 Uiso
C13_2 C 0.3596 0.7485 0.237 0.0031 Uiso
C14_2 C 0.5846 0.7038 0.4022 0.0031 Uiso
C15_2 C 0.4746 0.6632 0.3418 0.0031 Uiso
C16_2 C 0.2489 0.7073 0.1807 0.0031 Uiso
C17_2 C 0.0732 0.7034 0.0587 0.0031 Uiso
C18_2 C 0.08577 0.39903 0.12469 0.0031 Uiso
C22_2 C 0.03535 0.47323 0.00371 0.0031 Uiso
H7_2 H 0.037 0.3806 0.1921 0.0204 Uiso
H11_2 H 0.699 0.702 0.48 0.0204 Uiso
H12_2 H 0.519 0.63 0.378 0.0204 Uiso
C10_2 C 0.02683 0.5536 0.89359 0.0031 Uiso
H4_2 H 0.148 0.5405 0.8386 0.0204 Uiso
Cu6 Cu 0.61102 0.68876 0.9208 0.0025 Uiso
O9 O 0.19682 0.69633 0.96728 0.0031 Uiso
C19_2 C 0.29936 0.4044 0.93356 0.0031 Uiso
C20_2 C 0.19071 0.45221 0.91519 0.0031 Uiso
H8_2 H 0.402 0.3905 0.8691 0.0204 Uiso
H9_2 H 0.224 0.4709 0.8437 0.0204 Uiso
C8_2 C 0.70064 0.5956 0.06644 0.0031 Uiso
C9_2 C 0.80929 0.54779 0.08481 0.0031 Uiso
H2_2 H 0.598 0.6095 0.1309 0.0204 Uiso
H3_2 H 0.776 0.5291 0.1563 0.0204 Uiso
O7_2 O 0.81032 0.70753 0.05838 0.0031 Uiso
C21_2 C 0.97317 0.4464 0.10641 0.0031 Uiso
H10_2 H 0.852 0.4595 0.1614 0.0204 Uiso
O1_2 O 0.4522 0.67082 0.74842 0.0031 Uiso
O2_2 O 0.15303 0.69469 0.59051 0.0031 Uiso
N1_2 N 0.5238 0.7534 0.8478 0.0031 Uiso
N2_2 N 0.3105 0.8353 0.736 0.0031 Uiso
N3_2 N 0.74002 0.62026 0.95917 0.0031 Uiso
C1_2 C 0.3186 0.7008 0.6833 0.0031 Uiso
C2_2 C 0.3596 0.7515 0.737 0.0031 Uiso
C3_2 C 0.5846 0.7962 0.9022 0.0031 Uiso
C4_2 C 0.4746 0.8368 0.8418 0.0031 Uiso
C5_2 C 0.2489 0.7927 0.6807 0.0031 Uiso
C6_2 C 0.0732 0.7966 0.5587 0.0031 Uiso
C7_2 C 0.91423 0.60097 0.87531 0.0031 Uiso
C11_2 C 0.96465 0.52677 0.99629 0.0031 Uiso
H1_2 H 0.963 0.6194 0.8079 0.0204 Uiso
H5_2 H 0.699 0.798 0.98 0.0204 Uiso
H6_2 H 0.519 0.87 0.878 0.0204 Uiso
loop_
_geom_bond_atom_site_label_1
_geom_bond_atom_site_label_2
_geom_bond_site_symmetry_1
_geom_bond_site_symmetry_2
Cu3 O4 1_555 1_555
Cu1 O1 1_555 1_555
O1 C1 1_555 1_555
O2 C1 1_555 1_555
N1 Cu1 1_555 1_555
N2 C4 1_555 1_555
N3 Cu1 1_555 1_555
C1 C2 1_555 1_555
C2 N1 1_555 1_555
C3 N1 1_555 1_555
C4 C3 1_555 1_555
C5 N2 1_555 1_555
C6 C5 1_555 1_555
C7 N3 1_555 1_555
C8 N3 1_555 1_555
C9 C8 1_555 1_555
C11 C9 1_555 1_555
H1 C7 1_555 1_555
H2 C8 1_555 1_555
H3 C9 1_555 1_555
H5 C3 1_555 1_555
H6 C4 1_555 1_555
O7 Cu1 1_555 1_555
O10 Cu1 1_555 1_555
C2 C5 1_555 1_555
H10 C21 1_555 1_555
H4 C10 1_555 1_555
Cu3 O5 1_555 1_555
O5 C12 1_555 1_555
O6 C12 1_555 1_555
O10 C17 1_555 1_555
N4 Cu3 1_555 1_555
N5 C15 1_555 1_555
N7 Cu3 1_555 1_555
C12 C13 1_555 1_555
C13 N4 1_555 1_555
C14 N4 1_555 1_555
C15 C14 1_555 1_555
C16 N5 1_555 1_555
H11 C14 1_555 1_555
H12 C15 1_555 1_555
C13 C16 1_555 1_555
C16 C17 1_555 1_555
Cu5 N6 1_555 1_555
N6 C18 1_555 1_555
C19 N6 1_555 1_555
C20 C19 1_555 1_555
H7 C18 1_555 1_555
H8 C19 1_555 1_555
H9 C20 1_555 1_555
C20 C22 1_555 1_555
Cu5 O5_2 1_555 1_555
O5_2 C12_2 1_555 1_555
O6_2 C12_2 1_555 1_555
O8 Cu5 1_555 1_555
O11 Cu5 1_555 1_555
N4_2 Cu5 1_555 1_555
N5_2 C15_2 1_555 1_555
N7 C18_2 1_555 1_555
C12_2 C13_2 1_555 1_555
C13_2 N4_2 1_555 1_555
C14_2 N4_2 1_555 1_555
C15_2 C14_2 1_555 1_555
C16_2 N5_2 1_555 1_555
H7_2 C18_2 1_555 1_555
H11_2 C14_2 1_555 1_555
H12_2 C15_2 1_555 1_555
C13_2 C16_2 1_555 1_555
C16_2 C17_2 1_555 1_555
H4_2 C10_2 1_555 1_555
Cu6 O9 1_555 1_555
C20_2 C19_2 1_555 1_555
H8_2 C19_2 1_555 1_555
H9_2 C20_2 1_555 1_555
C9_2 C8_2 1_555 1_555
H2_2 C8_2 1_555 1_555
H3_2 C9_2 1_555 1_555
H10_2 C21_2 1_555 1_555
Cu6 O1_2 1_555 1_555
O1_2 C1_2 1_555 1_555
O2_2 C1_2 1_555 1_555
O11 C6_2 1_555 1_555
N1_2 Cu6 1_555 1_555
N2_2 C4_2 1_555 1_555
N3_2 Cu6 1_555 1_555
C1_2 C2_2 1_555 1_555
C2_2 N1_2 1_555 1_555
C3_2 N1_2 1_555 1_555
C4_2 C3_2 1_555 1_555
C5_2 N2_2 1_555 1_555
C6_2 C5_2 1_555 1_555
C7_2 N3_2 1_555 1_555
H1_2 C7_2 1_555 1_555
H5_2 C3_2 1_555 1_555
H6_2 C4_2 1_555 1_555
C2_2 C5_2 1_555 1_555

#END
