
###############################################################################
#
# This file contains modified crystal structure data generated from the
# MOF subset of the Cambridge Structural Database (CSD) v543 
# hosted by the Cambridge Crystallographic Data Centre (CCDC).
#
# This work is licensed under the Creative Commons
# Attribution-NonCommercial-ShareAlike 4.0 International License.
# To view a copy of this license, visit
# http://creativecommons.org/licenses/by-nc-sa/4.0/
# or send a letter to
# Creative Commons, PO Box 1866, Mountain View, CA 94042, USA.
#
# CIF created using the CSD Python API on 29 September 2022
# The structure has been converted into the P1 space group
# The structure has a 3D framework
# The original CSD entry BUWLUC is in the monoclinic crystal system
# The original CSD entry BUWLUC is in a Sohncke space group
# The framework has been calculated to contain at least 10.0% void space
# The void calculation uses a probe of radius 1.32A, grid spacing 0.4
# The framework is charged, counterions have been retained in the structure
# H atom positions have been added when not included in the experimental data
#
###############################################################################

data_BUWLUC
_chemical_formula_moiety         '(C81 H93 Fe4 N37 O65 Pr13 5+)n'
_symmetry_cell_setting           triclinic
_symmetry_space_group_name_H-M   'P 1'
_symmetry_Int_Tables_number      1
_space_group_name_Hall           'P 1'
loop_
_symmetry_equiv_pos_site_id
_symmetry_equiv_pos_as_xyz
1 x,y,z
_cell_length_a                   13.976(3)
_cell_length_b                   13.976(3)
_cell_length_c                   17.531(4)
_cell_angle_alpha                90
_cell_angle_beta                 90.00(3)
_cell_angle_gamma                90
_cell_volume                     3424.31
loop_
_atom_site_label
_atom_site_type_symbol
_atom_site_fract_x
_atom_site_fract_y
_atom_site_fract_z
C8 C 0.3816(4) 0.0666(5) 0.4005(4)
C9 C 0.4445(4) 0.1278(5) 0.4517(4)
C10 C 0.4437(5) 0.2273(5) 0.4480(4)
H4 H 0.4066 0.2590 0.4119
C11 C 0.5000 0.2788(8) 0.5000
H5 H 0.5000 0.3453 0.5000
N2 N 0.5000 0.0778(6) 0.5000
O7 O 0.3281(3) 0.1113(5) 0.3550(3)
C16 C 0.6184(4) 0.0666(5) 0.5995(4)
C17 C 0.5555(4) 0.1278(5) 0.5483(4)
C18 C 0.5563(5) 0.2273(5) 0.5520(4)
H17 H 0.5934 0.2590 0.5881
O18 O 0.6719(3) 0.1113(5) 0.6450(3)
Pr5 Pr 0.78526(2) 0.10751(3) 0.749799(17)
Pr6 Pr 0.21474(2) 0.10751(3) 0.250201(17)
Pr1 Pr 0.28526(2) 0.60751(3) 0.249799(17)
Pr2 Pr 0.5000 0.89265(3) 0.5000
Pr3 Pr 0.0000 0.82225(3) 0.5000
C1 C 0.4590(4) 0.7246(5) 0.3505(4)
C2 C 0.5202(4) 0.6623(5) 0.2989(4)
C3 C 0.6193(4) 0.6640(5) 0.3027(4)
H1 H 0.6513 0.7011 0.3386
C4 C 0.6686(4) 0.6074(7) 0.2503(4)
H2 H 0.7352 0.6079 0.2498
C5 C 0.6194(4) 0.5509(5) 0.1993(4)
H3 H 0.6516 0.5130 0.1641
C6 C 0.5208(4) 0.5522(5) 0.2021(4)
C7 C 0.4597(5) 0.4895(5) 0.1506(4)
C12 C 0.0000 0.4398(9) 0.5000
H6 H 0.0000 0.3733 0.5000
C13 C 0.0562(5) 0.4880(5) 0.4483(4)
H7 H 0.0933 0.4553 0.4128
C14 C 0.0553(4) 0.5870(5) 0.4511(4)
C15 C 0.1174(4) 0.6491(5) 0.3998(4)
H8 H 0.309(5) 0.459(6) 0.369(5)
H9 H 0.145(6) 0.413(10) 0.227(7)
H10 H 0.352(10) 0.665(4) 0.137(9)
H11 H 0.180(6) 0.767(8) 0.3045(14)
H13 H 0.657(6) 0.790(7) 0.5540(13)
H14 H 0.315(5) 0.763(5) 0.134(5)
H15 H 0.147(7) 0.780(14) 0.231(8)
H16 H 0.676(6) 0.7429(17) 0.509(6)
N1 N 0.4712(3) 0.6067(5) 0.2500(3)
N3 N 0.0000 0.6374(6) 0.5000
O1 O 0.3686(3) 0.7181(4) 0.3418(3)
O2 O 0.5024(4) 0.7778(5) 0.3960(3)
O3 O 0.3700(3) 0.4959(4) 0.1582(3)
O4 O 0.5041(4) 0.4351(5) 0.1048(3)
O5 O 0.3516(4) 0.4935(5) 0.3504(3)
O6 O 0.1920(5) 0.4442(5) 0.2409(4)
O8 O 0.3526(4) 0.7215(6) 0.1502(4)
O9 O 0.1707(4) 0.6045(5) 0.3541(3)
O10 O 0.1940(5) 0.7700(5) 0.2584(4)
O11 O 0.1629(4) 0.9144(5) 0.4905(3)
O12 O 0.1111(4) 0.7385(4) 0.4075(3)
O14 O 0.3888(4) 0.9775(4) 0.4080(3)
O15 O 0.6127(4) 0.9581(5) 0.3988(3)
O16 O 0.6633(4) 0.8008(5) 0.5076(4)
O17 O 0.6112(4) 0.9775(4) 0.5920(3)
H26 H 0.115(11) 0.804(7) 0.627(7)
O30 O 0.1142(4) 0.7557(5) 0.5997(4)
H29 H 0.343(6) 0.790(7) 0.4460(13)
H30 H 0.324(6) 0.7429(17) 0.491(6)
O31 O 0.3367(4) 0.8008(5) 0.4924(4)
O32 O 0.3873(4) 0.9581(5) 0.6012(3)
Pr9 Pr 0.5000 0.32225(3) 0.0000
O33 O 0.4976(4) 0.7778(5) 0.6040(3)
O34 O 0.0041(4) 0.9351(5) 0.6048(3)
O37 O 0.1719(3) 0.6113(5) 0.1450(3)
H31 H 0.381356 0.531631 0.391891
H32 H 0.189779 0.428648 0.296141
H33 H 0.195654 0.896866 0.442218
H34 H 0.150644 0.98438 0.491215
H36 H 0.662754 0.997871 0.423514
H37 H 0.64337 0.904118 0.371259
H40 H 0.17811 0.740061 0.578323
H43 H 0.337246 0.997871 0.576486
H44 H 0.35663 0.904118 0.628741
Pr9_2 Pr 0.5000 0.32225(3) 1.0000
Pr3_2 Pr 1.0000 0.82225(3) 0.5000
C12_2 C 1.0000 0.4398(9) 0.5000
H6_2 H 1.0000 0.3733 0.5000
H12 H 0.885(11) 0.804(7) 0.373(7)
N3_2 N 1.0000 0.6374(6) 0.5000
O13 O 0.8858(4) 0.7557(5) 0.4003(4)
C19 C 0.9438(5) 0.4880(5) 0.5517(4)
H18 H 0.9067 0.4553 0.5872
C20 C 0.9447(4) 0.5870(5) 0.5489(4)
C21 C 0.8826(4) 0.6491(5) 0.6002(4)
O19 O 0.8293(4) 0.6045(5) 0.6459(3)
O20 O 0.8889(4) 0.7385(4) 0.5925(3)
Pr4 Pr 0.71474(2) 0.60751(3) 0.750201(17)
C22 C 0.5410(4) 0.7246(5) 0.6495(4)
C23 C 0.4798(4) 0.6623(5) 0.7011(4)
C24 C 0.3807(4) 0.6640(5) 0.6973(4)
H19 H 0.3487 0.7011 0.6614
C25 C 0.3314(4) 0.6074(7) 0.7497(4)
H20 H 0.2648 0.6079 0.7502
C26 C 0.3806(4) 0.5509(5) 0.8007(4)
H21 H 0.3484 0.5130 0.8359
C27 C 0.4792(4) 0.5522(5) 0.7979(4)
C28 C 0.5403(5) 0.4895(5) 0.8494(4)
H22 H 0.691(5) 0.459(6) 0.631(5)
H23 H 0.855(6) 0.413(10) 0.773(7)
H24 H 0.648(10) 0.665(4) 0.863(9)
H25 H 0.820(6) 0.767(8) 0.6955(14)
H27 H 0.685(5) 0.763(5) 0.866(5)
H28 H 0.853(7) 0.780(14) 0.769(8)
N4 N 0.5288(3) 0.6067(5) 0.7500(3)
O21 O 0.6314(3) 0.7181(4) 0.6582(3)
O23 O 0.6300(3) 0.4959(4) 0.8418(3)
O24 O 0.4959(4) 0.4351(5) 0.8952(3)
O25 O 0.6484(4) 0.4935(5) 0.6496(3)
O26 O 0.8080(5) 0.4442(5) 0.7591(4)
O27 O 0.6474(4) 0.7215(6) 0.8498(4)
O28 O 0.8060(5) 0.7700(5) 0.7416(4)
O29 O 0.8371(4) 0.9144(5) 0.5095(3)
O35 O 0.9959(4) 0.9351(5) 0.3952(3)
O36 O 0.8281(3) 0.6113(5) 0.8550(3)
H35 H 0.82189 0.740061 0.421677
H38 H 0.810221 0.428648 0.703859
H39 H 0.618644 0.531631 0.608109
H41 H 0.804346 0.896866 0.557782
H42 H 0.849356 0.98438 0.508785
Pr2_2 Pr 0.0000 0.39265(3) -0.0000
C11_2 C -0.0000 0.7788(8) -0.0000
H5_2 H -0.0000 0.8453 -0.0000
H13_2 H 0.157(6) 0.290(7) 0.0540(13)
H16_2 H 0.176(6) 0.2429(17) 0.009(6)
N2_2 N -0.0000 0.5778(6) -0.0000
O16_2 O 0.1633(4) 0.3008(5) 0.0076(4)
C16_2 C 0.1184(4) 0.5666(5) 0.0995(4)
C17_2 C 0.0555(4) 0.6278(5) 0.0483(4)
C18_2 C 0.0563(5) 0.7273(5) 0.0520(4)
H17_2 H 0.0934 0.7590 0.0881
O17_2 O 0.1112(4) 0.4775(4) 0.0920(3)
Pr2_3 Pr 0.0000 0.39265(3) 1.0000
C2_2 C 0.0202(4) 0.1623(5) 0.7989(4)
C3_2 C 0.1193(4) 0.1640(5) 0.8027(4)
H1_2 H 0.1513 0.2011 0.8386
C4_2 C 0.1686(4) 0.1074(7) 0.7503(4)
H2_2 H 0.2352 0.1079 0.7498
C5_2 C 0.1194(4) 0.0509(5) 0.6993(4)
H3_2 H 0.1516 0.0130 0.6641
C6_2 C 0.0208(4) 0.0522(5) 0.7021(4)
C11_3 C -0.0000 0.7788(8) 1.0000
H5_3 H -0.0000 0.8453 1.0000
N2_3 N -0.0000 0.5778(6) 1.0000
O2_2 O 0.0024(4) 0.2778(5) 0.8960(3)
O15_2 O 0.1127(4) 0.4581(5) 0.8988(3)
H36_2 H 0.162754 0.497871 0.923514
H37_2 H 0.14337 0.404118 0.871259
Pr2_4 Pr 1.0000 0.39265(3) -0.0000
C11_4 C 1.0000 0.7788(8) -0.0000
H5_4 H 1.0000 0.8453 -0.0000
N2_4 N 1.0000 0.5778(6) -0.0000
N3_3 N 0.5000 0.1374(6) -0.0000
C20_2 C 0.4447(4) 0.0870(5) 0.0489(4)
C21_2 C 0.3826(4) 0.1491(5) 0.1002(4)
O19_2 O 0.3293(4) 0.1045(5) 0.1459(3)
O20_2 O 0.3889(4) 0.2385(4) 0.0925(3)
C22_2 C 0.0410(4) 0.2246(5) 0.1495(4)
H24_2 H 0.148(10) 0.165(4) 0.363(9)
H25_2 H 0.320(6) 0.267(8) 0.1955(14)
H26_2 H 0.615(11) 0.304(7) 0.127(7)
H27_2 H 0.185(5) 0.263(5) 0.366(5)
H28_2 H 0.353(7) 0.280(14) 0.269(8)
N4_2 N 0.0288(3) 0.1067(5) 0.2500(3)
O21_2 O 0.1314(3) 0.2181(4) 0.1582(3)
O27_2 O 0.1474(4) 0.2215(6) 0.3498(4)
O28_2 O 0.3060(5) 0.2700(5) 0.2416(4)
O29_2 O 0.3371(4) 0.4144(5) 0.0095(3)
O30_2 O 0.6142(4) 0.2557(5) 0.0997(4)
O32_2 O 0.8873(4) 0.4581(5) 0.1012(3)
O33_2 O 0.9976(4) 0.2778(5) 0.1040(3)
H39_2 H 0.118644 0.0316312 0.108109
H40_2 H 0.67811 0.240061 0.0783231
H41_2 H 0.304346 0.396866 0.0577821
H42_2 H 0.349356 0.48438 0.00878528
H43_2 H 0.837246 0.497871 0.0764857
H44_2 H 0.85663 0.404118 0.128741
Pr2_5 Pr 1.0000 0.39265(3) 1.0000
C1_2 C 0.9590(4) 0.2246(5) 0.8505(4)
C8_2 C 0.8816(4) 0.5666(5) 0.9005(4)
C9_2 C 0.9445(4) 0.6278(5) 0.9517(4)
C10_2 C 0.9437(5) 0.7273(5) 0.9480(4)
H4_2 H 0.9066 0.7590 0.9119
C11_5 C 1.0000 0.7788(8) 1.0000
H5_5 H 1.0000 0.8453 1.0000
C14_2 C 0.5553(4) 0.0870(5) 0.9511(4)
C15_2 C 0.6174(4) 0.1491(5) 0.8998(4)
H10_2 H 0.852(10) 0.165(4) 0.637(9)
H11_2 H 0.680(6) 0.267(8) 0.8045(14)
H12_2 H 0.385(11) 0.304(7) 0.873(7)
H14_2 H 0.815(5) 0.263(5) 0.634(5)
H15_2 H 0.647(7) 0.280(14) 0.731(8)
N1_2 N 0.9712(3) 0.1067(5) 0.7500(3)
N2_5 N 1.0000 0.5778(6) 1.0000
N3_4 N 0.5000 0.1374(6) 1.0000
O1_2 O 0.8686(3) 0.2181(4) 0.8418(3)
O8_2 O 0.8526(4) 0.2215(6) 0.6502(4)
O9_2 O 0.6707(4) 0.1045(5) 0.8541(3)
O10_2 O 0.6940(5) 0.2700(5) 0.7584(4)
O11_2 O 0.6629(4) 0.4144(5) 0.9905(3)
O12_2 O 0.6111(4) 0.2385(4) 0.9075(3)
O13_2 O 0.3858(4) 0.2557(5) 0.9003(4)
O14_2 O 0.8888(4) 0.4775(4) 0.9080(3)
H29_2 H 0.843(6) 0.290(7) 0.9460(13)
H30_2 H 0.824(6) 0.2429(17) 0.991(6)
O31_2 O 0.8367(4) 0.3008(5) 0.9924(4)
H31_2 H 0.881356 0.0316312 0.891891
H33_2 H 0.695654 0.396866 0.942218
H34_2 H 0.650644 0.48438 0.991215
H35_2 H 0.32189 0.240061 0.921677
C12_3 C 0.5000 0.9398(9) -0.0000
H6_3 H 0.5000 0.8733 -0.0000
C19_2 C 0.4438(5) 0.9880(5) 0.0517(4)
H18_2 H 0.4067 0.9553 0.0872
C28_2 C 0.0403(5) 0.9895(5) 0.3494(4)
H22_2 H 0.191(5) 0.959(6) 0.131(5)
H23_2 H 0.355(6) 0.913(10) 0.273(7)
O23_2 O 0.1300(3) 0.9959(4) 0.3418(3)
O25_2 O 0.1484(4) 0.9935(5) 0.1496(3)
O26_2 O 0.3080(5) 0.9442(5) 0.2591(4)
H38_2 H 0.310221 0.928648 0.203859
C7_2 C 0.9597(5) 0.9895(5) 0.6506(4)
C12_4 C 0.5000 0.9398(9) 1.0000
H6_4 H 0.5000 0.8733 1.0000
C13_2 C 0.5562(5) 0.9880(5) 0.9483(4)
H7_2 H 0.5933 0.9553 0.9128
H8_2 H 0.809(5) 0.959(6) 0.869(5)
H9_2 H 0.645(6) 0.913(10) 0.727(7)
O3_2 O 0.8700(3) 0.9959(4) 0.6582(3)
O5_2 O 0.8516(4) 0.9935(5) 0.8504(3)
O6_2 O 0.6920(5) 0.9442(5) 0.7409(4)
H32_2 H 0.689779 0.928648 0.796141
C23_2 C 0.9798(4) 0.1623(5) 0.2011(4)
C24_2 C 0.8807(4) 0.1640(5) 0.1973(4)
H19_2 H 0.8487 0.2011 0.1614
C25_2 C 0.8314(4) 0.1074(7) 0.2497(4)
H20_2 H 0.7648 0.1079 0.2502
C26_2 C 0.8806(4) 0.0509(5) 0.3007(4)
H21_2 H 0.8484 0.0130 0.3359
C27_2 C 0.9792(4) 0.0522(5) 0.2979(4)
Fe1 Fe 0.74910(7) 0.35696(8) 0.37503(6)
C29 C 0.8736(5) 0.3087(6) 0.3721(4)
C30 C 0.7007(5) 0.2325(6) 0.3791(4)
C31 C 0.6265(5) 0.4068(5) 0.3718(4)
C32 C 0.7990(5) 0.4814(6) 0.3787(4)
C33 C 0.7503(5) 0.3568(6) 0.2639(4)
N5 N 0.7507(5) 0.3564(6) 0.4855(4)
N6 N 0.6713(5) 0.1581(6) 0.3829(5)
N7 N 0.5504(5) 0.4367(7) 0.3672(5)
N8 N 0.7498(5) 0.3575(5) 0.1988(4)
N9 N 0.8292(6) 0.5575(6) 0.3833(5)
N10 N 0.9513(5) 0.2800(7) 0.3668(5)
O38 O 0.7506(4) 0.3580(6) 0.5523(4)
Fe1_2 Fe 0.25090(7) 0.35696(8) 0.62497(6)
C29_2 C 0.1264(5) 0.3087(6) 0.6279(4)
C30_2 C 0.2993(5) 0.2325(6) 0.6209(4)
C31_2 C 0.3735(5) 0.4068(5) 0.6282(4)
C32_2 C 0.2010(5) 0.4814(6) 0.6213(4)
C33_2 C 0.2497(5) 0.3568(6) 0.7361(4)
N5_2 N 0.2493(5) 0.3564(6) 0.5145(4)
N6_2 N 0.3287(5) 0.1581(6) 0.6171(5)
N7_2 N 0.4496(5) 0.4367(7) 0.6328(5)
N8_2 N 0.2502(5) 0.3575(5) 0.8012(4)
N9_2 N 0.1708(6) 0.5575(6) 0.6167(5)
N10_2 N 0.0487(5) 0.2800(7) 0.6332(5)
O38_2 O 0.2494(4) 0.3580(6) 0.4477(4)
N9_3 N 0.3292(6) 0.0575(6) 0.8833(5)
O38_3 O 0.2506(4) 0.8580(6) 0.0523(4)
Fe1_3 Fe 0.24910(7) 0.85696(8) 0.87503(6)
C29_3 C 0.3736(5) 0.8087(6) 0.8721(4)
C30_3 C 0.2007(5) 0.7325(6) 0.8791(4)
C31_3 C 0.1265(5) 0.9068(5) 0.8718(4)
C32_3 C 0.2990(5) 0.9814(6) 0.8787(4)
C33_3 C 0.2503(5) 0.8568(6) 0.7639(4)
N5_3 N 0.2507(5) 0.8564(6) 0.9855(4)
N6_3 N 0.1713(5) 0.6581(6) 0.8829(5)
N7_3 N 0.0504(5) 0.9367(7) 0.8672(5)
N8_3 N 0.2498(5) 0.8575(5) 0.6988(4)
N10_3 N 0.4513(5) 0.7800(7) 0.8668(5)
N9_4 N 0.6708(6) 0.0575(6) 0.1167(5)
Fe1_4 Fe 0.75090(7) 0.85696(8) 0.12497(6)
C29_4 C 0.6264(5) 0.8087(6) 0.1279(4)
C30_4 C 0.7993(5) 0.7325(6) 0.1209(4)
C31_4 C 0.8735(5) 0.9068(5) 0.1282(4)
C32_4 C 0.7010(5) 0.9814(6) 0.1213(4)
C33_4 C 0.7497(5) 0.8568(6) 0.2361(4)
N5_4 N 0.7493(5) 0.8564(6) 0.0145(4)
N6_4 N 0.8287(5) 0.6581(6) 0.1171(5)
N7_4 N 0.9496(5) 0.9367(7) 0.1328(5)
N8_4 N 0.7502(5) 0.8575(5) 0.3012(4)
N10_4 N 0.5487(5) 0.7800(7) 0.1332(5)
O38_4 O 0.7494(4) 0.8580(6) 0.9477(4)
loop_
_geom_bond_atom_site_label_1
_geom_bond_atom_site_label_2
_geom_bond_site_symmetry_1
_geom_bond_site_symmetry_2
C8 C9 1_555 1_555
C9 C10 1_555 1_555
C10 H4 1_555 1_555
C11 C10 1_555 1_555
H5 C11 1_555 1_555
N2 C9 1_555 1_555
O7 C8 1_555 1_555
C16 C17 1_555 1_555
C17 N2 1_555 1_555
C18 C11 1_555 1_555
H17 C18 1_555 1_555
O18 C16 1_555 1_555
Pr5 O18 1_555 1_555
Pr6 O7 1_555 1_555
C17 C18 1_555 1_555
Pr1 N1 1_555 1_555
Pr3 N3 1_555 1_555
C1 C2 1_555 1_555
C2 C3 1_555 1_555
C3 H1 1_555 1_555
C4 C3 1_555 1_555
H2 C4 1_555 1_555
C5 C4 1_555 1_555
H3 C5 1_555 1_555
C6 C5 1_555 1_555
C7 C6 1_555 1_555
C12 H6 1_555 1_555
C13 C12 1_555 1_555
H7 C13 1_555 1_555
C14 C13 1_555 1_555
C15 C14 1_555 1_555
H8 O5 1_555 1_555
H9 O6 1_555 1_555
H10 O8 1_555 1_555
H11 O10 1_555 1_555
H13 O16 1_555 1_555
H14 O8 1_555 1_555
H15 O10 1_555 1_555
H16 O16 1_555 1_555
N1 C2 1_555 1_555
N3 C14 1_555 1_555
O1 Pr1 1_555 1_555
O2 Pr2 1_555 1_555
O3 Pr1 1_555 1_555
O4 C7 1_555 1_555
O5 Pr1 1_555 1_555
O6 Pr1 1_555 1_555
O8 Pr1 1_555 1_555
O9 Pr1 1_555 1_555
O10 Pr1 1_555 1_555
O11 Pr3 1_555 1_555
O12 Pr3 1_555 1_555
O14 Pr2 1_555 1_555
O15 Pr2 1_555 1_555
O16 Pr2 1_555 1_555
O17 Pr2 1_555 1_555
H26 O30 1_555 1_555
O30 Pr3 1_555 1_555
H29 O31 1_555 1_555
H30 O31 1_555 1_555
O31 Pr2 1_555 1_555
O32 Pr2 1_555 1_555
Pr9 O4 1_555 1_555
O33 Pr2 1_555 1_555
O34 Pr3 1_555 1_555
O37 Pr1 1_555 1_555
C1 O1 1_555 1_555
C1 O2 1_555 1_555
C6 N1 1_555 1_555
C7 O3 1_555 1_555
C15 O9 1_555 1_555
C15 O12 1_555 1_555
O5 H31 1_555 1_555
O6 H32 1_555 1_555
O11 H33 1_555 1_555
O11 H34 1_555 1_555
O15 H36 1_555 1_555
O15 H37 1_555 1_555
O30 H40 1_555 1_555
O32 H43 1_555 1_555
O32 H44 1_555 1_555
Pr3_2 N3_2 1_555 1_555
C12_2 H6_2 1_555 1_555
H12 O13 1_555 1_555
O13 Pr3_2 1_555 1_555
C19 C12_2 1_555 1_555
H18 C19 1_555 1_555
C20 N3_2 1_555 1_555
C21 C20 1_555 1_555
O19 C21 1_555 1_555
O20 Pr3_2 1_555 1_555
Pr4 O19 1_555 1_555
C22 C23 1_555 1_555
C23 C24 1_555 1_555
C24 H19 1_555 1_555
C25 C24 1_555 1_555
H20 C25 1_555 1_555
C26 C25 1_555 1_555
H21 C26 1_555 1_555
C27 C26 1_555 1_555
C28 C27 1_555 1_555
H22 O25 1_555 1_555
H23 O26 1_555 1_555
H24 O27 1_555 1_555
H25 O28 1_555 1_555
H27 O27 1_555 1_555
H28 O28 1_555 1_555
N4 Pr4 1_555 1_555
O21 Pr4 1_555 1_555
O33 C22 1_555 1_555
O23 Pr4 1_555 1_555
O24 C28 1_555 1_555
O25 Pr4 1_555 1_555
O26 Pr4 1_555 1_555
O27 Pr4 1_555 1_555
O28 Pr4 1_555 1_555
O29 Pr3_2 1_555 1_555
Pr9_2 O24 1_555 1_555
O35 Pr3_2 1_555 1_555
O36 Pr4 1_555 1_555
C19 C20 1_555 1_555
C21 O20 1_555 1_555
C22 O21 1_555 1_555
C23 N4 1_555 1_555
C27 N4 1_555 1_555
C28 O23 1_555 1_555
O13 H35 1_555 1_555
O26 H38 1_555 1_555
O25 H39 1_555 1_555
O29 H41 1_555 1_555
O29 H42 1_555 1_555
Pr2_2 N2_2 1_555 1_555
H5_2 C11_2 1_555 1_555
H13_2 O16_2 1_555 1_555
H16_2 O16_2 1_555 1_555
O16_2 Pr2_2 1_555 1_555
C16_2 C17_2 1_555 1_555
C17_2 N2_2 1_555 1_555
C18_2 C11_2 1_555 1_555
H17_2 C18_2 1_555 1_555
O17_2 Pr2_2 1_555 1_555
O37 C16_2 1_555 1_555
C16_2 O17_2 1_555 1_555
C17_2 C18_2 1_555 1_555
Pr2_3 N2_3 1_555 1_555
C2_2 C3_2 1_555 1_555
C3_2 H1_2 1_555 1_555
C4_2 C3_2 1_555 1_555
H2_2 C4_2 1_555 1_555
C5_2 C4_2 1_555 1_555
H3_2 C5_2 1_555 1_555
C6_2 C5_2 1_555 1_555
H5_3 C11_3 1_555 1_555
O2_2 Pr2_3 1_555 1_555
O15_2 Pr2_3 1_555 1_555
O15_2 H36_2 1_555 1_555
O15_2 H37_2 1_555 1_555
Pr2_4 N2_4 1_555 1_555
Pr9 N3_3 1_555 1_555
H5_4 C11_4 1_555 1_555
C20_2 N3_3 1_555 1_555
C21_2 C20_2 1_555 1_555
O19_2 C21_2 1_555 1_555
O20_2 Pr9 1_555 1_555
Pr6 O19_2 1_555 1_555
H24_2 O27_2 1_555 1_555
H25_2 O28_2 1_555 1_555
H26_2 O30_2 1_555 1_555
H27_2 O27_2 1_555 1_555
H28_2 O28_2 1_555 1_555
N4_2 Pr6 1_555 1_555
O21_2 Pr6 1_555 1_555
O27_2 Pr6 1_555 1_555
O28_2 Pr6 1_555 1_555
O29_2 Pr9 1_555 1_555
O30_2 Pr9 1_555 1_555
O32_2 Pr2_4 1_555 1_555
O33_2 Pr2_4 1_555 1_555
C21_2 O20_2 1_555 1_555
C22_2 O21_2 1_555 1_555
O30_2 H40_2 1_555 1_555
O29_2 H41_2 1_555 1_555
O29_2 H42_2 1_555 1_555
O32_2 H43_2 1_555 1_555
O32_2 H44_2 1_555 1_555
Pr5 N1_2 1_555 1_555
Pr2_5 N2_5 1_555 1_555
Pr9_2 N3_4 1_555 1_555
C8_2 C9_2 1_555 1_555
C9_2 C10_2 1_555 1_555
C10_2 H4_2 1_555 1_555
C11_5 C10_2 1_555 1_555
H5_5 C11_5 1_555 1_555
C15_2 C14_2 1_555 1_555
H10_2 O8_2 1_555 1_555
H11_2 O10_2 1_555 1_555
H12_2 O13_2 1_555 1_555
H14_2 O8_2 1_555 1_555
H15_2 O10_2 1_555 1_555
N2_5 C9_2 1_555 1_555
N3_4 C14_2 1_555 1_555
O1_2 Pr5 1_555 1_555
O36 C8_2 1_555 1_555
O8_2 Pr5 1_555 1_555
O9_2 Pr5 1_555 1_555
O10_2 Pr5 1_555 1_555
O11_2 Pr9_2 1_555 1_555
O12_2 Pr9_2 1_555 1_555
O13_2 Pr9_2 1_555 1_555
O14_2 Pr2_5 1_555 1_555
H29_2 O31_2 1_555 1_555
H30_2 O31_2 1_555 1_555
O31_2 Pr2_5 1_555 1_555
C1_2 O1_2 1_555 1_555
C8_2 O14_2 1_555 1_555
C15_2 O9_2 1_555 1_555
C15_2 O12_2 1_555 1_555
O11_2 H33_2 1_555 1_555
O11_2 H34_2 1_555 1_555
O13_2 H35_2 1_555 1_555
C12_3 H6_3 1_555 1_555
C19_2 C12_3 1_555 1_555
H18_2 C19_2 1_555 1_555
H22_2 O25_2 1_555 1_555
H23_2 O26_2 1_555 1_555
C28_2 O23_2 1_555 1_555
O26_2 H38_2 1_555 1_555
C12_4 H6_4 1_555 1_555
C13_2 C12_4 1_555 1_555
H7_2 C13_2 1_555 1_555
H8_2 O5_2 1_555 1_555
H9_2 O6_2 1_555 1_555
C7_2 O3_2 1_555 1_555
O6_2 H32_2 1_555 1_555
C23_2 C24_2 1_555 1_555
C24_2 H19_2 1_555 1_555
C25_2 C24_2 1_555 1_555
H20_2 C25_2 1_555 1_555
C26_2 C25_2 1_555 1_555
H21_2 C26_2 1_555 1_555
C27_2 C26_2 1_555 1_555
Fe1 C29 1_555 1_555
C29 N10 1_555 1_555
C30 Fe1 1_555 1_555
C31 Fe1 1_555 1_555
C32 Fe1 1_555 1_555
C33 Fe1 1_555 1_555
N5 Fe1 1_555 1_555
N6 C30 1_555 1_555
N7 C31 1_555 1_555
N8 C33 1_555 1_555
N9 C32 1_555 1_555
O38 N5 1_555 1_555
Fe1_2 C29_2 1_555 1_555
C29_2 N10_2 1_555 1_555
C30_2 Fe1_2 1_555 1_555
C31_2 Fe1_2 1_555 1_555
C32_2 Fe1_2 1_555 1_555
C33_2 Fe1_2 1_555 1_555
N5_2 Fe1_2 1_555 1_555
N6_2 C30_2 1_555 1_555
N7_2 C31_2 1_555 1_555
N8_2 C33_2 1_555 1_555
N9_2 C32_2 1_555 1_555
O38_2 N5_2 1_555 1_555
Fe1_3 C29_3 1_555 1_555
C29_3 N10_3 1_555 1_555
C30_3 Fe1_3 1_555 1_555
C31_3 Fe1_3 1_555 1_555
C32_3 Fe1_3 1_555 1_555
C33_3 Fe1_3 1_555 1_555
N5_3 Fe1_3 1_555 1_555
N6_3 C30_3 1_555 1_555
N7_3 C31_3 1_555 1_555
N8_3 C33_3 1_555 1_555
Fe1_4 C29_4 1_555 1_555
C29_4 N10_4 1_555 1_555
C30_4 Fe1_4 1_555 1_555
C31_4 Fe1_4 1_555 1_555
C32_4 Fe1_4 1_555 1_555
C33_4 Fe1_4 1_555 1_555
N5_4 Fe1_4 1_555 1_555
N6_4 C30_4 1_555 1_555
N7_4 C31_4 1_555 1_555
N8_4 C33_4 1_555 1_555

#END
