
###############################################################################
#
# This file contains modified crystal structure data generated from the
# MOF subset of the Cambridge Structural Database (CSD) v543 
# hosted by the Cambridge Crystallographic Data Centre (CCDC).
#
# This work is licensed under the Creative Commons
# Attribution-NonCommercial-ShareAlike 4.0 International License.
# To view a copy of this license, visit
# http://creativecommons.org/licenses/by-nc-sa/4.0/
# or send a letter to
# Creative Commons, PO Box 1866, Mountain View, CA 94042, USA.
#
# CIF created using the CSD Python API on 29 September 2022
# The structure has been converted into the P1 space group
# The structure has a 3D framework
# The original CSD entry BUWMAJ is in the monoclinic crystal system
# The original CSD entry BUWMAJ is in a Sohncke space group
# The framework has been calculated to contain at least 10.0% void space
# The void calculation uses a probe of radius 1.32A, grid spacing 0.4
# The framework is charged, counterions have been retained in the structure
# H atom positions have been added when not included in the experimental data
# Generated hydrogen atom positions removed from atoms on special positions
#
###############################################################################

data_BUWMAJ
_chemical_formula_moiety         '(C85 H141 Fe4 N35 Nd13 O63 5+)n'
_symmetry_cell_setting           triclinic
_symmetry_space_group_name_H-M   'P 1'
_symmetry_Int_Tables_number      1
_space_group_name_Hall           'P 1'
loop_
_symmetry_equiv_pos_site_id
_symmetry_equiv_pos_as_xyz
1 x,y,z
_cell_length_a                   13.936(3)
_cell_length_b                   13.936(3)
_cell_length_c                   17.469(4)
_cell_angle_alpha                90
_cell_angle_beta                 90.00(3)
_cell_angle_gamma                90
_cell_volume                     3392.69
loop_
_atom_site_label
_atom_site_type_symbol
_atom_site_fract_x
_atom_site_fract_y
_atom_site_fract_z
O8 O 0.6134(3) 0.0276(3) 0.5999(2)
O31 O 0.3866(3) 0.0276(3) 0.4001(2)
O34 O 0.6118(3) 0.0440(3) 0.4078(2)
O35 O 0.3882(3) 0.0440(3) 0.5922(2)
O36 O 0.0025(3) 0.0056(3) 0.3967(2)
N5 N 0.5000 0.1463(4) 0.5000
H34 H 0.150651 0.0533903 0.506566
N3 N -0.0000 0.6463(4) 0.0000
C12 C -0.0000 0.8445(6) 0.0000
H5 H -0.0000 0.9113 0.0000
Nd6 Nd 0.0000 0.46231(2) 0.0000
Nd9 Nd 0.5000 0.39133(2) 0.0000
Nd1 Nd 0.5000 0.96231(2) 0.5000
Nd2 Nd 0.285468(15) 0.67676(2) 0.749812(13)
Nd3 Nd 0.0000 0.89133(2) 0.5000
N1 N 0.0000 0.7060(4) 0.5000
N2 N 0.4706(2) 0.6773(4) 0.7503(2)
O1 O 0.3673(3) 0.5646(3) 0.8418(2)
O2 O 0.1726(2) 0.6737(3) 0.6450(2)
O3 O 0.3683(3) 0.7883(3) 0.6584(2)
O4 O 0.5036(3) 0.8499(3) 0.6052(2)
O5 O 0.1118(3) 0.5440(3) 0.9078(2)
O6 O 0.5025(3) 0.5056(3) 0.8967(2)
O7 O 0.1714(3) 0.6802(4) 0.8536(2)
O10 O 0.1929(3) 0.5141(3) 0.7572(3)
O11 O 0.1928(3) 0.8389(3) 0.7416(2)
O12 O 0.3382(3) 0.8688(3) 0.5085(2)
O13 O 0.1122(3) 0.8087(3) 0.5918(2)
C1 C 0.0560(3) 0.6571(3) 0.5484(3)
C2 C 0.5203(3) 0.7329(3) 0.7014(3)
O14 O 0.3514(3) 0.5624(3) 0.6502(2)
O15 O 0.3503(3) 0.7911(3) 0.8499(2)
C3 C 0.5194(3) 0.6215(3) 0.7988(3)
C4 C 0.6689(3) 0.6773(5) 0.7507(3)
H1 H 0.7356 0.6777 0.7511
C5 C 0.1190(3) 0.7186(4) 0.5996(3)
C6 C 0.6182(3) 0.6202(4) 0.8017(3)
H2 H 0.6502 0.5820 0.8371
C7 C 0.4595(4) 0.7958(4) 0.6502(3)
C8 C 0.6191(3) 0.7333(4) 0.6994(3)
H3 H 0.6517 0.7708 0.6639
C9 C 0.1182(3) 0.6345(4) 0.8999(3)
N3_2 N 0.0000 0.6463(4) 1.0000
C10 C 0.0558(3) 0.6971(3) 0.9510(3)
C11 C 0.0555(3) 0.7958(3) 0.9484(3)
H4 H 0.0921 0.8286 0.9124
C12_2 C 0.0000 0.8445(6) 1.0000
H5_2 H -0.0000 0.9113 1.0000
C13 C 0.0000 0.5070(6) 0.5000
H6 H 0.0000 0.4403 0.5000
C14 C 0.4578(3) 0.5580(3) 0.8504(3)
C15 C 0.0564(4) 0.5571(4) 0.5517(3)
H7 H 0.0936 0.5249 0.5876
O25 O 0.1629(3) 0.9832(3) 0.5071(2)
O30 O 0.1129(3) 0.8266(3) 0.3994(3)
O32 O 0.6618(3) 0.8688(3) 0.4915(2)
Nd6_2 Nd 0.0000 0.46231(2) 1.0000
Nd9_2 Nd 0.5000 0.39133(2) 1.0000
O33 O 0.4964(3) 0.8499(3) 0.3948(2)
H17 H 0.666416 0.981176 0.608315
H25 H 0.0763492 0.786742 0.362387
H26 H 0.143704 0.880863 0.371952
H33 H 0.203196 0.965586 0.462375
O37 O 0.9975(3) 0.0056(3) 0.6033(2)
H20 H 0.849349 0.0533903 0.493434
N3_3 N 1.0000 0.6463(4) 0.0000
C12_3 C 1.0000 0.8445(6) 0.0000
H5_3 H 1.0000 0.9113 0.0000
O19 O 0.8882(3) 0.5440(3) 0.0922(2)
O20 O 0.8286(3) 0.6802(4) 0.1464(2)
C19 C 0.8818(3) 0.6345(4) 0.1001(3)
C20 C 0.9442(3) 0.6971(3) 0.0490(3)
C21 C 0.9445(3) 0.7958(3) 0.0516(3)
H9 H 0.9079 0.8286 0.0876
Nd6_3 Nd 1.0000 0.46231(2) 0.0000
Nd7 Nd 0.714532(15) 0.67676(2) 0.250188(13)
Nd3_2 Nd 1.0000 0.89133(2) 0.5000
N1_2 N 1.0000 0.7060(4) 0.5000
O9 O 0.8371(3) 0.9832(3) 0.4929(2)
N3_4 N 1.0000 0.6463(4) 1.0000
C12_4 C 1.0000 0.8445(6) 1.0000
H5_4 H 1.0000 0.9113 1.0000
C13_2 C 1.0000 0.5070(6) 0.5000
H6_2 H 1.0000 0.4403 0.5000
O16 O 0.8871(3) 0.8266(3) 0.6006(3)
O17 O 0.8274(2) 0.6737(3) 0.3550(2)
O18 O 0.8878(3) 0.8087(3) 0.4082(2)
C16 C 0.9440(3) 0.6571(3) 0.4516(3)
C17 C 0.8810(3) 0.7186(4) 0.4004(3)
C18 C 0.9436(4) 0.5571(4) 0.4483(3)
H8 H 0.9064 0.5249 0.4124
N4 N 0.5294(2) 0.6773(4) 0.2497(2)
O21 O 0.6327(3) 0.5646(3) 0.1582(2)
O22 O 0.6317(3) 0.7883(3) 0.3416(2)
O24 O 0.4975(3) 0.5056(3) 0.1033(2)
O26 O 0.8071(3) 0.5141(3) 0.2428(3)
O27 O 0.8072(3) 0.8389(3) 0.2584(2)
C22 C 0.4797(3) 0.7329(3) 0.2986(3)
O28 O 0.6486(3) 0.5624(3) 0.3498(2)
O29 O 0.6497(3) 0.7911(3) 0.1501(2)
C23 C 0.4806(3) 0.6215(3) 0.2012(3)
C24 C 0.3311(3) 0.6773(5) 0.2493(3)
H10 H 0.2644 0.6777 0.2489
C25 C 0.3818(3) 0.6202(4) 0.1983(3)
H11 H 0.3498 0.5820 0.1629
C26 C 0.5405(4) 0.7958(4) 0.3498(3)
C27 C 0.3809(3) 0.7333(4) 0.3006(3)
H12 H 0.3483 0.7708 0.3361
C28 C 0.5422(3) 0.5580(3) 0.1496(3)
Nd6_4 Nd 1.0000 0.46231(2) 1.0000
H19 H 0.796804 0.965586 0.537625
H35 H 0.923651 0.786742 0.637613
H36 H 0.856296 0.880863 0.628048
H17_2 H 0.333584 0.981176 0.391685
O4_2 O 0.0036(3) 0.3499(3) 0.1052(2)
O8_2 O 0.1134(3) 0.5276(3) 0.0999(2)
C2_2 C 0.0203(3) 0.2329(3) 0.2014(3)
C3_2 C 0.0194(3) 0.1215(3) 0.2988(3)
C4_2 C 0.1689(3) 0.1773(5) 0.2507(3)
H1_2 H 0.2356 0.1777 0.2511
C6_2 C 0.1182(3) 0.1202(4) 0.3017(3)
H2_2 H 0.1502 0.0820 0.3371
C8_2 C 0.1191(3) 0.2333(4) 0.1994(3)
H3_2 H 0.1517 0.2708 0.1639
O32_2 O 0.1618(3) 0.3688(3) 0.9915(2)
Nd2_2 Nd 0.785468(15) 0.17676(2) 0.249812(13)
N1_3 N 0.5000 0.2060(4) 0.0000
N2_2 N 0.9706(2) 0.1773(4) 0.2503(2)
O1_2 O 0.8673(3) 0.0646(3) 0.3418(2)
O2_2 O 0.6726(2) 0.1737(3) 0.1450(2)
O3_2 O 0.8683(3) 0.2883(3) 0.1584(2)
O7_2 O 0.6714(3) 0.1802(4) 0.3536(2)
O10_2 O 0.6929(3) 0.0141(3) 0.2572(3)
O11_2 O 0.6928(3) 0.3389(3) 0.2416(2)
O12_2 O 0.8382(3) 0.3688(3) 0.0085(2)
O13_2 O 0.6122(3) 0.3087(3) 0.0918(2)
C1_2 C 0.5560(3) 0.1571(3) 0.0484(3)
O14_2 O 0.8514(3) 0.0624(3) 0.1502(2)
O15_2 O 0.8503(3) 0.2911(3) 0.3499(2)
C5_2 C 0.6190(3) 0.2186(4) 0.0996(3)
C7_2 C 0.9595(4) 0.2958(4) 0.1502(3)
C9_2 C 0.6182(3) 0.1345(4) 0.3999(3)
C10_2 C 0.5558(3) 0.1971(3) 0.4510(3)
C11_2 C 0.5555(3) 0.2958(3) 0.4484(3)
H4_2 H 0.5921 0.3286 0.4124
C12_5 C 0.5000 0.3445(6) 0.5000
H5_5 H 0.5000 0.4113 0.5000
C13_3 C 0.5000 0.0070(6) 0.0000
C14_2 C 0.9578(3) 0.0580(3) 0.3504(3)
C15_2 C 0.5564(4) 0.0571(4) 0.0517(3)
H7_2 H 0.5936 0.0249 0.0876
O16_2 O 0.3871(3) 0.3266(3) 0.1006(3)
O20_2 O 0.3286(3) 0.1802(4) 0.6464(2)
C19_2 C 0.3818(3) 0.1345(4) 0.6001(3)
C20_2 C 0.4442(3) 0.1971(3) 0.5490(3)
C21_2 C 0.4445(3) 0.2958(3) 0.5516(3)
H9_2 H 0.4079 0.3286 0.5876
O25_2 O 0.6629(3) 0.4832(3) 0.0071(2)
Nd7_2 Nd 0.214532(15) 0.17676(2) 0.750188(13)
H14 H 0.622758 0.0265999 0.256418
H19_2 H 0.296804 0.465586 0.0376255
H34_2 H 0.650651 0.55339 0.00656611
H35_2 H 0.423651 0.286742 0.137613
H36_2 H 0.356296 0.380863 0.128048
N1_4 N 0.5000 0.2060(4) 1.0000
O9_2 O 0.3371(3) 0.4832(3) 0.9929(2)
C13_4 C 0.5000 0.0070(6) 1.0000
O17_2 O 0.3274(2) 0.1737(3) 0.8550(2)
O18_2 O 0.3878(3) 0.3087(3) 0.9082(2)
C16_2 C 0.4440(3) 0.1571(3) 0.9516(3)
C17_2 C 0.3810(3) 0.2186(4) 0.9004(3)
C18_2 C 0.4436(4) 0.0571(4) 0.9483(3)
H8_2 H 0.4064 0.0249 0.9124
N4_2 N 0.0294(2) 0.1773(4) 0.7497(2)
O21_2 O 0.1327(3) 0.0646(3) 0.6582(2)
O22_2 O 0.1317(3) 0.2883(3) 0.8416(2)
O26_2 O 0.3071(3) 0.0141(3) 0.7428(3)
O27_2 O 0.3072(3) 0.3389(3) 0.7584(2)
O28_2 O 0.1486(3) 0.0624(3) 0.8498(2)
O29_2 O 0.1497(3) 0.2911(3) 0.6501(2)
C26_2 C 0.0405(4) 0.2958(4) 0.8498(3)
C28_2 C 0.0422(3) 0.0580(3) 0.6496(3)
O30_2 O 0.6129(3) 0.3266(3) 0.8994(3)
O31_2 O 0.8866(3) 0.5276(3) 0.9001(2)
O33_2 O 0.9964(3) 0.3499(3) 0.8948(2)
H20_2 H 0.349349 0.55339 0.993434
H22 H 0.794528 0.390922 0.967197
H25_2 H 0.576349 0.286742 0.862387
H26_2 H 0.643704 0.380863 0.871952
H33_2 H 0.703196 0.465586 0.962375
H6_3 H 0.5000 0.9403 0.0000
H13 H 0.71017 0.980345 0.305328
H6_4 H 0.5000 0.9403 1.0000
H41 H 0.296359 0.977209 0.790671
H42 H 0.28338 0.976407 0.698428
C22_2 C 0.9797(3) 0.2329(3) 0.7986(3)
C23_2 C 0.9806(3) 0.1215(3) 0.7012(3)
C24_2 C 0.8311(3) 0.1773(5) 0.7493(3)
H10_2 H 0.7644 0.1777 0.7489
C25_2 C 0.8818(3) 0.1202(4) 0.6983(3)
H11_2 H 0.8498 0.0820 0.6629
C27_2 C 0.8809(3) 0.2333(4) 0.8006(3)
H12_2 H 0.8483 0.2708 0.8361
H22_2 H 0.205472 0.390922 0.0328028
H14_2 H 0.377242 0.0265999 0.743582
H41_2 H 0.703641 0.977209 0.209329
H42_2 H 0.71662 0.976407 0.301572
H13_2 H 0.28983 0.980345 0.694672
N6 N 0.9512(4) 0.0037(4) 0.8658(3)
N10 N 0.6714(4) 0.1272(4) 0.8833(3)
C34 C 0.7016(4) 0.0500(4) 0.8787(3)
N8 N 0.7506(4) 0.9272(4) 0.0515(3)
Fe1 Fe 0.74901(6) 0.92725(6) 0.87499(4)
C29 C 0.7511(4) 0.9261(4) 0.9867(3)
C30 C 0.7496(4) 0.9266(5) 0.7636(3)
C31 C 0.7980(4) 0.8035(4) 0.8788(3)
C32 C 0.6254(4) 0.8785(4) 0.8719(3)
N7 N 0.7500(4) 0.9267(4) 0.6988(3)
N9 N 0.5502(4) 0.8496(4) 0.8664(3)
C33 C 0.8739(4) 0.9754(4) 0.8708(3)
N11 N 0.8280(4) 0.7260(4) 0.8832(3)
N6_2 N 0.0488(4) 0.0037(4) 0.1342(3)
N10_2 N 0.3286(4) 0.1272(4) 0.1167(3)
C34_2 C 0.2984(4) 0.0500(4) 0.1213(3)
Fe1_2 Fe 0.25099(6) 0.92725(6) 0.12501(4)
C29_2 C 0.2489(4) 0.9261(4) 0.0133(3)
C30_2 C 0.2504(4) 0.9266(5) 0.2364(3)
C31_2 C 0.2020(4) 0.8035(4) 0.1212(3)
C32_2 C 0.3746(4) 0.8785(4) 0.1281(3)
N7_2 N 0.2500(4) 0.9267(4) 0.3012(3)
N9_2 N 0.4498(4) 0.8496(4) 0.1336(3)
C33_2 C 0.1261(4) 0.9754(4) 0.1292(3)
N11_2 N 0.1720(4) 0.7260(4) 0.1168(3)
N8_2 N 0.2494(4) 0.9272(4) 0.9485(3)
Fe1_3 Fe 0.24901(6) 0.42725(6) 0.37499(4)
C29_3 C 0.2511(4) 0.4261(4) 0.4867(3)
C30_3 C 0.2496(4) 0.4266(5) 0.2636(3)
C31_3 C 0.2980(4) 0.3035(4) 0.3788(3)
C32_3 C 0.1254(4) 0.3785(4) 0.3719(3)
N6_3 N 0.4512(4) 0.5037(4) 0.3658(3)
N7_3 N 0.2500(4) 0.4267(4) 0.1988(3)
N8_3 N 0.2506(4) 0.4272(4) 0.5515(3)
N9_3 N 0.0502(4) 0.3496(4) 0.3664(3)
N10_3 N 0.1714(4) 0.6272(4) 0.3833(3)
C33_3 C 0.3739(4) 0.4754(4) 0.3708(3)
C34_3 C 0.2016(4) 0.5500(4) 0.3787(3)
N11_3 N 0.3280(4) 0.2260(4) 0.3832(3)
Fe1_4 Fe 0.75099(6) 0.42725(6) 0.62501(4)
C29_4 C 0.7489(4) 0.4261(4) 0.5133(3)
C30_4 C 0.7504(4) 0.4266(5) 0.7364(3)
C31_4 C 0.7020(4) 0.3035(4) 0.6212(3)
C32_4 C 0.8746(4) 0.3785(4) 0.6281(3)
N6_4 N 0.5488(4) 0.5037(4) 0.6342(3)
N7_4 N 0.7500(4) 0.4267(4) 0.8012(3)
N8_4 N 0.7494(4) 0.4272(4) 0.4485(3)
N9_4 N 0.9498(4) 0.3496(4) 0.6336(3)
N10_4 N 0.8286(4) 0.6272(4) 0.6167(3)
C33_4 C 0.6261(4) 0.4754(4) 0.6292(3)
C34_4 C 0.7984(4) 0.5500(4) 0.6213(3)
N11_4 N 0.6720(4) 0.2260(4) 0.6168(3)
loop_
_geom_bond_atom_site_label_1
_geom_bond_atom_site_label_2
_geom_bond_site_symmetry_1
_geom_bond_site_symmetry_2
H5 C12 1_555 1_555
N3 Nd6 1_555 1_555
Nd1 O4 1_555 1_555
Nd2 N2 1_555 1_555
Nd3 N1 1_555 1_555
N1 C1 1_555 1_555
N2 C2 1_555 1_555
O1 Nd2 1_555 1_555
O2 Nd2 1_555 1_555
O3 Nd2 1_555 1_555
O4 C7 1_555 1_555
O5 C9 1_555 1_555
O6 C14 1_555 1_555
O7 Nd2 1_555 1_555
O10 Nd2 1_555 1_555
O11 Nd2 1_555 1_555
O12 Nd1 1_555 1_555
O13 Nd3 1_555 1_555
C1 C5 1_555 1_555
C2 C7 1_555 1_555
O14 Nd2 1_555 1_555
O15 Nd2 1_555 1_555
C3 N2 1_555 1_555
C4 H1 1_555 1_555
C5 O2 1_555 1_555
C6 C3 1_555 1_555
H2 C6 1_555 1_555
C7 O3 1_555 1_555
C8 C2 1_555 1_555
H3 C8 1_555 1_555
C9 O7 1_555 1_555
N3_2 C10 1_555 1_555
C10 C9 1_555 1_555
C11 C10 1_555 1_555
H4 C11 1_555 1_555
C12_2 C11 1_555 1_555
H5_2 C12_2 1_555 1_555
C13 H6 1_555 1_555
C14 O1 1_555 1_555
C15 C1 1_555 1_555
H7 C15 1_555 1_555
O25 Nd3 1_555 1_555
O30 Nd3 1_555 1_555
O32 Nd1 1_555 1_555
Nd6_2 O5 1_555 1_555
Nd9_2 O6 1_555 1_555
O33 Nd1 1_555 1_555
O13 C5 1_555 1_555
C3 C14 1_555 1_555
C4 C6 1_555 1_555
C4 C8 1_555 1_555
N3_2 Nd6_2 1_555 1_555
C13 C15 1_555 1_555
O30 H25 1_555 1_555
O30 H26 1_555 1_555
O25 H33 1_555 1_555
H5_3 C12_3 1_555 1_555
O19 C19 1_555 1_555
O20 C19 1_555 1_555
C19 C20 1_555 1_555
C20 N3_3 1_555 1_555
C21 C12_3 1_555 1_555
H9 C21 1_555 1_555
Nd7 O20 1_555 1_555
N3_3 Nd6_3 1_555 1_555
O19 Nd6_3 1_555 1_555
C20 C21 1_555 1_555
Nd3_2 N1_2 1_555 1_555
O9 Nd3_2 1_555 1_555
H5_4 C12_4 1_555 1_555
C13_2 H6_2 1_555 1_555
O16 Nd3_2 1_555 1_555
O17 C17 1_555 1_555
O18 Nd3_2 1_555 1_555
C16 N1_2 1_555 1_555
C17 O18 1_555 1_555
C18 C13_2 1_555 1_555
H8 C18 1_555 1_555
Nd7 O17 1_555 1_555
N4 Nd7 1_555 1_555
O21 Nd7 1_555 1_555
O22 Nd7 1_555 1_555
O33 C26 1_555 1_555
O24 C28 1_555 1_555
O26 Nd7 1_555 1_555
O27 Nd7 1_555 1_555
C22 N4 1_555 1_555
O28 Nd7 1_555 1_555
O29 Nd7 1_555 1_555
C23 N4 1_555 1_555
C24 H10 1_555 1_555
C25 C23 1_555 1_555
H11 C25 1_555 1_555
C26 O22 1_555 1_555
C27 C22 1_555 1_555
H12 C27 1_555 1_555
C28 O21 1_555 1_555
Nd9 O24 1_555 1_555
N3_4 Nd6_4 1_555 1_555
C16 C17 1_555 1_555
C16 C18 1_555 1_555
C22 C26 1_555 1_555
C23 C28 1_555 1_555
C24 C25 1_555 1_555
C24 C27 1_555 1_555
O9 H19 1_555 1_555
O16 H35 1_555 1_555
O16 H36 1_555 1_555
Nd6 O4_2 1_555 1_555
O8_2 Nd6 1_555 1_555
C4_2 H1_2 1_555 1_555
C6_2 C3_2 1_555 1_555
H2_2 C6_2 1_555 1_555
C8_2 C2_2 1_555 1_555
H3_2 C8_2 1_555 1_555
C4_2 C6_2 1_555 1_555
C4_2 C8_2 1_555 1_555
O32_2 Nd6_2 1_555 1_555
Nd2_2 N2_2 1_555 1_555
Nd9 N1_3 1_555 1_555
N1_3 C1_2 1_555 1_555
O1_2 Nd2_2 1_555 1_555
O2_2 Nd2_2 1_555 1_555
O3_2 Nd2_2 1_555 1_555
O34 C9_2 1_555 1_555
O7_2 Nd2_2 1_555 1_555
O10_2 Nd2_2 1_555 1_555
O11_2 Nd2_2 1_555 1_555
O12_2 Nd6_3 1_555 1_555
O13_2 Nd9 1_555 1_555
C1_2 C5_2 1_555 1_555
O14_2 Nd2_2 1_555 1_555
O15_2 Nd2_2 1_555 1_555
C5_2 O2_2 1_555 1_555
C7_2 O3_2 1_555 1_555
C9_2 O7_2 1_555 1_555
N5 C10_2 1_555 1_555
C10_2 C9_2 1_555 1_555
C11_2 C10_2 1_555 1_555
H4_2 C11_2 1_555 1_555
C12_5 C11_2 1_555 1_555
H5_5 C12_5 1_555 1_555
C14_2 O1_2 1_555 1_555
C15_2 C1_2 1_555 1_555
H7_2 C15_2 1_555 1_555
O16_2 Nd9 1_555 1_555
O35 C19_2 1_555 1_555
O20_2 C19_2 1_555 1_555
C19_2 C20_2 1_555 1_555
C20_2 N5 1_555 1_555
C21_2 C12_5 1_555 1_555
H9_2 C21_2 1_555 1_555
O25_2 Nd9 1_555 1_555
Nd7_2 O20_2 1_555 1_555
O13_2 C5_2 1_555 1_555
C13_3 C15_2 1_555 1_555
C20_2 C21_2 1_555 1_555
O10_2 H14 1_555 1_555
O25_2 H34_2 1_555 1_555
O16_2 H35_2 1_555 1_555
O16_2 H36_2 1_555 1_555
Nd9_2 N1_4 1_555 1_555
O9_2 Nd9_2 1_555 1_555
O17_2 C17_2 1_555 1_555
O18_2 Nd9_2 1_555 1_555
C16_2 N1_4 1_555 1_555
C17_2 O18_2 1_555 1_555
C18_2 C13_4 1_555 1_555
H8_2 C18_2 1_555 1_555
Nd7_2 O17_2 1_555 1_555
N4_2 Nd7_2 1_555 1_555
O21_2 Nd7_2 1_555 1_555
O22_2 Nd7_2 1_555 1_555
O26_2 Nd7_2 1_555 1_555
O27_2 Nd7_2 1_555 1_555
O28_2 Nd7_2 1_555 1_555
O29_2 Nd7_2 1_555 1_555
C26_2 O22_2 1_555 1_555
C28_2 O21_2 1_555 1_555
O30_2 Nd9_2 1_555 1_555
O31_2 Nd6_4 1_555 1_555
O33_2 Nd6_4 1_555 1_555
C16_2 C17_2 1_555 1_555
C16_2 C18_2 1_555 1_555
O9_2 H20_2 1_555 1_555
O30_2 H25_2 1_555 1_555
O30_2 H26_2 1_555 1_555
C24_2 H10_2 1_555 1_555
C25_2 C23_2 1_555 1_555
H11_2 C25_2 1_555 1_555
C27_2 C22_2 1_555 1_555
H12_2 C27_2 1_555 1_555
C24_2 C25_2 1_555 1_555
C24_2 C27_2 1_555 1_555
O26_2 H14_2 1_555 1_555
N10 C34 1_555 1_555
Fe1 C29 1_555 1_555
C30 Fe1 1_555 1_555
C31 Fe1 1_555 1_555
C32 Fe1 1_555 1_555
N7 C30 1_555 1_555
N9 C32 1_555 1_555
C33 Fe1 1_555 1_555
N11 C31 1_555 1_555
N10_2 C34_2 1_555 1_555
Fe1_2 C29_2 1_555 1_555
C30_2 Fe1_2 1_555 1_555
C31_2 Fe1_2 1_555 1_555
C32_2 Fe1_2 1_555 1_555
N7_2 C30_2 1_555 1_555
N9_2 C32_2 1_555 1_555
C33_2 Fe1_2 1_555 1_555
N11_2 C31_2 1_555 1_555
Fe1_3 C29_3 1_555 1_555
C29_3 N8_3 1_555 1_555
C30_3 Fe1_3 1_555 1_555
C31_3 Fe1_3 1_555 1_555
C32_3 Fe1_3 1_555 1_555
N6_3 C33_3 1_555 1_555
N7_3 C30_3 1_555 1_555
N9_3 C32_3 1_555 1_555
N10_3 C34_3 1_555 1_555
C33_3 Fe1_3 1_555 1_555
C34_3 Fe1_3 1_555 1_555
N11_3 C31_3 1_555 1_555
Fe1_4 C29_4 1_555 1_555
C29_4 N8_4 1_555 1_555
C30_4 Fe1_4 1_555 1_555
C31_4 Fe1_4 1_555 1_555
C32_4 Fe1_4 1_555 1_555
N6_4 C33_4 1_555 1_555
N7_4 C30_4 1_555 1_555
N9_4 C32_4 1_555 1_555
N10_4 C34_4 1_555 1_555
C33_4 Fe1_4 1_555 1_555
C34_4 Fe1_4 1_555 1_555
N11_4 C31_4 1_555 1_555

#END
