
###############################################################################
#
# This file contains modified crystal structure data generated from the
# MOF subset of the Cambridge Structural Database (CSD) v543 
# hosted by the Cambridge Crystallographic Data Centre (CCDC).
#
# This work is licensed under the Creative Commons
# Attribution-NonCommercial-ShareAlike 4.0 International License.
# To view a copy of this license, visit
# http://creativecommons.org/licenses/by-nc-sa/4.0/
# or send a letter to
# Creative Commons, PO Box 1866, Mountain View, CA 94042, USA.
#
# CIF created using the CSD Python API on 29 September 2022
# The structure has been converted into the P1 space group
# The structure has a 3D framework
# The original CSD entry BUXNOZ is in the orthorhombic crystal system
# The framework has been calculated to contain at least 10.0% void space
# The void calculation uses a probe of radius 1.32A, grid spacing 0.4
# H atom positions have been added when not included in the experimental data
# Generated hydrogen atom positions removed from atoms on special positions
#
###############################################################################

data_BUXNOZ
_chemical_formula_moiety         '(C336 H256 Cu40 N64 O200)n'
_symmetry_cell_setting           triclinic
_symmetry_space_group_name_H-M   'P 1'
_symmetry_Int_Tables_number      1
_space_group_name_Hall           'P 1'
loop_
_symmetry_equiv_pos_site_id
_symmetry_equiv_pos_as_xyz
1 x,y,z
_cell_length_a                   27.670(6)
_cell_length_b                   29.297(6)
_cell_length_c                   25.912(6)
_cell_angle_alpha                90
_cell_angle_beta                 90
_cell_angle_gamma                90
_cell_volume                     21005.5
loop_
_atom_site_label
_atom_site_type_symbol
_atom_site_fract_x
_atom_site_fract_y
_atom_site_fract_z
C1 C 0.1536(4) 0.4559(3) 0.0741(5)
C2 C 0.1432(7) 0.4088(6) 0.0974(8)
H1 H 0.1220 0.4014 0.1240
C3 C 0.1704(4) 0.3826(3) 0.0721(4)
C4 C 0.1421(5) 0.4991(4) 0.0975(6)
C5 C 0.1388(4) 0.5809(2) 0.0794(5)
C6 C 0.1099(3) 0.5936(2) 0.1237(4)
H2 H 0.0944 0.5713 0.1431
C7 C 0.1056(3) 0.6402(2) 0.1372(4)
C8 C 0.1283(2) 0.67261(18) 0.1121(3)
H3 H 0.1249 0.7029 0.1220
C9 C 0.1577(2) 0.6612(2) 0.0703(3)
C10 C 0.1619(3) 0.6160(2) 0.0541(3)
H4 H 0.1808 0.6094 0.0253
C11 C 0.0713(3) 0.6508(2) 0.1805(3)
C12 C 0.1844(3) 0.6974(2) 0.0393(4)
C13 C 0.1743(4) 0.3323(3) 0.0811(5)
C14 C 0.1324(4) 0.2620(2) 0.1033(5)
C15 C 0.1616(4) 0.2281(2) 0.0801(4)
H5 H 0.1856 0.2366 0.0569
C16 C 0.1549(3) 0.1829(2) 0.0915(4)
C17 C 0.1194(3) 0.1701(2) 0.1255(4)
H6 H 0.1162 0.1396 0.1348
C18 C 0.0880(3) 0.2024(2) 0.1463(4)
C19 C 0.0961(4) 0.2483(2) 0.1349(4)
H7 H 0.0759 0.2703 0.1494
C20 C 0.1859(3) 0.1478(2) 0.0673(4)
C21 C 0.0490(3) 0.1894(2) 0.1844(3)
C22 C 0.3313(3) 0.4754(2) 0.0695(3)
C23 C 0.3612(3) 0.4440(2) 0.0994(3)
H8 H 0.3866 0.4497 0.1221
C24 C 0.3395(4) 0.4014(3) 0.0833(5)
C25 C 0.3580(6) 0.3570(5) 0.1055(7)
C26 C 0.3644(4) 0.2751(2) 0.0955(4)
C27 C 0.3390(3) 0.2403(2) 0.0683(4)
H9 H 0.3169 0.2467 0.0422
C28 C 0.3498(4) 0.1955(2) 0.0839(5)
C29 C 0.3831(3) 0.1859(2) 0.1184(4)
H10 H 0.3907 0.1554 0.1244
C30 C 0.4076(3) 0.2192(2) 0.1460(4)
C31 C 0.3976(4) 0.2653(2) 0.1319(4)
H11 H 0.4142 0.2889 0.1480
C32 C 0.4437(3) 0.2075(2) 0.1828(3)
C33 C 0.3226(3) 0.1573(2) 0.0535(4)
C34 C 0.3280(4) 0.5215(3) 0.0679(4)
C35 C 0.3646(3) 0.5945(2) 0.0923(4)
C36 C 0.3934(3) 0.6111(3) 0.1333(4)
H12 H 0.4102 0.5907 0.1541
C37 C 0.3968(3) 0.6574(2) 0.1426(3)
C38 C 0.3680(3) 0.6878(2) 0.1157(3)
H13 H 0.3686 0.7187 0.1236
C39 C 0.3387(3) 0.6718(2) 0.0772(3)
C40 C 0.3362(3) 0.6262(2) 0.0648(4)
H14 H 0.3160 0.6164 0.0384
C41 C 0.3084(2) 0.7047(2) 0.0467(3)
C42 C 0.4332(3) 0.6715(2) 0.1814(3)
Cu1 Cu 0.25445(3) 0.36895(2) 0.01568(3)
Cu2 Cu 0.24831(3) 0.48489(2) 0.01022(4)
Cu4 Cu 0.02738(4) 0.71256(3) 0.2500
Cu6 Cu 0.47753(4) 0.73281(3) 0.2500
Cu7 Cu 0.50889(4) 0.64767(3) 0.2500
N1 N 0.2027(2) 0.40444(16) 0.0458(3)
N2 N 0.1927(2) 0.44856(16) 0.0456(3)
N3 N 0.3025(3) 0.40559(18) 0.0544(3)
N4 N 0.2964(3) 0.45027(17) 0.0466(3)
N5 N 0.1356(3) 0.3093(2) 0.0937(4)
H15 H 0.1092 0.3246 0.0965
N6 N 0.3495(3) 0.31932(19) 0.0833(3)
H16 H 0.3316 0.3213 0.0562
N7 N 0.1484(3) 0.53719(18) 0.0680(3)
H17 H 0.1603 0.5325 0.0378
N8 N 0.3641(4) 0.5474(2) 0.0852(4)
H18 H 0.3904 0.5333 0.0929
O1 O 0.2179(3) 0.31475(16) 0.0724(3)
O2 O 0.2927(2) 0.53725(16) 0.0404(3)
O3 O 0.1140(4) 0.4977(3) 0.1350(5)
O4 O 0.3819(6) 0.3612(4) 0.1438(6)
O5 O 0.02205(18) 0.22171(14) 0.1994(2)
O6 O 0.04905(17) 0.14893(15) 0.1978(2)
O8 O 0.1841(2) 0.10718(16) 0.0820(3)
O9 O 0.21271(18) 0.16160(13) 0.0315(2)
O10 O 0.30317(17) 0.16993(14) 0.0116(2)
O11 O 0.3221(2) 0.11947(16) 0.0720(3)
O12 O 0.4473(2) 0.16725(16) 0.1964(3)
O13 O 0.47165(18) 0.24034(15) 0.1972(2)
O14 O 0.4611(2) 0.64107(16) 0.1976(2)
O15 O 0.43276(17) 0.71227(14) 0.1958(2)
O16 O 0.29691(17) 0.74156(12) 0.0698(2)
O17 O 0.29130(17) 0.69050(13) 0.0056(2)
O19 O 0.19795(19) 0.73265(13) 0.0674(2)
O20 O 0.07188(16) 0.69114(13) 0.1959(2)
O21 O 0.04411(18) 0.61864(15) 0.1973(2)
O24 O 0.5310(3) 0.5787(2) 0.2500
O25 O 0.4559(3) 0.8033(2) 0.2500
O26 O 0.0531(3) 0.7802(2) 0.2500
O50 O 0.2564(2) 0.05356(17) 0.0554(2)
Cu13 Cu 0.00430(4) 0.12728(3) 0.2500
Cu18 Cu 0.24508(3) 0.77811(2) 0.04068(3)
Cu21 Cu 0.52247(4) 0.23281(3) 0.2500
Cu24 Cu 0.49111(4) 0.14767(3) 0.2500
O55 O 0.5527(2) 0.66725(16) 0.3036(3)
O56 O 0.5527(2) 0.66725(16) 0.1964(3)
O57 O 0.52835(18) 0.74034(15) 0.3028(2)
O58 O 0.52835(18) 0.74034(15) 0.1972(2)
O59 O 0.4611(2) 0.64107(16) 0.3024(2)
O60 O 0.43276(17) 0.71227(14) 0.3042(2)
O65 O 0.07188(16) 0.69114(13) 0.3041(2)
O66 O 0.04411(18) 0.61864(15) 0.3027(2)
H45 H 0.000115799 0.537641 0.259199
H47 H 0.187284 0.54498 0.00566645
H51 H 0.225594 0.0536785 0.075057
H52 H 0.282423 0.0402816 0.0771027
Cu5 Cu 0.24508(3) 0.72189(2) 0.95932(3)
O7 O 0.2464(2) 0.67209(16) 0.8984(2)
O18 O 0.19520(18) 0.68909(14) 0.9961(2)
O22 O 0.20573(18) 0.52861(14) 0.9785(2)
O23 O 0.2564(2) 0.44644(17) 0.9446(2)
C43 C 0.1536(4) 0.0441(3) 0.9259(5)
C44 C 0.1432(7) 0.0912(6) 0.9026(8)
H19 H 0.1220 0.0986 0.8760
C45 C 0.1704(4) 0.1174(3) 0.9279(4)
C46 C 0.1421(5) 0.0009(4) 0.9025(6)
C55 C 0.1743(4) 0.1677(3) 0.9189(5)
C56 C 0.1324(4) 0.2380(2) 0.8967(5)
C57 C 0.1616(4) 0.2719(2) 0.9199(4)
H23 H 0.1856 0.2634 0.9431
C58 C 0.1549(3) 0.3171(2) 0.9085(4)
C59 C 0.1194(3) 0.3299(2) 0.8745(4)
H24 H 0.1162 0.3604 0.8652
C60 C 0.0880(3) 0.2976(2) 0.8537(4)
C61 C 0.0961(4) 0.2517(2) 0.8651(4)
H25 H 0.0759 0.2297 0.8506
C62 C 0.1859(3) 0.3522(2) 0.9327(4)
C63 C 0.0490(3) 0.3106(2) 0.8156(3)
C64 C 0.3313(3) 0.0246(2) 0.9305(3)
C65 C 0.3612(3) 0.0560(2) 0.9006(3)
H26 H 0.3866 0.0503 0.8779
C66 C 0.3395(4) 0.0986(3) 0.9167(5)
C67 C 0.3580(6) 0.1430(5) 0.8945(7)
C68 C 0.3644(4) 0.2249(2) 0.9045(4)
C69 C 0.3390(3) 0.2597(2) 0.9317(4)
H27 H 0.3169 0.2533 0.9578
C70 C 0.3498(4) 0.3045(2) 0.9161(5)
C71 C 0.3831(3) 0.3141(2) 0.8816(4)
H28 H 0.3907 0.3446 0.8756
C72 C 0.4076(3) 0.2808(2) 0.8540(4)
C73 C 0.3976(4) 0.2347(2) 0.8681(4)
H29 H 0.4142 0.2111 0.8520
C74 C 0.4437(3) 0.2925(2) 0.8172(3)
C75 C 0.3226(3) 0.3427(2) 0.9465(4)
Cu8 Cu 0.25445(3) 0.13105(2) 0.98432(3)
Cu9 Cu 0.24831(3) 0.01511(2) 0.98978(4)
N9 N 0.2027(2) 0.09556(16) 0.9542(3)
N10 N 0.1927(2) 0.05144(16) 0.9544(3)
N11 N 0.3025(3) 0.09441(18) 0.9456(3)
N12 N 0.2964(3) 0.04973(17) 0.9534(3)
N13 N 0.1356(3) 0.1907(2) 0.9063(4)
H33 H 0.1092 0.1754 0.9035
N14 N 0.3495(3) 0.18068(19) 0.9167(3)
H34 H 0.3316 0.1787 0.9438
O28 O 0.2179(3) 0.18525(16) 0.9276(3)
O30 O 0.1140(4) 0.0023(3) 0.8650(5)
O31 O 0.3819(6) 0.1388(4) 0.8562(6)
O32 O 0.02205(18) 0.27829(14) 0.8006(2)
O33 O 0.04905(17) 0.35107(15) 0.8022(2)
O35 O 0.1841(2) 0.39282(16) 0.9180(3)
O36 O 0.21271(18) 0.33840(13) 0.9685(2)
O37 O 0.30317(17) 0.33007(14) 0.9884(2)
O38 O 0.3221(2) 0.38053(16) 0.9280(3)
O39 O 0.4473(2) 0.33275(16) 0.8036(3)
O40 O 0.47165(18) 0.25966(15) 0.8028(2)
Cu11 Cu 0.00430(4) 0.37272(3) 0.7500
Cu19 Cu 0.52247(4) 0.26719(3) 0.7500
Cu22 Cu 0.49111(4) 0.35233(3) 0.7500
O62 O 0.29691(17) 0.75844(12) 0.9302(2)
O64 O 0.19795(19) 0.76735(13) 0.9326(2)
H41 H 0.225594 0.446322 0.924943
H42 H 0.282423 0.459718 0.922897
H48 H 0.225041 0.550884 0.958274
H49 H 0.235447 0.642146 0.912023
H50 H 0.224522 0.681961 0.870147
O34 O 0.2464(2) 0.82791(16) 0.1016(2)
O45 O 0.19520(18) 0.81091(14) 0.0039(2)
O49 O 0.20573(18) 0.97139(14) 0.0215(2)
H54 H 0.225041 0.949116 0.041726
H55 H 0.235447 0.857854 0.0879765
H56 H 0.224522 0.818039 0.129853
C47 C 0.1388(4) 0.9191(2) 0.9206(5)
C48 C 0.1099(3) 0.9064(2) 0.8763(4)
H20 H 0.0944 0.9287 0.8569
C49 C 0.1056(3) 0.8598(2) 0.8628(4)
C50 C 0.1283(2) 0.82739(18) 0.8879(3)
H21 H 0.1249 0.7971 0.8780
C51 C 0.1577(2) 0.8388(2) 0.9297(3)
C52 C 0.1619(3) 0.8840(2) 0.9459(3)
H22 H 0.1808 0.8906 0.9747
C53 C 0.0713(3) 0.8492(2) 0.8195(3)
C54 C 0.1844(3) 0.8026(2) 0.9607(4)
C76 C 0.3280(4) 0.9785(3) 0.9321(4)
C77 C 0.3646(3) 0.9055(2) 0.9077(4)
C78 C 0.3934(3) 0.8889(3) 0.8667(4)
H30 H 0.4102 0.9093 0.8459
C79 C 0.3968(3) 0.8426(2) 0.8574(3)
C80 C 0.3680(3) 0.8122(2) 0.8843(3)
H31 H 0.3686 0.7813 0.8764
C81 C 0.3387(3) 0.8282(2) 0.9228(3)
C82 C 0.3362(3) 0.8738(2) 0.9352(4)
H32 H 0.3160 0.8836 0.9616
C83 C 0.3084(2) 0.7953(2) 0.9533(3)
C84 C 0.4332(3) 0.8285(2) 0.8186(3)
N15 N 0.1484(3) 0.96281(18) 0.9320(3)
H35 H 0.1603 0.9675 0.9622
N16 N 0.3641(4) 0.9526(2) 0.9148(4)
H36 H 0.3904 0.9667 0.9071
O29 O 0.2927(2) 0.96275(16) 0.9596(3)
O41 O 0.4611(2) 0.85893(16) 0.8024(2)
O42 O 0.43276(17) 0.78773(14) 0.8042(2)
O44 O 0.29130(17) 0.80950(13) 0.9944(2)
O47 O 0.07188(16) 0.80886(13) 0.8041(2)
O48 O 0.04411(18) 0.88136(15) 0.8027(2)
Cu15 Cu 0.02738(4) 0.78744(3) 0.7500
Cu20 Cu 0.47753(4) 0.76719(3) 0.7500
Cu23 Cu 0.50889(4) 0.85233(3) 0.7500
H53 H 0.187284 0.95502 0.994334
Cu3 Cu 0.99570(4) 0.62728(3) 0.2500
O27 O 0.9725(3) 0.5577(2) 0.2500
Cu16 Cu 0.97262(4) 0.21256(3) 0.2500
O51 O 0.97795(18) 0.72171(14) 0.3006(2)
O52 O 0.97795(18) 0.72171(14) 0.1994(2)
O53 O 0.95095(17) 0.64893(15) 0.3022(2)
O54 O 0.95095(17) 0.64893(15) 0.1978(2)
H46 H 0.946187 0.553681 0.275659
Cu14 Cu 0.97262(4) 0.28744(3) 0.7500
Cu12 Cu 0.99570(4) 0.87272(3) 0.7500
O27_2 O 0.0275(3) 0.4423(2) 0.7500
O52_2 O 0.02205(18) 0.27829(14) 0.6994(2)
O54_2 O 0.04905(17) 0.35107(15) 0.6978(2)
H46_2 H 0.0538133 0.446319 0.775659
C47_2 C 0.8612(4) 0.0809(2) 0.4206(5)
C48_2 C 0.8901(3) 0.0936(2) 0.3763(4)
H20_2 H 0.9056 0.0713 0.3569
C49_2 C 0.8944(3) 0.1402(2) 0.3628(4)
C50_2 C 0.8717(2) 0.17261(18) 0.3879(3)
H21_2 H 0.8751 0.2029 0.3780
C51_2 C 0.8423(2) 0.1612(2) 0.4297(3)
C52_2 C 0.8381(3) 0.1160(2) 0.4459(3)
H22_2 H 0.8192 0.1094 0.4747
C53_2 C 0.9287(3) 0.1508(2) 0.3195(3)
C54_2 C 0.8156(3) 0.1974(2) 0.4607(4)
C76_2 C 0.6720(4) 0.0215(3) 0.4321(4)
C77_2 C 0.6354(3) 0.0945(2) 0.4077(4)
C78_2 C 0.6066(3) 0.1111(3) 0.3667(4)
H30_2 H 0.5898 0.0907 0.3459
C79_2 C 0.6032(3) 0.1574(2) 0.3574(3)
C80_2 C 0.6320(3) 0.1878(2) 0.3843(3)
H31_2 H 0.6314 0.2187 0.3764
C81_2 C 0.6613(3) 0.1718(2) 0.4228(3)
C82_2 C 0.6638(3) 0.1262(2) 0.4352(4)
H32_2 H 0.6840 0.1164 0.4616
C83_2 C 0.6916(2) 0.2047(2) 0.4533(3)
C84_2 C 0.5668(3) 0.1715(2) 0.3186(3)
Cu10 Cu 0.75492(3) 0.22189(2) 0.54068(3)
N15_2 N 0.8516(3) 0.03719(18) 0.4320(3)
H35_2 H 0.8397 0.0325 0.4622
N16_2 N 0.6359(4) 0.0474(2) 0.4148(4)
H36_2 H 0.6096 0.0333 0.4071
O29_2 O 0.7073(2) 0.03725(16) 0.4596(3)
O34_2 O 0.7536(2) 0.17209(16) 0.6016(2)
O41_2 O 0.5389(2) 0.14107(16) 0.3024(2)
O42_2 O 0.56724(17) 0.21227(14) 0.3042(2)
O43 O 0.70309(17) 0.24156(12) 0.4302(2)
O44_2 O 0.70870(17) 0.19050(13) 0.4944(2)
O45_2 O 0.80480(18) 0.18909(14) 0.5039(2)
O46 O 0.80205(19) 0.23265(13) 0.4326(2)
O47_2 O 0.92812(16) 0.19114(13) 0.3041(2)
O48_2 O 0.95589(18) 0.11864(15) 0.3027(2)
O49_2 O 0.79427(18) 0.02861(14) 0.5215(2)
Cu17 Cu 0.75492(3) 0.27811(2) 0.45932(3)
O61 O 0.70309(17) 0.25844(12) 0.5698(2)
O63 O 0.80205(19) 0.26735(13) 0.5674(2)
H53_2 H 0.812716 0.0449804 0.494334
H54_2 H 0.774959 0.0508842 0.541726
H55_2 H 0.764553 0.142146 0.587977
H56_2 H 0.775478 0.181961 0.629853
C1_2 C 0.8464(4) 0.5441(3) 0.5741(5)
C2_2 C 0.8568(7) 0.5912(6) 0.5974(8)
H1_2 H 0.8780 0.5986 0.6240
C3_2 C 0.8296(4) 0.6174(3) 0.5721(4)
C4_2 C 0.8579(5) 0.5009(4) 0.5975(6)
C5_2 C 0.8612(4) 0.4191(2) 0.5794(5)
C6_2 C 0.8901(3) 0.4064(2) 0.6237(4)
H2_2 H 0.9056 0.4287 0.6431
C7_2 C 0.8944(3) 0.3598(2) 0.6372(4)
C8_2 C 0.8717(2) 0.32739(18) 0.6121(3)
H3_2 H 0.8751 0.2971 0.6220
C9_2 C 0.8423(2) 0.3388(2) 0.5703(3)
C10_2 C 0.8381(3) 0.3840(2) 0.5541(3)
H4_2 H 0.8192 0.3906 0.5253
C11_2 C 0.9287(3) 0.3492(2) 0.6805(3)
C12_2 C 0.8156(3) 0.3026(2) 0.5393(4)
C13_2 C 0.8257(4) 0.6677(3) 0.5811(5)
C14_2 C 0.8676(4) 0.7380(2) 0.6033(5)
C15_2 C 0.8384(4) 0.7719(2) 0.5801(4)
H5_2 H 0.8144 0.7634 0.5569
C16_2 C 0.8451(3) 0.8171(2) 0.5915(4)
C17_2 C 0.8806(3) 0.8299(2) 0.6255(4)
H6_2 H 0.8838 0.8604 0.6348
C18_2 C 0.9120(3) 0.7976(2) 0.6463(4)
C19_2 C 0.9039(4) 0.7517(2) 0.6349(4)
H7_2 H 0.9241 0.7297 0.6494
C20_2 C 0.8141(3) 0.8522(2) 0.5673(4)
C21_2 C 0.9510(3) 0.8106(2) 0.6844(3)
C22_2 C 0.6687(3) 0.5246(2) 0.5695(3)
C23_2 C 0.6388(3) 0.5560(2) 0.5994(3)
H8_2 H 0.6134 0.5503 0.6221
C24_2 C 0.6605(4) 0.5986(3) 0.5833(5)
C25_2 C 0.6420(6) 0.6430(5) 0.6055(7)
C26_2 C 0.6356(4) 0.7249(2) 0.5955(4)
C27_2 C 0.6610(3) 0.7597(2) 0.5683(4)
H9_2 H 0.6831 0.7533 0.5422
C28_2 C 0.6502(4) 0.8045(2) 0.5839(5)
C29_2 C 0.6169(3) 0.8141(2) 0.6184(4)
H10_2 H 0.6093 0.8446 0.6244
C30_2 C 0.5924(3) 0.7808(2) 0.6460(4)
C31_2 C 0.6024(4) 0.7347(2) 0.6319(4)
H11_2 H 0.5858 0.7111 0.6480
C32_2 C 0.5563(3) 0.7925(2) 0.6828(3)
C33_2 C 0.6774(3) 0.8427(2) 0.5535(4)
C34_2 C 0.6720(4) 0.4785(3) 0.5679(4)
C35_2 C 0.6354(3) 0.4055(2) 0.5923(4)
C36_2 C 0.6066(3) 0.3889(3) 0.6333(4)
H12_2 H 0.5898 0.4093 0.6541
C37_2 C 0.6032(3) 0.3426(2) 0.6426(3)
C38_2 C 0.6320(3) 0.3122(2) 0.6157(3)
H13_2 H 0.6314 0.2813 0.6236
C39_2 C 0.6613(3) 0.3282(2) 0.5772(3)
C40_2 C 0.6638(3) 0.3738(2) 0.5648(4)
H14_2 H 0.6840 0.3836 0.5384
C41_2 C 0.6916(2) 0.2953(2) 0.5467(3)
C42_2 C 0.5668(3) 0.3285(2) 0.6814(3)
Cu1_2 Cu 0.74555(3) 0.63105(2) 0.51568(3)
Cu2_2 Cu 0.75169(3) 0.51511(2) 0.51022(4)
N1_2 N 0.7973(2) 0.59556(16) 0.5458(3)
N2_2 N 0.8073(2) 0.55144(16) 0.5456(3)
N3_2 N 0.6975(3) 0.59441(18) 0.5544(3)
N4_2 N 0.7036(3) 0.54973(17) 0.5466(3)
N5_2 N 0.8644(3) 0.6907(2) 0.5937(4)
H15_2 H 0.8908 0.6754 0.5965
N6_2 N 0.6505(3) 0.68068(19) 0.5833(3)
H16_2 H 0.6684 0.6787 0.5562
N7_2 N 0.8516(3) 0.46281(18) 0.5680(3)
H17_2 H 0.8397 0.4675 0.5378
N8_2 N 0.6359(4) 0.4526(2) 0.5852(4)
H18_2 H 0.6096 0.4667 0.5929
O1_2 O 0.7821(3) 0.68525(16) 0.5724(3)
O2_2 O 0.7073(2) 0.46275(16) 0.5404(3)
O3_2 O 0.8860(4) 0.5023(3) 0.6350(5)
O4_2 O 0.6181(6) 0.6388(4) 0.6438(6)
O5_2 O 0.97795(18) 0.77829(14) 0.6994(2)
O6_2 O 0.95095(17) 0.85107(15) 0.6978(2)
O7_2 O 0.7536(2) 0.32791(16) 0.3984(2)
O8_2 O 0.8159(2) 0.89282(16) 0.5820(3)
O9_2 O 0.78729(18) 0.83840(13) 0.5315(2)
O10_2 O 0.69683(17) 0.83007(14) 0.5116(2)
O11_2 O 0.6779(2) 0.88053(16) 0.5720(3)
O12_2 O 0.5527(2) 0.83275(16) 0.6964(3)
O13_2 O 0.52835(18) 0.75966(15) 0.6972(2)
O14_2 O 0.5389(2) 0.35893(16) 0.6976(2)
O15_2 O 0.56724(17) 0.28773(14) 0.6958(2)
O17_2 O 0.70870(17) 0.30950(13) 0.5056(2)
O18_2 O 0.80480(18) 0.31091(14) 0.4961(2)
O20_2 O 0.92812(16) 0.30886(13) 0.6959(2)
O21_2 O 0.95589(18) 0.38136(15) 0.6973(2)
O22_2 O 0.79427(18) 0.47139(14) 0.4785(2)
O23_2 O 0.7436(2) 0.55356(17) 0.4446(2)
O24_2 O 0.4690(3) 0.4213(2) 0.7500
O25_2 O 0.5441(3) 0.1967(2) 0.7500
O26_2 O 0.9469(3) 0.2198(2) 0.7500
C43_2 C 0.8464(4) 0.9559(3) 0.4259(5)
C44_2 C 0.8568(7) 0.9088(6) 0.4026(8)
H19_2 H 0.8780 0.9014 0.3760
C45_2 C 0.8296(4) 0.8826(3) 0.4279(4)
C46_2 C 0.8579(5) 0.9991(4) 0.4025(6)
C55_2 C 0.8257(4) 0.8323(3) 0.4189(5)
C56_2 C 0.8676(4) 0.7620(2) 0.3967(5)
C57_2 C 0.8384(4) 0.7281(2) 0.4199(4)
H23_2 H 0.8144 0.7366 0.4431
C58_2 C 0.8451(3) 0.6829(2) 0.4085(4)
C59_2 C 0.8806(3) 0.6701(2) 0.3745(4)
H24_2 H 0.8838 0.6396 0.3652
C60_2 C 0.9120(3) 0.7024(2) 0.3537(4)
C61_2 C 0.9039(4) 0.7483(2) 0.3651(4)
H25_2 H 0.9241 0.7703 0.3506
C62_2 C 0.8141(3) 0.6478(2) 0.4327(4)
C63_2 C 0.9510(3) 0.6894(2) 0.3156(3)
C64_2 C 0.6687(3) 0.9754(2) 0.4305(3)
C65_2 C 0.6388(3) 0.9440(2) 0.4006(3)
H26_2 H 0.6134 0.9497 0.3779
C66_2 C 0.6605(4) 0.9014(3) 0.4167(5)
C67_2 C 0.6420(6) 0.8570(5) 0.3945(7)
C68_2 C 0.6356(4) 0.7751(2) 0.4045(4)
C69_2 C 0.6610(3) 0.7403(2) 0.4317(4)
H27_2 H 0.6831 0.7467 0.4578
C70_2 C 0.6502(4) 0.6955(2) 0.4161(5)
C71_2 C 0.6169(3) 0.6859(2) 0.3816(4)
H28_2 H 0.6093 0.6554 0.3756
C72_2 C 0.5924(3) 0.7192(2) 0.3540(4)
C73_2 C 0.6024(4) 0.7653(2) 0.3681(4)
H29_2 H 0.5858 0.7889 0.3520
C74_2 C 0.5563(3) 0.7075(2) 0.3172(3)
C75_2 C 0.6774(3) 0.6573(2) 0.4465(4)
Cu8_2 Cu 0.74555(3) 0.86895(2) 0.48432(3)
Cu9_2 Cu 0.75169(3) 0.98489(2) 0.48978(4)
N9_2 N 0.7973(2) 0.90444(16) 0.4542(3)
N10_2 N 0.8073(2) 0.94856(16) 0.4544(3)
N11_2 N 0.6975(3) 0.90559(18) 0.4456(3)
N12_2 N 0.7036(3) 0.95027(17) 0.4534(3)
N13_2 N 0.8644(3) 0.8093(2) 0.4063(4)
H33_2 H 0.8908 0.8246 0.4035
N14_2 N 0.6505(3) 0.81932(19) 0.4167(3)
H34_2 H 0.6684 0.8213 0.4438
O28_2 O 0.7821(3) 0.81475(16) 0.4276(3)
O30_2 O 0.8860(4) 0.9977(3) 0.3650(5)
O31_2 O 0.6181(6) 0.8612(4) 0.3562(6)
O35_2 O 0.8159(2) 0.60718(16) 0.4180(3)
O36_2 O 0.78729(18) 0.66160(13) 0.4685(2)
O37_2 O 0.69683(17) 0.66993(14) 0.4884(2)
O38_2 O 0.6779(2) 0.61947(16) 0.4280(3)
O50_2 O 0.7436(2) 0.94644(17) 0.5554(2)
O56_2 O 0.4473(2) 0.33275(16) 0.6964(3)
O58_2 O 0.47165(18) 0.25966(15) 0.6972(2)
O59_2 O 0.5389(2) 0.35893(16) 0.8024(2)
O60_2 O 0.56724(17) 0.28773(14) 0.8042(2)
O65_2 O 0.92812(16) 0.30886(13) 0.8041(2)
O66_2 O 0.95589(18) 0.38136(15) 0.8027(2)
H41_2 H 0.774406 0.553678 0.424943
H42_2 H 0.717577 0.540282 0.422897
H45_2 H 0.999884 0.462359 0.759199
H47_2 H 0.812716 0.45502 0.505666
H48_2 H 0.774959 0.449116 0.458274
H49_2 H 0.764553 0.357854 0.412023
H50_2 H 0.775478 0.318039 0.370147
H51_2 H 0.774406 0.946322 0.575057
H52_2 H 0.717577 0.959718 0.577103
O24_3 O 0.5310(3) 0.9213(2) 0.7500
O25_3 O 0.4559(3) 0.6967(2) 0.7500
O26_3 O 0.0531(3) 0.7198(2) 0.7500
O56_3 O 0.5527(2) 0.83275(16) 0.8036(3)
O58_3 O 0.52835(18) 0.75966(15) 0.8028(2)
O59_3 O 0.4611(2) 0.85893(16) 0.6976(2)
O60_3 O 0.43276(17) 0.78773(14) 0.6958(2)
O65_3 O 0.07188(16) 0.80886(13) 0.6959(2)
O66_3 O 0.04411(18) 0.88136(15) 0.6973(2)
H45_3 H 0.000115799 0.962359 0.740801
O27_3 O 0.9725(3) 0.9423(2) 0.7500
O52_3 O 0.97795(18) 0.77829(14) 0.8006(2)
O54_3 O 0.95095(17) 0.85107(15) 0.8022(2)
H46_3 H 0.946187 0.946319 0.724341
O27_4 O 0.0275(3) 0.0577(2) 0.2500
O52_4 O 0.02205(18) 0.22171(14) 0.3006(2)
O54_4 O 0.04905(17) 0.14893(15) 0.3022(2)
H46_4 H 0.0538133 0.0536811 0.224341
O24_4 O 0.4690(3) 0.0787(2) 0.2500
O25_4 O 0.5441(3) 0.3033(2) 0.2500
O26_4 O 0.9469(3) 0.2802(2) 0.2500
O56_4 O 0.4473(2) 0.16725(16) 0.3036(3)
O58_4 O 0.47165(18) 0.24034(15) 0.3028(2)
O59_4 O 0.5389(2) 0.14107(16) 0.1976(2)
O60_4 O 0.56724(17) 0.21227(14) 0.1958(2)
O65_4 O 0.92812(16) 0.19114(13) 0.1959(2)
O66_4 O 0.95589(18) 0.11864(15) 0.1973(2)
H45_4 H 0.999884 0.0376413 0.240801
H46_5 H 0.0538133 0.446319 0.724341
C47_3 C 0.8612(4) 0.0809(2) 0.0794(5)
C48_3 C 0.8901(3) 0.0936(2) 0.1237(4)
H20_3 H 0.9056 0.0713 0.1431
C49_3 C 0.8944(3) 0.1402(2) 0.1372(4)
C50_3 C 0.8717(2) 0.17261(18) 0.1121(3)
H21_3 H 0.8751 0.2029 0.1220
C51_3 C 0.8423(2) 0.1612(2) 0.0703(3)
C52_3 C 0.8381(3) 0.1160(2) 0.0541(3)
H22_3 H 0.8192 0.1094 0.0253
C53_3 C 0.9287(3) 0.1508(2) 0.1805(3)
C54_3 C 0.8156(3) 0.1974(2) 0.0393(4)
C76_3 C 0.6720(4) 0.0215(3) 0.0679(4)
C77_3 C 0.6354(3) 0.0945(2) 0.0923(4)
C78_3 C 0.6066(3) 0.1111(3) 0.1333(4)
H30_3 H 0.5898 0.0907 0.1541
C79_3 C 0.6032(3) 0.1574(2) 0.1426(3)
C80_3 C 0.6320(3) 0.1878(2) 0.1157(3)
H31_3 H 0.6314 0.2187 0.1236
C81_3 C 0.6613(3) 0.1718(2) 0.0772(3)
C82_3 C 0.6638(3) 0.1262(2) 0.0648(4)
H32_3 H 0.6840 0.1164 0.0384
C83_3 C 0.6916(2) 0.2047(2) 0.0467(3)
C84_3 C 0.5668(3) 0.1715(2) 0.1814(3)
N15_3 N 0.8516(3) 0.03719(18) 0.0680(3)
H35_3 H 0.8397 0.0325 0.0378
N16_3 N 0.6359(4) 0.0474(2) 0.0852(4)
H36_3 H 0.6096 0.0333 0.0929
O29_3 O 0.7073(2) 0.03725(16) 0.0404(3)
O43_2 O 0.70309(17) 0.24156(12) 0.0698(2)
O44_3 O 0.70870(17) 0.19050(13) 0.0056(2)
O46_2 O 0.80205(19) 0.23265(13) 0.0674(2)
Cu17_2 Cu 0.75492(3) 0.27811(2) 0.04068(3)
H53_3 H 0.812716 0.0449804 0.00566645
Cu10_2 Cu 0.75492(3) 0.22189(2) 0.95932(3)
O34_3 O 0.7536(2) 0.17209(16) 0.8984(2)
O45_3 O 0.80480(18) 0.18909(14) 0.9961(2)
O49_3 O 0.79427(18) 0.02861(14) 0.9785(2)
O61_2 O 0.70309(17) 0.25844(12) 0.9302(2)
O63_2 O 0.80205(19) 0.26735(13) 0.9326(2)
H54_3 H 0.774959 0.0508842 0.958274
H55_3 H 0.764553 0.142146 0.912023
H56_3 H 0.775478 0.181961 0.870147
O7_3 O 0.7536(2) 0.32791(16) 0.1016(2)
O18_3 O 0.80480(18) 0.31091(14) 0.0039(2)
O22_3 O 0.79427(18) 0.47139(14) 0.0215(2)
O23_3 O 0.7436(2) 0.55356(17) 0.0554(2)
C43_3 C 0.8464(4) 0.9559(3) 0.0741(5)
C44_3 C 0.8568(7) 0.9088(6) 0.0974(8)
H19_3 H 0.8780 0.9014 0.1240
C45_3 C 0.8296(4) 0.8826(3) 0.0721(4)
C46_3 C 0.8579(5) 0.9991(4) 0.0975(6)
C55_3 C 0.8257(4) 0.8323(3) 0.0811(5)
C56_3 C 0.8676(4) 0.7620(2) 0.1033(5)
C57_3 C 0.8384(4) 0.7281(2) 0.0801(4)
H23_3 H 0.8144 0.7366 0.0569
C58_3 C 0.8451(3) 0.6829(2) 0.0915(4)
C59_3 C 0.8806(3) 0.6701(2) 0.1255(4)
H24_3 H 0.8838 0.6396 0.1348
C60_3 C 0.9120(3) 0.7024(2) 0.1463(4)
C61_3 C 0.9039(4) 0.7483(2) 0.1349(4)
H25_3 H 0.9241 0.7703 0.1494
C62_3 C 0.8141(3) 0.6478(2) 0.0673(4)
C63_3 C 0.9510(3) 0.6894(2) 0.1844(3)
C64_3 C 0.6687(3) 0.9754(2) 0.0695(3)
C65_3 C 0.6388(3) 0.9440(2) 0.0994(3)
H26_3 H 0.6134 0.9497 0.1221
C66_3 C 0.6605(4) 0.9014(3) 0.0833(5)
C67_3 C 0.6420(6) 0.8570(5) 0.1055(7)
C68_3 C 0.6356(4) 0.7751(2) 0.0955(4)
C69_3 C 0.6610(3) 0.7403(2) 0.0683(4)
H27_3 H 0.6831 0.7467 0.0422
C70_3 C 0.6502(4) 0.6955(2) 0.0839(5)
C71_3 C 0.6169(3) 0.6859(2) 0.1184(4)
H28_3 H 0.6093 0.6554 0.1244
C72_3 C 0.5924(3) 0.7192(2) 0.1460(4)
C73_3 C 0.6024(4) 0.7653(2) 0.1319(4)
H29_3 H 0.5858 0.7889 0.1480
C74_3 C 0.5563(3) 0.7075(2) 0.1828(3)
C75_3 C 0.6774(3) 0.6573(2) 0.0535(4)
Cu8_3 Cu 0.74555(3) 0.86895(2) 0.01568(3)
Cu9_3 Cu 0.75169(3) 0.98489(2) 0.01022(4)
N9_3 N 0.7973(2) 0.90444(16) 0.0458(3)
N10_3 N 0.8073(2) 0.94856(16) 0.0456(3)
N11_3 N 0.6975(3) 0.90559(18) 0.0544(3)
N12_3 N 0.7036(3) 0.95027(17) 0.0466(3)
N13_3 N 0.8644(3) 0.8093(2) 0.0937(4)
H33_3 H 0.8908 0.8246 0.0965
N14_3 N 0.6505(3) 0.81932(19) 0.0833(3)
H34_3 H 0.6684 0.8213 0.0562
O28_3 O 0.7821(3) 0.81475(16) 0.0724(3)
O30_3 O 0.8860(4) 0.9977(3) 0.1350(5)
O31_3 O 0.6181(6) 0.8612(4) 0.1438(6)
O35_3 O 0.8159(2) 0.60718(16) 0.0820(3)
O36_3 O 0.78729(18) 0.66160(13) 0.0315(2)
O37_3 O 0.69683(17) 0.66993(14) 0.0116(2)
O38_3 O 0.6779(2) 0.61947(16) 0.0720(3)
H41_3 H 0.774406 0.553678 0.075057
H42_3 H 0.717577 0.540282 0.0771027
H48_3 H 0.774959 0.449116 0.041726
H49_3 H 0.764553 0.357854 0.0879765
H50_3 H 0.775478 0.318039 0.129853
C1_3 C 0.8464(4) 0.5441(3) 0.9259(5)
C2_3 C 0.8568(7) 0.5912(6) 0.9026(8)
H1_3 H 0.8780 0.5986 0.8760
C3_3 C 0.8296(4) 0.6174(3) 0.9279(4)
C4_3 C 0.8579(5) 0.5009(4) 0.9025(6)
C5_3 C 0.8612(4) 0.4191(2) 0.9206(5)
C6_3 C 0.8901(3) 0.4064(2) 0.8763(4)
H2_3 H 0.9056 0.4287 0.8569
C7_3 C 0.8944(3) 0.3598(2) 0.8628(4)
C8_3 C 0.8717(2) 0.32739(18) 0.8879(3)
H3_3 H 0.8751 0.2971 0.8780
C9_3 C 0.8423(2) 0.3388(2) 0.9297(3)
C10_3 C 0.8381(3) 0.3840(2) 0.9459(3)
H4_3 H 0.8192 0.3906 0.9747
C11_3 C 0.9287(3) 0.3492(2) 0.8195(3)
C12_3 C 0.8156(3) 0.3026(2) 0.9607(4)
C13_3 C 0.8257(4) 0.6677(3) 0.9189(5)
C14_3 C 0.8676(4) 0.7380(2) 0.8967(5)
C15_3 C 0.8384(4) 0.7719(2) 0.9199(4)
H5_3 H 0.8144 0.7634 0.9431
C16_3 C 0.8451(3) 0.8171(2) 0.9085(4)
C17_3 C 0.8806(3) 0.8299(2) 0.8745(4)
H6_3 H 0.8838 0.8604 0.8652
C18_3 C 0.9120(3) 0.7976(2) 0.8537(4)
C19_3 C 0.9039(4) 0.7517(2) 0.8651(4)
H7_3 H 0.9241 0.7297 0.8506
C20_3 C 0.8141(3) 0.8522(2) 0.9327(4)
C21_3 C 0.9510(3) 0.8106(2) 0.8156(3)
C22_3 C 0.6687(3) 0.5246(2) 0.9305(3)
C23_3 C 0.6388(3) 0.5560(2) 0.9006(3)
H8_3 H 0.6134 0.5503 0.8779
C24_3 C 0.6605(4) 0.5986(3) 0.9167(5)
C25_3 C 0.6420(6) 0.6430(5) 0.8945(7)
C26_3 C 0.6356(4) 0.7249(2) 0.9045(4)
C27_3 C 0.6610(3) 0.7597(2) 0.9317(4)
H9_3 H 0.6831 0.7533 0.9578
C28_3 C 0.6502(4) 0.8045(2) 0.9161(5)
C29_3 C 0.6169(3) 0.8141(2) 0.8816(4)
H10_3 H 0.6093 0.8446 0.8756
C30_3 C 0.5924(3) 0.7808(2) 0.8540(4)
C31_3 C 0.6024(4) 0.7347(2) 0.8681(4)
H11_3 H 0.5858 0.7111 0.8520
C32_3 C 0.5563(3) 0.7925(2) 0.8172(3)
C33_3 C 0.6774(3) 0.8427(2) 0.9465(4)
C34_3 C 0.6720(4) 0.4785(3) 0.9321(4)
C35_3 C 0.6354(3) 0.4055(2) 0.9077(4)
C36_3 C 0.6066(3) 0.3889(3) 0.8667(4)
H12_3 H 0.5898 0.4093 0.8459
C37_3 C 0.6032(3) 0.3426(2) 0.8574(3)
C38_3 C 0.6320(3) 0.3122(2) 0.8843(3)
H13_3 H 0.6314 0.2813 0.8764
C39_3 C 0.6613(3) 0.3282(2) 0.9228(3)
C40_3 C 0.6638(3) 0.3738(2) 0.9352(4)
H14_3 H 0.6840 0.3836 0.9616
C41_3 C 0.6916(2) 0.2953(2) 0.9533(3)
C42_3 C 0.5668(3) 0.3285(2) 0.8186(3)
Cu1_3 Cu 0.74555(3) 0.63105(2) 0.98432(3)
Cu2_3 Cu 0.75169(3) 0.51511(2) 0.98978(4)
N1_3 N 0.7973(2) 0.59556(16) 0.9542(3)
N2_3 N 0.8073(2) 0.55144(16) 0.9544(3)
N3_3 N 0.6975(3) 0.59441(18) 0.9456(3)
N4_3 N 0.7036(3) 0.54973(17) 0.9534(3)
N5_3 N 0.8644(3) 0.6907(2) 0.9063(4)
H15_3 H 0.8908 0.6754 0.9035
N6_3 N 0.6505(3) 0.68068(19) 0.9167(3)
H16_3 H 0.6684 0.6787 0.9438
N7_3 N 0.8516(3) 0.46281(18) 0.9320(3)
H17_3 H 0.8397 0.4675 0.9622
N8_3 N 0.6359(4) 0.4526(2) 0.9148(4)
H18_3 H 0.6096 0.4667 0.9071
O1_3 O 0.7821(3) 0.68525(16) 0.9276(3)
O2_3 O 0.7073(2) 0.46275(16) 0.9596(3)
O3_3 O 0.8860(4) 0.5023(3) 0.8650(5)
O4_3 O 0.6181(6) 0.6388(4) 0.8562(6)
O8_3 O 0.8159(2) 0.89282(16) 0.9180(3)
O9_3 O 0.78729(18) 0.83840(13) 0.9685(2)
O10_3 O 0.69683(17) 0.83007(14) 0.9884(2)
O11_3 O 0.6779(2) 0.88053(16) 0.9280(3)
O17_3 O 0.70870(17) 0.30950(13) 0.9944(2)
O50_3 O 0.7436(2) 0.94644(17) 0.9446(2)
H45_5 H 0.999884 0.462359 0.740801
H47_3 H 0.812716 0.45502 0.994334
H51_3 H 0.774406 0.946322 0.924943
H52_3 H 0.717577 0.959718 0.922897
C1_4 C 0.1536(4) 0.4559(3) 0.4259(5)
C2_4 C 0.1432(7) 0.4088(6) 0.4026(8)
H1_4 H 0.1220 0.4014 0.3760
C3_4 C 0.1704(4) 0.3826(3) 0.4279(4)
C4_4 C 0.1421(5) 0.4991(4) 0.4025(6)
C5_4 C 0.1388(4) 0.5809(2) 0.4206(5)
C6_4 C 0.1099(3) 0.5936(2) 0.3763(4)
H2_4 H 0.0944 0.5713 0.3569
C7_4 C 0.1056(3) 0.6402(2) 0.3628(4)
C8_4 C 0.1283(2) 0.67261(18) 0.3879(3)
H3_4 H 0.1249 0.7029 0.3780
C9_4 C 0.1577(2) 0.6612(2) 0.4297(3)
C10_4 C 0.1619(3) 0.6160(2) 0.4459(3)
H4_4 H 0.1808 0.6094 0.4747
C11_4 C 0.0713(3) 0.6508(2) 0.3195(3)
C12_4 C 0.1844(3) 0.6974(2) 0.4607(4)
C13_4 C 0.1743(4) 0.3323(3) 0.4189(5)
C14_4 C 0.1324(4) 0.2620(2) 0.3967(5)
C15_4 C 0.1616(4) 0.2281(2) 0.4199(4)
H5_4 H 0.1856 0.2366 0.4431
C16_4 C 0.1549(3) 0.1829(2) 0.4085(4)
C17_4 C 0.1194(3) 0.1701(2) 0.3745(4)
H6_4 H 0.1162 0.1396 0.3652
C18_4 C 0.0880(3) 0.2024(2) 0.3537(4)
C19_4 C 0.0961(4) 0.2483(2) 0.3651(4)
H7_4 H 0.0759 0.2703 0.3506
C20_4 C 0.1859(3) 0.1478(2) 0.4327(4)
C21_4 C 0.0490(3) 0.1894(2) 0.3156(3)
C22_4 C 0.3313(3) 0.4754(2) 0.4305(3)
C23_4 C 0.3612(3) 0.4440(2) 0.4006(3)
H8_4 H 0.3866 0.4497 0.3779
C24_4 C 0.3395(4) 0.4014(3) 0.4167(5)
C25_4 C 0.3580(6) 0.3570(5) 0.3945(7)
C26_4 C 0.3644(4) 0.2751(2) 0.4045(4)
C27_4 C 0.3390(3) 0.2403(2) 0.4317(4)
H9_4 H 0.3169 0.2467 0.4578
C28_4 C 0.3498(4) 0.1955(2) 0.4161(5)
C29_4 C 0.3831(3) 0.1859(2) 0.3816(4)
H10_4 H 0.3907 0.1554 0.3756
C30_4 C 0.4076(3) 0.2192(2) 0.3540(4)
C31_4 C 0.3976(4) 0.2653(2) 0.3681(4)
H11_4 H 0.4142 0.2889 0.3520
C32_4 C 0.4437(3) 0.2075(2) 0.3172(3)
C33_4 C 0.3226(3) 0.1573(2) 0.4465(4)
C34_4 C 0.3280(4) 0.5215(3) 0.4321(4)
C35_4 C 0.3646(3) 0.5945(2) 0.4077(4)
C36_4 C 0.3934(3) 0.6111(3) 0.3667(4)
H12_4 H 0.4102 0.5907 0.3459
C37_4 C 0.3968(3) 0.6574(2) 0.3574(3)
C38_4 C 0.3680(3) 0.6878(2) 0.3843(3)
H13_4 H 0.3686 0.7187 0.3764
C39_4 C 0.3387(3) 0.6718(2) 0.4228(3)
C40_4 C 0.3362(3) 0.6262(2) 0.4352(4)
H14_4 H 0.3160 0.6164 0.4616
C41_4 C 0.3084(2) 0.7047(2) 0.4533(3)
C42_4 C 0.4332(3) 0.6715(2) 0.3186(3)
Cu1_4 Cu 0.25445(3) 0.36895(2) 0.48432(3)
Cu2_4 Cu 0.24831(3) 0.48489(2) 0.48978(4)
Cu5_2 Cu 0.24508(3) 0.72189(2) 0.54068(3)
N1_4 N 0.2027(2) 0.40444(16) 0.4542(3)
N2_4 N 0.1927(2) 0.44856(16) 0.4544(3)
N3_4 N 0.3025(3) 0.40559(18) 0.4456(3)
N4_4 N 0.2964(3) 0.45027(17) 0.4534(3)
N5_4 N 0.1356(3) 0.3093(2) 0.4063(4)
H15_4 H 0.1092 0.3246 0.4035
N6_4 N 0.3495(3) 0.31932(19) 0.4167(3)
H16_4 H 0.3316 0.3213 0.4438
N7_4 N 0.1484(3) 0.53719(18) 0.4320(3)
H17_4 H 0.1603 0.5325 0.4622
N8_4 N 0.3641(4) 0.5474(2) 0.4148(4)
H18_4 H 0.3904 0.5333 0.4071
O1_4 O 0.2179(3) 0.31475(16) 0.4276(3)
O2_4 O 0.2927(2) 0.53725(16) 0.4596(3)
O3_4 O 0.1140(4) 0.4977(3) 0.3650(5)
O4_4 O 0.3819(6) 0.3612(4) 0.3562(6)
O7_4 O 0.2464(2) 0.67209(16) 0.6016(2)
O8_4 O 0.1841(2) 0.10718(16) 0.4180(3)
O9_4 O 0.21271(18) 0.16160(13) 0.4685(2)
O10_4 O 0.30317(17) 0.16993(14) 0.4884(2)
O11_4 O 0.3221(2) 0.11947(16) 0.4280(3)
O16_2 O 0.29691(17) 0.74156(12) 0.4302(2)
O17_4 O 0.29130(17) 0.69050(13) 0.4944(2)
O18_4 O 0.19520(18) 0.68909(14) 0.5039(2)
O19_2 O 0.19795(19) 0.73265(13) 0.4326(2)
O22_4 O 0.20573(18) 0.52861(14) 0.5215(2)
O23_4 O 0.2564(2) 0.44644(17) 0.5554(2)
C43_4 C 0.1536(4) 0.0441(3) 0.5741(5)
C44_4 C 0.1432(7) 0.0912(6) 0.5974(8)
H19_4 H 0.1220 0.0986 0.6240
C45_4 C 0.1704(4) 0.1174(3) 0.5721(4)
C46_4 C 0.1421(5) 0.0009(4) 0.5975(6)
C55_4 C 0.1743(4) 0.1677(3) 0.5811(5)
C56_4 C 0.1324(4) 0.2380(2) 0.6033(5)
C57_4 C 0.1616(4) 0.2719(2) 0.5801(4)
H23_4 H 0.1856 0.2634 0.5569
C58_4 C 0.1549(3) 0.3171(2) 0.5915(4)
C59_4 C 0.1194(3) 0.3299(2) 0.6255(4)
H24_4 H 0.1162 0.3604 0.6348
C60_4 C 0.0880(3) 0.2976(2) 0.6463(4)
C61_4 C 0.0961(4) 0.2517(2) 0.6349(4)
H25_4 H 0.0759 0.2297 0.6494
C62_4 C 0.1859(3) 0.3522(2) 0.5673(4)
C63_4 C 0.0490(3) 0.3106(2) 0.6844(3)
C64_4 C 0.3313(3) 0.0246(2) 0.5695(3)
C65_4 C 0.3612(3) 0.0560(2) 0.5994(3)
H26_4 H 0.3866 0.0503 0.6221
C66_4 C 0.3395(4) 0.0986(3) 0.5833(5)
C67_4 C 0.3580(6) 0.1430(5) 0.6055(7)
C68_4 C 0.3644(4) 0.2249(2) 0.5955(4)
C69_4 C 0.3390(3) 0.2597(2) 0.5683(4)
H27_4 H 0.3169 0.2533 0.5422
C70_4 C 0.3498(4) 0.3045(2) 0.5839(5)
C71_4 C 0.3831(3) 0.3141(2) 0.6184(4)
H28_4 H 0.3907 0.3446 0.6244
C72_4 C 0.4076(3) 0.2808(2) 0.6460(4)
C73_4 C 0.3976(4) 0.2347(2) 0.6319(4)
H29_4 H 0.4142 0.2111 0.6480
C74_4 C 0.4437(3) 0.2925(2) 0.6828(3)
C75_4 C 0.3226(3) 0.3427(2) 0.5535(4)
Cu8_4 Cu 0.25445(3) 0.13105(2) 0.51568(3)
Cu9_4 Cu 0.24831(3) 0.01511(2) 0.51022(4)
N9_4 N 0.2027(2) 0.09556(16) 0.5458(3)
N10_4 N 0.1927(2) 0.05144(16) 0.5456(3)
N11_4 N 0.3025(3) 0.09441(18) 0.5544(3)
N12_4 N 0.2964(3) 0.04973(17) 0.5466(3)
N13_4 N 0.1356(3) 0.1907(2) 0.5937(4)
H33_4 H 0.1092 0.1754 0.5965
N14_4 N 0.3495(3) 0.18068(19) 0.5833(3)
H34_4 H 0.3316 0.1787 0.5562
O28_4 O 0.2179(3) 0.18525(16) 0.5724(3)
O30_4 O 0.1140(4) 0.0023(3) 0.6350(5)
O31_4 O 0.3819(6) 0.1388(4) 0.6438(6)
O35_4 O 0.1841(2) 0.39282(16) 0.5820(3)
O36_4 O 0.21271(18) 0.33840(13) 0.5315(2)
O37_4 O 0.30317(17) 0.33007(14) 0.5116(2)
O38_4 O 0.3221(2) 0.38053(16) 0.5720(3)
O50_4 O 0.2564(2) 0.05356(17) 0.4446(2)
Cu18_2 Cu 0.24508(3) 0.77811(2) 0.45932(3)
O62_2 O 0.29691(17) 0.75844(12) 0.5698(2)
O64_2 O 0.19795(19) 0.76735(13) 0.5674(2)
H41_4 H 0.225594 0.446322 0.575057
H42_4 H 0.282423 0.459718 0.577103
H45_6 H 0.000115799 0.537641 0.240801
H47_4 H 0.187284 0.54498 0.494334
H48_4 H 0.225041 0.550884 0.541726
H49_4 H 0.235447 0.642146 0.587977
H50_4 H 0.224522 0.681961 0.629853
H51_4 H 0.225594 0.0536785 0.424943
H52_4 H 0.282423 0.0402816 0.422897
C47_4 C 0.1388(4) 0.9191(2) 0.5794(5)
C48_4 C 0.1099(3) 0.9064(2) 0.6237(4)
H20_4 H 0.0944 0.9287 0.6431
C49_4 C 0.1056(3) 0.8598(2) 0.6372(4)
C50_4 C 0.1283(2) 0.82739(18) 0.6121(3)
H21_4 H 0.1249 0.7971 0.6220
C51_4 C 0.1577(2) 0.8388(2) 0.5703(3)
C52_4 C 0.1619(3) 0.8840(2) 0.5541(3)
H22_4 H 0.1808 0.8906 0.5253
C53_4 C 0.0713(3) 0.8492(2) 0.6805(3)
C54_4 C 0.1844(3) 0.8026(2) 0.5393(4)
C76_4 C 0.3280(4) 0.9785(3) 0.5679(4)
C77_4 C 0.3646(3) 0.9055(2) 0.5923(4)
C78_4 C 0.3934(3) 0.8889(3) 0.6333(4)
H30_4 H 0.4102 0.9093 0.6541
C79_4 C 0.3968(3) 0.8426(2) 0.6426(3)
C80_4 C 0.3680(3) 0.8122(2) 0.6157(3)
H31_4 H 0.3686 0.7813 0.6236
C81_4 C 0.3387(3) 0.8282(2) 0.5772(3)
C82_4 C 0.3362(3) 0.8738(2) 0.5648(4)
H32_4 H 0.3160 0.8836 0.5384
C83_4 C 0.3084(2) 0.7953(2) 0.5467(3)
C84_4 C 0.4332(3) 0.8285(2) 0.6814(3)
N15_4 N 0.1484(3) 0.96281(18) 0.5680(3)
H35_4 H 0.1603 0.9675 0.5378
N16_4 N 0.3641(4) 0.9526(2) 0.5852(4)
H36_4 H 0.3904 0.9667 0.5929
O29_4 O 0.2927(2) 0.96275(16) 0.5404(3)
O34_4 O 0.2464(2) 0.82791(16) 0.3984(2)
O44_4 O 0.29130(17) 0.80950(13) 0.5056(2)
O45_4 O 0.19520(18) 0.81091(14) 0.4961(2)
O49_4 O 0.20573(18) 0.97139(14) 0.4785(2)
H53_4 H 0.187284 0.95502 0.505666
H54_4 H 0.225041 0.949116 0.458274
H55_4 H 0.235447 0.857854 0.412023
H56_4 H 0.224522 0.818039 0.370147
H46_6 H 0.946187 0.553681 0.224341
H46_7 H 0.0538133 0.0536811 0.275659
H45_7 H 0.999884 0.0376413 0.259199
H45_8 H 0.000115799 0.962359 0.759199
H46_8 H 0.946187 0.946319 0.775659
loop_
_geom_bond_atom_site_label_1
_geom_bond_atom_site_label_2
_geom_bond_site_symmetry_1
_geom_bond_site_symmetry_2
C1 C2 1_555 1_555
C2 H1 1_555 1_555
C3 C2 1_555 1_555
C4 C1 1_555 1_555
C5 C6 1_555 1_555
C6 H2 1_555 1_555
C7 C6 1_555 1_555
C8 C7 1_555 1_555
H3 C8 1_555 1_555
C9 C8 1_555 1_555
C10 C5 1_555 1_555
H4 C10 1_555 1_555
C11 C7 1_555 1_555
C12 C9 1_555 1_555
C13 C3 1_555 1_555
C14 C15 1_555 1_555
C15 H5 1_555 1_555
C16 C15 1_555 1_555
C17 C16 1_555 1_555
H6 C17 1_555 1_555
C18 C17 1_555 1_555
C19 C14 1_555 1_555
H7 C19 1_555 1_555
C20 C16 1_555 1_555
C21 C18 1_555 1_555
C22 C23 1_555 1_555
C23 H8 1_555 1_555
C24 C23 1_555 1_555
C25 C24 1_555 1_555
C26 C27 1_555 1_555
C27 H9 1_555 1_555
C28 C27 1_555 1_555
C29 C28 1_555 1_555
H10 C29 1_555 1_555
C30 C29 1_555 1_555
C31 C26 1_555 1_555
H11 C31 1_555 1_555
C32 C30 1_555 1_555
C33 C28 1_555 1_555
C34 C22 1_555 1_555
C35 C36 1_555 1_555
C36 H12 1_555 1_555
C37 C36 1_555 1_555
C38 C37 1_555 1_555
H13 C38 1_555 1_555
C39 C38 1_555 1_555
C40 C35 1_555 1_555
H14 C40 1_555 1_555
C41 C39 1_555 1_555
C42 C37 1_555 1_555
Cu1 N1 1_555 1_555
Cu2 N2 1_555 1_555
Cu4 O20 1_555 1_555
Cu6 O15 1_555 1_555
Cu7 O14 1_555 1_555
N1 C3 1_555 1_555
N2 C1 1_555 1_555
N3 C24 1_555 1_555
N4 C22 1_555 1_555
N5 C13 1_555 1_555
H15 N5 1_555 1_555
N6 C25 1_555 1_555
H16 N6 1_555 1_555
N7 C4 1_555 1_555
H17 N7 1_555 1_555
N8 C34 1_555 1_555
H18 N8 1_555 1_555
O1 C13 1_555 1_555
O2 C34 1_555 1_555
O3 C4 1_555 1_555
O4 C25 1_555 1_555
O5 C21 1_555 1_555
O6 C21 1_555 1_555
O8 C20 1_555 1_555
O9 C20 1_555 1_555
O10 C33 1_555 1_555
O11 C33 1_555 1_555
O12 C32 1_555 1_555
O13 C32 1_555 1_555
O14 C42 1_555 1_555
O15 C42 1_555 1_555
O16 C41 1_555 1_555
O17 C41 1_555 1_555
O19 C12 1_555 1_555
O20 C11 1_555 1_555
O21 C11 1_555 1_555
O24 Cu7 1_555 1_555
O25 Cu6 1_555 1_555
O26 Cu4 1_555 1_555
Cu13 O6 1_555 1_555
Cu18 O16 1_555 1_555
Cu21 O13 1_555 1_555
Cu24 O12 1_555 1_555
O55 Cu7 1_555 1_555
O56 Cu7 1_555 1_555
O57 Cu6 1_555 1_555
O58 Cu6 1_555 1_555
O59 Cu7 1_555 1_555
O60 Cu6 1_555 1_555
O65 Cu4 1_555 1_555
C5 N7 1_555 1_555
C9 C10 1_555 1_555
C14 N5 1_555 1_555
C18 C19 1_555 1_555
C26 N6 1_555 1_555
C30 C31 1_555 1_555
C35 N8 1_555 1_555
C39 C40 1_555 1_555
Cu1 N3 1_555 1_555
Cu1 O1 1_555 1_555
Cu2 N4 1_555 1_555
Cu2 O2 1_555 1_555
N1 N2 1_555 1_555
N3 N4 1_555 1_555
O19 Cu18 1_555 1_555
O50 H51 1_555 1_555
O50 H52 1_555 1_555
Cu5 O7 1_555 1_555
C43 C44 1_555 1_555
C44 H19 1_555 1_555
C45 C44 1_555 1_555
C46 C43 1_555 1_555
C55 C45 1_555 1_555
C56 C57 1_555 1_555
C57 H23 1_555 1_555
C58 C57 1_555 1_555
C59 C58 1_555 1_555
H24 C59 1_555 1_555
C60 C59 1_555 1_555
C61 C56 1_555 1_555
H25 C61 1_555 1_555
C62 C58 1_555 1_555
C63 C60 1_555 1_555
C64 C65 1_555 1_555
C65 H26 1_555 1_555
C66 C65 1_555 1_555
C67 C66 1_555 1_555
C68 C69 1_555 1_555
C69 H27 1_555 1_555
C70 C69 1_555 1_555
C71 C70 1_555 1_555
H28 C71 1_555 1_555
C72 C71 1_555 1_555
C73 C68 1_555 1_555
H29 C73 1_555 1_555
C74 C72 1_555 1_555
C75 C70 1_555 1_555
Cu9 N10 1_555 1_555
N9 C45 1_555 1_555
N10 C43 1_555 1_555
N11 C66 1_555 1_555
N12 C64 1_555 1_555
N13 C55 1_555 1_555
H33 N13 1_555 1_555
N14 C67 1_555 1_555
H34 N14 1_555 1_555
O28 C55 1_555 1_555
O30 C46 1_555 1_555
O31 C67 1_555 1_555
O32 C63 1_555 1_555
O33 C63 1_555 1_555
O35 C62 1_555 1_555
O38 C75 1_555 1_555
O39 C74 1_555 1_555
O40 C74 1_555 1_555
Cu11 O33 1_555 1_555
Cu19 O40 1_555 1_555
Cu22 O39 1_555 1_555
O62 Cu5 1_555 1_555
O64 Cu5 1_555 1_555
Cu5 O18 1_555 1_555
C56 N13 1_555 1_555
C60 C61 1_555 1_555
C62 O36 1_555 1_555
C68 N14 1_555 1_555
C72 C73 1_555 1_555
C75 O37 1_555 1_555
Cu8 N9 1_555 1_555
Cu8 N11 1_555 1_555
Cu8 O28 1_555 1_555
Cu9 N12 1_555 1_555
N9 N10 1_555 1_555
N11 N12 1_555 1_555
O23 H41 1_555 1_555
O23 H42 1_555 1_555
O22 H48 1_555 1_555
O7 H49 1_555 1_555
O7 H50 1_555 1_555
Cu18 O34 1_555 1_555
Cu18 O45 1_555 1_555
O49 H54 1_555 1_555
O34 H55 1_555 1_555
O34 H56 1_555 1_555
C47 C48 1_555 1_555
C48 H20 1_555 1_555
C49 C48 1_555 1_555
C50 C49 1_555 1_555
H21 C50 1_555 1_555
C51 C50 1_555 1_555
C52 C47 1_555 1_555
H22 C52 1_555 1_555
C53 C49 1_555 1_555
C54 C51 1_555 1_555
C77 C78 1_555 1_555
C78 H30 1_555 1_555
C79 C78 1_555 1_555
C80 C79 1_555 1_555
H31 C80 1_555 1_555
C81 C80 1_555 1_555
C82 C77 1_555 1_555
H32 C82 1_555 1_555
C83 C81 1_555 1_555
C84 C79 1_555 1_555
H35 N15 1_555 1_555
N16 C76 1_555 1_555
H36 N16 1_555 1_555
O29 C76 1_555 1_555
O41 C84 1_555 1_555
O42 C84 1_555 1_555
O62 C83 1_555 1_555
O44 C83 1_555 1_555
O64 C54 1_555 1_555
O47 C53 1_555 1_555
O48 C53 1_555 1_555
Cu15 O47 1_555 1_555
Cu20 O42 1_555 1_555
Cu23 O41 1_555 1_555
C47 N15 1_555 1_555
C51 C52 1_555 1_555
C77 N16 1_555 1_555
C81 C82 1_555 1_555
O27 Cu3 1_555 1_555
O53 Cu3 1_555 1_555
O54 Cu3 1_555 1_555
O27 H46 1_555 1_555
O27_2 Cu11 1_555 1_555
O54_2 Cu11 1_555 1_555
O27_2 H46_2 1_555 1_555
C47_2 C48_2 1_555 1_555
C48_2 H20_2 1_555 1_555
C49_2 C48_2 1_555 1_555
C50_2 C49_2 1_555 1_555
H21_2 C50_2 1_555 1_555
C51_2 C50_2 1_555 1_555
C52_2 C47_2 1_555 1_555
H22_2 C52_2 1_555 1_555
C53_2 C49_2 1_555 1_555
C54_2 C51_2 1_555 1_555
C77_2 C78_2 1_555 1_555
C78_2 H30_2 1_555 1_555
C79_2 C78_2 1_555 1_555
C80_2 C79_2 1_555 1_555
H31_2 C80_2 1_555 1_555
C81_2 C80_2 1_555 1_555
C82_2 C77_2 1_555 1_555
H32_2 C82_2 1_555 1_555
C83_2 C81_2 1_555 1_555
C84_2 C79_2 1_555 1_555
Cu10 O34_2 1_555 1_555
H35_2 N15_2 1_555 1_555
N16_2 C76_2 1_555 1_555
H36_2 N16_2 1_555 1_555
O29_2 C76_2 1_555 1_555
O41_2 C84_2 1_555 1_555
O42_2 C84_2 1_555 1_555
O43 C83_2 1_555 1_555
O44_2 C83_2 1_555 1_555
O45_2 C54_2 1_555 1_555
O46 C54_2 1_555 1_555
O47_2 C53_2 1_555 1_555
O48_2 C53_2 1_555 1_555
Cu16 O47_2 1_555 1_555
Cu17 O43 1_555 1_555
Cu21 O42_2 1_555 1_555
Cu24 O41_2 1_555 1_555
O61 Cu10 1_555 1_555
O63 Cu10 1_555 1_555
C47_2 N15_2 1_555 1_555
C51_2 C52_2 1_555 1_555
C77_2 N16_2 1_555 1_555
C81_2 C82_2 1_555 1_555
Cu10 O44_2 1_555 1_555
Cu10 O45_2 1_555 1_555
O46 Cu17 1_555 1_555
O49_2 H53_2 1_555 1_555
O49_2 H54_2 1_555 1_555
O34_2 H55_2 1_555 1_555
O34_2 H56_2 1_555 1_555
C1_2 C2_2 1_555 1_555
C2_2 H1_2 1_555 1_555
C3_2 C2_2 1_555 1_555
C4_2 C1_2 1_555 1_555
C5_2 C6_2 1_555 1_555
C6_2 H2_2 1_555 1_555
C7_2 C6_2 1_555 1_555
C8_2 C7_2 1_555 1_555
H3_2 C8_2 1_555 1_555
C9_2 C8_2 1_555 1_555
C10_2 C5_2 1_555 1_555
H4_2 C10_2 1_555 1_555
C11_2 C7_2 1_555 1_555
C12_2 C9_2 1_555 1_555
C13_2 C3_2 1_555 1_555
C14_2 C15_2 1_555 1_555
C15_2 H5_2 1_555 1_555
C16_2 C15_2 1_555 1_555
C17_2 C16_2 1_555 1_555
H6_2 C17_2 1_555 1_555
C18_2 C17_2 1_555 1_555
C19_2 C14_2 1_555 1_555
H7_2 C19_2 1_555 1_555
C20_2 C16_2 1_555 1_555
C21_2 C18_2 1_555 1_555
C22_2 C23_2 1_555 1_555
C23_2 H8_2 1_555 1_555
C24_2 C23_2 1_555 1_555
C25_2 C24_2 1_555 1_555
C26_2 C27_2 1_555 1_555
C27_2 H9_2 1_555 1_555
C28_2 C27_2 1_555 1_555
C29_2 C28_2 1_555 1_555
H10_2 C29_2 1_555 1_555
C30_2 C29_2 1_555 1_555
C31_2 C26_2 1_555 1_555
H11_2 C31_2 1_555 1_555
C32_2 C30_2 1_555 1_555
C33_2 C28_2 1_555 1_555
C34_2 C22_2 1_555 1_555
C35_2 C36_2 1_555 1_555
C36_2 H12_2 1_555 1_555
C37_2 C36_2 1_555 1_555
C38_2 C37_2 1_555 1_555
H13_2 C38_2 1_555 1_555
C39_2 C38_2 1_555 1_555
C40_2 C35_2 1_555 1_555
H14_2 C40_2 1_555 1_555
C41_2 C39_2 1_555 1_555
C42_2 C37_2 1_555 1_555
Cu1_2 N1_2 1_555 1_555
Cu2_2 N2_2 1_555 1_555
Cu14 O20_2 1_555 1_555
Cu17 O7_2 1_555 1_555
Cu19 O15_2 1_555 1_555
Cu22 O14_2 1_555 1_555
N1_2 C3_2 1_555 1_555
N2_2 C1_2 1_555 1_555
N3_2 C24_2 1_555 1_555
N4_2 C22_2 1_555 1_555
N5_2 C13_2 1_555 1_555
H15_2 N5_2 1_555 1_555
N6_2 C25_2 1_555 1_555
H16_2 N6_2 1_555 1_555
N7_2 C4_2 1_555 1_555
H17_2 N7_2 1_555 1_555
N8_2 C34_2 1_555 1_555
H18_2 N8_2 1_555 1_555
O1_2 C13_2 1_555 1_555
O2_2 C34_2 1_555 1_555
O3_2 C4_2 1_555 1_555
O4_2 C25_2 1_555 1_555
O5_2 C21_2 1_555 1_555
O6_2 C21_2 1_555 1_555
O8_2 C20_2 1_555 1_555
O9_2 C20_2 1_555 1_555
O10_2 C33_2 1_555 1_555
O11_2 C33_2 1_555 1_555
O12_2 C32_2 1_555 1_555
O13_2 C32_2 1_555 1_555
O14_2 C42_2 1_555 1_555
O15_2 C42_2 1_555 1_555
O61 C41_2 1_555 1_555
O17_2 C41_2 1_555 1_555
O18_2 C12_2 1_555 1_555
O63 C12_2 1_555 1_555
O20_2 C11_2 1_555 1_555
O21_2 C11_2 1_555 1_555
O22_2 Cu2_2 1_555 1_555
O23_2 Cu2_2 1_555 1_555
O24_2 Cu22 1_555 1_555
O25_2 Cu19 1_555 1_555
O26_2 Cu14 1_555 1_555
C43_2 C44_2 1_555 1_555
C44_2 H19_2 1_555 1_555
C45_2 C44_2 1_555 1_555
C46_2 C43_2 1_555 1_555
C55_2 C45_2 1_555 1_555
C56_2 C57_2 1_555 1_555
C57_2 H23_2 1_555 1_555
C58_2 C57_2 1_555 1_555
C59_2 C58_2 1_555 1_555
H24_2 C59_2 1_555 1_555
C60_2 C59_2 1_555 1_555
C61_2 C56_2 1_555 1_555
H25_2 C61_2 1_555 1_555
C62_2 C58_2 1_555 1_555
C63_2 C60_2 1_555 1_555
C64_2 C65_2 1_555 1_555
C65_2 H26_2 1_555 1_555
C66_2 C65_2 1_555 1_555
C67_2 C66_2 1_555 1_555
C68_2 C69_2 1_555 1_555
C69_2 H27_2 1_555 1_555
C70_2 C69_2 1_555 1_555
C71_2 C70_2 1_555 1_555
H28_2 C71_2 1_555 1_555
C72_2 C71_2 1_555 1_555
C73_2 C68_2 1_555 1_555
H29_2 C73_2 1_555 1_555
C74_2 C72_2 1_555 1_555
C75_2 C70_2 1_555 1_555
Cu8_2 O9_2 1_555 1_555
Cu9_2 N10_2 1_555 1_555
N9_2 C45_2 1_555 1_555
N10_2 C43_2 1_555 1_555
N11_2 C66_2 1_555 1_555
N12_2 C64_2 1_555 1_555
N13_2 C55_2 1_555 1_555
H33_2 N13_2 1_555 1_555
N14_2 C67_2 1_555 1_555
H34_2 N14_2 1_555 1_555
O28_2 C55_2 1_555 1_555
O30_2 C46_2 1_555 1_555
O31_2 C67_2 1_555 1_555
O51 C63_2 1_555 1_555
O53 C63_2 1_555 1_555
O35_2 C62_2 1_555 1_555
O36_2 Cu1_2 1_555 1_555
O37_2 Cu1_2 1_555 1_555
O38_2 C75_2 1_555 1_555
O55 C74_2 1_555 1_555
O57 C74_2 1_555 1_555
O50_2 Cu9_2 1_555 1_555
Cu12 O6_2 1_555 1_555
Cu20 O13_2 1_555 1_555
Cu23 O12_2 1_555 1_555
O56_2 Cu22 1_555 1_555
O58_2 Cu19 1_555 1_555
O59_2 Cu22 1_555 1_555
O60_2 Cu19 1_555 1_555
O65_2 Cu14 1_555 1_555
C5_2 N7_2 1_555 1_555
C9_2 C10_2 1_555 1_555
C14_2 N5_2 1_555 1_555
C18_2 C19_2 1_555 1_555
C26_2 N6_2 1_555 1_555
C30_2 C31_2 1_555 1_555
C35_2 N8_2 1_555 1_555
C39_2 C40_2 1_555 1_555
Cu1_2 N3_2 1_555 1_555
Cu1_2 O1_2 1_555 1_555
Cu2_2 N4_2 1_555 1_555
Cu2_2 O2_2 1_555 1_555
Cu17 O17_2 1_555 1_555
Cu17 O18_2 1_555 1_555
N1_2 N2_2 1_555 1_555
N3_2 N4_2 1_555 1_555
O10_2 Cu8_2 1_555 1_555
C56_2 N13_2 1_555 1_555
C60_2 C61_2 1_555 1_555
C62_2 O36_2 1_555 1_555
C68_2 N14_2 1_555 1_555
C72_2 C73_2 1_555 1_555
C75_2 O37_2 1_555 1_555
Cu8_2 N9_2 1_555 1_555
Cu8_2 N11_2 1_555 1_555
Cu8_2 O28_2 1_555 1_555
Cu9_2 N12_2 1_555 1_555
N9_2 N10_2 1_555 1_555
N11_2 N12_2 1_555 1_555
O23_2 H41_2 1_555 1_555
O23_2 H42_2 1_555 1_555
O22_2 H47_2 1_555 1_555
O22_2 H48_2 1_555 1_555
O7_2 H49_2 1_555 1_555
O7_2 H50_2 1_555 1_555
O50_2 H51_2 1_555 1_555
O50_2 H52_2 1_555 1_555
O24_3 Cu23 1_555 1_555
O25_3 Cu20 1_555 1_555
O26_3 Cu15 1_555 1_555
O56_3 Cu23 1_555 1_555
O58_3 Cu20 1_555 1_555
O59_3 Cu23 1_555 1_555
O60_3 Cu20 1_555 1_555
O65_3 Cu15 1_555 1_555
O27_3 Cu12 1_555 1_555
O54_3 Cu12 1_555 1_555
O27_3 H46_3 1_555 1_555
O27_4 Cu13 1_555 1_555
O54_4 Cu13 1_555 1_555
O27_4 H46_4 1_555 1_555
O24_4 Cu24 1_555 1_555
O25_4 Cu21 1_555 1_555
O26_4 Cu16 1_555 1_555
O56_4 Cu24 1_555 1_555
O58_4 Cu21 1_555 1_555
O59_4 Cu24 1_555 1_555
O60_4 Cu21 1_555 1_555
O65_4 Cu16 1_555 1_555
O27_2 H46_5 1_555 1_555
C47_3 C48_3 1_555 1_555
C48_3 H20_3 1_555 1_555
C49_3 C48_3 1_555 1_555
C50_3 C49_3 1_555 1_555
H21_3 C50_3 1_555 1_555
C51_3 C50_3 1_555 1_555
C52_3 C47_3 1_555 1_555
H22_3 C52_3 1_555 1_555
C53_3 C49_3 1_555 1_555
C54_3 C51_3 1_555 1_555
C77_3 C78_3 1_555 1_555
C78_3 H30_3 1_555 1_555
C79_3 C78_3 1_555 1_555
C80_3 C79_3 1_555 1_555
H31_3 C80_3 1_555 1_555
C81_3 C80_3 1_555 1_555
C82_3 C77_3 1_555 1_555
H32_3 C82_3 1_555 1_555
C83_3 C81_3 1_555 1_555
C84_3 C79_3 1_555 1_555
H35_3 N15_3 1_555 1_555
N16_3 C76_3 1_555 1_555
H36_3 N16_3 1_555 1_555
O29_3 C76_3 1_555 1_555
O59_4 C84_3 1_555 1_555
O60_4 C84_3 1_555 1_555
O43_2 C83_3 1_555 1_555
O44_3 C83_3 1_555 1_555
O46_2 C54_3 1_555 1_555
O65_4 C53_3 1_555 1_555
O66_4 C53_3 1_555 1_555
Cu17_2 O43_2 1_555 1_555
C47_3 N15_3 1_555 1_555
C51_3 C52_3 1_555 1_555
C77_3 N16_3 1_555 1_555
C81_3 C82_3 1_555 1_555
O46_2 Cu17_2 1_555 1_555
Cu10_2 O34_3 1_555 1_555
O61_2 Cu10_2 1_555 1_555
O63_2 Cu10_2 1_555 1_555
Cu10_2 O45_3 1_555 1_555
O49_3 H54_3 1_555 1_555
O34_3 H55_3 1_555 1_555
O34_3 H56_3 1_555 1_555
Cu17_2 O7_3 1_555 1_555
C43_3 C44_3 1_555 1_555
C44_3 H19_3 1_555 1_555
C45_3 C44_3 1_555 1_555
C46_3 C43_3 1_555 1_555
C55_3 C45_3 1_555 1_555
C56_3 C57_3 1_555 1_555
C57_3 H23_3 1_555 1_555
C58_3 C57_3 1_555 1_555
C59_3 C58_3 1_555 1_555
H24_3 C59_3 1_555 1_555
C60_3 C59_3 1_555 1_555
C61_3 C56_3 1_555 1_555
H25_3 C61_3 1_555 1_555
C62_3 C58_3 1_555 1_555
C63_3 C60_3 1_555 1_555
C64_3 C65_3 1_555 1_555
C65_3 H26_3 1_555 1_555
C66_3 C65_3 1_555 1_555
C67_3 C66_3 1_555 1_555
C68_3 C69_3 1_555 1_555
C69_3 H27_3 1_555 1_555
C70_3 C69_3 1_555 1_555
C71_3 C70_3 1_555 1_555
H28_3 C71_3 1_555 1_555
C72_3 C71_3 1_555 1_555
C73_3 C68_3 1_555 1_555
H29_3 C73_3 1_555 1_555
C74_3 C72_3 1_555 1_555
C75_3 C70_3 1_555 1_555
Cu9_3 N10_3 1_555 1_555
N9_3 C45_3 1_555 1_555
N10_3 C43_3 1_555 1_555
N11_3 C66_3 1_555 1_555
N12_3 C64_3 1_555 1_555
N13_3 C55_3 1_555 1_555
H33_3 N13_3 1_555 1_555
N14_3 C67_3 1_555 1_555
H34_3 N14_3 1_555 1_555
O28_3 C55_3 1_555 1_555
O30_3 C46_3 1_555 1_555
O31_3 C67_3 1_555 1_555
O52 C63_3 1_555 1_555
O54 C63_3 1_555 1_555
O35_3 C62_3 1_555 1_555
O38_3 C75_3 1_555 1_555
O56 C74_3 1_555 1_555
O58 C74_3 1_555 1_555
Cu17_2 O18_3 1_555 1_555
C56_3 N13_3 1_555 1_555
C60_3 C61_3 1_555 1_555
C62_3 O36_3 1_555 1_555
C68_3 N14_3 1_555 1_555
C72_3 C73_3 1_555 1_555
C75_3 O37_3 1_555 1_555
Cu8_3 N9_3 1_555 1_555
Cu8_3 N11_3 1_555 1_555
Cu8_3 O28_3 1_555 1_555
Cu9_3 N12_3 1_555 1_555
N9_3 N10_3 1_555 1_555
N11_3 N12_3 1_555 1_555
O23_3 H41_3 1_555 1_555
O23_3 H42_3 1_555 1_555
O22_3 H48_3 1_555 1_555
O7_3 H49_3 1_555 1_555
O7_3 H50_3 1_555 1_555
C1_3 C2_3 1_555 1_555
C2_3 H1_3 1_555 1_555
C3_3 C2_3 1_555 1_555
C4_3 C1_3 1_555 1_555
C5_3 C6_3 1_555 1_555
C6_3 H2_3 1_555 1_555
C7_3 C6_3 1_555 1_555
C8_3 C7_3 1_555 1_555
H3_3 C8_3 1_555 1_555
C9_3 C8_3 1_555 1_555
C10_3 C5_3 1_555 1_555
H4_3 C10_3 1_555 1_555
C11_3 C7_3 1_555 1_555
C12_3 C9_3 1_555 1_555
C13_3 C3_3 1_555 1_555
C14_3 C15_3 1_555 1_555
C15_3 H5_3 1_555 1_555
C16_3 C15_3 1_555 1_555
C17_3 C16_3 1_555 1_555
H6_3 C17_3 1_555 1_555
C18_3 C17_3 1_555 1_555
C19_3 C14_3 1_555 1_555
H7_3 C19_3 1_555 1_555
C20_3 C16_3 1_555 1_555
C21_3 C18_3 1_555 1_555
C22_3 C23_3 1_555 1_555
C23_3 H8_3 1_555 1_555
C24_3 C23_3 1_555 1_555
C25_3 C24_3 1_555 1_555
C26_3 C27_3 1_555 1_555
C27_3 H9_3 1_555 1_555
C28_3 C27_3 1_555 1_555
C29_3 C28_3 1_555 1_555
H10_3 C29_3 1_555 1_555
C30_3 C29_3 1_555 1_555
C31_3 C26_3 1_555 1_555
H11_3 C31_3 1_555 1_555
C32_3 C30_3 1_555 1_555
C33_3 C28_3 1_555 1_555
C34_3 C22_3 1_555 1_555
C35_3 C36_3 1_555 1_555
C36_3 H12_3 1_555 1_555
C37_3 C36_3 1_555 1_555
C38_3 C37_3 1_555 1_555
H13_3 C38_3 1_555 1_555
C39_3 C38_3 1_555 1_555
C40_3 C35_3 1_555 1_555
H14_3 C40_3 1_555 1_555
C41_3 C39_3 1_555 1_555
C42_3 C37_3 1_555 1_555
Cu1_3 N1_3 1_555 1_555
Cu2_3 N2_3 1_555 1_555
N1_3 C3_3 1_555 1_555
N2_3 C1_3 1_555 1_555
N3_3 C24_3 1_555 1_555
N4_3 C22_3 1_555 1_555
N5_3 C13_3 1_555 1_555
H15_3 N5_3 1_555 1_555
N6_3 C25_3 1_555 1_555
H16_3 N6_3 1_555 1_555
N7_3 C4_3 1_555 1_555
H17_3 N7_3 1_555 1_555
N8_3 C34_3 1_555 1_555
H18_3 N8_3 1_555 1_555
O1_3 C13_3 1_555 1_555
O2_3 C34_3 1_555 1_555
O3_3 C4_3 1_555 1_555
O4_3 C25_3 1_555 1_555
O52_3 C21_3 1_555 1_555
O54_3 C21_3 1_555 1_555
O8_3 C20_3 1_555 1_555
O9_3 C20_3 1_555 1_555
O10_3 C33_3 1_555 1_555
O11_3 C33_3 1_555 1_555
O56_3 C32_3 1_555 1_555
O58_3 C32_3 1_555 1_555
O59_2 C42_3 1_555 1_555
O60_2 C42_3 1_555 1_555
O61_2 C41_3 1_555 1_555
O17_3 C41_3 1_555 1_555
O63_2 C12_3 1_555 1_555
O65_2 C11_3 1_555 1_555
O66_2 C11_3 1_555 1_555
C5_3 N7_3 1_555 1_555
C9_3 C10_3 1_555 1_555
C14_3 N5_3 1_555 1_555
C18_3 C19_3 1_555 1_555
C26_3 N6_3 1_555 1_555
C30_3 C31_3 1_555 1_555
C35_3 N8_3 1_555 1_555
C39_3 C40_3 1_555 1_555
Cu1_3 N3_3 1_555 1_555
Cu1_3 O1_3 1_555 1_555
Cu2_3 N4_3 1_555 1_555
Cu2_3 O2_3 1_555 1_555
N1_3 N2_3 1_555 1_555
N3_3 N4_3 1_555 1_555
O50_3 H51_3 1_555 1_555
O50_3 H52_3 1_555 1_555
C1_4 C2_4 1_555 1_555
C2_4 H1_4 1_555 1_555
C3_4 C2_4 1_555 1_555
C4_4 C1_4 1_555 1_555
C5_4 C6_4 1_555 1_555
C6_4 H2_4 1_555 1_555
C7_4 C6_4 1_555 1_555
C8_4 C7_4 1_555 1_555
H3_4 C8_4 1_555 1_555
C9_4 C8_4 1_555 1_555
C10_4 C5_4 1_555 1_555
H4_4 C10_4 1_555 1_555
C11_4 C7_4 1_555 1_555
C12_4 C9_4 1_555 1_555
C13_4 C3_4 1_555 1_555
C14_4 C15_4 1_555 1_555
C15_4 H5_4 1_555 1_555
C16_4 C15_4 1_555 1_555
C17_4 C16_4 1_555 1_555
H6_4 C17_4 1_555 1_555
C18_4 C17_4 1_555 1_555
C19_4 C14_4 1_555 1_555
H7_4 C19_4 1_555 1_555
C20_4 C16_4 1_555 1_555
C21_4 C18_4 1_555 1_555
C22_4 C23_4 1_555 1_555
C23_4 H8_4 1_555 1_555
C24_4 C23_4 1_555 1_555
C25_4 C24_4 1_555 1_555
C26_4 C27_4 1_555 1_555
C27_4 H9_4 1_555 1_555
C28_4 C27_4 1_555 1_555
C29_4 C28_4 1_555 1_555
H10_4 C29_4 1_555 1_555
C30_4 C29_4 1_555 1_555
C31_4 C26_4 1_555 1_555
H11_4 C31_4 1_555 1_555
C32_4 C30_4 1_555 1_555
C33_4 C28_4 1_555 1_555
C34_4 C22_4 1_555 1_555
C35_4 C36_4 1_555 1_555
C36_4 H12_4 1_555 1_555
C37_4 C36_4 1_555 1_555
C38_4 C37_4 1_555 1_555
H13_4 C38_4 1_555 1_555
C39_4 C38_4 1_555 1_555
C40_4 C35_4 1_555 1_555
H14_4 C40_4 1_555 1_555
C41_4 C39_4 1_555 1_555
C42_4 C37_4 1_555 1_555
Cu1_4 N1_4 1_555 1_555
Cu2_4 N2_4 1_555 1_555
Cu5_2 O7_4 1_555 1_555
N1_4 C3_4 1_555 1_555
N2_4 C1_4 1_555 1_555
N3_4 C24_4 1_555 1_555
N4_4 C22_4 1_555 1_555
N5_4 C13_4 1_555 1_555
H15_4 N5_4 1_555 1_555
N6_4 C25_4 1_555 1_555
H16_4 N6_4 1_555 1_555
N7_4 C4_4 1_555 1_555
H17_4 N7_4 1_555 1_555
N8_4 C34_4 1_555 1_555
H18_4 N8_4 1_555 1_555
O1_4 C13_4 1_555 1_555
O2_4 C34_4 1_555 1_555
O3_4 C4_4 1_555 1_555
O4_4 C25_4 1_555 1_555
O52_4 C21_4 1_555 1_555
O54_4 C21_4 1_555 1_555
O8_4 C20_4 1_555 1_555
O9_4 C20_4 1_555 1_555
O10_4 C33_4 1_555 1_555
O11_4 C33_4 1_555 1_555
O56_4 C32_4 1_555 1_555
O58_4 C32_4 1_555 1_555
O59 C42_4 1_555 1_555
O60 C42_4 1_555 1_555
O16_2 C41_4 1_555 1_555
O17_4 C41_4 1_555 1_555
O18_4 C12_4 1_555 1_555
O19_2 C12_4 1_555 1_555
O65 C11_4 1_555 1_555
O66 C11_4 1_555 1_555
O22_4 Cu2_4 1_555 1_555
O23_4 Cu2_4 1_555 1_555
C43_4 C44_4 1_555 1_555
C44_4 H19_4 1_555 1_555
C45_4 C44_4 1_555 1_555
C46_4 C43_4 1_555 1_555
C55_4 C45_4 1_555 1_555
C56_4 C57_4 1_555 1_555
C57_4 H23_4 1_555 1_555
C58_4 C57_4 1_555 1_555
C59_4 C58_4 1_555 1_555
H24_4 C59_4 1_555 1_555
C60_4 C59_4 1_555 1_555
C61_4 C56_4 1_555 1_555
H25_4 C61_4 1_555 1_555
C62_4 C58_4 1_555 1_555
C63_4 C60_4 1_555 1_555
C64_4 C65_4 1_555 1_555
C65_4 H26_4 1_555 1_555
C66_4 C65_4 1_555 1_555
C67_4 C66_4 1_555 1_555
C68_4 C69_4 1_555 1_555
C69_4 H27_4 1_555 1_555
C70_4 C69_4 1_555 1_555
C71_4 C70_4 1_555 1_555
H28_4 C71_4 1_555 1_555
C72_4 C71_4 1_555 1_555
C73_4 C68_4 1_555 1_555
H29_4 C73_4 1_555 1_555
C74_4 C72_4 1_555 1_555
C75_4 C70_4 1_555 1_555
Cu8_4 O9_4 1_555 1_555
Cu9_4 N10_4 1_555 1_555
N9_4 C45_4 1_555 1_555
N10_4 C43_4 1_555 1_555
N11_4 C66_4 1_555 1_555
N12_4 C64_4 1_555 1_555
N13_4 C55_4 1_555 1_555
H33_4 N13_4 1_555 1_555
N14_4 C67_4 1_555 1_555
H34_4 N14_4 1_555 1_555
O28_4 C55_4 1_555 1_555
O30_4 C46_4 1_555 1_555
O31_4 C67_4 1_555 1_555
O52_2 C63_4 1_555 1_555
O54_2 C63_4 1_555 1_555
O35_4 C62_4 1_555 1_555
O36_4 Cu1_4 1_555 1_555
O37_4 Cu1_4 1_555 1_555
O38_4 C75_4 1_555 1_555
O56_2 C74_4 1_555 1_555
O58_2 C74_4 1_555 1_555
O50_4 Cu9_4 1_555 1_555
Cu18_2 O16_2 1_555 1_555
O62_2 Cu5_2 1_555 1_555
O64_2 Cu5_2 1_555 1_555
C5_4 N7_4 1_555 1_555
C9_4 C10_4 1_555 1_555
C14_4 N5_4 1_555 1_555
C18_4 C19_4 1_555 1_555
C26_4 N6_4 1_555 1_555
C30_4 C31_4 1_555 1_555
C35_4 N8_4 1_555 1_555
C39_4 C40_4 1_555 1_555
Cu1_4 N3_4 1_555 1_555
Cu1_4 O1_4 1_555 1_555
Cu2_4 N4_4 1_555 1_555
Cu2_4 O2_4 1_555 1_555
Cu5_2 O17_4 1_555 1_555
Cu5_2 O18_4 1_555 1_555
N1_4 N2_4 1_555 1_555
N3_4 N4_4 1_555 1_555
O10_4 Cu8_4 1_555 1_555
O19_2 Cu18_2 1_555 1_555
C56_4 N13_4 1_555 1_555
C60_4 C61_4 1_555 1_555
C62_4 O36_4 1_555 1_555
C68_4 N14_4 1_555 1_555
C72_4 C73_4 1_555 1_555
C75_4 O37_4 1_555 1_555
Cu8_4 N9_4 1_555 1_555
Cu8_4 N11_4 1_555 1_555
Cu8_4 O28_4 1_555 1_555
Cu9_4 N12_4 1_555 1_555
N9_4 N10_4 1_555 1_555
N11_4 N12_4 1_555 1_555
O23_4 H41_4 1_555 1_555
O23_4 H42_4 1_555 1_555
O22_4 H47_4 1_555 1_555
O22_4 H48_4 1_555 1_555
O7_4 H49_4 1_555 1_555
O7_4 H50_4 1_555 1_555
O50_4 H51_4 1_555 1_555
O50_4 H52_4 1_555 1_555
C47_4 C48_4 1_555 1_555
C48_4 H20_4 1_555 1_555
C49_4 C48_4 1_555 1_555
C50_4 C49_4 1_555 1_555
H21_4 C50_4 1_555 1_555
C51_4 C50_4 1_555 1_555
C52_4 C47_4 1_555 1_555
H22_4 C52_4 1_555 1_555
C53_4 C49_4 1_555 1_555
C54_4 C51_4 1_555 1_555
C77_4 C78_4 1_555 1_555
C78_4 H30_4 1_555 1_555
C79_4 C78_4 1_555 1_555
C80_4 C79_4 1_555 1_555
H31_4 C80_4 1_555 1_555
C81_4 C80_4 1_555 1_555
C82_4 C77_4 1_555 1_555
H32_4 C82_4 1_555 1_555
C83_4 C81_4 1_555 1_555
C84_4 C79_4 1_555 1_555
Cu18_2 O34_4 1_555 1_555
H35_4 N15_4 1_555 1_555
N16_4 C76_4 1_555 1_555
H36_4 N16_4 1_555 1_555
O29_4 C76_4 1_555 1_555
O59_3 C84_4 1_555 1_555
O60_3 C84_4 1_555 1_555
O62_2 C83_4 1_555 1_555
O44_4 C83_4 1_555 1_555
O45_4 C54_4 1_555 1_555
O64_2 C54_4 1_555 1_555
O65_3 C53_4 1_555 1_555
O66_3 C53_4 1_555 1_555
C47_4 N15_4 1_555 1_555
C51_4 C52_4 1_555 1_555
C77_4 N16_4 1_555 1_555
C81_4 C82_4 1_555 1_555
Cu18_2 O44_4 1_555 1_555
Cu18_2 O45_4 1_555 1_555
O49_4 H53_4 1_555 1_555
O49_4 H54_4 1_555 1_555
O34_4 H55_4 1_555 1_555
O34_4 H56_4 1_555 1_555
O27 H46_6 1_555 1_555
O27_4 H46_7 1_555 1_555
O27_3 H46_8 1_555 1_555

#END
