
###############################################################################
#
# This file contains modified crystal structure data generated from the
# MOF subset of the Cambridge Structural Database (CSD) v543 
# hosted by the Cambridge Crystallographic Data Centre (CCDC).
#
# This work is licensed under the Creative Commons
# Attribution-NonCommercial-ShareAlike 4.0 International License.
# To view a copy of this license, visit
# http://creativecommons.org/licenses/by-nc-sa/4.0/
# or send a letter to
# Creative Commons, PO Box 1866, Mountain View, CA 94042, USA.
#
# CIF created using the CSD Python API on 29 September 2022
# The structure has been converted into the P1 space group
# The structure has a 3D framework
# The original CSD entry BUXTIZ is in the monoclinic crystal system
# The framework has been calculated to contain at least 10.0% void space
# The void calculation uses a probe of radius 1.32A, grid spacing 0.4
# The framework is charged, counterions have been retained in the structure
#
###############################################################################

data_BUXTIZ
_chemical_formula_moiety         '(C216 H192 Ag20 Cl16 N96 O64 4+)n'
_symmetry_cell_setting           triclinic
_symmetry_space_group_name_H-M   'P 1'
_symmetry_Int_Tables_number      1
_space_group_name_Hall           'P 1'
loop_
_symmetry_equiv_pos_site_id
_symmetry_equiv_pos_as_xyz
1 x,y,z
_cell_length_a                   22.985(3)
_cell_length_b                   20.8148(17)
_cell_length_c                   18.492(2)
_cell_angle_alpha                90
_cell_angle_beta                 118.116(18)
_cell_angle_gamma                90
_cell_volume                     7803.1
loop_
_atom_site_label
_atom_site_type_symbol
_atom_site_fract_x
_atom_site_fract_y
_atom_site_fract_z
Ag1 Ag 0.27079(2) 0.12809(2) 0.29901(3)
C1 C 0.3401(3) 0.1370(3) 0.1658(4)
H1 H 0.2916 0.1399 0.1321
H2 H 0.3597 0.1392 0.1283
H3 H 0.1114 0.0307 0.4289
H4 H 0.0430 0.0027 0.3597
Ag3 Ag 0.0000 0.38921(3) 0.2500
C3 C 0.0865(3) 0.2688(3) 0.3794(4)
H5 H 0.0380 0.2644 0.3462
H6 H 0.1022 0.2323 0.4184
N1 N 0.3332(2) 0.2068(2) 0.2685(3)
C4 C 0.3642(3) 0.1932(3) 0.2239(3)
C5 C 0.4153(3) 0.2321(3) 0.2300(4)
H7 H 0.4362 0.2218 0.1978
N2 N 0.4365(3) 0.2831(3) 0.2791(3)
C6 C 0.4056(3) 0.2956(3) 0.3228(4)
H8 H 0.4191 0.3318 0.3585
C7 C 0.3547(3) 0.2582(3) 0.3183(4)
H9 H 0.3343 0.2688 0.3510
N3 N 0.3202(3) 0.0526(2) 0.2435(3)
C8 C 0.3573(3) 0.0736(3) 0.2096(3)
C9 C 0.4110(3) 0.0372(3) 0.2163(4)
H10 H 0.4356 0.0525 0.1906
C12 C 0.1163(3) 0.0020(3) 0.3252(3)
C13 C 0.1668(3) 0.0430(3) 0.3381(4)
H13 H 0.1868 0.0675 0.3872
N6 N 0.1890(3) 0.0494(3) 0.2821(3)
C14 C 0.1608(3) 0.0141(3) 0.2156(4)
H14 H 0.1757 0.0170 0.1758
N9 N 0.0889(2) 0.2968(2) 0.2528(3)
C20 C 0.1169(3) 0.2631(3) 0.3227(4)
C21 C 0.1705(3) 0.2234(3) 0.3416(4)
H19 H 0.1893 0.2010 0.3923
N10 N 0.1968(3) 0.2155(2) 0.2912(3)
C22 C 0.1694(3) 0.2493(3) 0.2220(4)
H20 H 0.1873 0.2461 0.1851
C23 C 0.1158(3) 0.2889(3) 0.2021(4)
H21 H 0.0972 0.3113 0.1514
N11 N 0.0640(3) 0.3819(2) 0.3907(3)
C24 C 0.1010(3) 0.3300(3) 0.4275(3)
C25 C 0.1499(3) 0.3332(3) 0.5087(4)
H22 H 0.1776 0.2969 0.5315
N12 N 0.1600(3) 0.3840(3) 0.5557(3)
C26 C 0.1206(4) 0.4349(3) 0.5190(4)
H23 H 0.1250 0.4725 0.5504
C27 C 0.0742(3) 0.4342(3) 0.4373(4)
H24 H 0.0488 0.4717 0.4135
Ag5 Ag 0.22921(2) 0.37191(2) 0.70099(3)
Ag8 Ag 0.5000 0.38036(3) 0.2500
N28 N 0.0713(3) 0.4819(3) 0.2424(4)
N29 N 0.3400(3) 0.1160(3) 0.4443(3)
Ag2 Ag 0.0000 0.88036(3) 0.2500
C2 C 0.0914(3) 0.9961(3) 0.3878(4)
N4 N 0.4287(3) 0.9819(3) 0.2576(4)
C10 C 0.3914(4) 0.9623(3) 0.2909(4)
H11 H 0.4026 0.9233 0.3213
C11 C 0.3373(4) 0.9964(3) 0.2828(4)
H12 H 0.3114 0.9794 0.3059
N5 N 0.0871(2) 0.9660(2) 0.2573(3)
C15 C 0.1095(3) 0.9725(3) 0.2024(4)
H15 H 0.0898 0.9480 0.1533
N7 N 0.0696(2) 0.8818(2) 0.3917(3)
C16 C 0.1062(3) 0.9330(3) 0.4315(4)
C17 C 0.1557(3) 0.9259(3) 0.5130(4)
H16 H 0.1816 0.9625 0.5397
N8 N 0.1688(3) 0.8713(3) 0.5554(3)
C18 C 0.1300(3) 0.8218(3) 0.5137(4)
H17 H 0.1362 0.7818 0.5410
C19 C 0.0816(3) 0.8262(3) 0.4331(4)
H18 H 0.0563 0.7892 0.4065
Ag10 Ag 0.5000 0.88921(3) 0.2500
N26 N 0.0635(3) 0.7831(3) 0.2209(3)
Ag3_2 Ag 1.0000 0.38921(3) 0.2500
Ag4 Ag 0.72921(2) 0.12809(2) 0.20099(3)
C28 C 0.6599(3) 0.1370(3) 0.3342(4)
H25 H 0.7084 0.1399 0.3679
H26 H 0.6403 0.1392 0.3717
H27 H 0.8886 0.0307 0.0711
H28 H 0.9570 0.0027 0.1403
C30 C 0.9135(3) 0.2688(3) 0.1206(4)
H29 H 0.9620 0.2644 0.1538
H30 H 0.8978 0.2323 0.0816
N13 N 0.6668(2) 0.2068(2) 0.2315(3)
C31 C 0.6358(3) 0.1932(3) 0.2761(3)
C32 C 0.5847(3) 0.2321(3) 0.2700(4)
H31 H 0.5638 0.2218 0.3022
N14 N 0.5635(3) 0.2831(3) 0.2209(3)
C33 C 0.5944(3) 0.2956(3) 0.1772(4)
H32 H 0.5809 0.3318 0.1415
C34 C 0.6453(3) 0.2582(3) 0.1817(4)
H33 H 0.6657 0.2688 0.1490
N15 N 0.6798(3) 0.0526(2) 0.2565(3)
C35 C 0.6427(3) 0.0736(3) 0.2904(3)
C36 C 0.5890(3) 0.0372(3) 0.2837(4)
H34 H 0.5644 0.0525 0.3094
C39 C 0.8837(3) 0.0020(3) 0.1748(3)
C40 C 0.8332(3) 0.0430(3) 0.1619(4)
H37 H 0.8132 0.0675 0.1128
N18 N 0.8110(3) 0.0494(3) 0.2179(3)
C41 C 0.8392(3) 0.0141(3) 0.2844(4)
H38 H 0.8243 0.0170 0.3242
N21 N 0.9111(2) 0.2968(2) 0.2472(3)
C47 C 0.8831(3) 0.2631(3) 0.1773(4)
C48 C 0.8295(3) 0.2234(3) 0.1584(4)
H43 H 0.8107 0.2010 0.1077
N22 N 0.8032(3) 0.2155(2) 0.2088(3)
C49 C 0.8306(3) 0.2493(3) 0.2780(4)
H44 H 0.8127 0.2461 0.3149
C50 C 0.8842(3) 0.2889(3) 0.2979(4)
H45 H 0.9028 0.3113 0.3486
N23 N 0.9360(3) 0.3819(2) 0.1093(3)
C51 C 0.8990(3) 0.3300(3) 0.0725(3)
C54 C 0.9258(3) 0.4342(3) 0.0627(4)
H48 H 0.9512 0.4717 0.0865
N27 N 0.9287(3) 0.4819(3) 0.2576(4)
N30 N 0.6600(3) 0.1160(3) 0.0557(3)
C52 C 0.8501(3) 0.3332(3) 0.9913(4)
H46 H 0.8224 0.2969 0.9685
N24 N 0.8400(3) 0.3840(3) 0.9443(3)
C53 C 0.8794(4) 0.4349(3) 0.9810(4)
H47 H 0.8750 0.4725 0.9496
Ag6 Ag 0.77079(2) 0.37191(2) 0.79901(3)
Ag2_2 Ag 1.0000 0.88036(3) 0.2500
C29 C 0.9086(3) 0.9961(3) 0.1122(4)
N16 N 0.5713(3) 0.9819(3) 0.2424(4)
C37 C 0.6086(4) 0.9623(3) 0.2091(4)
H35 H 0.5974 0.9233 0.1787
C38 C 0.6627(4) 0.9964(3) 0.2172(4)
H36 H 0.6886 0.9794 0.1941
N17 N 0.9129(2) 0.9660(2) 0.2427(3)
C42 C 0.8905(3) 0.9725(3) 0.2976(4)
H39 H 0.9102 0.9480 0.3467
N19 N 0.9304(2) 0.8818(2) 0.1083(3)
C43 C 0.8938(3) 0.9330(3) 0.0685(4)
C46 C 0.9184(3) 0.8262(3) 0.0669(4)
H42 H 0.9437 0.7892 0.0935
N25 N 0.9365(3) 0.7831(3) 0.2791(3)
Ag1_2 Ag 0.77079(2) 0.62809(2) 0.29901(3)
C1_2 C 0.8401(3) 0.6370(3) 0.1658(4)
H1_2 H 0.7916 0.6399 0.1321
H2_2 H 0.8597 0.6392 0.1283
C2_2 C 0.5914(3) 0.4961(3) 0.3878(4)
H3_2 H 0.6114 0.5307 0.4289
H4_2 H 0.5430 0.5027 0.3597
C3_2 C 0.5865(3) 0.7688(3) 0.3794(4)
H5_2 H 0.5380 0.7644 0.3462
H6_2 H 0.6022 0.7323 0.4184
N1_2 N 0.8332(2) 0.7068(2) 0.2685(3)
C4_2 C 0.8642(3) 0.6932(3) 0.2239(3)
C5_2 C 0.9153(3) 0.7321(3) 0.2300(4)
H7_2 H 0.9362 0.7218 0.1978
C6_2 C 0.9056(3) 0.7956(3) 0.3228(4)
H8_2 H 0.9191 0.8318 0.3585
C7_2 C 0.8547(3) 0.7582(3) 0.3183(4)
H9_2 H 0.8343 0.7688 0.3510
N3_2 N 0.8202(3) 0.5526(2) 0.2435(3)
C8_2 C 0.8573(3) 0.5736(3) 0.2096(3)
C9_2 C 0.9110(3) 0.5372(3) 0.2163(4)
H10_2 H 0.9356 0.5525 0.1906
C10_2 C 0.8914(4) 0.4623(3) 0.2909(4)
H11_2 H 0.9026 0.4233 0.3213
C11_2 C 0.8373(4) 0.4964(3) 0.2828(4)
H12_2 H 0.8114 0.4794 0.3059
N5_2 N 0.5871(2) 0.4660(2) 0.2573(3)
C12_2 C 0.6163(3) 0.5020(3) 0.3252(3)
C13_2 C 0.6668(3) 0.5430(3) 0.3381(4)
H13_2 H 0.6868 0.5675 0.3872
N6_2 N 0.6890(3) 0.5494(3) 0.2821(3)
C14_2 C 0.6608(3) 0.5141(3) 0.2156(4)
H14_2 H 0.6757 0.5170 0.1758
C15_2 C 0.6095(3) 0.4725(3) 0.2024(4)
H15_2 H 0.5898 0.4480 0.1533
N7_2 N 0.5696(2) 0.3818(2) 0.3917(3)
C16_2 C 0.6062(3) 0.4330(3) 0.4315(4)
C17_2 C 0.6557(3) 0.4259(3) 0.5130(4)
H16_2 H 0.6816 0.4625 0.5397
N8_2 N 0.6688(3) 0.3713(3) 0.5554(3)
C18_2 C 0.6300(3) 0.3218(3) 0.5137(4)
H17_2 H 0.6362 0.2818 0.5410
C19_2 C 0.5816(3) 0.3262(3) 0.4331(4)
H18_2 H 0.5563 0.2892 0.4065
N9_2 N 0.5889(2) 0.7968(2) 0.2528(3)
C20_2 C 0.6169(3) 0.7631(3) 0.3227(4)
C21_2 C 0.6705(3) 0.7234(3) 0.3416(4)
H19_2 H 0.6893 0.7010 0.3923
N10_2 N 0.6968(3) 0.7155(2) 0.2912(3)
C22_2 C 0.6694(3) 0.7493(3) 0.2220(4)
H20_2 H 0.6873 0.7461 0.1851
C23_2 C 0.6158(3) 0.7889(3) 0.2021(4)
H21_2 H 0.5972 0.8113 0.1514
N11_2 N 0.5640(3) 0.8819(2) 0.3907(3)
C24_2 C 0.6010(3) 0.8300(3) 0.4275(3)
C25_2 C 0.6499(3) 0.8332(3) 0.5087(4)
H22_2 H 0.6776 0.7969 0.5315
N12_2 N 0.6600(3) 0.8840(3) 0.5557(3)
C26_2 C 0.6206(4) 0.9349(3) 0.5190(4)
H23_2 H 0.6250 0.9725 0.5504
C27_2 C 0.5742(3) 0.9342(3) 0.4373(4)
H24_2 H 0.5488 0.9717 0.4135
Ag4_2 Ag 0.22921(2) 0.62809(2) 0.20099(3)
C28_2 C 0.1599(3) 0.6370(3) 0.3342(4)
H25_2 H 0.2084 0.6399 0.3679
H26_2 H 0.1403 0.6392 0.3717
C29_2 C 0.4086(3) 0.4961(3) 0.1122(4)
H27_2 H 0.3886 0.5307 0.0711
H28_2 H 0.4570 0.5027 0.1403
C30_2 C 0.4135(3) 0.7688(3) 0.1206(4)
H29_2 H 0.4620 0.7644 0.1538
H30_2 H 0.3978 0.7323 0.0816
N13_2 N 0.1668(2) 0.7068(2) 0.2315(3)
C31_2 C 0.1358(3) 0.6932(3) 0.2761(3)
C32_2 C 0.0847(3) 0.7321(3) 0.2700(4)
H31_2 H 0.0638 0.7218 0.3022
C33_2 C 0.0944(3) 0.7956(3) 0.1772(4)
H32_2 H 0.0809 0.8318 0.1415
C34_2 C 0.1453(3) 0.7582(3) 0.1817(4)
H33_2 H 0.1657 0.7688 0.1490
N15_2 N 0.1798(3) 0.5526(2) 0.2565(3)
C35_2 C 0.1427(3) 0.5736(3) 0.2904(3)
C36_2 C 0.0890(3) 0.5372(3) 0.2837(4)
H34_2 H 0.0644 0.5525 0.3094
C37_2 C 0.1086(4) 0.4623(3) 0.2091(4)
H35_2 H 0.0974 0.4233 0.1787
C38_2 C 0.1627(4) 0.4964(3) 0.2172(4)
H36_2 H 0.1886 0.4794 0.1941
N17_2 N 0.4129(2) 0.4660(2) 0.2427(3)
C39_2 C 0.3837(3) 0.5020(3) 0.1748(3)
C40_2 C 0.3332(3) 0.5430(3) 0.1619(4)
H37_2 H 0.3132 0.5675 0.1128
N18_2 N 0.3110(3) 0.5494(3) 0.2179(3)
C41_2 C 0.3392(3) 0.5141(3) 0.2844(4)
H38_2 H 0.3243 0.5170 0.3242
C42_2 C 0.3905(3) 0.4725(3) 0.2976(4)
H39_2 H 0.4102 0.4480 0.3467
N19_2 N 0.4304(2) 0.3818(2) 0.1083(3)
C43_2 C 0.3938(3) 0.4330(3) 0.0685(4)
C46_2 C 0.4184(3) 0.3262(3) 0.0669(4)
H42_2 H 0.4437 0.2892 0.0935
N21_2 N 0.4111(2) 0.7968(2) 0.2472(3)
C47_2 C 0.3831(3) 0.7631(3) 0.1773(4)
C48_2 C 0.3295(3) 0.7234(3) 0.1584(4)
H43_2 H 0.3107 0.7010 0.1077
N22_2 N 0.3032(3) 0.7155(2) 0.2088(3)
C49_2 C 0.3306(3) 0.7493(3) 0.2780(4)
H44_2 H 0.3127 0.7461 0.3149
C50_2 C 0.3842(3) 0.7889(3) 0.2979(4)
H45_2 H 0.4028 0.8113 0.3486
N23_2 N 0.4360(3) 0.8819(2) 0.1093(3)
C51_2 C 0.3990(3) 0.8300(3) 0.0725(3)
C54_2 C 0.4258(3) 0.9342(3) 0.0627(4)
H48_2 H 0.4512 0.9717 0.0865
Ag5_2 Ag 0.72921(2) 0.87191(2) 0.70099(3)
N29_2 N 0.8400(3) 0.6160(3) 0.4443(3)
N30_2 N 0.1600(3) 0.6160(3) 0.0557(3)
C44 C 0.3443(3) 0.4259(3) 0.9870(4)
H40 H 0.3184 0.4625 0.9603
N20 N 0.3312(3) 0.3713(3) 0.9446(3)
C45 C 0.3700(3) 0.3218(3) 0.9863(4)
H41 H 0.3638 0.2818 0.9590
C52_2 C 0.3501(3) 0.8332(3) 0.9913(4)
H46_2 H 0.3224 0.7969 0.9685
N24_2 N 0.3400(3) 0.8840(3) 0.9443(3)
C53_2 C 0.3794(4) 0.9349(3) 0.9810(4)
H47_2 H 0.3750 0.9725 0.9496
Ag6_2 Ag 0.27079(2) 0.87191(2) 0.79901(3)
Ag2_3 Ag 0.0000 0.11964(3) 0.7500
C29_3 C 0.0914(3) 0.0039(3) 0.8878(4)
N16_2 N 0.4287(3) 0.0181(3) 0.7576(4)
C37_3 C 0.3914(4) 0.0377(3) 0.7909(4)
H35_3 H 0.4026 0.0767 0.8213
C38_3 C 0.3373(4) 0.0036(3) 0.7828(4)
H36_3 H 0.3114 0.0206 0.8059
N17_3 N 0.0871(2) 0.0340(2) 0.7573(3)
C42_3 C 0.1095(3) 0.0275(3) 0.7024(4)
H39_3 H 0.0898 0.0520 0.6533
N19_3 N 0.0696(2) 0.1182(2) 0.8917(3)
C43_3 C 0.1062(3) 0.0670(3) 0.9315(4)
C46_3 C 0.0816(3) 0.1738(3) 0.9331(4)
H42_3 H 0.0563 0.2108 0.9065
Ag9 Ag 0.5000 0.11079(3) 0.7500
N25_2 N 0.0635(3) 0.2169(3) 0.7209(3)
C52_3 C 0.1499(3) 0.6668(3) 0.0087(4)
H46_3 H 0.1776 0.7031 0.0315
C53_3 C 0.1206(4) 0.5651(3) 0.0190(4)
H47_3 H 0.1250 0.5275 0.0504
Ag3_3 Ag -0.0000 0.61079(3) 0.7500
C28_3 C 0.3401(3) 0.8630(3) 0.6658(4)
H25_3 H 0.2916 0.8601 0.6321
H26_3 H 0.3597 0.8608 0.6283
H27_3 H 0.1114 0.9693 0.9289
H28_3 H 0.0430 0.9973 0.8597
C30_3 C 0.0865(3) 0.7312(3) 0.8794(4)
H29_3 H 0.0380 0.7356 0.8462
H30_3 H 0.1022 0.7677 0.9184
N13_3 N 0.3332(2) 0.7932(2) 0.7685(3)
C31_3 C 0.3642(3) 0.8068(3) 0.7239(3)
C32_3 C 0.4153(3) 0.7679(3) 0.7300(4)
H31_3 H 0.4362 0.7782 0.6978
N14_2 N 0.4365(3) 0.7169(3) 0.7791(3)
C33_3 C 0.4056(3) 0.7044(3) 0.8228(4)
H32_3 H 0.4191 0.6682 0.8585
C34_3 C 0.3547(3) 0.7418(3) 0.8183(4)
H33_3 H 0.3343 0.7312 0.8510
N15_3 N 0.3202(3) 0.9474(2) 0.7435(3)
C35_3 C 0.3573(3) 0.9264(3) 0.7096(3)
C36_3 C 0.4110(3) 0.9628(3) 0.7163(4)
H34_3 H 0.4356 0.9475 0.6906
C39_3 C 0.1163(3) 0.9980(3) 0.8252(3)
C40_3 C 0.1668(3) 0.9570(3) 0.8381(4)
H37_3 H 0.1868 0.9325 0.8872
N18_3 N 0.1890(3) 0.9506(3) 0.7821(3)
C41_3 C 0.1608(3) 0.9859(3) 0.7156(4)
H38_3 H 0.1757 0.9830 0.6758
N21_3 N 0.0889(2) 0.7032(2) 0.7528(3)
C47_3 C 0.1169(3) 0.7369(3) 0.8227(4)
C48_3 C 0.1705(3) 0.7766(3) 0.8416(4)
H43_3 H 0.1893 0.7990 0.8923
N22_3 N 0.1968(3) 0.7845(2) 0.7912(3)
C49_3 C 0.1694(3) 0.7507(3) 0.7220(4)
H44_3 H 0.1873 0.7539 0.6851
C50_3 C 0.1158(3) 0.7111(3) 0.7021(4)
H45_3 H 0.0972 0.6887 0.6514
N23_3 N 0.0640(3) 0.6181(2) 0.8907(3)
C51_3 C 0.1010(3) 0.6700(3) 0.9275(3)
C54_3 C 0.0742(3) 0.5658(3) 0.9373(4)
H48_3 H 0.0488 0.5283 0.9135
Ag7 Ag 0.5000 0.61964(3) 0.7500
N27_2 N 0.0713(3) 0.5181(3) 0.7424(4)
Ag2_4 Ag 1.0000 0.11964(3) 0.7500
C2_3 C 0.9086(3) 0.0039(3) 0.6122(4)
N4_2 N 0.5713(3) 0.0181(3) 0.7424(4)
C10_3 C 0.6086(4) 0.0377(3) 0.7091(4)
H11_3 H 0.5974 0.0767 0.6787
C11_3 C 0.6627(4) 0.0036(3) 0.7172(4)
H12_3 H 0.6886 0.0206 0.6941
N5_3 N 0.9129(2) 0.0340(2) 0.7427(3)
C15_3 C 0.8905(3) 0.0275(3) 0.7976(4)
H15_3 H 0.9102 0.0520 0.8467
N7_3 N 0.9304(2) 0.1182(2) 0.6083(3)
C16_3 C 0.8938(3) 0.0670(3) 0.5685(4)
C17_3 C 0.8443(3) 0.0741(3) 0.4870(4)
H16_3 H 0.8184 0.0375 0.4603
N8_3 N 0.8312(3) 0.1287(3) 0.4446(3)
C18_3 C 0.8700(3) 0.1782(3) 0.4863(4)
H17_3 H 0.8638 0.2182 0.4590
C19_3 C 0.9184(3) 0.1738(3) 0.5669(4)
H18_3 H 0.9437 0.2108 0.5935
N26_2 N 0.9365(3) 0.2169(3) 0.7791(3)
C1_3 C 0.6599(3) 0.8630(3) 0.8342(4)
H1_3 H 0.7084 0.8601 0.8679
H2_3 H 0.6403 0.8608 0.8717
H3_3 H 0.8886 0.9693 0.5711
H4_3 H 0.9570 0.9973 0.6403
Ag3_4 Ag 1.0000 0.61079(3) 0.7500
C3_3 C 0.9135(3) 0.7312(3) 0.6206(4)
H5_3 H 0.9620 0.7356 0.6538
H6_3 H 0.8978 0.7677 0.5816
N1_3 N 0.6668(2) 0.7932(2) 0.7315(3)
C4_3 C 0.6358(3) 0.8068(3) 0.7761(3)
C5_3 C 0.5847(3) 0.7679(3) 0.7700(4)
H7_3 H 0.5638 0.7782 0.8022
N2_2 N 0.5635(3) 0.7169(3) 0.7209(3)
C6_3 C 0.5944(3) 0.7044(3) 0.6772(4)
H8_3 H 0.5809 0.6682 0.6415
C7_3 C 0.6453(3) 0.7418(3) 0.6817(4)
H9_3 H 0.6657 0.7312 0.6490
N3_3 N 0.6798(3) 0.9474(2) 0.7565(3)
C8_3 C 0.6427(3) 0.9264(3) 0.7904(3)
C9_3 C 0.5890(3) 0.9628(3) 0.7837(4)
H10_3 H 0.5644 0.9475 0.8094
C12_3 C 0.8837(3) 0.9980(3) 0.6748(3)
C13_3 C 0.8332(3) 0.9570(3) 0.6619(4)
H13_3 H 0.8132 0.9325 0.6128
N6_3 N 0.8110(3) 0.9506(3) 0.7179(3)
C14_3 C 0.8392(3) 0.9859(3) 0.7844(4)
H14_3 H 0.8243 0.9830 0.8242
N9_3 N 0.9111(2) 0.7032(2) 0.7472(3)
C20_3 C 0.8831(3) 0.7369(3) 0.6773(4)
C21_3 C 0.8295(3) 0.7766(3) 0.6584(4)
H19_3 H 0.8107 0.7990 0.6077
N10_3 N 0.8032(3) 0.7845(2) 0.7088(3)
C22_3 C 0.8306(3) 0.7507(3) 0.7780(4)
H20_3 H 0.8127 0.7539 0.8149
C23_3 C 0.8842(3) 0.7111(3) 0.7979(4)
H21_3 H 0.9028 0.6887 0.8486
N11_3 N 0.9360(3) 0.6181(2) 0.6093(3)
C24_3 C 0.8990(3) 0.6700(3) 0.5725(3)
C25_3 C 0.8501(3) 0.6668(3) 0.4913(4)
H22_3 H 0.8224 0.7031 0.4685
C26_3 C 0.8794(4) 0.5651(3) 0.4810(4)
H23_3 H 0.8750 0.5275 0.4496
C27_3 C 0.9258(3) 0.5658(3) 0.5627(4)
H24_3 H 0.9512 0.5283 0.5865
N28_2 N 0.9287(3) 0.5181(3) 0.7576(4)
C44_2 C 0.6557(3) 0.5741(3) 0.0130(4)
H40_2 H 0.6816 0.5375 0.0397
N20_2 N 0.6688(3) 0.6287(3) 0.0554(3)
C45_2 C 0.6300(3) 0.6782(3) 0.0137(4)
H41_2 H 0.6362 0.7182 0.0410
C52_4 C 0.6499(3) 0.1668(3) 0.0087(4)
H46_4 H 0.6776 0.2031 0.0315
C53_4 C 0.6206(4) 0.0651(3) 0.0190(4)
H47_4 H 0.6250 0.0275 0.0504
C1_4 C 0.1599(3) 0.3630(3) 0.8342(4)
H1_4 H 0.2084 0.3601 0.8679
H2_4 H 0.1403 0.3608 0.8717
C2_4 C 0.4086(3) 0.5039(3) 0.6122(4)
H3_4 H 0.3886 0.4693 0.5711
H4_4 H 0.4570 0.4973 0.6403
C3_4 C 0.4135(3) 0.2312(3) 0.6206(4)
H5_4 H 0.4620 0.2356 0.6538
H6_4 H 0.3978 0.2677 0.5816
N1_4 N 0.1668(2) 0.2932(2) 0.7315(3)
C4_4 C 0.1358(3) 0.3068(3) 0.7761(3)
C5_4 C 0.0847(3) 0.2679(3) 0.7700(4)
H7_4 H 0.0638 0.2782 0.8022
C6_4 C 0.0944(3) 0.2044(3) 0.6772(4)
H8_4 H 0.0809 0.1682 0.6415
C7_4 C 0.1453(3) 0.2418(3) 0.6817(4)
H9_4 H 0.1657 0.2312 0.6490
N3_4 N 0.1798(3) 0.4474(2) 0.7565(3)
C8_4 C 0.1427(3) 0.4264(3) 0.7904(3)
C9_4 C 0.0890(3) 0.4628(3) 0.7837(4)
H10_4 H 0.0644 0.4475 0.8094
C10_4 C 0.1086(4) 0.5377(3) 0.7091(4)
H11_4 H 0.0974 0.5767 0.6787
C11_4 C 0.1627(4) 0.5036(3) 0.7172(4)
H12_4 H 0.1886 0.5206 0.6941
N5_4 N 0.4129(2) 0.5340(2) 0.7427(3)
C12_4 C 0.3837(3) 0.4980(3) 0.6748(3)
C13_4 C 0.3332(3) 0.4570(3) 0.6619(4)
H13_4 H 0.3132 0.4325 0.6128
N6_4 N 0.3110(3) 0.4506(3) 0.7179(3)
C14_4 C 0.3392(3) 0.4859(3) 0.7844(4)
H14_4 H 0.3243 0.4830 0.8242
C15_4 C 0.3905(3) 0.5275(3) 0.7976(4)
H15_4 H 0.4102 0.5520 0.8467
N7_4 N 0.4304(2) 0.6182(2) 0.6083(3)
C16_4 C 0.3938(3) 0.5670(3) 0.5685(4)
C17_4 C 0.3443(3) 0.5741(3) 0.4870(4)
H16_4 H 0.3184 0.5375 0.4603
N8_4 N 0.3312(3) 0.6287(3) 0.4446(3)
C18_4 C 0.3700(3) 0.6782(3) 0.4863(4)
H17_4 H 0.3638 0.7182 0.4590
C19_4 C 0.4184(3) 0.6738(3) 0.5669(4)
H18_4 H 0.4437 0.7108 0.5935
N9_4 N 0.4111(2) 0.2032(2) 0.7472(3)
C20_4 C 0.3831(3) 0.2369(3) 0.6773(4)
C21_4 C 0.3295(3) 0.2766(3) 0.6584(4)
H19_4 H 0.3107 0.2990 0.6077
N10_4 N 0.3032(3) 0.2845(2) 0.7088(3)
C22_4 C 0.3306(3) 0.2507(3) 0.7780(4)
H20_4 H 0.3127 0.2539 0.8149
C23_4 C 0.3842(3) 0.2111(3) 0.7979(4)
H21_4 H 0.4028 0.1887 0.8486
N11_4 N 0.4360(3) 0.1181(2) 0.6093(3)
C24_4 C 0.3990(3) 0.1700(3) 0.5725(3)
C25_4 C 0.3501(3) 0.1668(3) 0.4913(4)
H22_4 H 0.3224 0.2031 0.4685
C26_4 C 0.3794(4) 0.0651(3) 0.4810(4)
H23_4 H 0.3750 0.0275 0.4496
C27_4 C 0.4258(3) 0.0658(3) 0.5627(4)
H24_4 H 0.4512 0.0283 0.5865
C28_4 C 0.8401(3) 0.3630(3) 0.6658(4)
H25_4 H 0.7916 0.3601 0.6321
H26_4 H 0.8597 0.3608 0.6283
C29_4 C 0.5914(3) 0.5039(3) 0.8878(4)
H27_4 H 0.6114 0.4693 0.9289
H28_4 H 0.5430 0.4973 0.8597
C30_4 C 0.5865(3) 0.2312(3) 0.8794(4)
H29_4 H 0.5380 0.2356 0.8462
H30_4 H 0.6022 0.2677 0.9184
N13_4 N 0.8332(2) 0.2932(2) 0.7685(3)
C31_4 C 0.8642(3) 0.3068(3) 0.7239(3)
C32_4 C 0.9153(3) 0.2679(3) 0.7300(4)
H31_4 H 0.9362 0.2782 0.6978
C33_4 C 0.9056(3) 0.2044(3) 0.8228(4)
H32_4 H 0.9191 0.1682 0.8585
C34_4 C 0.8547(3) 0.2418(3) 0.8183(4)
H33_4 H 0.8343 0.2312 0.8510
N15_4 N 0.8202(3) 0.4474(2) 0.7435(3)
C35_4 C 0.8573(3) 0.4264(3) 0.7096(3)
C36_4 C 0.9110(3) 0.4628(3) 0.7163(4)
H34_4 H 0.9356 0.4475 0.6906
C37_4 C 0.8914(4) 0.5377(3) 0.7909(4)
H35_4 H 0.9026 0.5767 0.8213
C38_4 C 0.8373(4) 0.5036(3) 0.7828(4)
H36_4 H 0.8114 0.5206 0.8059
N17_4 N 0.5871(2) 0.5340(2) 0.7573(3)
C39_4 C 0.6163(3) 0.4980(3) 0.8252(3)
C40_4 C 0.6668(3) 0.4570(3) 0.8381(4)
H37_4 H 0.6868 0.4325 0.8872
N18_4 N 0.6890(3) 0.4506(3) 0.7821(3)
C41_4 C 0.6608(3) 0.4859(3) 0.7156(4)
H38_4 H 0.6757 0.4830 0.6758
C42_4 C 0.6095(3) 0.5275(3) 0.7024(4)
H39_4 H 0.5898 0.5520 0.6533
N19_4 N 0.5696(2) 0.6182(2) 0.8917(3)
C43_4 C 0.6062(3) 0.5670(3) 0.9315(4)
C46_4 C 0.5816(3) 0.6738(3) 0.9331(4)
H42_4 H 0.5563 0.7108 0.9065
N21_4 N 0.5889(2) 0.2032(2) 0.7528(3)
C47_4 C 0.6169(3) 0.2369(3) 0.8227(4)
C48_4 C 0.6705(3) 0.2766(3) 0.8416(4)
H43_4 H 0.6893 0.2990 0.8923
N22_4 N 0.6968(3) 0.2845(2) 0.7912(3)
C49_4 C 0.6694(3) 0.2507(3) 0.7220(4)
H44_4 H 0.6873 0.2539 0.6851
C50_4 C 0.6158(3) 0.2111(3) 0.7021(4)
H45_4 H 0.5972 0.1887 0.6514
N23_4 N 0.5640(3) 0.1181(2) 0.8907(3)
C51_4 C 0.6010(3) 0.1700(3) 0.9275(3)
C54_4 C 0.5742(3) 0.0658(3) 0.9373(4)
H48_4 H 0.5488 0.0283 0.9135
C44_3 C 0.8443(3) 0.9259(3) 0.9870(4)
H40_3 H 0.8184 0.9625 0.9603
N20_3 N 0.8312(3) 0.8713(3) 0.9446(3)
C45_3 C 0.8700(3) 0.8218(3) 0.9863(4)
H41_3 H 0.8638 0.7818 0.9590
C44_4 C 0.1557(3) 0.0741(3) 0.0130(4)
H40_4 H 0.1816 0.0375 0.0397
N20_4 N 0.1688(3) 0.1287(3) 0.0554(3)
C45_4 C 0.1300(3) 0.1782(3) 0.0137(4)
H41_4 H 0.1362 0.2182 0.0410
O1 O 0.0025(4) 0.3065(3) 0.5158(4)
O3 O 0.0237(5) 0.3896(5) 0.6037(5)
Cl1 Cl 0.97347(8) 0.35624(8) 0.54022(10)
O2 O 0.9309(4) 0.3285(3) 0.5670(5)
O4 O 0.9384(3) 0.3975(3) 0.4733(4)
O4_2 O 0.0616(3) 0.3975(3) 0.0267(4)
Cl1_2 Cl 0.02653(8) 0.35624(8) 0.95978(10)
O2_2 O 0.0691(4) 0.3285(3) 0.9330(5)
O1_2 O 0.9975(4) 0.3065(3) 0.9842(4)
O3_2 O 0.9763(5) 0.3896(5) 0.8963(5)
Cl1_3 Cl 0.47347(8) 0.85624(8) 0.54022(10)
O1_3 O 0.5025(4) 0.8065(3) 0.5158(4)
O2_3 O 0.4309(4) 0.8285(3) 0.5670(5)
O3_3 O 0.5237(5) 0.8896(5) 0.6037(5)
O4_3 O 0.4384(3) 0.8975(3) 0.4733(4)
O4_4 O 0.5616(3) 0.8975(3) 0.0267(4)
Cl1_4 Cl 0.52653(8) 0.85624(8) 0.95978(10)
O1_4 O 0.4975(4) 0.8065(3) 0.9842(4)
O2_4 O 0.5691(4) 0.8285(3) 0.9330(5)
O3_4 O 0.4763(5) 0.8896(5) 0.8963(5)
Cl1_5 Cl 0.02653(8) 0.64376(8) 0.45978(10)
O2_5 O 0.0691(4) 0.6715(3) 0.4330(5)
O4_5 O 0.0616(3) 0.6025(3) 0.5267(4)
O1_5 O 0.9975(4) 0.6935(3) 0.4842(4)
O3_5 O 0.9763(5) 0.6104(5) 0.3963(5)
O1_6 O 0.0025(4) 0.6935(3) 0.0158(4)
O3_6 O 0.0237(5) 0.6104(5) 0.1037(5)
Cl1_6 Cl 0.97347(8) 0.64376(8) 0.04022(10)
O2_6 O 0.9309(4) 0.6715(3) 0.0670(5)
O4_6 O 0.9384(3) 0.6025(3) 0.9733(4)
Cl1_7 Cl 0.52653(8) 0.14376(8) 0.45978(10)
O1_7 O 0.4975(4) 0.1935(3) 0.4842(4)
O2_7 O 0.5691(4) 0.1715(3) 0.4330(5)
O3_7 O 0.4763(5) 0.1104(5) 0.3963(5)
O4_7 O 0.5616(3) 0.1025(3) 0.5267(4)
Cl1_8 Cl 0.47347(8) 0.14376(8) 0.04022(10)
O1_8 O 0.5025(4) 0.1935(3) 0.0158(4)
O2_8 O 0.4309(4) 0.1715(3) 0.0670(5)
O3_8 O 0.5237(5) 0.1104(5) 0.1037(5)
O4_8 O 0.4384(3) 0.1025(3) 0.9733(4)
Cl2 Cl 0.28202(8) 0.38367(7) 0.41910(10)
O5 O 0.2949(4) 0.3262(3) 0.4656(4)
O6 O 0.3420(3) 0.4112(3) 0.4276(4)
O7 O 0.2419(4) 0.3688(3) 0.3359(4)
O8 O 0.2503(3) 0.4294(3) 0.4460(4)
Cl2_2 Cl 0.71798(8) 0.38367(7) 0.08090(10)
O5_2 O 0.7051(4) 0.3262(3) 0.0344(4)
O6_2 O 0.6580(3) 0.4112(3) 0.0724(4)
O7_2 O 0.7581(4) 0.3688(3) 0.1641(4)
O8_2 O 0.7497(3) 0.4294(3) 0.0540(4)
Cl2_3 Cl 0.78202(8) 0.88367(7) 0.41910(10)
O5_3 O 0.7949(4) 0.8262(3) 0.4656(4)
O6_3 O 0.8420(3) 0.9112(3) 0.4276(4)
O7_3 O 0.7419(4) 0.8688(3) 0.3359(4)
O8_3 O 0.7503(3) 0.9294(3) 0.4460(4)
Cl2_4 Cl 0.21798(8) 0.88367(7) 0.08090(10)
O5_4 O 0.2051(4) 0.8262(3) 0.0344(4)
O6_4 O 0.1580(3) 0.9112(3) 0.0724(4)
O7_4 O 0.2581(4) 0.8688(3) 0.1641(4)
O8_4 O 0.2497(3) 0.9294(3) 0.0540(4)
Cl2_5 Cl 0.71798(8) 0.61633(7) 0.58090(10)
O5_5 O 0.7051(4) 0.6738(3) 0.5344(4)
O6_5 O 0.6580(3) 0.5888(3) 0.5724(4)
O7_5 O 0.7581(4) 0.6312(3) 0.6641(4)
O8_5 O 0.7497(3) 0.5706(3) 0.5540(4)
Cl2_6 Cl 0.28202(8) 0.61633(7) 0.91910(10)
O5_6 O 0.2949(4) 0.6738(3) 0.9656(4)
O6_6 O 0.3420(3) 0.5888(3) 0.9276(4)
O7_6 O 0.2419(4) 0.6312(3) 0.8359(4)
O8_6 O 0.2503(3) 0.5706(3) 0.9460(4)
Cl2_7 Cl 0.21798(8) 0.11633(7) 0.58090(10)
O5_7 O 0.2051(4) 0.1738(3) 0.5344(4)
O6_7 O 0.1580(3) 0.0888(3) 0.5724(4)
O7_7 O 0.2581(4) 0.1312(3) 0.6641(4)
O8_7 O 0.2497(3) 0.0706(3) 0.5540(4)
Cl2_8 Cl 0.78202(8) 0.11633(7) 0.91910(10)
O5_8 O 0.7949(4) 0.1738(3) 0.9656(4)
O6_8 O 0.8420(3) 0.0888(3) 0.9276(4)
O7_8 O 0.7419(4) 0.1312(3) 0.8359(4)
O8_8 O 0.7503(3) 0.0706(3) 0.9460(4)
loop_
_geom_bond_atom_site_label_1
_geom_bond_atom_site_label_2
_geom_bond_site_symmetry_1
_geom_bond_site_symmetry_2
Ag1 N1 1_555 1_555
C1 H1 1_555 1_555
H2 C1 1_555 1_555
Ag3 N11 1_555 1_555
C3 H5 1_555 1_555
H6 C3 1_555 1_555
N1 C4 1_555 1_555
C4 C1 1_555 1_555
C5 C4 1_555 1_555
H7 C5 1_555 1_555
N2 C5 1_555 1_555
C6 N2 1_555 1_555
H8 C6 1_555 1_555
C7 N1 1_555 1_555
H9 C7 1_555 1_555
N3 Ag1 1_555 1_555
C8 C1 1_555 1_555
C9 C8 1_555 1_555
H10 C9 1_555 1_555
C13 C12 1_555 1_555
H13 C13 1_555 1_555
N6 Ag1 1_555 1_555
C14 N6 1_555 1_555
H14 C14 1_555 1_555
N9 C20 1_555 1_555
C20 C3 1_555 1_555
C21 C20 1_555 1_555
H19 C21 1_555 1_555
N10 Ag1 1_555 1_555
C22 N10 1_555 1_555
H20 C22 1_555 1_555
C23 N9 1_555 1_555
H21 C23 1_555 1_555
N11 C24 1_555 1_555
C24 C3 1_555 1_555
C25 C24 1_555 1_555
H22 C25 1_555 1_555
N12 C25 1_555 1_555
C26 N12 1_555 1_555
H23 C26 1_555 1_555
C27 N11 1_555 1_555
H24 C27 1_555 1_555
Ag5 N12 1_555 1_555
Ag8 N2 1_555 1_555
N28 Ag3 1_555 1_555
N29 Ag1 1_555 1_555
C6 C7 1_555 1_555
N3 C8 1_555 1_555
C13 N6 1_555 1_555
C21 N10 1_555 1_555
C22 C23 1_555 1_555
C26 C27 1_555 1_555
Ag2 N5 1_555 1_555
C10 N4 1_555 1_555
H11 C10 1_555 1_555
H12 C11 1_555 1_555
C15 N5 1_555 1_555
H15 C15 1_555 1_555
N7 Ag2 1_555 1_555
C16 C2 1_555 1_555
C17 C16 1_555 1_555
H16 C17 1_555 1_555
N8 C17 1_555 1_555
C18 N8 1_555 1_555
H17 C18 1_555 1_555
C19 N7 1_555 1_555
H18 C19 1_555 1_555
Ag10 N4 1_555 1_555
N26 Ag2 1_555 1_555
C10 C11 1_555 1_555
N7 C16 1_555 1_555
C18 C19 1_555 1_555
Ag4 N13 1_555 1_555
C28 H25 1_555 1_555
H26 C28 1_555 1_555
C30 H29 1_555 1_555
H30 C30 1_555 1_555
N13 C31 1_555 1_555
C31 C28 1_555 1_555
C32 C31 1_555 1_555
H31 C32 1_555 1_555
N14 C32 1_555 1_555
C33 N14 1_555 1_555
H32 C33 1_555 1_555
C34 N13 1_555 1_555
H33 C34 1_555 1_555
N15 Ag4 1_555 1_555
C35 C28 1_555 1_555
C36 C35 1_555 1_555
H34 C36 1_555 1_555
C40 C39 1_555 1_555
H37 C40 1_555 1_555
N18 Ag4 1_555 1_555
C41 N18 1_555 1_555
H38 C41 1_555 1_555
N21 C47 1_555 1_555
C47 C30 1_555 1_555
C48 C47 1_555 1_555
H43 C48 1_555 1_555
N22 Ag4 1_555 1_555
C49 N22 1_555 1_555
H44 C49 1_555 1_555
C50 N21 1_555 1_555
H45 C50 1_555 1_555
N23 Ag3_2 1_555 1_555
C51 C30 1_555 1_555
C54 N23 1_555 1_555
H48 C54 1_555 1_555
Ag8 N14 1_555 1_555
N27 Ag3_2 1_555 1_555
N30 Ag4 1_555 1_555
C33 C34 1_555 1_555
N15 C35 1_555 1_555
C40 N18 1_555 1_555
C48 N22 1_555 1_555
C49 C50 1_555 1_555
N23 C51 1_555 1_555
H46 C52 1_555 1_555
N24 C52 1_555 1_555
C53 N24 1_555 1_555
H47 C53 1_555 1_555
Ag6 N24 1_555 1_555
C37 N16 1_555 1_555
H35 C37 1_555 1_555
H36 C38 1_555 1_555
N17 Ag2_2 1_555 1_555
C42 N17 1_555 1_555
H39 C42 1_555 1_555
N19 Ag2_2 1_555 1_555
C43 C29 1_555 1_555
C46 N19 1_555 1_555
H42 C46 1_555 1_555
Ag10 N16 1_555 1_555
N25 Ag2_2 1_555 1_555
C37 C38 1_555 1_555
N19 C43 1_555 1_555
Ag1_2 N1_2 1_555 1_555
C1_2 H1_2 1_555 1_555
H2_2 C1_2 1_555 1_555
Ag8 N5_2 1_555 1_555
C2_2 H3_2 1_555 1_555
H4_2 C2_2 1_555 1_555
Ag10 N11_2 1_555 1_555
C3_2 H5_2 1_555 1_555
H6_2 C3_2 1_555 1_555
N1_2 C4_2 1_555 1_555
C4_2 C1_2 1_555 1_555
C5_2 C4_2 1_555 1_555
H7_2 C5_2 1_555 1_555
N25 C5_2 1_555 1_555
C6_2 N25 1_555 1_555
H8_2 C6_2 1_555 1_555
C7_2 N1_2 1_555 1_555
H9_2 C7_2 1_555 1_555
N3_2 Ag1_2 1_555 1_555
C8_2 C1_2 1_555 1_555
C9_2 C8_2 1_555 1_555
H10_2 C9_2 1_555 1_555
N27 C9_2 1_555 1_555
C10_2 N27 1_555 1_555
H11_2 C10_2 1_555 1_555
C11_2 N3_2 1_555 1_555
H12_2 C11_2 1_555 1_555
N5_2 C12_2 1_555 1_555
C12_2 C2_2 1_555 1_555
C13_2 C12_2 1_555 1_555
H13_2 C13_2 1_555 1_555
N6_2 Ag1_2 1_555 1_555
C14_2 N6_2 1_555 1_555
H14_2 C14_2 1_555 1_555
C15_2 N5_2 1_555 1_555
H15_2 C15_2 1_555 1_555
N7_2 Ag8 1_555 1_555
C16_2 C2_2 1_555 1_555
C17_2 C16_2 1_555 1_555
H16_2 C17_2 1_555 1_555
N8_2 C17_2 1_555 1_555
C18_2 N8_2 1_555 1_555
H17_2 C18_2 1_555 1_555
C19_2 N7_2 1_555 1_555
H18_2 C19_2 1_555 1_555
N9_2 C20_2 1_555 1_555
C20_2 C3_2 1_555 1_555
C21_2 C20_2 1_555 1_555
H19_2 C21_2 1_555 1_555
N10_2 Ag1_2 1_555 1_555
C22_2 N10_2 1_555 1_555
H20_2 C22_2 1_555 1_555
C23_2 N9_2 1_555 1_555
H21_2 C23_2 1_555 1_555
N11_2 C24_2 1_555 1_555
C24_2 C3_2 1_555 1_555
C25_2 C24_2 1_555 1_555
H22_2 C25_2 1_555 1_555
N12_2 C25_2 1_555 1_555
C26_2 N12_2 1_555 1_555
H23_2 C26_2 1_555 1_555
C27_2 N11_2 1_555 1_555
H24_2 C27_2 1_555 1_555
Ag4_2 N13_2 1_555 1_555
C28_2 H25_2 1_555 1_555
H26_2 C28_2 1_555 1_555
C29_2 H27_2 1_555 1_555
H28_2 C29_2 1_555 1_555
C30_2 H29_2 1_555 1_555
H30_2 C30_2 1_555 1_555
N13_2 C31_2 1_555 1_555
C31_2 C28_2 1_555 1_555
C32_2 C31_2 1_555 1_555
H31_2 C32_2 1_555 1_555
N26 C32_2 1_555 1_555
C33_2 N26 1_555 1_555
H32_2 C33_2 1_555 1_555
C34_2 N13_2 1_555 1_555
H33_2 C34_2 1_555 1_555
N15_2 Ag4_2 1_555 1_555
C35_2 C28_2 1_555 1_555
C36_2 C35_2 1_555 1_555
H34_2 C36_2 1_555 1_555
N28 C36_2 1_555 1_555
C37_2 N28 1_555 1_555
H35_2 C37_2 1_555 1_555
C38_2 N15_2 1_555 1_555
H36_2 C38_2 1_555 1_555
N17_2 Ag8 1_555 1_555
C39_2 C29_2 1_555 1_555
C40_2 C39_2 1_555 1_555
H37_2 C40_2 1_555 1_555
N18_2 Ag4_2 1_555 1_555
C41_2 N18_2 1_555 1_555
H38_2 C41_2 1_555 1_555
C42_2 N17_2 1_555 1_555
H39_2 C42_2 1_555 1_555
N19_2 Ag8 1_555 1_555
C43_2 C29_2 1_555 1_555
C46_2 N19_2 1_555 1_555
H42_2 C46_2 1_555 1_555
N21_2 C47_2 1_555 1_555
C47_2 C30_2 1_555 1_555
C48_2 C47_2 1_555 1_555
H43_2 C48_2 1_555 1_555
N22_2 Ag4_2 1_555 1_555
C49_2 N22_2 1_555 1_555
H44_2 C49_2 1_555 1_555
C50_2 N21_2 1_555 1_555
H45_2 C50_2 1_555 1_555
N23_2 Ag10 1_555 1_555
C51_2 C30_2 1_555 1_555
C54_2 N23_2 1_555 1_555
H48_2 C54_2 1_555 1_555
Ag5_2 N12_2 1_555 1_555
N29_2 Ag1_2 1_555 1_555
N30_2 Ag4_2 1_555 1_555
C6_2 C7_2 1_555 1_555
N3_2 C8_2 1_555 1_555
C10_2 C11_2 1_555 1_555
C13_2 N6_2 1_555 1_555
C14_2 C15_2 1_555 1_555
N7_2 C16_2 1_555 1_555
C18_2 C19_2 1_555 1_555
C21_2 N10_2 1_555 1_555
C22_2 C23_2 1_555 1_555
C26_2 C27_2 1_555 1_555
C33_2 C34_2 1_555 1_555
N15_2 C35_2 1_555 1_555
C37_2 C38_2 1_555 1_555
N17_2 C39_2 1_555 1_555
C40_2 N18_2 1_555 1_555
C41_2 C42_2 1_555 1_555
N19_2 C43_2 1_555 1_555
C48_2 N22_2 1_555 1_555
C49_2 C50_2 1_555 1_555
N23_2 C51_2 1_555 1_555
H40 C44 1_555 1_555
N20 C44 1_555 1_555
C45 N20 1_555 1_555
H41 C45 1_555 1_555
H46_2 C52_2 1_555 1_555
N24_2 C52_2 1_555 1_555
C53_2 N24_2 1_555 1_555
H47_2 C53_2 1_555 1_555
Ag6_2 N24_2 1_555 1_555
C37_3 N16_2 1_555 1_555
H35_3 C37_3 1_555 1_555
H36_3 C38_3 1_555 1_555
N17_3 Ag2_3 1_555 1_555
C42_3 N17_3 1_555 1_555
H39_3 C42_3 1_555 1_555
N19_3 Ag2_3 1_555 1_555
C43_3 C29_3 1_555 1_555
C46_3 N19_3 1_555 1_555
H42_3 C46_3 1_555 1_555
Ag9 N16_2 1_555 1_555
N25_2 Ag2_3 1_555 1_555
C37_3 C38_3 1_555 1_555
N19_3 C43_3 1_555 1_555
H46_3 C52_3 1_555 1_555
N30_2 C52_3 1_555 1_555
C53_3 N30_2 1_555 1_555
H47_3 C53_3 1_555 1_555
Ag6_2 N13_3 1_555 1_555
C28_3 H25_3 1_555 1_555
H26_3 C28_3 1_555 1_555
C30_3 H29_3 1_555 1_555
H30_3 C30_3 1_555 1_555
N13_3 C31_3 1_555 1_555
C31_3 C28_3 1_555 1_555
C32_3 C31_3 1_555 1_555
H31_3 C32_3 1_555 1_555
N14_2 C32_3 1_555 1_555
C33_3 N14_2 1_555 1_555
H32_3 C33_3 1_555 1_555
C34_3 N13_3 1_555 1_555
H33_3 C34_3 1_555 1_555
N15_3 Ag6_2 1_555 1_555
C35_3 C28_3 1_555 1_555
C36_3 C35_3 1_555 1_555
H34_3 C36_3 1_555 1_555
C40_3 C39_3 1_555 1_555
H37_3 C40_3 1_555 1_555
N18_3 Ag6_2 1_555 1_555
C41_3 N18_3 1_555 1_555
H38_3 C41_3 1_555 1_555
N21_3 C47_3 1_555 1_555
C47_3 C30_3 1_555 1_555
C48_3 C47_3 1_555 1_555
H43_3 C48_3 1_555 1_555
N22_3 Ag6_2 1_555 1_555
C49_3 N22_3 1_555 1_555
H44_3 C49_3 1_555 1_555
C50_3 N21_3 1_555 1_555
H45_3 C50_3 1_555 1_555
N23_3 Ag3_3 1_555 1_555
C51_3 C30_3 1_555 1_555
C54_3 N23_3 1_555 1_555
H48_3 C54_3 1_555 1_555
Ag7 N14_2 1_555 1_555
N27_2 Ag3_3 1_555 1_555
C33_3 C34_3 1_555 1_555
N15_3 C35_3 1_555 1_555
C40_3 N18_3 1_555 1_555
C48_3 N22_3 1_555 1_555
C49_3 C50_3 1_555 1_555
N23_3 C51_3 1_555 1_555
Ag2_4 N5_3 1_555 1_555
C10_3 N4_2 1_555 1_555
H11_3 C10_3 1_555 1_555
H12_3 C11_3 1_555 1_555
C15_3 N5_3 1_555 1_555
H15_3 C15_3 1_555 1_555
N7_3 Ag2_4 1_555 1_555
C16_3 C2_3 1_555 1_555
C17_3 C16_3 1_555 1_555
H16_3 C17_3 1_555 1_555
N8_3 C17_3 1_555 1_555
C18_3 N8_3 1_555 1_555
H17_3 C18_3 1_555 1_555
C19_3 N7_3 1_555 1_555
H18_3 C19_3 1_555 1_555
Ag9 N4_2 1_555 1_555
N26_2 Ag2_4 1_555 1_555
C10_3 C11_3 1_555 1_555
N7_3 C16_3 1_555 1_555
C18_3 C19_3 1_555 1_555
Ag5_2 N1_3 1_555 1_555
C1_3 H1_3 1_555 1_555
H2_3 C1_3 1_555 1_555
Ag3_4 N11_3 1_555 1_555
C3_3 H5_3 1_555 1_555
H6_3 C3_3 1_555 1_555
N1_3 C4_3 1_555 1_555
C4_3 C1_3 1_555 1_555
C5_3 C4_3 1_555 1_555
H7_3 C5_3 1_555 1_555
N2_2 C5_3 1_555 1_555
C6_3 N2_2 1_555 1_555
H8_3 C6_3 1_555 1_555
C7_3 N1_3 1_555 1_555
H9_3 C7_3 1_555 1_555
N3_3 Ag5_2 1_555 1_555
C8_3 C1_3 1_555 1_555
C9_3 C8_3 1_555 1_555
H10_3 C9_3 1_555 1_555
C13_3 C12_3 1_555 1_555
H13_3 C13_3 1_555 1_555
N6_3 Ag5_2 1_555 1_555
C14_3 N6_3 1_555 1_555
H14_3 C14_3 1_555 1_555
N9_3 C20_3 1_555 1_555
C20_3 C3_3 1_555 1_555
C21_3 C20_3 1_555 1_555
H19_3 C21_3 1_555 1_555
N10_3 Ag5_2 1_555 1_555
C22_3 N10_3 1_555 1_555
H20_3 C22_3 1_555 1_555
C23_3 N9_3 1_555 1_555
H21_3 C23_3 1_555 1_555
N11_3 C24_3 1_555 1_555
C24_3 C3_3 1_555 1_555
C25_3 C24_3 1_555 1_555
H22_3 C25_3 1_555 1_555
N29_2 C25_3 1_555 1_555
C26_3 N29_2 1_555 1_555
H23_3 C26_3 1_555 1_555
C27_3 N11_3 1_555 1_555
H24_3 C27_3 1_555 1_555
Ag7 N2_2 1_555 1_555
N28_2 Ag3_4 1_555 1_555
C6_3 C7_3 1_555 1_555
N3_3 C8_3 1_555 1_555
C13_3 N6_3 1_555 1_555
C21_3 N10_3 1_555 1_555
C22_3 C23_3 1_555 1_555
C26_3 C27_3 1_555 1_555
H40_2 C44_2 1_555 1_555
N20_2 C44_2 1_555 1_555
C45_2 N20_2 1_555 1_555
H41_2 C45_2 1_555 1_555
H46_4 C52_4 1_555 1_555
N30 C52_4 1_555 1_555
C53_4 N30 1_555 1_555
H47_4 C53_4 1_555 1_555
Ag5 N1_4 1_555 1_555
C1_4 H1_4 1_555 1_555
H2_4 C1_4 1_555 1_555
Ag7 N5_4 1_555 1_555
C2_4 H3_4 1_555 1_555
H4_4 C2_4 1_555 1_555
Ag9 N11_4 1_555 1_555
C3_4 H5_4 1_555 1_555
H6_4 C3_4 1_555 1_555
N1_4 C4_4 1_555 1_555
C4_4 C1_4 1_555 1_555
C5_4 C4_4 1_555 1_555
H7_4 C5_4 1_555 1_555
N25_2 C5_4 1_555 1_555
C6_4 N25_2 1_555 1_555
H8_4 C6_4 1_555 1_555
C7_4 N1_4 1_555 1_555
H9_4 C7_4 1_555 1_555
N3_4 Ag5 1_555 1_555
C8_4 C1_4 1_555 1_555
C9_4 C8_4 1_555 1_555
H10_4 C9_4 1_555 1_555
N27_2 C9_4 1_555 1_555
C10_4 N27_2 1_555 1_555
H11_4 C10_4 1_555 1_555
C11_4 N3_4 1_555 1_555
H12_4 C11_4 1_555 1_555
N5_4 C12_4 1_555 1_555
C12_4 C2_4 1_555 1_555
C13_4 C12_4 1_555 1_555
H13_4 C13_4 1_555 1_555
N6_4 Ag5 1_555 1_555
C14_4 N6_4 1_555 1_555
H14_4 C14_4 1_555 1_555
C15_4 N5_4 1_555 1_555
H15_4 C15_4 1_555 1_555
N7_4 Ag7 1_555 1_555
C16_4 C2_4 1_555 1_555
C17_4 C16_4 1_555 1_555
H16_4 C17_4 1_555 1_555
N8_4 C17_4 1_555 1_555
C18_4 N8_4 1_555 1_555
H17_4 C18_4 1_555 1_555
C19_4 N7_4 1_555 1_555
H18_4 C19_4 1_555 1_555
N9_4 C20_4 1_555 1_555
C20_4 C3_4 1_555 1_555
C21_4 C20_4 1_555 1_555
H19_4 C21_4 1_555 1_555
N10_4 Ag5 1_555 1_555
C22_4 N10_4 1_555 1_555
H20_4 C22_4 1_555 1_555
C23_4 N9_4 1_555 1_555
H21_4 C23_4 1_555 1_555
N11_4 C24_4 1_555 1_555
C24_4 C3_4 1_555 1_555
C25_4 C24_4 1_555 1_555
H22_4 C25_4 1_555 1_555
N29 C25_4 1_555 1_555
C26_4 N29 1_555 1_555
H23_4 C26_4 1_555 1_555
C27_4 N11_4 1_555 1_555
H24_4 C27_4 1_555 1_555
Ag6 N13_4 1_555 1_555
C28_4 H25_4 1_555 1_555
H26_4 C28_4 1_555 1_555
C29_4 H27_4 1_555 1_555
H28_4 C29_4 1_555 1_555
C30_4 H29_4 1_555 1_555
H30_4 C30_4 1_555 1_555
N13_4 C31_4 1_555 1_555
C31_4 C28_4 1_555 1_555
C32_4 C31_4 1_555 1_555
H31_4 C32_4 1_555 1_555
N26_2 C32_4 1_555 1_555
C33_4 N26_2 1_555 1_555
H32_4 C33_4 1_555 1_555
C34_4 N13_4 1_555 1_555
H33_4 C34_4 1_555 1_555
N15_4 Ag6 1_555 1_555
C35_4 C28_4 1_555 1_555
C36_4 C35_4 1_555 1_555
H34_4 C36_4 1_555 1_555
N28_2 C36_4 1_555 1_555
C37_4 N28_2 1_555 1_555
H35_4 C37_4 1_555 1_555
C38_4 N15_4 1_555 1_555
H36_4 C38_4 1_555 1_555
N17_4 Ag7 1_555 1_555
C39_4 C29_4 1_555 1_555
C40_4 C39_4 1_555 1_555
H37_4 C40_4 1_555 1_555
N18_4 Ag6 1_555 1_555
C41_4 N18_4 1_555 1_555
H38_4 C41_4 1_555 1_555
C42_4 N17_4 1_555 1_555
H39_4 C42_4 1_555 1_555
N19_4 Ag7 1_555 1_555
C43_4 C29_4 1_555 1_555
C46_4 N19_4 1_555 1_555
H42_4 C46_4 1_555 1_555
N21_4 C47_4 1_555 1_555
C47_4 C30_4 1_555 1_555
C48_4 C47_4 1_555 1_555
H43_4 C48_4 1_555 1_555
N22_4 Ag6 1_555 1_555
C49_4 N22_4 1_555 1_555
H44_4 C49_4 1_555 1_555
C50_4 N21_4 1_555 1_555
H45_4 C50_4 1_555 1_555
N23_4 Ag9 1_555 1_555
C51_4 C30_4 1_555 1_555
C54_4 N23_4 1_555 1_555
H48_4 C54_4 1_555 1_555
C6_4 C7_4 1_555 1_555
N3_4 C8_4 1_555 1_555
C10_4 C11_4 1_555 1_555
C13_4 N6_4 1_555 1_555
C14_4 C15_4 1_555 1_555
N7_4 C16_4 1_555 1_555
C18_4 C19_4 1_555 1_555
C21_4 N10_4 1_555 1_555
C22_4 C23_4 1_555 1_555
C26_4 C27_4 1_555 1_555
C33_4 C34_4 1_555 1_555
N15_4 C35_4 1_555 1_555
C37_4 C38_4 1_555 1_555
N17_4 C39_4 1_555 1_555
C40_4 N18_4 1_555 1_555
C41_4 C42_4 1_555 1_555
N19_4 C43_4 1_555 1_555
C48_4 N22_4 1_555 1_555
C49_4 C50_4 1_555 1_555
N23_4 C51_4 1_555 1_555
H40_3 C44_3 1_555 1_555
N20_3 C44_3 1_555 1_555
C45_3 N20_3 1_555 1_555
H41_3 C45_3 1_555 1_555
H40_4 C44_4 1_555 1_555
N20_4 C44_4 1_555 1_555
C45_4 N20_4 1_555 1_555
H41_4 C45_4 1_555 1_555
O2 Cl1 1_555 1_555
O4 Cl1 1_555 1_555
O2_2 Cl1_2 1_555 1_555
Cl1_3 O1_3 1_555 1_555
O2_3 Cl1_3 1_555 1_555
O3_3 Cl1_3 1_555 1_555
O4_3 Cl1_3 1_555 1_555
Cl1_4 O1_4 1_555 1_555
O2_4 Cl1_4 1_555 1_555
O3_4 Cl1_4 1_555 1_555
O2_5 Cl1_5 1_555 1_555
O4_5 Cl1_5 1_555 1_555
O2_6 Cl1_6 1_555 1_555
Cl1_7 O1_7 1_555 1_555
O2_7 Cl1_7 1_555 1_555
O3_7 Cl1_7 1_555 1_555
O4_7 Cl1_7 1_555 1_555
Cl1_8 O1_8 1_555 1_555
O2_8 Cl1_8 1_555 1_555
O3_8 Cl1_8 1_555 1_555
Cl2 O5 1_555 1_555
O6 Cl2 1_555 1_555
O7 Cl2 1_555 1_555
O8 Cl2 1_555 1_555
Cl2_2 O5_2 1_555 1_555
O6_2 Cl2_2 1_555 1_555
O7_2 Cl2_2 1_555 1_555
O8_2 Cl2_2 1_555 1_555
Cl2_3 O5_3 1_555 1_555
O6_3 Cl2_3 1_555 1_555
O7_3 Cl2_3 1_555 1_555
O8_3 Cl2_3 1_555 1_555
Cl2_4 O5_4 1_555 1_555
O6_4 Cl2_4 1_555 1_555
O7_4 Cl2_4 1_555 1_555
O8_4 Cl2_4 1_555 1_555
Cl2_5 O5_5 1_555 1_555
O6_5 Cl2_5 1_555 1_555
O7_5 Cl2_5 1_555 1_555
O8_5 Cl2_5 1_555 1_555
Cl2_6 O5_6 1_555 1_555
O6_6 Cl2_6 1_555 1_555
O7_6 Cl2_6 1_555 1_555
O8_6 Cl2_6 1_555 1_555
Cl2_7 O5_7 1_555 1_555
O6_7 Cl2_7 1_555 1_555
O7_7 Cl2_7 1_555 1_555
O8_7 Cl2_7 1_555 1_555
Cl2_8 O5_8 1_555 1_555
O6_8 Cl2_8 1_555 1_555
O7_8 Cl2_8 1_555 1_555
O8_8 Cl2_8 1_555 1_555

#END
