
###############################################################################
#
# This file contains modified crystal structure data generated from the
# MOF subset of the Cambridge Structural Database (CSD) v543 
# hosted by the Cambridge Crystallographic Data Centre (CCDC).
#
# This work is licensed under the Creative Commons
# Attribution-NonCommercial-ShareAlike 4.0 International License.
# To view a copy of this license, visit
# http://creativecommons.org/licenses/by-nc-sa/4.0/
# or send a letter to
# Creative Commons, PO Box 1866, Mountain View, CA 94042, USA.
#
# CIF created using the CSD Python API on 29 September 2022
# The structure has been converted into the P1 space group
# The structure has a 3D framework
# The original CSD entry BUYDAC is in the orthorhombic crystal system
# The framework has been calculated to contain at least 10.0% void space
# The void calculation uses a probe of radius 1.32A, grid spacing 0.4
#
###############################################################################

data_BUYDAC
_chemical_formula_moiety         '(C80 H64 N48 O31 Zn14)n'
_symmetry_cell_setting           triclinic
_symmetry_space_group_name_H-M   'P 1'
_symmetry_Int_Tables_number      1
_space_group_name_Hall           'P 1'
loop_
_symmetry_equiv_pos_site_id
_symmetry_equiv_pos_as_xyz
1 x,y,z
_cell_length_a                   27.0505(9)
_cell_length_b                   13.5009(4)
_cell_length_c                   13.5576(5)
_cell_angle_alpha                90
_cell_angle_beta                 90
_cell_angle_gamma                90
_cell_volume                     4951.32
loop_
_atom_site_label
_atom_site_type_symbol
_atom_site_fract_x
_atom_site_fract_y
_atom_site_fract_z
C16 C 0.0257(8) 0.0378(19) 0.070(2)
H12 H 0.0346 0.0859 0.0245
Zn5 Zn 0.20185(4) 0.00872(7) 0.05757(8)
C1 C 0.1126(6) 0.9864(17) 0.0713(18)
C3 C 0.0579(5) 0.9847(17) 0.097(2)
H2 H 0.0484 0.9350 0.1409
O1 O 0.1420(4) 0.9532(10) 0.1182(12)
Zn2 Zn 0.79610(4) 0.10036(8) 0.12909(8)
C2 C 0.9368(6) 0.1024(15) 0.076(2)
H1 H 0.9421 0.1539 0.0317
C5 C 0.8908(7) 0.0896(12) 0.1203(15)
C12 C 0.9744(5) 0.0369(17) 0.0995(17)
C13 C 0.7479(4) 0.2959(7) 0.0932(9)
H9 H 0.7711 0.3251 0.1345
N7 N 0.7110(3) 0.1882(5) 0.0127(7)
N10 N 0.7133(2) 0.3473(4) 0.0468(6)
N11 N 0.7465(3) 0.1982(6) 0.0757(7)
O6 O 0.8766(3) 0.0303(11) 0.1726(9)
O7 O 0.8576(4) 0.1522(8) 0.0787(11)
Zn7 Zn 0.70185(4) 0.49128(7) 0.05757(8)
N13 N 0.7790(3) 0.0928(6) 0.2720(6)
Zn4 Zn 0.69215(3) 0.05771(7) 0.94490(8)
C6 C 0.7475(3) 0.0169(7) 0.7526(8)
C9 C 0.5959(4) 0.0573(12) 0.9393(15)
C11 C 0.6908(3) 0.2798(8) 0.9980(7)
H7 H 0.6638 0.2917 0.9573
C15 C 0.5410(4) 0.0337(10) 0.9358(19)
H11 H 0.5192 0.0729 0.8998
C18 C 0.6920(3) 0.1257(6) 0.7328(8)
H14 H 0.6664 0.1698 0.7450
N3 N 0.7113(3) 0.0673(6) 0.8031(6)
N4 N 0.7496(3) 0.0397(5) 0.6592(6)
N8 N 0.7128(3) 0.1154(6) 0.6435(7)
O5 O 0.6097(3) 0.1366(8) 0.8912(10)
Zn9 Zn 0.69405(4) 0.17419(7) 0.51595(8)
N15 N 0.7787(3) 0.0582(6) 0.4287(6)
O9 O 0.8580(4) 0.0468(10) 0.6182(12)
Zn3 Zn 0.80595(4) 0.67419(7) 0.01595(8)
C4 C 0.4549(4) 0.8513(10) 0.0297(14)
H3 H 0.4767 0.8110 0.0644
C7 C 0.4011(4) 0.8221(9) 0.0364(11)
C10 C 0.8010(4) 0.8885(8) 0.0784(9)
H6 H 0.8269 0.8781 0.1223
H8 H 0.9652 0.9845 0.1401
H13 H 0.5476 0.9186 0.0246
N2 N 0.7808(3) 0.8179(5) 0.0199(7)
N12 N 0.7791(3) 0.9726(6) 0.0645(8)
O8 O 0.3852(3) 0.7681(7) 0.0933(10)
Zn10 Zn 0.30595(4) 0.82581(7) 0.01595(8)
N14 N 0.7872(3) 0.6154(6) 0.1435(7)
O12 O 0.8852(3) 0.7319(7) 0.0933(10)
Zn1 Zn 0.79815(4) 0.99128(7) 0.55757(8)
H4 H 0.7684 0.9711 0.7822
C8 C 0.7463(4) 0.8613(7) 0.9724(8)
H5 H 0.7268 0.8298 0.9253
C14 C 0.4738(5) 0.9197(12) 0.9856(14)
H10 H 0.4526 0.9557 0.9452
C17 C 0.5249(5) 0.9536(14) 0.9868(17)
C19 C 0.7585(4) 0.6398(7) 0.8183(8)
H15 H 0.7808 0.6814 0.7865
C20 C 0.7005(3) 0.5426(8) 0.8401(10)
H16 H 0.6740 0.4998 0.8297
N1 N 0.7210(3) 0.5928(6) 0.7720(6)
N5 N 0.7411(3) 0.9541(5) 0.9965(6)
N6 N 0.7599(3) 0.6199(5) 0.9136(6)
N9 N 0.7213(3) 0.5582(6) 0.9287(6)
O3 O 0.3734(3) 0.8627(8) 0.9763(10)
O4 O 0.6274(3) 0.9976(6) 0.9747(8)
Zn8 Zn 0.70390(4) 0.60036(8) 0.62909(8)
N16 N 0.7867(2) 0.8473(4) 0.5468(6)
O10 O 0.8793(5) 0.9636(12) 0.4924(14)
O11 O 0.8734(3) 0.6373(8) 0.9763(10)
Zn3_2 Zn 0.19405(4) 0.32581(7) 0.51595(8)
C4_2 C 0.5451(4) 0.1487(10) 0.5297(14)
H3_2 H 0.5233 0.1890 0.5644
H4_2 H 0.2316 0.0289 0.2822
C7_2 C 0.5989(4) 0.1779(9) 0.5364(11)
C8_2 C 0.2537(4) 0.1387(7) 0.4724(8)
H5_2 H 0.2732 0.1702 0.4253
C10_2 C 0.1990(4) 0.1115(8) 0.5784(9)
H6_2 H 0.1731 0.1219 0.6223
H8_2 H 0.0348 0.0155 0.6401
C14_2 C 0.5262(5) 0.0803(12) 0.4856(14)
H10_2 H 0.5474 0.0443 0.4452
C17_2 C 0.4751(5) 0.0464(14) 0.4868(17)
H13_2 H 0.4524 0.0814 0.5246
C19_2 C 0.2415(4) 0.3602(7) 0.3183(8)
H15_2 H 0.2192 0.3186 0.2865
C20_2 C 0.2995(3) 0.4574(8) 0.3401(10)
H16_2 H 0.3260 0.5002 0.3297
N1_2 N 0.2790(3) 0.4072(6) 0.2720(6)
N2_2 N 0.2192(3) 0.1821(5) 0.5199(7)
N5_2 N 0.2589(3) 0.0459(5) 0.4965(6)
N6_2 N 0.2401(3) 0.3801(5) 0.4136(6)
N9_2 N 0.2787(3) 0.4418(6) 0.4287(6)
N12_2 N 0.2209(3) 0.0274(6) 0.5645(8)
O3_2 O 0.6266(3) 0.1373(8) 0.4763(10)
O4_2 O 0.3726(3) 0.0024(6) 0.4747(8)
O8_2 O 0.6148(3) 0.2319(7) 0.5933(10)
Zn6 Zn 0.29815(4) 0.50872(7) 0.55757(8)
Zn8_2 Zn 0.29610(4) 0.39964(8) 0.12909(8)
N14_2 N 0.2128(3) 0.3846(6) 0.6435(7)
N16_2 N 0.2133(2) 0.1527(4) 0.0468(6)
O11_2 O 0.1266(3) 0.3627(8) 0.4763(10)
O12_2 O 0.1148(3) 0.2681(7) 0.5933(10)
Zn2_2 Zn 0.20390(4) 0.89964(8) 0.62909(8)
Zn4_2 Zn 0.30785(3) 0.94229(7) 0.44490(8)
C2_2 C 0.0632(6) 0.8976(15) 0.576(2)
H1_2 H 0.0579 0.8461 0.5317
C5_2 C 0.1092(7) 0.9104(12) 0.6203(15)
C6_2 C 0.2525(3) 0.9831(7) 0.2526(8)
C9_2 C 0.4041(4) 0.9427(12) 0.4393(15)
C11_2 C 0.3092(3) 0.7202(8) 0.4980(7)
H7_2 H 0.3362 0.7083 0.4573
C12_2 C 0.0256(5) 0.9631(17) 0.5995(17)
C13_2 C 0.2521(4) 0.7041(7) 0.5932(9)
H9_2 H 0.2289 0.6749 0.6345
C15_2 C 0.4590(4) 0.9663(10) 0.4358(19)
H11_2 H 0.4808 0.9271 0.3998
C18_2 C 0.3080(3) 0.8743(6) 0.2328(8)
H14_2 H 0.3336 0.8302 0.2450
N3_2 N 0.2887(3) 0.9327(6) 0.3031(6)
N4_2 N 0.2504(3) 0.9603(5) 0.1592(6)
N7_2 N 0.2890(3) 0.8118(5) 0.5127(7)
N8_2 N 0.2872(3) 0.8846(6) 0.1435(7)
N10_2 N 0.2867(2) 0.6527(4) 0.5468(6)
N11_2 N 0.2535(3) 0.8018(6) 0.5757(7)
O5_2 O 0.3903(3) 0.8634(8) 0.3912(10)
O6_2 O 0.1234(3) 0.9697(11) 0.6726(9)
O7_2 O 0.1424(4) 0.8478(8) 0.5787(11)
N13_2 N 0.2210(3) 0.9072(6) 0.7720(6)
N15_2 N 0.2213(3) 0.9418(6) 0.9287(6)
C1_2 C 0.8874(6) 0.0136(17) 0.5713(18)
C3_2 C 0.9421(5) 0.0153(17) 0.597(2)
H2_2 H 0.9516 0.0650 0.6409
C16_2 C 0.9743(8) 0.9622(19) 0.570(2)
H12_2 H 0.9654 0.9141 0.5245
C4_3 C 0.0451(4) 0.3513(10) 0.5297(14)
H3_3 H 0.0233 0.3110 0.5644
C7_3 C 0.0989(4) 0.3221(9) 0.5364(11)
C14_3 C 0.0262(5) 0.4197(12) 0.4856(14)
H10_3 H 0.0474 0.4557 0.4452
Zn4_3 Zn 0.80785(3) 0.55771(7) 0.44490(8)
C1_3 C 0.3874(6) 0.4864(17) 0.5713(18)
C2_3 C 0.5632(6) 0.6024(15) 0.576(2)
H1_3 H 0.5579 0.6539 0.5317
C3_3 C 0.4421(5) 0.4847(17) 0.597(2)
H2_3 H 0.4516 0.4350 0.6409
C5_3 C 0.6092(7) 0.5896(12) 0.6203(15)
C6_3 C 0.7525(3) 0.5169(7) 0.2526(8)
H4_3 H 0.7316 0.4711 0.2822
C8_3 C 0.7537(4) 0.3613(7) 0.4724(8)
H5_3 H 0.7732 0.3298 0.4253
C9_3 C 0.9041(4) 0.5573(12) 0.4393(15)
C10_3 C 0.6990(4) 0.3885(8) 0.5784(9)
H6_3 H 0.6731 0.3781 0.6223
C11_3 C 0.8092(3) 0.7798(8) 0.4980(7)
H7_3 H 0.8362 0.7917 0.4573
C12_3 C 0.5256(5) 0.5369(17) 0.5995(17)
H8_3 H 0.5348 0.4845 0.6401
C13_3 C 0.7521(4) 0.7959(7) 0.5932(9)
H9_3 H 0.7289 0.8251 0.6345
C15_3 C 0.9590(4) 0.5337(10) 0.4358(19)
H11_3 H 0.9808 0.5729 0.3998
C16_3 C 0.4743(8) 0.5378(19) 0.570(2)
H12_3 H 0.4654 0.5859 0.5245
C17_3 C 0.9751(5) 0.4536(14) 0.4868(17)
H13_3 H 0.9524 0.4186 0.5246
C18_3 C 0.8080(3) 0.6257(6) 0.2328(8)
H14_3 H 0.8336 0.6698 0.2450
C19_3 C 0.7415(4) 0.1398(7) 0.3183(8)
H15_3 H 0.7192 0.1814 0.2865
C20_3 C 0.7995(3) 0.0426(8) 0.3401(10)
N2_3 N 0.7192(3) 0.3179(5) 0.5199(7)
N3_3 N 0.7887(3) 0.5673(6) 0.3031(6)
N4_3 N 0.7504(3) 0.5397(5) 0.1592(6)
N5_3 N 0.7589(3) 0.4541(5) 0.4965(6)
N6_3 N 0.7401(3) 0.1199(5) 0.4136(6)
N7_3 N 0.7890(3) 0.6882(5) 0.5127(7)
N11_3 N 0.7535(3) 0.6982(6) 0.5757(7)
N12_3 N 0.7209(3) 0.4726(6) 0.5645(8)
O1_2 O 0.3580(4) 0.4532(10) 0.6182(12)
O2 O 0.3793(5) 0.5364(12) 0.4924(14)
O4_3 O 0.8726(3) 0.4976(6) 0.4747(8)
O5_3 O 0.8903(3) 0.6366(8) 0.3912(10)
O6_3 O 0.6234(3) 0.5303(11) 0.6726(9)
O7_3 O 0.6424(4) 0.6522(8) 0.5787(11)
O9_2 O 0.6420(4) 0.5468(10) 0.1182(12)
O10_2 O 0.6207(5) 0.4636(12) 0.9924(14)
H16_3 H 0.8260 0.9998 0.3297
C1_4 C 0.6126(6) 0.5136(17) 0.0713(18)
C2_4 C 0.4368(6) 0.3976(15) 0.076(2)
H1_4 H 0.4421 0.3461 0.0317
C3_4 C 0.5579(5) 0.5153(17) 0.097(2)
H2_4 H 0.5484 0.5650 0.1409
C5_4 C 0.3908(7) 0.4104(12) 0.1203(15)
C10_4 C 0.3010(4) 0.6115(8) 0.0784(9)
H6_4 H 0.3269 0.6219 0.1223
C12_4 C 0.4744(5) 0.4631(17) 0.0995(17)
H8_4 H 0.4652 0.5155 0.1401
C13_4 C 0.2479(4) 0.2041(7) 0.0932(9)
H9_4 H 0.2711 0.1749 0.1345
C16_4 C 0.5257(8) 0.4622(19) 0.070(2)
H12_4 H 0.5346 0.4141 0.0245
H13_4 H 0.0476 0.5814 0.0246
N2_4 N 0.2808(3) 0.6821(5) 0.0199(7)
N7_4 N 0.2110(3) 0.3118(5) 0.0127(7)
N11_4 N 0.2465(3) 0.3018(6) 0.0757(7)
N12_4 N 0.2791(3) 0.5274(6) 0.0645(8)
O6_4 O 0.3766(3) 0.4697(11) 0.1726(9)
O7_4 O 0.3576(4) 0.3478(8) 0.0787(11)
Zn4_4 Zn 0.19215(3) 0.44229(7) 0.94490(8)
C6_4 C 0.2475(3) 0.4831(7) 0.7526(8)
H4_4 H 0.2684 0.5289 0.7822
C8_4 C 0.2463(4) 0.6387(7) 0.9724(8)
H5_4 H 0.2268 0.6702 0.9253
C9_4 C 0.0959(4) 0.4427(12) 0.9393(15)
C11_4 C 0.1908(3) 0.2202(8) 0.9980(7)
H7_4 H 0.1638 0.2083 0.9573
C15_4 C 0.0410(4) 0.4663(10) 0.9358(19)
H11_4 H 0.0192 0.4271 0.8998
C17_4 C 0.0249(5) 0.5464(14) 0.9868(17)
C18_4 C 0.1920(3) 0.3743(6) 0.7328(8)
H14_4 H 0.1664 0.3302 0.7450
C19_4 C 0.2585(4) 0.8602(7) 0.8183(8)
H15_4 H 0.2808 0.8186 0.7865
C20_4 C 0.2005(3) 0.9574(8) 0.8401(10)
N3_4 N 0.2113(3) 0.4327(6) 0.8031(6)
N4_4 N 0.2496(3) 0.4603(5) 0.6592(6)
N5_4 N 0.2411(3) 0.5459(5) 0.9965(6)
N6_4 N 0.2599(3) 0.8801(5) 0.9136(6)
O4_4 O 0.1274(3) 0.5024(6) 0.9747(8)
O5_4 O 0.1097(3) 0.3634(8) 0.8912(10)
C4_4 C 0.9549(4) 0.6487(10) 0.0297(14)
H3_4 H 0.9767 0.6890 0.0644
C7_4 C 0.9011(4) 0.6779(9) 0.0364(11)
C14_4 C 0.9738(5) 0.5803(12) 0.9856(14)
H10_4 H 0.9526 0.5443 0.9452
O2_2 O 0.1207(5) 0.0364(12) 0.9924(14)
H16_4 H 0.1740 0.0002 0.8297
loop_
_geom_bond_atom_site_label_1
_geom_bond_atom_site_label_2
_geom_bond_site_symmetry_1
_geom_bond_site_symmetry_2
H12 C16 1_555 1_555
C1 C3 1_555 1_555
C3 H2 1_555 1_555
O1 C1 1_555 1_555
Zn2 N11 1_555 1_555
C2 H1 1_555 1_555
C5 C2 1_555 1_555
C12 C2 1_555 1_555
C13 H9 1_555 1_555
N11 C13 1_555 1_555
O6 Zn2 1_555 1_555
O7 Zn2 1_555 1_555
Zn7 N10 1_555 1_555
N13 Zn2 1_555 1_555
C5 O6 1_555 1_555
C5 O7 1_555 1_555
C13 N10 1_555 1_555
N7 N11 1_555 1_555
Zn4 N3 1_555 1_555
C9 C15 1_555 1_555
C11 H7 1_555 1_555
C15 H11 1_555 1_555
C18 H14 1_555 1_555
N3 C6 1_555 1_555
N4 C6 1_555 1_555
N8 C18 1_555 1_555
O5 Zn4 1_555 1_555
Zn9 N8 1_555 1_555
C9 O5 1_555 1_555
C18 N3 1_555 1_555
N4 N8 1_555 1_555
Zn3 N2 1_555 1_555
C4 H3 1_555 1_555
C7 C4 1_555 1_555
C10 H6 1_555 1_555
O8 C7 1_555 1_555
N14 Zn3 1_555 1_555
O12 Zn3 1_555 1_555
C10 N2 1_555 1_555
C10 N12 1_555 1_555
O8 Zn10 1_555 1_555
C8 H5 1_555 1_555
H10 C14 1_555 1_555
C17 C14 1_555 1_555
C19 H15 1_555 1_555
C20 H16 1_555 1_555
N1 C19 1_555 1_555
N9 C20 1_555 1_555
Zn8 N1 1_555 1_555
N16 Zn1 1_555 1_555
O10 Zn1 1_555 1_555
C8 N5 1_555 1_555
C19 N6 1_555 1_555
C20 N1 1_555 1_555
N6 N9 1_555 1_555
Zn3_2 N2_2 1_555 1_555
C4_2 H3_2 1_555 1_555
C7_2 C4_2 1_555 1_555
C8_2 H5_2 1_555 1_555
C10_2 H6_2 1_555 1_555
C14_2 C4_2 1_555 1_555
H10_2 C14_2 1_555 1_555
C17_2 C14_2 1_555 1_555
H13_2 C17_2 1_555 1_555
C19_2 H15_2 1_555 1_555
C20_2 H16_2 1_555 1_555
N1_2 C19_2 1_555 1_555
N2_2 C8_2 1_555 1_555
N6_2 Zn3_2 1_555 1_555
N9_2 C20_2 1_555 1_555
O3_2 C7_2 1_555 1_555
O8_2 C7_2 1_555 1_555
Zn6 N9_2 1_555 1_555
Zn8_2 N1_2 1_555 1_555
Zn9 O3_2 1_555 1_555
N14_2 Zn3_2 1_555 1_555
N16_2 Zn5 1_555 1_555
O11_2 Zn3_2 1_555 1_555
O12_2 Zn3_2 1_555 1_555
C8_2 N5_2 1_555 1_555
C10_2 N2_2 1_555 1_555
C10_2 N12_2 1_555 1_555
C19_2 N6_2 1_555 1_555
C20_2 N1_2 1_555 1_555
N5_2 N12_2 1_555 1_555
N6_2 N9_2 1_555 1_555
O8_2 Zn9 1_555 1_555
Zn2_2 N11_2 1_555 1_555
Zn4_2 N3_2 1_555 1_555
C2_2 H1_2 1_555 1_555
C5_2 C2_2 1_555 1_555
C9_2 C15_2 1_555 1_555
C11_2 H7_2 1_555 1_555
C12_2 C2_2 1_555 1_555
C13_2 H9_2 1_555 1_555
C15_2 H11_2 1_555 1_555
C18_2 H14_2 1_555 1_555
N3_2 C6_2 1_555 1_555
N4_2 C6_2 1_555 1_555
N7_2 Zn4_2 1_555 1_555
N8_2 C18_2 1_555 1_555
N10_2 C11_2 1_555 1_555
N11_2 C13_2 1_555 1_555
O5_2 Zn4_2 1_555 1_555
O6_2 Zn2_2 1_555 1_555
O7_2 Zn2_2 1_555 1_555
Zn6 N10_2 1_555 1_555
Zn10 N8_2 1_555 1_555
N13_2 Zn2_2 1_555 1_555
C5_2 O6_2 1_555 1_555
C5_2 O7_2 1_555 1_555
C9_2 O5_2 1_555 1_555
C11_2 N7_2 1_555 1_555
C13_2 N10_2 1_555 1_555
C18_2 N3_2 1_555 1_555
N4_2 N8_2 1_555 1_555
N7_2 N11_2 1_555 1_555
C1_2 C3_2 1_555 1_555
C3_2 H2_2 1_555 1_555
O9 C1_2 1_555 1_555
H12_2 C16_2 1_555 1_555
C4_3 H3_3 1_555 1_555
C7_3 C4_3 1_555 1_555
C14_3 C4_3 1_555 1_555
H10_3 C14_3 1_555 1_555
O11_2 C7_3 1_555 1_555
O12_2 C7_3 1_555 1_555
Zn7 N4_3 1_555 1_555
Zn8 N11_3 1_555 1_555
Zn9 N2_3 1_555 1_555
Zn4_3 N3_3 1_555 1_555
C1_3 C3_3 1_555 1_555
C2_3 H1_3 1_555 1_555
C3_3 H2_3 1_555 1_555
C5_3 C2_3 1_555 1_555
C6_3 H4_3 1_555 1_555
C8_3 H5_3 1_555 1_555
C9_3 C15_3 1_555 1_555
C10_3 H6_3 1_555 1_555
C11_3 H7_3 1_555 1_555
C12_3 C2_3 1_555 1_555
H8_3 C12_3 1_555 1_555
C13_3 H9_3 1_555 1_555
C15_3 H11_3 1_555 1_555
C16_3 C3_3 1_555 1_555
H12_3 C16_3 1_555 1_555
H13_3 C17_3 1_555 1_555
C18_3 H14_3 1_555 1_555
C19_3 H15_3 1_555 1_555
N13 C19_3 1_555 1_555
N2_3 C8_3 1_555 1_555
N3_3 C6_3 1_555 1_555
N4_3 C6_3 1_555 1_555
N5_3 Zn4_3 1_555 1_555
N6_3 Zn9 1_555 1_555
N7_3 Zn4_3 1_555 1_555
N14 C18_3 1_555 1_555
N15 C20_3 1_555 1_555
N16 C11_3 1_555 1_555
N11_3 C13_3 1_555 1_555
N12_3 Zn8 1_555 1_555
O1_2 C1_3 1_555 1_555
O2 C1_3 1_555 1_555
O4_3 Zn4_3 1_555 1_555
O5_3 Zn4_3 1_555 1_555
O6_3 Zn8 1_555 1_555
O7_3 Zn8 1_555 1_555
Zn6 O1_2 1_555 1_555
O9_2 Zn7 1_555 1_555
C5_3 O6_3 1_555 1_555
C5_3 O7_3 1_555 1_555
C8_3 N5_3 1_555 1_555
C9_3 O4_3 1_555 1_555
C9_3 O5_3 1_555 1_555
C10_3 N2_3 1_555 1_555
C10_3 N12_3 1_555 1_555
C11_3 N7_3 1_555 1_555
C12_3 C16_3 1_555 1_555
C13_3 N16 1_555 1_555
C15_3 C17_3 1_555 1_555
C18_3 N3_3 1_555 1_555
C19_3 N6_3 1_555 1_555
C20_3 N13 1_555 1_555
N4_3 N14 1_555 1_555
N5_3 N12_3 1_555 1_555
N6_3 N15 1_555 1_555
N7_3 N11_3 1_555 1_555
O2 Zn6 1_555 1_555
Zn8_2 N11_4 1_555 1_555
Zn10 N2_4 1_555 1_555
C1_4 C3_4 1_555 1_555
C2_4 H1_4 1_555 1_555
C3_4 H2_4 1_555 1_555
C5_4 C2_4 1_555 1_555
C10_4 H6_4 1_555 1_555
C12_4 C2_4 1_555 1_555
H8_4 C12_4 1_555 1_555
C13_4 H9_4 1_555 1_555
C16_4 C3_4 1_555 1_555
H12_4 C16_4 1_555 1_555
N11_4 C13_4 1_555 1_555
N12_4 Zn8_2 1_555 1_555
O9_2 C1_4 1_555 1_555
O6_4 Zn8_2 1_555 1_555
O7_4 Zn8_2 1_555 1_555
C5_4 O6_4 1_555 1_555
C5_4 O7_4 1_555 1_555
C10_4 N2_4 1_555 1_555
C10_4 N12_4 1_555 1_555
C12_4 C16_4 1_555 1_555
C13_4 N16_2 1_555 1_555
N7_4 N11_4 1_555 1_555
Zn6 N4_4 1_555 1_555
Zn4_4 N3_4 1_555 1_555
C6_4 H4_4 1_555 1_555
C8_4 H5_4 1_555 1_555
C9_4 C15_4 1_555 1_555
C11_4 H7_4 1_555 1_555
C15_4 H11_4 1_555 1_555
C18_4 H14_4 1_555 1_555
C19_4 H15_4 1_555 1_555
N13_2 C19_4 1_555 1_555
N3_4 C6_4 1_555 1_555
N4_4 C6_4 1_555 1_555
N5_4 Zn4_4 1_555 1_555
N14_2 C18_4 1_555 1_555
N15_2 C20_4 1_555 1_555
O4_4 Zn4_4 1_555 1_555
O5_4 Zn4_4 1_555 1_555
C8_4 N5_4 1_555 1_555
C9_4 O4_4 1_555 1_555
C9_4 O5_4 1_555 1_555
C15_4 C17_4 1_555 1_555
C18_4 N3_4 1_555 1_555
C19_4 N6_4 1_555 1_555
C20_4 N13_2 1_555 1_555
N4_4 N14_2 1_555 1_555
N6_4 N15_2 1_555 1_555
C4_4 H3_4 1_555 1_555
C7_4 C4_4 1_555 1_555
O12 C7_4 1_555 1_555
H10_4 C14_4 1_555 1_555

#END
