
###############################################################################
#
# This file contains modified crystal structure data generated from the
# MOF subset of the Cambridge Structural Database (CSD) v543 
# hosted by the Cambridge Crystallographic Data Centre (CCDC).
#
# This work is licensed under the Creative Commons
# Attribution-NonCommercial-ShareAlike 4.0 International License.
# To view a copy of this license, visit
# http://creativecommons.org/licenses/by-nc-sa/4.0/
# or send a letter to
# Creative Commons, PO Box 1866, Mountain View, CA 94042, USA.
#
# CIF created using the CSD Python API on 29 September 2022
# The structure has been converted into the P1 space group
# The structure has a 3D framework
# The original CSD entry BUYNAL is in the rhombohedral crystal system
# The framework has been calculated to contain at least 10.0% void space
# The void calculation uses a probe of radius 1.32A, grid spacing 0.4
# The framework is charged, counterions have been retained in the structure
#
###############################################################################

data_BUYNAL
_chemical_formula_moiety         '(C180 H180 N48 O36 Zn7 8+)n'
_symmetry_cell_setting           triclinic
_symmetry_space_group_name_H-M   'P 1'
_symmetry_Int_Tables_number      1
_space_group_name_Hall           'P 1'
loop_
_symmetry_equiv_pos_site_id
_symmetry_equiv_pos_as_xyz
1 x,y,z
_cell_length_a                   22.8249(14)
_cell_length_b                   22.8249(14)
_cell_length_c                   14.8386(19)
_cell_angle_alpha                90
_cell_angle_beta                 90
_cell_angle_gamma                120
_cell_volume                     6694.86
loop_
_atom_site_label
_atom_site_type_symbol
_atom_site_fract_x
_atom_site_fract_y
_atom_site_fract_z
Zn1 Zn -0.0000 0.0000 -0.0000
Zn4 Zn 0.6667 0.3333 0.3333
O6 O 0.38205(18) 0.24982(12) 0.33427(18)
N7 N 0.57992(17) 0.31371(12) 0.41781(18)
N9 N 0.06713(12) 0.08675(17) 0.08448(18)
N15 N 0.48628(18) 0.30810(13) 0.4649(2)
C15 C 0.55897(25) 0.27651(17) 0.4965(3)
H15 H 0.5814 0.2570 0.5250
C20 C 0.50172(28) 0.27258(19) 0.5257(3)
H20 H 0.4773 0.2502 0.5769
C25 C 0.53415(22) 0.33114(16) 0.4012(2)
H25 H 0.5350 0.3563 0.3514
C30 C 0.42592(26) 0.31678(19) 0.4642(3)
H30 H 0.4158 0.3240 0.5253
H35 H 0.4356 0.3563 0.4288
C35 C 0.36529(26) 0.25523(19) 0.4250(3)
H40 H 0.3258 0.2605 0.4271
H45 H 0.3558 0.2150 0.4587
C39 C 0.33187(23) 0.13629(17) 0.0496(3)
C40 C 0.33480(23) 0.19704(17) 0.2837(3)
C44 C 0.39547(25) 0.18246(17) 0.0200(3)
C45 C 0.27120(25) 0.15087(17) 0.3133(3)
H50 H 0.2573 0.1546 0.3708
C49 C 0.43907(28) 0.23497(19) 0.0766(3)
C50 C 0.22760(28) 0.09836(19) 0.2567(3)
H54 H 0.4818 0.2666 0.0557
H55 H 0.1849 0.0667 0.2776
C54 C 0.31025(20) 0.13984(14) 0.1383(3)
C55 C 0.35642(20) 0.19349(14) 0.1950(3)
C59 C 0.24613(24) 0.09221(16) 0.1714(3)
C60 C 0.42054(24) 0.24112(16) 0.1619(3)
H59 H 0.2162 0.0564 0.1351
H60 H 0.4505 0.2769 0.1982
Zn1_2 Zn -0.0000 0.0000 1.0000
H3 H 0.0230 0.1547 0.9819
H5 H 0.0230 0.2541 0.9045
O5 O 0.28462(18) 0.08351(12) 0.99906(18)
N6 N 0.08675(17) 0.01962(12) 0.91552(18)
N14 N 0.18039(18) 0.02523(13) 0.8684(2)
C14 C 0.10770(25) 0.05682(17) 0.8368(3)
H14 H 0.0853 0.0763 0.8083
C19 C 0.16495(28) 0.06075(19) 0.8076(3)
H19 H 0.1894 0.0831 0.7564
C24 C 0.13252(22) 0.00219(16) 0.9321(2)
C29 C 0.24075(26) 0.01655(19) 0.8691(3)
H29 H 0.2509 0.0093 0.8080
C34 C 0.30138(26) 0.07810(19) 0.9083(3)
H39 H 0.3409 0.0728 0.9062
H44 H 0.3109 0.1183 0.8746
H49 H 0.4094 0.1787 0.9625
Zn1_3 Zn 0.0000 1.0000 -0.0000
N8 N 0.01962(12) 0.93287(12) 0.08448(18)
Zn1_4 Zn -0.0000 1.0000 1.0000
H24 H 0.1317 0.9770 0.9819
H34 H 0.2311 0.9770 0.9045
Zn1_5 Zn 1.0000 0.0000 -0.0000
C6 C 0.86371(17) 0.19558(16) 0.0496(3)
C7 C 0.81754(17) 0.21301(19) 0.0200(3)
C8 C 0.76503(19) 0.2041(2) 0.0766(3)
H9 H 0.7334 0.2152 0.0557
C9 C 0.86016(14) 0.17041(14) 0.1383(3)
C10 C 0.90779(16) 0.15392(18) 0.1714(3)
H10 H 0.9436 0.1598 0.1351
O2 O 0.75018(12) 0.13222(13) 0.33427(18)
N3 N 0.68629(12) 0.26620(12) 0.41781(18)
N11 N 0.69190(13) 0.17817(13) 0.4649(2)
C11 C 0.72349(17) 0.28245(19) 0.4965(3)
H11 H 0.7430 0.3243 0.5250
C16 C 0.72742(19) 0.2291(2) 0.5257(3)
H16 H 0.7498 0.2270 0.5769
C21 C 0.66886(16) 0.20300(15) 0.4012(2)
H21 H 0.6437 0.1786 0.3514
C26 C 0.68322(19) 0.10913(18) 0.4642(3)
H26 H 0.6760 0.0917 0.5253
H31 H 0.6437 0.0792 0.4288
C31 C 0.74477(19) 0.11005(18) 0.4250(3)
H36 H 0.7395 0.0652 0.4271
H41 H 0.7850 0.1407 0.4587
C36 C 0.80296(17) 0.13775(16) 0.2837(3)
C41 C 0.84913(17) 0.12032(19) 0.3133(3)
H46 H 0.8454 0.1026 0.3708
C46 C 0.90164(19) 0.1292(2) 0.2567(3)
H51 H 0.9333 0.1181 0.2776
C51 C 0.80651(14) 0.16292(14) 0.1950(3)
C56 C 0.75888(16) 0.17941(18) 0.1619(3)
H56 H 0.7231 0.1735 0.1982
Zn1_6 Zn 1.0000 0.0000 1.0000
O1 O 0.91649(12) 0.20111(13) 0.99906(18)
N1 N 0.98038(12) 0.06713(12) 0.91552(18)
N2 N 0.97477(13) 0.15516(13) 0.8684(2)
C1 C 0.94318(17) 0.05088(19) 0.8368(3)
H1 H 0.9237 0.0090 0.8083
C2 C 0.93925(19) 0.1042(2) 0.8076(3)
H2 H 0.9169 0.1063 0.7564
C3 C 0.99781(16) 0.13033(15) 0.9321(2)
C4 C 0.98345(19) 0.22420(18) 0.8691(3)
H4 H 0.9907 0.2416 0.8080
C5 C 0.92190(19) 0.22328(18) 0.9083(3)
H6 H 0.9272 0.2681 0.9062
H7 H 0.8817 0.1926 0.8746
H8 H 0.8213 0.2307 0.9625
Zn1_7 Zn 1.0000 1.0000 -0.0000
O4 O 0.86778(13) 0.61795(18) 0.33427(18)
N5 N 0.73380(12) 0.42008(17) 0.41781(18)
N10 N 0.91325(17) 0.98038(12) 0.08448(18)
N13 N 0.82183(13) 0.51372(18) 0.4649(2)
C13 C 0.71755(19) 0.44103(25) 0.4965(3)
H13 H 0.6757 0.4186 0.5250
C18 C 0.7709(2) 0.49828(28) 0.5257(3)
H18 H 0.7730 0.5227 0.5769
C23 C 0.79700(15) 0.46585(22) 0.4012(2)
H23 H 0.8214 0.4650 0.3514
C28 C 0.89087(18) 0.57408(26) 0.4642(3)
H28 H 0.9083 0.5842 0.5253
H33 H 0.9208 0.5644 0.4288
C33 C 0.88995(18) 0.63471(26) 0.4250(3)
H38 H 0.9348 0.6742 0.4271
H43 H 0.8593 0.6442 0.4587
C37 C 0.80442(16) 0.66813(23) 0.0496(3)
C38 C 0.86225(16) 0.66520(23) 0.2837(3)
C42 C 0.78699(19) 0.60453(25) 0.0200(3)
C43 C 0.87968(19) 0.72880(25) 0.3133(3)
H48 H 0.8974 0.7427 0.3708
C47 C 0.7959(2) 0.56093(28) 0.0766(3)
C48 C 0.8708(2) 0.77240(28) 0.2567(3)
H52 H 0.7848 0.5182 0.0557
H53 H 0.8819 0.8151 0.2776
C52 C 0.82959(14) 0.68975(20) 0.1383(3)
C53 C 0.83708(14) 0.64358(20) 0.1950(3)
C57 C 0.84608(18) 0.75387(24) 0.1714(3)
C58 C 0.82059(18) 0.57946(24) 0.1619(3)
H57 H 0.8402 0.7838 0.1351
H58 H 0.8265 0.5495 0.1982
Zn1_8 Zn 1.0000 1.0000 1.0000
O3 O 0.79889(13) 0.71538(18) 0.99906(18)
N4 N 0.93287(12) 0.91325(17) 0.91552(18)
N12 N 0.84484(13) 0.81961(18) 0.8684(2)
C12 C 0.94912(19) 0.89230(25) 0.8368(3)
H12 H 0.9910 0.9147 0.8083
C17 C 0.8958(2) 0.83505(28) 0.8076(3)
H17 H 0.8937 0.8106 0.7564
C22 C 0.86967(15) 0.86748(22) 0.9321(2)
H22 H 0.8453 0.8683 0.9819
C27 C 0.77580(18) 0.75925(26) 0.8691(3)
H27 H 0.7584 0.7491 0.8080
H32 H 0.7459 0.7689 0.9045
C32 C 0.77672(18) 0.69862(26) 0.9083(3)
H37 H 0.7319 0.6591 0.9062
H42 H 0.8074 0.6891 0.8746
H47 H 0.7693 0.5906 0.9625
Zn4_2 Zn 0.3333 0.6667 0.6667
O6_2 O 0.04871(18) 0.58316(12) 0.66761(18)
N7_2 N 0.24658(17) 0.64705(12) 0.75115(18)
N15_2 N 0.15294(18) 0.64144(13) 0.7983(2)
C15_2 C 0.22563(25) 0.60985(17) 0.8299(3)
H15_2 H 0.2480 0.5904 0.8584
C20_2 C 0.16838(28) 0.60592(19) 0.8591(3)
H20_2 H 0.1439 0.5836 0.9103
C25_2 C 0.20081(22) 0.66448(16) 0.7346(2)
H25_2 H 0.2016 0.6897 0.6848
C30_2 C 0.09258(26) 0.65012(19) 0.7976(3)
H30_2 H 0.0824 0.6574 0.8587
H35_2 H 0.1022 0.6897 0.7622
C35_2 C 0.03195(26) 0.58857(19) 0.7584(3)
H39_2 H 0.0076 0.4061 0.2395
H45_2 H 0.0224 0.5484 0.7921
C40_2 C 0.00146(23) 0.53038(17) 0.6171(3)
C44_2 C 0.06214(25) 0.51579(17) 0.3533(3)
H49_2 H 0.0761 0.5120 0.2958
C49_2 C 0.10574(28) 0.56830(19) 0.4099(3)
H54_2 H 0.1485 0.5999 0.3890
C55_2 C 0.02308(20) 0.52683(14) 0.5284(3)
C60_2 C 0.08720(24) 0.57446(16) 0.4953(3)
H60_2 H 0.1171 0.6103 0.5316
O1_2 O 0.58316(12) 0.53444(13) 0.33239(18)
N1_2 N 0.64705(12) 0.40046(12) 0.24885(18)
N2_2 N 0.64144(13) 0.48849(13) 0.2017(2)
C1_2 C 0.60985(17) 0.38421(19) 0.1701(3)
H1_2 H 0.5904 0.3423 0.1416
C2_2 C 0.60592(19) 0.4375(2) 0.1409(3)
H2_2 H 0.5836 0.4396 0.0897
C3_2 C 0.66448(16) 0.46366(15) 0.2654(2)
H3_2 H 0.6897 0.4880 0.3152
C4_2 C 0.65012(19) 0.55753(18) 0.2024(3)
H4_2 H 0.6574 0.5749 0.1413
H5_2 H 0.6897 0.5874 0.2378
C5_2 C 0.58857(19) 0.55661(18) 0.2416(3)
H6_2 H 0.5939 0.6014 0.2395
H7_2 H 0.5484 0.5259 0.2079
C6_2 C 0.53038(17) 0.52891(16) 0.3829(3)
C7_2 C 0.48421(17) 0.54634(19) 0.3533(3)
H8_2 H 0.4880 0.5640 0.2958
C8_2 C 0.43170(19) 0.5374(2) 0.4099(3)
H9_2 H 0.4001 0.5485 0.3890
C9_2 C 0.52683(14) 0.50374(14) 0.4716(3)
C10_2 C 0.57446(16) 0.48725(18) 0.5047(3)
H10_2 H 0.6103 0.4931 0.4684
O2_2 O 0.41684(12) 0.46556(13) 0.66761(18)
O3_2 O 0.46556(13) 0.04871(18) 0.33239(18)
O5_2 O 0.95129(18) 0.41684(12) 0.33239(18)
N3_2 N 0.35295(12) 0.59954(12) 0.75115(18)
N4_2 N 0.59954(12) 0.24658(17) 0.24885(18)
N6_2 N 0.75342(17) 0.35295(12) 0.24885(18)
N11_2 N 0.35856(13) 0.51151(13) 0.7983(2)
N12_2 N 0.51151(13) 0.15294(18) 0.2017(2)
N14_2 N 0.84706(18) 0.35856(13) 0.2017(2)
C11_2 C 0.39015(17) 0.61579(19) 0.8299(3)
C12_2 C 0.61579(19) 0.22563(25) 0.1701(3)
C14_2 C 0.77437(25) 0.39015(17) 0.1701(3)
H11_2 H 0.4096 0.6577 0.8584
H12_2 H 0.6577 0.2480 0.1416
H14_2 H 0.7520 0.4096 0.1416
C16_2 C 0.39408(19) 0.5625(2) 0.8591(3)
C17_2 C 0.5625(2) 0.16838(28) 0.1409(3)
C19_2 C 0.83162(28) 0.39408(19) 0.1409(3)
H16_2 H 0.4164 0.5604 0.9103
H17_2 H 0.5604 0.1439 0.0897
H19_2 H 0.8561 0.4164 0.0897
C21_2 C 0.33552(16) 0.53634(15) 0.7346(2)
C22_2 C 0.53634(15) 0.20081(22) 0.2654(2)
C24_2 C 0.79919(22) 0.33552(16) 0.2654(2)
H21_2 H 0.3103 0.5120 0.6848
H22_2 H 0.5120 0.2016 0.3152
H24_2 H 0.7984 0.3103 0.3152
C26_2 C 0.34988(19) 0.44247(18) 0.7976(3)
C27_2 C 0.44247(18) 0.09258(26) 0.2024(3)
C29_2 C 0.90742(26) 0.34988(19) 0.2024(3)
H26_2 H 0.3426 0.4251 0.8587
H27_2 H 0.4251 0.0824 0.1413
H29_2 H 0.9176 0.3426 0.1413
H31_2 H 0.3103 0.4126 0.7622
H32_2 H 0.4126 0.1022 0.2378
H34_2 H 0.8978 0.3103 0.2378
C31_2 C 0.41143(19) 0.44339(18) 0.7584(3)
C32_2 C 0.44339(18) 0.03195(26) 0.2416(3)
C34_2 C 0.96805(26) 0.41143(19) 0.2416(3)
H36_2 H 0.4061 0.3986 0.7605
H38_2 H 0.6014 0.0076 0.7605
H40_2 H 0.9924 0.5939 0.7605
H41_2 H 0.4516 0.4741 0.7921
H42_2 H 0.4741 0.0224 0.2079
H44_2 H 0.9776 0.4516 0.2079
C36_2 C 0.46962(17) 0.47109(16) 0.6171(3)
C37_2 C 0.47109(16) 0.00146(23) 0.3829(3)
C39_2 C 0.99854(23) 0.46962(17) 0.3829(3)
C41_2 C 0.51579(17) 0.45366(19) 0.6467(3)
C43_2 C 0.54634(19) 0.06214(25) 0.6467(3)
C45_2 C 0.93786(25) 0.48421(17) 0.6467(3)
H46_2 H 0.5120 0.4360 0.7042
H48_2 H 0.5640 0.0761 0.7042
H50_2 H 0.9239 0.4880 0.7042
C46_2 C 0.56830(19) 0.4626(2) 0.5901(3)
C48_2 C 0.5374(2) 0.10574(28) 0.5901(3)
C50_2 C 0.89426(28) 0.43170(19) 0.5901(3)
H51_2 H 0.5999 0.4515 0.6110
H53_2 H 0.5485 0.1485 0.6110
H55_2 H 0.8515 0.4001 0.6110
C51_2 C 0.47317(14) 0.49626(14) 0.5284(3)
C52_2 C 0.49626(14) 0.02308(20) 0.4716(3)
C54_2 C 0.97692(20) 0.47317(14) 0.4716(3)
C56_2 C 0.42554(16) 0.51275(18) 0.4953(3)
C57_2 C 0.51275(18) 0.08720(24) 0.5047(3)
C59_2 C 0.91280(24) 0.42554(16) 0.5047(3)
H56_2 H 0.3897 0.5069 0.5316
H57_2 H 0.5069 0.1171 0.4684
H59_2 H 0.8829 0.3897 0.4684
O4_2 O 0.53444(13) 0.95129(18) 0.66761(18)
N5_2 N 0.40046(12) 0.75342(17) 0.75115(18)
N13_2 N 0.48849(13) 0.84706(18) 0.7983(2)
C13_2 C 0.38421(19) 0.77437(25) 0.8299(3)
H13_2 H 0.3423 0.7520 0.8584
C18_2 C 0.4375(2) 0.83162(28) 0.8591(3)
H18_2 H 0.4396 0.8561 0.9103
C23_2 C 0.46366(15) 0.79919(22) 0.7346(2)
H23_2 H 0.4880 0.7984 0.6848
C28_2 C 0.55753(18) 0.90742(26) 0.7976(3)
H28_2 H 0.5749 0.9176 0.8587
H33_2 H 0.5874 0.8978 0.7622
C33_2 C 0.55661(18) 0.96805(26) 0.7584(3)
H37_2 H 0.3986 0.9924 0.2395
H43_2 H 0.5259 0.9776 0.7921
C38_2 C 0.52891(16) 0.99854(23) 0.6171(3)
C42_2 C 0.45366(19) 0.93786(25) 0.3533(3)
H47_2 H 0.4360 0.9239 0.2958
C47_2 C 0.4626(2) 0.89426(28) 0.4099(3)
H52_2 H 0.4515 0.8515 0.3890
C53_2 C 0.50374(14) 0.97692(20) 0.5284(3)
C58_2 C 0.48725(18) 0.91280(24) 0.4953(3)
H58_2 H 0.4931 0.8829 0.5316
H25_3 H 0.8683 0.0230 0.0181
H35_3 H 0.7689 0.0230 0.0955
O2_3 O 0.08351(12) 0.79889(13) 0.00094(18)
O4_3 O 0.20111(13) 0.28462(18) 0.00094(18)
O6_3 O 0.71538(18) 0.91649(12) 0.00094(18)
N11_3 N 0.02523(13) 0.84484(13) 0.1316(2)
N13_3 N 0.15516(13) 0.18039(18) 0.1316(2)
N15_3 N 0.81961(18) 0.97477(13) 0.1316(2)
C11_3 C 0.05682(17) 0.94912(19) 0.1632(3)
C13_3 C 0.05088(19) 0.10770(25) 0.1632(3)
C15_3 C 0.89230(25) 0.94318(17) 0.1632(3)
H11_3 H 0.0763 0.9910 0.1917
H13_3 H 0.0090 0.0853 0.1917
H15_3 H 0.9147 0.9237 0.1917
C16_3 C 0.06075(19) 0.8958(2) 0.1924(3)
C18_3 C 0.1042(2) 0.16495(28) 0.1924(3)
C20_3 C 0.83505(28) 0.93925(19) 0.1924(3)
H16_3 H 0.0831 0.8937 0.2436
H18_3 H 0.1063 0.1894 0.2436
H20_3 H 0.8106 0.9169 0.2436
C21_3 C 0.00219(16) 0.86967(15) 0.0679(2)
C23_3 C 0.13033(15) 0.13252(22) 0.0679(2)
C25_3 C 0.86748(22) 0.99781(16) 0.0679(2)
H23_3 H 0.1547 0.1317 0.0181
C26_3 C 0.01655(19) 0.77580(18) 0.1309(3)
C28_3 C 0.22420(18) 0.24075(26) 0.1309(3)
C30_3 C 0.75925(26) 0.98345(19) 0.1309(3)
H26_3 H 0.0093 0.7584 0.1920
H28_3 H 0.2416 0.2509 0.1920
H30_3 H 0.7491 0.9907 0.1920
H33_3 H 0.2541 0.2311 0.0955
C31_3 C 0.07810(19) 0.77672(18) 0.0917(3)
C33_3 C 0.22328(18) 0.30138(26) 0.0917(3)
C35_3 C 0.69862(26) 0.92190(19) 0.0917(3)
H36_3 H 0.0728 0.7319 0.0938
H38_3 H 0.2681 0.3409 0.0938
H40_3 H 0.6591 0.9272 0.0938
H41_3 H 0.1183 0.8074 0.1254
H43_3 H 0.1926 0.3109 0.1254
H45_3 H 0.6891 0.8817 0.1254
H46_3 H 0.1787 0.7693 0.0375
H48_3 H 0.2307 0.4094 0.0375
H50_3 H 0.5906 0.8213 0.0375
O1_3 O 0.24982(12) 0.86778(13) 0.66573(18)
N1_3 N 0.31371(12) 0.73380(12) 0.58219(18)
N2_3 N 0.30810(13) 0.82183(13) 0.5351(2)
C1_3 C 0.27651(17) 0.71755(19) 0.5035(3)
H1_3 H 0.2570 0.6757 0.4750
C2_3 C 0.27258(19) 0.7709(2) 0.4743(3)
H2_3 H 0.2502 0.7730 0.4231
C3_3 C 0.33114(16) 0.79700(15) 0.5988(2)
H3_3 H 0.3563 0.8214 0.6486
C4_3 C 0.31678(19) 0.89087(18) 0.5358(3)
H4_3 H 0.3240 0.9083 0.4747
H5_3 H 0.3563 0.9208 0.5712
C5_3 C 0.25523(19) 0.88995(18) 0.5750(3)
H6_3 H 0.2605 0.9348 0.5729
H7_3 H 0.2150 0.8593 0.5413
C6_3 C 0.19704(17) 0.86225(16) 0.7163(3)
C7_3 C 0.15087(17) 0.87968(19) 0.6867(3)
H8_3 H 0.1546 0.8974 0.6292
C8_3 C 0.09836(19) 0.8708(2) 0.7433(3)
H9_3 H 0.0667 0.8819 0.7224
C9_3 C 0.19349(14) 0.83708(14) 0.8050(3)
C10_3 C 0.24112(16) 0.82059(18) 0.8381(3)
H10_3 H 0.2769 0.8265 0.8018
O3_3 O 0.13222(13) 0.38205(18) 0.66573(18)
O5_3 O 0.61795(18) 0.75018(12) 0.66573(18)
N4_3 N 0.26620(12) 0.57992(17) 0.58219(18)
N6_3 N 0.42008(17) 0.68629(12) 0.58219(18)
N12_3 N 0.17817(13) 0.48628(18) 0.5351(2)
N14_3 N 0.51372(18) 0.69190(13) 0.5351(2)
C12_3 C 0.28245(19) 0.55897(25) 0.5035(3)
C14_3 C 0.44103(25) 0.72349(17) 0.5035(3)
H12_3 H 0.3243 0.5814 0.4750
H14_3 H 0.4186 0.7430 0.4750
C17_3 C 0.2291(2) 0.50172(28) 0.4743(3)
C19_3 C 0.49828(28) 0.72742(19) 0.4743(3)
H17_3 H 0.2270 0.4773 0.4231
H19_3 H 0.5227 0.7498 0.4231
C22_3 C 0.20300(15) 0.53415(22) 0.5988(2)
C24_3 C 0.46585(22) 0.66886(16) 0.5988(2)
H22_3 H 0.1786 0.5350 0.6486
H24_3 H 0.4650 0.6437 0.6486
C27_3 C 0.10913(18) 0.42592(26) 0.5358(3)
C29_3 C 0.57408(26) 0.68322(19) 0.5358(3)
H27_3 H 0.0917 0.4158 0.4747
H29_3 H 0.5842 0.6760 0.4747
H32_3 H 0.0792 0.4356 0.5712
H34_3 H 0.5644 0.6437 0.5712
C32_3 C 0.11005(18) 0.36529(26) 0.5750(3)
C34_3 C 0.63471(26) 0.74477(19) 0.5750(3)
H37_3 H 0.0652 0.3258 0.5729
H39_3 H 0.6742 0.7395 0.5729
H42_3 H 0.1407 0.3558 0.5413
H44_3 H 0.6442 0.7850 0.5413
C36_3 C 0.13629(17) 0.80442(16) 0.9504(3)
C37_3 C 0.13775(16) 0.33480(23) 0.7163(3)
C38_3 C 0.19558(16) 0.33187(23) 0.9504(3)
C39_3 C 0.66520(23) 0.80296(17) 0.7163(3)
C40_3 C 0.66813(23) 0.86371(17) 0.9504(3)
C41_3 C 0.18246(17) 0.78699(19) 0.9800(3)
C42_3 C 0.12032(19) 0.27120(25) 0.6867(3)
C43_3 C 0.21301(19) 0.39547(25) 0.9800(3)
C44_3 C 0.72880(25) 0.84913(17) 0.6867(3)
C45_3 C 0.60453(25) 0.81754(17) 0.9800(3)
H47_3 H 0.1026 0.2573 0.6292
H49_3 H 0.7427 0.8454 0.6292
C46_3 C 0.23497(19) 0.7959(2) 0.9234(3)
C47_3 C 0.1292(2) 0.22760(28) 0.7433(3)
C48_3 C 0.2041(2) 0.43907(28) 0.9234(3)
C49_3 C 0.77240(28) 0.90164(19) 0.7433(3)
C50_3 C 0.56093(28) 0.76503(19) 0.9234(3)
H51_3 H 0.2666 0.7848 0.9443
H52_3 H 0.1181 0.1849 0.7224
H53_3 H 0.2152 0.4818 0.9443
H54_3 H 0.8151 0.9333 0.7224
H55_3 H 0.5182 0.7334 0.9443
C51_3 C 0.13984(14) 0.82959(14) 0.8617(3)
C52_3 C 0.16292(14) 0.35642(20) 0.8050(3)
C53_3 C 0.17041(14) 0.31025(20) 0.8617(3)
C54_3 C 0.64358(20) 0.80651(14) 0.8050(3)
C55_3 C 0.68975(20) 0.86016(14) 0.8617(3)
C56_3 C 0.09221(16) 0.84608(18) 0.8286(3)
C57_3 C 0.17941(18) 0.42054(24) 0.8381(3)
C58_3 C 0.15392(18) 0.24613(24) 0.8286(3)
C59_3 C 0.57946(24) 0.75888(16) 0.8381(3)
C60_3 C 0.75387(24) 0.90779(16) 0.8286(3)
H56_3 H 0.0564 0.8402 0.8649
H57_3 H 0.1735 0.4505 0.8018
H58_3 H 0.1598 0.2162 0.8649
H59_3 H 0.5495 0.7231 0.8018
H60_3 H 0.7838 0.9436 0.8649
H21_3 H 0.9770 0.8453 0.0181
H31_3 H 0.9770 0.7459 0.0955
N16 N -0.0000 0.0000 0.6177
O9 O 0.0273 0.0630 0.6196
N16_2 N 0.0000 1.0000 0.6177
O8 O 0.0357 0.9727 0.6196
N16_3 N 1.0000 0.0000 0.6177
O7 O 0.9370 0.9643 0.6196
N16_4 N 1.0000 1.0000 0.6177
O7_2 O 0.6037 0.2976 0.9529
N16_5 N 0.6667 0.3333 0.9510
O8_2 O 0.7024 0.3060 0.9529
O9_2 O 0.6940 0.3963 0.9529
O7_3 O 0.2703 0.6310 0.2863
N16_6 N 0.3333 0.6667 0.2844
O8_3 O 0.3690 0.6394 0.2863
O9_3 O 0.3606 0.7297 0.2863
O7_4 O 0.0630 0.0357 0.3804
N16_7 N 0.0000 0.0000 0.3823
N16_8 N 0.0000 1.0000 0.3823
N16_9 N 1.0000 0.0000 0.3823
O8_4 O 0.9643 0.0273 0.3804
N16_10 N 1.0000 1.0000 0.3823
O9_4 O 0.9727 0.9370 0.3804
O7_5 O 0.3963 0.7024 0.0471
N16_11 N 0.3333 0.6667 0.0490
O8_5 O 0.2976 0.6940 0.0471
O9_5 O 0.3060 0.6037 0.0471
O7_6 O 0.7297 0.3690 0.7137
N16_12 N 0.6667 0.3333 0.7156
O8_6 O 0.6310 0.3606 0.7137
O9_6 O 0.6394 0.2703 0.7137
loop_
_geom_bond_atom_site_label_1
_geom_bond_atom_site_label_2
_geom_bond_site_symmetry_1
_geom_bond_site_symmetry_2
Zn4 N7 1_555 1_555
O6 C35 1_555 1_555
N7 C15 1_555 1_555
N9 Zn1 1_555 1_555
N15 C20 1_555 1_555
C15 H15 1_555 1_555
C20 C15 1_555 1_555
H20 C20 1_555 1_555
C25 N7 1_555 1_555
H25 C25 1_555 1_555
C30 N15 1_555 1_555
H30 C30 1_555 1_555
H35 C30 1_555 1_555
C35 C30 1_555 1_555
H40 C35 1_555 1_555
H45 C35 1_555 1_555
C40 O6 1_555 1_555
C44 C39 1_555 1_555
C45 C40 1_555 1_555
H50 C45 1_555 1_555
C49 C44 1_555 1_555
C50 C45 1_555 1_555
H54 C49 1_555 1_555
H55 C50 1_555 1_555
C54 C39 1_555 1_555
C55 C40 1_555 1_555
C59 C50 1_555 1_555
C60 C49 1_555 1_555
H59 C59 1_555 1_555
H60 C60 1_555 1_555
N15 C25 1_555 1_555
C54 C55 1_555 1_555
C54 C59 1_555 1_555
C55 C60 1_555 1_555
O5 C34 1_555 1_555
N6 Zn1_2 1_555 1_555
N14 C19 1_555 1_555
C14 N6 1_555 1_555
H14 C14 1_555 1_555
C19 C14 1_555 1_555
H19 C19 1_555 1_555
C24 N6 1_555 1_555
C29 N14 1_555 1_555
H29 C29 1_555 1_555
C34 C29 1_555 1_555
H39 C34 1_555 1_555
H44 C34 1_555 1_555
N14 C24 1_555 1_555
N8 Zn1_3 1_555 1_555
C7 C6 1_555 1_555
C8 C7 1_555 1_555
H9 C8 1_555 1_555
C9 C6 1_555 1_555
C10 C9 1_555 1_555
H10 C10 1_555 1_555
Zn4 N3 1_555 1_555
O2 C31 1_555 1_555
N3 C11 1_555 1_555
N11 C16 1_555 1_555
C11 H11 1_555 1_555
C16 C11 1_555 1_555
H16 C16 1_555 1_555
C21 N3 1_555 1_555
H21 C21 1_555 1_555
C26 N11 1_555 1_555
H26 C26 1_555 1_555
H31 C26 1_555 1_555
C31 C26 1_555 1_555
H36 C31 1_555 1_555
H41 C31 1_555 1_555
C36 O2 1_555 1_555
C41 C36 1_555 1_555
H46 C41 1_555 1_555
C46 C10 1_555 1_555
H51 C46 1_555 1_555
C51 C9 1_555 1_555
C56 C8 1_555 1_555
H56 C56 1_555 1_555
N11 C21 1_555 1_555
C36 C51 1_555 1_555
C41 C46 1_555 1_555
C51 C56 1_555 1_555
Zn1_6 N1 1_555 1_555
O1 C5 1_555 1_555
N1 C1 1_555 1_555
N2 C2 1_555 1_555
C1 H1 1_555 1_555
C2 C1 1_555 1_555
H2 C2 1_555 1_555
C3 N1 1_555 1_555
C4 N2 1_555 1_555
H4 C4 1_555 1_555
C5 C4 1_555 1_555
H6 C5 1_555 1_555
H7 C5 1_555 1_555
N2 C3 1_555 1_555
Zn4 N5 1_555 1_555
O4 C33 1_555 1_555
N5 C13 1_555 1_555
N10 Zn1_7 1_555 1_555
N13 C18 1_555 1_555
C13 H13 1_555 1_555
C18 C13 1_555 1_555
H18 C18 1_555 1_555
C23 N5 1_555 1_555
H23 C23 1_555 1_555
C28 N13 1_555 1_555
H28 C28 1_555 1_555
H33 C28 1_555 1_555
C33 C28 1_555 1_555
H38 C33 1_555 1_555
H43 C33 1_555 1_555
C38 O4 1_555 1_555
C42 C37 1_555 1_555
C43 C38 1_555 1_555
H48 C43 1_555 1_555
C47 C42 1_555 1_555
C48 C43 1_555 1_555
H52 C47 1_555 1_555
H53 C48 1_555 1_555
C52 C37 1_555 1_555
C53 C38 1_555 1_555
C57 C48 1_555 1_555
C58 C47 1_555 1_555
H57 C57 1_555 1_555
H58 C58 1_555 1_555
N13 C23 1_555 1_555
C52 C53 1_555 1_555
C52 C57 1_555 1_555
C53 C58 1_555 1_555
O3 C32 1_555 1_555
N4 Zn1_8 1_555 1_555
N12 C17 1_555 1_555
C12 N4 1_555 1_555
H12 C12 1_555 1_555
C17 C12 1_555 1_555
H17 C17 1_555 1_555
C22 N4 1_555 1_555
H22 C22 1_555 1_555
C27 N12 1_555 1_555
H27 C27 1_555 1_555
H32 C27 1_555 1_555
C32 C27 1_555 1_555
H37 C32 1_555 1_555
H42 C32 1_555 1_555
N12 C22 1_555 1_555
Zn4_2 N7_2 1_555 1_555
O6_2 C35_2 1_555 1_555
N7_2 C15_2 1_555 1_555
N15_2 C20_2 1_555 1_555
C15_2 H15_2 1_555 1_555
C20_2 C15_2 1_555 1_555
H20_2 C20_2 1_555 1_555
C25_2 N7_2 1_555 1_555
H25_2 C25_2 1_555 1_555
C30_2 N15_2 1_555 1_555
H30_2 C30_2 1_555 1_555
H35_2 C30_2 1_555 1_555
C35_2 C30_2 1_555 1_555
H45_2 C35_2 1_555 1_555
C40_2 O6_2 1_555 1_555
H49_2 C44_2 1_555 1_555
C49_2 C44_2 1_555 1_555
H54_2 C49_2 1_555 1_555
C55_2 C40_2 1_555 1_555
C60_2 C49_2 1_555 1_555
H60_2 C60_2 1_555 1_555
N15_2 C25_2 1_555 1_555
C55_2 C60_2 1_555 1_555
Zn4 N1_2 1_555 1_555
O1_2 C5_2 1_555 1_555
N1_2 C1_2 1_555 1_555
N2_2 C2_2 1_555 1_555
C1_2 H1_2 1_555 1_555
C2_2 C1_2 1_555 1_555
H2_2 C2_2 1_555 1_555
C3_2 N1_2 1_555 1_555
H3_2 C3_2 1_555 1_555
C4_2 N2_2 1_555 1_555
H4_2 C4_2 1_555 1_555
H5_2 C4_2 1_555 1_555
C5_2 C4_2 1_555 1_555
H6_2 C5_2 1_555 1_555
H7_2 C5_2 1_555 1_555
C6_2 O1_2 1_555 1_555
C7_2 C6_2 1_555 1_555
H8_2 C7_2 1_555 1_555
C8_2 C7_2 1_555 1_555
H9_2 C8_2 1_555 1_555
C9_2 C6_2 1_555 1_555
C10_2 C9_2 1_555 1_555
H10_2 C10_2 1_555 1_555
Zn4_2 N3_2 1_555 1_555
O2_2 C31_2 1_555 1_555
O3_2 C32_2 1_555 1_555
O5_2 C34_2 1_555 1_555
N3_2 C11_2 1_555 1_555
N4_2 Zn4 1_555 1_555
N6_2 Zn4 1_555 1_555
N11_2 C16_2 1_555 1_555
N12_2 C17_2 1_555 1_555
N14_2 C19_2 1_555 1_555
C11_2 H11_2 1_555 1_555
C12_2 N4_2 1_555 1_555
C14_2 N6_2 1_555 1_555
H12_2 C12_2 1_555 1_555
H14_2 C14_2 1_555 1_555
C16_2 C11_2 1_555 1_555
C17_2 C12_2 1_555 1_555
C19_2 C14_2 1_555 1_555
H16_2 C16_2 1_555 1_555
H17_2 C17_2 1_555 1_555
H19_2 C19_2 1_555 1_555
C21_2 N3_2 1_555 1_555
C22_2 N4_2 1_555 1_555
C24_2 N6_2 1_555 1_555
H21_2 C21_2 1_555 1_555
H22_2 C22_2 1_555 1_555
H24_2 C24_2 1_555 1_555
C26_2 N11_2 1_555 1_555
C27_2 N12_2 1_555 1_555
C29_2 N14_2 1_555 1_555
H26_2 C26_2 1_555 1_555
H27_2 C27_2 1_555 1_555
H29_2 C29_2 1_555 1_555
H31_2 C26_2 1_555 1_555
H32_2 C27_2 1_555 1_555
H34_2 C29_2 1_555 1_555
C31_2 C26_2 1_555 1_555
C32_2 C27_2 1_555 1_555
C34_2 C29_2 1_555 1_555
H36_2 C31_2 1_555 1_555
H41_2 C31_2 1_555 1_555
H42_2 C32_2 1_555 1_555
H44_2 C34_2 1_555 1_555
C36_2 O2_2 1_555 1_555
C37_2 O3_2 1_555 1_555
C39_2 O5_2 1_555 1_555
C41_2 C36_2 1_555 1_555
H46_2 C41_2 1_555 1_555
H48_2 C43_2 1_555 1_555
H50_2 C45_2 1_555 1_555
C46_2 C10_2 1_555 1_555
C48_2 C43_2 1_555 1_555
C50_2 C45_2 1_555 1_555
H51_2 C46_2 1_555 1_555
H53_2 C48_2 1_555 1_555
H55_2 C50_2 1_555 1_555
C51_2 C9_2 1_555 1_555
C52_2 C37_2 1_555 1_555
C54_2 C39_2 1_555 1_555
C56_2 C8_2 1_555 1_555
C57_2 C48_2 1_555 1_555
C59_2 C50_2 1_555 1_555
H56_2 C56_2 1_555 1_555
H57_2 C57_2 1_555 1_555
H59_2 C59_2 1_555 1_555
N2_2 C3_2 1_555 1_555
N11_2 C21_2 1_555 1_555
N12_2 C22_2 1_555 1_555
N14_2 C24_2 1_555 1_555
C36_2 C51_2 1_555 1_555
C41_2 C46_2 1_555 1_555
C51_2 C56_2 1_555 1_555
C52_2 C57_2 1_555 1_555
C54_2 C59_2 1_555 1_555
Zn4_2 N5_2 1_555 1_555
O4_2 C33_2 1_555 1_555
N5_2 C13_2 1_555 1_555
N13_2 C18_2 1_555 1_555
C13_2 H13_2 1_555 1_555
C18_2 C13_2 1_555 1_555
H18_2 C18_2 1_555 1_555
C23_2 N5_2 1_555 1_555
H23_2 C23_2 1_555 1_555
C28_2 N13_2 1_555 1_555
H28_2 C28_2 1_555 1_555
H33_2 C28_2 1_555 1_555
C33_2 C28_2 1_555 1_555
H43_2 C33_2 1_555 1_555
C38_2 O4_2 1_555 1_555
H47_2 C42_2 1_555 1_555
C47_2 C42_2 1_555 1_555
H52_2 C47_2 1_555 1_555
C53_2 C38_2 1_555 1_555
C58_2 C47_2 1_555 1_555
H58_2 C58_2 1_555 1_555
N13_2 C23_2 1_555 1_555
C53_2 C58_2 1_555 1_555
O2_3 C31_3 1_555 1_555
O4_3 C33_3 1_555 1_555
O6_3 C35_3 1_555 1_555
N8 C11_3 1_555 1_555
N9 C13_3 1_555 1_555
N10 C15_3 1_555 1_555
N11_3 C16_3 1_555 1_555
N13_3 C18_3 1_555 1_555
N15_3 C20_3 1_555 1_555
C11_3 H11_3 1_555 1_555
C13_3 H13_3 1_555 1_555
C15_3 H15_3 1_555 1_555
C16_3 C11_3 1_555 1_555
C18_3 C13_3 1_555 1_555
C20_3 C15_3 1_555 1_555
H16_3 C16_3 1_555 1_555
H18_3 C18_3 1_555 1_555
H20_3 C20_3 1_555 1_555
C21_3 N8 1_555 1_555
C23_3 N9 1_555 1_555
C25_3 N10 1_555 1_555
H23_3 C23_3 1_555 1_555
C26_3 N11_3 1_555 1_555
C28_3 N13_3 1_555 1_555
C30_3 N15_3 1_555 1_555
H26_3 C26_3 1_555 1_555
H28_3 C28_3 1_555 1_555
H30_3 C30_3 1_555 1_555
H33_3 C28_3 1_555 1_555
C31_3 C26_3 1_555 1_555
C33_3 C28_3 1_555 1_555
C35_3 C30_3 1_555 1_555
H36_3 C31_3 1_555 1_555
H38_3 C33_3 1_555 1_555
H40_3 C35_3 1_555 1_555
H41_3 C31_3 1_555 1_555
H43_3 C33_3 1_555 1_555
H45_3 C35_3 1_555 1_555
N11_3 C21_3 1_555 1_555
N13_3 C23_3 1_555 1_555
N15_3 C25_3 1_555 1_555
Zn4_2 N1_3 1_555 1_555
O1_3 C5_3 1_555 1_555
N1_3 C1_3 1_555 1_555
N2_3 C2_3 1_555 1_555
C1_3 H1_3 1_555 1_555
C2_3 C1_3 1_555 1_555
H2_3 C2_3 1_555 1_555
C3_3 N1_3 1_555 1_555
H3_3 C3_3 1_555 1_555
C4_3 N2_3 1_555 1_555
H4_3 C4_3 1_555 1_555
H5_3 C4_3 1_555 1_555
C5_3 C4_3 1_555 1_555
H6_3 C5_3 1_555 1_555
H7_3 C5_3 1_555 1_555
C6_3 O1_3 1_555 1_555
C7_3 C6_3 1_555 1_555
H8_3 C7_3 1_555 1_555
C8_3 C7_3 1_555 1_555
H9_3 C8_3 1_555 1_555
C9_3 C6_3 1_555 1_555
C10_3 C9_3 1_555 1_555
H10_3 C10_3 1_555 1_555
O3_3 C32_3 1_555 1_555
O5_3 C34_3 1_555 1_555
N4_3 Zn4_2 1_555 1_555
N6_3 Zn4_2 1_555 1_555
N12_3 C17_3 1_555 1_555
N14_3 C19_3 1_555 1_555
C12_3 N4_3 1_555 1_555
C14_3 N6_3 1_555 1_555
H12_3 C12_3 1_555 1_555
H14_3 C14_3 1_555 1_555
C17_3 C12_3 1_555 1_555
C19_3 C14_3 1_555 1_555
H17_3 C17_3 1_555 1_555
H19_3 C19_3 1_555 1_555
C22_3 N4_3 1_555 1_555
C24_3 N6_3 1_555 1_555
H22_3 C22_3 1_555 1_555
H24_3 C24_3 1_555 1_555
C27_3 N12_3 1_555 1_555
C29_3 N14_3 1_555 1_555
H27_3 C27_3 1_555 1_555
H29_3 C29_3 1_555 1_555
H32_3 C27_3 1_555 1_555
H34_3 C29_3 1_555 1_555
C32_3 C27_3 1_555 1_555
C34_3 C29_3 1_555 1_555
H37_3 C32_3 1_555 1_555
H39_3 C34_3 1_555 1_555
H42_3 C32_3 1_555 1_555
H44_3 C34_3 1_555 1_555
C37_3 O3_3 1_555 1_555
C39_3 O5_3 1_555 1_555
C41_3 C36_3 1_555 1_555
C42_3 C37_3 1_555 1_555
C43_3 C38_3 1_555 1_555
C44_3 C39_3 1_555 1_555
C45_3 C40_3 1_555 1_555
H47_3 C42_3 1_555 1_555
H49_3 C44_3 1_555 1_555
C46_3 C10_3 1_555 1_555
C47_3 C42_3 1_555 1_555
C48_3 C43_3 1_555 1_555
C49_3 C44_3 1_555 1_555
C50_3 C45_3 1_555 1_555
H51_3 C46_3 1_555 1_555
H52_3 C47_3 1_555 1_555
H53_3 C48_3 1_555 1_555
H54_3 C49_3 1_555 1_555
H55_3 C50_3 1_555 1_555
C51_3 C9_3 1_555 1_555
C52_3 C37_3 1_555 1_555
C53_3 C38_3 1_555 1_555
C54_3 C39_3 1_555 1_555
C55_3 C40_3 1_555 1_555
C56_3 C8_3 1_555 1_555
C57_3 C48_3 1_555 1_555
C58_3 C47_3 1_555 1_555
C59_3 C50_3 1_555 1_555
C60_3 C49_3 1_555 1_555
H56_3 C56_3 1_555 1_555
H57_3 C57_3 1_555 1_555
H58_3 C58_3 1_555 1_555
H59_3 C59_3 1_555 1_555
H60_3 C60_3 1_555 1_555
N2_3 C3_3 1_555 1_555
N12_3 C22_3 1_555 1_555
N14_3 C24_3 1_555 1_555
C36_3 C51_3 1_555 1_555
C41_3 C46_3 1_555 1_555
C51_3 C56_3 1_555 1_555
C52_3 C53_3 1_555 1_555
C52_3 C57_3 1_555 1_555
C53_3 C58_3 1_555 1_555
C54_3 C55_3 1_555 1_555
C54_3 C59_3 1_555 1_555
C55_3 C60_3 1_555 1_555
O9 N16 1_555 1_555
N16_2 O8 1_555 1_555
O7 N16_4 1_555 1_555
O7_2 N16_5 1_555 1_555
N16_5 O8_2 1_555 1_555
O9_2 N16_5 1_555 1_555
O7_3 N16_6 1_555 1_555
N16_6 O8_3 1_555 1_555
O9_3 N16_6 1_555 1_555
O7_4 N16_7 1_555 1_555
N16_9 O8_4 1_555 1_555
O9_4 N16_10 1_555 1_555
O7_5 N16_11 1_555 1_555
N16_11 O8_5 1_555 1_555
O9_5 N16_11 1_555 1_555
O7_6 N16_12 1_555 1_555
N16_12 O8_6 1_555 1_555
O9_6 N16_12 1_555 1_555

#END
