
#######################################################################
#
#                 Cambridge Crystallographic Data Centre
#                                CCDC
#
#######################################################################
#
# If this CIF has been generated from an entry in the Cambridge
# Structural Database, then it will include bibliographic, chemical,
# crystal, experimental, refinement or atomic coordinate data resulting
# from the CCDC's data processing and validation procedures.
#
#######################################################################

data_CSD_CIF_BZCBNL01
_audit_creation_date 1983-11-09
_audit_creation_method CSD-ConQuest-V1
_database_code_CSD BZCBNL01
_database_code_depnum_ccdc_archive 'CCDC 1118128'
_chemical_formula_sum 'C12 N6'
_chemical_formula_moiety
;
C12 N6
;
_journal_coeditor_code "IUCr A22446"
_journal_coden_Cambridge 591
_journal_volume 39
_journal_year 1983
_journal_page_first 638
_journal_name_full 'Acta Crystallogr.,Sect.C:Cryst.Struct.Commun. '
loop_
_publ_author_name
"U.Druck"
"A.Kutoglu"
_chemical_name_systematic
;
Benzenehexacarbonitrile
;
_chemical_name_common
;
Hexacyanobenzene; Teaching Subset: Symmetry
;
_cell_volume   1253.075
_exptl_crystal_colour 'pale yellow'
_exptl_crystal_density_diffrn 1.21
_diffrn_ambient_temperature 120
#These two values have been output from a single CSD field.
_refine_ls_R_factor_gt 0.048
_refine_ls_wR_factor_gt 0.048
loop_
_citation_database_id_CSD
_citation_special_details
BZCBNL03 "is a reinterpretation of this cif"
BZCBNL04 "is a reinterpretation of this cif"
BZCBNL05 "is a reinterpretation of this cif"
_symmetry_cell_setting cubic
_symmetry_space_group_name_H-M 'P a 3'
_symmetry_Int_Tables_number 205
loop_
_symmetry_equiv_pos_site_id
_symmetry_equiv_pos_as_xyz
1 x,y,z
2 z,x,y
3 y,z,x
4 -x,1/2+y,1/2-z
5 -z,1/2+x,1/2-y
6 -y,1/2+z,1/2-x
7 1/2-x,-y,1/2+z
8 1/2-z,-x,1/2+y
9 1/2-y,-z,1/2+x
10 1/2+x,1/2-y,-z
11 1/2+z,1/2-x,-y
12 1/2+y,1/2-z,-x
13 -x,-y,-z
14 -z,-x,-y
15 -y,-z,-x
16 x,-1/2-y,-1/2+z
17 z,-1/2-x,-1/2+y
18 y,-1/2-z,-1/2+x
19 -1/2+x,y,-1/2-z
20 -1/2+z,x,-1/2-y
21 -1/2+y,z,-1/2-x
22 -1/2-x,-1/2+y,z
23 -1/2-z,-1/2+x,y
24 -1/2-y,-1/2+z,x
_cell_length_a 10.781(6)
_cell_length_b 10.781(6)
_cell_length_c 10.781(6)
_cell_angle_alpha 90
_cell_angle_beta 90
_cell_angle_gamma 90
_cell_formula_units_Z 4
loop_
_atom_type_symbol
_atom_type_radius_bond
C 0.68
N 0.68
loop_
_atom_site_label
_atom_site_type_symbol
_atom_site_fract_x
_atom_site_fract_y
_atom_site_fract_z
C1 C 0.09370 -0.08940 -0.00460
C2 C 0.19020 -0.18090 -0.00970
N1 N 0.26740 -0.25350 -0.01420
C1M C 0.00460 -0.09370 0.08940
C1N C 0.08940 0.00460 -0.09370
C1B C -0.08940 -0.00460 0.09370
C2M C 0.00970 -0.19020 0.18090
C1A C -0.00460 0.09370 -0.08940
C2N C 0.18090 0.00970 -0.19020
C1L C -0.09370 0.08940 0.00460
C2B C -0.18090 -0.00970 0.19020
N1M N 0.01420 -0.26740 0.25350
C2A C -0.00970 0.19020 -0.18090
N1N N 0.25350 0.01420 -0.26740
C2L C -0.19020 0.18090 0.00970
N1B N -0.25350 -0.01420 0.26740
N1A N -0.01420 0.26740 -0.25350
N1L N -0.26740 0.25350 0.01420
#END
