
###############################################################################
#
# This file contains modified crystal structure data generated from the
# MOF subset of the Cambridge Structural Database (CSD) v543 
# hosted by the Cambridge Crystallographic Data Centre (CCDC).
#
# This work is licensed under the Creative Commons
# Attribution-NonCommercial-ShareAlike 4.0 International License.
# To view a copy of this license, visit
# http://creativecommons.org/licenses/by-nc-sa/4.0/
# or send a letter to
# Creative Commons, PO Box 1866, Mountain View, CA 94042, USA.
#
# CIF created using the CSD Python API on 29 September 2022
# The structure has been converted into the P1 space group
# The structure has a 3D framework
# The original CSD entry CABJOH is in the monoclinic crystal system
# The framework has been calculated to contain at least 10.0% void space
# The void calculation uses a probe of radius 1.32A, grid spacing 0.4
#
###############################################################################

data_CABJOH
_chemical_formula_moiety         '(C112 H72 N28 Ni4)n'
_symmetry_cell_setting           triclinic
_symmetry_space_group_name_H-M   'P 1'
_symmetry_Int_Tables_number      1
_space_group_name_Hall           'P 1'
loop_
_symmetry_equiv_pos_site_id
_symmetry_equiv_pos_as_xyz
1 x,y,z
_cell_length_a                   6.7883(3)
_cell_length_b                   14.4840(7)
_cell_length_c                   28.9167(13)
_cell_angle_alpha                90
_cell_angle_beta                 93.2950(10)
_cell_angle_gamma                90
_cell_volume                     2838.44
loop_
_atom_site_label
_atom_site_type_symbol
_atom_site_fract_x
_atom_site_fract_y
_atom_site_fract_z
Ni3 Ni 0.00136(8) 0.22574(4) 0.74642(2)
H30 H 0.1086 0.2341 0.6468
N17 N 0.1398(5) 0.2270(2) 0.81369(12)
N20 N 0.2012(5) 0.3257(3) 0.72739(13)
N22 N 0.1940(6) 0.1229(3) 0.72871(13)
H11 H 0.1077 0.7346 0.6541
H13 H 0.0630 0.5246 0.1293
C31 C 0.0899(7) 0.4624(3) 0.03971(17)
H20 H 0.1529 0.4365 0.0669
Ni8 Ni 0.00136(8) 0.27426(4) 0.24642(2)
N8 N 0.3665(6) 0.4723(3) 0.82804(13)
C29 C 0.1858(7) 0.4858(3) 0.91274(17)
C30 C 0.1781(7) 0.4543(3) 0.99794(16)
H19 H 0.3002 0.4226 0.9967
C32 C 0.1714(7) 0.4706(4) 0.83004(17)
H21 H 0.0929 0.4647 0.8019
C33 C 0.4721(7) 0.4808(4) 0.86835(17)
H22 H 0.6118 0.4821 0.8677
C34 C 0.0770(8) 0.4770(4) 0.87115(18)
C35 C 0.0898(7) 0.4923(3) 0.95758(16)
C36 C 0.3904(7) 0.4878(4) 0.91079(17)
H24 H 0.4726 0.4938 0.9383
Ni4 Ni 0.49640(8) 0.47554(4) 0.75377(2)
N9 N 0.1974(5) 0.6269(3) 0.73373(13)
N10 N 0.1398(5) 0.2730(2) 0.31369(12)
N12 N 0.8621(5) 0.2270(3) 0.67918(13)
C37 C 0.3127(6) 0.5680(3) 0.73812(15)
N13 N 0.8088(5) 0.3281(3) 0.76424(13)
N14 N 0.8060(6) 0.6229(3) 0.77129(13)
C38 C 0.6655(7) 0.2255(3) 0.67182(15)
H25 H 0.5864 0.2210 0.6978
C39 C 0.3363(7) 0.2755(3) 0.32133(15)
H26 H 0.4160 0.2803 0.2955
C40 C 0.6828(7) 0.2097(3) 0.50332(16)
H27 H 0.8089 0.1815 0.5077
C41 C 0.5905(7) 0.2440(3) 0.54163(15)
C42 C 0.3173(7) 0.2925(4) 0.48963(17)
H28 H 0.1918 0.3212 0.4853
C43 C 0.4080(7) 0.2581(3) 0.45155(16)
C44 C 0.6851(7) 0.2380(3) 0.58897(15)
C45 C 0.4279(7) 0.2712(3) 0.36517(17)
H29 H 0.5678 0.2729 0.3690
C46 C 0.3148(7) 0.2645(3) 0.40404(15)
C47 C 0.9690(7) 0.2334(3) 0.64205(16)
C48 C 0.5730(7) 0.2302(4) 0.62807(17)
H31 H 0.4331 0.2282 0.6245
C49 C 0.0319(7) 0.2670(4) 0.35082(16)
C50 C 0.5946(7) 0.2161(3) 0.45928(16)
H33 H 0.6602 0.1918 0.4338
C51 C 0.4052(7) 0.2861(4) 0.53395(16)
H34 H 0.3394 0.3104 0.5594
C52 C 0.1109(7) 0.2632(4) 0.39566(16)
H35 H 0.0268 0.2598 0.4208
C53 C 0.8890(7) 0.2391(4) 0.59730(16)
H36 H 0.9728 0.2437 0.5722
C54 C 0.6896(6) 0.3850(3) 0.76185(15)
C55 C 0.3161(6) 0.3841(3) 0.73423(15)
C56 C 0.6883(6) 0.5659(3) 0.76602(14)
Ni12 Ni 0.99864(8) 0.72574(4) 0.75358(2)
N16 N 0.8026(5) 0.1269(3) 0.76627(13)
Ni2 Ni 0.50360(8) 0.52446(4) 0.24623(2)
N1 N 0.8026(5) 0.3731(3) 0.26627(13)
N2 N 0.8602(5) 0.7270(2) 0.68631(12)
N3 N 0.7988(5) 0.6743(3) 0.27261(13)
N4 N 0.1379(5) 0.7730(3) 0.32082(13)
C1 C 0.6873(6) 0.4320(3) 0.26188(15)
N5 N 0.1912(5) 0.6719(3) 0.23576(13)
N6 N 0.6335(6) 0.5277(3) 0.17196(13)
N7 N 0.1940(6) 0.3771(3) 0.22871(13)
C2 C 0.8142(7) 0.5142(3) 0.08726(17)
C3 C 0.3345(7) 0.7745(3) 0.32818(15)
H1 H 0.4136 0.7790 0.3022
C4 C 0.6637(7) 0.7245(3) 0.67867(15)
H2 H 0.5840 0.7197 0.7045
C5 C 0.3172(7) 0.7903(3) 0.49668(16)
H3 H 0.1911 0.8185 0.4923
C6 C 0.4095(7) 0.7560(3) 0.45837(15)
C7 C 0.6827(7) 0.7075(4) 0.51037(17)
H4 H 0.8082 0.6788 0.5147
C8 C 0.5920(7) 0.7419(3) 0.54845(16)
C9 C 0.8219(7) 0.5457(3) 0.00206(16)
H5 H 0.6998 0.5774 0.0033
C10 C 0.3149(7) 0.7620(3) 0.41103(15)
C11 C 0.5721(7) 0.7288(3) 0.63483(17)
H6 H 0.4322 0.7271 0.6310
C13 C 0.6852(7) 0.7355(3) 0.59596(15)
C14 C 0.0310(7) 0.7666(3) 0.35795(16)
C15 C 0.4270(7) 0.7698(4) 0.37193(17)
H9 H 0.5669 0.7718 0.3755
C16 C 0.8286(7) 0.5294(4) 0.16996(17)
H10 H 0.9071 0.5353 0.1981
C17 C 0.9681(7) 0.7330(4) 0.64918(16)
C18 C 0.5279(7) 0.5192(4) 0.13165(17)
H12 H 0.3882 0.5179 0.1323
C19 C 0.9230(8) 0.5230(4) 0.12885(18)
C20 C 0.4054(7) 0.7839(3) 0.54072(16)
H14 H 0.3398 0.8082 0.5662
C21 C 0.9102(7) 0.5077(3) 0.04242(16)
C22 C 0.5948(7) 0.7139(4) 0.46605(16)
H15 H 0.6606 0.6896 0.4406
C23 C 0.6096(7) 0.5122(4) 0.08921(17)
H16 H 0.5274 0.5062 0.0617
C24 C 0.8891(7) 0.7368(4) 0.60434(16)
H17 H 0.9732 0.7402 0.5792
C25 C 0.1110(7) 0.7609(4) 0.40270(16)
H18 H 0.0272 0.7563 0.4278
C26 C 0.3104(6) 0.6150(3) 0.23815(15)
C27 C 0.6839(6) 0.6159(3) 0.26577(15)
C28 C 0.3117(6) 0.4341(3) 0.23398(14)
Ni5 Ni 0.99864(8) 0.77426(4) 0.25358(2)
N15 N 0.1974(5) 0.8731(3) 0.23373(13)
C12 C 0.9101(7) 0.5376(3) 0.96029(17)
H7 H 0.8471 0.5635 0.9331
H23 H 0.9370 0.4754 0.8707
H32 H 0.8923 0.2654 0.3459
H8 H 0.8914 0.7659 0.3532
N18 N 0.8602(5) 0.7730(2) 0.18631(12)
N21 N 0.8060(6) 0.8771(3) 0.27129(13)
H8_2 H 0.1086 0.2659 0.1468
N19 N 0.2012(5) 0.1743(3) 0.22739(13)
Ni2_2 Ni 0.49640(8) 0.02446(4) 0.25377(2)
N4_2 N 0.8621(5) 0.2730(3) 0.17918(13)
N5_2 N 0.8088(5) 0.1719(3) 0.26424(13)
N6_2 N 0.3665(6) 0.0277(3) 0.32804(13)
C2_2 C 0.1858(7) 0.0142(3) 0.41274(17)
C3_2 C 0.6655(7) 0.2745(3) 0.17182(15)
H1_2 H 0.5864 0.2790 0.1978
C5_2 C 0.6828(7) 0.2903(3) 0.00332(16)
H3_2 H 0.8089 0.3185 0.0077
C6_2 C 0.5905(7) 0.2560(3) 0.04163(15)
C9_2 C 0.1781(7) 0.0457(3) 0.49794(16)
H5_2 H 0.3002 0.0774 0.4967
C10_2 C 0.6851(7) 0.2620(3) 0.08897(15)
C12_2 C 0.0899(7) 0.0376(3) 0.53971(17)
H7_2 H 0.1529 0.0635 0.5669
C14_2 C 0.9690(7) 0.2666(3) 0.14205(16)
C15_2 C 0.5730(7) 0.2698(4) 0.12807(17)
H9_2 H 0.4331 0.2718 0.1245
C16_2 C 0.1714(7) 0.0294(4) 0.33004(17)
H10_2 H 0.0929 0.0353 0.3019
C18_2 C 0.4721(7) 0.0192(4) 0.36835(17)
H12_2 H 0.6118 0.0179 0.3677
C19_2 C 0.0770(8) 0.0230(4) 0.37115(18)
C21_2 C 0.0898(7) 0.0077(3) 0.45758(16)
C22_2 C 0.4052(7) 0.2139(4) 0.03395(16)
H15_2 H 0.3394 0.1896 0.0594
C23_2 C 0.3904(7) 0.0122(4) 0.41079(17)
H16_2 H 0.4726 0.0062 0.4383
C25_2 C 0.8890(7) 0.2609(4) 0.09730(16)
H18_2 H 0.9728 0.2563 0.0722
C26_2 C 0.6896(6) 0.1150(3) 0.26185(15)
C27_2 C 0.3161(6) 0.1159(3) 0.23423(15)
C4_2 C 0.3363(7) 0.2245(3) 0.82133(15)
H2_2 H 0.4160 0.2197 0.7955
C7_2 C 0.3173(7) 0.2075(4) 0.98963(17)
H4_2 H 0.1918 0.1788 0.9853
C8_2 C 0.4080(7) 0.2419(3) 0.95155(16)
C11_2 C 0.4279(7) 0.2288(3) 0.86517(17)
H6_2 H 0.5678 0.2271 0.8690
C13_2 C 0.3148(7) 0.2355(3) 0.90404(15)
C17_2 C 0.0319(7) 0.2330(4) 0.85082(16)
C20_2 C 0.5946(7) 0.2839(3) 0.95928(16)
H14_2 H 0.6602 0.3082 0.9338
C24_2 C 0.1109(7) 0.2368(4) 0.89566(16)
H17_2 H 0.0268 0.2402 0.9208
C1_2 C 0.3127(6) 0.9320(3) 0.23812(15)
C28_2 C 0.6883(6) 0.9341(3) 0.26602(14)
H23_2 H 0.0630 0.9754 0.6293
H13_2 H 0.9370 0.0246 0.3707
C37_2 C 0.6873(6) 0.0680(3) 0.76188(15)
C56_2 C 0.3117(6) 0.0659(3) 0.73398(14)
C39_2 C 0.6637(7) 0.7755(3) 0.17867(15)
H26_2 H 0.5840 0.7803 0.2045
C42_2 C 0.6827(7) 0.7925(4) 0.01037(17)
H28_2 H 0.8082 0.8212 0.0147
C43_2 C 0.5920(7) 0.7581(3) 0.04845(16)
C45_2 C 0.5721(7) 0.7712(3) 0.13483(17)
H29_2 H 0.4322 0.7729 0.1310
C46_2 C 0.6852(7) 0.7645(3) 0.09596(15)
C49_2 C 0.9681(7) 0.7670(4) 0.14918(16)
C50_2 C 0.4054(7) 0.7161(3) 0.04072(16)
H33_2 H 0.3398 0.6918 0.0662
C52_2 C 0.8891(7) 0.7632(4) 0.10434(16)
H35_2 H 0.9732 0.7598 0.0792
N8_2 N 0.6335(6) 0.9723(3) 0.67196(13)
C29_2 C 0.8142(7) 0.9858(3) 0.58726(17)
C30_2 C 0.8219(7) 0.9543(3) 0.50206(16)
H19_2 H 0.6998 0.9226 0.5033
C31_2 C 0.9101(7) 0.9624(3) 0.46029(17)
H20_2 H 0.8471 0.9365 0.4331
C32_2 C 0.8286(7) 0.9706(4) 0.66996(17)
H21_2 H 0.9071 0.9647 0.6981
C33_2 C 0.5279(7) 0.9808(4) 0.63165(17)
H22_2 H 0.3882 0.9821 0.6323
C34_2 C 0.9230(8) 0.9770(4) 0.62885(18)
C35_2 C 0.9102(7) 0.9923(3) 0.54242(16)
C36_2 C 0.6096(7) 0.9878(4) 0.58921(17)
H24_2 H 0.5274 0.9938 0.5617
Ni4_2 Ni 0.50360(8) 0.97554(4) 0.74623(2)
N11 N 0.7988(5) 0.8257(3) 0.77261(13)
N12_2 N 0.1379(5) 0.7270(3) 0.82082(13)
N13_2 N 0.1912(5) 0.8281(3) 0.73576(13)
C38_2 C 0.3345(7) 0.7255(3) 0.82818(15)
H25_2 H 0.4136 0.7210 0.8022
C40_2 C 0.3172(7) 0.7097(3) 0.99668(16)
H27_2 H 0.1911 0.6815 0.9923
C41_2 C 0.4095(7) 0.7440(3) 0.95837(15)
C44_2 C 0.3149(7) 0.7380(3) 0.91103(15)
C47_2 C 0.0310(7) 0.7334(3) 0.85795(16)
C48_2 C 0.4270(7) 0.7302(4) 0.87193(17)
H31_2 H 0.5669 0.7282 0.8755
C51_2 C 0.5948(7) 0.7861(4) 0.96605(16)
H34_2 H 0.6606 0.8104 0.9406
C53_2 C 0.1110(7) 0.7391(4) 0.90270(16)
H36_2 H 0.0272 0.7437 0.9278
C54_2 C 0.3104(6) 0.8850(3) 0.73815(15)
C55_2 C 0.6839(6) 0.8841(3) 0.76577(15)
H30_2 H 0.8914 0.7341 0.8532
H32_2 H 0.1077 0.7654 0.1541
H11_2 H 0.8923 0.2346 0.8459
loop_
_geom_bond_atom_site_label_1
_geom_bond_atom_site_label_2
_geom_bond_site_symmetry_1
_geom_bond_site_symmetry_2
N17 Ni3 1_555 1_555
N20 Ni3 1_555 1_555
N22 Ni3 1_555 1_555
H20 C31 1_555 1_555
N8 C32 1_555 1_555
C29 C34 1_555 1_555
C30 H19 1_555 1_555
C32 H21 1_555 1_555
C33 N8 1_555 1_555
H22 C33 1_555 1_555
C34 C32 1_555 1_555
C36 C29 1_555 1_555
H24 C36 1_555 1_555
Ni4 N8 1_555 1_555
N9 C37 1_555 1_555
N10 C39 1_555 1_555
N20 C55 1_555 1_555
N12 C38 1_555 1_555
C37 Ni4 1_555 1_555
N14 C56 1_555 1_555
C38 H25 1_555 1_555
C39 H26 1_555 1_555
C40 H27 1_555 1_555
C41 C40 1_555 1_555
C42 H28 1_555 1_555
C43 C42 1_555 1_555
C44 C41 1_555 1_555
C45 C39 1_555 1_555
H29 C45 1_555 1_555
C46 C43 1_555 1_555
C47 N12 1_555 1_555
C48 C38 1_555 1_555
H31 C48 1_555 1_555
C49 N10 1_555 1_555
C50 C40 1_555 1_555
H33 C50 1_555 1_555
C51 C41 1_555 1_555
H34 C51 1_555 1_555
C52 C46 1_555 1_555
H35 C52 1_555 1_555
C53 C44 1_555 1_555
H36 C53 1_555 1_555
C54 Ni4 1_555 1_555
C55 Ni4 1_555 1_555
C56 Ni4 1_555 1_555
Ni8 N10 1_555 1_555
Ni12 N14 1_555 1_555
C29 C35 1_555 1_555
C30 C35 1_555 1_555
C33 C36 1_555 1_555
N13 C54 1_555 1_555
C42 C51 1_555 1_555
C43 C50 1_555 1_555
C44 C48 1_555 1_555
C45 C46 1_555 1_555
C47 C53 1_555 1_555
C49 C52 1_555 1_555
Ni2 C1 1_555 1_555
N1 C1 1_555 1_555
N2 C4 1_555 1_555
N3 C27 1_555 1_555
N4 C3 1_555 1_555
N6 Ni2 1_555 1_555
N7 C28 1_555 1_555
C2 C19 1_555 1_555
C3 H1 1_555 1_555
C4 H2 1_555 1_555
C5 H3 1_555 1_555
C6 C5 1_555 1_555
C7 H4 1_555 1_555
C8 C7 1_555 1_555
C9 H5 1_555 1_555
C10 C6 1_555 1_555
C11 C4 1_555 1_555
H6 C11 1_555 1_555
C13 C8 1_555 1_555
C14 N4 1_555 1_555
C15 C3 1_555 1_555
H9 C15 1_555 1_555
C16 N6 1_555 1_555
H10 C16 1_555 1_555
C17 N2 1_555 1_555
C18 N6 1_555 1_555
H12 C18 1_555 1_555
C19 C16 1_555 1_555
C20 C5 1_555 1_555
H14 C20 1_555 1_555
C21 C2 1_555 1_555
C22 C6 1_555 1_555
H15 C22 1_555 1_555
C23 C2 1_555 1_555
H16 C23 1_555 1_555
C24 C13 1_555 1_555
H17 C24 1_555 1_555
C25 C10 1_555 1_555
H18 C25 1_555 1_555
C26 Ni2 1_555 1_555
C27 Ni2 1_555 1_555
C28 Ni2 1_555 1_555
Ni5 N3 1_555 1_555
Ni8 N7 1_555 1_555
Ni12 N2 1_555 1_555
N5 C26 1_555 1_555
C7 C22 1_555 1_555
C8 C20 1_555 1_555
C9 C21 1_555 1_555
C10 C15 1_555 1_555
C11 C13 1_555 1_555
C14 C25 1_555 1_555
C17 C24 1_555 1_555
C18 C23 1_555 1_555
H7 C12 1_555 1_555
N18 Ni5 1_555 1_555
N21 Ni5 1_555 1_555
N19 Ni8 1_555 1_555
N19 C27_2 1_555 1_555
N4_2 C3_2 1_555 1_555
N6_2 Ni2_2 1_555 1_555
C2_2 C19_2 1_555 1_555
C3_2 H1_2 1_555 1_555
C5_2 H3_2 1_555 1_555
C6_2 C5_2 1_555 1_555
C9_2 H5_2 1_555 1_555
C10_2 C6_2 1_555 1_555
C12_2 C9_2 1_555 1_555
H7_2 C12_2 1_555 1_555
C14_2 N4_2 1_555 1_555
C15_2 C3_2 1_555 1_555
H9_2 C15_2 1_555 1_555
C16_2 N6_2 1_555 1_555
H10_2 C16_2 1_555 1_555
C18_2 N6_2 1_555 1_555
H12_2 C18_2 1_555 1_555
C19_2 C16_2 1_555 1_555
C21_2 C2_2 1_555 1_555
C22_2 C6_2 1_555 1_555
H15_2 C22_2 1_555 1_555
C23_2 C2_2 1_555 1_555
H16_2 C23_2 1_555 1_555
C25_2 C10_2 1_555 1_555
H18_2 C25_2 1_555 1_555
C26_2 Ni2_2 1_555 1_555
C27_2 Ni2_2 1_555 1_555
N5_2 C26_2 1_555 1_555
C9_2 C21_2 1_555 1_555
C10_2 C15_2 1_555 1_555
C14_2 C25_2 1_555 1_555
C18_2 C23_2 1_555 1_555
N17 C4_2 1_555 1_555
C4_2 H2_2 1_555 1_555
C7_2 H4_2 1_555 1_555
C8_2 C7_2 1_555 1_555
C11_2 C4_2 1_555 1_555
H6_2 C11_2 1_555 1_555
C13_2 C8_2 1_555 1_555
C17_2 N17 1_555 1_555
H14_2 C20_2 1_555 1_555
C24_2 C13_2 1_555 1_555
H17_2 C24_2 1_555 1_555
C8_2 C20_2 1_555 1_555
C11_2 C13_2 1_555 1_555
C17_2 C24_2 1_555 1_555
N15 C1_2 1_555 1_555
N21 C28_2 1_555 1_555
N16 C37_2 1_555 1_555
N22 C56_2 1_555 1_555
N18 C39_2 1_555 1_555
C39_2 H26_2 1_555 1_555
C42_2 H28_2 1_555 1_555
C43_2 C42_2 1_555 1_555
C45_2 C39_2 1_555 1_555
H29_2 C45_2 1_555 1_555
C46_2 C43_2 1_555 1_555
C49_2 N18 1_555 1_555
H33_2 C50_2 1_555 1_555
C52_2 C46_2 1_555 1_555
H35_2 C52_2 1_555 1_555
C43_2 C50_2 1_555 1_555
C45_2 C46_2 1_555 1_555
C49_2 C52_2 1_555 1_555
N8_2 C32_2 1_555 1_555
C29_2 C34_2 1_555 1_555
C30_2 H19_2 1_555 1_555
H20_2 C31_2 1_555 1_555
C32_2 H21_2 1_555 1_555
C33_2 N8_2 1_555 1_555
H22_2 C33_2 1_555 1_555
C34_2 C32_2 1_555 1_555
C36_2 C29_2 1_555 1_555
H24_2 C36_2 1_555 1_555
Ni4_2 N8_2 1_555 1_555
N11 C55_2 1_555 1_555
N12_2 C38_2 1_555 1_555
C38_2 H25_2 1_555 1_555
C40_2 H27_2 1_555 1_555
C41_2 C40_2 1_555 1_555
C44_2 C41_2 1_555 1_555
C47_2 N12_2 1_555 1_555
C48_2 C38_2 1_555 1_555
H31_2 C48_2 1_555 1_555
C51_2 C41_2 1_555 1_555
H34_2 C51_2 1_555 1_555
C53_2 C44_2 1_555 1_555
H36_2 C53_2 1_555 1_555
C54_2 Ni4_2 1_555 1_555
C55_2 Ni4_2 1_555 1_555
Ni12 N11 1_555 1_555
C29_2 C35_2 1_555 1_555
C30_2 C31_2 1_555 1_555
C30_2 C35_2 1_555 1_555
C33_2 C36_2 1_555 1_555
N13_2 C54_2 1_555 1_555
C44_2 C48_2 1_555 1_555
C47_2 C53_2 1_555 1_555

#END
