
###############################################################################
#
# This file contains modified crystal structure data generated from the
# MOF subset of the Cambridge Structural Database (CSD) v543 
# hosted by the Cambridge Crystallographic Data Centre (CCDC).
#
# This work is licensed under the Creative Commons
# Attribution-NonCommercial-ShareAlike 4.0 International License.
# To view a copy of this license, visit
# http://creativecommons.org/licenses/by-nc-sa/4.0/
# or send a letter to
# Creative Commons, PO Box 1866, Mountain View, CA 94042, USA.
#
# CIF created using the CSD Python API on 29 September 2022
# The structure has been converted into the P1 space group
# The structure has a 3D framework
# The original CSD entry CABJEX is in the orthorhombic crystal system
# The framework has been calculated to contain at least 10.0% void space
# The void calculation uses a probe of radius 1.32A, grid spacing 0.4
#
###############################################################################

data_CABJEX
_chemical_formula_moiety         '(C120 H80 N48 O60 S16 Zn16)n'
_symmetry_cell_setting           triclinic
_symmetry_space_group_name_H-M   'P 1'
_symmetry_Int_Tables_number      1
_space_group_name_Hall           'P 1'
loop_
_symmetry_equiv_pos_site_id
_symmetry_equiv_pos_as_xyz
1 x,y,z
_cell_length_a                   20.1368(10)
_cell_length_b                   20.2976(8)
_cell_length_c                   17.4633(12)
_cell_angle_alpha                90
_cell_angle_beta                 90
_cell_angle_gamma                90
_cell_volume                     7137.75
loop_
_atom_site_label
_atom_site_type_symbol
_atom_site_fract_x
_atom_site_fract_y
_atom_site_fract_z
Zn12 Zn 0.27812(4) 0.02088(4) 0.17334(5)
Zn1 Zn 0.23173(4) 0.52176(4) 0.33325(5)
Zn2 Zn 0.27812(4) 0.47912(4) 0.17334(5)
C1 C 0.3539(4) 0.3933(4) 0.0656(5)
C3 C 0.2912(5) 0.4691(4) 0.0027(4)
C4 C 0.2448(4) 0.3801(4) 0.2972(5)
C5 C 0.2452(4) 0.3107(4) 0.3185(5)
C6 C 0.2347(4) 0.2852(4) 0.3908(5)
H1 H 0.2283 0.3108 0.4344
C7 C 0.2676(4) 0.6199(4) 0.2060(5)
C8 C 0.2747(4) 0.6895(4) 0.1855(5)
C9 C 0.3017(4) 0.7161(4) 0.1223(5)
H2 H 0.3187 0.6911 0.0823
C10 C 0.1366(5) 0.5021(4) 0.2019(5)
C11 C 0.0673(5) 0.5044(4) 0.1759(5)
C12 C 0.0417(5) 0.5200(3) 0.1062(5)
H3 H 0.0683 0.5286 0.0638
O1 O 0.2559(3) 0.3923(2) 0.2278(4)
O2 O 0.2377(3) 0.4237(2) 0.3480(3)
O3 O 0.2904(3) 0.5773(3) 0.1600(3)
O4 O 0.2433(3) 0.6067(2) 0.2704(3)
O5 O 0.1808(3) 0.4949(3) 0.1516(4)
O6 O 0.1460(3) 0.5060(3) 0.2731(3)
N1 N 0.3131(4) 0.4442(3) 0.0700(4)
N2 N 0.3744(4) 0.3660(4) 0.0017(3)
N4 N 0.2442(5) 0.5201(4) 0.0029(4)
H6 H 0.2324 0.5381 0.0454
N6 N 0.3790(4) 0.3686(4) 0.1299(4)
H9 H 0.4068 0.3365 0.1280
H10 H 0.3673 0.3846 0.1735
S1 S 0.00367(10) 0.49259(11) 0.23968(15)
S2 S 0.25048(17) 0.7500 0.24756(19)
S3 S 0.25340(18) 0.2500 0.25218(19)
C16 C 0.2448(4) 0.1199(4) 0.2972(5)
C17 C 0.2452(4) 0.1893(4) 0.3185(5)
C18 C 0.2347(4) 0.2148(4) 0.3908(5)
H11 H 0.2283 0.1892 0.4344
O9 O 0.2559(3) 0.1077(2) 0.2278(4)
O10 O 0.2377(3) 0.0763(2) 0.3480(3)
C19 C 0.2676(4) 0.8801(4) 0.2060(5)
C20 C 0.2747(4) 0.8105(4) 0.1855(5)
C21 C 0.3017(4) 0.7839(4) 0.1223(5)
H12 H 0.3187 0.8089 0.0823
O11 O 0.2904(3) 0.9227(3) 0.1600(3)
O12 O 0.2433(3) 0.8933(2) 0.2704(3)
C22 C 0.3539(4) 0.1067(4) 0.0656(5)
C24 C 0.2912(5) 0.0309(4) 0.0027(4)
O13 O 0.1808(3) 0.0051(3) 0.1516(4)
N7 N 0.3131(4) 0.0558(3) 0.0700(4)
N8 N 0.3744(4) 0.1340(4) 0.0017(3)
N12 N 0.3790(4) 0.1314(4) 0.1299(4)
H19 H 0.4068 0.1635 0.1280
H20 H 0.3673 0.1154 0.1735
S4 S 0.00367(10) 0.00741(11) 0.23968(15)
Zn8 Zn 0.23173(4) 0.97824(4) 0.33325(5)
O19 O 0.3615(3) 0.0182(3) 0.2407(3)
O20 O 0.3615(3) 0.4818(3) 0.2407(3)
O22 O 0.3304(3) 0.5245(3) 0.3540(3)
N13 N 0.1930(4) 0.5565(3) 0.4342(4)
C2 C 0.3490(4) 0.3915(4) 0.9376(5)
N3 N 0.3070(4) 0.4435(3) 0.9342(4)
H5 H 0.2271 0.5334 0.9605
N5 N 0.3662(4) 0.3620(3) 0.8717(4)
H7 H 0.3923 0.3285 0.8723
H8 H 0.3510 0.3766 0.8289
C23 C 0.3490(4) 0.1085(4) 0.9376(5)
N9 N 0.3070(4) 0.0565(3) 0.9342(4)
N11 N 0.3662(4) 0.1380(3) 0.8717(4)
H17 H 0.3923 0.1715 0.8723
H18 H 0.3510 0.1234 0.8289
Zn5 Zn 0.26827(4) 0.47824(4) 0.83325(5)
Zn9 Zn 0.26827(4) 0.02176(4) 0.83325(5)
C25 C 0.1366(5) 0.9979(4) 0.2019(5)
C26 C 0.0673(5) 0.9956(4) 0.1759(5)
C27 C 0.0417(5) 0.9800(3) 0.1062(5)
H13 H 0.0683 0.9714 0.0638
O14 O 0.1460(3) 0.9940(3) 0.2731(3)
N10 N 0.2442(5) 0.9799(4) 0.0029(4)
H16 H 0.2324 0.9619 0.0454
O21 O 0.3304(3) 0.9755(3) 0.3540(3)
N14 N 0.1930(4) 0.9435(3) 0.4342(4)
C13 C 0.9710(4) 0.5223(3) 0.1031(5)
H4 H 0.9467 0.5338 0.0598
C14 C 0.9440(5) 0.5060(4) 0.1702(5)
C15 C 0.8740(5) 0.5033(4) 0.1948(5)
O7 O 0.8615(3) 0.4818(3) 0.2593(3)
O8 O 0.8304(3) 0.5245(3) 0.1460(3)
O15 O 0.8615(3) 0.0182(3) 0.2593(3)
Zn7 Zn 0.73173(4) 0.52176(4) 0.16675(5)
Zn10 Zn 0.77812(4) 0.02088(4) 0.32666(5)
Zn11 Zn 0.77812(4) 0.47912(4) 0.32666(5)
C28 C 0.9710(4) 0.9777(3) 0.1031(5)
H14 H 0.9467 0.9662 0.0598
C29 C 0.9440(5) 0.9940(4) 0.1702(5)
C30 C 0.8740(5) 0.9967(4) 0.1948(5)
O16 O 0.8304(3) 0.9755(3) 0.1460(3)
Zn6 Zn 0.73173(4) 0.97824(4) 0.16675(5)
C25_2 C 0.3634(5) 0.0021(4) 0.7019(5)
C26_2 C 0.4327(5) 0.0044(4) 0.6759(5)
C27_2 C 0.4583(5) 0.0200(3) 0.6062(5)
H13_2 H 0.4317 0.0286 0.5638
C28_2 C 0.5290(4) 0.0223(3) 0.6031(5)
H14_2 H 0.5533 0.0338 0.5598
C29_2 C 0.5560(5) 0.0060(4) 0.6702(5)
C30_2 C 0.6260(5) 0.0033(4) 0.6948(5)
O14_2 O 0.3540(3) 0.0060(3) 0.7731(3)
O16_2 O 0.6696(3) 0.0245(3) 0.6460(3)
N10_2 N 0.2558(5) 0.0201(4) 0.5029(4)
H15 H 0.2729 0.0334 0.4605
H16_2 H 0.2676 0.0381 0.5454
Zn6_2 Zn 0.76827(4) 0.02176(4) 0.66675(5)
O17 O 0.2096(3) 0.0773(3) 0.6600(3)
O18 O 0.2567(3) 0.1067(2) 0.7704(3)
O21_2 O 0.1696(3) 0.0245(3) 0.8540(3)
Zn2_2 Zn 0.22188(4) 0.52088(4) 0.67334(5)
C1_2 C 0.1461(4) 0.6067(4) 0.5656(5)
C2_2 C 0.1510(4) 0.6085(4) 0.4376(5)
C3_2 C 0.2088(5) 0.5309(4) 0.5027(4)
C4_2 C 0.2552(4) 0.6199(4) 0.7972(5)
C5_2 C 0.2548(4) 0.6893(4) 0.8185(5)
C6_2 C 0.2653(4) 0.7148(4) 0.8908(5)
H1_2 H 0.2717 0.6892 0.9344
C7_2 C 0.2324(4) 0.3801(4) 0.7060(5)
C8_2 C 0.2253(4) 0.3105(4) 0.6855(5)
C9_2 C 0.1983(4) 0.2839(4) 0.6223(5)
H2_2 H 0.1813 0.3089 0.5823
C10_2 C 0.3634(5) 0.4979(4) 0.7019(5)
C11_2 C 0.4327(5) 0.4956(4) 0.6759(5)
C12_2 C 0.4583(5) 0.4800(3) 0.6062(5)
H3_2 H 0.4317 0.4714 0.5638
C13_2 C 0.5290(4) 0.4777(3) 0.6031(5)
H4_2 H 0.5533 0.4662 0.5598
C14_2 C 0.5560(5) 0.4940(4) 0.6702(5)
C15_2 C 0.6260(5) 0.4967(4) 0.6948(5)
O1_2 O 0.2441(3) 0.6077(2) 0.7278(4)
O2_2 O 0.2623(3) 0.5763(2) 0.8480(3)
O3_2 O 0.2096(3) 0.4227(3) 0.6600(3)
O4_2 O 0.2567(3) 0.3933(2) 0.7704(3)
O5_2 O 0.3192(3) 0.5051(3) 0.6516(4)
O6_2 O 0.3540(3) 0.4940(3) 0.7731(3)
O7_2 O 0.6385(3) 0.5182(3) 0.7593(3)
O8_2 O 0.6696(3) 0.4755(3) 0.6460(3)
N1_2 N 0.1869(4) 0.5558(3) 0.5700(4)
N2_2 N 0.1256(4) 0.6340(4) 0.5017(3)
N4_2 N 0.2558(5) 0.4799(4) 0.5029(4)
H5_2 H 0.2729 0.4666 0.4605
H6_2 H 0.2676 0.4619 0.5454
N5_2 N 0.1338(4) 0.6380(3) 0.3717(4)
H7_2 H 0.1077 0.6715 0.3723
H8_2 H 0.1490 0.6234 0.3289
N6_2 N 0.1210(4) 0.6314(4) 0.6299(4)
H9_2 H 0.0932 0.6635 0.6280
H10_2 H 0.1327 0.6154 0.6735
S1_2 S 0.49633(10) 0.50741(11) 0.73968(15)
S2_2 S 0.24952(17) 0.2500 0.74756(19)
S3_2 S 0.24660(18) 0.7500 0.75218(19)
C16_2 C 0.2552(4) 0.8801(4) 0.7972(5)
C17_2 C 0.2548(4) 0.8107(4) 0.8185(5)
C18_2 C 0.2653(4) 0.7852(4) 0.8908(5)
H11_2 H 0.2717 0.8108 0.9344
O9_2 O 0.2441(3) 0.8923(2) 0.7278(4)
O10_2 O 0.2623(3) 0.9237(2) 0.8480(3)
C19_2 C 0.2324(4) 0.1199(4) 0.7060(5)
C20_2 C 0.2253(4) 0.1895(4) 0.6855(5)
C21_2 C 0.1983(4) 0.2161(4) 0.6223(5)
H12_2 H 0.1813 0.1911 0.5823
Zn4 Zn 0.22188(4) 0.97912(4) 0.67334(5)
C22_2 C 0.1461(4) 0.8933(4) 0.5656(5)
C23_2 C 0.1510(4) 0.8915(4) 0.4376(5)
C24_2 C 0.2088(5) 0.9691(4) 0.5027(4)
O13_2 O 0.3192(3) 0.9949(3) 0.6516(4)
O15_2 O 0.6385(3) 0.9818(3) 0.7593(3)
N7_2 N 0.1869(4) 0.9442(3) 0.5700(4)
N8_2 N 0.1256(4) 0.8660(4) 0.5017(3)
N11_2 N 0.1338(4) 0.8620(3) 0.3717(4)
H17_2 H 0.1077 0.8285 0.3723
H18_2 H 0.1490 0.8766 0.3289
N12_2 N 0.1210(4) 0.8686(4) 0.6299(4)
H19_2 H 0.0932 0.8365 0.6280
H20_2 H 0.1327 0.8846 0.6735
S4_2 S 0.49633(10) 0.99259(11) 0.73968(15)
Zn7_2 Zn 0.76827(4) 0.47824(4) 0.66675(5)
Zn10_2 Zn 0.72188(4) 0.97912(4) 0.82666(5)
Zn11_2 Zn 0.72188(4) 0.52088(4) 0.82666(5)
O19_2 O 0.1385(3) 0.9818(3) 0.7407(3)
O20_2 O 0.1385(3) 0.5182(3) 0.7407(3)
O22_2 O 0.1696(3) 0.4755(3) 0.8540(3)
C13_3 C 0.0290(4) 0.0223(3) 0.8969(5)
H4_3 H 0.0533 0.0338 0.9402
C14_3 C 0.0560(5) 0.0060(4) 0.8298(5)
C15_3 C 0.1260(5) 0.0033(4) 0.8052(5)
C28_3 C 0.0290(4) 0.4777(3) 0.8969(5)
H14_3 H 0.0533 0.4662 0.9402
C29_3 C 0.0560(5) 0.4940(4) 0.8298(5)
C30_3 C 0.1260(5) 0.4967(4) 0.8052(5)
C7_3 C 0.7324(4) 0.1199(4) 0.7940(5)
C8_3 C 0.7253(4) 0.1895(4) 0.8145(5)
C9_3 C 0.6983(4) 0.2161(4) 0.8777(5)
H2_3 H 0.6813 0.1911 0.9177
C10_3 C 0.8634(5) 0.0021(4) 0.7981(5)
C11_3 C 0.9327(5) 0.0044(4) 0.8241(5)
C12_3 C 0.9583(5) 0.0200(3) 0.8938(5)
H3_3 H 0.9317 0.0286 0.9362
O3_3 O 0.7096(3) 0.0773(3) 0.8400(3)
O4_3 O 0.7567(3) 0.1067(2) 0.7296(3)
O6_3 O 0.8540(3) 0.0060(3) 0.7269(3)
N4_3 N 0.7558(5) 0.0201(4) 0.9971(4)
H6_3 H 0.7676 0.0381 0.9546
S2_3 S 0.74952(17) 0.2500 0.75244(19)
C19_3 C 0.7324(4) 0.3801(4) 0.7940(5)
C20_3 C 0.7253(4) 0.3105(4) 0.8145(5)
C21_3 C 0.6983(4) 0.2839(4) 0.8777(5)
H12_3 H 0.6813 0.3089 0.9177
O11_2 O 0.7096(3) 0.4227(3) 0.8400(3)
O12_2 O 0.7567(3) 0.3933(2) 0.7296(3)
N13_2 N 0.8070(4) 0.0565(3) 0.5658(4)
C2_3 C 0.6510(4) 0.8915(4) 0.0624(5)
N3_2 N 0.6930(4) 0.9435(3) 0.0658(4)
N5_3 N 0.6338(4) 0.8620(3) 0.1283(4)
H7_3 H 0.6077 0.8285 0.1277
H8_3 H 0.6490 0.8766 0.1711
C23_3 C 0.6510(4) 0.6085(4) 0.0624(5)
N9_2 N 0.6930(4) 0.5565(3) 0.0658(4)
H15_2 H 0.7729 0.4666 0.0395
N11_3 N 0.6338(4) 0.6380(3) 0.1283(4)
H17_3 H 0.6077 0.6715 0.1277
H18_3 H 0.6490 0.6234 0.1711
C1_3 C 0.6461(4) 0.8933(4) 0.9344(5)
C3_3 C 0.7088(5) 0.9691(4) 0.9973(4)
C4_3 C 0.7552(4) 0.8801(4) 0.7028(5)
C5_3 C 0.7548(4) 0.8107(4) 0.6815(5)
C6_3 C 0.7653(4) 0.7852(4) 0.6092(5)
H1_3 H 0.7717 0.8108 0.5656
O1_3 O 0.7441(3) 0.8923(2) 0.7722(4)
O2_3 O 0.7623(3) 0.9237(2) 0.6520(3)
O5_3 O 0.8192(3) 0.9949(3) 0.8484(4)
N1_3 N 0.6869(4) 0.9442(3) 0.9300(4)
N2_3 N 0.6256(4) 0.8660(4) 0.9983(3)
N6_3 N 0.6210(4) 0.8686(4) 0.8701(4)
H9_3 H 0.5932 0.8365 0.8720
H10_3 H 0.6327 0.8846 0.8265
S1_3 S 0.99633(10) 0.99259(11) 0.76032(15)
S3_3 S 0.74660(18) 0.7500 0.74782(19)
C16_3 C 0.7552(4) 0.6199(4) 0.7028(5)
C17_3 C 0.7548(4) 0.6893(4) 0.6815(5)
C18_3 C 0.7653(4) 0.7148(4) 0.6092(5)
H11_3 H 0.7717 0.6892 0.5656
O9_3 O 0.7441(3) 0.6077(2) 0.7722(4)
O10_3 O 0.7623(3) 0.5763(2) 0.6520(3)
C22_3 C 0.6461(4) 0.6067(4) 0.9344(5)
C24_3 C 0.7088(5) 0.5309(4) 0.9973(4)
C25_3 C 0.8634(5) 0.4979(4) 0.7981(5)
C26_3 C 0.9327(5) 0.4956(4) 0.8241(5)
C27_3 C 0.9583(5) 0.4800(3) 0.8938(5)
H13_3 H 0.9317 0.4714 0.9362
O13_3 O 0.8192(3) 0.5051(3) 0.8484(4)
O14_3 O 0.8540(3) 0.4940(3) 0.7269(3)
N7_3 N 0.6869(4) 0.5558(3) 0.9300(4)
N8_3 N 0.6256(4) 0.6340(4) 0.9983(3)
N10_3 N 0.7558(5) 0.4799(4) 0.9971(4)
H16_3 H 0.7676 0.4619 0.9546
N12_3 N 0.6210(4) 0.6314(4) 0.8701(4)
H19_3 H 0.5932 0.6635 0.8720
H20_3 H 0.6327 0.6154 0.8265
S4_3 S 0.99633(10) 0.50741(11) 0.76032(15)
N14_2 N 0.8070(4) 0.4435(3) 0.5658(4)
C1_4 C 0.8539(4) 0.1067(4) 0.4344(5)
C2_4 C 0.8490(4) 0.1085(4) 0.5624(5)
C3_4 C 0.7912(5) 0.0309(4) 0.4973(4)
C4_4 C 0.7448(4) 0.1199(4) 0.2028(5)
C5_4 C 0.7452(4) 0.1893(4) 0.1815(5)
C6_4 C 0.7347(4) 0.2148(4) 0.1092(5)
H1_4 H 0.7283 0.1892 0.0656
O1_4 O 0.7559(3) 0.1077(2) 0.2722(4)
O2_4 O 0.7377(3) 0.0763(2) 0.1520(3)
O5_4 O 0.6808(3) 0.0051(3) 0.3484(4)
N1_4 N 0.8131(4) 0.0558(3) 0.4300(4)
N2_4 N 0.8744(4) 0.1340(4) 0.4983(3)
N5_4 N 0.8662(4) 0.1380(3) 0.6283(4)
H7_4 H 0.8923 0.1715 0.6277
H8_4 H 0.8510 0.1234 0.6711
N6_4 N 0.8790(4) 0.1314(4) 0.3701(4)
H9_4 H 0.9068 0.1635 0.3720
H10_4 H 0.8673 0.1154 0.3265
S1_4 S 0.50367(10) 0.00741(11) 0.26032(15)
S3_4 S 0.75340(18) 0.2500 0.24782(19)
C16_4 C 0.7448(4) 0.3801(4) 0.2028(5)
C17_4 C 0.7452(4) 0.3107(4) 0.1815(5)
C18_4 C 0.7347(4) 0.2852(4) 0.1092(5)
H11_4 H 0.7283 0.3108 0.0656
O9_4 O 0.7559(3) 0.3923(2) 0.2722(4)
O10_4 O 0.7377(3) 0.4237(2) 0.1520(3)
C22_4 C 0.8539(4) 0.3933(4) 0.4344(5)
C23_4 C 0.8490(4) 0.3915(4) 0.5624(5)
C24_4 C 0.7912(5) 0.4691(4) 0.4973(4)
C25_4 C 0.6366(5) 0.5021(4) 0.2981(5)
C26_4 C 0.5673(5) 0.5044(4) 0.3241(5)
C27_4 C 0.5417(5) 0.5200(3) 0.3938(5)
H13_4 H 0.5683 0.5286 0.4362
C28_4 C 0.4710(4) 0.5223(3) 0.3969(5)
H14_4 H 0.4467 0.5338 0.4402
C29_4 C 0.4440(5) 0.5060(4) 0.3298(5)
C30_4 C 0.3740(5) 0.5033(4) 0.3052(5)
O13_4 O 0.6808(3) 0.4949(3) 0.3484(4)
O14_4 O 0.6460(3) 0.5060(3) 0.2269(3)
N7_4 N 0.8131(4) 0.4442(3) 0.4300(4)
N8_4 N 0.8744(4) 0.3660(4) 0.4983(3)
N10_4 N 0.7442(5) 0.5201(4) 0.4971(4)
H15_3 H 0.7271 0.5334 0.5395
H16_4 H 0.7324 0.5381 0.4546
N11_4 N 0.8662(4) 0.3620(3) 0.6283(4)
H17_4 H 0.8923 0.3285 0.6277
H18_4 H 0.8510 0.3766 0.6711
N12_4 N 0.8790(4) 0.3686(4) 0.3701(4)
H19_4 H 0.9068 0.3365 0.3720
H20_4 H 0.8673 0.3846 0.3265
S4_4 S 0.50367(10) 0.49259(11) 0.26032(15)
O17_2 O 0.7904(3) 0.5773(3) 0.3400(3)
O18_2 O 0.7433(3) 0.6067(2) 0.2296(3)
C7_4 C 0.7676(4) 0.8801(4) 0.2940(5)
C8_4 C 0.7747(4) 0.8105(4) 0.3145(5)
C9_4 C 0.8017(4) 0.7839(4) 0.3777(5)
H2_4 H 0.8187 0.8089 0.4177
C10_4 C 0.6366(5) 0.9979(4) 0.2981(5)
C11_4 C 0.5673(5) 0.9956(4) 0.3241(5)
C12_4 C 0.5417(5) 0.9800(3) 0.3938(5)
H3_4 H 0.5683 0.9714 0.4362
C13_4 C 0.4710(4) 0.9777(3) 0.3969(5)
H4_4 H 0.4467 0.9662 0.4402
C14_4 C 0.4440(5) 0.9940(4) 0.3298(5)
C15_4 C 0.3740(5) 0.9967(4) 0.3052(5)
O3_4 O 0.7904(3) 0.9227(3) 0.3400(3)
O4_4 O 0.7433(3) 0.8933(2) 0.2296(3)
O6_4 O 0.6460(3) 0.9940(3) 0.2269(3)
N4_4 N 0.7442(5) 0.9799(4) 0.4971(4)
H5_3 H 0.7271 0.9666 0.5395
H6_4 H 0.7324 0.9619 0.4546
S2_4 S 0.75048(17) 0.7500 0.25244(19)
C19_4 C 0.7676(4) 0.6199(4) 0.2940(5)
C20_4 C 0.7747(4) 0.6895(4) 0.3145(5)
C21_4 C 0.8017(4) 0.7161(4) 0.3777(5)
H12_4 H 0.8187 0.6911 0.4177
H15_4 H 0.2271 0.9666 0.9605
H5_4 H 0.7729 0.0334 0.0395
loop_
_geom_bond_atom_site_label_1
_geom_bond_atom_site_label_2
_geom_bond_site_symmetry_1
_geom_bond_site_symmetry_2
Zn1 O2 1_555 1_555
Zn2 O1 1_555 1_555
C1 N1 1_555 1_555
C3 N1 1_555 1_555
C4 C5 1_555 1_555
C5 C6 1_555 1_555
C6 H1 1_555 1_555
C7 C8 1_555 1_555
C8 C9 1_555 1_555
C9 H2 1_555 1_555
C10 C11 1_555 1_555
C11 C12 1_555 1_555
C12 H3 1_555 1_555
O1 C4 1_555 1_555
O2 C4 1_555 1_555
O3 Zn2 1_555 1_555
O4 Zn1 1_555 1_555
O5 Zn2 1_555 1_555
O6 Zn1 1_555 1_555
N1 Zn2 1_555 1_555
N2 C1 1_555 1_555
N4 C3 1_555 1_555
H6 N4 1_555 1_555
N6 C1 1_555 1_555
H9 N6 1_555 1_555
H10 N6 1_555 1_555
S1 C11 1_555 1_555
S2 C8 1_555 1_555
S3 C5 1_555 1_555
C16 C17 1_555 1_555
C17 S3 1_555 1_555
C18 C6 1_555 1_555
H11 C18 1_555 1_555
O9 C16 1_555 1_555
O10 C16 1_555 1_555
C19 C20 1_555 1_555
C20 S2 1_555 1_555
C21 C9 1_555 1_555
H12 C21 1_555 1_555
O11 C19 1_555 1_555
O12 C19 1_555 1_555
Zn12 O9 1_555 1_555
C22 N7 1_555 1_555
C24 N7 1_555 1_555
O13 Zn12 1_555 1_555
N7 Zn12 1_555 1_555
N8 C22 1_555 1_555
N12 C22 1_555 1_555
H19 N12 1_555 1_555
H20 N12 1_555 1_555
Zn8 O12 1_555 1_555
O19 Zn12 1_555 1_555
O20 Zn2 1_555 1_555
O22 Zn1 1_555 1_555
N13 Zn1 1_555 1_555
C7 O3 1_555 1_555
C7 O4 1_555 1_555
C10 O5 1_555 1_555
C10 O6 1_555 1_555
C17 C18 1_555 1_555
C20 C21 1_555 1_555
N3 C2 1_555 1_555
N5 C2 1_555 1_555
H7 N5 1_555 1_555
H8 N5 1_555 1_555
N9 C23 1_555 1_555
N11 C23 1_555 1_555
H17 N11 1_555 1_555
H18 N11 1_555 1_555
Zn5 N3 1_555 1_555
Zn9 N9 1_555 1_555
C25 C26 1_555 1_555
C26 C27 1_555 1_555
C27 H13 1_555 1_555
O14 Zn8 1_555 1_555
H16 N10 1_555 1_555
O21 Zn8 1_555 1_555
N14 Zn8 1_555 1_555
C25 O14 1_555 1_555
H4 C13 1_555 1_555
C14 C13 1_555 1_555
C15 C14 1_555 1_555
O7 C15 1_555 1_555
O8 C15 1_555 1_555
Zn7 O8 1_555 1_555
Zn10 O15 1_555 1_555
Zn11 O7 1_555 1_555
H14 C28 1_555 1_555
C29 C28 1_555 1_555
C30 C29 1_555 1_555
O16 C30 1_555 1_555
Zn6 O16 1_555 1_555
C25_2 C26_2 1_555 1_555
C26_2 C27_2 1_555 1_555
C27_2 H13_2 1_555 1_555
C28_2 C27_2 1_555 1_555
H14_2 C28_2 1_555 1_555
C29_2 C28_2 1_555 1_555
C30_2 C29_2 1_555 1_555
O14_2 Zn9 1_555 1_555
O16_2 C30_2 1_555 1_555
H15 N10_2 1_555 1_555
H16_2 N10_2 1_555 1_555
Zn6_2 O16_2 1_555 1_555
O18 Zn9 1_555 1_555
O21_2 Zn9 1_555 1_555
C25_2 O14_2 1_555 1_555
Zn5 O2_2 1_555 1_555
Zn2_2 O1_2 1_555 1_555
C1_2 N1_2 1_555 1_555
C2_2 N2_2 1_555 1_555
C3_2 N1_2 1_555 1_555
C4_2 C5_2 1_555 1_555
C5_2 C6_2 1_555 1_555
C6_2 H1_2 1_555 1_555
C7_2 C8_2 1_555 1_555
C8_2 C9_2 1_555 1_555
C9_2 H2_2 1_555 1_555
C10_2 C11_2 1_555 1_555
C11_2 C12_2 1_555 1_555
C12_2 H3_2 1_555 1_555
C13_2 C12_2 1_555 1_555
H4_2 C13_2 1_555 1_555
C14_2 C13_2 1_555 1_555
C15_2 C14_2 1_555 1_555
O1_2 C4_2 1_555 1_555
O2_2 C4_2 1_555 1_555
O3_2 Zn2_2 1_555 1_555
O4_2 Zn5 1_555 1_555
O5_2 Zn2_2 1_555 1_555
O6_2 Zn5 1_555 1_555
O7_2 C15_2 1_555 1_555
O8_2 C15_2 1_555 1_555
N1_2 Zn2_2 1_555 1_555
N2_2 C1_2 1_555 1_555
N13 C2_2 1_555 1_555
N4_2 C3_2 1_555 1_555
H5_2 N4_2 1_555 1_555
H6_2 N4_2 1_555 1_555
N5_2 C2_2 1_555 1_555
H7_2 N5_2 1_555 1_555
H8_2 N5_2 1_555 1_555
N6_2 C1_2 1_555 1_555
H9_2 N6_2 1_555 1_555
H10_2 N6_2 1_555 1_555
S1_2 C11_2 1_555 1_555
S2_2 C8_2 1_555 1_555
S3_2 C5_2 1_555 1_555
C16_2 C17_2 1_555 1_555
C17_2 S3_2 1_555 1_555
C18_2 C6_2 1_555 1_555
H11_2 C18_2 1_555 1_555
O9_2 C16_2 1_555 1_555
O10_2 C16_2 1_555 1_555
C19_2 C20_2 1_555 1_555
C20_2 S2_2 1_555 1_555
C21_2 C9_2 1_555 1_555
H12_2 C21_2 1_555 1_555
O17 C19_2 1_555 1_555
O18 C19_2 1_555 1_555
Zn4 O9_2 1_555 1_555
C22_2 N7_2 1_555 1_555
C23_2 N8_2 1_555 1_555
C24_2 N7_2 1_555 1_555
O13_2 Zn4 1_555 1_555
N7_2 Zn4 1_555 1_555
N8_2 C22_2 1_555 1_555
N14 C23_2 1_555 1_555
N11_2 C23_2 1_555 1_555
H17_2 N11_2 1_555 1_555
H18_2 N11_2 1_555 1_555
N12_2 C22_2 1_555 1_555
H19_2 N12_2 1_555 1_555
H20_2 N12_2 1_555 1_555
Zn7_2 O8_2 1_555 1_555
Zn10_2 O15_2 1_555 1_555
Zn11_2 O7_2 1_555 1_555
O19_2 Zn4 1_555 1_555
O20_2 Zn2_2 1_555 1_555
O22_2 Zn5 1_555 1_555
C3_2 N13 1_555 1_555
C7_2 O3_2 1_555 1_555
C7_2 O4_2 1_555 1_555
C10_2 O5_2 1_555 1_555
C10_2 O6_2 1_555 1_555
C14_2 S1_2 1_555 1_555
C17_2 C18_2 1_555 1_555
C20_2 C21_2 1_555 1_555
C24_2 N14 1_555 1_555
H4_3 C13_3 1_555 1_555
C14_3 C13_3 1_555 1_555
C15_3 C14_3 1_555 1_555
O21_2 C15_3 1_555 1_555
H14_3 C28_3 1_555 1_555
C29_3 C28_3 1_555 1_555
C30_3 C29_3 1_555 1_555
O20_2 C30_3 1_555 1_555
O22_2 C30_3 1_555 1_555
C7_3 C8_3 1_555 1_555
C8_3 C9_3 1_555 1_555
C9_3 H2_3 1_555 1_555
C10_3 C11_3 1_555 1_555
C11_3 C12_3 1_555 1_555
C12_3 H3_3 1_555 1_555
O4_3 Zn6_2 1_555 1_555
O6_3 Zn6_2 1_555 1_555
H6_3 N4_3 1_555 1_555
S2_3 C8_3 1_555 1_555
C19_3 C20_3 1_555 1_555
C20_3 S2_3 1_555 1_555
C21_3 C9_3 1_555 1_555
H12_3 C21_3 1_555 1_555
O11_2 C19_3 1_555 1_555
O12_2 C19_3 1_555 1_555
Zn7_2 O12_2 1_555 1_555
Zn11_2 O11_2 1_555 1_555
N13_2 Zn6_2 1_555 1_555
C7_3 O3_3 1_555 1_555
C7_3 O4_3 1_555 1_555
C10_3 O6_3 1_555 1_555
C20_3 C21_3 1_555 1_555
N3_2 C2_3 1_555 1_555
N5_3 C2_3 1_555 1_555
H7_3 N5_3 1_555 1_555
H8_3 N5_3 1_555 1_555
N9_2 C23_3 1_555 1_555
N11_3 C23_3 1_555 1_555
H17_3 N11_3 1_555 1_555
H18_3 N11_3 1_555 1_555
Zn6 N3_2 1_555 1_555
Zn7 N9_2 1_555 1_555
Zn10_2 O1_3 1_555 1_555
C1_3 N1_3 1_555 1_555
C3_3 N1_3 1_555 1_555
C4_3 C5_3 1_555 1_555
C5_3 C6_3 1_555 1_555
C6_3 H1_3 1_555 1_555
O1_3 C4_3 1_555 1_555
O2_3 C4_3 1_555 1_555
O5_3 Zn10_2 1_555 1_555
N1_3 Zn10_2 1_555 1_555
N2_3 C1_3 1_555 1_555
N6_3 C1_3 1_555 1_555
H9_3 N6_3 1_555 1_555
H10_3 N6_3 1_555 1_555
S3_3 C5_3 1_555 1_555
C16_3 C17_3 1_555 1_555
C17_3 S3_3 1_555 1_555
C18_3 C6_3 1_555 1_555
H11_3 C18_3 1_555 1_555
O9_3 C16_3 1_555 1_555
O10_3 C16_3 1_555 1_555
Zn7_2 O10_3 1_555 1_555
Zn11_2 O9_3 1_555 1_555
C22_3 N7_3 1_555 1_555
C24_3 N7_3 1_555 1_555
C25_3 C26_3 1_555 1_555
C26_3 C27_3 1_555 1_555
C27_3 H13_3 1_555 1_555
O13_3 Zn11_2 1_555 1_555
O14_3 Zn7_2 1_555 1_555
N7_3 Zn11_2 1_555 1_555
N8_3 C22_3 1_555 1_555
N10_3 C24_3 1_555 1_555
H16_3 N10_3 1_555 1_555
N12_3 C22_3 1_555 1_555
H19_3 N12_3 1_555 1_555
H20_3 N12_3 1_555 1_555
S4_3 C26_3 1_555 1_555
N14_2 Zn7_2 1_555 1_555
C17_3 C18_3 1_555 1_555
C25_3 O13_3 1_555 1_555
C25_3 O14_3 1_555 1_555
Zn10 O1_4 1_555 1_555
C1_4 N1_4 1_555 1_555
C2_4 N2_4 1_555 1_555
C3_4 N1_4 1_555 1_555
C4_4 C5_4 1_555 1_555
C5_4 C6_4 1_555 1_555
C6_4 H1_4 1_555 1_555
O1_4 C4_4 1_555 1_555
O2_4 C4_4 1_555 1_555
O5_4 Zn10 1_555 1_555
N1_4 Zn10 1_555 1_555
N2_4 C1_4 1_555 1_555
N13_2 C2_4 1_555 1_555
N5_4 C2_4 1_555 1_555
H7_4 N5_4 1_555 1_555
H8_4 N5_4 1_555 1_555
N6_4 C1_4 1_555 1_555
H9_4 N6_4 1_555 1_555
H10_4 N6_4 1_555 1_555
S3_4 C5_4 1_555 1_555
C16_4 C17_4 1_555 1_555
C17_4 S3_4 1_555 1_555
C18_4 C6_4 1_555 1_555
H11_4 C18_4 1_555 1_555
O9_4 C16_4 1_555 1_555
O10_4 C16_4 1_555 1_555
Zn7 O10_4 1_555 1_555
Zn11 O9_4 1_555 1_555
C22_4 N7_4 1_555 1_555
C23_4 N8_4 1_555 1_555
C24_4 N7_4 1_555 1_555
C25_4 C26_4 1_555 1_555
C26_4 C27_4 1_555 1_555
C27_4 H13_4 1_555 1_555
C28_4 C27_4 1_555 1_555
H14_4 C28_4 1_555 1_555
C29_4 C28_4 1_555 1_555
C30_4 C29_4 1_555 1_555
O13_4 Zn11 1_555 1_555
O14_4 Zn7 1_555 1_555
O20 C30_4 1_555 1_555
O22 C30_4 1_555 1_555
N7_4 Zn11 1_555 1_555
N8_4 C22_4 1_555 1_555
N14_2 C23_4 1_555 1_555
N10_4 C24_4 1_555 1_555
H15_3 N10_4 1_555 1_555
H16_4 N10_4 1_555 1_555
N11_4 C23_4 1_555 1_555
H17_4 N11_4 1_555 1_555
H18_4 N11_4 1_555 1_555
N12_4 C22_4 1_555 1_555
H19_4 N12_4 1_555 1_555
H20_4 N12_4 1_555 1_555
S4_4 C26_4 1_555 1_555
O17_2 Zn11 1_555 1_555
O18_2 Zn7 1_555 1_555
C3_4 N13_2 1_555 1_555
C17_4 C18_4 1_555 1_555
C24_4 N14_2 1_555 1_555
C25_4 O13_4 1_555 1_555
C25_4 O14_4 1_555 1_555
C29_4 S4_4 1_555 1_555
C7_4 C8_4 1_555 1_555
C8_4 C9_4 1_555 1_555
C9_4 H2_4 1_555 1_555
C10_4 C11_4 1_555 1_555
C11_4 C12_4 1_555 1_555
C12_4 H3_4 1_555 1_555
C13_4 C12_4 1_555 1_555
H4_4 C13_4 1_555 1_555
C14_4 C13_4 1_555 1_555
C15_4 C14_4 1_555 1_555
O4_4 Zn6 1_555 1_555
O6_4 Zn6 1_555 1_555
O21 C15_4 1_555 1_555
H5_3 N4_4 1_555 1_555
H6_4 N4_4 1_555 1_555
S2_4 C8_4 1_555 1_555
C19_4 C20_4 1_555 1_555
C20_4 S2_4 1_555 1_555
C21_4 C9_4 1_555 1_555
H12_4 C21_4 1_555 1_555
O17_2 C19_4 1_555 1_555
O18_2 C19_4 1_555 1_555
C7_4 O3_4 1_555 1_555
C7_4 O4_4 1_555 1_555
C10_4 O6_4 1_555 1_555
C20_4 C21_4 1_555 1_555

#END
