
###############################################################################
#
# This file contains modified crystal structure data generated from the
# MOF subset of the Cambridge Structural Database (CSD) v543 
# hosted by the Cambridge Crystallographic Data Centre (CCDC).
#
# This work is licensed under the Creative Commons
# Attribution-NonCommercial-ShareAlike 4.0 International License.
# To view a copy of this license, visit
# http://creativecommons.org/licenses/by-nc-sa/4.0/
# or send a letter to
# Creative Commons, PO Box 1866, Mountain View, CA 94042, USA.
#
# CIF created using the CSD Python API on 29 September 2022
# The structure has been converted into the P1 space group
# The structure has a 3D framework
# The original CSD entry CABNUS is in the orthorhombic crystal system
# The framework has been calculated to contain at least 10.0% void space
# The void calculation uses a probe of radius 1.32A, grid spacing 0.4
#
###############################################################################

data_CABNUS
_chemical_formula_moiety         '(C160 H160 N16 O32 Zn8)n'
_symmetry_cell_setting           triclinic
_symmetry_space_group_name_H-M   'P 1'
_symmetry_Int_Tables_number      1
_space_group_name_Hall           'P 1'
loop_
_symmetry_equiv_pos_site_id
_symmetry_equiv_pos_as_xyz
1 x,y,z
_cell_length_a                   25.1315(6)
_cell_length_b                   11.8428(3)
_cell_length_c                   15.9866(3)
_cell_angle_alpha                90
_cell_angle_beta                 90
_cell_angle_gamma                90
_cell_volume                     4758.05
loop_
_atom_site_label
_atom_site_type_symbol
_atom_site_fract_x
_atom_site_fract_y
_atom_site_fract_z
H15 H 0.1012 0.0441 0.0641
H20 H 0.0299 0.1111 0.0081
O7 O 0.39391(12) 0.1855(2) 0.33878(16)
O8 O 0.42757(11) 0.0165(2) 0.31679(16)
C22 C 0.36334(19) 0.0437(4) 0.4299(2)
H22 H 0.3257 0.0612 0.4146
C23 C 0.3756(2) 0.1076(4) 0.5092(3)
H23 H 0.3477 0.0920 0.5513
H24 H 0.3755 0.1897 0.4975
C24 C 0.4298(3) 0.0735(5) 0.5443(3)
H25 H 0.4581 0.0929 0.5037
H26 H 0.4368 0.1152 0.5968
C28 C 0.39855(15) 0.0816(3) 0.3561(2)
Zn5 Zn 0.43610(3) 0.2500 0.2500
Zn1 Zn 0.29950(3) 0.7500 0.2500
N1 N 0.24428(11) 0.8265(2) 0.17188(18)
O1 O 0.31439(10) 0.6085(2) 0.17750(16)
O2 O 0.36626(11) 0.7506(2) 0.14627(19)
O3 O 0.39391(12) 0.3145(2) 0.16122(16)
O4 O 0.42757(11) 0.4835(2) 0.18321(16)
C1 C 0.36693(18) 0.5843(4) 0.0564(2)
H1 H 0.3394 0.6012 0.0130
C2 C 0.36334(19) 0.4563(4) 0.0701(2)
H2 H 0.3257 0.4388 0.0854
H4 H 0.3755 0.3103 0.0025
C6 C 0.4184(2) 0.6213(4) 0.0180(3)
H9 H 0.4475 0.6108 0.0589
H10 H 0.4163 0.7026 0.0039
C7 C 0.35025(14) 0.6523(3) 0.1322(2)
C8 C 0.39855(15) 0.4184(3) 0.1439(2)
C9 C 0.24235(16) 0.8136(4) 0.0889(2)
H11 H 0.2683 0.7672 0.0627
C10 C 0.20415(18) 0.8650(4) 0.0397(3)
C11 C 0.16574(14) 0.9348(3) 0.0787(3)
C12 C 0.16843(16) 0.9471(3) 0.1631(3)
H13 H 0.1433 0.9931 0.1915
C13 C 0.20752(15) 0.8928(3) 0.2070(3)
H14 H 0.2086 0.9028 0.2659
C14 C 0.12329(16) 0.9941(3) 0.0332(3)
N3 N 0.24428(11) 0.6735(2) 0.32812(18)
O5 O 0.31439(10) 0.8915(2) 0.32250(16)
O6 O 0.36626(11) 0.7494(2) 0.35373(19)
C21 C 0.36693(18) 0.9157(4) 0.4436(2)
H21 H 0.3394 0.8988 0.4870
C25 C 0.4306(3) 0.9467(6) 0.5614(3)
H27 H 0.4038 0.9285 0.6048
H28 H 0.4660 0.9247 0.5830
C26 C 0.4184(2) 0.8787(4) 0.4820(3)
H29 H 0.4475 0.8892 0.4411
H30 H 0.4163 0.7974 0.4961
C27 C 0.35025(14) 0.8477(3) 0.3678(2)
C29 C 0.24235(16) 0.6864(4) 0.4111(2)
H31 H 0.2683 0.7328 0.4373
C30 C 0.20415(18) 0.6350(4) 0.4603(3)
H32 H 0.2037 0.6463 0.5191
C31 C 0.16574(14) 0.5652(3) 0.4213(3)
C32 C 0.16843(16) 0.5529(3) 0.3369(3)
H33 H 0.1433 0.5069 0.3085
C33 C 0.20752(15) 0.6072(3) 0.2930(3)
H34 H 0.2086 0.5972 0.2341
C34 C 0.12329(16) 0.5059(3) 0.4668(3)
H35 H 0.1012 0.4559 0.4359
C35 C 0.11374(16) 0.5171(3) 0.5469(2)
H36 H 0.1356 0.5668 0.5785
C36 C 0.06945(15) 0.4544(3) 0.5918(2)
C37 C 0.06775(16) 0.4581(4) 0.6767(3)
H37 H 0.0938 0.4994 0.7070
C38 C 0.02801(16) 0.4015(3) 0.7181(2)
H38 H 0.0275 0.4059 0.7775
C40 C 0.03009(17) 0.3930(3) 0.5513(2)
H40 H 0.0299 0.3889 0.4919
Zn2 Zn 0.93610(3) 0.2500 0.7500
N2 N 0.98992(12) 0.1596(2) 0.81927(16)
C19 C 0.99101(16) 0.1624(3) 0.9029(2)
H19 H 0.9643 0.2035 0.9319
N5 N 0.98992(12) 0.3404(2) 0.68073(16)
O9 O 0.89391(12) 0.3145(2) 0.83878(16)
O10 O 0.89391(12) 0.1855(2) 0.66122(16)
C39 C 0.99101(16) 0.3376(3) 0.5971(2)
H39 H 0.9643 0.2965 0.5681
N2_2 N 0.48992(12) 0.1596(2) 0.18073(16)
C16 C 0.56945(15) 0.0456(3) 0.0918(2)
C17 C 0.56775(16) 0.0419(4) 0.1767(3)
H17 H 0.5938 0.0006 0.2070
C18 C 0.52801(16) 0.0985(3) 0.2181(2)
H18 H 0.5275 0.0941 0.2775
C19_2 C 0.49101(16) 0.1624(3) 0.0971(2)
H19_2 H 0.4643 0.2035 0.0681
C20 C 0.53009(17) 0.1070(3) 0.0513(2)
N5_2 N 0.48992(12) 0.3404(2) 0.31927(16)
H15_2 H 0.6012 0.0441 0.9359
H20_2 H 0.5299 0.1111 0.9919
O8_2 O 0.92757(11) 0.0165(2) 0.68321(16)
C22_2 C 0.86334(19) 0.0437(4) 0.5701(2)
H22_2 H 0.8257 0.0612 0.5854
C23_2 C 0.8756(2) 0.1076(4) 0.4908(3)
H23_2 H 0.8477 0.0920 0.4487
H24_2 H 0.8755 0.1897 0.5025
C24_2 C 0.9298(3) 0.0735(5) 0.4557(3)
H25_2 H 0.9581 0.0929 0.4963
H26_2 H 0.9368 0.1152 0.4032
C28_2 C 0.89855(15) 0.0816(3) 0.6439(2)
Zn1_2 Zn 0.79950(3) 0.7500 0.7500
N1_2 N 0.74428(11) 0.8265(2) 0.82812(18)
O1_2 O 0.81439(10) 0.6085(2) 0.82250(16)
O2_2 O 0.86626(11) 0.7506(2) 0.85373(19)
O4_2 O 0.92757(11) 0.4835(2) 0.81679(16)
C1_2 C 0.86693(18) 0.5843(4) 0.9436(2)
H1_2 H 0.8394 0.6012 0.9870
C2_2 C 0.86334(19) 0.4563(4) 0.9299(2)
H2_2 H 0.8257 0.4388 0.9146
H4_2 H 0.8755 0.3103 0.9975
C6_2 C 0.9184(2) 0.6213(4) 0.9820(3)
H9_2 H 0.9475 0.6108 0.9411
H10_2 H 0.9163 0.7026 0.9961
C7_2 C 0.85025(14) 0.6523(3) 0.8678(2)
C8_2 C 0.89855(15) 0.4184(3) 0.8561(2)
C9_2 C 0.74235(16) 0.8136(4) 0.9111(2)
H11_2 H 0.7683 0.7672 0.9373
C10_2 C 0.70415(18) 0.8650(4) 0.9603(3)
C11_2 C 0.66574(14) 0.9348(3) 0.9213(3)
C12_2 C 0.66843(16) 0.9471(3) 0.8369(3)
H13_2 H 0.6433 0.9931 0.8085
C13_2 C 0.70752(15) 0.8928(3) 0.7930(3)
H14_2 H 0.7086 0.9028 0.7341
C14_2 C 0.62329(16) 0.9941(3) 0.9668(3)
N3_2 N 0.74428(11) 0.6735(2) 0.67188(18)
O5_2 O 0.81439(10) 0.8915(2) 0.67750(16)
O6_2 O 0.86626(11) 0.7494(2) 0.64627(19)
C21_2 C 0.86693(18) 0.9157(4) 0.5564(2)
H21_2 H 0.8394 0.8988 0.5130
C25_2 C 0.9306(3) 0.9467(6) 0.4386(3)
H27_2 H 0.9038 0.9285 0.3952
H28_2 H 0.9660 0.9247 0.4170
C26_2 C 0.9184(2) 0.8787(4) 0.5180(3)
H29_2 H 0.9475 0.8892 0.5589
H30_2 H 0.9163 0.7974 0.5039
C27_2 C 0.85025(14) 0.8477(3) 0.6322(2)
C29_2 C 0.74235(16) 0.6864(4) 0.5889(2)
H31_2 H 0.7683 0.7328 0.5627
C30_2 C 0.70415(18) 0.6350(4) 0.5397(3)
H32_2 H 0.7037 0.6463 0.4809
C31_2 C 0.66574(14) 0.5652(3) 0.5787(3)
C32_2 C 0.66843(16) 0.5529(3) 0.6631(3)
H33_2 H 0.6433 0.5069 0.6915
C33_2 C 0.70752(15) 0.6072(3) 0.7070(3)
H34_2 H 0.7086 0.5972 0.7659
C34_2 C 0.62329(16) 0.5059(3) 0.5332(3)
H35_2 H 0.6012 0.4559 0.5641
C35_2 C 0.61374(16) 0.5171(3) 0.4531(2)
H36_2 H 0.6356 0.5668 0.4215
C36_2 C 0.56945(15) 0.4544(3) 0.4082(2)
C37_2 C 0.56775(16) 0.4581(4) 0.3233(3)
H37_2 H 0.5938 0.4994 0.2930
C38_2 C 0.52801(16) 0.4015(3) 0.2819(2)
H38_2 H 0.5275 0.4059 0.2225
C39_2 C 0.49101(16) 0.3376(3) 0.4029(2)
H39_2 H 0.4643 0.2965 0.4319
C40_2 C 0.53009(17) 0.3930(3) 0.4487(2)
H40_2 H 0.5299 0.3889 0.5081
C16_2 C 0.06945(15) 0.0456(3) 0.9082(2)
C17_2 C 0.06775(16) 0.0419(4) 0.8233(3)
H17_2 H 0.0938 0.0006 0.7930
C18_2 C 0.02801(16) 0.0985(3) 0.7819(2)
H18_2 H 0.0275 0.0941 0.7225
C20_2 C 0.03009(17) 0.1070(3) 0.9487(2)
C3 C 0.3756(2) 0.3924(4) 0.9908(3)
H3 H 0.3477 0.4080 0.9487
C4 C 0.4298(3) 0.4265(5) 0.9557(3)
H5 H 0.4581 0.4071 0.9963
H6 H 0.4368 0.3848 0.9032
C5 C 0.4306(3) 0.5533(6) 0.9386(3)
H7 H 0.4038 0.5715 0.8952
H8 H 0.4660 0.5753 0.9170
H12 H 0.2037 0.8537 0.9809
C15 C 0.11374(16) 0.9829(3) 0.9531(2)
H16 H 0.1356 0.9332 0.9215
Zn1_3 Zn 0.20050(3) 0.2500 0.2500
N1_3 N 0.25572(11) 0.1735(2) 0.17188(18)
O1_3 O 0.18561(10) 0.3915(2) 0.17750(16)
O2_3 O 0.13374(11) 0.2494(2) 0.14627(19)
O3_2 O 0.10609(12) 0.6855(2) 0.16122(16)
O4_3 O 0.07243(11) 0.5165(2) 0.18321(16)
C1_3 C 0.13307(18) 0.4157(4) 0.0564(2)
H1_3 H 0.1606 0.3988 0.0130
C2_3 C 0.13666(19) 0.5437(4) 0.0701(2)
H2_3 H 0.1743 0.5612 0.0854
H4_3 H 0.1245 0.6897 0.0025
C6_3 C 0.0816(2) 0.3787(4) 0.0180(3)
H9_3 H 0.0525 0.3892 0.0589
H10_3 H 0.0837 0.2974 0.0039
C7_3 C 0.14975(14) 0.3477(3) 0.1322(2)
C8_3 C 0.10145(15) 0.5816(3) 0.1439(2)
C9_3 C 0.25765(16) 0.1864(4) 0.0889(2)
H11_3 H 0.2317 0.2328 0.0627
C10_3 C 0.29585(18) 0.1350(4) 0.0397(3)
C11_3 C 0.33426(14) 0.0652(3) 0.0787(3)
C12_3 C 0.33157(16) 0.0529(3) 0.1631(3)
H13_3 H 0.3567 0.0069 0.1915
C13_3 C 0.29248(15) 0.1072(3) 0.2070(3)
H14_3 H 0.2914 0.0972 0.2659
C14_3 C 0.37671(16) 0.0059(3) 0.0332(3)
N3_3 N 0.25572(11) 0.3265(2) 0.32812(18)
N4 N 0.51008(12) 0.6596(2) 0.68073(16)
O5_3 O 0.18561(10) 0.1085(2) 0.32250(16)
O6_3 O 0.13374(11) 0.2506(2) 0.35373(19)
C21_3 C 0.13307(18) 0.0843(4) 0.4436(2)
H21_3 H 0.1606 0.1012 0.4870
C25_3 C 0.0694(3) 0.0533(6) 0.5614(3)
H27_3 H 0.0962 0.0715 0.6048
H28_3 H 0.0340 0.0753 0.5830
C26_3 C 0.0816(2) 0.1213(4) 0.4820(3)
H29_3 H 0.0525 0.1108 0.4411
H30_3 H 0.0837 0.2026 0.4961
C27_3 C 0.14975(14) 0.1523(3) 0.3678(2)
C29_3 C 0.25765(16) 0.3136(4) 0.4111(2)
H31_3 H 0.2317 0.2672 0.4373
C30_3 C 0.29585(18) 0.3650(4) 0.4603(3)
H32_3 H 0.2963 0.3537 0.5191
C31_3 C 0.33426(14) 0.4348(3) 0.4213(3)
C32_3 C 0.33157(16) 0.4471(3) 0.3369(3)
H33_3 H 0.3567 0.4931 0.3085
C33_3 C 0.29248(15) 0.3928(3) 0.2930(3)
H34_3 H 0.2914 0.4028 0.2341
C34_3 C 0.37671(16) 0.4941(3) 0.4668(3)
H35_3 H 0.3988 0.5441 0.4359
C35_3 C 0.38626(16) 0.4829(3) 0.5469(2)
H36_3 H 0.3644 0.4332 0.5785
C36_3 C 0.43055(15) 0.5456(3) 0.5918(2)
C37_3 C 0.43225(16) 0.5419(4) 0.6767(3)
H37_3 H 0.4062 0.5006 0.7070
C38_3 C 0.47199(16) 0.5985(3) 0.7181(2)
H38_3 H 0.4725 0.5941 0.7775
C39_3 C 0.50899(16) 0.6624(3) 0.5971(2)
H39_3 H 0.5357 0.7035 0.5681
C40_3 C 0.46991(17) 0.6070(3) 0.5513(2)
H40_3 H 0.4701 0.6111 0.4919
Zn3 Zn 0.56390(3) 0.7500 0.7500
Zn4 Zn 0.06390(3) 0.7500 0.2500
H15_3 H 0.3988 0.9559 0.0641
H20_3 H 0.4701 0.8889 0.0081
O7_2 O 0.10609(12) 0.8145(2) 0.33878(16)
O8_3 O 0.07243(11) 0.9835(2) 0.31679(16)
C22_3 C 0.13666(19) 0.9563(4) 0.4299(2)
H22_3 H 0.1743 0.9388 0.4146
C23_3 C 0.1244(2) 0.8924(4) 0.5092(3)
H23_3 H 0.1523 0.9080 0.5513
H24_3 H 0.1245 0.8103 0.4975
C24_3 C 0.0702(3) 0.9265(5) 0.5443(3)
H25_3 H 0.0419 0.9071 0.5037
H26_3 H 0.0632 0.8848 0.5968
C28_3 C 0.10145(15) 0.9184(3) 0.3561(2)
N2_3 N 0.51008(12) 0.8404(2) 0.81927(16)
C16_3 C 0.43055(15) 0.9544(3) 0.9082(2)
C17_3 C 0.43225(16) 0.9581(4) 0.8233(3)
H17_3 H 0.4062 0.9994 0.7930
C18_3 C 0.47199(16) 0.9015(3) 0.7819(2)
H18_3 H 0.4725 0.9059 0.7225
C19_3 C 0.50899(16) 0.8376(3) 0.9029(2)
H19_3 H 0.5357 0.7965 0.9319
C20_3 C 0.46991(17) 0.8930(3) 0.9487(2)
O9_2 O 0.60609(12) 0.6855(2) 0.83878(16)
O10_2 O 0.60609(12) 0.8145(2) 0.66122(16)
N4_2 N 0.01008(12) 0.6596(2) 0.31927(16)
C39_4 C 0.00899(16) 0.6624(3) 0.4029(2)
H39_4 H 0.0357 0.7035 0.4319
N2_4 N 0.01008(12) 0.8404(2) 0.18073(16)
C19_4 C 0.00899(16) 0.8376(3) 0.0971(2)
H19_4 H 0.0357 0.7965 0.0681
Zn1_4 Zn 0.70050(3) 0.2500 0.7500
N1_4 N 0.75572(11) 0.1735(2) 0.82812(18)
O1_4 O 0.68561(10) 0.3915(2) 0.82250(16)
O2_4 O 0.63374(11) 0.2494(2) 0.85373(19)
O4_4 O 0.57243(11) 0.5165(2) 0.81679(16)
C1_4 C 0.63307(18) 0.4157(4) 0.9436(2)
H1_4 H 0.6606 0.3988 0.9870
C2_4 C 0.63666(19) 0.5437(4) 0.9299(2)
H2_4 H 0.6743 0.5612 0.9146
H4_4 H 0.6245 0.6897 0.9975
C6_4 C 0.5816(2) 0.3787(4) 0.9820(3)
H9_4 H 0.5525 0.3892 0.9411
H10_4 H 0.5837 0.2974 0.9961
C7_4 C 0.64975(14) 0.3477(3) 0.8678(2)
C8_4 C 0.60145(15) 0.5816(3) 0.8561(2)
C9_4 C 0.75765(16) 0.1864(4) 0.9111(2)
H11_4 H 0.7317 0.2328 0.9373
C10_4 C 0.79585(18) 0.1350(4) 0.9603(3)
C11_4 C 0.83426(14) 0.0652(3) 0.9213(3)
C12_4 C 0.83157(16) 0.0529(3) 0.8369(3)
H13_4 H 0.8567 0.0069 0.8085
C13_4 C 0.79248(15) 0.1072(3) 0.7930(3)
H14_4 H 0.7914 0.0972 0.7341
C14_4 C 0.87671(16) 0.0059(3) 0.9668(3)
N3_4 N 0.75572(11) 0.3265(2) 0.67188(18)
O5_4 O 0.68561(10) 0.1085(2) 0.67750(16)
O6_4 O 0.63374(11) 0.2506(2) 0.64627(19)
C21_4 C 0.63307(18) 0.0843(4) 0.5564(2)
H21_4 H 0.6606 0.1012 0.5130
C25_4 C 0.5694(3) 0.0533(6) 0.4386(3)
H27_4 H 0.5962 0.0715 0.3952
H28_4 H 0.5340 0.0753 0.4170
C26_4 C 0.5816(2) 0.1213(4) 0.5180(3)
H29_4 H 0.5525 0.1108 0.5589
H30_4 H 0.5837 0.2026 0.5039
C27_4 C 0.64975(14) 0.1523(3) 0.6322(2)
C29_4 C 0.75765(16) 0.3136(4) 0.5889(2)
H31_4 H 0.7317 0.2672 0.5627
C30_4 C 0.79585(18) 0.3650(4) 0.5397(3)
H32_4 H 0.7963 0.3537 0.4809
C31_4 C 0.83426(14) 0.4348(3) 0.5787(3)
C32_4 C 0.83157(16) 0.4471(3) 0.6631(3)
H33_4 H 0.8567 0.4931 0.6915
C33_4 C 0.79248(15) 0.3928(3) 0.7070(3)
H34_4 H 0.7914 0.4028 0.7659
C34_4 C 0.87671(16) 0.4941(3) 0.5332(3)
H35_4 H 0.8988 0.5441 0.5641
C35_4 C 0.88626(16) 0.4829(3) 0.4531(2)
H36_4 H 0.8644 0.4332 0.4215
C36_4 C 0.93055(15) 0.5456(3) 0.4082(2)
C37_4 C 0.93225(16) 0.5419(4) 0.3233(3)
H37_4 H 0.9062 0.5006 0.2930
C38_4 C 0.97199(16) 0.5985(3) 0.2819(2)
H38_4 H 0.9725 0.5941 0.2225
C40_4 C 0.96991(17) 0.6070(3) 0.4487(2)
H40_4 H 0.9701 0.6111 0.5081
H15_4 H 0.8988 0.9559 0.9359
H20_4 H 0.9701 0.8889 0.9919
O8_4 O 0.57243(11) 0.9835(2) 0.68321(16)
C22_4 C 0.63666(19) 0.9563(4) 0.5701(2)
H22_4 H 0.6743 0.9388 0.5854
C23_4 C 0.6244(2) 0.8924(4) 0.4908(3)
H23_4 H 0.6523 0.9080 0.4487
H24_4 H 0.6245 0.8103 0.5025
C24_4 C 0.5702(3) 0.9265(5) 0.4557(3)
H25_4 H 0.5419 0.9071 0.4963
H26_4 H 0.5632 0.8848 0.4032
C28_4 C 0.60145(15) 0.9184(3) 0.6439(2)
C3_2 C 0.1244(2) 0.6076(4) 0.9908(3)
H3_2 H 0.1523 0.5920 0.9487
C4_2 C 0.0702(3) 0.5735(5) 0.9557(3)
H5_2 H 0.0419 0.5929 0.9963
H6_2 H 0.0632 0.6152 0.9032
C5_2 C 0.0694(3) 0.4467(6) 0.9386(3)
H7_2 H 0.0962 0.4285 0.8952
H8_2 H 0.0340 0.4247 0.9170
H12_2 H 0.2963 0.1463 0.9809
C15_2 C 0.38626(16) 0.0171(3) 0.9531(2)
H16_2 H 0.3644 0.0668 0.9215
C3_3 C 0.6244(2) 0.6076(4) 0.0092(3)
H3_3 H 0.6523 0.5920 0.0513
C4_3 C 0.5702(3) 0.5735(5) 0.0443(3)
H5_3 H 0.5419 0.5929 0.0037
H6_3 H 0.5632 0.6152 0.0968
C5_3 C 0.5694(3) 0.4467(6) 0.0614(3)
H7_3 H 0.5962 0.4285 0.1048
H8_3 H 0.5340 0.4247 0.0830
H12_3 H 0.7963 0.1463 0.0191
C15_3 C 0.88626(16) 0.0171(3) 0.0469(2)
H16_3 H 0.8644 0.0668 0.0785
C16_4 C 0.93055(15) 0.9544(3) 0.0918(2)
C17_4 C 0.93225(16) 0.9581(4) 0.1767(3)
H17_4 H 0.9062 0.9994 0.2070
C18_4 C 0.97199(16) 0.9015(3) 0.2181(2)
H18_4 H 0.9725 0.9059 0.2775
C20_4 C 0.96991(17) 0.8930(3) 0.0513(2)
C3_4 C 0.8756(2) 0.3924(4) 0.0092(3)
H3_4 H 0.8477 0.4080 0.0513
C4_4 C 0.9298(3) 0.4265(5) 0.0443(3)
H5_4 H 0.9581 0.4071 0.0037
H6_4 H 0.9368 0.3848 0.0968
C5_4 C 0.9306(3) 0.5533(6) 0.0614(3)
H7_4 H 0.9038 0.5715 0.1048
H8_4 H 0.9660 0.5753 0.0830
H12_4 H 0.7037 0.8537 0.0191
C15_4 C 0.61374(16) 0.9829(3) 0.0469(2)
H16_4 H 0.6356 0.9332 0.0785
loop_
_geom_bond_atom_site_label_1
_geom_bond_atom_site_label_2
_geom_bond_site_symmetry_1
_geom_bond_site_symmetry_2
O7 C28 1_555 1_555
O8 C28 1_555 1_555
H22 C22 1_555 1_555
C23 C22 1_555 1_555
H23 C23 1_555 1_555
H24 C23 1_555 1_555
C24 C23 1_555 1_555
H25 C24 1_555 1_555
H26 C24 1_555 1_555
C28 C22 1_555 1_555
Zn5 O7 1_555 1_555
Zn1 N1 1_555 1_555
N1 C9 1_555 1_555
O1 Zn1 1_555 1_555
O2 Zn1 1_555 1_555
O3 C8 1_555 1_555
O4 C8 1_555 1_555
C1 H1 1_555 1_555
C2 C1 1_555 1_555
H2 C2 1_555 1_555
C6 C1 1_555 1_555
H9 C6 1_555 1_555
H10 C6 1_555 1_555
C7 O1 1_555 1_555
C8 C2 1_555 1_555
C9 H11 1_555 1_555
C10 C9 1_555 1_555
C11 C10 1_555 1_555
C12 C11 1_555 1_555
H13 C12 1_555 1_555
C13 N1 1_555 1_555
H14 C13 1_555 1_555
C14 C11 1_555 1_555
N3 Zn1 1_555 1_555
O5 Zn1 1_555 1_555
O6 Zn1 1_555 1_555
C21 H21 1_555 1_555
H27 C25 1_555 1_555
H28 C25 1_555 1_555
C26 C21 1_555 1_555
H29 C26 1_555 1_555
H30 C26 1_555 1_555
C27 O5 1_555 1_555
C29 N3 1_555 1_555
H31 C29 1_555 1_555
C30 C29 1_555 1_555
H32 C30 1_555 1_555
C31 C30 1_555 1_555
C32 C31 1_555 1_555
H33 C32 1_555 1_555
C33 N3 1_555 1_555
H34 C33 1_555 1_555
C34 C31 1_555 1_555
H35 C34 1_555 1_555
C35 C34 1_555 1_555
H36 C35 1_555 1_555
C36 C35 1_555 1_555
C37 C36 1_555 1_555
H37 C37 1_555 1_555
C38 C37 1_555 1_555
H38 C38 1_555 1_555
C40 C36 1_555 1_555
H40 C40 1_555 1_555
Zn5 O3 1_555 1_555
O2 C7 1_555 1_555
C1 C7 1_555 1_555
C12 C13 1_555 1_555
O6 C27 1_555 1_555
C21 C27 1_555 1_555
C25 C26 1_555 1_555
C32 C33 1_555 1_555
Zn2 N2 1_555 1_555
C19 N2 1_555 1_555
H19 C19 1_555 1_555
N5 Zn2 1_555 1_555
O9 Zn2 1_555 1_555
O10 Zn2 1_555 1_555
C39 N5 1_555 1_555
H39 C39 1_555 1_555
Zn5 N2_2 1_555 1_555
N2_2 C18 1_555 1_555
C17 C16 1_555 1_555
H17 C17 1_555 1_555
C18 C17 1_555 1_555
H18 C18 1_555 1_555
C19_2 N2_2 1_555 1_555
H19_2 C19_2 1_555 1_555
C20 C16 1_555 1_555
N5_2 Zn5 1_555 1_555
C19_2 C20 1_555 1_555
O10 C28_2 1_555 1_555
O8_2 C28_2 1_555 1_555
H22_2 C22_2 1_555 1_555
C23_2 C22_2 1_555 1_555
H23_2 C23_2 1_555 1_555
H24_2 C23_2 1_555 1_555
C24_2 C23_2 1_555 1_555
H25_2 C24_2 1_555 1_555
H26_2 C24_2 1_555 1_555
C28_2 C22_2 1_555 1_555
Zn1_2 N1_2 1_555 1_555
N1_2 C9_2 1_555 1_555
O1_2 Zn1_2 1_555 1_555
O2_2 Zn1_2 1_555 1_555
O9 C8_2 1_555 1_555
O4_2 C8_2 1_555 1_555
C1_2 H1_2 1_555 1_555
C2_2 C1_2 1_555 1_555
H2_2 C2_2 1_555 1_555
C6_2 C1_2 1_555 1_555
H9_2 C6_2 1_555 1_555
H10_2 C6_2 1_555 1_555
C7_2 O1_2 1_555 1_555
C8_2 C2_2 1_555 1_555
C9_2 H11_2 1_555 1_555
C10_2 C9_2 1_555 1_555
C11_2 C10_2 1_555 1_555
C12_2 C11_2 1_555 1_555
H13_2 C12_2 1_555 1_555
C13_2 N1_2 1_555 1_555
H14_2 C13_2 1_555 1_555
C14_2 C11_2 1_555 1_555
N3_2 Zn1_2 1_555 1_555
N5_2 C38_2 1_555 1_555
O5_2 Zn1_2 1_555 1_555
O6_2 Zn1_2 1_555 1_555
C21_2 H21_2 1_555 1_555
H27_2 C25_2 1_555 1_555
H28_2 C25_2 1_555 1_555
C26_2 C21_2 1_555 1_555
H29_2 C26_2 1_555 1_555
H30_2 C26_2 1_555 1_555
C27_2 O5_2 1_555 1_555
C29_2 N3_2 1_555 1_555
H31_2 C29_2 1_555 1_555
C30_2 C29_2 1_555 1_555
H32_2 C30_2 1_555 1_555
C31_2 C30_2 1_555 1_555
C32_2 C31_2 1_555 1_555
H33_2 C32_2 1_555 1_555
C33_2 N3_2 1_555 1_555
H34_2 C33_2 1_555 1_555
C34_2 C31_2 1_555 1_555
H35_2 C34_2 1_555 1_555
C35_2 C34_2 1_555 1_555
H36_2 C35_2 1_555 1_555
C36_2 C35_2 1_555 1_555
C37_2 C36_2 1_555 1_555
H37_2 C37_2 1_555 1_555
C38_2 C37_2 1_555 1_555
H38_2 C38_2 1_555 1_555
C39_2 N5_2 1_555 1_555
H39_2 C39_2 1_555 1_555
C40_2 C36_2 1_555 1_555
H40_2 C40_2 1_555 1_555
O2_2 C7_2 1_555 1_555
C1_2 C7_2 1_555 1_555
C12_2 C13_2 1_555 1_555
O6_2 C27_2 1_555 1_555
C21_2 C27_2 1_555 1_555
C25_2 C26_2 1_555 1_555
C32_2 C33_2 1_555 1_555
C39_2 C40_2 1_555 1_555
C17_2 C16_2 1_555 1_555
H17_2 C17_2 1_555 1_555
C18_2 C17_2 1_555 1_555
H18_2 C18_2 1_555 1_555
C20_2 C16_2 1_555 1_555
H3 C3 1_555 1_555
C4 C3 1_555 1_555
H5 C4 1_555 1_555
H6 C4 1_555 1_555
C5 C4 1_555 1_555
H7 C5 1_555 1_555
H8 C5 1_555 1_555
H16 C15 1_555 1_555
Zn1_3 N1_3 1_555 1_555
N1_3 C9_3 1_555 1_555
O1_3 Zn1_3 1_555 1_555
O2_3 Zn1_3 1_555 1_555
O3_2 C8_3 1_555 1_555
O4_3 C8_3 1_555 1_555
C1_3 H1_3 1_555 1_555
C2_3 C1_3 1_555 1_555
H2_3 C2_3 1_555 1_555
C6_3 C1_3 1_555 1_555
H9_3 C6_3 1_555 1_555
H10_3 C6_3 1_555 1_555
C7_3 O1_3 1_555 1_555
C8_3 C2_3 1_555 1_555
C9_3 H11_3 1_555 1_555
C10_3 C9_3 1_555 1_555
C11_3 C10_3 1_555 1_555
C12_3 C11_3 1_555 1_555
H13_3 C12_3 1_555 1_555
C13_3 N1_3 1_555 1_555
H14_3 C13_3 1_555 1_555
C14_3 C11_3 1_555 1_555
N3_3 Zn1_3 1_555 1_555
N4 C38_3 1_555 1_555
O5_3 Zn1_3 1_555 1_555
O6_3 Zn1_3 1_555 1_555
C21_3 H21_3 1_555 1_555
H27_3 C25_3 1_555 1_555
H28_3 C25_3 1_555 1_555
C26_3 C21_3 1_555 1_555
H29_3 C26_3 1_555 1_555
H30_3 C26_3 1_555 1_555
C27_3 O5_3 1_555 1_555
C29_3 N3_3 1_555 1_555
H31_3 C29_3 1_555 1_555
C30_3 C29_3 1_555 1_555
H32_3 C30_3 1_555 1_555
C31_3 C30_3 1_555 1_555
C32_3 C31_3 1_555 1_555
H33_3 C32_3 1_555 1_555
C33_3 N3_3 1_555 1_555
H34_3 C33_3 1_555 1_555
C34_3 C31_3 1_555 1_555
H35_3 C34_3 1_555 1_555
C35_3 C34_3 1_555 1_555
H36_3 C35_3 1_555 1_555
C36_3 C35_3 1_555 1_555
C37_3 C36_3 1_555 1_555
H37_3 C37_3 1_555 1_555
C38_3 C37_3 1_555 1_555
H38_3 C38_3 1_555 1_555
C39_3 N4 1_555 1_555
H39_3 C39_3 1_555 1_555
C40_3 C36_3 1_555 1_555
H40_3 C40_3 1_555 1_555
Zn3 N4 1_555 1_555
Zn4 O3_2 1_555 1_555
O2_3 C7_3 1_555 1_555
C1_3 C7_3 1_555 1_555
C12_3 C13_3 1_555 1_555
O6_3 C27_3 1_555 1_555
C21_3 C27_3 1_555 1_555
C25_3 C26_3 1_555 1_555
C32_3 C33_3 1_555 1_555
C39_3 C40_3 1_555 1_555
O7_2 C28_3 1_555 1_555
O8_3 C28_3 1_555 1_555
H22_3 C22_3 1_555 1_555
C23_3 C22_3 1_555 1_555
H23_3 C23_3 1_555 1_555
H24_3 C23_3 1_555 1_555
C24_3 C23_3 1_555 1_555
H25_3 C24_3 1_555 1_555
H26_3 C24_3 1_555 1_555
C28_3 C22_3 1_555 1_555
Zn4 O7_2 1_555 1_555
Zn3 N2_3 1_555 1_555
N2_3 C18_3 1_555 1_555
C17_3 C16_3 1_555 1_555
H17_3 C17_3 1_555 1_555
C18_3 C17_3 1_555 1_555
H18_3 C18_3 1_555 1_555
C19_3 N2_3 1_555 1_555
H19_3 C19_3 1_555 1_555
C20_3 C16_3 1_555 1_555
O9_2 Zn3 1_555 1_555
O10_2 Zn3 1_555 1_555
C19_3 C20_3 1_555 1_555
C39_4 N4_2 1_555 1_555
H39_4 C39_4 1_555 1_555
Zn4 N4_2 1_555 1_555
Zn4 N2_4 1_555 1_555
C19_4 N2_4 1_555 1_555
H19_4 C19_4 1_555 1_555
Zn1_4 N1_4 1_555 1_555
N1_4 C9_4 1_555 1_555
O1_4 Zn1_4 1_555 1_555
O2_4 Zn1_4 1_555 1_555
O9_2 C8_4 1_555 1_555
O4_4 C8_4 1_555 1_555
C1_4 H1_4 1_555 1_555
C2_4 C1_4 1_555 1_555
H2_4 C2_4 1_555 1_555
C6_4 C1_4 1_555 1_555
H9_4 C6_4 1_555 1_555
H10_4 C6_4 1_555 1_555
C7_4 O1_4 1_555 1_555
C8_4 C2_4 1_555 1_555
C9_4 H11_4 1_555 1_555
C10_4 C9_4 1_555 1_555
C11_4 C10_4 1_555 1_555
C12_4 C11_4 1_555 1_555
H13_4 C12_4 1_555 1_555
C13_4 N1_4 1_555 1_555
H14_4 C13_4 1_555 1_555
C14_4 C11_4 1_555 1_555
N3_4 Zn1_4 1_555 1_555
O5_4 Zn1_4 1_555 1_555
O6_4 Zn1_4 1_555 1_555
C21_4 H21_4 1_555 1_555
H27_4 C25_4 1_555 1_555
H28_4 C25_4 1_555 1_555
C26_4 C21_4 1_555 1_555
H29_4 C26_4 1_555 1_555
H30_4 C26_4 1_555 1_555
C27_4 O5_4 1_555 1_555
C29_4 N3_4 1_555 1_555
H31_4 C29_4 1_555 1_555
C30_4 C29_4 1_555 1_555
H32_4 C30_4 1_555 1_555
C31_4 C30_4 1_555 1_555
C32_4 C31_4 1_555 1_555
H33_4 C32_4 1_555 1_555
C33_4 N3_4 1_555 1_555
H34_4 C33_4 1_555 1_555
C34_4 C31_4 1_555 1_555
H35_4 C34_4 1_555 1_555
C35_4 C34_4 1_555 1_555
H36_4 C35_4 1_555 1_555
C36_4 C35_4 1_555 1_555
C37_4 C36_4 1_555 1_555
H37_4 C37_4 1_555 1_555
C38_4 C37_4 1_555 1_555
H38_4 C38_4 1_555 1_555
C40_4 C36_4 1_555 1_555
H40_4 C40_4 1_555 1_555
O2_4 C7_4 1_555 1_555
C1_4 C7_4 1_555 1_555
C12_4 C13_4 1_555 1_555
O6_4 C27_4 1_555 1_555
C21_4 C27_4 1_555 1_555
C25_4 C26_4 1_555 1_555
C32_4 C33_4 1_555 1_555
O10_2 C28_4 1_555 1_555
O8_4 C28_4 1_555 1_555
H22_4 C22_4 1_555 1_555
C23_4 C22_4 1_555 1_555
H23_4 C23_4 1_555 1_555
H24_4 C23_4 1_555 1_555
C24_4 C23_4 1_555 1_555
H25_4 C24_4 1_555 1_555
H26_4 C24_4 1_555 1_555
C28_4 C22_4 1_555 1_555
H3_2 C3_2 1_555 1_555
C4_2 C3_2 1_555 1_555
H5_2 C4_2 1_555 1_555
H6_2 C4_2 1_555 1_555
C5_2 C4_2 1_555 1_555
H7_2 C5_2 1_555 1_555
H8_2 C5_2 1_555 1_555
H16_2 C15_2 1_555 1_555
H3_3 C3_3 1_555 1_555
C4_3 C3_3 1_555 1_555
H5_3 C4_3 1_555 1_555
H6_3 C4_3 1_555 1_555
C5_3 C4_3 1_555 1_555
H7_3 C5_3 1_555 1_555
H8_3 C5_3 1_555 1_555
H16_3 C15_3 1_555 1_555
C17_4 C16_4 1_555 1_555
H17_4 C17_4 1_555 1_555
C18_4 C17_4 1_555 1_555
H18_4 C18_4 1_555 1_555
C20_4 C16_4 1_555 1_555
H3_4 C3_4 1_555 1_555
C4_4 C3_4 1_555 1_555
H5_4 C4_4 1_555 1_555
H6_4 C4_4 1_555 1_555
C5_4 C4_4 1_555 1_555
H7_4 C5_4 1_555 1_555
H8_4 C5_4 1_555 1_555
H16_4 C15_4 1_555 1_555

#END
