
###############################################################################
#
# This file contains modified crystal structure data generated from the
# MOF subset of the Cambridge Structural Database (CSD) v543 
# hosted by the Cambridge Crystallographic Data Centre (CCDC).
#
# This work is licensed under the Creative Commons
# Attribution-NonCommercial-ShareAlike 4.0 International License.
# To view a copy of this license, visit
# http://creativecommons.org/licenses/by-nc-sa/4.0/
# or send a letter to
# Creative Commons, PO Box 1866, Mountain View, CA 94042, USA.
#
# CIF created using the CSD Python API on 29 September 2022
# The structure has been converted into the P1 space group
# The structure has a 3D framework
# The original CSD entry CABQEB is in the tetragonal crystal system
# The framework has been calculated to contain at least 10.0% void space
# The void calculation uses a probe of radius 1.32A, grid spacing 0.4
#
###############################################################################

data_CABQEB
_chemical_formula_moiety         '(C128 H203 Co48 O137)n'
_symmetry_cell_setting           triclinic
_symmetry_space_group_name_H-M   'P 1'
_symmetry_Int_Tables_number      1
_space_group_name_Hall           'P 1'
loop_
_symmetry_equiv_pos_site_id
_symmetry_equiv_pos_as_xyz
1 x,y,z
_cell_length_a                   23.693(2)
_cell_length_b                   23.693(2)
_cell_length_c                   11.565(5)
_cell_angle_alpha                90
_cell_angle_beta                 90
_cell_angle_gamma                90
_cell_volume                     6492.11
loop_
_atom_site_label
_atom_site_type_symbol
_atom_site_fract_x
_atom_site_fract_y
_atom_site_fract_z
Co2 Co 0.0000 0.5000 0.0000
Co3 Co 0.1277(1) 0.4601(1) 0.0024(1)
O1 O 0.1693(2) 0.5211(2) 0.0935(6)
O3 O 0.1126(3) 0.4689(3) 0.2850(7)
O4 O 0.0599(3) 0.4653(3) 0.1220(7)
C3 C 0.0665(4) 0.4715(4) 0.232(1)
C4 C 0.0156(8) 0.4817(5) 0.307(1)
H1 H 0.1467 0.5463 0.1175
H7 H 0.0266 0.5039 0.3728
H22 H 0.0068 0.6448 0.2502
Co5 Co 0.1980(1) 0.4728(1) 0.2246(1)
O16 O 0.1725(3) 0.4015(3) 0.1129(6)
O17 O 0.2948(3) 0.5369(3) 0.0705(7)
O24 O 0.2189(3) 0.6374(3) 0.0350(7)
Co1 Co 0.2228(1) 0.5520(1) 0.9746(1)
Co2_2 Co 0.0000 0.5000 1.0000
O2 O 0.2048(3) 0.4691(3) 0.9054(6)
O5 O 0.1515(3) 0.5775(3) 0.8629(6)
O6 O 0.0788(2) 0.5270(3) 0.9238(6)
O7 O 0.0924(3) 0.4012(3) 0.8995(7)
O8 O 0.0025(3) 0.4285(3) 0.9031(8)
O9 O 0.2869(3) 0.4552(3) 0.8205(7)
C1 C 0.2407(4) 0.4374(4) 0.8548(8)
C2 C 0.2264(6) 0.3758(4) 0.838(2)
C5 C 0.0996(4) 0.5722(4) 0.885(1)
C6 C 0.0618(5) 0.6224(5) 0.863(1)
C7 C 0.0413(5) 0.3955(5) 0.872(1)
C8 C 0.0272(6) 0.3481(7) 0.793(2)
H2 H 0.2573 0.3525 0.8635
H3 H 0.2186 0.3688 0.7583
H4 H 0.1932 0.3668 0.8823
H8 H 0.0675 0.6360 0.7858
H9 H 0.0719 0.6520 0.9159
H10 H 0.0230 0.6123 0.8740
H11 H 0.0581 0.3423 0.7403
H12 H 0.0228 0.3146 0.8384
H14 H 0.0001 0.5535 0.6671
H15 H 0.0129 0.4986 0.7361
Co8 Co 0.2101(1) 0.6223(1) 0.7524(1)
Co10 Co 0.3020(1) 0.5272(1) 0.7246(1)
O23 O 0.2711(2) 0.5807(2) 0.8435(6)
H27 H 0.2963 0.6033 0.8675
Co2_3 Co 1.0000 0.5000 0.0000
H5 H 0.9999 0.4465 0.3329
H6 H 0.9871 0.5014 0.2639
O12 O 0.8485(3) 0.4225(3) 0.1371(6)
O13 O 0.9212(2) 0.4730(3) 0.0762(6)
C11 C 0.9004(4) 0.4278(4) 0.115(1)
C12 C 0.9382(5) 0.3776(5) 0.137(1)
H17 H 0.9325 0.3640 0.2142
H18 H 0.9281 0.3480 0.0841
H19 H 0.9770 0.3877 0.1260
O14 O 0.9076(3) 0.5988(3) 0.1005(7)
O15 O 0.9975(3) 0.5715(3) 0.0969(8)
C13 C 0.9587(5) 0.6045(5) 0.128(1)
C14 C 0.9728(6) 0.6519(7) 0.207(2)
H20 H 0.9419 0.6577 0.2597
H21 H 0.9772 0.6854 0.1616
Co6 Co 0.7772(1) 0.4480(1) 0.0254(1)
Co9 Co 0.7899(1) 0.3777(1) 0.2476(1)
O21 O 0.7952(3) 0.5309(3) 0.0946(6)
O22 O 0.7131(3) 0.5448(3) 0.1795(7)
C15 C 0.7593(4) 0.5626(4) 0.1452(8)
C16 C 0.7736(6) 0.6242(4) 0.162(2)
H24 H 0.7427 0.6475 0.1365
H25 H 0.7814 0.6312 0.2417
H26 H 0.8068 0.6332 0.1177
Co11 Co 0.6980(1) 0.4728(1) 0.2754(1)
O25 O 0.7289(2) 0.4193(2) 0.1565(6)
H28 H 0.7037 0.3967 0.1325
Co2_4 Co 1.0000 0.5000 1.0000
H13 H 0.9932 0.3552 0.7498
O10 O 0.8874(3) 0.5311(3) 0.7150(7)
O11 O 0.9401(3) 0.5347(3) 0.8780(7)
C9 C 0.9335(4) 0.5285(4) 0.768(1)
C10 C 0.9844(8) 0.5183(5) 0.693(1)
H16 H 0.9734 0.4961 0.6272
Co4 Co 0.8020(1) 0.5272(1) 0.7754(1)
Co7 Co 0.8723(1) 0.5399(1) 0.9976(1)
O18 O 0.8307(2) 0.4789(2) 0.9065(6)
H23 H 0.8533 0.4537 0.8825
O19 O 0.7052(3) 0.4631(3) 0.9295(7)
O20 O 0.8275(3) 0.5985(3) 0.8871(6)
O26 O 0.7811(3) 0.3626(3) 0.9650(7)
Co2_5 Co 0.2500 0.2500 0.2500
Co3_2 Co 0.2899(1) 0.3777(1) 0.2524(1)
O1_2 O 0.2289(2) 0.4193(2) 0.3435(6)
O2_2 O 0.2809(3) 0.4548(3) 0.1554(6)
O3_2 O 0.2811(3) 0.3626(3) 0.5350(7)
O4_2 O 0.2847(3) 0.3099(3) 0.3720(7)
O6_2 O 0.2230(3) 0.3288(2) 0.1738(6)
O7_2 O 0.3488(3) 0.3424(3) 0.1495(7)
O8_2 O 0.3215(3) 0.2525(3) 0.1531(8)
C1_2 C 0.3126(4) 0.4907(4) 0.1048(8)
C2_2 C 0.3742(4) 0.4764(6) 0.088(2)
C3_2 C 0.2785(4) 0.3165(4) 0.482(1)
C4_2 C 0.2683(5) 0.2656(8) 0.557(1)
C5_2 C 0.1778(4) 0.3496(4) 0.135(1)
C6_2 C 0.1276(5) 0.3118(5) 0.113(1)
C7_2 C 0.3545(5) 0.2913(5) 0.122(1)
C8_2 C 0.4019(7) 0.2772(6) 0.043(2)
H1_2 H 0.2037 0.3967 0.3675
H2_2 H 0.3975 0.5073 0.1135
H3_2 H 0.3812 0.4686 0.0083
H4_2 H 0.3832 0.4432 0.1323
H5_2 H 0.3035 0.2499 0.5829
H6_2 H 0.2486 0.2371 0.5139
H7_2 H 0.2461 0.2766 0.6228
H8_2 H 0.1140 0.3175 0.0358
H9_2 H 0.0980 0.3219 0.1659
H10_2 H 0.1377 0.2730 0.1240
H12_2 H 0.4354 0.2728 0.0884
O11_2 O 0.2153(3) 0.1901(3) 0.1280(7)
C9_2 C 0.2215(4) 0.1835(4) 0.018(1)
O12_2 O 0.3275(3) 0.0985(3) 0.3871(6)
O13_2 O 0.2770(3) 0.1712(2) 0.3262(6)
C11_2 C 0.3222(4) 0.1504(4) 0.365(1)
C12_2 C 0.3724(5) 0.1882(5) 0.387(1)
H17_2 H 0.3860 0.1825 0.4642
H18_2 H 0.4020 0.1781 0.3341
H19_2 H 0.3623 0.2270 0.3760
O14_2 O 0.1512(3) 0.1576(3) 0.3505(7)
O15_2 O 0.1785(3) 0.2475(3) 0.3469(8)
C13_2 C 0.1455(5) 0.2087(5) 0.378(1)
C14_2 C 0.0981(7) 0.2228(6) 0.457(2)
H20_2 H 0.0923 0.1919 0.5097
H21_2 H 0.0646 0.2272 0.4116
H22_2 H 0.1052 0.2568 0.5002
Co4_2 Co 0.2228(1) 0.0520(1) 0.0254(1)
Co5_2 Co 0.2772(1) 0.4480(1) 0.4746(1)
Co6_2 Co 0.3020(1) 0.0272(1) 0.2754(1)
Co7_2 Co 0.2101(1) 0.1223(1) 0.2476(1)
Co9_2 Co 0.3723(1) 0.0399(1) 0.4976(1)
O16_2 O 0.3485(3) 0.4225(3) 0.3629(6)
O17_2 O 0.2131(3) 0.5448(3) 0.3205(7)
O18_2 O 0.2711(2) 0.0807(2) 0.1565(6)
H23_2 H 0.2963 0.1033 0.1325
O20_2 O 0.1515(3) 0.0775(3) 0.1371(6)
O21_2 O 0.2191(3) 0.0452(3) 0.3446(6)
C15_2 C 0.1874(4) 0.0093(4) 0.3952(8)
C16_2 C 0.1258(4) 0.0236(6) 0.412(2)
H25_2 H 0.1188 0.0314 0.4917
H26_2 H 0.1168 0.0568 0.3677
O26_2 O 0.3874(3) 0.0311(3) 0.2150(7)
H11_2 H 0.4077 0.3081 0.9903
H13_2 H 0.3948 0.2432 0.9998
O10_2 O 0.2189(3) 0.1374(3) 0.9650(7)
C10_2 C 0.2317(5) 0.2344(8) 0.943(1)
H14_2 H 0.1965 0.2501 0.9171
H15_2 H 0.2514 0.2629 0.9861
H16_2 H 0.2539 0.2234 0.8772
O19_2 O 0.2869(3) 0.9552(3) 0.1795(7)
O22_2 O 0.2052(3) 0.9631(3) 0.4295(7)
H24_2 H 0.1025 0.9927 0.3865
Co11_2 Co 0.2772(1) 0.9480(1) 0.5254(1)
O25_2 O 0.3307(2) 0.9789(2) 0.4065(6)
H28_2 H 0.3533 0.9537 0.3825
Co2_6 Co 0.5000 0.5000 0.5000
Co3_3 Co 0.3723(1) 0.5399(1) 0.5024(1)
O1_3 O 0.3307(2) 0.4789(2) 0.5935(6)
O2_3 O 0.2952(3) 0.5309(3) 0.4054(6)
O3_3 O 0.3874(3) 0.5311(3) 0.7850(7)
O4_3 O 0.4401(3) 0.5347(3) 0.6220(7)
O6_3 O 0.4212(2) 0.4730(3) 0.4238(6)
O7_3 O 0.4076(3) 0.5988(3) 0.3995(7)
O8_3 O 0.4975(3) 0.5715(3) 0.4031(8)
C1_3 C 0.2593(4) 0.5626(4) 0.3548(8)
C2_3 C 0.2736(6) 0.6242(4) 0.338(2)
C3_3 C 0.4335(4) 0.5285(4) 0.732(1)
C4_3 C 0.4844(8) 0.5183(5) 0.807(1)
C5_3 C 0.4004(4) 0.4278(4) 0.385(1)
C6_3 C 0.4382(5) 0.3776(5) 0.363(1)
C7_3 C 0.4587(5) 0.6045(5) 0.372(1)
C8_3 C 0.4728(6) 0.6519(7) 0.293(2)
H1_3 H 0.3533 0.4537 0.6175
H2_3 H 0.2427 0.6475 0.3635
H3_3 H 0.2814 0.6312 0.2583
H4_3 H 0.3068 0.6332 0.3823
H5_3 H 0.5001 0.5535 0.8329
H6_3 H 0.5129 0.4986 0.7639
H7_3 H 0.4734 0.4961 0.8728
H8_3 H 0.4325 0.3640 0.2858
H9_3 H 0.4281 0.3480 0.4159
H10_3 H 0.4770 0.3877 0.3740
H11_3 H 0.4419 0.6577 0.2403
H12_3 H 0.4772 0.6854 0.3384
H13_3 H 0.5068 0.6448 0.2498
O10_3 O 0.6126(3) 0.4689(3) 0.2150(7)
O11_3 O 0.5599(3) 0.4653(3) 0.3780(7)
C9_3 C 0.5665(4) 0.4715(4) 0.268(1)
C10_3 C 0.5156(8) 0.4817(5) 0.193(1)
H14_3 H 0.4999 0.4465 0.1671
H15_3 H 0.4871 0.5014 0.2361
H16_3 H 0.5266 0.5039 0.1272
O12_3 O 0.6515(3) 0.5775(3) 0.6371(6)
O13_3 O 0.5788(2) 0.5270(3) 0.5762(6)
C11_3 C 0.5996(4) 0.5722(4) 0.615(1)
C12_3 C 0.5618(5) 0.6224(5) 0.637(1)
H17_3 H 0.5675 0.6360 0.7142
H18_3 H 0.5719 0.6520 0.5841
H19_3 H 0.5230 0.6123 0.6260
O14_3 O 0.5924(3) 0.4012(3) 0.6005(7)
O15_3 O 0.5025(3) 0.4285(3) 0.5969(8)
C13_3 C 0.5413(5) 0.3955(5) 0.628(1)
C14_3 C 0.5272(6) 0.3481(7) 0.707(2)
H20_3 H 0.5581 0.3423 0.7597
H21_3 H 0.5228 0.3146 0.6616
H22_3 H 0.4932 0.3552 0.7502
Co6_3 Co 0.7228(1) 0.5520(1) 0.5254(1)
Co7_3 Co 0.6277(1) 0.4601(1) 0.4976(1)
Co9_3 Co 0.7101(1) 0.6223(1) 0.7476(1)
O16_3 O 0.3275(3) 0.5985(3) 0.6129(6)
O17_3 O 0.2052(3) 0.4631(3) 0.5705(7)
O18_3 O 0.6693(2) 0.5211(2) 0.4065(6)
H23_3 H 0.6467 0.5463 0.3825
O19_3 O 0.7948(3) 0.5369(3) 0.4295(7)
O20_3 O 0.6725(3) 0.4015(3) 0.3871(6)
O21_3 O 0.7048(3) 0.4691(3) 0.5946(6)
O22_3 O 0.7869(3) 0.4552(3) 0.6795(7)
C15_3 C 0.7407(4) 0.4374(4) 0.6452(8)
C16_3 C 0.7264(6) 0.3758(4) 0.662(2)
H24_3 H 0.7573 0.3525 0.6365
H25_3 H 0.7186 0.3688 0.7417
H26_3 H 0.6932 0.3668 0.6177
O25_3 O 0.7711(2) 0.5807(2) 0.6565(6)
O26_3 O 0.7189(3) 0.6374(3) 0.4650(7)
H28_3 H 0.7963 0.6033 0.6325
O19_4 O 0.2131(3) 0.0448(3) 0.6795(7)
O22_4 O 0.2948(3) 0.0369(3) 0.9295(7)
H24_4 H 0.3975 0.0073 0.8865
O25_4 O 0.1693(2) 0.0211(2) 0.9065(6)
H28_4 H 0.1467 0.0463 0.8825
C4_4 C 0.2317(5) 0.7344(8) 0.057(1)
H5_4 H 0.1965 0.7501 0.0829
H6_4 H 0.2514 0.7629 0.0139
H7_4 H 0.2539 0.7234 0.1228
H20_4 H 0.4077 0.8081 0.0097
H22_4 H 0.3948 0.7432 0.0002
Co2_7 Co 0.2500 0.7500 0.7500
O2_4 O 0.2191(3) 0.5452(3) 0.6554(6)
O4_4 O 0.2153(3) 0.6901(3) 0.8720(7)
O6_4 O 0.2770(3) 0.6712(2) 0.6738(6)
O7_4 O 0.1512(3) 0.6576(3) 0.6495(7)
O8_4 O 0.1785(3) 0.7475(3) 0.6531(8)
C1_4 C 0.1874(4) 0.5093(4) 0.6048(8)
C2_4 C 0.1258(4) 0.5236(6) 0.588(2)
C3_4 C 0.2215(4) 0.6835(4) 0.982(1)
C5_4 C 0.3222(4) 0.6504(4) 0.635(1)
C6_4 C 0.3724(5) 0.6882(5) 0.613(1)
C7_4 C 0.1455(5) 0.7087(5) 0.622(1)
C8_4 C 0.0981(7) 0.7228(6) 0.543(2)
H2_4 H 0.1025 0.4927 0.6135
H3_4 H 0.1188 0.5314 0.5083
H4_4 H 0.1168 0.5568 0.6323
H8_4 H 0.3860 0.6825 0.5358
H9_4 H 0.4020 0.6781 0.6659
H10_4 H 0.3623 0.7270 0.6240
H11_4 H 0.0923 0.6919 0.4903
H12_4 H 0.0646 0.7272 0.5884
H13_4 H 0.1052 0.7568 0.4998
O10_4 O 0.2811(3) 0.8626(3) 0.4650(7)
O11_4 O 0.2847(3) 0.8099(3) 0.6280(7)
C9_4 C 0.2785(4) 0.8165(4) 0.518(1)
C10_4 C 0.2683(5) 0.7656(8) 0.443(1)
H14_4 H 0.3035 0.7499 0.4171
H15_4 H 0.2486 0.7371 0.4861
H16_4 H 0.2461 0.7766 0.3772
O12_4 O 0.1725(3) 0.9015(3) 0.8871(6)
O13_4 O 0.2230(3) 0.8288(2) 0.8262(6)
C11_4 C 0.1778(4) 0.8496(4) 0.865(1)
C12_4 C 0.1276(5) 0.8118(5) 0.887(1)
H17_4 H 0.1140 0.8175 0.9642
H18_4 H 0.0980 0.8219 0.8341
H19_4 H 0.1377 0.7730 0.8760
O14_4 O 0.3488(3) 0.8424(3) 0.8505(7)
O15_4 O 0.3215(3) 0.7525(3) 0.8469(8)
C13_4 C 0.3545(5) 0.7913(5) 0.878(1)
C14_4 C 0.4019(7) 0.7772(6) 0.957(2)
H21_4 H 0.4354 0.7728 0.9116
Co6_4 Co 0.1980(1) 0.9728(1) 0.7754(1)
Co7_4 Co 0.2899(1) 0.8777(1) 0.7476(1)
Co9_4 Co 0.1277(1) 0.9601(1) 0.9976(1)
O18_4 O 0.2289(2) 0.9193(2) 0.6565(6)
H23_4 H 0.2037 0.8967 0.6325
O20_4 O 0.3485(3) 0.9225(3) 0.6371(6)
O21_4 O 0.2809(3) 0.9548(3) 0.8446(6)
C15_4 C 0.3126(4) 0.9907(4) 0.8952(8)
C16_4 C 0.3742(4) 0.9764(6) 0.912(2)
H25_4 H 0.3812 0.9686 0.9917
H26_4 H 0.3832 0.9432 0.8677
O26_4 O 0.1126(3) 0.9689(3) 0.7150(7)
Co1_2 Co 0.7228(1) 0.0520(1) 0.4746(1)
Co2_8 Co 0.5000 -0.0000 0.5000
O1_4 O 0.6693(2) 0.0211(2) 0.5935(6)
O5_2 O 0.6515(3) 0.0775(3) 0.3629(6)
O6_5 O 0.5788(2) 0.0270(3) 0.4238(6)
C5_5 C 0.5996(4) 0.0722(4) 0.385(1)
C6_5 C 0.5618(5) 0.1224(5) 0.363(1)
H1_4 H 0.6467 0.0463 0.6175
H6_5 H 0.4871 0.0014 0.7639
H7_5 H 0.5266 0.0039 0.8728
H8_5 H 0.5675 0.1360 0.2858
H9_5 H 0.5719 0.1520 0.4159
H10_5 H 0.5230 0.1123 0.3740
O11_5 O 0.4401(3) 0.0347(3) 0.3780(7)
C9_5 C 0.4335(4) 0.0285(4) 0.268(1)
C10_5 C 0.4844(8) 0.0183(5) 0.193(1)
H14_5 H 0.5001 0.0535 0.1671
O14_5 O 0.4076(3) 0.0988(3) 0.6005(7)
O15_5 O 0.4975(3) 0.0715(3) 0.5969(8)
C13_5 C 0.4587(5) 0.1045(5) 0.628(1)
C14_5 C 0.4728(6) 0.1519(7) 0.707(2)
H20_5 H 0.4419 0.1577 0.7597
H21_5 H 0.4772 0.1854 0.6616
H22_5 H 0.5068 0.1448 0.7502
Co8_2 Co 0.7101(1) 0.1223(1) 0.2524(1)
O17_4 O 0.7948(3) 0.0369(3) 0.5705(7)
O21_5 O 0.2952(3) 0.0309(3) 0.5946(6)
C15_5 C 0.2593(4) 0.0626(4) 0.6452(8)
C16_5 C 0.2736(6) 0.1242(4) 0.662(2)
H24_5 H 0.2427 0.1475 0.6365
H25_5 H 0.2814 0.1312 0.7417
H26_5 H 0.3068 0.1332 0.6177
Co10_2 Co 0.8020(1) 0.0272(1) 0.2246(1)
O23_2 O 0.7711(2) 0.0807(2) 0.3435(6)
O24_2 O 0.7189(3) 0.1374(3) 0.5350(7)
H27_2 H 0.7963 0.1033 0.3675
Co2_9 Co 0.5000 1.0000 0.5000
Co3_4 Co 0.6277(1) 0.9601(1) 0.5024(1)
O2_5 O 0.7048(3) 0.9691(3) 0.4054(6)
O3_4 O 0.6126(3) 0.9689(3) 0.7850(7)
O4_5 O 0.5599(3) 0.9653(3) 0.6220(7)
O7_5 O 0.5924(3) 0.9012(3) 0.3995(7)
O8_5 O 0.5025(3) 0.9285(3) 0.4031(8)
O9_2 O 0.7869(3) 0.9552(3) 0.3205(7)
C1_5 C 0.7407(4) 0.9374(4) 0.3548(8)
C2_5 C 0.7264(6) 0.8758(4) 0.338(2)
C3_5 C 0.5665(4) 0.9715(4) 0.732(1)
C4_5 C 0.5156(8) 0.9817(5) 0.807(1)
C7_5 C 0.5413(5) 0.8955(5) 0.372(1)
C8_5 C 0.5272(6) 0.8481(7) 0.293(2)
H2_5 H 0.7573 0.8525 0.3635
H3_5 H 0.7186 0.8688 0.2583
H4_5 H 0.6932 0.8668 0.3823
H5_5 H 0.4999 0.9465 0.8329
H11_5 H 0.5581 0.8423 0.2403
H12_5 H 0.5228 0.8146 0.3384
H13_5 H 0.4932 0.8552 0.2498
H15_5 H 0.5129 0.9986 0.2361
H16_5 H 0.4734 0.9961 0.1272
O13_5 O 0.4212(2) 0.9730(3) 0.5762(6)
C11_5 C 0.4004(4) 0.9278(4) 0.615(1)
C12_5 C 0.4382(5) 0.8776(5) 0.637(1)
H17_5 H 0.4325 0.8640 0.7142
H18_5 H 0.4281 0.8480 0.5841
H19_5 H 0.4770 0.8877 0.6260
Co5_3 Co 0.6980(1) 0.9728(1) 0.7246(1)
O16_4 O 0.6725(3) 0.9015(3) 0.6129(6)
H2_6 H 0.8975 0.0073 0.6135
O17_5 O 0.7131(3) 0.0448(3) 0.8205(7)
O3_5 O 0.7811(3) 0.8626(3) 0.0350(7)
C4_6 C 0.7683(5) 0.7656(8) 0.057(1)
H5_6 H 0.8035 0.7499 0.0829
H6_6 H 0.7486 0.7371 0.0139
H7_6 H 0.7461 0.7766 0.1228
H20_6 H 0.5923 0.6919 0.0097
H22_6 H 0.6052 0.7568 0.0002
Co2_10 Co 0.7500 0.7500 0.7500
Co3_5 Co 0.7899(1) 0.8777(1) 0.7524(1)
O1_5 O 0.7289(2) 0.9193(2) 0.8435(6)
O2_6 O 0.7809(3) 0.9548(3) 0.6554(6)
O4_6 O 0.7847(3) 0.8099(3) 0.8720(7)
O6_6 O 0.7230(3) 0.8288(2) 0.6738(6)
O7_6 O 0.8488(3) 0.8424(3) 0.6495(7)
O8_6 O 0.8215(3) 0.7525(3) 0.6531(8)
C1_6 C 0.8126(4) 0.9907(4) 0.6048(8)
C2_6 C 0.8742(4) 0.9764(6) 0.588(2)
C3_6 C 0.7785(4) 0.8165(4) 0.982(1)
C5_6 C 0.6778(4) 0.8496(4) 0.635(1)
C6_6 C 0.6276(5) 0.8118(5) 0.613(1)
C7_6 C 0.8545(5) 0.7913(5) 0.622(1)
C8_6 C 0.9019(7) 0.7772(6) 0.543(2)
H1_5 H 0.7037 0.8967 0.8675
H3_6 H 0.8812 0.9686 0.5083
H4_6 H 0.8832 0.9432 0.6323
H8_6 H 0.6140 0.8175 0.5358
H9_6 H 0.5980 0.8219 0.6659
H10_6 H 0.6377 0.7730 0.6240
H11_6 H 0.9077 0.8081 0.4903
H12_6 H 0.9354 0.7728 0.5884
H13_6 H 0.8948 0.7432 0.4998
O11_6 O 0.7153(3) 0.6901(3) 0.6280(7)
C9_6 C 0.7215(4) 0.6835(4) 0.518(1)
C10_6 C 0.7317(5) 0.7344(8) 0.443(1)
H14_6 H 0.6965 0.7501 0.4171
H15_6 H 0.7514 0.7629 0.4861
H16_6 H 0.7539 0.7234 0.3772
O13_6 O 0.7770(3) 0.6712(2) 0.8262(6)
C11_6 C 0.8222(4) 0.6504(4) 0.865(1)
C12_6 C 0.8724(5) 0.6882(5) 0.887(1)
H17_6 H 0.8860 0.6825 0.9642
H18_6 H 0.9020 0.6781 0.8341
H19_6 H 0.8623 0.7270 0.8760
O14_6 O 0.6512(3) 0.6576(3) 0.8505(7)
O15_6 O 0.6785(3) 0.7475(3) 0.8469(8)
C13_6 C 0.6455(5) 0.7087(5) 0.878(1)
C14_6 C 0.5981(7) 0.7228(6) 0.957(2)
H21_6 H 0.5646 0.7272 0.9116
Co5_4 Co 0.7772(1) 0.9480(1) 0.9746(1)
O16_5 O 0.8485(3) 0.9225(3) 0.8629(6)
O21_6 O 0.7191(3) 0.5452(3) 0.8446(6)
C15_6 C 0.6874(4) 0.5093(4) 0.8952(8)
C16_6 C 0.6258(4) 0.5236(6) 0.912(2)
H24_6 H 0.6025 0.4927 0.8865
H25_6 H 0.6188 0.5314 0.9917
H26_6 H 0.6168 0.5568 0.8677
Co2_11 Co 0.0000 0.0000 0.0000
H5_7 H 0.0001 0.0535 0.3329
O13_7 O 0.0788(2) 0.0270(3) 0.0762(6)
C11_7 C 0.0996(4) 0.0722(4) 0.115(1)
C12_7 C 0.0618(5) 0.1224(5) 0.137(1)
H17_7 H 0.0675 0.1360 0.2142
H18_7 H 0.0719 0.1520 0.0841
H19_7 H 0.0230 0.1123 0.1260
Co2_12 Co -0.0000 -0.0000 1.0000
H13_7 H 0.0068 0.1448 0.7498
H16_7 H 0.0266 0.0039 0.6272
Co2_13 Co 0.0000 1.0000 0.0000
H6_7 H 0.0129 0.9986 0.2639
O14_7 O 0.0924(3) 0.9012(3) 0.1005(7)
O15_7 O 0.0025(3) 0.9285(3) 0.0969(8)
C13_7 C 0.0413(5) 0.8955(5) 0.128(1)
C14_7 C 0.0272(6) 0.8481(7) 0.207(2)
H20_7 H 0.0581 0.8423 0.2597
H21_7 H 0.0228 0.8146 0.1616
O21_7 O 0.2048(3) 0.9691(3) 0.0946(6)
C15_7 C 0.2407(4) 0.9374(4) 0.1452(8)
C16_7 C 0.2264(6) 0.8758(4) 0.162(2)
H24_7 H 0.2573 0.8525 0.1365
H25_7 H 0.2186 0.8688 0.2417
H26_7 H 0.1932 0.8668 0.1177
Co2_14 Co -0.0000 1.0000 1.0000
O11_7 O 0.0599(3) 0.9653(3) 0.8780(7)
C9_7 C 0.0665(4) 0.9715(4) 0.768(1)
C10_7 C 0.0156(8) 0.9817(5) 0.693(1)
Co2_15 Co 1.0000 0.0000 0.0000
Co3_6 Co 0.8723(1) 0.0399(1) 0.0024(1)
O3_6 O 0.8874(3) 0.0311(3) 0.2850(7)
O4_7 O 0.9401(3) 0.0347(3) 0.1220(7)
C3_7 C 0.9335(4) 0.0285(4) 0.232(1)
C4_7 C 0.9844(8) 0.0183(5) 0.307(1)
O16_6 O 0.8275(3) 0.0985(3) 0.1129(6)
Co2_16 Co 1.0000 -0.0000 1.0000
O2_7 O 0.7952(3) 0.0309(3) 0.9054(6)
O7_7 O 0.9076(3) 0.0988(3) 0.8995(7)
O8_7 O 0.9975(3) 0.0715(3) 0.9031(8)
C1_7 C 0.7593(4) 0.0626(4) 0.8548(8)
C2_7 C 0.7736(6) 0.1242(4) 0.838(2)
C7_7 C 0.9587(5) 0.1045(5) 0.872(1)
C8_7 C 0.9728(6) 0.1519(7) 0.793(2)
H2_7 H 0.7427 0.1475 0.8635
H3_7 H 0.7814 0.1312 0.7583
H4_7 H 0.8068 0.1332 0.8823
H11_7 H 0.9419 0.1577 0.7403
H12_7 H 0.9772 0.1854 0.8384
H15_7 H 0.9871 0.0014 0.7361
Co2_17 Co 1.0000 1.0000 0.0000
O1_6 O 0.8307(2) 0.9789(2) 0.0935(6)
H1_6 H 0.8533 0.9537 0.1175
H7_7 H 0.9734 0.9961 0.3728
H22_7 H 0.9932 0.8552 0.2502
O17_6 O 0.7052(3) 0.9631(3) 0.0705(7)
Co2_18 Co 1.0000 1.0000 1.0000
O6_7 O 0.9212(2) 0.9730(3) 0.9238(6)
C5_7 C 0.9004(4) 0.9278(4) 0.885(1)
C6_7 C 0.9382(5) 0.8776(5) 0.863(1)
H8_7 H 0.9325 0.8640 0.7858
H9_7 H 0.9281 0.8480 0.9159
H10_7 H 0.9770 0.8877 0.8740
H14_7 H 0.9999 0.9465 0.6671
Co2_19 Co 0.7500 0.2500 0.2500
O2_8 O 0.7191(3) 0.0452(3) 0.1554(6)
O4_8 O 0.7153(3) 0.1901(3) 0.3720(7)
O6_8 O 0.7770(3) 0.1712(2) 0.1738(6)
O7_8 O 0.6512(3) 0.1576(3) 0.1495(7)
O8_8 O 0.6785(3) 0.2475(3) 0.1531(8)
C1_8 C 0.6874(4) 0.0093(4) 0.1048(8)
C2_8 C 0.6258(4) 0.0236(6) 0.088(2)
C3_8 C 0.7215(4) 0.1835(4) 0.482(1)
C4_8 C 0.7317(5) 0.2344(8) 0.557(1)
C5_8 C 0.8222(4) 0.1504(4) 0.135(1)
C6_8 C 0.8724(5) 0.1882(5) 0.113(1)
C7_8 C 0.6455(5) 0.2087(5) 0.122(1)
C8_8 C 0.5981(7) 0.2228(6) 0.043(2)
H3_8 H 0.6188 0.0314 0.0083
H4_8 H 0.6168 0.0568 0.1323
H5_8 H 0.6965 0.2501 0.5829
H6_8 H 0.7514 0.2629 0.5139
H7_8 H 0.7539 0.2234 0.6228
H8_8 H 0.8860 0.1825 0.0358
H9_8 H 0.9020 0.1781 0.1659
H10_8 H 0.8623 0.2270 0.1240
H12_8 H 0.5646 0.2272 0.0884
O11_8 O 0.7847(3) 0.3099(3) 0.1280(7)
C9_8 C 0.7785(4) 0.3165(4) 0.018(1)
O13_8 O 0.7230(3) 0.3288(2) 0.3262(6)
C11_8 C 0.6778(4) 0.3496(4) 0.365(1)
C12_8 C 0.6276(5) 0.3118(5) 0.387(1)
H17_8 H 0.6140 0.3175 0.4642
H18_8 H 0.5980 0.3219 0.3341
H19_8 H 0.6377 0.2730 0.3760
O14_8 O 0.8488(3) 0.3424(3) 0.3505(7)
O15_8 O 0.8215(3) 0.2525(3) 0.3469(8)
C13_8 C 0.8545(5) 0.2913(5) 0.378(1)
C14_8 C 0.9019(7) 0.2772(6) 0.457(2)
H20_8 H 0.9077 0.3081 0.5097
H21_8 H 0.9354 0.2728 0.4116
H22_8 H 0.8948 0.2432 0.5002
O21_8 O 0.7809(3) 0.4548(3) 0.3446(6)
C15_8 C 0.8126(4) 0.4907(4) 0.3952(8)
C16_8 C 0.8742(4) 0.4764(6) 0.412(2)
H24_8 H 0.8975 0.5073 0.3865
H25_8 H 0.8812 0.4686 0.4917
H26_8 H 0.8832 0.4432 0.3677
H11_8 H 0.5923 0.1919 0.9903
H13_8 H 0.6052 0.2568 0.9998
C10_8 C 0.7683(5) 0.2656(8) 0.943(1)
H14_8 H 0.8035 0.2499 0.9171
H15_8 H 0.7486 0.2371 0.9861
H16_8 H 0.7461 0.2766 0.8772
H2_8 H 0.6025 0.9927 0.1135
loop_
_geom_bond_atom_site_label_1
_geom_bond_atom_site_label_2
_geom_bond_site_symmetry_1
_geom_bond_site_symmetry_2
Co2 O4 1_555 1_555
Co3 O1 1_555 1_555
O1 H1 1_555 1_555
O3 C3 1_555 1_555
O4 Co3 1_555 1_555
C3 O4 1_555 1_555
C4 C3 1_555 1_555
H7 C4 1_555 1_555
Co5 O1 1_555 1_555
O16 Co3 1_555 1_555
O3 Co5 1_555 1_555
Co5 O16 1_555 1_555
O2 Co1 1_555 1_555
O5 Co1 1_555 1_555
O6 Co2_2 1_555 1_555
O8 Co2_2 1_555 1_555
O9 C1 1_555 1_555
C1 O2 1_555 1_555
C2 C1 1_555 1_555
C5 O5 1_555 1_555
C6 C5 1_555 1_555
C7 O7 1_555 1_555
C8 C7 1_555 1_555
H2 C2 1_555 1_555
H3 C2 1_555 1_555
H4 C2 1_555 1_555
H8 C6 1_555 1_555
H9 C6 1_555 1_555
H10 C6 1_555 1_555
H11 C8 1_555 1_555
H12 C8 1_555 1_555
Co8 O5 1_555 1_555
Co10 O9 1_555 1_555
O23 Co1 1_555 1_555
H27 O23 1_555 1_555
O6 C5 1_555 1_555
O8 C7 1_555 1_555
Co8 O23 1_555 1_555
Co10 O23 1_555 1_555
O12 C11 1_555 1_555
O13 Co2_3 1_555 1_555
C11 O13 1_555 1_555
C12 C11 1_555 1_555
H17 C12 1_555 1_555
H18 C12 1_555 1_555
H19 C12 1_555 1_555
O14 C13 1_555 1_555
O15 Co2_3 1_555 1_555
C13 O15 1_555 1_555
C14 C13 1_555 1_555
H20 C14 1_555 1_555
H21 C14 1_555 1_555
Co6 O12 1_555 1_555
Co9 O12 1_555 1_555
O21 Co6 1_555 1_555
O22 C15 1_555 1_555
C15 O21 1_555 1_555
C16 C15 1_555 1_555
H24 C16 1_555 1_555
H25 C16 1_555 1_555
H26 C16 1_555 1_555
Co11 O22 1_555 1_555
O25 Co6 1_555 1_555
H28 O25 1_555 1_555
Co9 O25 1_555 1_555
Co11 O25 1_555 1_555
O10 C9 1_555 1_555
O11 Co2_4 1_555 1_555
C9 O11 1_555 1_555
C10 C9 1_555 1_555
H16 C10 1_555 1_555
Co4 O10 1_555 1_555
Co7 O11 1_555 1_555
O18 Co4 1_555 1_555
H23 O18 1_555 1_555
O20 Co4 1_555 1_555
Co7 O18 1_555 1_555
Co7 O20 1_555 1_555
Co5 O1_2 1_555 1_555
Co2_5 O4_2 1_555 1_555
Co3_2 O1_2 1_555 1_555
O1_2 H1_2 1_555 1_555
O2_2 Co5 1_555 1_555
O3_2 C3_2 1_555 1_555
O4_2 Co3_2 1_555 1_555
O6_2 Co2_5 1_555 1_555
O7_2 Co3_2 1_555 1_555
O8_2 Co2_5 1_555 1_555
O17 C1_2 1_555 1_555
C1_2 O2_2 1_555 1_555
C2_2 C1_2 1_555 1_555
C3_2 O4_2 1_555 1_555
C4_2 C3_2 1_555 1_555
C5_2 O16 1_555 1_555
C6_2 C5_2 1_555 1_555
C7_2 O7_2 1_555 1_555
C8_2 C7_2 1_555 1_555
H2_2 C2_2 1_555 1_555
H3_2 C2_2 1_555 1_555
H4_2 C2_2 1_555 1_555
H5_2 C4_2 1_555 1_555
H6_2 C4_2 1_555 1_555
H7_2 C4_2 1_555 1_555
H8_2 C6_2 1_555 1_555
H9_2 C6_2 1_555 1_555
H10_2 C6_2 1_555 1_555
H12_2 C8_2 1_555 1_555
O11_2 Co2_5 1_555 1_555
C9_2 O11_2 1_555 1_555
O12_2 C11_2 1_555 1_555
O13_2 Co2_5 1_555 1_555
C11_2 O13_2 1_555 1_555
C12_2 C11_2 1_555 1_555
H17_2 C12_2 1_555 1_555
H18_2 C12_2 1_555 1_555
H19_2 C12_2 1_555 1_555
O14_2 C13_2 1_555 1_555
O15_2 Co2_5 1_555 1_555
C13_2 O15_2 1_555 1_555
C14_2 C13_2 1_555 1_555
H20_2 C14_2 1_555 1_555
H21_2 C14_2 1_555 1_555
H22_2 C14_2 1_555 1_555
Co5_2 O1_2 1_555 1_555
Co6_2 O12_2 1_555 1_555
Co7_2 O11_2 1_555 1_555
Co9_2 O12_2 1_555 1_555
O16_2 Co3_2 1_555 1_555
O17_2 Co5 1_555 1_555
O18_2 Co4_2 1_555 1_555
H23_2 O18_2 1_555 1_555
O20_2 Co4_2 1_555 1_555
O21_2 Co6_2 1_555 1_555
C15_2 O21_2 1_555 1_555
C16_2 C15_2 1_555 1_555
H25_2 C16_2 1_555 1_555
H26_2 C16_2 1_555 1_555
O26_2 Co6_2 1_555 1_555
Co3_2 O2_2 1_555 1_555
Co3_2 O6_2 1_555 1_555
O3_2 Co5_2 1_555 1_555
O6_2 C5_2 1_555 1_555
O8_2 C7_2 1_555 1_555
O13_2 Co7_2 1_555 1_555
O14_2 Co7_2 1_555 1_555
Co5_2 O16_2 1_555 1_555
Co6_2 O18_2 1_555 1_555
Co7_2 O21_2 1_555 1_555
Co7_2 O18_2 1_555 1_555
Co7_2 O20_2 1_555 1_555
H14_2 C10_2 1_555 1_555
H15_2 C10_2 1_555 1_555
H16_2 C10_2 1_555 1_555
Co11_2 O22_2 1_555 1_555
H28_2 O25_2 1_555 1_555
Co11_2 O25_2 1_555 1_555
Co5_2 O1_3 1_555 1_555
Co2_6 O4_3 1_555 1_555
Co3_3 O1_3 1_555 1_555
O1_3 H1_3 1_555 1_555
O2_3 Co5_2 1_555 1_555
O3_3 C3_3 1_555 1_555
O4_3 Co3_3 1_555 1_555
O6_3 Co2_6 1_555 1_555
O7_3 Co3_3 1_555 1_555
O8_3 Co2_6 1_555 1_555
O17_2 C1_3 1_555 1_555
C1_3 O2_3 1_555 1_555
C2_3 C1_3 1_555 1_555
C3_3 O4_3 1_555 1_555
C4_3 C3_3 1_555 1_555
C5_3 O16_2 1_555 1_555
C6_3 C5_3 1_555 1_555
C7_3 O7_3 1_555 1_555
C8_3 C7_3 1_555 1_555
H2_3 C2_3 1_555 1_555
H3_3 C2_3 1_555 1_555
H4_3 C2_3 1_555 1_555
H5_3 C4_3 1_555 1_555
H6_3 C4_3 1_555 1_555
H7_3 C4_3 1_555 1_555
H8_3 C6_3 1_555 1_555
H9_3 C6_3 1_555 1_555
H10_3 C6_3 1_555 1_555
H11_3 C8_3 1_555 1_555
H12_3 C8_3 1_555 1_555
H13_3 C8_3 1_555 1_555
O10_3 C9_3 1_555 1_555
O11_3 Co2_6 1_555 1_555
C9_3 O11_3 1_555 1_555
C10_3 C9_3 1_555 1_555
H14_3 C10_3 1_555 1_555
H15_3 C10_3 1_555 1_555
H16_3 C10_3 1_555 1_555
O12_3 C11_3 1_555 1_555
O13_3 Co2_6 1_555 1_555
C11_3 O13_3 1_555 1_555
C12_3 C11_3 1_555 1_555
H17_3 C12_3 1_555 1_555
H18_3 C12_3 1_555 1_555
H19_3 C12_3 1_555 1_555
O14_3 C13_3 1_555 1_555
O15_3 Co2_6 1_555 1_555
C13_3 O15_3 1_555 1_555
C14_3 C13_3 1_555 1_555
H20_3 C14_3 1_555 1_555
H21_3 C14_3 1_555 1_555
H22_3 C14_3 1_555 1_555
Co11 O10_3 1_555 1_555
Co10 O1_3 1_555 1_555
Co6_3 O12_3 1_555 1_555
Co7_3 O11_3 1_555 1_555
Co9_3 O12_3 1_555 1_555
O16_3 Co3_3 1_555 1_555
O17_3 Co5_2 1_555 1_555
O18_3 Co11 1_555 1_555
H23_3 O18_3 1_555 1_555
O19_3 Co6_3 1_555 1_555
O20_3 Co11 1_555 1_555
O21_3 Co6_3 1_555 1_555
O22_3 C15_3 1_555 1_555
C15_3 O21_3 1_555 1_555
C16_3 C15_3 1_555 1_555
H24_3 C16_3 1_555 1_555
H25_3 C16_3 1_555 1_555
H26_3 C16_3 1_555 1_555
Co4 O22_3 1_555 1_555
O25_3 Co6_3 1_555 1_555
O26_3 Co6_3 1_555 1_555
H28_3 O25_3 1_555 1_555
Co3_3 O2_3 1_555 1_555
Co3_3 O6_3 1_555 1_555
O3_3 Co10 1_555 1_555
O6_3 C5_3 1_555 1_555
O8_3 C7_3 1_555 1_555
O13_3 Co7_3 1_555 1_555
O14_3 Co7_3 1_555 1_555
Co10 O16_3 1_555 1_555
Co6_3 O18_3 1_555 1_555
Co7_3 O21_3 1_555 1_555
Co7_3 O18_3 1_555 1_555
Co7_3 O20_3 1_555 1_555
Co9_3 O25_3 1_555 1_555
Co4 O25_3 1_555 1_555
H28_4 O25_4 1_555 1_555
H5_4 C4_4 1_555 1_555
H6_4 C4_4 1_555 1_555
H7_4 C4_4 1_555 1_555
Co2_7 O4_4 1_555 1_555
O2_4 Co10 1_555 1_555
O4_4 Co8 1_555 1_555
O6_4 Co2_7 1_555 1_555
O7_4 Co8 1_555 1_555
O8_4 Co2_7 1_555 1_555
O17_3 C1_4 1_555 1_555
C1_4 O2_4 1_555 1_555
C2_4 C1_4 1_555 1_555
C3_4 O4_4 1_555 1_555
C5_4 O16_3 1_555 1_555
C6_4 C5_4 1_555 1_555
C7_4 O7_4 1_555 1_555
C8_4 C7_4 1_555 1_555
H2_4 C2_4 1_555 1_555
H3_4 C2_4 1_555 1_555
H4_4 C2_4 1_555 1_555
H8_4 C6_4 1_555 1_555
H9_4 C6_4 1_555 1_555
H10_4 C6_4 1_555 1_555
H11_4 C8_4 1_555 1_555
H12_4 C8_4 1_555 1_555
H13_4 C8_4 1_555 1_555
O10_4 C9_4 1_555 1_555
O11_4 Co2_7 1_555 1_555
C9_4 O11_4 1_555 1_555
C10_4 C9_4 1_555 1_555
H14_4 C10_4 1_555 1_555
H15_4 C10_4 1_555 1_555
H16_4 C10_4 1_555 1_555
O12_4 C11_4 1_555 1_555
O13_4 Co2_7 1_555 1_555
C11_4 O13_4 1_555 1_555
C12_4 C11_4 1_555 1_555
H17_4 C12_4 1_555 1_555
H18_4 C12_4 1_555 1_555
H19_4 C12_4 1_555 1_555
O14_4 C13_4 1_555 1_555
O15_4 Co2_7 1_555 1_555
C13_4 O15_4 1_555 1_555
C14_4 C13_4 1_555 1_555
H21_4 C14_4 1_555 1_555
Co11_2 O10_4 1_555 1_555
Co6_4 O12_4 1_555 1_555
Co7_4 O11_4 1_555 1_555
Co9_4 O12_4 1_555 1_555
O18_4 Co11_2 1_555 1_555
H23_4 O18_4 1_555 1_555
O20_4 Co11_2 1_555 1_555
O21_4 Co6_4 1_555 1_555
C15_4 O21_4 1_555 1_555
C16_4 C15_4 1_555 1_555
H25_4 C16_4 1_555 1_555
H26_4 C16_4 1_555 1_555
O26_4 Co6_4 1_555 1_555
Co8 O2_4 1_555 1_555
Co8 O6_4 1_555 1_555
O6_4 C5_4 1_555 1_555
O8_4 C7_4 1_555 1_555
O13_4 Co7_4 1_555 1_555
O14_4 Co7_4 1_555 1_555
Co6_4 O18_4 1_555 1_555
Co7_4 O21_4 1_555 1_555
Co7_4 O18_4 1_555 1_555
Co7_4 O20_4 1_555 1_555
Co1_2 O1_4 1_555 1_555
O1_4 H1_4 1_555 1_555
O5_2 Co1_2 1_555 1_555
O6_5 Co2_8 1_555 1_555
C5_5 O5_2 1_555 1_555
C6_5 C5_5 1_555 1_555
H8_5 C6_5 1_555 1_555
H9_5 C6_5 1_555 1_555
H10_5 C6_5 1_555 1_555
O26_2 C9_5 1_555 1_555
O11_5 Co2_8 1_555 1_555
C9_5 O11_5 1_555 1_555
C10_5 C9_5 1_555 1_555
H14_5 C10_5 1_555 1_555
O14_5 C13_5 1_555 1_555
O15_5 Co2_8 1_555 1_555
C13_5 O15_5 1_555 1_555
C14_5 C13_5 1_555 1_555
H20_5 C14_5 1_555 1_555
H21_5 C14_5 1_555 1_555
H22_5 C14_5 1_555 1_555
Co9_2 O11_5 1_555 1_555
Co8_2 O5_2 1_555 1_555
O17_4 Co1_2 1_555 1_555
O19_4 C15_5 1_555 1_555
C15_5 O21_5 1_555 1_555
C16_5 C15_5 1_555 1_555
H24_5 C16_5 1_555 1_555
H25_5 C16_5 1_555 1_555
H26_5 C16_5 1_555 1_555
O23_2 Co1_2 1_555 1_555
O24_2 Co1_2 1_555 1_555
H27_2 O23_2 1_555 1_555
O6_5 C5_5 1_555 1_555
O14_5 Co9_2 1_555 1_555
Co9_2 O21_5 1_555 1_555
Co8_2 O23_2 1_555 1_555
Co10_2 O23_2 1_555 1_555
Co2_9 O4_5 1_555 1_555
O3_4 C3_5 1_555 1_555
O4_5 Co3_4 1_555 1_555
O7_5 Co3_4 1_555 1_555
O8_5 Co2_9 1_555 1_555
O9_2 C1_5 1_555 1_555
C1_5 O2_5 1_555 1_555
C2_5 C1_5 1_555 1_555
C3_5 O4_5 1_555 1_555
C4_5 C3_5 1_555 1_555
C7_5 O7_5 1_555 1_555
C8_5 C7_5 1_555 1_555
H2_5 C2_5 1_555 1_555
H3_5 C2_5 1_555 1_555
H4_5 C2_5 1_555 1_555
H5_5 C4_5 1_555 1_555
H11_5 C8_5 1_555 1_555
H12_5 C8_5 1_555 1_555
H13_5 C8_5 1_555 1_555
O20_4 C11_5 1_555 1_555
O13_5 Co2_9 1_555 1_555
C11_5 O13_5 1_555 1_555
C12_5 C11_5 1_555 1_555
H17_5 C12_5 1_555 1_555
H18_5 C12_5 1_555 1_555
H19_5 C12_5 1_555 1_555
O16_4 Co3_4 1_555 1_555
Co3_4 O2_5 1_555 1_555
O3_4 Co5_3 1_555 1_555
O8_5 C7_5 1_555 1_555
Co5_3 O16_4 1_555 1_555
H5_6 C4_6 1_555 1_555
H6_6 C4_6 1_555 1_555
H7_6 C4_6 1_555 1_555
Co5_3 O1_5 1_555 1_555
Co2_10 O4_6 1_555 1_555
Co3_5 O1_5 1_555 1_555
O1_5 H1_5 1_555 1_555
O2_6 Co5_3 1_555 1_555
O4_6 Co3_5 1_555 1_555
O6_6 Co2_10 1_555 1_555
O7_6 Co3_5 1_555 1_555
O8_6 Co2_10 1_555 1_555
C1_6 O2_6 1_555 1_555
C2_6 C1_6 1_555 1_555
C3_6 O4_6 1_555 1_555
C5_6 O16_4 1_555 1_555
C6_6 C5_6 1_555 1_555
C7_6 O7_6 1_555 1_555
C8_6 C7_6 1_555 1_555
H3_6 C2_6 1_555 1_555
H4_6 C2_6 1_555 1_555
H8_6 C6_6 1_555 1_555
H9_6 C6_6 1_555 1_555
H10_6 C6_6 1_555 1_555
H11_6 C8_6 1_555 1_555
H12_6 C8_6 1_555 1_555
H13_6 C8_6 1_555 1_555
O26_3 C9_6 1_555 1_555
O11_6 Co2_10 1_555 1_555
C9_6 O11_6 1_555 1_555
C10_6 C9_6 1_555 1_555
H14_6 C10_6 1_555 1_555
H15_6 C10_6 1_555 1_555
H16_6 C10_6 1_555 1_555
O20 C11_6 1_555 1_555
O13_6 Co2_10 1_555 1_555
C11_6 O13_6 1_555 1_555
C12_6 C11_6 1_555 1_555
H17_6 C12_6 1_555 1_555
H18_6 C12_6 1_555 1_555
H19_6 C12_6 1_555 1_555
O14_6 C13_6 1_555 1_555
O15_6 Co2_10 1_555 1_555
C13_6 O15_6 1_555 1_555
C14_6 C13_6 1_555 1_555
H21_6 C14_6 1_555 1_555
Co5_4 O1_5 1_555 1_555
Co9_3 O11_6 1_555 1_555
O16_5 Co3_5 1_555 1_555
O21_6 Co4 1_555 1_555
O19 C15_6 1_555 1_555
C15_6 O21_6 1_555 1_555
C16_6 C15_6 1_555 1_555
H24_6 C16_6 1_555 1_555
H25_6 C16_6 1_555 1_555
H26_6 C16_6 1_555 1_555
Co3_5 O2_6 1_555 1_555
Co3_5 O6_6 1_555 1_555
O6_6 C5_6 1_555 1_555
O8_6 C7_6 1_555 1_555
O13_6 Co9_3 1_555 1_555
O14_6 Co9_3 1_555 1_555
Co5_4 O16_5 1_555 1_555
Co9_3 O21_6 1_555 1_555
O20_2 C11_7 1_555 1_555
O13_7 Co2_11 1_555 1_555
C11_7 O13_7 1_555 1_555
C12_7 C11_7 1_555 1_555
H17_7 C12_7 1_555 1_555
H18_7 C12_7 1_555 1_555
H19_7 C12_7 1_555 1_555
O14_7 C13_7 1_555 1_555
O15_7 Co2_13 1_555 1_555
C13_7 O15_7 1_555 1_555
C14_7 C13_7 1_555 1_555
H20_7 C14_7 1_555 1_555
H21_7 C14_7 1_555 1_555
O19_2 C15_7 1_555 1_555
C15_7 O21_7 1_555 1_555
C16_7 C15_7 1_555 1_555
H24_7 C16_7 1_555 1_555
H25_7 C16_7 1_555 1_555
H26_7 C16_7 1_555 1_555
O26_4 C9_7 1_555 1_555
O11_7 Co2_14 1_555 1_555
C9_7 O11_7 1_555 1_555
C10_7 C9_7 1_555 1_555
Co9_4 O11_7 1_555 1_555
Co2_15 O4_7 1_555 1_555
O3_6 C3_7 1_555 1_555
O4_7 Co3_6 1_555 1_555
C3_7 O4_7 1_555 1_555
C4_7 C3_7 1_555 1_555
O16_6 Co3_6 1_555 1_555
O3_6 Co10_2 1_555 1_555
Co10_2 O16_6 1_555 1_555
O8_7 Co2_16 1_555 1_555
O17_5 C1_7 1_555 1_555
C1_7 O2_7 1_555 1_555
C2_7 C1_7 1_555 1_555
C7_7 O7_7 1_555 1_555
C8_7 C7_7 1_555 1_555
H2_7 C2_7 1_555 1_555
H3_7 C2_7 1_555 1_555
H4_7 C2_7 1_555 1_555
H11_7 C8_7 1_555 1_555
H12_7 C8_7 1_555 1_555
O8_7 C7_7 1_555 1_555
O1_6 H1_6 1_555 1_555
O6_7 Co2_18 1_555 1_555
C5_7 O16_5 1_555 1_555
C6_7 C5_7 1_555 1_555
H8_7 C6_7 1_555 1_555
H9_7 C6_7 1_555 1_555
H10_7 C6_7 1_555 1_555
O6_7 C5_7 1_555 1_555
Co2_19 O4_8 1_555 1_555
O2_8 Co10_2 1_555 1_555
O24_2 C3_8 1_555 1_555
O4_8 Co8_2 1_555 1_555
O6_8 Co2_19 1_555 1_555
O7_8 Co8_2 1_555 1_555
O8_8 Co2_19 1_555 1_555
C1_8 O2_8 1_555 1_555
C2_8 C1_8 1_555 1_555
C3_8 O4_8 1_555 1_555
C4_8 C3_8 1_555 1_555
C5_8 O16_6 1_555 1_555
C6_8 C5_8 1_555 1_555
C7_8 O7_8 1_555 1_555
C8_8 C7_8 1_555 1_555
H3_8 C2_8 1_555 1_555
H4_8 C2_8 1_555 1_555
H5_8 C4_8 1_555 1_555
H6_8 C4_8 1_555 1_555
H7_8 C4_8 1_555 1_555
H8_8 C6_8 1_555 1_555
H9_8 C6_8 1_555 1_555
H10_8 C6_8 1_555 1_555
H12_8 C8_8 1_555 1_555
O11_8 Co2_19 1_555 1_555
C9_8 O11_8 1_555 1_555
O20_3 C11_8 1_555 1_555
O13_8 Co2_19 1_555 1_555
C11_8 O13_8 1_555 1_555
C12_8 C11_8 1_555 1_555
H17_8 C12_8 1_555 1_555
H18_8 C12_8 1_555 1_555
H19_8 C12_8 1_555 1_555
O14_8 C13_8 1_555 1_555
O15_8 Co2_19 1_555 1_555
C13_8 O15_8 1_555 1_555
C14_8 C13_8 1_555 1_555
H20_8 C14_8 1_555 1_555
H21_8 C14_8 1_555 1_555
H22_8 C14_8 1_555 1_555
Co9 O11_8 1_555 1_555
O21_8 Co11 1_555 1_555
O19_3 C15_8 1_555 1_555
C15_8 O21_8 1_555 1_555
C16_8 C15_8 1_555 1_555
H24_8 C16_8 1_555 1_555
H25_8 C16_8 1_555 1_555
H26_8 C16_8 1_555 1_555
Co8_2 O2_8 1_555 1_555
Co8_2 O6_8 1_555 1_555
O6_8 C5_8 1_555 1_555
O8_8 C7_8 1_555 1_555
O13_8 Co9 1_555 1_555
O14_8 Co9 1_555 1_555
Co9 O21_8 1_555 1_555
H14_8 C10_8 1_555 1_555
H15_8 C10_8 1_555 1_555
H16_8 C10_8 1_555 1_555

#END
