
###############################################################################
#
# This file contains modified crystal structure data generated from the
# MOF subset of the Cambridge Structural Database (CSD) v543 
# hosted by the Cambridge Crystallographic Data Centre (CCDC).
#
# This work is licensed under the Creative Commons
# Attribution-NonCommercial-ShareAlike 4.0 International License.
# To view a copy of this license, visit
# http://creativecommons.org/licenses/by-nc-sa/4.0/
# or send a letter to
# Creative Commons, PO Box 1866, Mountain View, CA 94042, USA.
#
# CIF created using the CSD Python API on 29 September 2022
# The structure has been converted into the P1 space group
# The structure has a 3D framework
# The original CSD entry CACBUG is in the triclinic crystal system
# The framework has been calculated to contain at least 10.0% void space
# The void calculation uses a probe of radius 1.32A, grid spacing 0.4
# The framework is charged, counterions have been retained in the structure
#
###############################################################################

data_CACBUG
_chemical_formula_moiety         '(C32 H24 N6 O10 Zn5 4+)n'
_symmetry_cell_setting           triclinic
_symmetry_space_group_name_H-M   'P 1'
_symmetry_Int_Tables_number      1
_space_group_name_Hall           'P 1'
loop_
_symmetry_equiv_pos_site_id
_symmetry_equiv_pos_as_xyz
1 x,y,z
_cell_length_a                   7.4083(15)
_cell_length_b                   10.890(2)
_cell_length_c                   13.632(3)
_cell_angle_alpha                66.67(3)
_cell_angle_beta                 78.17(3)
_cell_angle_gamma                71.78(3)
_cell_volume                     955.066
loop_
_atom_site_label
_atom_site_type_symbol
_atom_site_fract_x
_atom_site_fract_y
_atom_site_fract_z
Zn5 Zn -0.0000 0.5000 0.0000
O6 O 0.1649(3) 0.29837(18) 0.04172(14)
C21 C 0.0106(6) 0.5474(4) 0.5160(2)
C22 C 0.0179(5) 0.5326(4) 0.6267(2)
H15 H 0.0222 0.6331 0.4617
C23 C 0.0357(5) 0.6422(4) 0.6498(2)
C24 C 0.0092(5) 0.4093(3) 0.7149(2)
C25 C 0.0364(5) 0.6294(3) 0.7552(2)
H16 H 0.0474 0.7261 0.5930
H17 H 0.0005 0.3304 0.7041
C26 C 0.0134(4) 0.4051(3) 0.8170(2)
N8 N 0.0244(3) 0.5134(2) 0.83839(17)
H18 H 0.0459 0.7062 0.7687
H19 H 0.0082 0.3213 0.8755
Zn5_2 Zn -0.0000 0.5000 1.0000
N4 N 0.3109(3) 0.5208(2) 0.98413(16)
Zn2 Zn 0.5000 0.0000 0.0000
H6 H 0.817(5) 0.031(3) 0.014(3)
O7 O 0.2138(3) 0.0230(3) 0.0066(3)
O8 O 0.4598(3) 0.15767(17) 0.06264(14)
H13 H 0.133(4) 0.094(2) 0.012(3)
Zn2_2 Zn 0.5000 0.0000 1.0000
N7 N 0.4991(4) 0.1464(2) 0.83872(18)
Zn5_3 Zn 1.0000 0.5000 0.0000
N1 N 0.6891(3) 0.4792(2) 0.01587(16)
N2 N 0.9756(3) 0.4866(2) 0.16161(17)
C2 C 0.6139(4) 0.3709(3) 0.04385(19)
C4 C 0.9636(5) 0.3706(3) 0.2448(2)
C5 C 0.9866(4) 0.5949(3) 0.1830(2)
C6 C 0.7467(4) 0.2282(3) 0.0939(2)
H1 H 0.9541 0.2938 0.2313
C7 C 0.9643(5) 0.3578(4) 0.3502(2)
C8 C 0.9908(5) 0.5907(3) 0.2851(2)
H2 H 0.9918 0.6787 0.1245
Zn2_3 Zn 0.5000 1.0000 0.0000
O3 O 0.8596(3) 0.18140(19) 0.02686(16)
O4 O 0.7360(3) 0.1764(2) 0.19354(15)
H3 H 0.9526 0.2739 0.4070
C9 C 0.9821(5) 0.4674(4) 0.3733(2)
H4 H 0.9995 0.6696 0.2959
N3 N 0.5009(4) 0.8536(2) 0.16128(18)
C10 C 0.9894(6) 0.4526(4) 0.4840(2)
C11 C 0.4409(5) 0.7384(3) 0.1892(2)
C12 C 0.5600(5) 0.8747(3) 0.2387(2)
H7 H 0.9778 0.3669 0.5383
H8 H 0.3957 0.7236 0.1355
C13 C 0.4416(5) 0.6404(3) 0.2921(2)
C14 C 0.5600(5) 0.7837(3) 0.3442(2)
H9 H 0.6035 0.9550 0.2204
H10 H 0.4012 0.5595 0.3075
C15 C 0.5026(5) 0.6620(3) 0.3732(2)
H11 H 0.5990 0.8040 0.3971
C16 C 0.5072(6) 0.5656(3) 0.4839(2)
H12 H 0.5214 0.5971 0.5370
C17 C 0.4236(4) 0.3929(3) 0.02663(19)
C19 C 0.3407(4) 0.2724(3) 0.04713(19)
C27 C 0.4928(6) 0.4344(3) 0.5161(2)
C28 C 0.4974(5) 0.3380(3) 0.6268(2)
H20 H 0.4786 0.4029 0.4630
Zn5_4 Zn 1.0000 0.5000 1.0000
C29 C 0.5584(5) 0.3596(3) 0.7079(2)
C30 C 0.4400(5) 0.2163(3) 0.6558(2)
C31 C 0.5591(5) 0.2616(3) 0.8108(2)
H21 H 0.5988 0.4405 0.6925
H22 H 0.4010 0.1960 0.6029
C32 C 0.4400(5) 0.1253(3) 0.7613(2)
H23 H 0.6043 0.2764 0.8645
H24 H 0.3965 0.0450 0.7796
O1 O 0.8351(3) 0.70163(18) 0.95828(14)
C1 C 0.6593(4) 0.7276(3) 0.95287(19)
C3 C 0.5764(4) 0.6071(3) 0.97337(19)
O2 O 0.5402(3) 0.84233(17) 0.93736(14)
Zn2_4 Zn 0.5000 1.0000 1.0000
O5 O 0.7862(3) 0.9770(3) 0.9934(3)
H5 H 0.867(4) 0.906(2) 0.988(3)
C18 C 0.3861(4) 0.6291(3) 0.95615(19)
C20 C 0.2533(4) 0.7718(3) 0.9061(2)
O11 O 0.1404(3) 0.81860(19) 0.97314(16)
O12 O 0.2640(3) 0.8236(2) 0.80646(15)
H14 H 0.183(5) 0.969(3) 0.986(3)
loop_
_geom_bond_atom_site_label_1
_geom_bond_atom_site_label_2
_geom_bond_site_symmetry_1
_geom_bond_site_symmetry_2
O6 Zn5 1_555 1_555
C22 C21 1_555 1_555
H15 C21 1_555 1_555
C23 C22 1_555 1_555
C24 C22 1_555 1_555
C25 C23 1_555 1_555
H16 C23 1_555 1_555
H17 C24 1_555 1_555
C26 C24 1_555 1_555
N8 C25 1_555 1_555
H18 C25 1_555 1_555
H19 C26 1_555 1_555
Zn5_2 N8 1_555 1_555
C26 N8 1_555 1_555
N4 Zn5_2 1_555 1_555
O7 Zn2 1_555 1_555
O8 Zn2 1_555 1_555
H13 O7 1_555 1_555
N7 Zn2_2 1_555 1_555
N1 Zn5_3 1_555 1_555
N2 Zn5_3 1_555 1_555
C2 N1 1_555 1_555
C4 N2 1_555 1_555
C5 N2 1_555 1_555
C6 C2 1_555 1_555
H1 C4 1_555 1_555
C7 C4 1_555 1_555
C8 C5 1_555 1_555
H2 C5 1_555 1_555
O3 C6 1_555 1_555
O4 C6 1_555 1_555
H3 C7 1_555 1_555
C9 C7 1_555 1_555
H4 C8 1_555 1_555
N3 Zn2_3 1_555 1_555
C10 C9 1_555 1_555
C11 N3 1_555 1_555
C12 N3 1_555 1_555
H7 C10 1_555 1_555
H8 C11 1_555 1_555
C13 C11 1_555 1_555
C14 C12 1_555 1_555
H9 C12 1_555 1_555
H10 C13 1_555 1_555
C15 C13 1_555 1_555
H11 C14 1_555 1_555
C16 C15 1_555 1_555
H12 C16 1_555 1_555
C17 C2 1_555 1_555
C19 C17 1_555 1_555
O6 C19 1_555 1_555
O8 C19 1_555 1_555
C27 C16 1_555 1_555
C28 C27 1_555 1_555
H20 C27 1_555 1_555
C29 C28 1_555 1_555
C30 C28 1_555 1_555
C31 C29 1_555 1_555
H21 C29 1_555 1_555
H22 C30 1_555 1_555
C32 C30 1_555 1_555
N7 C31 1_555 1_555
H23 C31 1_555 1_555
H24 C32 1_555 1_555
C8 C9 1_555 1_555
C14 C15 1_555 1_555
C32 N7 1_555 1_555
Zn5_4 O1 1_555 1_555
O1 C1 1_555 1_555
C1 C3 1_555 1_555
O2 C1 1_555 1_555
Zn2_4 O2 1_555 1_555
O5 Zn2_4 1_555 1_555
H5 O5 1_555 1_555
C18 C3 1_555 1_555
C20 C18 1_555 1_555
O11 C20 1_555 1_555
O12 C20 1_555 1_555
C18 N4 1_555 1_555

#END
