
###############################################################################
#
# This file contains modified crystal structure data generated from the
# MOF subset of the Cambridge Structural Database (CSD) v543 
# hosted by the Cambridge Crystallographic Data Centre (CCDC).
#
# This work is licensed under the Creative Commons
# Attribution-NonCommercial-ShareAlike 4.0 International License.
# To view a copy of this license, visit
# http://creativecommons.org/licenses/by-nc-sa/4.0/
# or send a letter to
# Creative Commons, PO Box 1866, Mountain View, CA 94042, USA.
#
# CIF created using the CSD Python API on 29 September 2022
# The structure has been converted into the P1 space group
# The structure has a 3D framework
# The original CSD entry CACMIG is in the monoclinic crystal system
# The framework has been calculated to contain at least 10.0% void space
# The void calculation uses a probe of radius 1.32A, grid spacing 0.4
#
###############################################################################

data_CACMIG
_chemical_formula_moiety         '(C216 H144 N40 O32 Zn8)n'
_symmetry_cell_setting           triclinic
_symmetry_space_group_name_H-M   'P 1'
_symmetry_Int_Tables_number      1
_space_group_name_Hall           'P 1'
loop_
_symmetry_equiv_pos_site_id
_symmetry_equiv_pos_as_xyz
1 x,y,z
_cell_length_a                   26.7904(4)
_cell_length_b                   9.78740(10)
_cell_length_c                   25.7219(5)
_cell_angle_alpha                90
_cell_angle_beta                 106.309(2)
_cell_angle_gamma                90
_cell_volume                     6473.11
loop_
_atom_site_label
_atom_site_type_symbol
_atom_site_fract_x
_atom_site_fract_y
_atom_site_fract_z
N1 N 0.75821(10) 0.5048(3) 0.58180(10)
C1 C 0.75274(11) 0.2761(3) 0.51495(12)
C3 C 0.74907(11) 0.1553(3) 0.47928(12)
C13 C 0.73174(12) 0.0286(3) 0.49155(12)
H2 H 0.7214 0.0180 0.5230
C14 C 0.76590(12) 0.5163(3) 0.53260(12)
H3 H 0.7734 0.6020 0.5210
C25 C 0.76313(12) 0.4061(3) 0.49862(12)
H9 H 0.7682 0.4185 0.4646
C29 C 0.74912(13) 0.3793(3) 0.59855(13)
H12 H 0.7444 0.3697 0.6328
C36 C 0.74661(13) 0.2650(3) 0.56698(13)
H19 H 0.7408 0.1799 0.5803
C43 C 0.76169(14) 0.0488(4) 0.39995(14)
H26 H 0.7723 0.0563 0.3686
C47 C 0.76377(15) 0.1633(4) 0.43138(14)
H29 H 0.7750 0.2460 0.4208
Zn5 Zn 0.75578(2) 0.68277(4) 0.62416(2)
O2 O 0.17934(9) 0.7324(3) 0.12882(10)
O3 O 0.17948(9) 0.6604(3) 0.04693(10)
C15 C 0.09813(12) 0.7167(3) 0.06185(13)
C19 C 0.15596(12) 0.7008(3) 0.07918(14)
C23 C 0.01936(12) 0.8168(3) 0.07328(13)
H8 H 0.0030 0.8695 0.0937
C31 C 0.07234(12) 0.7917(3) 0.09221(13)
H14 H 0.0909 0.8256 0.1258
C35 C 0.06913(13) 0.6638(3) 0.01250(14)
Zn3 Zn 0.25283(2) 0.75694(4) 0.13345(2)
Zn2 Zn 0.75578(2) 0.31723(4) 0.12416(2)
O1 O 0.80607(9) 0.2142(2) 0.09861(9)
O4 O 0.68187(9) 0.2281(3) 0.03939(10)
O5 O 0.30904(9) 0.6575(3) 0.11823(11)
O6 O 0.27898(10) 0.4626(3) 0.14186(10)
O7 O 0.68242(9) 0.2930(3) 0.12189(10)
N4 N 0.25473(10) 0.9276(3) 0.08790(10)
O8 O 0.79404(14) 0.0331(3) 0.14448(15)
N5 N 0.43684(11) 0.2461(3) 0.01289(11)
C2 C 0.27029(12) 0.9188(3) 0.04252(12)
H1 H 0.2828 0.8358 0.0339
C4 C 0.49112(12) 0.2520(3) 0.02755(13)
C6 C 0.60046(12) 0.2563(3) 0.05826(13)
C9 C 0.81412(12) 0.0901(3) 0.11272(13)
C11 C 0.65860(12) 0.2582(3) 0.07304(13)
C16 C 0.84898(11) 0.0127(3) 0.08643(12)
C22 C 0.57313(13) 0.2965(3) 0.09374(13)
H7 H 0.5914 0.3241 0.1285
C24 C 0.30873(12) 0.5276(4) 0.12230(13)
C27 C 0.34620(12) 0.4553(4) 0.09767(13)
C28 C 0.86210(12) 0.0690(3) 0.04242(13)
H11 H 0.8511 0.1568 0.0308
C32 C 0.57284(13) 0.2131(4) 0.00653(13)
C34 C 0.51919(13) 0.2969(4) 0.07914(13)
H17 H 0.5017 0.3268 0.1036
C40 C 0.35667(14) 0.3166(4) 0.10642(15)
H23 H 0.3428 0.2693 0.1305
C41 C 0.38725(14) 0.2484(3) 0.07993(14)
H24 H 0.3938 0.1556 0.0861
C44 C 0.40839(12) 0.3178(4) 0.04412(13)
C48 C 0.36712(19) 0.5223(4) 0.0610(2)
H30 H 0.3599 0.6145 0.0539
C54 C 0.3982(2) 0.4553(5) 0.0354(2)
H36 H 0.4125 0.5029 0.0118
N11 N 0.75821(10) 0.4952(3) 0.08180(10)
N12 N 0.78800(11) 0.3639(3) 0.20390(11)
N13 N 0.27668(12) 0.8123(3) 0.21293(12)
N3 N 0.31192(11) 0.1683(3) 0.79944(11)
N8 N 0.27668(12) 0.1877(3) 0.71293(12)
C5 C 0.40796(12) 0.2244(4) 0.95746(13)
C18 C 0.34614(12) 0.1858(3) 0.85291(13)
C26 C 0.51866(13) 0.2092(4) 0.99124(13)
H10 H 0.5007 0.1782 0.9569
H15 H 0.5907 0.1867 0.9820
C37 C 0.31699(13) 0.2190(4) 0.75241(13)
H20 H 0.3453 0.2692 0.7489
H21 H 0.8998 0.0331 0.9862
N10 N 0.24263(16) 0.1160(5) 0.73396(14)
C49 C 0.38011(19) 0.1046(4) 0.94283(15)
H31 H 0.3818 0.0370 0.9687
C50 C 0.26459(18) 0.1070(6) 0.78549(16)
H32 H 0.2498 0.0640 0.8099
C51 C 0.3498(2) 0.0843(4) 0.89015(15)
H33 H 0.3320 0.0024 0.8803
C52 C 0.4046(2) 0.3225(5) 0.91853(18)
H34 H 0.4242 0.4020 0.9274
C53 C 0.37278(19) 0.3055(5) 0.86642(17)
H35 H 0.3696 0.3747 0.8409
Zn4 Zn 0.25283(2) 0.24306(4) 0.63345(2)
N2 N 0.82690(11) 0.6367(3) 0.79044(10)
N7 N 0.78800(11) 0.6361(3) 0.70390(11)
N9 N 0.78096(14) 0.5074(3) 0.72390(12)
C8 C 0.90973(12) 0.7517(3) 0.94877(13)
C10 C 0.85506(12) 0.6786(3) 0.84421(12)
C17 C 0.87246(12) 0.6493(3) 0.93991(13)
H4 H 0.8662 0.6038 0.9692
C20 C 0.84457(13) 0.6145(3) 0.88778(13)
H5 H 0.8188 0.5480 0.8821
C21 C 0.81519(12) 0.7118(3) 0.74456(13)
H6 H 0.8248 0.8023 0.7420
C30 C 0.91924(14) 0.8178(4) 0.90460(15)
H13 H 0.9438 0.8874 0.9103
H16 H 0.9976 0.6432 0.9612
C39 C 0.89256(14) 0.7810(4) 0.85232(14)
H22 H 0.8996 0.8241 0.8229
C45 C 0.80553(17) 0.5106(4) 0.77565(14)
H27 H 0.8081 0.4371 0.7992
O2_2 O 0.17934(9) 0.2676(3) 0.62882(10)
O3_2 O 0.17948(9) 0.3396(3) 0.54693(10)
C15_2 C 0.09813(12) 0.2833(3) 0.56185(13)
C19_2 C 0.15596(12) 0.2992(3) 0.57918(14)
C23_2 C 0.01936(12) 0.1832(3) 0.57328(13)
H8_2 H 0.0030 0.1305 0.5937
C31_2 C 0.07234(12) 0.2083(3) 0.59221(13)
H14_2 H 0.0909 0.1744 0.6258
C33 C 0.01621(13) 0.3168(3) 0.49370(14)
C35_2 C 0.06913(13) 0.3362(3) 0.51250(14)
H18 H 0.0859 0.3860 0.4916
N2_2 N 0.82690(11) 0.3633(3) 0.29044(10)
N6 N 0.93705(10) 0.2132(3) 0.50316(11)
N9_2 N 0.78096(14) 0.4926(3) 0.22390(12)
C7 C 0.99029(12) 0.2371(3) 0.52324(13)
C8_2 C 0.90973(12) 0.2483(3) 0.44877(13)
C10_2 C 0.85506(12) 0.3214(3) 0.34421(12)
C12 C 0.90875(11) 0.1361(3) 0.53301(12)
C17_2 C 0.87246(12) 0.3507(3) 0.43991(13)
H4_2 H 0.8662 0.3962 0.4692
C20_2 C 0.84457(13) 0.3855(3) 0.38778(13)
H5_2 H 0.8188 0.4520 0.3821
C21_2 C 0.81519(12) 0.2882(3) 0.24456(13)
H6_2 H 0.8248 0.1977 0.2420
C30_2 C 0.91924(14) 0.1822(4) 0.40460(15)
H13_2 H 0.9438 0.1126 0.4103
H16_2 H 0.9976 0.3568 0.4612
C38 C 0.89151(13) 0.0051(3) 0.51584(13)
C39_2 C 0.89256(14) 0.2190(4) 0.35232(14)
H22_2 H 0.8996 0.1759 0.3229
C42 C 0.86669(14) 0.1177(3) 0.60386(15)
H25 H 0.8585 0.1558 0.6335
C45_2 C 0.80553(17) 0.4894(4) 0.27565(14)
H27_2 H 0.8081 0.5629 0.2992
C46 C 0.89644(14) 0.1914(3) 0.57747(15)
H28 H 0.9082 0.2783 0.5896
O1_2 O 0.80607(9) 0.7858(2) 0.59861(9)
O4_2 O 0.68187(9) 0.7719(3) 0.53939(10)
O5_2 O 0.30904(9) 0.3425(3) 0.61823(11)
O6_2 O 0.27898(10) 0.5374(3) 0.64186(10)
O7_2 O 0.68242(9) 0.7070(3) 0.62189(10)
N3_2 N 0.31192(11) 0.8317(3) 0.29944(11)
N4_2 N 0.25473(10) 0.0724(3) 0.58790(10)
O8_2 O 0.79404(14) 0.9669(3) 0.64448(15)
N5_2 N 0.43684(11) 0.7539(3) 0.51289(11)
C2_2 C 0.27029(12) 0.0812(3) 0.54252(12)
H1_2 H 0.2828 0.1642 0.5339
C4_2 C 0.49112(12) 0.7480(3) 0.52755(13)
C5_2 C 0.40796(12) 0.7756(4) 0.45746(13)
C6_2 C 0.60046(12) 0.7437(3) 0.55826(13)
C9_2 C 0.81412(12) 0.9099(3) 0.61272(13)
C11_2 C 0.65860(12) 0.7418(3) 0.57304(13)
C16_2 C 0.84898(11) 0.9873(3) 0.58643(12)
C18_2 C 0.34614(12) 0.8142(3) 0.35291(13)
C22_2 C 0.57313(13) 0.7035(3) 0.59374(13)
H7_2 H 0.5914 0.6759 0.6285
C24_2 C 0.30873(12) 0.4724(4) 0.62230(13)
C26_2 C 0.51866(13) 0.7908(4) 0.49124(13)
H10_2 H 0.5007 0.8218 0.4569
C27_2 C 0.34620(12) 0.5447(4) 0.59767(13)
C28_2 C 0.86210(12) 0.9310(3) 0.54242(13)
H11_2 H 0.8511 0.8432 0.5308
C32_2 C 0.57284(13) 0.7869(4) 0.50653(13)
H15_2 H 0.5907 0.8133 0.4820
C34_2 C 0.51919(13) 0.7031(4) 0.57914(13)
H17_2 H 0.5017 0.6732 0.6036
C37_2 C 0.31699(13) 0.7810(4) 0.25241(13)
H20_2 H 0.3453 0.7308 0.2489
H21_2 H 0.8998 0.9669 0.4862
C40_2 C 0.35667(14) 0.6834(4) 0.60642(15)
H23_2 H 0.3428 0.7307 0.6305
C41_2 C 0.38725(14) 0.7516(3) 0.57993(14)
H24_2 H 0.3938 0.8444 0.5861
C44_2 C 0.40839(12) 0.6822(4) 0.54412(13)
N10_2 N 0.24263(16) 0.8840(5) 0.23396(14)
C48_2 C 0.36712(19) 0.4777(4) 0.5610(2)
H30_2 H 0.3599 0.3855 0.5539
C49_2 C 0.38011(19) 0.8954(4) 0.44283(15)
H31_2 H 0.3818 0.9630 0.4687
C50_2 C 0.26459(18) 0.8930(6) 0.28549(16)
H32_2 H 0.2498 0.9360 0.3099
C51_2 C 0.3498(2) 0.9157(4) 0.39015(15)
H33_2 H 0.3320 0.9976 0.3803
C52_2 C 0.4046(2) 0.6775(5) 0.41853(18)
H34_2 H 0.4242 0.5980 0.4274
C53_2 C 0.37278(19) 0.6945(5) 0.36642(17)
H35_2 H 0.3696 0.6253 0.3409
C54_2 C 0.3982(2) 0.5447(5) 0.5354(2)
H36_2 H 0.4125 0.4971 0.5118
C1_2 C 0.75274(11) 0.7239(3) 0.01495(12)
H2_2 H 0.7214 0.9820 0.0230
C14_2 C 0.76590(12) 0.4837(3) 0.03260(12)
H3_2 H 0.7734 0.3980 0.0210
C29_2 C 0.74912(13) 0.6207(3) 0.09855(13)
H12_2 H 0.7444 0.6303 0.1328
C36_2 C 0.74661(13) 0.7350(3) 0.06698(13)
H19_2 H 0.7408 0.8201 0.0803
Zn1 Zn 0.74717(2) 0.75694(4) 0.36655(2)
Zn2_2 Zn 0.24422(2) 0.31723(4) 0.37584(2)
O1_3 O 0.19393(9) 0.2142(2) 0.40139(9)
O4_3 O 0.31813(9) 0.2281(3) 0.46061(10)
O5_3 O 0.69096(9) 0.6575(3) 0.38177(11)
O6_3 O 0.72102(10) 0.4626(3) 0.35814(10)
O7_3 O 0.31758(9) 0.2930(3) 0.37811(10)
N3_3 N 0.68808(11) 0.1683(3) 0.70056(11)
N4_3 N 0.74527(10) 0.9276(3) 0.41210(10)
O8_3 O 0.20596(14) 0.0331(3) 0.35552(15)
N5_3 N 0.56316(11) 0.2461(3) 0.48711(11)
N8_2 N 0.72332(12) 0.1877(3) 0.78707(12)
C2_3 C 0.72971(12) 0.9188(3) 0.45748(12)
H1_3 H 0.7172 0.8358 0.4661
C4_3 C 0.50888(12) 0.2520(3) 0.47245(13)
C5_3 C 0.59204(12) 0.2244(4) 0.54254(13)
C6_3 C 0.39954(12) 0.2563(3) 0.44174(13)
C9_3 C 0.18588(12) 0.0901(3) 0.38728(13)
C11_3 C 0.34140(12) 0.2582(3) 0.42696(13)
C16_3 C 0.15102(11) 0.0127(3) 0.41357(12)
C18_3 C 0.65386(12) 0.1858(3) 0.64709(13)
C22_3 C 0.42687(13) 0.2965(3) 0.40626(13)
H7_3 H 0.4086 0.3241 0.3715
C24_3 C 0.69127(12) 0.5276(4) 0.37770(13)
C26_3 C 0.48134(13) 0.2092(4) 0.50876(13)
H10_3 H 0.4993 0.1782 0.5431
C27_3 C 0.65380(12) 0.4553(4) 0.40233(13)
C28_3 C 0.13790(12) 0.0690(3) 0.45758(13)
H11_3 H 0.1489 0.1568 0.4692
C32_3 C 0.42716(13) 0.2131(4) 0.49347(13)
H15_3 H 0.4093 0.1867 0.5180
C34_3 C 0.48081(13) 0.2969(4) 0.42086(13)
H17_3 H 0.4983 0.3268 0.3964
C37_3 C 0.68301(13) 0.2190(4) 0.74759(13)
H20_3 H 0.6547 0.2692 0.7511
H21_3 H 0.1002 0.0331 0.5138
C40_3 C 0.64333(14) 0.3166(4) 0.39358(15)
H23_3 H 0.6572 0.2693 0.3695
C41_3 C 0.61275(14) 0.2484(3) 0.42007(14)
H24_3 H 0.6062 0.1556 0.4139
C44_3 C 0.59161(12) 0.3178(4) 0.45588(13)
N10_3 N 0.75737(16) 0.1160(5) 0.76604(14)
C48_3 C 0.63288(19) 0.5223(4) 0.4390(2)
H30_3 H 0.6401 0.6145 0.4461
C49_3 C 0.61989(19) 0.1046(4) 0.55717(15)
H31_3 H 0.6182 0.0370 0.5313
C50_3 C 0.73541(18) 0.1070(6) 0.71451(16)
H32_3 H 0.7502 0.0640 0.6901
C51_3 C 0.6502(2) 0.0843(4) 0.60985(15)
H33_3 H 0.6680 0.0024 0.6197
C52_3 C 0.5954(2) 0.3225(5) 0.58147(18)
H34_3 H 0.5758 0.4020 0.5726
C53_3 C 0.62722(19) 0.3055(5) 0.63358(17)
H35_3 H 0.6304 0.3747 0.6591
C54_3 C 0.6018(2) 0.4553(5) 0.4646(2)
H36_3 H 0.5875 0.5029 0.4882
Zn4_2 Zn 0.74717(2) 0.24306(4) 0.86655(2)
O9 O 0.82066(9) 0.7324(3) 0.37118(10)
N11_2 N 0.24179(10) 0.4952(3) 0.41820(10)
N12_2 N 0.21200(11) 0.3639(3) 0.29610(11)
N13_2 N 0.72332(12) 0.8123(3) 0.28707(12)
N2_3 N 0.17310(11) 0.6367(3) 0.70956(10)
N6_2 N 0.06295(10) 0.7868(3) 0.49684(11)
N7_2 N 0.21200(11) 0.6361(3) 0.79610(11)
N9_3 N 0.21904(14) 0.5074(3) 0.77610(12)
C7_2 C 0.00971(12) 0.7629(3) 0.47676(13)
C8_3 C 0.09027(12) 0.7517(3) 0.55123(13)
C10_3 C 0.14494(12) 0.6786(3) 0.65579(12)
C12_2 C 0.09125(11) 0.8639(3) 0.46699(12)
C17_3 C 0.12754(12) 0.6493(3) 0.56009(13)
H4_3 H 0.1338 0.6038 0.5308
C20_3 C 0.15543(13) 0.6145(3) 0.61222(13)
H5_3 H 0.1812 0.5480 0.6179
C21_3 C 0.18481(12) 0.7118(3) 0.75544(13)
H6_3 H 0.1752 0.8023 0.7580
C30_3 C 0.08076(14) 0.8178(4) 0.59540(15)
H13_3 H 0.0562 0.8874 0.5897
H16_3 H 0.0024 0.6432 0.5388
C38_2 C 0.10849(13) 0.9949(3) 0.48416(13)
C39_3 C 0.10744(14) 0.7810(4) 0.64768(14)
H22_3 H 0.1004 0.8241 0.6771
C42_2 C 0.13331(14) 0.8823(3) 0.39614(15)
H25_2 H 0.1415 0.8442 0.3665
C45_3 C 0.19447(17) 0.5106(4) 0.72435(14)
H27_3 H 0.1919 0.4371 0.7008
C46_2 C 0.10356(14) 0.8086(3) 0.42253(15)
H28_2 H 0.0918 0.7217 0.4104
Zn6 Zn 0.24422(2) 0.68277(4) 0.87584(2)
O3_3 O 0.82052(9) 0.6604(3) 0.45307(10)
C15_3 C 0.90187(12) 0.7167(3) 0.43815(13)
C19_3 C 0.84404(12) 0.7008(3) 0.42082(14)
C23_3 C 0.98064(12) 0.8168(3) 0.42672(13)
H8_3 H 0.9970 0.8695 0.4063
C31_3 C 0.92766(12) 0.7917(3) 0.40779(13)
H14_3 H 0.9091 0.8256 0.3742
C33_2 C 0.98379(13) 0.6832(3) 0.50630(14)
C35_3 C 0.93087(13) 0.6638(3) 0.48750(14)
H18_2 H 0.9141 0.6140 0.5084
N1_2 N 0.24179(10) 0.5048(3) 0.91820(10)
C1_3 C 0.24726(11) 0.2761(3) 0.98505(12)
H2_3 H 0.2786 0.0180 0.9770
C14_3 C 0.23410(12) 0.5163(3) 0.96740(12)
H3_3 H 0.2266 0.6020 0.9790
C29_3 C 0.25088(13) 0.3793(3) 0.90145(13)
H12_3 H 0.2556 0.3697 0.8672
C36_3 C 0.25339(13) 0.2650(3) 0.93302(13)
H19_3 H 0.2592 0.1799 0.9197
C1_4 C 0.24726(11) 0.7239(3) 0.48505(12)
C3_2 C 0.25093(11) 0.8447(3) 0.52072(12)
C13_2 C 0.26826(12) 0.9714(3) 0.50845(12)
H2_4 H 0.2786 0.9820 0.4770
C14_4 C 0.23410(12) 0.4837(3) 0.46740(12)
H3_4 H 0.2266 0.3980 0.4790
C25_2 C 0.23687(12) 0.5939(3) 0.50138(12)
H9_2 H 0.2318 0.5815 0.5354
C29_4 C 0.25088(13) 0.6207(3) 0.40145(13)
H12_4 H 0.2556 0.6303 0.3672
C36_4 C 0.25339(13) 0.7350(3) 0.43302(13)
H19_4 H 0.2592 0.8201 0.4197
C43_2 C 0.23831(14) 0.9512(4) 0.60005(14)
H26_2 H 0.2277 0.9437 0.6314
C47_2 C 0.23623(15) 0.8367(4) 0.56862(14)
H29_2 H 0.2250 0.7540 0.5792
N2_4 N 0.17310(11) 0.3633(3) 0.20956(10)
N9_4 N 0.21904(14) 0.4926(3) 0.27610(12)
C8_4 C 0.09027(12) 0.2483(3) 0.05123(13)
C10_4 C 0.14494(12) 0.3214(3) 0.15579(12)
C17_4 C 0.12754(12) 0.3507(3) 0.06009(13)
H4_4 H 0.1338 0.3962 0.0308
C20_4 C 0.15543(13) 0.3855(3) 0.11222(13)
H5_4 H 0.1812 0.4520 0.1179
C21_4 C 0.18481(12) 0.2882(3) 0.25544(13)
H6_4 H 0.1752 0.1977 0.2580
C30_4 C 0.08076(14) 0.1822(4) 0.09540(15)
H13_4 H 0.0562 0.1126 0.0897
H16_4 H 0.0024 0.3568 0.0388
C39_4 C 0.10744(14) 0.2190(4) 0.14768(14)
H22_4 H 0.1004 0.1759 0.1771
C45_4 C 0.19447(17) 0.4894(4) 0.22435(14)
H27_4 H 0.1919 0.5629 0.2008
N3_4 N 0.68808(11) 0.8317(3) 0.20056(11)
C5_4 C 0.59204(12) 0.7756(4) 0.04254(13)
C18_4 C 0.65386(12) 0.8142(3) 0.14709(13)
C26_4 C 0.48134(13) 0.7908(4) 0.00876(13)
H10_4 H 0.4993 0.8218 0.0431
H15_4 H 0.4093 0.8133 0.0180
C37_4 C 0.68301(13) 0.7810(4) 0.24759(13)
H20_4 H 0.6547 0.7308 0.2511
H21_4 H 0.1002 0.9669 0.0138
N10_4 N 0.75737(16) 0.8840(5) 0.26604(14)
C49_4 C 0.61989(19) 0.8954(4) 0.05717(15)
H31_4 H 0.6182 0.9630 0.0313
C50_4 C 0.73541(18) 0.8930(6) 0.21451(16)
H32_4 H 0.7502 0.9360 0.1901
C51_4 C 0.6502(2) 0.9157(4) 0.10985(15)
H33_4 H 0.6680 0.9976 0.1197
C52_4 C 0.5954(2) 0.6775(5) 0.08147(18)
H34_4 H 0.5758 0.5980 0.0726
C53_4 C 0.62722(19) 0.6945(5) 0.13358(17)
H35_4 H 0.6304 0.6253 0.1591
O1_4 O 0.19393(9) 0.7858(2) 0.90139(9)
O4_4 O 0.31813(9) 0.7719(3) 0.96061(10)
O5_4 O 0.69096(9) 0.3425(3) 0.88177(11)
O6_4 O 0.72102(10) 0.5374(3) 0.85814(10)
O7_4 O 0.31758(9) 0.7070(3) 0.87811(10)
N4_4 N 0.74527(10) 0.0724(3) 0.91210(10)
O8_4 O 0.20596(14) 0.9669(3) 0.85552(15)
N5_4 N 0.56316(11) 0.7539(3) 0.98711(11)
C2_4 C 0.72971(12) 0.0812(3) 0.95748(12)
H1_4 H 0.7172 0.1642 0.9661
C4_4 C 0.50888(12) 0.7480(3) 0.97245(13)
C6_4 C 0.39954(12) 0.7437(3) 0.94174(13)
C9_4 C 0.18588(12) 0.9099(3) 0.88728(13)
C11_4 C 0.34140(12) 0.7418(3) 0.92696(13)
C16_4 C 0.15102(11) 0.9873(3) 0.91357(12)
C22_4 C 0.42687(13) 0.7035(3) 0.90626(13)
H7_4 H 0.4086 0.6759 0.8715
C24_4 C 0.69127(12) 0.4724(4) 0.87770(13)
C27_4 C 0.65380(12) 0.5447(4) 0.90233(13)
C28_4 C 0.13790(12) 0.9310(3) 0.95758(13)
H11_4 H 0.1489 0.8432 0.9692
C32_4 C 0.42716(13) 0.7869(4) 0.99347(13)
C34_4 C 0.48081(13) 0.7031(4) 0.92086(13)
H17_4 H 0.4983 0.6732 0.8964
C40_4 C 0.64333(14) 0.6834(4) 0.89358(15)
H23_4 H 0.6572 0.7307 0.8695
C41_4 C 0.61275(14) 0.7516(3) 0.92007(14)
H24_4 H 0.6062 0.8444 0.9139
C44_4 C 0.59161(12) 0.6822(4) 0.95588(13)
C48_4 C 0.63288(19) 0.4777(4) 0.9390(2)
H30_4 H 0.6401 0.3855 0.9461
C54_4 C 0.6018(2) 0.5447(5) 0.9646(2)
H36_4 H 0.5875 0.4971 0.9882
O9_2 O 0.82066(9) 0.2676(3) 0.87118(10)
O3_4 O 0.82052(9) 0.3396(3) 0.95307(10)
C15_4 C 0.90187(12) 0.2833(3) 0.93815(13)
C19_4 C 0.84404(12) 0.2992(3) 0.92082(14)
C23_4 C 0.98064(12) 0.1832(3) 0.92672(13)
H8_4 H 0.9970 0.1305 0.9063
C31_4 C 0.92766(12) 0.2083(3) 0.90779(13)
H14_4 H 0.9091 0.1744 0.8742
C35_4 C 0.93087(13) 0.3362(3) 0.98750(14)
C33_3 C 0.01621(13) 0.6832(3) 0.99370(14)
H18_3 H 0.0859 0.6140 0.9916
C3_3 C 0.25093(11) 0.1553(3) 0.02072(12)
C13_3 C 0.26826(12) 0.0286(3) 0.00845(12)
C25_3 C 0.23687(12) 0.4061(3) 0.00138(12)
H9_3 H 0.2318 0.4185 0.0354
C43_3 C 0.23831(14) 0.0488(4) 0.10005(14)
H26_3 H 0.2277 0.0563 0.1314
C47_3 C 0.23623(15) 0.1633(4) 0.06862(14)
H29_3 H 0.2250 0.2460 0.0792
N6_3 N 0.93705(10) 0.7868(3) 0.00316(11)
C7_3 C 0.99029(12) 0.7629(3) 0.02324(13)
C12_3 C 0.90875(11) 0.8639(3) 0.03301(12)
C38_3 C 0.89151(13) 0.9949(3) 0.01584(13)
C42_3 C 0.86669(14) 0.8823(3) 0.10386(15)
H25_3 H 0.8585 0.8442 0.1335
C46_3 C 0.89644(14) 0.8086(3) 0.07747(15)
H28_3 H 0.9082 0.7217 0.0896
N6_4 N 0.06295(10) 0.2132(3) 0.99684(11)
C7_4 C 0.00971(12) 0.2371(3) 0.97676(13)
C12_4 C 0.09125(11) 0.1361(3) 0.96699(12)
C38_4 C 0.10849(13) 0.0051(3) 0.98416(13)
C42_4 C 0.13331(14) 0.1177(3) 0.89614(15)
H25_4 H 0.1415 0.1558 0.8665
C46_4 C 0.10356(14) 0.1914(3) 0.92253(15)
H28_4 H 0.0918 0.2783 0.9104
C3_4 C 0.74907(11) 0.8447(3) 0.97928(12)
C13_4 C 0.73174(12) 0.9714(3) 0.99155(12)
C25_4 C 0.76313(12) 0.5939(3) 0.99862(12)
H9_4 H 0.7682 0.5815 0.9646
C43_4 C 0.76169(14) 0.9512(4) 0.89995(14)
H26_4 H 0.7723 0.9437 0.8686
C47_4 C 0.76377(15) 0.8367(4) 0.93138(14)
H29_4 H 0.7750 0.7540 0.9208
C33_4 C 0.98379(13) 0.3168(3) 0.00630(14)
H18_4 H 0.9141 0.3860 0.0084
loop_
_geom_bond_atom_site_label_1
_geom_bond_atom_site_label_2
_geom_bond_site_symmetry_1
_geom_bond_site_symmetry_2
N1 C14 1_555 1_555
C1 C3 1_555 1_555
C3 C13 1_555 1_555
H2 C13 1_555 1_555
C14 H3 1_555 1_555
C25 C1 1_555 1_555
H9 C25 1_555 1_555
C29 N1 1_555 1_555
H12 C29 1_555 1_555
C36 C1 1_555 1_555
H19 C36 1_555 1_555
H26 C43 1_555 1_555
C47 C3 1_555 1_555
H29 C47 1_555 1_555
Zn5 N1 1_555 1_555
C14 C25 1_555 1_555
C29 C36 1_555 1_555
C43 C47 1_555 1_555
O2 C19 1_555 1_555
O3 C19 1_555 1_555
C15 C19 1_555 1_555
C23 H8 1_555 1_555
C31 C15 1_555 1_555
H14 C31 1_555 1_555
C35 C15 1_555 1_555
Zn3 O2 1_555 1_555
C23 C31 1_555 1_555
Zn3 O5 1_555 1_555
Zn2 O1 1_555 1_555
O1 C9 1_555 1_555
O4 C11 1_555 1_555
O5 C24 1_555 1_555
O6 C24 1_555 1_555
O7 Zn2 1_555 1_555
N4 Zn3 1_555 1_555
O8 C9 1_555 1_555
N5 C4 1_555 1_555
C2 N4 1_555 1_555
H1 C2 1_555 1_555
C6 C11 1_555 1_555
C9 C16 1_555 1_555
C11 O7 1_555 1_555
C16 C28 1_555 1_555
C22 C6 1_555 1_555
H7 C22 1_555 1_555
C24 C27 1_555 1_555
C27 C40 1_555 1_555
C28 H11 1_555 1_555
C32 C6 1_555 1_555
C34 C4 1_555 1_555
H17 C34 1_555 1_555
C40 H23 1_555 1_555
C41 C40 1_555 1_555
H24 C41 1_555 1_555
C44 N5 1_555 1_555
C48 C27 1_555 1_555
H30 C48 1_555 1_555
C54 C44 1_555 1_555
H36 C54 1_555 1_555
N11 Zn2 1_555 1_555
N12 Zn2 1_555 1_555
N13 Zn3 1_555 1_555
C22 C34 1_555 1_555
C41 C44 1_555 1_555
C48 C54 1_555 1_555
N3 C18 1_555 1_555
N8 C37 1_555 1_555
C18 C51 1_555 1_555
C26 H10 1_555 1_555
C37 N3 1_555 1_555
H20 C37 1_555 1_555
N10 N8 1_555 1_555
C49 C5 1_555 1_555
H31 C49 1_555 1_555
C50 N3 1_555 1_555
H32 C50 1_555 1_555
C51 C49 1_555 1_555
H33 C51 1_555 1_555
C52 C5 1_555 1_555
H34 C52 1_555 1_555
C53 C18 1_555 1_555
H35 C53 1_555 1_555
Zn4 N8 1_555 1_555
N10 C50 1_555 1_555
C52 C53 1_555 1_555
N2 C10 1_555 1_555
N7 N9 1_555 1_555
N9 C45 1_555 1_555
C10 C20 1_555 1_555
C17 C8 1_555 1_555
H4 C17 1_555 1_555
C20 C17 1_555 1_555
H5 C20 1_555 1_555
C21 N2 1_555 1_555
H6 C21 1_555 1_555
C30 C8 1_555 1_555
H13 C30 1_555 1_555
C39 C10 1_555 1_555
H22 C39 1_555 1_555
C45 N2 1_555 1_555
H27 C45 1_555 1_555
Zn5 N7 1_555 1_555
N7 C21 1_555 1_555
C30 C39 1_555 1_555
O2_2 C19_2 1_555 1_555
O3_2 C19_2 1_555 1_555
C15_2 C19_2 1_555 1_555
C23_2 H8_2 1_555 1_555
C31_2 C15_2 1_555 1_555
H14_2 C31_2 1_555 1_555
C35_2 C15_2 1_555 1_555
H18 C35_2 1_555 1_555
Zn4 O2_2 1_555 1_555
C23_2 C31_2 1_555 1_555
C33 C35_2 1_555 1_555
N2_2 C10_2 1_555 1_555
N6 C7 1_555 1_555
N12 N9_2 1_555 1_555
N9_2 C45_2 1_555 1_555
C8_2 N6 1_555 1_555
C10_2 C20_2 1_555 1_555
C12 N6 1_555 1_555
C17_2 C8_2 1_555 1_555
H4_2 C17_2 1_555 1_555
C20_2 C17_2 1_555 1_555
H5_2 C20_2 1_555 1_555
C21_2 N2_2 1_555 1_555
H6_2 C21_2 1_555 1_555
C30_2 C8_2 1_555 1_555
H13_2 C30_2 1_555 1_555
C38 C12 1_555 1_555
C39_2 C10_2 1_555 1_555
H22_2 C39_2 1_555 1_555
H25 C42 1_555 1_555
C45_2 N2_2 1_555 1_555
H27_2 C45_2 1_555 1_555
C46 C12 1_555 1_555
H28 C46 1_555 1_555
N12 C21_2 1_555 1_555
C30_2 C39_2 1_555 1_555
C42 C46 1_555 1_555
Zn4 O5_2 1_555 1_555
Zn5 O1_2 1_555 1_555
O1_2 C9_2 1_555 1_555
O4_2 C11_2 1_555 1_555
O5_2 C24_2 1_555 1_555
O6_2 C24_2 1_555 1_555
O7_2 Zn5 1_555 1_555
N3_2 C18_2 1_555 1_555
N4_2 Zn4 1_555 1_555
O8_2 C9_2 1_555 1_555
N5_2 C4_2 1_555 1_555
N13 C37_2 1_555 1_555
C2_2 N4_2 1_555 1_555
H1_2 C2_2 1_555 1_555
C4_2 C26_2 1_555 1_555
C5_2 N5_2 1_555 1_555
C6_2 C11_2 1_555 1_555
C9_2 C16_2 1_555 1_555
C11_2 O7_2 1_555 1_555
C16_2 C28_2 1_555 1_555
C18_2 C51_2 1_555 1_555
C22_2 C6_2 1_555 1_555
H7_2 C22_2 1_555 1_555
C24_2 C27_2 1_555 1_555
C26_2 H10_2 1_555 1_555
C27_2 C40_2 1_555 1_555
C28_2 H11_2 1_555 1_555
C32_2 C6_2 1_555 1_555
H15_2 C32_2 1_555 1_555
C34_2 C4_2 1_555 1_555
H17_2 C34_2 1_555 1_555
C37_2 N3_2 1_555 1_555
H20_2 C37_2 1_555 1_555
C40_2 H23_2 1_555 1_555
C41_2 C40_2 1_555 1_555
H24_2 C41_2 1_555 1_555
C44_2 N5_2 1_555 1_555
N10_2 N13 1_555 1_555
C48_2 C27_2 1_555 1_555
H30_2 C48_2 1_555 1_555
C49_2 C5_2 1_555 1_555
H31_2 C49_2 1_555 1_555
C50_2 N3_2 1_555 1_555
H32_2 C50_2 1_555 1_555
C51_2 C49_2 1_555 1_555
H33_2 C51_2 1_555 1_555
C52_2 C5_2 1_555 1_555
H34_2 C52_2 1_555 1_555
C53_2 C18_2 1_555 1_555
H35_2 C53_2 1_555 1_555
C54_2 C44_2 1_555 1_555
H36_2 C54_2 1_555 1_555
C22_2 C34_2 1_555 1_555
C26_2 C32_2 1_555 1_555
C41_2 C44_2 1_555 1_555
N10_2 C50_2 1_555 1_555
C48_2 C54_2 1_555 1_555
C52_2 C53_2 1_555 1_555
N11 C14_2 1_555 1_555
C14_2 H3_2 1_555 1_555
C29_2 N11 1_555 1_555
H12_2 C29_2 1_555 1_555
C36_2 C1_2 1_555 1_555
H19_2 C36_2 1_555 1_555
C29_2 C36_2 1_555 1_555
Zn1 O5_3 1_555 1_555
Zn2_2 O1_3 1_555 1_555
O1_3 C9_3 1_555 1_555
O4_3 C11_3 1_555 1_555
O5_3 C24_3 1_555 1_555
O6_3 C24_3 1_555 1_555
O7_3 Zn2_2 1_555 1_555
N3_3 C18_3 1_555 1_555
N4_3 Zn1 1_555 1_555
O8_3 C9_3 1_555 1_555
N5_3 C4_3 1_555 1_555
N8_2 C37_3 1_555 1_555
C2_3 N4_3 1_555 1_555
H1_3 C2_3 1_555 1_555
C4_3 C26_3 1_555 1_555
C5_3 N5_3 1_555 1_555
C6_3 C11_3 1_555 1_555
C9_3 C16_3 1_555 1_555
C11_3 O7_3 1_555 1_555
C16_3 C28_3 1_555 1_555
C18_3 C51_3 1_555 1_555
C22_3 C6_3 1_555 1_555
H7_3 C22_3 1_555 1_555
C24_3 C27_3 1_555 1_555
C26_3 H10_3 1_555 1_555
C27_3 C40_3 1_555 1_555
C28_3 H11_3 1_555 1_555
C32_3 C6_3 1_555 1_555
H15_3 C32_3 1_555 1_555
C34_3 C4_3 1_555 1_555
H17_3 C34_3 1_555 1_555
C37_3 N3_3 1_555 1_555
H20_3 C37_3 1_555 1_555
C40_3 H23_3 1_555 1_555
C41_3 C40_3 1_555 1_555
H24_3 C41_3 1_555 1_555
C44_3 N5_3 1_555 1_555
N10_3 N8_2 1_555 1_555
C48_3 C27_3 1_555 1_555
H30_3 C48_3 1_555 1_555
C49_3 C5_3 1_555 1_555
H31_3 C49_3 1_555 1_555
C50_3 N3_3 1_555 1_555
H32_3 C50_3 1_555 1_555
C51_3 C49_3 1_555 1_555
H33_3 C51_3 1_555 1_555
C52_3 C5_3 1_555 1_555
H34_3 C52_3 1_555 1_555
C53_3 C18_3 1_555 1_555
H35_3 C53_3 1_555 1_555
C54_3 C44_3 1_555 1_555
H36_3 C54_3 1_555 1_555
Zn4_2 N8_2 1_555 1_555
O9 Zn1 1_555 1_555
N11_2 Zn2_2 1_555 1_555
N12_2 Zn2_2 1_555 1_555
N13_2 Zn1 1_555 1_555
C22_3 C34_3 1_555 1_555
C26_3 C32_3 1_555 1_555
C41_3 C44_3 1_555 1_555
N10_3 C50_3 1_555 1_555
C48_3 C54_3 1_555 1_555
C52_3 C53_3 1_555 1_555
N2_3 C10_3 1_555 1_555
N6_2 C7_2 1_555 1_555
N7_2 N9_3 1_555 1_555
N9_3 C45_3 1_555 1_555
C8_3 N6_2 1_555 1_555
C10_3 C20_3 1_555 1_555
C12_2 N6_2 1_555 1_555
C17_3 C8_3 1_555 1_555
H4_3 C17_3 1_555 1_555
C20_3 C17_3 1_555 1_555
H5_3 C20_3 1_555 1_555
C21_3 N2_3 1_555 1_555
H6_3 C21_3 1_555 1_555
C30_3 C8_3 1_555 1_555
H13_3 C30_3 1_555 1_555
C38_2 C12_2 1_555 1_555
C39_3 C10_3 1_555 1_555
H22_3 C39_3 1_555 1_555
H25_2 C42_2 1_555 1_555
C45_3 N2_3 1_555 1_555
H27_3 C45_3 1_555 1_555
C46_2 C12_2 1_555 1_555
H28_2 C46_2 1_555 1_555
Zn6 N7_2 1_555 1_555
N7_2 C21_3 1_555 1_555
C30_3 C39_3 1_555 1_555
C42_2 C46_2 1_555 1_555
O9 C19_3 1_555 1_555
O3_3 C19_3 1_555 1_555
C15_3 C19_3 1_555 1_555
C23_3 H8_3 1_555 1_555
C31_3 C15_3 1_555 1_555
H14_3 C31_3 1_555 1_555
C35_3 C15_3 1_555 1_555
H18_2 C35_3 1_555 1_555
C23_3 C31_3 1_555 1_555
C33_2 C35_3 1_555 1_555
N1_2 C14_3 1_555 1_555
C14_3 H3_3 1_555 1_555
C29_3 N1_2 1_555 1_555
H12_3 C29_3 1_555 1_555
C36_3 C1_3 1_555 1_555
H19_3 C36_3 1_555 1_555
Zn6 N1_2 1_555 1_555
C29_3 C36_3 1_555 1_555
N11_2 C14_4 1_555 1_555
C1_4 C3_2 1_555 1_555
C3_2 C13_2 1_555 1_555
H2_4 C13_2 1_555 1_555
C14_4 H3_4 1_555 1_555
C25_2 C1_4 1_555 1_555
H9_2 C25_2 1_555 1_555
C29_4 N11_2 1_555 1_555
H12_4 C29_4 1_555 1_555
C36_4 C1_4 1_555 1_555
H19_4 C36_4 1_555 1_555
H26_2 C43_2 1_555 1_555
C47_2 C3_2 1_555 1_555
H29_2 C47_2 1_555 1_555
C14_4 C25_2 1_555 1_555
C29_4 C36_4 1_555 1_555
C43_2 C47_2 1_555 1_555
N2_4 C10_4 1_555 1_555
N12_2 N9_4 1_555 1_555
N9_4 C45_4 1_555 1_555
C10_4 C20_4 1_555 1_555
C17_4 C8_4 1_555 1_555
H4_4 C17_4 1_555 1_555
C20_4 C17_4 1_555 1_555
H5_4 C20_4 1_555 1_555
C21_4 N2_4 1_555 1_555
H6_4 C21_4 1_555 1_555
C30_4 C8_4 1_555 1_555
H13_4 C30_4 1_555 1_555
C39_4 C10_4 1_555 1_555
H22_4 C39_4 1_555 1_555
C45_4 N2_4 1_555 1_555
H27_4 C45_4 1_555 1_555
N12_2 C21_4 1_555 1_555
C30_4 C39_4 1_555 1_555
N3_4 C18_4 1_555 1_555
N13_2 C37_4 1_555 1_555
C18_4 C51_4 1_555 1_555
C26_4 H10_4 1_555 1_555
C37_4 N3_4 1_555 1_555
H20_4 C37_4 1_555 1_555
N10_4 N13_2 1_555 1_555
C49_4 C5_4 1_555 1_555
H31_4 C49_4 1_555 1_555
C50_4 N3_4 1_555 1_555
H32_4 C50_4 1_555 1_555
C51_4 C49_4 1_555 1_555
H33_4 C51_4 1_555 1_555
C52_4 C5_4 1_555 1_555
H34_4 C52_4 1_555 1_555
C53_4 C18_4 1_555 1_555
H35_4 C53_4 1_555 1_555
N10_4 C50_4 1_555 1_555
C52_4 C53_4 1_555 1_555
Zn4_2 O5_4 1_555 1_555
Zn6 O1_4 1_555 1_555
O1_4 C9_4 1_555 1_555
O4_4 C11_4 1_555 1_555
O5_4 C24_4 1_555 1_555
O6_4 C24_4 1_555 1_555
O7_4 Zn6 1_555 1_555
N4_4 Zn4_2 1_555 1_555
O8_4 C9_4 1_555 1_555
N5_4 C4_4 1_555 1_555
C2_4 N4_4 1_555 1_555
H1_4 C2_4 1_555 1_555
C6_4 C11_4 1_555 1_555
C9_4 C16_4 1_555 1_555
C11_4 O7_4 1_555 1_555
C16_4 C28_4 1_555 1_555
C22_4 C6_4 1_555 1_555
H7_4 C22_4 1_555 1_555
C24_4 C27_4 1_555 1_555
C27_4 C40_4 1_555 1_555
C28_4 H11_4 1_555 1_555
C32_4 C6_4 1_555 1_555
C34_4 C4_4 1_555 1_555
H17_4 C34_4 1_555 1_555
C40_4 H23_4 1_555 1_555
C41_4 C40_4 1_555 1_555
H24_4 C41_4 1_555 1_555
C44_4 N5_4 1_555 1_555
C48_4 C27_4 1_555 1_555
H30_4 C48_4 1_555 1_555
C54_4 C44_4 1_555 1_555
H36_4 C54_4 1_555 1_555
O9_2 Zn4_2 1_555 1_555
C22_4 C34_4 1_555 1_555
C41_4 C44_4 1_555 1_555
C48_4 C54_4 1_555 1_555
O9_2 C19_4 1_555 1_555
O3_4 C19_4 1_555 1_555
C15_4 C19_4 1_555 1_555
C23_4 H8_4 1_555 1_555
C31_4 C15_4 1_555 1_555
H14_4 C31_4 1_555 1_555
C35_4 C15_4 1_555 1_555
C23_4 C31_4 1_555 1_555
C3_3 C13_3 1_555 1_555
H9_3 C25_3 1_555 1_555
H26_3 C43_3 1_555 1_555
C47_3 C3_3 1_555 1_555
H29_3 C47_3 1_555 1_555
C43_3 C47_3 1_555 1_555
N6_3 C7_3 1_555 1_555
C12_3 N6_3 1_555 1_555
C38_3 C12_3 1_555 1_555
H25_3 C42_3 1_555 1_555
C46_3 C12_3 1_555 1_555
H28_3 C46_3 1_555 1_555
C42_3 C46_3 1_555 1_555
N6_4 C7_4 1_555 1_555
C12_4 N6_4 1_555 1_555
C38_4 C12_4 1_555 1_555
H25_4 C42_4 1_555 1_555
C46_4 C12_4 1_555 1_555
H28_4 C46_4 1_555 1_555
C42_4 C46_4 1_555 1_555
C3_4 C13_4 1_555 1_555
H9_4 C25_4 1_555 1_555
H26_4 C43_4 1_555 1_555
C47_4 C3_4 1_555 1_555
H29_4 C47_4 1_555 1_555
C43_4 C47_4 1_555 1_555

#END
