
###############################################################################
#
# This file contains modified crystal structure data generated from the
# MOF subset of the Cambridge Structural Database (CSD) v543 
# hosted by the Cambridge Crystallographic Data Centre (CCDC).
#
# This work is licensed under the Creative Commons
# Attribution-NonCommercial-ShareAlike 4.0 International License.
# To view a copy of this license, visit
# http://creativecommons.org/licenses/by-nc-sa/4.0/
# or send a letter to
# Creative Commons, PO Box 1866, Mountain View, CA 94042, USA.
#
# CIF created using the CSD Python API on 29 September 2022
# The structure has been converted into the P1 space group
# The structure has a 3D framework
# The original CSD entry CADCOD is in the monoclinic crystal system
# The framework has been calculated to contain at least 10.0% void space
# The void calculation uses a probe of radius 1.32A, grid spacing 0.4
#
###############################################################################

data_CADCOD
_chemical_formula_moiety         '(C192 H144 N8 O32 Zn8)n'
_symmetry_cell_setting           triclinic
_symmetry_space_group_name_H-M   'P 1'
_symmetry_Int_Tables_number      1
_space_group_name_Hall           'P 1'
loop_
_symmetry_equiv_pos_site_id
_symmetry_equiv_pos_as_xyz
1 x,y,z
_cell_length_a                   22.994(5)
_cell_length_b                   9.4150(19)
_cell_length_c                   22.415(5)
_cell_angle_alpha                90
_cell_angle_beta                 99.54(3)
_cell_angle_gamma                90
_cell_volume                     4785.48
loop_
_atom_site_label
_atom_site_type_symbol
_atom_site_fract_x
_atom_site_fract_y
_atom_site_fract_z
O3 O 0.57036(19) 0.1121(4) 0.17795(14)
H3 H 0.5539 0.1833 0.1881
C7 C 0.5715(2) 0.0539(4) 0.28343(17)
H6 H 0.5536 0.1399 0.2899
C8 C 0.5828(2) 0.0210(4) 0.22656(16)
Zn5 Zn 0.69754(2) 0.64547(4) 0.00902(2)
Zn1 Zn 0.69754(2) 0.35453(4) 0.50902(2)
O1 O 0.65944(13) 0.5184(3) 0.45843(9)
C1 C 0.6638(2) 0.6842(4) 0.53863(14)
H1 H 0.6574 0.7789 0.5473
N1 N 0.62306(14) 0.2257(3) 0.50384(12)
C2 C 0.6541(2) 0.6441(4) 0.47745(14)
O2 O 0.69536(15) 0.4642(3) 0.58346(9)
C3 C 0.6351(2) 0.7548(4) 0.43174(14)
H2 H 0.6252 0.8440 0.4448
C4 C 0.6316(2) 0.7320(4) 0.37252(15)
H4 H 0.6421 0.6417 0.3613
O4 O 0.74345(11) 0.7087(3) 0.94558(8)
C5 C 0.6132(2) 0.8318(4) 0.32331(15)
C6 C 0.5864(2) 0.9609(4) 0.33063(16)
H5 H 0.5782 0.9852 0.3686
C9 C 0.6101(4) 0.8968(6) 0.2187(2)
H7 H 0.6189 0.8745 0.1808
C10 C 0.6250(4) 0.8023(6) 0.26607(19)
H8 H 0.6435 0.7172 0.2593
C11 C 0.68238(18) 0.5939(4) 0.58758(13)
C12 C 0.6867(2) 0.6516(4) 0.64957(16)
H9 H 0.6772 0.7463 0.6548
C13 C 0.7039(2) 0.5706(4) 0.69796(13)
H10 H 0.7125 0.4768 0.6898
C14 C 0.7112(2) 0.6076(4) 0.76201(13)
C15 C 0.69732(19) 0.7419(4) 0.78266(13)
H11 H 0.6808 0.8098 0.7548
C16 C 0.70764(18) 0.7758(4) 0.84380(12)
H12 H 0.6984 0.8659 0.8564
C17 C 0.73188(17) 0.6748(4) 0.88632(12)
C18 C 0.74368(18) 0.5396(4) 0.86693(13)
H13 H 0.7585 0.4704 0.8950
C19 C 0.7334(2) 0.5074(4) 0.80548(14)
H14 H 0.7416 0.4164 0.7931
C20 C 0.5790(3) 0.2287(7) 0.4581(3)
H15 H 0.5816 0.2883 0.4255
C21 C 0.5297(3) 0.1471(8) 0.4569(3)
H16 H 0.4982 0.1591 0.4254
C22 C 0.52524(17) 0.0480(4) 0.50087(16)
C23 C 0.5725(2) 0.0385(6) 0.5445(2)
C24 C 0.6204(2) 0.1298(7) 0.5444(3)
H18 H 0.6523 0.1209 0.5756
H21 H 0.4265 0.0290 0.4250
Zn4 Zn 0.80246(2) 0.85453(4) 0.99098(2)
O10 O 0.75655(11) 0.2087(3) 0.55442(8)
O11 O 0.74345(11) 0.2913(3) 0.44558(8)
N2 N 0.62306(14) 0.7743(3) 0.00384(12)
C27 C 0.52524(17) 0.9520(4) 0.00087(16)
C28 C 0.5725(2) 0.9615(6) 0.0445(2)
C29 C 0.6204(2) 0.8702(7) 0.0444(3)
H22 H 0.6523 0.8791 0.0756
C30 C 0.6638(2) 0.3158(4) 0.03863(14)
H23 H 0.6574 0.2211 0.0473
O6 O 0.69536(15) 0.5358(3) 0.08346(9)
C40 C 0.68238(18) 0.4061(4) 0.08758(13)
C41 C 0.6867(2) 0.3484(4) 0.14957(16)
H31 H 0.6772 0.2537 0.1548
C42 C 0.7039(2) 0.4294(4) 0.19796(13)
H32 H 0.7125 0.5232 0.1898
C43 C 0.7112(2) 0.3924(4) 0.26201(13)
C44 C 0.69732(19) 0.2581(4) 0.28266(13)
H33 H 0.6808 0.1902 0.2548
C45 C 0.70764(18) 0.2242(4) 0.34380(12)
H34 H 0.6984 0.1341 0.3564
C46 C 0.73188(17) 0.3252(4) 0.38632(12)
C47 C 0.74368(18) 0.4604(4) 0.36693(13)
H35 H 0.7585 0.5296 0.3950
C48 C 0.7334(2) 0.4926(4) 0.30548(14)
H36 H 0.7416 0.5836 0.2931
Zn6 Zn 0.80246(2) 0.14547(4) 0.49098(2)
O12 O 0.75655(11) 0.7913(3) 0.05442(8)
H17 H 0.4265 0.9710 0.9250
C25 C 0.5790(3) 0.7713(7) 0.9581(3)
H19 H 0.5816 0.7117 0.9255
C26 C 0.5297(3) 0.8529(8) 0.9569(3)
H20 H 0.4982 0.8409 0.9254
O5 O 0.65944(13) 0.4816(3) 0.95843(9)
C31 C 0.6541(2) 0.3559(4) 0.97745(14)
C32 C 0.6351(2) 0.2452(4) 0.93174(14)
H24 H 0.6252 0.1560 0.9448
C33 C 0.6316(2) 0.2680(4) 0.87252(15)
H26 H 0.6421 0.3583 0.8613
C34 C 0.6132(2) 0.1682(4) 0.82331(15)
C35 C 0.5864(2) 0.0391(4) 0.83063(16)
H27 H 0.5782 0.0148 0.8686
C38 C 0.6101(4) 0.1032(6) 0.7187(2)
H29 H 0.6189 0.1255 0.6808
C39 C 0.6250(4) 0.1977(6) 0.76607(19)
H30 H 0.6435 0.2828 0.7593
H16_2 H 0.9982 0.6591 0.4254
N2_2 N 0.87694(14) 0.2743(3) 0.49616(12)
C25_2 C 0.9210(3) 0.2713(7) 0.5419(3)
H19_2 H 0.9184 0.2117 0.5745
C26_2 C 0.9703(3) 0.3529(8) 0.5431(3)
C27_2 C 0.97476(17) 0.4520(4) 0.49913(16)
C28_2 C 0.9275(2) 0.4615(6) 0.4555(2)
H21_2 H 0.9265 0.5290 0.4250
C29_2 C 0.8796(2) 0.3702(7) 0.4556(3)
H22_2 H 0.8477 0.3791 0.4244
O6_2 O 0.80464(15) 0.0358(3) 0.41654(9)
H32_2 H 0.7875 0.0232 0.3102
H35_2 H 0.7415 0.0296 0.1050
H36_2 H 0.7584 0.0836 0.2069
O5_2 O 0.84056(13) 0.9816(3) 0.54157(9)
C30_2 C 0.8362(2) 0.8158(4) 0.46137(14)
H23_2 H 0.8426 0.7211 0.4527
C31_2 C 0.8459(2) 0.8559(4) 0.52255(14)
C32_2 C 0.8649(2) 0.7452(4) 0.56826(14)
H24_2 H 0.8748 0.6560 0.5552
O7 O 0.92964(19) 0.3879(4) 0.82205(14)
H25 H 0.9461 0.3167 0.8119
C33_2 C 0.8684(2) 0.7680(4) 0.62748(15)
H26_2 H 0.8579 0.8583 0.6387
C34_2 C 0.8868(2) 0.6682(4) 0.67669(15)
C35_2 C 0.9136(2) 0.5391(4) 0.66937(16)
H27_2 H 0.9218 0.5148 0.6314
C36 C 0.9285(2) 0.4461(4) 0.71657(17)
H28 H 0.9464 0.3601 0.7101
C37 C 0.9172(2) 0.4790(4) 0.77344(16)
C38_2 C 0.8899(4) 0.6032(6) 0.7813(2)
H29_2 H 0.8811 0.6255 0.8192
C39_2 C 0.8750(4) 0.6977(6) 0.73393(19)
H30_2 H 0.8565 0.7828 0.7407
C40_2 C 0.81762(18) 0.9061(4) 0.41242(13)
C41_2 C 0.8133(2) 0.8484(4) 0.35043(16)
H31_2 H 0.8228 0.7537 0.3452
C42_2 C 0.7961(2) 0.9294(4) 0.30204(13)
C43_2 C 0.7888(2) 0.8924(4) 0.23799(13)
C44_2 C 0.80268(19) 0.7581(4) 0.21734(13)
H33_2 H 0.8192 0.6902 0.2452
C45_2 C 0.79236(18) 0.7242(4) 0.15620(12)
H34_2 H 0.8016 0.6341 0.1436
C46_2 C 0.76812(17) 0.8252(4) 0.11368(12)
C47_2 C 0.75632(18) 0.9604(4) 0.13307(13)
C48_2 C 0.7666(2) 0.9926(4) 0.19452(14)
C1_2 C 0.8362(2) 0.1842(4) 0.96137(14)
H1_2 H 0.8426 0.2789 0.9527
C11_2 C 0.81762(18) 0.0939(4) 0.91242(13)
C12_2 C 0.8133(2) 0.1516(4) 0.85043(16)
H9_2 H 0.8228 0.2463 0.8452
C13_2 C 0.7961(2) 0.0706(4) 0.80204(13)
C14_2 C 0.7888(2) 0.1076(4) 0.73799(13)
C15_2 C 0.80268(19) 0.2419(4) 0.71734(13)
H11_2 H 0.8192 0.3098 0.7452
C16_2 C 0.79236(18) 0.2758(4) 0.65620(12)
H12_2 H 0.8016 0.3659 0.6436
C17_2 C 0.76812(17) 0.1748(4) 0.61368(12)
C18_2 C 0.75632(18) 0.0396(4) 0.63307(13)
C19_2 C 0.7666(2) 0.0074(4) 0.69452(14)
C20_2 C 0.9210(3) 0.7287(7) 0.0419(3)
H15_2 H 0.9184 0.7883 0.0745
C21_2 C 0.9703(3) 0.6471(8) 0.0431(3)
N1_2 N 0.87694(14) 0.7257(3) 0.99616(12)
O2_2 O 0.80464(15) 0.9642(3) 0.91654(9)
H10_2 H 0.7875 0.9768 0.8102
H13_2 H 0.7415 0.9704 0.6050
H14_2 H 0.7584 0.9164 0.7069
C22_2 C 0.97476(17) 0.5480(4) 0.99913(16)
C23_2 C 0.9275(2) 0.5385(6) 0.9555(2)
H17_2 H 0.9265 0.4710 0.9250
C24_2 C 0.8796(2) 0.6298(7) 0.9556(3)
H18_2 H 0.8477 0.6209 0.9244
H20_2 H 0.9982 0.3409 0.9254
H17_3 H 0.5735 0.9710 0.5750
N2_3 N 0.37694(14) 0.7743(3) 0.49616(12)
C25_3 C 0.4210(3) 0.7713(7) 0.5419(3)
H19_3 H 0.4184 0.7117 0.5745
C26_3 C 0.4703(3) 0.8529(8) 0.5431(3)
H20_3 H 0.5018 0.8409 0.5746
C27_3 C 0.47476(17) 0.9520(4) 0.49913(16)
C28_3 C 0.4275(2) 0.9615(6) 0.4555(2)
C29_3 C 0.3796(2) 0.8702(7) 0.4556(3)
H22_3 H 0.3477 0.8791 0.4244
Zn2 Zn 0.30246(2) 0.64547(4) 0.49098(2)
O5_3 O 0.34056(13) 0.4816(3) 0.54157(9)
C30_3 C 0.3362(2) 0.3158(4) 0.46137(14)
H23_3 H 0.3426 0.2211 0.4527
C31_3 C 0.3459(2) 0.3559(4) 0.52255(14)
O6_3 O 0.30464(15) 0.5358(3) 0.41654(9)
C32_3 C 0.3649(2) 0.2452(4) 0.56826(14)
H24_3 H 0.3748 0.1560 0.5552
C33_3 C 0.3684(2) 0.2680(4) 0.62748(15)
H26_3 H 0.3579 0.3583 0.6387
O8 O 0.25655(11) 0.2913(3) 0.05442(8)
C34_3 C 0.3868(2) 0.1682(4) 0.67669(15)
C35_3 C 0.4136(2) 0.0391(4) 0.66937(16)
H27_3 H 0.4218 0.0148 0.6314
C38_3 C 0.3899(4) 0.1032(6) 0.7813(2)
H29_3 H 0.3811 0.1255 0.8192
C39_3 C 0.3750(4) 0.1977(6) 0.73393(19)
H30_3 H 0.3565 0.2828 0.7407
C40_3 C 0.31762(18) 0.4061(4) 0.41242(13)
C41_3 C 0.3133(2) 0.3484(4) 0.35043(16)
H31_3 H 0.3228 0.2537 0.3452
C42_3 C 0.2961(2) 0.4294(4) 0.30204(13)
H32_3 H 0.2875 0.5232 0.3102
C43_3 C 0.2888(2) 0.3924(4) 0.23799(13)
C44_3 C 0.30268(19) 0.2581(4) 0.21734(13)
H33_3 H 0.3192 0.1902 0.2452
C45_3 C 0.29236(18) 0.2242(4) 0.15620(12)
H34_3 H 0.3016 0.1341 0.1436
C46_3 C 0.26812(17) 0.3252(4) 0.11368(12)
C47_3 C 0.25632(18) 0.4604(4) 0.13307(13)
H35_3 H 0.2415 0.5296 0.1050
C48_3 C 0.2666(2) 0.4926(4) 0.19452(14)
H36_3 H 0.2584 0.5836 0.2069
Zn6_2 Zn 0.19754(2) 0.14547(4) 0.00902(2)
O9 O 0.25655(11) 0.7087(3) 0.55442(8)
O12_2 O 0.24345(11) 0.7913(3) 0.44558(8)
Zn3 Zn 0.30246(2) 0.35453(4) 0.99098(2)
O1_2 O 0.34056(13) 0.5184(3) 0.04157(9)
C2_2 C 0.3459(2) 0.6441(4) 0.02255(14)
C3_2 C 0.3649(2) 0.7548(4) 0.06826(14)
H2_2 H 0.3748 0.8440 0.0552
C4_2 C 0.3684(2) 0.7320(4) 0.12748(15)
H4_2 H 0.3579 0.6417 0.1387
C5_2 C 0.3868(2) 0.8318(4) 0.17669(15)
C6_2 C 0.4136(2) 0.9609(4) 0.16937(16)
H5_2 H 0.4218 0.9852 0.1314
C9_2 C 0.3899(4) 0.8968(6) 0.2813(2)
H7_2 H 0.3811 0.8745 0.3192
C10_2 C 0.3750(4) 0.8023(6) 0.23393(19)
H8_2 H 0.3565 0.7172 0.2407
C20_3 C 0.4210(3) 0.2287(7) 0.0419(3)
H15_3 H 0.4184 0.2883 0.0745
C21_3 C 0.4703(3) 0.1471(8) 0.0431(3)
H16_3 H 0.5018 0.1591 0.0746
H21_3 H 0.5735 0.0290 0.0750
C1_3 C 0.3362(2) 0.6842(4) 0.96137(14)
H1_3 H 0.3426 0.7789 0.9527
N1_3 N 0.37694(14) 0.2257(3) 0.99616(12)
O2_3 O 0.30464(15) 0.4642(3) 0.91654(9)
C11_3 C 0.31762(18) 0.5939(4) 0.91242(13)
C12_3 C 0.3133(2) 0.6516(4) 0.85043(16)
H9_3 H 0.3228 0.7463 0.8452
C13_3 C 0.2961(2) 0.5706(4) 0.80204(13)
H10_3 H 0.2875 0.4768 0.8102
C14_3 C 0.2888(2) 0.6076(4) 0.73799(13)
C15_3 C 0.30268(19) 0.7419(4) 0.71734(13)
H11_3 H 0.3192 0.8098 0.7452
C16_3 C 0.29236(18) 0.7758(4) 0.65620(12)
H12_3 H 0.3016 0.8659 0.6436
C17_3 C 0.26812(17) 0.6748(4) 0.61368(12)
C18_3 C 0.25632(18) 0.5396(4) 0.63307(13)
H13_3 H 0.2415 0.4704 0.6050
C19_3 C 0.2666(2) 0.5074(4) 0.69452(14)
H14_3 H 0.2584 0.4164 0.7069
C22_3 C 0.47476(17) 0.0480(4) 0.99913(16)
C23_3 C 0.4275(2) 0.0385(6) 0.9555(2)
C24_3 C 0.3796(2) 0.1298(7) 0.9556(3)
H18_3 H 0.3477 0.1209 0.9244
Zn4_2 Zn 0.19754(2) 0.85453(4) 0.50902(2)
O10_2 O 0.24345(11) 0.2087(3) 0.94558(8)
O1_3 O 0.15944(13) 0.0184(3) 0.45843(9)
C1_4 C 0.1638(2) 0.1842(4) 0.53863(14)
H1_4 H 0.1574 0.2789 0.5473
C2_3 C 0.1541(2) 0.1441(4) 0.47745(14)
C3_3 C 0.1351(2) 0.2548(4) 0.43174(14)
H2_3 H 0.1252 0.3440 0.4448
O3_2 O 0.07036(19) 0.6121(4) 0.17795(14)
H3_2 H 0.0539 0.6833 0.1881
C4_3 C 0.1316(2) 0.2320(4) 0.37252(15)
H4_3 H 0.1421 0.1417 0.3613
C5_3 C 0.1132(2) 0.3318(4) 0.32331(15)
C6_3 C 0.0864(2) 0.4609(4) 0.33063(16)
H5_3 H 0.0782 0.4852 0.3686
C7_2 C 0.0715(2) 0.5539(4) 0.28343(17)
H6_2 H 0.0536 0.6399 0.2899
C8_2 C 0.0828(2) 0.5210(4) 0.22656(16)
C9_3 C 0.1101(4) 0.3968(6) 0.2187(2)
H7_3 H 0.1189 0.3745 0.1808
C10_3 C 0.1250(4) 0.3023(6) 0.26607(19)
H8_3 H 0.1435 0.2172 0.2593
C11_4 C 0.18238(18) 0.0939(4) 0.58758(13)
C12_4 C 0.1867(2) 0.1516(4) 0.64957(16)
H9_4 H 0.1772 0.2463 0.6548
C13_4 C 0.2039(2) 0.0706(4) 0.69796(13)
C14_4 C 0.2112(2) 0.1076(4) 0.76201(13)
C15_4 C 0.19732(19) 0.2419(4) 0.78266(13)
H11_4 H 0.1808 0.3098 0.7548
C16_4 C 0.20764(18) 0.2758(4) 0.84380(12)
H12_4 H 0.1984 0.3659 0.8564
C17_4 C 0.23188(17) 0.1748(4) 0.88632(12)
C18_4 C 0.24368(18) 0.0396(4) 0.86693(13)
C19_4 C 0.2334(2) 0.0074(4) 0.80548(14)
N1_4 N 0.12306(14) 0.7257(3) 0.50384(12)
O2_4 O 0.19536(15) 0.9642(3) 0.58346(9)
H10_4 H 0.2125 0.9768 0.6898
H13_4 H 0.2585 0.9704 0.8950
H14_4 H 0.2416 0.9164 0.7931
C20_4 C 0.0790(3) 0.7287(7) 0.4581(3)
H15_4 H 0.0816 0.7883 0.4255
C21_4 C 0.0297(3) 0.6471(8) 0.4569(3)
C22_4 C 0.02524(17) 0.5480(4) 0.50087(16)
C23_4 C 0.0725(2) 0.5385(6) 0.5445(2)
H17_4 H 0.0735 0.4710 0.5750
C24_4 C 0.1204(2) 0.6298(7) 0.5444(3)
H18_4 H 0.1523 0.6209 0.5756
H20_4 H 0.0018 0.3409 0.5746
H16_4 H 0.0018 0.6591 0.0746
N2_4 N 0.12306(14) 0.2743(3) 0.00384(12)
C27_4 C 0.02524(17) 0.4520(4) 0.00087(16)
C28_4 C 0.0725(2) 0.4615(6) 0.0445(2)
H21_4 H 0.0735 0.5290 0.0750
C29_4 C 0.1204(2) 0.3702(7) 0.0444(3)
H22_4 H 0.1523 0.3791 0.0756
O6_4 O 0.19536(15) 0.0358(3) 0.08346(9)
H32_4 H 0.2125 0.0232 0.1898
H35_4 H 0.2585 0.0296 0.3950
H36_4 H 0.2416 0.0836 0.2931
C25_4 C 0.0790(3) 0.2713(7) 0.9581(3)
H19_4 H 0.0816 0.2117 0.9255
C26_4 C 0.0297(3) 0.3529(8) 0.9569(3)
C30_4 C 0.1638(2) 0.8158(4) 0.03863(14)
H23_4 H 0.1574 0.7211 0.0473
C40_4 C 0.18238(18) 0.9061(4) 0.08758(13)
C41_4 C 0.1867(2) 0.8484(4) 0.14957(16)
H31_4 H 0.1772 0.7537 0.1548
C42_4 C 0.2039(2) 0.9294(4) 0.19796(13)
C43_4 C 0.2112(2) 0.8924(4) 0.26201(13)
C44_4 C 0.19732(19) 0.7581(4) 0.28266(13)
H33_4 H 0.1808 0.6902 0.2548
C45_4 C 0.20764(18) 0.7242(4) 0.34380(12)
H34_4 H 0.1984 0.6341 0.3564
C46_4 C 0.23188(17) 0.8252(4) 0.38632(12)
C47_4 C 0.24368(18) 0.9604(4) 0.36693(13)
C48_4 C 0.2334(2) 0.9926(4) 0.30548(14)
O7_2 O 0.42964(19) 0.8879(4) 0.82205(14)
H25_2 H 0.4461 0.8167 0.8119
C36_2 C 0.4285(2) 0.9461(4) 0.71657(17)
H28_2 H 0.4464 0.8601 0.7101
C37_2 C 0.4172(2) 0.9790(4) 0.77344(16)
O3_3 O 0.42964(19) 0.1121(4) 0.32205(14)
H3_3 H 0.4461 0.1833 0.3119
C7_3 C 0.4285(2) 0.0539(4) 0.21657(17)
H6_3 H 0.4464 0.1399 0.2101
C8_3 C 0.4172(2) 0.0210(4) 0.27344(16)
O7_3 O 0.57036(19) 0.8879(4) 0.67795(14)
H25_3 H 0.5539 0.8167 0.6881
C36_3 C 0.5715(2) 0.9461(4) 0.78343(17)
H28_3 H 0.5536 0.8601 0.7899
C37_3 C 0.5828(2) 0.9790(4) 0.72656(16)
O5_4 O 0.15944(13) 0.9816(3) 0.95843(9)
C31_4 C 0.1541(2) 0.8559(4) 0.97745(14)
C32_4 C 0.1351(2) 0.7452(4) 0.93174(14)
H24_4 H 0.1252 0.6560 0.9448
O7_4 O 0.07036(19) 0.3879(4) 0.67795(14)
H25_4 H 0.0539 0.3167 0.6881
C33_4 C 0.1316(2) 0.7680(4) 0.87252(15)
H26_4 H 0.1421 0.8583 0.8613
C34_4 C 0.1132(2) 0.6682(4) 0.82331(15)
C35_4 C 0.0864(2) 0.5391(4) 0.83063(16)
H27_4 H 0.0782 0.5148 0.8686
C36_4 C 0.0715(2) 0.4461(4) 0.78343(17)
H28_4 H 0.0536 0.3601 0.7899
C37_4 C 0.0828(2) 0.4790(4) 0.72656(16)
C38_4 C 0.1101(4) 0.6032(6) 0.7187(2)
H29_4 H 0.1189 0.6255 0.6808
C39_4 C 0.1250(4) 0.6977(6) 0.76607(19)
H30_4 H 0.1435 0.7828 0.7593
O1_4 O 0.84056(13) 0.0184(3) 0.04157(9)
C2_4 C 0.8459(2) 0.1441(4) 0.02255(14)
C3_4 C 0.8649(2) 0.2548(4) 0.06826(14)
H2_4 H 0.8748 0.3440 0.0552
O3_4 O 0.92964(19) 0.6121(4) 0.32205(14)
H3_4 H 0.9461 0.6833 0.3119
C4_4 C 0.8684(2) 0.2320(4) 0.12748(15)
H4_4 H 0.8579 0.1417 0.1387
C5_4 C 0.8868(2) 0.3318(4) 0.17669(15)
C6_4 C 0.9136(2) 0.4609(4) 0.16937(16)
H5_4 H 0.9218 0.4852 0.1314
C7_4 C 0.9285(2) 0.5539(4) 0.21657(17)
H6_4 H 0.9464 0.6399 0.2101
C8_4 C 0.9172(2) 0.5210(4) 0.27344(16)
C9_4 C 0.8899(4) 0.3968(6) 0.2813(2)
H7_4 H 0.8811 0.3745 0.3192
C10_4 C 0.8750(4) 0.3023(6) 0.23393(19)
H8_4 H 0.8565 0.2172 0.2407
loop_
_geom_bond_atom_site_label_1
_geom_bond_atom_site_label_2
_geom_bond_site_symmetry_1
_geom_bond_site_symmetry_2
O3 H3 1_555 1_555
H6 C7 1_555 1_555
C8 O3 1_555 1_555
C7 C8 1_555 1_555
Zn1 O1 1_555 1_555
O1 C2 1_555 1_555
C1 H1 1_555 1_555
N1 Zn1 1_555 1_555
C2 C1 1_555 1_555
O2 Zn1 1_555 1_555
C3 C2 1_555 1_555
H2 C3 1_555 1_555
C4 C3 1_555 1_555
H4 C4 1_555 1_555
O4 C17 1_555 1_555
C5 C4 1_555 1_555
C6 C5 1_555 1_555
H5 C6 1_555 1_555
H7 C9 1_555 1_555
C10 C5 1_555 1_555
H8 C10 1_555 1_555
C11 C1 1_555 1_555
C12 C11 1_555 1_555
H9 C12 1_555 1_555
C13 C12 1_555 1_555
H10 C13 1_555 1_555
C14 C13 1_555 1_555
C15 C14 1_555 1_555
H11 C15 1_555 1_555
C16 C15 1_555 1_555
H12 C16 1_555 1_555
C17 C16 1_555 1_555
C18 C17 1_555 1_555
H13 C18 1_555 1_555
C19 C14 1_555 1_555
H14 C19 1_555 1_555
C20 N1 1_555 1_555
H15 C20 1_555 1_555
C21 C20 1_555 1_555
H16 C21 1_555 1_555
C22 C21 1_555 1_555
C23 C22 1_555 1_555
C24 N1 1_555 1_555
H18 C24 1_555 1_555
Zn4 O4 1_555 1_555
O10 Zn1 1_555 1_555
O11 Zn1 1_555 1_555
O2 C11 1_555 1_555
C9 C10 1_555 1_555
C18 C19 1_555 1_555
C23 C24 1_555 1_555
C28 C27 1_555 1_555
C29 N2 1_555 1_555
H22 C29 1_555 1_555
Zn5 N2 1_555 1_555
C30 H23 1_555 1_555
O6 Zn5 1_555 1_555
O11 C46 1_555 1_555
C40 C30 1_555 1_555
C41 C40 1_555 1_555
H31 C41 1_555 1_555
C42 C41 1_555 1_555
H32 C42 1_555 1_555
C43 C42 1_555 1_555
C44 C43 1_555 1_555
H33 C44 1_555 1_555
C45 C44 1_555 1_555
H34 C45 1_555 1_555
C46 C45 1_555 1_555
C47 C46 1_555 1_555
H35 C47 1_555 1_555
C48 C43 1_555 1_555
H36 C48 1_555 1_555
Zn6 O11 1_555 1_555
O12 Zn5 1_555 1_555
C28 C29 1_555 1_555
O6 C40 1_555 1_555
C47 C48 1_555 1_555
C25 H19 1_555 1_555
C26 C25 1_555 1_555
H20 C26 1_555 1_555
C31 O5 1_555 1_555
C32 C31 1_555 1_555
H24 C32 1_555 1_555
C33 C32 1_555 1_555
H26 C33 1_555 1_555
C34 C33 1_555 1_555
C35 C34 1_555 1_555
H27 C35 1_555 1_555
H29 C38 1_555 1_555
C39 C34 1_555 1_555
H30 C39 1_555 1_555
C38 C39 1_555 1_555
N2_2 C25_2 1_555 1_555
C25_2 H19_2 1_555 1_555
C26_2 C25_2 1_555 1_555
C28_2 C27_2 1_555 1_555
H21_2 C28_2 1_555 1_555
C29_2 N2_2 1_555 1_555
H22_2 C29_2 1_555 1_555
Zn6 N2_2 1_555 1_555
O6_2 Zn6 1_555 1_555
O10 Zn6 1_555 1_555
C26_2 C27_2 1_555 1_555
C28_2 C29_2 1_555 1_555
C30_2 H23_2 1_555 1_555
C31_2 O5_2 1_555 1_555
C32_2 C31_2 1_555 1_555
H24_2 C32_2 1_555 1_555
O7 H25 1_555 1_555
C33_2 C32_2 1_555 1_555
H26_2 C33_2 1_555 1_555
O12 C46_2 1_555 1_555
C34_2 C33_2 1_555 1_555
C35_2 C34_2 1_555 1_555
H27_2 C35_2 1_555 1_555
C36 C35_2 1_555 1_555
H28 C36 1_555 1_555
C37 O7 1_555 1_555
C38_2 C37 1_555 1_555
H29_2 C38_2 1_555 1_555
C39_2 C34_2 1_555 1_555
H30_2 C39_2 1_555 1_555
C40_2 C30_2 1_555 1_555
C41_2 C40_2 1_555 1_555
H31_2 C41_2 1_555 1_555
C42_2 C41_2 1_555 1_555
C43_2 C42_2 1_555 1_555
C44_2 C43_2 1_555 1_555
H33_2 C44_2 1_555 1_555
C45_2 C44_2 1_555 1_555
H34_2 C45_2 1_555 1_555
C46_2 C45_2 1_555 1_555
C47_2 C46_2 1_555 1_555
C48_2 C43_2 1_555 1_555
C30_2 C31_2 1_555 1_555
C36 C37 1_555 1_555
C38_2 C39_2 1_555 1_555
C47_2 C48_2 1_555 1_555
C1_2 H1_2 1_555 1_555
O10 C17_2 1_555 1_555
C11_2 C1_2 1_555 1_555
C12_2 C11_2 1_555 1_555
H9_2 C12_2 1_555 1_555
C13_2 C12_2 1_555 1_555
C14_2 C13_2 1_555 1_555
C15_2 C14_2 1_555 1_555
H11_2 C15_2 1_555 1_555
C16_2 C15_2 1_555 1_555
H12_2 C16_2 1_555 1_555
C17_2 C16_2 1_555 1_555
C18_2 C17_2 1_555 1_555
C19_2 C14_2 1_555 1_555
C18_2 C19_2 1_555 1_555
H15_2 C20_2 1_555 1_555
C21_2 C20_2 1_555 1_555
N1_2 Zn4 1_555 1_555
O2_2 Zn4 1_555 1_555
C23_2 C22_2 1_555 1_555
H17_2 C23_2 1_555 1_555
C24_2 N1_2 1_555 1_555
H18_2 C24_2 1_555 1_555
C23_2 C24_2 1_555 1_555
N2_3 C25_3 1_555 1_555
C25_3 H19_3 1_555 1_555
C26_3 C25_3 1_555 1_555
H20_3 C26_3 1_555 1_555
C28_3 C27_3 1_555 1_555
C29_3 N2_3 1_555 1_555
H22_3 C29_3 1_555 1_555
Zn2 N2_3 1_555 1_555
O5_3 Zn2 1_555 1_555
C30_3 H23_3 1_555 1_555
C31_3 O5_3 1_555 1_555
O6_3 Zn2 1_555 1_555
C32_3 C31_3 1_555 1_555
H24_3 C32_3 1_555 1_555
C33_3 C32_3 1_555 1_555
H26_3 C33_3 1_555 1_555
O8 C46_3 1_555 1_555
C34_3 C33_3 1_555 1_555
C35_3 C34_3 1_555 1_555
H27_3 C35_3 1_555 1_555
H29_3 C38_3 1_555 1_555
C39_3 C34_3 1_555 1_555
H30_3 C39_3 1_555 1_555
C40_3 C30_3 1_555 1_555
C41_3 C40_3 1_555 1_555
H31_3 C41_3 1_555 1_555
C42_3 C41_3 1_555 1_555
H32_3 C42_3 1_555 1_555
C43_3 C42_3 1_555 1_555
C44_3 C43_3 1_555 1_555
H33_3 C44_3 1_555 1_555
C45_3 C44_3 1_555 1_555
H34_3 C45_3 1_555 1_555
C46_3 C45_3 1_555 1_555
C47_3 C46_3 1_555 1_555
H35_3 C47_3 1_555 1_555
C48_3 C43_3 1_555 1_555
H36_3 C48_3 1_555 1_555
Zn6_2 O8 1_555 1_555
O9 Zn2 1_555 1_555
O12_2 Zn2 1_555 1_555
C26_3 C27_3 1_555 1_555
C28_3 C29_3 1_555 1_555
C30_3 C31_3 1_555 1_555
O6_3 C40_3 1_555 1_555
C38_3 C39_3 1_555 1_555
C47_3 C48_3 1_555 1_555
O1_2 C2_2 1_555 1_555
C3_2 C2_2 1_555 1_555
H2_2 C3_2 1_555 1_555
C4_2 C3_2 1_555 1_555
H4_2 C4_2 1_555 1_555
C5_2 C4_2 1_555 1_555
C6_2 C5_2 1_555 1_555
H5_2 C6_2 1_555 1_555
H7_2 C9_2 1_555 1_555
C10_2 C5_2 1_555 1_555
H8_2 C10_2 1_555 1_555
H15_3 C20_3 1_555 1_555
C21_3 C20_3 1_555 1_555
H16_3 C21_3 1_555 1_555
C9_2 C10_2 1_555 1_555
C1_3 H1_3 1_555 1_555
N1_3 Zn3 1_555 1_555
O2_3 Zn3 1_555 1_555
O9 C17_3 1_555 1_555
C11_3 C1_3 1_555 1_555
C12_3 C11_3 1_555 1_555
H9_3 C12_3 1_555 1_555
C13_3 C12_3 1_555 1_555
H10_3 C13_3 1_555 1_555
C14_3 C13_3 1_555 1_555
C15_3 C14_3 1_555 1_555
H11_3 C15_3 1_555 1_555
C16_3 C15_3 1_555 1_555
H12_3 C16_3 1_555 1_555
C17_3 C16_3 1_555 1_555
C18_3 C17_3 1_555 1_555
H13_3 C18_3 1_555 1_555
C19_3 C14_3 1_555 1_555
H14_3 C19_3 1_555 1_555
C23_3 C22_3 1_555 1_555
C24_3 N1_3 1_555 1_555
H18_3 C24_3 1_555 1_555
Zn4_2 O9 1_555 1_555
O10_2 Zn3 1_555 1_555
O2_3 C11_3 1_555 1_555
C18_3 C19_3 1_555 1_555
C23_3 C24_3 1_555 1_555
O1_3 C2_3 1_555 1_555
C1_4 H1_4 1_555 1_555
C2_3 C1_4 1_555 1_555
C3_3 C2_3 1_555 1_555
H2_3 C3_3 1_555 1_555
O3_2 H3_2 1_555 1_555
C4_3 C3_3 1_555 1_555
H4_3 C4_3 1_555 1_555
O10_2 C17_4 1_555 1_555
C5_3 C4_3 1_555 1_555
C6_3 C5_3 1_555 1_555
H5_3 C6_3 1_555 1_555
C7_2 C6_3 1_555 1_555
H6_2 C7_2 1_555 1_555
C8_2 O3_2 1_555 1_555
C9_3 C8_2 1_555 1_555
H7_3 C9_3 1_555 1_555
C10_3 C5_3 1_555 1_555
H8_3 C10_3 1_555 1_555
C11_4 C1_4 1_555 1_555
C12_4 C11_4 1_555 1_555
H9_4 C12_4 1_555 1_555
C13_4 C12_4 1_555 1_555
C14_4 C13_4 1_555 1_555
C15_4 C14_4 1_555 1_555
H11_4 C15_4 1_555 1_555
C16_4 C15_4 1_555 1_555
H12_4 C16_4 1_555 1_555
C17_4 C16_4 1_555 1_555
C18_4 C17_4 1_555 1_555
C19_4 C14_4 1_555 1_555
C7_2 C8_2 1_555 1_555
C9_3 C10_3 1_555 1_555
C18_4 C19_4 1_555 1_555
N1_4 Zn4_2 1_555 1_555
O2_4 Zn4_2 1_555 1_555
C20_4 N1_4 1_555 1_555
H15_4 C20_4 1_555 1_555
C21_4 C20_4 1_555 1_555
C22_4 C21_4 1_555 1_555
C23_4 C22_4 1_555 1_555
H17_4 C23_4 1_555 1_555
C24_4 N1_4 1_555 1_555
H18_4 C24_4 1_555 1_555
O12_2 Zn4_2 1_555 1_555
C23_4 C24_4 1_555 1_555
C28_4 C27_4 1_555 1_555
H21_4 C28_4 1_555 1_555
C29_4 N2_4 1_555 1_555
H22_4 C29_4 1_555 1_555
Zn6_2 N2_4 1_555 1_555
O6_4 Zn6_2 1_555 1_555
C28_4 C29_4 1_555 1_555
C25_4 H19_4 1_555 1_555
C26_4 C25_4 1_555 1_555
C30_4 H23_4 1_555 1_555
O12_2 C46_4 1_555 1_555
C40_4 C30_4 1_555 1_555
C41_4 C40_4 1_555 1_555
H31_4 C41_4 1_555 1_555
C42_4 C41_4 1_555 1_555
C43_4 C42_4 1_555 1_555
C44_4 C43_4 1_555 1_555
H33_4 C44_4 1_555 1_555
C45_4 C44_4 1_555 1_555
H34_4 C45_4 1_555 1_555
C46_4 C45_4 1_555 1_555
C47_4 C46_4 1_555 1_555
C48_4 C43_4 1_555 1_555
C47_4 C48_4 1_555 1_555
O7_2 H25_2 1_555 1_555
H28_2 C36_2 1_555 1_555
C37_2 O7_2 1_555 1_555
C36_2 C37_2 1_555 1_555
O3_3 H3_3 1_555 1_555
H6_3 C7_3 1_555 1_555
C8_3 O3_3 1_555 1_555
C7_3 C8_3 1_555 1_555
O7_3 H25_3 1_555 1_555
H28_3 C36_3 1_555 1_555
C37_3 O7_3 1_555 1_555
C36_3 C37_3 1_555 1_555
C31_4 O5_4 1_555 1_555
C32_4 C31_4 1_555 1_555
H24_4 C32_4 1_555 1_555
O7_4 H25_4 1_555 1_555
C33_4 C32_4 1_555 1_555
H26_4 C33_4 1_555 1_555
C34_4 C33_4 1_555 1_555
C35_4 C34_4 1_555 1_555
H27_4 C35_4 1_555 1_555
C36_4 C35_4 1_555 1_555
H28_4 C36_4 1_555 1_555
C37_4 O7_4 1_555 1_555
C38_4 C37_4 1_555 1_555
H29_4 C38_4 1_555 1_555
C39_4 C34_4 1_555 1_555
H30_4 C39_4 1_555 1_555
C36_4 C37_4 1_555 1_555
C38_4 C39_4 1_555 1_555
O1_4 C2_4 1_555 1_555
C3_4 C2_4 1_555 1_555
H2_4 C3_4 1_555 1_555
O3_4 H3_4 1_555 1_555
C4_4 C3_4 1_555 1_555
H4_4 C4_4 1_555 1_555
C5_4 C4_4 1_555 1_555
C6_4 C5_4 1_555 1_555
H5_4 C6_4 1_555 1_555
C7_4 C6_4 1_555 1_555
H6_4 C7_4 1_555 1_555
C8_4 O3_4 1_555 1_555
C9_4 C8_4 1_555 1_555
H7_4 C9_4 1_555 1_555
C10_4 C5_4 1_555 1_555
H8_4 C10_4 1_555 1_555
C7_4 C8_4 1_555 1_555
C9_4 C10_4 1_555 1_555

#END
