
###############################################################################
#
# This file contains modified crystal structure data generated from the
# MOF subset of the Cambridge Structural Database (CSD) v543 
# hosted by the Cambridge Crystallographic Data Centre (CCDC).
#
# This work is licensed under the Creative Commons
# Attribution-NonCommercial-ShareAlike 4.0 International License.
# To view a copy of this license, visit
# http://creativecommons.org/licenses/by-nc-sa/4.0/
# or send a letter to
# Creative Commons, PO Box 1866, Mountain View, CA 94042, USA.
#
# CIF created using the CSD Python API on 29 September 2022
# The structure has been converted into the P1 space group
# The structure has a 3D framework
# The original CSD entry CADQAB is in the triclinic crystal system
# The framework has been calculated to contain at least 10.0% void space
# The void calculation uses a probe of radius 1.32A, grid spacing 0.4
#
###############################################################################

data_CADQAB
_chemical_formula_moiety         '(C36 H40 N4 O22 Pr2)n'
_symmetry_cell_setting           triclinic
_symmetry_space_group_name_H-M   'P 1'
_symmetry_Int_Tables_number      1
_space_group_name_Hall           'P 1'
loop_
_symmetry_equiv_pos_site_id
_symmetry_equiv_pos_as_xyz
1 x,y,z
_cell_length_a                   10.406(2)
_cell_length_b                   11.062(2)
_cell_length_c                   12.407(3)
_cell_angle_alpha                103.58(3)
_cell_angle_beta                 106.34(3)
_cell_angle_gamma                98.73(3)
_cell_volume                     1295.35
loop_
_atom_site_label
_atom_site_type_symbol
_atom_site_fract_x
_atom_site_fract_y
_atom_site_fract_z
N2 N 0.0213(5) 0.7025(5) 0.1044(4)
C14 C 0.0369(6) 0.6227(5) 0.1682(5)
C15 C 0.1301(7) 0.8152(6) 0.1294(6)
H6 H 0.2067 0.8180 0.1955
H7 H 0.0958 0.8908 0.1471
H8 H 0.1594 0.8111 0.0621
H19 H 0.130(6) 0.653(6) 0.236(5)
Pr3 Pr 0.09415(2) 0.54426(2) 0.682660(19)
O17 O 0.1364(3) 0.4226(4) 0.3161(3)
O20 O 0.1448(3) 0.4806(3) 0.5007(3)
O29 O 0.0399(3) 0.6732(3) 0.4117(3)
C19 C 0.0008(5) 0.0881(5) 0.5994(4)
H23 H 0.0009 0.1476 0.6663
H32 H 0.1676 0.3929 0.0007
H33 H 0.0808 0.3267 0.0647
O13 O 0.1707(4) 0.7591(4) 0.8505(3)
O14 O 0.2541(4) 0.4052(4) 0.7323(3)
O16 O 0.0578(5) 0.9521(4) 0.7151(3)
H22 H 0.0756 0.8818 0.7107
O24 O 0.0523(4) 0.4746(4) 0.8467(3)
O25 O 0.0930(4) 0.7331(3) 0.6079(3)
O27 O 0.3307(4) 0.6822(3) 0.7914(3)
N3 N 0.4309(5) 0.3349(5) 0.8330(4)
C22 C 0.0557(5) 0.7534(4) 0.5087(4)
C27 C 0.0298(5) 0.9723(5) 0.6075(4)
C29 C 0.3750(6) 0.4235(6) 0.7944(5)
C31 C 0.0288(5) 0.8819(4) 0.5066(4)
C34 C 0.3532(7) 0.2056(7) 0.8020(6)
H29 H 0.2737 0.1899 0.7339
H30 H 0.4096 0.1476 0.7850
H31 H 0.3243 0.1928 0.8663
C35 C 0.1031(7) 0.3171(8) 0.9937(7)
H34 H 0.1433 0.2447 0.9804
C36 C 0.5751(7) 0.3662(8) 0.9043(6)
H35 H 0.6229 0.3128 0.8653
H36 H 0.6149 0.4543 0.9157
H37 H 0.5828 0.3523 0.9792
H40 H 0.439(6) 0.509(6) 0.824(5)
Pr1 Pr 0.90585(2) 0.45574(2) 0.317340(19)
O1 O 0.8293(4) 0.2409(4) 0.1495(3)
O2 O 0.7459(4) 0.5948(4) 0.2677(3)
O3 O 0.6434(4) 0.6025(5) 0.7370(3)
H1 H 0.7259 0.6057 0.7504
O4 O 0.9422(5) 0.0479(4) 0.2849(3)
H2 H 0.9244 0.1182 0.2893
O5 O 0.8636(3) 0.5774(4) 0.6839(3)
O6 O 0.8552(3) 0.5194(3) 0.4993(3)
O7 O 0.9477(4) 0.5254(4) 0.1533(3)
O8 O 0.9070(4) 0.2669(3) 0.3921(3)
O9 O 0.6693(4) 0.3178(3) 0.2086(3)
O10 O 0.9601(3) 0.3268(3) 0.5883(3)
N1 N 0.5691(5) 0.6651(5) 0.1670(4)
C2 C 0.7058(5) 0.2288(5) 0.1473(4)
C3 C 0.6423(5) 0.5185(5) 0.5380(4)
C4 C 0.9443(5) 0.2466(4) 0.4913(4)
C5 C 0.4602(5) 0.1044(5) 0.0606(4)
H4 H 0.4345 0.1737 0.1007
C6 C 0.7951(4) 0.5397(4) 0.5743(4)
C7 C 0.5997(5) 0.1097(4) 0.0713(4)
C8 C 0.5660(5) 0.4659(6) 0.4193(4)
H5 H 0.6107 0.4424 0.3653
C9 C 0.9702(5) 0.0277(5) 0.3925(4)
C10 C 0.6382(5) 0.0060(5) 0.0109(4)
C11 C 0.6250(6) 0.5765(6) 0.2056(5)
C12 C 0.5753(5) 0.5518(6) 0.6191(4)
C13 C 0.9712(5) 0.1181(4) 0.4934(4)
C16 C 0.6468(7) 0.7944(7) 0.1980(6)
H9 H 0.7263 0.8101 0.2661
H10 H 0.5904 0.8524 0.2150
H11 H 0.6757 0.8072 0.1337
C17 C 0.8969(7) 0.6829(8) 0.0063(7)
H14 H 0.8567 0.7553 0.0196
C18 C 0.4249(7) 0.6338(8) 0.0957(6)
H15 H 0.3771 0.6872 0.1347
H16 H 0.3851 0.5457 0.0843
H17 H 0.4172 0.6477 0.0208
H18 H 0.8234 0.0604 0.0532
H20 H 0.561(6) 0.491(6) 0.176(5)
O15 O 0.3566(4) 0.3975(5) 0.2630(3)
H21 H 0.2741 0.3943 0.2496
C21 C 0.3577(5) 0.4815(5) 0.4620(4)
C24 C 0.2049(4) 0.4603(4) 0.4257(4)
C26 C 0.4340(5) 0.5341(6) 0.5807(4)
H25 H 0.3893 0.5576 0.6347
C30 C 0.4247(5) 0.4482(6) 0.3809(4)
H12 H 0.8324 0.6071 0.9993
H13 H 0.9192 0.6733 0.9353
O31 O 0.2325(6) 0.0074(6) 0.9854(6)
C1 C 0.9992(5) 0.9119(5) 0.4006(4)
H3 H 0.9991 0.8524 0.3337
O11 O 0.7675(6) 0.9926(6) 0.0146(6)
N4 N 0.9787(5) 0.2975(5) 0.8956(4)
C32 C 0.9631(6) 0.3773(5) 0.8318(5)
C33 C 0.8699(7) 0.1848(6) 0.8706(6)
H26 H 0.7933 0.1820 0.8045
H27 H 0.9042 0.1092 0.8529
H28 H 0.8406 0.1889 0.9379
H39 H 0.870(6) 0.347(6) 0.764(5)
C20 C 0.2942(5) 0.7712(5) 0.8527(4)
C23 C 0.5398(5) 0.8956(5) 0.9394(4)
H24 H 0.5655 0.8263 0.8993
C25 C 0.4003(5) 0.8903(4) 0.9287(4)
C28 C 0.3618(5) 0.9940(5) 0.9891(4)
H38 H 0.1766 0.9396 0.9468
loop_
_geom_bond_atom_site_label_1
_geom_bond_atom_site_label_2
_geom_bond_site_symmetry_1
_geom_bond_site_symmetry_2
N2 C14 1_555 1_555
C15 N2 1_555 1_555
H6 C15 1_555 1_555
H7 C15 1_555 1_555
H8 C15 1_555 1_555
H19 C14 1_555 1_555
H23 C19 1_555 1_555
Pr3 O20 1_555 1_555
Pr3 O13 1_555 1_555
O14 Pr3 1_555 1_555
O16 H22 1_555 1_555
O24 Pr3 1_555 1_555
O25 Pr3 1_555 1_555
O27 Pr3 1_555 1_555
N3 C29 1_555 1_555
C22 O25 1_555 1_555
C27 O16 1_555 1_555
C29 O14 1_555 1_555
C34 N3 1_555 1_555
H29 C34 1_555 1_555
H30 C34 1_555 1_555
H31 C34 1_555 1_555
H34 C35 1_555 1_555
C36 N3 1_555 1_555
H35 C36 1_555 1_555
H36 C36 1_555 1_555
H37 C36 1_555 1_555
H40 C29 1_555 1_555
O29 C22 1_555 1_555
C22 C31 1_555 1_555
C27 C31 1_555 1_555
Pr1 O1 1_555 1_555
O1 C2 1_555 1_555
O2 Pr1 1_555 1_555
O3 H1 1_555 1_555
O4 H2 1_555 1_555
O5 C6 1_555 1_555
O6 Pr1 1_555 1_555
O7 Pr1 1_555 1_555
O8 Pr1 1_555 1_555
O9 Pr1 1_555 1_555
O10 C4 1_555 1_555
N1 C11 1_555 1_555
C2 O9 1_555 1_555
C3 C6 1_555 1_555
C4 O8 1_555 1_555
C5 H4 1_555 1_555
C6 O6 1_555 1_555
C7 C2 1_555 1_555
C8 C3 1_555 1_555
H5 C8 1_555 1_555
C9 O4 1_555 1_555
C10 C7 1_555 1_555
C11 O2 1_555 1_555
C12 O3 1_555 1_555
C13 C4 1_555 1_555
C16 N1 1_555 1_555
H9 C16 1_555 1_555
H10 C16 1_555 1_555
H11 C16 1_555 1_555
H14 C17 1_555 1_555
C18 N1 1_555 1_555
H15 C18 1_555 1_555
H16 C18 1_555 1_555
H17 C18 1_555 1_555
H20 C11 1_555 1_555
O15 H21 1_555 1_555
O17 C24 1_555 1_555
C21 C24 1_555 1_555
C24 O20 1_555 1_555
C26 C12 1_555 1_555
H25 C26 1_555 1_555
C30 C8 1_555 1_555
C3 C12 1_555 1_555
C5 C7 1_555 1_555
C9 C13 1_555 1_555
O15 C30 1_555 1_555
C21 C26 1_555 1_555
C21 C30 1_555 1_555
C1 H3 1_555 1_555
N4 C32 1_555 1_555
C33 N4 1_555 1_555
H26 C33 1_555 1_555
H27 C33 1_555 1_555
H28 C33 1_555 1_555
H39 C32 1_555 1_555
O13 C20 1_555 1_555
C20 O27 1_555 1_555
H24 C23 1_555 1_555
C25 C20 1_555 1_555
C23 C25 1_555 1_555
C25 C28 1_555 1_555

#END
