
###############################################################################
#
# This file contains modified crystal structure data generated from the
# MOF subset of the Cambridge Structural Database (CSD) v543 
# hosted by the Cambridge Crystallographic Data Centre (CCDC).
#
# This work is licensed under the Creative Commons
# Attribution-NonCommercial-ShareAlike 4.0 International License.
# To view a copy of this license, visit
# http://creativecommons.org/licenses/by-nc-sa/4.0/
# or send a letter to
# Creative Commons, PO Box 1866, Mountain View, CA 94042, USA.
#
# CIF created using the CSD Python API on 29 September 2022
# The structure has been converted into the P1 space group
# The structure has a 3D framework
# The original CSD entry CAFRUX is in the cubic crystal system
# The original CSD entry CAFRUX is in a Sohncke space group
# The framework has been calculated to contain at least 10.0% void space
# The void calculation uses a probe of radius 1.32A, grid spacing 0.4
# The framework is charged, counterions have been retained in the structure
#
###############################################################################

data_CAFRUX
_chemical_formula_moiety         '(C156 H144 Ag7 Cl8 O32 S24 1-)n'
_symmetry_cell_setting           triclinic
_symmetry_space_group_name_H-M   'P 1'
_symmetry_Int_Tables_number      1
_space_group_name_Hall           'P 1'
loop_
_symmetry_equiv_pos_site_id
_symmetry_equiv_pos_as_xyz
1 x,y,z
_cell_length_a                   17.350(3)
_cell_length_b                   17.350(3)
_cell_length_c                   17.350(3)
_cell_angle_alpha                90
_cell_angle_beta                 90
_cell_angle_gamma                90
_cell_volume                     5222.74
loop_
_atom_site_label
_atom_site_type_symbol
_atom_site_fract_x
_atom_site_fract_y
_atom_site_fract_z
C29 C 0.0103(4) 0.3383(6) 0.8251(6)
H26 H 0.0534 0.3380 0.7932
H27 H 0.0358 0.4376 0.8806
Ag3 Ag 0.02358(3) 0.47642(3) 0.52358(3)
C34 C 0.8579(3) 0.1180(4) 0.0298(3)
C35 C 0.7935(4) 0.0704(4) 0.0292(5)
C36 C 0.7397(4) 0.0751(6) 0.0883(6)
H32 H 0.6966 0.0432 0.0880
C37 C 0.7502(7) 0.1274(7) 0.1481(5)
H33 H 0.7142 0.1306 0.1876
C38 C 0.8146(8) 0.1751(6) 0.1486(4)
H34 H 0.8217 0.2101 0.1886
C39 C 0.8685(5) 0.1704(4) 0.0895(4)
H35 H 0.9115 0.2023 0.0898
Ag1 Ag 0.77358(3) 0.22642(3) 0.72642(3)
C1 C 0.6320(4) 0.1079(3) 0.7798(3)
C2 C 0.6796(4) 0.0435(4) 0.7792(5)
H1 H 0.7146 0.0364 0.7392
C4 C 0.6226(7) 0.0002(7) 0.8981(5)
C5 C 0.5749(6) 0.0646(8) 0.8986(4)
H4 H 0.5399 0.0717 0.9386
C6 C 0.5796(4) 0.1185(5) 0.8395(4)
H5 H 0.5477 0.1615 0.8398
S1 S 0.63529(10) 0.17992(10) 0.70924(10)
C7 C 0.6286(4) 0.1250 0.6214(4)
H6 H 0.6717 0.0904 0.6162
S2 S 0.54076(10) 0.07008(10) 0.61471(10)
C8 C 0.4702(3) 0.1421(3) 0.6180(4)
C9 C 0.4708(5) 0.2065(4) 0.5704(4)
H7 H 0.5108 0.2136 0.5354
C10 C 0.4117(6) 0.2603(4) 0.5751(6)
H8 H 0.4120 0.3034 0.5432
C11 C 0.3519(5) 0.2498(7) 0.6274(7)
H9 H 0.3124 0.2858 0.6306
C12 C 0.3514(4) 0.1854(8) 0.6751(6)
H10 H 0.3114 0.1783 0.7101
C13 C 0.4105(4) 0.1315(5) 0.6704(4)
H11 H 0.4102 0.0885 0.7023
H12 H 0.6338 0.1596 0.5783
C14 C 0.7202(3) 0.3680(4) 0.6079(3)
C15 C 0.7208(5) 0.3204(4) 0.5435(4)
H13 H 0.7608 0.2854 0.5364
C16 C 0.6617(6) 0.3251(6) 0.4897(4)
H14 H 0.6620 0.2932 0.4466
C17 C 0.6019(5) 0.3774(7) 0.5002(7)
H15 H 0.5624 0.3806 0.4642
C18 C 0.6014(4) 0.4251(6) 0.5646(8)
H16 H 0.5614 0.4601 0.5717
C19 C 0.6605(4) 0.4204(4) 0.6185(5)
H17 H 0.6602 0.4523 0.6615
S3 S 0.79076(10) 0.36471(10) 0.67992(10)
C20 C 0.8786(4) 0.3714(4) 0.6250
H18 H 0.8838 0.3283 0.5904
S4 S 0.88529(10) 0.45924(10) 0.57008(10)
C21 C 0.8820(4) 0.5298(3) 0.6421(3)
C22 C 0.9296(4) 0.5292(5) 0.7065(4)
H19 H 0.9646 0.4892 0.7136
C23 C 0.9249(6) 0.5883(6) 0.7603(4)
H20 H 0.9568 0.5880 0.8034
C24 C 0.8726(7) 0.6481(5) 0.7498(7)
H21 H 0.8694 0.6876 0.7858
C25 C 0.8249(6) 0.6486(4) 0.6854(8)
H22 H 0.7899 0.6886 0.6783
C26 C 0.8296(4) 0.5895(4) 0.6315(5)
H23 H 0.7977 0.5898 0.5885
H24 H 0.9217 0.3662 0.6596
C27 C 0.8921(3) 0.2798(3) 0.8680(4)
C28 C 0.9565(4) 0.2792(5) 0.8204(4)
H25 H 0.9636 0.2392 0.7854
C30 C 0.9998(7) 0.3981(5) 0.8774(7)
C31 C 0.9354(8) 0.3986(4) 0.9251(6)
H28 H 0.9283 0.4386 0.9601
C32 C 0.8815(5) 0.3395(4) 0.9204(4)
H29 H 0.8385 0.3398 0.9523
S5 S 0.82008(10) 0.20924(10) 0.86471(10)
C33 C 0.8750 0.1214(4) 0.8714(4)
H30 H 0.9096 0.1162 0.8283
S6 S 0.92992(10) 0.11471(10) 0.95924(10)
H31 H 0.7864 0.0354 0.9892
H36 H 0.8404 0.0783 0.8662
Ag2 Ag 0.52358(3) 0.02358(3) 0.47642(3)
S8 S 0.38529(10) 0.04076(10) 0.42992(10)
C3 C 0.6749(6) 0.9897(4) 0.8383(6)
H2 H 0.7068 0.9466 0.8380
H3 H 0.6194 0.9642 0.9376
Ag4 Ag 0.97642(3) 0.97642(3) 0.97642(3)
S7 S 0.57008(10) 0.88529(10) 0.45924(10)
C8_2 C 0.0298(3) 0.8579(3) 0.1180(4)
C9_2 C 0.0292(5) 0.7935(4) 0.0704(4)
C10_2 C 0.0883(6) 0.7397(4) 0.0751(6)
H8_2 H 0.0880 0.6966 0.0432
C11_2 C 0.1481(5) 0.7502(7) 0.1274(7)
H9_2 H 0.1876 0.7142 0.1306
C12_2 C 0.1486(4) 0.8146(8) 0.1751(6)
H10_2 H 0.1886 0.8217 0.2101
C13_2 C 0.0895(4) 0.8685(5) 0.1704(4)
H11_2 H 0.0898 0.9115 0.2023
S8_2 S 0.11471(10) 0.95924(10) 0.92992(10)
C3_2 C 0.8251(6) 0.0103(4) 0.3383(6)
H2_2 H 0.7932 0.0534 0.3380
H3_2 H 0.8806 0.0358 0.4376
Ag1_2 Ag 0.72642(3) 0.77358(3) 0.22642(3)
C1_2 C 0.8680(4) 0.8921(3) 0.2798(3)
C2_2 C 0.8204(4) 0.9565(4) 0.2792(5)
H1_2 H 0.7854 0.9636 0.2392
C4_2 C 0.8774(7) 0.9998(7) 0.3981(5)
C5_2 C 0.9251(6) 0.9354(8) 0.3986(4)
H4_2 H 0.9601 0.9283 0.4386
C6_2 C 0.9204(4) 0.8815(5) 0.3395(4)
H5_2 H 0.9523 0.8385 0.3398
S1_2 S 0.86471(10) 0.82008(10) 0.20924(10)
C7_2 C 0.8714(4) 0.8750 0.1214(4)
H6_2 H 0.8283 0.9096 0.1162
S2_2 S 0.95924(10) 0.92992(10) 0.11471(10)
H7_2 H 0.9892 0.7864 0.0354
H12_2 H 0.8662 0.8404 0.0783
C14_2 C 0.7798(3) 0.6320(4) 0.1079(3)
C15_2 C 0.7792(5) 0.6796(4) 0.0435(4)
H13_2 H 0.7392 0.7146 0.0364
C17_2 C 0.8981(5) 0.6226(7) 0.0002(7)
C18_2 C 0.8986(4) 0.5749(6) 0.0646(8)
H16_2 H 0.9386 0.5399 0.0717
C19_2 C 0.8395(4) 0.5796(4) 0.1185(5)
H17_2 H 0.8398 0.5477 0.1615
S3_2 S 0.70924(10) 0.63529(10) 0.17992(10)
C20_2 C 0.6214(4) 0.6286(4) 0.1250
H18_2 H 0.6162 0.6717 0.0904
S4_2 S 0.61471(10) 0.54076(10) 0.07008(10)
C21_2 C 0.6180(4) 0.4702(3) 0.1421(3)
C22_2 C 0.5704(4) 0.4708(5) 0.2065(4)
H19_2 H 0.5354 0.5108 0.2136
C23_2 C 0.5751(6) 0.4117(6) 0.2603(4)
H20_2 H 0.5432 0.4120 0.3034
C24_2 C 0.6274(7) 0.3519(5) 0.2498(7)
H21_2 H 0.6306 0.3124 0.2858
C25_2 C 0.6751(6) 0.3514(4) 0.1854(8)
H22_2 H 0.7101 0.3114 0.1783
C26_2 C 0.6704(4) 0.4105(4) 0.1315(5)
H23_2 H 0.7023 0.4102 0.0885
H24_2 H 0.5783 0.6338 0.1596
C27_2 C 0.6079(3) 0.7202(3) 0.3680(4)
C28_2 C 0.5435(4) 0.7208(5) 0.3204(4)
H25_2 H 0.5364 0.7608 0.2854
C29_2 C 0.4897(4) 0.6617(6) 0.3251(6)
H26_2 H 0.4466 0.6620 0.2932
C30_2 C 0.5002(7) 0.6019(5) 0.3774(7)
H27_2 H 0.4642 0.5624 0.3806
C31_2 C 0.5646(8) 0.6014(4) 0.4251(6)
H28_2 H 0.5717 0.5614 0.4601
C32_2 C 0.6185(5) 0.6605(4) 0.4204(4)
H29_2 H 0.6615 0.6602 0.4523
S5_2 S 0.67992(10) 0.79076(10) 0.36471(10)
C33_2 C 0.6250 0.8786(4) 0.3714(4)
H30_2 H 0.5904 0.8838 0.3283
C34_2 C 0.6421(3) 0.8820(4) 0.5298(3)
C35_2 C 0.7065(4) 0.9296(4) 0.5292(5)
H31_2 H 0.7136 0.9646 0.4892
C36_2 C 0.7603(4) 0.9249(6) 0.5883(6)
H32_2 H 0.8034 0.9568 0.5880
C37_2 C 0.7498(7) 0.8726(7) 0.6481(5)
H33_2 H 0.7858 0.8694 0.6876
C38_2 C 0.6854(8) 0.8249(6) 0.6486(4)
H34_2 H 0.6783 0.7899 0.6886
C39_2 C 0.6315(5) 0.8296(4) 0.5895(4)
H35_2 H 0.5885 0.7977 0.5898
H36_2 H 0.6596 0.9217 0.3662
Ag3_2 Ag 0.47642(3) 0.52358(3) 0.02358(3)
C16_2 C 0.8383(6) 0.6749(6) 0.9897(4)
H14_2 H 0.8380 0.7068 0.9466
H15_2 H 0.9376 0.6194 0.9642
C21_3 C 0.1180(4) 0.0298(3) 0.8579(3)
C22_3 C 0.0704(4) 0.0292(5) 0.7935(4)
C23_3 C 0.0751(6) 0.0883(6) 0.7397(4)
H20_3 H 0.0432 0.0880 0.6966
C24_3 C 0.1274(7) 0.1481(5) 0.7502(7)
H21_3 H 0.1306 0.1876 0.7142
C25_3 C 0.1751(6) 0.1486(4) 0.8146(8)
H22_3 H 0.2101 0.1886 0.8217
C26_3 C 0.1704(4) 0.0895(4) 0.8685(5)
H23_3 H 0.2023 0.0898 0.9115
C16_3 C 0.3383(6) 0.8251(6) 0.0103(4)
H14_3 H 0.3380 0.7932 0.0534
H15_3 H 0.4376 0.8806 0.0358
S7_2 S 0.42992(10) 0.38529(10) 0.04076(10)
Ag1_3 Ag 0.22642(3) 0.72642(3) 0.77358(3)
C1_3 C 0.3680(4) 0.6079(3) 0.7202(3)
C2_3 C 0.3204(4) 0.5435(4) 0.7208(5)
H1_3 H 0.2854 0.5364 0.7608
C3_3 C 0.3251(6) 0.4897(4) 0.6617(6)
H2_3 H 0.2932 0.4466 0.6620
C4_3 C 0.3774(7) 0.5002(7) 0.6019(5)
H3_3 H 0.3806 0.4642 0.5624
C5_3 C 0.4251(6) 0.5646(8) 0.6014(4)
H4_3 H 0.4601 0.5717 0.5614
C6_3 C 0.4204(4) 0.6185(5) 0.6605(4)
H5_3 H 0.4523 0.6615 0.6602
S1_3 S 0.36471(10) 0.67992(10) 0.79076(10)
C7_3 C 0.3714(4) 0.6250 0.8786(4)
H6_3 H 0.3283 0.5904 0.8838
S2_3 S 0.45924(10) 0.57008(10) 0.88529(10)
C8_3 C 0.5298(3) 0.6421(3) 0.8820(4)
C9_3 C 0.5292(5) 0.7065(4) 0.9296(4)
H7_3 H 0.4892 0.7136 0.9646
C10_3 C 0.5883(6) 0.7603(4) 0.9249(6)
H8_3 H 0.5880 0.8034 0.9568
C11_3 C 0.6481(5) 0.7498(7) 0.8726(7)
H9_3 H 0.6876 0.7858 0.8694
C12_3 C 0.6486(4) 0.6854(8) 0.8249(6)
H10_3 H 0.6886 0.6783 0.7899
C13_3 C 0.5895(4) 0.6315(5) 0.8296(4)
H11_3 H 0.5898 0.5885 0.7977
H12_3 H 0.3662 0.6596 0.9217
C14_3 C 0.2798(3) 0.8680(4) 0.8921(3)
C15_3 C 0.2792(5) 0.8204(4) 0.9565(4)
H13_3 H 0.2392 0.7854 0.9636
C17_3 C 0.3981(5) 0.8774(7) 0.9998(7)
C18_3 C 0.3986(4) 0.9251(6) 0.9354(8)
H16_3 H 0.4386 0.9601 0.9283
C19_3 C 0.3395(4) 0.9204(4) 0.8815(5)
H17_3 H 0.3398 0.9523 0.8385
S3_3 S 0.20924(10) 0.86471(10) 0.82008(10)
C20_3 C 0.1214(4) 0.8714(4) 0.8750
H18_3 H 0.1162 0.8283 0.9096
H19_3 H 0.0354 0.9892 0.7864
H24_3 H 0.0783 0.8662 0.8404
C27_3 C 0.1079(3) 0.7798(3) 0.6320(4)
C28_3 C 0.0435(4) 0.7792(5) 0.6796(4)
H25_3 H 0.0364 0.7392 0.7146
C30_3 C 0.0002(7) 0.8981(5) 0.6226(7)
C31_3 C 0.0646(8) 0.8986(4) 0.5749(6)
H28_3 H 0.0717 0.9386 0.5399
C32_3 C 0.1185(5) 0.8395(4) 0.5796(4)
H29_3 H 0.1615 0.8398 0.5477
S5_3 S 0.17992(10) 0.70924(10) 0.63529(10)
C33_3 C 0.1250 0.6214(4) 0.6286(4)
H30_3 H 0.0904 0.6162 0.6717
S6_2 S 0.07008(10) 0.61471(10) 0.54076(10)
C34_3 C 0.1421(3) 0.6180(4) 0.4702(3)
C35_3 C 0.2065(4) 0.5704(4) 0.4708(5)
H31_3 H 0.2136 0.5354 0.5108
C36_3 C 0.2603(4) 0.5751(6) 0.4117(6)
H32_3 H 0.3034 0.5432 0.4120
C37_3 C 0.2498(7) 0.6274(7) 0.3519(5)
H33_3 H 0.2858 0.6306 0.3124
C38_3 C 0.1854(8) 0.6751(6) 0.3514(4)
H34_3 H 0.1783 0.7101 0.3114
C39_3 C 0.1315(5) 0.6704(4) 0.4105(4)
H35_3 H 0.0885 0.7023 0.4102
H36_3 H 0.1596 0.5783 0.6338
C29_3 C 0.9897(4) 0.8383(6) 0.6749(6)
H26_3 H 0.9466 0.8380 0.7068
H27_3 H 0.9642 0.9376 0.6194
Ag1_4 Ag 0.27358(3) 0.27358(3) 0.27358(3)
C1_4 C 0.1320(4) 0.3921(3) 0.2202(3)
C2_4 C 0.1796(4) 0.4565(4) 0.2208(5)
H1_4 H 0.2146 0.4636 0.2608
C3_4 C 0.1749(6) 0.5103(4) 0.1617(6)
H2_4 H 0.2068 0.5534 0.1620
C4_4 C 0.1226(7) 0.4998(7) 0.1019(5)
H3_4 H 0.1194 0.5358 0.0624
C5_4 C 0.0749(6) 0.4354(8) 0.1014(4)
H4_4 H 0.0399 0.4283 0.0614
C6_4 C 0.0796(4) 0.3815(5) 0.1605(4)
H5_4 H 0.0477 0.3385 0.1602
S1_4 S 0.13529(10) 0.32008(10) 0.29076(10)
C7_4 C 0.1286(4) 0.3750 0.3786(4)
H6_4 H 0.1717 0.4096 0.3838
S2_4 S 0.04076(10) 0.42992(10) 0.38529(10)
H7_4 H 0.0108 0.2864 0.4646
H12_4 H 0.1338 0.3404 0.4217
C14_4 C 0.2202(3) 0.1320(4) 0.3921(3)
C15_4 C 0.2208(5) 0.1796(4) 0.4565(4)
H13_4 H 0.2608 0.2146 0.4636
C16_4 C 0.1617(6) 0.1749(6) 0.5103(4)
H14_4 H 0.1620 0.2068 0.5534
C17_4 C 0.1019(5) 0.1226(7) 0.4998(7)
H15_4 H 0.0624 0.1194 0.5358
C18_4 C 0.1014(4) 0.0749(6) 0.4354(8)
H16_4 H 0.0614 0.0399 0.4283
C19_4 C 0.1605(4) 0.0796(4) 0.3815(5)
H17_4 H 0.1602 0.0477 0.3385
S3_4 S 0.29076(10) 0.13529(10) 0.32008(10)
C20_4 C 0.3786(4) 0.1286(4) 0.3750
H18_4 H 0.3838 0.1717 0.4096
H19_4 H 0.4646 0.0108 0.2864
H24_4 H 0.4217 0.1338 0.3404
C27_4 C 0.3921(3) 0.2202(3) 0.1320(4)
C28_4 C 0.4565(4) 0.2208(5) 0.1796(4)
H25_4 H 0.4636 0.2608 0.2146
C29_4 C 0.5103(4) 0.1617(6) 0.1749(6)
H26_4 H 0.5534 0.1620 0.2068
C30_4 C 0.4998(7) 0.1019(5) 0.1226(7)
H27_4 H 0.5358 0.0624 0.1194
C31_4 C 0.4354(8) 0.1014(4) 0.0749(6)
H28_4 H 0.4283 0.0614 0.0399
C32_4 C 0.3815(5) 0.1605(4) 0.0796(4)
H29_4 H 0.3385 0.1602 0.0477
S5_4 S 0.32008(10) 0.29076(10) 0.13529(10)
C33_4 C 0.3750 0.3786(4) 0.1286(4)
H30_4 H 0.4096 0.3838 0.1717
H31_4 H 0.2864 0.4646 0.0108
H36_4 H 0.3404 0.4217 0.1338
C34_4 C 0.3579(3) 0.3820(4) 0.9702(3)
C35_4 C 0.2935(4) 0.4296(4) 0.9708(5)
C36_4 C 0.2397(4) 0.4249(6) 0.9117(6)
H32_4 H 0.1966 0.4568 0.9120
C37_4 C 0.2502(7) 0.3726(7) 0.8519(5)
H33_4 H 0.2142 0.3694 0.8124
C38_4 C 0.3146(8) 0.3249(6) 0.8514(4)
H34_4 H 0.3217 0.2899 0.8114
C39_4 C 0.3685(5) 0.3296(4) 0.9105(4)
H35_4 H 0.4115 0.2977 0.9102
C21_4 C 0.3820(4) 0.9702(3) 0.3579(3)
C22_4 C 0.4296(4) 0.9708(5) 0.2935(4)
C23_4 C 0.4249(6) 0.9117(6) 0.2397(4)
H20_4 H 0.4568 0.9120 0.1966
C24_4 C 0.3726(7) 0.8519(5) 0.2502(7)
H21_4 H 0.3694 0.8124 0.2142
C25_4 C 0.3249(6) 0.8514(4) 0.3146(8)
H22_4 H 0.2899 0.8114 0.3217
C26_4 C 0.3296(4) 0.9105(4) 0.3685(5)
H23_4 H 0.2977 0.9102 0.4115
C8_4 C 0.9702(3) 0.3579(3) 0.3820(4)
C9_4 C 0.9708(5) 0.2935(4) 0.4296(4)
C10_4 C 0.9117(6) 0.2397(4) 0.4249(6)
H8_4 H 0.9120 0.1966 0.4568
C11_4 C 0.8519(5) 0.2502(7) 0.3726(7)
H9_4 H 0.8124 0.2142 0.3694
C12_4 C 0.8514(4) 0.3146(8) 0.3249(6)
H10_4 H 0.8114 0.3217 0.2899
C13_4 C 0.9105(4) 0.3685(5) 0.3296(4)
H11_4 H 0.9102 0.4115 0.2977
Cl1 Cl 0.88052(13) 0.11948(13) 0.61948(13)
O1 O 0.9253(4) 0.0747(4) 0.5747(4)
O2 O 0.8594(12) 0.0809(11) 0.6880(7)
O3 O 0.8120(7) 0.1406(12) 0.5809(11)
O4 O 0.9191(11) 0.1880(7) 0.6406(12)
Cl1_2 Cl 0.61948(13) 0.88052(13) 0.11948(13)
O1_2 O 0.5747(4) 0.9253(4) 0.0747(4)
O2_2 O 0.6406(12) 0.9191(11) 0.1880(7)
O3_2 O 0.6880(7) 0.8594(12) 0.0809(11)
O4_2 O 0.5809(11) 0.8120(7) 0.1406(12)
Cl1_3 Cl 0.11948(13) 0.61948(13) 0.88052(13)
O1_3 O 0.0747(4) 0.5747(4) 0.9253(4)
O2_3 O 0.1406(12) 0.5809(11) 0.8120(7)
O3_3 O 0.1880(7) 0.6406(12) 0.9191(11)
O4_3 O 0.0809(11) 0.6880(7) 0.8594(12)
Cl1_4 Cl 0.38052(13) 0.38052(13) 0.38052(13)
O1_4 O 0.4253(4) 0.4253(4) 0.4253(4)
O2_4 O 0.3594(12) 0.4191(11) 0.3120(7)
O3_4 O 0.3120(7) 0.3594(12) 0.4191(11)
O4_4 O 0.4191(11) 0.3120(7) 0.3594(12)
Cl1_5 Cl 0.36948(13) 0.63052(13) 0.13052(13)
O1_5 O 0.3247(4) 0.6753(4) 0.1753(4)
O2_5 O 0.3309(11) 0.6094(12) 0.0620(7)
O3_5 O 0.3906(12) 0.5620(7) 0.1691(11)
O4_5 O 0.4380(7) 0.6691(11) 0.1094(12)
Cl1_6 Cl 0.13052(13) 0.36948(13) 0.63052(13)
O1_6 O 0.1753(4) 0.3247(4) 0.6753(4)
O2_6 O 0.1691(11) 0.3906(12) 0.5620(7)
O3_6 O 0.1094(12) 0.4380(7) 0.6691(11)
O4_6 O 0.0620(7) 0.3309(11) 0.6094(12)
Cl1_7 Cl 0.86948(13) 0.86948(13) 0.86948(13)
O1_7 O 0.8247(4) 0.8247(4) 0.8247(4)
O2_7 O 0.8309(11) 0.8906(12) 0.9380(7)
O3_7 O 0.8906(12) 0.9380(7) 0.8309(11)
O4_7 O 0.9380(7) 0.8309(11) 0.8906(12)
Cl1_8 Cl 0.63052(13) 0.13052(13) 0.36948(13)
O1_8 O 0.6753(4) 0.1753(4) 0.3247(4)
O2_8 O 0.6691(11) 0.1094(12) 0.4380(7)
O3_8 O 0.6094(12) 0.0620(7) 0.3309(11)
O4_8 O 0.5620(7) 0.1691(11) 0.3906(12)
loop_
_geom_bond_atom_site_label_1
_geom_bond_atom_site_label_2
_geom_bond_site_symmetry_1
_geom_bond_site_symmetry_2
H26 C29 1_555 1_555
C35 C34 1_555 1_555
C36 C35 1_555 1_555
H32 C36 1_555 1_555
C37 C36 1_555 1_555
H33 C37 1_555 1_555
C38 C37 1_555 1_555
H34 C38 1_555 1_555
C39 C34 1_555 1_555
H35 C39 1_555 1_555
C38 C39 1_555 1_555
Ag1 S1 1_555 1_555
C1 C2 1_555 1_555
C2 H1 1_555 1_555
C5 C4 1_555 1_555
H4 C5 1_555 1_555
C6 C1 1_555 1_555
H5 C6 1_555 1_555
S1 C1 1_555 1_555
C7 S1 1_555 1_555
H6 C7 1_555 1_555
S2 C7 1_555 1_555
C8 S2 1_555 1_555
C9 C8 1_555 1_555
H7 C9 1_555 1_555
C10 C9 1_555 1_555
H8 C10 1_555 1_555
C11 C10 1_555 1_555
H9 C11 1_555 1_555
C12 C11 1_555 1_555
H10 C12 1_555 1_555
C13 C8 1_555 1_555
H11 C13 1_555 1_555
H12 C7 1_555 1_555
C14 C15 1_555 1_555
C15 H13 1_555 1_555
C16 C15 1_555 1_555
H14 C16 1_555 1_555
C17 C16 1_555 1_555
H15 C17 1_555 1_555
C18 C17 1_555 1_555
H16 C18 1_555 1_555
C19 C14 1_555 1_555
H17 C19 1_555 1_555
S3 Ag1 1_555 1_555
C20 S3 1_555 1_555
H18 C20 1_555 1_555
S4 C20 1_555 1_555
C21 S4 1_555 1_555
C22 C21 1_555 1_555
H19 C22 1_555 1_555
C23 C22 1_555 1_555
H20 C23 1_555 1_555
C24 C23 1_555 1_555
H21 C24 1_555 1_555
C25 C24 1_555 1_555
H22 C25 1_555 1_555
C26 C21 1_555 1_555
H23 C26 1_555 1_555
H24 C20 1_555 1_555
C27 C28 1_555 1_555
C28 H25 1_555 1_555
C31 C30 1_555 1_555
H28 C31 1_555 1_555
C32 C27 1_555 1_555
H29 C32 1_555 1_555
S5 Ag1 1_555 1_555
C33 S5 1_555 1_555
H30 C33 1_555 1_555
S6 C33 1_555 1_555
H36 C33 1_555 1_555
Ag2 S2 1_555 1_555
S8 Ag2 1_555 1_555
C5 C6 1_555 1_555
C12 C13 1_555 1_555
C14 S3 1_555 1_555
C18 C19 1_555 1_555
C25 C26 1_555 1_555
C27 S5 1_555 1_555
C31 C32 1_555 1_555
H2 C3 1_555 1_555
C9_2 C8_2 1_555 1_555
C10_2 C9_2 1_555 1_555
H8_2 C10_2 1_555 1_555
C11_2 C10_2 1_555 1_555
H9_2 C11_2 1_555 1_555
C12_2 C11_2 1_555 1_555
H10_2 C12_2 1_555 1_555
C13_2 C8_2 1_555 1_555
H11_2 C13_2 1_555 1_555
C12_2 C13_2 1_555 1_555
H2_2 C3_2 1_555 1_555
Ag1_2 S1_2 1_555 1_555
C1_2 C2_2 1_555 1_555
C2_2 H1_2 1_555 1_555
C5_2 C4_2 1_555 1_555
H4_2 C5_2 1_555 1_555
C6_2 C1_2 1_555 1_555
H5_2 C6_2 1_555 1_555
S1_2 C1_2 1_555 1_555
C7_2 S1_2 1_555 1_555
H6_2 C7_2 1_555 1_555
S2_2 C7_2 1_555 1_555
H12_2 C7_2 1_555 1_555
C14_2 C15_2 1_555 1_555
C15_2 H13_2 1_555 1_555
C18_2 C17_2 1_555 1_555
H16_2 C18_2 1_555 1_555
C19_2 C14_2 1_555 1_555
H17_2 C19_2 1_555 1_555
S3_2 Ag1_2 1_555 1_555
C20_2 S3_2 1_555 1_555
H18_2 C20_2 1_555 1_555
S4_2 C20_2 1_555 1_555
C21_2 S4_2 1_555 1_555
C22_2 C21_2 1_555 1_555
H19_2 C22_2 1_555 1_555
C23_2 C22_2 1_555 1_555
H20_2 C23_2 1_555 1_555
C24_2 C23_2 1_555 1_555
H21_2 C24_2 1_555 1_555
C25_2 C24_2 1_555 1_555
H22_2 C25_2 1_555 1_555
C26_2 C21_2 1_555 1_555
H23_2 C26_2 1_555 1_555
H24_2 C20_2 1_555 1_555
C27_2 C28_2 1_555 1_555
C28_2 H25_2 1_555 1_555
C29_2 C28_2 1_555 1_555
H26_2 C29_2 1_555 1_555
C30_2 C29_2 1_555 1_555
H27_2 C30_2 1_555 1_555
C31_2 C30_2 1_555 1_555
H28_2 C31_2 1_555 1_555
C32_2 C27_2 1_555 1_555
H29_2 C32_2 1_555 1_555
S5_2 Ag1_2 1_555 1_555
C33_2 S5_2 1_555 1_555
H30_2 C33_2 1_555 1_555
S7 C33_2 1_555 1_555
C34_2 S7 1_555 1_555
C35_2 C34_2 1_555 1_555
H31_2 C35_2 1_555 1_555
C36_2 C35_2 1_555 1_555
H32_2 C36_2 1_555 1_555
C37_2 C36_2 1_555 1_555
H33_2 C37_2 1_555 1_555
C38_2 C37_2 1_555 1_555
H34_2 C38_2 1_555 1_555
C39_2 C34_2 1_555 1_555
H35_2 C39_2 1_555 1_555
H36_2 C33_2 1_555 1_555
Ag3_2 S4_2 1_555 1_555
C5_2 C6_2 1_555 1_555
C14_2 S3_2 1_555 1_555
C18_2 C19_2 1_555 1_555
C25_2 C26_2 1_555 1_555
C27_2 S5_2 1_555 1_555
C31_2 C32_2 1_555 1_555
C38_2 C39_2 1_555 1_555
H14_2 C16_2 1_555 1_555
C22_3 C21_3 1_555 1_555
C23_3 C22_3 1_555 1_555
H20_3 C23_3 1_555 1_555
C24_3 C23_3 1_555 1_555
H21_3 C24_3 1_555 1_555
C25_3 C24_3 1_555 1_555
H22_3 C25_3 1_555 1_555
C26_3 C21_3 1_555 1_555
H23_3 C26_3 1_555 1_555
C25_3 C26_3 1_555 1_555
H14_3 C16_3 1_555 1_555
S7_2 Ag3_2 1_555 1_555
Ag1_3 S1_3 1_555 1_555
C1_3 C2_3 1_555 1_555
C2_3 H1_3 1_555 1_555
C3_3 C2_3 1_555 1_555
H2_3 C3_3 1_555 1_555
C4_3 C3_3 1_555 1_555
H3_3 C4_3 1_555 1_555
C5_3 C4_3 1_555 1_555
H4_3 C5_3 1_555 1_555
C6_3 C1_3 1_555 1_555
H5_3 C6_3 1_555 1_555
S1_3 C1_3 1_555 1_555
C7_3 S1_3 1_555 1_555
H6_3 C7_3 1_555 1_555
S2_3 C7_3 1_555 1_555
C8_3 S2_3 1_555 1_555
C9_3 C8_3 1_555 1_555
H7_3 C9_3 1_555 1_555
C10_3 C9_3 1_555 1_555
H8_3 C10_3 1_555 1_555
C11_3 C10_3 1_555 1_555
H9_3 C11_3 1_555 1_555
C12_3 C11_3 1_555 1_555
H10_3 C12_3 1_555 1_555
C13_3 C8_3 1_555 1_555
H11_3 C13_3 1_555 1_555
H12_3 C7_3 1_555 1_555
C14_3 C15_3 1_555 1_555
C15_3 H13_3 1_555 1_555
C18_3 C17_3 1_555 1_555
H16_3 C18_3 1_555 1_555
C19_3 C14_3 1_555 1_555
H17_3 C19_3 1_555 1_555
S3_3 Ag1_3 1_555 1_555
C20_3 S3_3 1_555 1_555
H18_3 C20_3 1_555 1_555
S8_2 C20_3 1_555 1_555
H24_3 C20_3 1_555 1_555
C27_3 C28_3 1_555 1_555
C28_3 H25_3 1_555 1_555
C31_3 C30_3 1_555 1_555
H28_3 C31_3 1_555 1_555
C32_3 C27_3 1_555 1_555
H29_3 C32_3 1_555 1_555
S5_3 Ag1_3 1_555 1_555
C33_3 S5_3 1_555 1_555
H30_3 C33_3 1_555 1_555
S6_2 C33_3 1_555 1_555
C34_3 S6_2 1_555 1_555
C35_3 C34_3 1_555 1_555
H31_3 C35_3 1_555 1_555
C36_3 C35_3 1_555 1_555
H32_3 C36_3 1_555 1_555
C37_3 C36_3 1_555 1_555
H33_3 C37_3 1_555 1_555
C38_3 C37_3 1_555 1_555
H34_3 C38_3 1_555 1_555
C39_3 C34_3 1_555 1_555
H35_3 C39_3 1_555 1_555
H36_3 C33_3 1_555 1_555
Ag3 S6_2 1_555 1_555
C5_3 C6_3 1_555 1_555
C12_3 C13_3 1_555 1_555
C14_3 S3_3 1_555 1_555
C18_3 C19_3 1_555 1_555
C27_3 S5_3 1_555 1_555
C31_3 C32_3 1_555 1_555
C38_3 C39_3 1_555 1_555
H26_3 C29_3 1_555 1_555
Ag1_4 S1_4 1_555 1_555
C1_4 C2_4 1_555 1_555
C2_4 H1_4 1_555 1_555
C3_4 C2_4 1_555 1_555
H2_4 C3_4 1_555 1_555
C4_4 C3_4 1_555 1_555
H3_4 C4_4 1_555 1_555
C5_4 C4_4 1_555 1_555
H4_4 C5_4 1_555 1_555
C6_4 C1_4 1_555 1_555
H5_4 C6_4 1_555 1_555
S1_4 C1_4 1_555 1_555
C7_4 S1_4 1_555 1_555
H6_4 C7_4 1_555 1_555
S2_4 C7_4 1_555 1_555
H12_4 C7_4 1_555 1_555
C14_4 C15_4 1_555 1_555
C15_4 H13_4 1_555 1_555
C16_4 C15_4 1_555 1_555
H14_4 C16_4 1_555 1_555
C17_4 C16_4 1_555 1_555
H15_4 C17_4 1_555 1_555
C18_4 C17_4 1_555 1_555
H16_4 C18_4 1_555 1_555
C19_4 C14_4 1_555 1_555
H17_4 C19_4 1_555 1_555
S3_4 Ag1_4 1_555 1_555
C20_4 S3_4 1_555 1_555
H18_4 C20_4 1_555 1_555
S8 C20_4 1_555 1_555
H24_4 C20_4 1_555 1_555
C27_4 C28_4 1_555 1_555
C28_4 H25_4 1_555 1_555
C29_4 C28_4 1_555 1_555
H26_4 C29_4 1_555 1_555
C30_4 C29_4 1_555 1_555
H27_4 C30_4 1_555 1_555
C31_4 C30_4 1_555 1_555
H28_4 C31_4 1_555 1_555
C32_4 C27_4 1_555 1_555
H29_4 C32_4 1_555 1_555
S5_4 Ag1_4 1_555 1_555
C33_4 S5_4 1_555 1_555
H30_4 C33_4 1_555 1_555
S7_2 C33_4 1_555 1_555
H36_4 C33_4 1_555 1_555
Ag3 S2_4 1_555 1_555
C5_4 C6_4 1_555 1_555
C14_4 S3_4 1_555 1_555
C18_4 C19_4 1_555 1_555
C27_4 S5_4 1_555 1_555
C31_4 C32_4 1_555 1_555
C35_4 C34_4 1_555 1_555
C36_4 C35_4 1_555 1_555
H32_4 C36_4 1_555 1_555
C37_4 C36_4 1_555 1_555
H33_4 C37_4 1_555 1_555
C38_4 C37_4 1_555 1_555
H34_4 C38_4 1_555 1_555
C39_4 C34_4 1_555 1_555
H35_4 C39_4 1_555 1_555
C38_4 C39_4 1_555 1_555
C22_4 C21_4 1_555 1_555
C23_4 C22_4 1_555 1_555
H20_4 C23_4 1_555 1_555
C24_4 C23_4 1_555 1_555
H21_4 C24_4 1_555 1_555
C25_4 C24_4 1_555 1_555
H22_4 C25_4 1_555 1_555
C26_4 C21_4 1_555 1_555
H23_4 C26_4 1_555 1_555
C25_4 C26_4 1_555 1_555
C9_4 C8_4 1_555 1_555
C10_4 C9_4 1_555 1_555
H8_4 C10_4 1_555 1_555
C11_4 C10_4 1_555 1_555
H9_4 C11_4 1_555 1_555
C12_4 C11_4 1_555 1_555
H10_4 C12_4 1_555 1_555
C13_4 C8_4 1_555 1_555
H11_4 C13_4 1_555 1_555
C12_4 C13_4 1_555 1_555
Cl1 O1 1_555 1_555
O2 Cl1 1_555 1_555
O3 Cl1 1_555 1_555
O4 Cl1 1_555 1_555
Cl1_2 O1_2 1_555 1_555
O2_2 Cl1_2 1_555 1_555
O3_2 Cl1_2 1_555 1_555
O4_2 Cl1_2 1_555 1_555
Cl1_3 O1_3 1_555 1_555
O2_3 Cl1_3 1_555 1_555
O3_3 Cl1_3 1_555 1_555
O4_3 Cl1_3 1_555 1_555
Cl1_4 O1_4 1_555 1_555
O2_4 Cl1_4 1_555 1_555
O3_4 Cl1_4 1_555 1_555
O4_4 Cl1_4 1_555 1_555
Cl1_5 O1_5 1_555 1_555
O2_5 Cl1_5 1_555 1_555
O3_5 Cl1_5 1_555 1_555
O4_5 Cl1_5 1_555 1_555
Cl1_6 O1_6 1_555 1_555
O2_6 Cl1_6 1_555 1_555
O3_6 Cl1_6 1_555 1_555
O4_6 Cl1_6 1_555 1_555
Cl1_7 O1_7 1_555 1_555
O2_7 Cl1_7 1_555 1_555
O3_7 Cl1_7 1_555 1_555
O4_7 Cl1_7 1_555 1_555
Cl1_8 O1_8 1_555 1_555
O2_8 Cl1_8 1_555 1_555
O3_8 Cl1_8 1_555 1_555
O4_8 Cl1_8 1_555 1_555

#END
