
###############################################################################
#
# This file contains modified crystal structure data generated from the
# MOF subset of the Cambridge Structural Database (CSD) v543 
# hosted by the Cambridge Crystallographic Data Centre (CCDC).
#
# This work is licensed under the Creative Commons
# Attribution-NonCommercial-ShareAlike 4.0 International License.
# To view a copy of this license, visit
# http://creativecommons.org/licenses/by-nc-sa/4.0/
# or send a letter to
# Creative Commons, PO Box 1866, Mountain View, CA 94042, USA.
#
# CIF created using the CSD Python API on 29 September 2022
# The structure has been converted into the P1 space group
# The structure has a 3D framework
# The original CSD entry CAGSAG is in the triclinic crystal system
# The framework has been calculated to contain at least 10.0% void space
# The void calculation uses a probe of radius 1.32A, grid spacing 0.4
# H atom positions have been added when not included in the experimental data
#
###############################################################################

data_CAGSAG
_chemical_formula_moiety         '(C162 H118 N6 O60 Zn16)n'
_symmetry_cell_setting           triclinic
_symmetry_space_group_name_H-M   'P 1'
_symmetry_Int_Tables_number      1
_space_group_name_Hall           'P 1'
loop_
_symmetry_equiv_pos_site_id
_symmetry_equiv_pos_as_xyz
1 x,y,z
_cell_length_a                   17.672(6)
_cell_length_b                   19.850(7)
_cell_length_c                   20.915(7)
_cell_angle_alpha                72.383(4)
_cell_angle_beta                 70.947(5)
_cell_angle_gamma                69.724(5)
_cell_volume                     6354.75
loop_
_atom_site_label
_atom_site_type_symbol
_atom_site_fract_x
_atom_site_fract_y
_atom_site_fract_z
O31 O 0.0154(5) 0.2261(4) 0.5324(3)
O33 O 0.0196(4) 0.3463(4) 0.3962(4)
O11 O 0.7574(6) 0.1882(4) 0.5404(4)
O12 O 0.7336(5) 0.2331(4) 0.6320(4)
C16 C 0.7277(9) 0.1926(7) 0.6033(5)
C42 C 0.5115(6) 0.0474(5) 0.8718(5)
H19 H 0.4865 0.0496 0.9191
C43 C 0.5482(7) 0.0996(5) 0.8284(4)
H20 H 0.5457 0.1405 0.8444
C44 C 0.5913(6) 0.0935(5) 0.7577(4)
C45 C 0.6356(7) 0.1427(6) 0.7141(5)
H21 H 0.6355 0.1829 0.7298
C46 C 0.6801(8) 0.1337(7) 0.6473(6)
C47 C 0.6787(8) 0.0767(6) 0.6235(6)
H22 H 0.7099 0.0701 0.5782
C48 C 0.6334(8) 0.0303(7) 0.6643(6)
C49 C 0.5933(6) 0.0327(5) 0.7325(5)
C52 C 0.1483(7) 0.0170(6) 0.8520(5)
C53 C 0.0644(6) 0.0501(5) 0.8787(5)
H25 H 0.0394 0.0378 0.9268
C54 C 0.0175(6) 0.1020(4) 0.8335(4)
C55 C 0.0519(6) 0.1164(6) 0.7608(5)
C56 C 0.0023(6) 0.1634(6) 0.7136(5)
C57 C 0.0372(7) 0.1740(6) 0.6443(5)
C58 C 0.1233(8) 0.1413(7) 0.6188(6)
H28 H 0.1481 0.1520 0.5705
C59 C 0.1688(7) 0.0967(7) 0.6611(5)
H29 H 0.2251 0.0722 0.6429
C60 C 0.1345(7) 0.0844(7) 0.7351(5)
C61 C 0.1845(7) 0.0326(6) 0.7821(5)
H30 H 0.2417 0.0097 0.7646
Zn15 Zn 0.80667(6) 0.29382(5) 0.58644(4)
Zn18 Zn 0.77187(7) 0.27558(5) 0.45265(5)
Zn5 Zn 0.21705(7) 0.85364(5) 0.01931(5)
Zn6 Zn 0.36738(6) 0.71217(5) 0.01399(5)
Zn7 Zn 0.39333(6) 0.85916(5) 0.02133(4)
O9 O 0.7475(7) 0.4649(5) 0.3908(5)
O10 O 0.7601(6) 0.3583(5) 0.3647(4)
O16 O 0.2725(5) 0.6752(4) 0.0692(4)
O17 O 0.1616(4) 0.7755(3) 0.0684(3)
O18 O 0.4403(5) 0.6840(4) 0.0779(4)
O19 O 0.4742(4) 0.7847(3) 0.0697(3)
O24 O 0.1924(4) 0.9037(4) 0.0949(3)
O25 O 0.3162(5) 0.9147(4) 0.0917(3)
C15 C 0.7430(13) 0.4258(13) 0.3568(10)
C18 C 0.1996(7) 0.7054(6) 0.0884(5)
C19 C 0.1453(6) 0.6609(6) 0.1407(5)
C20 C 0.1792(8) 0.5860(6) 0.1649(6)
H7 H 0.2353 0.5639 0.1436
C21 C 0.1347(7) 0.5418(6) 0.2187(6)
C22 C 0.1630(8) 0.4691(6) 0.2434(6)
H8 H 0.2173 0.4451 0.2202
C23 C 0.1236(8) 0.4286(6) 0.2958(7)
H9 H 0.1512 0.3795 0.3142
C24 C 0.0399(7) 0.4594(5) 0.3241(5)
C25 C 0.0036(8) 0.5323(6) 0.2987(6)
C26 C 0.0489(7) 0.5760(5) 0.2459(6)
C27 C 0.0116(7) 0.6520(6) 0.2193(7)
C28 C 0.0614(7) 0.6925(6) 0.1674(6)
H12 H 0.0375 0.7430 0.1497
C29 C 0.4798(13) 0.7156(12) 0.0910(10)
C30 C 0.5361(7) 0.6712(5) 0.1365(5)
C31 C 0.5435(9) 0.5983(6) 0.1610(6)
H13 H 0.5153 0.5763 0.1449
C32 C 0.5897(8) 0.5542(6) 0.2079(7)
C33 C 0.5961(9) 0.4792(6) 0.2351(6)
H14 H 0.5672 0.4562 0.2208
C34 C 0.6428(11) 0.4383(7) 0.2817(7)
H15 H 0.6452 0.3877 0.2999
C35 C 0.6887(9) 0.4722(8) 0.3032(6)
C36 C 0.6863(9) 0.5454(6) 0.2759(6)
H16 H 0.7155 0.5680 0.2903
C37 C 0.6390(9) 0.5865(7) 0.2258(6)
C38 C 0.6343(9) 0.6616(7) 0.1996(6)
H17 H 0.6651 0.6840 0.2125
C39 C 0.5847(9) 0.7015(6) 0.1555(6)
H18 H 0.5828 0.7519 0.1367
C62 C 0.2357(8) 0.9272(5) 0.1153(4)
C63 C 0.1945(6) 0.9755(5) 0.1651(4)
C72 C 0.1106(7) 0.9870(6) 0.1932(6)
H36 H 0.0806 0.9622 0.1823
Zn13 Zn 0.80976(7) 0.42122(5) 0.45790(5)
Zn1 Zn 0.95825(6) 0.27512(5) 0.45648(4)
Zn8 Zn 0.36715(7) 0.84177(5) 0.87970(5)
O1 O 0.7591(5) 0.4748(3) 0.5325(3)
O2 O 0.7591(4) 0.3798(3) 0.6262(3)
O3 O 0.4571(5) 0.7411(4) 0.8655(4)
O4 O 0.4307(4) 0.6473(4) 0.9519(3)
O15 O 0.6664(6) 0.3472(5) 0.5132(5)
O20 O 0.4645(5) 0.8824(4) 0.8712(3)
O21 O 0.4455(4) 0.9324(3) 0.9585(3)
O22 O 0.2773(5) 0.9435(4) 0.8762(4)
O23 O 0.1587(4) 0.9305(4) 0.9572(3)
O26 O 0.3952(5) 0.8683(4) 0.7705(3)
O27 O 0.2731(6) 0.7951(5) 0.8852(4)
O28 O 0.6879(5) 0.2425(5) 0.4269(5)
O29 O 0.8388(4) 0.3153(3) 0.4867(3)
O30 O 0.3362(4) 0.8173(3) 0.9840(3)
N1 N 0.2006(10) 0.7611(9) 0.8288(8)
N2 N 0.6460(11) 0.1526(9) 0.4082(8)
C1 C 0.7435(13) 0.4449(12) 0.5981(10)
C2 C 0.6940(8) 0.5009(5) 0.6440(4)
C3 C 0.6726(7) 0.5762(5) 0.6168(4)
H1 H 0.6907 0.5935 0.5683
C4 C 0.6257(7) 0.6269(6) 0.6583(5)
H2 H 0.6114 0.6781 0.6388
C5 C 0.5999(6) 0.6002(5) 0.7302(5)
C6 C 0.5488(7) 0.6484(6) 0.7749(5)
H3 H 0.5327 0.6998 0.7565
C7 C 0.5221(7) 0.6218(5) 0.8448(5)
C8 C 0.5480(7) 0.5436(5) 0.8743(5)
H4 H 0.5301 0.5253 0.9227
C9 C 0.5973(7) 0.4979(6) 0.8325(5)
H5 H 0.6146 0.4468 0.8518
C10 C 0.6249(5) 0.5235(4) 0.7596(4)
C11 C 0.6717(6) 0.4753(5) 0.7142(5)
H6 H 0.6882 0.4239 0.7327
C12 C 0.4655(7) 0.6740(5) 0.8918(5)
C40 C 0.4671(7) 0.9320(5) 0.8940(5)
C41 C 0.5108(6) 0.9894(5) 0.8457(5)
H23 H 0.6288 0.9945 0.6453
C50 C 0.5509(6) 0.9816(5) 0.7784(5)
H24 H 0.5498 0.9416 0.7631
C51 C 0.2035(8) 0.9576(6) 0.8987(5)
C73 C 0.2702(11) 0.7775(9) 0.8375(9)
H37 H 0.3188 0.7737 0.8004
C74 C 0.2055(12) 0.7340(11) 0.7713(9)
H38 H 0.1493 0.7376 0.7700
H39 H 0.2387 0.6825 0.7762
H40 H 0.2318 0.7633 0.7284
C75 C 0.1139(12) 0.7883(11) 0.8774(9)
H41 H 0.1051 0.7497 0.9190
H42 H 0.0704 0.7999 0.8532
H43 H 0.1116 0.8325 0.8905
C76 C 0.7002(11) 0.1779(11) 0.4289(11)
H44 H 0.7466 0.1431 0.4444
C77 C 0.5703(12) 0.2007(11) 0.3931(9)
H45 H 0.5373 0.2248 0.4319
H46 H 0.5389 0.1726 0.3859
H47 H 0.5825 0.2380 0.3511
C78 C 0.6719(12) 0.0711(11) 0.4182(9)
H48 H 0.7037 0.0573 0.3738
H49 H 0.6224 0.0529 0.4359
H50 H 0.7067 0.0495 0.4514
N3 N 0.5252(7) 0.3827(8) 0.5657(8)
C79 C 0.4426(9) 0.3921(10) 0.5559(9)
H51 H 0.4190 0.4438 0.5357
H52 H 0.4054 0.3775 0.6007
H53 H 0.4486 0.3613 0.5247
C80 C 0.5933(9) 0.3556(10) 0.5141(9)
H54 H 0.5830 0.3431 0.4779
C81 C 0.5399(12) 0.4005(10) 0.6199(9)
H55 H 0.5807 0.3588 0.6404
H56 H 0.4877 0.4114 0.6554
H57 H 0.5617 0.4436 0.6018
O32 O 0.9050(5) 0.2431(4) 0.6232(3)
O34 O 0.9138(5) 0.4508(4) 0.4105(4)
O39 O 0.9912(5) 0.2029(4) 0.4014(4)
O40 O 0.8654(4) 0.2036(4) 0.3965(3)
H58 H 0.382903 0.832421 0.753717
H59 H 0.360794 0.918568 0.754657
C17 C 0.9417(7) 0.1851(5) 0.3815(5)
C68 C 0.9857(7) 0.1315(5) 0.3329(5)
C69 C 0.9432(8) 0.0949(7) 0.3173(6)
H34 H 0.8854 0.1024 0.3386
C70 C 0.9820(8) 0.0461(8) 0.2705(7)
H35 H 0.9509 0.0212 0.2611
C13 C 0.9849(6) 0.2173(6) 0.5964(5)
H26 H 0.9618 0.1278 0.8519
H27 H 0.9453 0.1871 0.7306
C14 C 0.9867(8) 0.4159(6) 0.3809(6)
H10 H 0.9463 0.5533 0.3178
H11 H 0.9542 0.6742 0.2368
C64 C 0.2397(7) 0.0137(6) 0.1793(5)
H31 H 0.2962 0.0101 0.1548
C65 C 0.2020(8) 0.0561(7) 0.2285(6)
H32 H 0.2343 0.0756 0.2429
C66 C 0.1154(6) 0.0704(5) 0.2575(5)
C67 C 0.0701(8) 0.1187(5) 0.3055(5)
H33 H 0.0997 0.1422 0.3185
C71 C 0.0691(7) 0.0358(6) 0.2383(6)
O8 O 0.0862(5) 0.5492(4) 0.5895(4)
C14_2 C 0.0133(8) 0.5841(6) 0.6191(6)
H10_2 H 0.0537 0.4467 0.6822
H11_2 H 0.0458 0.3258 0.7632
Zn9 Zn 0.04175(6) 0.72488(5) 0.54352(4)
Zn12 Zn 0.19024(7) 0.57878(5) 0.54210(5)
O6 O 0.0950(5) 0.7569(4) 0.3768(3)
C13_2 C 0.0151(6) 0.7827(6) 0.4036(5)
H26_2 H 0.0382 0.8722 0.1481
H27_2 H 0.0547 0.8129 0.2694
Zn14 Zn 0.19333(6) 0.70618(5) 0.41356(4)
O13 O 0.0088(5) 0.7971(4) 0.5986(4)
O14 O 0.1346(4) 0.7964(4) 0.6035(3)
C17_2 C 0.0583(7) 0.8149(5) 0.6185(5)
C68_2 C 0.0143(7) 0.8685(5) 0.6671(5)
C69_2 C 0.0568(8) 0.9051(7) 0.6827(6)
H34_2 H 0.1146 0.8976 0.6614
C70_2 C 0.0180(8) 0.9539(8) 0.7295(7)
H35_2 H 0.0491 0.9788 0.7389
Zn16 Zn 0.22813(7) 0.72442(5) 0.54735(5)
Zn8_2 Zn 0.63285(7) 0.15823(5) 0.12030(5)
O1_2 O 0.2409(5) 0.5252(3) 0.4675(3)
O2_2 O 0.2409(4) 0.6202(3) 0.3738(3)
O3_2 O 0.5429(5) 0.2589(4) 0.1345(4)
O4_2 O 0.5693(4) 0.3527(4) 0.0481(3)
O15_2 O 0.3336(6) 0.6528(5) 0.4868(5)
O20_2 O 0.5355(5) 0.1176(4) 0.1288(3)
O21_2 O 0.5545(4) 0.0676(3) 0.0415(3)
O22_2 O 0.7227(5) 0.0565(4) 0.1238(4)
O23_2 O 0.8413(4) 0.0695(4) 0.0428(3)
O26_2 O 0.6048(5) 0.1317(4) 0.2295(3)
O27_2 O 0.7269(6) 0.2049(5) 0.1148(4)
O28_2 O 0.3121(5) 0.7575(5) 0.5731(5)
O29_2 O 0.1612(4) 0.6847(3) 0.5133(3)
O30_2 O 0.6638(4) 0.1827(3) 0.0160(3)
N1_2 N 0.7994(10) 0.2389(9) 0.1712(8)
N2_2 N 0.3540(11) 0.8474(9) 0.5918(8)
C1_2 C 0.2565(13) 0.5551(12) 0.4019(10)
C2_2 C 0.3060(8) 0.4991(5) 0.3560(4)
C3_2 C 0.3274(7) 0.4238(5) 0.3832(4)
H1_2 H 0.3093 0.4065 0.4317
C4_2 C 0.3743(7) 0.3731(6) 0.3417(5)
H2_2 H 0.3886 0.3219 0.3612
C5_2 C 0.4001(6) 0.3998(5) 0.2698(5)
C6_2 C 0.4512(7) 0.3516(6) 0.2251(5)
H3_2 H 0.4673 0.3002 0.2435
C7_2 C 0.4779(7) 0.3782(5) 0.1552(5)
C8_2 C 0.4520(7) 0.4564(5) 0.1257(5)
H4_2 H 0.4699 0.4747 0.0773
C9_2 C 0.4027(7) 0.5021(6) 0.1675(5)
H5_2 H 0.3854 0.5532 0.1482
C10_2 C 0.3751(5) 0.4765(4) 0.2404(4)
C11_2 C 0.3283(6) 0.5247(5) 0.2858(5)
H6_2 H 0.3118 0.5761 0.2673
C12_2 C 0.5345(7) 0.3260(5) 0.1082(5)
C40_2 C 0.5329(7) 0.0680(5) 0.1060(5)
C41_2 C 0.4892(6) 0.0106(5) 0.1543(5)
H23_2 H 0.3712 0.0055 0.3547
C50_2 C 0.4491(6) 0.0184(5) 0.2216(5)
H24_2 H 0.4502 0.0584 0.2369
C51_2 C 0.7965(8) 0.0424(6) 0.1013(5)
C73_2 C 0.7298(11) 0.2225(9) 0.1625(9)
H37_2 H 0.6812 0.2263 0.1996
C74_2 C 0.7945(12) 0.2660(11) 0.2287(9)
H38_2 H 0.8507 0.2624 0.2300
H39_2 H 0.7613 0.3175 0.2238
H40_2 H 0.7682 0.2367 0.2716
C75_2 C 0.8861(12) 0.2117(11) 0.1226(9)
H41_2 H 0.8949 0.2503 0.0810
H42_2 H 0.9296 0.2001 0.1468
H43_2 H 0.8884 0.1675 0.1095
C76_2 C 0.2998(11) 0.8221(11) 0.5711(11)
H44_2 H 0.2534 0.8569 0.5556
C77_2 C 0.4297(12) 0.7993(11) 0.6069(9)
H45_2 H 0.4627 0.7752 0.5681
H46_2 H 0.4611 0.8274 0.6141
H47_2 H 0.4175 0.7620 0.6489
C78_2 C 0.3281(12) 0.9289(11) 0.5818(9)
H48_2 H 0.2963 0.9427 0.6262
H49_2 H 0.3776 0.9471 0.5641
H50_2 H 0.2933 0.9505 0.5486
N3_2 N 0.4748(7) 0.6173(8) 0.4343(8)
C79_2 C 0.5574(9) 0.6079(10) 0.4441(9)
H51_2 H 0.5810 0.5562 0.4643
H52_2 H 0.5946 0.6225 0.3993
H53_2 H 0.5514 0.6387 0.4753
C80_2 C 0.4067(9) 0.6444(10) 0.4859(9)
H54_2 H 0.4170 0.6569 0.5221
C81_2 C 0.4601(12) 0.5995(10) 0.3801(9)
H55_2 H 0.4193 0.6412 0.3596
H56_2 H 0.5123 0.5886 0.3446
H57_2 H 0.4383 0.5564 0.3982
O35 O 0.2525(7) 0.5351(5) 0.6092(5)
O36 O 0.2399(6) 0.6417(5) 0.6353(4)
O37 O 0.2426(6) 0.8118(4) 0.4596(4)
O38 O 0.2664(5) 0.7669(4) 0.3680(4)
H58_2 H 0.617097 0.167579 0.246283
H59_2 H 0.639206 0.0814319 0.245343
Zn5_2 Zn 0.78295(7) 0.14636(5) 0.98069(5)
Zn6_2 Zn 0.63262(6) 0.28783(5) 0.98601(5)
Zn7_2 Zn 0.60667(6) 0.14084(5) 0.97867(4)
O7 O 0.9804(4) 0.6537(4) 0.6038(4)
O16_2 O 0.7275(5) 0.3248(4) 0.9308(4)
O17_2 O 0.8384(4) 0.2245(3) 0.9316(3)
O18_2 O 0.5597(5) 0.3160(4) 0.9221(4)
O19_2 O 0.5258(4) 0.2153(3) 0.9303(3)
O24_2 O 0.8076(4) 0.0963(4) 0.9051(3)
O25_2 O 0.6838(5) 0.0853(4) 0.9083(3)
C15_2 C 0.2570(13) 0.5742(13) 0.6432(10)
C18_2 C 0.8004(7) 0.2946(6) 0.9116(5)
C19_2 C 0.8547(6) 0.3391(6) 0.8593(5)
C20_2 C 0.8208(8) 0.4140(6) 0.8351(6)
H7_2 H 0.7647 0.4361 0.8564
C21_2 C 0.8653(7) 0.4582(6) 0.7813(6)
C22_2 C 0.8370(8) 0.5309(6) 0.7566(6)
H8_2 H 0.7827 0.5549 0.7798
C23_2 C 0.8764(8) 0.5714(6) 0.7042(7)
H9_2 H 0.8488 0.6205 0.6858
C24_2 C 0.9601(7) 0.5406(5) 0.6759(5)
C25_2 C 0.9964(8) 0.4677(6) 0.7013(6)
C26_2 C 0.9511(7) 0.4240(5) 0.7541(6)
C27_2 C 0.9884(7) 0.3480(6) 0.7807(7)
C28_2 C 0.9386(7) 0.3075(6) 0.8326(6)
H12_2 H 0.9625 0.2570 0.8503
C29_2 C 0.5202(13) 0.2844(12) 0.9090(10)
C30_2 C 0.4639(7) 0.3288(5) 0.8635(5)
C31_2 C 0.4565(9) 0.4017(6) 0.8390(6)
H13_2 H 0.4847 0.4237 0.8551
C32_2 C 0.4103(8) 0.4458(6) 0.7921(7)
C33_2 C 0.4039(9) 0.5208(6) 0.7649(6)
H14_2 H 0.4328 0.5438 0.7792
C34_2 C 0.3572(11) 0.5617(7) 0.7183(7)
H15_2 H 0.3548 0.6123 0.7001
C35_2 C 0.3113(9) 0.5278(8) 0.6968(6)
C36_2 C 0.3137(9) 0.4546(6) 0.7241(6)
H16_2 H 0.2845 0.4320 0.7097
C37_2 C 0.3610(9) 0.4135(7) 0.7742(6)
C38_2 C 0.3657(9) 0.3384(7) 0.8004(6)
H17_2 H 0.3349 0.3160 0.7875
C39_2 C 0.4153(9) 0.2985(6) 0.8445(6)
H18_2 H 0.4172 0.2481 0.8633
C62_2 C 0.7643(8) 0.0728(5) 0.8847(4)
C63_2 C 0.8055(6) 0.0245(5) 0.8349(4)
C72_2 C 0.8894(7) 0.0130(6) 0.8068(6)
H36_2 H 0.9194 0.0378 0.8177
O5 O 0.9846(5) 0.7739(4) 0.4676(3)
C16_2 C 0.2723(9) 0.8074(7) 0.3967(5)
C42_2 C 0.4885(6) 0.9526(5) 0.1282(5)
H19_2 H 0.5135 0.9504 0.0809
C43_2 C 0.4518(7) 0.9004(5) 0.1716(4)
H20_2 H 0.4543 0.8595 0.1556
C44_2 C 0.4087(6) 0.9065(5) 0.2423(4)
C45_2 C 0.3644(7) 0.8573(6) 0.2859(5)
H21_2 H 0.3645 0.8171 0.2702
C46_2 C 0.3199(8) 0.8663(7) 0.3527(6)
C47_2 C 0.3213(8) 0.9233(6) 0.3765(6)
H22_2 H 0.2901 0.9299 0.4218
C48_2 C 0.3666(8) 0.9697(7) 0.3357(6)
C49_2 C 0.4067(6) 0.9673(5) 0.2675(5)
C52_2 C 0.8517(7) 0.9830(6) 0.1480(5)
C53_2 C 0.9356(6) 0.9499(5) 0.1213(5)
H25_2 H 0.9606 0.9622 0.0732
C54_2 C 0.9825(6) 0.8980(4) 0.1665(4)
C55_2 C 0.9481(6) 0.8836(6) 0.2392(5)
C56_2 C 0.9977(6) 0.8366(6) 0.2864(5)
C57_2 C 0.9628(7) 0.8260(6) 0.3557(5)
C58_2 C 0.8767(8) 0.8587(7) 0.3812(6)
H28_2 H 0.8519 0.8480 0.4295
C59_2 C 0.8312(7) 0.9033(7) 0.3389(5)
H29_2 H 0.7749 0.9278 0.3571
C60_2 C 0.8655(7) 0.9156(7) 0.2649(5)
C61_2 C 0.8155(7) 0.9674(6) 0.2179(5)
H30_2 H 0.7583 0.9903 0.2354
C64_2 C 0.7603(7) 0.9863(6) 0.8207(5)
H31_2 H 0.7038 0.9899 0.8452
C65_2 C 0.7980(8) 0.9439(7) 0.7715(6)
H32_2 H 0.7657 0.9244 0.7571
C66_2 C 0.8846(6) 0.9296(5) 0.7425(5)
C67_2 C 0.9299(8) 0.8813(5) 0.6945(5)
H33_2 H 0.9003 0.8578 0.6815
C71_2 C 0.9309(7) 0.9642(6) 0.7617(6)
loop_
_geom_bond_atom_site_label_1
_geom_bond_atom_site_label_2
_geom_bond_site_symmetry_1
_geom_bond_site_symmetry_2
O11 C16 1_555 1_555
O12 C16 1_555 1_555
C16 C46 1_555 1_555
H19 C42 1_555 1_555
C43 C42 1_555 1_555
H20 C43 1_555 1_555
C44 C43 1_555 1_555
C45 C44 1_555 1_555
H21 C45 1_555 1_555
C46 C45 1_555 1_555
C47 C46 1_555 1_555
H22 C47 1_555 1_555
C48 C47 1_555 1_555
C49 C44 1_555 1_555
C53 C52 1_555 1_555
H25 C53 1_555 1_555
C54 C53 1_555 1_555
C55 C54 1_555 1_555
C56 C55 1_555 1_555
C57 C56 1_555 1_555
C58 C57 1_555 1_555
H28 C58 1_555 1_555
C59 C58 1_555 1_555
H29 C59 1_555 1_555
C60 C55 1_555 1_555
C61 C52 1_555 1_555
H30 C61 1_555 1_555
Zn15 O12 1_555 1_555
Zn18 O11 1_555 1_555
C48 C49 1_555 1_555
C59 C60 1_555 1_555
C60 C61 1_555 1_555
Zn5 O17 1_555 1_555
Zn7 O19 1_555 1_555
O9 C15 1_555 1_555
O10 C15 1_555 1_555
O16 Zn6 1_555 1_555
O17 C18 1_555 1_555
O18 Zn6 1_555 1_555
O19 C29 1_555 1_555
O24 Zn5 1_555 1_555
O25 Zn7 1_555 1_555
C15 C35 1_555 1_555
C18 O16 1_555 1_555
C19 C18 1_555 1_555
C20 C19 1_555 1_555
H7 C20 1_555 1_555
C21 C20 1_555 1_555
C22 C21 1_555 1_555
H8 C22 1_555 1_555
C23 C22 1_555 1_555
H9 C23 1_555 1_555
C24 C23 1_555 1_555
C25 C24 1_555 1_555
C26 C21 1_555 1_555
C27 C26 1_555 1_555
C28 C19 1_555 1_555
H12 C28 1_555 1_555
C29 O18 1_555 1_555
C30 C29 1_555 1_555
C31 C30 1_555 1_555
H13 C31 1_555 1_555
C32 C31 1_555 1_555
C33 C32 1_555 1_555
H14 C33 1_555 1_555
C34 C33 1_555 1_555
H15 C34 1_555 1_555
C35 C34 1_555 1_555
C36 C35 1_555 1_555
H16 C36 1_555 1_555
C37 C32 1_555 1_555
C38 C37 1_555 1_555
H17 C38 1_555 1_555
C39 C30 1_555 1_555
H18 C39 1_555 1_555
C62 O24 1_555 1_555
C63 C62 1_555 1_555
C72 C63 1_555 1_555
H36 C72 1_555 1_555
Zn13 O9 1_555 1_555
Zn18 O10 1_555 1_555
O25 C62 1_555 1_555
C25 C26 1_555 1_555
C27 C28 1_555 1_555
C36 C37 1_555 1_555
C38 C39 1_555 1_555
Zn1 O29 1_555 1_555
Zn13 O1 1_555 1_555
Zn15 O2 1_555 1_555
Zn18 O15 1_555 1_555
Zn8 O3 1_555 1_555
O1 C1 1_555 1_555
O2 C1 1_555 1_555
O3 C12 1_555 1_555
O4 C12 1_555 1_555
O15 C80 1_555 1_555
O20 Zn8 1_555 1_555
O22 Zn8 1_555 1_555
O26 Zn8 1_555 1_555
O27 Zn8 1_555 1_555
O28 Zn18 1_555 1_555
O29 Zn13 1_555 1_555
N1 C73 1_555 1_555
N2 C76 1_555 1_555
C1 C2 1_555 1_555
C2 C3 1_555 1_555
C3 H1 1_555 1_555
C4 C3 1_555 1_555
H2 C4 1_555 1_555
C5 C4 1_555 1_555
C6 C5 1_555 1_555
H3 C6 1_555 1_555
C7 C6 1_555 1_555
C8 C7 1_555 1_555
H4 C8 1_555 1_555
C9 C8 1_555 1_555
H5 C9 1_555 1_555
C10 C5 1_555 1_555
C11 C2 1_555 1_555
H6 C11 1_555 1_555
C12 C7 1_555 1_555
C40 O20 1_555 1_555
C41 C40 1_555 1_555
C50 C41 1_555 1_555
H24 C50 1_555 1_555
C51 O22 1_555 1_555
C73 O27 1_555 1_555
H37 C73 1_555 1_555
C74 N1 1_555 1_555
H38 C74 1_555 1_555
H39 C74 1_555 1_555
H40 C74 1_555 1_555
C75 N1 1_555 1_555
H41 C75 1_555 1_555
H42 C75 1_555 1_555
H43 C75 1_555 1_555
C76 O28 1_555 1_555
H44 C76 1_555 1_555
C77 N2 1_555 1_555
H45 C77 1_555 1_555
H46 C77 1_555 1_555
H47 C77 1_555 1_555
C78 N2 1_555 1_555
H48 C78 1_555 1_555
H49 C78 1_555 1_555
H50 C78 1_555 1_555
N3 C79 1_555 1_555
C79 H51 1_555 1_555
H52 C79 1_555 1_555
H53 C79 1_555 1_555
C80 N3 1_555 1_555
H54 C80 1_555 1_555
C81 N3 1_555 1_555
H55 C81 1_555 1_555
H56 C81 1_555 1_555
H57 C81 1_555 1_555
O32 Zn15 1_555 1_555
O34 Zn13 1_555 1_555
O39 Zn1 1_555 1_555
O40 Zn18 1_555 1_555
Zn15 O29 1_555 1_555
Zn18 O29 1_555 1_555
Zn8 O30 1_555 1_555
O21 C40 1_555 1_555
O23 C51 1_555 1_555
C9 C10 1_555 1_555
C10 C11 1_555 1_555
O26 H58 1_555 1_555
O26 H59 1_555 1_555
O39 C17 1_555 1_555
O40 C17 1_555 1_555
C17 C68 1_555 1_555
C69 C68 1_555 1_555
H34 C69 1_555 1_555
C70 C69 1_555 1_555
H35 C70 1_555 1_555
O32 C13 1_555 1_555
O34 C14 1_555 1_555
H31 C64 1_555 1_555
C65 C64 1_555 1_555
H32 C65 1_555 1_555
C66 C65 1_555 1_555
C67 C66 1_555 1_555
H33 C67 1_555 1_555
C71 C66 1_555 1_555
O8 C14_2 1_555 1_555
Zn12 O8 1_555 1_555
O6 C13_2 1_555 1_555
Zn14 O6 1_555 1_555
O13 C17_2 1_555 1_555
O14 C17_2 1_555 1_555
C17_2 C68_2 1_555 1_555
C69_2 C68_2 1_555 1_555
H34_2 C69_2 1_555 1_555
C70_2 C69_2 1_555 1_555
H35_2 C70_2 1_555 1_555
Zn9 O13 1_555 1_555
Zn16 O14 1_555 1_555
Zn9 O29_2 1_555 1_555
Zn12 O1_2 1_555 1_555
Zn14 O2_2 1_555 1_555
Zn16 O15_2 1_555 1_555
Zn8_2 O3_2 1_555 1_555
O1_2 C1_2 1_555 1_555
O2_2 C1_2 1_555 1_555
O3_2 C12_2 1_555 1_555
O4_2 C12_2 1_555 1_555
O15_2 C80_2 1_555 1_555
O20_2 Zn8_2 1_555 1_555
O22_2 Zn8_2 1_555 1_555
O26_2 Zn8_2 1_555 1_555
O27_2 Zn8_2 1_555 1_555
O28_2 Zn16 1_555 1_555
O29_2 Zn12 1_555 1_555
N1_2 C73_2 1_555 1_555
N2_2 C76_2 1_555 1_555
C1_2 C2_2 1_555 1_555
C2_2 C3_2 1_555 1_555
C3_2 H1_2 1_555 1_555
C4_2 C3_2 1_555 1_555
H2_2 C4_2 1_555 1_555
C5_2 C4_2 1_555 1_555
C6_2 C5_2 1_555 1_555
H3_2 C6_2 1_555 1_555
C7_2 C6_2 1_555 1_555
C8_2 C7_2 1_555 1_555
H4_2 C8_2 1_555 1_555
C9_2 C8_2 1_555 1_555
H5_2 C9_2 1_555 1_555
C10_2 C5_2 1_555 1_555
C11_2 C2_2 1_555 1_555
H6_2 C11_2 1_555 1_555
C12_2 C7_2 1_555 1_555
C40_2 O20_2 1_555 1_555
C41_2 C40_2 1_555 1_555
C50_2 C41_2 1_555 1_555
H24_2 C50_2 1_555 1_555
C51_2 O22_2 1_555 1_555
C73_2 O27_2 1_555 1_555
H37_2 C73_2 1_555 1_555
C74_2 N1_2 1_555 1_555
H38_2 C74_2 1_555 1_555
H39_2 C74_2 1_555 1_555
H40_2 C74_2 1_555 1_555
C75_2 N1_2 1_555 1_555
H41_2 C75_2 1_555 1_555
H42_2 C75_2 1_555 1_555
H43_2 C75_2 1_555 1_555
C76_2 O28_2 1_555 1_555
H44_2 C76_2 1_555 1_555
C77_2 N2_2 1_555 1_555
H45_2 C77_2 1_555 1_555
H46_2 C77_2 1_555 1_555
H47_2 C77_2 1_555 1_555
C78_2 N2_2 1_555 1_555
H48_2 C78_2 1_555 1_555
H49_2 C78_2 1_555 1_555
H50_2 C78_2 1_555 1_555
N3_2 C79_2 1_555 1_555
C79_2 H51_2 1_555 1_555
H52_2 C79_2 1_555 1_555
H53_2 C79_2 1_555 1_555
C80_2 N3_2 1_555 1_555
H54_2 C80_2 1_555 1_555
C81_2 N3_2 1_555 1_555
H55_2 C81_2 1_555 1_555
H56_2 C81_2 1_555 1_555
H57_2 C81_2 1_555 1_555
O35 Zn12 1_555 1_555
O36 Zn16 1_555 1_555
O37 Zn16 1_555 1_555
O38 Zn14 1_555 1_555
Zn14 O29_2 1_555 1_555
Zn16 O29_2 1_555 1_555
Zn8_2 O30_2 1_555 1_555
O21_2 C40_2 1_555 1_555
O23_2 C51_2 1_555 1_555
C9_2 C10_2 1_555 1_555
C10_2 C11_2 1_555 1_555
O26_2 H58_2 1_555 1_555
O26_2 H59_2 1_555 1_555
Zn5_2 O17_2 1_555 1_555
Zn7_2 O19_2 1_555 1_555
O35 C15_2 1_555 1_555
O36 C15_2 1_555 1_555
O16_2 Zn6_2 1_555 1_555
O17_2 C18_2 1_555 1_555
O18_2 Zn6_2 1_555 1_555
O19_2 C29_2 1_555 1_555
O24_2 Zn5_2 1_555 1_555
O25_2 Zn7_2 1_555 1_555
C15_2 C35_2 1_555 1_555
C18_2 O16_2 1_555 1_555
C19_2 C18_2 1_555 1_555
C20_2 C19_2 1_555 1_555
H7_2 C20_2 1_555 1_555
C21_2 C20_2 1_555 1_555
C22_2 C21_2 1_555 1_555
H8_2 C22_2 1_555 1_555
C23_2 C22_2 1_555 1_555
H9_2 C23_2 1_555 1_555
C24_2 C23_2 1_555 1_555
C25_2 C24_2 1_555 1_555
C26_2 C21_2 1_555 1_555
C27_2 C26_2 1_555 1_555
C28_2 C19_2 1_555 1_555
H12_2 C28_2 1_555 1_555
C29_2 O18_2 1_555 1_555
C30_2 C29_2 1_555 1_555
C31_2 C30_2 1_555 1_555
H13_2 C31_2 1_555 1_555
C32_2 C31_2 1_555 1_555
C33_2 C32_2 1_555 1_555
H14_2 C33_2 1_555 1_555
C34_2 C33_2 1_555 1_555
H15_2 C34_2 1_555 1_555
C35_2 C34_2 1_555 1_555
C36_2 C35_2 1_555 1_555
H16_2 C36_2 1_555 1_555
C37_2 C32_2 1_555 1_555
C38_2 C37_2 1_555 1_555
H17_2 C38_2 1_555 1_555
C39_2 C30_2 1_555 1_555
H18_2 C39_2 1_555 1_555
C62_2 O24_2 1_555 1_555
C63_2 C62_2 1_555 1_555
C72_2 C63_2 1_555 1_555
H36_2 C72_2 1_555 1_555
O25_2 C62_2 1_555 1_555
C25_2 C26_2 1_555 1_555
C27_2 C28_2 1_555 1_555
C36_2 C37_2 1_555 1_555
C38_2 C39_2 1_555 1_555
O37 C16_2 1_555 1_555
O38 C16_2 1_555 1_555
C16_2 C46_2 1_555 1_555
H19_2 C42_2 1_555 1_555
C43_2 C42_2 1_555 1_555
H20_2 C43_2 1_555 1_555
C44_2 C43_2 1_555 1_555
C45_2 C44_2 1_555 1_555
H21_2 C45_2 1_555 1_555
C46_2 C45_2 1_555 1_555
C47_2 C46_2 1_555 1_555
H22_2 C47_2 1_555 1_555
C48_2 C47_2 1_555 1_555
C49_2 C44_2 1_555 1_555
C53_2 C52_2 1_555 1_555
H25_2 C53_2 1_555 1_555
C54_2 C53_2 1_555 1_555
C55_2 C54_2 1_555 1_555
C56_2 C55_2 1_555 1_555
C57_2 C56_2 1_555 1_555
C58_2 C57_2 1_555 1_555
H28_2 C58_2 1_555 1_555
C59_2 C58_2 1_555 1_555
H29_2 C59_2 1_555 1_555
C60_2 C55_2 1_555 1_555
C61_2 C52_2 1_555 1_555
H30_2 C61_2 1_555 1_555
C48_2 C49_2 1_555 1_555
C59_2 C60_2 1_555 1_555
C60_2 C61_2 1_555 1_555
H31_2 C64_2 1_555 1_555
C65_2 C64_2 1_555 1_555
H32_2 C65_2 1_555 1_555
C66_2 C65_2 1_555 1_555
C67_2 C66_2 1_555 1_555
H33_2 C67_2 1_555 1_555
C71_2 C66_2 1_555 1_555

#END
