
###############################################################################
#
# This file contains modified crystal structure data generated from the
# MOF subset of the Cambridge Structural Database (CSD) v543 
# hosted by the Cambridge Crystallographic Data Centre (CCDC).
#
# This work is licensed under the Creative Commons
# Attribution-NonCommercial-ShareAlike 4.0 International License.
# To view a copy of this license, visit
# http://creativecommons.org/licenses/by-nc-sa/4.0/
# or send a letter to
# Creative Commons, PO Box 1866, Mountain View, CA 94042, USA.
#
# CIF created using the CSD Python API on 29 September 2022
# The structure has been converted into the P1 space group
# The structure has a 3D framework
# The original CSD entry CAHWAN is in the cubic crystal system
# The framework has been calculated to contain at least 10.0% void space
# The void calculation uses a probe of radius 1.32A, grid spacing 0.4
# The framework is charged, counterions have been retained in the structure
#
###############################################################################

data_CAHWAN
_chemical_formula_moiety         '(C96 H120 Ag3 B12 N48 9-)n'
_symmetry_cell_setting           triclinic
_symmetry_space_group_name_H-M   'P 1'
_symmetry_Int_Tables_number      1
_space_group_name_Hall           'P 1'
loop_
_symmetry_equiv_pos_site_id
_symmetry_equiv_pos_as_xyz
1 x,y,z
_cell_length_a                   16.6659(3)
_cell_length_b                   16.6659(3)
_cell_length_c                   16.6659(3)
_cell_angle_alpha                90
_cell_angle_beta                 90
_cell_angle_gamma                90
_cell_volume                     4628.99
loop_
_atom_site_label
_atom_site_type_symbol
_atom_site_fract_x
_atom_site_fract_y
_atom_site_fract_z
_atom_site_U_iso_or_equiv
_atom_site_thermal_displace_type
Ag1 Ag 0.500 0.250 0.000 0.0237 Uiso
B1 B 0.250 0.500 0.000 0.0237 Uiso
N1 N 0.3031(3) 0.4300(5) 0.0289(4) 0.0237 Uiso
N2 N 0.3983(4) 0.3352(3) 0.0335(4) 0.0237 Uiso
C2 C 0.3563(6) 0.3356(5) 0.1050(4) 0.0237 Uiso
H1 H 0.3658(9) 0.3014(6) 0.1480(5) 0.0237 Uiso
C3 C 0.2998(5) 0.3930(6) 0.1030(4) 0.0237 Uiso
H2 H 0.2645(6) 0.4056(9) 0.1444(5) 0.0237 Uiso
N5 N 0.1969(3) 0.5289(4) 0.0700(5) 0.0237 Uiso
N6 N 0.1017(4) 0.5335(4) 0.1648(3) 0.0237 Uiso
C9 C 0.13470(18) 0.4901(4) 0.10708(18) 0.0237 Uiso
C10 C 0.1437(6) 0.6050(4) 0.1644(5) 0.0237 Uiso
H11 H 0.1342(9) 0.6480(5) 0.1986(6) 0.0237 Uiso
C11 C 0.2002(5) 0.6030(4) 0.1070(6) 0.0237 Uiso
H12 H 0.2355(6) 0.6444(5) 0.0944(9) 0.0237 Uiso
C12 C 0.1033(4) 0.4089(4) 0.0841(4) 0.0237 Uiso
H13 H 0.0605(4) 0.3941(5) 0.1197(6) 0.0237 Uiso
H14 H 0.0837(6) 0.4105(5) 0.0300(5) 0.0237 Uiso
H15 H 0.1457(5) 0.3701(4) 0.0881(5) 0.0237 Uiso
C13 C 0.36530(18) 0.60708(18) 0.0099(4) 0.0237 Uiso
C16 C 0.3967(4) 0.5841(4) 0.0911(4) 0.0237 Uiso
H18 H 0.4395(4) 0.6197(6) 0.1059(5) 0.0237 Uiso
H19 H 0.4163(6) 0.5300(5) 0.0895(5) 0.0237 Uiso
H20 H 0.3543(5) 0.5881(5) 0.1299(4) 0.0237 Uiso
Ag3 Ag 0.000 0.500 0.250 0.0237 Uiso
Ag4 Ag 0.500 0.750 0.000 0.0237 Uiso
N11 N 0.5335(4) 0.1648(3) 0.1017(4) 0.0237 Uiso
Ag1_2 Ag 0.500 0.250 1.000 0.0237 Uiso
B1_2 B 0.250 0.500 1.000 0.0237 Uiso
C1 C 0.36530(18) 0.39292(18) 0.9901(4) 0.0237 Uiso
C4 C 0.3967(4) 0.4159(4) 0.9089(4) 0.0237 Uiso
H3 H 0.4395(4) 0.3803(6) 0.8941(5) 0.0237 Uiso
H4 H 0.4163(6) 0.4700(5) 0.9105(5) 0.0237 Uiso
H5 H 0.3543(5) 0.4119(5) 0.8701(4) 0.0237 Uiso
N3 N 0.1969(3) 0.4711(4) 0.9300(5) 0.0237 Uiso
N4 N 0.1017(4) 0.4665(4) 0.8352(3) 0.0237 Uiso
C5 C 0.13470(18) 0.5099(4) 0.89292(18) 0.0237 Uiso
C6 C 0.1437(6) 0.3950(4) 0.8356(5) 0.0237 Uiso
H6 H 0.1342(9) 0.3520(5) 0.8014(6) 0.0237 Uiso
C7 C 0.2002(5) 0.3970(4) 0.8930(6) 0.0237 Uiso
H7 H 0.2355(6) 0.3556(5) 0.9056(9) 0.0237 Uiso
C8 C 0.1033(4) 0.5911(4) 0.9159(4) 0.0237 Uiso
H8 H 0.0605(4) 0.6059(5) 0.8803(6) 0.0237 Uiso
H9 H 0.0837(6) 0.5895(5) 0.9700(5) 0.0237 Uiso
H10 H 0.1457(5) 0.6299(4) 0.9119(5) 0.0237 Uiso
N7 N 0.3031(3) 0.5700(5) 0.9711(4) 0.0237 Uiso
N8 N 0.3983(4) 0.6648(3) 0.9665(4) 0.0237 Uiso
C14 C 0.3563(6) 0.6644(5) 0.8950(4) 0.0237 Uiso
H16 H 0.3658(9) 0.6986(6) 0.8520(5) 0.0237 Uiso
C15 C 0.2998(5) 0.6070(6) 0.8970(4) 0.0237 Uiso
H17 H 0.2645(6) 0.5944(9) 0.8556(5) 0.0237 Uiso
Ag2 Ag 0.000 0.500 0.750 0.0237 Uiso
Ag4_2 Ag 0.500 0.750 1.000 0.0237 Uiso
N9 N 0.6017(4) 0.3352(3) 0.9665(4) 0.0237 Uiso
N10 N 0.4665(4) 0.1648(3) 0.8983(4) 0.0237 Uiso
Ag3_2 Ag 1.000 0.500 0.250 0.0237 Uiso
Ag2_2 Ag 1.000 0.500 0.750 0.0237 Uiso
B1_3 B 0.750 0.500 0.000 0.0237 Uiso
C1_2 C 0.63470(18) 0.39292(18) 0.0099(4) 0.0237 Uiso
C4_2 C 0.6033(4) 0.4159(4) 0.0911(4) 0.0237 Uiso
H3_2 H 0.5605(4) 0.3803(6) 0.1059(5) 0.0237 Uiso
H4_2 H 0.5837(6) 0.4700(5) 0.0895(5) 0.0237 Uiso
H5_2 H 0.6457(5) 0.4119(5) 0.1299(4) 0.0237 Uiso
N3_2 N 0.8031(3) 0.4711(4) 0.0700(5) 0.0237 Uiso
N4_2 N 0.8983(4) 0.4665(4) 0.1648(3) 0.0237 Uiso
C5_2 C 0.86530(18) 0.5099(4) 0.10708(18) 0.0237 Uiso
C6_2 C 0.8563(6) 0.3950(4) 0.1644(5) 0.0237 Uiso
H6_2 H 0.8658(9) 0.3520(5) 0.1986(6) 0.0237 Uiso
C7_2 C 0.7998(5) 0.3970(4) 0.1070(6) 0.0237 Uiso
H7_2 H 0.7645(6) 0.3556(5) 0.0944(9) 0.0237 Uiso
C8_2 C 0.8967(4) 0.5911(4) 0.0841(4) 0.0237 Uiso
H8_2 H 0.9395(4) 0.6059(5) 0.1197(6) 0.0237 Uiso
H9_2 H 0.9163(6) 0.5895(5) 0.0300(5) 0.0237 Uiso
H10_2 H 0.8543(5) 0.6299(4) 0.0881(5) 0.0237 Uiso
N7_2 N 0.6969(3) 0.5700(5) 0.0289(4) 0.0237 Uiso
N8_2 N 0.6017(4) 0.6648(3) 0.0335(4) 0.0237 Uiso
C14_2 C 0.6437(6) 0.6644(5) 0.1050(4) 0.0237 Uiso
H16_2 H 0.6342(9) 0.6986(6) 0.1480(5) 0.0237 Uiso
C15_2 C 0.7002(5) 0.6070(6) 0.1030(4) 0.0237 Uiso
H17_2 H 0.7355(6) 0.5944(9) 0.1444(5) 0.0237 Uiso
B1_4 B 0.750 0.500 1.000 0.0237 Uiso
N1_2 N 0.6969(3) 0.4300(5) 0.9711(4) 0.0237 Uiso
C2_2 C 0.6437(6) 0.3356(5) 0.8950(4) 0.0237 Uiso
H1_2 H 0.6342(9) 0.3014(6) 0.8520(5) 0.0237 Uiso
C3_2 C 0.7002(5) 0.3930(6) 0.8970(4) 0.0237 Uiso
H2_2 H 0.7355(6) 0.4056(9) 0.8556(5) 0.0237 Uiso
N5_2 N 0.8031(3) 0.5289(4) 0.9300(5) 0.0237 Uiso
N6_2 N 0.8983(4) 0.5335(4) 0.8352(3) 0.0237 Uiso
C9_2 C 0.86530(18) 0.4901(4) 0.89292(18) 0.0237 Uiso
C10_2 C 0.8563(6) 0.6050(4) 0.8356(5) 0.0237 Uiso
H11_2 H 0.8658(9) 0.6480(5) 0.8014(6) 0.0237 Uiso
C11_2 C 0.7998(5) 0.6030(4) 0.8930(6) 0.0237 Uiso
H12_2 H 0.7645(6) 0.6444(5) 0.9056(9) 0.0237 Uiso
C12_2 C 0.8967(4) 0.4089(4) 0.9159(4) 0.0237 Uiso
H13_2 H 0.9395(4) 0.3941(5) 0.8803(6) 0.0237 Uiso
H14_2 H 0.9163(6) 0.4105(5) 0.9700(5) 0.0237 Uiso
H15_2 H 0.8543(5) 0.3701(4) 0.9119(5) 0.0237 Uiso
C13_2 C 0.63470(18) 0.60708(18) 0.9901(4) 0.0237 Uiso
C16_2 C 0.6033(4) 0.5841(4) 0.9089(4) 0.0237 Uiso
H18_2 H 0.5605(4) 0.6197(6) 0.8941(5) 0.0237 Uiso
H19_2 H 0.5837(6) 0.5300(5) 0.9105(5) 0.0237 Uiso
H20_2 H 0.6457(5) 0.5881(5) 0.8701(4) 0.0237 Uiso
N10_2 N 0.0335(4) 0.6017(4) 0.6648(3) 0.0237 Uiso
N11_2 N 0.9665(4) 0.3983(4) 0.6648(3) 0.0237 Uiso
N10_3 N 0.0335(4) 0.3983(4) 0.3352(3) 0.0237 Uiso
N11_3 N 0.9665(4) 0.6017(4) 0.3352(3) 0.0237 Uiso
Ag1_3 Ag 0.750 0.000 0.500 0.0237 Uiso
B1_5 B 0.500 0.000 0.250 0.0237 Uiso
C1_3 C 0.60708(18) 0.0099(4) 0.36530(18) 0.0237 Uiso
C4_3 C 0.5841(4) 0.0911(4) 0.3967(4) 0.0237 Uiso
H3_3 H 0.6197(6) 0.1059(5) 0.4395(4) 0.0237 Uiso
H4_3 H 0.5300(5) 0.0895(5) 0.4163(6) 0.0237 Uiso
H5_3 H 0.5881(5) 0.1299(4) 0.3543(5) 0.0237 Uiso
N3_3 N 0.5289(4) 0.0700(5) 0.1969(3) 0.0237 Uiso
C5_3 C 0.4901(4) 0.10708(18) 0.13470(18) 0.0237 Uiso
C6_3 C 0.6050(4) 0.1644(5) 0.1437(6) 0.0237 Uiso
H6_3 H 0.6480(5) 0.1986(6) 0.1342(9) 0.0237 Uiso
C7_3 C 0.6030(4) 0.1070(6) 0.2002(5) 0.0237 Uiso
H7_3 H 0.6444(5) 0.0944(9) 0.2355(6) 0.0237 Uiso
C8_3 C 0.4089(4) 0.0841(4) 0.1033(4) 0.0237 Uiso
H8_3 H 0.3941(5) 0.1197(6) 0.0605(4) 0.0237 Uiso
H9_3 H 0.4105(5) 0.0300(5) 0.0837(6) 0.0237 Uiso
H10_3 H 0.3701(4) 0.0881(5) 0.1457(5) 0.0237 Uiso
N7_3 N 0.4300(5) 0.0289(4) 0.3031(3) 0.0237 Uiso
N8_3 N 0.3352(3) 0.0335(4) 0.3983(4) 0.0237 Uiso
C14_3 C 0.3356(5) 0.1050(4) 0.3563(6) 0.0237 Uiso
H16_3 H 0.3014(6) 0.1480(5) 0.3658(9) 0.0237 Uiso
C15_3 C 0.3930(6) 0.1030(4) 0.2998(5) 0.0237 Uiso
H17_3 H 0.4056(9) 0.1444(5) 0.2645(6) 0.0237 Uiso
Ag4_3 Ag 0.250 0.000 0.500 0.0237 Uiso
N9_2 N 0.6648(3) 0.0335(4) 0.6017(4) 0.0237 Uiso
N10_4 N 0.8352(3) 0.1017(4) 0.4665(4) 0.0237 Uiso
Ag1_4 Ag 0.750 1.000 0.500 0.0237 Uiso
B1_6 B 0.500 1.000 0.250 0.0237 Uiso
N1_3 N 0.5700(5) 0.9711(4) 0.3031(3) 0.0237 Uiso
N2_2 N 0.6648(3) 0.9665(4) 0.3983(4) 0.0237 Uiso
C2_3 C 0.6644(5) 0.8950(4) 0.3563(6) 0.0237 Uiso
H1_3 H 0.6986(6) 0.8520(5) 0.3658(9) 0.0237 Uiso
C3_3 C 0.6070(6) 0.8970(4) 0.2998(5) 0.0237 Uiso
H2_3 H 0.5944(9) 0.8556(5) 0.2645(6) 0.0237 Uiso
N5_3 N 0.4711(4) 0.9300(5) 0.1969(3) 0.0237 Uiso
N6_3 N 0.4665(4) 0.8352(3) 0.1017(4) 0.0237 Uiso
C9_3 C 0.5099(4) 0.89292(18) 0.13470(18) 0.0237 Uiso
C10_3 C 0.3950(4) 0.8356(5) 0.1437(6) 0.0237 Uiso
H11_3 H 0.3520(5) 0.8014(6) 0.1342(9) 0.0237 Uiso
C11_3 C 0.3970(4) 0.8930(6) 0.2002(5) 0.0237 Uiso
H12_3 H 0.3556(5) 0.9056(9) 0.2355(6) 0.0237 Uiso
C12_3 C 0.5911(4) 0.9159(4) 0.1033(4) 0.0237 Uiso
H13_3 H 0.6059(5) 0.8803(6) 0.0605(4) 0.0237 Uiso
H14_3 H 0.5895(5) 0.9700(5) 0.0837(6) 0.0237 Uiso
H15_3 H 0.6299(4) 0.9119(5) 0.1457(5) 0.0237 Uiso
C13_3 C 0.39292(18) 0.9901(4) 0.36530(18) 0.0237 Uiso
C16_3 C 0.4159(4) 0.9089(4) 0.3967(4) 0.0237 Uiso
H18_3 H 0.3803(6) 0.8941(5) 0.4395(4) 0.0237 Uiso
H19_3 H 0.4700(5) 0.9105(5) 0.4163(6) 0.0237 Uiso
H20_3 H 0.4119(5) 0.8701(4) 0.3543(5) 0.0237 Uiso
Ag4_4 Ag 0.250 1.000 0.500 0.0237 Uiso
N11_4 N 0.8352(3) 0.8983(4) 0.5335(4) 0.0237 Uiso
B1_7 B 0.500 0.000 0.750 0.0237 Uiso
N1_4 N 0.5700(5) 0.0289(4) 0.6969(3) 0.0237 Uiso
C2_4 C 0.6644(5) 0.1050(4) 0.6437(6) 0.0237 Uiso
H1_4 H 0.6986(6) 0.1480(5) 0.6342(9) 0.0237 Uiso
C3_4 C 0.6070(6) 0.1030(4) 0.7002(5) 0.0237 Uiso
H2_4 H 0.5944(9) 0.1444(5) 0.7355(6) 0.0237 Uiso
N5_4 N 0.4711(4) 0.0700(5) 0.8031(3) 0.0237 Uiso
C9_4 C 0.5099(4) 0.10708(18) 0.86530(18) 0.0237 Uiso
C10_4 C 0.3950(4) 0.1644(5) 0.8563(6) 0.0237 Uiso
H11_4 H 0.3520(5) 0.1986(6) 0.8658(9) 0.0237 Uiso
C11_4 C 0.3970(4) 0.1070(6) 0.7998(5) 0.0237 Uiso
H12_4 H 0.3556(5) 0.0944(9) 0.7645(6) 0.0237 Uiso
C12_4 C 0.5911(4) 0.0841(4) 0.8967(4) 0.0237 Uiso
H13_4 H 0.6059(5) 0.1197(6) 0.9395(4) 0.0237 Uiso
H14_4 H 0.5895(5) 0.0300(5) 0.9163(6) 0.0237 Uiso
H15_4 H 0.6299(4) 0.0881(5) 0.8543(5) 0.0237 Uiso
C13_4 C 0.39292(18) 0.0099(4) 0.63470(18) 0.0237 Uiso
C16_4 C 0.4159(4) 0.0911(4) 0.6033(4) 0.0237 Uiso
H18_4 H 0.3803(6) 0.1059(5) 0.5605(4) 0.0237 Uiso
H19_4 H 0.4700(5) 0.0895(5) 0.5837(6) 0.0237 Uiso
H20_4 H 0.4119(5) 0.1299(4) 0.6457(5) 0.0237 Uiso
B1_8 B 0.500 1.000 0.750 0.0237 Uiso
C1_4 C 0.60708(18) 0.9901(4) 0.63470(18) 0.0237 Uiso
C4_4 C 0.5841(4) 0.9089(4) 0.6033(4) 0.0237 Uiso
H3_4 H 0.6197(6) 0.8941(5) 0.5605(4) 0.0237 Uiso
H4_4 H 0.5300(5) 0.9105(5) 0.5837(6) 0.0237 Uiso
H5_4 H 0.5881(5) 0.8701(4) 0.6457(5) 0.0237 Uiso
N3_4 N 0.5289(4) 0.9300(5) 0.8031(3) 0.0237 Uiso
N4_3 N 0.5335(4) 0.8352(3) 0.8983(4) 0.0237 Uiso
C5_4 C 0.4901(4) 0.89292(18) 0.86530(18) 0.0237 Uiso
C6_4 C 0.6050(4) 0.8356(5) 0.8563(6) 0.0237 Uiso
H6_4 H 0.6480(5) 0.8014(6) 0.8658(9) 0.0237 Uiso
C7_4 C 0.6030(4) 0.8930(6) 0.7998(5) 0.0237 Uiso
H7_4 H 0.6444(5) 0.9056(9) 0.7645(6) 0.0237 Uiso
C8_4 C 0.4089(4) 0.9159(4) 0.8967(4) 0.0237 Uiso
H8_4 H 0.3941(5) 0.8803(6) 0.9395(4) 0.0237 Uiso
H9_4 H 0.4105(5) 0.9700(5) 0.9163(6) 0.0237 Uiso
H10_4 H 0.3701(4) 0.9119(5) 0.8543(5) 0.0237 Uiso
N7_4 N 0.4300(5) 0.9711(4) 0.6969(3) 0.0237 Uiso
N8_4 N 0.3352(3) 0.9665(4) 0.6017(4) 0.0237 Uiso
C14_4 C 0.3356(5) 0.8950(4) 0.6437(6) 0.0237 Uiso
H16_4 H 0.3014(6) 0.8520(5) 0.6342(9) 0.0237 Uiso
C15_4 C 0.3930(6) 0.8970(4) 0.7002(5) 0.0237 Uiso
H17_4 H 0.4056(9) 0.8556(5) 0.7355(6) 0.0237 Uiso
B1_9 B 0.000 0.250 0.500 0.0237 Uiso
N1_5 N 0.0700(5) 0.1969(3) 0.5289(4) 0.0237 Uiso
N2_3 N 0.1648(3) 0.1017(4) 0.5335(4) 0.0237 Uiso
C1_5 C 0.10708(18) 0.13470(18) 0.4901(4) 0.0237 Uiso
C2_5 C 0.1644(5) 0.1437(6) 0.6050(4) 0.0237 Uiso
H1_5 H 0.1986(6) 0.1342(9) 0.6480(5) 0.0237 Uiso
C3_5 C 0.1070(6) 0.2002(5) 0.6030(4) 0.0237 Uiso
H2_5 H 0.0944(9) 0.2355(6) 0.6444(5) 0.0237 Uiso
C4_5 C 0.0841(4) 0.1033(4) 0.4089(4) 0.0237 Uiso
H3_5 H 0.1197(6) 0.0605(4) 0.3941(5) 0.0237 Uiso
H4_5 H 0.0300(5) 0.0837(6) 0.4105(5) 0.0237 Uiso
H5_5 H 0.0881(5) 0.1457(5) 0.3701(4) 0.0237 Uiso
N3_5 N 0.0289(4) 0.3031(3) 0.4300(5) 0.0237 Uiso
C6_5 C 0.1050(4) 0.3563(6) 0.3356(5) 0.0237 Uiso
H6_5 H 0.1480(5) 0.3658(9) 0.3014(6) 0.0237 Uiso
C7_5 C 0.1030(4) 0.2998(5) 0.3930(6) 0.0237 Uiso
H7_5 H 0.1444(5) 0.2645(6) 0.4056(9) 0.0237 Uiso
C9_5 C 0.0099(4) 0.36530(18) 0.60708(18) 0.0237 Uiso
C12_5 C 0.0911(4) 0.3967(4) 0.5841(4) 0.0237 Uiso
H13_5 H 0.1059(5) 0.4395(4) 0.6197(6) 0.0237 Uiso
H14_5 H 0.0895(5) 0.4163(6) 0.5300(5) 0.0237 Uiso
H15_5 H 0.1299(4) 0.3543(5) 0.5881(5) 0.0237 Uiso
N9_3 N 0.1648(3) 0.8983(4) 0.4665(4) 0.0237 Uiso
B1_10 B 1.000 0.250 0.500 0.0237 Uiso
C5_5 C 0.9901(4) 0.36530(18) 0.39292(18) 0.0237 Uiso
C8_5 C 0.9089(4) 0.3967(4) 0.4159(4) 0.0237 Uiso
H8_5 H 0.8941(5) 0.4395(4) 0.3803(6) 0.0237 Uiso
H9_5 H 0.9105(5) 0.4163(6) 0.4700(5) 0.0237 Uiso
H10_5 H 0.8701(4) 0.3543(5) 0.4119(5) 0.0237 Uiso
N5_5 N 0.9711(4) 0.3031(3) 0.5700(5) 0.0237 Uiso
C10_5 C 0.8950(4) 0.3563(6) 0.6644(5) 0.0237 Uiso
H11_5 H 0.8520(5) 0.3658(9) 0.6986(6) 0.0237 Uiso
C11_5 C 0.8970(4) 0.2998(5) 0.6070(6) 0.0237 Uiso
H12_5 H 0.8556(5) 0.2645(6) 0.5944(9) 0.0237 Uiso
N7_5 N 0.9300(5) 0.1969(3) 0.4711(4) 0.0237 Uiso
C13_5 C 0.89292(18) 0.13470(18) 0.5099(4) 0.0237 Uiso
C14_5 C 0.8356(5) 0.1437(6) 0.3950(4) 0.0237 Uiso
H16_5 H 0.8014(6) 0.1342(9) 0.3520(5) 0.0237 Uiso
C15_5 C 0.8930(6) 0.2002(5) 0.3970(4) 0.0237 Uiso
H17_5 H 0.9056(9) 0.2355(6) 0.3556(5) 0.0237 Uiso
C16_5 C 0.9159(4) 0.1033(4) 0.5911(4) 0.0237 Uiso
H18_5 H 0.8803(6) 0.0605(4) 0.6059(5) 0.0237 Uiso
H19_5 H 0.9700(5) 0.0837(6) 0.5895(5) 0.0237 Uiso
H20_5 H 0.9119(5) 0.1457(5) 0.6299(4) 0.0237 Uiso
B1_11 B 0.000 0.750 0.500 0.0237 Uiso
N1_6 N 0.0700(5) 0.8031(3) 0.4711(4) 0.0237 Uiso
C1_6 C 0.10708(18) 0.86530(18) 0.5099(4) 0.0237 Uiso
C2_6 C 0.1644(5) 0.8563(6) 0.3950(4) 0.0237 Uiso
H1_6 H 0.1986(6) 0.8658(9) 0.3520(5) 0.0237 Uiso
C3_6 C 0.1070(6) 0.7998(5) 0.3970(4) 0.0237 Uiso
H2_6 H 0.0944(9) 0.7645(6) 0.3556(5) 0.0237 Uiso
C4_6 C 0.0841(4) 0.8967(4) 0.5911(4) 0.0237 Uiso
H3_6 H 0.1197(6) 0.9395(4) 0.6059(5) 0.0237 Uiso
H4_6 H 0.0300(5) 0.9163(6) 0.5895(5) 0.0237 Uiso
H5_6 H 0.0881(5) 0.8543(5) 0.6299(4) 0.0237 Uiso
N3_6 N 0.0289(4) 0.6969(3) 0.5700(5) 0.0237 Uiso
C6_6 C 0.1050(4) 0.6437(6) 0.6644(5) 0.0237 Uiso
H6_6 H 0.1480(5) 0.6342(9) 0.6986(6) 0.0237 Uiso
C7_6 C 0.1030(4) 0.7002(5) 0.6070(6) 0.0237 Uiso
H7_6 H 0.1444(5) 0.7355(6) 0.5944(9) 0.0237 Uiso
C9_6 C 0.0099(4) 0.63470(18) 0.39292(18) 0.0237 Uiso
C12_6 C 0.0911(4) 0.6033(4) 0.4159(4) 0.0237 Uiso
H13_6 H 0.1059(5) 0.5605(4) 0.3803(6) 0.0237 Uiso
H14_6 H 0.0895(5) 0.5837(6) 0.4700(5) 0.0237 Uiso
H15_6 H 0.1299(4) 0.6457(5) 0.4119(5) 0.0237 Uiso
B1_12 B 1.000 0.750 0.500 0.0237 Uiso
C5_6 C 0.9901(4) 0.63470(18) 0.60708(18) 0.0237 Uiso
C8_6 C 0.9089(4) 0.6033(4) 0.5841(4) 0.0237 Uiso
H8_6 H 0.8941(5) 0.5605(4) 0.6197(6) 0.0237 Uiso
H9_6 H 0.9105(5) 0.5837(6) 0.5300(5) 0.0237 Uiso
H10_6 H 0.8701(4) 0.6457(5) 0.5881(5) 0.0237 Uiso
N5_6 N 0.9711(4) 0.6969(3) 0.4300(5) 0.0237 Uiso
C10_6 C 0.8950(4) 0.6437(6) 0.3356(5) 0.0237 Uiso
H11_6 H 0.8520(5) 0.6342(9) 0.3014(6) 0.0237 Uiso
C11_6 C 0.8970(4) 0.7002(5) 0.3930(6) 0.0237 Uiso
H12_6 H 0.8556(5) 0.7355(6) 0.4056(9) 0.0237 Uiso
N7_6 N 0.9300(5) 0.8031(3) 0.5289(4) 0.0237 Uiso
C13_6 C 0.89292(18) 0.86530(18) 0.4901(4) 0.0237 Uiso
C14_6 C 0.8356(5) 0.8563(6) 0.6050(4) 0.0237 Uiso
H16_6 H 0.8014(6) 0.8658(9) 0.6480(5) 0.0237 Uiso
C15_6 C 0.8930(6) 0.7998(5) 0.6030(4) 0.0237 Uiso
H17_6 H 0.9056(9) 0.7645(6) 0.6444(5) 0.0237 Uiso
C16_6 C 0.9159(4) 0.8967(4) 0.4089(4) 0.0237 Uiso
H18_6 H 0.8803(6) 0.9395(4) 0.3941(5) 0.0237 Uiso
H19_6 H 0.9700(5) 0.9163(6) 0.4105(5) 0.0237 Uiso
H20_6 H 0.9119(5) 0.8543(5) 0.3701(4) 0.0237 Uiso
loop_
_geom_bond_atom_site_label_1
_geom_bond_atom_site_label_2
_geom_bond_site_symmetry_1
_geom_bond_site_symmetry_2
Ag1 N2 1_555 1_555
B1 N1 1_555 1_555
C2 N2 1_555 1_555
H1 C2 1_555 1_555
C3 N1 1_555 1_555
H2 C3 1_555 1_555
N5 B1 1_555 1_555
N6 C9 1_555 1_555
C9 N5 1_555 1_555
C10 N6 1_555 1_555
H11 C10 1_555 1_555
C11 N5 1_555 1_555
H12 C11 1_555 1_555
C12 C9 1_555 1_555
H13 C12 1_555 1_555
H14 C12 1_555 1_555
H15 C12 1_555 1_555
C16 C13 1_555 1_555
H18 C16 1_555 1_555
H19 C16 1_555 1_555
H20 C16 1_555 1_555
Ag3 N6 1_555 1_555
N11 Ag1 1_555 1_555
C2 C3 1_555 1_555
C10 C11 1_555 1_555
C1 C4 1_555 1_555
C4 H3 1_555 1_555
H4 C4 1_555 1_555
H5 C4 1_555 1_555
N3 B1_2 1_555 1_555
N4 C5 1_555 1_555
C5 N3 1_555 1_555
C6 N4 1_555 1_555
H6 C6 1_555 1_555
C7 N3 1_555 1_555
H7 C7 1_555 1_555
C8 C5 1_555 1_555
H8 C8 1_555 1_555
H9 C8 1_555 1_555
H10 C8 1_555 1_555
N7 B1_2 1_555 1_555
C14 N8 1_555 1_555
H16 C14 1_555 1_555
C15 N7 1_555 1_555
H17 C15 1_555 1_555
Ag2 N4 1_555 1_555
Ag4_2 N8 1_555 1_555
N9 Ag1_2 1_555 1_555
N10 Ag1_2 1_555 1_555
C6 C7 1_555 1_555
C14 C15 1_555 1_555
C1_2 C4_2 1_555 1_555
C4_2 H3_2 1_555 1_555
H4_2 C4_2 1_555 1_555
H5_2 C4_2 1_555 1_555
N3_2 B1_3 1_555 1_555
N4_2 C5_2 1_555 1_555
C5_2 N3_2 1_555 1_555
C6_2 N4_2 1_555 1_555
H6_2 C6_2 1_555 1_555
C7_2 N3_2 1_555 1_555
H7_2 C7_2 1_555 1_555
C8_2 C5_2 1_555 1_555
H8_2 C8_2 1_555 1_555
H9_2 C8_2 1_555 1_555
H10_2 C8_2 1_555 1_555
N7_2 B1_3 1_555 1_555
C14_2 N8_2 1_555 1_555
H16_2 C14_2 1_555 1_555
C15_2 N7_2 1_555 1_555
H17_2 C15_2 1_555 1_555
Ag3_2 N4_2 1_555 1_555
Ag4 N8_2 1_555 1_555
C6_2 C7_2 1_555 1_555
C14_2 C15_2 1_555 1_555
B1_4 N1_2 1_555 1_555
C2_2 N9 1_555 1_555
H1_2 C2_2 1_555 1_555
C3_2 N1_2 1_555 1_555
H2_2 C3_2 1_555 1_555
N5_2 B1_4 1_555 1_555
N6_2 C9_2 1_555 1_555
C9_2 N5_2 1_555 1_555
C10_2 N6_2 1_555 1_555
H11_2 C10_2 1_555 1_555
C11_2 N5_2 1_555 1_555
H12_2 C11_2 1_555 1_555
C12_2 C9_2 1_555 1_555
H13_2 C12_2 1_555 1_555
H14_2 C12_2 1_555 1_555
H15_2 C12_2 1_555 1_555
C16_2 C13_2 1_555 1_555
H18_2 C16_2 1_555 1_555
H19_2 C16_2 1_555 1_555
H20_2 C16_2 1_555 1_555
Ag2_2 N6_2 1_555 1_555
C2_2 C3_2 1_555 1_555
C10_2 C11_2 1_555 1_555
N10_2 Ag2 1_555 1_555
N11_2 Ag2_2 1_555 1_555
N10_3 Ag3 1_555 1_555
N11_3 Ag3_2 1_555 1_555
C1_3 C4_3 1_555 1_555
C4_3 H3_3 1_555 1_555
H4_3 C4_3 1_555 1_555
H5_3 C4_3 1_555 1_555
N3_3 B1_5 1_555 1_555
N11 C5_3 1_555 1_555
C5_3 N3_3 1_555 1_555
C6_3 N11 1_555 1_555
H6_3 C6_3 1_555 1_555
C7_3 N3_3 1_555 1_555
H7_3 C7_3 1_555 1_555
C8_3 C5_3 1_555 1_555
H8_3 C8_3 1_555 1_555
H9_3 C8_3 1_555 1_555
H10_3 C8_3 1_555 1_555
N7_3 B1_5 1_555 1_555
C14_3 N8_3 1_555 1_555
H16_3 C14_3 1_555 1_555
C15_3 N7_3 1_555 1_555
H17_3 C15_3 1_555 1_555
Ag4_3 N8_3 1_555 1_555
N9_2 Ag1_3 1_555 1_555
N10_4 Ag1_3 1_555 1_555
C6_3 C7_3 1_555 1_555
C14_3 C15_3 1_555 1_555
Ag1_4 N2_2 1_555 1_555
B1_6 N1_3 1_555 1_555
C2_3 N2_2 1_555 1_555
H1_3 C2_3 1_555 1_555
C3_3 N1_3 1_555 1_555
H2_3 C3_3 1_555 1_555
N5_3 B1_6 1_555 1_555
N6_3 C9_3 1_555 1_555
C9_3 N5_3 1_555 1_555
C10_3 N6_3 1_555 1_555
H11_3 C10_3 1_555 1_555
C11_3 N5_3 1_555 1_555
H12_3 C11_3 1_555 1_555
C12_3 C9_3 1_555 1_555
H13_3 C12_3 1_555 1_555
H14_3 C12_3 1_555 1_555
H15_3 C12_3 1_555 1_555
C16_3 C13_3 1_555 1_555
H18_3 C16_3 1_555 1_555
H19_3 C16_3 1_555 1_555
H20_3 C16_3 1_555 1_555
Ag4 N6_3 1_555 1_555
N11_4 Ag1_4 1_555 1_555
C2_3 C3_3 1_555 1_555
C10_3 C11_3 1_555 1_555
B1_7 N1_4 1_555 1_555
C2_4 N9_2 1_555 1_555
H1_4 C2_4 1_555 1_555
C3_4 N1_4 1_555 1_555
H2_4 C3_4 1_555 1_555
N5_4 B1_7 1_555 1_555
N10 C9_4 1_555 1_555
C9_4 N5_4 1_555 1_555
C10_4 N10 1_555 1_555
H11_4 C10_4 1_555 1_555
C11_4 N5_4 1_555 1_555
H12_4 C11_4 1_555 1_555
C12_4 C9_4 1_555 1_555
H13_4 C12_4 1_555 1_555
H14_4 C12_4 1_555 1_555
H15_4 C12_4 1_555 1_555
C16_4 C13_4 1_555 1_555
H18_4 C16_4 1_555 1_555
H19_4 C16_4 1_555 1_555
H20_4 C16_4 1_555 1_555
C2_4 C3_4 1_555 1_555
C10_4 C11_4 1_555 1_555
C1_4 C4_4 1_555 1_555
C4_4 H3_4 1_555 1_555
H4_4 C4_4 1_555 1_555
H5_4 C4_4 1_555 1_555
N3_4 B1_8 1_555 1_555
N4_3 C5_4 1_555 1_555
C5_4 N3_4 1_555 1_555
C6_4 N4_3 1_555 1_555
H6_4 C6_4 1_555 1_555
C7_4 N3_4 1_555 1_555
H7_4 C7_4 1_555 1_555
C8_4 C5_4 1_555 1_555
H8_4 C8_4 1_555 1_555
H9_4 C8_4 1_555 1_555
H10_4 C8_4 1_555 1_555
N7_4 B1_8 1_555 1_555
C14_4 N8_4 1_555 1_555
H16_4 C14_4 1_555 1_555
C15_4 N7_4 1_555 1_555
H17_4 C15_4 1_555 1_555
Ag4_2 N4_3 1_555 1_555
Ag4_4 N8_4 1_555 1_555
C6_4 C7_4 1_555 1_555
C14_4 C15_4 1_555 1_555
Ag4_3 N2_3 1_555 1_555
B1_9 N1_5 1_555 1_555
N1_5 C1_5 1_555 1_555
N2_3 C1_5 1_555 1_555
C1_5 C4_5 1_555 1_555
C2_5 N2_3 1_555 1_555
H1_5 C2_5 1_555 1_555
C3_5 N1_5 1_555 1_555
H2_5 C3_5 1_555 1_555
C4_5 H3_5 1_555 1_555
H4_5 C4_5 1_555 1_555
H5_5 C4_5 1_555 1_555
N3_5 B1_9 1_555 1_555
C6_5 N10_3 1_555 1_555
H6_5 C6_5 1_555 1_555
C7_5 N3_5 1_555 1_555
H7_5 C7_5 1_555 1_555
C12_5 C9_5 1_555 1_555
H13_5 C12_5 1_555 1_555
H14_5 C12_5 1_555 1_555
H15_5 C12_5 1_555 1_555
C2_5 C3_5 1_555 1_555
C6_5 C7_5 1_555 1_555
N9_3 Ag4_4 1_555 1_555
C8_5 C5_5 1_555 1_555
H8_5 C8_5 1_555 1_555
H9_5 C8_5 1_555 1_555
H10_5 C8_5 1_555 1_555
N5_5 B1_10 1_555 1_555
C10_5 N11_2 1_555 1_555
H11_5 C10_5 1_555 1_555
C11_5 N5_5 1_555 1_555
H12_5 C11_5 1_555 1_555
N7_5 B1_10 1_555 1_555
N10_4 C13_5 1_555 1_555
C13_5 N7_5 1_555 1_555
C14_5 N10_4 1_555 1_555
H16_5 C14_5 1_555 1_555
C15_5 N7_5 1_555 1_555
H17_5 C15_5 1_555 1_555
C16_5 C13_5 1_555 1_555
H18_5 C16_5 1_555 1_555
H19_5 C16_5 1_555 1_555
H20_5 C16_5 1_555 1_555
C10_5 C11_5 1_555 1_555
C14_5 C15_5 1_555 1_555
B1_11 N1_6 1_555 1_555
N1_6 C1_6 1_555 1_555
N9_3 C1_6 1_555 1_555
C1_6 C4_6 1_555 1_555
C2_6 N9_3 1_555 1_555
H1_6 C2_6 1_555 1_555
C3_6 N1_6 1_555 1_555
H2_6 C3_6 1_555 1_555
C4_6 H3_6 1_555 1_555
H4_6 C4_6 1_555 1_555
H5_6 C4_6 1_555 1_555
N3_6 B1_11 1_555 1_555
C6_6 N10_2 1_555 1_555
H6_6 C6_6 1_555 1_555
C7_6 N3_6 1_555 1_555
H7_6 C7_6 1_555 1_555
C12_6 C9_6 1_555 1_555
H13_6 C12_6 1_555 1_555
H14_6 C12_6 1_555 1_555
H15_6 C12_6 1_555 1_555
C2_6 C3_6 1_555 1_555
C6_6 C7_6 1_555 1_555
C8_6 C5_6 1_555 1_555
H8_6 C8_6 1_555 1_555
H9_6 C8_6 1_555 1_555
H10_6 C8_6 1_555 1_555
N5_6 B1_12 1_555 1_555
C10_6 N11_3 1_555 1_555
H11_6 C10_6 1_555 1_555
C11_6 N5_6 1_555 1_555
H12_6 C11_6 1_555 1_555
N7_6 B1_12 1_555 1_555
N11_4 C13_6 1_555 1_555
C13_6 N7_6 1_555 1_555
C14_6 N11_4 1_555 1_555
H16_6 C14_6 1_555 1_555
C15_6 N7_6 1_555 1_555
H17_6 C15_6 1_555 1_555
C16_6 C13_6 1_555 1_555
H18_6 C16_6 1_555 1_555
H19_6 C16_6 1_555 1_555
H20_6 C16_6 1_555 1_555
C10_6 C11_6 1_555 1_555
C14_6 C15_6 1_555 1_555

#END
