
###############################################################################
#
# This file contains modified crystal structure data generated from the
# MOF subset of the Cambridge Structural Database (CSD) v543 
# hosted by the Cambridge Crystallographic Data Centre (CCDC).
#
# This work is licensed under the Creative Commons
# Attribution-NonCommercial-ShareAlike 4.0 International License.
# To view a copy of this license, visit
# http://creativecommons.org/licenses/by-nc-sa/4.0/
# or send a letter to
# Creative Commons, PO Box 1866, Mountain View, CA 94042, USA.
#
# CIF created using the CSD Python API on 29 September 2022
# The structure has been converted into the P1 space group
# The structure has a 3D framework
# The original CSD entry CAJHON is in the monoclinic crystal system
# The framework has been calculated to contain at least 10.0% void space
# The void calculation uses a probe of radius 1.32A, grid spacing 0.4
#
###############################################################################

data_CAJHON
_chemical_formula_moiety         '(C144 H168 N32 O66 Zn16)n'
_symmetry_cell_setting           triclinic
_symmetry_space_group_name_H-M   'P 1'
_symmetry_Int_Tables_number      1
_space_group_name_Hall           'P 1'
loop_
_symmetry_equiv_pos_site_id
_symmetry_equiv_pos_as_xyz
1 x,y,z
_cell_length_a                   26.7007(19)
_cell_length_b                   9.7429(6)
_cell_length_c                   18.8038(12)
_cell_angle_alpha                90
_cell_angle_beta                 90.254(2)
_cell_angle_gamma                90
_cell_volume                     4891.61
loop_
_atom_site_label
_atom_site_type_symbol
_atom_site_fract_x
_atom_site_fract_y
_atom_site_fract_z
Zn1 Zn 0.28620(3) 0.00411(7) 0.05423(4)
O3 O 0.33655(14) 0.1431(4) 0.0093(2)
O4 O 0.41197(14) 0.1076(4) 0.0515(2)
N4 N 0.56490(16) 0.1012(4) 0.4823(2)
H7 H 0.5916 0.1501 0.4855
H8 H 0.5510 0.0700 0.5202
C8 C 0.38115(19) 0.1723(5) 0.0173(3)
H17 H 0.4076 0.3703 0.0152
C10 C 0.49957(16) 0.0197(5) 0.2823(2)
C12 C 0.49790(18) 0.0011(5) 0.4091(3)
C13 C 0.54352(18) 0.0716(5) 0.4138(3)
C14 C 0.5650(2) 0.1202(6) 0.3521(3)
H22 H 0.5945 0.1710 0.3541
C15 C 0.5428(2) 0.0932(5) 0.2882(3)
H23 H 0.5577 0.1262 0.2470
N9 N 0.27193(17) 0.1377(4) 0.1481(3)
Zn8 Zn 0.53322(3) 0.25560(8) 0.55345(4)
N8 N 0.7499(3) 0.3375(6) 0.8457(4)
H15 H 0.7314 0.4054 0.8585
H16 H 0.7755 0.3515 0.8192
C9 C 0.3991(3) 0.3024(7) 0.9802(5)
H18 H 0.3729 0.3370 0.9500
H19 H 0.4280 0.2817 0.9521
C30 C 0.7683(3) 0.0919(7) 0.8496(3)
H37 H 0.7953 0.1055 0.8193
C31 C 0.7382(3) 0.2034(6) 0.8685(3)
C32 C 0.6971(3) 0.1803(6) 0.9111(4)
H38 H 0.6757 0.2520 0.9227
C33 C 0.6884(3) 0.0516(7) 0.9360(4)
H39 H 0.6611 0.0384 0.9658
O20 O 0.23116(13) 0.0899(3) 0.9927(2)
O1 O 0.40423(12) 0.7031(4) 0.1379(2)
N1 N 0.32531(14) 0.7758(4) 0.1329(2)
H1 H 0.2941 0.7590 0.1402
C1 C 0.33524(14) 0.5358(4) 0.1426(2)
Zn2 Zn 0.414410(14) 0.91210(5) 0.09548(2)
O2 O 0.34025(12) 0.9074(3) 0.1162(2)
C2 C 0.28873(17) 0.5084(4) 0.1116(3)
H2 H 0.2720 0.5774 0.0869
H3 H 0.2885 0.0684 0.1640
H4 H 0.2423 0.1264 0.1311
Zn3 Zn 0.53322(3) 0.74440(8) 0.05345(4)
N3 N 0.50774(15) 0.9437(5) 0.1644(2)
H5 H 0.5394 0.9443 0.1731
C3 C 0.26703(16) 0.3780(4) 0.1173(3)
H6 H 0.2350 0.3619 0.0994
Zn4 Zn 0.654690(15) 0.58157(6) 0.01519(2)
C4 C 0.29381(16) 0.2724(4) 0.1501(2)
C5 C 0.34115(16) 0.2981(4) 0.1767(2)
H9 H 0.3593 0.2269 0.1974
N5 N 0.56045(17) 0.4484(5) 0.4467(2)
H10 H 0.5290 0.4439 0.4372
O5 O 0.42972(13) 0.9906(4) 0.19989(19)
C6 C 0.36241(19) 0.4294(5) 0.1731(3)
H11 H 0.3944 0.4451 0.1909
O6 O 0.49065(12) 0.9011(3) 0.09785(17)
N6 N 0.50203(17) 0.5910(4) 0.1265(2)
H12 H 0.4745 0.6363 0.1232
H13 H 0.5161 0.5594 0.0889
C7 C 0.35760(19) 0.6778(5) 0.1375(3)
O9 O 0.63628(15) 0.4977(4) 0.4101(2)
O10 O 0.57728(13) 0.4109(3) 0.51074(18)
O11 O 0.59158(13) 0.8021(4) 0.12454(19)
C11 C 0.47769(18) 0.9742(6) 0.3444(3)
H20 H 0.4482 0.9236 0.3418
O12 O 0.66023(13) 0.6714(4) 0.1174(2)
H21 H 0.4816 0.9729 0.4502
O15 O 0.65418(14) 0.3888(4) 0.0595(2)
O16 O 0.73294(13) 0.3676(4) 0.1024(2)
C16 C 0.47710(17) 0.9820(5) 0.2127(2)
C19 C 0.5688(2) 0.5263(6) 0.3267(3)
C20 C 0.5229(3) 0.5977(7) 0.3227(4)
H29 H 0.5072 0.6294 0.3635
C21 C 0.5012(2) 0.6200(7) 0.2540(3)
H30 H 0.4715 0.6693 0.2498
C22 C 0.5241(2) 0.5686(5) 0.1935(3)
C23 C 0.5694(2) 0.4971(6) 0.1984(3)
H31 H 0.5839 0.4611 0.1576
C24 C 0.5933(2) 0.4791(6) 0.2657(3)
H32 H 0.6245 0.4370 0.2690
C25 C 0.5924(2) 0.4932(5) 0.3970(3)
C26 C 0.63346(17) 0.7583(5) 0.1480(3)
C27 C 0.6498(2) 0.8130(7) 0.2181(3)
H33 H 0.6762 0.7566 0.2368
H34 H 0.6220 0.8125 0.2503
H35 H 0.6618 0.9052 0.2124
C35 C 0.68774(18) 0.3284(5) 0.0961(3)
C36 C 0.6723(3) 0.1998(8) 0.1331(6)
H40 H 0.6364 0.1945 0.1341
H41 H 0.6851 0.2004 0.1809
H42 H 0.6854 0.1219 0.1081
Zn6 Zn 0.78620(3) 0.50411(7) 0.05423(4)
Zn9 Zn 0.654690(15) 0.41843(6) 0.51519(2)
O19 O 0.57728(13) 0.5891(3) 0.01074(18)
O21 O 0.23294(13) 0.8676(4) 0.1024(2)
O7 O 0.40767(14) 0.8242(4) 0.9938(2)
N7 N 0.74277(17) 0.7146(5) 0.9645(3)
H14 H 0.7733 0.7336 0.9541
O8 O 0.47500(12) 0.6914(4) 0.98264(18)
O13 O 0.66363(14) 0.7810(4) 0.9680(2)
O14 O 0.73116(13) 0.5899(3) 0.9927(2)
C17 C 0.4344(2) 0.7384(5) 0.9620(3)
O17 O 0.30420(18) 0.8587(5) 0.9765(3)
H24 H 0.2877 0.8680 0.9381
H25 H 0.3242 0.9006 0.9491
C18 C 0.4142(3) 0.6851(8) 0.8896(4)
H26 H 0.3788 0.6701 0.8928
H27 H 0.4306 0.6004 0.8778
H28 H 0.4208 0.7519 0.8533
C28 C 0.71806(19) 0.9378(5) 0.9194(3)
C29 C 0.7584(3) 0.9604(7) 0.8756(3)
H36 H 0.7791 0.8877 0.8632
C34 C 0.70730(19) 0.8065(6) 0.9531(3)
N10 N 0.56490(16) 0.8988(4) 0.9823(2)
O18 O 0.63628(15) 0.5023(4) 0.9101(2)
O1_2 O 0.40423(12) 0.2969(4) 0.6379(2)
N1_2 N 0.32531(14) 0.2242(4) 0.6329(2)
H1_2 H 0.2941 0.2410 0.6402
C1_2 C 0.33524(14) 0.4642(4) 0.6426(2)
Zn2_2 Zn 0.414410(14) 0.08790(5) 0.59548(2)
O2_2 O 0.34025(12) 0.0926(3) 0.6162(2)
C2_2 C 0.28873(17) 0.4916(4) 0.6116(3)
H2_2 H 0.2720 0.4226 0.5869
N2 N 0.27193(17) 0.8623(4) 0.6481(3)
H3_2 H 0.2885 0.9316 0.6640
H4_2 H 0.2423 0.8736 0.6311
N3_2 N 0.50774(15) 0.0563(5) 0.6644(2)
H5_2 H 0.5394 0.0557 0.6731
C3_2 C 0.26703(16) 0.6220(4) 0.6173(3)
H6_2 H 0.2350 0.6381 0.5994
C4_2 C 0.29381(16) 0.7276(4) 0.6501(2)
C5_2 C 0.34115(16) 0.7019(4) 0.6767(2)
H9_2 H 0.3593 0.7731 0.6974
N5_2 N 0.56045(17) 0.5516(5) 0.9467(2)
H10_2 H 0.5290 0.5561 0.9372
O5_2 O 0.42972(13) 0.0094(4) 0.69989(19)
C6_2 C 0.36241(19) 0.5706(5) 0.6731(3)
H11_2 H 0.3944 0.5549 0.6909
O6_2 O 0.49065(12) 0.0989(3) 0.59785(17)
N6_2 N 0.50203(17) 0.4090(4) 0.6265(2)
H12_2 H 0.4745 0.3637 0.6232
H13_2 H 0.5161 0.4406 0.5889
O7_2 O 0.40767(14) 0.1758(4) 0.4938(2)
N7_2 N 0.74277(17) 0.2854(5) 0.4645(3)
H14_2 H 0.7733 0.2664 0.4541
C7_2 C 0.35760(19) 0.3222(5) 0.6375(3)
O8_2 O 0.47500(12) 0.3086(4) 0.48264(18)
O11_2 O 0.59158(13) 0.1979(4) 0.62454(19)
C11_2 C 0.47769(18) 0.0258(6) 0.8444(3)
H20_2 H 0.4482 0.0764 0.8418
O12_2 O 0.66023(13) 0.3286(4) 0.6174(2)
H21_2 H 0.4816 0.0271 0.9502
O13_2 O 0.66363(14) 0.2190(4) 0.4680(2)
O14_2 O 0.73116(13) 0.4101(3) 0.4927(2)
O15_2 O 0.65418(14) 0.6112(4) 0.5595(2)
O16_2 O 0.73294(13) 0.6324(4) 0.6024(2)
C16_2 C 0.47710(17) 0.0180(5) 0.7127(2)
C17_2 C 0.4344(2) 0.2616(5) 0.4620(3)
O17_2 O 0.30420(18) 0.1413(5) 0.4765(3)
H24_2 H 0.2877 0.1320 0.4381
H25_2 H 0.3242 0.0994 0.4491
C18_2 C 0.4142(3) 0.3149(8) 0.3896(4)
H26_2 H 0.3788 0.3299 0.3928
H27_2 H 0.4306 0.3996 0.3778
H28_2 H 0.4208 0.2481 0.3533
C19_2 C 0.5688(2) 0.4737(6) 0.8267(3)
C20_2 C 0.5229(3) 0.4023(7) 0.8227(4)
H29_2 H 0.5072 0.3706 0.8635
C21_2 C 0.5012(2) 0.3800(7) 0.7540(3)
H30_2 H 0.4715 0.3307 0.7498
C22_2 C 0.5241(2) 0.4314(5) 0.6935(3)
C23_2 C 0.5694(2) 0.5029(6) 0.6984(3)
H31_2 H 0.5839 0.5389 0.6576
C24_2 C 0.5933(2) 0.5209(6) 0.7657(3)
H32_2 H 0.6245 0.5630 0.7690
C25_2 C 0.5924(2) 0.5068(5) 0.8970(3)
C26_2 C 0.63346(17) 0.2417(5) 0.6480(3)
C27_2 C 0.6498(2) 0.1870(7) 0.7181(3)
H33_2 H 0.6762 0.2434 0.7368
H34_2 H 0.6220 0.1875 0.7503
H35_2 H 0.6618 0.0948 0.7124
C28_2 C 0.71806(19) 0.0622(5) 0.4194(3)
C29_2 C 0.7584(3) 0.0396(7) 0.3756(3)
H36_2 H 0.7791 0.1123 0.3632
C34_2 C 0.70730(19) 0.1935(6) 0.4531(3)
C35_2 C 0.68774(18) 0.6716(5) 0.5961(3)
C36_2 C 0.6723(3) 0.8002(8) 0.6331(6)
H40_2 H 0.6364 0.8055 0.6341
H41_2 H 0.6851 0.7996 0.6809
H42_2 H 0.6854 0.8781 0.6081
Zn5 Zn 0.28620(3) 0.99589(7) 0.55423(4)
Zn6_2 Zn 0.78620(3) 0.49589(7) 0.55423(4)
O21_2 O 0.23294(13) 0.1324(4) 0.6024(2)
H8_2 H 0.5510 0.9300 0.0202
O3_2 O 0.33655(14) 0.8569(4) 0.5093(2)
O4_2 O 0.41197(14) 0.8924(4) 0.5515(2)
H7_2 H 0.5916 0.8499 0.9855
N8_2 N 0.7499(3) 0.6625(6) 0.3457(4)
H15_2 H 0.7314 0.5946 0.3585
H16_2 H 0.7755 0.6485 0.3192
C8_2 C 0.38115(19) 0.8277(5) 0.5173(3)
C9_2 C 0.3991(3) 0.6976(7) 0.4802(5)
H17_2 H 0.4076 0.6297 0.5152
H18_2 H 0.3729 0.6630 0.4500
H19_2 H 0.4280 0.7183 0.4521
C10_2 C 0.49957(16) 0.9803(5) 0.7823(2)
C12_2 C 0.49790(18) 0.9989(5) 0.9091(3)
C13_2 C 0.54352(18) 0.9284(5) 0.9138(3)
C14_2 C 0.5650(2) 0.8798(6) 0.8521(3)
H22_2 H 0.5945 0.8290 0.8541
C15_2 C 0.5428(2) 0.9068(5) 0.7882(3)
H23_2 H 0.5577 0.8738 0.7470
C30_2 C 0.7683(3) 0.9081(7) 0.3496(3)
H37_2 H 0.7953 0.8945 0.3193
C31_2 C 0.7382(3) 0.7966(6) 0.3685(3)
C32_2 C 0.6971(3) 0.8197(6) 0.4111(4)
H38_2 H 0.6757 0.7480 0.4227
C33_2 C 0.6884(3) 0.9484(7) 0.4360(4)
H39_2 H 0.6611 0.9616 0.4658
O20_2 O 0.23116(13) 0.9101(3) 0.4927(2)
Zn3_2 Zn 0.03322(3) 0.24440(8) 0.05345(4)
N3_3 N 0.00774(15) 0.4437(5) 0.1644(2)
H5_3 H 0.0394 0.4443 0.1731
Zn4_2 Zn 0.154690(15) 0.08157(6) 0.01519(2)
N4_2 N 0.06490(16) 0.6012(4) 0.4823(2)
H7_3 H 0.0916 0.6501 0.4855
H8_3 H 0.0510 0.5700 0.5202
N6_3 N 0.00203(17) 0.0910(4) 0.1265(2)
H13_3 H 0.0161 0.0594 0.0889
O11_3 O 0.09158(13) 0.3021(4) 0.12454(19)
O12_3 O 0.16023(13) 0.1714(4) 0.1174(2)
C13_3 C 0.04352(18) 0.5716(5) 0.4138(3)
C14_3 C 0.0650(2) 0.6202(6) 0.3521(3)
H22_3 H 0.0945 0.6710 0.3541
C15_3 C 0.0428(2) 0.5932(5) 0.2882(3)
H23_3 H 0.0577 0.6262 0.2470
C19_3 C 0.0688(2) 0.0263(6) 0.3267(3)
C20_3 C 0.0229(3) 0.0977(7) 0.3227(4)
H29_3 H 0.0072 0.1294 0.3635
C21_3 C 0.0012(2) 0.1200(7) 0.2540(3)
C22_3 C 0.0241(2) 0.0686(5) 0.1935(3)
C26_3 C 0.13346(17) 0.2583(5) 0.1480(3)
C27_3 C 0.1498(2) 0.3130(7) 0.2181(3)
H33_3 H 0.1762 0.2566 0.2368
H34_3 H 0.1220 0.3125 0.2503
H35_3 H 0.1618 0.4052 0.2124
Zn8_2 Zn 0.03322(3) 0.75560(8) 0.55345(4)
O19_2 O 0.07728(13) 0.0891(3) 0.01074(18)
N7_3 N 0.24277(17) 0.2146(5) 0.9645(3)
H14_3 H 0.2733 0.2336 0.9541
N8_3 N 0.2499(3) 0.8375(6) 0.8457(4)
H15_3 H 0.2314 0.9054 0.8585
H16_3 H 0.2755 0.8515 0.8192
O13_3 O 0.16363(14) 0.2810(4) 0.9680(2)
C28_3 C 0.21806(19) 0.4378(5) 0.9194(3)
C29_3 C 0.2584(3) 0.4604(7) 0.8756(3)
H36_3 H 0.2791 0.3877 0.8632
C30_3 C 0.2683(3) 0.5919(7) 0.8496(3)
H37_3 H 0.2953 0.6055 0.8193
C31_3 C 0.2382(3) 0.7034(6) 0.8685(3)
C32_3 C 0.1971(3) 0.6803(6) 0.9111(4)
H38_3 H 0.1757 0.7520 0.9227
C33_3 C 0.1884(3) 0.5516(7) 0.9360(4)
H39_3 H 0.1611 0.5384 0.9658
C34_3 C 0.20730(19) 0.3065(6) 0.9531(3)
N10_2 N 0.06490(16) 0.3988(4) 0.9823(2)
O18_2 O 0.13628(15) 0.0023(4) 0.9101(2)
N5_3 N 0.06045(17) 0.9484(5) 0.4467(2)
H10_3 H 0.0290 0.9439 0.4372
O9_2 O 0.13628(15) 0.9977(4) 0.4101(2)
O10_2 O 0.07728(13) 0.9109(3) 0.51074(18)
O15_3 O 0.15418(14) 0.8888(4) 0.0595(2)
C23_3 C 0.0694(2) 0.9971(6) 0.1984(3)
H31_3 H 0.0839 0.9611 0.1576
C24_3 C 0.0933(2) 0.9791(6) 0.2657(3)
H32_3 H 0.1245 0.9370 0.2690
C25_3 C 0.0924(2) 0.9932(5) 0.3970(3)
C35_3 C 0.18774(18) 0.8284(5) 0.0961(3)
C36_3 C 0.1723(3) 0.6998(8) 0.1331(6)
H40_3 H 0.1364 0.6945 0.1341
H41_3 H 0.1851 0.7004 0.1809
H42_3 H 0.1854 0.6219 0.1081
Zn9_2 Zn 0.154690(15) 0.91843(6) 0.51519(2)
O1_3 O 0.90423(12) 0.2031(4) 0.1379(2)
N1_3 N 0.82531(14) 0.2758(4) 0.1329(2)
H1_3 H 0.7941 0.2590 0.1402
C1_3 C 0.83524(14) 0.0358(4) 0.1426(2)
Zn2_3 Zn 0.914410(14) 0.41210(5) 0.09548(2)
O2_3 O 0.84025(12) 0.4074(3) 0.1162(2)
C2_3 C 0.78873(17) 0.0084(4) 0.1116(3)
H2_3 H 0.7720 0.0774 0.0869
O3_3 O 0.83655(14) 0.6431(4) 0.0093(2)
O4_3 O 0.91197(14) 0.6076(4) 0.0515(2)
O5_3 O 0.92972(13) 0.4906(4) 0.19989(19)
O6_3 O 0.99065(12) 0.4011(3) 0.09785(17)
H12_3 H 0.9745 0.1363 0.1232
C7_3 C 0.85760(19) 0.1778(5) 0.1375(3)
C8_3 C 0.88115(19) 0.6723(5) 0.0173(3)
H17_3 H 0.9076 0.8703 0.0152
C10_3 C 0.99957(16) 0.5197(5) 0.2823(2)
C11_3 C 0.97769(18) 0.4742(6) 0.3444(3)
H20_3 H 0.9482 0.4236 0.3418
C12_3 C 0.99790(18) 0.5011(5) 0.4091(3)
H21_3 H 0.9816 0.4729 0.4502
C16_3 C 0.97710(17) 0.4820(5) 0.2127(2)
H30_3 H 0.9715 0.1693 0.2498
N9_2 N 0.77193(17) 0.6377(4) 0.1481(3)
O7_3 O 0.90767(14) 0.3242(4) 0.9938(2)
O8_3 O 0.97500(12) 0.1914(4) 0.98264(18)
C9_3 C 0.8991(3) 0.8024(7) 0.9802(5)
H18_3 H 0.8729 0.8370 0.9500
H19_3 H 0.9280 0.7817 0.9521
C17_3 C 0.9344(2) 0.2384(5) 0.9620(3)
O17_3 O 0.80420(18) 0.3587(5) 0.9765(3)
H24_3 H 0.7877 0.3680 0.9381
H25_3 H 0.8242 0.4006 0.9491
C18_3 C 0.9142(3) 0.1851(8) 0.8896(4)
H26_3 H 0.8788 0.1701 0.8928
H27_3 H 0.9306 0.1004 0.8778
H28_3 H 0.9208 0.2519 0.8533
H3_3 H 0.7885 0.5684 0.1640
H4_3 H 0.7423 0.6264 0.1311
C3_3 C 0.76703(16) 0.8780(4) 0.1173(3)
H6_3 H 0.7350 0.8619 0.0994
C4_3 C 0.79381(16) 0.7724(4) 0.1501(2)
C5_3 C 0.84115(16) 0.7981(4) 0.1767(2)
H9_3 H 0.8593 0.7269 0.1974
C6_3 C 0.86241(19) 0.9294(5) 0.1731(3)
H11_3 H 0.8944 0.9451 0.1909
N5_4 N 0.06045(17) 0.0516(5) 0.9467(2)
H10_4 H 0.0290 0.0561 0.9372
O15_4 O 0.15418(14) 0.1112(4) 0.5595(2)
C23_4 C 0.0694(2) 0.0029(6) 0.6984(3)
H31_4 H 0.0839 0.0389 0.6576
C24_4 C 0.0933(2) 0.0209(6) 0.7657(3)
H32_4 H 0.1245 0.0630 0.7690
C25_4 C 0.0924(2) 0.0068(5) 0.8970(3)
C35_4 C 0.18774(18) 0.1716(5) 0.5961(3)
C36_4 C 0.1723(3) 0.3002(8) 0.6331(6)
H40_4 H 0.1364 0.3055 0.6341
H41_4 H 0.1851 0.2996 0.6809
H42_4 H 0.1854 0.3781 0.6081
H8_4 H 0.0510 0.4300 0.0202
N3_4 N 0.00774(15) 0.5563(5) 0.6644(2)
H5_4 H 0.0394 0.5557 0.6731
H7_4 H 0.0916 0.3499 0.9855
N6_4 N 0.00203(17) 0.9090(4) 0.6265(2)
H13_4 H 0.0161 0.9406 0.5889
N7_4 N 0.24277(17) 0.7854(5) 0.4645(3)
H14_4 H 0.2733 0.7664 0.4541
N8_4 N 0.2499(3) 0.1625(6) 0.3457(4)
H15_4 H 0.2314 0.0946 0.3585
H16_4 H 0.2755 0.1485 0.3192
O11_4 O 0.09158(13) 0.6979(4) 0.62454(19)
O12_4 O 0.16023(13) 0.8286(4) 0.6174(2)
O13_4 O 0.16363(14) 0.7190(4) 0.4680(2)
C13_4 C 0.04352(18) 0.4284(5) 0.9138(3)
C14_4 C 0.0650(2) 0.3798(6) 0.8521(3)
H22_4 H 0.0945 0.3290 0.8541
C15_4 C 0.0428(2) 0.4068(5) 0.7882(3)
H23_4 H 0.0577 0.3738 0.7470
C19_4 C 0.0688(2) 0.9737(6) 0.8267(3)
C20_4 C 0.0229(3) 0.9023(7) 0.8227(4)
H29_4 H 0.0072 0.8706 0.8635
C21_4 C 0.0012(2) 0.8800(7) 0.7540(3)
C22_4 C 0.0241(2) 0.9314(5) 0.6935(3)
C26_4 C 0.13346(17) 0.7417(5) 0.6480(3)
C27_4 C 0.1498(2) 0.6870(7) 0.7181(3)
H33_4 H 0.1762 0.7434 0.7368
H34_4 H 0.1220 0.6875 0.7503
H35_4 H 0.1618 0.5948 0.7124
C28_4 C 0.21806(19) 0.5622(5) 0.4194(3)
C29_4 C 0.2584(3) 0.5396(7) 0.3756(3)
H36_4 H 0.2791 0.6123 0.3632
C30_4 C 0.2683(3) 0.4081(7) 0.3496(3)
H37_4 H 0.2953 0.3945 0.3193
C31_4 C 0.2382(3) 0.2966(6) 0.3685(3)
C32_4 C 0.1971(3) 0.3197(6) 0.4111(4)
H38_4 H 0.1757 0.2480 0.4227
C33_4 C 0.1884(3) 0.4484(7) 0.4360(4)
H39_4 H 0.1611 0.4616 0.4658
C34_4 C 0.20730(19) 0.6935(6) 0.4531(3)
N2_2 N 0.77193(17) 0.3623(4) 0.6481(3)
H3_4 H 0.7885 0.4316 0.6640
H4_4 H 0.7423 0.3736 0.6311
C3_4 C 0.76703(16) 0.1220(4) 0.6173(3)
H6_4 H 0.7350 0.1381 0.5994
C4_4 C 0.79381(16) 0.2276(4) 0.6501(2)
C5_4 C 0.84115(16) 0.2019(4) 0.6767(2)
H9_4 H 0.8593 0.2731 0.6974
C6_4 C 0.86241(19) 0.0706(5) 0.6731(3)
H11_4 H 0.8944 0.0549 0.6909
O1_4 O 0.90423(12) 0.7969(4) 0.6379(2)
N1_4 N 0.82531(14) 0.7242(4) 0.6329(2)
H1_4 H 0.7941 0.7410 0.6402
C1_4 C 0.83524(14) 0.9642(4) 0.6426(2)
Zn2_4 Zn 0.914410(14) 0.58790(5) 0.59548(2)
O2_4 O 0.84025(12) 0.5926(3) 0.6162(2)
C2_4 C 0.78873(17) 0.9916(4) 0.6116(3)
H2_4 H 0.7720 0.9226 0.5869
O3_4 O 0.83655(14) 0.3569(4) 0.5093(2)
O4_4 O 0.91197(14) 0.3924(4) 0.5515(2)
O5_4 O 0.92972(13) 0.5094(4) 0.69989(19)
O6_4 O 0.99065(12) 0.5989(3) 0.59785(17)
H12_4 H 0.9745 0.8637 0.6232
O7_4 O 0.90767(14) 0.6758(4) 0.4938(2)
C7_4 C 0.85760(19) 0.8222(5) 0.6375(3)
O8_4 O 0.97500(12) 0.8086(4) 0.48264(18)
C8_4 C 0.88115(19) 0.3277(5) 0.5173(3)
C9_4 C 0.8991(3) 0.1976(7) 0.4802(5)
H17_4 H 0.9076 0.1297 0.5152
H18_4 H 0.8729 0.1630 0.4500
H19_4 H 0.9280 0.2183 0.4521
C10_4 C 0.99957(16) 0.4803(5) 0.7823(2)
C11_4 C 0.97769(18) 0.5258(6) 0.8444(3)
H20_4 H 0.9482 0.5764 0.8418
C12_4 C 0.99790(18) 0.4989(5) 0.9091(3)
H21_4 H 0.9816 0.5271 0.9502
C16_4 C 0.97710(17) 0.5180(5) 0.7127(2)
C17_4 C 0.9344(2) 0.7616(5) 0.4620(3)
O17_4 O 0.80420(18) 0.6413(5) 0.4765(3)
H24_4 H 0.7877 0.6320 0.4381
H25_4 H 0.8242 0.5994 0.4491
C18_4 C 0.9142(3) 0.8149(8) 0.3896(4)
H26_4 H 0.8788 0.8299 0.3928
H27_4 H 0.9306 0.8996 0.3778
H28_4 H 0.9208 0.7481 0.3533
H30_4 H 0.9715 0.8307 0.7498
loop_
_geom_bond_atom_site_label_1
_geom_bond_atom_site_label_2
_geom_bond_site_symmetry_1
_geom_bond_site_symmetry_2
O3 Zn1 1_555 1_555
N4 H7 1_555 1_555
H8 N4 1_555 1_555
C8 O3 1_555 1_555
C13 N4 1_555 1_555
C14 C13 1_555 1_555
H22 C14 1_555 1_555
C15 C10 1_555 1_555
H23 C15 1_555 1_555
N9 Zn1 1_555 1_555
Zn8 N4 1_555 1_555
O4 C8 1_555 1_555
C12 C13 1_555 1_555
C14 C15 1_555 1_555
N8 H15 1_555 1_555
H16 N8 1_555 1_555
H18 C9 1_555 1_555
H19 C9 1_555 1_555
H37 C30 1_555 1_555
C31 N8 1_555 1_555
C32 C31 1_555 1_555
H38 C32 1_555 1_555
H39 C33 1_555 1_555
C30 C31 1_555 1_555
C32 C33 1_555 1_555
O1 Zn2 1_555 1_555
N1 H1 1_555 1_555
C1 C2 1_555 1_555
Zn2 O2 1_555 1_555
O2 N1 1_555 1_555
C2 H2 1_555 1_555
N9 H3 1_555 1_555
H4 N9 1_555 1_555
Zn3 O6 1_555 1_555
N3 H5 1_555 1_555
C3 C2 1_555 1_555
H6 C3 1_555 1_555
Zn4 O12 1_555 1_555
C4 N9 1_555 1_555
C5 C4 1_555 1_555
H9 C5 1_555 1_555
N5 H10 1_555 1_555
O5 Zn2 1_555 1_555
C6 C1 1_555 1_555
H11 C6 1_555 1_555
O6 Zn2 1_555 1_555
N6 Zn3 1_555 1_555
H12 N6 1_555 1_555
H13 N6 1_555 1_555
C7 O1 1_555 1_555
O9 C25 1_555 1_555
O10 N5 1_555 1_555
O11 Zn3 1_555 1_555
C11 H20 1_555 1_555
O12 C26 1_555 1_555
O15 Zn4 1_555 1_555
O16 C35 1_555 1_555
C16 N3 1_555 1_555
C19 C20 1_555 1_555
C20 H29 1_555 1_555
C21 C20 1_555 1_555
H30 C21 1_555 1_555
C22 N6 1_555 1_555
C23 C22 1_555 1_555
H31 C23 1_555 1_555
C24 C19 1_555 1_555
H32 C24 1_555 1_555
C25 N5 1_555 1_555
C26 O11 1_555 1_555
C27 C26 1_555 1_555
H33 C27 1_555 1_555
H34 C27 1_555 1_555
H35 C27 1_555 1_555
C35 O15 1_555 1_555
C36 C35 1_555 1_555
H40 C36 1_555 1_555
H41 C36 1_555 1_555
H42 C36 1_555 1_555
Zn8 O10 1_555 1_555
Zn9 O9 1_555 1_555
O19 Zn3 1_555 1_555
N1 C7 1_555 1_555
C1 C7 1_555 1_555
N3 O6 1_555 1_555
C3 C4 1_555 1_555
Zn4 O19 1_555 1_555
C5 C6 1_555 1_555
O5 C16 1_555 1_555
O10 Zn9 1_555 1_555
O16 Zn6 1_555 1_555
C19 C25 1_555 1_555
C21 C22 1_555 1_555
C23 C24 1_555 1_555
N7 H14 1_555 1_555
C17 O7 1_555 1_555
H24 O17 1_555 1_555
H25 O17 1_555 1_555
C18 C17 1_555 1_555
H26 C18 1_555 1_555
H27 C18 1_555 1_555
H28 C18 1_555 1_555
C28 C29 1_555 1_555
C29 H36 1_555 1_555
C34 N7 1_555 1_555
N7 O14 1_555 1_555
O8 C17 1_555 1_555
O13 C34 1_555 1_555
C28 C34 1_555 1_555
O1_2 Zn2_2 1_555 1_555
N1_2 H1_2 1_555 1_555
C1_2 C2_2 1_555 1_555
Zn2_2 O2_2 1_555 1_555
O2_2 N1_2 1_555 1_555
C2_2 H2_2 1_555 1_555
N2 H3_2 1_555 1_555
H4_2 N2 1_555 1_555
Zn8 O6_2 1_555 1_555
N3_2 H5_2 1_555 1_555
C3_2 C2_2 1_555 1_555
H6_2 C3_2 1_555 1_555
Zn9 O12_2 1_555 1_555
C4_2 N2 1_555 1_555
C5_2 C4_2 1_555 1_555
H9_2 C5_2 1_555 1_555
N5_2 H10_2 1_555 1_555
O5_2 Zn2_2 1_555 1_555
C6_2 C1_2 1_555 1_555
H11_2 C6_2 1_555 1_555
O6_2 Zn2_2 1_555 1_555
N6_2 Zn8 1_555 1_555
H12_2 N6_2 1_555 1_555
H13_2 N6_2 1_555 1_555
O7_2 Zn2_2 1_555 1_555
N7_2 H14_2 1_555 1_555
C7_2 O1_2 1_555 1_555
O8_2 Zn8 1_555 1_555
O18 C25_2 1_555 1_555
O11_2 Zn8 1_555 1_555
C11_2 H20_2 1_555 1_555
O12_2 C26_2 1_555 1_555
O13_2 Zn9 1_555 1_555
O14_2 Zn9 1_555 1_555
O15_2 Zn9 1_555 1_555
O16_2 C35_2 1_555 1_555
C16_2 N3_2 1_555 1_555
C17_2 O7_2 1_555 1_555
H24_2 O17_2 1_555 1_555
H25_2 O17_2 1_555 1_555
C18_2 C17_2 1_555 1_555
H26_2 C18_2 1_555 1_555
H27_2 C18_2 1_555 1_555
H28_2 C18_2 1_555 1_555
C19_2 C20_2 1_555 1_555
C20_2 H29_2 1_555 1_555
C21_2 C20_2 1_555 1_555
H30_2 C21_2 1_555 1_555
C22_2 N6_2 1_555 1_555
C23_2 C22_2 1_555 1_555
H31_2 C23_2 1_555 1_555
C24_2 C19_2 1_555 1_555
H32_2 C24_2 1_555 1_555
C25_2 N5_2 1_555 1_555
C26_2 O11_2 1_555 1_555
C27_2 C26_2 1_555 1_555
H33_2 C27_2 1_555 1_555
H34_2 C27_2 1_555 1_555
H35_2 C27_2 1_555 1_555
C28_2 C29_2 1_555 1_555
C29_2 H36_2 1_555 1_555
C34_2 N7_2 1_555 1_555
C35_2 O15_2 1_555 1_555
C36_2 C35_2 1_555 1_555
H40_2 C36_2 1_555 1_555
H41_2 C36_2 1_555 1_555
H42_2 C36_2 1_555 1_555
Zn5 N2 1_555 1_555
Zn6_2 O14_2 1_555 1_555
N1_2 C7_2 1_555 1_555
C1_2 C7_2 1_555 1_555
N3_2 O6_2 1_555 1_555
C3_2 C4_2 1_555 1_555
C5_2 C6_2 1_555 1_555
O5_2 C16_2 1_555 1_555
N7_2 O14_2 1_555 1_555
O8_2 C17_2 1_555 1_555
O13_2 C34_2 1_555 1_555
O16_2 Zn6_2 1_555 1_555
C19_2 C25_2 1_555 1_555
C21_2 C22_2 1_555 1_555
C23_2 C24_2 1_555 1_555
C28_2 C34_2 1_555 1_555
O3_2 Zn5 1_555 1_555
N10 H7_2 1_555 1_555
N8_2 H15_2 1_555 1_555
H16_2 N8_2 1_555 1_555
C8_2 O3_2 1_555 1_555
C9_2 C8_2 1_555 1_555
H17_2 C9_2 1_555 1_555
H18_2 C9_2 1_555 1_555
H19_2 C9_2 1_555 1_555
C13_2 N10 1_555 1_555
C14_2 C13_2 1_555 1_555
H22_2 C14_2 1_555 1_555
C15_2 C10_2 1_555 1_555
H23_2 C15_2 1_555 1_555
H37_2 C30_2 1_555 1_555
C31_2 N8_2 1_555 1_555
C32_2 C31_2 1_555 1_555
H38_2 C32_2 1_555 1_555
H39_2 C33_2 1_555 1_555
O20_2 Zn5 1_555 1_555
O4_2 C8_2 1_555 1_555
C12_2 C13_2 1_555 1_555
C14_2 C15_2 1_555 1_555
C30_2 C31_2 1_555 1_555
C32_2 C33_2 1_555 1_555
N3_3 H5_3 1_555 1_555
Zn4_2 O12_3 1_555 1_555
N4_2 H7_3 1_555 1_555
H8_3 N4_2 1_555 1_555
N6_3 Zn3_2 1_555 1_555
H13_3 N6_3 1_555 1_555
O11_3 Zn3_2 1_555 1_555
O12_3 C26_3 1_555 1_555
C13_3 N4_2 1_555 1_555
C14_3 C13_3 1_555 1_555
H22_3 C14_3 1_555 1_555
H23_3 C15_3 1_555 1_555
C19_3 C20_3 1_555 1_555
C20_3 H29_3 1_555 1_555
C21_3 C20_3 1_555 1_555
C22_3 N6_3 1_555 1_555
C26_3 O11_3 1_555 1_555
C27_3 C26_3 1_555 1_555
H33_3 C27_3 1_555 1_555
H34_3 C27_3 1_555 1_555
H35_3 C27_3 1_555 1_555
Zn8_2 N4_2 1_555 1_555
O19_2 Zn3_2 1_555 1_555
Zn4_2 O19_2 1_555 1_555
C14_3 C15_3 1_555 1_555
C21_3 C22_3 1_555 1_555
N7_3 H14_3 1_555 1_555
N8_3 H15_3 1_555 1_555
H16_3 N8_3 1_555 1_555
C28_3 C29_3 1_555 1_555
C29_3 H36_3 1_555 1_555
C30_3 C29_3 1_555 1_555
H37_3 C30_3 1_555 1_555
C31_3 N8_3 1_555 1_555
C32_3 C31_3 1_555 1_555
H38_3 C32_3 1_555 1_555
C33_3 C28_3 1_555 1_555
H39_3 C33_3 1_555 1_555
C34_3 N7_3 1_555 1_555
N7_3 O20 1_555 1_555
O13_3 C34_3 1_555 1_555
C28_3 C34_3 1_555 1_555
C30_3 C31_3 1_555 1_555
C32_3 C33_3 1_555 1_555
N5_3 H10_3 1_555 1_555
O9_2 C25_3 1_555 1_555
O10_2 N5_3 1_555 1_555
O21 C35_3 1_555 1_555
H31_3 C23_3 1_555 1_555
H32_3 C24_3 1_555 1_555
C25_3 N5_3 1_555 1_555
C35_3 O15_3 1_555 1_555
C36_3 C35_3 1_555 1_555
H40_3 C36_3 1_555 1_555
H41_3 C36_3 1_555 1_555
H42_3 C36_3 1_555 1_555
Zn8_2 O10_2 1_555 1_555
Zn9_2 O9_2 1_555 1_555
O10_2 Zn9_2 1_555 1_555
C23_3 C24_3 1_555 1_555
Zn6 O2_3 1_555 1_555
O1_3 Zn2_3 1_555 1_555
N1_3 H1_3 1_555 1_555
C1_3 C2_3 1_555 1_555
Zn2_3 O2_3 1_555 1_555
O2_3 N1_3 1_555 1_555
C2_3 H2_3 1_555 1_555
O3_3 Zn6 1_555 1_555
O4_3 Zn2_3 1_555 1_555
O5_3 Zn2_3 1_555 1_555
O6_3 Zn2_3 1_555 1_555
C7_3 O1_3 1_555 1_555
C8_3 O3_3 1_555 1_555
C10_3 C11_3 1_555 1_555
C11_3 H20_3 1_555 1_555
C12_3 C11_3 1_555 1_555
H21_3 C12_3 1_555 1_555
N9_2 Zn6 1_555 1_555
N1_3 C7_3 1_555 1_555
C1_3 C7_3 1_555 1_555
O4_3 C8_3 1_555 1_555
O5_3 C16_3 1_555 1_555
C10_3 C16_3 1_555 1_555
H18_3 C9_3 1_555 1_555
H19_3 C9_3 1_555 1_555
C17_3 O7_3 1_555 1_555
H24_3 O17_3 1_555 1_555
H25_3 O17_3 1_555 1_555
C18_3 C17_3 1_555 1_555
H26_3 C18_3 1_555 1_555
H27_3 C18_3 1_555 1_555
H28_3 C18_3 1_555 1_555
O8_3 C17_3 1_555 1_555
N9_2 H3_3 1_555 1_555
H4_3 N9_2 1_555 1_555
H6_3 C3_3 1_555 1_555
C4_3 N9_2 1_555 1_555
C5_3 C4_3 1_555 1_555
H9_3 C5_3 1_555 1_555
H11_3 C6_3 1_555 1_555
C3_3 C4_3 1_555 1_555
C5_3 C6_3 1_555 1_555
N5_4 H10_4 1_555 1_555
O18_2 C25_4 1_555 1_555
O21_2 C35_4 1_555 1_555
H31_4 C23_4 1_555 1_555
H32_4 C24_4 1_555 1_555
C25_4 N5_4 1_555 1_555
C35_4 O15_4 1_555 1_555
C36_4 C35_4 1_555 1_555
H40_4 C36_4 1_555 1_555
H41_4 C36_4 1_555 1_555
H42_4 C36_4 1_555 1_555
C23_4 C24_4 1_555 1_555
N3_4 H5_4 1_555 1_555
Zn9_2 O12_4 1_555 1_555
N10_2 H7_4 1_555 1_555
N6_4 Zn8_2 1_555 1_555
H13_4 N6_4 1_555 1_555
N7_4 H14_4 1_555 1_555
N8_4 H15_4 1_555 1_555
H16_4 N8_4 1_555 1_555
O11_4 Zn8_2 1_555 1_555
O12_4 C26_4 1_555 1_555
O13_4 Zn9_2 1_555 1_555
C13_4 N10_2 1_555 1_555
O20_2 Zn9_2 1_555 1_555
C14_4 C13_4 1_555 1_555
H22_4 C14_4 1_555 1_555
H23_4 C15_4 1_555 1_555
C19_4 C20_4 1_555 1_555
C20_4 H29_4 1_555 1_555
C21_4 C20_4 1_555 1_555
C22_4 N6_4 1_555 1_555
C26_4 O11_4 1_555 1_555
C27_4 C26_4 1_555 1_555
H33_4 C27_4 1_555 1_555
H34_4 C27_4 1_555 1_555
H35_4 C27_4 1_555 1_555
C28_4 C29_4 1_555 1_555
C29_4 H36_4 1_555 1_555
C30_4 C29_4 1_555 1_555
H37_4 C30_4 1_555 1_555
C31_4 N8_4 1_555 1_555
C32_4 C31_4 1_555 1_555
H38_4 C32_4 1_555 1_555
C33_4 C28_4 1_555 1_555
H39_4 C33_4 1_555 1_555
C34_4 N7_4 1_555 1_555
N7_4 O20_2 1_555 1_555
O13_4 C34_4 1_555 1_555
C14_4 C15_4 1_555 1_555
C21_4 C22_4 1_555 1_555
C28_4 C34_4 1_555 1_555
C30_4 C31_4 1_555 1_555
C32_4 C33_4 1_555 1_555
N2_2 H3_4 1_555 1_555
H4_4 N2_2 1_555 1_555
H6_4 C3_4 1_555 1_555
C4_4 N2_2 1_555 1_555
C5_4 C4_4 1_555 1_555
H9_4 C5_4 1_555 1_555
H11_4 C6_4 1_555 1_555
Zn6_2 N2_2 1_555 1_555
C3_4 C4_4 1_555 1_555
C5_4 C6_4 1_555 1_555
Zn6_2 O2_4 1_555 1_555
O1_4 Zn2_4 1_555 1_555
N1_4 H1_4 1_555 1_555
C1_4 C2_4 1_555 1_555
Zn2_4 O2_4 1_555 1_555
O2_4 N1_4 1_555 1_555
C2_4 H2_4 1_555 1_555
O3_4 Zn6_2 1_555 1_555
O4_4 Zn2_4 1_555 1_555
O5_4 Zn2_4 1_555 1_555
O6_4 Zn2_4 1_555 1_555
O7_4 Zn2_4 1_555 1_555
C7_4 O1_4 1_555 1_555
C8_4 O3_4 1_555 1_555
C9_4 C8_4 1_555 1_555
H17_4 C9_4 1_555 1_555
H18_4 C9_4 1_555 1_555
H19_4 C9_4 1_555 1_555
C10_4 C11_4 1_555 1_555
C11_4 H20_4 1_555 1_555
C12_4 C11_4 1_555 1_555
H21_4 C12_4 1_555 1_555
C17_4 O7_4 1_555 1_555
O17_4 Zn6_2 1_555 1_555
H24_4 O17_4 1_555 1_555
H25_4 O17_4 1_555 1_555
C18_4 C17_4 1_555 1_555
H26_4 C18_4 1_555 1_555
H27_4 C18_4 1_555 1_555
H28_4 C18_4 1_555 1_555
N1_4 C7_4 1_555 1_555
C1_4 C7_4 1_555 1_555
O4_4 C8_4 1_555 1_555
O5_4 C16_4 1_555 1_555
O8_4 C17_4 1_555 1_555
C10_4 C16_4 1_555 1_555

#END
