
###############################################################################
#
# This file contains modified crystal structure data generated from the
# MOF subset of the Cambridge Structural Database (CSD) v543 
# hosted by the Cambridge Crystallographic Data Centre (CCDC).
#
# This work is licensed under the Creative Commons
# Attribution-NonCommercial-ShareAlike 4.0 International License.
# To view a copy of this license, visit
# http://creativecommons.org/licenses/by-nc-sa/4.0/
# or send a letter to
# Creative Commons, PO Box 1866, Mountain View, CA 94042, USA.
#
# CIF created using the CSD Python API on 29 September 2022
# The structure has been converted into the P1 space group
# The structure has a 3D framework
# The original CSD entry CAJLEH is in the triclinic crystal system
# The framework has been calculated to contain at least 10.0% void space
# The void calculation uses a probe of radius 1.32A, grid spacing 0.4
# H atom positions have been added when not included in the experimental data
#
###############################################################################

data_CAJLEH
_chemical_formula_moiety         '(C66 H60 Cd6 N16 O36)n'
_symmetry_cell_setting           triclinic
_symmetry_space_group_name_H-M   'P 1'
_symmetry_Int_Tables_number      1
_space_group_name_Hall           'P 1'
loop_
_symmetry_equiv_pos_site_id
_symmetry_equiv_pos_as_xyz
1 x,y,z
_cell_length_a                   9.0356(5)
_cell_length_b                   16.6644(6)
_cell_length_c                   17.2419(6)
_cell_angle_alpha                117.194(4)
_cell_angle_beta                 98.948(4)
_cell_angle_gamma                93.947(3)
_cell_volume                     2251.98
loop_
_atom_site_label
_atom_site_type_symbol
_atom_site_fract_x
_atom_site_fract_y
_atom_site_fract_z
Cd2 Cd 0.30956(5) 0.67030(3) 0.68215(2)
C27 C 0.1839(7) 0.4962(4) 0.6495(3)
C28 C 0.0127(6) 0.2492(3) 0.5607(3)
C30 C 0.0161(6) 0.3301(3) 0.7183(3)
C31 C 0.0818(6) 0.4098(3) 0.7225(3)
H17 H 0.1033 0.4637 0.7765
C32 C 0.1163(6) 0.4101(3) 0.6463(3)
C33 C 0.0800(6) 0.3294(3) 0.5662(3)
H18 H 0.1013 0.3291 0.5150
O11 O 0.2001(5) 0.5706(2) 0.7204(2)
O12 O 0.2238(6) 0.4924(3) 0.5822(2)
O16 O 0.0747(5) 0.4168(3) 0.0718(2)
H23 H 0.0481 0.4692 0.0930
H24 H 0.0866 0.3934 0.1083
O17 O 0.5419(5) 0.6162(3) 0.6963(3)
O18 O 0.0787(6) 0.7234(4) 0.6749(3)
N10 N 0.3171(6) 0.6569(3) 0.5422(3)
O19 O 0.4565(5) 0.8168(3) 0.7439(2)
O20 O 0.4099(5) 0.7714(3) 0.8391(2)
H25 H 0.528454 0.549841 0.654039
H26 H 0.620294 0.649584 0.682547
H27 H 0.0505775 0.747684 0.734052
H28 H 0.0881573 0.772758 0.657994
Cd1 Cd 0.86865(5) 0.01431(3) 0.30462(2)
C24 C 0.7996(7) 0.0510(4) 0.0291(3)
H15 H 0.8706 0.0993 0.0741
C25 C 0.9718(6) 0.1624(4) 0.4732(3)
C26 C 0.9817(6) 0.3289(4) 0.8009(3)
C29 C 0.9823(6) 0.2502(3) 0.6374(3)
H16 H 0.9384 0.1966 0.6346
O2 O 0.8783(5) 0.0536(3) 0.1944(2)
O7 O 0.9911(5) 0.1657(2) 0.4033(2)
O8 O 0.9206(4) 0.0906(2) 0.4713(2)
O9 O 0.9523(5) 0.2516(2) 0.7969(2)
O10 O 0.9821(5) 0.4012(2) 0.8693(2)
O14 O 0.6448(5) 0.0718(3) 0.3192(3)
H21 H 0.5731 0.0556 0.3381
H22 H 0.6182 0.0880 0.2797
Cd7 Cd 0.94560(5) 0.28648(3) 0.93772(2)
C18 C 0.8167(7) 0.1267(4) 0.9349(4)
C23 C 0.7532(7) 0.0501(4) 0.9485(3)
O3 O 0.9041(5) 0.1939(3) 0.9998(2)
O4 O 0.7790(5) 0.1256(3) 0.8605(2)
N9 N 0.7348(6) 0.3527(3) 0.9848(3)
C1 C 0.6067(7) 0.8521(4) 0.2725(3)
H1 H 0.5616 0.8457 0.2172
C2 C 0.7537(7) 0.8892(4) 0.3934(3)
H2 H 0.8372 0.9171 0.4407
C3 C 0.4076(6) 0.7506(4) 0.2855(3)
H3 H 0.3428 0.7531 0.2365
H4 H 0.3550 0.7686 0.3344
C4 C 0.5099(6) 0.5352(4) 0.1761(3)
C5 C 0.5792(6) 0.4701(4) 0.1064(3)
C6 C 0.5749(7) 0.3810(4) 0.0895(3)
H5 H 0.5196 0.3589 0.1189
C7 C 0.6524(7) 0.3248(4) 0.0291(4)
H6 H 0.6478 0.2645 0.0182
C9 C 0.6588(6) 0.4992(4) 0.0595(3)
H8 H 0.6622 0.5587 0.0682
C10 C 0.4241(6) 0.6015(4) 0.2932(3)
C11 C 0.3772(6) 0.6247(4) 0.3787(3)
C12 C 0.4533(8) 0.7005(4) 0.4561(3)
H9 H 0.5252 0.7422 0.4546
C13 C 0.4199(8) 0.7127(4) 0.5353(3)
H10 H 0.4727 0.7632 0.5875
C14 C 0.2408(7) 0.5852(4) 0.4666(3)
H11 H 0.1664 0.5459 0.4694
C15 C 0.2690(7) 0.5677(4) 0.3843(3)
H12 H 0.2141 0.5171 0.3329
C16 C 0.7940(7) 0.9831(4) 0.1322(3)
C19 C 0.7424(7) 0.9816(4) 0.0441(3)
N1 N 0.7392(6) 0.9027(3) 0.3208(3)
N2 N 0.6425(6) 0.8345(3) 0.3918(3)
N3 N 0.5481(5) 0.8123(3) 0.3135(3)
N4 N 0.4386(5) 0.6585(3) 0.2574(3)
N5 N 0.4951(5) 0.6160(3) 0.1823(3)
N6 N 0.4652(5) 0.5227(3) 0.2424(3)
O1 O 0.7496(5) 0.9174(3) 0.1428(2)
C8 C 0.7334(6) 0.4386(4) 0.9997(3)
H7 H 0.7858 0.4586 0.9678
C17 C 0.4752(7) 0.8277(4) 0.8229(3)
C20 C 0.6335(7) 0.9094(4) 0.9768(3)
H13 H 0.5934 0.8626 0.9864
C21 C 0.5859(6) 0.9083(4) 0.8952(3)
C22 C 0.6457(7) 0.9781(4) 0.8816(3)
H14 H 0.6139 0.9770 0.8271
O15 O 0.1959(5) 0.2587(3) 0.9522(3)
H29 H 0.1972 0.19213 0.917508
H30 H 0.255957 0.291967 0.92918
O13 O 0.0781(5) 0.9400(3) 0.2898(2)
H19 H 0.1282 0.9609 0.2633
H20 H 0.0574 0.8823 0.2660
C8_2 C 0.2666(6) 0.5614(4) 0.0003(3)
H7_2 H 0.2142 0.5414 0.0322
C17_2 C 0.5248(7) 0.1723(4) 0.1771(3)
C20_2 C 0.3665(7) 0.0906(4) 0.0232(3)
H13_2 H 0.4066 0.1374 0.0136
C21_2 C 0.4141(6) 0.0917(4) 0.1048(3)
C22_2 C 0.3543(7) 0.0219(4) 0.1184(3)
H14_2 H 0.3861 0.0230 0.1729
N7 N 0.2652(6) 0.6473(3) 0.0152(3)
O5 O 0.5435(5) 0.1832(3) 0.2561(2)
O6 O 0.5901(5) 0.2286(3) 0.1609(2)
Cd4 Cd 0.69044(5) 0.32970(3) 0.31785(2)
Cd6 Cd 0.05440(5) 0.71352(3) 0.06228(2)
C1_2 C 0.3933(7) 0.1479(4) 0.7275(3)
H1_2 H 0.4384 0.1543 0.7828
C2_2 C 0.2463(7) 0.1108(4) 0.6066(3)
H2_2 H 0.1628 0.0829 0.5593
C3_2 C 0.5924(6) 0.2494(4) 0.7145(3)
H3_2 H 0.6572 0.2469 0.7635
H4_2 H 0.6450 0.2314 0.6656
C4_2 C 0.4901(6) 0.4648(4) 0.8239(3)
C5_2 C 0.4208(6) 0.5299(4) 0.8936(3)
C6_2 C 0.4251(7) 0.6190(4) 0.9105(3)
H5_2 H 0.4804 0.6411 0.8811
C7_2 C 0.3476(7) 0.6752(4) 0.9709(4)
H6_2 H 0.3522 0.7355 0.9818
C9_2 C 0.3412(6) 0.5008(4) 0.9405(3)
H8_2 H 0.3378 0.4413 0.9318
C10_2 C 0.5759(6) 0.3985(4) 0.7068(3)
C11_2 C 0.6228(6) 0.3753(4) 0.6213(3)
C12_2 C 0.5467(8) 0.2995(4) 0.5439(3)
H9_2 H 0.4748 0.2578 0.5454
C13_2 C 0.5801(8) 0.2873(4) 0.4647(3)
H10_2 H 0.5273 0.2368 0.4125
C14_2 C 0.7592(7) 0.4148(4) 0.5334(3)
H11_2 H 0.8336 0.4541 0.5306
C15_2 C 0.7310(7) 0.4323(4) 0.6157(3)
H12_2 H 0.7859 0.4829 0.6671
C16_2 C 0.2060(7) 0.0169(4) 0.8678(3)
C19_2 C 0.2576(7) 0.0184(4) 0.9559(3)
N1_2 N 0.2608(6) 0.0973(3) 0.6792(3)
N2_2 N 0.3575(6) 0.1655(3) 0.6082(3)
N3_2 N 0.4519(5) 0.1877(3) 0.6865(3)
N4_2 N 0.5614(5) 0.3415(3) 0.7426(3)
N5_2 N 0.5049(5) 0.3840(3) 0.8177(3)
N6_2 N 0.5348(5) 0.4773(3) 0.7576(3)
N8 N 0.6829(6) 0.3431(3) 0.4578(3)
O1_2 O 0.2504(5) 0.0826(3) 0.8572(2)
C18_2 C 0.1833(7) 0.8733(4) 0.0651(4)
C23_2 C 0.2468(7) 0.9499(4) 0.0515(3)
O3_2 O 0.0959(5) 0.8061(3) 0.0002(2)
O4_2 O 0.2210(5) 0.8744(3) 0.1395(2)
O21 O 0.0477(5) 0.7484(2) 0.2031(2)
O22 O 0.0179(5) 0.5988(2) 0.1307(2)
Cd1_2 Cd 0.13135(5) 0.98569(3) 0.69538(2)
C24_2 C 0.2004(7) 0.9490(4) 0.9709(3)
H15_2 H 0.1294 0.9007 0.9259
C25_2 C 0.0282(6) 0.8376(4) 0.5268(3)
C26_2 C 0.0183(6) 0.6711(4) 0.1991(3)
C29_2 C 0.0177(6) 0.7498(3) 0.3626(3)
H16_2 H 0.0616 0.8034 0.3654
O2_2 O 0.1217(5) 0.9464(3) 0.8056(2)
O7_2 O 0.0089(5) 0.8343(2) 0.5967(2)
O8_2 O 0.0794(4) 0.9094(2) 0.5287(2)
O14_2 O 0.3552(5) 0.9282(3) 0.6808(3)
H21_2 H 0.4269 0.9444 0.6619
H22_2 H 0.3818 0.9120 0.7203
C27_2 C 0.8161(7) 0.5038(4) 0.3505(3)
C28_2 C 0.9873(6) 0.7508(3) 0.4393(3)
C30_2 C 0.9839(6) 0.6699(3) 0.2817(3)
C31_2 C 0.9182(6) 0.5902(3) 0.2775(3)
H17_2 H 0.8967 0.5363 0.2235
C32_2 C 0.8837(6) 0.5899(3) 0.3537(3)
C33_2 C 0.9200(6) 0.6706(3) 0.4338(3)
H18_2 H 0.8987 0.6709 0.4850
O11_2 O 0.7999(5) 0.4294(2) 0.2796(2)
O12_2 O 0.7762(6) 0.5076(3) 0.4178(2)
O16_2 O 0.9253(5) 0.5832(3) 0.9282(2)
H23_2 H 0.9519 0.5308 0.9070
H24_2 H 0.9134 0.6066 0.8917
O17_2 O 0.4581(5) 0.3838(3) 0.3037(3)
O18_2 O 0.9213(6) 0.2766(4) 0.3251(3)
H25_2 H 0.471546 0.450159 0.345961
H26_2 H 0.379706 0.350416 0.317453
H27_2 H 0.949422 0.252316 0.265948
H28_2 H 0.911843 0.227242 0.342006
O13_2 O 0.9219(5) 0.0600(3) 0.7102(2)
H19_2 H 0.8718 0.0391 0.7367
H20_2 H 0.9426 0.1177 0.7340
O15_2 O 0.8041(5) 0.7413(3) 0.0478(3)
H29_2 H 0.8028 0.80787 0.0824922
H30_2 H 0.744043 0.708033 0.0708202
loop_
_geom_bond_atom_site_label_1
_geom_bond_atom_site_label_2
_geom_bond_site_symmetry_1
_geom_bond_site_symmetry_2
Cd2 O11 1_555 1_555
C27 C32 1_555 1_555
C31 C30 1_555 1_555
H17 C31 1_555 1_555
C32 C31 1_555 1_555
C33 C28 1_555 1_555
H18 C33 1_555 1_555
O11 C27 1_555 1_555
O12 Cd2 1_555 1_555
H23 O16 1_555 1_555
H24 O16 1_555 1_555
O17 Cd2 1_555 1_555
O18 Cd2 1_555 1_555
N10 Cd2 1_555 1_555
O19 Cd2 1_555 1_555
O20 Cd2 1_555 1_555
C27 O12 1_555 1_555
C32 C33 1_555 1_555
O17 H25 1_555 1_555
O17 H26 1_555 1_555
O18 H27 1_555 1_555
O18 H28 1_555 1_555
H15 C24 1_555 1_555
C29 H16 1_555 1_555
O2 Cd1 1_555 1_555
O7 Cd1 1_555 1_555
O8 Cd1 1_555 1_555
O9 C26 1_555 1_555
O10 C26 1_555 1_555
O14 Cd1 1_555 1_555
H21 O14 1_555 1_555
H22 O14 1_555 1_555
Cd7 O9 1_555 1_555
C25 O7 1_555 1_555
C25 O8 1_555 1_555
O10 Cd7 1_555 1_555
Cd7 O3 1_555 1_555
C18 C23 1_555 1_555
O3 C18 1_555 1_555
O4 Cd7 1_555 1_555
N9 Cd7 1_555 1_555
C18 O4 1_555 1_555
C1 H1 1_555 1_555
C2 H2 1_555 1_555
C3 H3 1_555 1_555
H4 C3 1_555 1_555
C4 C5 1_555 1_555
C5 C6 1_555 1_555
C6 H5 1_555 1_555
C7 C6 1_555 1_555
H6 C7 1_555 1_555
C9 C5 1_555 1_555
H8 C9 1_555 1_555
C10 C11 1_555 1_555
C11 C12 1_555 1_555
C12 H9 1_555 1_555
C13 C12 1_555 1_555
H10 C13 1_555 1_555
C14 H11 1_555 1_555
C15 C11 1_555 1_555
H12 C15 1_555 1_555
C16 C19 1_555 1_555
N1 C1 1_555 1_555
N2 C2 1_555 1_555
N3 C1 1_555 1_555
N4 C3 1_555 1_555
N5 C4 1_555 1_555
N6 C4 1_555 1_555
N10 C13 1_555 1_555
C2 N1 1_555 1_555
C3 N3 1_555 1_555
C10 N4 1_555 1_555
C10 N6 1_555 1_555
C14 C15 1_555 1_555
C14 N10 1_555 1_555
C16 O1 1_555 1_555
N2 N3 1_555 1_555
N4 N5 1_555 1_555
C8 H7 1_555 1_555
C17 C21 1_555 1_555
C20 H13 1_555 1_555
C21 C20 1_555 1_555
C22 C21 1_555 1_555
H14 C22 1_555 1_555
O19 C17 1_555 1_555
O20 C17 1_555 1_555
C8 N9 1_555 1_555
O15 H29 1_555 1_555
O15 H30 1_555 1_555
H19 O13 1_555 1_555
H20 O13 1_555 1_555
C8_2 H7_2 1_555 1_555
C17_2 C21_2 1_555 1_555
C20_2 H13_2 1_555 1_555
C21_2 C20_2 1_555 1_555
C22_2 C21_2 1_555 1_555
H14_2 C22_2 1_555 1_555
O5 C17_2 1_555 1_555
O6 C17_2 1_555 1_555
Cd4 O5 1_555 1_555
Cd6 N7 1_555 1_555
C8_2 N7 1_555 1_555
O6 Cd4 1_555 1_555
C1_2 H1_2 1_555 1_555
C2_2 H2_2 1_555 1_555
C3_2 H3_2 1_555 1_555
H4_2 C3_2 1_555 1_555
C4_2 C5_2 1_555 1_555
C5_2 C6_2 1_555 1_555
C6_2 H5_2 1_555 1_555
C7_2 C6_2 1_555 1_555
H6_2 C7_2 1_555 1_555
C9_2 C5_2 1_555 1_555
H8_2 C9_2 1_555 1_555
C10_2 C11_2 1_555 1_555
C11_2 C12_2 1_555 1_555
C12_2 H9_2 1_555 1_555
C13_2 C12_2 1_555 1_555
H10_2 C13_2 1_555 1_555
C14_2 H11_2 1_555 1_555
C15_2 C11_2 1_555 1_555
H12_2 C15_2 1_555 1_555
C16_2 C19_2 1_555 1_555
N1_2 C1_2 1_555 1_555
N2_2 C2_2 1_555 1_555
N3_2 C1_2 1_555 1_555
N4_2 C3_2 1_555 1_555
N5_2 C4_2 1_555 1_555
N6_2 C4_2 1_555 1_555
N8 C13_2 1_555 1_555
Cd4 N8 1_555 1_555
C2_2 N1_2 1_555 1_555
C3_2 N3_2 1_555 1_555
C10_2 N4_2 1_555 1_555
C10_2 N6_2 1_555 1_555
C14_2 C15_2 1_555 1_555
C14_2 N8 1_555 1_555
C16_2 O1_2 1_555 1_555
N2_2 N3_2 1_555 1_555
N4_2 N5_2 1_555 1_555
Cd6 O3_2 1_555 1_555
C18_2 C23_2 1_555 1_555
O3_2 C18_2 1_555 1_555
O4_2 Cd6 1_555 1_555
O21 Cd6 1_555 1_555
O22 Cd6 1_555 1_555
C18_2 O4_2 1_555 1_555
H15_2 C24_2 1_555 1_555
C29_2 H16_2 1_555 1_555
O2_2 Cd1_2 1_555 1_555
O7_2 Cd1_2 1_555 1_555
O8_2 Cd1_2 1_555 1_555
O21 C26_2 1_555 1_555
O22 C26_2 1_555 1_555
O14_2 Cd1_2 1_555 1_555
H21_2 O14_2 1_555 1_555
H22_2 O14_2 1_555 1_555
C25_2 O7_2 1_555 1_555
C25_2 O8_2 1_555 1_555
Cd4 O11_2 1_555 1_555
C27_2 C32_2 1_555 1_555
C31_2 C30_2 1_555 1_555
H17_2 C31_2 1_555 1_555
C32_2 C31_2 1_555 1_555
C33_2 C28_2 1_555 1_555
H18_2 C33_2 1_555 1_555
O11_2 C27_2 1_555 1_555
O12_2 Cd4 1_555 1_555
H23_2 O16_2 1_555 1_555
H24_2 O16_2 1_555 1_555
O17_2 Cd4 1_555 1_555
O18_2 Cd4 1_555 1_555
C27_2 O12_2 1_555 1_555
C32_2 C33_2 1_555 1_555
O17_2 H25_2 1_555 1_555
O17_2 H26_2 1_555 1_555
O18_2 H27_2 1_555 1_555
O18_2 H28_2 1_555 1_555
H19_2 O13_2 1_555 1_555
H20_2 O13_2 1_555 1_555
O15_2 H29_2 1_555 1_555
O15_2 H30_2 1_555 1_555

#END
