
###############################################################################
#
# This file contains modified crystal structure data generated from the
# MOF subset of the Cambridge Structural Database (CSD) v543 
# hosted by the Cambridge Crystallographic Data Centre (CCDC).
#
# This work is licensed under the Creative Commons
# Attribution-NonCommercial-ShareAlike 4.0 International License.
# To view a copy of this license, visit
# http://creativecommons.org/licenses/by-nc-sa/4.0/
# or send a letter to
# Creative Commons, PO Box 1866, Mountain View, CA 94042, USA.
#
# CIF created using the CSD Python API on 29 September 2022
# The structure has been converted into the P1 space group
# The structure has a 3D framework
# The original CSD entry CAJQEL is in the orthorhombic crystal system
# The framework has been calculated to contain at least 10.0% void space
# The void calculation uses a probe of radius 1.32A, grid spacing 0.4
# H atom positions have been added when not included in the experimental data
# Generated hydrogen atom positions removed from atoms on special positions
#
###############################################################################

data_CAJQEL
_chemical_formula_moiety         '(C344 H312 Cu48 O208)n'
_symmetry_cell_setting           triclinic
_symmetry_space_group_name_H-M   'P 1'
_symmetry_Int_Tables_number      1
_space_group_name_Hall           'P 1'
loop_
_symmetry_equiv_pos_site_id
_symmetry_equiv_pos_as_xyz
1 x,y,z
_cell_length_a                   25.042(4)
_cell_length_b                   26.826(4)
_cell_length_c                   30.848(5)
_cell_angle_alpha                90
_cell_angle_beta                 90
_cell_angle_gamma                90
_cell_volume                     20723
loop_
_atom_site_label
_atom_site_type_symbol
_atom_site_fract_x
_atom_site_fract_y
_atom_site_fract_z
Cu3 Cu 0.0000 0.71587(4) 0.28111(3)
Cu5 Cu -0.0000 0.78413(4) 0.21889(3)
Cu6 Cu 0.0000 0.71587(4) 0.71889(3)
Cu7 Cu -0.0000 0.78413(4) 0.78111(3)
O18 O 0.05430(15) 0.75726(16) 0.30709(13)
O26 O 0.0000 0.6590(3) 0.3307(2)
O33 O 0.05480(14) 0.68501(15) 0.24538(12)
H30 H 0.0265102 0.632863 0.323187
Cu10 Cu 0.78865(4) 0.0000 0.22028(3)
Cu12 Cu 0.71135(4) -0.0000 0.27972(3)
Cu13 Cu 0.78865(4) -0.0000 0.77972(3)
Cu14 Cu 0.71135(4) -0.0000 0.72028(3)
O8 O 0.8518(2) -0.0000 0.1724(2)
O13 O 0.81875(16) 0.05029(15) 0.25686(13)
O25 O 0.74654(18) 0.05002(17) 0.19224(14)
H28 H 0.843482 0.0247684 0.149451
Cu1 Cu 0.5000 0.78413(4) 0.28111(3)
Cu2 Cu 0.71135(4) 0.5000 0.22028(3)
C1 C 0.7061(2) 0.5672(2) 0.2902(2)
C2 C 0.6797(2) 0.6115(2) 0.31098(18)
O1 O 0.6482(2) 0.5000 0.1724(2)
C3 C 0.7020(3) 0.6321(2) 0.35070(19)
H1 H 0.7311 0.6161 0.3648
O2 O 0.68125(16) 0.55029(15) 0.25686(13)
C4 C 0.6806(3) 0.6743(3) 0.36724(17)
O3 O 0.55430(15) 0.74274(16) 0.30709(13)
C5 C 0.6403(2) 0.6964(2) 0.34881(18)
H2 H 0.6264 0.7259 0.3615
O4 O 0.74654(18) 0.55002(17) 0.30776(14)
C6 C 0.6166(2) 0.6778(2) 0.31048(18)
O5 O 0.5000 0.8410(3) 0.3307(2)
C7 C 0.6371(2) 0.6358(2) 0.29195(19)
H3 H 0.6220 0.6232 0.2659
O6 O 0.55480(14) 0.68501(15) 0.25462(12)
O7 O 0.70545(19) 0.68997(19) 0.40504(14)
C8 C 0.6914(3) 0.7362(3) 0.4203(2)
H4 H 0.6527 0.7377 0.4266
H5 H 0.7004 0.7624 0.3990
C9 C 0.7232(2) 0.7427(2) 0.46098(17)
C10 C 0.6977(3) 0.7355(4) 0.5000
H6 H 0.6614 0.7252 0.5000
C11 C 0.5715(2) 0.7049(2) 0.28920(19)
Cu3_2 Cu 1.0000 0.71587(4) 0.28111(3)
Cu4 Cu 0.5000 0.71587(4) 0.21889(3)
Cu5_2 Cu 1.0000 0.78413(4) 0.21889(3)
Cu6_2 Cu 1.0000 0.71587(4) 0.71889(3)
Cu7_2 Cu 1.0000 0.78413(4) 0.78111(3)
Cu8 Cu 0.5000 0.78413(4) 0.71889(3)
Cu9 Cu 0.5000 0.71587(4) 0.78111(3)
Cu10_2 Cu 0.78865(4) 1.0000 0.22028(3)
Cu11 Cu 0.78865(4) 0.5000 0.27972(3)
Cu12_2 Cu 0.71135(4) 1.0000 0.27972(3)
Cu13_2 Cu 0.78865(4) 1.0000 0.77972(3)
Cu14_2 Cu 0.71135(4) 1.0000 0.72028(3)
Cu15 Cu 0.71135(4) 0.5000 0.77972(3)
Cu16 Cu 0.78865(4) 0.5000 0.72028(3)
C12 C 0.7939(2) 0.9328(2) 0.2902(2)
C13 C 0.7939(2) 0.9328(2) 0.7098(2)
C14 C 0.7061(2) 0.5672(2) 0.7098(2)
C15 C 0.8203(2) 0.8885(2) 0.31098(18)
C16 C 0.8203(2) 0.8885(2) 0.68902(18)
C17 C 0.6797(2) 0.6115(2) 0.68902(18)
O8_2 O 0.8518(2) 1.0000 0.1724(2)
C18 C 0.7980(3) 0.8679(2) 0.35070(19)
C19 C 0.7980(3) 0.8679(2) 0.64930(19)
C20 C 0.7020(3) 0.6321(2) 0.64930(19)
H7 H 0.7689 0.8839 0.3648
H8 H 0.7689 0.8839 0.6352
H9 H 0.7311 0.6161 0.6352
O9 O 0.81875(16) 0.94971(15) 0.25686(13)
O10 O 0.81875(16) 0.94971(15) 0.74314(13)
O11 O 0.68125(16) 0.55029(15) 0.74314(13)
O12 O 0.68125(16) 0.44971(15) 0.25686(13)
C21 C 0.8194(3) 0.8257(3) 0.36724(17)
C22 C 0.8194(3) 0.8257(3) 0.63276(17)
C23 C 0.6806(3) 0.6743(3) 0.63276(17)
O14 O 0.94570(15) 0.75726(16) 0.30709(13)
O15 O 0.94570(15) 0.75726(16) 0.69291(13)
O16 O 0.55430(15) 0.74274(16) 0.69291(13)
O17 O 0.44570(15) 0.74274(16) 0.30709(13)
C24 C 0.8597(2) 0.8036(2) 0.34881(18)
C25 C 0.8597(2) 0.8036(2) 0.65119(18)
C26 C 0.6403(2) 0.6964(2) 0.65119(18)
H10 H 0.8736 0.7741 0.3615
H11 H 0.8736 0.7741 0.6385
H12 H 0.6264 0.7259 0.6385
O19 O 0.75346(18) 0.94998(17) 0.30776(14)
O20 O 0.75346(18) 0.94998(17) 0.69224(14)
O21 O 0.74654(18) 0.55002(17) 0.69224(14)
O22 O 0.75346(18) 0.55002(17) 0.19224(14)
O23 O 0.75346(18) 0.44998(17) 0.19224(14)
O24 O 0.74654(18) 0.94998(17) 0.19224(14)
C27 C 0.8834(2) 0.8222(2) 0.31048(18)
C28 C 0.8834(2) 0.8222(2) 0.68952(18)
C29 C 0.6166(2) 0.6778(2) 0.68952(18)
O26_2 O 1.0000 0.6590(3) 0.3307(2)
C30 C 0.8629(2) 0.8642(2) 0.29195(19)
C31 C 0.8629(2) 0.8642(2) 0.70805(19)
C32 C 0.6371(2) 0.6358(2) 0.70805(19)
H13 H 0.8780 0.8768 0.2659
H14 H 0.8780 0.8768 0.7341
H15 H 0.6220 0.6232 0.7341
O27 O 0.94520(14) 0.81499(15) 0.25462(12)
O28 O 0.94520(14) 0.81499(15) 0.74538(12)
O29 O 0.55480(14) 0.68501(15) 0.74538(12)
O30 O 0.55480(14) 0.81499(15) 0.24538(12)
O31 O 0.44520(14) 0.81499(15) 0.24538(12)
O32 O 0.94520(14) 0.68501(15) 0.24538(12)
O34 O 0.79455(19) 0.81003(19) 0.40504(14)
O35 O 0.79455(19) 0.81003(19) 0.59496(14)
O36 O 0.70545(19) 0.68997(19) 0.59496(14)
C33 C 0.8086(3) 0.7638(3) 0.4203(2)
C34 C 0.8086(3) 0.7638(3) 0.5797(2)
C35 C 0.6914(3) 0.7362(3) 0.5797(2)
H16 H 0.8473 0.7623 0.4266
H17 H 0.8473 0.7623 0.5734
H18 H 0.6527 0.7377 0.5734
H19 H 0.7996 0.7376 0.3990
H20 H 0.7996 0.7376 0.6010
H21 H 0.7004 0.7624 0.6010
C36 C 0.7768(2) 0.7573(2) 0.46098(17)
C37 C 0.7768(2) 0.7573(2) 0.53902(17)
C38 C 0.7232(2) 0.7427(2) 0.53902(17)
C39 C 0.8023(3) 0.7645(4) 0.5000
H22 H 0.8386 0.7748 0.5000
C40 C 0.9285(2) 0.7951(2) 0.28920(19)
C41 C 0.9285(2) 0.7951(2) 0.71080(19)
C42 C 0.5715(2) 0.7049(2) 0.71080(19)
H27 H 0.854764 0.966323 0.159257
H29 H 0.963916 0.643824 0.332692
Cu1_2 Cu 0.5000 0.21587(4) 0.28111(3)
Cu2_2 Cu 0.28865(4) 0.5000 0.22028(3)
C1_2 C 0.2939(2) 0.4328(2) 0.2902(2)
C2_2 C 0.3203(2) 0.3885(2) 0.31098(18)
O1_2 O 0.3518(2) 0.5000 0.1724(2)
C3_2 C 0.2980(3) 0.3679(2) 0.35070(19)
H1_2 H 0.2689 0.3839 0.3648
O2_2 O 0.31875(16) 0.44971(15) 0.25686(13)
C4_2 C 0.3194(3) 0.3257(3) 0.36724(17)
O3_2 O 0.44570(15) 0.25726(16) 0.30709(13)
C5_2 C 0.3597(2) 0.3036(2) 0.34881(18)
H2_2 H 0.3736 0.2741 0.3615
O4_2 O 0.25346(18) 0.44998(17) 0.30776(14)
C6_2 C 0.3834(2) 0.3222(2) 0.31048(18)
O5_2 O 0.5000 0.1590(3) 0.3307(2)
C7_2 C 0.3629(2) 0.3642(2) 0.29195(19)
H3_2 H 0.3780 0.3768 0.2659
O6_2 O 0.44520(14) 0.31499(15) 0.25462(12)
O7_2 O 0.29455(19) 0.31003(19) 0.40504(14)
C8_2 C 0.3086(3) 0.2638(3) 0.4203(2)
H4_2 H 0.3473 0.2623 0.4266
H5_2 H 0.2996 0.2376 0.3990
C9_2 C 0.2768(2) 0.2573(2) 0.46098(17)
C10_2 C 0.3023(3) 0.2645(4) 0.5000
H6_2 H 0.3386 0.2748 0.5000
C11_2 C 0.4285(2) 0.2951(2) 0.28920(19)
Cu3_3 Cu 0.0000 0.28413(4) 0.28111(3)
Cu4_2 Cu 0.5000 0.28413(4) 0.21889(3)
Cu5_3 Cu 0.0000 0.21587(4) 0.21889(3)
Cu6_3 Cu -0.0000 0.28413(4) 0.71889(3)
Cu7_3 Cu 0.0000 0.21587(4) 0.78111(3)
Cu8_2 Cu 0.5000 0.21587(4) 0.71889(3)
Cu9_2 Cu 0.5000 0.28413(4) 0.78111(3)
Cu10_3 Cu 0.21135(4) 0.0000 0.22028(3)
Cu11_2 Cu 0.21135(4) 0.5000 0.27972(3)
Cu12_3 Cu 0.28865(4) -0.0000 0.27972(3)
Cu13_3 Cu 0.21135(4) -0.0000 0.77972(3)
Cu14_3 Cu 0.28865(4) -0.0000 0.72028(3)
Cu15_2 Cu 0.28865(4) 0.5000 0.77972(3)
Cu16_2 Cu 0.21135(4) 0.5000 0.72028(3)
C12_2 C 0.2061(2) 0.0672(2) 0.2902(2)
C13_2 C 0.2061(2) 0.0672(2) 0.7098(2)
C14_2 C 0.2939(2) 0.4328(2) 0.7098(2)
C15_2 C 0.1797(2) 0.1115(2) 0.31098(18)
C16_2 C 0.1797(2) 0.1115(2) 0.68902(18)
C17_2 C 0.3203(2) 0.3885(2) 0.68902(18)
O8_3 O 0.1482(2) -0.0000 0.1724(2)
C18_2 C 0.2020(3) 0.1321(2) 0.35070(19)
C19_2 C 0.2020(3) 0.1321(2) 0.64930(19)
C20_2 C 0.2980(3) 0.3679(2) 0.64930(19)
H7_2 H 0.2311 0.1161 0.3648
H8_2 H 0.2311 0.1161 0.6352
H9_2 H 0.2689 0.3839 0.6352
O9_2 O 0.18125(16) 0.05029(15) 0.25686(13)
O10_2 O 0.18125(16) 0.05029(15) 0.74314(13)
O11_2 O 0.31875(16) 0.44971(15) 0.74314(13)
O12_2 O 0.31875(16) 0.55029(15) 0.25686(13)
C21_2 C 0.1806(3) 0.1743(3) 0.36724(17)
C22_2 C 0.1806(3) 0.1743(3) 0.63276(17)
C23_2 C 0.3194(3) 0.3257(3) 0.63276(17)
O14_2 O 0.05430(15) 0.24274(16) 0.30709(13)
O15_2 O 0.05430(15) 0.24274(16) 0.69291(13)
O16_2 O 0.44570(15) 0.25726(16) 0.69291(13)
O17_2 O 0.55430(15) 0.25726(16) 0.30709(13)
C24_2 C 0.1403(2) 0.1964(2) 0.34881(18)
C25_2 C 0.1403(2) 0.1964(2) 0.65119(18)
C26_2 C 0.3597(2) 0.3036(2) 0.65119(18)
H10_2 H 0.1264 0.2259 0.3615
H11_2 H 0.1264 0.2259 0.6385
H12_2 H 0.3736 0.2741 0.6385
O19_2 O 0.24654(18) 0.05002(17) 0.30776(14)
O20_2 O 0.24654(18) 0.05002(17) 0.69224(14)
O21_2 O 0.25346(18) 0.44998(17) 0.69224(14)
O22_2 O 0.24654(18) 0.44998(17) 0.19224(14)
O23_2 O 0.24654(18) 0.55002(17) 0.19224(14)
O24_2 O 0.25346(18) 0.05002(17) 0.19224(14)
C27_2 C 0.1166(2) 0.1778(2) 0.31048(18)
C28_2 C 0.1166(2) 0.1778(2) 0.68952(18)
C29_2 C 0.3834(2) 0.3222(2) 0.68952(18)
O26_3 O 0.0000 0.3410(3) 0.3307(2)
C30_2 C 0.1371(2) 0.1358(2) 0.29195(19)
C31_2 C 0.1371(2) 0.1358(2) 0.70805(19)
C32_2 C 0.3629(2) 0.3642(2) 0.70805(19)
H13_2 H 0.1220 0.1232 0.2659
H14_2 H 0.1220 0.1232 0.7341
H15_2 H 0.3780 0.3768 0.7341
O27_2 O 0.05480(14) 0.18501(15) 0.25462(12)
O28_2 O 0.05480(14) 0.18501(15) 0.74538(12)
O29_2 O 0.44520(14) 0.31499(15) 0.74538(12)
O30_2 O 0.44520(14) 0.18501(15) 0.24538(12)
O31_2 O 0.55480(14) 0.18501(15) 0.24538(12)
O32_2 O 0.05480(14) 0.31499(15) 0.24538(12)
O34_2 O 0.20545(19) 0.18997(19) 0.40504(14)
O35_2 O 0.20545(19) 0.18997(19) 0.59496(14)
O36_2 O 0.29455(19) 0.31003(19) 0.59496(14)
C33_2 C 0.1914(3) 0.2362(3) 0.4203(2)
C34_2 C 0.1914(3) 0.2362(3) 0.5797(2)
C35_2 C 0.3086(3) 0.2638(3) 0.5797(2)
H16_2 H 0.1527 0.2377 0.4266
H17_2 H 0.1527 0.2377 0.5734
H18_2 H 0.3473 0.2623 0.5734
H19_2 H 0.2004 0.2624 0.3990
H20_2 H 0.2004 0.2624 0.6010
H21_2 H 0.2996 0.2376 0.6010
C36_2 C 0.2232(2) 0.2427(2) 0.46098(17)
C37_2 C 0.2232(2) 0.2427(2) 0.53902(17)
C38_2 C 0.2768(2) 0.2573(2) 0.53902(17)
C39_2 C 0.1977(3) 0.2355(4) 0.5000
H22_2 H 0.1614 0.2252 0.5000
C40_2 C 0.0715(2) 0.2049(2) 0.28920(19)
C41_2 C 0.0715(2) 0.2049(2) 0.71080(19)
C42_2 C 0.4285(2) 0.2951(2) 0.71080(19)
H27_2 H 0.145236 0.0336766 0.159257
H29_2 H 0.0360842 0.356176 0.332692
Cu10_4 Cu 0.21135(4) 1.0000 0.22028(3)
Cu12_4 Cu 0.28865(4) 1.0000 0.27972(3)
Cu13_4 Cu 0.21135(4) 1.0000 0.77972(3)
Cu14_4 Cu 0.28865(4) 1.0000 0.72028(3)
O8_4 O 0.1482(2) 1.0000 0.1724(2)
O13_2 O 0.18125(16) 0.94971(15) 0.25686(13)
O25_2 O 0.25346(18) 0.94998(17) 0.19224(14)
H28_2 H 0.156518 0.975232 0.149451
Cu3_4 Cu 1.0000 0.28413(4) 0.28111(3)
Cu5_4 Cu 1.0000 0.21587(4) 0.21889(3)
Cu6_4 Cu 1.0000 0.28413(4) 0.71889(3)
Cu7_4 Cu 1.0000 0.21587(4) 0.78111(3)
O18_2 O 0.94570(15) 0.24274(16) 0.30709(13)
O26_4 O 1.0000 0.3410(3) 0.3307(2)
O33_2 O 0.94520(14) 0.31499(15) 0.24538(12)
H30_2 H 0.97349 0.367137 0.323187
O26_5 O -0.0000 0.3410(3) 0.6693(2)
O33_3 O 0.05480(14) 0.31499(15) 0.75462(12)
H30_3 H 0.0265102 0.367137 0.676813
C1_3 C 0.7061(2) 0.4328(2) 0.7098(2)
C2_3 C 0.6797(2) 0.3885(2) 0.68902(18)
O1_3 O 0.6482(2) 0.5000 0.8276(2)
C3_3 C 0.7020(3) 0.3679(2) 0.64930(19)
H1_3 H 0.7311 0.3839 0.6352
O2_3 O 0.68125(16) 0.44971(15) 0.74314(13)
C4_3 C 0.6806(3) 0.3257(3) 0.63276(17)
O3_3 O 0.55430(15) 0.25726(16) 0.69291(13)
C5_3 C 0.6403(2) 0.3036(2) 0.65119(18)
H2_3 H 0.6264 0.2741 0.6385
O4_3 O 0.74654(18) 0.44998(17) 0.69224(14)
C6_3 C 0.6166(2) 0.3222(2) 0.68952(18)
O5_3 O 0.5000 0.1590(3) 0.6693(2)
C7_3 C 0.6371(2) 0.3642(2) 0.70805(19)
H3_3 H 0.6220 0.3768 0.7341
O6_3 O 0.55480(14) 0.31499(15) 0.74538(12)
O7_3 O 0.70545(19) 0.31003(19) 0.59496(14)
C8_3 C 0.6914(3) 0.2638(3) 0.5797(2)
H4_3 H 0.6527 0.2623 0.5734
H5_3 H 0.7004 0.2376 0.6010
C9_3 C 0.7232(2) 0.2573(2) 0.53902(17)
C10_3 C 0.6977(3) 0.2645(4) 0.5000
H6_3 H 0.6614 0.2748 0.5000
C11_3 C 0.5715(2) 0.2951(2) 0.71080(19)
C12_3 C 0.7939(2) 0.0672(2) 0.7098(2)
C13_3 C 0.7939(2) 0.0672(2) 0.2902(2)
C14_3 C 0.7061(2) 0.4328(2) 0.2902(2)
C15_3 C 0.8203(2) 0.1115(2) 0.68902(18)
C16_3 C 0.8203(2) 0.1115(2) 0.31098(18)
C17_3 C 0.6797(2) 0.3885(2) 0.31098(18)
O8_5 O 0.8518(2) -0.0000 0.8276(2)
C18_3 C 0.7980(3) 0.1321(2) 0.64930(19)
C19_3 C 0.7980(3) 0.1321(2) 0.35070(19)
C20_3 C 0.7020(3) 0.3679(2) 0.35070(19)
H7_3 H 0.7689 0.1161 0.6352
H8_3 H 0.7689 0.1161 0.3648
H9_3 H 0.7311 0.3839 0.3648
O9_3 O 0.81875(16) 0.05029(15) 0.74314(13)
C21_3 C 0.8194(3) 0.1743(3) 0.63276(17)
C22_3 C 0.8194(3) 0.1743(3) 0.36724(17)
C23_3 C 0.6806(3) 0.3257(3) 0.36724(17)
O14_3 O 0.94570(15) 0.24274(16) 0.69291(13)
C24_3 C 0.8597(2) 0.1964(2) 0.65119(18)
C25_3 C 0.8597(2) 0.1964(2) 0.34881(18)
C26_3 C 0.6403(2) 0.3036(2) 0.34881(18)
H10_3 H 0.8736 0.2259 0.6385
H11_3 H 0.8736 0.2259 0.3615
H12_3 H 0.6264 0.2741 0.3615
O19_3 O 0.75346(18) 0.05002(17) 0.69224(14)
O20_3 O 0.75346(18) 0.05002(17) 0.30776(14)
O21_3 O 0.74654(18) 0.44998(17) 0.30776(14)
O22_3 O 0.75346(18) 0.44998(17) 0.80776(14)
O23_3 O 0.75346(18) 0.55002(17) 0.80776(14)
O24_3 O 0.74654(18) 0.05002(17) 0.80776(14)
C27_3 C 0.8834(2) 0.1778(2) 0.68952(18)
C28_3 C 0.8834(2) 0.1778(2) 0.31048(18)
C29_3 C 0.6166(2) 0.3222(2) 0.31048(18)
O26_6 O 1.0000 0.3410(3) 0.6693(2)
C30_3 C 0.8629(2) 0.1358(2) 0.70805(19)
C31_3 C 0.8629(2) 0.1358(2) 0.29195(19)
C32_3 C 0.6371(2) 0.3642(2) 0.29195(19)
H13_3 H 0.8780 0.1232 0.7341
H14_3 H 0.8780 0.1232 0.2659
H15_3 H 0.6220 0.3768 0.2659
O27_3 O 0.94520(14) 0.18501(15) 0.74538(12)
O28_3 O 0.94520(14) 0.18501(15) 0.25462(12)
O29_3 O 0.55480(14) 0.31499(15) 0.25462(12)
O30_3 O 0.55480(14) 0.18501(15) 0.75462(12)
O31_3 O 0.44520(14) 0.18501(15) 0.75462(12)
O32_3 O 0.94520(14) 0.31499(15) 0.75462(12)
O34_3 O 0.79455(19) 0.18997(19) 0.59496(14)
O35_3 O 0.79455(19) 0.18997(19) 0.40504(14)
O36_3 O 0.70545(19) 0.31003(19) 0.40504(14)
C33_3 C 0.8086(3) 0.2362(3) 0.5797(2)
C34_3 C 0.8086(3) 0.2362(3) 0.4203(2)
C35_3 C 0.6914(3) 0.2638(3) 0.4203(2)
H16_3 H 0.8473 0.2377 0.5734
H17_3 H 0.8473 0.2377 0.4266
H18_3 H 0.6527 0.2623 0.4266
H19_3 H 0.7996 0.2624 0.6010
H20_3 H 0.7996 0.2624 0.3990
H21_3 H 0.7004 0.2376 0.3990
C36_3 C 0.7768(2) 0.2427(2) 0.53902(17)
C37_3 C 0.7768(2) 0.2427(2) 0.46098(17)
C38_3 C 0.7232(2) 0.2573(2) 0.46098(17)
C39_3 C 0.8023(3) 0.2355(4) 0.5000
H22_3 H 0.8386 0.2252 0.5000
C40_3 C 0.9285(2) 0.2049(2) 0.71080(19)
C41_3 C 0.9285(2) 0.2049(2) 0.28920(19)
C42_3 C 0.5715(2) 0.2951(2) 0.28920(19)
H27_3 H 0.854764 0.0336766 0.840743
H29_3 H 0.963916 0.356176 0.667308
O8_6 O 0.8518(2) 1.0000 0.8276(2)
O25_3 O 0.74654(18) 0.94998(17) 0.80776(14)
H28_3 H 0.843482 0.975232 0.850549
O8_7 O 0.1482(2) -0.0000 0.8276(2)
O25_4 O 0.25346(18) 0.05002(17) 0.80776(14)
H28_4 H 0.156518 0.0247684 0.850549
C1_4 C 0.2939(2) 0.5672(2) 0.7098(2)
C2_4 C 0.3203(2) 0.6115(2) 0.68902(18)
O1_4 O 0.3518(2) 0.5000 0.8276(2)
C3_4 C 0.2980(3) 0.6321(2) 0.64930(19)
H1_4 H 0.2689 0.6161 0.6352
O2_4 O 0.31875(16) 0.55029(15) 0.74314(13)
C4_4 C 0.3194(3) 0.6743(3) 0.63276(17)
O3_4 O 0.44570(15) 0.74274(16) 0.69291(13)
C5_4 C 0.3597(2) 0.6964(2) 0.65119(18)
H2_4 H 0.3736 0.7259 0.6385
O4_4 O 0.25346(18) 0.55002(17) 0.69224(14)
C6_4 C 0.3834(2) 0.6778(2) 0.68952(18)
O5_4 O 0.5000 0.8410(3) 0.6693(2)
C7_4 C 0.3629(2) 0.6358(2) 0.70805(19)
H3_4 H 0.3780 0.6232 0.7341
O6_4 O 0.44520(14) 0.68501(15) 0.74538(12)
O7_4 O 0.29455(19) 0.68997(19) 0.59496(14)
C8_4 C 0.3086(3) 0.7362(3) 0.5797(2)
H4_4 H 0.3473 0.7377 0.5734
H5_4 H 0.2996 0.7624 0.6010
C9_4 C 0.2768(2) 0.7427(2) 0.53902(17)
C10_4 C 0.3023(3) 0.7355(4) 0.5000
H6_4 H 0.3386 0.7252 0.5000
C11_4 C 0.4285(2) 0.7049(2) 0.71080(19)
C12_4 C 0.2061(2) 0.9328(2) 0.7098(2)
C13_4 C 0.2061(2) 0.9328(2) 0.2902(2)
C14_4 C 0.2939(2) 0.5672(2) 0.2902(2)
C15_4 C 0.1797(2) 0.8885(2) 0.68902(18)
C16_4 C 0.1797(2) 0.8885(2) 0.31098(18)
C17_4 C 0.3203(2) 0.6115(2) 0.31098(18)
O8_8 O 0.1482(2) 1.0000 0.8276(2)
C18_4 C 0.2020(3) 0.8679(2) 0.64930(19)
C19_4 C 0.2020(3) 0.8679(2) 0.35070(19)
C20_4 C 0.2980(3) 0.6321(2) 0.35070(19)
H7_4 H 0.2311 0.8839 0.6352
H8_4 H 0.2311 0.8839 0.3648
H9_4 H 0.2689 0.6161 0.3648
O9_4 O 0.18125(16) 0.94971(15) 0.74314(13)
C21_4 C 0.1806(3) 0.8257(3) 0.63276(17)
C22_4 C 0.1806(3) 0.8257(3) 0.36724(17)
C23_4 C 0.3194(3) 0.6743(3) 0.36724(17)
O14_4 O 0.05430(15) 0.75726(16) 0.69291(13)
C24_4 C 0.1403(2) 0.8036(2) 0.65119(18)
C25_4 C 0.1403(2) 0.8036(2) 0.34881(18)
C26_4 C 0.3597(2) 0.6964(2) 0.34881(18)
H10_4 H 0.1264 0.7741 0.6385
H11_4 H 0.1264 0.7741 0.3615
H12_4 H 0.3736 0.7259 0.3615
O19_4 O 0.24654(18) 0.94998(17) 0.69224(14)
O20_4 O 0.24654(18) 0.94998(17) 0.30776(14)
O21_4 O 0.25346(18) 0.55002(17) 0.30776(14)
O22_4 O 0.24654(18) 0.55002(17) 0.80776(14)
O23_4 O 0.24654(18) 0.44998(17) 0.80776(14)
O24_4 O 0.25346(18) 0.94998(17) 0.80776(14)
C27_4 C 0.1166(2) 0.8222(2) 0.68952(18)
C28_4 C 0.1166(2) 0.8222(2) 0.31048(18)
C29_4 C 0.3834(2) 0.6778(2) 0.31048(18)
O26_7 O 0.0000 0.6590(3) 0.6693(2)
C30_4 C 0.1371(2) 0.8642(2) 0.70805(19)
C31_4 C 0.1371(2) 0.8642(2) 0.29195(19)
C32_4 C 0.3629(2) 0.6358(2) 0.29195(19)
H13_4 H 0.1220 0.8768 0.7341
H14_4 H 0.1220 0.8768 0.2659
H15_4 H 0.3780 0.6232 0.2659
O27_4 O 0.05480(14) 0.81499(15) 0.74538(12)
O28_4 O 0.05480(14) 0.81499(15) 0.25462(12)
O29_4 O 0.44520(14) 0.68501(15) 0.25462(12)
O30_4 O 0.44520(14) 0.81499(15) 0.75462(12)
O31_4 O 0.55480(14) 0.81499(15) 0.75462(12)
O32_4 O 0.05480(14) 0.68501(15) 0.75462(12)
O34_4 O 0.20545(19) 0.81003(19) 0.59496(14)
O35_4 O 0.20545(19) 0.81003(19) 0.40504(14)
O36_4 O 0.29455(19) 0.68997(19) 0.40504(14)
C33_4 C 0.1914(3) 0.7638(3) 0.5797(2)
C34_4 C 0.1914(3) 0.7638(3) 0.4203(2)
C35_4 C 0.3086(3) 0.7362(3) 0.4203(2)
H16_4 H 0.1527 0.7623 0.5734
H17_4 H 0.1527 0.7623 0.4266
H18_4 H 0.3473 0.7377 0.4266
H19_4 H 0.2004 0.7376 0.6010
H20_4 H 0.2004 0.7376 0.3990
H21_4 H 0.2996 0.7624 0.3990
C36_4 C 0.2232(2) 0.7573(2) 0.53902(17)
C37_4 C 0.2232(2) 0.7573(2) 0.46098(17)
C38_4 C 0.2768(2) 0.7427(2) 0.46098(17)
C39_4 C 0.1977(3) 0.7645(4) 0.5000
H22_4 H 0.1614 0.7748 0.5000
C40_4 C 0.0715(2) 0.7951(2) 0.71080(19)
C41_4 C 0.0715(2) 0.7951(2) 0.28920(19)
C42_4 C 0.4285(2) 0.7049(2) 0.28920(19)
H27_4 H 0.145236 0.966323 0.840743
H29_4 H 0.0360842 0.643824 0.667308
O26_8 O 1.0000 0.6590(3) 0.6693(2)
O33_4 O 0.94520(14) 0.68501(15) 0.75462(12)
H30_4 H 0.97349 0.632863 0.676813
O18_3 O 0.05430(15) 0.25726(16) 0.80709(13)
O26_9 O 0.0000 0.1590(3) 0.8307(2)
H30_5 H 0.0265102 0.132863 0.823187
C10_5 C 0.6977(3) 0.2355(4) -0.0000
H6_5 H 0.6614 0.2252 -0.0000
C13_5 C 0.7939(2) 0.4328(2) 0.2098(2)
C14_5 C 0.7061(2) 0.0672(2) 0.2098(2)
C16_5 C 0.8203(2) 0.3885(2) 0.18902(18)
C17_5 C 0.6797(2) 0.1115(2) 0.18902(18)
C19_5 C 0.7980(3) 0.3679(2) 0.14930(19)
C20_5 C 0.7020(3) 0.1321(2) 0.14930(19)
H8_5 H 0.7689 0.3839 0.1352
H9_5 H 0.7311 0.1161 0.1352
O10_3 O 0.81875(16) 0.44971(15) 0.24314(13)
O11_3 O 0.68125(16) 0.05029(15) 0.24314(13)
C22_5 C 0.8194(3) 0.3257(3) 0.13276(17)
C23_5 C 0.6806(3) 0.1743(3) 0.13276(17)
O15_3 O 0.94570(15) 0.25726(16) 0.19291(13)
O16_3 O 0.55430(15) 0.24274(16) 0.19291(13)
C25_5 C 0.8597(2) 0.3036(2) 0.15119(18)
C26_5 C 0.6403(2) 0.1964(2) 0.15119(18)
H11_5 H 0.8736 0.2741 0.1385
H12_5 H 0.6264 0.2259 0.1385
C28_5 C 0.8834(2) 0.3222(2) 0.18952(18)
C29_5 C 0.6166(2) 0.1778(2) 0.18952(18)
C31_5 C 0.8629(2) 0.3642(2) 0.20805(19)
C32_5 C 0.6371(2) 0.1358(2) 0.20805(19)
H14_5 H 0.8780 0.3768 0.2341
H15_5 H 0.6220 0.1232 0.2341
O35_5 O 0.79455(19) 0.31003(19) 0.09496(14)
O36_5 O 0.70545(19) 0.18997(19) 0.09496(14)
C34_5 C 0.8086(3) 0.2638(3) 0.0797(2)
C35_5 C 0.6914(3) 0.2362(3) 0.0797(2)
H17_5 H 0.8473 0.2623 0.0734
H18_5 H 0.6527 0.2377 0.0734
H20_5 H 0.7996 0.2376 0.1010
H21_5 H 0.7004 0.2624 0.1010
C37_5 C 0.7768(2) 0.2573(2) 0.03902(17)
C38_5 C 0.7232(2) 0.2427(2) 0.03902(17)
C39_5 C 0.8023(3) 0.2645(4) -0.0000
H22_5 H 0.8386 0.2748 -0.0000
C41_5 C 0.9285(2) 0.2951(2) 0.21080(19)
C42_5 C 0.5715(2) 0.2049(2) 0.21080(19)
C1_5 C 0.7061(2) 0.0672(2) 0.7902(2)
C2_5 C 0.6797(2) 0.1115(2) 0.81098(18)
O1_5 O 0.6482(2) 0.0000 0.6724(2)
C3_5 C 0.7020(3) 0.1321(2) 0.85070(19)
H1_5 H 0.7311 0.1161 0.8648
O2_5 O 0.68125(16) 0.05029(15) 0.75686(13)
C4_5 C 0.6806(3) 0.1743(3) 0.86724(17)
O3_5 O 0.55430(15) 0.24274(16) 0.80709(13)
C5_5 C 0.6403(2) 0.1964(2) 0.84881(18)
H2_5 H 0.6264 0.2259 0.8615
C6_5 C 0.6166(2) 0.1778(2) 0.81048(18)
O5_5 O 0.5000 0.3410(3) 0.8307(2)
C7_5 C 0.6371(2) 0.1358(2) 0.79195(19)
H3_5 H 0.6220 0.1232 0.7659
O7_5 O 0.70545(19) 0.18997(19) 0.90504(14)
C8_5 C 0.6914(3) 0.2362(3) 0.9203(2)
H4_5 H 0.6527 0.2377 0.9266
H5_5 H 0.7004 0.2624 0.8990
C9_5 C 0.7232(2) 0.2427(2) 0.96098(17)
C10_6 C 0.6977(3) 0.2355(4) 1.0000
H6_6 H 0.6614 0.2252 1.0000
C11_5 C 0.5715(2) 0.2049(2) 0.78920(19)
C12_5 C 0.7939(2) 0.4328(2) 0.7902(2)
C15_5 C 0.8203(2) 0.3885(2) 0.81098(18)
O8_9 O 0.8518(2) 0.5000 0.6724(2)
C18_5 C 0.7980(3) 0.3679(2) 0.85070(19)
H7_5 H 0.7689 0.3839 0.8648
O9_5 O 0.81875(16) 0.44971(15) 0.75686(13)
O13_3 O 0.81875(16) 0.55029(15) 0.75686(13)
C21_5 C 0.8194(3) 0.3257(3) 0.86724(17)
O14_5 O 0.94570(15) 0.25726(16) 0.80709(13)
O17_3 O 0.44570(15) 0.24274(16) 0.80709(13)
C24_5 C 0.8597(2) 0.3036(2) 0.84881(18)
H10_5 H 0.8736 0.2741 0.8615
C27_5 C 0.8834(2) 0.3222(2) 0.81048(18)
O26_10 O 1.0000 0.1590(3) 0.8307(2)
C30_5 C 0.8629(2) 0.3642(2) 0.79195(19)
H13_5 H 0.8780 0.3768 0.7659
O34_5 O 0.79455(19) 0.31003(19) 0.90504(14)
C33_5 C 0.8086(3) 0.2638(3) 0.9203(2)
H16_5 H 0.8473 0.2623 0.9266
H19_5 H 0.7996 0.2376 0.8990
C36_5 C 0.7768(2) 0.2573(2) 0.96098(17)
C39_6 C 0.8023(3) 0.2645(4) 1.0000
H22_6 H 0.8386 0.2748 1.0000
C40_5 C 0.9285(2) 0.2951(2) 0.78920(19)
H23 H 0.645236 0.0336766 0.659257
H29_5 H 0.963916 0.143824 0.832692
O1_6 O 0.6482(2) 1.0000 0.6724(2)
O12_3 O 0.68125(16) 0.94971(15) 0.75686(13)
H24 H 0.656518 0.975232 0.649451
O1_7 O 0.3518(2) 0.0000 0.6724(2)
O12_4 O 0.31875(16) 0.05029(15) 0.75686(13)
H24_2 H 0.343482 0.0247684 0.649451
C10_7 C 0.3023(3) 0.7645(4) -0.0000
H6_7 H 0.3386 0.7748 -0.0000
C13_6 C 0.2061(2) 0.5672(2) 0.2098(2)
C14_6 C 0.2939(2) 0.9328(2) 0.2098(2)
C16_6 C 0.1797(2) 0.6115(2) 0.18902(18)
C17_6 C 0.3203(2) 0.8885(2) 0.18902(18)
C19_6 C 0.2020(3) 0.6321(2) 0.14930(19)
C20_6 C 0.2980(3) 0.8679(2) 0.14930(19)
H8_6 H 0.2311 0.6161 0.1352
H9_6 H 0.2689 0.8839 0.1352
O10_4 O 0.18125(16) 0.55029(15) 0.24314(13)
O11_4 O 0.31875(16) 0.94971(15) 0.24314(13)
C22_6 C 0.1806(3) 0.6743(3) 0.13276(17)
C23_6 C 0.3194(3) 0.8257(3) 0.13276(17)
O15_4 O 0.05430(15) 0.74274(16) 0.19291(13)
O16_4 O 0.44570(15) 0.75726(16) 0.19291(13)
C25_6 C 0.1403(2) 0.6964(2) 0.15119(18)
C26_6 C 0.3597(2) 0.8036(2) 0.15119(18)
H11_6 H 0.1264 0.7259 0.1385
H12_6 H 0.3736 0.7741 0.1385
C28_6 C 0.1166(2) 0.6778(2) 0.18952(18)
C29_6 C 0.3834(2) 0.8222(2) 0.18952(18)
C31_6 C 0.1371(2) 0.6358(2) 0.20805(19)
C32_6 C 0.3629(2) 0.8642(2) 0.20805(19)
H14_6 H 0.1220 0.6232 0.2341
H15_6 H 0.3780 0.8768 0.2341
O35_6 O 0.20545(19) 0.68997(19) 0.09496(14)
O36_6 O 0.29455(19) 0.81003(19) 0.09496(14)
C34_6 C 0.1914(3) 0.7362(3) 0.0797(2)
C35_6 C 0.3086(3) 0.7638(3) 0.0797(2)
H17_6 H 0.1527 0.7377 0.0734
H18_6 H 0.3473 0.7623 0.0734
H20_6 H 0.2004 0.7624 0.1010
H21_6 H 0.2996 0.7376 0.1010
C37_6 C 0.2232(2) 0.7427(2) 0.03902(17)
C38_6 C 0.2768(2) 0.7573(2) 0.03902(17)
C39_7 C 0.1977(3) 0.7355(4) -0.0000
H22_7 H 0.1614 0.7252 -0.0000
C41_6 C 0.0715(2) 0.7049(2) 0.21080(19)
C42_6 C 0.4285(2) 0.7951(2) 0.21080(19)
C1_6 C 0.2939(2) 0.9328(2) 0.7902(2)
C2_6 C 0.3203(2) 0.8885(2) 0.81098(18)
O1_8 O 0.3518(2) 1.0000 0.6724(2)
C3_6 C 0.2980(3) 0.8679(2) 0.85070(19)
H1_6 H 0.2689 0.8839 0.8648
O2_6 O 0.31875(16) 0.94971(15) 0.75686(13)
C4_6 C 0.3194(3) 0.8257(3) 0.86724(17)
O3_6 O 0.44570(15) 0.75726(16) 0.80709(13)
C5_6 C 0.3597(2) 0.8036(2) 0.84881(18)
H2_6 H 0.3736 0.7741 0.8615
C6_6 C 0.3834(2) 0.8222(2) 0.81048(18)
O5_6 O 0.5000 0.6590(3) 0.8307(2)
C7_6 C 0.3629(2) 0.8642(2) 0.79195(19)
H3_6 H 0.3780 0.8768 0.7659
O7_6 O 0.29455(19) 0.81003(19) 0.90504(14)
C8_6 C 0.3086(3) 0.7638(3) 0.9203(2)
H4_6 H 0.3473 0.7623 0.9266
H5_6 H 0.2996 0.7376 0.8990
C9_6 C 0.2768(2) 0.7573(2) 0.96098(17)
C10_8 C 0.3023(3) 0.7645(4) 1.0000
H6_8 H 0.3386 0.7748 1.0000
C11_6 C 0.4285(2) 0.7951(2) 0.78920(19)
C12_6 C 0.2061(2) 0.5672(2) 0.7902(2)
C15_6 C 0.1797(2) 0.6115(2) 0.81098(18)
O8_10 O 0.1482(2) 0.5000 0.6724(2)
C18_6 C 0.2020(3) 0.6321(2) 0.85070(19)
H7_6 H 0.2311 0.6161 0.8648
O9_6 O 0.18125(16) 0.55029(15) 0.75686(13)
O13_4 O 0.18125(16) 0.44971(15) 0.75686(13)
C21_6 C 0.1806(3) 0.6743(3) 0.86724(17)
O14_6 O 0.05430(15) 0.74274(16) 0.80709(13)
O17_4 O 0.55430(15) 0.75726(16) 0.80709(13)
C24_6 C 0.1403(2) 0.6964(2) 0.84881(18)
H10_6 H 0.1264 0.7259 0.8615
C27_6 C 0.1166(2) 0.6778(2) 0.81048(18)
O26_11 O 0.0000 0.8410(3) 0.8307(2)
C30_6 C 0.1371(2) 0.6358(2) 0.79195(19)
H13_6 H 0.1220 0.6232 0.7659
O34_6 O 0.20545(19) 0.68997(19) 0.90504(14)
C33_6 C 0.1914(3) 0.7362(3) 0.9203(2)
H16_6 H 0.1527 0.7377 0.9266
H19_6 H 0.2004 0.7624 0.8990
C36_6 C 0.2232(2) 0.7427(2) 0.96098(17)
C39_8 C 0.1977(3) 0.7355(4) 1.0000
H22_8 H 0.1614 0.7252 1.0000
C40_6 C 0.0715(2) 0.7049(2) 0.78920(19)
H23_2 H 0.354764 0.966323 0.659257
H29_6 H 0.0360842 0.856176 0.832692
O18_4 O 0.94570(15) 0.74274(16) 0.80709(13)
O26_12 O 1.0000 0.8410(3) 0.8307(2)
H30_6 H 0.97349 0.867137 0.823187
O26_13 O 0.0000 0.8410(3) 0.1693(2)
H30_7 H 0.0265102 0.867137 0.176813
O1_9 O 0.6482(2) -0.0000 0.3276(2)
H24_3 H 0.656518 0.0247684 0.350549
C1_7 C 0.7061(2) 0.9328(2) 0.2098(2)
C2_7 C 0.6797(2) 0.8885(2) 0.18902(18)
O1_10 O 0.6482(2) 1.0000 0.3276(2)
C3_7 C 0.7020(3) 0.8679(2) 0.14930(19)
H1_7 H 0.7311 0.8839 0.1352
O2_7 O 0.68125(16) 0.94971(15) 0.24314(13)
C4_7 C 0.6806(3) 0.8257(3) 0.13276(17)
O3_7 O 0.55430(15) 0.75726(16) 0.19291(13)
C5_7 C 0.6403(2) 0.8036(2) 0.15119(18)
H2_7 H 0.6264 0.7741 0.1385
C6_7 C 0.6166(2) 0.8222(2) 0.18952(18)
O5_7 O 0.5000 0.6590(3) 0.1693(2)
C7_7 C 0.6371(2) 0.8642(2) 0.20805(19)
H3_7 H 0.6220 0.8768 0.2341
O7_7 O 0.70545(19) 0.81003(19) 0.09496(14)
C8_7 C 0.6914(3) 0.7638(3) 0.0797(2)
H4_7 H 0.6527 0.7623 0.0734
H5_7 H 0.7004 0.7376 0.1010
C9_7 C 0.7232(2) 0.7573(2) 0.03902(17)
C10_9 C 0.6977(3) 0.7645(4) 0.0000
H6_9 H 0.6614 0.7748 0.0000
C11_7 C 0.5715(2) 0.7951(2) 0.21080(19)
C12_7 C 0.7939(2) 0.5672(2) 0.2098(2)
C15_7 C 0.8203(2) 0.6115(2) 0.18902(18)
O8_11 O 0.8518(2) 0.5000 0.3276(2)
C18_7 C 0.7980(3) 0.6321(2) 0.14930(19)
H7_7 H 0.7689 0.6161 0.1352
O9_7 O 0.81875(16) 0.55029(15) 0.24314(13)
C21_7 C 0.8194(3) 0.6743(3) 0.13276(17)
O14_7 O 0.94570(15) 0.74274(16) 0.19291(13)
C24_7 C 0.8597(2) 0.6964(2) 0.15119(18)
H10_7 H 0.8736 0.7259 0.1385
C27_7 C 0.8834(2) 0.6778(2) 0.18952(18)
O26_14 O 1.0000 0.8410(3) 0.1693(2)
C30_7 C 0.8629(2) 0.6358(2) 0.20805(19)
H13_7 H 0.8780 0.6232 0.2341
O34_7 O 0.79455(19) 0.68997(19) 0.09496(14)
C33_7 C 0.8086(3) 0.7362(3) 0.0797(2)
H16_7 H 0.8473 0.7377 0.0734
H19_7 H 0.7996 0.7624 0.1010
C36_7 C 0.7768(2) 0.7427(2) 0.03902(17)
C39_9 C 0.8023(3) 0.7355(4) 0.0000
H22_9 H 0.8386 0.7252 0.0000
C40_7 C 0.9285(2) 0.7049(2) 0.21080(19)
H23_3 H 0.645236 0.966323 0.340743
H29_7 H 0.963916 0.856176 0.167308
C10_10 C 0.6977(3) 0.7645(4) 1.0000
H6_10 H 0.6614 0.7748 1.0000
C13_7 C 0.7939(2) 0.5672(2) 0.7902(2)
C14_7 C 0.7061(2) 0.9328(2) 0.7902(2)
C16_7 C 0.8203(2) 0.6115(2) 0.81098(18)
C17_7 C 0.6797(2) 0.8885(2) 0.81098(18)
C19_7 C 0.7980(3) 0.6321(2) 0.85070(19)
C20_7 C 0.7020(3) 0.8679(2) 0.85070(19)
H8_7 H 0.7689 0.6161 0.8648
H9_7 H 0.7311 0.8839 0.8648
C22_7 C 0.8194(3) 0.6743(3) 0.86724(17)
C23_7 C 0.6806(3) 0.8257(3) 0.86724(17)
C25_7 C 0.8597(2) 0.6964(2) 0.84881(18)
C26_7 C 0.6403(2) 0.8036(2) 0.84881(18)
H11_7 H 0.8736 0.7259 0.8615
H12_7 H 0.6264 0.7741 0.8615
C28_7 C 0.8834(2) 0.6778(2) 0.81048(18)
C29_7 C 0.6166(2) 0.8222(2) 0.81048(18)
C31_7 C 0.8629(2) 0.6358(2) 0.79195(19)
C32_7 C 0.6371(2) 0.8642(2) 0.79195(19)
H14_7 H 0.8780 0.6232 0.7659
H15_7 H 0.6220 0.8768 0.7659
O35_7 O 0.79455(19) 0.68997(19) 0.90504(14)
O36_7 O 0.70545(19) 0.81003(19) 0.90504(14)
C34_7 C 0.8086(3) 0.7362(3) 0.9203(2)
C35_7 C 0.6914(3) 0.7638(3) 0.9203(2)
H17_7 H 0.8473 0.7377 0.9266
H18_7 H 0.6527 0.7623 0.9266
H20_7 H 0.7996 0.7624 0.8990
H21_7 H 0.7004 0.7376 0.8990
C37_7 C 0.7768(2) 0.7427(2) 0.96098(17)
C38_7 C 0.7232(2) 0.7573(2) 0.96098(17)
C39_10 C 0.8023(3) 0.7355(4) 1.0000
H22_10 H 0.8386 0.7252 1.0000
C41_7 C 0.9285(2) 0.7049(2) 0.78920(19)
C42_7 C 0.5715(2) 0.7951(2) 0.78920(19)
C1_8 C 0.2939(2) 0.0672(2) 0.2098(2)
C2_8 C 0.3203(2) 0.1115(2) 0.18902(18)
O1_11 O 0.3518(2) -0.0000 0.3276(2)
C3_8 C 0.2980(3) 0.1321(2) 0.14930(19)
H1_8 H 0.2689 0.1161 0.1352
O2_8 O 0.31875(16) 0.05029(15) 0.24314(13)
C4_8 C 0.3194(3) 0.1743(3) 0.13276(17)
O3_8 O 0.44570(15) 0.24274(16) 0.19291(13)
C5_8 C 0.3597(2) 0.1964(2) 0.15119(18)
H2_8 H 0.3736 0.2259 0.1385
C6_8 C 0.3834(2) 0.1778(2) 0.18952(18)
O5_8 O 0.5000 0.3410(3) 0.1693(2)
C7_8 C 0.3629(2) 0.1358(2) 0.20805(19)
H3_8 H 0.3780 0.1232 0.2341
O7_8 O 0.29455(19) 0.18997(19) 0.09496(14)
C8_8 C 0.3086(3) 0.2362(3) 0.0797(2)
H4_8 H 0.3473 0.2377 0.0734
H5_8 H 0.2996 0.2624 0.1010
C9_8 C 0.2768(2) 0.2427(2) 0.03902(17)
C10_11 C 0.3023(3) 0.2355(4) 0.0000
H6_11 H 0.3386 0.2252 0.0000
C11_8 C 0.4285(2) 0.2049(2) 0.21080(19)
C12_8 C 0.2061(2) 0.4328(2) 0.2098(2)
C15_8 C 0.1797(2) 0.3885(2) 0.18902(18)
O8_12 O 0.1482(2) 0.5000 0.3276(2)
C18_8 C 0.2020(3) 0.3679(2) 0.14930(19)
H7_8 H 0.2311 0.3839 0.1352
O9_8 O 0.18125(16) 0.44971(15) 0.24314(13)
C21_8 C 0.1806(3) 0.3257(3) 0.13276(17)
O14_8 O 0.05430(15) 0.25726(16) 0.19291(13)
C24_8 C 0.1403(2) 0.3036(2) 0.15119(18)
H10_8 H 0.1264 0.2741 0.1385
C27_8 C 0.1166(2) 0.3222(2) 0.18952(18)
O26_15 O 0.0000 0.1590(3) 0.1693(2)
C30_8 C 0.1371(2) 0.3642(2) 0.20805(19)
H13_8 H 0.1220 0.3768 0.2341
O34_8 O 0.20545(19) 0.31003(19) 0.09496(14)
C33_8 C 0.1914(3) 0.2638(3) 0.0797(2)
H16_8 H 0.1527 0.2623 0.0734
H19_8 H 0.2004 0.2376 0.1010
C36_8 C 0.2232(2) 0.2573(2) 0.03902(17)
C39_11 C 0.1977(3) 0.2645(4) 0.0000
H22_11 H 0.1614 0.2748 0.0000
C40_8 C 0.0715(2) 0.2951(2) 0.21080(19)
H23_4 H 0.354764 0.0336766 0.340743
H29_8 H 0.0360842 0.143824 0.167308
C10_12 C 0.3023(3) 0.2355(4) 1.0000
H6_12 H 0.3386 0.2252 1.0000
C13_8 C 0.2061(2) 0.4328(2) 0.7902(2)
C14_8 C 0.2939(2) 0.0672(2) 0.7902(2)
C16_8 C 0.1797(2) 0.3885(2) 0.81098(18)
C17_8 C 0.3203(2) 0.1115(2) 0.81098(18)
C19_8 C 0.2020(3) 0.3679(2) 0.85070(19)
C20_8 C 0.2980(3) 0.1321(2) 0.85070(19)
H8_8 H 0.2311 0.3839 0.8648
H9_8 H 0.2689 0.1161 0.8648
C22_8 C 0.1806(3) 0.3257(3) 0.86724(17)
C23_8 C 0.3194(3) 0.1743(3) 0.86724(17)
C25_8 C 0.1403(2) 0.3036(2) 0.84881(18)
C26_8 C 0.3597(2) 0.1964(2) 0.84881(18)
H11_8 H 0.1264 0.2741 0.8615
H12_8 H 0.3736 0.2259 0.8615
C28_8 C 0.1166(2) 0.3222(2) 0.81048(18)
C29_8 C 0.3834(2) 0.1778(2) 0.81048(18)
C31_8 C 0.1371(2) 0.3642(2) 0.79195(19)
C32_8 C 0.3629(2) 0.1358(2) 0.79195(19)
H14_8 H 0.1220 0.3768 0.7659
H15_8 H 0.3780 0.1232 0.7659
O35_8 O 0.20545(19) 0.31003(19) 0.90504(14)
O36_8 O 0.29455(19) 0.18997(19) 0.90504(14)
C34_8 C 0.1914(3) 0.2638(3) 0.9203(2)
C35_8 C 0.3086(3) 0.2362(3) 0.9203(2)
H17_8 H 0.1527 0.2623 0.9266
H18_8 H 0.3473 0.2377 0.9266
H20_8 H 0.2004 0.2376 0.8990
H21_8 H 0.2996 0.2624 0.8990
C37_8 C 0.2232(2) 0.2573(2) 0.96098(17)
C38_8 C 0.2768(2) 0.2427(2) 0.96098(17)
C39_12 C 0.1977(3) 0.2645(4) 1.0000
H22_12 H 0.1614 0.2748 1.0000
C41_8 C 0.0715(2) 0.2951(2) 0.78920(19)
C42_8 C 0.4285(2) 0.2049(2) 0.78920(19)
O1_12 O 0.3518(2) 1.0000 0.3276(2)
H24_4 H 0.343482 0.975232 0.350549
O26_16 O 1.0000 0.1590(3) 0.1693(2)
H30_8 H 0.97349 0.132863 0.176813
H27_5 H 0.145236 0.0336766 0.840743
H29_9 H 0.0360842 0.356176 0.667308
H28_5 H 0.156518 0.975232 0.850549
H30_9 H 0.97349 0.367137 0.676813
H30_10 H 0.0265102 0.632863 0.676813
H28_6 H 0.843482 0.0247684 0.850549
H27_6 H 0.854764 0.966323 0.840743
H29_10 H 0.963916 0.643824 0.667308
H28_7 H 0.156518 0.0247684 0.149451
H27_7 H 0.145236 0.966323 0.159257
H29_11 H 0.0360842 0.643824 0.332692
H30_11 H 0.97349 0.632863 0.323187
H30_12 H 0.0265102 0.367137 0.323187
H27_8 H 0.854764 0.0336766 0.159257
H29_12 H 0.963916 0.356176 0.332692
H28_8 H 0.843482 0.975232 0.149451
H24_5 H 0.343482 0.0247684 0.350549
H23_5 H 0.354764 0.966323 0.340743
H29_13 H 0.0360842 0.856176 0.167308
H30_13 H 0.97349 0.867137 0.176813
H30_14 H 0.0265102 0.132863 0.176813
H23_6 H 0.645236 0.0336766 0.340743
H29_14 H 0.963916 0.143824 0.167308
H24_6 H 0.656518 0.975232 0.350549
H23_7 H 0.354764 0.0336766 0.659257
H29_15 H 0.0360842 0.143824 0.832692
H24_7 H 0.343482 0.975232 0.649451
H30_15 H 0.97349 0.132863 0.823187
H30_16 H 0.0265102 0.867137 0.823187
H24_8 H 0.656518 0.0247684 0.649451
H23_8 H 0.645236 0.966323 0.659257
H29_16 H 0.963916 0.856176 0.832692
loop_
_geom_bond_atom_site_label_1
_geom_bond_atom_site_label_2
_geom_bond_site_symmetry_1
_geom_bond_site_symmetry_2
O18 Cu3 1_555 1_555
O26 Cu3 1_555 1_555
O33 Cu3 1_555 1_555
O26 H30 1_555 1_555
Cu10 O8 1_555 1_555
O13 Cu10 1_555 1_555
O25 Cu10 1_555 1_555
O8 H28 1_555 1_555
Cu1 O3 1_555 1_555
Cu2 O1 1_555 1_555
C1 C2 1_555 1_555
C2 C3 1_555 1_555
C3 H1 1_555 1_555
O2 Cu2 1_555 1_555
C4 C3 1_555 1_555
O3 C11 1_555 1_555
C5 C4 1_555 1_555
H2 C5 1_555 1_555
O4 C1 1_555 1_555
C6 C5 1_555 1_555
O5 Cu1 1_555 1_555
C7 C2 1_555 1_555
H3 C7 1_555 1_555
O6 C11 1_555 1_555
O7 C4 1_555 1_555
C8 O7 1_555 1_555
H4 C8 1_555 1_555
H5 C8 1_555 1_555
C9 C8 1_555 1_555
C10 C9 1_555 1_555
H6 C10 1_555 1_555
C11 C6 1_555 1_555
Cu3_2 O14 1_555 1_555
Cu4 O6 1_555 1_555
Cu5_2 O27 1_555 1_555
Cu6_2 O15 1_555 1_555
Cu7_2 O28 1_555 1_555
Cu8 O16 1_555 1_555
Cu9 O29 1_555 1_555
Cu10_2 O8_2 1_555 1_555
Cu11 O4 1_555 1_555
Cu12_2 O19 1_555 1_555
Cu13_2 O10 1_555 1_555
Cu14_2 O20 1_555 1_555
Cu15 O11 1_555 1_555
Cu16 O21 1_555 1_555
C12 C15 1_555 1_555
C13 C16 1_555 1_555
C14 C17 1_555 1_555
C15 C18 1_555 1_555
C16 C19 1_555 1_555
C17 C20 1_555 1_555
C18 H7 1_555 1_555
C19 H8 1_555 1_555
C20 H9 1_555 1_555
O9 Cu10_2 1_555 1_555
O10 C13 1_555 1_555
O11 C14 1_555 1_555
O12 Cu2 1_555 1_555
C21 C18 1_555 1_555
C22 C19 1_555 1_555
C23 C20 1_555 1_555
O14 C40 1_555 1_555
O15 C41 1_555 1_555
O16 C42 1_555 1_555
O17 Cu1 1_555 1_555
C24 C21 1_555 1_555
C25 C22 1_555 1_555
C26 C23 1_555 1_555
H10 C24 1_555 1_555
H11 C25 1_555 1_555
H12 C26 1_555 1_555
O19 C12 1_555 1_555
O20 C13 1_555 1_555
O21 C14 1_555 1_555
O22 Cu2 1_555 1_555
O23 Cu2 1_555 1_555
O24 Cu10_2 1_555 1_555
C27 C24 1_555 1_555
C28 C25 1_555 1_555
C29 C26 1_555 1_555
O26_2 Cu3_2 1_555 1_555
C30 C15 1_555 1_555
C31 C16 1_555 1_555
C32 C17 1_555 1_555
H13 C30 1_555 1_555
H14 C31 1_555 1_555
H15 C32 1_555 1_555
O27 C40 1_555 1_555
O28 C41 1_555 1_555
O29 C42 1_555 1_555
O30 Cu1 1_555 1_555
O31 Cu1 1_555 1_555
O32 Cu3_2 1_555 1_555
O34 C21 1_555 1_555
O35 C22 1_555 1_555
O36 C23 1_555 1_555
C33 O34 1_555 1_555
C34 O35 1_555 1_555
C35 O36 1_555 1_555
H16 C33 1_555 1_555
H17 C34 1_555 1_555
H18 C35 1_555 1_555
H19 C33 1_555 1_555
H20 C34 1_555 1_555
H21 C35 1_555 1_555
C36 C9 1_555 1_555
C37 C34 1_555 1_555
C38 C10 1_555 1_555
C39 C36 1_555 1_555
H22 C39 1_555 1_555
C40 C27 1_555 1_555
C41 C28 1_555 1_555
C42 C29 1_555 1_555
C1 O2 1_555 1_555
C6 C7 1_555 1_555
C12 O9 1_555 1_555
C27 C30 1_555 1_555
C28 C31 1_555 1_555
C29 C32 1_555 1_555
C33 C36 1_555 1_555
C35 C38 1_555 1_555
C37 C38 1_555 1_555
C37 C39 1_555 1_555
O8_2 H27 1_555 1_555
O26_2 H29 1_555 1_555
Cu1_2 O3_2 1_555 1_555
Cu2_2 O1_2 1_555 1_555
C1_2 C2_2 1_555 1_555
C2_2 C3_2 1_555 1_555
C3_2 H1_2 1_555 1_555
O2_2 Cu2_2 1_555 1_555
C4_2 C3_2 1_555 1_555
O3_2 C11_2 1_555 1_555
C5_2 C4_2 1_555 1_555
H2_2 C5_2 1_555 1_555
O4_2 C1_2 1_555 1_555
C6_2 C5_2 1_555 1_555
O5_2 Cu1_2 1_555 1_555
C7_2 C2_2 1_555 1_555
H3_2 C7_2 1_555 1_555
O6_2 C11_2 1_555 1_555
O7_2 C4_2 1_555 1_555
C8_2 O7_2 1_555 1_555
H4_2 C8_2 1_555 1_555
H5_2 C8_2 1_555 1_555
C9_2 C8_2 1_555 1_555
C10_2 C9_2 1_555 1_555
H6_2 C10_2 1_555 1_555
C11_2 C6_2 1_555 1_555
Cu3_3 O14_2 1_555 1_555
Cu4_2 O6_2 1_555 1_555
Cu5_3 O27_2 1_555 1_555
Cu6_3 O15_2 1_555 1_555
Cu7_3 O28_2 1_555 1_555
Cu8_2 O16_2 1_555 1_555
Cu9_2 O29_2 1_555 1_555
Cu10_3 O8_3 1_555 1_555
Cu11_2 O4_2 1_555 1_555
Cu12_3 O19_2 1_555 1_555
Cu13_3 O10_2 1_555 1_555
Cu14_3 O20_2 1_555 1_555
Cu15_2 O11_2 1_555 1_555
Cu16_2 O21_2 1_555 1_555
C12_2 C15_2 1_555 1_555
C13_2 C16_2 1_555 1_555
C14_2 C17_2 1_555 1_555
C15_2 C18_2 1_555 1_555
C16_2 C19_2 1_555 1_555
C17_2 C20_2 1_555 1_555
C18_2 H7_2 1_555 1_555
C19_2 H8_2 1_555 1_555
C20_2 H9_2 1_555 1_555
O9_2 Cu10_3 1_555 1_555
O10_2 C13_2 1_555 1_555
O11_2 C14_2 1_555 1_555
O12_2 Cu2_2 1_555 1_555
C21_2 C18_2 1_555 1_555
C22_2 C19_2 1_555 1_555
C23_2 C20_2 1_555 1_555
O14_2 C40_2 1_555 1_555
O15_2 C41_2 1_555 1_555
O16_2 C42_2 1_555 1_555
O17_2 Cu1_2 1_555 1_555
C24_2 C21_2 1_555 1_555
C25_2 C22_2 1_555 1_555
C26_2 C23_2 1_555 1_555
H10_2 C24_2 1_555 1_555
H11_2 C25_2 1_555 1_555
H12_2 C26_2 1_555 1_555
O19_2 C12_2 1_555 1_555
O20_2 C13_2 1_555 1_555
O21_2 C14_2 1_555 1_555
O22_2 Cu2_2 1_555 1_555
O23_2 Cu2_2 1_555 1_555
O24_2 Cu10_3 1_555 1_555
C27_2 C24_2 1_555 1_555
C28_2 C25_2 1_555 1_555
C29_2 C26_2 1_555 1_555
O26_3 Cu3_3 1_555 1_555
C30_2 C15_2 1_555 1_555
C31_2 C16_2 1_555 1_555
C32_2 C17_2 1_555 1_555
H13_2 C30_2 1_555 1_555
H14_2 C31_2 1_555 1_555
H15_2 C32_2 1_555 1_555
O27_2 C40_2 1_555 1_555
O28_2 C41_2 1_555 1_555
O29_2 C42_2 1_555 1_555
O30_2 Cu1_2 1_555 1_555
O31_2 Cu1_2 1_555 1_555
O32_2 Cu3_3 1_555 1_555
O34_2 C21_2 1_555 1_555
O35_2 C22_2 1_555 1_555
O36_2 C23_2 1_555 1_555
C33_2 O34_2 1_555 1_555
C34_2 O35_2 1_555 1_555
C35_2 O36_2 1_555 1_555
H16_2 C33_2 1_555 1_555
H17_2 C34_2 1_555 1_555
H18_2 C35_2 1_555 1_555
H19_2 C33_2 1_555 1_555
H20_2 C34_2 1_555 1_555
H21_2 C35_2 1_555 1_555
C36_2 C9_2 1_555 1_555
C37_2 C34_2 1_555 1_555
C38_2 C10_2 1_555 1_555
C39_2 C36_2 1_555 1_555
H22_2 C39_2 1_555 1_555
C40_2 C27_2 1_555 1_555
C41_2 C28_2 1_555 1_555
C42_2 C29_2 1_555 1_555
C1_2 O2_2 1_555 1_555
C6_2 C7_2 1_555 1_555
C12_2 O9_2 1_555 1_555
C27_2 C30_2 1_555 1_555
C28_2 C31_2 1_555 1_555
C29_2 C32_2 1_555 1_555
C33_2 C36_2 1_555 1_555
C35_2 C38_2 1_555 1_555
C37_2 C38_2 1_555 1_555
C37_2 C39_2 1_555 1_555
O8_3 H27_2 1_555 1_555
O26_3 H29_2 1_555 1_555
Cu10_4 O8_4 1_555 1_555
O13_2 Cu10_4 1_555 1_555
O25_2 Cu10_4 1_555 1_555
O8_4 H28_2 1_555 1_555
O18_2 Cu3_4 1_555 1_555
O26_4 Cu3_4 1_555 1_555
O33_2 Cu3_4 1_555 1_555
O26_4 H30_2 1_555 1_555
O26_5 Cu6_3 1_555 1_555
O33_3 Cu6_3 1_555 1_555
O26_5 H30_3 1_555 1_555
Cu8_2 O3_3 1_555 1_555
Cu15 O1_3 1_555 1_555
C1_3 C2_3 1_555 1_555
C2_3 C3_3 1_555 1_555
C3_3 H1_3 1_555 1_555
O2_3 Cu15 1_555 1_555
C4_3 C3_3 1_555 1_555
O3_3 C11_3 1_555 1_555
C5_3 C4_3 1_555 1_555
H2_3 C5_3 1_555 1_555
O4_3 C1_3 1_555 1_555
C6_3 C5_3 1_555 1_555
O5_3 Cu8_2 1_555 1_555
C7_3 C2_3 1_555 1_555
H3_3 C7_3 1_555 1_555
O6_3 C11_3 1_555 1_555
O7_3 C4_3 1_555 1_555
C8_3 O7_3 1_555 1_555
H4_3 C8_3 1_555 1_555
H5_3 C8_3 1_555 1_555
C9_3 C8_3 1_555 1_555
C10_3 C9_3 1_555 1_555
H6_3 C10_3 1_555 1_555
C11_3 C6_3 1_555 1_555
Cu6_4 O14_3 1_555 1_555
Cu9_2 O6_3 1_555 1_555
Cu7_4 O27_3 1_555 1_555
Cu5_4 O28_3 1_555 1_555
Cu4_2 O29_3 1_555 1_555
Cu13 O8_5 1_555 1_555
Cu16 O4_3 1_555 1_555
Cu14 O19_3 1_555 1_555
Cu12 O20_3 1_555 1_555
Cu11 O21_3 1_555 1_555
C12_3 C15_3 1_555 1_555
C13_3 C16_3 1_555 1_555
C14_3 C17_3 1_555 1_555
C15_3 C18_3 1_555 1_555
C16_3 C19_3 1_555 1_555
C17_3 C20_3 1_555 1_555
C18_3 H7_3 1_555 1_555
C19_3 H8_3 1_555 1_555
C20_3 H9_3 1_555 1_555
O9_3 Cu13 1_555 1_555
O13 C13_3 1_555 1_555
O12 C14_3 1_555 1_555
C21_3 C18_3 1_555 1_555
C22_3 C19_3 1_555 1_555
C23_3 C20_3 1_555 1_555
O14_3 C40_3 1_555 1_555
O18_2 C41_3 1_555 1_555
O17_2 C42_3 1_555 1_555
C24_3 C21_3 1_555 1_555
C25_3 C22_3 1_555 1_555
C26_3 C23_3 1_555 1_555
H10_3 C24_3 1_555 1_555
H11_3 C25_3 1_555 1_555
H12_3 C26_3 1_555 1_555
O19_3 C12_3 1_555 1_555
O20_3 C13_3 1_555 1_555
O21_3 C14_3 1_555 1_555
O22_3 Cu15 1_555 1_555
O23_3 Cu15 1_555 1_555
O24_3 Cu13 1_555 1_555
C27_3 C24_3 1_555 1_555
C28_3 C25_3 1_555 1_555
C29_3 C26_3 1_555 1_555
O26_6 Cu6_4 1_555 1_555
C30_3 C15_3 1_555 1_555
C31_3 C16_3 1_555 1_555
C32_3 C17_3 1_555 1_555
H13_3 C30_3 1_555 1_555
H14_3 C31_3 1_555 1_555
H15_3 C32_3 1_555 1_555
O27_3 C40_3 1_555 1_555
O28_3 C41_3 1_555 1_555
O29_3 C42_3 1_555 1_555
O30_3 Cu8_2 1_555 1_555
O31_3 Cu8_2 1_555 1_555
O32_3 Cu6_4 1_555 1_555
O34_3 C21_3 1_555 1_555
O35_3 C22_3 1_555 1_555
O36_3 C23_3 1_555 1_555
C33_3 O34_3 1_555 1_555
C34_3 O35_3 1_555 1_555
C35_3 O36_3 1_555 1_555
H16_3 C33_3 1_555 1_555
H17_3 C34_3 1_555 1_555
H18_3 C35_3 1_555 1_555
H19_3 C33_3 1_555 1_555
H20_3 C34_3 1_555 1_555
H21_3 C35_3 1_555 1_555
C36_3 C9_3 1_555 1_555
C37_3 C34_3 1_555 1_555
C38_3 C10_3 1_555 1_555
C39_3 C36_3 1_555 1_555
H22_3 C39_3 1_555 1_555
C40_3 C27_3 1_555 1_555
C41_3 C28_3 1_555 1_555
C42_3 C29_3 1_555 1_555
C1_3 O2_3 1_555 1_555
C6_3 C7_3 1_555 1_555
C12_3 O9_3 1_555 1_555
C27_3 C30_3 1_555 1_555
C28_3 C31_3 1_555 1_555
C29_3 C32_3 1_555 1_555
C33_3 C36_3 1_555 1_555
C35_3 C38_3 1_555 1_555
C37_3 C38_3 1_555 1_555
C37_3 C39_3 1_555 1_555
O8_5 H27_3 1_555 1_555
O26_6 H29_3 1_555 1_555
Cu13_2 O8_6 1_555 1_555
O25_3 Cu13_2 1_555 1_555
O8_6 H28_3 1_555 1_555
Cu13_3 O8_7 1_555 1_555
O25_4 Cu13_3 1_555 1_555
O8_7 H28_4 1_555 1_555
Cu8 O3_4 1_555 1_555
Cu15_2 O1_4 1_555 1_555
C1_4 C2_4 1_555 1_555
C2_4 C3_4 1_555 1_555
C3_4 H1_4 1_555 1_555
O2_4 Cu15_2 1_555 1_555
C4_4 C3_4 1_555 1_555
O3_4 C11_4 1_555 1_555
C5_4 C4_4 1_555 1_555
H2_4 C5_4 1_555 1_555
O4_4 C1_4 1_555 1_555
C6_4 C5_4 1_555 1_555
O5_4 Cu8 1_555 1_555
C7_4 C2_4 1_555 1_555
H3_4 C7_4 1_555 1_555
O6_4 C11_4 1_555 1_555
O7_4 C4_4 1_555 1_555
C8_4 O7_4 1_555 1_555
H4_4 C8_4 1_555 1_555
H5_4 C8_4 1_555 1_555
C9_4 C8_4 1_555 1_555
C10_4 C9_4 1_555 1_555
H6_4 C10_4 1_555 1_555
C11_4 C6_4 1_555 1_555
Cu6 O14_4 1_555 1_555
Cu9 O6_4 1_555 1_555
Cu7 O27_4 1_555 1_555
Cu5 O28_4 1_555 1_555
Cu4 O29_4 1_555 1_555
Cu13_4 O8_8 1_555 1_555
Cu16_2 O4_4 1_555 1_555
Cu14_4 O19_4 1_555 1_555
Cu12_4 O20_4 1_555 1_555
Cu11_2 O21_4 1_555 1_555
C12_4 C15_4 1_555 1_555
C13_4 C16_4 1_555 1_555
C14_4 C17_4 1_555 1_555
C15_4 C18_4 1_555 1_555
C16_4 C19_4 1_555 1_555
C17_4 C20_4 1_555 1_555
C18_4 H7_4 1_555 1_555
C19_4 H8_4 1_555 1_555
C20_4 H9_4 1_555 1_555
O9_4 Cu13_4 1_555 1_555
O13_2 C13_4 1_555 1_555
O12_2 C14_4 1_555 1_555
C21_4 C18_4 1_555 1_555
C22_4 C19_4 1_555 1_555
C23_4 C20_4 1_555 1_555
O14_4 C40_4 1_555 1_555
O18 C41_4 1_555 1_555
O17 C42_4 1_555 1_555
C24_4 C21_4 1_555 1_555
C25_4 C22_4 1_555 1_555
C26_4 C23_4 1_555 1_555
H10_4 C24_4 1_555 1_555
H11_4 C25_4 1_555 1_555
H12_4 C26_4 1_555 1_555
O19_4 C12_4 1_555 1_555
O20_4 C13_4 1_555 1_555
O21_4 C14_4 1_555 1_555
O22_4 Cu15_2 1_555 1_555
O23_4 Cu15_2 1_555 1_555
O24_4 Cu13_4 1_555 1_555
C27_4 C24_4 1_555 1_555
C28_4 C25_4 1_555 1_555
C29_4 C26_4 1_555 1_555
O26_7 Cu6 1_555 1_555
C30_4 C15_4 1_555 1_555
C31_4 C16_4 1_555 1_555
C32_4 C17_4 1_555 1_555
H13_4 C30_4 1_555 1_555
H14_4 C31_4 1_555 1_555
H15_4 C32_4 1_555 1_555
O27_4 C40_4 1_555 1_555
O28_4 C41_4 1_555 1_555
O29_4 C42_4 1_555 1_555
O30_4 Cu8 1_555 1_555
O31_4 Cu8 1_555 1_555
O32_4 Cu6 1_555 1_555
O34_4 C21_4 1_555 1_555
O35_4 C22_4 1_555 1_555
O36_4 C23_4 1_555 1_555
C33_4 O34_4 1_555 1_555
C34_4 O35_4 1_555 1_555
C35_4 O36_4 1_555 1_555
H16_4 C33_4 1_555 1_555
H17_4 C34_4 1_555 1_555
H18_4 C35_4 1_555 1_555
H19_4 C33_4 1_555 1_555
H20_4 C34_4 1_555 1_555
H21_4 C35_4 1_555 1_555
C36_4 C9_4 1_555 1_555
C37_4 C34_4 1_555 1_555
C38_4 C10_4 1_555 1_555
C39_4 C36_4 1_555 1_555
H22_4 C39_4 1_555 1_555
C40_4 C27_4 1_555 1_555
C41_4 C28_4 1_555 1_555
C42_4 C29_4 1_555 1_555
C1_4 O2_4 1_555 1_555
C6_4 C7_4 1_555 1_555
C12_4 O9_4 1_555 1_555
C27_4 C30_4 1_555 1_555
C28_4 C31_4 1_555 1_555
C29_4 C32_4 1_555 1_555
C33_4 C36_4 1_555 1_555
C35_4 C38_4 1_555 1_555
C37_4 C38_4 1_555 1_555
C37_4 C39_4 1_555 1_555
O8_8 H27_4 1_555 1_555
O26_7 H29_4 1_555 1_555
O26_8 Cu6_2 1_555 1_555
O33_4 Cu6_2 1_555 1_555
O26_8 H30_4 1_555 1_555
O18_3 Cu7_3 1_555 1_555
O26_9 Cu7_3 1_555 1_555
O26_9 H30_5 1_555 1_555
H6_5 C10_5 1_555 1_555
Cu5_4 O15_3 1_555 1_555
Cu4_2 O16_3 1_555 1_555
Cu11 O10_3 1_555 1_555
Cu12 O11_3 1_555 1_555
C13_5 C16_5 1_555 1_555
C14_5 C17_5 1_555 1_555
C16_5 C19_5 1_555 1_555
C17_5 C20_5 1_555 1_555
C19_5 H8_5 1_555 1_555
C20_5 H9_5 1_555 1_555
O10_3 C13_5 1_555 1_555
O11_3 C14_5 1_555 1_555
C22_5 C19_5 1_555 1_555
C23_5 C20_5 1_555 1_555
O15_3 C41_5 1_555 1_555
O16_3 C42_5 1_555 1_555
C25_5 C22_5 1_555 1_555
C26_5 C23_5 1_555 1_555
H11_5 C25_5 1_555 1_555
H12_5 C26_5 1_555 1_555
O23 C13_5 1_555 1_555
O25 C14_5 1_555 1_555
C28_5 C25_5 1_555 1_555
C29_5 C26_5 1_555 1_555
C31_5 C16_5 1_555 1_555
C32_5 C17_5 1_555 1_555
H14_5 C31_5 1_555 1_555
H15_5 C32_5 1_555 1_555
O33_2 C41_5 1_555 1_555
O31_2 C42_5 1_555 1_555
O35_5 C22_5 1_555 1_555
O36_5 C23_5 1_555 1_555
C34_5 O35_5 1_555 1_555
C35_5 O36_5 1_555 1_555
H17_5 C34_5 1_555 1_555
H18_5 C35_5 1_555 1_555
H20_5 C34_5 1_555 1_555
H21_5 C35_5 1_555 1_555
C37_5 C34_5 1_555 1_555
C38_5 C10_5 1_555 1_555
H22_5 C39_5 1_555 1_555
C41_5 C28_5 1_555 1_555
C42_5 C29_5 1_555 1_555
C28_5 C31_5 1_555 1_555
C29_5 C32_5 1_555 1_555
C35_5 C38_5 1_555 1_555
C37_5 C38_5 1_555 1_555
C37_5 C39_5 1_555 1_555
Cu9_2 O3_5 1_555 1_555
Cu14 O1_5 1_555 1_555
C1_5 C2_5 1_555 1_555
C2_5 C3_5 1_555 1_555
C3_5 H1_5 1_555 1_555
O2_5 Cu14 1_555 1_555
C4_5 C3_5 1_555 1_555
O3_5 C11_5 1_555 1_555
C5_5 C4_5 1_555 1_555
H2_5 C5_5 1_555 1_555
O24_3 C1_5 1_555 1_555
C6_5 C5_5 1_555 1_555
O5_5 Cu9_2 1_555 1_555
C7_5 C2_5 1_555 1_555
H3_5 C7_5 1_555 1_555
O30_3 C11_5 1_555 1_555
O7_5 C4_5 1_555 1_555
C8_5 O7_5 1_555 1_555
H4_5 C8_5 1_555 1_555
H5_5 C8_5 1_555 1_555
C9_5 C8_5 1_555 1_555
C10_6 C9_5 1_555 1_555
H6_6 C10_6 1_555 1_555
C11_5 C6_5 1_555 1_555
Cu7_4 O14_5 1_555 1_555
Cu16 O8_9 1_555 1_555
C12_5 C15_5 1_555 1_555
C15_5 C18_5 1_555 1_555
C18_5 H7_5 1_555 1_555
O9_5 Cu16 1_555 1_555
O13_3 Cu16 1_555 1_555
C21_5 C18_5 1_555 1_555
O14_5 C40_5 1_555 1_555
O17_3 Cu9_2 1_555 1_555
C24_5 C21_5 1_555 1_555
H10_5 C24_5 1_555 1_555
O22_3 C12_5 1_555 1_555
C27_5 C24_5 1_555 1_555
O26_10 Cu7_4 1_555 1_555
C30_5 C15_5 1_555 1_555
H13_5 C30_5 1_555 1_555
O32_3 C40_5 1_555 1_555
O34_5 C21_5 1_555 1_555
C33_5 O34_5 1_555 1_555
H16_5 C33_5 1_555 1_555
H19_5 C33_5 1_555 1_555
C36_5 C9_5 1_555 1_555
C39_6 C36_5 1_555 1_555
H22_6 C39_6 1_555 1_555
C40_5 C27_5 1_555 1_555
C1_5 O2_5 1_555 1_555
C6_5 C7_5 1_555 1_555
C12_5 O9_5 1_555 1_555
C27_5 C30_5 1_555 1_555
C33_5 C36_5 1_555 1_555
O1_5 H23 1_555 1_555
O26_10 H29_5 1_555 1_555
Cu14_2 O1_6 1_555 1_555
O12_3 Cu14_2 1_555 1_555
O1_6 H24 1_555 1_555
Cu14_3 O1_7 1_555 1_555
O12_4 Cu14_3 1_555 1_555
O1_7 H24_2 1_555 1_555
H6_7 C10_7 1_555 1_555
Cu5 O15_4 1_555 1_555
Cu4 O16_4 1_555 1_555
Cu11_2 O10_4 1_555 1_555
Cu12_4 O11_4 1_555 1_555
C13_6 C16_6 1_555 1_555
C14_6 C17_6 1_555 1_555
C16_6 C19_6 1_555 1_555
C17_6 C20_6 1_555 1_555
C19_6 H8_6 1_555 1_555
C20_6 H9_6 1_555 1_555
O10_4 C13_6 1_555 1_555
O11_4 C14_6 1_555 1_555
C22_6 C19_6 1_555 1_555
C23_6 C20_6 1_555 1_555
O15_4 C41_6 1_555 1_555
O16_4 C42_6 1_555 1_555
C25_6 C22_6 1_555 1_555
C26_6 C23_6 1_555 1_555
H11_6 C25_6 1_555 1_555
H12_6 C26_6 1_555 1_555
O23_2 C13_6 1_555 1_555
O25_2 C14_6 1_555 1_555
C28_6 C25_6 1_555 1_555
C29_6 C26_6 1_555 1_555
C31_6 C16_6 1_555 1_555
C32_6 C17_6 1_555 1_555
H14_6 C31_6 1_555 1_555
H15_6 C32_6 1_555 1_555
O33 C41_6 1_555 1_555
O31 C42_6 1_555 1_555
O35_6 C22_6 1_555 1_555
O36_6 C23_6 1_555 1_555
C34_6 O35_6 1_555 1_555
C35_6 O36_6 1_555 1_555
H17_6 C34_6 1_555 1_555
H18_6 C35_6 1_555 1_555
H20_6 C34_6 1_555 1_555
H21_6 C35_6 1_555 1_555
C37_6 C34_6 1_555 1_555
C38_6 C10_7 1_555 1_555
H22_7 C39_7 1_555 1_555
C41_6 C28_6 1_555 1_555
C42_6 C29_6 1_555 1_555
C28_6 C31_6 1_555 1_555
C29_6 C32_6 1_555 1_555
C35_6 C38_6 1_555 1_555
C37_6 C38_6 1_555 1_555
C37_6 C39_7 1_555 1_555
Cu9 O3_6 1_555 1_555
Cu14_4 O1_8 1_555 1_555
C1_6 C2_6 1_555 1_555
C2_6 C3_6 1_555 1_555
C3_6 H1_6 1_555 1_555
O2_6 Cu14_4 1_555 1_555
C4_6 C3_6 1_555 1_555
O3_6 C11_6 1_555 1_555
C5_6 C4_6 1_555 1_555
H2_6 C5_6 1_555 1_555
O24_4 C1_6 1_555 1_555
C6_6 C5_6 1_555 1_555
O5_6 Cu9 1_555 1_555
C7_6 C2_6 1_555 1_555
H3_6 C7_6 1_555 1_555
O30_4 C11_6 1_555 1_555
O7_6 C4_6 1_555 1_555
C8_6 O7_6 1_555 1_555
H4_6 C8_6 1_555 1_555
H5_6 C8_6 1_555 1_555
C9_6 C8_6 1_555 1_555
C10_8 C9_6 1_555 1_555
H6_8 C10_8 1_555 1_555
C11_6 C6_6 1_555 1_555
Cu7 O14_6 1_555 1_555
Cu16_2 O8_10 1_555 1_555
C12_6 C15_6 1_555 1_555
C15_6 C18_6 1_555 1_555
C18_6 H7_6 1_555 1_555
O9_6 Cu16_2 1_555 1_555
O13_4 Cu16_2 1_555 1_555
C21_6 C18_6 1_555 1_555
O14_6 C40_6 1_555 1_555
O17_4 Cu9 1_555 1_555
C24_6 C21_6 1_555 1_555
H10_6 C24_6 1_555 1_555
O22_4 C12_6 1_555 1_555
C27_6 C24_6 1_555 1_555
O26_11 Cu7 1_555 1_555
C30_6 C15_6 1_555 1_555
H13_6 C30_6 1_555 1_555
O32_4 C40_6 1_555 1_555
O34_6 C21_6 1_555 1_555
C33_6 O34_6 1_555 1_555
H16_6 C33_6 1_555 1_555
H19_6 C33_6 1_555 1_555
C36_6 C9_6 1_555 1_555
C39_8 C36_6 1_555 1_555
H22_8 C39_8 1_555 1_555
C40_6 C27_6 1_555 1_555
C1_6 O2_6 1_555 1_555
C6_6 C7_6 1_555 1_555
C12_6 O9_6 1_555 1_555
C27_6 C30_6 1_555 1_555
C33_6 C36_6 1_555 1_555
O1_8 H23_2 1_555 1_555
O26_11 H29_6 1_555 1_555
O18_4 Cu7_2 1_555 1_555
O26_12 Cu7_2 1_555 1_555
O26_12 H30_6 1_555 1_555
O26_13 Cu5 1_555 1_555
O26_13 H30_7 1_555 1_555
Cu12 O1_9 1_555 1_555
O1_9 H24_3 1_555 1_555
Cu4 O3_7 1_555 1_555
Cu12_2 O1_10 1_555 1_555
C1_7 C2_7 1_555 1_555
C2_7 C3_7 1_555 1_555
C3_7 H1_7 1_555 1_555
O2_7 Cu12_2 1_555 1_555
C4_7 C3_7 1_555 1_555
O3_7 C11_7 1_555 1_555
C5_7 C4_7 1_555 1_555
H2_7 C5_7 1_555 1_555
O24 C1_7 1_555 1_555
C6_7 C5_7 1_555 1_555
O5_7 Cu4 1_555 1_555
C7_7 C2_7 1_555 1_555
H3_7 C7_7 1_555 1_555
O30 C11_7 1_555 1_555
O7_7 C4_7 1_555 1_555
C8_7 O7_7 1_555 1_555
H4_7 C8_7 1_555 1_555
H5_7 C8_7 1_555 1_555
C9_7 C8_7 1_555 1_555
C10_9 C9_7 1_555 1_555
H6_9 C10_9 1_555 1_555
C11_7 C6_7 1_555 1_555
Cu5_2 O14_7 1_555 1_555
Cu11 O8_11 1_555 1_555
C12_7 C15_7 1_555 1_555
C15_7 C18_7 1_555 1_555
C18_7 H7_7 1_555 1_555
O9_7 Cu11 1_555 1_555
C21_7 C18_7 1_555 1_555
O14_7 C40_7 1_555 1_555
C24_7 C21_7 1_555 1_555
H10_7 C24_7 1_555 1_555
O22 C12_7 1_555 1_555
C27_7 C24_7 1_555 1_555
O26_14 Cu5_2 1_555 1_555
C30_7 C15_7 1_555 1_555
H13_7 C30_7 1_555 1_555
O32 C40_7 1_555 1_555
O34_7 C21_7 1_555 1_555
C33_7 O34_7 1_555 1_555
H16_7 C33_7 1_555 1_555
H19_7 C33_7 1_555 1_555
C36_7 C9_7 1_555 1_555
C39_9 C36_7 1_555 1_555
H22_9 C39_9 1_555 1_555
C40_7 C27_7 1_555 1_555
C1_7 O2_7 1_555 1_555
C6_7 C7_7 1_555 1_555
C12_7 O9_7 1_555 1_555
C27_7 C30_7 1_555 1_555
C33_7 C36_7 1_555 1_555
O1_10 H23_3 1_555 1_555
O26_14 H29_7 1_555 1_555
H6_10 C10_10 1_555 1_555
C13_7 C16_7 1_555 1_555
C14_7 C17_7 1_555 1_555
C16_7 C19_7 1_555 1_555
C17_7 C20_7 1_555 1_555
C19_7 H8_7 1_555 1_555
C20_7 H9_7 1_555 1_555
O13_3 C13_7 1_555 1_555
O12_3 C14_7 1_555 1_555
C22_7 C19_7 1_555 1_555
C23_7 C20_7 1_555 1_555
O18_4 C41_7 1_555 1_555
O17_4 C42_7 1_555 1_555
C25_7 C22_7 1_555 1_555
C26_7 C23_7 1_555 1_555
H11_7 C25_7 1_555 1_555
H12_7 C26_7 1_555 1_555
O23_3 C13_7 1_555 1_555
O25_3 C14_7 1_555 1_555
C28_7 C25_7 1_555 1_555
C29_7 C26_7 1_555 1_555
C31_7 C16_7 1_555 1_555
C32_7 C17_7 1_555 1_555
H14_7 C31_7 1_555 1_555
H15_7 C32_7 1_555 1_555
O33_4 C41_7 1_555 1_555
O31_4 C42_7 1_555 1_555
O35_7 C22_7 1_555 1_555
O36_7 C23_7 1_555 1_555
C34_7 O35_7 1_555 1_555
C35_7 O36_7 1_555 1_555
H17_7 C34_7 1_555 1_555
H18_7 C35_7 1_555 1_555
H20_7 C34_7 1_555 1_555
H21_7 C35_7 1_555 1_555
C37_7 C34_7 1_555 1_555
C38_7 C10_10 1_555 1_555
H22_10 C39_10 1_555 1_555
C41_7 C28_7 1_555 1_555
C42_7 C29_7 1_555 1_555
C28_7 C31_7 1_555 1_555
C29_7 C32_7 1_555 1_555
C35_7 C38_7 1_555 1_555
C37_7 C38_7 1_555 1_555
C37_7 C39_10 1_555 1_555
Cu4_2 O3_8 1_555 1_555
Cu12_3 O1_11 1_555 1_555
C1_8 C2_8 1_555 1_555
C2_8 C3_8 1_555 1_555
C3_8 H1_8 1_555 1_555
O2_8 Cu12_3 1_555 1_555
C4_8 C3_8 1_555 1_555
O3_8 C11_8 1_555 1_555
C5_8 C4_8 1_555 1_555
H2_8 C5_8 1_555 1_555
O24_2 C1_8 1_555 1_555
C6_8 C5_8 1_555 1_555
O5_8 Cu4_2 1_555 1_555
C7_8 C2_8 1_555 1_555
H3_8 C7_8 1_555 1_555
O30_2 C11_8 1_555 1_555
O7_8 C4_8 1_555 1_555
C8_8 O7_8 1_555 1_555
H4_8 C8_8 1_555 1_555
H5_8 C8_8 1_555 1_555
C9_8 C8_8 1_555 1_555
C10_11 C9_8 1_555 1_555
H6_11 C10_11 1_555 1_555
C11_8 C6_8 1_555 1_555
Cu5_3 O14_8 1_555 1_555
Cu11_2 O8_12 1_555 1_555
C12_8 C15_8 1_555 1_555
C15_8 C18_8 1_555 1_555
C18_8 H7_8 1_555 1_555
O9_8 Cu11_2 1_555 1_555
C21_8 C18_8 1_555 1_555
O14_8 C40_8 1_555 1_555
C24_8 C21_8 1_555 1_555
H10_8 C24_8 1_555 1_555
O22_2 C12_8 1_555 1_555
C27_8 C24_8 1_555 1_555
O26_15 Cu5_3 1_555 1_555
C30_8 C15_8 1_555 1_555
H13_8 C30_8 1_555 1_555
O32_2 C40_8 1_555 1_555
O34_8 C21_8 1_555 1_555
C33_8 O34_8 1_555 1_555
H16_8 C33_8 1_555 1_555
H19_8 C33_8 1_555 1_555
C36_8 C9_8 1_555 1_555
C39_11 C36_8 1_555 1_555
H22_11 C39_11 1_555 1_555
C40_8 C27_8 1_555 1_555
C1_8 O2_8 1_555 1_555
C6_8 C7_8 1_555 1_555
C12_8 O9_8 1_555 1_555
C27_8 C30_8 1_555 1_555
C33_8 C36_8 1_555 1_555
O1_11 H23_4 1_555 1_555
O26_15 H29_8 1_555 1_555
H6_12 C10_12 1_555 1_555
C13_8 C16_8 1_555 1_555
C14_8 C17_8 1_555 1_555
C16_8 C19_8 1_555 1_555
C17_8 C20_8 1_555 1_555
C19_8 H8_8 1_555 1_555
C20_8 H9_8 1_555 1_555
O13_4 C13_8 1_555 1_555
O12_4 C14_8 1_555 1_555
C22_8 C19_8 1_555 1_555
C23_8 C20_8 1_555 1_555
O18_3 C41_8 1_555 1_555
O17_3 C42_8 1_555 1_555
C25_8 C22_8 1_555 1_555
C26_8 C23_8 1_555 1_555
H11_8 C25_8 1_555 1_555
H12_8 C26_8 1_555 1_555
O23_4 C13_8 1_555 1_555
O25_4 C14_8 1_555 1_555
C28_8 C25_8 1_555 1_555
C29_8 C26_8 1_555 1_555
C31_8 C16_8 1_555 1_555
C32_8 C17_8 1_555 1_555
H14_8 C31_8 1_555 1_555
H15_8 C32_8 1_555 1_555
O33_3 C41_8 1_555 1_555
O31_3 C42_8 1_555 1_555
O35_8 C22_8 1_555 1_555
O36_8 C23_8 1_555 1_555
C34_8 O35_8 1_555 1_555
C35_8 O36_8 1_555 1_555
H17_8 C34_8 1_555 1_555
H18_8 C35_8 1_555 1_555
H20_8 C34_8 1_555 1_555
H21_8 C35_8 1_555 1_555
C37_8 C34_8 1_555 1_555
C38_8 C10_12 1_555 1_555
H22_12 C39_12 1_555 1_555
C41_8 C28_8 1_555 1_555
C42_8 C29_8 1_555 1_555
C28_8 C31_8 1_555 1_555
C29_8 C32_8 1_555 1_555
C35_8 C38_8 1_555 1_555
C37_8 C38_8 1_555 1_555
C37_8 C39_12 1_555 1_555
Cu12_4 O1_12 1_555 1_555
O1_12 H24_4 1_555 1_555
O26_16 Cu5_4 1_555 1_555
O26_16 H30_8 1_555 1_555
O8_7 H27_5 1_555 1_555
O26_5 H29_9 1_555 1_555
O8_8 H28_5 1_555 1_555
O26_6 H30_9 1_555 1_555
O26_7 H30_10 1_555 1_555
O8_5 H28_6 1_555 1_555
O8_6 H27_6 1_555 1_555
O26_8 H29_10 1_555 1_555
O8_3 H28_7 1_555 1_555
O8_4 H27_7 1_555 1_555
O26 H29_11 1_555 1_555
O26_2 H30_11 1_555 1_555
O26_3 H30_12 1_555 1_555
O8 H27_8 1_555 1_555
O26_4 H29_12 1_555 1_555
O8_2 H28_8 1_555 1_555
O1_11 H24_5 1_555 1_555
O1_12 H23_5 1_555 1_555
O26_13 H29_13 1_555 1_555
O26_14 H30_13 1_555 1_555
O26_15 H30_14 1_555 1_555
O1_9 H23_6 1_555 1_555
O26_16 H29_14 1_555 1_555
O1_10 H24_6 1_555 1_555
O1_7 H23_7 1_555 1_555
O26_9 H29_15 1_555 1_555
O1_8 H24_7 1_555 1_555
O26_10 H30_15 1_555 1_555
O26_11 H30_16 1_555 1_555
O1_5 H24_8 1_555 1_555
O1_6 H23_8 1_555 1_555
O26_12 H29_16 1_555 1_555

#END
