
###############################################################################
#
# This file contains modified crystal structure data generated from the
# MOF subset of the Cambridge Structural Database (CSD) v543 
# hosted by the Cambridge Crystallographic Data Centre (CCDC).
#
# This work is licensed under the Creative Commons
# Attribution-NonCommercial-ShareAlike 4.0 International License.
# To view a copy of this license, visit
# http://creativecommons.org/licenses/by-nc-sa/4.0/
# or send a letter to
# Creative Commons, PO Box 1866, Mountain View, CA 94042, USA.
#
# CIF created using the CSD Python API on 29 September 2022
# The structure has been converted into the P1 space group
# The structure has a 3D framework
# The original CSD entry CAJVUG is in the tetragonal crystal system
# The original CSD entry CAJVUG is in a Sohncke space group
# The framework has been calculated to contain at least 10.0% void space
# The void calculation uses a probe of radius 1.32A, grid spacing 0.4
#
###############################################################################

data_CAJVUG
_chemical_formula_moiety         '(C128 H96 In4 N4 O24)n'
_symmetry_cell_setting           triclinic
_symmetry_space_group_name_H-M   'P 1'
_symmetry_Int_Tables_number      1
_space_group_name_Hall           'P 1'
loop_
_symmetry_equiv_pos_site_id
_symmetry_equiv_pos_as_xyz
1 x,y,z
_cell_length_a                   9.8480(2)
_cell_length_b                   9.8480(2)
_cell_length_c                   35.0588(14)
_cell_angle_alpha                90
_cell_angle_beta                 90
_cell_angle_gamma                90
_cell_volume                     3400.11
loop_
_atom_site_label
_atom_site_type_symbol
_atom_site_fract_x
_atom_site_fract_y
_atom_site_fract_z
C1 C 0.0451(19) 0.0460(18) 0.0867(6)
H4 H 0.0940 0.0521 0.1110
H5 H 0.1104 0.0380 0.0657
C2 C 0.040(2) 0.279(2) 0.0822(7)
H7 H 0.1089 0.2780 0.0621
H8 H 0.0838 0.2902 0.1071
N1 N 0.9698(18) 0.1581(16) 0.0817(6)
H1 H 0.9049 0.1607 0.1006
H2 H 0.9253 0.1511 0.0588
H6 H 0.9766 0.3539 0.0778
H3 H 0.9858 0.9661 0.0869
H3_2 H 0.0339 0.9858 0.3369
C1_2 C 0.9540(18) 0.0451(19) 0.3367(6)
H4_2 H 0.9479 0.0940 0.3610
H5_2 H 0.9620 0.1104 0.3157
C2_2 C 0.721(2) 0.040(2) 0.3322(7)
H7_2 H 0.7220 0.1089 0.3121
H8_2 H 0.7098 0.0838 0.3571
N1_2 N 0.8419(16) 0.9698(18) 0.3317(6)
H1_2 H 0.8393 0.9049 0.3506
H2_2 H 0.8489 0.9253 0.3088
H6_2 H 0.6461 0.9766 0.3278
H3_3 H 0.0142 0.0339 0.5869
N1_3 N 0.0302(18) 0.8419(16) 0.5817(6)
H1_3 H 0.0951 0.8393 0.6006
H2_3 H 0.0747 0.8489 0.5588
H6_3 H 0.0234 0.6461 0.5778
C1_3 C 0.9549(19) 0.9540(18) 0.5867(6)
H4_3 H 0.9060 0.9479 0.6110
H5_3 H 0.8896 0.9620 0.5657
C2_3 C 0.960(2) 0.721(2) 0.5822(7)
H7_3 H 0.8911 0.7220 0.5621
H8_3 H 0.9162 0.7098 0.6071
N1_4 N 0.1581(16) 0.0302(18) 0.8317(6)
H1_4 H 0.1607 0.0951 0.8506
H2_4 H 0.1511 0.0747 0.8088
H6_4 H 0.3539 0.0234 0.8278
C1_4 C 0.0460(18) 0.9549(19) 0.8367(6)
H4_4 H 0.0521 0.9060 0.8610
H5_4 H 0.0380 0.8896 0.8157
C2_4 C 0.279(2) 0.960(2) 0.8322(7)
H7_4 H 0.2780 0.8911 0.8121
H8_4 H 0.2902 0.9162 0.8571
H3_4 H 0.9661 0.0142 0.8369
O4 O 0.1630(7) 0.0844(6) 0.98218(18)
In2 In 0.15131(5) 0.23063(5) 0.93583(2)
O3 O 0.7155(6) 0.7638(7) 0.38388(15)
O6 O 0.0941(6) 0.7690(6) 0.44370(19)
O7 O 0.6177(6) 0.7511(10) 0.4391(3)
C6 C 0.2295(11) 0.8448(9) 0.0196(2)
H10 H 0.2489 0.9288 0.0318
C7 C 0.2368(10) 0.7311(9) 0.0402(2)
C8 C 0.2087(10) 0.6075(9) 0.0219(2)
H11 H 0.2103 0.5250 0.0359
C9 C 0.4724(9) 0.7532(10) 0.3848(2)
C10 C 0.4691(9) 0.7468(12) 0.3460(2)
H12 H 0.5521 0.7467 0.3322
C11 C 0.3453(8) 0.7403(11) 0.3259(2)
C12 C 0.2265(8) 0.7502(11) 0.3482(2)
H13 H 0.1408 0.7513 0.3358
C13 C 0.2311(9) 0.7582(9) 0.3872(2)
C14 C 0.3533(8) 0.7589(10) 0.4053(3)
H14 H 0.3565 0.7633 0.4324
C15 C 0.3394(9) 0.7343(13) 0.2839(3)
C16 C 0.2354(10) 0.6721(15) 0.2667(3)
H15 H 0.1686 0.6289 0.2820
C17 C 0.2212(11) 0.6683(15) 0.2276(3)
C18 C 0.3196(9) 0.7311(12) 0.2045(3)
C19 C 0.4350(12) 0.7875(14) 0.2214(3)
H16 H 0.5083 0.8213 0.2065
C20 C 0.4370(11) 0.7918(14) 0.2609(3)
H17 H 0.5106 0.8373 0.2728
C21 C 0.2623(10) 0.7306(9) 0.0820(2)
C22 C 0.3548(13) 0.8187(10) 0.0992(3)
H18 H 0.4034 0.8814 0.0838
C23 C 0.3782(11) 0.8173(10) 0.1389(3)
H19 H 0.4443 0.8763 0.1497
C24 C 0.3025(8) 0.7270(12) 0.1632(3)
C25 C 0.2111(13) 0.6387(12) 0.1461(3)
C26 C 0.1907(9) 0.6394(11) 0.1060(3)
H20 H 0.1278 0.5775 0.0950
C27 C 0.6098(9) 0.7638(9) 0.4040(3)
C30 C 0.0987(10) 0.7649(9) 0.4085(3)
C31 C 0.1322(10) 0.5429(13) 0.1707(3)
H21 H 0.1882 0.4618 0.1763
H22 H 0.0499 0.5127 0.1569
C32 C 0.0913(12) 0.6107(17) 0.2079(3)
H23 H 0.0465 0.5439 0.2248
H24 H 0.0264 0.6852 0.2027
In4 In 0.84869(5) 0.76937(5) 0.43583(2)
O1 O 0.1480(7) 0.4625(6) 0.92806(15)
O5 O 0.1496(6) 0.3689(5) 0.98560(16)
O8 O 0.1691(8) 0.9889(6) 0.92673(17)
C3 C 0.1785(9) 0.6058(9) 0.9829(3)
C4 C 0.1714(8) 0.7237(8) 0.9615(3)
H9 H 0.1519 0.7225 0.9350
C5 C 0.1950(8) 0.8462(9) 0.9815(2)
C28 C 0.1562(10) 0.4773(9) 0.9642(2)
C29 C 0.1780(11) 0.9762(9) 0.9618(3)
O9 O 0.0068(7) 0.2203(7) 0.88898(18)
O10 O 0.2845(6) 0.2362(7) 0.88388(15)
O13 O 0.3823(6) 0.2489(10) 0.9391(3)
O2 O 0.9932(7) 0.7797(7) 0.38898(18)
O12 O 0.9059(6) 0.2310(6) 0.94370(19)
O14 O 0.8309(8) 0.0111(6) 0.42673(17)
O1_2 O 0.8520(7) 0.5375(6) 0.42806(15)
O5_2 O 0.8504(6) 0.6311(5) 0.48560(16)
C3_2 C 0.8215(9) 0.3942(9) 0.4829(3)
C4_2 C 0.8286(8) 0.2763(8) 0.4615(3)
H9_2 H 0.8481 0.2775 0.4350
C5_2 C 0.8050(8) 0.1538(9) 0.4815(2)
C6_2 C 0.7705(11) 0.1552(9) 0.5196(2)
H10_2 H 0.7511 0.0712 0.5318
C7_2 C 0.7632(10) 0.2689(9) 0.5402(2)
C8_2 C 0.7913(10) 0.3925(9) 0.5219(2)
H11_2 H 0.7897 0.4750 0.5359
C9_2 C 0.5276(9) 0.2468(10) 0.8848(2)
C10_2 C 0.5309(9) 0.2532(12) 0.8460(2)
H12_2 H 0.4479 0.2533 0.8322
C11_2 C 0.6547(8) 0.2597(11) 0.8259(2)
C12_2 C 0.7735(8) 0.2498(11) 0.8482(2)
H13_2 H 0.8592 0.2487 0.8358
C13_2 C 0.7689(9) 0.2418(9) 0.8872(2)
C14_2 C 0.6467(8) 0.2411(10) 0.9053(3)
H14_2 H 0.6435 0.2367 0.9324
C15_2 C 0.6606(9) 0.2657(13) 0.7839(3)
C16_2 C 0.7646(10) 0.3279(15) 0.7667(3)
H15_2 H 0.8314 0.3711 0.7820
C17_2 C 0.7788(11) 0.3317(15) 0.7276(3)
C18_2 C 0.6804(9) 0.2689(12) 0.7045(3)
C19_2 C 0.5650(12) 0.2125(14) 0.7214(3)
H16_2 H 0.4917 0.1787 0.7065
C20_2 C 0.5630(11) 0.2082(14) 0.7609(3)
H17_2 H 0.4894 0.1627 0.7728
C21_2 C 0.7377(10) 0.2694(9) 0.5820(2)
C22_2 C 0.6452(13) 0.1813(10) 0.5992(3)
H18_2 H 0.5966 0.1186 0.5838
C23_2 C 0.6218(11) 0.1827(10) 0.6389(3)
H19_2 H 0.5557 0.1237 0.6497
C24_2 C 0.6975(8) 0.2730(12) 0.6632(3)
C25_2 C 0.7889(13) 0.3613(12) 0.6461(3)
C26_2 C 0.8093(9) 0.3606(11) 0.6060(3)
H20_2 H 0.8722 0.4225 0.5950
C27_2 C 0.3902(9) 0.2362(9) 0.9040(3)
C28_2 C 0.8438(10) 0.5227(9) 0.4642(2)
C29_2 C 0.8220(11) 0.0238(9) 0.4618(3)
C30_2 C 0.9013(10) 0.2351(9) 0.9085(3)
C31_2 C 0.8678(10) 0.4571(13) 0.6707(3)
H21_2 H 0.8118 0.5382 0.6763
H22_2 H 0.9501 0.4873 0.6569
C32_2 C 0.9087(12) 0.3893(17) 0.7079(3)
H23_2 H 0.9535 0.4561 0.7248
H24_2 H 0.9736 0.3148 0.7027
O11 O 0.8370(7) 0.9156(6) 0.48218(18)
O14_2 O 0.0111(6) 0.1691(8) 0.17673(17)
In1 In 0.76937(5) 0.15131(5) 0.18583(2)
O1_3 O 0.5375(6) 0.1480(7) 0.17806(15)
O3_2 O 0.2362(7) 0.7155(6) 0.63388(15)
O5_3 O 0.6311(5) 0.1496(6) 0.23560(16)
O6_2 O 0.2310(6) 0.0941(6) 0.69370(19)
O7_2 O 0.2489(10) 0.6177(6) 0.6891(3)
C3_3 C 0.3942(9) 0.1785(9) 0.2329(3)
C4_3 C 0.2763(8) 0.1714(8) 0.2115(3)
H9_3 H 0.2775 0.1519 0.1850
C5_3 C 0.1538(9) 0.1950(8) 0.2315(2)
C6_3 C 0.1552(9) 0.2295(11) 0.2696(2)
H10_3 H 0.0712 0.2489 0.2818
C7_3 C 0.2689(9) 0.2368(10) 0.2902(2)
C8_3 C 0.3925(9) 0.2087(10) 0.2719(2)
H11_3 H 0.4750 0.2103 0.2859
C9_3 C 0.2468(10) 0.4724(9) 0.6348(2)
C10_3 C 0.2532(12) 0.4691(9) 0.5960(2)
H12_3 H 0.2533 0.5521 0.5822
C11_3 C 0.2597(11) 0.3453(8) 0.5759(2)
C12_3 C 0.2498(11) 0.2265(8) 0.5982(2)
H13_3 H 0.2487 0.1408 0.5858
C13_3 C 0.2418(9) 0.2311(9) 0.6372(2)
C14_3 C 0.2411(10) 0.3533(8) 0.6553(3)
H14_3 H 0.2367 0.3565 0.6824
C15_3 C 0.2657(13) 0.3394(9) 0.5339(3)
C16_3 C 0.3279(15) 0.2354(10) 0.5167(3)
H15_3 H 0.3711 0.1686 0.5320
C17_3 C 0.3317(15) 0.2212(11) 0.4776(3)
C18_3 C 0.2689(12) 0.3196(9) 0.4545(3)
C19_3 C 0.2125(14) 0.4350(12) 0.4714(3)
H16_3 H 0.1787 0.5083 0.4565
C20_3 C 0.2082(14) 0.4370(11) 0.5109(3)
H17_3 H 0.1627 0.5106 0.5228
C21_3 C 0.2694(9) 0.2623(10) 0.3320(2)
C22_3 C 0.1813(10) 0.3548(13) 0.3492(3)
H18_3 H 0.1186 0.4034 0.3338
C23_3 C 0.1827(10) 0.3782(11) 0.3889(3)
H19_3 H 0.1237 0.4443 0.3997
C24_3 C 0.2730(12) 0.3025(8) 0.4132(3)
C25_3 C 0.3613(12) 0.2111(13) 0.3961(3)
C26_3 C 0.3606(11) 0.1907(9) 0.3560(3)
H20_3 H 0.4225 0.1278 0.3450
C27_3 C 0.2362(9) 0.6098(9) 0.6540(3)
C28_3 C 0.5227(9) 0.1562(10) 0.2142(2)
C29_3 C 0.0238(9) 0.1780(11) 0.2118(3)
C30_3 C 0.2351(9) 0.0987(10) 0.6585(3)
C31_3 C 0.4571(13) 0.1322(10) 0.4207(3)
H21_3 H 0.5382 0.1882 0.4263
H22_3 H 0.4873 0.0499 0.4069
C32_3 C 0.3893(17) 0.0913(12) 0.4579(3)
H23_3 H 0.4561 0.0465 0.4748
H24_3 H 0.3148 0.0264 0.4527
In4_2 In 0.23063(5) 0.84869(5) 0.68583(2)
O9_2 O 0.7797(7) 0.0068(7) 0.13898(18)
O10_2 O 0.7638(7) 0.2845(6) 0.13388(15)
O11_2 O 0.9156(6) 0.1630(7) 0.23218(18)
O13_2 O 0.7511(10) 0.3823(6) 0.1891(3)
O2_2 O 0.2203(7) 0.9932(7) 0.63898(18)
O12_2 O 0.7690(6) 0.9059(6) 0.19370(19)
O4_2 O 0.0844(6) 0.8370(7) 0.73218(18)
C9_4 C 0.7532(10) 0.5276(9) 0.1348(2)
C10_4 C 0.7468(12) 0.5309(9) 0.0960(2)
H12_4 H 0.7467 0.4479 0.0822
C11_4 C 0.7403(11) 0.6547(8) 0.0759(2)
C12_4 C 0.7502(11) 0.7735(8) 0.0982(2)
H13_4 H 0.7513 0.8592 0.0858
C13_4 C 0.7582(9) 0.7689(9) 0.1372(2)
C14_4 C 0.7589(10) 0.6467(8) 0.1553(3)
H14_4 H 0.7633 0.6435 0.1824
C15_4 C 0.7343(13) 0.6606(9) 0.0339(3)
C16_4 C 0.6721(15) 0.7646(10) 0.0167(3)
H15_4 H 0.6289 0.8314 0.0320
C20_4 C 0.7918(14) 0.5630(11) 0.0109(3)
H17_4 H 0.8373 0.4894 0.0228
C27_4 C 0.7638(9) 0.3902(9) 0.1540(3)
C30_4 C 0.7649(9) 0.9013(10) 0.1585(3)
O1_4 O 0.4625(6) 0.8520(7) 0.67806(15)
O5_4 O 0.3689(5) 0.8504(6) 0.73560(16)
O8_2 O 0.9889(6) 0.8309(8) 0.67673(17)
C3_4 C 0.6058(9) 0.8215(9) 0.7329(3)
C4_4 C 0.7237(8) 0.8286(8) 0.7115(3)
H9_4 H 0.7225 0.8481 0.6850
C5_4 C 0.8462(9) 0.8050(8) 0.7315(2)
C6_4 C 0.8448(9) 0.7705(11) 0.7696(2)
H10_4 H 0.9288 0.7511 0.7818
C7_4 C 0.7311(9) 0.7632(10) 0.7902(2)
C8_4 C 0.6075(9) 0.7913(10) 0.7719(2)
H11_4 H 0.5250 0.7897 0.7859
C17_4 C 0.6683(15) 0.7788(11) 0.9776(3)
C18_4 C 0.7311(12) 0.6804(9) 0.9545(3)
C19_4 C 0.7875(14) 0.5650(12) 0.9714(3)
H16_4 H 0.8213 0.4917 0.9565
C21_4 C 0.7306(9) 0.7377(10) 0.8320(2)
C22_4 C 0.8187(10) 0.6452(13) 0.8492(3)
H18_4 H 0.8814 0.5966 0.8338
C23_4 C 0.8173(10) 0.6218(11) 0.8889(3)
H19_4 H 0.8763 0.5557 0.8997
C24_4 C 0.7270(12) 0.6975(8) 0.9132(3)
C25_4 C 0.6387(12) 0.7889(13) 0.8961(3)
C26_4 C 0.6394(11) 0.8093(9) 0.8560(3)
H20_4 H 0.5775 0.8722 0.8450
C28_4 C 0.4773(9) 0.8438(10) 0.7142(2)
C29_4 C 0.9762(9) 0.8220(11) 0.7118(3)
C31_4 C 0.5429(13) 0.8678(10) 0.9207(3)
H21_4 H 0.4618 0.8118 0.9263
H22_4 H 0.5127 0.9501 0.9069
C32_4 C 0.6107(17) 0.9087(12) 0.9579(3)
H23_4 H 0.5439 0.9535 0.9748
H24_4 H 0.6852 0.9736 0.9527
loop_
_geom_bond_atom_site_label_1
_geom_bond_atom_site_label_2
_geom_bond_site_symmetry_1
_geom_bond_site_symmetry_2
H4 C1 1_555 1_555
H5 C1 1_555 1_555
H7 C2 1_555 1_555
H8 C2 1_555 1_555
N1 H1 1_555 1_555
H2 N1 1_555 1_555
H4_2 C1_2 1_555 1_555
H5_2 C1_2 1_555 1_555
H7_2 C2_2 1_555 1_555
H8_2 C2_2 1_555 1_555
N1_2 H1_2 1_555 1_555
H2_2 N1_2 1_555 1_555
N1_3 H1_3 1_555 1_555
H2_3 N1_3 1_555 1_555
H4_3 C1_3 1_555 1_555
H5_3 C1_3 1_555 1_555
H7_3 C2_3 1_555 1_555
H8_3 C2_3 1_555 1_555
N1_4 H1_4 1_555 1_555
H2_4 N1_4 1_555 1_555
H4_4 C1_4 1_555 1_555
H5_4 C1_4 1_555 1_555
H7_4 C2_4 1_555 1_555
H8_4 C2_4 1_555 1_555
In2 O4 1_555 1_555
O3 C27 1_555 1_555
O6 C30 1_555 1_555
O7 C27 1_555 1_555
H10 C6 1_555 1_555
C7 C6 1_555 1_555
H11 C8 1_555 1_555
C9 C10 1_555 1_555
C10 H12 1_555 1_555
C11 C10 1_555 1_555
C12 C11 1_555 1_555
H13 C12 1_555 1_555
C13 C12 1_555 1_555
C14 C9 1_555 1_555
H14 C14 1_555 1_555
C15 C11 1_555 1_555
C16 C15 1_555 1_555
H15 C16 1_555 1_555
C17 C16 1_555 1_555
C18 C17 1_555 1_555
C19 C18 1_555 1_555
H16 C19 1_555 1_555
C20 C15 1_555 1_555
H17 C20 1_555 1_555
C21 C7 1_555 1_555
C22 C21 1_555 1_555
H18 C22 1_555 1_555
C23 C22 1_555 1_555
H19 C23 1_555 1_555
C24 C18 1_555 1_555
C25 C24 1_555 1_555
C26 C21 1_555 1_555
H20 C26 1_555 1_555
C27 C9 1_555 1_555
C30 C13 1_555 1_555
C31 C25 1_555 1_555
H21 C31 1_555 1_555
H22 C31 1_555 1_555
C32 C17 1_555 1_555
H23 C32 1_555 1_555
H24 C32 1_555 1_555
In4 O3 1_555 1_555
O7 In4 1_555 1_555
C7 C8 1_555 1_555
C13 C14 1_555 1_555
C19 C20 1_555 1_555
C23 C24 1_555 1_555
C25 C26 1_555 1_555
C31 C32 1_555 1_555
In2 O1 1_555 1_555
O1 C28 1_555 1_555
O5 In2 1_555 1_555
O8 C29 1_555 1_555
C3 C4 1_555 1_555
C4 H9 1_555 1_555
C5 C4 1_555 1_555
C28 O5 1_555 1_555
C29 C5 1_555 1_555
O9 In2 1_555 1_555
O10 In2 1_555 1_555
O13 In2 1_555 1_555
C3 C28 1_555 1_555
In4 O2 1_555 1_555
In4 O1_2 1_555 1_555
O1_2 C28_2 1_555 1_555
O10 C27_2 1_555 1_555
O5_2 In4 1_555 1_555
O12 C30_2 1_555 1_555
O13 C27_2 1_555 1_555
O14 C29_2 1_555 1_555
C3_2 C4_2 1_555 1_555
C4_2 H9_2 1_555 1_555
C5_2 C4_2 1_555 1_555
C6_2 C5_2 1_555 1_555
H10_2 C6_2 1_555 1_555
C7_2 C6_2 1_555 1_555
C8_2 C3_2 1_555 1_555
H11_2 C8_2 1_555 1_555
C9_2 C10_2 1_555 1_555
C10_2 H12_2 1_555 1_555
C11_2 C10_2 1_555 1_555
C12_2 C11_2 1_555 1_555
H13_2 C12_2 1_555 1_555
C13_2 C12_2 1_555 1_555
C14_2 C9_2 1_555 1_555
H14_2 C14_2 1_555 1_555
C15_2 C11_2 1_555 1_555
C16_2 C15_2 1_555 1_555
H15_2 C16_2 1_555 1_555
C17_2 C16_2 1_555 1_555
C18_2 C17_2 1_555 1_555
C19_2 C18_2 1_555 1_555
H16_2 C19_2 1_555 1_555
C20_2 C15_2 1_555 1_555
H17_2 C20_2 1_555 1_555
C21_2 C7_2 1_555 1_555
C22_2 C21_2 1_555 1_555
H18_2 C22_2 1_555 1_555
C23_2 C22_2 1_555 1_555
H19_2 C23_2 1_555 1_555
C24_2 C18_2 1_555 1_555
C25_2 C24_2 1_555 1_555
C26_2 C21_2 1_555 1_555
H20_2 C26_2 1_555 1_555
C27_2 C9_2 1_555 1_555
C28_2 O5_2 1_555 1_555
C29_2 C5_2 1_555 1_555
C30_2 C13_2 1_555 1_555
C31_2 C25_2 1_555 1_555
H21_2 C31_2 1_555 1_555
H22_2 C31_2 1_555 1_555
C32_2 C17_2 1_555 1_555
H23_2 C32_2 1_555 1_555
H24_2 C32_2 1_555 1_555
O11 In4 1_555 1_555
C3_2 C28_2 1_555 1_555
C7_2 C8_2 1_555 1_555
C13_2 C14_2 1_555 1_555
C19_2 C20_2 1_555 1_555
C23_2 C24_2 1_555 1_555
C25_2 C26_2 1_555 1_555
C31_2 C32_2 1_555 1_555
In1 O1_3 1_555 1_555
O1_3 C28_3 1_555 1_555
O3_2 C27_3 1_555 1_555
O5_3 In1 1_555 1_555
O6_2 C30_3 1_555 1_555
O7_2 C27_3 1_555 1_555
O14_2 C29_3 1_555 1_555
C3_3 C4_3 1_555 1_555
C4_3 H9_3 1_555 1_555
C5_3 C4_3 1_555 1_555
C6_3 C5_3 1_555 1_555
H10_3 C6_3 1_555 1_555
C7_3 C6_3 1_555 1_555
C8_3 C3_3 1_555 1_555
H11_3 C8_3 1_555 1_555
C9_3 C10_3 1_555 1_555
C10_3 H12_3 1_555 1_555
C11_3 C10_3 1_555 1_555
C12_3 C11_3 1_555 1_555
H13_3 C12_3 1_555 1_555
C13_3 C12_3 1_555 1_555
C14_3 C9_3 1_555 1_555
H14_3 C14_3 1_555 1_555
C15_3 C11_3 1_555 1_555
C16_3 C15_3 1_555 1_555
H15_3 C16_3 1_555 1_555
C17_3 C16_3 1_555 1_555
C18_3 C17_3 1_555 1_555
C19_3 C18_3 1_555 1_555
H16_3 C19_3 1_555 1_555
C20_3 C15_3 1_555 1_555
H17_3 C20_3 1_555 1_555
C21_3 C7_3 1_555 1_555
C22_3 C21_3 1_555 1_555
H18_3 C22_3 1_555 1_555
C23_3 C22_3 1_555 1_555
H19_3 C23_3 1_555 1_555
C24_3 C18_3 1_555 1_555
C25_3 C24_3 1_555 1_555
C26_3 C21_3 1_555 1_555
H20_3 C26_3 1_555 1_555
C27_3 C9_3 1_555 1_555
C28_3 O5_3 1_555 1_555
C29_3 C5_3 1_555 1_555
C30_3 C13_3 1_555 1_555
C31_3 C25_3 1_555 1_555
H21_3 C31_3 1_555 1_555
H22_3 C31_3 1_555 1_555
C32_3 C17_3 1_555 1_555
H23_3 C32_3 1_555 1_555
H24_3 C32_3 1_555 1_555
In4_2 O3_2 1_555 1_555
O9_2 In1 1_555 1_555
O10_2 In1 1_555 1_555
O11_2 In1 1_555 1_555
O13_2 In1 1_555 1_555
O7_2 In4_2 1_555 1_555
C3_3 C28_3 1_555 1_555
C7_3 C8_3 1_555 1_555
C13_3 C14_3 1_555 1_555
C19_3 C20_3 1_555 1_555
C23_3 C24_3 1_555 1_555
C25_3 C26_3 1_555 1_555
C31_3 C32_3 1_555 1_555
In4_2 O2_2 1_555 1_555
In4_2 O4_2 1_555 1_555
O10_2 C27_4 1_555 1_555
O12_2 C30_4 1_555 1_555
O13_2 C27_4 1_555 1_555
C9_4 C10_4 1_555 1_555
C10_4 H12_4 1_555 1_555
C11_4 C10_4 1_555 1_555
C12_4 C11_4 1_555 1_555
H13_4 C12_4 1_555 1_555
C13_4 C12_4 1_555 1_555
C14_4 C9_4 1_555 1_555
H14_4 C14_4 1_555 1_555
C15_4 C11_4 1_555 1_555
C16_4 C15_4 1_555 1_555
H15_4 C16_4 1_555 1_555
C20_4 C15_4 1_555 1_555
H17_4 C20_4 1_555 1_555
C27_4 C9_4 1_555 1_555
C30_4 C13_4 1_555 1_555
C13_4 C14_4 1_555 1_555
In4_2 O1_4 1_555 1_555
O1_4 C28_4 1_555 1_555
O5_4 In4_2 1_555 1_555
O8_2 C29_4 1_555 1_555
C3_4 C4_4 1_555 1_555
C4_4 H9_4 1_555 1_555
C5_4 C4_4 1_555 1_555
C6_4 C5_4 1_555 1_555
H10_4 C6_4 1_555 1_555
C7_4 C6_4 1_555 1_555
C8_4 C3_4 1_555 1_555
H11_4 C8_4 1_555 1_555
C18_4 C17_4 1_555 1_555
C19_4 C18_4 1_555 1_555
H16_4 C19_4 1_555 1_555
C21_4 C7_4 1_555 1_555
C22_4 C21_4 1_555 1_555
H18_4 C22_4 1_555 1_555
C23_4 C22_4 1_555 1_555
H19_4 C23_4 1_555 1_555
C24_4 C18_4 1_555 1_555
C25_4 C24_4 1_555 1_555
C26_4 C21_4 1_555 1_555
H20_4 C26_4 1_555 1_555
C28_4 O5_4 1_555 1_555
C29_4 C5_4 1_555 1_555
C31_4 C25_4 1_555 1_555
H21_4 C31_4 1_555 1_555
H22_4 C31_4 1_555 1_555
C32_4 C17_4 1_555 1_555
H23_4 C32_4 1_555 1_555
H24_4 C32_4 1_555 1_555
C3_4 C28_4 1_555 1_555
C7_4 C8_4 1_555 1_555
C23_4 C24_4 1_555 1_555
C25_4 C26_4 1_555 1_555
C31_4 C32_4 1_555 1_555

#END
