
###############################################################################
#
# This file contains modified crystal structure data generated from the
# MOF subset of the Cambridge Structural Database (CSD) v543 
# hosted by the Cambridge Crystallographic Data Centre (CCDC).
#
# This work is licensed under the Creative Commons
# Attribution-NonCommercial-ShareAlike 4.0 International License.
# To view a copy of this license, visit
# http://creativecommons.org/licenses/by-nc-sa/4.0/
# or send a letter to
# Creative Commons, PO Box 1866, Mountain View, CA 94042, USA.
#
# CIF created using the CSD Python API on 29 September 2022
# The structure has been converted into the P1 space group
# The structure has a 3D framework
# The original CSD entry CAJWAN is in the monoclinic crystal system
# The framework has been calculated to contain at least 10.0% void space
# The void calculation uses a probe of radius 1.32A, grid spacing 0.4
# The framework is charged, counterions have been retained in the structure
#
###############################################################################

data_CAJWAN
_chemical_formula_moiety         '(C120 H66 In2 Li4 O32 3-)n'
_symmetry_cell_setting           triclinic
_symmetry_space_group_name_H-M   'P 1'
_symmetry_Int_Tables_number      1
_space_group_name_Hall           'P 1'
loop_
_symmetry_equiv_pos_site_id
_symmetry_equiv_pos_as_xyz
1 x,y,z
_cell_length_a                   9.892(10)
_cell_length_b                   9.617(9)
_cell_length_c                   35.11(3)
_cell_angle_alpha                90
_cell_angle_beta                 90.544(17)
_cell_angle_gamma                90
_cell_volume                     3339.91
loop_
_atom_site_label
_atom_site_type_symbol
_atom_site_fract_x
_atom_site_fract_y
_atom_site_fract_z
Li4 Li 0.5000 -0.0000 0.5000
Li1 Li 0.0000 0.5000 0.0000
In6 In 0.84121(19) 0.52164(9) 0.07759(4)
In7 In 0.34121(19) 0.97836(9) 0.57759(4)
Li4_2 Li 0.5000 1.0000 0.5000
O9 O 0.1177(16) 0.5060(15) 0.0623(4)
O10 O 0.0052(17) 0.5170(13) 0.1143(5)
O11 O 0.7123(14) 0.5185(13) 0.1279(4)
O14 O 0.6213(15) 0.5195(12) 0.0735(4)
O17 O 0.3612(15) 0.8435(12) 0.5268(4)
O20 O 0.3316(17) 0.7412(10) 0.5807(4)
O23 O 0.3609(17) 0.1157(11) 0.5265(3)
O26 O 0.3259(16) 0.2173(9) 0.5799(4)
C31 C 0.108(2) 0.5120(18) 0.0979(8)
C32 C 0.610(3) 0.5203(18) 0.1080(7)
C33 C 0.343(2) 0.7350(16) 0.5462(5)
C34 C 0.339(2) 0.2208(17) 0.5447(5)
C35 C 0.2378(19) 0.5087(19) 0.1218(6)
C36 C 0.3666(16) 0.5148(16) 0.1044(5)
H17 H 0.3726 0.5187 0.0774
C37 C 0.478(2) 0.5152(17) 0.1253(5)
C38 C 0.4715(18) 0.5085(18) 0.1640(6)
H18 H 0.5532 0.5061 0.1784
C39 C 0.344(2) 0.5048(17) 0.1836(6)
C40 C 0.224(2) 0.5039(17) 0.1601(6)
H19 H 0.1372 0.5001 0.1712
C41 C 0.332(3) 0.4937(19) 0.2219(5)
C42 C 0.239(3) 0.431(3) 0.2432(6)
H20 H 0.1632 0.3947 0.2299
C43 C 0.422(2) 0.560(2) 0.2858(6)
C44 C 0.329(3) 0.4844(16) 0.3033(4)
C45 C 0.241(3) 0.413(2) 0.2817(6)
H21 H 0.1792 0.3496 0.2931
C46 C 0.428(2) 0.562(2) 0.2469(6)
H22 H 0.4997 0.6117 0.2355
C47 C 0.325(3) 0.4774(15) 0.3448(5)
C48 C 0.388(3) 0.578(2) 0.3649(6)
C49 C 0.382(3) 0.5813(19) 0.4042(5)
H23 H 0.4186 0.6581 0.4178
C50 C 0.3245(19) 0.4780(13) 0.4229(5)
C51 C 0.266(3) 0.3744(18) 0.4034(5)
H24 H 0.2234 0.3003 0.4166
C52 C 0.268(3) 0.3755(19) 0.3657(5)
H25 H 0.2276 0.2997 0.3525
C53 C 0.322(2) 0.4768(15) 0.4663(5)
C54 C 0.337(3) 0.6017(15) 0.4866(4)
H26 H 0.3500 0.6870 0.4735
C55 C 0.334(2) 0.5990(16) 0.5249(4)
C56 C 0.330(3) 0.4774(15) 0.5435(6)
H27 H 0.3276 0.4767 0.5705
C57 C 0.331(2) 0.3545(14) 0.5241(4)
C58 C 0.330(3) 0.3559(16) 0.4869(4)
H28 H 0.3347 0.2700 0.4736
C59 C 0.527(3) 0.633(2) 0.3081(6)
H29 H 0.6009 0.5677 0.3148
H30 H 0.5659 0.7095 0.2928
C60 C 0.465(3) 0.692(2) 0.3441(6)
H31 H 0.5372 0.7292 0.3609
H32 H 0.4027 0.7686 0.3375
In1 In 0.15879(19) 0.47836(9) 0.92241(4)
Li1_2 Li 0.0000 0.5000 1.0000
O12 O 0.2877(14) 0.4815(13) 0.8721(4)
O15 O 0.3787(15) 0.4805(12) 0.9265(4)
O18 O 0.1388(15) 0.3435(12) 0.9732(4)
O21 O 0.1684(17) 0.2412(10) 0.9193(4)
O24 O 0.1391(17) 0.6157(11) 0.9735(3)
O27 O 0.1741(16) 0.7173(9) 0.9201(4)
In5 In 0.65879(19) 0.02164(9) 0.42241(4)
Li1_3 Li 1.0000 0.5000 0.0000
O19 O 0.8612(15) 0.6565(12) 0.0268(4)
O22 O 0.8316(17) 0.7588(10) 0.0807(4)
O25 O 0.8609(17) 0.3843(11) 0.0265(3)
O28 O 0.8259(16) 0.2827(9) 0.0799(4)
Li1_4 Li 1.0000 0.5000 1.0000
O1 O 0.8823(16) 0.4940(15) 0.9377(4)
O2 O 0.9948(17) 0.4830(13) 0.8857(5)
O5 O 0.6388(15) 0.1565(12) 0.4732(4)
O6 O 0.6684(17) 0.2588(10) 0.4193(4)
O7 O 0.6391(17) 0.8843(11) 0.4735(3)
O8 O 0.6741(16) 0.7827(9) 0.4201(4)
C1 C 0.892(2) 0.4880(18) 0.9021(8)
C2 C 0.390(3) 0.4797(18) 0.8920(7)
C3 C 0.657(2) 0.2650(16) 0.4538(5)
C4 C 0.661(2) 0.7792(17) 0.4553(5)
C5 C 0.7622(19) 0.4913(19) 0.8782(6)
C6 C 0.6334(16) 0.4852(16) 0.8956(5)
H1 H 0.6274 0.4813 0.9226
C7 C 0.522(2) 0.4848(17) 0.8747(5)
C8 C 0.5285(18) 0.4915(18) 0.8360(6)
H2 H 0.4468 0.4939 0.8216
C9 C 0.656(2) 0.4952(17) 0.8164(6)
C10 C 0.776(2) 0.4961(17) 0.8399(6)
H3 H 0.8628 0.4999 0.8288
C11 C 0.668(3) 0.5063(19) 0.7781(5)
C12 C 0.761(3) 0.569(3) 0.7568(6)
H4 H 0.8368 0.6053 0.7701
C13 C 0.578(2) 0.440(2) 0.7142(6)
C14 C 0.671(3) 0.5156(16) 0.6967(4)
C15 C 0.759(3) 0.587(2) 0.7183(6)
H5 H 0.8208 0.6504 0.7069
C16 C 0.572(2) 0.438(2) 0.7531(6)
H6 H 0.5003 0.3883 0.7645
C17 C 0.675(3) 0.5226(15) 0.6552(5)
C18 C 0.612(3) 0.422(2) 0.6351(6)
C19 C 0.618(3) 0.4187(19) 0.5958(5)
H7 H 0.5814 0.3419 0.5822
C20 C 0.6755(19) 0.5220(13) 0.5771(5)
C21 C 0.734(3) 0.6256(18) 0.5966(5)
H8 H 0.7766 0.6997 0.5834
C22 C 0.732(3) 0.6245(19) 0.6343(5)
H9 H 0.7724 0.7003 0.6475
C23 C 0.678(2) 0.5232(15) 0.5337(5)
C24 C 0.663(3) 0.3983(15) 0.5134(4)
H10 H 0.6500 0.3130 0.5265
C25 C 0.666(2) 0.4010(16) 0.4751(4)
C26 C 0.670(3) 0.5226(15) 0.4565(6)
H11 H 0.6724 0.5233 0.4295
C27 C 0.669(2) 0.6455(14) 0.4759(4)
C28 C 0.670(3) 0.6441(16) 0.5131(4)
H12 H 0.6653 0.7300 0.5264
C29 C 0.473(3) 0.367(2) 0.6919(6)
H13 H 0.3991 0.4323 0.6852
H14 H 0.4341 0.2905 0.7072
C30 C 0.535(3) 0.308(2) 0.6559(6)
H15 H 0.4628 0.2708 0.6391
H16 H 0.5973 0.2314 0.6625
O3 O 0.2123(14) 0.9815(13) 0.6279(4)
O4 O 0.1213(15) 0.9805(12) 0.5735(4)
C2_2 C 0.110(3) 0.9797(18) 0.6080(7)
H2_2 H 0.0532 0.9939 0.6784
C29_2 C 0.027(3) 0.867(2) 0.8081(6)
H13_2 H 0.1009 0.9323 0.8148
H14_2 H 0.0659 0.7905 0.7928
H15_2 H 0.0372 0.7708 0.8609
C4_2 C 0.839(2) 0.2792(17) 0.0447(5)
C26_2 C 0.830(3) 0.0226(15) 0.0435(6)
H11_2 H 0.8276 0.0233 0.0705
C27_2 C 0.831(2) 0.1455(14) 0.0241(4)
H3_2 H 0.6372 -0.0001 0.6712
C11_2 C 0.832(3) 0.0063(19) 0.7219(5)
C12_2 C 0.739(3) 0.069(3) 0.7432(6)
H4_2 H 0.6632 0.1053 0.7299
C14_2 C 0.829(3) 0.0156(16) 0.8033(4)
C15_2 C 0.741(3) 0.087(2) 0.7817(6)
H5_2 H 0.6792 0.1504 0.7931
C17_2 C 0.825(3) 0.0226(15) 0.8448(5)
C20_2 C 0.8245(19) 0.0220(13) 0.9229(5)
C21_2 C 0.766(3) 0.1256(18) 0.9034(5)
H8_2 H 0.7234 0.1997 0.9166
C22_2 C 0.768(3) 0.1245(19) 0.8657(5)
H9_2 H 0.7276 0.2003 0.8525
C23_2 C 0.822(2) 0.0232(15) 0.9663(5)
C28_2 C 0.830(3) 0.1441(16) 0.9869(4)
H12_2 H 0.8347 0.2300 0.9736
O9_2 O 0.3823(16) 0.0060(15) 0.4377(4)
O10_2 O 0.4948(17) 0.0170(13) 0.3857(5)
O13 O 0.7877(14) 0.0185(13) 0.3721(4)
O16 O 0.8787(15) 0.0195(12) 0.4265(4)
C31_2 C 0.392(2) 0.0120(18) 0.4021(8)
C35_2 C 0.2622(19) 0.0087(19) 0.3782(6)
C36_2 C 0.1334(16) 0.0148(16) 0.3956(5)
H17_2 H 0.1274 0.0187 0.4226
C37_2 C 0.022(2) 0.0152(17) 0.3747(5)
C38_2 C 0.0285(18) 0.0085(18) 0.3360(6)
C39_2 C 0.156(2) 0.0048(17) 0.3164(6)
C40_2 C 0.276(2) 0.0039(17) 0.3399(6)
H19_2 H 0.3628 0.0001 0.3288
C43_2 C 0.078(2) 0.060(2) 0.2142(6)
C46_2 C 0.072(2) 0.062(2) 0.2531(6)
H22_2 H 0.0003 0.1117 0.2645
C48_2 C 0.112(3) 0.078(2) 0.1351(6)
C49_2 C 0.118(3) 0.0813(19) 0.0958(5)
H23_2 H 0.0814 0.1581 0.0822
C54_2 C 0.163(3) 0.1017(15) 0.0134(4)
H26_2 H 0.1500 0.1870 0.0265
C60_2 C 0.035(3) 0.192(2) 0.1559(6)
H32_2 H 0.0973 0.2686 0.1625
C33_2 C 0.157(2) 0.2350(16) 0.9538(5)
C55_2 C 0.166(2) 0.0990(16) 0.9751(4)
C3_2 C 0.843(2) 0.7650(16) 0.0462(5)
C25_2 C 0.834(2) 0.9010(16) 0.0249(4)
O1_2 O 0.6177(16) 0.9940(15) 0.5623(4)
O2_2 O 0.5052(17) 0.9830(13) 0.6143(5)
C1_2 C 0.608(2) 0.9880(18) 0.5979(8)
C5_2 C 0.7378(19) 0.9913(19) 0.6218(6)
C6_2 C 0.8666(16) 0.9852(16) 0.6044(5)
H1_2 H 0.8726 0.9813 0.5774
C7_2 C 0.978(2) 0.9848(17) 0.6253(5)
C8_2 C 0.9715(18) 0.9915(18) 0.6640(6)
C9_2 C 0.844(2) 0.9952(17) 0.6836(6)
C10_2 C 0.724(2) 0.9961(17) 0.6601(6)
H3_3 H 0.6372 0.9999 0.6712
C13_2 C 0.922(2) 0.940(2) 0.7858(6)
C16_2 C 0.928(2) 0.938(2) 0.7469(6)
H6_2 H 0.9997 0.8883 0.7355
C18_2 C 0.888(3) 0.922(2) 0.8649(6)
C19_2 C 0.882(3) 0.9187(19) 0.9042(5)
H7_2 H 0.9186 0.8419 0.9178
C24_2 C 0.837(3) 0.8983(15) 0.9866(4)
H10_2 H 0.8500 0.8130 0.9735
C30_2 C 0.965(3) 0.808(2) 0.8441(6)
H16_2 H 0.9027 0.7314 0.8375
H19_3 H 0.3628 1.0001 0.3288
C41_2 C 0.168(3) 0.9937(19) 0.2781(5)
C42_2 C 0.261(3) 0.931(3) 0.2568(6)
H20_2 H 0.3368 0.8947 0.2701
C44_2 C 0.171(3) 0.9844(16) 0.1967(4)
C45_2 C 0.259(3) 0.913(2) 0.2183(6)
H21_2 H 0.3208 0.8496 0.2069
C47_2 C 0.175(3) 0.9774(15) 0.1552(5)
C50_2 C 0.1755(19) 0.9780(13) 0.0771(5)
C51_2 C 0.234(3) 0.8744(18) 0.0966(5)
H24_2 H 0.2766 0.8003 0.0834
C52_2 C 0.232(3) 0.8755(19) 0.1343(5)
H25_2 H 0.2724 0.7997 0.1475
C53_2 C 0.178(2) 0.9768(15) 0.0337(5)
C58_2 C 0.170(3) 0.8559(16) 0.0131(4)
H28_2 H 0.1653 0.7700 0.0264
C34_2 C 0.161(2) 0.7208(17) 0.9553(5)
C56_2 C 0.170(3) 0.9774(15) 0.9565(6)
H27_2 H 0.1724 0.9767 0.9295
C57_2 C 0.169(2) 0.8545(14) 0.9759(4)
C32_2 C 0.890(3) 0.0203(18) 0.3920(7)
H18_2 H 0.9468 0.0061 0.3216
C59_2 C 0.973(3) 0.133(2) 0.1919(6)
H29_2 H 0.8991 0.0677 0.1852
H30_2 H 0.9341 0.2095 0.2072
H31_2 H 0.9628 0.2292 0.1391
loop_
_geom_bond_atom_site_label_1
_geom_bond_atom_site_label_2
_geom_bond_site_symmetry_1
_geom_bond_site_symmetry_2
In6 O11 1_555 1_555
In7 O17 1_555 1_555
Li4_2 O17 1_555 1_555
Li4 O23 1_555 1_555
O9 Li1 1_555 1_555
O10 C31 1_555 1_555
O11 C32 1_555 1_555
O14 In6 1_555 1_555
O17 C33 1_555 1_555
O20 In7 1_555 1_555
O23 C34 1_555 1_555
C31 O9 1_555 1_555
C32 O14 1_555 1_555
C33 O20 1_555 1_555
C34 O26 1_555 1_555
C35 C31 1_555 1_555
C36 C35 1_555 1_555
H17 C36 1_555 1_555
C37 C32 1_555 1_555
C38 C37 1_555 1_555
H18 C38 1_555 1_555
C39 C38 1_555 1_555
C40 C35 1_555 1_555
H19 C40 1_555 1_555
C41 C39 1_555 1_555
C42 C41 1_555 1_555
H20 C42 1_555 1_555
C43 C44 1_555 1_555
C44 C45 1_555 1_555
C45 C42 1_555 1_555
H21 C45 1_555 1_555
C46 C41 1_555 1_555
H22 C46 1_555 1_555
C47 C44 1_555 1_555
C48 C47 1_555 1_555
C49 C48 1_555 1_555
H23 C49 1_555 1_555
C50 C49 1_555 1_555
C51 C50 1_555 1_555
H24 C51 1_555 1_555
C52 C47 1_555 1_555
H25 C52 1_555 1_555
C53 C50 1_555 1_555
C54 C53 1_555 1_555
H26 C54 1_555 1_555
C55 C33 1_555 1_555
C56 C55 1_555 1_555
H27 C56 1_555 1_555
C57 C34 1_555 1_555
C58 C53 1_555 1_555
H28 C58 1_555 1_555
C59 C43 1_555 1_555
H29 C59 1_555 1_555
H30 C59 1_555 1_555
C60 C48 1_555 1_555
H31 C60 1_555 1_555
H32 C60 1_555 1_555
C36 C37 1_555 1_555
C39 C40 1_555 1_555
C43 C46 1_555 1_555
C51 C52 1_555 1_555
C54 C55 1_555 1_555
C56 C57 1_555 1_555
C57 C58 1_555 1_555
C59 C60 1_555 1_555
O12 In1 1_555 1_555
O15 In1 1_555 1_555
O18 In1 1_555 1_555
O21 In1 1_555 1_555
O24 In1 1_555 1_555
O27 In1 1_555 1_555
Li1_2 O18 1_555 1_555
Li1_2 O24 1_555 1_555
O19 Li1_3 1_555 1_555
O22 In6 1_555 1_555
O25 Li1_3 1_555 1_555
O28 In6 1_555 1_555
In6 O19 1_555 1_555
In6 O25 1_555 1_555
Li1_4 O1 1_555 1_555
O1 C1 1_555 1_555
O2 C1 1_555 1_555
O12 C2 1_555 1_555
O15 C2 1_555 1_555
O5 C3 1_555 1_555
O6 C3 1_555 1_555
O7 C4 1_555 1_555
O8 C4 1_555 1_555
C1 C5 1_555 1_555
C2 C7 1_555 1_555
C3 C25 1_555 1_555
C4 C27 1_555 1_555
C5 C6 1_555 1_555
C6 H1 1_555 1_555
C7 C6 1_555 1_555
C8 C7 1_555 1_555
H2 C8 1_555 1_555
C9 C8 1_555 1_555
C10 C5 1_555 1_555
H3 C10 1_555 1_555
C11 C9 1_555 1_555
C12 C11 1_555 1_555
H4 C12 1_555 1_555
C13 C14 1_555 1_555
C14 C15 1_555 1_555
C15 C12 1_555 1_555
H5 C15 1_555 1_555
C16 C11 1_555 1_555
H6 C16 1_555 1_555
C17 C14 1_555 1_555
C18 C17 1_555 1_555
C19 C18 1_555 1_555
H7 C19 1_555 1_555
C20 C19 1_555 1_555
C21 C20 1_555 1_555
H8 C21 1_555 1_555
C22 C17 1_555 1_555
H9 C22 1_555 1_555
C23 C20 1_555 1_555
C24 C23 1_555 1_555
H10 C24 1_555 1_555
C25 C24 1_555 1_555
C26 C25 1_555 1_555
H11 C26 1_555 1_555
C27 C26 1_555 1_555
C28 C23 1_555 1_555
H12 C28 1_555 1_555
C29 C13 1_555 1_555
H13 C29 1_555 1_555
H14 C29 1_555 1_555
C30 C18 1_555 1_555
H15 C30 1_555 1_555
H16 C30 1_555 1_555
In5 O5 1_555 1_555
Li4 O5 1_555 1_555
Li4_2 O7 1_555 1_555
O6 In5 1_555 1_555
C9 C10 1_555 1_555
C13 C16 1_555 1_555
C21 C22 1_555 1_555
C27 C28 1_555 1_555
C29 C30 1_555 1_555
O3 C2_2 1_555 1_555
O4 C2_2 1_555 1_555
H13_2 C29_2 1_555 1_555
H14_2 C29_2 1_555 1_555
In7 O3 1_555 1_555
O4 In7 1_555 1_555
O25 C4_2 1_555 1_555
O28 C4_2 1_555 1_555
C4_2 C27_2 1_555 1_555
H11_2 C26_2 1_555 1_555
C27_2 C26_2 1_555 1_555
C12_2 C11_2 1_555 1_555
H4_2 C12_2 1_555 1_555
C14_2 C15_2 1_555 1_555
C15_2 C12_2 1_555 1_555
H5_2 C15_2 1_555 1_555
C17_2 C14_2 1_555 1_555
C21_2 C20_2 1_555 1_555
H8_2 C21_2 1_555 1_555
C22_2 C17_2 1_555 1_555
H9_2 C22_2 1_555 1_555
C23_2 C20_2 1_555 1_555
C28_2 C23_2 1_555 1_555
H12_2 C28_2 1_555 1_555
In5 O10_2 1_555 1_555
O9_2 Li4 1_555 1_555
O10_2 C31_2 1_555 1_555
O13 In5 1_555 1_555
O16 In5 1_555 1_555
C31_2 O9_2 1_555 1_555
C35_2 C31_2 1_555 1_555
C36_2 C35_2 1_555 1_555
H17_2 C36_2 1_555 1_555
C38_2 C37_2 1_555 1_555
C39_2 C38_2 1_555 1_555
C40_2 C35_2 1_555 1_555
H19_2 C40_2 1_555 1_555
H22_2 C46_2 1_555 1_555
C49_2 C48_2 1_555 1_555
H23_2 C49_2 1_555 1_555
H26_2 C54_2 1_555 1_555
C60_2 C48_2 1_555 1_555
H32_2 C60_2 1_555 1_555
C21_2 C22_2 1_555 1_555
C36_2 C37_2 1_555 1_555
C39_2 C40_2 1_555 1_555
C43_2 C46_2 1_555 1_555
O18 C33_2 1_555 1_555
C33_2 O21 1_555 1_555
C55_2 C33_2 1_555 1_555
O19 C3_2 1_555 1_555
O22 C3_2 1_555 1_555
C3_2 C25_2 1_555 1_555
In7 O2_2 1_555 1_555
Li4_2 O1_2 1_555 1_555
O1_2 C1_2 1_555 1_555
O2_2 C1_2 1_555 1_555
C1_2 C5_2 1_555 1_555
C5_2 C6_2 1_555 1_555
C6_2 H1_2 1_555 1_555
C7_2 C6_2 1_555 1_555
C8_2 C7_2 1_555 1_555
C9_2 C8_2 1_555 1_555
C10_2 C5_2 1_555 1_555
H3_3 C10_2 1_555 1_555
H6_2 C16_2 1_555 1_555
C19_2 C18_2 1_555 1_555
H7_2 C19_2 1_555 1_555
H10_2 C24_2 1_555 1_555
C30_2 C18_2 1_555 1_555
H16_2 C30_2 1_555 1_555
C42_2 C41_2 1_555 1_555
H20_2 C42_2 1_555 1_555
C44_2 C45_2 1_555 1_555
C45_2 C42_2 1_555 1_555
H21_2 C45_2 1_555 1_555
C47_2 C44_2 1_555 1_555
C51_2 C50_2 1_555 1_555
H24_2 C51_2 1_555 1_555
C52_2 C47_2 1_555 1_555
H25_2 C52_2 1_555 1_555
C53_2 C50_2 1_555 1_555
C58_2 C53_2 1_555 1_555
H28_2 C58_2 1_555 1_555
C9_2 C10_2 1_555 1_555
C13_2 C16_2 1_555 1_555
C51_2 C52_2 1_555 1_555
O24 C34_2 1_555 1_555
C34_2 O27 1_555 1_555
H27_2 C56_2 1_555 1_555
C57_2 C34_2 1_555 1_555
C56_2 C57_2 1_555 1_555
O13 C32_2 1_555 1_555
C32_2 O16 1_555 1_555
H29_2 C59_2 1_555 1_555
H30_2 C59_2 1_555 1_555

#END
