
###############################################################################
#
# This file contains modified crystal structure data generated from the
# MOF subset of the Cambridge Structural Database (CSD) v543 
# hosted by the Cambridge Crystallographic Data Centre (CCDC).
#
# This work is licensed under the Creative Commons
# Attribution-NonCommercial-ShareAlike 4.0 International License.
# To view a copy of this license, visit
# http://creativecommons.org/licenses/by-nc-sa/4.0/
# or send a letter to
# Creative Commons, PO Box 1866, Mountain View, CA 94042, USA.
#
# CIF created using the CSD Python API on 29 September 2022
# The structure has been converted into the P1 space group
# The structure has a 3D framework
# The original CSD entry CAKXIX is in the monoclinic crystal system
# The framework has been calculated to contain at least 10.0% void space
# The void calculation uses a probe of radius 1.32A, grid spacing 0.4
# H atom positions have been added when not included in the experimental data
#
###############################################################################

data_CAKXIX
_chemical_formula_moiety         '(C28 H24 Eu4 N8 O31)n'
_symmetry_cell_setting           triclinic
_symmetry_space_group_name_H-M   'P 1'
_symmetry_Int_Tables_number      1
_space_group_name_Hall           'P 1'
loop_
_symmetry_equiv_pos_site_id
_symmetry_equiv_pos_as_xyz
1 x,y,z
_cell_length_a                   9.723(1)
_cell_length_b                   15.909(1)
_cell_length_c                   7.981(2)
_cell_angle_alpha                90
_cell_angle_beta                 96.290(5)
_cell_angle_gamma                90
_cell_volume                     1227.09
loop_
_atom_site_label
_atom_site_type_symbol
_atom_site_fract_x
_atom_site_fract_y
_atom_site_fract_z
O11 O 0.1108(2) 0.68944(14) 0.1484(3)
O6 O 0.0236(2) 0.41019(15) 0.1250(3)
Eu2 Eu 0.865537(16) 0.673228(11) 0.07870(2)
Eu6 Eu 0.365537(16) 0.826772(11) 0.57870(2)
O13 O 0.9432(2) 0.53575(15) 0.1877(3)
O14 O 0.1867(2) 0.76034(16) 0.3808(3)
O17 O 0.8337(2) 0.81853(15) 0.1629(3)
O20 O 0.8987(2) 0.67673(17) 0.3887(3)
N3 N 0.6221(2) 0.67081(19) 0.1882(3)
N4 N 0.4492(3) 0.73226(18) 0.3358(3)
C8 C 0.5251(3) 0.6317(2) 0.0859(4)
C9 C 0.2040(3) 0.7156(2) 0.2562(4)
C10 C 0.3851(3) 0.6408(2) 0.1039(4)
C11 C 0.3518(3) 0.6937(2) 0.2308(4)
C13 C 0.5805(3) 0.7191(2) 0.3103(4)
H3 H 0.315038 0.612087 0.0314
H4 H 0.652930 0.748530 0.382630
H9 H 0.766402 0.820629 0.247841
H10 H 0.923723 0.841985 0.212478
H11 H 0.933521 0.62133 0.43217
H12 H 0.966895 0.721098 0.42677
Eu5 Eu 0.134463(16) 0.326772(11) 0.92130(2)
O9 O 0.7050(2) 0.57118(15) 0.9504(3)
O12 O 0.0568(2) 0.46425(15) 0.8123(3)
O16 O 0.6867(2) 0.73966(16) 0.8808(3)
O19 O 0.9764(2) 0.58981(15) 0.8750(3)
N6 N 0.9492(3) 0.76774(18) 0.8358(3)
O21 O 0.4872(2) 0.55709(15) 0.8282(3)
C12 C 0.5757(3) 0.5815(2) 0.9432(4)
C14 C 0.0097(3) 0.5159(2) 0.9101(4)
C7 C 0.9903(3) 0.4841(2) 0.0899(4)
O2 O 0.3892(2) 0.18944(14) 0.3516(3)
O4 O 0.3133(2) 0.26034(16) 0.1192(3)
N2 N 0.0508(3) 0.23226(18) 0.1642(3)
C2 C 0.2960(3) 0.2156(2) 0.2438(4)
C3 C 0.1149(3) 0.1408(2) 0.3961(4)
C4 C 0.1482(3) 0.1937(2) 0.2692(4)
O8 O 0.0128(2) 0.05709(15) 0.6718(3)
H1 H 0.184962 0.112087 0.4686
Eu3 Eu 0.634463(16) 0.173228(11) 0.42130(2)
O1 O 0.7950(2) 0.07118(15) 0.5496(3)
O3 O 0.5568(2) 0.03575(15) 0.3123(3)
O5 O 0.6663(2) 0.31853(15) 0.3371(3)
O7 O 0.6013(2) 0.17673(17) 0.1113(3)
N1 N 0.8779(2) 0.17081(19) 0.3118(3)
C1 C 0.9749(3) 0.1317(2) 0.4141(4)
C5 C 0.9243(3) 0.0815(2) 0.5568(4)
C6 C 0.9195(3) 0.2191(2) 0.1897(4)
H2 H 0.847070 0.248530 0.117370
O15 O 0.8133(2) 0.23966(16) 0.6192(3)
O18 O 0.5236(2) 0.08981(15) 0.6250(3)
N5 N 0.5508(3) 0.26774(18) 0.6642(3)
C14_2 C 0.4903(3) 0.0159(2) 0.5899(4)
H5 H 0.733598 0.320629 0.252159
H6 H 0.576277 0.341985 0.287522
H7 H 0.566479 0.12133 0.0678301
H8 H 0.533105 0.221098 0.0732298
O6_2 O 0.4764(2) 0.91019(15) 0.3750(3)
C7_2 C 0.5097(3) 0.9841(2) 0.4101(4)
O12_2 O 0.4432(2) 0.96425(15) 0.6877(3)
O1_2 O 0.2950(2) 0.42882(15) 0.0496(3)
O8_2 O 0.5128(2) 0.44291(15) 0.1718(3)
C5_2 C 0.4243(3) 0.4185(2) 0.0568(4)
O2_2 O 0.8892(2) 0.31056(14) 0.8516(3)
O5_2 O 0.1663(2) 0.18147(15) 0.8371(3)
O7_2 O 0.1013(2) 0.32327(17) 0.6113(3)
N1_2 N 0.3779(2) 0.32919(19) 0.8118(3)
C1_2 C 0.4749(3) 0.3683(2) 0.9141(4)
C2_2 C 0.7960(3) 0.2844(2) 0.7438(4)
C3_2 C 0.6149(3) 0.3592(2) 0.8961(4)
C4_2 C 0.6482(3) 0.3063(2) 0.7692(4)
C6_2 C 0.4195(3) 0.2809(2) 0.6897(4)
H1_2 H 0.684962 0.387913 0.9686
H2_2 H 0.347070 0.251470 0.617370
H5_2 H 0.233598 0.179371 0.752159
H6_2 H 0.0762769 0.158015 0.787522
H7_2 H 0.0664788 0.37867 0.56783
H8_2 H 0.033105 0.278902 0.57323
O9_2 O 0.2050(2) 0.92882(15) 0.4504(3)
O11_2 O 0.6108(2) 0.81056(14) 0.6484(3)
O17_2 O 0.3337(2) 0.68147(15) 0.6629(3)
O20_2 O 0.3987(2) 0.82327(17) 0.8887(3)
N3_2 N 0.1221(2) 0.82919(19) 0.6882(3)
C8_2 C 0.0251(3) 0.8683(2) 0.5859(4)
C12_2 C 0.0757(3) 0.9185(2) 0.4432(4)
C13_2 C 0.0805(3) 0.7809(2) 0.8103(4)
H4_2 H 0.152930 0.751470 0.882630
H9_2 H 0.266402 0.679371 0.747841
H10_2 H 0.423723 0.658015 0.712478
H11_2 H 0.433521 0.87867 0.93217
H12_2 H 0.466895 0.778902 0.92677
C9_2 C 0.7040(3) 0.7844(2) 0.7562(4)
C10_2 C 0.8851(3) 0.8592(2) 0.6039(4)
C11_2 C 0.8518(3) 0.8063(2) 0.7308(4)
O21_2 O 0.9872(2) 0.94291(15) 0.3282(3)
H3_2 H 0.815038 0.887913 0.5314
loop_
_geom_bond_atom_site_label_1
_geom_bond_atom_site_label_2
_geom_bond_site_symmetry_1
_geom_bond_site_symmetry_2
Eu6 O14 1_555 1_555
O13 Eu2 1_555 1_555
O14 C9 1_555 1_555
O17 Eu2 1_555 1_555
O20 Eu2 1_555 1_555
N3 Eu2 1_555 1_555
N4 Eu6 1_555 1_555
C8 N3 1_555 1_555
C9 O11 1_555 1_555
C10 C8 1_555 1_555
C11 N4 1_555 1_555
C13 N3 1_555 1_555
H3 C10 1_555 1_555
H4 C13 1_555 1_555
N4 C13 1_555 1_555
C9 C11 1_555 1_555
C10 C11 1_555 1_555
O17 H9 1_555 1_555
O17 H10 1_555 1_555
O20 H11 1_555 1_555
O20 H12 1_555 1_555
O9 C12 1_555 1_555
O12 Eu5 1_555 1_555
O21 C12 1_555 1_555
O12 C14 1_555 1_555
C7 O13 1_555 1_555
O2 C2 1_555 1_555
O4 C2 1_555 1_555
N2 C4 1_555 1_555
C2 C4 1_555 1_555
C4 C3 1_555 1_555
H1 C3 1_555 1_555
Eu3 O2 1_555 1_555
Eu3 O1 1_555 1_555
O1 C5 1_555 1_555
O3 Eu3 1_555 1_555
O5 Eu3 1_555 1_555
O7 Eu3 1_555 1_555
N1 Eu3 1_555 1_555
C1 N1 1_555 1_555
C5 C1 1_555 1_555
C6 N1 1_555 1_555
H2 C6 1_555 1_555
O15 Eu3 1_555 1_555
O18 Eu3 1_555 1_555
N5 Eu3 1_555 1_555
O18 C14_2 1_555 1_555
O5 H5 1_555 1_555
O5 H6 1_555 1_555
O7 H7 1_555 1_555
O7 H8 1_555 1_555
O6_2 C7_2 1_555 1_555
Eu6 O6_2 1_555 1_555
O12_2 Eu6 1_555 1_555
O1_2 C5_2 1_555 1_555
O8_2 C5_2 1_555 1_555
O2_2 C2_2 1_555 1_555
O15 C2_2 1_555 1_555
O5_2 Eu5 1_555 1_555
O7_2 Eu5 1_555 1_555
N1_2 Eu5 1_555 1_555
N5 C4_2 1_555 1_555
C1_2 N1_2 1_555 1_555
C2_2 C4_2 1_555 1_555
C3_2 C1_2 1_555 1_555
C4_2 C3_2 1_555 1_555
C6_2 N1_2 1_555 1_555
H1_2 C3_2 1_555 1_555
H2_2 C6_2 1_555 1_555
N5 C6_2 1_555 1_555
O5_2 H5_2 1_555 1_555
O5_2 H6_2 1_555 1_555
O7_2 H7_2 1_555 1_555
O7_2 H8_2 1_555 1_555
Eu6 O9_2 1_555 1_555
O9_2 C12_2 1_555 1_555
O11_2 Eu6 1_555 1_555
O17_2 Eu6 1_555 1_555
O20_2 Eu6 1_555 1_555
N3_2 Eu6 1_555 1_555
C8_2 N3_2 1_555 1_555
C12_2 C8_2 1_555 1_555
C13_2 N3_2 1_555 1_555
H4_2 C13_2 1_555 1_555
O17_2 H9_2 1_555 1_555
O17_2 H10_2 1_555 1_555
O20_2 H11_2 1_555 1_555
O20_2 H12_2 1_555 1_555
O16 C9_2 1_555 1_555
C9_2 O11_2 1_555 1_555
C11_2 N6 1_555 1_555
H3_2 C10_2 1_555 1_555
C9_2 C11_2 1_555 1_555
C10_2 C11_2 1_555 1_555

#END
