
###############################################################################
#
# This file contains modified crystal structure data generated from the
# MOF subset of the Cambridge Structural Database (CSD) v543 
# hosted by the Cambridge Crystallographic Data Centre (CCDC).
#
# This work is licensed under the Creative Commons
# Attribution-NonCommercial-ShareAlike 4.0 International License.
# To view a copy of this license, visit
# http://creativecommons.org/licenses/by-nc-sa/4.0/
# or send a letter to
# Creative Commons, PO Box 1866, Mountain View, CA 94042, USA.
#
# CIF created using the CSD Python API on 29 September 2022
# The structure has been converted into the P1 space group
# The structure has a 3D framework
# The original CSD entry CAKXET is in the monoclinic crystal system
# The framework has been calculated to contain at least 10.0% void space
# The void calculation uses a probe of radius 1.32A, grid spacing 0.4
# H atom positions have been added when not included in the experimental data
#
###############################################################################

data_CAKXET
_chemical_formula_moiety         '(C28 H24 N8 O31 Sm4)n'
_symmetry_cell_setting           triclinic
_symmetry_space_group_name_H-M   'P 1'
_symmetry_Int_Tables_number      1
_space_group_name_Hall           'P 1'
loop_
_symmetry_equiv_pos_site_id
_symmetry_equiv_pos_as_xyz
1 x,y,z
_cell_length_a                   9.7465(3)
_cell_length_b                   15.9265(5)
_cell_length_c                   7.9809(7)
_cell_angle_alpha                90
_cell_angle_beta                 96.2159(3)
_cell_angle_gamma                90
_cell_volume                     1231.57
loop_
_atom_site_label
_atom_site_type_symbol
_atom_site_fract_x
_atom_site_fract_y
_atom_site_fract_z
O11 O 0.1111(3) 0.68864(18) 0.1500(4)
O6 O 0.0247(3) 0.40992(18) 0.1248(4)
Sm2 Sm 0.86490(2) 0.673270(14) 0.08019(3)
Sm6 Sm 0.36490(2) 0.826730(14) 0.58019(3)
O13 O 0.9435(3) 0.53553(18) 0.1878(4)
O14 O 0.1866(3) 0.75943(19) 0.3824(4)
O17 O 0.8322(3) 0.81896(18) 0.1662(4)
O20 O 0.8979(3) 0.6761(2) 0.3914(4)
N3 N 0.6210(3) 0.6706(2) 0.1895(4)
N4 N 0.4485(3) 0.7316(2) 0.3375(4)
C8 C 0.5237(4) 0.6317(3) 0.0865(5)
C9 C 0.2037(4) 0.7149(3) 0.2573(5)
C10 C 0.3844(4) 0.6409(3) 0.1049(5)
C11 C 0.3512(4) 0.6932(2) 0.2317(5)
C13 C 0.5795(4) 0.7188(3) 0.3111(5)
H3 H 0.315038 0.612087 0.0314
H4 H 0.652930 0.748530 0.382630
H9 H 0.932283 0.62061 0.434367
H10 H 0.966155 0.720215 0.429819
H11 H 0.765117 0.820699 0.251329
H12 H 0.921884 0.842487 0.215764
Sm5 Sm 0.13510(2) 0.326730(14) 0.91981(3)
O9 O 0.7036(3) 0.57145(19) 0.9509(4)
O12 O 0.0565(3) 0.46447(18) 0.8122(4)
O16 O 0.6866(3) 0.74057(19) 0.8824(4)
O19 O 0.9753(3) 0.59008(18) 0.8752(4)
N6 N 0.9485(3) 0.7684(2) 0.8375(4)
O21 O 0.4872(3) 0.55754(18) 0.8289(4)
C12 C 0.5747(4) 0.5817(3) 0.9433(5)
C14 C 0.0092(4) 0.5159(3) 0.9106(5)
C7 C 0.9908(4) 0.4841(3) 0.0894(5)
O2 O 0.3889(3) 0.18864(18) 0.3500(4)
O4 O 0.3134(3) 0.25943(19) 0.1176(4)
N2 N 0.0515(3) 0.2316(2) 0.1625(4)
C2 C 0.2963(4) 0.2149(3) 0.2427(5)
C3 C 0.1156(4) 0.1409(3) 0.3951(5)
C4 C 0.1488(4) 0.1932(2) 0.2683(5)
O8 O 0.0128(3) 0.05754(18) 0.6711(4)
H1 H 0.184962 0.112087 0.4686
Sm3 Sm 0.63510(2) 0.173270(14) 0.41981(3)
O1 O 0.7964(3) 0.07145(19) 0.5491(4)
O3 O 0.5565(3) 0.03553(18) 0.3122(4)
O5 O 0.6678(3) 0.31896(18) 0.3338(4)
O7 O 0.6021(3) 0.1761(2) 0.1086(4)
N1 N 0.8790(3) 0.1706(2) 0.3105(4)
C1 C 0.9763(4) 0.1317(3) 0.4135(5)
C5 C 0.9253(4) 0.0817(3) 0.5567(5)
C6 C 0.9205(4) 0.2188(3) 0.1889(5)
H2 H 0.847070 0.248530 0.117370
O15 O 0.8134(3) 0.24057(19) 0.6176(4)
O18 O 0.5247(3) 0.09008(18) 0.6248(4)
N5 N 0.5515(3) 0.2684(2) 0.6625(4)
C14_2 C 0.4908(4) 0.0159(3) 0.5894(5)
H5 H 0.734883 0.320699 0.248671
H6 H 0.578116 0.342487 0.284236
H7 H 0.567717 0.12061 0.0656327
H8 H 0.533845 0.220215 0.0701813
O6_2 O 0.4753(3) 0.90992(18) 0.3752(4)
C7_2 C 0.5092(4) 0.9841(3) 0.4106(5)
O12_2 O 0.4435(3) 0.96447(18) 0.6878(4)
O1_2 O 0.2964(3) 0.42855(19) 0.0491(4)
O8_2 O 0.5128(3) 0.44246(18) 0.1711(4)
C5_2 C 0.4253(4) 0.4183(3) 0.0567(5)
O2_2 O 0.8889(3) 0.31136(18) 0.8500(4)
O5_2 O 0.1678(3) 0.18104(18) 0.8338(4)
O7_2 O 0.1021(3) 0.3239(2) 0.6086(4)
N1_2 N 0.3790(3) 0.3294(2) 0.8105(4)
C1_2 C 0.4763(4) 0.3683(3) 0.9135(5)
C2_2 C 0.7963(4) 0.2851(3) 0.7427(5)
C3_2 C 0.6156(4) 0.3591(3) 0.8951(5)
C4_2 C 0.6488(4) 0.3068(2) 0.7683(5)
C6_2 C 0.4205(4) 0.2812(3) 0.6889(5)
H1_2 H 0.684962 0.387913 0.9686
H2_2 H 0.347070 0.251470 0.617370
H5_2 H 0.234883 0.179301 0.748671
H6_2 H 0.0781164 0.157513 0.784236
H7_2 H 0.0677166 0.37939 0.565633
H8_2 H 0.0338451 0.279785 0.570181
O9_2 O 0.2036(3) 0.92855(19) 0.4509(4)
O11_2 O 0.6111(3) 0.81136(18) 0.6500(4)
O17_2 O 0.3322(3) 0.68104(18) 0.6662(4)
O20_2 O 0.3979(3) 0.8239(2) 0.8914(4)
N3_2 N 0.1210(3) 0.8294(2) 0.6895(4)
C8_2 C 0.0237(4) 0.8683(3) 0.5865(5)
C12_2 C 0.0747(4) 0.9183(3) 0.4433(5)
C13_2 C 0.0795(4) 0.7812(3) 0.8111(5)
H4_2 H 0.152930 0.751470 0.882630
H9_2 H 0.432283 0.87939 0.934367
H10_2 H 0.466155 0.779785 0.929819
H11_2 H 0.265117 0.679301 0.751329
H12_2 H 0.421884 0.657513 0.715764
C9_2 C 0.7037(4) 0.7851(3) 0.7573(5)
C10_2 C 0.8844(4) 0.8591(3) 0.6049(5)
C11_2 C 0.8512(4) 0.8068(2) 0.7317(5)
O21_2 O 0.9872(3) 0.94246(18) 0.3289(4)
H3_2 H 0.815038 0.887913 0.5314
loop_
_geom_bond_atom_site_label_1
_geom_bond_atom_site_label_2
_geom_bond_site_symmetry_1
_geom_bond_site_symmetry_2
Sm6 O14 1_555 1_555
O13 Sm2 1_555 1_555
O14 C9 1_555 1_555
O17 Sm2 1_555 1_555
O20 Sm2 1_555 1_555
N3 Sm2 1_555 1_555
N4 Sm6 1_555 1_555
C8 N3 1_555 1_555
C9 O11 1_555 1_555
C10 C8 1_555 1_555
C11 N4 1_555 1_555
C13 N3 1_555 1_555
H3 C10 1_555 1_555
H4 C13 1_555 1_555
N4 C13 1_555 1_555
C9 C11 1_555 1_555
C10 C11 1_555 1_555
O20 H9 1_555 1_555
O20 H10 1_555 1_555
O17 H11 1_555 1_555
O17 H12 1_555 1_555
O9 C12 1_555 1_555
O12 Sm5 1_555 1_555
O21 C12 1_555 1_555
O12 C14 1_555 1_555
C7 O13 1_555 1_555
O2 C2 1_555 1_555
O4 C2 1_555 1_555
N2 C4 1_555 1_555
C2 C4 1_555 1_555
C4 C3 1_555 1_555
H1 C3 1_555 1_555
Sm3 O2 1_555 1_555
Sm3 O1 1_555 1_555
O1 C5 1_555 1_555
O3 Sm3 1_555 1_555
O5 Sm3 1_555 1_555
O7 Sm3 1_555 1_555
N1 Sm3 1_555 1_555
C1 N1 1_555 1_555
C5 C1 1_555 1_555
C6 N1 1_555 1_555
H2 C6 1_555 1_555
O15 Sm3 1_555 1_555
O18 Sm3 1_555 1_555
N5 Sm3 1_555 1_555
O18 C14_2 1_555 1_555
O5 H5 1_555 1_555
O5 H6 1_555 1_555
O7 H7 1_555 1_555
O7 H8 1_555 1_555
O6_2 C7_2 1_555 1_555
Sm6 O6_2 1_555 1_555
O12_2 Sm6 1_555 1_555
O1_2 C5_2 1_555 1_555
O8_2 C5_2 1_555 1_555
O2_2 C2_2 1_555 1_555
O15 C2_2 1_555 1_555
O5_2 Sm5 1_555 1_555
O7_2 Sm5 1_555 1_555
N1_2 Sm5 1_555 1_555
N5 C4_2 1_555 1_555
C1_2 N1_2 1_555 1_555
C2_2 C4_2 1_555 1_555
C3_2 C1_2 1_555 1_555
C4_2 C3_2 1_555 1_555
C6_2 N1_2 1_555 1_555
H1_2 C3_2 1_555 1_555
H2_2 C6_2 1_555 1_555
N5 C6_2 1_555 1_555
O5_2 H5_2 1_555 1_555
O5_2 H6_2 1_555 1_555
O7_2 H7_2 1_555 1_555
O7_2 H8_2 1_555 1_555
Sm6 O9_2 1_555 1_555
O9_2 C12_2 1_555 1_555
O11_2 Sm6 1_555 1_555
O17_2 Sm6 1_555 1_555
O20_2 Sm6 1_555 1_555
N3_2 Sm6 1_555 1_555
C8_2 N3_2 1_555 1_555
C12_2 C8_2 1_555 1_555
C13_2 N3_2 1_555 1_555
H4_2 C13_2 1_555 1_555
O20_2 H9_2 1_555 1_555
O20_2 H10_2 1_555 1_555
O17_2 H11_2 1_555 1_555
O17_2 H12_2 1_555 1_555
O16 C9_2 1_555 1_555
C9_2 O11_2 1_555 1_555
C11_2 N6 1_555 1_555
H3_2 C10_2 1_555 1_555
C9_2 C11_2 1_555 1_555
C10_2 C11_2 1_555 1_555

#END
