
###############################################################################
#
# This file contains modified crystal structure data generated from the
# MOF subset of the Cambridge Structural Database (CSD) v543 
# hosted by the Cambridge Crystallographic Data Centre (CCDC).
#
# This work is licensed under the Creative Commons
# Attribution-NonCommercial-ShareAlike 4.0 International License.
# To view a copy of this license, visit
# http://creativecommons.org/licenses/by-nc-sa/4.0/
# or send a letter to
# Creative Commons, PO Box 1866, Mountain View, CA 94042, USA.
#
# CIF created using the CSD Python API on 29 September 2022
# The structure has been converted into the P1 space group
# The structure has a 3D framework
# The original CSD entry CAKXOD is in the monoclinic crystal system
# The framework has been calculated to contain at least 10.0% void space
# The void calculation uses a probe of radius 1.32A, grid spacing 0.4
# H atom positions have been added when not included in the experimental data
#
###############################################################################

data_CAKXOD
_chemical_formula_moiety         '(C28 H24 Gd4 N8 O31)n'
_symmetry_cell_setting           triclinic
_symmetry_space_group_name_H-M   'P 1'
_symmetry_Int_Tables_number      1
_space_group_name_Hall           'P 1'
loop_
_symmetry_equiv_pos_site_id
_symmetry_equiv_pos_as_xyz
1 x,y,z
_cell_length_a                   9.693(1)
_cell_length_b                   15.869(1)
_cell_length_c                   7.955(1)
_cell_angle_alpha                90
_cell_angle_beta                 96.356(6)
_cell_angle_gamma                90
_cell_volume                     1216.1
loop_
_atom_site_label
_atom_site_type_symbol
_atom_site_fract_x
_atom_site_fract_y
_atom_site_fract_z
O11 O 0.1105(2) 0.68917(13) 0.1491(3)
O6 O 0.0236(2) 0.40982(13) 0.1251(2)
Gd2 Gd 0.866108(14) 0.673077(9) 0.078551(17)
Gd6 Gd 0.366108(14) 0.826923(9) 0.578551(17)
O13 O 0.9435(2) 0.53583(13) 0.1880(3)
O14 O 0.1870(2) 0.76100(14) 0.3808(3)
O17 O 0.8355(2) 0.81792(13) 0.1616(3)
O20 O 0.8981(2) 0.67667(15) 0.3874(3)
N3 N 0.6230(2) 0.67150(16) 0.1884(3)
N4 N 0.4500(2) 0.73310(16) 0.3361(3)
C8 C 0.5255(3) 0.63183(18) 0.0861(3)
C9 C 0.2042(3) 0.71600(19) 0.2562(3)
C10 C 0.3848(3) 0.64113(20) 0.1039(3)
C11 C 0.3522(3) 0.69396(18) 0.2304(3)
C13 C 0.5813(3) 0.72010(19) 0.3098(3)
H3 H 0.315038 0.612087 0.0314
H4 H 0.652930 0.748530 0.382630
H9 H 0.932951 0.621154 0.431294
H10 H 0.966375 0.721182 0.425957
H11 H 0.768363 0.820335 0.24714
H12 H 0.926081 0.84133 0.210812
Gd5 Gd 0.133892(14) 0.326923(9) 0.921449(17)
O9 O 0.7058(2) 0.57072(13) 0.9517(3)
O12 O 0.0565(2) 0.46417(13) 0.8120(3)
O16 O 0.6870(2) 0.73900(14) 0.8808(3)
O19 O 0.9764(2) 0.59018(13) 0.8749(2)
N6 N 0.9500(2) 0.76690(16) 0.8361(3)
O21 O 0.4884(2) 0.55714(13) 0.8281(3)
C12 C 0.5764(3) 0.58148(18) 0.9430(3)
C14 C 0.0093(3) 0.51549(19) 0.9099(3)
C7 C 0.9907(3) 0.48451(19) 0.0901(3)
O2 O 0.3895(2) 0.18917(13) 0.3509(3)
O4 O 0.3130(2) 0.26100(14) 0.1192(3)
N2 N 0.0500(2) 0.23310(16) 0.1639(3)
C2 C 0.2958(3) 0.21600(19) 0.2438(3)
C3 C 0.1152(3) 0.14113(20) 0.3961(3)
C4 C 0.1478(3) 0.19396(18) 0.2696(3)
O8 O 0.0116(2) 0.05714(13) 0.6719(3)
H1 H 0.184962 0.112087 0.4686
Gd3 Gd 0.633892(14) 0.173077(9) 0.421449(17)
O1 O 0.7942(2) 0.07072(13) 0.5483(3)
O3 O 0.5565(2) 0.03583(13) 0.3120(3)
O5 O 0.6645(2) 0.31792(13) 0.3384(3)
O7 O 0.6019(2) 0.17667(15) 0.1126(3)
N1 N 0.8770(2) 0.17150(16) 0.3116(3)
C1 C 0.9745(3) 0.13183(18) 0.4139(3)
C5 C 0.9236(3) 0.08148(18) 0.5570(3)
C6 C 0.9187(3) 0.22010(19) 0.1902(3)
H2 H 0.847070 0.248530 0.117370
O15 O 0.8130(2) 0.23900(14) 0.6192(3)
O18 O 0.5236(2) 0.09018(13) 0.6251(2)
N5 N 0.5500(2) 0.26690(16) 0.6639(3)
C14_2 C 0.4907(3) 0.01549(19) 0.5901(3)
H5 H 0.731637 0.320335 0.25286
H6 H 0.573919 0.34133 0.289188
H7 H 0.567049 0.121154 0.0687056
H8 H 0.533625 0.221182 0.0740426
O6_2 O 0.4764(2) 0.90982(13) 0.3749(2)
C7_2 C 0.5093(3) 0.98451(19) 0.4099(3)
O12_2 O 0.4435(2) 0.96417(13) 0.6880(3)
O1_2 O 0.2942(2) 0.42928(13) 0.0483(3)
O8_2 O 0.5116(2) 0.44286(13) 0.1719(3)
C5_2 C 0.4236(3) 0.41852(18) 0.0570(3)
O2_2 O 0.8895(2) 0.31083(13) 0.8509(3)
O5_2 O 0.1645(2) 0.18208(13) 0.8384(3)
O7_2 O 0.1019(2) 0.32333(15) 0.6126(3)
N1_2 N 0.3770(2) 0.32850(16) 0.8116(3)
C1_2 C 0.4745(3) 0.36817(18) 0.9139(3)
C2_2 C 0.7958(3) 0.28400(19) 0.7438(3)
C3_2 C 0.6152(3) 0.35887(20) 0.8961(3)
C4_2 C 0.6478(3) 0.30604(18) 0.7696(3)
C6_2 C 0.4187(3) 0.27990(19) 0.6902(3)
H1_2 H 0.684962 0.387913 0.9686
H2_2 H 0.347070 0.251470 0.617370
H5_2 H 0.231637 0.179665 0.75286
H6_2 H 0.0739186 0.15867 0.789188
H7_2 H 0.0670491 0.378846 0.568706
H8_2 H 0.033625 0.278818 0.574043
O9_2 O 0.2058(2) 0.92928(13) 0.4517(3)
O11_2 O 0.6105(2) 0.81083(13) 0.6491(3)
O17_2 O 0.3355(2) 0.68208(13) 0.6616(3)
O20_2 O 0.3981(2) 0.82333(15) 0.8874(3)
N3_2 N 0.1230(2) 0.82850(16) 0.6884(3)
C8_2 C 0.0255(3) 0.86817(18) 0.5861(3)
C12_2 C 0.0764(3) 0.91852(18) 0.4430(3)
C13_2 C 0.0813(3) 0.77990(19) 0.8098(3)
H4_2 H 0.152930 0.751470 0.882630
H9_2 H 0.432951 0.878846 0.931294
H10_2 H 0.466375 0.778818 0.925957
H11_2 H 0.268363 0.679665 0.74714
H12_2 H 0.426081 0.65867 0.710812
C9_2 C 0.7042(3) 0.78400(19) 0.7562(3)
C10_2 C 0.8848(3) 0.85887(20) 0.6039(3)
C11_2 C 0.8522(3) 0.80604(18) 0.7304(3)
O21_2 O 0.9884(2) 0.94286(13) 0.3281(3)
H3_2 H 0.815038 0.887913 0.5314
loop_
_geom_bond_atom_site_label_1
_geom_bond_atom_site_label_2
_geom_bond_site_symmetry_1
_geom_bond_site_symmetry_2
Gd6 O14 1_555 1_555
O13 Gd2 1_555 1_555
O14 C9 1_555 1_555
O17 Gd2 1_555 1_555
O20 Gd2 1_555 1_555
N3 Gd2 1_555 1_555
N4 Gd6 1_555 1_555
C8 N3 1_555 1_555
C9 O11 1_555 1_555
C10 C8 1_555 1_555
C11 N4 1_555 1_555
C13 N3 1_555 1_555
H3 C10 1_555 1_555
H4 C13 1_555 1_555
N4 C13 1_555 1_555
C9 C11 1_555 1_555
C10 C11 1_555 1_555
O20 H9 1_555 1_555
O20 H10 1_555 1_555
O17 H11 1_555 1_555
O17 H12 1_555 1_555
O9 C12 1_555 1_555
O12 Gd5 1_555 1_555
O21 C12 1_555 1_555
O12 C14 1_555 1_555
C7 O13 1_555 1_555
O2 C2 1_555 1_555
O4 C2 1_555 1_555
N2 C4 1_555 1_555
C2 C4 1_555 1_555
C4 C3 1_555 1_555
H1 C3 1_555 1_555
Gd3 O2 1_555 1_555
Gd3 O1 1_555 1_555
O1 C5 1_555 1_555
O3 Gd3 1_555 1_555
O5 Gd3 1_555 1_555
O7 Gd3 1_555 1_555
N1 Gd3 1_555 1_555
C1 N1 1_555 1_555
C5 C1 1_555 1_555
C6 N1 1_555 1_555
H2 C6 1_555 1_555
O15 Gd3 1_555 1_555
O18 Gd3 1_555 1_555
N5 Gd3 1_555 1_555
O18 C14_2 1_555 1_555
O5 H5 1_555 1_555
O5 H6 1_555 1_555
O7 H7 1_555 1_555
O7 H8 1_555 1_555
O6_2 C7_2 1_555 1_555
Gd6 O6_2 1_555 1_555
O12_2 Gd6 1_555 1_555
O1_2 C5_2 1_555 1_555
O8_2 C5_2 1_555 1_555
O2_2 C2_2 1_555 1_555
O15 C2_2 1_555 1_555
O5_2 Gd5 1_555 1_555
O7_2 Gd5 1_555 1_555
N1_2 Gd5 1_555 1_555
N5 C4_2 1_555 1_555
C1_2 N1_2 1_555 1_555
C2_2 C4_2 1_555 1_555
C3_2 C1_2 1_555 1_555
C4_2 C3_2 1_555 1_555
C6_2 N1_2 1_555 1_555
H1_2 C3_2 1_555 1_555
H2_2 C6_2 1_555 1_555
N5 C6_2 1_555 1_555
O5_2 H5_2 1_555 1_555
O5_2 H6_2 1_555 1_555
O7_2 H7_2 1_555 1_555
O7_2 H8_2 1_555 1_555
Gd6 O9_2 1_555 1_555
O9_2 C12_2 1_555 1_555
O11_2 Gd6 1_555 1_555
O17_2 Gd6 1_555 1_555
O20_2 Gd6 1_555 1_555
N3_2 Gd6 1_555 1_555
C8_2 N3_2 1_555 1_555
C12_2 C8_2 1_555 1_555
C13_2 N3_2 1_555 1_555
H4_2 C13_2 1_555 1_555
O20_2 H9_2 1_555 1_555
O20_2 H10_2 1_555 1_555
O17_2 H11_2 1_555 1_555
O17_2 H12_2 1_555 1_555
O16 C9_2 1_555 1_555
C9_2 O11_2 1_555 1_555
C11_2 N6 1_555 1_555
H3_2 C10_2 1_555 1_555
C9_2 C11_2 1_555 1_555
C10_2 C11_2 1_555 1_555

#END
