
###############################################################################
#
# This file contains modified crystal structure data generated from the
# MOF subset of the Cambridge Structural Database (CSD) v543 
# hosted by the Cambridge Crystallographic Data Centre (CCDC).
#
# This work is licensed under the Creative Commons
# Attribution-NonCommercial-ShareAlike 4.0 International License.
# To view a copy of this license, visit
# http://creativecommons.org/licenses/by-nc-sa/4.0/
# or send a letter to
# Creative Commons, PO Box 1866, Mountain View, CA 94042, USA.
#
# CIF created using the CSD Python API on 29 September 2022
# The structure has been converted into the P1 space group
# The structure has a 3D framework
# The original CSD entry CAKYEU is in the monoclinic crystal system
# The framework has been calculated to contain at least 10.0% void space
# The void calculation uses a probe of radius 1.32A, grid spacing 0.4
# H atom positions have been added when not included in the experimental data
#
###############################################################################

data_CAKYEU
_chemical_formula_moiety         '(C28 H24 Ho4 N8 O31)n'
_symmetry_cell_setting           triclinic
_symmetry_space_group_name_H-M   'P 1'
_symmetry_Int_Tables_number      1
_space_group_name_Hall           'P 1'
loop_
_symmetry_equiv_pos_site_id
_symmetry_equiv_pos_as_xyz
1 x,y,z
_cell_length_a                   9.6219(3)
_cell_length_b                   15.8216(4)
_cell_length_c                   7.9375(2)
_cell_angle_alpha                90
_cell_angle_beta                 96.625(3)
_cell_angle_gamma                90
_cell_volume                     1200.29
loop_
_atom_site_label
_atom_site_type_symbol
_atom_site_fract_x
_atom_site_fract_y
_atom_site_fract_z
O11 O 0.1091(3) 0.68988(16) 0.1439(3)
O6 O 0.0226(3) 0.41026(16) 0.1273(3)
Ho2 Ho 0.866924(17) 0.672765(11) 0.07276(2)
Ho6 Ho 0.366924(17) 0.827235(11) 0.57276(2)
O13 O 0.9436(3) 0.53773(16) 0.1870(3)
O14 O 0.1874(3) 0.76254(17) 0.3764(3)
O17 O 0.8400(3) 0.81660(16) 0.1517(3)
O20 O 0.8983(3) 0.67869(18) 0.3793(3)
N3 N 0.6257(3) 0.67276(19) 0.1828(3)
N4 N 0.4522(3) 0.73498(19) 0.3312(4)
C8 C 0.5271(3) 0.6321(2) 0.0819(4)
C9 C 0.2042(4) 0.7171(2) 0.2513(4)
C10 C 0.3862(3) 0.6414(2) 0.1005(4)
C11 C 0.3527(4) 0.6950(2) 0.2253(4)
C13 C 0.5845(4) 0.7220(2) 0.3034(4)
H3 H 0.315038 0.612087 0.0314
H4 H 0.652930 0.748530 0.382630
H9 H 0.772335 0.82018 0.236901
H10 H 0.931842 0.839474 0.20118
H11 H 0.933583 0.623367 0.42529
H12 H 0.966882 0.723658 0.417119
Ho5 Ho 0.133076(17) 0.327235(11) 0.92724(2)
O9 O 0.7084(3) 0.57069(16) 0.9485(3)
O12 O 0.0564(3) 0.46227(16) 0.8130(3)
O16 O 0.6874(3) 0.73746(17) 0.8764(3)
O19 O 0.9774(3) 0.58974(16) 0.8727(3)
N6 N 0.9522(3) 0.76502(19) 0.8312(4)
O21 O 0.4886(3) 0.55561(16) 0.8248(3)
C12 C 0.5774(4) 0.5811(2) 0.9396(4)
C14 C 0.0099(3) 0.5150(2) 0.9088(4)
C7 C 0.9901(3) 0.4850(2) 0.0912(4)
O2 O 0.3909(3) 0.18988(16) 0.3561(3)
O4 O 0.3126(3) 0.26254(17) 0.1236(3)
N2 N 0.0478(3) 0.23498(19) 0.1688(4)
C2 C 0.2958(4) 0.2171(2) 0.2487(4)
C3 C 0.1138(3) 0.1414(2) 0.3995(4)
C4 C 0.1473(4) 0.1950(2) 0.2747(4)
O8 O 0.0114(3) 0.05561(16) 0.6752(3)
H1 H 0.184962 0.112087 0.4686
Ho3 Ho 0.633076(17) 0.172765(11) 0.42724(2)
O1 O 0.7916(3) 0.07069(16) 0.5515(3)
O3 O 0.5564(3) 0.03773(16) 0.3130(3)
O5 O 0.6600(3) 0.31660(16) 0.3483(3)
O7 O 0.6017(3) 0.17869(18) 0.1207(3)
N1 N 0.8743(3) 0.17276(19) 0.3172(3)
C1 C 0.9729(3) 0.1321(2) 0.4181(4)
C5 C 0.9226(4) 0.0811(2) 0.5604(4)
C6 C 0.9155(4) 0.2220(2) 0.1966(4)
H2 H 0.847070 0.248530 0.117370
O15 O 0.8126(3) 0.23746(17) 0.6236(3)
O18 O 0.5226(3) 0.08974(16) 0.6273(3)
N5 N 0.5478(3) 0.26502(19) 0.6688(4)
C14_2 C 0.4901(3) 0.0150(2) 0.5912(4)
H5 H 0.727665 0.32018 0.263099
H6 H 0.568158 0.339474 0.29882
H7 H 0.566417 0.123367 0.0747104
H8 H 0.533118 0.223658 0.0828806
O6_2 O 0.4774(3) 0.91026(16) 0.3727(3)
C7_2 C 0.5099(3) 0.9850(2) 0.4088(4)
O12_2 O 0.4436(3) 0.96227(16) 0.6870(3)
O1_2 O 0.2916(3) 0.42931(16) 0.0515(3)
O8_2 O 0.5114(3) 0.44439(16) 0.1752(3)
C5_2 C 0.4226(4) 0.4189(2) 0.0604(4)
O2_2 O 0.8909(3) 0.31012(16) 0.8561(3)
O5_2 O 0.1600(3) 0.18340(16) 0.8483(3)
O7_2 O 0.1017(3) 0.32131(18) 0.6207(3)
N1_2 N 0.3743(3) 0.32724(19) 0.8172(3)
C1_2 C 0.4729(3) 0.3679(2) 0.9181(4)
C2_2 C 0.7958(4) 0.2829(2) 0.7487(4)
C3_2 C 0.6138(3) 0.3586(2) 0.8995(4)
C4_2 C 0.6473(4) 0.3050(2) 0.7747(4)
C6_2 C 0.4155(4) 0.2780(2) 0.6966(4)
H1_2 H 0.684962 0.387913 0.9686
H2_2 H 0.347070 0.251470 0.617370
H5_2 H 0.227665 0.17982 0.763099
H6_2 H 0.0681583 0.160526 0.79882
H7_2 H 0.0664174 0.376633 0.57471
H8_2 H 0.0331176 0.276342 0.582881
O9_2 O 0.2084(3) 0.92931(16) 0.4485(3)
O11_2 O 0.6091(3) 0.81012(16) 0.6439(3)
O17_2 O 0.3400(3) 0.68340(16) 0.6517(3)
O20_2 O 0.3983(3) 0.82131(18) 0.8793(3)
N3_2 N 0.1257(3) 0.82724(19) 0.6828(3)
C8_2 C 0.0271(3) 0.8679(2) 0.5819(4)
C12_2 C 0.0774(4) 0.9189(2) 0.4396(4)
C13_2 C 0.0845(4) 0.7780(2) 0.8034(4)
H4_2 H 0.152930 0.751470 0.882630
H9_2 H 0.272335 0.67982 0.736901
H10_2 H 0.431842 0.660526 0.70118
H11_2 H 0.433583 0.876633 0.92529
H12_2 H 0.466882 0.776342 0.917119
C9_2 C 0.7042(4) 0.7829(2) 0.7513(4)
C10_2 C 0.8862(3) 0.8586(2) 0.6005(4)
C11_2 C 0.8527(4) 0.8050(2) 0.7253(4)
O21_2 O 0.9886(3) 0.94439(16) 0.3248(3)
H3_2 H 0.815038 0.887913 0.5314
loop_
_geom_bond_atom_site_label_1
_geom_bond_atom_site_label_2
_geom_bond_site_symmetry_1
_geom_bond_site_symmetry_2
Ho6 O14 1_555 1_555
O13 Ho2 1_555 1_555
O14 C9 1_555 1_555
O17 Ho2 1_555 1_555
O20 Ho2 1_555 1_555
N3 Ho2 1_555 1_555
N4 Ho6 1_555 1_555
C8 N3 1_555 1_555
C9 O11 1_555 1_555
C10 C8 1_555 1_555
C11 N4 1_555 1_555
C13 N3 1_555 1_555
H3 C10 1_555 1_555
H4 C13 1_555 1_555
N4 C13 1_555 1_555
C9 C11 1_555 1_555
C10 C11 1_555 1_555
O17 H9 1_555 1_555
O17 H10 1_555 1_555
O20 H11 1_555 1_555
O20 H12 1_555 1_555
O9 C12 1_555 1_555
O12 Ho5 1_555 1_555
O21 C12 1_555 1_555
O12 C14 1_555 1_555
C7 O13 1_555 1_555
O2 C2 1_555 1_555
O4 C2 1_555 1_555
N2 C4 1_555 1_555
C2 C4 1_555 1_555
C4 C3 1_555 1_555
H1 C3 1_555 1_555
Ho3 O2 1_555 1_555
Ho3 O1 1_555 1_555
O1 C5 1_555 1_555
O3 Ho3 1_555 1_555
O5 Ho3 1_555 1_555
O7 Ho3 1_555 1_555
N1 Ho3 1_555 1_555
C1 N1 1_555 1_555
C5 C1 1_555 1_555
C6 N1 1_555 1_555
H2 C6 1_555 1_555
O15 Ho3 1_555 1_555
O18 Ho3 1_555 1_555
N5 Ho3 1_555 1_555
O18 C14_2 1_555 1_555
O5 H5 1_555 1_555
O5 H6 1_555 1_555
O7 H7 1_555 1_555
O7 H8 1_555 1_555
O6_2 C7_2 1_555 1_555
Ho6 O6_2 1_555 1_555
O12_2 Ho6 1_555 1_555
O1_2 C5_2 1_555 1_555
O8_2 C5_2 1_555 1_555
O2_2 C2_2 1_555 1_555
O15 C2_2 1_555 1_555
O5_2 Ho5 1_555 1_555
O7_2 Ho5 1_555 1_555
N1_2 Ho5 1_555 1_555
N5 C4_2 1_555 1_555
C1_2 N1_2 1_555 1_555
C2_2 C4_2 1_555 1_555
C3_2 C1_2 1_555 1_555
C4_2 C3_2 1_555 1_555
C6_2 N1_2 1_555 1_555
H1_2 C3_2 1_555 1_555
H2_2 C6_2 1_555 1_555
N5 C6_2 1_555 1_555
O5_2 H5_2 1_555 1_555
O5_2 H6_2 1_555 1_555
O7_2 H7_2 1_555 1_555
O7_2 H8_2 1_555 1_555
Ho6 O9_2 1_555 1_555
O9_2 C12_2 1_555 1_555
O11_2 Ho6 1_555 1_555
O17_2 Ho6 1_555 1_555
O20_2 Ho6 1_555 1_555
N3_2 Ho6 1_555 1_555
C8_2 N3_2 1_555 1_555
C12_2 C8_2 1_555 1_555
C13_2 N3_2 1_555 1_555
H4_2 C13_2 1_555 1_555
O17_2 H9_2 1_555 1_555
O17_2 H10_2 1_555 1_555
O20_2 H11_2 1_555 1_555
O20_2 H12_2 1_555 1_555
O16 C9_2 1_555 1_555
C9_2 O11_2 1_555 1_555
C11_2 N6 1_555 1_555
H3_2 C10_2 1_555 1_555
C9_2 C11_2 1_555 1_555
C10_2 C11_2 1_555 1_555

#END
