
###############################################################################
#
# This file contains modified crystal structure data generated from the
# MOF subset of the Cambridge Structural Database (CSD) v543 
# hosted by the Cambridge Crystallographic Data Centre (CCDC).
#
# This work is licensed under the Creative Commons
# Attribution-NonCommercial-ShareAlike 4.0 International License.
# To view a copy of this license, visit
# http://creativecommons.org/licenses/by-nc-sa/4.0/
# or send a letter to
# Creative Commons, PO Box 1866, Mountain View, CA 94042, USA.
#
# CIF created using the CSD Python API on 29 September 2022
# The structure has been converted into the P1 space group
# The structure has a 3D framework
# The original CSD entry CAKYIY is in the monoclinic crystal system
# The framework has been calculated to contain at least 10.0% void space
# The void calculation uses a probe of radius 1.32A, grid spacing 0.4
# H atom positions have been added when not included in the experimental data
#
###############################################################################

data_CAKYIY
_chemical_formula_moiety         '(C28 H24 Er4 N8 O31)n'
_symmetry_cell_setting           triclinic
_symmetry_space_group_name_H-M   'P 1'
_symmetry_Int_Tables_number      1
_space_group_name_Hall           'P 1'
loop_
_symmetry_equiv_pos_site_id
_symmetry_equiv_pos_as_xyz
1 x,y,z
_cell_length_a                   9.5926(3)
_cell_length_b                   15.7938(4)
_cell_length_c                   7.9230(3)
_cell_angle_alpha                90
_cell_angle_beta                 96.759(3)
_cell_angle_gamma                90
_cell_volume                     1192.02
loop_
_atom_site_label
_atom_site_type_symbol
_atom_site_fract_x
_atom_site_fract_y
_atom_site_fract_z
O11 O 0.1088(4) 0.6896(2) 0.1449(5)
O6 O 0.0224(4) 0.4099(2) 0.1278(4)
Er2 Er 0.86722(2) 0.672596(13) 0.07183(3)
Er6 Er 0.36722(2) 0.827404(13) 0.57183(3)
O13 O 0.9435(4) 0.5377(2) 0.1867(5)
O14 O 0.1872(4) 0.7633(2) 0.3758(4)
O17 O 0.8413(4) 0.8159(2) 0.1498(5)
O20 O 0.8987(4) 0.6787(2) 0.3774(5)
N3 N 0.6264(5) 0.6733(2) 0.1827(5)
N4 N 0.4521(4) 0.7355(3) 0.3304(5)
C8 C 0.5274(5) 0.6322(3) 0.0813(6)
C9 C 0.2037(5) 0.7174(3) 0.2506(6)
C10 C 0.3858(5) 0.6409(3) 0.1001(6)
C11 C 0.3531(5) 0.6951(3) 0.2256(6)
C13 C 0.5850(5) 0.7226(3) 0.3030(6)
H3 H 0.315038 0.612087 0.0314
H4 H 0.652930 0.748530 0.382630
H9 H 0.934582 0.6234 0.423684
H10 H 0.967162 0.723961 0.415302
H11 H 0.773169 0.819776 0.234633
H12 H 0.933525 0.838579 0.19994
Er5 Er 0.13278(2) 0.327404(13) 0.92817(3)
O9 O 0.7099(4) 0.5705(2) 0.9473(5)
O12 O 0.0565(4) 0.4623(2) 0.8133(5)
O16 O 0.6872(4) 0.7367(2) 0.8758(4)
O19 O 0.9776(4) 0.5901(2) 0.8722(4)
N6 N 0.9521(4) 0.7645(3) 0.8304(5)
O21 O 0.4892(4) 0.5555(2) 0.8247(4)
C12 C 0.5780(5) 0.5807(3) 0.9399(6)
C14 C 0.0099(5) 0.5149(3) 0.9088(6)
C7 C 0.9901(5) 0.4851(3) 0.0912(6)
O2 O 0.3912(4) 0.1896(2) 0.3551(5)
O4 O 0.3128(4) 0.2633(2) 0.1242(4)
N2 N 0.0479(4) 0.2355(3) 0.1696(5)
C2 C 0.2963(5) 0.2174(3) 0.2494(6)
C3 C 0.1142(5) 0.1409(3) 0.3999(6)
C4 C 0.1469(5) 0.1951(3) 0.2744(6)
O8 O 0.0108(4) 0.0555(2) 0.6753(4)
H1 H 0.184962 0.112087 0.4686
Er3 Er 0.63278(2) 0.172596(13) 0.42817(3)
O1 O 0.7901(4) 0.0705(2) 0.5527(5)
O3 O 0.5565(4) 0.0377(2) 0.3133(5)
O5 O 0.6587(4) 0.3159(2) 0.3502(5)
O7 O 0.6013(4) 0.1787(2) 0.1226(5)
N1 N 0.8736(5) 0.1733(2) 0.3173(5)
C1 C 0.9726(5) 0.1322(3) 0.4187(6)
C5 C 0.9220(5) 0.0807(3) 0.5601(6)
C6 C 0.9150(5) 0.2226(3) 0.1970(6)
H2 H 0.847070 0.248530 0.117370
O15 O 0.8128(4) 0.2367(2) 0.6242(4)
O18 O 0.5224(4) 0.0901(2) 0.6278(4)
N5 N 0.5479(4) 0.2645(3) 0.6696(5)
C14_2 C 0.4901(5) 0.0149(3) 0.5912(6)
H5 H 0.565418 0.1234 0.0763156
H6 H 0.532838 0.223961 0.0846984
H7 H 0.726831 0.319776 0.265367
H8 H 0.566475 0.338579 0.30006
O6_2 O 0.4776(4) 0.9099(2) 0.3722(4)
C7_2 C 0.5099(5) 0.9851(3) 0.4088(6)
O12_2 O 0.4435(4) 0.9623(2) 0.6867(5)
O1_2 O 0.2901(4) 0.4295(2) 0.0527(5)
O8_2 O 0.5108(4) 0.4445(2) 0.1753(4)
C5_2 C 0.4220(5) 0.4193(3) 0.0601(6)
O2_2 O 0.8912(4) 0.3104(2) 0.8551(5)
O5_2 O 0.1587(4) 0.1841(2) 0.8502(5)
O7_2 O 0.1013(4) 0.3213(2) 0.6226(5)
N1_2 N 0.3736(5) 0.3267(2) 0.8173(5)
C1_2 C 0.4726(5) 0.3678(3) 0.9187(6)
C2_2 C 0.7963(5) 0.2826(3) 0.7494(6)
C3_2 C 0.6142(5) 0.3591(3) 0.8999(6)
C4_2 C 0.6469(5) 0.3049(3) 0.7744(6)
C6_2 C 0.4150(5) 0.2774(3) 0.6970(6)
H1_2 H 0.684962 0.387913 0.9686
H2_2 H 0.347070 0.251470 0.617370
H5_2 H 0.0654184 0.3766 0.576316
H6_2 H 0.0328383 0.276039 0.584698
H7_2 H 0.226831 0.180224 0.765367
H8_2 H 0.0664746 0.161421 0.80006
O9_2 O 0.2099(4) 0.9295(2) 0.4473(5)
O11_2 O 0.6088(4) 0.8104(2) 0.6449(5)
O17_2 O 0.3413(4) 0.6841(2) 0.6498(5)
O20_2 O 0.3987(4) 0.8213(2) 0.8774(5)
N3_2 N 0.1264(5) 0.8267(2) 0.6827(5)
C8_2 C 0.0274(5) 0.8678(3) 0.5813(6)
C12_2 C 0.0780(5) 0.9193(3) 0.4399(6)
C13_2 C 0.0850(5) 0.7774(3) 0.8030(6)
H4_2 H 0.152930 0.751470 0.882630
H9_2 H 0.434582 0.8766 0.923684
H10_2 H 0.467162 0.776039 0.915302
H11_2 H 0.273169 0.680224 0.734633
H12_2 H 0.433525 0.661421 0.69994
C9_2 C 0.7037(5) 0.7826(3) 0.7506(6)
C10_2 C 0.8858(5) 0.8591(3) 0.6001(6)
C11_2 C 0.8531(5) 0.8049(3) 0.7256(6)
O21_2 O 0.9892(4) 0.9445(2) 0.3247(4)
H3_2 H 0.815038 0.887913 0.5314
loop_
_geom_bond_atom_site_label_1
_geom_bond_atom_site_label_2
_geom_bond_site_symmetry_1
_geom_bond_site_symmetry_2
Er6 O14 1_555 1_555
O13 Er2 1_555 1_555
O14 C9 1_555 1_555
O17 Er2 1_555 1_555
O20 Er2 1_555 1_555
N3 Er2 1_555 1_555
N4 Er6 1_555 1_555
C8 N3 1_555 1_555
C9 O11 1_555 1_555
C10 C8 1_555 1_555
C11 N4 1_555 1_555
C13 N3 1_555 1_555
H3 C10 1_555 1_555
H4 C13 1_555 1_555
N4 C13 1_555 1_555
C9 C11 1_555 1_555
C10 C11 1_555 1_555
O20 H9 1_555 1_555
O20 H10 1_555 1_555
O17 H11 1_555 1_555
O17 H12 1_555 1_555
O9 C12 1_555 1_555
O12 Er5 1_555 1_555
O21 C12 1_555 1_555
O12 C14 1_555 1_555
C7 O13 1_555 1_555
O2 C2 1_555 1_555
O4 C2 1_555 1_555
N2 C4 1_555 1_555
C2 C4 1_555 1_555
C4 C3 1_555 1_555
H1 C3 1_555 1_555
Er3 O2 1_555 1_555
Er3 O1 1_555 1_555
O1 C5 1_555 1_555
O3 Er3 1_555 1_555
O5 Er3 1_555 1_555
O7 Er3 1_555 1_555
N1 Er3 1_555 1_555
C1 N1 1_555 1_555
C5 C1 1_555 1_555
C6 N1 1_555 1_555
H2 C6 1_555 1_555
O15 Er3 1_555 1_555
O18 Er3 1_555 1_555
N5 Er3 1_555 1_555
O18 C14_2 1_555 1_555
O7 H5 1_555 1_555
O7 H6 1_555 1_555
O5 H7 1_555 1_555
O5 H8 1_555 1_555
O6_2 C7_2 1_555 1_555
Er6 O6_2 1_555 1_555
O12_2 Er6 1_555 1_555
O1_2 C5_2 1_555 1_555
O8_2 C5_2 1_555 1_555
O2_2 C2_2 1_555 1_555
O15 C2_2 1_555 1_555
O5_2 Er5 1_555 1_555
O7_2 Er5 1_555 1_555
N1_2 Er5 1_555 1_555
N5 C4_2 1_555 1_555
C1_2 N1_2 1_555 1_555
C2_2 C4_2 1_555 1_555
C3_2 C1_2 1_555 1_555
C4_2 C3_2 1_555 1_555
C6_2 N1_2 1_555 1_555
H1_2 C3_2 1_555 1_555
H2_2 C6_2 1_555 1_555
N5 C6_2 1_555 1_555
O7_2 H5_2 1_555 1_555
O7_2 H6_2 1_555 1_555
O5_2 H7_2 1_555 1_555
O5_2 H8_2 1_555 1_555
Er6 O9_2 1_555 1_555
O9_2 C12_2 1_555 1_555
O11_2 Er6 1_555 1_555
O17_2 Er6 1_555 1_555
O20_2 Er6 1_555 1_555
N3_2 Er6 1_555 1_555
C8_2 N3_2 1_555 1_555
C12_2 C8_2 1_555 1_555
C13_2 N3_2 1_555 1_555
H4_2 C13_2 1_555 1_555
O20_2 H9_2 1_555 1_555
O20_2 H10_2 1_555 1_555
O17_2 H11_2 1_555 1_555
O17_2 H12_2 1_555 1_555
O16 C9_2 1_555 1_555
C9_2 O11_2 1_555 1_555
C11_2 N6 1_555 1_555
H3_2 C10_2 1_555 1_555
C9_2 C11_2 1_555 1_555
C10_2 C11_2 1_555 1_555

#END
