
###############################################################################
#
# This file contains modified crystal structure data generated from the
# MOF subset of the Cambridge Structural Database (CSD) v543 
# hosted by the Cambridge Crystallographic Data Centre (CCDC).
#
# This work is licensed under the Creative Commons
# Attribution-NonCommercial-ShareAlike 4.0 International License.
# To view a copy of this license, visit
# http://creativecommons.org/licenses/by-nc-sa/4.0/
# or send a letter to
# Creative Commons, PO Box 1866, Mountain View, CA 94042, USA.
#
# CIF created using the CSD Python API on 29 September 2022
# The structure has been converted into the P1 space group
# The structure has a 3D framework
# The original CSD entry CAMTOD03 is in the monoclinic crystal system
# The framework has been calculated to contain at least 10.0% void space
# The void calculation uses a probe of radius 1.32A, grid spacing 0.4
#
###############################################################################

data_CAMTOD03
_chemical_formula_moiety         '(C40 H23 Al15 N16 O37)n'
_symmetry_cell_setting           triclinic
_symmetry_space_group_name_H-M   'P 1'
_symmetry_Int_Tables_number      1
_space_group_name_Hall           'P 1'
loop_
_symmetry_equiv_pos_site_id
_symmetry_equiv_pos_as_xyz
1 x,y,z
_cell_length_a                   12.299(6)
_cell_length_b                   14.722(7)
_cell_length_c                   14.116(6)
_cell_angle_alpha                90
_cell_angle_beta                 101.887(6)
_cell_angle_gamma                90
_cell_volume                     2501.12
loop_
_atom_site_label
_atom_site_type_symbol
_atom_site_fract_x
_atom_site_fract_y
_atom_site_fract_z
Al10 Al -0.000000 -0.000000 0.000000
Al10_2 Al -0.000000 -0.000000 1.000000
Al11 Al 0.23627(4) 0.06139(3) 0.94120(4)
Al10_3 Al -0.000000 1.000000 0.000000
Al3 Al -0.000000 0.500000 0.500000
O10 O 0.03021(11) 0.61004(9) 0.57188(10)
C5 C 0.02571(15) 0.74110(13) 0.66414(14)
N3 N 0.12804(14) 0.76628(12) 0.65522(14)
N4 N 0.15259(14) 0.83751(12) 0.71395(14)
C9 C 0.07049(15) 0.85732(13) 0.76109(14)
H6 H 0.214472 0.867827 0.721119
C10 C 0.08295(15) 0.92930(12) 0.83486(13)
O19 O 0.15059(10) 0.47733(8) 0.52560(9)
O21 O 0.00897(11) 0.56541(9) 0.38396(10)
O27 O 0.00897(11) 0.93459(9) 0.88396(10)
O28 O 0.16799(11) 0.97877(9) 0.84257(9)
Al10_4 Al -0.000000 1.000000 1.000000
Al7 Al 0.500000 -0.000000 0.000000
Al10_5 Al 1.000000 -0.000000 0.000000
Al7_2 Al 0.500000 -0.000000 1.000000
Al10_6 Al 1.000000 -0.000000 1.000000
Al6 Al 0.76373(4) 0.93861(3) 0.05880(4)
Al7_3 Al 0.500000 1.000000 0.000000
Al10_7 Al 1.000000 1.000000 0.000000
Al1 Al 0.500000 0.500000 0.500000
O1 O 0.64998(10) 0.48175(8) 0.51586(9)
O2 O 0.51684(10) 0.54955(9) 0.62681(9)
O3 O 0.48759(10) 0.37967(9) 0.55186(10)
Al2 Al 0.76373(4) 0.56139(3) 0.55880(4)
H1 H 0.671497 0.423445 0.499709
C1 C 0.59287(15) 0.59986(12) 0.67194(13)
O4 O 0.84941(10) 0.52267(8) 0.47440(9)
O5 O 0.68803(10) 0.61012(9) 0.65425(9)
O6 O 0.83201(11) 0.47877(9) 0.65743(9)
O7 O 0.86990(10) 0.65180(9) 0.61199(9)
O8 O 0.69470(10) 0.65306(9) 0.46988(10)
C2 C 0.56737(15) 0.65574(13) 0.75153(14)
Al3_2 Al 1.000000 0.500000 0.500000
H2 H 0.811772 0.513246 0.410133
C3 C 0.97105(15) 0.66163(12) 0.61105(13)
N1 N 0.46337(14) 0.65851(13) 0.76766(13)
C4 C 0.63747(15) 0.71579(13) 0.81187(14)
O9 O 0.99103(11) 0.43459(9) 0.61604(10)
N2 N 0.46658(14) 0.72207(13) 0.83591(14)
C6 C 0.56906(15) 0.75758(13) 0.86461(14)
H3 H 0.713785 0.725497 0.815666
C7 C 0.98591(16) 0.79643(13) 0.72994(14)
H4 H 0.409267 0.738524 0.859039
C8 C 0.59372(15) 0.83377(12) 0.93359(13)
H5 H 0.916973 0.792841 0.748642
O11 O 0.35002(10) 0.51825(8) 0.48414(9)
O12 O 0.48316(10) 0.45045(9) 0.37319(9)
O13 O 0.51241(10) 0.62033(9) 0.44814(10)
Al4 Al 0.23627(4) 0.43861(3) 0.44120(4)
H7 H 0.328503 0.576555 0.500291
C11 C 0.40713(15) 0.40014(12) 0.32806(13)
O15 O 0.31197(10) 0.38988(9) 0.34575(9)
O16 O 0.16799(11) 0.52123(9) 0.34257(9)
O17 O 0.13010(10) 0.34820(9) 0.38801(9)
O18 O 0.30530(10) 0.34694(9) 0.53012(10)
C12 C 0.43263(15) 0.34426(13) 0.24847(14)
H8 H 0.188228 0.486754 0.589867
C13 C 0.02895(15) 0.33837(12) 0.38895(13)
N5 N 0.53663(14) 0.34149(13) 0.23234(13)
C14 C 0.36253(15) 0.28421(13) 0.18813(14)
O20 O 0.96979(11) 0.38996(9) 0.42812(10)
N6 N 0.53342(14) 0.27793(13) 0.16409(14)
C16 C 0.43094(15) 0.24242(13) 0.13539(14)
H9 H 0.286215 0.274503 0.184334
C17 C 0.01409(16) 0.20357(13) 0.27006(14)
H10 H 0.590733 0.261476 0.140961
C18 C 0.40628(15) 0.16623(12) 0.06641(13)
O23 O 0.69470(10) 0.84694(9) 0.96988(10)
O24 O 0.51241(10) 0.87967(9) 0.94814(10)
H11 H 0.083027 0.207159 0.251358
O25 O 0.30530(10) 0.15306(9) 0.03012(10)
O26 O 0.48759(10) 0.12033(9) 0.05186(10)
Al7_4 Al 0.500000 1.000000 1.000000
Al10_8 Al 1.000000 1.000000 1.000000
C15 C 0.97429(15) 0.25890(13) 0.33586(14)
N7 N 0.87196(14) 0.23372(12) 0.34478(14)
N8 N 0.84741(14) 0.16249(12) 0.28605(14)
C19 C 0.92951(15) 0.14268(13) 0.23891(14)
H12 H 0.785528 0.132173 0.278881
C20 C 0.91705(15) 0.07070(12) 0.16514(13)
O29 O 0.99103(11) 0.06541(9) 0.11604(10)
O30 O 0.83201(11) 0.02123(9) 0.15743(9)
O22 O 0.03021(11) 0.88996(9) 0.07188(10)
C15_2 C 0.02571(15) 0.75890(13) 0.16414(14)
N7_2 N 0.12804(14) 0.73372(12) 0.15522(14)
N8_2 N 0.15259(14) 0.66249(12) 0.21395(14)
C19_2 C 0.07049(15) 0.64268(13) 0.26109(14)
H12_2 H 0.214472 0.632173 0.221119
C20_2 C 0.08295(15) 0.57070(12) 0.33486(13)
O4_2 O 0.15059(10) 0.02267(8) 0.02560(9)
H2_2 H 0.188228 0.013246 0.089867
O11_2 O 0.64998(10) 0.01825(8) 0.01586(9)
O2_2 O 0.48316(10) 0.04955(9) 0.87319(9)
C1_2 C 0.40713(15) 0.09986(12) 0.82806(13)
O5_2 O 0.31197(10) 0.11012(9) 0.84575(9)
O7_2 O 0.13010(10) 0.15180(9) 0.88801(9)
C2_2 C 0.43263(15) 0.15574(13) 0.74847(14)
C3_2 C 0.02895(15) 0.16163(12) 0.88895(13)
N1_2 N 0.53663(14) 0.15851(13) 0.73234(13)
C4_2 C 0.36253(15) 0.21579(13) 0.68813(14)
N2_2 N 0.53342(14) 0.22207(13) 0.66409(14)
C6_2 C 0.43094(15) 0.25758(13) 0.63539(14)
H3_2 H 0.286215 0.225497 0.684334
C7_2 C 0.01409(16) 0.29643(13) 0.77006(14)
H4_2 H 0.590733 0.238524 0.640961
C8_2 C 0.40628(15) 0.33377(12) 0.56641(13)
H5_2 H 0.083027 0.292841 0.751358
H7_2 H 0.671497 0.076555 0.999709
H1_2 H 0.328503 0.923445 0.000291
O12_2 O 0.51684(10) 0.95045(9) 0.12681(9)
C11_2 C 0.59287(15) 0.90014(12) 0.17194(13)
O15_2 O 0.68803(10) 0.88988(9) 0.15425(9)
O17_2 O 0.86990(10) 0.84820(9) 0.11199(9)
C12_2 C 0.56737(15) 0.84426(13) 0.25153(14)
C13_2 C 0.97105(15) 0.83837(12) 0.11105(13)
N5_2 N 0.46337(14) 0.84149(13) 0.26766(13)
C14_2 C 0.63747(15) 0.78421(13) 0.31187(14)
N6_2 N 0.46658(14) 0.77793(13) 0.33591(14)
C16_2 C 0.56906(15) 0.74242(13) 0.36461(14)
H9_2 H 0.713785 0.774503 0.315666
C17_2 C 0.98591(16) 0.70357(13) 0.22994(14)
H10_2 H 0.409267 0.761476 0.359039
C18_2 C 0.59372(15) 0.66623(12) 0.43359(13)
H11_2 H 0.916973 0.707159 0.248642
O1_2 O 0.35002(10) 0.98175(8) 0.98414(9)
O14 O 0.84941(10) 0.97733(8) 0.97440(9)
H8_2 H 0.811772 0.986754 0.910133
O10_2 O 0.96979(11) 0.11004(9) 0.92812(10)
C5_2 C 0.97429(15) 0.24110(13) 0.83586(14)
N3_2 N 0.87196(14) 0.26628(12) 0.84478(14)
N4_2 N 0.84741(14) 0.33751(12) 0.78605(14)
C9_2 C 0.92951(15) 0.35732(13) 0.73891(14)
H6_2 H 0.785528 0.367827 0.778881
C10_2 C 0.91705(15) 0.42930(12) 0.66514(13)
loop_
_geom_bond_atom_site_label_1
_geom_bond_atom_site_label_2
_geom_bond_site_symmetry_1
_geom_bond_site_symmetry_2
O10 Al3 1_555 1_555
N3 C5 1_555 1_555
N4 N3 1_555 1_555
H6 N4 1_555 1_555
C10 C9 1_555 1_555
O19 Al3 1_555 1_555
O21 Al3 1_555 1_555
O27 C10 1_555 1_555
O28 C10 1_555 1_555
Al10_4 O27 1_555 1_555
N4 C9 1_555 1_555
Al1 O1 1_555 1_555
O1 Al2 1_555 1_555
O2 Al1 1_555 1_555
O3 Al1 1_555 1_555
Al2 O4 1_555 1_555
H1 O1 1_555 1_555
C1 O2 1_555 1_555
O4 Al3_2 1_555 1_555
O5 Al2 1_555 1_555
O6 Al2 1_555 1_555
O7 Al2 1_555 1_555
O8 Al2 1_555 1_555
C2 C1 1_555 1_555
Al3_2 O9 1_555 1_555
H2 O4 1_555 1_555
C3 O7 1_555 1_555
N1 C2 1_555 1_555
C4 C2 1_555 1_555
N2 N1 1_555 1_555
C6 C4 1_555 1_555
H3 C4 1_555 1_555
H4 N2 1_555 1_555
C8 C6 1_555 1_555
H5 C7 1_555 1_555
O11 Al1 1_555 1_555
O12 Al1 1_555 1_555
O13 Al1 1_555 1_555
Al4 O11 1_555 1_555
H7 O11 1_555 1_555
C11 O12 1_555 1_555
O19 Al4 1_555 1_555
O15 Al4 1_555 1_555
O16 Al4 1_555 1_555
O17 Al4 1_555 1_555
O18 Al4 1_555 1_555
C12 C11 1_555 1_555
H8 O19 1_555 1_555
C13 O17 1_555 1_555
N5 C12 1_555 1_555
C14 C12 1_555 1_555
O20 Al3_2 1_555 1_555
N6 N5 1_555 1_555
C16 C14 1_555 1_555
H9 C14 1_555 1_555
H10 N6 1_555 1_555
C18 C16 1_555 1_555
O23 C8 1_555 1_555
O24 C8 1_555 1_555
H11 C17 1_555 1_555
O25 C18 1_555 1_555
O26 C18 1_555 1_555
Al7_4 O24 1_555 1_555
Al7 O26 1_555 1_555
C1 O5 1_555 1_555
N2 C6 1_555 1_555
C11 O15 1_555 1_555
N6 C16 1_555 1_555
N7 C15 1_555 1_555
N8 N7 1_555 1_555
H12 N8 1_555 1_555
C20 C19 1_555 1_555
O29 C20 1_555 1_555
O30 C20 1_555 1_555
Al10_5 O29 1_555 1_555
N8 C19 1_555 1_555
O22 Al10_3 1_555 1_555
N7_2 C15_2 1_555 1_555
N8_2 N7_2 1_555 1_555
H12_2 N8_2 1_555 1_555
C20_2 C19_2 1_555 1_555
O21 C20_2 1_555 1_555
O16 C20_2 1_555 1_555
N8_2 C19_2 1_555 1_555
O4_2 Al10 1_555 1_555
H2_2 O4_2 1_555 1_555
O11_2 Al7 1_555 1_555
O2_2 Al7_2 1_555 1_555
C1_2 O2_2 1_555 1_555
O5_2 Al11 1_555 1_555
O7_2 Al11 1_555 1_555
C2_2 C1_2 1_555 1_555
C3_2 O7_2 1_555 1_555
N1_2 C2_2 1_555 1_555
C4_2 C2_2 1_555 1_555
N2_2 N1_2 1_555 1_555
C6_2 C4_2 1_555 1_555
H3_2 C4_2 1_555 1_555
H4_2 N2_2 1_555 1_555
C8_2 C6_2 1_555 1_555
H5_2 C7_2 1_555 1_555
O18 C8_2 1_555 1_555
O3 C8_2 1_555 1_555
C1_2 O5_2 1_555 1_555
N2_2 C6_2 1_555 1_555
O12_2 Al7_3 1_555 1_555
C11_2 O12_2 1_555 1_555
O15_2 Al6 1_555 1_555
O17_2 Al6 1_555 1_555
C12_2 C11_2 1_555 1_555
C13_2 O17_2 1_555 1_555
N5_2 C12_2 1_555 1_555
C14_2 C12_2 1_555 1_555
N6_2 N5_2 1_555 1_555
C16_2 C14_2 1_555 1_555
H9_2 C14_2 1_555 1_555
H10_2 N6_2 1_555 1_555
C18_2 C16_2 1_555 1_555
H11_2 C17_2 1_555 1_555
O8 C18_2 1_555 1_555
O13 C18_2 1_555 1_555
C11_2 O15_2 1_555 1_555
N6_2 C16_2 1_555 1_555
Al7_4 O1_2 1_555 1_555
H8_2 O14 1_555 1_555
Al10_8 O14 1_555 1_555
O10_2 Al10_6 1_555 1_555
N3_2 C5_2 1_555 1_555
N4_2 N3_2 1_555 1_555
H6_2 N4_2 1_555 1_555
C10_2 C9_2 1_555 1_555
O9 C10_2 1_555 1_555
O6 C10_2 1_555 1_555
N4_2 C9_2 1_555 1_555

#END
