
###############################################################################
#
# This file contains modified crystal structure data generated from the
# MOF subset of the Cambridge Structural Database (CSD) v543 
# hosted by the Cambridge Crystallographic Data Centre (CCDC).
#
# This work is licensed under the Creative Commons
# Attribution-NonCommercial-ShareAlike 4.0 International License.
# To view a copy of this license, visit
# http://creativecommons.org/licenses/by-nc-sa/4.0/
# or send a letter to
# Creative Commons, PO Box 1866, Mountain View, CA 94042, USA.
#
# CIF created using the CSD Python API on 29 September 2022
# The structure has been converted into the P1 space group
# The structure has a 3D framework
# The original CSD entry CAMTOD01 is in the monoclinic crystal system
# The framework has been calculated to contain at least 10.0% void space
# The void calculation uses a probe of radius 1.32A, grid spacing 0.4
#
###############################################################################

data_CAMTOD01
_chemical_formula_moiety         '(C40 H23 Al15 N16 O39)n'
_symmetry_cell_setting           triclinic
_symmetry_space_group_name_H-M   'P 1'
_symmetry_Int_Tables_number      1
_space_group_name_Hall           'P 1'
loop_
_symmetry_equiv_pos_site_id
_symmetry_equiv_pos_as_xyz
1 x,y,z
_cell_length_a                   12.275(5)
_cell_length_b                   14.639(6)
_cell_length_c                   14.172(6)
_cell_angle_alpha                90
_cell_angle_beta                 101.585(5)
_cell_angle_gamma                90
_cell_volume                     2494.74
loop_
_atom_site_label
_atom_site_type_symbol
_atom_site_fract_x
_atom_site_fract_y
_atom_site_fract_z
Al7 Al 0.500000 0.000000 0.000000
Al9 Al 0.000000 0.000000 0.000000
Al7_2 Al 0.500000 0.000000 1.000000
Al9_2 Al 0.000000 0.000000 1.000000
Al1 Al 0.500000 0.500000 0.500000
Al2 Al -0.000000 0.500000 0.500000
Al3 Al 0.23668(4) 0.56174(3) 0.44142(3)
O1 O 0.35000(10) 0.48148(8) 0.48377(9)
H1 H 0.328252 0.422706 0.499317
O2 O 0.31246(10) 0.61029(8) 0.34661(9)
O3 O 0.15011(10) 0.52344(8) 0.52508(8)
H2 H 0.187310 0.514627 0.589171
O5 O 0.16804(10) 0.02113(9) 0.84361(9)
O6 O 0.30540(10) 0.84579(8) 0.02991(9)
O7 O 0.02997(10) 0.39053(9) 0.57304(10)
O8 O 0.48452(10) 0.55119(9) 0.37502(9)
O9 O 0.48743(10) 0.87949(8) 0.05284(9)
O10 O 0.01026(11) 0.06776(9) 0.88592(9)
N1 N 0.12877(14) 0.23429(12) 0.65669(14)
N2 N 0.15355(14) 0.16336(12) 0.71543(14)
H3 H 0.215898 0.133380 0.723008
N3 N 0.53342(14) 0.72088(13) 0.16355(14)
H4 H 0.590750 0.737106 0.140032
N4 N 0.53668(14) 0.65785(13) 0.23186(13)
C1 C 0.40639(14) 0.83291(11) 0.06671(12)
C4 C 0.08349(14) 0.07151(11) 0.83611(12)
C5 C 0.40814(14) 0.60017(12) 0.32908(12)
C6 C 0.43308(15) 0.65524(13) 0.24899(13)
C7 C 0.43089(15) 0.75655(13) 0.13517(14)
C8 C 0.02568(15) 0.25890(13) 0.66475(14)
C9 C 0.36297(15) 0.71520(13) 0.18899(13)
H6 H 0.286693 0.725185 0.185920
C10 C 0.07117(15) 0.14312(13) 0.76193(14)
O14 O 0.13091(10) 0.65286(9) 0.38878(9)
C12 C 0.01427(15) 0.79676(13) 0.26992(14)
H11 H 0.083774 0.793824 0.251810
C13 C 0.02929(14) 0.66207(12) 0.38882(12)
Al7_3 Al 0.500000 1.000000 0.000000
Al9_3 Al 0.000000 1.000000 0.000000
O21 O 0.65000(10) 0.51852(8) 0.51623(9)
O23 O 0.16804(10) 0.47887(9) 0.34361(9)
O25 O 0.30540(10) 0.65421(8) 0.52991(9)
O26 O 0.51548(10) 0.44881(9) 0.62498(9)
O27 O 0.51257(10) 0.37949(8) 0.44716(9)
O28 O 0.48743(10) 0.62051(8) 0.55284(9)
O30 O 0.01026(11) 0.43224(9) 0.38592(9)
Al7_4 Al 0.500000 1.000000 1.000000
Al9_4 Al -0.000000 1.000000 1.000000
Al13 Al 0.23668(4) 0.93826(3) 0.94142(3)
Al9_5 Al 1.000000 0.000000 0.000000
Al11 Al 0.76332(4) 0.06174(3) 0.05858(3)
Al9_6 Al 1.000000 0.000000 1.000000
Al2_2 Al 1.000000 0.500000 0.500000
O4 O 0.86909(10) 0.34714(9) 0.61122(9)
C2 C 0.98573(15) 0.20324(13) 0.73008(14)
H5 H 0.916226 0.206176 0.748190
C3 C 0.97071(14) 0.33793(12) 0.61118(12)
Al4 Al 0.76332(4) 0.43826(3) 0.55858(3)
H7 H 0.671748 0.577294 0.500683
O12 O 0.68754(10) 0.38971(8) 0.65339(9)
O13 O 0.84989(10) 0.47656(8) 0.47492(8)
H8 H 0.812690 0.485373 0.410829
O15 O 0.83196(10) 0.97887(9) 0.15639(9)
O16 O 0.69460(10) 0.15421(8) 0.97009(9)
O17 O 0.97003(10) 0.60947(9) 0.42696(10)
O19 O 0.51257(10) 0.12051(8) 0.94716(9)
O20 O 0.98974(11) 0.93224(9) 0.11408(9)
N5 N 0.87123(14) 0.76571(12) 0.34331(14)
N6 N 0.84645(14) 0.83664(12) 0.28457(14)
H9 H 0.784102 0.866620 0.276992
N7 N 0.46658(14) 0.27912(13) 0.83645(14)
H10 H 0.409250 0.262894 0.859968
N8 N 0.46332(14) 0.34215(13) 0.76814(13)
C11 C 0.59361(14) 0.16709(11) 0.93329(12)
C14 C 0.91651(14) 0.92849(11) 0.16389(12)
C15 C 0.59186(14) 0.39983(12) 0.67092(12)
C16 C 0.56692(15) 0.34476(13) 0.75101(13)
C17 C 0.56911(15) 0.24345(13) 0.86483(14)
C18 C 0.97432(15) 0.74110(13) 0.33525(14)
C19 C 0.63703(15) 0.28480(13) 0.81101(13)
H12 H 0.713307 0.274815 0.814080
C20 C 0.92883(15) 0.85688(13) 0.23807(14)
Al9_7 Al 1.000000 1.000000 0.000000
O22 O 0.83196(10) 0.52113(9) 0.65639(9)
O24 O 0.69460(10) 0.34579(8) 0.47009(9)
O29 O 0.98974(11) 0.56776(9) 0.61408(9)
Al9_8 Al 1.000000 1.000000 1.000000
O17_2 O 0.02997(10) 0.10947(9) 0.07304(10)
N5_2 N 0.12877(14) 0.26571(12) 0.15669(14)
N6_2 N 0.15355(14) 0.33664(12) 0.21543(14)
H9_2 H 0.215898 0.366620 0.223008
C14_2 C 0.08349(14) 0.42849(11) 0.33611(12)
C18_2 C 0.02568(15) 0.24110(13) 0.16475(14)
C20_2 C 0.07117(15) 0.35688(13) 0.26193(14)
O11 O 0.35000(10) 0.01852(8) 0.98377(9)
H7_2 H 0.328252 0.077294 0.999317
O13_2 O 0.15011(10) 0.97656(8) 0.02508(8)
H8_2 H 0.187310 0.985373 0.089171
O4_2 O 0.13091(10) 0.84714(9) 0.88878(9)
C2_2 C 0.01427(15) 0.70324(13) 0.76992(14)
H5_2 H 0.083774 0.706176 0.751810
C3_2 C 0.02929(14) 0.83793(12) 0.88882(12)
O12_2 O 0.31246(10) 0.88971(8) 0.84661(9)
O18 O 0.48452(10) 0.94881(9) 0.87502(9)
N7_2 N 0.53342(14) 0.77912(13) 0.66355(14)
H10_2 H 0.590750 0.762894 0.640032
N8_2 N 0.53668(14) 0.84215(13) 0.73186(13)
C11_2 C 0.40639(14) 0.66709(11) 0.56671(12)
C15_2 C 0.40814(14) 0.89983(12) 0.82908(12)
C16_2 C 0.43308(15) 0.84476(13) 0.74899(13)
C17_2 C 0.43089(15) 0.74345(13) 0.63517(14)
C19_2 C 0.36297(15) 0.78480(13) 0.68899(13)
H12_2 H 0.286693 0.774815 0.685920
O2_2 O 0.68754(10) 0.11029(8) 0.15339(9)
O8_2 O 0.51548(10) 0.05119(9) 0.12498(9)
N3_2 N 0.46658(14) 0.22088(13) 0.33645(14)
H4_2 H 0.409250 0.237106 0.359968
N4_2 N 0.46332(14) 0.15785(13) 0.26814(13)
C1_2 C 0.59361(14) 0.33291(11) 0.43329(12)
C5_2 C 0.59186(14) 0.10017(12) 0.17092(12)
C6_2 C 0.56692(15) 0.15524(13) 0.25101(13)
C7_2 C 0.56911(15) 0.25655(13) 0.36483(14)
C9_2 C 0.63703(15) 0.21520(13) 0.31101(13)
H6_2 H 0.713307 0.225185 0.314080
O14_2 O 0.86909(10) 0.15286(9) 0.11122(9)
C12_2 C 0.98573(15) 0.29676(13) 0.23008(14)
H11_2 H 0.916226 0.293824 0.248190
C13_2 C 0.97071(14) 0.16207(12) 0.11118(12)
O3_2 O 0.84989(10) 0.02344(8) 0.97492(8)
H2_2 H 0.812690 0.014627 0.910829
O1_2 O 0.65000(10) 0.98148(8) 0.01623(9)
H1_2 H 0.671748 0.922706 0.000683
O7_2 O 0.97003(10) 0.89053(9) 0.92696(10)
N1_2 N 0.87123(14) 0.73429(12) 0.84331(14)
N2_2 N 0.84645(14) 0.66336(12) 0.78457(14)
H3_2 H 0.784102 0.633380 0.776992
C4_2 C 0.91651(14) 0.57151(11) 0.66389(12)
C8_2 C 0.97432(15) 0.75890(13) 0.83525(14)
C10_2 C 0.92883(15) 0.64312(13) 0.73807(14)
loop_
_geom_bond_atom_site_label_1
_geom_bond_atom_site_label_2
_geom_bond_site_symmetry_1
_geom_bond_site_symmetry_2
Al1 O1 1_555 1_555
Al2 O3 1_555 1_555
Al3 O1 1_555 1_555
O1 H1 1_555 1_555
O2 Al3 1_555 1_555
O3 Al3 1_555 1_555
H2 O3 1_555 1_555
O5 C4 1_555 1_555
O6 C1 1_555 1_555
O7 Al2 1_555 1_555
O8 Al1 1_555 1_555
O9 C1 1_555 1_555
O10 C4 1_555 1_555
N1 N2 1_555 1_555
N2 H3 1_555 1_555
N3 H4 1_555 1_555
N4 N3 1_555 1_555
C1 C7 1_555 1_555
C4 C10 1_555 1_555
C5 O2 1_555 1_555
C6 N4 1_555 1_555
C7 N3 1_555 1_555
C8 N1 1_555 1_555
C9 C6 1_555 1_555
H6 C9 1_555 1_555
C10 N2 1_555 1_555
O14 Al3 1_555 1_555
C12 H11 1_555 1_555
C13 O14 1_555 1_555
Al7_3 O9 1_555 1_555
Al9_2 O10 1_555 1_555
O21 Al1 1_555 1_555
O23 Al3 1_555 1_555
O25 Al3 1_555 1_555
O26 Al1 1_555 1_555
O27 Al1 1_555 1_555
O28 Al1 1_555 1_555
O30 Al2 1_555 1_555
O8 C5 1_555 1_555
C5 C6 1_555 1_555
C7 C9 1_555 1_555
O4 C3 1_555 1_555
C2 H5 1_555 1_555
Al4 O4 1_555 1_555
O21 Al4 1_555 1_555
H7 O21 1_555 1_555
O12 Al4 1_555 1_555
O13 Al2_2 1_555 1_555
H8 O13 1_555 1_555
O15 C14 1_555 1_555
O16 C11 1_555 1_555
O17 Al2_2 1_555 1_555
O26 C15 1_555 1_555
O19 C11 1_555 1_555
O20 C14 1_555 1_555
N5 N6 1_555 1_555
N6 H9 1_555 1_555
N7 H10 1_555 1_555
N8 N7 1_555 1_555
C11 C17 1_555 1_555
C14 C20 1_555 1_555
C15 O12 1_555 1_555
C16 N8 1_555 1_555
C17 N7 1_555 1_555
C18 N5 1_555 1_555
C19 C16 1_555 1_555
H12 C19 1_555 1_555
C20 N6 1_555 1_555
Al7_2 O19 1_555 1_555
Al9_7 O20 1_555 1_555
O22 Al4 1_555 1_555
O24 Al4 1_555 1_555
O29 Al2_2 1_555 1_555
Al4 O13 1_555 1_555
C15 C16 1_555 1_555
C17 C19 1_555 1_555
O23 C14_2 1_555 1_555
O17_2 Al9 1_555 1_555
O30 C14_2 1_555 1_555
N5_2 N6_2 1_555 1_555
N6_2 H9_2 1_555 1_555
C14_2 C20_2 1_555 1_555
C18_2 N5_2 1_555 1_555
C20_2 N6_2 1_555 1_555
H7_2 O11 1_555 1_555
Al7_2 O11 1_555 1_555
O13_2 Al9_3 1_555 1_555
H8_2 O13_2 1_555 1_555
O4_2 C3_2 1_555 1_555
C2_2 H5_2 1_555 1_555
Al13 O4_2 1_555 1_555
O12_2 Al13 1_555 1_555
O25 C11_2 1_555 1_555
O18 C15_2 1_555 1_555
O28 C11_2 1_555 1_555
N7_2 H10_2 1_555 1_555
N8_2 N7_2 1_555 1_555
C11_2 C17_2 1_555 1_555
C15_2 O12_2 1_555 1_555
C16_2 N8_2 1_555 1_555
C17_2 N7_2 1_555 1_555
C19_2 C16_2 1_555 1_555
H12_2 C19_2 1_555 1_555
O18 Al7_4 1_555 1_555
C15_2 C16_2 1_555 1_555
C17_2 C19_2 1_555 1_555
O2_2 Al11 1_555 1_555
O24 C1_2 1_555 1_555
O8_2 Al7 1_555 1_555
O27 C1_2 1_555 1_555
N3_2 H4_2 1_555 1_555
N4_2 N3_2 1_555 1_555
C1_2 C7_2 1_555 1_555
C5_2 O2_2 1_555 1_555
C6_2 N4_2 1_555 1_555
C7_2 N3_2 1_555 1_555
C9_2 C6_2 1_555 1_555
H6_2 C9_2 1_555 1_555
O14_2 Al11 1_555 1_555
C12_2 H11_2 1_555 1_555
C13_2 O14_2 1_555 1_555
O8_2 C5_2 1_555 1_555
C5_2 C6_2 1_555 1_555
C7_2 C9_2 1_555 1_555
Al9_6 O3_2 1_555 1_555
H2_2 O3_2 1_555 1_555
Al7_3 O1_2 1_555 1_555
O1_2 H1_2 1_555 1_555
O22 C4_2 1_555 1_555
O7_2 Al9_8 1_555 1_555
O29 C4_2 1_555 1_555
N1_2 N2_2 1_555 1_555
N2_2 H3_2 1_555 1_555
C4_2 C10_2 1_555 1_555
C8_2 N1_2 1_555 1_555
C10_2 N2_2 1_555 1_555

#END
