
###############################################################################
#
# This file contains modified crystal structure data generated from the
# MOF subset of the Cambridge Structural Database (CSD) v543 
# hosted by the Cambridge Crystallographic Data Centre (CCDC).
#
# This work is licensed under the Creative Commons
# Attribution-NonCommercial-ShareAlike 4.0 International License.
# To view a copy of this license, visit
# http://creativecommons.org/licenses/by-nc-sa/4.0/
# or send a letter to
# Creative Commons, PO Box 1866, Mountain View, CA 94042, USA.
#
# CIF created using the CSD Python API on 29 September 2022
# The structure has been converted into the P1 space group
# The structure has a 3D framework
# The original CSD entry CAMTOD05 is in the monoclinic crystal system
# The framework has been calculated to contain at least 10.0% void space
# The void calculation uses a probe of radius 1.32A, grid spacing 0.4
#
###############################################################################

data_CAMTOD05
_chemical_formula_moiety         '(C40 H24 Al15 N16 O35)n'
_symmetry_cell_setting           triclinic
_symmetry_space_group_name_H-M   'P 1'
_symmetry_Int_Tables_number      1
_space_group_name_Hall           'P 1'
loop_
_symmetry_equiv_pos_site_id
_symmetry_equiv_pos_as_xyz
1 x,y,z
_cell_length_a                   12.282(7)
_cell_length_b                   14.764(8)
_cell_length_c                   14.018(8)
_cell_angle_alpha                90
_cell_angle_beta                 102.089(8)
_cell_angle_gamma                90
_cell_volume                     2485.53
loop_
_atom_site_label
_atom_site_type_symbol
_atom_site_fract_x
_atom_site_fract_y
_atom_site_fract_z
Al13 Al 0.000000 -0.000000 -0.000000
Al7 Al 0.500000 -0.000000 0.000000
Al13_2 Al 0.000000 -0.000000 1.000000
Al7_2 Al 0.500000 -0.000000 1.000000
Al13_3 Al -0.000000 1.000000 -0.000000
Al1 Al 0.500000 0.500000 0.500000
O1 O 0.34997(11) 0.48188(10) 0.48423(10)
O2 O 0.48265(12) 0.54884(11) 0.37242(11)
O3 O 0.48770(12) 0.87950(10) 0.05133(11)
Al2 Al 0.23617(5) 0.56120(4) 0.44116(4)
H1 H 0.328241 0.423138 0.500701
C1 C 0.40691(17) 0.59949(14) 0.32748(15)
O4 O 0.31184(12) 0.61004(10) 0.34565(11)
O5 O 0.16802(12) 0.47890(10) 0.34228(11)
O6 O 0.15046(11) 0.52248(10) 0.52574(10)
O8 O 0.30511(12) 0.84730(10) 0.03020(11)
C2 C 0.43251(17) 0.65559(15) 0.24806(16)
C3 C 0.08261(16) 0.42950(14) 0.33422(15)
Al3 Al 0.000000 0.500000 0.500000
H2 H 0.188730 0.512817 0.591191
N1 N 0.53646(16) 0.65842(15) 0.23206(15)
C4 C 0.36240(17) 0.71578(15) 0.18795(16)
O9 O 0.00851(13) 0.43545(11) 0.38336(11)
C5 C 0.07003(17) 0.35739(16) 0.26066(16)
O10 O 0.03034(12) 0.11024(10) 0.07147(12)
N2 N 0.53323(16) 0.72204(15) 0.16406(15)
C6 C 0.43113(17) 0.75791(15) 0.13543(16)
H3 H 0.285132 0.725564 0.184019
N3 N 0.15276(16) 0.33750(14) 0.21357(16)
H4 H 0.591301 0.738616 0.140643
C8 C 0.40614(17) 0.83395(14) 0.06632(15)
H5 H 0.215325 0.368249 0.220632
N4 N 0.12813(16) 0.26596(14) 0.15537(16)
C9 C 0.02593(17) 0.24078(16) 0.16408(17)
O17 O 0.13007(12) 0.84871(10) 0.88753(11)
C17 C 0.01432(18) 0.70365(16) 0.77018(16)
H12 H 0.084058 0.707312 0.751218
C20 C 0.02868(17) 0.83848(15) 0.88893(15)
Al7_3 Al 0.500000 1.000000 0.000000
O21 O 0.65003(11) 0.51812(10) 0.51577(10)
O22 O 0.51735(12) 0.45116(11) 0.62758(11)
O23 O 0.51230(12) 0.37950(10) 0.44867(11)
O24 O 0.48770(12) 0.62050(10) 0.55133(11)
Al11 Al 0.23617(5) 0.93880(4) 0.94116(4)
O25 O 0.13007(12) 0.65129(10) 0.38753(11)
O28 O 0.30511(12) 0.65270(10) 0.53020(11)
Al13_4 Al 0.000000 1.000000 1.000000
O30 O 0.03034(12) 0.38976(10) 0.57147(12)
Al7_4 Al 0.500000 1.000000 1.000000
Al13_5 Al 1.000000 -0.000000 -0.000000
Al13_6 Al 1.000000 -0.000000 1.000000
Al9 Al 0.76383(5) 0.06120(4) 0.05884(4)
Al13_7 Al 1.000000 1.000000 -0.000000
O7 O 0.86993(12) 0.15129(10) 0.11247(11)
Al3_2 Al 1.000000 0.500000 0.500000
C7 C 0.98568(18) 0.29635(16) 0.22982(16)
H6 H 0.915942 0.292688 0.248782
C10 C 0.97132(17) 0.16152(15) 0.11107(15)
O13 O 0.51230(12) 0.12050(10) 0.94867(11)
Al4 Al 0.76383(5) 0.43880(4) 0.55884(4)
H7 H 0.671759 0.576862 0.499299
C11 C 0.59309(17) 0.40051(14) 0.67252(15)
O14 O 0.68816(12) 0.38996(10) 0.65435(11)
O15 O 0.83198(12) 0.52110(10) 0.65772(11)
O16 O 0.84954(11) 0.47752(10) 0.47426(10)
O18 O 0.69489(12) 0.15270(10) 0.96980(11)
C12 C 0.56749(17) 0.34441(15) 0.75194(16)
C13 C 0.91739(16) 0.57050(14) 0.66578(15)
H8 H 0.811270 0.487183 0.408809
N5 N 0.46354(16) 0.34158(15) 0.76794(15)
C14 C 0.63760(17) 0.28422(15) 0.81205(16)
O19 O 0.99149(13) 0.56455(11) 0.61664(11)
C15 C 0.92997(17) 0.64261(16) 0.73934(16)
O20 O 0.96966(12) 0.88976(10) 0.92853(12)
N6 N 0.46677(16) 0.27796(15) 0.83594(15)
C16 C 0.56887(17) 0.24209(15) 0.86457(16)
H9 H 0.714868 0.274436 0.815981
N7 N 0.84724(16) 0.66250(14) 0.78643(16)
H10 H 0.408699 0.261384 0.859357
C18 C 0.59386(17) 0.16605(14) 0.93368(15)
H11 H 0.784675 0.631751 0.779368
N8 N 0.87187(16) 0.73404(14) 0.84463(16)
C19 C 0.97407(17) 0.75922(16) 0.83592(17)
O26 O 0.86993(12) 0.34871(10) 0.61247(11)
O27 O 0.69489(12) 0.34730(10) 0.46980(11)
Al13_8 Al 1.000000 1.000000 1.000000
O29 O 0.96966(12) 0.61024(10) 0.42853(12)
H7_2 H 0.328241 0.076862 0.000701
O11 O 0.34997(11) 0.01812(10) 0.98423(10)
O15_2 O 0.16802(12) 0.02110(10) 0.84228(11)
C13_2 C 0.08261(16) 0.07050(14) 0.83422(15)
O19_2 O 0.00851(13) 0.06455(11) 0.88336(11)
C15_2 C 0.07003(17) 0.14261(16) 0.76066(16)
N7_2 N 0.15276(16) 0.16250(14) 0.71357(16)
H11_2 H 0.215325 0.131751 0.720632
N8_2 N 0.12813(16) 0.23404(14) 0.65537(16)
C19_2 C 0.02593(17) 0.25922(16) 0.66408(17)
C7_2 C 0.01432(18) 0.79635(16) 0.27018(16)
H6_2 H 0.084058 0.792688 0.251218
C10_2 C 0.02868(17) 0.66152(15) 0.38893(15)
O16_2 O 0.15046(11) 0.97752(10) 0.02574(10)
H8_2 H 0.188730 0.987183 0.091191
O12 O 0.48265(12) 0.95116(11) 0.87242(11)
C11_2 C 0.40691(17) 0.90051(14) 0.82748(15)
O14_2 O 0.31184(12) 0.88996(10) 0.84565(11)
C12_2 C 0.43251(17) 0.84441(15) 0.74806(16)
N5_2 N 0.53646(16) 0.84158(15) 0.73206(15)
C14_2 C 0.36240(17) 0.78422(15) 0.68795(16)
N6_2 N 0.53323(16) 0.77796(15) 0.66406(15)
C16_2 C 0.43113(17) 0.74209(15) 0.63543(16)
H9_2 H 0.285132 0.774436 0.684019
H10_2 H 0.591301 0.761384 0.640643
C18_2 C 0.40614(17) 0.66605(14) 0.56632(15)
O2_2 O 0.51735(12) 0.04884(11) 0.12758(11)
C1_2 C 0.59309(17) 0.09949(14) 0.17252(15)
O4_2 O 0.68816(12) 0.11004(10) 0.15435(11)
C2_2 C 0.56749(17) 0.15559(15) 0.25194(16)
N1_2 N 0.46354(16) 0.15842(15) 0.26794(15)
C4_2 C 0.63760(17) 0.21578(15) 0.31205(16)
N2_2 N 0.46677(16) 0.22204(15) 0.33594(15)
C6_2 C 0.56887(17) 0.25791(15) 0.36457(16)
H3_2 H 0.714868 0.225564 0.315981
H4_2 H 0.408699 0.238616 0.359357
C8_2 C 0.59386(17) 0.33395(14) 0.43368(15)
O6_2 O 0.84954(11) 0.02248(10) 0.97426(10)
H2_2 H 0.811270 0.012817 0.908809
C17_2 C 0.98568(18) 0.20365(16) 0.72982(16)
H12_2 H 0.915942 0.207312 0.748782
C20_2 C 0.97132(17) 0.33848(15) 0.61107(15)
O1_2 O 0.65003(11) 0.98188(10) 0.01577(10)
O5_2 O 0.83198(12) 0.97890(10) 0.15772(11)
C3_2 C 0.91739(16) 0.92950(14) 0.16578(15)
O9_2 O 0.99149(13) 0.93545(11) 0.11664(11)
C5_2 C 0.92997(17) 0.85739(16) 0.23934(16)
N3_2 N 0.84724(16) 0.83750(14) 0.28643(16)
H5_2 H 0.784675 0.868249 0.279368
N4_2 N 0.87187(16) 0.76596(14) 0.34463(16)
C9_2 C 0.97407(17) 0.74078(16) 0.33592(17)
H1_2 H 0.671759 0.923138 0.999299
loop_
_geom_bond_atom_site_label_1
_geom_bond_atom_site_label_2
_geom_bond_site_symmetry_1
_geom_bond_site_symmetry_2
Al1 O1 1_555 1_555
O1 Al2 1_555 1_555
O2 Al1 1_555 1_555
O3 C8 1_555 1_555
Al2 O4 1_555 1_555
H1 O1 1_555 1_555
C1 O2 1_555 1_555
O4 C1 1_555 1_555
O5 Al2 1_555 1_555
O6 Al2 1_555 1_555
O8 C8 1_555 1_555
C2 C1 1_555 1_555
C3 O5 1_555 1_555
Al3 O6 1_555 1_555
H2 O6 1_555 1_555
N1 C2 1_555 1_555
C4 C2 1_555 1_555
O9 C3 1_555 1_555
C5 C3 1_555 1_555
N2 N1 1_555 1_555
C6 C4 1_555 1_555
H3 C4 1_555 1_555
N3 C5 1_555 1_555
H4 N2 1_555 1_555
C8 C6 1_555 1_555
H5 N3 1_555 1_555
N4 N3 1_555 1_555
O17 C20 1_555 1_555
H12 C17 1_555 1_555
Al7_3 O3 1_555 1_555
O21 Al1 1_555 1_555
O22 Al1 1_555 1_555
O23 Al1 1_555 1_555
O24 Al1 1_555 1_555
Al11 O17 1_555 1_555
O25 Al2 1_555 1_555
O28 Al2 1_555 1_555
Al13 O10 1_555 1_555
O30 Al3 1_555 1_555
Al3 O9 1_555 1_555
N2 C6 1_555 1_555
N4 C9 1_555 1_555
O7 C10 1_555 1_555
H6 C7 1_555 1_555
O21 Al4 1_555 1_555
O22 C11 1_555 1_555
O13 C18 1_555 1_555
Al4 O14 1_555 1_555
H7 O21 1_555 1_555
C11 O14 1_555 1_555
O15 Al4 1_555 1_555
O16 Al3_2 1_555 1_555
O18 C18 1_555 1_555
C12 C11 1_555 1_555
C13 O15 1_555 1_555
H8 O16 1_555 1_555
N5 C12 1_555 1_555
C14 C12 1_555 1_555
O19 Al3_2 1_555 1_555
C15 C13 1_555 1_555
N6 N5 1_555 1_555
C16 C14 1_555 1_555
H9 C14 1_555 1_555
N7 C15 1_555 1_555
H10 N6 1_555 1_555
C18 C16 1_555 1_555
H11 N7 1_555 1_555
N8 N7 1_555 1_555
Al7_2 O13 1_555 1_555
Al9 O7 1_555 1_555
O26 Al4 1_555 1_555
O27 Al4 1_555 1_555
Al13_8 O20 1_555 1_555
O29 Al3_2 1_555 1_555
Al4 O16 1_555 1_555
C13 O19 1_555 1_555
N6 C16 1_555 1_555
N8 C19 1_555 1_555
C13_2 O15_2 1_555 1_555
O19_2 Al13_2 1_555 1_555
C15_2 C13_2 1_555 1_555
N7_2 C15_2 1_555 1_555
H11_2 N7_2 1_555 1_555
N8_2 N7_2 1_555 1_555
Al7_2 O11 1_555 1_555
C13_2 O19_2 1_555 1_555
N8_2 C19_2 1_555 1_555
O25 C10_2 1_555 1_555
H6_2 C7_2 1_555 1_555
O16_2 Al13_3 1_555 1_555
H8_2 O16_2 1_555 1_555
O12 C11_2 1_555 1_555
O24 C18_2 1_555 1_555
Al11 O14_2 1_555 1_555
C11_2 O14_2 1_555 1_555
O28 C18_2 1_555 1_555
C12_2 C11_2 1_555 1_555
N5_2 C12_2 1_555 1_555
C14_2 C12_2 1_555 1_555
N6_2 N5_2 1_555 1_555
C16_2 C14_2 1_555 1_555
H9_2 C14_2 1_555 1_555
H10_2 N6_2 1_555 1_555
C18_2 C16_2 1_555 1_555
O12 Al7_4 1_555 1_555
N6_2 C16_2 1_555 1_555
O2_2 Al7 1_555 1_555
O23 C8_2 1_555 1_555
Al9 O4_2 1_555 1_555
C1_2 O2_2 1_555 1_555
O4_2 C1_2 1_555 1_555
O27 C8_2 1_555 1_555
C2_2 C1_2 1_555 1_555
N1_2 C2_2 1_555 1_555
C4_2 C2_2 1_555 1_555
N2_2 N1_2 1_555 1_555
C6_2 C4_2 1_555 1_555
H3_2 C4_2 1_555 1_555
H4_2 N2_2 1_555 1_555
C8_2 C6_2 1_555 1_555
N2_2 C6_2 1_555 1_555
Al13_6 O6_2 1_555 1_555
H2_2 O6_2 1_555 1_555
O26 C20_2 1_555 1_555
H12_2 C17_2 1_555 1_555
Al7_3 O1_2 1_555 1_555
C3_2 O5_2 1_555 1_555
O9_2 C3_2 1_555 1_555
C5_2 C3_2 1_555 1_555
N3_2 C5_2 1_555 1_555
H5_2 N3_2 1_555 1_555
N4_2 N3_2 1_555 1_555
Al13_7 O9_2 1_555 1_555
N4_2 C9_2 1_555 1_555

#END
