
###############################################################################
#
# This file contains modified crystal structure data generated from the
# MOF subset of the Cambridge Structural Database (CSD) v543 
# hosted by the Cambridge Crystallographic Data Centre (CCDC).
#
# This work is licensed under the Creative Commons
# Attribution-NonCommercial-ShareAlike 4.0 International License.
# To view a copy of this license, visit
# http://creativecommons.org/licenses/by-nc-sa/4.0/
# or send a letter to
# Creative Commons, PO Box 1866, Mountain View, CA 94042, USA.
#
# CIF created using the CSD Python API on 29 September 2022
# The structure has been converted into the P1 space group
# The structure has a 3D framework
# The original CSD entry CAMTOD04 is in the monoclinic crystal system
# The framework has been calculated to contain at least 10.0% void space
# The void calculation uses a probe of radius 1.32A, grid spacing 0.4
#
###############################################################################

data_CAMTOD04
_chemical_formula_moiety         '(C40 H23 Al14 N16 O35)n'
_symmetry_cell_setting           triclinic
_symmetry_space_group_name_H-M   'P 1'
_symmetry_Int_Tables_number      1
_space_group_name_Hall           'P 1'
loop_
_symmetry_equiv_pos_site_id
_symmetry_equiv_pos_as_xyz
1 x,y,z
_cell_length_a                   12.294(5)
_cell_length_b                   14.781(6)
_cell_length_c                   14.029(5)
_cell_angle_alpha                90
_cell_angle_beta                 102.105(5)
_cell_angle_gamma                90
_cell_volume                     2492.63
loop_
_atom_site_label
_atom_site_type_symbol
_atom_site_fract_x
_atom_site_fract_y
_atom_site_fract_z
Al9 Al 0.000000 0.000000 0.000000
Al2 Al -0.000000 0.500000 0.500000
O3 O 0.12987(12) 0.15113(11) 0.88737(11)
C7 C 0.01420(17) 0.29619(16) 0.77009(16)
H5 H 0.083020 0.292389 0.751166
C8 C 0.02864(17) 0.16142(15) 0.88885(15)
Al9_2 Al 0.000000 0.000000 1.000000
Al11 Al 0.23614(5) 0.06113(4) 0.94105(4)
O23 O 0.15068(11) 0.47757(10) 0.52572(10)
O26 O 0.03034(12) 0.61010(11) 0.57159(12)
O30 O 0.00843(12) 0.56459(11) 0.38313(11)
Al9_3 Al 0.000000 1.000000 0.000000
Al9_4 Al 0.000000 1.000000 1.000000
Al6 Al 0.500000 0.000000 0.000000
Al6_2 Al 0.500000 0.000000 1.000000
Al6_3 Al 0.500000 1.000000 0.000000
Al9_5 Al 1.000000 0.000000 0.000000
Al13 Al 0.76386(5) 0.93887(4) 0.05895(4)
Al1 Al 0.500000 0.500000 0.500000
Al2_2 Al 1.000000 0.500000 0.500000
Al3 Al 0.76386(5) 0.56113(4) 0.55895(4)
O1 O 0.68829(12) 0.60988(10) 0.65470(11)
O2 O 0.65000(11) 0.48180(10) 0.51577(10)
H1 H 0.671442 0.423741 0.499455
O4 O 0.84932(11) 0.52243(10) 0.47428(10)
H2 H 0.811406 0.512846 0.409593
O5 O 0.83216(12) 0.47868(11) 0.65793(11)
O6 O 0.51729(12) 0.54912(11) 0.62752(11)
O7 O 0.51223(12) 0.87980(10) 0.94845(11)
O8 O 0.96966(12) 0.11010(11) 0.92841(12)
O9 O 0.69485(12) 0.84751(10) 0.96990(11)
O10 O 0.99157(12) 0.43541(11) 0.61687(11)
N1 N 0.46670(16) 0.72238(15) 0.83575(15)
H3 H 0.409380 0.738727 0.858935
N2 N 0.87214(16) 0.26618(15) 0.84521(16)
N3 N 0.84745(16) 0.33753(15) 0.78653(15)
H4 H 0.785584 0.367826 0.779370
N4 N 0.46341(16) 0.65877(15) 0.76758(16)
C1 C 0.56760(17) 0.65587(15) 0.75185(16)
C2 C 0.56913(17) 0.75833(16) 0.86446(16)
C3 C 0.97422(17) 0.24083(16) 0.83602(16)
C4 C 0.59387(17) 0.83434(15) 0.93384(15)
C5 C 0.91734(16) 0.42950(15) 0.66575(15)
C6 C 0.59323(17) 0.59945(14) 0.67247(15)
C9 C 0.93011(17) 0.35735(16) 0.73932(16)
C10 C 0.63769(18) 0.71604(16) 0.81225(16)
H6 H 0.714144 0.725539 0.816377
Al4 Al 0.23614(5) 0.43887(4) 0.44105(4)
O11 O 0.31171(12) 0.39012(10) 0.34530(11)
O12 O 0.35000(11) 0.51820(10) 0.48423(10)
H7 H 0.328558 0.576259 0.500545
H8 H 0.188594 0.487154 0.590407
O15 O 0.16784(12) 0.52132(11) 0.34207(11)
O16 O 0.48271(12) 0.45088(11) 0.37248(11)
O17 O 0.48777(12) 0.12020(10) 0.05155(11)
O18 O 0.03034(12) 0.88990(11) 0.07159(12)
O19 O 0.30515(12) 0.15249(10) 0.03010(11)
N5 N 0.53330(16) 0.27762(15) 0.16425(15)
H9 H 0.590620 0.261273 0.141065
N6 N 0.12786(16) 0.73382(15) 0.15479(16)
N7 N 0.15255(16) 0.66247(15) 0.21347(15)
H10 H 0.214416 0.632174 0.220630
N8 N 0.53659(16) 0.34123(15) 0.23242(16)
C11 C 0.43240(17) 0.34413(15) 0.24815(16)
C12 C 0.43087(17) 0.24167(16) 0.13554(16)
C13 C 0.02578(17) 0.75917(16) 0.16398(16)
C14 C 0.40613(17) 0.16566(15) 0.06616(15)
C15 C 0.08266(16) 0.57050(15) 0.33425(15)
C16 C 0.40677(17) 0.40055(14) 0.32753(15)
C19 C 0.06989(17) 0.64265(16) 0.26068(16)
C20 C 0.36231(18) 0.28396(16) 0.18775(16)
H12 H 0.285856 0.274461 0.183623
Al6_4 Al 0.500000 1.000000 1.000000
Al9_6 Al 1.000000 0.000000 1.000000
O21 O 0.87013(12) 0.65113(11) 0.61263(11)
O22 O 0.12987(12) 0.34887(11) 0.38737(11)
O24 O 0.48777(12) 0.37980(10) 0.55155(11)
O25 O 0.51223(12) 0.62020(10) 0.44845(11)
O27 O 0.96966(12) 0.38990(11) 0.42841(12)
O28 O 0.30515(12) 0.34751(10) 0.53010(11)
O29 O 0.69485(12) 0.65249(10) 0.46990(11)
Al9_7 Al 1.000000 1.000000 0.000000
Al9_8 Al 1.000000 1.000000 1.000000
O13 O 0.87013(12) 0.84887(11) 0.11263(11)
C17 C 0.98580(17) 0.70381(16) 0.22991(16)
H11 H 0.916980 0.707611 0.248834
C18 C 0.97136(17) 0.83858(15) 0.11115(15)
C17_2 C 0.01420(17) 0.20381(16) 0.27009(16)
H11_2 H 0.083020 0.207611 0.251166
C18_2 C 0.02864(17) 0.33858(15) 0.38885(15)
O4_2 O 0.15068(11) 0.02243(10) 0.02572(10)
H2_2 H 0.188594 0.012846 0.090407
O12_2 O 0.65000(11) 0.01820(10) 0.01577(10)
O15_2 O 0.83216(12) 0.02132(11) 0.15793(11)
O20 O 0.99157(12) 0.06459(11) 0.11687(11)
N6_2 N 0.87214(16) 0.23382(15) 0.34521(16)
N7_2 N 0.84745(16) 0.16247(15) 0.28653(15)
H10_2 H 0.785584 0.132174 0.279370
C13_2 C 0.97422(17) 0.25917(16) 0.33602(16)
C15_2 C 0.91734(16) 0.07050(15) 0.16575(15)
C19_2 C 0.93011(17) 0.14265(16) 0.23932(16)
O1_2 O 0.31171(12) 0.10988(10) 0.84530(11)
O6_2 O 0.48271(12) 0.04912(11) 0.87248(11)
N1_2 N 0.53330(16) 0.22238(15) 0.66425(15)
H3_2 H 0.590620 0.238727 0.641065
N4_2 N 0.53659(16) 0.15877(15) 0.73242(16)
C1_2 C 0.43240(17) 0.15587(15) 0.74815(16)
C2_2 C 0.43087(17) 0.25833(16) 0.63554(16)
C4_2 C 0.40613(17) 0.33434(15) 0.56616(15)
C6_2 C 0.40677(17) 0.09945(14) 0.82753(15)
C10_2 C 0.36231(18) 0.21604(16) 0.68775(16)
H6_2 H 0.285856 0.225539 0.683623
H7_2 H 0.671442 0.076259 0.999455
H1_2 H 0.328558 0.923741 0.000545
O11_2 O 0.68829(12) 0.89012(10) 0.15470(11)
O16_2 O 0.51729(12) 0.95088(11) 0.12752(11)
N5_2 N 0.46670(16) 0.77762(15) 0.33575(15)
H9_2 H 0.409380 0.761273 0.358935
N8_2 N 0.46341(16) 0.84123(15) 0.26758(16)
C11_2 C 0.56760(17) 0.84413(15) 0.25185(16)
C12_2 C 0.56913(17) 0.74167(16) 0.36446(16)
C14_2 C 0.59387(17) 0.66566(15) 0.43384(15)
C16_2 C 0.59323(17) 0.90055(14) 0.17247(15)
C20_2 C 0.63769(18) 0.78396(16) 0.31225(16)
H12_2 H 0.714144 0.774461 0.316377
O2_2 O 0.35000(11) 0.98180(10) 0.98423(10)
O5_2 O 0.16784(12) 0.97868(11) 0.84207(11)
O10_2 O 0.00843(12) 0.93541(11) 0.88313(11)
N2_2 N 0.12786(16) 0.76618(15) 0.65479(16)
N3_2 N 0.15255(16) 0.83753(15) 0.71347(15)
H4_2 H 0.214416 0.867826 0.720630
C3_2 C 0.02578(17) 0.74083(16) 0.66398(16)
C5_2 C 0.08266(16) 0.92950(15) 0.83425(15)
C9_2 C 0.06989(17) 0.85735(16) 0.76068(16)
O14 O 0.84932(11) 0.97757(10) 0.97428(10)
H8_2 H 0.811406 0.987154 0.909593
C7_2 C 0.98580(17) 0.79619(16) 0.72991(16)
H5_2 H 0.916980 0.792389 0.748834
C8_2 C 0.97136(17) 0.66142(15) 0.61115(15)
loop_
_geom_bond_atom_site_label_1
_geom_bond_atom_site_label_2
_geom_bond_site_symmetry_1
_geom_bond_site_symmetry_2
O3 C8 1_555 1_555
H5 C7 1_555 1_555
Al11 O3 1_555 1_555
O23 Al2 1_555 1_555
O26 Al2 1_555 1_555
O30 Al2 1_555 1_555
Al1 O2 1_555 1_555
Al2_2 O4 1_555 1_555
Al3 O1 1_555 1_555
O1 C6 1_555 1_555
O2 Al3 1_555 1_555
H1 O2 1_555 1_555
O4 Al3 1_555 1_555
H2 O4 1_555 1_555
O5 Al3 1_555 1_555
O6 Al1 1_555 1_555
O7 C4 1_555 1_555
O9 C4 1_555 1_555
O10 Al2_2 1_555 1_555
N1 H3 1_555 1_555
N2 N3 1_555 1_555
N3 H4 1_555 1_555
N4 N1 1_555 1_555
C1 N4 1_555 1_555
C2 N1 1_555 1_555
C3 N2 1_555 1_555
C4 C2 1_555 1_555
C5 O5 1_555 1_555
C6 O6 1_555 1_555
C9 N3 1_555 1_555
C10 C1 1_555 1_555
H6 C10 1_555 1_555
Al4 O11 1_555 1_555
O11 C16 1_555 1_555
O12 Al1 1_555 1_555
H7 O12 1_555 1_555
O23 Al4 1_555 1_555
H8 O23 1_555 1_555
O15 Al4 1_555 1_555
O16 Al1 1_555 1_555
O17 C14 1_555 1_555
O19 C14 1_555 1_555
O30 C15 1_555 1_555
N5 H9 1_555 1_555
N6 N7 1_555 1_555
N7 H10 1_555 1_555
N8 N5 1_555 1_555
C11 N8 1_555 1_555
C12 N5 1_555 1_555
C13 N6 1_555 1_555
C14 C12 1_555 1_555
C15 O15 1_555 1_555
C16 O16 1_555 1_555
C19 N7 1_555 1_555
C20 C11 1_555 1_555
H12 C20 1_555 1_555
Al6 O17 1_555 1_555
Al6_4 O7 1_555 1_555
Al9_3 O18 1_555 1_555
Al9_6 O8 1_555 1_555
O21 Al3 1_555 1_555
O22 Al4 1_555 1_555
O24 Al1 1_555 1_555
O25 Al1 1_555 1_555
O27 Al2_2 1_555 1_555
O28 Al4 1_555 1_555
O29 Al3 1_555 1_555
O10 C5 1_555 1_555
C1 C6 1_555 1_555
C2 C10 1_555 1_555
C5 C9 1_555 1_555
Al4 O12 1_555 1_555
C11 C16 1_555 1_555
C12 C20 1_555 1_555
C15 C19 1_555 1_555
O13 C18 1_555 1_555
H11 C17 1_555 1_555
Al13 O13 1_555 1_555
O22 C18_2 1_555 1_555
H11_2 C17_2 1_555 1_555
Al9 O4_2 1_555 1_555
H2_2 O4_2 1_555 1_555
O12_2 Al6 1_555 1_555
O20 C15_2 1_555 1_555
N6_2 N7_2 1_555 1_555
N7_2 H10_2 1_555 1_555
C13_2 N6_2 1_555 1_555
C15_2 O15_2 1_555 1_555
C19_2 N7_2 1_555 1_555
O20 Al9_5 1_555 1_555
C15_2 C19_2 1_555 1_555
Al11 O1_2 1_555 1_555
O1_2 C6_2 1_555 1_555
O6_2 Al6_2 1_555 1_555
O24 C4_2 1_555 1_555
O28 C4_2 1_555 1_555
N1_2 H3_2 1_555 1_555
N4_2 N1_2 1_555 1_555
C1_2 N4_2 1_555 1_555
C2_2 N1_2 1_555 1_555
C4_2 C2_2 1_555 1_555
C6_2 O6_2 1_555 1_555
C10_2 C1_2 1_555 1_555
H6_2 C10_2 1_555 1_555
C1_2 C6_2 1_555 1_555
C2_2 C10_2 1_555 1_555
Al13 O11_2 1_555 1_555
O11_2 C16_2 1_555 1_555
O16_2 Al6_3 1_555 1_555
O25 C14_2 1_555 1_555
O29 C14_2 1_555 1_555
N5_2 H9_2 1_555 1_555
N8_2 N5_2 1_555 1_555
C11_2 N8_2 1_555 1_555
C12_2 N5_2 1_555 1_555
C14_2 C12_2 1_555 1_555
C16_2 O16_2 1_555 1_555
C20_2 C11_2 1_555 1_555
H12_2 C20_2 1_555 1_555
C11_2 C16_2 1_555 1_555
C12_2 C20_2 1_555 1_555
Al6_4 O2_2 1_555 1_555
O10_2 Al9_4 1_555 1_555
N2_2 N3_2 1_555 1_555
N3_2 H4_2 1_555 1_555
C3_2 N2_2 1_555 1_555
C5_2 O5_2 1_555 1_555
C9_2 N3_2 1_555 1_555
H8_2 O14 1_555 1_555
Al9_8 O14 1_555 1_555
O10_2 C5_2 1_555 1_555
C5_2 C9_2 1_555 1_555
O21 C8_2 1_555 1_555
H5_2 C7_2 1_555 1_555

#END
