
###############################################################################
#
# This file contains modified crystal structure data generated from the
# MOF subset of the Cambridge Structural Database (CSD) v543 
# hosted by the Cambridge Crystallographic Data Centre (CCDC).
#
# This work is licensed under the Creative Commons
# Attribution-NonCommercial-ShareAlike 4.0 International License.
# To view a copy of this license, visit
# http://creativecommons.org/licenses/by-nc-sa/4.0/
# or send a letter to
# Creative Commons, PO Box 1866, Mountain View, CA 94042, USA.
#
# CIF created using the CSD Python API on 29 September 2022
# The structure has been converted into the P1 space group
# The structure has a 3D framework
# The original CSD entry CAMTOD02 is in the monoclinic crystal system
# The framework has been calculated to contain at least 10.0% void space
# The void calculation uses a probe of radius 1.32A, grid spacing 0.4
#
###############################################################################

data_CAMTOD02
_chemical_formula_moiety         '(C40 H23 Al13 N16 O39)n'
_symmetry_cell_setting           triclinic
_symmetry_space_group_name_H-M   'P 1'
_symmetry_Int_Tables_number      1
_space_group_name_Hall           'P 1'
loop_
_symmetry_equiv_pos_site_id
_symmetry_equiv_pos_as_xyz
1 x,y,z
_cell_length_a                   12.2664(6)
_cell_length_b                   14.5037(6)
_cell_length_c                   14.2909(6)
_cell_angle_alpha                90
_cell_angle_beta                 101.465(2)
_cell_angle_gamma                90
_cell_volume                     2491.74
loop_
_atom_site_label
_atom_site_type_symbol
_atom_site_fract_x
_atom_site_fract_y
_atom_site_fract_z
Al6 Al 0.000000 0.000000 0.500000
Al10 Al 0.500000 0.000000 0.500000
Al1 Al 0.000000 0.500000 -0.000000
O1 O 0.15045(11) 0.52386(9) 0.02567(9)
H1 H 0.187804 0.514590 0.089864
O8 O 0.30554(11) 0.65641(9) 0.03029(10)
Al3 Al 0.500000 0.500000 -0.000000
H2 H 0.327682 0.422062 0.000883
O13 O 0.02990(11) 0.38942(10) 0.07161(10)
C12 C 0.02642(16) 0.25781(14) 0.16483(14)
N5 N 0.13068(15) 0.23453(13) 0.15886(14)
O19 O 0.65004(11) 0.51823(9) 0.01520(9)
O20 O 0.48804(11) 0.62275(9) 0.05037(10)
O21 O 0.51537(11) 0.45087(10) 0.12509(9)
C16 C 0.07263(16) 0.14269(14) 0.26331(14)
N6 N 0.15649(15) 0.16330(13) 0.21826(14)
C18 C 0.08478(16) 0.07065(13) 0.33725(13)
H10 H 0.220196 0.133483 0.227005
O25 O 0.01104(12) 0.06739(10) 0.38662(10)
O26 O 0.16917(11) 0.01955(10) 0.34494(10)
Al1_2 Al 0.000000 0.500000 1.000000
O2 O 0.01104(12) 0.43261(10) 0.88662(10)
Al2 Al 0.23719(4) 0.56331(4) 0.94273(4)
C1 C 0.02918(16) 0.66340(13) 0.88992(13)
O4 O 0.34996(11) 0.48177(9) 0.98480(9)
O5 O 0.31401(11) 0.61253(9) 0.84904(10)
O6 O 0.16917(11) 0.48045(10) 0.84494(10)
O7 O 0.13159(11) 0.65512(10) 0.89069(10)
Al3_2 Al 0.500000 0.500000 1.000000
C3 C 0.40885(16) 0.60013(13) 0.83018(13)
C4 C 0.01380(16) 0.79808(14) 0.77006(15)
O9 O 0.48463(11) 0.54913(10) 0.87491(9)
O10 O 0.51196(11) 0.37725(9) 0.94963(10)
C5 C 0.43385(16) 0.65380(14) 0.74944(14)
H3 H 0.084646 0.795702 0.752788
N3 N 0.53696(15) 0.65450(14) 0.73079(14)
C7 C 0.36410(16) 0.71459(14) 0.68991(14)
N4 N 0.53386(15) 0.71686(14) 0.66168(14)
C9 C 0.43163(16) 0.75431(14) 0.63505(14)
H5 H 0.287365 0.725984 0.687733
H6 H 0.591380 0.731753 0.636534
C10 C 0.40667(16) 0.83083(13) 0.56596(13)
Al6_2 Al 0.000000 1.000000 0.500000
O27 O 0.48804(11) 0.87725(9) 0.55037(10)
O28 O 0.30554(11) 0.84359(9) 0.53029(10)
Al10_2 Al 0.500000 1.000000 0.500000
Al11 Al 0.23719(4) 0.93669(4) 0.44273(4)
Al6_3 Al 1.000000 0.000000 0.500000
Al7 Al 0.76281(4) 0.06331(4) 0.55727(4)
Al1_3 Al 1.000000 0.500000 -0.000000
O12 O 0.98896(12) 0.56739(10) 0.11338(10)
Al4 Al 0.76281(4) 0.43669(4) 0.05727(4)
C11 C 0.97082(16) 0.33660(13) 0.11008(13)
O15 O 0.68599(11) 0.38747(9) 0.15096(10)
O16 O 0.83083(11) 0.51955(10) 0.15506(10)
O17 O 0.86841(11) 0.34488(10) 0.10931(10)
C13 C 0.59115(16) 0.39987(13) 0.16982(13)
C14 C 0.98620(16) 0.20192(14) 0.22994(15)
C15 C 0.56615(16) 0.34620(14) 0.25056(14)
H9 H 0.915354 0.204298 0.247212
N7 N 0.46304(15) 0.34550(14) 0.26921(14)
C17 C 0.63590(16) 0.28541(14) 0.31009(14)
N8 N 0.46614(15) 0.28314(14) 0.33832(14)
C19 C 0.56837(16) 0.24569(14) 0.36495(14)
H11 H 0.712635 0.274016 0.312267
H12 H 0.408620 0.268247 0.363466
C20 C 0.59333(16) 0.16917(13) 0.43404(13)
O29 O 0.51196(11) 0.12275(9) 0.44963(10)
O30 O 0.69446(11) 0.15641(9) 0.46971(10)
Al1_4 Al 1.000000 0.500000 1.000000
O3 O 0.97010(11) 0.61058(10) 0.92839(10)
C2 C 0.97358(16) 0.74219(14) 0.83517(14)
N1 N 0.86932(15) 0.76547(13) 0.84114(14)
C6 C 0.92737(16) 0.85731(14) 0.73669(14)
N2 N 0.84351(15) 0.83670(13) 0.78174(14)
C8 C 0.91522(16) 0.92935(13) 0.66275(13)
H4 H 0.779804 0.866517 0.772995
O11 O 0.84955(11) 0.47614(9) 0.97433(9)
H7 H 0.812196 0.485410 0.910136
O18 O 0.69446(11) 0.34359(9) 0.96971(10)
H8 H 0.672318 0.577938 0.999117
O23 O 0.98896(12) 0.93261(10) 0.61338(10)
O24 O 0.83083(11) 0.98045(10) 0.65506(10)
Al6_4 Al 1.000000 1.000000 0.500000
O3_2 O 0.02990(11) 0.11058(10) 0.57161(10)
C2_2 C 0.02642(16) 0.24219(14) 0.66483(14)
N1_2 N 0.13068(15) 0.26547(13) 0.65886(14)
C6_2 C 0.07263(16) 0.35731(14) 0.76331(14)
N2_2 N 0.15649(15) 0.33670(13) 0.71826(14)
C8_2 C 0.08478(16) 0.42935(13) 0.83725(13)
H4_2 H 0.220196 0.366517 0.727005
O14 O 0.34996(11) 0.01823(9) 0.48480(9)
H8_2 H 0.327682 0.077938 0.500883
O11_2 O 0.15045(11) 0.97614(9) 0.52567(9)
H7_2 H 0.187804 0.985410 0.589864
C11_2 C 0.02918(16) 0.83660(13) 0.38992(13)
O15_2 O 0.31401(11) 0.88747(9) 0.34904(10)
O17_2 O 0.13159(11) 0.84488(10) 0.39069(10)
C13_2 C 0.40885(16) 0.89987(13) 0.33018(13)
C14_2 C 0.01380(16) 0.70192(14) 0.27006(15)
O22 O 0.48463(11) 0.95087(10) 0.37491(9)
C15_2 C 0.43385(16) 0.84620(14) 0.24944(14)
H9_2 H 0.084646 0.704298 0.252788
N7_2 N 0.53696(15) 0.84550(14) 0.23079(14)
C17_2 C 0.36410(16) 0.78541(14) 0.18991(14)
N8_2 N 0.53386(15) 0.78314(14) 0.16168(14)
C19_2 C 0.43163(16) 0.74569(14) 0.13505(14)
H11_2 H 0.287365 0.774016 0.187733
H12_2 H 0.591380 0.768247 0.136534
C20_2 C 0.40667(16) 0.66917(13) 0.06596(13)
O1_2 O 0.84955(11) 0.02386(9) 0.47433(9)
H1_2 H 0.812196 0.014590 0.410136
C1_2 C 0.97082(16) 0.16340(13) 0.61008(13)
O5_2 O 0.68599(11) 0.11253(9) 0.65096(10)
O7_2 O 0.86841(11) 0.15512(10) 0.60931(10)
C3_2 C 0.59115(16) 0.10013(13) 0.66982(13)
C4_2 C 0.98620(16) 0.29808(14) 0.72994(15)
O9_2 O 0.51537(11) 0.04913(10) 0.62509(9)
C5_2 C 0.56615(16) 0.15380(14) 0.75056(14)
H3_2 H 0.915354 0.295702 0.747212
N3_2 N 0.46304(15) 0.15450(14) 0.76921(14)
C7_2 C 0.63590(16) 0.21459(14) 0.81009(14)
N4_2 N 0.46614(15) 0.21686(14) 0.83832(14)
C9_2 C 0.56837(16) 0.25431(14) 0.86495(14)
H5_2 H 0.712635 0.225984 0.812267
H6_2 H 0.408620 0.231753 0.863466
C10_2 C 0.59333(16) 0.33083(13) 0.93404(13)
O4_2 O 0.65004(11) 0.98177(9) 0.51520(9)
H2_2 H 0.672318 0.922062 0.499117
O13_2 O 0.97010(11) 0.88942(10) 0.42839(10)
C12_2 C 0.97358(16) 0.75781(14) 0.33517(14)
N5_2 N 0.86932(15) 0.73453(13) 0.34114(14)
C16_2 C 0.92737(16) 0.64269(14) 0.23669(14)
N6_2 N 0.84351(15) 0.66330(13) 0.28174(14)
C18_2 C 0.91522(16) 0.57065(13) 0.16275(13)
H10_2 H 0.779804 0.633483 0.272995
loop_
_geom_bond_atom_site_label_1
_geom_bond_atom_site_label_2
_geom_bond_site_symmetry_1
_geom_bond_site_symmetry_2
Al1 O1 1_555 1_555
H1 O1 1_555 1_555
O13 Al1 1_555 1_555
N5 C12 1_555 1_555
O19 Al3 1_555 1_555
O20 Al3 1_555 1_555
O21 Al3 1_555 1_555
N6 N5 1_555 1_555
C18 C16 1_555 1_555
H10 N6 1_555 1_555
O25 C18 1_555 1_555
O26 C18 1_555 1_555
Al6 O25 1_555 1_555
C16 N6 1_555 1_555
O2 Al1_2 1_555 1_555
Al2 O4 1_555 1_555
O4 Al3_2 1_555 1_555
O5 Al2 1_555 1_555
O6 Al2 1_555 1_555
O7 Al2 1_555 1_555
Al3_2 O9 1_555 1_555
C3 O5 1_555 1_555
O9 C3 1_555 1_555
O10 Al3_2 1_555 1_555
C5 C3 1_555 1_555
H3 C4 1_555 1_555
N3 C5 1_555 1_555
C7 C5 1_555 1_555
N4 N3 1_555 1_555
C9 C7 1_555 1_555
H5 C7 1_555 1_555
H6 N4 1_555 1_555
C10 C9 1_555 1_555
O27 C10 1_555 1_555
O28 C10 1_555 1_555
Al10_2 O27 1_555 1_555
Al11 O28 1_555 1_555
C1 O7 1_555 1_555
N4 C9 1_555 1_555
O12 Al1_3 1_555 1_555
O19 Al4 1_555 1_555
O15 Al4 1_555 1_555
O16 Al4 1_555 1_555
O17 Al4 1_555 1_555
C13 O15 1_555 1_555
C15 C13 1_555 1_555
H9 C14 1_555 1_555
N7 C15 1_555 1_555
C17 C15 1_555 1_555
N8 N7 1_555 1_555
C19 C17 1_555 1_555
H11 C17 1_555 1_555
H12 N8 1_555 1_555
C20 C19 1_555 1_555
O29 C20 1_555 1_555
O30 C20 1_555 1_555
Al10 O29 1_555 1_555
Al7 O30 1_555 1_555
C11 O17 1_555 1_555
C13 O21 1_555 1_555
N8 C19 1_555 1_555
O3 Al1_4 1_555 1_555
N1 C2 1_555 1_555
N2 N1 1_555 1_555
C8 C6 1_555 1_555
H4 N2 1_555 1_555
O11 Al1_4 1_555 1_555
H7 O11 1_555 1_555
O23 C8 1_555 1_555
O24 C8 1_555 1_555
Al6_4 O23 1_555 1_555
C6 N2 1_555 1_555
O3_2 Al6 1_555 1_555
N1_2 C2_2 1_555 1_555
N2_2 N1_2 1_555 1_555
C8_2 C6_2 1_555 1_555
H4_2 N2_2 1_555 1_555
H8_2 O14 1_555 1_555
Al10 O14 1_555 1_555
O2 C8_2 1_555 1_555
O6 C8_2 1_555 1_555
C6_2 N2_2 1_555 1_555
O11_2 Al6_2 1_555 1_555
Al11 O11_2 1_555 1_555
H7_2 O11_2 1_555 1_555
O15_2 Al11 1_555 1_555
O17_2 Al11 1_555 1_555
C13_2 O15_2 1_555 1_555
O22 Al10_2 1_555 1_555
C15_2 C13_2 1_555 1_555
H9_2 C14_2 1_555 1_555
N7_2 C15_2 1_555 1_555
C17_2 C15_2 1_555 1_555
N8_2 N7_2 1_555 1_555
C19_2 C17_2 1_555 1_555
H11_2 C17_2 1_555 1_555
H12_2 N8_2 1_555 1_555
C20_2 C19_2 1_555 1_555
O20 C20_2 1_555 1_555
O8 C20_2 1_555 1_555
C11_2 O17_2 1_555 1_555
C13_2 O22 1_555 1_555
N8_2 C19_2 1_555 1_555
Al6_3 O1_2 1_555 1_555
O1_2 Al7 1_555 1_555
H1_2 O1_2 1_555 1_555
O5_2 Al7 1_555 1_555
O7_2 Al7 1_555 1_555
Al10 O9_2 1_555 1_555
C3_2 O5_2 1_555 1_555
O9_2 C3_2 1_555 1_555
C5_2 C3_2 1_555 1_555
H3_2 C4_2 1_555 1_555
N3_2 C5_2 1_555 1_555
C7_2 C5_2 1_555 1_555
N4_2 N3_2 1_555 1_555
C9_2 C7_2 1_555 1_555
H5_2 C7_2 1_555 1_555
H6_2 N4_2 1_555 1_555
C10_2 C9_2 1_555 1_555
O10 C10_2 1_555 1_555
O18 C10_2 1_555 1_555
C1_2 O7_2 1_555 1_555
N4_2 C9_2 1_555 1_555
O4_2 Al10_2 1_555 1_555
H2_2 O4_2 1_555 1_555
O13_2 Al6_4 1_555 1_555
N5_2 C12_2 1_555 1_555
N6_2 N5_2 1_555 1_555
C18_2 C16_2 1_555 1_555
H10_2 N6_2 1_555 1_555
O12 C18_2 1_555 1_555
O16 C18_2 1_555 1_555
C16_2 N6_2 1_555 1_555

#END
