
###############################################################################
#
# This file contains modified crystal structure data generated from the
# MOF subset of the Cambridge Structural Database (CSD) v543 
# hosted by the Cambridge Crystallographic Data Centre (CCDC).
#
# This work is licensed under the Creative Commons
# Attribution-NonCommercial-ShareAlike 4.0 International License.
# To view a copy of this license, visit
# http://creativecommons.org/licenses/by-nc-sa/4.0/
# or send a letter to
# Creative Commons, PO Box 1866, Mountain View, CA 94042, USA.
#
# CIF created using the CSD Python API on 29 September 2022
# The structure has been converted into the P1 space group
# The structure has a 3D framework
# The original CSD entry CAMVUL is in the monoclinic crystal system
# The framework has been calculated to contain at least 10.0% void space
# The void calculation uses a probe of radius 1.32A, grid spacing 0.4
#
###############################################################################

data_CAMVUL
_chemical_formula_moiety         '(C40 H23 Al15 N16 O37)n'
_symmetry_cell_setting           triclinic
_symmetry_space_group_name_H-M   'P 1'
_symmetry_Int_Tables_number      1
_space_group_name_Hall           'P 1'
loop_
_symmetry_equiv_pos_site_id
_symmetry_equiv_pos_as_xyz
1 x,y,z
_cell_length_a                   12.292(4)
_cell_length_b                   14.956(5)
_cell_length_c                   13.882(5)
_cell_angle_alpha                90
_cell_angle_beta                 102.479(13)
_cell_angle_gamma                90
_cell_volume                     2491.76
loop_
_atom_site_label
_atom_site_type_symbol
_atom_site_fract_x
_atom_site_fract_y
_atom_site_fract_z
Al11 Al -0.000000 0.000000 -0.000000
Al3 Al -0.000000 0.500000 0.500000
O10 O 0.0305(3) 0.3897(3) 0.5711(3)
C5 C 0.0245(5) 0.2595(4) 0.6631(5)
N3 N 0.1261(4) 0.2331(4) 0.6538(4)
N4 N 0.1501(4) 0.1619(4) 0.7111(4)
C9 C 0.0688(5) 0.1425(4) 0.7596(5)
H6 H 0.211207 0.131058 0.716799
C10 C 0.0816(5) 0.0700(4) 0.8328(4)
O19 O 0.1509(3) 0.5222(2) 0.5250(3)
O20 O 0.0069(3) 0.4368(3) 0.3815(3)
O27 O 0.1672(3) 0.0224(3) 0.8405(3)
O28 O 0.0069(3) 0.0632(3) 0.8815(3)
Al11_2 Al 0.000000 -0.000000 1.000000
Al11_3 Al -0.000000 1.000000 -0.000000
Al10 Al 0.23538(13) 0.93984(12) 0.93959(12)
Al11_4 Al 0.000000 1.000000 1.000000
Al9 Al 0.500000 -0.000000 0.000000
Al9_2 Al 0.500000 -0.000000 1.000000
Al6 Al 0.76462(13) 0.06016(12) 0.06041(12)
Al11_5 Al 1.000000 0.000000 -0.000000
Al1 Al 0.500000 0.500000 0.500000
O1 O 0.6499(3) 0.5179(3) 0.5166(3)
O2 O 0.5179(3) 0.4497(3) 0.6277(3)
O3 O 0.4876(3) 0.6180(3) 0.5536(3)
Al2 Al 0.76462(13) 0.43984(12) 0.56041(12)
H1 H 0.671213 0.575389 0.500357
C1 C 0.5935(5) 0.3997(4) 0.6730(4)
O4 O 0.8491(3) 0.4778(2) 0.4750(3)
O5 O 0.6897(3) 0.3925(3) 0.6569(3)
O6 O 0.8328(3) 0.5224(3) 0.6595(3)
O7 O 0.8716(3) 0.3511(3) 0.6145(3)
O8 O 0.6952(3) 0.3484(3) 0.4708(3)
C2 C 0.5679(5) 0.3421(5) 0.7514(4)
Al3_2 Al 1.000000 0.500000 0.500000
H2 H 0.810436 0.487291 0.409615
C3 C 0.9712(5) 0.3389(4) 0.6113(4)
N1 N 0.4636(5) 0.3384(4) 0.7662(4)
C4 C 0.6374(5) 0.2829(4) 0.8123(4)
O9 O 0.9931(3) 0.5632(3) 0.6185(3)
N2 N 0.4667(5) 0.2742(4) 0.8343(4)
H3 H 0.714214 0.274517 0.817287
C6 C 0.5701(5) 0.2391(4) 0.8637(4)
C7 C 0.9853(5) 0.2047(4) 0.7294(5)
H4 H 0.409194 0.257168 0.856842
C8 C 0.5943(5) 0.1643(4) 0.9332(4)
H5 H 0.917013 0.209125 0.749219
O11 O 0.3501(3) 0.4821(3) 0.4834(3)
O12 O 0.4821(3) 0.5503(3) 0.3723(3)
O13 O 0.5124(3) 0.3820(3) 0.4464(3)
Al4 Al 0.23538(13) 0.56016(12) 0.43959(12)
H7 H 0.328787 0.424611 0.499643
C11 C 0.4065(5) 0.6003(4) 0.3270(4)
O15 O 0.3103(3) 0.6075(3) 0.3431(3)
O16 O 0.1672(3) 0.4776(3) 0.3405(3)
O17 O 0.1284(3) 0.6489(3) 0.3855(3)
O18 O 0.3048(3) 0.6516(3) 0.5292(3)
C12 C 0.4321(5) 0.6579(5) 0.2486(4)
H8 H 0.189564 0.512709 0.590385
C13 C 0.0288(5) 0.6611(4) 0.3887(4)
N5 N 0.5364(5) 0.6616(4) 0.2338(4)
C14 C 0.3626(5) 0.7171(4) 0.1877(4)
O21 O 0.9695(3) 0.6103(3) 0.4289(3)
N6 N 0.5333(5) 0.7258(4) 0.1657(4)
H9 H 0.285786 0.725483 0.182713
C16 C 0.4299(5) 0.7609(4) 0.1363(4)
C17 C 0.0147(5) 0.7953(4) 0.2706(5)
H10 H 0.590806 0.742832 0.143158
C18 C 0.4057(5) 0.8357(4) 0.0668(4)
O23 O 0.6952(3) 0.1516(3) 0.9708(3)
O24 O 0.5124(3) 0.1180(3) 0.9464(3)
H11 H 0.082987 0.790875 0.250781
O25 O 0.3048(3) 0.8484(3) 0.0292(3)
O26 O 0.4876(3) 0.8820(3) 0.0536(3)
Al9_3 Al 0.500000 1.000000 0.000000
Al11_6 Al 1.000000 -0.000000 1.000000
Al9_4 Al 0.500000 1.000000 1.000000
Al11_7 Al 1.000000 1.000000 -0.000000
Al11_8 Al 1.000000 1.000000 1.000000
C15 C 0.9755(5) 0.7405(4) 0.3369(5)
N7 N 0.8739(4) 0.7669(4) 0.3462(4)
N8 N 0.8499(4) 0.8381(4) 0.2889(4)
C19 C 0.9312(5) 0.8575(4) 0.2404(5)
H12 H 0.788793 0.868942 0.283201
C20 C 0.9184(5) 0.9300(4) 0.1672(4)
O29 O 0.8328(3) 0.9776(3) 0.1595(3)
O30 O 0.9931(3) 0.9368(3) 0.1185(3)
O22 O 0.0305(3) 0.1103(3) 0.0711(3)
C15_2 C 0.0245(5) 0.2405(4) 0.1631(5)
N7_2 N 0.1261(4) 0.2669(4) 0.1538(4)
N8_2 N 0.1501(4) 0.3381(4) 0.2111(4)
C19_2 C 0.0688(5) 0.3575(4) 0.2596(5)
H12_2 H 0.211207 0.368942 0.216799
C20_2 C 0.0816(5) 0.4300(4) 0.3328(4)
O12_2 O 0.5179(3) 0.0503(3) 0.1277(3)
C11_2 C 0.5935(5) 0.1003(4) 0.1730(4)
O15_2 O 0.6897(3) 0.1075(3) 0.1569(3)
O17_2 O 0.8716(3) 0.1489(3) 0.1145(3)
C12_2 C 0.5679(5) 0.1579(5) 0.2514(4)
C13_2 C 0.9712(5) 0.1611(4) 0.1113(4)
N5_2 N 0.4636(5) 0.1616(4) 0.2662(4)
C14_2 C 0.6374(5) 0.2171(4) 0.3123(4)
N6_2 N 0.4667(5) 0.2258(4) 0.3343(4)
H9_2 H 0.714214 0.225483 0.317287
C16_2 C 0.5701(5) 0.2609(4) 0.3637(4)
C17_2 C 0.9853(5) 0.2953(4) 0.2294(5)
H10_2 H 0.409194 0.242832 0.356842
C18_2 C 0.5943(5) 0.3357(4) 0.4332(4)
H11_2 H 0.917013 0.290875 0.249219
O1_2 O 0.3501(3) 0.0179(3) 0.9834(3)
H1_2 H 0.328787 0.075389 0.999643
O14 O 0.8491(3) 0.0222(2) 0.9750(3)
H8_2 H 0.810436 0.012709 0.909615
O4_2 O 0.1509(3) 0.9778(2) 0.0250(3)
H2_2 H 0.189564 0.987291 0.090385
O11_2 O 0.6499(3) 0.9821(3) 0.0166(3)
H7_2 H 0.671213 0.924611 0.000357
O2_2 O 0.4821(3) 0.9497(3) 0.8723(3)
C1_2 C 0.4065(5) 0.8997(4) 0.8270(4)
O5_2 O 0.3103(3) 0.8925(3) 0.8431(3)
O7_2 O 0.1284(3) 0.8511(3) 0.8855(3)
C2_2 C 0.4321(5) 0.8421(5) 0.7486(4)
C3_2 C 0.0288(5) 0.8389(4) 0.8887(4)
N1_2 N 0.5364(5) 0.8384(4) 0.7338(4)
C4_2 C 0.3626(5) 0.7829(4) 0.6877(4)
N2_2 N 0.5333(5) 0.7742(4) 0.6657(4)
H3_2 H 0.285786 0.774517 0.682713
C6_2 C 0.4299(5) 0.7391(4) 0.6363(4)
C7_2 C 0.0147(5) 0.7047(4) 0.7706(5)
H4_2 H 0.590806 0.757168 0.643158
C8_2 C 0.4057(5) 0.6643(4) 0.5668(4)
H5_2 H 0.082987 0.709125 0.750781
O10_2 O 0.9695(3) 0.8897(3) 0.9289(3)
C5_2 C 0.9755(5) 0.7595(4) 0.8369(5)
N3_2 N 0.8739(4) 0.7331(4) 0.8462(4)
N4_2 N 0.8499(4) 0.6619(4) 0.7889(4)
C9_2 C 0.9312(5) 0.6425(4) 0.7404(5)
H6_2 H 0.788793 0.631058 0.783201
C10_2 C 0.9184(5) 0.5700(4) 0.6672(4)
loop_
_geom_bond_atom_site_label_1
_geom_bond_atom_site_label_2
_geom_bond_site_symmetry_1
_geom_bond_site_symmetry_2
O10 Al3 1_555 1_555
N3 C5 1_555 1_555
N4 N3 1_555 1_555
H6 N4 1_555 1_555
C10 C9 1_555 1_555
O19 Al3 1_555 1_555
O20 Al3 1_555 1_555
O27 C10 1_555 1_555
O28 C10 1_555 1_555
Al11_2 O28 1_555 1_555
N4 C9 1_555 1_555
Al1 O1 1_555 1_555
O1 Al2 1_555 1_555
O2 Al1 1_555 1_555
O3 Al1 1_555 1_555
Al2 O4 1_555 1_555
H1 O1 1_555 1_555
C1 O2 1_555 1_555
O4 Al3_2 1_555 1_555
O5 Al2 1_555 1_555
O6 Al2 1_555 1_555
O7 Al2 1_555 1_555
O8 Al2 1_555 1_555
C2 C1 1_555 1_555
Al3_2 O9 1_555 1_555
H2 O4 1_555 1_555
C3 O7 1_555 1_555
N1 C2 1_555 1_555
C4 C2 1_555 1_555
N2 N1 1_555 1_555
H3 C4 1_555 1_555
C6 C4 1_555 1_555
H4 N2 1_555 1_555
C8 C6 1_555 1_555
H5 C7 1_555 1_555
O11 Al1 1_555 1_555
O12 Al1 1_555 1_555
O13 Al1 1_555 1_555
Al4 O11 1_555 1_555
H7 O11 1_555 1_555
C11 O12 1_555 1_555
O19 Al4 1_555 1_555
O15 Al4 1_555 1_555
O16 Al4 1_555 1_555
O17 Al4 1_555 1_555
O18 Al4 1_555 1_555
C12 C11 1_555 1_555
H8 O19 1_555 1_555
C13 O17 1_555 1_555
N5 C12 1_555 1_555
C14 C12 1_555 1_555
O21 Al3_2 1_555 1_555
N6 N5 1_555 1_555
H9 C14 1_555 1_555
C16 C14 1_555 1_555
H10 N6 1_555 1_555
C18 C16 1_555 1_555
O23 C8 1_555 1_555
O24 C8 1_555 1_555
H11 C17 1_555 1_555
O25 C18 1_555 1_555
O26 C18 1_555 1_555
Al9_2 O24 1_555 1_555
Al9_3 O26 1_555 1_555
C1 O5 1_555 1_555
N2 C6 1_555 1_555
C11 O15 1_555 1_555
N6 C16 1_555 1_555
N7 C15 1_555 1_555
N8 N7 1_555 1_555
H12 N8 1_555 1_555
C20 C19 1_555 1_555
O29 C20 1_555 1_555
O30 C20 1_555 1_555
Al11_7 O30 1_555 1_555
N8 C19 1_555 1_555
O22 Al11 1_555 1_555
N7_2 C15_2 1_555 1_555
N8_2 N7_2 1_555 1_555
H12_2 N8_2 1_555 1_555
C20_2 C19_2 1_555 1_555
O16 C20_2 1_555 1_555
O20 C20_2 1_555 1_555
N8_2 C19_2 1_555 1_555
O12_2 Al9 1_555 1_555
C11_2 O12_2 1_555 1_555
O15_2 Al6 1_555 1_555
O17_2 Al6 1_555 1_555
C12_2 C11_2 1_555 1_555
C13_2 O17_2 1_555 1_555
N5_2 C12_2 1_555 1_555
C14_2 C12_2 1_555 1_555
N6_2 N5_2 1_555 1_555
H9_2 C14_2 1_555 1_555
C16_2 C14_2 1_555 1_555
H10_2 N6_2 1_555 1_555
C18_2 C16_2 1_555 1_555
H11_2 C17_2 1_555 1_555
O8 C18_2 1_555 1_555
O13 C18_2 1_555 1_555
C11_2 O15_2 1_555 1_555
N6_2 C16_2 1_555 1_555
Al9_2 O1_2 1_555 1_555
H1_2 O1_2 1_555 1_555
H8_2 O14 1_555 1_555
Al11_6 O14 1_555 1_555
O4_2 Al11_3 1_555 1_555
H2_2 O4_2 1_555 1_555
O11_2 Al9_3 1_555 1_555
H7_2 O11_2 1_555 1_555
O2_2 Al9_4 1_555 1_555
C1_2 O2_2 1_555 1_555
O5_2 Al10 1_555 1_555
O7_2 Al10 1_555 1_555
C2_2 C1_2 1_555 1_555
C3_2 O7_2 1_555 1_555
N1_2 C2_2 1_555 1_555
C4_2 C2_2 1_555 1_555
N2_2 N1_2 1_555 1_555
H3_2 C4_2 1_555 1_555
C6_2 C4_2 1_555 1_555
H4_2 N2_2 1_555 1_555
C8_2 C6_2 1_555 1_555
H5_2 C7_2 1_555 1_555
O18 C8_2 1_555 1_555
O3 C8_2 1_555 1_555
C1_2 O5_2 1_555 1_555
N2_2 C6_2 1_555 1_555
O10_2 Al11_8 1_555 1_555
N3_2 C5_2 1_555 1_555
N4_2 N3_2 1_555 1_555
H6_2 N4_2 1_555 1_555
C10_2 C9_2 1_555 1_555
O6 C10_2 1_555 1_555
O9 C10_2 1_555 1_555
N4_2 C9_2 1_555 1_555

#END
