
###############################################################################
#
# This file contains modified crystal structure data generated from the
# MOF subset of the Cambridge Structural Database (CSD) v543 
# hosted by the Cambridge Crystallographic Data Centre (CCDC).
#
# This work is licensed under the Creative Commons
# Attribution-NonCommercial-ShareAlike 4.0 International License.
# To view a copy of this license, visit
# http://creativecommons.org/licenses/by-nc-sa/4.0/
# or send a letter to
# Creative Commons, PO Box 1866, Mountain View, CA 94042, USA.
#
# CIF created using the CSD Python API on 29 September 2022
# The structure has been converted into the P1 space group
# The structure has a 3D framework
# The original CSD entry CAMWUM is in the monoclinic crystal system
# The framework has been calculated to contain at least 10.0% void space
# The void calculation uses a probe of radius 1.32A, grid spacing 0.4
#
###############################################################################

data_CAMWUM
_chemical_formula_moiety         '(C40 H23 Al13 N16 O37)n'
_symmetry_cell_setting           triclinic
_symmetry_space_group_name_H-M   'P 1'
_symmetry_Int_Tables_number      1
_space_group_name_Hall           'P 1'
loop_
_symmetry_equiv_pos_site_id
_symmetry_equiv_pos_as_xyz
1 x,y,z
_cell_length_a                   12.2727(10)
_cell_length_b                   15.4996(10)
_cell_length_c                   13.4203(12)
_cell_angle_alpha                90
_cell_angle_beta                 103.262(2)
_cell_angle_gamma                90
_cell_volume                     2484.75
loop_
_atom_site_label
_atom_site_type_symbol
_atom_site_fract_x
_atom_site_fract_y
_atom_site_fract_z
Al7 Al 0.000000 0.000000 0.000000
Al1 Al 0.000000 0.500000 0.500000
O2 O 0.0355(2) 0.39854(19) 0.5823(3)
C2 C 0.0314(4) 0.2712(3) 0.6761(4)
N1 N 0.1371(4) 0.2502(3) 0.6740(5)
N2 N 0.1611(4) 0.1787(3) 0.7298(5)
C6 C 0.0744(4) 0.1536(3) 0.7683(4)
H4 H 0.224082 0.152056 0.739838
C8 C 0.0822(4) 0.0774(3) 0.8346(4)
O10 O 0.0069(2) 0.0684(2) 0.8837(2)
O19 O 0.1632(2) 0.02720(19) 0.8367(2)
Al7_2 Al -0.000000 0.000000 1.000000
Al7_3 Al 0.000000 1.000000 0.000000
Al6 Al 0.23398(9) 0.94167(7) 0.93149(10)
Al7_4 Al 0.000000 1.000000 1.000000
Al11 Al 0.500000 -0.000000 0.000000
Al11_2 Al 0.500000 -0.000000 1.000000
Al7_5 Al 1.000000 0.000000 0.000000
Al11_3 Al 0.500000 1.000000 0.000000
Al1_2 Al 1.000000 0.500000 0.500000
O1 O 0.8487(2) 0.47644(17) 0.4754(2)
Al2 Al 0.76602(9) 0.44167(7) 0.56851(10)
H1 H 0.808813 0.482729 0.407922
C1 C 0.9765(3) 0.3484(3) 0.6223(3)
O3 O 0.6509(2) 0.51768(18) 0.5213(2)
O4 O 0.8368(2) 0.52720(19) 0.6633(2)
O5 O 0.6924(2) 0.35571(19) 0.4739(2)
O6 O 0.8761(2) 0.35776(18) 0.6237(2)
O7 O 0.6965(2) 0.39848(19) 0.6708(2)
Al3 Al 0.500000 0.500000 0.500000
H2 H 0.672372 0.572781 0.506077
C3 C 0.5921(4) 0.3475(3) 0.4249(4)
C4 C 0.9890(4) 0.2121(3) 0.7355(4)
O8 O 0.4892(2) 0.6056(2) 0.5677(3)
O9 O 0.5162(3) 0.4374(2) 0.6238(3)
C5 C 0.5671(4) 0.2763(3) 0.3520(4)
H3 H 0.918366 0.212080 0.749873
C7 C 0.6376(4) 0.2216(3) 0.3175(4)
N3 N 0.4608(4) 0.2597(4) 0.3038(5)
H5 H 0.715343 0.220029 0.337331
C9 C 0.5692(4) 0.1696(3) 0.2471(5)
N4 N 0.4633(4) 0.1938(4) 0.2403(5)
C10 C 0.5961(4) 0.1052(3) 0.1760(4)
H6 H 0.405522 0.170525 0.200913
O11 O 0.3491(2) 0.48232(18) 0.4787(2)
O12 O 0.5108(2) 0.3944(2) 0.4323(3)
O13 O 0.4838(3) 0.5626(2) 0.3762(3)
C11 C 0.4079(4) 0.6525(3) 0.5751(4)
Al4 Al 0.23398(9) 0.55833(7) 0.43149(10)
H7 H 0.327628 0.427219 0.493923
O14 O 0.3076(2) 0.64429(19) 0.5261(2)
C12 C 0.4329(4) 0.7237(3) 0.6480(4)
O15 O 0.1513(2) 0.52356(17) 0.5246(2)
O16 O 0.1632(2) 0.47280(19) 0.3367(2)
O17 O 0.1239(2) 0.64224(18) 0.3763(2)
O18 O 0.3035(2) 0.60152(19) 0.3292(2)
C13 C 0.3624(4) 0.7784(3) 0.6825(4)
N5 N 0.5392(4) 0.7403(4) 0.6962(5)
H8 H 0.191187 0.517271 0.592078
C14 C 0.0235(3) 0.6516(3) 0.3777(3)
Al7_6 Al 1.000000 0.000000 1.000000
Al8 Al 0.76602(9) 0.05833(7) 0.06851(10)
H9 H 0.284657 0.779971 0.662669
C15 C 0.4308(4) 0.8304(3) 0.7529(5)
N6 N 0.5367(4) 0.8062(4) 0.7597(5)
O20 O 0.0069(2) 0.4316(2) 0.3837(2)
O25 O 0.6965(2) 0.10152(19) 0.1708(2)
O26 O 0.5162(3) 0.0626(2) 0.1238(3)
C17 C 0.4039(4) 0.8948(3) 0.8240(4)
H10 H 0.594478 0.829475 0.799087
C18 C 0.0110(4) 0.7879(3) 0.2645(4)
O27 O 0.3035(2) 0.89848(19) 0.8292(2)
O28 O 0.4838(3) 0.9374(2) 0.8762(3)
H11 H 0.081634 0.787920 0.250127
Al11_4 Al 0.500000 1.000000 1.000000
Al7_7 Al 1.000000 1.000000 0.000000
Al7_8 Al 1.000000 1.000000 1.000000
O21 O 0.9645(2) 0.60146(19) 0.4177(3)
O23 O 0.9931(2) 0.5684(2) 0.6163(2)
C16 C 0.9686(4) 0.7288(3) 0.3239(4)
N7 N 0.8629(4) 0.7498(3) 0.3260(5)
N8 N 0.8389(4) 0.8213(3) 0.2702(5)
C19 C 0.9256(4) 0.8464(3) 0.2317(4)
H12 H 0.775918 0.847944 0.260162
C20 C 0.9178(4) 0.9226(3) 0.1654(4)
O29 O 0.8368(2) 0.97280(19) 0.1633(2)
O30 O 0.9931(2) 0.9316(2) 0.1163(2)
O21_2 O 0.0355(2) 0.10146(19) 0.0823(3)
C16_2 C 0.0314(4) 0.2288(3) 0.1761(4)
N7_2 N 0.1371(4) 0.2498(3) 0.1740(5)
N8_2 N 0.1611(4) 0.3213(3) 0.2298(5)
C19_2 C 0.0744(4) 0.3464(3) 0.2683(4)
H12_2 H 0.224082 0.347944 0.239838
C20_2 C 0.0822(4) 0.4226(3) 0.3346(4)
O22 O 0.1513(2) 0.97644(17) 0.0246(2)
O17_2 O 0.8761(2) 0.14224(18) 0.1237(2)
C14_2 C 0.9765(3) 0.1516(3) 0.1223(3)
C18_2 C 0.9890(4) 0.2879(3) 0.2355(4)
H11_2 H 0.918366 0.287920 0.249873
O3_2 O 0.3491(2) 0.01768(18) 0.9787(2)
H2_2 H 0.327628 0.072781 0.993923
O8_2 O 0.5108(2) 0.1056(2) 0.9323(3)
C11_2 C 0.5921(4) 0.1525(3) 0.9249(4)
O14_2 O 0.6924(2) 0.14429(19) 0.9739(2)
C12_2 C 0.5671(4) 0.2237(3) 0.8520(4)
O15_2 O 0.8487(2) 0.02356(17) 0.9754(2)
C13_2 C 0.6376(4) 0.2784(3) 0.8175(4)
N5_2 N 0.4608(4) 0.2403(4) 0.8038(5)
H8_2 H 0.808813 0.017271 0.907922
H9_2 H 0.715343 0.279971 0.837331
C15_2 C 0.5692(4) 0.3304(3) 0.7471(5)
N6_2 N 0.4633(4) 0.3062(4) 0.7403(5)
C17_2 C 0.5961(4) 0.3948(3) 0.6760(4)
H10_2 H 0.405522 0.329475 0.700913
H1_2 H 0.191187 0.982729 0.092078
O5_2 O 0.3076(2) 0.85571(19) 0.0261(2)
C3_2 C 0.4079(4) 0.8475(3) 0.0751(4)
C5_2 C 0.4329(4) 0.7763(3) 0.1480(4)
C7_2 C 0.3624(4) 0.7216(3) 0.1825(4)
N3_2 N 0.5392(4) 0.7597(4) 0.1962(5)
H5_2 H 0.284657 0.720029 0.162669
C9_2 C 0.4308(4) 0.6696(3) 0.2529(5)
N4_2 N 0.5367(4) 0.6938(4) 0.2597(5)
C10_2 C 0.4039(4) 0.6052(3) 0.3240(4)
H6_2 H 0.594478 0.670525 0.299087
O11_2 O 0.6509(2) 0.98232(18) 0.0213(2)
O12_2 O 0.4892(2) 0.8944(2) 0.0677(3)
H7_2 H 0.672372 0.927219 0.006077
C1_2 C 0.0235(3) 0.8484(3) 0.8777(3)
O6_2 O 0.1239(2) 0.85776(18) 0.8763(2)
C4_2 C 0.0110(4) 0.7121(3) 0.7645(4)
H3_2 H 0.081634 0.712080 0.750127
O24 O 0.9645(2) 0.89854(19) 0.9177(3)
C2_2 C 0.9686(4) 0.7712(3) 0.8239(4)
N1_2 N 0.8629(4) 0.7502(3) 0.8260(5)
N2_2 N 0.8389(4) 0.6787(3) 0.7702(5)
C6_2 C 0.9256(4) 0.6536(3) 0.7317(4)
H4_2 H 0.775918 0.652056 0.760162
C8_2 C 0.9178(4) 0.5774(3) 0.6654(4)
loop_
_geom_bond_atom_site_label_1
_geom_bond_atom_site_label_2
_geom_bond_site_symmetry_1
_geom_bond_site_symmetry_2
O2 Al1 1_555 1_555
N1 C2 1_555 1_555
N2 N1 1_555 1_555
H4 N2 1_555 1_555
C8 C6 1_555 1_555
O10 C8 1_555 1_555
O19 C8 1_555 1_555
Al7_2 O10 1_555 1_555
N2 C6 1_555 1_555
Al1_2 O1 1_555 1_555
O1 Al2 1_555 1_555
Al2 O3 1_555 1_555
H1 O1 1_555 1_555
O3 Al3 1_555 1_555
O4 Al2 1_555 1_555
O5 Al2 1_555 1_555
O6 Al2 1_555 1_555
O7 Al2 1_555 1_555
Al3 O8 1_555 1_555
H2 O3 1_555 1_555
C3 O5 1_555 1_555
O8 C11 1_555 1_555
O9 Al3 1_555 1_555
C5 C3 1_555 1_555
H3 C4 1_555 1_555
C7 C5 1_555 1_555
N3 C5 1_555 1_555
H5 C7 1_555 1_555
C9 C7 1_555 1_555
N4 N3 1_555 1_555
C10 C9 1_555 1_555
H6 N4 1_555 1_555
O11 Al3 1_555 1_555
O12 Al3 1_555 1_555
O13 Al3 1_555 1_555
C11 O14 1_555 1_555
Al4 O11 1_555 1_555
H7 O11 1_555 1_555
O14 Al4 1_555 1_555
C12 C11 1_555 1_555
O15 Al4 1_555 1_555
O16 Al4 1_555 1_555
O17 Al4 1_555 1_555
O18 Al4 1_555 1_555
C13 C12 1_555 1_555
N5 C12 1_555 1_555
H8 O15 1_555 1_555
Al1 O15 1_555 1_555
C14 O17 1_555 1_555
Al8 O25 1_555 1_555
H9 C13 1_555 1_555
C15 C13 1_555 1_555
N6 N5 1_555 1_555
O20 Al1 1_555 1_555
O25 C10 1_555 1_555
O26 C10 1_555 1_555
C17 C15 1_555 1_555
H10 N6 1_555 1_555
Al11 O26 1_555 1_555
O27 C17 1_555 1_555
O28 C17 1_555 1_555
H11 C18 1_555 1_555
Al6 O27 1_555 1_555
Al11_4 O28 1_555 1_555
C1 O6 1_555 1_555
C3 O12 1_555 1_555
C9 N4 1_555 1_555
C15 N6 1_555 1_555
O21 Al1_2 1_555 1_555
O23 Al1_2 1_555 1_555
N7 C16 1_555 1_555
N8 N7 1_555 1_555
H12 N8 1_555 1_555
C20 C19 1_555 1_555
O29 C20 1_555 1_555
O30 C20 1_555 1_555
Al7_7 O30 1_555 1_555
N8 C19 1_555 1_555
O21_2 Al7 1_555 1_555
N7_2 C16_2 1_555 1_555
N8_2 N7_2 1_555 1_555
H12_2 N8_2 1_555 1_555
C20_2 C19_2 1_555 1_555
O16 C20_2 1_555 1_555
O20 C20_2 1_555 1_555
N8_2 C19_2 1_555 1_555
O22 Al7_3 1_555 1_555
O17_2 Al8 1_555 1_555
C14_2 O17_2 1_555 1_555
H11_2 C18_2 1_555 1_555
O3_2 Al11_2 1_555 1_555
Al11_2 O8_2 1_555 1_555
H2_2 O3_2 1_555 1_555
O8_2 C11_2 1_555 1_555
C11_2 O14_2 1_555 1_555
C12_2 C11_2 1_555 1_555
C13_2 C12_2 1_555 1_555
N5_2 C12_2 1_555 1_555
H8_2 O15_2 1_555 1_555
Al7_6 O15_2 1_555 1_555
H9_2 C13_2 1_555 1_555
C15_2 C13_2 1_555 1_555
N6_2 N5_2 1_555 1_555
C17_2 C15_2 1_555 1_555
H10_2 N6_2 1_555 1_555
O7 C17_2 1_555 1_555
O9 C17_2 1_555 1_555
C15_2 N6_2 1_555 1_555
H1_2 O22 1_555 1_555
C3_2 O5_2 1_555 1_555
C5_2 C3_2 1_555 1_555
C7_2 C5_2 1_555 1_555
N3_2 C5_2 1_555 1_555
H5_2 C7_2 1_555 1_555
C9_2 C7_2 1_555 1_555
N4_2 N3_2 1_555 1_555
C10_2 C9_2 1_555 1_555
H6_2 N4_2 1_555 1_555
O11_2 Al11_3 1_555 1_555
O12_2 Al11_3 1_555 1_555
H7_2 O11_2 1_555 1_555
O18 C10_2 1_555 1_555
O13 C10_2 1_555 1_555
C3_2 O12_2 1_555 1_555
C9_2 N4_2 1_555 1_555
O6_2 Al6 1_555 1_555
H3_2 C4_2 1_555 1_555
O24 Al7_8 1_555 1_555
C1_2 O6_2 1_555 1_555
N1_2 C2_2 1_555 1_555
N2_2 N1_2 1_555 1_555
H4_2 N2_2 1_555 1_555
C8_2 C6_2 1_555 1_555
O23 C8_2 1_555 1_555
O4 C8_2 1_555 1_555
N2_2 C6_2 1_555 1_555

#END
