
###############################################################################
#
# This file contains modified crystal structure data generated from the
# MOF subset of the Cambridge Structural Database (CSD) v543 
# hosted by the Cambridge Crystallographic Data Centre (CCDC).
#
# This work is licensed under the Creative Commons
# Attribution-NonCommercial-ShareAlike 4.0 International License.
# To view a copy of this license, visit
# http://creativecommons.org/licenses/by-nc-sa/4.0/
# or send a letter to
# Creative Commons, PO Box 1866, Mountain View, CA 94042, USA.
#
# CIF created using the CSD Python API on 29 September 2022
# The structure has been converted into the P1 space group
# The structure has a 3D framework
# The original CSD entry CANYIB is in the hexagonal crystal system
# The original CSD entry CANYIB is in a Sohncke space group
# The framework has been calculated to contain at least 10.0% void space
# The void calculation uses a probe of radius 1.32A, grid spacing 0.4
#
###############################################################################

data_CANYIB
_chemical_formula_moiety         '(C96 H72 Co17 N6 O70)n'
_symmetry_cell_setting           triclinic
_symmetry_space_group_name_H-M   'P 1'
_symmetry_Int_Tables_number      1
_space_group_name_Hall           'P 1'
loop_
_symmetry_equiv_pos_site_id
_symmetry_equiv_pos_as_xyz
1 x,y,z
_cell_length_a                   23.4983(6)
_cell_length_b                   23.4983(6)
_cell_length_c                   11.0628(2)
_cell_angle_alpha                90
_cell_angle_beta                 90
_cell_angle_gamma                120
_cell_volume                     5290.16
loop_
_atom_site_label
_atom_site_type_symbol
_atom_site_fract_x
_atom_site_fract_y
_atom_site_fract_z
O8 O 0.07814(18) 0.19306(17) 0.1750(3)
C1 C 0.0185(3) 0.1664(3) 0.2068(5)
H1 H 0.0075 0.1447 0.2807
O9 O 0.10701(19) 0.32599(18) 0.0913(4)
O10 O 0.00473(18) 0.29345(17) 0.0368(3)
C11 C 0.0576(3) 0.3304(3) 0.0889(5)
H7 H 0.0595 0.3655 0.1311
Co7 Co 0.13256(3) 0.25729(4) 0.03898(6)
O4 O 0.04923(16) 0.20635(16) 0.9141(3)
O6 O 0.09763(17) 0.18611(16) 0.7552(3)
C3 C 0.0012(3) 0.5703(3) 0.4886(6)
N1 N 0.0500(2) 0.6096(2) 0.5632(4)
C7 C 0.0490(3) 0.1825(3) 0.8124(5)
H4 H 0.0084 0.1593 0.7744
C15 C 0.0723(4) 0.5814(3) 0.6397(6)
H11 H 0.1064 0.6073 0.6924
C16 C 0.0440(4) 0.5116(3) 0.6412(6)
H12 H 0.0580 0.4927 0.6992
Co5 Co 0.09053(4) 0.71419(3) 0.56509(6)
Co6 Co 0.19520(3) 0.23422(4) 0.80919(6)
Co1 Co 0.90947(4) 0.28581(3) 0.06509(6)
Co3 Co 0.87527(3) 0.13256(3) 0.20565(6)
O2 O 0.87791(15) 0.18664(15) 0.0601(3)
O5 O 0.97342(15) 0.16642(16) 0.1489(3)
H8 H 0.7810 0.2521 0.0182
H9 H 0.7925 0.2701 0.1462
O12 O 0.8114(2) 0.2697(2) 0.0784(4)
O13 O 0.9219(2) 0.29487(19) 0.2473(3)
O14 O 0.84288(23) 0.04923(16) 0.0808(3)
O16 O 0.88508(25) 0.07814(18) 0.3417(3)
O17 O 0.78102(26) 0.10701(19) 0.2580(4)
O18 O 0.90790(18) 0.20394(16) 0.3382(3)
N2 N 0.9500(2) 0.3904(2) 0.0632(4)
Co2 Co 0.96098(3) 0.19520(3) 0.97586(6)
O1 O 0.90443(18) 0.28936(17) 0.8772(3)
O7 O 0.94205(18) 0.22457(17) 0.8085(3)
C2 C 0.9208(3) 0.2624(3) 0.3359(5)
H2 H 0.9844 0.5889 0.4357
C4 C 0.9287(3) 0.2669(3) 0.5679(5)
H3 H 0.9163 0.2226 0.5699
C5 C 0.9391(3) 0.3009(2) 0.6744(4)
C6 C 0.9275(2) 0.2676(2) 0.7957(4)
C8 C 0.9599(3) 0.3693(3) 0.6699(5)
H5 H 0.9641 0.3913 0.7420
C9 C 0.9594(3) 0.3668(3) 0.4536(5)
H6 H 0.9650 0.3883 0.3803
C10 C 0.9369(3) 0.2986(2) 0.4551(4)
C12 C 0.9982(3) 0.4728(3) 0.5624(5)
C13 C 0.9737(3) 0.4033(2) 0.5653(4)
C14 C 0.9742(3) 0.5011(3) 0.4873(6)
H10 H 0.9400 0.4752 0.4348
O15 O 0.91152(23) 0.09763(17) 0.9219(3)
C1_2 C 0.8521(4) 0.0185(3) 0.3735(5)
H1_2 H 0.8628 0.0075 0.4474
O10_2 O 0.71128(25) 0.00473(18) 0.2035(3)
C11_2 C 0.7272(4) 0.0576(3) 0.2556(5)
H7_2 H 0.6940 0.0595 0.2978
C3_2 C 0.4309(4) 0.0012(3) 0.6553(6)
N1_2 N 0.4404(3) 0.0500(2) 0.7299(4)
C7_2 C 0.8665(4) 0.0490(3) 0.9791(5)
H4_2 H 0.8491 0.0084 0.9411
C15_2 C 0.4909(5) 0.0723(4) 0.8064(6)
H11_2 H 0.4991 0.1064 0.8591
C16_2 C 0.5324(5) 0.0440(4) 0.8079(6)
H12_2 H 0.5653 0.0580 0.8659
Co5_2 Co 0.37634(5) 0.09053(4) 0.73176(6)
Co1_2 Co 0.62366(5) 0.90947(4) 0.23176(6)
Co2_2 Co 0.76578(4) 0.96098(3) 0.14253(6)
Co3_2 Co 0.74271(4) 0.87527(3) 0.37232(6)
O1_2 O 0.61507(25) 0.90443(18) 0.0439(3)
O2_2 O 0.69127(21) 0.87791(15) 0.2268(3)
O5_2 O 0.80700(22) 0.97342(15) 0.3156(3)
H8_2 H 0.5289 0.7810 0.1849
H9_2 H 0.5224 0.7925 0.3129
O12_2 O 0.5417(3) 0.8114(2) 0.2451(4)
O13_2 O 0.62703(28) 0.9219(2) 0.4140(3)
O14_2 O 0.79365(28) 0.84288(23) 0.2474(3)
O15_2 O 0.81389(29) 0.91152(23) 0.0885(3)
O16_2 O 0.80694(31) 0.88508(25) 0.5083(3)
O17_2 O 0.67401(32) 0.78102(26) 0.4246(4)
O18_2 O 0.70396(24) 0.90790(18) 0.5049(3)
N2_2 N 0.5596(3) 0.9500(2) 0.2299(4)
O7_2 O 0.71748(25) 0.94205(18) 0.9752(3)
C2_2 C 0.6584(4) 0.9208(3) 0.5026(5)
H2_2 H 0.3955 0.9844 0.6024
C4_2 C 0.6618(4) 0.9287(3) 0.7346(5)
H3_2 H 0.6937 0.9163 0.7366
C5_2 C 0.6382(4) 0.9391(3) 0.8411(4)
C6_2 C 0.6599(3) 0.9275(2) 0.9624(4)
C8_2 C 0.5906(4) 0.9599(3) 0.8366(5)
H5_2 H 0.5728 0.9641 0.9087
C9_2 C 0.5926(4) 0.9594(3) 0.6203(5)
H6_2 H 0.5767 0.9650 0.5470
C10_2 C 0.6383(4) 0.9369(3) 0.6218(4)
C12_2 C 0.5254(4) 0.9982(3) 0.7291(5)
C13_2 C 0.5704(4) 0.9737(3) 0.7320(4)
C14_2 C 0.4731(4) 0.9742(3) 0.6540(6)
H10_2 H 0.4648 0.9400 0.6015
Co1_3 Co 0.71419(3) 0.62366(5) 0.39842(6)
Co2_3 Co 0.80480(3) 0.76578(4) 0.30919(6)
Co3_3 Co 0.86744(3) 0.74271(4) 0.53898(6)
O1_3 O 0.71064(17) 0.61507(25) 0.2105(3)
O2_3 O 0.81336(15) 0.69127(21) 0.3934(3)
O5_3 O 0.83358(16) 0.80700(22) 0.4822(3)
O7_3 O 0.77543(17) 0.71748(25) 0.1418(3)
C1_3 C 0.8336(3) 0.8521(4) 0.5401(5)
H1_3 H 0.8553 0.8628 0.6140
O10_3 O 0.70655(17) 0.71128(25) 0.3701(3)
C5_3 C 0.6991(2) 0.6382(4) 0.0077(4)
C6_3 C 0.7324(2) 0.6599(3) 0.1290(4)
C7_3 C 0.8175(3) 0.8665(4) 0.1457(5)
H4_3 H 0.8407 0.8491 0.1077
C8_3 C 0.6307(3) 0.5906(4) 0.0032(5)
H5_3 H 0.6087 0.5728 0.0753
C11_3 C 0.6696(3) 0.7272(4) 0.4222(5)
H7_3 H 0.6345 0.6940 0.4644
H8_3 H 0.7479 0.5289 0.3515
H9_3 H 0.7299 0.5224 0.4795
H11_3 H 0.3927 0.4991 0.0257
H12_3 H 0.5073 0.5653 0.0325
O12_3 O 0.7303(2) 0.5417(3) 0.4117(4)
O13_3 O 0.70513(19) 0.62703(28) 0.5806(3)
O14_3 O 0.95077(16) 0.79365(28) 0.4141(3)
O15_3 O 0.90237(17) 0.81389(29) 0.2552(3)
O16_3 O 0.92186(18) 0.80694(31) 0.6750(3)
O17_3 O 0.89299(19) 0.67401(32) 0.5913(4)
O18_3 O 0.79606(16) 0.70396(24) 0.6715(3)
N2_3 N 0.6096(2) 0.5596(3) 0.3965(4)
C2_3 C 0.7376(3) 0.6584(4) 0.6692(5)
C3_3 C 0.4297(3) 0.4309(4) 0.8219(6)
H2_3 H 0.4111 0.3955 0.7690
C4_3 C 0.7331(3) 0.6618(4) 0.9012(5)
H3_3 H 0.7774 0.6937 0.9032
N1_3 N 0.3904(2) 0.4404(3) 0.8965(4)
C9_3 C 0.6332(3) 0.5926(4) 0.7869(5)
H6_3 H 0.6117 0.5767 0.7136
C10_3 C 0.7014(2) 0.6383(4) 0.7884(4)
C12_3 C 0.5272(3) 0.5254(4) 0.8957(5)
C13_3 C 0.5967(2) 0.5704(4) 0.8986(4)
C14_3 C 0.4989(3) 0.4731(4) 0.8206(6)
H10_3 H 0.5248 0.4648 0.7681
C15_3 C 0.4186(3) 0.4909(5) 0.9730(6)
C16_3 C 0.4884(3) 0.5324(5) 0.9745(6)
Co5_3 Co 0.28581(3) 0.37634(5) 0.89842(6)
Co2_4 Co 0.03902(3) 0.80480(3) 0.47586(6)
Co3_4 Co 0.12473(3) 0.86744(3) 0.70565(6)
O1_4 O 0.09557(18) 0.71064(17) 0.3772(3)
O2_4 O 0.12209(15) 0.81336(15) 0.5601(3)
O5_4 O 0.02658(15) 0.83358(16) 0.6489(3)
O7_4 O 0.05795(18) 0.77543(17) 0.3085(3)
C4_4 C 0.0713(3) 0.7331(3) 0.0679(5)
H3_4 H 0.0837 0.7774 0.0699
C5_4 C 0.0609(3) 0.6991(2) 0.1744(4)
C6_4 C 0.0725(2) 0.7324(2) 0.2957(4)
C8_4 C 0.0401(3) 0.6307(3) 0.1699(5)
H5_4 H 0.0359 0.6087 0.2420
C12_4 C 0.0018(3) 0.5272(3) 0.0624(5)
C13_4 C 0.0263(3) 0.5967(2) 0.0653(4)
H8_4 H 0.2190 0.7479 0.5182
H9_4 H 0.2075 0.7299 0.6462
O12_4 O 0.1886(2) 0.7303(2) 0.5784(4)
O13_4 O 0.0781(2) 0.70513(19) 0.7473(3)
O14_4 O 0.15712(23) 0.95077(16) 0.5808(3)
O15_4 O 0.08848(23) 0.90237(17) 0.4219(3)
O16_4 O 0.11492(25) 0.92186(18) 0.8417(3)
O17_4 O 0.21898(26) 0.89299(19) 0.7580(4)
O18_4 O 0.09210(18) 0.79606(16) 0.8382(3)
C2_4 C 0.0792(3) 0.7376(3) 0.8359(5)
H2_4 H 0.0156 0.4111 0.9357
C9_4 C 0.0406(3) 0.6332(3) 0.9536(5)
H6_4 H 0.0350 0.6117 0.8803
C10_4 C 0.0631(3) 0.7014(2) 0.9551(4)
C14_4 C 0.0258(3) 0.4989(3) 0.9873(6)
H10_4 H 0.0600 0.5248 0.9348
C1_4 C 0.9815(3) 0.8336(3) 0.7068(5)
H1_4 H 0.9925 0.8553 0.7807
O10_4 O 0.99527(18) 0.70655(17) 0.5368(3)
C7_4 C 0.9510(3) 0.8175(3) 0.3124(5)
H4_4 H 0.9916 0.8407 0.2744
C11_4 C 0.9424(3) 0.6696(3) 0.5889(5)
H7_4 H 0.9405 0.6345 0.6311
C15_4 C 0.9277(4) 0.4186(3) 0.1397(6)
H11_4 H 0.8936 0.3927 0.1924
C16_4 C 0.9560(4) 0.4884(3) 0.1412(6)
H12_4 H 0.9420 0.5073 0.1992
O16_5 O 0.19306(31) 0.11492(25) 0.0083(3)
O18_5 O 0.29604(24) 0.09210(18) 0.0049(3)
Co2_5 Co 0.23422(4) 0.03902(3) 0.64253(6)
Co3_5 Co 0.25729(4) 0.12473(3) 0.87232(6)
O1_5 O 0.38493(25) 0.09557(18) 0.5439(3)
O2_5 O 0.30873(21) 0.12209(15) 0.7268(3)
O5_5 O 0.19300(22) 0.02658(15) 0.8156(3)
O7_5 O 0.28252(25) 0.05795(18) 0.4752(3)
C2_5 C 0.3416(4) 0.0792(3) 0.0026(5)
H2_5 H 0.6045 0.0156 0.1024
C4_5 C 0.3382(4) 0.0713(3) 0.2346(5)
H3_5 H 0.3063 0.0837 0.2366
C5_5 C 0.3618(4) 0.0609(3) 0.3411(4)
C6_5 C 0.3401(3) 0.0725(2) 0.4624(4)
C8_5 C 0.4094(4) 0.0401(3) 0.3366(5)
H5_5 H 0.4272 0.0359 0.4087
C9_5 C 0.4074(4) 0.0406(3) 0.1203(5)
H6_5 H 0.4233 0.0350 0.0470
C10_5 C 0.3617(4) 0.0631(3) 0.1218(4)
C12_5 C 0.4746(4) 0.0018(3) 0.2291(5)
C13_5 C 0.4296(4) 0.0263(3) 0.2320(4)
H8_5 H 0.4711 0.2190 0.6849
H9_5 H 0.4776 0.2075 0.8129
C14_5 C 0.5269(4) 0.0258(3) 0.1540(6)
H10_5 H 0.5352 0.0600 0.1015
O12_5 O 0.4583(3) 0.1886(2) 0.7451(4)
O13_5 O 0.37297(28) 0.0781(2) 0.9140(3)
O14_5 O 0.20635(28) 0.15712(23) 0.7474(3)
O15_5 O 0.18611(29) 0.08848(23) 0.5885(3)
O17_5 O 0.32599(32) 0.21898(26) 0.9246(4)
C1_5 C 0.1479(4) 0.9815(3) 0.8735(5)
H1_5 H 0.1372 0.9925 0.9474
C3_4 C 0.5691(4) 0.9988(3) 0.1553(6)
O10_5 O 0.28872(25) 0.99527(18) 0.7035(3)
C7_5 C 0.1335(4) 0.9510(3) 0.4791(5)
H4_5 H 0.1509 0.9916 0.4411
C11_5 C 0.2728(4) 0.9424(3) 0.7556(5)
H7_5 H 0.3060 0.9405 0.7978
C15_5 C 0.5091(5) 0.9277(4) 0.3064(6)
H11_5 H 0.5009 0.8936 0.3591
C16_5 C 0.4676(5) 0.9560(4) 0.3079(6)
H12_5 H 0.4347 0.9420 0.3659
C1_6 C 0.1664(3) 0.1479(4) 0.0401(5)
H1_6 H 0.1447 0.1372 0.1140
O13_6 O 0.29487(19) 0.37297(28) 0.0806(3)
O18_6 O 0.20394(16) 0.29604(24) 0.1715(3)
O1_6 O 0.28936(17) 0.38493(25) 0.7105(3)
O2_6 O 0.18664(15) 0.30873(21) 0.8934(3)
O5_6 O 0.16642(16) 0.19300(22) 0.9822(3)
O7_6 O 0.22457(17) 0.28252(25) 0.6418(3)
C2_6 C 0.2624(3) 0.3416(4) 0.1692(5)
C3_5 C 0.5703(3) 0.5691(4) 0.3219(6)
H2_6 H 0.5889 0.6045 0.2690
C4_6 C 0.2669(3) 0.3382(4) 0.4012(5)
H3_6 H 0.2226 0.3063 0.4032
O10_6 O 0.29345(17) 0.28872(25) 0.8701(3)
C5_6 C 0.3009(2) 0.3618(4) 0.5077(4)
C6_6 C 0.2676(2) 0.3401(3) 0.6290(4)
C7_6 C 0.1825(3) 0.1335(4) 0.6457(5)
H4_6 H 0.1593 0.1509 0.6077
C8_6 C 0.3693(3) 0.4094(4) 0.5032(5)
H5_6 H 0.3913 0.4272 0.5753
C9_6 C 0.3668(3) 0.4074(4) 0.2869(5)
H6_6 H 0.3883 0.4233 0.2136
C10_6 C 0.2986(2) 0.3617(4) 0.2884(4)
C11_6 C 0.3304(3) 0.2728(4) 0.9222(5)
H7_6 H 0.3655 0.3060 0.9644
C12_6 C 0.4728(3) 0.4746(4) 0.3957(5)
C13_6 C 0.4033(2) 0.4296(4) 0.3986(4)
H8_6 H 0.2521 0.4711 0.8515
H9_6 H 0.2701 0.4776 0.9795
C14_6 C 0.5011(3) 0.5269(4) 0.3206(6)
H10_6 H 0.4752 0.5352 0.2681
C15_6 C 0.5814(3) 0.5091(5) 0.4730(6)
H11_6 H 0.6073 0.5009 0.5257
C16_6 C 0.5116(3) 0.4676(5) 0.4745(6)
H12_6 H 0.4927 0.4347 0.5325
O12_6 O 0.2697(2) 0.4583(3) 0.9117(4)
C3_6 C 0.9988(3) 0.4297(3) 0.9886(6)
loop_
_geom_bond_atom_site_label_1
_geom_bond_atom_site_label_2
_geom_bond_site_symmetry_1
_geom_bond_site_symmetry_2
O8 C1 1_555 1_555
H1 C1 1_555 1_555
O9 C11 1_555 1_555
C11 O10 1_555 1_555
H7 C11 1_555 1_555
O8 Co7 1_555 1_555
O9 Co7 1_555 1_555
O6 C7 1_555 1_555
N1 C3 1_555 1_555
C7 O4 1_555 1_555
H4 C7 1_555 1_555
C15 N1 1_555 1_555
H11 C15 1_555 1_555
H12 C16 1_555 1_555
Co5 N1 1_555 1_555
Co6 O6 1_555 1_555
C15 C16 1_555 1_555
Co3 O2 1_555 1_555
O2 Co1 1_555 1_555
H8 O12 1_555 1_555
H9 O12 1_555 1_555
O12 Co1 1_555 1_555
O13 Co1 1_555 1_555
O14 Co3 1_555 1_555
O16 Co3 1_555 1_555
O17 Co3 1_555 1_555
O18 Co3 1_555 1_555
N2 Co1 1_555 1_555
Co3 O5 1_555 1_555
O1 C6 1_555 1_555
O13 C2 1_555 1_555
O7 Co2 1_555 1_555
C2 O18 1_555 1_555
C4 H3 1_555 1_555
C5 C4 1_555 1_555
C6 O7 1_555 1_555
C8 C5 1_555 1_555
H5 C8 1_555 1_555
C9 H6 1_555 1_555
C10 C2 1_555 1_555
C12 C13 1_555 1_555
C13 C8 1_555 1_555
H10 C14 1_555 1_555
O15 Co2 1_555 1_555
C4 C10 1_555 1_555
C5 C6 1_555 1_555
C9 C10 1_555 1_555
C9 C13 1_555 1_555
C12 C14 1_555 1_555
O16 C1_2 1_555 1_555
H1_2 C1_2 1_555 1_555
O17 C11_2 1_555 1_555
C11_2 O10_2 1_555 1_555
H7_2 C11_2 1_555 1_555
O15 C7_2 1_555 1_555
N1_2 C3_2 1_555 1_555
H4_2 C7_2 1_555 1_555
C15_2 N1_2 1_555 1_555
H11_2 C15_2 1_555 1_555
H12_2 C16_2 1_555 1_555
Co5_2 N1_2 1_555 1_555
C15_2 C16_2 1_555 1_555
Co1_2 O1_2 1_555 1_555
Co2_2 O2_2 1_555 1_555
Co3_2 O2_2 1_555 1_555
O2_2 Co1_2 1_555 1_555
O5_2 Co2_2 1_555 1_555
H8_2 O12_2 1_555 1_555
H9_2 O12_2 1_555 1_555
O12_2 Co1_2 1_555 1_555
O13_2 Co1_2 1_555 1_555
O14_2 Co3_2 1_555 1_555
O15_2 Co2_2 1_555 1_555
O16_2 Co3_2 1_555 1_555
O17_2 Co3_2 1_555 1_555
O18_2 Co3_2 1_555 1_555
N2_2 Co1_2 1_555 1_555
Co3_2 O5_2 1_555 1_555
O13_2 C2_2 1_555 1_555
C2_2 O18_2 1_555 1_555
C4_2 H3_2 1_555 1_555
C5_2 C4_2 1_555 1_555
C6_2 O7_2 1_555 1_555
C8_2 C5_2 1_555 1_555
H5_2 C8_2 1_555 1_555
C9_2 H6_2 1_555 1_555
C10_2 C2_2 1_555 1_555
C12_2 C13_2 1_555 1_555
C13_2 C8_2 1_555 1_555
H10_2 C14_2 1_555 1_555
C4_2 C10_2 1_555 1_555
C5_2 C6_2 1_555 1_555
C9_2 C10_2 1_555 1_555
C9_2 C13_2 1_555 1_555
C12_2 C14_2 1_555 1_555
Co1_3 O1_3 1_555 1_555
Co2_3 O2_3 1_555 1_555
Co3_3 O2_3 1_555 1_555
O1_3 C6_3 1_555 1_555
O2_3 Co1_3 1_555 1_555
O14_2 Co2_3 1_555 1_555
O5_3 Co2_3 1_555 1_555
O15_2 C7_3 1_555 1_555
O7_3 Co2_3 1_555 1_555
O16_2 C1_3 1_555 1_555
C1_3 O5_3 1_555 1_555
H1_3 C1_3 1_555 1_555
O17_2 C11_3 1_555 1_555
O10_3 Co1_3 1_555 1_555
C6_3 O7_3 1_555 1_555
C7_3 O14_2 1_555 1_555
H4_3 C7_3 1_555 1_555
C8_3 C5_3 1_555 1_555
H5_3 C8_3 1_555 1_555
C11_3 O10_3 1_555 1_555
H7_3 C11_3 1_555 1_555
H8_3 O12_3 1_555 1_555
H9_3 O12_3 1_555 1_555
O12_3 Co1_3 1_555 1_555
O13_3 Co1_3 1_555 1_555
O14_3 Co3_3 1_555 1_555
O15_3 Co2_3 1_555 1_555
O16_3 Co3_3 1_555 1_555
O17_3 Co3_3 1_555 1_555
O18_3 Co3_3 1_555 1_555
N2_3 Co1_3 1_555 1_555
Co2_3 O10_3 1_555 1_555
Co3_3 O5_3 1_555 1_555
C5_3 C6_3 1_555 1_555
O13_3 C2_3 1_555 1_555
C2_3 O18_3 1_555 1_555
C3_3 H2_3 1_555 1_555
C4_3 H3_3 1_555 1_555
N1_3 C3_3 1_555 1_555
C9_3 H6_3 1_555 1_555
C10_3 C2_3 1_555 1_555
C12_3 C13_3 1_555 1_555
C14_3 C3_3 1_555 1_555
H10_3 C14_3 1_555 1_555
C15_3 N1_3 1_555 1_555
C16_3 C12_3 1_555 1_555
Co5_3 N1_3 1_555 1_555
C4_3 C10_3 1_555 1_555
C9_3 C10_3 1_555 1_555
C9_3 C13_3 1_555 1_555
C12_3 C14_3 1_555 1_555
C15_3 C16_3 1_555 1_555
Co5 O1_4 1_555 1_555
Co2_4 O2_4 1_555 1_555
Co3_4 O2_4 1_555 1_555
O1_4 C6_4 1_555 1_555
O2_4 Co5 1_555 1_555
O5_4 Co2_4 1_555 1_555
O7_4 Co2_4 1_555 1_555
C4_4 H3_4 1_555 1_555
C5_4 C4_4 1_555 1_555
C6_4 O7_4 1_555 1_555
C8_4 C5_4 1_555 1_555
H5_4 C8_4 1_555 1_555
C12_4 C13_4 1_555 1_555
C13_4 C8_4 1_555 1_555
H8_4 O12_4 1_555 1_555
H9_4 O12_4 1_555 1_555
O12_4 Co5 1_555 1_555
O13_4 Co5 1_555 1_555
O14_4 Co3_4 1_555 1_555
O15_4 Co2_4 1_555 1_555
O16_4 Co3_4 1_555 1_555
O17_4 Co3_4 1_555 1_555
O18_4 Co3_4 1_555 1_555
Co3_4 O5_4 1_555 1_555
C5_4 C6_4 1_555 1_555
O13_4 C2_4 1_555 1_555
C2_4 O18_4 1_555 1_555
C9_4 H6_4 1_555 1_555
C10_4 C2_4 1_555 1_555
H10_4 C14_4 1_555 1_555
C9_4 C10_4 1_555 1_555
O15_3 C7_4 1_555 1_555
O16_3 C1_4 1_555 1_555
H1_4 C1_4 1_555 1_555
O17_3 C11_4 1_555 1_555
C7_4 O14_3 1_555 1_555
H4_4 C7_4 1_555 1_555
C11_4 O10_4 1_555 1_555
H7_4 C11_4 1_555 1_555
C15_4 N2 1_555 1_555
H11_4 C15_4 1_555 1_555
H12_4 C16_4 1_555 1_555
C15_4 C16_4 1_555 1_555
Co5_2 O1_5 1_555 1_555
Co2_5 O2_5 1_555 1_555
Co3_5 O2_5 1_555 1_555
O1_5 C6_5 1_555 1_555
O2_5 Co5_2 1_555 1_555
O5_5 Co2_5 1_555 1_555
O7_5 Co2_5 1_555 1_555
C2_5 O18_5 1_555 1_555
C4_5 H3_5 1_555 1_555
C5_5 C4_5 1_555 1_555
C6_5 O7_5 1_555 1_555
C8_5 C5_5 1_555 1_555
H5_5 C8_5 1_555 1_555
C9_5 H6_5 1_555 1_555
C10_5 C2_5 1_555 1_555
C12_5 C13_5 1_555 1_555
C13_5 C8_5 1_555 1_555
H8_5 O12_5 1_555 1_555
H9_5 O12_5 1_555 1_555
H10_5 C14_5 1_555 1_555
O12_5 Co5_2 1_555 1_555
O13_5 Co5_2 1_555 1_555
O14_5 Co3_5 1_555 1_555
O15_5 Co2_5 1_555 1_555
O17_5 Co3_5 1_555 1_555
Co3_5 O5_5 1_555 1_555
C4_5 C10_5 1_555 1_555
C5_5 C6_5 1_555 1_555
C9_5 C10_5 1_555 1_555
C9_5 C13_5 1_555 1_555
C12_5 C14_5 1_555 1_555
O15_4 C7_5 1_555 1_555
O16_4 C1_5 1_555 1_555
H1_5 C1_5 1_555 1_555
O17_4 C11_5 1_555 1_555
N2_2 C3_4 1_555 1_555
C7_5 O14_4 1_555 1_555
H4_5 C7_5 1_555 1_555
C11_5 O10_5 1_555 1_555
H7_5 C11_5 1_555 1_555
C15_5 N2_2 1_555 1_555
H11_5 C15_5 1_555 1_555
H12_5 C16_5 1_555 1_555
C15_5 C16_5 1_555 1_555
O16_5 C1_6 1_555 1_555
H1_6 C1_6 1_555 1_555
O18_6 Co7 1_555 1_555
Co5_3 O1_6 1_555 1_555
Co6 O2_6 1_555 1_555
O1_6 C6_6 1_555 1_555
O2_6 Co5_3 1_555 1_555
O13_6 C2_6 1_555 1_555
O14_5 Co6 1_555 1_555
O5_6 Co6 1_555 1_555
O15_5 C7_6 1_555 1_555
O7_6 Co6 1_555 1_555
C2_6 O18_6 1_555 1_555
O17_5 C11_6 1_555 1_555
C3_5 H2_6 1_555 1_555
C4_6 H3_6 1_555 1_555
O10_6 Co5_3 1_555 1_555
C5_6 C4_6 1_555 1_555
C6_6 O7_6 1_555 1_555
N2_3 C3_5 1_555 1_555
C7_6 O14_5 1_555 1_555
H4_6 C7_6 1_555 1_555
C8_6 C5_6 1_555 1_555
H5_6 C8_6 1_555 1_555
C9_6 H6_6 1_555 1_555
C10_6 C2_6 1_555 1_555
C11_6 O10_6 1_555 1_555
H7_6 C11_6 1_555 1_555
C12_6 C13_6 1_555 1_555
C13_6 C8_6 1_555 1_555
H8_6 O12_6 1_555 1_555
H9_6 O12_6 1_555 1_555
C14_6 C3_5 1_555 1_555
H10_6 C14_6 1_555 1_555
C15_6 N2_3 1_555 1_555
H11_6 C15_6 1_555 1_555
C16_6 C12_6 1_555 1_555
H12_6 C16_6 1_555 1_555
O12_6 Co5_3 1_555 1_555
Co6 O10_6 1_555 1_555
C4_6 C10_6 1_555 1_555
C5_6 C6_6 1_555 1_555
C9_6 C10_6 1_555 1_555
C9_6 C13_6 1_555 1_555
C12_6 C14_6 1_555 1_555
C15_6 C16_6 1_555 1_555

#END
