
###############################################################################
#
# This file contains modified crystal structure data generated from the
# MOF subset of the Cambridge Structural Database (CSD) v543 
# hosted by the Cambridge Crystallographic Data Centre (CCDC).
#
# This work is licensed under the Creative Commons
# Attribution-NonCommercial-ShareAlike 4.0 International License.
# To view a copy of this license, visit
# http://creativecommons.org/licenses/by-nc-sa/4.0/
# or send a letter to
# Creative Commons, PO Box 1866, Mountain View, CA 94042, USA.
#
# CIF created using the CSD Python API on 29 September 2022
# The structure has been converted into the P1 space group
# The structure has a 3D framework
# The original CSD entry CAPYIF is in the orthorhombic crystal system
# The framework has been calculated to contain at least 10.0% void space
# The void calculation uses a probe of radius 1.32A, grid spacing 0.4
#
###############################################################################

data_CAPYIF
_chemical_formula_moiety         '(C160 H80 Co8 N8 Na4 O52)n'
_symmetry_cell_setting           triclinic
_symmetry_space_group_name_H-M   'P 1'
_symmetry_Int_Tables_number      1
_space_group_name_Hall           'P 1'
loop_
_symmetry_equiv_pos_site_id
_symmetry_equiv_pos_as_xyz
1 x,y,z
_cell_length_a                   27.1599(10)
_cell_length_b                   26.0222(8)
_cell_length_c                   6.0047(2)
_cell_angle_alpha                90
_cell_angle_beta                 90
_cell_angle_gamma                90
_cell_volume                     4243.88
loop_
_atom_site_label
_atom_site_type_symbol
_atom_site_fract_x
_atom_site_fract_y
_atom_site_fract_z
O4 O 0.5790(2) 0.2854(3) 0.2899(15)
O5 O 0.3381(3) 0.2531(3) 0.1137(13)
C3 C 0.4864(3) 0.3042(4) 0.1034(18)
H1 H 0.4874 0.2911 0.2475
C6 C 0.5766(4) 0.2897(4) 0.0882(18)
C14 C 0.4428(3) 0.3204(4) 0.015(2)
H5 H 0.4142 0.3186 0.0991
Co3 Co 0.65247(5) 0.25980(5) 0.2672(3)
Na4 Na 0.28104(16) 0.18591(17) 0.2116(8)
Co1 Co 0.34753(5) 0.24020(5) 0.7672(3)
O1 O 0.3225(3) 0.6657(2) 0.3481(12)
O2 O 0.2262(2) 0.3244(2) 0.6376(12)
O3 O 0.2776(2) 0.2585(2) 0.6829(15)
N1 N 0.3543(2) 0.3240(3) 0.7087(14)
O6 O 0.2880(3) 0.6379(2) 0.0381(14)
O7 O 0.6136(3) 0.2783(3) 0.9652(15)
C1 C 0.5301(3) 0.3074(3) 0.976(2)
C2 C 0.3098(3) 0.6314(3) 0.2190(18)
C4 C 0.4409(3) 0.3394(3) 0.8007(17)
C5 C 0.2678(3) 0.3065(3) 0.6545(15)
C7 C 0.3111(3) 0.3416(3) 0.6382(18)
C8 C 0.3197(3) 0.5770(3) 0.296(2)
C9 C 0.3090(4) 0.4856(4) 0.260(2)
H2 H 0.2953 0.4578 0.1851
C10 C 0.3928(3) 0.3571(3) 0.7033(18)
C11 C 0.3440(3) 0.4244(4) 0.538(2)
C12 C 0.4844(4) 0.3437(4) 0.674(2)
H3 H 0.4837 0.3582 0.5329
C13 C 0.5281(3) 0.3260(4) 0.764(2)
H4 H 0.5566 0.3268 0.6789
C15 C 0.3369(4) 0.4767(4) 0.448(2)
C16 C 0.3009(4) 0.5350(4) 0.180(3)
H6 H 0.2830 0.5400 0.0497
C17 C 0.3890(3) 0.4066(4) 0.617(2)
H7 H 0.4166 0.4278 0.6128
C18 C 0.3043(3) 0.3901(3) 0.548(2)
H8 H 0.2735 0.3998 0.4936
C19 C 0.3476(5) 0.5678(4) 0.486(3)
H9 H 0.3604 0.5956 0.5644
C20 C 0.3568(5) 0.5191(4) 0.562(3)
H10 H 0.3761 0.5141 0.6878
Co2 Co 0.34753(5) 0.74020(5) 0.2672(3)
O9 O 0.3225(3) 0.1657(2) 0.8481(12)
O12 O 0.4210(2) 0.2146(3) 0.7899(15)
O15 O 0.3864(3) 0.2217(3) 0.4652(15)
Na2 Na 0.28104(16) 0.68591(17) 0.7116(8)
Na3 Na 0.21896(16) 0.18591(17) 0.7116(8)
Na5 Na 0.21896(16) 0.68591(17) 0.2116(8)
O10 O 0.1775(3) 0.6657(2) 0.8481(12)
O11 O 0.2224(2) 0.7585(2) 0.6829(15)
O13 O 0.3381(3) 0.7531(3) 0.6137(13)
O14 O 0.2120(3) 0.6379(2) 0.5381(14)
O4_2 O 0.4210(2) 0.7146(3) 0.2899(15)
O5_2 O 0.6619(3) 0.7469(3) 0.1137(13)
C3_2 C 0.5136(3) 0.6958(4) 0.1034(18)
H1_2 H 0.5126 0.7089 0.2475
C6_2 C 0.4234(4) 0.7103(4) 0.0882(18)
C14_2 C 0.5572(3) 0.6796(4) 0.015(2)
H5_2 H 0.5858 0.6814 0.0991
Na4_2 Na 0.71896(16) 0.81409(17) 0.2116(8)
Co1_2 Co 0.65247(5) 0.75980(5) 0.7672(3)
O1_2 O 0.6775(3) 0.3343(2) 0.3481(12)
O2_2 O 0.7738(2) 0.6756(2) 0.6376(12)
O3_2 O 0.7224(2) 0.7415(2) 0.6829(15)
N1_2 N 0.6457(2) 0.6760(3) 0.7087(14)
O6_2 O 0.7120(3) 0.3621(2) 0.0381(14)
O7_2 O 0.3864(3) 0.7217(3) 0.9652(15)
C1_2 C 0.4699(3) 0.6926(3) 0.976(2)
C2_2 C 0.6902(3) 0.3686(3) 0.2190(18)
C4_2 C 0.5591(3) 0.6606(3) 0.8007(17)
C5_2 C 0.7322(3) 0.6935(3) 0.6545(15)
C7_2 C 0.6889(3) 0.6584(3) 0.6382(18)
C8_2 C 0.6803(3) 0.4230(3) 0.296(2)
C9_2 C 0.6910(4) 0.5144(4) 0.260(2)
H2_2 H 0.7047 0.5422 0.1851
C10_2 C 0.6072(3) 0.6429(3) 0.7033(18)
C11_2 C 0.6560(3) 0.5756(4) 0.538(2)
C12_2 C 0.5156(4) 0.6563(4) 0.674(2)
H3_2 H 0.5163 0.6418 0.5329
C13_2 C 0.4719(3) 0.6740(4) 0.764(2)
H4_2 H 0.4434 0.6732 0.6789
C15_2 C 0.6631(4) 0.5233(4) 0.448(2)
C16_2 C 0.6991(4) 0.4650(4) 0.180(3)
H6_2 H 0.7170 0.4600 0.0497
C17_2 C 0.6110(3) 0.5934(4) 0.617(2)
H7_2 H 0.5834 0.5722 0.6128
C18_2 C 0.6957(3) 0.6099(3) 0.548(2)
H8_2 H 0.7265 0.6002 0.4936
C19_2 C 0.6524(5) 0.4322(4) 0.486(3)
H9_2 H 0.6396 0.4044 0.5644
C20_2 C 0.6432(5) 0.4809(4) 0.562(3)
H10_2 H 0.6239 0.4859 0.6878
O9_2 O 0.6775(3) 0.8343(2) 0.8481(12)
O12_2 O 0.5790(2) 0.7854(3) 0.7899(15)
O15_2 O 0.6136(3) 0.7783(3) 0.4652(15)
Na2_2 Na 0.71896(16) 0.31409(17) 0.7116(8)
Na3_2 Na 0.78104(16) 0.81409(17) 0.7116(8)
Na5_2 Na 0.78104(16) 0.31409(17) 0.2116(8)
O10_2 O 0.8225(3) 0.3343(2) 0.8481(12)
O11_2 O 0.7776(2) 0.2415(2) 0.6829(15)
O13_2 O 0.6619(3) 0.2469(3) 0.6137(13)
O14_2 O 0.7880(3) 0.3621(2) 0.5381(14)
O4_3 O 0.0790(2) 0.2146(3) 0.2899(15)
C6_3 C 0.0766(4) 0.2103(4) 0.0882(18)
Co3_2 Co 0.15247(5) 0.24020(5) 0.2672(3)
O7_3 O 0.1136(3) 0.2217(3) 0.9652(15)
C1_3 C 0.0301(3) 0.1926(3) 0.976(2)
C13_3 C 0.0281(3) 0.1740(4) 0.764(2)
H4_3 H 0.0566 0.1732 0.6789
O5_3 O 0.8381(3) 0.2469(3) 0.1137(13)
C3_3 C 0.9864(3) 0.1958(4) 0.1034(18)
H1_3 H 0.9874 0.2089 0.2475
C14_3 C 0.9428(3) 0.1796(4) 0.015(2)
H5_3 H 0.9142 0.1814 0.0991
Co1_3 Co 0.84753(5) 0.25980(5) 0.7672(3)
O2_3 O 0.7262(2) 0.1756(2) 0.6376(12)
N1_3 N 0.8543(2) 0.1760(3) 0.7087(14)
C4_3 C 0.9409(3) 0.1606(3) 0.8007(17)
C5_3 C 0.7678(3) 0.1935(3) 0.6545(15)
C7_3 C 0.8111(3) 0.1584(3) 0.6382(18)
C9_3 C 0.8090(4) 0.0144(4) 0.260(2)
H2_3 H 0.7953 0.0422 0.1851
C10_3 C 0.8928(3) 0.1429(3) 0.7033(18)
C11_3 C 0.8440(3) 0.0756(4) 0.538(2)
C12_3 C 0.9844(4) 0.1563(4) 0.674(2)
H3_3 H 0.9837 0.1418 0.5329
C15_3 C 0.8369(4) 0.0233(4) 0.448(2)
C17_3 C 0.8890(3) 0.0934(4) 0.617(2)
H7_3 H 0.9166 0.0722 0.6128
C18_3 C 0.8043(3) 0.1099(3) 0.548(2)
H8_3 H 0.7735 0.1002 0.4936
O12_3 O 0.9210(2) 0.2854(3) 0.7899(15)
O15_3 O 0.8864(3) 0.2783(3) 0.4652(15)
O1_3 O 0.8225(3) 0.8343(2) 0.3481(12)
O6_3 O 0.7880(3) 0.8621(2) 0.0381(14)
C2_3 C 0.8098(3) 0.8686(3) 0.2190(18)
C8_3 C 0.8197(3) 0.9230(3) 0.296(2)
C16_3 C 0.8009(4) 0.9650(4) 0.180(3)
H6_3 H 0.7830 0.9600 0.0497
C19_3 C 0.8476(5) 0.9322(4) 0.486(3)
H9_3 H 0.8604 0.9044 0.5644
C20_3 C 0.8568(5) 0.9809(4) 0.562(3)
H10_3 H 0.8761 0.9859 0.6878
Co2_2 Co 0.84753(5) 0.75980(5) 0.2672(3)
O13_3 O 0.8381(3) 0.7469(3) 0.6137(13)
O14_3 O 0.7120(3) 0.8621(2) 0.5381(14)
O1_4 O 0.1775(3) 0.1657(2) 0.3481(12)
O6_4 O 0.2120(3) 0.1379(2) 0.0381(14)
C2_4 C 0.1902(3) 0.1314(3) 0.2190(18)
C8_4 C 0.1803(3) 0.0770(3) 0.296(2)
C16_4 C 0.1991(4) 0.0350(4) 0.180(3)
H6_4 H 0.2170 0.0400 0.0497
C19_4 C 0.1524(5) 0.0678(4) 0.486(3)
H9_4 H 0.1396 0.0956 0.5644
C20_4 C 0.1432(5) 0.0191(4) 0.562(3)
H10_4 H 0.1239 0.0141 0.6878
O13_4 O 0.1619(3) 0.2531(3) 0.6137(13)
O14_4 O 0.2880(3) 0.1379(2) 0.5381(14)
O5_4 O 0.1619(3) 0.7531(3) 0.1137(13)
C3_4 C 0.0136(3) 0.8042(4) 0.1034(18)
H1_4 H 0.0126 0.7911 0.2475
C14_4 C 0.0572(3) 0.8204(4) 0.015(2)
H5_4 H 0.0858 0.8186 0.0991
Co1_4 Co 0.15247(5) 0.74020(5) 0.7672(3)
O2_4 O 0.2738(2) 0.8244(2) 0.6376(12)
N1_4 N 0.1457(2) 0.8240(3) 0.7087(14)
C4_4 C 0.0591(3) 0.8394(3) 0.8007(17)
C5_4 C 0.2322(3) 0.8065(3) 0.6545(15)
C7_4 C 0.1889(3) 0.8416(3) 0.6382(18)
C9_4 C 0.1910(4) 0.9856(4) 0.260(2)
H2_4 H 0.2047 0.9578 0.1851
C10_4 C 0.1072(3) 0.8571(3) 0.7033(18)
C11_4 C 0.1560(3) 0.9244(4) 0.538(2)
C12_4 C 0.0156(4) 0.8437(4) 0.674(2)
H3_4 H 0.0163 0.8582 0.5329
C15_4 C 0.1631(4) 0.9767(4) 0.448(2)
C17_4 C 0.1110(3) 0.9066(4) 0.617(2)
H7_4 H 0.0834 0.9278 0.6128
C18_4 C 0.1957(3) 0.8901(3) 0.548(2)
H8_4 H 0.2265 0.8998 0.4936
O12_4 O 0.0790(2) 0.7146(3) 0.7899(15)
O15_4 O 0.1136(3) 0.7217(3) 0.4652(15)
O4_4 O 0.9210(2) 0.7854(3) 0.2899(15)
C6_4 C 0.9234(4) 0.7897(4) 0.0882(18)
O7_4 O 0.8864(3) 0.7783(3) 0.9652(15)
C1_4 C 0.9699(3) 0.8074(3) 0.976(2)
C13_4 C 0.9719(3) 0.8260(4) 0.764(2)
H4_4 H 0.9434 0.8268 0.6789
H9_5 H 0.3604 0.0956 0.0644
C20_5 C 0.3568(5) 0.0191(4) 0.062(3)
H10_5 H 0.3761 0.0141 0.1878
C2_5 C 0.3098(3) 0.1314(3) 0.7190(18)
C8_5 C 0.3197(3) 0.0770(3) 0.796(2)
C16_5 C 0.3009(4) 0.0350(4) 0.680(3)
H6_5 H 0.2830 0.0400 0.5497
C19_5 C 0.3476(5) 0.0678(4) 0.986(3)
O11_3 O 0.2224(2) 0.2585(2) 0.1829(15)
O2_5 O 0.2262(2) 0.8244(2) 0.1376(12)
O3_3 O 0.2776(2) 0.7585(2) 0.1829(15)
N1_5 N 0.3543(2) 0.8240(3) 0.2087(14)
C1_5 C 0.5301(3) 0.8074(3) 0.476(2)
C3_5 C 0.4864(3) 0.8042(4) 0.6034(18)
H1_5 H 0.4874 0.7911 0.7475
C4_5 C 0.4409(3) 0.8394(3) 0.3007(17)
C5_5 C 0.2678(3) 0.8065(3) 0.1545(15)
C6_5 C 0.5766(4) 0.7897(4) 0.5882(18)
C7_5 C 0.3111(3) 0.8416(3) 0.1382(18)
C10_5 C 0.3928(3) 0.8571(3) 0.2033(18)
C11_5 C 0.3440(3) 0.9244(4) 0.038(2)
C12_5 C 0.4844(4) 0.8437(4) 0.174(2)
H3_5 H 0.4837 0.8582 0.0329
C13_5 C 0.5281(3) 0.8260(4) 0.264(2)
H4_5 H 0.5566 0.8268 0.1789
C14_5 C 0.4428(3) 0.8204(4) 0.515(2)
H5_5 H 0.4142 0.8186 0.5991
C17_5 C 0.3890(3) 0.9066(4) 0.117(2)
H7_5 H 0.4166 0.9278 0.1128
C18_5 C 0.3043(3) 0.8901(3) 0.048(2)
C9_5 C 0.3090(4) 0.9856(4) 0.760(2)
H2_5 H 0.2953 0.9578 0.6851
C15_5 C 0.3369(4) 0.9767(4) 0.948(2)
H8_5 H 0.2735 0.8998 0.9936
O2_6 O 0.7738(2) 0.1756(2) 0.1376(12)
O3_4 O 0.7224(2) 0.2415(2) 0.1829(15)
N1_6 N 0.6457(2) 0.1760(3) 0.2087(14)
C1_6 C 0.4699(3) 0.1926(3) 0.476(2)
C3_6 C 0.5136(3) 0.1958(4) 0.6034(18)
H1_6 H 0.5126 0.2089 0.7475
C4_6 C 0.5591(3) 0.1606(3) 0.3007(17)
C5_6 C 0.7322(3) 0.1935(3) 0.1545(15)
C6_6 C 0.4234(4) 0.2103(4) 0.5882(18)
C7_6 C 0.6889(3) 0.1584(3) 0.1382(18)
C10_6 C 0.6072(3) 0.1429(3) 0.2033(18)
C11_6 C 0.6560(3) 0.0756(4) 0.038(2)
C12_6 C 0.5156(4) 0.1563(4) 0.174(2)
H3_6 H 0.5163 0.1418 0.0329
C13_6 C 0.4719(3) 0.1740(4) 0.264(2)
H4_6 H 0.4434 0.1732 0.1789
C14_6 C 0.5572(3) 0.1796(4) 0.515(2)
H5_6 H 0.5858 0.1814 0.5991
C17_6 C 0.6110(3) 0.0934(4) 0.117(2)
H7_6 H 0.5834 0.0722 0.1128
C18_6 C 0.6957(3) 0.1099(3) 0.048(2)
C9_6 C 0.6910(4) 0.0144(4) 0.760(2)
H2_6 H 0.7047 0.0422 0.6851
C15_6 C 0.6631(4) 0.0233(4) 0.948(2)
H8_6 H 0.7265 0.1002 0.9936
H9_6 H 0.6396 0.9044 0.0644
C20_6 C 0.6432(5) 0.9809(4) 0.062(3)
H10_6 H 0.6239 0.9859 0.1878
C2_6 C 0.6902(3) 0.8686(3) 0.7190(18)
C8_6 C 0.6803(3) 0.9230(3) 0.796(2)
C16_6 C 0.6991(4) 0.9650(4) 0.680(3)
H6_6 H 0.7170 0.9600 0.5497
C19_6 C 0.6524(5) 0.9322(4) 0.986(3)
O11_4 O 0.7776(2) 0.7415(2) 0.1829(15)
C1_7 C 0.0301(3) 0.6926(3) 0.476(2)
C6_7 C 0.0766(4) 0.7103(4) 0.5882(18)
C13_7 C 0.0281(3) 0.6740(4) 0.264(2)
H4_7 H 0.0566 0.6732 0.1789
O2_7 O 0.7262(2) 0.6756(2) 0.1376(12)
N1_7 N 0.8543(2) 0.6760(3) 0.2087(14)
C3_7 C 0.9864(3) 0.6958(4) 0.6034(18)
H1_7 H 0.9874 0.7089 0.7475
C4_7 C 0.9409(3) 0.6606(3) 0.3007(17)
C5_7 C 0.7678(3) 0.6935(3) 0.1545(15)
C7_7 C 0.8111(3) 0.6584(3) 0.1382(18)
C10_7 C 0.8928(3) 0.6429(3) 0.2033(18)
C11_7 C 0.8440(3) 0.5756(4) 0.038(2)
C12_7 C 0.9844(4) 0.6563(4) 0.174(2)
H3_7 H 0.9837 0.6418 0.0329
C14_7 C 0.9428(3) 0.6796(4) 0.515(2)
H5_7 H 0.9142 0.6814 0.5991
C17_7 C 0.8890(3) 0.5934(4) 0.117(2)
H7_7 H 0.9166 0.5722 0.1128
C18_7 C 0.8043(3) 0.6099(3) 0.048(2)
H9_7 H 0.8604 0.4044 0.0644
C20_7 C 0.8568(5) 0.4809(4) 0.062(3)
H10_7 H 0.8761 0.4859 0.1878
C2_7 C 0.8098(3) 0.3686(3) 0.7190(18)
C8_7 C 0.8197(3) 0.4230(3) 0.796(2)
C9_7 C 0.8090(4) 0.5144(4) 0.760(2)
H2_7 H 0.7953 0.5422 0.6851
C15_7 C 0.8369(4) 0.5233(4) 0.948(2)
C16_7 C 0.8009(4) 0.4650(4) 0.680(3)
H6_7 H 0.7830 0.4600 0.5497
H8_7 H 0.7735 0.6002 0.9936
C19_7 C 0.8476(5) 0.4322(4) 0.986(3)
O2_8 O 0.2738(2) 0.3244(2) 0.1376(12)
N1_8 N 0.1457(2) 0.3240(3) 0.2087(14)
C3_8 C 0.0136(3) 0.3042(4) 0.6034(18)
H1_8 H 0.0126 0.2911 0.7475
C4_8 C 0.0591(3) 0.3394(3) 0.3007(17)
C5_8 C 0.2322(3) 0.3065(3) 0.1545(15)
C7_8 C 0.1889(3) 0.3416(3) 0.1382(18)
C10_8 C 0.1072(3) 0.3571(3) 0.2033(18)
C11_8 C 0.1560(3) 0.4244(4) 0.038(2)
C12_8 C 0.0156(4) 0.3437(4) 0.174(2)
H3_8 H 0.0163 0.3582 0.0329
C14_8 C 0.0572(3) 0.3204(4) 0.515(2)
H5_8 H 0.0858 0.3186 0.5991
C17_8 C 0.1110(3) 0.4066(4) 0.117(2)
H7_8 H 0.0834 0.4278 0.1128
C18_8 C 0.1957(3) 0.3901(3) 0.048(2)
H9_8 H 0.1396 0.5956 0.0644
C20_8 C 0.1432(5) 0.5191(4) 0.062(3)
H10_8 H 0.1239 0.5141 0.1878
C2_8 C 0.1902(3) 0.6314(3) 0.7190(18)
C8_8 C 0.1803(3) 0.5770(3) 0.796(2)
C9_8 C 0.1910(4) 0.4856(4) 0.760(2)
H2_8 H 0.2047 0.4578 0.6851
C15_8 C 0.1631(4) 0.4767(4) 0.948(2)
C16_8 C 0.1991(4) 0.5350(4) 0.680(3)
H6_8 H 0.2170 0.5400 0.5497
H8_8 H 0.2265 0.3998 0.9936
C19_8 C 0.1524(5) 0.5678(4) 0.986(3)
C1_8 C 0.9699(3) 0.3074(3) 0.476(2)
C6_8 C 0.9234(4) 0.2897(4) 0.5882(18)
C13_8 C 0.9719(3) 0.3260(4) 0.264(2)
H4_8 H 0.9434 0.3268 0.1789
loop_
_geom_bond_atom_site_label_1
_geom_bond_atom_site_label_2
_geom_bond_site_symmetry_1
_geom_bond_site_symmetry_2
O4 C6 1_555 1_555
C3 H1 1_555 1_555
C14 C3 1_555 1_555
H5 C14 1_555 1_555
Co3 O4 1_555 1_555
Na4 O5 1_555 1_555
Co1 O3 1_555 1_555
O1 C2 1_555 1_555
O2 C5 1_555 1_555
O3 C5 1_555 1_555
N1 Co1 1_555 1_555
O6 C2 1_555 1_555
C2 C8 1_555 1_555
C4 C10 1_555 1_555
C5 C7 1_555 1_555
C7 N1 1_555 1_555
C8 C16 1_555 1_555
C9 H2 1_555 1_555
C10 N1 1_555 1_555
C11 C15 1_555 1_555
C12 C4 1_555 1_555
H3 C12 1_555 1_555
C13 C1 1_555 1_555
H4 C13 1_555 1_555
C15 C9 1_555 1_555
C16 C9 1_555 1_555
H6 C16 1_555 1_555
C17 C10 1_555 1_555
H7 C17 1_555 1_555
C18 C7 1_555 1_555
H8 C18 1_555 1_555
C19 C8 1_555 1_555
H9 C19 1_555 1_555
C20 C15 1_555 1_555
H10 C20 1_555 1_555
Co2 O1 1_555 1_555
O9 Co1 1_555 1_555
O12 Co1 1_555 1_555
O15 Co1 1_555 1_555
Na2 O1 1_555 1_555
Na3 O3 1_555 1_555
Na5 O1 1_555 1_555
O6 Na5 1_555 1_555
C11 C17 1_555 1_555
C11 C18 1_555 1_555
C12 C13 1_555 1_555
C19 C20 1_555 1_555
O9 Na3 1_555 1_555
O10 Na2 1_555 1_555
O11 Na2 1_555 1_555
O13 Na2 1_555 1_555
O14 Na2 1_555 1_555
O4_2 C6_2 1_555 1_555
C3_2 H1_2 1_555 1_555
C14_2 C3_2 1_555 1_555
H5_2 C14_2 1_555 1_555
Co2 O4_2 1_555 1_555
Na4_2 O5_2 1_555 1_555
Co1_2 O3_2 1_555 1_555
O1_2 C2_2 1_555 1_555
O2_2 C5_2 1_555 1_555
O3_2 C5_2 1_555 1_555
N1_2 Co1_2 1_555 1_555
O6_2 C2_2 1_555 1_555
C2_2 C8_2 1_555 1_555
C4_2 C10_2 1_555 1_555
C5_2 C7_2 1_555 1_555
C7_2 N1_2 1_555 1_555
C8_2 C16_2 1_555 1_555
C9_2 H2_2 1_555 1_555
C10_2 N1_2 1_555 1_555
C11_2 C15_2 1_555 1_555
C12_2 C4_2 1_555 1_555
H3_2 C12_2 1_555 1_555
C13_2 C1_2 1_555 1_555
H4_2 C13_2 1_555 1_555
C15_2 C9_2 1_555 1_555
C16_2 C9_2 1_555 1_555
H6_2 C16_2 1_555 1_555
C17_2 C10_2 1_555 1_555
H7_2 C17_2 1_555 1_555
C18_2 C7_2 1_555 1_555
H8_2 C18_2 1_555 1_555
C19_2 C8_2 1_555 1_555
H9_2 C19_2 1_555 1_555
C20_2 C15_2 1_555 1_555
H10_2 C20_2 1_555 1_555
Co3 O1_2 1_555 1_555
O9_2 Co1_2 1_555 1_555
O12_2 Co1_2 1_555 1_555
O15_2 Co1_2 1_555 1_555
Na2_2 O1_2 1_555 1_555
Na3_2 O3_2 1_555 1_555
Na5_2 O1_2 1_555 1_555
O6_2 Na5_2 1_555 1_555
C11_2 C17_2 1_555 1_555
C11_2 C18_2 1_555 1_555
C12_2 C13_2 1_555 1_555
C19_2 C20_2 1_555 1_555
O9_2 Na3_2 1_555 1_555
O10_2 Na2_2 1_555 1_555
O11_2 Na2_2 1_555 1_555
O13_2 Na2_2 1_555 1_555
O14_2 Na2_2 1_555 1_555
O4_3 C6_3 1_555 1_555
Co3_2 O4_3 1_555 1_555
C13_3 C1_3 1_555 1_555
H4_3 C13_3 1_555 1_555
C3_3 H1_3 1_555 1_555
C14_3 C3_3 1_555 1_555
H5_3 C14_3 1_555 1_555
Na5_2 O5_3 1_555 1_555
Co1_3 O11_2 1_555 1_555
O2_3 C5_3 1_555 1_555
O11_2 C5_3 1_555 1_555
N1_3 Co1_3 1_555 1_555
C4_3 C10_3 1_555 1_555
C5_3 C7_3 1_555 1_555
C7_3 N1_3 1_555 1_555
C9_3 H2_3 1_555 1_555
C10_3 N1_3 1_555 1_555
C11_3 C15_3 1_555 1_555
C12_3 C4_3 1_555 1_555
H3_3 C12_3 1_555 1_555
C15_3 C9_3 1_555 1_555
C17_3 C10_3 1_555 1_555
H7_3 C17_3 1_555 1_555
C18_3 C7_3 1_555 1_555
H8_3 C18_3 1_555 1_555
O10_2 Co1_3 1_555 1_555
O12_3 Co1_3 1_555 1_555
O15_3 Co1_3 1_555 1_555
C11_3 C17_3 1_555 1_555
C11_3 C18_3 1_555 1_555
O1_3 C2_3 1_555 1_555
O6_3 C2_3 1_555 1_555
C2_3 C8_3 1_555 1_555
C8_3 C16_3 1_555 1_555
H6_3 C16_3 1_555 1_555
C19_3 C8_3 1_555 1_555
H9_3 C19_3 1_555 1_555
H10_3 C20_3 1_555 1_555
Co2_2 O1_3 1_555 1_555
Na3_2 O1_3 1_555 1_555
Na4_2 O1_3 1_555 1_555
O6_3 Na4_2 1_555 1_555
C19_3 C20_3 1_555 1_555
O13_3 Na3_2 1_555 1_555
O14_3 Na3_2 1_555 1_555
O1_4 C2_4 1_555 1_555
O6_4 C2_4 1_555 1_555
C2_4 C8_4 1_555 1_555
C8_4 C16_4 1_555 1_555
H6_4 C16_4 1_555 1_555
C19_4 C8_4 1_555 1_555
H9_4 C19_4 1_555 1_555
H10_4 C20_4 1_555 1_555
Co3_2 O1_4 1_555 1_555
Na3 O1_4 1_555 1_555
Na4 O1_4 1_555 1_555
O6_4 Na4 1_555 1_555
C19_4 C20_4 1_555 1_555
O13_4 Na3 1_555 1_555
O14_4 Na3 1_555 1_555
C3_4 H1_4 1_555 1_555
C14_4 C3_4 1_555 1_555
H5_4 C14_4 1_555 1_555
Na5 O5_4 1_555 1_555
Co1_4 O11 1_555 1_555
O2_4 C5_4 1_555 1_555
O11 C5_4 1_555 1_555
N1_4 Co1_4 1_555 1_555
C4_4 C10_4 1_555 1_555
C5_4 C7_4 1_555 1_555
C7_4 N1_4 1_555 1_555
C9_4 H2_4 1_555 1_555
C10_4 N1_4 1_555 1_555
C11_4 C15_4 1_555 1_555
C12_4 C4_4 1_555 1_555
H3_4 C12_4 1_555 1_555
C15_4 C9_4 1_555 1_555
C17_4 C10_4 1_555 1_555
H7_4 C17_4 1_555 1_555
C18_4 C7_4 1_555 1_555
H8_4 C18_4 1_555 1_555
O10 Co1_4 1_555 1_555
O12_4 Co1_4 1_555 1_555
O15_4 Co1_4 1_555 1_555
C11_4 C17_4 1_555 1_555
C11_4 C18_4 1_555 1_555
O4_4 C6_4 1_555 1_555
Co2_2 O4_4 1_555 1_555
C13_4 C1_4 1_555 1_555
H4_4 C13_4 1_555 1_555
H10_5 C20_5 1_555 1_555
O9 C2_5 1_555 1_555
O14_4 C2_5 1_555 1_555
C2_5 C8_5 1_555 1_555
C8_5 C16_5 1_555 1_555
H6_5 C16_5 1_555 1_555
C19_5 C8_5 1_555 1_555
Na4 O14_4 1_555 1_555
O11_3 Na4 1_555 1_555
Co2 O3_3 1_555 1_555
O2_5 C5_5 1_555 1_555
O3_3 C5_5 1_555 1_555
O12_2 C6_5 1_555 1_555
N1_5 Co2 1_555 1_555
O13 Co2 1_555 1_555
O15_2 C6_5 1_555 1_555
C1_5 C3_5 1_555 1_555
C3_5 H1_5 1_555 1_555
C4_5 C10_5 1_555 1_555
C5_5 C7_5 1_555 1_555
C6_5 C1_5 1_555 1_555
C7_5 N1_5 1_555 1_555
C10_5 N1_5 1_555 1_555
C12_5 C4_5 1_555 1_555
H3_5 C12_5 1_555 1_555
C13_5 C1_5 1_555 1_555
H4_5 C13_5 1_555 1_555
C14_5 C3_5 1_555 1_555
H5_5 C14_5 1_555 1_555
C17_5 C10_5 1_555 1_555
H7_5 C17_5 1_555 1_555
C18_5 C7_5 1_555 1_555
Na5 O3_3 1_555 1_555
C4_5 C14_5 1_555 1_555
C11_5 C17_5 1_555 1_555
C11_5 C18_5 1_555 1_555
C12_5 C13_5 1_555 1_555
C9_5 H2_5 1_555 1_555
C15_5 C9_5 1_555 1_555
Co3 O3_4 1_555 1_555
O2_6 C5_6 1_555 1_555
O3_4 C5_6 1_555 1_555
O12 C6_6 1_555 1_555
N1_6 Co3 1_555 1_555
O13_2 Co3 1_555 1_555
O15 C6_6 1_555 1_555
C1_6 C3_6 1_555 1_555
C3_6 H1_6 1_555 1_555
C4_6 C10_6 1_555 1_555
C5_6 C7_6 1_555 1_555
C6_6 C1_6 1_555 1_555
C7_6 N1_6 1_555 1_555
C10_6 N1_6 1_555 1_555
C12_6 C4_6 1_555 1_555
H3_6 C12_6 1_555 1_555
C13_6 C1_6 1_555 1_555
H4_6 C13_6 1_555 1_555
C14_6 C3_6 1_555 1_555
H5_6 C14_6 1_555 1_555
C17_6 C10_6 1_555 1_555
H7_6 C17_6 1_555 1_555
C18_6 C7_6 1_555 1_555
Na5_2 O3_4 1_555 1_555
C4_6 C14_6 1_555 1_555
C11_6 C17_6 1_555 1_555
C11_6 C18_6 1_555 1_555
C12_6 C13_6 1_555 1_555
C9_6 H2_6 1_555 1_555
C15_6 C9_6 1_555 1_555
H10_6 C20_6 1_555 1_555
O9_2 C2_6 1_555 1_555
O14_3 C2_6 1_555 1_555
C2_6 C8_6 1_555 1_555
C8_6 C16_6 1_555 1_555
H6_6 C16_6 1_555 1_555
C19_6 C8_6 1_555 1_555
Na4_2 O14_3 1_555 1_555
O11_4 Na4_2 1_555 1_555
O12_4 C6_7 1_555 1_555
O15_4 C6_7 1_555 1_555
C6_7 C1_7 1_555 1_555
C13_7 C1_7 1_555 1_555
H4_7 C13_7 1_555 1_555
Co2_2 O11_4 1_555 1_555
O2_7 C5_7 1_555 1_555
O11_4 C5_7 1_555 1_555
N1_7 Co2_2 1_555 1_555
O13_3 Co2_2 1_555 1_555
C3_7 H1_7 1_555 1_555
C4_7 C10_7 1_555 1_555
C5_7 C7_7 1_555 1_555
C7_7 N1_7 1_555 1_555
C10_7 N1_7 1_555 1_555
C12_7 C4_7 1_555 1_555
H3_7 C12_7 1_555 1_555
C14_7 C3_7 1_555 1_555
H5_7 C14_7 1_555 1_555
C17_7 C10_7 1_555 1_555
H7_7 C17_7 1_555 1_555
C18_7 C7_7 1_555 1_555
H10_7 C20_7 1_555 1_555
C4_7 C14_7 1_555 1_555
C11_7 C17_7 1_555 1_555
C11_7 C18_7 1_555 1_555
O10_2 C2_7 1_555 1_555
O14_2 C2_7 1_555 1_555
C2_7 C8_7 1_555 1_555
C8_7 C16_7 1_555 1_555
C9_7 H2_7 1_555 1_555
C15_7 C9_7 1_555 1_555
C16_7 C9_7 1_555 1_555
H6_7 C16_7 1_555 1_555
C19_7 C8_7 1_555 1_555
Na5_2 O14_2 1_555 1_555
Co3_2 O11_3 1_555 1_555
O2_8 C5_8 1_555 1_555
O11_3 C5_8 1_555 1_555
N1_8 Co3_2 1_555 1_555
O13_4 Co3_2 1_555 1_555
C3_8 H1_8 1_555 1_555
C4_8 C10_8 1_555 1_555
C5_8 C7_8 1_555 1_555
C7_8 N1_8 1_555 1_555
C10_8 N1_8 1_555 1_555
C12_8 C4_8 1_555 1_555
H3_8 C12_8 1_555 1_555
C14_8 C3_8 1_555 1_555
H5_8 C14_8 1_555 1_555
C17_8 C10_8 1_555 1_555
H7_8 C17_8 1_555 1_555
C18_8 C7_8 1_555 1_555
H10_8 C20_8 1_555 1_555
C4_8 C14_8 1_555 1_555
C11_8 C17_8 1_555 1_555
C11_8 C18_8 1_555 1_555
O10 C2_8 1_555 1_555
O14 C2_8 1_555 1_555
C2_8 C8_8 1_555 1_555
C8_8 C16_8 1_555 1_555
C9_8 H2_8 1_555 1_555
C15_8 C9_8 1_555 1_555
C16_8 C9_8 1_555 1_555
H6_8 C16_8 1_555 1_555
C19_8 C8_8 1_555 1_555
Na5 O14 1_555 1_555
O12_3 C6_8 1_555 1_555
O15_3 C6_8 1_555 1_555
C6_8 C1_8 1_555 1_555
C13_8 C1_8 1_555 1_555
H4_8 C13_8 1_555 1_555

#END
