
###############################################################################
#
# This file contains modified crystal structure data generated from the
# MOF subset of the Cambridge Structural Database (CSD) v543 
# hosted by the Cambridge Crystallographic Data Centre (CCDC).
#
# This work is licensed under the Creative Commons
# Attribution-NonCommercial-ShareAlike 4.0 International License.
# To view a copy of this license, visit
# http://creativecommons.org/licenses/by-nc-sa/4.0/
# or send a letter to
# Creative Commons, PO Box 1866, Mountain View, CA 94042, USA.
#
# CIF created using the CSD Python API on 29 September 2022
# The structure has been converted into the P1 space group
# The structure has a 3D framework
# The original CSD entry CAPYOL is in the orthorhombic crystal system
# The framework has been calculated to contain at least 10.0% void space
# The void calculation uses a probe of radius 1.32A, grid spacing 0.4
#
###############################################################################

data_CAPYOL
_chemical_formula_moiety         '(C160 H80 N8 Na4 Ni8 O48)n'
_symmetry_cell_setting           triclinic
_symmetry_space_group_name_H-M   'P 1'
_symmetry_Int_Tables_number      1
_space_group_name_Hall           'P 1'
loop_
_symmetry_equiv_pos_site_id
_symmetry_equiv_pos_as_xyz
1 x,y,z
_cell_length_a                   27.0821(4)
_cell_length_b                   25.8325(4)
_cell_length_c                   5.97853(9)
_cell_angle_alpha                90
_cell_angle_beta                 90
_cell_angle_gamma                90
_cell_volume                     4182.57
loop_
_atom_site_label
_atom_site_type_symbol
_atom_site_fract_x
_atom_site_fract_y
_atom_site_fract_z
O4 O 0.42009(8) 0.71897(9) 0.2962(5)
O5 O 0.66365(9) 0.74459(9) 0.1121(5)
H1 H 0.6747 0.7123 0.1423
H2 H 0.6359 0.7488 0.1945
C2 C 0.51135(12) 0.69545(13) 0.1079(7)
H3 H 0.5106 0.7085 0.2528
C10 C 0.55577(12) 0.67946(14) 0.0162(7)
H6 H 0.5848 0.6819 0.0989
C13 C 0.42162(11) 0.71203(12) 0.0897(6)
Ni3 Ni 0.34790(2) 0.74362(2) 0.28004(13)
Na4 Na 0.71868(6) 0.81145(6) 0.2095(3)
O14 O 0.71231(10) 0.35842(10) 0.0387(6)
Ni1 Ni 0.65210(2) 0.75638(2) 0.78004(13)
Na1 Na 0.71868(6) 0.31145(6) 0.7095(3)
O1 O 0.72202(8) 0.73857(8) 0.6939(5)
O2 O 0.77278(7) 0.67145(9) 0.6402(5)
O3 O 0.67501(10) 0.33054(9) 0.3491(5)
O6 O 0.38355(9) 0.72191(10) 0.9711(5)
N1 N 0.64358(9) 0.67425(10) 0.7117(5)
C1 C 0.46790(12) 0.69223(12) 0.9855(6)
C3 C 0.73116(10) 0.69095(12) 0.6604(6)
C4 C 0.55683(11) 0.65946(11) 0.7973(7)
C5 C 0.68739(11) 0.65545(12) 0.6397(6)
C6 C 0.46863(11) 0.67270(13) 0.7694(7)
H4 H 0.4398 0.6713 0.6851
C7 C 0.60460(11) 0.64184(12) 0.7014(7)
C8 C 0.51298(12) 0.65527(14) 0.6804(7)
H5 H 0.5132 0.6404 0.5388
C9 C 0.68895(12) 0.36555(13) 0.2160(7)
C11 C 0.67758(12) 0.42026(12) 0.2877(9)
C12 C 0.65306(13) 0.57376(13) 0.5334(7)
C14 C 0.66010(14) 0.52079(14) 0.4418(9)
C15 C 0.69369(12) 0.60670(13) 0.5514(7)
H7 H 0.7247 0.5958 0.5042
C16 C 0.60850(12) 0.59184(14) 0.6151(8)
H8 H 0.5809 0.5705 0.6125
C17 C 0.68970(15) 0.51210(13) 0.2578(10)
H9 H 0.7043 0.5401 0.1856
C18 C 0.69824(15) 0.46222(14) 0.1778(8)
H10 H 0.7177 0.4571 0.0515
C19 C 0.64792(18) 0.42840(15) 0.4737(11)
H11 H 0.6341 0.4004 0.5485
C20 C 0.63888(18) 0.47858(15) 0.5482(11)
H12 H 0.6184 0.4839 0.6708
Ni2 Ni 0.65210(2) 0.25638(2) 0.28004(13)
Na3 Na 0.78132(6) 0.81145(6) 0.7095(3)
Na5 Na 0.78132(6) 0.31145(6) 0.2095(3)
O8 O 0.77798(8) 0.23857(8) 0.6939(5)
O9 O 0.67501(10) 0.83054(9) 0.8491(5)
O10 O 0.82499(10) 0.33054(9) 0.8491(5)
O11 O 0.57991(8) 0.78103(9) 0.7962(5)
O12 O 0.66365(9) 0.24459(9) 0.6121(5)
O13 O 0.61645(9) 0.77809(10) 0.4711(5)
O15 O 0.78769(10) 0.35842(10) 0.5387(6)
O4_2 O 0.57991(8) 0.28103(9) 0.2962(5)
O5_2 O 0.33635(9) 0.25541(9) 0.1121(5)
H1_2 H 0.3253 0.2877 0.1423
H2_2 H 0.3641 0.2512 0.1945
C2_2 C 0.48865(12) 0.30455(13) 0.1079(7)
H3_2 H 0.4894 0.2915 0.2528
C10_2 C 0.44423(12) 0.32054(14) 0.0162(7)
H6_2 H 0.4152 0.3181 0.0989
C13_2 C 0.57838(11) 0.28797(12) 0.0897(6)
Na4_2 Na 0.28132(6) 0.18855(6) 0.2095(3)
O14_2 O 0.28769(10) 0.64158(10) 0.0387(6)
Ni1_2 Ni 0.34790(2) 0.24362(2) 0.78004(13)
Na1_2 Na 0.28132(6) 0.68855(6) 0.7095(3)
O1_2 O 0.27798(8) 0.26143(8) 0.6939(5)
O2_2 O 0.22722(7) 0.32855(9) 0.6402(5)
O3_2 O 0.32499(10) 0.66946(9) 0.3491(5)
O6_2 O 0.61645(9) 0.27809(10) 0.9711(5)
N1_2 N 0.35642(9) 0.32575(10) 0.7117(5)
C1_2 C 0.53210(12) 0.30777(12) 0.9855(6)
C3_2 C 0.26884(10) 0.30905(12) 0.6604(6)
C4_2 C 0.44317(11) 0.34054(11) 0.7973(7)
C5_2 C 0.31261(11) 0.34455(12) 0.6397(6)
C6_2 C 0.53137(11) 0.32730(13) 0.7694(7)
H4_2 H 0.5602 0.3287 0.6851
C7_2 C 0.39540(11) 0.35816(12) 0.7014(7)
C8_2 C 0.48702(12) 0.34473(14) 0.6804(7)
H5_2 H 0.4868 0.3596 0.5388
C9_2 C 0.31105(12) 0.63445(13) 0.2160(7)
C11_2 C 0.32242(12) 0.57974(12) 0.2877(9)
C12_2 C 0.34694(13) 0.42624(13) 0.5334(7)
C14_2 C 0.33990(14) 0.47921(14) 0.4418(9)
C15_2 C 0.30631(12) 0.39330(13) 0.5514(7)
H7_2 H 0.2753 0.4042 0.5042
C16_2 C 0.39150(12) 0.40816(14) 0.6151(8)
H8_2 H 0.4191 0.4295 0.6125
C17_2 C 0.31030(15) 0.48790(13) 0.2578(10)
H9_2 H 0.2957 0.4599 0.1856
C18_2 C 0.30176(15) 0.53778(14) 0.1778(8)
H10_2 H 0.2823 0.5429 0.0515
C19_2 C 0.35208(18) 0.57160(15) 0.4737(11)
H11_2 H 0.3659 0.5996 0.5485
C20_2 C 0.36112(18) 0.52142(15) 0.5482(11)
H12_2 H 0.3816 0.5161 0.6708
Na3_2 Na 0.21868(6) 0.18855(6) 0.7095(3)
Na5_2 Na 0.21868(6) 0.68855(6) 0.2095(3)
O8_2 O 0.22202(8) 0.76143(8) 0.6939(5)
O9_2 O 0.32499(10) 0.16946(9) 0.8491(5)
O10_2 O 0.17501(10) 0.66946(9) 0.8491(5)
O11_2 O 0.42009(8) 0.21897(9) 0.7962(5)
O12_2 O 0.33635(9) 0.75541(9) 0.6121(5)
O13_2 O 0.38355(9) 0.22191(10) 0.4711(5)
O15_2 O 0.21231(10) 0.64158(10) 0.5387(6)
O14_3 O 0.21231(10) 0.14158(10) 0.0387(6)
O3_3 O 0.17501(10) 0.16946(9) 0.3491(5)
C9_3 C 0.18895(12) 0.13445(13) 0.2160(7)
C11_3 C 0.17758(12) 0.07974(12) 0.2877(9)
C18_3 C 0.19824(15) 0.03778(14) 0.1778(8)
H10_3 H 0.2177 0.0429 0.0515
C19_3 C 0.14792(18) 0.07160(15) 0.4737(11)
H11_3 H 0.1341 0.0996 0.5485
C20_3 C 0.13888(18) 0.02142(15) 0.5482(11)
H12_3 H 0.1184 0.0161 0.6708
Ni2_2 Ni 0.15210(2) 0.24362(2) 0.28004(13)
O12_3 O 0.16365(9) 0.25541(9) 0.6121(5)
O15_3 O 0.28769(10) 0.14158(10) 0.5387(6)
O5_3 O 0.16365(9) 0.75541(9) 0.1121(5)
H1_3 H 0.1747 0.7877 0.1423
H2_3 H 0.1359 0.7512 0.1945
C2_3 C 0.01135(12) 0.80455(13) 0.1079(7)
H3_3 H 0.0106 0.7915 0.2528
C10_3 C 0.05577(12) 0.82054(14) 0.0162(7)
H6_3 H 0.0848 0.8181 0.0989
Ni1_3 Ni 0.15210(2) 0.74362(2) 0.78004(13)
O2_3 O 0.27278(7) 0.82855(9) 0.6402(5)
N1_3 N 0.14358(9) 0.82575(10) 0.7117(5)
C3_3 C 0.23116(10) 0.80905(12) 0.6604(6)
C4_3 C 0.05683(11) 0.84054(11) 0.7973(7)
C5_3 C 0.18739(11) 0.84455(12) 0.6397(6)
C7_3 C 0.10460(11) 0.85816(12) 0.7014(7)
C8_3 C 0.01298(12) 0.84473(14) 0.6804(7)
H5_3 H 0.0132 0.8596 0.5388
C12_3 C 0.15306(13) 0.92624(13) 0.5334(7)
C14_3 C 0.16010(14) 0.97921(14) 0.4418(9)
C15_3 C 0.19369(12) 0.89330(13) 0.5514(7)
H7_3 H 0.2247 0.9042 0.5042
C16_3 C 0.10850(12) 0.90816(14) 0.6151(8)
H8_3 H 0.0809 0.9295 0.6125
C17_3 C 0.18970(15) 0.98790(13) 0.2578(10)
H9_3 H 0.2043 0.9599 0.1856
O11_3 O 0.07991(8) 0.71897(9) 0.7962(5)
O13_3 O 0.11645(9) 0.72191(10) 0.4711(5)
O4_3 O 0.92009(8) 0.78103(9) 0.2962(5)
C13_3 C 0.92162(11) 0.78797(12) 0.0897(6)
Ni3_2 Ni 0.84790(2) 0.75638(2) 0.28004(13)
O6_3 O 0.88355(9) 0.77809(10) 0.9711(5)
C1_3 C 0.96790(12) 0.80777(12) 0.9855(6)
C6_3 C 0.96863(11) 0.82730(13) 0.7694(7)
H4_3 H 0.9398 0.8287 0.6851
O4_4 O 0.07991(8) 0.21897(9) 0.2962(5)
C13_4 C 0.07838(11) 0.21203(12) 0.0897(6)
O6_4 O 0.11645(9) 0.22191(10) 0.9711(5)
C1_4 C 0.03210(12) 0.19223(12) 0.9855(6)
C6_4 C 0.03137(11) 0.17270(13) 0.7694(7)
H4_4 H 0.0602 0.1713 0.6851
O5_4 O 0.83635(9) 0.24459(9) 0.1121(5)
H1_4 H 0.8253 0.2123 0.1423
H2_4 H 0.8641 0.2488 0.1945
C2_4 C 0.98865(12) 0.19545(13) 0.1079(7)
H3_4 H 0.9894 0.2085 0.2528
C10_4 C 0.94423(12) 0.17946(14) 0.0162(7)
H6_4 H 0.9152 0.1819 0.0989
Ni1_4 Ni 0.84790(2) 0.25638(2) 0.78004(13)
O2_4 O 0.72722(7) 0.17145(9) 0.6402(5)
N1_4 N 0.85642(9) 0.17425(10) 0.7117(5)
C3_4 C 0.76884(10) 0.19095(12) 0.6604(6)
C4_4 C 0.94317(11) 0.15946(11) 0.7973(7)
C5_4 C 0.81261(11) 0.15545(12) 0.6397(6)
C7_4 C 0.89540(11) 0.14184(12) 0.7014(7)
C8_4 C 0.98702(12) 0.15527(14) 0.6804(7)
H5_4 H 0.9868 0.1404 0.5388
C12_4 C 0.84694(13) 0.07376(13) 0.5334(7)
C14_4 C 0.83990(14) 0.02079(14) 0.4418(9)
C15_4 C 0.80631(12) 0.10670(13) 0.5514(7)
H7_4 H 0.7753 0.0958 0.5042
C16_4 C 0.89150(12) 0.09184(14) 0.6151(8)
H8_4 H 0.9191 0.0705 0.6125
C17_4 C 0.81030(15) 0.01210(13) 0.2578(10)
H9_4 H 0.7957 0.0401 0.1856
O11_4 O 0.92009(8) 0.28103(9) 0.7962(5)
O13_4 O 0.88355(9) 0.27809(10) 0.4711(5)
O14_4 O 0.78769(10) 0.85842(10) 0.0387(6)
O3_4 O 0.82499(10) 0.83054(9) 0.3491(5)
C9_4 C 0.81105(12) 0.86555(13) 0.2160(7)
C11_4 C 0.82242(12) 0.92026(12) 0.2877(9)
C18_4 C 0.80176(15) 0.96222(14) 0.1778(8)
H10_4 H 0.7823 0.9571 0.0515
C19_4 C 0.85208(18) 0.92840(15) 0.4737(11)
H11_4 H 0.8659 0.9004 0.5485
C20_4 C 0.86112(18) 0.97858(15) 0.5482(11)
H12_4 H 0.8816 0.9839 0.6708
O12_4 O 0.83635(9) 0.74459(9) 0.6121(5)
O15_4 O 0.71231(10) 0.85842(10) 0.5387(6)
O1_3 O 0.72202(8) 0.23857(8) 0.1939(5)
O2_5 O 0.77278(7) 0.17145(9) 0.1402(5)
H1_5 H 0.6747 0.2123 0.6423
H2_5 H 0.6359 0.2488 0.6945
N1_5 N 0.64358(9) 0.17425(10) 0.2117(5)
C1_5 C 0.46790(12) 0.19223(12) 0.4855(6)
C2_5 C 0.51135(12) 0.19545(13) 0.6079(7)
H3_5 H 0.5106 0.2085 0.7528
C3_5 C 0.73116(10) 0.19095(12) 0.1604(6)
C4_5 C 0.55683(11) 0.15946(11) 0.2973(7)
C5_5 C 0.68739(11) 0.15545(12) 0.1397(6)
C6_5 C 0.46863(11) 0.17270(13) 0.2694(7)
H4_5 H 0.4398 0.1713 0.1851
C7_5 C 0.60460(11) 0.14184(12) 0.2014(7)
C8_5 C 0.51298(12) 0.15527(14) 0.1804(7)
H5_5 H 0.5132 0.1404 0.0388
C10_5 C 0.55577(12) 0.17946(14) 0.5162(7)
H6_5 H 0.5848 0.1819 0.5989
C12_5 C 0.65306(13) 0.07376(13) 0.0334(7)
C13_5 C 0.42162(11) 0.21203(12) 0.5897(6)
C15_5 C 0.69369(12) 0.10670(13) 0.0514(7)
H7_5 H 0.7247 0.0958 0.0042
C16_5 C 0.60850(12) 0.09184(14) 0.1151(8)
H8_5 H 0.5809 0.0705 0.1125
C14_5 C 0.66010(14) 0.02079(14) 0.9418(9)
C17_5 C 0.68970(15) 0.01210(13) 0.7578(10)
H9_5 H 0.7043 0.0401 0.6856
H11_5 H 0.6341 0.9004 0.0485
C20_5 C 0.63888(18) 0.97858(15) 0.0482(11)
H12_5 H 0.6184 0.9839 0.1708
O8_3 O 0.77798(8) 0.73857(8) 0.1939(5)
C9_5 C 0.68895(12) 0.86555(13) 0.7160(7)
C11_5 C 0.67758(12) 0.92026(12) 0.7877(9)
C18_5 C 0.69824(15) 0.96222(14) 0.6778(8)
H10_5 H 0.7177 0.9571 0.5515
C19_5 C 0.64792(18) 0.92840(15) 0.9737(11)
H11_6 H 0.3659 0.0996 0.0485
C20_6 C 0.36112(18) 0.02142(15) 0.0482(11)
H12_6 H 0.3816 0.0161 0.1708
O8_4 O 0.22202(8) 0.26143(8) 0.1939(5)
C9_6 C 0.31105(12) 0.13445(13) 0.7160(7)
C11_6 C 0.32242(12) 0.07974(12) 0.7877(9)
C18_6 C 0.30176(15) 0.03778(14) 0.6778(8)
H10_6 H 0.2823 0.0429 0.5515
C19_6 C 0.35208(18) 0.07160(15) 0.9737(11)
O1_4 O 0.27798(8) 0.76143(8) 0.1939(5)
O2_6 O 0.22722(7) 0.82855(9) 0.1402(5)
H1_6 H 0.3253 0.7877 0.6423
H2_6 H 0.3641 0.7512 0.6945
N1_6 N 0.35642(9) 0.82575(10) 0.2117(5)
C1_6 C 0.53210(12) 0.80777(12) 0.4855(6)
C2_6 C 0.48865(12) 0.80455(13) 0.6079(7)
H3_6 H 0.4894 0.7915 0.7528
C3_6 C 0.26884(10) 0.80905(12) 0.1604(6)
C4_6 C 0.44317(11) 0.84054(11) 0.2973(7)
C5_6 C 0.31261(11) 0.84455(12) 0.1397(6)
C6_6 C 0.53137(11) 0.82730(13) 0.2694(7)
H4_6 H 0.5602 0.8287 0.1851
C7_6 C 0.39540(11) 0.85816(12) 0.2014(7)
C8_6 C 0.48702(12) 0.84473(14) 0.1804(7)
H5_6 H 0.4868 0.8596 0.0388
C10_6 C 0.44423(12) 0.82054(14) 0.5162(7)
H6_6 H 0.4152 0.8181 0.5989
C12_6 C 0.34694(13) 0.92624(13) 0.0334(7)
C13_6 C 0.57838(11) 0.78797(12) 0.5897(6)
C15_6 C 0.30631(12) 0.89330(13) 0.0514(7)
H7_6 H 0.2753 0.9042 0.0042
C16_6 C 0.39150(12) 0.90816(14) 0.1151(8)
H8_6 H 0.4191 0.9295 0.1125
C14_6 C 0.33990(14) 0.97921(14) 0.9418(9)
C17_6 C 0.31030(15) 0.98790(13) 0.7578(10)
H9_6 H 0.2957 0.9599 0.6856
O2_7 O 0.27278(7) 0.32855(9) 0.1402(5)
H1_7 H 0.1747 0.2877 0.6423
H2_7 H 0.1359 0.2512 0.6945
N1_7 N 0.14358(9) 0.32575(10) 0.2117(5)
C2_7 C 0.01135(12) 0.30455(13) 0.6079(7)
H3_7 H 0.0106 0.2915 0.7528
C3_7 C 0.23116(10) 0.30905(12) 0.1604(6)
C4_7 C 0.05683(11) 0.34054(11) 0.2973(7)
C5_7 C 0.18739(11) 0.34455(12) 0.1397(6)
C7_7 C 0.10460(11) 0.35816(12) 0.2014(7)
C8_7 C 0.01298(12) 0.34473(14) 0.1804(7)
H5_7 H 0.0132 0.3596 0.0388
C10_7 C 0.05577(12) 0.32054(14) 0.5162(7)
H6_7 H 0.0848 0.3181 0.5989
C12_7 C 0.15306(13) 0.42624(13) 0.0334(7)
C15_7 C 0.19369(12) 0.39330(13) 0.0514(7)
H7_7 H 0.2247 0.4042 0.0042
C16_7 C 0.10850(12) 0.40816(14) 0.1151(8)
H8_7 H 0.0809 0.4295 0.1125
H11_7 H 0.1341 0.5996 0.0485
C20_7 C 0.13888(18) 0.52142(15) 0.0482(11)
H12_7 H 0.1184 0.5161 0.1708
C9_7 C 0.18895(12) 0.63445(13) 0.7160(7)
C11_7 C 0.17758(12) 0.57974(12) 0.7877(9)
C14_7 C 0.16010(14) 0.47921(14) 0.9418(9)
C17_7 C 0.18970(15) 0.48790(13) 0.7578(10)
H9_7 H 0.2043 0.4599 0.6856
C18_7 C 0.19824(15) 0.53778(14) 0.6778(8)
H10_7 H 0.2177 0.5429 0.5515
C19_7 C 0.14792(18) 0.57160(15) 0.9737(11)
C1_7 C 0.96790(12) 0.30777(12) 0.4855(6)
C6_7 C 0.96863(11) 0.32730(13) 0.2694(7)
H4_7 H 0.9398 0.3287 0.1851
C13_7 C 0.92162(11) 0.28797(12) 0.5897(6)
C1_8 C 0.03210(12) 0.69223(12) 0.4855(6)
C6_8 C 0.03137(11) 0.67270(13) 0.2694(7)
H4_8 H 0.0602 0.6713 0.1851
C13_8 C 0.07838(11) 0.71203(12) 0.5897(6)
O2_8 O 0.72722(7) 0.67145(9) 0.1402(5)
H1_8 H 0.8253 0.7123 0.6423
H2_8 H 0.8641 0.7488 0.6945
N1_8 N 0.85642(9) 0.67425(10) 0.2117(5)
C2_8 C 0.98865(12) 0.69545(13) 0.6079(7)
H3_8 H 0.9894 0.7085 0.7528
C3_8 C 0.76884(10) 0.69095(12) 0.1604(6)
C4_8 C 0.94317(11) 0.65946(11) 0.2973(7)
C5_8 C 0.81261(11) 0.65545(12) 0.1397(6)
C7_8 C 0.89540(11) 0.64184(12) 0.2014(7)
C8_8 C 0.98702(12) 0.65527(14) 0.1804(7)
H5_8 H 0.9868 0.6404 0.0388
C10_8 C 0.94423(12) 0.67946(14) 0.5162(7)
H6_8 H 0.9152 0.6819 0.5989
C12_8 C 0.84694(13) 0.57376(13) 0.0334(7)
C15_8 C 0.80631(12) 0.60670(13) 0.0514(7)
H7_8 H 0.7753 0.5958 0.0042
C16_8 C 0.89150(12) 0.59184(14) 0.1151(8)
H8_8 H 0.9191 0.5705 0.1125
H11_8 H 0.8659 0.4004 0.0485
C20_8 C 0.86112(18) 0.47858(15) 0.0482(11)
H12_8 H 0.8816 0.4839 0.1708
C9_8 C 0.81105(12) 0.36555(13) 0.7160(7)
C11_8 C 0.82242(12) 0.42026(12) 0.7877(9)
C14_8 C 0.83990(14) 0.52079(14) 0.9418(9)
C17_8 C 0.81030(15) 0.51210(13) 0.7578(10)
H9_8 H 0.7957 0.5401 0.6856
C18_8 C 0.80176(15) 0.46222(14) 0.6778(8)
H10_8 H 0.7823 0.4571 0.5515
C19_8 C 0.85208(18) 0.42840(15) 0.9737(11)
loop_
_geom_bond_atom_site_label_1
_geom_bond_atom_site_label_2
_geom_bond_site_symmetry_1
_geom_bond_site_symmetry_2
O4 C13 1_555 1_555
H1 O5 1_555 1_555
H2 O5 1_555 1_555
C2 H3 1_555 1_555
C10 C2 1_555 1_555
H6 C10 1_555 1_555
Ni3 O4 1_555 1_555
Na4 O5 1_555 1_555
Ni1 O1 1_555 1_555
Na1 O3 1_555 1_555
O1 C3 1_555 1_555
O2 C3 1_555 1_555
O3 C9 1_555 1_555
N1 Ni1 1_555 1_555
O14 C9 1_555 1_555
C3 C5 1_555 1_555
C4 C7 1_555 1_555
C5 N1 1_555 1_555
C6 C1 1_555 1_555
H4 C6 1_555 1_555
C7 N1 1_555 1_555
C8 C4 1_555 1_555
H5 C8 1_555 1_555
C9 C11 1_555 1_555
C11 C18 1_555 1_555
C12 C14 1_555 1_555
C14 C17 1_555 1_555
C15 C5 1_555 1_555
H7 C15 1_555 1_555
C16 C7 1_555 1_555
H8 C16 1_555 1_555
C17 H9 1_555 1_555
C18 C17 1_555 1_555
H10 C18 1_555 1_555
C19 C11 1_555 1_555
H11 C19 1_555 1_555
C20 C14 1_555 1_555
H12 C20 1_555 1_555
Ni2 O3 1_555 1_555
Na3 O1 1_555 1_555
Na5 O3 1_555 1_555
O8 Na1 1_555 1_555
O9 Ni1 1_555 1_555
O10 Na1 1_555 1_555
O11 Ni1 1_555 1_555
O12 Na1 1_555 1_555
O13 Ni1 1_555 1_555
O15 Na1 1_555 1_555
O14 Na5 1_555 1_555
C6 C8 1_555 1_555
C12 C15 1_555 1_555
C12 C16 1_555 1_555
C19 C20 1_555 1_555
Ni2 O12 1_555 1_555
Na3 O9 1_555 1_555
Na5 O15 1_555 1_555
O4_2 C13_2 1_555 1_555
H1_2 O5_2 1_555 1_555
H2_2 O5_2 1_555 1_555
C2_2 H3_2 1_555 1_555
C10_2 C2_2 1_555 1_555
H6_2 C10_2 1_555 1_555
Ni2 O4_2 1_555 1_555
Na4_2 O5_2 1_555 1_555
Ni1_2 O1_2 1_555 1_555
Na1_2 O3_2 1_555 1_555
O1_2 C3_2 1_555 1_555
O2_2 C3_2 1_555 1_555
O3_2 C9_2 1_555 1_555
N1_2 Ni1_2 1_555 1_555
O14_2 C9_2 1_555 1_555
C3_2 C5_2 1_555 1_555
C4_2 C7_2 1_555 1_555
C5_2 N1_2 1_555 1_555
C6_2 C1_2 1_555 1_555
H4_2 C6_2 1_555 1_555
C7_2 N1_2 1_555 1_555
C8_2 C4_2 1_555 1_555
H5_2 C8_2 1_555 1_555
C9_2 C11_2 1_555 1_555
C11_2 C18_2 1_555 1_555
C12_2 C14_2 1_555 1_555
C14_2 C17_2 1_555 1_555
C15_2 C5_2 1_555 1_555
H7_2 C15_2 1_555 1_555
C16_2 C7_2 1_555 1_555
H8_2 C16_2 1_555 1_555
C17_2 H9_2 1_555 1_555
C18_2 C17_2 1_555 1_555
H10_2 C18_2 1_555 1_555
C19_2 C11_2 1_555 1_555
H11_2 C19_2 1_555 1_555
C20_2 C14_2 1_555 1_555
H12_2 C20_2 1_555 1_555
Ni3 O3_2 1_555 1_555
Na3_2 O1_2 1_555 1_555
Na5_2 O3_2 1_555 1_555
O8_2 Na1_2 1_555 1_555
O9_2 Ni1_2 1_555 1_555
O10_2 Na1_2 1_555 1_555
O11_2 Ni1_2 1_555 1_555
O12_2 Na1_2 1_555 1_555
O13_2 Ni1_2 1_555 1_555
O15_2 Na1_2 1_555 1_555
O14_2 Na5_2 1_555 1_555
C6_2 C8_2 1_555 1_555
C12_2 C15_2 1_555 1_555
C12_2 C16_2 1_555 1_555
C19_2 C20_2 1_555 1_555
Ni3 O12_2 1_555 1_555
Na3_2 O9_2 1_555 1_555
Na5_2 O15_2 1_555 1_555
Na3_2 O3_3 1_555 1_555
O3_3 C9_3 1_555 1_555
O14_3 C9_3 1_555 1_555
C9_3 C11_3 1_555 1_555
C11_3 C18_3 1_555 1_555
H10_3 C18_3 1_555 1_555
C19_3 C11_3 1_555 1_555
H11_3 C19_3 1_555 1_555
H12_3 C20_3 1_555 1_555
Ni2_2 O3_3 1_555 1_555
Na4_2 O3_3 1_555 1_555
O12_3 Na3_2 1_555 1_555
O15_3 Na3_2 1_555 1_555
O14_3 Na4_2 1_555 1_555
C19_3 C20_3 1_555 1_555
Ni2_2 O12_3 1_555 1_555
Na4_2 O15_3 1_555 1_555
H1_3 O5_3 1_555 1_555
H2_3 O5_3 1_555 1_555
C2_3 H3_3 1_555 1_555
C10_3 C2_3 1_555 1_555
H6_3 C10_3 1_555 1_555
Na5_2 O5_3 1_555 1_555
Ni1_3 O8_2 1_555 1_555
O8_2 C3_3 1_555 1_555
O2_3 C3_3 1_555 1_555
N1_3 Ni1_3 1_555 1_555
C3_3 C5_3 1_555 1_555
C4_3 C7_3 1_555 1_555
C5_3 N1_3 1_555 1_555
C7_3 N1_3 1_555 1_555
C8_3 C4_3 1_555 1_555
H5_3 C8_3 1_555 1_555
C12_3 C14_3 1_555 1_555
C14_3 C17_3 1_555 1_555
C15_3 C5_3 1_555 1_555
H7_3 C15_3 1_555 1_555
C16_3 C7_3 1_555 1_555
H8_3 C16_3 1_555 1_555
C17_3 H9_3 1_555 1_555
O10_2 Ni1_3 1_555 1_555
O11_3 Ni1_3 1_555 1_555
O13_3 Ni1_3 1_555 1_555
C12_3 C15_3 1_555 1_555
C12_3 C16_3 1_555 1_555
O4_3 C13_3 1_555 1_555
Ni3_2 O4_3 1_555 1_555
C6_3 C1_3 1_555 1_555
H4_3 C6_3 1_555 1_555
O4_4 C13_4 1_555 1_555
Ni2_2 O4_4 1_555 1_555
C6_4 C1_4 1_555 1_555
H4_4 C6_4 1_555 1_555
H1_4 O5_4 1_555 1_555
H2_4 O5_4 1_555 1_555
C2_4 H3_4 1_555 1_555
C10_4 C2_4 1_555 1_555
H6_4 C10_4 1_555 1_555
Na5 O5_4 1_555 1_555
Ni1_4 O8 1_555 1_555
O8 C3_4 1_555 1_555
O2_4 C3_4 1_555 1_555
N1_4 Ni1_4 1_555 1_555
C3_4 C5_4 1_555 1_555
C4_4 C7_4 1_555 1_555
C5_4 N1_4 1_555 1_555
C7_4 N1_4 1_555 1_555
C8_4 C4_4 1_555 1_555
H5_4 C8_4 1_555 1_555
C12_4 C14_4 1_555 1_555
C14_4 C17_4 1_555 1_555
C15_4 C5_4 1_555 1_555
H7_4 C15_4 1_555 1_555
C16_4 C7_4 1_555 1_555
H8_4 C16_4 1_555 1_555
C17_4 H9_4 1_555 1_555
O10 Ni1_4 1_555 1_555
O11_4 Ni1_4 1_555 1_555
O13_4 Ni1_4 1_555 1_555
C12_4 C15_4 1_555 1_555
C12_4 C16_4 1_555 1_555
Na3 O3_4 1_555 1_555
O3_4 C9_4 1_555 1_555
O14_4 C9_4 1_555 1_555
C9_4 C11_4 1_555 1_555
C11_4 C18_4 1_555 1_555
H10_4 C18_4 1_555 1_555
C19_4 C11_4 1_555 1_555
H11_4 C19_4 1_555 1_555
H12_4 C20_4 1_555 1_555
Ni3_2 O3_4 1_555 1_555
Na4 O3_4 1_555 1_555
O12_4 Na3 1_555 1_555
O15_4 Na3 1_555 1_555
O14_4 Na4 1_555 1_555
C19_4 C20_4 1_555 1_555
Ni3_2 O12_4 1_555 1_555
Na4 O15_4 1_555 1_555
Ni2 O1_3 1_555 1_555
O1_3 C3_5 1_555 1_555
O2_5 C3_5 1_555 1_555
O11_2 C13_5 1_555 1_555
H1_5 O12 1_555 1_555
H2_5 O12 1_555 1_555
O13_2 C13_5 1_555 1_555
N1_5 Ni2 1_555 1_555
C1_5 C2_5 1_555 1_555
C2_5 H3_5 1_555 1_555
C3_5 C5_5 1_555 1_555
C4_5 C7_5 1_555 1_555
C5_5 N1_5 1_555 1_555
C6_5 C1_5 1_555 1_555
H4_5 C6_5 1_555 1_555
C7_5 N1_5 1_555 1_555
C8_5 C4_5 1_555 1_555
H5_5 C8_5 1_555 1_555
C10_5 C2_5 1_555 1_555
H6_5 C10_5 1_555 1_555
C13_5 C1_5 1_555 1_555
C15_5 C5_5 1_555 1_555
H7_5 C15_5 1_555 1_555
C16_5 C7_5 1_555 1_555
H8_5 C16_5 1_555 1_555
Na5 O1_3 1_555 1_555
C4_5 C10_5 1_555 1_555
C6_5 C8_5 1_555 1_555
C12_5 C15_5 1_555 1_555
C12_5 C16_5 1_555 1_555
C14_5 C17_5 1_555 1_555
C17_5 H9_5 1_555 1_555
H12_5 C20_5 1_555 1_555
O8_3 Na4 1_555 1_555
O9 C9_5 1_555 1_555
O15_4 C9_5 1_555 1_555
C9_5 C11_5 1_555 1_555
C11_5 C18_5 1_555 1_555
H10_5 C18_5 1_555 1_555
C19_5 C11_5 1_555 1_555
H12_6 C20_6 1_555 1_555
O8_4 Na4_2 1_555 1_555
O9_2 C9_6 1_555 1_555
O15_3 C9_6 1_555 1_555
C9_6 C11_6 1_555 1_555
C11_6 C18_6 1_555 1_555
H10_6 C18_6 1_555 1_555
C19_6 C11_6 1_555 1_555
Ni3 O1_4 1_555 1_555
O1_4 C3_6 1_555 1_555
O2_6 C3_6 1_555 1_555
O11 C13_6 1_555 1_555
H1_6 O12_2 1_555 1_555
H2_6 O12_2 1_555 1_555
O13 C13_6 1_555 1_555
N1_6 Ni3 1_555 1_555
C1_6 C2_6 1_555 1_555
C2_6 H3_6 1_555 1_555
C3_6 C5_6 1_555 1_555
C4_6 C7_6 1_555 1_555
C5_6 N1_6 1_555 1_555
C6_6 C1_6 1_555 1_555
H4_6 C6_6 1_555 1_555
C7_6 N1_6 1_555 1_555
C8_6 C4_6 1_555 1_555
H5_6 C8_6 1_555 1_555
C10_6 C2_6 1_555 1_555
H6_6 C10_6 1_555 1_555
C13_6 C1_6 1_555 1_555
C15_6 C5_6 1_555 1_555
H7_6 C15_6 1_555 1_555
C16_6 C7_6 1_555 1_555
H8_6 C16_6 1_555 1_555
Na5_2 O1_4 1_555 1_555
C4_6 C10_6 1_555 1_555
C6_6 C8_6 1_555 1_555
C12_6 C15_6 1_555 1_555
C12_6 C16_6 1_555 1_555
C14_6 C17_6 1_555 1_555
C17_6 H9_6 1_555 1_555
Ni2_2 O8_4 1_555 1_555
O8_4 C3_7 1_555 1_555
O2_7 C3_7 1_555 1_555
H1_7 O12_3 1_555 1_555
H2_7 O12_3 1_555 1_555
N1_7 Ni2_2 1_555 1_555
C2_7 H3_7 1_555 1_555
C3_7 C5_7 1_555 1_555
C4_7 C7_7 1_555 1_555
C5_7 N1_7 1_555 1_555
C7_7 N1_7 1_555 1_555
C8_7 C4_7 1_555 1_555
H5_7 C8_7 1_555 1_555
C10_7 C2_7 1_555 1_555
H6_7 C10_7 1_555 1_555
C15_7 C5_7 1_555 1_555
H7_7 C15_7 1_555 1_555
C16_7 C7_7 1_555 1_555
H8_7 C16_7 1_555 1_555
H12_7 C20_7 1_555 1_555
C4_7 C10_7 1_555 1_555
C12_7 C15_7 1_555 1_555
C12_7 C16_7 1_555 1_555
O10_2 C9_7 1_555 1_555
O15_2 C9_7 1_555 1_555
C9_7 C11_7 1_555 1_555
C11_7 C18_7 1_555 1_555
C14_7 C17_7 1_555 1_555
C17_7 H9_7 1_555 1_555
C18_7 C17_7 1_555 1_555
H10_7 C18_7 1_555 1_555
C19_7 C11_7 1_555 1_555
O11_4 C13_7 1_555 1_555
O13_4 C13_7 1_555 1_555
C6_7 C1_7 1_555 1_555
H4_7 C6_7 1_555 1_555
C13_7 C1_7 1_555 1_555
O11_3 C13_8 1_555 1_555
O13_3 C13_8 1_555 1_555
C6_8 C1_8 1_555 1_555
H4_8 C6_8 1_555 1_555
C13_8 C1_8 1_555 1_555
Ni3_2 O8_3 1_555 1_555
O8_3 C3_8 1_555 1_555
O2_8 C3_8 1_555 1_555
H1_8 O12_4 1_555 1_555
H2_8 O12_4 1_555 1_555
N1_8 Ni3_2 1_555 1_555
C2_8 H3_8 1_555 1_555
C3_8 C5_8 1_555 1_555
C4_8 C7_8 1_555 1_555
C5_8 N1_8 1_555 1_555
C7_8 N1_8 1_555 1_555
C8_8 C4_8 1_555 1_555
H5_8 C8_8 1_555 1_555
C10_8 C2_8 1_555 1_555
H6_8 C10_8 1_555 1_555
C15_8 C5_8 1_555 1_555
H7_8 C15_8 1_555 1_555
C16_8 C7_8 1_555 1_555
H8_8 C16_8 1_555 1_555
H12_8 C20_8 1_555 1_555
C4_8 C10_8 1_555 1_555
C12_8 C15_8 1_555 1_555
C12_8 C16_8 1_555 1_555
O10 C9_8 1_555 1_555
O15 C9_8 1_555 1_555
C9_8 C11_8 1_555 1_555
C11_8 C18_8 1_555 1_555
C14_8 C17_8 1_555 1_555
C17_8 H9_8 1_555 1_555
C18_8 C17_8 1_555 1_555
H10_8 C18_8 1_555 1_555
C19_8 C11_8 1_555 1_555

#END
