
###############################################################################
#
# This file contains modified crystal structure data generated from the
# MOF subset of the Cambridge Structural Database (CSD) v543 
# hosted by the Cambridge Crystallographic Data Centre (CCDC).
#
# This work is licensed under the Creative Commons
# Attribution-NonCommercial-ShareAlike 4.0 International License.
# To view a copy of this license, visit
# http://creativecommons.org/licenses/by-nc-sa/4.0/
# or send a letter to
# Creative Commons, PO Box 1866, Mountain View, CA 94042, USA.
#
# CIF created using the CSD Python API on 29 September 2022
# The structure has been converted into the P1 space group
# The structure has a 3D framework
# The original CSD entry CAQCAZ is in the monoclinic crystal system
# The framework has been calculated to contain at least 10.0% void space
# The void calculation uses a probe of radius 1.32A, grid spacing 0.4
# The framework is charged, counterions have been retained in the structure
#
###############################################################################

data_CAQCAZ
_chemical_formula_moiety         '(C40 H8 In11 O32 3-)n'
_symmetry_cell_setting           triclinic
_symmetry_space_group_name_H-M   'P 1'
_symmetry_Int_Tables_number      1
_space_group_name_Hall           'P 1'
loop_
_symmetry_equiv_pos_site_id
_symmetry_equiv_pos_as_xyz
1 x,y,z
_cell_length_a                   7.2104(13)
_cell_length_b                   13.637(2)
_cell_length_c                   17.379(3)
_cell_angle_alpha                90.00
_cell_angle_beta                 100.657(7)
_cell_angle_gamma                90.00
_cell_volume                     1679.37
loop_
_atom_site_label
_atom_site_type_symbol
_atom_site_fract_x
_atom_site_fract_y
_atom_site_fract_z
In10 In -0.0000 0.5000 0.0000
In2 In -0.0000 0.0000 0.5000
O4 O 0.2545(9) 0.1113(5) 0.6624(4)
O5 O 0.2322(9) 0.3063(5) 0.9131(4)
C3 C 0.0691(12) 0.2246(7) 0.7659(5)
H1 H 0.2031 0.2267 0.7771
C8 C 0.0856(13) 0.1329(7) 0.6415(6)
C9 C 0.0640(13) 0.3318(6) 0.8826(5)
In5 In 0.46697(8) 0.40123(4) 0.94673(4)
In7 In 0.46697(8) 0.09877(4) 0.44673(4)
In10_2 In -0.0000 0.5000 1.0000
O13 O 0.6809(9) 0.0197(4) 0.6258(4)
O28 O 0.3087(8) 0.0123(4) 0.5287(4)
In2_2 In -0.0000 1.0000 0.5000
In3 In 0.53303(8) 0.90123(4) 0.55327(4)
In9 In 0.53303(8) 0.59877(4) 0.05327(4)
O10 O 0.4259(9) 0.8416(5) 0.4381(4)
O11 O 0.3191(9) 0.9803(4) 0.3742(4)
O14 O 0.0138(9) 0.8800(4) 0.4262(3)
O18 O 0.7678(9) 0.8063(5) 0.5869(4)
O19 O 0.0238(9) 0.5952(5) 0.0997(4)
O21 O 0.0238(9) 0.9048(5) 0.5997(4)
O22 O 0.3361(10) 0.7192(5) 0.0781(4)
O24 O 0.3361(10) 0.7808(5) 0.5781(4)
O25 O 0.4677(10) 0.6240(5) 0.1744(4)
O27 O 0.4677(10) 0.8760(5) 0.6744(4)
O30 O 0.6913(8) 0.9877(4) 0.4713(4)
C11 C 0.2204(12) 0.8298(7) 0.3156(5)
C12 C 0.0238(12) 0.8224(6) 0.3004(5)
C14 C 0.0349(12) 0.7313(6) 0.1840(5)
C15 C 0.2336(13) 0.7369(7) 0.2001(5)
C16 C 0.3247(12) 0.7859(6) 0.2657(5)
H4 H 0.4585 0.7896 0.2766
C17 C 0.3282(12) 0.8882(7) 0.3825(5)
C20 C 0.3498(13) 0.6895(7) 0.1475(5)
In10_3 In 1.0000 0.5000 0.0000
In2_3 In 1.0000 0.0000 0.5000
O1 O 0.5741(9) 0.1584(5) 0.5619(4)
O3 O 0.9862(9) 0.1200(4) 0.5738(3)
O6 O 0.9762(9) 0.4048(5) 0.9003(4)
O7 O 0.6639(10) 0.2808(5) 0.9219(4)
O8 O 0.5323(10) 0.3760(5) 0.8256(4)
C1 C 0.7796(12) 0.1702(7) 0.6844(5)
C2 C 0.9762(12) 0.1776(6) 0.6996(5)
C4 C 0.9651(12) 0.2687(6) 0.8160(5)
C5 C 0.7664(13) 0.2631(7) 0.7999(5)
C6 C 0.6753(12) 0.2141(6) 0.7343(5)
H2 H 0.5415 0.2104 0.7234
C7 C 0.6718(12) 0.1118(7) 0.6175(5)
C10 C 0.6502(13) 0.3105(7) 0.8525(5)
In10_4 In 1.0000 0.5000 1.0000
O17 O 0.2322(9) 0.1937(5) 0.4131(4)
O20 O 0.9762(9) 0.0952(5) 0.4003(4)
O23 O 0.6639(10) 0.2192(5) 0.4219(4)
O26 O 0.5323(10) 0.1240(5) 0.3256(4)
In2_4 In 1.0000 1.0000 0.5000
O15 O 0.7455(9) 0.8887(5) 0.3376(4)
O16 O 0.7678(9) 0.6937(5) 0.0869(4)
C13 C 0.9309(12) 0.7754(7) 0.2341(5)
H3 H 0.7969 0.7733 0.2229
C18 C 0.9144(13) 0.8671(7) 0.3585(6)
C19 C 0.9360(13) 0.6682(6) 0.1174(5)
O9 O 0.3087(8) 0.4877(4) 0.0287(4)
O12 O 0.6809(9) 0.4803(4) 0.1258(4)
O15_2 O 0.2545(9) 0.3887(5) 0.1624(4)
C13_2 C 0.0691(12) 0.2754(7) 0.2659(5)
H3_2 H 0.2031 0.2733 0.2771
C18_2 C 0.0856(13) 0.3671(7) 0.1415(6)
C19_2 C 0.0640(13) 0.1682(6) 0.3826(5)
O1_2 O 0.4259(9) 0.6584(5) 0.9381(4)
O2 O 0.3191(9) 0.5197(4) 0.8742(4)
O3_2 O 0.0138(9) 0.6200(4) 0.9262(3)
C1_2 C 0.2204(12) 0.6702(7) 0.8156(5)
C2_2 C 0.0238(12) 0.6776(6) 0.8004(5)
C4_2 C 0.0349(12) 0.7687(6) 0.6840(5)
C5_2 C 0.2336(13) 0.7631(7) 0.7001(5)
C6_2 C 0.3247(12) 0.7141(6) 0.7657(5)
H2_2 H 0.4585 0.7104 0.7766
C7_2 C 0.3282(12) 0.6118(7) 0.8825(5)
C10_2 C 0.3498(13) 0.8105(7) 0.6475(5)
O29 O 0.6913(8) 0.5123(4) 0.9713(4)
O10_2 O 0.5741(9) 0.3416(5) 0.0619(4)
O14_2 O 0.9862(9) 0.3800(4) 0.0738(3)
C11_2 C 0.7796(12) 0.3298(7) 0.1844(5)
C12_2 C 0.9762(12) 0.3224(6) 0.1996(5)
C14_2 C 0.9651(12) 0.2313(6) 0.3160(5)
C15_2 C 0.7664(13) 0.2369(7) 0.2999(5)
C16_2 C 0.6753(12) 0.2859(6) 0.2343(5)
H4_2 H 0.5415 0.2896 0.2234
C17_2 C 0.6718(12) 0.3882(7) 0.1175(5)
C20_2 C 0.6502(13) 0.1895(7) 0.3525(5)
O4_2 O 0.7455(9) 0.6113(5) 0.8376(4)
C3_2 C 0.9309(12) 0.7246(7) 0.7341(5)
H1_2 H 0.7969 0.7267 0.7229
C8_2 C 0.9144(13) 0.6329(7) 0.8585(6)
C9_2 C 0.9360(13) 0.8318(6) 0.6174(5)
loop_
_geom_bond_atom_site_label_1
_geom_bond_atom_site_label_2
_geom_bond_site_symmetry_1
_geom_bond_site_symmetry_2
O4 C8 1_555 1_555
O5 C9 1_555 1_555
C3 H1 1_555 1_555
In5 O5 1_555 1_555
O28 In2 1_555 1_555
In7 O28 1_555 1_555
In3 O10 1_555 1_555
In9 O22 1_555 1_555
In10 O19 1_555 1_555
O10 C17 1_555 1_555
O11 C17 1_555 1_555
O14 In2_2 1_555 1_555
O18 In3 1_555 1_555
O21 In2_2 1_555 1_555
O22 C20 1_555 1_555
O24 In3 1_555 1_555
O25 In9 1_555 1_555
O27 In3 1_555 1_555
O30 In3 1_555 1_555
C11 C12 1_555 1_555
C15 C14 1_555 1_555
C16 C11 1_555 1_555
H4 C16 1_555 1_555
C17 C11 1_555 1_555
C20 O25 1_555 1_555
C15 C16 1_555 1_555
C15 C20 1_555 1_555
In7 O1 1_555 1_555
In2_3 O3 1_555 1_555
O1 C7 1_555 1_555
O13 C7 1_555 1_555
O7 C10 1_555 1_555
O8 C10 1_555 1_555
C1 C2 1_555 1_555
C5 C4 1_555 1_555
C6 C1 1_555 1_555
H2 C6 1_555 1_555
C7 C1 1_555 1_555
C10 C5 1_555 1_555
In5 O7 1_555 1_555
In10_4 O6 1_555 1_555
O17 In7 1_555 1_555
O20 In2_3 1_555 1_555
O23 In7 1_555 1_555
O26 In7 1_555 1_555
O8 In5 1_555 1_555
C5 C6 1_555 1_555
In9 O16 1_555 1_555
O15 C18 1_555 1_555
O16 C19 1_555 1_555
C13 H3 1_555 1_555
In2_4 O30 1_555 1_555
O9 In9 1_555 1_555
O12 In9 1_555 1_555
O15_2 C18_2 1_555 1_555
O17 C19_2 1_555 1_555
C13_2 H3_2 1_555 1_555
In10 O9 1_555 1_555
In10_2 O3_2 1_555 1_555
O1_2 C7_2 1_555 1_555
O2 C7_2 1_555 1_555
O24 C10_2 1_555 1_555
O27 C10_2 1_555 1_555
C1_2 C2_2 1_555 1_555
C5_2 C4_2 1_555 1_555
C6_2 C1_2 1_555 1_555
H2_2 C6_2 1_555 1_555
C7_2 C1_2 1_555 1_555
C10_2 C5_2 1_555 1_555
In5 O2 1_555 1_555
C5_2 C6_2 1_555 1_555
In5 O29 1_555 1_555
O10_2 C17_2 1_555 1_555
O12 C17_2 1_555 1_555
O14_2 In10_3 1_555 1_555
O23 C20_2 1_555 1_555
C11_2 C12_2 1_555 1_555
C15_2 C14_2 1_555 1_555
C16_2 C11_2 1_555 1_555
H4_2 C16_2 1_555 1_555
C17_2 C11_2 1_555 1_555
C20_2 O26 1_555 1_555
C15_2 C16_2 1_555 1_555
C15_2 C20_2 1_555 1_555
O4_2 C8_2 1_555 1_555
O18 C9_2 1_555 1_555
C3_2 H1_2 1_555 1_555
O29 In10_4 1_555 1_555

#END
