
###############################################################################
#
# This file contains modified crystal structure data generated from the
# MOF subset of the Cambridge Structural Database (CSD) v543 
# hosted by the Cambridge Crystallographic Data Centre (CCDC).
#
# This work is licensed under the Creative Commons
# Attribution-NonCommercial-ShareAlike 4.0 International License.
# To view a copy of this license, visit
# http://creativecommons.org/licenses/by-nc-sa/4.0/
# or send a letter to
# Creative Commons, PO Box 1866, Mountain View, CA 94042, USA.
#
# CIF created using the CSD Python API on 29 September 2022
# The structure has been converted into the P1 space group
# The structure has a 3D framework
# The original CSD entry CARDUY is in the monoclinic crystal system
# The framework has been calculated to contain at least 10.0% void space
# The void calculation uses a probe of radius 1.32A, grid spacing 0.4
#
###############################################################################

data_CARDUY
_chemical_formula_moiety         '(C144 H128 N8 Nd8 O64)n'
_symmetry_cell_setting           triclinic
_symmetry_space_group_name_H-M   'P 1'
_symmetry_Int_Tables_number      1
_space_group_name_Hall           'P 1'
loop_
_symmetry_equiv_pos_site_id
_symmetry_equiv_pos_as_xyz
1 x,y,z
_cell_length_a                   24.892(5)
_cell_length_b                   12.721(3)
_cell_length_c                   14.975(3)
_cell_angle_alpha                90
_cell_angle_beta                 96.32(3)
_cell_angle_gamma                90
_cell_volume                     4713.03
loop_
_atom_site_label
_atom_site_type_symbol
_atom_site_fract_x
_atom_site_fract_y
_atom_site_fract_z
C3 C 0.00851(14) 0.2259(3) 0.3825(3)
C5 C 0.03935(13) 0.4364(3) 0.3929(2)
H3 H 0.049275 0.506870 0.396232
C6 C 0.05708(13) 0.2573(3) 0.3529(2)
H4 H 0.078681 0.207916 0.328159
C7 C 0.07387(12) 0.3623(2) 0.35970(19)
C8 C 0.12827(12) 0.3935(2) 0.33671(19)
C9 C 0.15045(12) 0.3451(3) 0.26467(19)
H5 H 0.129951 0.297034 0.228588
C10 C 0.15912(12) 0.4682(2) 0.3879(2)
H6 H 0.144201 0.504566 0.433079
C11 C 0.21238(11) 0.4887(2) 0.37144(19)
C12 C 0.23446(12) 0.4378(2) 0.30135(19)
H7 H 0.270105 0.450457 0.291323
C13 C 0.20309(11) 0.3686(2) 0.24697(18)
C14 C 0.22507(12) 0.3159(2) 0.1679(2)
C15 C 0.24743(12) 0.5623(2) 0.4305(2)
O1 O 0.27232(9) 0.3410(2) 0.15247(15)
O2 O 0.19481(9) 0.2511(2) 0.12424(15)
O3 O 0.22630(8) 0.64027(18) 0.46679(14)
O4 O 0.29707(9) 0.54325(19) 0.44473(18)
Nd3 Nd 0.32774(2) 0.70251(2) 0.53259(2)
Nd4 Nd 0.17226(2) 0.79749(2) 0.46741(2)
Nd5 Nd 0.32774(2) 0.29749(2) 0.03259(2)
O10 O 0.27370(8) 0.14027(18) 0.03321(14)
O12 O 0.20293(9) 0.04325(19) 0.05527(18)
O13 O 0.08695(11) 0.1698(2) 0.0387(2)
O14 O 0.10283(10) 0.3360(2) 0.00752(18)
Nd1 Nd 0.17226(2) 0.20251(2) 0.96741(2)
C16 C 0.1319(7) 0.2965(9) 0.7617(6)
H8 H 0.166935 0.280228 0.750283
C17 C 0.0456(6) 0.3211(13) 0.6768(13)
H9 H 0.035581 0.299965 0.615735
H10 H 0.025552 0.382738 0.689668
H11 H 0.037667 0.265303 0.716517
C18 C 0.1306(6) 0.4045(10) 0.6254(9)
H12 H 0.116468 0.474771 0.621960
H13 H 0.124200 0.371680 0.567456
H14 H 0.168814 0.406820 0.643696
N1 N 0.1042(5) 0.3447(9) 0.6901(4)
O7 O 0.12657(15) 0.0468(3) 0.8906(3)
H16 H 0.107196 0.078430 0.852037
O8 O 0.12475(14) 0.2723(3) 0.8266(2)
O9 O 0.22768(9) 0.1590(2) 0.84753(15)
O11 O 0.22630(8) 0.35973(18) 0.96679(14)
C1 C 0.92512(13) 0.2673(3) 0.4596(2)
C2 C 0.97536(13) 0.2999(2) 0.4185(2)
H1 H 0.998103 0.155675 0.378318
C4 C 0.99036(13) 0.4050(3) 0.4208(2)
H2 H 0.967364 0.455013 0.441173
O5 O 0.91305(11) 0.1698(2) 0.4613(2)
O6 O 0.89717(10) 0.3360(2) 0.49248(18)
Nd2 Nd 0.82774(2) 0.20251(2) 0.53259(2)
C1_2 C 0.07488(13) 0.2673(3) 0.0404(2)
C2_2 C 0.02464(13) 0.2999(2) 0.0815(2)
H1_2 H 0.001897 0.155675 0.121682
C4_2 C 0.00964(13) 0.4050(3) 0.0792(2)
H2_2 H 0.032636 0.455013 0.058827
C3_2 C 0.99149(14) 0.2259(3) 0.1175(3)
C5_2 C 0.96065(13) 0.4364(3) 0.1071(2)
H3_2 H 0.950725 0.506870 0.103768
C6_2 C 0.94292(13) 0.2573(3) 0.1471(2)
H4_2 H 0.921319 0.207916 0.171841
C7_2 C 0.92613(12) 0.3623(2) 0.14030(19)
C8_2 C 0.87173(12) 0.3935(2) 0.16329(19)
C9_2 C 0.84955(12) 0.3451(3) 0.23533(19)
H5_2 H 0.870049 0.297034 0.271412
C10_2 C 0.84088(12) 0.4682(2) 0.1121(2)
H6_2 H 0.855799 0.504566 0.066921
C11_2 C 0.78762(11) 0.4887(2) 0.12856(19)
C12_2 C 0.76554(12) 0.4378(2) 0.19865(19)
H7_2 H 0.729895 0.450457 0.208677
C13_2 C 0.79691(11) 0.3686(2) 0.25303(18)
C14_2 C 0.77493(12) 0.3159(2) 0.3321(2)
C15_2 C 0.75257(12) 0.5623(2) 0.0695(2)
C16_2 C 0.8681(7) 0.2965(9) 0.7383(6)
H8_2 H 0.833065 0.280228 0.749717
C17_2 C 0.9544(6) 0.3211(13) 0.8232(13)
H9_2 H 0.964419 0.299965 0.884265
H10_2 H 0.974448 0.382738 0.810332
H11_2 H 0.962333 0.265303 0.783483
C18_2 C 0.8694(6) 0.4045(10) 0.8746(9)
H12_2 H 0.883532 0.474771 0.878040
H13_2 H 0.875800 0.371680 0.932544
H14_2 H 0.831186 0.406820 0.856304
N1_2 N 0.8958(5) 0.3447(9) 0.8099(4)
O1_2 O 0.72768(9) 0.3410(2) 0.34753(15)
O2_2 O 0.80519(9) 0.2511(2) 0.37576(15)
O3_2 O 0.77370(8) 0.64027(18) 0.03321(14)
O4_2 O 0.70293(9) 0.54325(19) 0.05527(18)
O7_2 O 0.87343(15) 0.0468(3) 0.6094(3)
H16_2 H 0.892804 0.078430 0.647963
O8_2 O 0.87525(14) 0.2723(3) 0.6734(2)
Nd4_2 Nd 0.82774(2) 0.79749(2) 0.03259(2)
Nd5_2 Nd 0.67226(2) 0.29749(2) 0.46741(2)
O9_2 O 0.77232(9) 0.1590(2) 0.65247(15)
O10_2 O 0.72630(8) 0.14027(18) 0.46679(14)
O11_2 O 0.77370(8) 0.35973(18) 0.53321(14)
O12_2 O 0.79707(9) 0.04325(19) 0.44473(18)
Nd3_2 Nd 0.67226(2) 0.70251(2) 0.96741(2)
H3_3 H 0.549275 0.006870 0.396232
H6_3 H 0.644201 0.004566 0.433079
C15_3 C 0.74743(12) 0.0623(2) 0.4305(2)
C1_3 C 0.42512(13) 0.7673(3) 0.4596(2)
C2_3 C 0.47536(13) 0.7999(2) 0.4185(2)
C3_3 C 0.50851(14) 0.7259(3) 0.3825(3)
H1_3 H 0.498103 0.655675 0.378318
C4_3 C 0.49036(13) 0.9050(3) 0.4208(2)
H2_3 H 0.467364 0.955013 0.441173
C5_3 C 0.53935(13) 0.9364(3) 0.3929(2)
C6_3 C 0.55708(13) 0.7573(3) 0.3529(2)
H4_3 H 0.578681 0.707916 0.328159
C7_3 C 0.57387(12) 0.8623(2) 0.35970(19)
C8_3 C 0.62827(12) 0.8935(2) 0.33671(19)
C9_3 C 0.65045(12) 0.8451(3) 0.26467(19)
H5_3 H 0.629951 0.797034 0.228588
C10_3 C 0.65912(12) 0.9682(2) 0.3879(2)
C11_3 C 0.71238(11) 0.9887(2) 0.37144(19)
C12_3 C 0.73446(12) 0.9378(2) 0.30135(19)
H7_3 H 0.770105 0.950457 0.291323
C13_3 C 0.70309(11) 0.8686(2) 0.24697(18)
C14_3 C 0.72507(12) 0.8159(2) 0.1679(2)
O1_3 O 0.77232(9) 0.8410(2) 0.15247(15)
O2_3 O 0.69481(9) 0.7511(2) 0.12424(15)
O5_2 O 0.41305(11) 0.6698(2) 0.4613(2)
O6_2 O 0.39717(10) 0.8360(2) 0.49248(18)
O13_2 O 0.58695(11) 0.6698(2) 0.0387(2)
O14_2 O 0.60283(10) 0.8360(2) 0.00752(18)
C16_3 C 0.6319(7) 0.7965(9) 0.7617(6)
H8_3 H 0.666935 0.780228 0.750283
C17_3 C 0.5456(6) 0.8211(13) 0.6768(13)
H9_3 H 0.535581 0.799965 0.615735
H10_3 H 0.525552 0.882738 0.689668
H11_3 H 0.537667 0.765303 0.716517
C18_3 C 0.6306(6) 0.9045(10) 0.6254(9)
H12_3 H 0.616468 0.974771 0.621960
H13_3 H 0.624200 0.871680 0.567456
H14_3 H 0.668814 0.906820 0.643696
N1_3 N 0.6042(5) 0.8447(9) 0.6901(4)
O7_3 O 0.62657(15) 0.5468(3) 0.8906(3)
H15 H 0.629416 0.486180 0.873457
H16_3 H 0.607196 0.578430 0.852037
O8_3 O 0.62475(14) 0.7723(3) 0.8266(2)
O9_3 O 0.72768(9) 0.6590(2) 0.84753(15)
O11_3 O 0.72630(8) 0.85973(18) 0.96679(14)
H3_4 H 0.450725 0.006870 0.103768
H6_4 H 0.355799 0.004566 0.066921
C15_4 C 0.25257(12) 0.0623(2) 0.0695(2)
C1_4 C 0.57488(13) 0.7673(3) 0.0404(2)
C2_4 C 0.52464(13) 0.7999(2) 0.0815(2)
C3_4 C 0.49149(14) 0.7259(3) 0.1175(3)
H1_4 H 0.501897 0.655675 0.121682
C4_4 C 0.50964(13) 0.9050(3) 0.0792(2)
H2_4 H 0.532636 0.955013 0.058827
C5_4 C 0.46065(13) 0.9364(3) 0.1071(2)
C6_4 C 0.44292(13) 0.7573(3) 0.1471(2)
H4_4 H 0.421319 0.707916 0.171841
C7_4 C 0.42613(12) 0.8623(2) 0.14030(19)
C8_4 C 0.37173(12) 0.8935(2) 0.16329(19)
C9_4 C 0.34955(12) 0.8451(3) 0.23533(19)
H5_4 H 0.370049 0.797034 0.271412
C10_4 C 0.34088(12) 0.9682(2) 0.1121(2)
C11_4 C 0.28762(11) 0.9887(2) 0.12856(19)
C12_4 C 0.26554(12) 0.9378(2) 0.19865(19)
H7_4 H 0.229895 0.950457 0.208677
C13_4 C 0.29691(11) 0.8686(2) 0.25303(18)
C14_4 C 0.27493(12) 0.8159(2) 0.3321(2)
C16_4 C 0.3681(7) 0.7965(9) 0.7383(6)
H8_4 H 0.333065 0.780228 0.749717
C17_4 C 0.4544(6) 0.8211(13) 0.8232(13)
H9_4 H 0.464419 0.799965 0.884265
H10_4 H 0.474448 0.882738 0.810332
H11_4 H 0.462333 0.765303 0.783483
C18_4 C 0.3694(6) 0.9045(10) 0.8746(9)
H12_4 H 0.383532 0.974771 0.878040
H13_4 H 0.375800 0.871680 0.932544
H14_4 H 0.331186 0.906820 0.856304
N1_4 N 0.3958(5) 0.8447(9) 0.8099(4)
O1_4 O 0.22768(9) 0.8410(2) 0.34753(15)
O2_4 O 0.30519(9) 0.7511(2) 0.37576(15)
O7_4 O 0.37343(15) 0.5468(3) 0.6094(3)
H15_2 H 0.370584 0.486180 0.626543
H16_4 H 0.392804 0.578430 0.647963
O8_4 O 0.37525(14) 0.7723(3) 0.6734(2)
O9_4 O 0.27232(9) 0.6590(2) 0.65247(15)
O11_4 O 0.27370(8) 0.85973(18) 0.53321(14)
C1_5 C 0.07488(13) 0.7327(3) 0.5404(2)
C2_5 C 0.02464(13) 0.7001(2) 0.5815(2)
H1_5 H 0.001897 0.844325 0.621682
C4_5 C 0.00964(13) 0.5950(3) 0.5792(2)
H2_5 H 0.032636 0.544987 0.558827
O5_3 O 0.08695(11) 0.8302(2) 0.5387(2)
O6_3 O 0.10283(10) 0.6640(2) 0.50752(18)
C16_5 C 0.8681(7) 0.7035(9) 0.2383(6)
H8_5 H 0.833065 0.719772 0.249717
C17_5 C 0.9544(6) 0.6789(13) 0.3232(13)
H9_5 H 0.964419 0.700035 0.384265
H10_5 H 0.974448 0.617262 0.310332
H11_5 H 0.962333 0.734697 0.283483
C18_5 C 0.8694(6) 0.5955(10) 0.3746(9)
H12_5 H 0.883532 0.525229 0.378040
H13_5 H 0.875800 0.628320 0.432544
H14_5 H 0.831186 0.593180 0.356304
N1_5 N 0.8958(5) 0.6553(9) 0.3099(4)
O7_5 O 0.87343(15) 0.9532(3) 0.1094(3)
H16_5 H 0.892804 0.921570 0.147963
O8_5 O 0.87525(14) 0.7277(3) 0.1734(2)
C3_5 C 0.99149(14) 0.7741(3) 0.6175(3)
C5_5 C 0.96065(13) 0.5636(3) 0.6071(2)
H3_5 H 0.950725 0.493130 0.603768
C6_5 C 0.94292(13) 0.7427(3) 0.6471(2)
H4_5 H 0.921319 0.792084 0.671841
C7_5 C 0.92613(12) 0.6377(2) 0.64030(19)
C8_5 C 0.87173(12) 0.6065(2) 0.66329(19)
C9_5 C 0.84955(12) 0.6549(3) 0.73533(19)
H5_5 H 0.870049 0.702966 0.771412
C10_5 C 0.84088(12) 0.5318(2) 0.6121(2)
H6_5 H 0.855799 0.495434 0.566921
C11_5 C 0.78762(11) 0.5113(2) 0.62856(19)
C12_5 C 0.76554(12) 0.5622(2) 0.69865(19)
H7_5 H 0.729895 0.549543 0.708677
C13_5 C 0.79691(11) 0.6314(2) 0.75303(18)
C14_5 C 0.77493(12) 0.6841(2) 0.8321(2)
C15_5 C 0.75257(12) 0.4377(2) 0.5695(2)
O2_5 O 0.80519(9) 0.7489(2) 0.87576(15)
O4_3 O 0.70293(9) 0.45675(19) 0.55527(18)
O12_3 O 0.79707(9) 0.95675(19) 0.94473(18)
O13_3 O 0.91305(11) 0.8302(2) 0.9613(2)
O14_3 O 0.89717(10) 0.6640(2) 0.99248(18)
C3_6 C 0.00851(14) 0.7741(3) 0.8825(3)
C5_6 C 0.03935(13) 0.5636(3) 0.8929(2)
H3_6 H 0.049275 0.493130 0.896232
C6_6 C 0.05708(13) 0.7427(3) 0.8529(2)
H4_6 H 0.078681 0.792084 0.828159
C7_6 C 0.07387(12) 0.6377(2) 0.85970(19)
C8_6 C 0.12827(12) 0.6065(2) 0.83671(19)
C9_6 C 0.15045(12) 0.6549(3) 0.76467(19)
H5_6 H 0.129951 0.702966 0.728588
C10_6 C 0.15912(12) 0.5318(2) 0.8879(2)
H6_6 H 0.144201 0.495434 0.933079
C11_6 C 0.21238(11) 0.5113(2) 0.87144(19)
C12_6 C 0.23446(12) 0.5622(2) 0.80135(19)
H7_6 H 0.270105 0.549543 0.791323
C13_6 C 0.20309(11) 0.6314(2) 0.74697(18)
C14_6 C 0.22507(12) 0.6841(2) 0.6679(2)
C15_6 C 0.24743(12) 0.4377(2) 0.9305(2)
C16_6 C 0.1319(7) 0.7035(9) 0.2617(6)
H8_6 H 0.166935 0.719772 0.250283
C17_6 C 0.0456(6) 0.6789(13) 0.1768(13)
H9_6 H 0.035581 0.700035 0.115735
H10_6 H 0.025552 0.617262 0.189668
H11_6 H 0.037667 0.734697 0.216517
C18_6 C 0.1306(6) 0.5955(10) 0.1254(9)
H12_6 H 0.116468 0.525229 0.121960
H13_6 H 0.124200 0.628320 0.067456
H14_6 H 0.168814 0.593180 0.143696
N1_6 N 0.1042(5) 0.6553(9) 0.1901(4)
O2_6 O 0.19481(9) 0.7489(2) 0.62424(15)
O4_4 O 0.29707(9) 0.45675(19) 0.94473(18)
O7_6 O 0.12657(15) 0.9532(3) 0.3906(3)
H16_6 H 0.107196 0.921570 0.352037
O8_6 O 0.12475(14) 0.7277(3) 0.3266(2)
O12_4 O 0.20293(9) 0.95675(19) 0.55527(18)
C1_6 C 0.92512(13) 0.7327(3) 0.9596(2)
C2_6 C 0.97536(13) 0.7001(2) 0.9185(2)
H1_6 H 0.998103 0.844325 0.878318
C4_6 C 0.99036(13) 0.5950(3) 0.9208(2)
H2_6 H 0.967364 0.544987 0.941173
C16_7 C 0.3681(7) 0.2035(9) 0.2383(6)
H8_7 H 0.333065 0.219772 0.249717
C17_7 C 0.4544(6) 0.1789(13) 0.3232(13)
H9_7 H 0.464419 0.200035 0.384265
H10_7 H 0.474448 0.117262 0.310332
H11_7 H 0.462333 0.234697 0.283483
C18_7 C 0.3694(6) 0.0955(10) 0.3746(9)
H12_7 H 0.383532 0.025229 0.378040
H13_7 H 0.375800 0.128320 0.432544
H14_7 H 0.331186 0.093180 0.356304
N1_7 N 0.3958(5) 0.1553(9) 0.3099(4)
O7_7 O 0.37343(15) 0.4532(3) 0.1094(3)
H15_3 H 0.370584 0.513820 0.126543
H16_7 H 0.392804 0.421570 0.147963
O8_7 O 0.37525(14) 0.2277(3) 0.1734(2)
C1_7 C 0.57488(13) 0.2327(3) 0.5404(2)
C2_7 C 0.52464(13) 0.2001(2) 0.5815(2)
C3_7 C 0.49149(14) 0.2741(3) 0.6175(3)
H1_7 H 0.501897 0.344325 0.621682
C4_7 C 0.50964(13) 0.0950(3) 0.5792(2)
H2_7 H 0.532636 0.044987 0.558827
C5_7 C 0.46065(13) 0.0636(3) 0.6071(2)
C6_7 C 0.44292(13) 0.2427(3) 0.6471(2)
H4_7 H 0.421319 0.292084 0.671841
C7_7 C 0.42613(12) 0.1377(2) 0.64030(19)
C8_7 C 0.37173(12) 0.1065(2) 0.66329(19)
C9_7 C 0.34955(12) 0.1549(3) 0.73533(19)
H5_7 H 0.370049 0.202966 0.771412
C10_7 C 0.34088(12) 0.0318(2) 0.6121(2)
C11_7 C 0.28762(11) 0.0113(2) 0.62856(19)
C12_7 C 0.26554(12) 0.0622(2) 0.69865(19)
H7_7 H 0.229895 0.049543 0.708677
C13_7 C 0.29691(11) 0.1314(2) 0.75303(18)
C14_7 C 0.27493(12) 0.1841(2) 0.8321(2)
O2_7 O 0.30519(9) 0.2489(2) 0.87576(15)
O5_4 O 0.58695(11) 0.3302(2) 0.5387(2)
O6_4 O 0.60283(10) 0.1640(2) 0.50752(18)
O13_4 O 0.41305(11) 0.3302(2) 0.9613(2)
O14_4 O 0.39717(10) 0.1640(2) 0.99248(18)
H3_7 H 0.450725 0.993130 0.603768
H6_7 H 0.355799 0.995434 0.566921
C15_7 C 0.25257(12) 0.9377(2) 0.5695(2)
C1_8 C 0.42512(13) 0.2327(3) 0.9596(2)
C2_8 C 0.47536(13) 0.2001(2) 0.9185(2)
C3_8 C 0.50851(14) 0.2741(3) 0.8825(3)
H1_8 H 0.498103 0.344325 0.878318
C4_8 C 0.49036(13) 0.0950(3) 0.9208(2)
H2_8 H 0.467364 0.044987 0.941173
C5_8 C 0.53935(13) 0.0636(3) 0.8929(2)
C6_8 C 0.55708(13) 0.2427(3) 0.8529(2)
H4_8 H 0.578681 0.292084 0.828159
C7_8 C 0.57387(12) 0.1377(2) 0.85970(19)
C8_8 C 0.62827(12) 0.1065(2) 0.83671(19)
C9_8 C 0.65045(12) 0.1549(3) 0.76467(19)
H5_8 H 0.629951 0.202966 0.728588
C10_8 C 0.65912(12) 0.0318(2) 0.8879(2)
C11_8 C 0.71238(11) 0.0113(2) 0.87144(19)
C12_8 C 0.73446(12) 0.0622(2) 0.80135(19)
H7_8 H 0.770105 0.049543 0.791323
C13_8 C 0.70309(11) 0.1314(2) 0.74697(18)
C14_8 C 0.72507(12) 0.1841(2) 0.6679(2)
C16_8 C 0.6319(7) 0.2035(9) 0.2617(6)
H8_8 H 0.666935 0.219772 0.250283
C17_8 C 0.5456(6) 0.1789(13) 0.1768(13)
H9_8 H 0.535581 0.200035 0.115735
H10_8 H 0.525552 0.117262 0.189668
H11_8 H 0.537667 0.234697 0.216517
C18_8 C 0.6306(6) 0.0955(10) 0.1254(9)
H12_8 H 0.616468 0.025229 0.121960
H13_8 H 0.624200 0.128320 0.067456
H14_8 H 0.668814 0.093180 0.143696
N1_8 N 0.6042(5) 0.1553(9) 0.1901(4)
O2_8 O 0.69481(9) 0.2489(2) 0.62424(15)
O7_8 O 0.62657(15) 0.4532(3) 0.3906(3)
H15_4 H 0.629416 0.513820 0.373457
H16_8 H 0.607196 0.421570 0.352037
O8_8 O 0.62475(14) 0.2277(3) 0.3266(2)
H3_8 H 0.549275 0.993130 0.896232
H6_8 H 0.644201 0.995434 0.933079
C15_8 C 0.74743(12) 0.9377(2) 0.9305(2)
H15_5 H 0.129416 0.986180 0.873457
H15_6 H 0.870584 0.986180 0.626543
H15_7 H 0.870584 0.013820 0.126543
H15_8 H 0.129416 0.013820 0.373457
loop_
_geom_bond_atom_site_label_1
_geom_bond_atom_site_label_2
_geom_bond_site_symmetry_1
_geom_bond_site_symmetry_2
H3 C5 1_555 1_555
C6 C3 1_555 1_555
H4 C6 1_555 1_555
C7 C5 1_555 1_555
C8 C7 1_555 1_555
C9 C8 1_555 1_555
H5 C9 1_555 1_555
C10 C8 1_555 1_555
H6 C10 1_555 1_555
C11 C10 1_555 1_555
C12 C11 1_555 1_555
H7 C12 1_555 1_555
C13 C9 1_555 1_555
C14 C13 1_555 1_555
C15 C11 1_555 1_555
O1 C14 1_555 1_555
O2 C14 1_555 1_555
O3 C15 1_555 1_555
O4 C15 1_555 1_555
Nd3 O3 1_555 1_555
Nd4 O3 1_555 1_555
Nd5 O1 1_555 1_555
C6 C7 1_555 1_555
C12 C13 1_555 1_555
O4 Nd3 1_555 1_555
Nd5 O10 1_555 1_555
C16 H8 1_555 1_555
C17 H9 1_555 1_555
H10 C17 1_555 1_555
H11 C17 1_555 1_555
C18 H12 1_555 1_555
H13 C18 1_555 1_555
H14 C18 1_555 1_555
N1 C16 1_555 1_555
O7 Nd1 1_555 1_555
H16 O7 1_555 1_555
O8 Nd1 1_555 1_555
O9 Nd1 1_555 1_555
O11 Nd1 1_555 1_555
C16 O8 1_555 1_555
C17 N1 1_555 1_555
C18 N1 1_555 1_555
C1 C2 1_555 1_555
C4 C2 1_555 1_555
H2 C4 1_555 1_555
O5 C1 1_555 1_555
O6 C1 1_555 1_555
Nd2 O5 1_555 1_555
O6 Nd2 1_555 1_555
C1_2 C2_2 1_555 1_555
C4_2 C2_2 1_555 1_555
H2_2 C4_2 1_555 1_555
O13 C1_2 1_555 1_555
O14 C1_2 1_555 1_555
Nd2 O2_2 1_555 1_555
H3_2 C5_2 1_555 1_555
C6_2 C3_2 1_555 1_555
H4_2 C6_2 1_555 1_555
C7_2 C5_2 1_555 1_555
C8_2 C7_2 1_555 1_555
C9_2 C8_2 1_555 1_555
H5_2 C9_2 1_555 1_555
C10_2 C8_2 1_555 1_555
H6_2 C10_2 1_555 1_555
C11_2 C10_2 1_555 1_555
C12_2 C11_2 1_555 1_555
H7_2 C12_2 1_555 1_555
C13_2 C9_2 1_555 1_555
C14_2 C13_2 1_555 1_555
C15_2 C11_2 1_555 1_555
C16_2 H8_2 1_555 1_555
C17_2 H9_2 1_555 1_555
H10_2 C17_2 1_555 1_555
H11_2 C17_2 1_555 1_555
C18_2 H12_2 1_555 1_555
H13_2 C18_2 1_555 1_555
H14_2 C18_2 1_555 1_555
N1_2 C16_2 1_555 1_555
O1_2 C14_2 1_555 1_555
O2_2 C14_2 1_555 1_555
O3_2 C15_2 1_555 1_555
O4_2 C15_2 1_555 1_555
O7_2 Nd2 1_555 1_555
H16_2 O7_2 1_555 1_555
O8_2 Nd2 1_555 1_555
Nd4_2 O3_2 1_555 1_555
Nd5_2 O1_2 1_555 1_555
O9_2 Nd2 1_555 1_555
O10_2 Nd2 1_555 1_555
O11_2 Nd2 1_555 1_555
O12_2 Nd2 1_555 1_555
C6_2 C7_2 1_555 1_555
C12_2 C13_2 1_555 1_555
C16_2 O8_2 1_555 1_555
C17_2 N1_2 1_555 1_555
C18_2 N1_2 1_555 1_555
Nd5_2 O10_2 1_555 1_555
Nd5_2 O11_2 1_555 1_555
O10_2 C15_3 1_555 1_555
O12_2 C15_3 1_555 1_555
C1_3 C2_3 1_555 1_555
C2_3 C3_3 1_555 1_555
C3_3 H1_3 1_555 1_555
C4_3 C2_3 1_555 1_555
H2_3 C4_3 1_555 1_555
C5_3 C4_3 1_555 1_555
C6_3 C3_3 1_555 1_555
H4_3 C6_3 1_555 1_555
C7_3 C5_3 1_555 1_555
C8_3 C7_3 1_555 1_555
C9_3 C8_3 1_555 1_555
H5_3 C9_3 1_555 1_555
C10_3 C8_3 1_555 1_555
C11_3 C10_3 1_555 1_555
C12_3 C11_3 1_555 1_555
H7_3 C12_3 1_555 1_555
C13_3 C9_3 1_555 1_555
C14_3 C13_3 1_555 1_555
O1_3 C14_3 1_555 1_555
O2_3 C14_3 1_555 1_555
O5_2 C1_3 1_555 1_555
O6_2 C1_3 1_555 1_555
Nd3 O5_2 1_555 1_555
Nd4_2 O1_3 1_555 1_555
C6_3 C7_3 1_555 1_555
C12_3 C13_3 1_555 1_555
O6_2 Nd3 1_555 1_555
C16_3 H8_3 1_555 1_555
C17_3 H9_3 1_555 1_555
H10_3 C17_3 1_555 1_555
H11_3 C17_3 1_555 1_555
C18_3 H12_3 1_555 1_555
H13_3 C18_3 1_555 1_555
H14_3 C18_3 1_555 1_555
N1_3 C16_3 1_555 1_555
O7_3 Nd3_2 1_555 1_555
H15 O7_3 1_555 1_555
H16_3 O7_3 1_555 1_555
O8_3 Nd3_2 1_555 1_555
O9_3 Nd3_2 1_555 1_555
O11_3 Nd3_2 1_555 1_555
C16_3 O8_3 1_555 1_555
C17_3 N1_3 1_555 1_555
C18_3 N1_3 1_555 1_555
O10 C15_4 1_555 1_555
O12 C15_4 1_555 1_555
Nd3 O2_4 1_555 1_555
C1_4 C2_4 1_555 1_555
C2_4 C3_4 1_555 1_555
C3_4 H1_4 1_555 1_555
C4_4 C2_4 1_555 1_555
H2_4 C4_4 1_555 1_555
C5_4 C4_4 1_555 1_555
C6_4 C3_4 1_555 1_555
H4_4 C6_4 1_555 1_555
C7_4 C5_4 1_555 1_555
C8_4 C7_4 1_555 1_555
C9_4 C8_4 1_555 1_555
H5_4 C9_4 1_555 1_555
C10_4 C8_4 1_555 1_555
C11_4 C10_4 1_555 1_555
C12_4 C11_4 1_555 1_555
H7_4 C12_4 1_555 1_555
C13_4 C9_4 1_555 1_555
C14_4 C13_4 1_555 1_555
C16_4 H8_4 1_555 1_555
C17_4 H9_4 1_555 1_555
H10_4 C17_4 1_555 1_555
H11_4 C17_4 1_555 1_555
C18_4 H12_4 1_555 1_555
H13_4 C18_4 1_555 1_555
H14_4 C18_4 1_555 1_555
N1_4 C16_4 1_555 1_555
O1_4 C14_4 1_555 1_555
O2_4 C14_4 1_555 1_555
O13_2 C1_4 1_555 1_555
O14_2 C1_4 1_555 1_555
O7_4 Nd3 1_555 1_555
H15_2 O7_4 1_555 1_555
H16_4 O7_4 1_555 1_555
O8_4 Nd3 1_555 1_555
Nd4 O1_4 1_555 1_555
O9_4 Nd3 1_555 1_555
O11_4 Nd3 1_555 1_555
C6_4 C7_4 1_555 1_555
C12_4 C13_4 1_555 1_555
C16_4 O8_4 1_555 1_555
C17_4 N1_4 1_555 1_555
C18_4 N1_4 1_555 1_555
Nd4 O11_4 1_555 1_555
C1_5 C2_5 1_555 1_555
C4_5 C2_5 1_555 1_555
H2_5 C4_5 1_555 1_555
O5_3 C1_5 1_555 1_555
O6_3 C1_5 1_555 1_555
Nd4 O5_3 1_555 1_555
O6_3 Nd4 1_555 1_555
C16_5 H8_5 1_555 1_555
C17_5 H9_5 1_555 1_555
H10_5 C17_5 1_555 1_555
H11_5 C17_5 1_555 1_555
C18_5 H12_5 1_555 1_555
H13_5 C18_5 1_555 1_555
H14_5 C18_5 1_555 1_555
N1_5 C16_5 1_555 1_555
O7_5 Nd4_2 1_555 1_555
H16_5 O7_5 1_555 1_555
O8_5 Nd4_2 1_555 1_555
C16_5 O8_5 1_555 1_555
C17_5 N1_5 1_555 1_555
C18_5 N1_5 1_555 1_555
H3_5 C5_5 1_555 1_555
C6_5 C3_5 1_555 1_555
H4_5 C6_5 1_555 1_555
C7_5 C5_5 1_555 1_555
C8_5 C7_5 1_555 1_555
C9_5 C8_5 1_555 1_555
H5_5 C9_5 1_555 1_555
C10_5 C8_5 1_555 1_555
H6_5 C10_5 1_555 1_555
C11_5 C10_5 1_555 1_555
C12_5 C11_5 1_555 1_555
H7_5 C12_5 1_555 1_555
C13_5 C9_5 1_555 1_555
C14_5 C13_5 1_555 1_555
C15_5 C11_5 1_555 1_555
O9_3 C14_5 1_555 1_555
O2_5 C14_5 1_555 1_555
O11_2 C15_5 1_555 1_555
O4_3 C15_5 1_555 1_555
C6_5 C7_5 1_555 1_555
C12_5 C13_5 1_555 1_555
O4_3 Nd5_2 1_555 1_555
Nd4 O2_6 1_555 1_555
H3_6 C5_6 1_555 1_555
C6_6 C3_6 1_555 1_555
H4_6 C6_6 1_555 1_555
C7_6 C5_6 1_555 1_555
C8_6 C7_6 1_555 1_555
C9_6 C8_6 1_555 1_555
H5_6 C9_6 1_555 1_555
C10_6 C8_6 1_555 1_555
H6_6 C10_6 1_555 1_555
C11_6 C10_6 1_555 1_555
C12_6 C11_6 1_555 1_555
H7_6 C12_6 1_555 1_555
C13_6 C9_6 1_555 1_555
C14_6 C13_6 1_555 1_555
C15_6 C11_6 1_555 1_555
C16_6 H8_6 1_555 1_555
C17_6 H9_6 1_555 1_555
H10_6 C17_6 1_555 1_555
H11_6 C17_6 1_555 1_555
C18_6 H12_6 1_555 1_555
H13_6 C18_6 1_555 1_555
H14_6 C18_6 1_555 1_555
N1_6 C16_6 1_555 1_555
O9_4 C14_6 1_555 1_555
O2_6 C14_6 1_555 1_555
O11 C15_6 1_555 1_555
O4_4 C15_6 1_555 1_555
O7_6 Nd4 1_555 1_555
H16_6 O7_6 1_555 1_555
O8_6 Nd4 1_555 1_555
O12_4 Nd4 1_555 1_555
C6_6 C7_6 1_555 1_555
C12_6 C13_6 1_555 1_555
C16_6 O8_6 1_555 1_555
C17_6 N1_6 1_555 1_555
C18_6 N1_6 1_555 1_555
C1_6 C2_6 1_555 1_555
C4_6 C2_6 1_555 1_555
H2_6 C4_6 1_555 1_555
O13_3 C1_6 1_555 1_555
O14_3 C1_6 1_555 1_555
C16_7 H8_7 1_555 1_555
C17_7 H9_7 1_555 1_555
H10_7 C17_7 1_555 1_555
H11_7 C17_7 1_555 1_555
C18_7 H12_7 1_555 1_555
H13_7 C18_7 1_555 1_555
H14_7 C18_7 1_555 1_555
N1_7 C16_7 1_555 1_555
O7_7 Nd5 1_555 1_555
H15_3 O7_7 1_555 1_555
H16_7 O7_7 1_555 1_555
O8_7 Nd5 1_555 1_555
C16_7 O8_7 1_555 1_555
C17_7 N1_7 1_555 1_555
C18_7 N1_7 1_555 1_555
C1_7 C2_7 1_555 1_555
C2_7 C3_7 1_555 1_555
C3_7 H1_7 1_555 1_555
C4_7 C2_7 1_555 1_555
H2_7 C4_7 1_555 1_555
C5_7 C4_7 1_555 1_555
C6_7 C3_7 1_555 1_555
H4_7 C6_7 1_555 1_555
C7_7 C5_7 1_555 1_555
C8_7 C7_7 1_555 1_555
C9_7 C8_7 1_555 1_555
H5_7 C9_7 1_555 1_555
C10_7 C8_7 1_555 1_555
C11_7 C10_7 1_555 1_555
C12_7 C11_7 1_555 1_555
H7_7 C12_7 1_555 1_555
C13_7 C9_7 1_555 1_555
C14_7 C13_7 1_555 1_555
O9 C14_7 1_555 1_555
O2_7 C14_7 1_555 1_555
O5_4 C1_7 1_555 1_555
O6_4 C1_7 1_555 1_555
Nd5_2 O5_4 1_555 1_555
C6_7 C7_7 1_555 1_555
C12_7 C13_7 1_555 1_555
O6_4 Nd5_2 1_555 1_555
O11_4 C15_7 1_555 1_555
O12_4 C15_7 1_555 1_555
Nd5_2 O2_8 1_555 1_555
C1_8 C2_8 1_555 1_555
C2_8 C3_8 1_555 1_555
C3_8 H1_8 1_555 1_555
C4_8 C2_8 1_555 1_555
H2_8 C4_8 1_555 1_555
C5_8 C4_8 1_555 1_555
C6_8 C3_8 1_555 1_555
H4_8 C6_8 1_555 1_555
C7_8 C5_8 1_555 1_555
C8_8 C7_8 1_555 1_555
C9_8 C8_8 1_555 1_555
H5_8 C9_8 1_555 1_555
C10_8 C8_8 1_555 1_555
C11_8 C10_8 1_555 1_555
C12_8 C11_8 1_555 1_555
H7_8 C12_8 1_555 1_555
C13_8 C9_8 1_555 1_555
C14_8 C13_8 1_555 1_555
C16_8 H8_8 1_555 1_555
C17_8 H9_8 1_555 1_555
H10_8 C17_8 1_555 1_555
H11_8 C17_8 1_555 1_555
C18_8 H12_8 1_555 1_555
H13_8 C18_8 1_555 1_555
H14_8 C18_8 1_555 1_555
N1_8 C16_8 1_555 1_555
O9_2 C14_8 1_555 1_555
O2_8 C14_8 1_555 1_555
O13_4 C1_8 1_555 1_555
O14_4 C1_8 1_555 1_555
O7_8 Nd5_2 1_555 1_555
H15_4 O7_8 1_555 1_555
H16_8 O7_8 1_555 1_555
O8_8 Nd5_2 1_555 1_555
C6_8 C7_8 1_555 1_555
C12_8 C13_8 1_555 1_555
C16_8 O8_8 1_555 1_555
C17_8 N1_8 1_555 1_555
C18_8 N1_8 1_555 1_555
O11_3 C15_8 1_555 1_555
O12_3 C15_8 1_555 1_555

#END
