
###############################################################################
#
# This file contains modified crystal structure data generated from the
# MOF subset of the Cambridge Structural Database (CSD) v543 
# hosted by the Cambridge Crystallographic Data Centre (CCDC).
#
# This work is licensed under the Creative Commons
# Attribution-NonCommercial-ShareAlike 4.0 International License.
# To view a copy of this license, visit
# http://creativecommons.org/licenses/by-nc-sa/4.0/
# or send a letter to
# Creative Commons, PO Box 1866, Mountain View, CA 94042, USA.
#
# CIF created using the CSD Python API on 29 September 2022
# The structure has been converted into the P1 space group
# The structure has a 3D framework
# The original CSD entry CARFOT is in the monoclinic crystal system
# The framework has been calculated to contain at least 10.0% void space
# The void calculation uses a probe of radius 1.32A, grid spacing 0.4
# The framework is charged, counterions have been retained in the structure
# H atom positions have been added when not included in the experimental data
# Generated hydrogen atom positions removed from atoms on special positions
#
###############################################################################

data_CARFOT
_chemical_formula_moiety         '(C98 H86 Cu3 O43 5+)n'
_symmetry_cell_setting           triclinic
_symmetry_space_group_name_H-M   'P 1'
_symmetry_Int_Tables_number      1
_space_group_name_Hall           'P 1'
loop_
_symmetry_equiv_pos_site_id
_symmetry_equiv_pos_as_xyz
1 x,y,z
_cell_length_a                   17.958(5)
_cell_length_b                   25.589(5)
_cell_length_c                   5.781(5)
_cell_angle_alpha                90
_cell_angle_beta                 99.052(5)
_cell_angle_gamma                90
_cell_volume                     2623.44
loop_
_atom_site_label
_atom_site_type_symbol
_atom_site_fract_x
_atom_site_fract_y
_atom_site_fract_z
Cu3 Cu 0.08337(2) 0.021592(14) 0.45289(6)
O12 O 0.0000 0.01008(12) 0.7500
O14 O 0.03991(14) 0.09103(9) 0.4193(4)
O15 O 0.16711(13) 0.05499(9) 0.6560(4)
O3 O 1.0000 0.98992(12) 0.2500
O5 O 0.83289(13) 0.94501(9) 0.3440(4)
C7 C 0.6838(2) 0.82616(17) 0.0854(7)
H5 H 0.6476 0.8140 0.1709
C8 C 0.7296(2) 0.86763(17) 0.1706(7)
H6 H 0.7243 0.8828 0.3133
C9 C 0.7831(2) 0.88646(13) 0.0445(6)
C12 C 0.83144(19) 0.93203(13) 0.1332(6)
Cu8 Cu 0.91663(2) 0.978408(14) 0.54711(6)
O1 O 0.86843(14) 0.95392(9) 0.9921(4)
C1 C 0.5000 0.67173(18) 0.2500
O2 O 0.58810(16) 0.78372(10) 0.5880(5)
C2 C 0.54501(19) 0.69825(13) 0.4324(6)
H1 H 0.5739 0.6801 0.5540
C3 C 0.54520(19) 0.75263(14) 0.4264(6)
O4 O 0.46009(14) 0.59103(9) 0.0807(4)
C4 C 0.5000 0.7798(2) 0.2500
H2 H 0.5000 0.8162 0.2500
C5 C 0.6391(2) 0.76026(15) 0.7733(7)
H3 H 0.6673 0.7323 0.7132
H4 H 0.6119 0.7459 0.8909
C6 C 0.6911(2) 0.80277(15) 0.8758(6)
C10 C 0.7914(2) 0.86241(16) 0.8364(7)
H7 H 0.8277 0.8745 0.7508
C11 C 0.7466(3) 0.82082(17) 0.7553(7)
H8 H 0.7537 0.8045 0.6167
C13 C 0.5000 0.61328(18) 0.2500
C14 C 0.45499(19) 0.69825(13) 0.0676(6)
C15 C 0.45480(19) 0.75263(14) 0.0736(6)
O8 O 0.53991(14) 0.59103(9) 0.4193(4)
Cu4 Cu 0.41663(2) 0.521592(14) 0.04711(6)
Cu5 Cu 0.58337(2) 0.521592(14) 0.45289(6)
O3_2 O 0.5000 0.48992(12) 0.2500
O5_2 O 0.33289(13) 0.44501(9) 0.3440(4)
C7_2 C 0.1838(2) 0.32616(17) 0.0854(7)
H5_2 H 0.1476 0.3140 0.1709
C8_2 C 0.2296(2) 0.36763(17) 0.1706(7)
H6_2 H 0.2243 0.3828 0.3133
C9_2 C 0.2831(2) 0.38646(13) 0.0445(6)
C12_2 C 0.33144(19) 0.43203(13) 0.1332(6)
Cu8_2 Cu 0.41663(2) 0.478408(14) 0.54711(6)
O1_2 O 0.36843(14) 0.45392(9) 0.9921(4)
C1_2 C 0.0000 0.17173(18) 0.2500
O2_2 O 0.08810(16) 0.28372(10) 0.5880(5)
C2_2 C 0.04501(19) 0.19825(13) 0.4324(6)
H1_2 H 0.0739 0.1801 0.5540
C3_2 C 0.04520(19) 0.25263(14) 0.4264(6)
C4_2 C 0.0000 0.2798(2) 0.2500
H2_2 H 0.0000 0.3162 0.2500
C5_2 C 0.1391(2) 0.26026(15) 0.7733(7)
H3_2 H 0.1673 0.2323 0.7132
H4_2 H 0.1119 0.2459 0.8909
C6_2 C 0.1911(2) 0.30277(15) 0.8758(6)
C10_2 C 0.2914(2) 0.36241(16) 0.8364(7)
H7_2 H 0.3277 0.3745 0.7508
C11_2 C 0.2466(3) 0.32082(17) 0.7553(7)
H8_2 H 0.2537 0.3045 0.6167
C13_2 C 0.0000 0.11328(18) 0.2500
Cu7 Cu 0.58337(2) 0.478408(14) 0.95289(6)
O12_2 O 0.5000 0.51008(12) 0.7500
O16 O 0.33289(13) 0.55499(9) 0.8440(4)
O6 O 0.63157(14) 0.45392(9) 0.5079(4)
O7 O 0.91190(16) 0.28372(10) 0.9120(5)
H9 H 0.9261 0.1801 0.9460
O9 O 0.66711(13) 0.44501(9) 0.1560(4)
C16 C 0.8609(2) 0.26026(15) 0.7267(7)
H10 H 0.8327 0.2323 0.7868
H11 H 0.8881 0.2459 0.6091
C17 C 0.8089(2) 0.30277(15) 0.6242(6)
C18 C 0.8162(2) 0.32616(17) 0.4146(7)
H12 H 0.8524 0.3140 0.3291
C19 C 0.7704(2) 0.36763(17) 0.3294(7)
H13 H 0.7757 0.3828 0.1867
C20 C 0.7169(2) 0.38646(13) 0.4555(6)
C21 C 0.7086(2) 0.36241(16) 0.6636(7)
H14 H 0.6723 0.3745 0.7492
C22 C 0.7534(3) 0.32082(17) 0.7447(7)
H15 H 0.7463 0.3045 0.8833
C23 C 0.66856(19) 0.43203(13) 0.3668(6)
O15_2 O 0.66711(13) 0.55499(9) 0.6560(4)
O1_3 O 0.13157(14) 0.04608(9) 0.0079(4)
C1_3 C 0.5000 0.32827(18) 0.7500
O2_3 O 0.41190(16) 0.21628(10) 0.4120(5)
C2_3 C 0.45499(19) 0.30175(13) 0.5676(6)
H1_3 H 0.4261 0.3199 0.4460
C3_3 C 0.45480(19) 0.24737(14) 0.5736(6)
O4_2 O 0.53991(14) 0.40897(9) 0.9193(4)
C4_3 C 0.5000 0.2202(2) 0.7500
H2_3 H 0.5000 0.1838 0.7500
C5_3 C 0.3609(2) 0.23974(15) 0.2267(7)
H3_3 H 0.3327 0.2677 0.2868
H4_3 H 0.3881 0.2541 0.1091
C6_3 C 0.3089(2) 0.19723(15) 0.1242(6)
C10_3 C 0.2086(2) 0.13759(16) 0.1636(7)
H7_3 H 0.1723 0.1255 0.2492
C11_3 C 0.2534(3) 0.17918(17) 0.2447(7)
H8_3 H 0.2463 0.1955 0.3833
C13_3 C 0.5000 0.38672(18) 0.7500
C14_2 C 0.54501(19) 0.30175(13) 0.9324(6)
C15_2 C 0.54520(19) 0.24737(14) 0.9264(6)
O8_2 O 0.46009(14) 0.40897(9) 0.5807(4)
C7_3 C 0.3162(2) 0.17384(17) 0.9146(7)
H5_3 H 0.3524 0.1860 0.8291
C8_3 C 0.2704(2) 0.13237(17) 0.8294(7)
H6_3 H 0.2757 0.1172 0.6867
C9_3 C 0.2169(2) 0.11354(13) 0.9555(6)
C12_3 C 0.16856(19) 0.06797(13) 0.8668(6)
O14_2 O 0.96009(14) 0.90897(9) 0.5807(4)
O6_2 O 0.36843(14) 0.54608(9) 0.4921(4)
O7_2 O 0.08810(16) 0.71628(10) 0.0880(5)
H9_2 H 0.0739 0.8199 0.0540
C16_2 C 0.1391(2) 0.73974(15) 0.2733(7)
H10_2 H 0.1673 0.7677 0.2132
H11_2 H 0.1119 0.7541 0.3909
C17_2 C 0.1911(2) 0.69723(15) 0.3758(6)
C18_2 C 0.1838(2) 0.67384(17) 0.5854(7)
H12_2 H 0.1476 0.6860 0.6709
C19_2 C 0.2296(2) 0.63237(17) 0.6706(7)
H13_2 H 0.2243 0.6172 0.8133
C20_2 C 0.2831(2) 0.61354(13) 0.5445(6)
C21_2 C 0.2914(2) 0.63759(16) 0.3364(7)
H14_2 H 0.3277 0.6255 0.2508
C22_2 C 0.2466(3) 0.67918(17) 0.2553(7)
H15_2 H 0.2537 0.6955 0.1167
C23_2 C 0.33144(19) 0.56797(13) 0.6332(6)
O1_4 O 0.63157(14) 0.54608(9) 0.0079(4)
C1_4 C 1.0000 0.82827(18) 0.7500
O2_4 O 0.91190(16) 0.71628(10) 0.4120(5)
C2_4 C 0.95499(19) 0.80175(13) 0.5676(6)
H1_4 H 0.9261 0.8199 0.4460
C3_4 C 0.95480(19) 0.74737(14) 0.5736(6)
C4_4 C 1.0000 0.7202(2) 0.7500
H2_4 H 1.0000 0.6838 0.7500
C5_4 C 0.8609(2) 0.73974(15) 0.2267(7)
H3_4 H 0.8327 0.7677 0.2868
H4_4 H 0.8881 0.7541 0.1091
C6_4 C 0.8089(2) 0.69723(15) 0.1242(6)
C10_4 C 0.7086(2) 0.63759(16) 0.1636(7)
H7_4 H 0.6723 0.6255 0.2492
C11_4 C 0.7534(3) 0.67918(17) 0.2447(7)
H8_4 H 0.7463 0.6955 0.3833
C13_4 C 1.0000 0.88672(18) 0.7500
C7_4 C 0.8162(2) 0.67384(17) 0.9146(7)
H5_4 H 0.8524 0.6860 0.8291
C8_4 C 0.7704(2) 0.63237(17) 0.8294(7)
H6_4 H 0.7757 0.6172 0.6867
C9_4 C 0.7169(2) 0.61354(13) 0.9555(6)
C12_4 C 0.66856(19) 0.56797(13) 0.8668(6)
O3_3 O 0.0000 0.98992(12) 0.2500
Cu7_2 Cu 0.08337(2) 0.978408(14) 0.95289(6)
O6_3 O 0.13157(14) 0.95392(9) 0.5079(4)
O7_3 O 0.41190(16) 0.78372(10) 0.9120(5)
H9_3 H 0.4261 0.6801 0.9460
O9_2 O 0.16711(13) 0.94501(9) 0.1560(4)
C16_3 C 0.3609(2) 0.76026(15) 0.7267(7)
H10_3 H 0.3327 0.7323 0.7868
H11_3 H 0.3881 0.7459 0.6091
C17_3 C 0.3089(2) 0.80277(15) 0.6242(6)
C18_3 C 0.3162(2) 0.82616(17) 0.4146(7)
H12_3 H 0.3524 0.8140 0.3291
C19_3 C 0.2704(2) 0.86763(17) 0.3294(7)
H13_3 H 0.2757 0.8828 0.1867
C20_3 C 0.2169(2) 0.88646(13) 0.4555(6)
C21_3 C 0.2086(2) 0.86241(16) 0.6636(7)
H14_3 H 0.1723 0.8745 0.7492
C22_3 C 0.2534(3) 0.82082(17) 0.7447(7)
H15_3 H 0.2463 0.8045 0.8833
C23_3 C 0.16856(19) 0.93203(13) 0.3668(6)
O13 O 0.03991(14) 0.90897(9) 0.9193(4)
C1_5 C -0.0000 0.82827(18) 0.7500
C4_5 C 0.0000 0.7202(2) 0.7500
H2_5 H 0.0000 0.6838 0.7500
C13_5 C -0.0000 0.88672(18) 0.7500
C14_3 C 0.04501(19) 0.80175(13) 0.9324(6)
C15_3 C 0.04520(19) 0.74737(14) 0.9264(6)
Cu1 Cu 0.91663(2) 0.021592(14) 0.04711(6)
O13_2 O 0.96009(14) 0.09103(9) 0.0807(4)
O12_3 O 1.0000 0.01008(12) 0.7500
O16_2 O 0.83289(13) 0.05499(9) 0.8440(4)
C1_6 C 1.0000 0.17173(18) 0.2500
C4_6 C 1.0000 0.2798(2) 0.2500
H2_6 H 1.0000 0.3162 0.2500
C13_6 C 1.0000 0.11328(18) 0.2500
C14_4 C 0.95499(19) 0.19825(13) 0.0676(6)
C15_4 C 0.95480(19) 0.25263(14) 0.0736(6)
O6_4 O 0.86843(14) 0.04608(9) 0.4921(4)
O7_4 O 0.58810(16) 0.21628(10) 0.0880(5)
H9_4 H 0.5739 0.3199 0.0540
C16_4 C 0.6391(2) 0.23974(15) 0.2733(7)
H10_4 H 0.6673 0.2677 0.2132
H11_4 H 0.6119 0.2541 0.3909
C17_4 C 0.6911(2) 0.19723(15) 0.3758(6)
C18_4 C 0.6838(2) 0.17384(17) 0.5854(7)
H12_4 H 0.6476 0.1860 0.6709
C19_4 C 0.7296(2) 0.13237(17) 0.6706(7)
H13_4 H 0.7243 0.1172 0.8133
C20_4 C 0.7831(2) 0.11354(13) 0.5445(6)
C21_4 C 0.7914(2) 0.13759(16) 0.3364(7)
H14_4 H 0.8277 0.1255 0.2508
C22_4 C 0.7466(3) 0.17918(17) 0.2553(7)
H15_4 H 0.7537 0.1955 0.1167
C23_4 C 0.83144(19) 0.06797(13) 0.6332(6)
H17 H 0.318715 0.0276848 0.845006
O17 O 0.3413(17) 0.9960(12) 0.927(5)
H16 H 0.396596 0.996 0.927
H18 H 0.318715 0.964315 0.845006
H17_2 H 0.681285 0.0276848 0.654994
O17_2 O 0.6587(17) 0.9960(12) 0.573(5)
H16_2 H 0.603404 0.996 0.573
H18_2 H 0.681285 0.964315 0.654994
O17_3 O 0.8413(17) 0.4960(12) 0.927(5)
O17_4 O 0.1587(17) 0.4960(12) 0.573(5)
O17_5 O 0.6587(17) 0.0040(12) 0.073(5)
H16_3 H 0.603404 0.004 0.073
H18_3 H 0.681285 0.0356848 0.154994
H17_3 H 0.681285 0.972315 0.154994
O17_6 O 0.3413(17) 0.0040(12) 0.427(5)
H16_4 H 0.396596 0.004 0.427
H18_4 H 0.318715 0.0356848 0.345006
H17_4 H 0.318715 0.972315 0.345006
O17_7 O 0.1587(17) 0.5040(12) 0.073(5)
O17_8 O 0.8413(17) 0.5040(12) 0.427(5)
loop_
_geom_bond_atom_site_label_1
_geom_bond_atom_site_label_2
_geom_bond_site_symmetry_1
_geom_bond_site_symmetry_2
O12 Cu3 1_555 1_555
O14 Cu3 1_555 1_555
O15 Cu3 1_555 1_555
O5 C12 1_555 1_555
H5 C7 1_555 1_555
C8 C7 1_555 1_555
H6 C8 1_555 1_555
C9 C8 1_555 1_555
C12 C9 1_555 1_555
Cu8 O3 1_555 1_555
O5 Cu8 1_555 1_555
C1 C2 1_555 1_555
O2 C3 1_555 1_555
C2 H1 1_555 1_555
C3 C2 1_555 1_555
O4 C13 1_555 1_555
C4 C3 1_555 1_555
H2 C4 1_555 1_555
C5 O2 1_555 1_555
H3 C5 1_555 1_555
H4 C5 1_555 1_555
C6 C5 1_555 1_555
H7 C10 1_555 1_555
C11 C6 1_555 1_555
H8 C11 1_555 1_555
C13 C1 1_555 1_555
C14 C1 1_555 1_555
C15 C4 1_555 1_555
O8 C13 1_555 1_555
Cu4 O4 1_555 1_555
Cu5 O8 1_555 1_555
C10 C11 1_555 1_555
C14 C15 1_555 1_555
O3_2 Cu4 1_555 1_555
O5_2 C12_2 1_555 1_555
H5_2 C7_2 1_555 1_555
C8_2 C7_2 1_555 1_555
H6_2 C8_2 1_555 1_555
C9_2 C8_2 1_555 1_555
C12_2 C9_2 1_555 1_555
Cu5 O3_2 1_555 1_555
Cu8_2 O3_2 1_555 1_555
O5_2 Cu8_2 1_555 1_555
C1_2 C2_2 1_555 1_555
O2_2 C3_2 1_555 1_555
C2_2 H1_2 1_555 1_555
C3_2 C2_2 1_555 1_555
C4_2 C3_2 1_555 1_555
H2_2 C4_2 1_555 1_555
C5_2 O2_2 1_555 1_555
H3_2 C5_2 1_555 1_555
H4_2 C5_2 1_555 1_555
C6_2 C5_2 1_555 1_555
H7_2 C10_2 1_555 1_555
C11_2 C6_2 1_555 1_555
H8_2 C11_2 1_555 1_555
C13_2 C1_2 1_555 1_555
O14 C13_2 1_555 1_555
C10_2 C11_2 1_555 1_555
Cu7 O12_2 1_555 1_555
O6 C23 1_555 1_555
O9 C23 1_555 1_555
C16 O7 1_555 1_555
H10 C16 1_555 1_555
H11 C16 1_555 1_555
C17 C16 1_555 1_555
C18 C17 1_555 1_555
H12 C18 1_555 1_555
C19 C18 1_555 1_555
H13 C19 1_555 1_555
C20 C19 1_555 1_555
C21 C20 1_555 1_555
H14 C21 1_555 1_555
C22 C17 1_555 1_555
H15 C22 1_555 1_555
C23 C20 1_555 1_555
Cu5 O6 1_555 1_555
O12_2 Cu5 1_555 1_555
O15_2 Cu5 1_555 1_555
C21 C22 1_555 1_555
Cu8_2 O12_2 1_555 1_555
C1_3 C2_3 1_555 1_555
O2_3 C3_3 1_555 1_555
C2_3 H1_3 1_555 1_555
C3_3 C2_3 1_555 1_555
O4_2 C13_3 1_555 1_555
C4_3 C3_3 1_555 1_555
H2_3 C4_3 1_555 1_555
C5_3 O2_3 1_555 1_555
H3_3 C5_3 1_555 1_555
H4_3 C5_3 1_555 1_555
C6_3 C5_3 1_555 1_555
H7_3 C10_3 1_555 1_555
C11_3 C6_3 1_555 1_555
H8_3 C11_3 1_555 1_555
C13_3 C1_3 1_555 1_555
C14_2 C1_3 1_555 1_555
C15_2 C4_3 1_555 1_555
O8_2 C13_3 1_555 1_555
Cu7 O4_2 1_555 1_555
Cu8_2 O8_2 1_555 1_555
C10_3 C11_3 1_555 1_555
C14_2 C15_2 1_555 1_555
O15 C12_3 1_555 1_555
H5_3 C7_3 1_555 1_555
C8_3 C7_3 1_555 1_555
H6_3 C8_3 1_555 1_555
C9_3 C8_3 1_555 1_555
C12_3 C9_3 1_555 1_555
O14_2 Cu8 1_555 1_555
O6_2 C23_2 1_555 1_555
O16 C23_2 1_555 1_555
C16_2 O7_2 1_555 1_555
H10_2 C16_2 1_555 1_555
H11_2 C16_2 1_555 1_555
C17_2 C16_2 1_555 1_555
C18_2 C17_2 1_555 1_555
H12_2 C18_2 1_555 1_555
C19_2 C18_2 1_555 1_555
H13_2 C19_2 1_555 1_555
C20_2 C19_2 1_555 1_555
C21_2 C20_2 1_555 1_555
H14_2 C21_2 1_555 1_555
C22_2 C17_2 1_555 1_555
H15_2 C22_2 1_555 1_555
C23_2 C20_2 1_555 1_555
Cu8_2 O6_2 1_555 1_555
C21_2 C22_2 1_555 1_555
C1_4 C2_4 1_555 1_555
O2_4 C3_4 1_555 1_555
C2_4 H1_4 1_555 1_555
C3_4 C2_4 1_555 1_555
C4_4 C3_4 1_555 1_555
H2_4 C4_4 1_555 1_555
C5_4 O2_4 1_555 1_555
H3_4 C5_4 1_555 1_555
H4_4 C5_4 1_555 1_555
C6_4 C5_4 1_555 1_555
H7_4 C10_4 1_555 1_555
C11_4 C6_4 1_555 1_555
H8_4 C11_4 1_555 1_555
C13_4 C1_4 1_555 1_555
O14_2 C13_4 1_555 1_555
C10_4 C11_4 1_555 1_555
O15_2 C12_4 1_555 1_555
H5_4 C7_4 1_555 1_555
C8_4 C7_4 1_555 1_555
H6_4 C8_4 1_555 1_555
C9_4 C8_4 1_555 1_555
C12_4 C9_4 1_555 1_555
O6_3 C23_3 1_555 1_555
O9_2 C23_3 1_555 1_555
C16_3 O7_3 1_555 1_555
H10_3 C16_3 1_555 1_555
H11_3 C16_3 1_555 1_555
C17_3 C16_3 1_555 1_555
C18_3 C17_3 1_555 1_555
H12_3 C18_3 1_555 1_555
C19_3 C18_3 1_555 1_555
H13_3 C19_3 1_555 1_555
C20_3 C19_3 1_555 1_555
C21_3 C20_3 1_555 1_555
H14_3 C21_3 1_555 1_555
C22_3 C17_3 1_555 1_555
H15_3 C22_3 1_555 1_555
C23_3 C20_3 1_555 1_555
C21_3 C22_3 1_555 1_555
O13 Cu7_2 1_555 1_555
O13 C13_5 1_555 1_555
H2_5 C4_5 1_555 1_555
C13_5 C1_5 1_555 1_555
C14_3 C1_5 1_555 1_555
C15_3 C4_5 1_555 1_555
C14_3 C15_3 1_555 1_555
O13_2 Cu1 1_555 1_555
O13_2 C13_6 1_555 1_555
H2_6 C4_6 1_555 1_555
C13_6 C1_6 1_555 1_555
C14_4 C1_6 1_555 1_555
C15_4 C4_6 1_555 1_555
C14_4 C15_4 1_555 1_555
O6_4 C23_4 1_555 1_555
O16_2 C23_4 1_555 1_555
C16_4 O7_4 1_555 1_555
H10_4 C16_4 1_555 1_555
H11_4 C16_4 1_555 1_555
C17_4 C16_4 1_555 1_555
C18_4 C17_4 1_555 1_555
H12_4 C18_4 1_555 1_555
C19_4 C18_4 1_555 1_555
H13_4 C19_4 1_555 1_555
C20_4 C19_4 1_555 1_555
C21_4 C20_4 1_555 1_555
H14_4 C21_4 1_555 1_555
C22_4 C17_4 1_555 1_555
H15_4 C22_4 1_555 1_555
C23_4 C20_4 1_555 1_555
C21_4 C22_4 1_555 1_555
O17 H16 1_555 1_555
O17 H18 1_555 1_555
O17_2 H16_2 1_555 1_555
O17_2 H18_2 1_555 1_555
O17_5 H16_3 1_555 1_555
O17_5 H18_3 1_555 1_555
O17_6 H16_4 1_555 1_555
O17_6 H18_4 1_555 1_555

#END
