
###############################################################################
#
# This file contains modified crystal structure data generated from the
# MOF subset of the Cambridge Structural Database (CSD) v543 
# hosted by the Cambridge Crystallographic Data Centre (CCDC).
#
# This work is licensed under the Creative Commons
# Attribution-NonCommercial-ShareAlike 4.0 International License.
# To view a copy of this license, visit
# http://creativecommons.org/licenses/by-nc-sa/4.0/
# or send a letter to
# Creative Commons, PO Box 1866, Mountain View, CA 94042, USA.
#
# CIF created using the CSD Python API on 29 September 2022
# The structure has been converted into the P1 space group
# The structure has a 3D framework
# The original CSD entry CARJEN is in the monoclinic crystal system
# The original CSD entry CARJEN is in a Sohncke space group
# The framework has been calculated to contain at least 10.0% void space
# The void calculation uses a probe of radius 1.32A, grid spacing 0.4
#
###############################################################################

data_CARJEN
_chemical_formula_moiety         '(C243 H137 N47 Ni14 O76)n'
_symmetry_cell_setting           triclinic
_symmetry_space_group_name_H-M   'P 1'
_symmetry_Int_Tables_number      1
_space_group_name_Hall           'P 1'
loop_
_symmetry_equiv_pos_site_id
_symmetry_equiv_pos_as_xyz
1 x,y,z
_cell_length_a                   28.676(6)
_cell_length_b                   16.573(3)
_cell_length_c                   26.148(5)
_cell_angle_alpha                90
_cell_angle_beta                 90.02(3)
_cell_angle_gamma                90
_cell_volume                     12426.8
loop_
_atom_site_label
_atom_site_type_symbol
_atom_site_fract_x
_atom_site_fract_y
_atom_site_fract_z
Ni17 Ni -0.0000 0.0104(2) 0.0000
Ni17_2 Ni 0.0000 0.0104(2) 1.0000
Ni4 Ni 0.5000 0.5104(2) 0.0000
O10 O 0.4135(4) 0.0264(8) 0.0024(5)
C17 C 0.5000 0.1148(13) 0.0000
H6 H 0.5000 0.0575 0.0000
C20 C 0.5000 0.2794(10) 0.0000
C21 C 0.5000 0.3678(7) 0.0000
O15 O 0.0719(3) 0.0322(8) 0.0005(4)
O18 O 0.2131(5) 0.4007(11) 0.0000(6)
C22 C 0.2079(4) 0.1480(9) 0.0010(6)
C23 C 0.1643(6) 0.1113(8) 0.0024(5)
H8 H 0.1620 0.0541 0.0027
C24 C 0.1241(4) 0.1582(10) 0.0032(6)
C25 C 0.1275(3) 0.2419(10) 0.0027(6)
H9 H 0.1001 0.2740 0.0032
C26 C 0.1711(4) 0.2786(7) 0.0013(6)
C27 C 0.2112(3) 0.2317(9) 0.0004(7)
C29 C 0.0788(4) 0.1078(9) 0.0007(7)
C41 C 0.3541(5) 0.0293(9) 0.3939(7)
H19 H 0.3672 0.0733 0.4122
C42 C 0.3509(5) 0.0325(9) 0.3409(7)
H20 H 0.3618 0.0788 0.3230
N7 N 0.3348(7) 0.0285(15) 0.0777(5)
C46 C 0.3526(6) 0.0733(9) 0.1183(10)
H23 H 0.3669 0.1240 0.1121
C47 C 0.3495(6) 0.0437(13) 0.1679(7)
H24 H 0.3616 0.0743 0.1956
O23 O 0.6254(4) 0.1414(7) 0.0011(4)
O24 O 0.4584(2) 0.4082(5) 0.0002(3)
C64 C 0.5856(7) 0.1057(12) 0.0023(7)
C65 C 0.5434(5) 0.1532(8) 0.0017(4)
C66 C 0.5446(6) 0.2375(9) 0.0037(7)
H36 H 0.5731 0.2661 0.0073
Ni11 Ni 0.6610(2) 0.0316(5) 0.0024(2)
Ni13 Ni 0.1610(2) 0.5316(5) 0.0024(2)
O43 O 0.5719(3) 0.5322(8) 0.0005(4)
N27 N 0.4995(8) 0.5232(10) 0.0835(4)
Ni2 Ni 0.3390(2) 0.0316(5) 0.9976(2)
Ni3 Ni 0.5000 0.48067(6) 0.5000
Ni4_2 Ni 0.5000 0.5104(2) 1.0000
O1 O 0.33265(17) 0.0810(4) 0.4952(3)
O2 O 0.25947(17) 0.1218(3) 0.5003(4)
O3 O 0.22383(17) 0.4109(4) 0.4983(3)
O4 O 0.28101(17) 0.5013(3) 0.4975(3)
O5 O 0.44528(18) 0.4110(3) 0.5001(3)
O6 O 0.45841(16) 0.2787(3) 0.4998(3)
O11 O 0.3746(4) 0.1414(7) 0.9989(4)
O12 O 0.5416(2) 0.4082(5) 0.9998(3)
C1 C 0.31793(15) 0.2212(2) 0.4995(2)
C2 C 0.28542(10) 0.2833(3) 0.5003(3)
H1 H 0.2530 0.2713 0.5001
C3 C 0.30029(12) 0.3632(2) 0.5013(2)
C4 C 0.34768(13) 0.3808(2) 0.5016(2)
H2 H 0.3578 0.4353 0.5023
C5 C 0.38020(10) 0.3186(3) 0.5008(2)
C6 C 0.36532(13) 0.2388(2) 0.4998(2)
H3 H 0.3875 0.1963 0.4993
C7 C 0.3039(2) 0.1352(4) 0.4972(4)
C8 C 0.2662(3) 0.4243(5) 0.4984(4)
C9 C 0.4307(3) 0.3389(5) 0.5013(5)
C16 C 0.4144(7) 0.1057(12) 0.9977(7)
C17_2 C 0.5000 0.1148(13) 1.0000
H6_2 H 0.5000 0.0575 1.0000
C18 C 0.4566(5) 0.1532(8) 0.9983(4)
C19 C 0.4554(6) 0.2375(9) 0.9963(7)
H7 H 0.4269 0.2661 0.9927
C20_2 C 0.5000 0.2794(10) 1.0000
C21_2 C 0.5000 0.3678(7) 1.0000
O13 O 0.2887(7) 0.1236(12) 0.9872(9)
O14 O 0.2354(8) 0.0170(14) 0.9886(10)
O16 O 0.0449(2) 0.1568(10) 0.9967(7)
O17 O 0.1454(6) 0.4135(7) 0.9861(7)
O18_2 O 0.2131(5) 0.4007(11) 1.0000(6)
H10 H 0.2410 0.2568 0.9995
C28 C 0.2461(7) 0.0920(15) 0.9944(18)
C30 C 0.1753(6) 0.3644(9) 0.9991(9)
C31 C 0.3546(4) 0.0333(7) 0.5983(6)
H11 H 0.3683 0.0756 0.5791
C32 C 0.3549(5) 0.0363(8) 0.6515(6)
H12 H 0.3689 0.0808 0.6685
N3 N 0.3440(6) 0.0143(11) 0.9219(6)
C39 C 0.3361(7) 0.0465(15) 0.8325(8)
H17 H 0.3323 0.0854 0.8061
C40 C 0.3384(8) 0.0712(10) 0.8833(10)
H18 H 0.3361 0.1268 0.8916
N9 N 0.49990(16) 0.4784(3) 0.57758(15)
C51 C 0.45810(14) 0.4762(5) 0.6044(2)
H27 H 0.4293 0.4737 0.5865
C52 C 0.4584(3) 0.4775(6) 0.6576(2)
H28 H 0.4298 0.4760 0.6759
C53 C 0.5005(3) 0.4811(6) 0.68388(15)
C54 C 0.5423(3) 0.4833(6) 0.6570(2)
H29 H 0.5710 0.4857 0.6750
C55 C 0.54199(14) 0.4820(5) 0.6039(2)
H30 H 0.5706 0.4835 0.5855
N10 N 0.4991(6) 0.4938(11) 0.7400(3)
N11 N 0.5005(8) 0.5232(10) 0.9165(4)
C56 C 0.5418(6) 0.4941(11) 0.8956(7)
H31 H 0.5692 0.4915 0.9159
C57 C 0.5430(5) 0.4690(11) 0.8449(8)
H32 H 0.5712 0.4491 0.8306
C58 C 0.5029(8) 0.4729(10) 0.8151(4)
C59 C 0.4616(5) 0.5020(12) 0.8360(7)
H33 H 0.4342 0.5047 0.8157
C60 C 0.4604(5) 0.5272(11) 0.8867(8)
H34 H 0.4322 0.5470 0.9010
N12 N 0.5053(8) 0.4358(11) 0.7660(5)
O22 O 0.5865(4) 0.0264(8) 0.9976(5)
O25 O 0.66735(17) 0.0810(4) 0.5048(3)
O26 O 0.74053(17) 0.1218(3) 0.4997(4)
O27 O 0.77617(17) 0.4109(4) 0.5017(3)
O28 O 0.71899(17) 0.5013(3) 0.5025(3)
O29 O 0.55472(18) 0.4110(3) 0.4999(3)
O30 O 0.54159(16) 0.2787(3) 0.5002(3)
C67 C 0.68207(15) 0.2212(2) 0.5005(2)
C68 C 0.71458(10) 0.2833(3) 0.4997(3)
H37 H 0.7470 0.2713 0.4999
C69 C 0.69971(12) 0.3632(2) 0.4987(2)
C70 C 0.65232(13) 0.3808(2) 0.4984(2)
H38 H 0.6422 0.4353 0.4977
C71 C 0.61980(10) 0.3186(3) 0.4992(2)
C72 C 0.63468(13) 0.2388(2) 0.5002(2)
H39 H 0.6125 0.1963 0.5007
C73 C 0.6961(2) 0.1352(4) 0.5028(4)
C74 C 0.7338(3) 0.4243(5) 0.5016(4)
C75 C 0.5693(3) 0.3389(5) 0.4987(5)
O31 O 0.7113(7) 0.1236(12) 0.0128(9)
O32 O 0.7646(8) 0.0170(14) 0.0114(10)
O34 O 0.9551(2) 0.1568(10) 0.0033(7)
O35 O 0.8546(6) 0.4135(7) 0.0139(7)
O36 O 0.7869(5) 0.4007(11) 0.0000(6)
H42 H 0.7590 0.2568 0.0005
C82 C 0.7539(7) 0.0920(15) 0.0056(18)
C84 C 0.8247(6) 0.3644(9) 0.0009(9)
C85 C 0.6454(4) 0.0333(7) 0.4017(6)
H43 H 0.6317 0.0756 0.4209
C86 C 0.6451(5) 0.0363(8) 0.3485(6)
H44 H 0.6311 0.0808 0.3315
N15 N 0.6560(6) 0.0143(11) 0.0781(6)
C93 C 0.6639(7) 0.0465(15) 0.1675(8)
H49 H 0.6677 0.0854 0.1939
C94 C 0.6616(8) 0.0712(10) 0.1167(10)
H50 H 0.6639 0.1268 0.1084
N21 N 0.50010(16) 0.4784(3) 0.42242(15)
C105 C 0.54190(14) 0.4762(5) 0.3956(2)
H59 H 0.5707 0.4737 0.4135
C106 C 0.5416(3) 0.4775(6) 0.3424(2)
H60 H 0.5702 0.4760 0.3241
C107 C 0.4995(3) 0.4811(6) 0.31612(15)
C108 C 0.4577(3) 0.4833(6) 0.3430(2)
H61 H 0.4290 0.4857 0.3250
C109 C 0.45801(14) 0.4820(5) 0.3961(2)
H62 H 0.4294 0.4835 0.4145
N22 N 0.5009(6) 0.4938(11) 0.2600(3)
C110 C 0.4582(6) 0.4941(11) 0.1044(7)
H63 H 0.4308 0.4915 0.0841
C111 C 0.4570(5) 0.4690(11) 0.1551(8)
H64 H 0.4288 0.4491 0.1694
C112 C 0.4971(8) 0.4729(10) 0.1849(4)
C113 C 0.5384(5) 0.5020(12) 0.1640(7)
H65 H 0.5658 0.5047 0.1843
C114 C 0.5396(5) 0.5272(11) 0.1133(8)
H66 H 0.5678 0.5470 0.0990
N24 N 0.4947(8) 0.4358(11) 0.2340(5)
Ni9 Ni 0.83982(3) 0.46127(7) 0.50023(7)
Ni10 Ni 0.16018(3) 0.46127(7) 0.49977(7)
Ni17_3 Ni 1.0000 0.0104(2) 0.0000
O39 O 0.53893(17) 0.5890(2) 0.50017(19)
O40 O 0.46107(17) 0.5890(2) 0.49983(19)
O44 O 0.4281(3) 0.5322(8) 0.9995(4)
O33 O 0.9281(3) 0.0322(8) 0.9995(4)
O36_2 O 0.7869(5) 0.4007(11) 1.0000(6)
C76 C 0.7921(4) 0.1480(9) 0.9990(6)
C77 C 0.8357(6) 0.1113(8) 0.9976(5)
H40 H 0.8380 0.0541 0.9973
C78 C 0.8759(4) 0.1582(10) 0.9968(6)
C79 C 0.8725(3) 0.2419(10) 0.9973(6)
H41 H 0.8999 0.2740 0.9968
C80 C 0.8289(4) 0.2786(7) 0.9987(6)
C81 C 0.7888(3) 0.2317(9) 0.9996(7)
C83 C 0.9212(4) 0.1078(9) 0.9993(7)
C95 C 0.6459(5) 0.0293(9) 0.6061(7)
H51 H 0.6328 0.0733 0.5878
C96 C 0.6491(5) 0.0325(9) 0.6591(7)
H52 H 0.6382 0.0788 0.6770
N19 N 0.6652(7) 0.0285(15) 0.9223(5)
C100 C 0.6474(6) 0.0733(9) 0.8817(10)
H55 H 0.6331 0.1240 0.8879
C101 C 0.6505(6) 0.0437(13) 0.8321(7)
H56 H 0.6384 0.0743 0.8044
Ni12 Ni 0.8390(2) 0.5316(5) 0.9976(2)
Ni17_4 Ni 1.0000 0.0104(2) 1.0000
N5 N 0.3383(5) 0.9616(12) 0.4200(3)
C43 C 0.3318(6) 0.9681(13) 0.3140(3)
C44 C 0.3160(5) 0.9004(10) 0.3401(7)
H21 H 0.3029 0.8564 0.3218
C45 C 0.3192(5) 0.8972(8) 0.3932(7)
H22 H 0.3083 0.8510 0.4110
N6 N 0.3416(7) 0.9735(14) 0.2628(7)
C48 C 0.3285(7) 0.9694(14) 0.1770(6)
C49 C 0.3107(6) 0.9247(9) 0.1365(10)
H25 H 0.2964 0.8740 0.1427
C50 C 0.3139(6) 0.9543(14) 0.0868(8)
H26 H 0.3017 0.9237 0.0591
N8 N 0.3269(8) 0.9288(12) 0.2238(7)
Ni7 Ni 0.33982(3) 0.96127(7) 0.50023(7)
O46 O 0.3546(6) 0.9135(7) 0.0139(7)
O7 O 0.41349(13) 0.9660(3) 0.5001(2)
O8 O 0.37484(15) 0.8455(3) 0.5006(2)
C10 C 0.4125(2) 0.8890(4) 0.5000(3)
C11 C 0.5000 0.8830(6) 0.5000
H4 H 0.5000 0.9403 0.5000
C12 C 0.4578(2) 0.8439(4) 0.4994(3)
C13 C 0.4583(2) 0.7618(4) 0.5009(3)
H5 H 0.4295 0.7337 0.5025
C14 C 0.5000 0.7174(6) 0.5000
C15 C 0.5000 0.6281(5) 0.5000
N1 N 0.3341(4) 0.9682(10) 0.5734(3)
C33 C 0.3348(5) 0.9743(11) 0.6796(3)
C34 C 0.3144(5) 0.9092(9) 0.6547(6)
H13 H 0.3006 0.8668 0.6740
C35 C 0.3140(4) 0.9062(8) 0.6016(6)
H14 H 0.3001 0.8617 0.5845
N2 N 0.3356(6) 0.9705(11) 0.7282(6)
C36 C 0.3473(8) 0.9329(10) 0.9098(6)
H15 H 0.3511 0.8940 0.9362
C37 C 0.3450(8) 0.9083(11) 0.8590(7)
H16 H 0.3472 0.8526 0.8507
C38 C 0.3394(7) 0.9651(17) 0.8204(5)
N4 N 0.3370(11) 0.9392(17) 0.7709(7)
O19 O 0.58651(13) 0.9660(3) 0.4999(2)
O20 O 0.62516(15) 0.8455(3) 0.4994(2)
C61 C 0.5875(2) 0.8890(4) 0.5000(3)
C62 C 0.5422(2) 0.8439(4) 0.5006(3)
C63 C 0.5417(2) 0.7618(4) 0.4991(3)
H35 H 0.5705 0.7337 0.4975
Ni5 Ni 0.66018(3) 0.96127(7) 0.49977(7)
N13 N 0.6659(4) 0.9682(10) 0.4266(3)
C87 C 0.6652(5) 0.9743(11) 0.3204(3)
C88 C 0.6856(5) 0.9092(9) 0.3453(6)
H45 H 0.6994 0.8668 0.3260
C89 C 0.6860(4) 0.9062(8) 0.3984(6)
H46 H 0.6999 0.8617 0.4155
N14 N 0.6644(6) 0.9705(11) 0.2718(6)
C90 C 0.6527(8) 0.9329(10) 0.0902(6)
H47 H 0.6489 0.8940 0.0638
C91 C 0.6550(8) 0.9083(11) 0.1410(7)
H48 H 0.6528 0.8526 0.1493
C92 C 0.6606(7) 0.9651(17) 0.1796(5)
N16 N 0.6630(11) 0.9392(17) 0.2291(7)
O37 O 0.72383(17) 0.9109(4) 0.4983(3)
O38 O 0.27617(17) 0.9109(4) 0.5017(3)
N26 N 0.6617(5) 0.9616(12) 0.5800(3)
C97 C 0.6682(6) 0.9681(13) 0.6860(3)
C98 C 0.6840(5) 0.9004(10) 0.6599(7)
H53 H 0.6971 0.8564 0.6782
C99 C 0.6808(5) 0.8972(8) 0.6068(7)
H54 H 0.6917 0.8510 0.5890
N18 N 0.6584(7) 0.9735(14) 0.7372(7)
C102 C 0.6715(7) 0.9694(14) 0.8230(6)
C103 C 0.6893(6) 0.9247(9) 0.8635(10)
H57 H 0.7036 0.8740 0.8573
C104 C 0.6861(6) 0.9543(14) 0.9132(8)
H58 H 0.6983 0.9237 0.9409
N20 N 0.6731(8) 0.9288(12) 0.7762(7)
O45 O 0.6454(6) 0.9135(7) 0.9861(7)
N11_2 N 0.0005(8) 0.0232(10) 0.9165(4)
O28_2 O 0.21899(17) 0.0013(3) 0.5025(3)
C113_2 C 0.0384(5) 0.0020(12) 0.1640(7)
H65_2 H 0.0658 0.0047 0.1843
C114_2 C 0.0396(5) 0.0272(11) 0.1133(8)
H66_2 H 0.0678 0.0470 0.0990
O39_2 O 0.03893(17) 0.0890(2) 0.50017(19)
C17_3 C 0.0000 0.6148(13) 0.0000
H6_3 H -0.0000 0.5575 0.0000
C20_3 C -0.0000 0.7794(10) 0.0000
C21_3 C 0.0000 0.8678(7) 0.0000
O23_2 O 0.1254(4) 0.6414(7) 0.0011(4)
C64_2 C 0.0856(7) 0.6057(12) 0.0023(7)
C65_2 C 0.0434(5) 0.6532(8) 0.0017(4)
C66_2 C 0.0446(6) 0.7375(9) 0.0037(7)
H36_2 H 0.0731 0.7661 0.0073
Ni3_2 Ni 0.0000 0.98067(6) 0.5000
O12_2 O 0.0416(2) 0.9082(5) 0.9998(3)
C11_2 C 0.0000 0.3830(6) 0.5000
H4_2 H 0.0000 0.4403 0.5000
C14_2 C 0.0000 0.2174(6) 0.5000
C15_2 C 0.0000 0.1281(5) 0.5000
C17_4 C 0.0000 0.6148(13) 1.0000
H6_4 H 0.0000 0.5575 1.0000
C20_4 C 0.0000 0.7794(10) 1.0000
C21_4 C 0.0000 0.8678(7) 1.0000
C53_2 C 0.0005(3) 0.9811(6) 0.68388(15)
C54_2 C 0.0423(3) 0.9833(6) 0.6570(2)
H29_2 H 0.0710 0.9857 0.6750
C55_2 C 0.04199(14) 0.9820(5) 0.6039(2)
H30_2 H 0.0706 0.9835 0.5855
C56_2 C 0.0418(6) 0.9941(11) 0.8956(7)
H31_2 H 0.0692 0.9915 0.9159
C57_2 C 0.0430(5) 0.9690(11) 0.8449(8)
H32_2 H 0.0712 0.9491 0.8306
C58_2 C 0.0029(8) 0.9729(10) 0.8151(4)
N12_2 N 0.0053(8) 0.9358(11) 0.7660(5)
O19_2 O 0.08651(13) 0.4660(3) 0.4999(2)
O20_2 O 0.12516(15) 0.3455(3) 0.4994(2)
C61_2 C 0.0875(2) 0.3890(4) 0.5000(3)
C62_2 C 0.0422(2) 0.3439(4) 0.5006(3)
C63_2 C 0.0417(2) 0.2618(4) 0.4991(3)
H35_2 H 0.0705 0.2337 0.4975
O22_2 O 0.0865(4) 0.5264(8) 0.9976(5)
O25_2 O 0.16735(17) 0.5810(4) 0.5048(3)
O26_2 O 0.24053(17) 0.6218(3) 0.4997(4)
O29_2 O 0.05472(18) 0.9110(3) 0.4999(3)
O30_2 O 0.04159(16) 0.7787(3) 0.5002(3)
C67_2 C 0.18207(15) 0.7212(2) 0.5005(2)
C68_2 C 0.21458(10) 0.7833(3) 0.4997(3)
H37_2 H 0.2470 0.7713 0.4999
C69_2 C 0.19971(12) 0.8632(2) 0.4987(2)
C70_2 C 0.15232(13) 0.8808(2) 0.4984(2)
H38_2 H 0.1422 0.9353 0.4977
C71_2 C 0.11980(10) 0.8186(3) 0.4992(2)
C72_2 C 0.13468(13) 0.7388(2) 0.5002(2)
H39_2 H 0.1125 0.6963 0.5007
C73_2 C 0.1961(2) 0.6352(4) 0.5028(4)
C74_2 C 0.2338(3) 0.9243(5) 0.5016(4)
C75_2 C 0.0693(3) 0.8389(5) 0.4987(5)
O31_2 O 0.2113(7) 0.6236(12) 0.0128(9)
O32_2 O 0.2646(8) 0.5170(14) 0.0114(10)
O34_2 O 0.4551(2) 0.6568(10) 0.0033(7)
O36_3 O 0.2869(5) 0.9007(11) 0.0000(6)
H42_2 H 0.2590 0.7568 0.0005
C82_2 C 0.2539(7) 0.5920(15) 0.0056(18)
C84_2 C 0.3247(6) 0.8644(9) 0.0009(9)
N13_2 N 0.1659(4) 0.4682(10) 0.4266(3)
C85_2 C 0.1454(4) 0.5333(7) 0.4017(6)
H43_2 H 0.1317 0.5756 0.4209
C86_2 C 0.1451(5) 0.5363(8) 0.3485(6)
H44_2 H 0.1311 0.5808 0.3315
C87_2 C 0.1652(5) 0.4743(11) 0.3204(3)
C88_2 C 0.1856(5) 0.4092(9) 0.3453(6)
H45_2 H 0.1994 0.3668 0.3260
C89_2 C 0.1860(4) 0.4062(8) 0.3984(6)
H46_2 H 0.1999 0.3617 0.4155
N14_2 N 0.1644(6) 0.4705(11) 0.2718(6)
N15_2 N 0.1560(6) 0.5143(11) 0.0781(6)
C90_2 C 0.1527(8) 0.4329(10) 0.0902(6)
H47_2 H 0.1489 0.3940 0.0638
C91_2 C 0.1550(8) 0.4083(11) 0.1410(7)
H48_2 H 0.1528 0.3526 0.1493
C92_2 C 0.1606(7) 0.4651(17) 0.1796(5)
C93_2 C 0.1639(7) 0.5465(15) 0.1675(8)
H49_2 H 0.1677 0.5854 0.1939
C94_2 C 0.1616(8) 0.5712(10) 0.1167(10)
H50_2 H 0.1639 0.6268 0.1084
N16_2 N 0.1630(11) 0.4392(17) 0.2291(7)
N21_2 N 0.00010(16) 0.9784(3) 0.42242(15)
C105_2 C 0.04190(14) 0.9762(5) 0.3956(2)
H59_2 H 0.0707 0.9737 0.4135
C106_2 C 0.0416(3) 0.9775(6) 0.3424(2)
H60_2 H 0.0702 0.9760 0.3241
N22_2 N 0.0009(6) 0.9938(11) 0.2600(3)
N26_2 N 0.1617(5) 0.4616(12) 0.5800(3)
O36_4 O 0.2869(5) 0.9007(11) 1.0000(6)
C76_2 C 0.2921(4) 0.6480(9) 0.9990(6)
C77_2 C 0.3357(6) 0.6113(8) 0.9976(5)
H40_2 H 0.3380 0.5541 0.9973
C78_2 C 0.3759(4) 0.6582(10) 0.9968(6)
C79_2 C 0.3725(3) 0.7419(10) 0.9973(6)
H41_2 H 0.3999 0.7740 0.9968
C80_2 C 0.3289(4) 0.7786(7) 0.9987(6)
C81_2 C 0.2888(3) 0.7317(9) 0.9996(7)
C83_2 C 0.4212(4) 0.6078(9) 0.9993(7)
C95_2 C 0.1459(5) 0.5293(9) 0.6061(7)
H51_2 H 0.1328 0.5733 0.5878
C96_2 C 0.1491(5) 0.5325(9) 0.6591(7)
H52_2 H 0.1382 0.5788 0.6770
C97_2 C 0.1682(6) 0.4681(13) 0.6860(3)
C98_2 C 0.1840(5) 0.4004(10) 0.6599(7)
H53_2 H 0.1971 0.3564 0.6782
C99_2 C 0.1808(5) 0.3972(8) 0.6068(7)
H54_2 H 0.1917 0.3510 0.5890
N18_2 N 0.1584(7) 0.4735(14) 0.7372(7)
N19_2 N 0.1652(7) 0.5285(15) 0.9223(5)
C100_2 C 0.1474(6) 0.5733(9) 0.8817(10)
H55_2 H 0.1331 0.6240 0.8879
C101_2 C 0.1505(6) 0.5437(13) 0.8321(7)
H56_2 H 0.1384 0.5743 0.8044
C102_2 C 0.1715(7) 0.4694(14) 0.8230(6)
C103_2 C 0.1893(6) 0.4247(9) 0.8635(10)
H57_2 H 0.2036 0.3740 0.8573
C104_2 C 0.1861(6) 0.4543(14) 0.9132(8)
H58_2 H 0.1983 0.4237 0.9409
N20_2 N 0.1731(8) 0.4288(12) 0.7762(7)
N27_2 N 0.9995(8) 0.0232(10) 0.0835(4)
O4_2 O 0.78101(17) 0.0013(3) 0.4975(3)
C59_2 C 0.9616(5) 0.0020(12) 0.8360(7)
H33_2 H 0.9342 0.0047 0.8157
C60_2 C 0.9604(5) 0.0272(11) 0.8867(8)
H34_2 H 0.9322 0.0470 0.9010
O40_2 O 0.96107(17) 0.0890(2) 0.49983(19)
O10_2 O 0.9135(4) 0.5264(8) 0.0024(5)
C17_5 C 1.0000 0.6148(13) 0.0000
H6_5 H 1.0000 0.5575 0.0000
C20_5 C 1.0000 0.7794(10) 0.0000
C21_5 C 1.0000 0.8678(7) 0.0000
O18_3 O 0.7131(5) 0.9007(11) 0.0000(6)
C22_2 C 0.7079(4) 0.6480(9) 0.0010(6)
C23_2 C 0.6643(6) 0.6113(8) 0.0024(5)
H8_2 H 0.6620 0.5541 0.0027
C24_2 C 0.6241(4) 0.6582(10) 0.0032(6)
C25_2 C 0.6275(3) 0.7419(10) 0.0027(6)
H9_2 H 0.6001 0.7740 0.0032
C26_2 C 0.6711(4) 0.7786(7) 0.0013(6)
C27_2 C 0.7112(3) 0.7317(9) 0.0004(7)
C29_2 C 0.5788(4) 0.6078(9) 0.0007(7)
N5_2 N 0.8383(5) 0.4616(12) 0.4200(3)
C41_2 C 0.8541(5) 0.5293(9) 0.3939(7)
H19_2 H 0.8672 0.5733 0.4122
C42_2 C 0.8509(5) 0.5325(9) 0.3409(7)
H20_2 H 0.8618 0.5788 0.3230
C43_2 C 0.8318(6) 0.4681(13) 0.3140(3)
C44_2 C 0.8160(5) 0.4004(10) 0.3401(7)
H21_2 H 0.8029 0.3564 0.3218
C45_2 C 0.8192(5) 0.3972(8) 0.3932(7)
H22_2 H 0.8083 0.3510 0.4110
N6_2 N 0.8416(7) 0.4735(14) 0.2628(7)
N7_2 N 0.8348(7) 0.5285(15) 0.0777(5)
C46_2 C 0.8526(6) 0.5733(9) 0.1183(10)
H23_2 H 0.8669 0.6240 0.1121
C47_2 C 0.8495(6) 0.5437(13) 0.1679(7)
H24_2 H 0.8616 0.5743 0.1956
C48_2 C 0.8285(7) 0.4694(14) 0.1770(6)
C49_2 C 0.8107(6) 0.4247(9) 0.1365(10)
H25_2 H 0.7964 0.3740 0.1427
C50_2 C 0.8139(6) 0.4543(14) 0.0868(8)
H26_2 H 0.8017 0.4237 0.0591
N8_2 N 0.8269(8) 0.4288(12) 0.2238(7)
O24_2 O 0.9584(2) 0.9082(5) 0.0002(3)
Ni3_3 Ni 1.0000 0.98067(6) 0.5000
O1_2 O 0.83265(17) 0.5810(4) 0.4952(3)
O2_2 O 0.75947(17) 0.6218(3) 0.5003(4)
O5_2 O 0.94528(18) 0.9110(3) 0.5001(3)
O6_2 O 0.95841(16) 0.7787(3) 0.4998(3)
O7_2 O 0.91349(13) 0.4660(3) 0.5001(2)
O8_2 O 0.87484(15) 0.3455(3) 0.5006(2)
O11_2 O 0.8746(4) 0.6414(7) 0.9989(4)
C1_2 C 0.81793(15) 0.7212(2) 0.4995(2)
C2_2 C 0.78542(10) 0.7833(3) 0.5003(3)
H1_2 H 0.7530 0.7713 0.5001
C3_2 C 0.80029(12) 0.8632(2) 0.5013(2)
C4_2 C 0.84768(13) 0.8808(2) 0.5016(2)
H2_2 H 0.8578 0.9353 0.5023
C5_2 C 0.88020(10) 0.8186(3) 0.5008(2)
C6_2 C 0.86532(13) 0.7388(2) 0.4998(2)
H3_2 H 0.8875 0.6963 0.4993
C7_2 C 0.8039(2) 0.6352(4) 0.4972(4)
C8_2 C 0.7662(3) 0.9243(5) 0.4984(4)
C9_2 C 0.9307(3) 0.8389(5) 0.5013(5)
C10_2 C 0.9125(2) 0.3890(4) 0.5000(3)
C11_3 C 1.0000 0.3830(6) 0.5000
H4_3 H 1.0000 0.4403 0.5000
C12_2 C 0.9578(2) 0.3439(4) 0.4994(3)
C13_2 C 0.9583(2) 0.2618(4) 0.5009(3)
H5_2 H 0.9295 0.2337 0.5025
C14_3 C 1.0000 0.2174(6) 0.5000
C15_3 C 1.0000 0.1281(5) 0.5000
C16_2 C 0.9144(7) 0.6057(12) 0.9977(7)
C17_6 C 1.0000 0.6148(13) 1.0000
H6_6 H 1.0000 0.5575 1.0000
C18_2 C 0.9566(5) 0.6532(8) 0.9983(4)
C19_2 C 0.9554(6) 0.7375(9) 0.9963(7)
H7_2 H 0.9269 0.7661 0.9927
C20_6 C 1.0000 0.7794(10) 1.0000
C21_6 C 1.0000 0.8678(7) 1.0000
O13_2 O 0.7887(7) 0.6236(12) 0.9872(9)
O14_2 O 0.7354(8) 0.5170(14) 0.9886(10)
O16_2 O 0.5449(2) 0.6568(10) 0.9967(7)
O18_4 O 0.7131(5) 0.9007(11) 1.0000(6)
H10_2 H 0.7410 0.7568 0.9995
C28_2 C 0.7461(7) 0.5920(15) 0.9944(18)
C30_2 C 0.6753(6) 0.8644(9) 0.9991(9)
N1_2 N 0.8341(4) 0.4682(10) 0.5734(3)
C31_2 C 0.8546(4) 0.5333(7) 0.5983(6)
H11_2 H 0.8683 0.5756 0.5791
C32_2 C 0.8549(5) 0.5363(8) 0.6515(6)
H12_2 H 0.8689 0.5808 0.6685
C33_2 C 0.8348(5) 0.4743(11) 0.6796(3)
C34_2 C 0.8144(5) 0.4092(9) 0.6547(6)
H13_2 H 0.8006 0.3668 0.6740
C35_2 C 0.8140(4) 0.4062(8) 0.6016(6)
H14_2 H 0.8001 0.3617 0.5845
N2_2 N 0.8356(6) 0.4705(11) 0.7282(6)
N3_2 N 0.8440(6) 0.5143(11) 0.9219(6)
C36_2 C 0.8473(8) 0.4329(10) 0.9098(6)
H15_2 H 0.8511 0.3940 0.9362
C37_2 C 0.8450(8) 0.4083(11) 0.8590(7)
H16_2 H 0.8472 0.3526 0.8507
C38_2 C 0.8394(7) 0.4651(17) 0.8204(5)
C39_2 C 0.8361(7) 0.5465(15) 0.8325(8)
H17_2 H 0.8323 0.5854 0.8061
C40_2 C 0.8384(8) 0.5712(10) 0.8833(10)
H18_2 H 0.8361 0.6268 0.8916
N4_2 N 0.8370(11) 0.4392(17) 0.7709(7)
N9_2 N 0.99990(16) 0.9784(3) 0.57758(15)
C51_2 C 0.95810(14) 0.9762(5) 0.6044(2)
H27_2 H 0.9293 0.9737 0.5865
C52_2 C 0.9584(3) 0.9775(6) 0.6576(2)
H28_2 H 0.9298 0.9760 0.6759
N10_2 N 0.9991(6) 0.9938(11) 0.7400(3)
C107_2 C 0.9995(3) 0.9811(6) 0.31612(15)
C108_2 C 0.9577(3) 0.9833(6) 0.3430(2)
H61_2 H 0.9290 0.9857 0.3250
C109_2 C 0.95801(14) 0.9820(5) 0.3961(2)
H62_2 H 0.9294 0.9835 0.4145
C110_2 C 0.9582(6) 0.9941(11) 0.1044(7)
H63_2 H 0.9308 0.9915 0.0841
C111_2 C 0.9570(5) 0.9690(11) 0.1551(8)
H64_2 H 0.9288 0.9491 0.1694
C112_2 C 0.9971(8) 0.9729(10) 0.1849(4)
N24_2 N 0.9947(8) 0.9358(11) 0.2340(5)
loop_
_geom_bond_atom_site_label_1
_geom_bond_atom_site_label_2
_geom_bond_site_symmetry_1
_geom_bond_site_symmetry_2
C17 H6 1_555 1_555
C21 C20 1_555 1_555
O15 C29 1_555 1_555
C22 C23 1_555 1_555
C23 H8 1_555 1_555
C24 C23 1_555 1_555
C25 C24 1_555 1_555
H9 C25 1_555 1_555
C26 C25 1_555 1_555
C27 C22 1_555 1_555
C29 C24 1_555 1_555
C41 H19 1_555 1_555
C42 C41 1_555 1_555
H20 C42 1_555 1_555
C46 N7 1_555 1_555
H23 C46 1_555 1_555
C47 C46 1_555 1_555
H24 C47 1_555 1_555
O23 C64 1_555 1_555
O24 Ni4 1_555 1_555
C64 C65 1_555 1_555
C65 C17 1_555 1_555
C66 C20 1_555 1_555
H36 C66 1_555 1_555
Ni17 O15 1_555 1_555
O43 Ni4 1_555 1_555
N27 Ni4 1_555 1_555
C21 O24 1_555 1_555
C26 C27 1_555 1_555
O23 Ni11 1_555 1_555
C65 C66 1_555 1_555
Ni3 O5 1_555 1_555
Ni4_2 O12 1_555 1_555
O1 C7 1_555 1_555
O2 C7 1_555 1_555
O3 C8 1_555 1_555
O4 C8 1_555 1_555
O5 C9 1_555 1_555
O6 C9 1_555 1_555
O11 Ni2 1_555 1_555
O12 C21_2 1_555 1_555
C1 C2 1_555 1_555
C2 H1 1_555 1_555
C3 C2 1_555 1_555
C4 C3 1_555 1_555
H2 C4 1_555 1_555
C5 C4 1_555 1_555
C6 C1 1_555 1_555
H3 C6 1_555 1_555
C7 C1 1_555 1_555
C8 C3 1_555 1_555
C9 C5 1_555 1_555
C16 O11 1_555 1_555
C17_2 H6_2 1_555 1_555
C18 C16 1_555 1_555
C19 C18 1_555 1_555
H7 C19 1_555 1_555
C20_2 C19 1_555 1_555
C21_2 C20_2 1_555 1_555
O13 Ni2 1_555 1_555
O14 C28 1_555 1_555
O17 C30 1_555 1_555
O18_2 C30 1_555 1_555
C28 O13 1_555 1_555
H11 C31 1_555 1_555
C32 C31 1_555 1_555
H12 C32 1_555 1_555
N3 Ni2 1_555 1_555
H17 C39 1_555 1_555
C40 N3 1_555 1_555
H18 C40 1_555 1_555
N9 Ni3 1_555 1_555
C51 N9 1_555 1_555
H27 C51 1_555 1_555
C52 C51 1_555 1_555
H28 C52 1_555 1_555
C53 C52 1_555 1_555
C54 C53 1_555 1_555
H29 C54 1_555 1_555
C55 N9 1_555 1_555
H30 C55 1_555 1_555
N10 C53 1_555 1_555
N11 Ni4_2 1_555 1_555
C56 N11 1_555 1_555
H31 C56 1_555 1_555
C57 C56 1_555 1_555
H32 C57 1_555 1_555
C58 C57 1_555 1_555
C59 C58 1_555 1_555
H33 C59 1_555 1_555
C60 N11 1_555 1_555
H34 C60 1_555 1_555
N12 N10 1_555 1_555
Ni11 O31 1_555 1_555
O26 C73 1_555 1_555
O27 C74 1_555 1_555
O28 C74 1_555 1_555
O29 Ni3 1_555 1_555
O30 C75 1_555 1_555
C67 C68 1_555 1_555
C68 H37 1_555 1_555
C69 C68 1_555 1_555
C70 C69 1_555 1_555
H38 C70 1_555 1_555
C71 C70 1_555 1_555
C72 C67 1_555 1_555
H39 C72 1_555 1_555
C73 O25 1_555 1_555
C74 C69 1_555 1_555
C75 O29 1_555 1_555
O31 C82 1_555 1_555
O32 C82 1_555 1_555
O35 C84 1_555 1_555
O36 C84 1_555 1_555
H43 C85 1_555 1_555
C86 C85 1_555 1_555
H44 C86 1_555 1_555
N15 Ni11 1_555 1_555
H49 C93 1_555 1_555
C94 N15 1_555 1_555
H50 C94 1_555 1_555
N21 Ni3 1_555 1_555
C105 N21 1_555 1_555
H59 C105 1_555 1_555
C106 C105 1_555 1_555
H60 C106 1_555 1_555
C107 C106 1_555 1_555
C108 C107 1_555 1_555
H61 C108 1_555 1_555
C109 N21 1_555 1_555
H62 C109 1_555 1_555
N22 C107 1_555 1_555
N27 C110 1_555 1_555
C110 H63 1_555 1_555
C111 C110 1_555 1_555
H64 C111 1_555 1_555
C112 C111 1_555 1_555
C113 C112 1_555 1_555
H65 C113 1_555 1_555
C114 N27 1_555 1_555
H66 C114 1_555 1_555
N24 N22 1_555 1_555
Ni9 O27 1_555 1_555
Ni10 O3 1_555 1_555
O39 Ni3 1_555 1_555
O40 Ni3 1_555 1_555
O44 Ni4_2 1_555 1_555
C5 C6 1_555 1_555
C17_2 C18 1_555 1_555
C39 C40 1_555 1_555
C54 C55 1_555 1_555
C58 N12 1_555 1_555
C59 C60 1_555 1_555
C67 C73 1_555 1_555
C71 C72 1_555 1_555
C71 C75 1_555 1_555
C93 C94 1_555 1_555
C108 C109 1_555 1_555
C112 N24 1_555 1_555
C113 C114 1_555 1_555
O33 C83 1_555 1_555
C76 C77 1_555 1_555
C77 H40 1_555 1_555
C78 C77 1_555 1_555
C79 C78 1_555 1_555
H41 C79 1_555 1_555
C80 C79 1_555 1_555
C81 C76 1_555 1_555
C83 C78 1_555 1_555
C95 H51 1_555 1_555
C96 C95 1_555 1_555
H52 C96 1_555 1_555
C100 N19 1_555 1_555
H55 C100 1_555 1_555
C101 C100 1_555 1_555
H56 C101 1_555 1_555
Ni17_4 O33 1_555 1_555
C80 C81 1_555 1_555
C44 C43 1_555 1_555
H21 C44 1_555 1_555
C45 N5 1_555 1_555
H22 C45 1_555 1_555
N6 C43 1_555 1_555
C49 C48 1_555 1_555
H25 C49 1_555 1_555
H26 C50 1_555 1_555
N8 N6 1_555 1_555
Ni7 N5 1_555 1_555
C44 C45 1_555 1_555
C48 N8 1_555 1_555
C49 C50 1_555 1_555
O7 Ni7 1_555 1_555
O8 Ni7 1_555 1_555
O39 C15 1_555 1_555
C10 O7 1_555 1_555
C11 H4 1_555 1_555
C12 C10 1_555 1_555
C13 C12 1_555 1_555
H5 C13 1_555 1_555
C14 C13 1_555 1_555
C15 C14 1_555 1_555
N1 Ni7 1_555 1_555
C34 C33 1_555 1_555
H13 C34 1_555 1_555
C35 N1 1_555 1_555
H14 C35 1_555 1_555
N2 C33 1_555 1_555
H15 C36 1_555 1_555
C37 C36 1_555 1_555
H16 C37 1_555 1_555
C38 C37 1_555 1_555
N4 N2 1_555 1_555
O19 C61 1_555 1_555
O20 C61 1_555 1_555
O40 C15 1_555 1_555
C61 C62 1_555 1_555
C62 C11 1_555 1_555
C63 C14 1_555 1_555
H35 C63 1_555 1_555
Ni5 O19 1_555 1_555
N13 Ni5 1_555 1_555
C88 C87 1_555 1_555
H45 C88 1_555 1_555
C89 N13 1_555 1_555
H46 C89 1_555 1_555
N14 C87 1_555 1_555
H47 C90 1_555 1_555
C91 C90 1_555 1_555
H48 C91 1_555 1_555
C92 C91 1_555 1_555
N16 N14 1_555 1_555
O37 Ni5 1_555 1_555
O38 Ni7 1_555 1_555
N26 Ni5 1_555 1_555
O8 C10 1_555 1_555
C11 C12 1_555 1_555
C34 C35 1_555 1_555
C38 N4 1_555 1_555
O20 Ni5 1_555 1_555
C62 C63 1_555 1_555
C88 C89 1_555 1_555
C92 N16 1_555 1_555
C98 C97 1_555 1_555
H53 C98 1_555 1_555
C99 N26 1_555 1_555
H54 C99 1_555 1_555
N18 C97 1_555 1_555
C103 C102 1_555 1_555
H57 C103 1_555 1_555
H58 C104 1_555 1_555
N20 N18 1_555 1_555
C98 C99 1_555 1_555
C102 N20 1_555 1_555
C103 C104 1_555 1_555
N11_2 Ni17_2 1_555 1_555
H65_2 C113_2 1_555 1_555
H66_2 C114_2 1_555 1_555
C113_2 C114_2 1_555 1_555
C17_3 H6_3 1_555 1_555
C21_3 C20_3 1_555 1_555
O23_2 C64_2 1_555 1_555
C64_2 C65_2 1_555 1_555
C65_2 C17_3 1_555 1_555
C66_2 C20_3 1_555 1_555
H36_2 C66_2 1_555 1_555
O23_2 Ni13 1_555 1_555
C65_2 C66_2 1_555 1_555
O39_2 C15_2 1_555 1_555
O12_2 C21_4 1_555 1_555
C11_2 H4_2 1_555 1_555
C15_2 C14_2 1_555 1_555
C17_4 H6_4 1_555 1_555
C21_4 C20_4 1_555 1_555
C54_2 C53_2 1_555 1_555
H29_2 C54_2 1_555 1_555
H30_2 C55_2 1_555 1_555
H31_2 C56_2 1_555 1_555
C57_2 C56_2 1_555 1_555
H32_2 C57_2 1_555 1_555
C58_2 C57_2 1_555 1_555
O19_2 C61_2 1_555 1_555
O20_2 C61_2 1_555 1_555
C61_2 C62_2 1_555 1_555
C62_2 C11_2 1_555 1_555
C63_2 C14_2 1_555 1_555
H35_2 C63_2 1_555 1_555
Ni10 O19_2 1_555 1_555
Ni13 O31_2 1_555 1_555
O25_2 Ni10 1_555 1_555
O26_2 C73_2 1_555 1_555
O38 C74_2 1_555 1_555
O29_2 Ni3_2 1_555 1_555
O30_2 C75_2 1_555 1_555
C67_2 C68_2 1_555 1_555
C68_2 H37_2 1_555 1_555
C69_2 C68_2 1_555 1_555
C70_2 C69_2 1_555 1_555
H38_2 C70_2 1_555 1_555
C71_2 C70_2 1_555 1_555
C72_2 C67_2 1_555 1_555
H39_2 C72_2 1_555 1_555
C73_2 O25_2 1_555 1_555
C74_2 C69_2 1_555 1_555
C75_2 O29_2 1_555 1_555
O31_2 C82_2 1_555 1_555
O32_2 C82_2 1_555 1_555
O46 C84_2 1_555 1_555
O36_3 C84_2 1_555 1_555
N13_2 Ni10 1_555 1_555
C85_2 N13_2 1_555 1_555
H43_2 C85_2 1_555 1_555
C86_2 C85_2 1_555 1_555
H44_2 C86_2 1_555 1_555
C87_2 C86_2 1_555 1_555
C88_2 C87_2 1_555 1_555
H45_2 C88_2 1_555 1_555
C89_2 N13_2 1_555 1_555
H46_2 C89_2 1_555 1_555
N14_2 C87_2 1_555 1_555
N15_2 Ni13 1_555 1_555
C90_2 N15_2 1_555 1_555
H47_2 C90_2 1_555 1_555
C91_2 C90_2 1_555 1_555
H48_2 C91_2 1_555 1_555
C92_2 C91_2 1_555 1_555
C93_2 C92_2 1_555 1_555
H49_2 C93_2 1_555 1_555
C94_2 N15_2 1_555 1_555
H50_2 C94_2 1_555 1_555
N16_2 N14_2 1_555 1_555
N21_2 Ni3_2 1_555 1_555
C105_2 N21_2 1_555 1_555
H59_2 C105_2 1_555 1_555
C106_2 C105_2 1_555 1_555
H60_2 C106_2 1_555 1_555
N26_2 Ni10 1_555 1_555
C54_2 C55_2 1_555 1_555
C58_2 N12_2 1_555 1_555
O20_2 Ni10 1_555 1_555
C62_2 C63_2 1_555 1_555
C67_2 C73_2 1_555 1_555
C71_2 C72_2 1_555 1_555
C71_2 C75_2 1_555 1_555
C88_2 C89_2 1_555 1_555
C92_2 N16_2 1_555 1_555
C93_2 C94_2 1_555 1_555
O44 C83_2 1_555 1_555
C76_2 C77_2 1_555 1_555
C77_2 H40_2 1_555 1_555
C78_2 C77_2 1_555 1_555
C79_2 C78_2 1_555 1_555
H41_2 C79_2 1_555 1_555
C80_2 C79_2 1_555 1_555
C81_2 C76_2 1_555 1_555
C83_2 C78_2 1_555 1_555
N26_2 C95_2 1_555 1_555
C95_2 H51_2 1_555 1_555
C96_2 C95_2 1_555 1_555
H52_2 C96_2 1_555 1_555
C97_2 C96_2 1_555 1_555
C98_2 C97_2 1_555 1_555
H53_2 C98_2 1_555 1_555
C99_2 N26_2 1_555 1_555
H54_2 C99_2 1_555 1_555
N18_2 C97_2 1_555 1_555
C100_2 N19_2 1_555 1_555
H55_2 C100_2 1_555 1_555
C101_2 C100_2 1_555 1_555
H56_2 C101_2 1_555 1_555
C102_2 C101_2 1_555 1_555
C103_2 C102_2 1_555 1_555
H57_2 C103_2 1_555 1_555
C104_2 N19_2 1_555 1_555
H58_2 C104_2 1_555 1_555
N20_2 N18_2 1_555 1_555
C80_2 C81_2 1_555 1_555
C98_2 C99_2 1_555 1_555
C102_2 N20_2 1_555 1_555
C103_2 C104_2 1_555 1_555
N27_2 Ni17_3 1_555 1_555
H33_2 C59_2 1_555 1_555
H34_2 C60_2 1_555 1_555
C59_2 C60_2 1_555 1_555
C17_5 H6_5 1_555 1_555
C21_5 C20_5 1_555 1_555
O43 C29_2 1_555 1_555
C22_2 C23_2 1_555 1_555
C23_2 H8_2 1_555 1_555
C24_2 C23_2 1_555 1_555
C25_2 C24_2 1_555 1_555
H9_2 C25_2 1_555 1_555
C26_2 C25_2 1_555 1_555
C27_2 C22_2 1_555 1_555
C29_2 C24_2 1_555 1_555
N5_2 C41_2 1_555 1_555
C41_2 H19_2 1_555 1_555
C42_2 C41_2 1_555 1_555
H20_2 C42_2 1_555 1_555
C43_2 C42_2 1_555 1_555
C44_2 C43_2 1_555 1_555
H21_2 C44_2 1_555 1_555
C45_2 N5_2 1_555 1_555
H22_2 C45_2 1_555 1_555
N6_2 C43_2 1_555 1_555
C46_2 N7_2 1_555 1_555
H23_2 C46_2 1_555 1_555
C47_2 C46_2 1_555 1_555
H24_2 C47_2 1_555 1_555
C48_2 C47_2 1_555 1_555
C49_2 C48_2 1_555 1_555
H25_2 C49_2 1_555 1_555
C50_2 N7_2 1_555 1_555
H26_2 C50_2 1_555 1_555
N8_2 N6_2 1_555 1_555
Ni9 N5_2 1_555 1_555
C21_5 O24_2 1_555 1_555
C26_2 C27_2 1_555 1_555
C44_2 C45_2 1_555 1_555
C48_2 N8_2 1_555 1_555
C49_2 C50_2 1_555 1_555
Ni9 O1_2 1_555 1_555
Ni3_3 O5_2 1_555 1_555
O1_2 C7_2 1_555 1_555
O2_2 C7_2 1_555 1_555
O37 C8_2 1_555 1_555
O5_2 C9_2 1_555 1_555
O6_2 C9_2 1_555 1_555
O7_2 Ni9 1_555 1_555
O8_2 Ni9 1_555 1_555
O11_2 Ni12 1_555 1_555
C1_2 C2_2 1_555 1_555
C2_2 H1_2 1_555 1_555
C3_2 C2_2 1_555 1_555
C4_2 C3_2 1_555 1_555
H2_2 C4_2 1_555 1_555
C5_2 C4_2 1_555 1_555
C6_2 C1_2 1_555 1_555
H3_2 C6_2 1_555 1_555
C7_2 C1_2 1_555 1_555
C8_2 C3_2 1_555 1_555
C9_2 C5_2 1_555 1_555
C10_2 O7_2 1_555 1_555
C11_3 H4_3 1_555 1_555
C12_2 C10_2 1_555 1_555
C13_2 C12_2 1_555 1_555
H5_2 C13_2 1_555 1_555
C14_3 C13_2 1_555 1_555
C15_3 C14_3 1_555 1_555
C16_2 O11_2 1_555 1_555
C17_6 H6_6 1_555 1_555
C18_2 C16_2 1_555 1_555
C19_2 C18_2 1_555 1_555
H7_2 C19_2 1_555 1_555
C20_6 C19_2 1_555 1_555
C21_6 C20_6 1_555 1_555
O13_2 Ni12 1_555 1_555
O14_2 C28_2 1_555 1_555
O45 C30_2 1_555 1_555
O18_4 C30_2 1_555 1_555
C28_2 O13_2 1_555 1_555
N1_2 Ni9 1_555 1_555
C31_2 N1_2 1_555 1_555
H11_2 C31_2 1_555 1_555
C32_2 C31_2 1_555 1_555
H12_2 C32_2 1_555 1_555
C33_2 C32_2 1_555 1_555
C34_2 C33_2 1_555 1_555
H13_2 C34_2 1_555 1_555
C35_2 N1_2 1_555 1_555
H14_2 C35_2 1_555 1_555
N2_2 C33_2 1_555 1_555
N3_2 Ni12 1_555 1_555
C36_2 N3_2 1_555 1_555
H15_2 C36_2 1_555 1_555
C37_2 C36_2 1_555 1_555
H16_2 C37_2 1_555 1_555
C38_2 C37_2 1_555 1_555
C39_2 C38_2 1_555 1_555
H17_2 C39_2 1_555 1_555
C40_2 N3_2 1_555 1_555
H18_2 C40_2 1_555 1_555
N4_2 N2_2 1_555 1_555
N9_2 Ni3_3 1_555 1_555
C51_2 N9_2 1_555 1_555
H27_2 C51_2 1_555 1_555
C52_2 C51_2 1_555 1_555
H28_2 C52_2 1_555 1_555
O40_2 C15_3 1_555 1_555
C108_2 C107_2 1_555 1_555
H61_2 C108_2 1_555 1_555
H62_2 C109_2 1_555 1_555
C110_2 H63_2 1_555 1_555
C111_2 C110_2 1_555 1_555
H64_2 C111_2 1_555 1_555
C112_2 C111_2 1_555 1_555
O8_2 C10_2 1_555 1_555
C5_2 C6_2 1_555 1_555
C11_3 C12_2 1_555 1_555
C17_6 C18_2 1_555 1_555
C34_2 C35_2 1_555 1_555
C38_2 N4_2 1_555 1_555
C39_2 C40_2 1_555 1_555
C108_2 C109_2 1_555 1_555
C112_2 N24_2 1_555 1_555

#END
