
###############################################################################
#
# This file contains modified crystal structure data generated from the
# MOF subset of the Cambridge Structural Database (CSD) v543 
# hosted by the Cambridge Crystallographic Data Centre (CCDC).
#
# This work is licensed under the Creative Commons
# Attribution-NonCommercial-ShareAlike 4.0 International License.
# To view a copy of this license, visit
# http://creativecommons.org/licenses/by-nc-sa/4.0/
# or send a letter to
# Creative Commons, PO Box 1866, Mountain View, CA 94042, USA.
#
# CIF created using the CSD Python API on 29 September 2022
# The structure has been converted into the P1 space group
# The structure has a 3D framework
# The original CSD entry CASYAA04 is in the hexagonal crystal system
# The framework has been calculated to contain at least 10.0% void space
# The void calculation uses a probe of radius 1.32A, grid spacing 0.4
#
###############################################################################

data_CASYAA04
_chemical_formula_moiety         '(C120 H96 Cu10 F56 N24 Si15)n'
_symmetry_cell_setting           triclinic
_symmetry_space_group_name_H-M   'P 1'
_symmetry_Int_Tables_number      1
_space_group_name_Hall           'P 1'
loop_
_symmetry_equiv_pos_site_id
_symmetry_equiv_pos_as_xyz
1 x,y,z
_cell_length_a                   21.9827(3)
_cell_length_b                   21.9827(3)
_cell_length_c                   16.8317(5)
_cell_angle_alpha                90
_cell_angle_beta                 90
_cell_angle_gamma                120
_cell_volume                     7044.02
loop_
_atom_site_label
_atom_site_type_symbol
_atom_site_fract_x
_atom_site_fract_y
_atom_site_fract_z
Cu3 Cu 0.500000 0.000000 0.750000
Cu1 Cu 0.500000 0.500000 0.750000
N1 N 0.52430(8) 0.60167(7) 0.74598(8)
C1 C 0.54944(10) 0.64334(9) 0.80971(12)
H1 H 0.564444 0.628084 0.853082
C2 C 0.55395(11) 0.70848(9) 0.81341(12)
H2 H 0.570624 0.735651 0.859150
C3 C 0.53353(11) 0.73290(9) 0.74876(10)
C4 C 0.50471(10) 0.62518(9) 0.68293(11)
H3 H 0.487746 0.596799 0.638098
C5 C 0.50883(11) 0.69018(10) 0.68216(11)
H4 H 0.495147 0.705034 0.637327
Si1 Si 0.500000 0.500000 0.500000
F1 F 0.46544(8) 0.55288(6) 0.500000
F2 F 0.41925(10) 0.42949(7) 0.500000
F3 F 0.500000 0.500000 0.60098(12)
N2 N 0.52430(8) 0.92263(11) 0.75402(8)
C6 C 0.54944(10) 0.90610(13) 0.69029(12)
H5 H 0.564444 0.936360 0.646918
C7 C 0.55395(11) 0.84547(14) 0.68659(12)
H6 H 0.570624 0.834973 0.640850
C8 C 0.53353(11) 0.80063(14) 0.75124(10)
C9 C 0.50471(10) 0.87953(13) 0.81707(11)
H7 H 0.487746 0.890947 0.861902
C10 C 0.50883(11) 0.81865(15) 0.81784(11)
H8 H 0.495147 0.790113 0.862673
F4 F 0.53456(8) 0.44712(6) 0.500000
F5 F 0.58075(10) 0.57051(7) 0.500000
F6 F 0.500000 0.500000 0.39902(12)
N3 N 0.47570(8) 0.39833(7) 0.74598(8)
C11 C 0.45056(10) 0.35666(9) 0.80971(12)
H9 H 0.435556 0.371916 0.853082
C12 C 0.44605(11) 0.29152(9) 0.81341(12)
H10 H 0.429376 0.264349 0.859150
C13 C 0.46647(11) 0.26710(9) 0.74876(10)
C14 C 0.49529(10) 0.37482(9) 0.68293(11)
H11 H 0.512254 0.403201 0.638098
C15 C 0.49117(11) 0.30982(10) 0.68216(11)
H12 H 0.504853 0.294966 0.637327
N4 N 0.47570(8) 0.07737(11) 0.75402(8)
C16 C 0.45056(10) 0.09390(13) 0.69029(12)
H13 H 0.435556 0.063640 0.646918
C17 C 0.44605(11) 0.15453(14) 0.68659(12)
H14 H 0.429376 0.165027 0.640850
C18 C 0.46647(11) 0.19937(14) 0.75124(10)
C19 C 0.49529(10) 0.12047(13) 0.81707(11)
H15 H 0.512254 0.109053 0.861902
C20 C 0.49117(11) 0.18135(15) 0.81784(11)
H16 H 0.504853 0.209887 0.862673
Cu3_2 Cu 0.500000 1.000000 0.750000
Cu4 Cu 0.500000 0.500000 0.250000
N5 N 0.60167(7) 0.52430(8) 0.75402(8)
N6 N 0.39833(7) 0.47570(8) 0.75402(8)
F7 F 0.500000 0.500000 0.89902(12)
Cu2 Cu 0.000000 0.500000 0.750000
Si1_2 Si 0.500000 0.000000 0.500000
F3_2 F 0.500000 -0.000000 0.60098(12)
F4_2 F 0.55288(6) 0.08744(10) 0.500000
F5_2 F 0.42949(7) 0.01024(12) 0.500000
F6_2 F 0.500000 -0.000000 0.39902(12)
N3_2 N 0.60167(7) 0.07737(11) 0.74598(8)
C11_2 C 0.64334(9) 0.09390(13) 0.80971(12)
H9_2 H 0.628084 0.063640 0.853082
C12_2 C 0.70848(9) 0.15453(14) 0.81341(12)
H10_2 H 0.735651 0.165027 0.859150
C13_2 C 0.73290(9) 0.19937(14) 0.74876(10)
C14_2 C 0.62518(9) 0.12047(13) 0.68293(11)
H11_2 H 0.596799 0.109053 0.638098
C15_2 C 0.69018(10) 0.18135(15) 0.68216(11)
H12_2 H 0.705034 0.209887 0.637327
N4_2 N 0.92263(11) 0.39833(14) 0.75402(8)
C16_2 C 0.90610(13) 0.35666(16) 0.69029(12)
H13_2 H 0.936360 0.371916 0.646918
C17_2 C 0.84547(14) 0.29152(18) 0.68659(12)
H14_2 H 0.834973 0.264349 0.640850
C18_2 C 0.80063(14) 0.26710(18) 0.75124(10)
C19_2 C 0.87953(13) 0.37482(16) 0.81707(11)
H15_2 H 0.890947 0.403201 0.861902
C20_2 C 0.81865(15) 0.30982(19) 0.81784(11)
H16_2 H 0.790113 0.294966 0.862673
Cu2_2 Cu 1.000000 0.500000 0.750000
Cu4_2 Cu 0.500000 -0.000000 0.250000
F7_2 F 0.500000 0.000000 0.89902(12)
N1_2 N 0.39833(7) 0.92263(11) 0.74598(8)
C1_2 C 0.35666(9) 0.90610(13) 0.80971(12)
H1_2 H 0.371916 0.936360 0.853082
C2_2 C 0.29152(9) 0.84547(14) 0.81341(12)
H2_2 H 0.264349 0.834973 0.859150
C3_2 C 0.26710(9) 0.80063(14) 0.74876(10)
C4_2 C 0.37482(9) 0.87953(13) 0.68293(11)
H3_2 H 0.403201 0.890947 0.638098
C5_2 C 0.30982(10) 0.81865(15) 0.68216(11)
H4_2 H 0.294966 0.790113 0.637327
Si1_3 Si 0.500000 1.000000 0.500000
F1_2 F 0.44712(6) 0.91256(10) 0.500000
F2_2 F 0.57051(7) 0.98976(12) 0.500000
F3_3 F 0.500000 1.000000 0.60098(12)
N2_2 N 0.07737(11) 0.60167(14) 0.75402(8)
C6_2 C 0.09390(13) 0.64334(16) 0.69029(12)
H5_2 H 0.063640 0.628084 0.646918
C7_2 C 0.15453(14) 0.70848(18) 0.68659(12)
H6_2 H 0.165027 0.735651 0.640850
C8_2 C 0.19937(14) 0.73290(18) 0.75124(10)
C9_2 C 0.12047(13) 0.62518(16) 0.81707(11)
H7_2 H 0.109053 0.596799 0.861902
C10_2 C 0.18135(15) 0.69018(19) 0.81784(11)
H8_2 H 0.209887 0.705034 0.862673
F6_3 F 0.500000 1.000000 0.39902(12)
Cu4_3 Cu 0.500000 1.000000 0.250000
F7_3 F 0.500000 1.000000 0.89902(12)
N1_3 N 0.07737(11) 0.47570(8) 0.74598(8)
C1_3 C 0.09390(13) 0.45056(10) 0.80971(12)
H1_3 H 0.063640 0.435556 0.853082
C2_3 C 0.15453(14) 0.44605(11) 0.81341(12)
H2_3 H 0.165027 0.429376 0.859150
C3_3 C 0.19937(14) 0.46647(11) 0.74876(10)
C4_3 C 0.12047(13) 0.49529(10) 0.68293(11)
H3_3 H 0.109053 0.512254 0.638098
C5_3 C 0.18135(15) 0.49117(11) 0.68216(11)
H4_3 H 0.209887 0.504853 0.637327
Si1_4 Si 0.000000 0.500000 0.500000
F1_3 F 0.08744(10) 0.53456(8) 0.500000
F2_3 F 0.01024(12) 0.58075(10) 0.500000
F3_4 F 0.000000 0.500000 0.60098(12)
C6_3 C 0.35666(16) 0.45056(10) 0.69029(12)
H5_3 H 0.371916 0.435556 0.646918
C7_3 C 0.29152(18) 0.44605(11) 0.68659(12)
H6_3 H 0.264349 0.429376 0.640850
C8_3 C 0.26710(18) 0.46647(11) 0.75124(10)
C9_3 C 0.37482(16) 0.49529(10) 0.81707(11)
H7_3 H 0.403201 0.512254 0.861902
C10_3 C 0.30982(19) 0.49117(11) 0.81784(11)
H8_3 H 0.294966 0.504853 0.862673
F6_4 F 0.000000 0.500000 0.39902(12)
Cu4_4 Cu 0.000000 0.500000 0.250000
F7_4 F 0.000000 0.500000 0.89902(12)
Si1_5 Si 1.000000 0.500000 0.500000
F3_5 F 1.000000 0.500000 0.60098(12)
F4_3 F 0.91256(10) 0.46544(8) 0.500000
F5_3 F 0.98976(12) 0.41925(10) 0.500000
F6_5 F 1.000000 0.500000 0.39902(12)
N3_3 N 0.92263(11) 0.52430(8) 0.74598(8)
C11_3 C 0.90610(13) 0.54944(10) 0.80971(12)
H9_3 H 0.936360 0.564444 0.853082
C12_3 C 0.84547(14) 0.55395(11) 0.81341(12)
H10_3 H 0.834973 0.570624 0.859150
C13_3 C 0.80063(14) 0.53353(11) 0.74876(10)
C14_3 C 0.87953(13) 0.50471(10) 0.68293(11)
H11_3 H 0.890947 0.487746 0.638098
C15_3 C 0.81865(15) 0.50883(11) 0.68216(11)
H12_3 H 0.790113 0.495147 0.637327
C16_3 C 0.64334(16) 0.54944(10) 0.69029(12)
H13_3 H 0.628084 0.564444 0.646918
C17_3 C 0.70848(18) 0.55395(11) 0.68659(12)
H14_3 H 0.735651 0.570624 0.640850
C18_3 C 0.73290(18) 0.53353(11) 0.75124(10)
C19_3 C 0.62518(16) 0.50471(10) 0.81707(11)
H15_3 H 0.596799 0.487746 0.861902
C20_3 C 0.69018(19) 0.50883(11) 0.81784(11)
H16_3 H 0.705034 0.495147 0.862673
Cu4_5 Cu 1.000000 0.500000 0.250000
F7_5 F 1.000000 0.500000 0.89902(12)
Si1_6 Si 0.500000 0.500000 -0.000000
F1_4 F 0.55288(6) 0.46544(8) -0.000000
F2_4 F 0.42949(7) 0.41925(10) -0.000000
F4_4 F 0.44712(6) 0.53456(8) -0.000000
F5_4 F 0.57051(7) 0.58075(10) -0.000000
F6_6 F 0.500000 0.500000 0.10098(12)
Si1_7 Si 0.500000 0.500000 1.000000
F1_5 F 0.55288(6) 0.46544(8) 1.000000
F2_5 F 0.42949(7) 0.41925(10) 1.000000
F4_5 F 0.44712(6) 0.53456(8) 1.000000
F5_5 F 0.57051(7) 0.58075(10) 1.000000
Si1_8 Si 0.000000 0.500000 -0.000000
F4_6 F 0.08744(10) 0.55288(6) -0.000000
F5_6 F 0.01024(12) 0.42949(7) -0.000000
F6_7 F -0.000000 0.500000 0.10098(12)
Si1_9 Si 0.000000 0.500000 1.000000
F4_7 F 0.08744(10) 0.55288(6) 1.000000
F5_7 F 0.01024(12) 0.42949(7) 1.000000
Si1_10 Si 1.000000 0.500000 -0.000000
F1_6 F 0.91256(10) 0.44712(6) -0.000000
F2_6 F 0.98976(12) 0.57051(7) -0.000000
F6_8 F 1.000000 0.500000 0.10098(12)
Si1_11 Si 1.000000 0.500000 1.000000
F1_7 F 0.91256(10) 0.44712(6) 1.000000
F2_7 F 0.98976(12) 0.57051(7) 1.000000
Si1_12 Si 0.500000 0.000000 -0.000000
F1_8 F 0.53456(8) 0.08744(10) -0.000000
F2_8 F 0.58075(10) 0.01024(12) -0.000000
F6_9 F 0.500000 0.000000 0.10098(12)
Si1_13 Si 0.500000 0.000000 1.000000
F1_9 F 0.53456(8) 0.08744(10) 1.000000
F2_9 F 0.58075(10) 0.01024(12) 1.000000
Si1_14 Si 0.500000 1.000000 -0.000000
F4_8 F 0.46544(8) 0.91256(10) -0.000000
F5_8 F 0.41925(10) 0.98976(12) -0.000000
F6_10 F 0.500000 1.000000 0.10098(12)
Si1_15 Si 0.500000 1.000000 1.000000
F4_9 F 0.46544(8) 0.91256(10) 1.000000
F5_9 F 0.41925(10) 0.98976(12) 1.000000
N1_4 N 0.47570(8) 0.39833(7) 0.25402(8)
C1_4 C 0.45056(10) 0.35666(9) 0.19029(12)
H1_4 H 0.435556 0.371916 0.146918
C2_4 C 0.44605(11) 0.29152(9) 0.18659(12)
H2_4 H 0.429376 0.264349 0.140850
C3_4 C 0.46647(11) 0.26710(9) 0.25124(10)
C4_4 C 0.49529(10) 0.37482(9) 0.31707(11)
H3_4 H 0.512254 0.403201 0.361902
C5_4 C 0.49117(11) 0.30982(10) 0.31784(11)
H4_4 H 0.504853 0.294966 0.362673
N2_3 N 0.47570(8) 0.07737(11) 0.24598(8)
C6_4 C 0.45056(10) 0.09390(13) 0.30971(12)
H5_4 H 0.435556 0.063640 0.353082
C7_4 C 0.44605(11) 0.15453(14) 0.31341(12)
H6_4 H 0.429376 0.165027 0.359150
C8_4 C 0.46647(11) 0.19937(14) 0.24876(10)
C9_4 C 0.49529(10) 0.12047(13) 0.18293(11)
H7_4 H 0.512254 0.109053 0.138098
C10_4 C 0.49117(11) 0.18135(15) 0.18216(11)
H8_4 H 0.504853 0.209887 0.137327
N3_4 N 0.52430(8) 0.60167(7) 0.25402(8)
C11_4 C 0.54944(10) 0.64334(9) 0.19029(12)
H9_4 H 0.564444 0.628084 0.146918
C12_4 C 0.55395(11) 0.70848(9) 0.18659(12)
H10_4 H 0.570624 0.735651 0.140850
C13_4 C 0.53353(11) 0.73290(9) 0.25124(10)
C14_4 C 0.50471(10) 0.62518(9) 0.31707(11)
H11_4 H 0.487746 0.596799 0.361902
C15_4 C 0.50883(11) 0.69018(10) 0.31784(11)
H12_4 H 0.495147 0.705034 0.362673
N4_3 N 0.52430(8) 0.92263(11) 0.24598(8)
C16_4 C 0.54944(10) 0.90610(13) 0.30971(12)
H13_4 H 0.564444 0.936360 0.353082
C17_4 C 0.55395(11) 0.84547(14) 0.31341(12)
H14_4 H 0.570624 0.834973 0.359150
C18_4 C 0.53353(11) 0.80063(14) 0.24876(10)
C19_4 C 0.50471(10) 0.87953(13) 0.18293(11)
H15_4 H 0.487746 0.890947 0.138098
C20_4 C 0.50883(11) 0.81865(15) 0.18216(11)
H16_4 H 0.495147 0.790113 0.137327
N5_2 N 0.39833(7) 0.47570(8) 0.24598(8)
N6_2 N 0.60167(7) 0.52430(8) 0.24598(8)
N1_5 N 0.60167(7) 0.07737(11) 0.25402(8)
C1_5 C 0.64334(9) 0.09390(13) 0.19029(12)
H1_5 H 0.628084 0.063640 0.146918
C2_5 C 0.70848(9) 0.15453(14) 0.18659(12)
H2_5 H 0.735651 0.165027 0.140850
C3_5 C 0.73290(9) 0.19937(14) 0.25124(10)
C4_5 C 0.62518(9) 0.12047(13) 0.31707(11)
H3_5 H 0.596799 0.109053 0.361902
C5_5 C 0.69018(10) 0.18135(15) 0.31784(11)
H4_5 H 0.705034 0.209887 0.362673
N2_4 N 0.92263(11) 0.39833(14) 0.24598(8)
C6_5 C 0.90610(13) 0.35666(16) 0.30971(12)
H5_5 H 0.936360 0.371916 0.353082
C7_5 C 0.84547(14) 0.29152(18) 0.31341(12)
H6_5 H 0.834973 0.264349 0.359150
C8_5 C 0.80063(14) 0.26710(18) 0.24876(10)
C9_5 C 0.87953(13) 0.37482(16) 0.18293(11)
H7_5 H 0.890947 0.403201 0.138098
C10_5 C 0.81865(15) 0.30982(19) 0.18216(11)
H8_5 H 0.790113 0.294966 0.137327
N3_5 N 0.39833(7) 0.92263(11) 0.25402(8)
C11_5 C 0.35666(9) 0.90610(13) 0.19029(12)
H9_5 H 0.371916 0.936360 0.146918
C12_5 C 0.29152(9) 0.84547(14) 0.18659(12)
H10_5 H 0.264349 0.834973 0.140850
C13_5 C 0.26710(9) 0.80063(14) 0.25124(10)
C14_5 C 0.37482(9) 0.87953(13) 0.31707(11)
H11_5 H 0.403201 0.890947 0.361902
C15_5 C 0.30982(10) 0.81865(15) 0.31784(11)
H12_5 H 0.294966 0.790113 0.362673
N4_4 N 0.07737(11) 0.60167(14) 0.24598(8)
C16_5 C 0.09390(13) 0.64334(16) 0.30971(12)
H13_5 H 0.063640 0.628084 0.353082
C17_5 C 0.15453(14) 0.70848(18) 0.31341(12)
H14_5 H 0.165027 0.735651 0.359150
C18_5 C 0.19937(14) 0.73290(18) 0.24876(10)
C19_5 C 0.12047(13) 0.62518(16) 0.18293(11)
H15_5 H 0.109053 0.596799 0.138098
C20_5 C 0.18135(15) 0.69018(19) 0.18216(11)
H16_5 H 0.209887 0.705034 0.137327
N3_6 N 0.07737(11) 0.47570(8) 0.25402(8)
C11_6 C 0.09390(13) 0.45056(10) 0.19029(12)
H9_6 H 0.063640 0.435556 0.146918
C12_6 C 0.15453(14) 0.44605(11) 0.18659(12)
H10_6 H 0.165027 0.429376 0.140850
C13_6 C 0.19937(14) 0.46647(11) 0.25124(10)
C14_6 C 0.12047(13) 0.49529(10) 0.31707(11)
H11_6 H 0.109053 0.512254 0.361902
C15_6 C 0.18135(15) 0.49117(11) 0.31784(11)
H12_6 H 0.209887 0.504853 0.362673
C16_6 C 0.35666(16) 0.45056(10) 0.30971(12)
H13_6 H 0.371916 0.435556 0.353082
C17_6 C 0.29152(18) 0.44605(11) 0.31341(12)
H14_6 H 0.264349 0.429376 0.359150
C18_6 C 0.26710(18) 0.46647(11) 0.24876(10)
C19_6 C 0.37482(16) 0.49529(10) 0.18293(11)
H15_6 H 0.403201 0.512254 0.138098
C20_6 C 0.30982(19) 0.49117(11) 0.18216(11)
H16_6 H 0.294966 0.504853 0.137327
N1_6 N 0.92263(11) 0.52430(8) 0.25402(8)
C1_6 C 0.90610(13) 0.54944(10) 0.19029(12)
H1_6 H 0.936360 0.564444 0.146918
C2_6 C 0.84547(14) 0.55395(11) 0.18659(12)
H2_6 H 0.834973 0.570624 0.140850
C3_6 C 0.80063(14) 0.53353(11) 0.25124(10)
C4_6 C 0.87953(13) 0.50471(10) 0.31707(11)
H3_6 H 0.890947 0.487746 0.361902
C5_6 C 0.81865(15) 0.50883(11) 0.31784(11)
H4_6 H 0.790113 0.495147 0.362673
C6_6 C 0.64334(16) 0.54944(10) 0.30971(12)
H5_6 H 0.628084 0.564444 0.353082
C7_6 C 0.70848(18) 0.55395(11) 0.31341(12)
H6_6 H 0.735651 0.570624 0.359150
C8_6 C 0.73290(18) 0.53353(11) 0.24876(10)
C9_6 C 0.62518(16) 0.50471(10) 0.18293(11)
H7_6 H 0.596799 0.487746 0.138098
C10_6 C 0.69018(19) 0.50883(11) 0.18216(11)
H8_6 H 0.705034 0.495147 0.137327
loop_
_geom_bond_atom_site_label_1
_geom_bond_atom_site_label_2
_geom_bond_site_symmetry_1
_geom_bond_site_symmetry_2
Cu1 N1 1_555 1_555
N1 C1 1_555 1_555
C1 H1 1_555 1_555
C2 C1 1_555 1_555
H2 C2 1_555 1_555
C3 C2 1_555 1_555
C4 N1 1_555 1_555
H3 C4 1_555 1_555
C5 C3 1_555 1_555
H4 C5 1_555 1_555
Si1 F1 1_555 1_555
F2 Si1 1_555 1_555
F3 Cu1 1_555 1_555
N2 C6 1_555 1_555
C6 H5 1_555 1_555
C7 C6 1_555 1_555
H6 C7 1_555 1_555
C8 C3 1_555 1_555
C9 N2 1_555 1_555
H7 C9 1_555 1_555
C10 C8 1_555 1_555
H8 C10 1_555 1_555
F4 Si1 1_555 1_555
F5 Si1 1_555 1_555
F6 Si1 1_555 1_555
N3 Cu1 1_555 1_555
C11 N3 1_555 1_555
H9 C11 1_555 1_555
C12 C11 1_555 1_555
H10 C12 1_555 1_555
C13 C12 1_555 1_555
C14 N3 1_555 1_555
H11 C14 1_555 1_555
C15 C13 1_555 1_555
H12 C15 1_555 1_555
N4 C16 1_555 1_555
C16 H13 1_555 1_555
C17 C16 1_555 1_555
H14 C17 1_555 1_555
C18 C13 1_555 1_555
C19 N4 1_555 1_555
H15 C19 1_555 1_555
C20 C18 1_555 1_555
H16 C20 1_555 1_555
Cu3 N4 1_555 1_555
Cu3_2 N2 1_555 1_555
Cu4 F6 1_555 1_555
N5 Cu1 1_555 1_555
N6 Cu1 1_555 1_555
F7 Cu1 1_555 1_555
C4 C5 1_555 1_555
Si1 F3 1_555 1_555
C7 C8 1_555 1_555
C9 C10 1_555 1_555
C14 C15 1_555 1_555
C17 C18 1_555 1_555
C19 C20 1_555 1_555
F3_2 Cu3 1_555 1_555
F4_2 Si1_2 1_555 1_555
F5_2 Si1_2 1_555 1_555
F6_2 Si1_2 1_555 1_555
N3_2 Cu3 1_555 1_555
C11_2 N3_2 1_555 1_555
H9_2 C11_2 1_555 1_555
C12_2 C11_2 1_555 1_555
H10_2 C12_2 1_555 1_555
C13_2 C12_2 1_555 1_555
C14_2 N3_2 1_555 1_555
H11_2 C14_2 1_555 1_555
C15_2 C13_2 1_555 1_555
H12_2 C15_2 1_555 1_555
N4_2 C16_2 1_555 1_555
C16_2 H13_2 1_555 1_555
C17_2 C16_2 1_555 1_555
H14_2 C17_2 1_555 1_555
C18_2 C13_2 1_555 1_555
C19_2 N4_2 1_555 1_555
H15_2 C19_2 1_555 1_555
C20_2 C18_2 1_555 1_555
H16_2 C20_2 1_555 1_555
Cu2_2 N4_2 1_555 1_555
Cu4_2 F6_2 1_555 1_555
F7_2 Cu3 1_555 1_555
Si1_2 F3_2 1_555 1_555
C14_2 C15_2 1_555 1_555
C17_2 C18_2 1_555 1_555
C19_2 C20_2 1_555 1_555
Cu3_2 N1_2 1_555 1_555
N1_2 C1_2 1_555 1_555
C1_2 H1_2 1_555 1_555
C2_2 C1_2 1_555 1_555
H2_2 C2_2 1_555 1_555
C3_2 C2_2 1_555 1_555
C4_2 N1_2 1_555 1_555
H3_2 C4_2 1_555 1_555
C5_2 C3_2 1_555 1_555
H4_2 C5_2 1_555 1_555
Si1_3 F1_2 1_555 1_555
F2_2 Si1_3 1_555 1_555
F3_3 Cu3_2 1_555 1_555
N2_2 C6_2 1_555 1_555
C6_2 H5_2 1_555 1_555
C7_2 C6_2 1_555 1_555
H6_2 C7_2 1_555 1_555
C8_2 C3_2 1_555 1_555
C9_2 N2_2 1_555 1_555
H7_2 C9_2 1_555 1_555
C10_2 C8_2 1_555 1_555
H8_2 C10_2 1_555 1_555
F6_3 Si1_3 1_555 1_555
Cu2 N2_2 1_555 1_555
Cu4_3 F6_3 1_555 1_555
F7_3 Cu3_2 1_555 1_555
C4_2 C5_2 1_555 1_555
Si1_3 F3_3 1_555 1_555
C7_2 C8_2 1_555 1_555
C9_2 C10_2 1_555 1_555
Cu2 N1_3 1_555 1_555
N1_3 C1_3 1_555 1_555
C1_3 H1_3 1_555 1_555
C2_3 C1_3 1_555 1_555
H2_3 C2_3 1_555 1_555
C3_3 C2_3 1_555 1_555
C4_3 N1_3 1_555 1_555
H3_3 C4_3 1_555 1_555
C5_3 C3_3 1_555 1_555
H4_3 C5_3 1_555 1_555
Si1_4 F1_3 1_555 1_555
F2_3 Si1_4 1_555 1_555
F3_4 Cu2 1_555 1_555
N6 C6_3 1_555 1_555
C6_3 H5_3 1_555 1_555
C7_3 C6_3 1_555 1_555
H6_3 C7_3 1_555 1_555
C8_3 C3_3 1_555 1_555
C9_3 N6 1_555 1_555
H7_3 C9_3 1_555 1_555
C10_3 C8_3 1_555 1_555
H8_3 C10_3 1_555 1_555
F6_4 Si1_4 1_555 1_555
Cu4_4 F6_4 1_555 1_555
F7_4 Cu2 1_555 1_555
C4_3 C5_3 1_555 1_555
Si1_4 F3_4 1_555 1_555
C7_3 C8_3 1_555 1_555
C9_3 C10_3 1_555 1_555
F3_5 Cu2_2 1_555 1_555
F4_3 Si1_5 1_555 1_555
F5_3 Si1_5 1_555 1_555
F6_5 Si1_5 1_555 1_555
N3_3 Cu2_2 1_555 1_555
C11_3 N3_3 1_555 1_555
H9_3 C11_3 1_555 1_555
C12_3 C11_3 1_555 1_555
H10_3 C12_3 1_555 1_555
C13_3 C12_3 1_555 1_555
C14_3 N3_3 1_555 1_555
H11_3 C14_3 1_555 1_555
C15_3 C13_3 1_555 1_555
H12_3 C15_3 1_555 1_555
N5 C16_3 1_555 1_555
C16_3 H13_3 1_555 1_555
C17_3 C16_3 1_555 1_555
H14_3 C17_3 1_555 1_555
C18_3 C13_3 1_555 1_555
C19_3 N5 1_555 1_555
H15_3 C19_3 1_555 1_555
C20_3 C18_3 1_555 1_555
H16_3 C20_3 1_555 1_555
Cu4_5 F6_5 1_555 1_555
F7_5 Cu2_2 1_555 1_555
Si1_5 F3_5 1_555 1_555
C14_3 C15_3 1_555 1_555
C17_3 C18_3 1_555 1_555
C19_3 C20_3 1_555 1_555
Si1_6 F1_4 1_555 1_555
F2_4 Si1_6 1_555 1_555
F4_4 Si1_6 1_555 1_555
F5_4 Si1_6 1_555 1_555
F6_6 Si1_6 1_555 1_555
Cu4 F6_6 1_555 1_555
Si1_7 F1_5 1_555 1_555
F2_5 Si1_7 1_555 1_555
F4_5 Si1_7 1_555 1_555
F5_5 Si1_7 1_555 1_555
Si1_7 F7 1_555 1_555
F4_6 Si1_8 1_555 1_555
F5_6 Si1_8 1_555 1_555
F6_7 Si1_8 1_555 1_555
Cu4_4 F6_7 1_555 1_555
F4_7 Si1_9 1_555 1_555
F5_7 Si1_9 1_555 1_555
Si1_9 F7_4 1_555 1_555
Si1_10 F1_6 1_555 1_555
F2_6 Si1_10 1_555 1_555
F6_8 Si1_10 1_555 1_555
Cu4_5 F6_8 1_555 1_555
Si1_11 F1_7 1_555 1_555
F2_7 Si1_11 1_555 1_555
Si1_11 F7_5 1_555 1_555
Si1_12 F1_8 1_555 1_555
F2_8 Si1_12 1_555 1_555
F6_9 Si1_12 1_555 1_555
Cu4_2 F6_9 1_555 1_555
Si1_13 F1_9 1_555 1_555
F2_9 Si1_13 1_555 1_555
Si1_13 F7_2 1_555 1_555
F4_8 Si1_14 1_555 1_555
F5_8 Si1_14 1_555 1_555
F6_10 Si1_14 1_555 1_555
Cu4_3 F6_10 1_555 1_555
F4_9 Si1_15 1_555 1_555
F5_9 Si1_15 1_555 1_555
Si1_15 F7_3 1_555 1_555
Cu4 N1_4 1_555 1_555
N1_4 C1_4 1_555 1_555
C1_4 H1_4 1_555 1_555
C2_4 C1_4 1_555 1_555
H2_4 C2_4 1_555 1_555
C3_4 C2_4 1_555 1_555
C4_4 N1_4 1_555 1_555
H3_4 C4_4 1_555 1_555
C5_4 C3_4 1_555 1_555
H4_4 C5_4 1_555 1_555
N2_3 C6_4 1_555 1_555
C6_4 H5_4 1_555 1_555
C7_4 C6_4 1_555 1_555
H6_4 C7_4 1_555 1_555
C8_4 C3_4 1_555 1_555
C9_4 N2_3 1_555 1_555
H7_4 C9_4 1_555 1_555
C10_4 C8_4 1_555 1_555
H8_4 C10_4 1_555 1_555
N3_4 Cu4 1_555 1_555
C11_4 N3_4 1_555 1_555
H9_4 C11_4 1_555 1_555
C12_4 C11_4 1_555 1_555
H10_4 C12_4 1_555 1_555
C13_4 C12_4 1_555 1_555
C14_4 N3_4 1_555 1_555
H11_4 C14_4 1_555 1_555
C15_4 C13_4 1_555 1_555
H12_4 C15_4 1_555 1_555
N4_3 C16_4 1_555 1_555
C16_4 H13_4 1_555 1_555
C17_4 C16_4 1_555 1_555
H14_4 C17_4 1_555 1_555
C18_4 C13_4 1_555 1_555
C19_4 N4_3 1_555 1_555
H15_4 C19_4 1_555 1_555
C20_4 C18_4 1_555 1_555
H16_4 C20_4 1_555 1_555
Cu4_3 N4_3 1_555 1_555
Cu4_2 N2_3 1_555 1_555
N5_2 Cu4 1_555 1_555
N6_2 Cu4 1_555 1_555
C4_4 C5_4 1_555 1_555
C7_4 C8_4 1_555 1_555
C9_4 C10_4 1_555 1_555
C14_4 C15_4 1_555 1_555
C17_4 C18_4 1_555 1_555
C19_4 C20_4 1_555 1_555
Cu4_2 N1_5 1_555 1_555
N1_5 C1_5 1_555 1_555
C1_5 H1_5 1_555 1_555
C2_5 C1_5 1_555 1_555
H2_5 C2_5 1_555 1_555
C3_5 C2_5 1_555 1_555
C4_5 N1_5 1_555 1_555
H3_5 C4_5 1_555 1_555
C5_5 C3_5 1_555 1_555
H4_5 C5_5 1_555 1_555
N2_4 C6_5 1_555 1_555
C6_5 H5_5 1_555 1_555
C7_5 C6_5 1_555 1_555
H6_5 C7_5 1_555 1_555
C8_5 C3_5 1_555 1_555
C9_5 N2_4 1_555 1_555
H7_5 C9_5 1_555 1_555
C10_5 C8_5 1_555 1_555
H8_5 C10_5 1_555 1_555
Cu4_5 N2_4 1_555 1_555
C4_5 C5_5 1_555 1_555
C7_5 C8_5 1_555 1_555
C9_5 C10_5 1_555 1_555
N3_5 Cu4_3 1_555 1_555
C11_5 N3_5 1_555 1_555
H9_5 C11_5 1_555 1_555
C12_5 C11_5 1_555 1_555
H10_5 C12_5 1_555 1_555
C13_5 C12_5 1_555 1_555
C14_5 N3_5 1_555 1_555
H11_5 C14_5 1_555 1_555
C15_5 C13_5 1_555 1_555
H12_5 C15_5 1_555 1_555
N4_4 C16_5 1_555 1_555
C16_5 H13_5 1_555 1_555
C17_5 C16_5 1_555 1_555
H14_5 C17_5 1_555 1_555
C18_5 C13_5 1_555 1_555
C19_5 N4_4 1_555 1_555
H15_5 C19_5 1_555 1_555
C20_5 C18_5 1_555 1_555
H16_5 C20_5 1_555 1_555
Cu4_4 N4_4 1_555 1_555
C14_5 C15_5 1_555 1_555
C17_5 C18_5 1_555 1_555
C19_5 C20_5 1_555 1_555
N3_6 Cu4_4 1_555 1_555
C11_6 N3_6 1_555 1_555
H9_6 C11_6 1_555 1_555
C12_6 C11_6 1_555 1_555
H10_6 C12_6 1_555 1_555
C13_6 C12_6 1_555 1_555
C14_6 N3_6 1_555 1_555
H11_6 C14_6 1_555 1_555
C15_6 C13_6 1_555 1_555
H12_6 C15_6 1_555 1_555
N5_2 C16_6 1_555 1_555
C16_6 H13_6 1_555 1_555
C17_6 C16_6 1_555 1_555
H14_6 C17_6 1_555 1_555
C18_6 C13_6 1_555 1_555
C19_6 N5_2 1_555 1_555
H15_6 C19_6 1_555 1_555
C20_6 C18_6 1_555 1_555
H16_6 C20_6 1_555 1_555
C14_6 C15_6 1_555 1_555
C17_6 C18_6 1_555 1_555
C19_6 C20_6 1_555 1_555
Cu4_5 N1_6 1_555 1_555
N1_6 C1_6 1_555 1_555
C1_6 H1_6 1_555 1_555
C2_6 C1_6 1_555 1_555
H2_6 C2_6 1_555 1_555
C3_6 C2_6 1_555 1_555
C4_6 N1_6 1_555 1_555
H3_6 C4_6 1_555 1_555
C5_6 C3_6 1_555 1_555
H4_6 C5_6 1_555 1_555
N6_2 C6_6 1_555 1_555
C6_6 H5_6 1_555 1_555
C7_6 C6_6 1_555 1_555
H6_6 C7_6 1_555 1_555
C8_6 C3_6 1_555 1_555
C9_6 N6_2 1_555 1_555
H7_6 C9_6 1_555 1_555
C10_6 C8_6 1_555 1_555
H8_6 C10_6 1_555 1_555
C4_6 C5_6 1_555 1_555
C7_6 C8_6 1_555 1_555
C9_6 C10_6 1_555 1_555

#END
