
###############################################################################
#
# This file contains modified crystal structure data generated from the
# MOF subset of the Cambridge Structural Database (CSD) v543 
# hosted by the Cambridge Crystallographic Data Centre (CCDC).
#
# This work is licensed under the Creative Commons
# Attribution-NonCommercial-ShareAlike 4.0 International License.
# To view a copy of this license, visit
# http://creativecommons.org/licenses/by-nc-sa/4.0/
# or send a letter to
# Creative Commons, PO Box 1866, Mountain View, CA 94042, USA.
#
# CIF created using the CSD Python API on 29 September 2022
# The structure has been converted into the P1 space group
# The structure has a 3D framework
# The original CSD entry CATDEH is in the rhombohedral crystal system
# The framework has been calculated to contain at least 10.0% void space
# The void calculation uses a probe of radius 1.32A, grid spacing 0.4
#
###############################################################################

data_CATDEH
_chemical_formula_moiety         '(C378 H234 N54 Zn11)n'
_symmetry_cell_setting           triclinic
_symmetry_space_group_name_H-M   'P 1'
_symmetry_Int_Tables_number      1
_space_group_name_Hall           'P 1'
loop_
_symmetry_equiv_pos_site_id
_symmetry_equiv_pos_as_xyz
1 x,y,z
_cell_length_a                   32.9114(13)
_cell_length_b                   32.9114(13)
_cell_length_c                   9.4246(5)
_cell_angle_alpha                90
_cell_angle_beta                 90
_cell_angle_gamma                120.00
_cell_volume                     8840.69
loop_
_atom_site_label
_atom_site_type_symbol
_atom_site_fract_x
_atom_site_fract_y
_atom_site_fract_z
C12 C 0.54452(11) 0.08779(12) 0.0615(3)
H5 H 0.5225 0.0556 0.0776
C13 C 0.56168(14) 0.11891(14) 0.1757(4)
H6 H 0.5513 0.1080 0.2694
C14 C 0.59380(16) 0.16559(14) 0.1523(4)
H7 H 0.6052 0.1868 0.2300
C15 C 0.60938(16) 0.18164(14) 0.0174(5)
H8 H 0.6317 0.2138 0.0022
Zn1 Zn 0.5000 0.0000 0.5000
N1 N 0.49871(7) 0.05848(8) 0.5720(2)
N2 N 0.53396(8) 0.00058(8) 0.6858(2)
C1 C 0.47464(9) 0.07751(9) 0.5082(3)
C2 C 0.47691(11) 0.11454(10) 0.5973(3)
H1 H 0.4634 0.1336 0.5775
C3 C 0.50185(11) 0.11682(10) 0.7138(3)
H2 H 0.5093 0.1378 0.7914
C4 C 0.51520(9) 0.08118(9) 0.6982(3)
C5 C 0.54045(9) 0.07107(9) 0.7999(3)
C6 C 0.54993(9) 0.03412(10) 0.7908(3)
C7 C 0.58066(11) 0.02711(11) 0.8854(3)
H3 H 0.5959 0.0451 0.9675
C10 C 0.45000(9) 0.06261(10) 0.3797(3)
C11 C 0.55957(10) 0.10374(10) 0.9247(3)
C16 C 0.59253(12) 0.15086(12) 0.9033(4)
H9 H 0.6035 0.1620 0.8102
C17 C 0.42458(10) 0.08756(10) 0.3354(3)
C18 C 0.38426(11) 0.07979(11) 0.4050(3)
H10 H 0.3718 0.0577 0.4804
C19 C 0.41650(10) 0.14279(11) 0.1913(3)
H11 H 0.4281 0.1651 0.1163
N3 N 0.37792(8) 0.13546(9) 0.2583(3)
C20 C 0.36228(10) 0.10447(11) 0.3637(3)
H12 H 0.3348 0.0990 0.4130
C21 C 0.44082(11) 0.11962(11) 0.2252(3)
H13 H 0.4681 0.1257 0.1735
Zn2 Zn 0.3333 0.1667 0.1667
C29 C 0.41636(11) 0.00982(11) 0.1649(3)
H17 H 0.3986 0.0226 0.1252
C30 C 0.44549(10) 0.02622(10) 0.2909(3)
N8 N 0.57579(12) 0.04459(8) 0.4084(3)
Zn1_2 Zn 0.5000 1.0000 0.5000
C8 C 0.58364(11) 0.99018(11) 0.8351(3)
H4 H 0.6014 0.9774 0.8748
C9 C 0.55451(10) 0.97378(10) 0.7091(3)
Zn3 Zn 0.6667 0.8333 0.8333
N4 N 0.50129(7) 0.94152(8) 0.4280(2)
N5 N 0.46604(8) 0.99942(8) 0.3142(2)
C22 C 0.52536(9) 0.92249(9) 0.4918(3)
C23 C 0.52309(11) 0.88546(10) 0.4027(3)
H14 H 0.5366 0.8664 0.4225
C24 C 0.49815(11) 0.88318(10) 0.2862(3)
H15 H 0.4907 0.8622 0.2086
C25 C 0.48480(9) 0.91882(9) 0.3018(3)
C26 C 0.45955(9) 0.92893(9) 0.2001(3)
C27 C 0.45007(9) 0.96588(10) 0.2092(3)
C28 C 0.41934(11) 0.97289(11) 0.1146(3)
H16 H 0.4041 0.9549 0.0325
C31 C 0.55000(9) 0.93739(10) 0.6203(3)
C32 C 0.44043(10) 0.89626(10) 0.0753(3)
C37 C 0.40747(12) 0.84914(12) 0.0967(4)
H22 H 0.3965 0.8380 0.1898
C38 C 0.57542(10) 0.91244(10) 0.6646(3)
C39 C 0.61574(11) 0.92021(11) 0.5950(3)
H23 H 0.6282 0.9423 0.5196
C40 C 0.58350(10) 0.85721(11) 0.8087(3)
H24 H 0.5719 0.8349 0.8837
N6 N 0.62208(8) 0.86454(9) 0.7417(3)
N7 N 0.42421(12) 0.95541(8) 0.5916(3)
C41 C 0.63772(10) 0.89553(11) 0.6363(3)
H25 H 0.6652 0.9010 0.5870
C42 C 0.55918(11) 0.88038(11) 0.7748(3)
H26 H 0.5319 0.8743 0.8265
Zn1_3 Zn -0.0000 0.5000 0.5000
C8_2 C 0.00982(11) 0.59346(16) 0.8351(3)
H4_2 H 0.0226 0.6240 0.8748
C9_2 C 0.02622(10) 0.58073(14) 0.7091(3)
Zn3_2 Zn 0.1667 0.8333 0.8333
N4_2 N 0.05848(8) 0.55977(11) 0.4280(2)
N5_2 N 0.00058(8) 0.46662(11) 0.3142(2)
C22_2 C 0.07751(9) 0.60287(13) 0.4918(3)
C23_2 C 0.11454(10) 0.63763(15) 0.4027(3)
H14_2 H 0.1336 0.6702 0.4225
C24_2 C 0.11682(10) 0.61497(15) 0.2862(3)
H15_2 H 0.1378 0.6285 0.2086
C25_2 C 0.08118(9) 0.56598(13) 0.3018(3)
C26_2 C 0.07107(9) 0.53062(13) 0.2001(3)
C27_2 C 0.03412(10) 0.48419(13) 0.2092(3)
C28_2 C 0.02711(11) 0.44645(16) 0.1146(3)
H16_2 H 0.0451 0.4492 0.0325
C31_2 C 0.06261(10) 0.61261(13) 0.6203(3)
C32_2 C 0.10374(10) 0.54417(14) 0.0753(3)
C37_2 C 0.15086(12) 0.55833(17) 0.0967(4)
H22_2 H 0.1620 0.5585 0.1898
C38_2 C 0.08756(10) 0.66298(14) 0.6646(3)
C39_2 C 0.07979(11) 0.69553(16) 0.5950(3)
H23_2 H 0.0577 0.6859 0.5196
C40_2 C 0.14279(11) 0.72629(15) 0.8087(3)
H24_2 H 0.1651 0.7370 0.8837
N6_2 N 0.13546(9) 0.75754(12) 0.7417(3)
N7_2 N 0.04459(8) 0.46879(14) 0.5916(3)
C41_2 C 0.10447(11) 0.74219(15) 0.6363(3)
H25_2 H 0.0990 0.7642 0.5870
C42_2 C 0.11962(11) 0.67880(16) 0.7748(3)
H26_2 H 0.1257 0.6576 0.8265
Zn1_4 Zn 1.0000 0.5000 0.5000
N1_2 N 0.94152(8) 0.44023(11) 0.5720(2)
N2_2 N 0.99942(8) 0.53338(11) 0.6858(2)
C1_2 C 0.92249(9) 0.39713(13) 0.5082(3)
C2_2 C 0.88546(10) 0.36237(15) 0.5973(3)
H1_2 H 0.8664 0.3298 0.5775
C3_2 C 0.88318(10) 0.38503(15) 0.7138(3)
H2_2 H 0.8622 0.3715 0.7914
C4_2 C 0.91882(9) 0.43402(13) 0.6982(3)
C5_2 C 0.92893(9) 0.46938(13) 0.7999(3)
C6_2 C 0.96588(10) 0.51581(13) 0.7908(3)
C7_2 C 0.97289(11) 0.55355(16) 0.8854(3)
H3_2 H 0.9549 0.5508 0.9675
C10_2 C 0.93739(10) 0.38739(13) 0.3797(3)
C11_2 C 0.89626(10) 0.45583(14) 0.9247(3)
C16_2 C 0.84914(12) 0.44167(17) 0.9033(4)
H9_2 H 0.8380 0.4415 0.8102
C17_2 C 0.91244(10) 0.33702(14) 0.3354(3)
C18_2 C 0.92021(11) 0.30447(16) 0.4050(3)
H10_2 H 0.9423 0.3141 0.4804
C19_2 C 0.85721(11) 0.27371(15) 0.1913(3)
H11_2 H 0.8349 0.2630 0.1163
N3_2 N 0.86454(9) 0.24246(12) 0.2583(3)
C20_2 C 0.89553(11) 0.25781(15) 0.3637(3)
H12_2 H 0.9010 0.2358 0.4130
C21_2 C 0.88038(11) 0.32120(16) 0.2252(3)
H13_2 H 0.8743 0.3424 0.1735
Zn2_2 Zn 0.8333 0.1667 0.1667
C29_2 C 0.99018(11) 0.40654(16) 0.1649(3)
H17_2 H 0.9774 0.3760 0.1252
C30_2 C 0.97378(10) 0.41927(14) 0.2909(3)
N8_2 N 0.95541(8) 0.53121(14) 0.4084(3)
Zn1_5 Zn 0.5000 0.5000 0.5000
N1_3 N 0.55977(11) 0.50129(7) 0.5720(2)
N2_3 N 0.46662(11) 0.46604(8) 0.6858(2)
C1_3 C 0.60287(13) 0.52536(9) 0.5082(3)
C2_3 C 0.63763(15) 0.52309(11) 0.5973(3)
H1_3 H 0.6702 0.5366 0.5775
C3_3 C 0.61497(15) 0.49815(11) 0.7138(3)
H2_3 H 0.6285 0.4907 0.7914
C4_3 C 0.56598(13) 0.48480(9) 0.6982(3)
C5_3 C 0.53062(13) 0.45955(9) 0.7999(3)
C6_3 C 0.48419(13) 0.45007(9) 0.7908(3)
C7_3 C 0.44645(16) 0.41934(11) 0.8854(3)
H3_3 H 0.4492 0.4041 0.9675
C8_3 C 0.40654(16) 0.41636(11) 0.8351(3)
H4_3 H 0.3760 0.3986 0.8748
C9_3 C 0.41927(14) 0.44549(10) 0.7091(3)
C10_3 C 0.61261(13) 0.55000(9) 0.3797(3)
C11_3 C 0.54417(14) 0.44043(10) 0.9247(3)
C16_3 C 0.55833(17) 0.40747(12) 0.9033(4)
H9_3 H 0.5585 0.3965 0.8102
C17_3 C 0.66298(14) 0.57542(10) 0.3354(3)
C18_3 C 0.69553(16) 0.61574(11) 0.4050(3)
H10_3 H 0.6859 0.6282 0.4804
C19_3 C 0.72629(15) 0.58350(10) 0.1913(3)
H11_3 H 0.7370 0.5719 0.1163
N3_3 N 0.75754(12) 0.62208(8) 0.2583(3)
C20_3 C 0.74219(15) 0.63772(10) 0.3637(3)
H12_3 H 0.7642 0.6652 0.4130
C21_3 C 0.67880(16) 0.55918(11) 0.2252(3)
H13_3 H 0.6576 0.5319 0.1735
Zn2_3 Zn 0.8333 0.6667 0.1667
Zn3_3 Zn 0.1667 0.3333 0.8333
N4_3 N 0.44023(11) 0.49871(7) 0.4280(2)
N5_3 N 0.53338(11) 0.53396(8) 0.3142(2)
C22_3 C 0.39713(13) 0.47464(9) 0.4918(3)
C23_3 C 0.36237(15) 0.47691(11) 0.4027(3)
H14_3 H 0.3298 0.4634 0.4225
C24_3 C 0.38503(15) 0.50185(11) 0.2862(3)
H15_3 H 0.3715 0.5093 0.2086
C25_3 C 0.43402(13) 0.51520(9) 0.3018(3)
C26_3 C 0.46938(13) 0.54045(9) 0.2001(3)
C27_3 C 0.51581(13) 0.54993(9) 0.2092(3)
C28_3 C 0.55355(16) 0.58066(11) 0.1146(3)
H16_3 H 0.5508 0.5959 0.0325
C29_3 C 0.59346(16) 0.58364(11) 0.1649(3)
H17_3 H 0.6240 0.6014 0.1252
C30_3 C 0.58073(14) 0.55451(10) 0.2909(3)
C31_3 C 0.38739(13) 0.45000(9) 0.6203(3)
C32_3 C 0.45583(14) 0.55957(10) 0.0753(3)
C37_3 C 0.44167(17) 0.59253(12) 0.0967(4)
H22_3 H 0.4415 0.6035 0.1898
C38_3 C 0.33702(14) 0.42458(10) 0.6646(3)
C39_3 C 0.30447(16) 0.38426(11) 0.5950(3)
H23_3 H 0.3141 0.3718 0.5196
C40_3 C 0.27371(15) 0.41650(10) 0.8087(3)
H24_3 H 0.2630 0.4281 0.8837
N6_3 N 0.24246(12) 0.37792(8) 0.7417(3)
N7_3 N 0.53121(14) 0.57579(12) 0.5916(3)
N8_3 N 0.46879(14) 0.42421(12) 0.4084(3)
C41_3 C 0.25781(15) 0.36228(10) 0.6363(3)
H25_3 H 0.2358 0.3348 0.5870
C42_3 C 0.32120(16) 0.44082(11) 0.7748(3)
H26_3 H 0.3424 0.4681 0.8265
N2_4 N 0.20063(8) 0.33391(8) 0.0191(2)
C3_4 C 0.16852(11) 0.45015(10) 0.0471(3)
H2_4 H 0.1760 0.4711 0.1247
C4_4 C 0.18187(9) 0.41451(9) 0.0315(3)
C5_4 C 0.20712(9) 0.40440(9) 0.1332(3)
C6_4 C 0.21660(9) 0.36745(10) 0.1241(3)
C7_4 C 0.24733(11) 0.36044(11) 0.2187(3)
H3_4 H 0.2626 0.3784 0.3008
C8_4 C 0.25031(11) 0.32351(11) 0.1684(3)
H4_4 H 0.2681 0.3107 0.2081
C9_4 C 0.22118(10) 0.30711(10) 0.0424(3)
C11_4 C 0.22624(10) 0.43707(10) 0.2580(3)
C12_2 C 0.21119(11) 0.42112(12) 0.3948(3)
H5_2 H 0.1892 0.3889 0.4109
C13_2 C 0.22835(14) 0.45224(14) 0.5090(4)
H6_2 H 0.2180 0.4413 0.6027
C14_2 C 0.26047(16) 0.49892(14) 0.4856(4)
H7_2 H 0.2719 0.5201 0.5633
C15_2 C 0.27605(16) 0.51497(14) 0.3507(5)
H8_2 H 0.2984 0.5471 0.3355
C16_4 C 0.25920(12) 0.48419(12) 0.2366(4)
H9_4 H 0.2702 0.4953 0.1435
C40_4 C 0.25017(10) 0.19054(11) 0.1420(3)
H24_4 H 0.2386 0.1682 0.2170
N6_4 N 0.28875(8) 0.19787(9) 0.0750(3)
C42_4 C 0.22585(11) 0.21371(11) 0.1081(3)
H26_4 H 0.1986 0.2076 0.1598
N1_4 N 0.16538(7) 0.39181(8) 0.9053(2)
C1_4 C 0.14131(9) 0.41084(9) 0.8415(3)
C2_4 C 0.14358(11) 0.44787(10) 0.9306(3)
H1_4 H 0.1301 0.4669 0.9108
C10_4 C 0.11667(9) 0.39594(10) 0.7130(3)
C17_4 C 0.09125(10) 0.42089(10) 0.6687(3)
C18_4 C 0.05093(11) 0.41312(11) 0.7383(3)
H10_4 H 0.0385 0.3910 0.8137
C19_4 C 0.08317(10) 0.47612(11) 0.5246(3)
H11_4 H 0.0948 0.4984 0.4496
C20_4 C 0.02895(10) 0.43780(11) 0.6970(3)
H12_4 H 0.0015 0.4323 0.7463
C21_4 C 0.10749(11) 0.45295(11) 0.5585(3)
H13_4 H 0.1348 0.4590 0.5068
N4_4 N 0.16796(7) 0.27485(8) 0.7613(2)
N5_4 N 0.13271(8) 0.33275(8) 0.6475(2)
C22_4 C 0.19203(9) 0.25582(9) 0.8251(3)
C23_4 C 0.18976(11) 0.21879(10) 0.7360(3)
H14_4 H 0.2033 0.1997 0.7558
C24_4 C 0.16482(11) 0.21651(10) 0.6195(3)
H15_4 H 0.1574 0.1955 0.5419
C25_4 C 0.15147(9) 0.25215(9) 0.6351(3)
C26_4 C 0.12622(9) 0.26226(9) 0.5334(3)
C27_4 C 0.11674(9) 0.29921(10) 0.5425(3)
C28_4 C 0.08601(11) 0.30622(11) 0.4479(3)
H16_4 H 0.0708 0.2882 0.3658
C29_4 C 0.08303(11) 0.34315(11) 0.4982(3)
H17_4 H 0.0653 0.3559 0.4585
C30_4 C 0.11216(10) 0.35955(10) 0.6242(3)
C31_4 C 0.21667(9) 0.27072(10) 0.9536(3)
C32_4 C 0.10710(10) 0.22959(10) 0.4086(3)
C33 C 0.12215(11) 0.24554(12) 0.2718(3)
H18 H 0.1442 0.2777 0.2557
C34 C 0.10499(14) 0.21442(14) 0.1576(4)
H19 H 0.1154 0.2253 0.0639
C35 C 0.07287(16) 0.16774(14) 0.1810(4)
H20 H 0.0615 0.1465 0.1033
C36 C 0.05729(16) 0.15169(14) 0.3159(5)
H21 H 0.0350 0.1195 0.3311
C37_4 C 0.07414(12) 0.18247(12) 0.4300(4)
H22_4 H 0.0632 0.1713 0.5231
C38_4 C 0.24209(10) 0.24577(10) 0.9979(3)
C39_4 C 0.28241(11) 0.25354(11) 0.9283(3)
H23_4 H 0.2949 0.2756 0.8529
N7_4 N 0.09087(12) 0.28875(8) 0.9250(3)
C41_4 C 0.30439(10) 0.22886(11) 0.9696(3)
H25_4 H 0.3319 0.2343 0.9203
C40_5 C 0.80946(11) 0.05962(15) 0.1420(3)
H24_5 H 0.8318 0.0703 0.2170
N6_5 N 0.80213(9) 0.09087(12) 0.0750(3)
C42_5 C 0.78629(11) 0.01213(16) 0.1081(3)
N1_5 N 0.60819(8) 0.77356(11) 0.9053(2)
C1_5 C 0.58916(9) 0.73046(13) 0.8415(3)
C2_5 C 0.55213(10) 0.69570(15) 0.9306(3)
H1_5 H 0.5331 0.6631 0.9108
C10_5 C 0.60406(10) 0.72072(13) 0.7130(3)
C17_5 C 0.57911(10) 0.67035(14) 0.6687(3)
C18_5 C 0.58688(11) 0.63780(16) 0.7383(3)
H10_5 H 0.6090 0.6474 0.8137
C19_5 C 0.52388(11) 0.60704(15) 0.5246(3)
H11_5 H 0.5016 0.5963 0.4496
C20_5 C 0.56220(11) 0.59114(15) 0.6970(3)
H12_5 H 0.5677 0.5691 0.7463
C21_5 C 0.54705(11) 0.65453(16) 0.5585(3)
H13_5 H 0.5410 0.6757 0.5068
N4_5 N 0.72515(8) 0.89310(11) 0.7613(2)
N5_5 N 0.66725(8) 0.79995(11) 0.6475(2)
C22_5 C 0.74418(9) 0.93620(13) 0.8251(3)
C23_5 C 0.78121(10) 0.97096(15) 0.7360(3)
C24_5 C 0.78349(10) 0.94830(15) 0.6195(3)
H15_5 H 0.8045 0.9618 0.5419
C25_5 C 0.74785(9) 0.89931(13) 0.6351(3)
C26_5 C 0.73774(9) 0.86395(13) 0.5334(3)
C27_5 C 0.70079(10) 0.81752(13) 0.5425(3)
C28_5 C 0.69378(11) 0.77978(16) 0.4479(3)
H16_5 H 0.7118 0.7825 0.3658
C29_5 C 0.65685(11) 0.73987(16) 0.4982(3)
H17_5 H 0.6441 0.7093 0.4585
C30_5 C 0.64045(10) 0.75260(14) 0.6242(3)
C31_5 C 0.72928(10) 0.94594(13) 0.9536(3)
C32_5 C 0.77041(10) 0.87750(14) 0.4086(3)
C33_2 C 0.75446(12) 0.87660(16) 0.2718(3)
H18_2 H 0.7223 0.8664 0.2557
C34_2 C 0.78558(14) 0.89056(20) 0.1576(4)
H19_2 H 0.7747 0.8900 0.0639
C35_2 C 0.83226(14) 0.90512(21) 0.1810(4)
H20_2 H 0.8535 0.9149 0.1033
C36_2 C 0.84831(14) 0.90559(21) 0.3159(5)
H21_2 H 0.8805 0.9154 0.3311
C37_5 C 0.81753(12) 0.89166(17) 0.4300(4)
H22_5 H 0.8287 0.8918 0.5231
C38_5 C 0.75423(10) 0.99631(14) 0.9979(3)
N7_5 N 0.71125(8) 0.80213(14) 0.9250(3)
N1_6 N 0.22644(11) 0.83462(7) 0.9053(2)
C1_6 C 0.26954(13) 0.85869(9) 0.8415(3)
C2_6 C 0.30430(15) 0.85642(11) 0.9306(3)
H1_6 H 0.3369 0.8699 0.9108
C10_6 C 0.27928(13) 0.88333(9) 0.7130(3)
C17_6 C 0.32965(14) 0.90875(10) 0.6687(3)
C18_6 C 0.36220(16) 0.94907(11) 0.7383(3)
H10_6 H 0.3526 0.9615 0.8137
C19_6 C 0.39296(15) 0.91683(10) 0.5246(3)
H11_6 H 0.4037 0.9052 0.4496
C20_6 C 0.40886(15) 0.97105(10) 0.6970(3)
H12_6 H 0.4309 0.9985 0.7463
C21_6 C 0.34547(16) 0.89251(11) 0.5585(3)
H13_6 H 0.3243 0.8652 0.5068
N4_6 N 0.10690(11) 0.83204(7) 0.7613(2)
N5_6 N 0.20005(11) 0.86729(8) 0.6475(2)
C22_6 C 0.06380(13) 0.80797(9) 0.8251(3)
C23_6 C 0.02904(15) 0.81024(11) 0.7360(3)
C24_6 C 0.05170(15) 0.83518(11) 0.6195(3)
H15_6 H 0.0382 0.8426 0.5419
C25_6 C 0.10069(13) 0.84853(9) 0.6351(3)
C26_6 C 0.13605(13) 0.87378(9) 0.5334(3)
C27_6 C 0.18248(13) 0.88326(9) 0.5425(3)
C28_6 C 0.22022(16) 0.91399(11) 0.4479(3)
H16_6 H 0.2175 0.9292 0.3658
C29_6 C 0.26013(16) 0.91697(11) 0.4982(3)
H17_6 H 0.2907 0.9347 0.4585
C30_6 C 0.24740(14) 0.88784(10) 0.6242(3)
C31_6 C 0.05406(13) 0.78333(9) 0.9536(3)
C32_6 C 0.12250(14) 0.89290(10) 0.4086(3)
C33_3 C 0.12340(16) 0.87785(11) 0.2718(3)
H18_3 H 0.1336 0.8558 0.2557
C34_3 C 0.10944(20) 0.89501(14) 0.1576(4)
H19_3 H 0.1100 0.8846 0.0639
C35_3 C 0.09488(21) 0.92713(16) 0.1810(4)
H20_3 H 0.0851 0.9385 0.1033
C36_3 C 0.09441(21) 0.94271(16) 0.3159(5)
H21_3 H 0.0846 0.9650 0.3311
C37_6 C 0.10834(17) 0.92586(12) 0.4300(4)
H22_6 H 0.1082 0.9368 0.5231
C38_6 C 0.00369(14) 0.75791(10) 0.9979(3)
N7_6 N 0.19787(14) 0.90913(12) 0.9250(3)
C40_6 C 0.94038(15) 0.74983(10) 0.1420(3)
H24_6 H 0.9297 0.7614 0.2170
N6_6 N 0.90913(12) 0.71125(8) 0.0750(3)
C42_6 C 0.98787(16) 0.77415(11) 0.1081(3)
N1_7 N 0.83204(7) 0.72515(8) 0.2387(2)
N2_5 N 0.86729(8) 0.66725(8) 0.3525(2)
C1_7 C 0.80797(9) 0.74418(9) 0.1749(3)
C2_7 C 0.81024(11) 0.78121(10) 0.2640(3)
H1_7 H 0.7967 0.8003 0.2442
C3_5 C 0.83518(11) 0.78349(10) 0.3805(3)
H2_5 H 0.8426 0.8045 0.4581
C4_5 C 0.84853(9) 0.74785(9) 0.3649(3)
C5_5 C 0.87378(9) 0.73774(9) 0.4666(3)
C6_5 C 0.88326(9) 0.70079(10) 0.4575(3)
C7_5 C 0.91399(11) 0.69378(11) 0.5521(3)
H3_5 H 0.9292 0.7118 0.6342
C8_5 C 0.91697(11) 0.65685(11) 0.5018(3)
H4_5 H 0.9347 0.6441 0.5415
C9_5 C 0.88784(10) 0.64045(10) 0.3758(3)
C10_7 C 0.78333(9) 0.72928(10) 0.0464(3)
C11_5 C 0.89290(10) 0.77041(10) 0.5914(3)
C12_3 C 0.87785(11) 0.75446(12) 0.7282(3)
H5_3 H 0.8558 0.7223 0.7443
C13_3 C 0.89501(14) 0.78558(14) 0.8424(4)
H6_3 H 0.8846 0.7747 0.9361
C14_3 C 0.92713(16) 0.83226(14) 0.8190(4)
H7_3 H 0.9385 0.8535 0.8967
C15_3 C 0.94271(16) 0.84831(14) 0.6841(5)
H8_3 H 0.9650 0.8805 0.6689
C16_5 C 0.92586(12) 0.81753(12) 0.5700(4)
H9_5 H 0.9368 0.8287 0.4769
C17_7 C 0.75791(10) 0.75423(10) 0.0021(3)
C18_7 C 0.71759(11) 0.74646(11) 0.0717(3)
H10_7 H 0.7051 0.7244 0.1471
C20_7 C 0.69561(10) 0.77114(11) 0.0304(3)
H12_7 H 0.6681 0.7657 0.0797
N4_7 N 0.83462(7) 0.60819(8) 0.0947(2)
C22_7 C 0.85869(9) 0.58916(9) 0.1585(3)
C23_7 C 0.85642(11) 0.55213(10) 0.0694(3)
H14_5 H 0.8699 0.5331 0.0892
C31_7 C 0.88333(9) 0.60406(10) 0.2870(3)
C38_7 C 0.90875(10) 0.57911(10) 0.3313(3)
C39_5 C 0.94907(11) 0.58688(11) 0.2617(3)
H23_5 H 0.9615 0.6090 0.1863
C40_7 C 0.91683(10) 0.52388(11) 0.4754(3)
H24_7 H 0.9052 0.5016 0.5504
C41_5 C 0.97105(10) 0.56220(11) 0.3030(3)
H25_5 H 0.9985 0.5677 0.2537
C42_7 C 0.89251(11) 0.54705(11) 0.4415(3)
H26_5 H 0.8652 0.5410 0.4932
C19_7 C 0.74983(10) 0.80946(11) 0.8580(3)
H11_7 H 0.7614 0.8318 0.7830
C21_7 C 0.77415(11) 0.78629(11) 0.8919(3)
H13_7 H 0.8014 0.7924 0.8402
N5_7 N 0.79937(8) 0.66609(8) 0.9809(2)
C24_7 C 0.83148(11) 0.54985(10) 0.9529(3)
H15_7 H 0.8240 0.5289 0.8753
C25_7 C 0.81813(9) 0.58549(9) 0.9685(3)
C26_7 C 0.79288(9) 0.59560(9) 0.8668(3)
C27_7 C 0.78340(9) 0.63255(10) 0.8759(3)
C28_7 C 0.75267(11) 0.63956(11) 0.7813(3)
H16_7 H 0.7374 0.6216 0.6992
C29_7 C 0.74969(11) 0.67649(11) 0.8316(3)
H17_7 H 0.7319 0.6893 0.7919
C30_7 C 0.77882(10) 0.69289(10) 0.9576(3)
C32_7 C 0.77376(10) 0.56293(10) 0.7420(3)
C33_4 C 0.78881(11) 0.57888(12) 0.6052(3)
H18_4 H 0.8108 0.6111 0.5891
C34_4 C 0.77165(14) 0.54776(14) 0.4910(4)
H19_4 H 0.7820 0.5587 0.3973
C35_4 C 0.73953(16) 0.50108(14) 0.5144(4)
H20_4 H 0.7281 0.4799 0.4367
C36_4 C 0.72395(16) 0.48503(14) 0.6493(5)
H21_4 H 0.7016 0.4529 0.6645
C37_7 C 0.74080(12) 0.51581(12) 0.7634(4)
H22_7 H 0.7298 0.5047 0.8565
N1_8 N 0.27485(8) 0.10690(11) 0.2387(2)
N2_6 N 0.33275(8) 0.20005(11) 0.3525(2)
C1_8 C 0.25582(9) 0.06380(13) 0.1749(3)
C2_8 C 0.21879(10) 0.02904(15) 0.2640(3)
C3_6 C 0.21651(10) 0.05170(15) 0.3805(3)
H2_6 H 0.1955 0.0382 0.4581
C4_6 C 0.25215(9) 0.10069(13) 0.3649(3)
C5_6 C 0.26226(9) 0.13605(13) 0.4666(3)
C6_6 C 0.29921(10) 0.18248(13) 0.4575(3)
C7_6 C 0.30622(11) 0.22022(16) 0.5521(3)
H3_6 H 0.2882 0.2175 0.6342
C8_6 C 0.34315(11) 0.26013(16) 0.5018(3)
H4_6 H 0.3559 0.2907 0.5415
C9_6 C 0.35955(10) 0.24740(14) 0.3758(3)
C10_8 C 0.27072(10) 0.05406(13) 0.0464(3)
C11_6 C 0.22959(10) 0.12250(14) 0.5914(3)
C12_4 C 0.24554(12) 0.12340(16) 0.7282(3)
H5_4 H 0.2777 0.1336 0.7443
C13_4 C 0.21442(14) 0.10944(20) 0.8424(4)
H6_4 H 0.2253 0.1100 0.9361
C14_4 C 0.16774(14) 0.09488(21) 0.8190(4)
H7_4 H 0.1465 0.0851 0.8967
C15_4 C 0.15169(14) 0.09441(21) 0.6841(5)
H8_4 H 0.1195 0.0846 0.6689
C16_6 C 0.18247(12) 0.10834(17) 0.5700(4)
H9_6 H 0.1713 0.1082 0.4769
C17_8 C 0.24577(10) 0.00369(14) 0.0021(3)
N4_8 N 0.39181(8) 0.22644(11) 0.0947(2)
C22_8 C 0.41084(9) 0.26954(13) 0.1585(3)
C23_8 C 0.44787(10) 0.30430(15) 0.0694(3)
H14_6 H 0.4669 0.3369 0.0892
C31_8 C 0.39594(10) 0.27928(13) 0.2870(3)
C38_8 C 0.42089(10) 0.32965(14) 0.3313(3)
C39_6 C 0.41312(11) 0.36220(16) 0.2617(3)
H23_6 H 0.3910 0.3526 0.1863
C40_8 C 0.47612(11) 0.39296(15) 0.4754(3)
H24_8 H 0.4984 0.4037 0.5504
C41_6 C 0.43780(11) 0.40886(15) 0.3030(3)
H25_6 H 0.4323 0.4309 0.2537
C42_8 C 0.45295(11) 0.34547(16) 0.4415(3)
H26_6 H 0.4590 0.3243 0.4932
C19_8 C 0.19054(11) 0.94038(15) 0.8580(3)
H11_8 H 0.1682 0.9297 0.7830
C21_8 C 0.21371(11) 0.98787(16) 0.8919(3)
C19_9 C 0.05962(15) 0.25017(10) 0.8580(3)
H11_9 H 0.0703 0.2386 0.7830
C21_9 C 0.01213(16) 0.22585(11) 0.8919(3)
N1_9 N 0.89310(11) 0.16796(7) 0.2387(2)
N2_7 N 0.79995(11) 0.13271(8) 0.3525(2)
C1_9 C 0.93620(13) 0.19203(9) 0.1749(3)
C2_9 C 0.97096(15) 0.18976(11) 0.2640(3)
C3_7 C 0.94830(15) 0.16482(11) 0.3805(3)
H2_7 H 0.9618 0.1574 0.4581
C4_7 C 0.89931(13) 0.15147(9) 0.3649(3)
C5_7 C 0.86395(13) 0.12622(9) 0.4666(3)
C6_7 C 0.81752(13) 0.11674(9) 0.4575(3)
C7_7 C 0.77978(16) 0.08601(11) 0.5521(3)
H3_7 H 0.7825 0.0708 0.6342
C8_7 C 0.73987(16) 0.08303(11) 0.5018(3)
H4_7 H 0.7093 0.0653 0.5415
C9_7 C 0.75260(14) 0.11216(10) 0.3758(3)
C10_9 C 0.94594(13) 0.21667(9) 0.0464(3)
C11_7 C 0.87750(14) 0.10710(10) 0.5914(3)
C12_5 C 0.87660(16) 0.12215(11) 0.7282(3)
H5_5 H 0.8664 0.1442 0.7443
C13_5 C 0.89056(20) 0.10499(14) 0.8424(4)
H6_5 H 0.8900 0.1154 0.9361
C14_5 C 0.90512(21) 0.07287(16) 0.8190(4)
H7_5 H 0.9149 0.0615 0.8967
C15_5 C 0.90559(21) 0.05729(16) 0.6841(5)
H8_5 H 0.9154 0.0350 0.6689
C16_7 C 0.89166(17) 0.07414(12) 0.5700(4)
H9_7 H 0.8918 0.0632 0.4769
C17_9 C 0.99631(14) 0.24209(10) 0.0021(3)
N4_9 N 0.77356(11) 0.16538(7) 0.0947(2)
C22_9 C 0.73046(13) 0.14131(9) 0.1585(3)
C23_9 C 0.69570(15) 0.14358(11) 0.0694(3)
H14_7 H 0.6631 0.1301 0.0892
C31_9 C 0.72072(13) 0.11667(9) 0.2870(3)
C38_9 C 0.67035(14) 0.09125(10) 0.3313(3)
C39_7 C 0.63780(16) 0.05093(11) 0.2617(3)
H23_7 H 0.6474 0.0385 0.1863
C40_9 C 0.60704(15) 0.08317(10) 0.4754(3)
H24_9 H 0.5963 0.0948 0.5504
C41_7 C 0.59114(15) 0.02895(10) 0.3030(3)
H25_7 H 0.5691 0.0015 0.2537
C42_9 C 0.65453(16) 0.10749(11) 0.4415(3)
H26_7 H 0.6757 0.1348 0.4932
C33_5 C 0.45548(11) 0.91221(12) 0.9385(3)
H18_5 H 0.4775 0.9444 0.9224
C34_5 C 0.43832(14) 0.88109(14) 0.8243(4)
H19_5 H 0.4487 0.8920 0.7306
C35_5 C 0.40620(16) 0.83441(14) 0.8477(4)
H20_5 H 0.3948 0.8132 0.7700
C36_5 C 0.39062(16) 0.81836(14) 0.9826(5)
H21_5 H 0.3683 0.7862 0.9978
C33_6 C 0.08779(12) 0.54327(16) 0.9385(3)
H18_6 H 0.0556 0.5331 0.9224
C34_6 C 0.11891(14) 0.55723(20) 0.8243(4)
H19_6 H 0.1080 0.5567 0.7306
C35_6 C 0.16559(14) 0.57179(21) 0.8477(4)
H20_6 H 0.1868 0.5816 0.7700
C36_6 C 0.18164(14) 0.57226(21) 0.9826(5)
H21_6 H 0.2138 0.5821 0.9978
C12_6 C 0.91221(12) 0.45673(16) 0.0615(3)
H5_6 H 0.9444 0.4669 0.0776
C13_6 C 0.88109(14) 0.44277(20) 0.1757(4)
H6_6 H 0.8920 0.4433 0.2694
C14_6 C 0.83441(14) 0.42821(21) 0.1523(4)
H7_6 H 0.8132 0.4184 0.2300
C15_6 C 0.81836(14) 0.42774(21) 0.0174(5)
H8_6 H 0.7862 0.4179 0.0022
C12_7 C 0.54327(16) 0.45548(11) 0.0615(3)
H5_7 H 0.5331 0.4775 0.0776
C13_7 C 0.55723(20) 0.43832(14) 0.1757(4)
H6_7 H 0.5567 0.4487 0.2694
C14_7 C 0.57179(21) 0.40620(16) 0.1523(4)
H7_7 H 0.5816 0.3948 0.2300
C15_7 C 0.57226(21) 0.39062(16) 0.0174(5)
H8_7 H 0.5821 0.3683 0.0022
C33_7 C 0.45673(16) 0.54452(11) 0.9385(3)
H18_7 H 0.4669 0.5225 0.9224
C34_7 C 0.44277(20) 0.56168(14) 0.8243(4)
H19_7 H 0.4433 0.5513 0.7306
C35_7 C 0.42821(21) 0.59380(16) 0.8477(4)
H20_7 H 0.4184 0.6052 0.7700
C36_7 C 0.42774(21) 0.60938(16) 0.9826(5)
H21_7 H 0.4179 0.6317 0.9978
H14_8 H 0.8003 0.0035 0.7558
C39_8 C 0.74646(11) 0.02886(16) 0.9283(3)
H23_8 H 0.7244 0.0192 0.8529
C41_8 C 0.77114(11) 0.07552(15) 0.9696(3)
H25_8 H 0.7657 0.0975 0.9203
N2_8 N 0.66609(8) 0.86671(11) 0.0191(2)
C3_8 C 0.54985(10) 0.71836(15) 0.0471(3)
H2_8 H 0.5289 0.7048 0.1247
C4_8 C 0.58549(9) 0.76735(13) 0.0315(3)
C5_8 C 0.59560(9) 0.80271(13) 0.1332(3)
C6_8 C 0.63255(10) 0.84914(13) 0.1241(3)
C7_8 C 0.63956(11) 0.88688(16) 0.2187(3)
H3_8 H 0.6216 0.8841 0.3008
C8_8 C 0.67649(11) 0.92679(16) 0.1684(3)
H4_8 H 0.6893 0.9573 0.2081
C9_8 C 0.69289(10) 0.91406(14) 0.0424(3)
C11_8 C 0.56293(10) 0.78916(14) 0.2580(3)
C12_8 C 0.57888(12) 0.79006(16) 0.3948(3)
H5_8 H 0.6111 0.8002 0.4109
C13_8 C 0.54776(14) 0.77610(20) 0.5090(4)
H6_8 H 0.5587 0.7766 0.6027
C14_8 C 0.50108(14) 0.76154(21) 0.4856(4)
H7_8 H 0.4799 0.7517 0.5633
C15_8 C 0.48503(14) 0.76107(21) 0.3507(5)
H8_8 H 0.4529 0.7512 0.3355
C16_8 C 0.51581(12) 0.77500(17) 0.2366(4)
H9_8 H 0.5047 0.7748 0.1435
H26_8 H 0.7924 0.9909 0.1598
N2_9 N 0.13329(11) 0.79937(8) 0.0191(2)
C3_9 C 0.28164(15) 0.83148(11) 0.0471(3)
H2_9 H 0.2952 0.8240 0.1247
C4_9 C 0.23265(13) 0.81813(9) 0.0315(3)
C5_9 C 0.19729(13) 0.79288(9) 0.1332(3)
C6_9 C 0.15086(13) 0.78340(9) 0.1241(3)
C7_9 C 0.11312(16) 0.75267(11) 0.2187(3)
H3_9 H 0.1159 0.7374 0.3008
C8_9 C 0.07321(16) 0.74969(11) 0.1684(3)
H4_9 H 0.0427 0.7319 0.2081
C9_9 C 0.08594(14) 0.77882(10) 0.0424(3)
C11_9 C 0.21084(14) 0.77376(10) 0.2580(3)
C12_9 C 0.20994(16) 0.78881(11) 0.3948(3)
H5_9 H 0.1998 0.8108 0.4109
C13_9 C 0.22390(20) 0.77165(14) 0.5090(4)
H6_9 H 0.2234 0.7820 0.6027
C14_9 C 0.23846(21) 0.73953(16) 0.4856(4)
H7_9 H 0.2483 0.7281 0.5633
C15_9 C 0.23893(21) 0.72395(16) 0.3507(5)
H8_9 H 0.2488 0.7016 0.3355
C16_9 C 0.22500(17) 0.74080(12) 0.2366(4)
H9_9 H 0.2252 0.7298 0.1435
H26_9 H 0.0091 0.8014 0.1598
H14_9 H 0.9965 0.7967 0.7558
C39_9 C 0.97114(16) 0.71759(11) 0.9283(3)
H23_9 H 0.9808 0.7051 0.8529
C41_9 C 0.92448(15) 0.69561(10) 0.9696(3)
H25_9 H 0.9025 0.6681 0.9203
H13_8 H 0.2076 0.0091 0.8402
N5_8 N 0.33391(8) 0.13329(11) 0.9809(2)
C24_8 C 0.45015(10) 0.28164(15) 0.9529(3)
H15_8 H 0.4711 0.2952 0.8753
C25_8 C 0.41451(9) 0.23265(13) 0.9685(3)
C26_8 C 0.40440(9) 0.19729(13) 0.8668(3)
C27_8 C 0.36745(10) 0.15086(13) 0.8759(3)
C28_8 C 0.36044(11) 0.11312(16) 0.7813(3)
H16_8 H 0.3784 0.1159 0.6992
C29_8 C 0.32351(11) 0.07321(16) 0.8316(3)
H17_8 H 0.3107 0.0427 0.7919
C30_8 C 0.30711(10) 0.08594(14) 0.9576(3)
C32_8 C 0.43707(10) 0.21084(14) 0.7420(3)
C33_8 C 0.42112(12) 0.20994(16) 0.6052(3)
H18_8 H 0.3889 0.1998 0.5891
C34_8 C 0.45224(14) 0.22390(20) 0.4910(4)
H19_8 H 0.4413 0.2234 0.3973
C35_8 C 0.49892(14) 0.23846(21) 0.5144(4)
H20_8 H 0.5201 0.2483 0.4367
C36_8 C 0.51497(14) 0.23893(21) 0.6493(5)
H21_8 H 0.5471 0.2488 0.6645
C37_8 C 0.48419(12) 0.22500(17) 0.7634(4)
H22_8 H 0.4953 0.2252 0.8565
H1_8 H 0.1997 0.9965 0.2442
C18_8 C 0.25354(11) 0.97114(16) 0.0717(3)
H10_8 H 0.2756 0.9808 0.1471
C20_8 C 0.22886(11) 0.92448(15) 0.0304(3)
H12_8 H 0.2343 0.9025 0.0797
H1_9 H 0.0035 0.2033 0.2442
C18_9 C 0.02886(16) 0.28241(11) 0.0717(3)
H10_9 H 0.0192 0.2949 0.1471
C20_9 C 0.07552(15) 0.30439(10) 0.0304(3)
H12_9 H 0.0975 0.3319 0.0797
H13_9 H 0.9909 0.1986 0.8402
N5_9 N 0.86671(11) 0.20063(8) 0.9809(2)
C24_9 C 0.71836(15) 0.16852(11) 0.9529(3)
H15_9 H 0.7048 0.1760 0.8753
C25_9 C 0.76735(13) 0.18187(9) 0.9685(3)
C26_9 C 0.80271(13) 0.20712(9) 0.8668(3)
C27_9 C 0.84914(13) 0.21660(9) 0.8759(3)
C28_9 C 0.88688(16) 0.24733(11) 0.7813(3)
H16_9 H 0.8841 0.2626 0.6992
C29_9 C 0.92679(16) 0.25031(11) 0.8316(3)
H17_9 H 0.9573 0.2681 0.7919
C30_9 C 0.91406(14) 0.22118(10) 0.9576(3)
C32_9 C 0.78916(14) 0.22624(10) 0.7420(3)
C33_9 C 0.79006(16) 0.21119(11) 0.6052(3)
H18_9 H 0.8002 0.1892 0.5891
C34_9 C 0.77610(20) 0.22835(14) 0.4910(4)
H19_9 H 0.7766 0.2180 0.3973
C35_9 C 0.76154(21) 0.26047(16) 0.5144(4)
H20_9 H 0.7517 0.2719 0.4367
C36_9 C 0.76107(21) 0.27605(16) 0.6493(5)
H21_9 H 0.7512 0.2984 0.6645
C37_9 C 0.77500(17) 0.25920(12) 0.7634(4)
H22_9 H 0.7748 0.2702 0.8565
loop_
_geom_bond_atom_site_label_1
_geom_bond_atom_site_label_2
_geom_bond_site_symmetry_1
_geom_bond_site_symmetry_2
H5 C12 1_555 1_555
C13 C12 1_555 1_555
H6 C13 1_555 1_555
C14 C13 1_555 1_555
H7 C14 1_555 1_555
C15 C14 1_555 1_555
H8 C15 1_555 1_555
Zn1 N1 1_555 1_555
N1 C1 1_555 1_555
N2 Zn1 1_555 1_555
C1 C2 1_555 1_555
C2 H1 1_555 1_555
C3 C2 1_555 1_555
H2 C3 1_555 1_555
C4 N1 1_555 1_555
C5 C4 1_555 1_555
C6 N2 1_555 1_555
C7 C6 1_555 1_555
H3 C7 1_555 1_555
C10 C1 1_555 1_555
C11 C5 1_555 1_555
C16 C11 1_555 1_555
H9 C16 1_555 1_555
C17 C10 1_555 1_555
C18 C17 1_555 1_555
H10 C18 1_555 1_555
C19 H11 1_555 1_555
N3 C19 1_555 1_555
C20 C18 1_555 1_555
H12 C20 1_555 1_555
C21 C17 1_555 1_555
H13 C21 1_555 1_555
Zn2 N3 1_555 1_555
H17 C29 1_555 1_555
C30 C10 1_555 1_555
N8 Zn1 1_555 1_555
C3 C4 1_555 1_555
C5 C6 1_555 1_555
C19 C21 1_555 1_555
N3 C20 1_555 1_555
C29 C30 1_555 1_555
H4 C8 1_555 1_555
Zn3 N6 1_555 1_555
N4 Zn1_2 1_555 1_555
N5 Zn1_2 1_555 1_555
C22 N4 1_555 1_555
C23 C22 1_555 1_555
H14 C23 1_555 1_555
C24 C23 1_555 1_555
H15 C24 1_555 1_555
C25 N4 1_555 1_555
C26 C25 1_555 1_555
C27 N5 1_555 1_555
C28 C27 1_555 1_555
H16 C28 1_555 1_555
C31 C9 1_555 1_555
C32 C26 1_555 1_555
C37 C32 1_555 1_555
H22 C37 1_555 1_555
C38 C31 1_555 1_555
C39 C38 1_555 1_555
H23 C39 1_555 1_555
C40 H24 1_555 1_555
N6 C40 1_555 1_555
N7 Zn1_2 1_555 1_555
C41 C39 1_555 1_555
H25 C41 1_555 1_555
C42 C38 1_555 1_555
H26 C42 1_555 1_555
C8 C9 1_555 1_555
C22 C31 1_555 1_555
C24 C25 1_555 1_555
C26 C27 1_555 1_555
C40 C42 1_555 1_555
N6 C41 1_555 1_555
H4_2 C8_2 1_555 1_555
Zn3_2 N6_2 1_555 1_555
N4_2 Zn1_3 1_555 1_555
N5_2 Zn1_3 1_555 1_555
C22_2 N4_2 1_555 1_555
C23_2 C22_2 1_555 1_555
H14_2 C23_2 1_555 1_555
C24_2 C23_2 1_555 1_555
H15_2 C24_2 1_555 1_555
C25_2 N4_2 1_555 1_555
C26_2 C25_2 1_555 1_555
C27_2 N5_2 1_555 1_555
C28_2 C27_2 1_555 1_555
H16_2 C28_2 1_555 1_555
C31_2 C9_2 1_555 1_555
C32_2 C26_2 1_555 1_555
C37_2 C32_2 1_555 1_555
H22_2 C37_2 1_555 1_555
C38_2 C31_2 1_555 1_555
C39_2 C38_2 1_555 1_555
H23_2 C39_2 1_555 1_555
C40_2 H24_2 1_555 1_555
N6_2 C40_2 1_555 1_555
N7_2 Zn1_3 1_555 1_555
C41_2 C39_2 1_555 1_555
H25_2 C41_2 1_555 1_555
C42_2 C38_2 1_555 1_555
H26_2 C42_2 1_555 1_555
C8_2 C9_2 1_555 1_555
C22_2 C31_2 1_555 1_555
C24_2 C25_2 1_555 1_555
C26_2 C27_2 1_555 1_555
C40_2 C42_2 1_555 1_555
N6_2 C41_2 1_555 1_555
Zn1_4 N1_2 1_555 1_555
N1_2 C1_2 1_555 1_555
N2_2 Zn1_4 1_555 1_555
C1_2 C2_2 1_555 1_555
C2_2 H1_2 1_555 1_555
C3_2 C2_2 1_555 1_555
H2_2 C3_2 1_555 1_555
C4_2 N1_2 1_555 1_555
C5_2 C4_2 1_555 1_555
C6_2 N2_2 1_555 1_555
C7_2 C6_2 1_555 1_555
H3_2 C7_2 1_555 1_555
C10_2 C1_2 1_555 1_555
C11_2 C5_2 1_555 1_555
C16_2 C11_2 1_555 1_555
H9_2 C16_2 1_555 1_555
C17_2 C10_2 1_555 1_555
C18_2 C17_2 1_555 1_555
H10_2 C18_2 1_555 1_555
C19_2 H11_2 1_555 1_555
N3_2 C19_2 1_555 1_555
C20_2 C18_2 1_555 1_555
H12_2 C20_2 1_555 1_555
C21_2 C17_2 1_555 1_555
H13_2 C21_2 1_555 1_555
Zn2_2 N3_2 1_555 1_555
H17_2 C29_2 1_555 1_555
C30_2 C10_2 1_555 1_555
N8_2 Zn1_4 1_555 1_555
C3_2 C4_2 1_555 1_555
C5_2 C6_2 1_555 1_555
C19_2 C21_2 1_555 1_555
N3_2 C20_2 1_555 1_555
C29_2 C30_2 1_555 1_555
Zn1_5 N1_3 1_555 1_555
N1_3 C1_3 1_555 1_555
N2_3 Zn1_5 1_555 1_555
C1_3 C2_3 1_555 1_555
C2_3 H1_3 1_555 1_555
C3_3 C2_3 1_555 1_555
H2_3 C3_3 1_555 1_555
C4_3 N1_3 1_555 1_555
C5_3 C4_3 1_555 1_555
C6_3 N2_3 1_555 1_555
C7_3 C6_3 1_555 1_555
H3_3 C7_3 1_555 1_555
C8_3 C7_3 1_555 1_555
H4_3 C8_3 1_555 1_555
C9_3 N2_3 1_555 1_555
C10_3 C1_3 1_555 1_555
C11_3 C5_3 1_555 1_555
C16_3 C11_3 1_555 1_555
H9_3 C16_3 1_555 1_555
C17_3 C10_3 1_555 1_555
C18_3 C17_3 1_555 1_555
H10_3 C18_3 1_555 1_555
C19_3 H11_3 1_555 1_555
N3_3 C19_3 1_555 1_555
C20_3 C18_3 1_555 1_555
H12_3 C20_3 1_555 1_555
C21_3 C17_3 1_555 1_555
H13_3 C21_3 1_555 1_555
Zn2_3 N3_3 1_555 1_555
Zn3_3 N6_3 1_555 1_555
N4_3 Zn1_5 1_555 1_555
N5_3 Zn1_5 1_555 1_555
C22_3 N4_3 1_555 1_555
C23_3 C22_3 1_555 1_555
H14_3 C23_3 1_555 1_555
C24_3 C23_3 1_555 1_555
H15_3 C24_3 1_555 1_555
C25_3 N4_3 1_555 1_555
C26_3 C25_3 1_555 1_555
C27_3 N5_3 1_555 1_555
C28_3 C27_3 1_555 1_555
H16_3 C28_3 1_555 1_555
C29_3 C28_3 1_555 1_555
H17_3 C29_3 1_555 1_555
C30_3 C10_3 1_555 1_555
C31_3 C9_3 1_555 1_555
C32_3 C26_3 1_555 1_555
C37_3 C32_3 1_555 1_555
H22_3 C37_3 1_555 1_555
C38_3 C31_3 1_555 1_555
C39_3 C38_3 1_555 1_555
H23_3 C39_3 1_555 1_555
C40_3 H24_3 1_555 1_555
N6_3 C40_3 1_555 1_555
N7_3 Zn1_5 1_555 1_555
N8_3 Zn1_5 1_555 1_555
C41_3 C39_3 1_555 1_555
H25_3 C41_3 1_555 1_555
C42_3 C38_3 1_555 1_555
H26_3 C42_3 1_555 1_555
C3_3 C4_3 1_555 1_555
C5_3 C6_3 1_555 1_555
C8_3 C9_3 1_555 1_555
C19_3 C21_3 1_555 1_555
N3_3 C20_3 1_555 1_555
N5_3 C30_3 1_555 1_555
C22_3 C31_3 1_555 1_555
C24_3 C25_3 1_555 1_555
C26_3 C27_3 1_555 1_555
C29_3 C30_3 1_555 1_555
C40_3 C42_3 1_555 1_555
N6_3 C41_3 1_555 1_555
H2_4 C3_4 1_555 1_555
C5_4 C4_4 1_555 1_555
C6_4 N2_4 1_555 1_555
C7_4 C6_4 1_555 1_555
H3_4 C7_4 1_555 1_555
C8_4 C7_4 1_555 1_555
H4_4 C8_4 1_555 1_555
C9_4 N2_4 1_555 1_555
C11_4 C5_4 1_555 1_555
C12_2 C11_4 1_555 1_555
H5_2 C12_2 1_555 1_555
C13_2 C12_2 1_555 1_555
H6_2 C13_2 1_555 1_555
C14_2 C13_2 1_555 1_555
H7_2 C14_2 1_555 1_555
C15_2 C14_2 1_555 1_555
H8_2 C15_2 1_555 1_555
C16_4 C11_4 1_555 1_555
H9_4 C16_4 1_555 1_555
Zn2 N6_4 1_555 1_555
C40_4 H24_4 1_555 1_555
N6_4 C40_4 1_555 1_555
H26_4 C42_4 1_555 1_555
C3_4 C4_4 1_555 1_555
C5_4 C6_4 1_555 1_555
C8_4 C9_4 1_555 1_555
C15_2 C16_4 1_555 1_555
C40_4 C42_4 1_555 1_555
Zn3_3 N1_4 1_555 1_555
N1_4 C1_4 1_555 1_555
C1_4 C2_4 1_555 1_555
C2_4 H1_4 1_555 1_555
C10_4 C1_4 1_555 1_555
C17_4 C10_4 1_555 1_555
C18_4 C17_4 1_555 1_555
H10_4 C18_4 1_555 1_555
C19_4 H11_4 1_555 1_555
N7_2 C19_4 1_555 1_555
C20_4 C18_4 1_555 1_555
H12_4 C20_4 1_555 1_555
C21_4 C17_4 1_555 1_555
H13_4 C21_4 1_555 1_555
N4_4 Zn3_3 1_555 1_555
N5_4 Zn3_3 1_555 1_555
C22_4 N4_4 1_555 1_555
C23_4 C22_4 1_555 1_555
H14_4 C23_4 1_555 1_555
C24_4 C23_4 1_555 1_555
H15_4 C24_4 1_555 1_555
C25_4 N4_4 1_555 1_555
C26_4 C25_4 1_555 1_555
C27_4 N5_4 1_555 1_555
C28_4 C27_4 1_555 1_555
H16_4 C28_4 1_555 1_555
C29_4 C28_4 1_555 1_555
H17_4 C29_4 1_555 1_555
C30_4 C10_4 1_555 1_555
C32_4 C26_4 1_555 1_555
C33 C32_4 1_555 1_555
H18 C33 1_555 1_555
C34 C33 1_555 1_555
H19 C34 1_555 1_555
C35 C34 1_555 1_555
H20 C35 1_555 1_555
C36 C35 1_555 1_555
H21 C36 1_555 1_555
C37_4 C32_4 1_555 1_555
H22_4 C37_4 1_555 1_555
C38_4 C31_4 1_555 1_555
C39_4 C38_4 1_555 1_555
H23_4 C39_4 1_555 1_555
N7_4 Zn3_3 1_555 1_555
C41_4 C39_4 1_555 1_555
H25_4 C41_4 1_555 1_555
C19_4 C21_4 1_555 1_555
N7_2 C20_4 1_555 1_555
N5_4 C30_4 1_555 1_555
C22_4 C31_4 1_555 1_555
C24_4 C25_4 1_555 1_555
C26_4 C27_4 1_555 1_555
C29_4 C30_4 1_555 1_555
C36 C37_4 1_555 1_555
Zn2_2 N6_5 1_555 1_555
C40_5 H24_5 1_555 1_555
N6_5 C40_5 1_555 1_555
C40_5 C42_5 1_555 1_555
Zn3 N1_5 1_555 1_555
N1_5 C1_5 1_555 1_555
C1_5 C2_5 1_555 1_555
C2_5 H1_5 1_555 1_555
C10_5 C1_5 1_555 1_555
C17_5 C10_5 1_555 1_555
C18_5 C17_5 1_555 1_555
H10_5 C18_5 1_555 1_555
C19_5 H11_5 1_555 1_555
N7_3 C19_5 1_555 1_555
C20_5 C18_5 1_555 1_555
H12_5 C20_5 1_555 1_555
C21_5 C17_5 1_555 1_555
H13_5 C21_5 1_555 1_555
N4_5 Zn3 1_555 1_555
N5_5 Zn3 1_555 1_555
C22_5 N4_5 1_555 1_555
C23_5 C22_5 1_555 1_555
C24_5 C23_5 1_555 1_555
H15_5 C24_5 1_555 1_555
C25_5 N4_5 1_555 1_555
C26_5 C25_5 1_555 1_555
C27_5 N5_5 1_555 1_555
C28_5 C27_5 1_555 1_555
H16_5 C28_5 1_555 1_555
C29_5 C28_5 1_555 1_555
H17_5 C29_5 1_555 1_555
C30_5 C10_5 1_555 1_555
C32_5 C26_5 1_555 1_555
C33_2 C32_5 1_555 1_555
H18_2 C33_2 1_555 1_555
C34_2 C33_2 1_555 1_555
H19_2 C34_2 1_555 1_555
C35_2 C34_2 1_555 1_555
H20_2 C35_2 1_555 1_555
C36_2 C35_2 1_555 1_555
H21_2 C36_2 1_555 1_555
C37_5 C32_5 1_555 1_555
H22_5 C37_5 1_555 1_555
C38_5 C31_5 1_555 1_555
N7_5 Zn3 1_555 1_555
C19_5 C21_5 1_555 1_555
N7_3 C20_5 1_555 1_555
N5_5 C30_5 1_555 1_555
C22_5 C31_5 1_555 1_555
C24_5 C25_5 1_555 1_555
C26_5 C27_5 1_555 1_555
C29_5 C30_5 1_555 1_555
C36_2 C37_5 1_555 1_555
Zn3_2 N1_6 1_555 1_555
N1_6 C1_6 1_555 1_555
C1_6 C2_6 1_555 1_555
C2_6 H1_6 1_555 1_555
C10_6 C1_6 1_555 1_555
C17_6 C10_6 1_555 1_555
C18_6 C17_6 1_555 1_555
H10_6 C18_6 1_555 1_555
C19_6 H11_6 1_555 1_555
N7 C19_6 1_555 1_555
C20_6 C18_6 1_555 1_555
H12_6 C20_6 1_555 1_555
C21_6 C17_6 1_555 1_555
H13_6 C21_6 1_555 1_555
N4_6 Zn3_2 1_555 1_555
N5_6 Zn3_2 1_555 1_555
C22_6 N4_6 1_555 1_555
C23_6 C22_6 1_555 1_555
C24_6 C23_6 1_555 1_555
H15_6 C24_6 1_555 1_555
C25_6 N4_6 1_555 1_555
C26_6 C25_6 1_555 1_555
C27_6 N5_6 1_555 1_555
C28_6 C27_6 1_555 1_555
H16_6 C28_6 1_555 1_555
C29_6 C28_6 1_555 1_555
H17_6 C29_6 1_555 1_555
C30_6 C10_6 1_555 1_555
C32_6 C26_6 1_555 1_555
C33_3 C32_6 1_555 1_555
H18_3 C33_3 1_555 1_555
C34_3 C33_3 1_555 1_555
H19_3 C34_3 1_555 1_555
C35_3 C34_3 1_555 1_555
H20_3 C35_3 1_555 1_555
C36_3 C35_3 1_555 1_555
H21_3 C36_3 1_555 1_555
C37_6 C32_6 1_555 1_555
H22_6 C37_6 1_555 1_555
C38_6 C31_6 1_555 1_555
N7_6 Zn3_2 1_555 1_555
C19_6 C21_6 1_555 1_555
N7 C20_6 1_555 1_555
N5_6 C30_6 1_555 1_555
C22_6 C31_6 1_555 1_555
C24_6 C25_6 1_555 1_555
C26_6 C27_6 1_555 1_555
C29_6 C30_6 1_555 1_555
C36_3 C37_6 1_555 1_555
Zn2_3 N6_6 1_555 1_555
C40_6 H24_6 1_555 1_555
N6_6 C40_6 1_555 1_555
C40_6 C42_6 1_555 1_555
Zn2_3 N1_7 1_555 1_555
N1_7 C1_7 1_555 1_555
N2_5 Zn2_3 1_555 1_555
C1_7 C2_7 1_555 1_555
C2_7 H1_7 1_555 1_555
C3_5 C2_7 1_555 1_555
H2_5 C3_5 1_555 1_555
C4_5 N1_7 1_555 1_555
C5_5 C4_5 1_555 1_555
C6_5 N2_5 1_555 1_555
C7_5 C6_5 1_555 1_555
H3_5 C7_5 1_555 1_555
C8_5 C7_5 1_555 1_555
H4_5 C8_5 1_555 1_555
C9_5 N2_5 1_555 1_555
C10_7 C1_7 1_555 1_555
C11_5 C5_5 1_555 1_555
C12_3 C11_5 1_555 1_555
H5_3 C12_3 1_555 1_555
C13_3 C12_3 1_555 1_555
H6_3 C13_3 1_555 1_555
C14_3 C13_3 1_555 1_555
H7_3 C14_3 1_555 1_555
C15_3 C14_3 1_555 1_555
H8_3 C15_3 1_555 1_555
C16_5 C11_5 1_555 1_555
H9_5 C16_5 1_555 1_555
C17_7 C10_7 1_555 1_555
C18_7 C17_7 1_555 1_555
H10_7 C18_7 1_555 1_555
C20_7 C18_7 1_555 1_555
H12_7 C20_7 1_555 1_555
N4_7 Zn2_3 1_555 1_555
C22_7 N4_7 1_555 1_555
C23_7 C22_7 1_555 1_555
H14_5 C23_7 1_555 1_555
C31_7 C9_5 1_555 1_555
C38_7 C31_7 1_555 1_555
C39_5 C38_7 1_555 1_555
H23_5 C39_5 1_555 1_555
C40_7 H24_7 1_555 1_555
N8_2 C40_7 1_555 1_555
C41_5 C39_5 1_555 1_555
H25_5 C41_5 1_555 1_555
C42_7 C38_7 1_555 1_555
H26_5 C42_7 1_555 1_555
C3_5 C4_5 1_555 1_555
C5_5 C6_5 1_555 1_555
C8_5 C9_5 1_555 1_555
C15_3 C16_5 1_555 1_555
C22_7 C31_7 1_555 1_555
C40_7 C42_7 1_555 1_555
N8_2 C41_5 1_555 1_555
C19_7 H11_7 1_555 1_555
N7_5 C19_7 1_555 1_555
H13_7 C21_7 1_555 1_555
H15_7 C24_7 1_555 1_555
C26_7 C25_7 1_555 1_555
C27_7 N5_7 1_555 1_555
C28_7 C27_7 1_555 1_555
H16_7 C28_7 1_555 1_555
C29_7 C28_7 1_555 1_555
H17_7 C29_7 1_555 1_555
C32_7 C26_7 1_555 1_555
C33_4 C32_7 1_555 1_555
H18_4 C33_4 1_555 1_555
C34_4 C33_4 1_555 1_555
H19_4 C34_4 1_555 1_555
C35_4 C34_4 1_555 1_555
H20_4 C35_4 1_555 1_555
C36_4 C35_4 1_555 1_555
H21_4 C36_4 1_555 1_555
C37_7 C32_7 1_555 1_555
H22_7 C37_7 1_555 1_555
C19_7 C21_7 1_555 1_555
N5_7 C30_7 1_555 1_555
C24_7 C25_7 1_555 1_555
C26_7 C27_7 1_555 1_555
C29_7 C30_7 1_555 1_555
C36_4 C37_7 1_555 1_555
Zn2 N1_8 1_555 1_555
N1_8 C1_8 1_555 1_555
N2_6 Zn2 1_555 1_555
C1_8 C2_8 1_555 1_555
C3_6 C2_8 1_555 1_555
H2_6 C3_6 1_555 1_555
C4_6 N1_8 1_555 1_555
C5_6 C4_6 1_555 1_555
C6_6 N2_6 1_555 1_555
C7_6 C6_6 1_555 1_555
H3_6 C7_6 1_555 1_555
C8_6 C7_6 1_555 1_555
H4_6 C8_6 1_555 1_555
C9_6 N2_6 1_555 1_555
C10_8 C1_8 1_555 1_555
C11_6 C5_6 1_555 1_555
C12_4 C11_6 1_555 1_555
H5_4 C12_4 1_555 1_555
C13_4 C12_4 1_555 1_555
H6_4 C13_4 1_555 1_555
C14_4 C13_4 1_555 1_555
H7_4 C14_4 1_555 1_555
C15_4 C14_4 1_555 1_555
H8_4 C15_4 1_555 1_555
C16_6 C11_6 1_555 1_555
H9_6 C16_6 1_555 1_555
C17_8 C10_8 1_555 1_555
N4_8 Zn2 1_555 1_555
C22_8 N4_8 1_555 1_555
C23_8 C22_8 1_555 1_555
H14_6 C23_8 1_555 1_555
C31_8 C9_6 1_555 1_555
C38_8 C31_8 1_555 1_555
C39_6 C38_8 1_555 1_555
H23_6 C39_6 1_555 1_555
C40_8 H24_8 1_555 1_555
N8_3 C40_8 1_555 1_555
C41_6 C39_6 1_555 1_555
H25_6 C41_6 1_555 1_555
C42_8 C38_8 1_555 1_555
H26_6 C42_8 1_555 1_555
C3_6 C4_6 1_555 1_555
C5_6 C6_6 1_555 1_555
C8_6 C9_6 1_555 1_555
C15_4 C16_6 1_555 1_555
C22_8 C31_8 1_555 1_555
C40_8 C42_8 1_555 1_555
N8_3 C41_6 1_555 1_555
C19_8 H11_8 1_555 1_555
N7_6 C19_8 1_555 1_555
C19_8 C21_8 1_555 1_555
C19_9 H11_9 1_555 1_555
N7_4 C19_9 1_555 1_555
C19_9 C21_9 1_555 1_555
Zn2_2 N1_9 1_555 1_555
N1_9 C1_9 1_555 1_555
N2_7 Zn2_2 1_555 1_555
C1_9 C2_9 1_555 1_555
C3_7 C2_9 1_555 1_555
H2_7 C3_7 1_555 1_555
C4_7 N1_9 1_555 1_555
C5_7 C4_7 1_555 1_555
C6_7 N2_7 1_555 1_555
C7_7 C6_7 1_555 1_555
H3_7 C7_7 1_555 1_555
C8_7 C7_7 1_555 1_555
H4_7 C8_7 1_555 1_555
C9_7 N2_7 1_555 1_555
C10_9 C1_9 1_555 1_555
C11_7 C5_7 1_555 1_555
C12_5 C11_7 1_555 1_555
H5_5 C12_5 1_555 1_555
C13_5 C12_5 1_555 1_555
H6_5 C13_5 1_555 1_555
C14_5 C13_5 1_555 1_555
H7_5 C14_5 1_555 1_555
C15_5 C14_5 1_555 1_555
H8_5 C15_5 1_555 1_555
C16_7 C11_7 1_555 1_555
H9_7 C16_7 1_555 1_555
C17_9 C10_9 1_555 1_555
N4_9 Zn2_2 1_555 1_555
C22_9 N4_9 1_555 1_555
C23_9 C22_9 1_555 1_555
H14_7 C23_9 1_555 1_555
C31_9 C9_7 1_555 1_555
C38_9 C31_9 1_555 1_555
C39_7 C38_9 1_555 1_555
H23_7 C39_7 1_555 1_555
C40_9 H24_9 1_555 1_555
N8 C40_9 1_555 1_555
C41_7 C39_7 1_555 1_555
H25_7 C41_7 1_555 1_555
C42_9 C38_9 1_555 1_555
H26_7 C42_9 1_555 1_555
C3_7 C4_7 1_555 1_555
C5_7 C6_7 1_555 1_555
C8_7 C9_7 1_555 1_555
C15_5 C16_7 1_555 1_555
C22_9 C31_9 1_555 1_555
C40_9 C42_9 1_555 1_555
N8 C41_7 1_555 1_555
H18_5 C33_5 1_555 1_555
C34_5 C33_5 1_555 1_555
H19_5 C34_5 1_555 1_555
C35_5 C34_5 1_555 1_555
H20_5 C35_5 1_555 1_555
C36_5 C35_5 1_555 1_555
H21_5 C36_5 1_555 1_555
H18_6 C33_6 1_555 1_555
C34_6 C33_6 1_555 1_555
H19_6 C34_6 1_555 1_555
C35_6 C34_6 1_555 1_555
H20_6 C35_6 1_555 1_555
C36_6 C35_6 1_555 1_555
H21_6 C36_6 1_555 1_555
H5_6 C12_6 1_555 1_555
C13_6 C12_6 1_555 1_555
H6_6 C13_6 1_555 1_555
C14_6 C13_6 1_555 1_555
H7_6 C14_6 1_555 1_555
C15_6 C14_6 1_555 1_555
H8_6 C15_6 1_555 1_555
H5_7 C12_7 1_555 1_555
C13_7 C12_7 1_555 1_555
H6_7 C13_7 1_555 1_555
C14_7 C13_7 1_555 1_555
H7_7 C14_7 1_555 1_555
C15_7 C14_7 1_555 1_555
H8_7 C15_7 1_555 1_555
H18_7 C33_7 1_555 1_555
C34_7 C33_7 1_555 1_555
H19_7 C34_7 1_555 1_555
C35_7 C34_7 1_555 1_555
H20_7 C35_7 1_555 1_555
C36_7 C35_7 1_555 1_555
H21_7 C36_7 1_555 1_555
H23_8 C39_8 1_555 1_555
C41_8 C39_8 1_555 1_555
H25_8 C41_8 1_555 1_555
H2_8 C3_8 1_555 1_555
C5_8 C4_8 1_555 1_555
C6_8 N2_8 1_555 1_555
C7_8 C6_8 1_555 1_555
H3_8 C7_8 1_555 1_555
C8_8 C7_8 1_555 1_555
H4_8 C8_8 1_555 1_555
C9_8 N2_8 1_555 1_555
C11_8 C5_8 1_555 1_555
C12_8 C11_8 1_555 1_555
H5_8 C12_8 1_555 1_555
C13_8 C12_8 1_555 1_555
H6_8 C13_8 1_555 1_555
C14_8 C13_8 1_555 1_555
H7_8 C14_8 1_555 1_555
C15_8 C14_8 1_555 1_555
H8_8 C15_8 1_555 1_555
C16_8 C11_8 1_555 1_555
H9_8 C16_8 1_555 1_555
C3_8 C4_8 1_555 1_555
C5_8 C6_8 1_555 1_555
C8_8 C9_8 1_555 1_555
C15_8 C16_8 1_555 1_555
H2_9 C3_9 1_555 1_555
C5_9 C4_9 1_555 1_555
C6_9 N2_9 1_555 1_555
C7_9 C6_9 1_555 1_555
H3_9 C7_9 1_555 1_555
C8_9 C7_9 1_555 1_555
H4_9 C8_9 1_555 1_555
C9_9 N2_9 1_555 1_555
C11_9 C5_9 1_555 1_555
C12_9 C11_9 1_555 1_555
H5_9 C12_9 1_555 1_555
C13_9 C12_9 1_555 1_555
H6_9 C13_9 1_555 1_555
C14_9 C13_9 1_555 1_555
H7_9 C14_9 1_555 1_555
C15_9 C14_9 1_555 1_555
H8_9 C15_9 1_555 1_555
C16_9 C11_9 1_555 1_555
H9_9 C16_9 1_555 1_555
C3_9 C4_9 1_555 1_555
C5_9 C6_9 1_555 1_555
C8_9 C9_9 1_555 1_555
C15_9 C16_9 1_555 1_555
H23_9 C39_9 1_555 1_555
C41_9 C39_9 1_555 1_555
H25_9 C41_9 1_555 1_555
H15_8 C24_8 1_555 1_555
C26_8 C25_8 1_555 1_555
C27_8 N5_8 1_555 1_555
C28_8 C27_8 1_555 1_555
H16_8 C28_8 1_555 1_555
C29_8 C28_8 1_555 1_555
H17_8 C29_8 1_555 1_555
C32_8 C26_8 1_555 1_555
C33_8 C32_8 1_555 1_555
H18_8 C33_8 1_555 1_555
C34_8 C33_8 1_555 1_555
H19_8 C34_8 1_555 1_555
C35_8 C34_8 1_555 1_555
H20_8 C35_8 1_555 1_555
C36_8 C35_8 1_555 1_555
H21_8 C36_8 1_555 1_555
C37_8 C32_8 1_555 1_555
H22_8 C37_8 1_555 1_555
N5_8 C30_8 1_555 1_555
C24_8 C25_8 1_555 1_555
C26_8 C27_8 1_555 1_555
C29_8 C30_8 1_555 1_555
C36_8 C37_8 1_555 1_555
H10_8 C18_8 1_555 1_555
C20_8 C18_8 1_555 1_555
H12_8 C20_8 1_555 1_555
H10_9 C18_9 1_555 1_555
C20_9 C18_9 1_555 1_555
H12_9 C20_9 1_555 1_555
H15_9 C24_9 1_555 1_555
C26_9 C25_9 1_555 1_555
C27_9 N5_9 1_555 1_555
C28_9 C27_9 1_555 1_555
H16_9 C28_9 1_555 1_555
C29_9 C28_9 1_555 1_555
H17_9 C29_9 1_555 1_555
C32_9 C26_9 1_555 1_555
C33_9 C32_9 1_555 1_555
H18_9 C33_9 1_555 1_555
C34_9 C33_9 1_555 1_555
H19_9 C34_9 1_555 1_555
C35_9 C34_9 1_555 1_555
H20_9 C35_9 1_555 1_555
C36_9 C35_9 1_555 1_555
H21_9 C36_9 1_555 1_555
C37_9 C32_9 1_555 1_555
H22_9 C37_9 1_555 1_555
N5_9 C30_9 1_555 1_555
C24_9 C25_9 1_555 1_555
C26_9 C27_9 1_555 1_555
C29_9 C30_9 1_555 1_555
C36_9 C37_9 1_555 1_555

#END
