
###############################################################################
#
# This file contains modified crystal structure data generated from the
# MOF subset of the Cambridge Structural Database (CSD) v543 
# hosted by the Cambridge Crystallographic Data Centre (CCDC).
#
# This work is licensed under the Creative Commons
# Attribution-NonCommercial-ShareAlike 4.0 International License.
# To view a copy of this license, visit
# http://creativecommons.org/licenses/by-nc-sa/4.0/
# or send a letter to
# Creative Commons, PO Box 1866, Mountain View, CA 94042, USA.
#
# CIF created using the CSD Python API on 29 September 2022
# The structure has been converted into the P1 space group
# The structure has a 3D framework
# The original CSD entry CATDIL is in the rhombohedral crystal system
# The framework has been calculated to contain at least 10.0% void space
# The void calculation uses a probe of radius 1.32A, grid spacing 0.4
#
###############################################################################

data_CATDIL
_chemical_formula_moiety         '(C378 H234 N54 Zn11)n'
_symmetry_cell_setting           triclinic
_symmetry_space_group_name_H-M   'P 1'
_symmetry_Int_Tables_number      1
_space_group_name_Hall           'P 1'
loop_
_symmetry_equiv_pos_site_id
_symmetry_equiv_pos_as_xyz
1 x,y,z
_cell_length_a                   33.0583(7)
_cell_length_b                   33.0583(7)
_cell_length_c                   9.3302(5)
_cell_angle_alpha                90
_cell_angle_beta                 90
_cell_angle_gamma                120.00
_cell_volume                     8830.45
loop_
_atom_site_label
_atom_site_type_symbol
_atom_site_fract_x
_atom_site_fract_y
_atom_site_fract_z
C33 C 0.54288(10) 0.08591(11) 0.0665(3)
H18 H 0.5332 0.0538 0.0790
C34 C 0.55608(11) 0.11514(12) 0.1857(3)
H19 H 0.5557 0.1031 0.2784
C35 C 0.56965(12) 0.16161(12) 0.1682(4)
H20 H 0.5787 0.1817 0.2491
C36 C 0.57006(12) 0.17897(12) 0.0336(4)
H21 H 0.5791 0.2110 0.0221
Zn1 Zn 0.5000 -0.0000 0.5000
C8 C 0.59331(10) 0.00875(11) 0.1646(3)
H4 H 0.6237 0.0213 0.1248
C9 C 0.58112(9) 0.02553(9) 0.2913(3)
Zn3 Zn 0.8333 0.1667 0.1667
N4 N 0.55941(7) 0.05831(7) 0.5726(2)
N5 N 0.46644(7) 0.00104(7) 0.6858(2)
C22 C 0.60257(9) 0.07685(9) 0.5098(3)
C23 C 0.63690(10) 0.11408(10) 0.5996(3)
H14 H 0.6693 0.1331 0.5799
C24 C 0.61422(10) 0.11660(10) 0.7160(3)
H15 H 0.6277 0.1376 0.7941
C25 C 0.56553(9) 0.08144(9) 0.7003(3)
C26 C 0.53048(9) 0.07135(9) 0.8018(3)
C27 C 0.48370(9) 0.03439(9) 0.7920(3)
C28 C 0.44618(10) 0.02782(10) 0.8869(3)
H16 H 0.4489 0.0458 0.9695
C31 C 0.61231(9) 0.06138(9) 0.3798(3)
C32 C 0.54364(9) 0.10280(10) 0.9298(3)
C37 C 0.55723(11) 0.14985(11) 0.9145(3)
H22 H 0.5577 0.1621 0.8220
C38 C 0.66285(9) 0.08664(9) 0.3364(3)
C39 C 0.67911(10) 0.11914(11) 0.2259(3)
H23 H 0.6581 0.1255 0.1742
C40 C 0.72595(11) 0.14209(11) 0.1919(3)
H24 H 0.7366 0.1644 0.1164
N6 N 0.75718(8) 0.13458(8) 0.2598(2)
N8 N 0.46791(8) 0.04407(11) 0.4069(2)
C41 C 0.74161(11) 0.10325(10) 0.3640(3)
H25 H 0.7633 0.0974 0.4129
C42 C 0.69508(9) 0.07854(10) 0.4055(3)
H26 H 0.6855 0.0563 0.4808
Zn1_2 Zn 0.5000 1.0000 0.5000
N1 N 0.44059(7) 0.94169(7) 0.4274(2)
N2 N 0.53356(7) 0.99896(7) 0.3142(2)
C1 C 0.39743(9) 0.92315(9) 0.4902(3)
C2 C 0.36310(10) 0.88592(10) 0.4004(3)
H1 H 0.3307 0.8669 0.4201
C3 C 0.38578(10) 0.88340(10) 0.2840(3)
H2 H 0.3723 0.8624 0.2059
C4 C 0.43447(9) 0.91856(9) 0.2997(3)
C5 C 0.46952(9) 0.92865(9) 0.1982(3)
C6 C 0.51630(9) 0.96561(9) 0.2080(3)
C7 C 0.55382(10) 0.97218(10) 0.1131(3)
H3 H 0.5511 0.9542 0.0305
C10 C 0.38769(9) 0.93862(9) 0.6202(3)
C11 C 0.45636(9) 0.89720(10) 0.0702(3)
C16 C 0.44277(11) 0.85015(11) 0.0855(3)
H9 H 0.4423 0.8379 0.1780
C17 C 0.33715(9) 0.91336(9) 0.6636(3)
C18 C 0.32089(10) 0.88086(11) 0.7741(3)
H10 H 0.3419 0.8745 0.8258
C19 C 0.27405(11) 0.85791(11) 0.8081(3)
H11 H 0.2634 0.8356 0.8836
N3 N 0.24282(8) 0.86542(8) 0.7402(2)
C20 C 0.25839(11) 0.89675(10) 0.6360(3)
H12 H 0.2367 0.9026 0.5871
C21 C 0.30492(9) 0.92146(10) 0.5945(3)
H13 H 0.3145 0.9437 0.5192
Zn2 Zn 0.1667 0.8333 0.8333
C29 C 0.40669(10) 0.99125(11) 0.8354(3)
H17 H 0.3763 0.9787 0.8752
C30 C 0.41888(9) 0.97447(9) 0.7087(3)
N7 N 0.53209(8) 0.95593(11) 0.5931(2)
Zn1_3 Zn 0.0000 0.5000 0.5000
N1_2 N 0.05831(7) 0.49890(10) 0.4274(2)
N2_2 N 0.00104(7) 0.53460(10) 0.3142(2)
C1_2 C 0.07685(9) 0.47428(13) 0.4902(3)
C2_2 C 0.11408(10) 0.47718(14) 0.4004(3)
H1_2 H 0.1331 0.4638 0.4201
C3_2 C 0.11660(10) 0.50238(14) 0.2840(3)
H2_2 H 0.1376 0.5099 0.2059
C4_2 C 0.08144(9) 0.51591(13) 0.2997(3)
C5_2 C 0.07135(9) 0.54087(13) 0.1982(3)
C6_2 C 0.03439(9) 0.55069(13) 0.2080(3)
C7_2 C 0.02782(10) 0.58164(14) 0.1131(3)
H3_2 H 0.0458 0.5969 0.0305
C10_2 C 0.06138(9) 0.44907(13) 0.6202(3)
C11_2 C 0.10280(10) 0.55916(13) 0.0702(3)
C16_2 C 0.14985(11) 0.59262(16) 0.0855(3)
H9_2 H 0.1621 0.6044 0.1780
C17_2 C 0.08664(9) 0.42379(13) 0.6636(3)
C18_2 C 0.11914(11) 0.44003(15) 0.7741(3)
H10_2 H 0.1255 0.4674 0.8258
C19_2 C 0.14209(11) 0.41614(16) 0.8081(3)
H11_2 H 0.1644 0.4278 0.8836
N3_2 N 0.13458(8) 0.37740(11) 0.7402(2)
C20_2 C 0.10325(10) 0.36164(15) 0.6360(3)
H12_2 H 0.0974 0.3341 0.5871
C21_2 C 0.07854(10) 0.38346(13) 0.5945(3)
H13_2 H 0.0563 0.3708 0.5192
Zn2_2 Zn 0.1667 0.3333 0.8333
C29_2 C 0.00875(11) 0.41544(15) 0.8354(3)
H17_2 H 0.0213 0.3976 0.8752
C30_2 C 0.02553(9) 0.44441(13) 0.7087(3)
N7_2 N 0.04407(11) 0.57615(14) 0.5931(2)
Zn1_4 Zn 1.0000 0.5000 0.5000
C8_2 C 0.99125(11) 0.58456(15) 0.1646(3)
H4_2 H 0.9787 0.6024 0.1248
C9_2 C 0.97447(9) 0.55559(13) 0.2913(3)
Zn3_2 Zn 0.8333 0.6667 0.1667
N4_2 N 0.94169(7) 0.50110(10) 0.5726(2)
N5_2 N 0.99896(7) 0.46540(10) 0.6858(2)
C22_2 C 0.92315(9) 0.52572(13) 0.5098(3)
C23_2 C 0.88592(10) 0.52282(14) 0.5996(3)
H14_2 H 0.8669 0.5362 0.5799
C24_2 C 0.88340(10) 0.49762(14) 0.7160(3)
H15_2 H 0.8624 0.4901 0.7941
C25_2 C 0.91856(9) 0.48409(13) 0.7003(3)
C26_2 C 0.92865(9) 0.45913(13) 0.8018(3)
C27_2 C 0.96561(9) 0.44931(13) 0.7920(3)
C28_2 C 0.97218(10) 0.41836(14) 0.8869(3)
H16_2 H 0.9542 0.4031 0.9695
C31_2 C 0.93862(9) 0.55093(13) 0.3798(3)
C32_2 C 0.89720(10) 0.44084(13) 0.9298(3)
C37_2 C 0.85015(11) 0.40738(16) 0.9145(3)
H22_2 H 0.8379 0.3956 0.8220
C38_2 C 0.91336(9) 0.57621(13) 0.3364(3)
C39_2 C 0.88086(11) 0.55997(15) 0.2259(3)
H23_2 H 0.8745 0.5326 0.1742
C40_2 C 0.85791(11) 0.58386(16) 0.1919(3)
H24_2 H 0.8356 0.5722 0.1164
N6_2 N 0.86542(8) 0.62260(11) 0.2598(2)
N8_2 N 0.95593(11) 0.42385(14) 0.4069(2)
C41_2 C 0.89675(10) 0.63836(15) 0.3640(3)
H25_2 H 0.9026 0.6659 0.4129
C42_2 C 0.92146(10) 0.61654(13) 0.4055(3)
H26_2 H 0.9437 0.6292 0.4808
Zn1_5 Zn 0.5000 0.5000 0.5000
N1_3 N 0.50110(10) 0.55941(7) 0.4274(2)
N2_3 N 0.46540(10) 0.46644(7) 0.3142(2)
C1_3 C 0.52572(13) 0.60257(9) 0.4902(3)
C2_3 C 0.52282(14) 0.63690(10) 0.4004(3)
H1_3 H 0.5362 0.6693 0.4201
C3_3 C 0.49762(14) 0.61422(10) 0.2840(3)
H2_3 H 0.4901 0.6277 0.2059
C4_3 C 0.48409(13) 0.56553(9) 0.2997(3)
C5_3 C 0.45913(13) 0.53048(9) 0.1982(3)
C6_3 C 0.44931(13) 0.48370(9) 0.2080(3)
C7_3 C 0.41836(14) 0.44618(10) 0.1131(3)
H3_3 H 0.4031 0.4489 0.0305
C8_3 C 0.41544(15) 0.40669(10) 0.1646(3)
H4_3 H 0.3976 0.3763 0.1248
C9_3 C 0.44441(13) 0.41888(9) 0.2913(3)
C10_3 C 0.55093(13) 0.61231(9) 0.6202(3)
C11_3 C 0.44084(13) 0.54364(9) 0.0702(3)
C16_3 C 0.40738(16) 0.55723(11) 0.0855(3)
H9_3 H 0.3956 0.5577 0.1780
C17_3 C 0.57621(13) 0.66285(9) 0.6636(3)
C18_3 C 0.55997(15) 0.67911(10) 0.7741(3)
H10_3 H 0.5326 0.6581 0.8258
C19_3 C 0.58386(16) 0.72595(11) 0.8081(3)
H11_3 H 0.5722 0.7366 0.8836
N3_3 N 0.62260(11) 0.75718(8) 0.7402(2)
C20_3 C 0.63836(15) 0.74161(11) 0.6360(3)
H12_3 H 0.6659 0.7633 0.5871
C21_3 C 0.61654(13) 0.69508(9) 0.5945(3)
H13_3 H 0.6292 0.6855 0.5192
Zn2_3 Zn 0.6667 0.8333 0.8333
Zn3_3 Zn 0.3333 0.1667 0.1667
N4_3 N 0.49890(10) 0.44059(7) 0.5726(2)
N5_3 N 0.53460(10) 0.53356(7) 0.6858(2)
C22_3 C 0.47428(13) 0.39743(9) 0.5098(3)
C23_3 C 0.47718(14) 0.36310(10) 0.5996(3)
H14_3 H 0.4638 0.3307 0.5799
C24_3 C 0.50238(14) 0.38578(10) 0.7160(3)
H15_3 H 0.5099 0.3723 0.7941
C25_3 C 0.51591(13) 0.43447(9) 0.7003(3)
C26_3 C 0.54087(13) 0.46952(9) 0.8018(3)
C27_3 C 0.55069(13) 0.51630(9) 0.7920(3)
C28_3 C 0.58164(14) 0.55382(10) 0.8869(3)
H16_3 H 0.5969 0.5511 0.9695
C29_3 C 0.58456(15) 0.59331(10) 0.8354(3)
H17_3 H 0.6024 0.6237 0.8752
C30_3 C 0.55559(13) 0.58112(9) 0.7087(3)
C31_3 C 0.44907(13) 0.38769(9) 0.3798(3)
C32_3 C 0.55916(13) 0.45636(9) 0.9298(3)
C37_3 C 0.59262(16) 0.44277(11) 0.9145(3)
H22_3 H 0.6044 0.4423 0.8220
C38_3 C 0.42379(13) 0.33715(9) 0.3364(3)
C39_3 C 0.44003(15) 0.32089(10) 0.2259(3)
H23_3 H 0.4674 0.3419 0.1742
C40_3 C 0.41614(16) 0.27405(11) 0.1919(3)
H24_3 H 0.4278 0.2634 0.1164
N6_3 N 0.37740(11) 0.24282(8) 0.2598(2)
N7_3 N 0.42385(14) 0.46791(8) 0.5931(2)
N8_3 N 0.57615(14) 0.53209(8) 0.4069(2)
C41_3 C 0.36164(15) 0.25839(11) 0.3640(3)
H25_3 H 0.3341 0.2367 0.4129
C42_3 C 0.38346(13) 0.30492(9) 0.4055(3)
H26_3 H 0.3708 0.3145 0.4808
N1_4 N 0.10726(7) 0.27502(7) 0.7607(2)
N2_4 N 0.20023(7) 0.33229(7) 0.6475(2)
C1_4 C 0.06410(9) 0.25648(9) 0.8235(3)
C2_4 C 0.02977(10) 0.21925(10) 0.7337(3)
C3_4 C 0.05245(10) 0.21673(10) 0.6173(3)
H2_4 H 0.0390 0.1957 0.5392
C4_4 C 0.10114(9) 0.25189(9) 0.6330(3)
C5_4 C 0.13619(9) 0.26198(9) 0.5315(3)
C6_4 C 0.18297(9) 0.29894(9) 0.5413(3)
C7_4 C 0.22049(10) 0.30551(10) 0.4464(3)
H3_4 H 0.2178 0.2875 0.3638
C8_4 C 0.25998(10) 0.34208(11) 0.4979(3)
H4_4 H 0.2904 0.3546 0.4581
C9_4 C 0.24779(9) 0.35886(9) 0.6246(3)
C10_4 C 0.05436(9) 0.27195(9) 0.9535(3)
C11_4 C 0.12303(9) 0.23053(10) 0.4035(3)
C12 C 0.12379(10) 0.24742(11) 0.2668(3)
H5 H 0.1335 0.2795 0.2543
C13 C 0.11059(11) 0.21819(12) 0.1476(3)
H6 H 0.1110 0.2302 0.0549
C14 C 0.09702(12) 0.17172(12) 0.1651(4)
H7 H 0.0880 0.1516 0.0842
C15 C 0.09661(12) 0.15436(12) 0.2997(4)
H8 H 0.0876 0.1223 0.3112
C16_4 C 0.10944(11) 0.18348(11) 0.4188(3)
H9_4 H 0.1090 0.1712 0.5113
C17_4 C 0.00382(9) 0.24669(9) 0.9969(3)
N4_4 N 0.22608(7) 0.39164(7) 0.9059(2)
C22_4 C 0.26924(9) 0.41018(9) 0.8431(3)
C23_4 C 0.30357(10) 0.44741(10) 0.9329(3)
H14_4 H 0.3360 0.4664 0.9132
C31_4 C 0.27898(9) 0.39471(9) 0.7131(3)
C38_4 C 0.32952(9) 0.41997(9) 0.6697(3)
C39_4 C 0.34578(10) 0.45247(11) 0.5592(3)
H23_4 H 0.3248 0.4588 0.5075
C40_4 C 0.39262(11) 0.47542(11) 0.5252(3)
H24_4 H 0.4033 0.4977 0.4497
N7_4 N 0.19875(8) 0.28927(11) 0.9265(2)
C41_4 C 0.40828(11) 0.43658(10) 0.6973(3)
H25_4 H 0.4300 0.4307 0.7462
C42_4 C 0.36175(9) 0.41187(10) 0.7388(3)
H26_4 H 0.3522 0.3896 0.8141
C18_4 C 0.98756(10) 0.21419(11) 0.1074(3)
C19_4 C 0.94072(11) 0.19124(11) 0.1414(3)
H11_4 H 0.9301 0.1689 0.2169
N3_4 N 0.90949(8) 0.19875(8) 0.0735(2)
C18_5 C 0.78581(11) 0.77336(15) 0.1074(3)
H10_4 H 0.7922 0.8007 0.1591
C19_5 C 0.80876(11) 0.74947(16) 0.1414(3)
H11_5 H 0.8311 0.7611 0.2169
N3_5 N 0.80125(8) 0.71073(11) 0.0735(2)
N5_4 N 0.66563(7) 0.79873(10) 0.0191(2)
C24_4 C 0.55007(10) 0.83095(14) 0.0493(3)
H15_4 H 0.5291 0.8234 0.1274
C25_4 C 0.58523(9) 0.81742(13) 0.0336(3)
C26_4 C 0.59532(9) 0.79246(13) 0.1351(3)
C27_4 C 0.63228(9) 0.78264(13) 0.1253(3)
C28_4 C 0.63885(10) 0.75169(14) 0.2202(3)
H16_4 H 0.6209 0.7364 0.3028
C29_4 C 0.67542(11) 0.74877(15) 0.1687(3)
H17_4 H 0.6880 0.7309 0.2085
C30_4 C 0.69220(9) 0.77774(13) 0.0420(3)
C32_4 C 0.56387(10) 0.77417(13) 0.2631(3)
C33_2 C 0.58076(11) 0.79030(15) 0.3998(3)
H18_2 H 0.6129 0.8127 0.4123
C34_2 C 0.55153(12) 0.77427(16) 0.5190(3)
H19_2 H 0.5636 0.7859 0.6117
C35_2 C 0.50506(12) 0.74137(17) 0.5015(4)
H20_2 H 0.4850 0.7303 0.5824
C36_2 C 0.48770(12) 0.72442(17) 0.3669(4)
H21_2 H 0.4557 0.7014 0.3554
C37_4 C 0.51682(11) 0.74071(16) 0.2478(3)
H22_4 H 0.5046 0.7289 0.1553
N1_5 N 0.72498(7) 0.83223(10) 0.7607(2)
N2_5 N 0.66771(7) 0.86793(10) 0.6475(2)
C1_5 C 0.74352(9) 0.80761(13) 0.8235(3)
C2_5 C 0.78075(10) 0.81051(14) 0.7337(3)
H1_4 H 0.7998 0.7971 0.7534
C3_5 C 0.78327(10) 0.83571(14) 0.6173(3)
H2_5 H 0.8043 0.8432 0.5392
C4_5 C 0.74811(9) 0.84924(13) 0.6330(3)
C5_5 C 0.73802(9) 0.87420(13) 0.5315(3)
C6_5 C 0.70106(9) 0.88402(13) 0.5413(3)
C7_5 C 0.69449(10) 0.91497(14) 0.4464(3)
H3_5 H 0.7125 0.9302 0.3638
C8_5 C 0.65792(11) 0.91789(15) 0.4979(3)
H4_5 H 0.6454 0.9357 0.4581
C9_5 C 0.64114(9) 0.88892(13) 0.6246(3)
C10_5 C 0.72805(9) 0.78240(13) 0.9535(3)
C11_5 C 0.76947(10) 0.89249(13) 0.4035(3)
C12_2 C 0.75258(11) 0.87636(15) 0.2668(3)
H5_2 H 0.7205 0.8539 0.2543
C13_2 C 0.78181(12) 0.89239(16) 0.1476(3)
H6_2 H 0.7698 0.8807 0.0549
C14_2 C 0.82828(12) 0.92529(17) 0.1651(4)
H7_2 H 0.8484 0.9363 0.0842
C15_2 C 0.84564(12) 0.94224(17) 0.2997(4)
H8_2 H 0.8777 0.9652 0.3112
C16_5 C 0.81652(11) 0.92595(16) 0.4188(3)
H9_5 H 0.8288 0.9377 0.5113
C17_5 C 0.75331(9) 0.75712(13) 0.9969(3)
C20_4 C 0.76992(10) 0.69497(15) 0.9693(3)
H12_4 H 0.7641 0.6674 0.9204
C21_4 C 0.74521(10) 0.71679(13) 0.9278(3)
H13_4 H 0.7230 0.7041 0.8525
N4_5 N 0.60836(7) 0.83443(10) 0.9059(2)
C22_5 C 0.58982(9) 0.85905(13) 0.8431(3)
C23_5 C 0.55259(10) 0.85615(14) 0.9329(3)
H14_5 H 0.5336 0.8695 0.9132
C31_5 C 0.60529(9) 0.88426(13) 0.7131(3)
C38_5 C 0.58003(9) 0.90954(13) 0.6697(3)
C39_5 C 0.54753(11) 0.89330(15) 0.5592(3)
H23_5 H 0.5412 0.8659 0.5075
C40_5 C 0.52458(11) 0.91719(16) 0.5252(3)
H24_5 H 0.5023 0.9055 0.4497
N7_5 N 0.71073(11) 0.90949(14) 0.9265(2)
C41_5 C 0.56342(10) 0.97169(15) 0.6973(3)
H25_5 H 0.5693 0.9992 0.7462
C42_5 C 0.58813(10) 0.94987(13) 0.7388(3)
H26_5 H 0.6104 0.9625 0.8141
C18_6 C 0.22664(15) 0.01244(10) 0.1074(3)
C19_6 C 0.25053(16) 0.05928(11) 0.1414(3)
H11_6 H 0.2389 0.0699 0.2169
N3_6 N 0.28927(11) 0.09051(8) 0.0735(2)
N1_6 N 0.16777(10) 0.89274(7) 0.7607(2)
N2_6 N 0.13207(10) 0.79977(7) 0.6475(2)
C1_6 C 0.19239(13) 0.93590(9) 0.8235(3)
C2_6 C 0.18949(14) 0.97023(10) 0.7337(3)
C3_6 C 0.16429(14) 0.94755(10) 0.6173(3)
H2_6 H 0.1568 0.9610 0.5392
C4_6 C 0.15076(13) 0.89886(9) 0.6330(3)
C5_6 C 0.12580(13) 0.86381(9) 0.5315(3)
C6_6 C 0.11598(13) 0.81703(9) 0.5413(3)
C7_6 C 0.08503(14) 0.77951(10) 0.4464(3)
H3_6 H 0.0698 0.7822 0.3638
C8_6 C 0.08211(15) 0.74002(10) 0.4979(3)
H4_6 H 0.0643 0.7096 0.4581
C9_6 C 0.11108(13) 0.75221(9) 0.6246(3)
C10_6 C 0.21760(13) 0.94564(9) 0.9535(3)
C11_6 C 0.10751(13) 0.87697(9) 0.4035(3)
C12_3 C 0.12364(15) 0.87621(10) 0.2668(3)
H5_3 H 0.1461 0.8665 0.2543
C13_3 C 0.10761(16) 0.88941(11) 0.1476(3)
H6_3 H 0.1193 0.8890 0.0549
C14_3 C 0.07471(17) 0.90298(12) 0.1651(4)
H7_3 H 0.0637 0.9120 0.0842
C15_3 C 0.05776(17) 0.90339(12) 0.2997(4)
H8_3 H 0.0348 0.9124 0.3112
C16_6 C 0.07405(16) 0.89056(11) 0.4188(3)
H9_6 H 0.0623 0.8910 0.5113
C17_6 C 0.24288(13) 0.99618(9) 0.9969(3)
N4_6 N 0.16557(10) 0.77392(7) 0.9059(2)
C22_6 C 0.14095(13) 0.73076(9) 0.8431(3)
C23_6 C 0.14385(14) 0.69643(10) 0.9329(3)
H14_6 H 0.1305 0.6640 0.9132
C31_6 C 0.11574(13) 0.72102(9) 0.7131(3)
C38_6 C 0.09046(13) 0.67048(9) 0.6697(3)
C39_6 C 0.10670(15) 0.65422(10) 0.5592(3)
H23_6 H 0.1341 0.6752 0.5075
C40_6 C 0.08281(16) 0.60738(11) 0.5252(3)
H24_6 H 0.0945 0.5967 0.4497
N7_6 N 0.09051(14) 0.80125(8) 0.9265(2)
C41_6 C 0.02831(15) 0.59172(11) 0.6973(3)
H25_6 H 0.0008 0.5700 0.7462
C42_6 C 0.05013(13) 0.63825(9) 0.7388(3)
H26_6 H 0.0375 0.6478 0.8141
C39_7 C 0.01244(10) 0.78581(11) 0.8926(3)
C40_7 C 0.05928(11) 0.80876(11) 0.8586(3)
H24_7 H 0.0699 0.8311 0.7831
N1_7 N 0.77392(7) 0.60836(7) 0.0941(2)
C1_7 C 0.73076(9) 0.58982(9) 0.1569(3)
C2_7 C 0.69643(10) 0.55259(10) 0.0671(3)
H1_5 H 0.6640 0.5336 0.0868
C10_7 C 0.72102(9) 0.60529(9) 0.2869(3)
C17_7 C 0.67048(9) 0.58003(9) 0.3303(3)
C18_7 C 0.65422(10) 0.54753(11) 0.4408(3)
H10_5 H 0.6752 0.5412 0.4925
C19_7 C 0.60738(11) 0.52458(11) 0.4748(3)
H11_7 H 0.5967 0.5023 0.5503
C20_5 C 0.59172(11) 0.56342(10) 0.3027(3)
H12_5 H 0.5700 0.5693 0.2538
C21_5 C 0.63825(9) 0.58813(10) 0.2612(3)
H13_5 H 0.6478 0.6104 0.1859
N4_7 N 0.89274(7) 0.72498(7) 0.2393(2)
N5_5 N 0.79977(7) 0.66771(7) 0.3525(2)
C22_7 C 0.93590(9) 0.74352(9) 0.1765(3)
C23_7 C 0.97023(10) 0.78075(10) 0.2663(3)
C24_5 C 0.94755(10) 0.78327(10) 0.3827(3)
H15_5 H 0.9610 0.8043 0.4608
C25_5 C 0.89886(9) 0.74811(9) 0.3670(3)
C26_5 C 0.86381(9) 0.73802(9) 0.4685(3)
C27_5 C 0.81703(9) 0.70106(9) 0.4587(3)
C28_5 C 0.77951(10) 0.69449(10) 0.5536(3)
H16_5 H 0.7822 0.7125 0.6362
C29_5 C 0.74002(10) 0.65792(11) 0.5021(3)
H17_5 H 0.7096 0.6454 0.5419
C30_5 C 0.75221(9) 0.64114(9) 0.3754(3)
C31_7 C 0.94564(9) 0.72805(9) 0.0465(3)
C32_5 C 0.87697(9) 0.76947(10) 0.5965(3)
C33_3 C 0.87621(10) 0.75258(11) 0.7332(3)
H18_3 H 0.8665 0.7205 0.7457
C34_3 C 0.88941(11) 0.78181(12) 0.8524(3)
H19_3 H 0.8890 0.7698 0.9451
C35_3 C 0.90298(12) 0.82828(12) 0.8349(4)
H20_3 H 0.9120 0.8484 0.9158
C36_3 C 0.90339(12) 0.84564(12) 0.7003(4)
H21_3 H 0.9124 0.8777 0.6888
C37_5 C 0.89056(11) 0.81652(11) 0.5812(3)
H22_5 H 0.8910 0.8288 0.4887
C38_7 C 0.99618(9) 0.75331(9) 0.0031(3)
N1_8 N 0.39164(7) 0.16557(10) 0.0941(2)
C1_8 C 0.41018(9) 0.14095(13) 0.1569(3)
C2_8 C 0.44741(10) 0.14385(14) 0.0671(3)
H1_6 H 0.4664 0.1305 0.0868
C10_8 C 0.39471(9) 0.11574(13) 0.2869(3)
C17_8 C 0.41997(9) 0.09046(13) 0.3303(3)
C18_8 C 0.45247(11) 0.10670(15) 0.4408(3)
H10_6 H 0.4588 0.1341 0.4925
C19_8 C 0.47542(11) 0.08281(16) 0.4748(3)
H11_8 H 0.4977 0.0945 0.5503
C20_6 C 0.43658(10) 0.02831(15) 0.3027(3)
H12_6 H 0.4307 0.0008 0.2538
C21_6 C 0.41187(10) 0.05013(13) 0.2612(3)
H13_6 H 0.3896 0.0375 0.1859
N4_8 N 0.27502(7) 0.16777(10) 0.2393(2)
N5_6 N 0.33229(7) 0.13207(10) 0.3525(2)
C22_8 C 0.25648(9) 0.19239(13) 0.1765(3)
C23_8 C 0.21925(10) 0.18949(14) 0.2663(3)
H14_7 H 0.2002 0.2029 0.2466
C24_6 C 0.21673(10) 0.16429(14) 0.3827(3)
H15_6 H 0.1957 0.1568 0.4608
C25_6 C 0.25189(9) 0.15076(13) 0.3670(3)
C26_6 C 0.26198(9) 0.12580(13) 0.4685(3)
C27_6 C 0.29894(9) 0.11598(13) 0.4587(3)
C28_6 C 0.30551(10) 0.08503(14) 0.5536(3)
H16_6 H 0.2875 0.0698 0.6362
C29_6 C 0.34208(11) 0.08211(15) 0.5021(3)
H17_6 H 0.3546 0.0643 0.5419
C30_6 C 0.35886(9) 0.11108(13) 0.3754(3)
C31_8 C 0.27195(9) 0.21760(13) 0.0465(3)
C32_6 C 0.23053(10) 0.10751(13) 0.5965(3)
C33_4 C 0.24742(11) 0.12364(15) 0.7332(3)
H18_4 H 0.2795 0.1461 0.7457
C34_4 C 0.21819(12) 0.10761(16) 0.8524(3)
H19_4 H 0.2302 0.1193 0.9451
C35_4 C 0.17172(12) 0.07471(17) 0.8349(4)
H20_4 H 0.1516 0.0637 0.9158
C36_4 C 0.15436(12) 0.05776(17) 0.7003(4)
H21_4 H 0.1223 0.0348 0.6888
C37_6 C 0.18348(11) 0.07405(16) 0.5812(3)
H22_6 H 0.1712 0.0623 0.4887
C38_8 C 0.24669(9) 0.24288(13) 0.0031(3)
C41_7 C 0.23008(10) 0.30503(15) 0.0307(3)
H25_7 H 0.2359 0.3326 0.0796
C42_7 C 0.25479(10) 0.28321(13) 0.0722(3)
H26_7 H 0.2770 0.2959 0.1475
N2_7 N 0.33437(7) 0.20127(10) 0.9809(2)
C3_7 C 0.44993(10) 0.16905(14) 0.9507(3)
H2_7 H 0.4709 0.1766 0.8726
C4_7 C 0.41477(9) 0.18258(13) 0.9664(3)
C5_7 C 0.40468(9) 0.20754(13) 0.8649(3)
C6_7 C 0.36772(9) 0.21736(13) 0.8747(3)
C7_7 C 0.36115(10) 0.24831(14) 0.7798(3)
H3_7 H 0.3791 0.2636 0.6972
C8_7 C 0.32458(11) 0.25123(15) 0.8313(3)
H4_7 H 0.3120 0.2691 0.7915
C9_7 C 0.30780(9) 0.22226(13) 0.9580(3)
C11_7 C 0.43613(10) 0.22583(13) 0.7369(3)
C12_4 C 0.41924(11) 0.20970(15) 0.6002(3)
H5_4 H 0.3871 0.1873 0.5877
C13_4 C 0.44847(12) 0.22573(16) 0.4810(3)
H6_4 H 0.4364 0.2141 0.3883
C14_4 C 0.49494(12) 0.25863(17) 0.4985(4)
H7_4 H 0.5150 0.2697 0.4176
C15_4 C 0.51230(12) 0.27558(17) 0.6331(4)
H8_4 H 0.5443 0.2986 0.6446
C16_7 C 0.48318(11) 0.25929(16) 0.7522(3)
H9_7 H 0.4954 0.2711 0.8447
C39_8 C 0.21419(11) 0.22664(15) 0.8926(3)
H23_7 H 0.2078 0.1993 0.8409
C40_8 C 0.19124(11) 0.25053(16) 0.8586(3)
H24_8 H 0.1689 0.2389 0.7831
N1_9 N 0.83443(10) 0.22608(7) 0.0941(2)
C1_9 C 0.85905(13) 0.26924(9) 0.1569(3)
C2_9 C 0.85615(14) 0.30357(10) 0.0671(3)
H1_7 H 0.8695 0.3360 0.0868
C10_9 C 0.88426(13) 0.27898(9) 0.2869(3)
C17_9 C 0.90954(13) 0.32952(9) 0.3303(3)
C18_9 C 0.89330(15) 0.34578(10) 0.4408(3)
H10_7 H 0.8659 0.3248 0.4925
C19_9 C 0.91719(16) 0.39262(11) 0.4748(3)
H11_9 H 0.9055 0.4033 0.5503
C20_7 C 0.97169(15) 0.40828(11) 0.3027(3)
H12_7 H 0.9992 0.4300 0.2538
C21_7 C 0.94987(13) 0.36175(9) 0.2612(3)
H13_7 H 0.9625 0.3522 0.1859
N4_9 N 0.83223(10) 0.10726(7) 0.2393(2)
N5_7 N 0.86793(10) 0.20023(7) 0.3525(2)
C22_9 C 0.80761(13) 0.06410(9) 0.1765(3)
C23_9 C 0.81051(14) 0.02977(10) 0.2663(3)
C24_7 C 0.83571(14) 0.05245(10) 0.3827(3)
H15_7 H 0.8432 0.0390 0.4608
C25_7 C 0.84924(13) 0.10114(9) 0.3670(3)
C26_7 C 0.87420(13) 0.13619(9) 0.4685(3)
C27_7 C 0.88402(13) 0.18297(9) 0.4587(3)
C28_7 C 0.91497(14) 0.22049(10) 0.5536(3)
H16_7 H 0.9302 0.2178 0.6362
C29_7 C 0.91789(15) 0.25998(10) 0.5021(3)
H17_7 H 0.9357 0.2904 0.5419
C30_7 C 0.88892(13) 0.24779(9) 0.3754(3)
C31_9 C 0.78240(13) 0.05436(9) 0.0465(3)
C32_7 C 0.89249(13) 0.12303(9) 0.5965(3)
C33_5 C 0.87636(15) 0.12379(10) 0.7332(3)
H18_5 H 0.8539 0.1335 0.7457
C34_5 C 0.89239(16) 0.11059(11) 0.8524(3)
H19_5 H 0.8807 0.1110 0.9451
C35_5 C 0.92529(17) 0.09702(12) 0.8349(4)
H20_5 H 0.9363 0.0880 0.9158
C36_5 C 0.94224(17) 0.09661(12) 0.7003(4)
H21_5 H 0.9652 0.0876 0.6888
C37_7 C 0.92595(16) 0.10944(11) 0.5812(3)
H22_7 H 0.9377 0.1090 0.4887
C38_9 C 0.75712(13) 0.00382(9) 0.0031(3)
C39_9 C 0.77336(15) 0.98756(10) 0.8926(3)
C40_9 C 0.74947(16) 0.94072(11) 0.8586(3)
H24_9 H 0.7611 0.9301 0.7831
C12_5 C 0.45712(10) 0.91409(11) 0.9335(3)
H5_5 H 0.4668 0.9462 0.9210
C13_5 C 0.44392(11) 0.88486(12) 0.8143(3)
H6_5 H 0.4443 0.8969 0.7216
C14_5 C 0.43035(12) 0.83839(12) 0.8318(4)
H7_5 H 0.4213 0.8183 0.7509
C15_5 C 0.42994(12) 0.82103(12) 0.9664(4)
H8_5 H 0.4209 0.7890 0.9779
C12_6 C 0.08591(11) 0.54303(15) 0.9335(3)
H5_6 H 0.0538 0.5206 0.9210
C13_6 C 0.11514(12) 0.55906(16) 0.8143(3)
H6_6 H 0.1031 0.5474 0.7216
C14_6 C 0.16161(12) 0.59196(17) 0.8318(4)
H7_6 H 0.1817 0.6030 0.7509
C15_6 C 0.17897(12) 0.60891(17) 0.9664(4)
H8_6 H 0.2110 0.6319 0.9779
C33_6 C 0.91409(11) 0.45697(15) 0.0665(3)
H18_6 H 0.9462 0.4794 0.0790
C34_6 C 0.88486(12) 0.44094(16) 0.1857(3)
H19_6 H 0.8969 0.4526 0.2784
C35_6 C 0.83839(12) 0.40804(17) 0.1682(4)
H20_6 H 0.8183 0.3970 0.2491
C36_6 C 0.82103(12) 0.39109(17) 0.0336(4)
H21_6 H 0.7890 0.3681 0.0221
C33_7 C 0.54303(15) 0.45712(10) 0.0665(3)
H18_7 H 0.5206 0.4668 0.0790
C34_7 C 0.55906(16) 0.44392(11) 0.1857(3)
H19_7 H 0.5474 0.4443 0.2784
C35_7 C 0.59196(17) 0.43035(12) 0.1682(4)
H20_7 H 0.6030 0.4213 0.2491
C36_7 C 0.60891(17) 0.42994(12) 0.0336(4)
H21_7 H 0.6319 0.4209 0.0221
C12_7 C 0.45697(15) 0.54288(10) 0.9335(3)
H5_7 H 0.4794 0.5332 0.9210
C13_7 C 0.44094(16) 0.55608(11) 0.8143(3)
H6_7 H 0.4526 0.5557 0.7216
C14_7 C 0.40804(17) 0.56965(12) 0.8318(4)
H7_7 H 0.3970 0.5787 0.7509
C15_7 C 0.39109(17) 0.57006(12) 0.9664(4)
H8_7 H 0.3681 0.5791 0.9779
H10_8 H 0.0086 0.2078 0.1591
N5_8 N 0.13311(7) 0.33437(7) 0.0191(2)
C24_8 C 0.28089(10) 0.44993(10) 0.0493(3)
H15_8 H 0.2944 0.4709 0.1274
C25_8 C 0.23220(9) 0.41477(9) 0.0336(3)
C26_8 C 0.19715(9) 0.40468(9) 0.1351(3)
C27_8 C 0.15037(9) 0.36772(9) 0.1253(3)
C28_8 C 0.11285(10) 0.36115(10) 0.2202(3)
H16_8 H 0.1156 0.3791 0.3028
C29_8 C 0.07336(10) 0.32458(11) 0.1687(3)
H17_8 H 0.0430 0.3120 0.2085
C30_8 C 0.08555(9) 0.30780(9) 0.0420(3)
C32_8 C 0.21031(9) 0.43613(10) 0.2631(3)
C33_8 C 0.20955(10) 0.41924(11) 0.3998(3)
H18_8 H 0.1999 0.3871 0.4123
C34_8 C 0.22275(11) 0.44847(12) 0.5190(3)
H19_8 H 0.2224 0.4364 0.6117
C35_8 C 0.23632(12) 0.49494(12) 0.5015(4)
H20_8 H 0.2454 0.5150 0.5824
C36_8 C 0.23673(12) 0.51230(12) 0.3669(4)
H21_8 H 0.2458 0.5443 0.3554
C37_8 C 0.22390(11) 0.48318(11) 0.2478(3)
H22_8 H 0.2244 0.4954 0.1553
H1_8 H 0.9974 0.2002 0.7534
C20_8 C 0.92506(11) 0.23008(10) 0.9693(3)
H12_8 H 0.9034 0.2359 0.9204
C21_8 C 0.97159(9) 0.25479(10) 0.9278(3)
H13_8 H 0.9812 0.2770 0.8525
H1_9 H 0.2029 0.0026 0.7534
C20_9 C 0.30503(15) 0.07494(11) 0.9693(3)
H12_9 H 0.3326 0.0966 0.9204
C21_9 C 0.28321(13) 0.02841(9) 0.9278(3)
H13_9 H 0.2959 0.0188 0.8525
H10_9 H 0.1993 0.9914 0.1591
N5_9 N 0.20127(10) 0.86689(7) 0.0191(2)
C24_9 C 0.16905(14) 0.71911(10) 0.0493(3)
H15_9 H 0.1766 0.7056 0.1274
C25_9 C 0.18258(13) 0.76780(9) 0.0336(3)
C26_9 C 0.20754(13) 0.80285(9) 0.1351(3)
C27_9 C 0.21736(13) 0.84963(9) 0.1253(3)
C28_9 C 0.24831(14) 0.88715(10) 0.2202(3)
H16_9 H 0.2636 0.8844 0.3028
C29_9 C 0.25123(15) 0.92664(10) 0.1687(3)
H17_9 H 0.2691 0.9570 0.2085
C30_9 C 0.22226(13) 0.91445(9) 0.0420(3)
C32_9 C 0.22583(13) 0.78969(9) 0.2631(3)
C33_9 C 0.20970(15) 0.79045(10) 0.3998(3)
H18_9 H 0.1873 0.8001 0.4123
C34_9 C 0.22573(16) 0.77725(11) 0.5190(3)
H19_9 H 0.2141 0.7776 0.6117
C35_9 C 0.25863(17) 0.76368(12) 0.5015(4)
H20_9 H 0.2697 0.7546 0.5824
C36_9 C 0.27558(17) 0.76327(12) 0.3669(4)
H21_9 H 0.2986 0.7542 0.3554
C37_9 C 0.25929(16) 0.77610(11) 0.2478(3)
H22_9 H 0.2711 0.7756 0.1553
H14_8 H 0.0026 0.7998 0.2466
C41_8 C 0.07494(11) 0.76992(10) 0.0307(3)
H25_8 H 0.0966 0.7641 0.0796
C42_8 C 0.02841(9) 0.74521(10) 0.0722(3)
H26_8 H 0.0188 0.7230 0.1475
N2_8 N 0.86689(7) 0.66563(7) 0.9809(2)
C3_8 C 0.71911(10) 0.55007(10) 0.9507(3)
H2_8 H 0.7056 0.5291 0.8726
C4_8 C 0.76780(9) 0.58523(9) 0.9664(3)
C5_8 C 0.80285(9) 0.59532(9) 0.8649(3)
C6_8 C 0.84963(9) 0.63228(9) 0.8747(3)
C7_8 C 0.88715(10) 0.63885(10) 0.7798(3)
H3_8 H 0.8844 0.6209 0.6972
C8_8 C 0.92664(10) 0.67542(11) 0.8313(3)
H4_8 H 0.9570 0.6880 0.7915
C9_8 C 0.91445(9) 0.69220(9) 0.9580(3)
C11_8 C 0.78969(9) 0.56387(10) 0.7369(3)
C12_8 C 0.79045(10) 0.58076(11) 0.6002(3)
H5_8 H 0.8001 0.6129 0.5877
C13_8 C 0.77725(11) 0.55153(12) 0.4810(3)
H6_8 H 0.7776 0.5636 0.3883
C14_8 C 0.76368(12) 0.50506(12) 0.4985(4)
H7_8 H 0.7546 0.4850 0.4176
C15_8 C 0.76327(12) 0.48770(12) 0.6331(4)
H8_8 H 0.7542 0.4557 0.6446
C16_8 C 0.77610(11) 0.51682(11) 0.7522(3)
H9_8 H 0.7756 0.5046 0.8447
H23_8 H 0.9914 0.7922 0.8409
N2_9 N 0.79873(10) 0.13311(7) 0.9809(2)
C3_9 C 0.83095(14) 0.28089(10) 0.9507(3)
H2_9 H 0.8234 0.2944 0.8726
C4_9 C 0.81742(13) 0.23220(9) 0.9664(3)
C5_9 C 0.79246(13) 0.19715(9) 0.8649(3)
C6_9 C 0.78264(13) 0.15037(9) 0.8747(3)
C7_9 C 0.75169(14) 0.11285(10) 0.7798(3)
H3_9 H 0.7364 0.1156 0.6972
C8_9 C 0.74877(15) 0.07336(10) 0.8313(3)
H4_9 H 0.7309 0.0430 0.7915
C9_9 C 0.77774(13) 0.08555(9) 0.9580(3)
C11_9 C 0.77417(13) 0.21031(9) 0.7369(3)
C12_9 C 0.79030(15) 0.20955(10) 0.6002(3)
H5_9 H 0.8127 0.1999 0.5877
C13_9 C 0.77427(16) 0.22275(11) 0.4810(3)
H6_9 H 0.7859 0.2224 0.3883
C14_9 C 0.74137(17) 0.23632(12) 0.4985(4)
H7_9 H 0.7303 0.2454 0.4176
C15_9 C 0.72442(17) 0.23673(12) 0.6331(4)
H8_9 H 0.7014 0.2458 0.6446
C16_9 C 0.74071(16) 0.22390(11) 0.7522(3)
H9_9 H 0.7289 0.2244 0.8447
H23_9 H 0.8007 0.0086 0.8409
H14_9 H 0.7971 0.9974 0.2466
C41_9 C 0.69497(15) 0.92506(11) 0.0307(3)
H25_9 H 0.6674 0.9034 0.0796
C42_9 C 0.71679(13) 0.97159(9) 0.0722(3)
H26_9 H 0.7041 0.9812 0.1475
loop_
_geom_bond_atom_site_label_1
_geom_bond_atom_site_label_2
_geom_bond_site_symmetry_1
_geom_bond_site_symmetry_2
H18 C33 1_555 1_555
C34 C33 1_555 1_555
H19 C34 1_555 1_555
C35 C34 1_555 1_555
H20 C35 1_555 1_555
C36 C35 1_555 1_555
H21 C36 1_555 1_555
H4 C8 1_555 1_555
Zn3 N6 1_555 1_555
N4 Zn1 1_555 1_555
N5 Zn1 1_555 1_555
C22 N4 1_555 1_555
C23 C22 1_555 1_555
H14 C23 1_555 1_555
C24 C23 1_555 1_555
H15 C24 1_555 1_555
C25 N4 1_555 1_555
C26 C25 1_555 1_555
C27 N5 1_555 1_555
C28 C27 1_555 1_555
H16 C28 1_555 1_555
C31 C9 1_555 1_555
C32 C26 1_555 1_555
C37 C32 1_555 1_555
H22 C37 1_555 1_555
C38 C31 1_555 1_555
C39 C38 1_555 1_555
H23 C39 1_555 1_555
C40 C39 1_555 1_555
H24 C40 1_555 1_555
N6 C40 1_555 1_555
N8 Zn1 1_555 1_555
C41 N6 1_555 1_555
H25 C41 1_555 1_555
C42 C38 1_555 1_555
H26 C42 1_555 1_555
C8 C9 1_555 1_555
C22 C31 1_555 1_555
C24 C25 1_555 1_555
C26 C27 1_555 1_555
C41 C42 1_555 1_555
Zn1_2 N1 1_555 1_555
N1 C1 1_555 1_555
N2 Zn1_2 1_555 1_555
C1 C2 1_555 1_555
C2 H1 1_555 1_555
C3 C2 1_555 1_555
H2 C3 1_555 1_555
C4 N1 1_555 1_555
C5 C4 1_555 1_555
C6 N2 1_555 1_555
C7 C6 1_555 1_555
H3 C7 1_555 1_555
C10 C1 1_555 1_555
C11 C5 1_555 1_555
C16 C11 1_555 1_555
H9 C16 1_555 1_555
C17 C10 1_555 1_555
C18 C17 1_555 1_555
H10 C18 1_555 1_555
C19 C18 1_555 1_555
H11 C19 1_555 1_555
N3 C19 1_555 1_555
C20 N3 1_555 1_555
H12 C20 1_555 1_555
C21 C17 1_555 1_555
H13 C21 1_555 1_555
Zn2 N3 1_555 1_555
H17 C29 1_555 1_555
C30 C10 1_555 1_555
N7 Zn1_2 1_555 1_555
C3 C4 1_555 1_555
C5 C6 1_555 1_555
C20 C21 1_555 1_555
C29 C30 1_555 1_555
Zn1_3 N1_2 1_555 1_555
N1_2 C1_2 1_555 1_555
N2_2 Zn1_3 1_555 1_555
C1_2 C2_2 1_555 1_555
C2_2 H1_2 1_555 1_555
C3_2 C2_2 1_555 1_555
H2_2 C3_2 1_555 1_555
C4_2 N1_2 1_555 1_555
C5_2 C4_2 1_555 1_555
C6_2 N2_2 1_555 1_555
C7_2 C6_2 1_555 1_555
H3_2 C7_2 1_555 1_555
C10_2 C1_2 1_555 1_555
C11_2 C5_2 1_555 1_555
C16_2 C11_2 1_555 1_555
H9_2 C16_2 1_555 1_555
C17_2 C10_2 1_555 1_555
C18_2 C17_2 1_555 1_555
H10_2 C18_2 1_555 1_555
C19_2 C18_2 1_555 1_555
H11_2 C19_2 1_555 1_555
N3_2 C19_2 1_555 1_555
C20_2 N3_2 1_555 1_555
H12_2 C20_2 1_555 1_555
C21_2 C17_2 1_555 1_555
H13_2 C21_2 1_555 1_555
Zn2_2 N3_2 1_555 1_555
H17_2 C29_2 1_555 1_555
C30_2 C10_2 1_555 1_555
N7_2 Zn1_3 1_555 1_555
C3_2 C4_2 1_555 1_555
C5_2 C6_2 1_555 1_555
C20_2 C21_2 1_555 1_555
C29_2 C30_2 1_555 1_555
H4_2 C8_2 1_555 1_555
Zn3_2 N6_2 1_555 1_555
N4_2 Zn1_4 1_555 1_555
N5_2 Zn1_4 1_555 1_555
C22_2 N4_2 1_555 1_555
C23_2 C22_2 1_555 1_555
H14_2 C23_2 1_555 1_555
C24_2 C23_2 1_555 1_555
H15_2 C24_2 1_555 1_555
C25_2 N4_2 1_555 1_555
C26_2 C25_2 1_555 1_555
C27_2 N5_2 1_555 1_555
C28_2 C27_2 1_555 1_555
H16_2 C28_2 1_555 1_555
C31_2 C9_2 1_555 1_555
C32_2 C26_2 1_555 1_555
C37_2 C32_2 1_555 1_555
H22_2 C37_2 1_555 1_555
C38_2 C31_2 1_555 1_555
C39_2 C38_2 1_555 1_555
H23_2 C39_2 1_555 1_555
C40_2 C39_2 1_555 1_555
H24_2 C40_2 1_555 1_555
N6_2 C40_2 1_555 1_555
N8_2 Zn1_4 1_555 1_555
C41_2 N6_2 1_555 1_555
H25_2 C41_2 1_555 1_555
C42_2 C38_2 1_555 1_555
H26_2 C42_2 1_555 1_555
C8_2 C9_2 1_555 1_555
C22_2 C31_2 1_555 1_555
C24_2 C25_2 1_555 1_555
C26_2 C27_2 1_555 1_555
C41_2 C42_2 1_555 1_555
Zn1_5 N1_3 1_555 1_555
N1_3 C1_3 1_555 1_555
N2_3 Zn1_5 1_555 1_555
C1_3 C2_3 1_555 1_555
C2_3 H1_3 1_555 1_555
C3_3 C2_3 1_555 1_555
H2_3 C3_3 1_555 1_555
C4_3 N1_3 1_555 1_555
C5_3 C4_3 1_555 1_555
C6_3 N2_3 1_555 1_555
C7_3 C6_3 1_555 1_555
H3_3 C7_3 1_555 1_555
C8_3 C7_3 1_555 1_555
H4_3 C8_3 1_555 1_555
C9_3 N2_3 1_555 1_555
C10_3 C1_3 1_555 1_555
C11_3 C5_3 1_555 1_555
C16_3 C11_3 1_555 1_555
H9_3 C16_3 1_555 1_555
C17_3 C10_3 1_555 1_555
C18_3 C17_3 1_555 1_555
H10_3 C18_3 1_555 1_555
C19_3 C18_3 1_555 1_555
H11_3 C19_3 1_555 1_555
N3_3 C19_3 1_555 1_555
C20_3 N3_3 1_555 1_555
H12_3 C20_3 1_555 1_555
C21_3 C17_3 1_555 1_555
H13_3 C21_3 1_555 1_555
Zn2_3 N3_3 1_555 1_555
Zn3_3 N6_3 1_555 1_555
N4_3 Zn1_5 1_555 1_555
N5_3 Zn1_5 1_555 1_555
C22_3 N4_3 1_555 1_555
C23_3 C22_3 1_555 1_555
H14_3 C23_3 1_555 1_555
C24_3 C23_3 1_555 1_555
H15_3 C24_3 1_555 1_555
C25_3 N4_3 1_555 1_555
C26_3 C25_3 1_555 1_555
C27_3 N5_3 1_555 1_555
C28_3 C27_3 1_555 1_555
H16_3 C28_3 1_555 1_555
C29_3 C28_3 1_555 1_555
H17_3 C29_3 1_555 1_555
C30_3 C10_3 1_555 1_555
C31_3 C9_3 1_555 1_555
C32_3 C26_3 1_555 1_555
C37_3 C32_3 1_555 1_555
H22_3 C37_3 1_555 1_555
C38_3 C31_3 1_555 1_555
C39_3 C38_3 1_555 1_555
H23_3 C39_3 1_555 1_555
C40_3 C39_3 1_555 1_555
H24_3 C40_3 1_555 1_555
N6_3 C40_3 1_555 1_555
N7_3 Zn1_5 1_555 1_555
N8_3 Zn1_5 1_555 1_555
C41_3 N6_3 1_555 1_555
H25_3 C41_3 1_555 1_555
C42_3 C38_3 1_555 1_555
H26_3 C42_3 1_555 1_555
C3_3 C4_3 1_555 1_555
C5_3 C6_3 1_555 1_555
C8_3 C9_3 1_555 1_555
C20_3 C21_3 1_555 1_555
N5_3 C30_3 1_555 1_555
C22_3 C31_3 1_555 1_555
C24_3 C25_3 1_555 1_555
C26_3 C27_3 1_555 1_555
C29_3 C30_3 1_555 1_555
C41_3 C42_3 1_555 1_555
Zn2_2 N1_4 1_555 1_555
N1_4 C1_4 1_555 1_555
N2_4 Zn2_2 1_555 1_555
C1_4 C2_4 1_555 1_555
C3_4 C2_4 1_555 1_555
H2_4 C3_4 1_555 1_555
C4_4 N1_4 1_555 1_555
C5_4 C4_4 1_555 1_555
C6_4 N2_4 1_555 1_555
C7_4 C6_4 1_555 1_555
H3_4 C7_4 1_555 1_555
C8_4 C7_4 1_555 1_555
H4_4 C8_4 1_555 1_555
C9_4 N2_4 1_555 1_555
C10_4 C1_4 1_555 1_555
C11_4 C5_4 1_555 1_555
C12 C11_4 1_555 1_555
H5 C12 1_555 1_555
C13 C12 1_555 1_555
H6 C13 1_555 1_555
C14 C13 1_555 1_555
H7 C14 1_555 1_555
C15 C14 1_555 1_555
H8 C15 1_555 1_555
C16_4 C11_4 1_555 1_555
H9_4 C16_4 1_555 1_555
C17_4 C10_4 1_555 1_555
N4_4 Zn2_2 1_555 1_555
C22_4 N4_4 1_555 1_555
C23_4 C22_4 1_555 1_555
H14_4 C23_4 1_555 1_555
C31_4 C9_4 1_555 1_555
C38_4 C31_4 1_555 1_555
C39_4 C38_4 1_555 1_555
H23_4 C39_4 1_555 1_555
C40_4 C39_4 1_555 1_555
H24_4 C40_4 1_555 1_555
N7_3 C40_4 1_555 1_555
N7_4 Zn2_2 1_555 1_555
C41_4 N7_3 1_555 1_555
H25_4 C41_4 1_555 1_555
C42_4 C38_4 1_555 1_555
H26_4 C42_4 1_555 1_555
C3_4 C4_4 1_555 1_555
C5_4 C6_4 1_555 1_555
C8_4 C9_4 1_555 1_555
C15 C16_4 1_555 1_555
C22_4 C31_4 1_555 1_555
C41_4 C42_4 1_555 1_555
C19_4 C18_4 1_555 1_555
H11_4 C19_4 1_555 1_555
N3_4 C19_4 1_555 1_555
Zn3 N3_4 1_555 1_555
H10_4 C18_5 1_555 1_555
C19_5 C18_5 1_555 1_555
H11_5 C19_5 1_555 1_555
N3_5 C19_5 1_555 1_555
Zn3_2 N3_5 1_555 1_555
H15_4 C24_4 1_555 1_555
C26_4 C25_4 1_555 1_555
C27_4 N5_4 1_555 1_555
C28_4 C27_4 1_555 1_555
H16_4 C28_4 1_555 1_555
C29_4 C28_4 1_555 1_555
H17_4 C29_4 1_555 1_555
C32_4 C26_4 1_555 1_555
C33_2 C32_4 1_555 1_555
H18_2 C33_2 1_555 1_555
C34_2 C33_2 1_555 1_555
H19_2 C34_2 1_555 1_555
C35_2 C34_2 1_555 1_555
H20_2 C35_2 1_555 1_555
C36_2 C35_2 1_555 1_555
H21_2 C36_2 1_555 1_555
C37_4 C32_4 1_555 1_555
H22_4 C37_4 1_555 1_555
N5_4 C30_4 1_555 1_555
C24_4 C25_4 1_555 1_555
C26_4 C27_4 1_555 1_555
C29_4 C30_4 1_555 1_555
C36_2 C37_4 1_555 1_555
Zn2_3 N1_5 1_555 1_555
N1_5 C1_5 1_555 1_555
N2_5 Zn2_3 1_555 1_555
C1_5 C2_5 1_555 1_555
C2_5 H1_4 1_555 1_555
C3_5 C2_5 1_555 1_555
H2_5 C3_5 1_555 1_555
C4_5 N1_5 1_555 1_555
C5_5 C4_5 1_555 1_555
C6_5 N2_5 1_555 1_555
C7_5 C6_5 1_555 1_555
H3_5 C7_5 1_555 1_555
C8_5 C7_5 1_555 1_555
H4_5 C8_5 1_555 1_555
C9_5 N2_5 1_555 1_555
C10_5 C1_5 1_555 1_555
C11_5 C5_5 1_555 1_555
C12_2 C11_5 1_555 1_555
H5_2 C12_2 1_555 1_555
C13_2 C12_2 1_555 1_555
H6_2 C13_2 1_555 1_555
C14_2 C13_2 1_555 1_555
H7_2 C14_2 1_555 1_555
C15_2 C14_2 1_555 1_555
H8_2 C15_2 1_555 1_555
C16_5 C11_5 1_555 1_555
H9_5 C16_5 1_555 1_555
C17_5 C10_5 1_555 1_555
H12_4 C20_4 1_555 1_555
C21_4 C17_5 1_555 1_555
H13_4 C21_4 1_555 1_555
N4_5 Zn2_3 1_555 1_555
C22_5 N4_5 1_555 1_555
C23_5 C22_5 1_555 1_555
H14_5 C23_5 1_555 1_555
C31_5 C9_5 1_555 1_555
C38_5 C31_5 1_555 1_555
C39_5 C38_5 1_555 1_555
H23_5 C39_5 1_555 1_555
C40_5 C39_5 1_555 1_555
H24_5 C40_5 1_555 1_555
N7 C40_5 1_555 1_555
N7_5 Zn2_3 1_555 1_555
C41_5 N7 1_555 1_555
H25_5 C41_5 1_555 1_555
C42_5 C38_5 1_555 1_555
H26_5 C42_5 1_555 1_555
C3_5 C4_5 1_555 1_555
C5_5 C6_5 1_555 1_555
C8_5 C9_5 1_555 1_555
C15_2 C16_5 1_555 1_555
C20_4 C21_4 1_555 1_555
C22_5 C31_5 1_555 1_555
C41_5 C42_5 1_555 1_555
C19_6 C18_6 1_555 1_555
H11_6 C19_6 1_555 1_555
N3_6 C19_6 1_555 1_555
Zn3_3 N3_6 1_555 1_555
Zn2 N1_6 1_555 1_555
N1_6 C1_6 1_555 1_555
N2_6 Zn2 1_555 1_555
C1_6 C2_6 1_555 1_555
C3_6 C2_6 1_555 1_555
H2_6 C3_6 1_555 1_555
C4_6 N1_6 1_555 1_555
C5_6 C4_6 1_555 1_555
C6_6 N2_6 1_555 1_555
C7_6 C6_6 1_555 1_555
H3_6 C7_6 1_555 1_555
C8_6 C7_6 1_555 1_555
H4_6 C8_6 1_555 1_555
C9_6 N2_6 1_555 1_555
C10_6 C1_6 1_555 1_555
C11_6 C5_6 1_555 1_555
C12_3 C11_6 1_555 1_555
H5_3 C12_3 1_555 1_555
C13_3 C12_3 1_555 1_555
H6_3 C13_3 1_555 1_555
C14_3 C13_3 1_555 1_555
H7_3 C14_3 1_555 1_555
C15_3 C14_3 1_555 1_555
H8_3 C15_3 1_555 1_555
C16_6 C11_6 1_555 1_555
H9_6 C16_6 1_555 1_555
C17_6 C10_6 1_555 1_555
N4_6 Zn2 1_555 1_555
C22_6 N4_6 1_555 1_555
C23_6 C22_6 1_555 1_555
H14_6 C23_6 1_555 1_555
C31_6 C9_6 1_555 1_555
C38_6 C31_6 1_555 1_555
C39_6 C38_6 1_555 1_555
H23_6 C39_6 1_555 1_555
C40_6 C39_6 1_555 1_555
H24_6 C40_6 1_555 1_555
N7_2 C40_6 1_555 1_555
N7_6 Zn2 1_555 1_555
C41_6 N7_2 1_555 1_555
H25_6 C41_6 1_555 1_555
C42_6 C38_6 1_555 1_555
H26_6 C42_6 1_555 1_555
C3_6 C4_6 1_555 1_555
C5_6 C6_6 1_555 1_555
C8_6 C9_6 1_555 1_555
C15_3 C16_6 1_555 1_555
C22_6 C31_6 1_555 1_555
C41_6 C42_6 1_555 1_555
C40_7 C39_7 1_555 1_555
H24_7 C40_7 1_555 1_555
N7_6 C40_7 1_555 1_555
Zn3_2 N1_7 1_555 1_555
N1_7 C1_7 1_555 1_555
C1_7 C2_7 1_555 1_555
C2_7 H1_5 1_555 1_555
C10_7 C1_7 1_555 1_555
C17_7 C10_7 1_555 1_555
C18_7 C17_7 1_555 1_555
H10_5 C18_7 1_555 1_555
C19_7 C18_7 1_555 1_555
H11_7 C19_7 1_555 1_555
N8_3 C19_7 1_555 1_555
C20_5 N8_3 1_555 1_555
H12_5 C20_5 1_555 1_555
C21_5 C17_7 1_555 1_555
H13_5 C21_5 1_555 1_555
N4_7 Zn3_2 1_555 1_555
N5_5 Zn3_2 1_555 1_555
C22_7 N4_7 1_555 1_555
C23_7 C22_7 1_555 1_555
C24_5 C23_7 1_555 1_555
H15_5 C24_5 1_555 1_555
C25_5 N4_7 1_555 1_555
C26_5 C25_5 1_555 1_555
C27_5 N5_5 1_555 1_555
C28_5 C27_5 1_555 1_555
H16_5 C28_5 1_555 1_555
C29_5 C28_5 1_555 1_555
H17_5 C29_5 1_555 1_555
C30_5 C10_7 1_555 1_555
C32_5 C26_5 1_555 1_555
C33_3 C32_5 1_555 1_555
H18_3 C33_3 1_555 1_555
C34_3 C33_3 1_555 1_555
H19_3 C34_3 1_555 1_555
C35_3 C34_3 1_555 1_555
H20_3 C35_3 1_555 1_555
C36_3 C35_3 1_555 1_555
H21_3 C36_3 1_555 1_555
C37_5 C32_5 1_555 1_555
H22_5 C37_5 1_555 1_555
C38_7 C31_7 1_555 1_555
C20_5 C21_5 1_555 1_555
N5_5 C30_5 1_555 1_555
C22_7 C31_7 1_555 1_555
C24_5 C25_5 1_555 1_555
C26_5 C27_5 1_555 1_555
C29_5 C30_5 1_555 1_555
C36_3 C37_5 1_555 1_555
Zn3_3 N1_8 1_555 1_555
N1_8 C1_8 1_555 1_555
C1_8 C2_8 1_555 1_555
C2_8 H1_6 1_555 1_555
C10_8 C1_8 1_555 1_555
C17_8 C10_8 1_555 1_555
C18_8 C17_8 1_555 1_555
H10_6 C18_8 1_555 1_555
C19_8 C18_8 1_555 1_555
H11_8 C19_8 1_555 1_555
N8 C19_8 1_555 1_555
C20_6 N8 1_555 1_555
H12_6 C20_6 1_555 1_555
C21_6 C17_8 1_555 1_555
H13_6 C21_6 1_555 1_555
N4_8 Zn3_3 1_555 1_555
N5_6 Zn3_3 1_555 1_555
C22_8 N4_8 1_555 1_555
C23_8 C22_8 1_555 1_555
H14_7 C23_8 1_555 1_555
C24_6 C23_8 1_555 1_555
H15_6 C24_6 1_555 1_555
C25_6 N4_8 1_555 1_555
C26_6 C25_6 1_555 1_555
C27_6 N5_6 1_555 1_555
C28_6 C27_6 1_555 1_555
H16_6 C28_6 1_555 1_555
C29_6 C28_6 1_555 1_555
H17_6 C29_6 1_555 1_555
C30_6 C10_8 1_555 1_555
C32_6 C26_6 1_555 1_555
C33_4 C32_6 1_555 1_555
H18_4 C33_4 1_555 1_555
C34_4 C33_4 1_555 1_555
H19_4 C34_4 1_555 1_555
C35_4 C34_4 1_555 1_555
H20_4 C35_4 1_555 1_555
C36_4 C35_4 1_555 1_555
H21_4 C36_4 1_555 1_555
C37_6 C32_6 1_555 1_555
H22_6 C37_6 1_555 1_555
C38_8 C31_8 1_555 1_555
H25_7 C41_7 1_555 1_555
C42_7 C38_8 1_555 1_555
H26_7 C42_7 1_555 1_555
C20_6 C21_6 1_555 1_555
N5_6 C30_6 1_555 1_555
C22_8 C31_8 1_555 1_555
C24_6 C25_6 1_555 1_555
C26_6 C27_6 1_555 1_555
C29_6 C30_6 1_555 1_555
C36_4 C37_6 1_555 1_555
C41_7 C42_7 1_555 1_555
H2_7 C3_7 1_555 1_555
C5_7 C4_7 1_555 1_555
C6_7 N2_7 1_555 1_555
C7_7 C6_7 1_555 1_555
H3_7 C7_7 1_555 1_555
C8_7 C7_7 1_555 1_555
H4_7 C8_7 1_555 1_555
C9_7 N2_7 1_555 1_555
C11_7 C5_7 1_555 1_555
C12_4 C11_7 1_555 1_555
H5_4 C12_4 1_555 1_555
C13_4 C12_4 1_555 1_555
H6_4 C13_4 1_555 1_555
C14_4 C13_4 1_555 1_555
H7_4 C14_4 1_555 1_555
C15_4 C14_4 1_555 1_555
H8_4 C15_4 1_555 1_555
C16_7 C11_7 1_555 1_555
H9_7 C16_7 1_555 1_555
H23_7 C39_8 1_555 1_555
C40_8 C39_8 1_555 1_555
H24_8 C40_8 1_555 1_555
N7_4 C40_8 1_555 1_555
C3_7 C4_7 1_555 1_555
C5_7 C6_7 1_555 1_555
C8_7 C9_7 1_555 1_555
C15_4 C16_7 1_555 1_555
Zn3 N1_9 1_555 1_555
N1_9 C1_9 1_555 1_555
C1_9 C2_9 1_555 1_555
C2_9 H1_7 1_555 1_555
C10_9 C1_9 1_555 1_555
C17_9 C10_9 1_555 1_555
C18_9 C17_9 1_555 1_555
H10_7 C18_9 1_555 1_555
C19_9 C18_9 1_555 1_555
H11_9 C19_9 1_555 1_555
N8_2 C19_9 1_555 1_555
C20_7 N8_2 1_555 1_555
H12_7 C20_7 1_555 1_555
C21_7 C17_9 1_555 1_555
H13_7 C21_7 1_555 1_555
N4_9 Zn3 1_555 1_555
N5_7 Zn3 1_555 1_555
C22_9 N4_9 1_555 1_555
C23_9 C22_9 1_555 1_555
C24_7 C23_9 1_555 1_555
H15_7 C24_7 1_555 1_555
C25_7 N4_9 1_555 1_555
C26_7 C25_7 1_555 1_555
C27_7 N5_7 1_555 1_555
C28_7 C27_7 1_555 1_555
H16_7 C28_7 1_555 1_555
C29_7 C28_7 1_555 1_555
H17_7 C29_7 1_555 1_555
C30_7 C10_9 1_555 1_555
C32_7 C26_7 1_555 1_555
C33_5 C32_7 1_555 1_555
H18_5 C33_5 1_555 1_555
C34_5 C33_5 1_555 1_555
H19_5 C34_5 1_555 1_555
C35_5 C34_5 1_555 1_555
H20_5 C35_5 1_555 1_555
C36_5 C35_5 1_555 1_555
H21_5 C36_5 1_555 1_555
C37_7 C32_7 1_555 1_555
H22_7 C37_7 1_555 1_555
C38_9 C31_9 1_555 1_555
C20_7 C21_7 1_555 1_555
N5_7 C30_7 1_555 1_555
C22_9 C31_9 1_555 1_555
C24_7 C25_7 1_555 1_555
C26_7 C27_7 1_555 1_555
C29_7 C30_7 1_555 1_555
C36_5 C37_7 1_555 1_555
C40_9 C39_9 1_555 1_555
H24_9 C40_9 1_555 1_555
N7_5 C40_9 1_555 1_555
H5_5 C12_5 1_555 1_555
C13_5 C12_5 1_555 1_555
H6_5 C13_5 1_555 1_555
C14_5 C13_5 1_555 1_555
H7_5 C14_5 1_555 1_555
C15_5 C14_5 1_555 1_555
H8_5 C15_5 1_555 1_555
H5_6 C12_6 1_555 1_555
C13_6 C12_6 1_555 1_555
H6_6 C13_6 1_555 1_555
C14_6 C13_6 1_555 1_555
H7_6 C14_6 1_555 1_555
C15_6 C14_6 1_555 1_555
H8_6 C15_6 1_555 1_555
H18_6 C33_6 1_555 1_555
C34_6 C33_6 1_555 1_555
H19_6 C34_6 1_555 1_555
C35_6 C34_6 1_555 1_555
H20_6 C35_6 1_555 1_555
C36_6 C35_6 1_555 1_555
H21_6 C36_6 1_555 1_555
H18_7 C33_7 1_555 1_555
C34_7 C33_7 1_555 1_555
H19_7 C34_7 1_555 1_555
C35_7 C34_7 1_555 1_555
H20_7 C35_7 1_555 1_555
C36_7 C35_7 1_555 1_555
H21_7 C36_7 1_555 1_555
H5_7 C12_7 1_555 1_555
C13_7 C12_7 1_555 1_555
H6_7 C13_7 1_555 1_555
C14_7 C13_7 1_555 1_555
H7_7 C14_7 1_555 1_555
C15_7 C14_7 1_555 1_555
H8_7 C15_7 1_555 1_555
H15_8 C24_8 1_555 1_555
C26_8 C25_8 1_555 1_555
C27_8 N5_8 1_555 1_555
C28_8 C27_8 1_555 1_555
H16_8 C28_8 1_555 1_555
C29_8 C28_8 1_555 1_555
H17_8 C29_8 1_555 1_555
C32_8 C26_8 1_555 1_555
C33_8 C32_8 1_555 1_555
H18_8 C33_8 1_555 1_555
C34_8 C33_8 1_555 1_555
H19_8 C34_8 1_555 1_555
C35_8 C34_8 1_555 1_555
H20_8 C35_8 1_555 1_555
C36_8 C35_8 1_555 1_555
H21_8 C36_8 1_555 1_555
C37_8 C32_8 1_555 1_555
H22_8 C37_8 1_555 1_555
N5_8 C30_8 1_555 1_555
C24_8 C25_8 1_555 1_555
C26_8 C27_8 1_555 1_555
C29_8 C30_8 1_555 1_555
C36_8 C37_8 1_555 1_555
H12_8 C20_8 1_555 1_555
H13_8 C21_8 1_555 1_555
C20_8 C21_8 1_555 1_555
H12_9 C20_9 1_555 1_555
H13_9 C21_9 1_555 1_555
C20_9 C21_9 1_555 1_555
H15_9 C24_9 1_555 1_555
C26_9 C25_9 1_555 1_555
C27_9 N5_9 1_555 1_555
C28_9 C27_9 1_555 1_555
H16_9 C28_9 1_555 1_555
C29_9 C28_9 1_555 1_555
H17_9 C29_9 1_555 1_555
C32_9 C26_9 1_555 1_555
C33_9 C32_9 1_555 1_555
H18_9 C33_9 1_555 1_555
C34_9 C33_9 1_555 1_555
H19_9 C34_9 1_555 1_555
C35_9 C34_9 1_555 1_555
H20_9 C35_9 1_555 1_555
C36_9 C35_9 1_555 1_555
H21_9 C36_9 1_555 1_555
C37_9 C32_9 1_555 1_555
H22_9 C37_9 1_555 1_555
N5_9 C30_9 1_555 1_555
C24_9 C25_9 1_555 1_555
C26_9 C27_9 1_555 1_555
C29_9 C30_9 1_555 1_555
C36_9 C37_9 1_555 1_555
H25_8 C41_8 1_555 1_555
H26_8 C42_8 1_555 1_555
C41_8 C42_8 1_555 1_555
H2_8 C3_8 1_555 1_555
C5_8 C4_8 1_555 1_555
C6_8 N2_8 1_555 1_555
C7_8 C6_8 1_555 1_555
H3_8 C7_8 1_555 1_555
C8_8 C7_8 1_555 1_555
H4_8 C8_8 1_555 1_555
C9_8 N2_8 1_555 1_555
C11_8 C5_8 1_555 1_555
C12_8 C11_8 1_555 1_555
H5_8 C12_8 1_555 1_555
C13_8 C12_8 1_555 1_555
H6_8 C13_8 1_555 1_555
C14_8 C13_8 1_555 1_555
H7_8 C14_8 1_555 1_555
C15_8 C14_8 1_555 1_555
H8_8 C15_8 1_555 1_555
C16_8 C11_8 1_555 1_555
H9_8 C16_8 1_555 1_555
C3_8 C4_8 1_555 1_555
C5_8 C6_8 1_555 1_555
C8_8 C9_8 1_555 1_555
C15_8 C16_8 1_555 1_555
H2_9 C3_9 1_555 1_555
C5_9 C4_9 1_555 1_555
C6_9 N2_9 1_555 1_555
C7_9 C6_9 1_555 1_555
H3_9 C7_9 1_555 1_555
C8_9 C7_9 1_555 1_555
H4_9 C8_9 1_555 1_555
C9_9 N2_9 1_555 1_555
C11_9 C5_9 1_555 1_555
C12_9 C11_9 1_555 1_555
H5_9 C12_9 1_555 1_555
C13_9 C12_9 1_555 1_555
H6_9 C13_9 1_555 1_555
C14_9 C13_9 1_555 1_555
H7_9 C14_9 1_555 1_555
C15_9 C14_9 1_555 1_555
H8_9 C15_9 1_555 1_555
C16_9 C11_9 1_555 1_555
H9_9 C16_9 1_555 1_555
C3_9 C4_9 1_555 1_555
C5_9 C6_9 1_555 1_555
C8_9 C9_9 1_555 1_555
C15_9 C16_9 1_555 1_555
H25_9 C41_9 1_555 1_555
H26_9 C42_9 1_555 1_555
C41_9 C42_9 1_555 1_555

#END
