
###############################################################################
#
# This file contains modified crystal structure data generated from the
# MOF subset of the Cambridge Structural Database (CSD) v543 
# hosted by the Cambridge Crystallographic Data Centre (CCDC).
#
# This work is licensed under the Creative Commons
# Attribution-NonCommercial-ShareAlike 4.0 International License.
# To view a copy of this license, visit
# http://creativecommons.org/licenses/by-nc-sa/4.0/
# or send a letter to
# Creative Commons, PO Box 1866, Mountain View, CA 94042, USA.
#
# CIF created using the CSD Python API on 29 September 2022
# The structure has been converted into the P1 space group
# The structure has a 3D framework
# The original CSD entry CATZIJ01 is in the rhombohedral crystal system
# The framework has been calculated to contain at least 10.0% void space
# The void calculation uses a probe of radius 1.32A, grid spacing 0.4
# H atom positions have been added when not included in the experimental data
# Generated hydrogen atom positions removed from atoms on special positions
#
###############################################################################

data_CATZIJ01
_chemical_formula_moiety         '(C756 H612 Fe58 O278)n'
_symmetry_cell_setting           triclinic
_symmetry_space_group_name_H-M   'P 1'
_symmetry_Int_Tables_number      1
_space_group_name_Hall           'P 1'
loop_
_symmetry_equiv_pos_site_id
_symmetry_equiv_pos_as_xyz
1 x,y,z
_cell_length_a                   27.4500(4)
_cell_length_b                   27.4500(4)
_cell_length_c                   73.194(2)
_cell_angle_alpha                90
_cell_angle_beta                 90
_cell_angle_gamma                120
_cell_volume                     47762.9
loop_
_atom_site_label
_atom_site_type_symbol
_atom_site_fract_x
_atom_site_fract_y
_atom_site_fract_z
Fe1 Fe -0.0000 0.32317(2) 0.2500
Fe2 Fe 0.055766(16) 0.454380(16) 0.236424(5)
C9 C 0.00468(13) 0.62810(13) 0.13992(4)
C11 C 0.04273(14) 0.62998(14) 0.15309(4)
H6 H 0.0810 0.6477 0.1505
C12 C 0.02272(14) 0.60528(14) 0.16984(4)
H7 H 0.0480 0.6062 0.1785
C15 C 0.02451(12) 0.65467(12) 0.12151(4)
O1 O -0.0000 0.39256(11) 0.2500
O2 O -0.0000 0.24786(11) 0.2500
O3 O 0.11557(9) 0.52277(9) 0.22212(3)
O9 O 0.07725(8) 0.68345(8) 0.11855(2)
Fe11 Fe 0.121047(16) 0.731947(23) 0.096909(5)
O19 O 0.06286(8) 0.51300(11) 0.25500(2)
O20 O 0.08337(13) 0.35981(9) 0.25292(3)
O21 O 0.11980(11) 0.45266(8) 0.24843(2)
O23 O 0.00642(13) 0.32071(9) 0.22298(3)
O26 O 0.06047(11) 0.41058(8) 0.21478(2)
H24 H 0.0391552 0.255379 0.251371
Fe1_2 Fe 1.0000 0.32317(2) 0.2500
C1 C 0.80392(15) 0.62063(14) 0.23050(5)
H1 H 0.8091 0.6567 0.2295
C2 C 0.94834(14) 0.60056(15) 0.14369(4)
H2 H 0.9228 0.5978 0.1348
C3 C 0.84297(16) 0.60849(16) 0.22335(5)
H3 H 0.8740 0.6365 0.2172
C4 C 0.87937(14) 0.54372(13) 0.21712(4)
C5 C 0.94488(14) 0.55638(15) 0.19243(4)
C6 C 0.78984(14) 0.51392(15) 0.23394(4)
H4 H 0.7850 0.4781 0.2352
C7 C 0.96659(14) 0.57931(15) 0.17421(4)
C8 C 0.92951(16) 0.57714(16) 0.16058(5)
H5 H 0.8912 0.5593 0.1631
C10 C 0.83725(14) 0.55536(14) 0.22513(4)
C13 C 0.90329(15) 0.56598(15) 0.20022(4)
H8 H 0.8916 0.5877 0.1939
C14 C 0.96288(13) 0.52492(13) 0.20220(4)
H9 H 0.9906 0.5186 0.1974
C16 C 0.75007(14) 0.52502(14) 0.24081(4)
H10 H 0.7184 0.4966 0.2466
C17 C 0.89707(13) 0.51078(13) 0.22641(4)
H11 H 0.8807 0.4941 0.2375
C18 C 0.75666(13) 0.57830(13) 0.23919(4)
C19 C 0.93964(12) 0.50319(12) 0.21889(4)
C20 C 0.71314(12) 0.58976(13) 0.24659(4)
C21 C 0.95942(11) 0.47016(11) 0.22970(3)
O1_2 O 1.0000 0.39256(11) 0.2500
O2_2 O 1.0000 0.24786(11) 0.2500
O4 O 0.93714(8) 0.45014(8) 0.24500(2)
O5 O 0.99945(8) 0.46524(8) 0.22268(2)
O6 O 0.72356(9) 0.64019(9) 0.24708(3)
O7 O 0.66714(8) 0.54734(8) 0.25157(2)
O8 O 0.98738(9) 0.64763(10) 0.11035(3)
C22 C 0.81671(21) 0.19608(15) 0.23050(5)
H12 H 0.8476 0.1909 0.2295
C23 C 0.65222(21) 0.05166(14) 0.14369(4)
H13 H 0.6750 0.0772 0.1348
C24 C 0.76552(23) 0.15703(16) 0.22335(5)
H14 H 0.7625 0.1260 0.2172
C25 C 0.66435(19) 0.12063(14) 0.21712(4)
C26 C 0.61150(21) 0.05512(14) 0.19243(4)
C27 C 0.72408(21) 0.21016(14) 0.23394(4)
H15 H 0.6931 0.2150 0.2352
C28 C 0.61272(21) 0.03341(14) 0.17421(4)
C29 C 0.64763(23) 0.07049(16) 0.16058(5)
H16 H 0.6681 0.1088 0.1631
C31 C 0.71811(20) 0.16275(14) 0.22513(4)
C34 C 0.66269(21) 0.09671(15) 0.20022(4)
H19 H 0.6961 0.1084 0.1939
C35 C 0.56204(18) 0.03712(13) 0.20220(4)
H20 H 0.5280 0.0094 0.1974
C37 C 0.77495(20) 0.24993(14) 0.24081(4)
H21 H 0.7782 0.2816 0.2466
C38 C 0.61371(18) 0.10293(13) 0.22641(4)
H22 H 0.6134 0.1193 0.2375
C39 C 0.82164(18) 0.24334(13) 0.23919(4)
C40 C 0.56355(17) 0.06036(12) 0.21889(4)
C41 C 0.87662(18) 0.28686(12) 0.24659(4)
C42 C 0.51074(16) 0.04058(11) 0.22970(3)
O11 O 0.51300(11) 0.06286(8) 0.24500(2)
O12 O 0.46579(11) 0.00055(8) 0.22268(2)
O13 O 0.91663(13) 0.27644(9) 0.24708(3)
O14 O 0.88020(11) 0.33286(8) 0.25157(2)
O15 O 0.66025(13) 0.01262(9) 0.11035(3)
Fe4 Fe 0.67683(2) 0.67683(2) 0.2500
Fe5 Fe 0.6667 0.01016(2) 0.0833
Fe6 Fe 0.98984(2) 0.65650(2) 0.0833
Fe7 Fe 0.454380(16) 0.055766(16) 0.263576(5)
Fe8 Fe 0.601386(23) 0.545620(16) 0.263576(5)
Fe9 Fe 0.944234(16) 0.398614(23) 0.263576(5)
O17 O 0.39256(11) -0.0000 0.2500
O24 O 0.99358(13) 0.31430(10) 0.27702(3)
H23 H 0.984079 0.227841 0.238301
Fe3 Fe 0.398614(23) 0.944234(16) 0.236424(5)
C30 C 0.62342(18) 0.99532(13) 0.13992(4)
C32 C 0.58725(20) 0.95727(14) 0.15309(4)
H17 H 0.5667 0.9190 0.1505
C33 C 0.58256(20) 0.97728(14) 0.16984(4)
H18 H 0.5582 0.9520 0.1785
C36 C 0.63016(17) 0.97549(12) 0.12151(4)
O10 O 0.40720(13) 0.88443(9) 0.22212(3)
O16 O 0.60620(11) 0.92275(8) 0.11855(2)
Fe10 Fe 0.610901(16) 0.878953(16) 0.096909(5)
O17_2 O 0.39256(11) 1.0000 0.2500
O18 O 0.45014(8) 0.93714(8) 0.25500(2)
O22 O 0.33286(8) 0.88020(11) 0.24843(2)
O25 O 0.35012(8) 0.93953(11) 0.21478(2)
Fe2_2 Fe 0.545620(16) 0.601386(23) 0.236424(5)
C1_2 C 0.37937(14) 0.18329(21) 0.23050(5)
H1_2 H 0.3433 0.1524 0.2295
C2_2 C 0.39944(15) 0.34778(21) 0.14369(4)
H2_2 H 0.4022 0.3250 0.1348
C3_2 C 0.39151(16) 0.23448(23) 0.22335(5)
H3_2 H 0.3635 0.2375 0.2172
C4_2 C 0.45628(13) 0.33565(19) 0.21712(4)
C5_2 C 0.44362(15) 0.38850(21) 0.19243(4)
C6_2 C 0.48608(15) 0.27592(21) 0.23394(4)
H4_2 H 0.5219 0.3069 0.2352
C7_2 C 0.42069(15) 0.38728(21) 0.17421(4)
C8_2 C 0.42286(16) 0.35237(23) 0.16058(5)
H5_2 H 0.4407 0.3319 0.1631
C9_2 C 0.37190(13) 0.37658(18) 0.13992(4)
C10_2 C 0.44464(14) 0.28189(20) 0.22513(4)
C11_2 C 0.37002(14) 0.41275(20) 0.15309(4)
H6_2 H 0.3523 0.4333 0.1505
C12_2 C 0.39472(14) 0.41744(20) 0.16984(4)
H7_2 H 0.3938 0.4418 0.1785
C13_2 C 0.43402(15) 0.33731(21) 0.20022(4)
H8_2 H 0.4123 0.3039 0.1939
C14_2 C 0.47508(13) 0.43796(18) 0.20220(4)
H9_2 H 0.4814 0.4720 0.1974
C15_2 C 0.34533(12) 0.36984(17) 0.12151(4)
C16_2 C 0.47498(14) 0.22505(20) 0.24081(4)
H10_2 H 0.5034 0.2218 0.2466
C17_2 C 0.48922(13) 0.38629(18) 0.22641(4)
H11_2 H 0.5059 0.3866 0.2375
C18_2 C 0.42170(13) 0.17836(18) 0.23919(4)
C19_2 C 0.49681(12) 0.43645(17) 0.21889(4)
C20_2 C 0.41024(13) 0.12338(18) 0.24659(4)
C21_2 C 0.52984(11) 0.48926(16) 0.22970(3)
O1_3 O 0.60744(11) 0.60744(11) 0.2500
O2_3 O 0.75214(11) 0.75214(11) 0.2500
O3_2 O 0.47723(9) 0.59280(13) 0.22212(3)
O4_2 O 0.54986(8) 0.48700(11) 0.24500(2)
O5_2 O 0.53476(8) 0.53421(11) 0.22268(2)
O6_2 O 0.35981(9) 0.08337(13) 0.24708(3)
O7_2 O 0.45266(8) 0.11980(11) 0.25157(2)
O8_2 O 0.35237(10) 0.33975(13) 0.11035(3)
O9_2 O 0.31655(8) 0.39380(11) 0.11855(2)
Fe4_2 Fe 0.32317(2) 0.00000(3) 0.2500
Fe6_2 Fe 0.34350(2) 0.33333(3) 0.0833
Fe11_2 Fe 0.268053(23) 0.389099(28) 0.096909(5)
O19_2 O 0.48700(11) 0.54986(14) 0.25500(2)
O20_2 O 0.64019(9) 0.72356(16) 0.25292(3)
O21_2 O 0.54734(8) 0.66714(14) 0.24843(2)
O23_2 O 0.67929(9) 0.68570(16) 0.22298(3)
O24_2 O 0.68570(10) 0.67929(16) 0.27702(3)
O26_2 O 0.58942(8) 0.64988(14) 0.21478(2)
Fe4_3 Fe 0.32317(2) 1.00000(3) 0.2500
O2_4 O 0.24786(11) 0.0000 0.2500
O24_3 O 0.32071(16) 0.00642(13) 0.27702(3)
H23_2 H 0.243762 0.0159208 0.238301
O2_5 O 0.24786(11) 1.0000 0.2500
O20_3 O 0.27644(16) 0.91663(13) 0.25292(3)
O23_3 O 0.31430(16) 0.99358(13) 0.22298(3)
H24_2 H 0.216224 0.960845 0.251371
C9_3 C 0.62810(13) 0.00468(13) 0.36008(4)
C11_3 C 0.62998(14) 0.04273(14) 0.34691(4)
H6_3 H 0.6477 0.0810 0.3495
C12_3 C 0.60528(14) 0.02272(14) 0.33016(4)
H7_3 H 0.6062 0.0480 0.3215
C15_3 C 0.65467(12) 0.02451(12) 0.37849(4)
O3_3 O 0.52277(9) 0.11557(9) 0.27788(3)
O9_3 O 0.68345(8) 0.07725(8) 0.38145(2)
Fe11_3 Fe 0.731947(23) 0.121047(16) 0.403091(5)
O26_3 O 0.41058(8) 0.06047(11) 0.28522(2)
H24_3 H 0.255379 0.0391552 0.248629
C1_3 C 0.62063(14) 0.80392(15) 0.26950(5)
H1_3 H 0.6567 0.8091 0.2705
C2_3 C 0.60056(15) 0.94834(14) 0.35631(4)
H2_3 H 0.5978 0.9228 0.3652
C3_3 C 0.60849(16) 0.84297(16) 0.27665(5)
H3_3 H 0.6365 0.8740 0.2828
C4_3 C 0.54372(13) 0.87937(14) 0.28288(4)
C5_3 C 0.55638(15) 0.94488(14) 0.30757(4)
C6_3 C 0.51392(15) 0.78984(14) 0.26606(4)
H4_3 H 0.4781 0.7850 0.2648
C7_3 C 0.57931(15) 0.96659(14) 0.32579(4)
C8_3 C 0.57714(16) 0.92951(16) 0.33942(5)
H5_3 H 0.5593 0.8912 0.3369
C10_3 C 0.55536(14) 0.83725(14) 0.27487(4)
C13_3 C 0.56598(15) 0.90329(15) 0.29978(4)
H8_3 H 0.5877 0.8916 0.3061
C14_3 C 0.52492(13) 0.96288(13) 0.29780(4)
H9_3 H 0.5186 0.9906 0.3026
C16_3 C 0.52502(14) 0.75007(14) 0.25919(4)
H10_3 H 0.4966 0.7184 0.2534
C17_3 C 0.51078(13) 0.89707(13) 0.27359(4)
H11_3 H 0.4941 0.8807 0.2625
C18_3 C 0.57830(13) 0.75666(13) 0.26081(4)
C19_3 C 0.50319(12) 0.93964(12) 0.28111(4)
C20_3 C 0.58976(13) 0.71314(12) 0.25341(4)
C21_3 C 0.47016(11) 0.95942(11) 0.27030(3)
O5_3 O 0.46524(8) 0.99945(8) 0.27732(2)
O8_3 O 0.64763(10) 0.98738(9) 0.38965(3)
C22_2 C 0.19608(15) 0.81671(21) 0.26950(5)
H12_2 H 0.1909 0.8476 0.2705
C23_2 C 0.05166(14) 0.65222(21) 0.35631(4)
H13_2 H 0.0772 0.6750 0.3652
C24_2 C 0.15703(16) 0.76552(23) 0.27665(5)
H14_2 H 0.1260 0.7625 0.2828
C25_2 C 0.12063(14) 0.66435(19) 0.28288(4)
C26_2 C 0.05512(14) 0.61150(21) 0.30757(4)
C27_2 C 0.21016(14) 0.72408(21) 0.26606(4)
H15_2 H 0.2150 0.6931 0.2648
C28_2 C 0.03341(14) 0.61272(21) 0.32579(4)
C29_2 C 0.07049(16) 0.64763(23) 0.33942(5)
H16_2 H 0.1088 0.6681 0.3369
C31_2 C 0.16275(14) 0.71811(20) 0.27487(4)
C34_2 C 0.09671(15) 0.66269(21) 0.29978(4)
H19_2 H 0.1084 0.6961 0.3061
C35_2 C 0.03712(13) 0.56204(18) 0.29780(4)
H20_2 H 0.0094 0.5280 0.3026
C37_2 C 0.24993(14) 0.77495(20) 0.25919(4)
H21_2 H 0.2816 0.7782 0.2534
C38_2 C 0.10293(13) 0.61371(18) 0.27359(4)
H22_2 H 0.1193 0.6134 0.2625
C39_2 C 0.24334(13) 0.82164(18) 0.26081(4)
C40_2 C 0.06036(12) 0.56355(17) 0.28111(4)
C41_2 C 0.28686(12) 0.87662(18) 0.25341(4)
C42_2 C 0.04058(11) 0.51074(16) 0.27030(3)
O12_2 O 0.00055(8) 0.46579(11) 0.27732(2)
O15_2 O 0.01262(9) 0.66025(13) 0.38965(3)
Fe5_2 Fe 0.01016(2) 0.6667 0.4167
Fe6_3 Fe 0.65650(2) 0.98984(2) 0.4167
H23_3 H 0.227841 0.984079 0.261699
C30_2 C 0.99532(13) 0.62342(18) 0.36008(4)
C32_2 C 0.95727(14) 0.58725(20) 0.34691(4)
H17_2 H 0.9190 0.5667 0.3495
C33_2 C 0.97728(14) 0.58256(20) 0.33016(4)
H18_2 H 0.9520 0.5582 0.3215
C36_2 C 0.97549(12) 0.63016(17) 0.37849(4)
O10_2 O 0.88443(9) 0.40720(13) 0.27788(3)
O16_2 O 0.92275(8) 0.60620(11) 0.38145(2)
Fe10_2 Fe 0.878953(16) 0.610901(16) 0.403091(5)
O25_2 O 0.93953(11) 0.35012(8) 0.28522(2)
C1_4 C 0.18329(21) 0.37937(14) 0.26950(5)
H1_4 H 0.1524 0.3433 0.2705
C2_4 C 0.34778(21) 0.39944(15) 0.35631(4)
H2_4 H 0.3250 0.4022 0.3652
C3_4 C 0.23448(23) 0.39151(16) 0.27665(5)
H3_4 H 0.2375 0.3635 0.2828
C4_4 C 0.33565(19) 0.45628(13) 0.28288(4)
C5_4 C 0.38850(21) 0.44362(15) 0.30757(4)
C6_4 C 0.27592(21) 0.48608(15) 0.26606(4)
H4_4 H 0.3069 0.5219 0.2648
C7_4 C 0.38728(21) 0.42069(15) 0.32579(4)
C8_4 C 0.35237(23) 0.42286(16) 0.33942(5)
H5_4 H 0.3319 0.4407 0.3369
C9_4 C 0.37658(18) 0.37190(13) 0.36008(4)
C10_4 C 0.28189(20) 0.44464(14) 0.27487(4)
C11_4 C 0.41275(20) 0.37002(14) 0.34691(4)
H6_4 H 0.4333 0.3523 0.3495
C12_4 C 0.41744(20) 0.39472(14) 0.33016(4)
H7_4 H 0.4418 0.3938 0.3215
C13_4 C 0.33731(21) 0.43402(15) 0.29978(4)
H8_4 H 0.3039 0.4123 0.3061
C14_4 C 0.43796(18) 0.47508(13) 0.29780(4)
H9_4 H 0.4720 0.4814 0.3026
C15_4 C 0.36984(17) 0.34533(12) 0.37849(4)
C16_4 C 0.22505(20) 0.47498(14) 0.25919(4)
H10_4 H 0.2218 0.5034 0.2534
C17_4 C 0.38629(18) 0.48922(13) 0.27359(4)
H11_4 H 0.3866 0.5059 0.2625
C18_4 C 0.17836(18) 0.42170(13) 0.26081(4)
C19_4 C 0.43645(17) 0.49681(12) 0.28111(4)
C20_4 C 0.12338(18) 0.41024(13) 0.25341(4)
C21_4 C 0.48926(16) 0.52984(11) 0.27030(3)
O3_4 O 0.59280(13) 0.47723(9) 0.27788(3)
O5_4 O 0.53421(11) 0.53476(8) 0.27732(2)
O8_4 O 0.33975(13) 0.35237(10) 0.38965(3)
O9_4 O 0.39380(11) 0.31655(8) 0.38145(2)
Fe6_4 Fe 0.33333(3) 0.34350(2) 0.4167
Fe11_4 Fe 0.389099(28) 0.268053(23) 0.403091(5)
O26_4 O 0.64988(14) 0.58942(8) 0.28522(2)
H23_4 H 0.0159208 0.243762 0.261699
H24_4 H 0.960845 0.216224 0.248629
O9_5 O 0.74392(8) 0.01678(8) 0.45188(2)
Fe4_4 Fe 0.34350(2) 0.01016(2) 0.5833
Fe11_5 Fe 0.787713(16) 0.065281(23) 0.430243(5)
Fe1_3 Fe 0.6667 0.65650(2) 0.5833
Fe2_3 Fe 0.722433(16) 0.787713(16) 0.569757(5)
C1_5 C 0.47059(15) 0.95396(14) 0.56383(5)
H1_5 H 0.4758 0.9900 0.5628
C2_5 C 0.61501(14) 0.93389(15) 0.47702(4)
H2_5 H 0.5895 0.9311 0.4681
C3_5 C 0.50964(16) 0.94182(16) 0.55668(5)
H3_5 H 0.5407 0.9698 0.5505
C4_5 C 0.54604(14) 0.87705(13) 0.55045(4)
C5_5 C 0.61155(14) 0.88971(15) 0.52576(4)
C6_5 C 0.45651(14) 0.84725(15) 0.56727(4)
H4_5 H 0.4517 0.8114 0.5685
C7_5 C 0.63326(14) 0.91264(15) 0.50754(4)
C8_5 C 0.59618(16) 0.91047(16) 0.49391(5)
H5_5 H 0.5579 0.8926 0.4964
C9_5 C 0.67135(13) 0.96143(13) 0.47325(4)
C10_5 C 0.50392(14) 0.88869(14) 0.55846(4)
C11_5 C 0.70940(14) 0.96331(14) 0.48642(4)
H6_5 H 0.7477 0.9810 0.4838
C12_5 C 0.68939(14) 0.93861(14) 0.50317(4)
H7_5 H 0.7147 0.9395 0.5118
C13_5 C 0.56996(15) 0.89931(15) 0.53355(4)
H8_5 H 0.5583 0.9210 0.5272
C14_5 C 0.62955(13) 0.85825(13) 0.53553(4)
H9_5 H 0.6573 0.8519 0.5307
C15_5 C 0.69118(12) 0.98800(12) 0.45484(4)
C16_5 C 0.41674(14) 0.85835(14) 0.57414(4)
H10_5 H 0.3851 0.8299 0.5799
C17_5 C 0.56374(13) 0.84411(13) 0.55974(4)
H11_5 H 0.5474 0.8274 0.5708
C18_5 C 0.42333(13) 0.91163(13) 0.57252(4)
C19_5 C 0.60631(12) 0.83652(12) 0.55222(4)
C20_5 C 0.37981(12) 0.92309(13) 0.57992(4)
C21_5 C 0.62609(11) 0.80349(11) 0.56303(3)
O1_4 O 0.6667 0.72589(11) 0.5833
O2_6 O 0.6667 0.58119(11) 0.5833
O3_5 O 0.78224(9) 0.85610(9) 0.55545(3)
O4_3 O 0.60381(8) 0.78347(8) 0.57833(2)
O5_5 O 0.66612(8) 0.79857(8) 0.55601(2)
O6_3 O 0.39023(9) 0.97352(9) 0.58041(3)
O7_3 O 0.33381(8) 0.88067(8) 0.58490(2)
O8_5 O 0.65405(9) 0.98096(10) 0.44368(3)
Fe3_2 Fe 0.065281(23) 0.277567(16) 0.569757(5)
C22_3 C 0.48338(21) 0.52941(15) 0.56383(5)
H12_3 H 0.5143 0.5242 0.5628
C23_3 C 0.31889(21) 0.38499(14) 0.47702(4)
H13_3 H 0.3417 0.4105 0.4681
C24_3 C 0.43219(23) 0.49036(16) 0.55668(5)
H14_3 H 0.4292 0.4593 0.5505
C25_3 C 0.33102(19) 0.45396(14) 0.55045(4)
C26_3 C 0.27817(21) 0.38845(14) 0.52576(4)
C27_3 C 0.39075(21) 0.54349(14) 0.56727(4)
H15_3 H 0.3598 0.5483 0.5685
C28_3 C 0.27939(21) 0.36674(14) 0.50754(4)
C29_3 C 0.31430(23) 0.40382(16) 0.49391(5)
H16_3 H 0.3348 0.4421 0.4964
C30_3 C 0.29009(18) 0.32865(13) 0.47325(4)
C31_3 C 0.38478(20) 0.49608(14) 0.55846(4)
C32_3 C 0.25392(20) 0.29060(14) 0.48642(4)
H17_3 H 0.2334 0.2523 0.4838
C33_3 C 0.24923(20) 0.31061(14) 0.50317(4)
H18_3 H 0.2249 0.2853 0.5118
C34_3 C 0.32936(21) 0.43004(15) 0.53355(4)
H19_3 H 0.3628 0.4417 0.5272
C35_3 C 0.22871(18) 0.37045(13) 0.53553(4)
H20_3 H 0.1947 0.3427 0.5307
C36_3 C 0.29683(17) 0.30882(12) 0.45484(4)
C37_3 C 0.44162(20) 0.58326(14) 0.57414(4)
H21_3 H 0.4449 0.6149 0.5799
C38_3 C 0.28038(18) 0.43626(13) 0.55974(4)
H22_3 H 0.2801 0.4526 0.5708
C39_3 C 0.48831(18) 0.57667(13) 0.57252(4)
C40_3 C 0.23022(17) 0.39369(12) 0.55222(4)
C41_3 C 0.54329(18) 0.62019(12) 0.57992(4)
C42_3 C 0.17741(16) 0.37391(11) 0.56303(3)
O10_3 O 0.07387(13) 0.21776(9) 0.55545(3)
O11_2 O 0.17967(11) 0.39619(8) 0.57833(2)
O12_3 O 0.13246(11) 0.33388(8) 0.55601(2)
O13_2 O 0.58330(13) 0.60977(9) 0.58041(3)
O14_2 O 0.54687(11) 0.66619(8) 0.58490(2)
O15_3 O 0.32692(13) 0.34595(9) 0.44368(3)
O16_3 O 0.27287(11) 0.25608(8) 0.45188(2)
Fe7_2 Fe 0.121047(16) 0.389099(16) 0.596909(5)
Fe8_2 Fe 0.268053(23) 0.878953(16) 0.596909(5)
Fe9_2 Fe 0.610901(16) 0.731947(23) 0.596909(5)
Fe10_3 Fe 0.277567(16) 0.212287(16) 0.430243(5)
O17_3 O 0.05923(11) 0.3333 0.5833
O18_2 O 0.11681(8) 0.27047(8) 0.58833(2)
O19_3 O 0.72953(8) 0.84633(11) 0.58833(2)
O20_4 O 0.75004(13) 0.69314(9) 0.58625(3)
O21_3 O 0.78647(11) 0.78599(8) 0.58176(2)
O23_4 O 0.67308(13) 0.65405(9) 0.55632(3)
O24_4 O 0.66025(13) 0.64763(10) 0.61035(3)
O25_3 O 0.01678(8) 0.27287(11) 0.54812(2)
O26_5 O 0.72713(11) 0.74392(8) 0.54812(2)
O22_2 O 0.99953(8) 0.21353(11) 0.58176(2)
O2_7 O 0.41881(11) 0.08547(11) 0.5833
O20_5 O 0.30686(9) 0.05689(16) 0.58625(3)
O21_4 O 0.21401(8) 0.00047(14) 0.58176(2)
O23_5 O 0.34595(9) 0.01904(16) 0.55632(3)
O24_5 O 0.35237(10) 0.01262(16) 0.61035(3)
Fe2_4 Fe 0.212287(16) 0.934719(23) 0.569757(5)
C1_6 C 0.04604(14) 0.51662(21) 0.56383(5)
H1_6 H 0.0100 0.4857 0.5628
C2_6 C 0.06611(15) 0.68111(21) 0.47702(4)
H2_6 H 0.0689 0.6583 0.4681
C3_6 C 0.05818(16) 0.56781(23) 0.55668(5)
H3_6 H 0.0302 0.5708 0.5505
C4_6 C 0.12295(13) 0.66898(19) 0.55045(4)
C5_6 C 0.11029(15) 0.72183(21) 0.52576(4)
C6_6 C 0.15275(15) 0.60925(21) 0.56727(4)
H4_6 H 0.1886 0.6402 0.5685
C7_6 C 0.08736(15) 0.72061(21) 0.50754(4)
C8_6 C 0.08953(16) 0.68570(23) 0.49391(5)
H5_6 H 0.1074 0.6652 0.4964
C9_6 C 0.03857(13) 0.70991(18) 0.47325(4)
C10_6 C 0.11131(14) 0.61522(20) 0.55846(4)
C11_6 C 0.03669(14) 0.74608(20) 0.48642(4)
H6_6 H 0.0190 0.7666 0.4838
C12_6 C 0.06139(14) 0.75077(20) 0.50317(4)
H7_6 H 0.0605 0.7751 0.5118
C13_6 C 0.10069(15) 0.67064(21) 0.53355(4)
H8_6 H 0.0790 0.6372 0.5272
C14_6 C 0.14175(13) 0.77129(18) 0.53553(4)
H9_6 H 0.1481 0.8053 0.5307
C15_6 C 0.01200(12) 0.70317(17) 0.45484(4)
C16_6 C 0.14165(14) 0.55838(20) 0.57414(4)
H10_6 H 0.1701 0.5551 0.5799
C17_6 C 0.15589(13) 0.71962(18) 0.55974(4)
H11_6 H 0.1726 0.7199 0.5708
C18_6 C 0.08837(13) 0.51169(18) 0.57252(4)
C19_6 C 0.16348(12) 0.76978(17) 0.55222(4)
C20_6 C 0.07691(13) 0.45671(18) 0.57992(4)
C21_6 C 0.19651(11) 0.82259(16) 0.56303(3)
O1_5 O 0.27411(11) 0.94077(11) 0.5833
O3_6 O 0.14390(9) 0.92613(13) 0.55545(3)
O4_4 O 0.21653(8) 0.82033(11) 0.57833(2)
O5_6 O 0.20143(8) 0.86754(11) 0.55601(2)
O6_4 O 0.02648(9) 0.41670(13) 0.58041(3)
O7_4 O 0.11933(8) 0.45313(11) 0.58490(2)
O8_6 O 0.01904(10) 0.67308(13) 0.44368(3)
O19_4 O 0.15367(11) 0.88319(14) 0.58833(2)
O26_6 O 0.25608(8) 0.98322(14) 0.54812(2)
O9_6 O 0.98322(8) 0.72713(11) 0.45188(2)
Fe4_5 Fe 0.98984(2) 0.33333(3) 0.5833
Fe11_6 Fe 0.934719(23) 0.722433(28) 0.430243(5)
O2_8 O 0.91453(11) 0.3333 0.5833
O20_6 O 0.94311(16) 0.24996(13) 0.58625(3)
O23_6 O 0.98096(16) 0.32692(13) 0.55632(3)
O24_6 O 0.98738(16) 0.33975(13) 0.61035(3)
C1_7 C 0.28730(14) 0.13725(15) 0.60283(5)
H1_7 H 0.3234 0.1424 0.6038
C2_7 C 0.26723(15) 0.28167(14) 0.68964(4)
H2_7 H 0.2645 0.2561 0.6985
C3_7 C 0.27516(16) 0.17630(16) 0.60998(5)
H3_7 H 0.3032 0.2073 0.6161
C4_7 C 0.21039(13) 0.21270(14) 0.61621(4)
C5_7 C 0.22305(15) 0.27821(14) 0.64090(4)
C6_7 C 0.18059(15) 0.12317(14) 0.59939(4)
H4_7 H 0.1448 0.1183 0.5981
C7_7 C 0.24598(15) 0.29992(14) 0.65912(4)
C8_7 C 0.24381(16) 0.26284(16) 0.67275(5)
H5_7 H 0.2260 0.2245 0.6702
C9_7 C 0.29477(13) 0.33801(13) 0.69341(4)
C10_7 C 0.22203(14) 0.17058(14) 0.60820(4)
C11_7 C 0.29665(14) 0.37606(14) 0.68024(4)
H6_7 H 0.3144 0.4143 0.6828
C12_7 C 0.27195(14) 0.35605(14) 0.66349(4)
H7_7 H 0.2729 0.3813 0.6548
C13_7 C 0.23265(15) 0.23662(15) 0.63311(4)
H8_7 H 0.2544 0.2249 0.6394
C14_7 C 0.19159(13) 0.29621(13) 0.63113(4)
H9_7 H 0.1853 0.3239 0.6359
C15_7 C 0.32134(12) 0.35784(12) 0.71182(4)
C16_7 C 0.19169(14) 0.08340(14) 0.59252(4)
H10_7 H 0.1633 0.0517 0.5867
C17_7 C 0.17745(13) 0.23040(13) 0.60692(4)
H11_7 H 0.1608 0.2140 0.5958
C18_7 C 0.24497(13) 0.08999(13) 0.59414(4)
C19_7 C 0.16986(12) 0.27297(12) 0.61444(4)
C20_7 C 0.25643(13) 0.04647(12) 0.58674(4)
C21_7 C 0.13683(11) 0.29275(11) 0.60363(3)
O3_7 O 0.18944(9) 0.44890(9) 0.61121(3)
O5_7 O 0.13191(8) 0.33278(8) 0.61065(2)
O8_7 O 0.31430(10) 0.32071(9) 0.72298(3)
O9_7 O 0.35012(8) 0.41058(8) 0.71478(2)
Fe6_5 Fe 0.32317(2) 0.32317(2) 0.7500
Fe11_7 Fe 0.398614(23) 0.454380(16) 0.736424(5)
O26_7 O 0.07725(8) 0.39380(11) 0.61855(2)
C22_4 C 0.86275(15) 0.15004(21) 0.60283(5)
H12_4 H 0.8576 0.1809 0.6038
H13_4 H 0.7439 0.0083 0.6985
C24_4 C 0.82370(16) 0.09885(23) 0.60998(5)
H14_4 H 0.7927 0.0958 0.6161
C27_4 C 0.87683(14) 0.05741(21) 0.59939(4)
H15_4 H 0.8817 0.0264 0.5981
H16_4 H 0.7755 0.0014 0.6702
C31_4 C 0.82942(14) 0.05144(20) 0.60820(4)
H19_4 H 0.7751 0.0294 0.6394
C37_4 C 0.91660(14) 0.10828(20) 0.59252(4)
H21_4 H 0.9483 0.1115 0.5867
C39_4 C 0.91001(13) 0.15497(18) 0.59414(4)
C41_4 C 0.95353(12) 0.20995(18) 0.58674(4)
Fe5_3 Fe 0.67683(2) 0.0000 0.7500
C23_4 C 0.71833(14) 0.98555(21) 0.68964(4)
C25_4 C 0.78730(14) 0.99768(19) 0.61621(4)
C26_4 C 0.72179(14) 0.94483(21) 0.64090(4)
C28_4 C 0.70008(14) 0.94605(21) 0.65912(4)
C29_4 C 0.73716(16) 0.98096(23) 0.67275(5)
C30_4 C 0.66199(13) 0.95675(18) 0.69341(4)
C32_4 C 0.62394(14) 0.92058(20) 0.68024(4)
H17_4 H 0.5857 0.9000 0.6828
C33_4 C 0.64395(14) 0.91589(20) 0.66349(4)
H18_4 H 0.6187 0.8915 0.6548
C34_4 C 0.76338(15) 0.99602(21) 0.63311(4)
C35_4 C 0.70379(13) 0.89537(18) 0.63113(4)
H20_4 H 0.6761 0.8613 0.6359
C36_4 C 0.64216(12) 0.96349(17) 0.71182(4)
C38_4 C 0.76960(13) 0.94704(18) 0.60692(4)
H22_4 H 0.7860 0.9467 0.5958
C40_4 C 0.72703(12) 0.89688(17) 0.61444(4)
C42_4 C 0.70725(11) 0.84407(16) 0.60363(3)
O10_4 O 0.55110(9) 0.74053(13) 0.61121(3)
O12_4 O 0.66722(8) 0.79912(11) 0.61065(2)
O15_4 O 0.67929(9) 0.99358(13) 0.72298(3)
O16_4 O 0.58942(8) 0.93953(11) 0.71478(2)
Fe5_4 Fe 0.67683(2) 1.0000 0.7500
Fe10_4 Fe 0.545620(16) 0.944234(16) 0.736424(5)
O25_4 O 0.60620(11) 0.68345(8) 0.61855(2)
C2_8 C 0.01445(21) 0.73277(15) 0.68964(4)
C4_8 C 0.00232(19) 0.78961(13) 0.61621(4)
C5_8 C 0.05517(21) 0.77695(15) 0.64090(4)
C7_8 C 0.05395(21) 0.75402(15) 0.65912(4)
C8_8 C 0.01904(23) 0.75619(16) 0.67275(5)
C9_8 C 0.04325(18) 0.70523(13) 0.69341(4)
C11_8 C 0.07942(20) 0.70335(14) 0.68024(4)
H6_8 H 0.1000 0.6856 0.6828
C12_8 C 0.08411(20) 0.72805(14) 0.66349(4)
H7_8 H 0.1085 0.7271 0.6548
C13_8 C 0.00398(21) 0.76735(15) 0.63311(4)
C14_8 C 0.10463(18) 0.80841(13) 0.63113(4)
H9_8 H 0.1387 0.8147 0.6359
C15_8 C 0.03651(17) 0.67866(12) 0.71182(4)
C17_8 C 0.05296(18) 0.82255(13) 0.60692(4)
H11_8 H 0.0533 0.8392 0.5958
C19_8 C 0.10312(17) 0.83014(12) 0.61444(4)
C21_8 C 0.15593(16) 0.86317(11) 0.60363(3)
O3_8 O 0.25947(13) 0.81056(9) 0.61121(3)
O5_8 O 0.20088(11) 0.86809(8) 0.61065(2)
O8_8 O 0.00642(13) 0.68570(10) 0.72298(3)
O9_8 O 0.06047(11) 0.64988(8) 0.71478(2)
Fe6_6 Fe -0.00000(3) 0.67683(2) 0.7500
Fe11_8 Fe 0.055766(28) 0.601386(23) 0.736424(5)
O26_8 O 0.31655(14) 0.92275(8) 0.61855(2)
C1_8 C 0.84996(21) 0.71270(14) 0.60283(5)
H1_8 H 0.8191 0.6766 0.6038
H2_8 H 0.9917 0.7355 0.6985
C3_8 C 0.90115(23) 0.72484(16) 0.60998(5)
H3_8 H 0.9042 0.6968 0.6161
C6_8 C 0.94259(21) 0.81941(15) 0.59939(4)
H4_8 H 0.9736 0.8552 0.5981
H5_8 H 0.9986 0.7740 0.6702
C10_8 C 0.94856(20) 0.77797(14) 0.60820(4)
H8_8 H 0.9706 0.7456 0.6394
C16_8 C 0.89172(20) 0.80831(14) 0.59252(4)
H10_8 H 0.8885 0.8367 0.5867
C18_8 C 0.84503(18) 0.75503(13) 0.59414(4)
C20_8 C 0.79005(18) 0.74357(13) 0.58674(4)
Fe6_7 Fe 1.00000(3) 0.67683(2) 0.7500
Fe2_5 Fe 0.389099(16) 0.121047(16) 0.903091(5)
C1_9 C 0.13725(15) 0.28730(14) 0.89717(5)
H1_9 H 0.1424 0.3234 0.8962
C2_9 C 0.28167(14) 0.26723(15) 0.81036(4)
H2_9 H 0.2561 0.2645 0.8015
C3_9 C 0.17630(16) 0.27516(16) 0.89002(5)
H3_9 H 0.2073 0.3032 0.8839
C4_9 C 0.21270(14) 0.21039(13) 0.88379(4)
C5_9 C 0.27821(14) 0.22305(15) 0.85910(4)
C6_9 C 0.12317(14) 0.18059(15) 0.90061(4)
H4_9 H 0.1183 0.1448 0.9019
C7_9 C 0.29992(14) 0.24598(15) 0.84088(4)
C8_9 C 0.26284(16) 0.24381(16) 0.82725(5)
H5_9 H 0.2245 0.2260 0.8298
C9_9 C 0.33801(13) 0.29477(13) 0.80659(4)
C10_9 C 0.17058(14) 0.22203(14) 0.89180(4)
C11_9 C 0.37606(14) 0.29665(14) 0.81976(4)
H6_9 H 0.4143 0.3144 0.8172
C12_9 C 0.35605(14) 0.27195(14) 0.83651(4)
H7_9 H 0.3813 0.2729 0.8452
C13_9 C 0.23662(15) 0.23265(15) 0.86689(4)
H8_9 H 0.2249 0.2544 0.8606
C14_9 C 0.29621(13) 0.19159(13) 0.86887(4)
H9_9 H 0.3239 0.1853 0.8641
C15_9 C 0.35784(12) 0.32134(12) 0.78818(4)
C16_9 C 0.08340(14) 0.19169(14) 0.90748(4)
H10_9 H 0.0517 0.1633 0.9133
C17_9 C 0.23040(13) 0.17745(13) 0.89308(4)
H11_9 H 0.2140 0.1608 0.9042
C18_9 C 0.08999(13) 0.24497(13) 0.90586(4)
C19_9 C 0.27297(12) 0.16986(12) 0.88556(4)
C20_9 C 0.04647(12) 0.25643(13) 0.91326(4)
C21_9 C 0.29275(11) 0.13683(11) 0.89637(3)
O1_6 O 0.3333 0.05923(11) 0.9167
O3_9 O 0.44890(9) 0.18944(9) 0.88879(3)
O4_5 O 0.27047(8) 0.11681(8) 0.91167(2)
O5_9 O 0.33278(8) 0.13191(8) 0.88935(2)
O6_5 O 0.05689(9) 0.30686(9) 0.91375(3)
O7_5 O 0.00047(8) 0.21401(8) 0.91824(2)
O8_9 O 0.32071(9) 0.31430(10) 0.77702(3)
O9_9 O 0.41058(8) 0.35012(8) 0.78522(2)
Fe4_6 Fe 0.01016(2) 0.34350(2) 0.9167
Fe9_3 Fe 0.277567(16) 0.065281(23) 0.930243(5)
Fe11_9 Fe 0.454380(16) 0.398614(23) 0.763576(5)
O19_5 O 0.39619(8) 0.17967(11) 0.92167(2)
O20_7 O 0.41670(13) 0.02648(9) 0.91959(3)
O21_5 O 0.45313(11) 0.11933(8) 0.91510(2)
O26_9 O 0.39380(11) 0.07725(8) 0.88145(2)
Fe1_4 Fe 0.3333 0.98984(2) 0.9167
O2_9 O 0.3333 0.91453(11) 0.9167
C22_5 C 0.15004(21) 0.86275(15) 0.89717(5)
H12_5 H 0.1809 0.8576 0.8962
H13_5 H 0.0083 0.7439 0.8015
C24_5 C 0.09885(23) 0.82370(16) 0.89002(5)
H14_5 H 0.0958 0.7927 0.8839
C27_5 C 0.05741(21) 0.87683(14) 0.90061(4)
H15_5 H 0.0264 0.8817 0.9019
H16_5 H 0.0014 0.7755 0.8298
C31_5 C 0.05144(20) 0.82942(14) 0.89180(4)
H19_5 H 0.0294 0.7751 0.8606
C37_5 C 0.10828(20) 0.91660(14) 0.90748(4)
H21_5 H 0.1115 0.9483 0.9133
C39_5 C 0.15497(18) 0.91001(13) 0.90586(4)
C41_5 C 0.20995(18) 0.95353(12) 0.91326(4)
O13_3 O 0.24996(13) 0.94311(9) 0.91375(3)
O14_3 O 0.21353(11) 0.99953(8) 0.91824(2)
O23_7 O 0.33975(13) 0.98738(9) 0.88965(3)
O24_7 O 0.32692(13) 0.98096(10) 0.94368(3)
Fe8_3 Fe 0.934719(23) 0.212287(16) 0.930243(5)
Fe3_3 Fe 0.731947(23) 0.610901(16) 0.903091(5)
C23_5 C 0.98555(21) 0.71833(14) 0.81036(4)
C25_5 C 0.99768(19) 0.78730(14) 0.88379(4)
C26_5 C 0.94483(21) 0.72179(14) 0.85910(4)
C28_5 C 0.94605(21) 0.70008(14) 0.84088(4)
C29_5 C 0.98096(23) 0.73716(16) 0.82725(5)
C30_5 C 0.95675(18) 0.66199(13) 0.80659(4)
C32_5 C 0.92058(20) 0.62394(14) 0.81976(4)
H17_5 H 0.9000 0.5857 0.8172
C33_5 C 0.91589(20) 0.64395(14) 0.83651(4)
H18_5 H 0.8915 0.6187 0.8452
C34_5 C 0.99602(21) 0.76338(15) 0.86689(4)
C35_5 C 0.89537(18) 0.70379(13) 0.86887(4)
H20_5 H 0.8613 0.6761 0.8641
C36_5 C 0.96349(17) 0.64216(12) 0.78818(4)
C38_5 C 0.94704(18) 0.76960(13) 0.89308(4)
H22_5 H 0.9467 0.7860 0.9042
C40_5 C 0.89688(17) 0.72703(12) 0.88556(4)
C42_5 C 0.84407(16) 0.70725(11) 0.89637(3)
O10_5 O 0.74053(13) 0.55110(9) 0.88879(3)
O11_3 O 0.84633(11) 0.72953(8) 0.91167(2)
O12_5 O 0.79912(11) 0.66722(8) 0.88935(2)
O15_5 O 0.99358(13) 0.67929(9) 0.77702(3)
O16_5 O 0.93953(11) 0.58942(8) 0.78522(2)
Fe7_3 Fe 0.787713(16) 0.722433(16) 0.930243(5)
Fe10_5 Fe 0.944234(16) 0.545620(16) 0.763576(5)
O17_4 O 0.72589(11) 0.6667 0.9167
O18_3 O 0.78347(8) 0.60381(8) 0.92167(2)
O22_3 O 0.66619(8) 0.54687(11) 0.91510(2)
O25_5 O 0.68345(8) 0.60620(11) 0.88145(2)
O2_10 O 0.08547(11) 0.41881(11) 0.9167
O23_8 O 0.01262(9) 0.35237(16) 0.88965(3)
O24_8 O 0.01904(10) 0.34595(16) 0.94368(3)
Fe2_6 Fe 0.878953(16) 0.268053(23) 0.903091(5)
C2_10 C 0.73277(15) 0.01445(21) 0.81036(4)
C4_10 C 0.78961(13) 0.00232(19) 0.88379(4)
C5_10 C 0.77695(15) 0.05517(21) 0.85910(4)
C7_10 C 0.75402(15) 0.05395(21) 0.84088(4)
C8_10 C 0.75619(16) 0.01904(23) 0.82725(5)
C9_10 C 0.70523(13) 0.04325(18) 0.80659(4)
C11_10 C 0.70335(14) 0.07942(20) 0.81976(4)
H6_10 H 0.6856 0.1000 0.8172
C12_10 C 0.72805(14) 0.08411(20) 0.83651(4)
H7_10 H 0.7271 0.1085 0.8452
C13_10 C 0.76735(15) 0.00398(21) 0.86689(4)
C14_10 C 0.80841(13) 0.10463(18) 0.86887(4)
H9_10 H 0.8147 0.1387 0.8641
C15_10 C 0.67866(12) 0.03651(17) 0.78818(4)
C17_10 C 0.82255(13) 0.05296(18) 0.89308(4)
H11_10 H 0.8392 0.0533 0.9042
C19_10 C 0.83014(12) 0.10312(17) 0.88556(4)
C21_10 C 0.86317(11) 0.15593(16) 0.89637(3)
O1_7 O 0.94077(11) 0.27411(11) 0.9167
O3_10 O 0.81056(9) 0.25947(13) 0.88879(3)
O4_6 O 0.88319(8) 0.15367(11) 0.91167(2)
O5_10 O 0.86809(8) 0.20088(11) 0.88935(2)
O8_10 O 0.68570(10) 0.00642(13) 0.77702(3)
O9_10 O 0.64988(8) 0.06047(11) 0.78522(2)
Fe11_10 Fe 0.601386(23) 0.055766(28) 0.763576(5)
O19_6 O 0.82033(11) 0.21653(14) 0.92167(2)
O20_8 O 0.97352(9) 0.39023(16) 0.91959(3)
O21_6 O 0.88067(8) 0.33381(14) 0.91510(2)
O26_10 O 0.92275(8) 0.31655(14) 0.88145(2)
C1_10 C 0.71270(14) 0.84996(21) 0.89717(5)
H1_10 H 0.6766 0.8191 0.8962
H2_10 H 0.7355 0.9917 0.8015
C3_10 C 0.72484(16) 0.90115(23) 0.89002(5)
H3_10 H 0.6968 0.9042 0.8839
C6_10 C 0.81941(15) 0.94259(21) 0.90061(4)
H4_10 H 0.8552 0.9736 0.9019
H5_10 H 0.7740 0.9986 0.8298
C10_10 C 0.77797(14) 0.94856(20) 0.89180(4)
H8_10 H 0.7456 0.9706 0.8606
C16_10 C 0.80831(14) 0.89172(20) 0.90748(4)
H10_10 H 0.8367 0.8885 0.9133
C18_10 C 0.75503(13) 0.84503(18) 0.90586(4)
C20_10 C 0.74357(13) 0.79005(18) 0.91326(4)
O6_6 O 0.69314(9) 0.75004(13) 0.91375(3)
O7_6 O 0.78599(8) 0.78647(11) 0.91824(2)
Fe4_7 Fe 0.65650(2) 0.66667(3) 0.9167
O2_11 O 0.58119(11) 0.6667 0.9167
O20_9 O 0.60977(16) 0.58330(13) 0.91959(3)
O23_9 O 0.64763(16) 0.66025(13) 0.88965(3)
O24_9 O 0.65405(16) 0.67308(13) 0.94368(3)
O9_11 O 0.01678(8) 0.74392(8) 0.04812(2)
Fe11_11 Fe 0.065281(23) 0.787713(16) 0.069757(5)
C2_11 C 0.93389(15) 0.61501(14) 0.02298(4)
H2_11 H 0.9311 0.5895 0.0319
C8_11 C 0.91047(16) 0.59618(16) 0.00609(5)
H5_11 H 0.8926 0.5579 0.0036
C9_11 C 0.96143(13) 0.67135(13) 0.02675(4)
C11_11 C 0.96331(14) 0.70940(14) 0.01358(4)
H6_11 H 0.9810 0.7477 0.0162
C15_11 C 0.98800(12) 0.69118(12) 0.04516(4)
O8_11 O 0.98096(10) 0.65405(9) 0.05632(3)
C23_6 C 0.38499(14) 0.31889(21) 0.02298(4)
H13_6 H 0.4105 0.3417 0.0319
C29_6 C 0.40382(16) 0.31430(23) 0.00609(5)
H16_6 H 0.4421 0.3348 0.0036
C30_6 C 0.32865(13) 0.29009(18) 0.02675(4)
C32_6 C 0.29060(14) 0.25392(20) 0.01358(4)
H17_6 H 0.2523 0.2334 0.0162
C36_6 C 0.30882(12) 0.29683(17) 0.04516(4)
O15_6 O 0.34595(9) 0.32692(13) 0.05632(3)
O16_6 O 0.25608(8) 0.27287(11) 0.04812(2)
Fe10_6 Fe 0.212287(16) 0.277567(16) 0.069757(5)
C1_11 C 0.95396(14) 0.47059(15) 0.93617(5)
H1_11 H 0.9900 0.4758 0.9372
C3_11 C 0.94182(16) 0.50964(16) 0.94332(5)
H3_11 H 0.9698 0.5407 0.9495
C4_11 C 0.87705(13) 0.54604(14) 0.94955(4)
C5_11 C 0.88971(15) 0.61155(14) 0.97424(4)
C6_11 C 0.84725(15) 0.45651(14) 0.93273(4)
H4_11 H 0.8114 0.4517 0.9315
C7_11 C 0.91264(15) 0.63326(14) 0.99246(4)
C10_11 C 0.88869(14) 0.50392(14) 0.94154(4)
C12_11 C 0.93861(14) 0.68939(14) 0.99683(4)
H7_11 H 0.9395 0.7147 0.9882
C13_11 C 0.89931(15) 0.56996(15) 0.96645(4)
H8_11 H 0.9210 0.5583 0.9728
C14_11 C 0.85825(13) 0.62955(13) 0.96447(4)
H9_11 H 0.8519 0.6573 0.9693
C16_11 C 0.85835(14) 0.41674(14) 0.92586(4)
H10_11 H 0.8299 0.3851 0.9201
C17_11 C 0.84411(13) 0.56374(13) 0.94026(4)
H11_11 H 0.8274 0.5474 0.9292
C18_11 C 0.91163(13) 0.42333(13) 0.92748(4)
C19_11 C 0.83652(12) 0.60631(12) 0.94778(4)
C20_11 C 0.92309(13) 0.37981(12) 0.92008(4)
C21_11 C 0.80349(11) 0.62609(11) 0.93697(3)
O3_11 O 0.85610(9) 0.78224(9) 0.94455(3)
O5_11 O 0.79857(8) 0.66612(8) 0.94399(2)
C22_6 C 0.52941(15) 0.48338(21) 0.93617(5)
H12_6 H 0.5242 0.5143 0.9372
C24_6 C 0.49036(16) 0.43219(23) 0.94332(5)
H14_6 H 0.4593 0.4292 0.9495
C25_6 C 0.45396(14) 0.33102(19) 0.94955(4)
C26_6 C 0.38845(14) 0.27817(21) 0.97424(4)
C27_6 C 0.54349(14) 0.39075(21) 0.93273(4)
H15_6 H 0.5483 0.3598 0.9315
C28_6 C 0.36674(14) 0.27939(21) 0.99246(4)
C31_6 C 0.49608(14) 0.38478(20) 0.94154(4)
C33_6 C 0.31061(14) 0.24923(20) 0.99683(4)
H18_6 H 0.2853 0.2249 0.9882
C34_6 C 0.43004(15) 0.32936(21) 0.96645(4)
H19_6 H 0.4417 0.3628 0.9728
C35_6 C 0.37045(13) 0.22871(18) 0.96447(4)
H20_6 H 0.3427 0.1947 0.9693
C37_6 C 0.58326(14) 0.44162(20) 0.92586(4)
H21_6 H 0.6149 0.4449 0.9201
C38_6 C 0.43626(13) 0.28038(18) 0.94026(4)
H22_6 H 0.4526 0.2801 0.9292
C39_6 C 0.57667(13) 0.48831(18) 0.92748(4)
C40_6 C 0.39369(12) 0.23022(17) 0.94778(4)
C41_6 C 0.62019(12) 0.54329(18) 0.92008(4)
C42_6 C 0.37391(11) 0.17741(16) 0.93697(3)
O10_6 O 0.21776(9) 0.07387(13) 0.94455(3)
O12_6 O 0.33388(8) 0.13246(11) 0.94399(2)
O25_6 O 0.27287(11) 0.01678(8) 0.95188(2)
O26_11 O 0.74392(8) 0.72713(11) 0.95188(2)
C2_12 C 0.68111(21) 0.06611(15) 0.02298(4)
H2_12 H 0.6583 0.0689 0.0319
C8_12 C 0.68570(23) 0.08953(16) 0.00609(5)
H5_12 H 0.6652 0.1074 0.0036
C9_12 C 0.70991(18) 0.03857(13) 0.02675(4)
C11_12 C 0.74608(20) 0.03669(14) 0.01358(4)
H6_12 H 0.7666 0.0190 0.0162
C15_12 C 0.70317(17) 0.01200(12) 0.04516(4)
O8_12 O 0.67308(13) 0.01904(10) 0.05632(3)
C1_12 C 0.51662(21) 0.04604(14) 0.93617(5)
H1_12 H 0.4857 0.0100 0.9372
C3_12 C 0.56781(23) 0.05818(16) 0.94332(5)
H3_12 H 0.5708 0.0302 0.9495
C4_12 C 0.66898(19) 0.12295(13) 0.94955(4)
C5_12 C 0.72183(21) 0.11029(15) 0.97424(4)
C6_12 C 0.60925(21) 0.15275(15) 0.93273(4)
H4_12 H 0.6402 0.1886 0.9315
C7_12 C 0.72061(21) 0.08736(15) 0.99246(4)
C10_12 C 0.61522(20) 0.11131(14) 0.94154(4)
C12_12 C 0.75077(20) 0.06139(14) 0.99683(4)
H7_12 H 0.7751 0.0605 0.9882
C13_12 C 0.67064(21) 0.10069(15) 0.96645(4)
H8_12 H 0.6372 0.0790 0.9728
C14_12 C 0.77129(18) 0.14175(13) 0.96447(4)
H9_12 H 0.8053 0.1481 0.9693
C16_12 C 0.55838(20) 0.14165(14) 0.92586(4)
H10_12 H 0.5551 0.1701 0.9201
C17_12 C 0.71962(18) 0.15589(13) 0.94026(4)
H11_12 H 0.7199 0.1726 0.9292
C18_12 C 0.51169(18) 0.08837(13) 0.92748(4)
C19_12 C 0.76978(17) 0.16348(12) 0.94778(4)
C20_12 C 0.45671(18) 0.07691(13) 0.92008(4)
C21_12 C 0.82259(16) 0.19651(11) 0.93697(3)
O3_12 O 0.92613(13) 0.14390(9) 0.94455(3)
O5_12 O 0.86754(11) 0.20143(8) 0.94399(2)
O26_12 O 0.98322(14) 0.25608(8) 0.95188(2)
O9_12 O 0.72713(11) 0.98322(8) 0.04812(2)
Fe11_12 Fe 0.722433(28) 0.934719(23) 0.069757(5)
C30_7 C 0.37658(18) 0.00468(13) 0.86008(4)
C32_7 C 0.41275(20) 0.04273(14) 0.84691(4)
H17_7 H 0.4333 0.0810 0.8495
C33_7 C 0.41744(20) 0.02272(14) 0.83016(4)
H18_7 H 0.4418 0.0480 0.8215
C36_7 C 0.36984(17) 0.02451(12) 0.87849(4)
O10_7 O 0.59280(13) 0.11557(9) 0.77788(3)
O17_5 O 0.60744(11) 0.0000 0.7500
O18_4 O 0.54986(8) 0.06286(8) 0.74500(2)
O22_4 O 0.66714(8) 0.11980(11) 0.75157(2)
C1_13 C 0.19608(15) 0.37937(14) 0.76950(5)
H1_13 H 0.1909 0.3433 0.7705
C2_13 C 0.05166(14) 0.39944(15) 0.85631(4)
H2_13 H 0.0772 0.4022 0.8652
C3_13 C 0.15703(16) 0.39151(16) 0.77665(5)
H3_13 H 0.1260 0.3635 0.7828
C4_13 C 0.12063(14) 0.45628(13) 0.78288(4)
C5_13 C 0.05512(14) 0.44362(15) 0.80757(4)
C6_13 C 0.21016(14) 0.48608(15) 0.76606(4)
H4_13 H 0.2150 0.5219 0.7648
C7_13 C 0.03341(14) 0.42069(15) 0.82579(4)
C8_13 C 0.07049(16) 0.42286(16) 0.83942(5)
H5_13 H 0.1088 0.4407 0.8369
C10_13 C 0.16275(14) 0.44464(14) 0.77487(4)
C13_13 C 0.09671(15) 0.43402(15) 0.79978(4)
H8_13 H 0.1084 0.4123 0.8061
C14_13 C 0.03712(13) 0.47508(13) 0.79780(4)
H9_13 H 0.0094 0.4814 0.8026
C16_13 C 0.24993(14) 0.47498(14) 0.75919(4)
H10_13 H 0.2816 0.5034 0.7534
C17_13 C 0.10293(13) 0.48922(13) 0.77359(4)
H11_13 H 0.1193 0.5059 0.7625
C18_13 C 0.24334(13) 0.42170(13) 0.76081(4)
C19_13 C 0.06036(12) 0.49681(12) 0.78111(4)
C20_13 C 0.28686(12) 0.41024(13) 0.75341(4)
C21_13 C 0.04058(11) 0.52984(11) 0.77030(3)
O1_8 O -0.0000 0.60744(11) 0.7500
O2_12 O -0.0000 0.75214(11) 0.7500
O4_7 O 0.06286(8) 0.54986(8) 0.75500(2)
O5_13 O 0.00055(8) 0.53476(8) 0.77732(2)
O6_7 O 0.27644(9) 0.35981(9) 0.75292(3)
O7_7 O 0.33286(8) 0.45266(8) 0.74843(2)
C22_7 C 0.18329(21) 0.80392(15) 0.76950(5)
H12_7 H 0.1524 0.8091 0.7705
C23_7 C 0.34778(21) 0.94834(14) 0.85631(4)
H13_7 H 0.3250 0.9228 0.8652
C24_7 C 0.23448(23) 0.84297(16) 0.77665(5)
H14_7 H 0.2375 0.8740 0.7828
C25_7 C 0.33565(19) 0.87937(14) 0.78288(4)
C26_7 C 0.38850(21) 0.94488(14) 0.80757(4)
C27_7 C 0.27592(21) 0.78984(14) 0.76606(4)
H15_7 H 0.3069 0.7850 0.7648
C28_7 C 0.38728(21) 0.96659(14) 0.82579(4)
C29_7 C 0.35237(23) 0.92951(16) 0.83942(5)
H16_7 H 0.3319 0.8912 0.8369
C31_7 C 0.28189(20) 0.83725(14) 0.77487(4)
C34_7 C 0.33731(21) 0.90329(15) 0.79978(4)
H19_7 H 0.3039 0.8916 0.8061
C35_7 C 0.43796(18) 0.96288(13) 0.79780(4)
H20_7 H 0.4720 0.9906 0.8026
C37_7 C 0.22505(20) 0.75007(14) 0.75919(4)
H21_7 H 0.2218 0.7184 0.7534
C38_7 C 0.38629(18) 0.89707(13) 0.77359(4)
H22_7 H 0.3866 0.8807 0.7625
C39_7 C 0.17836(18) 0.75666(13) 0.76081(4)
C40_7 C 0.43645(17) 0.93964(12) 0.78111(4)
C41_7 C 0.12338(18) 0.71314(12) 0.75341(4)
C42_7 C 0.48926(16) 0.95942(11) 0.77030(3)
O11_4 O 0.48700(11) 0.93714(8) 0.75500(2)
O12_7 O 0.53421(11) 0.99945(8) 0.77732(2)
O13_4 O 0.08337(13) 0.72356(9) 0.75292(3)
O14_4 O 0.11980(11) 0.66714(8) 0.74843(2)
O17_6 O 0.60744(11) 1.0000 0.7500
H23_5 H 0.0159208 0.772159 0.761699
C9_13 C 0.99532(13) 0.37190(13) 0.86008(4)
C11_13 C 0.95727(14) 0.37002(14) 0.84691(4)
H6_13 H 0.9190 0.3523 0.8495
C12_13 C 0.97728(14) 0.39472(14) 0.83016(4)
H7_13 H 0.9520 0.3938 0.8215
C15_13 C 0.97549(12) 0.34533(12) 0.87849(4)
O1_9 O 1.0000 0.60744(11) 0.7500
O2_13 O 1.0000 0.75214(11) 0.7500
O3_13 O 0.88443(9) 0.47723(9) 0.77788(3)
O19_7 O 0.93714(8) 0.48700(11) 0.74500(2)
O20_10 O 0.91663(13) 0.64019(9) 0.74708(3)
O21_7 O 0.88020(11) 0.54734(8) 0.75157(2)
H24_5 H 0.960845 0.744621 0.748629
C1_14 C 0.62063(14) 0.81671(21) 0.76950(5)
H1_14 H 0.6567 0.8476 0.7705
C2_14 C 0.60056(15) 0.65222(21) 0.85631(4)
H2_14 H 0.5978 0.6750 0.8652
C3_14 C 0.60849(16) 0.76552(23) 0.77665(5)
H3_14 H 0.6365 0.7625 0.7828
C4_14 C 0.54372(13) 0.66435(19) 0.78288(4)
C5_14 C 0.55638(15) 0.61150(21) 0.80757(4)
C6_14 C 0.51392(15) 0.72408(21) 0.76606(4)
H4_14 H 0.4781 0.6931 0.7648
C7_14 C 0.57931(15) 0.61272(21) 0.82579(4)
C8_14 C 0.57714(16) 0.64763(23) 0.83942(5)
H5_14 H 0.5593 0.6681 0.8369
C9_14 C 0.62810(13) 0.62342(18) 0.86008(4)
C10_14 C 0.55536(14) 0.71811(20) 0.77487(4)
C11_14 C 0.62998(14) 0.58725(20) 0.84691(4)
H6_14 H 0.6477 0.5667 0.8495
C12_14 C 0.60528(14) 0.58256(20) 0.83016(4)
H7_14 H 0.6062 0.5582 0.8215
C13_14 C 0.56598(15) 0.66269(21) 0.79978(4)
H8_14 H 0.5877 0.6961 0.8061
C14_14 C 0.52492(13) 0.56204(18) 0.79780(4)
H9_14 H 0.5186 0.5280 0.8026
C15_14 C 0.65467(12) 0.63016(17) 0.87849(4)
C16_14 C 0.52502(14) 0.77495(20) 0.75919(4)
H10_14 H 0.4966 0.7782 0.7534
C17_14 C 0.51078(13) 0.61371(18) 0.77359(4)
H11_14 H 0.4941 0.6134 0.7625
C18_14 C 0.57830(13) 0.82164(18) 0.76081(4)
C19_14 C 0.50319(12) 0.56355(17) 0.78111(4)
C20_14 C 0.58976(13) 0.87662(18) 0.75341(4)
C21_14 C 0.47016(11) 0.51074(16) 0.77030(3)
O1_10 O 0.39256(11) 0.39256(11) 0.7500
O2_14 O 0.24786(11) 0.24786(11) 0.7500
O3_14 O 0.52277(9) 0.40720(13) 0.77788(3)
O4_8 O 0.45014(8) 0.51300(11) 0.75500(2)
O5_14 O 0.46524(8) 0.46579(11) 0.77732(2)
O6_8 O 0.64019(9) 0.91663(13) 0.75292(3)
O7_8 O 0.54734(8) 0.88020(11) 0.74843(2)
O19_8 O 0.51300(11) 0.45014(14) 0.74500(2)
O20_11 O 0.35981(9) 0.27644(16) 0.74708(3)
O21_8 O 0.45266(8) 0.33286(14) 0.75157(2)
O2_15 O 0.75214(11) -0.0000 0.7500
O20_12 O 0.72356(16) 0.08337(13) 0.74708(3)
H24_6 H 0.783776 0.0391552 0.748629
O2_16 O 0.75214(11) 1.0000 0.7500
H23_6 H 0.756238 0.984079 0.761699
C30_8 C 0.00468(13) 0.37658(18) 0.63992(4)
C32_8 C 0.04273(14) 0.41275(20) 0.65309(4)
H17_8 H 0.0810 0.4333 0.6505
C33_8 C 0.02272(14) 0.41744(20) 0.66984(4)
H18_8 H 0.0480 0.4418 0.6785
C36_8 C 0.02451(12) 0.36984(17) 0.62151(4)
O10_8 O 0.11557(9) 0.59280(13) 0.72212(3)
C1_15 C 0.37937(14) 0.19608(15) 0.73050(5)
H1_15 H 0.3433 0.1909 0.7295
C2_15 C 0.39944(15) 0.05166(14) 0.64369(4)
H2_15 H 0.4022 0.0772 0.6348
C3_15 C 0.39151(16) 0.15703(16) 0.72335(5)
H3_15 H 0.3635 0.1260 0.7172
C4_15 C 0.45628(13) 0.12063(14) 0.71712(4)
C5_15 C 0.44362(15) 0.05512(14) 0.69243(4)
C6_15 C 0.48608(15) 0.21016(14) 0.73394(4)
H4_15 H 0.5219 0.2150 0.7352
C7_15 C 0.42069(15) 0.03341(14) 0.67421(4)
C8_15 C 0.42286(16) 0.07049(16) 0.66058(5)
H5_15 H 0.4407 0.1088 0.6631
C10_15 C 0.44464(14) 0.16275(14) 0.72513(4)
C13_15 C 0.43402(15) 0.09671(15) 0.70022(4)
H8_15 H 0.4123 0.1084 0.6939
C14_15 C 0.47508(13) 0.03712(13) 0.70220(4)
H9_15 H 0.4814 0.0094 0.6974
C16_15 C 0.47498(14) 0.24993(14) 0.74081(4)
H10_15 H 0.5034 0.2816 0.7466
C17_15 C 0.48922(13) 0.10293(13) 0.72641(4)
H11_15 H 0.5059 0.1193 0.7375
C18_15 C 0.42170(13) 0.24334(13) 0.73919(4)
C19_15 C 0.49681(12) 0.06036(12) 0.71889(4)
C20_15 C 0.41024(13) 0.28686(12) 0.74659(4)
C21_15 C 0.52984(11) 0.04058(11) 0.72970(3)
O5_15 O 0.53476(8) 0.00055(8) 0.72268(2)
C22_8 C 0.80392(15) 0.18329(21) 0.73050(5)
H12_8 H 0.8091 0.1524 0.7295
C23_8 C 0.94834(14) 0.34778(21) 0.64369(4)
H13_8 H 0.9228 0.3250 0.6348
C24_8 C 0.84297(16) 0.23448(23) 0.72335(5)
H14_8 H 0.8740 0.2375 0.7172
C25_8 C 0.87937(14) 0.33565(19) 0.71712(4)
C26_8 C 0.94488(14) 0.38850(21) 0.69243(4)
C27_8 C 0.78984(14) 0.27592(21) 0.73394(4)
H15_8 H 0.7850 0.3069 0.7352
C28_8 C 0.96659(14) 0.38728(21) 0.67421(4)
C29_8 C 0.92951(16) 0.35237(23) 0.66058(5)
H16_8 H 0.8912 0.3319 0.6631
C31_8 C 0.83725(14) 0.28189(20) 0.72513(4)
C34_8 C 0.90329(15) 0.33731(21) 0.70022(4)
H19_8 H 0.8916 0.3039 0.6939
C35_8 C 0.96288(13) 0.43796(18) 0.70220(4)
H20_8 H 0.9906 0.4720 0.6974
C37_8 C 0.75007(14) 0.22505(20) 0.74081(4)
H21_8 H 0.7184 0.2218 0.7466
C38_8 C 0.89707(13) 0.38629(18) 0.72641(4)
H22_8 H 0.8807 0.3866 0.7375
C39_8 C 0.75666(13) 0.17836(18) 0.73919(4)
C40_8 C 0.93964(12) 0.43645(17) 0.71889(4)
C41_8 C 0.71314(12) 0.12338(18) 0.74659(4)
C42_8 C 0.95942(11) 0.48926(16) 0.72970(3)
O12_8 O 0.99945(8) 0.53421(11) 0.72268(2)
H23_7 H 0.772159 0.0159208 0.738301
C9_15 C 0.37190(13) 0.99532(13) 0.63992(4)
C11_15 C 0.37002(14) 0.95727(14) 0.65309(4)
H6_15 H 0.3523 0.9190 0.6505
C12_15 C 0.39472(14) 0.97728(14) 0.66984(4)
H7_15 H 0.3938 0.9520 0.6785
C15_15 C 0.34533(12) 0.97549(12) 0.62151(4)
O3_15 O 0.47723(9) 0.88443(9) 0.72212(3)
H24_7 H 0.744621 0.960845 0.751371
C1_16 C 0.81671(21) 0.62063(14) 0.73050(5)
H1_16 H 0.8476 0.6567 0.7295
C2_16 C 0.65222(21) 0.60056(15) 0.64369(4)
H2_16 H 0.6750 0.5978 0.6348
C3_16 C 0.76552(23) 0.60849(16) 0.72335(5)
H3_16 H 0.7625 0.6365 0.7172
C4_16 C 0.66435(19) 0.54372(13) 0.71712(4)
C5_16 C 0.61150(21) 0.55638(15) 0.69243(4)
C6_16 C 0.72408(21) 0.51392(15) 0.73394(4)
H4_16 H 0.6931 0.4781 0.7352
C7_16 C 0.61272(21) 0.57931(15) 0.67421(4)
C8_16 C 0.64763(23) 0.57714(16) 0.66058(5)
H5_16 H 0.6681 0.5593 0.6631
C9_16 C 0.62342(18) 0.62810(13) 0.63992(4)
C10_16 C 0.71811(20) 0.55536(14) 0.72513(4)
C11_16 C 0.58725(20) 0.62998(14) 0.65309(4)
H6_16 H 0.5667 0.6477 0.6505
C12_16 C 0.58256(20) 0.60528(14) 0.66984(4)
H7_16 H 0.5582 0.6062 0.6785
C13_16 C 0.66269(21) 0.56598(15) 0.70022(4)
H8_16 H 0.6961 0.5877 0.6939
C14_16 C 0.56204(18) 0.52492(13) 0.70220(4)
H9_16 H 0.5280 0.5186 0.6974
C15_16 C 0.63016(17) 0.65467(12) 0.62151(4)
C16_16 C 0.77495(20) 0.52502(14) 0.74081(4)
H10_16 H 0.7782 0.4966 0.7466
C17_16 C 0.61371(18) 0.51078(13) 0.72641(4)
H11_16 H 0.6134 0.4941 0.7375
C18_16 C 0.82164(18) 0.57830(13) 0.73919(4)
C19_16 C 0.56355(17) 0.50319(12) 0.71889(4)
C20_16 C 0.87662(18) 0.58976(13) 0.74659(4)
C21_16 C 0.51074(16) 0.47016(11) 0.72970(3)
O3_16 O 0.40720(13) 0.52277(9) 0.72212(3)
O5_16 O 0.46579(11) 0.46524(8) 0.72268(2)
H24_8 H 0.0391552 0.783776 0.751371
H23_8 H 0.984079 0.756238 0.738301
O22_5 O 0.00047(8) 0.78647(11) 0.41824(2)
C1_17 C 0.52941(15) 0.04604(14) 0.43617(5)
H1_17 H 0.5242 0.0100 0.4372
C2_17 C 0.38499(14) 0.06611(15) 0.52298(4)
H2_17 H 0.4105 0.0689 0.5319
C3_17 C 0.49036(16) 0.05818(16) 0.44332(5)
H3_17 H 0.4593 0.0302 0.4495
C4_17 C 0.45396(14) 0.12295(13) 0.44955(4)
C5_17 C 0.38845(14) 0.11029(15) 0.47424(4)
C6_17 C 0.54349(14) 0.15275(15) 0.43273(4)
H4_17 H 0.5483 0.1886 0.4315
C7_17 C 0.36674(14) 0.08736(15) 0.49246(4)
C8_17 C 0.40382(16) 0.08953(16) 0.50609(5)
H5_17 H 0.4421 0.1074 0.5036
C9_17 C 0.32865(13) 0.03857(13) 0.52675(4)
C10_17 C 0.49608(14) 0.11131(14) 0.44154(4)
C11_17 C 0.29060(14) 0.03669(14) 0.51358(4)
H6_17 H 0.2523 0.0190 0.5162
C12_17 C 0.31061(14) 0.06139(14) 0.49683(4)
H7_17 H 0.2853 0.0605 0.4882
C13_17 C 0.43004(15) 0.10069(15) 0.46645(4)
H8_17 H 0.4417 0.0790 0.4728
C14_17 C 0.37045(13) 0.14175(13) 0.46447(4)
H9_17 H 0.3427 0.1481 0.4693
C15_17 C 0.30882(12) 0.01200(12) 0.54516(4)
C16_17 C 0.58326(14) 0.14165(14) 0.42586(4)
H10_17 H 0.6149 0.1701 0.4201
C17_17 C 0.43626(13) 0.15589(13) 0.44026(4)
H11_17 H 0.4526 0.1726 0.4292
C18_17 C 0.57667(13) 0.08837(13) 0.42748(4)
C19_17 C 0.39369(12) 0.16348(12) 0.44778(4)
C20_17 C 0.62019(12) 0.07691(13) 0.42008(4)
C21_17 C 0.37391(11) 0.19651(11) 0.43697(3)
O1_11 O 0.3333 0.27411(11) 0.4167
O2_17 O 0.3333 0.41881(11) 0.4167
O3_17 O 0.21776(9) 0.14390(9) 0.44455(3)
O4_9 O 0.39619(8) 0.21653(8) 0.42167(2)
O5_17 O 0.33388(8) 0.20143(8) 0.44399(2)
O6_9 O 0.60977(9) 0.02648(9) 0.41959(3)
O7_9 O 0.66619(8) 0.11933(8) 0.41510(2)
C22_9 C 0.51662(21) 0.47059(15) 0.43617(5)
H12_9 H 0.4857 0.4758 0.4372
C23_9 C 0.68111(21) 0.61501(14) 0.52298(4)
H13_9 H 0.6583 0.5895 0.5319
C24_9 C 0.56781(23) 0.50964(16) 0.44332(5)
H14_9 H 0.5708 0.5407 0.4495
C25_9 C 0.66898(19) 0.54604(14) 0.44955(4)
C26_9 C 0.72183(21) 0.61155(14) 0.47424(4)
C27_9 C 0.60925(21) 0.45651(14) 0.43273(4)
H15_9 H 0.6402 0.4517 0.4315
C28_9 C 0.72061(21) 0.63326(14) 0.49246(4)
C29_9 C 0.68570(23) 0.59618(16) 0.50609(5)
H16_9 H 0.6652 0.5579 0.5036
C30_9 C 0.70991(18) 0.67135(13) 0.52675(4)
C31_9 C 0.61522(20) 0.50392(14) 0.44154(4)
C32_9 C 0.74608(20) 0.70940(14) 0.51358(4)
H17_9 H 0.7666 0.7477 0.5162
C33_9 C 0.75077(20) 0.68939(14) 0.49683(4)
H18_9 H 0.7751 0.7147 0.4882
C34_9 C 0.67064(21) 0.56996(15) 0.46645(4)
H19_9 H 0.6372 0.5583 0.4728
C35_9 C 0.77129(18) 0.62955(13) 0.46447(4)
H20_9 H 0.8053 0.6573 0.4693
C36_9 C 0.70317(17) 0.69118(12) 0.54516(4)
C37_9 C 0.55838(20) 0.41674(14) 0.42586(4)
H21_9 H 0.5551 0.3851 0.4201
C38_9 C 0.71962(18) 0.56374(13) 0.44026(4)
H22_9 H 0.7199 0.5474 0.4292
C39_9 C 0.51169(18) 0.42333(13) 0.42748(4)
C40_9 C 0.76978(17) 0.60631(12) 0.44778(4)
C41_9 C 0.45671(18) 0.37981(12) 0.42008(4)
C42_9 C 0.82259(16) 0.62609(11) 0.43697(3)
O10_9 O 0.92613(13) 0.78224(9) 0.44455(3)
O11_5 O 0.82033(11) 0.60381(8) 0.42167(2)
O12_9 O 0.86754(11) 0.66612(8) 0.44399(2)
O13_5 O 0.41670(13) 0.39023(9) 0.41959(3)
O14_5 O 0.45313(11) 0.33381(8) 0.41510(2)
O17_7 O 0.94077(11) 0.6667 0.4167
O18_5 O 0.88319(8) 0.72953(8) 0.41167(2)
O19_9 O 0.27047(8) 0.15367(11) 0.41167(2)
O20_13 O 0.24996(13) 0.30686(9) 0.41375(3)
O21_9 O 0.21353(11) 0.21401(8) 0.41824(2)
C1_18 C 0.95396(14) 0.48338(21) 0.43617(5)
H1_18 H 0.9900 0.5143 0.4372
C2_18 C 0.93389(15) 0.31889(21) 0.52298(4)
H2_18 H 0.9311 0.3417 0.5319
C3_18 C 0.94182(16) 0.43219(23) 0.44332(5)
H3_18 H 0.9698 0.4292 0.4495
C4_18 C 0.87705(13) 0.33102(19) 0.44955(4)
C5_18 C 0.88971(15) 0.27817(21) 0.47424(4)
C6_18 C 0.84725(15) 0.39075(21) 0.43273(4)
H4_18 H 0.8114 0.3598 0.4315
C7_18 C 0.91264(15) 0.27939(21) 0.49246(4)
C8_18 C 0.91047(16) 0.31430(23) 0.50609(5)
H5_18 H 0.8926 0.3348 0.5036
C9_18 C 0.96143(13) 0.29009(18) 0.52675(4)
C10_18 C 0.88869(14) 0.38478(20) 0.44154(4)
C11_18 C 0.96331(14) 0.25392(20) 0.51358(4)
H6_18 H 0.9810 0.2334 0.5162
C12_18 C 0.93861(14) 0.24923(20) 0.49683(4)
H7_18 H 0.9395 0.2249 0.4882
C13_18 C 0.89931(15) 0.32936(21) 0.46645(4)
H8_18 H 0.9210 0.3628 0.4728
C14_18 C 0.85825(13) 0.22871(18) 0.46447(4)
H9_18 H 0.8519 0.1947 0.4693
C15_18 C 0.98800(12) 0.29683(17) 0.54516(4)
C16_18 C 0.85835(14) 0.44162(20) 0.42586(4)
H10_18 H 0.8299 0.4449 0.4201
C17_18 C 0.84411(13) 0.28038(18) 0.44026(4)
H11_18 H 0.8274 0.2801 0.4292
C18_18 C 0.91163(13) 0.48831(18) 0.42748(4)
C19_18 C 0.83652(12) 0.23022(17) 0.44778(4)
C20_18 C 0.92309(13) 0.54329(18) 0.42008(4)
C21_18 C 0.80349(11) 0.17741(16) 0.43697(3)
O1_12 O 0.72589(11) 0.05923(11) 0.4167
O3_18 O 0.85610(9) 0.07387(13) 0.44455(3)
O4_10 O 0.78347(8) 0.17967(11) 0.42167(2)
O5_18 O 0.79857(8) 0.13246(11) 0.44399(2)
O6_10 O 0.97352(9) 0.58330(13) 0.41959(3)
O7_10 O 0.88067(8) 0.54687(11) 0.41510(2)
O19_10 O 0.84633(11) 0.11681(14) 0.41167(2)
O2_18 O 0.58119(11) 0.91453(11) 0.4167
O20_14 O 0.69314(9) 0.94311(16) 0.41375(3)
O21_10 O 0.78599(8) 0.99953(14) 0.41824(2)
O2_19 O 0.08547(11) 0.6667 0.4167
O20_15 O 0.05689(16) 0.75004(13) 0.41375(3)
C23_10 C 0.28167(14) 0.01445(21) 0.31036(4)
C25_10 C 0.21270(14) 0.00232(19) 0.38379(4)
C26_10 C 0.27821(14) 0.05517(21) 0.35910(4)
C28_10 C 0.29992(14) 0.05395(21) 0.34088(4)
C29_10 C 0.26284(16) 0.01904(23) 0.32725(5)
C30_10 C 0.33801(13) 0.04325(18) 0.30659(4)
C32_10 C 0.37606(14) 0.07942(20) 0.31976(4)
H17_10 H 0.4143 0.1000 0.3172
C33_10 C 0.35605(14) 0.08411(20) 0.33651(4)
H18_10 H 0.3813 0.1085 0.3452
C34_10 C 0.23662(15) 0.00398(21) 0.36689(4)
C35_10 C 0.29621(13) 0.10463(18) 0.36887(4)
H20_10 H 0.3239 0.1387 0.3641
C36_10 C 0.35784(12) 0.03651(17) 0.28818(4)
C38_10 C 0.23040(13) 0.05296(18) 0.39308(4)
H22_10 H 0.2140 0.0533 0.4042
C40_10 C 0.27297(12) 0.10312(17) 0.38556(4)
C42_10 C 0.29275(11) 0.15593(16) 0.39637(3)
O10_10 O 0.44890(9) 0.25947(13) 0.38879(3)
O12_10 O 0.33278(8) 0.20088(11) 0.38935(2)
C22_10 C 0.13725(15) 0.84996(21) 0.39717(5)
H12_10 H 0.1424 0.8191 0.3962
H13_10 H 0.2561 0.9917 0.3015
C24_10 C 0.17630(16) 0.90115(23) 0.39002(5)
H14_10 H 0.2073 0.9042 0.3839
C27_10 C 0.12317(14) 0.94259(21) 0.40061(4)
H15_10 H 0.1183 0.9736 0.4019
H16_10 H 0.2245 0.9986 0.3298
C31_10 C 0.17058(14) 0.94856(20) 0.39180(4)
H19_10 H 0.2249 0.9706 0.3606
C37_10 C 0.08340(14) 0.89172(20) 0.40748(4)
H21_10 H 0.0517 0.8885 0.4133
C39_10 C 0.08999(13) 0.84503(18) 0.40586(4)
C41_10 C 0.04647(12) 0.79005(18) 0.41326(4)
C1_19 C 0.71270(14) 0.86275(15) 0.39717(5)
H1_19 H 0.6766 0.8576 0.3962
C2_19 C 0.73277(15) 0.71833(14) 0.31036(4)
H2_19 H 0.7355 0.7439 0.3015
C3_19 C 0.72484(16) 0.82370(16) 0.39002(5)
H3_19 H 0.6968 0.7927 0.3839
C4_19 C 0.78961(13) 0.78730(14) 0.38379(4)
C5_19 C 0.77695(15) 0.72179(14) 0.35910(4)
C6_19 C 0.81941(15) 0.87683(14) 0.40061(4)
H4_19 H 0.8552 0.8817 0.4019
C7_19 C 0.75402(15) 0.70008(14) 0.34088(4)
C8_19 C 0.75619(16) 0.73716(16) 0.32725(5)
H5_19 H 0.7740 0.7755 0.3298
C9_19 C 0.70523(13) 0.66199(13) 0.30659(4)
C10_19 C 0.77797(14) 0.82942(14) 0.39180(4)
C11_19 C 0.70335(14) 0.62394(14) 0.31976(4)
H6_19 H 0.6856 0.5857 0.3172
C12_19 C 0.72805(14) 0.64395(14) 0.33651(4)
H7_19 H 0.7271 0.6187 0.3452
C13_19 C 0.76735(15) 0.76338(15) 0.36689(4)
H8_19 H 0.7456 0.7751 0.3606
C14_19 C 0.80841(13) 0.70379(13) 0.36887(4)
H9_19 H 0.8147 0.6761 0.3641
C15_19 C 0.67866(12) 0.64216(12) 0.28818(4)
C16_19 C 0.80831(14) 0.91660(14) 0.40748(4)
H10_19 H 0.8367 0.9483 0.4133
C17_19 C 0.82255(13) 0.76960(13) 0.39308(4)
H11_19 H 0.8392 0.7860 0.4042
C18_19 C 0.75503(13) 0.91001(13) 0.40586(4)
C19_19 C 0.83014(12) 0.72703(12) 0.38556(4)
C20_19 C 0.74357(13) 0.95353(12) 0.41326(4)
C21_19 C 0.86317(11) 0.70725(11) 0.39637(3)
O3_19 O 0.81056(9) 0.55110(9) 0.38879(3)
O5_19 O 0.86809(8) 0.66722(8) 0.38935(2)
C1_20 C 0.15004(21) 0.28730(14) 0.39717(5)
H1_20 H 0.1809 0.3234 0.3962
H2_20 H 0.0083 0.2645 0.3015
C3_20 C 0.09885(23) 0.27516(16) 0.39002(5)
H3_20 H 0.0958 0.3032 0.3839
C6_20 C 0.05741(21) 0.18059(15) 0.40061(4)
H4_20 H 0.0264 0.1448 0.4019
H5_20 H 0.0014 0.2260 0.3298
C10_20 C 0.05144(20) 0.22203(14) 0.39180(4)
H8_20 H 0.0294 0.2544 0.3606
C16_20 C 0.10828(20) 0.19169(14) 0.40748(4)
H10_20 H 0.1115 0.1633 0.4133
C18_20 C 0.15497(18) 0.24497(13) 0.40586(4)
C20_20 C 0.20995(18) 0.25643(13) 0.41326(4)
C2_20 C 0.98555(21) 0.26723(15) 0.31036(4)
C4_20 C 0.99768(19) 0.21039(13) 0.38379(4)
C5_20 C 0.94483(21) 0.22305(15) 0.35910(4)
C7_20 C 0.94605(21) 0.24598(15) 0.34088(4)
C8_20 C 0.98096(23) 0.24381(16) 0.32725(5)
C9_20 C 0.95675(18) 0.29477(13) 0.30659(4)
C11_20 C 0.92058(20) 0.29665(14) 0.31976(4)
H6_20 H 0.9000 0.3144 0.3172
C12_20 C 0.91589(20) 0.27195(14) 0.33651(4)
H7_20 H 0.8915 0.2729 0.3452
C13_20 C 0.99602(21) 0.23265(15) 0.36689(4)
C14_20 C 0.89537(18) 0.19159(13) 0.36887(4)
H9_20 H 0.8613 0.1853 0.3641
C15_20 C 0.96349(17) 0.32134(12) 0.28818(4)
C17_20 C 0.94704(18) 0.17745(13) 0.39308(4)
H11_20 H 0.9467 0.1608 0.4042
C19_20 C 0.89688(17) 0.16986(12) 0.38556(4)
C21_20 C 0.84407(16) 0.13683(11) 0.39637(3)
O3_20 O 0.74053(13) 0.18944(9) 0.38879(3)
O5_20 O 0.79912(11) 0.13191(8) 0.38935(2)
C23_11 C 0.01445(21) 0.28167(14) 0.18964(4)
C25_11 C 0.00232(19) 0.21270(14) 0.11621(4)
C26_11 C 0.05517(21) 0.27821(14) 0.14090(4)
C28_11 C 0.05395(21) 0.29992(14) 0.15912(4)
C29_11 C 0.01904(23) 0.26284(16) 0.17275(5)
C30_11 C 0.04325(18) 0.33801(13) 0.19341(4)
C32_11 C 0.07942(20) 0.37606(14) 0.18024(4)
H17_11 H 0.1000 0.4143 0.1828
C33_11 C 0.08411(20) 0.35605(14) 0.16349(4)
H18_11 H 0.1085 0.3813 0.1548
C34_11 C 0.00398(21) 0.23662(15) 0.13311(4)
C35_11 C 0.10463(18) 0.29621(13) 0.13113(4)
H20_11 H 0.1387 0.3239 0.1359
C36_11 C 0.03651(17) 0.35784(12) 0.21182(4)
C38_11 C 0.05296(18) 0.23040(13) 0.10692(4)
H22_11 H 0.0533 0.2140 0.0958
C40_11 C 0.10312(17) 0.27297(12) 0.11444(4)
C42_11 C 0.15593(16) 0.29275(11) 0.10363(3)
O10_11 O 0.25947(13) 0.44890(9) 0.11121(3)
O11_6 O 0.15367(11) 0.27047(8) 0.08833(2)
O12_11 O 0.20088(11) 0.33278(8) 0.11065(2)
O17_8 O 0.27411(11) 0.3333 0.0833
O18_6 O 0.21653(8) 0.39619(8) 0.07833(2)
O22_6 O 0.33381(8) 0.45313(11) 0.08490(2)
O2_20 O 0.6667 0.08547(11) 0.0833
C22_11 C 0.84996(21) 0.13725(15) 0.10283(5)
H12_11 H 0.8191 0.1424 0.1038
H13_11 H 0.9917 0.2561 0.1985
C24_11 C 0.90115(23) 0.17630(16) 0.10998(5)
H14_11 H 0.9042 0.2073 0.1161
C27_11 C 0.94259(21) 0.12317(14) 0.09939(4)
H15_11 H 0.9736 0.1183 0.0981
H16_11 H 0.9986 0.2245 0.1702
C31_11 C 0.94856(20) 0.17058(14) 0.10820(4)
H19_11 H 0.9706 0.2249 0.1394
C37_11 C 0.89172(20) 0.08340(14) 0.09252(4)
H21_11 H 0.8885 0.0517 0.0867
C39_11 C 0.84503(18) 0.08999(13) 0.09414(4)
C41_11 C 0.79005(18) 0.04647(12) 0.08674(4)
O13_6 O 0.75004(13) 0.05689(9) 0.08625(3)
O14_6 O 0.78647(11) 0.00047(8) 0.08176(2)
C1_21 C 0.86275(15) 0.71270(14) 0.10283(5)
H1_21 H 0.8576 0.6766 0.1038
C2_21 C 0.71833(14) 0.73277(15) 0.18964(4)
H2_21 H 0.7439 0.7355 0.1985
C3_21 C 0.82370(16) 0.72484(16) 0.10998(5)
H3_21 H 0.7927 0.6968 0.1161
C4_21 C 0.78730(14) 0.78961(13) 0.11621(4)
C5_21 C 0.72179(14) 0.77695(15) 0.14090(4)
C6_21 C 0.87683(14) 0.81941(15) 0.09939(4)
H4_21 H 0.8817 0.8552 0.0981
C7_21 C 0.70008(14) 0.75402(15) 0.15912(4)
C8_21 C 0.73716(16) 0.75619(16) 0.17275(5)
H5_21 H 0.7755 0.7740 0.1702
C9_21 C 0.66199(13) 0.70523(13) 0.19341(4)
C10_21 C 0.82942(14) 0.77797(14) 0.10820(4)
C11_21 C 0.62394(14) 0.70335(14) 0.18024(4)
H6_21 H 0.5857 0.6856 0.1828
C12_21 C 0.64395(14) 0.72805(14) 0.16349(4)
H7_21 H 0.6187 0.7271 0.1548
C13_21 C 0.76338(15) 0.76735(15) 0.13311(4)
H8_21 H 0.7751 0.7456 0.1394
C14_21 C 0.70379(13) 0.80841(13) 0.13113(4)
H9_21 H 0.6761 0.8147 0.1359
C15_21 C 0.64216(12) 0.67866(12) 0.21182(4)
C16_21 C 0.91660(14) 0.80831(14) 0.09252(4)
H10_21 H 0.9483 0.8367 0.0867
C17_21 C 0.76960(13) 0.82255(13) 0.10692(4)
H11_21 H 0.7860 0.8392 0.0958
C18_21 C 0.91001(13) 0.75503(13) 0.09414(4)
C19_21 C 0.72703(12) 0.83014(12) 0.11444(4)
C20_21 C 0.95353(12) 0.74357(13) 0.08674(4)
C21_21 C 0.70725(11) 0.86317(11) 0.10363(3)
O1_13 O 0.6667 0.94077(11) 0.0833
O3_21 O 0.55110(9) 0.81056(9) 0.11121(3)
O4_11 O 0.72953(8) 0.88319(8) 0.08833(2)
O5_21 O 0.66722(8) 0.86809(8) 0.11065(2)
O6_11 O 0.94311(9) 0.69314(9) 0.08625(3)
O7_11 O 0.99953(8) 0.78599(8) 0.08176(2)
O19_11 O 0.60381(8) 0.82033(11) 0.07833(2)
O20_16 O 0.58330(13) 0.97352(9) 0.08041(3)
O21_11 O 0.54687(11) 0.88067(8) 0.08490(2)
C1_22 C 0.28730(14) 0.15004(21) 0.10283(5)
H1_22 H 0.3234 0.1809 0.1038
H2_22 H 0.2645 0.0083 0.1985
C3_22 C 0.27516(16) 0.09885(23) 0.10998(5)
H3_22 H 0.3032 0.0958 0.1161
C6_22 C 0.18059(15) 0.05741(21) 0.09939(4)
H4_22 H 0.1448 0.0264 0.0981
H5_22 H 0.2260 0.0014 0.1702
C10_22 C 0.22203(14) 0.05144(20) 0.10820(4)
H8_22 H 0.2544 0.0294 0.1394
C16_22 C 0.19169(14) 0.10828(20) 0.09252(4)
H10_22 H 0.1633 0.1115 0.0867
C18_22 C 0.24497(13) 0.15497(18) 0.09414(4)
C20_22 C 0.25643(13) 0.20995(18) 0.08674(4)
O6_12 O 0.30686(9) 0.24996(13) 0.08625(3)
O7_12 O 0.21401(8) 0.21353(11) 0.08176(2)
C2_22 C 0.26723(15) 0.98555(21) 0.18964(4)
C4_22 C 0.21039(13) 0.99768(19) 0.11621(4)
C5_22 C 0.22305(15) 0.94483(21) 0.14090(4)
C7_22 C 0.24598(15) 0.94605(21) 0.15912(4)
C8_22 C 0.24381(16) 0.98096(23) 0.17275(5)
C9_22 C 0.29477(13) 0.95675(18) 0.19341(4)
C11_22 C 0.29665(14) 0.92058(20) 0.18024(4)
H6_22 H 0.3144 0.9000 0.1828
C12_22 C 0.27195(14) 0.91589(20) 0.16349(4)
H7_22 H 0.2729 0.8915 0.1548
C13_22 C 0.23265(15) 0.99602(21) 0.13311(4)
C14_22 C 0.19159(13) 0.89537(18) 0.13113(4)
H9_22 H 0.1853 0.8613 0.1359
C15_22 C 0.32134(12) 0.96349(17) 0.21182(4)
C17_22 C 0.17745(13) 0.94704(18) 0.10692(4)
H11_22 H 0.1608 0.9467 0.0958
C19_22 C 0.16986(12) 0.89688(17) 0.11444(4)
C21_22 C 0.13683(11) 0.84407(16) 0.10363(3)
O1_14 O 0.05923(11) 0.72589(11) 0.0833
O3_22 O 0.18944(9) 0.74053(13) 0.11121(3)
O4_12 O 0.11681(8) 0.84633(11) 0.08833(2)
O5_22 O 0.13191(8) 0.79912(11) 0.11065(2)
O19_12 O 0.17967(11) 0.78347(14) 0.07833(2)
O20_17 O 0.02648(9) 0.60977(16) 0.08041(3)
O21_12 O 0.11933(8) 0.66619(14) 0.08490(2)
O2_21 O 0.91453(11) 0.58119(11) 0.0833
O2_22 O 0.41881(11) 0.3333 0.0833
O20_18 O 0.39023(16) 0.41670(13) 0.08041(3)
C1_23 C 0.04604(14) 0.52941(15) 0.06383(5)
H1_23 H 0.0100 0.5242 0.0628
C3_23 C 0.05818(16) 0.49036(16) 0.05668(5)
H3_23 H 0.0302 0.4593 0.0505
C4_23 C 0.12295(13) 0.45396(14) 0.05045(4)
C5_23 C 0.11029(15) 0.38845(14) 0.02576(4)
C6_23 C 0.15275(15) 0.54349(14) 0.06727(4)
H4_23 H 0.1886 0.5483 0.0685
C7_23 C 0.08736(15) 0.36674(14) 0.00754(4)
C10_23 C 0.11131(14) 0.49608(14) 0.05846(4)
C12_23 C 0.06139(14) 0.31061(14) 0.00317(4)
H7_23 H 0.0605 0.2853 0.0118
C13_23 C 0.10069(15) 0.43004(15) 0.03355(4)
H8_23 H 0.0790 0.4417 0.0272
C14_23 C 0.14175(13) 0.37045(13) 0.03553(4)
H9_23 H 0.1481 0.3427 0.0307
C16_23 C 0.14165(14) 0.58326(14) 0.07414(4)
H10_23 H 0.1701 0.6149 0.0799
C17_23 C 0.15589(13) 0.43626(13) 0.05974(4)
H11_23 H 0.1726 0.4526 0.0708
C18_23 C 0.08837(13) 0.57667(13) 0.07252(4)
C19_23 C 0.16348(12) 0.39369(12) 0.05222(4)
C20_23 C 0.07691(13) 0.62019(12) 0.07992(4)
C21_23 C 0.19651(11) 0.37391(11) 0.06303(3)
O3_23 O 0.14390(9) 0.21776(9) 0.05545(3)
O5_23 O 0.20143(8) 0.33388(8) 0.05601(2)
C22_12 C 0.47059(15) 0.51662(21) 0.06383(5)
H12_12 H 0.4758 0.4857 0.0628
C24_12 C 0.50964(16) 0.56781(23) 0.05668(5)
H14_12 H 0.5407 0.5708 0.0505
C25_12 C 0.54604(14) 0.66898(19) 0.05045(4)
C26_12 C 0.61155(14) 0.72183(21) 0.02576(4)
C27_12 C 0.45651(14) 0.60925(21) 0.06727(4)
H15_12 H 0.4517 0.6402 0.0685
C28_12 C 0.63326(14) 0.72061(21) 0.00754(4)
C31_12 C 0.50392(14) 0.61522(20) 0.05846(4)
C33_12 C 0.68939(14) 0.75077(20) 0.00317(4)
H18_12 H 0.7147 0.7751 0.0118
C34_12 C 0.56996(15) 0.67064(21) 0.03355(4)
H19_12 H 0.5583 0.6372 0.0272
C35_12 C 0.62955(13) 0.77129(18) 0.03553(4)
H20_12 H 0.6573 0.8053 0.0307
C37_12 C 0.41674(14) 0.55838(20) 0.07414(4)
H21_12 H 0.3851 0.5551 0.0799
C38_12 C 0.56374(13) 0.71962(18) 0.05974(4)
H22_12 H 0.5474 0.7199 0.0708
C39_12 C 0.42333(13) 0.51169(18) 0.07252(4)
C40_12 C 0.60631(12) 0.76978(17) 0.05222(4)
C41_12 C 0.37981(12) 0.45671(18) 0.07992(4)
C42_12 C 0.62609(11) 0.82259(16) 0.06303(3)
O10_12 O 0.78224(9) 0.92613(13) 0.05545(3)
O12_12 O 0.66612(8) 0.86754(11) 0.05601(2)
C2_23 C 0.06611(15) 0.38499(14) 0.97702(4)
H2_23 H 0.0689 0.4105 0.9681
C8_23 C 0.08953(16) 0.40382(16) 0.99391(5)
H5_23 H 0.1074 0.4421 0.9964
C9_23 C 0.03857(13) 0.32865(13) 0.97325(4)
C11_23 C 0.03669(14) 0.29060(14) 0.98642(4)
H6_23 H 0.0190 0.2523 0.9838
C15_23 C 0.01200(12) 0.30882(12) 0.95484(4)
C23_12 C 0.61501(14) 0.68111(21) 0.97702(4)
H13_12 H 0.5895 0.6583 0.9681
C29_12 C 0.59618(16) 0.68570(23) 0.99391(5)
H16_12 H 0.5579 0.6652 0.9964
C30_12 C 0.67135(13) 0.70991(18) 0.97325(4)
C32_12 C 0.70940(14) 0.74608(20) 0.98642(4)
H17_12 H 0.7477 0.7666 0.9838
C36_12 C 0.69118(12) 0.70317(17) 0.95484(4)
C1_24 C 0.48338(21) 0.95396(14) 0.06383(5)
H1_24 H 0.5143 0.9900 0.0628
C3_24 C 0.43219(23) 0.94182(16) 0.05668(5)
H3_24 H 0.4292 0.9698 0.0505
C4_24 C 0.33102(19) 0.87705(13) 0.05045(4)
C5_24 C 0.27817(21) 0.88971(15) 0.02576(4)
C6_24 C 0.39075(21) 0.84725(15) 0.06727(4)
H4_24 H 0.3598 0.8114 0.0685
C7_24 C 0.27939(21) 0.91264(15) 0.00754(4)
C10_24 C 0.38478(20) 0.88869(14) 0.05846(4)
C12_24 C 0.24923(20) 0.93861(14) 0.00317(4)
H7_24 H 0.2249 0.9395 0.0118
C13_24 C 0.32936(21) 0.89931(15) 0.03355(4)
H8_24 H 0.3628 0.9210 0.0272
C14_24 C 0.22871(18) 0.85825(13) 0.03553(4)
H9_24 H 0.1947 0.8519 0.0307
C16_24 C 0.44162(20) 0.85835(14) 0.07414(4)
H10_24 H 0.4449 0.8299 0.0799
C17_24 C 0.28038(18) 0.84411(13) 0.05974(4)
H11_24 H 0.2801 0.8274 0.0708
C18_24 C 0.48831(18) 0.91163(13) 0.07252(4)
C19_24 C 0.23022(17) 0.83652(12) 0.05222(4)
C20_24 C 0.54329(18) 0.92309(13) 0.07992(4)
C21_24 C 0.17741(16) 0.80349(11) 0.06303(3)
O3_24 O 0.07387(13) 0.85610(9) 0.05545(3)
O5_24 O 0.13246(11) 0.79857(8) 0.05601(2)
C2_24 C 0.31889(21) 0.93389(15) 0.97702(4)
H2_24 H 0.3417 0.9311 0.9681
C8_24 C 0.31430(23) 0.91047(16) 0.99391(5)
H5_24 H 0.3348 0.8926 0.9964
C9_24 C 0.29009(18) 0.96143(13) 0.97325(4)
C11_24 C 0.25392(20) 0.96331(14) 0.98642(4)
H6_24 H 0.2334 0.9810 0.9838
C15_24 C 0.29683(17) 0.98800(12) 0.95484(4)
loop_
_geom_bond_atom_site_label_1
_geom_bond_atom_site_label_2
_geom_bond_site_symmetry_1
_geom_bond_site_symmetry_2
Fe1 O1 1_555 1_555
Fe2 O1 1_555 1_555
C11 C9 1_555 1_555
H6 C11 1_555 1_555
H7 C12 1_555 1_555
C15 C9 1_555 1_555
O2 Fe1 1_555 1_555
O3 Fe2 1_555 1_555
O9 C15 1_555 1_555
Fe11 O9 1_555 1_555
O19 Fe2 1_555 1_555
O20 Fe1 1_555 1_555
O21 Fe2 1_555 1_555
O23 Fe1 1_555 1_555
O26 Fe2 1_555 1_555
C11 C12 1_555 1_555
O2 H24 1_555 1_555
Fe1_2 O1_2 1_555 1_555
C1 H1 1_555 1_555
C2 H2 1_555 1_555
C3 C1 1_555 1_555
H3 C3 1_555 1_555
C4 C10 1_555 1_555
C5 C7 1_555 1_555
C6 H4 1_555 1_555
C7 C8 1_555 1_555
C8 C2 1_555 1_555
H5 C8 1_555 1_555
C10 C3 1_555 1_555
C13 C4 1_555 1_555
H8 C13 1_555 1_555
C14 C5 1_555 1_555
H9 C14 1_555 1_555
C16 C6 1_555 1_555
H10 C16 1_555 1_555
C17 C4 1_555 1_555
H11 C17 1_555 1_555
C18 C1 1_555 1_555
C19 C14 1_555 1_555
C20 C18 1_555 1_555
C21 C19 1_555 1_555
O1_2 Fe9 1_555 1_555
O2_2 Fe1_2 1_555 1_555
O4 C21 1_555 1_555
O6 C20 1_555 1_555
O7 C20 1_555 1_555
C22 H12 1_555 1_555
C23 H13 1_555 1_555
C24 C22 1_555 1_555
H14 C24 1_555 1_555
C25 C31 1_555 1_555
C26 C28 1_555 1_555
C27 H15 1_555 1_555
C28 C29 1_555 1_555
C29 C23 1_555 1_555
H16 C29 1_555 1_555
C31 C24 1_555 1_555
C34 C25 1_555 1_555
H19 C34 1_555 1_555
C35 C26 1_555 1_555
H20 C35 1_555 1_555
C37 C27 1_555 1_555
H21 C37 1_555 1_555
C38 C25 1_555 1_555
H22 C38 1_555 1_555
C39 C22 1_555 1_555
C40 C35 1_555 1_555
C41 C39 1_555 1_555
C42 C40 1_555 1_555
O11 C42 1_555 1_555
O13 Fe1_2 1_555 1_555
O14 C41 1_555 1_555
Fe4 O6 1_555 1_555
Fe5 O15 1_555 1_555
Fe6 O8 1_555 1_555
Fe7 O11 1_555 1_555
Fe8 O7 1_555 1_555
Fe9 O4 1_555 1_555
O24 Fe1_2 1_555 1_555
C5 C13 1_555 1_555
C6 C10 1_555 1_555
C16 C18 1_555 1_555
C17 C19 1_555 1_555
C21 O5 1_555 1_555
C26 C34 1_555 1_555
C27 C31 1_555 1_555
C37 C39 1_555 1_555
C38 C40 1_555 1_555
C41 O13 1_555 1_555
C42 O12 1_555 1_555
O14 Fe9 1_555 1_555
Fe7 O17 1_555 1_555
O2_2 H23 1_555 1_555
Fe3 O10 1_555 1_555
C32 C30 1_555 1_555
H17 C32 1_555 1_555
H18 C33 1_555 1_555
C36 C30 1_555 1_555
O16 C36 1_555 1_555
Fe10 O16 1_555 1_555
O17_2 Fe3 1_555 1_555
O18 Fe3 1_555 1_555
O22 Fe3 1_555 1_555
O25 Fe3 1_555 1_555
C32 C33 1_555 1_555
Fe4 O1_3 1_555 1_555
Fe2_2 O1_3 1_555 1_555
C1_2 H1_2 1_555 1_555
C2_2 H2_2 1_555 1_555
C3_2 C1_2 1_555 1_555
H3_2 C3_2 1_555 1_555
C4_2 C10_2 1_555 1_555
C5_2 C7_2 1_555 1_555
C6_2 H4_2 1_555 1_555
C7_2 C8_2 1_555 1_555
C8_2 C2_2 1_555 1_555
H5_2 C8_2 1_555 1_555
C9_2 C2_2 1_555 1_555
C10_2 C3_2 1_555 1_555
C11_2 C9_2 1_555 1_555
H6_2 C11_2 1_555 1_555
C12_2 C7_2 1_555 1_555
H7_2 C12_2 1_555 1_555
C13_2 C4_2 1_555 1_555
H8_2 C13_2 1_555 1_555
C14_2 C5_2 1_555 1_555
H9_2 C14_2 1_555 1_555
C15_2 C9_2 1_555 1_555
C16_2 C6_2 1_555 1_555
H10_2 C16_2 1_555 1_555
C17_2 C4_2 1_555 1_555
H11_2 C17_2 1_555 1_555
C18_2 C1_2 1_555 1_555
C19_2 C14_2 1_555 1_555
C20_2 C18_2 1_555 1_555
C21_2 C19_2 1_555 1_555
O1_3 Fe8 1_555 1_555
O2_3 Fe4 1_555 1_555
O3_2 Fe2_2 1_555 1_555
O4_2 C21_2 1_555 1_555
O5_2 Fe2_2 1_555 1_555
O6_2 C20_2 1_555 1_555
O7_2 C20_2 1_555 1_555
O8_2 C15_2 1_555 1_555
O9_2 C15_2 1_555 1_555
Fe4_2 O6_2 1_555 1_555
Fe6_2 O8_2 1_555 1_555
Fe7 O7_2 1_555 1_555
Fe8 O4_2 1_555 1_555
Fe11_2 O9_2 1_555 1_555
O19_2 Fe2_2 1_555 1_555
O20_2 Fe4 1_555 1_555
O21_2 Fe2_2 1_555 1_555
O23_2 Fe4 1_555 1_555
O24_2 Fe4 1_555 1_555
O26_2 Fe2_2 1_555 1_555
C5_2 C13_2 1_555 1_555
C6_2 C10_2 1_555 1_555
C11_2 C12_2 1_555 1_555
C16_2 C18_2 1_555 1_555
C17_2 C19_2 1_555 1_555
C21_2 O5_2 1_555 1_555
Fe4_2 O17 1_555 1_555
O2_4 Fe4_2 1_555 1_555
O24_3 Fe4_2 1_555 1_555
O2_4 H23_2 1_555 1_555
Fe4_3 O17_2 1_555 1_555
O2_5 Fe4_3 1_555 1_555
O20_3 Fe4_3 1_555 1_555
O23_3 Fe4_3 1_555 1_555
O2_5 H24_2 1_555 1_555
C11_3 C9_3 1_555 1_555
H6_3 C11_3 1_555 1_555
H7_3 C12_3 1_555 1_555
C15_3 C9_3 1_555 1_555
O3_3 Fe7 1_555 1_555
O9_3 C15_3 1_555 1_555
Fe11_3 O9_3 1_555 1_555
O26_3 Fe7 1_555 1_555
C11_3 C12_3 1_555 1_555
O2_4 H24_3 1_555 1_555
C1_3 H1_3 1_555 1_555
C2_3 H2_3 1_555 1_555
C3_3 C1_3 1_555 1_555
H3_3 C3_3 1_555 1_555
C4_3 C10_3 1_555 1_555
C5_3 C7_3 1_555 1_555
C6_3 H4_3 1_555 1_555
C7_3 C8_3 1_555 1_555
C8_3 C2_3 1_555 1_555
H5_3 C8_3 1_555 1_555
C10_3 C3_3 1_555 1_555
C13_3 C4_3 1_555 1_555
H8_3 C13_3 1_555 1_555
C14_3 C5_3 1_555 1_555
H9_3 C14_3 1_555 1_555
C16_3 C6_3 1_555 1_555
H10_3 C16_3 1_555 1_555
C17_3 C4_3 1_555 1_555
H11_3 C17_3 1_555 1_555
C18_3 C1_3 1_555 1_555
C19_3 C14_3 1_555 1_555
C20_3 C18_3 1_555 1_555
C21_3 C19_3 1_555 1_555
O18 C21_3 1_555 1_555
O20_2 C20_3 1_555 1_555
O21_2 C20_3 1_555 1_555
C22_2 H12_2 1_555 1_555
C23_2 H13_2 1_555 1_555
C24_2 C22_2 1_555 1_555
H14_2 C24_2 1_555 1_555
C25_2 C31_2 1_555 1_555
C26_2 C28_2 1_555 1_555
C27_2 H15_2 1_555 1_555
C28_2 C29_2 1_555 1_555
C29_2 C23_2 1_555 1_555
H16_2 C29_2 1_555 1_555
C31_2 C24_2 1_555 1_555
C34_2 C25_2 1_555 1_555
H19_2 C34_2 1_555 1_555
C35_2 C26_2 1_555 1_555
H20_2 C35_2 1_555 1_555
C37_2 C27_2 1_555 1_555
H21_2 C37_2 1_555 1_555
C38_2 C25_2 1_555 1_555
H22_2 C38_2 1_555 1_555
C39_2 C22_2 1_555 1_555
C40_2 C35_2 1_555 1_555
C41_2 C39_2 1_555 1_555
C42_2 C40_2 1_555 1_555
O19 C42_2 1_555 1_555
O22 C41_2 1_555 1_555
Fe5_2 O15_2 1_555 1_555
Fe6_3 O8_3 1_555 1_555
C5_3 C13_3 1_555 1_555
C6_3 C10_3 1_555 1_555
C16_3 C18_3 1_555 1_555
C17_3 C19_3 1_555 1_555
C21_3 O5_3 1_555 1_555
C26_2 C34_2 1_555 1_555
C27_2 C31_2 1_555 1_555
C37_2 C39_2 1_555 1_555
C38_2 C40_2 1_555 1_555
C41_2 O20_3 1_555 1_555
C42_2 O12_2 1_555 1_555
O2_5 H23_3 1_555 1_555
Fe9 O10_2 1_555 1_555
C32_2 C30_2 1_555 1_555
H17_2 C32_2 1_555 1_555
H18_2 C33_2 1_555 1_555
C36_2 C30_2 1_555 1_555
O16_2 C36_2 1_555 1_555
Fe10_2 O16_2 1_555 1_555
O25_2 Fe9 1_555 1_555
C32_2 C33_2 1_555 1_555
C1_4 H1_4 1_555 1_555
C2_4 H2_4 1_555 1_555
C3_4 C1_4 1_555 1_555
H3_4 C3_4 1_555 1_555
C4_4 C10_4 1_555 1_555
C5_4 C7_4 1_555 1_555
C6_4 H4_4 1_555 1_555
C7_4 C8_4 1_555 1_555
C8_4 C2_4 1_555 1_555
H5_4 C8_4 1_555 1_555
C9_4 C2_4 1_555 1_555
C10_4 C3_4 1_555 1_555
C11_4 C9_4 1_555 1_555
H6_4 C11_4 1_555 1_555
C12_4 C7_4 1_555 1_555
H7_4 C12_4 1_555 1_555
C13_4 C4_4 1_555 1_555
H8_4 C13_4 1_555 1_555
C14_4 C5_4 1_555 1_555
H9_4 C14_4 1_555 1_555
C15_4 C9_4 1_555 1_555
C16_4 C6_4 1_555 1_555
H10_4 C16_4 1_555 1_555
C17_4 C4_4 1_555 1_555
H11_4 C17_4 1_555 1_555
C18_4 C1_4 1_555 1_555
C19_4 C14_4 1_555 1_555
C20_4 C18_4 1_555 1_555
C21_4 C19_4 1_555 1_555
O3_4 Fe8 1_555 1_555
O19_2 C21_4 1_555 1_555
O5_4 Fe8 1_555 1_555
O20 C20_4 1_555 1_555
O21 C20_4 1_555 1_555
O8_4 C15_4 1_555 1_555
O9_4 C15_4 1_555 1_555
Fe6_4 O8_4 1_555 1_555
Fe11_4 O9_4 1_555 1_555
O26_4 Fe8 1_555 1_555
C5_4 C13_4 1_555 1_555
C6_4 C10_4 1_555 1_555
C11_4 C12_4 1_555 1_555
C16_4 C18_4 1_555 1_555
C17_4 C19_4 1_555 1_555
C21_4 O5_4 1_555 1_555
O2 H23_4 1_555 1_555
O2_2 H24_4 1_555 1_555
Fe11_5 O9_5 1_555 1_555
Fe1_3 O1_4 1_555 1_555
Fe2_3 O1_4 1_555 1_555
C1_5 H1_5 1_555 1_555
C2_5 H2_5 1_555 1_555
C3_5 C1_5 1_555 1_555
H3_5 C3_5 1_555 1_555
C4_5 C10_5 1_555 1_555
C5_5 C7_5 1_555 1_555
C6_5 H4_5 1_555 1_555
C7_5 C8_5 1_555 1_555
C8_5 C2_5 1_555 1_555
H5_5 C8_5 1_555 1_555
C9_5 C2_5 1_555 1_555
C10_5 C3_5 1_555 1_555
C11_5 C9_5 1_555 1_555
H6_5 C11_5 1_555 1_555
C12_5 C7_5 1_555 1_555
H7_5 C12_5 1_555 1_555
C13_5 C4_5 1_555 1_555
H8_5 C13_5 1_555 1_555
C14_5 C5_5 1_555 1_555
H9_5 C14_5 1_555 1_555
C15_5 C9_5 1_555 1_555
C16_5 C6_5 1_555 1_555
H10_5 C16_5 1_555 1_555
C17_5 C4_5 1_555 1_555
H11_5 C17_5 1_555 1_555
C18_5 C1_5 1_555 1_555
C19_5 C14_5 1_555 1_555
C20_5 C18_5 1_555 1_555
C21_5 C19_5 1_555 1_555
O1_4 Fe9_2 1_555 1_555
O2_6 Fe1_3 1_555 1_555
O3_5 Fe2_3 1_555 1_555
O4_3 C21_5 1_555 1_555
O5_5 Fe2_3 1_555 1_555
O6_3 C20_5 1_555 1_555
O7_3 C20_5 1_555 1_555
O8_5 C15_5 1_555 1_555
Fe3_2 O10_3 1_555 1_555
C22_3 H12_3 1_555 1_555
C23_3 H13_3 1_555 1_555
C24_3 C22_3 1_555 1_555
H14_3 C24_3 1_555 1_555
C25_3 C31_3 1_555 1_555
C26_3 C28_3 1_555 1_555
C27_3 H15_3 1_555 1_555
C28_3 C29_3 1_555 1_555
C29_3 C23_3 1_555 1_555
H16_3 C29_3 1_555 1_555
C30_3 C23_3 1_555 1_555
C31_3 C24_3 1_555 1_555
C32_3 C30_3 1_555 1_555
H17_3 C32_3 1_555 1_555
C33_3 C28_3 1_555 1_555
H18_3 C33_3 1_555 1_555
C34_3 C25_3 1_555 1_555
H19_3 C34_3 1_555 1_555
C35_3 C26_3 1_555 1_555
H20_3 C35_3 1_555 1_555
C36_3 C30_3 1_555 1_555
C37_3 C27_3 1_555 1_555
H21_3 C37_3 1_555 1_555
C38_3 C25_3 1_555 1_555
H22_3 C38_3 1_555 1_555
C39_3 C22_3 1_555 1_555
C40_3 C35_3 1_555 1_555
C41_3 C39_3 1_555 1_555
C42_3 C40_3 1_555 1_555
O11_2 C42_3 1_555 1_555
O12_3 Fe3_2 1_555 1_555
O13_2 Fe1_3 1_555 1_555
O14_2 C41_3 1_555 1_555
O15_3 C36_3 1_555 1_555
O16_3 C36_3 1_555 1_555
Fe6_4 O15_3 1_555 1_555
Fe6_3 O8_5 1_555 1_555
Fe7_2 O11_2 1_555 1_555
Fe8_2 O7_3 1_555 1_555
Fe9_2 O4_3 1_555 1_555
Fe10_3 O16_3 1_555 1_555
O17_3 Fe3_2 1_555 1_555
O18_2 Fe3_2 1_555 1_555
O19_3 Fe2_3 1_555 1_555
O20_4 Fe1_3 1_555 1_555
O21_3 Fe2_3 1_555 1_555
O23_4 Fe1_3 1_555 1_555
O24_4 Fe1_3 1_555 1_555
O25_3 Fe3_2 1_555 1_555
O26_5 Fe2_3 1_555 1_555
C5_5 C13_5 1_555 1_555
C6_5 C10_5 1_555 1_555
C11_5 C12_5 1_555 1_555
C16_5 C18_5 1_555 1_555
C17_5 C19_5 1_555 1_555
C21_5 O5_5 1_555 1_555
C26_3 C34_3 1_555 1_555
C27_3 C31_3 1_555 1_555
C32_3 C33_3 1_555 1_555
C37_3 C39_3 1_555 1_555
C38_3 C40_3 1_555 1_555
C41_3 O13_2 1_555 1_555
C42_3 O12_3 1_555 1_555
O14_2 Fe9_2 1_555 1_555
Fe7_2 O17_3 1_555 1_555
O2_7 Fe4_4 1_555 1_555
O20_5 Fe4_4 1_555 1_555
O23_5 Fe4_4 1_555 1_555
O24_5 Fe4_4 1_555 1_555
Fe2_4 O1_5 1_555 1_555
C1_6 H1_6 1_555 1_555
C2_6 H2_6 1_555 1_555
C3_6 C1_6 1_555 1_555
H3_6 C3_6 1_555 1_555
C4_6 C10_6 1_555 1_555
C5_6 C7_6 1_555 1_555
C6_6 H4_6 1_555 1_555
C7_6 C8_6 1_555 1_555
C8_6 C2_6 1_555 1_555
H5_6 C8_6 1_555 1_555
C9_6 C2_6 1_555 1_555
C10_6 C3_6 1_555 1_555
C11_6 C9_6 1_555 1_555
H6_6 C11_6 1_555 1_555
C12_6 C7_6 1_555 1_555
H7_6 C12_6 1_555 1_555
C13_6 C4_6 1_555 1_555
H8_6 C13_6 1_555 1_555
C14_6 C5_6 1_555 1_555
H9_6 C14_6 1_555 1_555
C15_6 C9_6 1_555 1_555
C16_6 C6_6 1_555 1_555
H10_6 C16_6 1_555 1_555
C17_6 C4_6 1_555 1_555
H11_6 C17_6 1_555 1_555
C18_6 C1_6 1_555 1_555
C19_6 C14_6 1_555 1_555
C20_6 C18_6 1_555 1_555
C21_6 C19_6 1_555 1_555
O1_5 Fe8_2 1_555 1_555
O3_6 Fe2_4 1_555 1_555
O4_4 C21_6 1_555 1_555
O5_6 Fe2_4 1_555 1_555
O6_4 C20_6 1_555 1_555
O7_4 C20_6 1_555 1_555
O8_6 C15_6 1_555 1_555
Fe5_2 O8_6 1_555 1_555
Fe7_2 O7_4 1_555 1_555
Fe8_2 O4_4 1_555 1_555
O19_4 Fe2_4 1_555 1_555
O26_6 Fe2_4 1_555 1_555
C5_6 C13_6 1_555 1_555
C6_6 C10_6 1_555 1_555
C11_6 C12_6 1_555 1_555
C16_6 C18_6 1_555 1_555
C17_6 C19_6 1_555 1_555
C21_6 O5_6 1_555 1_555
Fe11_6 O9_6 1_555 1_555
O2_8 Fe4_5 1_555 1_555
O20_6 Fe4_5 1_555 1_555
O23_6 Fe4_5 1_555 1_555
O24_6 Fe4_5 1_555 1_555
C1_7 H1_7 1_555 1_555
C2_7 H2_7 1_555 1_555
C3_7 C1_7 1_555 1_555
H3_7 C3_7 1_555 1_555
C4_7 C10_7 1_555 1_555
C5_7 C7_7 1_555 1_555
C6_7 H4_7 1_555 1_555
C7_7 C8_7 1_555 1_555
C8_7 C2_7 1_555 1_555
H5_7 C8_7 1_555 1_555
C9_7 C2_7 1_555 1_555
C10_7 C3_7 1_555 1_555
C11_7 C9_7 1_555 1_555
H6_7 C11_7 1_555 1_555
C12_7 C7_7 1_555 1_555
H7_7 C12_7 1_555 1_555
C13_7 C4_7 1_555 1_555
H8_7 C13_7 1_555 1_555
C14_7 C5_7 1_555 1_555
H9_7 C14_7 1_555 1_555
C15_7 C9_7 1_555 1_555
C16_7 C6_7 1_555 1_555
H10_7 C16_7 1_555 1_555
C17_7 C4_7 1_555 1_555
H11_7 C17_7 1_555 1_555
C18_7 C1_7 1_555 1_555
C19_7 C14_7 1_555 1_555
C20_7 C18_7 1_555 1_555
C21_7 C19_7 1_555 1_555
O3_7 Fe7_2 1_555 1_555
O18_2 C21_7 1_555 1_555
O5_7 Fe7_2 1_555 1_555
O20_5 C20_7 1_555 1_555
O21_4 C20_7 1_555 1_555
O8_7 C15_7 1_555 1_555
O9_7 C15_7 1_555 1_555
Fe6_5 O8_7 1_555 1_555
Fe11_7 O9_7 1_555 1_555
O26_7 Fe7_2 1_555 1_555
C5_7 C13_7 1_555 1_555
C6_7 C10_7 1_555 1_555
C11_7 C12_7 1_555 1_555
C16_7 C18_7 1_555 1_555
C17_7 C19_7 1_555 1_555
C21_7 O5_7 1_555 1_555
C22_4 H12_4 1_555 1_555
C24_4 C22_4 1_555 1_555
H14_4 C24_4 1_555 1_555
C27_4 H15_4 1_555 1_555
C31_4 C24_4 1_555 1_555
C37_4 C27_4 1_555 1_555
H21_4 C37_4 1_555 1_555
C39_4 C22_4 1_555 1_555
C41_4 C39_4 1_555 1_555
O22_2 C41_4 1_555 1_555
C27_4 C31_4 1_555 1_555
C37_4 C39_4 1_555 1_555
C41_4 O20_6 1_555 1_555
Fe9_2 O10_4 1_555 1_555
C26_4 C28_4 1_555 1_555
C28_4 C29_4 1_555 1_555
C29_4 C23_4 1_555 1_555
C30_4 C23_4 1_555 1_555
C32_4 C30_4 1_555 1_555
H17_4 C32_4 1_555 1_555
C33_4 C28_4 1_555 1_555
H18_4 C33_4 1_555 1_555
C34_4 C25_4 1_555 1_555
C35_4 C26_4 1_555 1_555
H20_4 C35_4 1_555 1_555
C36_4 C30_4 1_555 1_555
C38_4 C25_4 1_555 1_555
H22_4 C38_4 1_555 1_555
C40_4 C35_4 1_555 1_555
C42_4 C40_4 1_555 1_555
O19_3 C42_4 1_555 1_555
O12_4 Fe9_2 1_555 1_555
O15_4 C36_4 1_555 1_555
O16_4 C36_4 1_555 1_555
Fe5_4 O15_4 1_555 1_555
Fe10_4 O16_4 1_555 1_555
O25_4 Fe9_2 1_555 1_555
C26_4 C34_4 1_555 1_555
C32_4 C33_4 1_555 1_555
C38_4 C40_4 1_555 1_555
C42_4 O12_4 1_555 1_555
C5_8 C7_8 1_555 1_555
C7_8 C8_8 1_555 1_555
C8_8 C2_8 1_555 1_555
C9_8 C2_8 1_555 1_555
C11_8 C9_8 1_555 1_555
H6_8 C11_8 1_555 1_555
C12_8 C7_8 1_555 1_555
H7_8 C12_8 1_555 1_555
C13_8 C4_8 1_555 1_555
C14_8 C5_8 1_555 1_555
H9_8 C14_8 1_555 1_555
C15_8 C9_8 1_555 1_555
C17_8 C4_8 1_555 1_555
H11_8 C17_8 1_555 1_555
C19_8 C14_8 1_555 1_555
C21_8 C19_8 1_555 1_555
O3_8 Fe8_2 1_555 1_555
O19_4 C21_8 1_555 1_555
O5_8 Fe8_2 1_555 1_555
O8_8 C15_8 1_555 1_555
O9_8 C15_8 1_555 1_555
Fe6_6 O8_8 1_555 1_555
Fe11_8 O9_8 1_555 1_555
O26_8 Fe8_2 1_555 1_555
C5_8 C13_8 1_555 1_555
C11_8 C12_8 1_555 1_555
C17_8 C19_8 1_555 1_555
C21_8 O5_8 1_555 1_555
C1_8 H1_8 1_555 1_555
C3_8 C1_8 1_555 1_555
H3_8 C3_8 1_555 1_555
C6_8 H4_8 1_555 1_555
C10_8 C3_8 1_555 1_555
C16_8 C6_8 1_555 1_555
H10_8 C16_8 1_555 1_555
C18_8 C1_8 1_555 1_555
C20_8 C18_8 1_555 1_555
O20_4 C20_8 1_555 1_555
O21_3 C20_8 1_555 1_555
C6_8 C10_8 1_555 1_555
C16_8 C18_8 1_555 1_555
Fe2_5 O1_6 1_555 1_555
C1_9 H1_9 1_555 1_555
C2_9 H2_9 1_555 1_555
C3_9 C1_9 1_555 1_555
H3_9 C3_9 1_555 1_555
C4_9 C10_9 1_555 1_555
C5_9 C7_9 1_555 1_555
C6_9 H4_9 1_555 1_555
C7_9 C8_9 1_555 1_555
C8_9 C2_9 1_555 1_555
H5_9 C8_9 1_555 1_555
C9_9 C2_9 1_555 1_555
C10_9 C3_9 1_555 1_555
C11_9 C9_9 1_555 1_555
H6_9 C11_9 1_555 1_555
C12_9 C7_9 1_555 1_555
H7_9 C12_9 1_555 1_555
C13_9 C4_9 1_555 1_555
H8_9 C13_9 1_555 1_555
C14_9 C5_9 1_555 1_555
H9_9 C14_9 1_555 1_555
C15_9 C9_9 1_555 1_555
C16_9 C6_9 1_555 1_555
H10_9 C16_9 1_555 1_555
C17_9 C4_9 1_555 1_555
H11_9 C17_9 1_555 1_555
C18_9 C1_9 1_555 1_555
C19_9 C14_9 1_555 1_555
C20_9 C18_9 1_555 1_555
C21_9 C19_9 1_555 1_555
O1_6 Fe9_3 1_555 1_555
O3_9 Fe2_5 1_555 1_555
O4_5 C21_9 1_555 1_555
O5_9 Fe2_5 1_555 1_555
O6_5 C20_9 1_555 1_555
O7_5 C20_9 1_555 1_555
O8_9 C15_9 1_555 1_555
O9_9 C15_9 1_555 1_555
Fe4_6 O6_5 1_555 1_555
Fe6_5 O8_9 1_555 1_555
Fe9_3 O4_5 1_555 1_555
Fe11_9 O9_9 1_555 1_555
O19_5 Fe2_5 1_555 1_555
O21_5 Fe2_5 1_555 1_555
O26_9 Fe2_5 1_555 1_555
C5_9 C13_9 1_555 1_555
C6_9 C10_9 1_555 1_555
C11_9 C12_9 1_555 1_555
C16_9 C18_9 1_555 1_555
C17_9 C19_9 1_555 1_555
C21_9 O5_9 1_555 1_555
O2_9 Fe1_4 1_555 1_555
C22_5 H12_5 1_555 1_555
C24_5 C22_5 1_555 1_555
H14_5 C24_5 1_555 1_555
C27_5 H15_5 1_555 1_555
C31_5 C24_5 1_555 1_555
C37_5 C27_5 1_555 1_555
H21_5 C37_5 1_555 1_555
C39_5 C22_5 1_555 1_555
C41_5 C39_5 1_555 1_555
O13_3 Fe1_4 1_555 1_555
O14_3 C41_5 1_555 1_555
O23_7 Fe1_4 1_555 1_555
O24_7 Fe1_4 1_555 1_555
C27_5 C31_5 1_555 1_555
C37_5 C39_5 1_555 1_555
C41_5 O13_3 1_555 1_555
Fe3_3 O10_5 1_555 1_555
C26_5 C28_5 1_555 1_555
C28_5 C29_5 1_555 1_555
C29_5 C23_5 1_555 1_555
C30_5 C23_5 1_555 1_555
C32_5 C30_5 1_555 1_555
H17_5 C32_5 1_555 1_555
C33_5 C28_5 1_555 1_555
H18_5 C33_5 1_555 1_555
C34_5 C25_5 1_555 1_555
C35_5 C26_5 1_555 1_555
H20_5 C35_5 1_555 1_555
C36_5 C30_5 1_555 1_555
C38_5 C25_5 1_555 1_555
H22_5 C38_5 1_555 1_555
C40_5 C35_5 1_555 1_555
C42_5 C40_5 1_555 1_555
O11_3 C42_5 1_555 1_555
O12_5 Fe3_3 1_555 1_555
O15_5 C36_5 1_555 1_555
O16_5 C36_5 1_555 1_555
Fe6_7 O15_5 1_555 1_555
Fe7_3 O11_3 1_555 1_555
Fe10_5 O16_5 1_555 1_555
O17_4 Fe3_3 1_555 1_555
O18_3 Fe3_3 1_555 1_555
O22_3 Fe3_3 1_555 1_555
O25_5 Fe3_3 1_555 1_555
C26_5 C34_5 1_555 1_555
C32_5 C33_5 1_555 1_555
C38_5 C40_5 1_555 1_555
C42_5 O12_5 1_555 1_555
Fe7_3 O17_4 1_555 1_555
O2_10 Fe4_6 1_555 1_555
O23_8 Fe4_6 1_555 1_555
O24_8 Fe4_6 1_555 1_555
Fe2_6 O1_7 1_555 1_555
C5_10 C7_10 1_555 1_555
C7_10 C8_10 1_555 1_555
C8_10 C2_10 1_555 1_555
C9_10 C2_10 1_555 1_555
C11_10 C9_10 1_555 1_555
H6_10 C11_10 1_555 1_555
C12_10 C7_10 1_555 1_555
H7_10 C12_10 1_555 1_555
C13_10 C4_10 1_555 1_555
C14_10 C5_10 1_555 1_555
H9_10 C14_10 1_555 1_555
C15_10 C9_10 1_555 1_555
C17_10 C4_10 1_555 1_555
H11_10 C17_10 1_555 1_555
C19_10 C14_10 1_555 1_555
C21_10 C19_10 1_555 1_555
O1_7 Fe8_3 1_555 1_555
O3_10 Fe2_6 1_555 1_555
O4_6 C21_10 1_555 1_555
O5_10 Fe2_6 1_555 1_555
O8_10 C15_10 1_555 1_555
O9_10 C15_10 1_555 1_555
Fe5_3 O8_10 1_555 1_555
Fe8_3 O4_6 1_555 1_555
Fe11_10 O9_10 1_555 1_555
O19_6 Fe2_6 1_555 1_555
O21_6 Fe2_6 1_555 1_555
O26_10 Fe2_6 1_555 1_555
C5_10 C13_10 1_555 1_555
C11_10 C12_10 1_555 1_555
C17_10 C19_10 1_555 1_555
C21_10 O5_10 1_555 1_555
C1_10 H1_10 1_555 1_555
C3_10 C1_10 1_555 1_555
H3_10 C3_10 1_555 1_555
C6_10 H4_10 1_555 1_555
C10_10 C3_10 1_555 1_555
C16_10 C6_10 1_555 1_555
H10_10 C16_10 1_555 1_555
C18_10 C1_10 1_555 1_555
C20_10 C18_10 1_555 1_555
O6_6 C20_10 1_555 1_555
O7_6 C20_10 1_555 1_555
Fe4_7 O6_6 1_555 1_555
Fe7_3 O7_6 1_555 1_555
C6_10 C10_10 1_555 1_555
C16_10 C18_10 1_555 1_555
Fe4_7 O17_4 1_555 1_555
O2_11 Fe4_7 1_555 1_555
O20_9 Fe4_7 1_555 1_555
O23_9 Fe4_7 1_555 1_555
O24_9 Fe4_7 1_555 1_555
Fe11_11 O9_11 1_555 1_555
C2_11 H2_11 1_555 1_555
C8_11 C2_11 1_555 1_555
H5_11 C8_11 1_555 1_555
C9_11 C2_11 1_555 1_555
C11_11 C9_11 1_555 1_555
H6_11 C11_11 1_555 1_555
C15_11 C9_11 1_555 1_555
O8_11 C15_11 1_555 1_555
C23_6 H13_6 1_555 1_555
C29_6 C23_6 1_555 1_555
H16_6 C29_6 1_555 1_555
C30_6 C23_6 1_555 1_555
C32_6 C30_6 1_555 1_555
H17_6 C32_6 1_555 1_555
C36_6 C30_6 1_555 1_555
O15_6 C36_6 1_555 1_555
O16_6 C36_6 1_555 1_555
Fe6_2 O15_6 1_555 1_555
Fe6 O8_11 1_555 1_555
Fe10_6 O16_6 1_555 1_555
C1_11 H1_11 1_555 1_555
C3_11 C1_11 1_555 1_555
H3_11 C3_11 1_555 1_555
C4_11 C10_11 1_555 1_555
C5_11 C7_11 1_555 1_555
C6_11 H4_11 1_555 1_555
C10_11 C3_11 1_555 1_555
C12_11 C7_11 1_555 1_555
H7_11 C12_11 1_555 1_555
C13_11 C4_11 1_555 1_555
H8_11 C13_11 1_555 1_555
C14_11 C5_11 1_555 1_555
H9_11 C14_11 1_555 1_555
C16_11 C6_11 1_555 1_555
H10_11 C16_11 1_555 1_555
C17_11 C4_11 1_555 1_555
H11_11 C17_11 1_555 1_555
C18_11 C1_11 1_555 1_555
C19_11 C14_11 1_555 1_555
C20_11 C18_11 1_555 1_555
C21_11 C19_11 1_555 1_555
O3_11 Fe7_3 1_555 1_555
O18_3 C21_11 1_555 1_555
O5_11 Fe7_3 1_555 1_555
O20_8 C20_11 1_555 1_555
O21_6 C20_11 1_555 1_555
Fe9_3 O10_6 1_555 1_555
C22_6 H12_6 1_555 1_555
C24_6 C22_6 1_555 1_555
H14_6 C24_6 1_555 1_555
C25_6 C31_6 1_555 1_555
C26_6 C28_6 1_555 1_555
C27_6 H15_6 1_555 1_555
C31_6 C24_6 1_555 1_555
C33_6 C28_6 1_555 1_555
H18_6 C33_6 1_555 1_555
C34_6 C25_6 1_555 1_555
H19_6 C34_6 1_555 1_555
C35_6 C26_6 1_555 1_555
H20_6 C35_6 1_555 1_555
C37_6 C27_6 1_555 1_555
H21_6 C37_6 1_555 1_555
C38_6 C25_6 1_555 1_555
H22_6 C38_6 1_555 1_555
C39_6 C22_6 1_555 1_555
C40_6 C35_6 1_555 1_555
C41_6 C39_6 1_555 1_555
C42_6 C40_6 1_555 1_555
O19_5 C42_6 1_555 1_555
O12_6 Fe9_3 1_555 1_555
O22_3 C41_6 1_555 1_555
O25_6 Fe9_3 1_555 1_555
O26_11 Fe7_3 1_555 1_555
C5_11 C13_11 1_555 1_555
C6_11 C10_11 1_555 1_555
C16_11 C18_11 1_555 1_555
C17_11 C19_11 1_555 1_555
C21_11 O5_11 1_555 1_555
C26_6 C34_6 1_555 1_555
C27_6 C31_6 1_555 1_555
C37_6 C39_6 1_555 1_555
C38_6 C40_6 1_555 1_555
C41_6 O20_9 1_555 1_555
C42_6 O12_6 1_555 1_555
C2_12 H2_12 1_555 1_555
C8_12 C2_12 1_555 1_555
H5_12 C8_12 1_555 1_555
C9_12 C2_12 1_555 1_555
C11_12 C9_12 1_555 1_555
H6_12 C11_12 1_555 1_555
C15_12 C9_12 1_555 1_555
O8_12 C15_12 1_555 1_555
Fe5 O8_12 1_555 1_555
C1_12 H1_12 1_555 1_555
C3_12 C1_12 1_555 1_555
H3_12 C3_12 1_555 1_555
C4_12 C10_12 1_555 1_555
C5_12 C7_12 1_555 1_555
C6_12 H4_12 1_555 1_555
C10_12 C3_12 1_555 1_555
C12_12 C7_12 1_555 1_555
H7_12 C12_12 1_555 1_555
C13_12 C4_12 1_555 1_555
H8_12 C13_12 1_555 1_555
C14_12 C5_12 1_555 1_555
H9_12 C14_12 1_555 1_555
C16_12 C6_12 1_555 1_555
H10_12 C16_12 1_555 1_555
C17_12 C4_12 1_555 1_555
H11_12 C17_12 1_555 1_555
C18_12 C1_12 1_555 1_555
C19_12 C14_12 1_555 1_555
C20_12 C18_12 1_555 1_555
C21_12 C19_12 1_555 1_555
O3_12 Fe8_3 1_555 1_555
O19_6 C21_12 1_555 1_555
O5_12 Fe8_3 1_555 1_555
O20_7 C20_12 1_555 1_555
O21_5 C20_12 1_555 1_555
O26_12 Fe8_3 1_555 1_555
C5_12 C13_12 1_555 1_555
C6_12 C10_12 1_555 1_555
C16_12 C18_12 1_555 1_555
C17_12 C19_12 1_555 1_555
C21_12 O5_12 1_555 1_555
Fe11_12 O9_12 1_555 1_555
Fe11_10 O10_7 1_555 1_555
C32_7 C30_7 1_555 1_555
H17_7 C32_7 1_555 1_555
H18_7 C33_7 1_555 1_555
C36_7 C30_7 1_555 1_555
O26_9 C36_7 1_555 1_555
O17_5 Fe11_10 1_555 1_555
O18_4 Fe11_10 1_555 1_555
O22_4 Fe11_10 1_555 1_555
C32_7 C33_7 1_555 1_555
Fe6_6 O1_8 1_555 1_555
C1_13 H1_13 1_555 1_555
C2_13 H2_13 1_555 1_555
C3_13 C1_13 1_555 1_555
H3_13 C3_13 1_555 1_555
C4_13 C10_13 1_555 1_555
C5_13 C7_13 1_555 1_555
C6_13 H4_13 1_555 1_555
C7_13 C8_13 1_555 1_555
C8_13 C2_13 1_555 1_555
H5_13 C8_13 1_555 1_555
C10_13 C3_13 1_555 1_555
C13_13 C4_13 1_555 1_555
H8_13 C13_13 1_555 1_555
C14_13 C5_13 1_555 1_555
H9_13 C14_13 1_555 1_555
C16_13 C6_13 1_555 1_555
H10_13 C16_13 1_555 1_555
C17_13 C4_13 1_555 1_555
H11_13 C17_13 1_555 1_555
C18_13 C1_13 1_555 1_555
C19_13 C14_13 1_555 1_555
C20_13 C18_13 1_555 1_555
C21_13 C19_13 1_555 1_555
O1_8 Fe11_8 1_555 1_555
O2_12 Fe6_6 1_555 1_555
O4_7 C21_13 1_555 1_555
O6_7 C20_13 1_555 1_555
O7_7 C20_13 1_555 1_555
C22_7 H12_7 1_555 1_555
C23_7 H13_7 1_555 1_555
C24_7 C22_7 1_555 1_555
H14_7 C24_7 1_555 1_555
C25_7 C31_7 1_555 1_555
C26_7 C28_7 1_555 1_555
C27_7 H15_7 1_555 1_555
C28_7 C29_7 1_555 1_555
C29_7 C23_7 1_555 1_555
H16_7 C29_7 1_555 1_555
C31_7 C24_7 1_555 1_555
C34_7 C25_7 1_555 1_555
H19_7 C34_7 1_555 1_555
C35_7 C26_7 1_555 1_555
H20_7 C35_7 1_555 1_555
C37_7 C27_7 1_555 1_555
H21_7 C37_7 1_555 1_555
C38_7 C25_7 1_555 1_555
H22_7 C38_7 1_555 1_555
C39_7 C22_7 1_555 1_555
C40_7 C35_7 1_555 1_555
C41_7 C39_7 1_555 1_555
C42_7 C40_7 1_555 1_555
O11_4 C42_7 1_555 1_555
O13_4 Fe6_6 1_555 1_555
O14_4 C41_7 1_555 1_555
Fe6_5 O6_7 1_555 1_555
Fe10_4 O11_4 1_555 1_555
Fe11_7 O7_7 1_555 1_555
Fe11_8 O4_7 1_555 1_555
C5_13 C13_13 1_555 1_555
C6_13 C10_13 1_555 1_555
C16_13 C18_13 1_555 1_555
C17_13 C19_13 1_555 1_555
C21_13 O5_13 1_555 1_555
C26_7 C34_7 1_555 1_555
C27_7 C31_7 1_555 1_555
C37_7 C39_7 1_555 1_555
C38_7 C40_7 1_555 1_555
C41_7 O13_4 1_555 1_555
C42_7 O12_7 1_555 1_555
O14_4 Fe11_8 1_555 1_555
Fe10_4 O17_6 1_555 1_555
O2_12 H23_5 1_555 1_555
Fe6_7 O1_9 1_555 1_555
Fe10_5 O1_9 1_555 1_555
C11_13 C9_13 1_555 1_555
H6_13 C11_13 1_555 1_555
H7_13 C12_13 1_555 1_555
C15_13 C9_13 1_555 1_555
O2_13 Fe6_7 1_555 1_555
O3_13 Fe10_5 1_555 1_555
O26_10 C15_13 1_555 1_555
O19_7 Fe10_5 1_555 1_555
O20_10 Fe6_7 1_555 1_555
O21_7 Fe10_5 1_555 1_555
C11_13 C12_13 1_555 1_555
O2_13 H24_5 1_555 1_555
Fe6_5 O1_10 1_555 1_555
Fe11_9 O1_10 1_555 1_555
C1_14 H1_14 1_555 1_555
C2_14 H2_14 1_555 1_555
C3_14 C1_14 1_555 1_555
H3_14 C3_14 1_555 1_555
C4_14 C10_14 1_555 1_555
C5_14 C7_14 1_555 1_555
C6_14 H4_14 1_555 1_555
C7_14 C8_14 1_555 1_555
C8_14 C2_14 1_555 1_555
H5_14 C8_14 1_555 1_555
C9_14 C2_14 1_555 1_555
C10_14 C3_14 1_555 1_555
C11_14 C9_14 1_555 1_555
H6_14 C11_14 1_555 1_555
C12_14 C7_14 1_555 1_555
H7_14 C12_14 1_555 1_555
C13_14 C4_14 1_555 1_555
H8_14 C13_14 1_555 1_555
C14_14 C5_14 1_555 1_555
H9_14 C14_14 1_555 1_555
C15_14 C9_14 1_555 1_555
C16_14 C6_14 1_555 1_555
H10_14 C16_14 1_555 1_555
C17_14 C4_14 1_555 1_555
H11_14 C17_14 1_555 1_555
C18_14 C1_14 1_555 1_555
C19_14 C14_14 1_555 1_555
C20_14 C18_14 1_555 1_555
C21_14 C19_14 1_555 1_555
O1_10 Fe11_7 1_555 1_555
O2_14 Fe6_5 1_555 1_555
O3_14 Fe11_9 1_555 1_555
O4_8 C21_14 1_555 1_555
O5_14 Fe11_9 1_555 1_555
O6_8 C20_14 1_555 1_555
O7_8 C20_14 1_555 1_555
O23_9 C15_14 1_555 1_555
O25_5 C15_14 1_555 1_555
Fe5_4 O6_8 1_555 1_555
Fe10_4 O7_8 1_555 1_555
Fe11_7 O4_8 1_555 1_555
O19_8 Fe11_9 1_555 1_555
O20_11 Fe6_5 1_555 1_555
O21_8 Fe11_9 1_555 1_555
C5_14 C13_14 1_555 1_555
C6_14 C10_14 1_555 1_555
C11_14 C12_14 1_555 1_555
C16_14 C18_14 1_555 1_555
C17_14 C19_14 1_555 1_555
C21_14 O5_14 1_555 1_555
Fe5_3 O17_5 1_555 1_555
O2_15 Fe5_3 1_555 1_555
O20_12 Fe5_3 1_555 1_555
O2_15 H24_6 1_555 1_555
Fe5_4 O17_6 1_555 1_555
O2_16 Fe5_4 1_555 1_555
O2_16 H23_6 1_555 1_555
Fe11_8 O10_8 1_555 1_555
C32_8 C30_8 1_555 1_555
H17_8 C32_8 1_555 1_555
H18_8 C33_8 1_555 1_555
C36_8 C30_8 1_555 1_555
O26_7 C36_8 1_555 1_555
C32_8 C33_8 1_555 1_555
C1_15 H1_15 1_555 1_555
C2_15 H2_15 1_555 1_555
C3_15 C1_15 1_555 1_555
H3_15 C3_15 1_555 1_555
C4_15 C10_15 1_555 1_555
C5_15 C7_15 1_555 1_555
C6_15 H4_15 1_555 1_555
C7_15 C8_15 1_555 1_555
C8_15 C2_15 1_555 1_555
H5_15 C8_15 1_555 1_555
C10_15 C3_15 1_555 1_555
C13_15 C4_15 1_555 1_555
H8_15 C13_15 1_555 1_555
C14_15 C5_15 1_555 1_555
H9_15 C14_15 1_555 1_555
C16_15 C6_15 1_555 1_555
H10_15 C16_15 1_555 1_555
C17_15 C4_15 1_555 1_555
H11_15 C17_15 1_555 1_555
C18_15 C1_15 1_555 1_555
C19_15 C14_15 1_555 1_555
C20_15 C18_15 1_555 1_555
C21_15 C19_15 1_555 1_555
O18_4 C21_15 1_555 1_555
O20_11 C20_15 1_555 1_555
O21_8 C20_15 1_555 1_555
C22_8 H12_8 1_555 1_555
C23_8 H13_8 1_555 1_555
C24_8 C22_8 1_555 1_555
H14_8 C24_8 1_555 1_555
C25_8 C31_8 1_555 1_555
C26_8 C28_8 1_555 1_555
C27_8 H15_8 1_555 1_555
C28_8 C29_8 1_555 1_555
C29_8 C23_8 1_555 1_555
H16_8 C29_8 1_555 1_555
C31_8 C24_8 1_555 1_555
C34_8 C25_8 1_555 1_555
H19_8 C34_8 1_555 1_555
C35_8 C26_8 1_555 1_555
H20_8 C35_8 1_555 1_555
C37_8 C27_8 1_555 1_555
H21_8 C37_8 1_555 1_555
C38_8 C25_8 1_555 1_555
H22_8 C38_8 1_555 1_555
C39_8 C22_8 1_555 1_555
C40_8 C35_8 1_555 1_555
C41_8 C39_8 1_555 1_555
C42_8 C40_8 1_555 1_555
O19_7 C42_8 1_555 1_555
O22_4 C41_8 1_555 1_555
C5_15 C13_15 1_555 1_555
C6_15 C10_15 1_555 1_555
C16_15 C18_15 1_555 1_555
C17_15 C19_15 1_555 1_555
C21_15 O5_15 1_555 1_555
C26_8 C34_8 1_555 1_555
C27_8 C31_8 1_555 1_555
C37_8 C39_8 1_555 1_555
C38_8 C40_8 1_555 1_555
C41_8 O20_12 1_555 1_555
C42_8 O12_8 1_555 1_555
O2_15 H23_7 1_555 1_555
C11_15 C9_15 1_555 1_555
H6_15 C11_15 1_555 1_555
H7_15 C12_15 1_555 1_555
C15_15 C9_15 1_555 1_555
O3_15 Fe10_4 1_555 1_555
O26_8 C15_15 1_555 1_555
C11_15 C12_15 1_555 1_555
O2_16 H24_7 1_555 1_555
C1_16 H1_16 1_555 1_555
C2_16 H2_16 1_555 1_555
C3_16 C1_16 1_555 1_555
H3_16 C3_16 1_555 1_555
C4_16 C10_16 1_555 1_555
C5_16 C7_16 1_555 1_555
C6_16 H4_16 1_555 1_555
C7_16 C8_16 1_555 1_555
C8_16 C2_16 1_555 1_555
H5_16 C8_16 1_555 1_555
C9_16 C2_16 1_555 1_555
C10_16 C3_16 1_555 1_555
C11_16 C9_16 1_555 1_555
H6_16 C11_16 1_555 1_555
C12_16 C7_16 1_555 1_555
H7_16 C12_16 1_555 1_555
C13_16 C4_16 1_555 1_555
H8_16 C13_16 1_555 1_555
C14_16 C5_16 1_555 1_555
H9_16 C14_16 1_555 1_555
C15_16 C9_16 1_555 1_555
C16_16 C6_16 1_555 1_555
H10_16 C16_16 1_555 1_555
C17_16 C4_16 1_555 1_555
H11_16 C17_16 1_555 1_555
C18_16 C1_16 1_555 1_555
C19_16 C14_16 1_555 1_555
C20_16 C18_16 1_555 1_555
C21_16 C19_16 1_555 1_555
O3_16 Fe11_7 1_555 1_555
O19_8 C21_16 1_555 1_555
O5_16 Fe11_7 1_555 1_555
O20_10 C20_16 1_555 1_555
O21_7 C20_16 1_555 1_555
O24_4 C15_16 1_555 1_555
O25_4 C15_16 1_555 1_555
C5_16 C13_16 1_555 1_555
C6_16 C10_16 1_555 1_555
C11_16 C12_16 1_555 1_555
C16_16 C18_16 1_555 1_555
C17_16 C19_16 1_555 1_555
C21_16 O5_16 1_555 1_555
O2_12 H24_8 1_555 1_555
O2_13 H23_8 1_555 1_555
Fe6_4 O1_11 1_555 1_555
Fe10_3 O1_11 1_555 1_555
C1_17 H1_17 1_555 1_555
C2_17 H2_17 1_555 1_555
C3_17 C1_17 1_555 1_555
H3_17 C3_17 1_555 1_555
C4_17 C10_17 1_555 1_555
C5_17 C7_17 1_555 1_555
C6_17 H4_17 1_555 1_555
C7_17 C8_17 1_555 1_555
C8_17 C2_17 1_555 1_555
H5_17 C8_17 1_555 1_555
C9_17 C2_17 1_555 1_555
C10_17 C3_17 1_555 1_555
C11_17 C9_17 1_555 1_555
H6_17 C11_17 1_555 1_555
C12_17 C7_17 1_555 1_555
H7_17 C12_17 1_555 1_555
C13_17 C4_17 1_555 1_555
H8_17 C13_17 1_555 1_555
C14_17 C5_17 1_555 1_555
H9_17 C14_17 1_555 1_555
C15_17 C9_17 1_555 1_555
C16_17 C6_17 1_555 1_555
H10_17 C16_17 1_555 1_555
C17_17 C4_17 1_555 1_555
H11_17 C17_17 1_555 1_555
C18_17 C1_17 1_555 1_555
C19_17 C14_17 1_555 1_555
C20_17 C18_17 1_555 1_555
C21_17 C19_17 1_555 1_555
O1_11 Fe11_4 1_555 1_555
O2_17 Fe6_4 1_555 1_555
O3_17 Fe10_3 1_555 1_555
O4_9 C21_17 1_555 1_555
O5_17 Fe10_3 1_555 1_555
O6_9 C20_17 1_555 1_555
O7_9 C20_17 1_555 1_555
O23_5 C15_17 1_555 1_555
Fe11_6 O10_9 1_555 1_555
C22_9 H12_9 1_555 1_555
C23_9 H13_9 1_555 1_555
C24_9 C22_9 1_555 1_555
H14_9 C24_9 1_555 1_555
C25_9 C31_9 1_555 1_555
C26_9 C28_9 1_555 1_555
C27_9 H15_9 1_555 1_555
C28_9 C29_9 1_555 1_555
C29_9 C23_9 1_555 1_555
H16_9 C29_9 1_555 1_555
C30_9 C23_9 1_555 1_555
C31_9 C24_9 1_555 1_555
C32_9 C30_9 1_555 1_555
H17_9 C32_9 1_555 1_555
C33_9 C28_9 1_555 1_555
H18_9 C33_9 1_555 1_555
C34_9 C25_9 1_555 1_555
H19_9 C34_9 1_555 1_555
C35_9 C26_9 1_555 1_555
H20_9 C35_9 1_555 1_555
C36_9 C30_9 1_555 1_555
C37_9 C27_9 1_555 1_555
H21_9 C37_9 1_555 1_555
C38_9 C25_9 1_555 1_555
H22_9 C38_9 1_555 1_555
C39_9 C22_9 1_555 1_555
C40_9 C35_9 1_555 1_555
C41_9 C39_9 1_555 1_555
C42_9 C40_9 1_555 1_555
O11_5 C42_9 1_555 1_555
O12_9 Fe11_6 1_555 1_555
O13_5 Fe6_4 1_555 1_555
O14_5 C41_9 1_555 1_555
O23_4 C36_9 1_555 1_555
O26_5 C36_9 1_555 1_555
Fe10_2 O11_5 1_555 1_555
Fe11_3 O7_9 1_555 1_555
Fe11_4 O4_9 1_555 1_555
O17_7 Fe11_6 1_555 1_555
O18_5 Fe11_6 1_555 1_555
O19_9 Fe10_3 1_555 1_555
O20_13 Fe6_4 1_555 1_555
O21_9 Fe10_3 1_555 1_555
C5_17 C13_17 1_555 1_555
C6_17 C10_17 1_555 1_555
C11_17 C12_17 1_555 1_555
C16_17 C18_17 1_555 1_555
C17_17 C19_17 1_555 1_555
C21_17 O5_17 1_555 1_555
C26_9 C34_9 1_555 1_555
C27_9 C31_9 1_555 1_555
C32_9 C33_9 1_555 1_555
C37_9 C39_9 1_555 1_555
C38_9 C40_9 1_555 1_555
C41_9 O13_5 1_555 1_555
C42_9 O12_9 1_555 1_555
O14_5 Fe11_4 1_555 1_555
Fe10_2 O17_7 1_555 1_555
Fe11_5 O1_12 1_555 1_555
C1_18 H1_18 1_555 1_555
C2_18 H2_18 1_555 1_555
C3_18 C1_18 1_555 1_555
H3_18 C3_18 1_555 1_555
C4_18 C10_18 1_555 1_555
C5_18 C7_18 1_555 1_555
C6_18 H4_18 1_555 1_555
C7_18 C8_18 1_555 1_555
C8_18 C2_18 1_555 1_555
H5_18 C8_18 1_555 1_555
C9_18 C2_18 1_555 1_555
C10_18 C3_18 1_555 1_555
C11_18 C9_18 1_555 1_555
H6_18 C11_18 1_555 1_555
C12_18 C7_18 1_555 1_555
H7_18 C12_18 1_555 1_555
C13_18 C4_18 1_555 1_555
H8_18 C13_18 1_555 1_555
C14_18 C5_18 1_555 1_555
H9_18 C14_18 1_555 1_555
C15_18 C9_18 1_555 1_555
C16_18 C6_18 1_555 1_555
H10_18 C16_18 1_555 1_555
C17_18 C4_18 1_555 1_555
H11_18 C17_18 1_555 1_555
C18_18 C1_18 1_555 1_555
C19_18 C14_18 1_555 1_555
C20_18 C18_18 1_555 1_555
C21_18 C19_18 1_555 1_555
O1_12 Fe11_3 1_555 1_555
O3_18 Fe11_5 1_555 1_555
O4_10 C21_18 1_555 1_555
O5_18 Fe11_5 1_555 1_555
O6_10 C20_18 1_555 1_555
O7_10 C20_18 1_555 1_555
O23_6 C15_18 1_555 1_555
Fe10_2 O7_10 1_555 1_555
Fe11_3 O4_10 1_555 1_555
O19_10 Fe11_5 1_555 1_555
C5_18 C13_18 1_555 1_555
C6_18 C10_18 1_555 1_555
C11_18 C12_18 1_555 1_555
C16_18 C18_18 1_555 1_555
C17_18 C19_18 1_555 1_555
C21_18 O5_18 1_555 1_555
O2_18 Fe6_3 1_555 1_555
O20_14 Fe6_3 1_555 1_555
O2_19 Fe5_2 1_555 1_555
O20_15 Fe5_2 1_555 1_555
Fe11_4 O10_10 1_555 1_555
C26_10 C28_10 1_555 1_555
C28_10 C29_10 1_555 1_555
C29_10 C23_10 1_555 1_555
C30_10 C23_10 1_555 1_555
C32_10 C30_10 1_555 1_555
H17_10 C32_10 1_555 1_555
C33_10 C28_10 1_555 1_555
H18_10 C33_10 1_555 1_555
C34_10 C25_10 1_555 1_555
C35_10 C26_10 1_555 1_555
H20_10 C35_10 1_555 1_555
C36_10 C30_10 1_555 1_555
C38_10 C25_10 1_555 1_555
H22_10 C38_10 1_555 1_555
C40_10 C35_10 1_555 1_555
C42_10 C40_10 1_555 1_555
O19_9 C42_10 1_555 1_555
O12_10 Fe11_4 1_555 1_555
O24_3 C36_10 1_555 1_555
O26_3 C36_10 1_555 1_555
C26_10 C34_10 1_555 1_555
C32_10 C33_10 1_555 1_555
C38_10 C40_10 1_555 1_555
C42_10 O12_10 1_555 1_555
C22_10 H12_10 1_555 1_555
C24_10 C22_10 1_555 1_555
H14_10 C24_10 1_555 1_555
C27_10 H15_10 1_555 1_555
C31_10 C24_10 1_555 1_555
C37_10 C27_10 1_555 1_555
H21_10 C37_10 1_555 1_555
C39_10 C22_10 1_555 1_555
C41_10 C39_10 1_555 1_555
O22_5 C41_10 1_555 1_555
C27_10 C31_10 1_555 1_555
C37_10 C39_10 1_555 1_555
C41_10 O20_15 1_555 1_555
C1_19 H1_19 1_555 1_555
C2_19 H2_19 1_555 1_555
C3_19 C1_19 1_555 1_555
H3_19 C3_19 1_555 1_555
C4_19 C10_19 1_555 1_555
C5_19 C7_19 1_555 1_555
C6_19 H4_19 1_555 1_555
C7_19 C8_19 1_555 1_555
C8_19 C2_19 1_555 1_555
H5_19 C8_19 1_555 1_555
C9_19 C2_19 1_555 1_555
C10_19 C3_19 1_555 1_555
C11_19 C9_19 1_555 1_555
H6_19 C11_19 1_555 1_555
C12_19 C7_19 1_555 1_555
H7_19 C12_19 1_555 1_555
C13_19 C4_19 1_555 1_555
H8_19 C13_19 1_555 1_555
C14_19 C5_19 1_555 1_555
H9_19 C14_19 1_555 1_555
C15_19 C9_19 1_555 1_555
C16_19 C6_19 1_555 1_555
H10_19 C16_19 1_555 1_555
C17_19 C4_19 1_555 1_555
H11_19 C17_19 1_555 1_555
C18_19 C1_19 1_555 1_555
C19_19 C14_19 1_555 1_555
C20_19 C18_19 1_555 1_555
C21_19 C19_19 1_555 1_555
O3_19 Fe10_2 1_555 1_555
O18_5 C21_19 1_555 1_555
O5_19 Fe10_2 1_555 1_555
O20_14 C20_19 1_555 1_555
O21_10 C20_19 1_555 1_555
O24_2 C15_19 1_555 1_555
O26_4 C15_19 1_555 1_555
C5_19 C13_19 1_555 1_555
C6_19 C10_19 1_555 1_555
C11_19 C12_19 1_555 1_555
C16_19 C18_19 1_555 1_555
C17_19 C19_19 1_555 1_555
C21_19 O5_19 1_555 1_555
C1_20 H1_20 1_555 1_555
C3_20 C1_20 1_555 1_555
H3_20 C3_20 1_555 1_555
C6_20 H4_20 1_555 1_555
C10_20 C3_20 1_555 1_555
C16_20 C6_20 1_555 1_555
H10_20 C16_20 1_555 1_555
C18_20 C1_20 1_555 1_555
C20_20 C18_20 1_555 1_555
O20_13 C20_20 1_555 1_555
O21_9 C20_20 1_555 1_555
C6_20 C10_20 1_555 1_555
C16_20 C18_20 1_555 1_555
C5_20 C7_20 1_555 1_555
C7_20 C8_20 1_555 1_555
C8_20 C2_20 1_555 1_555
C9_20 C2_20 1_555 1_555
C11_20 C9_20 1_555 1_555
H6_20 C11_20 1_555 1_555
C12_20 C7_20 1_555 1_555
H7_20 C12_20 1_555 1_555
C13_20 C4_20 1_555 1_555
C14_20 C5_20 1_555 1_555
H9_20 C14_20 1_555 1_555
C15_20 C9_20 1_555 1_555
C17_20 C4_20 1_555 1_555
H11_20 C17_20 1_555 1_555
C19_20 C14_20 1_555 1_555
C21_20 C19_20 1_555 1_555
O3_20 Fe11_3 1_555 1_555
O19_10 C21_20 1_555 1_555
O5_20 Fe11_3 1_555 1_555
O24 C15_20 1_555 1_555
O25_2 C15_20 1_555 1_555
C5_20 C13_20 1_555 1_555
C11_20 C12_20 1_555 1_555
C17_20 C19_20 1_555 1_555
C21_20 O5_20 1_555 1_555
Fe11_2 O10_11 1_555 1_555
C26_11 C28_11 1_555 1_555
C28_11 C29_11 1_555 1_555
C29_11 C23_11 1_555 1_555
C30_11 C23_11 1_555 1_555
C32_11 C30_11 1_555 1_555
H17_11 C32_11 1_555 1_555
C33_11 C28_11 1_555 1_555
H18_11 C33_11 1_555 1_555
C34_11 C25_11 1_555 1_555
C35_11 C26_11 1_555 1_555
H20_11 C35_11 1_555 1_555
C36_11 C30_11 1_555 1_555
C38_11 C25_11 1_555 1_555
H22_11 C38_11 1_555 1_555
C40_11 C35_11 1_555 1_555
C42_11 C40_11 1_555 1_555
O11_6 C42_11 1_555 1_555
O12_11 Fe11_2 1_555 1_555
O23 C36_11 1_555 1_555
O26 C36_11 1_555 1_555
Fe10_6 O11_6 1_555 1_555
O17_8 Fe11_2 1_555 1_555
O18_6 Fe11_2 1_555 1_555
O22_6 Fe11_2 1_555 1_555
C26_11 C34_11 1_555 1_555
C32_11 C33_11 1_555 1_555
C38_11 C40_11 1_555 1_555
C42_11 O12_11 1_555 1_555
Fe10_6 O17_8 1_555 1_555
O2_20 Fe5 1_555 1_555
C22_11 H12_11 1_555 1_555
C24_11 C22_11 1_555 1_555
H14_11 C24_11 1_555 1_555
C27_11 H15_11 1_555 1_555
C31_11 C24_11 1_555 1_555
C37_11 C27_11 1_555 1_555
H21_11 C37_11 1_555 1_555
C39_11 C22_11 1_555 1_555
C41_11 C39_11 1_555 1_555
O13_6 Fe5 1_555 1_555
O14_6 C41_11 1_555 1_555
C27_11 C31_11 1_555 1_555
C37_11 C39_11 1_555 1_555
C41_11 O13_6 1_555 1_555
Fe10 O1_13 1_555 1_555
C1_21 H1_21 1_555 1_555
C2_21 H2_21 1_555 1_555
C3_21 C1_21 1_555 1_555
H3_21 C3_21 1_555 1_555
C4_21 C10_21 1_555 1_555
C5_21 C7_21 1_555 1_555
C6_21 H4_21 1_555 1_555
C7_21 C8_21 1_555 1_555
C8_21 C2_21 1_555 1_555
H5_21 C8_21 1_555 1_555
C9_21 C2_21 1_555 1_555
C10_21 C3_21 1_555 1_555
C11_21 C9_21 1_555 1_555
H6_21 C11_21 1_555 1_555
C12_21 C7_21 1_555 1_555
H7_21 C12_21 1_555 1_555
C13_21 C4_21 1_555 1_555
H8_21 C13_21 1_555 1_555
C14_21 C5_21 1_555 1_555
H9_21 C14_21 1_555 1_555
C15_21 C9_21 1_555 1_555
C16_21 C6_21 1_555 1_555
H10_21 C16_21 1_555 1_555
C17_21 C4_21 1_555 1_555
H11_21 C17_21 1_555 1_555
C18_21 C1_21 1_555 1_555
C19_21 C14_21 1_555 1_555
C20_21 C18_21 1_555 1_555
C21_21 C19_21 1_555 1_555
O1_13 Fe11_12 1_555 1_555
O3_21 Fe10 1_555 1_555
O4_11 C21_21 1_555 1_555
O5_21 Fe10 1_555 1_555
O6_11 C20_21 1_555 1_555
O7_11 C20_21 1_555 1_555
O23_2 C15_21 1_555 1_555
O26_2 C15_21 1_555 1_555
Fe6 O6_11 1_555 1_555
Fe11_12 O4_11 1_555 1_555
O19_11 Fe10 1_555 1_555
O21_11 Fe10 1_555 1_555
C5_21 C13_21 1_555 1_555
C6_21 C10_21 1_555 1_555
C11_21 C12_21 1_555 1_555
C16_21 C18_21 1_555 1_555
C17_21 C19_21 1_555 1_555
C21_21 O5_21 1_555 1_555
C1_22 H1_22 1_555 1_555
C3_22 C1_22 1_555 1_555
H3_22 C3_22 1_555 1_555
C6_22 H4_22 1_555 1_555
C10_22 C3_22 1_555 1_555
C16_22 C6_22 1_555 1_555
H10_22 C16_22 1_555 1_555
C18_22 C1_22 1_555 1_555
C20_22 C18_22 1_555 1_555
O6_12 C20_22 1_555 1_555
O7_12 C20_22 1_555 1_555
Fe6_2 O6_12 1_555 1_555
Fe10_6 O7_12 1_555 1_555
C6_22 C10_22 1_555 1_555
C16_22 C18_22 1_555 1_555
Fe11 O1_14 1_555 1_555
C5_22 C7_22 1_555 1_555
C7_22 C8_22 1_555 1_555
C8_22 C2_22 1_555 1_555
C9_22 C2_22 1_555 1_555
C11_22 C9_22 1_555 1_555
H6_22 C11_22 1_555 1_555
C12_22 C7_22 1_555 1_555
H7_22 C12_22 1_555 1_555
C13_22 C4_22 1_555 1_555
C14_22 C5_22 1_555 1_555
H9_22 C14_22 1_555 1_555
C15_22 C9_22 1_555 1_555
C17_22 C4_22 1_555 1_555
H11_22 C17_22 1_555 1_555
C19_22 C14_22 1_555 1_555
C21_22 C19_22 1_555 1_555
O1_14 Fe11_11 1_555 1_555
O3_22 Fe11 1_555 1_555
O4_12 C21_22 1_555 1_555
O5_22 Fe11 1_555 1_555
O23_3 C15_22 1_555 1_555
O25 C15_22 1_555 1_555
Fe11_11 O4_12 1_555 1_555
O19_12 Fe11 1_555 1_555
O21_12 Fe11 1_555 1_555
C5_22 C13_22 1_555 1_555
C11_22 C12_22 1_555 1_555
C17_22 C19_22 1_555 1_555
C21_22 O5_22 1_555 1_555
O2_21 Fe6 1_555 1_555
Fe6_2 O17_8 1_555 1_555
O2_22 Fe6_2 1_555 1_555
O20_18 Fe6_2 1_555 1_555
C1_23 H1_23 1_555 1_555
C3_23 C1_23 1_555 1_555
H3_23 C3_23 1_555 1_555
C4_23 C10_23 1_555 1_555
C5_23 C7_23 1_555 1_555
C6_23 H4_23 1_555 1_555
C10_23 C3_23 1_555 1_555
C12_23 C7_23 1_555 1_555
H7_23 C12_23 1_555 1_555
C13_23 C4_23 1_555 1_555
H8_23 C13_23 1_555 1_555
C14_23 C5_23 1_555 1_555
H9_23 C14_23 1_555 1_555
C16_23 C6_23 1_555 1_555
H10_23 C16_23 1_555 1_555
C17_23 C4_23 1_555 1_555
H11_23 C17_23 1_555 1_555
C18_23 C1_23 1_555 1_555
C19_23 C14_23 1_555 1_555
C20_23 C18_23 1_555 1_555
C21_23 C19_23 1_555 1_555
O3_23 Fe10_6 1_555 1_555
O18_6 C21_23 1_555 1_555
O5_23 Fe10_6 1_555 1_555
O20_17 C20_23 1_555 1_555
O21_12 C20_23 1_555 1_555
Fe11_12 O10_12 1_555 1_555
C22_12 H12_12 1_555 1_555
C24_12 C22_12 1_555 1_555
H14_12 C24_12 1_555 1_555
C25_12 C31_12 1_555 1_555
C26_12 C28_12 1_555 1_555
C27_12 H15_12 1_555 1_555
C31_12 C24_12 1_555 1_555
C33_12 C28_12 1_555 1_555
H18_12 C33_12 1_555 1_555
C34_12 C25_12 1_555 1_555
H19_12 C34_12 1_555 1_555
C35_12 C26_12 1_555 1_555
H20_12 C35_12 1_555 1_555
C37_12 C27_12 1_555 1_555
H21_12 C37_12 1_555 1_555
C38_12 C25_12 1_555 1_555
H22_12 C38_12 1_555 1_555
C39_12 C22_12 1_555 1_555
C40_12 C35_12 1_555 1_555
C41_12 C39_12 1_555 1_555
C42_12 C40_12 1_555 1_555
O19_11 C42_12 1_555 1_555
O12_12 Fe11_12 1_555 1_555
O22_6 C41_12 1_555 1_555
C5_23 C13_23 1_555 1_555
C6_23 C10_23 1_555 1_555
C16_23 C18_23 1_555 1_555
C17_23 C19_23 1_555 1_555
C21_23 O5_23 1_555 1_555
C26_12 C34_12 1_555 1_555
C27_12 C31_12 1_555 1_555
C37_12 C39_12 1_555 1_555
C38_12 C40_12 1_555 1_555
C41_12 O20_18 1_555 1_555
C42_12 O12_12 1_555 1_555
C2_23 H2_23 1_555 1_555
C8_23 C2_23 1_555 1_555
H5_23 C8_23 1_555 1_555
C9_23 C2_23 1_555 1_555
C11_23 C9_23 1_555 1_555
H6_23 C11_23 1_555 1_555
C15_23 C9_23 1_555 1_555
O24_8 C15_23 1_555 1_555
C23_12 H13_12 1_555 1_555
C29_12 C23_12 1_555 1_555
H16_12 C29_12 1_555 1_555
C30_12 C23_12 1_555 1_555
C32_12 C30_12 1_555 1_555
H17_12 C32_12 1_555 1_555
C36_12 C30_12 1_555 1_555
O24_9 C36_12 1_555 1_555
O26_11 C36_12 1_555 1_555
C1_24 H1_24 1_555 1_555
C3_24 C1_24 1_555 1_555
H3_24 C3_24 1_555 1_555
C4_24 C10_24 1_555 1_555
C5_24 C7_24 1_555 1_555
C6_24 H4_24 1_555 1_555
C10_24 C3_24 1_555 1_555
C12_24 C7_24 1_555 1_555
H7_24 C12_24 1_555 1_555
C13_24 C4_24 1_555 1_555
H8_24 C13_24 1_555 1_555
C14_24 C5_24 1_555 1_555
H9_24 C14_24 1_555 1_555
C16_24 C6_24 1_555 1_555
H10_24 C16_24 1_555 1_555
C17_24 C4_24 1_555 1_555
H11_24 C17_24 1_555 1_555
C18_24 C1_24 1_555 1_555
C19_24 C14_24 1_555 1_555
C20_24 C18_24 1_555 1_555
C21_24 C19_24 1_555 1_555
O3_24 Fe11_11 1_555 1_555
O19_12 C21_24 1_555 1_555
O5_24 Fe11_11 1_555 1_555
O20_16 C20_24 1_555 1_555
O21_11 C20_24 1_555 1_555
C5_24 C13_24 1_555 1_555
C6_24 C10_24 1_555 1_555
C16_24 C18_24 1_555 1_555
C17_24 C19_24 1_555 1_555
C21_24 O5_24 1_555 1_555
C2_24 H2_24 1_555 1_555
C8_24 C2_24 1_555 1_555
H5_24 C8_24 1_555 1_555
C9_24 C2_24 1_555 1_555
C11_24 C9_24 1_555 1_555
H6_24 C11_24 1_555 1_555
C15_24 C9_24 1_555 1_555
O24_7 C15_24 1_555 1_555

#END
