
###############################################################################
#
# This file contains modified crystal structure data generated from the
# MOF subset of the Cambridge Structural Database (CSD) v543 
# hosted by the Cambridge Crystallographic Data Centre (CCDC).
#
# This work is licensed under the Creative Commons
# Attribution-NonCommercial-ShareAlike 4.0 International License.
# To view a copy of this license, visit
# http://creativecommons.org/licenses/by-nc-sa/4.0/
# or send a letter to
# Creative Commons, PO Box 1866, Mountain View, CA 94042, USA.
#
# CIF created using the CSD Python API on 29 September 2022
# The structure has been converted into the P1 space group
# The structure has a 3D framework
# The original CSD entry CAVFOX is in the monoclinic crystal system
# The framework has been calculated to contain at least 10.0% void space
# The void calculation uses a probe of radius 1.32A, grid spacing 0.4
#
###############################################################################

data_CAVFOX
_chemical_formula_moiety         '(C172 H136 Cd8 N24 O60)n'
_symmetry_cell_setting           triclinic
_symmetry_space_group_name_H-M   'P 1'
_symmetry_Int_Tables_number      1
_space_group_name_Hall           'P 1'
loop_
_symmetry_equiv_pos_site_id
_symmetry_equiv_pos_as_xyz
1 x,y,z
_cell_length_a                   8.9781(4)
_cell_length_b                   17.7109(6)
_cell_length_c                   29.9061(14)
_cell_angle_alpha                90
_cell_angle_beta                 100.398(4)
_cell_angle_gamma                90
_cell_volume                     4677.28
loop_
_atom_site_label
_atom_site_type_symbol
_atom_site_fract_x
_atom_site_fract_y
_atom_site_fract_z
N1 N 0.5302(11) 0.2089(6) 0.3494(3)
C12 C 0.0000(15) 0.1457(10) 0.1708(4)
H10 H 0.0158 0.0301 0.1775
C15 C 0.1202(16) 0.1734(9) 0.2092(5)
H12 H 0.1279 0.2254 0.2137
C16 C 0.2070(17) 0.1342(11) 0.2346(5)
H13 H 0.2024 0.0824 0.2293
C17 C 0.3210(16) 0.1618(10) 0.2735(4)
C18 C 0.3407(18) 0.2366(9) 0.2848(5)
H14 H 0.2834 0.2731 0.2670
C19 C 0.4474(17) 0.2587(8) 0.3232(5)
H15 H 0.4595 0.3097 0.3301
C20 C 0.5146(15) 0.1364(8) 0.3372(5)
H16 H 0.5772 0.1015 0.3547
C21 C 0.4137(16) 0.1100(10) 0.3012(5)
H17 H 0.4062 0.0585 0.2951
Cd3 Cd 0.69417(9) 0.25258(4) 0.41294(3)
O3 O 0.0719(10) 0.1302(5) 0.9183(3)
Cd2 Cd 0.19417(9) 0.24742(4) 0.91294(3)
Cd1 Cd 0.69417(9) 0.74742(4) 0.91294(3)
O1 O 0.8384(11) 0.8722(5) 0.9149(3)
O2 O 0.6881(9) 0.8463(4) 0.9622(3)
O5 O 0.8181(13) 0.6790(7) 0.8623(4)
O6 O 0.972(2) 0.5933(10) 0.8975(6)
O7 O 0.838(3) 0.5716(10) 0.8343(7)
O8 O 0.9064(10) 0.7045(5) 0.9624(3)
H1 H 0.8930 0.6587 0.9692
H2 H 0.9833 0.7077 0.9496
N3 N 0.869(2) 0.6153(9) 0.8669(6)
C1 C 0.7754(12) 0.8900(6) 0.9467(4)
C2 C 0.7889(10) 0.9702(5) 0.9651(3)
O9 O 0.5719(10) 0.6302(5) 0.9183(3)
O10 O 0.4722(11) 0.7205(5) 0.9529(3)
N4 N 0.5302(11) 0.7911(6) 0.8494(3)
N1_2 N 0.0302(11) 0.7089(6) 0.3494(3)
C20_2 C 0.0146(15) 0.6364(8) 0.3372(5)
H16_2 H 0.0772 0.6015 0.3547
Cd3_2 Cd 0.19417(9) 0.75258(4) 0.41294(3)
O1_2 O 0.3384(11) 0.3722(5) 0.9149(3)
O2_2 O 0.1881(9) 0.3463(4) 0.9622(3)
O5_2 O 0.3181(13) 0.1790(7) 0.8623(4)
O6_2 O 0.472(2) 0.0933(10) 0.8975(6)
O7_2 O 0.338(3) 0.0716(10) 0.8343(7)
O8_2 O 0.4064(10) 0.2045(5) 0.9624(3)
H1_2 H 0.3930 0.1587 0.9692
H2_2 H 0.4833 0.2077 0.9496
N3_2 N 0.369(2) 0.1153(9) 0.8669(6)
C1_2 C 0.2754(12) 0.3900(6) 0.9467(4)
C2_2 C 0.2889(10) 0.4702(5) 0.9651(3)
C3 C 0.3763(11) 0.5214(5) 0.9462(3)
H3 H 0.4254 0.5065 0.9228
C4 C 0.3907(11) 0.5965(6) 0.9626(3)
C5 C 0.3167(12) 0.6160(6) 0.9988(3)
C8 C 0.4846(12) 0.6522(7) 0.9433(4)
N4_2 N 0.0302(11) 0.2911(6) 0.8494(3)
O3_2 O 0.0719(10) 0.8698(5) 0.4183(3)
C12_2 C 0.0000(15) 0.8543(10) 0.6708(4)
H10_2 H 0.0158 0.9699 0.6775
C15_2 C 0.1202(16) 0.8266(9) 0.7092(5)
H12_2 H 0.1279 0.7746 0.7137
C16_2 C 0.2070(17) 0.8658(11) 0.7346(5)
H13_2 H 0.2024 0.9176 0.7293
C17_2 C 0.3210(16) 0.8382(10) 0.7735(4)
C18_2 C 0.3407(18) 0.7634(9) 0.7848(5)
H14_2 H 0.2834 0.7269 0.7670
C19_2 C 0.4474(17) 0.7413(8) 0.8232(5)
H15_2 H 0.4595 0.6903 0.8301
C20_3 C 0.5146(15) 0.8636(8) 0.8372(5)
H16_3 H 0.5772 0.8985 0.8547
C21_2 C 0.4137(16) 0.8900(10) 0.8012(5)
H17_2 H 0.4062 0.9415 0.7951
O1_3 O 0.8384(11) 0.1278(5) 0.4149(3)
O2_3 O 0.6881(9) 0.1537(4) 0.4622(3)
O5_3 O 0.8181(13) 0.3210(7) 0.3623(4)
O6_3 O 0.972(2) 0.4067(10) 0.3975(6)
O7_3 O 0.838(3) 0.4284(10) 0.3343(7)
O8_3 O 0.9064(10) 0.2955(5) 0.4624(3)
H1_3 H 0.8930 0.3413 0.4692
H2_3 H 0.9833 0.2923 0.4496
N3_3 N 0.869(2) 0.3847(9) 0.3669(6)
C1_3 C 0.7754(12) 0.1100(6) 0.4467(4)
C2_3 C 0.7889(10) 0.0298(5) 0.4651(3)
C7 C 0.7220(9) 0.0102(6) 0.5015(3)
H5 H 0.6686 0.0462 0.5148
H11 H 0.8346 0.0013 0.6159
O9_2 O 0.5719(10) 0.3698(5) 0.4183(3)
O10_2 O 0.4722(11) 0.2795(5) 0.4529(3)
C20_4 C 0.0146(15) 0.3636(8) 0.8372(5)
H16_4 H 0.0772 0.3985 0.8547
O1_4 O 0.3384(11) 0.6278(5) 0.4149(3)
O2_4 O 0.1881(9) 0.6537(4) 0.4622(3)
O5_4 O 0.3181(13) 0.8210(7) 0.3623(4)
O6_4 O 0.472(2) 0.9067(10) 0.3975(6)
O7_4 O 0.338(3) 0.9284(10) 0.3343(7)
O8_4 O 0.4064(10) 0.7955(5) 0.4624(3)
H1_4 H 0.3930 0.8413 0.4692
H2_4 H 0.4833 0.7923 0.4496
N2 N 0.2778(9) 0.3958(5) 0.5986(3)
N3_4 N 0.369(2) 0.8847(9) 0.3669(6)
C1_4 C 0.2754(12) 0.6100(6) 0.4467(4)
C2_4 C 0.2889(10) 0.5298(5) 0.4651(3)
C3_2 C 0.3763(11) 0.4786(5) 0.4462(3)
H3_2 H 0.4254 0.4935 0.4228
C4_2 C 0.3907(11) 0.4035(6) 0.4626(3)
C5_2 C 0.3167(12) 0.3840(6) 0.4988(3)
H4 H 0.3236 0.3346 0.5096
C6 C 0.2338(11) 0.4364(6) 0.5186(4)
C7_2 C 0.2220(9) 0.5102(6) 0.5015(3)
H5_2 H 0.1686 0.5462 0.5148
C8_2 C 0.4846(12) 0.3478(7) 0.4433(4)
C9 C 0.1611(11) 0.4141(7) 0.5585(4)
H6 H 0.0964 0.3705 0.5503
H7 H 0.0986 0.4553 0.5659
C10 C 0.3049(14) 0.3235(7) 0.6087(4)
H8 H 0.2480 0.2866 0.5912
C11 C 0.4147(15) 0.3022(9) 0.6442(4)
H9 H 0.4315 0.2511 0.6503
C12_3 C 0.5000(15) 0.3543(10) 0.6708(4)
C13 C 0.4640(14) 0.4319(9) 0.6597(4)
H10_3 H 0.5158 0.4699 0.6775
C14 C 0.3549(13) 0.4509(7) 0.6233(4)
H11_2 H 0.3346 0.5013 0.6159
C15_3 C 0.6202(16) 0.3266(9) 0.7092(5)
H12_3 H 0.6279 0.2746 0.7137
C16_3 C 0.7070(17) 0.3658(11) 0.7346(5)
H13_3 H 0.7024 0.4176 0.7293
C17_3 C 0.8210(16) 0.3382(10) 0.7735(4)
C18_3 C 0.8407(18) 0.2634(9) 0.7848(5)
H14_3 H 0.7834 0.2269 0.7670
C19_3 C 0.9474(17) 0.2413(8) 0.8232(5)
H15_3 H 0.9595 0.1903 0.8301
C21_3 C 0.9137(16) 0.3900(10) 0.8012(5)
H17_3 H 0.9062 0.4415 0.7951
N2_2 N 0.7778(9) 0.1042(5) 0.0986(3)
H4_2 H 0.8236 0.1654 0.0096
C6_2 C 0.7338(11) 0.0636(6) 0.0186(4)
C9_2 C 0.6611(11) 0.0859(7) 0.0585(4)
H6_2 H 0.5964 0.1295 0.0503
H7_2 H 0.5986 0.0447 0.0659
C10_2 C 0.8049(14) 0.1765(7) 0.1087(4)
H8_2 H 0.7480 0.2134 0.0912
C11_2 C 0.9147(15) 0.1978(9) 0.1442(4)
H9_2 H 0.9315 0.2489 0.1503
C12_4 C 1.0000(15) 0.1457(10) 0.1708(4)
C13_2 C 0.9640(14) 0.0681(9) 0.1597(4)
C14_2 C 0.8549(13) 0.0491(7) 0.1233(4)
O4 O 0.9722(11) 0.2205(5) 0.9529(3)
C3_3 C 0.8763(11) 0.0214(5) 0.9462(3)
H3_3 H 0.9254 0.0065 0.9228
C4_3 C 0.8907(11) 0.0965(6) 0.9626(3)
C5_3 C 0.8167(12) 0.1160(6) 0.9988(3)
C8_3 C 0.9846(12) 0.1522(7) 0.9433(4)
C7_3 C 0.7220(9) 0.9898(6) 0.0015(3)
H5_3 H 0.6686 0.9538 0.0148
H11_3 H 0.8346 0.9987 0.1159
O4_2 O 0.0278(11) 0.2205(5) 0.5471(3)
N2_3 N 0.2222(9) 0.1042(5) 0.4014(3)
C3_4 C 0.1237(11) 0.0214(5) 0.5538(3)
H3_4 H 0.0746 0.0065 0.5772
C4_4 C 0.1093(11) 0.0965(6) 0.5374(3)
C5_4 C 0.1833(12) 0.1160(6) 0.5012(3)
H4_3 H 0.1764 0.1654 0.4904
C6_3 C 0.2662(11) 0.0636(6) 0.4814(4)
C8_4 C 0.0154(12) 0.1522(7) 0.5567(4)
C9_3 C 0.3389(11) 0.0859(7) 0.4415(4)
H6_3 H 0.4036 0.1295 0.4497
H7_3 H 0.4014 0.0447 0.4341
C10_3 C 0.1951(14) 0.1765(7) 0.3913(4)
H8_3 H 0.2520 0.2134 0.4088
C11_3 C 0.0853(15) 0.1978(9) 0.3558(4)
H9_3 H 0.0685 0.2489 0.3497
C12_5 C 0.0000(15) 0.1457(10) 0.3292(4)
C13_3 C 0.0360(14) 0.0681(9) 0.3403(4)
C14_3 C 0.1451(13) 0.0491(7) 0.3767(4)
Cd1_2 Cd 0.30583(9) 0.74742(4) 0.58706(3)
O1_5 O 0.1616(11) 0.8722(5) 0.5851(3)
O2_5 O 0.3119(9) 0.8463(4) 0.5378(3)
O5_5 O 0.1819(13) 0.6790(7) 0.6377(4)
O6_5 O 0.028(2) 0.5933(10) 0.6025(6)
O7_5 O 0.162(3) 0.5716(10) 0.6657(7)
O8_5 O 0.0936(10) 0.7045(5) 0.5376(3)
H1_5 H 0.1070 0.6587 0.5308
H2_5 H 0.0167 0.7077 0.5504
N3_5 N 0.131(2) 0.6153(9) 0.6331(6)
C1_5 C 0.2246(12) 0.8900(6) 0.5533(4)
C2_5 C 0.2111(10) 0.9702(5) 0.5349(3)
C7_4 C 0.2780(9) 0.9898(6) 0.4985(3)
H5_4 H 0.3314 0.9538 0.4852
H11_4 H 0.1654 0.9987 0.3841
O9_3 O 0.4281(10) 0.6302(5) 0.5817(3)
O10_3 O 0.5278(11) 0.7205(5) 0.5471(3)
N4_3 N 0.4698(11) 0.7911(6) 0.6506(3)
O3_3 O 0.9281(10) 0.1302(5) 0.5817(3)
N1_3 N 0.4698(11) 0.2089(6) 0.1506(3)
C12_6 C 1.0000(15) 0.1457(10) 0.3292(4)
H10_4 H 0.9842 0.0301 0.3225
C15_4 C 0.8798(16) 0.1734(9) 0.2908(5)
H12_4 H 0.8721 0.2254 0.2863
C16_4 C 0.7930(17) 0.1342(11) 0.2654(5)
H13_4 H 0.7976 0.0824 0.2707
C17_4 C 0.6790(16) 0.1618(10) 0.2265(4)
C18_4 C 0.6593(18) 0.2366(9) 0.2152(5)
H14_4 H 0.7166 0.2731 0.2330
C19_4 C 0.5526(17) 0.2587(8) 0.1768(5)
H15_4 H 0.5405 0.3097 0.1699
C20_5 C 0.4854(15) 0.1364(8) 0.1628(5)
H16_5 H 0.4228 0.1015 0.1453
C21_4 C 0.5863(16) 0.1100(10) 0.1988(5)
H17_4 H 0.5938 0.0585 0.2049
Cd2_2 Cd 0.80583(9) 0.24742(4) 0.58706(3)
Cd3_3 Cd 0.30583(9) 0.25258(4) 0.08706(3)
O1_6 O 0.6616(11) 0.3722(5) 0.5851(3)
O2_6 O 0.8119(9) 0.3463(4) 0.5378(3)
O5_6 O 0.6819(13) 0.1790(7) 0.6377(4)
O6_6 O 0.528(2) 0.0933(10) 0.6025(6)
O7_6 O 0.662(3) 0.0716(10) 0.6657(7)
O8_6 O 0.5936(10) 0.2045(5) 0.5376(3)
H1_6 H 0.6070 0.1587 0.5308
H2_6 H 0.5167 0.2077 0.5504
N2_4 N 0.7222(9) 0.6042(5) 0.4014(3)
N3_6 N 0.631(2) 0.1153(9) 0.6331(6)
C1_6 C 0.7246(12) 0.3900(6) 0.5533(4)
C2_6 C 0.7111(10) 0.4702(5) 0.5349(3)
C3_5 C 0.6237(11) 0.5214(5) 0.5538(3)
H3_5 H 0.5746 0.5065 0.5772
C4_5 C 0.6093(11) 0.5965(6) 0.5374(3)
C5_5 C 0.6833(12) 0.6160(6) 0.5012(3)
H4_4 H 0.6764 0.6654 0.4904
C6_4 C 0.7662(11) 0.5636(6) 0.4814(4)
C7_5 C 0.7780(9) 0.4898(6) 0.4985(3)
H5_5 H 0.8314 0.4538 0.4852
C8_5 C 0.5154(12) 0.6522(7) 0.5567(4)
C9_4 C 0.8389(11) 0.5859(7) 0.4415(4)
H6_4 H 0.9036 0.6295 0.4497
H7_4 H 0.9014 0.5447 0.4341
C10_4 C 0.6951(14) 0.6765(7) 0.3913(4)
H8_4 H 0.7520 0.7134 0.4088
C11_4 C 0.5853(15) 0.6978(9) 0.3558(4)
H9_4 H 0.5685 0.7489 0.3497
C12_7 C 0.5000(15) 0.6457(10) 0.3292(4)
C13_4 C 0.5360(14) 0.5681(9) 0.3403(4)
H10_5 H 0.4842 0.5301 0.3225
C14_4 C 0.6451(13) 0.5491(7) 0.3767(4)
H11_5 H 0.6654 0.4987 0.3841
C15_5 C 0.3798(16) 0.6734(9) 0.2908(5)
H12_5 H 0.3721 0.7254 0.2863
C16_5 C 0.2930(17) 0.6342(11) 0.2654(5)
H13_5 H 0.2976 0.5824 0.2707
C17_5 C 0.1790(16) 0.6618(10) 0.2265(4)
C18_5 C 0.1593(18) 0.7366(9) 0.2152(5)
H14_5 H 0.2166 0.7731 0.2330
C19_5 C 0.0526(17) 0.7587(8) 0.1768(5)
H15_5 H 0.0405 0.8097 0.1699
C21_5 C 0.0863(16) 0.6100(10) 0.1988(5)
H17_5 H 0.0938 0.5585 0.2049
N4_4 N 0.9698(11) 0.2911(6) 0.6506(3)
N1_4 N 0.9698(11) 0.7089(6) 0.1506(3)
C20_6 C 0.9854(15) 0.6364(8) 0.1628(5)
H16_6 H 0.9228 0.6015 0.1453
Cd3_4 Cd 0.80583(9) 0.75258(4) 0.08706(3)
O1_7 O 0.1616(11) 0.1278(5) 0.0851(3)
O2_7 O 0.3119(9) 0.1537(4) 0.0378(3)
O5_7 O 0.1819(13) 0.3210(7) 0.1377(4)
O6_7 O 0.028(2) 0.4067(10) 0.1025(6)
O7_7 O 0.162(3) 0.4284(10) 0.1657(7)
O8_7 O 0.0936(10) 0.2955(5) 0.0376(3)
H1_7 H 0.1070 0.3413 0.0308
H2_7 H 0.0167 0.2923 0.0504
N3_7 N 0.131(2) 0.3847(9) 0.1331(6)
C1_7 C 0.2246(12) 0.1100(6) 0.0533(4)
C2_7 C 0.2111(10) 0.0298(5) 0.0349(3)
O9_4 O 0.4281(10) 0.3698(5) 0.0817(3)
O10_4 O 0.5278(11) 0.2795(5) 0.0471(3)
O3_4 O 0.9281(10) 0.8698(5) 0.0817(3)
C12_8 C 1.0000(15) 0.8543(10) 0.8292(4)
H10_6 H 0.9842 0.9699 0.8225
C15_6 C 0.8798(16) 0.8266(9) 0.7908(5)
H12_6 H 0.8721 0.7746 0.7863
C16_6 C 0.7930(17) 0.8658(11) 0.7654(5)
H13_6 H 0.7976 0.9176 0.7707
C17_6 C 0.6790(16) 0.8382(10) 0.7265(4)
C18_6 C 0.6593(18) 0.7634(9) 0.7152(5)
H14_6 H 0.7166 0.7269 0.7330
C19_6 C 0.5526(17) 0.7413(8) 0.6768(5)
H15_6 H 0.5405 0.6903 0.6699
C20_7 C 0.4854(15) 0.8636(8) 0.6628(5)
H16_7 H 0.4228 0.8985 0.6453
C21_6 C 0.5863(16) 0.8900(10) 0.6988(5)
H17_6 H 0.5938 0.9415 0.7049
O1_8 O 0.6616(11) 0.6278(5) 0.0851(3)
O2_8 O 0.8119(9) 0.6537(4) 0.0378(3)
O5_8 O 0.6819(13) 0.8210(7) 0.1377(4)
O6_8 O 0.528(2) 0.9067(10) 0.1025(6)
O7_8 O 0.662(3) 0.9284(10) 0.1657(7)
O8_8 O 0.5936(10) 0.7955(5) 0.0376(3)
H1_8 H 0.6070 0.8413 0.0308
H2_8 H 0.5167 0.7923 0.0504
N3_8 N 0.631(2) 0.8847(9) 0.1331(6)
C1_8 C 0.7246(12) 0.6100(6) 0.0533(4)
C2_8 C 0.7111(10) 0.5298(5) 0.0349(3)
C3_6 C 0.6237(11) 0.4786(5) 0.0538(3)
H3_6 H 0.5746 0.4935 0.0772
C4_6 C 0.6093(11) 0.4035(6) 0.0374(3)
C5_6 C 0.6833(12) 0.3840(6) 0.0012(3)
C8_6 C 0.5154(12) 0.3478(7) 0.0567(4)
C20_8 C 0.9854(15) 0.3636(8) 0.6628(5)
H16_8 H 0.9228 0.3985 0.6453
N2_5 N 0.2778(9) 0.6042(5) 0.0986(3)
H4_5 H 0.3236 0.6654 0.0096
C6_5 C 0.2338(11) 0.5636(6) 0.0186(4)
C7_6 C 0.2220(9) 0.4898(6) 0.0015(3)
H5_6 H 0.1686 0.4538 0.0148
C9_5 C 0.1611(11) 0.5859(7) 0.0585(4)
H6_5 H 0.0964 0.6295 0.0503
H7_5 H 0.0986 0.5447 0.0659
C10_5 C 0.3049(14) 0.6765(7) 0.1087(4)
H8_5 H 0.2480 0.7134 0.0912
C11_5 C 0.4147(15) 0.6978(9) 0.1442(4)
H9_5 H 0.4315 0.7489 0.1503
C12_9 C 0.5000(15) 0.6457(10) 0.1708(4)
C13_5 C 0.4640(14) 0.5681(9) 0.1597(4)
H10_7 H 0.5158 0.5301 0.1775
C14_5 C 0.3549(13) 0.5491(7) 0.1233(4)
H11_6 H 0.3346 0.4987 0.1159
C15_7 C 0.6202(16) 0.6734(9) 0.2092(5)
H12_7 H 0.6279 0.7254 0.2137
C16_7 C 0.7070(17) 0.6342(11) 0.2346(5)
H13_7 H 0.7024 0.5824 0.2293
C17_7 C 0.8210(16) 0.6618(10) 0.2735(4)
C18_7 C 0.8407(18) 0.7366(9) 0.2848(5)
H14_7 H 0.7834 0.7731 0.2670
C19_7 C 0.9474(17) 0.7587(8) 0.3232(5)
H15_7 H 0.9595 0.8097 0.3301
C21_7 C 0.9137(16) 0.6100(10) 0.3012(5)
H17_7 H 0.9062 0.5585 0.2951
C7_7 C 0.2780(9) 0.0102(6) 0.9985(3)
H5_7 H 0.3314 0.0462 0.9852
H11_7 H 0.1654 0.0013 0.8841
O4_3 O 0.0278(11) 0.7795(5) 0.0471(3)
C3_7 C 0.1237(11) 0.9786(5) 0.0538(3)
H3_7 H 0.0746 0.9935 0.0772
C4_7 C 0.1093(11) 0.9035(6) 0.0374(3)
C5_7 C 0.1833(12) 0.8840(6) 0.0012(3)
C8_7 C 0.0154(12) 0.8478(7) 0.0567(4)
N2_6 N 0.2222(9) 0.8958(5) 0.9014(3)
H4_6 H 0.1764 0.8346 0.9904
C6_6 C 0.2662(11) 0.9364(6) 0.9814(4)
C9_6 C 0.3389(11) 0.9141(7) 0.9415(4)
H6_6 H 0.4036 0.8705 0.9497
H7_6 H 0.4014 0.9553 0.9341
C10_6 C 0.1951(14) 0.8235(7) 0.8913(4)
H8_6 H 0.2520 0.7866 0.9088
C11_6 C 0.0853(15) 0.8022(9) 0.8558(4)
H9_6 H 0.0685 0.7511 0.8497
C12_10 C 0.0000(15) 0.8543(10) 0.8292(4)
C13_6 C 0.0360(14) 0.9319(9) 0.8403(4)
C14_6 C 0.1451(13) 0.9509(7) 0.8767(4)
O4_4 O 0.9722(11) 0.7795(5) 0.4529(3)
N2_7 N 0.7778(9) 0.8958(5) 0.5986(3)
C3_8 C 0.8763(11) 0.9786(5) 0.4462(3)
H3_8 H 0.9254 0.9935 0.4228
C4_8 C 0.8907(11) 0.9035(6) 0.4626(3)
C5_8 C 0.8167(12) 0.8840(6) 0.4988(3)
H4_7 H 0.8236 0.8346 0.5096
C6_7 C 0.7338(11) 0.9364(6) 0.5186(4)
C8_8 C 0.9846(12) 0.8478(7) 0.4433(4)
C9_7 C 0.6611(11) 0.9141(7) 0.5585(4)
H6_7 H 0.5964 0.8705 0.5503
H7_7 H 0.5986 0.9553 0.5659
C10_7 C 0.8049(14) 0.8235(7) 0.6087(4)
H8_7 H 0.7480 0.7866 0.5912
C11_7 C 0.9147(15) 0.8022(9) 0.6442(4)
H9_7 H 0.9315 0.7511 0.6503
C12_11 C 1.0000(15) 0.8543(10) 0.6708(4)
C13_7 C 0.9640(14) 0.9319(9) 0.6597(4)
C14_7 C 0.8549(13) 0.9509(7) 0.6233(4)
N2_8 N 0.7222(9) 0.3958(5) 0.9014(3)
H4_8 H 0.6764 0.3346 0.9904
C6_8 C 0.7662(11) 0.4364(6) 0.9814(4)
C7_8 C 0.7780(9) 0.5102(6) 0.9985(3)
H5_8 H 0.8314 0.5462 0.9852
C9_8 C 0.8389(11) 0.4141(7) 0.9415(4)
H6_8 H 0.9036 0.3705 0.9497
H7_8 H 0.9014 0.4553 0.9341
C10_8 C 0.6951(14) 0.3235(7) 0.8913(4)
H8_8 H 0.7520 0.2866 0.9088
C11_8 C 0.5853(15) 0.3022(9) 0.8558(4)
H9_8 H 0.5685 0.2511 0.8497
C12_12 C 0.5000(15) 0.3543(10) 0.8292(4)
C13_8 C 0.5360(14) 0.4319(9) 0.8403(4)
H10_8 H 0.4842 0.4699 0.8225
C14_8 C 0.6451(13) 0.4509(7) 0.8767(4)
H11_8 H 0.6654 0.5013 0.8841
C15_8 C 0.3798(16) 0.3266(9) 0.7908(5)
H12_8 H 0.3721 0.2746 0.7863
C16_8 C 0.2930(17) 0.3658(11) 0.7654(5)
H13_8 H 0.2976 0.4176 0.7707
C17_8 C 0.1790(16) 0.3382(10) 0.7265(4)
C18_8 C 0.1593(18) 0.2634(9) 0.7152(5)
H14_8 H 0.2166 0.2269 0.7330
C19_8 C 0.0526(17) 0.2413(8) 0.6768(5)
H15_8 H 0.0405 0.1903 0.6699
C21_8 C 0.0863(16) 0.3900(10) 0.6988(5)
H17_8 H 0.0938 0.4415 0.7049
loop_
_geom_bond_atom_site_label_1
_geom_bond_atom_site_label_2
_geom_bond_site_symmetry_1
_geom_bond_site_symmetry_2
N1 C19 1_555 1_555
C15 C12 1_555 1_555
H12 C15 1_555 1_555
C16 C15 1_555 1_555
H13 C16 1_555 1_555
C17 C16 1_555 1_555
C18 C17 1_555 1_555
H14 C18 1_555 1_555
C19 C18 1_555 1_555
H15 C19 1_555 1_555
C20 N1 1_555 1_555
H16 C20 1_555 1_555
C21 C17 1_555 1_555
H17 C21 1_555 1_555
Cd3 N1 1_555 1_555
C20 C21 1_555 1_555
Cd2 O3 1_555 1_555
Cd1 O1 1_555 1_555
O1 C1 1_555 1_555
O2 Cd1 1_555 1_555
O5 Cd1 1_555 1_555
O6 N3 1_555 1_555
O7 N3 1_555 1_555
O8 Cd1 1_555 1_555
H1 O8 1_555 1_555
H2 O8 1_555 1_555
N3 O5 1_555 1_555
C1 O2 1_555 1_555
C2 C1 1_555 1_555
O9 Cd1 1_555 1_555
O10 Cd1 1_555 1_555
N4 Cd1 1_555 1_555
C20_2 N1_2 1_555 1_555
H16_2 C20_2 1_555 1_555
Cd3_2 N1_2 1_555 1_555
Cd2 O1_2 1_555 1_555
O1_2 C1_2 1_555 1_555
O2_2 Cd2 1_555 1_555
O9 C8 1_555 1_555
O10 C8 1_555 1_555
O5_2 Cd2 1_555 1_555
O6_2 N3_2 1_555 1_555
O7_2 N3_2 1_555 1_555
O8_2 Cd2 1_555 1_555
H1_2 O8_2 1_555 1_555
H2_2 O8_2 1_555 1_555
N3_2 O5_2 1_555 1_555
C1_2 O2_2 1_555 1_555
C2_2 C1_2 1_555 1_555
C3 C2_2 1_555 1_555
H3 C3 1_555 1_555
C4 C3 1_555 1_555
C5 C4 1_555 1_555
C8 C4 1_555 1_555
N4_2 Cd2 1_555 1_555
N4 C19_2 1_555 1_555
C15_2 C12_2 1_555 1_555
H12_2 C15_2 1_555 1_555
C16_2 C15_2 1_555 1_555
H13_2 C16_2 1_555 1_555
C17_2 C16_2 1_555 1_555
C18_2 C17_2 1_555 1_555
H14_2 C18_2 1_555 1_555
C19_2 C18_2 1_555 1_555
H15_2 C19_2 1_555 1_555
C20_3 N4 1_555 1_555
H16_3 C20_3 1_555 1_555
C21_2 C17_2 1_555 1_555
H17_2 C21_2 1_555 1_555
Cd3_2 O3_2 1_555 1_555
C20_3 C21_2 1_555 1_555
Cd3 O1_3 1_555 1_555
O1_3 C1_3 1_555 1_555
O2_3 Cd3 1_555 1_555
O5_3 Cd3 1_555 1_555
O6_3 N3_3 1_555 1_555
O7_3 N3_3 1_555 1_555
O8_3 Cd3 1_555 1_555
H1_3 O8_3 1_555 1_555
H2_3 O8_3 1_555 1_555
N3_3 O5_3 1_555 1_555
C1_3 O2_3 1_555 1_555
C2_3 C1_3 1_555 1_555
C7 C2_3 1_555 1_555
H5 C7 1_555 1_555
O9_2 Cd3 1_555 1_555
O10_2 Cd3 1_555 1_555
C20_4 N4_2 1_555 1_555
H16_4 C20_4 1_555 1_555
Cd3_2 O1_4 1_555 1_555
O1_4 C1_4 1_555 1_555
O2_4 Cd3_2 1_555 1_555
O9_2 C8_2 1_555 1_555
O10_2 C8_2 1_555 1_555
O5_4 Cd3_2 1_555 1_555
O6_4 N3_4 1_555 1_555
O7_4 N3_4 1_555 1_555
O8_4 Cd3_2 1_555 1_555
H1_4 O8_4 1_555 1_555
H2_4 O8_4 1_555 1_555
N2 C9 1_555 1_555
N3_4 O5_4 1_555 1_555
C1_4 O2_4 1_555 1_555
C2_4 C1_4 1_555 1_555
C3_2 C2_4 1_555 1_555
H3_2 C3_2 1_555 1_555
C4_2 C3_2 1_555 1_555
C5_2 C4_2 1_555 1_555
H4 C5_2 1_555 1_555
C6 C5_2 1_555 1_555
C7_2 C2_4 1_555 1_555
H5_2 C7_2 1_555 1_555
C8_2 C4_2 1_555 1_555
C9 C6 1_555 1_555
H6 C9 1_555 1_555
H7 C9 1_555 1_555
C10 N2 1_555 1_555
H8 C10 1_555 1_555
C11 C10 1_555 1_555
H9 C11 1_555 1_555
C12_3 C11 1_555 1_555
C13 C12_3 1_555 1_555
H10_3 C13 1_555 1_555
C14 N2 1_555 1_555
H11_2 C14 1_555 1_555
C15_3 C12_3 1_555 1_555
H12_3 C15_3 1_555 1_555
C16_3 C15_3 1_555 1_555
H13_3 C16_3 1_555 1_555
C17_3 C16_3 1_555 1_555
C18_3 C17_3 1_555 1_555
H14_3 C18_3 1_555 1_555
C19_3 C18_3 1_555 1_555
H15_3 C19_3 1_555 1_555
C21_3 C17_3 1_555 1_555
H17_3 C21_3 1_555 1_555
C6 C7_2 1_555 1_555
C13 C14 1_555 1_555
N2_2 C9_2 1_555 1_555
C9_2 C6_2 1_555 1_555
H6_2 C9_2 1_555 1_555
H7_2 C9_2 1_555 1_555
C10_2 N2_2 1_555 1_555
H8_2 C10_2 1_555 1_555
C11_2 C10_2 1_555 1_555
H9_2 C11_2 1_555 1_555
C12_4 C11_2 1_555 1_555
C13_2 C12_4 1_555 1_555
C14_2 N2_2 1_555 1_555
C13_2 C14_2 1_555 1_555
O4 C8_3 1_555 1_555
H3_3 C3_3 1_555 1_555
C4_3 C3_3 1_555 1_555
C5_3 C4_3 1_555 1_555
C8_3 C4_3 1_555 1_555
H5_3 C7_3 1_555 1_555
O4_2 C8_4 1_555 1_555
N2_3 C9_3 1_555 1_555
H3_4 C3_4 1_555 1_555
C4_4 C3_4 1_555 1_555
C5_4 C4_4 1_555 1_555
H4_3 C5_4 1_555 1_555
C6_3 C5_4 1_555 1_555
C8_4 C4_4 1_555 1_555
C9_3 C6_3 1_555 1_555
H6_3 C9_3 1_555 1_555
H7_3 C9_3 1_555 1_555
C10_3 N2_3 1_555 1_555
H8_3 C10_3 1_555 1_555
C11_3 C10_3 1_555 1_555
H9_3 C11_3 1_555 1_555
C12_5 C11_3 1_555 1_555
C13_3 C12_5 1_555 1_555
C14_3 N2_3 1_555 1_555
C13_3 C14_3 1_555 1_555
Cd1_2 O1_5 1_555 1_555
O1_5 C1_5 1_555 1_555
O2_5 Cd1_2 1_555 1_555
O5_5 Cd1_2 1_555 1_555
O6_5 N3_5 1_555 1_555
O7_5 N3_5 1_555 1_555
O8_5 Cd1_2 1_555 1_555
H1_5 O8_5 1_555 1_555
H2_5 O8_5 1_555 1_555
N3_5 O5_5 1_555 1_555
C1_5 O2_5 1_555 1_555
C2_5 C1_5 1_555 1_555
C7_4 C2_5 1_555 1_555
H5_4 C7_4 1_555 1_555
O9_3 Cd1_2 1_555 1_555
O10_3 Cd1_2 1_555 1_555
N4_3 Cd1_2 1_555 1_555
N1_3 C19_4 1_555 1_555
C15_4 C12_6 1_555 1_555
H12_4 C15_4 1_555 1_555
C16_4 C15_4 1_555 1_555
H13_4 C16_4 1_555 1_555
C17_4 C16_4 1_555 1_555
C18_4 C17_4 1_555 1_555
H14_4 C18_4 1_555 1_555
C19_4 C18_4 1_555 1_555
H15_4 C19_4 1_555 1_555
C20_5 N1_3 1_555 1_555
H16_5 C20_5 1_555 1_555
C21_4 C17_4 1_555 1_555
H17_4 C21_4 1_555 1_555
Cd2_2 O3_3 1_555 1_555
Cd3_3 N1_3 1_555 1_555
C20_5 C21_4 1_555 1_555
Cd2_2 O1_6 1_555 1_555
O1_6 C1_6 1_555 1_555
O2_6 Cd2_2 1_555 1_555
O9_3 C8_5 1_555 1_555
O10_3 C8_5 1_555 1_555
O5_6 Cd2_2 1_555 1_555
O6_6 N3_6 1_555 1_555
O7_6 N3_6 1_555 1_555
O8_6 Cd2_2 1_555 1_555
H1_6 O8_6 1_555 1_555
H2_6 O8_6 1_555 1_555
N2_4 C9_4 1_555 1_555
N3_6 O5_6 1_555 1_555
C1_6 O2_6 1_555 1_555
C2_6 C1_6 1_555 1_555
C3_5 C2_6 1_555 1_555
H3_5 C3_5 1_555 1_555
C4_5 C3_5 1_555 1_555
C5_5 C4_5 1_555 1_555
H4_4 C5_5 1_555 1_555
C6_4 C5_5 1_555 1_555
C7_5 C2_6 1_555 1_555
H5_5 C7_5 1_555 1_555
C8_5 C4_5 1_555 1_555
C9_4 C6_4 1_555 1_555
H6_4 C9_4 1_555 1_555
H7_4 C9_4 1_555 1_555
C10_4 N2_4 1_555 1_555
H8_4 C10_4 1_555 1_555
C11_4 C10_4 1_555 1_555
H9_4 C11_4 1_555 1_555
C12_7 C11_4 1_555 1_555
C13_4 C12_7 1_555 1_555
H10_5 C13_4 1_555 1_555
C14_4 N2_4 1_555 1_555
H11_5 C14_4 1_555 1_555
C15_5 C12_7 1_555 1_555
H12_5 C15_5 1_555 1_555
C16_5 C15_5 1_555 1_555
H13_5 C16_5 1_555 1_555
C17_5 C16_5 1_555 1_555
C18_5 C17_5 1_555 1_555
H14_5 C18_5 1_555 1_555
C19_5 C18_5 1_555 1_555
H15_5 C19_5 1_555 1_555
C21_5 C17_5 1_555 1_555
H17_5 C21_5 1_555 1_555
N4_4 Cd2_2 1_555 1_555
C6_4 C7_5 1_555 1_555
C13_4 C14_4 1_555 1_555
C20_6 N1_4 1_555 1_555
H16_6 C20_6 1_555 1_555
Cd3_4 N1_4 1_555 1_555
Cd3_3 O1_7 1_555 1_555
O1_7 C1_7 1_555 1_555
O2_7 Cd3_3 1_555 1_555
O5_7 Cd3_3 1_555 1_555
O6_7 N3_7 1_555 1_555
O7_7 N3_7 1_555 1_555
O8_7 Cd3_3 1_555 1_555
H1_7 O8_7 1_555 1_555
H2_7 O8_7 1_555 1_555
N3_7 O5_7 1_555 1_555
C1_7 O2_7 1_555 1_555
C2_7 C1_7 1_555 1_555
O9_4 Cd3_3 1_555 1_555
O10_4 Cd3_3 1_555 1_555
Cd3_4 O3_4 1_555 1_555
N4_3 C19_6 1_555 1_555
C15_6 C12_8 1_555 1_555
H12_6 C15_6 1_555 1_555
C16_6 C15_6 1_555 1_555
H13_6 C16_6 1_555 1_555
C17_6 C16_6 1_555 1_555
C18_6 C17_6 1_555 1_555
H14_6 C18_6 1_555 1_555
C19_6 C18_6 1_555 1_555
H15_6 C19_6 1_555 1_555
C20_7 N4_3 1_555 1_555
H16_7 C20_7 1_555 1_555
C21_6 C17_6 1_555 1_555
H17_6 C21_6 1_555 1_555
C20_7 C21_6 1_555 1_555
Cd3_4 O1_8 1_555 1_555
O1_8 C1_8 1_555 1_555
O2_8 Cd3_4 1_555 1_555
O9_4 C8_6 1_555 1_555
O10_4 C8_6 1_555 1_555
O5_8 Cd3_4 1_555 1_555
O6_8 N3_8 1_555 1_555
O7_8 N3_8 1_555 1_555
O8_8 Cd3_4 1_555 1_555
H1_8 O8_8 1_555 1_555
H2_8 O8_8 1_555 1_555
N3_8 O5_8 1_555 1_555
C1_8 O2_8 1_555 1_555
C2_8 C1_8 1_555 1_555
C3_6 C2_8 1_555 1_555
H3_6 C3_6 1_555 1_555
C4_6 C3_6 1_555 1_555
C5_6 C4_6 1_555 1_555
C8_6 C4_6 1_555 1_555
C20_8 N4_4 1_555 1_555
H16_8 C20_8 1_555 1_555
N2_5 C9_5 1_555 1_555
H5_6 C7_6 1_555 1_555
C9_5 C6_5 1_555 1_555
H6_5 C9_5 1_555 1_555
H7_5 C9_5 1_555 1_555
C10_5 N2_5 1_555 1_555
H8_5 C10_5 1_555 1_555
C11_5 C10_5 1_555 1_555
H9_5 C11_5 1_555 1_555
C12_9 C11_5 1_555 1_555
C13_5 C12_9 1_555 1_555
H10_7 C13_5 1_555 1_555
C14_5 N2_5 1_555 1_555
H11_6 C14_5 1_555 1_555
C15_7 C12_9 1_555 1_555
H12_7 C15_7 1_555 1_555
C16_7 C15_7 1_555 1_555
H13_7 C16_7 1_555 1_555
C17_7 C16_7 1_555 1_555
C18_7 C17_7 1_555 1_555
H14_7 C18_7 1_555 1_555
C19_7 C18_7 1_555 1_555
H15_7 C19_7 1_555 1_555
C21_7 C17_7 1_555 1_555
H17_7 C21_7 1_555 1_555
C6_5 C7_6 1_555 1_555
C13_5 C14_5 1_555 1_555
H5_7 C7_7 1_555 1_555
O4_3 C8_7 1_555 1_555
H3_7 C3_7 1_555 1_555
C4_7 C3_7 1_555 1_555
C5_7 C4_7 1_555 1_555
C8_7 C4_7 1_555 1_555
N2_6 C9_6 1_555 1_555
C9_6 C6_6 1_555 1_555
H6_6 C9_6 1_555 1_555
H7_6 C9_6 1_555 1_555
C10_6 N2_6 1_555 1_555
H8_6 C10_6 1_555 1_555
C11_6 C10_6 1_555 1_555
H9_6 C11_6 1_555 1_555
C12_10 C11_6 1_555 1_555
C13_6 C12_10 1_555 1_555
C14_6 N2_6 1_555 1_555
C13_6 C14_6 1_555 1_555
O4_4 C8_8 1_555 1_555
N2_7 C9_7 1_555 1_555
H3_8 C3_8 1_555 1_555
C4_8 C3_8 1_555 1_555
C5_8 C4_8 1_555 1_555
H4_7 C5_8 1_555 1_555
C6_7 C5_8 1_555 1_555
C8_8 C4_8 1_555 1_555
C9_7 C6_7 1_555 1_555
H6_7 C9_7 1_555 1_555
H7_7 C9_7 1_555 1_555
C10_7 N2_7 1_555 1_555
H8_7 C10_7 1_555 1_555
C11_7 C10_7 1_555 1_555
H9_7 C11_7 1_555 1_555
C12_11 C11_7 1_555 1_555
C13_7 C12_11 1_555 1_555
C14_7 N2_7 1_555 1_555
C13_7 C14_7 1_555 1_555
N2_8 C9_8 1_555 1_555
H5_8 C7_8 1_555 1_555
C9_8 C6_8 1_555 1_555
H6_8 C9_8 1_555 1_555
H7_8 C9_8 1_555 1_555
C10_8 N2_8 1_555 1_555
H8_8 C10_8 1_555 1_555
C11_8 C10_8 1_555 1_555
H9_8 C11_8 1_555 1_555
C12_12 C11_8 1_555 1_555
C13_8 C12_12 1_555 1_555
H10_8 C13_8 1_555 1_555
C14_8 N2_8 1_555 1_555
H11_8 C14_8 1_555 1_555
C15_8 C12_12 1_555 1_555
H12_8 C15_8 1_555 1_555
C16_8 C15_8 1_555 1_555
H13_8 C16_8 1_555 1_555
C17_8 C16_8 1_555 1_555
C18_8 C17_8 1_555 1_555
H14_8 C18_8 1_555 1_555
C19_8 C18_8 1_555 1_555
H15_8 C19_8 1_555 1_555
C21_8 C17_8 1_555 1_555
H17_8 C21_8 1_555 1_555
C6_8 C7_8 1_555 1_555
C13_8 C14_8 1_555 1_555

#END
