
###############################################################################
#
# This file contains modified crystal structure data generated from the
# MOF subset of the Cambridge Structural Database (CSD) v543 
# hosted by the Cambridge Crystallographic Data Centre (CCDC).
#
# This work is licensed under the Creative Commons
# Attribution-NonCommercial-ShareAlike 4.0 International License.
# To view a copy of this license, visit
# http://creativecommons.org/licenses/by-nc-sa/4.0/
# or send a letter to
# Creative Commons, PO Box 1866, Mountain View, CA 94042, USA.
#
# CIF created using the CSD Python API on 29 September 2022
# The structure has been converted into the P1 space group
# The structure has a 3D framework
# The original CSD entry CAVFEN is in the orthorhombic crystal system
# The framework has been calculated to contain at least 10.0% void space
# The void calculation uses a probe of radius 1.32A, grid spacing 0.4
#
###############################################################################

data_CAVFEN
_chemical_formula_moiety         '(C168 H136 N24 O64 Zn8)n'
_symmetry_cell_setting           triclinic
_symmetry_space_group_name_H-M   'P 1'
_symmetry_Int_Tables_number      1
_space_group_name_Hall           'P 1'
loop_
_symmetry_equiv_pos_site_id
_symmetry_equiv_pos_as_xyz
1 x,y,z
_cell_length_a                   17.8114(10)
_cell_length_b                   31.441(2)
_cell_length_c                   8.0756(6)
_cell_angle_alpha                90
_cell_angle_beta                 90
_cell_angle_gamma                90
_cell_volume                     4522.4
loop_
_atom_site_label
_atom_site_type_symbol
_atom_site_fract_x
_atom_site_fract_y
_atom_site_fract_z
Zn1 Zn 0.23394(3) 0.579292(14) 0.70864(6)
O1 O 0.12531(16) 0.57292(9) 0.6531(5)
O2 O 0.15207(17) 0.51521(11) 0.7926(4)
O5 O 0.29112(16) 0.55755(9) 0.9104(4)
H1 H 0.3370 0.5647 0.9027
H2 H 0.2878 0.5306 0.9150
C1 C 0.1064(2) 0.53800(13) 0.7164(5)
C2 C 0.0252(2) 0.52606(12) 0.7048(5)
H3 H 0.0299 0.4735 0.8489
O6 O 0.28213(14) 0.55652(10) 0.5137(4)
N3 N 0.2245(2) 0.64063(11) 0.7907(5)
O3 O 0.87844(18) 0.59674(10) 0.4082(4)
O4 O 0.78213(14) 0.55652(10) 0.4863(4)
N1 N 0.7755(2) 0.14063(11) 0.2907(5)
N2 N 0.88037(19) 0.40320(10) 0.7743(4)
C3 C 0.9975(2) 0.49029(12) 0.7868(5)
C4 C 0.9220(2) 0.47956(12) 0.7764(5)
C5 C 0.8745(2) 0.50449(11) 0.6808(5)
H4 H 0.8240 0.4972 0.6714
C6 C 0.9013(2) 0.54026(11) 0.5988(5)
C7 C 0.8511(2) 0.56703(14) 0.4902(5)
C8 C 0.9765(2) 0.55128(11) 0.6135(5)
H5 H 0.9944 0.5757 0.5620
C9 C 0.8925(2) 0.44266(12) 0.8736(5)
H6 H 0.9275 0.4364 0.9622
H7 H 0.8452 0.4508 0.9240
C10 C 0.9402(3) 0.38171(13) 0.7169(6)
H8 H 0.9880 0.3930 0.7312
C11 C 0.9319(3) 0.34401(14) 0.6388(6)
H9 H 0.9741 0.3297 0.6003
C12 C 0.8611(3) 0.32640(13) 0.6153(6)
C13 C 0.8006(3) 0.35017(15) 0.6695(6)
H10 H 0.7522 0.3401 0.6520
C14 C 0.8109(2) 0.38809(13) 0.7482(5)
H11 H 0.7695 0.4036 0.7841
C15 C 0.8555(3) 0.28407(14) 0.5379(6)
H12 H 0.8999 0.2711 0.5041
C16 C 0.7936(3) 0.26358(15) 0.5135(6)
H13 H 0.7491 0.2766 0.5459
C17 C 0.7885(3) 0.22072(13) 0.4373(6)
C18 C 0.8514(3) 0.19567(14) 0.4065(6)
H14 H 0.8990 0.2054 0.4345
C19 C 0.8423(3) 0.15642(14) 0.3341(6)
H15 H 0.8848 0.1400 0.3144
C20 C 0.7153(3) 0.16481(15) 0.3211(7)
H16 H 0.6682 0.1546 0.2913
C21 C 0.7201(3) 0.20422(14) 0.3947(7)
H17 H 0.6767 0.2197 0.4156
Zn2 Zn 0.73394(3) 0.579292(14) 0.29136(6)
Zn3 Zn 0.76606(3) 0.079292(14) 0.20864(6)
O3_2 O 0.62156(18) 0.09674(10) 0.0918(4)
O4_2 O 0.71787(14) 0.05652(10) 0.0137(4)
C7_2 C 0.6489(2) 0.06703(14) 0.0098(5)
Zn1_2 Zn 0.26606(3) 0.079292(14) 0.79136(6)
O1_2 O 0.37469(16) 0.07292(9) 0.8469(5)
O2_2 O 0.34793(17) 0.01521(11) 0.7074(4)
O5_2 O 0.20888(16) 0.05755(9) 0.5896(4)
H1_2 H 0.1630 0.0647 0.5973
H2_2 H 0.2122 0.0306 0.5850
C1_2 C 0.3936(2) 0.03800(13) 0.7836(5)
C2_2 C 0.4748(2) 0.02606(12) 0.7952(5)
C5_2 C 0.6255(2) 0.00449(11) 0.8192(5)
C6_2 C 0.5987(2) 0.04026(11) 0.9012(5)
C8_2 C 0.5235(2) 0.05128(11) 0.8865(5)
H5_2 H 0.5056 0.0757 0.9380
O6_2 O 0.21787(14) 0.05652(10) 0.9863(4)
N3_2 N 0.2755(2) 0.14063(11) 0.7093(5)
N1_2 N 0.7245(2) 0.64063(11) 0.2093(5)
C17_2 C 0.7115(3) 0.72072(13) 0.0627(6)
C18_2 C 0.6486(3) 0.69567(14) 0.0935(6)
H14_2 H 0.6010 0.7054 0.0655
C19_2 C 0.6577(3) 0.65642(14) 0.1659(6)
H15_2 H 0.6152 0.6400 0.1856
C20_2 C 0.7847(3) 0.66481(15) 0.1789(7)
H16_2 H 0.8318 0.6546 0.2087
C21_2 C 0.7799(3) 0.70422(14) 0.1053(7)
H17_2 H 0.8233 0.7197 0.0844
O1_3 O 0.62531(16) 0.57292(9) 0.3469(5)
O2_3 O 0.65207(17) 0.51521(11) 0.2074(4)
O3_3 O 0.37844(18) 0.59674(10) 0.5918(4)
O5_3 O 0.79112(16) 0.55755(9) 0.0896(4)
H1_3 H 0.8370 0.5647 0.0973
H2_3 H 0.7878 0.5306 0.0850
N2_2 N 0.38037(19) 0.40320(10) 0.2257(4)
C1_3 C 0.6064(2) 0.53800(13) 0.2836(5)
C2_3 C 0.5252(2) 0.52606(12) 0.2952(5)
C3_2 C 0.4975(2) 0.49029(12) 0.2132(5)
H3_2 H 0.5299 0.4735 0.1511
C4_2 C 0.4220(2) 0.47956(12) 0.2236(5)
C5_3 C 0.3745(2) 0.50449(11) 0.3192(5)
H4_2 H 0.3240 0.4972 0.3286
C6_3 C 0.4013(2) 0.54026(11) 0.4012(5)
C7_3 C 0.3511(2) 0.56703(14) 0.5098(5)
C8_3 C 0.4765(2) 0.55128(11) 0.3865(5)
H5_3 H 0.4944 0.5757 0.4380
C9_2 C 0.3925(2) 0.44266(12) 0.1264(5)
H6_2 H 0.4275 0.4364 0.0378
H7_2 H 0.3452 0.4508 0.0760
C10_2 C 0.4402(3) 0.38171(13) 0.2831(6)
H8_2 H 0.4880 0.3930 0.2688
C11_2 C 0.4319(3) 0.34401(14) 0.3612(6)
H9_2 H 0.4741 0.3297 0.3997
C12_2 C 0.3611(3) 0.32640(13) 0.3847(6)
C13_2 C 0.3006(3) 0.35017(15) 0.3305(6)
H10_2 H 0.2522 0.3401 0.3480
C14_2 C 0.3109(2) 0.38809(13) 0.2518(5)
H11_2 H 0.2695 0.4036 0.2159
C15_2 C 0.3555(3) 0.28407(14) 0.4621(6)
H12_2 H 0.3999 0.2711 0.4959
C16_2 C 0.2936(3) 0.26358(15) 0.4865(6)
H13_2 H 0.2491 0.2766 0.4541
C17_3 C 0.2885(3) 0.22072(13) 0.5627(6)
C18_3 C 0.3514(3) 0.19567(14) 0.5935(6)
H14_3 H 0.3990 0.2054 0.5655
C19_3 C 0.3423(3) 0.15642(14) 0.6659(6)
H15_3 H 0.3848 0.1400 0.6856
C20_3 C 0.2153(3) 0.16481(15) 0.6789(7)
H16_3 H 0.1682 0.1546 0.7087
C21_3 C 0.2201(3) 0.20422(14) 0.6053(7)
H17_3 H 0.1767 0.2197 0.5844
O3_4 O 0.12156(18) 0.09674(10) 0.9082(4)
C7_4 C 0.1489(2) 0.06703(14) 0.9902(5)
C17_4 C 0.2115(3) 0.72072(13) 0.9373(6)
C18_4 C 0.1486(3) 0.69567(14) 0.9065(6)
H14_4 H 0.1010 0.7054 0.9345
C19_4 C 0.1577(3) 0.65642(14) 0.8341(6)
H15_4 H 0.1152 0.6400 0.8144
C20_4 C 0.2847(3) 0.66481(15) 0.8211(7)
H16_4 H 0.3318 0.6546 0.7913
C21_4 C 0.2799(3) 0.70422(14) 0.8947(7)
H17_4 H 0.3233 0.7197 0.9156
O1_4 O 0.87469(16) 0.07292(9) 0.1531(5)
O2_4 O 0.84793(17) 0.01521(11) 0.2926(4)
O5_4 O 0.70888(16) 0.05755(9) 0.4104(4)
H1_4 H 0.6630 0.0647 0.4027
H2_4 H 0.7122 0.0306 0.4150
C1_4 C 0.8936(2) 0.03800(13) 0.2164(5)
C2_4 C 0.9748(2) 0.02606(12) 0.2048(5)
Zn1_3 Zn 0.26606(3) 0.420708(14) 0.70864(6)
O1_5 O 0.37469(16) 0.42708(9) 0.6531(5)
O2_5 O 0.34793(17) 0.48479(11) 0.7926(4)
O3_5 O 0.62156(18) 0.40326(10) 0.4082(4)
O4_3 O 0.71787(14) 0.44348(10) 0.4863(4)
O5_5 O 0.20888(16) 0.44245(9) 0.9104(4)
H1_5 H 0.1630 0.4353 0.9027
H2_5 H 0.2122 0.4694 0.9150
N1_3 N 0.7245(2) 0.85937(11) 0.2907(5)
N2_3 N 0.61963(19) 0.59680(10) 0.7743(4)
C1_5 C 0.3936(2) 0.46200(13) 0.7164(5)
C2_5 C 0.4748(2) 0.47394(12) 0.7048(5)
C3_3 C 0.5025(2) 0.50971(12) 0.7868(5)
H3_3 H 0.4701 0.5265 0.8489
C4_3 C 0.5780(2) 0.52044(12) 0.7764(5)
C5_4 C 0.6255(2) 0.49551(11) 0.6808(5)
H4_3 H 0.6760 0.5028 0.6714
C6_4 C 0.5987(2) 0.45974(11) 0.5988(5)
C7_5 C 0.6489(2) 0.43297(14) 0.4902(5)
C8_4 C 0.5235(2) 0.44872(11) 0.6135(5)
H5_4 H 0.5056 0.4243 0.5620
C9_3 C 0.6075(2) 0.55734(12) 0.8736(5)
H6_3 H 0.5725 0.5636 0.9622
H7_3 H 0.6548 0.5492 0.9240
C10_3 C 0.5598(3) 0.61829(13) 0.7169(6)
H8_3 H 0.5120 0.6070 0.7312
C11_3 C 0.5681(3) 0.65599(14) 0.6388(6)
H9_3 H 0.5259 0.6703 0.6003
C12_3 C 0.6389(3) 0.67360(13) 0.6153(6)
C13_3 C 0.6994(3) 0.64983(15) 0.6695(6)
H10_3 H 0.7478 0.6599 0.6520
C14_3 C 0.6891(2) 0.61191(13) 0.7482(5)
H11_3 H 0.7305 0.5964 0.7841
C15_3 C 0.6445(3) 0.71593(14) 0.5379(6)
H12_3 H 0.6001 0.7289 0.5041
C16_3 C 0.7064(3) 0.73642(15) 0.5135(6)
H13_3 H 0.7509 0.7234 0.5459
C17_5 C 0.7115(3) 0.77928(13) 0.4373(6)
C18_5 C 0.6486(3) 0.80433(14) 0.4065(6)
H14_5 H 0.6010 0.7946 0.4345
C19_5 C 0.6577(3) 0.84358(14) 0.3341(6)
H15_5 H 0.6152 0.8600 0.3144
C20_5 C 0.7847(3) 0.83519(15) 0.3211(7)
H16_5 H 0.8318 0.8454 0.2913
C21_5 C 0.7799(3) 0.79578(14) 0.3947(7)
H17_5 H 0.8233 0.7803 0.4156
Zn2_2 Zn 0.76606(3) 0.420708(14) 0.29136(6)
Zn3_2 Zn 0.73394(3) 0.920708(14) 0.20864(6)
O6_3 O 0.21787(14) 0.44348(10) 0.5137(4)
N3_3 N 0.2755(2) 0.35937(11) 0.7907(5)
Zn1_4 Zn 0.23394(3) 0.920708(14) 0.79136(6)
O1_6 O 0.12531(16) 0.92708(9) 0.8469(5)
O2_6 O 0.15207(17) 0.98479(11) 0.7074(4)
O5_6 O 0.29112(16) 0.94245(9) 0.5896(4)
H1_6 H 0.3370 0.9353 0.5973
H2_6 H 0.2878 0.9694 0.5850
C1_6 C 0.1064(2) 0.96200(13) 0.7836(5)
C2_6 C 0.0252(2) 0.97394(12) 0.7952(5)
O6_4 O 0.28213(14) 0.94348(10) 0.9863(4)
N3_4 N 0.2245(2) 0.85937(11) 0.7093(5)
N1_4 N 0.7755(2) 0.35937(11) 0.2093(5)
C17_6 C 0.7885(3) 0.27928(13) 0.0627(6)
C18_6 C 0.8514(3) 0.30433(14) 0.0935(6)
H14_6 H 0.8990 0.2946 0.0655
C19_6 C 0.8423(3) 0.34358(14) 0.1659(6)
H15_6 H 0.8848 0.3600 0.1856
C20_6 C 0.7153(3) 0.33519(15) 0.1789(7)
H16_6 H 0.6682 0.3454 0.2087
C21_6 C 0.7201(3) 0.29578(14) 0.1053(7)
H17_6 H 0.6767 0.2803 0.0844
O3_6 O 0.87844(18) 0.90326(10) 0.0918(4)
O4_4 O 0.78213(14) 0.94348(10) 0.0137(4)
C7_6 C 0.8511(2) 0.93297(14) 0.0098(5)
O3_7 O 0.12156(18) 0.40326(10) 0.5918(4)
N2_4 N 0.11963(19) 0.59680(10) 0.2257(4)
C3_4 C 0.0025(2) 0.50971(12) 0.2132(5)
C4_4 C 0.0780(2) 0.52044(12) 0.2236(5)
C5_5 C 0.1255(2) 0.49551(11) 0.3192(5)
H4_4 H 0.1760 0.5028 0.3286
C6_5 C 0.0987(2) 0.45974(11) 0.4012(5)
C7_7 C 0.1489(2) 0.43297(14) 0.5098(5)
C8_5 C 0.0235(2) 0.44872(11) 0.3865(5)
H5_5 H 0.0056 0.4243 0.4380
C9_4 C 0.1075(2) 0.55734(12) 0.1264(5)
H6_4 H 0.0725 0.5636 0.0378
H7_4 H 0.1548 0.5492 0.0760
C10_4 C 0.0598(3) 0.61829(13) 0.2831(6)
H8_4 H 0.0120 0.6070 0.2688
C11_4 C 0.0681(3) 0.65599(14) 0.3612(6)
H9_4 H 0.0259 0.6703 0.3997
C12_4 C 0.1389(3) 0.67360(13) 0.3847(6)
C13_4 C 0.1994(3) 0.64983(15) 0.3305(6)
H10_4 H 0.2478 0.6599 0.3480
C14_4 C 0.1891(2) 0.61191(13) 0.2518(5)
H11_4 H 0.2305 0.5964 0.2159
C15_4 C 0.1445(3) 0.71593(14) 0.4621(6)
H12_4 H 0.1001 0.7289 0.4959
C16_4 C 0.2064(3) 0.73642(15) 0.4865(6)
H13_4 H 0.2509 0.7234 0.4541
C17_7 C 0.2115(3) 0.77928(13) 0.5627(6)
C18_7 C 0.1486(3) 0.80433(14) 0.5935(6)
H14_7 H 0.1010 0.7946 0.5655
C19_7 C 0.1577(3) 0.84358(14) 0.6659(6)
H15_7 H 0.1152 0.8600 0.6856
C20_7 C 0.2847(3) 0.83519(15) 0.6789(7)
H16_7 H 0.3318 0.8454 0.7087
C21_7 C 0.2799(3) 0.79578(14) 0.6053(7)
H17_7 H 0.3233 0.7803 0.5844
O1_7 O 0.87469(16) 0.42708(9) 0.3469(5)
O2_7 O 0.84793(17) 0.48479(11) 0.2074(4)
O5_7 O 0.70888(16) 0.44245(9) 0.0896(4)
H1_7 H 0.6630 0.4353 0.0973
H2_7 H 0.7122 0.4694 0.0850
C1_7 C 0.8936(2) 0.46200(13) 0.2836(5)
C2_7 C 0.9748(2) 0.47394(12) 0.2952(5)
H3_4 H 0.9701 0.5265 0.1511
C17_8 C 0.2885(3) 0.27928(13) 0.9373(6)
C18_8 C 0.3514(3) 0.30433(14) 0.9065(6)
H14_8 H 0.3990 0.2946 0.9345
C19_8 C 0.3423(3) 0.34358(14) 0.8341(6)
H15_8 H 0.3848 0.3600 0.8144
C20_8 C 0.2153(3) 0.33519(15) 0.8211(7)
H16_8 H 0.1682 0.3454 0.7913
C21_8 C 0.2201(3) 0.29578(14) 0.8947(7)
H17_8 H 0.1767 0.2803 0.9156
O1_8 O 0.62531(16) 0.92708(9) 0.1531(5)
O2_8 O 0.65207(17) 0.98479(11) 0.2926(4)
O5_8 O 0.79112(16) 0.94245(9) 0.4104(4)
H1_8 H 0.8370 0.9353 0.4027
H2_8 H 0.7878 0.9694 0.4150
C1_8 C 0.6064(2) 0.96200(13) 0.2164(5)
C2_8 C 0.5252(2) 0.97394(12) 0.2048(5)
C5_6 C 0.3745(2) 0.99551(11) 0.1808(5)
C6_6 C 0.4013(2) 0.95974(11) 0.0988(5)
C8_6 C 0.4765(2) 0.94872(11) 0.1135(5)
H5_6 H 0.4944 0.9243 0.0620
O3_8 O 0.37844(18) 0.90326(10) 0.9082(4)
C7_8 C 0.3511(2) 0.93297(14) 0.9902(5)
H3_5 H 0.0299 0.0265 0.6511
N2_5 N 0.88037(19) 0.09680(10) 0.7257(4)
C3_5 C 0.9975(2) 0.00971(12) 0.7132(5)
C4_5 C 0.9220(2) 0.02044(12) 0.7236(5)
H4_5 H 0.8240 0.0028 0.8286
C9_5 C 0.8925(2) 0.05734(12) 0.6264(5)
H6_5 H 0.9275 0.0636 0.5378
H7_5 H 0.8452 0.0492 0.5760
C10_5 C 0.9402(3) 0.11829(13) 0.7831(6)
H8_5 H 0.9880 0.1070 0.7688
C11_5 C 0.9319(3) 0.15599(14) 0.8612(6)
H9_5 H 0.9741 0.1703 0.8997
C12_5 C 0.8611(3) 0.17360(13) 0.8847(6)
C13_5 C 0.8006(3) 0.14983(15) 0.8305(6)
H10_5 H 0.7522 0.1599 0.8480
C14_5 C 0.8109(2) 0.11191(13) 0.7518(5)
H11_5 H 0.7695 0.0964 0.7159
C15_5 C 0.8555(3) 0.21593(14) 0.9621(6)
H12_5 H 0.8999 0.2289 0.9959
C16_5 C 0.7936(3) 0.23642(15) 0.9865(6)
H13_5 H 0.7491 0.2234 0.9541
C5_7 C 0.8745(2) 0.99551(11) 0.8192(5)
C6_7 C 0.9013(2) 0.95974(11) 0.9012(5)
C8_7 C 0.9765(2) 0.94872(11) 0.8865(5)
H5_7 H 0.9944 0.9243 0.9380
N2_6 N 0.61963(19) 0.90320(10) 0.7257(4)
C3_6 C 0.5025(2) 0.99029(12) 0.7132(5)
H3_6 H 0.4701 0.9735 0.6511
C4_6 C 0.5780(2) 0.97956(12) 0.7236(5)
H4_6 H 0.6760 0.9972 0.8286
C9_6 C 0.6075(2) 0.94266(12) 0.6264(5)
H6_6 H 0.5725 0.9364 0.5378
H7_6 H 0.6548 0.9508 0.5760
C10_6 C 0.5598(3) 0.88171(13) 0.7831(6)
H8_6 H 0.5120 0.8930 0.7688
C11_6 C 0.5681(3) 0.84401(14) 0.8612(6)
H9_6 H 0.5259 0.8297 0.8997
C12_6 C 0.6389(3) 0.82640(13) 0.8847(6)
C13_6 C 0.6994(3) 0.85017(15) 0.8305(6)
H10_6 H 0.7478 0.8401 0.8480
C14_6 C 0.6891(2) 0.88809(13) 0.7518(5)
H11_6 H 0.7305 0.9036 0.7159
C15_6 C 0.6445(3) 0.78407(14) 0.9621(6)
H12_6 H 0.6001 0.7711 0.9959
C16_6 C 0.7064(3) 0.76358(15) 0.9865(6)
H13_6 H 0.7509 0.7766 0.9541
C5_8 C 0.1255(2) 0.00449(11) 0.1808(5)
C6_8 C 0.0987(2) 0.04026(11) 0.0988(5)
C8_8 C 0.0235(2) 0.05128(11) 0.1135(5)
H5_8 H 0.0056 0.0757 0.0620
N2_7 N 0.11963(19) 0.90320(10) 0.2743(4)
C3_7 C 0.0025(2) 0.99029(12) 0.2868(5)
C4_7 C 0.0780(2) 0.97956(12) 0.2764(5)
H4_7 H 0.1760 0.9972 0.1714
C9_7 C 0.1075(2) 0.94266(12) 0.3736(5)
H6_7 H 0.0725 0.9364 0.4622
H7_7 H 0.1548 0.9508 0.4240
C10_7 C 0.0598(3) 0.88171(13) 0.2169(6)
H8_7 H 0.0120 0.8930 0.2312
C11_7 C 0.0681(3) 0.84401(14) 0.1388(6)
H9_7 H 0.0259 0.8297 0.1003
C12_7 C 0.1389(3) 0.82640(13) 0.1153(6)
C13_7 C 0.1994(3) 0.85017(15) 0.1695(6)
H10_7 H 0.2478 0.8401 0.1520
C14_7 C 0.1891(2) 0.88809(13) 0.2482(5)
H11_7 H 0.2305 0.9036 0.2841
C15_7 C 0.1445(3) 0.78407(14) 0.0379(6)
H12_7 H 0.1001 0.7711 0.0041
C16_7 C 0.2064(3) 0.76358(15) 0.0135(6)
H13_7 H 0.2509 0.7766 0.0459
H3_7 H 0.9701 0.9735 0.3489
N2_8 N 0.38037(19) 0.09680(10) 0.2743(4)
C3_8 C 0.4975(2) 0.00971(12) 0.2868(5)
H3_8 H 0.5299 0.0265 0.3489
C4_8 C 0.4220(2) 0.02044(12) 0.2764(5)
H4_8 H 0.3240 0.0028 0.1714
C9_8 C 0.3925(2) 0.05734(12) 0.3736(5)
H6_8 H 0.4275 0.0636 0.4622
H7_8 H 0.3452 0.0492 0.4240
C10_8 C 0.4402(3) 0.11829(13) 0.2169(6)
H8_8 H 0.4880 0.1070 0.2312
C11_8 C 0.4319(3) 0.15599(14) 0.1388(6)
H9_8 H 0.4741 0.1703 0.1003
C12_8 C 0.3611(3) 0.17360(13) 0.1153(6)
C13_8 C 0.3006(3) 0.14983(15) 0.1695(6)
H10_8 H 0.2522 0.1599 0.1520
C14_8 C 0.3109(2) 0.11191(13) 0.2482(5)
H11_8 H 0.2695 0.0964 0.2841
C15_8 C 0.3555(3) 0.21593(14) 0.0379(6)
H12_8 H 0.3999 0.2289 0.0041
C16_8 C 0.2936(3) 0.23642(15) 0.0135(6)
H13_8 H 0.2491 0.2234 0.0459
O9 O 0.5714(3) 0.40437(16) 0.0137(6)
O7 O 0.5257(3) 0.3507(2) 0.8765(10)
O8 O 0.6394(3) 0.37185(18) 0.8432(7)
N4 N 0.5767(3) 0.37483(16) 0.9129(6)
O9_2 O 0.9286(3) 0.59563(16) 0.0137(6)
O7_2 O 0.9743(3) 0.6493(2) 0.8765(10)
O8_2 O 0.8606(3) 0.62815(18) 0.8432(7)
N4_2 N 0.9233(3) 0.62517(16) 0.9129(6)
O7_3 O 0.5257(3) 0.1493(2) 0.6235(10)
O8_3 O 0.6394(3) 0.12815(18) 0.6568(7)
O9_3 O 0.5714(3) 0.09563(16) 0.4863(6)
N4_3 N 0.5767(3) 0.12517(16) 0.5871(6)
O7_4 O 0.9743(3) 0.8507(2) 0.6235(10)
O8_4 O 0.8606(3) 0.87185(18) 0.6568(7)
O9_4 O 0.9286(3) 0.90437(16) 0.4863(6)
N4_4 N 0.9233(3) 0.87483(16) 0.5871(6)
O7_5 O 0.4743(3) 0.6493(2) 0.1235(10)
O8_5 O 0.3606(3) 0.62815(18) 0.1568(7)
N4_5 N 0.4233(3) 0.62517(16) 0.0871(6)
O9_5 O 0.4286(3) 0.59563(16) 0.9863(6)
O7_6 O 0.0257(3) 0.3507(2) 0.1235(10)
O8_6 O 0.1394(3) 0.37185(18) 0.1568(7)
N4_6 N 0.0767(3) 0.37483(16) 0.0871(6)
O9_6 O 0.0714(3) 0.40437(16) 0.9863(6)
O7_7 O 0.4743(3) 0.8507(2) 0.3765(10)
O8_7 O 0.3606(3) 0.87185(18) 0.3432(7)
O9_7 O 0.4286(3) 0.90437(16) 0.5137(6)
N4_7 N 0.4233(3) 0.87483(16) 0.4129(6)
O7_8 O 0.0257(3) 0.1493(2) 0.3765(10)
O8_8 O 0.1394(3) 0.12815(18) 0.3432(7)
O9_8 O 0.0714(3) 0.09563(16) 0.5137(6)
N4_8 N 0.0767(3) 0.12517(16) 0.4129(6)
loop_
_geom_bond_atom_site_label_1
_geom_bond_atom_site_label_2
_geom_bond_site_symmetry_1
_geom_bond_site_symmetry_2
Zn1 O1 1_555 1_555
O1 C1 1_555 1_555
O2 Zn1 1_555 1_555
O5 Zn1 1_555 1_555
H1 O5 1_555 1_555
H2 O5 1_555 1_555
C1 O2 1_555 1_555
C2 C1 1_555 1_555
O6 Zn1 1_555 1_555
N3 Zn1 1_555 1_555
O3 C7 1_555 1_555
O4 C7 1_555 1_555
N1 C19 1_555 1_555
N2 C9 1_555 1_555
C4 C3 1_555 1_555
C5 C4 1_555 1_555
H4 C5 1_555 1_555
C6 C5 1_555 1_555
C7 C6 1_555 1_555
H5 C8 1_555 1_555
C9 C4 1_555 1_555
H6 C9 1_555 1_555
H7 C9 1_555 1_555
C10 N2 1_555 1_555
H8 C10 1_555 1_555
C11 C10 1_555 1_555
H9 C11 1_555 1_555
C12 C11 1_555 1_555
C13 C12 1_555 1_555
H10 C13 1_555 1_555
C14 N2 1_555 1_555
H11 C14 1_555 1_555
C15 C12 1_555 1_555
H12 C15 1_555 1_555
C16 C15 1_555 1_555
H13 C16 1_555 1_555
C17 C16 1_555 1_555
C18 C17 1_555 1_555
H14 C18 1_555 1_555
C19 C18 1_555 1_555
H15 C19 1_555 1_555
C20 N1 1_555 1_555
H16 C20 1_555 1_555
C21 C17 1_555 1_555
H17 C21 1_555 1_555
Zn2 O4 1_555 1_555
Zn3 N1 1_555 1_555
C6 C8 1_555 1_555
C13 C14 1_555 1_555
C20 C21 1_555 1_555
O3_2 C7_2 1_555 1_555
O4_2 C7_2 1_555 1_555
Zn3 O4_2 1_555 1_555
Zn1_2 O1_2 1_555 1_555
O1_2 C1_2 1_555 1_555
O2_2 Zn1_2 1_555 1_555
O5_2 Zn1_2 1_555 1_555
H1_2 O5_2 1_555 1_555
H2_2 O5_2 1_555 1_555
C1_2 O2_2 1_555 1_555
C2_2 C1_2 1_555 1_555
C6_2 C5_2 1_555 1_555
C8_2 C2_2 1_555 1_555
H5_2 C8_2 1_555 1_555
O6_2 Zn1_2 1_555 1_555
N3_2 Zn1_2 1_555 1_555
C6_2 C8_2 1_555 1_555
N1_2 C19_2 1_555 1_555
C18_2 C17_2 1_555 1_555
H14_2 C18_2 1_555 1_555
C19_2 C18_2 1_555 1_555
H15_2 C19_2 1_555 1_555
C20_2 N1_2 1_555 1_555
H16_2 C20_2 1_555 1_555
C21_2 C17_2 1_555 1_555
H17_2 C21_2 1_555 1_555
Zn2 N1_2 1_555 1_555
C20_2 C21_2 1_555 1_555
Zn2 O1_3 1_555 1_555
O1_3 C1_3 1_555 1_555
O2_3 Zn2 1_555 1_555
O3_3 C7_3 1_555 1_555
O6 C7_3 1_555 1_555
O5_3 Zn2 1_555 1_555
H1_3 O5_3 1_555 1_555
H2_3 O5_3 1_555 1_555
N3_2 C19_3 1_555 1_555
N2_2 C9_2 1_555 1_555
C1_3 O2_3 1_555 1_555
C2_3 C1_3 1_555 1_555
C3_2 C2_3 1_555 1_555
H3_2 C3_2 1_555 1_555
C4_2 C3_2 1_555 1_555
C5_3 C4_2 1_555 1_555
H4_2 C5_3 1_555 1_555
C6_3 C5_3 1_555 1_555
C7_3 C6_3 1_555 1_555
C8_3 C2_3 1_555 1_555
H5_3 C8_3 1_555 1_555
C9_2 C4_2 1_555 1_555
H6_2 C9_2 1_555 1_555
H7_2 C9_2 1_555 1_555
C10_2 N2_2 1_555 1_555
H8_2 C10_2 1_555 1_555
C11_2 C10_2 1_555 1_555
H9_2 C11_2 1_555 1_555
C12_2 C11_2 1_555 1_555
C13_2 C12_2 1_555 1_555
H10_2 C13_2 1_555 1_555
C14_2 N2_2 1_555 1_555
H11_2 C14_2 1_555 1_555
C15_2 C12_2 1_555 1_555
H12_2 C15_2 1_555 1_555
C16_2 C15_2 1_555 1_555
H13_2 C16_2 1_555 1_555
C17_3 C16_2 1_555 1_555
C18_3 C17_3 1_555 1_555
H14_3 C18_3 1_555 1_555
C19_3 C18_3 1_555 1_555
H15_3 C19_3 1_555 1_555
C20_3 N3_2 1_555 1_555
H16_3 C20_3 1_555 1_555
C21_3 C17_3 1_555 1_555
H17_3 C21_3 1_555 1_555
C6_3 C8_3 1_555 1_555
C13_2 C14_2 1_555 1_555
C20_3 C21_3 1_555 1_555
O3_4 C7_4 1_555 1_555
O6_2 C7_4 1_555 1_555
N3 C19_4 1_555 1_555
C18_4 C17_4 1_555 1_555
H14_4 C18_4 1_555 1_555
C19_4 C18_4 1_555 1_555
H15_4 C19_4 1_555 1_555
C20_4 N3 1_555 1_555
H16_4 C20_4 1_555 1_555
C21_4 C17_4 1_555 1_555
H17_4 C21_4 1_555 1_555
C20_4 C21_4 1_555 1_555
Zn3 O1_4 1_555 1_555
O1_4 C1_4 1_555 1_555
O2_4 Zn3 1_555 1_555
O5_4 Zn3 1_555 1_555
H1_4 O5_4 1_555 1_555
H2_4 O5_4 1_555 1_555
C1_4 O2_4 1_555 1_555
C2_4 C1_4 1_555 1_555
Zn1_3 O1_5 1_555 1_555
O1_5 C1_5 1_555 1_555
O2_5 Zn1_3 1_555 1_555
O3_5 C7_5 1_555 1_555
O4_3 C7_5 1_555 1_555
O5_5 Zn1_3 1_555 1_555
H1_5 O5_5 1_555 1_555
H2_5 O5_5 1_555 1_555
N1_3 C19_5 1_555 1_555
N2_3 C9_3 1_555 1_555
C1_5 O2_5 1_555 1_555
C2_5 C1_5 1_555 1_555
C3_3 C2_5 1_555 1_555
H3_3 C3_3 1_555 1_555
C4_3 C3_3 1_555 1_555
C5_4 C4_3 1_555 1_555
H4_3 C5_4 1_555 1_555
C6_4 C5_4 1_555 1_555
C7_5 C6_4 1_555 1_555
C8_4 C2_5 1_555 1_555
H5_4 C8_4 1_555 1_555
C9_3 C4_3 1_555 1_555
H6_3 C9_3 1_555 1_555
H7_3 C9_3 1_555 1_555
C10_3 N2_3 1_555 1_555
H8_3 C10_3 1_555 1_555
C11_3 C10_3 1_555 1_555
H9_3 C11_3 1_555 1_555
C12_3 C11_3 1_555 1_555
C13_3 C12_3 1_555 1_555
H10_3 C13_3 1_555 1_555
C14_3 N2_3 1_555 1_555
H11_3 C14_3 1_555 1_555
C15_3 C12_3 1_555 1_555
H12_3 C15_3 1_555 1_555
C16_3 C15_3 1_555 1_555
H13_3 C16_3 1_555 1_555
C17_5 C16_3 1_555 1_555
C18_5 C17_5 1_555 1_555
H14_5 C18_5 1_555 1_555
C19_5 C18_5 1_555 1_555
H15_5 C19_5 1_555 1_555
C20_5 N1_3 1_555 1_555
H16_5 C20_5 1_555 1_555
C21_5 C17_5 1_555 1_555
H17_5 C21_5 1_555 1_555
Zn2_2 O4_3 1_555 1_555
Zn3_2 N1_3 1_555 1_555
O6_3 Zn1_3 1_555 1_555
N3_3 Zn1_3 1_555 1_555
C6_4 C8_4 1_555 1_555
C13_3 C14_3 1_555 1_555
C20_5 C21_5 1_555 1_555
Zn1_4 O1_6 1_555 1_555
O1_6 C1_6 1_555 1_555
O2_6 Zn1_4 1_555 1_555
O5_6 Zn1_4 1_555 1_555
H1_6 O5_6 1_555 1_555
H2_6 O5_6 1_555 1_555
C1_6 O2_6 1_555 1_555
C2_6 C1_6 1_555 1_555
O6_4 Zn1_4 1_555 1_555
N3_4 Zn1_4 1_555 1_555
N1_4 C19_6 1_555 1_555
C18_6 C17_6 1_555 1_555
H14_6 C18_6 1_555 1_555
C19_6 C18_6 1_555 1_555
H15_6 C19_6 1_555 1_555
C20_6 N1_4 1_555 1_555
H16_6 C20_6 1_555 1_555
C21_6 C17_6 1_555 1_555
H17_6 C21_6 1_555 1_555
Zn2_2 N1_4 1_555 1_555
C20_6 C21_6 1_555 1_555
O3_6 C7_6 1_555 1_555
O4_4 C7_6 1_555 1_555
Zn3_2 O4_4 1_555 1_555
O3_7 C7_7 1_555 1_555
O6_3 C7_7 1_555 1_555
N3_4 C19_7 1_555 1_555
N2_4 C9_4 1_555 1_555
C4_4 C3_4 1_555 1_555
C5_5 C4_4 1_555 1_555
H4_4 C5_5 1_555 1_555
C6_5 C5_5 1_555 1_555
C7_7 C6_5 1_555 1_555
H5_5 C8_5 1_555 1_555
C9_4 C4_4 1_555 1_555
H6_4 C9_4 1_555 1_555
H7_4 C9_4 1_555 1_555
C10_4 N2_4 1_555 1_555
H8_4 C10_4 1_555 1_555
C11_4 C10_4 1_555 1_555
H9_4 C11_4 1_555 1_555
C12_4 C11_4 1_555 1_555
C13_4 C12_4 1_555 1_555
H10_4 C13_4 1_555 1_555
C14_4 N2_4 1_555 1_555
H11_4 C14_4 1_555 1_555
C15_4 C12_4 1_555 1_555
H12_4 C15_4 1_555 1_555
C16_4 C15_4 1_555 1_555
H13_4 C16_4 1_555 1_555
C17_7 C16_4 1_555 1_555
C18_7 C17_7 1_555 1_555
H14_7 C18_7 1_555 1_555
C19_7 C18_7 1_555 1_555
H15_7 C19_7 1_555 1_555
C20_7 N3_4 1_555 1_555
H16_7 C20_7 1_555 1_555
C21_7 C17_7 1_555 1_555
H17_7 C21_7 1_555 1_555
C6_5 C8_5 1_555 1_555
C13_4 C14_4 1_555 1_555
C20_7 C21_7 1_555 1_555
Zn2_2 O1_7 1_555 1_555
O1_7 C1_7 1_555 1_555
O2_7 Zn2_2 1_555 1_555
O5_7 Zn2_2 1_555 1_555
H1_7 O5_7 1_555 1_555
H2_7 O5_7 1_555 1_555
C1_7 O2_7 1_555 1_555
C2_7 C1_7 1_555 1_555
N3_3 C19_8 1_555 1_555
C18_8 C17_8 1_555 1_555
H14_8 C18_8 1_555 1_555
C19_8 C18_8 1_555 1_555
H15_8 C19_8 1_555 1_555
C20_8 N3_3 1_555 1_555
H16_8 C20_8 1_555 1_555
C21_8 C17_8 1_555 1_555
H17_8 C21_8 1_555 1_555
C20_8 C21_8 1_555 1_555
Zn3_2 O1_8 1_555 1_555
O1_8 C1_8 1_555 1_555
O2_8 Zn3_2 1_555 1_555
O5_8 Zn3_2 1_555 1_555
H1_8 O5_8 1_555 1_555
H2_8 O5_8 1_555 1_555
C1_8 O2_8 1_555 1_555
C2_8 C1_8 1_555 1_555
C6_6 C5_6 1_555 1_555
C8_6 C2_8 1_555 1_555
H5_6 C8_6 1_555 1_555
C6_6 C8_6 1_555 1_555
O3_8 C7_8 1_555 1_555
O6_4 C7_8 1_555 1_555
N2_5 C9_5 1_555 1_555
C4_5 C3_5 1_555 1_555
C9_5 C4_5 1_555 1_555
H6_5 C9_5 1_555 1_555
H7_5 C9_5 1_555 1_555
C10_5 N2_5 1_555 1_555
H8_5 C10_5 1_555 1_555
C11_5 C10_5 1_555 1_555
H9_5 C11_5 1_555 1_555
C12_5 C11_5 1_555 1_555
C13_5 C12_5 1_555 1_555
H10_5 C13_5 1_555 1_555
C14_5 N2_5 1_555 1_555
H11_5 C14_5 1_555 1_555
C15_5 C12_5 1_555 1_555
H12_5 C15_5 1_555 1_555
C16_5 C15_5 1_555 1_555
H13_5 C16_5 1_555 1_555
C13_5 C14_5 1_555 1_555
C6_7 C5_7 1_555 1_555
H5_7 C8_7 1_555 1_555
C6_7 C8_7 1_555 1_555
N2_6 C9_6 1_555 1_555
H3_6 C3_6 1_555 1_555
C4_6 C3_6 1_555 1_555
C9_6 C4_6 1_555 1_555
H6_6 C9_6 1_555 1_555
H7_6 C9_6 1_555 1_555
C10_6 N2_6 1_555 1_555
H8_6 C10_6 1_555 1_555
C11_6 C10_6 1_555 1_555
H9_6 C11_6 1_555 1_555
C12_6 C11_6 1_555 1_555
C13_6 C12_6 1_555 1_555
H10_6 C13_6 1_555 1_555
C14_6 N2_6 1_555 1_555
H11_6 C14_6 1_555 1_555
C15_6 C12_6 1_555 1_555
H12_6 C15_6 1_555 1_555
C16_6 C15_6 1_555 1_555
H13_6 C16_6 1_555 1_555
C13_6 C14_6 1_555 1_555
C6_8 C5_8 1_555 1_555
H5_8 C8_8 1_555 1_555
C6_8 C8_8 1_555 1_555
N2_7 C9_7 1_555 1_555
C4_7 C3_7 1_555 1_555
C9_7 C4_7 1_555 1_555
H6_7 C9_7 1_555 1_555
H7_7 C9_7 1_555 1_555
C10_7 N2_7 1_555 1_555
H8_7 C10_7 1_555 1_555
C11_7 C10_7 1_555 1_555
H9_7 C11_7 1_555 1_555
C12_7 C11_7 1_555 1_555
C13_7 C12_7 1_555 1_555
H10_7 C13_7 1_555 1_555
C14_7 N2_7 1_555 1_555
H11_7 C14_7 1_555 1_555
C15_7 C12_7 1_555 1_555
H12_7 C15_7 1_555 1_555
C16_7 C15_7 1_555 1_555
H13_7 C16_7 1_555 1_555
C13_7 C14_7 1_555 1_555
N2_8 C9_8 1_555 1_555
H3_8 C3_8 1_555 1_555
C4_8 C3_8 1_555 1_555
C9_8 C4_8 1_555 1_555
H6_8 C9_8 1_555 1_555
H7_8 C9_8 1_555 1_555
C10_8 N2_8 1_555 1_555
H8_8 C10_8 1_555 1_555
C11_8 C10_8 1_555 1_555
H9_8 C11_8 1_555 1_555
C12_8 C11_8 1_555 1_555
C13_8 C12_8 1_555 1_555
H10_8 C13_8 1_555 1_555
C14_8 N2_8 1_555 1_555
H11_8 C14_8 1_555 1_555
C15_8 C12_8 1_555 1_555
H12_8 C15_8 1_555 1_555
C16_8 C15_8 1_555 1_555
H13_8 C16_8 1_555 1_555
C13_8 C14_8 1_555 1_555
O7 N4 1_555 1_555
O8 N4 1_555 1_555
O7_2 N4_2 1_555 1_555
O8_2 N4_2 1_555 1_555
O7_3 N4_3 1_555 1_555
O8_3 N4_3 1_555 1_555
O9_3 N4_3 1_555 1_555
O7_4 N4_4 1_555 1_555
O8_4 N4_4 1_555 1_555
O9_4 N4_4 1_555 1_555
O7_5 N4_5 1_555 1_555
O8_5 N4_5 1_555 1_555
O7_6 N4_6 1_555 1_555
O8_6 N4_6 1_555 1_555
O7_7 N4_7 1_555 1_555
O8_7 N4_7 1_555 1_555
O9_7 N4_7 1_555 1_555
O7_8 N4_8 1_555 1_555
O8_8 N4_8 1_555 1_555
O9_8 N4_8 1_555 1_555

#END
