
###############################################################################
#
# This file contains modified crystal structure data generated from the
# MOF subset of the Cambridge Structural Database (CSD) v543 
# hosted by the Cambridge Crystallographic Data Centre (CCDC).
#
# This work is licensed under the Creative Commons
# Attribution-NonCommercial-ShareAlike 4.0 International License.
# To view a copy of this license, visit
# http://creativecommons.org/licenses/by-nc-sa/4.0/
# or send a letter to
# Creative Commons, PO Box 1866, Mountain View, CA 94042, USA.
#
# CIF created using the CSD Python API on 29 September 2022
# The structure has been converted into the P1 space group
# The structure has a 3D framework
# The original CSD entry CAVFEN01 is in the orthorhombic crystal system
# The framework has been calculated to contain at least 10.0% void space
# The void calculation uses a probe of radius 1.32A, grid spacing 0.4
# H atom positions have been added when not included in the experimental data
#
###############################################################################

data_CAVFEN01
_chemical_formula_moiety         '(C168 H136 N24 O64 Zn8)n'
_symmetry_cell_setting           triclinic
_symmetry_space_group_name_H-M   'P 1'
_symmetry_Int_Tables_number      1
_space_group_name_Hall           'P 1'
loop_
_symmetry_equiv_pos_site_id
_symmetry_equiv_pos_as_xyz
1 x,y,z
_cell_length_a                   17.8019(5)
_cell_length_b                   31.6604(9)
_cell_length_c                   7.8938(3)
_cell_angle_alpha                90
_cell_angle_beta                 90
_cell_angle_gamma                90
_cell_volume                     4449.07
loop_
_atom_site_label
_atom_site_type_symbol
_atom_site_fract_x
_atom_site_fract_y
_atom_site_fract_z
Zn1 Zn 0.23309(3) 0.42039(2) 0.20750(7)
O1 O 0.15294(19) 0.48617(13) 0.2895(4)
C1 C 0.1065(2) 0.46291(15) 0.2172(6)
O2 O 0.28938(18) 0.44284(10) 0.4123(4)
O3 O 0.12500(17) 0.42755(10) 0.1558(5)
C2 C 0.0253(2) 0.47473(13) 0.2055(5)
H3 H 0.0327 0.5280 0.3505
N3 N 0.2246(2) 0.35943(12) 0.2910(5)
O6 O 0.28102(17) 0.44348(10) 0.0068(4)
H16 H 0.267001 0.430956 0.517206
H17 H 0.34301 0.434416 0.404853
N1 N 0.7754(2) 0.85943(12) 0.7910(5)
O4 O 0.87751(19) 0.40426(11) 0.9082(5)
O5 O 0.78102(17) 0.44348(10) 0.9932(4)
C5 C 0.8505(2) 0.43351(13) 0.9931(6)
C17 C 0.7881(3) 0.77932(14) 0.9382(6)
C18 C 0.7197(3) 0.79591(16) 0.8967(8)
H12 H 0.6753 0.7801 0.9182
C19 C 0.7146(3) 0.83568(16) 0.8232(7)
H13 H 0.6664 0.8464 0.7949
C20 C 0.8428(3) 0.84354(14) 0.8325(6)
H14 H 0.8863 0.8600 0.8101
C21 C 0.8517(3) 0.80462(15) 0.9059(6)
H15 H 0.9004 0.7947 0.9349
Zn2 Zn 0.73309(3) 0.42039(2) 0.79250(7)
Zn3 Zn 0.76691(3) 0.92039(2) 0.70750(7)
N1_2 N 0.7246(2) 0.35943(12) 0.7090(5)
N2 N 0.6183(2) 0.09739(11) 0.2245(4)
H2 H 0.6775 0.0037 0.3259
C7 C 0.5774(2) 0.02147(13) 0.2212(5)
C8 C 0.5011(2) 0.01071(13) 0.2120(5)
H3_2 H 0.4673 0.0280 0.1495
C9 C 0.6063(3) 0.05846(13) 0.1221(6)
H4 H 0.6545 0.0504 0.0685
H5 H 0.5702 0.0649 0.0303
C10 C 0.6883(3) 0.11252(14) 0.2494(6)
H6 H 0.7304 0.0968 0.2111
C11 C 0.6991(3) 0.15040(15) 0.3294(6)
H7 H 0.7486 0.1608 0.3458
C12 C 0.6382(3) 0.17362(13) 0.3867(6)
C13 C 0.5666(3) 0.15631(14) 0.3642(7)
H8 H 0.5237 0.1710 0.4050
C14 C 0.5582(3) 0.11835(14) 0.2837(6)
H9 H 0.5094 0.1067 0.2694
C15 C 0.6439(3) 0.21608(14) 0.4634(6)
H10 H 0.5985 0.2292 0.4988
C16 C 0.7067(3) 0.23711(15) 0.4864(6)
H11 H 0.7521 0.2240 0.4516
C17_2 C 0.7119(3) 0.27932(14) 0.5618(6)
C18_2 C 0.7803(3) 0.29591(16) 0.6033(8)
H12_2 H 0.8247 0.2801 0.5818
C19_2 C 0.7854(3) 0.33568(16) 0.6768(7)
H13_2 H 0.8336 0.3464 0.7051
C20_2 C 0.6572(3) 0.34354(14) 0.6675(6)
H14_2 H 0.6137 0.3600 0.6899
C21_2 C 0.6483(3) 0.30462(15) 0.5941(6)
H15_2 H 0.5996 0.2947 0.5651
Zn1_2 Zn 0.26691(3) 0.92039(2) 0.29250(7)
O1_2 O 0.34706(19) 0.98617(13) 0.2105(4)
C1_2 C 0.3935(2) 0.96291(15) 0.2828(6)
O2_2 O 0.21062(18) 0.94284(10) 0.0877(4)
O3_2 O 0.37500(17) 0.92755(10) 0.3442(5)
C2_2 C 0.4747(2) 0.97473(13) 0.2945(5)
O4_2 O 0.62249(19) 0.90426(11) 0.5918(5)
C3 C 0.5236(2) 0.94941(12) 0.3843(5)
H1 H 0.5057 0.9243 0.4368
O5_2 O 0.71898(17) 0.94348(10) 0.5068(4)
C4 C 0.5992(2) 0.96042(12) 0.3985(5)
C5_2 C 0.6495(2) 0.93351(13) 0.5069(6)
C6 C 0.6259(2) 0.99626(13) 0.3168(5)
N3_2 N 0.2754(2) 0.85943(12) 0.2090(5)
O6_2 O 0.21898(17) 0.94348(10) 0.4932(4)
H17_2 H 0.15699 0.934416 0.0951466
O4_3 O 0.37751(19) 0.40426(11) 0.0918(5)
C5_3 C 0.3505(2) 0.43351(13) 0.0069(6)
C17_3 C 0.2881(3) 0.77932(14) 0.0618(6)
C18_3 C 0.2197(3) 0.79591(16) 0.1033(8)
H12_3 H 0.1753 0.7801 0.0818
C19_3 C 0.2146(3) 0.83568(16) 0.1768(7)
H13_3 H 0.1664 0.8464 0.2051
C20_3 C 0.3428(3) 0.84354(14) 0.1675(6)
H14_3 H 0.3863 0.8600 0.1899
C21_3 C 0.3517(3) 0.80462(15) 0.0941(6)
H15_3 H 0.4004 0.7947 0.0651
O1_3 O 0.65294(19) 0.48617(13) 0.7105(4)
C1_3 C 0.6065(2) 0.46291(15) 0.7828(6)
O2_3 O 0.78938(18) 0.44284(10) 0.5877(4)
O3_3 O 0.62500(17) 0.42755(10) 0.8442(5)
N2_2 N 0.3817(2) 0.59739(11) 0.7245(4)
C2_3 C 0.5253(2) 0.47473(13) 0.7945(5)
C3_2 C 0.4764(2) 0.44941(12) 0.8843(5)
H1_2 H 0.4943 0.4243 0.9368
C4_2 C 0.4008(2) 0.46042(12) 0.8985(5)
C6_2 C 0.3741(2) 0.49626(13) 0.8168(5)
H2_2 H 0.3225 0.5037 0.8259
C7_2 C 0.4226(2) 0.52147(13) 0.7212(5)
C8_2 C 0.4989(2) 0.51071(13) 0.7120(5)
H3_3 H 0.5327 0.5280 0.6495
C9_2 C 0.3937(3) 0.55846(13) 0.6221(6)
H4_2 H 0.3455 0.5504 0.5685
H5_2 H 0.4298 0.5649 0.5303
C10_2 C 0.3117(3) 0.61252(14) 0.7494(6)
H6_2 H 0.2696 0.5968 0.7111
C11_2 C 0.3009(3) 0.65040(15) 0.8294(6)
H7_2 H 0.2514 0.6608 0.8458
C12_2 C 0.3618(3) 0.67362(13) 0.8867(6)
C13_2 C 0.4334(3) 0.65631(14) 0.8642(7)
H8_2 H 0.4763 0.6710 0.9050
C14_2 C 0.4418(3) 0.61835(14) 0.7837(6)
H9_2 H 0.4906 0.6067 0.7694
C15_2 C 0.3561(3) 0.71608(14) 0.9634(6)
H10_2 H 0.4015 0.7292 0.9988
C16_2 C 0.2933(3) 0.73711(15) 0.9864(6)
H11_2 H 0.2479 0.7240 0.9516
H16_2 H 0.767001 0.430956 0.482794
H17_3 H 0.84301 0.434416 0.595147
N2_3 N 0.1183(2) 0.09739(11) 0.7755(4)
H2_3 H 0.1775 0.0037 0.6741
C7_3 C 0.0774(2) 0.02147(13) 0.7788(5)
C8_3 C 0.0011(2) 0.01071(13) 0.7880(5)
C9_3 C 0.1063(3) 0.05846(13) 0.8779(6)
H4_3 H 0.1545 0.0504 0.9315
H5_3 H 0.0702 0.0649 0.9697
C10_3 C 0.1883(3) 0.11252(14) 0.7506(6)
H6_3 H 0.2304 0.0968 0.7889
C11_3 C 0.1991(3) 0.15040(15) 0.6706(6)
H7_3 H 0.2486 0.1608 0.6542
C12_3 C 0.1382(3) 0.17362(13) 0.6133(6)
C13_3 C 0.0666(3) 0.15631(14) 0.6358(7)
H8_3 H 0.0237 0.1710 0.5950
C14_3 C 0.0582(3) 0.11835(14) 0.7163(6)
H9_3 H 0.0094 0.1067 0.7306
C15_3 C 0.1439(3) 0.21608(14) 0.5366(6)
H10_3 H 0.0985 0.2292 0.5012
C16_3 C 0.2067(3) 0.23711(15) 0.5136(6)
H11_3 H 0.2521 0.2240 0.5484
C17_4 C 0.2119(3) 0.27932(14) 0.4382(6)
C18_4 C 0.2803(3) 0.29591(16) 0.3967(8)
H12_4 H 0.3247 0.2801 0.4182
C19_4 C 0.2854(3) 0.33568(16) 0.3232(7)
H13_4 H 0.3336 0.3464 0.2949
C20_4 C 0.1572(3) 0.34354(14) 0.3325(6)
H14_4 H 0.1137 0.3600 0.3101
C21_4 C 0.1483(3) 0.30462(15) 0.4059(6)
H15_4 H 0.0996 0.2947 0.4349
O4_4 O 0.12249(19) 0.90426(11) 0.4082(5)
C3_3 C 0.0236(2) 0.94941(12) 0.6157(5)
H1_3 H 0.0057 0.9243 0.5632
C4_3 C 0.0992(2) 0.96042(12) 0.6015(5)
C5_4 C 0.1495(2) 0.93351(13) 0.4931(6)
C6_3 C 0.1259(2) 0.99626(13) 0.6832(5)
O1_4 O 0.84706(19) 0.98617(13) 0.7895(4)
C1_4 C 0.8935(2) 0.96291(15) 0.7172(6)
O2_4 O 0.71062(18) 0.94284(10) 0.9123(4)
O3_4 O 0.87500(17) 0.92755(10) 0.6558(5)
C2_4 C 0.9747(2) 0.97473(13) 0.7055(5)
H17_4 H 0.65699 0.934416 0.904853
N2_4 N 0.8817(2) 0.59739(11) 0.2755(4)
C3_4 C 0.9764(2) 0.44941(12) 0.1157(5)
H1_4 H 0.9943 0.4243 0.0632
C4_4 C 0.9008(2) 0.46042(12) 0.1015(5)
C6_4 C 0.8741(2) 0.49626(13) 0.1832(5)
H2_4 H 0.8225 0.5037 0.1741
C7_4 C 0.9226(2) 0.52147(13) 0.2788(5)
C8_4 C 0.9989(2) 0.51071(13) 0.2880(5)
C9_4 C 0.8937(3) 0.55846(13) 0.3779(6)
H4_4 H 0.8455 0.5504 0.4315
H5_4 H 0.9298 0.5649 0.4697
C10_4 C 0.8117(3) 0.61252(14) 0.2506(6)
H6_4 H 0.7696 0.5968 0.2889
C11_4 C 0.8009(3) 0.65040(15) 0.1706(6)
H7_4 H 0.7514 0.6608 0.1542
C12_4 C 0.8618(3) 0.67362(13) 0.1133(6)
C13_4 C 0.9334(3) 0.65631(14) 0.1358(7)
H8_4 H 0.9763 0.6710 0.0950
C14_4 C 0.9418(3) 0.61835(14) 0.2163(6)
H9_4 H 0.9906 0.6067 0.2306
C15_4 C 0.8561(3) 0.71608(14) 0.0366(6)
H10_4 H 0.9015 0.7292 0.0012
C16_4 C 0.7933(3) 0.73711(15) 0.0136(6)
H11_4 H 0.7479 0.7240 0.0484
Zn1_3 Zn 0.26691(3) 0.57961(2) 0.20750(7)
O1_5 O 0.34706(19) 0.51383(13) 0.2895(4)
C1_5 C 0.3935(2) 0.53709(15) 0.2172(6)
O2_5 O 0.21062(18) 0.55716(10) 0.4123(4)
O3_5 O 0.37500(17) 0.57245(10) 0.1558(5)
N2_5 N 0.6183(2) 0.40261(11) 0.2755(4)
C2_5 C 0.4747(2) 0.52527(13) 0.2055(5)
C3_5 C 0.5236(2) 0.55059(12) 0.1157(5)
H1_5 H 0.5057 0.5757 0.0632
C4_5 C 0.5992(2) 0.53958(12) 0.1015(5)
C6_5 C 0.6259(2) 0.50374(13) 0.1832(5)
H2_5 H 0.6775 0.4963 0.1741
C7_5 C 0.5774(2) 0.47853(13) 0.2788(5)
C8_5 C 0.5011(2) 0.48929(13) 0.2880(5)
H3_4 H 0.4673 0.4720 0.3505
C9_5 C 0.6063(3) 0.44154(13) 0.3779(6)
H4_5 H 0.6545 0.4496 0.4315
H5_5 H 0.5702 0.4351 0.4697
C10_5 C 0.6883(3) 0.38748(14) 0.2506(6)
H6_5 H 0.7304 0.4032 0.2889
C11_5 C 0.6991(3) 0.34960(15) 0.1706(6)
H7_5 H 0.7486 0.3392 0.1542
C12_5 C 0.6382(3) 0.32638(13) 0.1133(6)
C13_5 C 0.5666(3) 0.34369(14) 0.1358(7)
H8_5 H 0.5237 0.3290 0.0950
C14_5 C 0.5582(3) 0.38165(14) 0.2163(6)
H9_5 H 0.5094 0.3933 0.2306
C15_5 C 0.6439(3) 0.28392(14) 0.0366(6)
H10_5 H 0.5985 0.2708 0.0012
C16_5 C 0.7067(3) 0.26289(15) 0.0136(6)
H11_5 H 0.7521 0.2760 0.0484
N3_3 N 0.2754(2) 0.64057(12) 0.2910(5)
O6_3 O 0.21898(17) 0.55652(10) 0.0068(4)
H16_3 H 0.232999 0.569044 0.517206
H17_5 H 0.15699 0.565584 0.404853
N1_3 N 0.7246(2) 0.14057(12) 0.7910(5)
O4_5 O 0.62249(19) 0.59574(11) 0.9082(5)
O5_3 O 0.71898(17) 0.55652(10) 0.9932(4)
C5_5 C 0.6495(2) 0.56649(13) 0.9931(6)
C17_5 C 0.7119(3) 0.22068(14) 0.9382(6)
C18_5 C 0.7803(3) 0.20409(16) 0.8967(8)
H12_5 H 0.8247 0.2199 0.9182
C19_5 C 0.7854(3) 0.16432(16) 0.8232(7)
H13_5 H 0.8336 0.1536 0.7949
C20_5 C 0.6572(3) 0.15646(14) 0.8325(6)
H14_5 H 0.6137 0.1400 0.8101
C21_5 C 0.6483(3) 0.19538(15) 0.9059(6)
H15_5 H 0.5996 0.2053 0.9349
Zn2_2 Zn 0.76691(3) 0.57961(2) 0.79250(7)
Zn3_2 Zn 0.73309(3) 0.07961(2) 0.70750(7)
Zn1_4 Zn 0.23309(3) 0.07961(2) 0.29250(7)
O1_6 O 0.15294(19) 0.01383(13) 0.2105(4)
C1_6 C 0.1065(2) 0.03709(15) 0.2828(6)
O2_6 O 0.28938(18) 0.05716(10) 0.0877(4)
O3_6 O 0.12500(17) 0.07245(10) 0.3442(5)
C2_6 C 0.0253(2) 0.02527(13) 0.2945(5)
N3_4 N 0.2246(2) 0.14057(12) 0.2090(5)
O6_4 O 0.28102(17) 0.05652(10) 0.4932(4)
H17_6 H 0.34301 0.0655836 0.0951466
O4_6 O 0.87751(19) 0.09574(11) 0.5918(5)
C3_6 C 0.9764(2) 0.05059(12) 0.3843(5)
H1_6 H 0.9943 0.0757 0.4368
O5_4 O 0.78102(17) 0.05652(10) 0.5068(4)
C4_6 C 0.9008(2) 0.03958(12) 0.3985(5)
C5_6 C 0.8505(2) 0.06649(13) 0.5069(6)
C6_6 C 0.8741(2) 0.00374(13) 0.3168(5)
N1_4 N 0.7754(2) 0.64057(12) 0.7090(5)
N2_6 N 0.8817(2) 0.90261(11) 0.2245(4)
H2_6 H 0.8225 0.9963 0.3259
C7_6 C 0.9226(2) 0.97853(13) 0.2212(5)
C8_6 C 0.9989(2) 0.98929(13) 0.2120(5)
C9_6 C 0.8937(3) 0.94154(13) 0.1221(6)
H4_6 H 0.8455 0.9496 0.0685
H5_6 H 0.9298 0.9351 0.0303
C10_6 C 0.8117(3) 0.88748(14) 0.2494(6)
H6_6 H 0.7696 0.9032 0.2111
C11_6 C 0.8009(3) 0.84960(15) 0.3294(6)
H7_6 H 0.7514 0.8392 0.3458
C12_6 C 0.8618(3) 0.82638(13) 0.3867(6)
C13_6 C 0.9334(3) 0.84369(14) 0.3642(7)
H8_6 H 0.9763 0.8290 0.4050
C14_6 C 0.9418(3) 0.88165(14) 0.2837(6)
H9_6 H 0.9906 0.8933 0.2694
C15_6 C 0.8561(3) 0.78392(14) 0.4634(6)
H10_6 H 0.9015 0.7708 0.4988
C16_6 C 0.7933(3) 0.76289(15) 0.4864(6)
H11_6 H 0.7479 0.7760 0.4516
C17_6 C 0.7881(3) 0.72068(14) 0.5618(6)
C18_6 C 0.7197(3) 0.70409(16) 0.6033(8)
H12_6 H 0.6753 0.7199 0.5818
C19_6 C 0.7146(3) 0.66432(16) 0.6768(7)
H13_6 H 0.6664 0.6536 0.7051
C20_6 C 0.8428(3) 0.65646(14) 0.6675(6)
H14_6 H 0.8863 0.6400 0.6899
C21_6 C 0.8517(3) 0.69538(15) 0.5941(6)
H15_6 H 0.9004 0.7053 0.5651
O4_7 O 0.12249(19) 0.59574(11) 0.0918(5)
C5_7 C 0.1495(2) 0.56649(13) 0.0069(6)
C17_7 C 0.2119(3) 0.22068(14) 0.0618(6)
C18_7 C 0.2803(3) 0.20409(16) 0.1033(8)
H12_7 H 0.3247 0.2199 0.0818
C19_7 C 0.2854(3) 0.16432(16) 0.1768(7)
H13_7 H 0.3336 0.1536 0.2051
C20_7 C 0.1572(3) 0.15646(14) 0.1675(6)
H14_7 H 0.1137 0.1400 0.1899
C21_7 C 0.1483(3) 0.19538(15) 0.0941(6)
H15_7 H 0.0996 0.2053 0.0651
O1_7 O 0.84706(19) 0.51383(13) 0.7105(4)
C1_7 C 0.8935(2) 0.53709(15) 0.7828(6)
O2_7 O 0.71062(18) 0.55716(10) 0.5877(4)
O3_7 O 0.87500(17) 0.57245(10) 0.8442(5)
C2_7 C 0.9747(2) 0.52527(13) 0.7945(5)
H3_5 H 0.9673 0.4720 0.6495
H16_4 H 0.732999 0.569044 0.482794
H17_7 H 0.65699 0.565584 0.595147
O1_8 O 0.65294(19) 0.01383(13) 0.7895(4)
C1_8 C 0.6065(2) 0.03709(15) 0.7172(6)
O2_8 O 0.78938(18) 0.05716(10) 0.9123(4)
O3_8 O 0.62500(17) 0.07245(10) 0.6558(5)
C2_8 C 0.5253(2) 0.02527(13) 0.7055(5)
O4_8 O 0.37751(19) 0.09574(11) 0.4082(5)
C3_7 C 0.4764(2) 0.05059(12) 0.6157(5)
H1_7 H 0.4943 0.0757 0.5632
C4_7 C 0.4008(2) 0.03958(12) 0.6015(5)
C5_8 C 0.3505(2) 0.06649(13) 0.4931(6)
C6_7 C 0.3741(2) 0.00374(13) 0.6832(5)
H17_8 H 0.84301 0.0655836 0.904853
N2_7 N 0.3817(2) 0.90261(11) 0.7755(4)
H2_7 H 0.3225 0.9963 0.6741
C7_7 C 0.4226(2) 0.97853(13) 0.7788(5)
C8_7 C 0.4989(2) 0.98929(13) 0.7880(5)
H3_6 H 0.5327 0.9720 0.8505
C9_7 C 0.3937(3) 0.94154(13) 0.8779(6)
H4_7 H 0.3455 0.9496 0.9315
H5_7 H 0.4298 0.9351 0.9697
C10_7 C 0.3117(3) 0.88748(14) 0.7506(6)
H6_7 H 0.2696 0.9032 0.7889
C11_7 C 0.3009(3) 0.84960(15) 0.6706(6)
H7_7 H 0.2514 0.8392 0.6542
C12_7 C 0.3618(3) 0.82638(13) 0.6133(6)
C13_7 C 0.4334(3) 0.84369(14) 0.6358(7)
H8_7 H 0.4763 0.8290 0.5950
C14_7 C 0.4418(3) 0.88165(14) 0.7163(6)
H9_7 H 0.4906 0.8933 0.7306
C15_7 C 0.3561(3) 0.78392(14) 0.5366(6)
H10_7 H 0.4015 0.7708 0.5012
C16_7 C 0.2933(3) 0.76289(15) 0.5136(6)
H11_7 H 0.2479 0.7760 0.5484
C17_8 C 0.2881(3) 0.72068(14) 0.4382(6)
C18_8 C 0.2197(3) 0.70409(16) 0.3967(8)
H12_8 H 0.1753 0.7199 0.4182
C19_8 C 0.2146(3) 0.66432(16) 0.3232(7)
H13_8 H 0.1664 0.6536 0.2949
C20_8 C 0.3428(3) 0.65646(14) 0.3325(6)
H14_8 H 0.3863 0.6400 0.3101
C21_8 C 0.3517(3) 0.69538(15) 0.4059(6)
H15_8 H 0.4004 0.7053 0.4349
H16_5 H 0.267001 0.0690443 0.982794
H3_7 H 0.0327 0.9720 0.1495
H16_6 H 0.232999 0.930956 0.982794
N2_8 N 0.1183(2) 0.40261(11) 0.7245(4)
C3_8 C 0.0236(2) 0.55059(12) 0.8843(5)
H1_8 H 0.0057 0.5757 0.9368
C4_8 C 0.0992(2) 0.53958(12) 0.8985(5)
C6_8 C 0.1259(2) 0.50374(13) 0.8168(5)
H2_8 H 0.1775 0.4963 0.8259
C7_8 C 0.0774(2) 0.47853(13) 0.7212(5)
C8_8 C 0.0011(2) 0.48929(13) 0.7120(5)
C9_8 C 0.1063(3) 0.44154(13) 0.6221(6)
H4_8 H 0.1545 0.4496 0.5685
H5_8 H 0.0702 0.4351 0.5303
C10_8 C 0.1883(3) 0.38748(14) 0.7494(6)
H6_8 H 0.2304 0.4032 0.7111
C11_8 C 0.1991(3) 0.34960(15) 0.8294(6)
H7_8 H 0.2486 0.3392 0.8458
C12_8 C 0.1382(3) 0.32638(13) 0.8867(6)
C13_8 C 0.0666(3) 0.34369(14) 0.8642(7)
H8_8 H 0.0237 0.3290 0.9050
C14_8 C 0.0582(3) 0.38165(14) 0.7837(6)
H9_8 H 0.0094 0.3933 0.7694
C15_8 C 0.1439(3) 0.28392(14) 0.9634(6)
H10_8 H 0.0985 0.2708 0.9988
C16_8 C 0.2067(3) 0.26289(15) 0.9864(6)
H11_8 H 0.2521 0.2760 0.9516
H3_8 H 0.9673 0.0280 0.8505
H16_7 H 0.732999 0.930956 0.0172055
H16_8 H 0.767001 0.0690443 0.0172055
N4 N 0.0756(3) 0.62171(16) 0.5913(6)
O7 O 0.1358(3) 0.6276(2) 0.6607(8)
O8 O 0.0766(3) 0.59337(18) 0.4865(6)
O9 O 0.0202(4) 0.6417(3) 0.6251(10)
N4_2 N 0.4244(3) 0.37829(16) 0.5913(6)
O7_2 O 0.3642(3) 0.3724(2) 0.6607(8)
O8_2 O 0.4234(3) 0.40663(18) 0.4865(6)
O9_2 O 0.4798(4) 0.3583(3) 0.6251(10)
O8_3 O 0.0766(3) 0.90663(18) 0.0135(6)
N4_3 N 0.0756(3) 0.87829(16) 0.9087(6)
O7_3 O 0.1358(3) 0.8724(2) 0.8393(8)
O9_3 O 0.0202(4) 0.8583(3) 0.8749(10)
O8_4 O 0.4234(3) 0.09337(18) 0.0135(6)
N4_4 N 0.4244(3) 0.12171(16) 0.9087(6)
O7_4 O 0.3642(3) 0.1276(2) 0.8393(8)
O9_4 O 0.4798(4) 0.1417(3) 0.8749(10)
N4_5 N 0.9244(3) 0.37829(16) 0.4087(6)
O7_5 O 0.8642(3) 0.3724(2) 0.3393(8)
O8_5 O 0.9234(3) 0.40663(18) 0.5135(6)
O9_5 O 0.9798(4) 0.3583(3) 0.3749(10)
N4_6 N 0.5756(3) 0.62171(16) 0.4087(6)
O7_6 O 0.6358(3) 0.6276(2) 0.3393(8)
O8_6 O 0.5766(3) 0.59337(18) 0.5135(6)
O9_6 O 0.5202(4) 0.6417(3) 0.3749(10)
N4_7 N 0.9244(3) 0.12171(16) 0.0913(6)
O7_7 O 0.8642(3) 0.1276(2) 0.1607(8)
O9_7 O 0.9798(4) 0.1417(3) 0.1251(10)
O8_7 O 0.9234(3) 0.09337(18) 0.9865(6)
N4_8 N 0.5756(3) 0.87829(16) 0.0913(6)
O7_8 O 0.6358(3) 0.8724(2) 0.1607(8)
O9_8 O 0.5202(4) 0.8583(3) 0.1251(10)
O8_8 O 0.5766(3) 0.90663(18) 0.9865(6)
loop_
_geom_bond_atom_site_label_1
_geom_bond_atom_site_label_2
_geom_bond_site_symmetry_1
_geom_bond_site_symmetry_2
Zn1 O2 1_555 1_555
O1 C1 1_555 1_555
C1 O3 1_555 1_555
O3 Zn1 1_555 1_555
C2 C1 1_555 1_555
N3 Zn1 1_555 1_555
O6 Zn1 1_555 1_555
O2 H16 1_555 1_555
O2 H17 1_555 1_555
N1 C19 1_555 1_555
O4 C5 1_555 1_555
O5 C5 1_555 1_555
C18 C17 1_555 1_555
H12 C18 1_555 1_555
C19 C18 1_555 1_555
H13 C19 1_555 1_555
C20 N1 1_555 1_555
H14 C20 1_555 1_555
C21 C17 1_555 1_555
H15 C21 1_555 1_555
Zn2 O5 1_555 1_555
Zn3 N1 1_555 1_555
C20 C21 1_555 1_555
N1_2 C19_2 1_555 1_555
N2 C9 1_555 1_555
H3_2 C8 1_555 1_555
C9 C7 1_555 1_555
H4 C9 1_555 1_555
H5 C9 1_555 1_555
C10 N2 1_555 1_555
H6 C10 1_555 1_555
C11 C10 1_555 1_555
H7 C11 1_555 1_555
C12 C11 1_555 1_555
C13 C12 1_555 1_555
H8 C13 1_555 1_555
C14 N2 1_555 1_555
H9 C14 1_555 1_555
C15 C12 1_555 1_555
H10 C15 1_555 1_555
C16 C15 1_555 1_555
H11 C16 1_555 1_555
C17_2 C16 1_555 1_555
C18_2 C17_2 1_555 1_555
H12_2 C18_2 1_555 1_555
C19_2 C18_2 1_555 1_555
H13_2 C19_2 1_555 1_555
C20_2 N1_2 1_555 1_555
H14_2 C20_2 1_555 1_555
C21_2 C17_2 1_555 1_555
H15_2 C21_2 1_555 1_555
Zn2 N1_2 1_555 1_555
C7 C8 1_555 1_555
C13 C14 1_555 1_555
C20_2 C21_2 1_555 1_555
Zn1_2 O2_2 1_555 1_555
O1_2 C1_2 1_555 1_555
C1_2 O3_2 1_555 1_555
O3_2 Zn1_2 1_555 1_555
C2_2 C1_2 1_555 1_555
O4_2 C5_2 1_555 1_555
C3 C2_2 1_555 1_555
H1 C3 1_555 1_555
O5_2 C5_2 1_555 1_555
C4 C3 1_555 1_555
C5_2 C4 1_555 1_555
C6 C4 1_555 1_555
Zn3 O5_2 1_555 1_555
N3_2 Zn1_2 1_555 1_555
O6_2 Zn1_2 1_555 1_555
O2_2 H17_2 1_555 1_555
N3_2 C19_3 1_555 1_555
O4_3 C5_3 1_555 1_555
O6 C5_3 1_555 1_555
C18_3 C17_3 1_555 1_555
H12_3 C18_3 1_555 1_555
C19_3 C18_3 1_555 1_555
H13_3 C19_3 1_555 1_555
C20_3 N3_2 1_555 1_555
H14_3 C20_3 1_555 1_555
C21_3 C17_3 1_555 1_555
H15_3 C21_3 1_555 1_555
C20_3 C21_3 1_555 1_555
Zn2 O2_3 1_555 1_555
O1_3 C1_3 1_555 1_555
C1_3 O3_3 1_555 1_555
O3_3 Zn2 1_555 1_555
N2_2 C9_2 1_555 1_555
C2_3 C1_3 1_555 1_555
C3_2 C2_3 1_555 1_555
H1_2 C3_2 1_555 1_555
C4_2 C3_2 1_555 1_555
C6_2 C4_2 1_555 1_555
H2_2 C6_2 1_555 1_555
C7_2 C6_2 1_555 1_555
C8_2 C2_3 1_555 1_555
H3_3 C8_2 1_555 1_555
C9_2 C7_2 1_555 1_555
H4_2 C9_2 1_555 1_555
H5_2 C9_2 1_555 1_555
C10_2 N2_2 1_555 1_555
H6_2 C10_2 1_555 1_555
C11_2 C10_2 1_555 1_555
H7_2 C11_2 1_555 1_555
C12_2 C11_2 1_555 1_555
C13_2 C12_2 1_555 1_555
H8_2 C13_2 1_555 1_555
C14_2 N2_2 1_555 1_555
H9_2 C14_2 1_555 1_555
C15_2 C12_2 1_555 1_555
H10_2 C15_2 1_555 1_555
C16_2 C15_2 1_555 1_555
H11_2 C16_2 1_555 1_555
C7_2 C8_2 1_555 1_555
C13_2 C14_2 1_555 1_555
O2_3 H16_2 1_555 1_555
O2_3 H17_3 1_555 1_555
N3 C19_4 1_555 1_555
N2_3 C9_3 1_555 1_555
C9_3 C7_3 1_555 1_555
H4_3 C9_3 1_555 1_555
H5_3 C9_3 1_555 1_555
C10_3 N2_3 1_555 1_555
H6_3 C10_3 1_555 1_555
C11_3 C10_3 1_555 1_555
H7_3 C11_3 1_555 1_555
C12_3 C11_3 1_555 1_555
C13_3 C12_3 1_555 1_555
H8_3 C13_3 1_555 1_555
C14_3 N2_3 1_555 1_555
H9_3 C14_3 1_555 1_555
C15_3 C12_3 1_555 1_555
H10_3 C15_3 1_555 1_555
C16_3 C15_3 1_555 1_555
H11_3 C16_3 1_555 1_555
C17_4 C16_3 1_555 1_555
C18_4 C17_4 1_555 1_555
H12_4 C18_4 1_555 1_555
C19_4 C18_4 1_555 1_555
H13_4 C19_4 1_555 1_555
C20_4 N3 1_555 1_555
H14_4 C20_4 1_555 1_555
C21_4 C17_4 1_555 1_555
H15_4 C21_4 1_555 1_555
C7_3 C8_3 1_555 1_555
C13_3 C14_3 1_555 1_555
C20_4 C21_4 1_555 1_555
O4_4 C5_4 1_555 1_555
H1_3 C3_3 1_555 1_555
O6_2 C5_4 1_555 1_555
C4_3 C3_3 1_555 1_555
C5_4 C4_3 1_555 1_555
C6_3 C4_3 1_555 1_555
Zn3 O2_4 1_555 1_555
O1_4 C1_4 1_555 1_555
C1_4 O3_4 1_555 1_555
O3_4 Zn3 1_555 1_555
C2_4 C1_4 1_555 1_555
O2_4 H17_4 1_555 1_555
N2_4 C9_4 1_555 1_555
H1_4 C3_4 1_555 1_555
C4_4 C3_4 1_555 1_555
C6_4 C4_4 1_555 1_555
H2_4 C6_4 1_555 1_555
C7_4 C6_4 1_555 1_555
C9_4 C7_4 1_555 1_555
H4_4 C9_4 1_555 1_555
H5_4 C9_4 1_555 1_555
C10_4 N2_4 1_555 1_555
H6_4 C10_4 1_555 1_555
C11_4 C10_4 1_555 1_555
H7_4 C11_4 1_555 1_555
C12_4 C11_4 1_555 1_555
C13_4 C12_4 1_555 1_555
H8_4 C13_4 1_555 1_555
C14_4 N2_4 1_555 1_555
H9_4 C14_4 1_555 1_555
C15_4 C12_4 1_555 1_555
H10_4 C15_4 1_555 1_555
C16_4 C15_4 1_555 1_555
H11_4 C16_4 1_555 1_555
C7_4 C8_4 1_555 1_555
C13_4 C14_4 1_555 1_555
Zn1_3 O2_5 1_555 1_555
O1_5 C1_5 1_555 1_555
C1_5 O3_5 1_555 1_555
O3_5 Zn1_3 1_555 1_555
N2_5 C9_5 1_555 1_555
C2_5 C1_5 1_555 1_555
C3_5 C2_5 1_555 1_555
H1_5 C3_5 1_555 1_555
C4_5 C3_5 1_555 1_555
C6_5 C4_5 1_555 1_555
H2_5 C6_5 1_555 1_555
C7_5 C6_5 1_555 1_555
C8_5 C2_5 1_555 1_555
H3_4 C8_5 1_555 1_555
C9_5 C7_5 1_555 1_555
H4_5 C9_5 1_555 1_555
H5_5 C9_5 1_555 1_555
C10_5 N2_5 1_555 1_555
H6_5 C10_5 1_555 1_555
C11_5 C10_5 1_555 1_555
H7_5 C11_5 1_555 1_555
C12_5 C11_5 1_555 1_555
C13_5 C12_5 1_555 1_555
H8_5 C13_5 1_555 1_555
C14_5 N2_5 1_555 1_555
H9_5 C14_5 1_555 1_555
C15_5 C12_5 1_555 1_555
H10_5 C15_5 1_555 1_555
C16_5 C15_5 1_555 1_555
H11_5 C16_5 1_555 1_555
N3_3 Zn1_3 1_555 1_555
O6_3 Zn1_3 1_555 1_555
C7_5 C8_5 1_555 1_555
C13_5 C14_5 1_555 1_555
O2_5 H16_3 1_555 1_555
O2_5 H17_5 1_555 1_555
N1_3 C19_5 1_555 1_555
O4_5 C5_5 1_555 1_555
O5_3 C5_5 1_555 1_555
C18_5 C17_5 1_555 1_555
H12_5 C18_5 1_555 1_555
C19_5 C18_5 1_555 1_555
H13_5 C19_5 1_555 1_555
C20_5 N1_3 1_555 1_555
H14_5 C20_5 1_555 1_555
C21_5 C17_5 1_555 1_555
H15_5 C21_5 1_555 1_555
Zn2_2 O5_3 1_555 1_555
Zn3_2 N1_3 1_555 1_555
C20_5 C21_5 1_555 1_555
Zn1_4 O2_6 1_555 1_555
O1_6 C1_6 1_555 1_555
C1_6 O3_6 1_555 1_555
O3_6 Zn1_4 1_555 1_555
C2_6 C1_6 1_555 1_555
N3_4 Zn1_4 1_555 1_555
O6_4 Zn1_4 1_555 1_555
O2_6 H17_6 1_555 1_555
O4_6 C5_6 1_555 1_555
H1_6 C3_6 1_555 1_555
O5_4 C5_6 1_555 1_555
C4_6 C3_6 1_555 1_555
C5_6 C4_6 1_555 1_555
C6_6 C4_6 1_555 1_555
Zn3_2 O5_4 1_555 1_555
N1_4 C19_6 1_555 1_555
N2_6 C9_6 1_555 1_555
C9_6 C7_6 1_555 1_555
H4_6 C9_6 1_555 1_555
H5_6 C9_6 1_555 1_555
C10_6 N2_6 1_555 1_555
H6_6 C10_6 1_555 1_555
C11_6 C10_6 1_555 1_555
H7_6 C11_6 1_555 1_555
C12_6 C11_6 1_555 1_555
C13_6 C12_6 1_555 1_555
H8_6 C13_6 1_555 1_555
C14_6 N2_6 1_555 1_555
H9_6 C14_6 1_555 1_555
C15_6 C12_6 1_555 1_555
H10_6 C15_6 1_555 1_555
C16_6 C15_6 1_555 1_555
H11_6 C16_6 1_555 1_555
C17_6 C16_6 1_555 1_555
C18_6 C17_6 1_555 1_555
H12_6 C18_6 1_555 1_555
C19_6 C18_6 1_555 1_555
H13_6 C19_6 1_555 1_555
C20_6 N1_4 1_555 1_555
H14_6 C20_6 1_555 1_555
C21_6 C17_6 1_555 1_555
H15_6 C21_6 1_555 1_555
Zn2_2 N1_4 1_555 1_555
C7_6 C8_6 1_555 1_555
C13_6 C14_6 1_555 1_555
C20_6 C21_6 1_555 1_555
N3_4 C19_7 1_555 1_555
O4_7 C5_7 1_555 1_555
O6_3 C5_7 1_555 1_555
C18_7 C17_7 1_555 1_555
H12_7 C18_7 1_555 1_555
C19_7 C18_7 1_555 1_555
H13_7 C19_7 1_555 1_555
C20_7 N3_4 1_555 1_555
H14_7 C20_7 1_555 1_555
C21_7 C17_7 1_555 1_555
H15_7 C21_7 1_555 1_555
C20_7 C21_7 1_555 1_555
Zn2_2 O2_7 1_555 1_555
O1_7 C1_7 1_555 1_555
C1_7 O3_7 1_555 1_555
O3_7 Zn2_2 1_555 1_555
C2_7 C1_7 1_555 1_555
O2_7 H16_4 1_555 1_555
O2_7 H17_7 1_555 1_555
Zn3_2 O2_8 1_555 1_555
O1_8 C1_8 1_555 1_555
C1_8 O3_8 1_555 1_555
O3_8 Zn3_2 1_555 1_555
C2_8 C1_8 1_555 1_555
O4_8 C5_8 1_555 1_555
C3_7 C2_8 1_555 1_555
H1_7 C3_7 1_555 1_555
O6_4 C5_8 1_555 1_555
C4_7 C3_7 1_555 1_555
C5_8 C4_7 1_555 1_555
C6_7 C4_7 1_555 1_555
O2_8 H17_8 1_555 1_555
N3_3 C19_8 1_555 1_555
N2_7 C9_7 1_555 1_555
H3_6 C8_7 1_555 1_555
C9_7 C7_7 1_555 1_555
H4_7 C9_7 1_555 1_555
H5_7 C9_7 1_555 1_555
C10_7 N2_7 1_555 1_555
H6_7 C10_7 1_555 1_555
C11_7 C10_7 1_555 1_555
H7_7 C11_7 1_555 1_555
C12_7 C11_7 1_555 1_555
C13_7 C12_7 1_555 1_555
H8_7 C13_7 1_555 1_555
C14_7 N2_7 1_555 1_555
H9_7 C14_7 1_555 1_555
C15_7 C12_7 1_555 1_555
H10_7 C15_7 1_555 1_555
C16_7 C15_7 1_555 1_555
H11_7 C16_7 1_555 1_555
C17_8 C16_7 1_555 1_555
C18_8 C17_8 1_555 1_555
H12_8 C18_8 1_555 1_555
C19_8 C18_8 1_555 1_555
H13_8 C19_8 1_555 1_555
C20_8 N3_3 1_555 1_555
H14_8 C20_8 1_555 1_555
C21_8 C17_8 1_555 1_555
H15_8 C21_8 1_555 1_555
C7_7 C8_7 1_555 1_555
C13_7 C14_7 1_555 1_555
C20_8 C21_8 1_555 1_555
N2_8 C9_8 1_555 1_555
H1_8 C3_8 1_555 1_555
C4_8 C3_8 1_555 1_555
C6_8 C4_8 1_555 1_555
H2_8 C6_8 1_555 1_555
C7_8 C6_8 1_555 1_555
C9_8 C7_8 1_555 1_555
H4_8 C9_8 1_555 1_555
H5_8 C9_8 1_555 1_555
C10_8 N2_8 1_555 1_555
H6_8 C10_8 1_555 1_555
C11_8 C10_8 1_555 1_555
H7_8 C11_8 1_555 1_555
C12_8 C11_8 1_555 1_555
C13_8 C12_8 1_555 1_555
H8_8 C13_8 1_555 1_555
C14_8 N2_8 1_555 1_555
H9_8 C14_8 1_555 1_555
C15_8 C12_8 1_555 1_555
H10_8 C15_8 1_555 1_555
C16_8 C15_8 1_555 1_555
H11_8 C16_8 1_555 1_555
C7_8 C8_8 1_555 1_555
C13_8 C14_8 1_555 1_555
N4 O7 1_555 1_555
O8 N4 1_555 1_555
O9 N4 1_555 1_555
N4_2 O7_2 1_555 1_555
O8_2 N4_2 1_555 1_555
O9_2 N4_2 1_555 1_555
N4_3 O7_3 1_555 1_555
O9_3 N4_3 1_555 1_555
N4_4 O7_4 1_555 1_555
O9_4 N4_4 1_555 1_555
N4_5 O7_5 1_555 1_555
O8_5 N4_5 1_555 1_555
O9_5 N4_5 1_555 1_555
N4_6 O7_6 1_555 1_555
O8_6 N4_6 1_555 1_555
O9_6 N4_6 1_555 1_555
N4_7 O7_7 1_555 1_555
O9_7 N4_7 1_555 1_555
N4_8 O7_8 1_555 1_555
O9_8 N4_8 1_555 1_555

#END
