
###############################################################################
#
# This file contains modified crystal structure data generated from the
# MOF subset of the Cambridge Structural Database (CSD) v543 
# hosted by the Cambridge Crystallographic Data Centre (CCDC).
#
# This work is licensed under the Creative Commons
# Attribution-NonCommercial-ShareAlike 4.0 International License.
# To view a copy of this license, visit
# http://creativecommons.org/licenses/by-nc-sa/4.0/
# or send a letter to
# Creative Commons, PO Box 1866, Mountain View, CA 94042, USA.
#
# CIF created using the CSD Python API on 29 September 2022
# The structure has been converted into the P1 space group
# The structure has a 3D framework
# The original CSD entry CAVGAK is in the orthorhombic crystal system
# The framework has been calculated to contain at least 10.0% void space
# The void calculation uses a probe of radius 1.32A, grid spacing 0.4
#
###############################################################################

data_CAVGAK
_chemical_formula_moiety         '(C168 H136 Cu8 N24 O60)n'
_symmetry_cell_setting           triclinic
_symmetry_space_group_name_H-M   'P 1'
_symmetry_Int_Tables_number      1
_space_group_name_Hall           'P 1'
loop_
_symmetry_equiv_pos_site_id
_symmetry_equiv_pos_as_xyz
1 x,y,z
_cell_length_a                   17.4655(9)
_cell_length_b                   31.5628(11)
_cell_length_c                   7.9831(3)
_cell_angle_alpha                90
_cell_angle_beta                 90
_cell_angle_gamma                90
_cell_volume                     4400.76
loop_
_atom_site_label
_atom_site_type_symbol
_atom_site_fract_x
_atom_site_fract_y
_atom_site_fract_z
Cu1 Cu 0.26435(5) 0.41266(2) 0.16719(9)
O1 O 0.3726(3) 0.42459(12) 0.1473(5)
O2 O 0.3440(3) 0.48578(13) 0.2690(5)
O4 O 0.7310(3) 0.44948(13) 0.0150(5)
O5 O 0.2146(3) 0.43989(13) 0.4052(5)
H1 H 0.1671 0.4341 0.4098
H2 H 0.2205 0.4666 0.4056
N2 N 0.6143(3) 0.59775(14) 0.2871(5)
C1 C 0.3906(4) 0.46104(16) 0.2051(6)
C2 C 0.4736(3) 0.47301(16) 0.2000(6)
C3 C 0.5278(3) 0.44865(16) 0.1130(6)
H3 H 0.5125 0.4242 0.0576
C4 C 0.6043(3) 0.46089(16) 0.1091(6)
C5 C 0.6274(4) 0.49707(16) 0.1947(6)
H4 H 0.6785 0.5053 0.1919
C6 C 0.5740(3) 0.52111(16) 0.2851(6)
C7 C 0.4973(3) 0.50924(15) 0.2860(6)
H5 H 0.4617 0.5255 0.3441
C8 C 0.6619(4) 0.43729(17) 0.0100(7)
C9 C 0.6004(4) 0.55821(15) 0.3892(6)
H6 H 0.5621 0.5642 0.4738
H7 H 0.6474 0.5505 0.4465
C10 C 0.6851(4) 0.61315(19) 0.2698(7)
H8 H 0.7267 0.5985 0.3137
C11 C 0.6962(5) 0.6512(2) 0.1861(8)
H9 H 0.7454 0.6620 0.1732
C12 C 0.6343(5) 0.67301(19) 0.1219(8)
C13 C 0.5639(5) 0.6554(2) 0.1380(8)
H10 H 0.5217 0.6690 0.0915
C14 C 0.5542(4) 0.61837(19) 0.2210(8)
H11 H 0.5053 0.6071 0.2323
C15 C 0.6393(6) 0.7155(2) 0.0398(8)
H12 H 0.5940 0.7276 0.0010
C16 C 0.7028(6) 0.7372(2) 0.0185(9)
H13 H 0.7482 0.7253 0.0572
O6 O 0.1449(3) 0.40676(14) 0.0824(5)
N3 N 0.2790(3) 0.35723(15) 0.2800(6)
O3 O 0.6449(3) 0.40676(14) 0.9176(5)
N1 N 0.7210(3) 0.85723(15) 0.7800(6)
C17 C 0.7068(5) 0.77864(19) 0.9383(8)
C18 C 0.7775(5) 0.7945(2) 0.8948(10)
H14 H 0.8217 0.7792 0.9182
C19 C 0.7822(5) 0.8334(2) 0.8161(10)
H15 H 0.8304 0.8435 0.7866
C20 C 0.6527(5) 0.84254(19) 0.8246(8)
H16 H 0.6101 0.8591 0.8009
C21 C 0.6412(5) 0.8045(2) 0.9034(8)
H17 H 0.5922 0.7958 0.9334
Cu2 Cu 0.76435(5) 0.41266(2) 0.83281(9)
Cu3 Cu 0.73565(5) 0.91266(2) 0.66719(9)
O7 O 0.2310(3) 0.44948(13) 0.9850(5)
Cu1_2 Cu 0.23565(5) 0.91266(2) 0.33281(9)
O1_2 O 0.1274(3) 0.92459(12) 0.3527(5)
O2_2 O 0.1560(3) 0.98578(13) 0.2310(5)
O5_2 O 0.2854(3) 0.93989(13) 0.0948(5)
H1_2 H 0.3329 0.9341 0.0902
H2_2 H 0.2795 0.9666 0.0944
C1_2 C 0.1094(4) 0.96104(16) 0.2949(6)
C2_2 C 0.0264(3) 0.97301(16) 0.3000(6)
O6_2 O 0.3551(3) 0.90676(14) 0.4176(5)
O7_2 O 0.2690(3) 0.94948(13) 0.5150(5)
N3_2 N 0.2210(3) 0.85723(15) 0.2200(6)
N1_2 N 0.7790(3) 0.35723(15) 0.7200(6)
N2_2 N 0.8857(3) 0.09775(14) 0.2129(5)
H4_2 H 0.8215 0.0053 0.3081
C6_2 C 0.9260(3) 0.02111(16) 0.2149(6)
C9_2 C 0.8996(4) 0.05821(15) 0.1108(6)
H6_2 H 0.9379 0.0642 0.0262
H7_2 H 0.8526 0.0505 0.0535
C10_2 C 0.8149(4) 0.11315(19) 0.2302(7)
H8_2 H 0.7733 0.0985 0.1863
C11_2 C 0.8038(5) 0.1512(2) 0.3139(8)
H9_2 H 0.7546 0.1620 0.3268
C12_2 C 0.8657(5) 0.17301(19) 0.3781(8)
C13_2 C 0.9361(5) 0.1554(2) 0.3620(8)
H10_2 H 0.9783 0.1690 0.4085
C14_2 C 0.9458(4) 0.11837(19) 0.2790(8)
H11_2 H 0.9947 0.1071 0.2677
C15_2 C 0.8607(6) 0.2155(2) 0.4602(8)
H12_2 H 0.9060 0.2276 0.4990
C16_2 C 0.7972(6) 0.2372(2) 0.4815(9)
H13_2 H 0.7518 0.2253 0.4428
C17_2 C 0.7932(5) 0.27864(19) 0.5617(8)
C18_2 C 0.7225(5) 0.2945(2) 0.6052(10)
H14_2 H 0.6783 0.2792 0.5818
C19_2 C 0.7178(5) 0.3334(2) 0.6839(10)
H15_2 H 0.6696 0.3435 0.7134
C20_2 C 0.8473(5) 0.34254(19) 0.6754(8)
H16_2 H 0.8899 0.3591 0.6991
C21_2 C 0.8588(5) 0.3045(2) 0.5966(8)
H17_2 H 0.9078 0.2958 0.5666
O3_2 O 0.8551(3) 0.90676(14) 0.5824(5)
O4_2 O 0.7690(3) 0.94948(13) 0.4850(5)
C3_2 C 0.9722(3) 0.94865(16) 0.3870(6)
H3_2 H 0.9875 0.9242 0.4424
C4_2 C 0.8957(3) 0.96089(16) 0.3909(6)
C5_2 C 0.8726(4) 0.99707(16) 0.3053(6)
C8_2 C 0.8381(4) 0.93729(17) 0.4900(7)
C17_3 C 0.2068(5) 0.77864(19) 0.0617(8)
C18_3 C 0.2775(5) 0.7945(2) 0.1052(10)
H14_3 H 0.3217 0.7792 0.0818
C19_3 C 0.2822(5) 0.8334(2) 0.1839(10)
H15_3 H 0.3304 0.8435 0.2134
C20_3 C 0.1527(5) 0.84254(19) 0.1754(8)
H16_3 H 0.1101 0.8591 0.1991
C21_3 C 0.1412(5) 0.8045(2) 0.0966(8)
H17_3 H 0.0922 0.7958 0.0666
N2_3 N 0.1143(3) 0.59775(14) 0.7129(5)
C3_3 C 0.0278(3) 0.44865(16) 0.8870(6)
H3_3 H 0.0125 0.4242 0.9424
C4_3 C 0.1043(3) 0.46089(16) 0.8909(6)
C5_3 C 0.1274(4) 0.49707(16) 0.8053(6)
H4_3 H 0.1785 0.5053 0.8081
C6_3 C 0.0740(3) 0.52111(16) 0.7149(6)
C8_3 C 0.1619(4) 0.43729(17) 0.9900(7)
C9_3 C 0.1004(4) 0.55821(15) 0.6108(6)
H6_3 H 0.0621 0.5642 0.5262
H7_3 H 0.1474 0.5505 0.5535
C10_3 C 0.1851(4) 0.61315(19) 0.7302(7)
H8_3 H 0.2267 0.5985 0.6863
C11_3 C 0.1962(5) 0.6512(2) 0.8139(8)
H9_3 H 0.2454 0.6620 0.8268
C12_3 C 0.1343(5) 0.67301(19) 0.8781(8)
C13_3 C 0.0639(5) 0.6554(2) 0.8620(8)
H10_3 H 0.0217 0.6690 0.9085
C14_3 C 0.0542(4) 0.61837(19) 0.7790(8)
H11_3 H 0.0053 0.6071 0.7677
C15_3 C 0.1393(6) 0.7155(2) 0.9602(8)
H12_3 H 0.0940 0.7276 0.9990
C16_3 C 0.2028(6) 0.7372(2) 0.9815(9)
H13_3 H 0.2482 0.7253 0.9428
O1_3 O 0.8726(3) 0.42459(12) 0.8527(5)
O2_3 O 0.8440(3) 0.48578(13) 0.7310(5)
O5_3 O 0.7146(3) 0.43989(13) 0.5948(5)
H1_3 H 0.6671 0.4341 0.5902
H2_3 H 0.7205 0.4666 0.5944
C1_3 C 0.8906(4) 0.46104(16) 0.7949(6)
C2_3 C 0.9736(3) 0.47301(16) 0.8000(6)
C7_2 C 0.9973(3) 0.50924(15) 0.7140(6)
H5_2 H 0.9617 0.5255 0.6559
N2_4 N 0.3857(3) 0.09775(14) 0.7871(5)
H4_4 H 0.3215 0.0053 0.6919
C6_4 C 0.4260(3) 0.02111(16) 0.7851(6)
C7_3 C 0.5027(3) 0.00924(15) 0.7860(6)
H5_3 H 0.5383 0.0255 0.8441
C9_4 C 0.3996(4) 0.05821(15) 0.8892(6)
H6_4 H 0.4379 0.0642 0.9738
H7_4 H 0.3526 0.0505 0.9465
C10_4 C 0.3149(4) 0.11315(19) 0.7698(7)
H8_4 H 0.2733 0.0985 0.8137
C11_4 C 0.3038(5) 0.1512(2) 0.6861(8)
H9_4 H 0.2546 0.1620 0.6732
C12_4 C 0.3657(5) 0.17301(19) 0.6219(8)
C13_4 C 0.4361(5) 0.1554(2) 0.6380(8)
H10_4 H 0.4783 0.1690 0.5915
C14_4 C 0.4458(4) 0.11837(19) 0.7210(8)
H11_4 H 0.4947 0.1071 0.7323
C15_4 C 0.3607(6) 0.2155(2) 0.5398(8)
H12_4 H 0.4060 0.2276 0.5010
C16_4 C 0.2972(6) 0.2372(2) 0.5185(9)
H13_4 H 0.2518 0.2253 0.5572
C17_4 C 0.2932(5) 0.27864(19) 0.4383(8)
C18_4 C 0.2225(5) 0.2945(2) 0.3948(10)
H14_4 H 0.1783 0.2792 0.4182
C19_4 C 0.2178(5) 0.3334(2) 0.3161(10)
H15_4 H 0.1696 0.3435 0.2866
C20_4 C 0.3473(5) 0.34254(19) 0.3246(8)
H16_4 H 0.3899 0.3591 0.3009
C21_4 C 0.3588(5) 0.3045(2) 0.4034(8)
H17_4 H 0.4078 0.2958 0.4334
O1_4 O 0.6274(3) 0.92459(12) 0.6473(5)
O2_4 O 0.6560(3) 0.98578(13) 0.7690(5)
O5_4 O 0.7854(3) 0.93989(13) 0.9052(5)
H1_4 H 0.8329 0.9341 0.9098
H2_4 H 0.7795 0.9666 0.9056
C1_4 C 0.6094(4) 0.96104(16) 0.7051(6)
C2_4 C 0.5264(3) 0.97301(16) 0.7000(6)
C3_4 C 0.4722(3) 0.94865(16) 0.6130(6)
H3_4 H 0.4875 0.9242 0.5576
C4_4 C 0.3957(3) 0.96089(16) 0.6091(6)
C5_4 C 0.3726(4) 0.99707(16) 0.6947(6)
C8_4 C 0.3381(4) 0.93729(17) 0.5100(7)
Cu1_3 Cu 0.23565(5) 0.58734(2) 0.16719(9)
O1_5 O 0.1274(3) 0.57541(12) 0.1473(5)
O2_5 O 0.1560(3) 0.51422(13) 0.2690(5)
O5_5 O 0.2854(3) 0.56011(13) 0.4052(5)
H1_5 H 0.3329 0.5659 0.4098
H2_5 H 0.2795 0.5334 0.4056
C1_5 C 0.1094(4) 0.53896(16) 0.2051(6)
C2_5 C 0.0264(3) 0.52699(16) 0.2000(6)
C7_4 C 0.0027(3) 0.49076(15) 0.2860(6)
H5_4 H 0.0383 0.4745 0.3441
O6_3 O 0.3551(3) 0.59324(14) 0.0824(5)
N3_3 N 0.2210(3) 0.64277(15) 0.2800(6)
O7_3 O 0.2690(3) 0.55052(13) 0.9850(5)
O4_3 O 0.7690(3) 0.55052(13) 0.0150(5)
N2_5 N 0.8857(3) 0.40225(14) 0.2871(5)
C3_5 C 0.9722(3) 0.55135(16) 0.1130(6)
H3_5 H 0.9875 0.5758 0.0576
C4_5 C 0.8957(3) 0.53911(16) 0.1091(6)
C5_5 C 0.8726(4) 0.50293(16) 0.1947(6)
H4_5 H 0.8215 0.4947 0.1919
C6_5 C 0.9260(3) 0.47889(16) 0.2851(6)
C8_5 C 0.8381(4) 0.56271(17) 0.0100(7)
C9_5 C 0.8996(4) 0.44179(15) 0.3892(6)
H6_5 H 0.9379 0.4358 0.4738
H7_5 H 0.8526 0.4495 0.4465
C10_5 C 0.8149(4) 0.38685(19) 0.2698(7)
H8_5 H 0.7733 0.4015 0.3137
C11_5 C 0.8038(5) 0.3488(2) 0.1861(8)
H9_5 H 0.7546 0.3380 0.1732
C12_5 C 0.8657(5) 0.32699(19) 0.1219(8)
C13_5 C 0.9361(5) 0.3446(2) 0.1380(8)
H10_5 H 0.9783 0.3310 0.0915
C14_5 C 0.9458(4) 0.38163(19) 0.2210(8)
H11_5 H 0.9947 0.3929 0.2323
C15_5 C 0.8607(6) 0.2845(2) 0.0398(8)
H12_5 H 0.9060 0.2724 0.0010
C16_5 C 0.7972(6) 0.2628(2) 0.0185(9)
H13_5 H 0.7518 0.2747 0.0572
O3_3 O 0.8551(3) 0.59324(14) 0.9176(5)
N1_3 N 0.7790(3) 0.14277(15) 0.7800(6)
C17_5 C 0.7932(5) 0.22136(19) 0.9383(8)
C18_5 C 0.7225(5) 0.2055(2) 0.8948(10)
H14_5 H 0.6783 0.2208 0.9182
C19_5 C 0.7178(5) 0.1666(2) 0.8161(10)
H15_5 H 0.6696 0.1565 0.7866
C20_5 C 0.8473(5) 0.15746(19) 0.8246(8)
H16_5 H 0.8899 0.1409 0.8009
C21_5 C 0.8588(5) 0.1955(2) 0.9034(8)
H17_5 H 0.9078 0.2042 0.9334
Cu2_2 Cu 0.73565(5) 0.58734(2) 0.83281(9)
Cu3_2 Cu 0.76435(5) 0.08734(2) 0.66719(9)
Cu1_4 Cu 0.26435(5) 0.08734(2) 0.33281(9)
O1_6 O 0.3726(3) 0.07541(12) 0.3527(5)
O2_6 O 0.3440(3) 0.01422(13) 0.2310(5)
O3_4 O 0.6449(3) 0.09324(14) 0.5824(5)
O4_4 O 0.7310(3) 0.05052(13) 0.4850(5)
O5_6 O 0.2146(3) 0.06011(13) 0.0948(5)
H1_6 H 0.1671 0.0659 0.0902
H2_6 H 0.2205 0.0334 0.0944
C1_6 C 0.3906(4) 0.03896(16) 0.2949(6)
C2_6 C 0.4736(3) 0.02699(16) 0.3000(6)
C3_6 C 0.5278(3) 0.05135(16) 0.3870(6)
H3_6 H 0.5125 0.0758 0.4424
C4_6 C 0.6043(3) 0.03911(16) 0.3909(6)
C5_6 C 0.6274(4) 0.00293(16) 0.3053(6)
C8_6 C 0.6619(4) 0.06271(17) 0.4900(7)
O6_4 O 0.1449(3) 0.09324(14) 0.4176(5)
O7_4 O 0.2310(3) 0.05052(13) 0.5150(5)
N3_4 N 0.2790(3) 0.14277(15) 0.2200(6)
N1_4 N 0.7210(3) 0.64277(15) 0.7200(6)
N2_6 N 0.6143(3) 0.90225(14) 0.2129(5)
H4_6 H 0.6785 0.9947 0.3081
C6_6 C 0.5740(3) 0.97889(16) 0.2149(6)
C7_5 C 0.4973(3) 0.99076(15) 0.2140(6)
H5_5 H 0.4617 0.9745 0.1559
C9_6 C 0.6004(4) 0.94179(15) 0.1108(6)
H6_6 H 0.5621 0.9358 0.0262
H7_6 H 0.6474 0.9495 0.0535
C10_6 C 0.6851(4) 0.88685(19) 0.2302(7)
H8_6 H 0.7267 0.9015 0.1863
C11_6 C 0.6962(5) 0.8488(2) 0.3139(8)
H9_6 H 0.7454 0.8380 0.3268
C12_6 C 0.6343(5) 0.82699(19) 0.3781(8)
C13_6 C 0.5639(5) 0.8446(2) 0.3620(8)
H10_6 H 0.5217 0.8310 0.4085
C14_6 C 0.5542(4) 0.88163(19) 0.2790(8)
H11_6 H 0.5053 0.8929 0.2677
C15_6 C 0.6393(6) 0.7845(2) 0.4602(8)
H12_6 H 0.5940 0.7724 0.4990
C16_6 C 0.7028(6) 0.7628(2) 0.4815(9)
H13_6 H 0.7482 0.7747 0.4428
C17_6 C 0.7068(5) 0.72136(19) 0.5617(8)
C18_6 C 0.7775(5) 0.7055(2) 0.6052(10)
H14_6 H 0.8217 0.7208 0.5818
C19_6 C 0.7822(5) 0.6666(2) 0.6839(10)
H15_6 H 0.8304 0.6565 0.7134
C20_6 C 0.6527(5) 0.65746(19) 0.6754(8)
H16_6 H 0.6101 0.6409 0.6991
C21_6 C 0.6412(5) 0.6955(2) 0.5966(8)
H17_6 H 0.5922 0.7042 0.5666
C17_7 C 0.2932(5) 0.22136(19) 0.0617(8)
C18_7 C 0.2225(5) 0.2055(2) 0.1052(10)
H14_7 H 0.1783 0.2208 0.0818
C19_7 C 0.2178(5) 0.1666(2) 0.1839(10)
H15_7 H 0.1696 0.1565 0.2134
C20_7 C 0.3473(5) 0.15746(19) 0.1754(8)
H16_7 H 0.3899 0.1409 0.1991
C21_7 C 0.3588(5) 0.1955(2) 0.0966(8)
H17_7 H 0.4078 0.2042 0.0666
O1_7 O 0.6274(3) 0.57541(12) 0.8527(5)
O2_7 O 0.6560(3) 0.51422(13) 0.7310(5)
O5_7 O 0.7854(3) 0.56011(13) 0.5948(5)
H1_7 H 0.8329 0.5659 0.5902
H2_7 H 0.7795 0.5334 0.5944
N2_7 N 0.3857(3) 0.40225(14) 0.7129(5)
C1_7 C 0.6094(4) 0.53896(16) 0.7949(6)
C2_7 C 0.5264(3) 0.52699(16) 0.8000(6)
C3_7 C 0.4722(3) 0.55135(16) 0.8870(6)
H3_7 H 0.4875 0.5758 0.9424
C4_7 C 0.3957(3) 0.53911(16) 0.8909(6)
C5_7 C 0.3726(4) 0.50293(16) 0.8053(6)
H4_7 H 0.3215 0.4947 0.8081
C6_7 C 0.4260(3) 0.47889(16) 0.7149(6)
C7_6 C 0.5027(3) 0.49076(15) 0.7140(6)
H5_6 H 0.5383 0.4745 0.6559
C8_7 C 0.3381(4) 0.56271(17) 0.9900(7)
C9_7 C 0.3996(4) 0.44179(15) 0.6108(6)
H6_7 H 0.4379 0.4358 0.5262
H7_7 H 0.3526 0.4495 0.5535
C10_7 C 0.3149(4) 0.38685(19) 0.7302(7)
H8_7 H 0.2733 0.4015 0.6863
C11_7 C 0.3038(5) 0.3488(2) 0.8139(8)
H9_7 H 0.2546 0.3380 0.8268
C12_7 C 0.3657(5) 0.32699(19) 0.8781(8)
C13_7 C 0.4361(5) 0.3446(2) 0.8620(8)
H10_7 H 0.4783 0.3310 0.9085
C14_7 C 0.4458(4) 0.38163(19) 0.7790(8)
H11_7 H 0.4947 0.3929 0.7677
C15_7 C 0.3607(6) 0.2845(2) 0.9602(8)
H12_7 H 0.4060 0.2724 0.9990
C16_7 C 0.2972(6) 0.2628(2) 0.9815(9)
H13_7 H 0.2518 0.2747 0.9428
C3_8 C 0.0278(3) 0.05135(16) 0.6130(6)
H3_8 H 0.0125 0.0758 0.5576
C4_8 C 0.1043(3) 0.03911(16) 0.6091(6)
C5_8 C 0.1274(4) 0.00293(16) 0.6947(6)
C8_8 C 0.1619(4) 0.06271(17) 0.5100(7)
N2_8 N 0.1143(3) 0.90225(14) 0.7871(5)
H4_8 H 0.1785 0.9947 0.6919
C6_8 C 0.0740(3) 0.97889(16) 0.7851(6)
C9_8 C 0.1004(4) 0.94179(15) 0.8892(6)
H6_8 H 0.0621 0.9358 0.9738
H7_8 H 0.1474 0.9495 0.9465
C10_8 C 0.1851(4) 0.88685(19) 0.7698(7)
H8_8 H 0.2267 0.9015 0.8137
C11_8 C 0.1962(5) 0.8488(2) 0.6861(8)
H9_8 H 0.2454 0.8380 0.6732
C12_8 C 0.1343(5) 0.82699(19) 0.6219(8)
C13_8 C 0.0639(5) 0.8446(2) 0.6380(8)
H10_8 H 0.0217 0.8310 0.5915
C14_8 C 0.0542(4) 0.88163(19) 0.7210(8)
H11_8 H 0.0053 0.8929 0.7323
C15_8 C 0.1393(6) 0.7845(2) 0.5398(8)
H12_8 H 0.0940 0.7724 0.5010
C16_8 C 0.2028(6) 0.7628(2) 0.5185(9)
H13_8 H 0.2482 0.7747 0.5572
C17_8 C 0.2068(5) 0.72136(19) 0.4383(8)
C18_8 C 0.2775(5) 0.7055(2) 0.3948(10)
H14_8 H 0.3217 0.7208 0.4182
C19_8 C 0.2822(5) 0.6666(2) 0.3161(10)
H15_8 H 0.3304 0.6565 0.2866
C20_8 C 0.1527(5) 0.65746(19) 0.3246(8)
H16_8 H 0.1101 0.6409 0.3009
C21_8 C 0.1412(5) 0.6955(2) 0.4034(8)
H17_8 H 0.0922 0.7042 0.4334
O1_8 O 0.8726(3) 0.07541(12) 0.6473(5)
O2_8 O 0.8440(3) 0.01422(13) 0.7690(5)
O5_8 O 0.7146(3) 0.06011(13) 0.9052(5)
H1_8 H 0.6671 0.0659 0.9098
H2_8 H 0.7205 0.0334 0.9056
C1_8 C 0.8906(4) 0.03896(16) 0.7051(6)
C2_8 C 0.9736(3) 0.02699(16) 0.7000(6)
C7_7 C 0.0027(3) 0.00924(15) 0.2140(6)
H5_7 H 0.0383 0.0255 0.1559
C7_8 C 0.9973(3) 0.99076(15) 0.7860(6)
H5_8 H 0.9617 0.9745 0.8441
O8 O 0.4251(5) 0.5982(3) 0.4951(9)
O9 O 0.4725(8) 0.6509(4) 0.614(2)
O10 O 0.3599(7) 0.6304(3) 0.6694(10)
N4 N 0.4217(5) 0.6272(3) 0.5861(10)
O8_2 O 0.0749(5) 0.4018(3) 0.4951(9)
O9_2 O 0.0275(8) 0.3491(4) 0.614(2)
O10_2 O 0.1401(7) 0.3696(3) 0.6694(10)
N4_2 N 0.0783(5) 0.3728(3) 0.5861(10)
O8_3 O 0.4251(5) 0.9018(3) 0.0049(9)
O9_3 O 0.4725(8) 0.8491(4) 0.886(2)
O10_3 O 0.3599(7) 0.8696(3) 0.8306(10)
N4_3 N 0.4217(5) 0.8728(3) 0.9139(10)
O8_4 O 0.0749(5) 0.0982(3) 0.0049(9)
O9_4 O 0.0275(8) 0.1509(4) 0.886(2)
O10_4 O 0.1401(7) 0.1304(3) 0.8306(10)
N4_4 N 0.0783(5) 0.1272(3) 0.9139(10)
O8_5 O 0.5749(5) 0.4018(3) 0.5049(9)
O9_5 O 0.5275(8) 0.3491(4) 0.386(2)
O10_5 O 0.6401(7) 0.3696(3) 0.3306(10)
N4_5 N 0.5783(5) 0.3728(3) 0.4139(10)
O8_6 O 0.9251(5) 0.5982(3) 0.5049(9)
O9_6 O 0.9725(8) 0.6509(4) 0.386(2)
O10_6 O 0.8599(7) 0.6304(3) 0.3306(10)
N4_6 N 0.9217(5) 0.6272(3) 0.4139(10)
O9_7 O 0.5275(8) 0.1509(4) 0.114(2)
O10_7 O 0.6401(7) 0.1304(3) 0.1694(10)
N4_7 N 0.5783(5) 0.1272(3) 0.0861(10)
O8_7 O 0.5749(5) 0.0982(3) 0.9951(9)
O9_8 O 0.9725(8) 0.8491(4) 0.114(2)
O10_8 O 0.8599(7) 0.8696(3) 0.1694(10)
N4_8 N 0.9217(5) 0.8728(3) 0.0861(10)
O8_8 O 0.9251(5) 0.9018(3) 0.9951(9)
loop_
_geom_bond_atom_site_label_1
_geom_bond_atom_site_label_2
_geom_bond_site_symmetry_1
_geom_bond_site_symmetry_2
Cu1 O1 1_555 1_555
O1 C1 1_555 1_555
O2 C1 1_555 1_555
O4 C8 1_555 1_555
O5 Cu1 1_555 1_555
H1 O5 1_555 1_555
H2 O5 1_555 1_555
N2 C9 1_555 1_555
C1 C2 1_555 1_555
C2 C3 1_555 1_555
C3 H3 1_555 1_555
C4 C3 1_555 1_555
C5 C4 1_555 1_555
H4 C5 1_555 1_555
C6 C5 1_555 1_555
C7 C2 1_555 1_555
H5 C7 1_555 1_555
C8 C4 1_555 1_555
C9 C6 1_555 1_555
H6 C9 1_555 1_555
H7 C9 1_555 1_555
C10 N2 1_555 1_555
H8 C10 1_555 1_555
C11 C10 1_555 1_555
H9 C11 1_555 1_555
C12 C11 1_555 1_555
C13 C12 1_555 1_555
H10 C13 1_555 1_555
C14 N2 1_555 1_555
H11 C14 1_555 1_555
C15 C12 1_555 1_555
H12 C15 1_555 1_555
C16 C15 1_555 1_555
H13 C16 1_555 1_555
O6 Cu1 1_555 1_555
N3 Cu1 1_555 1_555
C6 C7 1_555 1_555
C13 C14 1_555 1_555
N1 C19 1_555 1_555
C18 C17 1_555 1_555
H14 C18 1_555 1_555
C19 C18 1_555 1_555
H15 C19 1_555 1_555
C20 N1 1_555 1_555
H16 C20 1_555 1_555
C21 C17 1_555 1_555
H17 C21 1_555 1_555
Cu2 O3 1_555 1_555
Cu3 N1 1_555 1_555
C20 C21 1_555 1_555
Cu1_2 O1_2 1_555 1_555
O1_2 C1_2 1_555 1_555
O2_2 C1_2 1_555 1_555
O5_2 Cu1_2 1_555 1_555
H1_2 O5_2 1_555 1_555
H2_2 O5_2 1_555 1_555
C1_2 C2_2 1_555 1_555
O6_2 Cu1_2 1_555 1_555
O7_2 Cu1_2 1_555 1_555
N3_2 Cu1_2 1_555 1_555
N1_2 C19_2 1_555 1_555
N2_2 C9_2 1_555 1_555
C9_2 C6_2 1_555 1_555
H6_2 C9_2 1_555 1_555
H7_2 C9_2 1_555 1_555
C10_2 N2_2 1_555 1_555
H8_2 C10_2 1_555 1_555
C11_2 C10_2 1_555 1_555
H9_2 C11_2 1_555 1_555
C12_2 C11_2 1_555 1_555
C13_2 C12_2 1_555 1_555
H10_2 C13_2 1_555 1_555
C14_2 N2_2 1_555 1_555
H11_2 C14_2 1_555 1_555
C15_2 C12_2 1_555 1_555
H12_2 C15_2 1_555 1_555
C16_2 C15_2 1_555 1_555
H13_2 C16_2 1_555 1_555
C17_2 C16_2 1_555 1_555
C18_2 C17_2 1_555 1_555
H14_2 C18_2 1_555 1_555
C19_2 C18_2 1_555 1_555
H15_2 C19_2 1_555 1_555
C20_2 N1_2 1_555 1_555
H16_2 C20_2 1_555 1_555
C21_2 C17_2 1_555 1_555
H17_2 C21_2 1_555 1_555
Cu2 N1_2 1_555 1_555
C13_2 C14_2 1_555 1_555
C20_2 C21_2 1_555 1_555
O3_2 C8_2 1_555 1_555
O4_2 C8_2 1_555 1_555
C3_2 H3_2 1_555 1_555
C4_2 C3_2 1_555 1_555
C5_2 C4_2 1_555 1_555
C8_2 C4_2 1_555 1_555
Cu3 O3_2 1_555 1_555
O4_2 Cu3 1_555 1_555
N3_2 C19_3 1_555 1_555
C18_3 C17_3 1_555 1_555
H14_3 C18_3 1_555 1_555
C19_3 C18_3 1_555 1_555
H15_3 C19_3 1_555 1_555
C20_3 N3_2 1_555 1_555
H16_3 C20_3 1_555 1_555
C21_3 C17_3 1_555 1_555
H17_3 C21_3 1_555 1_555
C20_3 C21_3 1_555 1_555
O7 C8_3 1_555 1_555
N2_3 C9_3 1_555 1_555
C3_3 H3_3 1_555 1_555
C4_3 C3_3 1_555 1_555
C5_3 C4_3 1_555 1_555
H4_3 C5_3 1_555 1_555
C6_3 C5_3 1_555 1_555
C8_3 C4_3 1_555 1_555
C9_3 C6_3 1_555 1_555
H6_3 C9_3 1_555 1_555
H7_3 C9_3 1_555 1_555
C10_3 N2_3 1_555 1_555
H8_3 C10_3 1_555 1_555
C11_3 C10_3 1_555 1_555
H9_3 C11_3 1_555 1_555
C12_3 C11_3 1_555 1_555
C13_3 C12_3 1_555 1_555
H10_3 C13_3 1_555 1_555
C14_3 N2_3 1_555 1_555
H11_3 C14_3 1_555 1_555
C15_3 C12_3 1_555 1_555
H12_3 C15_3 1_555 1_555
C16_3 C15_3 1_555 1_555
H13_3 C16_3 1_555 1_555
C13_3 C14_3 1_555 1_555
Cu2 O1_3 1_555 1_555
O1_3 C1_3 1_555 1_555
O2_3 C1_3 1_555 1_555
O5_3 Cu2 1_555 1_555
H1_3 O5_3 1_555 1_555
H2_3 O5_3 1_555 1_555
C1_3 C2_3 1_555 1_555
C7_2 C2_3 1_555 1_555
H5_2 C7_2 1_555 1_555
N3 C19_4 1_555 1_555
N2_4 C9_4 1_555 1_555
H5_3 C7_3 1_555 1_555
C9_4 C6_4 1_555 1_555
H6_4 C9_4 1_555 1_555
H7_4 C9_4 1_555 1_555
C10_4 N2_4 1_555 1_555
H8_4 C10_4 1_555 1_555
C11_4 C10_4 1_555 1_555
H9_4 C11_4 1_555 1_555
C12_4 C11_4 1_555 1_555
C13_4 C12_4 1_555 1_555
H10_4 C13_4 1_555 1_555
C14_4 N2_4 1_555 1_555
H11_4 C14_4 1_555 1_555
C15_4 C12_4 1_555 1_555
H12_4 C15_4 1_555 1_555
C16_4 C15_4 1_555 1_555
H13_4 C16_4 1_555 1_555
C17_4 C16_4 1_555 1_555
C18_4 C17_4 1_555 1_555
H14_4 C18_4 1_555 1_555
C19_4 C18_4 1_555 1_555
H15_4 C19_4 1_555 1_555
C20_4 N3 1_555 1_555
H16_4 C20_4 1_555 1_555
C21_4 C17_4 1_555 1_555
H17_4 C21_4 1_555 1_555
C6_4 C7_3 1_555 1_555
C13_4 C14_4 1_555 1_555
C20_4 C21_4 1_555 1_555
Cu3 O1_4 1_555 1_555
O1_4 C1_4 1_555 1_555
O2_4 C1_4 1_555 1_555
O6_2 C8_4 1_555 1_555
O7_2 C8_4 1_555 1_555
O5_4 Cu3 1_555 1_555
H1_4 O5_4 1_555 1_555
H2_4 O5_4 1_555 1_555
C1_4 C2_4 1_555 1_555
C2_4 C3_4 1_555 1_555
C3_4 H3_4 1_555 1_555
C4_4 C3_4 1_555 1_555
C5_4 C4_4 1_555 1_555
C8_4 C4_4 1_555 1_555
Cu1_3 O1_5 1_555 1_555
O1_5 C1_5 1_555 1_555
O2_5 C1_5 1_555 1_555
O5_5 Cu1_3 1_555 1_555
H1_5 O5_5 1_555 1_555
H2_5 O5_5 1_555 1_555
C1_5 C2_5 1_555 1_555
C7_4 C2_5 1_555 1_555
H5_4 C7_4 1_555 1_555
O6_3 Cu1_3 1_555 1_555
N3_3 Cu1_3 1_555 1_555
O4_3 C8_5 1_555 1_555
N2_5 C9_5 1_555 1_555
C3_5 H3_5 1_555 1_555
C4_5 C3_5 1_555 1_555
C5_5 C4_5 1_555 1_555
H4_5 C5_5 1_555 1_555
C6_5 C5_5 1_555 1_555
C8_5 C4_5 1_555 1_555
C9_5 C6_5 1_555 1_555
H6_5 C9_5 1_555 1_555
H7_5 C9_5 1_555 1_555
C10_5 N2_5 1_555 1_555
H8_5 C10_5 1_555 1_555
C11_5 C10_5 1_555 1_555
H9_5 C11_5 1_555 1_555
C12_5 C11_5 1_555 1_555
C13_5 C12_5 1_555 1_555
H10_5 C13_5 1_555 1_555
C14_5 N2_5 1_555 1_555
H11_5 C14_5 1_555 1_555
C15_5 C12_5 1_555 1_555
H12_5 C15_5 1_555 1_555
C16_5 C15_5 1_555 1_555
H13_5 C16_5 1_555 1_555
C13_5 C14_5 1_555 1_555
N1_3 C19_5 1_555 1_555
C18_5 C17_5 1_555 1_555
H14_5 C18_5 1_555 1_555
C19_5 C18_5 1_555 1_555
H15_5 C19_5 1_555 1_555
C20_5 N1_3 1_555 1_555
H16_5 C20_5 1_555 1_555
C21_5 C17_5 1_555 1_555
H17_5 C21_5 1_555 1_555
Cu2_2 O3_3 1_555 1_555
Cu3_2 N1_3 1_555 1_555
C20_5 C21_5 1_555 1_555
Cu1_4 O1_6 1_555 1_555
O1_6 C1_6 1_555 1_555
O2_6 C1_6 1_555 1_555
O3_4 C8_6 1_555 1_555
O4_4 C8_6 1_555 1_555
O5_6 Cu1_4 1_555 1_555
H1_6 O5_6 1_555 1_555
H2_6 O5_6 1_555 1_555
C1_6 C2_6 1_555 1_555
C2_6 C3_6 1_555 1_555
C3_6 H3_6 1_555 1_555
C4_6 C3_6 1_555 1_555
C5_6 C4_6 1_555 1_555
C8_6 C4_6 1_555 1_555
Cu3_2 O3_4 1_555 1_555
O6_4 Cu1_4 1_555 1_555
O7_4 Cu1_4 1_555 1_555
N3_4 Cu1_4 1_555 1_555
O4_4 Cu3_2 1_555 1_555
N1_4 C19_6 1_555 1_555
N2_6 C9_6 1_555 1_555
H5_5 C7_5 1_555 1_555
C9_6 C6_6 1_555 1_555
H6_6 C9_6 1_555 1_555
H7_6 C9_6 1_555 1_555
C10_6 N2_6 1_555 1_555
H8_6 C10_6 1_555 1_555
C11_6 C10_6 1_555 1_555
H9_6 C11_6 1_555 1_555
C12_6 C11_6 1_555 1_555
C13_6 C12_6 1_555 1_555
H10_6 C13_6 1_555 1_555
C14_6 N2_6 1_555 1_555
H11_6 C14_6 1_555 1_555
C15_6 C12_6 1_555 1_555
H12_6 C15_6 1_555 1_555
C16_6 C15_6 1_555 1_555
H13_6 C16_6 1_555 1_555
C17_6 C16_6 1_555 1_555
C18_6 C17_6 1_555 1_555
H14_6 C18_6 1_555 1_555
C19_6 C18_6 1_555 1_555
H15_6 C19_6 1_555 1_555
C20_6 N1_4 1_555 1_555
H16_6 C20_6 1_555 1_555
C21_6 C17_6 1_555 1_555
H17_6 C21_6 1_555 1_555
Cu2_2 N1_4 1_555 1_555
C6_6 C7_5 1_555 1_555
C13_6 C14_6 1_555 1_555
C20_6 C21_6 1_555 1_555
N3_4 C19_7 1_555 1_555
C18_7 C17_7 1_555 1_555
H14_7 C18_7 1_555 1_555
C19_7 C18_7 1_555 1_555
H15_7 C19_7 1_555 1_555
C20_7 N3_4 1_555 1_555
H16_7 C20_7 1_555 1_555
C21_7 C17_7 1_555 1_555
H17_7 C21_7 1_555 1_555
C20_7 C21_7 1_555 1_555
Cu2_2 O1_7 1_555 1_555
O1_7 C1_7 1_555 1_555
O2_7 C1_7 1_555 1_555
O7_3 C8_7 1_555 1_555
O5_7 Cu2_2 1_555 1_555
H1_7 O5_7 1_555 1_555
H2_7 O5_7 1_555 1_555
N2_7 C9_7 1_555 1_555
C1_7 C2_7 1_555 1_555
C2_7 C3_7 1_555 1_555
C3_7 H3_7 1_555 1_555
C4_7 C3_7 1_555 1_555
C5_7 C4_7 1_555 1_555
H4_7 C5_7 1_555 1_555
C6_7 C5_7 1_555 1_555
C7_6 C2_7 1_555 1_555
H5_6 C7_6 1_555 1_555
C8_7 C4_7 1_555 1_555
C9_7 C6_7 1_555 1_555
H6_7 C9_7 1_555 1_555
H7_7 C9_7 1_555 1_555
C10_7 N2_7 1_555 1_555
H8_7 C10_7 1_555 1_555
C11_7 C10_7 1_555 1_555
H9_7 C11_7 1_555 1_555
C12_7 C11_7 1_555 1_555
C13_7 C12_7 1_555 1_555
H10_7 C13_7 1_555 1_555
C14_7 N2_7 1_555 1_555
H11_7 C14_7 1_555 1_555
C15_7 C12_7 1_555 1_555
H12_7 C15_7 1_555 1_555
C16_7 C15_7 1_555 1_555
H13_7 C16_7 1_555 1_555
C6_7 C7_6 1_555 1_555
C13_7 C14_7 1_555 1_555
O6_4 C8_8 1_555 1_555
O7_4 C8_8 1_555 1_555
C3_8 H3_8 1_555 1_555
C4_8 C3_8 1_555 1_555
C5_8 C4_8 1_555 1_555
C8_8 C4_8 1_555 1_555
N3_3 C19_8 1_555 1_555
N2_8 C9_8 1_555 1_555
C9_8 C6_8 1_555 1_555
H6_8 C9_8 1_555 1_555
H7_8 C9_8 1_555 1_555
C10_8 N2_8 1_555 1_555
H8_8 C10_8 1_555 1_555
C11_8 C10_8 1_555 1_555
H9_8 C11_8 1_555 1_555
C12_8 C11_8 1_555 1_555
C13_8 C12_8 1_555 1_555
H10_8 C13_8 1_555 1_555
C14_8 N2_8 1_555 1_555
H11_8 C14_8 1_555 1_555
C15_8 C12_8 1_555 1_555
H12_8 C15_8 1_555 1_555
C16_8 C15_8 1_555 1_555
H13_8 C16_8 1_555 1_555
C17_8 C16_8 1_555 1_555
C18_8 C17_8 1_555 1_555
H14_8 C18_8 1_555 1_555
C19_8 C18_8 1_555 1_555
H15_8 C19_8 1_555 1_555
C20_8 N3_3 1_555 1_555
H16_8 C20_8 1_555 1_555
C21_8 C17_8 1_555 1_555
H17_8 C21_8 1_555 1_555
C13_8 C14_8 1_555 1_555
C20_8 C21_8 1_555 1_555
Cu3_2 O1_8 1_555 1_555
O1_8 C1_8 1_555 1_555
O2_8 C1_8 1_555 1_555
O5_8 Cu3_2 1_555 1_555
H1_8 O5_8 1_555 1_555
H2_8 O5_8 1_555 1_555
C1_8 C2_8 1_555 1_555
H5_7 C7_7 1_555 1_555
H5_8 C7_8 1_555 1_555
O8 N4 1_555 1_555
O9 N4 1_555 1_555
O10 N4 1_555 1_555
O8_2 N4_2 1_555 1_555
O9_2 N4_2 1_555 1_555
O10_2 N4_2 1_555 1_555
O9_3 N4_3 1_555 1_555
O10_3 N4_3 1_555 1_555
O9_4 N4_4 1_555 1_555
O10_4 N4_4 1_555 1_555
O8_5 N4_5 1_555 1_555
O9_5 N4_5 1_555 1_555
O10_5 N4_5 1_555 1_555
O8_6 N4_6 1_555 1_555
O9_6 N4_6 1_555 1_555
O10_6 N4_6 1_555 1_555
O9_7 N4_7 1_555 1_555
O10_7 N4_7 1_555 1_555
O9_8 N4_8 1_555 1_555
O10_8 N4_8 1_555 1_555

#END
