
###############################################################################
#
# This file contains modified crystal structure data generated from the
# MOF subset of the Cambridge Structural Database (CSD) v543 
# hosted by the Cambridge Crystallographic Data Centre (CCDC).
#
# This work is licensed under the Creative Commons
# Attribution-NonCommercial-ShareAlike 4.0 International License.
# To view a copy of this license, visit
# http://creativecommons.org/licenses/by-nc-sa/4.0/
# or send a letter to
# Creative Commons, PO Box 1866, Mountain View, CA 94042, USA.
#
# CIF created using the CSD Python API on 29 September 2022
# The structure has been converted into the P1 space group
# The structure has a 3D framework
# The original CSD entry CAVMIW is in the monoclinic crystal system
# The framework has been calculated to contain at least 10.0% void space
# The void calculation uses a probe of radius 1.32A, grid spacing 0.4
#
###############################################################################

data_CAVMIW
_chemical_formula_moiety         '(C24 H36 Cl8 Fe8 N4 O34)n'
_symmetry_cell_setting           triclinic
_symmetry_space_group_name_H-M   'P 1'
_symmetry_Int_Tables_number      1
_space_group_name_Hall           'P 1'
loop_
_symmetry_equiv_pos_site_id
_symmetry_equiv_pos_as_xyz
1 x,y,z
_cell_length_a                   9.2090(5)
_cell_length_b                   14.7120(8)
_cell_length_c                   12.5178(6)
_cell_angle_alpha                90
_cell_angle_beta                 109.01(3)
_cell_angle_gamma                90
_cell_volume                     1603.45
loop_
_atom_site_label
_atom_site_type_symbol
_atom_site_fract_x
_atom_site_fract_y
_atom_site_fract_z
O3 O 0.1577(4) 0.1089(2) 0.3610(3)
O4 O 0.1133(4) 0.2444(2) 0.5684(3)
O5 O 0.3205(4) 0.2130(2) 0.4755(3)
C1 C 0.0757(6) 0.1847(3) 0.4913(4)
C2 C 0.1951(6) 0.1680(3) 0.4380(4)
Fe3 Fe 0.33163(6) 0.29967(4) 0.60783(5)
O13 O 0.0195(4) 0.1393(2) 0.0880(3)
Cl1 Cl 0.00501(16) 0.93755(8) 0.22280(11)
O7 O 0.0195(4) 0.8607(2) 0.5880(3)
O8 O 0.0750(4) 0.9608(2) 0.4776(3)
Fe1 Fe 0.95290(7) 0.04238(4) 0.33270(5)
Fe2 Fe 0.83163(6) 0.20033(4) 0.10783(5)
Cl2 Cl 0.98431(14) 0.30327(8) 0.23520(10)
O1 O 0.8050(4) 0.1130(2) 0.2098(3)
H1 H 0.7005 0.1002 0.2006
O2 O 0.9523(4) 0.1391(2) 0.4533(3)
O10 O 0.6133(4) 0.2556(2) 0.0684(3)
O11 O 0.8205(4) 0.2870(2) 0.9755(3)
O12 O 0.7129(4) 0.1087(2) 0.9741(3)
O6 O 0.7129(4) 0.8913(2) 0.4741(3)
O9 O 0.7666(4) 0.9840(2) 0.3549(3)
C3 C 0.8041(6) 0.9326(3) 0.4390(4)
C4 C 0.9819(6) 0.9175(3) 0.5073(4)
Fe4 Fe 0.83163(6) 0.79967(4) 0.60783(5)
O4_2 O 0.1133(4) 0.7556(2) 0.0684(3)
Fe3_2 Fe 0.33163(6) 0.70033(4) 0.10783(5)
O3_2 O 0.1577(4) 0.8911(2) 0.8610(3)
O5_2 O 0.3205(4) 0.7870(2) 0.9755(3)
C1_2 C 0.0757(6) 0.8153(3) 0.9913(4)
C2_2 C 0.1951(6) 0.8320(3) 0.9380(4)
C4_2 C 0.9819(6) 0.0825(3) 0.0073(4)
O9_2 O 0.7666(4) 0.0160(2) 0.8549(3)
C3_2 C 0.8041(6) 0.0674(3) 0.9390(4)
Fe1_2 Fe 0.95290(7) 0.95762(4) 0.83270(5)
Cl2_2 Cl 0.98431(14) 0.69673(8) 0.73520(10)
O1_2 O 0.8050(4) 0.8870(2) 0.7098(3)
H1_2 H 0.7005 0.8998 0.7006
O2_2 O 0.9523(4) 0.8609(2) 0.9533(3)
O10_2 O 0.6133(4) 0.7444(2) 0.5684(3)
O11_2 O 0.8205(4) 0.7130(2) 0.4755(3)
Fe1_3 Fe 0.45290(7) 0.54238(4) 0.33270(5)
Cl1_2 Cl 0.50501(16) 0.43755(8) 0.22280(11)
Cl2_3 Cl 0.48431(14) 0.80327(8) 0.23520(10)
O1_3 O 0.3050(4) 0.6130(2) 0.2098(3)
H1_3 H 0.2005 0.6002 0.2006
O2_3 O 0.4523(4) 0.6391(2) 0.4533(3)
O3_3 O 0.6577(4) 0.6089(2) 0.3610(3)
O6_2 O 0.2129(4) 0.3913(2) 0.4741(3)
O7_2 O 0.5195(4) 0.3607(2) 0.5880(3)
O8_2 O 0.5750(4) 0.4608(2) 0.4776(3)
O9_3 O 0.2666(4) 0.4840(2) 0.3549(3)
C1_3 C 0.5757(6) 0.6847(3) 0.4913(4)
C2_3 C 0.6951(6) 0.6680(3) 0.4380(4)
C3_3 C 0.3041(6) 0.4326(3) 0.4390(4)
C4_3 C 0.4819(6) 0.4175(3) 0.5073(4)
O13_2 O 0.5195(4) 0.6393(2) 0.0880(3)
O12_2 O 0.2129(4) 0.6087(2) 0.9741(3)
C4_4 C 0.4819(6) 0.5825(3) 0.0073(4)
Fe1_4 Fe 0.45290(7) 0.45762(4) 0.83270(5)
Cl1_3 Cl 0.50501(16) 0.56245(8) 0.72280(11)
Cl2_4 Cl 0.48431(14) 0.19673(8) 0.73520(10)
O1_4 O 0.3050(4) 0.3870(2) 0.7098(3)
H1_4 H 0.2005 0.3998 0.7006
O2_4 O 0.4523(4) 0.3609(2) 0.9533(3)
O3_4 O 0.6577(4) 0.3911(2) 0.8610(3)
O8_3 O 0.5750(4) 0.5392(2) 0.9776(3)
O9_4 O 0.2666(4) 0.5160(2) 0.8549(3)
C1_4 C 0.5757(6) 0.3153(3) 0.9913(4)
C2_4 C 0.6951(6) 0.3320(3) 0.9380(4)
C3_4 C 0.3041(6) 0.5674(3) 0.9390(4)
Cl1_4 Cl 0.00501(16) 0.06245(8) 0.72280(11)
O8_4 O 0.0750(4) 0.0392(2) 0.9776(3)
C5 C 0.4238(6) 0.2096(4) 0.2577(5)
H2 H 0.3498 0.2469 0.2810
H3 H 0.4355 0.2374 0.1889
C6 C 0.5809(7) 0.2100(4) 0.3531(5)
H4 H 0.6181 0.2727 0.3684
H5 H 0.6549 0.1741 0.3297
H6 H 0.5693 0.1836 0.4218
N1 N 0.3614(6) 0.1148(3) 0.2308(4)
H7 H 0.2692 0.1169 0.1745
H8 H 0.3487 0.0895 0.2936
H9 H 0.4284 0.0806 0.2081
C5_2 C 0.4238(6) 0.7904(4) 0.7577(5)
H2_2 H 0.3498 0.7531 0.7810
H3_2 H 0.4355 0.7626 0.6889
C6_2 C 0.5809(7) 0.7900(4) 0.8531(5)
H4_2 H 0.6181 0.7273 0.8684
H5_2 H 0.6549 0.8259 0.8297
H6_2 H 0.5693 0.8164 0.9218
N1_2 N 0.3614(6) 0.8852(3) 0.7308(4)
H7_2 H 0.2692 0.8831 0.6745
H8_2 H 0.3487 0.9105 0.7936
H9_2 H 0.4284 0.9194 0.7081
C6_3 C 0.0809(7) 0.7100(4) 0.3531(5)
H4_3 H 0.1181 0.7727 0.3684
H5_3 H 0.1549 0.6741 0.3297
H6_3 H 0.0693 0.6836 0.4218
C5_3 C 0.9238(6) 0.7096(4) 0.2577(5)
H2_3 H 0.8498 0.7469 0.2810
H3_3 H 0.9355 0.7374 0.1889
N1_3 N 0.8614(6) 0.6148(3) 0.2308(4)
H7_3 H 0.7692 0.6169 0.1745
H8_3 H 0.8487 0.5895 0.2936
H9_3 H 0.9284 0.5806 0.2081
C6_4 C 0.0809(7) 0.2900(4) 0.8531(5)
H4_4 H 0.1181 0.2273 0.8684
H5_4 H 0.1549 0.3259 0.8297
H6_4 H 0.0693 0.3164 0.9218
C5_4 C 0.9238(6) 0.2904(4) 0.7577(5)
H2_4 H 0.8498 0.2531 0.7810
H3_4 H 0.9355 0.2626 0.6889
N1_4 N 0.8614(6) 0.3852(3) 0.7308(4)
H7_4 H 0.7692 0.3831 0.6745
H8_4 H 0.8487 0.4105 0.7936
H9_4 H 0.9284 0.4194 0.7081
loop_
_geom_bond_atom_site_label_1
_geom_bond_atom_site_label_2
_geom_bond_site_symmetry_1
_geom_bond_site_symmetry_2
O4 C1 1_555 1_555
O5 C2 1_555 1_555
C2 O3 1_555 1_555
Fe3 O4 1_555 1_555
O5 Fe3 1_555 1_555
C1 C2 1_555 1_555
Fe2 Cl2 1_555 1_555
O1 Fe1 1_555 1_555
H1 O1 1_555 1_555
O2 Fe1 1_555 1_555
O10 Fe2 1_555 1_555
Fe2 O1 1_555 1_555
O6 C3 1_555 1_555
C3 O9 1_555 1_555
Fe4 O6 1_555 1_555
C3 C4 1_555 1_555
Fe3_2 O4_2 1_555 1_555
O5_2 C2_2 1_555 1_555
C2_2 O3_2 1_555 1_555
C1_2 C2_2 1_555 1_555
O12 C3_2 1_555 1_555
C3_2 O9_2 1_555 1_555
Fe4 Cl2_2 1_555 1_555
O1_2 Fe1_2 1_555 1_555
H1_2 O1_2 1_555 1_555
O2_2 Fe1_2 1_555 1_555
O10_2 Fe4 1_555 1_555
O11_2 Fe4 1_555 1_555
Fe4 O1_2 1_555 1_555
Fe1_3 Cl1_2 1_555 1_555
Fe3_2 Cl2_3 1_555 1_555
O1_3 Fe1_3 1_555 1_555
H1_3 O1_3 1_555 1_555
O2_3 Fe1_3 1_555 1_555
O3_3 Fe1_3 1_555 1_555
O10_2 C1_3 1_555 1_555
O11_2 C2_3 1_555 1_555
O6_2 C3_3 1_555 1_555
O7_2 C4_3 1_555 1_555
O8_2 Fe1_3 1_555 1_555
O9_3 Fe1_3 1_555 1_555
C1_3 O2_3 1_555 1_555
C2_3 O3_3 1_555 1_555
C3_3 O9_3 1_555 1_555
C4_3 O8_2 1_555 1_555
Fe3 O6_2 1_555 1_555
O13_2 Fe3_2 1_555 1_555
Fe3_2 O1_3 1_555 1_555
O7_2 Fe3 1_555 1_555
C1_3 C2_3 1_555 1_555
C3_3 C4_3 1_555 1_555
O13_2 C4_4 1_555 1_555
Fe1_4 Cl1_3 1_555 1_555
Fe3 Cl2_4 1_555 1_555
O1_4 Fe1_4 1_555 1_555
H1_4 O1_4 1_555 1_555
O2_4 Fe1_4 1_555 1_555
O3_4 Fe1_4 1_555 1_555
O11 C2_4 1_555 1_555
O12_2 C3_4 1_555 1_555
O8_3 Fe1_4 1_555 1_555
O9_4 Fe1_4 1_555 1_555
C1_4 O2_4 1_555 1_555
C2_4 O3_4 1_555 1_555
C3_4 O9_4 1_555 1_555
Fe3 O1_4 1_555 1_555
C1_4 C2_4 1_555 1_555
C5 H2 1_555 1_555
H3 C5 1_555 1_555
C6 C5 1_555 1_555
H4 C6 1_555 1_555
H5 C6 1_555 1_555
H6 C6 1_555 1_555
N1 C5 1_555 1_555
H7 N1 1_555 1_555
H8 N1 1_555 1_555
H9 N1 1_555 1_555
C5_2 H2_2 1_555 1_555
H3_2 C5_2 1_555 1_555
C6_2 C5_2 1_555 1_555
H4_2 C6_2 1_555 1_555
H5_2 C6_2 1_555 1_555
H6_2 C6_2 1_555 1_555
N1_2 C5_2 1_555 1_555
H7_2 N1_2 1_555 1_555
H8_2 N1_2 1_555 1_555
H9_2 N1_2 1_555 1_555
H4_3 C6_3 1_555 1_555
H5_3 C6_3 1_555 1_555
H6_3 C6_3 1_555 1_555
C5_3 H2_3 1_555 1_555
H3_3 C5_3 1_555 1_555
N1_3 C5_3 1_555 1_555
H7_3 N1_3 1_555 1_555
H8_3 N1_3 1_555 1_555
H9_3 N1_3 1_555 1_555
H4_4 C6_4 1_555 1_555
H5_4 C6_4 1_555 1_555
H6_4 C6_4 1_555 1_555
C5_4 H2_4 1_555 1_555
H3_4 C5_4 1_555 1_555
N1_4 C5_4 1_555 1_555
H7_4 N1_4 1_555 1_555
H8_4 N1_4 1_555 1_555
H9_4 N1_4 1_555 1_555

#END
