
###############################################################################
#
# This file contains modified crystal structure data generated from the
# MOF subset of the Cambridge Structural Database (CSD) v543 
# hosted by the Cambridge Crystallographic Data Centre (CCDC).
#
# This work is licensed under the Creative Commons
# Attribution-NonCommercial-ShareAlike 4.0 International License.
# To view a copy of this license, visit
# http://creativecommons.org/licenses/by-nc-sa/4.0/
# or send a letter to
# Creative Commons, PO Box 1866, Mountain View, CA 94042, USA.
#
# CIF created using the CSD Python API on 29 September 2022
# The structure has been converted into the P1 space group
# The structure has a 3D framework
# The original CSD entry CAVMOD is in the monoclinic crystal system
# The framework has been calculated to contain at least 10.0% void space
# The void calculation uses a probe of radius 1.32A, grid spacing 0.4
# H atom positions have been added when not included in the experimental data
#
###############################################################################

data_CAVMOD
_chemical_formula_moiety         '(C296 H300 N28 O60 Zn16)n'
_symmetry_cell_setting           triclinic
_symmetry_space_group_name_H-M   'P 1'
_symmetry_Int_Tables_number      1
_space_group_name_Hall           'P 1'
loop_
_symmetry_equiv_pos_site_id
_symmetry_equiv_pos_as_xyz
1 x,y,z
_cell_length_a                   23.0013(6)
_cell_length_b                   14.0578(4)
_cell_length_c                   31.2380(8)
_cell_angle_alpha                90
_cell_angle_beta                 90.881(2)
_cell_angle_gamma                90
_cell_volume                     10099.5
loop_
_atom_site_label
_atom_site_type_symbol
_atom_site_fract_x
_atom_site_fract_y
_atom_site_fract_z
H23 H 0.0320 0.0300 0.4071
C29 C 0.0490(9) 0.0654(9) 0.3271(6)
H26 H 0.0320 0.1180 0.3420
H27 H 0.0372 0.0673 0.2976
H28 H 0.0906 0.0695 0.3293
C47 C 0.0085(4) 0.0815(4) 0.9025(2)
H44 H 0.0278 0.0950 0.9282
C53 C 0.1335(3) 0.7097(4) 0.02592(19)
H46 H 0.1524 0.6658 0.0436
C54 C 0.1259(3) 0.8028(4) 0.03974(17)
C55 C 0.0976(3) 0.8683(3) 0.0134(2)
H47 H 0.0925 0.9306 0.0226
C59 C 0.1593(7) 0.5194(9) 0.0040(4)
H55 H 0.1369 0.5153 0.0296
H56 H 0.1959 0.5493 0.0104
C60 C 0.1513(5) 0.8328(9) 0.0824(4)
O11 O 0.1721(3) 0.7732(5) 0.1072(2)
O12 O 0.1515(4) 0.9231(6) 0.0897(2)
Zn6 Zn 0.23208(6) 0.79873(9) 0.15743(4)
Zn4 Zn 0.03087(7) 0.78750(10) 0.87314(4)
C15 C 0.0190(4) 0.2981(3) 0.3960(2)
H14 H 0.0169 0.2351 0.4049
C16 C 0.0489(4) 0.3213(4) 0.3591(2)
H15 H 0.0667 0.2737 0.3433
C17 C 0.0522(3) 0.4155(5) 0.3459(2)
H16 H 0.0722 0.4310 0.3212
C18 C 0.0256(3) 0.4865(3) 0.3695(2)
C19 C 0.0621(5) 0.6152(8) 0.3291(3)
H17 H 0.0847 0.5706 0.3150
C20 C 0.0688(3) 0.7153(3) 0.3166(2)
C21 C 0.0431(3) 0.7920(4) 0.33706(18)
C22 C 0.0551(3) 0.8843(3) 0.3238(2)
C23 C 0.0926(3) 0.8997(3) 0.2900(2)
H18 H 0.1006 0.9614 0.2812
C24 C 0.1183(3) 0.8229(4) 0.26959(17)
C25 C 0.1063(3) 0.7307(3) 0.28288(19)
H19 H 0.1235 0.6793 0.2692
C26 C 0.0290(6) 0.9735(8) 0.3469(4)
C28 C 0.0483(8) 0.9753(11) 0.3933(4)
H24 H 0.0900 0.9787 0.3951
H25 H 0.0353 0.9186 0.4073
C30 C 0.1577(4) 0.8448(8) 0.2328(3)
C39 C 0.0221(7) 0.4784(13) 0.8349(5)
H31 H 0.0363 0.4256 0.8515
H32 H 0.0384 0.5364 0.8461
H33 H 0.0333 0.4708 0.8056
C48 C 0.0037(3) 0.9880(4) 0.8885(2)
C49 C 0.0482(6) 0.9161(9) 0.9491(4)
H45 H 0.0433 0.9744 0.9627
C50 C 0.0770(3) 0.8407(4) 0.97320(19)
C51 C 0.0847(3) 0.7476(4) 0.95937(17)
C52 C 0.1129(3) 0.6821(3) 0.9857(2)
C56 C 0.1261(6) 0.5782(8) 0.9705(4)
C57 C 0.1620(7) 0.5778(10) 0.9303(4)
H48 H 0.1691 0.5134 0.9217
H49 H 0.1984 0.6091 0.9360
H50 H 0.1414 0.6108 0.9079
C58 C 0.0671(6) 0.5277(10) 0.9616(5)
H51 H 0.0741 0.4638 0.9521
H52 H 0.0458 0.5618 0.9398
H53 H 0.0450 0.5262 0.9874
H54 H 0.1660 0.4566 0.9930
N4 N 0.0275(4) 0.5838(6) 0.3580(3)
N6 N 0.0288(4) 0.9082(6) 0.9101(3)
O4 O 0.0058(4) 0.7800(5) 0.3684(3)
O5 O 0.1690(3) 0.9317(5) 0.2268(2)
O6 O 0.1773(3) 0.7778(5) 0.2098(2)
O10 O 0.0668(4) 0.7189(5) 0.9216(3)
O15 O 0.1015(5) 0.7974(8) 0.8348(3)
C71 C 0.1845(18) 0.931(2) 0.8553(12)
H65 H 0.1613 0.9678 0.8744
H66 H 0.1933 0.9680 0.8304
H67 H 0.2201 0.9125 0.8695
C72 C 0.1494(10) 0.837(3) 0.8410(12)
C73 C 0.2300(14) 0.855(2) 0.7896(9)
H68 H 0.2557 0.8211 0.7711
H69 H 0.2523 0.8879 0.8112
H70 H 0.2079 0.9005 0.7730
C74 C 0.1864(17) 0.6867(19) 0.8059(12)
H71 H 0.2155 0.6653 0.7864
H72 H 0.1486 0.6694 0.7950
H73 H 0.1927 0.6575 0.8333
N7 N 0.1898(10) 0.7872(18) 0.8102(7)
Zn2 Zn 0.78582(6) 0.49440(9) 0.65038(4)
H20 H 0.9489 0.0264 0.3573
C44 C 0.9509(4) 0.0413(4) 0.82578(19)
H41 H 0.9316 0.0279 0.8001
C45 C 0.9557(4) 0.1348(4) 0.8399(2)
H42 H 0.9396 0.1839 0.8236
C46 C 0.9845(4) 0.1549(3) 0.8782(3)
H43 H 0.9877 0.2175 0.8877
C61 C 0.7478(3) 0.3056(4) 0.68191(18)
H57 H 0.7298 0.3418 0.7028
C62 C 0.7431(3) 0.2071(4) 0.68250(19)
H58 H 0.7220 0.1773 0.7038
C63 C 0.7699(3) 0.1530(3) 0.6512(2)
C64 C 0.8015(3) 0.1975(4) 0.61934(19)
H59 H 0.8194 0.1614 0.5984
C65 C 0.8062(3) 0.2961(4) 0.61875(18)
H60 H 0.8273 0.3259 0.5974
N1 N 0.7794(3) 0.3502(3) 0.65003(19)
C66 C 0.7635(3) 0.0447(3) 0.65199(19)
H61 H 0.7605 0.0335 0.7165
H64 H 0.7642 0.0235 0.5880
O16 O 0.8249(3) 0.5235(5) 0.5982(2)
O18 O 0.8260(3) 0.5270(5) 0.7041(2)
O20 O 0.7104(3) 0.5541(4) 0.6538(2)
Zn1 Zn 0.73208(6) 0.70127(9) 0.65743(4)
Zn3 Zn 0.96958(7) 0.66602(10) 0.39157(5)
C1 C 0.8232(5) 0.6106(9) 0.5868(3)
C2 C 0.8545(3) 0.6413(4) 0.54762(19)
C3 C 0.8527(3) 0.7363(4) 0.5354(2)
H1 H 0.8318 0.7799 0.5514
C4 C 0.8822(4) 0.7661(3) 0.4993(2)
C5 C 0.9136(3) 0.7009(4) 0.4754(2)
C6 C 0.9154(3) 0.6059(4) 0.4877(2)
C7 C 0.8858(3) 0.5760(3) 0.5238(2)
H2 H 0.8871 0.5125 0.5319
C8 C 0.8802(6) 0.8742(8) 0.4858(4)
C9 C 0.8543(7) 0.8860(10) 0.4417(4)
H3 H 0.8767 0.8505 0.4216
H4 H 0.8545 0.9521 0.4340
H5 H 0.8150 0.8630 0.4414
C10 C 0.8405(6) 0.9329(9) 0.5163(4)
H6 H 0.8403 0.9984 0.5076
H7 H 0.8551 0.9280 0.5451
H8 H 0.8016 0.9082 0.5148
C11 C 0.9409(6) 0.9164(9) 0.4886(5)
H9 H 0.9664 0.8811 0.4705
H10 H 0.9550 0.9132 0.5177
H11 H 0.9397 0.9816 0.4795
C12 C 0.9455(6) 0.5312(9) 0.4647(4)
H12 H 0.9474 0.4717 0.4777
C13 C 0.9957(3) 0.4634(4) 0.4064(2)
C14 C 0.9924(4) 0.3692(5) 0.4197(2)
H13 H 0.9724 0.3537 0.4444
C27 C 0.9646(7) 0.9717(11) 0.3432(5)
H21 H 0.9501 0.9149 0.3563
H22 H 0.9532 0.9727 0.3135
C31 C 0.8300(4) 0.6149(8) 0.7169(3)
C32 C 0.8721(3) 0.6314(4) 0.75351(18)
C33 C 0.8874(3) 0.7238(3) 0.76488(19)
H29 H 0.8717 0.7750 0.7498
C34 C 0.9260(3) 0.7395(3) 0.7988(2)
C35 C 0.9494(3) 0.6629(4) 0.82128(19)
C36 C 0.9341(3) 0.5706(4) 0.8099(2)
C37 C 0.8954(3) 0.5548(3) 0.7760(2)
H30 H 0.8852 0.4930 0.7684
C38 C 0.9548(7) 0.4827(8) 0.8373(5)
C40 C 0.9353(9) 0.4936(12) 0.8835(5)
H34 H 0.9481 0.4396 0.8999
H35 H 0.8937 0.4976 0.8841
H36 H 0.9519 0.5505 0.8955
C41 C 0.9308(10) 0.3885(9) 0.8187(6)
H37 H 0.9439 0.3363 0.8362
H38 H 0.9445 0.3802 0.7901
H39 H 0.8891 0.3903 0.8183
C42 C 0.9341(5) 0.8399(8) 0.8102(3)
H40 H 0.9108 0.8844 0.7962
C43 C 0.9749(4) 0.9679(3) 0.8501(2)
N2 N 0.9701(4) 0.5399(7) 0.4279(3)
C67 C 0.7590(3) 0.9986(4) 0.69116(15)
C68 C 0.7523(3) 0.9004(4) 0.69254(13)
H62 H 0.7493 0.8696 0.7188
N3 N 0.7501(3) 0.8483(3) 0.65474(17)
C69 C 0.7545(3) 0.8944(4) 0.61556(13)
H63 H 0.7530 0.8595 0.5903
C70 C 0.7612(3) 0.9926(4) 0.61418(14)
N5 N 0.9717(4) 0.8713(6) 0.8385(3)
O2 O 0.7954(3) 0.6755(5) 0.6072(2)
O3 O 0.9446(4) 0.7327(6) 0.4424(3)
O8 O 0.8012(3) 0.6825(5) 0.7019(2)
O9 O 0.9882(4) 0.6751(5) 0.8526(3)
O14 O 0.8945(4) 0.6540(7) 0.3555(3)
O17 O 0.6773(3) 0.7222(5) 0.7098(2)
O19 O 0.6721(3) 0.7268(5) 0.6072(2)
H74 H 0.860666 0.649288 0.374751
H75 H 0.890036 0.71088 0.33689
H30_2 H 0.3852 0.0070 0.2684
C38_2 C 0.4548(7) 0.0173(8) 0.3373(5)
C39_2 C 0.5221(7) 0.0216(13) 0.3349(5)
H31_2 H 0.5363 0.0744 0.3515
H33_2 H 0.5333 0.0292 0.3056
C40_2 C 0.4353(9) 0.0064(12) 0.3835(5)
H34_2 H 0.4481 0.0604 0.3999
H35_2 H 0.3937 0.0024 0.3841
C41_2 C 0.4308(10) 0.1115(9) 0.3187(6)
H37_2 H 0.4439 0.1637 0.3362
H38_2 H 0.4445 0.1198 0.2901
H39_2 H 0.3891 0.1097 0.3183
H51_2 H 0.5741 0.0362 0.4521
H54_2 H 0.6660 0.0434 0.4930
Zn7 Zn 0.28582(6) 0.00560(9) 0.15038(4)
Zn4_2 Zn 0.53087(7) 0.71250(10) 0.37314(4)
C1_2 C 0.3232(5) 0.8894(9) 0.0868(3)
C2_2 C 0.3545(3) 0.8587(4) 0.04762(19)
C3_2 C 0.3527(3) 0.7637(4) 0.0354(2)
H1_2 H 0.3318 0.7201 0.0514
C7_2 C 0.3858(3) 0.9240(3) 0.0238(2)
H2_2 H 0.3871 0.9875 0.0319
C10_2 C 0.3405(6) 0.5671(9) 0.0163(4)
H6_2 H 0.3403 0.5016 0.0076
H7_2 H 0.3551 0.5720 0.0451
H8_2 H 0.3016 0.5918 0.0148
H10_2 H 0.4550 0.5868 0.0177
C31_2 C 0.3300(4) 0.8851(8) 0.2169(3)
C32_2 C 0.3721(3) 0.8686(4) 0.25351(18)
C33_2 C 0.3874(3) 0.7762(3) 0.26488(19)
H29_2 H 0.3717 0.7250 0.2498
C34_2 C 0.4260(3) 0.7605(3) 0.2988(2)
C35_2 C 0.4494(3) 0.8371(4) 0.32128(19)
C36_2 C 0.4341(3) 0.9294(4) 0.3099(2)
C37_2 C 0.3954(3) 0.9452(3) 0.2760(2)
H32_2 H 0.5384 0.9636 0.3461
H36_2 H 0.4519 0.9495 0.3955
C42_2 C 0.4341(5) 0.6601(8) 0.3102(3)
H40_2 H 0.4108 0.6156 0.2962
C43_2 C 0.4749(4) 0.5321(3) 0.3501(2)
C44_2 C 0.4509(4) 0.4587(4) 0.32578(19)
H41_2 H 0.4316 0.4721 0.3001
C45_2 C 0.4557(4) 0.3652(4) 0.3399(2)
H42_2 H 0.4396 0.3161 0.3236
C46_2 C 0.4845(4) 0.3451(3) 0.3782(3)
H43_2 H 0.4877 0.2825 0.3877
C47_2 C 0.5085(4) 0.4185(4) 0.4025(2)
H44_2 H 0.5278 0.4050 0.4282
C48_2 C 0.5037(3) 0.5120(4) 0.3885(2)
C49_2 C 0.5482(6) 0.5839(9) 0.4491(4)
H45_2 H 0.5433 0.5256 0.4627
C50_2 C 0.5770(3) 0.6593(4) 0.47320(19)
C51_2 C 0.5847(3) 0.7524(4) 0.45937(17)
C52_2 C 0.6129(3) 0.8179(3) 0.4857(2)
C53_2 C 0.6335(3) 0.7903(4) 0.52592(19)
H46_2 H 0.6524 0.8342 0.5436
C54_2 C 0.6259(3) 0.6972(4) 0.53974(17)
C55_2 C 0.5976(3) 0.6317(3) 0.5134(2)
H47_2 H 0.5925 0.5694 0.5226
C56_2 C 0.6261(6) 0.9218(8) 0.4705(4)
C57_2 C 0.6620(7) 0.9222(10) 0.4303(4)
H48_2 H 0.6691 0.9866 0.4217
H49_2 H 0.6984 0.8909 0.4360
H50_2 H 0.6414 0.8892 0.4079
C58_2 C 0.5671(6) 0.9723(10) 0.4616(5)
H52_2 H 0.5458 0.9382 0.4398
H53_2 H 0.5450 0.9738 0.4874
C59_2 C 0.6593(7) 0.9806(9) 0.5040(4)
H55_2 H 0.6369 0.9847 0.5296
H56_2 H 0.6959 0.9507 0.5104
C60_2 C 0.6513(5) 0.6672(9) 0.5824(4)
C61_2 C 0.2478(3) 0.1944(4) 0.18191(18)
H57_2 H 0.2298 0.1582 0.2028
C62_2 C 0.2431(3) 0.2929(4) 0.18250(19)
H58_2 H 0.2220 0.3227 0.2038
C63_2 C 0.2699(3) 0.3470(3) 0.1512(2)
C64_2 C 0.3015(3) 0.3025(4) 0.11934(19)
H59_2 H 0.3194 0.3386 0.0984
C65_2 C 0.3062(3) 0.2039(4) 0.11875(18)
H60_2 H 0.3273 0.1741 0.0974
N1_2 N 0.2794(3) 0.1498(3) 0.15003(19)
C66_2 C 0.2635(3) 0.4553(3) 0.15199(19)
C67_2 C 0.2590(3) 0.5014(4) 0.19116(15)
H61_2 H 0.2605 0.4665 0.2165
C68_2 C 0.2523(3) 0.5996(4) 0.19254(13)
H62_2 H 0.2493 0.6304 0.2188
N3_2 N 0.2501(3) 0.6517(3) 0.15474(17)
C69_2 C 0.2545(3) 0.6056(4) 0.11556(13)
H63_2 H 0.2530 0.6405 0.0903
C70_2 C 0.2612(3) 0.5074(4) 0.11418(14)
H64_2 H 0.2642 0.4765 0.0880
N5_2 N 0.4717(4) 0.6287(6) 0.3385(3)
N6_2 N 0.5288(4) 0.5918(6) 0.4101(3)
O1 O 0.3249(3) 0.9765(5) 0.0982(2)
O2_2 O 0.2954(3) 0.8245(5) 0.1072(2)
O7 O 0.3260(3) 0.9730(5) 0.2041(2)
O8_2 O 0.3012(3) 0.8175(5) 0.2019(2)
O9_2 O 0.4882(4) 0.8249(5) 0.3526(3)
O10_2 O 0.5668(4) 0.7811(5) 0.4216(3)
O12_2 O 0.6515(4) 0.5769(6) 0.5897(2)
O13 O 0.2104(3) 0.9459(4) 0.1538(2)
O15_2 O 0.6015(5) 0.7026(8) 0.3348(3)
C71_2 C 0.6845(18) 0.569(2) 0.3553(12)
H65_2 H 0.6613 0.5322 0.3744
H66_2 H 0.6933 0.5320 0.3304
H67_2 H 0.7201 0.5875 0.3695
C72_2 C 0.6494(10) 0.663(3) 0.3410(12)
C73_2 C 0.7300(14) 0.645(2) 0.2896(9)
H68_2 H 0.7557 0.6789 0.2711
H69_2 H 0.7523 0.6121 0.3112
H70_2 H 0.7079 0.5995 0.2730
C74_2 C 0.6864(17) 0.8133(19) 0.3059(12)
H71_2 H 0.7155 0.8347 0.2864
H72_2 H 0.6486 0.8306 0.2950
H73_2 H 0.6927 0.8425 0.3333
N7_2 N 0.6898(10) 0.7128(18) 0.3102(7)
Zn3_2 Zn 0.46958(7) 0.83398(10) 0.89157(5)
C4_2 C 0.3822(4) 0.7339(3) 0.9993(2)
C5_2 C 0.4136(3) 0.7991(4) 0.9754(2)
C6_2 C 0.4154(3) 0.8941(4) 0.9877(2)
C8_2 C 0.3802(6) 0.6258(8) 0.9858(4)
C9_2 C 0.3543(7) 0.6140(10) 0.9417(4)
H3_2 H 0.3767 0.6495 0.9216
H4_2 H 0.3545 0.5479 0.9340
H5_2 H 0.3150 0.6370 0.9414
C11_2 C 0.4409(6) 0.5836(9) 0.9886(5)
H9_2 H 0.4664 0.6189 0.9705
H11_2 H 0.4397 0.5184 0.9795
C12_2 C 0.4455(6) 0.9688(9) 0.9647(4)
C19_2 C 0.5621(5) 0.8848(8) 0.8291(3)
H17_2 H 0.5847 0.9294 0.8150
C20_2 C 0.5688(3) 0.7847(3) 0.8166(2)
C21_2 C 0.5431(3) 0.7080(4) 0.83706(18)
C22_2 C 0.5551(3) 0.6157(3) 0.8238(2)
C23_2 C 0.5926(3) 0.6003(3) 0.7900(2)
H18_2 H 0.6006 0.5386 0.7812
C24_2 C 0.6183(3) 0.6771(4) 0.76959(17)
C25_2 C 0.6063(3) 0.7693(3) 0.78288(19)
H19_2 H 0.6235 0.8207 0.7692
C26_2 C 0.5290(6) 0.5265(8) 0.8469(4)
C27_2 C 0.4646(7) 0.5283(11) 0.8432(5)
H20_2 H 0.4489 0.4736 0.8573
H21_2 H 0.4501 0.5851 0.8563
H22_2 H 0.4532 0.5273 0.8135
C28_2 C 0.5483(8) 0.5247(11) 0.8933(4)
H23_2 H 0.5320 0.4700 0.9071
H24_2 H 0.5900 0.5213 0.8951
H25_2 H 0.5353 0.5814 0.9073
C29_2 C 0.5490(9) 0.4346(9) 0.8271(6)
H26_2 H 0.5320 0.3820 0.8420
H27_2 H 0.5372 0.4327 0.7976
H28_2 H 0.5906 0.4305 0.8293
C30_2 C 0.6577(4) 0.6552(8) 0.7328(3)
N2_2 N 0.4701(4) 0.9601(7) 0.9279(3)
N4_2 N 0.5275(4) 0.9162(6) 0.8580(3)
O3_2 O 0.4446(4) 0.7673(6) 0.9424(3)
O4_2 O 0.5058(4) 0.7200(5) 0.8684(3)
O5_2 O 0.6690(3) 0.5683(5) 0.7268(2)
O14_2 O 0.3945(4) 0.8460(7) 0.8555(3)
H74_2 H 0.360666 0.850712 0.874751
H75_2 H 0.390036 0.78912 0.83689
O16_2 O 0.6751(3) 0.0235(5) 0.9018(2)
O18_2 O 0.6740(3) 0.0270(5) 0.7959(2)
O20_2 O 0.7896(3) 0.0541(4) 0.8462(2)
Zn3_3 Zn 0.53042(7) 0.16602(10) 0.10843(5)
C4_3 C 0.6178(4) 0.2661(3) 0.0007(2)
C5_3 C 0.5864(3) 0.2009(4) 0.0246(2)
C6_3 C 0.5846(3) 0.1059(4) 0.0123(2)
C8_3 C 0.6198(6) 0.3742(8) 0.0142(4)
C9_3 C 0.6457(7) 0.3860(10) 0.0583(4)
H3_3 H 0.6233 0.3505 0.0784
H4_3 H 0.6455 0.4521 0.0660
H5_3 H 0.6850 0.3630 0.0586
C11_3 C 0.5591(6) 0.4164(9) 0.0114(5)
H9_3 H 0.5336 0.3811 0.0295
H11_3 H 0.5603 0.4816 0.0205
C12_3 C 0.5545(6) 0.0312(9) 0.0353(4)
C19_3 C 0.4379(5) 0.1152(8) 0.1709(3)
H17_3 H 0.4153 0.0706 0.1850
C20_3 C 0.4312(3) 0.2153(3) 0.1834(2)
C21_3 C 0.4569(3) 0.2920(4) 0.16294(18)
C22_3 C 0.4449(3) 0.3843(3) 0.1762(2)
C23_3 C 0.4074(3) 0.3997(3) 0.2100(2)
H18_3 H 0.3994 0.4614 0.2188
C24_3 C 0.3817(3) 0.3229(4) 0.23041(17)
C25_3 C 0.3937(3) 0.2307(3) 0.21712(19)
H19_3 H 0.3765 0.1793 0.2308
C26_3 C 0.4710(6) 0.4735(8) 0.1531(4)
C27_3 C 0.5354(7) 0.4717(11) 0.1568(5)
H20_3 H 0.5511 0.5264 0.1427
H21_3 H 0.5499 0.4149 0.1437
H22_3 H 0.5468 0.4727 0.1865
C28_3 C 0.4517(8) 0.4753(11) 0.1067(4)
H23_3 H 0.4680 0.5300 0.0929
H24_3 H 0.4100 0.4787 0.1049
H25_3 H 0.4647 0.4186 0.0927
C29_3 C 0.4510(9) 0.5654(9) 0.1729(6)
H26_3 H 0.4680 0.6180 0.1580
H27_3 H 0.4628 0.5673 0.2024
H28_3 H 0.4094 0.5695 0.1707
C30_3 C 0.3423(4) 0.3448(8) 0.2672(3)
N2_3 N 0.5299(4) 0.0399(7) 0.0721(3)
N4_3 N 0.4725(4) 0.0838(6) 0.1420(3)
O3_3 O 0.5554(4) 0.2327(6) 0.0576(3)
O4_3 O 0.4942(4) 0.2800(5) 0.1316(3)
O5_3 O 0.3310(3) 0.4317(5) 0.2732(2)
O6_2 O 0.3227(3) 0.2778(5) 0.2902(2)
O14_3 O 0.6055(4) 0.1540(7) 0.1445(3)
Zn5 Zn 0.26792(6) 0.29873(9) 0.34257(4)
H74_3 H 0.639334 0.149288 0.125249
H75_3 H 0.609964 0.21088 0.16311
Zn1_2 Zn 0.76792(6) 0.20127(9) 0.84257(4)
Zn2_2 Zn 0.71418(6) 0.99440(9) 0.84962(4)
Zn4_3 Zn 0.46913(7) 0.28750(10) 0.62686(4)
C1_3 C 0.6768(5) 0.1106(9) 0.9132(3)
C2_3 C 0.6455(3) 0.1413(4) 0.95238(19)
C3_3 C 0.6473(3) 0.2363(4) 0.9646(2)
H1_3 H 0.6682 0.2799 0.9486
C7_3 C 0.6142(3) 0.0760(3) 0.9762(2)
H2_3 H 0.6129 0.0125 0.9681
C10_3 C 0.6595(6) 0.4329(9) 0.9837(4)
H6_3 H 0.6597 0.4984 0.9924
H7_3 H 0.6449 0.4280 0.9549
H8_3 H 0.6984 0.4082 0.9852
H10_3 H 0.5450 0.4132 0.9823
C31_3 C 0.6700(4) 0.1149(8) 0.7831(3)
C32_3 C 0.6279(3) 0.1314(4) 0.74649(18)
C33_3 C 0.6126(3) 0.2238(3) 0.73512(19)
H29_3 H 0.6283 0.2750 0.7502
C34_3 C 0.5740(3) 0.2395(3) 0.7012(2)
C35_3 C 0.5506(3) 0.1629(4) 0.67872(19)
C36_3 C 0.5659(3) 0.0706(4) 0.6901(2)
C37_3 C 0.6046(3) 0.0548(3) 0.7240(2)
H32_3 H 0.4616 0.0364 0.6539
H36_3 H 0.5481 0.0505 0.6045
C42_3 C 0.5659(5) 0.3399(8) 0.6898(3)
H40_3 H 0.5892 0.3844 0.7038
C43_3 C 0.5251(4) 0.4679(3) 0.6499(2)
C44_3 C 0.5491(4) 0.5413(4) 0.67422(19)
H41_3 H 0.5684 0.5279 0.6999
C45_3 C 0.5443(4) 0.6348(4) 0.6601(2)
H42_3 H 0.5604 0.6839 0.6764
C46_3 C 0.5155(4) 0.6549(3) 0.6218(3)
H43_3 H 0.5123 0.7175 0.6123
C47_3 C 0.4915(4) 0.5815(4) 0.5975(2)
H44_3 H 0.4722 0.5950 0.5718
C48_3 C 0.4963(3) 0.4880(4) 0.6115(2)
C49_3 C 0.4518(6) 0.4161(9) 0.5509(4)
H45_3 H 0.4567 0.4744 0.5373
C50_3 C 0.4230(3) 0.3407(4) 0.52680(19)
C51_3 C 0.4153(3) 0.2476(4) 0.54063(17)
C52_3 C 0.3871(3) 0.1821(3) 0.5143(2)
C53_3 C 0.3665(3) 0.2097(4) 0.47408(19)
H46_3 H 0.3476 0.1658 0.4564
C54_3 C 0.3741(3) 0.3028(4) 0.46026(17)
C55_3 C 0.4024(3) 0.3683(3) 0.4866(2)
H47_3 H 0.4075 0.4306 0.4774
C56_3 C 0.3739(6) 0.0782(8) 0.5295(4)
C57_3 C 0.3380(7) 0.0778(10) 0.5697(4)
H48_3 H 0.3309 0.0134 0.5783
H49_3 H 0.3016 0.1091 0.5640
H50_3 H 0.3586 0.1108 0.5921
C58_3 C 0.4329(6) 0.0277(10) 0.5384(5)
H52_3 H 0.4542 0.0618 0.5602
H53_3 H 0.4550 0.0262 0.5126
C59_3 C 0.3407(7) 0.0194(9) 0.4960(4)
H55_3 H 0.3631 0.0153 0.4704
H56_3 H 0.3041 0.0493 0.4896
C60_3 C 0.3487(5) 0.3328(9) 0.4176(4)
C61_3 C 0.7522(3) 0.8056(4) 0.81809(18)
H57_3 H 0.7702 0.8418 0.7972
C62_3 C 0.7569(3) 0.7071(4) 0.81750(19)
H58_3 H 0.7780 0.6773 0.7962
C63_3 C 0.7301(3) 0.6530(3) 0.8488(2)
C64_3 C 0.6985(3) 0.6975(4) 0.88066(19)
H59_3 H 0.6806 0.6614 0.9016
C65_3 C 0.6938(3) 0.7961(4) 0.88125(18)
H60_3 H 0.6727 0.8259 0.9026
N1_3 N 0.7206(3) 0.8502(3) 0.84997(19)
C66_3 C 0.7365(3) 0.5447(3) 0.84801(19)
C67_3 C 0.7410(3) 0.4986(4) 0.80884(15)
H61_3 H 0.7395 0.5335 0.7835
C68_3 C 0.7477(3) 0.4004(4) 0.80746(13)
H62_3 H 0.7507 0.3696 0.7812
N3_3 N 0.7499(3) 0.3483(3) 0.84526(17)
C69_3 C 0.7455(3) 0.3944(4) 0.88444(13)
H63_3 H 0.7470 0.3595 0.9097
C70_3 C 0.7388(3) 0.4926(4) 0.88582(14)
H64_3 H 0.7358 0.5235 0.9120
N5_3 N 0.5283(4) 0.3713(6) 0.6615(3)
N6_3 N 0.4712(4) 0.4082(6) 0.5899(3)
O2_3 O 0.7046(3) 0.1755(5) 0.8928(2)
O8_3 O 0.6988(3) 0.1825(5) 0.7981(2)
O9_3 O 0.5118(4) 0.1751(5) 0.6474(3)
O10_3 O 0.4332(4) 0.2189(5) 0.5784(3)
O11_2 O 0.3279(3) 0.2732(5) 0.3928(2)
O12_3 O 0.3485(4) 0.4231(6) 0.4103(2)
O15_3 O 0.3985(5) 0.2974(8) 0.6652(3)
C71_3 C 0.3155(18) 0.431(2) 0.6447(12)
H65_3 H 0.3387 0.4678 0.6256
H66_3 H 0.3067 0.4680 0.6696
H67_3 H 0.2799 0.4125 0.6305
C72_3 C 0.3506(10) 0.337(3) 0.6590(12)
C73_3 C 0.2700(14) 0.355(2) 0.7104(9)
H68_3 H 0.2443 0.3211 0.7289
H69_3 H 0.2477 0.3879 0.6888
H70_3 H 0.2921 0.4005 0.7270
C74_3 C 0.3136(17) 0.1867(19) 0.6941(12)
H71_3 H 0.2845 0.1653 0.7136
H72_3 H 0.3514 0.1694 0.7050
H73_3 H 0.3073 0.1575 0.6667
N7_3 N 0.3102(10) 0.2872(18) 0.6898(7)
O17_2 O 0.8227(3) 0.2222(5) 0.7902(2)
O19_2 O 0.8279(3) 0.2268(5) 0.8928(2)
H30_3 H 0.6148 0.9930 0.7316
C38_3 C 0.5452(7) 0.9827(8) 0.6627(5)
C39_3 C 0.4779(7) 0.9784(13) 0.6651(5)
H31_3 H 0.4637 0.9256 0.6485
H33_3 H 0.4667 0.9708 0.6944
C40_3 C 0.5647(9) 0.9936(12) 0.6165(5)
H34_3 H 0.5519 0.9396 0.6001
H35_3 H 0.6063 0.9976 0.6159
C41_3 C 0.5692(10) 0.8885(9) 0.6813(6)
H37_3 H 0.5561 0.8363 0.6638
H38_3 H 0.5555 0.8802 0.7099
H39_3 H 0.6109 0.8903 0.6817
H51_3 H 0.4259 0.9638 0.5479
H54_3 H 0.3340 0.9566 0.5070
Zn3_4 Zn 0.03042(7) 0.33398(10) 0.60843(5)
C1_4 C 0.1768(5) 0.3894(9) 0.4132(3)
C2_4 C 0.1455(3) 0.3587(4) 0.45238(19)
C3_4 C 0.1473(3) 0.2637(4) 0.4646(2)
H1_4 H 0.1682 0.2201 0.4486
C4_4 C 0.1178(4) 0.2339(3) 0.5007(2)
C5_4 C 0.0864(3) 0.2991(4) 0.5246(2)
C6_4 C 0.0846(3) 0.3941(4) 0.5123(2)
C7_4 C 0.1142(3) 0.4240(3) 0.4762(2)
H2_4 H 0.1129 0.4875 0.4681
C8_4 C 0.1198(6) 0.1258(8) 0.5142(4)
C9_4 C 0.1457(7) 0.1140(10) 0.5583(4)
H3_4 H 0.1233 0.1495 0.5784
H4_4 H 0.1455 0.0479 0.5660
H5_4 H 0.1850 0.1370 0.5586
C10_4 C 0.1595(6) 0.0671(9) 0.4837(4)
H6_4 H 0.1597 0.0016 0.4924
H7_4 H 0.1449 0.0720 0.4549
H8_4 H 0.1984 0.0918 0.4852
C11_4 C 0.0591(6) 0.0836(9) 0.5114(5)
H9_4 H 0.0336 0.1189 0.5295
H10_4 H 0.0450 0.0868 0.4823
H11_4 H 0.0603 0.0184 0.5205
C12_4 C 0.0545(6) 0.4688(9) 0.5353(4)
H12_2 H 0.0526 0.5283 0.5223
C13_2 C 0.0043(3) 0.5366(4) 0.5936(2)
C14_2 C 0.0076(4) 0.6308(5) 0.5803(2)
H13_2 H 0.0276 0.6463 0.5556
C27_4 C 0.0354(7) 0.0283(11) 0.6568(5)
H21_4 H 0.0499 0.0851 0.6437
H22_4 H 0.0468 0.0273 0.6865
C31_4 C 0.1700(4) 0.3851(8) 0.2831(3)
C32_4 C 0.1279(3) 0.3686(4) 0.24649(18)
C33_4 C 0.1126(3) 0.2762(3) 0.23512(19)
H29_4 H 0.1283 0.2250 0.2502
C34_4 C 0.0740(3) 0.2605(3) 0.2012(2)
C35_4 C 0.0506(3) 0.3371(4) 0.17872(19)
C36_4 C 0.0659(3) 0.4294(4) 0.1901(2)
C37_4 C 0.1046(3) 0.4452(3) 0.2240(2)
H30_4 H 0.1148 0.5070 0.2316
C38_4 C 0.0452(7) 0.5173(8) 0.1627(5)
C40_4 C 0.0647(9) 0.5064(12) 0.1165(5)
H34_4 H 0.0519 0.5604 0.1001
H35_4 H 0.1063 0.5024 0.1159
H36_4 H 0.0481 0.4495 0.1045
C41_4 C 0.0692(10) 0.6115(9) 0.1813(6)
H37_4 H 0.0561 0.6637 0.1638
H38_4 H 0.0555 0.6198 0.2099
H39_4 H 0.1109 0.6097 0.1817
C42_4 C 0.0659(5) 0.1601(8) 0.1898(3)
H40_4 H 0.0892 0.1156 0.2038
C43_4 C 0.0251(4) 0.0321(3) 0.1499(2)
N2_4 N 0.0299(4) 0.4601(7) 0.5721(3)
C67_4 C 0.2410(3) 0.0014(4) 0.30884(15)
C68_4 C 0.2477(3) 0.0996(4) 0.30746(13)
H62_4 H 0.2507 0.1304 0.2812
N3_4 N 0.2499(3) 0.1517(3) 0.34526(17)
C69_4 C 0.2455(3) 0.1056(4) 0.38444(13)
H63_4 H 0.2470 0.1405 0.4097
C70_4 C 0.2388(3) 0.0074(4) 0.38582(14)
N5_4 N 0.0283(4) 0.1287(6) 0.1615(3)
O1_2 O 0.1751(3) 0.4765(5) 0.4018(2)
O2_4 O 0.2046(3) 0.3245(5) 0.3928(2)
O3_4 O 0.0554(4) 0.2673(6) 0.5576(3)
O7_2 O 0.1740(3) 0.4730(5) 0.2959(2)
O8_4 O 0.1988(3) 0.3175(5) 0.2981(2)
O9_4 O 0.0118(4) 0.3249(5) 0.1474(3)
O13_2 O 0.2896(3) 0.4459(4) 0.3462(2)
O14_4 O 0.1055(4) 0.3460(7) 0.6445(3)
Zn7_2 Zn 0.21418(6) 0.50560(9) 0.34962(4)
H74_4 H 0.139334 0.350712 0.625249
H75_4 H 0.109964 0.28912 0.66311
H20_4 H 0.0511 0.9736 0.6427
C44_4 C 0.0491(4) 0.9587(4) 0.17422(19)
H41_4 H 0.0684 0.9721 0.1999
C45_4 C 0.0443(4) 0.8652(4) 0.1601(2)
H42_4 H 0.0604 0.8161 0.1764
C46_4 C 0.0155(4) 0.8451(3) 0.1218(3)
H43_4 H 0.0123 0.7825 0.1123
C61_4 C 0.2522(3) 0.6944(4) 0.31809(18)
H57_4 H 0.2702 0.6582 0.2972
C62_4 C 0.2569(3) 0.7929(4) 0.31750(19)
H58_4 H 0.2780 0.8227 0.2962
C63_4 C 0.2301(3) 0.8470(3) 0.3488(2)
C64_4 C 0.1985(3) 0.8025(4) 0.38066(19)
H59_4 H 0.1806 0.8386 0.4016
C65_4 C 0.1938(3) 0.7039(4) 0.38125(18)
H60_4 H 0.1727 0.6741 0.4026
N1_4 N 0.2206(3) 0.6498(3) 0.34997(19)
C66_4 C 0.2365(3) 0.9553(3) 0.34801(19)
H61_4 H 0.2395 0.9665 0.2835
H64_4 H 0.2358 0.9765 0.4120
Zn4_4 Zn 0.96913(7) 0.21250(10) 0.12686(4)
C15_2 C 0.9810(4) 0.7019(3) 0.6040(2)
H14_2 H 0.9831 0.7649 0.5951
C16_2 C 0.9511(4) 0.6787(4) 0.6409(2)
H15_2 H 0.9333 0.7263 0.6567
C17_2 C 0.9478(3) 0.5845(5) 0.6541(2)
H16_2 H 0.9278 0.5690 0.6788
C18_2 C 0.9744(3) 0.5135(3) 0.6305(2)
C19_4 C 0.9379(5) 0.3848(8) 0.6709(3)
H17_4 H 0.9153 0.4294 0.6850
C20_4 C 0.9312(3) 0.2847(3) 0.6834(2)
C21_4 C 0.9569(3) 0.2080(4) 0.66294(18)
C22_4 C 0.9449(3) 0.1157(3) 0.6762(2)
C23_4 C 0.9074(3) 0.1003(3) 0.7100(2)
H18_4 H 0.8994 0.0386 0.7188
C24_4 C 0.8817(3) 0.1771(4) 0.73041(17)
C25_4 C 0.8937(3) 0.2693(3) 0.71712(19)
H19_4 H 0.8765 0.3207 0.7308
C26_4 C 0.9710(6) 0.0265(8) 0.6531(4)
C28_4 C 0.9517(8) 0.0247(11) 0.6067(4)
H24_4 H 0.9100 0.0213 0.6049
H25_4 H 0.9647 0.0814 0.5927
C30_4 C 0.8423(4) 0.1552(8) 0.7672(3)
C39_4 C 0.9779(7) 0.5216(13) 0.1651(5)
H31_4 H 0.9637 0.5744 0.1485
H32_4 H 0.9616 0.4636 0.1539
H33_4 H 0.9667 0.5292 0.1944
C48_4 C 0.9963(3) 0.0120(4) 0.1115(2)
C49_4 C 0.9518(6) 0.0839(9) 0.0509(4)
H45_4 H 0.9567 0.0256 0.0373
C50_4 C 0.9230(3) 0.1593(4) 0.02680(19)
C51_4 C 0.9153(3) 0.2524(4) 0.04063(17)
C52_4 C 0.8871(3) 0.3179(3) 0.0143(2)
C56_4 C 0.8739(6) 0.4218(8) 0.0295(4)
C57_4 C 0.8380(7) 0.4222(10) 0.0697(4)
H48_4 H 0.8309 0.4866 0.0783
H49_4 H 0.8016 0.3909 0.0640
H50_4 H 0.8586 0.3892 0.0921
C58_4 C 0.9329(6) 0.4723(10) 0.0384(5)
H51_4 H 0.9259 0.5362 0.0479
H52_4 H 0.9542 0.4382 0.0602
H53_4 H 0.9550 0.4738 0.0126
H54_4 H 0.8340 0.5434 0.0070
N4_4 N 0.9725(4) 0.4162(6) 0.6420(3)
N6_4 N 0.9712(4) 0.0918(6) 0.0899(3)
O4_4 O 0.9942(4) 0.2200(5) 0.6316(3)
O5_4 O 0.8310(3) 0.0683(5) 0.7732(2)
O10_4 O 0.9332(4) 0.2811(5) 0.0784(3)
O15_4 O 0.8985(5) 0.2026(8) 0.1652(3)
C71_4 C 0.8155(18) 0.069(2) 0.1447(12)
H65_4 H 0.8387 0.0322 0.1256
H66_4 H 0.8067 0.0320 0.1696
H67_4 H 0.7799 0.0875 0.1305
C72_4 C 0.8506(10) 0.163(3) 0.1590(12)
C73_4 C 0.7700(14) 0.145(2) 0.2104(9)
H68_4 H 0.7443 0.1789 0.2289
H69_4 H 0.7477 0.1121 0.1888
H70_4 H 0.7921 0.0995 0.2270
C74_4 C 0.8136(17) 0.3133(19) 0.1941(12)
H71_4 H 0.7845 0.3347 0.2136
H72_4 H 0.8514 0.3306 0.2050
H73_4 H 0.8073 0.3425 0.1667
N7_4 N 0.8102(10) 0.2128(18) 0.1898(7)
C53_4 C 0.8665(3) 0.2903(4) 0.97408(19)
H46_4 H 0.8476 0.3342 0.9564
C54_4 C 0.8741(3) 0.1972(4) 0.96026(17)
C55_4 C 0.9024(3) 0.1317(3) 0.9866(2)
H47_4 H 0.9075 0.0694 0.9774
C59_4 C 0.8407(7) 0.4806(9) 0.9960(4)
H55_4 H 0.8631 0.4847 0.9704
H56_4 H 0.8041 0.4507 0.9896
C60_4 C 0.8487(5) 0.1672(9) 0.9176(4)
O12_4 O 0.8485(4) 0.0769(6) 0.9103(2)
H12_3 H 0.5526 0.9717 0.0223
C13_3 C 0.5043(3) 0.9634(4) 0.0936(2)
C14_3 C 0.5076(4) 0.8692(5) 0.0803(2)
H13_3 H 0.5276 0.8537 0.0556
C15_3 C 0.4810(4) 0.7981(3) 0.1040(2)
H14_3 H 0.4831 0.7351 0.0951
C16_3 C 0.4511(4) 0.8213(4) 0.1409(2)
H15_3 H 0.4333 0.7737 0.1567
C17_3 C 0.4478(3) 0.9155(5) 0.1541(2)
H16_3 H 0.4278 0.9310 0.1788
C18_3 C 0.4744(3) 0.9865(3) 0.1305(2)
H23_4 H 0.9680 0.9700 0.5929
C29_4 C 0.9510(9) 0.9346(9) 0.6729(6)
H26_4 H 0.9680 0.8820 0.6580
H27_4 H 0.9628 0.9327 0.7024
H28_4 H 0.9094 0.9305 0.6707
C47_4 C 0.9915(4) 0.9185(4) 0.0975(2)
H44_4 H 0.9722 0.9050 0.0718
H12_4 H 0.4474 0.0283 0.9777
C13_4 C 0.4957(3) 0.0366(4) 0.9064(2)
C14_4 C 0.4924(4) 0.1308(5) 0.9197(2)
H13_4 H 0.4724 0.1463 0.9444
C15_4 C 0.5190(4) 0.2019(3) 0.8960(2)
H14_4 H 0.5169 0.2649 0.9049
C16_4 C 0.5489(4) 0.1787(4) 0.8591(2)
H15_4 H 0.5667 0.2263 0.8433
C17_4 C 0.5522(3) 0.0845(5) 0.8459(2)
H16_4 H 0.5722 0.0690 0.8212
C18_4 C 0.5256(3) 0.0135(3) 0.8695(2)
loop_
_geom_bond_atom_site_label_1
_geom_bond_atom_site_label_2
_geom_bond_site_symmetry_1
_geom_bond_site_symmetry_2
H26 C29 1_555 1_555
H27 C29 1_555 1_555
H28 C29 1_555 1_555
H44 C47 1_555 1_555
H46 C53 1_555 1_555
C54 C53 1_555 1_555
H47 C55 1_555 1_555
H55 C59 1_555 1_555
H56 C59 1_555 1_555
C60 C54 1_555 1_555
O11 C60 1_555 1_555
O12 C60 1_555 1_555
Zn6 O11 1_555 1_555
C54 C55 1_555 1_555
H14 C15 1_555 1_555
C16 C15 1_555 1_555
H15 C16 1_555 1_555
C17 C16 1_555 1_555
H16 C17 1_555 1_555
C19 H17 1_555 1_555
C20 C19 1_555 1_555
C21 C20 1_555 1_555
C22 C21 1_555 1_555
C23 C22 1_555 1_555
H18 C23 1_555 1_555
C24 C23 1_555 1_555
C25 C20 1_555 1_555
H19 C25 1_555 1_555
C26 C22 1_555 1_555
C28 C26 1_555 1_555
H24 C28 1_555 1_555
H25 C28 1_555 1_555
C30 C24 1_555 1_555
H31 C39 1_555 1_555
H32 C39 1_555 1_555
H33 C39 1_555 1_555
C49 H45 1_555 1_555
C50 C49 1_555 1_555
C51 C50 1_555 1_555
C52 C51 1_555 1_555
C56 C52 1_555 1_555
C57 C56 1_555 1_555
H48 C57 1_555 1_555
H49 C57 1_555 1_555
H50 C57 1_555 1_555
C58 C56 1_555 1_555
H51 C58 1_555 1_555
H52 C58 1_555 1_555
H53 C58 1_555 1_555
N6 Zn4 1_555 1_555
O5 C30 1_555 1_555
O6 C30 1_555 1_555
O10 Zn4 1_555 1_555
O15 Zn4 1_555 1_555
C71 H65 1_555 1_555
H66 C71 1_555 1_555
H67 C71 1_555 1_555
C72 O15 1_555 1_555
C73 H68 1_555 1_555
H69 C73 1_555 1_555
H70 C73 1_555 1_555
C74 H71 1_555 1_555
H72 C74 1_555 1_555
H73 C74 1_555 1_555
N7 C72 1_555 1_555
Zn6 O6 1_555 1_555
C17 C18 1_555 1_555
C18 N4 1_555 1_555
C19 N4 1_555 1_555
C21 O4 1_555 1_555
C24 C25 1_555 1_555
C48 N6 1_555 1_555
C49 N6 1_555 1_555
C51 O10 1_555 1_555
C71 C72 1_555 1_555
C73 N7 1_555 1_555
C74 N7 1_555 1_555
Zn2 N1 1_555 1_555
C44 H41 1_555 1_555
C45 C44 1_555 1_555
H42 C45 1_555 1_555
C46 C45 1_555 1_555
H43 C46 1_555 1_555
C61 H57 1_555 1_555
C62 C61 1_555 1_555
H58 C62 1_555 1_555
C63 C62 1_555 1_555
C64 C63 1_555 1_555
H59 C64 1_555 1_555
C65 C64 1_555 1_555
H60 C65 1_555 1_555
N1 C61 1_555 1_555
C66 C63 1_555 1_555
O16 Zn2 1_555 1_555
O18 Zn2 1_555 1_555
O20 Zn2 1_555 1_555
C65 N1 1_555 1_555
Zn1 N3 1_555 1_555
Zn3 N2 1_555 1_555
C1 C2 1_555 1_555
C2 C3 1_555 1_555
C3 H1 1_555 1_555
C4 C3 1_555 1_555
C5 C4 1_555 1_555
C6 C5 1_555 1_555
C7 C2 1_555 1_555
H2 C7 1_555 1_555
C8 C4 1_555 1_555
C9 C8 1_555 1_555
H3 C9 1_555 1_555
H4 C9 1_555 1_555
H5 C9 1_555 1_555
C10 C8 1_555 1_555
H6 C10 1_555 1_555
H7 C10 1_555 1_555
H8 C10 1_555 1_555
C11 C8 1_555 1_555
H9 C11 1_555 1_555
H10 C11 1_555 1_555
H11 C11 1_555 1_555
C12 C6 1_555 1_555
H12 C12 1_555 1_555
C13 C14 1_555 1_555
C14 H13 1_555 1_555
H21 C27 1_555 1_555
H22 C27 1_555 1_555
C31 C32 1_555 1_555
C32 C33 1_555 1_555
C33 H29 1_555 1_555
C34 C33 1_555 1_555
C35 C34 1_555 1_555
C36 C35 1_555 1_555
C37 C32 1_555 1_555
H30 C37 1_555 1_555
C38 C36 1_555 1_555
C40 C38 1_555 1_555
H34 C40 1_555 1_555
H35 C40 1_555 1_555
H36 C40 1_555 1_555
C41 C38 1_555 1_555
H37 C41 1_555 1_555
H38 C41 1_555 1_555
H39 C41 1_555 1_555
C42 C34 1_555 1_555
H40 C42 1_555 1_555
N2 C12 1_555 1_555
C68 C67 1_555 1_555
H62 C68 1_555 1_555
N3 C68 1_555 1_555
C69 N3 1_555 1_555
H63 C69 1_555 1_555
N5 C42 1_555 1_555
O16 C1 1_555 1_555
O2 Zn1 1_555 1_555
O3 Zn3 1_555 1_555
O18 C31 1_555 1_555
O8 Zn1 1_555 1_555
O20 Zn1 1_555 1_555
O14 Zn3 1_555 1_555
O17 Zn1 1_555 1_555
O19 Zn1 1_555 1_555
C1 O2 1_555 1_555
C5 O3 1_555 1_555
C6 C7 1_555 1_555
C13 N2 1_555 1_555
C31 O8 1_555 1_555
C35 O9 1_555 1_555
C36 C37 1_555 1_555
C43 N5 1_555 1_555
C69 C70 1_555 1_555
O14 H74 1_555 1_555
O14 H75 1_555 1_555
C39_2 C38_2 1_555 1_555
H31_2 C39_2 1_555 1_555
H33_2 C39_2 1_555 1_555
C40_2 C38_2 1_555 1_555
H34_2 C40_2 1_555 1_555
H35_2 C40_2 1_555 1_555
C41_2 C38_2 1_555 1_555
H37_2 C41_2 1_555 1_555
H38_2 C41_2 1_555 1_555
H39_2 C41_2 1_555 1_555
Zn6 N3_2 1_555 1_555
Zn7 N1_2 1_555 1_555
Zn4_2 N5_2 1_555 1_555
C1_2 C2_2 1_555 1_555
C2_2 C3_2 1_555 1_555
C3_2 H1_2 1_555 1_555
C7_2 C2_2 1_555 1_555
H2_2 C7_2 1_555 1_555
H6_2 C10_2 1_555 1_555
H7_2 C10_2 1_555 1_555
H8_2 C10_2 1_555 1_555
C31_2 C32_2 1_555 1_555
C32_2 C33_2 1_555 1_555
C33_2 H29_2 1_555 1_555
C34_2 C33_2 1_555 1_555
C35_2 C34_2 1_555 1_555
C36_2 C35_2 1_555 1_555
C37_2 C32_2 1_555 1_555
C42_2 C34_2 1_555 1_555
H40_2 C42_2 1_555 1_555
C43_2 C44_2 1_555 1_555
C44_2 H41_2 1_555 1_555
C45_2 C44_2 1_555 1_555
H42_2 C45_2 1_555 1_555
C46_2 C45_2 1_555 1_555
H43_2 C46_2 1_555 1_555
C47_2 C46_2 1_555 1_555
H44_2 C47_2 1_555 1_555
C48_2 C43_2 1_555 1_555
C49_2 H45_2 1_555 1_555
C50_2 C49_2 1_555 1_555
C51_2 C50_2 1_555 1_555
C52_2 C51_2 1_555 1_555
C53_2 C52_2 1_555 1_555
H46_2 C53_2 1_555 1_555
C54_2 C53_2 1_555 1_555
C55_2 C50_2 1_555 1_555
H47_2 C55_2 1_555 1_555
C56_2 C52_2 1_555 1_555
C57_2 C56_2 1_555 1_555
H48_2 C57_2 1_555 1_555
H49_2 C57_2 1_555 1_555
H50_2 C57_2 1_555 1_555
C58_2 C56_2 1_555 1_555
H52_2 C58_2 1_555 1_555
H53_2 C58_2 1_555 1_555
C59_2 C56_2 1_555 1_555
H55_2 C59_2 1_555 1_555
H56_2 C59_2 1_555 1_555
C60_2 C54_2 1_555 1_555
C61_2 H57_2 1_555 1_555
C62_2 C61_2 1_555 1_555
H58_2 C62_2 1_555 1_555
C63_2 C62_2 1_555 1_555
C64_2 C63_2 1_555 1_555
H59_2 C64_2 1_555 1_555
C65_2 C64_2 1_555 1_555
H60_2 C65_2 1_555 1_555
N1_2 C61_2 1_555 1_555
C66_2 C63_2 1_555 1_555
C67_2 C66_2 1_555 1_555
H61_2 C67_2 1_555 1_555
C68_2 C67_2 1_555 1_555
H62_2 C68_2 1_555 1_555
N3_2 C68_2 1_555 1_555
C69_2 N3_2 1_555 1_555
H63_2 C69_2 1_555 1_555
C70_2 C66_2 1_555 1_555
H64_2 C70_2 1_555 1_555
N5_2 C42_2 1_555 1_555
N6_2 Zn4_2 1_555 1_555
O1 C1_2 1_555 1_555
O2_2 Zn6 1_555 1_555
O7 C31_2 1_555 1_555
O8_2 Zn6 1_555 1_555
O9_2 Zn4_2 1_555 1_555
O10_2 Zn4_2 1_555 1_555
O19 C60_2 1_555 1_555
O12_2 C60_2 1_555 1_555
O13 Zn6 1_555 1_555
O15_2 Zn4_2 1_555 1_555
C71_2 H65_2 1_555 1_555
H66_2 C71_2 1_555 1_555
H67_2 C71_2 1_555 1_555
C72_2 O15_2 1_555 1_555
C73_2 H68_2 1_555 1_555
H69_2 C73_2 1_555 1_555
H70_2 C73_2 1_555 1_555
C74_2 H71_2 1_555 1_555
H72_2 C74_2 1_555 1_555
H73_2 C74_2 1_555 1_555
N7_2 C72_2 1_555 1_555
C1_2 O2_2 1_555 1_555
C31_2 O8_2 1_555 1_555
C35_2 O9_2 1_555 1_555
C36_2 C37_2 1_555 1_555
C43_2 N5_2 1_555 1_555
C47_2 C48_2 1_555 1_555
C48_2 N6_2 1_555 1_555
C49_2 N6_2 1_555 1_555
C51_2 O10_2 1_555 1_555
C54_2 C55_2 1_555 1_555
C65_2 N1_2 1_555 1_555
C69_2 C70_2 1_555 1_555
C71_2 C72_2 1_555 1_555
C73_2 N7_2 1_555 1_555
C74_2 N7_2 1_555 1_555
Zn3_2 N2_2 1_555 1_555
C5_2 C4_2 1_555 1_555
C6_2 C5_2 1_555 1_555
C8_2 C4_2 1_555 1_555
C9_2 C8_2 1_555 1_555
H3_2 C9_2 1_555 1_555
H4_2 C9_2 1_555 1_555
H5_2 C9_2 1_555 1_555
C11_2 C8_2 1_555 1_555
H9_2 C11_2 1_555 1_555
H11_2 C11_2 1_555 1_555
C12_2 C6_2 1_555 1_555
C19_2 H17_2 1_555 1_555
C20_2 C19_2 1_555 1_555
C21_2 C20_2 1_555 1_555
C22_2 C21_2 1_555 1_555
C23_2 C22_2 1_555 1_555
H18_2 C23_2 1_555 1_555
C24_2 C23_2 1_555 1_555
C25_2 C20_2 1_555 1_555
H19_2 C25_2 1_555 1_555
C26_2 C22_2 1_555 1_555
C27_2 C26_2 1_555 1_555
H20_2 C27_2 1_555 1_555
H21_2 C27_2 1_555 1_555
H22_2 C27_2 1_555 1_555
C28_2 C26_2 1_555 1_555
H23_2 C28_2 1_555 1_555
H24_2 C28_2 1_555 1_555
H25_2 C28_2 1_555 1_555
C29_2 C26_2 1_555 1_555
H26_2 C29_2 1_555 1_555
H27_2 C29_2 1_555 1_555
H28_2 C29_2 1_555 1_555
C30_2 C24_2 1_555 1_555
N2_2 C12_2 1_555 1_555
N4_2 Zn3_2 1_555 1_555
O3_2 Zn3_2 1_555 1_555
O4_2 Zn3_2 1_555 1_555
O5_2 C30_2 1_555 1_555
O17 C30_2 1_555 1_555
O14_2 Zn3_2 1_555 1_555
C5_2 O3_2 1_555 1_555
C19_2 N4_2 1_555 1_555
C21_2 O4_2 1_555 1_555
C24_2 C25_2 1_555 1_555
O14_2 H74_2 1_555 1_555
O14_2 H75_2 1_555 1_555
Zn3_3 N2_3 1_555 1_555
C5_3 C4_3 1_555 1_555
C6_3 C5_3 1_555 1_555
C8_3 C4_3 1_555 1_555
C9_3 C8_3 1_555 1_555
H3_3 C9_3 1_555 1_555
H4_3 C9_3 1_555 1_555
H5_3 C9_3 1_555 1_555
C11_3 C8_3 1_555 1_555
H9_3 C11_3 1_555 1_555
H11_3 C11_3 1_555 1_555
C12_3 C6_3 1_555 1_555
C19_3 H17_3 1_555 1_555
C20_3 C19_3 1_555 1_555
C21_3 C20_3 1_555 1_555
C22_3 C21_3 1_555 1_555
C23_3 C22_3 1_555 1_555
H18_3 C23_3 1_555 1_555
C24_3 C23_3 1_555 1_555
C25_3 C20_3 1_555 1_555
H19_3 C25_3 1_555 1_555
C26_3 C22_3 1_555 1_555
C27_3 C26_3 1_555 1_555
H20_3 C27_3 1_555 1_555
H21_3 C27_3 1_555 1_555
H22_3 C27_3 1_555 1_555
C28_3 C26_3 1_555 1_555
H23_3 C28_3 1_555 1_555
H24_3 C28_3 1_555 1_555
H25_3 C28_3 1_555 1_555
C29_3 C26_3 1_555 1_555
H26_3 C29_3 1_555 1_555
H27_3 C29_3 1_555 1_555
H28_3 C29_3 1_555 1_555
C30_3 C24_3 1_555 1_555
N2_3 C12_3 1_555 1_555
N4_3 Zn3_3 1_555 1_555
O3_3 Zn3_3 1_555 1_555
O4_3 Zn3_3 1_555 1_555
O5_3 C30_3 1_555 1_555
O6_2 C30_3 1_555 1_555
O14_3 Zn3_3 1_555 1_555
Zn5 O6_2 1_555 1_555
C5_3 O3_3 1_555 1_555
C19_3 N4_3 1_555 1_555
C21_3 O4_3 1_555 1_555
C24_3 C25_3 1_555 1_555
O14_3 H74_3 1_555 1_555
O14_3 H75_3 1_555 1_555
Zn1_2 N3_3 1_555 1_555
Zn2_2 N1_3 1_555 1_555
Zn4_3 N5_3 1_555 1_555
C1_3 C2_3 1_555 1_555
C2_3 C3_3 1_555 1_555
C3_3 H1_3 1_555 1_555
C7_3 C2_3 1_555 1_555
H2_3 C7_3 1_555 1_555
H6_3 C10_3 1_555 1_555
H7_3 C10_3 1_555 1_555
H8_3 C10_3 1_555 1_555
C31_3 C32_3 1_555 1_555
C32_3 C33_3 1_555 1_555
C33_3 H29_3 1_555 1_555
C34_3 C33_3 1_555 1_555
C35_3 C34_3 1_555 1_555
C36_3 C35_3 1_555 1_555
C37_3 C32_3 1_555 1_555
C42_3 C34_3 1_555 1_555
H40_3 C42_3 1_555 1_555
C43_3 C44_3 1_555 1_555
C44_3 H41_3 1_555 1_555
C45_3 C44_3 1_555 1_555
H42_3 C45_3 1_555 1_555
C46_3 C45_3 1_555 1_555
H43_3 C46_3 1_555 1_555
C47_3 C46_3 1_555 1_555
H44_3 C47_3 1_555 1_555
C48_3 C43_3 1_555 1_555
C49_3 H45_3 1_555 1_555
C50_3 C49_3 1_555 1_555
C51_3 C50_3 1_555 1_555
C52_3 C51_3 1_555 1_555
C53_3 C52_3 1_555 1_555
H46_3 C53_3 1_555 1_555
C54_3 C53_3 1_555 1_555
C55_3 C50_3 1_555 1_555
H47_3 C55_3 1_555 1_555
C56_3 C52_3 1_555 1_555
C57_3 C56_3 1_555 1_555
H48_3 C57_3 1_555 1_555
H49_3 C57_3 1_555 1_555
H50_3 C57_3 1_555 1_555
C58_3 C56_3 1_555 1_555
H52_3 C58_3 1_555 1_555
H53_3 C58_3 1_555 1_555
C59_3 C56_3 1_555 1_555
H55_3 C59_3 1_555 1_555
H56_3 C59_3 1_555 1_555
C60_3 C54_3 1_555 1_555
C61_3 H57_3 1_555 1_555
C62_3 C61_3 1_555 1_555
H58_3 C62_3 1_555 1_555
C63_3 C62_3 1_555 1_555
C64_3 C63_3 1_555 1_555
H59_3 C64_3 1_555 1_555
C65_3 C64_3 1_555 1_555
H60_3 C65_3 1_555 1_555
N1_3 C61_3 1_555 1_555
C66_3 C63_3 1_555 1_555
C67_3 C66_3 1_555 1_555
H61_3 C67_3 1_555 1_555
C68_3 C67_3 1_555 1_555
H62_3 C68_3 1_555 1_555
N3_3 C68_3 1_555 1_555
C69_3 N3_3 1_555 1_555
H63_3 C69_3 1_555 1_555
C70_3 C66_3 1_555 1_555
H64_3 C70_3 1_555 1_555
N5_3 C42_3 1_555 1_555
N6_3 Zn4_3 1_555 1_555
O16_2 C1_3 1_555 1_555
O2_3 Zn1_2 1_555 1_555
O18_2 C31_3 1_555 1_555
O8_3 Zn1_2 1_555 1_555
O9_3 Zn4_3 1_555 1_555
O10_3 Zn4_3 1_555 1_555
O11_2 C60_3 1_555 1_555
O12_3 C60_3 1_555 1_555
O20_2 Zn1_2 1_555 1_555
O15_3 Zn4_3 1_555 1_555
C71_3 H65_3 1_555 1_555
H66_3 C71_3 1_555 1_555
H67_3 C71_3 1_555 1_555
C72_3 O15_3 1_555 1_555
C73_3 H68_3 1_555 1_555
H69_3 C73_3 1_555 1_555
H70_3 C73_3 1_555 1_555
C74_3 H71_3 1_555 1_555
H72_3 C74_3 1_555 1_555
H73_3 C74_3 1_555 1_555
N7_3 C72_3 1_555 1_555
Zn5 O11_2 1_555 1_555
O17_2 Zn1_2 1_555 1_555
O19_2 Zn1_2 1_555 1_555
C1_3 O2_3 1_555 1_555
C31_3 O8_3 1_555 1_555
C35_3 O9_3 1_555 1_555
C36_3 C37_3 1_555 1_555
C43_3 N5_3 1_555 1_555
C47_3 C48_3 1_555 1_555
C48_3 N6_3 1_555 1_555
C49_3 N6_3 1_555 1_555
C51_3 O10_3 1_555 1_555
C54_3 C55_3 1_555 1_555
C65_3 N1_3 1_555 1_555
C69_3 C70_3 1_555 1_555
C71_3 C72_3 1_555 1_555
C73_3 N7_3 1_555 1_555
C74_3 N7_3 1_555 1_555
C39_3 C38_3 1_555 1_555
H31_3 C39_3 1_555 1_555
H33_3 C39_3 1_555 1_555
C40_3 C38_3 1_555 1_555
H34_3 C40_3 1_555 1_555
H35_3 C40_3 1_555 1_555
C41_3 C38_3 1_555 1_555
H37_3 C41_3 1_555 1_555
H38_3 C41_3 1_555 1_555
H39_3 C41_3 1_555 1_555
Zn5 N3_4 1_555 1_555
Zn3_4 N2_4 1_555 1_555
C1_4 C2_4 1_555 1_555
C2_4 C3_4 1_555 1_555
C3_4 H1_4 1_555 1_555
C4_4 C3_4 1_555 1_555
C5_4 C4_4 1_555 1_555
C6_4 C5_4 1_555 1_555
C7_4 C2_4 1_555 1_555
H2_4 C7_4 1_555 1_555
C8_4 C4_4 1_555 1_555
C9_4 C8_4 1_555 1_555
H3_4 C9_4 1_555 1_555
H4_4 C9_4 1_555 1_555
H5_4 C9_4 1_555 1_555
C10_4 C8_4 1_555 1_555
H6_4 C10_4 1_555 1_555
H7_4 C10_4 1_555 1_555
H8_4 C10_4 1_555 1_555
C11_4 C8_4 1_555 1_555
H9_4 C11_4 1_555 1_555
H10_4 C11_4 1_555 1_555
H11_4 C11_4 1_555 1_555
C12_4 C6_4 1_555 1_555
H12_2 C12_4 1_555 1_555
C13_2 C14_2 1_555 1_555
C14_2 H13_2 1_555 1_555
H21_4 C27_4 1_555 1_555
H22_4 C27_4 1_555 1_555
C31_4 C32_4 1_555 1_555
C32_4 C33_4 1_555 1_555
C33_4 H29_4 1_555 1_555
C34_4 C33_4 1_555 1_555
C35_4 C34_4 1_555 1_555
C36_4 C35_4 1_555 1_555
C37_4 C32_4 1_555 1_555
H30_4 C37_4 1_555 1_555
C38_4 C36_4 1_555 1_555
C40_4 C38_4 1_555 1_555
H34_4 C40_4 1_555 1_555
H35_4 C40_4 1_555 1_555
H36_4 C40_4 1_555 1_555
C41_4 C38_4 1_555 1_555
H37_4 C41_4 1_555 1_555
H38_4 C41_4 1_555 1_555
H39_4 C41_4 1_555 1_555
C42_4 C34_4 1_555 1_555
H40_4 C42_4 1_555 1_555
N2_4 C12_4 1_555 1_555
C68_4 C67_4 1_555 1_555
H62_4 C68_4 1_555 1_555
N3_4 C68_4 1_555 1_555
C69_4 N3_4 1_555 1_555
H63_4 C69_4 1_555 1_555
N5_4 C42_4 1_555 1_555
O1_2 C1_4 1_555 1_555
O2_4 Zn5 1_555 1_555
O3_4 Zn3_4 1_555 1_555
O7_2 C31_4 1_555 1_555
O8_4 Zn5 1_555 1_555
O13_2 Zn5 1_555 1_555
O14_4 Zn3_4 1_555 1_555
Zn7_2 O1_2 1_555 1_555
C1_4 O2_4 1_555 1_555
C5_4 O3_4 1_555 1_555
C6_4 C7_4 1_555 1_555
C13_2 N2_4 1_555 1_555
C31_4 O8_4 1_555 1_555
C35_4 O9_4 1_555 1_555
C36_4 C37_4 1_555 1_555
C43_4 N5_4 1_555 1_555
C69_4 C70_4 1_555 1_555
O7_2 Zn7_2 1_555 1_555
O13_2 Zn7_2 1_555 1_555
O14_4 H74_4 1_555 1_555
O14_4 H75_4 1_555 1_555
Zn7_2 N1_4 1_555 1_555
C44_4 H41_4 1_555 1_555
C45_4 C44_4 1_555 1_555
H42_4 C45_4 1_555 1_555
C46_4 C45_4 1_555 1_555
H43_4 C46_4 1_555 1_555
C61_4 H57_4 1_555 1_555
C62_4 C61_4 1_555 1_555
H58_4 C62_4 1_555 1_555
C63_4 C62_4 1_555 1_555
C64_4 C63_4 1_555 1_555
H59_4 C64_4 1_555 1_555
C65_4 C64_4 1_555 1_555
H60_4 C65_4 1_555 1_555
N1_4 C61_4 1_555 1_555
C66_4 C63_4 1_555 1_555
C65_4 N1_4 1_555 1_555
H14_2 C15_2 1_555 1_555
C16_2 C15_2 1_555 1_555
H15_2 C16_2 1_555 1_555
C17_2 C16_2 1_555 1_555
H16_2 C17_2 1_555 1_555
C19_4 H17_4 1_555 1_555
C20_4 C19_4 1_555 1_555
C21_4 C20_4 1_555 1_555
C22_4 C21_4 1_555 1_555
C23_4 C22_4 1_555 1_555
H18_4 C23_4 1_555 1_555
C24_4 C23_4 1_555 1_555
C25_4 C20_4 1_555 1_555
H19_4 C25_4 1_555 1_555
C26_4 C22_4 1_555 1_555
C28_4 C26_4 1_555 1_555
H24_4 C28_4 1_555 1_555
H25_4 C28_4 1_555 1_555
C30_4 C24_4 1_555 1_555
H31_4 C39_4 1_555 1_555
H32_4 C39_4 1_555 1_555
H33_4 C39_4 1_555 1_555
C49_4 H45_4 1_555 1_555
C50_4 C49_4 1_555 1_555
C51_4 C50_4 1_555 1_555
C52_4 C51_4 1_555 1_555
C56_4 C52_4 1_555 1_555
C57_4 C56_4 1_555 1_555
H48_4 C57_4 1_555 1_555
H49_4 C57_4 1_555 1_555
H50_4 C57_4 1_555 1_555
C58_4 C56_4 1_555 1_555
H51_4 C58_4 1_555 1_555
H52_4 C58_4 1_555 1_555
H53_4 C58_4 1_555 1_555
N6_4 Zn4_4 1_555 1_555
O5_4 C30_4 1_555 1_555
O17_2 C30_4 1_555 1_555
O10_4 Zn4_4 1_555 1_555
O15_4 Zn4_4 1_555 1_555
C71_4 H65_4 1_555 1_555
H66_4 C71_4 1_555 1_555
H67_4 C71_4 1_555 1_555
C72_4 O15_4 1_555 1_555
C73_4 H68_4 1_555 1_555
H69_4 C73_4 1_555 1_555
H70_4 C73_4 1_555 1_555
C74_4 H71_4 1_555 1_555
H72_4 C74_4 1_555 1_555
H73_4 C74_4 1_555 1_555
N7_4 C72_4 1_555 1_555
C17_2 C18_2 1_555 1_555
C18_2 N4_4 1_555 1_555
C19_4 N4_4 1_555 1_555
C21_4 O4_4 1_555 1_555
C24_4 C25_4 1_555 1_555
C48_4 N6_4 1_555 1_555
C49_4 N6_4 1_555 1_555
C51_4 O10_4 1_555 1_555
C71_4 C72_4 1_555 1_555
C73_4 N7_4 1_555 1_555
C74_4 N7_4 1_555 1_555
H46_4 C53_4 1_555 1_555
C54_4 C53_4 1_555 1_555
H47_4 C55_4 1_555 1_555
H55_4 C59_4 1_555 1_555
H56_4 C59_4 1_555 1_555
C60_4 C54_4 1_555 1_555
O19_2 C60_4 1_555 1_555
O12_4 C60_4 1_555 1_555
C54_4 C55_4 1_555 1_555
C13_3 C14_3 1_555 1_555
C14_3 H13_3 1_555 1_555
C15_3 C14_3 1_555 1_555
H14_3 C15_3 1_555 1_555
C16_3 C15_3 1_555 1_555
H15_3 C16_3 1_555 1_555
C17_3 C16_3 1_555 1_555
H16_3 C17_3 1_555 1_555
C18_3 C13_3 1_555 1_555
C17_3 C18_3 1_555 1_555
H26_4 C29_4 1_555 1_555
H27_4 C29_4 1_555 1_555
H28_4 C29_4 1_555 1_555
H44_4 C47_4 1_555 1_555
C13_4 C14_4 1_555 1_555
C14_4 H13_4 1_555 1_555
C15_4 C14_4 1_555 1_555
H14_4 C15_4 1_555 1_555
C16_4 C15_4 1_555 1_555
H15_4 C16_4 1_555 1_555
C17_4 C16_4 1_555 1_555
H16_4 C17_4 1_555 1_555
C18_4 C13_4 1_555 1_555
C17_4 C18_4 1_555 1_555

#END
