
###############################################################################
#
# This file contains modified crystal structure data generated from the
# MOF subset of the Cambridge Structural Database (CSD) v543 
# hosted by the Cambridge Crystallographic Data Centre (CCDC).
#
# This work is licensed under the Creative Commons
# Attribution-NonCommercial-ShareAlike 4.0 International License.
# To view a copy of this license, visit
# http://creativecommons.org/licenses/by-nc-sa/4.0/
# or send a letter to
# Creative Commons, PO Box 1866, Mountain View, CA 94042, USA.
#
# CIF created using the CSD Python API on 29 September 2022
# The structure has been converted into the P1 space group
# The structure has a 3D framework
# The original CSD entry CAVRAU is in the orthorhombic crystal system
# The framework has been calculated to contain at least 10.0% void space
# The void calculation uses a probe of radius 1.32A, grid spacing 0.4
#
###############################################################################

data_CAVRAU
_chemical_formula_moiety         '(C144 H124 N36 O46 Zn20)n'
_symmetry_cell_setting           triclinic
_symmetry_space_group_name_H-M   'P 1'
_symmetry_Int_Tables_number      1
_space_group_name_Hall           'P 1'
loop_
_symmetry_equiv_pos_site_id
_symmetry_equiv_pos_as_xyz
1 x,y,z
_cell_length_a                   15.508(11)
_cell_length_b                   19.220(13)
_cell_length_c                   25.211(17)
_cell_angle_alpha                90
_cell_angle_beta                 90
_cell_angle_gamma                90
_cell_volume                     7514.49
loop_
_atom_site_label
_atom_site_type_symbol
_atom_site_fract_x
_atom_site_fract_y
_atom_site_fract_z
O2 O 0.0205(4) 0.0664(3) 0.4261(2)
C1 C 0.0326(5) 0.0319(4) 0.6828(3)
H2 H 0.0887 0.0525 0.6793
H4 H 0.0230 0.0193 0.7192
C5 C 0.0061(5) 0.1198(4) 0.4529(3)
C6 C 0.0118(6) 0.1868(4) 0.4242(3)
C7 C 0.0281(9) 0.1873(5) 0.3707(4)
H8 H 0.0351 0.1454 0.3527
C8 C 0.0342(15) 0.2500 0.3429(6)
H9 H 0.0422 0.2500 0.3063
C9 C 0.0046(7) 0.2500 0.4507(4)
Zn7 Zn 0.44628(5) 0.16218(4) 0.72766(3)
Zn12 Zn 0.02579(6) 0.53568(4) 0.45013(3)
N10 N 0.0595(3) 0.2147(3) 0.7811(2)
N11 N 0.0595(3) 0.2853(3) 0.7811(2)
O9 O 0.0205(4) 0.4336(3) 0.4261(2)
O12 O 0.1047(3) 0.0398(3) 0.5614(2)
O13 O 0.1047(3) 0.4602(3) 0.5614(2)
O17 O 0.3329(6) 0.1110(4) 0.6868(3)
O19 O 0.4608(5) 0.0867(5) 0.6718(3)
C20 C 0.0326(5) 0.4681(4) 0.6828(3)
H18 H 0.0887 0.4475 0.6793
H19 H 0.0292 0.5090 0.6610
H20 H 0.0230 0.4807 0.7192
C24 C 0.0061(5) 0.3802(4) 0.4529(3)
C25 C 0.0118(6) 0.3132(4) 0.4242(3)
C26 C 0.0281(9) 0.3127(5) 0.3707(4)
H24 H 0.0351 0.3546 0.3527
C27 C 0.3855(7) 0.0847(5) 0.6604(3)
C28 C 0.3595(7) 0.0433(6) 0.6106(4)
C29 C 0.4219(8) 0.0027(10) 0.5829(6)
C32 C 0.2497(6) 0.0102(5) 0.5480(3)
C33 C 0.2747(5) 0.0449(4) 0.5935(3)
H28 H 0.2339 0.0697 0.6129
C34 C 0.1580(5) 0.0118(4) 0.5306(3)
H3 H 0.0292 0.9910 0.6610
Zn9 Zn 0.02579(6) 0.96432(4) 0.45013(3)
O14 O 0.1409(3) 0.9837(3) 0.48704(19)
H25 H 0.4777 0.9970 0.5957
C30 C 0.3950(8) 0.9722(12) 0.5359(7)
H26 H 0.4356 0.9507 0.5143
C31 C 0.3099(7) 0.9730(9) 0.5205(5)
H27 H 0.2931 0.9477 0.4908
Zn1 Zn 0.94628(5) 0.16218(4) 0.77234(3)
Zn2 Zn 0.97421(6) 0.03568(4) 0.54987(3)
Zn3 Zn 0.81710(6) 0.2500 0.69581(4)
N1 N 0.9325(3) 0.1307(3) 0.69668(19)
N2 N 0.8732(3) 0.1656(3) 0.66595(19)
N3 N 0.9336(4) 0.0846(3) 0.6166(2)
N4 N 0.5595(3) 0.2147(3) 0.7189(2)
N5 N 0.6918(4) 0.2500 0.7020(3)
O1 O 0.9876(3) 0.1207(2) 0.5006(2)
O3 O 0.6047(3) 0.0398(3) 0.9386(2)
O5 O 0.8329(6) 0.1110(4) 0.8132(3)
O6 O 0.9608(5) 0.0867(5) 0.8282(3)
O7 O 0.8749(3) 0.2500 0.7663(2)
H1 H 0.8315 0.2500 0.7898
C2 C 0.9659(4) 0.0826(3) 0.6658(3)
C3 C 0.8751(4) 0.1364(4) 0.6183(3)
C4 C 0.8175(5) 0.1579(4) 0.5744(3)
H5 H 0.7764 0.1912 0.5873
H6 H 0.7877 0.1179 0.5609
H7 H 0.8512 0.1785 0.5466
H10 H 0.9946 0.2500 0.4871
C10 C 0.8855(7) 0.0847(5) 0.8396(3)
C11 C 0.8595(7) 0.0433(6) 0.8894(4)
C12 C 0.9219(8) 0.0027(10) 0.9171(6)
C15 C 0.7497(6) 0.0102(5) 0.9520(3)
C16 C 0.7747(5) 0.0449(4) 0.9065(3)
H14 H 0.7339 0.0697 0.8871
C17 C 0.6580(5) 0.0118(4) 0.9694(3)
C18 C 0.6677(5) 0.1213(4) 0.7055(3)
H15 H 0.7145 0.1135 0.7296
H16 H 0.6202 0.0916 0.7147
H17 H 0.6861 0.1110 0.6700
C19 C 0.6400(4) 0.1953(3) 0.7087(2)
Zn4 Zn 0.94628(5) 0.33782(4) 0.77234(3)
Zn6 Zn 0.44628(5) 0.33782(4) 0.72766(3)
Zn8 Zn 0.97421(6) 0.46432(4) 0.54987(3)
Zn10 Zn 0.47421(6) 0.03568(4) 0.95013(3)
N6 N 0.9325(3) 0.3693(3) 0.69668(19)
N7 N 0.8732(3) 0.3344(3) 0.66595(19)
N8 N 0.9336(4) 0.4154(3) 0.6166(2)
N9 N 0.5595(3) 0.2853(3) 0.7189(2)
O8 O 0.9876(3) 0.3793(2) 0.5006(2)
O11 O 0.9795(4) 0.5664(3) 0.5739(2)
O15 O 0.8591(3) 0.0163(3) 0.51296(19)
O16 O 0.8591(3) 0.4837(3) 0.51296(19)
O18 O 0.8329(6) 0.3890(4) 0.8132(3)
O20 O 0.9608(5) 0.4133(5) 0.8282(3)
C21 C 0.9659(4) 0.4174(3) 0.6658(3)
C22 C 0.8751(4) 0.3636(4) 0.6183(3)
C23 C 0.8175(5) 0.3421(4) 0.5744(3)
H21 H 0.7764 0.3088 0.5873
H22 H 0.7877 0.3821 0.5609
H23 H 0.8512 0.3215 0.5466
C35 C 0.6677(5) 0.3787(4) 0.7055(3)
H29 H 0.7145 0.3865 0.7296
H30 H 0.6202 0.4084 0.7147
H31 H 0.6861 0.3890 0.6700
C36 C 0.6400(4) 0.3047(3) 0.7087(2)
O4 O 0.6409(3) 0.9837(3) 0.01296(19)
H13 H 0.7931 0.9477 0.0092
Zn11 Zn 0.52579(6) 0.96432(4) 0.04987(3)
H11 H 0.9777 0.9970 0.9043
C13 C 0.8950(8) 0.9722(12) 0.9641(7)
H12 H 0.9356 0.9507 0.9857
C14 C 0.8099(7) 0.9730(9) 0.9795(5)
O10 O 0.9795(4) 0.9336(3) 0.5739(2)
Zn5 Zn 0.05372(5) 0.83782(4) 0.22766(3)
Zn6_2 Zn 0.05372(5) 0.66218(4) 0.22766(3)
H3_2 H 0.4708 0.0090 0.1610
H11_2 H 0.5223 0.0030 0.4043
C13_2 C 0.6050(8) 0.0278(12) 0.4641(7)
H12_2 H 0.5644 0.0493 0.4857
C14_2 C 0.6901(7) 0.0270(9) 0.4795(5)
H13_2 H 0.7069 0.0523 0.5092
O10_2 O 0.5205(4) 0.0664(3) 0.0739(2)
H25_2 H 0.0223 0.0030 0.0957
C30_2 C 0.1050(8) 0.0278(12) 0.0359(7)
H26_2 H 0.0644 0.0493 0.0143
C31_2 C 0.1901(7) 0.0270(9) 0.0205(5)
O14_2 O 0.3591(3) 0.0163(3) 0.98704(19)
H27_2 H 0.2069 0.0523 0.9908
Zn1_2 Zn 0.55372(5) 0.83782(4) 0.27234(3)
Zn3_2 Zn 0.68290(6) 0.7500 0.19581(4)
N1_2 N 0.5675(3) 0.8693(3) 0.19668(19)
N2_2 N 0.6268(3) 0.8344(3) 0.16595(19)
N3_2 N 0.5664(4) 0.9154(3) 0.1166(2)
N4_2 N 0.9405(3) 0.7853(3) 0.2189(2)
N5_2 N 0.8082(4) 0.7500 0.2020(3)
O1_2 O 0.5124(3) 0.8793(2) 0.0006(2)
O3_2 O 0.8953(3) 0.9602(3) 0.4386(2)
O5_2 O 0.6671(6) 0.8890(4) 0.3132(3)
O6_2 O 0.5392(5) 0.9133(5) 0.3282(3)
O7_2 O 0.6251(3) 0.7500 0.2663(2)
H1_2 H 0.6685 0.7500 0.2898
C1_2 C 0.4674(5) 0.9681(4) 0.1828(3)
H2_2 H 0.4113 0.9475 0.1793
H4_2 H 0.4770 0.9807 0.2192
C2_2 C 0.5341(4) 0.9174(3) 0.1658(3)
C3_2 C 0.6249(4) 0.8636(4) 0.1183(3)
C4_2 C 0.6825(5) 0.8421(4) 0.0744(3)
H5_2 H 0.7236 0.8088 0.0873
H6_2 H 0.7123 0.8821 0.0609
H7_2 H 0.6488 0.8215 0.0466
C10_2 C 0.6145(7) 0.9153(5) 0.3396(3)
C11_2 C 0.6405(7) 0.9567(6) 0.3894(4)
C12_2 C 0.5781(8) 0.9973(10) 0.4171(6)
C15_2 C 0.7503(6) 0.9898(5) 0.4520(3)
C16_2 C 0.7253(5) 0.9551(4) 0.4065(3)
H14_2 H 0.7661 0.9303 0.3871
C17_2 C 0.8420(5) 0.9882(4) 0.4694(3)
C18_2 C 0.8323(5) 0.8787(4) 0.2055(3)
H15_2 H 0.7855 0.8865 0.2296
H16_2 H 0.8798 0.9084 0.2147
H17_2 H 0.8139 0.8890 0.1700
C19_2 C 0.8600(4) 0.8047(3) 0.2087(2)
Zn4_2 Zn 0.55372(5) 0.66218(4) 0.27234(3)
Zn8_2 Zn 0.52579(6) 0.53568(4) 0.04987(3)
N6_2 N 0.5675(3) 0.6307(3) 0.19668(19)
N7_2 N 0.6268(3) 0.6656(3) 0.16595(19)
N8_2 N 0.5664(4) 0.5846(3) 0.1166(2)
N9_2 N 0.9405(3) 0.7147(3) 0.2189(2)
N10_2 N 0.4405(3) 0.7853(3) 0.2811(2)
N11_2 N 0.4405(3) 0.7147(3) 0.2811(2)
O8_2 O 0.5124(3) 0.6207(2) 0.0006(2)
O11_2 O 0.5205(4) 0.4336(3) 0.0739(2)
O12_2 O 0.3953(3) 0.9602(3) 0.0614(2)
O13_2 O 0.3953(3) 0.5398(3) 0.0614(2)
O16_2 O 0.6409(3) 0.5163(3) 0.01296(19)
O17_2 O 0.1671(6) 0.8890(4) 0.1868(3)
O18_2 O 0.6671(6) 0.6110(4) 0.3132(3)
O19_2 O 0.0392(5) 0.9133(5) 0.1718(3)
O20_2 O 0.5392(5) 0.5867(5) 0.3282(3)
C20_2 C 0.4674(5) 0.5319(4) 0.1828(3)
H18_2 H 0.4113 0.5525 0.1793
H19_2 H 0.4708 0.4910 0.1610
H20_2 H 0.4770 0.5193 0.2192
C21_2 C 0.5341(4) 0.5826(3) 0.1658(3)
C22_2 C 0.6249(4) 0.6364(4) 0.1183(3)
C23_2 C 0.6825(5) 0.6579(4) 0.0744(3)
H21_2 H 0.7236 0.6912 0.0873
H22_2 H 0.7123 0.6179 0.0609
H23_2 H 0.6488 0.6785 0.0466
C27_2 C 0.1145(7) 0.9153(5) 0.1604(3)
C28_2 C 0.1405(7) 0.9567(6) 0.1106(4)
C29_2 C 0.0781(8) 0.9973(10) 0.0829(6)
C32_2 C 0.2503(6) 0.9898(5) 0.0480(3)
C33_2 C 0.2253(5) 0.9551(4) 0.0935(3)
H28_2 H 0.2661 0.9303 0.1129
C34_2 C 0.3420(5) 0.9882(4) 0.0306(3)
C35_2 C 0.8323(5) 0.6213(4) 0.2055(3)
H29_2 H 0.7855 0.6135 0.2296
H30_2 H 0.8798 0.5916 0.2147
H31_2 H 0.8139 0.6110 0.1700
C36_2 C 0.8600(4) 0.6953(3) 0.2087(2)
O2_2 O 0.4795(4) 0.9336(3) 0.9261(2)
C5_2 C 0.4939(5) 0.8802(4) 0.9529(3)
C6_2 C 0.4882(6) 0.8132(4) 0.9242(3)
C7_2 C 0.4719(9) 0.8127(5) 0.8707(4)
H8_2 H 0.4649 0.8546 0.8527
C8_2 C 0.4658(15) 0.7500 0.8429(6)
H9_2 H 0.4578 0.7500 0.8063
C9_2 C 0.4954(7) 0.7500 0.9507(4)
H10_2 H 0.5054 0.7500 0.9871
Zn12_2 Zn 0.47421(6) 0.46432(4) 0.95013(3)
O9_2 O 0.4795(4) 0.5664(3) 0.9261(2)
C24_2 C 0.4939(5) 0.6198(4) 0.9529(3)
C25_2 C 0.4882(6) 0.6868(4) 0.9242(3)
C26_2 C 0.4719(9) 0.6873(5) 0.8707(4)
H24_2 H 0.4649 0.6454 0.8527
C5_3 C 0.5061(5) 0.3802(4) 0.0471(3)
C6_3 C 0.5118(6) 0.3132(4) 0.0758(3)
C7_3 C 0.5281(9) 0.3127(5) 0.1293(4)
H8_3 H 0.5351 0.3546 0.1473
C8_3 C 0.5342(15) 0.2500 0.1571(6)
H9_3 H 0.5422 0.2500 0.1937
C9_3 C 0.5046(7) 0.2500 0.0493(4)
H10_3 H 0.4946 0.2500 0.0129
C24_3 C 0.5061(5) 0.1198(4) 0.0471(3)
C25_3 C 0.5118(6) 0.1868(4) 0.0758(3)
C26_3 C 0.5281(9) 0.1873(5) 0.1293(4)
H24_3 H 0.5351 0.1454 0.1473
H27_3 H 0.7931 0.5523 0.0092
Zn3_3 Zn 0.31710(6) 0.2500 0.80419(4)
N1_3 N 0.4325(3) 0.3693(3) 0.80332(19)
N2_3 N 0.3732(3) 0.3344(3) 0.83405(19)
N3_3 N 0.4336(4) 0.4154(3) 0.8834(2)
N5_3 N 0.1918(4) 0.2500 0.7980(3)
O1_3 O 0.4876(3) 0.3793(2) 0.9994(2)
O4_2 O 0.1409(3) 0.5163(3) 0.48704(19)
O5_3 O 0.3329(6) 0.3890(4) 0.6868(3)
O6_3 O 0.4608(5) 0.4133(5) 0.6718(3)
O7_3 O 0.3749(3) 0.2500 0.7337(2)
H1_3 H 0.3315 0.2500 0.7102
C1_3 C 0.5326(5) 0.4681(4) 0.8172(3)
H2_3 H 0.5887 0.4475 0.8207
H3_3 H 0.5292 0.5090 0.8390
H4_3 H 0.5230 0.4807 0.7808
C2_3 C 0.4659(4) 0.4174(3) 0.8342(3)
C3_3 C 0.3751(4) 0.3636(4) 0.8817(3)
C4_3 C 0.3175(5) 0.3421(4) 0.9256(3)
H5_3 H 0.2764 0.3088 0.9127
H6_3 H 0.2877 0.3821 0.9391
H7_3 H 0.3512 0.3215 0.9534
C10_3 C 0.3855(7) 0.4153(5) 0.6604(3)
C11_3 C 0.3595(7) 0.4567(6) 0.6106(4)
C12_3 C 0.4219(8) 0.4973(10) 0.5829(6)
H11_3 H 0.4777 0.5030 0.5957
C13_3 C 0.3950(8) 0.5278(12) 0.5359(7)
H12_3 H 0.4356 0.5493 0.5143
C14_3 C 0.3099(7) 0.5270(9) 0.5205(5)
H13_3 H 0.2931 0.5523 0.4908
C15_3 C 0.2497(6) 0.4898(5) 0.5480(3)
C16_3 C 0.2747(5) 0.4551(4) 0.5935(3)
H14_3 H 0.2339 0.4303 0.6129
C17_3 C 0.1580(5) 0.4882(4) 0.5306(3)
C18_3 C 0.1677(5) 0.3787(4) 0.7945(3)
H15_3 H 0.2145 0.3865 0.7704
H16_3 H 0.1202 0.4084 0.7853
H17_3 H 0.1861 0.3890 0.8300
C19_3 C 0.1400(4) 0.3047(3) 0.7913(2)
N6_3 N 0.4325(3) 0.1307(3) 0.80332(19)
N7_3 N 0.3732(3) 0.1656(3) 0.83405(19)
N8_3 N 0.4336(4) 0.0846(3) 0.8834(2)
O8_3 O 0.4876(3) 0.1207(2) 0.9994(2)
O12_3 O 0.6047(3) 0.4602(3) 0.9386(2)
O15_2 O 0.3591(3) 0.4837(3) 0.98704(19)
C20_3 C 0.5326(5) 0.0319(4) 0.8172(3)
H18_3 H 0.5887 0.0525 0.8207
H20_3 H 0.5230 0.0193 0.7808
C21_3 C 0.4659(4) 0.0826(3) 0.8342(3)
C22_3 C 0.3751(4) 0.1364(4) 0.8817(3)
C23_3 C 0.3175(5) 0.1579(4) 0.9256(3)
H21_3 H 0.2764 0.1912 0.9127
H22_3 H 0.2877 0.1179 0.9391
H23_3 H 0.3512 0.1785 0.9534
C27_3 C 0.8855(7) 0.4153(5) 0.8396(3)
C28_3 C 0.8595(7) 0.4567(6) 0.8894(4)
C29_3 C 0.9219(8) 0.4973(10) 0.9171(6)
H25_3 H 0.9777 0.5030 0.9043
C30_3 C 0.8950(8) 0.5278(12) 0.9641(7)
H26_3 H 0.9356 0.5493 0.9857
C31_3 C 0.8099(7) 0.5270(9) 0.9795(5)
C32_3 C 0.7497(6) 0.4898(5) 0.9520(3)
C33_3 C 0.7747(5) 0.4551(4) 0.9065(3)
H28_3 H 0.7339 0.4303 0.8871
C34_3 C 0.6580(5) 0.4882(4) 0.9694(3)
C35_3 C 0.1677(5) 0.1213(4) 0.7945(3)
H29_3 H 0.2145 0.1135 0.7704
H30_3 H 0.1202 0.0916 0.7853
H31_3 H 0.1861 0.1110 0.8300
C36_3 C 0.1400(4) 0.1953(3) 0.7913(2)
H19_3 H 0.5292 0.9910 0.8390
Zn3_4 Zn 0.18290(6) 0.7500 0.30419(4)
N1_4 N 0.0675(3) 0.6307(3) 0.30332(19)
N2_4 N 0.1268(3) 0.6656(3) 0.33405(19)
N3_4 N 0.0664(4) 0.5846(3) 0.3834(2)
N5_4 N 0.3082(4) 0.7500 0.2980(3)
O1_4 O 0.0124(3) 0.6207(2) 0.4994(2)
O5_4 O 0.1671(6) 0.6110(4) 0.1868(3)
O6_4 O 0.0392(5) 0.5867(5) 0.1718(3)
O7_4 O 0.1251(3) 0.7500 0.2337(2)
H1_4 H 0.1685 0.7500 0.2102
C2_4 C 0.0341(4) 0.5826(3) 0.3342(3)
C3_4 C 0.1249(4) 0.6364(4) 0.3817(3)
C4_4 C 0.1825(5) 0.6579(4) 0.4256(3)
H5_4 H 0.2236 0.6912 0.4127
H6_4 H 0.2123 0.6179 0.4391
H7_4 H 0.1488 0.6785 0.4534
H10_4 H 0.0054 0.7500 0.5129
C10_4 C 0.1145(7) 0.5847(5) 0.1604(3)
C11_4 C 0.1405(7) 0.5433(6) 0.1106(4)
C12_4 C 0.0781(8) 0.5027(10) 0.0829(6)
H11_4 H 0.0223 0.4970 0.0957
C13_4 C 0.1050(8) 0.4722(12) 0.0359(7)
H12_4 H 0.0644 0.4507 0.0143
C14_4 C 0.1901(7) 0.4730(9) 0.0205(5)
C15_4 C 0.2503(6) 0.5102(5) 0.0480(3)
C16_4 C 0.2253(5) 0.5449(4) 0.0935(3)
H14_4 H 0.2661 0.5697 0.1129
C17_4 C 0.3420(5) 0.5118(4) 0.0306(3)
C18_4 C 0.3323(5) 0.6213(4) 0.2945(3)
H15_4 H 0.2855 0.6135 0.2704
H16_4 H 0.3798 0.5916 0.2853
H17_4 H 0.3139 0.6110 0.3300
C19_4 C 0.3600(4) 0.6953(3) 0.2913(2)
N6_4 N 0.0675(3) 0.8693(3) 0.30332(19)
N7_4 N 0.1268(3) 0.8344(3) 0.33405(19)
N8_4 N 0.0664(4) 0.9154(3) 0.3834(2)
O8_4 O 0.0124(3) 0.8793(2) 0.4994(2)
C21_4 C 0.0341(4) 0.9174(3) 0.3342(3)
C22_4 C 0.1249(4) 0.8636(4) 0.3817(3)
C23_4 C 0.1825(5) 0.8421(4) 0.4256(3)
H21_4 H 0.2236 0.8088 0.4127
H22_4 H 0.2123 0.8821 0.4391
H23_4 H 0.1488 0.8215 0.4534
C35_4 C 0.3323(5) 0.8787(4) 0.2945(3)
H29_4 H 0.2855 0.8865 0.2704
H30_4 H 0.3798 0.9084 0.2853
H31_4 H 0.3139 0.8890 0.3300
C36_4 C 0.3600(4) 0.8047(3) 0.2913(2)
H13_4 H 0.2069 0.4477 0.9908
H19_4 H 0.9708 0.0090 0.3390
C1_4 C 0.9674(5) 0.5319(4) 0.3172(3)
H2_4 H 0.9113 0.5525 0.3207
H3_4 H 0.9708 0.4910 0.3390
H4_4 H 0.9770 0.5193 0.2808
C5_4 C 0.9939(5) 0.6198(4) 0.5471(3)
C6_4 C 0.9882(6) 0.6868(4) 0.5758(3)
C7_4 C 0.9719(9) 0.6873(5) 0.6293(4)
H8_4 H 0.9649 0.6454 0.6473
C8_4 C 0.9658(15) 0.7500 0.6571(6)
H9_4 H 0.9578 0.7500 0.6937
C9_4 C 0.9954(7) 0.7500 0.5493(4)
O12_4 O 0.8953(3) 0.5398(3) 0.4386(2)
C20_4 C 0.9674(5) 0.9681(4) 0.3172(3)
H18_4 H 0.9113 0.9475 0.3207
H20_4 H 0.9770 0.9807 0.2808
C24_4 C 0.9939(5) 0.8802(4) 0.5471(3)
C25_4 C 0.9882(6) 0.8132(4) 0.5758(3)
C26_4 C 0.9719(9) 0.8127(5) 0.6293(4)
H24_4 H 0.9649 0.8546 0.6473
C27_4 C 0.6145(7) 0.5847(5) 0.3396(3)
C28_4 C 0.6405(7) 0.5433(6) 0.3894(4)
C29_4 C 0.5781(8) 0.5027(10) 0.4171(6)
H25_4 H 0.5223 0.4970 0.4043
C30_4 C 0.6050(8) 0.4722(12) 0.4641(7)
H26_4 H 0.5644 0.4507 0.4857
C31_4 C 0.6901(7) 0.4730(9) 0.4795(5)
H27_4 H 0.7069 0.4477 0.5092
C32_4 C 0.7503(6) 0.5102(5) 0.4520(3)
C33_4 C 0.7253(5) 0.5449(4) 0.4065(3)
H28_4 H 0.7661 0.5697 0.3871
C34_4 C 0.8420(5) 0.5118(4) 0.4694(3)
loop_
_geom_bond_atom_site_label_1
_geom_bond_atom_site_label_2
_geom_bond_site_symmetry_1
_geom_bond_site_symmetry_2
O2 C5 1_555 1_555
C1 H2 1_555 1_555
H4 C1 1_555 1_555
C6 C5 1_555 1_555
C7 C6 1_555 1_555
H8 C7 1_555 1_555
C8 C7 1_555 1_555
H9 C8 1_555 1_555
C9 C6 1_555 1_555
Zn7 O17 1_555 1_555
Zn12 O9 1_555 1_555
O9 C24 1_555 1_555
O17 C27 1_555 1_555
O19 Zn7 1_555 1_555
C20 H18 1_555 1_555
H19 C20 1_555 1_555
H20 C20 1_555 1_555
C25 C9 1_555 1_555
C26 C8 1_555 1_555
H24 C26 1_555 1_555
C27 O19 1_555 1_555
C28 C27 1_555 1_555
C29 C28 1_555 1_555
C33 C28 1_555 1_555
H28 C33 1_555 1_555
C34 O12 1_555 1_555
N10 N11 1_555 1_555
C24 C25 1_555 1_555
C25 C26 1_555 1_555
C32 C33 1_555 1_555
C32 C34 1_555 1_555
O14 Zn9 1_555 1_555
H26 C30 1_555 1_555
C31 C30 1_555 1_555
H27 C31 1_555 1_555
Zn1 N1 1_555 1_555
Zn2 N3 1_555 1_555
Zn3 N2 1_555 1_555
N1 N2 1_555 1_555
N2 C3 1_555 1_555
N3 C2 1_555 1_555
N4 C19 1_555 1_555
N5 Zn3 1_555 1_555
O1 Zn2 1_555 1_555
O3 C17 1_555 1_555
O5 Zn1 1_555 1_555
O6 Zn1 1_555 1_555
O7 Zn1 1_555 1_555
H1 O7 1_555 1_555
C2 N1 1_555 1_555
C3 N3 1_555 1_555
C4 C3 1_555 1_555
H5 C4 1_555 1_555
H6 C4 1_555 1_555
H7 C4 1_555 1_555
C10 O5 1_555 1_555
C11 C10 1_555 1_555
C12 C11 1_555 1_555
C16 C11 1_555 1_555
H14 C16 1_555 1_555
C17 C15 1_555 1_555
C18 H15 1_555 1_555
H16 C18 1_555 1_555
H17 C18 1_555 1_555
C19 N5 1_555 1_555
Zn4 O7 1_555 1_555
Zn7 N4 1_555 1_555
Zn6 N9 1_555 1_555
Zn8 N8 1_555 1_555
Zn10 O3 1_555 1_555
N6 Zn4 1_555 1_555
N7 Zn3 1_555 1_555
N8 C21 1_555 1_555
N9 N4 1_555 1_555
O8 Zn8 1_555 1_555
O11 Zn8 1_555 1_555
O15 Zn2 1_555 1_555
O16 Zn8 1_555 1_555
O18 Zn4 1_555 1_555
O20 Zn4 1_555 1_555
C21 N6 1_555 1_555
C22 N7 1_555 1_555
C23 C22 1_555 1_555
H21 C23 1_555 1_555
H22 C23 1_555 1_555
H23 C23 1_555 1_555
C35 H29 1_555 1_555
H30 C35 1_555 1_555
H31 C35 1_555 1_555
C36 N5 1_555 1_555
Zn3 O7 1_555 1_555
O6 C10 1_555 1_555
C15 C16 1_555 1_555
C18 C19 1_555 1_555
N6 N7 1_555 1_555
N8 C22 1_555 1_555
N9 C36 1_555 1_555
C35 C36 1_555 1_555
Zn11 O4 1_555 1_555
H12 C13 1_555 1_555
C14 C13 1_555 1_555
H12_2 C13_2 1_555 1_555
C14_2 C13_2 1_555 1_555
H13_2 C14_2 1_555 1_555
H26_2 C30_2 1_555 1_555
C31_2 C30_2 1_555 1_555
O14_2 Zn10 1_555 1_555
Zn1_2 N1_2 1_555 1_555
Zn11 N3_2 1_555 1_555
Zn3_2 N2_2 1_555 1_555
N1_2 N2_2 1_555 1_555
N2_2 C3_2 1_555 1_555
N3_2 C2_2 1_555 1_555
N4_2 C19_2 1_555 1_555
N5_2 Zn3_2 1_555 1_555
O1_2 Zn11 1_555 1_555
O3_2 C17_2 1_555 1_555
O5_2 Zn1_2 1_555 1_555
O6_2 Zn1_2 1_555 1_555
O7_2 Zn1_2 1_555 1_555
H1_2 O7_2 1_555 1_555
C1_2 H2_2 1_555 1_555
H4_2 C1_2 1_555 1_555
C2_2 N1_2 1_555 1_555
C3_2 N3_2 1_555 1_555
C4_2 C3_2 1_555 1_555
H5_2 C4_2 1_555 1_555
H6_2 C4_2 1_555 1_555
H7_2 C4_2 1_555 1_555
C10_2 O5_2 1_555 1_555
C11_2 C10_2 1_555 1_555
C12_2 C11_2 1_555 1_555
C16_2 C11_2 1_555 1_555
H14_2 C16_2 1_555 1_555
C17_2 C15_2 1_555 1_555
C18_2 H15_2 1_555 1_555
H16_2 C18_2 1_555 1_555
H17_2 C18_2 1_555 1_555
C19_2 N5_2 1_555 1_555
Zn4_2 O7_2 1_555 1_555
Zn5 O17_2 1_555 1_555
Zn8_2 N8_2 1_555 1_555
N6_2 Zn4_2 1_555 1_555
N7_2 Zn3_2 1_555 1_555
N8_2 C21_2 1_555 1_555
N9_2 N4_2 1_555 1_555
N10_2 Zn1_2 1_555 1_555
N11_2 Zn4_2 1_555 1_555
O8_2 Zn8_2 1_555 1_555
O11_2 Zn8_2 1_555 1_555
O12_2 Zn11 1_555 1_555
O13_2 Zn8_2 1_555 1_555
O16_2 Zn8_2 1_555 1_555
O17_2 C27_2 1_555 1_555
O18_2 Zn4_2 1_555 1_555
O19_2 Zn5 1_555 1_555
O20_2 Zn4_2 1_555 1_555
C20_2 H18_2 1_555 1_555
H19_2 C20_2 1_555 1_555
H20_2 C20_2 1_555 1_555
C21_2 N6_2 1_555 1_555
C22_2 N7_2 1_555 1_555
C23_2 C22_2 1_555 1_555
H21_2 C23_2 1_555 1_555
H22_2 C23_2 1_555 1_555
H23_2 C23_2 1_555 1_555
C27_2 O19_2 1_555 1_555
C28_2 C27_2 1_555 1_555
C29_2 C28_2 1_555 1_555
C33_2 C28_2 1_555 1_555
H28_2 C33_2 1_555 1_555
C34_2 O12_2 1_555 1_555
C35_2 H29_2 1_555 1_555
H30_2 C35_2 1_555 1_555
H31_2 C35_2 1_555 1_555
C36_2 N5_2 1_555 1_555
Zn3_2 O7_2 1_555 1_555
O6_2 C10_2 1_555 1_555
C1_2 C2_2 1_555 1_555
C15_2 C16_2 1_555 1_555
C18_2 C19_2 1_555 1_555
N6_2 N7_2 1_555 1_555
N8_2 C22_2 1_555 1_555
N9_2 C36_2 1_555 1_555
N10_2 N11_2 1_555 1_555
C20_2 C21_2 1_555 1_555
C32_2 C33_2 1_555 1_555
C32_2 C34_2 1_555 1_555
C35_2 C36_2 1_555 1_555
O2_2 C5_2 1_555 1_555
C6_2 C5_2 1_555 1_555
C7_2 C6_2 1_555 1_555
H8_2 C7_2 1_555 1_555
C8_2 C7_2 1_555 1_555
H9_2 C8_2 1_555 1_555
C9_2 C6_2 1_555 1_555
H10_2 C9_2 1_555 1_555
Zn12_2 O9_2 1_555 1_555
O9_2 C24_2 1_555 1_555
C25_2 C9_2 1_555 1_555
C26_2 C8_2 1_555 1_555
H24_2 C26_2 1_555 1_555
C24_2 C25_2 1_555 1_555
C25_2 C26_2 1_555 1_555
O11_2 C5_3 1_555 1_555
C6_3 C5_3 1_555 1_555
C7_3 C6_3 1_555 1_555
H8_3 C7_3 1_555 1_555
C8_3 C7_3 1_555 1_555
H9_3 C8_3 1_555 1_555
C9_3 C6_3 1_555 1_555
H10_3 C9_3 1_555 1_555
O10_2 C24_3 1_555 1_555
C25_3 C9_3 1_555 1_555
C26_3 C8_3 1_555 1_555
H24_3 C26_3 1_555 1_555
C24_3 C25_3 1_555 1_555
C25_3 C26_3 1_555 1_555
Zn6 N1_3 1_555 1_555
Zn12_2 N3_3 1_555 1_555
Zn3_3 N2_3 1_555 1_555
N1_3 N2_3 1_555 1_555
N2_3 C3_3 1_555 1_555
N3_3 C2_3 1_555 1_555
N11 C19_3 1_555 1_555
N5_3 Zn3_3 1_555 1_555
O1_3 Zn12_2 1_555 1_555
O13 C17_3 1_555 1_555
O4_2 C17_3 1_555 1_555
O5_3 Zn6 1_555 1_555
O6_3 Zn6 1_555 1_555
O7_3 Zn6 1_555 1_555
H1_3 O7_3 1_555 1_555
C1_3 H2_3 1_555 1_555
H3_3 C1_3 1_555 1_555
H4_3 C1_3 1_555 1_555
C2_3 N1_3 1_555 1_555
C3_3 N3_3 1_555 1_555
C4_3 C3_3 1_555 1_555
H5_3 C4_3 1_555 1_555
H6_3 C4_3 1_555 1_555
H7_3 C4_3 1_555 1_555
C10_3 O5_3 1_555 1_555
C11_3 C10_3 1_555 1_555
C12_3 C11_3 1_555 1_555
H11_3 C12_3 1_555 1_555
C13_3 C12_3 1_555 1_555
H12_3 C13_3 1_555 1_555
C14_3 C13_3 1_555 1_555
H13_3 C14_3 1_555 1_555
C15_3 C14_3 1_555 1_555
C16_3 C11_3 1_555 1_555
H14_3 C16_3 1_555 1_555
C17_3 C15_3 1_555 1_555
C18_3 H15_3 1_555 1_555
H16_3 C18_3 1_555 1_555
H17_3 C18_3 1_555 1_555
C19_3 N5_3 1_555 1_555
Zn7 O7_3 1_555 1_555
Zn10 N8_3 1_555 1_555
Zn12 O4_2 1_555 1_555
N6_3 Zn7 1_555 1_555
N7_3 Zn3_3 1_555 1_555
N8_3 C21_3 1_555 1_555
O8_3 Zn10 1_555 1_555
O12_3 Zn12_2 1_555 1_555
O15_2 Zn12_2 1_555 1_555
O18 C27_3 1_555 1_555
C20_3 H18_3 1_555 1_555
H20_3 C20_3 1_555 1_555
C21_3 N6_3 1_555 1_555
C22_3 N7_3 1_555 1_555
C23_3 C22_3 1_555 1_555
H21_3 C23_3 1_555 1_555
H22_3 C23_3 1_555 1_555
H23_3 C23_3 1_555 1_555
C27_3 O20 1_555 1_555
C28_3 C27_3 1_555 1_555
C29_3 C28_3 1_555 1_555
H25_3 C29_3 1_555 1_555
C30_3 C29_3 1_555 1_555
H26_3 C30_3 1_555 1_555
C31_3 C30_3 1_555 1_555
C32_3 C31_3 1_555 1_555
C33_3 C28_3 1_555 1_555
H28_3 C33_3 1_555 1_555
C34_3 O12_3 1_555 1_555
C35_3 H29_3 1_555 1_555
H30_3 C35_3 1_555 1_555
H31_3 C35_3 1_555 1_555
C36_3 N5_3 1_555 1_555
Zn3_3 O7_3 1_555 1_555
O6_3 C10_3 1_555 1_555
C1_3 C2_3 1_555 1_555
C15_3 C16_3 1_555 1_555
C18_3 C19_3 1_555 1_555
N6_3 N7_3 1_555 1_555
N8_3 C22_3 1_555 1_555
N10 C36_3 1_555 1_555
C20_3 C21_3 1_555 1_555
C32_3 C33_3 1_555 1_555
C32_3 C34_3 1_555 1_555
C35_3 C36_3 1_555 1_555
Zn6_2 N1_4 1_555 1_555
Zn12 N3_4 1_555 1_555
Zn3_4 N2_4 1_555 1_555
N1_4 N2_4 1_555 1_555
N2_4 C3_4 1_555 1_555
N3_4 C2_4 1_555 1_555
N11_2 C19_4 1_555 1_555
N5_4 Zn3_4 1_555 1_555
O1_4 Zn12 1_555 1_555
O13_2 C17_4 1_555 1_555
O5_4 Zn6_2 1_555 1_555
O6_4 Zn6_2 1_555 1_555
O7_4 Zn6_2 1_555 1_555
H1_4 O7_4 1_555 1_555
C2_4 N1_4 1_555 1_555
C3_4 N3_4 1_555 1_555
C4_4 C3_4 1_555 1_555
H5_4 C4_4 1_555 1_555
H6_4 C4_4 1_555 1_555
H7_4 C4_4 1_555 1_555
C10_4 O5_4 1_555 1_555
C11_4 C10_4 1_555 1_555
C12_4 C11_4 1_555 1_555
H11_4 C12_4 1_555 1_555
C13_4 C12_4 1_555 1_555
H12_4 C13_4 1_555 1_555
C14_4 C13_4 1_555 1_555
C15_4 C14_4 1_555 1_555
C16_4 C11_4 1_555 1_555
H14_4 C16_4 1_555 1_555
C17_4 C15_4 1_555 1_555
C18_4 H15_4 1_555 1_555
H16_4 C18_4 1_555 1_555
H17_4 C18_4 1_555 1_555
C19_4 N5_4 1_555 1_555
Zn5 O7_4 1_555 1_555
Zn9 N8_4 1_555 1_555
N6_4 Zn5 1_555 1_555
N7_4 Zn3_4 1_555 1_555
N8_4 C21_4 1_555 1_555
O8_4 Zn9 1_555 1_555
C21_4 N6_4 1_555 1_555
C22_4 N7_4 1_555 1_555
C23_4 C22_4 1_555 1_555
H21_4 C23_4 1_555 1_555
H22_4 C23_4 1_555 1_555
H23_4 C23_4 1_555 1_555
C35_4 H29_4 1_555 1_555
H30_4 C35_4 1_555 1_555
H31_4 C35_4 1_555 1_555
C36_4 N5_4 1_555 1_555
Zn3_4 O7_4 1_555 1_555
O6_4 C10_4 1_555 1_555
C15_4 C16_4 1_555 1_555
C18_4 C19_4 1_555 1_555
N6_4 N7_4 1_555 1_555
N8_4 C22_4 1_555 1_555
N10_2 C36_4 1_555 1_555
C35_4 C36_4 1_555 1_555
O11 C5_4 1_555 1_555
C1_4 H2_4 1_555 1_555
H3_4 C1_4 1_555 1_555
H4_4 C1_4 1_555 1_555
C6_4 C5_4 1_555 1_555
C7_4 C6_4 1_555 1_555
H8_4 C7_4 1_555 1_555
C8_4 C7_4 1_555 1_555
H9_4 C8_4 1_555 1_555
C9_4 C6_4 1_555 1_555
O10 C24_4 1_555 1_555
O18_2 C27_4 1_555 1_555
C20_4 H18_4 1_555 1_555
H20_4 C20_4 1_555 1_555
C25_4 C9_4 1_555 1_555
C26_4 C8_4 1_555 1_555
H24_4 C26_4 1_555 1_555
C27_4 O20_2 1_555 1_555
C28_4 C27_4 1_555 1_555
C29_4 C28_4 1_555 1_555
H25_4 C29_4 1_555 1_555
C30_4 C29_4 1_555 1_555
H26_4 C30_4 1_555 1_555
C31_4 C30_4 1_555 1_555
H27_4 C31_4 1_555 1_555
C32_4 C31_4 1_555 1_555
C33_4 C28_4 1_555 1_555
H28_4 C33_4 1_555 1_555
C34_4 O12_4 1_555 1_555
O16 C34_4 1_555 1_555
C24_4 C25_4 1_555 1_555
C25_4 C26_4 1_555 1_555
C32_4 C33_4 1_555 1_555
C32_4 C34_4 1_555 1_555

#END
