
###############################################################################
#
# This file contains modified crystal structure data generated from the
# MOF subset of the Cambridge Structural Database (CSD) v543 
# hosted by the Cambridge Crystallographic Data Centre (CCDC).
#
# This work is licensed under the Creative Commons
# Attribution-NonCommercial-ShareAlike 4.0 International License.
# To view a copy of this license, visit
# http://creativecommons.org/licenses/by-nc-sa/4.0/
# or send a letter to
# Creative Commons, PO Box 1866, Mountain View, CA 94042, USA.
#
# CIF created using the CSD Python API on 29 September 2022
# The structure has been converted into the P1 space group
# The structure has a 3D framework
# The original CSD entry CAVREY is in the orthorhombic crystal system
# The framework has been calculated to contain at least 10.0% void space
# The void calculation uses a probe of radius 1.32A, grid spacing 0.4
#
###############################################################################

data_CAVREY
_chemical_formula_moiety         '(C144 H124 N36 O58 Zn20)n'
_symmetry_cell_setting           triclinic
_symmetry_space_group_name_H-M   'P 1'
_symmetry_Int_Tables_number      1
_space_group_name_Hall           'P 1'
loop_
_symmetry_equiv_pos_site_id
_symmetry_equiv_pos_as_xyz
1 x,y,z
_cell_length_a                   15.585(4)
_cell_length_b                   19.237(5)
_cell_length_c                   25.305(7)
_cell_angle_alpha                90
_cell_angle_beta                 90
_cell_angle_gamma                90
_cell_volume                     7586.66
loop_
_atom_site_label
_atom_site_type_symbol
_atom_site_fract_x
_atom_site_fract_y
_atom_site_fract_z
Zn12 Zn 0.52841(9) 0.03562(8) 0.45049(5)
O13 O 0.4758(6) 0.0660(5) 0.5719(4)
H23 H 0.5282 0.0088 0.6613
O4 O 0.1405(6) 0.4826(5) 0.0104(4)
H12 H 0.2869 0.4413 0.0013
Zn11 Zn 0.02841(9) 0.46438(8) 0.04951(5)
Zn1 Zn 0.44622(8) 0.66246(8) 0.77113(5)
Zn2 Zn 0.47159(9) 0.53562(8) 0.54951(5)
Zn3 Zn 0.31579(11) 0.7500 0.69614(7)
N1 N 0.3713(6) 0.6654(5) 0.6657(3)
N2 N 0.4299(6) 0.6305(5) 0.6957(3)
N3 N 0.4309(6) 0.5846(5) 0.6161(4)
N4 N 0.1910(9) 0.7500 0.7039(5)
N5 N 0.0591(6) 0.7148(5) 0.7212(4)
O1 O 0.4845(6) 0.6211(5) 0.5017(4)
O2 O 0.5242(6) 0.5660(5) 0.4281(4)
O3 O 0.1006(6) 0.5383(5) 0.9379(4)
O5 O 0.3251(9) 0.6053(8) 0.8071(5)
O6 O 0.4565(7) 0.5894(8) 0.8271(4)
O7 O 0.3752(7) 0.7500 0.7652(4)
H1 H 0.3341 0.7500 0.7901
O8 O 0.5454(18) 0.7500 0.2912(7)
H2 H 0.5148 0.7500 0.2615
O9 O 0.4471(13) 0.4248(17) 0.9815(12)
H3 H 0.4830 0.4509 0.9944
C1 C 0.3154(10) 0.6569(8) 0.5742(5)
H4 H 0.3470 0.6845 0.5493
H5 H 0.2684 0.6836 0.5880
H6 H 0.2935 0.6162 0.5568
C2 C 0.3727(8) 0.6357(7) 0.6181(4)
C3 C 0.4644(7) 0.5822(7) 0.6651(4)
C4 C 0.5307(10) 0.5322(8) 0.6828(6)
H7 H 0.5864 0.5531 0.6796
H8 H 0.5282 0.4912 0.6613
H9 H 0.5206 0.5200 0.7191
C5 C 0.5071(8) 0.6198(7) 0.4534(5)
C6 C 0.5112(9) 0.6868(7) 0.4255(5)
C7 C 0.5030(11) 0.7500 0.4515(7)
H10 H 0.4917 0.7500 0.4876
C8 C 0.5255(12) 0.6861(8) 0.3706(6)
H11 H 0.5337 0.6443 0.3529
C9 C 0.527(2) 0.7500 0.3426(9)
C10 C 0.1553(9) 0.5108(8) 0.9665(5)
C11 C 0.2451(9) 0.5046(10) 0.9462(6)
C12 C 0.3030(13) 0.4666(16) 0.9715(10)
C13 C 0.3853(15) 0.464(2) 0.9546(14)
C14 C 0.4129(13) 0.4983(16) 0.9087(10)
H13 H 0.4685 0.4936 0.8959
C15 C 0.3528(9) 0.5391(9) 0.8838(6)
C16 C 0.2701(8) 0.5414(8) 0.9013(5)
H14 H 0.2298 0.5678 0.8830
C17 C 0.3794(11) 0.5815(9) 0.8364(6)
C18 C 0.1666(9) 0.6211(7) 0.7081(6)
H15 H 0.1967 0.6133 0.6755
H16 H 0.1169 0.5917 0.7095
H17 H 0.2037 0.6105 0.7373
C19 C 0.1396(8) 0.6950(7) 0.7112(5)
Zn4 Zn 0.44622(8) 0.83754(8) 0.77113(5)
Zn7 Zn 0.94622(8) 0.66246(8) 0.72887(5)
Zn8 Zn 0.47159(9) 0.96438(8) 0.54951(5)
Zn9 Zn 0.52841(9) 0.46438(8) 0.45049(5)
N6 N 0.3713(6) 0.8346(5) 0.6657(3)
N7 N 0.4299(6) 0.8695(5) 0.6957(3)
N8 N 0.4309(6) 0.9154(5) 0.6161(4)
N9 N 0.0591(6) 0.7852(5) 0.7212(4)
N10 N 0.5591(6) 0.7148(5) 0.7788(4)
N11 N 0.5591(6) 0.7852(5) 0.7788(4)
O10 O 0.4845(6) 0.8789(5) 0.5017(4)
O11 O 0.5242(6) 0.9340(5) 0.4281(4)
O12 O 0.4758(6) 0.4340(5) 0.5719(4)
O14 O 0.6006(6) 0.5383(5) 0.5621(4)
O15 O 0.6006(6) 0.9617(5) 0.5621(4)
O16 O 0.6405(6) 0.4826(5) 0.4896(4)
O17 O 0.3595(6) 0.5174(5) 0.5104(4)
O18 O 0.3595(6) 0.9826(5) 0.5104(4)
O19 O 0.8251(9) 0.6053(8) 0.6929(5)
O20 O 0.9565(7) 0.5894(8) 0.6729(4)
O21 O 0.4565(7) 0.9106(8) 0.8271(4)
O22 O 0.9471(13) 0.4248(17) 0.5185(12)
H18 H 0.9830 0.4509 0.5056
C20 C 0.3154(10) 0.8431(8) 0.5742(5)
H19 H 0.3470 0.8155 0.5493
H20 H 0.2684 0.8164 0.5880
H21 H 0.2935 0.8838 0.5568
C21 C 0.3727(8) 0.8643(7) 0.6181(4)
C22 C 0.4644(7) 0.9178(7) 0.6651(4)
C23 C 0.5307(10) 0.9678(8) 0.6828(6)
H22 H 0.5864 0.9469 0.6796
H24 H 0.5206 0.9800 0.7191
C24 C 0.5071(8) 0.8802(7) 0.4534(5)
C25 C 0.5112(9) 0.8132(7) 0.4255(5)
C26 C 0.5255(12) 0.8139(8) 0.3706(6)
H25 H 0.5337 0.8557 0.3529
C27 C 0.6553(9) 0.5108(8) 0.5335(5)
C28 C 0.7451(9) 0.5046(10) 0.5538(6)
C29 C 0.8030(13) 0.4666(16) 0.5285(10)
H26 H 0.7869 0.4413 0.4987
C30 C 0.8853(15) 0.464(2) 0.5454(14)
C31 C 0.9129(13) 0.4983(16) 0.5913(10)
H27 H 0.9685 0.4936 0.6041
C32 C 0.8528(9) 0.5391(9) 0.6162(6)
C33 C 0.7701(8) 0.5414(8) 0.5987(5)
H28 H 0.7298 0.5678 0.6170
C34 C 0.8794(11) 0.5815(9) 0.6636(6)
C35 C 0.1666(9) 0.8789(7) 0.7081(6)
H29 H 0.1967 0.8867 0.6755
H30 H 0.1169 0.9083 0.7095
H31 H 0.2037 0.8895 0.7373
C36 C 0.1396(8) 0.8050(7) 0.7112(5)
Zn6 Zn 0.94622(8) 0.83754(8) 0.72887(5)
Zn10 Zn 0.97159(9) 0.53562(8) 0.95049(5)
Zn1_2 Zn 0.05378(8) 0.33754(8) 0.27113(5)
Zn3_2 Zn 0.18421(11) 0.2500 0.19614(7)
N1_2 N 0.1287(6) 0.3346(5) 0.1657(3)
N2_2 N 0.0701(6) 0.3695(5) 0.1957(3)
N3_2 N 0.0691(6) 0.4154(5) 0.1161(4)
N4_2 N 0.3090(9) 0.2500 0.2039(5)
N5_2 N 0.4409(6) 0.2852(5) 0.2212(4)
O1_2 O 0.0155(6) 0.3789(5) 0.0017(4)
O3_2 O 0.3994(6) 0.4617(5) 0.4379(4)
O5_2 O 0.1749(9) 0.3947(8) 0.3071(5)
O6_2 O 0.0435(7) 0.4106(8) 0.3271(4)
O7_2 O 0.1248(7) 0.2500 0.2652(4)
H1_2 H 0.1659 0.2500 0.2901
O9_2 O 0.0529(13) 0.5752(17) 0.4815(12)
H3_2 H 0.0170 0.5491 0.4944
C1_2 C 0.1846(10) 0.3431(8) 0.0742(5)
H4_2 H 0.1530 0.3155 0.0493
H5_2 H 0.2316 0.3164 0.0880
H6_2 H 0.2065 0.3838 0.0568
C2_2 C 0.1273(8) 0.3643(7) 0.1181(4)
C3_2 C 0.0356(7) 0.4178(7) 0.1651(4)
C10_2 C 0.3447(9) 0.4892(8) 0.4665(5)
C11_2 C 0.2549(9) 0.4954(10) 0.4462(6)
C12_2 C 0.1970(13) 0.5334(16) 0.4715(10)
H12_2 H 0.2131 0.5587 0.5013
C13_2 C 0.1147(15) 0.536(2) 0.4546(14)
C14_2 C 0.0871(13) 0.5017(16) 0.4087(10)
H13_2 H 0.0315 0.5064 0.3959
C15_2 C 0.1472(9) 0.4609(9) 0.3838(6)
C16_2 C 0.2299(8) 0.4586(8) 0.4013(5)
H14_2 H 0.2702 0.4322 0.3830
C17_2 C 0.1206(11) 0.4185(9) 0.3364(6)
C18_2 C 0.3334(9) 0.3789(7) 0.2081(6)
H15_2 H 0.3033 0.3867 0.1755
H16_2 H 0.3831 0.4083 0.2095
H17_2 H 0.2963 0.3895 0.2373
C19_2 C 0.3604(8) 0.3050(7) 0.2112(5)
Zn4_2 Zn 0.05378(8) 0.16246(8) 0.27113(5)
Zn5 Zn 0.55378(8) 0.33754(8) 0.22887(5)
Zn6_2 Zn 0.55378(8) 0.16246(8) 0.22887(5)
Zn8_2 Zn 0.02841(9) 0.03562(8) 0.04951(5)
N6_2 N 0.1287(6) 0.1654(5) 0.1657(3)
N7_2 N 0.0701(6) 0.1305(5) 0.1957(3)
N8_2 N 0.0691(6) 0.0846(5) 0.1161(4)
N9_2 N 0.4409(6) 0.2148(5) 0.2212(4)
O10_2 O 0.0155(6) 0.1211(5) 0.0017(4)
O12_2 O 0.0242(6) 0.5660(5) 0.0719(4)
O18_2 O 0.1405(6) 0.0174(5) 0.0104(4)
O21_2 O 0.0435(7) 0.0894(8) 0.3271(4)
C20_2 C 0.1846(10) 0.1569(8) 0.0742(5)
H19_2 H 0.1530 0.1845 0.0493
H20_2 H 0.2316 0.1836 0.0880
H21_2 H 0.2065 0.1162 0.0568
C21_2 C 0.1273(8) 0.1357(7) 0.1181(4)
C22_2 C 0.0356(7) 0.0822(7) 0.1651(4)
C35_2 C 0.3334(9) 0.1211(7) 0.2081(6)
H29_2 H 0.3033 0.1133 0.1755
H30_2 H 0.3831 0.0917 0.2095
H31_2 H 0.2963 0.1105 0.2373
C36_2 C 0.3604(8) 0.1950(7) 0.2112(5)
O13_2 O 0.0242(6) 0.9340(5) 0.0719(4)
C4_2 C 0.9693(10) 0.4678(8) 0.1828(6)
H7_2 H 0.9136 0.4469 0.1796
H8_2 H 0.9718 0.5088 0.1613
H9_2 H 0.9794 0.4800 0.2191
N10_2 N 0.9409(6) 0.2852(5) 0.2788(4)
N11_2 N 0.9409(6) 0.2148(5) 0.2788(4)
O14_2 O 0.8994(6) 0.4617(5) 0.0621(4)
O15_2 O 0.8994(6) 0.0383(5) 0.0621(4)
O19_2 O 0.6749(9) 0.3947(8) 0.1929(5)
O20_2 O 0.5435(7) 0.4106(8) 0.1729(4)
O22_2 O 0.5529(13) 0.5752(17) 0.0185(12)
H18_2 H 0.5170 0.5491 0.0056
C23_2 C 0.9693(10) 0.0322(8) 0.1828(6)
H22_2 H 0.9136 0.0531 0.1796
H24_2 H 0.9794 0.0200 0.2191
C27_2 C 0.8447(9) 0.4892(8) 0.0335(5)
C28_2 C 0.7549(9) 0.4954(10) 0.0538(6)
C29_2 C 0.6970(13) 0.5334(16) 0.0285(10)
C30_2 C 0.6147(15) 0.536(2) 0.0454(14)
C31_2 C 0.5871(13) 0.5017(16) 0.0913(10)
H27_2 H 0.5315 0.5064 0.1041
C32_2 C 0.6472(9) 0.4609(9) 0.1162(6)
C33_2 C 0.7299(8) 0.4586(8) 0.0987(5)
H28_2 H 0.7702 0.4322 0.1170
C34_2 C 0.6206(11) 0.4185(9) 0.1636(6)
O2_2 O 0.9758(6) 0.4340(5) 0.9281(4)
O8_2 O 0.9546(18) 0.2500 0.7912(7)
H2_2 H 0.9852 0.2500 0.7615
C5_2 C 0.9929(8) 0.3802(7) 0.9534(5)
C6_2 C 0.9888(9) 0.3132(7) 0.9255(5)
C7_2 C 0.9970(11) 0.2500 0.9515(7)
C8_2 C 0.9745(12) 0.3139(8) 0.8706(6)
H11_2 H 0.9663 0.3557 0.8529
C9_2 C 0.973(2) 0.2500 0.8426(9)
O11_2 O 0.9758(6) 0.0660(5) 0.9281(4)
O16_2 O 0.8595(6) 0.5174(5) 0.9896(4)
C24_2 C 0.9929(8) 0.1198(7) 0.9534(5)
C25_2 C 0.9888(9) 0.1868(7) 0.9255(5)
C26_2 C 0.9745(12) 0.1861(8) 0.8706(6)
H25_2 H 0.9663 0.1443 0.8529
H26_2 H 0.7131 0.5587 0.9987
H23_2 H 0.9718 0.9912 0.1613
Zn12_2 Zn 0.97159(9) 0.96438(8) 0.95049(5)
H26_3 H 0.2869 0.0587 0.0013
H8_3 H 0.0282 0.0088 0.8387
O22_3 O 0.4471(13) 0.0752(17) 0.9815(12)
H18_3 H 0.4830 0.0491 0.9944
C29_3 C 0.3030(13) 0.0334(16) 0.9715(10)
C30_3 C 0.3853(15) 0.036(2) 0.9546(14)
C31_3 C 0.4129(13) 0.0017(16) 0.9087(10)
H27_3 H 0.4685 0.0064 0.8959
O8_3 O 0.0454(18) 0.7500 0.2088(7)
H2_3 H 0.0148 0.7500 0.2385
C5_3 C 0.0071(8) 0.8802(7) 0.0466(5)
C6_3 C 0.0112(9) 0.8132(7) 0.0745(5)
C7_3 C 0.0030(11) 0.7500 0.0485(7)
C8_3 C 0.0255(12) 0.8139(8) 0.1294(6)
H11_3 H 0.0337 0.8557 0.1471
C9_3 C 0.027(2) 0.7500 0.1574(9)
C24_3 C 0.0071(8) 0.6198(7) 0.0466(5)
C25_3 C 0.0112(9) 0.6868(7) 0.0745(5)
C26_3 C 0.0255(12) 0.6861(8) 0.1294(6)
H25_3 H 0.0337 0.6443 0.1471
C4_3 C 0.0307(10) 0.9678(8) 0.8172(6)
H7_3 H 0.0864 0.9469 0.8204
H9_3 H 0.0206 0.9800 0.7809
O14_3 O 0.1006(6) 0.9617(5) 0.9379(4)
O19_3 O 0.3251(9) 0.8947(8) 0.8071(5)
C23_3 C 0.0307(10) 0.5322(8) 0.8172(6)
H22_3 H 0.0864 0.5531 0.8204
H23_3 H 0.0282 0.4912 0.8387
H24_3 H 0.0206 0.5200 0.7809
C27_3 C 0.1553(9) 0.9892(8) 0.9665(5)
C28_3 C 0.2451(9) 0.9954(10) 0.9462(6)
C32_3 C 0.3528(9) 0.9609(9) 0.8838(6)
C33_3 C 0.2701(8) 0.9586(8) 0.9013(5)
H28_3 H 0.2298 0.9322 0.8830
C34_3 C 0.3794(11) 0.9185(9) 0.8364(6)
O4_2 O 0.6405(6) 0.0174(5) 0.4896(4)
O9_3 O 0.9471(13) 0.0752(17) 0.5185(12)
H3_3 H 0.9830 0.0491 0.5056
C12_3 C 0.8030(13) 0.0334(16) 0.5285(10)
H12_3 H 0.7869 0.0587 0.4987
C13_3 C 0.8853(15) 0.036(2) 0.5454(14)
C14_3 C 0.9129(13) 0.0017(16) 0.5913(10)
H13_3 H 0.9685 0.0064 0.6041
Zn3_3 Zn 0.81579(11) 0.7500 0.80386(7)
N1_3 N 0.8713(6) 0.8346(5) 0.8343(3)
N2_3 N 0.9299(6) 0.8695(5) 0.8043(3)
N3_3 N 0.9309(6) 0.9154(5) 0.8839(4)
N4_3 N 0.6910(9) 0.7500 0.7961(5)
O1_3 O 0.9845(6) 0.8789(5) 0.9983(4)
O5_3 O 0.8251(9) 0.8947(8) 0.6929(5)
O6_3 O 0.9565(7) 0.9106(8) 0.6729(4)
O7_3 O 0.8752(7) 0.7500 0.7348(4)
H1_3 H 0.8341 0.7500 0.7099
C1_3 C 0.8154(10) 0.8431(8) 0.9258(5)
H4_3 H 0.8470 0.8155 0.9507
H5_3 H 0.7684 0.8164 0.9120
H6_3 H 0.7935 0.8838 0.9432
C2_3 C 0.8727(8) 0.8643(7) 0.8819(4)
C3_3 C 0.9644(7) 0.9178(7) 0.8349(4)
C10_3 C 0.6553(9) 0.9892(8) 0.5335(5)
C11_3 C 0.7451(9) 0.9954(10) 0.5538(6)
C15_3 C 0.8528(9) 0.9609(9) 0.6162(6)
C16_3 C 0.7701(8) 0.9586(8) 0.5987(5)
H14_3 H 0.7298 0.9322 0.6170
C17_3 C 0.8794(11) 0.9185(9) 0.6636(6)
C18_3 C 0.6666(9) 0.8789(7) 0.7919(6)
H15_3 H 0.6967 0.8867 0.8245
H16_3 H 0.6169 0.9083 0.7905
H17_3 H 0.7037 0.8895 0.7627
C19_3 C 0.6396(8) 0.8050(7) 0.7888(5)
N6_3 N 0.8713(6) 0.6654(5) 0.8343(3)
N7_3 N 0.9299(6) 0.6305(5) 0.8043(3)
N8_3 N 0.9309(6) 0.5846(5) 0.8839(4)
O10_3 O 0.9845(6) 0.6211(5) 0.9983(4)
O17_2 O 0.8595(6) 0.9826(5) 0.9896(4)
C20_3 C 0.8154(10) 0.6569(8) 0.9258(5)
H19_3 H 0.8470 0.6845 0.9507
H20_3 H 0.7684 0.6836 0.9120
H21_3 H 0.7935 0.6162 0.9432
C21_3 C 0.8727(8) 0.6357(7) 0.8819(4)
C22_3 C 0.9644(7) 0.5822(7) 0.8349(4)
C35_3 C 0.6666(9) 0.6211(7) 0.7919(6)
H29_3 H 0.6967 0.6133 0.8245
H30_3 H 0.6169 0.5917 0.7905
H31_3 H 0.7037 0.6105 0.7627
C36_3 C 0.6396(8) 0.6950(7) 0.7888(5)
Zn3_4 Zn 0.68421(11) 0.2500 0.30386(7)
N1_4 N 0.6287(6) 0.1654(5) 0.3343(3)
N2_4 N 0.5701(6) 0.1305(5) 0.3043(3)
N3_4 N 0.5691(6) 0.0846(5) 0.3839(4)
N4_4 N 0.8090(9) 0.2500 0.2961(5)
O1_4 O 0.5155(6) 0.1211(5) 0.4983(4)
O5_4 O 0.6749(9) 0.1053(8) 0.1929(5)
O6_4 O 0.5435(7) 0.0894(8) 0.1729(4)
O7_4 O 0.6248(7) 0.2500 0.2348(4)
H1_4 H 0.6659 0.2500 0.2099
O8_4 O 0.4546(18) 0.2500 0.7088(7)
H2_4 H 0.4852 0.2500 0.7385
C1_4 C 0.6846(10) 0.1569(8) 0.4258(5)
H4_4 H 0.6530 0.1845 0.4507
H5_4 H 0.7316 0.1836 0.4120
H6_4 H 0.7065 0.1162 0.4432
C2_4 C 0.6273(8) 0.1357(7) 0.3819(4)
C3_4 C 0.5356(7) 0.0822(7) 0.3349(4)
C4_4 C 0.4693(10) 0.0322(8) 0.3172(6)
H7_4 H 0.4136 0.0531 0.3204
H9_4 H 0.4794 0.0200 0.2809
C5_4 C 0.4929(8) 0.1198(7) 0.5466(5)
C6_4 C 0.4888(9) 0.1868(7) 0.5745(5)
C7_4 C 0.4970(11) 0.2500 0.5485(7)
H10_2 H 0.5083 0.2500 0.5124
C8_4 C 0.4745(12) 0.1861(8) 0.6294(6)
H11_4 H 0.4663 0.1443 0.6471
C9_4 C 0.473(2) 0.2500 0.6574(9)
C10_4 C 0.8447(9) 0.0108(8) 0.0335(5)
C11_4 C 0.7549(9) 0.0046(10) 0.0538(6)
C15_4 C 0.6472(9) 0.0391(9) 0.1162(6)
C16_4 C 0.7299(8) 0.0414(8) 0.0987(5)
H14_4 H 0.7702 0.0678 0.1170
C17_4 C 0.6206(11) 0.0815(9) 0.1636(6)
C18_4 C 0.8334(9) 0.1211(7) 0.2919(6)
H15_4 H 0.8033 0.1133 0.3245
H16_4 H 0.8831 0.0917 0.2905
H17_4 H 0.7963 0.1105 0.2627
C19_4 C 0.8604(8) 0.1950(7) 0.2888(5)
N6_4 N 0.6287(6) 0.3346(5) 0.3343(3)
N7_4 N 0.5701(6) 0.3695(5) 0.3043(3)
N8_4 N 0.5691(6) 0.4154(5) 0.3839(4)
O10_4 O 0.5155(6) 0.3789(5) 0.4983(4)
O14_4 O 0.3994(6) 0.0383(5) 0.4379(4)
O19_4 O 0.1749(9) 0.1053(8) 0.3071(5)
C20_4 C 0.6846(10) 0.3431(8) 0.4258(5)
H19_4 H 0.6530 0.3155 0.4507
H20_4 H 0.7316 0.3164 0.4120
H21_4 H 0.7065 0.3838 0.4432
C21_4 C 0.6273(8) 0.3643(7) 0.3819(4)
C22_4 C 0.5356(7) 0.4178(7) 0.3349(4)
C23_4 C 0.4693(10) 0.4678(8) 0.3172(6)
H22_4 H 0.4136 0.4469 0.3204
H23_4 H 0.4718 0.5088 0.3387
H24_4 H 0.4794 0.4800 0.2809
C24_4 C 0.4929(8) 0.3802(7) 0.5466(5)
C25_4 C 0.4888(9) 0.3132(7) 0.5745(5)
C26_4 C 0.4745(12) 0.3139(8) 0.6294(6)
H25_4 H 0.4663 0.3557 0.6471
C27_4 C 0.3447(9) 0.0108(8) 0.4665(5)
C28_4 C 0.2549(9) 0.0046(10) 0.4462(6)
C32_4 C 0.1472(9) 0.0391(9) 0.3838(6)
C33_4 C 0.2299(8) 0.0414(8) 0.4013(5)
H28_4 H 0.2702 0.0678 0.3830
C34_4 C 0.1206(11) 0.0815(9) 0.3364(6)
C35_4 C 0.8334(9) 0.3789(7) 0.2919(6)
H29_4 H 0.8033 0.3867 0.3245
H30_4 H 0.8831 0.4083 0.2905
H31_4 H 0.7963 0.3895 0.2627
C36_4 C 0.8604(8) 0.3050(7) 0.2888(5)
O9_4 O 0.5529(13) 0.9248(17) 0.0185(12)
H3_4 H 0.5170 0.9509 0.0056
H8_4 H 0.4718 0.9912 0.3387
C12_4 C 0.6970(13) 0.9666(16) 0.0285(10)
C13_4 C 0.6147(15) 0.964(2) 0.0454(14)
C14_4 C 0.5871(13) 0.9983(16) 0.0913(10)
H13_4 H 0.5315 0.9936 0.1041
O22_4 O 0.0529(13) 0.9248(17) 0.4815(12)
H18_4 H 0.0170 0.9509 0.4944
C29_4 C 0.1970(13) 0.9666(16) 0.4715(10)
H26_4 H 0.2131 0.9413 0.5013
C30_4 C 0.1147(15) 0.964(2) 0.4546(14)
C31_4 C 0.0871(13) 0.9983(16) 0.4087(10)
H27_4 H 0.0315 0.9936 0.3959
H12_4 H 0.7131 0.9413 0.9987
H10_3 H 0.0083 0.2500 0.9876
H10_4 H 0.9917 0.7500 0.0124
loop_
_geom_bond_atom_site_label_1
_geom_bond_atom_site_label_2
_geom_bond_site_symmetry_1
_geom_bond_site_symmetry_2
Zn11 O4 1_555 1_555
Zn1 N2 1_555 1_555
Zn2 N3 1_555 1_555
Zn3 N1 1_555 1_555
N1 N2 1_555 1_555
N2 C3 1_555 1_555
N3 C2 1_555 1_555
N4 Zn3 1_555 1_555
N5 C19 1_555 1_555
O1 Zn2 1_555 1_555
O2 C5 1_555 1_555
O3 C10 1_555 1_555
O5 C17 1_555 1_555
O6 Zn1 1_555 1_555
O7 Zn1 1_555 1_555
H1 O7 1_555 1_555
O8 H2 1_555 1_555
O9 H3 1_555 1_555
C1 H4 1_555 1_555
H5 C1 1_555 1_555
H6 C1 1_555 1_555
C2 N1 1_555 1_555
C3 N3 1_555 1_555
C4 C3 1_555 1_555
H7 C4 1_555 1_555
H8 C4 1_555 1_555
H9 C4 1_555 1_555
C5 O1 1_555 1_555
C6 C5 1_555 1_555
C7 C6 1_555 1_555
H10 C7 1_555 1_555
C8 C6 1_555 1_555
H11 C8 1_555 1_555
C9 O8 1_555 1_555
C10 C11 1_555 1_555
C11 C12 1_555 1_555
C13 O9 1_555 1_555
C14 C13 1_555 1_555
H13 C14 1_555 1_555
C15 C14 1_555 1_555
C16 C11 1_555 1_555
H14 C16 1_555 1_555
C17 O6 1_555 1_555
C18 H15 1_555 1_555
H16 C18 1_555 1_555
H17 C18 1_555 1_555
C19 N4 1_555 1_555
Zn4 O7 1_555 1_555
Zn7 O20 1_555 1_555
Zn8 N8 1_555 1_555
Zn9 O2 1_555 1_555
N6 Zn3 1_555 1_555
N7 Zn4 1_555 1_555
N8 C21 1_555 1_555
N9 N5 1_555 1_555
N10 Zn1 1_555 1_555
N11 Zn4 1_555 1_555
O10 Zn8 1_555 1_555
O11 C24 1_555 1_555
O12 Zn2 1_555 1_555
O14 Zn2 1_555 1_555
O15 Zn8 1_555 1_555
O16 Zn9 1_555 1_555
O17 Zn2 1_555 1_555
O18 Zn8 1_555 1_555
O19 C34 1_555 1_555
O20 C34 1_555 1_555
O21 Zn4 1_555 1_555
O22 H18 1_555 1_555
C20 H19 1_555 1_555
H20 C20 1_555 1_555
H21 C20 1_555 1_555
C21 N6 1_555 1_555
C22 N7 1_555 1_555
C23 C22 1_555 1_555
H22 C23 1_555 1_555
H24 C23 1_555 1_555
C24 O10 1_555 1_555
C25 C7 1_555 1_555
C26 C9 1_555 1_555
H25 C26 1_555 1_555
C27 O14 1_555 1_555
C28 C27 1_555 1_555
C29 C28 1_555 1_555
H26 C29 1_555 1_555
C30 O22 1_555 1_555
C31 C30 1_555 1_555
H27 C31 1_555 1_555
C32 C31 1_555 1_555
C33 C28 1_555 1_555
H28 C33 1_555 1_555
C34 C32 1_555 1_555
C35 H29 1_555 1_555
H30 C35 1_555 1_555
H31 C35 1_555 1_555
C36 N4 1_555 1_555
Zn3 O7 1_555 1_555
C1 C2 1_555 1_555
C8 C9 1_555 1_555
C12 C13 1_555 1_555
C15 C16 1_555 1_555
C15 C17 1_555 1_555
C18 C19 1_555 1_555
N6 N7 1_555 1_555
N8 C22 1_555 1_555
N9 C36 1_555 1_555
N10 N11 1_555 1_555
O16 C27 1_555 1_555
C20 C21 1_555 1_555
C24 C25 1_555 1_555
C25 C26 1_555 1_555
C29 C30 1_555 1_555
C32 C33 1_555 1_555
C35 C36 1_555 1_555
Zn1_2 N2_2 1_555 1_555
Zn11 N3_2 1_555 1_555
Zn3_2 N1_2 1_555 1_555
N1_2 N2_2 1_555 1_555
N2_2 C3_2 1_555 1_555
N3_2 C2_2 1_555 1_555
N4_2 Zn3_2 1_555 1_555
N5_2 C19_2 1_555 1_555
O1_2 Zn11 1_555 1_555
O3_2 C10_2 1_555 1_555
O17 C10_2 1_555 1_555
O5_2 C17_2 1_555 1_555
O6_2 Zn1_2 1_555 1_555
O7_2 Zn1_2 1_555 1_555
H1_2 O7_2 1_555 1_555
O9_2 H3_2 1_555 1_555
C1_2 H4_2 1_555 1_555
H5_2 C1_2 1_555 1_555
H6_2 C1_2 1_555 1_555
C2_2 N1_2 1_555 1_555
C3_2 N3_2 1_555 1_555
C10_2 C11_2 1_555 1_555
C11_2 C12_2 1_555 1_555
C12_2 H12_2 1_555 1_555
C13_2 O9_2 1_555 1_555
C14_2 C13_2 1_555 1_555
H13_2 C14_2 1_555 1_555
C15_2 C14_2 1_555 1_555
C16_2 C11_2 1_555 1_555
H14_2 C16_2 1_555 1_555
C17_2 O6_2 1_555 1_555
C18_2 H15_2 1_555 1_555
H16_2 C18_2 1_555 1_555
H17_2 C18_2 1_555 1_555
C19_2 N4_2 1_555 1_555
Zn4_2 O7_2 1_555 1_555
Zn5 N5_2 1_555 1_555
Zn6_2 N9_2 1_555 1_555
Zn8_2 N8_2 1_555 1_555
Zn9 O3_2 1_555 1_555
N6_2 Zn3_2 1_555 1_555
N7_2 Zn4_2 1_555 1_555
N8_2 C21_2 1_555 1_555
N9_2 N5_2 1_555 1_555
O10_2 Zn8_2 1_555 1_555
O12_2 Zn11 1_555 1_555
O18_2 Zn8_2 1_555 1_555
O21_2 Zn4_2 1_555 1_555
C20_2 H19_2 1_555 1_555
H20_2 C20_2 1_555 1_555
H21_2 C20_2 1_555 1_555
C21_2 N6_2 1_555 1_555
C22_2 N7_2 1_555 1_555
C35_2 H29_2 1_555 1_555
H30_2 C35_2 1_555 1_555
H31_2 C35_2 1_555 1_555
C36_2 N4_2 1_555 1_555
Zn3_2 O7_2 1_555 1_555
C1_2 C2_2 1_555 1_555
C12_2 C13_2 1_555 1_555
C15_2 C16_2 1_555 1_555
C15_2 C17_2 1_555 1_555
C18_2 C19_2 1_555 1_555
N6_2 N7_2 1_555 1_555
N8_2 C22_2 1_555 1_555
N9_2 C36_2 1_555 1_555
C20_2 C21_2 1_555 1_555
C35_2 C36_2 1_555 1_555
H7_2 C4_2 1_555 1_555
H8_2 C4_2 1_555 1_555
H9_2 C4_2 1_555 1_555
Zn5 O20_2 1_555 1_555
O19_2 C34_2 1_555 1_555
O20_2 C34_2 1_555 1_555
O22_2 H18_2 1_555 1_555
H22_2 C23_2 1_555 1_555
H24_2 C23_2 1_555 1_555
C27_2 O14_2 1_555 1_555
C28_2 C27_2 1_555 1_555
C29_2 C28_2 1_555 1_555
C30_2 O22_2 1_555 1_555
C31_2 C30_2 1_555 1_555
H27_2 C31_2 1_555 1_555
C32_2 C31_2 1_555 1_555
C33_2 C28_2 1_555 1_555
H28_2 C33_2 1_555 1_555
C34_2 C32_2 1_555 1_555
N10_2 N11_2 1_555 1_555
C29_2 C30_2 1_555 1_555
C32_2 C33_2 1_555 1_555
O2_2 C5_2 1_555 1_555
O8_2 H2_2 1_555 1_555
C6_2 C5_2 1_555 1_555
C7_2 C6_2 1_555 1_555
C8_2 C6_2 1_555 1_555
H11_2 C8_2 1_555 1_555
C9_2 O8_2 1_555 1_555
Zn10 O2_2 1_555 1_555
O11_2 C24_2 1_555 1_555
O16_2 Zn10 1_555 1_555
C25_2 C7_2 1_555 1_555
C26_2 C9_2 1_555 1_555
H25_2 C26_2 1_555 1_555
C8_2 C9_2 1_555 1_555
C24_2 C25_2 1_555 1_555
C25_2 C26_2 1_555 1_555
O22_3 H18_3 1_555 1_555
C30_3 O22_3 1_555 1_555
C31_3 C30_3 1_555 1_555
H27_3 C31_3 1_555 1_555
C29_3 C30_3 1_555 1_555
O13_2 C5_3 1_555 1_555
O8_3 H2_3 1_555 1_555
C6_3 C5_3 1_555 1_555
C7_3 C6_3 1_555 1_555
C8_3 C6_3 1_555 1_555
H11_3 C8_3 1_555 1_555
C9_3 O8_3 1_555 1_555
O12_2 C24_3 1_555 1_555
C25_3 C7_3 1_555 1_555
C26_3 C9_3 1_555 1_555
H25_3 C26_3 1_555 1_555
C8_3 C9_3 1_555 1_555
C24_3 C25_3 1_555 1_555
C25_3 C26_3 1_555 1_555
H7_3 C4_3 1_555 1_555
H9_3 C4_3 1_555 1_555
O19_3 C34_3 1_555 1_555
O21 C34_3 1_555 1_555
H22_3 C23_3 1_555 1_555
H23_3 C23_3 1_555 1_555
H24_3 C23_3 1_555 1_555
C27_3 O14_3 1_555 1_555
C28_3 C27_3 1_555 1_555
C33_3 C28_3 1_555 1_555
H28_3 C33_3 1_555 1_555
C34_3 C32_3 1_555 1_555
C32_3 C33_3 1_555 1_555
O9_3 H3_3 1_555 1_555
C12_3 H12_3 1_555 1_555
C13_3 O9_3 1_555 1_555
C14_3 C13_3 1_555 1_555
H13_3 C14_3 1_555 1_555
Zn12 O4_2 1_555 1_555
C12_3 C13_3 1_555 1_555
Zn6 N2_3 1_555 1_555
Zn12_2 N3_3 1_555 1_555
Zn3_3 N1_3 1_555 1_555
N1_3 N2_3 1_555 1_555
N2_3 C3_3 1_555 1_555
N3_3 C2_3 1_555 1_555
N4_3 Zn3_3 1_555 1_555
N11 C19_3 1_555 1_555
O1_3 Zn12_2 1_555 1_555
O15 C10_3 1_555 1_555
O5_3 C17_3 1_555 1_555
O6_3 Zn6 1_555 1_555
O7_3 Zn6 1_555 1_555
H1_3 O7_3 1_555 1_555
C1_3 H4_3 1_555 1_555
H5_3 C1_3 1_555 1_555
H6_3 C1_3 1_555 1_555
C2_3 N1_3 1_555 1_555
C3_3 N3_3 1_555 1_555
C10_3 C11_3 1_555 1_555
C16_3 C11_3 1_555 1_555
H14_3 C16_3 1_555 1_555
C17_3 O6_3 1_555 1_555
C18_3 H15_3 1_555 1_555
H16_3 C18_3 1_555 1_555
H17_3 C18_3 1_555 1_555
C19_3 N4_3 1_555 1_555
Zn7 O7_3 1_555 1_555
Zn10 N8_3 1_555 1_555
N6_3 Zn3_3 1_555 1_555
N7_3 Zn7 1_555 1_555
N8_3 C21_3 1_555 1_555
O10_3 Zn10 1_555 1_555
O17_2 Zn12_2 1_555 1_555
C20_3 H19_3 1_555 1_555
H20_3 C20_3 1_555 1_555
H21_3 C20_3 1_555 1_555
C21_3 N6_3 1_555 1_555
C22_3 N7_3 1_555 1_555
C35_3 H29_3 1_555 1_555
H30_3 C35_3 1_555 1_555
H31_3 C35_3 1_555 1_555
C36_3 N4_3 1_555 1_555
Zn3_3 O7_3 1_555 1_555
C1_3 C2_3 1_555 1_555
C15_3 C16_3 1_555 1_555
C15_3 C17_3 1_555 1_555
C18_3 C19_3 1_555 1_555
N6_3 N7_3 1_555 1_555
N8_3 C22_3 1_555 1_555
N10 C36_3 1_555 1_555
C20_3 C21_3 1_555 1_555
C35_3 C36_3 1_555 1_555
Zn6_2 N2_4 1_555 1_555
Zn12 N3_4 1_555 1_555
Zn3_4 N1_4 1_555 1_555
N1_4 N2_4 1_555 1_555
N2_4 C3_4 1_555 1_555
N3_4 C2_4 1_555 1_555
N4_4 Zn3_4 1_555 1_555
N11_2 C19_4 1_555 1_555
O1_4 Zn12 1_555 1_555
O13 C5_4 1_555 1_555
O15_2 C10_4 1_555 1_555
O5_4 C17_4 1_555 1_555
O6_4 Zn6_2 1_555 1_555
O7_4 Zn6_2 1_555 1_555
H1_4 O7_4 1_555 1_555
O8_4 H2_4 1_555 1_555
C1_4 H4_4 1_555 1_555
H5_4 C1_4 1_555 1_555
H6_4 C1_4 1_555 1_555
C2_4 N1_4 1_555 1_555
C3_4 N3_4 1_555 1_555
C4_4 C3_4 1_555 1_555
H7_4 C4_4 1_555 1_555
H9_4 C4_4 1_555 1_555
C5_4 O1_4 1_555 1_555
C6_4 C5_4 1_555 1_555
C7_4 C6_4 1_555 1_555
H10_2 C7_4 1_555 1_555
C8_4 C6_4 1_555 1_555
H11_4 C8_4 1_555 1_555
C9_4 O8_4 1_555 1_555
C10_4 C11_4 1_555 1_555
C16_4 C11_4 1_555 1_555
H14_4 C16_4 1_555 1_555
C17_4 O6_4 1_555 1_555
C18_4 H15_4 1_555 1_555
H16_4 C18_4 1_555 1_555
H17_4 C18_4 1_555 1_555
C19_4 N4_4 1_555 1_555
Zn5 O7_4 1_555 1_555
Zn9 N8_4 1_555 1_555
N6_4 Zn3_4 1_555 1_555
N7_4 Zn5 1_555 1_555
N8_4 C21_4 1_555 1_555
O10_4 Zn9 1_555 1_555
O12 C24_4 1_555 1_555
O14_4 Zn12 1_555 1_555
O19_4 C34_4 1_555 1_555
O21_2 C34_4 1_555 1_555
C20_4 H19_4 1_555 1_555
H20_4 C20_4 1_555 1_555
H21_4 C20_4 1_555 1_555
C21_4 N6_4 1_555 1_555
C22_4 N7_4 1_555 1_555
C23_4 C22_4 1_555 1_555
H22_4 C23_4 1_555 1_555
H23_4 C23_4 1_555 1_555
H24_4 C23_4 1_555 1_555
C24_4 O10_4 1_555 1_555
C25_4 C7_4 1_555 1_555
C26_4 C9_4 1_555 1_555
H25_4 C26_4 1_555 1_555
C27_4 O14_4 1_555 1_555
C28_4 C27_4 1_555 1_555
C33_4 C28_4 1_555 1_555
H28_4 C33_4 1_555 1_555
C34_4 C32_4 1_555 1_555
C35_4 H29_4 1_555 1_555
H30_4 C35_4 1_555 1_555
H31_4 C35_4 1_555 1_555
C36_4 N4_4 1_555 1_555
Zn3_4 O7_4 1_555 1_555
C1_4 C2_4 1_555 1_555
C8_4 C9_4 1_555 1_555
C15_4 C16_4 1_555 1_555
C15_4 C17_4 1_555 1_555
C18_4 C19_4 1_555 1_555
N6_4 N7_4 1_555 1_555
N8_4 C22_4 1_555 1_555
N10_2 C36_4 1_555 1_555
C20_4 C21_4 1_555 1_555
C24_4 C25_4 1_555 1_555
C25_4 C26_4 1_555 1_555
C32_4 C33_4 1_555 1_555
C35_4 C36_4 1_555 1_555
O9_4 H3_4 1_555 1_555
C13_4 O9_4 1_555 1_555
C14_4 C13_4 1_555 1_555
H13_4 C14_4 1_555 1_555
O22_4 H18_4 1_555 1_555
H26_4 C29_4 1_555 1_555
C30_4 O22_4 1_555 1_555
C31_4 C30_4 1_555 1_555
H27_4 C31_4 1_555 1_555
C12_4 C13_4 1_555 1_555
C29_4 C30_4 1_555 1_555

#END
