
###############################################################################
#
# This file contains modified crystal structure data generated from the
# MOF subset of the Cambridge Structural Database (CSD) v543 
# hosted by the Cambridge Crystallographic Data Centre (CCDC).
#
# This work is licensed under the Creative Commons
# Attribution-NonCommercial-ShareAlike 4.0 International License.
# To view a copy of this license, visit
# http://creativecommons.org/licenses/by-nc-sa/4.0/
# or send a letter to
# Creative Commons, PO Box 1866, Mountain View, CA 94042, USA.
#
# CIF created using the CSD Python API on 29 September 2022
# The structure has been converted into the P1 space group
# The structure has a 3D framework
# The original CSD entry CAVSOJ is in the monoclinic crystal system
# The original CSD entry CAVSOJ is in a Sohncke space group
# The framework has been calculated to contain at least 10.0% void space
# The void calculation uses a probe of radius 1.32A, grid spacing 0.4
# H atom positions have been added when not included in the experimental data
#
###############################################################################

data_CAVSOJ
_chemical_formula_moiety         '(C20 H50 La2 N4 O20 P8)n'
_symmetry_cell_setting           triclinic
_symmetry_space_group_name_H-M   'P 1'
_symmetry_Int_Tables_number      1
_space_group_name_Hall           'P 1'
loop_
_symmetry_equiv_pos_site_id
_symmetry_equiv_pos_as_xyz
1 x,y,z
_cell_length_a                   12.2967(15)
_cell_length_b                   17.7483(21)
_cell_length_c                   5.9887(8)
_cell_angle_alpha                90
_cell_angle_beta                 104.626(6)
_cell_angle_gamma                90
_cell_volume                     1264.65
loop_
_atom_site_label
_atom_site_type_symbol
_atom_site_fract_x
_atom_site_fract_y
_atom_site_fract_z
_atom_site_U_iso_or_equiv
_atom_site_thermal_displace_type
La1 La 0.6920(4) 0.2500 0.3874(13) 0.0150 Uiso
P1 P 0.4447(12) 0.1314(15) 0.093(4) 0.0150 Uiso
O2 O 0.4719(26) 0.1938(20) 0.276(7) 0.0150 Uiso
O3 O 0.5009(26) 0.0561(16) 0.175(7) 0.0150 Uiso
C1 C 0.2911(14) 0.1165(20) 0.031(7) 0.0150 Uiso
N1 N 0.2365(20) 0.0646(14) 0.169(6) 0.0150 Uiso
C3 C 0.1424(32) 0.1049(21) 0.233(7) 0.0150 Uiso
C4 C 0.1156(33) 0.0760(29) 0.447(5) 0.0150 Uiso
O13 O 0.7258(33) 0.1905(18) 0.752(8) 0.0150 Uiso
O14 O 0.727(4) 0.1448(22) 0.153(7) 0.0150 Uiso
O15 O 0.5211(30) 0.3156(20) 0.356(8) 0.0150 Uiso
O16 O 0.7043(28) 0.3498(24) 0.745(7) 0.0150 Uiso
O17 O 0.7857(34) 0.3563(22) 0.175(6) 0.0150 Uiso
H4 H 0.0675324 0.0993441 0.090885 . .
H5 H 0.164969 0.164172 0.258839 . .
H8 H 0.254696 0.1719 0.0417664 . .
H21 H 0.14524 0.116873 0.58454 . .
H22 H 0.159552 0.022794 0.493819 . .
P4 P 0.2013(17) 0.8842(14) 0.061(5) 0.0150 Uiso
O10 O 0.0870(23) 0.8632(25) 0.101(7) 0.0150 Uiso
O11 O 0.2957(28) 0.8498(24) 0.255(7) 0.0150 Uiso
C7 C 0.217(4) 0.9853(14) 0.080(8) 0.0150 Uiso
La5 La 0.3080(4) 0.7500 0.6126(13) 0.0150 Uiso
H12 H 0.0408324 0.975889 0.662998 . .
H23 H 0.081498 0.883211 0.252605 . .
O12 O 0.2143(34) 0.8563(22) 0.825(6) 0.0150 Uiso
H14 H 0.280592 0.987605 0.982368 . .
H15 H 0.134768 0.997063 0.965534 . .
H1 H 0.929941 0.158254 0.0361183 . .
P2 P 0.7610(17) 0.1259(14) 0.929(5) 0.0150 Uiso
O4 O 0.8884(18) 0.1117(25) 0.974(8) 0.0150 Uiso
C2 C 0.6876(31) 0.0416(16) 0.807(7) 0.0150 Uiso
C5 C 0.9918(32) 0.063(4) 0.421(10) 0.0150 Uiso
C9 C 0.8752(33) 0.0004(34) 0.668(6) 0.0150 Uiso
H2 H 0.626333 0.0681321 0.665384 . .
H3 H 0.648337 0.0289375 0.946559 . .
H16 H 0.951172 0.0579975 0.237666 . .
H17 H 0.95817 0.11174 0.491528 . .
H25 H 0.840125 0.0569619 0.639274 . .
P3 P 0.5017(17) 0.8854(13) 0.803(4) 0.0150 Uiso
O8 O 0.4789(30) 0.8156(20) 0.644(8) 0.0150 Uiso
O9 O 0.4389(26) 0.9554(18) 0.685(8) 0.0150 Uiso
C6 C 0.6512(18) 0.9036(19) 0.858(7) 0.0150 Uiso
N2 N 0.6821(25) 0.9633(15) 0.706(5) 0.0150 Uiso
C8 C 0.779(4) 0.9454(25) 0.604(9) 0.0150 Uiso
C10 C 0.964(4) 0.9939(30) 0.540(11) 0.0150 Uiso
H9 H 0.748106 0.945029 0.416815 . .
H10 H 0.810576 0.889663 0.663331 . .
H11 H 0.459245 0.999628 0.78871 . .
H13 H 0.937205 0.950573 0.408869 . .
H18 H 0.69267 0.851344 0.831601 . .
H24 H 0.915303 0.992825 0.850701 . .
P2_2 P 0.2390(17) 0.6259(14) 0.071(5) 0.0150 Uiso
O4_2 O 0.1116(18) 0.6117(25) 0.026(8) 0.0150 Uiso
O5 O 0.2742(33) 0.6905(18) 0.248(8) 0.0150 Uiso
C2_2 C 0.3124(31) 0.5416(16) 0.193(7) 0.0150 Uiso
C5_2 C 0.0082(32) 0.563(4) 0.579(10) 0.0150 Uiso
P3_2 P 0.4983(17) 0.3854(13) 0.197(4) 0.0150 Uiso
O9_2 O 0.5611(26) 0.4554(18) 0.315(8) 0.0150 Uiso
C6_2 C 0.3488(18) 0.4036(19) 0.142(7) 0.0150 Uiso
N2_2 N 0.3179(25) 0.4633(15) 0.294(5) 0.0150 Uiso
C8_2 C 0.221(4) 0.4454(25) 0.396(9) 0.0150 Uiso
C9_2 C 0.1248(33) 0.5004(34) 0.332(6) 0.0150 Uiso
C10_2 C 0.036(4) 0.4939(30) 0.460(11) 0.0150 Uiso
H2_2 H 0.373667 0.568132 0.334616 . .
H3_2 H 0.351663 0.528937 0.0534409 . .
H9_2 H 0.251894 0.445029 0.583185 . .
H10_2 H 0.189424 0.389663 0.336669 . .
H11_2 H 0.540755 0.499628 0.21129 . .
H13_2 H 0.0627946 0.450573 0.591131 . .
H16_2 H 0.0488276 0.557998 0.762334 . .
H17_2 H 0.0418299 0.61174 0.508472 . .
H18_2 H 0.30733 0.351344 0.168399 . .
H24_2 H 0.0846966 0.492825 0.149299 . .
H25_2 H 0.159875 0.556962 0.360726 . .
O6 O 0.273(4) 0.6448(22) 0.847(7) 0.0150 Uiso
O7 O 0.5298(32) 0.3688(32) 0.969(5) 0.0150 Uiso
H1_2 H 0.0700592 0.658254 0.963882 . .
H19 H 0.318282 0.421484 0.96314 . .
H20 H 0.484143 0.325913 0.889554 . .
O1 O 0.5318(24) 0.6580(30) 0.135(6) 0.0150 Uiso
H6 H 0.451218 0.671688 0.107939 . .
H7 H 0.734602 0.59624 0.146198 . .
H14_2 H 0.719408 0.487605 0.0176321 . .
H15_2 H 0.865232 0.497063 0.0344656 . .
P1_2 P 0.5553(12) 0.6314(15) 0.907(4) 0.0150 Uiso
O2_2 O 0.5281(26) 0.6938(20) 0.724(7) 0.0150 Uiso
O3_2 O 0.4991(26) 0.5561(16) 0.825(7) 0.0150 Uiso
C1_2 C 0.7089(14) 0.6165(20) 0.969(7) 0.0150 Uiso
N1_2 N 0.7635(20) 0.5646(14) 0.831(6) 0.0150 Uiso
C3_2 C 0.8576(32) 0.6049(21) 0.767(7) 0.0150 Uiso
C4_2 C 0.8844(33) 0.5760(29) 0.553(5) 0.0150 Uiso
P4_2 P 0.7987(17) 0.3842(14) 0.939(5) 0.0150 Uiso
O10_2 O 0.9130(23) 0.3632(25) 0.899(7) 0.0150 Uiso
C7_2 C 0.783(4) 0.4853(14) 0.920(8) 0.0150 Uiso
H4_2 H 0.932468 0.599344 0.909115 . .
H5_2 H 0.835031 0.664172 0.741161 . .
H8_2 H 0.745304 0.6719 0.958234 . .
H12_2 H 0.959168 0.475889 0.337002 . .
H21_2 H 0.85476 0.616873 0.41546 . .
H22_2 H 0.840448 0.522794 0.506181 . .
H23_2 H 0.918502 0.383211 0.747395 . .
O1_2 O 0.4682(24) 0.1580(30) 0.865(6) 0.0150 Uiso
H6_2 H 0.548782 0.171688 0.892061 . .
H7_2 H 0.265398 0.09624 0.853802 . .
O7_2 O 0.4702(32) 0.8688(32) 0.031(5) 0.0150 Uiso
H19_2 H 0.681718 0.921484 0.0368602 . .
H20_2 H 0.515857 0.825913 0.110446 . .
loop_
_geom_bond_atom_site_label_1
_geom_bond_atom_site_label_2
_geom_bond_site_symmetry_1
_geom_bond_site_symmetry_2
La1 O2 1_555 1_555
O2 P1 1_555 1_555
O3 P1 1_555 1_555
C1 P1 1_555 1_555
N1 C1 1_555 1_555
C3 N1 1_555 1_555
C4 C3 1_555 1_555
O13 La1 1_555 1_555
O14 La1 1_555 1_555
O15 La1 1_555 1_555
O16 La1 1_555 1_555
O17 La1 1_555 1_555
C3 H4 1_555 1_555
C3 H5 1_555 1_555
C1 H8 1_555 1_555
C4 H21 1_555 1_555
C4 H22 1_555 1_555
P4 O10 1_555 1_555
O11 P4 1_555 1_555
La5 O11 1_555 1_555
P4 C7 1_555 1_555
O10 H23 1_555 1_555
La5 O12 1_555 1_555
P2 O4 1_555 1_555
O13 P2 1_555 1_555
C2 P2 1_555 1_555
C2 H2 1_555 1_555
C2 H3 1_555 1_555
C5 H16 1_555 1_555
C5 H17 1_555 1_555
C9 H25 1_555 1_555
O8 P3 1_555 1_555
O9 P3 1_555 1_555
C6 P3 1_555 1_555
C8 N2 1_555 1_555
La5 O8 1_555 1_555
C6 N2 1_555 1_555
C8 H9 1_555 1_555
C8 H10 1_555 1_555
O9 H11 1_555 1_555
C10 H13 1_555 1_555
C6 H18 1_555 1_555
P2_2 O4_2 1_555 1_555
O5 P2_2 1_555 1_555
C2_2 P2_2 1_555 1_555
O15 P3_2 1_555 1_555
O9_2 P3_2 1_555 1_555
C6_2 P3_2 1_555 1_555
N2_2 C2_2 1_555 1_555
C8_2 N2_2 1_555 1_555
C9_2 C8_2 1_555 1_555
C10_2 C5_2 1_555 1_555
La5 O5 1_555 1_555
C6_2 N2_2 1_555 1_555
C9_2 C10_2 1_555 1_555
C2_2 H2_2 1_555 1_555
C2_2 H3_2 1_555 1_555
C8_2 H9_2 1_555 1_555
C8_2 H10_2 1_555 1_555
O9_2 H11_2 1_555 1_555
C10_2 H13_2 1_555 1_555
C5_2 H16_2 1_555 1_555
C5_2 H17_2 1_555 1_555
C6_2 H18_2 1_555 1_555
C9_2 H24_2 1_555 1_555
C9_2 H25_2 1_555 1_555
La5 O6 1_555 1_555
O7 H20 1_555 1_555
O1 H6 1_555 1_555
La5 O2_2 1_555 1_555
O2_2 P1_2 1_555 1_555
O3_2 P1_2 1_555 1_555
C1_2 P1_2 1_555 1_555
N1_2 C1_2 1_555 1_555
C3_2 N1_2 1_555 1_555
C4_2 C3_2 1_555 1_555
P4_2 O10_2 1_555 1_555
O16 P4_2 1_555 1_555
C7_2 N1_2 1_555 1_555
P4_2 C7_2 1_555 1_555
C3_2 H4_2 1_555 1_555
C3_2 H5_2 1_555 1_555
C1_2 H8_2 1_555 1_555
C4_2 H21_2 1_555 1_555
C4_2 H22_2 1_555 1_555
O10_2 H23_2 1_555 1_555
O1_2 H6_2 1_555 1_555
O7_2 H20_2 1_555 1_555

#END
