
###############################################################################
#
# This file contains modified crystal structure data generated from the
# MOF subset of the Cambridge Structural Database (CSD) v543 
# hosted by the Cambridge Crystallographic Data Centre (CCDC).
#
# This work is licensed under the Creative Commons
# Attribution-NonCommercial-ShareAlike 4.0 International License.
# To view a copy of this license, visit
# http://creativecommons.org/licenses/by-nc-sa/4.0/
# or send a letter to
# Creative Commons, PO Box 1866, Mountain View, CA 94042, USA.
#
# CIF created using the CSD Python API on 29 September 2022
# The structure has been converted into the P1 space group
# The structure has a 3D framework
# The original CSD entry CAVSUP is in the monoclinic crystal system
# The original CSD entry CAVSUP is in a Sohncke space group
# The framework has been calculated to contain at least 10.0% void space
# The void calculation uses a probe of radius 1.32A, grid spacing 0.4
# H atom positions have been added when not included in the experimental data
#
###############################################################################

data_CAVSUP
_chemical_formula_moiety         '(C20 H50 La2 N4 O20 P8)n'
_symmetry_cell_setting           triclinic
_symmetry_space_group_name_H-M   'P 1'
_symmetry_Int_Tables_number      1
_space_group_name_Hall           'P 1'
loop_
_symmetry_equiv_pos_site_id
_symmetry_equiv_pos_as_xyz
1 x,y,z
_cell_length_a                   13.3444(5)
_cell_length_b                   18.7820(4)
_cell_length_c                   5.84903(23)
_cell_angle_alpha                90
_cell_angle_beta                 97.711(4)
_cell_angle_gamma                90
_cell_volume                     1452.71
loop_
_atom_site_label
_atom_site_type_symbol
_atom_site_fract_x
_atom_site_fract_y
_atom_site_fract_z
_atom_site_U_iso_or_equiv
_atom_site_thermal_displace_type
La1 La 0.6289(4) 0.2500 0.3351(9) 0.0274 Uiso
P1 P 0.4399(25) 0.0853(13) 0.144(4) 0.0230 Uiso
O2 O 0.463(4) 0.1636(15) 0.206(8) 0.0410 Uiso
O3 O 0.5249(34) 0.0366(23) 0.258(7) 0.0410 Uiso
C1 C 0.3248(33) 0.0624(25) 0.261(8) 0.0410 Uiso
C3 C 0.1643(23) 0.0055(24) 0.318(6) 0.0410 Uiso
O13 O 0.6610(28) 0.1758(18) 0.684(6) 0.0410 Uiso
O14 O 0.729(4) 0.1613(17) 0.109(4) 0.0410 Uiso
O15 O 0.4967(32) 0.3304(16) 0.300(7) 0.0410 Uiso
O16 O 0.6692(30) 0.3628(18) 0.642(4) 0.0410 Uiso
O17 O 0.6526(27) 0.3284(17) 0.052(6) 0.0410 Uiso
H4 H 0.196501 0.0181301 0.679674 . .
H6 H 0.0273197 0.0309591 0.663615 . .
H13 H 0.269488 0.101023 0.183693 . .
H14 H 0.342543 0.0730521 0.444997 . .
H16 H 0.148429 0.062354 0.306278 . .
N1 N 0.2674(25) 0.9927(19) 0.249(6) 0.0410 Uiso
C4 C 0.1550(29) 0.9813(29) 0.558(5) 0.0410 Uiso
C5 C 0.0470(32) 0.9785(27) 0.604(7) 0.0410 Uiso
P4 P 0.2803(19) 0.8651(10) 0.1063(33) 0.0230 Uiso
O10 O 0.1731(20) 0.8326(20) 0.080(6) 0.0410 Uiso
O11 O 0.3308(30) 0.8628(18) 0.358(4) 0.0410 Uiso
C7 C 0.266(4) 0.9571(11) 0.018(6) 0.0410 Uiso
La5 La 0.3711(4) 0.7500 0.6649(9) 0.0274 Uiso
H3 H 0.130479 0.859834 0.175992 . .
H5 H 0.187733 0.9283 0.582971 . .
H7 H 0.0424084 0.939584 0.740221 . .
H15 H 0.108795 0.97691 0.198591 . .
O12 O 0.3474(27) 0.8284(17) 0.948(6) 0.0410 Uiso
H11 H 0.328493 0.974851 0.930107 . .
H12 H 0.194819 0.966145 0.907197 . .
H18 H 0.72485 0.0180419 0.00945581 . .
P2 P 0.7331(23) 0.1336(9) 0.863(4) 0.0230 Uiso
O4 O 0.8426(24) 0.1380(18) 0.807(7) 0.0410 Uiso
C2 C 0.694(4) 0.0417(11) 0.845(8) 0.0410 Uiso
H2 H 0.494274 0.0101197 0.728833 . .
H17 H 0.611802 0.042802 0.830647 . .
H19 H 0.86453 0.18855 0.809788 . .
H20 H 0.852903 0.0343349 0.343973 . .
H25 H 0.868185 0.0259042 0.743915 . .
P3 P 0.5424(21) 0.9045(11) 0.780(4) 0.0230 Uiso
O8 O 0.5033(32) 0.8304(16) 0.700(7) 0.0410 Uiso
O9 O 0.4662(31) 0.9624(22) 0.684(8) 0.0410 Uiso
C6 C 0.6597(29) 0.9207(18) 0.664(8) 0.0410 Uiso
N2 N 0.7183(23) 0.9897(16) 0.663(5) 0.0410 Uiso
C8 C 0.8296(22) 0.9817(26) 0.649(6) 0.0410 Uiso
C9 C 0.8626(32) 0.9808(28) 0.415(7) 0.0410 Uiso
C10 C 0.9697(31) 0.9587(26) 0.404(10) 0.0410 Uiso
H9 H 0.643575 0.905693 0.482957 . .
H10 H 0.713172 0.883043 0.754044 . .
H21 H 0.813445 0.944125 0.308057 . .
H22 H 0.970525 0.900944 0.387975 . .
H23 H 0.992957 0.982672 0.249953 . .
H24 H 0.85401 0.931769 0.73336 . .
P2_2 P 0.2669(23) 0.6336(9) 0.137(4) 0.0230 Uiso
O4_2 O 0.1574(24) 0.6380(18) 0.193(7) 0.0410 Uiso
O5 O 0.3390(28) 0.6758(18) 0.316(6) 0.0410 Uiso
C2_2 C 0.306(4) 0.5417(11) 0.155(8) 0.0410 Uiso
P3_2 P 0.4576(21) 0.4045(11) 0.220(4) 0.0230 Uiso
O9_2 O 0.5338(31) 0.4624(22) 0.316(8) 0.0410 Uiso
C6_2 C 0.3403(29) 0.4207(18) 0.336(8) 0.0410 Uiso
N2_2 N 0.2817(23) 0.4897(16) 0.337(5) 0.0410 Uiso
C8_2 C 0.1704(22) 0.4817(26) 0.351(6) 0.0410 Uiso
C9_2 C 0.1374(32) 0.4808(28) 0.585(7) 0.0410 Uiso
C10_2 C 0.0303(31) 0.4587(26) 0.596(10) 0.0410 Uiso
H2_2 H 0.505726 0.51012 0.271167 . .
H9_2 H 0.356425 0.405693 0.517043 . .
H10_2 H 0.286828 0.383043 0.245956 . .
H17_2 H 0.388198 0.542802 0.169353 . .
H19_2 H 0.13547 0.68855 0.190212 . .
H20_2 H 0.147097 0.534335 0.656027 . .
H21_2 H 0.186555 0.444125 0.691943 . .
H22_2 H 0.0294753 0.400944 0.612025 . .
H23_2 H 0.00704285 0.482672 0.750047 . .
H24_2 H 0.14599 0.431769 0.26664 . .
H25_2 H 0.131815 0.525904 0.256085 . .
O6 O 0.271(4) 0.6613(17) 0.891(4) 0.0410 Uiso
O7 O 0.437(4) 0.4091(22) 0.955(4) 0.0410 Uiso
H1 H 0.385278 0.3732 0.896046 . .
H18_2 H 0.27515 0.518042 0.990544 . .
O1 O 0.577(4) 0.5743(22) 0.119(4) 0.0410 Uiso
H8 H 0.515188 0.588613 0.184816 . .
H11_2 H 0.671507 0.474851 0.0698928 . .
H12_2 H 0.805181 0.466145 0.0928032 . .
P1_2 P 0.5601(25) 0.5853(13) 0.856(4) 0.0230 Uiso
O2_2 O 0.537(4) 0.6636(15) 0.794(8) 0.0410 Uiso
O3_2 O 0.4751(34) 0.5366(23) 0.742(7) 0.0410 Uiso
C1_2 C 0.6752(33) 0.5624(25) 0.739(8) 0.0410 Uiso
N1_2 N 0.7326(25) 0.4927(19) 0.751(6) 0.0410 Uiso
C3_2 C 0.8357(23) 0.5055(24) 0.682(6) 0.0410 Uiso
C4_2 C 0.8450(29) 0.4813(29) 0.442(5) 0.0410 Uiso
C5_2 C 0.9530(32) 0.4785(27) 0.396(7) 0.0410 Uiso
P4_2 P 0.7197(19) 0.3651(10) 0.8937(33) 0.0230 Uiso
O10_2 O 0.8269(20) 0.3326(20) 0.920(6) 0.0410 Uiso
C7_2 C 0.734(4) 0.4571(11) 0.982(6) 0.0410 Uiso
H3_2 H 0.869521 0.359834 0.824008 . .
H4_2 H 0.803499 0.51813 0.320326 . .
H5_2 H 0.812267 0.4283 0.417029 . .
H6_2 H 0.97268 0.530959 0.336385 . .
H7_2 H 0.957592 0.439584 0.259779 . .
H13_2 H 0.730512 0.601023 0.816307 . .
H14_2 H 0.657457 0.573052 0.555003 . .
H15_2 H 0.891205 0.47691 0.801409 . .
H16_2 H 0.851571 0.562354 0.693722 . .
O1_2 O 0.423(4) 0.0743(22) 0.881(4) 0.0410 Uiso
H8_2 H 0.484812 0.0886133 0.815184 . .
O7_2 O 0.563(4) 0.9091(22) 0.045(4) 0.0410 Uiso
H1_2 H 0.614722 0.8732 0.103954 . .
loop_
_geom_bond_atom_site_label_1
_geom_bond_atom_site_label_2
_geom_bond_site_symmetry_1
_geom_bond_site_symmetry_2
La1 O2 1_555 1_555
O2 P1 1_555 1_555
O3 P1 1_555 1_555
C1 P1 1_555 1_555
O13 La1 1_555 1_555
O14 La1 1_555 1_555
O15 La1 1_555 1_555
O16 La1 1_555 1_555
O17 La1 1_555 1_555
C1 H13 1_555 1_555
C1 H14 1_555 1_555
C3 H16 1_555 1_555
C5 C4 1_555 1_555
P4 O10 1_555 1_555
O11 P4 1_555 1_555
C7 N1 1_555 1_555
La5 O11 1_555 1_555
P4 C7 1_555 1_555
O10 H3 1_555 1_555
C4 H5 1_555 1_555
C5 H7 1_555 1_555
La5 O12 1_555 1_555
P2 O4 1_555 1_555
O13 P2 1_555 1_555
C2 P2 1_555 1_555
C2 H17 1_555 1_555
O4 H19 1_555 1_555
O8 P3 1_555 1_555
O9 P3 1_555 1_555
C6 P3 1_555 1_555
C8 N2 1_555 1_555
C9 C8 1_555 1_555
La5 O8 1_555 1_555
C6 N2 1_555 1_555
C9 C10 1_555 1_555
C6 H9 1_555 1_555
C6 H10 1_555 1_555
C9 H21 1_555 1_555
C10 H22 1_555 1_555
C10 H23 1_555 1_555
C8 H24 1_555 1_555
P2_2 O4_2 1_555 1_555
O5 P2_2 1_555 1_555
C2_2 P2_2 1_555 1_555
O15 P3_2 1_555 1_555
O9_2 P3_2 1_555 1_555
C6_2 P3_2 1_555 1_555
N2_2 C2_2 1_555 1_555
C8_2 N2_2 1_555 1_555
C9_2 C8_2 1_555 1_555
La5 O5 1_555 1_555
C6_2 N2_2 1_555 1_555
C9_2 C10_2 1_555 1_555
O9_2 H2_2 1_555 1_555
C6_2 H9_2 1_555 1_555
C6_2 H10_2 1_555 1_555
C2_2 H17_2 1_555 1_555
O4_2 H19_2 1_555 1_555
C9_2 H20_2 1_555 1_555
C9_2 H21_2 1_555 1_555
C10_2 H22_2 1_555 1_555
C10_2 H23_2 1_555 1_555
C8_2 H24_2 1_555 1_555
C8_2 H25_2 1_555 1_555
La5 O6 1_555 1_555
O7 H1 1_555 1_555
O1 H8 1_555 1_555
La5 O2_2 1_555 1_555
O2_2 P1_2 1_555 1_555
O3_2 P1_2 1_555 1_555
C1_2 P1_2 1_555 1_555
N1_2 C1_2 1_555 1_555
C3_2 N1_2 1_555 1_555
C4_2 C3_2 1_555 1_555
C5_2 C4_2 1_555 1_555
P4_2 O10_2 1_555 1_555
O16 P4_2 1_555 1_555
C7_2 N1_2 1_555 1_555
P4_2 C7_2 1_555 1_555
O10_2 H3_2 1_555 1_555
C4_2 H4_2 1_555 1_555
C4_2 H5_2 1_555 1_555
C5_2 H6_2 1_555 1_555
C5_2 H7_2 1_555 1_555
C1_2 H13_2 1_555 1_555
C1_2 H14_2 1_555 1_555
C3_2 H15_2 1_555 1_555
C3_2 H16_2 1_555 1_555
O1_2 H8_2 1_555 1_555
O7_2 H1_2 1_555 1_555

#END
