
###############################################################################
#
# This file contains modified crystal structure data generated from the
# MOF subset of the Cambridge Structural Database (CSD) v543 
# hosted by the Cambridge Crystallographic Data Centre (CCDC).
#
# This work is licensed under the Creative Commons
# Attribution-NonCommercial-ShareAlike 4.0 International License.
# To view a copy of this license, visit
# http://creativecommons.org/licenses/by-nc-sa/4.0/
# or send a letter to
# Creative Commons, PO Box 1866, Mountain View, CA 94042, USA.
#
# CIF created using the CSD Python API on 29 September 2022
# The structure has been converted into the P1 space group
# The structure has a 3D framework
# The original CSD entry CAVTAW is in the monoclinic crystal system
# The original CSD entry CAVTAW is in a Sohncke space group
# The framework has been calculated to contain at least 10.0% void space
# The void calculation uses a probe of radius 1.32A, grid spacing 0.4
# H atom positions have been added when not included in the experimental data
#
###############################################################################

data_CAVTAW
_chemical_formula_moiety         '(C20 H50 La2 N4 O20 P8)n'
_symmetry_cell_setting           triclinic
_symmetry_space_group_name_H-M   'P 1'
_symmetry_Int_Tables_number      1
_space_group_name_Hall           'P 1'
loop_
_symmetry_equiv_pos_site_id
_symmetry_equiv_pos_as_xyz
1 x,y,z
_cell_length_a                   12.5035(6)
_cell_length_b                   18.1874(10)
_cell_length_c                   5.82000(33)
_cell_angle_alpha                90
_cell_angle_beta                 101.923(4)
_cell_angle_gamma                90
_cell_volume                     1294.95
loop_
_atom_site_label
_atom_site_type_symbol
_atom_site_fract_x
_atom_site_fract_y
_atom_site_fract_z
_atom_site_U_iso_or_equiv
_atom_site_thermal_displace_type
La1 La 0.6695(4) 0.2500 0.3763(11) 0.0100 Uiso
P1 P 0.4652(16) 0.0889(13) 0.180(5) 0.0100 Uiso
O2 O 0.4996(22) 0.1682(16) 0.259(8) 0.0100 Uiso
O3 O 0.5493(26) 0.0301(19) 0.278(8) 0.0100 Uiso
C1 C 0.3484(23) 0.0732(23) 0.319(7) 0.0100 Uiso
N1 N 0.2429(19) 0.0320(16) 0.287(6) 0.0100 Uiso
C3 C 0.1529(28) 0.0878(23) 0.274(7) 0.0100 Uiso
C4 C 0.1237(30) 0.0992(24) 0.510(8) 0.0100 Uiso
C5 C 0.0166(34) 0.0652(25) 0.524(10) 0.0100 Uiso
O13 O 0.6951(35) 0.1630(20) 0.710(6) 0.0100 Uiso
O14 O 0.7185(31) 0.1341(15) 0.151(5) 0.0100 Uiso
O15 O 0.5169(25) 0.3486(18) 0.398(6) 0.0100 Uiso
O16 O 0.732(4) 0.3468(21) 0.694(6) 0.0100 Uiso
O17 O 0.7516(31) 0.3487(19) 0.140(6) 0.0100 Uiso
H1 H 0.119388 0.158013 0.542 . .
H2 H 0.187254 0.0747096 0.644544 . .
H12 H 0.320268 0.129334 0.333768 . .
H13 H 0.389663 0.0536067 0.49139 . .
H18 H 0.0808244 0.0686192 0.150004 . .
H19 H 0.179853 0.139927 0.213391 . .
P4 P 0.2068(15) 0.8804(10) 0.073(4) 0.0100 Uiso
O10 O 0.0820(17) 0.8680(24) 0.041(8) 0.0100 Uiso
O11 O 0.268(4) 0.8468(21) 0.306(6) 0.0100 Uiso
C7 C 0.2312(34) 0.9783(10) 0.087(7) 0.0100 Uiso
La6 La 0.3305(4) 0.7500 0.6237(11) 0.0100 Uiso
H11 H 0.0554442 0.891597 0.172591 . .
H16 H 0.307264 0.984403 0.0254526 . .
H20 H 0.0722135 0.961385 0.650487 . .
O12 O 0.2484(31) 0.8487(19) 0.860(6) 0.0100 Uiso
P2 P 0.7479(14) 0.1126(11) 0.914(4) 0.0100 Uiso
O4 O 0.8730(16) 0.1066(24) 0.931(9) 0.0100 Uiso
C2 C 0.6909(33) 0.0229(14) 0.833(6) 0.0100 Uiso
H3 H 0.906494 0.156189 0.9577 . .
H4 H 0.603211 0.031639 0.811115 . .
H6 H 0.95934 0.0832008 0.366827 . .
H7 H 0.993684 0.0891707 0.678388 . .
H10 H 0.557417 0.00976175 0.872902 . .
H24 H 0.79299 0.0451702 0.477195 . .
P3 P 0.5532(15) 0.8986(12) 0.797(5) 0.0100 Uiso
O8 O 0.4831(25) 0.8486(18) 0.602(6) 0.0100 Uiso
O9 O 0.5078(27) 0.9759(15) 0.767(8) 0.0100 Uiso
C6 C 0.6885(20) 0.8943(15) 0.721(8) 0.0100 Uiso
N2 N 0.6997(28) 0.9715(17) 0.636(6) 0.0100 Uiso
C8 C 0.7907(33) 0.9863(26) 0.510(6) 0.0100 Uiso
C9 C 0.9030(33) 0.9627(28) 0.643(10) 0.0100 Uiso
C10 C 0.999(4) 0.9849(25) 0.541(13) 0.0100 Uiso
H5 H 0.720089 0.989978 0.989699 . .
H14 H 0.69037 0.854093 0.583233 . .
H15 H 0.752156 0.881431 0.873711 . .
H21 H 0.987351 0.961952 0.364747 . .
H22 H 0.903055 0.902931 0.654252 . .
H23 H 0.914927 0.985981 0.818852 . .
H25 H 0.77297 0.956969 0.343319 . .
P2_2 P 0.2521(14) 0.6126(11) 0.086(4) 0.0100 Uiso
O4_2 O 0.1270(16) 0.6066(24) 0.069(9) 0.0100 Uiso
O5 O 0.3049(35) 0.6630(20) 0.290(6) 0.0100 Uiso
C2_2 C 0.3091(33) 0.5229(14) 0.167(6) 0.0100 Uiso
P3_2 P 0.4468(15) 0.3986(12) 0.203(5) 0.0100 Uiso
O9_2 O 0.4922(27) 0.4759(15) 0.233(8) 0.0100 Uiso
C6_2 C 0.3115(20) 0.3943(15) 0.279(8) 0.0100 Uiso
N2_2 N 0.3003(28) 0.4715(17) 0.364(6) 0.0100 Uiso
C8_2 C 0.2093(33) 0.4863(26) 0.490(6) 0.0100 Uiso
C9_2 C 0.0970(33) 0.4627(28) 0.357(10) 0.0100 Uiso
C10_2 C 0.001(4) 0.4849(25) 0.459(13) 0.0100 Uiso
H3_2 H 0.0935057 0.656189 0.0423005 . .
H4_2 H 0.396789 0.531639 0.188885 . .
H5_2 H 0.279911 0.489978 0.0103012 . .
H6_2 H 0.0406598 0.583201 0.633173 . .
H7_2 H 0.00631633 0.589171 0.321612 . .
H10_2 H 0.442583 0.509762 0.127098 . .
H14_2 H 0.30963 0.354093 0.416767 . .
H15_2 H 0.247844 0.381431 0.126289 . .
H21_2 H 0.012649 0.461952 0.635253 . .
H22_2 H 0.0969451 0.402931 0.345748 . .
H23_2 H 0.085073 0.485981 0.181148 . .
H24_2 H 0.20701 0.54517 0.522805 . .
H25_2 H 0.22703 0.456969 0.656681 . .
O6 O 0.2815(31) 0.6341(15) 0.849(5) 0.0100 Uiso
O7 O 0.4326(30) 0.3659(22) 0.955(5) 0.0100 Uiso
H8 H 0.395324 0.317538 0.949883 . .
O1 O 0.5701(30) 0.5892(24) 0.086(5) 0.0100 Uiso
H9 H 0.508118 0.605459 0.156237 . .
H17 H 0.83607 0.500585 0.0436892 . .
P1_2 P 0.5348(16) 0.5889(13) 0.820(5) 0.0100 Uiso
O2_2 O 0.5004(22) 0.6682(16) 0.741(8) 0.0100 Uiso
O3_2 O 0.4507(26) 0.5301(19) 0.722(8) 0.0100 Uiso
C1_2 C 0.6516(23) 0.5732(23) 0.681(7) 0.0100 Uiso
N1_2 N 0.7571(19) 0.5320(16) 0.713(6) 0.0100 Uiso
C3_2 C 0.8471(28) 0.5878(23) 0.726(7) 0.0100 Uiso
C4_2 C 0.8763(30) 0.5992(24) 0.490(8) 0.0100 Uiso
C5_2 C 0.9834(34) 0.5652(25) 0.476(10) 0.0100 Uiso
P4_2 P 0.7932(15) 0.3804(10) 0.927(4) 0.0100 Uiso
O10_2 O 0.9180(17) 0.3680(24) 0.959(8) 0.0100 Uiso
C7_2 C 0.7688(34) 0.4783(10) 0.913(7) 0.0100 Uiso
H1_2 H 0.880612 0.658013 0.458 . .
H2_2 H 0.812746 0.57471 0.355456 . .
H11_2 H 0.944556 0.391597 0.827409 . .
H12_2 H 0.679732 0.629334 0.666232 . .
H13_2 H 0.610337 0.553607 0.50861 . .
H16_2 H 0.692736 0.484403 0.974547 . .
H18_2 H 0.919176 0.568619 0.849996 . .
H19_2 H 0.820147 0.639927 0.786609 . .
H20_2 H 0.927787 0.461385 0.349513 . .
O1_2 O 0.4299(30) 0.0892(24) 0.914(5) 0.0100 Uiso
H9_2 H 0.491882 0.105459 0.843763 . .
H17_2 H 0.16393 0.00058454 0.956311 . .
O7_2 O 0.5674(30) 0.8659(22) 0.045(5) 0.0100 Uiso
H8_2 H 0.604676 0.817538 0.0501167 . .
loop_
_geom_bond_atom_site_label_1
_geom_bond_atom_site_label_2
_geom_bond_site_symmetry_1
_geom_bond_site_symmetry_2
La1 O2 1_555 1_555
O2 P1 1_555 1_555
O3 P1 1_555 1_555
C1 P1 1_555 1_555
N1 C1 1_555 1_555
C3 N1 1_555 1_555
C4 C3 1_555 1_555
C5 C4 1_555 1_555
O13 La1 1_555 1_555
O14 La1 1_555 1_555
O15 La1 1_555 1_555
O16 La1 1_555 1_555
O17 La1 1_555 1_555
C4 H1 1_555 1_555
C4 H2 1_555 1_555
C1 H12 1_555 1_555
C1 H13 1_555 1_555
C3 H18 1_555 1_555
C3 H19 1_555 1_555
P4 O10 1_555 1_555
O11 P4 1_555 1_555
La6 O11 1_555 1_555
P4 C7 1_555 1_555
O10 H11 1_555 1_555
C7 H16 1_555 1_555
La6 O12 1_555 1_555
P2 O4 1_555 1_555
O13 P2 1_555 1_555
C2 P2 1_555 1_555
O4 H3 1_555 1_555
C2 H4 1_555 1_555
O8 P3 1_555 1_555
O9 P3 1_555 1_555
C6 P3 1_555 1_555
C8 N2 1_555 1_555
C9 C8 1_555 1_555
La6 O8 1_555 1_555
C6 N2 1_555 1_555
C9 C10 1_555 1_555
C6 H14 1_555 1_555
C6 H15 1_555 1_555
C10 H21 1_555 1_555
C9 H22 1_555 1_555
C9 H23 1_555 1_555
C8 H25 1_555 1_555
P2_2 O4_2 1_555 1_555
O5 P2_2 1_555 1_555
C2_2 P2_2 1_555 1_555
O15 P3_2 1_555 1_555
O9_2 P3_2 1_555 1_555
C6_2 P3_2 1_555 1_555
N2_2 C2_2 1_555 1_555
C8_2 N2_2 1_555 1_555
C9_2 C8_2 1_555 1_555
La6 O5 1_555 1_555
C6_2 N2_2 1_555 1_555
C9_2 C10_2 1_555 1_555
O4_2 H3_2 1_555 1_555
C2_2 H4_2 1_555 1_555
C2_2 H5_2 1_555 1_555
O9_2 H10_2 1_555 1_555
C6_2 H14_2 1_555 1_555
C6_2 H15_2 1_555 1_555
C10_2 H21_2 1_555 1_555
C9_2 H22_2 1_555 1_555
C9_2 H23_2 1_555 1_555
C8_2 H24_2 1_555 1_555
C8_2 H25_2 1_555 1_555
La6 O6 1_555 1_555
O7 H8 1_555 1_555
O1 H9 1_555 1_555
La6 O2_2 1_555 1_555
O2_2 P1_2 1_555 1_555
O3_2 P1_2 1_555 1_555
C1_2 P1_2 1_555 1_555
N1_2 C1_2 1_555 1_555
C3_2 N1_2 1_555 1_555
C4_2 C3_2 1_555 1_555
C5_2 C4_2 1_555 1_555
P4_2 O10_2 1_555 1_555
O16 P4_2 1_555 1_555
C7_2 N1_2 1_555 1_555
P4_2 C7_2 1_555 1_555
C4_2 H1_2 1_555 1_555
C4_2 H2_2 1_555 1_555
O10_2 H11_2 1_555 1_555
C1_2 H12_2 1_555 1_555
C1_2 H13_2 1_555 1_555
C7_2 H16_2 1_555 1_555
C3_2 H18_2 1_555 1_555
C3_2 H19_2 1_555 1_555
O1_2 H9_2 1_555 1_555
O7_2 H8_2 1_555 1_555

#END
