
###############################################################################
#
# This file contains modified crystal structure data generated from the
# MOF subset of the Cambridge Structural Database (CSD) v543 
# hosted by the Cambridge Crystallographic Data Centre (CCDC).
#
# This work is licensed under the Creative Commons
# Attribution-NonCommercial-ShareAlike 4.0 International License.
# To view a copy of this license, visit
# http://creativecommons.org/licenses/by-nc-sa/4.0/
# or send a letter to
# Creative Commons, PO Box 1866, Mountain View, CA 94042, USA.
#
# CIF created using the CSD Python API on 29 September 2022
# The structure has been converted into the P1 space group
# The structure has a 3D framework
# The original CSD entry CAVXOP is in the monoclinic crystal system
# The framework has been calculated to contain at least 10.0% void space
# The void calculation uses a probe of radius 1.32A, grid spacing 0.4
#
###############################################################################

data_CAVXOP
_chemical_formula_moiety         '(C12 H8 N12 O8 Zn4)n'
_symmetry_cell_setting           triclinic
_symmetry_space_group_name_H-M   'P 1'
_symmetry_Int_Tables_number      1
_space_group_name_Hall           'P 1'
loop_
_symmetry_equiv_pos_site_id
_symmetry_equiv_pos_as_xyz
1 x,y,z
_cell_length_a                   8.9147(3)
_cell_length_b                   9.7297(3)
_cell_length_c                   9.5179(4)
_cell_angle_alpha                90
_cell_angle_beta                 115.745(5)
_cell_angle_gamma                90
_cell_volume                     743.609
loop_
_atom_site_label
_atom_site_type_symbol
_atom_site_fract_x
_atom_site_fract_y
_atom_site_fract_z
N2 N 0.0275(4) 0.3923(3) 0.3645(4)
C2 C 0.0172(5) 0.3055(4) 0.2545(5)
H1 H 0.0857 0.3096 0.2038
Zn4 Zn 0.17535(5) 0.55862(4) 0.43667(4)
Zn1 Zn 0.82465(5) 0.05862(4) 0.06333(4)
N1 N 0.8986(4) 0.2113(3) 0.2235(3)
N3 N 0.9069(4) 0.3529(3) 0.4084(3)
C3 C 0.8346(5) 0.2450(4) 0.3234(4)
H2 H 0.7484 0.1970 0.3313
Zn6 Zn 0.82465(5) 0.44138(4) 0.56333(4)
O3 O 0.3253(3) 0.0291(3) 0.8274(3)
O4 O 0.5906(3) 0.0776(3) 0.8912(3)
C4 C 0.4754(5) 0.0313(4) 0.9187(4)
N8 N 0.0275(4) 0.1077(3) 0.8645(4)
N10 N 0.9069(4) 0.1471(3) 0.9084(3)
O1 O 0.6747(3) 0.9709(3) 0.1726(3)
O2 O 0.4094(3) 0.9224(3) 0.1088(3)
C1 C 0.5246(5) 0.9687(4) 0.0813(4)
N7 N 0.9725(4) 0.8923(3) 0.1355(4)
N9 N 0.0931(4) 0.8529(3) 0.0916(3)
Zn2 Zn 0.17535(5) 0.94138(4) 0.93667(4)
N4 N 0.1014(4) 0.7887(3) 0.7765(3)
N6 N 0.0931(4) 0.6471(3) 0.5916(3)
C6 C 0.1654(5) 0.7550(4) 0.6766(4)
H4 H 0.2516 0.8030 0.6687
N5 N 0.9725(4) 0.6077(3) 0.6355(4)
C5 C 0.9828(5) 0.6945(4) 0.7455(5)
H3 H 0.9143 0.6904 0.7962
C5_2 C 0.0172(5) 0.1945(4) 0.7545(5)
H3_2 H 0.0857 0.1904 0.7038
O1_2 O 0.3253(3) 0.4709(3) 0.3274(3)
O2_2 O 0.5906(3) 0.4224(3) 0.3912(3)
N1_2 N 0.1014(4) 0.7113(3) 0.2765(3)
C1_2 C 0.4754(5) 0.4687(4) 0.4187(4)
C3_2 C 0.1654(5) 0.7450(4) 0.1766(4)
H2_2 H 0.2516 0.6970 0.1687
O3_2 O 0.6747(3) 0.5291(3) 0.6726(3)
O4_2 O 0.4094(3) 0.5776(3) 0.6088(3)
C4_2 C 0.5246(5) 0.5313(4) 0.5813(4)
N4_2 N 0.8986(4) 0.2887(3) 0.7235(3)
C6_2 C 0.8346(5) 0.2550(4) 0.8234(4)
H4_2 H 0.7484 0.3030 0.8313
C2_2 C 0.9828(5) 0.8055(4) 0.2455(5)
H1_2 H 0.9143 0.8096 0.2962
loop_
_geom_bond_atom_site_label_1
_geom_bond_atom_site_label_2
_geom_bond_site_symmetry_1
_geom_bond_site_symmetry_2
H1 C2 1_555 1_555
Zn4 N2 1_555 1_555
N2 C2 1_555 1_555
N1 Zn1 1_555 1_555
N3 C3 1_555 1_555
C3 N1 1_555 1_555
H2 C3 1_555 1_555
Zn6 N3 1_555 1_555
O3 C4 1_555 1_555
C4 O4 1_555 1_555
O1 C1 1_555 1_555
O2 C1 1_555 1_555
N4 Zn2 1_555 1_555
N6 C6 1_555 1_555
C6 N4 1_555 1_555
H4 C6 1_555 1_555
Zn4 N6 1_555 1_555
H3 C5 1_555 1_555
Zn6 N5 1_555 1_555
N5 C5 1_555 1_555
H3_2 C5_2 1_555 1_555
N8 C5_2 1_555 1_555
Zn4 O1_2 1_555 1_555
O1_2 C1_2 1_555 1_555
O2_2 C1_2 1_555 1_555
N1_2 Zn4 1_555 1_555
N9 C3_2 1_555 1_555
C1_2 C4_2 1_555 1_555
C3_2 N1_2 1_555 1_555
H2_2 C3_2 1_555 1_555
O3_2 C4_2 1_555 1_555
O4_2 Zn4 1_555 1_555
C4_2 O4_2 1_555 1_555
Zn6 O2_2 1_555 1_555
N4_2 Zn6 1_555 1_555
N10 C6_2 1_555 1_555
C6_2 N4_2 1_555 1_555
H4_2 C6_2 1_555 1_555
O3_2 Zn6 1_555 1_555
H1_2 C2_2 1_555 1_555
N7 C2_2 1_555 1_555

#END
