
###############################################################################
#
# This file contains modified crystal structure data generated from the
# MOF subset of the Cambridge Structural Database (CSD) v543 
# hosted by the Cambridge Crystallographic Data Centre (CCDC).
#
# This work is licensed under the Creative Commons
# Attribution-NonCommercial-ShareAlike 4.0 International License.
# To view a copy of this license, visit
# http://creativecommons.org/licenses/by-nc-sa/4.0/
# or send a letter to
# Creative Commons, PO Box 1866, Mountain View, CA 94042, USA.
#
# CIF created using the CSD Python API on 29 September 2022
# The structure has been converted into the P1 space group
# The structure has a 3D framework
# The original CSD entry CAWGAJ is in the monoclinic crystal system
# The framework has been calculated to contain at least 10.0% void space
# The void calculation uses a probe of radius 1.32A, grid spacing 0.4
#
###############################################################################

data_CAWGAJ
_chemical_formula_moiety         '(C80 H80 F26 N16 O24 U8 Zn8)n'
_symmetry_cell_setting           triclinic
_symmetry_space_group_name_H-M   'P 1'
_symmetry_Int_Tables_number      1
_space_group_name_Hall           'P 1'
loop_
_symmetry_equiv_pos_site_id
_symmetry_equiv_pos_as_xyz
1 x,y,z
_cell_length_a                   9.4630(5)
_cell_length_b                   22.3836(12)
_cell_length_c                   16.7534(8)
_cell_angle_alpha                90
_cell_angle_beta                 91.899(2)
_cell_angle_gamma                90
_cell_volume                     3546.69
loop_
_atom_site_label
_atom_site_type_symbol
_atom_site_fract_x
_atom_site_fract_y
_atom_site_fract_z
C9 C 0.2734(3) 0.06302(11) 0.03055(16)
H11 H 0.3098 0.0453 0.0771
C10 C 0.2714(3) 0.12401(11) 0.02336(16)
H12 H 0.3049 0.1468 0.0664
N2 N 0.2237(2) 0.15237(9) 0.95764(14)
C6 C 0.2210(3) 0.02761(11) 0.96799(17)
C7 C 0.1739(3) 0.05736(11) 0.89972(16)
H9 H 0.1398 0.0357 0.8558
C8 C 0.1771(3) 0.11857(11) 0.89646(17)
H10 H 0.1456 0.1374 0.8497
Zn6 Zn 0.22604(3) 0.246310(14) 0.949580(15)
Zn2 Zn 0.77396(3) 0.753690(14) 0.050420(15)
O6 O 0.58680(18) 0.75931(8) 0.11423(10)
H3 H 0.5154 0.7489 0.0878
H4 H 0.5750 0.7587 0.1584
C3 C 0.2775(3) 0.86802(11) 0.03350(17)
H7 H 0.3356 0.8466 0.0691
C4 C 0.2975(3) 0.92835(11) 0.02722(17)
H8 H 0.3691 0.9471 0.0572
C13 C 0.2560(3) 0.62137(11) 0.03461(16)
H15 H 0.3034 0.6411 0.0764
C14 C 0.2750(3) 0.56079(11) 0.02706(17)
H16 H 0.3335 0.5403 0.0634
H19 H 0.4151 0.4529 0.0032
F9 F 0.89513(13) 0.75561(6) 0.15695(8)
F10 F 0.17198(14) 0.74166(6) 0.11225(8)
N5 N 0.7763(2) 0.84763(9) 0.04236(14)
N6 N 0.7708(2) 0.65988(9) 0.05542(13)
U1 U 0.457019(9) 0.748114(4) 0.864421(5)
U2 U 0.094274(9) 0.746078(4) 0.735066(5)
Zn1 Zn 0.15887(3) 0.745950(12) 0.994545(15)
F1 F 0.33984(13) 0.75057(7) 0.74174(7)
F2 F 0.65477(13) 0.74875(6) 0.94340(7)
F3 F 0.38193(13) 0.74384(6) 0.99289(7)
F4 F 0.19398(13) 0.74548(6) 0.86683(7)
F5 F 0.62951(14) 0.75235(7) 0.77582(8)
F7 F 0.17198(14) 0.75834(6) 0.61225(8)
O1 O 0.4502(2) 0.82725(7) 0.86709(11)
O2 O 0.4569(2) 0.66893(7) 0.86207(11)
O3 O 0.0824(2) 0.82500(7) 0.74348(11)
O4 O 0.1049(2) 0.66723(7) 0.72936(11)
N1 N 0.1780(2) 0.83828(9) 0.99057(14)
N3 N 0.1725(2) 0.65346(9) 0.98458(13)
N4 N 0.2292(2) 0.34012(9) 0.94458(13)
C1 C 0.0946(3) 0.86980(11) 0.93995(17)
H5 H 0.0255 0.8497 0.9097
C2 C 0.1070(3) 0.93063(11) 0.93094(17)
H6 H 0.0471 0.9510 0.8952
C5 C 0.2099(3) 0.96157(11) 0.97565(17)
C11 C 0.1064(3) 0.62413(11) 0.92468(17)
H13 H 0.0480 0.6457 0.8894
C12 C 0.1203(3) 0.56362(11) 0.91255(16)
H14 H 0.0728 0.5451 0.8698
C15 C 0.2064(3) 0.53032(11) 0.96494(17)
C16 C 0.2176(3) 0.46457(11) 0.95544(16)
C17 C 0.1058(3) 0.43191(10) 0.92202(15)
H17 H 0.0249 0.4513 0.9024
C18 C 0.1158(3) 0.37058(11) 0.91811(16)
H18 H 0.0397 0.3493 0.8959
C19 C 0.3370(3) 0.43281(11) 0.98135(16)
C20 C 0.3391(3) 0.37182(11) 0.97459(16)
H20 H 0.4203 0.3514 0.9916
Zn3 Zn 0.15887(3) 0.754050(12) 0.494545(15)
F11 F 0.94864(13) 0.74766(6) 0.97842(7)
F6 F 0.89513(13) 0.74439(6) 0.65695(8)
O5 O 0.89582(18) 0.73690(8) 0.82442(10)
H1 H 0.9005 0.7445 0.8749
H2 H 0.8199 0.7405 0.8063
Zn4 Zn 0.77396(3) 0.746310(14) 0.550420(15)
F6_2 F 0.10487(13) 0.24439(6) 0.84305(8)
F8 F 0.05136(13) 0.24766(6) 0.52158(7)
O5_2 O 0.10418(18) 0.23690(8) 0.67558(10)
H1_2 H 0.0995 0.2445 0.6251
H2_2 H 0.1801 0.2405 0.6937
Zn5 Zn 0.22604(3) 0.253690(14) 0.449580(15)
Zn3_2 Zn 0.84113(3) 0.254050(12) 0.005455(15)
U1_2 U 0.542981(9) 0.248114(4) 0.635579(5)
U2_2 U 0.905726(9) 0.246078(4) 0.764934(5)
Zn1_2 Zn 0.84113(3) 0.245950(12) 0.505455(15)
F1_2 F 0.66016(13) 0.25057(7) 0.75826(7)
F2_2 F 0.34523(13) 0.24875(6) 0.55660(7)
F3_2 F 0.61807(13) 0.24384(6) 0.50711(7)
F4_2 F 0.80602(13) 0.24548(6) 0.63317(7)
F5_2 F 0.37049(14) 0.25235(7) 0.72418(8)
F7_2 F 0.82802(14) 0.25834(6) 0.88775(8)
O1_2 O 0.5498(2) 0.32725(7) 0.63291(11)
O2_2 O 0.5431(2) 0.16893(7) 0.63793(11)
O3_2 O 0.9176(2) 0.32500(7) 0.75652(11)
O4_2 O 0.8951(2) 0.16723(7) 0.77064(11)
O6_2 O 0.41320(18) 0.25931(8) 0.38577(10)
H3_2 H 0.4846 0.2489 0.4122
H4_2 H 0.4250 0.2587 0.3416
N1_2 N 0.8220(2) 0.33828(9) 0.50943(14)
N2_2 N 0.7763(2) 0.65237(9) 0.54236(14)
N3_2 N 0.8275(2) 0.15346(9) 0.51542(13)
C1_2 C 0.9054(3) 0.36980(11) 0.56005(17)
H5_2 H 0.9745 0.3497 0.5903
C2_2 C 0.8930(3) 0.43063(11) 0.56906(17)
H6_2 H 0.9529 0.4510 0.6048
C3_2 C 0.7225(3) 0.36802(11) 0.46650(17)
H7_2 H 0.6644 0.3466 0.4309
C4_2 C 0.7025(3) 0.42835(11) 0.47278(17)
H8_2 H 0.6309 0.4471 0.4428
C5_2 C 0.7901(3) 0.46157(11) 0.52435(17)
C6_2 C 0.7790(3) 0.52761(11) 0.53201(17)
C7_2 C 0.8261(3) 0.55736(11) 0.60028(16)
H9_2 H 0.8602 0.5357 0.6442
C8_2 C 0.8229(3) 0.61857(11) 0.60354(17)
H10_2 H 0.8544 0.6374 0.6503
C9_2 C 0.7266(3) 0.56302(11) 0.46945(16)
H11_2 H 0.6902 0.5453 0.4229
C10_2 C 0.7286(3) 0.62401(11) 0.47664(16)
H12_2 H 0.6951 0.6468 0.4336
C11_2 C 0.8936(3) 0.12413(11) 0.57532(17)
H13_2 H 0.9520 0.1457 0.6106
C12_2 C 0.8797(3) 0.06362(11) 0.58745(16)
H14_2 H 0.9272 0.0451 0.6302
C13_2 C 0.7440(3) 0.12137(11) 0.46539(16)
H15_2 H 0.6966 0.1411 0.4236
C14_2 C 0.7250(3) 0.06079(11) 0.47294(17)
H16_2 H 0.6665 0.0403 0.4366
C15_2 C 0.7936(3) 0.03032(11) 0.53506(17)
F9_2 F 0.10487(13) 0.25561(6) 0.34305(8)
F10_2 F 0.82802(14) 0.24166(6) 0.38775(8)
N5_2 N 0.2237(2) 0.34763(9) 0.45764(14)
N6_2 N 0.2292(2) 0.15988(9) 0.44458(13)
N4_2 N 0.7708(2) 0.84012(9) 0.55542(13)
C16_2 C 0.7824(3) 0.96457(11) 0.54456(16)
C17_2 C 0.8942(3) 0.93191(10) 0.57798(15)
H17_2 H 0.9751 0.9513 0.5976
C18_2 C 0.8842(3) 0.87058(11) 0.58189(16)
H18_2 H 0.9603 0.8493 0.6041
C19_2 C 0.6630(3) 0.93281(11) 0.51865(16)
H19_2 H 0.5849 0.9529 0.4968
C20_2 C 0.6609(3) 0.87182(11) 0.52541(16)
H20_2 H 0.5797 0.8514 0.5084
F8_2 F 0.05136(13) 0.25234(6) 0.02158(7)
O5_3 O 0.10418(18) 0.26310(8) 0.17558(10)
H1_3 H 0.0995 0.2555 0.1251
H2_3 H 0.1801 0.2595 0.1937
U1_3 U 0.542981(9) 0.251886(4) 0.135579(5)
U2_3 U 0.905726(9) 0.253922(4) 0.264934(5)
F1_3 F 0.66016(13) 0.24943(7) 0.25826(7)
F2_3 F 0.34523(13) 0.25125(6) 0.05660(7)
F3_3 F 0.61807(13) 0.25616(6) 0.00711(7)
F4_3 F 0.80602(13) 0.25452(6) 0.13317(7)
F5_3 F 0.37049(14) 0.24765(7) 0.22418(8)
O1_3 O 0.5498(2) 0.17275(7) 0.13291(11)
O2_3 O 0.5431(2) 0.33107(7) 0.13793(11)
O3_3 O 0.9176(2) 0.17500(7) 0.25652(11)
O4_3 O 0.8951(2) 0.33277(7) 0.27064(11)
N1_3 N 0.8220(2) 0.16172(9) 0.00943(14)
N3_3 N 0.8275(2) 0.34654(9) 0.01542(13)
C1_3 C 0.9054(3) 0.13020(11) 0.06005(17)
H5_3 H 0.9745 0.1503 0.0903
C2_3 C 0.8930(3) 0.06937(11) 0.06906(17)
H6_3 H 0.9529 0.0490 0.1048
C5_3 C 0.7901(3) 0.03843(11) 0.02435(17)
C11_3 C 0.8936(3) 0.37587(11) 0.07532(17)
H13_3 H 0.9520 0.3543 0.1106
C12_3 C 0.8797(3) 0.43638(11) 0.08745(16)
H14_3 H 0.9272 0.4549 0.1302
C15_3 C 0.7936(3) 0.46968(11) 0.03506(17)
C16_3 C 0.7824(3) 0.53543(11) 0.04456(16)
C17_3 C 0.8942(3) 0.56809(10) 0.07798(15)
H17_3 H 0.9751 0.5487 0.0976
C18_3 C 0.8842(3) 0.62942(11) 0.08189(16)
H18_3 H 0.9603 0.6507 0.1041
C19_3 C 0.6630(3) 0.56719(11) 0.01865(16)
C20_3 C 0.6609(3) 0.62818(11) 0.02541(16)
H20_3 H 0.5797 0.6486 0.0084
O6_3 O 0.41320(18) 0.24069(8) 0.88577(10)
H3_3 H 0.4846 0.2511 0.9122
H4_3 H 0.4250 0.2413 0.8416
C3_3 C 0.7225(3) 0.13198(11) 0.96650(17)
H7_3 H 0.6644 0.1534 0.9309
C4_3 C 0.7025(3) 0.07165(11) 0.97278(17)
H8_3 H 0.6309 0.0529 0.9428
C13_3 C 0.7440(3) 0.37863(11) 0.96539(16)
H15_3 H 0.6966 0.3589 0.9236
C14_3 C 0.7250(3) 0.43921(11) 0.97294(17)
H16_3 H 0.6665 0.4597 0.9366
H19_3 H 0.5849 0.5471 0.9968
C6_3 C 0.7790(3) 0.97239(11) 0.03201(17)
C7_3 C 0.8261(3) 0.94264(11) 0.10028(16)
H9_3 H 0.8602 0.9643 0.1442
C8_3 C 0.8229(3) 0.88143(11) 0.10354(17)
H10_3 H 0.8544 0.8626 0.1503
C16_4 C 0.2176(3) 0.03543(11) 0.45544(16)
C17_4 C 0.1058(3) 0.06809(10) 0.42202(15)
H17_4 H 0.0249 0.0487 0.4024
C18_4 C 0.1158(3) 0.12942(11) 0.41811(16)
H18_4 H 0.0397 0.1507 0.3959
C19_4 C 0.3370(3) 0.06719(11) 0.48135(16)
H19_4 H 0.4151 0.0471 0.5032
C20_4 C 0.3391(3) 0.12818(11) 0.47459(16)
H20_4 H 0.4203 0.1486 0.4916
U1_4 U 0.457019(9) 0.751886(4) 0.364421(5)
U2_4 U 0.094274(9) 0.753922(4) 0.235066(5)
F1_4 F 0.33984(13) 0.74943(7) 0.24174(7)
F2_4 F 0.65477(13) 0.75125(6) 0.44340(7)
F3_4 F 0.38193(13) 0.75616(6) 0.49289(7)
F4_4 F 0.19398(13) 0.75452(6) 0.36683(7)
F5_4 F 0.62951(14) 0.74765(7) 0.27582(8)
O1_4 O 0.4502(2) 0.67275(7) 0.36709(11)
O2_4 O 0.4569(2) 0.83107(7) 0.36207(11)
O3_4 O 0.0824(2) 0.67500(7) 0.24348(11)
O4_4 O 0.1049(2) 0.83277(7) 0.22936(11)
O6_4 O 0.58680(18) 0.74069(8) 0.61423(10)
H3_4 H 0.5154 0.7511 0.5878
H4_4 H 0.5750 0.7413 0.6584
N1_4 N 0.1780(2) 0.66172(9) 0.49057(14)
N3_4 N 0.1725(2) 0.84654(9) 0.48458(13)
C1_4 C 0.0946(3) 0.63020(11) 0.43995(17)
H5_4 H 0.0255 0.6503 0.4097
C2_4 C 0.1070(3) 0.56937(11) 0.43094(17)
H6_4 H 0.0471 0.5490 0.3952
C3_4 C 0.2775(3) 0.63198(11) 0.53350(17)
H7_4 H 0.3356 0.6534 0.5691
C4_4 C 0.2975(3) 0.57165(11) 0.52722(17)
H8_4 H 0.3691 0.5529 0.5572
C5_4 C 0.2099(3) 0.53843(11) 0.47565(17)
C6_4 C 0.2210(3) 0.47239(11) 0.46799(17)
C7_4 C 0.1739(3) 0.44264(11) 0.39972(16)
H9_4 H 0.1398 0.4643 0.3558
C8_4 C 0.1771(3) 0.38143(11) 0.39646(17)
H10_4 H 0.1456 0.3626 0.3497
C9_3 C 0.2734(3) 0.43698(11) 0.53055(16)
H11_3 H 0.3098 0.4547 0.5771
C10_3 C 0.2714(3) 0.37599(11) 0.52336(16)
H12_3 H 0.3049 0.3532 0.5664
C11_4 C 0.1064(3) 0.87587(11) 0.42468(17)
H13_4 H 0.0480 0.8543 0.3894
C12_4 C 0.1203(3) 0.93638(11) 0.41255(16)
H14_4 H 0.0728 0.9549 0.3698
C13_4 C 0.2560(3) 0.87863(11) 0.53461(16)
H15_4 H 0.3034 0.8589 0.5764
C14_4 C 0.2750(3) 0.93921(11) 0.52706(17)
H16_4 H 0.3335 0.9597 0.5634
C15_4 C 0.2064(3) 0.96968(11) 0.46494(17)
F11_2 F 0.94864(13) 0.75234(6) 0.47842(7)
O5_4 O 0.89582(18) 0.76310(8) 0.32442(10)
H1_4 H 0.9005 0.7555 0.3749
H2_4 H 0.8199 0.7595 0.3063
C9_4 C 0.7266(3) 0.93698(11) 0.96945(16)
H11_4 H 0.6902 0.9547 0.9229
C10_4 C 0.7286(3) 0.87599(11) 0.97664(16)
H12_4 H 0.6951 0.8532 0.9336
loop_
_geom_bond_atom_site_label_1
_geom_bond_atom_site_label_2
_geom_bond_site_symmetry_1
_geom_bond_site_symmetry_2
H11 C9 1_555 1_555
H12 C10 1_555 1_555
C9 C10 1_555 1_555
N2 C8 1_555 1_555
C7 C6 1_555 1_555
H9 C7 1_555 1_555
C8 C7 1_555 1_555
H10 C8 1_555 1_555
Zn6 N2 1_555 1_555
O6 Zn2 1_555 1_555
H3 O6 1_555 1_555
H4 O6 1_555 1_555
H7 C3 1_555 1_555
C4 C3 1_555 1_555
H8 C4 1_555 1_555
H15 C13 1_555 1_555
C14 C13 1_555 1_555
H16 C14 1_555 1_555
F9 Zn2 1_555 1_555
N5 Zn2 1_555 1_555
N6 Zn2 1_555 1_555
U1 F1 1_555 1_555
U2 F1 1_555 1_555
Zn1 F3 1_555 1_555
F2 U1 1_555 1_555
F3 U1 1_555 1_555
F4 U1 1_555 1_555
F5 U1 1_555 1_555
F7 U2 1_555 1_555
O1 U1 1_555 1_555
O2 U1 1_555 1_555
O3 U2 1_555 1_555
O4 U2 1_555 1_555
N1 Zn1 1_555 1_555
N3 Zn1 1_555 1_555
N4 C18 1_555 1_555
C1 N1 1_555 1_555
H5 C1 1_555 1_555
C2 C1 1_555 1_555
H6 C2 1_555 1_555
C5 C2 1_555 1_555
C11 N3 1_555 1_555
H13 C11 1_555 1_555
C12 C11 1_555 1_555
H14 C12 1_555 1_555
C15 C12 1_555 1_555
C16 C15 1_555 1_555
C17 C16 1_555 1_555
H17 C17 1_555 1_555
C18 C17 1_555 1_555
H18 C18 1_555 1_555
C19 C16 1_555 1_555
C20 N4 1_555 1_555
H20 C20 1_555 1_555
Zn3 F7 1_555 1_555
Zn6 N4 1_555 1_555
U2 F4 1_555 1_555
Zn1 F4 1_555 1_555
C19 C20 1_555 1_555
H1 O5 1_555 1_555
H2 O5 1_555 1_555
Zn4 F6 1_555 1_555
H1_2 O5_2 1_555 1_555
H2_2 O5_2 1_555 1_555
Zn6 F6_2 1_555 1_555
Zn5 F8 1_555 1_555
U1_2 F1_2 1_555 1_555
U2_2 F1_2 1_555 1_555
Zn1_2 F3_2 1_555 1_555
Zn5 F2_2 1_555 1_555
F2_2 U1_2 1_555 1_555
F3_2 U1_2 1_555 1_555
F4_2 U1_2 1_555 1_555
F5_2 U1_2 1_555 1_555
F7_2 U2_2 1_555 1_555
O1_2 U1_2 1_555 1_555
O2_2 U1_2 1_555 1_555
O3_2 U2_2 1_555 1_555
O4_2 U2_2 1_555 1_555
O6_2 Zn5 1_555 1_555
H3_2 O6_2 1_555 1_555
H4_2 O6_2 1_555 1_555
N1_2 Zn1_2 1_555 1_555
N2_2 C8_2 1_555 1_555
N3_2 Zn1_2 1_555 1_555
C1_2 N1_2 1_555 1_555
H5_2 C1_2 1_555 1_555
C2_2 C1_2 1_555 1_555
H6_2 C2_2 1_555 1_555
C3_2 N1_2 1_555 1_555
H7_2 C3_2 1_555 1_555
C4_2 C3_2 1_555 1_555
H8_2 C4_2 1_555 1_555
C5_2 C2_2 1_555 1_555
C6_2 C5_2 1_555 1_555
C7_2 C6_2 1_555 1_555
H9_2 C7_2 1_555 1_555
C8_2 C7_2 1_555 1_555
H10_2 C8_2 1_555 1_555
C9_2 C6_2 1_555 1_555
H11_2 C9_2 1_555 1_555
C10_2 N2_2 1_555 1_555
H12_2 C10_2 1_555 1_555
C11_2 N3_2 1_555 1_555
H13_2 C11_2 1_555 1_555
C12_2 C11_2 1_555 1_555
H14_2 C12_2 1_555 1_555
C13_2 N3_2 1_555 1_555
H15_2 C13_2 1_555 1_555
C14_2 C13_2 1_555 1_555
H16_2 C14_2 1_555 1_555
C15_2 C12_2 1_555 1_555
Zn4 N2_2 1_555 1_555
F9_2 Zn5 1_555 1_555
F10_2 Zn1_2 1_555 1_555
N5_2 Zn5 1_555 1_555
N6_2 Zn5 1_555 1_555
U2_2 F4_2 1_555 1_555
Zn1_2 F4_2 1_555 1_555
C4_2 C5_2 1_555 1_555
C9_2 C10_2 1_555 1_555
C14_2 C15_2 1_555 1_555
N4_2 C18_2 1_555 1_555
C17_2 C16_2 1_555 1_555
H17_2 C17_2 1_555 1_555
C18_2 C17_2 1_555 1_555
H18_2 C18_2 1_555 1_555
C19_2 C16_2 1_555 1_555
H19_2 C19_2 1_555 1_555
C20_2 N4_2 1_555 1_555
H20_2 C20_2 1_555 1_555
Zn4 N4_2 1_555 1_555
C19_2 C20_2 1_555 1_555
H1_3 O5_3 1_555 1_555
H2_3 O5_3 1_555 1_555
U1_3 F1_3 1_555 1_555
U2_3 F1_3 1_555 1_555
Zn3_2 F3_3 1_555 1_555
F2_3 U1_3 1_555 1_555
F3_3 U1_3 1_555 1_555
F4_3 U1_3 1_555 1_555
F5_3 U1_3 1_555 1_555
F10_2 U2_3 1_555 1_555
O1_3 U1_3 1_555 1_555
O2_3 U1_3 1_555 1_555
O3_3 U2_3 1_555 1_555
O4_3 U2_3 1_555 1_555
N1_3 Zn3_2 1_555 1_555
N3_3 Zn3_2 1_555 1_555
N6 C18_3 1_555 1_555
C1_3 N1_3 1_555 1_555
H5_3 C1_3 1_555 1_555
C2_3 C1_3 1_555 1_555
H6_3 C2_3 1_555 1_555
C5_3 C2_3 1_555 1_555
C11_3 N3_3 1_555 1_555
H13_3 C11_3 1_555 1_555
C12_3 C11_3 1_555 1_555
H14_3 C12_3 1_555 1_555
C15_3 C12_3 1_555 1_555
C16_3 C15_3 1_555 1_555
C17_3 C16_3 1_555 1_555
H17_3 C17_3 1_555 1_555
C18_3 C17_3 1_555 1_555
H18_3 C18_3 1_555 1_555
C19_3 C16_3 1_555 1_555
C20_3 N6 1_555 1_555
H20_3 C20_3 1_555 1_555
U2_3 F4_3 1_555 1_555
Zn3_2 F4_3 1_555 1_555
C19_3 C20_3 1_555 1_555
O6_3 Zn6 1_555 1_555
H3_3 O6_3 1_555 1_555
H4_3 O6_3 1_555 1_555
H7_3 C3_3 1_555 1_555
C4_3 C3_3 1_555 1_555
H8_3 C4_3 1_555 1_555
H15_3 C13_3 1_555 1_555
C14_3 C13_3 1_555 1_555
H16_3 C14_3 1_555 1_555
N5 C8_3 1_555 1_555
C7_3 C6_3 1_555 1_555
H9_3 C7_3 1_555 1_555
C8_3 C7_3 1_555 1_555
H10_3 C8_3 1_555 1_555
N6_2 C18_4 1_555 1_555
C17_4 C16_4 1_555 1_555
H17_4 C17_4 1_555 1_555
C18_4 C17_4 1_555 1_555
H18_4 C18_4 1_555 1_555
C19_4 C16_4 1_555 1_555
H19_4 C19_4 1_555 1_555
C20_4 N6_2 1_555 1_555
H20_4 C20_4 1_555 1_555
C19_4 C20_4 1_555 1_555
U1_4 F1_4 1_555 1_555
U2_4 F1_4 1_555 1_555
Zn3 F3_4 1_555 1_555
Zn4 F2_4 1_555 1_555
F2_4 U1_4 1_555 1_555
F3_4 U1_4 1_555 1_555
F4_4 U1_4 1_555 1_555
F5_4 U1_4 1_555 1_555
F10 U2_4 1_555 1_555
O1_4 U1_4 1_555 1_555
O2_4 U1_4 1_555 1_555
O3_4 U2_4 1_555 1_555
O4_4 U2_4 1_555 1_555
O6_4 Zn4 1_555 1_555
H3_4 O6_4 1_555 1_555
H4_4 O6_4 1_555 1_555
N1_4 Zn3 1_555 1_555
N5_2 C8_4 1_555 1_555
N3_4 Zn3 1_555 1_555
C1_4 N1_4 1_555 1_555
H5_4 C1_4 1_555 1_555
C2_4 C1_4 1_555 1_555
H6_4 C2_4 1_555 1_555
C3_4 N1_4 1_555 1_555
H7_4 C3_4 1_555 1_555
C4_4 C3_4 1_555 1_555
H8_4 C4_4 1_555 1_555
C5_4 C2_4 1_555 1_555
C6_4 C5_4 1_555 1_555
C7_4 C6_4 1_555 1_555
H9_4 C7_4 1_555 1_555
C8_4 C7_4 1_555 1_555
H10_4 C8_4 1_555 1_555
C9_3 C6_4 1_555 1_555
H11_3 C9_3 1_555 1_555
C10_3 N5_2 1_555 1_555
H12_3 C10_3 1_555 1_555
C11_4 N3_4 1_555 1_555
H13_4 C11_4 1_555 1_555
C12_4 C11_4 1_555 1_555
H14_4 C12_4 1_555 1_555
C13_4 N3_4 1_555 1_555
H15_4 C13_4 1_555 1_555
C14_4 C13_4 1_555 1_555
H16_4 C14_4 1_555 1_555
C15_4 C12_4 1_555 1_555
F11_2 Zn4 1_555 1_555
U2_4 F4_4 1_555 1_555
Zn3 F4_4 1_555 1_555
C4_4 C5_4 1_555 1_555
C9_3 C10_3 1_555 1_555
C14_4 C15_4 1_555 1_555
H1_4 O5_4 1_555 1_555
H2_4 O5_4 1_555 1_555
H11_4 C9_4 1_555 1_555
H12_4 C10_4 1_555 1_555
C9_4 C10_4 1_555 1_555

#END
