
###############################################################################
#
# This file contains modified crystal structure data generated from the
# MOF subset of the Cambridge Structural Database (CSD) v543 
# hosted by the Cambridge Crystallographic Data Centre (CCDC).
#
# This work is licensed under the Creative Commons
# Attribution-NonCommercial-ShareAlike 4.0 International License.
# To view a copy of this license, visit
# http://creativecommons.org/licenses/by-nc-sa/4.0/
# or send a letter to
# Creative Commons, PO Box 1866, Mountain View, CA 94042, USA.
#
# CIF created using the CSD Python API on 29 September 2022
# The structure has been converted into the P1 space group
# The structure has a 3D framework
# The original CSD entry CAWVIH is in the orthorhombic crystal system
# The framework has been calculated to contain at least 10.0% void space
# The void calculation uses a probe of radius 1.32A, grid spacing 0.4
#
###############################################################################

data_CAWVIH
_chemical_formula_moiety         '(C166 H96 N6 O26 Zn2)n'
_symmetry_cell_setting           triclinic
_symmetry_space_group_name_H-M   'P 1'
_symmetry_Int_Tables_number      1
_space_group_name_Hall           'P 1'
loop_
_symmetry_equiv_pos_site_id
_symmetry_equiv_pos_as_xyz
1 x,y,z
_cell_length_a                   11.9887(4)
_cell_length_b                   18.6365(4)
_cell_length_c                   17.9807(6)
_cell_angle_alpha                90
_cell_angle_beta                 90
_cell_angle_gamma                90
_cell_volume                     4017.38
loop_
_atom_site_label
_atom_site_type_symbol
_atom_site_fract_x
_atom_site_fract_y
_atom_site_fract_z
Zn2 Zn 0.61039(4) 0.00897(2) 0.30242(2)
Zn6 Zn 0.38961(4) 0.00897(2) 0.19758(2)
O5 O 0.7500 0.0000 0.3532(2)
O9 O 0.5777(3) 0.11050(15) 0.28368(17)
O1 O 0.2500 0.0000 0.1468(2)
O8 O 0.4223(3) 0.11050(15) 0.21632(17)
O11 O 0.1402(3) 0.04900(17) 0.28542(16)
C1 C 0.9015(4) 0.0524(2) 0.1507(2)
O2 O 0.9948(3) 0.02658(16) 0.13231(16)
C2 C 0.8373(4) 0.0900(2) 0.0923(2)
O4 O 0.8598(3) 0.04900(17) 0.21458(16)
C5 C 0.8803(4) 0.0971(3) 0.0217(3)
H2 H 0.9495 0.0774 0.0103
C16 C 0.6734(5) 0.1550(3) 0.0537(3)
H7 H 0.6035 0.1736 0.0651
C18 C 0.7337(4) 0.1196(3) 0.1075(3)
H8 H 0.7042 0.1153 0.1552
O3 O 0.5777(3) 0.88950(15) 0.78368(17)
C3 C 0.6163(4) 0.2214(3) 0.7925(3)
H1 H 0.6260 0.2073 0.7433
C4 C 0.5519(5) 0.2804(2) 0.8085(2)
C6 C 0.5691(5) 0.7401(3) 0.7975(3)
H3 H 0.6166 0.7646 0.8296
N1 N 0.5000 0.3196(3) 0.7500
C7 C 0.5000 0.3958(3) 0.7500
C8 C 0.8205(4) 0.1336(3) 0.9676(3)
H4 H 0.8509 0.1384 0.9203
C9 C 0.5000 0.6268(3) 0.7500
C10 C 0.5000 0.8587(3) 0.7500
C11 C 0.5000 0.5471(3) 0.7500
C12 C 0.7164(4) 0.1633(2) 0.9823(2)
C13 C 0.6550(4) 0.2022(2) 0.9233(3)
C14 C 0.5679(5) 0.6659(3) 0.7977(3)
H5 H 0.6139 0.6415 0.8307
C15 C 0.5858(5) 0.4341(3) 0.7821(3)
H6 H 0.6453 0.4099 0.8038
C17 C 0.5000 0.7782(3) 0.7500
C19 C 0.6667(4) 0.1830(2) 0.8490(2)
H9 H 0.7097 0.1431 0.8370
C20 C 0.5838(5) 0.5079(3) 0.7824(4)
H10 H 0.6419 0.5324 0.8055
C21 C 0.5360(5) 0.2998(3) 0.8821(3)
H11 H 0.4914 0.3391 0.8936
C22 C 0.5866(5) 0.2607(3) 0.9392(3)
H12 H 0.5745 0.2738 0.9885
Zn4 Zn 0.61039(4) 0.99103(2) 0.80242(2)
Zn7 Zn 0.38961(4) 0.99103(2) 0.69758(2)
C23 C 0.0985(4) 0.0524(2) 0.3493(2)
O6 O 0.0052(3) 0.02658(16) 0.36769(16)
C24 C 0.1627(4) 0.0900(2) 0.4077(2)
O7 O 0.4223(3) 0.88950(15) 0.71632(17)
C25 C 0.3837(4) 0.2214(3) 0.7075(3)
H13 H 0.3740 0.2073 0.7567
C26 C 0.4481(5) 0.2804(2) 0.6915(2)
C27 C 0.1197(4) 0.0971(3) 0.4783(3)
H14 H 0.0505 0.0774 0.4897
C28 C 0.4309(5) 0.7401(3) 0.7025(3)
H15 H 0.3834 0.7646 0.6704
C29 C 0.1795(4) 0.1336(3) 0.5324(3)
H16 H 0.1491 0.1384 0.5797
C30 C 0.2836(4) 0.1633(2) 0.5177(2)
C31 C 0.3450(4) 0.2022(2) 0.5767(3)
C32 C 0.4321(5) 0.6659(3) 0.7023(3)
H17 H 0.3861 0.6415 0.6693
C33 C 0.4142(5) 0.4341(3) 0.7179(3)
H18 H 0.3547 0.4099 0.6962
C34 C 0.3266(5) 0.1550(3) 0.4463(3)
H19 H 0.3965 0.1736 0.4349
C35 C 0.2663(4) 0.1196(3) 0.3925(3)
H20 H 0.2958 0.1153 0.3448
C36 C 0.3333(4) 0.1830(2) 0.6510(2)
H21 H 0.2903 0.1431 0.6630
C37 C 0.4162(5) 0.5079(3) 0.7176(4)
H22 H 0.3581 0.5324 0.6945
C38 C 0.4640(5) 0.2998(3) 0.6179(3)
H23 H 0.5086 0.3391 0.6064
C39 C 0.4134(5) 0.2607(3) 0.5608(3)
H24 H 0.4255 0.2738 0.5115
O1_2 O 0.7500 1.0000 0.8532(2)
O5_2 O 0.2500 1.0000 0.6468(2)
O12 O 0.1402(3) 0.95100(17) 0.78542(16)
C3_2 C 0.3837(4) 0.7786(3) 0.2075(3)
H1_2 H 0.3740 0.7927 0.2567
C4_2 C 0.4481(5) 0.7196(2) 0.1915(2)
C6_2 C 0.4309(5) 0.2599(3) 0.2025(3)
H3_2 H 0.3834 0.2354 0.1704
N1_2 N 0.5000 0.6804(3) 0.2500
C7_2 C 0.5000 0.6042(3) 0.2500
C8_2 C 0.1795(4) 0.8664(3) 0.0324(3)
H4_2 H 0.1491 0.8616 0.0797
C9_2 C 0.5000 0.3732(3) 0.2500
C10_2 C 0.5000 0.1413(3) 0.2500
C11_2 C 0.5000 0.4529(3) 0.2500
C12_2 C 0.2836(4) 0.8367(2) 0.0177(2)
C13_2 C 0.3450(4) 0.7978(2) 0.0767(3)
C14_2 C 0.4321(5) 0.3341(3) 0.2023(3)
H5_2 H 0.3861 0.3585 0.1693
C15_2 C 0.4142(5) 0.5659(3) 0.2179(3)
H6_2 H 0.3547 0.5901 0.1962
C17_2 C 0.5000 0.2218(3) 0.2500
C19_2 C 0.3333(4) 0.8170(2) 0.1510(2)
H9_2 H 0.2903 0.8569 0.1630
C20_2 C 0.4162(5) 0.4921(3) 0.2176(4)
H10_2 H 0.3581 0.4676 0.1945
C21_2 C 0.4640(5) 0.7002(3) 0.1179(3)
H11_2 H 0.5086 0.6609 0.1064
C22_2 C 0.4134(5) 0.7393(3) 0.0608(3)
H12_2 H 0.4255 0.7262 0.0115
C23_2 C 0.9015(4) 0.9476(2) 0.6507(2)
O6_2 O 0.9948(3) 0.97342(16) 0.63231(16)
C24_2 C 0.8373(4) 0.9100(2) 0.5923(2)
C25_2 C 0.6163(4) 0.7786(3) 0.2925(3)
H13_2 H 0.6260 0.7927 0.2433
O10 O 0.8598(3) 0.95100(17) 0.71458(16)
C26_2 C 0.5519(5) 0.7196(2) 0.3085(2)
C27_2 C 0.8803(4) 0.9029(3) 0.5217(3)
H14_2 H 0.9495 0.9226 0.5103
C28_2 C 0.5691(5) 0.2599(3) 0.2975(3)
H15_2 H 0.6166 0.2354 0.3296
C29_2 C 0.8205(4) 0.8664(3) 0.4676(3)
H16_2 H 0.8509 0.8616 0.4203
C30_2 C 0.7164(4) 0.8367(2) 0.4823(2)
C31_2 C 0.6550(4) 0.7978(2) 0.4233(3)
C32_2 C 0.5679(5) 0.3341(3) 0.2977(3)
H17_2 H 0.6139 0.3585 0.3307
C33_2 C 0.5858(5) 0.5659(3) 0.2821(3)
H18_2 H 0.6453 0.5901 0.3038
C34_2 C 0.6734(5) 0.8450(3) 0.5537(3)
H19_2 H 0.6035 0.8264 0.5651
C35_2 C 0.7337(4) 0.8804(3) 0.6075(3)
H20_2 H 0.7042 0.8847 0.6552
C36_2 C 0.6667(4) 0.8170(2) 0.3490(2)
H21_2 H 0.7097 0.8569 0.3370
C37_2 C 0.5838(5) 0.4921(3) 0.2824(4)
H22_2 H 0.6419 0.4676 0.3055
C38_2 C 0.5360(5) 0.7002(3) 0.3821(3)
H23_2 H 0.4914 0.6609 0.3936
C39_2 C 0.5866(5) 0.7393(3) 0.4392(3)
H24_2 H 0.5745 0.7262 0.4885
C1_2 C 0.0985(4) 0.9476(2) 0.8493(2)
O2_2 O 0.0052(3) 0.97342(16) 0.86769(16)
C2_2 C 0.1627(4) 0.9100(2) 0.9077(2)
C5_2 C 0.1197(4) 0.9029(3) 0.9783(3)
H2_2 H 0.0505 0.9226 0.9897
C16_2 C 0.3266(5) 0.8450(3) 0.9463(3)
H7_2 H 0.3965 0.8264 0.9349
C18_2 C 0.2663(4) 0.8804(3) 0.8925(3)
H8_2 H 0.2958 0.8847 0.8448
N1_3 N 0.0000 0.6804(3) 0.7500
C7_3 C -0.0000 0.6042(3) 0.7500
C9_3 C 0.0000 0.3732(3) 0.7500
C10_3 C 0.0000 0.1413(3) 0.7500
C11_3 C -0.0000 0.4529(3) 0.7500
C17_3 C 0.0000 0.2218(3) 0.7500
H11_3 H 0.0086 0.6609 0.8936
Zn7_2 Zn 0.11039(4) 0.00897(2) 0.69758(2)
O5_3 O 0.7500 1.0000 0.3532(2)
C23_3 C 0.4015(4) 0.9476(2) 0.3493(2)
O6_3 O 0.4948(3) 0.97342(16) 0.36769(16)
C24_3 C 0.3373(4) 0.9100(2) 0.4077(2)
O7_2 O 0.0777(3) 0.11050(15) 0.71632(17)
C25_3 C 0.1163(4) 0.7786(3) 0.7075(3)
H13_3 H 0.1260 0.7927 0.7567
O10_2 O 0.3598(3) 0.95100(17) 0.28542(16)
O12_2 O 0.6402(3) 0.95100(17) 0.21458(16)
C26_3 C 0.0519(5) 0.7196(2) 0.6915(2)
C27_3 C 0.3803(4) 0.9029(3) 0.4783(3)
H14_3 H 0.4495 0.9226 0.4897
C28_3 C 0.0691(5) 0.2599(3) 0.7025(3)
H15_3 H 0.1166 0.2354 0.6704
C29_3 C 0.3205(4) 0.8664(3) 0.5324(3)
H16_3 H 0.3509 0.8616 0.5797
C30_3 C 0.2164(4) 0.8367(2) 0.5177(2)
C31_3 C 0.1550(4) 0.7978(2) 0.5767(3)
C32_3 C 0.0679(5) 0.3341(3) 0.7023(3)
H17_3 H 0.1139 0.3585 0.6693
C33_3 C 0.0858(5) 0.5659(3) 0.7179(3)
H18_3 H 0.1453 0.5901 0.6962
C34_3 C 0.1734(5) 0.8450(3) 0.4463(3)
H19_3 H 0.1035 0.8264 0.4349
C35_3 C 0.2337(4) 0.8804(3) 0.3925(3)
H20_3 H 0.2042 0.8847 0.3448
C36_3 C 0.1667(4) 0.8170(2) 0.6510(2)
H21_3 H 0.2097 0.8569 0.6630
C37_3 C 0.0838(5) 0.4921(3) 0.7176(4)
H22_3 H 0.1419 0.4676 0.6945
C38_3 C 0.0360(5) 0.7002(3) 0.6179(3)
C39_3 C 0.0866(5) 0.7393(3) 0.5608(3)
H24_3 H 0.0745 0.7262 0.5115
O1_3 O 0.2500 1.0000 0.1468(2)
C1_3 C 0.5985(4) 0.9476(2) 0.1507(2)
O2_3 O 0.5052(3) 0.97342(16) 0.13231(16)
C2_3 C 0.6627(4) 0.9100(2) 0.0923(2)
C5_3 C 0.6197(4) 0.9029(3) 0.0217(3)
H2_3 H 0.5505 0.9226 0.0103
C16_3 C 0.8266(5) 0.8450(3) 0.0537(3)
H7_3 H 0.8965 0.8264 0.0651
C18_3 C 0.7663(4) 0.8804(3) 0.1075(3)
H8_3 H 0.7958 0.8847 0.1552
Zn3 Zn 0.11039(4) 0.99103(2) 0.19758(2)
O3_2 O 0.9223(3) 0.11050(15) 0.78368(17)
C3_3 C 0.8837(4) 0.7786(3) 0.7925(3)
H1_3 H 0.8740 0.7927 0.7433
C4_3 C 0.9481(5) 0.7196(2) 0.8085(2)
C6_3 C 0.9309(5) 0.2599(3) 0.7975(3)
H3_3 H 0.8834 0.2354 0.8296
N1_4 N 1.0000 0.6804(3) 0.7500
C7_4 C 1.0000 0.6042(3) 0.7500
C8_3 C 0.6795(4) 0.8664(3) 0.9676(3)
H4_3 H 0.6491 0.8616 0.9203
C9_4 C 1.0000 0.3732(3) 0.7500
C10_4 C 1.0000 0.1413(3) 0.7500
C11_4 C 1.0000 0.4529(3) 0.7500
C12_3 C 0.7836(4) 0.8367(2) 0.9823(2)
C13_3 C 0.8450(4) 0.7978(2) 0.9233(3)
C14_3 C 0.9321(5) 0.3341(3) 0.7977(3)
H5_3 H 0.8861 0.3585 0.8307
C15_3 C 0.9142(5) 0.5659(3) 0.7821(3)
H6_3 H 0.8547 0.5901 0.8038
C17_4 C 1.0000 0.2218(3) 0.7500
C19_3 C 0.8333(4) 0.8170(2) 0.8490(2)
H9_3 H 0.7903 0.8569 0.8370
C20_3 C 0.9162(5) 0.4921(3) 0.7824(4)
H10_3 H 0.8581 0.4676 0.8055
C21_3 C 0.9640(5) 0.7002(3) 0.8821(3)
C22_3 C 0.9134(5) 0.7393(3) 0.9392(3)
H12_3 H 0.9255 0.7262 0.9885
Zn4_2 Zn 0.88961(4) 0.00897(2) 0.80242(2)
H23_3 H 0.9914 0.6609 0.6064
O8_2 O 0.0777(3) 0.88950(15) 0.21632(17)
Zn5 Zn 0.88961(4) 0.99103(2) 0.30242(2)
O9_2 O 0.9223(3) 0.88950(15) 0.28368(17)
C3_4 C 0.1163(4) 0.2214(3) 0.2075(3)
H1_4 H 0.1260 0.2073 0.2567
C4_4 C 0.0519(5) 0.2804(2) 0.1915(2)
C6_4 C 0.0691(5) 0.7401(3) 0.2025(3)
H3_4 H 0.1166 0.7646 0.1704
N1_5 N 0.0000 0.3196(3) 0.2500
C7_5 C 0.0000 0.3958(3) 0.2500
C8_4 C 0.3205(4) 0.1336(3) 0.0324(3)
H4_4 H 0.3509 0.1384 0.0797
C9_5 C 0.0000 0.6268(3) 0.2500
C10_5 C 0.0000 0.8587(3) 0.2500
C11_5 C 0.0000 0.5471(3) 0.2500
C12_4 C 0.2164(4) 0.1633(2) 0.0177(2)
C13_4 C 0.1550(4) 0.2022(2) 0.0767(3)
C14_4 C 0.0679(5) 0.6659(3) 0.2023(3)
H5_4 H 0.1139 0.6415 0.1693
C15_4 C 0.0858(5) 0.4341(3) 0.2179(3)
H6_4 H 0.1453 0.4099 0.1962
C17_5 C 0.0000 0.7782(3) 0.2500
C19_4 C 0.1667(4) 0.1830(2) 0.1510(2)
H9_4 H 0.2097 0.1431 0.1630
C20_4 C 0.0838(5) 0.5079(3) 0.2176(4)
H10_4 H 0.1419 0.5324 0.1945
C21_4 C 0.0360(5) 0.2998(3) 0.1179(3)
C22_4 C 0.0866(5) 0.2607(3) 0.0608(3)
H12_4 H 0.0745 0.2738 0.0115
H23_4 H 0.0086 0.3391 0.3936
O1_4 O 0.7500 0.0000 0.8532(2)
C1_4 C 0.4015(4) 0.0524(2) 0.8493(2)
O2_4 O 0.4948(3) 0.02658(16) 0.86769(16)
C2_4 C 0.3373(4) 0.0900(2) 0.9077(2)
O4_2 O 0.3598(3) 0.04900(17) 0.78542(16)
C5_4 C 0.3803(4) 0.0971(3) 0.9783(3)
H2_4 H 0.4495 0.0774 0.9897
C16_4 C 0.1734(5) 0.1550(3) 0.9463(3)
H7_4 H 0.1035 0.1736 0.9349
C18_4 C 0.2337(4) 0.1196(3) 0.8925(3)
H8_4 H 0.2042 0.1153 0.8448
O11_2 O 0.6402(3) 0.04900(17) 0.71458(16)
N1_6 N 1.0000 0.3196(3) 0.2500
C7_6 C 1.0000 0.3958(3) 0.2500
C9_6 C 1.0000 0.6268(3) 0.2500
C10_6 C 1.0000 0.8587(3) 0.2500
C11_6 C 1.0000 0.5471(3) 0.2500
C17_6 C 1.0000 0.7782(3) 0.2500
H11_4 H 0.9914 0.3391 0.1064
O5_4 O 0.2500 0.0000 0.6468(2)
C23_4 C 0.5985(4) 0.0524(2) 0.6507(2)
O6_4 O 0.5052(3) 0.02658(16) 0.63231(16)
C24_4 C 0.6627(4) 0.0900(2) 0.5923(2)
C25_4 C 0.8837(4) 0.2214(3) 0.2925(3)
H13_4 H 0.8740 0.2073 0.2433
C26_4 C 0.9481(5) 0.2804(2) 0.3085(2)
C27_4 C 0.6197(4) 0.0971(3) 0.5217(3)
H14_4 H 0.5505 0.0774 0.5103
C28_4 C 0.9309(5) 0.7401(3) 0.2975(3)
H15_4 H 0.8834 0.7646 0.3296
C29_4 C 0.6795(4) 0.1336(3) 0.4676(3)
H16_4 H 0.6491 0.1384 0.4203
C30_4 C 0.7836(4) 0.1633(2) 0.4823(2)
C31_4 C 0.8450(4) 0.2022(2) 0.4233(3)
C32_4 C 0.9321(5) 0.6659(3) 0.2977(3)
H17_4 H 0.8861 0.6415 0.3307
C33_4 C 0.9142(5) 0.4341(3) 0.2821(3)
H18_4 H 0.8547 0.4099 0.3038
C34_4 C 0.8266(5) 0.1550(3) 0.5537(3)
H19_4 H 0.8965 0.1736 0.5651
C35_4 C 0.7663(4) 0.1196(3) 0.6075(3)
H20_4 H 0.7958 0.1153 0.6552
C36_4 C 0.8333(4) 0.1830(2) 0.3490(2)
H21_4 H 0.7903 0.1431 0.3370
C37_4 C 0.9162(5) 0.5079(3) 0.2824(4)
H22_4 H 0.8581 0.5324 0.3055
C38_4 C 0.9640(5) 0.2998(3) 0.3821(3)
C39_4 C 0.9134(5) 0.2607(3) 0.4392(3)
H24_4 H 0.9255 0.2738 0.4885
loop_
_geom_bond_atom_site_label_1
_geom_bond_atom_site_label_2
_geom_bond_site_symmetry_1
_geom_bond_site_symmetry_2
Zn2 O5 1_555 1_555
O9 Zn2 1_555 1_555
Zn6 O1 1_555 1_555
O8 Zn6 1_555 1_555
C1 O2 1_555 1_555
C2 C1 1_555 1_555
O4 C1 1_555 1_555
C5 C2 1_555 1_555
H2 C5 1_555 1_555
H7 C16 1_555 1_555
C18 C2 1_555 1_555
H8 C18 1_555 1_555
C16 C18 1_555 1_555
O3 C10 1_555 1_555
C3 H1 1_555 1_555
C4 C3 1_555 1_555
C6 H3 1_555 1_555
N1 C4 1_555 1_555
C7 N1 1_555 1_555
H4 C8 1_555 1_555
C9 C11 1_555 1_555
C10 C17 1_555 1_555
C11 C20 1_555 1_555
C12 C8 1_555 1_555
C13 C12 1_555 1_555
C14 C6 1_555 1_555
H5 C14 1_555 1_555
C15 C7 1_555 1_555
H6 C15 1_555 1_555
C17 C6 1_555 1_555
C19 C3 1_555 1_555
H9 C19 1_555 1_555
C20 C15 1_555 1_555
H10 C20 1_555 1_555
C21 C4 1_555 1_555
H11 C21 1_555 1_555
C22 C13 1_555 1_555
H12 C22 1_555 1_555
Zn4 O3 1_555 1_555
Zn7 O7 1_555 1_555
C23 O6 1_555 1_555
C24 C23 1_555 1_555
O7 C10 1_555 1_555
C25 H13 1_555 1_555
O11 C23 1_555 1_555
C26 N1 1_555 1_555
C27 C24 1_555 1_555
H14 C27 1_555 1_555
C28 C17 1_555 1_555
H15 C28 1_555 1_555
C29 C27 1_555 1_555
H16 C29 1_555 1_555
C30 C29 1_555 1_555
C31 C30 1_555 1_555
C32 C9 1_555 1_555
H17 C32 1_555 1_555
C33 C7 1_555 1_555
H18 C33 1_555 1_555
C34 C30 1_555 1_555
H19 C34 1_555 1_555
C35 C24 1_555 1_555
H20 C35 1_555 1_555
C36 C25 1_555 1_555
H21 C36 1_555 1_555
C37 C11 1_555 1_555
H22 C37 1_555 1_555
C38 C26 1_555 1_555
H23 C38 1_555 1_555
C39 C31 1_555 1_555
H24 C39 1_555 1_555
C9 C14 1_555 1_555
C13 C19 1_555 1_555
C21 C22 1_555 1_555
C25 C26 1_555 1_555
C28 C32 1_555 1_555
C31 C36 1_555 1_555
C33 C37 1_555 1_555
C34 C35 1_555 1_555
C38 C39 1_555 1_555
Zn4 O1_2 1_555 1_555
Zn7 O5_2 1_555 1_555
O8 C10_2 1_555 1_555
C3_2 H1_2 1_555 1_555
C4_2 C3_2 1_555 1_555
C6_2 H3_2 1_555 1_555
N1_2 C4_2 1_555 1_555
C7_2 N1_2 1_555 1_555
H4_2 C8_2 1_555 1_555
C9_2 C11_2 1_555 1_555
C10_2 C17_2 1_555 1_555
C11_2 C20_2 1_555 1_555
C12_2 C8_2 1_555 1_555
C13_2 C12_2 1_555 1_555
C14_2 C6_2 1_555 1_555
H5_2 C14_2 1_555 1_555
C15_2 C7_2 1_555 1_555
H6_2 C15_2 1_555 1_555
C17_2 C6_2 1_555 1_555
C19_2 C3_2 1_555 1_555
H9_2 C19_2 1_555 1_555
C20_2 C15_2 1_555 1_555
H10_2 C20_2 1_555 1_555
C21_2 C4_2 1_555 1_555
H11_2 C21_2 1_555 1_555
C22_2 C13_2 1_555 1_555
H12_2 C22_2 1_555 1_555
C23_2 O6_2 1_555 1_555
C24_2 C23_2 1_555 1_555
O9 C10_2 1_555 1_555
C25_2 H13_2 1_555 1_555
O10 C23_2 1_555 1_555
C26_2 N1_2 1_555 1_555
C27_2 C24_2 1_555 1_555
H14_2 C27_2 1_555 1_555
C28_2 C17_2 1_555 1_555
H15_2 C28_2 1_555 1_555
C29_2 C27_2 1_555 1_555
H16_2 C29_2 1_555 1_555
C30_2 C29_2 1_555 1_555
C31_2 C30_2 1_555 1_555
C32_2 C9_2 1_555 1_555
H17_2 C32_2 1_555 1_555
C33_2 C7_2 1_555 1_555
H18_2 C33_2 1_555 1_555
C34_2 C30_2 1_555 1_555
H19_2 C34_2 1_555 1_555
C35_2 C24_2 1_555 1_555
H20_2 C35_2 1_555 1_555
C36_2 C25_2 1_555 1_555
H21_2 C36_2 1_555 1_555
C37_2 C11_2 1_555 1_555
H22_2 C37_2 1_555 1_555
C38_2 C26_2 1_555 1_555
H23_2 C38_2 1_555 1_555
C39_2 C31_2 1_555 1_555
H24_2 C39_2 1_555 1_555
C9_2 C14_2 1_555 1_555
C13_2 C19_2 1_555 1_555
C21_2 C22_2 1_555 1_555
C25_2 C26_2 1_555 1_555
C28_2 C32_2 1_555 1_555
C31_2 C36_2 1_555 1_555
C33_2 C37_2 1_555 1_555
C34_2 C35_2 1_555 1_555
C38_2 C39_2 1_555 1_555
C1_2 O2_2 1_555 1_555
C2_2 C1_2 1_555 1_555
O12 C1_2 1_555 1_555
C5_2 C2_2 1_555 1_555
H2_2 C5_2 1_555 1_555
H7_2 C16_2 1_555 1_555
C18_2 C2_2 1_555 1_555
H8_2 C18_2 1_555 1_555
C16_2 C18_2 1_555 1_555
C7_3 N1_3 1_555 1_555
C9_3 C11_3 1_555 1_555
C10_3 C17_3 1_555 1_555
Zn7_2 O7_2 1_555 1_555
C23_3 O6_3 1_555 1_555
C24_3 C23_3 1_555 1_555
O7_2 C10_3 1_555 1_555
C25_3 H13_3 1_555 1_555
O10_2 C23_3 1_555 1_555
C26_3 N1_3 1_555 1_555
C27_3 C24_3 1_555 1_555
H14_3 C27_3 1_555 1_555
C28_3 C17_3 1_555 1_555
H15_3 C28_3 1_555 1_555
C29_3 C27_3 1_555 1_555
H16_3 C29_3 1_555 1_555
C30_3 C29_3 1_555 1_555
C31_3 C30_3 1_555 1_555
C32_3 C9_3 1_555 1_555
H17_3 C32_3 1_555 1_555
C33_3 C7_3 1_555 1_555
H18_3 C33_3 1_555 1_555
C34_3 C30_3 1_555 1_555
H19_3 C34_3 1_555 1_555
C35_3 C24_3 1_555 1_555
H20_3 C35_3 1_555 1_555
C36_3 C25_3 1_555 1_555
H21_3 C36_3 1_555 1_555
C37_3 C11_3 1_555 1_555
H22_3 C37_3 1_555 1_555
C38_3 C26_3 1_555 1_555
C39_3 C31_3 1_555 1_555
H24_3 C39_3 1_555 1_555
C25_3 C26_3 1_555 1_555
C28_3 C32_3 1_555 1_555
C31_3 C36_3 1_555 1_555
C33_3 C37_3 1_555 1_555
C34_3 C35_3 1_555 1_555
C38_3 C39_3 1_555 1_555
O1_3 Zn3 1_555 1_555
C1_3 O2_3 1_555 1_555
C2_3 C1_3 1_555 1_555
O12_2 C1_3 1_555 1_555
C5_3 C2_3 1_555 1_555
H2_3 C5_3 1_555 1_555
H7_3 C16_3 1_555 1_555
C18_3 C2_3 1_555 1_555
H8_3 C18_3 1_555 1_555
C16_3 C18_3 1_555 1_555
O3_2 C10_4 1_555 1_555
C3_3 H1_3 1_555 1_555
C4_3 C3_3 1_555 1_555
C6_3 H3_3 1_555 1_555
N1_4 C4_3 1_555 1_555
C7_4 N1_4 1_555 1_555
H4_3 C8_3 1_555 1_555
C9_4 C11_4 1_555 1_555
C10_4 C17_4 1_555 1_555
C11_4 C20_3 1_555 1_555
C12_3 C8_3 1_555 1_555
C13_3 C12_3 1_555 1_555
C14_3 C6_3 1_555 1_555
H5_3 C14_3 1_555 1_555
C15_3 C7_4 1_555 1_555
H6_3 C15_3 1_555 1_555
C17_4 C6_3 1_555 1_555
C19_3 C3_3 1_555 1_555
H9_3 C19_3 1_555 1_555
C20_3 C15_3 1_555 1_555
H10_3 C20_3 1_555 1_555
C21_3 C4_3 1_555 1_555
C22_3 C13_3 1_555 1_555
H12_3 C22_3 1_555 1_555
Zn4_2 O3_2 1_555 1_555
C9_4 C14_3 1_555 1_555
C13_3 C19_3 1_555 1_555
C21_3 C22_3 1_555 1_555
O8_2 Zn3 1_555 1_555
Zn5 O5_3 1_555 1_555
O9_2 Zn5 1_555 1_555
O8_2 C10_5 1_555 1_555
C3_4 H1_4 1_555 1_555
C4_4 C3_4 1_555 1_555
C6_4 H3_4 1_555 1_555
N1_5 C4_4 1_555 1_555
C7_5 N1_5 1_555 1_555
H4_4 C8_4 1_555 1_555
C9_5 C11_5 1_555 1_555
C10_5 C17_5 1_555 1_555
C11_5 C20_4 1_555 1_555
C12_4 C8_4 1_555 1_555
C13_4 C12_4 1_555 1_555
C14_4 C6_4 1_555 1_555
H5_4 C14_4 1_555 1_555
C15_4 C7_5 1_555 1_555
H6_4 C15_4 1_555 1_555
C17_5 C6_4 1_555 1_555
C19_4 C3_4 1_555 1_555
H9_4 C19_4 1_555 1_555
C20_4 C15_4 1_555 1_555
H10_4 C20_4 1_555 1_555
C21_4 C4_4 1_555 1_555
C22_4 C13_4 1_555 1_555
H12_4 C22_4 1_555 1_555
C9_5 C14_4 1_555 1_555
C13_4 C19_4 1_555 1_555
C21_4 C22_4 1_555 1_555
O1_4 Zn4_2 1_555 1_555
C1_4 O2_4 1_555 1_555
C2_4 C1_4 1_555 1_555
O4_2 C1_4 1_555 1_555
C5_4 C2_4 1_555 1_555
H2_4 C5_4 1_555 1_555
H7_4 C16_4 1_555 1_555
C18_4 C2_4 1_555 1_555
H8_4 C18_4 1_555 1_555
C16_4 C18_4 1_555 1_555
C7_6 N1_6 1_555 1_555
C9_6 C11_6 1_555 1_555
C10_6 C17_6 1_555 1_555
C23_4 O6_4 1_555 1_555
C24_4 C23_4 1_555 1_555
O9_2 C10_6 1_555 1_555
C25_4 H13_4 1_555 1_555
O11_2 C23_4 1_555 1_555
C26_4 N1_6 1_555 1_555
C27_4 C24_4 1_555 1_555
H14_4 C27_4 1_555 1_555
C28_4 C17_6 1_555 1_555
H15_4 C28_4 1_555 1_555
C29_4 C27_4 1_555 1_555
H16_4 C29_4 1_555 1_555
C30_4 C29_4 1_555 1_555
C31_4 C30_4 1_555 1_555
C32_4 C9_6 1_555 1_555
H17_4 C32_4 1_555 1_555
C33_4 C7_6 1_555 1_555
H18_4 C33_4 1_555 1_555
C34_4 C30_4 1_555 1_555
H19_4 C34_4 1_555 1_555
C35_4 C24_4 1_555 1_555
H20_4 C35_4 1_555 1_555
C36_4 C25_4 1_555 1_555
H21_4 C36_4 1_555 1_555
C37_4 C11_6 1_555 1_555
H22_4 C37_4 1_555 1_555
C38_4 C26_4 1_555 1_555
C39_4 C31_4 1_555 1_555
H24_4 C39_4 1_555 1_555
C25_4 C26_4 1_555 1_555
C28_4 C32_4 1_555 1_555
C31_4 C36_4 1_555 1_555
C33_4 C37_4 1_555 1_555
C34_4 C35_4 1_555 1_555
C38_4 C39_4 1_555 1_555
Zn7_2 O5_4 1_555 1_555

#END
