####################################################################### 
# 
# This file contains crystal structure data downloaded from the 
# Cambridge Structural Database (CSD) hosted by the Cambridge 
# Crystallographic Data Centre (CCDC).
# 
# Full information about CCDC data access policies and citation 
# guidelines are available at http://www.ccdc.cam.ac.uk/access/V1 
# 
# Audit and citation data items may have been added by the CCDC. 
# Please retain this information to preserve the provenance of 
# this file and to allow appropriate attribution of the data. 
# 
#######################################################################

data_3033
_audit_block_doi                 10.5517/ccvtp1c
_database_code_depnum_ccdc_archive 'CCDC 799243'
loop_
_citation_id
_citation_doi
_citation_year
1 10.1039/C2DT12005D 2012
_audit_update_record             
;
2010-11-03 deposited with the CCDC.	2024-07-09 downloaded from the CCDC.
;
_chemical_name_mineral           ??
_cell_length_a                   21.10506(54)
_cell_length_b                   21.10506(54)
_cell_length_c                   34.8884(11)
_cell_angle_alpha                90
_cell_angle_beta                 90
_cell_angle_gamma                120
_cell_volume                     13458.14(81)
_symmetry_space_group_name_H-M   R-3m
loop_
_symmetry_equiv_pos_as_xyz
'-x, -x+y, -z'
'-x, -y, -z'
'-x+1/3, -x+y-1/3, -z-1/3'
'-x+1/3, -y-1/3, -z-1/3'
'-x-1/3, -x+y+1/3, -z+1/3'
'-x-1/3, -y+1/3, -z+1/3'
'-x+y, -x, z'
'-x+y, y, z'
'-x+y+1/3, -x-1/3, z-1/3'
'-x+y+1/3, y-1/3, z-1/3'
'-x+y-1/3, -x+1/3, z+1/3'
'-x+y-1/3, y+1/3, z+1/3'
'-y, -x, z'
'-y, x-y, z'
'-y+1/3, -x-1/3, z-1/3'
'-y+1/3, x-y-1/3, z-1/3'
'-y-1/3, -x+1/3, z+1/3'
'-y-1/3, x-y+1/3, z+1/3'
'y, -x+y, -z'
'y, x, -z'
'y+1/3, -x+y-1/3, -z-1/3'
'y+1/3, x-1/3, -z-1/3'
'y-1/3, -x+y+1/3, -z+1/3'
'y-1/3, x+1/3, -z+1/3'
'x-y, -y, -z'
'x-y, x, -z'
'x-y+1/3, -y-1/3, -z-1/3'
'x-y+1/3, x-1/3, -z-1/3'
'x-y-1/3, -y+1/3, -z+1/3'
'x-y-1/3, x+1/3, -z+1/3'
'x, y, z'
'x, x-y, z'
'x+1/3, y-1/3, z-1/3'
'x+1/3, x-y-1/3, z-1/3'
'x-1/3, y+1/3, z+1/3'
'x-1/3, x-y+1/3, z+1/3'
loop_
_atom_site_label
_atom_site_type_symbol
_atom_site_symmetry_multiplicity
_atom_site_fract_x
_atom_site_fract_y
_atom_site_fract_z
_atom_site_occupancy
_atom_site_B_iso_or_equiv
Al1 Al 0 0.28272(53) 0.07419(50) 0.51538(28) 1 2.98(30)
O1 O 0 0.31486(79) 0.10464(67) 0.56846(31) 1 1.69(25)
C1 C 0 0.3158(16) 0.15792(79) 0.58317(33) 1 2.96(45)
C2 C 0 0.32542(78) 0.16271(39) 0.62703(30) 1 2.96(45)
C3 C 0 0.32761(57) 0.10613(37) 0.64679(19) 1 2.96(45)
O2 O 0 0.36792(83) 0.05859(64) 0.51170(42) 1 1.69(25)
C4 C 0 0.36092(56) 0 0.5 1 2.96(45)
C5 C 0 0.43397(53) 0 0.5 1 2.96(45)
C6 C 0 0.43749(37) -0.05909(33) 0.48589(34) 1 2.96(45)
O3 O 0 0.3437(13) 0.17184(63) 0.49654(54) 1 1.69(25)
C7 C 0 0.4211(20) 0.2106(10) 0.48467(96) 0.967(18) 7.29(83)
O4 O 0 0.24815(83) 0.0210(10) 0.46882(41) 1 1.69(25)
C8 C 0 0.2702(14) 0.0601(13) 0.43210(70) 0.967(18) 7.29(83)
O5 O 0 0.2149(12) 0.10746(61) 0.52161(62) 1 1.69(25)
C9 C 0 0.1400(16) 0.07000(79) 0.54032(92) 0.967(18) 7.29(83)
