
###############################################################################
#
# This file contains modified crystal structure data generated from the
# MOF subset of the Cambridge Structural Database (CSD) v543 
# hosted by the Cambridge Crystallographic Data Centre (CCDC).
#
# This work is licensed under the Creative Commons
# Attribution-NonCommercial-ShareAlike 4.0 International License.
# To view a copy of this license, visit
# http://creativecommons.org/licenses/by-nc-sa/4.0/
# or send a letter to
# Creative Commons, PO Box 1866, Mountain View, CA 94042, USA.
#
# CIF created using the CSD Python API on 29 September 2022
# The structure has been converted into the P1 space group
# The structure has a 3D framework
# The original CSD entry CAXTAY is in the rhombohedral crystal system
# The framework has been calculated to contain at least 10.0% void space
# The void calculation uses a probe of radius 1.32A, grid spacing 0.4
# H atom positions have been added when not included in the experimental data
#
###############################################################################

data_CAXTAY
_chemical_formula_moiety         '(C224 H504 Al36 O136)n'
_symmetry_cell_setting           triclinic
_symmetry_space_group_name_H-M   'P 1'
_symmetry_Int_Tables_number      1
_space_group_name_Hall           'P 1'
loop_
_symmetry_equiv_pos_site_id
_symmetry_equiv_pos_as_xyz
1 x,y,z
_cell_length_a                   21.10506(54)
_cell_length_b                   21.10506(54)
_cell_length_c                   34.8884(11)
_cell_angle_alpha                90
_cell_angle_beta                 90
_cell_angle_gamma                120
_cell_volume                     13458.1
loop_
_atom_site_label
_atom_site_type_symbol
_atom_site_fract_x
_atom_site_fract_y
_atom_site_fract_z
_atom_site_U_iso_or_equiv
_atom_site_thermal_displace_type
Al1 Al 0.28272(53) 0.07419(50) 0.51538(28) 0.0377 Uiso
O1 O 0.31486(79) 0.10464(67) 0.56846(31) 0.0214 Uiso
C1 C 0.3158(16) 0.15792(79) 0.58317(33) 0.0375 Uiso
C2 C 0.32542(78) 0.16271(39) 0.62703(30) 0.0375 Uiso
C3 C 0.32761(57) 0.10613(37) 0.64679(19) 0.0375 Uiso
O2 O 0.36792(83) 0.05859(64) 0.51170(42) 0.0214 Uiso
C4 C 0.36092(56) 0.00000 0.50000 0.0375 Uiso
C5 C 0.43397(53) 0.00000 0.50000 0.0375 Uiso
O3 O 0.3437(13) 0.17184(63) 0.49654(54) 0.0214 Uiso
C7 C 0.4211(20) 0.2106(10) 0.48467(96) 0.0923 Uiso
O4 O 0.24815(83) 0.0210(10) 0.46882(41) 0.0214 Uiso
C8 C 0.2702(14) 0.0601(13) 0.43210(70) 0.0923 Uiso
O5 O 0.2149(12) 0.10746(61) 0.52161(62) 0.0214 Uiso
C9 C 0.1400(16) 0.07000(79) 0.54032(92) 0.0923 Uiso
Al2 Al 0.28272(53) 0.20853(73) 0.51538(28) 0.0377 Uiso
Al3 Al 0.38395(53) 0.12480(73) 0.81795(28) 0.0377 Uiso
Al4 Al 0.38395(53) 0.25914(50) 0.81795(28) 0.0377 Uiso
Al6 Al 0.79147(73) 0.07419(50) 0.51538(28) 0.0377 Uiso
Al8 Al 0.20853(73) 0.28272(53) 0.48462(28) 0.0377 Uiso
O6 O 0.31486(79) 0.2102(10) 0.56846(31) 0.0214 Uiso
O7 O 0.35181(79) 0.1231(10) 0.76487(31) 0.0214 Uiso
O8 O 0.35181(79) 0.22869(67) 0.76487(31) 0.0214 Uiso
C10 C 0.3509(16) 0.1755(18) 0.75016(33) 0.0375 Uiso
C11 C 0.34125(78) 0.17062(87) 0.70630(30) 0.0375 Uiso
C12 C 0.33906(57) 0.11185(68) 0.68654(19) 0.0375 Uiso
C13 C 0.33906(57) 0.22720(37) 0.68654(19) 0.0375 Uiso
C14 C 0.32761(57) 0.22148(68) 0.64679(19) 0.0375 Uiso
O10 O 0.6907(11) 0.05859(64) 0.51170(42) 0.0214 Uiso
O12 O 0.36792(83) 0.3093(11) 0.51170(42) 0.0214 Uiso
O13 O 0.29875(83) 0.0240(11) 0.82163(42) 0.0214 Uiso
O14 O 0.29875(83) 0.27474(64) 0.82163(42) 0.0214 Uiso
C15 C 0.63908(56) 0.00000 0.50000 0.0375 Uiso
C16 C 0.56603(53) 0.00000 0.50000 0.0375 Uiso
C18 C 0.56251(37) 0.05909(33) 0.51411(34) 0.0375 Uiso
C19 C 0.49658(50) 0.05909(33) 0.51411(34) 0.0375 Uiso
O15 O 0.3230(13) 0.1615(14) 0.83679(54) 0.0214 Uiso
C20 C 0.2456(20) 0.1228(22) 0.84866(96) 0.0923 Uiso
O17 O 0.24815(83) 0.2272(13) 0.46882(41) 0.0214 Uiso
O18 O 0.2272(13) 0.24815(83) 0.53118(41) 0.0214 Uiso
O19 O 0.41852(83) 0.1062(13) 0.86451(41) 0.0214 Uiso
O20 O 0.4395(13) 0.08518(83) 0.80215(41) 0.0214 Uiso
O21 O 0.41852(83) 0.3123(10) 0.86451(41) 0.0214 Uiso
O22 O 0.4395(13) 0.3543(10) 0.80215(41) 0.0214 Uiso
C22 C 0.2702(14) 0.2101(19) 0.43210(70) 0.0923 Uiso
C23 C 0.2101(19) 0.2702(14) 0.56790(70) 0.0923 Uiso
O23 O 0.4518(12) 0.2259(14) 0.81172(62) 0.0214 Uiso
C24 C 0.5267(16) 0.2633(18) 0.79301(92) 0.0923 Uiso
H2 H 0.329534 0.088011 0.429466 . .
H3 H 0.245422 0.0212007 0.408677 . .
H4 H 0.252002 0.100096 0.430915 . .
H5 H 0.428583 0.181401 0.460966 . .
H6 H 0.436661 0.265864 0.475572 . .
H7 H 0.455237 0.21317 0.508702 . .
H8 H 0.145242 0.0587052 0.570251 . .
H9 H 0.116471 0.10556 0.538652 . .
H10 H 0.104506 0.0188369 0.525491 . .
H11 H 0.320488 0.0580719 0.631434 . .
H15 H 0.252002 0.151907 0.430915 . .
H16 H 0.245422 0.224221 0.408677 . .
H17 H 0.329534 0.241523 0.429466 . .
H18 H 0.611662 0.106149 0.525347 . .
H19 H 0.320488 0.262416 0.631434 . .
H21 H 0.346179 0.070917 0.7019 . .
H22 H 0.494487 0.106149 0.525347 . .
H23 H 0.238084 0.0861514 0.872367 . .
H24 H 0.230005 0.162536 0.857761 . .
H25 H 0.211429 0.0912662 0.824631 . .
H26 H 0.346179 0.275261 0.7019 . .
H27 H 0.260442 0.312345 0.581065 . .
H28 H 0.173357 0.291636 0.56301 . .
H29 H 0.183852 0.222978 0.586867 . .
H30 H 0.521424 0.246796 0.763082 . .
H31 H 0.550196 0.322423 0.794681 . .
H32 H 0.562161 0.247664 0.807843 . .
C4_2 C 0.36092(56) 1.00000 0.50000 0.0375 Uiso
C5_2 C 0.43397(53) 1.00000 0.50000 0.0375 Uiso
C6 C 0.43749(37) 0.94091(33) 0.48589(34) 0.0375 Uiso
Al5 Al 0.20853(73) 0.92581(50) 0.48462(28) 0.0377 Uiso
Al7 Al 0.71728(53) 0.92581(50) 0.48462(28) 0.0377 Uiso
O9 O 0.3093(11) 0.94141(64) 0.48830(42) 0.0214 Uiso
O11 O 0.63208(83) 0.94141(64) 0.48830(42) 0.0214 Uiso
C15_2 C 0.63908(56) 1.00000 0.50000 0.0375 Uiso
C16_2 C 0.56603(53) 1.00000 0.50000 0.0375 Uiso
C17 C 0.50342(50) 0.94091(33) 0.48589(34) 0.0375 Uiso
O16 O 0.2271(13) 0.9790(10) 0.53118(41) 0.0214 Uiso
C21 C 0.2101(19) 0.9399(13) 0.56790(70) 0.0923 Uiso
H1 H 0.388338 0.893851 0.474653 . .
H12 H 0.183852 0.960874 0.586867 . .
H13 H 0.173357 0.881722 0.56301 . .
H14 H 0.260442 0.948097 0.581065 . .
H20 H 0.505513 0.893851 0.474653 . .
C4_3 C 0.00000 0.36092(56) 0.50000 0.0375 Uiso
C5_3 C 0.00000 0.43397(53) 0.50000 0.0375 Uiso
C6_2 C 0.05909(33) 0.49658(50) 0.48589(34) 0.0375 Uiso
Al5_2 Al 0.07419(50) 0.28272(88) 0.48462(28) 0.0377 Uiso
Al7_2 Al 0.07419(50) 0.79147(73) 0.48462(28) 0.0377 Uiso
O9_2 O 0.05859(64) 0.3679(13) 0.48830(42) 0.0214 Uiso
O11_2 O 0.05859(64) 0.6907(11) 0.48830(42) 0.0214 Uiso
C15_3 C 0.00000 0.63908(56) 0.50000 0.0375 Uiso
C16_3 C 0.00000 0.56603(53) 0.50000 0.0375 Uiso
C17_2 C 0.05909(33) 0.56251(60) 0.48589(34) 0.0375 Uiso
O16_2 O 0.0210(10) 0.2481(16) 0.53118(41) 0.0214 Uiso
C21_2 C 0.0601(13) 0.2702(23) 0.56790(70) 0.0923 Uiso
H1_2 H 0.106149 0.494487 0.474653 . .
H12_2 H 0.0391255 0.222978 0.586867 . .
H13_2 H 0.118278 0.291636 0.56301 . .
H14_2 H 0.0519035 0.312345 0.581065 . .
H20_2 H 0.106149 0.611662 0.474653 . .
Al1_2 Al 0.92581(50) 0.20853(73) 0.51538(28) 0.0377 Uiso
O1_2 O 0.89536(67) 0.2102(10) 0.56846(31) 0.0214 Uiso
C1_2 C 0.84208(79) 0.1579(18) 0.58317(33) 0.0375 Uiso
C2_2 C 0.83729(39) 0.16271(87) 0.62703(30) 0.0375 Uiso
C3_2 C 0.89387(37) 0.22148(68) 0.64679(19) 0.0375 Uiso
O2_2 O 0.94141(64) 0.3093(11) 0.51170(42) 0.0214 Uiso
C4_4 C 1.00000 0.36092(56) 0.50000 0.0375 Uiso
C5_4 C 1.00000 0.43397(53) 0.50000 0.0375 Uiso
O3_2 O 0.82816(63) 0.1719(14) 0.49654(54) 0.0214 Uiso
C7_2 C 0.7894(10) 0.2105(22) 0.48467(96) 0.0923 Uiso
O4_2 O 0.9790(10) 0.2271(13) 0.46882(41) 0.0214 Uiso
C8_2 C 0.9399(13) 0.2101(19) 0.43210(70) 0.0923 Uiso
O5_2 O 0.89254(61) 0.1074(14) 0.52161(62) 0.0214 Uiso
C9_2 C 0.93000(79) 0.0700(18) 0.54032(92) 0.0923 Uiso
Al3_2 Al 0.87520(73) 0.25914(90) 0.81795(28) 0.0377 Uiso
Al4_2 Al 0.74086(50) 0.12480(73) 0.81795(28) 0.0377 Uiso
Al6_2 Al 0.92581(50) 0.71728(88) 0.51538(28) 0.0377 Uiso
O6_2 O 0.7898(10) 0.1046(13) 0.56846(31) 0.0214 Uiso
O7_2 O 0.8769(10) 0.2287(13) 0.76487(31) 0.0214 Uiso
O8_2 O 0.77131(67) 0.1231(10) 0.76487(31) 0.0214 Uiso
C10_2 C 0.8245(18) 0.1754(24) 0.75016(33) 0.0375 Uiso
C11_2 C 0.82938(87) 0.1706(12) 0.70630(30) 0.0375 Uiso
C12_2 C 0.88815(68) 0.22720(89) 0.68654(19) 0.0375 Uiso
C13_2 C 0.77280(37) 0.11185(68) 0.68654(19) 0.0375 Uiso
C14_2 C 0.77852(68) 0.10613(89) 0.64679(19) 0.0375 Uiso
O10_2 O 0.94141(64) 0.6321(13) 0.51170(42) 0.0214 Uiso
O13_2 O 0.9760(11) 0.2747(14) 0.82163(42) 0.0214 Uiso
O14_2 O 0.72526(64) 0.0240(11) 0.82163(42) 0.0214 Uiso
C15_4 C 1.00000 0.63908(56) 0.50000 0.0375 Uiso
C16_4 C 1.00000 0.56603(53) 0.50000 0.0375 Uiso
C18_2 C 0.94091(33) 0.50342(50) 0.51411(34) 0.0375 Uiso
C19_2 C 0.94091(33) 0.43749(60) 0.51411(34) 0.0375 Uiso
O15_2 O 0.8385(14) 0.1615(19) 0.83679(54) 0.0214 Uiso
C20_2 C 0.8772(22) 0.1227(30) 0.84866(96) 0.0923 Uiso
O17_2 O 0.7728(13) 0.0210(15) 0.46882(41) 0.0214 Uiso
O19_2 O 0.8938(13) 0.3123(15) 0.86451(41) 0.0214 Uiso
O20_2 O 0.91482(83) 0.3543(15) 0.80215(41) 0.0214 Uiso
O21_2 O 0.6877(10) 0.1062(13) 0.86451(41) 0.0214 Uiso
O22_2 O 0.6457(10) 0.0852(16) 0.80215(41) 0.0214 Uiso
C22_2 C 0.7899(19) 0.0601(24) 0.43210(70) 0.0923 Uiso
O23_2 O 0.7741(14) 0.2259(18) 0.81172(62) 0.0214 Uiso
C24_2 C 0.7367(18) 0.2633(24) 0.79301(92) 0.0923 Uiso
H2_2 H 0.911989 0.241523 0.429466 . .
H3_2 H 0.978799 0.224221 0.408677 . .
H4_2 H 0.899904 0.151907 0.430915 . .
H5_2 H 0.818599 0.247182 0.460966 . .
H6_2 H 0.734136 0.170797 0.475572 . .
H7_2 H 0.78683 0.242067 0.508702 . .
H8_2 H 0.941295 0.0865372 0.570251 . .
H9_2 H 0.89444 0.0109106 0.538652 . .
H10_2 H 0.981163 0.0856691 0.525491 . .
H11_2 H 0.941928 0.262416 0.631434 . .
H15_2 H 0.848093 0.100096 0.430915 . .
H16_2 H 0.775779 0.0212007 0.408677 . .
H17_2 H 0.758477 0.088011 0.429466 . .
H18_2 H 0.893851 0.505513 0.525347 . .
H19_2 H 0.737584 0.0580719 0.631434 . .
H21_2 H 0.929083 0.275261 0.7019 . .
H22_2 H 0.893851 0.388338 0.525347 . .
H23_2 H 0.913849 0.151932 0.872367 . .
H24_2 H 0.837464 0.0674694 0.857761 . .
H25_2 H 0.908734 0.120163 0.824631 . .
H26_2 H 0.724739 0.070917 0.7019 . .
H30_2 H 0.753204 0.274628 0.763082 . .
H31_2 H 0.677577 0.227773 0.794681 . .
H32_2 H 0.752336 0.314496 0.807843 . .
O18_2 O 0.75185(83) 0.9790(15) 0.53118(41) 0.0214 Uiso
C23_2 C 0.7298(14) 0.9399(24) 0.56790(70) 0.0923 Uiso
H27_2 H 0.687655 0.948097 0.581065 . .
H28_2 H 0.708364 0.881722 0.56301 . .
H29_2 H 0.777022 0.960874 0.586867 . .
O1_3 O 0.10464(67) 0.31486(79) 0.43154(31) 0.0214 Uiso
C1_3 C 0.15792(79) 0.3158(16) 0.41683(33) 0.0375 Uiso
C2_3 C 0.16271(39) 0.32542(78) 0.37297(30) 0.0375 Uiso
C3_3 C 0.10613(37) 0.32761(57) 0.35321(19) 0.0375 Uiso
O3_3 O 0.17184(63) 0.3437(13) 0.50346(54) 0.0214 Uiso
C7_3 C 0.2106(10) 0.4211(20) 0.51533(96) 0.0923 Uiso
O5_3 O 0.10746(61) 0.2149(12) 0.47839(62) 0.0214 Uiso
C9_3 C 0.07000(79) 0.1400(16) 0.45968(92) 0.0923 Uiso
Al3_3 Al 0.12480(73) 0.38395(53) 0.18205(28) 0.0377 Uiso
Al4_3 Al 0.25914(50) 0.38395(53) 0.18205(28) 0.0377 Uiso
O6_3 O 0.2102(10) 0.31486(79) 0.43154(31) 0.0214 Uiso
O7_3 O 0.1231(10) 0.35181(79) 0.23513(31) 0.0214 Uiso
O8_3 O 0.22869(67) 0.35181(79) 0.23513(31) 0.0214 Uiso
C10_3 C 0.1755(18) 0.3509(16) 0.24984(33) 0.0375 Uiso
C11_3 C 0.17062(87) 0.34125(78) 0.29370(30) 0.0375 Uiso
C12_3 C 0.11185(68) 0.33906(57) 0.31346(19) 0.0375 Uiso
C13_3 C 0.22720(37) 0.33906(57) 0.31346(19) 0.0375 Uiso
C14_3 C 0.22148(68) 0.32761(57) 0.35321(19) 0.0375 Uiso
O12_2 O 0.3093(11) 0.36792(83) 0.48830(42) 0.0214 Uiso
O13_3 O 0.0240(11) 0.29875(83) 0.17837(42) 0.0214 Uiso
O14_3 O 0.27474(64) 0.29875(83) 0.17837(42) 0.0214 Uiso
O15_3 O 0.1615(14) 0.3230(13) 0.16321(54) 0.0214 Uiso
C20_3 C 0.1228(22) 0.2456(20) 0.15134(96) 0.0923 Uiso
O19_3 O 0.1062(13) 0.41852(83) 0.13549(41) 0.0214 Uiso
O20_3 O 0.08518(83) 0.4395(13) 0.19785(41) 0.0214 Uiso
O21_3 O 0.3123(10) 0.41852(83) 0.13549(41) 0.0214 Uiso
O22_3 O 0.3543(10) 0.4395(13) 0.19785(41) 0.0214 Uiso
O23_3 O 0.2259(14) 0.4518(12) 0.18828(62) 0.0214 Uiso
C24_3 C 0.2633(18) 0.5267(16) 0.20699(92) 0.0923 Uiso
H2_3 H 0.088011 0.329534 0.570534 . .
H3_3 H 0.0212007 0.245422 0.591323 . .
H4_3 H 0.100096 0.252002 0.569085 . .
H5_3 H 0.181401 0.428583 0.539034 . .
H6_3 H 0.265864 0.436661 0.524428 . .
H7_3 H 0.21317 0.455237 0.491298 . .
H8_3 H 0.0587052 0.145242 0.429749 . .
H9_3 H 0.10556 0.116471 0.461348 . .
H10_3 H 0.0188369 0.104506 0.474509 . .
H11_3 H 0.0580719 0.320488 0.368566 . .
H15_3 H 0.151907 0.252002 0.569085 . .
H16_3 H 0.224221 0.245422 0.591323 . .
H17_3 H 0.241523 0.329534 0.570534 . .
H19_3 H 0.262416 0.320488 0.368566 . .
H21_3 H 0.070917 0.346179 0.2981 . .
H23_3 H 0.0861514 0.238084 0.127633 . .
H24_3 H 0.162536 0.230005 0.142239 . .
H25_3 H 0.0912662 0.211429 0.175369 . .
H26_3 H 0.275261 0.346179 0.2981 . .
H27_3 H 0.312345 0.260442 0.418935 . .
H28_3 H 0.291636 0.173357 0.43699 . .
H29_3 H 0.222978 0.183852 0.413133 . .
H30_3 H 0.246796 0.521424 0.236918 . .
H31_3 H 0.322423 0.550196 0.205319 . .
H32_3 H 0.247664 0.562161 0.192157 . .
H12_3 H 0.960874 0.183852 0.413133 . .
H13_3 H 0.881722 0.173357 0.43699 . .
H14_3 H 0.948097 0.260442 0.418935 . .
O18_3 O 0.0210(15) 0.7729(13) 0.53118(41) 0.0214 Uiso
C23_3 C 0.0601(24) 0.7899(19) 0.56790(70) 0.0923 Uiso
H27_4 H 0.0519035 0.739558 0.581065 . .
H28_4 H 0.118278 0.826643 0.56301 . .
H29_4 H 0.0391255 0.816148 0.586867 . .
Al1_3 Al 0.79147(73) 0.71728(53) 0.51538(28) 0.0377 Uiso
O1_4 O 0.7898(10) 0.68514(79) 0.56846(31) 0.0214 Uiso
C1_4 C 0.8421(18) 0.6842(16) 0.58317(33) 0.0375 Uiso
C2_4 C 0.83729(87) 0.67458(78) 0.62703(30) 0.0375 Uiso
C3_4 C 0.77852(68) 0.67239(57) 0.64679(19) 0.0375 Uiso
O2_3 O 0.6907(11) 0.63208(83) 0.51170(42) 0.0214 Uiso
C4_5 C 0.63908(56) 0.63908(56) 0.50000 0.0375 Uiso
C5_5 C 0.56603(53) 0.56603(53) 0.50000 0.0375 Uiso
C6_3 C 0.50342(50) 0.56251(37) 0.48589(34) 0.0375 Uiso
O3_4 O 0.8281(14) 0.6563(13) 0.49654(54) 0.0214 Uiso
C7_4 C 0.7895(22) 0.5789(20) 0.48467(96) 0.0923 Uiso
O4_3 O 0.7729(13) 0.75185(83) 0.46882(41) 0.0214 Uiso
C8_3 C 0.7899(19) 0.7298(14) 0.43210(70) 0.0923 Uiso
O5_4 O 0.8926(14) 0.7851(12) 0.52161(62) 0.0214 Uiso
C9_4 C 0.9300(18) 0.8600(16) 0.54032(92) 0.0923 Uiso
Al3_4 Al 0.74086(90) 0.61605(53) 0.81795(28) 0.0377 Uiso
Al4_4 Al 0.87520(73) 0.61605(53) 0.81795(28) 0.0377 Uiso
Al5_3 Al 0.71728(88) 0.79147(73) 0.48462(28) 0.0377 Uiso
O6_4 O 0.8954(13) 0.68514(79) 0.56846(31) 0.0214 Uiso
O7_4 O 0.7713(13) 0.64819(79) 0.76487(31) 0.0214 Uiso
O8_4 O 0.8769(10) 0.64819(79) 0.76487(31) 0.0214 Uiso
C10_4 C 0.8246(24) 0.6491(16) 0.75016(33) 0.0375 Uiso
C11_4 C 0.8294(12) 0.65875(78) 0.70630(30) 0.0375 Uiso
C12_4 C 0.77280(89) 0.66094(57) 0.68654(19) 0.0375 Uiso
C13_4 C 0.88815(68) 0.66094(57) 0.68654(19) 0.0375 Uiso
C14_4 C 0.89387(89) 0.67239(57) 0.64679(19) 0.0375 Uiso
O9_3 O 0.6321(13) 0.6907(11) 0.48830(42) 0.0214 Uiso
O13_4 O 0.7253(14) 0.70125(83) 0.82163(42) 0.0214 Uiso
O14_4 O 0.9760(11) 0.70125(83) 0.82163(42) 0.0214 Uiso
C15_5 C 0.36092(56) 0.36092(56) 0.50000 0.0375 Uiso
C16_5 C 0.43397(53) 0.43397(53) 0.50000 0.0375 Uiso
C17_3 C 0.43749(60) 0.49658(50) 0.48589(34) 0.0375 Uiso
C18_3 C 0.49658(50) 0.43749(37) 0.51411(34) 0.0375 Uiso
C19_3 C 0.56251(60) 0.50342(50) 0.51411(34) 0.0375 Uiso
O15_4 O 0.8385(19) 0.6770(13) 0.83679(54) 0.0214 Uiso
C20_4 C 0.8773(30) 0.7544(20) 0.84866(96) 0.0923 Uiso
O16_3 O 0.7518(16) 0.7729(13) 0.53118(41) 0.0214 Uiso
O17_3 O 0.9790(15) 0.75185(83) 0.46882(41) 0.0214 Uiso
O19_4 O 0.6877(15) 0.58148(83) 0.86451(41) 0.0214 Uiso
O20_4 O 0.6457(15) 0.5605(13) 0.80215(41) 0.0214 Uiso
O21_4 O 0.8938(13) 0.58148(83) 0.86451(41) 0.0214 Uiso
O22_4 O 0.9148(16) 0.5605(13) 0.80215(41) 0.0214 Uiso
C21_3 C 0.7298(23) 0.7899(19) 0.56790(70) 0.0923 Uiso
C22_3 C 0.9399(24) 0.7298(14) 0.43210(70) 0.0923 Uiso
O23_4 O 0.7741(18) 0.5482(12) 0.81172(62) 0.0214 Uiso
C24_4 C 0.7367(24) 0.4733(16) 0.79301(92) 0.0923 Uiso
H1_3 H 0.505513 0.611662 0.474653 . .
H2_4 H 0.758477 0.670466 0.429466 . .
H3_4 H 0.775779 0.754578 0.408677 . .
H4_4 H 0.848093 0.747998 0.430915 . .
H5_4 H 0.752818 0.571417 0.460966 . .
H6_4 H 0.829203 0.563339 0.475572 . .
H7_4 H 0.757933 0.544763 0.508702 . .
H8_4 H 0.913463 0.854758 0.570251 . .
H9_4 H 0.989089 0.883529 0.538652 . .
H10_4 H 0.914331 0.895494 0.525491 . .
H11_4 H 0.737584 0.679512 0.631434 . .
H12_4 H 0.777022 0.816148 0.586867 . .
H13_4 H 0.708364 0.826643 0.56301 . .
H14_4 H 0.687655 0.739558 0.581065 . .
H15_4 H 0.899904 0.747998 0.430915 . .
H16_4 H 0.978799 0.754578 0.408677 . .
H17_4 H 0.911989 0.670466 0.429466 . .
H18_3 H 0.494487 0.388338 0.525347 . .
H19_4 H 0.941928 0.679512 0.631434 . .
H20_3 H 0.388338 0.494487 0.474653 . .
H21_4 H 0.724739 0.653821 0.7019 . .
H22_3 H 0.611662 0.505513 0.525347 . .
H23_4 H 0.848068 0.761916 0.872367 . .
H24_4 H 0.932531 0.769995 0.857761 . .
H25_4 H 0.879837 0.788571 0.824631 . .
H26_4 H 0.929083 0.653821 0.7019 . .
H30_4 H 0.725372 0.478576 0.763082 . .
H31_4 H 0.772227 0.449804 0.794681 . .
H32_4 H 0.685504 0.437839 0.807843 . .
H27_5 H 0.739558 0.0519035 0.418935 . .
H28_5 H 0.826643 0.118278 0.43699 . .
H29_5 H 0.816148 0.0391255 0.413133 . .
O1_5 O 0.68514(79) 0.7898(10) 0.43154(31) 0.0214 Uiso
C1_5 C 0.6842(16) 0.8421(18) 0.41683(33) 0.0375 Uiso
C2_5 C 0.67458(78) 0.83729(87) 0.37297(30) 0.0375 Uiso
C3_5 C 0.67239(57) 0.77852(68) 0.35321(19) 0.0375 Uiso
O3_5 O 0.6563(13) 0.8281(14) 0.50346(54) 0.0214 Uiso
C7_5 C 0.5789(20) 0.7895(22) 0.51533(96) 0.0923 Uiso
O5_5 O 0.7851(12) 0.8926(14) 0.47839(62) 0.0214 Uiso
C9_5 C 0.8600(16) 0.9300(18) 0.45968(92) 0.0923 Uiso
Al3_5 Al 0.61605(53) 0.74086(90) 0.18205(28) 0.0377 Uiso
Al4_5 Al 0.61605(53) 0.87520(73) 0.18205(28) 0.0377 Uiso
O6_5 O 0.68514(79) 0.8954(13) 0.43154(31) 0.0214 Uiso
O7_5 O 0.64819(79) 0.7713(13) 0.23513(31) 0.0214 Uiso
O8_5 O 0.64819(79) 0.8769(10) 0.23513(31) 0.0214 Uiso
C10_5 C 0.6491(16) 0.8246(24) 0.24984(33) 0.0375 Uiso
C11_5 C 0.65875(78) 0.8294(12) 0.29370(30) 0.0375 Uiso
C12_5 C 0.66094(57) 0.77280(89) 0.31346(19) 0.0375 Uiso
C13_5 C 0.66094(57) 0.88815(68) 0.31346(19) 0.0375 Uiso
C14_5 C 0.67239(57) 0.89387(89) 0.35321(19) 0.0375 Uiso
O13_5 O 0.70125(83) 0.7253(14) 0.17837(42) 0.0214 Uiso
O14_5 O 0.70125(83) 0.9760(11) 0.17837(42) 0.0214 Uiso
O15_5 O 0.6770(13) 0.8385(19) 0.16321(54) 0.0214 Uiso
C20_5 C 0.7544(20) 0.8773(30) 0.15134(96) 0.0923 Uiso
O19_5 O 0.58148(83) 0.6877(15) 0.13549(41) 0.0214 Uiso
O20_5 O 0.5605(13) 0.6457(15) 0.19785(41) 0.0214 Uiso
O21_5 O 0.58148(83) 0.8938(13) 0.13549(41) 0.0214 Uiso
O22_5 O 0.5605(13) 0.9148(16) 0.19785(41) 0.0214 Uiso
O23_5 O 0.5482(12) 0.7741(18) 0.18828(62) 0.0214 Uiso
C24_5 C 0.4733(16) 0.7367(24) 0.20699(92) 0.0923 Uiso
H2_5 H 0.670466 0.758477 0.570534 . .
H3_5 H 0.754578 0.775779 0.591323 . .
H4_5 H 0.747998 0.848093 0.569085 . .
H5_5 H 0.571417 0.752818 0.539034 . .
H6_5 H 0.563339 0.829203 0.524428 . .
H7_5 H 0.544763 0.757933 0.491298 . .
H8_5 H 0.854758 0.913463 0.429749 . .
H9_5 H 0.883529 0.989089 0.461348 . .
H10_5 H 0.895494 0.914331 0.474509 . .
H11_5 H 0.679512 0.737584 0.368566 . .
H12_5 H 0.816148 0.777022 0.413133 . .
H13_5 H 0.826643 0.708364 0.43699 . .
H14_5 H 0.739558 0.687655 0.418935 . .
H15_5 H 0.747998 0.899904 0.569085 . .
H16_5 H 0.754578 0.978799 0.591323 . .
H17_5 H 0.670466 0.911989 0.570534 . .
H19_5 H 0.679512 0.941928 0.368566 . .
H21_5 H 0.653821 0.724739 0.2981 . .
H23_5 H 0.761916 0.848068 0.127633 . .
H24_5 H 0.769995 0.932531 0.142239 . .
H25_5 H 0.788571 0.879837 0.175369 . .
H26_5 H 0.653821 0.929083 0.2981 . .
H30_5 H 0.478576 0.725372 0.236918 . .
H31_5 H 0.449804 0.772227 0.205319 . .
H32_5 H 0.437839 0.685504 0.192157 . .
H12_6 H 0.222978 0.0391255 0.413133 . .
H13_6 H 0.291636 0.118278 0.43699 . .
H14_6 H 0.312345 0.0519035 0.418935 . .
O1_6 O 0.2102(10) 0.89536(67) 0.43154(31) 0.0214 Uiso
C1_6 C 0.1579(18) 0.84208(79) 0.41683(33) 0.0375 Uiso
C2_6 C 0.16271(87) 0.83729(39) 0.37297(30) 0.0375 Uiso
C3_6 C 0.22148(68) 0.89387(37) 0.35321(19) 0.0375 Uiso
O3_6 O 0.1719(14) 0.82816(63) 0.50346(54) 0.0214 Uiso
C7_6 C 0.2105(22) 0.7894(10) 0.51533(96) 0.0923 Uiso
O5_6 O 0.1074(14) 0.89254(61) 0.47839(62) 0.0214 Uiso
C9_6 C 0.0700(18) 0.93000(79) 0.45968(92) 0.0923 Uiso
Al3_6 Al 0.25914(90) 0.87520(73) 0.18205(28) 0.0377 Uiso
Al4_6 Al 0.12480(73) 0.74086(50) 0.18205(28) 0.0377 Uiso
O6_6 O 0.1046(13) 0.7898(10) 0.43154(31) 0.0214 Uiso
O7_6 O 0.2287(13) 0.8769(10) 0.23513(31) 0.0214 Uiso
O8_6 O 0.1231(10) 0.77131(67) 0.23513(31) 0.0214 Uiso
C10_6 C 0.1754(24) 0.8245(18) 0.24984(33) 0.0375 Uiso
C11_6 C 0.1706(12) 0.82938(87) 0.29370(30) 0.0375 Uiso
C12_6 C 0.22720(89) 0.88815(68) 0.31346(19) 0.0375 Uiso
C13_6 C 0.11185(68) 0.77280(37) 0.31346(19) 0.0375 Uiso
C14_6 C 0.10613(89) 0.77852(68) 0.35321(19) 0.0375 Uiso
O13_6 O 0.2747(14) 0.9760(11) 0.17837(42) 0.0214 Uiso
O14_6 O 0.0240(11) 0.72526(64) 0.17837(42) 0.0214 Uiso
O15_6 O 0.1615(19) 0.8385(14) 0.16321(54) 0.0214 Uiso
C20_6 C 0.1227(30) 0.8772(22) 0.15134(96) 0.0923 Uiso
O19_6 O 0.3123(15) 0.8938(13) 0.13549(41) 0.0214 Uiso
O20_6 O 0.3543(15) 0.91482(83) 0.19785(41) 0.0214 Uiso
O21_6 O 0.1062(13) 0.6877(10) 0.13549(41) 0.0214 Uiso
O22_6 O 0.0852(16) 0.6457(10) 0.19785(41) 0.0214 Uiso
O23_6 O 0.2259(18) 0.7741(14) 0.18828(62) 0.0214 Uiso
C24_6 C 0.2633(24) 0.7367(18) 0.20699(92) 0.0923 Uiso
H2_6 H 0.241523 0.911989 0.570534 . .
H3_6 H 0.224221 0.978799 0.591323 . .
H4_6 H 0.151907 0.899904 0.569085 . .
H5_6 H 0.247182 0.818599 0.539034 . .
H6_6 H 0.170797 0.734136 0.524428 . .
H7_6 H 0.242067 0.78683 0.491298 . .
H8_6 H 0.0865372 0.941295 0.429749 . .
H9_6 H 0.0109106 0.89444 0.461348 . .
H10_6 H 0.0856691 0.981163 0.474509 . .
H11_6 H 0.262416 0.941928 0.368566 . .
H15_6 H 0.100096 0.848093 0.569085 . .
H16_6 H 0.0212007 0.775779 0.591323 . .
H17_6 H 0.088011 0.758477 0.570534 . .
H19_6 H 0.0580719 0.737584 0.368566 . .
H21_6 H 0.275261 0.929083 0.2981 . .
H23_6 H 0.151932 0.913849 0.127633 . .
H24_6 H 0.0674694 0.837464 0.142239 . .
H25_6 H 0.120163 0.908734 0.175369 . .
H26_6 H 0.070917 0.724739 0.2981 . .
H30_6 H 0.274628 0.753204 0.236918 . .
H31_6 H 0.227773 0.677577 0.205319 . .
H32_6 H 0.314496 0.752336 0.192157 . .
H27_6 H 0.948097 0.687655 0.418935 . .
H28_6 H 0.881722 0.708364 0.43699 . .
H29_6 H 0.960874 0.777022 0.413133 . .
Al7_3 Al 0.05061(53) 0.59248(50) 0.15129(28) 0.0377 Uiso
C4_6 C 0.69425(56) 0.66667 0.16667 0.0375 Uiso
C5_6 C 0.76730(53) 0.66667 0.16667 0.0375 Uiso
C6_4 C 0.77082(37) 0.60758(33) 0.15256(34) 0.0375 Uiso
C8_4 C 0.6035(14) 0.7268(13) 0.09877(70) 0.0923 Uiso
Al5_4 Al 0.54186(73) 0.59248(50) 0.15129(28) 0.0377 Uiso
Al8_2 Al 0.54186(73) 0.94939(53) 0.15129(28) 0.0377 Uiso
O9_4 O 0.6427(11) 0.60808(64) 0.15497(42) 0.0214 Uiso
O11_3 O 0.96541(83) 0.60808(64) 0.15497(42) 0.0214 Uiso
C15_6 C 0.97241(56) 0.66667 0.16667 0.0375 Uiso
C16_6 C 0.89936(53) 0.66667 0.16667 0.0375 Uiso
C17_4 C 0.83675(50) 0.60758(33) 0.15256(34) 0.0375 Uiso
C18_4 C 0.89584(37) 0.72576(33) 0.18078(34) 0.0375 Uiso
C19_4 C 0.82991(50) 0.72576(33) 0.18078(34) 0.0375 Uiso
C21_4 C 0.5434(19) 0.6066(13) 0.23457(70) 0.0923 Uiso
C22_4 C 0.6035(14) 0.8768(19) 0.09877(70) 0.0923 Uiso
C23_4 C 0.5434(19) 0.9369(14) 0.23457(70) 0.0923 Uiso
H1_4 H 0.721671 0.560518 0.14132 . .
H2_7 H 0.662868 0.754678 0.0961324 . .
H3_7 H 0.578755 0.687867 0.0753441 . .
H4_7 H 0.585336 0.766762 0.0975818 . .
H12_7 H 0.517185 0.627541 0.253533 . .
H13_7 H 0.506691 0.548388 0.229677 . .
H14_7 H 0.593775 0.614763 0.247732 . .
H15_7 H 0.585336 0.818574 0.0975818 . .
H16_7 H 0.578755 0.890888 0.0753441 . .
H17_7 H 0.662868 0.90819 0.0961324 . .
H18_4 H 0.944995 0.772815 0.192014 . .
H20_4 H 0.838847 0.560518 0.14132 . .
H22_4 H 0.82782 0.772815 0.192014 . .
H27_7 H 0.593775 0.979012 0.247732 . .
H28_7 H 0.506691 0.958302 0.229677 . .
H29_7 H 0.517185 0.889644 0.253533 . .
C4_7 C 0.33333 0.02759(56) 0.16667 0.0375 Uiso
C5_7 C 0.33333 0.10064(53) 0.16667 0.0375 Uiso
C6_5 C 0.39242(33) 0.16325(50) 0.15256(34) 0.0375 Uiso
Al7_4 Al 0.40752(50) 0.45814(73) 0.15129(28) 0.0377 Uiso
O9_5 O 0.39192(64) 0.0346(13) 0.15497(42) 0.0214 Uiso
O11_4 O 0.39192(64) 0.3573(11) 0.15497(42) 0.0214 Uiso
C15_7 C 0.33333 0.30575(56) 0.16667 0.0375 Uiso
C16_7 C 0.33333 0.23270(53) 0.16667 0.0375 Uiso
C17_5 C 0.39242(33) 0.22918(60) 0.15256(34) 0.0375 Uiso
C18_5 C 0.27424(33) 0.17009(50) 0.18078(34) 0.0375 Uiso
C19_5 C 0.27424(33) 0.10416(60) 0.18078(34) 0.0375 Uiso
H1_5 H 0.439482 0.161153 0.14132 . .
H18_5 H 0.227185 0.17218 0.192014 . .
H20_5 H 0.439482 0.278329 0.14132 . .
H22_5 H 0.227185 0.0550048 0.192014 . .
C8_5 C 0.2732(13) 0.8768(19) 0.09877(70) 0.0923 Uiso
Al5_5 Al 0.40752(50) 0.94939(88) 0.15129(28) 0.0377 Uiso
C21_5 C 0.3934(13) 0.9369(23) 0.23457(70) 0.0923 Uiso
C22_5 C 0.1232(19) 0.7268(24) 0.09877(70) 0.0923 Uiso
C23_5 C 0.0631(14) 0.6066(24) 0.23457(70) 0.0923 Uiso
H2_8 H 0.245322 0.90819 0.0961324 . .
H3_8 H 0.312133 0.890888 0.0753441 . .
H4_8 H 0.233238 0.818574 0.0975818 . .
H12_8 H 0.372459 0.889644 0.253533 . .
H13_8 H 0.451612 0.958302 0.229677 . .
H14_8 H 0.385237 0.979012 0.247732 . .
H15_8 H 0.181426 0.766762 0.0975818 . .
H16_8 H 0.109112 0.687867 0.0753441 . .
H17_8 H 0.0918102 0.754678 0.0961324 . .
H27_8 H 0.0209882 0.614763 0.247732 . .
H28_8 H 0.0416976 0.548388 0.229677 . .
H29_8 H 0.110356 0.627541 0.253533 . .
O3_7 O 0.50517(63) 0.0104(13) 0.17013(54) 0.0214 Uiso
C7_7 C 0.5439(10) 0.0878(20) 0.18200(96) 0.0923 Uiso
O12_3 O 0.6427(11) 0.03459(83) 0.15497(42) 0.0214 Uiso
H5_7 H 0.514734 0.0952497 0.2057 . .
H6_7 H 0.599197 0.103328 0.191094 . .
H7_7 H 0.546504 0.121904 0.157965 . .
Al3_7 Al 0.45814(73) 0.05061(53) 0.84871(28) 0.0377 Uiso
Al4_7 Al 0.59248(50) 0.05061(53) 0.84871(28) 0.0377 Uiso
O7_7 O 0.4564(10) 0.01847(79) 0.90179(31) 0.0214 Uiso
O8_7 O 0.56203(67) 0.01847(79) 0.90179(31) 0.0214 Uiso
C10_7 C 0.5088(18) 0.0175(16) 0.91650(33) 0.0375 Uiso
C11_7 C 0.50396(87) 0.00791(78) 0.96036(30) 0.0375 Uiso
C12_7 C 0.44519(68) 0.00572(57) 0.98012(19) 0.0375 Uiso
C13_7 C 0.56054(37) 0.00572(57) 0.98012(19) 0.0375 Uiso
O23_7 O 0.5592(14) 0.1184(12) 0.85494(62) 0.0214 Uiso
C24_7 C 0.5967(18) 0.1933(16) 0.87365(92) 0.0923 Uiso
H21_7 H 0.40425 0.0128452 0.964767 . .
H26_7 H 0.608595 0.0128452 0.964767 . .
H30_7 H 0.580129 0.188091 0.903585 . .
H31_7 H 0.655756 0.216862 0.871986 . .
H32_7 H 0.580998 0.228827 0.858824 . .
O1_7 O 0.43797(67) 0.98153(79) 0.09821(31) 0.0214 Uiso
C1_7 C 0.49125(79) 0.9825(16) 0.08350(33) 0.0375 Uiso
C2_7 C 0.49604(39) 0.99209(78) 0.03964(30) 0.0375 Uiso
C3_7 C 0.43946(37) 0.99428(57) 0.01988(19) 0.0375 Uiso
O5_7 O 0.44079(61) 0.8816(12) 0.14506(62) 0.0214 Uiso
C9_7 C 0.40333(79) 0.8067(16) 0.12635(92) 0.0923 Uiso
O6_7 O 0.5436(10) 0.98153(79) 0.09821(31) 0.0214 Uiso
C14_7 C 0.55481(68) 0.99428(57) 0.01988(19) 0.0375 Uiso
H2_9 H 0.421344 0.996201 0.237201 . .
H3_9 H 0.354534 0.912088 0.257989 . .
H4_9 H 0.433429 0.918669 0.235751 . .
H8_7 H 0.392038 0.811909 0.0964152 . .
H9_7 H 0.438894 0.783138 0.128014 . .
H10_7 H 0.35217 0.771173 0.141176 . .
H11_7 H 0.391405 0.987155 0.035233 . .
H12_9 H 0.294208 0.850519 0.0798001 . .
H13_9 H 0.215055 0.840024 0.103657 . .
H14_9 H 0.28143 0.927108 0.0856017 . .
H15_9 H 0.48524 0.918669 0.235751 . .
H16_9 H 0.557554 0.912088 0.257989 . .
H17_9 H 0.574856 0.996201 0.237201 . .
H19_7 H 0.59575 0.987155 0.035233 . .
H27_9 H 0.645678 0.927108 0.0856017 . .
H28_9 H 0.624969 0.840024 0.103657 . .
H29_9 H 0.556311 0.850519 0.0798001 . .
O13_7 O 0.3573(11) 0.96541(83) 0.84503(42) 0.0214 Uiso
O14_7 O 0.60808(64) 0.96541(83) 0.84503(42) 0.0214 Uiso
O15_7 O 0.4948(14) 0.9896(13) 0.82987(54) 0.0214 Uiso
C20_7 C 0.4562(22) 0.9122(20) 0.81800(96) 0.0923 Uiso
H23_7 H 0.419485 0.90475 0.7943 . .
H24_7 H 0.495869 0.896672 0.808906 . .
H25_7 H 0.424599 0.878096 0.842035 . .
C8_6 C 0.1232(19) 0.3965(14) 0.09877(70) 0.0923 Uiso
Al5_6 Al 0.05061(88) 0.45814(73) 0.15129(28) 0.0377 Uiso
C21_6 C 0.0631(23) 0.4566(19) 0.23457(70) 0.0923 Uiso
C22_6 C 0.2732(24) 0.3965(14) 0.09877(70) 0.0923 Uiso
C23_6 C 0.3934(24) 0.4566(19) 0.23457(70) 0.0923 Uiso
H2_10 H 0.0918102 0.337132 0.0961324 . .
H3_10 H 0.109112 0.421245 0.0753441 . .
H4_10 H 0.181426 0.414664 0.0975818 . .
H12_10 H 0.110356 0.482815 0.253533 . .
H13_10 H 0.0416976 0.493309 0.229677 . .
H14_10 H 0.0209882 0.406225 0.247732 . .
H15_10 H 0.233238 0.414664 0.0975818 . .
H16_10 H 0.312133 0.421245 0.0753441 . .
H17_10 H 0.245322 0.337132 0.0961324 . .
H27_10 H 0.385237 0.406225 0.247732 . .
H28_10 H 0.451612 0.493309 0.229677 . .
H29_10 H 0.372459 0.482815 0.253533 . .
C4_8 C 0.97241(56) 0.30575(56) 0.16667 0.0375 Uiso
C5_8 C 0.89936(53) 0.23270(53) 0.16667 0.0375 Uiso
C6_6 C 0.83675(50) 0.22918(37) 0.15256(34) 0.0375 Uiso
O9_6 O 0.9654(13) 0.3573(11) 0.15497(42) 0.0214 Uiso
C15_8 C 0.69425(56) 0.02759(56) 0.16667 0.0375 Uiso
C16_8 C 0.76730(53) 0.10064(53) 0.16667 0.0375 Uiso
C17_6 C 0.77082(60) 0.16325(50) 0.15256(34) 0.0375 Uiso
C18_6 C 0.82991(50) 0.10416(37) 0.18078(34) 0.0375 Uiso
C19_6 C 0.89584(60) 0.17009(50) 0.18078(34) 0.0375 Uiso
H1_6 H 0.838847 0.278329 0.14132 . .
H18_6 H 0.82782 0.0550048 0.192014 . .
H20_6 H 0.721671 0.161153 0.14132 . .
H22_6 H 0.944995 0.17218 0.192014 . .
O1_8 O 0.01847(79) 0.4564(10) 0.09821(31) 0.0214 Uiso
C1_8 C 0.0175(16) 0.5088(18) 0.08350(33) 0.0375 Uiso
C2_8 C 0.00791(78) 0.50396(87) 0.03964(30) 0.0375 Uiso
C3_8 C 0.00572(57) 0.44519(68) 0.01988(19) 0.0375 Uiso
O5_8 O 0.1184(12) 0.5592(14) 0.14506(62) 0.0214 Uiso
C9_8 C 0.1933(16) 0.5967(18) 0.12635(92) 0.0923 Uiso
O6_8 O 0.01847(79) 0.5620(13) 0.09821(31) 0.0214 Uiso
C14_8 C 0.00572(57) 0.56054(89) 0.01988(19) 0.0375 Uiso
H2_11 H 0.00379914 0.425144 0.237201 . .
H3_11 H 0.0879116 0.442446 0.257989 . .
H4_11 H 0.0813309 0.51476 0.235751 . .
H8_8 H 0.188091 0.580129 0.0964152 . .
H9_8 H 0.216862 0.655756 0.128014 . .
H10_8 H 0.228827 0.580998 0.141176 . .
H11_8 H 0.0128452 0.40425 0.035233 . .
H12_11 H 0.149481 0.443689 0.0798001 . .
H13_11 H 0.159976 0.375031 0.103657 . .
H14_11 H 0.0728917 0.354322 0.0856017 . .
H15_11 H 0.0813309 0.566571 0.235751 . .
H16_11 H 0.0879116 0.645466 0.257989 . .
H17_11 H 0.00379914 0.578656 0.237201 . .
H19_8 H 0.0128452 0.608595 0.035233 . .
H27_11 H 0.0728917 0.71857 0.0856017 . .
H28_11 H 0.159976 0.784945 0.103657 . .
H29_11 H 0.149481 0.705792 0.0798001 . .
O13_8 O 0.03459(83) 0.3919(14) 0.84503(42) 0.0214 Uiso
O14_8 O 0.03459(83) 0.6427(11) 0.84503(42) 0.0214 Uiso
O15_8 O 0.0104(13) 0.5052(19) 0.82987(54) 0.0214 Uiso
C20_8 C 0.0878(20) 0.5439(30) 0.81800(96) 0.0923 Uiso
H23_8 H 0.0952497 0.514734 0.7943 . .
H24_8 H 0.103328 0.599197 0.808906 . .
H25_8 H 0.121904 0.546504 0.842035 . .
O3_8 O 0.9896(13) 0.4948(14) 0.17013(54) 0.0214 Uiso
C7_8 C 0.9122(20) 0.4562(22) 0.18200(96) 0.0923 Uiso
H5_8 H 0.90475 0.419485 0.2057 . .
H6_8 H 0.896672 0.495869 0.191094 . .
H7_8 H 0.878096 0.424599 0.157965 . .
Al3_8 Al 0.94939(53) 0.40752(90) 0.84871(28) 0.0377 Uiso
Al4_8 Al 0.94939(53) 0.54186(73) 0.84871(28) 0.0377 Uiso
O7_8 O 0.98153(79) 0.4380(13) 0.90179(31) 0.0214 Uiso
O8_8 O 0.98153(79) 0.5436(10) 0.90179(31) 0.0214 Uiso
C10_8 C 0.9825(16) 0.4913(24) 0.91650(33) 0.0375 Uiso
C11_8 C 0.99209(78) 0.4960(12) 0.96036(30) 0.0375 Uiso
C12_8 C 0.99428(57) 0.43946(89) 0.98012(19) 0.0375 Uiso
C13_8 C 0.99428(57) 0.55481(68) 0.98012(19) 0.0375 Uiso
O23_8 O 0.8816(12) 0.4408(18) 0.85494(62) 0.0214 Uiso
C24_8 C 0.8067(16) 0.4033(24) 0.87365(92) 0.0923 Uiso
H21_8 H 0.987155 0.391405 0.964767 . .
H26_8 H 0.987155 0.59575 0.964767 . .
H30_8 H 0.811909 0.392038 0.903585 . .
H31_8 H 0.783138 0.438894 0.871986 . .
H32_8 H 0.771173 0.35217 0.858824 . .
O1_9 O 0.5436(10) 0.56203(67) 0.09821(31) 0.0214 Uiso
C1_9 C 0.4912(18) 0.50875(79) 0.08350(33) 0.0375 Uiso
C2_9 C 0.49604(87) 0.50396(39) 0.03964(30) 0.0375 Uiso
C3_9 C 0.55481(68) 0.56054(37) 0.01988(19) 0.0375 Uiso
O3_9 O 0.5052(14) 0.49483(63) 0.17013(54) 0.0214 Uiso
C7_9 C 0.5438(22) 0.4561(10) 0.18200(96) 0.0923 Uiso
O5_9 O 0.4408(14) 0.55921(61) 0.14506(62) 0.0214 Uiso
C9_9 C 0.4033(18) 0.59667(79) 0.12635(92) 0.0923 Uiso
O6_9 O 0.4380(13) 0.4564(10) 0.09821(31) 0.0214 Uiso
C14_9 C 0.43946(89) 0.44519(68) 0.01988(19) 0.0375 Uiso
H2_12 H 0.574856 0.578656 0.237201 . .
H3_12 H 0.557554 0.645466 0.257989 . .
H4_12 H 0.48524 0.566571 0.235751 . .
H5_9 H 0.580515 0.485266 0.2057 . .
H6_9 H 0.504131 0.400803 0.191094 . .
H7_9 H 0.575401 0.453496 0.157965 . .
H8_9 H 0.419871 0.607962 0.0964152 . .
H9_9 H 0.344244 0.561106 0.128014 . .
H10_9 H 0.419002 0.64783 0.141176 . .
H11_9 H 0.59575 0.608595 0.035233 . .
H12_12 H 0.556311 0.705792 0.0798001 . .
H13_12 H 0.624969 0.784945 0.103657 . .
H14_12 H 0.645678 0.71857 0.0856017 . .
H15_12 H 0.433429 0.51476 0.235751 . .
H16_12 H 0.354534 0.442446 0.257989 . .
H17_12 H 0.421344 0.425144 0.237201 . .
H19_9 H 0.391405 0.40425 0.035233 . .
H27_12 H 0.28143 0.354322 0.0856017 . .
H28_12 H 0.215055 0.375031 0.103657 . .
H29_12 H 0.294208 0.443689 0.0798001 . .
Al3_9 Al 0.59248(90) 0.54186(73) 0.84871(28) 0.0377 Uiso
Al4_9 Al 0.45814(73) 0.40752(50) 0.84871(28) 0.0377 Uiso
O7_9 O 0.5620(13) 0.5436(10) 0.90179(31) 0.0214 Uiso
O8_9 O 0.4564(10) 0.43797(67) 0.90179(31) 0.0214 Uiso
C10_9 C 0.5087(24) 0.4912(18) 0.91650(33) 0.0375 Uiso
C11_9 C 0.5040(12) 0.49604(87) 0.96036(30) 0.0375 Uiso
C12_9 C 0.56054(89) 0.55481(68) 0.98012(19) 0.0375 Uiso
C13_9 C 0.44519(68) 0.43946(37) 0.98012(19) 0.0375 Uiso
O13_9 O 0.6081(14) 0.6427(11) 0.84503(42) 0.0214 Uiso
O14_9 O 0.3573(11) 0.39192(64) 0.84503(42) 0.0214 Uiso
O15_9 O 0.4948(19) 0.5052(14) 0.82987(54) 0.0214 Uiso
C20_9 C 0.4561(30) 0.5438(22) 0.81800(96) 0.0923 Uiso
O23_9 O 0.5592(18) 0.4408(14) 0.85494(62) 0.0214 Uiso
C24_9 C 0.5967(24) 0.4033(18) 0.87365(92) 0.0923 Uiso
H21_9 H 0.608595 0.59575 0.964767 . .
H23_9 H 0.485266 0.580515 0.7943 . .
H24_9 H 0.400803 0.504131 0.808906 . .
H25_9 H 0.453496 0.575401 0.842035 . .
H26_9 H 0.40425 0.391405 0.964767 . .
H30_9 H 0.607962 0.419871 0.903585 . .
H31_9 H 0.561106 0.344244 0.871986 . .
H32_9 H 0.64783 0.419002 0.858824 . .
C4_9 C 0.02759(56) 0.33333 0.83333 0.0375 Uiso
C5_9 C 0.10064(53) 0.33333 0.83333 0.0375 Uiso
C6_7 C 0.10416(37) 0.27424(33) 0.81922(34) 0.0375 Uiso
C15_9 C 0.30575(56) 0.33333 0.83333 0.0375 Uiso
C16_9 C 0.23270(53) 0.33333 0.83333 0.0375 Uiso
C17_7 C 0.17009(50) 0.27424(33) 0.81922(34) 0.0375 Uiso
C18_7 C 0.22918(37) 0.39242(33) 0.84744(34) 0.0375 Uiso
C19_7 C 0.16325(50) 0.39242(33) 0.84744(34) 0.0375 Uiso
H1_7 H 0.0550048 0.227185 0.807986 . .
H18_7 H 0.278329 0.439482 0.85868 . .
H20_7 H 0.17218 0.227185 0.807986 . .
H22_7 H 0.161153 0.439482 0.85868 . .
C8_7 C 0.9369(14) 0.3934(13) 0.76543(70) 0.0923 Uiso
C21_7 C 0.8768(19) 0.2732(13) 0.90123(70) 0.0923 Uiso
C22_7 C 0.9369(14) 0.5434(19) 0.76543(70) 0.0923 Uiso
C23_7 C 0.8768(19) 0.6035(14) 0.90123(70) 0.0923 Uiso
H2_13 H 0.996201 0.421344 0.762799 . .
H3_13 H 0.912088 0.354534 0.742011 . .
H4_13 H 0.918669 0.433429 0.764249 . .
H12_13 H 0.850519 0.294208 0.9202 . .
H13_13 H 0.840024 0.215055 0.896343 . .
H14_13 H 0.927108 0.28143 0.914398 . .
H15_13 H 0.918669 0.48524 0.764249 . .
H16_13 H 0.912088 0.557554 0.742011 . .
H17_13 H 0.996201 0.574856 0.762799 . .
H27_13 H 0.927108 0.645678 0.914398 . .
H28_13 H 0.840024 0.624969 0.896343 . .
H29_13 H 0.850519 0.556311 0.9202 . .
C4_10 C 0.66667 0.69425(56) 0.83333 0.0375 Uiso
C5_10 C 0.66667 0.76730(53) 0.83333 0.0375 Uiso
C6_8 C 0.72576(33) 0.82991(50) 0.81922(34) 0.0375 Uiso
C8_8 C 0.6066(13) 0.5434(19) 0.76543(70) 0.0923 Uiso
C15_10 C 0.66667 0.97241(56) 0.83333 0.0375 Uiso
C16_10 C 0.66667 0.89936(53) 0.83333 0.0375 Uiso
C17_8 C 0.72576(33) 0.89584(60) 0.81922(34) 0.0375 Uiso
C18_8 C 0.60758(33) 0.83675(50) 0.84744(34) 0.0375 Uiso
C19_8 C 0.60758(33) 0.77082(60) 0.84744(34) 0.0375 Uiso
C21_8 C 0.7268(13) 0.6035(23) 0.90123(70) 0.0923 Uiso
C22_8 C 0.4566(19) 0.3934(24) 0.76543(70) 0.0923 Uiso
C23_8 C 0.3965(14) 0.2732(24) 0.90123(70) 0.0923 Uiso
H1_8 H 0.772815 0.82782 0.807986 . .
H2_14 H 0.578656 0.574856 0.762799 . .
H3_14 H 0.645466 0.557554 0.742011 . .
H4_14 H 0.566571 0.48524 0.764249 . .
H12_14 H 0.705792 0.556311 0.9202 . .
H13_14 H 0.784945 0.624969 0.896343 . .
H14_14 H 0.71857 0.645678 0.914398 . .
H15_14 H 0.51476 0.433429 0.764249 . .
H16_14 H 0.442446 0.354534 0.742011 . .
H17_14 H 0.425144 0.421344 0.762799 . .
H18_8 H 0.560518 0.838847 0.85868 . .
H20_8 H 0.772815 0.944995 0.807986 . .
H22_8 H 0.560518 0.721671 0.85868 . .
H27_14 H 0.354322 0.28143 0.914398 . .
H28_14 H 0.375031 0.215055 0.896343 . .
H29_14 H 0.443689 0.294208 0.9202 . .
H2_15 H 0.754678 0.662868 0.903868 . .
H3_15 H 0.687867 0.578755 0.924656 . .
H4_15 H 0.766762 0.585336 0.902418 . .
H12_15 H 0.627541 0.517185 0.746467 . .
H13_15 H 0.548388 0.506691 0.770323 . .
H14_15 H 0.614763 0.593775 0.752268 . .
H15_15 H 0.818574 0.585336 0.902418 . .
H16_15 H 0.890888 0.578755 0.924656 . .
H17_15 H 0.90819 0.662868 0.903868 . .
H27_15 H 0.979012 0.593775 0.752268 . .
H28_15 H 0.958302 0.506691 0.770323 . .
H29_15 H 0.889644 0.517185 0.746467 . .
C8_9 C 0.4566(19) 0.0631(14) 0.76543(70) 0.0923 Uiso
C21_9 C 0.3965(23) 0.1232(19) 0.90123(70) 0.0923 Uiso
C22_9 C 0.6066(24) 0.0631(14) 0.76543(70) 0.0923 Uiso
C23_9 C 0.7268(24) 0.1232(19) 0.90123(70) 0.0923 Uiso
H2_16 H 0.425144 0.00379914 0.762799 . .
H3_16 H 0.442446 0.0879116 0.742011 . .
H4_16 H 0.51476 0.0813309 0.764249 . .
H12_16 H 0.443689 0.149481 0.9202 . .
H13_16 H 0.375031 0.159976 0.896343 . .
H14_16 H 0.354322 0.0728917 0.914398 . .
H15_16 H 0.566571 0.0813309 0.764249 . .
H16_16 H 0.645466 0.0879116 0.742011 . .
H17_16 H 0.578656 0.00379914 0.762799 . .
H27_16 H 0.71857 0.0728917 0.914398 . .
H28_16 H 0.784945 0.159976 0.896343 . .
H29_16 H 0.705792 0.149481 0.9202 . .
C4_11 C 0.30575(56) 0.97241(56) 0.83333 0.0375 Uiso
C5_11 C 0.23270(53) 0.89936(53) 0.83333 0.0375 Uiso
C6_9 C 0.17009(50) 0.89584(37) 0.81922(34) 0.0375 Uiso
C15_11 C 0.02759(56) 0.69425(56) 0.83333 0.0375 Uiso
C16_11 C 0.10064(53) 0.76730(53) 0.83333 0.0375 Uiso
C17_9 C 0.10416(60) 0.82991(50) 0.81922(34) 0.0375 Uiso
C18_9 C 0.16325(50) 0.77082(37) 0.84744(34) 0.0375 Uiso
C19_9 C 0.22918(60) 0.83675(50) 0.84744(34) 0.0375 Uiso
H1_9 H 0.17218 0.944995 0.807986 . .
H18_9 H 0.161153 0.721671 0.85868 . .
H20_9 H 0.0550048 0.82782 0.807986 . .
H22_9 H 0.278329 0.838847 0.85868 . .
H2_17 H 0.337132 0.0918102 0.903868 . .
H3_17 H 0.421245 0.109112 0.924656 . .
H4_17 H 0.414664 0.181426 0.902418 . .
H12_17 H 0.482815 0.110356 0.746467 . .
H13_17 H 0.493309 0.0416976 0.770323 . .
H14_17 H 0.406225 0.0209882 0.752268 . .
H15_17 H 0.414664 0.233238 0.902418 . .
H16_17 H 0.421245 0.312133 0.924656 . .
H17_17 H 0.337132 0.245322 0.903868 . .
H27_17 H 0.406225 0.385237 0.752268 . .
H28_17 H 0.493309 0.451612 0.770323 . .
H29_17 H 0.482815 0.372459 0.746467 . .
H2_18 H 0.90819 0.245322 0.903868 . .
H3_18 H 0.890888 0.312133 0.924656 . .
H4_18 H 0.818574 0.233238 0.902418 . .
H12_18 H 0.889644 0.372459 0.746467 . .
H13_18 H 0.958302 0.451612 0.770323 . .
H14_18 H 0.979012 0.385237 0.752268 . .
H15_18 H 0.766762 0.181426 0.902418 . .
H16_18 H 0.687867 0.109112 0.924656 . .
H17_18 H 0.754678 0.0918102 0.903868 . .
H27_18 H 0.614763 0.0209882 0.752268 . .
H28_18 H 0.548388 0.0416976 0.770323 . .
H29_18 H 0.627541 0.110356 0.746467 . .
H5_10 H 0.571417 0.818599 0.539034 . .
H6_10 H 0.563339 0.734136 0.524428 . .
H7_10 H 0.544763 0.78683 0.491298 . .
H8_10 H 0.854758 0.941295 0.429749 . .
H9_10 H 0.883529 0.89444 0.461348 . .
H10_10 H 0.895494 0.981163 0.474509 . .
H23_10 H 0.761916 0.913849 0.127633 . .
H24_10 H 0.769995 0.837464 0.142239 . .
H25_10 H 0.788571 0.908734 0.175369 . .
H30_10 H 0.478576 0.753204 0.236918 . .
H31_10 H 0.449804 0.677577 0.205319 . .
H32_10 H 0.437839 0.752336 0.192157 . .
H5_11 H 0.181401 0.752818 0.539034 . .
H6_11 H 0.265864 0.829203 0.524428 . .
H7_11 H 0.21317 0.757933 0.491298 . .
H8_11 H 0.0587052 0.913463 0.429749 . .
H9_11 H 0.10556 0.989089 0.461348 . .
H10_11 H 0.0188369 0.914331 0.474509 . .
H23_11 H 0.0861514 0.848068 0.127633 . .
H24_11 H 0.162536 0.932531 0.142239 . .
H25_11 H 0.0912662 0.879837 0.175369 . .
H30_11 H 0.246796 0.725372 0.236918 . .
H31_11 H 0.322423 0.772227 0.205319 . .
H32_11 H 0.247664 0.685504 0.192157 . .
H5_12 H 0.818599 0.571417 0.460966 . .
H6_12 H 0.734136 0.563339 0.475572 . .
H7_12 H 0.78683 0.544763 0.508702 . .
H8_12 H 0.941295 0.854758 0.570251 . .
H9_12 H 0.89444 0.883529 0.538652 . .
H10_12 H 0.981163 0.895494 0.525491 . .
H23_12 H 0.913849 0.761916 0.872367 . .
H24_12 H 0.837464 0.769995 0.857761 . .
H25_12 H 0.908734 0.788571 0.824631 . .
H30_12 H 0.753204 0.478576 0.763082 . .
H31_12 H 0.677577 0.449804 0.794681 . .
H32_12 H 0.752336 0.437839 0.807843 . .
H5_13 H 0.247182 0.428583 0.539034 . .
H6_13 H 0.170797 0.436661 0.524428 . .
H7_13 H 0.242067 0.455237 0.491298 . .
H8_13 H 0.0865372 0.145242 0.429749 . .
H9_13 H 0.0109106 0.116471 0.461348 . .
H10_13 H 0.0856691 0.104506 0.474509 . .
H23_13 H 0.151932 0.238084 0.127633 . .
H24_13 H 0.0674694 0.230005 0.142239 . .
H25_13 H 0.120163 0.211429 0.175369 . .
H30_13 H 0.274628 0.521424 0.236918 . .
H31_13 H 0.227773 0.550196 0.205319 . .
H32_13 H 0.314496 0.562161 0.192157 . .
H5_14 H 0.428583 0.247182 0.460966 . .
H6_14 H 0.436661 0.170797 0.475572 . .
H7_14 H 0.455237 0.242067 0.508702 . .
H8_14 H 0.145242 0.0865372 0.570251 . .
H9_14 H 0.116471 0.0109106 0.538652 . .
H10_14 H 0.104506 0.0856691 0.525491 . .
H23_14 H 0.238084 0.151932 0.872367 . .
H24_14 H 0.230005 0.0674694 0.857761 . .
H25_14 H 0.211429 0.120163 0.824631 . .
H30_14 H 0.521424 0.274628 0.763082 . .
H31_14 H 0.550196 0.227773 0.794681 . .
H32_14 H 0.562161 0.314496 0.807843 . .
H5_15 H 0.752818 0.181401 0.460966 . .
H6_15 H 0.829203 0.265864 0.475572 . .
H7_15 H 0.757933 0.21317 0.508702 . .
H8_15 H 0.913463 0.0587052 0.570251 . .
H9_15 H 0.989089 0.10556 0.538652 . .
H10_15 H 0.914331 0.0188369 0.525491 . .
H23_15 H 0.848068 0.0861514 0.872367 . .
H24_15 H 0.932531 0.162536 0.857761 . .
H25_15 H 0.879837 0.0912662 0.824631 . .
H30_15 H 0.725372 0.246796 0.763082 . .
H31_15 H 0.772227 0.322423 0.794681 . .
H32_15 H 0.685504 0.247664 0.807843 . .
H23_16 H 0.580515 0.0952497 0.2057 . .
H24_16 H 0.504131 0.103328 0.191094 . .
H25_16 H 0.575401 0.121904 0.157965 . .
H8_16 H 0.607962 0.188091 0.903585 . .
H9_16 H 0.561106 0.216862 0.871986 . .
H10_16 H 0.64783 0.228827 0.858824 . .
H30_16 H 0.419871 0.811909 0.0964152 . .
H31_16 H 0.344244 0.783138 0.128014 . .
H32_16 H 0.419002 0.771173 0.141176 . .
H5_16 H 0.485266 0.90475 0.7943 . .
H6_16 H 0.400803 0.896672 0.808906 . .
H7_16 H 0.453496 0.878096 0.842035 . .
H30_17 H 0.188091 0.607962 0.0964152 . .
H31_17 H 0.216862 0.561106 0.128014 . .
H32_17 H 0.228827 0.64783 0.141176 . .
H5_17 H 0.0952497 0.580515 0.7943 . .
H6_17 H 0.103328 0.504131 0.808906 . .
H7_17 H 0.121904 0.575401 0.842035 . .
H23_17 H 0.90475 0.485266 0.2057 . .
H24_17 H 0.896672 0.400803 0.191094 . .
H25_17 H 0.878096 0.453496 0.157965 . .
H8_17 H 0.811909 0.419871 0.903585 . .
H9_17 H 0.783138 0.344244 0.871986 . .
H10_17 H 0.771173 0.419002 0.858824 . .
H23_18 H 0.514734 0.419485 0.2057 . .
H24_18 H 0.599197 0.495869 0.191094 . .
H25_18 H 0.546504 0.424599 0.157965 . .
H30_18 H 0.392038 0.580129 0.0964152 . .
H31_18 H 0.438894 0.655756 0.128014 . .
H32_18 H 0.35217 0.580998 0.141176 . .
H5_18 H 0.419485 0.514734 0.7943 . .
H6_18 H 0.495869 0.599197 0.808906 . .
H7_18 H 0.424599 0.546504 0.842035 . .
H8_18 H 0.580129 0.392038 0.903585 . .
H9_18 H 0.655756 0.438894 0.871986 . .
H10_18 H 0.580998 0.35217 0.858824 . .
loop_
_geom_bond_atom_site_label_1
_geom_bond_atom_site_label_2
_geom_bond_site_symmetry_1
_geom_bond_site_symmetry_2
Al1 O1 1_555 1_555
O1 C1 1_555 1_555
C1 C2 1_555 1_555
C2 C3 1_555 1_555
C3 C12 1_555 1_555
O2 Al1 1_555 1_555
C4 O2 1_555 1_555
C5 C4 1_555 1_555
O3 Al1 1_555 1_555
C7 O3 1_555 1_555
O4 Al1 1_555 1_555
C8 O4 1_555 1_555
O5 Al1 1_555 1_555
C9 O5 1_555 1_555
Al2 O3 1_555 1_555
Al3 O7 1_555 1_555
Al4 O8 1_555 1_555
Al6 O10 1_555 1_555
Al8 O17 1_555 1_555
O6 C1 1_555 1_555
O7 C10 1_555 1_555
O8 C10 1_555 1_555
C10 C11 1_555 1_555
C11 C12 1_555 1_555
C13 C11 1_555 1_555
C14 C2 1_555 1_555
O10 C15 1_555 1_555
O12 Al2 1_555 1_555
O13 Al3 1_555 1_555
O14 Al4 1_555 1_555
C15 C16 1_555 1_555
C18 C16 1_555 1_555
C19 C5 1_555 1_555
O15 Al3 1_555 1_555
C20 O15 1_555 1_555
O17 Al2 1_555 1_555
O18 Al2 1_555 1_555
O19 Al3 1_555 1_555
O20 Al3 1_555 1_555
O21 Al4 1_555 1_555
O22 Al4 1_555 1_555
C22 O17 1_555 1_555
C23 O18 1_555 1_555
O23 Al3 1_555 1_555
C24 O23 1_555 1_555
O5 Al2 1_555 1_555
Al2 O6 1_555 1_555
Al4 O15 1_555 1_555
Al4 O23 1_555 1_555
Al8 O18 1_555 1_555
C13 C14 1_555 1_555
C18 C19 1_555 1_555
C8 H2 1_555 1_555
C8 H3 1_555 1_555
C8 H4 1_555 1_555
C7 H5 1_555 1_555
C7 H6 1_555 1_555
C7 H7 1_555 1_555
C9 H8 1_555 1_555
C9 H9 1_555 1_555
C9 H10 1_555 1_555
C3 H11 1_555 1_555
C22 H15 1_555 1_555
C22 H16 1_555 1_555
C22 H17 1_555 1_555
C18 H18 1_555 1_555
C14 H19 1_555 1_555
C12 H21 1_555 1_555
C19 H22 1_555 1_555
C20 H23 1_555 1_555
C20 H24 1_555 1_555
C20 H25 1_555 1_555
C13 H26 1_555 1_555
C23 H27 1_555 1_555
C23 H28 1_555 1_555
C23 H29 1_555 1_555
C24 H30 1_555 1_555
C24 H31 1_555 1_555
C24 H32 1_555 1_555
C5_2 C4_2 1_555 1_555
C6 C5_2 1_555 1_555
Al7 O11 1_555 1_555
O9 C4_2 1_555 1_555
O11 C15_2 1_555 1_555
C15_2 C16_2 1_555 1_555
C16_2 C17 1_555 1_555
C17 C6 1_555 1_555
C21 O16 1_555 1_555
Al5 O9 1_555 1_555
Al5 O16 1_555 1_555
C6 H1 1_555 1_555
C21 H12 1_555 1_555
C21 H13 1_555 1_555
C21 H14 1_555 1_555
C17 H20 1_555 1_555
C5_3 C4_3 1_555 1_555
C6_2 C5_3 1_555 1_555
Al7_2 O11_2 1_555 1_555
O9_2 C4_3 1_555 1_555
O11_2 C15_3 1_555 1_555
C15_3 C16_3 1_555 1_555
C16_3 C17_2 1_555 1_555
C17_2 C6_2 1_555 1_555
C21_2 O16_2 1_555 1_555
Al5_2 O9_2 1_555 1_555
Al5_2 O16_2 1_555 1_555
C6_2 H1_2 1_555 1_555
C21_2 H12_2 1_555 1_555
C21_2 H13_2 1_555 1_555
C21_2 H14_2 1_555 1_555
C17_2 H20_2 1_555 1_555
Al1_2 O1_2 1_555 1_555
O1_2 C1_2 1_555 1_555
C1_2 C2_2 1_555 1_555
C2_2 C3_2 1_555 1_555
C3_2 C12_2 1_555 1_555
O2_2 Al1_2 1_555 1_555
C4_4 O2_2 1_555 1_555
C5_4 C4_4 1_555 1_555
O3_2 Al1_2 1_555 1_555
C7_2 O3_2 1_555 1_555
O4_2 Al1_2 1_555 1_555
C8_2 O4_2 1_555 1_555
O5_2 Al1_2 1_555 1_555
C9_2 O5_2 1_555 1_555
Al6 O3_2 1_555 1_555
Al3_2 O7_2 1_555 1_555
Al4_2 O8_2 1_555 1_555
Al6_2 O10_2 1_555 1_555
O6_2 C1_2 1_555 1_555
O7_2 C10_2 1_555 1_555
O8_2 C10_2 1_555 1_555
C10_2 C11_2 1_555 1_555
C11_2 C12_2 1_555 1_555
C13_2 C11_2 1_555 1_555
C14_2 C2_2 1_555 1_555
O10_2 C15_4 1_555 1_555
O13_2 Al3_2 1_555 1_555
O14_2 Al4_2 1_555 1_555
C15_4 C16_4 1_555 1_555
C18_2 C16_4 1_555 1_555
C19_2 C5_4 1_555 1_555
O15_2 Al3_2 1_555 1_555
C20_2 O15_2 1_555 1_555
O17_2 Al6 1_555 1_555
O19_2 Al3_2 1_555 1_555
O20_2 Al3_2 1_555 1_555
O21_2 Al4_2 1_555 1_555
O22_2 Al4_2 1_555 1_555
C22_2 O17_2 1_555 1_555
O23_2 Al3_2 1_555 1_555
C24_2 O23_2 1_555 1_555
O5_2 Al6 1_555 1_555
Al6 O6_2 1_555 1_555
Al4_2 O15_2 1_555 1_555
Al4_2 O23_2 1_555 1_555
C13_2 C14_2 1_555 1_555
C18_2 C19_2 1_555 1_555
C8_2 H2_2 1_555 1_555
C8_2 H3_2 1_555 1_555
C8_2 H4_2 1_555 1_555
C7_2 H5_2 1_555 1_555
C7_2 H6_2 1_555 1_555
C7_2 H7_2 1_555 1_555
C9_2 H8_2 1_555 1_555
C9_2 H9_2 1_555 1_555
C9_2 H10_2 1_555 1_555
C3_2 H11_2 1_555 1_555
C22_2 H15_2 1_555 1_555
C22_2 H16_2 1_555 1_555
C22_2 H17_2 1_555 1_555
C18_2 H18_2 1_555 1_555
C14_2 H19_2 1_555 1_555
C12_2 H21_2 1_555 1_555
C19_2 H22_2 1_555 1_555
C20_2 H23_2 1_555 1_555
C20_2 H24_2 1_555 1_555
C20_2 H25_2 1_555 1_555
C13_2 H26_2 1_555 1_555
C24_2 H30_2 1_555 1_555
C24_2 H31_2 1_555 1_555
C24_2 H32_2 1_555 1_555
C23_2 O18_2 1_555 1_555
Al7 O18_2 1_555 1_555
C23_2 H27_2 1_555 1_555
C23_2 H28_2 1_555 1_555
C23_2 H29_2 1_555 1_555
Al5_2 O1_3 1_555 1_555
O1_3 C1_3 1_555 1_555
C1_3 C2_3 1_555 1_555
C2_3 C3_3 1_555 1_555
C3_3 C12_3 1_555 1_555
O3_3 Al5_2 1_555 1_555
C7_3 O3_3 1_555 1_555
O5_3 Al5_2 1_555 1_555
C9_3 O5_3 1_555 1_555
Al8 O3_3 1_555 1_555
Al3_3 O7_3 1_555 1_555
Al4_3 O8_3 1_555 1_555
O6_3 C1_3 1_555 1_555
O7_3 C10_3 1_555 1_555
O8_3 C10_3 1_555 1_555
C10_3 C11_3 1_555 1_555
C11_3 C12_3 1_555 1_555
C13_3 C11_3 1_555 1_555
C14_3 C2_3 1_555 1_555
O12_2 Al8 1_555 1_555
O13_3 Al3_3 1_555 1_555
O14_3 Al4_3 1_555 1_555
O15_3 Al3_3 1_555 1_555
C20_3 O15_3 1_555 1_555
O19_3 Al3_3 1_555 1_555
O20_3 Al3_3 1_555 1_555
O21_3 Al4_3 1_555 1_555
O22_3 Al4_3 1_555 1_555
O23_3 Al3_3 1_555 1_555
C24_3 O23_3 1_555 1_555
O5_3 Al8 1_555 1_555
Al8 O6_3 1_555 1_555
Al4_3 O15_3 1_555 1_555
Al4_3 O23_3 1_555 1_555
C13_3 C14_3 1_555 1_555
C21_2 H2_3 1_555 1_555
C21_2 H3_3 1_555 1_555
C21_2 H4_3 1_555 1_555
C7_3 H5_3 1_555 1_555
C7_3 H6_3 1_555 1_555
C7_3 H7_3 1_555 1_555
C9_3 H8_3 1_555 1_555
C9_3 H9_3 1_555 1_555
C9_3 H10_3 1_555 1_555
C3_3 H11_3 1_555 1_555
C23 H15_3 1_555 1_555
C23 H16_3 1_555 1_555
C23 H17_3 1_555 1_555
C14_3 H19_3 1_555 1_555
C12_3 H21_3 1_555 1_555
C20_3 H23_3 1_555 1_555
C20_3 H24_3 1_555 1_555
C20_3 H25_3 1_555 1_555
C13_3 H26_3 1_555 1_555
C22 H27_3 1_555 1_555
C22 H28_3 1_555 1_555
C22 H29_3 1_555 1_555
C24_3 H30_3 1_555 1_555
C24_3 H31_3 1_555 1_555
C24_3 H32_3 1_555 1_555
C8_2 H12_3 1_555 1_555
C8_2 H13_3 1_555 1_555
C8_2 H14_3 1_555 1_555
C23_3 O18_3 1_555 1_555
Al7_2 O18_3 1_555 1_555
C23_3 H27_4 1_555 1_555
C23_3 H28_4 1_555 1_555
C23_3 H29_4 1_555 1_555
Al1_3 O1_4 1_555 1_555
O1_4 C1_4 1_555 1_555
C1_4 C2_4 1_555 1_555
C2_4 C3_4 1_555 1_555
C3_4 C12_4 1_555 1_555
O2_3 Al1_3 1_555 1_555
C4_5 O2_3 1_555 1_555
C5_5 C4_5 1_555 1_555
C6_3 C5_5 1_555 1_555
O3_4 Al1_3 1_555 1_555
C7_4 O3_4 1_555 1_555
O4_3 Al1_3 1_555 1_555
C8_3 O4_3 1_555 1_555
O5_4 Al1_3 1_555 1_555
C9_4 O5_4 1_555 1_555
Al6_2 O3_4 1_555 1_555
Al3_4 O7_4 1_555 1_555
Al4_4 O8_4 1_555 1_555
Al5_3 O4_3 1_555 1_555
O6_4 C1_4 1_555 1_555
O7_4 C10_4 1_555 1_555
O8_4 C10_4 1_555 1_555
C10_4 C11_4 1_555 1_555
C11_4 C12_4 1_555 1_555
C13_4 C11_4 1_555 1_555
C14_4 C2_4 1_555 1_555
O9_3 C4_5 1_555 1_555
O12 C15_5 1_555 1_555
O12_2 C15_5 1_555 1_555
O13_4 Al3_4 1_555 1_555
O14_4 Al4_4 1_555 1_555
C15_5 C16_5 1_555 1_555
C16_5 C17_3 1_555 1_555
C17_3 C6_3 1_555 1_555
C18_3 C16_5 1_555 1_555
C19_3 C5_5 1_555 1_555
O15_4 Al3_4 1_555 1_555
C20_4 O15_4 1_555 1_555
O16_3 Al1_3 1_555 1_555
O17_3 Al6_2 1_555 1_555
O19_4 Al3_4 1_555 1_555
O20_4 Al3_4 1_555 1_555
O21_4 Al4_4 1_555 1_555
O22_4 Al4_4 1_555 1_555
C21_3 O16_3 1_555 1_555
C22_3 O17_3 1_555 1_555
O23_4 Al3_4 1_555 1_555
C24_4 O23_4 1_555 1_555
O5_4 Al6_2 1_555 1_555
Al6_2 O6_4 1_555 1_555
Al4_4 O15_4 1_555 1_555
Al4_4 O23_4 1_555 1_555
Al5_3 O9_3 1_555 1_555
Al5_3 O16_3 1_555 1_555
C13_4 C14_4 1_555 1_555
C18_3 C19_3 1_555 1_555
C6_3 H1_3 1_555 1_555
C8_3 H2_4 1_555 1_555
C8_3 H3_4 1_555 1_555
C8_3 H4_4 1_555 1_555
C7_4 H5_4 1_555 1_555
C7_4 H6_4 1_555 1_555
C7_4 H7_4 1_555 1_555
C9_4 H8_4 1_555 1_555
C9_4 H9_4 1_555 1_555
C9_4 H10_4 1_555 1_555
C3_4 H11_4 1_555 1_555
C21_3 H12_4 1_555 1_555
C21_3 H13_4 1_555 1_555
C21_3 H14_4 1_555 1_555
C22_3 H15_4 1_555 1_555
C22_3 H16_4 1_555 1_555
C22_3 H17_4 1_555 1_555
C18_3 H18_3 1_555 1_555
C14_4 H19_4 1_555 1_555
C17_3 H20_3 1_555 1_555
C12_4 H21_4 1_555 1_555
C19_3 H22_3 1_555 1_555
C20_4 H23_4 1_555 1_555
C20_4 H24_4 1_555 1_555
C20_4 H25_4 1_555 1_555
C13_4 H26_4 1_555 1_555
C24_4 H30_4 1_555 1_555
C24_4 H31_4 1_555 1_555
C24_4 H32_4 1_555 1_555
C22_2 H27_5 1_555 1_555
C22_2 H28_5 1_555 1_555
C22_2 H29_5 1_555 1_555
Al5_3 O1_5 1_555 1_555
O1_5 C1_5 1_555 1_555
C1_5 C2_5 1_555 1_555
C2_5 C3_5 1_555 1_555
C3_5 C12_5 1_555 1_555
O3_5 Al5_3 1_555 1_555
C7_5 O3_5 1_555 1_555
O5_5 Al5_3 1_555 1_555
C9_5 O5_5 1_555 1_555
Al7 O3_5 1_555 1_555
Al3_5 O7_5 1_555 1_555
Al4_5 O8_5 1_555 1_555
O6_5 C1_5 1_555 1_555
O7_5 C10_5 1_555 1_555
O8_5 C10_5 1_555 1_555
C10_5 C11_5 1_555 1_555
C11_5 C12_5 1_555 1_555
C13_5 C11_5 1_555 1_555
C14_5 C2_5 1_555 1_555
O13_5 Al3_5 1_555 1_555
O14_5 Al4_5 1_555 1_555
O15_5 Al3_5 1_555 1_555
C20_5 O15_5 1_555 1_555
O19_5 Al3_5 1_555 1_555
O20_5 Al3_5 1_555 1_555
O21_5 Al4_5 1_555 1_555
O22_5 Al4_5 1_555 1_555
O23_5 Al3_5 1_555 1_555
C24_5 O23_5 1_555 1_555
O5_5 Al7 1_555 1_555
Al7 O6_5 1_555 1_555
Al4_5 O15_5 1_555 1_555
Al4_5 O23_5 1_555 1_555
C13_5 C14_5 1_555 1_555
C21_3 H2_5 1_555 1_555
C21_3 H3_5 1_555 1_555
C21_3 H4_5 1_555 1_555
C7_5 H5_5 1_555 1_555
C7_5 H6_5 1_555 1_555
C7_5 H7_5 1_555 1_555
C9_5 H8_5 1_555 1_555
C9_5 H9_5 1_555 1_555
C9_5 H10_5 1_555 1_555
C3_5 H11_5 1_555 1_555
C8_3 H12_5 1_555 1_555
C8_3 H13_5 1_555 1_555
C8_3 H14_5 1_555 1_555
C23_2 H15_5 1_555 1_555
C23_2 H16_5 1_555 1_555
C23_2 H17_5 1_555 1_555
C14_5 H19_5 1_555 1_555
C12_5 H21_5 1_555 1_555
C20_5 H23_5 1_555 1_555
C20_5 H24_5 1_555 1_555
C20_5 H25_5 1_555 1_555
C13_5 H26_5 1_555 1_555
C24_5 H30_5 1_555 1_555
C24_5 H31_5 1_555 1_555
C24_5 H32_5 1_555 1_555
C8 H12_6 1_555 1_555
C8 H13_6 1_555 1_555
C8 H14_6 1_555 1_555
Al5 O1_6 1_555 1_555
O1_6 C1_6 1_555 1_555
C1_6 C2_6 1_555 1_555
C2_6 C3_6 1_555 1_555
C3_6 C12_6 1_555 1_555
O3_6 Al5 1_555 1_555
C7_6 O3_6 1_555 1_555
O5_6 Al5 1_555 1_555
C9_6 O5_6 1_555 1_555
Al7_2 O3_6 1_555 1_555
Al3_6 O7_6 1_555 1_555
Al4_6 O8_6 1_555 1_555
O6_6 C1_6 1_555 1_555
O7_6 C10_6 1_555 1_555
O8_6 C10_6 1_555 1_555
C10_6 C11_6 1_555 1_555
C11_6 C12_6 1_555 1_555
C13_6 C11_6 1_555 1_555
C14_6 C2_6 1_555 1_555
O13_6 Al3_6 1_555 1_555
O14_6 Al4_6 1_555 1_555
O15_6 Al3_6 1_555 1_555
C20_6 O15_6 1_555 1_555
O19_6 Al3_6 1_555 1_555
O20_6 Al3_6 1_555 1_555
O21_6 Al4_6 1_555 1_555
O22_6 Al4_6 1_555 1_555
O23_6 Al3_6 1_555 1_555
C24_6 O23_6 1_555 1_555
O5_6 Al7_2 1_555 1_555
Al7_2 O6_6 1_555 1_555
Al4_6 O15_6 1_555 1_555
Al4_6 O23_6 1_555 1_555
C13_6 C14_6 1_555 1_555
C21 H2_6 1_555 1_555
C21 H3_6 1_555 1_555
C21 H4_6 1_555 1_555
C7_6 H5_6 1_555 1_555
C7_6 H6_6 1_555 1_555
C7_6 H7_6 1_555 1_555
C9_6 H8_6 1_555 1_555
C9_6 H9_6 1_555 1_555
C9_6 H10_6 1_555 1_555
C3_6 H11_6 1_555 1_555
C23_3 H15_6 1_555 1_555
C23_3 H16_6 1_555 1_555
C23_3 H17_6 1_555 1_555
C14_6 H19_6 1_555 1_555
C12_6 H21_6 1_555 1_555
C20_6 H23_6 1_555 1_555
C20_6 H24_6 1_555 1_555
C20_6 H25_6 1_555 1_555
C13_6 H26_6 1_555 1_555
C24_6 H30_6 1_555 1_555
C24_6 H31_6 1_555 1_555
C24_6 H32_6 1_555 1_555
C22_3 H27_6 1_555 1_555
C22_3 H28_6 1_555 1_555
C22_3 H29_6 1_555 1_555
C4_6 O13_5 1_555 1_555
C5_6 C4_6 1_555 1_555
C6_4 C5_6 1_555 1_555
C8_4 O19_5 1_555 1_555
Al5_4 O19_5 1_555 1_555
Al8_2 O21_5 1_555 1_555
O9_4 C4_6 1_555 1_555
O11_3 C15_6 1_555 1_555
C15_6 C16_6 1_555 1_555
C16_6 C17_4 1_555 1_555
C17_4 C6_4 1_555 1_555
C18_4 C16_6 1_555 1_555
C19_4 C5_6 1_555 1_555
C21_4 O20_5 1_555 1_555
C22_4 O21_5 1_555 1_555
C23_4 O22_5 1_555 1_555
Al5_4 O9_4 1_555 1_555
Al5_4 O20_5 1_555 1_555
Al8_2 O22_5 1_555 1_555
C18_4 C19_4 1_555 1_555
C6_4 H1_4 1_555 1_555
C8_4 H2_7 1_555 1_555
C8_4 H3_7 1_555 1_555
C8_4 H4_7 1_555 1_555
C21_4 H12_7 1_555 1_555
C21_4 H13_7 1_555 1_555
C21_4 H14_7 1_555 1_555
C22_4 H15_7 1_555 1_555
C22_4 H16_7 1_555 1_555
C22_4 H17_7 1_555 1_555
C18_4 H18_4 1_555 1_555
C17_4 H20_4 1_555 1_555
C19_4 H22_4 1_555 1_555
C23_4 H27_7 1_555 1_555
C23_4 H28_7 1_555 1_555
C23_4 H29_7 1_555 1_555
C5_7 C4_7 1_555 1_555
C6_5 C5_7 1_555 1_555
Al7_4 O11_4 1_555 1_555
O9_5 C4_7 1_555 1_555
O14_3 C15_7 1_555 1_555
O11_4 C15_7 1_555 1_555
C15_7 C16_7 1_555 1_555
C16_7 C17_5 1_555 1_555
C17_5 C6_5 1_555 1_555
C18_5 C16_7 1_555 1_555
C19_5 C5_7 1_555 1_555
C18_5 C19_5 1_555 1_555
C6_5 H1_5 1_555 1_555
C18_5 H18_5 1_555 1_555
C17_5 H20_5 1_555 1_555
C19_5 H22_5 1_555 1_555
C8_5 O19_6 1_555 1_555
Al5_5 O19_6 1_555 1_555
Al7_3 O21_6 1_555 1_555
C21_5 O20_6 1_555 1_555
C22_5 O21_6 1_555 1_555
C23_5 O22_6 1_555 1_555
Al5_5 O20_6 1_555 1_555
Al7_3 O22_6 1_555 1_555
C8_5 H2_8 1_555 1_555
C8_5 H3_8 1_555 1_555
C8_5 H4_8 1_555 1_555
C21_5 H12_8 1_555 1_555
C21_5 H13_8 1_555 1_555
C21_5 H14_8 1_555 1_555
C22_5 H15_8 1_555 1_555
C22_5 H16_8 1_555 1_555
C22_5 H17_8 1_555 1_555
C23_5 H27_8 1_555 1_555
C23_5 H28_8 1_555 1_555
C23_5 H29_8 1_555 1_555
C7_7 O3_7 1_555 1_555
C7_7 H5_7 1_555 1_555
C7_7 H6_7 1_555 1_555
C7_7 H7_7 1_555 1_555
Al3_7 O7_7 1_555 1_555
Al4_7 O8_7 1_555 1_555
O7_7 C10_7 1_555 1_555
O8_7 C10_7 1_555 1_555
C10_7 C11_7 1_555 1_555
C11_7 C12_7 1_555 1_555
C13_7 C11_7 1_555 1_555
O20 Al3_7 1_555 1_555
O19 Al3_7 1_555 1_555
O22_2 Al4_7 1_555 1_555
O21_2 Al4_7 1_555 1_555
O23_7 Al3_7 1_555 1_555
C24_7 O23_7 1_555 1_555
Al4_7 O23_7 1_555 1_555
C12_7 H21_7 1_555 1_555
C13_7 H26_7 1_555 1_555
C24_7 H30_7 1_555 1_555
C24_7 H31_7 1_555 1_555
C24_7 H32_7 1_555 1_555
Al5_5 O1_7 1_555 1_555
O1_7 C1_7 1_555 1_555
C1_7 C2_7 1_555 1_555
C2_7 C3_7 1_555 1_555
O5_7 Al5_5 1_555 1_555
C9_7 O5_7 1_555 1_555
O6_7 C1_7 1_555 1_555
C14_7 C2_7 1_555 1_555
O5_7 Al8_2 1_555 1_555
Al8_2 O6_7 1_555 1_555
C21_5 H2_9 1_555 1_555
C21_5 H3_9 1_555 1_555
C21_5 H4_9 1_555 1_555
C9_7 H8_7 1_555 1_555
C9_7 H9_7 1_555 1_555
C9_7 H10_7 1_555 1_555
C3_7 H11_7 1_555 1_555
C8_5 H12_9 1_555 1_555
C8_5 H13_9 1_555 1_555
C8_5 H14_9 1_555 1_555
C23_4 H15_9 1_555 1_555
C23_4 H16_9 1_555 1_555
C23_4 H17_9 1_555 1_555
C14_7 H19_7 1_555 1_555
C22_4 H27_9 1_555 1_555
C22_4 H28_9 1_555 1_555
C22_4 H29_9 1_555 1_555
C20_7 O15_7 1_555 1_555
C20_7 H23_7 1_555 1_555
C20_7 H24_7 1_555 1_555
C20_7 H25_7 1_555 1_555
C8_6 O19_3 1_555 1_555
Al5_6 O19_3 1_555 1_555
Al7_4 O21_3 1_555 1_555
C21_6 O20_3 1_555 1_555
C22_6 O21_3 1_555 1_555
C23_6 O22_3 1_555 1_555
Al5_6 O20_3 1_555 1_555
Al7_4 O22_3 1_555 1_555
C8_6 H2_10 1_555 1_555
C8_6 H3_10 1_555 1_555
C8_6 H4_10 1_555 1_555
C21_6 H12_10 1_555 1_555
C21_6 H13_10 1_555 1_555
C21_6 H14_10 1_555 1_555
C22_6 H15_10 1_555 1_555
C22_6 H16_10 1_555 1_555
C22_6 H17_10 1_555 1_555
C23_6 H27_10 1_555 1_555
C23_6 H28_10 1_555 1_555
C23_6 H29_10 1_555 1_555
C5_8 C4_8 1_555 1_555
C6_6 C5_8 1_555 1_555
O9_6 C4_8 1_555 1_555
O12_3 C15_8 1_555 1_555
C15_8 C16_8 1_555 1_555
C16_8 C17_6 1_555 1_555
C17_6 C6_6 1_555 1_555
C18_6 C16_8 1_555 1_555
C19_6 C5_8 1_555 1_555
C18_6 C19_6 1_555 1_555
C6_6 H1_6 1_555 1_555
C18_6 H18_6 1_555 1_555
C17_6 H20_6 1_555 1_555
C19_6 H22_6 1_555 1_555
Al5_6 O1_8 1_555 1_555
O1_8 C1_8 1_555 1_555
C1_8 C2_8 1_555 1_555
C2_8 C3_8 1_555 1_555
O5_8 Al5_6 1_555 1_555
C9_8 O5_8 1_555 1_555
O6_8 C1_8 1_555 1_555
C14_8 C2_8 1_555 1_555
O5_8 Al7_3 1_555 1_555
Al7_3 O6_8 1_555 1_555
C21_6 H2_11 1_555 1_555
C21_6 H3_11 1_555 1_555
C21_6 H4_11 1_555 1_555
C9_8 H8_8 1_555 1_555
C9_8 H9_8 1_555 1_555
C9_8 H10_8 1_555 1_555
C3_8 H11_8 1_555 1_555
C8_6 H12_11 1_555 1_555
C8_6 H13_11 1_555 1_555
C8_6 H14_11 1_555 1_555
C23_5 H15_11 1_555 1_555
C23_5 H16_11 1_555 1_555
C23_5 H17_11 1_555 1_555
C14_8 H19_8 1_555 1_555
C22_5 H27_11 1_555 1_555
C22_5 H28_11 1_555 1_555
C22_5 H29_11 1_555 1_555
C20_8 O15_8 1_555 1_555
C20_8 H23_8 1_555 1_555
C20_8 H24_8 1_555 1_555
C20_8 H25_8 1_555 1_555
C7_8 O3_8 1_555 1_555
C7_8 H5_8 1_555 1_555
C7_8 H6_8 1_555 1_555
C7_8 H7_8 1_555 1_555
Al3_8 O7_8 1_555 1_555
Al4_8 O8_8 1_555 1_555
O7_8 C10_8 1_555 1_555
O8_8 C10_8 1_555 1_555
C10_8 C11_8 1_555 1_555
C11_8 C12_8 1_555 1_555
C13_8 C11_8 1_555 1_555
O20_2 Al3_8 1_555 1_555
O19_2 Al3_8 1_555 1_555
O22_4 Al4_8 1_555 1_555
O21_4 Al4_8 1_555 1_555
O23_8 Al3_8 1_555 1_555
C24_8 O23_8 1_555 1_555
Al4_8 O23_8 1_555 1_555
C12_8 H21_8 1_555 1_555
C13_8 H26_8 1_555 1_555
C24_8 H30_8 1_555 1_555
C24_8 H31_8 1_555 1_555
C24_8 H32_8 1_555 1_555
Al5_4 O1_9 1_555 1_555
O1_9 C1_9 1_555 1_555
C1_9 C2_9 1_555 1_555
C2_9 C3_9 1_555 1_555
O3_9 Al5_4 1_555 1_555
C7_9 O3_9 1_555 1_555
O5_9 Al5_4 1_555 1_555
C9_9 O5_9 1_555 1_555
Al7_4 O3_9 1_555 1_555
O6_9 C1_9 1_555 1_555
C14_9 C2_9 1_555 1_555
O5_9 Al7_4 1_555 1_555
Al7_4 O6_9 1_555 1_555
C21_4 H2_12 1_555 1_555
C21_4 H3_12 1_555 1_555
C21_4 H4_12 1_555 1_555
C7_9 H5_9 1_555 1_555
C7_9 H6_9 1_555 1_555
C7_9 H7_9 1_555 1_555
C9_9 H8_9 1_555 1_555
C9_9 H9_9 1_555 1_555
C9_9 H10_9 1_555 1_555
C3_9 H11_9 1_555 1_555
C8_4 H12_12 1_555 1_555
C8_4 H13_12 1_555 1_555
C8_4 H14_12 1_555 1_555
C23_6 H15_12 1_555 1_555
C23_6 H16_12 1_555 1_555
C23_6 H17_12 1_555 1_555
C14_9 H19_9 1_555 1_555
C22_6 H27_12 1_555 1_555
C22_6 H28_12 1_555 1_555
C22_6 H29_12 1_555 1_555
Al3_9 O7_9 1_555 1_555
Al4_9 O8_9 1_555 1_555
O7_9 C10_9 1_555 1_555
O8_9 C10_9 1_555 1_555
C10_9 C11_9 1_555 1_555
C11_9 C12_9 1_555 1_555
C13_9 C11_9 1_555 1_555
O13_9 Al3_9 1_555 1_555
O14_9 Al4_9 1_555 1_555
O15_9 Al3_9 1_555 1_555
C20_9 O15_9 1_555 1_555
O20_4 Al3_9 1_555 1_555
O19_4 Al3_9 1_555 1_555
O22 Al4_9 1_555 1_555
O21 Al4_9 1_555 1_555
O23_9 Al3_9 1_555 1_555
C24_9 O23_9 1_555 1_555
Al4_9 O15_9 1_555 1_555
Al4_9 O23_9 1_555 1_555
C12_9 H21_9 1_555 1_555
C20_9 H23_9 1_555 1_555
C20_9 H24_9 1_555 1_555
C20_9 H25_9 1_555 1_555
C13_9 H26_9 1_555 1_555
C24_9 H30_9 1_555 1_555
C24_9 H31_9 1_555 1_555
C24_9 H32_9 1_555 1_555
C4_9 O13_8 1_555 1_555
C5_9 C4_9 1_555 1_555
C6_7 C5_9 1_555 1_555
O14_9 C15_9 1_555 1_555
O14 C15_9 1_555 1_555
C15_9 C16_9 1_555 1_555
C16_9 C17_7 1_555 1_555
C17_7 C6_7 1_555 1_555
C18_7 C16_9 1_555 1_555
C19_7 C5_9 1_555 1_555
C18_7 C19_7 1_555 1_555
C6_7 H1_7 1_555 1_555
C18_7 H18_7 1_555 1_555
C17_7 H20_7 1_555 1_555
C19_7 H22_7 1_555 1_555
C8_7 O20_2 1_555 1_555
C21_7 O19_2 1_555 1_555
C22_7 O22_4 1_555 1_555
C23_7 O21_4 1_555 1_555
C8_7 H2_13 1_555 1_555
C8_7 H3_13 1_555 1_555
C8_7 H4_13 1_555 1_555
C21_7 H12_13 1_555 1_555
C21_7 H13_13 1_555 1_555
C21_7 H14_13 1_555 1_555
C22_7 H15_13 1_555 1_555
C22_7 H16_13 1_555 1_555
C22_7 H17_13 1_555 1_555
C23_7 H27_13 1_555 1_555
C23_7 H28_13 1_555 1_555
C23_7 H29_13 1_555 1_555
C4_10 O13_9 1_555 1_555
C5_10 C4_10 1_555 1_555
C6_8 C5_10 1_555 1_555
C8_8 O20_4 1_555 1_555
O13_4 C4_10 1_555 1_555
O14_7 C15_10 1_555 1_555
C15_10 C16_10 1_555 1_555
C16_10 C17_8 1_555 1_555
C17_8 C6_8 1_555 1_555
C18_8 C16_10 1_555 1_555
C19_8 C5_10 1_555 1_555
C21_8 O19_4 1_555 1_555
C22_8 O22 1_555 1_555
C23_8 O21 1_555 1_555
C18_8 C19_8 1_555 1_555
C6_8 H1_8 1_555 1_555
C8_8 H2_14 1_555 1_555
C8_8 H3_14 1_555 1_555
C8_8 H4_14 1_555 1_555
C21_8 H12_14 1_555 1_555
C21_8 H13_14 1_555 1_555
C21_8 H14_14 1_555 1_555
C22_8 H15_14 1_555 1_555
C22_8 H16_14 1_555 1_555
C22_8 H17_14 1_555 1_555
C18_8 H18_8 1_555 1_555
C17_8 H20_8 1_555 1_555
C19_8 H22_8 1_555 1_555
C23_8 H27_14 1_555 1_555
C23_8 H28_14 1_555 1_555
C23_8 H29_14 1_555 1_555
C21_8 H2_15 1_555 1_555
C21_8 H3_15 1_555 1_555
C21_8 H4_15 1_555 1_555
C8_8 H12_15 1_555 1_555
C8_8 H13_15 1_555 1_555
C8_8 H14_15 1_555 1_555
C23_7 H15_15 1_555 1_555
C23_7 H16_15 1_555 1_555
C23_7 H17_15 1_555 1_555
C22_7 H27_15 1_555 1_555
C22_7 H28_15 1_555 1_555
C22_7 H29_15 1_555 1_555
C8_9 O20 1_555 1_555
C21_9 O19 1_555 1_555
C22_9 O22_2 1_555 1_555
C23_9 O21_2 1_555 1_555
C8_9 H2_16 1_555 1_555
C8_9 H3_16 1_555 1_555
C8_9 H4_16 1_555 1_555
C21_9 H12_16 1_555 1_555
C21_9 H13_16 1_555 1_555
C21_9 H14_16 1_555 1_555
C22_9 H15_16 1_555 1_555
C22_9 H16_16 1_555 1_555
C22_9 H17_16 1_555 1_555
C23_9 H27_16 1_555 1_555
C23_9 H28_16 1_555 1_555
C23_9 H29_16 1_555 1_555
C4_11 O13_7 1_555 1_555
C5_11 C4_11 1_555 1_555
C6_9 C5_11 1_555 1_555
O14_8 C15_11 1_555 1_555
C15_11 C16_11 1_555 1_555
C16_11 C17_9 1_555 1_555
C17_9 C6_9 1_555 1_555
C18_9 C16_11 1_555 1_555
C19_9 C5_11 1_555 1_555
C18_9 C19_9 1_555 1_555
C6_9 H1_9 1_555 1_555
C18_9 H18_9 1_555 1_555
C17_9 H20_9 1_555 1_555
C19_9 H22_9 1_555 1_555
C21_9 H2_17 1_555 1_555
C21_9 H3_17 1_555 1_555
C21_9 H4_17 1_555 1_555
C8_9 H12_17 1_555 1_555
C8_9 H13_17 1_555 1_555
C8_9 H14_17 1_555 1_555
C23_8 H15_17 1_555 1_555
C23_8 H16_17 1_555 1_555
C23_8 H17_17 1_555 1_555
C22_8 H27_17 1_555 1_555
C22_8 H28_17 1_555 1_555
C22_8 H29_17 1_555 1_555
C21_7 H2_18 1_555 1_555
C21_7 H3_18 1_555 1_555
C21_7 H4_18 1_555 1_555
C8_7 H12_18 1_555 1_555
C8_7 H13_18 1_555 1_555
C8_7 H14_18 1_555 1_555
C23_9 H15_18 1_555 1_555
C23_9 H16_18 1_555 1_555
C23_9 H17_18 1_555 1_555
C22_9 H27_18 1_555 1_555
C22_9 H28_18 1_555 1_555
C22_9 H29_18 1_555 1_555
C7_5 H5_10 1_555 1_555
C7_5 H6_10 1_555 1_555
C7_5 H7_10 1_555 1_555
C9_5 H8_10 1_555 1_555
C9_5 H9_10 1_555 1_555
C9_5 H10_10 1_555 1_555
C20_5 H23_10 1_555 1_555
C20_5 H24_10 1_555 1_555
C20_5 H25_10 1_555 1_555
C24_5 H30_10 1_555 1_555
C24_5 H31_10 1_555 1_555
C24_5 H32_10 1_555 1_555
C7_6 H5_11 1_555 1_555
C7_6 H6_11 1_555 1_555
C7_6 H7_11 1_555 1_555
C9_6 H8_11 1_555 1_555
C9_6 H9_11 1_555 1_555
C9_6 H10_11 1_555 1_555
C20_6 H23_11 1_555 1_555
C20_6 H24_11 1_555 1_555
C20_6 H25_11 1_555 1_555
C24_6 H30_11 1_555 1_555
C24_6 H31_11 1_555 1_555
C24_6 H32_11 1_555 1_555
C7_4 H5_12 1_555 1_555
C7_4 H6_12 1_555 1_555
C7_4 H7_12 1_555 1_555
C9_4 H8_12 1_555 1_555
C9_4 H9_12 1_555 1_555
C9_4 H10_12 1_555 1_555
C20_4 H23_12 1_555 1_555
C20_4 H24_12 1_555 1_555
C20_4 H25_12 1_555 1_555
C24_4 H30_12 1_555 1_555
C24_4 H31_12 1_555 1_555
C24_4 H32_12 1_555 1_555
C7_3 H5_13 1_555 1_555
C7_3 H6_13 1_555 1_555
C7_3 H7_13 1_555 1_555
C9_3 H8_13 1_555 1_555
C9_3 H9_13 1_555 1_555
C9_3 H10_13 1_555 1_555
C20_3 H23_13 1_555 1_555
C20_3 H24_13 1_555 1_555
C20_3 H25_13 1_555 1_555
C24_3 H30_13 1_555 1_555
C24_3 H31_13 1_555 1_555
C24_3 H32_13 1_555 1_555
C7 H5_14 1_555 1_555
C7 H6_14 1_555 1_555
C7 H7_14 1_555 1_555
C9 H8_14 1_555 1_555
C9 H9_14 1_555 1_555
C9 H10_14 1_555 1_555
C20 H23_14 1_555 1_555
C20 H24_14 1_555 1_555
C20 H25_14 1_555 1_555
C24 H30_14 1_555 1_555
C24 H31_14 1_555 1_555
C24 H32_14 1_555 1_555
C7_2 H5_15 1_555 1_555
C7_2 H6_15 1_555 1_555
C7_2 H7_15 1_555 1_555
C9_2 H8_15 1_555 1_555
C9_2 H9_15 1_555 1_555
C9_2 H10_15 1_555 1_555
C20_2 H23_15 1_555 1_555
C20_2 H24_15 1_555 1_555
C20_2 H25_15 1_555 1_555
C24_2 H30_15 1_555 1_555
C24_2 H31_15 1_555 1_555
C24_2 H32_15 1_555 1_555
C7_7 H23_16 1_555 1_555
C7_7 H24_16 1_555 1_555
C7_7 H25_16 1_555 1_555
C24_7 H8_16 1_555 1_555
C24_7 H9_16 1_555 1_555
C24_7 H10_16 1_555 1_555
C9_7 H30_16 1_555 1_555
C9_7 H31_16 1_555 1_555
C9_7 H32_16 1_555 1_555
C20_7 H5_16 1_555 1_555
C20_7 H6_16 1_555 1_555
C20_7 H7_16 1_555 1_555
C9_8 H30_17 1_555 1_555
C9_8 H31_17 1_555 1_555
C9_8 H32_17 1_555 1_555
C20_8 H5_17 1_555 1_555
C20_8 H6_17 1_555 1_555
C20_8 H7_17 1_555 1_555
C7_8 H23_17 1_555 1_555
C7_8 H24_17 1_555 1_555
C7_8 H25_17 1_555 1_555
C24_8 H8_17 1_555 1_555
C24_8 H9_17 1_555 1_555
C24_8 H10_17 1_555 1_555
C7_9 H23_18 1_555 1_555
C7_9 H24_18 1_555 1_555
C7_9 H25_18 1_555 1_555
C9_9 H30_18 1_555 1_555
C9_9 H31_18 1_555 1_555
C9_9 H32_18 1_555 1_555
C20_9 H5_18 1_555 1_555
C20_9 H6_18 1_555 1_555
C20_9 H7_18 1_555 1_555
C24_9 H8_18 1_555 1_555
C24_9 H9_18 1_555 1_555
C24_9 H10_18 1_555 1_555

#END
