
###############################################################################
#
# This file contains modified crystal structure data generated from the
# MOF subset of the Cambridge Structural Database (CSD) v543 
# hosted by the Cambridge Crystallographic Data Centre (CCDC).
#
# This work is licensed under the Creative Commons
# Attribution-NonCommercial-ShareAlike 4.0 International License.
# To view a copy of this license, visit
# http://creativecommons.org/licenses/by-nc-sa/4.0/
# or send a letter to
# Creative Commons, PO Box 1866, Mountain View, CA 94042, USA.
#
# CIF created using the CSD Python API on 29 September 2022
# The structure has been converted into the P1 space group
# The structure has a 3D framework
# The original CSD entry CAXTUS is in the hexagonal crystal system
# The original CSD entry CAXTUS is in a Sohncke space group
# The framework has been calculated to contain at least 10.0% void space
# The void calculation uses a probe of radius 1.32A, grid spacing 0.4
# The framework is charged, counterions have been retained in the structure
#
###############################################################################

data_CAXTUS
_chemical_formula_moiety         '(C306 H174 O60 S12 Zn11 6-)n'
_symmetry_cell_setting           triclinic
_symmetry_space_group_name_H-M   'P 1'
_symmetry_Int_Tables_number      1
_space_group_name_Hall           'P 1'
loop_
_symmetry_equiv_pos_site_id
_symmetry_equiv_pos_as_xyz
1 x,y,z
_cell_length_a                   24.057(3)
_cell_length_b                   24.057(3)
_cell_length_c                   26.996(5)
_cell_angle_alpha                90
_cell_angle_beta                 90
_cell_angle_gamma                120
_cell_volume                     13530.5
loop_
_atom_site_label
_atom_site_type_symbol
_atom_site_fract_x
_atom_site_fract_y
_atom_site_fract_z
Zn1 Zn 0.534630(9) 0.456531(9) 0.020726(7)
O2 O 0.49334(9) 0.36941(6) 0.04965(6)
O3 O 0.50654(7) 0.37519(10) 0.13014(6)
C1 C 0.48770(10) 0.34584(8) 0.09106(7)
C2 C 0.45320(12) 0.27333(9) 0.09428(7)
C3 C 0.42618(17) 0.23695(11) 0.05099(9)
H1 H 0.4307 0.2575 0.0209
C4 C 0.44580(14) 0.24208(10) 0.13816(9)
H2 H 0.4631 0.2655 0.1671
C5 C 0.41248(14) 0.17550(10) 0.13970(9)
H3 H 0.4094 0.1548 0.1695
C6 C 0.38370(14) 0.13940(10) 0.09776(9)
C7 C 0.39360(19) 0.17184(11) 0.05329(10)
H4 H 0.3775 0.1484 0.0242
C8 C 0.34415(12) 0.06780(9) 0.09920(8)
C9 C 0.36143(11) 0.03123(10) 0.12795(8)
H5 H 0.3966 0.0512 0.1490
C13 C 0.29003(15) 0.03602(11) 0.06944(11)
H8 H 0.2767 0.0598 0.0508
Zn3 Zn 0.543469(9) 0.465370(9) 0.145941(7)
O10 O 0.62481(10) 0.49346(7) 0.03653(6)
O13 O 0.48471(11) 0.49520(11) 0.04318(7)
S1 S 0.54390(5) 0.54390(5) 0.8333
O1 O 0.51184(9) 0.43904(8) 0.95077(5)
O5 O 0.5769(2) 0.54038(14) 0.94039(12)
C27 C 0.50502(14) 0.48319(14) 0.87528(9)
C28 C 0.44964(15) 0.43649(14) 0.85602(10)
H15 H 0.4228 0.3985 0.8727
C29 C 0.53379(16) 0.48932(15) 0.92589(10)
Zn2 Zn 0.456531(9) 0.534630(9) 0.645941(7)
O6 O 0.43904(8) 0.51184(9) 0.71590(5)
O8 O 0.36941(6) 0.49334(9) 0.61702(6)
O11 O 0.49346(7) 0.62481(10) 0.63014(6)
O14 O 0.49520(11) 0.48471(11) 0.62349(7)
O15 O 0.54038(14) 0.5769(2) 0.72628(12)
C49 C 0.48319(14) 0.50502(14) 0.79139(9)
C50 C 0.43649(14) 0.44964(15) 0.81065(10)
H29 H 0.3985 0.4228 0.7940
C51 C 0.48932(15) 0.53379(16) 0.74078(10)
C10 C 0.32598(9) 0.96419(9) 0.12539(8)
H6 H 0.3379 0.9402 0.1452
C11 C 0.27373(9) 0.93264(8) 0.09423(7)
C12 C 0.25564(13) 0.96995(11) 0.06694(11)
H7 H 0.2197 0.9500 0.0466
C14 C 0.23843(9) 0.86207(8) 0.08916(7)
C15 C 0.17178(6) 0.82822(6) 0.0833
H9 H 0.1495 0.8505 0.0833
C16 C 0.27162(8) 0.82833(9) 0.08888(7)
H10 H 0.3160 0.8504 0.0924
C17 C 0.23855(6) 0.76145(6) 0.0833
C18 C 0.27450(6) 0.72550(6) 0.0833
C19 C 0.33013(11) 0.74699(11) 0.11080(10)
H11 H 0.3455 0.7842 0.1296
C20 C 0.36340(13) 0.71332(13) 0.11057(11)
H12 H 0.4007 0.7286 0.1292
C21 C 0.34212(7) 0.65788(7) 0.0833
C22 C 0.37772(7) 0.62228(7) 0.0833
C23 C 0.41267(17) 0.62256(18) 0.12458(12)
H13 H 0.4138 0.6461 0.1523
C24 C 0.48159(7) 0.51841(7) 0.0833
C25 C 0.44576(7) 0.55424(7) 0.0833
C26 C 0.44591(16) 0.58901(17) 0.12588(12)
H14 H 0.4680 0.5894 0.1543
O12 O 0.50480(11) 0.51529(11) 0.12349(7)
C39 C 0.03581(9) 0.67402(9) 0.04128(8)
H21 H 0.0598 0.6621 0.0215
C40 C 0.06736(8) 0.72627(9) 0.07244(7)
C41 C 0.03005(11) 0.74436(13) 0.09973(11)
H22 H 0.0500 0.7803 0.1201
C43 C 0.13793(8) 0.76157(9) 0.07751(7)
C44 C 0.17167(9) 0.72838(8) 0.07779(7)
H24 H 0.1496 0.6840 0.0743
C45 C 0.25301(11) 0.66987(11) 0.05587(10)
H25 H 0.2158 0.6545 0.0371
C46 C 0.28668(13) 0.63660(13) 0.05610(11)
H26 H 0.2714 0.5993 0.0375
C47 C 0.37744(18) 0.58733(17) 0.04209(12)
H27 H 0.3539 0.5862 0.0144
C48 C 0.41099(17) 0.55409(16) 0.04079(12)
H28 H 0.4106 0.5320 0.0124
O7 O 0.63059(6) 0.50666(9) 0.11702(6)
C30 C 0.65416(8) 0.51230(10) 0.07561(7)
C31 C 0.72667(9) 0.54680(12) 0.07239(7)
C32 C 0.76305(11) 0.57382(17) 0.11568(9)
H16 H 0.7425 0.5693 0.1458
C33 C 0.75792(10) 0.55420(14) 0.02851(9)
C34 C 0.82450(10) 0.58752(14) 0.02697(9)
C35 C 0.86060(10) 0.61630(14) 0.06891(9)
C36 C 0.82816(11) 0.60640(19) 0.11338(10)
H19 H 0.8516 0.6225 0.1425
C37 C 0.93220(9) 0.65585(12) 0.06747(8)
C38 C 0.96877(10) 0.63857(11) 0.03872(8)
H20 H 0.9488 0.6034 0.0177
C42 C 0.96398(11) 0.70997(15) 0.09723(11)
H23 H 0.9402 0.7233 0.1159
Zn6 Zn 0.465370(9) 0.543469(9) 0.520726(7)
O9 O 0.37519(10) 0.50654(7) 0.53653(6)
C30_2 C 0.34584(8) 0.48770(10) 0.57561(7)
C31_2 C 0.27333(9) 0.45320(12) 0.57239(7)
C32_2 C 0.23695(11) 0.42618(17) 0.61568(9)
H16_2 H 0.2575 0.4307 0.6458
C33_2 C 0.24208(10) 0.44580(14) 0.52851(9)
H17 H 0.2655 0.4631 0.4996
C34_2 C 0.17550(10) 0.41248(14) 0.52697(9)
H18 H 0.1548 0.4094 0.4972
C35_2 C 0.13940(10) 0.38370(14) 0.56891(9)
C36_2 C 0.17184(11) 0.39360(19) 0.61338(10)
H19_2 H 0.1484 0.3775 0.6425
C37_2 C 0.06780(9) 0.34415(12) 0.56747(8)
C38_2 C 0.03123(10) 0.36143(11) 0.53872(8)
H20_2 H 0.0512 0.3966 0.5177
C42_2 C 0.03602(11) 0.29003(15) 0.59723(11)
H23_2 H 0.0598 0.2767 0.6159
O4 O 0.51529(11) 0.50480(11) 0.54318(7)
C10_2 C 0.67402(9) 0.03581(9) 0.62539(8)
H6_2 H 0.6621 0.0598 0.6452
C11_2 C 0.72627(9) 0.06736(8) 0.59423(7)
C12_2 C 0.74436(13) 0.03005(11) 0.56694(11)
H7_2 H 0.7803 0.0500 0.5466
C14_2 C 0.76157(9) 0.13793(8) 0.58916(7)
C15_2 C 0.82822(6) 0.17178(6) 0.5833
H9_2 H 0.8505 0.1495 0.5833
C16_2 C 0.72838(8) 0.17167(9) 0.58888(7)
H10_2 H 0.6840 0.1496 0.5924
C17_2 C 0.76145(6) 0.23855(6) 0.5833
C18_2 C 0.72550(6) 0.27450(6) 0.5833
C19_2 C 0.66987(11) 0.25301(11) 0.61080(10)
H11_2 H 0.6545 0.2158 0.6296
C20_2 C 0.63660(13) 0.28668(13) 0.61057(11)
H12_2 H 0.5993 0.2714 0.6292
C21_2 C 0.65788(7) 0.34212(7) 0.5833
C22_2 C 0.62228(7) 0.37772(7) 0.5833
C23_2 C 0.58733(17) 0.37744(18) 0.62458(12)
H13_2 H 0.5862 0.3539 0.6523
C24_2 C 0.51841(7) 0.48159(7) 0.5833
C25_2 C 0.55424(7) 0.44576(7) 0.5833
C26_2 C 0.55409(16) 0.41099(17) 0.62588(12)
H14_2 H 0.5320 0.4106 0.6543
C39_2 C 0.96419(9) 0.32598(9) 0.54128(8)
H21_2 H 0.9402 0.3379 0.5215
C40_2 C 0.93264(8) 0.27373(9) 0.57244(7)
C41_2 C 0.96995(11) 0.25564(13) 0.59973(11)
H22_2 H 0.9500 0.2197 0.6201
C43_2 C 0.86207(8) 0.23843(9) 0.57751(7)
C44_2 C 0.82833(9) 0.27162(8) 0.57779(7)
H24_2 H 0.8504 0.3160 0.5743
C45_2 C 0.74699(11) 0.33013(11) 0.55587(10)
H25_2 H 0.7842 0.3455 0.5371
C46_2 C 0.71332(13) 0.36340(13) 0.55610(11)
H26_2 H 0.7286 0.4007 0.5375
C47_2 C 0.62256(18) 0.41267(17) 0.54209(12)
H27_2 H 0.6461 0.4138 0.5144
C48_2 C 0.58901(17) 0.44591(16) 0.54079(12)
H28_2 H 0.5894 0.4680 0.5124
S1_2 S 0.45610(5) 0.45610(5) 0.3333
O1_2 O 0.48816(9) 0.56096(8) 0.45077(5)
O2_2 O 0.50666(9) 0.63059(6) 0.54965(6)
O5_2 O 0.4231(2) 0.45962(14) 0.44039(12)
C1_2 C 0.51230(10) 0.65416(8) 0.59106(7)
C2_2 C 0.54680(12) 0.72667(9) 0.59428(7)
C3_2 C 0.57382(17) 0.76305(11) 0.55099(9)
H1_2 H 0.5693 0.7425 0.5209
C4_2 C 0.55420(14) 0.75792(10) 0.63816(9)
H2_2 H 0.5369 0.7345 0.6671
C5_2 C 0.58752(14) 0.82450(10) 0.63970(9)
H3_2 H 0.5906 0.8452 0.6695
C6_2 C 0.61630(14) 0.86060(10) 0.59776(9)
C7_2 C 0.60640(19) 0.82816(11) 0.55329(10)
H4_2 H 0.6225 0.8516 0.5242
C8_2 C 0.65585(12) 0.93220(9) 0.59920(8)
C9_2 C 0.63857(11) 0.96877(10) 0.62795(8)
H5_2 H 0.6034 0.9488 0.6490
C13_2 C 0.70997(15) 0.96398(11) 0.56944(11)
H8_2 H 0.7233 0.9402 0.5508
C27_2 C 0.49498(14) 0.51681(14) 0.37528(9)
C28_2 C 0.55036(15) 0.56351(14) 0.35602(10)
H15_2 H 0.5772 0.6015 0.3727
C29_2 C 0.46621(16) 0.51068(15) 0.42589(10)
O6_2 O 0.56096(8) 0.48816(9) 0.21590(5)
O15_2 O 0.45962(14) 0.4231(2) 0.22628(12)
C49_2 C 0.51681(14) 0.49498(14) 0.29139(9)
C50_2 C 0.56351(14) 0.55036(15) 0.31065(10)
H29_2 H 0.6015 0.5772 0.2940
C51_2 C 0.51068(15) 0.46621(16) 0.24078(10)
H17_2 H 0.7345 0.5369 0.9996
H18_2 H 0.8452 0.5906 0.9972
Zn4 Zn 0.078099(13) 0.534630(9) 0.854059(7)
Zn7 Zn 0.078099(13) 0.543469(9) 0.979274(7)
S1_3 S -0.00000(7) 0.54390(5) 0.6666
O1_3 O 0.07280(12) 0.51184(9) 0.78410(5)
O2_3 O 0.12393(11) 0.49334(9) 0.88298(6)
O3_2 O 0.13135(12) 0.50654(7) 0.96347(6)
O4_2 O 0.98951(16) 0.48471(11) 0.87651(7)
O5_3 O 0.03652(24) 0.5769(2) 0.77372(12)
C1_3 C 0.14186(13) 0.48770(10) 0.92439(7)
C2_3 C 0.17987(15) 0.45320(12) 0.92761(7)
C3_3 C 0.18923(20) 0.42618(17) 0.88432(9)
H1_3 H 0.1732 0.4307 0.8542
C4_3 C 0.20372(17) 0.44580(14) 0.97149(9)
C5_3 C 0.23698(17) 0.41248(14) 0.97303(9)
C6_3 C 0.24430(17) 0.38370(14) 0.93109(9)
C7_3 C 0.22176(22) 0.39360(19) 0.88662(10)
H4_3 H 0.2291 0.3775 0.8575
C8_3 C 0.27635(15) 0.34415(12) 0.93253(8)
C9_3 C 0.33020(15) 0.36143(11) 0.96128(8)
H5_3 H 0.3454 0.3966 0.9823
C10_3 C 0.36179(13) 0.32598(9) 0.95872(8)
H6_3 H 0.3977 0.3379 0.9785
C11_3 C 0.34109(12) 0.27373(9) 0.92756(7)
C12_3 C 0.28569(17) 0.25564(13) 0.90027(11)
H7_3 H 0.2697 0.2197 0.8799
C13_3 C 0.25401(19) 0.29003(15) 0.90277(11)
H8_3 H 0.2169 0.2767 0.8841
C14_3 C 0.37636(12) 0.23843(9) 0.92249(7)
C15_3 C 0.34356(8) 0.17178(6) 0.9166
H9_3 H 0.2990 0.1495 0.9166
C16_3 C 0.44329(12) 0.27162(8) 0.92221(7)
H10_3 H 0.4656 0.3160 0.9257
C17_3 C 0.47710(8) 0.23855(6) 0.9166
C18_3 C 0.54900(8) 0.27450(6) 0.9166
C19_3 C 0.58314(16) 0.33013(11) 0.94413(10)
H11_3 H 0.5613 0.3455 0.9629
C20_3 C 0.65008(18) 0.36340(13) 0.94390(11)
H12_3 H 0.6721 0.4007 0.9625
C21_3 C 0.68424(10) 0.34212(7) 0.9166
C22_3 C 0.75544(10) 0.37772(7) 0.9166
C23_3 C 0.79011(25) 0.41267(17) 0.95791(12)
H13_3 H 0.7677 0.4138 0.9856
C24_3 C 0.96318(10) 0.48159(7) 0.9166
C25_3 C 0.89152(10) 0.44576(7) 0.9166
C26_3 C 0.85690(23) 0.44591(16) 0.95921(12)
H14_3 H 0.8786 0.4680 0.9876
C27_3 C 0.02183(20) 0.50502(14) 0.70861(9)
C28_3 C 0.01315(21) 0.44964(15) 0.68935(10)
H15_3 H 0.0243 0.4228 0.7060
C29_3 C 0.04447(22) 0.53379(16) 0.75922(10)
O10_2 O 0.13135(12) 0.62481(10) 0.86986(6)
O12_2 O 0.98951(16) 0.50480(11) 0.95682(7)
O14_2 O 0.01049(16) 0.49520(11) 0.45682(7)
C39_3 C 0.36179(13) 0.03581(9) 0.87461(8)
H21_3 H 0.3977 0.0598 0.8548
C40_3 C 0.34109(12) 0.06736(8) 0.90577(7)
C41_3 C 0.28569(17) 0.03005(11) 0.93306(11)
H22_3 H 0.2697 0.0500 0.9534
C43_3 C 0.37636(12) 0.13793(8) 0.91084(7)
C44_3 C 0.44329(12) 0.17167(9) 0.91112(7)
H24_3 H 0.4656 0.1496 0.9076
C45_3 C 0.58314(16) 0.25301(11) 0.88920(10)
H25_3 H 0.5613 0.2158 0.8704
C46_3 C 0.65008(18) 0.28668(13) 0.88943(11)
H26_3 H 0.6721 0.2714 0.8708
C47_3 C 0.79011(25) 0.37744(18) 0.87542(12)
H27_3 H 0.7677 0.3539 0.8477
C48_3 C 0.85690(23) 0.41099(17) 0.87412(12)
H28_3 H 0.8786 0.4106 0.8457
O7_2 O 0.12393(11) 0.63059(6) 0.95035(6)
C30_3 C 0.14186(13) 0.65416(8) 0.90894(7)
C31_3 C 0.17987(15) 0.72667(9) 0.90572(7)
C32_3 C 0.18923(20) 0.76305(11) 0.94901(9)
H16_3 H 0.1732 0.7425 0.9791
C33_3 C 0.20372(17) 0.75792(10) 0.86184(9)
H17_3 H 0.1976 0.7345 0.8329
C34_3 C 0.23698(17) 0.82450(10) 0.86030(9)
H18_3 H 0.2546 0.8452 0.8305
C35_3 C 0.24430(17) 0.86060(10) 0.90224(9)
C36_3 C 0.22176(22) 0.82816(11) 0.94671(10)
H19_3 H 0.2291 0.8516 0.9758
C37_3 C 0.27635(15) 0.93220(9) 0.90080(8)
C38_3 C 0.33020(15) 0.96877(10) 0.87205(8)
H20_3 H 0.3454 0.9488 0.8510
C42_3 C 0.25401(19) 0.96398(11) 0.93056(11)
H23_3 H 0.2169 0.9402 0.9492
S1_4 S 1.00000(7) 0.54390(5) 0.6666
Zn2_2 Zn 0.921901(13) 0.456531(9) 0.479274(7)
O6_3 O 0.92720(12) 0.43904(8) 0.54923(5)
O8_2 O 0.87607(11) 0.36941(6) 0.45035(6)
O11_2 O 0.86865(12) 0.49346(7) 0.46347(6)
O15_3 O 0.96348(24) 0.54038(14) 0.55961(12)
C49_3 C 0.97817(20) 0.48319(14) 0.62472(9)
C50_3 C 0.98685(21) 0.43649(14) 0.64398(10)
H29_3 H 0.9757 0.3985 0.6273
C51_3 C 0.95553(22) 0.48932(15) 0.57411(10)
S1_5 S -0.00000(7) 0.45610(5) 0.1666
O6_4 O 0.07280(12) 0.56096(8) 0.04923(5)
O13_2 O 0.01049(16) 0.51529(11) 0.37651(7)
O15_4 O 0.03652(24) 0.45962(14) 0.05961(12)
C49_4 C 0.02183(20) 0.51681(14) 0.12472(9)
C50_4 C 0.01315(21) 0.56351(14) 0.14398(10)
H29_4 H 0.0243 0.6015 0.1273
C51_4 C 0.04447(22) 0.51068(15) 0.07411(10)
Zn6_2 Zn 0.921901(13) 0.465370(9) 0.354059(7)
O9_2 O 0.86865(12) 0.37519(10) 0.36986(6)
C30_4 C 0.85814(13) 0.34584(8) 0.40894(7)
C31_4 C 0.82013(15) 0.27333(9) 0.40572(7)
C32_4 C 0.81077(20) 0.23695(11) 0.44901(9)
H16_4 H 0.8268 0.2575 0.4791
C33_4 C 0.79628(17) 0.24208(10) 0.36184(9)
H17_4 H 0.8024 0.2655 0.3329
C34_4 C 0.76302(17) 0.17550(10) 0.36030(9)
H18_4 H 0.7454 0.1548 0.3305
C35_4 C 0.75570(17) 0.13940(10) 0.40224(9)
C36_4 C 0.77824(22) 0.17184(11) 0.44671(10)
H19_4 H 0.7709 0.1484 0.4758
C37_4 C 0.72365(15) 0.06780(9) 0.40080(8)
C38_4 C 0.66980(15) 0.03123(10) 0.37205(8)
H20_4 H 0.6546 0.0512 0.3510
C42_4 C 0.74599(19) 0.03602(11) 0.43056(11)
H23_4 H 0.7831 0.0598 0.4492
S1_6 S 1.00000(7) 0.45610(5) 0.1666
O1_4 O 0.92720(12) 0.48816(9) 0.28410(5)
O2_4 O 0.87607(11) 0.50666(9) 0.38298(6)
O5_4 O 0.96348(24) 0.4231(2) 0.27372(12)
C1_4 C 0.85814(13) 0.51230(10) 0.42439(7)
C2_4 C 0.82013(15) 0.54680(12) 0.42761(7)
C3_4 C 0.81077(20) 0.57382(17) 0.38432(9)
H1_4 H 0.8268 0.5693 0.3542
C4_4 C 0.79628(17) 0.55420(14) 0.47149(9)
H2_3 H 0.8024 0.5369 0.5004
C5_4 C 0.76302(17) 0.58752(14) 0.47303(9)
H3_3 H 0.7454 0.5906 0.5028
C6_4 C 0.75570(17) 0.61630(14) 0.43109(9)
C7_4 C 0.77824(22) 0.60640(19) 0.38662(10)
H4_4 H 0.7709 0.6225 0.3575
C8_4 C 0.72365(15) 0.65585(12) 0.43253(8)
C9_4 C 0.66980(15) 0.63857(11) 0.46128(8)
H5_4 H 0.6546 0.6034 0.4823
C10_4 C 0.63821(13) 0.67402(9) 0.45872(8)
H6_4 H 0.6023 0.6621 0.4785
C11_4 C 0.65891(12) 0.72627(9) 0.42756(7)
C12_4 C 0.71431(17) 0.74436(13) 0.40027(11)
H7_4 H 0.7303 0.7803 0.3799
C13_4 C 0.74599(19) 0.70997(15) 0.40277(11)
H8_4 H 0.7831 0.7233 0.3841
C14_4 C 0.62364(12) 0.76157(9) 0.42249(7)
C15_4 C 0.65644(8) 0.82822(6) 0.4166
H9_4 H 0.7010 0.8505 0.4166
C16_4 C 0.55671(12) 0.72838(8) 0.42221(7)
H10_4 H 0.5344 0.6840 0.4257
C17_4 C 0.52290(8) 0.76145(6) 0.4166
C18_4 C 0.45100(8) 0.72550(6) 0.4166
C19_4 C 0.41686(16) 0.66987(11) 0.44413(10)
H11_4 H 0.4387 0.6545 0.4629
C20_4 C 0.34992(18) 0.63660(13) 0.44390(11)
H12_4 H 0.3279 0.5993 0.4625
C21_4 C 0.31576(10) 0.65788(7) 0.4166
C22_4 C 0.24456(10) 0.62228(7) 0.4166
C23_4 C 0.20989(25) 0.58733(17) 0.45791(12)
H13_4 H 0.2323 0.5862 0.4856
C24_4 C 0.03682(10) 0.51841(7) 0.4166
C25_4 C 0.10848(10) 0.55424(7) 0.4166
C26_4 C 0.14310(23) 0.55409(16) 0.45921(12)
H14_4 H 0.1214 0.5320 0.4876
C27_4 C 0.97817(20) 0.49498(14) 0.20861(9)
C28_4 C 0.98685(21) 0.55036(15) 0.18935(10)
H15_4 H 0.9757 0.5772 0.2060
C29_4 C 0.95553(22) 0.46621(16) 0.25922(10)
C39_4 C 0.63821(13) 0.96419(9) 0.37461(8)
H21_4 H 0.6023 0.9402 0.3548
C40_4 C 0.65891(12) 0.93264(8) 0.40577(7)
C41_4 C 0.71431(17) 0.96995(11) 0.43306(11)
H22_4 H 0.7303 0.9500 0.4534
C43_4 C 0.62364(12) 0.86207(8) 0.41084(7)
C44_4 C 0.55671(12) 0.82833(9) 0.41112(7)
H24_4 H 0.5344 0.8504 0.4076
C45_4 C 0.41686(16) 0.74699(11) 0.38920(10)
H25_4 H 0.4387 0.7842 0.3704
C46_4 C 0.34992(18) 0.71332(13) 0.38943(11)
H26_4 H 0.3279 0.7286 0.3708
C47_4 C 0.20989(25) 0.62256(18) 0.37542(12)
H27_4 H 0.2323 0.6461 0.3477
C48_4 C 0.14310(23) 0.58901(17) 0.37412(12)
H28_4 H 0.1214 0.5894 0.3457
H2_4 H 0.1976 0.4631 0.0004
H3_4 H 0.2546 0.4094 0.0028
Zn4_2 Zn 0.543469(9) 0.078099(13) 0.687393(7)
Zn7_2 Zn 0.534630(9) 0.078099(13) 0.812607(7)
O4_3 O 0.50480(11) 0.98951(16) 0.70985(7)
C10_5 C 0.03581(9) 0.36179(13) 0.79206(8)
H6_5 H 0.0598 0.3977 0.8119
C11_5 C 0.06736(8) 0.34109(12) 0.76090(7)
C12_5 C 0.03005(11) 0.28569(17) 0.73361(11)
H7_5 H 0.0500 0.2697 0.7133
C14_5 C 0.13793(8) 0.37636(12) 0.75583(7)
C15_5 C 0.17178(6) 0.34356(8) 0.7500
H9_5 H 0.1495 0.2990 0.7500
C16_5 C 0.17167(9) 0.44329(12) 0.75555(7)
H10_5 H 0.1496 0.4656 0.7591
C17_5 C 0.23855(6) 0.47710(8) 0.7500
C18_5 C 0.27450(6) 0.54900(8) 0.7500
C19_5 C 0.25301(11) 0.58314(16) 0.77747(10)
H11_5 H 0.2158 0.5613 0.7963
C20_5 C 0.28668(13) 0.65008(18) 0.77724(11)
H12_5 H 0.2714 0.6721 0.7959
C21_5 C 0.34212(7) 0.68424(10) 0.7500
C22_5 C 0.37772(7) 0.75544(10) 0.7500
C23_5 C 0.37744(18) 0.79011(25) 0.79125(12)
H13_5 H 0.3539 0.7677 0.8190
C24_5 C 0.48159(7) 0.96318(10) 0.7500
C25_5 C 0.44576(7) 0.89152(10) 0.7500
C26_5 C 0.41099(17) 0.85690(23) 0.79255(12)
H14_5 H 0.4106 0.8786 0.8210
O7_3 O 0.49334(9) 0.12393(11) 0.78368(6)
O9_3 O 0.50654(7) 0.13135(12) 0.70319(6)
O12_3 O 0.48471(11) 0.98951(16) 0.79015(7)
C30_5 C 0.48770(10) 0.14186(13) 0.74227(7)
C31_5 C 0.45320(12) 0.17987(15) 0.73905(7)
C32_5 C 0.42618(17) 0.18923(20) 0.78234(9)
H16_5 H 0.4307 0.1732 0.8124
C33_5 C 0.44580(14) 0.20372(17) 0.69517(9)
H17_5 H 0.4631 0.1976 0.6662
C34_5 C 0.41248(14) 0.23698(17) 0.69363(9)
H18_5 H 0.4094 0.2546 0.6638
C35_5 C 0.38370(14) 0.24430(17) 0.73557(9)
C36_5 C 0.39360(19) 0.22176(22) 0.78004(10)
H19_5 H 0.3775 0.2291 0.8091
C37_5 C 0.34415(12) 0.27635(15) 0.73413(8)
C38_5 C 0.36143(11) 0.33020(15) 0.70538(8)
H20_5 H 0.3966 0.3454 0.6843
C39_5 C 0.32598(9) 0.36179(13) 0.70794(8)
H21_5 H 0.3379 0.3977 0.6881
C40_5 C 0.27373(9) 0.34109(12) 0.73910(7)
C41_5 C 0.25564(13) 0.28569(17) 0.76639(11)
H22_5 H 0.2197 0.2697 0.7867
C42_5 C 0.29003(15) 0.25401(19) 0.76389(11)
H23_5 H 0.2767 0.2169 0.7825
C43_5 C 0.23843(9) 0.37636(12) 0.74417(7)
C44_5 C 0.27162(8) 0.44329(12) 0.74445(7)
H24_5 H 0.3160 0.4656 0.7409
C45_5 C 0.33013(11) 0.58314(16) 0.72253(10)
H25_5 H 0.3455 0.5613 0.7037
C46_5 C 0.36340(13) 0.65008(18) 0.72276(11)
H26_5 H 0.4007 0.6721 0.7041
C47_5 C 0.41267(17) 0.79011(25) 0.70875(12)
H27_5 H 0.4138 0.7677 0.6810
C48_5 C 0.44591(16) 0.85690(23) 0.70745(12)
H28_5 H 0.4680 0.8786 0.6790
S1_7 S 0.45610(5) 0.00000(7) 0.5000
O1_5 O 0.56096(8) 0.07280(12) 0.61744(5)
O2_5 O 0.63059(6) 0.12393(11) 0.71632(6)
O3_3 O 0.62481(10) 0.13135(12) 0.79681(6)
O5_5 O 0.45962(14) 0.03652(24) 0.60706(12)
C1_5 C 0.65416(8) 0.14186(13) 0.75773(7)
C2_5 C 0.72667(9) 0.17987(15) 0.76095(7)
C3_5 C 0.76305(11) 0.18923(20) 0.71766(9)
H1_5 H 0.7425 0.1732 0.6876
C4_5 C 0.75792(10) 0.20372(17) 0.80483(9)
H2_5 H 0.7345 0.1976 0.8338
C5_5 C 0.82450(10) 0.23698(17) 0.80637(9)
H3_5 H 0.8452 0.2546 0.8362
C6_5 C 0.86060(10) 0.24430(17) 0.76443(9)
C7_5 C 0.82816(11) 0.22176(22) 0.71996(10)
H4_5 H 0.8516 0.2291 0.6909
C8_5 C 0.93220(9) 0.27635(15) 0.76587(8)
C9_5 C 0.96877(10) 0.33020(15) 0.79462(8)
H5_5 H 0.9488 0.3454 0.8157
C13_5 C 0.96398(11) 0.25401(19) 0.73611(11)
H8_5 H 0.9402 0.2169 0.7175
C27_5 C 0.51681(14) 0.02183(20) 0.54195(9)
C28_5 C 0.56351(14) 0.01315(21) 0.52269(10)
H15_5 H 0.6015 0.0243 0.5394
C29_5 C 0.51068(15) 0.04447(22) 0.59256(10)
O14_3 O 0.51529(11) 0.01049(16) 0.29015(7)
S1_8 S 0.45610(5) 1.00000(7) 0.5000
Zn2_3 Zn 0.465370(9) 0.921901(13) 0.312607(7)
O6_5 O 0.48816(9) 0.92720(12) 0.38256(5)
O8_3 O 0.50666(9) 0.87607(11) 0.28368(6)
O11_3 O 0.37519(10) 0.86865(12) 0.29681(6)
O15_5 O 0.4231(2) 0.96348(24) 0.39294(12)
C49_5 C 0.49498(14) 0.97817(20) 0.45805(9)
C50_5 C 0.55036(15) 0.98685(21) 0.47731(10)
H29_5 H 0.5772 0.9757 0.4606
C51_5 C 0.46621(16) 0.95553(22) 0.40744(10)
S1_9 S 0.54390(5) 0.00000(7) -0.0000
O13_3 O 0.49520(11) 0.01049(16) 0.20985(7)
S1_10 S 0.54390(5) 0.00000(7) 1.0000
O6_6 O 0.51184(9) 0.07280(12) 0.88256(5)
O15_6 O 0.5769(2) 0.03652(24) 0.89294(12)
C49_6 C 0.50502(14) 0.02183(20) 0.95805(9)
C50_6 C 0.44964(15) 0.01315(21) 0.97731(10)
H29_6 H 0.4228 0.0243 0.9606
C51_6 C 0.53379(16) 0.04447(22) 0.90744(10)
Zn1_2 Zn 0.456531(9) 0.921901(13) 0.187393(7)
S1_11 S 0.54390(5) 1.00000(7) -0.0000
O1_6 O 0.43904(8) 0.92720(12) 0.11744(5)
O2_6 O 0.36941(6) 0.87607(11) 0.21632(6)
O5_6 O 0.54038(14) 0.96348(24) 0.10706(12)
C1_6 C 0.34584(8) 0.85814(13) 0.25773(7)
C2_6 C 0.27333(9) 0.82013(15) 0.26095(7)
C3_6 C 0.23695(11) 0.81077(20) 0.21766(9)
H1_6 H 0.2575 0.8268 0.1876
C4_6 C 0.24208(10) 0.79628(17) 0.30483(9)
H2_6 H 0.2655 0.8024 0.3338
C5_6 C 0.17550(10) 0.76302(17) 0.30637(9)
H3_6 H 0.1548 0.7454 0.3362
C6_6 C 0.13940(10) 0.75570(17) 0.26443(9)
C7_6 C 0.17184(11) 0.77824(22) 0.21996(10)
H4_6 H 0.1484 0.7709 0.1909
C8_6 C 0.06780(9) 0.72365(15) 0.26587(8)
C9_6 C 0.03123(10) 0.66980(15) 0.29462(8)
H5_6 H 0.0512 0.6546 0.3157
C13_6 C 0.03602(11) 0.74599(19) 0.23611(11)
H8_6 H 0.0598 0.7831 0.2175
C27_6 C 0.48319(14) 0.97817(20) 0.04195(9)
C28_6 C 0.43649(14) 0.98685(21) 0.02269(10)
H15_6 H 0.3985 0.9757 0.0394
C29_6 C 0.48932(15) 0.95553(22) 0.09256(10)
O10_3 O 0.49346(7) 0.86865(12) 0.20319(6)
S1_12 S 0.54390(5) 1.00000(7) 1.0000
C10_6 C 0.96419(9) 0.63821(13) 0.29206(8)
H6_6 H 0.9402 0.6023 0.3119
C11_6 C 0.93264(8) 0.65891(12) 0.26090(7)
C12_6 C 0.96995(11) 0.71431(17) 0.23361(11)
H7_6 H 0.9500 0.7303 0.2133
C14_6 C 0.86207(8) 0.62364(12) 0.25583(7)
C15_6 C 0.82822(6) 0.65644(8) 0.2500
H9_6 H 0.8505 0.7010 0.2500
C16_6 C 0.82833(9) 0.55671(12) 0.25555(7)
H10_6 H 0.8504 0.5344 0.2591
C17_6 C 0.76145(6) 0.52290(8) 0.2500
C18_6 C 0.72550(6) 0.45100(8) 0.2500
C19_6 C 0.74699(11) 0.41686(16) 0.27747(10)
H11_6 H 0.7842 0.4387 0.2963
C20_6 C 0.71332(13) 0.34992(18) 0.27724(11)
H12_6 H 0.7286 0.3279 0.2959
C21_6 C 0.65788(7) 0.31576(10) 0.2500
C22_6 C 0.62228(7) 0.24456(10) 0.2500
C23_6 C 0.62256(18) 0.20989(25) 0.29125(12)
H13_6 H 0.6461 0.2323 0.3190
C24_6 C 0.51841(7) 0.03682(10) 0.2500
C25_6 C 0.55424(7) 0.10848(10) 0.2500
C26_6 C 0.58901(17) 0.14310(23) 0.29255(12)
H14_6 H 0.5894 0.1214 0.3210
C30_6 C 0.51230(10) 0.85814(13) 0.24227(7)
C31_6 C 0.54680(12) 0.82013(15) 0.23905(7)
C32_6 C 0.57382(17) 0.81077(20) 0.28234(9)
H16_6 H 0.5693 0.8268 0.3124
C33_6 C 0.55420(14) 0.79628(17) 0.19517(9)
H17_6 H 0.5369 0.8024 0.1662
C34_6 C 0.58752(14) 0.76302(17) 0.19363(9)
H18_6 H 0.5906 0.7454 0.1638
C35_6 C 0.61630(14) 0.75570(17) 0.23557(9)
C36_6 C 0.60640(19) 0.77824(22) 0.28004(10)
H19_6 H 0.6225 0.7709 0.3091
C37_6 C 0.65585(12) 0.72365(15) 0.23413(8)
C38_6 C 0.63857(11) 0.66980(15) 0.20538(8)
H20_6 H 0.6034 0.6546 0.1843
C39_6 C 0.67402(9) 0.63821(13) 0.20794(8)
H21_6 H 0.6621 0.6023 0.1881
C40_6 C 0.72627(9) 0.65891(12) 0.23910(7)
C41_6 C 0.74436(13) 0.71431(17) 0.26639(11)
H22_6 H 0.7803 0.7303 0.2867
C42_6 C 0.70997(15) 0.74599(19) 0.26389(11)
H23_6 H 0.7233 0.7831 0.2825
C43_6 C 0.76157(9) 0.62364(12) 0.24417(7)
C44_6 C 0.72838(8) 0.55671(12) 0.24445(7)
H24_6 H 0.6840 0.5344 0.2409
C45_6 C 0.66987(11) 0.41686(16) 0.22253(10)
H25_6 H 0.6545 0.4387 0.2037
C46_6 C 0.63660(13) 0.34992(18) 0.22276(11)
H26_6 H 0.5993 0.3279 0.2041
C47_6 C 0.58733(17) 0.20989(25) 0.20875(12)
H27_6 H 0.5862 0.2323 0.1810
C48_6 C 0.55409(16) 0.14310(23) 0.20745(12)
H28_6 H 0.5320 0.1214 0.1790
loop_
_geom_bond_atom_site_label_1
_geom_bond_atom_site_label_2
_geom_bond_site_symmetry_1
_geom_bond_site_symmetry_2
O2 Zn1 1_555 1_555
O3 C1 1_555 1_555
C1 O2 1_555 1_555
C2 C1 1_555 1_555
C3 C2 1_555 1_555
H1 C3 1_555 1_555
C4 C2 1_555 1_555
H2 C4 1_555 1_555
C5 C4 1_555 1_555
H3 C5 1_555 1_555
C6 C5 1_555 1_555
C7 C3 1_555 1_555
H4 C7 1_555 1_555
C8 C6 1_555 1_555
C9 C8 1_555 1_555
H5 C9 1_555 1_555
C13 C8 1_555 1_555
H8 C13 1_555 1_555
Zn3 O3 1_555 1_555
O10 Zn1 1_555 1_555
O13 Zn1 1_555 1_555
C6 C7 1_555 1_555
S1 C27 1_555 1_555
O1 C29 1_555 1_555
O5 C29 1_555 1_555
C27 C28 1_555 1_555
C28 H15 1_555 1_555
C29 C27 1_555 1_555
Zn2 O6 1_555 1_555
O6 C51 1_555 1_555
O8 Zn2 1_555 1_555
O11 Zn2 1_555 1_555
O14 Zn2 1_555 1_555
O15 C51 1_555 1_555
C49 S1 1_555 1_555
C50 C28 1_555 1_555
H29 C50 1_555 1_555
C51 C49 1_555 1_555
C49 C50 1_555 1_555
O13 C24 1_555 1_555
H6 C10 1_555 1_555
C11 C10 1_555 1_555
C12 C11 1_555 1_555
H7 C12 1_555 1_555
C14 C11 1_555 1_555
C15 C14 1_555 1_555
H9 C15 1_555 1_555
C16 C14 1_555 1_555
H10 C16 1_555 1_555
C17 C16 1_555 1_555
C18 C17 1_555 1_555
C19 C18 1_555 1_555
H11 C19 1_555 1_555
C20 C19 1_555 1_555
H12 C20 1_555 1_555
C21 C20 1_555 1_555
C22 C21 1_555 1_555
C23 C22 1_555 1_555
H13 C23 1_555 1_555
C24 C25 1_555 1_555
C25 C26 1_555 1_555
C26 C23 1_555 1_555
H14 C26 1_555 1_555
Zn3 O12 1_555 1_555
O12 C24 1_555 1_555
H21 C39 1_555 1_555
C40 C39 1_555 1_555
C41 C40 1_555 1_555
H22 C41 1_555 1_555
C43 C15 1_555 1_555
C44 C17 1_555 1_555
H24 C44 1_555 1_555
C45 C18 1_555 1_555
H25 C45 1_555 1_555
C46 C21 1_555 1_555
H26 C46 1_555 1_555
C47 C22 1_555 1_555
H27 C47 1_555 1_555
C48 C25 1_555 1_555
H28 C48 1_555 1_555
C40 C43 1_555 1_555
C43 C44 1_555 1_555
C45 C46 1_555 1_555
C47 C48 1_555 1_555
Zn3 O7 1_555 1_555
O7 C30 1_555 1_555
O10 C30 1_555 1_555
C30 C31 1_555 1_555
C31 C32 1_555 1_555
C32 H16 1_555 1_555
C33 C31 1_555 1_555
C34 C33 1_555 1_555
C35 C34 1_555 1_555
C36 C32 1_555 1_555
H19 C36 1_555 1_555
C37 C35 1_555 1_555
C38 C37 1_555 1_555
H20 C38 1_555 1_555
C42 C37 1_555 1_555
H23 C42 1_555 1_555
C35 C36 1_555 1_555
Zn6 O9 1_555 1_555
O8 C30_2 1_555 1_555
O9 C30_2 1_555 1_555
C30_2 C31_2 1_555 1_555
C31_2 C32_2 1_555 1_555
C32_2 H16_2 1_555 1_555
C33_2 C31_2 1_555 1_555
H17 C33_2 1_555 1_555
C34_2 C33_2 1_555 1_555
H18 C34_2 1_555 1_555
C35_2 C34_2 1_555 1_555
C36_2 C32_2 1_555 1_555
H19_2 C36_2 1_555 1_555
C37_2 C35_2 1_555 1_555
C38_2 C37_2 1_555 1_555
H20_2 C38_2 1_555 1_555
C42_2 C37_2 1_555 1_555
H23_2 C42_2 1_555 1_555
C35_2 C36_2 1_555 1_555
O4 C24_2 1_555 1_555
H6_2 C10_2 1_555 1_555
C11_2 C10_2 1_555 1_555
C12_2 C11_2 1_555 1_555
H7_2 C12_2 1_555 1_555
C14_2 C11_2 1_555 1_555
C15_2 C14_2 1_555 1_555
H9_2 C15_2 1_555 1_555
C16_2 C14_2 1_555 1_555
H10_2 C16_2 1_555 1_555
C17_2 C16_2 1_555 1_555
C18_2 C17_2 1_555 1_555
C19_2 C18_2 1_555 1_555
H11_2 C19_2 1_555 1_555
C20_2 C19_2 1_555 1_555
H12_2 C20_2 1_555 1_555
C21_2 C20_2 1_555 1_555
C22_2 C21_2 1_555 1_555
C23_2 C22_2 1_555 1_555
H13_2 C23_2 1_555 1_555
C24_2 C25_2 1_555 1_555
C25_2 C26_2 1_555 1_555
C26_2 C23_2 1_555 1_555
H14_2 C26_2 1_555 1_555
Zn6 O4 1_555 1_555
O14 C24_2 1_555 1_555
H21_2 C39_2 1_555 1_555
C40_2 C39_2 1_555 1_555
C41_2 C40_2 1_555 1_555
H22_2 C41_2 1_555 1_555
C43_2 C15_2 1_555 1_555
C44_2 C17_2 1_555 1_555
H24_2 C44_2 1_555 1_555
C45_2 C18_2 1_555 1_555
H25_2 C45_2 1_555 1_555
C46_2 C21_2 1_555 1_555
H26_2 C46_2 1_555 1_555
C47_2 C22_2 1_555 1_555
H27_2 C47_2 1_555 1_555
C48_2 C25_2 1_555 1_555
H28_2 C48_2 1_555 1_555
C40_2 C43_2 1_555 1_555
C43_2 C44_2 1_555 1_555
C45_2 C46_2 1_555 1_555
C47_2 C48_2 1_555 1_555
Zn6 O1_2 1_555 1_555
S1_2 C27_2 1_555 1_555
O1_2 C29_2 1_555 1_555
O2_2 Zn6 1_555 1_555
O11 C1_2 1_555 1_555
O5_2 C29_2 1_555 1_555
C1_2 O2_2 1_555 1_555
C2_2 C1_2 1_555 1_555
C3_2 C2_2 1_555 1_555
H1_2 C3_2 1_555 1_555
C4_2 C2_2 1_555 1_555
H2_2 C4_2 1_555 1_555
C5_2 C4_2 1_555 1_555
H3_2 C5_2 1_555 1_555
C6_2 C5_2 1_555 1_555
C7_2 C3_2 1_555 1_555
H4_2 C7_2 1_555 1_555
C8_2 C6_2 1_555 1_555
C9_2 C8_2 1_555 1_555
H5_2 C9_2 1_555 1_555
C13_2 C8_2 1_555 1_555
H8_2 C13_2 1_555 1_555
C27_2 C28_2 1_555 1_555
C28_2 H15_2 1_555 1_555
C29_2 C27_2 1_555 1_555
Zn3 O6_2 1_555 1_555
O6_2 C51_2 1_555 1_555
O15_2 C51_2 1_555 1_555
C49_2 S1_2 1_555 1_555
C50_2 C28_2 1_555 1_555
H29_2 C50_2 1_555 1_555
C51_2 C49_2 1_555 1_555
C6_2 C7_2 1_555 1_555
C49_2 C50_2 1_555 1_555
Zn4 O1_3 1_555 1_555
S1_3 C27_3 1_555 1_555
O1_3 C29_3 1_555 1_555
O2_3 Zn4 1_555 1_555
O3_2 C1_3 1_555 1_555
O4_2 C24_3 1_555 1_555
O5_3 C29_3 1_555 1_555
C1_3 O2_3 1_555 1_555
C2_3 C1_3 1_555 1_555
C3_3 C2_3 1_555 1_555
H1_3 C3_3 1_555 1_555
C4_3 C2_3 1_555 1_555
C5_3 C4_3 1_555 1_555
C6_3 C5_3 1_555 1_555
C7_3 C3_3 1_555 1_555
H4_3 C7_3 1_555 1_555
C8_3 C6_3 1_555 1_555
C9_3 C8_3 1_555 1_555
H5_3 C9_3 1_555 1_555
C10_3 C9_3 1_555 1_555
H6_3 C10_3 1_555 1_555
C11_3 C10_3 1_555 1_555
C12_3 C11_3 1_555 1_555
H7_3 C12_3 1_555 1_555
C13_3 C8_3 1_555 1_555
H8_3 C13_3 1_555 1_555
C14_3 C11_3 1_555 1_555
C15_3 C14_3 1_555 1_555
H9_3 C15_3 1_555 1_555
C16_3 C14_3 1_555 1_555
H10_3 C16_3 1_555 1_555
C17_3 C16_3 1_555 1_555
C18_3 C17_3 1_555 1_555
C19_3 C18_3 1_555 1_555
H11_3 C19_3 1_555 1_555
C20_3 C19_3 1_555 1_555
H12_3 C20_3 1_555 1_555
C21_3 C20_3 1_555 1_555
C22_3 C21_3 1_555 1_555
C23_3 C22_3 1_555 1_555
H13_3 C23_3 1_555 1_555
C24_3 C25_3 1_555 1_555
C25_3 C26_3 1_555 1_555
C26_3 C23_3 1_555 1_555
H14_3 C26_3 1_555 1_555
C27_3 C28_3 1_555 1_555
C28_3 H15_3 1_555 1_555
C29_3 C27_3 1_555 1_555
Zn7 O3_2 1_555 1_555
O10_2 Zn4 1_555 1_555
O12_2 C24_3 1_555 1_555
H21_3 C39_3 1_555 1_555
C40_3 C39_3 1_555 1_555
C41_3 C40_3 1_555 1_555
H22_3 C41_3 1_555 1_555
C43_3 C15_3 1_555 1_555
C44_3 C17_3 1_555 1_555
H24_3 C44_3 1_555 1_555
C45_3 C18_3 1_555 1_555
H25_3 C45_3 1_555 1_555
C46_3 C21_3 1_555 1_555
H26_3 C46_3 1_555 1_555
C47_3 C22_3 1_555 1_555
H27_3 C47_3 1_555 1_555
C48_3 C25_3 1_555 1_555
H28_3 C48_3 1_555 1_555
C6_3 C7_3 1_555 1_555
C12_3 C13_3 1_555 1_555
C40_3 C43_3 1_555 1_555
C43_3 C44_3 1_555 1_555
C45_3 C46_3 1_555 1_555
C47_3 C48_3 1_555 1_555
Zn7 O7_2 1_555 1_555
O7_2 C30_3 1_555 1_555
O10_2 C30_3 1_555 1_555
C30_3 C31_3 1_555 1_555
C31_3 C32_3 1_555 1_555
C32_3 H16_3 1_555 1_555
C33_3 C31_3 1_555 1_555
H17_3 C33_3 1_555 1_555
C34_3 C33_3 1_555 1_555
H18_3 C34_3 1_555 1_555
C35_3 C34_3 1_555 1_555
C36_3 C32_3 1_555 1_555
H19_3 C36_3 1_555 1_555
C37_3 C35_3 1_555 1_555
C38_3 C37_3 1_555 1_555
H20_3 C38_3 1_555 1_555
C42_3 C37_3 1_555 1_555
H23_3 C42_3 1_555 1_555
C35_3 C36_3 1_555 1_555
Zn2_2 O6_3 1_555 1_555
O6_3 C51_3 1_555 1_555
O8_2 Zn2_2 1_555 1_555
O11_2 Zn2_2 1_555 1_555
O15_3 C51_3 1_555 1_555
C49_3 S1_4 1_555 1_555
H29_3 C50_3 1_555 1_555
C51_3 C49_3 1_555 1_555
C49_3 C50_3 1_555 1_555
O6_4 C51_4 1_555 1_555
O15_4 C51_4 1_555 1_555
C49_4 S1_5 1_555 1_555
H29_4 C50_4 1_555 1_555
C51_4 C49_4 1_555 1_555
C49_4 C50_4 1_555 1_555
Zn6_2 O9_2 1_555 1_555
O8_2 C30_4 1_555 1_555
O9_2 C30_4 1_555 1_555
C30_4 C31_4 1_555 1_555
C31_4 C32_4 1_555 1_555
C32_4 H16_4 1_555 1_555
C33_4 C31_4 1_555 1_555
H17_4 C33_4 1_555 1_555
C34_4 C33_4 1_555 1_555
H18_4 C34_4 1_555 1_555
C35_4 C34_4 1_555 1_555
C36_4 C32_4 1_555 1_555
H19_4 C36_4 1_555 1_555
C37_4 C35_4 1_555 1_555
C38_4 C37_4 1_555 1_555
H20_4 C38_4 1_555 1_555
C42_4 C37_4 1_555 1_555
H23_4 C42_4 1_555 1_555
C35_4 C36_4 1_555 1_555
Zn6_2 O1_4 1_555 1_555
S1_6 C27_4 1_555 1_555
O1_4 C29_4 1_555 1_555
O2_4 Zn6_2 1_555 1_555
O11_2 C1_4 1_555 1_555
O13_2 C24_4 1_555 1_555
O5_4 C29_4 1_555 1_555
C1_4 O2_4 1_555 1_555
C2_4 C1_4 1_555 1_555
C3_4 C2_4 1_555 1_555
H1_4 C3_4 1_555 1_555
C4_4 C2_4 1_555 1_555
H2_3 C4_4 1_555 1_555
C5_4 C4_4 1_555 1_555
H3_3 C5_4 1_555 1_555
C6_4 C5_4 1_555 1_555
C7_4 C3_4 1_555 1_555
H4_4 C7_4 1_555 1_555
C8_4 C6_4 1_555 1_555
C9_4 C8_4 1_555 1_555
H5_4 C9_4 1_555 1_555
C10_4 C9_4 1_555 1_555
H6_4 C10_4 1_555 1_555
C11_4 C10_4 1_555 1_555
C12_4 C11_4 1_555 1_555
H7_4 C12_4 1_555 1_555
C13_4 C8_4 1_555 1_555
H8_4 C13_4 1_555 1_555
C14_4 C11_4 1_555 1_555
C15_4 C14_4 1_555 1_555
H9_4 C15_4 1_555 1_555
C16_4 C14_4 1_555 1_555
H10_4 C16_4 1_555 1_555
C17_4 C16_4 1_555 1_555
C18_4 C17_4 1_555 1_555
C19_4 C18_4 1_555 1_555
H11_4 C19_4 1_555 1_555
C20_4 C19_4 1_555 1_555
H12_4 C20_4 1_555 1_555
C21_4 C20_4 1_555 1_555
C22_4 C21_4 1_555 1_555
C23_4 C22_4 1_555 1_555
H13_4 C23_4 1_555 1_555
C24_4 C25_4 1_555 1_555
C25_4 C26_4 1_555 1_555
C26_4 C23_4 1_555 1_555
H14_4 C26_4 1_555 1_555
C27_4 C28_4 1_555 1_555
C28_4 H15_4 1_555 1_555
C29_4 C27_4 1_555 1_555
O14_2 C24_4 1_555 1_555
H21_4 C39_4 1_555 1_555
C40_4 C39_4 1_555 1_555
C41_4 C40_4 1_555 1_555
H22_4 C41_4 1_555 1_555
C43_4 C15_4 1_555 1_555
C44_4 C17_4 1_555 1_555
H24_4 C44_4 1_555 1_555
C45_4 C18_4 1_555 1_555
H25_4 C45_4 1_555 1_555
C46_4 C21_4 1_555 1_555
H26_4 C46_4 1_555 1_555
C47_4 C22_4 1_555 1_555
H27_4 C47_4 1_555 1_555
C48_4 C25_4 1_555 1_555
H28_4 C48_4 1_555 1_555
C6_4 C7_4 1_555 1_555
C12_4 C13_4 1_555 1_555
C40_4 C43_4 1_555 1_555
C43_4 C44_4 1_555 1_555
C45_4 C46_4 1_555 1_555
C47_4 C48_4 1_555 1_555
O4_3 C24_5 1_555 1_555
H6_5 C10_5 1_555 1_555
C11_5 C10_5 1_555 1_555
C12_5 C11_5 1_555 1_555
H7_5 C12_5 1_555 1_555
C14_5 C11_5 1_555 1_555
C15_5 C14_5 1_555 1_555
H9_5 C15_5 1_555 1_555
C16_5 C14_5 1_555 1_555
H10_5 C16_5 1_555 1_555
C17_5 C16_5 1_555 1_555
C18_5 C17_5 1_555 1_555
C19_5 C18_5 1_555 1_555
H11_5 C19_5 1_555 1_555
C20_5 C19_5 1_555 1_555
H12_5 C20_5 1_555 1_555
C21_5 C20_5 1_555 1_555
C22_5 C21_5 1_555 1_555
C23_5 C22_5 1_555 1_555
H13_5 C23_5 1_555 1_555
C24_5 C25_5 1_555 1_555
C25_5 C26_5 1_555 1_555
C26_5 C23_5 1_555 1_555
H14_5 C26_5 1_555 1_555
Zn7_2 O7_3 1_555 1_555
Zn4_2 O9_3 1_555 1_555
O7_3 C30_5 1_555 1_555
O9_3 C30_5 1_555 1_555
O12_3 C24_5 1_555 1_555
C30_5 C31_5 1_555 1_555
C31_5 C32_5 1_555 1_555
C32_5 H16_5 1_555 1_555
C33_5 C31_5 1_555 1_555
H17_5 C33_5 1_555 1_555
C34_5 C33_5 1_555 1_555
H18_5 C34_5 1_555 1_555
C35_5 C34_5 1_555 1_555
C36_5 C32_5 1_555 1_555
H19_5 C36_5 1_555 1_555
C37_5 C35_5 1_555 1_555
C38_5 C37_5 1_555 1_555
H20_5 C38_5 1_555 1_555
C39_5 C38_5 1_555 1_555
H21_5 C39_5 1_555 1_555
C40_5 C39_5 1_555 1_555
C41_5 C40_5 1_555 1_555
H22_5 C41_5 1_555 1_555
C42_5 C37_5 1_555 1_555
H23_5 C42_5 1_555 1_555
C43_5 C15_5 1_555 1_555
C44_5 C17_5 1_555 1_555
H24_5 C44_5 1_555 1_555
C45_5 C18_5 1_555 1_555
H25_5 C45_5 1_555 1_555
C46_5 C21_5 1_555 1_555
H26_5 C46_5 1_555 1_555
C47_5 C22_5 1_555 1_555
H27_5 C47_5 1_555 1_555
C48_5 C25_5 1_555 1_555
H28_5 C48_5 1_555 1_555
C35_5 C36_5 1_555 1_555
C40_5 C43_5 1_555 1_555
C41_5 C42_5 1_555 1_555
C43_5 C44_5 1_555 1_555
C45_5 C46_5 1_555 1_555
C47_5 C48_5 1_555 1_555
Zn4_2 O1_5 1_555 1_555
S1_7 C27_5 1_555 1_555
O1_5 C29_5 1_555 1_555
O2_5 Zn4_2 1_555 1_555
O3_3 C1_5 1_555 1_555
O5_5 C29_5 1_555 1_555
C1_5 O2_5 1_555 1_555
C2_5 C1_5 1_555 1_555
C3_5 C2_5 1_555 1_555
H1_5 C3_5 1_555 1_555
C4_5 C2_5 1_555 1_555
H2_5 C4_5 1_555 1_555
C5_5 C4_5 1_555 1_555
H3_5 C5_5 1_555 1_555
C6_5 C5_5 1_555 1_555
C7_5 C3_5 1_555 1_555
H4_5 C7_5 1_555 1_555
C8_5 C6_5 1_555 1_555
C9_5 C8_5 1_555 1_555
H5_5 C9_5 1_555 1_555
C13_5 C8_5 1_555 1_555
H8_5 C13_5 1_555 1_555
C27_5 C28_5 1_555 1_555
C28_5 H15_5 1_555 1_555
C29_5 C27_5 1_555 1_555
Zn7_2 O3_3 1_555 1_555
C6_5 C7_5 1_555 1_555
Zn2_3 O6_5 1_555 1_555
O6_5 C51_5 1_555 1_555
O8_3 Zn2_3 1_555 1_555
O11_3 Zn2_3 1_555 1_555
O15_5 C51_5 1_555 1_555
C49_5 S1_8 1_555 1_555
H29_5 C50_5 1_555 1_555
C51_5 C49_5 1_555 1_555
C49_5 C50_5 1_555 1_555
Zn7_2 O6_6 1_555 1_555
O6_6 C51_6 1_555 1_555
O15_6 C51_6 1_555 1_555
C49_6 S1_10 1_555 1_555
H29_6 C50_6 1_555 1_555
C51_6 C49_6 1_555 1_555
C49_6 C50_6 1_555 1_555
Zn1_2 O1_6 1_555 1_555
S1_11 C27_6 1_555 1_555
O1_6 C29_6 1_555 1_555
O2_6 Zn1_2 1_555 1_555
O11_3 C1_6 1_555 1_555
O5_6 C29_6 1_555 1_555
C1_6 O2_6 1_555 1_555
C2_6 C1_6 1_555 1_555
C3_6 C2_6 1_555 1_555
H1_6 C3_6 1_555 1_555
C4_6 C2_6 1_555 1_555
H2_6 C4_6 1_555 1_555
C5_6 C4_6 1_555 1_555
H3_6 C5_6 1_555 1_555
C6_6 C5_6 1_555 1_555
C7_6 C3_6 1_555 1_555
H4_6 C7_6 1_555 1_555
C8_6 C6_6 1_555 1_555
C9_6 C8_6 1_555 1_555
H5_6 C9_6 1_555 1_555
C13_6 C8_6 1_555 1_555
H8_6 C13_6 1_555 1_555
C27_6 C28_6 1_555 1_555
C28_6 H15_6 1_555 1_555
C29_6 C27_6 1_555 1_555
O10_3 Zn1_2 1_555 1_555
C6_6 C7_6 1_555 1_555
O13_3 C24_6 1_555 1_555
H6_6 C10_6 1_555 1_555
C11_6 C10_6 1_555 1_555
C12_6 C11_6 1_555 1_555
H7_6 C12_6 1_555 1_555
C14_6 C11_6 1_555 1_555
C15_6 C14_6 1_555 1_555
H9_6 C15_6 1_555 1_555
C16_6 C14_6 1_555 1_555
H10_6 C16_6 1_555 1_555
C17_6 C16_6 1_555 1_555
C18_6 C17_6 1_555 1_555
C19_6 C18_6 1_555 1_555
H11_6 C19_6 1_555 1_555
C20_6 C19_6 1_555 1_555
H12_6 C20_6 1_555 1_555
C21_6 C20_6 1_555 1_555
C22_6 C21_6 1_555 1_555
C23_6 C22_6 1_555 1_555
H13_6 C23_6 1_555 1_555
C24_6 C25_6 1_555 1_555
C25_6 C26_6 1_555 1_555
C26_6 C23_6 1_555 1_555
H14_6 C26_6 1_555 1_555
O8_3 C30_6 1_555 1_555
O10_3 C30_6 1_555 1_555
O14_3 C24_6 1_555 1_555
C30_6 C31_6 1_555 1_555
C31_6 C32_6 1_555 1_555
C32_6 H16_6 1_555 1_555
C33_6 C31_6 1_555 1_555
H17_6 C33_6 1_555 1_555
C34_6 C33_6 1_555 1_555
H18_6 C34_6 1_555 1_555
C35_6 C34_6 1_555 1_555
C36_6 C32_6 1_555 1_555
H19_6 C36_6 1_555 1_555
C37_6 C35_6 1_555 1_555
C38_6 C37_6 1_555 1_555
H20_6 C38_6 1_555 1_555
C39_6 C38_6 1_555 1_555
H21_6 C39_6 1_555 1_555
C40_6 C39_6 1_555 1_555
C41_6 C40_6 1_555 1_555
H22_6 C41_6 1_555 1_555
C42_6 C37_6 1_555 1_555
H23_6 C42_6 1_555 1_555
C43_6 C15_6 1_555 1_555
C44_6 C17_6 1_555 1_555
H24_6 C44_6 1_555 1_555
C45_6 C18_6 1_555 1_555
H25_6 C45_6 1_555 1_555
C46_6 C21_6 1_555 1_555
H26_6 C46_6 1_555 1_555
C47_6 C22_6 1_555 1_555
H27_6 C47_6 1_555 1_555
C48_6 C25_6 1_555 1_555
H28_6 C48_6 1_555 1_555
C35_6 C36_6 1_555 1_555
C40_6 C43_6 1_555 1_555
C41_6 C42_6 1_555 1_555
C43_6 C44_6 1_555 1_555
C45_6 C46_6 1_555 1_555
C47_6 C48_6 1_555 1_555

#END
