
###############################################################################
#
# This file contains modified crystal structure data generated from the
# MOF subset of the Cambridge Structural Database (CSD) v543 
# hosted by the Cambridge Crystallographic Data Centre (CCDC).
#
# This work is licensed under the Creative Commons
# Attribution-NonCommercial-ShareAlike 4.0 International License.
# To view a copy of this license, visit
# http://creativecommons.org/licenses/by-nc-sa/4.0/
# or send a letter to
# Creative Commons, PO Box 1866, Mountain View, CA 94042, USA.
#
# CIF created using the CSD Python API on 29 September 2022
# The structure has been converted into the P1 space group
# The structure has a 3D framework
# The original CSD entry CAXVUU is in the rhombohedral crystal system
# The framework has been calculated to contain at least 10.0% void space
# The void calculation uses a probe of radius 1.32A, grid spacing 0.4
#
###############################################################################

data_CAXVUU
_chemical_formula_moiety         '(C72 H18 Fe18 O90)n'
_symmetry_cell_setting           triclinic
_symmetry_space_group_name_H-M   'P 1'
_symmetry_Int_Tables_number      1
_space_group_name_Hall           'P 1'
loop_
_symmetry_equiv_pos_site_id
_symmetry_equiv_pos_as_xyz
1 x,y,z
_cell_length_a                   25.9689(15)
_cell_length_b                   25.9689(15)
_cell_length_c                   6.8209(9)
_cell_angle_alpha                90
_cell_angle_beta                 90
_cell_angle_gamma                120
_cell_volume                     3983.63
loop_
_atom_site_label
_atom_site_type_symbol
_atom_site_fract_x
_atom_site_fract_y
_atom_site_fract_z
Fe1 Fe 0.3801(5) 0.3468(6) 0.1382(15)
O1 O 0.3273(8) 0.2982(8) 0.3592(33)
O2 O 0.3078(10) 0.2233(11) 0.6082(27)
O3 O 0.3510(8) 0.2706(5) 0.0014(30)
C1 C 0.3158(12) 0.2469(8) 0.4104(25)
C2 C 0.3365(11) 0.2120(9) 0.2843(27)
C3 C 0.3477(9) 0.2243(8) 0.0771(29)
C4 C 0.3091(9) 0.1543(9) 0.3490(28)
H1 H 0.2983(16) 0.1440(18) 0.531(5)
O4 O 0.4710(14) 0.3871(20) 0.275(5)
O5 O 0.481(4) 0.365(5) 0.073(11)
Fe3 Fe 0.3199(6) 0.3666(8) 0.4715(15)
Fe4 Fe 0.3000(8) 0.2866(5) 0.8049(15)
Fe8 Fe 0.3666(8) 0.0468(5) 0.5285(15)
O7 O 0.3042(11) 0.3394(8) 0.0259(33)
O12 O 0.3157(8) 0.0627(5) 0.3319(30)
O13 O 0.3961(5) 0.4137(9) 0.3347(30)
C6 C 0.3302(11) 0.1213(9) 0.0490(27)
C7 C 0.3190(9) 0.1090(8) 0.2562(29)
O6 O 0.3394(8) 0.0351(8) 0.9741(33)
O9 O 0.3589(10) 0.1100(11) 0.7251(27)
O10 O 0.4434(11) 0.4178(15) 0.9415(27)
C5 C 0.3509(12) 0.0864(8) 0.9229(25)
C8 C 0.3576(9) 0.1790(9) 0.9843(28)
H2 H 0.3684(16) 0.1893(18) 0.802(5)
Fe2 Fe 0.2866(5) 0.9865(6) 0.1951(15)
O8 O 0.3624(11) 0.9940(8) 0.3075(33)
O11 O 0.2233(11) 0.9155(15) 0.3918(27)
O15 O 0.1957(14) 0.9462(20) 0.058(5)
O16 O 0.186(4) 0.968(5) 0.260(11)
Fe6 Fe 0.3468(6) 0.9667(8) 0.8618(15)
O14 O 0.2706(5) 0.9196(9) 0.9986(30)
Fe2_2 Fe 0.0135(6) 0.3000(8) 0.1951(15)
O8_2 O 0.0060(8) 0.3685(14) 0.3075(33)
O11_2 O 0.0845(15) 0.3078(19) 0.3918(27)
O15_2 O 0.0538(20) 0.2494(24) 0.058(5)
O16_2 O 0.032(5) 0.217(6) 0.260(11)
Fe6_2 Fe 0.0333(8) 0.3801(10) 0.8618(15)
O14_2 O 0.0804(9) 0.3510(10) 0.9986(30)
Fe1_2 Fe 0.6532(6) 0.0333(8) 0.1382(15)
O1_2 O 0.7018(8) 0.0291(11) 0.3592(33)
O2_2 O 0.7767(11) 0.0845(15) 0.6082(27)
O3_2 O 0.7294(5) 0.0804(9) 0.0014(30)
C1_2 C 0.7531(8) 0.0689(14) 0.4104(25)
C2_2 C 0.7880(9) 0.1245(14) 0.2843(27)
C3_2 C 0.7757(8) 0.1234(12) 0.0771(29)
C4_2 C 0.8457(9) 0.1548(13) 0.3490(28)
H1_2 H 0.8560(18) 0.1543(24) 0.531(5)
O4_2 O 0.6129(20) 0.0839(24) 0.275(5)
O5_2 O 0.635(5) 0.116(6) 0.073(11)
Fe4_2 Fe 0.7134(5) 0.0135(9) 0.8049(15)
Fe8_2 Fe 0.9532(5) 0.3199(9) 0.5285(15)
O12_2 O 0.9373(5) 0.2529(9) 0.3319(30)
C6_2 C 0.8787(9) 0.2088(14) 0.0490(27)
C7_2 C 0.8910(8) 0.2099(12) 0.2562(29)
O6_2 O 0.9649(8) 0.3042(11) 0.9741(33)
O9_2 O 0.8900(11) 0.2488(15) 0.7251(27)
O10_2 O 0.5822(15) 0.0255(19) 0.9415(27)
C5_2 C 0.9136(8) 0.2644(14) 0.9229(25)
C8_2 C 0.8210(9) 0.1785(13) 0.9843(28)
H2_2 H 0.8107(18) 0.1790(24) 0.802(5)
Fe3_2 Fe 0.6334(8) 0.9532(10) 0.4715(15)
O7_2 O 0.6606(8) 0.9649(14) 0.0259(33)
O13_2 O 0.5863(9) 0.9823(10) 0.3347(30)
Fe3_3 Fe 0.0468(10) 0.6801(6) 0.4715(15)
O7_3 O 0.0351(14) 0.6958(11) 0.0259(33)
O13_3 O 0.0177(10) 0.6039(5) 0.3347(30)
Fe1_3 Fe 0.9667(8) 0.6199(5) 0.1382(15)
O1_3 O 0.9709(11) 0.6727(8) 0.3592(33)
O2_3 O 0.9155(15) 0.6922(10) 0.6082(27)
O3_3 O 0.9196(9) 0.6490(8) 0.0014(30)
C1_3 C 0.9311(14) 0.6842(12) 0.4104(25)
C2_3 C 0.8755(14) 0.6635(11) 0.2843(27)
C3_3 C 0.8766(12) 0.6523(9) 0.0771(29)
C4_3 C 0.8452(13) 0.6909(9) 0.3490(28)
H1_3 H 0.8457(24) 0.7017(16) 0.531(5)
O4_3 O 0.9161(24) 0.5290(14) 0.275(5)
O5_3 O 0.884(6) 0.519(4) 0.073(11)
Fe2_3 Fe 0.7000(8) 0.7134(5) 0.1951(15)
Fe4_3 Fe 0.9865(9) 0.7000(8) 0.8049(15)
Fe8_3 Fe 0.6801(9) 0.6334(8) 0.5285(15)
O8_3 O 0.6315(14) 0.6376(11) 0.3075(33)
O11_3 O 0.6922(19) 0.7767(11) 0.3918(27)
O12_3 O 0.7471(9) 0.6843(8) 0.3319(30)
C6_3 C 0.7912(14) 0.6698(11) 0.0490(27)
C7_3 C 0.7901(12) 0.6810(9) 0.2562(29)
O15_3 O 0.7506(24) 0.8043(14) 0.058(5)
O16_3 O 0.783(6) 0.814(4) 0.260(11)
Fe6_3 Fe 0.6199(10) 0.6532(6) 0.8618(15)
O6_3 O 0.6958(11) 0.6606(8) 0.9741(33)
O9_3 O 0.7512(15) 0.6411(10) 0.7251(27)
O10_3 O 0.9745(19) 0.5566(11) 0.9415(27)
O14_3 O 0.6490(10) 0.7294(5) 0.9986(30)
C5_3 C 0.7356(14) 0.6491(12) 0.9229(25)
C8_3 C 0.8215(13) 0.6424(9) 0.9843(28)
H2_3 H 0.8210(24) 0.6316(16) 0.802(5)
O4_4 O 0.8043(14) 0.0538(20) 0.942(5)
O5_4 O 0.814(4) 0.032(5) 0.740(11)
O7_4 O 0.6376(11) 0.0060(8) 0.6925(33)
O2_4 O 0.6411(10) 0.8900(11) 0.2749(27)
C1_4 C 0.6491(12) 0.9136(8) 0.0771(25)
C4_4 C 0.6424(9) 0.8210(9) 0.0157(28)
H1_4 H 0.6316(16) 0.8107(18) 0.198(5)
O11_4 O 0.5566(11) 0.5822(15) 0.0585(27)
O3_4 O 0.6843(8) 0.9373(5) 0.6681(30)
C2_4 C 0.6698(11) 0.8787(9) 0.9510(27)
C3_4 C 0.6810(9) 0.8910(8) 0.7438(29)
O6_4 O 0.6727(8) 0.7018(8) 0.6408(33)
O14_4 O 0.6039(5) 0.5863(9) 0.6653(30)
C5_4 C 0.6842(12) 0.7531(8) 0.5896(25)
C6_4 C 0.6635(11) 0.7880(9) 0.7157(27)
C7_4 C 0.6523(9) 0.7757(8) 0.9229(29)
C8_4 C 0.6909(9) 0.8457(9) 0.6510(28)
H2_4 H 0.7017(16) 0.8560(18) 0.469(5)
O15_4 O 0.5290(14) 0.6129(20) 0.725(5)
O16_4 O 0.519(4) 0.635(5) 0.927(11)
O14_5 O 0.4137(9) 0.0177(10) 0.6653(30)
O2_5 O 0.1100(11) 0.7512(15) 0.2749(27)
C1_5 C 0.0864(8) 0.7356(14) 0.0771(25)
C4_5 C 0.1790(9) 0.8215(13) 0.0157(28)
H1_5 H 0.1893(18) 0.8210(24) 0.198(5)
O11_5 O 0.4178(15) 0.9745(19) 0.0585(27)
O3_5 O 0.0627(5) 0.7471(9) 0.6681(30)
C2_5 C 0.1213(9) 0.7912(14) 0.9510(27)
C3_5 C 0.1090(8) 0.7901(12) 0.7438(29)
O6_5 O 0.2982(8) 0.9709(11) 0.6408(33)
C5_5 C 0.2469(8) 0.9311(14) 0.5896(25)
C6_5 C 0.2120(9) 0.8755(14) 0.7157(27)
C7_5 C 0.2243(8) 0.8766(12) 0.9229(29)
C8_5 C 0.1543(9) 0.8452(13) 0.6510(28)
H2_5 H 0.1440(18) 0.8457(24) 0.469(5)
O15_5 O 0.3871(20) 0.9161(24) 0.725(5)
O16_5 O 0.365(5) 0.884(6) 0.927(11)
O4_5 O 0.9462(20) 0.7506(24) 0.942(5)
O5_5 O 0.968(5) 0.783(6) 0.740(11)
O7_5 O 0.9940(8) 0.6315(14) 0.6925(33)
O2_6 O 0.2488(15) 0.3589(10) 0.2749(27)
C1_6 C 0.2644(14) 0.3509(12) 0.0771(25)
C4_6 C 0.1785(13) 0.3576(9) 0.0157(28)
H1_6 H 0.1790(24) 0.3684(16) 0.198(5)
O11_6 O 0.0255(19) 0.4434(11) 0.0585(27)
O3_6 O 0.2529(9) 0.3157(8) 0.6681(30)
C2_6 C 0.2088(14) 0.3302(11) 0.9510(27)
C3_6 C 0.2099(12) 0.3190(9) 0.7438(29)
O4_6 O 0.2494(24) 0.1957(14) 0.942(5)
O5_6 O 0.217(6) 0.186(4) 0.740(11)
O6_6 O 0.0291(11) 0.3273(8) 0.6408(33)
O7_6 O 0.3685(14) 0.3624(11) 0.6925(33)
C5_6 C 0.0689(14) 0.3158(12) 0.5896(25)
C6_6 C 0.1245(14) 0.3365(11) 0.7157(27)
C7_6 C 0.1234(12) 0.3477(9) 0.9229(29)
C8_6 C 0.1548(13) 0.3091(9) 0.6510(28)
H2_6 H 0.1543(24) 0.2983(16) 0.469(5)
O15_6 O 0.0839(24) 0.4710(14) 0.725(5)
O16_6 O 0.116(6) 0.481(4) 0.927(11)
O14_6 O 0.9823(10) 0.3961(5) 0.6653(30)
C2_7 C 0.0032(11) 0.5453(9) 0.6176(27)
C3_7 C 0.0144(9) 0.5576(8) 0.4104(29)
O4_7 O 0.1377(14) 0.7204(20) 0.608(5)
O5_7 O 0.148(4) 0.698(5) 0.406(11)
C5_7 C 0.0175(12) 0.4198(8) 0.2563(25)
C8_7 C 0.0242(9) 0.5124(9) 0.3177(28)
H2_7 H 0.0350(16) 0.5227(18) 0.136(5)
C1_7 C 0.9825(12) 0.5802(8) 0.7437(25)
C4_7 C 0.9758(9) 0.4876(9) 0.6823(28)
H1_7 H 0.9650(16) 0.4773(18) 0.864(5)
C6_7 C 0.9968(11) 0.4547(9) 0.3824(27)
C7_7 C 0.9856(9) 0.4424(8) 0.5896(29)
O15_7 O 0.8623(14) 0.2796(20) 0.392(5)
O16_7 O 0.852(4) 0.302(5) 0.594(11)
C1_8 C 0.4198(8) 0.4022(14) 0.7437(25)
C2_8 C 0.4547(9) 0.4578(14) 0.6176(27)
C3_8 C 0.4424(8) 0.4567(12) 0.4104(29)
C4_8 C 0.5124(9) 0.4881(13) 0.6823(28)
H1_8 H 0.5227(18) 0.4876(24) 0.864(5)
O4_8 O 0.2796(20) 0.4172(24) 0.608(5)
O5_8 O 0.302(5) 0.449(6) 0.406(11)
C5_8 C 0.5802(8) 0.5978(14) 0.2563(25)
C6_8 C 0.5453(9) 0.5422(14) 0.3824(27)
C7_8 C 0.5576(8) 0.5433(12) 0.5896(29)
C8_8 C 0.4876(9) 0.5119(13) 0.3177(28)
H2_8 H 0.4773(18) 0.5124(24) 0.136(5)
O15_8 O 0.7204(20) 0.5828(24) 0.392(5)
O16_8 O 0.698(5) 0.551(6) 0.594(11)
C1_9 C 0.5978(14) 0.0175(12) 0.7437(25)
C4_9 C 0.5119(13) 0.0242(9) 0.6823(28)
H1_9 H 0.5124(24) 0.0350(16) 0.864(5)
C6_9 C 0.4578(14) 0.0032(11) 0.3824(27)
C7_9 C 0.4567(12) 0.0144(9) 0.5896(29)
O15_9 O 0.4172(24) 0.1377(14) 0.392(5)
O16_9 O 0.449(6) 0.148(4) 0.594(11)
C2_9 C 0.5422(14) 0.9968(11) 0.6176(27)
C3_9 C 0.5433(12) 0.9856(9) 0.4104(29)
O4_9 O 0.5828(24) 0.8623(14) 0.608(5)
O5_9 O 0.551(6) 0.852(4) 0.406(11)
C5_9 C 0.4022(14) 0.9825(12) 0.2563(25)
C8_9 C 0.4881(13) 0.9758(9) 0.3177(28)
H2_9 H 0.4876(24) 0.9650(16) 0.136(5)
loop_
_geom_bond_atom_site_label_1
_geom_bond_atom_site_label_2
_geom_bond_site_symmetry_1
_geom_bond_site_symmetry_2
Fe1 O1 1_555 1_555
O1 C1 1_555 1_555
O2 C1 1_555 1_555
O3 Fe1 1_555 1_555
C1 C2 1_555 1_555
C2 C3 1_555 1_555
C3 O3 1_555 1_555
C4 C2 1_555 1_555
H1 C4 1_555 1_555
O4 Fe1 1_555 1_555
O5 Fe1 1_555 1_555
Fe3 O1 1_555 1_555
Fe4 O2 1_555 1_555
O7 Fe1 1_555 1_555
O13 Fe1 1_555 1_555
C6 C7 1_555 1_555
C7 C4 1_555 1_555
O4 O5 1_555 1_555
Fe3 O13 1_555 1_555
Fe8 O12 1_555 1_555
O12 C7 1_555 1_555
Fe8 O9 1_555 1_555
O6 C5 1_555 1_555
O9 C5 1_555 1_555
H2 C8 1_555 1_555
O8 Fe2 1_555 1_555
O11 Fe2 1_555 1_555
O15 Fe2 1_555 1_555
O16 Fe2 1_555 1_555
O15 O16 1_555 1_555
Fe6 O14 1_555 1_555
O8_2 Fe2_2 1_555 1_555
O11_2 Fe2_2 1_555 1_555
O15_2 Fe2_2 1_555 1_555
O16_2 Fe2_2 1_555 1_555
O15_2 O16_2 1_555 1_555
Fe6_2 O14_2 1_555 1_555
Fe1_2 O1_2 1_555 1_555
O1_2 C1_2 1_555 1_555
O2_2 C1_2 1_555 1_555
O3_2 Fe1_2 1_555 1_555
C1_2 C2_2 1_555 1_555
C2_2 C3_2 1_555 1_555
C3_2 O3_2 1_555 1_555
C4_2 C2_2 1_555 1_555
H1_2 C4_2 1_555 1_555
O4_2 Fe1_2 1_555 1_555
O5_2 Fe1_2 1_555 1_555
Fe4_2 O2_2 1_555 1_555
C6_2 C7_2 1_555 1_555
C7_2 C4_2 1_555 1_555
O4_2 O5_2 1_555 1_555
Fe8_2 O12_2 1_555 1_555
O12_2 C7_2 1_555 1_555
Fe8_2 O9_2 1_555 1_555
O6_2 C5_2 1_555 1_555
O9_2 C5_2 1_555 1_555
H2_2 C8_2 1_555 1_555
Fe3_2 O13_2 1_555 1_555
Fe3_3 O13_3 1_555 1_555
Fe1_3 O1_3 1_555 1_555
O1_3 C1_3 1_555 1_555
O2_3 C1_3 1_555 1_555
O3_3 Fe1_3 1_555 1_555
C1_3 C2_3 1_555 1_555
C2_3 C3_3 1_555 1_555
C3_3 O3_3 1_555 1_555
C4_3 C2_3 1_555 1_555
H1_3 C4_3 1_555 1_555
O4_3 Fe1_3 1_555 1_555
O5_3 Fe1_3 1_555 1_555
Fe4_3 O2_3 1_555 1_555
Fe8_3 O8_3 1_555 1_555
O8_3 Fe2_3 1_555 1_555
O11_3 Fe2_3 1_555 1_555
O12_3 Fe2_3 1_555 1_555
C6_3 C7_3 1_555 1_555
C7_3 C4_3 1_555 1_555
O15_3 Fe2_3 1_555 1_555
O16_3 Fe2_3 1_555 1_555
O4_3 O5_3 1_555 1_555
Fe8_3 O12_3 1_555 1_555
O12_3 C7_3 1_555 1_555
O15_3 O16_3 1_555 1_555
Fe6_3 O6_3 1_555 1_555
Fe8_3 O9_3 1_555 1_555
O6_3 C5_3 1_555 1_555
O9_3 C5_3 1_555 1_555
H2_3 C8_3 1_555 1_555
Fe6_3 O14_3 1_555 1_555
O4_4 Fe4_2 1_555 1_555
O5_4 Fe4_2 1_555 1_555
O7_4 Fe4_2 1_555 1_555
O4_4 O5_4 1_555 1_555
O7_2 C1_4 1_555 1_555
O2_4 C1_4 1_555 1_555
H1_4 C4_4 1_555 1_555
Fe3_2 O2_4 1_555 1_555
C2_4 C3_4 1_555 1_555
C3_4 O3_4 1_555 1_555
Fe6_3 O6_4 1_555 1_555
Fe3_2 O3_4 1_555 1_555
Fe8_3 O6_4 1_555 1_555
O6_4 C5_4 1_555 1_555
O11_3 C5_4 1_555 1_555
O14_4 Fe6_3 1_555 1_555
C5_4 C6_4 1_555 1_555
C6_4 C7_4 1_555 1_555
C8_4 C3_4 1_555 1_555
H2_4 C8_4 1_555 1_555
O15_4 Fe6_3 1_555 1_555
O16_4 Fe6_3 1_555 1_555
Fe8_3 O14_4 1_555 1_555
O14_3 C7_4 1_555 1_555
C6_4 C8_4 1_555 1_555
O15_4 O16_4 1_555 1_555
Fe8 O14_5 1_555 1_555
O7_3 C1_5 1_555 1_555
O2_5 C1_5 1_555 1_555
H1_5 C4_5 1_555 1_555
Fe3_3 O2_5 1_555 1_555
C2_5 C3_5 1_555 1_555
C3_5 O3_5 1_555 1_555
Fe6 O6_5 1_555 1_555
Fe3_3 O3_5 1_555 1_555
O6_5 C5_5 1_555 1_555
O11 C5_5 1_555 1_555
C5_5 C6_5 1_555 1_555
C6_5 C7_5 1_555 1_555
C8_5 C3_5 1_555 1_555
H2_5 C8_5 1_555 1_555
O15_5 Fe6 1_555 1_555
O16_5 Fe6 1_555 1_555
O14 C7_5 1_555 1_555
C6_5 C8_5 1_555 1_555
O15_5 O16_5 1_555 1_555
O4_5 Fe4_3 1_555 1_555
O5_5 Fe4_3 1_555 1_555
O7_5 Fe4_3 1_555 1_555
O4_5 O5_5 1_555 1_555
O7 C1_6 1_555 1_555
O2_6 C1_6 1_555 1_555
H1_6 C4_6 1_555 1_555
Fe3 O2_6 1_555 1_555
O3_6 Fe4 1_555 1_555
C2_6 C3_6 1_555 1_555
C3_6 O3_6 1_555 1_555
O4_6 Fe4 1_555 1_555
O5_6 Fe4 1_555 1_555
Fe6_2 O6_6 1_555 1_555
Fe3 O3_6 1_555 1_555
O6_6 C5_6 1_555 1_555
O7_6 Fe4 1_555 1_555
O11_2 C5_6 1_555 1_555
C5_6 C6_6 1_555 1_555
C6_6 C7_6 1_555 1_555
C8_6 C3_6 1_555 1_555
H2_6 C8_6 1_555 1_555
O15_6 Fe6_2 1_555 1_555
O16_6 Fe6_2 1_555 1_555
O4_6 O5_6 1_555 1_555
Fe3 O7_6 1_555 1_555
O14_2 C7_6 1_555 1_555
C6_6 C8_6 1_555 1_555
O15_6 O16_6 1_555 1_555
Fe8_2 O14_6 1_555 1_555
C2_7 C3_7 1_555 1_555
C3_7 O13_3 1_555 1_555
O4_7 Fe3_3 1_555 1_555
O5_7 Fe3_3 1_555 1_555
O8_2 C5_7 1_555 1_555
O11_6 C5_7 1_555 1_555
C8_7 C3_7 1_555 1_555
H2_7 C8_7 1_555 1_555
O4_7 O5_7 1_555 1_555
O7_5 C1_7 1_555 1_555
O10_3 C1_7 1_555 1_555
H1_7 C4_7 1_555 1_555
C6_7 C7_7 1_555 1_555
C7_7 C4_7 1_555 1_555
O15_7 Fe8_2 1_555 1_555
O16_7 Fe8_2 1_555 1_555
O14_6 C7_7 1_555 1_555
O15_7 O16_7 1_555 1_555
O7_6 C1_8 1_555 1_555
O10 C1_8 1_555 1_555
C1_8 C2_8 1_555 1_555
C2_8 C3_8 1_555 1_555
C3_8 O13 1_555 1_555
C4_8 C2_8 1_555 1_555
H1_8 C4_8 1_555 1_555
O4_8 Fe3 1_555 1_555
O5_8 Fe3 1_555 1_555
O8_3 C5_8 1_555 1_555
O11_4 C5_8 1_555 1_555
C5_8 C6_8 1_555 1_555
C6_8 C7_8 1_555 1_555
C7_8 C4_8 1_555 1_555
C8_8 C3_8 1_555 1_555
H2_8 C8_8 1_555 1_555
O15_8 Fe8_3 1_555 1_555
O16_8 Fe8_3 1_555 1_555
O4_8 O5_8 1_555 1_555
O14_4 C7_8 1_555 1_555
C6_8 C8_8 1_555 1_555
O15_8 O16_8 1_555 1_555
O7_4 C1_9 1_555 1_555
O10_2 C1_9 1_555 1_555
H1_9 C4_9 1_555 1_555
C6_9 C7_9 1_555 1_555
C7_9 C4_9 1_555 1_555
O15_9 Fe8 1_555 1_555
O16_9 Fe8 1_555 1_555
O14_5 C7_9 1_555 1_555
O15_9 O16_9 1_555 1_555
C2_9 C3_9 1_555 1_555
C3_9 O13_2 1_555 1_555
O4_9 Fe3_2 1_555 1_555
O5_9 Fe3_2 1_555 1_555
O8 C5_9 1_555 1_555
O11_5 C5_9 1_555 1_555
C8_9 C3_9 1_555 1_555
H2_9 C8_9 1_555 1_555
O4_9 O5_9 1_555 1_555

#END
