
###############################################################################
#
# This file contains modified crystal structure data generated from the
# MOF subset of the Cambridge Structural Database (CSD) v543 
# hosted by the Cambridge Crystallographic Data Centre (CCDC).
#
# This work is licensed under the Creative Commons
# Attribution-NonCommercial-ShareAlike 4.0 International License.
# To view a copy of this license, visit
# http://creativecommons.org/licenses/by-nc-sa/4.0/
# or send a letter to
# Creative Commons, PO Box 1866, Mountain View, CA 94042, USA.
#
# CIF created using the CSD Python API on 29 September 2022
# The structure has been converted into the P1 space group
# The structure has a 3D framework
# The original CSD entry CAXVII is in the rhombohedral crystal system
# The framework has been calculated to contain at least 10.0% void space
# The void calculation uses a probe of radius 1.32A, grid spacing 0.4
#
###############################################################################

data_CAXVII
_chemical_formula_moiety         '(C72 H18 Fe8 O54)n'
_symmetry_cell_setting           triclinic
_symmetry_space_group_name_H-M   'P 1'
_symmetry_Int_Tables_number      1
_space_group_name_Hall           'P 1'
loop_
_symmetry_equiv_pos_site_id
_symmetry_equiv_pos_as_xyz
1 x,y,z
_cell_length_a                   26.0951(28)
_cell_length_b                   26.0951(28)
_cell_length_c                   6.8945(11)
_cell_angle_alpha                90
_cell_angle_beta                 90
_cell_angle_gamma                120
_cell_volume                     4065.85
loop_
_atom_site_label
_atom_site_type_symbol
_atom_site_fract_x
_atom_site_fract_y
_atom_site_fract_z
_atom_site_U_iso_or_equiv
_atom_site_thermal_displace_type
Fe1 Fe 0.3820(8) 0.3514(9) 0.1416(28) 0.0350 Uiso
O1 O 0.3195(11) 0.2855(12) 0.366(4) 0.0000 Uiso
O2 O 0.3024(12) 0.2288(12) 0.600(4) -0.0020 Uiso
O3 O 0.3570(15) 0.2700(14) 0.010(5) 0.0280 Uiso
C1 C 0.3120(18) 0.2414(16) 0.442(5) 0.0940 Uiso
C2 C 0.3290(11) 0.2092(12) 0.2817(35) 0.0140 Uiso
C3 C 0.3428(12) 0.2210(12) 0.076(4) 0.0180 Uiso
C4 C 0.3139(11) 0.1553(12) 0.3610(28) 0.0050 Uiso
H1 H 0.2979(23) 0.1336(19) 0.506(8) 0.0320 Uiso
Fe3 Fe 0.3153(9) 0.3639(12) 0.4749(28) 0.0350 Uiso
Fe4 Fe 0.3027(12) 0.2847(8) 0.8083(28) 0.0350 Uiso
Fe8 Fe 0.3639(12) 0.0487(8) 0.5251(28) 0.0350 Uiso
O5 O 0.2993(16) 0.3472(11) 0.033(4) 0.0000 Uiso
O10 O 0.3097(15) 0.0633(14) 0.323(5) 0.0280 Uiso
O11 O 0.3967(14) 0.4203(21) 0.343(5) 0.0280 Uiso
C6 C 0.3377(11) 0.1241(12) 0.0516(35) 0.0140 Uiso
C7 C 0.3239(12) 0.1123(12) 0.257(4) 0.0180 Uiso
O4 O 0.3472(11) 0.0478(12) 0.967(4) 0.0000 Uiso
O7 O 0.3643(12) 0.1045(12) 0.733(4) -0.0020 Uiso
O8 O 0.4379(12) 0.4069(17) 0.933(4) -0.0020 Uiso
C5 C 0.3547(18) 0.0919(16) 0.891(5) 0.0940 Uiso
C8 C 0.3528(11) 0.1780(12) 0.9723(28) 0.0050 Uiso
H2 H 0.3688(23) 0.1997(19) 0.827(8) 0.0320 Uiso
Fe2 Fe 0.2847(8) 0.9819(9) 0.1917(28) 0.0350 Uiso
O6 O 0.3673(16) 0.9862(11) 0.301(4) 0.0000 Uiso
O9 O 0.2288(12) 0.9264(17) 0.400(4) -0.0020 Uiso
Fe6 Fe 0.3514(9) 0.9694(12) 0.8584(28) 0.0350 Uiso
O12 O 0.2700(14) 0.9130(21) 0.990(5) 0.0280 Uiso
Fe2_2 Fe 0.0181(9) 0.3027(12) 0.1917(28) 0.0350 Uiso
O6_2 O 0.0138(11) 0.3812(19) 0.301(4) 0.0000 Uiso
O9_2 O 0.0736(17) 0.3024(21) 0.400(4) -0.0020 Uiso
Fe6_2 Fe 0.0306(12) 0.3820(15) 0.8584(28) 0.0350 Uiso
O12_2 O 0.0870(21) 0.3570(25) 0.990(5) 0.0280 Uiso
Fe1_2 Fe 0.6486(9) 0.0306(12) 0.1416(28) 0.0350 Uiso
O1_2 O 0.7145(12) 0.0340(16) 0.366(4) 0.0000 Uiso
O2_2 O 0.7712(12) 0.0736(17) 0.600(4) -0.0020 Uiso
O3_2 O 0.7300(14) 0.0870(21) 0.010(5) 0.0280 Uiso
C1_2 C 0.7586(16) 0.0706(24) 0.442(5) 0.0940 Uiso
C2_2 C 0.7908(12) 0.1198(16) 0.2817(35) 0.0140 Uiso
C3_2 C 0.7790(12) 0.1218(17) 0.076(4) 0.0180 Uiso
C4_2 C 0.8447(12) 0.1586(16) 0.3610(28) 0.0050 Uiso
H1_2 H 0.8664(19) 0.1643(30) 0.506(8) 0.0320 Uiso
Fe4_2 Fe 0.7153(8) 0.0181(14) 0.8083(28) 0.0350 Uiso
Fe8_2 Fe 0.9513(8) 0.3153(14) 0.5251(28) 0.0350 Uiso
O10_2 O 0.9367(14) 0.2463(21) 0.323(5) 0.0280 Uiso
C6_2 C 0.8759(12) 0.2135(16) 0.0516(35) 0.0140 Uiso
C7_2 C 0.8877(12) 0.2115(17) 0.257(4) 0.0180 Uiso
O4_2 O 0.9522(12) 0.2993(16) 0.967(4) 0.0000 Uiso
O7_2 O 0.8955(12) 0.2597(17) 0.733(4) -0.0020 Uiso
O8_2 O 0.5931(17) 0.0309(21) 0.933(4) -0.0020 Uiso
C5_2 C 0.9081(16) 0.2627(24) 0.891(5) 0.0940 Uiso
C8_2 C 0.8220(12) 0.1747(16) 0.9723(28) 0.0050 Uiso
H2_2 H 0.8003(19) 0.1690(30) 0.827(8) 0.0320 Uiso
Fe3_2 Fe 0.6361(12) 0.9513(15) 0.4749(28) 0.0350 Uiso
O5_2 O 0.6528(11) 0.9522(19) 0.033(4) 0.0000 Uiso
O11_2 O 0.5797(21) 0.9763(25) 0.343(5) 0.0280 Uiso
Fe3_3 Fe 0.0487(15) 0.6847(9) 0.4749(28) 0.0350 Uiso
O5_3 O 0.0478(19) 0.7007(16) 0.033(4) 0.0000 Uiso
O11_3 O 0.0237(25) 0.6033(14) 0.343(5) 0.0280 Uiso
Fe1_3 Fe 0.9694(12) 0.6180(8) 0.1416(28) 0.0350 Uiso
O1_3 O 0.9660(16) 0.6805(11) 0.366(4) 0.0000 Uiso
O2_3 O 0.9264(17) 0.6976(12) 0.600(4) -0.0020 Uiso
O3_3 O 0.9130(21) 0.6430(15) 0.010(5) 0.0280 Uiso
C1_3 C 0.9294(24) 0.6880(18) 0.442(5) 0.0940 Uiso
C2_3 C 0.8802(16) 0.6710(11) 0.2817(35) 0.0140 Uiso
C3_3 C 0.8782(17) 0.6572(12) 0.076(4) 0.0180 Uiso
C4_3 C 0.8414(16) 0.6861(11) 0.3610(28) 0.0050 Uiso
H1_3 H 0.8357(30) 0.7021(23) 0.506(8) 0.0320 Uiso
Fe2_3 Fe 0.6973(12) 0.7153(8) 0.1917(28) 0.0350 Uiso
Fe4_3 Fe 0.9819(14) 0.6973(12) 0.8083(28) 0.0350 Uiso
Fe8_3 Fe 0.6847(14) 0.6361(12) 0.5251(28) 0.0350 Uiso
O6_3 O 0.6188(19) 0.6327(16) 0.301(4) 0.0000 Uiso
O9_3 O 0.6976(21) 0.7712(12) 0.400(4) -0.0020 Uiso
O10_3 O 0.7537(21) 0.6903(15) 0.323(5) 0.0280 Uiso
C6_3 C 0.7865(16) 0.6623(11) 0.0516(35) 0.0140 Uiso
C7_3 C 0.7885(17) 0.6761(12) 0.257(4) 0.0180 Uiso
Fe6_3 Fe 0.6180(15) 0.6486(9) 0.8584(28) 0.0350 Uiso
O4_3 O 0.7007(16) 0.6528(11) 0.967(4) 0.0000 Uiso
O7_3 O 0.7403(17) 0.6357(12) 0.733(4) -0.0020 Uiso
O8_3 O 0.9691(21) 0.5621(12) 0.933(4) -0.0020 Uiso
O12_3 O 0.6430(25) 0.7300(14) 0.990(5) 0.0280 Uiso
C5_3 C 0.7373(24) 0.6453(18) 0.891(5) 0.0940 Uiso
C8_3 C 0.8253(16) 0.6472(11) 0.9723(28) 0.0050 Uiso
H2_3 H 0.8310(30) 0.6312(23) 0.827(8) 0.0320 Uiso
O5_4 O 0.6327(16) 0.0138(11) 0.699(4) 0.0000 Uiso
O2_4 O 0.6357(12) 0.8955(12) 0.267(4) -0.0020 Uiso
C1_4 C 0.6453(18) 0.9081(16) 0.109(5) 0.0940 Uiso
C4_4 C 0.6472(11) 0.8220(12) 0.0277(28) 0.0050 Uiso
H1_4 H 0.6312(23) 0.8003(19) 0.173(8) 0.0320 Uiso
O9_4 O 0.5621(12) 0.5931(17) 0.067(4) -0.0020 Uiso
O3_4 O 0.6903(15) 0.9367(14) 0.677(5) 0.0280 Uiso
C2_4 C 0.6623(11) 0.8759(12) 0.9484(35) 0.0140 Uiso
C3_4 C 0.6761(12) 0.8877(12) 0.743(4) 0.0180 Uiso
O4_4 O 0.6805(11) 0.7145(12) 0.634(4) 0.0000 Uiso
O12_4 O 0.6033(14) 0.5797(21) 0.657(5) 0.0280 Uiso
C5_4 C 0.6880(18) 0.7586(16) 0.558(5) 0.0940 Uiso
C6_4 C 0.6710(11) 0.7908(12) 0.7183(35) 0.0140 Uiso
C7_4 C 0.6572(12) 0.7790(12) 0.924(4) 0.0180 Uiso
C8_4 C 0.6861(11) 0.8447(12) 0.6390(28) 0.0050 Uiso
H2_4 H 0.7021(23) 0.8664(19) 0.494(8) 0.0320 Uiso
O12_5 O 0.4203(21) 0.0237(25) 0.657(5) 0.0280 Uiso
O2_5 O 0.1045(12) 0.7403(17) 0.267(4) -0.0020 Uiso
C1_5 C 0.0919(16) 0.7373(24) 0.109(5) 0.0940 Uiso
C4_5 C 0.1780(12) 0.8253(16) 0.0277(28) 0.0050 Uiso
H1_5 H 0.1997(19) 0.8310(30) 0.173(8) 0.0320 Uiso
O9_5 O 0.4069(17) 0.9691(21) 0.067(4) -0.0020 Uiso
O3_5 O 0.0633(14) 0.7537(21) 0.677(5) 0.0280 Uiso
C2_5 C 0.1241(12) 0.7865(16) 0.9484(35) 0.0140 Uiso
C3_5 C 0.1123(12) 0.7885(17) 0.743(4) 0.0180 Uiso
O4_5 O 0.2855(12) 0.9660(16) 0.634(4) 0.0000 Uiso
C5_5 C 0.2414(16) 0.9294(24) 0.558(5) 0.0940 Uiso
C6_5 C 0.2092(12) 0.8802(16) 0.7183(35) 0.0140 Uiso
C7_5 C 0.2210(12) 0.8782(17) 0.924(4) 0.0180 Uiso
C8_5 C 0.1553(12) 0.8414(16) 0.6390(28) 0.0050 Uiso
H2_5 H 0.1336(19) 0.8357(30) 0.494(8) 0.0320 Uiso
O5_5 O 0.9862(11) 0.6188(19) 0.699(4) 0.0000 Uiso
O2_6 O 0.2597(17) 0.3643(12) 0.267(4) -0.0020 Uiso
C1_6 C 0.2627(24) 0.3547(18) 0.109(5) 0.0940 Uiso
C4_6 C 0.1747(16) 0.3528(11) 0.0277(28) 0.0050 Uiso
H1_6 H 0.1690(30) 0.3688(23) 0.173(8) 0.0320 Uiso
O9_6 O 0.0309(21) 0.4379(12) 0.067(4) -0.0020 Uiso
O3_6 O 0.2463(21) 0.3097(15) 0.677(5) 0.0280 Uiso
C2_6 C 0.2135(16) 0.3377(11) 0.9484(35) 0.0140 Uiso
C3_6 C 0.2115(17) 0.3239(12) 0.743(4) 0.0180 Uiso
O4_6 O 0.0340(16) 0.3195(11) 0.634(4) 0.0000 Uiso
O5_6 O 0.3812(19) 0.3673(16) 0.699(4) 0.0000 Uiso
C5_6 C 0.0706(24) 0.3120(18) 0.558(5) 0.0940 Uiso
C6_6 C 0.1198(16) 0.3290(11) 0.7183(35) 0.0140 Uiso
C7_6 C 0.1218(17) 0.3428(12) 0.924(4) 0.0180 Uiso
C8_6 C 0.1586(16) 0.3139(11) 0.6390(28) 0.0050 Uiso
H2_6 H 0.1643(30) 0.2979(23) 0.494(8) 0.0320 Uiso
O12_6 O 0.9763(25) 0.3967(14) 0.657(5) 0.0280 Uiso
C3_7 C 0.0095(12) 0.5543(12) 0.409(4) 0.0180 Uiso
C5_7 C 0.0213(18) 0.4253(16) 0.225(5) 0.0940 Uiso
C6_7 C 0.0043(11) 0.4575(12) 0.3850(35) 0.0140 Uiso
C8_7 C 0.0194(11) 0.5114(12) 0.3057(28) 0.0050 Uiso
H2_7 H 0.0354(23) 0.5331(19) 0.161(8) 0.0320 Uiso
C1_7 C 0.9787(18) 0.5747(16) 0.775(5) 0.0940 Uiso
C2_7 C 0.9957(11) 0.5425(12) 0.6150(35) 0.0140 Uiso
C4_7 C 0.9806(11) 0.4886(12) 0.6943(28) 0.0050 Uiso
H1_7 H 0.9646(23) 0.4669(19) 0.839(8) 0.0320 Uiso
C7_7 C 0.9905(12) 0.4457(12) 0.591(4) 0.0180 Uiso
C1_8 C 0.4253(16) 0.4039(24) 0.775(5) 0.0940 Uiso
C2_8 C 0.4575(12) 0.4531(16) 0.6150(35) 0.0140 Uiso
C3_8 C 0.4457(12) 0.4551(17) 0.409(4) 0.0180 Uiso
C4_8 C 0.5114(12) 0.4919(16) 0.6943(28) 0.0050 Uiso
H1_8 H 0.5331(19) 0.4976(30) 0.839(8) 0.0320 Uiso
C5_8 C 0.5747(16) 0.5961(24) 0.225(5) 0.0940 Uiso
C6_8 C 0.5425(12) 0.5469(16) 0.3850(35) 0.0140 Uiso
C7_8 C 0.5543(12) 0.5449(17) 0.591(4) 0.0180 Uiso
C8_8 C 0.4886(12) 0.5081(16) 0.3057(28) 0.0050 Uiso
H2_8 H 0.4669(19) 0.5024(30) 0.161(8) 0.0320 Uiso
C1_9 C 0.5961(24) 0.0213(18) 0.775(5) 0.0940 Uiso
C2_9 C 0.5469(16) 0.0043(11) 0.6150(35) 0.0140 Uiso
C4_9 C 0.5081(16) 0.0194(11) 0.6943(28) 0.0050 Uiso
H1_9 H 0.5024(30) 0.0354(23) 0.839(8) 0.0320 Uiso
C7_9 C 0.4551(17) 0.0095(12) 0.591(4) 0.0180 Uiso
C3_9 C 0.5449(17) 0.9905(12) 0.409(4) 0.0180 Uiso
C5_9 C 0.4039(24) 0.9787(18) 0.225(5) 0.0940 Uiso
C6_9 C 0.4531(16) 0.9957(11) 0.3850(35) 0.0140 Uiso
C8_9 C 0.4919(16) 0.9806(11) 0.3057(28) 0.0050 Uiso
H2_9 H 0.4976(30) 0.9646(23) 0.161(8) 0.0320 Uiso
loop_
_geom_bond_atom_site_label_1
_geom_bond_atom_site_label_2
_geom_bond_site_symmetry_1
_geom_bond_site_symmetry_2
Fe1 O1 1_555 1_555
O1 C1 1_555 1_555
O2 C1 1_555 1_555
O3 Fe1 1_555 1_555
C1 C2 1_555 1_555
C2 C3 1_555 1_555
C3 O3 1_555 1_555
C4 C2 1_555 1_555
H1 C4 1_555 1_555
Fe3 O1 1_555 1_555
Fe4 O2 1_555 1_555
O5 Fe1 1_555 1_555
O11 Fe1 1_555 1_555
C6 C7 1_555 1_555
C7 C4 1_555 1_555
Fe3 O11 1_555 1_555
Fe8 O10 1_555 1_555
O10 C7 1_555 1_555
Fe8 O7 1_555 1_555
O4 C5 1_555 1_555
O7 C5 1_555 1_555
H2 C8 1_555 1_555
O6 Fe2 1_555 1_555
O9 Fe2 1_555 1_555
Fe6 O12 1_555 1_555
O6_2 Fe2_2 1_555 1_555
O9_2 Fe2_2 1_555 1_555
Fe6_2 O12_2 1_555 1_555
Fe1_2 O1_2 1_555 1_555
O1_2 C1_2 1_555 1_555
O2_2 C1_2 1_555 1_555
O3_2 Fe1_2 1_555 1_555
C1_2 C2_2 1_555 1_555
C2_2 C3_2 1_555 1_555
C3_2 O3_2 1_555 1_555
C4_2 C2_2 1_555 1_555
H1_2 C4_2 1_555 1_555
Fe4_2 O2_2 1_555 1_555
C6_2 C7_2 1_555 1_555
C7_2 C4_2 1_555 1_555
Fe8_2 O10_2 1_555 1_555
O10_2 C7_2 1_555 1_555
Fe8_2 O7_2 1_555 1_555
O4_2 C5_2 1_555 1_555
O7_2 C5_2 1_555 1_555
H2_2 C8_2 1_555 1_555
Fe3_2 O11_2 1_555 1_555
Fe3_3 O11_3 1_555 1_555
Fe1_3 O1_3 1_555 1_555
O1_3 C1_3 1_555 1_555
O2_3 C1_3 1_555 1_555
O3_3 Fe1_3 1_555 1_555
C1_3 C2_3 1_555 1_555
C2_3 C3_3 1_555 1_555
C3_3 O3_3 1_555 1_555
C4_3 C2_3 1_555 1_555
H1_3 C4_3 1_555 1_555
Fe4_3 O2_3 1_555 1_555
Fe8_3 O6_3 1_555 1_555
O6_3 Fe2_3 1_555 1_555
O9_3 Fe2_3 1_555 1_555
O10_3 Fe2_3 1_555 1_555
C6_3 C7_3 1_555 1_555
C7_3 C4_3 1_555 1_555
Fe8_3 O10_3 1_555 1_555
O10_3 C7_3 1_555 1_555
Fe6_3 O4_3 1_555 1_555
Fe8_3 O7_3 1_555 1_555
O4_3 C5_3 1_555 1_555
O7_3 C5_3 1_555 1_555
H2_3 C8_3 1_555 1_555
Fe6_3 O12_3 1_555 1_555
O5_4 Fe4_2 1_555 1_555
O5_2 C1_4 1_555 1_555
O2_4 C1_4 1_555 1_555
H1_4 C4_4 1_555 1_555
Fe3_2 O2_4 1_555 1_555
C2_4 C3_4 1_555 1_555
C3_4 O3_4 1_555 1_555
Fe6_3 O4_4 1_555 1_555
Fe3_2 O3_4 1_555 1_555
Fe8_3 O4_4 1_555 1_555
O4_4 C5_4 1_555 1_555
O9_3 C5_4 1_555 1_555
O12_4 Fe6_3 1_555 1_555
C5_4 C6_4 1_555 1_555
C6_4 C7_4 1_555 1_555
C8_4 C3_4 1_555 1_555
H2_4 C8_4 1_555 1_555
Fe8_3 O12_4 1_555 1_555
O12_3 C7_4 1_555 1_555
C6_4 C8_4 1_555 1_555
Fe8 O12_5 1_555 1_555
O5_3 C1_5 1_555 1_555
O2_5 C1_5 1_555 1_555
H1_5 C4_5 1_555 1_555
Fe3_3 O2_5 1_555 1_555
C2_5 C3_5 1_555 1_555
C3_5 O3_5 1_555 1_555
Fe6 O4_5 1_555 1_555
Fe3_3 O3_5 1_555 1_555
O4_5 C5_5 1_555 1_555
O9 C5_5 1_555 1_555
C5_5 C6_5 1_555 1_555
C6_5 C7_5 1_555 1_555
C8_5 C3_5 1_555 1_555
H2_5 C8_5 1_555 1_555
O12 C7_5 1_555 1_555
C6_5 C8_5 1_555 1_555
O5_5 Fe4_3 1_555 1_555
O5 C1_6 1_555 1_555
O2_6 C1_6 1_555 1_555
H1_6 C4_6 1_555 1_555
Fe3 O2_6 1_555 1_555
O3_6 Fe4 1_555 1_555
C2_6 C3_6 1_555 1_555
C3_6 O3_6 1_555 1_555
Fe6_2 O4_6 1_555 1_555
Fe3 O3_6 1_555 1_555
O4_6 C5_6 1_555 1_555
O5_6 Fe4 1_555 1_555
O9_2 C5_6 1_555 1_555
C5_6 C6_6 1_555 1_555
C6_6 C7_6 1_555 1_555
C8_6 C3_6 1_555 1_555
H2_6 C8_6 1_555 1_555
Fe3 O5_6 1_555 1_555
O12_2 C7_6 1_555 1_555
C6_6 C8_6 1_555 1_555
Fe8_2 O12_6 1_555 1_555
C3_7 O11_3 1_555 1_555
O6_2 C5_7 1_555 1_555
O9_6 C5_7 1_555 1_555
C5_7 C6_7 1_555 1_555
C8_7 C3_7 1_555 1_555
H2_7 C8_7 1_555 1_555
C6_7 C8_7 1_555 1_555
O5_5 C1_7 1_555 1_555
O8_3 C1_7 1_555 1_555
C1_7 C2_7 1_555 1_555
C4_7 C2_7 1_555 1_555
H1_7 C4_7 1_555 1_555
C7_7 C4_7 1_555 1_555
O12_6 C7_7 1_555 1_555
O5_6 C1_8 1_555 1_555
O8 C1_8 1_555 1_555
C1_8 C2_8 1_555 1_555
C2_8 C3_8 1_555 1_555
C3_8 O11 1_555 1_555
C4_8 C2_8 1_555 1_555
H1_8 C4_8 1_555 1_555
O6_3 C5_8 1_555 1_555
O9_4 C5_8 1_555 1_555
C5_8 C6_8 1_555 1_555
C6_8 C7_8 1_555 1_555
C7_8 C4_8 1_555 1_555
C8_8 C3_8 1_555 1_555
H2_8 C8_8 1_555 1_555
O12_4 C7_8 1_555 1_555
C6_8 C8_8 1_555 1_555
O5_4 C1_9 1_555 1_555
O8_2 C1_9 1_555 1_555
C1_9 C2_9 1_555 1_555
C4_9 C2_9 1_555 1_555
H1_9 C4_9 1_555 1_555
C7_9 C4_9 1_555 1_555
O12_5 C7_9 1_555 1_555
C3_9 O11_2 1_555 1_555
O6 C5_9 1_555 1_555
O9_5 C5_9 1_555 1_555
C5_9 C6_9 1_555 1_555
C8_9 C3_9 1_555 1_555
H2_9 C8_9 1_555 1_555
C6_9 C8_9 1_555 1_555

#END
