
###############################################################################
#
# This file contains modified crystal structure data generated from the
# MOF subset of the Cambridge Structural Database (CSD) v543 
# hosted by the Cambridge Crystallographic Data Centre (CCDC).
#
# This work is licensed under the Creative Commons
# Attribution-NonCommercial-ShareAlike 4.0 International License.
# To view a copy of this license, visit
# http://creativecommons.org/licenses/by-nc-sa/4.0/
# or send a letter to
# Creative Commons, PO Box 1866, Mountain View, CA 94042, USA.
#
# CIF created using the CSD Python API on 29 September 2022
# The structure has been converted into the P1 space group
# The structure has a 3D framework
# The original CSD entry CAXVOO is in the rhombohedral crystal system
# The framework has been calculated to contain at least 10.0% void space
# The void calculation uses a probe of radius 1.32A, grid spacing 0.4
#
###############################################################################

data_CAXVOO
_chemical_formula_moiety         '(C72 H18 Fe8 O54)n'
_symmetry_cell_setting           triclinic
_symmetry_space_group_name_H-M   'P 1'
_symmetry_Int_Tables_number      1
_space_group_name_Hall           'P 1'
loop_
_symmetry_equiv_pos_site_id
_symmetry_equiv_pos_as_xyz
1 x,y,z
_cell_length_a                   26.1021(28)
_cell_length_b                   26.1021(28)
_cell_length_c                   6.9107(12)
_cell_angle_alpha                90
_cell_angle_beta                 90
_cell_angle_gamma                120
_cell_volume                     4077.59
loop_
_atom_site_label
_atom_site_type_symbol
_atom_site_fract_x
_atom_site_fract_y
_atom_site_fract_z
_atom_site_U_iso_or_equiv
_atom_site_thermal_displace_type
Fe1 Fe 0.3818(8) 0.3513(9) 0.1413(30) 0.0080 Uiso
O1 O 0.3183(18) 0.2853(18) 0.353(5) 0.0050 Uiso
O2 O 0.3003(15) 0.2307(16) 0.598(6) 0.0080 Uiso
O3 O 0.3539(21) 0.2707(19) 0.011(7) 0.0440 Uiso
C1 C 0.3121(20) 0.2435(19) 0.445(5) 0.0480 Uiso
C2 C 0.3285(14) 0.2082(14) 0.279(5) 0.0070 Uiso
C3 C 0.3421(13) 0.2206(14) 0.086(5) 0.0020 Uiso
C4 C 0.3139(14) 0.1540(15) 0.361(4) 0.0060 Uiso
H1 H 0.2977(31) 0.1335(27) 0.516(12) 0.0400 Uiso
Fe3 Fe 0.3154(9) 0.3638(12) 0.4746(30) 0.0080 Uiso
Fe4 Fe 0.3028(12) 0.2849(8) 0.8080(30) 0.0080 Uiso
Fe8 Fe 0.3638(12) 0.0485(8) 0.5254(30) 0.0080 Uiso
O5 O 0.3003(25) 0.3484(18) 0.020(5) 0.0050 Uiso
O10 O 0.3128(21) 0.0626(19) 0.322(7) 0.0440 Uiso
O11 O 0.3960(19) 0.4165(28) 0.344(7) 0.0440 Uiso
C6 C 0.3382(14) 0.1251(14) 0.054(5) 0.0070 Uiso
C7 C 0.3246(13) 0.1127(14) 0.247(5) 0.0020 Uiso
O4 O 0.3484(18) 0.0480(18) 0.980(5) 0.0050 Uiso
O7 O 0.3664(15) 0.1026(16) 0.735(6) 0.0080 Uiso
O8 O 0.4360(16) 0.4029(22) 0.931(6) 0.0080 Uiso
C5 C 0.3546(20) 0.0898(19) 0.888(5) 0.0480 Uiso
C8 C 0.3528(14) 0.1793(15) 0.972(4) 0.0060 Uiso
H2 H 0.3690(31) 0.1998(27) 0.817(12) 0.0400 Uiso
Fe2 Fe 0.2849(8) 0.9820(9) 0.1920(30) 0.0080 Uiso
O6 O 0.3663(25) 0.9850(18) 0.314(5) 0.0050 Uiso
O9 O 0.2307(16) 0.9304(22) 0.402(6) 0.0080 Uiso
Fe6 Fe 0.3513(9) 0.9695(12) 0.8587(30) 0.0080 Uiso
O12 O 0.2707(19) 0.9168(28) 0.989(7) 0.0440 Uiso
Fe2_2 Fe 0.0180(9) 0.3028(12) 0.1920(30) 0.0080 Uiso
O6_2 O 0.0150(18) 0.3814(31) 0.314(5) 0.0050 Uiso
O9_2 O 0.0696(22) 0.3003(27) 0.402(6) 0.0080 Uiso
Fe6_2 Fe 0.0305(12) 0.3818(15) 0.8587(30) 0.0080 Uiso
O12_2 O 0.0832(28) 0.3539(34) 0.989(7) 0.0440 Uiso
Fe1_2 Fe 0.6487(9) 0.0305(12) 0.1413(30) 0.0080 Uiso
O1_2 O 0.7147(18) 0.0330(25) 0.353(5) 0.0050 Uiso
O2_2 O 0.7693(16) 0.0696(22) 0.598(6) 0.0080 Uiso
O3_2 O 0.7293(19) 0.0832(28) 0.011(7) 0.0440 Uiso
C1_2 C 0.7565(19) 0.0686(28) 0.445(5) 0.0480 Uiso
C2_2 C 0.7918(14) 0.1203(20) 0.279(5) 0.0070 Uiso
C3_2 C 0.7794(14) 0.1215(19) 0.086(5) 0.0020 Uiso
C4_2 C 0.8460(15) 0.1599(21) 0.361(4) 0.0060 Uiso
H1_2 H 0.8665(27) 0.1642(41) 0.516(12) 0.0400 Uiso
Fe4_2 Fe 0.7151(8) 0.0180(14) 0.8080(30) 0.0080 Uiso
Fe8_2 Fe 0.9515(8) 0.3154(14) 0.5254(30) 0.0080 Uiso
O10_2 O 0.9374(19) 0.2501(28) 0.322(7) 0.0440 Uiso
C6_2 C 0.8749(14) 0.2130(20) 0.054(5) 0.0070 Uiso
C7_2 C 0.8873(14) 0.2118(19) 0.247(5) 0.0020 Uiso
O4_2 O 0.9520(18) 0.3003(25) 0.980(5) 0.0050 Uiso
O7_2 O 0.8974(16) 0.2637(22) 0.735(6) 0.0080 Uiso
O8_2 O 0.5971(22) 0.0330(27) 0.931(6) 0.0080 Uiso
C5_2 C 0.9102(19) 0.2647(28) 0.888(5) 0.0480 Uiso
C8_2 C 0.8207(15) 0.1734(21) 0.972(4) 0.0060 Uiso
H2_2 H 0.8002(27) 0.1691(41) 0.817(12) 0.0400 Uiso
Fe3_2 Fe 0.6362(12) 0.9515(15) 0.4746(30) 0.0080 Uiso
O5_2 O 0.6516(18) 0.9520(31) 0.020(5) 0.0050 Uiso
O11_2 O 0.5835(28) 0.9794(34) 0.344(7) 0.0440 Uiso
Fe3_3 Fe 0.0485(15) 0.6846(9) 0.4746(30) 0.0080 Uiso
O5_3 O 0.0480(31) 0.6997(25) 0.020(5) 0.0050 Uiso
O11_3 O 0.0206(34) 0.6040(19) 0.344(7) 0.0440 Uiso
Fe1_3 Fe 0.9695(12) 0.6182(8) 0.1413(30) 0.0080 Uiso
O1_3 O 0.9670(25) 0.6817(18) 0.353(5) 0.0050 Uiso
O2_3 O 0.9304(22) 0.6997(15) 0.598(6) 0.0080 Uiso
O3_3 O 0.9168(28) 0.6461(21) 0.011(7) 0.0440 Uiso
C1_3 C 0.9314(28) 0.6879(20) 0.445(5) 0.0480 Uiso
C2_3 C 0.8797(20) 0.6715(14) 0.279(5) 0.0070 Uiso
C3_3 C 0.8785(19) 0.6579(13) 0.086(5) 0.0020 Uiso
C4_3 C 0.8401(21) 0.6861(14) 0.361(4) 0.0060 Uiso
H1_3 H 0.8358(41) 0.7023(31) 0.516(12) 0.0400 Uiso
Fe2_3 Fe 0.6972(12) 0.7151(8) 0.1920(30) 0.0080 Uiso
Fe4_3 Fe 0.9820(14) 0.6972(12) 0.8080(30) 0.0080 Uiso
Fe8_3 Fe 0.6846(14) 0.6362(12) 0.5254(30) 0.0080 Uiso
O6_3 O 0.6186(31) 0.6337(25) 0.314(5) 0.0050 Uiso
O9_3 O 0.6997(27) 0.7693(16) 0.402(6) 0.0080 Uiso
O10_3 O 0.7499(28) 0.6872(21) 0.322(7) 0.0440 Uiso
C6_3 C 0.7870(20) 0.6618(14) 0.054(5) 0.0070 Uiso
C7_3 C 0.7882(19) 0.6754(13) 0.247(5) 0.0020 Uiso
Fe6_3 Fe 0.6182(15) 0.6487(9) 0.8587(30) 0.0080 Uiso
O4_3 O 0.6997(25) 0.6516(18) 0.980(5) 0.0050 Uiso
O7_3 O 0.7363(22) 0.6336(15) 0.735(6) 0.0080 Uiso
O8_3 O 0.9670(27) 0.5640(16) 0.931(6) 0.0080 Uiso
O12_3 O 0.6461(34) 0.7293(19) 0.989(7) 0.0440 Uiso
C5_3 C 0.7353(28) 0.6454(20) 0.888(5) 0.0480 Uiso
C8_3 C 0.8266(21) 0.6472(14) 0.972(4) 0.0060 Uiso
H2_3 H 0.8309(41) 0.6310(31) 0.817(12) 0.0400 Uiso
O5_4 O 0.6337(25) 0.0150(18) 0.686(5) 0.0050 Uiso
O2_4 O 0.6336(15) 0.8974(16) 0.265(6) 0.0080 Uiso
C1_4 C 0.6454(20) 0.9102(19) 0.112(5) 0.0480 Uiso
C4_4 C 0.6472(14) 0.8207(15) 0.028(4) 0.0060 Uiso
H1_4 H 0.6310(31) 0.8002(27) 0.183(12) 0.0400 Uiso
O9_4 O 0.5640(16) 0.5971(22) 0.069(6) 0.0080 Uiso
O3_4 O 0.6872(21) 0.9374(19) 0.678(7) 0.0440 Uiso
C2_4 C 0.6618(14) 0.8749(14) 0.946(5) 0.0070 Uiso
C3_4 C 0.6754(13) 0.8873(14) 0.753(5) 0.0020 Uiso
O4_4 O 0.6817(18) 0.7147(18) 0.647(5) 0.0050 Uiso
O12_4 O 0.6040(19) 0.5835(28) 0.656(7) 0.0440 Uiso
C5_4 C 0.6879(20) 0.7565(19) 0.555(5) 0.0480 Uiso
C6_4 C 0.6715(14) 0.7918(14) 0.721(5) 0.0070 Uiso
C7_4 C 0.6579(13) 0.7794(14) 0.914(5) 0.0020 Uiso
C8_4 C 0.6861(14) 0.8460(15) 0.639(4) 0.0060 Uiso
H2_4 H 0.7023(31) 0.8665(27) 0.484(12) 0.0400 Uiso
O12_5 O 0.4165(28) 0.0206(34) 0.656(7) 0.0440 Uiso
O2_5 O 0.1026(16) 0.7363(22) 0.265(6) 0.0080 Uiso
C1_5 C 0.0898(19) 0.7353(28) 0.112(5) 0.0480 Uiso
C4_5 C 0.1793(15) 0.8266(21) 0.028(4) 0.0060 Uiso
H1_5 H 0.1998(27) 0.8309(41) 0.183(12) 0.0400 Uiso
O9_5 O 0.4029(22) 0.9670(27) 0.069(6) 0.0080 Uiso
O3_5 O 0.0626(19) 0.7499(28) 0.678(7) 0.0440 Uiso
C2_5 C 0.1251(14) 0.7870(20) 0.946(5) 0.0070 Uiso
C3_5 C 0.1127(14) 0.7882(19) 0.753(5) 0.0020 Uiso
O4_5 O 0.2853(18) 0.9670(25) 0.647(5) 0.0050 Uiso
C5_5 C 0.2435(19) 0.9314(28) 0.555(5) 0.0480 Uiso
C6_5 C 0.2082(14) 0.8797(20) 0.721(5) 0.0070 Uiso
C7_5 C 0.2206(14) 0.8785(19) 0.914(5) 0.0020 Uiso
C8_5 C 0.1540(15) 0.8401(21) 0.639(4) 0.0060 Uiso
H2_5 H 0.1335(27) 0.8358(41) 0.484(12) 0.0400 Uiso
O5_5 O 0.9850(18) 0.6186(31) 0.686(5) 0.0050 Uiso
O2_6 O 0.2637(22) 0.3664(15) 0.265(6) 0.0080 Uiso
C1_6 C 0.2647(28) 0.3546(20) 0.112(5) 0.0480 Uiso
C4_6 C 0.1734(21) 0.3528(14) 0.028(4) 0.0060 Uiso
H1_6 H 0.1691(41) 0.3690(31) 0.183(12) 0.0400 Uiso
O9_6 O 0.0330(27) 0.4360(16) 0.069(6) 0.0080 Uiso
O3_6 O 0.2501(28) 0.3128(21) 0.678(7) 0.0440 Uiso
C2_6 C 0.2130(20) 0.3382(14) 0.946(5) 0.0070 Uiso
C3_6 C 0.2118(19) 0.3246(13) 0.753(5) 0.0020 Uiso
O4_6 O 0.0330(25) 0.3183(18) 0.647(5) 0.0050 Uiso
O5_6 O 0.3814(31) 0.3663(25) 0.686(5) 0.0050 Uiso
C5_6 C 0.0686(28) 0.3121(20) 0.555(5) 0.0480 Uiso
C6_6 C 0.1203(20) 0.3285(14) 0.721(5) 0.0070 Uiso
C7_6 C 0.1215(19) 0.3421(13) 0.914(5) 0.0020 Uiso
C8_6 C 0.1599(21) 0.3139(14) 0.639(4) 0.0060 Uiso
H2_6 H 0.1642(41) 0.2977(31) 0.484(12) 0.0400 Uiso
O12_6 O 0.9794(34) 0.3960(19) 0.656(7) 0.0440 Uiso
C3_7 C 0.0088(13) 0.5539(14) 0.419(5) 0.0020 Uiso
C5_7 C 0.0212(20) 0.4232(19) 0.222(5) 0.0480 Uiso
C6_7 C 0.0048(14) 0.4585(14) 0.388(5) 0.0070 Uiso
C8_7 C 0.0194(14) 0.5127(15) 0.306(4) 0.0060 Uiso
H2_7 H 0.0356(31) 0.5332(27) 0.151(12) 0.0400 Uiso
C1_7 C 0.9788(20) 0.5768(19) 0.778(5) 0.0480 Uiso
C2_7 C 0.9952(14) 0.5415(14) 0.612(5) 0.0070 Uiso
C4_7 C 0.9806(14) 0.4873(15) 0.694(4) 0.0060 Uiso
H1_7 H 0.9644(31) 0.4668(27) 0.849(12) 0.0400 Uiso
C7_7 C 0.9912(13) 0.4461(14) 0.581(5) 0.0020 Uiso
C1_8 C 0.4232(19) 0.4019(28) 0.778(5) 0.0480 Uiso
C2_8 C 0.4585(14) 0.4536(20) 0.612(5) 0.0070 Uiso
C3_8 C 0.4461(14) 0.4548(19) 0.419(5) 0.0020 Uiso
C4_8 C 0.5127(15) 0.4932(21) 0.694(4) 0.0060 Uiso
H1_8 H 0.5332(27) 0.4975(41) 0.849(12) 0.0400 Uiso
C5_8 C 0.5768(19) 0.5981(28) 0.222(5) 0.0480 Uiso
C6_8 C 0.5415(14) 0.5464(20) 0.388(5) 0.0070 Uiso
C7_8 C 0.5539(14) 0.5452(19) 0.581(5) 0.0020 Uiso
C8_8 C 0.4873(15) 0.5068(21) 0.306(4) 0.0060 Uiso
H2_8 H 0.4668(27) 0.5025(41) 0.151(12) 0.0400 Uiso
C1_9 C 0.5981(28) 0.0212(20) 0.778(5) 0.0480 Uiso
C2_9 C 0.5464(20) 0.0048(14) 0.612(5) 0.0070 Uiso
C4_9 C 0.5068(21) 0.0194(14) 0.694(4) 0.0060 Uiso
H1_9 H 0.5025(41) 0.0356(31) 0.849(12) 0.0400 Uiso
C7_9 C 0.4548(19) 0.0088(13) 0.581(5) 0.0020 Uiso
C3_9 C 0.5452(19) 0.9912(13) 0.419(5) 0.0020 Uiso
C5_9 C 0.4019(28) 0.9788(20) 0.222(5) 0.0480 Uiso
C6_9 C 0.4536(20) 0.9952(14) 0.388(5) 0.0070 Uiso
C8_9 C 0.4932(21) 0.9806(14) 0.306(4) 0.0060 Uiso
H2_9 H 0.4975(41) 0.9644(31) 0.151(12) 0.0400 Uiso
loop_
_geom_bond_atom_site_label_1
_geom_bond_atom_site_label_2
_geom_bond_site_symmetry_1
_geom_bond_site_symmetry_2
Fe1 O1 1_555 1_555
O1 C1 1_555 1_555
O2 C1 1_555 1_555
O3 Fe1 1_555 1_555
C1 C2 1_555 1_555
C2 C3 1_555 1_555
C3 O3 1_555 1_555
C4 C2 1_555 1_555
H1 C4 1_555 1_555
Fe3 O1 1_555 1_555
Fe4 O2 1_555 1_555
O5 Fe1 1_555 1_555
O11 Fe1 1_555 1_555
C6 C7 1_555 1_555
C7 C4 1_555 1_555
Fe3 O11 1_555 1_555
Fe8 O10 1_555 1_555
O10 C7 1_555 1_555
Fe8 O7 1_555 1_555
O4 C5 1_555 1_555
O7 C5 1_555 1_555
H2 C8 1_555 1_555
O6 Fe2 1_555 1_555
O9 Fe2 1_555 1_555
Fe6 O12 1_555 1_555
O6_2 Fe2_2 1_555 1_555
O9_2 Fe2_2 1_555 1_555
Fe6_2 O12_2 1_555 1_555
Fe1_2 O1_2 1_555 1_555
O1_2 C1_2 1_555 1_555
O2_2 C1_2 1_555 1_555
O3_2 Fe1_2 1_555 1_555
C1_2 C2_2 1_555 1_555
C2_2 C3_2 1_555 1_555
C3_2 O3_2 1_555 1_555
C4_2 C2_2 1_555 1_555
H1_2 C4_2 1_555 1_555
Fe4_2 O2_2 1_555 1_555
C6_2 C7_2 1_555 1_555
C7_2 C4_2 1_555 1_555
Fe8_2 O10_2 1_555 1_555
O10_2 C7_2 1_555 1_555
Fe8_2 O7_2 1_555 1_555
O4_2 C5_2 1_555 1_555
O7_2 C5_2 1_555 1_555
H2_2 C8_2 1_555 1_555
Fe3_2 O11_2 1_555 1_555
Fe3_3 O11_3 1_555 1_555
Fe1_3 O1_3 1_555 1_555
O1_3 C1_3 1_555 1_555
O2_3 C1_3 1_555 1_555
O3_3 Fe1_3 1_555 1_555
C1_3 C2_3 1_555 1_555
C2_3 C3_3 1_555 1_555
C3_3 O3_3 1_555 1_555
C4_3 C2_3 1_555 1_555
H1_3 C4_3 1_555 1_555
Fe4_3 O2_3 1_555 1_555
Fe8_3 O6_3 1_555 1_555
O6_3 Fe2_3 1_555 1_555
O9_3 Fe2_3 1_555 1_555
O10_3 Fe2_3 1_555 1_555
C6_3 C7_3 1_555 1_555
C7_3 C4_3 1_555 1_555
Fe8_3 O10_3 1_555 1_555
O10_3 C7_3 1_555 1_555
Fe6_3 O4_3 1_555 1_555
Fe8_3 O7_3 1_555 1_555
O4_3 C5_3 1_555 1_555
O7_3 C5_3 1_555 1_555
H2_3 C8_3 1_555 1_555
Fe6_3 O12_3 1_555 1_555
O5_4 Fe4_2 1_555 1_555
O5_2 C1_4 1_555 1_555
O2_4 C1_4 1_555 1_555
H1_4 C4_4 1_555 1_555
Fe3_2 O2_4 1_555 1_555
C2_4 C3_4 1_555 1_555
C3_4 O3_4 1_555 1_555
Fe6_3 O4_4 1_555 1_555
Fe3_2 O3_4 1_555 1_555
Fe8_3 O4_4 1_555 1_555
O4_4 C5_4 1_555 1_555
O9_3 C5_4 1_555 1_555
O12_4 Fe6_3 1_555 1_555
C5_4 C6_4 1_555 1_555
C6_4 C7_4 1_555 1_555
C8_4 C3_4 1_555 1_555
H2_4 C8_4 1_555 1_555
Fe8_3 O12_4 1_555 1_555
O12_3 C7_4 1_555 1_555
C6_4 C8_4 1_555 1_555
Fe8 O12_5 1_555 1_555
O5_3 C1_5 1_555 1_555
O2_5 C1_5 1_555 1_555
H1_5 C4_5 1_555 1_555
Fe3_3 O2_5 1_555 1_555
C2_5 C3_5 1_555 1_555
C3_5 O3_5 1_555 1_555
Fe6 O4_5 1_555 1_555
Fe3_3 O3_5 1_555 1_555
O4_5 C5_5 1_555 1_555
O9 C5_5 1_555 1_555
C5_5 C6_5 1_555 1_555
C6_5 C7_5 1_555 1_555
C8_5 C3_5 1_555 1_555
H2_5 C8_5 1_555 1_555
O12 C7_5 1_555 1_555
C6_5 C8_5 1_555 1_555
O5_5 Fe4_3 1_555 1_555
O5 C1_6 1_555 1_555
O2_6 C1_6 1_555 1_555
H1_6 C4_6 1_555 1_555
Fe3 O2_6 1_555 1_555
O3_6 Fe4 1_555 1_555
C2_6 C3_6 1_555 1_555
C3_6 O3_6 1_555 1_555
Fe6_2 O4_6 1_555 1_555
Fe3 O3_6 1_555 1_555
O4_6 C5_6 1_555 1_555
O5_6 Fe4 1_555 1_555
O9_2 C5_6 1_555 1_555
C5_6 C6_6 1_555 1_555
C6_6 C7_6 1_555 1_555
C8_6 C3_6 1_555 1_555
H2_6 C8_6 1_555 1_555
Fe3 O5_6 1_555 1_555
O12_2 C7_6 1_555 1_555
C6_6 C8_6 1_555 1_555
Fe8_2 O12_6 1_555 1_555
C3_7 O11_3 1_555 1_555
O6_2 C5_7 1_555 1_555
O9_6 C5_7 1_555 1_555
C5_7 C6_7 1_555 1_555
C8_7 C3_7 1_555 1_555
H2_7 C8_7 1_555 1_555
C6_7 C8_7 1_555 1_555
O5_5 C1_7 1_555 1_555
O8_3 C1_7 1_555 1_555
C1_7 C2_7 1_555 1_555
C4_7 C2_7 1_555 1_555
H1_7 C4_7 1_555 1_555
C7_7 C4_7 1_555 1_555
O12_6 C7_7 1_555 1_555
O5_6 C1_8 1_555 1_555
O8 C1_8 1_555 1_555
C1_8 C2_8 1_555 1_555
C2_8 C3_8 1_555 1_555
C3_8 O11 1_555 1_555
C4_8 C2_8 1_555 1_555
H1_8 C4_8 1_555 1_555
O6_3 C5_8 1_555 1_555
O9_4 C5_8 1_555 1_555
C5_8 C6_8 1_555 1_555
C6_8 C7_8 1_555 1_555
C7_8 C4_8 1_555 1_555
C8_8 C3_8 1_555 1_555
H2_8 C8_8 1_555 1_555
O12_4 C7_8 1_555 1_555
C6_8 C8_8 1_555 1_555
O5_4 C1_9 1_555 1_555
O8_2 C1_9 1_555 1_555
C1_9 C2_9 1_555 1_555
C4_9 C2_9 1_555 1_555
H1_9 C4_9 1_555 1_555
C7_9 C4_9 1_555 1_555
O12_5 C7_9 1_555 1_555
C3_9 O11_2 1_555 1_555
O6 C5_9 1_555 1_555
O9_5 C5_9 1_555 1_555
C5_9 C6_9 1_555 1_555
C8_9 C3_9 1_555 1_555
H2_9 C8_9 1_555 1_555
C6_9 C8_9 1_555 1_555

#END
