
###############################################################################
#
# This file contains modified crystal structure data generated from the
# MOF subset of the Cambridge Structural Database (CSD) v543 
# hosted by the Cambridge Crystallographic Data Centre (CCDC).
#
# This work is licensed under the Creative Commons
# Attribution-NonCommercial-ShareAlike 4.0 International License.
# To view a copy of this license, visit
# http://creativecommons.org/licenses/by-nc-sa/4.0/
# or send a letter to
# Creative Commons, PO Box 1866, Mountain View, CA 94042, USA.
#
# CIF created using the CSD Python API on 29 September 2022
# The structure has been converted into the P1 space group
# The structure has a 3D framework
# The original CSD entry CAXWAB is in the rhombohedral crystal system
# The framework has been calculated to contain at least 10.0% void space
# The void calculation uses a probe of radius 1.32A, grid spacing 0.4
#
###############################################################################

data_CAXWAB
_chemical_formula_moiety         '(C72 H18 Fe18 O90)n'
_symmetry_cell_setting           triclinic
_symmetry_space_group_name_H-M   'P 1'
_symmetry_Int_Tables_number      1
_space_group_name_Hall           'P 1'
loop_
_symmetry_equiv_pos_site_id
_symmetry_equiv_pos_as_xyz
1 x,y,z
_cell_length_a                   25.9612(14)
_cell_length_b                   25.9612(14)
_cell_length_c                   6.8377(7)
_cell_angle_alpha                90
_cell_angle_beta                 90
_cell_angle_gamma                120
_cell_volume                     3991.08
loop_
_atom_site_label
_atom_site_type_symbol
_atom_site_fract_x
_atom_site_fract_y
_atom_site_fract_z
Fe1 Fe 0.3810(4) 0.3479(5) 0.1352(14)
O1 O 0.3276(8) 0.2996(7) 0.3495(28)
O2 O 0.3032(9) 0.2203(10) 0.6025(24)
O3 O 0.3532(7) 0.2721(4) 0.0014(27)
C1 C 0.3144(10) 0.2468(7) 0.4087(24)
C2 C 0.3325(10) 0.2114(8) 0.2892(24)
C3 C 0.3444(8) 0.2236(8) 0.0831(23)
C4 C 0.3140(9) 0.1550(9) 0.3479(22)
H1 H 0.2999(13) 0.1402(13) 0.5058(29)
O4 O 0.4705(17) 0.3827(25) 0.279(5)
O5 O 0.489(4) 0.382(5) 0.060(8)
Fe3 Fe 0.3188(5) 0.3664(6) 0.4685(14)
Fe4 Fe 0.3002(6) 0.2857(4) 0.8019(14)
Fe8 Fe 0.3664(6) 0.0477(4) 0.5315(14)
O7 O 0.3053(11) 0.3391(8) 0.0162(28)
O12 O 0.3135(7) 0.0612(4) 0.3319(27)
O13 O 0.3946(4) 0.4144(8) 0.3347(27)
C6 C 0.3342(10) 0.1219(8) 0.0441(24)
C7 C 0.3223(8) 0.1097(8) 0.2502(23)
O6 O 0.3391(8) 0.0337(7) 0.9838(28)
O9 O 0.3635(9) 0.1130(10) 0.7308(24)
O10 O 0.4464(10) 0.4162(13) 0.9358(24)
C5 C 0.3523(10) 0.0865(7) 0.9246(24)
C8 C 0.3527(9) 0.1783(9) 0.9854(22)
H2 H 0.3668(13) 0.1931(13) 0.8275(29)
Fe2 Fe 0.2857(4) 0.9854(5) 0.1981(14)
O8 O 0.3613(11) 0.9943(8) 0.3172(28)
O11 O 0.2203(10) 0.9171(13) 0.3975(24)
O15 O 0.1962(17) 0.9506(25) 0.054(5)
O16 O 0.178(4) 0.951(5) 0.273(8)
Fe6 Fe 0.3479(5) 0.9669(6) 0.8648(14)
O14 O 0.2721(4) 0.9189(8) 0.9986(27)
Fe2_2 Fe 0.0146(5) 0.3002(6) 0.1981(14)
O8_2 O 0.0057(8) 0.3671(14) 0.3172(28)
O11_2 O 0.0829(13) 0.3032(16) 0.3975(24)
O15_2 O 0.0494(25) 0.2455(30) 0.054(5)
O16_2 O 0.049(5) 0.226(6) 0.273(8)
Fe6_2 Fe 0.0331(6) 0.3810(8) 0.8648(14)
O14_2 O 0.0811(8) 0.3532(9) 0.9986(27)
Fe1_2 Fe 0.6521(5) 0.0331(6) 0.1352(14)
O1_2 O 0.7004(7) 0.0280(11) 0.3495(28)
O2_2 O 0.7797(10) 0.0829(13) 0.6025(24)
O3_2 O 0.7279(4) 0.0811(8) 0.0014(27)
C1_2 C 0.7532(7) 0.0676(12) 0.4087(24)
C2_2 C 0.7886(8) 0.1211(13) 0.2892(24)
C3_2 C 0.7764(8) 0.1208(11) 0.0831(23)
C4_2 C 0.8450(9) 0.1590(13) 0.3479(22)
H1_2 H 0.8598(13) 0.1597(18) 0.5058(29)
O4_2 O 0.6173(25) 0.0878(30) 0.279(5)
O5_2 O 0.618(5) 0.107(6) 0.060(8)
Fe4_2 Fe 0.7143(4) 0.0146(7) 0.8019(14)
Fe8_2 Fe 0.9523(4) 0.3188(7) 0.5315(14)
O12_2 O 0.9388(4) 0.2522(8) 0.3319(27)
C6_2 C 0.8781(8) 0.2122(13) 0.0441(24)
C7_2 C 0.8903(8) 0.2125(11) 0.2502(23)
O6_2 O 0.9663(7) 0.3053(11) 0.9838(28)
O9_2 O 0.8870(10) 0.2504(13) 0.7308(24)
O10_2 O 0.5838(13) 0.0301(16) 0.9358(24)
C5_2 C 0.9135(7) 0.2657(12) 0.9246(24)
C8_2 C 0.8217(9) 0.1743(13) 0.9854(22)
H2_2 H 0.8069(13) 0.1736(18) 0.8275(29)
Fe3_2 Fe 0.6336(6) 0.9523(8) 0.4685(14)
O7_2 O 0.6609(8) 0.9663(14) 0.0162(28)
O13_2 O 0.5856(8) 0.9801(9) 0.3347(27)
Fe3_3 Fe 0.0477(8) 0.6812(5) 0.4685(14)
O7_3 O 0.0337(14) 0.6947(11) 0.0162(28)
O13_3 O 0.0199(9) 0.6054(4) 0.3347(27)
Fe1_3 Fe 0.9669(6) 0.6190(4) 0.1352(14)
O1_3 O 0.9720(11) 0.6724(8) 0.3495(28)
O2_3 O 0.9171(13) 0.6968(9) 0.6025(24)
O3_3 O 0.9189(8) 0.6468(7) 0.0014(27)
C1_3 C 0.9324(12) 0.6856(10) 0.4087(24)
C2_3 C 0.8789(13) 0.6675(10) 0.2892(24)
C3_3 C 0.8792(11) 0.6556(8) 0.0831(23)
C4_3 C 0.8410(13) 0.6860(9) 0.3479(22)
H1_3 H 0.8403(18) 0.7001(13) 0.5058(29)
O4_3 O 0.9122(30) 0.5295(17) 0.279(5)
O5_3 O 0.893(6) 0.511(4) 0.060(8)
Fe2_3 Fe 0.6998(6) 0.7143(4) 0.1981(14)
Fe4_3 Fe 0.9854(7) 0.6998(6) 0.8019(14)
Fe8_3 Fe 0.6812(7) 0.6336(6) 0.5315(14)
O8_3 O 0.6329(14) 0.6387(11) 0.3172(28)
O11_3 O 0.6968(16) 0.7797(10) 0.3975(24)
O12_3 O 0.7478(8) 0.6865(7) 0.3319(27)
C6_3 C 0.7878(13) 0.6658(10) 0.0441(24)
C7_3 C 0.7875(11) 0.6777(8) 0.2502(23)
O15_3 O 0.7545(30) 0.8038(17) 0.054(5)
O16_3 O 0.774(6) 0.822(4) 0.273(8)
Fe6_3 Fe 0.6190(8) 0.6521(5) 0.8648(14)
O6_3 O 0.6947(11) 0.6609(8) 0.9838(28)
O9_3 O 0.7496(13) 0.6365(9) 0.7308(24)
O10_3 O 0.9699(16) 0.5536(10) 0.9358(24)
O14_3 O 0.6468(9) 0.7279(4) 0.9986(27)
C5_3 C 0.7343(12) 0.6477(10) 0.9246(24)
C8_3 C 0.8257(13) 0.6473(9) 0.9854(22)
H2_3 H 0.8264(18) 0.6332(13) 0.8275(29)
O4_4 O 0.8038(17) 0.0494(25) 0.946(5)
O5_4 O 0.822(4) 0.049(5) 0.727(8)
O7_4 O 0.6387(11) 0.0057(8) 0.6828(28)
O2_4 O 0.6365(9) 0.8870(10) 0.2692(24)
C1_4 C 0.6477(10) 0.9135(7) 0.0754(24)
C4_4 C 0.6473(9) 0.8217(9) 0.0146(22)
H1_4 H 0.6332(13) 0.8069(13) 0.1725(29)
O11_4 O 0.5536(10) 0.5838(13) 0.0642(24)
O3_4 O 0.6865(7) 0.9388(4) 0.6681(27)
C2_4 C 0.6658(10) 0.8781(8) 0.9559(24)
C3_4 C 0.6777(8) 0.8903(8) 0.7498(23)
O6_4 O 0.6724(8) 0.7004(7) 0.6505(28)
O14_4 O 0.6054(4) 0.5856(8) 0.6653(27)
C5_4 C 0.6856(10) 0.7532(7) 0.5913(24)
C6_4 C 0.6675(10) 0.7886(8) 0.7108(24)
C7_4 C 0.6556(8) 0.7764(8) 0.9169(23)
C8_4 C 0.6860(9) 0.8450(9) 0.6521(22)
H2_4 H 0.7001(13) 0.8598(13) 0.4942(29)
O15_4 O 0.5295(17) 0.6173(25) 0.721(5)
O16_4 O 0.511(4) 0.618(5) 0.940(8)
O14_5 O 0.4144(8) 0.0199(9) 0.6653(27)
O2_5 O 0.1130(10) 0.7496(13) 0.2692(24)
C1_5 C 0.0865(7) 0.7343(12) 0.0754(24)
C4_5 C 0.1783(9) 0.8257(13) 0.0146(22)
H1_5 H 0.1931(13) 0.8264(18) 0.1725(29)
O11_5 O 0.4162(13) 0.9699(16) 0.0642(24)
O3_5 O 0.0612(4) 0.7478(8) 0.6681(27)
C2_5 C 0.1219(8) 0.7878(13) 0.9559(24)
C3_5 C 0.1097(8) 0.7875(11) 0.7498(23)
O6_5 O 0.2996(7) 0.9720(11) 0.6505(28)
C5_5 C 0.2468(7) 0.9324(12) 0.5913(24)
C6_5 C 0.2114(8) 0.8789(13) 0.7108(24)
C7_5 C 0.2236(8) 0.8792(11) 0.9169(23)
C8_5 C 0.1550(9) 0.8410(13) 0.6521(22)
H2_5 H 0.1402(13) 0.8403(18) 0.4942(29)
O15_5 O 0.3827(25) 0.9122(30) 0.721(5)
O16_5 O 0.382(5) 0.893(6) 0.940(8)
O4_5 O 0.9506(25) 0.7545(30) 0.946(5)
O5_5 O 0.951(5) 0.774(6) 0.727(8)
O7_5 O 0.9943(8) 0.6329(14) 0.6828(28)
O2_6 O 0.2504(13) 0.3635(9) 0.2692(24)
C1_6 C 0.2657(12) 0.3523(10) 0.0754(24)
C4_6 C 0.1743(13) 0.3527(9) 0.0146(22)
H1_6 H 0.1736(18) 0.3668(13) 0.1725(29)
O11_6 O 0.0301(16) 0.4464(10) 0.0642(24)
O3_6 O 0.2522(8) 0.3135(7) 0.6681(27)
C2_6 C 0.2122(13) 0.3342(10) 0.9559(24)
C3_6 C 0.2125(11) 0.3223(8) 0.7498(23)
O4_6 O 0.2455(30) 0.1962(17) 0.946(5)
O5_6 O 0.226(6) 0.178(4) 0.727(8)
O6_6 O 0.0280(11) 0.3276(8) 0.6505(28)
O7_6 O 0.3671(14) 0.3613(11) 0.6828(28)
C5_6 C 0.0676(12) 0.3144(10) 0.5913(24)
C6_6 C 0.1211(13) 0.3325(10) 0.7108(24)
C7_6 C 0.1208(11) 0.3444(8) 0.9169(23)
C8_6 C 0.1590(13) 0.3140(9) 0.6521(22)
H2_6 H 0.1597(18) 0.2999(13) 0.4942(29)
O15_6 O 0.0878(30) 0.4705(17) 0.721(5)
O16_6 O 0.107(6) 0.489(4) 0.940(8)
O14_6 O 0.9801(9) 0.3946(4) 0.6653(27)
C3_7 C 0.0111(8) 0.5569(8) 0.4164(23)
O4_7 O 0.1372(17) 0.7160(25) 0.612(5)
O5_7 O 0.156(4) 0.715(5) 0.393(8)
C5_7 C 0.0189(10) 0.4199(7) 0.2580(24)
C6_7 C 0.0008(10) 0.4553(8) 0.3775(24)
C8_7 C 0.0193(9) 0.5117(9) 0.3188(22)
H2_7 H 0.0334(13) 0.5265(13) 0.1609(29)
C1_7 C 0.9811(10) 0.5801(7) 0.7420(24)
C2_7 C 0.9992(10) 0.5447(8) 0.6225(24)
C4_7 C 0.9807(9) 0.4883(9) 0.6812(22)
H1_7 H 0.9666(13) 0.4735(13) 0.8391(29)
C7_7 C 0.9889(8) 0.4431(8) 0.5836(23)
O15_7 O 0.8628(17) 0.2840(25) 0.388(5)
O16_7 O 0.844(4) 0.285(5) 0.607(8)
C1_8 C 0.4199(7) 0.4009(12) 0.7420(24)
C2_8 C 0.4553(8) 0.4544(13) 0.6225(24)
C3_8 C 0.4431(8) 0.4541(11) 0.4164(23)
C4_8 C 0.5117(9) 0.4923(13) 0.6812(22)
H1_8 H 0.5265(13) 0.4930(18) 0.8391(29)
O4_8 O 0.2840(25) 0.4211(30) 0.612(5)
O5_8 O 0.285(5) 0.440(6) 0.393(8)
C5_8 C 0.5801(7) 0.5991(12) 0.2580(24)
C6_8 C 0.5447(8) 0.5456(13) 0.3775(24)
C7_8 C 0.5569(8) 0.5459(11) 0.5836(23)
C8_8 C 0.4883(9) 0.5077(13) 0.3188(22)
H2_8 H 0.4735(13) 0.5070(18) 0.1609(29)
O15_8 O 0.7160(25) 0.5789(30) 0.388(5)
O16_8 O 0.715(5) 0.560(6) 0.607(8)
C1_9 C 0.5991(12) 0.0189(10) 0.7420(24)
C2_9 C 0.5456(13) 0.0008(10) 0.6225(24)
C4_9 C 0.5077(13) 0.0193(9) 0.6812(22)
H1_9 H 0.5070(18) 0.0334(13) 0.8391(29)
C7_9 C 0.4541(11) 0.0111(8) 0.5836(23)
O15_9 O 0.4211(30) 0.1372(17) 0.388(5)
O16_9 O 0.440(6) 0.156(4) 0.607(8)
C3_9 C 0.5459(11) 0.9889(8) 0.4164(23)
O4_9 O 0.5789(30) 0.8628(17) 0.612(5)
O5_9 O 0.560(6) 0.844(4) 0.393(8)
C5_9 C 0.4009(12) 0.9811(10) 0.2580(24)
C6_9 C 0.4544(13) 0.9992(10) 0.3775(24)
C8_9 C 0.4923(13) 0.9807(9) 0.3188(22)
H2_9 H 0.4930(18) 0.9666(13) 0.1609(29)
loop_
_geom_bond_atom_site_label_1
_geom_bond_atom_site_label_2
_geom_bond_site_symmetry_1
_geom_bond_site_symmetry_2
Fe1 O1 1_555 1_555
O1 C1 1_555 1_555
O2 C1 1_555 1_555
O3 Fe1 1_555 1_555
C1 C2 1_555 1_555
C2 C3 1_555 1_555
C3 O3 1_555 1_555
C4 C2 1_555 1_555
H1 C4 1_555 1_555
O4 Fe1 1_555 1_555
O5 Fe1 1_555 1_555
Fe3 O1 1_555 1_555
Fe4 O2 1_555 1_555
O7 Fe1 1_555 1_555
O13 Fe1 1_555 1_555
C6 C7 1_555 1_555
C7 C4 1_555 1_555
O4 O5 1_555 1_555
Fe3 O13 1_555 1_555
Fe8 O12 1_555 1_555
O12 C7 1_555 1_555
Fe8 O9 1_555 1_555
O6 C5 1_555 1_555
O9 C5 1_555 1_555
H2 C8 1_555 1_555
O8 Fe2 1_555 1_555
O11 Fe2 1_555 1_555
O15 Fe2 1_555 1_555
O16 Fe2 1_555 1_555
O15 O16 1_555 1_555
Fe6 O14 1_555 1_555
O8_2 Fe2_2 1_555 1_555
O11_2 Fe2_2 1_555 1_555
O15_2 Fe2_2 1_555 1_555
O16_2 Fe2_2 1_555 1_555
O15_2 O16_2 1_555 1_555
Fe6_2 O14_2 1_555 1_555
Fe1_2 O1_2 1_555 1_555
O1_2 C1_2 1_555 1_555
O2_2 C1_2 1_555 1_555
O3_2 Fe1_2 1_555 1_555
C1_2 C2_2 1_555 1_555
C2_2 C3_2 1_555 1_555
C3_2 O3_2 1_555 1_555
C4_2 C2_2 1_555 1_555
H1_2 C4_2 1_555 1_555
O4_2 Fe1_2 1_555 1_555
O5_2 Fe1_2 1_555 1_555
Fe4_2 O2_2 1_555 1_555
C6_2 C7_2 1_555 1_555
C7_2 C4_2 1_555 1_555
O4_2 O5_2 1_555 1_555
Fe8_2 O12_2 1_555 1_555
O12_2 C7_2 1_555 1_555
Fe8_2 O9_2 1_555 1_555
O6_2 C5_2 1_555 1_555
O9_2 C5_2 1_555 1_555
H2_2 C8_2 1_555 1_555
Fe3_2 O13_2 1_555 1_555
Fe3_3 O13_3 1_555 1_555
Fe1_3 O1_3 1_555 1_555
O1_3 C1_3 1_555 1_555
O2_3 C1_3 1_555 1_555
O3_3 Fe1_3 1_555 1_555
C1_3 C2_3 1_555 1_555
C2_3 C3_3 1_555 1_555
C3_3 O3_3 1_555 1_555
C4_3 C2_3 1_555 1_555
H1_3 C4_3 1_555 1_555
O4_3 Fe1_3 1_555 1_555
O5_3 Fe1_3 1_555 1_555
Fe4_3 O2_3 1_555 1_555
Fe8_3 O8_3 1_555 1_555
O8_3 Fe2_3 1_555 1_555
O11_3 Fe2_3 1_555 1_555
O12_3 Fe2_3 1_555 1_555
C6_3 C7_3 1_555 1_555
C7_3 C4_3 1_555 1_555
O15_3 Fe2_3 1_555 1_555
O16_3 Fe2_3 1_555 1_555
O4_3 O5_3 1_555 1_555
Fe8_3 O12_3 1_555 1_555
O12_3 C7_3 1_555 1_555
O15_3 O16_3 1_555 1_555
Fe6_3 O6_3 1_555 1_555
Fe8_3 O9_3 1_555 1_555
O6_3 C5_3 1_555 1_555
O9_3 C5_3 1_555 1_555
H2_3 C8_3 1_555 1_555
Fe6_3 O14_3 1_555 1_555
O4_4 Fe4_2 1_555 1_555
O5_4 Fe4_2 1_555 1_555
O7_4 Fe4_2 1_555 1_555
O4_4 O5_4 1_555 1_555
O7_2 C1_4 1_555 1_555
O2_4 C1_4 1_555 1_555
H1_4 C4_4 1_555 1_555
Fe3_2 O2_4 1_555 1_555
C2_4 C3_4 1_555 1_555
C3_4 O3_4 1_555 1_555
Fe6_3 O6_4 1_555 1_555
Fe3_2 O3_4 1_555 1_555
Fe8_3 O6_4 1_555 1_555
O6_4 C5_4 1_555 1_555
O11_3 C5_4 1_555 1_555
O14_4 Fe6_3 1_555 1_555
C5_4 C6_4 1_555 1_555
C6_4 C7_4 1_555 1_555
C8_4 C3_4 1_555 1_555
H2_4 C8_4 1_555 1_555
O15_4 Fe6_3 1_555 1_555
O16_4 Fe6_3 1_555 1_555
Fe8_3 O14_4 1_555 1_555
O14_3 C7_4 1_555 1_555
C6_4 C8_4 1_555 1_555
O15_4 O16_4 1_555 1_555
Fe8 O14_5 1_555 1_555
O7_3 C1_5 1_555 1_555
O2_5 C1_5 1_555 1_555
H1_5 C4_5 1_555 1_555
Fe3_3 O2_5 1_555 1_555
C2_5 C3_5 1_555 1_555
C3_5 O3_5 1_555 1_555
Fe6 O6_5 1_555 1_555
Fe3_3 O3_5 1_555 1_555
O6_5 C5_5 1_555 1_555
O11 C5_5 1_555 1_555
C5_5 C6_5 1_555 1_555
C6_5 C7_5 1_555 1_555
C8_5 C3_5 1_555 1_555
H2_5 C8_5 1_555 1_555
O15_5 Fe6 1_555 1_555
O16_5 Fe6 1_555 1_555
O14 C7_5 1_555 1_555
C6_5 C8_5 1_555 1_555
O15_5 O16_5 1_555 1_555
O4_5 Fe4_3 1_555 1_555
O5_5 Fe4_3 1_555 1_555
O7_5 Fe4_3 1_555 1_555
O4_5 O5_5 1_555 1_555
O7 C1_6 1_555 1_555
O2_6 C1_6 1_555 1_555
H1_6 C4_6 1_555 1_555
Fe3 O2_6 1_555 1_555
O3_6 Fe4 1_555 1_555
C2_6 C3_6 1_555 1_555
C3_6 O3_6 1_555 1_555
O4_6 Fe4 1_555 1_555
O5_6 Fe4 1_555 1_555
Fe6_2 O6_6 1_555 1_555
Fe3 O3_6 1_555 1_555
O6_6 C5_6 1_555 1_555
O7_6 Fe4 1_555 1_555
O11_2 C5_6 1_555 1_555
C5_6 C6_6 1_555 1_555
C6_6 C7_6 1_555 1_555
C8_6 C3_6 1_555 1_555
H2_6 C8_6 1_555 1_555
O15_6 Fe6_2 1_555 1_555
O16_6 Fe6_2 1_555 1_555
O4_6 O5_6 1_555 1_555
Fe3 O7_6 1_555 1_555
O14_2 C7_6 1_555 1_555
C6_6 C8_6 1_555 1_555
O15_6 O16_6 1_555 1_555
Fe8_2 O14_6 1_555 1_555
C3_7 O13_3 1_555 1_555
O4_7 Fe3_3 1_555 1_555
O5_7 Fe3_3 1_555 1_555
O8_2 C5_7 1_555 1_555
O11_6 C5_7 1_555 1_555
C5_7 C6_7 1_555 1_555
C8_7 C3_7 1_555 1_555
H2_7 C8_7 1_555 1_555
O4_7 O5_7 1_555 1_555
C6_7 C8_7 1_555 1_555
O7_5 C1_7 1_555 1_555
O10_3 C1_7 1_555 1_555
C1_7 C2_7 1_555 1_555
C4_7 C2_7 1_555 1_555
H1_7 C4_7 1_555 1_555
C7_7 C4_7 1_555 1_555
O15_7 Fe8_2 1_555 1_555
O16_7 Fe8_2 1_555 1_555
O14_6 C7_7 1_555 1_555
O15_7 O16_7 1_555 1_555
O7_6 C1_8 1_555 1_555
O10 C1_8 1_555 1_555
C1_8 C2_8 1_555 1_555
C2_8 C3_8 1_555 1_555
C3_8 O13 1_555 1_555
C4_8 C2_8 1_555 1_555
H1_8 C4_8 1_555 1_555
O4_8 Fe3 1_555 1_555
O5_8 Fe3 1_555 1_555
O8_3 C5_8 1_555 1_555
O11_4 C5_8 1_555 1_555
C5_8 C6_8 1_555 1_555
C6_8 C7_8 1_555 1_555
C7_8 C4_8 1_555 1_555
C8_8 C3_8 1_555 1_555
H2_8 C8_8 1_555 1_555
O15_8 Fe8_3 1_555 1_555
O16_8 Fe8_3 1_555 1_555
O4_8 O5_8 1_555 1_555
O14_4 C7_8 1_555 1_555
C6_8 C8_8 1_555 1_555
O15_8 O16_8 1_555 1_555
O7_4 C1_9 1_555 1_555
O10_2 C1_9 1_555 1_555
C1_9 C2_9 1_555 1_555
C4_9 C2_9 1_555 1_555
H1_9 C4_9 1_555 1_555
C7_9 C4_9 1_555 1_555
O15_9 Fe8 1_555 1_555
O16_9 Fe8 1_555 1_555
O14_5 C7_9 1_555 1_555
O15_9 O16_9 1_555 1_555
C3_9 O13_2 1_555 1_555
O4_9 Fe3_2 1_555 1_555
O5_9 Fe3_2 1_555 1_555
O8 C5_9 1_555 1_555
O11_5 C5_9 1_555 1_555
C5_9 C6_9 1_555 1_555
C8_9 C3_9 1_555 1_555
H2_9 C8_9 1_555 1_555
O4_9 O5_9 1_555 1_555
C6_9 C8_9 1_555 1_555

#END
