
###############################################################################
#
# This file contains modified crystal structure data generated from the
# MOF subset of the Cambridge Structural Database (CSD) v543 
# hosted by the Cambridge Crystallographic Data Centre (CCDC).
#
# This work is licensed under the Creative Commons
# Attribution-NonCommercial-ShareAlike 4.0 International License.
# To view a copy of this license, visit
# http://creativecommons.org/licenses/by-nc-sa/4.0/
# or send a letter to
# Creative Commons, PO Box 1866, Mountain View, CA 94042, USA.
#
# CIF created using the CSD Python API on 29 September 2022
# The structure has been converted into the P1 space group
# The structure has a 3D framework
# The original CSD entry CAXZOS is in the tetragonal crystal system
# The original CSD entry CAXZOS is in a Sohncke space group
# The framework has been calculated to contain at least 10.0% void space
# The void calculation uses a probe of radius 1.32A, grid spacing 0.4
#
###############################################################################

data_CAXZOS
_chemical_formula_moiety         '(C768 H512 Co28 N64 O128)n'
_symmetry_cell_setting           triclinic
_symmetry_space_group_name_H-M   'P 1'
_symmetry_Int_Tables_number      1
_space_group_name_Hall           'P 1'
loop_
_symmetry_equiv_pos_site_id
_symmetry_equiv_pos_as_xyz
1 x,y,z
_cell_length_a                   31.9819(12)
_cell_length_b                   31.9819(12)
_cell_length_c                   25.3323(11)
_cell_angle_alpha                90
_cell_angle_beta                 90
_cell_angle_gamma                90
_cell_volume                     25910.9
loop_
_atom_site_label
_atom_site_type_symbol
_atom_site_fract_x
_atom_site_fract_y
_atom_site_fract_z
Co4 Co 0.24585(6) 0.48308(5) 0.17014(7)
O2 O 0.1809(4) 0.5164(4) 0.1694(4)
O3 O 0.0178(3) 0.1838(2) 0.4159(4)
O5 O 0.2326(3) 0.4414(3) 0.2306(4)
O6 O 0.4439(2) 0.7346(3) 0.3545(4)
O7 O 0.0164(3) 0.2287(4) 0.4838(4)
O8 O 0.2269(3) 0.5179(3) 0.1060(4)
O12 O 0.2097(3) 0.4228(3) 0.1551(5)
C5 C 0.0545(4) 0.1646(4) 0.4964(6)
C7 C 0.1963(7) 0.5250(4) 0.1212(6)
N1 N 0.2723(3) 0.5327(3) 0.2112(4)
C8 C 0.1863(4) 0.3823(5) 0.2849(6)
H2 H 0.2052 0.3997 0.3036
C9 C 0.0866(4) 0.6334(4) 0.0030(6)
C10 C 0.0284(4) 0.1911(3) 0.4622(5)
C11 C 0.1399(4) 0.0854(5) 0.5825(6)
O14 O 0.4215(4) 0.7090(3) 0.4331(5)
C12 C 0.1628(5) 0.5529(5) 0.0908(5)
C14 C 0.3872(4) 0.6872(4) 0.3537(6)
C16 C 0.2959(5) 0.6022(6) 0.2202(6)
H4 H 0.2971 0.6294 0.2054
C17 C 0.1853(4) 0.3857(4) 0.2306(5)
C18 C 0.2784(5) 0.5712(5) 0.1936(6)
H5 H 0.2693 0.5771 0.1586
C19 C 0.0978(4) 0.3108(4) 0.3153(6)
C20 C 0.3559(4) 0.6598(4) 0.2720(6)
H6 H 0.3540 0.6607 0.2346
C21 C 0.2107(4) 0.4198(4) 0.2033(7)
C22 C 0.3341(4) 0.6296(4) 0.2983(6)
C23 C 0.0409(5) 0.6967(4) 0.0025(5)
H7 H 0.0255 0.7168 0.0221
C24 C 0.0558(4) 0.3058(4) 0.2933(5)
H8 H 0.0494 0.3164 0.2592
C25 C 0.3813(4) 0.6900(4) 0.2979(6)
H9 H 0.3943 0.7118 0.2783
C27 C 0.3126(5) 0.5948(5) 0.2699(5)
C30 C 0.0615(4) 0.6649(4) 0.0313(6)
H12 H 0.0592 0.6639 0.0687
C36 C 0.1039(3) 0.2947(4) 0.3649(5)
H16 H 0.1307 0.2968 0.3808
C39 C 0.1649(7) 0.0627(5) 0.5571(7)
H17 H 0.1612 0.0585 0.5203
C40 C 0.1053(7) 0.1114(6) 0.5527(6)
C42 C 0.1626(4) 0.3562(4) 0.3127(6)
H18 H 0.1674 0.3516 0.3492
C49 C 0.4157(4) 0.7120(4) 0.3826(5)
C50 C 0.0929(5) 0.1504(5) 0.5735(6)
H25 H 0.1033 0.1600 0.6064
C53 C 0.2912(5) 0.5236(6) 0.2592(6)
H28 H 0.2906 0.4957 0.2723
C55 C 0.1303(5) 0.3362(5) 0.2860(6)
C57 C 0.0706(3) 0.2747(4) 0.3932(5)
H31 H 0.0761 0.2618 0.4262
C60 C 0.1116(4) 0.6038(4) 0.0308(6)
C61 C 0.3639(4) 0.6582(4) 0.3814(5)
H33 H 0.3637 0.6582 0.4189
C65 C 0.1567(4) 0.3609(5) 0.2039(6)
H37 H 0.1559 0.3623 0.1664
C66 C 0.3391(5) 0.6270(5) 0.3514(6)
H38 H 0.3264 0.6046 0.3699
C67 C 0.1425(5) 0.0874(4) 0.6368(6)
H39 H 0.1230 0.1040 0.6557
C68 C 0.1796(6) 0.5689(5) 0.0442(6)
H40 H 0.2076 0.5639 0.0331
C69 C 0.0925(4) 0.1004(5) 0.5051(6)
H41 H 0.1028 0.0751 0.4904
N6 N 0.0296(4) 0.2741(3) 0.3722(4)
H46 H 0.0057 0.7077 0.8090
C76 C 0.0644(4) 0.1244(4) 0.4752(6)
H47 H 0.0527 0.1145 0.4431
C79 C 0.1502(4) 0.5938(5) 0.0146(6)
N8 N 0.2002(3) 0.0450(3) 0.6359(4)
C84 C 0.1993(5) 0.0430(4) 0.5845(7)
H56 H 0.2207 0.0289 0.5655
C85 C 0.1718(5) 0.0663(5) 0.6635(7)
H57 H 0.1724 0.0666 0.7009
C86 C 0.1222(7) 0.5636(6) 0.1060(7)
H58 H 0.1118 0.5531 0.1385
C88 C 0.0653(6) 0.1738(6) 0.5449(6)
H59 H 0.0535 0.1979 0.5609
C89 C 0.3113(6) 0.5554(5) 0.2890(6)
H60 H 0.3237 0.5490 0.3221
C90 C 0.1302(5) 0.3352(5) 0.2285(6)
H61 H 0.1121 0.3171 0.2094
C91 C 0.0985(5) 0.5870(7) 0.0781(7)
H62 H 0.0710 0.5930 0.0903
C92 C 0.0268(4) 0.2865(4) 0.3214(6)
H63 H 0.0012 0.2807 0.3040
Co5 Co 0.48165(5) 0.74845(6) 0.41472(8)
Co7 Co 0.01835(5) 0.75155(6) 0.91472(8)
Co9 Co 0.25415(6) 0.01692(5) 0.67014(7)
N12 N 0.2998(3) 0.4550(3) 0.1359(4)
N4 N 0.0412(3) 0.7009(4) 0.9488(5)
C48 C 0.0622(4) 0.6695(4) 0.9241(5)
H24 H 0.0637 0.6711 0.8867
C74 C 0.0818(5) 0.6350(5) 0.9475(6)
H45 H 0.0918 0.6128 0.9261
H51 H 0.1589 0.6040 0.9810
Co1 Co 0.98396(5) 0.24451(6) 0.41547(8)
Co3 Co 0.75374(6) 0.51673(6) 0.66632(7)
O1 O 0.8140(4) 0.4762(3) 0.6693(4)
O4 O 0.5164(3) 0.6865(2) 0.4128(4)
O9 O 0.9452(3) 0.2310(3) 0.3543(4)
O10 O 0.5134(3) 0.7305(3) 0.4803(4)
C1 C 0.8333(4) 0.4412(4) 0.5906(5)
O11 O 0.7722(3) 0.4809(2) 0.6030(4)
C2 C 0.8022(5) 0.4682(4) 0.6228(5)
C3 C 0.5279(4) 0.6930(3) 0.4600(5)
C4 C 0.8908(5) 0.1817(4) 0.3536(6)
C6 C 0.8155(5) 0.0503(6) 0.2853(7)
H1 H 0.8296 0.0428 0.3169
N2 N 0.9574(3) 0.2926(4) 0.4486(5)
O13 O 0.9270(3) 0.2031(3) 0.4309(4)
N3 N 0.7759(3) 0.0307(3) 0.2081(4)
C13 C 0.8834(4) 0.1877(4) 0.2995(6)
H3 H 0.8944 0.2110 0.2809
C15 C 0.5539(4) 0.6677(4) 0.4901(6)
C26 C 0.6430(5) 0.5925(5) 0.5772(6)
C28 C 0.7973(5) 0.0991(6) 0.2217(7)
H10 H 0.7969 0.1272 0.2095
C29 C 0.9510(5) 0.6849(5) 0.7947(6)
H11 H 0.9592 0.6723 0.7624
C31 C 0.8583(5) 0.1564(4) 0.2737(6)
H13 H 0.8549 0.1575 0.2365
C32 C 0.8768(4) 0.6578(4) 0.7844(5)
C33 C 0.8197(5) 0.4288(6) 0.5413(6)
H14 H 0.7944 0.4393 0.5267
C34 C 0.9209(5) 0.2061(5) 0.3814(6)
C35 C 0.9326(3) 0.7242(3) 0.8860(5)
H15 H 0.9263 0.7404 0.9163
C37 C 0.9073(4) 0.3553(5) 0.5025(6)
C38 C 0.6102(5) 0.6186(5) 0.5466(6)
C41 C 0.8389(5) 0.1249(5) 0.3018(7)
C43 C 0.9627(5) 0.3030(5) 0.5021(6)
H19 H 0.9841 0.2890 0.5211
C44 C 0.8691(4) 0.4237(4) 0.6124(6)
H20 H 0.8761 0.4307 0.6478
C45 C 0.8412(4) 0.6427(4) 0.8075(6)
H21 H 0.8338 0.6510 0.8422
C46 C 0.8170(4) 0.6162(5) 0.7808(5)
H22 H 0.7957 0.6016 0.7993
C47 C 0.5726(7) 0.6791(6) 0.5389(9)
H23 H 0.5655 0.7060 0.5520
C51 C 0.8544(4) 0.6264(4) 0.7010(5)
H26 H 0.8593 0.6197 0.6651
N5 N 0.9741(4) 0.7217(3) 0.8701(5)
C52 C 0.7952(4) 0.0183(5) 0.2548(6)
C54 C 0.7811(5) 0.0698(5) 0.1921(6)
H29 H 0.7726 0.0769 0.1573
C56 C 0.8990(4) 0.7039(4) 0.8596(5)
H30 H 0.8714 0.7048 0.8734
C58 C 0.9076(4) 0.6823(5) 0.8125(8)
C59 C 0.8790(5) 0.6524(5) 0.7262(6)
H32 H 0.8987 0.6683 0.7066
C62 C 0.8699(5) 0.1513(5) 0.3805(6)
H34 H 0.8715 0.1503 0.4180
C63 C 0.8958(5) 0.3961(6) 0.5847(6)
H35 H 0.9204 0.3847 0.5999
C64 C 0.5648(5) 0.6278(4) 0.4730(6)
H36 H 0.5521 0.6158 0.4426
C70 C 0.8452(5) 0.1205(5) 0.3524(6)
H42 H 0.8338 0.0972 0.3706
C71 C 0.5948(5) 0.6060(4) 0.5015(6)
H43 H 0.6048 0.5804 0.4873
C72 C 0.8458(5) 0.3989(7) 0.5127(6)
H44 H 0.8364 0.3880 0.4799
C73 C 0.8150(4) 0.0905(5) 0.2702(5)
C75 C 0.9786(4) 0.7051(5) 0.8240(6)
C77 C 0.5990(6) 0.6565(5) 0.5690(8)
H48 H 0.6090 0.6657 0.6023
C78 C 0.6957(5) 0.5430(5) 0.5812(7)
H49 H 0.7128 0.5234 0.5631
H50 H 0.6824 0.5770 0.6962
N7 N 0.7012(3) 0.5472(3) 0.6314(4)
C80 C 0.9234(8) 0.3164(7) 0.4284(6)
H52 H 0.9179 0.3133 0.3917
C81 C 0.6665(7) 0.5651(7) 0.5519(8)
H53 H 0.6636 0.5608 0.5149
C82 C 0.6491(6) 0.5978(6) 0.6296(7)
H54 H 0.6326 0.6176 0.6482
C83 C 0.8973(7) 0.3435(7) 0.4551(8)
H55 H 0.8724 0.3534 0.4391
C87 C 0.8828(5) 0.3868(4) 0.5320(6)
C93 C 0.9392(4) 0.3318(4) 0.5287(6)
H64 H 0.9441 0.3363 0.5652
C94 C 0.8218(4) 0.6093(4) 0.7274(6)
C95 C 0.7912(5) 0.5763(4) 0.7006(7)
O15 O 0.7671(3) 0.5578(3) 0.7264(4)
O16 O 0.7938(3) 0.5713(3) 0.6526(4)
C96 C 0.6789(7) 0.5747(6) 0.6567(7)
N9 N 0.7241(3) 0.4693(3) 0.7081(4)
N10 N 0.4588(3) 0.7991(4) 0.4488(5)
N11 N 0.5259(4) 0.7783(3) 0.3701(5)
H27 H 0.7950 0.9900 0.2661
Co8 Co 0.74626(6) 0.98327(6) 0.16632(7)
O17 O 0.0561(2) 0.7654(3) 0.8545(4)
O18 O 0.0785(4) 0.7910(3) 0.9331(5)
O1_2 O 0.6860(4) 0.0238(3) 0.1693(4)
C1_2 C 0.6667(4) 0.0588(4) 0.0906(5)
O11_2 O 0.7278(3) 0.0191(2) 0.1030(4)
C2_2 C 0.6978(5) 0.0318(4) 0.1228(5)
C11_2 C 0.3601(4) 0.4146(5) 0.0825(6)
C33_2 C 0.6803(5) 0.0712(6) 0.0413(6)
H14_2 H 0.7056 0.0607 0.0267
C37_2 C 0.5927(4) 0.1447(5) 0.0025(6)
C39_2 C 0.3351(7) 0.4373(5) 0.0571(7)
H17_2 H 0.3388 0.4415 0.0203
C40_2 C 0.3947(7) 0.3886(6) 0.0527(6)
C43_2 C 0.5373(5) 0.1970(5) 0.0021(6)
H19_2 H 0.5159 0.2110 0.0211
C44_2 C 0.6309(4) 0.0763(4) 0.1124(6)
H20_2 H 0.6239 0.0693 0.1478
C50_2 C 0.4071(5) 0.3496(5) 0.0735(6)
H25_2 H 0.3967 0.3400 0.1064
C63_2 C 0.6042(5) 0.1039(6) 0.0847(6)
H35_2 H 0.5796 0.1153 0.0999
C67_2 C 0.3575(5) 0.4126(4) 0.1368(6)
H39_2 H 0.3770 0.3960 0.1557
C69_2 C 0.4075(4) 0.3996(5) 0.0051(6)
C72_2 C 0.6542(5) 0.1011(7) 0.0127(6)
C84_2 C 0.3007(5) 0.4570(4) 0.0845(7)
H56_2 H 0.2793 0.4711 0.0655
C85_2 C 0.3282(5) 0.4337(5) 0.1635(7)
H57_2 H 0.3276 0.4334 0.2009
C87_2 C 0.6172(5) 0.1132(4) 0.0320(6)
C88_2 C 0.4347(6) 0.3262(6) 0.0449(6)
H59_2 H 0.4465 0.3021 0.0609
C93_2 C 0.5608(4) 0.1682(4) 0.0287(6)
H64_2 H 0.5559 0.1637 0.0652
Co1_2 Co 0.51604(5) 0.25549(6) 0.91547(8)
O3_2 O 0.4822(3) 0.3162(2) 0.9159(4)
O5_2 O 0.2674(3) 0.0586(3) 0.7306(4)
O7_2 O 0.4836(3) 0.2713(4) 0.9838(4)
O9_2 O 0.5548(3) 0.2690(3) 0.8543(4)
O12_2 O 0.2903(3) 0.0772(3) 0.6551(5)
C4_2 C 0.6092(5) 0.3183(4) 0.8536(6)
C5_2 C 0.4455(4) 0.3354(4) 0.9964(6)
C6_2 C 0.6845(5) 0.4497(6) 0.7853(7)
H1_2 H 0.6704 0.4572 0.8169
N2_2 N 0.5426(3) 0.2074(4) 0.9486(5)
O13_2 O 0.5730(3) 0.2969(3) 0.9309(4)
C8_2 C 0.3137(4) 0.1177(5) 0.7849(6)
H2_2 H 0.2948 0.1003 0.8036
C10_2 C 0.4716(4) 0.3089(3) 0.9622(5)
C13_2 C 0.6166(4) 0.3123(4) 0.7995(6)
H3_2 H 0.6056 0.2890 0.7809
C17_2 C 0.3147(4) 0.1143(4) 0.7306(5)
C19_2 C 0.4022(4) 0.1892(4) 0.8153(6)
C21_2 C 0.2893(4) 0.0802(4) 0.7033(7)
C24_2 C 0.4442(4) 0.1942(4) 0.7933(5)
H8_2 H 0.4506 0.1836 0.7592
C28_2 C 0.7027(5) 0.4009(6) 0.7217(7)
H10_2 H 0.7031 0.3728 0.7095
C31_2 C 0.6417(5) 0.3436(4) 0.7737(6)
H13_2 H 0.6451 0.3425 0.7365
C34_2 C 0.5791(5) 0.2939(5) 0.8814(6)
C36_2 C 0.3961(3) 0.2053(4) 0.8649(5)
H16_2 H 0.3693 0.2032 0.8808
C41_2 C 0.6611(5) 0.3751(5) 0.8018(7)
C42_2 C 0.3374(4) 0.1438(4) 0.8127(6)
H18_2 H 0.3326 0.1484 0.8492
C52_2 C 0.7048(4) 0.4817(5) 0.7548(6)
H27_2 H 0.7050 0.5100 0.7661
H28_2 H 0.2094 0.0043 0.7723
C54_2 C 0.7189(5) 0.4302(5) 0.6921(6)
H29_2 H 0.7274 0.4231 0.6573
C55_2 C 0.3697(5) 0.1638(5) 0.7860(6)
C57_2 C 0.4294(3) 0.2253(4) 0.8932(5)
H31_2 H 0.4239 0.2382 0.9262
C62_2 C 0.6301(5) 0.3487(5) 0.8805(6)
H34_2 H 0.6285 0.3497 0.9180
C65_2 C 0.3433(4) 0.1391(5) 0.7039(6)
H37_2 H 0.3441 0.1377 0.6664
H41_2 H 0.3972 0.4249 0.9904
C70_2 C 0.6548(5) 0.3795(5) 0.8524(6)
H42_2 H 0.6662 0.4028 0.8706
N6_2 N 0.4704(4) 0.2259(3) 0.8722(4)
H44_2 H 0.6636 0.1120 0.9799
C73_2 C 0.6850(4) 0.4095(5) 0.7702(5)
C76_2 C 0.4356(4) 0.3756(4) 0.9752(6)
H47_2 H 0.4473 0.3855 0.9431
C80_2 C 0.5766(8) 0.1836(7) 0.9284(6)
H52_2 H 0.5821 0.1867 0.8917
C83_2 C 0.6027(7) 0.1565(7) 0.9551(8)
H55_2 H 0.6276 0.1466 0.9391
C90_2 C 0.3698(5) 0.1648(5) 0.7285(6)
H61_2 H 0.3879 0.1829 0.7094
C92_2 C 0.4732(4) 0.2135(4) 0.8214(6)
H63_2 H 0.4988 0.2193 0.8040
C26_2 C 0.8570(5) 0.9075(5) 0.0772(6)
C29_2 C 0.5490(5) 0.8151(5) 0.2947(6)
H11_2 H 0.5408 0.8277 0.2624
C32_2 C 0.6232(4) 0.8422(4) 0.2844(5)
C35_2 C 0.5674(3) 0.7758(3) 0.3860(5)
H15_2 H 0.5737 0.7596 0.4163
C38_2 C 0.8898(5) 0.8814(5) 0.0466(6)
C45_2 C 0.6588(4) 0.8573(4) 0.3075(6)
H21_2 H 0.6662 0.8490 0.3422
C46_2 C 0.6830(4) 0.8838(5) 0.2808(5)
H22_2 H 0.7043 0.8984 0.2993
C47_2 C 0.9274(7) 0.8209(6) 0.0389(9)
H23_2 H 0.9345 0.7940 0.0520
C51_2 C 0.6456(4) 0.8736(4) 0.2010(5)
H26_2 H 0.6407 0.8803 0.1651
C56_2 C 0.6010(4) 0.7961(4) 0.3596(5)
H30_2 H 0.6286 0.7952 0.3734
C58_2 C 0.5924(4) 0.8177(5) 0.3125(8)
C59_2 C 0.6210(5) 0.8476(5) 0.2262(6)
H32_2 H 0.6013 0.8317 0.2066
C71_2 C 0.9052(5) 0.8940(4) 0.0015(6)
C75_2 C 0.5214(4) 0.7949(5) 0.3240(6)
H46_2 H 0.4943 0.7923 0.3090
C77_2 C 0.9010(6) 0.8435(5) 0.0690(8)
H48_2 H 0.8910 0.8343 0.1023
C78_2 C 0.8043(5) 0.9570(5) 0.0812(7)
H49_2 H 0.7872 0.9766 0.0631
H50_2 H 0.8176 0.9230 0.1962
N7_2 N 0.7988(3) 0.9528(3) 0.1314(4)
C81_2 C 0.8335(7) 0.9349(7) 0.0519(8)
H53_2 H 0.8364 0.9392 0.0149
C82_2 C 0.8509(6) 0.9022(6) 0.1296(7)
H54_2 H 0.8674 0.8824 0.1482
C94_2 C 0.6782(4) 0.8907(4) 0.2274(6)
C95_2 C 0.7088(5) 0.9237(4) 0.2006(7)
O15_2 O 0.7329(3) 0.9422(3) 0.2264(4)
O16_2 O 0.7062(3) 0.9287(3) 0.1526(4)
C96_2 C 0.8211(7) 0.9253(6) 0.1567(7)
O2_2 O 0.3191(4) 0.9836(4) 0.6694(4)
O4_2 O 0.9836(3) 0.8135(2) 0.9128(4)
O8_2 O 0.2731(3) 0.9821(3) 0.6060(4)
O10_2 O 0.9866(3) 0.7695(3) 0.9803(4)
C3_2 C 0.9721(4) 0.8070(3) 0.9600(5)
C7_2 C 0.3037(7) 0.9750(4) 0.6212(6)
N1_2 N 0.2277(3) 0.9673(3) 0.7112(4)
C9_2 C 0.4134(4) 0.8666(4) 0.5030(6)
C12_2 C 0.3372(5) 0.9471(5) 0.5908(5)
C14_2 C 0.1128(4) 0.8128(4) 0.8537(6)
C15_2 C 0.9461(4) 0.8323(4) 0.9901(6)
C16_2 C 0.2041(5) 0.8978(6) 0.7202(6)
H4_2 H 0.2029 0.8706 0.7054
C18_2 C 0.2216(5) 0.9288(5) 0.6936(6)
H5_2 H 0.2307 0.9229 0.6586
C20_2 C 0.1441(4) 0.8402(4) 0.7720(6)
H6_2 H 0.1460 0.8393 0.7346
C22_2 C 0.1659(4) 0.8704(4) 0.7983(6)
C23_2 C 0.4591(5) 0.8033(4) 0.5025(5)
H7_2 H 0.4745 0.7832 0.5221
C25_2 C 0.1187(4) 0.8100(4) 0.7979(6)
H9_2 H 0.1057 0.7882 0.7783
C27_2 C 0.1874(5) 0.9052(5) 0.7699(5)
C30_2 C 0.4385(4) 0.8351(4) 0.5313(6)
H12_2 H 0.4408 0.8361 0.5687
C48_2 C 0.4378(4) 0.8305(4) 0.4241(5)
H24_2 H 0.4363 0.8289 0.3867
C49_2 C 0.0843(4) 0.7880(4) 0.8826(5)
C53_2 C 0.2088(5) 0.9764(6) 0.7592(6)
C60_2 C 0.3884(4) 0.8962(4) 0.5308(6)
C61_2 C 0.1361(4) 0.8418(4) 0.8814(5)
H33_2 H 0.1363 0.8418 0.9189
C64_2 C 0.9352(5) 0.8722(4) 0.9730(6)
H36_2 H 0.9479 0.8842 0.9426
C66_2 C 0.1609(5) 0.8730(5) 0.8514(6)
H38_2 H 0.1736 0.8954 0.8699
C68_2 C 0.3204(6) 0.9311(5) 0.5442(6)
H40_2 H 0.2924 0.9361 0.5331
H43_2 H 0.8952 0.9196 0.9873
C74_2 C 0.4182(5) 0.8650(5) 0.4475(6)
H45_2 H 0.4082 0.8872 0.4261
C79_2 C 0.3498(4) 0.9062(5) 0.5146(6)
H51_2 H 0.3411 0.8960 0.4810
C86_2 C 0.3778(7) 0.9364(6) 0.6060(7)
H58_2 H 0.3882 0.9469 0.6385
C89_2 C 0.1887(6) 0.9446(5) 0.7890(6)
H60_2 H 0.1763 0.9510 0.8221
C91_2 C 0.4015(5) 0.9130(7) 0.5781(7)
H62_2 H 0.4290 0.9070 0.5903
H27_3 H 0.0100 0.7950 0.2661
Co8_2 Co 0.01673(6) 0.74626(6) 0.16632(7)
Co4_2 Co 0.51692(5) 0.24585(6) 0.17014(7)
O2_3 O 0.4836(4) 0.1809(4) 0.1694(4)
O3_3 O 0.8162(2) 0.0178(3) 0.4159(4)
O5_3 O 0.5586(3) 0.2326(3) 0.2306(4)
O6_2 O 0.2654(3) 0.4439(2) 0.3545(4)
O7_3 O 0.7713(4) 0.0164(3) 0.4838(4)
O8_3 O 0.4821(3) 0.2269(3) 0.1060(4)
O12_3 O 0.5772(3) 0.2097(3) 0.1551(5)
C5_3 C 0.8354(4) 0.0545(4) 0.4964(6)
C7_3 C 0.4750(4) 0.1963(7) 0.1212(6)
N1_3 N 0.4673(3) 0.2723(3) 0.2112(4)
C8_3 C 0.6177(5) 0.1863(4) 0.2849(6)
H2_3 H 0.6003 0.2052 0.3036
C9_3 C 0.3666(4) 0.0866(4) 0.0030(6)
C10_3 C 0.8089(3) 0.0284(4) 0.4622(5)
C11_3 C 0.9146(5) 0.1399(4) 0.5825(6)
O14_2 O 0.2910(3) 0.4215(4) 0.4331(5)
C12_3 C 0.4471(5) 0.1628(5) 0.0908(5)
C14_3 C 0.3128(4) 0.3872(4) 0.3537(6)
C16_3 C 0.3978(6) 0.2959(5) 0.2202(6)
H4_3 H 0.3706 0.2971 0.2054
C17_3 C 0.6143(4) 0.1853(4) 0.2306(5)
C18_3 C 0.4288(5) 0.2784(5) 0.1936(6)
H5_3 H 0.4229 0.2693 0.1586
C19_3 C 0.6892(4) 0.0978(4) 0.3153(6)
C20_3 C 0.3402(4) 0.3559(4) 0.2720(6)
H6_3 H 0.3393 0.3540 0.2346
C21_3 C 0.5802(4) 0.2107(4) 0.2033(7)
C22_3 C 0.3704(4) 0.3341(4) 0.2983(6)
C23_3 C 0.3033(4) 0.0409(5) 0.0025(5)
H7_3 H 0.2832 0.0255 0.0221
C24_3 C 0.6942(4) 0.0558(4) 0.2933(5)
H8_3 H 0.6836 0.0494 0.2592
C25_3 C 0.3100(4) 0.3813(4) 0.2979(6)
H9_3 H 0.2882 0.3943 0.2783
C27_3 C 0.4052(5) 0.3126(5) 0.2699(5)
C30_3 C 0.3351(4) 0.0615(4) 0.0313(6)
H12_3 H 0.3361 0.0592 0.0687
C36_3 C 0.7053(4) 0.1039(3) 0.3649(5)
H16_3 H 0.7032 0.1307 0.3808
C39_3 C 0.9373(5) 0.1649(7) 0.5571(7)
H17_3 H 0.9415 0.1612 0.5203
C40_3 C 0.8886(6) 0.1053(7) 0.5527(6)
C42_3 C 0.6438(4) 0.1626(4) 0.3127(6)
H18_3 H 0.6484 0.1674 0.3492
C49_3 C 0.2880(4) 0.4157(4) 0.3826(5)
C50_3 C 0.8496(5) 0.0929(5) 0.5735(6)
H25_3 H 0.8400 0.1033 0.6064
C53_3 C 0.4764(6) 0.2912(5) 0.2592(6)
H28_3 H 0.5043 0.2906 0.2723
C55_3 C 0.6638(5) 0.1303(5) 0.2860(6)
C57_3 C 0.7253(4) 0.0706(3) 0.3932(5)
H31_3 H 0.7382 0.0761 0.4262
C60_3 C 0.3962(4) 0.1116(4) 0.0308(6)
C61_3 C 0.3418(4) 0.3639(4) 0.3814(5)
H33_3 H 0.3418 0.3637 0.4189
C65_3 C 0.6391(5) 0.1567(4) 0.2039(6)
H37_3 H 0.6377 0.1559 0.1664
C66_3 C 0.3730(5) 0.3391(5) 0.3514(6)
H38_3 H 0.3954 0.3264 0.3699
C67_3 C 0.9126(4) 0.1425(5) 0.6368(6)
H39_3 H 0.8960 0.1230 0.6557
C68_3 C 0.4311(5) 0.1796(6) 0.0442(6)
H40_3 H 0.4361 0.2076 0.0331
C69_3 C 0.8996(5) 0.0925(4) 0.5051(6)
H41_3 H 0.9249 0.1028 0.4904
N6_3 N 0.7259(3) 0.0296(4) 0.3722(4)
H46_3 H 0.2923 0.0057 0.8090
C76_3 C 0.8756(4) 0.0644(4) 0.4752(6)
H47_3 H 0.8855 0.0527 0.4431
C79_3 C 0.4062(5) 0.1502(4) 0.0146(6)
N8_2 N 0.9550(3) 0.2002(3) 0.6359(4)
C84_3 C 0.9570(4) 0.1993(5) 0.5845(7)
H56_3 H 0.9711 0.2207 0.5655
C85_3 C 0.9337(5) 0.1718(5) 0.6635(7)
H57_3 H 0.9334 0.1724 0.7009
C86_3 C 0.4364(6) 0.1222(7) 0.1060(7)
H58_3 H 0.4469 0.1118 0.1385
C88_3 C 0.8262(6) 0.0653(6) 0.5449(6)
H59_3 H 0.8021 0.0535 0.5609
C89_3 C 0.4446(5) 0.3113(6) 0.2890(6)
H60_3 H 0.4510 0.3237 0.3221
C90_3 C 0.6648(5) 0.1302(5) 0.2285(6)
H61_3 H 0.6829 0.1121 0.2094
C91_3 C 0.4130(7) 0.0985(5) 0.0781(7)
H62_3 H 0.4070 0.0710 0.0903
C92_3 C 0.7135(4) 0.0268(4) 0.3214(6)
H63_3 H 0.7193 0.0012 0.3040
Co5_2 Co 0.25155(6) 0.48165(5) 0.41472(8)
Co7_2 Co 0.24845(6) 0.01835(5) 0.91472(8)
Co9_2 Co 0.98308(5) 0.25415(6) 0.67014(7)
N12_2 N 0.5450(3) 0.2998(3) 0.1359(4)
N4_2 N 0.2991(4) 0.0412(3) 0.9488(5)
C48_3 C 0.3305(4) 0.0622(4) 0.9241(5)
H24_3 H 0.3289 0.0637 0.8867
C74_3 C 0.3650(5) 0.0818(5) 0.9475(6)
H45_3 H 0.3872 0.0918 0.9261
H51_3 H 0.3960 0.1589 0.9810
Co1_3 Co 0.75549(6) 0.98396(5) 0.41547(8)
Co3_2 Co 0.48327(6) 0.75374(6) 0.66632(7)
O1_3 O 0.5238(3) 0.8140(4) 0.6693(4)
O4_3 O 0.3135(2) 0.5164(3) 0.4128(4)
O9_3 O 0.7690(3) 0.9452(3) 0.3543(4)
O10_3 O 0.2695(3) 0.5134(3) 0.4803(4)
C1_3 C 0.5588(4) 0.8333(4) 0.5906(5)
O11_3 O 0.5191(2) 0.7722(3) 0.6030(4)
C2_3 C 0.5318(4) 0.8022(5) 0.6228(5)
C3_3 C 0.3070(3) 0.5279(4) 0.4600(5)
C4_3 C 0.8183(4) 0.8908(5) 0.3536(6)
C6_3 C 0.9497(6) 0.8155(5) 0.2853(7)
H1_3 H 0.9572 0.8296 0.3169
N2_3 N 0.7074(4) 0.9574(3) 0.4486(5)
O13_3 O 0.7969(3) 0.9270(3) 0.4309(4)
N3_2 N 0.9693(3) 0.7759(3) 0.2081(4)
C13_3 C 0.8123(4) 0.8834(4) 0.2995(6)
H3_3 H 0.7890 0.8944 0.2809
C15_3 C 0.3323(4) 0.5539(4) 0.4901(6)
C26_3 C 0.4075(5) 0.6430(5) 0.5772(6)
C28_3 C 0.9009(6) 0.7973(5) 0.2217(7)
H10_3 H 0.8728 0.7969 0.2095
C29_3 C 0.3151(5) 0.9510(5) 0.7947(6)
H11_3 H 0.3277 0.9592 0.7624
C31_3 C 0.8436(4) 0.8583(5) 0.2737(6)
H13_3 H 0.8425 0.8549 0.2365
C32_3 C 0.3422(4) 0.8768(4) 0.7844(5)
C33_3 C 0.5712(6) 0.8197(5) 0.5413(6)
H14_3 H 0.5607 0.7944 0.5267
C34_3 C 0.7939(5) 0.9209(5) 0.3814(6)
C35_3 C 0.2758(3) 0.9326(3) 0.8860(5)
H15_3 H 0.2596 0.9263 0.9163
C37_3 C 0.6447(5) 0.9073(4) 0.5025(6)
C38_3 C 0.3814(5) 0.6102(5) 0.5466(6)
C41_3 C 0.8751(5) 0.8389(5) 0.3018(7)
C43_3 C 0.6970(5) 0.9627(5) 0.5021(6)
H19_3 H 0.7110 0.9841 0.5211
C44_3 C 0.5763(4) 0.8691(4) 0.6124(6)
H20_3 H 0.5693 0.8761 0.6478
C45_3 C 0.3573(4) 0.8412(4) 0.8075(6)
H21_3 H 0.3490 0.8338 0.8422
C46_3 C 0.3838(5) 0.8170(4) 0.7808(5)
H22_3 H 0.3984 0.7957 0.7993
C47_3 C 0.3209(6) 0.5726(7) 0.5389(9)
H23_3 H 0.2940 0.5655 0.5520
C51_3 C 0.3736(4) 0.8544(4) 0.7010(5)
H26_3 H 0.3803 0.8593 0.6651
N5_2 N 0.2783(3) 0.9741(4) 0.8701(5)
C52_3 C 0.9817(5) 0.7952(4) 0.2548(6)
C54_3 C 0.9302(5) 0.7811(5) 0.1921(6)
H29_3 H 0.9231 0.7726 0.1573
C56_3 C 0.2961(4) 0.8990(4) 0.8596(5)
H30_3 H 0.2952 0.8714 0.8734
C58_3 C 0.3177(5) 0.9076(4) 0.8125(8)
C59_3 C 0.3476(5) 0.8790(5) 0.7262(6)
H32_3 H 0.3317 0.8987 0.7066
C62_3 C 0.8487(5) 0.8699(5) 0.3805(6)
H34_3 H 0.8497 0.8715 0.4180
C63_3 C 0.6039(6) 0.8958(5) 0.5847(6)
H35_3 H 0.6153 0.9204 0.5999
C64_3 C 0.3722(4) 0.5648(5) 0.4730(6)
H36_3 H 0.3842 0.5521 0.4426
C70_3 C 0.8795(5) 0.8452(5) 0.3524(6)
H42_3 H 0.9028 0.8338 0.3706
C71_3 C 0.3940(4) 0.5948(5) 0.5015(6)
H43_3 H 0.4196 0.6048 0.4873
C72_3 C 0.6011(7) 0.8458(5) 0.5127(6)
H44_3 H 0.6120 0.8364 0.4799
C73_3 C 0.9095(5) 0.8150(4) 0.2702(5)
C75_3 C 0.2949(5) 0.9786(4) 0.8240(6)
C77_3 C 0.3435(5) 0.5990(6) 0.5690(8)
H48_3 H 0.3343 0.6090 0.6023
C78_3 C 0.4570(5) 0.6957(5) 0.5812(7)
H49_3 H 0.4766 0.7128 0.5631
H50_3 H 0.4230 0.6824 0.6962
N7_3 N 0.4528(3) 0.7012(3) 0.6314(4)
C80_3 C 0.6836(7) 0.9234(8) 0.4284(6)
H52_3 H 0.6867 0.9179 0.3917
C81_3 C 0.4349(7) 0.6665(7) 0.5519(8)
H53_3 H 0.4392 0.6636 0.5149
C82_3 C 0.4022(6) 0.6491(6) 0.6296(7)
H54_3 H 0.3824 0.6326 0.6482
C83_3 C 0.6565(7) 0.8973(7) 0.4551(8)
H55_3 H 0.6466 0.8724 0.4391
C87_3 C 0.6132(4) 0.8828(5) 0.5320(6)
C93_3 C 0.6682(4) 0.9392(4) 0.5287(6)
H64_3 H 0.6637 0.9441 0.5652
C94_3 C 0.3907(4) 0.8218(4) 0.7274(6)
C95_3 C 0.4237(4) 0.7912(5) 0.7006(7)
O15_3 O 0.4422(3) 0.7671(3) 0.7264(4)
O16_3 O 0.4287(3) 0.7938(3) 0.6526(4)
C96_3 C 0.4253(6) 0.6789(7) 0.6567(7)
N9_2 N 0.5307(3) 0.7241(3) 0.7081(4)
N10_2 N 0.2009(4) 0.4588(3) 0.4488(5)
N11_2 N 0.2217(3) 0.5259(4) 0.3701(5)
O17_2 O 0.2346(3) 0.0561(2) 0.8545(4)
O18_2 O 0.2090(3) 0.0785(4) 0.9331(5)
C26_4 C 0.0925(5) 0.8570(5) 0.0772(6)
C29_4 C 0.1849(5) 0.5490(5) 0.2947(6)
H11_4 H 0.1723 0.5408 0.2624
C32_4 C 0.1578(4) 0.6232(4) 0.2844(5)
C35_4 C 0.2242(3) 0.5674(3) 0.3860(5)
H15_4 H 0.2404 0.5737 0.4163
C38_4 C 0.1186(5) 0.8898(5) 0.0466(6)
C45_4 C 0.1427(4) 0.6588(4) 0.3075(6)
H21_4 H 0.1510 0.6662 0.3422
C46_4 C 0.1162(5) 0.6830(4) 0.2808(5)
H22_4 H 0.1016 0.7043 0.2993
C47_4 C 0.1791(6) 0.9274(7) 0.0389(9)
H23_4 H 0.2060 0.9345 0.0520
C51_4 C 0.1264(4) 0.6456(4) 0.2010(5)
H26_4 H 0.1197 0.6407 0.1651
C56_4 C 0.2039(4) 0.6010(4) 0.3596(5)
H30_4 H 0.2048 0.6286 0.3734
C58_4 C 0.1823(5) 0.5924(4) 0.3125(8)
C59_4 C 0.1524(5) 0.6210(5) 0.2262(6)
H32_4 H 0.1683 0.6013 0.2066
C71_4 C 0.1060(4) 0.9052(5) 0.0015(6)
C75_4 C 0.2051(5) 0.5214(4) 0.3240(6)
H46_4 H 0.2077 0.4943 0.3090
C77_4 C 0.1565(5) 0.9010(6) 0.0690(8)
H48_4 H 0.1657 0.8910 0.1023
C78_4 C 0.0430(5) 0.8043(5) 0.0812(7)
H49_4 H 0.0234 0.7872 0.0631
H50_4 H 0.0770 0.8176 0.1962
N7_4 N 0.0472(3) 0.7988(3) 0.1314(4)
C81_4 C 0.0651(7) 0.8335(7) 0.0519(8)
H53_4 H 0.0608 0.8364 0.0149
C82_4 C 0.0978(6) 0.8509(6) 0.1296(7)
H54_4 H 0.1176 0.8674 0.1482
C94_4 C 0.1093(4) 0.6782(4) 0.2274(6)
C95_4 C 0.0763(4) 0.7088(5) 0.2006(7)
O15_4 O 0.0578(3) 0.7329(3) 0.2264(4)
O16_4 O 0.0713(3) 0.7062(3) 0.1526(4)
C96_4 C 0.0747(6) 0.8211(7) 0.1567(7)
O2_4 O 0.0164(4) 0.3191(4) 0.6694(4)
O4_4 O 0.1865(2) 0.9836(3) 0.9128(4)
O8_4 O 0.0179(3) 0.2731(3) 0.6060(4)
O10_4 O 0.2305(3) 0.9866(3) 0.9803(4)
C3_4 C 0.1930(3) 0.9721(4) 0.9600(5)
C7_4 C 0.0250(4) 0.3037(7) 0.6212(6)
N1_4 N 0.0327(3) 0.2277(3) 0.7112(4)
C9_4 C 0.1334(4) 0.4134(4) 0.5030(6)
C12_4 C 0.0529(5) 0.3372(5) 0.5908(5)
C14_4 C 0.1872(4) 0.1128(4) 0.8537(6)
C15_4 C 0.1677(4) 0.9461(4) 0.9901(6)
C16_4 C 0.1022(6) 0.2041(5) 0.7202(6)
H4_4 H 0.1294 0.2029 0.7054
C18_4 C 0.0712(5) 0.2216(5) 0.6936(6)
H5_4 H 0.0771 0.2307 0.6586
C20_4 C 0.1598(4) 0.1441(4) 0.7720(6)
H6_4 H 0.1607 0.1460 0.7346
C22_4 C 0.1296(4) 0.1659(4) 0.7983(6)
C23_4 C 0.1967(4) 0.4591(5) 0.5025(5)
H7_4 H 0.2168 0.4745 0.5221
C25_4 C 0.1900(4) 0.1187(4) 0.7979(6)
H9_4 H 0.2118 0.1057 0.7783
C27_4 C 0.0948(5) 0.1874(5) 0.7699(5)
C30_4 C 0.1649(4) 0.4385(4) 0.5313(6)
H12_4 H 0.1639 0.4408 0.5687
C48_4 C 0.1695(4) 0.4378(4) 0.4241(5)
H24_4 H 0.1711 0.4363 0.3867
C49_4 C 0.2120(4) 0.0843(4) 0.8826(5)
C53_4 C 0.0236(6) 0.2088(5) 0.7592(6)
C60_4 C 0.1038(4) 0.3884(4) 0.5308(6)
C61_4 C 0.1582(4) 0.1361(4) 0.8814(5)
H33_4 H 0.1582 0.1363 0.9189
C64_4 C 0.1278(4) 0.9352(5) 0.9730(6)
H36_4 H 0.1158 0.9479 0.9426
C66_4 C 0.1270(5) 0.1609(5) 0.8514(6)
H38_4 H 0.1046 0.1736 0.8699
C68_4 C 0.0689(5) 0.3204(6) 0.5442(6)
H40_4 H 0.0639 0.2924 0.5331
H43_4 H 0.0804 0.8952 0.9873
C74_4 C 0.1350(5) 0.4182(5) 0.4475(6)
H45_4 H 0.1128 0.4082 0.4261
C79_4 C 0.0938(5) 0.3498(4) 0.5146(6)
H51_4 H 0.1040 0.3411 0.4810
C86_4 C 0.0636(6) 0.3778(7) 0.6060(7)
H58_4 H 0.0531 0.3882 0.6385
C89_4 C 0.0554(5) 0.1887(6) 0.7890(6)
H60_4 H 0.0490 0.1763 0.8221
C91_4 C 0.0870(7) 0.4015(5) 0.5781(7)
H62_4 H 0.0930 0.4290 0.5903
O1_4 O 0.9762(3) 0.6860(4) 0.1693(4)
C1_4 C 0.9412(4) 0.6667(4) 0.0906(5)
O11_4 O 0.9809(2) 0.7278(3) 0.1030(4)
C2_4 C 0.9682(4) 0.6978(5) 0.1228(5)
C11_4 C 0.5854(5) 0.3601(4) 0.0825(6)
C33_4 C 0.9288(6) 0.6803(5) 0.0413(6)
H14_4 H 0.9393 0.7056 0.0267
C37_4 C 0.8553(5) 0.5927(4) 0.0025(6)
C39_4 C 0.5627(5) 0.3351(7) 0.0571(7)
H17_4 H 0.5585 0.3388 0.0203
C40_4 C 0.6114(6) 0.3947(7) 0.0527(6)
C43_4 C 0.8030(5) 0.5373(5) 0.0021(6)
H19_4 H 0.7890 0.5159 0.0211
C44_4 C 0.9237(4) 0.6309(4) 0.1124(6)
H20_4 H 0.9307 0.6239 0.1478
C50_4 C 0.6504(5) 0.4071(5) 0.0735(6)
H25_4 H 0.6600 0.3967 0.1064
C63_4 C 0.8961(6) 0.6042(5) 0.0847(6)
H35_4 H 0.8847 0.5796 0.0999
C67_4 C 0.5874(4) 0.3575(5) 0.1368(6)
H39_4 H 0.6040 0.3770 0.1557
C69_4 C 0.6004(5) 0.4075(4) 0.0051(6)
C72_4 C 0.8989(7) 0.6542(5) 0.0127(6)
C84_4 C 0.5430(4) 0.3007(5) 0.0845(7)
H56_4 H 0.5289 0.2793 0.0655
C85_4 C 0.5663(5) 0.3282(5) 0.1635(7)
H57_4 H 0.5666 0.3276 0.2009
C87_4 C 0.8868(4) 0.6172(5) 0.0320(6)
C88_4 C 0.6738(6) 0.4347(6) 0.0449(6)
H59_4 H 0.6979 0.4465 0.0609
C93_4 C 0.8318(4) 0.5608(4) 0.0287(6)
H64_4 H 0.8363 0.5559 0.0652
Co1_4 Co 0.74451(6) 0.51604(5) 0.91547(8)
O3_4 O 0.6838(2) 0.4822(3) 0.9159(4)
O5_4 O 0.9414(3) 0.2674(3) 0.7306(4)
O7_4 O 0.7287(4) 0.4836(3) 0.9838(4)
O9_4 O 0.7310(3) 0.5548(3) 0.8543(4)
O12_4 O 0.9228(3) 0.2903(3) 0.6551(5)
C4_4 C 0.6817(4) 0.6092(5) 0.8536(6)
C5_4 C 0.6646(4) 0.4455(4) 0.9964(6)
C6_4 C 0.5503(6) 0.6845(5) 0.7853(7)
H1_4 H 0.5428 0.6704 0.8169
N2_4 N 0.7926(4) 0.5426(3) 0.9486(5)
O13_4 O 0.7031(3) 0.5730(3) 0.9309(4)
C8_4 C 0.8823(5) 0.3137(4) 0.7849(6)
H2_4 H 0.8997 0.2948 0.8036
C10_4 C 0.6911(3) 0.4716(4) 0.9622(5)
C13_4 C 0.6877(4) 0.6166(4) 0.7995(6)
H3_4 H 0.7110 0.6056 0.7809
C17_4 C 0.8857(4) 0.3147(4) 0.7306(5)
C19_4 C 0.8108(4) 0.4022(4) 0.8153(6)
C21_4 C 0.9198(4) 0.2893(4) 0.7033(7)
C24_4 C 0.8058(4) 0.4442(4) 0.7933(5)
H8_4 H 0.8164 0.4506 0.7592
C28_4 C 0.5991(6) 0.7027(5) 0.7217(7)
H10_4 H 0.6272 0.7031 0.7095
C31_4 C 0.6564(4) 0.6417(5) 0.7737(6)
H13_4 H 0.6575 0.6451 0.7365
C34_4 C 0.7061(5) 0.5791(5) 0.8814(6)
C36_4 C 0.7947(4) 0.3961(3) 0.8649(5)
H16_4 H 0.7968 0.3693 0.8808
C41_4 C 0.6249(5) 0.6611(5) 0.8018(7)
C42_4 C 0.8562(4) 0.3374(4) 0.8127(6)
H18_4 H 0.8516 0.3326 0.8492
C52_4 C 0.5183(5) 0.7048(4) 0.7548(6)
H27_4 H 0.4900 0.7050 0.7661
H28_4 H 0.9957 0.2094 0.7723
C54_4 C 0.5698(5) 0.7189(5) 0.6921(6)
H29_4 H 0.5769 0.7274 0.6573
C55_4 C 0.8362(5) 0.3697(5) 0.7860(6)
C57_4 C 0.7747(4) 0.4294(3) 0.8932(5)
H31_4 H 0.7618 0.4239 0.9262
C62_4 C 0.6513(5) 0.6301(5) 0.8805(6)
H34_4 H 0.6503 0.6285 0.9180
C65_4 C 0.8609(5) 0.3433(4) 0.7039(6)
H37_4 H 0.8623 0.3441 0.6664
H41_4 H 0.5751 0.3972 0.9904
C70_4 C 0.6205(5) 0.6548(5) 0.8524(6)
H42_4 H 0.5972 0.6662 0.8706
N6_4 N 0.7741(3) 0.4704(4) 0.8722(4)
H44_4 H 0.8880 0.6636 0.9799
C73_4 C 0.5905(5) 0.6850(4) 0.7702(5)
C76_4 C 0.6244(4) 0.4356(4) 0.9752(6)
H47_4 H 0.6145 0.4473 0.9431
C80_4 C 0.8164(7) 0.5766(8) 0.9284(6)
H52_4 H 0.8133 0.5821 0.8917
C83_4 C 0.8435(7) 0.6027(7) 0.9551(8)
H55_4 H 0.8534 0.6276 0.9391
C90_4 C 0.8352(5) 0.3698(5) 0.7285(6)
H61_4 H 0.8171 0.3879 0.7094
C92_4 C 0.7865(4) 0.4732(4) 0.8214(6)
H63_4 H 0.7807 0.4988 0.8040
H27_5 H 0.2050 0.0100 0.2661
Co8_3 Co 0.25374(6) 0.01673(6) 0.16632(7)
Co1_5 Co 0.01604(5) 0.75549(6) 0.41547(8)
Co2 Co 0.51835(5) 0.25155(6) 0.41472(8)
Co3_3 Co 0.24626(6) 0.48327(6) 0.66632(7)
O1_5 O 0.1860(4) 0.5238(3) 0.6693(4)
O4_5 O 0.4836(3) 0.3135(2) 0.4128(4)
O9_5 O 0.0548(3) 0.7690(3) 0.3543(4)
O10_5 O 0.4866(3) 0.2695(3) 0.4803(4)
C1_5 C 0.1667(4) 0.5588(4) 0.5906(5)
O11_5 O 0.2278(3) 0.5191(2) 0.6030(4)
C2_5 C 0.1978(5) 0.5318(4) 0.6228(5)
C3_5 C 0.4721(4) 0.3070(3) 0.4600(5)
C4_5 C 0.1092(5) 0.8183(4) 0.3536(6)
C6_5 C 0.1845(5) 0.9497(6) 0.2853(7)
H1_5 H 0.1704 0.9572 0.3169
N2_5 N 0.0426(3) 0.7074(4) 0.4486(5)
O13_5 O 0.0730(3) 0.7969(3) 0.4309(4)
N3_3 N 0.2241(3) 0.9693(3) 0.2081(4)
C13_5 C 0.1166(4) 0.8123(4) 0.2995(6)
H3_5 H 0.1056 0.7890 0.2809
C15_5 C 0.4461(4) 0.3323(4) 0.4901(6)
C26_5 C 0.3570(5) 0.4075(5) 0.5772(6)
C28_5 C 0.2027(5) 0.9009(6) 0.2217(7)
H10_5 H 0.2031 0.8728 0.2095
C29_5 C 0.0490(5) 0.3151(5) 0.7947(6)
H11_5 H 0.0408 0.3277 0.7624
C31_5 C 0.1417(5) 0.8436(4) 0.2737(6)
H13_5 H 0.1451 0.8425 0.2365
C32_5 C 0.1232(4) 0.3422(4) 0.7844(5)
C33_5 C 0.1803(5) 0.5712(6) 0.5413(6)
H14_5 H 0.2056 0.5607 0.5267
C34_5 C 0.0791(5) 0.7939(5) 0.3814(6)
C35_5 C 0.0674(3) 0.2758(3) 0.8860(5)
H15_5 H 0.0737 0.2596 0.9163
C37_5 C 0.0927(4) 0.6447(5) 0.5025(6)
C38_5 C 0.3898(5) 0.3814(5) 0.5466(6)
C41_5 C 0.1611(5) 0.8751(5) 0.3018(7)
C43_5 C 0.0373(5) 0.6970(5) 0.5021(6)
H19_5 H 0.0159 0.7110 0.5211
C44_5 C 0.1309(4) 0.5763(4) 0.6124(6)
H20_5 H 0.1239 0.5693 0.6478
C45_5 C 0.1588(4) 0.3573(4) 0.8075(6)
H21_5 H 0.1662 0.3490 0.8422
C46_5 C 0.1830(4) 0.3838(5) 0.7808(5)
H22_5 H 0.2043 0.3984 0.7993
C47_5 C 0.4274(7) 0.3209(6) 0.5389(9)
H23_5 H 0.4345 0.2940 0.5520
C51_5 C 0.1456(4) 0.3736(4) 0.7010(5)
H26_5 H 0.1407 0.3803 0.6651
N5_3 N 0.0259(4) 0.2783(3) 0.8701(5)
C52_5 C 0.2048(4) 0.9817(5) 0.2548(6)
C54_5 C 0.2189(5) 0.9302(5) 0.1921(6)
H29_5 H 0.2274 0.9231 0.1573
C56_5 C 0.1010(4) 0.2961(4) 0.8596(5)
H30_5 H 0.1286 0.2952 0.8734
C58_5 C 0.0924(4) 0.3177(5) 0.8125(8)
C59_5 C 0.1210(5) 0.3476(5) 0.7262(6)
H32_5 H 0.1013 0.3317 0.7066
C62_5 C 0.1301(5) 0.8487(5) 0.3805(6)
H34_5 H 0.1285 0.8497 0.4180
C63_5 C 0.1042(5) 0.6039(6) 0.5847(6)
H35_5 H 0.0796 0.6153 0.5999
C64_5 C 0.4352(5) 0.3722(4) 0.4730(6)
H36_5 H 0.4479 0.3842 0.4426
C70_5 C 0.1548(5) 0.8795(5) 0.3524(6)
H42_5 H 0.1662 0.9028 0.3706
C71_5 C 0.4052(5) 0.3940(4) 0.5015(6)
H43_5 H 0.3952 0.4196 0.4873
C72_5 C 0.1542(5) 0.6011(7) 0.5127(6)
H44_5 H 0.1636 0.6120 0.4799
C73_5 C 0.1850(4) 0.9095(5) 0.2702(5)
C75_5 C 0.0214(4) 0.2949(5) 0.8240(6)
C77_5 C 0.4010(6) 0.3435(5) 0.5690(8)
H48_5 H 0.3910 0.3343 0.6023
C78_5 C 0.3043(5) 0.4570(5) 0.5812(7)
H49_5 H 0.2872 0.4766 0.5631
H50_5 H 0.3176 0.4230 0.6962
N7_5 N 0.2988(3) 0.4528(3) 0.6314(4)
C80_5 C 0.0766(8) 0.6836(7) 0.4284(6)
H52_5 H 0.0821 0.6867 0.3917
C81_5 C 0.3335(7) 0.4349(7) 0.5519(8)
H53_5 H 0.3364 0.4392 0.5149
C82_5 C 0.3509(6) 0.4022(6) 0.6296(7)
H54_5 H 0.3674 0.3824 0.6482
C83_5 C 0.1027(7) 0.6565(7) 0.4551(8)
H55_5 H 0.1276 0.6466 0.4391
C87_5 C 0.1172(5) 0.6132(4) 0.5320(6)
C93_5 C 0.0608(4) 0.6682(4) 0.5287(6)
H64_5 H 0.0559 0.6637 0.5652
C94_5 C 0.1782(4) 0.3907(4) 0.7274(6)
C95_5 C 0.2088(5) 0.4237(4) 0.7006(7)
O15_5 O 0.2329(3) 0.4422(3) 0.7264(4)
O16_5 O 0.2062(3) 0.4287(3) 0.6526(4)
C96_5 C 0.3211(7) 0.4253(6) 0.6567(7)
O17_3 O 0.5561(2) 0.2654(3) 0.3545(4)
N9_3 N 0.2759(3) 0.5307(3) 0.7081(4)
N10_3 N 0.5412(3) 0.2009(4) 0.4488(5)
O18_3 O 0.5785(4) 0.2910(3) 0.4331(5)
N11_3 N 0.4741(4) 0.2217(3) 0.3701(5)
Co4_3 Co 0.75415(6) 0.51692(5) 0.17014(7)
O2_5 O 0.8191(4) 0.4836(4) 0.1694(4)
O3_5 O 0.9822(3) 0.8162(2) 0.4159(4)
O5_5 O 0.7674(3) 0.5586(3) 0.2306(4)
O7_5 O 0.9836(3) 0.7713(4) 0.4838(4)
O8_5 O 0.7731(3) 0.4821(3) 0.1060(4)
O12_5 O 0.7903(3) 0.5772(3) 0.1551(5)
C5_5 C 0.9455(4) 0.8354(4) 0.4964(6)
C7_5 C 0.8037(7) 0.4750(4) 0.1212(6)
N1_5 N 0.7277(3) 0.4673(3) 0.2112(4)
C8_5 C 0.8137(4) 0.6177(5) 0.2849(6)
H2_5 H 0.7948 0.6003 0.3036
C9_5 C 0.9134(4) 0.3666(4) 0.0030(6)
C10_5 C 0.9716(4) 0.8089(3) 0.4622(5)
C11_5 C 0.8601(4) 0.9146(5) 0.5825(6)
C12_5 C 0.8372(5) 0.4471(5) 0.0908(5)
C14_5 C 0.6128(4) 0.3128(4) 0.3537(6)
C16_5 C 0.7041(5) 0.3978(6) 0.2202(6)
H4_5 H 0.7029 0.3706 0.2054
C17_5 C 0.8147(4) 0.6143(4) 0.2306(5)
C18_5 C 0.7216(5) 0.4288(5) 0.1936(6)
H5_5 H 0.7307 0.4229 0.1586
C19_5 C 0.9022(4) 0.6892(4) 0.3153(6)
C20_5 C 0.6441(4) 0.3402(4) 0.2720(6)
H6_5 H 0.6460 0.3393 0.2346
C21_5 C 0.7893(4) 0.5802(4) 0.2033(7)
C22_5 C 0.6659(4) 0.3704(4) 0.2983(6)
C23_5 C 0.9591(5) 0.3033(4) 0.0025(5)
H7_5 H 0.9745 0.2832 0.0221
C24_5 C 0.9442(4) 0.6942(4) 0.2933(5)
H8_5 H 0.9506 0.6836 0.2592
C25_5 C 0.6187(4) 0.3100(4) 0.2979(6)
H9_5 H 0.6057 0.2882 0.2783
C27_5 C 0.6874(5) 0.4052(5) 0.2699(5)
C30_5 C 0.9385(4) 0.3351(4) 0.0313(6)
H12_5 H 0.9408 0.3361 0.0687
C36_5 C 0.8961(3) 0.7053(4) 0.3649(5)
H16_5 H 0.8693 0.7032 0.3808
C39_5 C 0.8351(7) 0.9373(5) 0.5571(7)
H17_5 H 0.8388 0.9415 0.5203
C40_5 C 0.8947(7) 0.8886(6) 0.5527(6)
C42_5 C 0.8374(4) 0.6438(4) 0.3127(6)
H18_5 H 0.8326 0.6484 0.3492
C49_5 C 0.5843(4) 0.2880(4) 0.3826(5)
C50_5 C 0.9071(5) 0.8496(5) 0.5735(6)
H25_5 H 0.8967 0.8400 0.6064
C53_5 C 0.7088(5) 0.4764(6) 0.2592(6)
H28_5 H 0.7094 0.5043 0.2723
C55_5 C 0.8697(5) 0.6638(5) 0.2860(6)
C57_5 C 0.9294(3) 0.7253(4) 0.3932(5)
H31_5 H 0.9239 0.7382 0.4262
C60_5 C 0.8884(4) 0.3962(4) 0.0308(6)
C61_5 C 0.6361(4) 0.3418(4) 0.3814(5)
H33_5 H 0.6363 0.3418 0.4189
C65_5 C 0.8433(4) 0.6391(5) 0.2039(6)
H37_5 H 0.8441 0.6377 0.1664
C66_5 C 0.6609(5) 0.3730(5) 0.3514(6)
H38_5 H 0.6736 0.3954 0.3699
C67_5 C 0.8575(5) 0.9126(4) 0.6368(6)
H39_5 H 0.8770 0.8960 0.6557
C68_5 C 0.8204(6) 0.4311(5) 0.0442(6)
H40_5 H 0.7924 0.4361 0.0331
C69_5 C 0.9075(4) 0.8996(5) 0.5051(6)
H41_5 H 0.8972 0.9249 0.4904
N6_5 N 0.9704(4) 0.7259(3) 0.3722(4)
H46_5 H 0.9943 0.2923 0.8090
C76_5 C 0.9356(4) 0.8756(4) 0.4752(6)
H47_5 H 0.9473 0.8855 0.4431
C79_5 C 0.8498(4) 0.4062(5) 0.0146(6)
N8_3 N 0.7998(3) 0.9550(3) 0.6359(4)
C84_5 C 0.8007(5) 0.9570(4) 0.5845(7)
H56_5 H 0.7793 0.9711 0.5655
C85_5 C 0.8282(5) 0.9337(5) 0.6635(7)
H57_5 H 0.8276 0.9334 0.7009
C86_5 C 0.8778(7) 0.4364(6) 0.1060(7)
H58_5 H 0.8882 0.4469 0.1385
C88_5 C 0.9347(6) 0.8262(6) 0.5449(6)
H59_5 H 0.9465 0.8021 0.5609
C89_5 C 0.6887(6) 0.4446(5) 0.2890(6)
H60_5 H 0.6763 0.4510 0.3221
C90_5 C 0.8698(5) 0.6648(5) 0.2285(6)
H61_5 H 0.8879 0.6829 0.2094
C91_5 C 0.9015(5) 0.4130(7) 0.0781(7)
H62_5 H 0.9290 0.4070 0.0903
C92_5 C 0.9732(4) 0.7135(4) 0.3214(6)
H63_5 H 0.9988 0.7193 0.3040
Co7_3 Co 0.98165(5) 0.24845(6) 0.91472(8)
Co9_3 Co 0.74585(6) 0.98308(5) 0.67014(7)
N12_3 N 0.7002(3) 0.5450(3) 0.1359(4)
N4_3 N 0.9588(3) 0.2991(4) 0.9488(5)
C48_5 C 0.9378(4) 0.3305(4) 0.9241(5)
H24_5 H 0.9363 0.3289 0.8867
C74_5 C 0.9182(5) 0.3650(5) 0.9475(6)
H45_5 H 0.9082 0.3872 0.9261
H51_5 H 0.8411 0.3960 0.9810
C26_6 C 0.1430(5) 0.0925(5) 0.0772(6)
C29_6 C 0.4510(5) 0.1849(5) 0.2947(6)
H11_6 H 0.4592 0.1723 0.2624
C32_6 C 0.3768(4) 0.1578(4) 0.2844(5)
C35_6 C 0.4326(3) 0.2242(3) 0.3860(5)
H15_6 H 0.4263 0.2404 0.4163
C38_6 C 0.1102(5) 0.1186(5) 0.0466(6)
C45_6 C 0.3412(4) 0.1427(4) 0.3075(6)
H21_6 H 0.3338 0.1510 0.3422
C46_6 C 0.3170(4) 0.1162(5) 0.2808(5)
H22_6 H 0.2957 0.1016 0.2993
C47_6 C 0.0726(7) 0.1791(6) 0.0389(9)
H23_6 H 0.0655 0.2060 0.0520
C51_6 C 0.3544(4) 0.1264(4) 0.2010(5)
H26_6 H 0.3593 0.1197 0.1651
C56_6 C 0.3990(4) 0.2039(4) 0.3596(5)
H30_6 H 0.3714 0.2048 0.3734
C58_6 C 0.4076(4) 0.1823(5) 0.3125(8)
C59_6 C 0.3790(5) 0.1524(5) 0.2262(6)
H32_6 H 0.3987 0.1683 0.2066
C71_6 C 0.0948(5) 0.1060(4) 0.0015(6)
C75_6 C 0.4786(4) 0.2051(5) 0.3240(6)
H46_6 H 0.5057 0.2077 0.3090
C77_6 C 0.0990(6) 0.1565(5) 0.0690(8)
H48_6 H 0.1090 0.1657 0.1023
C78_6 C 0.1957(5) 0.0430(5) 0.0812(7)
H49_6 H 0.2128 0.0234 0.0631
H50_6 H 0.1824 0.0770 0.1962
N7_6 N 0.2012(3) 0.0472(3) 0.1314(4)
C81_6 C 0.1665(7) 0.0651(7) 0.0519(8)
H53_6 H 0.1636 0.0608 0.0149
C82_6 C 0.1491(6) 0.0978(6) 0.1296(7)
H54_6 H 0.1326 0.1176 0.1482
C94_6 C 0.3218(4) 0.1093(4) 0.2274(6)
C95_6 C 0.2912(5) 0.0763(4) 0.2006(7)
O15_6 O 0.2671(3) 0.0578(3) 0.2264(4)
O16_6 O 0.2938(3) 0.0713(3) 0.1526(4)
C96_6 C 0.1789(7) 0.0747(6) 0.1567(7)
O2_6 O 0.6809(4) 0.0164(4) 0.6694(4)
O4_6 O 0.0164(3) 0.1865(2) 0.9128(4)
O6_3 O 0.9439(2) 0.2346(3) 0.8545(4)
O8_6 O 0.7269(3) 0.0179(3) 0.6060(4)
O10_6 O 0.0134(3) 0.2305(3) 0.9803(4)
C3_6 C 0.0279(4) 0.1930(3) 0.9600(5)
C7_6 C 0.6963(7) 0.0250(4) 0.6212(6)
N1_6 N 0.7723(3) 0.0327(3) 0.7112(4)
C9_6 C 0.5866(4) 0.1334(4) 0.5030(6)
O14_3 O 0.9215(4) 0.2090(3) 0.9331(5)
C12_6 C 0.6628(5) 0.0529(5) 0.5908(5)
C14_6 C 0.8872(4) 0.1872(4) 0.8537(6)
C15_6 C 0.0539(4) 0.1677(4) 0.9901(6)
C16_6 C 0.7959(5) 0.1022(6) 0.7202(6)
H4_6 H 0.7971 0.1294 0.7054
C18_6 C 0.7784(5) 0.0712(5) 0.6936(6)
H5_6 H 0.7693 0.0771 0.6586
C20_6 C 0.8559(4) 0.1598(4) 0.7720(6)
H6_6 H 0.8540 0.1607 0.7346
C22_6 C 0.8341(4) 0.1296(4) 0.7983(6)
C23_6 C 0.5409(5) 0.1967(4) 0.5025(5)
H7_6 H 0.5255 0.2168 0.5221
C25_6 C 0.8813(4) 0.1900(4) 0.7979(6)
H9_6 H 0.8943 0.2118 0.7783
C27_6 C 0.8126(5) 0.0948(5) 0.7699(5)
C30_6 C 0.5615(4) 0.1649(4) 0.5313(6)
H12_6 H 0.5592 0.1639 0.5687
C48_6 C 0.5622(4) 0.1695(4) 0.4241(5)
H24_6 H 0.5637 0.1711 0.3867
C49_6 C 0.9157(4) 0.2120(4) 0.8826(5)
C53_6 C 0.7912(5) 0.0236(6) 0.7592(6)
C60_6 C 0.6116(4) 0.1038(4) 0.5308(6)
C61_6 C 0.8639(4) 0.1582(4) 0.8814(5)
H33_6 H 0.8637 0.1582 0.9189
C64_6 C 0.0648(5) 0.1278(4) 0.9730(6)
H36_6 H 0.0521 0.1158 0.9426
C66_6 C 0.8391(5) 0.1270(5) 0.8514(6)
H38_6 H 0.8264 0.1046 0.8699
C68_6 C 0.6796(6) 0.0689(5) 0.5442(6)
H40_6 H 0.7076 0.0639 0.5331
H43_6 H 0.1048 0.0804 0.9873
C74_6 C 0.5818(5) 0.1350(5) 0.4475(6)
H45_6 H 0.5918 0.1128 0.4261
C79_6 C 0.6502(4) 0.0938(5) 0.5146(6)
H51_6 H 0.6589 0.1040 0.4810
C86_6 C 0.6222(7) 0.0636(6) 0.6060(7)
H58_6 H 0.6118 0.0531 0.6385
C89_6 C 0.8113(6) 0.0554(5) 0.7890(6)
H60_6 H 0.8237 0.0490 0.8221
C91_6 C 0.5985(5) 0.0870(7) 0.5781(7)
H62_6 H 0.5710 0.0930 0.5903
O1_6 O 0.3140(4) 0.9762(3) 0.1693(4)
C1_6 C 0.3333(4) 0.9412(4) 0.0906(5)
O11_6 O 0.2722(3) 0.9809(2) 0.1030(4)
C2_6 C 0.3022(5) 0.9682(4) 0.1228(5)
C11_6 C 0.6399(4) 0.5854(5) 0.0825(6)
C33_6 C 0.3197(5) 0.9288(6) 0.0413(6)
H14_6 H 0.2944 0.9393 0.0267
C37_6 C 0.4073(4) 0.8553(5) 0.0025(6)
C39_6 C 0.6649(7) 0.5627(5) 0.0571(7)
H17_6 H 0.6612 0.5585 0.0203
C40_6 C 0.6053(7) 0.6114(6) 0.0527(6)
C43_6 C 0.4627(5) 0.8030(5) 0.0021(6)
H19_6 H 0.4841 0.7890 0.0211
C44_6 C 0.3691(4) 0.9237(4) 0.1124(6)
H20_6 H 0.3761 0.9307 0.1478
C50_6 C 0.5929(5) 0.6504(5) 0.0735(6)
H25_6 H 0.6033 0.6600 0.1064
C63_6 C 0.3958(5) 0.8961(6) 0.0847(6)
H35_6 H 0.4204 0.8847 0.0999
C67_6 C 0.6425(5) 0.5874(4) 0.1368(6)
H39_6 H 0.6230 0.6040 0.1557
C69_6 C 0.5925(4) 0.6004(5) 0.0051(6)
C72_6 C 0.3458(5) 0.8989(7) 0.0127(6)
C84_6 C 0.6993(5) 0.5430(4) 0.0845(7)
H56_6 H 0.7207 0.5289 0.0655
C85_6 C 0.6718(5) 0.5663(5) 0.1635(7)
H57_6 H 0.6724 0.5666 0.2009
C87_6 C 0.3828(5) 0.8868(4) 0.0320(6)
C88_6 C 0.5653(6) 0.6738(6) 0.0449(6)
H59_6 H 0.5535 0.6979 0.0609
C93_6 C 0.4392(4) 0.8318(4) 0.0287(6)
H64_6 H 0.4441 0.8363 0.0652
Co1_6 Co 0.48396(5) 0.74451(6) 0.91547(8)
O3_6 O 0.5178(3) 0.6838(2) 0.9159(4)
O5_6 O 0.7326(3) 0.9414(3) 0.7306(4)
O7_6 O 0.5164(3) 0.7287(4) 0.9838(4)
O9_6 O 0.4452(3) 0.7310(3) 0.8543(4)
O12_6 O 0.7097(3) 0.9228(3) 0.6551(5)
C4_6 C 0.3908(5) 0.6817(4) 0.8536(6)
C5_6 C 0.5545(4) 0.6646(4) 0.9964(6)
C6_6 C 0.3155(5) 0.5503(6) 0.7853(7)
H1_6 H 0.3296 0.5428 0.8169
N2_6 N 0.4574(3) 0.7926(4) 0.9486(5)
O13_6 O 0.4270(3) 0.7031(3) 0.9309(4)
C8_6 C 0.6863(4) 0.8823(5) 0.7849(6)
H2_6 H 0.7052 0.8997 0.8036
C10_6 C 0.5284(4) 0.6911(3) 0.9622(5)
C13_6 C 0.3834(4) 0.6877(4) 0.7995(6)
H3_6 H 0.3944 0.7110 0.7809
C17_6 C 0.6853(4) 0.8857(4) 0.7306(5)
C19_6 C 0.5978(4) 0.8108(4) 0.8153(6)
C21_6 C 0.7107(4) 0.9198(4) 0.7033(7)
C24_6 C 0.5558(4) 0.8058(4) 0.7933(5)
H8_6 H 0.5494 0.8164 0.7592
C28_6 C 0.2973(5) 0.5991(6) 0.7217(7)
H10_6 H 0.2969 0.6272 0.7095
C31_6 C 0.3583(5) 0.6564(4) 0.7737(6)
H13_6 H 0.3549 0.6575 0.7365
C34_6 C 0.4209(5) 0.7061(5) 0.8814(6)
C36_6 C 0.6039(3) 0.7947(4) 0.8649(5)
H16_6 H 0.6307 0.7968 0.8808
C41_6 C 0.3389(5) 0.6249(5) 0.8018(7)
C42_6 C 0.6626(4) 0.8562(4) 0.8127(6)
H18_6 H 0.6674 0.8516 0.8492
C52_6 C 0.2952(4) 0.5183(5) 0.7548(6)
H27_6 H 0.2950 0.4900 0.7661
H28_6 H 0.7906 0.9957 0.7723
C54_6 C 0.2811(5) 0.5698(5) 0.6921(6)
H29_6 H 0.2726 0.5769 0.6573
C55_6 C 0.6303(5) 0.8362(5) 0.7860(6)
C57_6 C 0.5706(3) 0.7747(4) 0.8932(5)
H31_6 H 0.5761 0.7618 0.9262
C62_6 C 0.3699(5) 0.6513(5) 0.8805(6)
H34_6 H 0.3715 0.6503 0.9180
C65_6 C 0.6567(4) 0.8609(5) 0.7039(6)
H37_6 H 0.6559 0.8623 0.6664
H41_6 H 0.6028 0.5751 0.9904
C70_6 C 0.3452(5) 0.6205(5) 0.8524(6)
H42_6 H 0.3338 0.5972 0.8706
N6_6 N 0.5296(4) 0.7741(3) 0.8722(4)
H44_6 H 0.3364 0.8880 0.9799
C73_6 C 0.3150(4) 0.5905(5) 0.7702(5)
C76_6 C 0.5644(4) 0.6244(4) 0.9752(6)
H47_6 H 0.5527 0.6145 0.9431
C80_6 C 0.4234(8) 0.8164(7) 0.9284(6)
H52_6 H 0.4179 0.8133 0.8917
C83_6 C 0.3973(7) 0.8435(7) 0.9551(8)
H55_6 H 0.3724 0.8534 0.9391
C90_6 C 0.6302(5) 0.8352(5) 0.7285(6)
H61_6 H 0.6121 0.8171 0.7094
C92_6 C 0.5268(4) 0.7865(4) 0.8214(6)
H63_6 H 0.5012 0.7807 0.8040
Co1_7 Co 0.24451(6) 0.01604(5) 0.41547(8)
Co2_2 Co 0.74845(6) 0.51835(5) 0.41472(8)
Co3_4 Co 0.51673(6) 0.24626(6) 0.66632(7)
O1_7 O 0.4762(3) 0.1860(4) 0.6693(4)
O4_7 O 0.6865(2) 0.4836(3) 0.4128(4)
O9_7 O 0.2310(3) 0.0548(3) 0.3543(4)
O10_7 O 0.7305(3) 0.4866(3) 0.4803(4)
C1_7 C 0.4412(4) 0.1667(4) 0.5906(5)
O11_7 O 0.4809(2) 0.2278(3) 0.6030(4)
C2_7 C 0.4682(4) 0.1978(5) 0.6228(5)
C3_7 C 0.6930(3) 0.4721(4) 0.4600(5)
C4_7 C 0.1817(4) 0.1092(5) 0.3536(6)
C6_7 C 0.0503(6) 0.1845(5) 0.2853(7)
H1_7 H 0.0428 0.1704 0.3169
N2_7 N 0.2926(4) 0.0426(3) 0.4486(5)
O13_7 O 0.2031(3) 0.0730(3) 0.4309(4)
N3_4 N 0.0307(3) 0.2241(3) 0.2081(4)
C13_7 C 0.1877(4) 0.1166(4) 0.2995(6)
H3_7 H 0.2110 0.1056 0.2809
C15_7 C 0.6677(4) 0.4461(4) 0.4901(6)
C26_7 C 0.5925(5) 0.3570(5) 0.5772(6)
C28_7 C 0.0991(6) 0.2027(5) 0.2217(7)
H10_7 H 0.1272 0.2031 0.2095
C29_7 C 0.6849(5) 0.0490(5) 0.7947(6)
H11_7 H 0.6723 0.0408 0.7624
C31_7 C 0.1564(4) 0.1417(5) 0.2737(6)
H13_7 H 0.1575 0.1451 0.2365
C32_7 C 0.6578(4) 0.1232(4) 0.7844(5)
C33_7 C 0.4288(6) 0.1803(5) 0.5413(6)
H14_7 H 0.4393 0.2056 0.5267
C34_7 C 0.2061(5) 0.0791(5) 0.3814(6)
C35_7 C 0.7242(3) 0.0674(3) 0.8860(5)
H15_7 H 0.7404 0.0737 0.9163
C37_7 C 0.3553(5) 0.0927(4) 0.5025(6)
C38_7 C 0.6186(5) 0.3898(5) 0.5466(6)
C41_7 C 0.1249(5) 0.1611(5) 0.3018(7)
C43_7 C 0.3030(5) 0.0373(5) 0.5021(6)
H19_7 H 0.2890 0.0159 0.5211
C44_7 C 0.4237(4) 0.1309(4) 0.6124(6)
H20_7 H 0.4307 0.1239 0.6478
C45_7 C 0.6427(4) 0.1588(4) 0.8075(6)
H21_7 H 0.6510 0.1662 0.8422
C46_7 C 0.6162(5) 0.1830(4) 0.7808(5)
H22_7 H 0.6016 0.2043 0.7993
C47_7 C 0.6791(6) 0.4274(7) 0.5389(9)
H23_7 H 0.7060 0.4345 0.5520
C51_7 C 0.6264(4) 0.1456(4) 0.7010(5)
H26_7 H 0.6197 0.1407 0.6651
N5_4 N 0.7217(3) 0.0259(4) 0.8701(5)
C52_7 C 0.0183(5) 0.2048(4) 0.2548(6)
C54_7 C 0.0698(5) 0.2189(5) 0.1921(6)
H29_7 H 0.0769 0.2274 0.1573
C56_7 C 0.7039(4) 0.1010(4) 0.8596(5)
H30_7 H 0.7048 0.1286 0.8734
C58_7 C 0.6823(5) 0.0924(4) 0.8125(8)
C59_7 C 0.6524(5) 0.1210(5) 0.7262(6)
H32_7 H 0.6683 0.1013 0.7066
C62_7 C 0.1513(5) 0.1301(5) 0.3805(6)
H34_7 H 0.1503 0.1285 0.4180
C63_7 C 0.3961(6) 0.1042(5) 0.5847(6)
H35_7 H 0.3847 0.0796 0.5999
C64_7 C 0.6278(4) 0.4352(5) 0.4730(6)
H36_7 H 0.6158 0.4479 0.4426
C70_7 C 0.1205(5) 0.1548(5) 0.3524(6)
H42_7 H 0.0972 0.1662 0.3706
C71_7 C 0.6060(4) 0.4052(5) 0.5015(6)
H43_7 H 0.5804 0.3952 0.4873
C72_7 C 0.3989(7) 0.1542(5) 0.5127(6)
H44_7 H 0.3880 0.1636 0.4799
C73_7 C 0.0905(5) 0.1850(4) 0.2702(5)
C75_7 C 0.7051(5) 0.0214(4) 0.8240(6)
C77_7 C 0.6565(5) 0.4010(6) 0.5690(8)
H48_7 H 0.6657 0.3910 0.6023
C78_7 C 0.5430(5) 0.3043(5) 0.5812(7)
H49_7 H 0.5234 0.2872 0.5631
H50_7 H 0.5770 0.3176 0.6962
N7_7 N 0.5472(3) 0.2988(3) 0.6314(4)
C80_7 C 0.3164(7) 0.0766(8) 0.4284(6)
H52_7 H 0.3133 0.0821 0.3917
C81_7 C 0.5651(7) 0.3335(7) 0.5519(8)
H53_7 H 0.5608 0.3364 0.5149
C82_7 C 0.5978(6) 0.3509(6) 0.6296(7)
H54_7 H 0.6176 0.3674 0.6482
C83_7 C 0.3435(7) 0.1027(7) 0.4551(8)
H55_7 H 0.3534 0.1276 0.4391
C87_7 C 0.3868(4) 0.1172(5) 0.5320(6)
C93_7 C 0.3318(4) 0.0608(4) 0.5287(6)
H64_7 H 0.3363 0.0559 0.5652
C94_7 C 0.6093(4) 0.1782(4) 0.7274(6)
C95_7 C 0.5763(4) 0.2088(5) 0.7006(7)
O15_7 O 0.5578(3) 0.2329(3) 0.7264(4)
O16_7 O 0.5713(3) 0.2062(3) 0.6526(4)
C96_7 C 0.5747(6) 0.3211(7) 0.6567(7)
O17_4 O 0.7346(3) 0.5561(2) 0.3545(4)
N9_4 N 0.4693(3) 0.2759(3) 0.7081(4)
N10_4 N 0.7991(4) 0.5412(3) 0.4488(5)
O18_4 O 0.7090(3) 0.5785(4) 0.4331(5)
N11_4 N 0.7783(3) 0.4741(4) 0.3701(5)
Co4_4 Co 0.48308(5) 0.75415(6) 0.17014(7)
O2_7 O 0.5164(4) 0.8191(4) 0.1694(4)
O3_7 O 0.1838(2) 0.9822(3) 0.4159(4)
O5_7 O 0.4414(3) 0.7674(3) 0.2306(4)
O7_7 O 0.2287(4) 0.9836(3) 0.4838(4)
O8_7 O 0.5179(3) 0.7731(3) 0.1060(4)
O12_7 O 0.4228(3) 0.7903(3) 0.1551(5)
C5_7 C 0.1646(4) 0.9455(4) 0.4964(6)
C7_7 C 0.5250(4) 0.8037(7) 0.1212(6)
N1_7 N 0.5327(3) 0.7277(3) 0.2112(4)
C8_7 C 0.3823(5) 0.8137(4) 0.2849(6)
H2_7 H 0.3997 0.7948 0.3036
C9_7 C 0.6334(4) 0.9134(4) 0.0030(6)
C10_7 C 0.1911(3) 0.9716(4) 0.4622(5)
C11_7 C 0.0854(5) 0.8601(4) 0.5825(6)
C12_7 C 0.5529(5) 0.8372(5) 0.0908(5)
C14_7 C 0.6872(4) 0.6128(4) 0.3537(6)
C16_7 C 0.6022(6) 0.7041(5) 0.2202(6)
H4_7 H 0.6294 0.7029 0.2054
C17_7 C 0.3857(4) 0.8147(4) 0.2306(5)
C18_7 C 0.5712(5) 0.7216(5) 0.1936(6)
H5_7 H 0.5771 0.7307 0.1586
C19_7 C 0.3108(4) 0.9022(4) 0.3153(6)
C20_7 C 0.6598(4) 0.6441(4) 0.2720(6)
H6_7 H 0.6607 0.6460 0.2346
C21_7 C 0.4198(4) 0.7893(4) 0.2033(7)
C22_7 C 0.6296(4) 0.6659(4) 0.2983(6)
C23_7 C 0.6967(4) 0.9591(5) 0.0025(5)
H7_7 H 0.7168 0.9745 0.0221
C24_7 C 0.3058(4) 0.9442(4) 0.2933(5)
H8_7 H 0.3164 0.9506 0.2592
C25_7 C 0.6900(4) 0.6187(4) 0.2979(6)
H9_7 H 0.7118 0.6057 0.2783
C27_7 C 0.5948(5) 0.6874(5) 0.2699(5)
C30_7 C 0.6649(4) 0.9385(4) 0.0313(6)
H12_7 H 0.6639 0.9408 0.0687
C36_7 C 0.2947(4) 0.8961(3) 0.3649(5)
H16_7 H 0.2968 0.8693 0.3808
C39_7 C 0.0627(5) 0.8351(7) 0.5571(7)
H17_7 H 0.0585 0.8388 0.5203
C40_7 C 0.1114(6) 0.8947(7) 0.5527(6)
C42_7 C 0.3562(4) 0.8374(4) 0.3127(6)
H18_7 H 0.3516 0.8326 0.3492
C49_7 C 0.7120(4) 0.5843(4) 0.3826(5)
C50_7 C 0.1504(5) 0.9071(5) 0.5735(6)
H25_7 H 0.1600 0.8967 0.6064
C53_7 C 0.5236(6) 0.7088(5) 0.2592(6)
H28_7 H 0.4957 0.7094 0.2723
C55_7 C 0.3362(5) 0.8697(5) 0.2860(6)
C57_7 C 0.2747(4) 0.9294(3) 0.3932(5)
H31_7 H 0.2618 0.9239 0.4262
C60_7 C 0.6038(4) 0.8884(4) 0.0308(6)
C61_7 C 0.6582(4) 0.6361(4) 0.3814(5)
H33_7 H 0.6582 0.6363 0.4189
C65_7 C 0.3609(5) 0.8433(4) 0.2039(6)
H37_7 H 0.3623 0.8441 0.1664
C66_7 C 0.6270(5) 0.6609(5) 0.3514(6)
H38_7 H 0.6046 0.6736 0.3699
C67_7 C 0.0874(4) 0.8575(5) 0.6368(6)
H39_7 H 0.1040 0.8770 0.6557
C68_7 C 0.5689(5) 0.8204(6) 0.0442(6)
H40_7 H 0.5639 0.7924 0.0331
C69_7 C 0.1004(5) 0.9075(4) 0.5051(6)
H41_7 H 0.0751 0.8972 0.4904
N6_7 N 0.2741(3) 0.9704(4) 0.3722(4)
H46_7 H 0.7077 0.9943 0.8090
C76_7 C 0.1244(4) 0.9356(4) 0.4752(6)
H47_7 H 0.1145 0.9473 0.4431
C79_7 C 0.5938(5) 0.8498(4) 0.0146(6)
N8_4 N 0.0450(3) 0.7998(3) 0.6359(4)
C84_7 C 0.0430(4) 0.8007(5) 0.5845(7)
H56_7 H 0.0289 0.7793 0.5655
C85_7 C 0.0663(5) 0.8282(5) 0.6635(7)
H57_7 H 0.0666 0.8276 0.7009
C86_7 C 0.5636(6) 0.8778(7) 0.1060(7)
H58_7 H 0.5531 0.8882 0.1385
C88_7 C 0.1738(6) 0.9347(6) 0.5449(6)
H59_7 H 0.1979 0.9465 0.5609
C89_7 C 0.5554(5) 0.6887(6) 0.2890(6)
H60_7 H 0.5490 0.6763 0.3221
C90_7 C 0.3352(5) 0.8698(5) 0.2285(6)
H61_7 H 0.3171 0.8879 0.2094
C91_7 C 0.5870(7) 0.9015(5) 0.0781(7)
H62_7 H 0.5930 0.9290 0.0903
C92_7 C 0.2865(4) 0.9732(4) 0.3214(6)
H63_7 H 0.2807 0.9988 0.3040
Co7_4 Co 0.75155(6) 0.98165(5) 0.91472(8)
Co9_4 Co 0.01692(5) 0.74585(6) 0.67014(7)
N12_4 N 0.4550(3) 0.7002(3) 0.1359(4)
N4_4 N 0.7009(4) 0.9588(3) 0.9488(5)
C48_7 C 0.6695(4) 0.9378(4) 0.9241(5)
H24_7 H 0.6711 0.9363 0.8867
C74_7 C 0.6350(5) 0.9182(5) 0.9475(6)
H45_7 H 0.6128 0.9082 0.9261
H51_7 H 0.6040 0.8411 0.9810
H27_7 H 0.9900 0.2050 0.2661
Co8_4 Co 0.98327(6) 0.25374(6) 0.16632(7)
O1_8 O 0.0238(3) 0.3140(4) 0.1693(4)
C1_8 C 0.0588(4) 0.3333(4) 0.0906(5)
O11_8 O 0.0191(2) 0.2722(3) 0.1030(4)
C2_8 C 0.0318(4) 0.3022(5) 0.1228(5)
C11_8 C 0.4146(5) 0.6399(4) 0.0825(6)
C33_8 C 0.0712(6) 0.3197(5) 0.0413(6)
H14_8 H 0.0607 0.2944 0.0267
C37_8 C 0.1447(5) 0.4073(4) 0.0025(6)
C39_8 C 0.4373(5) 0.6649(7) 0.0571(7)
H17_8 H 0.4415 0.6612 0.0203
C40_8 C 0.3886(6) 0.6053(7) 0.0527(6)
C43_8 C 0.1970(5) 0.4627(5) 0.0021(6)
H19_8 H 0.2110 0.4841 0.0211
C44_8 C 0.0763(4) 0.3691(4) 0.1124(6)
H20_8 H 0.0693 0.3761 0.1478
C50_8 C 0.3496(5) 0.5929(5) 0.0735(6)
H25_8 H 0.3400 0.6033 0.1064
C63_8 C 0.1039(6) 0.3958(5) 0.0847(6)
H35_8 H 0.1153 0.4204 0.0999
C67_8 C 0.4126(4) 0.6425(5) 0.1368(6)
H39_8 H 0.3960 0.6230 0.1557
C69_8 C 0.3996(5) 0.5925(4) 0.0051(6)
C72_8 C 0.1011(7) 0.3458(5) 0.0127(6)
C84_8 C 0.4570(4) 0.6993(5) 0.0845(7)
H56_8 H 0.4711 0.7207 0.0655
C85_8 C 0.4337(5) 0.6718(5) 0.1635(7)
H57_8 H 0.4334 0.6724 0.2009
C87_8 C 0.1132(4) 0.3828(5) 0.0320(6)
C88_8 C 0.3262(6) 0.5653(6) 0.0449(6)
H59_8 H 0.3021 0.5535 0.0609
C93_8 C 0.1682(4) 0.4392(4) 0.0287(6)
H64_8 H 0.1637 0.4441 0.0652
Co1_8 Co 0.25549(6) 0.48396(5) 0.91547(8)
O3_8 O 0.3162(2) 0.5178(3) 0.9159(4)
O5_8 O 0.0586(3) 0.7326(3) 0.7306(4)
O7_8 O 0.2713(4) 0.5164(3) 0.9838(4)
O9_8 O 0.2690(3) 0.4452(3) 0.8543(4)
O12_8 O 0.0772(3) 0.7097(3) 0.6551(5)
C4_8 C 0.3183(4) 0.3908(5) 0.8536(6)
C5_8 C 0.3354(4) 0.5545(4) 0.9964(6)
C6_8 C 0.4497(6) 0.3155(5) 0.7853(7)
H1_8 H 0.4572 0.3296 0.8169
N2_8 N 0.2074(4) 0.4574(3) 0.9486(5)
O13_8 O 0.2969(3) 0.4270(3) 0.9309(4)
C8_8 C 0.1177(5) 0.6863(4) 0.7849(6)
H2_8 H 0.1003 0.7052 0.8036
C10_8 C 0.3089(3) 0.5284(4) 0.9622(5)
C13_8 C 0.3123(4) 0.3834(4) 0.7995(6)
H3_8 H 0.2890 0.3944 0.7809
C17_8 C 0.1143(4) 0.6853(4) 0.7306(5)
C19_8 C 0.1892(4) 0.5978(4) 0.8153(6)
C21_8 C 0.0802(4) 0.7107(4) 0.7033(7)
C24_8 C 0.1942(4) 0.5558(4) 0.7933(5)
H8_8 H 0.1836 0.5494 0.7592
C28_8 C 0.4009(6) 0.2973(5) 0.7217(7)
H10_8 H 0.3728 0.2969 0.7095
C31_8 C 0.3436(4) 0.3583(5) 0.7737(6)
H13_8 H 0.3425 0.3549 0.7365
C34_8 C 0.2939(5) 0.4209(5) 0.8814(6)
C36_8 C 0.2053(4) 0.6039(3) 0.8649(5)
H16_8 H 0.2032 0.6307 0.8808
C41_8 C 0.3751(5) 0.3389(5) 0.8018(7)
C42_8 C 0.1438(4) 0.6626(4) 0.8127(6)
H18_8 H 0.1484 0.6674 0.8492
C52_8 C 0.4817(5) 0.2952(4) 0.7548(6)
H27_8 H 0.5100 0.2950 0.7661
H28_8 H 0.0043 0.7906 0.7723
C54_8 C 0.4302(5) 0.2811(5) 0.6921(6)
H29_8 H 0.4231 0.2726 0.6573
C55_8 C 0.1638(5) 0.6303(5) 0.7860(6)
C57_8 C 0.2253(4) 0.5706(3) 0.8932(5)
H31_8 H 0.2382 0.5761 0.9262
C62_8 C 0.3487(5) 0.3699(5) 0.8805(6)
H34_8 H 0.3497 0.3715 0.9180
C65_8 C 0.1391(5) 0.6567(4) 0.7039(6)
H37_8 H 0.1377 0.6559 0.6664
H41_8 H 0.4249 0.6028 0.9904
C70_8 C 0.3795(5) 0.3452(5) 0.8524(6)
H42_8 H 0.4028 0.3338 0.8706
N6_8 N 0.2259(3) 0.5296(4) 0.8722(4)
H44_8 H 0.1120 0.3364 0.9799
C73_8 C 0.4095(5) 0.3150(4) 0.7702(5)
C76_8 C 0.3756(4) 0.5644(4) 0.9752(6)
H47_8 H 0.3855 0.5527 0.9431
C80_8 C 0.1836(7) 0.4234(8) 0.9284(6)
H52_8 H 0.1867 0.4179 0.8917
C83_8 C 0.1565(7) 0.3973(7) 0.9551(8)
H55_8 H 0.1466 0.3724 0.9391
C90_8 C 0.1648(5) 0.6302(5) 0.7285(6)
H61_8 H 0.1829 0.6121 0.7094
C92_8 C 0.2135(4) 0.5268(4) 0.8214(6)
H63_8 H 0.2193 0.5012 0.8040
C26_8 C 0.9075(5) 0.1430(5) 0.0772(6)
C29_8 C 0.8151(5) 0.4510(5) 0.2947(6)
H11_8 H 0.8277 0.4592 0.2624
C32_8 C 0.8422(4) 0.3768(4) 0.2844(5)
C35_8 C 0.7758(3) 0.4326(3) 0.3860(5)
H15_8 H 0.7596 0.4263 0.4163
C38_8 C 0.8814(5) 0.1102(5) 0.0466(6)
C45_8 C 0.8573(4) 0.3412(4) 0.3075(6)
H21_8 H 0.8490 0.3338 0.3422
C46_8 C 0.8838(5) 0.3170(4) 0.2808(5)
H22_8 H 0.8984 0.2957 0.2993
C47_8 C 0.8209(6) 0.0726(7) 0.0389(9)
H23_8 H 0.7940 0.0655 0.0520
C51_8 C 0.8736(4) 0.3544(4) 0.2010(5)
H26_8 H 0.8803 0.3593 0.1651
C56_8 C 0.7961(4) 0.3990(4) 0.3596(5)
H30_8 H 0.7952 0.3714 0.3734
C58_8 C 0.8177(5) 0.4076(4) 0.3125(8)
C59_8 C 0.8476(5) 0.3790(5) 0.2262(6)
H32_8 H 0.8317 0.3987 0.2066
C71_8 C 0.8940(4) 0.0948(5) 0.0015(6)
C75_8 C 0.7949(5) 0.4786(4) 0.3240(6)
H46_8 H 0.7923 0.5057 0.3090
C77_8 C 0.8435(5) 0.0990(6) 0.0690(8)
H48_8 H 0.8343 0.1090 0.1023
C78_8 C 0.9570(5) 0.1957(5) 0.0812(7)
H49_8 H 0.9766 0.2128 0.0631
H50_8 H 0.9230 0.1824 0.1962
N7_8 N 0.9528(3) 0.2012(3) 0.1314(4)
C81_8 C 0.9349(7) 0.1665(7) 0.0519(8)
H53_8 H 0.9392 0.1636 0.0149
C82_8 C 0.9022(6) 0.1491(6) 0.1296(7)
H54_8 H 0.8824 0.1326 0.1482
C94_8 C 0.8907(4) 0.3218(4) 0.2274(6)
C95_8 C 0.9237(4) 0.2912(5) 0.2006(7)
O15_8 O 0.9422(3) 0.2671(3) 0.2264(4)
O16_8 O 0.9287(3) 0.2938(3) 0.1526(4)
C96_8 C 0.9253(6) 0.1789(7) 0.1567(7)
O2_8 O 0.9836(4) 0.6809(4) 0.6694(4)
O4_8 O 0.8135(2) 0.0164(3) 0.9128(4)
O6_4 O 0.7654(3) 0.9439(2) 0.8545(4)
O8_8 O 0.9821(3) 0.7269(3) 0.6060(4)
O10_8 O 0.7695(3) 0.0134(3) 0.9803(4)
C3_8 C 0.8070(3) 0.0279(4) 0.9600(5)
C7_8 C 0.9750(4) 0.6963(7) 0.6212(6)
N1_8 N 0.9673(3) 0.7723(3) 0.7112(4)
C9_8 C 0.8666(4) 0.5866(4) 0.5030(6)
O14_4 O 0.7910(3) 0.9215(4) 0.9331(5)
C12_8 C 0.9471(5) 0.6628(5) 0.5908(5)
C14_8 C 0.8128(4) 0.8872(4) 0.8537(6)
C15_8 C 0.8323(4) 0.0539(4) 0.9901(6)
C16_8 C 0.8978(6) 0.7959(5) 0.7202(6)
H4_8 H 0.8706 0.7971 0.7054
C18_8 C 0.9288(5) 0.7784(5) 0.6936(6)
H5_8 H 0.9229 0.7693 0.6586
C20_8 C 0.8402(4) 0.8559(4) 0.7720(6)
H6_8 H 0.8393 0.8540 0.7346
C22_8 C 0.8704(4) 0.8341(4) 0.7983(6)
C23_8 C 0.8033(4) 0.5409(5) 0.5025(5)
H7_8 H 0.7832 0.5255 0.5221
C25_8 C 0.8100(4) 0.8813(4) 0.7979(6)
H9_8 H 0.7882 0.8943 0.7783
C27_8 C 0.9052(5) 0.8126(5) 0.7699(5)
C30_8 C 0.8351(4) 0.5615(4) 0.5313(6)
H12_8 H 0.8361 0.5592 0.5687
C48_8 C 0.8305(4) 0.5622(4) 0.4241(5)
H24_8 H 0.8289 0.5637 0.3867
C49_8 C 0.7880(4) 0.9157(4) 0.8826(5)
C53_8 C 0.9764(6) 0.7912(5) 0.7592(6)
C60_8 C 0.8962(4) 0.6116(4) 0.5308(6)
C61_8 C 0.8418(4) 0.8639(4) 0.8814(5)
H33_8 H 0.8418 0.8637 0.9189
C64_8 C 0.8722(4) 0.0648(5) 0.9730(6)
H36_8 H 0.8842 0.0521 0.9426
C66_8 C 0.8730(5) 0.8391(5) 0.8514(6)
H38_8 H 0.8954 0.8264 0.8699
C68_8 C 0.9311(5) 0.6796(6) 0.5442(6)
H40_8 H 0.9361 0.7076 0.5331
H43_8 H 0.9196 0.1048 0.9873
C74_8 C 0.8650(5) 0.5818(5) 0.4475(6)
H45_8 H 0.8872 0.5918 0.4261
C79_8 C 0.9062(5) 0.6502(4) 0.5146(6)
H51_8 H 0.8960 0.6589 0.4810
C86_8 C 0.9364(6) 0.6222(7) 0.6060(7)
H58_8 H 0.9469 0.6118 0.6385
C89_8 C 0.9446(5) 0.8113(6) 0.7890(6)
H60_8 H 0.9510 0.8237 0.8221
C91_8 C 0.9130(7) 0.5985(5) 0.5781(7)
H62_8 H 0.9070 0.5710 0.5903
loop_
_geom_bond_atom_site_label_1
_geom_bond_atom_site_label_2
_geom_bond_site_symmetry_1
_geom_bond_site_symmetry_2
Co4 O2 1_555 1_555
O2 C7 1_555 1_555
O3 C10 1_555 1_555
O5 Co4 1_555 1_555
O6 C49 1_555 1_555
O8 Co4 1_555 1_555
O12 Co4 1_555 1_555
C5 C10 1_555 1_555
C7 O8 1_555 1_555
N1 Co4 1_555 1_555
C8 H2 1_555 1_555
C9 C30 1_555 1_555
C10 O7 1_555 1_555
C11 C39 1_555 1_555
O14 C49 1_555 1_555
C12 C7 1_555 1_555
C14 C25 1_555 1_555
C16 H4 1_555 1_555
C17 C8 1_555 1_555
C18 N1 1_555 1_555
H5 C18 1_555 1_555
C19 C24 1_555 1_555
C20 H6 1_555 1_555
C21 O5 1_555 1_555
C22 C20 1_555 1_555
C23 H7 1_555 1_555
C24 H8 1_555 1_555
C25 C20 1_555 1_555
H9 C25 1_555 1_555
C27 C16 1_555 1_555
C30 C23 1_555 1_555
H12 C30 1_555 1_555
C36 C19 1_555 1_555
H16 C36 1_555 1_555
C39 H17 1_555 1_555
C40 C11 1_555 1_555
C42 C8 1_555 1_555
H18 C42 1_555 1_555
C49 C14 1_555 1_555
C50 C40 1_555 1_555
H25 C50 1_555 1_555
C53 N1 1_555 1_555
H28 C53 1_555 1_555
C55 C19 1_555 1_555
C57 C36 1_555 1_555
H31 C57 1_555 1_555
C60 C9 1_555 1_555
C61 C14 1_555 1_555
H33 C61 1_555 1_555
C65 C17 1_555 1_555
H37 C65 1_555 1_555
C66 C22 1_555 1_555
H38 C66 1_555 1_555
C67 C11 1_555 1_555
H39 C67 1_555 1_555
C68 C12 1_555 1_555
H40 C68 1_555 1_555
C69 C40 1_555 1_555
H41 C69 1_555 1_555
C76 C5 1_555 1_555
H47 C76 1_555 1_555
C79 C60 1_555 1_555
N8 C84 1_555 1_555
C84 C39 1_555 1_555
H56 C84 1_555 1_555
C85 C67 1_555 1_555
H57 C85 1_555 1_555
C86 C12 1_555 1_555
H58 C86 1_555 1_555
C88 C5 1_555 1_555
H59 C88 1_555 1_555
C89 C27 1_555 1_555
H60 C89 1_555 1_555
C90 C55 1_555 1_555
H61 C90 1_555 1_555
C91 C60 1_555 1_555
H62 C91 1_555 1_555
C92 C24 1_555 1_555
H63 C92 1_555 1_555
Co5 O6 1_555 1_555
Co9 N8 1_555 1_555
N12 Co4 1_555 1_555
O12 C21 1_555 1_555
O14 Co5 1_555 1_555
C16 C18 1_555 1_555
C17 C21 1_555 1_555
C22 C27 1_555 1_555
C42 C55 1_555 1_555
C50 C88 1_555 1_555
C53 C89 1_555 1_555
C57 N6 1_555 1_555
C61 C66 1_555 1_555
C65 C90 1_555 1_555
C68 C79 1_555 1_555
C69 C76 1_555 1_555
N6 C92 1_555 1_555
N8 C85 1_555 1_555
C86 C91 1_555 1_555
C48 N4 1_555 1_555
H24 C48 1_555 1_555
H45 C74 1_555 1_555
Co7 N4 1_555 1_555
C48 C74 1_555 1_555
Co5 O4 1_555 1_555
Co3 O1 1_555 1_555
O1 C2 1_555 1_555
O4 C3 1_555 1_555
O9 Co1 1_555 1_555
O10 Co5 1_555 1_555
C1 C2 1_555 1_555
O11 Co3 1_555 1_555
C2 O11 1_555 1_555
C3 O10 1_555 1_555
C4 C13 1_555 1_555
C6 H1 1_555 1_555
N2 Co1 1_555 1_555
O13 Co1 1_555 1_555
N3 C52 1_555 1_555
C13 H3 1_555 1_555
C15 C3 1_555 1_555
C26 C38 1_555 1_555
C28 H10 1_555 1_555
C29 H11 1_555 1_555
C31 C13 1_555 1_555
H13 C31 1_555 1_555
C32 C45 1_555 1_555
C33 C1 1_555 1_555
H14 C33 1_555 1_555
C34 O9 1_555 1_555
C35 H15 1_555 1_555
C37 C83 1_555 1_555
C38 C71 1_555 1_555
C41 C31 1_555 1_555
C43 N2 1_555 1_555
H19 C43 1_555 1_555
C44 C1 1_555 1_555
H20 C44 1_555 1_555
C45 H21 1_555 1_555
C46 C45 1_555 1_555
H22 C46 1_555 1_555
C47 C15 1_555 1_555
H23 C47 1_555 1_555
C51 H26 1_555 1_555
N5 C35 1_555 1_555
C52 C6 1_555 1_555
C54 N3 1_555 1_555
H29 C54 1_555 1_555
C56 C35 1_555 1_555
H30 C56 1_555 1_555
C58 C29 1_555 1_555
C59 C32 1_555 1_555
H32 C59 1_555 1_555
C62 C4 1_555 1_555
H34 C62 1_555 1_555
C63 C44 1_555 1_555
H35 C63 1_555 1_555
C64 C15 1_555 1_555
H36 C64 1_555 1_555
C70 C41 1_555 1_555
H42 C70 1_555 1_555
C71 C64 1_555 1_555
H43 C71 1_555 1_555
C72 C33 1_555 1_555
H44 C72 1_555 1_555
C73 C6 1_555 1_555
C75 C29 1_555 1_555
C77 C38 1_555 1_555
H48 C77 1_555 1_555
C78 H49 1_555 1_555
H50 C96 1_555 1_555
N7 Co3 1_555 1_555
C80 N2 1_555 1_555
H52 C80 1_555 1_555
C81 C26 1_555 1_555
H53 C81 1_555 1_555
C82 C26 1_555 1_555
H54 C82 1_555 1_555
C83 C80 1_555 1_555
H55 C83 1_555 1_555
C87 C37 1_555 1_555
C93 C37 1_555 1_555
H64 C93 1_555 1_555
C94 C46 1_555 1_555
C95 C94 1_555 1_555
O15 Co3 1_555 1_555
O16 Co3 1_555 1_555
C96 N7 1_555 1_555
N9 Co3 1_555 1_555
N10 Co5 1_555 1_555
N11 Co5 1_555 1_555
C4 C34 1_555 1_555
O13 C34 1_555 1_555
C28 C54 1_555 1_555
C28 C73 1_555 1_555
C32 C58 1_555 1_555
C41 C73 1_555 1_555
C43 C93 1_555 1_555
C47 C77 1_555 1_555
C51 C59 1_555 1_555
C51 C94 1_555 1_555
N5 C75 1_555 1_555
C56 C58 1_555 1_555
C62 C70 1_555 1_555
C63 C87 1_555 1_555
C72 C87 1_555 1_555
C78 N7 1_555 1_555
C78 C81 1_555 1_555
C82 C96 1_555 1_555
C95 O15 1_555 1_555
C95 O16 1_555 1_555
O17 Co7 1_555 1_555
O18 Co7 1_555 1_555
O1_2 C2_2 1_555 1_555
C1_2 C2_2 1_555 1_555
C2_2 O11_2 1_555 1_555
C11_2 C39_2 1_555 1_555
C33_2 C1_2 1_555 1_555
H14_2 C33_2 1_555 1_555
C39_2 H17_2 1_555 1_555
C40_2 C11_2 1_555 1_555
H19_2 C43_2 1_555 1_555
C44_2 C1_2 1_555 1_555
H20_2 C44_2 1_555 1_555
C50_2 C40_2 1_555 1_555
H25_2 C50_2 1_555 1_555
C63_2 C44_2 1_555 1_555
H35_2 C63_2 1_555 1_555
C67_2 C11_2 1_555 1_555
H39_2 C67_2 1_555 1_555
C69_2 C40_2 1_555 1_555
C72_2 C33_2 1_555 1_555
N12 C84_2 1_555 1_555
C84_2 C39_2 1_555 1_555
H56_2 C84_2 1_555 1_555
C85_2 C67_2 1_555 1_555
H57_2 C85_2 1_555 1_555
C87_2 C37_2 1_555 1_555
H59_2 C88_2 1_555 1_555
C93_2 C37_2 1_555 1_555
H64_2 C93_2 1_555 1_555
C43_2 C93_2 1_555 1_555
C50_2 C88_2 1_555 1_555
C63_2 C87_2 1_555 1_555
C72_2 C87_2 1_555 1_555
N12 C85_2 1_555 1_555
Co1_2 O3_2 1_555 1_555
O3_2 C10_2 1_555 1_555
O5_2 Co9 1_555 1_555
O7_2 Co1_2 1_555 1_555
O9_2 Co1_2 1_555 1_555
O12_2 Co9 1_555 1_555
C4_2 C13_2 1_555 1_555
C5_2 C10_2 1_555 1_555
C6_2 H1_2 1_555 1_555
N2_2 Co1_2 1_555 1_555
O13_2 Co1_2 1_555 1_555
C8_2 H2_2 1_555 1_555
C10_2 O7_2 1_555 1_555
N9 C52_2 1_555 1_555
C13_2 H3_2 1_555 1_555
C17_2 C8_2 1_555 1_555
C19_2 C24_2 1_555 1_555
C21_2 O5_2 1_555 1_555
C24_2 H8_2 1_555 1_555
C28_2 H10_2 1_555 1_555
C31_2 C13_2 1_555 1_555
H13_2 C31_2 1_555 1_555
C34_2 O9_2 1_555 1_555
C36_2 C19_2 1_555 1_555
H16_2 C36_2 1_555 1_555
C41_2 C31_2 1_555 1_555
C42_2 C8_2 1_555 1_555
H18_2 C42_2 1_555 1_555
C52_2 C6_2 1_555 1_555
H27_2 C52_2 1_555 1_555
C54_2 N9 1_555 1_555
H29_2 C54_2 1_555 1_555
C55_2 C19_2 1_555 1_555
C57_2 C36_2 1_555 1_555
H31_2 C57_2 1_555 1_555
C62_2 C4_2 1_555 1_555
H34_2 C62_2 1_555 1_555
C65_2 C17_2 1_555 1_555
H37_2 C65_2 1_555 1_555
C70_2 C41_2 1_555 1_555
H42_2 C70_2 1_555 1_555
N6_2 Co1_2 1_555 1_555
C73_2 C6_2 1_555 1_555
C76_2 C5_2 1_555 1_555
H47_2 C76_2 1_555 1_555
C80_2 N2_2 1_555 1_555
H52_2 C80_2 1_555 1_555
C83_2 C80_2 1_555 1_555
H55_2 C83_2 1_555 1_555
C90_2 C55_2 1_555 1_555
H61_2 C90_2 1_555 1_555
C92_2 C24_2 1_555 1_555
H63_2 C92_2 1_555 1_555
O12_2 C21_2 1_555 1_555
C4_2 C34_2 1_555 1_555
O13_2 C34_2 1_555 1_555
C17_2 C21_2 1_555 1_555
C28_2 C54_2 1_555 1_555
C28_2 C73_2 1_555 1_555
C41_2 C73_2 1_555 1_555
C42_2 C55_2 1_555 1_555
C57_2 N6_2 1_555 1_555
C62_2 C70_2 1_555 1_555
C65_2 C90_2 1_555 1_555
N6_2 C92_2 1_555 1_555
C26_2 C38_2 1_555 1_555
C29_2 H11_2 1_555 1_555
C32_2 C45_2 1_555 1_555
C35_2 H15_2 1_555 1_555
C38_2 C71_2 1_555 1_555
C45_2 H21_2 1_555 1_555
C46_2 C45_2 1_555 1_555
H22_2 C46_2 1_555 1_555
H23_2 C47_2 1_555 1_555
C51_2 H26_2 1_555 1_555
N11 C35_2 1_555 1_555
C56_2 C35_2 1_555 1_555
H30_2 C56_2 1_555 1_555
C58_2 C29_2 1_555 1_555
C59_2 C32_2 1_555 1_555
H32_2 C59_2 1_555 1_555
C75_2 C29_2 1_555 1_555
H46_2 C75_2 1_555 1_555
C77_2 C38_2 1_555 1_555
H48_2 C77_2 1_555 1_555
C78_2 H49_2 1_555 1_555
H50_2 C96_2 1_555 1_555
N7_2 Co8 1_555 1_555
C81_2 C26_2 1_555 1_555
H53_2 C81_2 1_555 1_555
C82_2 C26_2 1_555 1_555
H54_2 C82_2 1_555 1_555
C94_2 C46_2 1_555 1_555
C95_2 C94_2 1_555 1_555
O15_2 Co8 1_555 1_555
O16_2 Co8 1_555 1_555
C96_2 N7_2 1_555 1_555
C32_2 C58_2 1_555 1_555
C47_2 C77_2 1_555 1_555
C51_2 C59_2 1_555 1_555
C51_2 C94_2 1_555 1_555
N11 C75_2 1_555 1_555
C56_2 C58_2 1_555 1_555
C78_2 N7_2 1_555 1_555
C78_2 C81_2 1_555 1_555
C82_2 C96_2 1_555 1_555
C95_2 O15_2 1_555 1_555
C95_2 O16_2 1_555 1_555
O2_2 C7_2 1_555 1_555
O4_2 C3_2 1_555 1_555
O17 C49_2 1_555 1_555
C3_2 O10_2 1_555 1_555
C7_2 O8_2 1_555 1_555
C9_2 C30_2 1_555 1_555
N10 C23_2 1_555 1_555
O18 C49_2 1_555 1_555
C12_2 C7_2 1_555 1_555
C14_2 C25_2 1_555 1_555
C15_2 C3_2 1_555 1_555
C16_2 H4_2 1_555 1_555
C18_2 N1_2 1_555 1_555
H5_2 C18_2 1_555 1_555
C20_2 H6_2 1_555 1_555
C22_2 C20_2 1_555 1_555
C23_2 H7_2 1_555 1_555
C25_2 C20_2 1_555 1_555
H9_2 C25_2 1_555 1_555
C27_2 C16_2 1_555 1_555
C30_2 C23_2 1_555 1_555
H12_2 C30_2 1_555 1_555
C48_2 N10 1_555 1_555
H24_2 C48_2 1_555 1_555
C49_2 C14_2 1_555 1_555
C53_2 N1_2 1_555 1_555
C60_2 C9_2 1_555 1_555
C61_2 C14_2 1_555 1_555
H33_2 C61_2 1_555 1_555
C64_2 C15_2 1_555 1_555
H36_2 C64_2 1_555 1_555
C66_2 C22_2 1_555 1_555
H38_2 C66_2 1_555 1_555
C68_2 C12_2 1_555 1_555
H40_2 C68_2 1_555 1_555
C74_2 C9_2 1_555 1_555
H45_2 C74_2 1_555 1_555
C79_2 C60_2 1_555 1_555
H51_2 C79_2 1_555 1_555
C86_2 C12_2 1_555 1_555
H58_2 C86_2 1_555 1_555
C89_2 C27_2 1_555 1_555
H60_2 C89_2 1_555 1_555
C91_2 C60_2 1_555 1_555
H62_2 C91_2 1_555 1_555
C16_2 C18_2 1_555 1_555
C22_2 C27_2 1_555 1_555
C48_2 C74_2 1_555 1_555
C53_2 C89_2 1_555 1_555
C61_2 C66_2 1_555 1_555
C68_2 C79_2 1_555 1_555
C86_2 C91_2 1_555 1_555
Co4_2 O2_3 1_555 1_555
O2_3 C7_3 1_555 1_555
O3_3 C10_3 1_555 1_555
O5_3 Co4_2 1_555 1_555
O6_2 C49_3 1_555 1_555
O8_3 Co4_2 1_555 1_555
O12_3 Co4_2 1_555 1_555
C5_3 C10_3 1_555 1_555
C7_3 O8_3 1_555 1_555
N1_3 Co4_2 1_555 1_555
C8_3 H2_3 1_555 1_555
C9_3 C30_3 1_555 1_555
C10_3 O7_3 1_555 1_555
C11_3 C39_3 1_555 1_555
O14_2 C49_3 1_555 1_555
C12_3 C7_3 1_555 1_555
C14_3 C25_3 1_555 1_555
C16_3 H4_3 1_555 1_555
C17_3 C8_3 1_555 1_555
C18_3 N1_3 1_555 1_555
H5_3 C18_3 1_555 1_555
C19_3 C24_3 1_555 1_555
C20_3 H6_3 1_555 1_555
C21_3 O5_3 1_555 1_555
C22_3 C20_3 1_555 1_555
C23_3 H7_3 1_555 1_555
C24_3 H8_3 1_555 1_555
C25_3 C20_3 1_555 1_555
H9_3 C25_3 1_555 1_555
C27_3 C16_3 1_555 1_555
C30_3 C23_3 1_555 1_555
H12_3 C30_3 1_555 1_555
C36_3 C19_3 1_555 1_555
H16_3 C36_3 1_555 1_555
C39_3 H17_3 1_555 1_555
C40_3 C11_3 1_555 1_555
C42_3 C8_3 1_555 1_555
H18_3 C42_3 1_555 1_555
C49_3 C14_3 1_555 1_555
C50_3 C40_3 1_555 1_555
H25_3 C50_3 1_555 1_555
C53_3 N1_3 1_555 1_555
H28_3 C53_3 1_555 1_555
C55_3 C19_3 1_555 1_555
C57_3 C36_3 1_555 1_555
H31_3 C57_3 1_555 1_555
C60_3 C9_3 1_555 1_555
C61_3 C14_3 1_555 1_555
H33_3 C61_3 1_555 1_555
C65_3 C17_3 1_555 1_555
H37_3 C65_3 1_555 1_555
C66_3 C22_3 1_555 1_555
H38_3 C66_3 1_555 1_555
C67_3 C11_3 1_555 1_555
H39_3 C67_3 1_555 1_555
C68_3 C12_3 1_555 1_555
H40_3 C68_3 1_555 1_555
C69_3 C40_3 1_555 1_555
H41_3 C69_3 1_555 1_555
C76_3 C5_3 1_555 1_555
H47_3 C76_3 1_555 1_555
C79_3 C60_3 1_555 1_555
N8_2 C84_3 1_555 1_555
C84_3 C39_3 1_555 1_555
H56_3 C84_3 1_555 1_555
C85_3 C67_3 1_555 1_555
H57_3 C85_3 1_555 1_555
C86_3 C12_3 1_555 1_555
H58_3 C86_3 1_555 1_555
C88_3 C5_3 1_555 1_555
H59_3 C88_3 1_555 1_555
C89_3 C27_3 1_555 1_555
H60_3 C89_3 1_555 1_555
C90_3 C55_3 1_555 1_555
H61_3 C90_3 1_555 1_555
C91_3 C60_3 1_555 1_555
H62_3 C91_3 1_555 1_555
C92_3 C24_3 1_555 1_555
H63_3 C92_3 1_555 1_555
Co5_2 O6_2 1_555 1_555
Co9_2 N8_2 1_555 1_555
N12_2 Co4_2 1_555 1_555
O12_3 C21_3 1_555 1_555
O14_2 Co5_2 1_555 1_555
C16_3 C18_3 1_555 1_555
C17_3 C21_3 1_555 1_555
C22_3 C27_3 1_555 1_555
C42_3 C55_3 1_555 1_555
C50_3 C88_3 1_555 1_555
C53_3 C89_3 1_555 1_555
C57_3 N6_3 1_555 1_555
C61_3 C66_3 1_555 1_555
C65_3 C90_3 1_555 1_555
C68_3 C79_3 1_555 1_555
C69_3 C76_3 1_555 1_555
N6_3 C92_3 1_555 1_555
N8_2 C85_3 1_555 1_555
C86_3 C91_3 1_555 1_555
C48_3 N4_2 1_555 1_555
H24_3 C48_3 1_555 1_555
H45_3 C74_3 1_555 1_555
Co7_2 N4_2 1_555 1_555
C48_3 C74_3 1_555 1_555
Co5_2 O4_3 1_555 1_555
Co3_2 O1_3 1_555 1_555
O1_3 C2_3 1_555 1_555
O4_3 C3_3 1_555 1_555
O9_3 Co1_3 1_555 1_555
O10_3 Co5_2 1_555 1_555
C1_3 C2_3 1_555 1_555
O11_3 Co3_2 1_555 1_555
C2_3 O11_3 1_555 1_555
C3_3 O10_3 1_555 1_555
C4_3 C13_3 1_555 1_555
C6_3 H1_3 1_555 1_555
N2_3 Co1_3 1_555 1_555
O13_3 Co1_3 1_555 1_555
N3_2 C52_3 1_555 1_555
C13_3 H3_3 1_555 1_555
C15_3 C3_3 1_555 1_555
C26_3 C38_3 1_555 1_555
C28_3 H10_3 1_555 1_555
C29_3 H11_3 1_555 1_555
C31_3 C13_3 1_555 1_555
H13_3 C31_3 1_555 1_555
C32_3 C45_3 1_555 1_555
C33_3 C1_3 1_555 1_555
H14_3 C33_3 1_555 1_555
C34_3 O9_3 1_555 1_555
C35_3 H15_3 1_555 1_555
C37_3 C83_3 1_555 1_555
C38_3 C71_3 1_555 1_555
C41_3 C31_3 1_555 1_555
C43_3 N2_3 1_555 1_555
H19_3 C43_3 1_555 1_555
C44_3 C1_3 1_555 1_555
H20_3 C44_3 1_555 1_555
C45_3 H21_3 1_555 1_555
C46_3 C45_3 1_555 1_555
H22_3 C46_3 1_555 1_555
C47_3 C15_3 1_555 1_555
H23_3 C47_3 1_555 1_555
C51_3 H26_3 1_555 1_555
N5_2 C35_3 1_555 1_555
C52_3 C6_3 1_555 1_555
C54_3 N3_2 1_555 1_555
H29_3 C54_3 1_555 1_555
C56_3 C35_3 1_555 1_555
H30_3 C56_3 1_555 1_555
C58_3 C29_3 1_555 1_555
C59_3 C32_3 1_555 1_555
H32_3 C59_3 1_555 1_555
C62_3 C4_3 1_555 1_555
H34_3 C62_3 1_555 1_555
C63_3 C44_3 1_555 1_555
H35_3 C63_3 1_555 1_555
C64_3 C15_3 1_555 1_555
H36_3 C64_3 1_555 1_555
C70_3 C41_3 1_555 1_555
H42_3 C70_3 1_555 1_555
C71_3 C64_3 1_555 1_555
H43_3 C71_3 1_555 1_555
C72_3 C33_3 1_555 1_555
H44_3 C72_3 1_555 1_555
C73_3 C6_3 1_555 1_555
C75_3 C29_3 1_555 1_555
C77_3 C38_3 1_555 1_555
H48_3 C77_3 1_555 1_555
C78_3 H49_3 1_555 1_555
H50_3 C96_3 1_555 1_555
N7_3 Co3_2 1_555 1_555
C80_3 N2_3 1_555 1_555
H52_3 C80_3 1_555 1_555
C81_3 C26_3 1_555 1_555
H53_3 C81_3 1_555 1_555
C82_3 C26_3 1_555 1_555
H54_3 C82_3 1_555 1_555
C83_3 C80_3 1_555 1_555
H55_3 C83_3 1_555 1_555
C87_3 C37_3 1_555 1_555
C93_3 C37_3 1_555 1_555
H64_3 C93_3 1_555 1_555
C94_3 C46_3 1_555 1_555
C95_3 C94_3 1_555 1_555
O15_3 Co3_2 1_555 1_555
O16_3 Co3_2 1_555 1_555
C96_3 N7_3 1_555 1_555
N9_2 Co3_2 1_555 1_555
N10_2 Co5_2 1_555 1_555
N11_2 Co5_2 1_555 1_555
C4_3 C34_3 1_555 1_555
O13_3 C34_3 1_555 1_555
C28_3 C54_3 1_555 1_555
C28_3 C73_3 1_555 1_555
C32_3 C58_3 1_555 1_555
C41_3 C73_3 1_555 1_555
C43_3 C93_3 1_555 1_555
C47_3 C77_3 1_555 1_555
C51_3 C59_3 1_555 1_555
C51_3 C94_3 1_555 1_555
N5_2 C75_3 1_555 1_555
C56_3 C58_3 1_555 1_555
C62_3 C70_3 1_555 1_555
C63_3 C87_3 1_555 1_555
C72_3 C87_3 1_555 1_555
C78_3 N7_3 1_555 1_555
C78_3 C81_3 1_555 1_555
C82_3 C96_3 1_555 1_555
C95_3 O15_3 1_555 1_555
C95_3 O16_3 1_555 1_555
O17_2 Co7_2 1_555 1_555
O18_2 Co7_2 1_555 1_555
C26_4 C38_4 1_555 1_555
C29_4 H11_4 1_555 1_555
C32_4 C45_4 1_555 1_555
C35_4 H15_4 1_555 1_555
C38_4 C71_4 1_555 1_555
C45_4 H21_4 1_555 1_555
C46_4 C45_4 1_555 1_555
H22_4 C46_4 1_555 1_555
H23_4 C47_4 1_555 1_555
C51_4 H26_4 1_555 1_555
N11_2 C35_4 1_555 1_555
C56_4 C35_4 1_555 1_555
H30_4 C56_4 1_555 1_555
C58_4 C29_4 1_555 1_555
C59_4 C32_4 1_555 1_555
H32_4 C59_4 1_555 1_555
C75_4 C29_4 1_555 1_555
H46_4 C75_4 1_555 1_555
C77_4 C38_4 1_555 1_555
H48_4 C77_4 1_555 1_555
C78_4 H49_4 1_555 1_555
H50_4 C96_4 1_555 1_555
N7_4 Co8_2 1_555 1_555
C81_4 C26_4 1_555 1_555
H53_4 C81_4 1_555 1_555
C82_4 C26_4 1_555 1_555
H54_4 C82_4 1_555 1_555
C94_4 C46_4 1_555 1_555
C95_4 C94_4 1_555 1_555
O15_4 Co8_2 1_555 1_555
O16_4 Co8_2 1_555 1_555
C96_4 N7_4 1_555 1_555
C32_4 C58_4 1_555 1_555
C47_4 C77_4 1_555 1_555
C51_4 C59_4 1_555 1_555
C51_4 C94_4 1_555 1_555
N11_2 C75_4 1_555 1_555
C56_4 C58_4 1_555 1_555
C78_4 N7_4 1_555 1_555
C78_4 C81_4 1_555 1_555
C82_4 C96_4 1_555 1_555
C95_4 O15_4 1_555 1_555
C95_4 O16_4 1_555 1_555
O2_4 C7_4 1_555 1_555
O4_4 C3_4 1_555 1_555
O17_2 C49_4 1_555 1_555
C3_4 O10_4 1_555 1_555
C7_4 O8_4 1_555 1_555
C9_4 C30_4 1_555 1_555
N10_2 C23_4 1_555 1_555
O18_2 C49_4 1_555 1_555
C12_4 C7_4 1_555 1_555
C14_4 C25_4 1_555 1_555
C15_4 C3_4 1_555 1_555
C16_4 H4_4 1_555 1_555
C18_4 N1_4 1_555 1_555
H5_4 C18_4 1_555 1_555
C20_4 H6_4 1_555 1_555
C22_4 C20_4 1_555 1_555
C23_4 H7_4 1_555 1_555
C25_4 C20_4 1_555 1_555
H9_4 C25_4 1_555 1_555
C27_4 C16_4 1_555 1_555
C30_4 C23_4 1_555 1_555
H12_4 C30_4 1_555 1_555
C48_4 N10_2 1_555 1_555
H24_4 C48_4 1_555 1_555
C49_4 C14_4 1_555 1_555
C53_4 N1_4 1_555 1_555
C60_4 C9_4 1_555 1_555
C61_4 C14_4 1_555 1_555
H33_4 C61_4 1_555 1_555
C64_4 C15_4 1_555 1_555
H36_4 C64_4 1_555 1_555
C66_4 C22_4 1_555 1_555
H38_4 C66_4 1_555 1_555
C68_4 C12_4 1_555 1_555
H40_4 C68_4 1_555 1_555
C74_4 C9_4 1_555 1_555
H45_4 C74_4 1_555 1_555
C79_4 C60_4 1_555 1_555
H51_4 C79_4 1_555 1_555
C86_4 C12_4 1_555 1_555
H58_4 C86_4 1_555 1_555
C89_4 C27_4 1_555 1_555
H60_4 C89_4 1_555 1_555
C91_4 C60_4 1_555 1_555
H62_4 C91_4 1_555 1_555
C16_4 C18_4 1_555 1_555
C22_4 C27_4 1_555 1_555
C48_4 C74_4 1_555 1_555
C53_4 C89_4 1_555 1_555
C61_4 C66_4 1_555 1_555
C68_4 C79_4 1_555 1_555
C86_4 C91_4 1_555 1_555
O1_4 C2_4 1_555 1_555
C1_4 C2_4 1_555 1_555
C2_4 O11_4 1_555 1_555
C11_4 C39_4 1_555 1_555
C33_4 C1_4 1_555 1_555
H14_4 C33_4 1_555 1_555
C39_4 H17_4 1_555 1_555
C40_4 C11_4 1_555 1_555
H19_4 C43_4 1_555 1_555
C44_4 C1_4 1_555 1_555
H20_4 C44_4 1_555 1_555
C50_4 C40_4 1_555 1_555
H25_4 C50_4 1_555 1_555
C63_4 C44_4 1_555 1_555
H35_4 C63_4 1_555 1_555
C67_4 C11_4 1_555 1_555
H39_4 C67_4 1_555 1_555
C69_4 C40_4 1_555 1_555
C72_4 C33_4 1_555 1_555
N12_2 C84_4 1_555 1_555
C84_4 C39_4 1_555 1_555
H56_4 C84_4 1_555 1_555
C85_4 C67_4 1_555 1_555
H57_4 C85_4 1_555 1_555
C87_4 C37_4 1_555 1_555
H59_4 C88_4 1_555 1_555
C93_4 C37_4 1_555 1_555
H64_4 C93_4 1_555 1_555
C43_4 C93_4 1_555 1_555
C50_4 C88_4 1_555 1_555
C63_4 C87_4 1_555 1_555
C72_4 C87_4 1_555 1_555
N12_2 C85_4 1_555 1_555
Co1_4 O3_4 1_555 1_555
O3_4 C10_4 1_555 1_555
O5_4 Co9_2 1_555 1_555
O7_4 Co1_4 1_555 1_555
O9_4 Co1_4 1_555 1_555
O12_4 Co9_2 1_555 1_555
C4_4 C13_4 1_555 1_555
C5_4 C10_4 1_555 1_555
C6_4 H1_4 1_555 1_555
N2_4 Co1_4 1_555 1_555
O13_4 Co1_4 1_555 1_555
C8_4 H2_4 1_555 1_555
C10_4 O7_4 1_555 1_555
N9_2 C52_4 1_555 1_555
C13_4 H3_4 1_555 1_555
C17_4 C8_4 1_555 1_555
C19_4 C24_4 1_555 1_555
C21_4 O5_4 1_555 1_555
C24_4 H8_4 1_555 1_555
C28_4 H10_4 1_555 1_555
C31_4 C13_4 1_555 1_555
H13_4 C31_4 1_555 1_555
C34_4 O9_4 1_555 1_555
C36_4 C19_4 1_555 1_555
H16_4 C36_4 1_555 1_555
C41_4 C31_4 1_555 1_555
C42_4 C8_4 1_555 1_555
H18_4 C42_4 1_555 1_555
C52_4 C6_4 1_555 1_555
H27_4 C52_4 1_555 1_555
C54_4 N9_2 1_555 1_555
H29_4 C54_4 1_555 1_555
C55_4 C19_4 1_555 1_555
C57_4 C36_4 1_555 1_555
H31_4 C57_4 1_555 1_555
C62_4 C4_4 1_555 1_555
H34_4 C62_4 1_555 1_555
C65_4 C17_4 1_555 1_555
H37_4 C65_4 1_555 1_555
C70_4 C41_4 1_555 1_555
H42_4 C70_4 1_555 1_555
N6_4 Co1_4 1_555 1_555
C73_4 C6_4 1_555 1_555
C76_4 C5_4 1_555 1_555
H47_4 C76_4 1_555 1_555
C80_4 N2_4 1_555 1_555
H52_4 C80_4 1_555 1_555
C83_4 C80_4 1_555 1_555
H55_4 C83_4 1_555 1_555
C90_4 C55_4 1_555 1_555
H61_4 C90_4 1_555 1_555
C92_4 C24_4 1_555 1_555
H63_4 C92_4 1_555 1_555
O12_4 C21_4 1_555 1_555
C4_4 C34_4 1_555 1_555
O13_4 C34_4 1_555 1_555
C17_4 C21_4 1_555 1_555
C28_4 C54_4 1_555 1_555
C28_4 C73_4 1_555 1_555
C41_4 C73_4 1_555 1_555
C42_4 C55_4 1_555 1_555
C57_4 N6_4 1_555 1_555
C62_4 C70_4 1_555 1_555
C65_4 C90_4 1_555 1_555
N6_4 C92_4 1_555 1_555
Co2 O4_5 1_555 1_555
Co3_3 O1_5 1_555 1_555
O1_5 C2_5 1_555 1_555
O4_5 C3_5 1_555 1_555
O9_5 Co1_5 1_555 1_555
O10_5 Co2 1_555 1_555
C1_5 C2_5 1_555 1_555
O11_5 Co3_3 1_555 1_555
C2_5 O11_5 1_555 1_555
C3_5 O10_5 1_555 1_555
C4_5 C13_5 1_555 1_555
C6_5 H1_5 1_555 1_555
N2_5 Co1_5 1_555 1_555
O13_5 Co1_5 1_555 1_555
N3_3 C52_5 1_555 1_555
C13_5 H3_5 1_555 1_555
C15_5 C3_5 1_555 1_555
C26_5 C38_5 1_555 1_555
C28_5 H10_5 1_555 1_555
C29_5 H11_5 1_555 1_555
C31_5 C13_5 1_555 1_555
H13_5 C31_5 1_555 1_555
C32_5 C45_5 1_555 1_555
C33_5 C1_5 1_555 1_555
H14_5 C33_5 1_555 1_555
C34_5 O9_5 1_555 1_555
C35_5 H15_5 1_555 1_555
C37_5 C83_5 1_555 1_555
C38_5 C71_5 1_555 1_555
C41_5 C31_5 1_555 1_555
C43_5 N2_5 1_555 1_555
H19_5 C43_5 1_555 1_555
C44_5 C1_5 1_555 1_555
H20_5 C44_5 1_555 1_555
C45_5 H21_5 1_555 1_555
C46_5 C45_5 1_555 1_555
H22_5 C46_5 1_555 1_555
C47_5 C15_5 1_555 1_555
H23_5 C47_5 1_555 1_555
C51_5 H26_5 1_555 1_555
N5_3 C35_5 1_555 1_555
C52_5 C6_5 1_555 1_555
C54_5 N3_3 1_555 1_555
H29_5 C54_5 1_555 1_555
C56_5 C35_5 1_555 1_555
H30_5 C56_5 1_555 1_555
C58_5 C29_5 1_555 1_555
C59_5 C32_5 1_555 1_555
H32_5 C59_5 1_555 1_555
C62_5 C4_5 1_555 1_555
H34_5 C62_5 1_555 1_555
C63_5 C44_5 1_555 1_555
H35_5 C63_5 1_555 1_555
C64_5 C15_5 1_555 1_555
H36_5 C64_5 1_555 1_555
C70_5 C41_5 1_555 1_555
H42_5 C70_5 1_555 1_555
C71_5 C64_5 1_555 1_555
H43_5 C71_5 1_555 1_555
C72_5 C33_5 1_555 1_555
H44_5 C72_5 1_555 1_555
C73_5 C6_5 1_555 1_555
C75_5 C29_5 1_555 1_555
C77_5 C38_5 1_555 1_555
H48_5 C77_5 1_555 1_555
C78_5 H49_5 1_555 1_555
H50_5 C96_5 1_555 1_555
N7_5 Co3_3 1_555 1_555
C80_5 N2_5 1_555 1_555
H52_5 C80_5 1_555 1_555
C81_5 C26_5 1_555 1_555
H53_5 C81_5 1_555 1_555
C82_5 C26_5 1_555 1_555
H54_5 C82_5 1_555 1_555
C83_5 C80_5 1_555 1_555
H55_5 C83_5 1_555 1_555
C87_5 C37_5 1_555 1_555
C93_5 C37_5 1_555 1_555
H64_5 C93_5 1_555 1_555
C94_5 C46_5 1_555 1_555
C95_5 C94_5 1_555 1_555
O15_5 Co3_3 1_555 1_555
O16_5 Co3_3 1_555 1_555
C96_5 N7_5 1_555 1_555
O17_3 Co2 1_555 1_555
N9_3 Co3_3 1_555 1_555
N10_3 Co2 1_555 1_555
O18_3 Co2 1_555 1_555
N11_3 Co2 1_555 1_555
C4_5 C34_5 1_555 1_555
O13_5 C34_5 1_555 1_555
C28_5 C54_5 1_555 1_555
C28_5 C73_5 1_555 1_555
C32_5 C58_5 1_555 1_555
C41_5 C73_5 1_555 1_555
C43_5 C93_5 1_555 1_555
C47_5 C77_5 1_555 1_555
C51_5 C59_5 1_555 1_555
C51_5 C94_5 1_555 1_555
N5_3 C75_5 1_555 1_555
C56_5 C58_5 1_555 1_555
C62_5 C70_5 1_555 1_555
C63_5 C87_5 1_555 1_555
C72_5 C87_5 1_555 1_555
C78_5 N7_5 1_555 1_555
C78_5 C81_5 1_555 1_555
C82_5 C96_5 1_555 1_555
C95_5 O15_5 1_555 1_555
C95_5 O16_5 1_555 1_555
Co4_3 O2_5 1_555 1_555
O2_5 C7_5 1_555 1_555
O3_5 C10_5 1_555 1_555
O5_5 Co4_3 1_555 1_555
O17_3 C49_5 1_555 1_555
O8_5 Co4_3 1_555 1_555
O12_5 Co4_3 1_555 1_555
C5_5 C10_5 1_555 1_555
C7_5 O8_5 1_555 1_555
N1_5 Co4_3 1_555 1_555
C8_5 H2_5 1_555 1_555
C9_5 C30_5 1_555 1_555
C10_5 O7_5 1_555 1_555
C11_5 C39_5 1_555 1_555
O18_3 C49_5 1_555 1_555
C12_5 C7_5 1_555 1_555
C14_5 C25_5 1_555 1_555
C16_5 H4_5 1_555 1_555
C17_5 C8_5 1_555 1_555
C18_5 N1_5 1_555 1_555
H5_5 C18_5 1_555 1_555
C19_5 C24_5 1_555 1_555
C20_5 H6_5 1_555 1_555
C21_5 O5_5 1_555 1_555
C22_5 C20_5 1_555 1_555
C23_5 H7_5 1_555 1_555
C24_5 H8_5 1_555 1_555
C25_5 C20_5 1_555 1_555
H9_5 C25_5 1_555 1_555
C27_5 C16_5 1_555 1_555
C30_5 C23_5 1_555 1_555
H12_5 C30_5 1_555 1_555
C36_5 C19_5 1_555 1_555
H16_5 C36_5 1_555 1_555
C39_5 H17_5 1_555 1_555
C40_5 C11_5 1_555 1_555
C42_5 C8_5 1_555 1_555
H18_5 C42_5 1_555 1_555
C49_5 C14_5 1_555 1_555
C50_5 C40_5 1_555 1_555
H25_5 C50_5 1_555 1_555
C53_5 N1_5 1_555 1_555
H28_5 C53_5 1_555 1_555
C55_5 C19_5 1_555 1_555
C57_5 C36_5 1_555 1_555
H31_5 C57_5 1_555 1_555
C60_5 C9_5 1_555 1_555
C61_5 C14_5 1_555 1_555
H33_5 C61_5 1_555 1_555
C65_5 C17_5 1_555 1_555
H37_5 C65_5 1_555 1_555
C66_5 C22_5 1_555 1_555
H38_5 C66_5 1_555 1_555
C67_5 C11_5 1_555 1_555
H39_5 C67_5 1_555 1_555
C68_5 C12_5 1_555 1_555
H40_5 C68_5 1_555 1_555
C69_5 C40_5 1_555 1_555
H41_5 C69_5 1_555 1_555
C76_5 C5_5 1_555 1_555
H47_5 C76_5 1_555 1_555
C79_5 C60_5 1_555 1_555
N8_3 C84_5 1_555 1_555
C84_5 C39_5 1_555 1_555
H56_5 C84_5 1_555 1_555
C85_5 C67_5 1_555 1_555
H57_5 C85_5 1_555 1_555
C86_5 C12_5 1_555 1_555
H58_5 C86_5 1_555 1_555
C88_5 C5_5 1_555 1_555
H59_5 C88_5 1_555 1_555
C89_5 C27_5 1_555 1_555
H60_5 C89_5 1_555 1_555
C90_5 C55_5 1_555 1_555
H61_5 C90_5 1_555 1_555
C91_5 C60_5 1_555 1_555
H62_5 C91_5 1_555 1_555
C92_5 C24_5 1_555 1_555
H63_5 C92_5 1_555 1_555
Co9_3 N8_3 1_555 1_555
N12_3 Co4_3 1_555 1_555
O12_5 C21_5 1_555 1_555
C16_5 C18_5 1_555 1_555
C17_5 C21_5 1_555 1_555
C22_5 C27_5 1_555 1_555
C42_5 C55_5 1_555 1_555
C50_5 C88_5 1_555 1_555
C53_5 C89_5 1_555 1_555
C57_5 N6_5 1_555 1_555
C61_5 C66_5 1_555 1_555
C65_5 C90_5 1_555 1_555
C68_5 C79_5 1_555 1_555
C69_5 C76_5 1_555 1_555
N6_5 C92_5 1_555 1_555
N8_3 C85_5 1_555 1_555
C86_5 C91_5 1_555 1_555
C48_5 N4_3 1_555 1_555
H24_5 C48_5 1_555 1_555
H45_5 C74_5 1_555 1_555
Co7_3 N4_3 1_555 1_555
C48_5 C74_5 1_555 1_555
C26_6 C38_6 1_555 1_555
C29_6 H11_6 1_555 1_555
C32_6 C45_6 1_555 1_555
C35_6 H15_6 1_555 1_555
C38_6 C71_6 1_555 1_555
C45_6 H21_6 1_555 1_555
C46_6 C45_6 1_555 1_555
H22_6 C46_6 1_555 1_555
H23_6 C47_6 1_555 1_555
C51_6 H26_6 1_555 1_555
N11_3 C35_6 1_555 1_555
C56_6 C35_6 1_555 1_555
H30_6 C56_6 1_555 1_555
C58_6 C29_6 1_555 1_555
C59_6 C32_6 1_555 1_555
H32_6 C59_6 1_555 1_555
C75_6 C29_6 1_555 1_555
H46_6 C75_6 1_555 1_555
C77_6 C38_6 1_555 1_555
H48_6 C77_6 1_555 1_555
C78_6 H49_6 1_555 1_555
H50_6 C96_6 1_555 1_555
N7_6 Co8_3 1_555 1_555
C81_6 C26_6 1_555 1_555
H53_6 C81_6 1_555 1_555
C82_6 C26_6 1_555 1_555
H54_6 C82_6 1_555 1_555
C94_6 C46_6 1_555 1_555
C95_6 C94_6 1_555 1_555
O15_6 Co8_3 1_555 1_555
O16_6 Co8_3 1_555 1_555
C96_6 N7_6 1_555 1_555
C32_6 C58_6 1_555 1_555
C47_6 C77_6 1_555 1_555
C51_6 C59_6 1_555 1_555
C51_6 C94_6 1_555 1_555
N11_3 C75_6 1_555 1_555
C56_6 C58_6 1_555 1_555
C78_6 N7_6 1_555 1_555
C78_6 C81_6 1_555 1_555
C82_6 C96_6 1_555 1_555
C95_6 O15_6 1_555 1_555
C95_6 O16_6 1_555 1_555
O2_6 C7_6 1_555 1_555
O4_6 C3_6 1_555 1_555
O6_3 C49_6 1_555 1_555
C3_6 O10_6 1_555 1_555
C7_6 O8_6 1_555 1_555
C9_6 C30_6 1_555 1_555
N10_3 C23_6 1_555 1_555
O14_3 C49_6 1_555 1_555
C12_6 C7_6 1_555 1_555
C14_6 C25_6 1_555 1_555
C15_6 C3_6 1_555 1_555
C16_6 H4_6 1_555 1_555
C18_6 N1_6 1_555 1_555
H5_6 C18_6 1_555 1_555
C20_6 H6_6 1_555 1_555
C22_6 C20_6 1_555 1_555
C23_6 H7_6 1_555 1_555
C25_6 C20_6 1_555 1_555
H9_6 C25_6 1_555 1_555
C27_6 C16_6 1_555 1_555
C30_6 C23_6 1_555 1_555
H12_6 C30_6 1_555 1_555
C48_6 N10_3 1_555 1_555
H24_6 C48_6 1_555 1_555
C49_6 C14_6 1_555 1_555
C53_6 N1_6 1_555 1_555
C60_6 C9_6 1_555 1_555
C61_6 C14_6 1_555 1_555
H33_6 C61_6 1_555 1_555
C64_6 C15_6 1_555 1_555
H36_6 C64_6 1_555 1_555
C66_6 C22_6 1_555 1_555
H38_6 C66_6 1_555 1_555
C68_6 C12_6 1_555 1_555
H40_6 C68_6 1_555 1_555
C74_6 C9_6 1_555 1_555
H45_6 C74_6 1_555 1_555
C79_6 C60_6 1_555 1_555
H51_6 C79_6 1_555 1_555
C86_6 C12_6 1_555 1_555
H58_6 C86_6 1_555 1_555
C89_6 C27_6 1_555 1_555
H60_6 C89_6 1_555 1_555
C91_6 C60_6 1_555 1_555
H62_6 C91_6 1_555 1_555
Co7_3 O6_3 1_555 1_555
O14_3 Co7_3 1_555 1_555
C16_6 C18_6 1_555 1_555
C22_6 C27_6 1_555 1_555
C48_6 C74_6 1_555 1_555
C53_6 C89_6 1_555 1_555
C61_6 C66_6 1_555 1_555
C68_6 C79_6 1_555 1_555
C86_6 C91_6 1_555 1_555
O1_6 C2_6 1_555 1_555
C1_6 C2_6 1_555 1_555
C2_6 O11_6 1_555 1_555
C11_6 C39_6 1_555 1_555
C33_6 C1_6 1_555 1_555
H14_6 C33_6 1_555 1_555
C39_6 H17_6 1_555 1_555
C40_6 C11_6 1_555 1_555
H19_6 C43_6 1_555 1_555
C44_6 C1_6 1_555 1_555
H20_6 C44_6 1_555 1_555
C50_6 C40_6 1_555 1_555
H25_6 C50_6 1_555 1_555
C63_6 C44_6 1_555 1_555
H35_6 C63_6 1_555 1_555
C67_6 C11_6 1_555 1_555
H39_6 C67_6 1_555 1_555
C69_6 C40_6 1_555 1_555
C72_6 C33_6 1_555 1_555
N12_3 C84_6 1_555 1_555
C84_6 C39_6 1_555 1_555
H56_6 C84_6 1_555 1_555
C85_6 C67_6 1_555 1_555
H57_6 C85_6 1_555 1_555
C87_6 C37_6 1_555 1_555
H59_6 C88_6 1_555 1_555
C93_6 C37_6 1_555 1_555
H64_6 C93_6 1_555 1_555
C43_6 C93_6 1_555 1_555
C50_6 C88_6 1_555 1_555
C63_6 C87_6 1_555 1_555
C72_6 C87_6 1_555 1_555
N12_3 C85_6 1_555 1_555
Co1_6 O3_6 1_555 1_555
O3_6 C10_6 1_555 1_555
O5_6 Co9_3 1_555 1_555
O7_6 Co1_6 1_555 1_555
O9_6 Co1_6 1_555 1_555
O12_6 Co9_3 1_555 1_555
C4_6 C13_6 1_555 1_555
C5_6 C10_6 1_555 1_555
C6_6 H1_6 1_555 1_555
N2_6 Co1_6 1_555 1_555
O13_6 Co1_6 1_555 1_555
C8_6 H2_6 1_555 1_555
C10_6 O7_6 1_555 1_555
N9_3 C52_6 1_555 1_555
C13_6 H3_6 1_555 1_555
C17_6 C8_6 1_555 1_555
C19_6 C24_6 1_555 1_555
C21_6 O5_6 1_555 1_555
C24_6 H8_6 1_555 1_555
C28_6 H10_6 1_555 1_555
C31_6 C13_6 1_555 1_555
H13_6 C31_6 1_555 1_555
C34_6 O9_6 1_555 1_555
C36_6 C19_6 1_555 1_555
H16_6 C36_6 1_555 1_555
C41_6 C31_6 1_555 1_555
C42_6 C8_6 1_555 1_555
H18_6 C42_6 1_555 1_555
C52_6 C6_6 1_555 1_555
H27_6 C52_6 1_555 1_555
C54_6 N9_3 1_555 1_555
H29_6 C54_6 1_555 1_555
C55_6 C19_6 1_555 1_555
C57_6 C36_6 1_555 1_555
H31_6 C57_6 1_555 1_555
C62_6 C4_6 1_555 1_555
H34_6 C62_6 1_555 1_555
C65_6 C17_6 1_555 1_555
H37_6 C65_6 1_555 1_555
C70_6 C41_6 1_555 1_555
H42_6 C70_6 1_555 1_555
N6_6 Co1_6 1_555 1_555
C73_6 C6_6 1_555 1_555
C76_6 C5_6 1_555 1_555
H47_6 C76_6 1_555 1_555
C80_6 N2_6 1_555 1_555
H52_6 C80_6 1_555 1_555
C83_6 C80_6 1_555 1_555
H55_6 C83_6 1_555 1_555
C90_6 C55_6 1_555 1_555
H61_6 C90_6 1_555 1_555
C92_6 C24_6 1_555 1_555
H63_6 C92_6 1_555 1_555
O12_6 C21_6 1_555 1_555
C4_6 C34_6 1_555 1_555
O13_6 C34_6 1_555 1_555
C17_6 C21_6 1_555 1_555
C28_6 C54_6 1_555 1_555
C28_6 C73_6 1_555 1_555
C41_6 C73_6 1_555 1_555
C42_6 C55_6 1_555 1_555
C57_6 N6_6 1_555 1_555
C62_6 C70_6 1_555 1_555
C65_6 C90_6 1_555 1_555
N6_6 C92_6 1_555 1_555
Co2_2 O4_7 1_555 1_555
Co3_4 O1_7 1_555 1_555
O1_7 C2_7 1_555 1_555
O4_7 C3_7 1_555 1_555
O9_7 Co1_7 1_555 1_555
O10_7 Co2_2 1_555 1_555
C1_7 C2_7 1_555 1_555
O11_7 Co3_4 1_555 1_555
C2_7 O11_7 1_555 1_555
C3_7 O10_7 1_555 1_555
C4_7 C13_7 1_555 1_555
C6_7 H1_7 1_555 1_555
N2_7 Co1_7 1_555 1_555
O13_7 Co1_7 1_555 1_555
N3_4 C52_7 1_555 1_555
C13_7 H3_7 1_555 1_555
C15_7 C3_7 1_555 1_555
C26_7 C38_7 1_555 1_555
C28_7 H10_7 1_555 1_555
C29_7 H11_7 1_555 1_555
C31_7 C13_7 1_555 1_555
H13_7 C31_7 1_555 1_555
C32_7 C45_7 1_555 1_555
C33_7 C1_7 1_555 1_555
H14_7 C33_7 1_555 1_555
C34_7 O9_7 1_555 1_555
C35_7 H15_7 1_555 1_555
C37_7 C83_7 1_555 1_555
C38_7 C71_7 1_555 1_555
C41_7 C31_7 1_555 1_555
C43_7 N2_7 1_555 1_555
H19_7 C43_7 1_555 1_555
C44_7 C1_7 1_555 1_555
H20_7 C44_7 1_555 1_555
C45_7 H21_7 1_555 1_555
C46_7 C45_7 1_555 1_555
H22_7 C46_7 1_555 1_555
C47_7 C15_7 1_555 1_555
H23_7 C47_7 1_555 1_555
C51_7 H26_7 1_555 1_555
N5_4 C35_7 1_555 1_555
C52_7 C6_7 1_555 1_555
C54_7 N3_4 1_555 1_555
H29_7 C54_7 1_555 1_555
C56_7 C35_7 1_555 1_555
H30_7 C56_7 1_555 1_555
C58_7 C29_7 1_555 1_555
C59_7 C32_7 1_555 1_555
H32_7 C59_7 1_555 1_555
C62_7 C4_7 1_555 1_555
H34_7 C62_7 1_555 1_555
C63_7 C44_7 1_555 1_555
H35_7 C63_7 1_555 1_555
C64_7 C15_7 1_555 1_555
H36_7 C64_7 1_555 1_555
C70_7 C41_7 1_555 1_555
H42_7 C70_7 1_555 1_555
C71_7 C64_7 1_555 1_555
H43_7 C71_7 1_555 1_555
C72_7 C33_7 1_555 1_555
H44_7 C72_7 1_555 1_555
C73_7 C6_7 1_555 1_555
C75_7 C29_7 1_555 1_555
C77_7 C38_7 1_555 1_555
H48_7 C77_7 1_555 1_555
C78_7 H49_7 1_555 1_555
H50_7 C96_7 1_555 1_555
N7_7 Co3_4 1_555 1_555
C80_7 N2_7 1_555 1_555
H52_7 C80_7 1_555 1_555
C81_7 C26_7 1_555 1_555
H53_7 C81_7 1_555 1_555
C82_7 C26_7 1_555 1_555
H54_7 C82_7 1_555 1_555
C83_7 C80_7 1_555 1_555
H55_7 C83_7 1_555 1_555
C87_7 C37_7 1_555 1_555
C93_7 C37_7 1_555 1_555
H64_7 C93_7 1_555 1_555
C94_7 C46_7 1_555 1_555
C95_7 C94_7 1_555 1_555
O15_7 Co3_4 1_555 1_555
O16_7 Co3_4 1_555 1_555
C96_7 N7_7 1_555 1_555
O17_4 Co2_2 1_555 1_555
N9_4 Co3_4 1_555 1_555
N10_4 Co2_2 1_555 1_555
O18_4 Co2_2 1_555 1_555
N11_4 Co2_2 1_555 1_555
C4_7 C34_7 1_555 1_555
O13_7 C34_7 1_555 1_555
C28_7 C54_7 1_555 1_555
C28_7 C73_7 1_555 1_555
C32_7 C58_7 1_555 1_555
C41_7 C73_7 1_555 1_555
C43_7 C93_7 1_555 1_555
C47_7 C77_7 1_555 1_555
C51_7 C59_7 1_555 1_555
C51_7 C94_7 1_555 1_555
N5_4 C75_7 1_555 1_555
C56_7 C58_7 1_555 1_555
C62_7 C70_7 1_555 1_555
C63_7 C87_7 1_555 1_555
C72_7 C87_7 1_555 1_555
C78_7 N7_7 1_555 1_555
C78_7 C81_7 1_555 1_555
C82_7 C96_7 1_555 1_555
C95_7 O15_7 1_555 1_555
C95_7 O16_7 1_555 1_555
Co4_4 O2_7 1_555 1_555
O2_7 C7_7 1_555 1_555
O3_7 C10_7 1_555 1_555
O5_7 Co4_4 1_555 1_555
O17_4 C49_7 1_555 1_555
O8_7 Co4_4 1_555 1_555
O12_7 Co4_4 1_555 1_555
C5_7 C10_7 1_555 1_555
C7_7 O8_7 1_555 1_555
N1_7 Co4_4 1_555 1_555
C8_7 H2_7 1_555 1_555
C9_7 C30_7 1_555 1_555
C10_7 O7_7 1_555 1_555
C11_7 C39_7 1_555 1_555
O18_4 C49_7 1_555 1_555
C12_7 C7_7 1_555 1_555
C14_7 C25_7 1_555 1_555
C16_7 H4_7 1_555 1_555
C17_7 C8_7 1_555 1_555
C18_7 N1_7 1_555 1_555
H5_7 C18_7 1_555 1_555
C19_7 C24_7 1_555 1_555
C20_7 H6_7 1_555 1_555
C21_7 O5_7 1_555 1_555
C22_7 C20_7 1_555 1_555
C23_7 H7_7 1_555 1_555
C24_7 H8_7 1_555 1_555
C25_7 C20_7 1_555 1_555
H9_7 C25_7 1_555 1_555
C27_7 C16_7 1_555 1_555
C30_7 C23_7 1_555 1_555
H12_7 C30_7 1_555 1_555
C36_7 C19_7 1_555 1_555
H16_7 C36_7 1_555 1_555
C39_7 H17_7 1_555 1_555
C40_7 C11_7 1_555 1_555
C42_7 C8_7 1_555 1_555
H18_7 C42_7 1_555 1_555
C49_7 C14_7 1_555 1_555
C50_7 C40_7 1_555 1_555
H25_7 C50_7 1_555 1_555
C53_7 N1_7 1_555 1_555
H28_7 C53_7 1_555 1_555
C55_7 C19_7 1_555 1_555
C57_7 C36_7 1_555 1_555
H31_7 C57_7 1_555 1_555
C60_7 C9_7 1_555 1_555
C61_7 C14_7 1_555 1_555
H33_7 C61_7 1_555 1_555
C65_7 C17_7 1_555 1_555
H37_7 C65_7 1_555 1_555
C66_7 C22_7 1_555 1_555
H38_7 C66_7 1_555 1_555
C67_7 C11_7 1_555 1_555
H39_7 C67_7 1_555 1_555
C68_7 C12_7 1_555 1_555
H40_7 C68_7 1_555 1_555
C69_7 C40_7 1_555 1_555
H41_7 C69_7 1_555 1_555
C76_7 C5_7 1_555 1_555
H47_7 C76_7 1_555 1_555
C79_7 C60_7 1_555 1_555
N8_4 C84_7 1_555 1_555
C84_7 C39_7 1_555 1_555
H56_7 C84_7 1_555 1_555
C85_7 C67_7 1_555 1_555
H57_7 C85_7 1_555 1_555
C86_7 C12_7 1_555 1_555
H58_7 C86_7 1_555 1_555
C88_7 C5_7 1_555 1_555
H59_7 C88_7 1_555 1_555
C89_7 C27_7 1_555 1_555
H60_7 C89_7 1_555 1_555
C90_7 C55_7 1_555 1_555
H61_7 C90_7 1_555 1_555
C91_7 C60_7 1_555 1_555
H62_7 C91_7 1_555 1_555
C92_7 C24_7 1_555 1_555
H63_7 C92_7 1_555 1_555
Co9_4 N8_4 1_555 1_555
N12_4 Co4_4 1_555 1_555
O12_7 C21_7 1_555 1_555
C16_7 C18_7 1_555 1_555
C17_7 C21_7 1_555 1_555
C22_7 C27_7 1_555 1_555
C42_7 C55_7 1_555 1_555
C50_7 C88_7 1_555 1_555
C53_7 C89_7 1_555 1_555
C57_7 N6_7 1_555 1_555
C61_7 C66_7 1_555 1_555
C65_7 C90_7 1_555 1_555
C68_7 C79_7 1_555 1_555
C69_7 C76_7 1_555 1_555
N6_7 C92_7 1_555 1_555
N8_4 C85_7 1_555 1_555
C86_7 C91_7 1_555 1_555
C48_7 N4_4 1_555 1_555
H24_7 C48_7 1_555 1_555
H45_7 C74_7 1_555 1_555
Co7_4 N4_4 1_555 1_555
C48_7 C74_7 1_555 1_555
O1_8 C2_8 1_555 1_555
C1_8 C2_8 1_555 1_555
C2_8 O11_8 1_555 1_555
C11_8 C39_8 1_555 1_555
C33_8 C1_8 1_555 1_555
H14_8 C33_8 1_555 1_555
C39_8 H17_8 1_555 1_555
C40_8 C11_8 1_555 1_555
H19_8 C43_8 1_555 1_555
C44_8 C1_8 1_555 1_555
H20_8 C44_8 1_555 1_555
C50_8 C40_8 1_555 1_555
H25_8 C50_8 1_555 1_555
C63_8 C44_8 1_555 1_555
H35_8 C63_8 1_555 1_555
C67_8 C11_8 1_555 1_555
H39_8 C67_8 1_555 1_555
C69_8 C40_8 1_555 1_555
C72_8 C33_8 1_555 1_555
N12_4 C84_8 1_555 1_555
C84_8 C39_8 1_555 1_555
H56_8 C84_8 1_555 1_555
C85_8 C67_8 1_555 1_555
H57_8 C85_8 1_555 1_555
C87_8 C37_8 1_555 1_555
H59_8 C88_8 1_555 1_555
C93_8 C37_8 1_555 1_555
H64_8 C93_8 1_555 1_555
C43_8 C93_8 1_555 1_555
C50_8 C88_8 1_555 1_555
C63_8 C87_8 1_555 1_555
C72_8 C87_8 1_555 1_555
N12_4 C85_8 1_555 1_555
Co1_8 O3_8 1_555 1_555
O3_8 C10_8 1_555 1_555
O5_8 Co9_4 1_555 1_555
O7_8 Co1_8 1_555 1_555
O9_8 Co1_8 1_555 1_555
O12_8 Co9_4 1_555 1_555
C4_8 C13_8 1_555 1_555
C5_8 C10_8 1_555 1_555
C6_8 H1_8 1_555 1_555
N2_8 Co1_8 1_555 1_555
O13_8 Co1_8 1_555 1_555
C8_8 H2_8 1_555 1_555
C10_8 O7_8 1_555 1_555
N9_4 C52_8 1_555 1_555
C13_8 H3_8 1_555 1_555
C17_8 C8_8 1_555 1_555
C19_8 C24_8 1_555 1_555
C21_8 O5_8 1_555 1_555
C24_8 H8_8 1_555 1_555
C28_8 H10_8 1_555 1_555
C31_8 C13_8 1_555 1_555
H13_8 C31_8 1_555 1_555
C34_8 O9_8 1_555 1_555
C36_8 C19_8 1_555 1_555
H16_8 C36_8 1_555 1_555
C41_8 C31_8 1_555 1_555
C42_8 C8_8 1_555 1_555
H18_8 C42_8 1_555 1_555
C52_8 C6_8 1_555 1_555
H27_8 C52_8 1_555 1_555
C54_8 N9_4 1_555 1_555
H29_8 C54_8 1_555 1_555
C55_8 C19_8 1_555 1_555
C57_8 C36_8 1_555 1_555
H31_8 C57_8 1_555 1_555
C62_8 C4_8 1_555 1_555
H34_8 C62_8 1_555 1_555
C65_8 C17_8 1_555 1_555
H37_8 C65_8 1_555 1_555
C70_8 C41_8 1_555 1_555
H42_8 C70_8 1_555 1_555
N6_8 Co1_8 1_555 1_555
C73_8 C6_8 1_555 1_555
C76_8 C5_8 1_555 1_555
H47_8 C76_8 1_555 1_555
C80_8 N2_8 1_555 1_555
H52_8 C80_8 1_555 1_555
C83_8 C80_8 1_555 1_555
H55_8 C83_8 1_555 1_555
C90_8 C55_8 1_555 1_555
H61_8 C90_8 1_555 1_555
C92_8 C24_8 1_555 1_555
H63_8 C92_8 1_555 1_555
O12_8 C21_8 1_555 1_555
C4_8 C34_8 1_555 1_555
O13_8 C34_8 1_555 1_555
C17_8 C21_8 1_555 1_555
C28_8 C54_8 1_555 1_555
C28_8 C73_8 1_555 1_555
C41_8 C73_8 1_555 1_555
C42_8 C55_8 1_555 1_555
C57_8 N6_8 1_555 1_555
C62_8 C70_8 1_555 1_555
C65_8 C90_8 1_555 1_555
N6_8 C92_8 1_555 1_555
C26_8 C38_8 1_555 1_555
C29_8 H11_8 1_555 1_555
C32_8 C45_8 1_555 1_555
C35_8 H15_8 1_555 1_555
C38_8 C71_8 1_555 1_555
C45_8 H21_8 1_555 1_555
C46_8 C45_8 1_555 1_555
H22_8 C46_8 1_555 1_555
H23_8 C47_8 1_555 1_555
C51_8 H26_8 1_555 1_555
N11_4 C35_8 1_555 1_555
C56_8 C35_8 1_555 1_555
H30_8 C56_8 1_555 1_555
C58_8 C29_8 1_555 1_555
C59_8 C32_8 1_555 1_555
H32_8 C59_8 1_555 1_555
C75_8 C29_8 1_555 1_555
H46_8 C75_8 1_555 1_555
C77_8 C38_8 1_555 1_555
H48_8 C77_8 1_555 1_555
C78_8 H49_8 1_555 1_555
H50_8 C96_8 1_555 1_555
N7_8 Co8_4 1_555 1_555
C81_8 C26_8 1_555 1_555
H53_8 C81_8 1_555 1_555
C82_8 C26_8 1_555 1_555
H54_8 C82_8 1_555 1_555
C94_8 C46_8 1_555 1_555
C95_8 C94_8 1_555 1_555
O15_8 Co8_4 1_555 1_555
O16_8 Co8_4 1_555 1_555
C96_8 N7_8 1_555 1_555
C32_8 C58_8 1_555 1_555
C47_8 C77_8 1_555 1_555
C51_8 C59_8 1_555 1_555
C51_8 C94_8 1_555 1_555
N11_4 C75_8 1_555 1_555
C56_8 C58_8 1_555 1_555
C78_8 N7_8 1_555 1_555
C78_8 C81_8 1_555 1_555
C82_8 C96_8 1_555 1_555
C95_8 O15_8 1_555 1_555
C95_8 O16_8 1_555 1_555
O2_8 C7_8 1_555 1_555
O4_8 C3_8 1_555 1_555
O6_4 C49_8 1_555 1_555
C3_8 O10_8 1_555 1_555
C7_8 O8_8 1_555 1_555
C9_8 C30_8 1_555 1_555
N10_4 C23_8 1_555 1_555
O14_4 C49_8 1_555 1_555
C12_8 C7_8 1_555 1_555
C14_8 C25_8 1_555 1_555
C15_8 C3_8 1_555 1_555
C16_8 H4_8 1_555 1_555
C18_8 N1_8 1_555 1_555
H5_8 C18_8 1_555 1_555
C20_8 H6_8 1_555 1_555
C22_8 C20_8 1_555 1_555
C23_8 H7_8 1_555 1_555
C25_8 C20_8 1_555 1_555
H9_8 C25_8 1_555 1_555
C27_8 C16_8 1_555 1_555
C30_8 C23_8 1_555 1_555
H12_8 C30_8 1_555 1_555
C48_8 N10_4 1_555 1_555
H24_8 C48_8 1_555 1_555
C49_8 C14_8 1_555 1_555
C53_8 N1_8 1_555 1_555
C60_8 C9_8 1_555 1_555
C61_8 C14_8 1_555 1_555
H33_8 C61_8 1_555 1_555
C64_8 C15_8 1_555 1_555
H36_8 C64_8 1_555 1_555
C66_8 C22_8 1_555 1_555
H38_8 C66_8 1_555 1_555
C68_8 C12_8 1_555 1_555
H40_8 C68_8 1_555 1_555
C74_8 C9_8 1_555 1_555
H45_8 C74_8 1_555 1_555
C79_8 C60_8 1_555 1_555
H51_8 C79_8 1_555 1_555
C86_8 C12_8 1_555 1_555
H58_8 C86_8 1_555 1_555
C89_8 C27_8 1_555 1_555
H60_8 C89_8 1_555 1_555
C91_8 C60_8 1_555 1_555
H62_8 C91_8 1_555 1_555
Co7_4 O6_4 1_555 1_555
O14_4 Co7_4 1_555 1_555
C16_8 C18_8 1_555 1_555
C22_8 C27_8 1_555 1_555
C48_8 C74_8 1_555 1_555
C53_8 C89_8 1_555 1_555
C61_8 C66_8 1_555 1_555
C68_8 C79_8 1_555 1_555
C86_8 C91_8 1_555 1_555

#END
