
###############################################################################
#
# This file contains modified crystal structure data generated from the
# MOF subset of the Cambridge Structural Database (CSD) v543 
# hosted by the Cambridge Crystallographic Data Centre (CCDC).
#
# This work is licensed under the Creative Commons
# Attribution-NonCommercial-ShareAlike 4.0 International License.
# To view a copy of this license, visit
# http://creativecommons.org/licenses/by-nc-sa/4.0/
# or send a letter to
# Creative Commons, PO Box 1866, Mountain View, CA 94042, USA.
#
# CIF created using the CSD Python API on 29 September 2022
# The structure has been converted into the P1 space group
# The structure has a 3D framework
# The original CSD entry CAYBAH01 is in the cubic crystal system
# The framework has been calculated to contain at least 10.0% void space
# The void calculation uses a probe of radius 1.32A, grid spacing 0.4
#
###############################################################################

data_CAYBAH01
_chemical_formula_moiety         '(C96 H96 Cu22 N144)n'
_symmetry_cell_setting           triclinic
_symmetry_space_group_name_H-M   'P 1'
_symmetry_Int_Tables_number      1
_space_group_name_Hall           'P 1'
loop_
_symmetry_equiv_pos_site_id
_symmetry_equiv_pos_as_xyz
1 x,y,z
_cell_length_a                   17.4416(15)
_cell_length_b                   17.4416(15)
_cell_length_c                   17.4416(15)
_cell_angle_alpha                90
_cell_angle_beta                 90
_cell_angle_gamma                90
_cell_volume                     5305.9
loop_
_atom_site_label
_atom_site_type_symbol
_atom_site_fract_x
_atom_site_fract_y
_atom_site_fract_z
_atom_site_U_iso_or_equiv
_atom_site_thermal_displace_type
C1 C 0.0977(3) 0.3758(4) 0.0977(3) 0.0470 Uiso
Cu1 Cu 0.00000 0.50000 0.00000 0.0560 Uiso
Cu2 Cu 0.125 0.625 0.125 0.0470 Uiso
N1 N 0.08042(10) 0.4489(3) 0.08042(10) 0.0660 Uiso
N2 N 0.125 0.4922(5) 0.125 0.0390 Uiso
H1 H 0.075616 0.332552 0.075616 0.0380 Uiso
C2 C 0.1523(3) 0.3758(4) 0.1523(3) 0.0470 Uiso
C3 C 0.1523(3) 0.5977(3) 0.3742(4) 0.0470 Uiso
C4 C 0.0977(3) 0.6523(3) 0.3742(4) 0.0470 Uiso
C9 C 0.3742(4) 0.6523(3) 0.0977(3) 0.0470 Uiso
C10 C 0.3742(4) 0.5977(3) 0.1523(3) 0.0470 Uiso
C11 C 0.1523(3) 0.8742(4) 0.0977(3) 0.0470 Uiso
C12 C 0.0977(3) 0.8742(4) 0.1523(3) 0.0470 Uiso
Cu3 Cu 0.25000 0.50000 0.25000 0.0560 Uiso
Cu4 Cu 0.00000 0.75000 0.25000 0.0560 Uiso
Cu5 Cu 0.25000 0.75000 0.00000 0.0560 Uiso
N3 N 0.16958(10) 0.4489(3) 0.16958(10) 0.0660 Uiso
N4 N 0.16958(10) 0.58042(10) 0.3011(3) 0.0660 Uiso
N5 N 0.08042(10) 0.66958(10) 0.3011(3) 0.0660 Uiso
N10 N 0.3011(3) 0.66958(10) 0.08042(10) 0.0660 Uiso
N11 N 0.3011(3) 0.58042(10) 0.16958(10) 0.0660 Uiso
N12 N 0.16958(10) 0.8011(3) 0.08042(10) 0.0660 Uiso
N13 N 0.08042(10) 0.8011(3) 0.16958(10) 0.0660 Uiso
N17 N 0.33042(10) 0.5511(3) 0.33042(10) 0.0660 Uiso
N18 N 0.33042(10) 0.41958(10) 0.1989(3) 0.0660 Uiso
N19 N 0.1989(3) 0.41958(10) 0.33042(10) 0.0660 Uiso
N20 N 0.125 0.625 0.2578(5) 0.0390 Uiso
N23 N 0.2578(5) 0.625 0.125 0.0390 Uiso
N24 N 0.125 0.7578(5) 0.125 0.0390 Uiso
H2 H 0.174384 0.332552 0.174384 0.0380 Uiso
H3 H 0.174384 0.575616 0.417448 0.0380 Uiso
H4 H 0.075616 0.674384 0.417448 0.0380 Uiso
H9 H 0.417448 0.674384 0.075616 0.0380 Uiso
H10 H 0.417448 0.575616 0.174384 0.0380 Uiso
H11 H 0.174384 0.917448 0.075616 0.0380 Uiso
H12 H 0.075616 0.917448 0.174384 0.0380 Uiso
Cu1_2 Cu 0.00000 0.50000 1.00000 0.0560 Uiso
C7 C 0.0977(3) 0.5977(3) 0.8758(4) 0.0470 Uiso
C8 C 0.1523(3) 0.6523(3) 0.8758(4) 0.0470 Uiso
Cu5_2 Cu 0.25000 0.75000 1.00000 0.0560 Uiso
N8 N 0.08042(10) 0.58042(10) 0.9489(3) 0.0660 Uiso
N9 N 0.16958(10) 0.66958(10) 0.9489(3) 0.0660 Uiso
N16 N 0.0511(3) 0.41958(10) 0.91958(10) 0.0660 Uiso
N22 N 0.125 0.625 0.9922(5) 0.0390 Uiso
H7 H 0.075616 0.575616 0.832552 0.0380 Uiso
H8 H 0.174384 0.674384 0.832552 0.0380 Uiso
Cu1_3 Cu 1.00000 0.50000 0.00000 0.0560 Uiso
C5 C 0.8758(4) 0.6523(3) 0.1523(3) 0.0470 Uiso
C6 C 0.8758(4) 0.5977(3) 0.0977(3) 0.0470 Uiso
Cu4_2 Cu 1.00000 0.75000 0.25000 0.0560 Uiso
N6 N 0.9489(3) 0.66958(10) 0.16958(10) 0.0660 Uiso
N7 N 0.9489(3) 0.58042(10) 0.08042(10) 0.0660 Uiso
N15 N 0.91958(10) 0.41958(10) 0.0511(3) 0.0660 Uiso
N21 N 0.9922(5) 0.625 0.125 0.0390 Uiso
H5 H 0.832552 0.674384 0.174384 0.0380 Uiso
H6 H 0.832552 0.575616 0.075616 0.0380 Uiso
Cu1_4 Cu 1.00000 0.50000 1.00000 0.0560 Uiso
N14 N 0.91958(10) 0.5511(3) 0.91958(10) 0.0660 Uiso
C1_2 C 0.6523(3) 0.8742(4) 0.5977(3) 0.0470 Uiso
Cu1_5 Cu 0.75000 0.75000 0.50000 0.0560 Uiso
Cu2_2 Cu 0.625 0.625 0.625 0.0470 Uiso
N1_2 N 0.66958(10) 0.8011(3) 0.58042(10) 0.0660 Uiso
N2_2 N 0.625 0.7578(5) 0.625 0.0390 Uiso
H1_2 H 0.674384 0.917448 0.575616 0.0380 Uiso
C2_2 C 0.5977(3) 0.8742(4) 0.6523(3) 0.0470 Uiso
C3_2 C 0.5977(3) 0.6523(3) 0.8742(4) 0.0470 Uiso
C4_2 C 0.6523(3) 0.5977(3) 0.8742(4) 0.0470 Uiso
C5_2 C 0.8742(4) 0.5977(3) 0.6523(3) 0.0470 Uiso
C6_2 C 0.8742(4) 0.6523(3) 0.5977(3) 0.0470 Uiso
C7_2 C 0.6523(3) 0.6523(3) 0.3758(4) 0.0470 Uiso
C8_2 C 0.5977(3) 0.5977(3) 0.3758(4) 0.0470 Uiso
C9_2 C 0.3758(4) 0.5977(3) 0.5977(3) 0.0470 Uiso
C10_2 C 0.3758(4) 0.6523(3) 0.6523(3) 0.0470 Uiso
C11_2 C 0.5977(3) 0.3758(4) 0.5977(3) 0.0470 Uiso
C12_2 C 0.6523(3) 0.3758(4) 0.6523(3) 0.0470 Uiso
Cu3_2 Cu 0.50000 0.75000 0.75000 0.0560 Uiso
Cu4_3 Cu 0.75000 0.50000 0.75000 0.0560 Uiso
Cu5_3 Cu 0.50000 0.50000 0.50000 0.0560 Uiso
N3_2 N 0.58042(10) 0.8011(3) 0.66958(10) 0.0660 Uiso
N4_2 N 0.58042(10) 0.66958(10) 0.8011(3) 0.0660 Uiso
N5_2 N 0.66958(10) 0.58042(10) 0.8011(3) 0.0660 Uiso
N6_2 N 0.8011(3) 0.58042(10) 0.66958(10) 0.0660 Uiso
N7_2 N 0.8011(3) 0.66958(10) 0.58042(10) 0.0660 Uiso
N8_2 N 0.66958(10) 0.66958(10) 0.4489(3) 0.0660 Uiso
N9_2 N 0.58042(10) 0.58042(10) 0.4489(3) 0.0660 Uiso
N10_2 N 0.4489(3) 0.58042(10) 0.58042(10) 0.0660 Uiso
N11_2 N 0.4489(3) 0.66958(10) 0.66958(10) 0.0660 Uiso
N12_2 N 0.58042(10) 0.4489(3) 0.58042(10) 0.0660 Uiso
N13_2 N 0.66958(10) 0.4489(3) 0.66958(10) 0.0660 Uiso
N14_2 N 0.83042(10) 0.6989(3) 0.41958(10) 0.0660 Uiso
N15_2 N 0.83042(10) 0.83042(10) 0.5511(3) 0.0660 Uiso
N16_2 N 0.6989(3) 0.83042(10) 0.41958(10) 0.0660 Uiso
N17_2 N 0.41958(10) 0.6989(3) 0.83042(10) 0.0660 Uiso
N18_2 N 0.41958(10) 0.83042(10) 0.6989(3) 0.0660 Uiso
N19_2 N 0.5511(3) 0.83042(10) 0.83042(10) 0.0660 Uiso
N20_2 N 0.625 0.625 0.7578(5) 0.0390 Uiso
N21_2 N 0.7578(5) 0.625 0.625 0.0390 Uiso
N22_2 N 0.625 0.625 0.4922(5) 0.0390 Uiso
N23_2 N 0.4922(5) 0.625 0.625 0.0390 Uiso
N24_2 N 0.625 0.4922(5) 0.625 0.0390 Uiso
H2_2 H 0.575616 0.917448 0.674384 0.0380 Uiso
H3_2 H 0.575616 0.674384 0.917448 0.0380 Uiso
H4_2 H 0.674384 0.575616 0.917448 0.0380 Uiso
H5_2 H 0.917448 0.575616 0.674384 0.0380 Uiso
H6_2 H 0.917448 0.674384 0.575616 0.0380 Uiso
H7_2 H 0.674384 0.674384 0.332552 0.0380 Uiso
H8_2 H 0.575616 0.575616 0.332552 0.0380 Uiso
H9_2 H 0.332552 0.575616 0.575616 0.0380 Uiso
H10_2 H 0.332552 0.674384 0.674384 0.0380 Uiso
H11_2 H 0.575616 0.332552 0.575616 0.0380 Uiso
H12_2 H 0.674384 0.332552 0.674384 0.0380 Uiso
Cu1_6 Cu 0.25000 0.00000 0.75000 0.0560 Uiso
Cu2_3 Cu 0.125 0.125 0.625 0.0470 Uiso
C3_3 C 0.0977(3) 0.0977(3) 0.3758(4) 0.0470 Uiso
C4_3 C 0.1523(3) 0.1523(3) 0.3758(4) 0.0470 Uiso
C5_3 C 0.3742(4) 0.1523(3) 0.5977(3) 0.0470 Uiso
C6_3 C 0.3742(4) 0.0977(3) 0.6523(3) 0.0470 Uiso
C7_3 C 0.1523(3) 0.0977(3) 0.8742(4) 0.0470 Uiso
C8_3 C 0.0977(3) 0.1523(3) 0.8742(4) 0.0470 Uiso
C11_3 C 0.0977(3) 0.3742(4) 0.6523(3) 0.0470 Uiso
C12_3 C 0.1523(3) 0.3742(4) 0.5977(3) 0.0470 Uiso
Cu3_3 Cu 0.00000 0.00000 0.50000 0.0560 Uiso
Cu4_4 Cu 0.25000 0.25000 0.50000 0.0560 Uiso
Cu5_4 Cu 0.00000 0.25000 0.75000 0.0560 Uiso
N4_3 N 0.08042(10) 0.08042(10) 0.4489(3) 0.0660 Uiso
N5_3 N 0.16958(10) 0.16958(10) 0.4489(3) 0.0660 Uiso
N6_3 N 0.3011(3) 0.16958(10) 0.58042(10) 0.0660 Uiso
N7_3 N 0.3011(3) 0.08042(10) 0.66958(10) 0.0660 Uiso
N8_3 N 0.16958(10) 0.08042(10) 0.8011(3) 0.0660 Uiso
N9_3 N 0.08042(10) 0.16958(10) 0.8011(3) 0.0660 Uiso
N12_3 N 0.08042(10) 0.3011(3) 0.66958(10) 0.0660 Uiso
N13_3 N 0.16958(10) 0.3011(3) 0.58042(10) 0.0660 Uiso
N14_3 N 0.33042(10) 0.0511(3) 0.83042(10) 0.0660 Uiso
N20_3 N 0.125 0.125 0.4922(5) 0.0390 Uiso
N21_3 N 0.2578(5) 0.125 0.625 0.0390 Uiso
N22_3 N 0.125 0.125 0.7578(5) 0.0390 Uiso
N24_3 N 0.125 0.2578(5) 0.625 0.0390 Uiso
H3_3 H 0.075616 0.075616 0.332552 0.0380 Uiso
H4_3 H 0.174384 0.174384 0.332552 0.0380 Uiso
H5_3 H 0.417448 0.174384 0.575616 0.0380 Uiso
H6_3 H 0.417448 0.075616 0.674384 0.0380 Uiso
H7_3 H 0.174384 0.075616 0.917448 0.0380 Uiso
H8_3 H 0.075616 0.174384 0.917448 0.0380 Uiso
H11_3 H 0.075616 0.417448 0.674384 0.0380 Uiso
H12_3 H 0.174384 0.417448 0.575616 0.0380 Uiso
C1_3 C 0.1523(3) 0.8758(4) 0.6523(3) 0.0470 Uiso
Cu1_7 Cu 0.25000 1.00000 0.75000 0.0560 Uiso
N1_3 N 0.16958(10) 0.9489(3) 0.66958(10) 0.0660 Uiso
N2_3 N 0.125 0.9922(5) 0.625 0.0390 Uiso
H1_3 H 0.174384 0.832552 0.674384 0.0380 Uiso
C2_3 C 0.0977(3) 0.8758(4) 0.5977(3) 0.0470 Uiso
Cu3_4 Cu 0.00000 1.00000 0.50000 0.0560 Uiso
N3_3 N 0.08042(10) 0.9489(3) 0.58042(10) 0.0660 Uiso
N15_3 N 0.33042(10) 0.91958(10) 0.6989(3) 0.0660 Uiso
N16_3 N 0.1989(3) 0.91958(10) 0.83042(10) 0.0660 Uiso
N19_3 N 0.0511(3) 0.91958(10) 0.41958(10) 0.0660 Uiso
H2_3 H 0.075616 0.832552 0.575616 0.0380 Uiso
C9_3 C 0.8758(4) 0.1523(3) 0.6523(3) 0.0470 Uiso
C10_3 C 0.8758(4) 0.0977(3) 0.5977(3) 0.0470 Uiso
Cu3_5 Cu 1.00000 0.00000 0.50000 0.0560 Uiso
Cu5_5 Cu 1.00000 0.25000 0.75000 0.0560 Uiso
N10_3 N 0.9489(3) 0.16958(10) 0.66958(10) 0.0660 Uiso
N11_3 N 0.9489(3) 0.08042(10) 0.58042(10) 0.0660 Uiso
N17_3 N 0.91958(10) 0.0511(3) 0.41958(10) 0.0660 Uiso
N23_3 N 0.9922(5) 0.125 0.625 0.0390 Uiso
H9_3 H 0.832552 0.174384 0.674384 0.0380 Uiso
H10_3 H 0.832552 0.075616 0.575616 0.0380 Uiso
Cu3_6 Cu 1.00000 1.00000 0.50000 0.0560 Uiso
N18_3 N 0.91958(10) 0.91958(10) 0.5511(3) 0.0660 Uiso
C1_4 C 0.5977(3) 0.3742(4) 0.1523(3) 0.0470 Uiso
Cu1_8 Cu 0.50000 0.25000 0.25000 0.0560 Uiso
Cu2_4 Cu 0.625 0.125 0.125 0.0470 Uiso
N1_4 N 0.58042(10) 0.3011(3) 0.16958(10) 0.0660 Uiso
N2_4 N 0.625 0.2578(5) 0.125 0.0390 Uiso
H1_4 H 0.575616 0.417448 0.174384 0.0380 Uiso
C2_4 C 0.6523(3) 0.3742(4) 0.0977(3) 0.0470 Uiso
C5_4 C 0.3758(4) 0.0977(3) 0.0977(3) 0.0470 Uiso
C6_4 C 0.3758(4) 0.1523(3) 0.1523(3) 0.0470 Uiso
C7_4 C 0.5977(3) 0.1523(3) 0.3742(4) 0.0470 Uiso
C8_4 C 0.6523(3) 0.0977(3) 0.3742(4) 0.0470 Uiso
C9_4 C 0.8742(4) 0.0977(3) 0.1523(3) 0.0470 Uiso
C10_4 C 0.8742(4) 0.1523(3) 0.0977(3) 0.0470 Uiso
Cu3_7 Cu 0.75000 0.25000 0.00000 0.0560 Uiso
Cu4_5 Cu 0.50000 -0.00000 0.00000 0.0560 Uiso
Cu5_6 Cu 0.75000 -0.00000 0.25000 0.0560 Uiso
N3_4 N 0.66958(10) 0.3011(3) 0.08042(10) 0.0660 Uiso
N6_4 N 0.4489(3) 0.08042(10) 0.08042(10) 0.0660 Uiso
N7_4 N 0.4489(3) 0.16958(10) 0.16958(10) 0.0660 Uiso
N8_4 N 0.58042(10) 0.16958(10) 0.3011(3) 0.0660 Uiso
N9_4 N 0.66958(10) 0.08042(10) 0.3011(3) 0.0660 Uiso
N10_4 N 0.8011(3) 0.08042(10) 0.16958(10) 0.0660 Uiso
N11_4 N 0.8011(3) 0.16958(10) 0.08042(10) 0.0660 Uiso
N14_4 N 0.41958(10) 0.1989(3) 0.33042(10) 0.0660 Uiso
N15_4 N 0.41958(10) 0.33042(10) 0.1989(3) 0.0660 Uiso
N16_4 N 0.5511(3) 0.33042(10) 0.33042(10) 0.0660 Uiso
N18_4 N 0.83042(10) 0.33042(10) 0.0511(3) 0.0660 Uiso
N21_4 N 0.4922(5) 0.125 0.125 0.0390 Uiso
N22_4 N 0.625 0.125 0.2578(5) 0.0390 Uiso
N23_4 N 0.7578(5) 0.125 0.125 0.0390 Uiso
H2_4 H 0.674384 0.417448 0.075616 0.0380 Uiso
H5_4 H 0.332552 0.075616 0.075616 0.0380 Uiso
H6_4 H 0.332552 0.174384 0.174384 0.0380 Uiso
H7_4 H 0.575616 0.174384 0.417448 0.0380 Uiso
H8_4 H 0.674384 0.075616 0.417448 0.0380 Uiso
H9_4 H 0.917448 0.075616 0.174384 0.0380 Uiso
H10_4 H 0.917448 0.174384 0.075616 0.0380 Uiso
C3_4 C 0.6523(3) 0.1523(3) 0.8758(4) 0.0470 Uiso
C4_4 C 0.5977(3) 0.0977(3) 0.8758(4) 0.0470 Uiso
Cu3_8 Cu 0.75000 0.25000 1.00000 0.0560 Uiso
Cu4_6 Cu 0.50000 -0.00000 1.00000 0.0560 Uiso
N4_4 N 0.66958(10) 0.16958(10) 0.9489(3) 0.0660 Uiso
N5_4 N 0.58042(10) 0.08042(10) 0.9489(3) 0.0660 Uiso
N17_4 N 0.83042(10) 0.1989(3) 0.91958(10) 0.0660 Uiso
N19_4 N 0.6989(3) 0.33042(10) 0.91958(10) 0.0660 Uiso
N20_4 N 0.625 0.125 0.9922(5) 0.0390 Uiso
H3_4 H 0.674384 0.174384 0.832552 0.0380 Uiso
H4_4 H 0.575616 0.075616 0.832552 0.0380 Uiso
C11_4 C 0.6523(3) 0.8758(4) 0.1523(3) 0.0470 Uiso
C12_4 C 0.5977(3) 0.8758(4) 0.0977(3) 0.0470 Uiso
Cu4_7 Cu 0.50000 1.00000 0.00000 0.0560 Uiso
Cu5_7 Cu 0.75000 1.00000 0.25000 0.0560 Uiso
N12_4 N 0.66958(10) 0.9489(3) 0.16958(10) 0.0660 Uiso
N13_4 N 0.58042(10) 0.9489(3) 0.08042(10) 0.0660 Uiso
N24_4 N 0.625 0.9922(5) 0.125 0.0390 Uiso
H11_4 H 0.674384 0.832552 0.174384 0.0380 Uiso
H12_4 H 0.575616 0.832552 0.075616 0.0380 Uiso
Cu4_8 Cu 0.50000 1.00000 1.00000 0.0560 Uiso
N17_5 N 0.33042(10) 0.33042(10) 0.5511(3) 0.0660 Uiso
N18_5 N 0.1989(3) 0.33042(10) 0.41958(10) 0.0660 Uiso
N19_5 N 0.33042(10) 0.1989(3) 0.41958(10) 0.0660 Uiso
N17_6 N 0.83042(10) 0.41958(10) 0.6989(3) 0.0660 Uiso
N18_6 N 0.6989(3) 0.41958(10) 0.83042(10) 0.0660 Uiso
N19_6 N 0.83042(10) 0.5511(3) 0.83042(10) 0.0660 Uiso
N19_7 N 0.41958(10) 0.0511(3) 0.91958(10) 0.0660 Uiso
N17_7 N 0.41958(10) 0.91958(10) 0.0511(3) 0.0660 Uiso
N18_7 N 0.5511(3) 0.91958(10) 0.91958(10) 0.0660 Uiso
N18_8 N 0.0511(3) 0.83042(10) 0.33042(10) 0.0660 Uiso
N17_8 N 0.91958(10) 0.83042(10) 0.1989(3) 0.0660 Uiso
N19_8 N 0.91958(10) 0.6989(3) 0.33042(10) 0.0660 Uiso
C1_5 C 0.1258(4) 0.3477(3) 0.4023(3) 0.0470 Uiso
Cu2_5 Cu 0.375 0.375 0.375 0.0470 Uiso
N2_5 N 0.2422(5) 0.375 0.375 0.0390 Uiso
H1_5 H 0.082552 0.325616 0.424384 0.0380 Uiso
C2_5 C 0.1258(4) 0.4023(3) 0.3477(3) 0.0470 Uiso
C3_5 C 0.3477(3) 0.4023(3) 0.1258(4) 0.0470 Uiso
C4_5 C 0.4023(3) 0.3477(3) 0.1258(4) 0.0470 Uiso
C5_5 C 0.4023(3) 0.1258(4) 0.3477(3) 0.0470 Uiso
C6_5 C 0.3477(3) 0.1258(4) 0.4023(3) 0.0470 Uiso
C7_5 C 0.3477(3) 0.3477(3) 0.6242(4) 0.0470 Uiso
C8_5 C 0.4023(3) 0.4023(3) 0.6242(4) 0.0470 Uiso
C9_5 C 0.4023(3) 0.6242(4) 0.4023(3) 0.0470 Uiso
C10_5 C 0.3477(3) 0.6242(4) 0.3477(3) 0.0470 Uiso
C11_5 C 0.6242(4) 0.4023(3) 0.4023(3) 0.0470 Uiso
C12_5 C 0.6242(4) 0.3477(3) 0.3477(3) 0.0470 Uiso
N9_5 N 0.41958(10) 0.41958(10) 0.5511(3) 0.0660 Uiso
N10_5 N 0.41958(10) 0.5511(3) 0.41958(10) 0.0660 Uiso
N12_5 N 0.5511(3) 0.41958(10) 0.41958(10) 0.0660 Uiso
N20_5 N 0.375 0.375 0.2422(5) 0.0390 Uiso
N21_5 N 0.375 0.2422(5) 0.375 0.0390 Uiso
N22_5 N 0.375 0.375 0.5078(5) 0.0390 Uiso
N23_5 N 0.375 0.5078(5) 0.375 0.0390 Uiso
N24_5 N 0.5078(5) 0.375 0.375 0.0390 Uiso
H2_5 H 0.082552 0.424384 0.325616 0.0380 Uiso
H3_5 H 0.325616 0.424384 0.082552 0.0380 Uiso
H4_5 H 0.424384 0.325616 0.082552 0.0380 Uiso
H5_5 H 0.424384 0.082552 0.325616 0.0380 Uiso
H6_5 H 0.325616 0.082552 0.424384 0.0380 Uiso
H7_5 H 0.325616 0.325616 0.667448 0.0380 Uiso
H8_5 H 0.424384 0.424384 0.667448 0.0380 Uiso
H9_5 H 0.424384 0.667448 0.424384 0.0380 Uiso
H10_5 H 0.325616 0.667448 0.325616 0.0380 Uiso
H11_5 H 0.667448 0.424384 0.424384 0.0380 Uiso
H12_5 H 0.667448 0.325616 0.325616 0.0380 Uiso
C5_6 C 0.3477(3) 0.1242(4) 0.8477(3) 0.0470 Uiso
C6_6 C 0.4023(3) 0.1242(4) 0.9023(3) 0.0470 Uiso
N21_6 N 0.375 0.0078(5) 0.875 0.0390 Uiso
H5_6 H 0.325616 0.167448 0.825616 0.0380 Uiso
H6_6 H 0.424384 0.167448 0.924384 0.0380 Uiso
C7_6 C 0.4023(3) 0.9023(3) 0.1242(4) 0.0470 Uiso
C8_6 C 0.3477(3) 0.8477(3) 0.1242(4) 0.0470 Uiso
N9_6 N 0.33042(10) 0.83042(10) 0.0511(3) 0.0660 Uiso
N22_6 N 0.375 0.875 0.0078(5) 0.0390 Uiso
H7_6 H 0.424384 0.924384 0.167448 0.0380 Uiso
H8_6 H 0.325616 0.825616 0.167448 0.0380 Uiso
C1_6 C 0.6242(4) 0.9023(3) 0.9023(3) 0.0470 Uiso
Cu2_6 Cu 0.375 0.875 0.875 0.0470 Uiso
N2_6 N 0.5078(5) 0.875 0.875 0.0390 Uiso
H1_6 H 0.667448 0.924384 0.924384 0.0380 Uiso
C2_6 C 0.6242(4) 0.8477(3) 0.8477(3) 0.0470 Uiso
C3_6 C 0.4023(3) 0.8477(3) 0.6258(4) 0.0470 Uiso
C4_6 C 0.3477(3) 0.9023(3) 0.6258(4) 0.0470 Uiso
C9_6 C 0.3477(3) 0.6258(4) 0.9023(3) 0.0470 Uiso
C10_6 C 0.4023(3) 0.6258(4) 0.8477(3) 0.0470 Uiso
C11_6 C 0.1258(4) 0.8477(3) 0.9023(3) 0.0470 Uiso
C12_6 C 0.1258(4) 0.9023(3) 0.8477(3) 0.0470 Uiso
N10_6 N 0.33042(10) 0.6989(3) 0.91958(10) 0.0660 Uiso
N12_6 N 0.1989(3) 0.83042(10) 0.91958(10) 0.0660 Uiso
N20_6 N 0.375 0.875 0.7422(5) 0.0390 Uiso
N23_6 N 0.375 0.7422(5) 0.875 0.0390 Uiso
N24_6 N 0.2422(5) 0.875 0.875 0.0390 Uiso
H2_6 H 0.667448 0.825616 0.825616 0.0380 Uiso
H3_6 H 0.424384 0.825616 0.582552 0.0380 Uiso
H4_6 H 0.325616 0.924384 0.582552 0.0380 Uiso
H9_6 H 0.325616 0.582552 0.924384 0.0380 Uiso
H10_6 H 0.424384 0.582552 0.825616 0.0380 Uiso
H11_6 H 0.082552 0.825616 0.924384 0.0380 Uiso
H12_6 H 0.082552 0.924384 0.825616 0.0380 Uiso
C11_7 C 0.1242(4) 0.3477(3) 0.8477(3) 0.0470 Uiso
C12_7 C 0.1242(4) 0.4023(3) 0.9023(3) 0.0470 Uiso
N12_7 N 0.0511(3) 0.33042(10) 0.83042(10) 0.0660 Uiso
N24_7 N 0.0078(5) 0.375 0.875 0.0390 Uiso
H11_7 H 0.167448 0.325616 0.825616 0.0380 Uiso
H12_7 H 0.167448 0.424384 0.924384 0.0380 Uiso
C3_7 C 0.8477(3) 0.3477(3) 0.1242(4) 0.0470 Uiso
C4_7 C 0.9023(3) 0.4023(3) 0.1242(4) 0.0470 Uiso
N20_7 N 0.875 0.375 0.0078(5) 0.0390 Uiso
H3_7 H 0.825616 0.325616 0.167448 0.0380 Uiso
H4_7 H 0.924384 0.424384 0.167448 0.0380 Uiso
C1_7 C 0.6258(4) 0.4023(3) 0.8477(3) 0.0470 Uiso
Cu2_7 Cu 0.875 0.375 0.875 0.0470 Uiso
N2_7 N 0.7422(5) 0.375 0.875 0.0390 Uiso
H1_7 H 0.582552 0.424384 0.825616 0.0380 Uiso
C2_7 C 0.6258(4) 0.3477(3) 0.9023(3) 0.0470 Uiso
C5_7 C 0.9023(3) 0.6242(4) 0.9023(3) 0.0470 Uiso
C6_7 C 0.8477(3) 0.6242(4) 0.8477(3) 0.0470 Uiso
C7_7 C 0.8477(3) 0.4023(3) 0.6258(4) 0.0470 Uiso
C8_7 C 0.9023(3) 0.3477(3) 0.6258(4) 0.0470 Uiso
C9_7 C 0.9023(3) 0.1258(4) 0.8477(3) 0.0470 Uiso
C10_7 C 0.8477(3) 0.1258(4) 0.9023(3) 0.0470 Uiso
N9_7 N 0.91958(10) 0.33042(10) 0.6989(3) 0.0660 Uiso
N10_7 N 0.91958(10) 0.1989(3) 0.83042(10) 0.0660 Uiso
N21_7 N 0.875 0.5078(5) 0.875 0.0390 Uiso
N22_7 N 0.875 0.375 0.7422(5) 0.0390 Uiso
N23_7 N 0.875 0.2422(5) 0.875 0.0390 Uiso
H2_7 H 0.582552 0.325616 0.924384 0.0380 Uiso
H5_7 H 0.924384 0.667448 0.924384 0.0380 Uiso
H6_7 H 0.825616 0.667448 0.825616 0.0380 Uiso
H7_7 H 0.825616 0.424384 0.582552 0.0380 Uiso
H8_7 H 0.924384 0.325616 0.582552 0.0380 Uiso
H9_7 H 0.924384 0.082552 0.825616 0.0380 Uiso
H10_7 H 0.825616 0.082552 0.924384 0.0380 Uiso
C1_8 C 0.1242(4) 0.8477(3) 0.3477(3) 0.0470 Uiso
N2_8 N 0.0078(5) 0.875 0.375 0.0390 Uiso
H1_8 H 0.167448 0.825616 0.325616 0.0380 Uiso
C2_8 C 0.1242(4) 0.9023(3) 0.4023(3) 0.0470 Uiso
H2_8 H 0.167448 0.924384 0.424384 0.0380 Uiso
C9_8 C 0.8477(3) 0.1242(4) 0.3477(3) 0.0470 Uiso
C10_8 C 0.9023(3) 0.1242(4) 0.4023(3) 0.0470 Uiso
N10_8 N 0.83042(10) 0.0511(3) 0.33042(10) 0.0660 Uiso
N23_8 N 0.875 0.0078(5) 0.375 0.0390 Uiso
H9_8 H 0.825616 0.167448 0.325616 0.0380 Uiso
H10_8 H 0.924384 0.167448 0.424384 0.0380 Uiso
Cu2_8 Cu 0.875 0.875 0.375 0.0470 Uiso
C3_8 C 0.9023(3) 0.9023(3) 0.6242(4) 0.0470 Uiso
C4_8 C 0.8477(3) 0.8477(3) 0.6242(4) 0.0470 Uiso
C5_8 C 0.8477(3) 0.6258(4) 0.4023(3) 0.0470 Uiso
C6_8 C 0.9023(3) 0.6258(4) 0.3477(3) 0.0470 Uiso
C7_8 C 0.9023(3) 0.8477(3) 0.1258(4) 0.0470 Uiso
C8_8 C 0.8477(3) 0.9023(3) 0.1258(4) 0.0470 Uiso
C11_8 C 0.6258(4) 0.9023(3) 0.3477(3) 0.0470 Uiso
C12_8 C 0.6258(4) 0.8477(3) 0.4023(3) 0.0470 Uiso
N9_8 N 0.83042(10) 0.91958(10) 0.1989(3) 0.0660 Uiso
N12_8 N 0.6989(3) 0.91958(10) 0.33042(10) 0.0660 Uiso
N20_8 N 0.875 0.875 0.5078(5) 0.0390 Uiso
N21_8 N 0.875 0.7422(5) 0.375 0.0390 Uiso
N22_8 N 0.875 0.875 0.2422(5) 0.0390 Uiso
N24_8 N 0.7422(5) 0.875 0.375 0.0390 Uiso
H3_8 H 0.924384 0.924384 0.667448 0.0380 Uiso
H4_8 H 0.825616 0.825616 0.667448 0.0380 Uiso
H5_8 H 0.825616 0.582552 0.424384 0.0380 Uiso
H6_8 H 0.924384 0.582552 0.325616 0.0380 Uiso
H7_8 H 0.924384 0.825616 0.082552 0.0380 Uiso
H8_8 H 0.825616 0.924384 0.082552 0.0380 Uiso
H11_8 H 0.582552 0.924384 0.325616 0.0380 Uiso
H12_8 H 0.582552 0.825616 0.424384 0.0380 Uiso
loop_
_geom_bond_atom_site_label_1
_geom_bond_atom_site_label_2
_geom_bond_site_symmetry_1
_geom_bond_site_symmetry_2
C1 N1 1_555 1_555
Cu1 N1 1_555 1_555
Cu2 N2 1_555 1_555
N1 N2 1_555 1_555
N2 N3 1_555 1_555
H1 C1 1_555 1_555
C2 C1 1_555 1_555
C3 C4 1_555 1_555
C4 N5 1_555 1_555
C9 C10 1_555 1_555
C10 N11 1_555 1_555
C11 C12 1_555 1_555
C12 N13 1_555 1_555
Cu3 N3 1_555 1_555
Cu4 N5 1_555 1_555
N3 C2 1_555 1_555
N4 C3 1_555 1_555
N5 N20 1_555 1_555
N10 C9 1_555 1_555
N11 Cu3 1_555 1_555
N12 C11 1_555 1_555
N13 Cu4 1_555 1_555
N17 Cu3 1_555 1_555
N18 Cu3 1_555 1_555
N19 Cu3 1_555 1_555
N20 Cu2 1_555 1_555
N23 Cu2 1_555 1_555
N24 Cu2 1_555 1_555
H2 C2 1_555 1_555
H3 C3 1_555 1_555
H4 C4 1_555 1_555
H9 C9 1_555 1_555
H10 C10 1_555 1_555
H11 C11 1_555 1_555
H12 C12 1_555 1_555
Cu3 N4 1_555 1_555
Cu5 N10 1_555 1_555
Cu5 N12 1_555 1_555
N4 N20 1_555 1_555
N10 N23 1_555 1_555
N11 N23 1_555 1_555
N12 N24 1_555 1_555
N13 N24 1_555 1_555
C7 C8 1_555 1_555
C8 N9 1_555 1_555
Cu5_2 N9 1_555 1_555
N8 Cu1_2 1_555 1_555
N9 N22 1_555 1_555
N16 Cu1_2 1_555 1_555
H7 C7 1_555 1_555
H8 C8 1_555 1_555
C7 N8 1_555 1_555
N8 N22 1_555 1_555
C5 C6 1_555 1_555
C6 N7 1_555 1_555
N6 C5 1_555 1_555
N7 Cu1_3 1_555 1_555
N15 Cu1_3 1_555 1_555
H5 C5 1_555 1_555
H6 C6 1_555 1_555
Cu4_2 N6 1_555 1_555
N6 N21 1_555 1_555
N7 N21 1_555 1_555
N14 Cu1_4 1_555 1_555
C1_2 N1_2 1_555 1_555
Cu1_5 N1_2 1_555 1_555
Cu2_2 N2_2 1_555 1_555
N1_2 N2_2 1_555 1_555
N2_2 N3_2 1_555 1_555
H1_2 C1_2 1_555 1_555
C2_2 C1_2 1_555 1_555
C3_2 C4_2 1_555 1_555
C4_2 N5_2 1_555 1_555
C5_2 C6_2 1_555 1_555
C6_2 N7_2 1_555 1_555
C7_2 C8_2 1_555 1_555
C8_2 N9_2 1_555 1_555
C9_2 C10_2 1_555 1_555
C10_2 N11_2 1_555 1_555
C11_2 C12_2 1_555 1_555
C12_2 N13_2 1_555 1_555
Cu3_2 N3_2 1_555 1_555
Cu4_3 N5_2 1_555 1_555
Cu5_3 N9_2 1_555 1_555
N3_2 C2_2 1_555 1_555
N4_2 C3_2 1_555 1_555
N5_2 N20_2 1_555 1_555
N6_2 C5_2 1_555 1_555
N7_2 Cu1_5 1_555 1_555
N8_2 Cu1_5 1_555 1_555
N9_2 N22_2 1_555 1_555
N10_2 C9_2 1_555 1_555
N11_2 Cu3_2 1_555 1_555
N12_2 C11_2 1_555 1_555
N13_2 Cu4_3 1_555 1_555
N14_2 Cu1_5 1_555 1_555
N15_2 Cu1_5 1_555 1_555
N16_2 Cu1_5 1_555 1_555
N17_2 Cu3_2 1_555 1_555
N18_2 Cu3_2 1_555 1_555
N19_2 Cu3_2 1_555 1_555
N20_2 Cu2_2 1_555 1_555
N21_2 Cu2_2 1_555 1_555
N22_2 Cu2_2 1_555 1_555
N23_2 Cu2_2 1_555 1_555
N24_2 Cu2_2 1_555 1_555
H2_2 C2_2 1_555 1_555
H3_2 C3_2 1_555 1_555
H4_2 C4_2 1_555 1_555
H5_2 C5_2 1_555 1_555
H6_2 C6_2 1_555 1_555
H7_2 C7_2 1_555 1_555
H8_2 C8_2 1_555 1_555
H9_2 C9_2 1_555 1_555
H10_2 C10_2 1_555 1_555
H11_2 C11_2 1_555 1_555
H12_2 C12_2 1_555 1_555
C7_2 N8_2 1_555 1_555
Cu3_2 N4_2 1_555 1_555
Cu4_3 N6_2 1_555 1_555
Cu5_3 N10_2 1_555 1_555
Cu5_3 N12_2 1_555 1_555
N4_2 N20_2 1_555 1_555
N6_2 N21_2 1_555 1_555
N7_2 N21_2 1_555 1_555
N8_2 N22_2 1_555 1_555
N10_2 N23_2 1_555 1_555
N11_2 N23_2 1_555 1_555
N12_2 N24_2 1_555 1_555
N13_2 N24_2 1_555 1_555
C3_3 C4_3 1_555 1_555
C4_3 N5_3 1_555 1_555
C5_3 C6_3 1_555 1_555
C6_3 N7_3 1_555 1_555
C7_3 C8_3 1_555 1_555
C8_3 N9_3 1_555 1_555
C11_3 C12_3 1_555 1_555
C12_3 N13_3 1_555 1_555
Cu4_4 N5_3 1_555 1_555
Cu5_4 N9_3 1_555 1_555
N4_3 C3_3 1_555 1_555
N5_3 N20_3 1_555 1_555
N6_3 C5_3 1_555 1_555
N7_3 Cu1_6 1_555 1_555
N8_3 Cu1_6 1_555 1_555
N9_3 N22_3 1_555 1_555
N12_3 C11_3 1_555 1_555
N13_3 Cu4_4 1_555 1_555
N14_3 Cu1_6 1_555 1_555
N20_3 Cu2_3 1_555 1_555
N21_3 Cu2_3 1_555 1_555
N22_3 Cu2_3 1_555 1_555
N24_3 Cu2_3 1_555 1_555
H3_3 C3_3 1_555 1_555
H4_3 C4_3 1_555 1_555
H5_3 C5_3 1_555 1_555
H6_3 C6_3 1_555 1_555
H7_3 C7_3 1_555 1_555
H8_3 C8_3 1_555 1_555
H11_3 C11_3 1_555 1_555
H12_3 C12_3 1_555 1_555
C7_3 N8_3 1_555 1_555
Cu3_3 N4_3 1_555 1_555
Cu4_4 N6_3 1_555 1_555
Cu5_4 N12_3 1_555 1_555
N4_3 N20_3 1_555 1_555
N6_3 N21_3 1_555 1_555
N7_3 N21_3 1_555 1_555
N8_3 N22_3 1_555 1_555
N12_3 N24_3 1_555 1_555
N13_3 N24_3 1_555 1_555
C1_3 N1_3 1_555 1_555
Cu1_7 N1_3 1_555 1_555
N1_3 N2_3 1_555 1_555
N2_3 N3_3 1_555 1_555
H1_3 C1_3 1_555 1_555
C2_3 C1_3 1_555 1_555
Cu3_4 N3_3 1_555 1_555
N3_3 C2_3 1_555 1_555
N15_3 Cu1_7 1_555 1_555
N16_3 Cu1_7 1_555 1_555
N19_3 Cu3_4 1_555 1_555
H2_3 C2_3 1_555 1_555
C9_3 C10_3 1_555 1_555
C10_3 N11_3 1_555 1_555
N10_3 C9_3 1_555 1_555
N11_3 Cu3_5 1_555 1_555
N17_3 Cu3_5 1_555 1_555
H9_3 C9_3 1_555 1_555
H10_3 C10_3 1_555 1_555
Cu5_5 N10_3 1_555 1_555
N10_3 N23_3 1_555 1_555
N11_3 N23_3 1_555 1_555
N18_3 Cu3_6 1_555 1_555
C1_4 N1_4 1_555 1_555
Cu1_8 N1_4 1_555 1_555
Cu2_4 N2_4 1_555 1_555
N1_4 N2_4 1_555 1_555
N2_4 N3_4 1_555 1_555
H1_4 C1_4 1_555 1_555
C2_4 C1_4 1_555 1_555
C5_4 C6_4 1_555 1_555
C6_4 N7_4 1_555 1_555
C7_4 C8_4 1_555 1_555
C8_4 N9_4 1_555 1_555
C9_4 C10_4 1_555 1_555
C10_4 N11_4 1_555 1_555
Cu3_7 N3_4 1_555 1_555
Cu5_6 N9_4 1_555 1_555
N3_4 C2_4 1_555 1_555
N6_4 C5_4 1_555 1_555
N7_4 Cu1_8 1_555 1_555
N8_4 Cu1_8 1_555 1_555
N9_4 N22_4 1_555 1_555
N10_4 C9_4 1_555 1_555
N11_4 Cu3_7 1_555 1_555
N14_4 Cu1_8 1_555 1_555
N15_4 Cu1_8 1_555 1_555
N16_4 Cu1_8 1_555 1_555
N18_4 Cu3_7 1_555 1_555
N21_4 Cu2_4 1_555 1_555
N22_4 Cu2_4 1_555 1_555
N23_4 Cu2_4 1_555 1_555
H2_4 C2_4 1_555 1_555
H5_4 C5_4 1_555 1_555
H6_4 C6_4 1_555 1_555
H7_4 C7_4 1_555 1_555
H8_4 C8_4 1_555 1_555
H9_4 C9_4 1_555 1_555
H10_4 C10_4 1_555 1_555
C7_4 N8_4 1_555 1_555
Cu4_5 N6_4 1_555 1_555
Cu5_6 N10_4 1_555 1_555
N6_4 N21_4 1_555 1_555
N7_4 N21_4 1_555 1_555
N8_4 N22_4 1_555 1_555
N10_4 N23_4 1_555 1_555
N11_4 N23_4 1_555 1_555
C3_4 C4_4 1_555 1_555
C4_4 N5_4 1_555 1_555
Cu4_6 N5_4 1_555 1_555
N4_4 C3_4 1_555 1_555
N5_4 N20_4 1_555 1_555
N17_4 Cu3_8 1_555 1_555
N19_4 Cu3_8 1_555 1_555
H3_4 C3_4 1_555 1_555
H4_4 C4_4 1_555 1_555
Cu3_8 N4_4 1_555 1_555
N4_4 N20_4 1_555 1_555
C11_4 C12_4 1_555 1_555
C12_4 N13_4 1_555 1_555
N12_4 C11_4 1_555 1_555
N13_4 Cu4_7 1_555 1_555
H11_4 C11_4 1_555 1_555
H12_4 C12_4 1_555 1_555
Cu5_7 N12_4 1_555 1_555
N12_4 N24_4 1_555 1_555
N13_4 N24_4 1_555 1_555
N17_5 Cu4_4 1_555 1_555
N18_5 Cu4_4 1_555 1_555
N19_5 Cu4_4 1_555 1_555
N17_6 Cu4_3 1_555 1_555
N18_6 Cu4_3 1_555 1_555
N19_6 Cu4_3 1_555 1_555
N19_7 Cu4_6 1_555 1_555
N17_7 Cu4_7 1_555 1_555
N18_7 Cu4_8 1_555 1_555
N18_8 Cu4 1_555 1_555
N17_8 Cu4_2 1_555 1_555
N19_8 Cu4_2 1_555 1_555
C1_5 N18_5 1_555 1_555
Cu2_5 N2_5 1_555 1_555
N18_5 N2_5 1_555 1_555
N2_5 N19 1_555 1_555
H1_5 C1_5 1_555 1_555
C2_5 C1_5 1_555 1_555
C3_5 C4_5 1_555 1_555
C4_5 N15_4 1_555 1_555
C5_5 C6_5 1_555 1_555
C6_5 N19_5 1_555 1_555
C7_5 C8_5 1_555 1_555
C8_5 N9_5 1_555 1_555
C9_5 C10_5 1_555 1_555
C10_5 N17 1_555 1_555
C11_5 C12_5 1_555 1_555
C12_5 N16_4 1_555 1_555
Cu5_3 N9_5 1_555 1_555
N19 C2_5 1_555 1_555
N18 C3_5 1_555 1_555
N15_4 N20_5 1_555 1_555
N14_4 C5_5 1_555 1_555
N9_5 N22_5 1_555 1_555
N10_5 C9_5 1_555 1_555
N12_5 C11_5 1_555 1_555
N20_5 Cu2_5 1_555 1_555
N21_5 Cu2_5 1_555 1_555
N22_5 Cu2_5 1_555 1_555
N23_5 Cu2_5 1_555 1_555
N24_5 Cu2_5 1_555 1_555
H2_5 C2_5 1_555 1_555
H3_5 C3_5 1_555 1_555
H4_5 C4_5 1_555 1_555
H5_5 C5_5 1_555 1_555
H6_5 C6_5 1_555 1_555
H7_5 C7_5 1_555 1_555
H8_5 C8_5 1_555 1_555
H9_5 C9_5 1_555 1_555
H10_5 C10_5 1_555 1_555
H11_5 C11_5 1_555 1_555
H12_5 C12_5 1_555 1_555
C7_5 N17_5 1_555 1_555
Cu5_3 N10_5 1_555 1_555
Cu5_3 N12_5 1_555 1_555
N18 N20_5 1_555 1_555
N14_4 N21_5 1_555 1_555
N19_5 N21_5 1_555 1_555
N17_5 N22_5 1_555 1_555
N10_5 N23_5 1_555 1_555
N17 N23_5 1_555 1_555
N12_5 N24_5 1_555 1_555
N16_4 N24_5 1_555 1_555
C5_6 C6_6 1_555 1_555
C6_6 N19_7 1_555 1_555
N14_3 C5_6 1_555 1_555
H5_6 C5_6 1_555 1_555
H6_6 C6_6 1_555 1_555
N14_3 N21_6 1_555 1_555
N19_7 N21_6 1_555 1_555
C7_6 C8_6 1_555 1_555
C8_6 N9_6 1_555 1_555
Cu5 N9_6 1_555 1_555
N9_6 N22_6 1_555 1_555
H7_6 C7_6 1_555 1_555
H8_6 C8_6 1_555 1_555
C7_6 N17_7 1_555 1_555
N17_7 N22_6 1_555 1_555
C1_6 N18_7 1_555 1_555
Cu2_6 N2_6 1_555 1_555
N18_7 N2_6 1_555 1_555
N2_6 N19_2 1_555 1_555
H1_6 C1_6 1_555 1_555
C2_6 C1_6 1_555 1_555
C3_6 C4_6 1_555 1_555
C4_6 N15_3 1_555 1_555
C9_6 C10_6 1_555 1_555
C10_6 N17_2 1_555 1_555
C11_6 C12_6 1_555 1_555
C12_6 N16_3 1_555 1_555
N19_2 C2_6 1_555 1_555
N18_2 C3_6 1_555 1_555
N15_3 N20_6 1_555 1_555
N10_6 C9_6 1_555 1_555
N12_6 C11_6 1_555 1_555
N20_6 Cu2_6 1_555 1_555
N23_6 Cu2_6 1_555 1_555
N24_6 Cu2_6 1_555 1_555
H2_6 C2_6 1_555 1_555
H3_6 C3_6 1_555 1_555
H4_6 C4_6 1_555 1_555
H9_6 C9_6 1_555 1_555
H10_6 C10_6 1_555 1_555
H11_6 C11_6 1_555 1_555
H12_6 C12_6 1_555 1_555
Cu5_2 N10_6 1_555 1_555
Cu5_2 N12_6 1_555 1_555
N18_2 N20_6 1_555 1_555
N10_6 N23_6 1_555 1_555
N17_2 N23_6 1_555 1_555
N12_6 N24_6 1_555 1_555
N16_3 N24_6 1_555 1_555
C11_7 C12_7 1_555 1_555
C12_7 N16 1_555 1_555
N12_7 C11_7 1_555 1_555
H11_7 C11_7 1_555 1_555
H12_7 C12_7 1_555 1_555
Cu5_4 N12_7 1_555 1_555
N12_7 N24_7 1_555 1_555
N16 N24_7 1_555 1_555
C3_7 C4_7 1_555 1_555
C4_7 N15 1_555 1_555
N18_4 C3_7 1_555 1_555
N15 N20_7 1_555 1_555
H3_7 C3_7 1_555 1_555
H4_7 C4_7 1_555 1_555
N18_4 N20_7 1_555 1_555
C1_7 N18_6 1_555 1_555
Cu2_7 N2_7 1_555 1_555
N18_6 N2_7 1_555 1_555
N2_7 N19_4 1_555 1_555
H1_7 C1_7 1_555 1_555
C2_7 C1_7 1_555 1_555
C5_7 C6_7 1_555 1_555
C6_7 N19_6 1_555 1_555
C7_7 C8_7 1_555 1_555
C8_7 N9_7 1_555 1_555
C9_7 C10_7 1_555 1_555
C10_7 N17_4 1_555 1_555
Cu5_5 N9_7 1_555 1_555
N19_4 C2_7 1_555 1_555
N14 C5_7 1_555 1_555
N9_7 N22_7 1_555 1_555
N10_7 C9_7 1_555 1_555
N21_7 Cu2_7 1_555 1_555
N22_7 Cu2_7 1_555 1_555
N23_7 Cu2_7 1_555 1_555
H2_7 C2_7 1_555 1_555
H5_7 C5_7 1_555 1_555
H6_7 C6_7 1_555 1_555
H7_7 C7_7 1_555 1_555
H8_7 C8_7 1_555 1_555
H9_7 C9_7 1_555 1_555
H10_7 C10_7 1_555 1_555
C7_7 N17_6 1_555 1_555
Cu5_5 N10_7 1_555 1_555
N14 N21_7 1_555 1_555
N19_6 N21_7 1_555 1_555
N17_6 N22_7 1_555 1_555
N10_7 N23_7 1_555 1_555
N17_4 N23_7 1_555 1_555
C1_8 N18_8 1_555 1_555
N18_8 N2_8 1_555 1_555
N2_8 N19_3 1_555 1_555
H1_8 C1_8 1_555 1_555
C2_8 C1_8 1_555 1_555
N19_3 C2_8 1_555 1_555
H2_8 C2_8 1_555 1_555
C9_8 C10_8 1_555 1_555
C10_8 N17_3 1_555 1_555
N10_8 C9_8 1_555 1_555
H9_8 C9_8 1_555 1_555
H10_8 C10_8 1_555 1_555
Cu5_6 N10_8 1_555 1_555
N10_8 N23_8 1_555 1_555
N17_3 N23_8 1_555 1_555
C3_8 C4_8 1_555 1_555
C4_8 N15_2 1_555 1_555
C5_8 C6_8 1_555 1_555
C6_8 N19_8 1_555 1_555
C7_8 C8_8 1_555 1_555
C8_8 N9_8 1_555 1_555
C11_8 C12_8 1_555 1_555
C12_8 N16_2 1_555 1_555
Cu5_7 N9_8 1_555 1_555
N18_3 C3_8 1_555 1_555
N15_2 N20_8 1_555 1_555
N14_2 C5_8 1_555 1_555
N9_8 N22_8 1_555 1_555
N12_8 C11_8 1_555 1_555
N20_8 Cu2_8 1_555 1_555
N21_8 Cu2_8 1_555 1_555
N22_8 Cu2_8 1_555 1_555
N24_8 Cu2_8 1_555 1_555
H3_8 C3_8 1_555 1_555
H4_8 C4_8 1_555 1_555
H5_8 C5_8 1_555 1_555
H6_8 C6_8 1_555 1_555
H7_8 C7_8 1_555 1_555
H8_8 C8_8 1_555 1_555
H11_8 C11_8 1_555 1_555
H12_8 C12_8 1_555 1_555
C7_8 N17_8 1_555 1_555
Cu5_7 N12_8 1_555 1_555
N18_3 N20_8 1_555 1_555
N14_2 N21_8 1_555 1_555
N19_8 N21_8 1_555 1_555
N17_8 N22_8 1_555 1_555
N12_8 N24_8 1_555 1_555
N16_2 N24_8 1_555 1_555

#END
