
###############################################################################
#
# This file contains modified crystal structure data generated from the
# MOF subset of the Cambridge Structural Database (CSD) v543 
# hosted by the Cambridge Crystallographic Data Centre (CCDC).
#
# This work is licensed under the Creative Commons
# Attribution-NonCommercial-ShareAlike 4.0 International License.
# To view a copy of this license, visit
# http://creativecommons.org/licenses/by-nc-sa/4.0/
# or send a letter to
# Creative Commons, PO Box 1866, Mountain View, CA 94042, USA.
#
# CIF created using the CSD Python API on 29 September 2022
# The structure has been converted into the P1 space group
# The structure has a 3D framework
# The original CSD entry CAYDOX02 is in the tetragonal crystal system
# The original CSD entry CAYDOX02 is in a Sohncke space group
# The framework has been calculated to contain at least 10.0% void space
# The void calculation uses a probe of radius 1.32A, grid spacing 0.4
#
###############################################################################

data_CAYDOX02
_chemical_formula_moiety         '(C24 H32 Cu4 N32 O4)n'
_symmetry_cell_setting           triclinic
_symmetry_space_group_name_H-M   'P 1'
_symmetry_Int_Tables_number      1
_space_group_name_Hall           'P 1'
loop_
_symmetry_equiv_pos_site_id
_symmetry_equiv_pos_as_xyz
1 x,y,z
_cell_length_a                   12.3684(2)
_cell_length_b                   12.3684(2)
_cell_length_c                   7.9094(2)
_cell_angle_alpha                90
_cell_angle_beta                 90
_cell_angle_gamma                90
_cell_volume                     1209.96
loop_
_atom_site_label
_atom_site_type_symbol
_atom_site_fract_x
_atom_site_fract_y
_atom_site_fract_z
Cu2 Cu 0.48596(6) 0.17711(6) 0.02132(14)
H7 H 0.6570 0.0451 0.8646
H8 H 0.6584 0.0071 0.6758
N7 N 0.3464(5) 0.0242(6) 0.8284(10)
N8 N 0.4487(5) 0.0525(5) 0.8710(8)
Cu1 Cu 0.51404(6) 0.82289(6) 0.52132(14)
C1 C 0.6641(6) 0.6457(6) 0.4426(9)
C2 C 0.6763(7) 0.6182(7) 0.6250(11)
H1 H 0.7235 0.5559 0.6347
H2 H 0.6061 0.5976 0.6692
C3 C 0.7211(7) 0.7079(7) 0.7327(11)
H3 H 0.7272 0.6836 0.8490
H4 H 0.7927 0.7275 0.6931
C4 C 0.6811(6) 0.8841(7) 0.8406(11)
H5 H 0.7592 0.8907 0.8434
H6 H 0.6565 0.8655 0.9533
C5 C 0.6323(6) 0.9891(7) 0.7880(14)
C6 C 0.5132(6) 0.9898(5) 0.7856(11)
N1 N 0.5995(5) 0.7252(5) 0.3867(8)
N2 N 0.6067(6) 0.7243(5) 0.2158(8)
N3 N 0.6729(6) 0.6457(6) 0.1695(9)
N4 N 0.7104(5) 0.5967(5) 0.3131(8)
N5 N 0.4541(5) 0.9234(4) 0.6905(8)
N6 N 0.3514(5) 0.9451(5) 0.7214(9)
O1 O 0.6508(4) 0.8003(4) 0.7242(7)
Cu3 Cu 0.82289(6) 0.48596(6) 0.27132(14)
N9 N 0.4033(5) 0.7104(5) 0.5631(8)
N10 N 0.5513(5) 0.9475(5) 0.3710(8)
Cu1_2 Cu 0.17711(6) 0.51404(6) 0.77132(14)
C1_2 C 0.3543(6) 0.6641(6) 0.6926(9)
C2_2 C 0.3818(7) 0.6763(7) 0.8750(11)
H1_2 H 0.4441 0.7235 0.8847
H2_2 H 0.4024 0.6061 0.9192
C3_2 C 0.2921(7) 0.7211(7) 0.9827(11)
H4_2 H 0.2725 0.7927 0.9431
N1_2 N 0.2748(5) 0.5995(5) 0.6367(8)
N2_2 N 0.2757(5) 0.6067(6) 0.4658(8)
N3_2 N 0.3543(6) 0.6729(6) 0.4195(9)
N5_2 N 0.0766(4) 0.4541(5) 0.9405(8)
N6_2 N 0.0549(5) 0.3514(5) 0.9714(9)
O1_2 O 0.1997(4) 0.6508(4) 0.9742(7)
N9_2 N 0.2896(5) 0.4033(5) 0.8131(8)
N10_2 N 0.0525(5) 0.5513(5) 0.6210(8)
H7_2 H 0.9549 0.6570 0.1146
N7_2 N 0.9758(6) 0.3464(5) 0.0784(10)
N8_2 N 0.9475(5) 0.4487(5) 0.1210(8)
C2_3 C 0.3237(7) 0.3818(7) 0.1250(11)
H1_3 H 0.2765 0.4441 0.1347
H2_3 H 0.3939 0.4024 0.1692
C3_3 C 0.2789(7) 0.2921(7) 0.2327(11)
H3_2 H 0.2728 0.3164 0.3490
H4_3 H 0.2073 0.2725 0.1931
C4_2 C 0.3189(6) 0.1159(7) 0.3406(11)
H5_2 H 0.2408 0.1093 0.3434
H6_2 H 0.3435 0.1345 0.4533
C5_2 C 0.3677(6) 0.0109(7) 0.2880(14)
C6_2 C 0.4868(6) 0.0102(5) 0.2856(11)
N5_3 N 0.5459(5) 0.0766(4) 0.1905(8)
N6_3 N 0.6486(5) 0.0549(5) 0.2214(9)
O1_3 O 0.3492(4) 0.1997(4) 0.2242(7)
N9_3 N 0.5967(5) 0.2896(5) 0.0631(8)
C1_3 C 0.3359(6) 0.3543(6) 0.9426(9)
N1_3 N 0.4005(5) 0.2748(5) 0.8867(8)
N2_3 N 0.3933(6) 0.2757(5) 0.7158(8)
N3_3 N 0.3271(6) 0.3543(6) 0.6695(9)
H7_3 H 0.3430 0.9549 0.3646
H8_2 H 0.3416 0.9929 0.1758
N7_3 N 0.6536(5) 0.9758(6) 0.3284(10)
H7_4 H 0.0451 0.3430 0.6146
H8_3 H 0.0071 0.3416 0.4258
N7_4 N 0.0242(6) 0.6536(5) 0.5784(10)
C1_4 C 0.6457(6) 0.3359(6) 0.1926(9)
C2_4 C 0.6182(7) 0.3237(7) 0.3750(11)
H1_4 H 0.5559 0.2765 0.3847
H2_4 H 0.5976 0.3939 0.4192
C3_4 C 0.7079(7) 0.2789(7) 0.4827(11)
H3_3 H 0.6836 0.2728 0.5990
H4_4 H 0.7275 0.2073 0.4431
C4_3 C 0.8841(7) 0.3189(6) 0.5906(11)
H5_3 H 0.8907 0.2408 0.5934
H6_3 H 0.8655 0.3435 0.7033
C5_3 C 0.9891(7) 0.3677(6) 0.5380(14)
C6_3 C 0.9898(5) 0.4868(6) 0.5356(11)
N1_4 N 0.7252(5) 0.4005(5) 0.1367(8)
N5_4 N 0.9234(4) 0.5459(5) 0.4405(8)
N6_4 N 0.9451(5) 0.6486(5) 0.4714(9)
O1_4 O 0.8003(4) 0.3492(4) 0.4742(7)
H3_4 H 0.3164 0.7272 0.0990
C4_4 C 0.1159(7) 0.6811(6) 0.0906(11)
H5_4 H 0.1093 0.7592 0.0934
H6_4 H 0.1345 0.6565 0.2033
C5_4 C 0.0109(7) 0.6323(6) 0.0380(14)
C6_4 C 0.0102(5) 0.5132(6) 0.0356(11)
H8_4 H 0.9929 0.6584 0.9258
N2_4 N 0.7243(5) 0.3933(6) 0.9658(8)
N3_4 N 0.6457(6) 0.3271(6) 0.9195(9)
loop_
_geom_bond_atom_site_label_1
_geom_bond_atom_site_label_2
_geom_bond_site_symmetry_1
_geom_bond_site_symmetry_2
N7 N8 1_555 1_555
Cu1 N1 1_555 1_555
C1 C2 1_555 1_555
C2 H1 1_555 1_555
H2 C2 1_555 1_555
C3 C2 1_555 1_555
H3 C3 1_555 1_555
H4 C3 1_555 1_555
C4 H5 1_555 1_555
H6 C4 1_555 1_555
C5 C4 1_555 1_555
C6 C5 1_555 1_555
N1 C1 1_555 1_555
N2 N1 1_555 1_555
N3 N2 1_555 1_555
N4 C1 1_555 1_555
N5 Cu1 1_555 1_555
N6 N5 1_555 1_555
O1 Cu1 1_555 1_555
Cu3 N4 1_555 1_555
N9 Cu1 1_555 1_555
N10 Cu1 1_555 1_555
C3 O1 1_555 1_555
C4 O1 1_555 1_555
C6 N5 1_555 1_555
N3 N4 1_555 1_555
Cu1_2 N1_2 1_555 1_555
C1_2 C2_2 1_555 1_555
C2_2 H1_2 1_555 1_555
H2_2 C2_2 1_555 1_555
C3_2 C2_2 1_555 1_555
H4_2 C3_2 1_555 1_555
N1_2 C1_2 1_555 1_555
N2_2 N1_2 1_555 1_555
N3_2 N2_2 1_555 1_555
N9 C1_2 1_555 1_555
N5_2 Cu1_2 1_555 1_555
N6_2 N5_2 1_555 1_555
O1_2 Cu1_2 1_555 1_555
N9_2 Cu1_2 1_555 1_555
N10_2 Cu1_2 1_555 1_555
C3_2 O1_2 1_555 1_555
N3_2 N9 1_555 1_555
Cu3 N8_2 1_555 1_555
N7_2 N8_2 1_555 1_555
C2_3 H1_3 1_555 1_555
H2_3 C2_3 1_555 1_555
C3_3 C2_3 1_555 1_555
H3_2 C3_3 1_555 1_555
H4_3 C3_3 1_555 1_555
C4_2 H5_2 1_555 1_555
H6_2 C4_2 1_555 1_555
C5_2 C4_2 1_555 1_555
C6_2 C5_2 1_555 1_555
N5_3 Cu2 1_555 1_555
N6_3 N5_3 1_555 1_555
O1_3 Cu2 1_555 1_555
N9_3 Cu2 1_555 1_555
C3_3 O1_3 1_555 1_555
C4_2 O1_3 1_555 1_555
C6_2 N5_3 1_555 1_555
N1_3 C1_3 1_555 1_555
N2_3 N1_3 1_555 1_555
N3_3 N2_3 1_555 1_555
N9_2 C1_3 1_555 1_555
N3_3 N9_2 1_555 1_555
N7_3 N10 1_555 1_555
N7_4 N10_2 1_555 1_555
Cu3 N1_4 1_555 1_555
C1_4 C2_4 1_555 1_555
C2_4 H1_4 1_555 1_555
H2_4 C2_4 1_555 1_555
C3_4 C2_4 1_555 1_555
H3_3 C3_4 1_555 1_555
H4_4 C3_4 1_555 1_555
C4_3 H5_3 1_555 1_555
H6_3 C4_3 1_555 1_555
C5_3 C4_3 1_555 1_555
C6_3 C5_3 1_555 1_555
N1_4 C1_4 1_555 1_555
N9_3 C1_4 1_555 1_555
N5_4 Cu3 1_555 1_555
N6_4 N5_4 1_555 1_555
O1_4 Cu3 1_555 1_555
C3_4 O1_4 1_555 1_555
C4_3 O1_4 1_555 1_555
C6_3 N5_4 1_555 1_555
C4_4 H5_4 1_555 1_555
H6_4 C4_4 1_555 1_555
C5_4 C4_4 1_555 1_555
C6_4 C5_4 1_555 1_555
N3_4 N2_4 1_555 1_555

#END
