
###############################################################################
#
# This file contains modified crystal structure data generated from the
# MOF subset of the Cambridge Structural Database (CSD) v543 
# hosted by the Cambridge Crystallographic Data Centre (CCDC).
#
# This work is licensed under the Creative Commons
# Attribution-NonCommercial-ShareAlike 4.0 International License.
# To view a copy of this license, visit
# http://creativecommons.org/licenses/by-nc-sa/4.0/
# or send a letter to
# Creative Commons, PO Box 1866, Mountain View, CA 94042, USA.
#
# CIF created using the CSD Python API on 29 September 2022
# The structure has been converted into the P1 space group
# The structure has a 3D framework
# The original CSD entry CAYDIR is in the tetragonal crystal system
# The original CSD entry CAYDIR is in a Sohncke space group
# The framework has been calculated to contain at least 10.0% void space
# The void calculation uses a probe of radius 1.32A, grid spacing 0.4
#
###############################################################################

data_CAYDIR
_chemical_formula_moiety         '(C24 H32 Cu4 N32 O4)n'
_symmetry_cell_setting           triclinic
_symmetry_space_group_name_H-M   'P 1'
_symmetry_Int_Tables_number      1
_space_group_name_Hall           'P 1'
loop_
_symmetry_equiv_pos_site_id
_symmetry_equiv_pos_as_xyz
1 x,y,z
_cell_length_a                   12.355(3)
_cell_length_b                   12.355(3)
_cell_length_c                   7.9025(16)
_cell_angle_alpha                90
_cell_angle_beta                 90
_cell_angle_gamma                90
_cell_volume                     1206.29
loop_
_atom_site_label
_atom_site_type_symbol
_atom_site_fract_x
_atom_site_fract_y
_atom_site_fract_z
Cu2 Cu 0.01525(3) 0.67682(3) 0.78352(7)
N5 N 0.5778(2) 0.0457(2) 0.2026(4)
N6 N 0.5560(3) 0.1509(3) 0.2334(4)
N7 N 0.4776(3) 0.1568(3) 0.3422(5)
N8 N 0.4482(3) 0.0535(3) 0.3860(4)
Cu3 Cu 0.32318(3) 0.01525(3) 0.53352(7)
N9 N 0.7896(3) 0.0952(3) 0.0725(4)
C1 C 0.8542(3) 0.8350(3) 0.9541(5)
N1 N 0.7746(3) 0.8993(3) 0.8963(4)
N2 N 0.7750(3) 0.8919(3) 0.7249(4)
N3 N 0.8540(3) 0.8274(3) 0.6798(4)
N4 N 0.9048(3) 0.7896(3) 0.8225(4)
N10 N 0.5518(3) 0.9465(3) 0.8860(4)
C1_2 C 0.1650(3) 0.8542(3) 0.7041(5)
C2 C 0.1771(4) 0.8820(3) 0.8872(5)
H1 H 0.1067 0.9019 0.9319
H2 H 0.2240 0.9446 0.8972
C3 C 0.2229(3) 0.7917(3) 0.9932(5)
H3 H 0.2940 0.7719 0.9516
H7 H 0.1588 0.4905 0.9393
N1_2 N 0.1007(3) 0.7746(3) 0.6463(4)
N2_2 N 0.1081(3) 0.7750(3) 0.4749(4)
N3_2 N 0.1726(3) 0.8540(3) 0.4298(4)
N4_2 N 0.2104(3) 0.9048(3) 0.5725(4)
O1 O 0.1513(2) 0.6990(2) 0.9850(3)
N10_2 N 0.0535(3) 0.5518(3) 0.6360(4)
N7_2 N 0.8432(3) 0.4776(3) 0.0922(5)
N8_2 N 0.9465(3) 0.4482(3) 0.1360(4)
Cu3_2 Cu 0.98475(3) 0.32318(3) 0.28352(7)
N5_2 N 0.9543(2) 0.5778(2) 0.9526(4)
N6_2 N 0.8491(3) 0.5560(3) 0.9834(4)
C1_3 C 0.1458(3) 0.1650(3) 0.4541(5)
C2_2 C 0.1180(3) 0.1771(4) 0.6372(5)
H1_2 H 0.0981 0.1067 0.6819
H2_2 H 0.0554 0.2240 0.6472
C3_2 C 0.2083(3) 0.2229(3) 0.7432(5)
H3_2 H 0.2281 0.2940 0.7016
H4 H 0.1846 0.2302 0.8596
C4 C 0.3845(3) 0.1825(3) 0.8530(5)
H5 H 0.3653 0.1584 0.9659
H6 H 0.3912 0.2608 0.8550
C5 C 0.4907(3) 0.1328(3) 0.8013(6)
H7_2 H 0.5095 0.1588 0.6893
H8 H 0.5465 0.1570 0.8789
C6 C 0.4893(3) 0.0123(3) 0.7991(6)
N1_3 N 0.2254(3) 0.1007(3) 0.3963(4)
N2_3 N 0.2250(3) 0.1081(3) 0.2249(4)
N3_3 N 0.1460(3) 0.1726(3) 0.1798(4)
N4_3 N 0.0952(3) 0.2104(3) 0.3225(4)
O1_2 O 0.3010(2) 0.1513(2) 0.7350(3)
N5_3 N 0.4222(2) 0.9543(2) 0.7026(4)
N6_3 N 0.4440(3) 0.8491(3) 0.7334(4)
N7_3 N 0.5224(3) 0.8432(3) 0.8422(5)
N5_4 N 0.0457(2) 0.4222(2) 0.4526(4)
N6_4 N 0.1509(3) 0.4440(3) 0.4834(4)
N7_4 N 0.1568(3) 0.5224(3) 0.5922(5)
C1_4 C 0.8350(3) 0.1458(3) 0.2041(5)
C2_3 C 0.8229(4) 0.1180(3) 0.3872(5)
H1_3 H 0.8933 0.0981 0.4319
H2_3 H 0.7760 0.0554 0.3972
C3_3 C 0.7771(3) 0.2083(3) 0.4932(5)
H3_3 H 0.7060 0.2281 0.4516
H4_2 H 0.7698 0.1846 0.6096
C4_2 C 0.8175(3) 0.3845(3) 0.6030(5)
H5_2 H 0.8416 0.3653 0.7159
H6_2 H 0.7392 0.3912 0.6050
C5_2 C 0.8672(3) 0.4907(3) 0.5513(6)
H7_3 H 0.8412 0.5095 0.4393
H8_2 H 0.8430 0.5465 0.6289
C6_2 C 0.9877(3) 0.4893(3) 0.5491(6)
N1_4 N 0.8993(3) 0.2254(3) 0.1463(4)
O1_3 O 0.8487(2) 0.3010(2) 0.4850(3)
Cu1 Cu 0.67682(3) 0.98475(3) 0.03352(7)
C2_4 C 0.8820(3) 0.8229(4) 0.1372(5)
H1_4 H 0.9019 0.8933 0.1819
H2_4 H 0.9446 0.7760 0.1472
C3_4 C 0.7917(3) 0.7771(3) 0.2432(5)
H3_4 H 0.7719 0.7060 0.2016
H4_3 H 0.8154 0.7698 0.3596
C4_3 C 0.6155(3) 0.8175(3) 0.3530(5)
H5_3 H 0.6347 0.8416 0.4659
H6_3 H 0.6088 0.7392 0.3550
C5_3 C 0.5093(3) 0.8672(3) 0.3013(6)
H7_4 H 0.4905 0.8412 0.1893
H8_3 H 0.4535 0.8430 0.3789
C6_3 C 0.5107(3) 0.9877(3) 0.2991(6)
O1_4 O 0.6990(2) 0.8487(2) 0.2350(3)
H4_4 H 0.2302 0.8154 0.1096
C4_4 C 0.1825(3) 0.6155(3) 0.1030(5)
H5_4 H 0.1584 0.6347 0.2159
H6_4 H 0.2608 0.6088 0.1050
C5_4 C 0.1328(3) 0.5093(3) 0.0513(6)
H8_4 H 0.1570 0.4535 0.1289
C6_4 C 0.0123(3) 0.5107(3) 0.0491(6)
N2_4 N 0.8919(3) 0.2250(3) 0.9749(4)
N3_4 N 0.8274(3) 0.1460(3) 0.9298(4)
loop_
_geom_bond_atom_site_label_1
_geom_bond_atom_site_label_2
_geom_bond_site_symmetry_1
_geom_bond_site_symmetry_2
N6 N5 1_555 1_555
N7 N6 1_555 1_555
Cu3 N8 1_555 1_555
N7 N8 1_555 1_555
N1 C1 1_555 1_555
N2 N1 1_555 1_555
N3 N2 1_555 1_555
N4 C1 1_555 1_555
N3 N4 1_555 1_555
Cu2 N1_2 1_555 1_555
C1_2 C2 1_555 1_555
C2 H1 1_555 1_555
H2 C2 1_555 1_555
C3 C2 1_555 1_555
H3 C3 1_555 1_555
N1_2 C1_2 1_555 1_555
N2_2 N1_2 1_555 1_555
N3_2 N2_2 1_555 1_555
N4_2 C1_2 1_555 1_555
O1 Cu2 1_555 1_555
N10_2 Cu2 1_555 1_555
C3 O1 1_555 1_555
N3_2 N4_2 1_555 1_555
Cu3_2 N8_2 1_555 1_555
N7_2 N8_2 1_555 1_555
N6_2 N5_2 1_555 1_555
Cu3 N1_3 1_555 1_555
C1_3 C2_2 1_555 1_555
C2_2 H1_2 1_555 1_555
H2_2 C2_2 1_555 1_555
C3_2 C2_2 1_555 1_555
H3_2 C3_2 1_555 1_555
H4 C3_2 1_555 1_555
C4 H5 1_555 1_555
H6 C4 1_555 1_555
C5 C4 1_555 1_555
H7_2 C5 1_555 1_555
H8 C5 1_555 1_555
C6 C5 1_555 1_555
N1_3 C1_3 1_555 1_555
N2_3 N1_3 1_555 1_555
N3_3 N2_3 1_555 1_555
N4_3 C1_3 1_555 1_555
O1_2 Cu3 1_555 1_555
C3_2 O1_2 1_555 1_555
C4 O1_2 1_555 1_555
N3_3 N4_3 1_555 1_555
N6_3 N5_3 1_555 1_555
N7_3 N6_3 1_555 1_555
N7_3 N10 1_555 1_555
N6_4 N5_4 1_555 1_555
N7_4 N6_4 1_555 1_555
N7_4 N10_2 1_555 1_555
Cu3_2 N1_4 1_555 1_555
C1_4 C2_3 1_555 1_555
C2_3 H1_3 1_555 1_555
H2_3 C2_3 1_555 1_555
C3_3 C2_3 1_555 1_555
H3_3 C3_3 1_555 1_555
H4_2 C3_3 1_555 1_555
C4_2 H5_2 1_555 1_555
H6_2 C4_2 1_555 1_555
C5_2 C4_2 1_555 1_555
H7_3 C5_2 1_555 1_555
H8_2 C5_2 1_555 1_555
C6_2 C5_2 1_555 1_555
N1_4 C1_4 1_555 1_555
N9 C1_4 1_555 1_555
O1_3 Cu3_2 1_555 1_555
C3_3 O1_3 1_555 1_555
C4_2 O1_3 1_555 1_555
C2_4 H1_4 1_555 1_555
H2_4 C2_4 1_555 1_555
C3_4 C2_4 1_555 1_555
H3_4 C3_4 1_555 1_555
H4_3 C3_4 1_555 1_555
C4_3 H5_3 1_555 1_555
H6_3 C4_3 1_555 1_555
C5_3 C4_3 1_555 1_555
H7_4 C5_3 1_555 1_555
H8_3 C5_3 1_555 1_555
C6_3 C5_3 1_555 1_555
O1_4 Cu1 1_555 1_555
C3_4 O1_4 1_555 1_555
C4_3 O1_4 1_555 1_555
C4_4 H5_4 1_555 1_555
H6_4 C4_4 1_555 1_555
C5_4 C4_4 1_555 1_555
H8_4 C5_4 1_555 1_555
C6_4 C5_4 1_555 1_555
N3_4 N2_4 1_555 1_555

#END
