
###############################################################################
#
# This file contains modified crystal structure data generated from the
# MOF subset of the Cambridge Structural Database (CSD) v543 
# hosted by the Cambridge Crystallographic Data Centre (CCDC).
#
# This work is licensed under the Creative Commons
# Attribution-NonCommercial-ShareAlike 4.0 International License.
# To view a copy of this license, visit
# http://creativecommons.org/licenses/by-nc-sa/4.0/
# or send a letter to
# Creative Commons, PO Box 1866, Mountain View, CA 94042, USA.
#
# CIF created using the CSD Python API on 29 September 2022
# The structure has been converted into the P1 space group
# The structure has a 3D framework
# The original CSD entry CAYDOX04 is in the tetragonal crystal system
# The original CSD entry CAYDOX04 is in a Sohncke space group
# The framework has been calculated to contain at least 10.0% void space
# The void calculation uses a probe of radius 1.32A, grid spacing 0.4
#
###############################################################################

data_CAYDOX04
_chemical_formula_moiety         '(C24 H32 Cu4 N31 O4)n'
_symmetry_cell_setting           triclinic
_symmetry_space_group_name_H-M   'P 1'
_symmetry_Int_Tables_number      1
_space_group_name_Hall           'P 1'
loop_
_symmetry_equiv_pos_site_id
_symmetry_equiv_pos_as_xyz
1 x,y,z
_cell_length_a                   12.3933(3)
_cell_length_b                   12.3933(3)
_cell_length_c                   7.9318(3)
_cell_angle_alpha                90
_cell_angle_beta                 90
_cell_angle_gamma                90
_cell_volume                     1218.28
loop_
_atom_site_label
_atom_site_type_symbol
_atom_site_fract_x
_atom_site_fract_y
_atom_site_fract_z
H7 H 0.6578 0.0083 0.0840
H8 H 0.6560 0.0459 0.2722
N7 N 0.3465(9) 0.0233(9) 0.2353(14)
N8 N 0.4483(7) 0.0528(7) 0.2780(11)
Cu2 Cu 0.48579(10) 0.17729(10) 0.42840(15)
Cu1 Cu 0.51421(10) 0.82271(10) 0.92840(15)
C1 C 0.6651(10) 0.6448(10) 0.8490(14)
N1 N 0.5980(8) 0.7253(8) 0.7939(11)
N2 N 0.6053(9) 0.7245(9) 0.6210(12)
N3 N 0.6719(9) 0.6455(10) 0.5772(13)
N4 N 0.7115(7) 0.5939(8) 0.7203(11)
Cu3 Cu 0.82271(10) 0.48579(10) 0.67840(15)
N9 N 0.4061(8) 0.7115(7) 0.9703(11)
N10 N 0.5517(7) 0.9472(7) 0.7780(11)
Cu1_2 Cu 0.17729(10) 0.51421(10) 0.17840(15)
C1_2 C 0.3552(10) 0.6651(10) 0.0990(14)
C2 C 0.3820(11) 0.6752(12) 0.2819(15)
H1 H 0.4444 0.7219 0.2937
H2 H 0.4018 0.6046 0.3247
C3 C 0.2915(10) 0.7196(11) 0.3888(16)
H3 H 0.3154 0.7261 0.5048
H4 H 0.2718 0.7909 0.3488
C4 C 0.1107(11) 0.6804(10) 0.4959(16)
H5 H 0.1284 0.6574 0.6095
H6 H 0.1027 0.7582 0.4969
C5 C 0.0101(10) 0.6318(9) 0.4456(19)
C6 C 0.0096(8) 0.5126(9) 0.4425(18)
N1_2 N 0.2747(8) 0.5980(8) 0.0439(11)
N5 N 0.0768(7) 0.4549(7) 0.3471(12)
N6 N 0.0539(8) 0.3504(8) 0.3768(12)
O1 O 0.2007(7) 0.6506(6) 0.3807(9)
N9_2 N 0.2885(7) 0.4061(8) 0.2203(11)
N10_2 N 0.0528(7) 0.5517(7) 0.0280(11)
N2_2 N 0.2755(9) 0.6053(9) 0.8710(12)
N3_2 N 0.3545(10) 0.6719(9) 0.8272(13)
H7_2 H 0.9917 0.6578 0.3340
H8_2 H 0.9541 0.6560 0.5222
N7_2 N 0.9767(9) 0.3465(9) 0.4853(14)
N8_2 N 0.9472(7) 0.4483(7) 0.5280(11)
C1_3 C 0.3349(10) 0.3552(10) 0.3490(14)
C2_2 C 0.3248(12) 0.3820(11) 0.5319(15)
H1_2 H 0.2781 0.4444 0.5437
H2_2 H 0.3954 0.4018 0.5747
C3_2 C 0.2804(11) 0.2915(10) 0.6388(16)
H3_2 H 0.2739 0.3154 0.7548
H4_2 H 0.2091 0.2718 0.5988
C4_2 C 0.3196(10) 0.1107(11) 0.7459(16)
H5_2 H 0.3426 0.1284 0.8595
H6_2 H 0.2418 0.1027 0.7469
C5_2 C 0.3682(9) 0.0101(10) 0.6956(19)
C6_2 C 0.4874(9) 0.0096(8) 0.6925(18)
N1_3 N 0.4020(8) 0.2747(8) 0.2939(11)
N2_3 N 0.3947(9) 0.2755(9) 0.1210(12)
N3_3 N 0.3281(9) 0.3545(10) 0.0772(13)
N5_2 N 0.5451(7) 0.0768(7) 0.5971(12)
N6_2 N 0.6496(8) 0.0539(8) 0.6268(12)
O1_2 O 0.3494(6) 0.2007(7) 0.6307(9)
N9_3 N 0.5939(8) 0.2885(7) 0.4703(11)
H7_3 H 0.3422 0.9917 0.5840
H8_3 H 0.3440 0.9541 0.7722
N7_3 N 0.6535(9) 0.9767(9) 0.7353(14)
H8_4 H 0.0459 0.3440 0.0222
C1_4 C 0.6448(10) 0.3349(10) 0.5990(14)
C2_3 C 0.6180(11) 0.3248(12) 0.7819(15)
H1_3 H 0.5556 0.2781 0.7937
H2_3 H 0.5982 0.3954 0.8247
C3_3 C 0.7085(10) 0.2804(11) 0.8888(16)
H4_3 H 0.7282 0.2091 0.8488
C4_3 C 0.8893(11) 0.3196(10) 0.9959(16)
H6_3 H 0.8973 0.2418 0.9969
C5_3 C 0.9899(10) 0.3682(9) 0.9456(19)
C6_3 C 0.9904(8) 0.4874(9) 0.9425(18)
N1_4 N 0.7253(8) 0.4020(8) 0.5439(11)
N2_4 N 0.7245(9) 0.3947(9) 0.3710(12)
N3_4 N 0.6455(10) 0.3281(9) 0.3272(13)
N5_3 N 0.9232(7) 0.5451(7) 0.8471(12)
N6_3 N 0.9461(8) 0.6496(8) 0.8768(12)
O1_3 O 0.7993(7) 0.3494(6) 0.8807(9)
C2_4 C 0.6752(12) 0.6180(11) 0.0319(15)
H1_4 H 0.7219 0.5556 0.0437
H2_4 H 0.6046 0.5982 0.0747
C3_4 C 0.7196(11) 0.7085(10) 0.1388(16)
H3_3 H 0.7261 0.6846 0.2548
H4_4 H 0.7909 0.7282 0.0988
C4_4 C 0.6804(10) 0.8893(11) 0.2459(16)
H5_3 H 0.6574 0.8716 0.3595
H6_4 H 0.7582 0.8973 0.2469
C5_4 C 0.6318(9) 0.9899(10) 0.1956(19)
C6_4 C 0.5126(9) 0.9904(8) 0.1925(18)
N5_4 N 0.4549(7) 0.9232(7) 0.0971(12)
N6_4 N 0.3504(8) 0.9461(8) 0.1268(12)
O1_4 O 0.6506(6) 0.7993(7) 0.1307(9)
H7_4 H 0.0083 0.3422 0.8340
N7_4 N 0.0233(9) 0.6535(9) 0.9853(14)
H3_4 H 0.6846 0.2739 0.0048
H5_4 H 0.8716 0.3426 0.1095
loop_
_geom_bond_atom_site_label_1
_geom_bond_atom_site_label_2
_geom_bond_site_symmetry_1
_geom_bond_site_symmetry_2
Cu2 N8 1_555 1_555
N7 N8 1_555 1_555
Cu1 N1 1_555 1_555
N1 C1 1_555 1_555
N2 N1 1_555 1_555
N3 N2 1_555 1_555
N4 C1 1_555 1_555
Cu3 N4 1_555 1_555
N9 Cu1 1_555 1_555
N10 Cu1 1_555 1_555
N3 N4 1_555 1_555
Cu1_2 N1_2 1_555 1_555
C1_2 C2 1_555 1_555
C2 H1 1_555 1_555
H2 C2 1_555 1_555
C3 C2 1_555 1_555
H3 C3 1_555 1_555
H4 C3 1_555 1_555
C4 H5 1_555 1_555
H6 C4 1_555 1_555
C5 C4 1_555 1_555
C6 C5 1_555 1_555
N1_2 C1_2 1_555 1_555
N5 Cu1_2 1_555 1_555
N6 N5 1_555 1_555
O1 Cu1_2 1_555 1_555
N9_2 Cu1_2 1_555 1_555
N10_2 Cu1_2 1_555 1_555
C3 O1 1_555 1_555
C4 O1 1_555 1_555
C6 N5 1_555 1_555
N3_2 N2_2 1_555 1_555
N3_2 N9 1_555 1_555
Cu3 N8_2 1_555 1_555
N7_2 N8_2 1_555 1_555
Cu2 N1_3 1_555 1_555
C1_3 C2_2 1_555 1_555
C2_2 H1_2 1_555 1_555
H2_2 C2_2 1_555 1_555
C3_2 C2_2 1_555 1_555
H3_2 C3_2 1_555 1_555
H4_2 C3_2 1_555 1_555
C4_2 H5_2 1_555 1_555
H6_2 C4_2 1_555 1_555
C5_2 C4_2 1_555 1_555
C6_2 C5_2 1_555 1_555
N1_3 C1_3 1_555 1_555
N2_3 N1_3 1_555 1_555
N3_3 N2_3 1_555 1_555
N9_2 C1_3 1_555 1_555
N5_2 Cu2 1_555 1_555
N6_2 N5_2 1_555 1_555
O1_2 Cu2 1_555 1_555
N9_3 Cu2 1_555 1_555
C3_2 O1_2 1_555 1_555
C4_2 O1_2 1_555 1_555
C6_2 N5_2 1_555 1_555
N3_3 N9_2 1_555 1_555
N7_3 N10 1_555 1_555
Cu3 N1_4 1_555 1_555
C1_4 C2_3 1_555 1_555
C2_3 H1_3 1_555 1_555
H2_3 C2_3 1_555 1_555
C3_3 C2_3 1_555 1_555
H4_3 C3_3 1_555 1_555
H6_3 C4_3 1_555 1_555
C5_3 C4_3 1_555 1_555
C6_3 C5_3 1_555 1_555
N1_4 C1_4 1_555 1_555
N2_4 N1_4 1_555 1_555
N3_4 N2_4 1_555 1_555
N9_3 C1_4 1_555 1_555
N5_3 Cu3 1_555 1_555
N6_3 N5_3 1_555 1_555
O1_3 Cu3 1_555 1_555
C3_3 O1_3 1_555 1_555
C4_3 O1_3 1_555 1_555
C6_3 N5_3 1_555 1_555
N3_4 N9_3 1_555 1_555
C2_4 H1_4 1_555 1_555
H2_4 C2_4 1_555 1_555
C3_4 C2_4 1_555 1_555
H3_3 C3_4 1_555 1_555
H4_4 C3_4 1_555 1_555
C4_4 H5_3 1_555 1_555
H6_4 C4_4 1_555 1_555
C5_4 C4_4 1_555 1_555
C6_4 C5_4 1_555 1_555
N6_4 N5_4 1_555 1_555
C3_4 O1_4 1_555 1_555
C4_4 O1_4 1_555 1_555
C6_4 N5_4 1_555 1_555

#END
