
###############################################################################
#
# This file contains modified crystal structure data generated from the
# MOF subset of the Cambridge Structural Database (CSD) v543 
# hosted by the Cambridge Crystallographic Data Centre (CCDC).
#
# This work is licensed under the Creative Commons
# Attribution-NonCommercial-ShareAlike 4.0 International License.
# To view a copy of this license, visit
# http://creativecommons.org/licenses/by-nc-sa/4.0/
# or send a letter to
# Creative Commons, PO Box 1866, Mountain View, CA 94042, USA.
#
# CIF created using the CSD Python API on 29 September 2022
# The structure has been converted into the P1 space group
# The structure has a 3D framework
# The original CSD entry CAYDOX05 is in the tetragonal crystal system
# The original CSD entry CAYDOX05 is in a Sohncke space group
# The framework has been calculated to contain at least 10.0% void space
# The void calculation uses a probe of radius 1.32A, grid spacing 0.4
#
###############################################################################

data_CAYDOX05
_chemical_formula_moiety         '(C24 H32 Cu4 N32 O4)n'
_symmetry_cell_setting           triclinic
_symmetry_space_group_name_H-M   'P 1'
_symmetry_Int_Tables_number      1
_space_group_name_Hall           'P 1'
loop_
_symmetry_equiv_pos_site_id
_symmetry_equiv_pos_as_xyz
1 x,y,z
_cell_length_a                   12.3494(16)
_cell_length_b                   12.3494(16)
_cell_length_c                   7.9086(10)
_cell_angle_alpha                90
_cell_angle_beta                 90
_cell_angle_gamma                90
_cell_volume                     1206.12
loop_
_atom_site_label
_atom_site_type_symbol
_atom_site_fract_x
_atom_site_fract_y
_atom_site_fract_z
Cu2 Cu 0.48564(7) 0.17694(7) 0.00489(14)
H7 H 0.6618 0.0095 0.6650
H8 H 0.6589 0.0430 0.8555
N7 N 0.3439(6) 0.0230(7) 0.8133(10)
N8 N 0.4481(6) 0.0522(6) 0.8530(9)
Cu1 Cu 0.51436(7) 0.82306(7) 0.50489(14)
C1 C 0.6654(8) 0.6461(7) 0.4263(11)
C2 C 0.6757(8) 0.6183(8) 0.6078(12)
H1 H 0.7229 0.5559 0.6189
H2 H 0.6050 0.5981 0.6510
C3 C 0.7203(9) 0.7095(8) 0.7139(13)
H3 H 0.7273 0.6858 0.8304
H4 H 0.7916 0.7295 0.6731
C4 C 0.6848(8) 0.8852(9) 0.8216(13)
H5 H 0.7630 0.8920 0.8178
H6 H 0.6642 0.8659 0.9361
C5 C 0.6349(7) 0.9886(7) 0.7755(15)
C6 C 0.5128(7) 0.9905(6) 0.7702(14)
N1 N 0.5997(6) 0.7250(6) 0.3700(9)
N2 N 0.6061(6) 0.7242(6) 0.1975(9)
N3 N 0.6727(6) 0.6445(7) 0.1538(10)
N4 N 0.7110(5) 0.5953(5) 0.2965(9)
N5 N 0.4553(5) 0.9225(5) 0.6739(9)
N6 N 0.3500(6) 0.9458(6) 0.7033(9)
O1 O 0.6502(5) 0.8009(5) 0.7059(7)
Cu3 Cu 0.82306(7) 0.48564(7) 0.25489(14)
N9 N 0.4047(5) 0.7110(5) 0.5465(9)
N10 N 0.5519(6) 0.9478(6) 0.3530(9)
Cu1_2 Cu 0.17694(7) 0.51436(7) 0.75489(14)
C1_2 C 0.3539(7) 0.6654(8) 0.6763(11)
C2_2 C 0.3817(8) 0.6757(8) 0.8578(12)
H1_2 H 0.4441 0.7229 0.8689
H2_2 H 0.4019 0.6050 0.9010
C3_2 C 0.2905(8) 0.7203(9) 0.9639(13)
H4_2 H 0.2705 0.7916 0.9231
N1_2 N 0.2750(6) 0.5997(6) 0.6200(9)
N2_2 N 0.2758(6) 0.6061(6) 0.4475(9)
N3_2 N 0.3555(7) 0.6727(6) 0.4038(10)
N5_2 N 0.0775(5) 0.4553(5) 0.9239(9)
N6_2 N 0.0542(6) 0.3500(6) 0.9533(9)
O1_2 O 0.1991(5) 0.6502(5) 0.9559(7)
N9_2 N 0.2890(5) 0.4047(5) 0.7965(9)
N10_2 N 0.0522(6) 0.5519(6) 0.6030(9)
H8_2 H 0.9570 0.6589 0.1055
N7_2 N 0.9770(7) 0.3439(6) 0.0633(10)
N8_2 N 0.9478(6) 0.4481(6) 0.1030(9)
C2_3 C 0.3243(8) 0.3817(8) 0.1078(12)
H1_3 H 0.2771 0.4441 0.1189
H2_3 H 0.3950 0.4019 0.1510
C3_3 C 0.2797(9) 0.2905(8) 0.2139(13)
H3_2 H 0.2727 0.3142 0.3304
H4_3 H 0.2084 0.2705 0.1731
C4_2 C 0.3152(8) 0.1148(9) 0.3216(13)
H5_2 H 0.2370 0.1080 0.3178
H6_2 H 0.3358 0.1341 0.4361
C5_2 C 0.3651(7) 0.0114(7) 0.2755(15)
C6_2 C 0.4872(7) 0.0095(6) 0.2702(14)
N5_3 N 0.5447(5) 0.0775(5) 0.1739(9)
N6_3 N 0.6500(6) 0.0542(6) 0.2033(9)
O1_3 O 0.3498(5) 0.1991(5) 0.2059(7)
N9_3 N 0.5953(5) 0.2890(5) 0.0465(9)
C1_3 C 0.3346(8) 0.3539(7) 0.9263(11)
N1_3 N 0.4003(6) 0.2750(6) 0.8700(9)
N2_3 N 0.3939(6) 0.2758(6) 0.6975(9)
N3_3 N 0.3273(6) 0.3555(7) 0.6538(10)
H7_2 H 0.3382 0.9905 0.1650
H8_3 H 0.3411 0.9570 0.3555
N7_3 N 0.6561(6) 0.9770(7) 0.3133(10)
H7_3 H 0.0095 0.3382 0.4150
H8_4 H 0.0430 0.3411 0.6055
N7_4 N 0.0230(7) 0.6561(6) 0.5633(10)
C1_4 C 0.6461(7) 0.3346(8) 0.1763(11)
C2_4 C 0.6183(8) 0.3243(8) 0.3578(12)
H1_4 H 0.5559 0.2771 0.3689
H2_4 H 0.5981 0.3950 0.4010
C3_4 C 0.7095(8) 0.2797(9) 0.4639(13)
H3_3 H 0.6858 0.2727 0.5804
H4_4 H 0.7295 0.2084 0.4231
C4_3 C 0.8852(9) 0.3152(8) 0.5716(13)
H5_3 H 0.8920 0.2370 0.5678
H6_3 H 0.8659 0.3358 0.6861
C5_3 C 0.9886(7) 0.3651(7) 0.5255(15)
C6_3 C 0.9905(6) 0.4872(7) 0.5202(14)
N1_4 N 0.7250(6) 0.4003(6) 0.1200(9)
N5_4 N 0.9225(5) 0.5447(5) 0.4239(9)
N6_4 N 0.9458(6) 0.6500(6) 0.4533(9)
O1_4 O 0.8009(5) 0.3498(5) 0.4559(7)
H3_4 H 0.3142 0.7273 0.0804
C4_4 C 0.1148(9) 0.6848(8) 0.0716(13)
H5_4 H 0.1080 0.7630 0.0678
H6_4 H 0.1341 0.6642 0.1861
C5_4 C 0.0114(7) 0.6349(7) 0.0255(15)
C6_4 C 0.0095(6) 0.5128(7) 0.0202(14)
H7_4 H 0.9905 0.6618 0.9150
N2_4 N 0.7242(6) 0.3939(6) 0.9475(9)
N3_4 N 0.6445(7) 0.3273(6) 0.9038(10)
loop_
_geom_bond_atom_site_label_1
_geom_bond_atom_site_label_2
_geom_bond_site_symmetry_1
_geom_bond_site_symmetry_2
N7 N8 1_555 1_555
Cu1 N1 1_555 1_555
C1 C2 1_555 1_555
C2 H1 1_555 1_555
H2 C2 1_555 1_555
C3 C2 1_555 1_555
H3 C3 1_555 1_555
H4 C3 1_555 1_555
C4 H5 1_555 1_555
H6 C4 1_555 1_555
C5 C4 1_555 1_555
C6 C5 1_555 1_555
N1 C1 1_555 1_555
N2 N1 1_555 1_555
N3 N2 1_555 1_555
N4 C1 1_555 1_555
N5 Cu1 1_555 1_555
N6 N5 1_555 1_555
O1 Cu1 1_555 1_555
Cu3 N4 1_555 1_555
N9 Cu1 1_555 1_555
N10 Cu1 1_555 1_555
C3 O1 1_555 1_555
C4 O1 1_555 1_555
C6 N5 1_555 1_555
N3 N4 1_555 1_555
Cu1_2 N1_2 1_555 1_555
C1_2 C2_2 1_555 1_555
C2_2 H1_2 1_555 1_555
H2_2 C2_2 1_555 1_555
C3_2 C2_2 1_555 1_555
H4_2 C3_2 1_555 1_555
N1_2 C1_2 1_555 1_555
N2_2 N1_2 1_555 1_555
N3_2 N2_2 1_555 1_555
N9 C1_2 1_555 1_555
N5_2 Cu1_2 1_555 1_555
N6_2 N5_2 1_555 1_555
O1_2 Cu1_2 1_555 1_555
N9_2 Cu1_2 1_555 1_555
N10_2 Cu1_2 1_555 1_555
C3_2 O1_2 1_555 1_555
N3_2 N9 1_555 1_555
Cu3 N8_2 1_555 1_555
N7_2 N8_2 1_555 1_555
C2_3 H1_3 1_555 1_555
H2_3 C2_3 1_555 1_555
C3_3 C2_3 1_555 1_555
H3_2 C3_3 1_555 1_555
H4_3 C3_3 1_555 1_555
C4_2 H5_2 1_555 1_555
H6_2 C4_2 1_555 1_555
C5_2 C4_2 1_555 1_555
C6_2 C5_2 1_555 1_555
N5_3 Cu2 1_555 1_555
N6_3 N5_3 1_555 1_555
O1_3 Cu2 1_555 1_555
N9_3 Cu2 1_555 1_555
C3_3 O1_3 1_555 1_555
C4_2 O1_3 1_555 1_555
C6_2 N5_3 1_555 1_555
N1_3 C1_3 1_555 1_555
N2_3 N1_3 1_555 1_555
N3_3 N2_3 1_555 1_555
N9_2 C1_3 1_555 1_555
N3_3 N9_2 1_555 1_555
N7_3 N10 1_555 1_555
N7_4 N10_2 1_555 1_555
Cu3 N1_4 1_555 1_555
C1_4 C2_4 1_555 1_555
C2_4 H1_4 1_555 1_555
H2_4 C2_4 1_555 1_555
C3_4 C2_4 1_555 1_555
H3_3 C3_4 1_555 1_555
H4_4 C3_4 1_555 1_555
C4_3 H5_3 1_555 1_555
H6_3 C4_3 1_555 1_555
C5_3 C4_3 1_555 1_555
C6_3 C5_3 1_555 1_555
N1_4 C1_4 1_555 1_555
N9_3 C1_4 1_555 1_555
N5_4 Cu3 1_555 1_555
N6_4 N5_4 1_555 1_555
O1_4 Cu3 1_555 1_555
C3_4 O1_4 1_555 1_555
C4_3 O1_4 1_555 1_555
C6_3 N5_4 1_555 1_555
C4_4 H5_4 1_555 1_555
H6_4 C4_4 1_555 1_555
C5_4 C4_4 1_555 1_555
C6_4 C5_4 1_555 1_555
N3_4 N2_4 1_555 1_555

#END
