
###############################################################################
#
# This file contains modified crystal structure data generated from the
# MOF subset of the Cambridge Structural Database (CSD) v543 
# hosted by the Cambridge Crystallographic Data Centre (CCDC).
#
# This work is licensed under the Creative Commons
# Attribution-NonCommercial-ShareAlike 4.0 International License.
# To view a copy of this license, visit
# http://creativecommons.org/licenses/by-nc-sa/4.0/
# or send a letter to
# Creative Commons, PO Box 1866, Mountain View, CA 94042, USA.
#
# CIF created using the CSD Python API on 29 September 2022
# The structure has been converted into the P1 space group
# The structure has a 3D framework
# The original CSD entry CAYDOX06 is in the tetragonal crystal system
# The original CSD entry CAYDOX06 is in a Sohncke space group
# The framework has been calculated to contain at least 10.0% void space
# The void calculation uses a probe of radius 1.32A, grid spacing 0.4
#
###############################################################################

data_CAYDOX06
_chemical_formula_moiety         '(C24 H32 Cu4 N32 O4)n'
_symmetry_cell_setting           triclinic
_symmetry_space_group_name_H-M   'P 1'
_symmetry_Int_Tables_number      1
_space_group_name_Hall           'P 1'
loop_
_symmetry_equiv_pos_site_id
_symmetry_equiv_pos_as_xyz
1 x,y,z
_cell_length_a                   12.414(4)
_cell_length_b                   12.414(4)
_cell_length_c                   7.944(3)
_cell_angle_alpha                90
_cell_angle_beta                 90
_cell_angle_gamma                90
_cell_volume                     1224.23
loop_
_atom_site_label
_atom_site_type_symbol
_atom_site_fract_x
_atom_site_fract_y
_atom_site_fract_z
H7 H 0.0143 0.6623 0.2489
H8 H 0.0439 0.6548 0.0575
N7 N 0.0221(10) 0.3436(9) 0.1066(14)
N8 N 0.0512(8) 0.4473(9) 0.0593(14)
Cu3 Cu 0.17716(12) 0.48593(12) 0.9122(2)
Cu1 Cu 0.82284(12) 0.51407(12) 0.4122(2)
C1 C 0.6468(15) 0.6665(12) 0.4924(16)
C2 C 0.6187(12) 0.6764(12) 0.3088(16)
H1 H 0.5993 0.6058 0.2660
H2 H 0.5562 0.7227 0.2975
C3 C 0.7079(12) 0.7207(11) 0.2043(19)
H3 H 0.6840 0.7278 0.0886
H4 H 0.7273 0.7918 0.2451
C4 C 0.8838(12) 0.6811(11) 0.0963(16)
H5 H 0.8901 0.7590 0.0944
C5 C 0.9913(11) 0.6332(10) 0.1414(19)
C6 C 0.9898(10) 0.5117(11) 0.153(2)
N1 N 0.7244(9) 0.5999(8) 0.5495(12)
N2 N 0.7256(9) 0.6044(10) 0.7181(13)
N3 N 0.6465(11) 0.6752(10) 0.7640(16)
N4 N 0.5963(9) 0.7106(8) 0.6208(13)
N5 N 0.9217(8) 0.4532(9) 0.2417(13)
N6 N 0.9433(9) 0.3511(10) 0.2134(15)
O1 O 0.8001(8) 0.6513(7) 0.2113(10)
Cu2 Cu 0.48593(12) 0.82284(12) 0.6622(2)
N9 N 0.7106(8) 0.4037(9) 0.3708(13)
N10 N 0.9488(8) 0.5527(9) 0.5593(14)
H7_2 H 0.3377 0.0143 0.4989
H8_2 H 0.3452 0.0439 0.3075
N7_2 N 0.6564(9) 0.0221(10) 0.3566(14)
N8_2 N 0.5527(9) 0.0512(8) 0.3093(14)
Cu3_2 Cu 0.51407(12) 0.17716(12) 0.1622(2)
C1_2 C 0.3335(12) 0.6468(15) 0.7424(16)
C2_2 C 0.3236(12) 0.6187(12) 0.5588(16)
H1_2 H 0.3942 0.5993 0.5160
H2_2 H 0.2773 0.5562 0.5475
C3_2 C 0.2793(11) 0.7079(12) 0.4543(19)
H3_2 H 0.2722 0.6840 0.3386
H4_2 H 0.2082 0.7273 0.4951
C4_2 C 0.3189(11) 0.8838(12) 0.3463(16)
H5_2 H 0.2410 0.8901 0.3444
H6 H 0.3424 0.8640 0.2340
C5_2 C 0.3668(10) 0.9913(11) 0.3914(19)
C6_2 C 0.4883(11) 0.9898(10) 0.403(2)
N1_2 N 0.4001(8) 0.7244(9) 0.7995(12)
N2_2 N 0.3956(10) 0.7256(9) 0.9681(13)
N4_2 N 0.2894(8) 0.5963(9) 0.8708(13)
N5_2 N 0.5468(9) 0.9217(8) 0.4917(13)
N6_2 N 0.6489(10) 0.9433(9) 0.4634(15)
O1_2 O 0.3487(7) 0.8001(8) 0.4613(10)
N10_2 N 0.4473(9) 0.9488(8) 0.8093(14)
N1_3 N 0.2756(9) 0.4001(8) 0.0495(12)
N2_3 N 0.2744(9) 0.3956(10) 0.2181(13)
N3_2 N 0.3535(11) 0.3248(10) 0.2640(16)
N4_3 N 0.4037(9) 0.2894(8) 0.1208(13)
C1_3 C 0.3532(15) 0.3335(12) 0.9924(16)
C2_3 C 0.3813(12) 0.3236(12) 0.8088(16)
H1_3 H 0.4007 0.3942 0.7660
H2_3 H 0.4438 0.2773 0.7975
C3_3 C 0.2921(12) 0.2793(11) 0.7043(19)
H3_3 H 0.3160 0.2722 0.5886
H4_3 H 0.2727 0.2082 0.7451
C4_3 C 0.1162(12) 0.3189(11) 0.5963(16)
H5_3 H 0.1099 0.2410 0.5944
H6_2 H 0.1360 0.3424 0.4840
C5_3 C 0.0087(11) 0.3668(10) 0.6414(19)
C6_3 C 0.0102(10) 0.4883(11) 0.653(2)
N5_3 N 0.0783(8) 0.5468(9) 0.7417(13)
N6_3 N 0.0567(9) 0.6489(10) 0.7134(15)
O1_3 O 0.1999(8) 0.3487(7) 0.7113(10)
H7_3 H 0.9857 0.3377 0.7489
H8_3 H 0.9561 0.3452 0.5575
N7_3 N 0.9779(10) 0.6564(9) 0.6066(14)
C1_4 C 0.6665(12) 0.3532(15) 0.2424(16)
C2_4 C 0.6764(12) 0.3813(12) 0.0588(16)
H1_4 H 0.6058 0.4007 0.0160
H2_4 H 0.7227 0.4438 0.0475
N1_4 N 0.5999(8) 0.2756(9) 0.2995(12)
N2_4 N 0.6044(10) 0.2744(9) 0.4681(13)
N3_3 N 0.6752(10) 0.3535(11) 0.5140(16)
H7_4 H 0.6623 0.9857 0.9989
H8_4 H 0.6548 0.9561 0.8075
N7_4 N 0.3436(9) 0.9779(10) 0.8566(14)
H6_3 H 0.8640 0.6576 0.9840
N3_4 N 0.3248(10) 0.6465(11) 0.0140(16)
C3_4 C 0.7207(11) 0.2921(12) 0.9543(19)
H3_4 H 0.7278 0.3160 0.8386
H4_4 H 0.7918 0.2727 0.9951
C4_4 C 0.6811(11) 0.1162(12) 0.8463(16)
H5_4 H 0.7590 0.1099 0.8444
H6_4 H 0.6576 0.1360 0.7340
C5_4 C 0.6332(10) 0.0087(11) 0.8914(19)
C6_4 C 0.5117(11) 0.0102(10) 0.903(2)
N5_4 N 0.4532(9) 0.0783(8) 0.9917(13)
N6_4 N 0.3511(10) 0.0567(9) 0.9634(15)
O1_4 O 0.6513(7) 0.1999(8) 0.9613(10)
loop_
_geom_bond_atom_site_label_1
_geom_bond_atom_site_label_2
_geom_bond_site_symmetry_1
_geom_bond_site_symmetry_2
N7 N8 1_555 1_555
Cu1 N1 1_555 1_555
C1 C2 1_555 1_555
C2 H1 1_555 1_555
H2 C2 1_555 1_555
C3 C2 1_555 1_555
H3 C3 1_555 1_555
H4 C3 1_555 1_555
C4 H5 1_555 1_555
C5 C4 1_555 1_555
C6 C5 1_555 1_555
N1 C1 1_555 1_555
N2 N1 1_555 1_555
N3 N2 1_555 1_555
N4 C1 1_555 1_555
N5 Cu1 1_555 1_555
N6 N5 1_555 1_555
O1 Cu1 1_555 1_555
Cu2 N4 1_555 1_555
N9 Cu1 1_555 1_555
N10 Cu1 1_555 1_555
C3 O1 1_555 1_555
C4 O1 1_555 1_555
C6 N5 1_555 1_555
N3 N4 1_555 1_555
Cu3_2 N8_2 1_555 1_555
N7_2 N8_2 1_555 1_555
Cu2 N1_2 1_555 1_555
C1_2 C2_2 1_555 1_555
C2_2 H1_2 1_555 1_555
H2_2 C2_2 1_555 1_555
C3_2 C2_2 1_555 1_555
H3_2 C3_2 1_555 1_555
H4_2 C3_2 1_555 1_555
C4_2 H5_2 1_555 1_555
H6 C4_2 1_555 1_555
C5_2 C4_2 1_555 1_555
C6_2 C5_2 1_555 1_555
N1_2 C1_2 1_555 1_555
N2_2 N1_2 1_555 1_555
N4_2 C1_2 1_555 1_555
N5_2 Cu2 1_555 1_555
N6_2 N5_2 1_555 1_555
O1_2 Cu2 1_555 1_555
Cu3 N4_2 1_555 1_555
N10_2 Cu2 1_555 1_555
C3_2 O1_2 1_555 1_555
C4_2 O1_2 1_555 1_555
C6_2 N5_2 1_555 1_555
N2_3 N1_3 1_555 1_555
N3_2 N2_3 1_555 1_555
Cu3_2 N4_3 1_555 1_555
N3_2 N4_3 1_555 1_555
C1_3 C2_3 1_555 1_555
C2_3 H1_3 1_555 1_555
H2_3 C2_3 1_555 1_555
C3_3 C2_3 1_555 1_555
H3_3 C3_3 1_555 1_555
H4_3 C3_3 1_555 1_555
C4_3 H5_3 1_555 1_555
H6_2 C4_3 1_555 1_555
C5_3 C4_3 1_555 1_555
C6_3 C5_3 1_555 1_555
N5_3 Cu3 1_555 1_555
N6_3 N5_3 1_555 1_555
O1_3 Cu3 1_555 1_555
C3_3 O1_3 1_555 1_555
C4_3 O1_3 1_555 1_555
C6_3 N5_3 1_555 1_555
N7_3 N10 1_555 1_555
Cu3_2 N1_4 1_555 1_555
C1_4 C2_4 1_555 1_555
C2_4 H1_4 1_555 1_555
H2_4 C2_4 1_555 1_555
N1_4 C1_4 1_555 1_555
N2_4 N1_4 1_555 1_555
N3_3 N2_4 1_555 1_555
N9 C1_4 1_555 1_555
N3_3 N9 1_555 1_555
N7_4 N10_2 1_555 1_555
H3_4 C3_4 1_555 1_555
H4_4 C3_4 1_555 1_555
C4_4 H5_4 1_555 1_555
H6_4 C4_4 1_555 1_555
C5_4 C4_4 1_555 1_555
C6_4 C5_4 1_555 1_555
N6_4 N5_4 1_555 1_555
C3_4 O1_4 1_555 1_555
C4_4 O1_4 1_555 1_555
C6_4 N5_4 1_555 1_555

#END
