
###############################################################################
#
# This file contains modified crystal structure data generated from the
# MOF subset of the Cambridge Structural Database (CSD) v543 
# hosted by the Cambridge Crystallographic Data Centre (CCDC).
#
# This work is licensed under the Creative Commons
# Attribution-NonCommercial-ShareAlike 4.0 International License.
# To view a copy of this license, visit
# http://creativecommons.org/licenses/by-nc-sa/4.0/
# or send a letter to
# Creative Commons, PO Box 1866, Mountain View, CA 94042, USA.
#
# CIF created using the CSD Python API on 29 September 2022
# The structure has been converted into the P1 space group
# The structure has a 3D framework
# The original CSD entry CAYGIU is in the tetragonal crystal system
# The original CSD entry CAYGIU is in a Sohncke space group
# The framework has been calculated to contain at least 10.0% void space
# The void calculation uses a probe of radius 1.32A, grid spacing 0.4
#
###############################################################################

data_CAYGIU
_chemical_formula_moiety         '(C24 H32 Cu4 N32 O4)n'
_symmetry_cell_setting           triclinic
_symmetry_space_group_name_H-M   'P 1'
_symmetry_Int_Tables_number      1
_space_group_name_Hall           'P 1'
loop_
_symmetry_equiv_pos_site_id
_symmetry_equiv_pos_as_xyz
1 x,y,z
_cell_length_a                   12.37510(10)
_cell_length_b                   12.37510(10)
_cell_length_c                   7.92260(10)
_cell_angle_alpha                90
_cell_angle_beta                 90
_cell_angle_gamma                90
_cell_volume                     1213.29
loop_
_atom_site_label
_atom_site_type_symbol
_atom_site_fract_x
_atom_site_fract_y
_atom_site_fract_z
H7 H 0.0087 0.6594 0.2264
H8 H 0.0455 0.6572 0.4154
N7 N 0.0239(4) 0.3458(4) 0.3780(7)
N8 N 0.0523(3) 0.4481(4) 0.4206(6)
Cu3 Cu 0.17705(4) 0.48575(4) 0.57073(7)
Cu1 Cu 0.82295(4) 0.51425(4) 0.07073(7)
C2 C 0.6182(5) 0.6770(5) 0.1739(7)
H1 H 0.5972 0.6070 0.2180
H2 H 0.5564 0.7248 0.1838
C3 C 0.7084(5) 0.7210(5) 0.2808(7)
H3 H 0.7284 0.7924 0.2411
H4 H 0.6844 0.7274 0.3969
C4 C 0.8846(5) 0.6817(5) 0.3892(8)
H5 H 0.8659 0.6575 0.5019
H6 H 0.8912 0.7598 0.3914
C5 C 0.9900(5) 0.6330(4) 0.3378(9)
C6 C 0.9900(4) 0.5127(4) 0.3344(8)
N5 N 0.9229(3) 0.4542(3) 0.2390(6)
N6 N 0.9458(4) 0.3510(3) 0.2693(6)
O1 O 0.8002(3) 0.6509(3) 0.2727(5)
N9 N 0.7102(3) 0.4036(3) 0.1116(5)
C1 C 0.6458(4) 0.6649(4) 0.9915(7)
N1 N 0.7248(4) 0.6000(4) 0.9351(6)
N2 N 0.7242(4) 0.6071(4) 0.7649(6)
N3 N 0.6461(4) 0.6725(4) 0.7194(6)
N4 N 0.5964(3) 0.7102(3) 0.8616(5)
Cu2 Cu 0.48575(4) 0.82295(4) 0.82073(7)
N10 N 0.9477(3) 0.5519(4) 0.9206(6)
H8_2 H 0.3428 0.0455 0.1654
N7_2 N 0.6542(4) 0.0239(4) 0.1280(7)
N8_2 N 0.5519(4) 0.0523(3) 0.1706(6)
Cu3_2 Cu 0.51425(4) 0.17705(4) 0.32073(7)
C1_2 C 0.3351(4) 0.6458(4) 0.7415(7)
C2_2 C 0.3230(5) 0.6182(5) 0.9239(7)
H1_2 H 0.3930 0.5972 0.9680
H2_2 H 0.2752 0.5564 0.9338
H3_2 H 0.2076 0.7284 0.9911
N1_2 N 0.4000(4) 0.7248(4) 0.6851(6)
N2_2 N 0.3929(4) 0.7242(4) 0.5149(6)
N3_2 N 0.3275(4) 0.6461(4) 0.4694(6)
N4_2 N 0.2898(3) 0.5964(3) 0.6116(5)
N5_2 N 0.5458(3) 0.9229(3) 0.9890(6)
N10_2 N 0.4481(4) 0.9477(3) 0.6706(6)
C1_3 C 0.3542(4) 0.3351(4) 0.4915(7)
C2_3 C 0.3818(5) 0.3230(5) 0.6739(7)
H1_3 H 0.4028 0.3930 0.7180
H2_3 H 0.4436 0.2752 0.6838
C3_2 C 0.2916(5) 0.2790(5) 0.7808(7)
H3_3 H 0.2716 0.2076 0.7411
H4_2 H 0.3156 0.2726 0.8969
C4_2 C 0.1154(5) 0.3183(5) 0.8892(8)
H6_2 H 0.1088 0.2402 0.8914
C5_2 C 0.0100(5) 0.3670(4) 0.8378(9)
C6_2 C 0.0100(4) 0.4873(4) 0.8344(8)
N1_3 N 0.2752(4) 0.4000(4) 0.4351(6)
N2_3 N 0.2758(4) 0.3929(4) 0.2649(6)
N3_3 N 0.3539(4) 0.3275(4) 0.2194(6)
N4_3 N 0.4036(3) 0.2898(3) 0.3616(5)
N5_3 N 0.0771(3) 0.5458(3) 0.7390(6)
N6_2 N 0.0542(4) 0.6490(3) 0.7693(6)
O1_2 O 0.1998(3) 0.3491(3) 0.7727(5)
H7_2 H 0.9913 0.3406 0.7264
H8_3 H 0.9545 0.3428 0.9154
N7_3 N 0.9761(4) 0.6542(4) 0.8780(7)
C1_4 C 0.6649(4) 0.3542(4) 0.2415(7)
C2_4 C 0.6770(5) 0.3818(5) 0.4239(7)
H1_4 H 0.6070 0.4028 0.4680
H2_4 H 0.7248 0.4436 0.4338
C3_3 C 0.7210(5) 0.2916(5) 0.5308(7)
H3_4 H 0.7924 0.2716 0.4911
H4_3 H 0.7274 0.3156 0.6469
C4_3 C 0.6817(5) 0.1154(5) 0.6392(8)
H5_2 H 0.6575 0.1341 0.7519
H6_3 H 0.7598 0.1088 0.6414
C5_3 C 0.6330(4) 0.0100(5) 0.5878(9)
C6_3 C 0.5127(4) 0.0100(4) 0.5844(8)
N1_4 N 0.6000(4) 0.2752(4) 0.1851(6)
N2_4 N 0.6071(4) 0.2758(4) 0.0149(6)
N5_4 N 0.4542(3) 0.0771(3) 0.4890(6)
N6_3 N 0.3510(3) 0.0542(4) 0.5193(6)
O1_3 O 0.6509(3) 0.1998(3) 0.5227(5)
H7_3 H 0.6594 0.9913 0.4764
H8_4 H 0.6572 0.9545 0.6654
N7_4 N 0.3458(4) 0.9761(4) 0.6280(7)
H7_4 H 0.3406 0.0087 0.9764
C3_4 C 0.2790(5) 0.7084(5) 0.0308(7)
H4_4 H 0.2726 0.6844 0.1469
C4_4 C 0.3183(5) 0.8846(5) 0.1392(8)
H5_3 H 0.3425 0.8659 0.2519
H6_4 H 0.2402 0.8912 0.1414
C5_4 C 0.3670(4) 0.9900(5) 0.0878(9)
C6_4 C 0.4873(4) 0.9900(4) 0.0844(8)
N6_4 N 0.6490(3) 0.9458(4) 0.0193(6)
O1_4 O 0.3491(3) 0.8002(3) 0.0227(5)
H5_4 H 0.1341 0.3425 0.0019
N3_4 N 0.6725(4) 0.3539(4) 0.9694(6)
loop_
_geom_bond_atom_site_label_1
_geom_bond_atom_site_label_2
_geom_bond_site_symmetry_1
_geom_bond_site_symmetry_2
Cu3 N8 1_555 1_555
N7 N8 1_555 1_555
C2 H1 1_555 1_555
H2 C2 1_555 1_555
C3 C2 1_555 1_555
H3 C3 1_555 1_555
H4 C3 1_555 1_555
C4 H5 1_555 1_555
H6 C4 1_555 1_555
C5 C4 1_555 1_555
C6 C5 1_555 1_555
N5 Cu1 1_555 1_555
N6 N5 1_555 1_555
O1 Cu1 1_555 1_555
N9 Cu1 1_555 1_555
C3 O1 1_555 1_555
C4 O1 1_555 1_555
C6 N5 1_555 1_555
N1 C1 1_555 1_555
N2 N1 1_555 1_555
N3 N2 1_555 1_555
N4 C1 1_555 1_555
Cu2 N4 1_555 1_555
N3 N4 1_555 1_555
Cu3_2 N8_2 1_555 1_555
N7_2 N8_2 1_555 1_555
Cu2 N1_2 1_555 1_555
C1_2 C2_2 1_555 1_555
C2_2 H1_2 1_555 1_555
H2_2 C2_2 1_555 1_555
N1_2 C1_2 1_555 1_555
N2_2 N1_2 1_555 1_555
N3_2 N2_2 1_555 1_555
N4_2 C1_2 1_555 1_555
N5_2 Cu2 1_555 1_555
Cu3 N4_2 1_555 1_555
N10_2 Cu2 1_555 1_555
N3_2 N4_2 1_555 1_555
Cu3 N1_3 1_555 1_555
C1_3 C2_3 1_555 1_555
C2_3 H1_3 1_555 1_555
H2_3 C2_3 1_555 1_555
C3_2 C2_3 1_555 1_555
H3_3 C3_2 1_555 1_555
H4_2 C3_2 1_555 1_555
H6_2 C4_2 1_555 1_555
C5_2 C4_2 1_555 1_555
C6_2 C5_2 1_555 1_555
N1_3 C1_3 1_555 1_555
N2_3 N1_3 1_555 1_555
N3_3 N2_3 1_555 1_555
N4_3 C1_3 1_555 1_555
N5_3 Cu3 1_555 1_555
N6_2 N5_3 1_555 1_555
O1_2 Cu3 1_555 1_555
Cu3_2 N4_3 1_555 1_555
C3_2 O1_2 1_555 1_555
C4_2 O1_2 1_555 1_555
C6_2 N5_3 1_555 1_555
N3_3 N4_3 1_555 1_555
N7_3 N10 1_555 1_555
Cu3_2 N1_4 1_555 1_555
C1_4 C2_4 1_555 1_555
C2_4 H1_4 1_555 1_555
H2_4 C2_4 1_555 1_555
C3_3 C2_4 1_555 1_555
H3_4 C3_3 1_555 1_555
H4_3 C3_3 1_555 1_555
C4_3 H5_2 1_555 1_555
H6_3 C4_3 1_555 1_555
C5_3 C4_3 1_555 1_555
C6_3 C5_3 1_555 1_555
N1_4 C1_4 1_555 1_555
N2_4 N1_4 1_555 1_555
N9 C1_4 1_555 1_555
N5_4 Cu3_2 1_555 1_555
N6_3 N5_4 1_555 1_555
O1_3 Cu3_2 1_555 1_555
C3_3 O1_3 1_555 1_555
C4_3 O1_3 1_555 1_555
C6_3 N5_4 1_555 1_555
N7_4 N10_2 1_555 1_555
H4_4 C3_4 1_555 1_555
C4_4 H5_3 1_555 1_555
H6_4 C4_4 1_555 1_555
C5_4 C4_4 1_555 1_555
C6_4 C5_4 1_555 1_555
C3_4 O1_4 1_555 1_555
C4_4 O1_4 1_555 1_555

#END
