
###############################################################################
#
# This file contains modified crystal structure data generated from the
# MOF subset of the Cambridge Structural Database (CSD) v543 
# hosted by the Cambridge Crystallographic Data Centre (CCDC).
#
# This work is licensed under the Creative Commons
# Attribution-NonCommercial-ShareAlike 4.0 International License.
# To view a copy of this license, visit
# http://creativecommons.org/licenses/by-nc-sa/4.0/
# or send a letter to
# Creative Commons, PO Box 1866, Mountain View, CA 94042, USA.
#
# CIF created using the CSD Python API on 29 September 2022
# The structure has been converted into the P1 space group
# The structure has a 3D framework
# The original CSD entry CAYKEU is in the orthorhombic crystal system
# The framework has been calculated to contain at least 10.0% void space
# The void calculation uses a probe of radius 1.32A, grid spacing 0.4
# H atom positions have been added when not included in the experimental data
# Generated hydrogen atom positions removed from atoms on special positions
#
###############################################################################

data_CAYKEU
_chemical_formula_moiety         '(C96 H232 O144 Pr20 S16)n'
_symmetry_cell_setting           triclinic
_symmetry_space_group_name_H-M   'P 1'
_symmetry_Int_Tables_number      1
_space_group_name_Hall           'P 1'
loop_
_symmetry_equiv_pos_site_id
_symmetry_equiv_pos_as_xyz
1 x,y,z
_cell_length_a                   21.859(4)
_cell_length_b                   11.5288(18)
_cell_length_c                   21.861(3)
_cell_angle_alpha                90
_cell_angle_beta                 90
_cell_angle_gamma                90
_cell_volume                     5509.15
loop_
_atom_site_label
_atom_site_type_symbol
_atom_site_fract_x
_atom_site_fract_y
_atom_site_fract_z
Pr1 Pr 0.0000 0.04248(5) 0.65343(3)
O8 O 0.0000 0.1439(7) 0.5490(4)
O9 O 0.0000 0.2603(8) 0.6778(6)
Pr4 Pr 0.0000 0.04248(5) 0.84657(3)
O18 O 0.1096(3) 0.1415(6) 0.6370(3)
O23 O 0.0601(4) 0.0236(6) 0.7500
H6 H 0.0942 0.0589 0.7500
H12 H 0.0303873 0.276509 0.710465
H14 H 0.0250772 0.215581 0.55135
O6 O 0.0000 0.8403(6) 0.6889(3)
H1 H 0.0000 0.8067 0.6543
Pr5 Pr 0.0000 0.95752(5) 0.34657(3)
Pr7 Pr 0.09344(3) 0.81710(5) 0.7500
O16 O 0.0634(3) 0.9302(5) 0.5765(3)
O22 O 0.0000 0.8403(6) 0.8111(3)
H5 H -0.0000 0.8067 0.8457
Pr1_2 Pr 1.0000 0.04248(5) 0.65343(3)
O7 O 0.9399(4) 0.0236(6) 0.7500
H2 H 0.9058 0.0589 0.7500
O8_2 O 1.0000 0.1439(7) 0.5490(4)
O9_2 O 1.0000 0.2603(8) 0.6778(6)
Pr4_2 Pr 1.0000 0.04248(5) 0.84657(3)
O19 O 0.8904(3) 0.1415(6) 0.6370(3)
H11 H 0.958668 0.283969 0.691922
H13 H 0.957393 0.164341 0.53751
Pr2 Pr 0.90656(3) 0.81710(5) 0.7500
S1 S 0.67018(12) 0.69006(19) 0.63205(10)
O1 O 0.8744(3) 0.8747(6) 0.6515(3)
O2 O 0.9366(3) 0.9302(5) 0.5765(3)
O3 O 0.6096(3) 0.6415(6) 0.6370(3)
O4 O 0.6745(4) 0.8064(6) 0.6562(3)
O5 O 0.7171(4) 0.6146(7) 0.6577(3)
O6_2 O 1.0000 0.8403(6) 0.6889(3)
H1_2 H 1.0000 0.8067 0.6543
O10 O 0.8088(5) 0.9476(8) 0.7500
O11 O 0.8060(5) 0.6963(10) 0.7500
O12 O 0.9231(5) 0.6283(7) 0.6836(6)
C1 C 0.8878(4) 0.8858(7) 0.5952(4)
C2 C 0.8417(4) 0.8413(7) 0.5510(4)
C3 C 0.7880(4) 0.7955(7) 0.5718(4)
H3 H 0.7806 0.7949 0.6137
C4 C 0.7437(4) 0.7495(7) 0.5325(4)
C5 C 0.6877(4) 0.6988(7) 0.5524(4)
C6 C 0.6468(4) 0.6552(7) 0.5123(4)
H4 H 0.6106 0.6225 0.5267
Pr3 Pr 0.5000 0.54248(5) 0.65343(3)
Pr5_2 Pr 1.0000 0.95752(5) 0.34657(3)
Pr6 Pr 0.5000 0.45752(5) 0.34657(3)
Pr8 Pr 0.59344(3) 0.68290(5) 0.2500
S2 S 0.82982(12) 0.80994(19) 0.36795(10)
O13 O 0.6256(3) 0.6253(6) 0.3485(3)
O14 O 0.8744(3) 0.8747(6) 0.8485(3)
O15 O 0.5634(3) 0.5698(5) 0.4235(3)
O17 O 0.8904(3) 0.8585(6) 0.3630(3)
O20 O 0.8255(4) 0.6936(6) 0.3438(3)
O21 O 0.7829(4) 0.8854(7) 0.3423(3)
O22_2 O 1.0000 0.8403(6) 0.8111(3)
H5_2 H 1.0000 0.8067 0.8457
O24 O 0.9231(5) 0.6283(7) 0.8164(6)
C7 C 0.6122(4) 0.6142(7) 0.4048(4)
C8 C 0.6583(4) 0.6587(7) 0.4490(4)
C9 C 0.7120(4) 0.7045(7) 0.4282(4)
H7 H 0.7194 0.7051 0.3863
C10 C 0.7563(4) 0.7505(7) 0.4675(4)
C11 C 0.8123(4) 0.8012(7) 0.4476(4)
C12 C 0.8532(4) 0.8448(7) 0.4877(4)
H8 H 0.8894 0.8775 0.4733
Pr2_2 Pr 0.09344(3) 0.18290(5) 0.2500
S1_2 S 0.32982(12) 0.30994(19) 0.13205(10)
O1_2 O 0.1256(3) 0.1253(6) 0.1515(3)
O2_2 O 0.0634(3) 0.0698(5) 0.0765(3)
O3_2 O 0.3904(3) 0.3585(6) 0.1370(3)
O4_2 O 0.3255(4) 0.1936(6) 0.1562(3)
O5_2 O 0.2829(4) 0.3854(7) 0.1577(3)
O6_3 O 0.0000 0.1597(6) 0.1889(3)
H1_3 H 0.0000 0.1933 0.1543
O10_2 O 0.1912(5) 0.0524(8) 0.2500
O11_2 O 0.1940(5) 0.3037(10) 0.2500
O12_2 O 0.0769(5) 0.3717(7) 0.1836(6)
C1_2 C 0.1122(4) 0.1142(7) 0.0952(4)
C2_2 C 0.1583(4) 0.1587(7) 0.0510(4)
C3_2 C 0.2120(4) 0.2045(7) 0.0718(4)
H3_2 H 0.2194 0.2051 0.1137
C4_2 C 0.2563(4) 0.2505(7) 0.0325(4)
C5_2 C 0.3123(4) 0.3012(7) 0.0524(4)
C6_2 C 0.3532(4) 0.3448(7) 0.0123(4)
H4_2 H 0.3894 0.3775 0.0267
Pr3_2 Pr 0.5000 0.45752(5) 0.15343(3)
O14_2 O 0.1256(3) 0.1253(6) 0.3485(3)
O22_3 O -0.0000 0.1597(6) 0.3111(3)
H5_3 H -0.0000 0.1933 0.3457
O24_2 O 0.0769(5) 0.3717(7) 0.3164(6)
Pr6_2 Pr 0.5000 0.54248(5) 0.84657(3)
Pr8_2 Pr 0.40656(3) 0.31710(5) 0.7500
S2_2 S 0.17018(12) 0.19006(19) 0.86795(10)
O13_2 O 0.3744(3) 0.3747(6) 0.8485(3)
O15_2 O 0.4366(3) 0.4302(5) 0.9235(3)
O17_2 O 0.1096(3) 0.1415(6) 0.8630(3)
O20_2 O 0.1745(4) 0.3064(6) 0.8438(3)
O21_2 O 0.2171(4) 0.1146(7) 0.8423(3)
C7_2 C 0.3878(4) 0.3858(7) 0.9048(4)
C8_2 C 0.3417(4) 0.3413(7) 0.9490(4)
C9_2 C 0.2880(4) 0.2955(7) 0.9282(4)
H7_2 H 0.2806 0.2949 0.8863
C10_2 C 0.2437(4) 0.2495(7) 0.9675(4)
C11_2 C 0.1877(4) 0.1988(7) 0.9476(4)
C12_2 C 0.1468(4) 0.1552(7) 0.9877(4)
H8_2 H 0.1106 0.1225 0.9733
Pr1_3 Pr 0.0000 0.95752(5) 0.15343(3)
O7_2 O 0.0601(4) 0.9764(6) 0.2500
H2_2 H 0.0942 0.9411 0.2500
O8_3 O 0.0000 0.8561(7) 0.0490(4)
O9_3 O -0.0000 0.7397(8) 0.1778(6)
O19_2 O 0.1096(3) 0.8585(6) 0.1370(3)
H11_2 H 0.0413323 0.716031 0.191922
H13_2 H 0.0426072 0.835659 0.0375097
O6_4 O 1.0000 0.1597(6) 0.1889(3)
H1_4 H 1.0000 0.1933 0.1543
Pr7_2 Pr 0.90656(3) 0.18290(5) 0.2500
O16_2 O 0.9366(3) 0.0698(5) 0.0765(3)
O22_4 O 1.0000 0.1597(6) 0.3111(3)
H5_4 H 1.0000 0.1933 0.3457
Pr1_4 Pr 1.0000 0.95752(5) 0.15343(3)
O8_4 O 1.0000 0.8561(7) 0.0490(4)
O9_4 O 1.0000 0.7397(8) 0.1778(6)
O18_2 O 0.8904(3) 0.8585(6) 0.1370(3)
O23_2 O 0.9399(4) 0.9764(6) 0.2500
H6_2 H 0.9058 0.9411 0.2500
H12_2 H 0.969613 0.723491 0.210465
H14_2 H 0.974923 0.784419 0.0513496
O8_5 O 0.0000 0.1439(7) 0.9510(4)
O9_5 O -0.0000 0.2603(8) 0.8222(6)
H11_3 H 0.0413323 0.283969 0.808078
H13_3 H 0.0426072 0.164341 0.96249
Pr8_3 Pr 0.40656(3) 0.68290(5) 0.2500
S2_3 S 0.17018(12) 0.80994(19) 0.13205(10)
O13_3 O 0.3744(3) 0.6253(6) 0.1515(3)
O15_3 O 0.4366(3) 0.5698(5) 0.0765(3)
O20_3 O 0.1745(4) 0.6936(6) 0.1562(3)
O21_3 O 0.2171(4) 0.8854(7) 0.1577(3)
C7_3 C 0.3878(4) 0.6142(7) 0.0952(4)
C8_3 C 0.3417(4) 0.6587(7) 0.0510(4)
C9_3 C 0.2880(4) 0.7045(7) 0.0718(4)
H7_3 H 0.2806 0.7051 0.1137
C10_3 C 0.2437(4) 0.7505(7) 0.0325(4)
C11_3 C 0.1877(4) 0.8012(7) 0.0524(4)
C12_3 C 0.1468(4) 0.8448(7) 0.0123(4)
H8_3 H 0.1106 0.8775 0.0267
S1_3 S 0.32982(12) 0.69006(19) 0.86795(10)
O1_3 O 0.1256(3) 0.8747(6) 0.8485(3)
O2_3 O 0.0634(3) 0.9302(5) 0.9235(3)
O3_3 O 0.3904(3) 0.6415(6) 0.8630(3)
O4_3 O 0.3255(4) 0.8064(6) 0.8438(3)
O5_3 O 0.2829(4) 0.6146(7) 0.8423(3)
O10_3 O 0.1912(5) 0.9476(8) 0.7500
O11_3 O 0.1940(5) 0.6963(10) 0.7500
O12_3 O 0.0769(5) 0.6283(7) 0.8164(6)
C1_3 C 0.1122(4) 0.8858(7) 0.9048(4)
C2_3 C 0.1583(4) 0.8413(7) 0.9490(4)
C3_3 C 0.2120(4) 0.7955(7) 0.9282(4)
H3_3 H 0.2194 0.7949 0.8863
C4_3 C 0.2563(4) 0.7495(7) 0.9675(4)
C5_3 C 0.3123(4) 0.6988(7) 0.9476(4)
C6_3 C 0.3532(4) 0.6552(7) 0.9877(4)
H4_3 H 0.3894 0.6225 0.9733
O14_3 O 0.1256(3) 0.8747(6) 0.6515(3)
O24_3 O 0.0769(5) 0.6283(7) 0.6836(6)
O8_6 O 1.0000 0.1439(7) 0.9510(4)
O9_6 O 1.0000 0.2603(8) 0.8222(6)
O18_3 O 0.8904(3) 0.1415(6) 0.8630(3)
H12_3 H 0.969613 0.276509 0.789535
H14_3 H 0.974923 0.215581 0.94865
O16_3 O 0.9366(3) 0.9302(5) 0.9235(3)
O16_4 O 0.0634(3) 0.0698(5) 0.4235(3)
O8_7 O -0.0000 0.8561(7) 0.4510(4)
O9_7 O 0.0000 0.7397(8) 0.3222(6)
O18_4 O 0.1096(3) 0.8585(6) 0.3630(3)
H12_4 H 0.0303873 0.723491 0.289535
H14_4 H 0.0250772 0.784419 0.44865
S1_4 S 0.67018(12) 0.30994(19) 0.36795(10)
O1_4 O 0.8744(3) 0.1253(6) 0.3485(3)
O2_4 O 0.9366(3) 0.0698(5) 0.4235(3)
O3_4 O 0.6096(3) 0.3585(6) 0.3630(3)
O4_4 O 0.6745(4) 0.1936(6) 0.3438(3)
O5_4 O 0.7171(4) 0.3854(7) 0.3423(3)
O10_4 O 0.8088(5) 0.0524(8) 0.2500
O11_4 O 0.8060(5) 0.3037(10) 0.2500
O12_4 O 0.9231(5) 0.3717(7) 0.3164(6)
C1_4 C 0.8878(4) 0.1142(7) 0.4048(4)
C2_4 C 0.8417(4) 0.1587(7) 0.4490(4)
C3_4 C 0.7880(4) 0.2045(7) 0.4282(4)
H3_4 H 0.7806 0.2051 0.3863
C4_4 C 0.7437(4) 0.2505(7) 0.4675(4)
C5_4 C 0.6877(4) 0.3012(7) 0.4476(4)
C6_4 C 0.6468(4) 0.3448(7) 0.4877(4)
H4_4 H 0.6106 0.3775 0.4733
Pr8_4 Pr 0.59344(3) 0.31710(5) 0.7500
S2_4 S 0.82982(12) 0.19006(19) 0.63205(10)
O13_4 O 0.6256(3) 0.3747(6) 0.6515(3)
O14_4 O 0.8744(3) 0.1253(6) 0.1515(3)
O15_4 O 0.5634(3) 0.4302(5) 0.5765(3)
O20_4 O 0.8255(4) 0.3064(6) 0.6562(3)
O21_4 O 0.7829(4) 0.1146(7) 0.6577(3)
O24_4 O 0.9231(5) 0.3717(7) 0.1836(6)
C7_4 C 0.6122(4) 0.3858(7) 0.5952(4)
C8_4 C 0.6583(4) 0.3413(7) 0.5510(4)
C9_4 C 0.7120(4) 0.2955(7) 0.5718(4)
H7_4 H 0.7194 0.2949 0.6137
C10_4 C 0.7563(4) 0.2495(7) 0.5325(4)
C11_4 C 0.8123(4) 0.1988(7) 0.5524(4)
C12_4 C 0.8532(4) 0.1552(7) 0.5123(4)
H8_4 H 0.8894 0.1225 0.5267
O8_8 O 1.0000 0.8561(7) 0.4510(4)
O9_8 O 1.0000 0.7397(8) 0.3222(6)
H11_4 H 0.958668 0.716031 0.308078
H13_4 H 0.957393 0.835659 0.46249
S1_5 S 0.17018(12) 0.19006(19) 0.63205(10)
O1_5 O 0.3744(3) 0.3747(6) 0.6515(3)
O2_5 O 0.4366(3) 0.4302(5) 0.5765(3)
O4_5 O 0.1745(4) 0.3064(6) 0.6562(3)
O5_5 O 0.2171(4) 0.1146(7) 0.6577(3)
O6_5 O 0.5000 0.3403(6) 0.6889(3)
H1_5 H 0.5000 0.3067 0.6543
O7_3 O 0.4399(4) 0.5236(6) 0.7500
H2_3 H 0.4058 0.5589 0.7500
O8_9 O 0.5000 0.6439(7) 0.5490(4)
O9_9 O 0.5000 0.7603(8) 0.6778(6)
O10_5 O 0.3088(5) 0.4476(8) 0.7500
O11_5 O 0.3060(5) 0.1963(10) 0.7500
O12_5 O 0.4231(5) 0.1283(7) 0.6836(6)
C1_5 C 0.3878(4) 0.3858(7) 0.5952(4)
C2_5 C 0.3417(4) 0.3413(7) 0.5510(4)
C3_5 C 0.2880(4) 0.2955(7) 0.5718(4)
H3_5 H 0.2806 0.2949 0.6137
C4_5 C 0.2437(4) 0.2495(7) 0.5325(4)
C5_5 C 0.1877(4) 0.1988(7) 0.5524(4)
C6_5 C 0.1468(4) 0.1552(7) 0.5123(4)
H4_5 H 0.1106 0.1225 0.5267
S2_5 S 0.32982(12) 0.30994(19) 0.36795(10)
O17_3 O 0.3904(3) 0.3585(6) 0.3630(3)
O19_3 O 0.3904(3) 0.6415(6) 0.6370(3)
O20_5 O 0.3255(4) 0.1936(6) 0.3438(3)
O21_5 O 0.2829(4) 0.3854(7) 0.3423(3)
O22_5 O 0.5000 0.3403(6) 0.8111(3)
H5_5 H 0.5000 0.3067 0.8457
O23_3 O 0.5601(4) 0.5236(6) 0.7500
H6_3 H 0.5942 0.5589 0.7500
O24_5 O 0.4231(5) 0.1283(7) 0.8164(6)
C7_5 C 0.1122(4) 0.1142(7) 0.4048(4)
C8_5 C 0.1583(4) 0.1587(7) 0.4490(4)
C9_5 C 0.2120(4) 0.2045(7) 0.4282(4)
H7_5 H 0.2194 0.2051 0.3863
C10_5 C 0.2563(4) 0.2505(7) 0.4675(4)
C11_5 C 0.3123(4) 0.3012(7) 0.4476(4)
C12_5 C 0.3532(4) 0.3448(7) 0.4877(4)
H8_5 H 0.3894 0.3775 0.4733
S1_6 S 0.82982(12) 0.80994(19) 0.13205(10)
O1_6 O 0.6256(3) 0.6253(6) 0.1515(3)
O2_6 O 0.5634(3) 0.5698(5) 0.0765(3)
O4_6 O 0.8255(4) 0.6936(6) 0.1562(3)
O5_6 O 0.7829(4) 0.8854(7) 0.1577(3)
O6_6 O 0.5000 0.6597(6) 0.1889(3)
H1_6 H 0.5000 0.6933 0.1543
O7_4 O 0.5601(4) 0.4764(6) 0.2500
H2_4 H 0.5942 0.4411 0.2500
O8_10 O 0.5000 0.3561(7) 0.0490(4)
O9_10 O 0.5000 0.2397(8) 0.1778(6)
O10_6 O 0.6912(5) 0.5524(8) 0.2500
O11_6 O 0.6940(5) 0.8037(10) 0.2500
O12_6 O 0.5769(5) 0.8717(7) 0.1836(6)
C1_6 C 0.6122(4) 0.6142(7) 0.0952(4)
C2_6 C 0.6583(4) 0.6587(7) 0.0510(4)
C3_6 C 0.7120(4) 0.7045(7) 0.0718(4)
H3_6 H 0.7194 0.7051 0.1137
C4_6 C 0.7563(4) 0.7505(7) 0.0325(4)
C5_6 C 0.8123(4) 0.8012(7) 0.0524(4)
C6_6 C 0.8532(4) 0.8448(7) 0.0123(4)
H4_6 H 0.8894 0.8775 0.0267
O19_4 O 0.6096(3) 0.3585(6) 0.1370(3)
O22_6 O 0.5000 0.6597(6) 0.3111(3)
H5_6 H 0.5000 0.6933 0.3457
O23_4 O 0.4399(4) 0.4764(6) 0.2500
H6_4 H 0.4058 0.4411 0.2500
O24_6 O 0.5769(5) 0.8717(7) 0.3164(6)
S2_6 S 0.67018(12) 0.69006(19) 0.86795(10)
O17_4 O 0.6096(3) 0.6415(6) 0.8630(3)
O20_6 O 0.6745(4) 0.8064(6) 0.8438(3)
O21_6 O 0.7171(4) 0.6146(7) 0.8423(3)
C7_6 C 0.8878(4) 0.8858(7) 0.9048(4)
C8_6 C 0.8417(4) 0.8413(7) 0.9490(4)
C9_6 C 0.7880(4) 0.7955(7) 0.9282(4)
H7_6 H 0.7806 0.7949 0.8863
C10_6 C 0.7437(4) 0.7495(7) 0.9675(4)
C11_6 C 0.6877(4) 0.6988(7) 0.9476(4)
C12_6 C 0.6468(4) 0.6552(7) 0.9877(4)
H8_6 H 0.6106 0.6225 0.9733
S2_7 S 0.67018(12) 0.30994(19) 0.13205(10)
O20_7 O 0.6745(4) 0.1936(6) 0.1562(3)
O21_7 O 0.7171(4) 0.3854(7) 0.1577(3)
C7_7 C 0.8878(4) 0.1142(7) 0.0952(4)
C8_7 C 0.8417(4) 0.1587(7) 0.0510(4)
C9_7 C 0.7880(4) 0.2045(7) 0.0718(4)
H7_7 H 0.7806 0.2051 0.1137
C10_7 C 0.7437(4) 0.2505(7) 0.0325(4)
C11_7 C 0.6877(4) 0.3012(7) 0.0524(4)
C12_7 C 0.6468(4) 0.3448(7) 0.0123(4)
H8_7 H 0.6106 0.3775 0.0267
S1_7 S 0.82982(12) 0.19006(19) 0.86795(10)
O1_7 O 0.6256(3) 0.3747(6) 0.8485(3)
O2_7 O 0.5634(3) 0.4302(5) 0.9235(3)
O4_7 O 0.8255(4) 0.3064(6) 0.8438(3)
O5_7 O 0.7829(4) 0.1146(7) 0.8423(3)
O8_11 O 0.5000 0.6439(7) 0.9510(4)
O9_11 O 0.5000 0.7603(8) 0.8222(6)
O10_7 O 0.6912(5) 0.4476(8) 0.7500
O11_7 O 0.6940(5) 0.1963(10) 0.7500
O12_7 O 0.5769(5) 0.1283(7) 0.8164(6)
C1_7 C 0.6122(4) 0.3858(7) 0.9048(4)
C2_7 C 0.6583(4) 0.3413(7) 0.9490(4)
C3_7 C 0.7120(4) 0.2955(7) 0.9282(4)
H3_7 H 0.7194 0.2949 0.8863
C4_7 C 0.7563(4) 0.2495(7) 0.9675(4)
C5_7 C 0.8123(4) 0.1988(7) 0.9476(4)
C6_7 C 0.8532(4) 0.1552(7) 0.9877(4)
H4_7 H 0.8894 0.1225 0.9733
O24_7 O 0.5769(5) 0.1283(7) 0.6836(6)
S1_8 S 0.17018(12) 0.80994(19) 0.36795(10)
O1_8 O 0.3744(3) 0.6253(6) 0.3485(3)
O2_8 O 0.4366(3) 0.5698(5) 0.4235(3)
O4_8 O 0.1745(4) 0.6936(6) 0.3438(3)
O5_8 O 0.2171(4) 0.8854(7) 0.3423(3)
O8_12 O 0.5000 0.3561(7) 0.4510(4)
O9_12 O 0.5000 0.2397(8) 0.3222(6)
O10_8 O 0.3088(5) 0.5524(8) 0.2500
O11_8 O 0.3060(5) 0.8037(10) 0.2500
O12_8 O 0.4231(5) 0.8717(7) 0.3164(6)
C1_8 C 0.3878(4) 0.6142(7) 0.4048(4)
C2_8 C 0.3417(4) 0.6587(7) 0.4490(4)
C3_8 C 0.2880(4) 0.7045(7) 0.4282(4)
H3_8 H 0.2806 0.7051 0.3863
C4_8 C 0.2437(4) 0.7505(7) 0.4675(4)
C5_8 C 0.1877(4) 0.8012(7) 0.4476(4)
C6_8 C 0.1468(4) 0.8448(7) 0.4877(4)
H4_8 H 0.1106 0.8775 0.4733
S2_8 S 0.32982(12) 0.69006(19) 0.63205(10)
O20_8 O 0.3255(4) 0.8064(6) 0.6562(3)
O21_8 O 0.2829(4) 0.6146(7) 0.6577(3)
O24_8 O 0.4231(5) 0.8717(7) 0.1836(6)
C7_8 C 0.1122(4) 0.8858(7) 0.5952(4)
C8_8 C 0.1583(4) 0.8413(7) 0.5510(4)
C9_8 C 0.2120(4) 0.7955(7) 0.5718(4)
H7_8 H 0.2194 0.7949 0.6137
C10_8 C 0.2563(4) 0.7495(7) 0.5325(4)
C11_8 C 0.3123(4) 0.6988(7) 0.5524(4)
C12_8 C 0.3532(4) 0.6552(7) 0.5123(4)
H8_8 H 0.3894 0.6225 0.5267
H11_5 H 0.0413323 0.716031 0.308078
H13_5 H 0.0426072 0.835659 0.46249
H12_5 H 0.969613 0.723491 0.289535
H14_5 H 0.974923 0.784419 0.44865
H12_6 H 0.0303873 0.276509 0.789535
H14_6 H 0.0250772 0.215581 0.94865
H11_6 H 0.958668 0.283969 0.808078
H13_6 H 0.957393 0.164341 0.96249
H12_7 H 0.0303873 0.723491 0.210465
H14_7 H 0.0250772 0.784419 0.0513496
H11_7 H 0.958668 0.716031 0.191922
H13_7 H 0.957393 0.835659 0.0375097
H11_8 H 0.0413323 0.283969 0.691922
H13_8 H 0.0426072 0.164341 0.53751
H12_8 H 0.969613 0.276509 0.710465
H14_8 H 0.974923 0.215581 0.55135
loop_
_geom_bond_atom_site_label_1
_geom_bond_atom_site_label_2
_geom_bond_site_symmetry_1
_geom_bond_site_symmetry_2
O8 Pr1 1_555 1_555
O9 Pr1 1_555 1_555
O18 Pr1 1_555 1_555
O23 Pr1 1_555 1_555
H6 O23 1_555 1_555
Pr4 O23 1_555 1_555
O9 H12 1_555 1_555
O8 H14 1_555 1_555
H1 O6 1_555 1_555
Pr7 O6 1_555 1_555
H5 O22 1_555 1_555
Pr7 O22 1_555 1_555
O7 Pr1_2 1_555 1_555
H2 O7 1_555 1_555
O8_2 Pr1_2 1_555 1_555
O9_2 Pr1_2 1_555 1_555
Pr4_2 O7 1_555 1_555
O19 Pr1_2 1_555 1_555
O9_2 H11 1_555 1_555
O8_2 H13 1_555 1_555
Pr2 O1 1_555 1_555
S1 O3 1_555 1_555
O1 C1 1_555 1_555
O2 C1 1_555 1_555
O3 Pr3 1_555 1_555
O4 S1 1_555 1_555
O5 S1 1_555 1_555
H1_2 O6_2 1_555 1_555
O10 Pr2 1_555 1_555
O11 Pr2 1_555 1_555
O12 Pr2 1_555 1_555
C1 C2 1_555 1_555
C2 C3 1_555 1_555
C3 H3 1_555 1_555
C4 C3 1_555 1_555
C5 S1 1_555 1_555
C6 C5 1_555 1_555
H4 C6 1_555 1_555
Pr5_2 O17 1_555 1_555
Pr6 O15 1_555 1_555
Pr8 O13 1_555 1_555
S2 O17 1_555 1_555
O13 C7 1_555 1_555
O14 Pr2 1_555 1_555
O15 C7 1_555 1_555
O20 S2 1_555 1_555
O21 S2 1_555 1_555
O22_2 Pr2 1_555 1_555
H5_2 O22_2 1_555 1_555
O24 Pr2 1_555 1_555
C7 C8 1_555 1_555
C8 C6 1_555 1_555
C9 C8 1_555 1_555
H7 C9 1_555 1_555
C10 C4 1_555 1_555
C11 S2 1_555 1_555
C12 C2 1_555 1_555
H8 C12 1_555 1_555
Pr2 O6_2 1_555 1_555
C4 C5 1_555 1_555
C9 C10 1_555 1_555
C10 C11 1_555 1_555
C11 C12 1_555 1_555
Pr2_2 O1_2 1_555 1_555
S1_2 O3_2 1_555 1_555
O1_2 C1_2 1_555 1_555
O2_2 C1_2 1_555 1_555
O3_2 Pr3_2 1_555 1_555
O4_2 S1_2 1_555 1_555
O5_2 S1_2 1_555 1_555
H1_3 O6_3 1_555 1_555
O10_2 Pr2_2 1_555 1_555
O11_2 Pr2_2 1_555 1_555
O12_2 Pr2_2 1_555 1_555
C1_2 C2_2 1_555 1_555
C2_2 C3_2 1_555 1_555
C3_2 H3_2 1_555 1_555
C4_2 C3_2 1_555 1_555
C5_2 S1_2 1_555 1_555
C6_2 C5_2 1_555 1_555
H4_2 C6_2 1_555 1_555
O14_2 Pr2_2 1_555 1_555
O22_3 Pr2_2 1_555 1_555
H5_3 O22_3 1_555 1_555
O24_2 Pr2_2 1_555 1_555
Pr2_2 O6_3 1_555 1_555
C4_2 C5_2 1_555 1_555
Pr4 O17_2 1_555 1_555
Pr6_2 O15_2 1_555 1_555
Pr8_2 O13_2 1_555 1_555
S2_2 O17_2 1_555 1_555
O13_2 C7_2 1_555 1_555
O15_2 C7_2 1_555 1_555
O20_2 S2_2 1_555 1_555
O21_2 S2_2 1_555 1_555
C7_2 C8_2 1_555 1_555
C9_2 C8_2 1_555 1_555
H7_2 C9_2 1_555 1_555
C11_2 S2_2 1_555 1_555
H8_2 C12_2 1_555 1_555
C9_2 C10_2 1_555 1_555
C10_2 C11_2 1_555 1_555
C11_2 C12_2 1_555 1_555
O7_2 Pr1_3 1_555 1_555
H2_2 O7_2 1_555 1_555
O8_3 Pr1_3 1_555 1_555
O9_3 Pr1_3 1_555 1_555
Pr5 O7_2 1_555 1_555
O19_2 Pr1_3 1_555 1_555
O9_3 H11_2 1_555 1_555
O8_3 H13_2 1_555 1_555
H1_4 O6_4 1_555 1_555
Pr7_2 O6_4 1_555 1_555
H5_4 O22_4 1_555 1_555
Pr7_2 O22_4 1_555 1_555
O8_4 Pr1_4 1_555 1_555
O9_4 Pr1_4 1_555 1_555
O18_2 Pr1_4 1_555 1_555
O23_2 Pr1_4 1_555 1_555
H6_2 O23_2 1_555 1_555
Pr5_2 O23_2 1_555 1_555
O9_4 H12_2 1_555 1_555
O8_4 H14_2 1_555 1_555
O8_5 Pr4 1_555 1_555
O9_5 Pr4 1_555 1_555
O9_5 H11_3 1_555 1_555
O8_5 H13_3 1_555 1_555
Pr3_2 O15_3 1_555 1_555
Pr8_3 O13_3 1_555 1_555
S2_3 O19_2 1_555 1_555
O13_3 C7_3 1_555 1_555
O15_3 C7_3 1_555 1_555
O20_3 S2_3 1_555 1_555
O21_3 S2_3 1_555 1_555
C7_3 C8_3 1_555 1_555
C9_3 C8_3 1_555 1_555
H7_3 C9_3 1_555 1_555
C11_3 S2_3 1_555 1_555
H8_3 C12_3 1_555 1_555
C9_3 C10_3 1_555 1_555
C10_3 C11_3 1_555 1_555
C11_3 C12_3 1_555 1_555
Pr7 O1_3 1_555 1_555
S1_3 O3_3 1_555 1_555
O1_3 C1_3 1_555 1_555
O2_3 C1_3 1_555 1_555
O3_3 Pr6_2 1_555 1_555
O4_3 S1_3 1_555 1_555
O5_3 S1_3 1_555 1_555
O10_3 Pr7 1_555 1_555
O11_3 Pr7 1_555 1_555
O12_3 Pr7 1_555 1_555
C1_3 C2_3 1_555 1_555
C2_3 C3_3 1_555 1_555
C3_3 H3_3 1_555 1_555
C4_3 C3_3 1_555 1_555
C5_3 S1_3 1_555 1_555
C6_3 C5_3 1_555 1_555
H4_3 C6_3 1_555 1_555
O14_3 Pr7 1_555 1_555
O24_3 Pr7 1_555 1_555
C4_3 C5_3 1_555 1_555
O8_6 Pr4_2 1_555 1_555
O9_6 Pr4_2 1_555 1_555
O18_3 Pr4_2 1_555 1_555
O9_6 H12_3 1_555 1_555
O8_6 H14_3 1_555 1_555
O8_7 Pr5 1_555 1_555
O9_7 Pr5 1_555 1_555
O18_4 Pr5 1_555 1_555
O9_7 H12_4 1_555 1_555
O8_7 H14_4 1_555 1_555
Pr7_2 O1_4 1_555 1_555
S1_4 O3_4 1_555 1_555
O1_4 C1_4 1_555 1_555
O2_4 C1_4 1_555 1_555
O3_4 Pr6 1_555 1_555
O4_4 S1_4 1_555 1_555
O5_4 S1_4 1_555 1_555
O10_4 Pr7_2 1_555 1_555
O11_4 Pr7_2 1_555 1_555
O12_4 Pr7_2 1_555 1_555
C1_4 C2_4 1_555 1_555
C2_4 C3_4 1_555 1_555
C3_4 H3_4 1_555 1_555
C4_4 C3_4 1_555 1_555
C5_4 S1_4 1_555 1_555
C6_4 C5_4 1_555 1_555
H4_4 C6_4 1_555 1_555
Pr3 O15_4 1_555 1_555
Pr8_4 O13_4 1_555 1_555
S2_4 O19 1_555 1_555
O13_4 C7_4 1_555 1_555
O14_4 Pr7_2 1_555 1_555
O15_4 C7_4 1_555 1_555
O20_4 S2_4 1_555 1_555
O21_4 S2_4 1_555 1_555
O24_4 Pr7_2 1_555 1_555
C7_4 C8_4 1_555 1_555
C8_4 C6_4 1_555 1_555
C9_4 C8_4 1_555 1_555
H7_4 C9_4 1_555 1_555
C10_4 C4_4 1_555 1_555
C11_4 S2_4 1_555 1_555
C12_4 C2_4 1_555 1_555
H8_4 C12_4 1_555 1_555
C4_4 C5_4 1_555 1_555
C9_4 C10_4 1_555 1_555
C10_4 C11_4 1_555 1_555
C11_4 C12_4 1_555 1_555
O8_8 Pr5_2 1_555 1_555
O9_8 Pr5_2 1_555 1_555
O9_8 H11_4 1_555 1_555
O8_8 H13_4 1_555 1_555
Pr3 O2_5 1_555 1_555
Pr8_2 O1_5 1_555 1_555
S1_5 O18 1_555 1_555
O1_5 C1_5 1_555 1_555
O2_5 C1_5 1_555 1_555
O4_5 S1_5 1_555 1_555
O5_5 S1_5 1_555 1_555
O6_5 Pr3 1_555 1_555
H1_5 O6_5 1_555 1_555
O7_3 Pr3 1_555 1_555
H2_3 O7_3 1_555 1_555
O8_9 Pr3 1_555 1_555
O9_9 Pr3 1_555 1_555
O10_5 Pr8_2 1_555 1_555
O11_5 Pr8_2 1_555 1_555
O12_5 Pr8_2 1_555 1_555
C1_5 C2_5 1_555 1_555
C2_5 C3_5 1_555 1_555
C3_5 H3_5 1_555 1_555
C4_5 C3_5 1_555 1_555
C5_5 S1_5 1_555 1_555
C6_5 C5_5 1_555 1_555
H4_5 C6_5 1_555 1_555
Pr6_2 O7_3 1_555 1_555
Pr6 O17_3 1_555 1_555
Pr8_4 O6_5 1_555 1_555
S2_5 O17_3 1_555 1_555
O14_2 C7_5 1_555 1_555
O16_4 C7_5 1_555 1_555
O19_3 Pr3 1_555 1_555
O20_5 S2_5 1_555 1_555
O21_5 S2_5 1_555 1_555
O22_5 Pr8_2 1_555 1_555
H5_5 O22_5 1_555 1_555
O23_3 Pr3 1_555 1_555
H6_3 O23_3 1_555 1_555
O24_5 Pr8_2 1_555 1_555
C7_5 C8_5 1_555 1_555
C8_5 C6_5 1_555 1_555
C9_5 C8_5 1_555 1_555
H7_5 C9_5 1_555 1_555
C10_5 C4_5 1_555 1_555
C11_5 S2_5 1_555 1_555
C12_5 C2_5 1_555 1_555
H8_5 C12_5 1_555 1_555
Pr8_2 O6_5 1_555 1_555
Pr8_2 O7_3 1_555 1_555
C4_5 C5_5 1_555 1_555
Pr6_2 O22_5 1_555 1_555
Pr6_2 O23_3 1_555 1_555
Pr8_4 O22_5 1_555 1_555
Pr8_4 O23_3 1_555 1_555
C9_5 C10_5 1_555 1_555
C10_5 C11_5 1_555 1_555
C11_5 C12_5 1_555 1_555
Pr3_2 O2_6 1_555 1_555
Pr8 O1_6 1_555 1_555
S1_6 O18_2 1_555 1_555
O1_6 C1_6 1_555 1_555
O2_6 C1_6 1_555 1_555
O4_6 S1_6 1_555 1_555
O5_6 S1_6 1_555 1_555
O6_6 Pr3_2 1_555 1_555
H1_6 O6_6 1_555 1_555
O7_4 Pr3_2 1_555 1_555
H2_4 O7_4 1_555 1_555
O8_10 Pr3_2 1_555 1_555
O9_10 Pr3_2 1_555 1_555
O10_6 Pr8 1_555 1_555
O11_6 Pr8 1_555 1_555
O12_6 Pr8 1_555 1_555
C1_6 C2_6 1_555 1_555
C2_6 C3_6 1_555 1_555
C3_6 H3_6 1_555 1_555
C4_6 C3_6 1_555 1_555
C5_6 S1_6 1_555 1_555
C6_6 C5_6 1_555 1_555
H4_6 C6_6 1_555 1_555
Pr6 O7_4 1_555 1_555
Pr8_3 O6_6 1_555 1_555
O19_4 Pr3_2 1_555 1_555
O22_6 Pr8 1_555 1_555
H5_6 O22_6 1_555 1_555
O23_4 Pr3_2 1_555 1_555
H6_4 O23_4 1_555 1_555
O24_6 Pr8 1_555 1_555
Pr8 O6_6 1_555 1_555
Pr8 O7_4 1_555 1_555
C4_6 C5_6 1_555 1_555
Pr6 O22_6 1_555 1_555
Pr6 O23_4 1_555 1_555
Pr8_3 O22_6 1_555 1_555
Pr8_3 O23_4 1_555 1_555
Pr6_2 O17_4 1_555 1_555
S2_6 O17_4 1_555 1_555
O14 C7_6 1_555 1_555
O16_3 C7_6 1_555 1_555
O20_6 S2_6 1_555 1_555
O21_6 S2_6 1_555 1_555
C7_6 C8_6 1_555 1_555
C9_6 C8_6 1_555 1_555
H7_6 C9_6 1_555 1_555
C11_6 S2_6 1_555 1_555
H8_6 C12_6 1_555 1_555
C9_6 C10_6 1_555 1_555
C10_6 C11_6 1_555 1_555
C11_6 C12_6 1_555 1_555
S2_7 O19_4 1_555 1_555
O14_4 C7_7 1_555 1_555
O16_2 C7_7 1_555 1_555
O20_7 S2_7 1_555 1_555
O21_7 S2_7 1_555 1_555
C7_7 C8_7 1_555 1_555
C9_7 C8_7 1_555 1_555
H7_7 C9_7 1_555 1_555
C11_7 S2_7 1_555 1_555
H8_7 C12_7 1_555 1_555
C9_7 C10_7 1_555 1_555
C10_7 C11_7 1_555 1_555
C11_7 C12_7 1_555 1_555
Pr6_2 O2_7 1_555 1_555
Pr8_4 O1_7 1_555 1_555
S1_7 O18_3 1_555 1_555
O1_7 C1_7 1_555 1_555
O2_7 C1_7 1_555 1_555
O4_7 S1_7 1_555 1_555
O5_7 S1_7 1_555 1_555
O8_11 Pr6_2 1_555 1_555
O9_11 Pr6_2 1_555 1_555
O10_7 Pr8_4 1_555 1_555
O11_7 Pr8_4 1_555 1_555
O12_7 Pr8_4 1_555 1_555
C1_7 C2_7 1_555 1_555
C2_7 C3_7 1_555 1_555
C3_7 H3_7 1_555 1_555
C4_7 C3_7 1_555 1_555
C5_7 S1_7 1_555 1_555
C6_7 C5_7 1_555 1_555
H4_7 C6_7 1_555 1_555
O24_7 Pr8_4 1_555 1_555
C4_7 C5_7 1_555 1_555
Pr6 O2_8 1_555 1_555
Pr8_3 O1_8 1_555 1_555
S1_8 O18_4 1_555 1_555
O1_8 C1_8 1_555 1_555
O2_8 C1_8 1_555 1_555
O4_8 S1_8 1_555 1_555
O5_8 S1_8 1_555 1_555
O8_12 Pr6 1_555 1_555
O9_12 Pr6 1_555 1_555
O10_8 Pr8_3 1_555 1_555
O11_8 Pr8_3 1_555 1_555
O12_8 Pr8_3 1_555 1_555
C1_8 C2_8 1_555 1_555
C2_8 C3_8 1_555 1_555
C3_8 H3_8 1_555 1_555
C4_8 C3_8 1_555 1_555
C5_8 S1_8 1_555 1_555
C6_8 C5_8 1_555 1_555
H4_8 C6_8 1_555 1_555
S2_8 O19_3 1_555 1_555
O14_3 C7_8 1_555 1_555
O16 C7_8 1_555 1_555
O20_8 S2_8 1_555 1_555
O21_8 S2_8 1_555 1_555
O24_8 Pr8_3 1_555 1_555
C7_8 C8_8 1_555 1_555
C8_8 C6_8 1_555 1_555
C9_8 C8_8 1_555 1_555
H7_8 C9_8 1_555 1_555
C10_8 C4_8 1_555 1_555
C11_8 S2_8 1_555 1_555
C12_8 C2_8 1_555 1_555
H8_8 C12_8 1_555 1_555
C4_8 C5_8 1_555 1_555
C9_8 C10_8 1_555 1_555
C10_8 C11_8 1_555 1_555
C11_8 C12_8 1_555 1_555
O9_7 H11_5 1_555 1_555
O8_7 H13_5 1_555 1_555
O9_8 H12_5 1_555 1_555
O8_8 H14_5 1_555 1_555
O9_5 H12_6 1_555 1_555
O8_5 H14_6 1_555 1_555
O9_6 H11_6 1_555 1_555
O8_6 H13_6 1_555 1_555
O9_3 H12_7 1_555 1_555
O8_3 H14_7 1_555 1_555
O9_4 H11_7 1_555 1_555
O8_4 H13_7 1_555 1_555
O9 H11_8 1_555 1_555
O8 H13_8 1_555 1_555
O9_2 H12_8 1_555 1_555
O8_2 H14_8 1_555 1_555

#END
