
###############################################################################
#
# This file contains modified crystal structure data generated from the
# MOF subset of the Cambridge Structural Database (CSD) v543 
# hosted by the Cambridge Crystallographic Data Centre (CCDC).
#
# This work is licensed under the Creative Commons
# Attribution-NonCommercial-ShareAlike 4.0 International License.
# To view a copy of this license, visit
# http://creativecommons.org/licenses/by-nc-sa/4.0/
# or send a letter to
# Creative Commons, PO Box 1866, Mountain View, CA 94042, USA.
#
# CIF created using the CSD Python API on 29 September 2022
# The structure has been converted into the P1 space group
# The structure has a 3D framework
# The original CSD entry CAYRIE is in the rhombohedral crystal system
# The framework has been calculated to contain at least 10.0% void space
# The void calculation uses a probe of radius 1.32A, grid spacing 0.4
#
###############################################################################

data_CAYRIE
_chemical_formula_moiety         '(C378 H234 N54 Zn12)n'
_symmetry_cell_setting           triclinic
_symmetry_space_group_name_H-M   'P 1'
_symmetry_Int_Tables_number      1
_space_group_name_Hall           'P 1'
loop_
_symmetry_equiv_pos_site_id
_symmetry_equiv_pos_as_xyz
1 x,y,z
_cell_length_a                   33.0866(4)
_cell_length_b                   33.0866(4)
_cell_length_c                   9.4360(2)
_cell_angle_alpha                90
_cell_angle_beta                 90
_cell_angle_gamma                120.00
_cell_volume                     8945.88
loop_
_atom_site_label
_atom_site_type_symbol
_atom_site_fract_x
_atom_site_fract_y
_atom_site_fract_z
Zn1 Zn 0.5000 0.0000 0.0000
N1 N 0.53422(10) 0.00048(10) 0.1845(3)
N2 N 0.49822(10) 0.05792(10) 0.0725(3)
C3 C 0.58073(14) 0.02658(14) 0.3837(4)
H2 H 0.5963 0.0447 0.4649
C4 C 0.54990(12) 0.03332(12) 0.2902(3)
C5 C 0.54005(11) 0.06985(12) 0.3005(3)
C6 C 0.51490(12) 0.08015(12) 0.2005(3)
C7 C 0.50165(13) 0.11576(14) 0.2167(4)
H3 H 0.5092 0.1367 0.2941
C8 C 0.47646(14) 0.11336(13) 0.1006(4)
H4 H 0.4627 0.1321 0.0817
C9 C 0.47441(12) 0.07703(12) 0.0107(3)
C11 C 0.55895(13) 0.10178(13) 0.4271(4)
C12 C 0.59226(16) 0.14816(15) 0.4058(5)
H5 H 0.6035 0.1595 0.3132
C13 C 0.6093(2) 0.17849(17) 0.5241(6)
H6 H 0.6323 0.2103 0.5108
C14 C 0.59299(19) 0.16226(17) 0.6573(5)
H7 H 0.6046 0.1830 0.7359
C15 C 0.55964(17) 0.11596(17) 0.6788(4)
H8 H 0.5481 0.1049 0.7714
C16 C 0.54287(14) 0.08528(15) 0.5621(4)
H9 H 0.5205 0.0533 0.5762
C2 C 0.73977(20) 0.08348(14) 0.0003(4)
H1 H 0.7094 0.0662 0.0402
C3_2 C 0.77918(20) 0.08594(14) 0.0504(4)
H2_2 H 0.7817 0.0704 0.1316
C11_2 C 0.87616(18) 0.10772(13) 0.0938(4)
C12_2 C 0.88923(22) 0.07441(16) 0.0725(5)
C13_2 C 0.90252(26) 0.0574(2) 0.1908(6)
H6_2 H 0.9113 0.0344 0.1775
C14_2 C 0.90260(25) 0.07368(19) 0.3240(5)
H7_2 H 0.9117 0.0621 0.4026
C15_2 C 0.88965(24) 0.10703(17) 0.3455(4)
H8_2 H 0.8901 0.1186 0.4381
C16_2 C 0.87574(21) 0.12380(14) 0.2288(4)
H9_2 H 0.8661 0.1462 0.2429
H12 H 0.5970 0.0944 0.0488
Zn1_2 Zn 0.5000 0.0000 1.0000
Zn3 Zn 0.3333 0.1667 0.6667
C22 C 0.44560(13) 0.02648(13) 0.7926(4)
C23 C 0.41681(14) 0.01037(14) 0.6664(4)
H14 H 0.3995 0.0234 0.6265
C31 C 0.44984(12) 0.06258(12) 0.8827(4)
C38 C 0.42467(13) 0.08766(12) 0.8375(3)
C39 C 0.38461(14) 0.08020(14) 0.9074(4)
H23 H 0.3724 0.0587 0.9837
C40 C 0.36246(12) 0.10448(14) 0.8649(4)
H24 H 0.3351 0.0991 0.9139
N6 N 0.37768(10) 0.13476(11) 0.7598(3)
N8 N 0.57625(15) 0.04435(10) 0.9069(3)
C41 C 0.41625(13) 0.14199(13) 0.6932(4)
H25 H 0.4277 0.1640 0.6179
C42 C 0.44061(14) 0.11922(14) 0.7274(4)
H26 H 0.4677 0.1253 0.6759
Zn1_3 Zn 0.5000 1.0000 0.0000
C1 C 0.55440(13) 0.97352(13) 0.2074(4)
C2_2 C 0.58319(14) 0.98963(14) 0.3336(4)
H1_2 H 0.6005 0.9766 0.3735
C10 C 0.55016(12) 0.93742(12) 0.1173(4)
C17 C 0.57533(13) 0.91234(12) 0.1625(3)
C18 C 0.61539(14) 0.91980(14) 0.0926(4)
H10 H 0.6276 0.9413 0.0163
C19 C 0.63754(12) 0.89552(14) 0.1351(4)
H11 H 0.6649 0.9009 0.0861
N3 N 0.62232(10) 0.86524(11) 0.2402(3)
C20 C 0.58375(13) 0.85801(13) 0.3068(4)
H12_2 H 0.5723 0.8360 0.3821
C21 C 0.55939(14) 0.88078(14) 0.2726(4)
H13 H 0.5323 0.8747 0.3241
Zn2 Zn 0.6667 0.8333 0.3333
N7 N 0.42375(15) 0.95565(10) 0.0931(3)
Zn1_4 Zn 0.0000 0.5000 0.0000
C1_2 C 0.02648(13) 0.58088(18) 0.2074(4)
C2_3 C 0.01037(14) 0.59356(20) 0.3336(4)
H1_3 H 0.0234 0.6239 0.3735
C10_2 C 0.06258(12) 0.61274(17) 0.1173(4)
C17_2 C 0.08766(12) 0.66299(18) 0.1625(3)
C18_2 C 0.08020(14) 0.69559(20) 0.0926(4)
H10_2 H 0.0587 0.6863 0.0163
C19_2 C 0.10448(14) 0.74202(18) 0.1351(4)
H11_2 H 0.0991 0.7640 0.0861
N3_2 N 0.13476(11) 0.75708(15) 0.2402(3)
C20_2 C 0.14199(13) 0.72574(18) 0.3068(4)
H12_3 H 0.1640 0.7363 0.3821
C21_2 C 0.11922(14) 0.67861(20) 0.2726(4)
H13_2 H 0.1253 0.6576 0.3241
Zn2_2 Zn 0.1667 0.8333 0.3333
N7_2 N 0.04435(10) 0.46809(18) 0.0931(3)
Zn1_5 Zn 1.0000 0.5000 1.0000
Zn3_2 Zn 0.8333 0.1667 0.6667
C22_2 C 0.97352(13) 0.41912(18) 0.7926(4)
C23_2 C 0.98963(14) 0.40644(20) 0.6664(4)
H14_2 H 0.9766 0.3761 0.6265
C31_2 C 0.93742(12) 0.38726(17) 0.8827(4)
C38_2 C 0.91234(12) 0.33701(18) 0.8375(3)
C39_2 C 0.91980(14) 0.30441(20) 0.9074(4)
H23_2 H 0.9413 0.3137 0.9837
C40_2 C 0.89552(14) 0.25798(18) 0.8649(4)
H24_2 H 0.9009 0.2360 0.9139
N6_2 N 0.86524(11) 0.24292(15) 0.7598(3)
N8_2 N 0.95565(10) 0.53191(18) 0.9069(3)
C41_2 C 0.85801(13) 0.27426(18) 0.6932(4)
H25_2 H 0.8360 0.2637 0.6179
C42_2 C 0.88078(14) 0.32139(20) 0.7274(4)
H26_2 H 0.8747 0.3424 0.6759
Zn1_6 Zn 0.5000 0.5000 0.0000
N1_2 N 0.46626(14) 0.46578(10) 0.1845(3)
N2_2 N 0.55970(14) 0.50178(10) 0.0725(3)
C1_3 C 0.41912(18) 0.44560(13) 0.2074(4)
C2_4 C 0.40644(20) 0.41681(14) 0.3336(4)
H1_4 H 0.3761 0.3995 0.3735
C3_3 C 0.44585(20) 0.41927(14) 0.3837(4)
H2_3 H 0.4484 0.4037 0.4649
C4_2 C 0.48342(17) 0.45010(12) 0.2902(3)
C5_2 C 0.52980(16) 0.45995(11) 0.3005(3)
C6_2 C 0.56525(17) 0.48510(12) 0.2005(3)
C7_2 C 0.61411(19) 0.49835(13) 0.2167(4)
H3_2 H 0.6275 0.4908 0.2941
C8_2 C 0.63690(19) 0.52354(14) 0.1006(4)
H4_2 H 0.6694 0.5373 0.0817
C9_2 C 0.60262(17) 0.52559(12) 0.0107(3)
C10_3 C 0.38726(17) 0.44984(12) 0.1173(4)
C11_3 C 0.54283(18) 0.44105(13) 0.4271(4)
C12_3 C 0.55590(22) 0.40774(16) 0.4058(5)
H5_2 H 0.5560 0.3965 0.3132
C13_3 C 0.56919(26) 0.3907(2) 0.5241(6)
H6_3 H 0.5780 0.3677 0.5108
C14_3 C 0.56927(25) 0.40701(19) 0.6573(5)
H7_3 H 0.5784 0.3954 0.7359
C15_3 C 0.55632(24) 0.44036(17) 0.6788(4)
H8_3 H 0.5568 0.4519 0.7714
C16_3 C 0.54241(21) 0.45713(14) 0.5621(4)
H9_3 H 0.5328 0.4795 0.5762
C17_3 C 0.33701(18) 0.42467(13) 0.1625(3)
C18_3 C 0.30441(20) 0.38461(14) 0.0926(4)
H10_3 H 0.3137 0.3724 0.0163
C19_3 C 0.25798(18) 0.36246(12) 0.1351(4)
H11_3 H 0.2360 0.3351 0.0861
N3_3 N 0.24292(15) 0.37768(10) 0.2402(3)
C20_3 C 0.27426(18) 0.41625(13) 0.3068(4)
H12_4 H 0.2637 0.4277 0.3821
C21_3 C 0.32139(20) 0.44061(14) 0.2726(4)
H13_3 H 0.3424 0.4677 0.3241
Zn2_3 Zn 0.1667 0.3333 0.3333
N7_3 N 0.53191(18) 0.57625(15) 0.0931(3)
Zn1_7 Zn 0.5000 0.5000 1.0000
Zn3_3 Zn 0.8333 0.6667 0.6667
N4 N 0.53374(14) 0.53422(10) 0.8155(3)
N5 N 0.44030(14) 0.49822(10) 0.9275(3)
C22_3 C 0.58088(18) 0.55440(13) 0.7926(4)
C23_3 C 0.59356(20) 0.58319(14) 0.6664(4)
H14_3 H 0.6239 0.6005 0.6265
C24 C 0.55415(20) 0.58073(14) 0.6163(4)
H15 H 0.5516 0.5963 0.5351
C25 C 0.51658(17) 0.54990(12) 0.7098(3)
C26 C 0.47020(16) 0.54005(11) 0.6995(3)
C27 C 0.43475(17) 0.51490(12) 0.7995(3)
C28 C 0.38589(19) 0.50165(13) 0.7833(4)
H16 H 0.3725 0.5092 0.7059
C29 C 0.36310(19) 0.47646(14) 0.8994(4)
H17 H 0.3306 0.4627 0.9183
C30 C 0.39738(17) 0.47441(12) 0.9893(3)
C31_3 C 0.61274(17) 0.55016(12) 0.8827(4)
C32 C 0.45717(18) 0.55895(13) 0.5729(4)
C33 C 0.44410(22) 0.59226(16) 0.5942(5)
H18 H 0.4440 0.6035 0.6868
C34 C 0.43081(26) 0.6093(2) 0.4759(6)
H19 H 0.4220 0.6323 0.4892
C35 C 0.43073(25) 0.59299(19) 0.3427(5)
H20 H 0.4216 0.6046 0.2641
C36 C 0.44368(24) 0.55964(17) 0.3212(4)
H21 H 0.4432 0.5481 0.2286
C37 C 0.45759(21) 0.54287(14) 0.4379(4)
H22 H 0.4672 0.5205 0.4238
C38_3 C 0.66299(18) 0.57533(13) 0.8375(3)
C39_3 C 0.69559(20) 0.61539(14) 0.9074(4)
H23_3 H 0.6863 0.6276 0.9837
C40_3 C 0.74202(18) 0.63754(12) 0.8649(4)
H24_3 H 0.7640 0.6649 0.9139
N6_3 N 0.75708(15) 0.62232(10) 0.7598(3)
N8_3 N 0.46809(18) 0.42375(15) 0.9069(3)
C41_3 C 0.72574(18) 0.58375(13) 0.6932(4)
H25_3 H 0.7363 0.5723 0.6179
C42_3 C 0.67861(20) 0.55939(14) 0.7274(4)
H26_3 H 0.6576 0.5323 0.6759
N1_3 N 0.20089(10) 0.33381(10) 0.5178(3)
N2_3 N 0.16489(10) 0.39125(10) 0.4058(3)
C1_4 C 0.22107(13) 0.30685(13) 0.5407(4)
C2_5 C 0.24986(14) 0.32296(14) 0.6669(4)
H1_5 H 0.2672 0.3099 0.7068
C3_4 C 0.24740(14) 0.35991(14) 0.7170(4)
H2_4 H 0.2630 0.3780 0.7982
C4_3 C 0.21657(12) 0.36665(12) 0.6235(3)
C5_3 C 0.20672(11) 0.40318(12) 0.6338(3)
C6_3 C 0.18157(12) 0.41348(12) 0.5338(3)
C7_3 C 0.16832(13) 0.44909(14) 0.5500(4)
H3_3 H 0.1759 0.4700 0.6274
C8_3 C 0.14313(14) 0.44669(13) 0.4339(4)
H4_3 H 0.1294 0.4654 0.4150
C9_3 C 0.14108(12) 0.41036(12) 0.3440(3)
C10_4 C 0.21683(12) 0.27075(12) 0.4506(4)
C11_4 C 0.22562(13) 0.43511(13) 0.7604(4)
C12_4 C 0.25893(16) 0.48149(15) 0.7391(5)
H5_3 H 0.2702 0.4928 0.6465
C13_4 C 0.2760(2) 0.51182(17) 0.8574(6)
H6_4 H 0.2990 0.5436 0.8441
C14_4 C 0.25966(19) 0.49559(17) 0.9906(5)
C16_4 C 0.20954(14) 0.41861(15) 0.8954(4)
H9_4 H 0.1872 0.3866 0.9095
C17_4 C 0.24200(13) 0.24567(12) 0.4958(3)
C18_4 C 0.28206(14) 0.25313(14) 0.4259(4)
H10_4 H 0.2943 0.2746 0.3496
C19_4 C 0.30421(12) 0.22885(14) 0.4684(4)
H11_4 H 0.3316 0.2342 0.4194
N3_4 N 0.28899(10) 0.19857(11) 0.5735(3)
C20_4 C 0.25042(13) 0.19134(13) 0.6401(4)
H12_5 H 0.2390 0.1693 0.7154
C21_4 C 0.22606(14) 0.21411(14) 0.6059(4)
H13_4 H 0.1990 0.2080 0.6574
N4_2 N 0.13245(10) 0.33285(10) 0.1488(3)
N5_2 N 0.16845(10) 0.27541(10) 0.2608(3)
C22_4 C 0.11227(13) 0.35981(13) 0.1259(4)
C25_2 C 0.11677(12) 0.30001(12) 0.0431(3)
C26_2 C 0.12662(11) 0.26348(12) 0.0328(3)
C27_2 C 0.15177(12) 0.25318(12) 0.1328(3)
C28_2 C 0.16502(13) 0.21757(14) 0.1166(4)
H16_2 H 0.1575 0.1966 0.0392
C29_2 C 0.19021(14) 0.21997(13) 0.2327(4)
H17_2 H 0.2040 0.2012 0.2516
C30_2 C 0.19226(12) 0.25630(12) 0.3226(3)
C31_4 C 0.11651(12) 0.39591(12) 0.2160(4)
H18_2 H 0.0632 0.1738 0.0201
C38_4 C 0.09134(13) 0.42099(12) 0.1708(3)
C39_4 C 0.05128(14) 0.41353(14) 0.2407(4)
H23_4 H 0.0391 0.3920 0.3170
C40_4 C 0.02913(12) 0.43781(14) 0.1982(4)
H24_4 H 0.0018 0.4324 0.2472
N7_4 N 0.09041(15) 0.28899(10) 0.4265(3)
C41_4 C 0.08292(13) 0.47532(13) 0.0265(4)
C42_4 C 0.10728(14) 0.45255(14) 0.0607(4)
H26_4 H 0.1344 0.4586 0.0092
C18_5 C 0.74687(14) 0.02892(20) 0.4259(4)
H10_5 H 0.7254 0.0196 0.3496
C19_5 C 0.77115(14) 0.07535(18) 0.4684(4)
H11_5 H 0.7658 0.0973 0.4194
N3_5 N 0.80143(11) 0.09041(15) 0.5735(3)
C20_5 C 0.80866(13) 0.05907(18) 0.6401(4)
H12_6 H 0.8307 0.0696 0.7154
C21_5 C 0.78589(14) 0.01194(20) 0.6059(4)
H17_3 H 0.7988 0.0027 0.2516
N1_4 N 0.66619(10) 0.86707(14) 0.5178(3)
N2_4 N 0.60875(10) 0.77363(14) 0.4058(3)
C1_5 C 0.69315(13) 0.91421(18) 0.5407(4)
C2_6 C 0.67704(14) 0.92689(20) 0.6669(4)
H1_6 H 0.6901 0.9572 0.7068
C3_5 C 0.64009(14) 0.88748(20) 0.7170(4)
H2_5 H 0.6220 0.8849 0.7982
C4_4 C 0.63335(12) 0.84991(17) 0.6235(3)
C5_4 C 0.59682(12) 0.80353(16) 0.6338(3)
C6_4 C 0.58652(12) 0.76808(17) 0.5338(3)
C7_4 C 0.55091(14) 0.71922(19) 0.5500(4)
H3_4 H 0.5300 0.7058 0.6274
C8_4 C 0.55331(13) 0.69643(19) 0.4339(4)
H4_4 H 0.5346 0.6639 0.4150
C9_4 C 0.58964(12) 0.73071(17) 0.3440(3)
C10_5 C 0.72925(12) 0.94607(17) 0.4506(4)
C11_5 C 0.56489(13) 0.79050(18) 0.7604(4)
C12_5 C 0.51851(15) 0.77743(22) 0.7391(5)
H5_4 H 0.5072 0.7773 0.6465
C13_5 C 0.48818(17) 0.76414(26) 0.8574(6)
H6_5 H 0.4564 0.7553 0.8441
C14_5 C 0.50441(17) 0.76406(25) 0.9906(5)
C16_5 C 0.58139(15) 0.79092(21) 0.8954(4)
H9_5 H 0.6134 0.8005 0.9095
C17_5 C 0.75433(12) 0.99632(18) 0.4958(3)
H13_5 H 0.7920 0.9909 0.6574
N4_3 N 0.66715(10) 0.79959(14) 0.1488(3)
N5_3 N 0.72459(10) 0.89303(14) 0.2608(3)
C22_5 C 0.64019(13) 0.75245(18) 0.1259(4)
C25_3 C 0.69999(12) 0.81675(17) 0.0431(3)
C26_3 C 0.73652(12) 0.86313(16) 0.0328(3)
C27_3 C 0.74682(12) 0.89858(17) 0.1328(3)
C28_3 C 0.78243(14) 0.94744(19) 0.1166(4)
H16_3 H 0.8034 0.9608 0.0392
C29_3 C 0.78003(13) 0.97023(19) 0.2327(4)
C30_3 C 0.74370(12) 0.93595(17) 0.3226(3)
C31_5 C 0.60409(12) 0.72059(17) 0.2160(4)
H18_3 H 0.8262 0.8893 0.0201
C38_5 C 0.57901(12) 0.67034(18) 0.1708(3)
C39_5 C 0.58647(14) 0.63774(20) 0.2407(4)
H23_5 H 0.6080 0.6470 0.3170
C40_5 C 0.56219(14) 0.59131(18) 0.1982(4)
H24_5 H 0.5676 0.5693 0.2472
N7_5 N 0.71101(10) 0.80143(18) 0.4265(3)
C41_5 C 0.52468(13) 0.60759(18) 0.0265(4)
C42_5 C 0.54745(14) 0.65472(20) 0.0607(4)
H26_5 H 0.5414 0.6757 0.0092
C23_4 C 0.65630(14) 0.73977(20) 0.9997(4)
H14_4 H 0.6433 0.7094 0.9598
C24_2 C 0.69325(14) 0.77918(20) 0.9496(4)
H15_2 H 0.7114 0.7817 0.8684
C32_2 C 0.76845(13) 0.87616(18) 0.9062(4)
C33_2 C 0.81483(15) 0.88923(22) 0.9275(5)
C34_2 C 0.84516(17) 0.90252(26) 0.8092(6)
H19_2 H 0.8770 0.9113 0.8225
C35_2 C 0.82893(17) 0.90260(25) 0.6760(5)
H20_2 H 0.8497 0.9117 0.5974
C36_2 C 0.78263(17) 0.88965(24) 0.6545(4)
H21_2 H 0.7716 0.8901 0.5619
C37_2 C 0.75195(15) 0.87574(21) 0.7712(4)
H22_2 H 0.7200 0.8661 0.7571
H25_4 H 0.5027 0.5970 0.9512
N1_5 N 0.13293(14) 0.79911(10) 0.5178(3)
N2_5 N 0.22637(14) 0.83511(10) 0.4058(3)
C1_6 C 0.08579(18) 0.77893(13) 0.5407(4)
C2_7 C 0.07311(20) 0.75014(14) 0.6669(4)
H1_7 H 0.0428 0.7328 0.7068
C3_6 C 0.11252(20) 0.75260(14) 0.7170(4)
H2_6 H 0.1151 0.7370 0.7982
C4_5 C 0.15009(17) 0.78343(12) 0.6235(3)
C5_5 C 0.19647(16) 0.79328(11) 0.6338(3)
C6_5 C 0.23192(17) 0.81843(12) 0.5338(3)
C7_5 C 0.28078(19) 0.83168(13) 0.5500(4)
H3_5 H 0.2942 0.8241 0.6274
C8_5 C 0.30357(19) 0.85687(14) 0.4339(4)
H4_5 H 0.3361 0.8706 0.4150
C9_5 C 0.26929(17) 0.85892(12) 0.3440(3)
C10_6 C 0.05393(17) 0.78317(12) 0.4506(4)
C11_6 C 0.20950(18) 0.77438(13) 0.7604(4)
C12_6 C 0.22257(22) 0.74107(16) 0.7391(5)
H5_5 H 0.2227 0.7298 0.6465
C13_6 C 0.23586(26) 0.7240(2) 0.8574(6)
H6_6 H 0.2447 0.7010 0.8441
C14_6 C 0.23594(25) 0.74034(19) 0.9906(5)
C16_6 C 0.20908(21) 0.79046(14) 0.8954(4)
H9_6 H 0.1995 0.8128 0.9095
C17_6 C 0.00368(18) 0.75800(13) 0.4958(3)
H13_6 H 0.0091 0.8010 0.6574
N4_4 N 0.20041(14) 0.86755(10) 0.1488(3)
N5_4 N 0.10697(14) 0.83155(10) 0.2608(3)
C22_6 C 0.24755(18) 0.88773(13) 0.1259(4)
C25_4 C 0.18325(17) 0.88323(12) 0.0431(3)
C26_4 C 0.13687(16) 0.87338(11) 0.0328(3)
C27_4 C 0.10142(17) 0.84823(12) 0.1328(3)
C28_4 C 0.05256(19) 0.83498(13) 0.1166(4)
H16_4 H 0.0392 0.8425 0.0392
C29_4 C 0.02977(19) 0.80979(14) 0.2327(4)
C30_4 C 0.06405(17) 0.80774(12) 0.3226(3)
C31_6 C 0.27941(17) 0.88349(12) 0.2160(4)
H18_4 H 0.1107 0.9368 0.0201
C38_6 C 0.32966(18) 0.90866(13) 0.1708(3)
C39_6 C 0.36226(20) 0.94872(14) 0.2407(4)
H23_6 H 0.3530 0.9609 0.3170
C40_6 C 0.40869(18) 0.97087(12) 0.1982(4)
H24_6 H 0.4307 0.9982 0.2472
N7_6 N 0.19857(18) 0.90959(15) 0.4265(3)
C41_6 C 0.39241(18) 0.91708(13) 0.0265(4)
C42_6 C 0.34528(20) 0.89272(14) 0.0607(4)
H26_6 H 0.3243 0.8656 0.0092
C18_6 C 0.97108(20) 0.71794(14) 0.4259(4)
H10_6 H 0.9804 0.7057 0.3496
C19_6 C 0.92465(18) 0.69579(12) 0.4684(4)
H11_6 H 0.9027 0.6684 0.4194
N3_6 N 0.90959(15) 0.71101(10) 0.5735(3)
C20_6 C 0.94093(18) 0.74958(13) 0.6401(4)
H12_7 H 0.9304 0.7610 0.7154
C21_6 C 0.98806(20) 0.77394(14) 0.6059(4)
H17_4 H 0.9973 0.7960 0.2516
N1_6 N 0.86755(10) 0.66715(10) 0.8512(3)
N2_6 N 0.83155(10) 0.72459(10) 0.7392(3)
C1_7 C 0.88773(13) 0.64019(13) 0.8741(4)
C4_6 C 0.88323(12) 0.69999(12) 0.9569(3)
C5_6 C 0.87338(11) 0.73652(12) 0.9672(3)
C6_6 C 0.84823(12) 0.74682(12) 0.8672(3)
C7_6 C 0.83498(13) 0.78243(14) 0.8834(4)
H3_6 H 0.8425 0.8034 0.9608
C8_6 C 0.80979(14) 0.78003(13) 0.7673(4)
H4_6 H 0.7960 0.7988 0.7484
C9_6 C 0.80774(12) 0.74370(12) 0.6774(3)
C10_7 C 0.88349(12) 0.60409(12) 0.7840(4)
H5_6 H 0.9368 0.8262 0.9799
C17_7 C 0.90866(13) 0.57901(12) 0.8292(3)
C18_7 C 0.94872(14) 0.58647(14) 0.7593(4)
H10_7 H 0.9609 0.6080 0.6830
C19_7 C 0.97087(12) 0.56219(14) 0.8018(4)
H11_7 H 0.9982 0.5676 0.7528
C20_7 C 0.91708(13) 0.52468(13) 0.9735(4)
C21_7 C 0.89272(14) 0.54745(14) 0.9393(4)
H13_7 H 0.8656 0.5414 0.9908
N4_5 N 0.79911(10) 0.66619(10) 0.4822(3)
N5_5 N 0.83511(10) 0.60875(10) 0.5942(3)
C22_7 C 0.77893(13) 0.69315(13) 0.4593(4)
C23_5 C 0.75014(14) 0.67704(14) 0.3331(4)
H14_5 H 0.7328 0.6901 0.2932
C24_3 C 0.75260(14) 0.64009(14) 0.2830(4)
H15_3 H 0.7370 0.6220 0.2018
C25_5 C 0.78343(12) 0.63335(12) 0.3765(3)
C26_5 C 0.79328(11) 0.59682(12) 0.3662(3)
C27_5 C 0.81843(12) 0.58652(12) 0.4662(3)
C28_5 C 0.83168(13) 0.55091(14) 0.4500(4)
H16_5 H 0.8241 0.5300 0.3726
C29_5 C 0.85687(14) 0.55331(13) 0.5661(4)
H17_5 H 0.8706 0.5346 0.5850
C30_5 C 0.85892(12) 0.58964(12) 0.6560(3)
C31_7 C 0.78317(12) 0.72925(12) 0.5494(4)
C32_3 C 0.77438(13) 0.56489(13) 0.2396(4)
C33_3 C 0.74107(16) 0.51851(15) 0.2609(5)
H18_5 H 0.7298 0.5072 0.3535
C34_3 C 0.7240(2) 0.48818(17) 0.1426(6)
H19_3 H 0.7010 0.4564 0.1559
C35_3 C 0.74034(19) 0.50441(17) 0.0094(5)
C37_3 C 0.79046(14) 0.58139(15) 0.1046(4)
H22_3 H 0.8128 0.6134 0.0905
C38_7 C 0.75800(13) 0.75433(12) 0.5042(3)
C39_7 C 0.71794(14) 0.74687(14) 0.5741(4)
H23_7 H 0.7057 0.7254 0.6504
C40_7 C 0.69579(12) 0.77115(14) 0.5316(4)
H24_7 H 0.6684 0.7658 0.5806
C41_7 C 0.74958(13) 0.80866(13) 0.3599(4)
H25_5 H 0.7610 0.8307 0.2846
C42_7 C 0.77394(14) 0.78589(14) 0.3941(4)
H26_7 H 0.8010 0.7920 0.3426
C2_8 C 0.34370(14) 0.26023(20) 0.0003(4)
H1_8 H 0.3567 0.2906 0.0402
C3_7 C 0.30675(14) 0.22082(20) 0.0504(4)
H2_7 H 0.2886 0.2183 0.1316
C11_7 C 0.23155(13) 0.12384(18) 0.0938(4)
C12_7 C 0.18517(15) 0.11077(22) 0.0725(5)
C13_7 C 0.15484(17) 0.09748(26) 0.1908(6)
H6_7 H 0.1230 0.0887 0.1775
C14_7 C 0.17107(17) 0.09740(25) 0.3240(5)
H7_4 H 0.1503 0.0883 0.4026
C15_4 C 0.21737(17) 0.11035(24) 0.3455(4)
H8_4 H 0.2284 0.1099 0.4381
C16_7 C 0.24805(15) 0.12426(21) 0.2288(4)
H9_7 H 0.2800 0.1339 0.2429
H12_8 H 0.4973 0.4030 0.0488
N1_7 N 0.33285(10) 0.20041(14) 0.8512(3)
N2_7 N 0.27541(10) 0.10697(14) 0.7392(3)
C1_8 C 0.35981(13) 0.24755(18) 0.8741(4)
C4_7 C 0.30001(12) 0.18325(17) 0.9569(3)
C5_7 C 0.26348(12) 0.13687(16) 0.9672(3)
C6_7 C 0.25318(12) 0.10142(17) 0.8672(3)
C7_7 C 0.21757(14) 0.05256(19) 0.8834(4)
H3_7 H 0.1966 0.0392 0.9608
C8_7 C 0.21997(13) 0.02977(19) 0.7673(4)
C9_7 C 0.25630(12) 0.06405(17) 0.6774(3)
C10_8 C 0.39591(12) 0.27941(17) 0.7840(4)
H5_7 H 0.1738 0.1107 0.9799
C17_8 C 0.42099(12) 0.32966(18) 0.8292(3)
C18_8 C 0.41353(14) 0.36226(20) 0.7593(4)
H10_8 H 0.3920 0.3530 0.6830
C19_8 C 0.43781(14) 0.40869(18) 0.8018(4)
H11_8 H 0.4324 0.4307 0.7528
C20_8 C 0.47532(13) 0.39241(18) 0.9735(4)
C21_8 C 0.45255(14) 0.34528(20) 0.9393(4)
H13_8 H 0.4586 0.3243 0.9908
N4_6 N 0.33381(10) 0.13293(14) 0.4822(3)
N5_6 N 0.39125(10) 0.22637(14) 0.5942(3)
C22_8 C 0.30685(13) 0.08579(18) 0.4593(4)
C23_6 C 0.32296(14) 0.07311(20) 0.3331(4)
H14_6 H 0.3099 0.0428 0.2932
C24_4 C 0.35991(14) 0.11252(20) 0.2830(4)
H15_4 H 0.3780 0.1151 0.2018
C25_6 C 0.36665(12) 0.15009(17) 0.3765(3)
C26_6 C 0.40318(12) 0.19647(16) 0.3662(3)
C27_6 C 0.41348(12) 0.23192(17) 0.4662(3)
C28_6 C 0.44909(14) 0.28078(19) 0.4500(4)
H16_6 H 0.4700 0.2942 0.3726
C29_6 C 0.44669(13) 0.30357(19) 0.5661(4)
H17_6 H 0.4654 0.3361 0.5850
C30_6 C 0.41036(12) 0.26929(17) 0.6560(3)
C31_8 C 0.27075(12) 0.05393(17) 0.5494(4)
C32_4 C 0.43511(13) 0.20950(18) 0.2396(4)
C33_4 C 0.48149(15) 0.22257(22) 0.2609(5)
H18_6 H 0.4928 0.2227 0.3535
C34_4 C 0.51182(17) 0.23586(26) 0.1426(6)
H19_4 H 0.5436 0.2447 0.1559
C35_4 C 0.49559(17) 0.23594(25) 0.0094(5)
C37_4 C 0.41861(15) 0.20908(21) 0.1046(4)
H22_4 H 0.3866 0.1995 0.0905
C38_8 C 0.24567(12) 0.00368(18) 0.5042(3)
H26_8 H 0.2080 0.0091 0.3426
H4_7 H 0.2012 0.9973 0.7484
C39_8 C 0.25313(14) 0.97108(20) 0.5741(4)
H23_8 H 0.2746 0.9804 0.6504
C40_8 C 0.22885(14) 0.92465(18) 0.5316(4)
H24_8 H 0.2342 0.9027 0.5806
C41_8 C 0.19134(13) 0.94093(18) 0.3599(4)
H25_6 H 0.1693 0.9304 0.2846
C42_8 C 0.21411(14) 0.98806(20) 0.3941(4)
H4_8 H 0.0027 0.2040 0.7484
C39_9 C 0.02892(20) 0.28206(14) 0.5741(4)
H23_9 H 0.0196 0.2943 0.6504
C40_9 C 0.07535(18) 0.30421(12) 0.5316(4)
H24_9 H 0.0973 0.3316 0.5806
C41_9 C 0.05907(18) 0.25042(13) 0.3599(4)
H25_7 H 0.0696 0.2390 0.2846
C42_9 C 0.01194(20) 0.22606(14) 0.3941(4)
N1_8 N 0.79959(14) 0.13245(10) 0.8512(3)
N2_8 N 0.89303(14) 0.16845(10) 0.7392(3)
C1_9 C 0.75245(18) 0.11227(13) 0.8741(4)
C4_8 C 0.81675(17) 0.11677(12) 0.9569(3)
C5_8 C 0.86313(16) 0.12662(11) 0.9672(3)
C6_8 C 0.89858(17) 0.15177(12) 0.8672(3)
C7_8 C 0.94744(19) 0.16502(13) 0.8834(4)
H3_8 H 0.9608 0.1575 0.9608
C8_8 C 0.97023(19) 0.19021(14) 0.7673(4)
C9_8 C 0.93595(17) 0.19226(12) 0.6774(3)
C10_9 C 0.72059(17) 0.11651(12) 0.7840(4)
H5_8 H 0.8893 0.0632 0.9799
C17_9 C 0.67034(18) 0.09134(13) 0.8292(3)
C18_9 C 0.63774(20) 0.05128(14) 0.7593(4)
H10_9 H 0.6470 0.0391 0.6830
C19_9 C 0.59131(18) 0.02913(12) 0.8018(4)
H11_9 H 0.5693 0.0018 0.7528
C20_9 C 0.60759(18) 0.08292(13) 0.9735(4)
C21_9 C 0.65472(20) 0.10728(14) 0.9393(4)
H13_9 H 0.6757 0.1344 0.9908
N4_7 N 0.86707(14) 0.20089(10) 0.4822(3)
N5_7 N 0.77363(14) 0.16489(10) 0.5942(3)
C22_9 C 0.91421(18) 0.22107(13) 0.4593(4)
C23_7 C 0.92689(20) 0.24986(14) 0.3331(4)
H14_7 H 0.9572 0.2672 0.2932
C24_5 C 0.88748(20) 0.24740(14) 0.2830(4)
H15_5 H 0.8849 0.2630 0.2018
C25_7 C 0.84991(17) 0.21657(12) 0.3765(3)
C26_7 C 0.80353(16) 0.20672(11) 0.3662(3)
C27_7 C 0.76808(17) 0.18157(12) 0.4662(3)
C28_7 C 0.71922(19) 0.16832(13) 0.4500(4)
H16_7 H 0.7058 0.1759 0.3726
C29_7 C 0.69643(19) 0.14313(14) 0.5661(4)
H17_7 H 0.6639 0.1294 0.5850
C30_7 C 0.73071(17) 0.14108(12) 0.6560(3)
C31_9 C 0.94607(17) 0.21683(12) 0.5494(4)
C32_5 C 0.79050(18) 0.22562(13) 0.2396(4)
C33_5 C 0.77743(22) 0.25893(16) 0.2609(5)
H18_7 H 0.7773 0.2702 0.3535
C34_5 C 0.76414(26) 0.2760(2) 0.1426(6)
H19_5 H 0.7553 0.2990 0.1559
C35_5 C 0.76406(25) 0.25966(19) 0.0094(5)
C37_5 C 0.79092(21) 0.20954(14) 0.1046(4)
H22_5 H 0.8005 0.1872 0.0905
C38_9 C 0.99632(18) 0.24200(13) 0.5042(3)
H26_9 H 0.9909 0.1990 0.3426
Zn1_8 Zn 0.5000 1.0000 1.0000
N4_8 N 0.46578(10) 0.99952(10) 0.8155(3)
N5_8 N 0.50178(10) 0.94208(10) 0.9275(3)
C24_6 C 0.41927(14) 0.97342(14) 0.6163(4)
H15_6 H 0.4037 0.9553 0.5351
C25_8 C 0.45010(12) 0.96668(12) 0.7098(3)
C26_8 C 0.45995(11) 0.93015(12) 0.6995(3)
C27_8 C 0.48510(12) 0.91985(12) 0.7995(3)
C28_8 C 0.49835(13) 0.88424(14) 0.7833(4)
H16_8 H 0.4908 0.8633 0.7059
C29_8 C 0.52354(14) 0.88664(13) 0.8994(4)
H17_8 H 0.5373 0.8679 0.9183
C30_8 C 0.52559(12) 0.92297(12) 0.9893(3)
C32_6 C 0.44105(13) 0.89822(13) 0.5729(4)
C33_6 C 0.40774(16) 0.85184(15) 0.5942(5)
H18_8 H 0.3965 0.8405 0.6868
C34_6 C 0.3907(2) 0.82151(17) 0.4759(6)
H19_6 H 0.3677 0.7897 0.4892
C35_6 C 0.40701(19) 0.83774(17) 0.3427(5)
H20_3 H 0.3954 0.8170 0.2641
C36_3 C 0.44036(17) 0.88404(17) 0.3212(4)
H21_3 H 0.4519 0.8951 0.2286
C37_6 C 0.45713(14) 0.91472(15) 0.4379(4)
H22_6 H 0.4795 0.9467 0.4238
C23_8 C 0.26023(20) 0.91652(14) 0.9997(4)
H14_8 H 0.2906 0.9338 0.9598
C24_7 C 0.22082(20) 0.91406(14) 0.9496(4)
H15_7 H 0.2183 0.9296 0.8684
C32_7 C 0.12384(18) 0.89228(13) 0.9062(4)
C33_7 C 0.11077(22) 0.92559(16) 0.9275(5)
C34_7 C 0.09748(26) 0.9426(2) 0.8092(6)
H19_7 H 0.0887 0.9656 0.8225
C35_7 C 0.09740(25) 0.92632(19) 0.6760(5)
H20_4 H 0.0883 0.9379 0.5974
C36_4 C 0.11035(24) 0.89297(17) 0.6545(4)
H21_4 H 0.1099 0.8814 0.5619
C37_7 C 0.12426(21) 0.87620(14) 0.7712(4)
H22_7 H 0.1339 0.8538 0.7571
H25_8 H 0.4030 0.9056 0.9512
Zn1_9 Zn -0.0000 0.5000 1.0000
N4_9 N 0.00048(10) 0.46626(14) 0.8155(3)
N5_9 N 0.05792(10) 0.55970(14) 0.9275(3)
C24_8 C 0.02658(14) 0.44585(20) 0.6163(4)
H15_8 H 0.0447 0.4484 0.5351
C25_9 C 0.03332(12) 0.48342(17) 0.7098(3)
C26_9 C 0.06985(12) 0.52980(16) 0.6995(3)
C27_9 C 0.08015(12) 0.56525(17) 0.7995(3)
C28_9 C 0.11576(14) 0.61411(19) 0.7833(4)
H16_9 H 0.1367 0.6275 0.7059
C29_9 C 0.11336(13) 0.63690(19) 0.8994(4)
H17_9 H 0.1321 0.6694 0.9183
C30_9 C 0.07703(12) 0.60262(17) 0.9893(3)
C32_8 C 0.10178(13) 0.54283(18) 0.5729(4)
C33_8 C 0.14816(15) 0.55590(22) 0.5942(5)
H18_9 H 0.1595 0.5560 0.6868
C34_8 C 0.17849(17) 0.56919(26) 0.4759(6)
H19_8 H 0.2103 0.5780 0.4892
C35_8 C 0.16226(17) 0.56927(25) 0.3427(5)
H20_5 H 0.1830 0.5784 0.2641
C36_5 C 0.11596(17) 0.55632(24) 0.3212(4)
H21_5 H 0.1049 0.5568 0.2286
C37_8 C 0.08528(15) 0.54241(21) 0.4379(4)
H22_8 H 0.0533 0.5328 0.4238
C23_9 C 0.08348(14) 0.34370(14) 0.9997(4)
H14_9 H 0.0662 0.3567 0.9598
C24_9 C 0.08594(14) 0.30675(14) 0.9496(4)
H15_9 H 0.0704 0.2886 0.8684
C32_9 C 0.10772(13) 0.23155(13) 0.9062(4)
C33_9 C 0.07441(16) 0.18517(15) 0.9275(5)
C34_9 C 0.0574(2) 0.15484(17) 0.8092(6)
H19_9 H 0.0344 0.1230 0.8225
C35_9 C 0.07368(19) 0.17107(17) 0.6760(5)
H20_6 H 0.0621 0.1503 0.5974
C36_6 C 0.10703(17) 0.21737(17) 0.6545(4)
H21_6 H 0.1186 0.2284 0.5619
C37_9 C 0.12380(14) 0.24805(15) 0.7712(4)
H22_9 H 0.1462 0.2800 0.7571
H25_9 H 0.0944 0.4973 0.9512
Zn1_10 Zn 1.0000 0.5000 0.0000
N1_9 N 0.99952(10) 0.53374(14) 0.1845(3)
N2_9 N 0.94208(10) 0.44030(14) 0.0725(3)
C3_8 C 0.97342(14) 0.55415(20) 0.3837(4)
H2_8 H 0.9553 0.5516 0.4649
C4_9 C 0.96668(12) 0.51658(17) 0.2902(3)
C5_9 C 0.93015(12) 0.47020(16) 0.3005(3)
C6_9 C 0.91985(12) 0.43475(17) 0.2005(3)
C7_9 C 0.88424(14) 0.38589(19) 0.2167(4)
H3_9 H 0.8633 0.3725 0.2941
C8_9 C 0.88664(13) 0.36310(19) 0.1006(4)
H4_9 H 0.8679 0.3306 0.0817
C9_9 C 0.92297(12) 0.39738(17) 0.0107(3)
C11_8 C 0.89822(13) 0.45717(18) 0.4271(4)
C12_8 C 0.85184(15) 0.44410(22) 0.4058(5)
H5_9 H 0.8405 0.4440 0.3132
C13_8 C 0.82151(17) 0.43081(26) 0.5241(6)
H6_8 H 0.7897 0.4220 0.5108
C14_8 C 0.83774(17) 0.43073(25) 0.6573(5)
H7_5 H 0.8170 0.4216 0.7359
C15_5 C 0.88404(17) 0.44368(24) 0.6788(4)
H8_5 H 0.8951 0.4432 0.7714
C16_8 C 0.91472(15) 0.45759(21) 0.5621(4)
H9_8 H 0.9467 0.4672 0.5762
C2_9 C 0.91652(14) 0.65630(14) 0.0003(4)
H1_9 H 0.9338 0.6433 0.0402
C3_9 C 0.91406(14) 0.69325(14) 0.0504(4)
H2_9 H 0.9296 0.7114 0.1316
C11_9 C 0.89228(13) 0.76845(13) 0.0938(4)
C12_9 C 0.92559(16) 0.81483(15) 0.0725(5)
C13_9 C 0.9426(2) 0.84516(17) 0.1908(6)
H6_9 H 0.9656 0.8770 0.1775
C14_9 C 0.92632(19) 0.82893(17) 0.3240(5)
H7_6 H 0.9379 0.8497 0.4026
C15_6 C 0.89297(17) 0.78263(17) 0.3455(4)
H8_6 H 0.8814 0.7716 0.4381
C16_9 C 0.87620(14) 0.75195(15) 0.2288(4)
H9_9 H 0.8538 0.7200 0.2429
H12_9 H 0.9056 0.5027 0.0488
H7_7 H 0.2713 0.5163 0.0692
C15_7 C 0.22631(17) 0.44929(17) 0.0121(4)
H8_7 H 0.2148 0.4382 0.1047
H7_8 H 0.4837 0.7549 0.0692
C15_8 C 0.55071(17) 0.77701(24) 0.0121(4)
H8_8 H 0.5618 0.7765 0.1047
H7_9 H 0.2451 0.7287 0.0692
C15_9 C 0.22299(24) 0.77369(17) 0.0121(4)
H8_9 H 0.2235 0.7852 0.1047
H20_7 H 0.7287 0.4837 0.9308
C36_7 C 0.77369(17) 0.55071(17) 0.9879(4)
H21_7 H 0.7852 0.5618 0.8953
H20_8 H 0.5163 0.2451 0.9308
C36_8 C 0.44929(17) 0.22299(24) 0.9879(4)
H21_8 H 0.4382 0.2235 0.8953
H20_9 H 0.7549 0.2713 0.9308
C36_9 C 0.77701(24) 0.22631(17) 0.9879(4)
H21_9 H 0.7765 0.2148 0.8953
loop_
_geom_bond_atom_site_label_1
_geom_bond_atom_site_label_2
_geom_bond_site_symmetry_1
_geom_bond_site_symmetry_2
Zn1 N1 1_555 1_555
N2 Zn1 1_555 1_555
H2 C3 1_555 1_555
C4 N1 1_555 1_555
C5 C4 1_555 1_555
C6 N2 1_555 1_555
C7 C6 1_555 1_555
H3 C7 1_555 1_555
C8 C7 1_555 1_555
H4 C8 1_555 1_555
C9 N2 1_555 1_555
C11 C5 1_555 1_555
C12 C11 1_555 1_555
H5 C12 1_555 1_555
C13 C12 1_555 1_555
H6 C13 1_555 1_555
C14 C13 1_555 1_555
H7 C14 1_555 1_555
C15 C14 1_555 1_555
H8 C15 1_555 1_555
C16 C11 1_555 1_555
H9 C16 1_555 1_555
C3 C4 1_555 1_555
C5 C6 1_555 1_555
C8 C9 1_555 1_555
C15 C16 1_555 1_555
C2 H1 1_555 1_555
C3_2 C2 1_555 1_555
H2_2 C3_2 1_555 1_555
C12_2 C11_2 1_555 1_555
C13_2 C12_2 1_555 1_555
H6_2 C13_2 1_555 1_555
C14_2 C13_2 1_555 1_555
H7_2 C14_2 1_555 1_555
C15_2 C14_2 1_555 1_555
H8_2 C15_2 1_555 1_555
C16_2 C11_2 1_555 1_555
H9_2 C16_2 1_555 1_555
C15_2 C16_2 1_555 1_555
Zn3 N6 1_555 1_555
C23 C22 1_555 1_555
H14 C23 1_555 1_555
C38 C31 1_555 1_555
C39 C38 1_555 1_555
H23 C39 1_555 1_555
C40 C39 1_555 1_555
H24 C40 1_555 1_555
N6 C40 1_555 1_555
N8 Zn1_2 1_555 1_555
C41 N6 1_555 1_555
H25 C41 1_555 1_555
C42 C38 1_555 1_555
H26 C42 1_555 1_555
C22 C31 1_555 1_555
C41 C42 1_555 1_555
C1 C2_2 1_555 1_555
C2_2 H1_2 1_555 1_555
C10 C1 1_555 1_555
C17 C10 1_555 1_555
C18 C17 1_555 1_555
H10 C18 1_555 1_555
C19 C18 1_555 1_555
H11 C19 1_555 1_555
N3 C19 1_555 1_555
C20 N3 1_555 1_555
H12_2 C20 1_555 1_555
C21 C17 1_555 1_555
H13 C21 1_555 1_555
Zn2 N3 1_555 1_555
N7 Zn1_3 1_555 1_555
C20 C21 1_555 1_555
C1_2 C2_3 1_555 1_555
C2_3 H1_3 1_555 1_555
C10_2 C1_2 1_555 1_555
C17_2 C10_2 1_555 1_555
C18_2 C17_2 1_555 1_555
H10_2 C18_2 1_555 1_555
C19_2 C18_2 1_555 1_555
H11_2 C19_2 1_555 1_555
N3_2 C19_2 1_555 1_555
C20_2 N3_2 1_555 1_555
H12_3 C20_2 1_555 1_555
C21_2 C17_2 1_555 1_555
H13_2 C21_2 1_555 1_555
Zn2_2 N3_2 1_555 1_555
N7_2 Zn1_4 1_555 1_555
C20_2 C21_2 1_555 1_555
Zn3_2 N6_2 1_555 1_555
C23_2 C22_2 1_555 1_555
H14_2 C23_2 1_555 1_555
C38_2 C31_2 1_555 1_555
C39_2 C38_2 1_555 1_555
H23_2 C39_2 1_555 1_555
C40_2 C39_2 1_555 1_555
H24_2 C40_2 1_555 1_555
N6_2 C40_2 1_555 1_555
N8_2 Zn1_5 1_555 1_555
C41_2 N6_2 1_555 1_555
H25_2 C41_2 1_555 1_555
C42_2 C38_2 1_555 1_555
H26_2 C42_2 1_555 1_555
C22_2 C31_2 1_555 1_555
C41_2 C42_2 1_555 1_555
Zn1_6 N1_2 1_555 1_555
N1_2 C1_3 1_555 1_555
N2_2 Zn1_6 1_555 1_555
C1_3 C2_4 1_555 1_555
C2_4 H1_4 1_555 1_555
C3_3 C2_4 1_555 1_555
H2_3 C3_3 1_555 1_555
C4_2 N1_2 1_555 1_555
C5_2 C4_2 1_555 1_555
C6_2 N2_2 1_555 1_555
C7_2 C6_2 1_555 1_555
H3_2 C7_2 1_555 1_555
C8_2 C7_2 1_555 1_555
H4_2 C8_2 1_555 1_555
C9_2 N2_2 1_555 1_555
C10_3 C1_3 1_555 1_555
C11_3 C5_2 1_555 1_555
C12_3 C11_3 1_555 1_555
H5_2 C12_3 1_555 1_555
C13_3 C12_3 1_555 1_555
H6_3 C13_3 1_555 1_555
C14_3 C13_3 1_555 1_555
H7_3 C14_3 1_555 1_555
C15_3 C14_3 1_555 1_555
H8_3 C15_3 1_555 1_555
C16_3 C11_3 1_555 1_555
H9_3 C16_3 1_555 1_555
C17_3 C10_3 1_555 1_555
C18_3 C17_3 1_555 1_555
H10_3 C18_3 1_555 1_555
C19_3 C18_3 1_555 1_555
H11_3 C19_3 1_555 1_555
N3_3 C19_3 1_555 1_555
C20_3 N3_3 1_555 1_555
H12_4 C20_3 1_555 1_555
C21_3 C17_3 1_555 1_555
H13_3 C21_3 1_555 1_555
Zn2_3 N3_3 1_555 1_555
N7_3 Zn1_6 1_555 1_555
C3_3 C4_2 1_555 1_555
C5_2 C6_2 1_555 1_555
C8_2 C9_2 1_555 1_555
C15_3 C16_3 1_555 1_555
C20_3 C21_3 1_555 1_555
Zn3_3 N6_3 1_555 1_555
N4 Zn1_7 1_555 1_555
N5 Zn1_7 1_555 1_555
C22_3 N4 1_555 1_555
C23_3 C22_3 1_555 1_555
H14_3 C23_3 1_555 1_555
C24 C23_3 1_555 1_555
H15 C24 1_555 1_555
C25 N4 1_555 1_555
C26 C25 1_555 1_555
C27 N5 1_555 1_555
C28 C27 1_555 1_555
H16 C28 1_555 1_555
C29 C28 1_555 1_555
H17 C29 1_555 1_555
C32 C26 1_555 1_555
C33 C32 1_555 1_555
H18 C33 1_555 1_555
C34 C33 1_555 1_555
H19 C34 1_555 1_555
C35 C34 1_555 1_555
H20 C35 1_555 1_555
C36 C35 1_555 1_555
H21 C36 1_555 1_555
C37 C32 1_555 1_555
H22 C37 1_555 1_555
C38_3 C31_3 1_555 1_555
C39_3 C38_3 1_555 1_555
H23_3 C39_3 1_555 1_555
C40_3 C39_3 1_555 1_555
H24_3 C40_3 1_555 1_555
N6_3 C40_3 1_555 1_555
N8_3 Zn1_7 1_555 1_555
C41_3 N6_3 1_555 1_555
H25_3 C41_3 1_555 1_555
C42_3 C38_3 1_555 1_555
H26_3 C42_3 1_555 1_555
N5 C30 1_555 1_555
C22_3 C31_3 1_555 1_555
C24 C25 1_555 1_555
C26 C27 1_555 1_555
C29 C30 1_555 1_555
C36 C37 1_555 1_555
C41_3 C42_3 1_555 1_555
Zn2_3 N1_3 1_555 1_555
N1_3 C1_4 1_555 1_555
N2_3 Zn2_3 1_555 1_555
C1_4 C2_5 1_555 1_555
C2_5 H1_5 1_555 1_555
C3_4 C2_5 1_555 1_555
H2_4 C3_4 1_555 1_555
C4_3 N1_3 1_555 1_555
C5_3 C4_3 1_555 1_555
C6_3 N2_3 1_555 1_555
C7_3 C6_3 1_555 1_555
H3_3 C7_3 1_555 1_555
C8_3 C7_3 1_555 1_555
H4_3 C8_3 1_555 1_555
C9_3 N2_3 1_555 1_555
C10_4 C1_4 1_555 1_555
C11_4 C5_3 1_555 1_555
C12_4 C11_4 1_555 1_555
H5_3 C12_4 1_555 1_555
C13_4 C12_4 1_555 1_555
H6_4 C13_4 1_555 1_555
C14_4 C13_4 1_555 1_555
C16_4 C11_4 1_555 1_555
H9_4 C16_4 1_555 1_555
C17_4 C10_4 1_555 1_555
C18_4 C17_4 1_555 1_555
H10_4 C18_4 1_555 1_555
C19_4 C18_4 1_555 1_555
H11_4 C19_4 1_555 1_555
N3_4 C19_4 1_555 1_555
C20_4 N3_4 1_555 1_555
H12_5 C20_4 1_555 1_555
C21_4 C17_4 1_555 1_555
H13_4 C21_4 1_555 1_555
Zn3 N3_4 1_555 1_555
N4_2 Zn2_3 1_555 1_555
N5_2 Zn2_3 1_555 1_555
C22_4 N4_2 1_555 1_555
C25_2 N4_2 1_555 1_555
C26_2 C25_2 1_555 1_555
C27_2 N5_2 1_555 1_555
C28_2 C27_2 1_555 1_555
H16_2 C28_2 1_555 1_555
C29_2 C28_2 1_555 1_555
H17_2 C29_2 1_555 1_555
C30_2 C10_4 1_555 1_555
C31_4 C9_3 1_555 1_555
C38_4 C31_4 1_555 1_555
C39_4 C38_4 1_555 1_555
H23_4 C39_4 1_555 1_555
C40_4 C39_4 1_555 1_555
H24_4 C40_4 1_555 1_555
N7_2 C40_4 1_555 1_555
N7_4 Zn2_3 1_555 1_555
C41_4 N7_2 1_555 1_555
C42_4 C38_4 1_555 1_555
H26_4 C42_4 1_555 1_555
C3_4 C4_3 1_555 1_555
C5_3 C6_3 1_555 1_555
C8_3 C9_3 1_555 1_555
C20_4 C21_4 1_555 1_555
N5_2 C30_2 1_555 1_555
C22_4 C31_4 1_555 1_555
C26_2 C27_2 1_555 1_555
C29_2 C30_2 1_555 1_555
C41_4 C42_4 1_555 1_555
H10_5 C18_5 1_555 1_555
C19_5 C18_5 1_555 1_555
H11_5 C19_5 1_555 1_555
N3_5 C19_5 1_555 1_555
C20_5 N3_5 1_555 1_555
H12_6 C20_5 1_555 1_555
Zn3_2 N3_5 1_555 1_555
C20_5 C21_5 1_555 1_555
Zn2 N1_4 1_555 1_555
N1_4 C1_5 1_555 1_555
N2_4 Zn2 1_555 1_555
C1_5 C2_6 1_555 1_555
C2_6 H1_6 1_555 1_555
C3_5 C2_6 1_555 1_555
H2_5 C3_5 1_555 1_555
C4_4 N1_4 1_555 1_555
C5_4 C4_4 1_555 1_555
C6_4 N2_4 1_555 1_555
C7_4 C6_4 1_555 1_555
H3_4 C7_4 1_555 1_555
C8_4 C7_4 1_555 1_555
H4_4 C8_4 1_555 1_555
C9_4 N2_4 1_555 1_555
C10_5 C1_5 1_555 1_555
C11_5 C5_4 1_555 1_555
C12_5 C11_5 1_555 1_555
H5_4 C12_5 1_555 1_555
C13_5 C12_5 1_555 1_555
H6_5 C13_5 1_555 1_555
C14_5 C13_5 1_555 1_555
C16_5 C11_5 1_555 1_555
H9_5 C16_5 1_555 1_555
C17_5 C10_5 1_555 1_555
N4_3 Zn2 1_555 1_555
N5_3 Zn2 1_555 1_555
C22_5 N4_3 1_555 1_555
C25_3 N4_3 1_555 1_555
C26_3 C25_3 1_555 1_555
C27_3 N5_3 1_555 1_555
C28_3 C27_3 1_555 1_555
H16_3 C28_3 1_555 1_555
C29_3 C28_3 1_555 1_555
C30_3 C10_5 1_555 1_555
C31_5 C9_4 1_555 1_555
C38_5 C31_5 1_555 1_555
C39_5 C38_5 1_555 1_555
H23_5 C39_5 1_555 1_555
C40_5 C39_5 1_555 1_555
H24_5 C40_5 1_555 1_555
N7_3 C40_5 1_555 1_555
N7_5 Zn2 1_555 1_555
C41_5 N7_3 1_555 1_555
C42_5 C38_5 1_555 1_555
H26_5 C42_5 1_555 1_555
C3_5 C4_4 1_555 1_555
C5_4 C6_4 1_555 1_555
C8_4 C9_4 1_555 1_555
N5_3 C30_3 1_555 1_555
C22_5 C31_5 1_555 1_555
C26_3 C27_3 1_555 1_555
C29_3 C30_3 1_555 1_555
C41_5 C42_5 1_555 1_555
H14_4 C23_4 1_555 1_555
C24_2 C23_4 1_555 1_555
H15_2 C24_2 1_555 1_555
C33_2 C32_2 1_555 1_555
C34_2 C33_2 1_555 1_555
H19_2 C34_2 1_555 1_555
C35_2 C34_2 1_555 1_555
H20_2 C35_2 1_555 1_555
C36_2 C35_2 1_555 1_555
H21_2 C36_2 1_555 1_555
C37_2 C32_2 1_555 1_555
H22_2 C37_2 1_555 1_555
C36_2 C37_2 1_555 1_555
Zn2_2 N1_5 1_555 1_555
N1_5 C1_6 1_555 1_555
N2_5 Zn2_2 1_555 1_555
C1_6 C2_7 1_555 1_555
C2_7 H1_7 1_555 1_555
C3_6 C2_7 1_555 1_555
H2_6 C3_6 1_555 1_555
C4_5 N1_5 1_555 1_555
C5_5 C4_5 1_555 1_555
C6_5 N2_5 1_555 1_555
C7_5 C6_5 1_555 1_555
H3_5 C7_5 1_555 1_555
C8_5 C7_5 1_555 1_555
H4_5 C8_5 1_555 1_555
C9_5 N2_5 1_555 1_555
C10_6 C1_6 1_555 1_555
C11_6 C5_5 1_555 1_555
C12_6 C11_6 1_555 1_555
H5_5 C12_6 1_555 1_555
C13_6 C12_6 1_555 1_555
H6_6 C13_6 1_555 1_555
C14_6 C13_6 1_555 1_555
C16_6 C11_6 1_555 1_555
H9_6 C16_6 1_555 1_555
C17_6 C10_6 1_555 1_555
N4_4 Zn2_2 1_555 1_555
N5_4 Zn2_2 1_555 1_555
C22_6 N4_4 1_555 1_555
C25_4 N4_4 1_555 1_555
C26_4 C25_4 1_555 1_555
C27_4 N5_4 1_555 1_555
C28_4 C27_4 1_555 1_555
H16_4 C28_4 1_555 1_555
C29_4 C28_4 1_555 1_555
C30_4 C10_6 1_555 1_555
C31_6 C9_5 1_555 1_555
C38_6 C31_6 1_555 1_555
C39_6 C38_6 1_555 1_555
H23_6 C39_6 1_555 1_555
C40_6 C39_6 1_555 1_555
H24_6 C40_6 1_555 1_555
N7 C40_6 1_555 1_555
N7_6 Zn2_2 1_555 1_555
C41_6 N7 1_555 1_555
C42_6 C38_6 1_555 1_555
H26_6 C42_6 1_555 1_555
C3_6 C4_5 1_555 1_555
C5_5 C6_5 1_555 1_555
C8_5 C9_5 1_555 1_555
N5_4 C30_4 1_555 1_555
C22_6 C31_6 1_555 1_555
C26_4 C27_4 1_555 1_555
C29_4 C30_4 1_555 1_555
C41_6 C42_6 1_555 1_555
H10_6 C18_6 1_555 1_555
C19_6 C18_6 1_555 1_555
H11_6 C19_6 1_555 1_555
N3_6 C19_6 1_555 1_555
C20_6 N3_6 1_555 1_555
H12_7 C20_6 1_555 1_555
Zn3_3 N3_6 1_555 1_555
C20_6 C21_6 1_555 1_555
Zn3_3 N1_6 1_555 1_555
N1_6 C1_7 1_555 1_555
N2_6 Zn3_3 1_555 1_555
C4_6 N1_6 1_555 1_555
C5_6 C4_6 1_555 1_555
C6_6 N2_6 1_555 1_555
C7_6 C6_6 1_555 1_555
H3_6 C7_6 1_555 1_555
C8_6 C7_6 1_555 1_555
H4_6 C8_6 1_555 1_555
C9_6 N2_6 1_555 1_555
C10_7 C1_7 1_555 1_555
C17_7 C10_7 1_555 1_555
C18_7 C17_7 1_555 1_555
H10_7 C18_7 1_555 1_555
C19_7 C18_7 1_555 1_555
H11_7 C19_7 1_555 1_555
N8_2 C19_7 1_555 1_555
C20_7 N8_2 1_555 1_555
C21_7 C17_7 1_555 1_555
H13_7 C21_7 1_555 1_555
N4_5 Zn3_3 1_555 1_555
N5_5 Zn3_3 1_555 1_555
C22_7 N4_5 1_555 1_555
C23_5 C22_7 1_555 1_555
H14_5 C23_5 1_555 1_555
C24_3 C23_5 1_555 1_555
H15_3 C24_3 1_555 1_555
C25_5 N4_5 1_555 1_555
C26_5 C25_5 1_555 1_555
C27_5 N5_5 1_555 1_555
C28_5 C27_5 1_555 1_555
H16_5 C28_5 1_555 1_555
C29_5 C28_5 1_555 1_555
H17_5 C29_5 1_555 1_555
C30_5 C10_7 1_555 1_555
C31_7 C9_6 1_555 1_555
C32_3 C26_5 1_555 1_555
C33_3 C32_3 1_555 1_555
H18_5 C33_3 1_555 1_555
C34_3 C33_3 1_555 1_555
H19_3 C34_3 1_555 1_555
C35_3 C34_3 1_555 1_555
C37_3 C32_3 1_555 1_555
H22_3 C37_3 1_555 1_555
C38_7 C31_7 1_555 1_555
C39_7 C38_7 1_555 1_555
H23_7 C39_7 1_555 1_555
C40_7 C39_7 1_555 1_555
H24_7 C40_7 1_555 1_555
N7_5 C40_7 1_555 1_555
C41_7 N7_5 1_555 1_555
H25_5 C41_7 1_555 1_555
C42_7 C38_7 1_555 1_555
H26_7 C42_7 1_555 1_555
C5_6 C6_6 1_555 1_555
C8_6 C9_6 1_555 1_555
C20_7 C21_7 1_555 1_555
N5_5 C30_5 1_555 1_555
C22_7 C31_7 1_555 1_555
C24_3 C25_5 1_555 1_555
C26_5 C27_5 1_555 1_555
C29_5 C30_5 1_555 1_555
C41_7 C42_7 1_555 1_555
C2_8 H1_8 1_555 1_555
C3_7 C2_8 1_555 1_555
H2_7 C3_7 1_555 1_555
C12_7 C11_7 1_555 1_555
C13_7 C12_7 1_555 1_555
H6_7 C13_7 1_555 1_555
C14_7 C13_7 1_555 1_555
H7_4 C14_7 1_555 1_555
C15_4 C14_7 1_555 1_555
H8_4 C15_4 1_555 1_555
C16_7 C11_7 1_555 1_555
H9_7 C16_7 1_555 1_555
C15_4 C16_7 1_555 1_555
Zn3 N1_7 1_555 1_555
N1_7 C1_8 1_555 1_555
N2_7 Zn3 1_555 1_555
C4_7 N1_7 1_555 1_555
C5_7 C4_7 1_555 1_555
C6_7 N2_7 1_555 1_555
C7_7 C6_7 1_555 1_555
H3_7 C7_7 1_555 1_555
C8_7 C7_7 1_555 1_555
C9_7 N2_7 1_555 1_555
C10_8 C1_8 1_555 1_555
C17_8 C10_8 1_555 1_555
C18_8 C17_8 1_555 1_555
H10_8 C18_8 1_555 1_555
C19_8 C18_8 1_555 1_555
H11_8 C19_8 1_555 1_555
N8_3 C19_8 1_555 1_555
C20_8 N8_3 1_555 1_555
C21_8 C17_8 1_555 1_555
H13_8 C21_8 1_555 1_555
N4_6 Zn3 1_555 1_555
N5_6 Zn3 1_555 1_555
C22_8 N4_6 1_555 1_555
C23_6 C22_8 1_555 1_555
H14_6 C23_6 1_555 1_555
C24_4 C23_6 1_555 1_555
H15_4 C24_4 1_555 1_555
C25_6 N4_6 1_555 1_555
C26_6 C25_6 1_555 1_555
C27_6 N5_6 1_555 1_555
C28_6 C27_6 1_555 1_555
H16_6 C28_6 1_555 1_555
C29_6 C28_6 1_555 1_555
H17_6 C29_6 1_555 1_555
C30_6 C10_8 1_555 1_555
C31_8 C9_7 1_555 1_555
C32_4 C26_6 1_555 1_555
C33_4 C32_4 1_555 1_555
H18_6 C33_4 1_555 1_555
C34_4 C33_4 1_555 1_555
H19_4 C34_4 1_555 1_555
C35_4 C34_4 1_555 1_555
C37_4 C32_4 1_555 1_555
H22_4 C37_4 1_555 1_555
C38_8 C31_8 1_555 1_555
C5_7 C6_7 1_555 1_555
C8_7 C9_7 1_555 1_555
C20_8 C21_8 1_555 1_555
N5_6 C30_6 1_555 1_555
C22_8 C31_8 1_555 1_555
C24_4 C25_6 1_555 1_555
C26_6 C27_6 1_555 1_555
C29_6 C30_6 1_555 1_555
H23_8 C39_8 1_555 1_555
C40_8 C39_8 1_555 1_555
H24_8 C40_8 1_555 1_555
N7_6 C40_8 1_555 1_555
C41_8 N7_6 1_555 1_555
H25_6 C41_8 1_555 1_555
C41_8 C42_8 1_555 1_555
H23_9 C39_9 1_555 1_555
C40_9 C39_9 1_555 1_555
H24_9 C40_9 1_555 1_555
N7_4 C40_9 1_555 1_555
C41_9 N7_4 1_555 1_555
H25_7 C41_9 1_555 1_555
C41_9 C42_9 1_555 1_555
Zn3_2 N1_8 1_555 1_555
N1_8 C1_9 1_555 1_555
N2_8 Zn3_2 1_555 1_555
C4_8 N1_8 1_555 1_555
C5_8 C4_8 1_555 1_555
C6_8 N2_8 1_555 1_555
C7_8 C6_8 1_555 1_555
H3_8 C7_8 1_555 1_555
C8_8 C7_8 1_555 1_555
C9_8 N2_8 1_555 1_555
C10_9 C1_9 1_555 1_555
C17_9 C10_9 1_555 1_555
C18_9 C17_9 1_555 1_555
H10_9 C18_9 1_555 1_555
C19_9 C18_9 1_555 1_555
H11_9 C19_9 1_555 1_555
N8 C19_9 1_555 1_555
C20_9 N8 1_555 1_555
C21_9 C17_9 1_555 1_555
H13_9 C21_9 1_555 1_555
N4_7 Zn3_2 1_555 1_555
N5_7 Zn3_2 1_555 1_555
C22_9 N4_7 1_555 1_555
C23_7 C22_9 1_555 1_555
H14_7 C23_7 1_555 1_555
C24_5 C23_7 1_555 1_555
H15_5 C24_5 1_555 1_555
C25_7 N4_7 1_555 1_555
C26_7 C25_7 1_555 1_555
C27_7 N5_7 1_555 1_555
C28_7 C27_7 1_555 1_555
H16_7 C28_7 1_555 1_555
C29_7 C28_7 1_555 1_555
H17_7 C29_7 1_555 1_555
C30_7 C10_9 1_555 1_555
C31_9 C9_8 1_555 1_555
C32_5 C26_7 1_555 1_555
C33_5 C32_5 1_555 1_555
H18_7 C33_5 1_555 1_555
C34_5 C33_5 1_555 1_555
H19_5 C34_5 1_555 1_555
C35_5 C34_5 1_555 1_555
C37_5 C32_5 1_555 1_555
H22_5 C37_5 1_555 1_555
C38_9 C31_9 1_555 1_555
C5_8 C6_8 1_555 1_555
C8_8 C9_8 1_555 1_555
C20_9 C21_9 1_555 1_555
N5_7 C30_7 1_555 1_555
C22_9 C31_9 1_555 1_555
C24_5 C25_7 1_555 1_555
C26_7 C27_7 1_555 1_555
C29_7 C30_7 1_555 1_555
N4_8 Zn1_8 1_555 1_555
N5_8 Zn1_8 1_555 1_555
H15_6 C24_6 1_555 1_555
C25_8 N4_8 1_555 1_555
C26_8 C25_8 1_555 1_555
C27_8 N5_8 1_555 1_555
C28_8 C27_8 1_555 1_555
H16_8 C28_8 1_555 1_555
C29_8 C28_8 1_555 1_555
H17_8 C29_8 1_555 1_555
C32_6 C26_8 1_555 1_555
C33_6 C32_6 1_555 1_555
H18_8 C33_6 1_555 1_555
C34_6 C33_6 1_555 1_555
H19_6 C34_6 1_555 1_555
C35_6 C34_6 1_555 1_555
H20_3 C35_6 1_555 1_555
C36_3 C35_6 1_555 1_555
H21_3 C36_3 1_555 1_555
C37_6 C32_6 1_555 1_555
H22_6 C37_6 1_555 1_555
N5_8 C30_8 1_555 1_555
C24_6 C25_8 1_555 1_555
C26_8 C27_8 1_555 1_555
C29_8 C30_8 1_555 1_555
C36_3 C37_6 1_555 1_555
H14_8 C23_8 1_555 1_555
C24_7 C23_8 1_555 1_555
H15_7 C24_7 1_555 1_555
C33_7 C32_7 1_555 1_555
C34_7 C33_7 1_555 1_555
H19_7 C34_7 1_555 1_555
C35_7 C34_7 1_555 1_555
H20_4 C35_7 1_555 1_555
C36_4 C35_7 1_555 1_555
H21_4 C36_4 1_555 1_555
C37_7 C32_7 1_555 1_555
H22_7 C37_7 1_555 1_555
C36_4 C37_7 1_555 1_555
N4_9 Zn1_9 1_555 1_555
N5_9 Zn1_9 1_555 1_555
H15_8 C24_8 1_555 1_555
C25_9 N4_9 1_555 1_555
C26_9 C25_9 1_555 1_555
C27_9 N5_9 1_555 1_555
C28_9 C27_9 1_555 1_555
H16_9 C28_9 1_555 1_555
C29_9 C28_9 1_555 1_555
H17_9 C29_9 1_555 1_555
C32_8 C26_9 1_555 1_555
C33_8 C32_8 1_555 1_555
H18_9 C33_8 1_555 1_555
C34_8 C33_8 1_555 1_555
H19_8 C34_8 1_555 1_555
C35_8 C34_8 1_555 1_555
H20_5 C35_8 1_555 1_555
C36_5 C35_8 1_555 1_555
H21_5 C36_5 1_555 1_555
C37_8 C32_8 1_555 1_555
H22_8 C37_8 1_555 1_555
N5_9 C30_9 1_555 1_555
C24_8 C25_9 1_555 1_555
C26_9 C27_9 1_555 1_555
C29_9 C30_9 1_555 1_555
C36_5 C37_8 1_555 1_555
H14_9 C23_9 1_555 1_555
C24_9 C23_9 1_555 1_555
H15_9 C24_9 1_555 1_555
C33_9 C32_9 1_555 1_555
C34_9 C33_9 1_555 1_555
H19_9 C34_9 1_555 1_555
C35_9 C34_9 1_555 1_555
H20_6 C35_9 1_555 1_555
C36_6 C35_9 1_555 1_555
H21_6 C36_6 1_555 1_555
C37_9 C32_9 1_555 1_555
H22_9 C37_9 1_555 1_555
C36_6 C37_9 1_555 1_555
Zn1_10 N1_9 1_555 1_555
N2_9 Zn1_10 1_555 1_555
H2_8 C3_8 1_555 1_555
C4_9 N1_9 1_555 1_555
C5_9 C4_9 1_555 1_555
C6_9 N2_9 1_555 1_555
C7_9 C6_9 1_555 1_555
H3_9 C7_9 1_555 1_555
C8_9 C7_9 1_555 1_555
H4_9 C8_9 1_555 1_555
C9_9 N2_9 1_555 1_555
C11_8 C5_9 1_555 1_555
C12_8 C11_8 1_555 1_555
H5_9 C12_8 1_555 1_555
C13_8 C12_8 1_555 1_555
H6_8 C13_8 1_555 1_555
C14_8 C13_8 1_555 1_555
H7_5 C14_8 1_555 1_555
C15_5 C14_8 1_555 1_555
H8_5 C15_5 1_555 1_555
C16_8 C11_8 1_555 1_555
H9_8 C16_8 1_555 1_555
C3_8 C4_9 1_555 1_555
C5_9 C6_9 1_555 1_555
C8_9 C9_9 1_555 1_555
C15_5 C16_8 1_555 1_555
C2_9 H1_9 1_555 1_555
C3_9 C2_9 1_555 1_555
H2_9 C3_9 1_555 1_555
C12_9 C11_9 1_555 1_555
C13_9 C12_9 1_555 1_555
H6_9 C13_9 1_555 1_555
C14_9 C13_9 1_555 1_555
H7_6 C14_9 1_555 1_555
C15_6 C14_9 1_555 1_555
H8_6 C15_6 1_555 1_555
C16_9 C11_9 1_555 1_555
H9_9 C16_9 1_555 1_555
C15_6 C16_9 1_555 1_555
H8_7 C15_7 1_555 1_555
H8_8 C15_8 1_555 1_555
H8_9 C15_9 1_555 1_555
H21_7 C36_7 1_555 1_555
H21_8 C36_8 1_555 1_555
H21_9 C36_9 1_555 1_555

#END
