
###############################################################################
#
# This file contains modified crystal structure data generated from the
# MOF subset of the Cambridge Structural Database (CSD) v543 
# hosted by the Cambridge Crystallographic Data Centre (CCDC).
#
# This work is licensed under the Creative Commons
# Attribution-NonCommercial-ShareAlike 4.0 International License.
# To view a copy of this license, visit
# http://creativecommons.org/licenses/by-nc-sa/4.0/
# or send a letter to
# Creative Commons, PO Box 1866, Mountain View, CA 94042, USA.
#
# CIF created using the CSD Python API on 29 September 2022
# The structure has been converted into the P1 space group
# The structure has a 3D framework
# The original CSD entry CAYROK is in the rhombohedral crystal system
# The framework has been calculated to contain at least 10.0% void space
# The void calculation uses a probe of radius 1.32A, grid spacing 0.4
#
###############################################################################

data_CAYROK
_chemical_formula_moiety         '(C378 H234 N54 Zn12)n'
_symmetry_cell_setting           triclinic
_symmetry_space_group_name_H-M   'P 1'
_symmetry_Int_Tables_number      1
_space_group_name_Hall           'P 1'
loop_
_symmetry_equiv_pos_site_id
_symmetry_equiv_pos_as_xyz
1 x,y,z
_cell_length_a                   33.0734(5)
_cell_length_b                   33.0734(5)
_cell_length_c                   9.2921(4)
_cell_angle_alpha                90
_cell_angle_beta                 90
_cell_angle_gamma                120.00
_cell_volume                     8802.42
loop_
_atom_site_label
_atom_site_type_symbol
_atom_site_fract_x
_atom_site_fract_y
_atom_site_fract_z
Zn1 Zn 0.5000 0.0000 0.0000
N1 N 0.53443(5) 0.00112(5) 0.18811(14)
N2 N 0.49868(5) 0.05828(5) 0.07218(14)
C3 C 0.58122(6) 0.02795(6) 0.38969(19)
H2 H 0.5965 0.0461 0.4723
C4 C 0.55034(6) 0.03451(6) 0.29388(17)
C5 C 0.54081(6) 0.07159(6) 0.30285(17)
C6 C 0.51559(6) 0.08139(6) 0.20018(18)
C7 C 0.50210(6) 0.11662(6) 0.2157(2)
H3 H 0.5096 0.1377 0.2940
C8 C 0.47691(6) 0.11397(6) 0.0982(2)
H4 H 0.4634 0.1328 0.0780
C9 C 0.47440(6) 0.07694(6) 0.00851(18)
C11 C 0.55990(6) 0.10397(6) 0.42929(18)
C12 C 0.59299(7) 0.15097(7) 0.4089(2)
H5 H 0.6040 0.1622 0.3147
C13 C 0.60992(9) 0.18140(8) 0.5253(3)
H6 H 0.6324 0.2133 0.5103
C14 C 0.59407(9) 0.16532(8) 0.6627(2)
H7 H 0.6056 0.1862 0.7420
C15 C 0.56151(8) 0.11894(8) 0.6845(2)
H8 H 0.5505 0.1079 0.7790
C16 C 0.54471(7) 0.08828(7) 0.56817(19)
H9 H 0.5226 0.0563 0.5841
C2 C 0.74046(10) 0.08264(7) 0.00572(19)
H1 H 0.7101 0.0650 0.0462
C3_2 C 0.78006(8) 0.08545(6) 0.05636(19)
H2_2 H 0.7829 0.0702 0.1390
C11_2 C 0.87740(8) 0.10677(6) 0.09596(18)
C12_2 C 0.89131(10) 0.07368(7) 0.0756(2)
C13_2 C 0.90481(12) 0.05675(9) 0.1920(3)
H6_2 H 0.9142 0.0343 0.1770
C14_2 C 0.90458(12) 0.07260(9) 0.3294(2)
H7_2 H 0.9139 0.0611 0.4087
C15_2 C 0.89076(11) 0.10516(8) 0.3512(2)
H8_2 H 0.8907 0.1162 0.4457
C16_2 C 0.87690(10) 0.12196(7) 0.23484(19)
H9_2 H 0.8670 0.1441 0.2508
H12 H 0.5964 0.0949 0.0504
Zn1_2 Zn 0.5000 -0.0000 1.0000
Zn3 Zn 0.3333 0.1667 0.6667
C22 C 0.44493(6) 0.02547(6) 0.78836(18)
C23 C 0.41597(7) 0.00884(7) 0.66095(19)
H14 H 0.3983 0.0215 0.6205
C31 C 0.44952(6) 0.06177(6) 0.87804(18)
C38 C 0.42387(6) 0.08647(6) 0.83383(18)
C39 C 0.38338(6) 0.07821(7) 0.9039(2)
H23 H 0.3708 0.0558 0.9791
C40 C 0.36148(6) 0.10283(7) 0.86371(19)
H24 H 0.3338 0.0968 0.9130
N6 N 0.37749(5) 0.13471(5) 0.75886(16)
N8 N 0.57611(7) 0.04416(5) 0.90781(16)
C41 C 0.41643(6) 0.14249(7) 0.6911(2)
H25 H 0.4282 0.1651 0.6163
C42 C 0.44035(7) 0.11932(7) 0.7242(2)
H26 H 0.4677 0.1258 0.6725
Zn1_3 Zn 0.5000 1.0000 0.0000
C1 C 0.55507(6) 0.97453(6) 0.21164(18)
C2_2 C 0.58403(7) 0.99116(7) 0.33905(19)
H1_2 H 0.6017 0.9785 0.3795
C10 C 0.55048(6) 0.93823(6) 0.12196(18)
C17 C 0.57613(6) 0.91353(6) 0.16617(18)
C18 C 0.61662(6) 0.92179(7) 0.0961(2)
H10 H 0.6292 0.9442 0.0209
C19 C 0.63852(6) 0.89717(7) 0.13629(19)
H11 H 0.6662 0.9032 0.0870
N3 N 0.62251(5) 0.86529(5) 0.24114(16)
C20 C 0.58357(6) 0.85751(7) 0.3089(2)
H12_2 H 0.5718 0.8349 0.3837
C21 C 0.55965(7) 0.88068(7) 0.2758(2)
H13 H 0.5323 0.8742 0.3275
Zn2 Zn 0.6667 0.8333 0.3333
N7 N 0.42389(7) 0.95584(5) 0.09219(16)
Zn1_4 Zn -0.0000 0.5000 0.0000
C1_2 C 0.02547(6) 0.58054(8) 0.21164(18)
C2_3 C 0.00884(7) 0.59287(10) 0.33905(19)
H1_3 H 0.0215 0.6232 0.3795
C10_2 C 0.06177(6) 0.61225(8) 0.12196(18)
C17_2 C 0.08647(6) 0.66260(8) 0.16617(18)
C18_2 C 0.07821(7) 0.69483(9) 0.0961(2)
H10_2 H 0.0558 0.6850 0.0209
C19_2 C 0.10283(7) 0.74135(9) 0.13629(19)
H11_2 H 0.0968 0.7630 0.0870
N3_2 N 0.13471(5) 0.75722(7) 0.24114(16)
C20_2 C 0.14249(7) 0.72606(9) 0.3089(2)
H12_3 H 0.1651 0.7369 0.3837
C21_2 C 0.11932(7) 0.67897(10) 0.2758(2)
H13_2 H 0.1258 0.6581 0.3275
Zn2_2 Zn 0.1667 0.8333 0.3333
N7_2 N 0.04416(5) 0.46804(9) 0.09219(16)
Zn1_5 Zn 1.0000 0.5000 1.0000
Zn3_2 Zn 0.8333 0.1667 0.6667
C22_2 C 0.97453(6) 0.41946(8) 0.78836(18)
C23_2 C 0.99116(7) 0.40713(10) 0.66095(19)
H14_2 H 0.9785 0.3768 0.6205
C31_2 C 0.93823(6) 0.38775(8) 0.87804(18)
C38_2 C 0.91353(6) 0.33740(8) 0.83383(18)
C39_2 C 0.92179(7) 0.30517(9) 0.9039(2)
H23_2 H 0.9442 0.3150 0.9791
C40_2 C 0.89717(7) 0.25865(9) 0.86371(19)
H24_2 H 0.9032 0.2370 0.9130
N6_2 N 0.86529(5) 0.24278(7) 0.75886(16)
N8_2 N 0.95584(5) 0.53196(9) 0.90781(16)
C41_2 C 0.85751(7) 0.27394(9) 0.6911(2)
H25_2 H 0.8349 0.2631 0.6163
C42_2 C 0.88068(7) 0.32103(10) 0.7242(2)
H26_2 H 0.8742 0.3419 0.6725
Zn1_6 Zn 0.5000 0.5000 0.0000
N1_2 N 0.46669(7) 0.46557(5) 0.18811(14)
N2_2 N 0.55960(7) 0.50132(5) 0.07218(14)
C1_3 C 0.41946(8) 0.44493(6) 0.21164(18)
C2_4 C 0.40713(10) 0.41597(7) 0.33905(19)
H1_4 H 0.3768 0.3983 0.3795
C3_3 C 0.44673(8) 0.41878(6) 0.38969(19)
H2_3 H 0.4496 0.4035 0.4723
C4_2 C 0.48417(8) 0.44966(6) 0.29388(17)
C5_2 C 0.53078(8) 0.45919(6) 0.30285(17)
C6_2 C 0.56580(8) 0.48441(6) 0.20018(18)
C7_2 C 0.61452(8) 0.49790(6) 0.2157(2)
H3_2 H 0.6281 0.4904 0.2940
C8_2 C 0.63706(8) 0.52309(6) 0.0982(2)
H4_2 H 0.6694 0.5366 0.0780
C9_2 C 0.60254(8) 0.52560(6) 0.00851(18)
C10_3 C 0.38775(8) 0.44952(6) 0.12196(18)
C11_3 C 0.54407(8) 0.44010(6) 0.42929(18)
C12_3 C 0.55798(10) 0.40701(7) 0.4089(2)
H5_2 H 0.5582 0.3960 0.3147
C13_3 C 0.57148(12) 0.39008(9) 0.5253(3)
H6_3 H 0.5809 0.3676 0.5103
C14_3 C 0.57125(12) 0.40593(9) 0.6627(2)
H7_3 H 0.5806 0.3944 0.7420
C15_3 C 0.55743(11) 0.43849(8) 0.6845(2)
H8_3 H 0.5574 0.4495 0.7790
C16_3 C 0.54357(10) 0.45529(7) 0.56817(19)
H9_3 H 0.5337 0.4774 0.5841
C17_3 C 0.33740(8) 0.42387(6) 0.16617(18)
C18_3 C 0.30517(9) 0.38338(6) 0.0961(2)
H10_3 H 0.3150 0.3708 0.0209
C19_3 C 0.25865(9) 0.36148(6) 0.13629(19)
H11_3 H 0.2370 0.3338 0.0870
N3_3 N 0.24278(7) 0.37749(5) 0.24114(16)
C20_3 C 0.27394(9) 0.41643(6) 0.3089(2)
H12_4 H 0.2631 0.4282 0.3837
C21_3 C 0.32103(10) 0.44035(7) 0.2758(2)
H13_3 H 0.3419 0.4677 0.3275
Zn2_3 Zn 0.1667 0.3333 0.3333
N7_3 N 0.53196(9) 0.57611(7) 0.09219(16)
Zn1_7 Zn 0.5000 0.5000 1.0000
Zn3_3 Zn 0.8333 0.6667 0.6667
N4 N 0.53331(7) 0.53443(5) 0.81189(14)
N5 N 0.44040(7) 0.49868(5) 0.92782(14)
C22_3 C 0.58054(8) 0.55507(6) 0.78836(18)
C23_3 C 0.59287(10) 0.58403(7) 0.66095(19)
H14_3 H 0.6232 0.6017 0.6205
C24 C 0.55327(8) 0.58122(6) 0.61031(19)
H15 H 0.5504 0.5965 0.5277
C25 C 0.51583(8) 0.55034(6) 0.70612(17)
C26 C 0.46922(8) 0.54081(6) 0.69715(17)
C27 C 0.43420(8) 0.51559(6) 0.79982(18)
C28 C 0.38548(8) 0.50210(6) 0.7843(2)
H16 H 0.3719 0.5096 0.7060
C29 C 0.36294(8) 0.47691(6) 0.9018(2)
H17 H 0.3306 0.4634 0.9220
C30 C 0.39746(8) 0.47440(6) 0.99149(18)
C31_3 C 0.61225(8) 0.55048(6) 0.87804(18)
C32 C 0.45593(8) 0.55990(6) 0.57071(18)
C33 C 0.44202(10) 0.59299(7) 0.5911(2)
H18 H 0.4418 0.6040 0.6853
C34 C 0.42852(12) 0.60992(9) 0.4747(3)
H19 H 0.4191 0.6324 0.4897
C35 C 0.42875(12) 0.59407(9) 0.3373(2)
H20 H 0.4194 0.6056 0.2580
C36 C 0.44257(11) 0.56151(8) 0.3155(2)
H21 H 0.4426 0.5505 0.2210
C37 C 0.45643(10) 0.54471(7) 0.43183(19)
H22 H 0.4663 0.5226 0.4159
C38_3 C 0.66260(8) 0.57613(6) 0.83383(18)
C39_3 C 0.69483(9) 0.61662(6) 0.9039(2)
H23_3 H 0.6850 0.6292 0.9791
C40_3 C 0.74135(9) 0.63852(6) 0.86371(19)
H24_3 H 0.7630 0.6662 0.9130
N6_3 N 0.75722(7) 0.62251(5) 0.75886(16)
N8_3 N 0.46804(9) 0.42389(7) 0.90781(16)
C41_3 C 0.72606(9) 0.58357(6) 0.6911(2)
H25_3 H 0.7369 0.5718 0.6163
C42_3 C 0.67897(10) 0.55965(7) 0.7242(2)
H26_3 H 0.6581 0.5323 0.6725
N1_3 N 0.20110(5) 0.33445(5) 0.52144(14)
N2_3 N 0.16535(5) 0.39161(5) 0.40551(14)
C1_4 C 0.22174(6) 0.30786(6) 0.54497(18)
C2_5 C 0.25070(7) 0.32449(7) 0.67238(19)
H1_5 H 0.2684 0.3118 0.7128
C3_4 C 0.24789(6) 0.36128(6) 0.72302(19)
H2_4 H 0.2632 0.3794 0.8056
C4_3 C 0.21701(6) 0.36784(6) 0.62721(17)
C5_3 C 0.20748(6) 0.40492(6) 0.63618(17)
C6_3 C 0.18226(6) 0.41472(6) 0.53351(18)
C7_3 C 0.16877(6) 0.44995(6) 0.5490(2)
H3_3 H 0.1763 0.4710 0.6273
C8_3 C 0.14358(6) 0.44730(6) 0.4315(2)
H4_3 H 0.1301 0.4661 0.4113
C9_3 C 0.14107(6) 0.41027(6) 0.34184(18)
C10_4 C 0.21715(6) 0.27156(6) 0.45529(18)
C11_4 C 0.22657(6) 0.43730(6) 0.76262(18)
C12_4 C 0.25966(7) 0.48430(7) 0.7422(2)
H5_3 H 0.2707 0.4955 0.6480
C13_4 C 0.27659(9) 0.51473(8) 0.8586(3)
H6_4 H 0.2991 0.5466 0.8436
C14_4 C 0.26074(9) 0.49865(8) 0.9960(2)
C16_4 C 0.21138(7) 0.42161(7) 0.90150(19)
H9_4 H 0.1893 0.3896 0.9174
C17_4 C 0.24280(6) 0.24686(6) 0.49950(18)
C18_4 C 0.28329(6) 0.25512(7) 0.4294(2)
H10_4 H 0.2959 0.2775 0.3542
C19_4 C 0.30519(6) 0.23050(7) 0.46962(19)
H11_4 H 0.3329 0.2365 0.4203
N3_4 N 0.28918(5) 0.19862(5) 0.57447(16)
C20_4 C 0.25024(6) 0.19084(7) 0.6422(2)
H12_5 H 0.2385 0.1682 0.7170
C21_4 C 0.22632(7) 0.21401(7) 0.6091(2)
H13_4 H 0.1990 0.2075 0.6608
N4_2 N 0.13224(5) 0.33221(5) 0.14522(14)
N5_2 N 0.16799(5) 0.27505(5) 0.26115(14)
C22_4 C 0.11160(6) 0.35880(6) 0.12169(18)
C25_2 C 0.11633(6) 0.29882(6) 0.03945(17)
C26_2 C 0.12586(6) 0.26174(6) 0.03048(17)
C27_2 C 0.15108(6) 0.25194(6) 0.13315(18)
C28_2 C 0.16457(6) 0.21671(6) 0.1176(2)
H16_2 H 0.1571 0.1956 0.0393
C29_2 C 0.18976(6) 0.21936(6) 0.2351(2)
H17_2 H 0.2033 0.2005 0.2553
C30_2 C 0.19227(6) 0.25639(6) 0.32482(18)
C31_4 C 0.11619(6) 0.39510(6) 0.21137(18)
H18_2 H 0.0627 0.1711 0.0186
C38_4 C 0.09054(6) 0.41980(6) 0.16716(18)
C39_4 C 0.05005(6) 0.41154(7) 0.2372(2)
H23_4 H 0.0375 0.3891 0.3124
C40_4 C 0.02815(6) 0.43616(7) 0.19704(19)
H24_4 H 0.0005 0.4301 0.2463
N7_4 N 0.09055(7) 0.28918(5) 0.42553(16)
C41_4 C 0.08310(6) 0.47582(7) 0.0244(2)
C42_4 C 0.10702(7) 0.45265(7) 0.0575(2)
H26_4 H 0.1344 0.4591 0.0058
C18_5 C 0.74488(7) 0.02816(9) 0.4294(2)
H10_5 H 0.7225 0.0183 0.3542
C19_5 C 0.76950(7) 0.07468(9) 0.46962(19)
H11_5 H 0.7635 0.0963 0.4203
N3_5 N 0.80138(5) 0.09055(7) 0.57447(16)
C20_5 C 0.80916(7) 0.05939(9) 0.6422(2)
H12_6 H 0.8318 0.0702 0.7170
C21_5 C 0.78599(7) 0.01230(10) 0.6091(2)
H17_3 H 0.7995 0.0027 0.2553
N1_4 N 0.66555(5) 0.86664(7) 0.52144(14)
N2_4 N 0.60839(5) 0.77373(7) 0.40551(14)
C1_5 C 0.69214(6) 0.91387(8) 0.54497(18)
C2_6 C 0.67551(7) 0.92620(10) 0.67238(19)
H1_6 H 0.6882 0.9565 0.7128
C3_5 C 0.63872(6) 0.88660(8) 0.72302(19)
H2_5 H 0.6206 0.8837 0.8056
C4_4 C 0.63216(6) 0.84916(8) 0.62721(17)
C5_4 C 0.59508(6) 0.80255(8) 0.63618(17)
C6_4 C 0.58528(6) 0.76753(8) 0.53351(18)
C7_4 C 0.55005(6) 0.71881(8) 0.5490(2)
H3_4 H 0.5290 0.7052 0.6273
C8_4 C 0.55270(6) 0.69627(8) 0.4315(2)
H4_4 H 0.5339 0.6639 0.4113
C9_4 C 0.58973(6) 0.73079(8) 0.34184(18)
C10_5 C 0.72844(6) 0.94558(8) 0.45529(18)
C11_5 C 0.56270(6) 0.78926(8) 0.76262(18)
C12_5 C 0.51570(7) 0.77535(10) 0.7422(2)
H5_4 H 0.5045 0.7751 0.6480
C13_5 C 0.48527(8) 0.76185(12) 0.8586(3)
H6_5 H 0.4534 0.7524 0.8436
C14_5 C 0.50135(8) 0.76208(12) 0.9960(2)
C16_5 C 0.57839(7) 0.78976(10) 0.90150(19)
H9_5 H 0.6104 0.7996 0.9174
C17_5 C 0.75314(6) 0.99593(8) 0.49950(18)
H13_5 H 0.7925 0.9914 0.6608
N4_3 N 0.66779(5) 0.80002(7) 0.14522(14)
N5_3 N 0.72495(5) 0.89293(7) 0.26115(14)
C22_5 C 0.64120(6) 0.75279(8) 0.12169(18)
C25_3 C 0.70118(6) 0.81750(8) 0.03945(17)
C26_3 C 0.73826(6) 0.86411(8) 0.03048(17)
C27_3 C 0.74806(6) 0.89913(8) 0.13315(18)
C28_3 C 0.78329(6) 0.94785(8) 0.1176(2)
H16_3 H 0.8044 0.9614 0.0393
C29_3 C 0.78064(6) 0.97039(8) 0.2351(2)
C30_3 C 0.74361(6) 0.93587(8) 0.32482(18)
C31_5 C 0.60490(6) 0.72108(8) 0.21137(18)
H18_3 H 0.8289 0.8915 0.0186
C38_5 C 0.58020(6) 0.67073(8) 0.16716(18)
C39_5 C 0.58846(7) 0.63850(9) 0.2372(2)
H23_5 H 0.6109 0.6483 0.3124
C40_5 C 0.56384(7) 0.59198(9) 0.19704(19)
H24_5 H 0.5699 0.5703 0.2463
N7_5 N 0.71082(5) 0.80138(9) 0.42553(16)
C41_5 C 0.52418(7) 0.60727(9) 0.0244(2)
C42_5 C 0.54735(7) 0.65436(10) 0.0575(2)
H26_5 H 0.5409 0.6752 0.0058
C23_4 C 0.65783(7) 0.74046(10) 0.99428(19)
H14_4 H 0.6452 0.7101 0.9538
C24_2 C 0.69462(6) 0.78006(8) 0.94364(19)
H15_2 H 0.7128 0.7829 0.8610
C32_2 C 0.77064(6) 0.87740(8) 0.90404(18)
C33_2 C 0.81764(7) 0.89131(10) 0.9244(2)
C34_2 C 0.84807(8) 0.90481(12) 0.8080(3)
H19_2 H 0.8800 0.9142 0.8230
C35_2 C 0.83199(8) 0.90458(12) 0.6706(2)
H20_2 H 0.8529 0.9139 0.5913
C36_2 C 0.78561(8) 0.89076(11) 0.6488(2)
H21_2 H 0.7746 0.8907 0.5543
C37_2 C 0.75495(7) 0.87690(10) 0.76516(19)
H22_2 H 0.7230 0.8670 0.7492
H25_4 H 0.5016 0.5964 0.9496
N1_5 N 0.13336(7) 0.79890(5) 0.52144(14)
N2_5 N 0.22627(7) 0.83465(5) 0.40551(14)
C1_6 C 0.08613(8) 0.77826(6) 0.54497(18)
C2_7 C 0.07380(10) 0.74930(7) 0.67238(19)
H1_7 H 0.0435 0.7316 0.7128
C3_6 C 0.11340(8) 0.75211(6) 0.72302(19)
H2_6 H 0.1163 0.7368 0.8056
C4_5 C 0.15084(8) 0.78299(6) 0.62721(17)
C5_5 C 0.19745(8) 0.79252(6) 0.63618(17)
C6_5 C 0.23247(8) 0.81774(6) 0.53351(18)
C7_5 C 0.28119(8) 0.83123(6) 0.5490(2)
H3_5 H 0.2948 0.8237 0.6273
C8_5 C 0.30373(8) 0.85642(6) 0.4315(2)
H4_5 H 0.3361 0.8699 0.4113
C9_5 C 0.26921(8) 0.85893(6) 0.34184(18)
C10_6 C 0.05442(8) 0.78285(6) 0.45529(18)
C11_6 C 0.21074(8) 0.77343(6) 0.76262(18)
C12_6 C 0.22465(10) 0.74034(7) 0.7422(2)
H5_5 H 0.2249 0.7293 0.6480
C13_6 C 0.23815(12) 0.72341(9) 0.8586(3)
H6_6 H 0.2476 0.7009 0.8436
C14_6 C 0.23792(12) 0.73926(9) 0.9960(2)
C16_6 C 0.21024(10) 0.78862(7) 0.90150(19)
H9_6 H 0.2004 0.8107 0.9174
C17_6 C 0.00407(8) 0.75720(6) 0.49950(18)
H13_6 H 0.0086 0.8010 0.6608
N4_4 N 0.19998(7) 0.86776(5) 0.14522(14)
N5_4 N 0.10707(7) 0.83201(5) 0.26115(14)
C22_6 C 0.24721(8) 0.88840(6) 0.12169(18)
C25_4 C 0.18250(8) 0.88367(6) 0.03945(17)
C26_4 C 0.13589(8) 0.87414(6) 0.03048(17)
C27_4 C 0.10087(8) 0.84892(6) 0.13315(18)
C28_4 C 0.05215(8) 0.83543(6) 0.1176(2)
H16_4 H 0.0386 0.8429 0.0393
C29_4 C 0.02961(8) 0.81024(6) 0.2351(2)
C30_4 C 0.06413(8) 0.80773(6) 0.32482(18)
C31_6 C 0.27892(8) 0.88381(6) 0.21137(18)
H18_4 H 0.1085 0.9373 0.0186
C38_6 C 0.32927(8) 0.90946(6) 0.16716(18)
C39_6 C 0.36150(9) 0.94995(6) 0.2372(2)
H23_6 H 0.3517 0.9625 0.3124
C40_6 C 0.40802(9) 0.97185(6) 0.19704(19)
H24_6 H 0.4297 0.9995 0.2463
N7_6 N 0.19862(9) 0.90945(7) 0.42553(16)
C41_6 C 0.39273(9) 0.91690(6) 0.0244(2)
C42_6 C 0.34564(10) 0.89298(7) 0.0575(2)
H26_6 H 0.3248 0.8656 0.0058
C18_6 C 0.97184(9) 0.71671(6) 0.4294(2)
H10_6 H 0.9817 0.7041 0.3542
C19_6 C 0.92532(9) 0.69481(6) 0.46962(19)
H11_6 H 0.9037 0.6671 0.4203
N3_6 N 0.90945(7) 0.71082(5) 0.57447(16)
C20_6 C 0.94061(9) 0.74976(6) 0.6422(2)
H12_7 H 0.9298 0.7615 0.7170
C21_6 C 0.98770(10) 0.77368(7) 0.6091(2)
H17_4 H 0.9973 0.7967 0.2553
N1_6 N 0.86776(5) 0.66779(5) 0.85478(14)
N2_6 N 0.83201(5) 0.72495(5) 0.73885(14)
C1_7 C 0.88840(6) 0.64120(6) 0.87831(18)
C4_6 C 0.88367(6) 0.70118(6) 0.96055(17)
C5_6 C 0.87414(6) 0.73826(6) 0.96952(17)
C6_6 C 0.84892(6) 0.74806(6) 0.86685(18)
C7_6 C 0.83543(6) 0.78329(6) 0.8824(2)
H3_6 H 0.8429 0.8044 0.9607
C8_6 C 0.81024(6) 0.78064(6) 0.7649(2)
H4_6 H 0.7967 0.7995 0.7447
C9_6 C 0.80773(6) 0.74361(6) 0.67518(18)
C10_7 C 0.88381(6) 0.60490(6) 0.78863(18)
H5_6 H 0.9373 0.8289 0.9814
C17_7 C 0.90946(6) 0.58020(6) 0.83284(18)
C18_7 C 0.94995(6) 0.58846(7) 0.7628(2)
H10_7 H 0.9625 0.6109 0.6876
C19_7 C 0.97185(6) 0.56384(7) 0.80296(19)
H11_7 H 0.9995 0.5699 0.7537
C20_7 C 0.91690(6) 0.52418(7) 0.9756(2)
C21_7 C 0.89298(7) 0.54735(7) 0.9425(2)
H13_7 H 0.8656 0.5409 0.9942
N4_5 N 0.79890(5) 0.66555(5) 0.47856(14)
N5_5 N 0.83465(5) 0.60839(5) 0.59449(14)
C22_7 C 0.77826(6) 0.69214(6) 0.45503(18)
C23_5 C 0.74930(7) 0.67551(7) 0.32762(19)
H14_5 H 0.7316 0.6882 0.2872
C24_3 C 0.75211(6) 0.63872(6) 0.27698(19)
H15_3 H 0.7368 0.6206 0.1944
C25_5 C 0.78299(6) 0.63216(6) 0.37279(17)
C26_5 C 0.79252(6) 0.59508(6) 0.36382(17)
C27_5 C 0.81774(6) 0.58528(6) 0.46649(18)
C28_5 C 0.83123(6) 0.55005(6) 0.4510(2)
H16_5 H 0.8237 0.5290 0.3727
C29_5 C 0.85642(6) 0.55270(6) 0.5685(2)
H17_5 H 0.8699 0.5339 0.5887
C30_5 C 0.85893(6) 0.58973(6) 0.65816(18)
C31_7 C 0.78285(6) 0.72844(6) 0.54471(18)
C32_3 C 0.77343(6) 0.56270(6) 0.23738(18)
C33_3 C 0.74034(7) 0.51570(7) 0.2578(2)
H18_5 H 0.7293 0.5045 0.3520
C34_3 C 0.72341(9) 0.48527(8) 0.1414(3)
H19_3 H 0.7009 0.4534 0.1564
C35_3 C 0.73926(9) 0.50135(8) 0.0040(2)
C37_3 C 0.78862(7) 0.57839(7) 0.09850(19)
H22_3 H 0.8107 0.6104 0.0826
C38_7 C 0.75720(6) 0.75314(6) 0.50050(18)
C39_7 C 0.71671(6) 0.74488(7) 0.5706(2)
H23_7 H 0.7041 0.7225 0.6458
C40_7 C 0.69481(6) 0.76950(7) 0.53038(19)
H24_7 H 0.6671 0.7635 0.5797
C41_7 C 0.74976(6) 0.80916(7) 0.3578(2)
H25_5 H 0.7615 0.8318 0.2830
C42_7 C 0.77368(7) 0.78599(7) 0.3909(2)
H26_7 H 0.8010 0.7925 0.3392
C2_8 C 0.34217(7) 0.25954(10) 0.00572(19)
H1_8 H 0.3548 0.2899 0.0462
C3_7 C 0.30538(6) 0.21994(8) 0.05636(19)
H2_7 H 0.2872 0.2171 0.1390
C11_7 C 0.22936(6) 0.12260(8) 0.09596(18)
C12_7 C 0.18236(7) 0.10869(10) 0.0756(2)
C13_7 C 0.15193(8) 0.09519(12) 0.1920(3)
H6_7 H 0.1200 0.0858 0.1770
C14_7 C 0.16801(8) 0.09542(12) 0.3294(2)
H7_4 H 0.1471 0.0861 0.4087
C15_4 C 0.21439(8) 0.10924(11) 0.3512(2)
H8_4 H 0.2254 0.1093 0.4457
C16_7 C 0.24505(7) 0.12310(10) 0.23484(19)
H9_7 H 0.2770 0.1330 0.2508
H12_8 H 0.4984 0.4036 0.0504
N1_7 N 0.33221(5) 0.19998(7) 0.85478(14)
N2_7 N 0.27505(5) 0.10707(7) 0.73885(14)
C1_8 C 0.35880(6) 0.24721(8) 0.87831(18)
C4_7 C 0.29882(6) 0.18250(8) 0.96055(17)
C5_7 C 0.26174(6) 0.13589(8) 0.96952(17)
C6_7 C 0.25194(6) 0.10087(8) 0.86685(18)
C7_7 C 0.21671(6) 0.05215(8) 0.8824(2)
H3_7 H 0.1956 0.0386 0.9607
C8_7 C 0.21936(6) 0.02961(8) 0.7649(2)
C9_7 C 0.25639(6) 0.06413(8) 0.67518(18)
C10_8 C 0.39510(6) 0.27892(8) 0.78863(18)
H5_7 H 0.1711 0.1085 0.9814
C17_8 C 0.41980(6) 0.32927(8) 0.83284(18)
C18_8 C 0.41154(7) 0.36150(9) 0.7628(2)
H10_8 H 0.3891 0.3517 0.6876
C19_8 C 0.43616(7) 0.40802(9) 0.80296(19)
H11_8 H 0.4301 0.4297 0.7537
C20_8 C 0.47582(7) 0.39273(9) 0.9756(2)
C21_8 C 0.45265(7) 0.34564(10) 0.9425(2)
H13_8 H 0.4591 0.3248 0.9942
N4_6 N 0.33445(5) 0.13336(7) 0.47856(14)
N5_6 N 0.39161(5) 0.22627(7) 0.59449(14)
C22_8 C 0.30786(6) 0.08613(8) 0.45503(18)
C23_6 C 0.32449(7) 0.07380(10) 0.32762(19)
H14_6 H 0.3118 0.0435 0.2872
C24_4 C 0.36128(6) 0.11340(8) 0.27698(19)
H15_4 H 0.3794 0.1163 0.1944
C25_6 C 0.36784(6) 0.15084(8) 0.37279(17)
C26_6 C 0.40492(6) 0.19745(8) 0.36382(17)
C27_6 C 0.41472(6) 0.23247(8) 0.46649(18)
C28_6 C 0.44995(6) 0.28119(8) 0.4510(2)
H16_6 H 0.4710 0.2948 0.3727
C29_6 C 0.44730(6) 0.30373(8) 0.5685(2)
H17_6 H 0.4661 0.3361 0.5887
C30_6 C 0.41027(6) 0.26921(8) 0.65816(18)
C31_8 C 0.27156(6) 0.05442(8) 0.54471(18)
C32_4 C 0.43730(6) 0.21074(8) 0.23738(18)
C33_4 C 0.48430(7) 0.22465(10) 0.2578(2)
H18_6 H 0.4955 0.2249 0.3520
C34_4 C 0.51473(8) 0.23815(12) 0.1414(3)
H19_4 H 0.5466 0.2476 0.1564
C35_4 C 0.49865(8) 0.23792(12) 0.0040(2)
C37_4 C 0.42161(7) 0.21024(10) 0.09850(19)
H22_4 H 0.3896 0.2004 0.0826
C38_8 C 0.24686(6) 0.00407(8) 0.50050(18)
H26_8 H 0.2075 0.0086 0.3392
H4_7 H 0.2005 0.9973 0.7447
C39_8 C 0.25512(7) 0.97184(9) 0.5706(2)
H23_8 H 0.2775 0.9817 0.6458
C40_8 C 0.23050(7) 0.92532(9) 0.53038(19)
H24_8 H 0.2365 0.9037 0.5797
C41_8 C 0.19084(7) 0.94061(9) 0.3578(2)
H25_6 H 0.1682 0.9298 0.2830
C42_8 C 0.21401(7) 0.98770(10) 0.3909(2)
H4_8 H 0.0027 0.2033 0.7447
C39_9 C 0.02816(9) 0.28329(6) 0.5706(2)
H23_9 H 0.0183 0.2959 0.6458
C40_9 C 0.07468(9) 0.30519(6) 0.53038(19)
H24_9 H 0.0963 0.3329 0.5797
C41_9 C 0.05939(9) 0.25024(6) 0.3578(2)
H25_7 H 0.0702 0.2385 0.2830
C42_9 C 0.01230(10) 0.22632(7) 0.3909(2)
N1_8 N 0.80002(7) 0.13224(5) 0.85478(14)
N2_8 N 0.89293(7) 0.16799(5) 0.73885(14)
C1_9 C 0.75279(8) 0.11160(6) 0.87831(18)
C4_8 C 0.81750(8) 0.11633(6) 0.96055(17)
C5_8 C 0.86411(8) 0.12586(6) 0.96952(17)
C6_8 C 0.89913(8) 0.15108(6) 0.86685(18)
C7_8 C 0.94785(8) 0.16457(6) 0.8824(2)
H3_8 H 0.9614 0.1571 0.9607
C8_8 C 0.97039(8) 0.18976(6) 0.7649(2)
C9_8 C 0.93587(8) 0.19227(6) 0.67518(18)
C10_9 C 0.72108(8) 0.11619(6) 0.78863(18)
H5_8 H 0.8915 0.0627 0.9814
C17_9 C 0.67073(8) 0.09054(6) 0.83284(18)
C18_9 C 0.63850(9) 0.05005(6) 0.7628(2)
H10_9 H 0.6483 0.0375 0.6876
C19_9 C 0.59198(9) 0.02815(6) 0.80296(19)
H11_9 H 0.5703 0.0005 0.7537
C20_9 C 0.60727(9) 0.08310(6) 0.9756(2)
C21_9 C 0.65436(10) 0.10702(7) 0.9425(2)
H13_9 H 0.6752 0.1344 0.9942
N4_7 N 0.86664(7) 0.20110(5) 0.47856(14)
N5_7 N 0.77373(7) 0.16535(5) 0.59449(14)
C22_9 C 0.91387(8) 0.22174(6) 0.45503(18)
C23_7 C 0.92620(10) 0.25070(7) 0.32762(19)
H14_7 H 0.9565 0.2684 0.2872
C24_5 C 0.88660(8) 0.24789(6) 0.27698(19)
H15_5 H 0.8837 0.2632 0.1944
C25_7 C 0.84916(8) 0.21701(6) 0.37279(17)
C26_7 C 0.80255(8) 0.20748(6) 0.36382(17)
C27_7 C 0.76753(8) 0.18226(6) 0.46649(18)
C28_7 C 0.71881(8) 0.16877(6) 0.4510(2)
H16_7 H 0.7052 0.1763 0.3727
C29_7 C 0.69627(8) 0.14358(6) 0.5685(2)
H17_7 H 0.6639 0.1301 0.5887
C30_7 C 0.73079(8) 0.14107(6) 0.65816(18)
C31_9 C 0.94558(8) 0.21715(6) 0.54471(18)
C32_5 C 0.78926(8) 0.22657(6) 0.23738(18)
C33_5 C 0.77535(10) 0.25966(7) 0.2578(2)
H18_7 H 0.7751 0.2707 0.3520
C34_5 C 0.76185(12) 0.27659(9) 0.1414(3)
H19_5 H 0.7524 0.2991 0.1564
C35_5 C 0.76208(12) 0.26074(9) 0.0040(2)
C37_5 C 0.78976(10) 0.21138(7) 0.09850(19)
H22_5 H 0.7996 0.1893 0.0826
C38_9 C 0.99593(8) 0.24280(6) 0.50050(18)
H26_9 H 0.9914 0.1990 0.3392
Zn1_8 Zn 0.5000 1.0000 1.0000
N4_8 N 0.46557(5) 0.99888(5) 0.81189(14)
N5_8 N 0.50132(5) 0.94172(5) 0.92782(14)
C24_6 C 0.41878(6) 0.97205(6) 0.61031(19)
H15_6 H 0.4035 0.9539 0.5277
C25_8 C 0.44966(6) 0.96549(6) 0.70612(17)
C26_8 C 0.45919(6) 0.92841(6) 0.69715(17)
C27_8 C 0.48441(6) 0.91861(6) 0.79982(18)
C28_8 C 0.49790(6) 0.88338(6) 0.7843(2)
H16_8 H 0.4904 0.8623 0.7060
C29_8 C 0.52309(6) 0.88603(6) 0.9018(2)
H17_8 H 0.5366 0.8672 0.9220
C30_8 C 0.52560(6) 0.92306(6) 0.99149(18)
C32_6 C 0.44010(6) 0.89603(6) 0.57071(18)
C33_6 C 0.40701(7) 0.84903(7) 0.5911(2)
H18_8 H 0.3960 0.8378 0.6853
C34_6 C 0.39008(9) 0.81860(8) 0.4747(3)
H19_6 H 0.3676 0.7867 0.4897
C35_6 C 0.40593(9) 0.83468(8) 0.3373(2)
H20_3 H 0.3944 0.8138 0.2580
C36_3 C 0.43849(8) 0.88106(8) 0.3155(2)
H21_3 H 0.4495 0.8921 0.2210
C37_6 C 0.45529(7) 0.91172(7) 0.43183(19)
H22_6 H 0.4774 0.9437 0.4159
C23_8 C 0.25954(10) 0.91736(7) 0.99428(19)
H14_8 H 0.2899 0.9350 0.9538
C24_7 C 0.21994(8) 0.91455(6) 0.94364(19)
H15_7 H 0.2171 0.9298 0.8610
C32_7 C 0.12260(8) 0.89323(6) 0.90404(18)
C33_7 C 0.10869(10) 0.92632(7) 0.9244(2)
C34_7 C 0.09519(12) 0.94325(9) 0.8080(3)
H19_7 H 0.0858 0.9657 0.8230
C35_7 C 0.09542(12) 0.92740(9) 0.6706(2)
H20_4 H 0.0861 0.9389 0.5913
C36_4 C 0.10924(11) 0.89484(8) 0.6488(2)
H21_4 H 0.1093 0.8838 0.5543
C37_7 C 0.12310(10) 0.87804(7) 0.76516(19)
H22_7 H 0.1330 0.8559 0.7492
H25_8 H 0.4036 0.9051 0.9496
Zn1_9 Zn -0.0000 0.5000 1.0000
N4_9 N 0.00112(5) 0.46669(7) 0.81189(14)
N5_9 N 0.05828(5) 0.55960(7) 0.92782(14)
C24_8 C 0.02795(6) 0.44673(8) 0.61031(19)
H15_8 H 0.0461 0.4496 0.5277
C25_9 C 0.03451(6) 0.48417(8) 0.70612(17)
C26_9 C 0.07159(6) 0.53078(8) 0.69715(17)
C27_9 C 0.08139(6) 0.56580(8) 0.79982(18)
C28_9 C 0.11662(6) 0.61452(8) 0.7843(2)
H16_9 H 0.1377 0.6281 0.7060
C29_9 C 0.11397(6) 0.63706(8) 0.9018(2)
H17_9 H 0.1328 0.6694 0.9220
C30_9 C 0.07694(6) 0.60254(8) 0.99149(18)
C32_8 C 0.10397(6) 0.54407(8) 0.57071(18)
C33_8 C 0.15097(7) 0.55798(10) 0.5911(2)
H18_9 H 0.1622 0.5582 0.6853
C34_8 C 0.18140(8) 0.57148(12) 0.4747(3)
H19_8 H 0.2133 0.5809 0.4897
C35_8 C 0.16532(8) 0.57125(12) 0.3373(2)
H20_5 H 0.1862 0.5806 0.2580
C36_5 C 0.11894(8) 0.55743(11) 0.3155(2)
H21_5 H 0.1079 0.5574 0.2210
C37_8 C 0.08828(7) 0.54357(10) 0.43183(19)
H22_8 H 0.0563 0.5337 0.4159
C23_9 C 0.08264(7) 0.34217(7) 0.99428(19)
H14_9 H 0.0650 0.3548 0.9538
C24_9 C 0.08545(6) 0.30538(6) 0.94364(19)
H15_9 H 0.0702 0.2872 0.8610
C32_9 C 0.10677(6) 0.22936(6) 0.90404(18)
C33_9 C 0.07368(7) 0.18236(7) 0.9244(2)
C34_9 C 0.05675(9) 0.15193(8) 0.8080(3)
H19_9 H 0.0343 0.1200 0.8230
C35_9 C 0.07260(9) 0.16801(8) 0.6706(2)
H20_6 H 0.0611 0.1471 0.5913
C36_6 C 0.10516(8) 0.21439(8) 0.6488(2)
H21_6 H 0.1162 0.2254 0.5543
C37_9 C 0.12196(7) 0.24505(7) 0.76516(19)
H22_9 H 0.1441 0.2770 0.7492
H25_9 H 0.0949 0.4984 0.9496
Zn1_10 Zn 1.0000 0.5000 0.0000
N1_9 N 0.99888(5) 0.53331(7) 0.18811(14)
N2_9 N 0.94172(5) 0.44040(7) 0.07218(14)
C3_8 C 0.97205(6) 0.55327(8) 0.38969(19)
H2_8 H 0.9539 0.5504 0.4723
C4_9 C 0.96549(6) 0.51583(8) 0.29388(17)
C5_9 C 0.92841(6) 0.46922(8) 0.30285(17)
C6_9 C 0.91861(6) 0.43420(8) 0.20018(18)
C7_9 C 0.88338(6) 0.38548(8) 0.2157(2)
H3_9 H 0.8623 0.3719 0.2940
C8_9 C 0.88603(6) 0.36294(8) 0.0982(2)
H4_9 H 0.8672 0.3306 0.0780
C9_9 C 0.92306(6) 0.39746(8) 0.00851(18)
C11_8 C 0.89603(6) 0.45593(8) 0.42929(18)
C12_8 C 0.84903(7) 0.44202(10) 0.4089(2)
H5_9 H 0.8378 0.4418 0.3147
C13_8 C 0.81860(8) 0.42852(12) 0.5253(3)
H6_8 H 0.7867 0.4191 0.5103
C14_8 C 0.83468(8) 0.42875(12) 0.6627(2)
H7_5 H 0.8138 0.4194 0.7420
C15_5 C 0.88106(8) 0.44257(11) 0.6845(2)
H8_5 H 0.8921 0.4426 0.7790
C16_8 C 0.91172(7) 0.45643(10) 0.56817(19)
H9_8 H 0.9437 0.4663 0.5841
C2_9 C 0.91736(7) 0.65783(7) 0.00572(19)
H1_9 H 0.9350 0.6452 0.0462
C3_9 C 0.91455(6) 0.69462(6) 0.05636(19)
H2_9 H 0.9298 0.7128 0.1390
C11_9 C 0.89323(6) 0.77064(6) 0.09596(18)
C12_9 C 0.92632(7) 0.81764(7) 0.0756(2)
C13_9 C 0.94325(9) 0.84807(8) 0.1920(3)
H6_9 H 0.9657 0.8800 0.1770
C14_9 C 0.92740(9) 0.83199(8) 0.3294(2)
H7_6 H 0.9389 0.8529 0.4087
C15_6 C 0.89484(8) 0.78561(8) 0.3512(2)
H8_6 H 0.8838 0.7746 0.4457
C16_9 C 0.87804(7) 0.75495(7) 0.23484(19)
H9_9 H 0.8559 0.7230 0.2508
H12_9 H 0.9051 0.5016 0.0504
H7_7 H 0.2723 0.5195 0.0753
C15_7 C 0.22818(8) 0.45227(8) 0.0178(2)
H8_7 H 0.2172 0.4412 0.1123
H7_8 H 0.4805 0.7527 0.0753
C15_8 C 0.54773(8) 0.77590(11) 0.0178(2)
H8_8 H 0.5588 0.7759 0.1123
H7_9 H 0.2473 0.7277 0.0753
C15_9 C 0.22410(11) 0.77182(8) 0.0178(2)
H8_9 H 0.2241 0.7828 0.1123
H20_7 H 0.7277 0.4805 0.9247
C36_7 C 0.77182(8) 0.54773(8) 0.9822(2)
H21_7 H 0.7828 0.5588 0.8877
H20_8 H 0.5195 0.2473 0.9247
C36_8 C 0.45227(8) 0.22410(11) 0.9822(2)
H21_8 H 0.4412 0.2241 0.8877
H20_9 H 0.7527 0.2723 0.9247
C36_9 C 0.77590(11) 0.22818(8) 0.9822(2)
H21_9 H 0.7759 0.2172 0.8877
loop_
_geom_bond_atom_site_label_1
_geom_bond_atom_site_label_2
_geom_bond_site_symmetry_1
_geom_bond_site_symmetry_2
Zn1 N1 1_555 1_555
N2 Zn1 1_555 1_555
H2 C3 1_555 1_555
C4 N1 1_555 1_555
C5 C4 1_555 1_555
C6 N2 1_555 1_555
C7 C6 1_555 1_555
H3 C7 1_555 1_555
C8 C7 1_555 1_555
H4 C8 1_555 1_555
C9 N2 1_555 1_555
C11 C5 1_555 1_555
C12 C11 1_555 1_555
H5 C12 1_555 1_555
C13 C12 1_555 1_555
H6 C13 1_555 1_555
C14 C13 1_555 1_555
H7 C14 1_555 1_555
C15 C14 1_555 1_555
H8 C15 1_555 1_555
C16 C11 1_555 1_555
H9 C16 1_555 1_555
C3 C4 1_555 1_555
C5 C6 1_555 1_555
C8 C9 1_555 1_555
C15 C16 1_555 1_555
C2 H1 1_555 1_555
C3_2 C2 1_555 1_555
H2_2 C3_2 1_555 1_555
C12_2 C11_2 1_555 1_555
C13_2 C12_2 1_555 1_555
H6_2 C13_2 1_555 1_555
C14_2 C13_2 1_555 1_555
H7_2 C14_2 1_555 1_555
C15_2 C14_2 1_555 1_555
H8_2 C15_2 1_555 1_555
C16_2 C11_2 1_555 1_555
H9_2 C16_2 1_555 1_555
C15_2 C16_2 1_555 1_555
Zn3 N6 1_555 1_555
C23 C22 1_555 1_555
H14 C23 1_555 1_555
C38 C31 1_555 1_555
C39 C38 1_555 1_555
H23 C39 1_555 1_555
C40 C39 1_555 1_555
H24 C40 1_555 1_555
N6 C40 1_555 1_555
N8 Zn1_2 1_555 1_555
C41 N6 1_555 1_555
H25 C41 1_555 1_555
C42 C38 1_555 1_555
H26 C42 1_555 1_555
C22 C31 1_555 1_555
C41 C42 1_555 1_555
C1 C2_2 1_555 1_555
C2_2 H1_2 1_555 1_555
C10 C1 1_555 1_555
C17 C10 1_555 1_555
C18 C17 1_555 1_555
H10 C18 1_555 1_555
C19 C18 1_555 1_555
H11 C19 1_555 1_555
N3 C19 1_555 1_555
C20 N3 1_555 1_555
H12_2 C20 1_555 1_555
C21 C17 1_555 1_555
H13 C21 1_555 1_555
Zn2 N3 1_555 1_555
N7 Zn1_3 1_555 1_555
C20 C21 1_555 1_555
C1_2 C2_3 1_555 1_555
C2_3 H1_3 1_555 1_555
C10_2 C1_2 1_555 1_555
C17_2 C10_2 1_555 1_555
C18_2 C17_2 1_555 1_555
H10_2 C18_2 1_555 1_555
C19_2 C18_2 1_555 1_555
H11_2 C19_2 1_555 1_555
N3_2 C19_2 1_555 1_555
C20_2 N3_2 1_555 1_555
H12_3 C20_2 1_555 1_555
C21_2 C17_2 1_555 1_555
H13_2 C21_2 1_555 1_555
Zn2_2 N3_2 1_555 1_555
N7_2 Zn1_4 1_555 1_555
C20_2 C21_2 1_555 1_555
Zn3_2 N6_2 1_555 1_555
C23_2 C22_2 1_555 1_555
H14_2 C23_2 1_555 1_555
C38_2 C31_2 1_555 1_555
C39_2 C38_2 1_555 1_555
H23_2 C39_2 1_555 1_555
C40_2 C39_2 1_555 1_555
H24_2 C40_2 1_555 1_555
N6_2 C40_2 1_555 1_555
N8_2 Zn1_5 1_555 1_555
C41_2 N6_2 1_555 1_555
H25_2 C41_2 1_555 1_555
C42_2 C38_2 1_555 1_555
H26_2 C42_2 1_555 1_555
C22_2 C31_2 1_555 1_555
C41_2 C42_2 1_555 1_555
Zn1_6 N1_2 1_555 1_555
N1_2 C1_3 1_555 1_555
N2_2 Zn1_6 1_555 1_555
C1_3 C2_4 1_555 1_555
C2_4 H1_4 1_555 1_555
C3_3 C2_4 1_555 1_555
H2_3 C3_3 1_555 1_555
C4_2 N1_2 1_555 1_555
C5_2 C4_2 1_555 1_555
C6_2 N2_2 1_555 1_555
C7_2 C6_2 1_555 1_555
H3_2 C7_2 1_555 1_555
C8_2 C7_2 1_555 1_555
H4_2 C8_2 1_555 1_555
C9_2 N2_2 1_555 1_555
C10_3 C1_3 1_555 1_555
C11_3 C5_2 1_555 1_555
C12_3 C11_3 1_555 1_555
H5_2 C12_3 1_555 1_555
C13_3 C12_3 1_555 1_555
H6_3 C13_3 1_555 1_555
C14_3 C13_3 1_555 1_555
H7_3 C14_3 1_555 1_555
C15_3 C14_3 1_555 1_555
H8_3 C15_3 1_555 1_555
C16_3 C11_3 1_555 1_555
H9_3 C16_3 1_555 1_555
C17_3 C10_3 1_555 1_555
C18_3 C17_3 1_555 1_555
H10_3 C18_3 1_555 1_555
C19_3 C18_3 1_555 1_555
H11_3 C19_3 1_555 1_555
N3_3 C19_3 1_555 1_555
C20_3 N3_3 1_555 1_555
H12_4 C20_3 1_555 1_555
C21_3 C17_3 1_555 1_555
H13_3 C21_3 1_555 1_555
Zn2_3 N3_3 1_555 1_555
N7_3 Zn1_6 1_555 1_555
C3_3 C4_2 1_555 1_555
C5_2 C6_2 1_555 1_555
C8_2 C9_2 1_555 1_555
C15_3 C16_3 1_555 1_555
C20_3 C21_3 1_555 1_555
Zn3_3 N6_3 1_555 1_555
N4 Zn1_7 1_555 1_555
N5 Zn1_7 1_555 1_555
C22_3 N4 1_555 1_555
C23_3 C22_3 1_555 1_555
H14_3 C23_3 1_555 1_555
C24 C23_3 1_555 1_555
H15 C24 1_555 1_555
C25 N4 1_555 1_555
C26 C25 1_555 1_555
C27 N5 1_555 1_555
C28 C27 1_555 1_555
H16 C28 1_555 1_555
C29 C28 1_555 1_555
H17 C29 1_555 1_555
C32 C26 1_555 1_555
C33 C32 1_555 1_555
H18 C33 1_555 1_555
C34 C33 1_555 1_555
H19 C34 1_555 1_555
C35 C34 1_555 1_555
H20 C35 1_555 1_555
C36 C35 1_555 1_555
H21 C36 1_555 1_555
C37 C32 1_555 1_555
H22 C37 1_555 1_555
C38_3 C31_3 1_555 1_555
C39_3 C38_3 1_555 1_555
H23_3 C39_3 1_555 1_555
C40_3 C39_3 1_555 1_555
H24_3 C40_3 1_555 1_555
N6_3 C40_3 1_555 1_555
N8_3 Zn1_7 1_555 1_555
C41_3 N6_3 1_555 1_555
H25_3 C41_3 1_555 1_555
C42_3 C38_3 1_555 1_555
H26_3 C42_3 1_555 1_555
N5 C30 1_555 1_555
C22_3 C31_3 1_555 1_555
C24 C25 1_555 1_555
C26 C27 1_555 1_555
C29 C30 1_555 1_555
C36 C37 1_555 1_555
C41_3 C42_3 1_555 1_555
Zn2_3 N1_3 1_555 1_555
N1_3 C1_4 1_555 1_555
N2_3 Zn2_3 1_555 1_555
C1_4 C2_5 1_555 1_555
C2_5 H1_5 1_555 1_555
C3_4 C2_5 1_555 1_555
H2_4 C3_4 1_555 1_555
C4_3 N1_3 1_555 1_555
C5_3 C4_3 1_555 1_555
C6_3 N2_3 1_555 1_555
C7_3 C6_3 1_555 1_555
H3_3 C7_3 1_555 1_555
C8_3 C7_3 1_555 1_555
H4_3 C8_3 1_555 1_555
C9_3 N2_3 1_555 1_555
C10_4 C1_4 1_555 1_555
C11_4 C5_3 1_555 1_555
C12_4 C11_4 1_555 1_555
H5_3 C12_4 1_555 1_555
C13_4 C12_4 1_555 1_555
H6_4 C13_4 1_555 1_555
C14_4 C13_4 1_555 1_555
C16_4 C11_4 1_555 1_555
H9_4 C16_4 1_555 1_555
C17_4 C10_4 1_555 1_555
C18_4 C17_4 1_555 1_555
H10_4 C18_4 1_555 1_555
C19_4 C18_4 1_555 1_555
H11_4 C19_4 1_555 1_555
N3_4 C19_4 1_555 1_555
C20_4 N3_4 1_555 1_555
H12_5 C20_4 1_555 1_555
C21_4 C17_4 1_555 1_555
H13_4 C21_4 1_555 1_555
Zn3 N3_4 1_555 1_555
N4_2 Zn2_3 1_555 1_555
N5_2 Zn2_3 1_555 1_555
C22_4 N4_2 1_555 1_555
C25_2 N4_2 1_555 1_555
C26_2 C25_2 1_555 1_555
C27_2 N5_2 1_555 1_555
C28_2 C27_2 1_555 1_555
H16_2 C28_2 1_555 1_555
C29_2 C28_2 1_555 1_555
H17_2 C29_2 1_555 1_555
C30_2 C10_4 1_555 1_555
C31_4 C9_3 1_555 1_555
C38_4 C31_4 1_555 1_555
C39_4 C38_4 1_555 1_555
H23_4 C39_4 1_555 1_555
C40_4 C39_4 1_555 1_555
H24_4 C40_4 1_555 1_555
N7_2 C40_4 1_555 1_555
N7_4 Zn2_3 1_555 1_555
C41_4 N7_2 1_555 1_555
C42_4 C38_4 1_555 1_555
H26_4 C42_4 1_555 1_555
C3_4 C4_3 1_555 1_555
C5_3 C6_3 1_555 1_555
C8_3 C9_3 1_555 1_555
C20_4 C21_4 1_555 1_555
N5_2 C30_2 1_555 1_555
C22_4 C31_4 1_555 1_555
C26_2 C27_2 1_555 1_555
C29_2 C30_2 1_555 1_555
C41_4 C42_4 1_555 1_555
H10_5 C18_5 1_555 1_555
C19_5 C18_5 1_555 1_555
H11_5 C19_5 1_555 1_555
N3_5 C19_5 1_555 1_555
C20_5 N3_5 1_555 1_555
H12_6 C20_5 1_555 1_555
Zn3_2 N3_5 1_555 1_555
C20_5 C21_5 1_555 1_555
Zn2 N1_4 1_555 1_555
N1_4 C1_5 1_555 1_555
N2_4 Zn2 1_555 1_555
C1_5 C2_6 1_555 1_555
C2_6 H1_6 1_555 1_555
C3_5 C2_6 1_555 1_555
H2_5 C3_5 1_555 1_555
C4_4 N1_4 1_555 1_555
C5_4 C4_4 1_555 1_555
C6_4 N2_4 1_555 1_555
C7_4 C6_4 1_555 1_555
H3_4 C7_4 1_555 1_555
C8_4 C7_4 1_555 1_555
H4_4 C8_4 1_555 1_555
C9_4 N2_4 1_555 1_555
C10_5 C1_5 1_555 1_555
C11_5 C5_4 1_555 1_555
C12_5 C11_5 1_555 1_555
H5_4 C12_5 1_555 1_555
C13_5 C12_5 1_555 1_555
H6_5 C13_5 1_555 1_555
C14_5 C13_5 1_555 1_555
C16_5 C11_5 1_555 1_555
H9_5 C16_5 1_555 1_555
C17_5 C10_5 1_555 1_555
N4_3 Zn2 1_555 1_555
N5_3 Zn2 1_555 1_555
C22_5 N4_3 1_555 1_555
C25_3 N4_3 1_555 1_555
C26_3 C25_3 1_555 1_555
C27_3 N5_3 1_555 1_555
C28_3 C27_3 1_555 1_555
H16_3 C28_3 1_555 1_555
C29_3 C28_3 1_555 1_555
C30_3 C10_5 1_555 1_555
C31_5 C9_4 1_555 1_555
C38_5 C31_5 1_555 1_555
C39_5 C38_5 1_555 1_555
H23_5 C39_5 1_555 1_555
C40_5 C39_5 1_555 1_555
H24_5 C40_5 1_555 1_555
N7_3 C40_5 1_555 1_555
N7_5 Zn2 1_555 1_555
C41_5 N7_3 1_555 1_555
C42_5 C38_5 1_555 1_555
H26_5 C42_5 1_555 1_555
C3_5 C4_4 1_555 1_555
C5_4 C6_4 1_555 1_555
C8_4 C9_4 1_555 1_555
N5_3 C30_3 1_555 1_555
C22_5 C31_5 1_555 1_555
C26_3 C27_3 1_555 1_555
C29_3 C30_3 1_555 1_555
C41_5 C42_5 1_555 1_555
H14_4 C23_4 1_555 1_555
C24_2 C23_4 1_555 1_555
H15_2 C24_2 1_555 1_555
C33_2 C32_2 1_555 1_555
C34_2 C33_2 1_555 1_555
H19_2 C34_2 1_555 1_555
C35_2 C34_2 1_555 1_555
H20_2 C35_2 1_555 1_555
C36_2 C35_2 1_555 1_555
H21_2 C36_2 1_555 1_555
C37_2 C32_2 1_555 1_555
H22_2 C37_2 1_555 1_555
C36_2 C37_2 1_555 1_555
Zn2_2 N1_5 1_555 1_555
N1_5 C1_6 1_555 1_555
N2_5 Zn2_2 1_555 1_555
C1_6 C2_7 1_555 1_555
C2_7 H1_7 1_555 1_555
C3_6 C2_7 1_555 1_555
H2_6 C3_6 1_555 1_555
C4_5 N1_5 1_555 1_555
C5_5 C4_5 1_555 1_555
C6_5 N2_5 1_555 1_555
C7_5 C6_5 1_555 1_555
H3_5 C7_5 1_555 1_555
C8_5 C7_5 1_555 1_555
H4_5 C8_5 1_555 1_555
C9_5 N2_5 1_555 1_555
C10_6 C1_6 1_555 1_555
C11_6 C5_5 1_555 1_555
C12_6 C11_6 1_555 1_555
H5_5 C12_6 1_555 1_555
C13_6 C12_6 1_555 1_555
H6_6 C13_6 1_555 1_555
C14_6 C13_6 1_555 1_555
C16_6 C11_6 1_555 1_555
H9_6 C16_6 1_555 1_555
C17_6 C10_6 1_555 1_555
N4_4 Zn2_2 1_555 1_555
N5_4 Zn2_2 1_555 1_555
C22_6 N4_4 1_555 1_555
C25_4 N4_4 1_555 1_555
C26_4 C25_4 1_555 1_555
C27_4 N5_4 1_555 1_555
C28_4 C27_4 1_555 1_555
H16_4 C28_4 1_555 1_555
C29_4 C28_4 1_555 1_555
C30_4 C10_6 1_555 1_555
C31_6 C9_5 1_555 1_555
C38_6 C31_6 1_555 1_555
C39_6 C38_6 1_555 1_555
H23_6 C39_6 1_555 1_555
C40_6 C39_6 1_555 1_555
H24_6 C40_6 1_555 1_555
N7 C40_6 1_555 1_555
N7_6 Zn2_2 1_555 1_555
C41_6 N7 1_555 1_555
C42_6 C38_6 1_555 1_555
H26_6 C42_6 1_555 1_555
C3_6 C4_5 1_555 1_555
C5_5 C6_5 1_555 1_555
C8_5 C9_5 1_555 1_555
N5_4 C30_4 1_555 1_555
C22_6 C31_6 1_555 1_555
C26_4 C27_4 1_555 1_555
C29_4 C30_4 1_555 1_555
C41_6 C42_6 1_555 1_555
H10_6 C18_6 1_555 1_555
C19_6 C18_6 1_555 1_555
H11_6 C19_6 1_555 1_555
N3_6 C19_6 1_555 1_555
C20_6 N3_6 1_555 1_555
H12_7 C20_6 1_555 1_555
Zn3_3 N3_6 1_555 1_555
C20_6 C21_6 1_555 1_555
Zn3_3 N1_6 1_555 1_555
N1_6 C1_7 1_555 1_555
N2_6 Zn3_3 1_555 1_555
C4_6 N1_6 1_555 1_555
C5_6 C4_6 1_555 1_555
C6_6 N2_6 1_555 1_555
C7_6 C6_6 1_555 1_555
H3_6 C7_6 1_555 1_555
C8_6 C7_6 1_555 1_555
H4_6 C8_6 1_555 1_555
C9_6 N2_6 1_555 1_555
C10_7 C1_7 1_555 1_555
C17_7 C10_7 1_555 1_555
C18_7 C17_7 1_555 1_555
H10_7 C18_7 1_555 1_555
C19_7 C18_7 1_555 1_555
H11_7 C19_7 1_555 1_555
N8_2 C19_7 1_555 1_555
C20_7 N8_2 1_555 1_555
C21_7 C17_7 1_555 1_555
H13_7 C21_7 1_555 1_555
N4_5 Zn3_3 1_555 1_555
N5_5 Zn3_3 1_555 1_555
C22_7 N4_5 1_555 1_555
C23_5 C22_7 1_555 1_555
H14_5 C23_5 1_555 1_555
C24_3 C23_5 1_555 1_555
H15_3 C24_3 1_555 1_555
C25_5 N4_5 1_555 1_555
C26_5 C25_5 1_555 1_555
C27_5 N5_5 1_555 1_555
C28_5 C27_5 1_555 1_555
H16_5 C28_5 1_555 1_555
C29_5 C28_5 1_555 1_555
H17_5 C29_5 1_555 1_555
C30_5 C10_7 1_555 1_555
C31_7 C9_6 1_555 1_555
C32_3 C26_5 1_555 1_555
C33_3 C32_3 1_555 1_555
H18_5 C33_3 1_555 1_555
C34_3 C33_3 1_555 1_555
H19_3 C34_3 1_555 1_555
C35_3 C34_3 1_555 1_555
C37_3 C32_3 1_555 1_555
H22_3 C37_3 1_555 1_555
C38_7 C31_7 1_555 1_555
C39_7 C38_7 1_555 1_555
H23_7 C39_7 1_555 1_555
C40_7 C39_7 1_555 1_555
H24_7 C40_7 1_555 1_555
N7_5 C40_7 1_555 1_555
C41_7 N7_5 1_555 1_555
H25_5 C41_7 1_555 1_555
C42_7 C38_7 1_555 1_555
H26_7 C42_7 1_555 1_555
C5_6 C6_6 1_555 1_555
C8_6 C9_6 1_555 1_555
C20_7 C21_7 1_555 1_555
N5_5 C30_5 1_555 1_555
C22_7 C31_7 1_555 1_555
C24_3 C25_5 1_555 1_555
C26_5 C27_5 1_555 1_555
C29_5 C30_5 1_555 1_555
C41_7 C42_7 1_555 1_555
C2_8 H1_8 1_555 1_555
C3_7 C2_8 1_555 1_555
H2_7 C3_7 1_555 1_555
C12_7 C11_7 1_555 1_555
C13_7 C12_7 1_555 1_555
H6_7 C13_7 1_555 1_555
C14_7 C13_7 1_555 1_555
H7_4 C14_7 1_555 1_555
C15_4 C14_7 1_555 1_555
H8_4 C15_4 1_555 1_555
C16_7 C11_7 1_555 1_555
H9_7 C16_7 1_555 1_555
C15_4 C16_7 1_555 1_555
Zn3 N1_7 1_555 1_555
N1_7 C1_8 1_555 1_555
N2_7 Zn3 1_555 1_555
C4_7 N1_7 1_555 1_555
C5_7 C4_7 1_555 1_555
C6_7 N2_7 1_555 1_555
C7_7 C6_7 1_555 1_555
H3_7 C7_7 1_555 1_555
C8_7 C7_7 1_555 1_555
C9_7 N2_7 1_555 1_555
C10_8 C1_8 1_555 1_555
C17_8 C10_8 1_555 1_555
C18_8 C17_8 1_555 1_555
H10_8 C18_8 1_555 1_555
C19_8 C18_8 1_555 1_555
H11_8 C19_8 1_555 1_555
N8_3 C19_8 1_555 1_555
C20_8 N8_3 1_555 1_555
C21_8 C17_8 1_555 1_555
H13_8 C21_8 1_555 1_555
N4_6 Zn3 1_555 1_555
N5_6 Zn3 1_555 1_555
C22_8 N4_6 1_555 1_555
C23_6 C22_8 1_555 1_555
H14_6 C23_6 1_555 1_555
C24_4 C23_6 1_555 1_555
H15_4 C24_4 1_555 1_555
C25_6 N4_6 1_555 1_555
C26_6 C25_6 1_555 1_555
C27_6 N5_6 1_555 1_555
C28_6 C27_6 1_555 1_555
H16_6 C28_6 1_555 1_555
C29_6 C28_6 1_555 1_555
H17_6 C29_6 1_555 1_555
C30_6 C10_8 1_555 1_555
C31_8 C9_7 1_555 1_555
C32_4 C26_6 1_555 1_555
C33_4 C32_4 1_555 1_555
H18_6 C33_4 1_555 1_555
C34_4 C33_4 1_555 1_555
H19_4 C34_4 1_555 1_555
C35_4 C34_4 1_555 1_555
C37_4 C32_4 1_555 1_555
H22_4 C37_4 1_555 1_555
C38_8 C31_8 1_555 1_555
C5_7 C6_7 1_555 1_555
C8_7 C9_7 1_555 1_555
C20_8 C21_8 1_555 1_555
N5_6 C30_6 1_555 1_555
C22_8 C31_8 1_555 1_555
C24_4 C25_6 1_555 1_555
C26_6 C27_6 1_555 1_555
C29_6 C30_6 1_555 1_555
H23_8 C39_8 1_555 1_555
C40_8 C39_8 1_555 1_555
H24_8 C40_8 1_555 1_555
N7_6 C40_8 1_555 1_555
C41_8 N7_6 1_555 1_555
H25_6 C41_8 1_555 1_555
C41_8 C42_8 1_555 1_555
H23_9 C39_9 1_555 1_555
C40_9 C39_9 1_555 1_555
H24_9 C40_9 1_555 1_555
N7_4 C40_9 1_555 1_555
C41_9 N7_4 1_555 1_555
H25_7 C41_9 1_555 1_555
C41_9 C42_9 1_555 1_555
Zn3_2 N1_8 1_555 1_555
N1_8 C1_9 1_555 1_555
N2_8 Zn3_2 1_555 1_555
C4_8 N1_8 1_555 1_555
C5_8 C4_8 1_555 1_555
C6_8 N2_8 1_555 1_555
C7_8 C6_8 1_555 1_555
H3_8 C7_8 1_555 1_555
C8_8 C7_8 1_555 1_555
C9_8 N2_8 1_555 1_555
C10_9 C1_9 1_555 1_555
C17_9 C10_9 1_555 1_555
C18_9 C17_9 1_555 1_555
H10_9 C18_9 1_555 1_555
C19_9 C18_9 1_555 1_555
H11_9 C19_9 1_555 1_555
N8 C19_9 1_555 1_555
C20_9 N8 1_555 1_555
C21_9 C17_9 1_555 1_555
H13_9 C21_9 1_555 1_555
N4_7 Zn3_2 1_555 1_555
N5_7 Zn3_2 1_555 1_555
C22_9 N4_7 1_555 1_555
C23_7 C22_9 1_555 1_555
H14_7 C23_7 1_555 1_555
C24_5 C23_7 1_555 1_555
H15_5 C24_5 1_555 1_555
C25_7 N4_7 1_555 1_555
C26_7 C25_7 1_555 1_555
C27_7 N5_7 1_555 1_555
C28_7 C27_7 1_555 1_555
H16_7 C28_7 1_555 1_555
C29_7 C28_7 1_555 1_555
H17_7 C29_7 1_555 1_555
C30_7 C10_9 1_555 1_555
C31_9 C9_8 1_555 1_555
C32_5 C26_7 1_555 1_555
C33_5 C32_5 1_555 1_555
H18_7 C33_5 1_555 1_555
C34_5 C33_5 1_555 1_555
H19_5 C34_5 1_555 1_555
C35_5 C34_5 1_555 1_555
C37_5 C32_5 1_555 1_555
H22_5 C37_5 1_555 1_555
C38_9 C31_9 1_555 1_555
C5_8 C6_8 1_555 1_555
C8_8 C9_8 1_555 1_555
C20_9 C21_9 1_555 1_555
N5_7 C30_7 1_555 1_555
C22_9 C31_9 1_555 1_555
C24_5 C25_7 1_555 1_555
C26_7 C27_7 1_555 1_555
C29_7 C30_7 1_555 1_555
N4_8 Zn1_8 1_555 1_555
N5_8 Zn1_8 1_555 1_555
H15_6 C24_6 1_555 1_555
C25_8 N4_8 1_555 1_555
C26_8 C25_8 1_555 1_555
C27_8 N5_8 1_555 1_555
C28_8 C27_8 1_555 1_555
H16_8 C28_8 1_555 1_555
C29_8 C28_8 1_555 1_555
H17_8 C29_8 1_555 1_555
C32_6 C26_8 1_555 1_555
C33_6 C32_6 1_555 1_555
H18_8 C33_6 1_555 1_555
C34_6 C33_6 1_555 1_555
H19_6 C34_6 1_555 1_555
C35_6 C34_6 1_555 1_555
H20_3 C35_6 1_555 1_555
C36_3 C35_6 1_555 1_555
H21_3 C36_3 1_555 1_555
C37_6 C32_6 1_555 1_555
H22_6 C37_6 1_555 1_555
N5_8 C30_8 1_555 1_555
C24_6 C25_8 1_555 1_555
C26_8 C27_8 1_555 1_555
C29_8 C30_8 1_555 1_555
C36_3 C37_6 1_555 1_555
H14_8 C23_8 1_555 1_555
C24_7 C23_8 1_555 1_555
H15_7 C24_7 1_555 1_555
C33_7 C32_7 1_555 1_555
C34_7 C33_7 1_555 1_555
H19_7 C34_7 1_555 1_555
C35_7 C34_7 1_555 1_555
H20_4 C35_7 1_555 1_555
C36_4 C35_7 1_555 1_555
H21_4 C36_4 1_555 1_555
C37_7 C32_7 1_555 1_555
H22_7 C37_7 1_555 1_555
C36_4 C37_7 1_555 1_555
N4_9 Zn1_9 1_555 1_555
N5_9 Zn1_9 1_555 1_555
H15_8 C24_8 1_555 1_555
C25_9 N4_9 1_555 1_555
C26_9 C25_9 1_555 1_555
C27_9 N5_9 1_555 1_555
C28_9 C27_9 1_555 1_555
H16_9 C28_9 1_555 1_555
C29_9 C28_9 1_555 1_555
H17_9 C29_9 1_555 1_555
C32_8 C26_9 1_555 1_555
C33_8 C32_8 1_555 1_555
H18_9 C33_8 1_555 1_555
C34_8 C33_8 1_555 1_555
H19_8 C34_8 1_555 1_555
C35_8 C34_8 1_555 1_555
H20_5 C35_8 1_555 1_555
C36_5 C35_8 1_555 1_555
H21_5 C36_5 1_555 1_555
C37_8 C32_8 1_555 1_555
H22_8 C37_8 1_555 1_555
N5_9 C30_9 1_555 1_555
C24_8 C25_9 1_555 1_555
C26_9 C27_9 1_555 1_555
C29_9 C30_9 1_555 1_555
C36_5 C37_8 1_555 1_555
H14_9 C23_9 1_555 1_555
C24_9 C23_9 1_555 1_555
H15_9 C24_9 1_555 1_555
C33_9 C32_9 1_555 1_555
C34_9 C33_9 1_555 1_555
H19_9 C34_9 1_555 1_555
C35_9 C34_9 1_555 1_555
H20_6 C35_9 1_555 1_555
C36_6 C35_9 1_555 1_555
H21_6 C36_6 1_555 1_555
C37_9 C32_9 1_555 1_555
H22_9 C37_9 1_555 1_555
C36_6 C37_9 1_555 1_555
Zn1_10 N1_9 1_555 1_555
N2_9 Zn1_10 1_555 1_555
H2_8 C3_8 1_555 1_555
C4_9 N1_9 1_555 1_555
C5_9 C4_9 1_555 1_555
C6_9 N2_9 1_555 1_555
C7_9 C6_9 1_555 1_555
H3_9 C7_9 1_555 1_555
C8_9 C7_9 1_555 1_555
H4_9 C8_9 1_555 1_555
C9_9 N2_9 1_555 1_555
C11_8 C5_9 1_555 1_555
C12_8 C11_8 1_555 1_555
H5_9 C12_8 1_555 1_555
C13_8 C12_8 1_555 1_555
H6_8 C13_8 1_555 1_555
C14_8 C13_8 1_555 1_555
H7_5 C14_8 1_555 1_555
C15_5 C14_8 1_555 1_555
H8_5 C15_5 1_555 1_555
C16_8 C11_8 1_555 1_555
H9_8 C16_8 1_555 1_555
C3_8 C4_9 1_555 1_555
C5_9 C6_9 1_555 1_555
C8_9 C9_9 1_555 1_555
C15_5 C16_8 1_555 1_555
C2_9 H1_9 1_555 1_555
C3_9 C2_9 1_555 1_555
H2_9 C3_9 1_555 1_555
C12_9 C11_9 1_555 1_555
C13_9 C12_9 1_555 1_555
H6_9 C13_9 1_555 1_555
C14_9 C13_9 1_555 1_555
H7_6 C14_9 1_555 1_555
C15_6 C14_9 1_555 1_555
H8_6 C15_6 1_555 1_555
C16_9 C11_9 1_555 1_555
H9_9 C16_9 1_555 1_555
C15_6 C16_9 1_555 1_555
H8_7 C15_7 1_555 1_555
H8_8 C15_8 1_555 1_555
H8_9 C15_9 1_555 1_555
H21_7 C36_7 1_555 1_555
H21_8 C36_8 1_555 1_555
H21_9 C36_9 1_555 1_555

#END
