
###############################################################################
#
# This file contains modified crystal structure data generated from the
# MOF subset of the Cambridge Structural Database (CSD) v543 
# hosted by the Cambridge Crystallographic Data Centre (CCDC).
#
# This work is licensed under the Creative Commons
# Attribution-NonCommercial-ShareAlike 4.0 International License.
# To view a copy of this license, visit
# http://creativecommons.org/licenses/by-nc-sa/4.0/
# or send a letter to
# Creative Commons, PO Box 1866, Mountain View, CA 94042, USA.
#
# CIF created using the CSD Python API on 29 September 2022
# The structure has been converted into the P1 space group
# The structure has a 3D framework
# The original CSD entry CAYSIE is in the rhombohedral crystal system
# The framework has been calculated to contain at least 10.0% void space
# The void calculation uses a probe of radius 1.32A, grid spacing 0.4
#
###############################################################################

data_CAYSIE
_chemical_formula_moiety         '(C360 H216 Co11 N72)n'
_symmetry_cell_setting           triclinic
_symmetry_space_group_name_H-M   'P 1'
_symmetry_Int_Tables_number      1
_space_group_name_Hall           'P 1'
loop_
_symmetry_equiv_pos_site_id
_symmetry_equiv_pos_as_xyz
1 x,y,z
_cell_length_a                   32.7432(3)
_cell_length_b                   32.7432(3)
_cell_length_c                   9.3124(2)
_cell_angle_alpha                90
_cell_angle_beta                 90
_cell_angle_gamma                120
_cell_volume                     8646.38
loop_
_atom_site_label
_atom_site_type_symbol
_atom_site_fract_x
_atom_site_fract_y
_atom_site_fract_z
Co1 Co 0.3333 0.1666 0.1667
N2 N 0.2768(2) 0.1086(2) 0.2370(5)
C2 C 0.3440(3) 0.2594(3) 0.5013(8)
H1 H 0.3576(3) 0.2891(3) 0.5431(8)
C3 C 0.3069(3) 0.2201(3) 0.5513(8)
H2 H 0.2895(3) 0.2173(3) 0.6334(8)
C4 C 0.2990(2) 0.1827(2) 0.4535(7)
C5 C 0.2618(2) 0.1363(2) 0.4658(7)
C6 C 0.2525(2) 0.1022(2) 0.3645(7)
C8 C 0.4482(3) 0.3033(3) 0.0697(8)
H4 H 0.4670(3) 0.3353(3) 0.0890(8)
C9 C 0.4101(2) 0.2688(2) 0.1579(7)
C10 C 0.2710(2) 0.0536(2) 0.0473(7)
C16 C 0.2451(2) 0.0024(2) 0.0038(7)
H9 H 0.3884(3) 0.3527(3) 0.1949(8)
H10 H 0.4291(3) 0.4310(3) 0.2599(8)
C19 C 0.4797(3) 0.3954(3) 0.4640(8)
H11 H 0.5033(3) 0.4064(3) 0.5332(8)
C20 C 0.4566(3) 0.3477(3) 0.4322(9)
H12 H 0.4645(3) 0.3275(3) 0.4790(9)
N5 N 0.3318(2) 0.2000(2) 0.3449(5)
C21 C 0.3590(2) 0.2474(2) 0.3720(7)
N6 N 0.3899(2) 0.2247(2) 0.0963(5)
C27 C 0.3957(2) 0.2797(2) 0.2860(7)
C28 C 0.4216(2) 0.3309(2) 0.3295(7)
C29 C 0.4118(3) 0.3629(3) 0.2650(8)
C30 C 0.4364(3) 0.4099(3) 0.3040(8)
N7 N 0.4706(2) 0.4262(2) 0.4034(6)
Co3 Co 0.5001 0.5000 0.5000
N8 N 0.2890(3) 0.1961(2) 0.0701(6)
N9 N 0.3777(3) 0.1372(2) 0.2632(6)
C31 C 0.2566(2) 0.0645(2) 0.1754(7)
C32 C 0.2185(3) 0.0300(3) 0.2636(8)
C33 C 0.2155(3) 0.0531(3) 0.3787(8)
H15 H 0.1939(3) 0.0402(3) 0.4534(8)
C34 C 0.2294(2) 0.1230(2) 0.5922(8)
C35 C 0.2448(3) 0.1221(3) 0.7318(8)
H17 H 0.2761(3) 0.1310(3) 0.7494(8)
C36 C 0.2128(4) 0.1077(4) 0.8422(9)
N10 N 0.1684(4) 0.0963(4) 0.8281(10)
C37 C 0.1538(4) 0.0976(3) 0.6978(14)
H18 H 0.1223(4) 0.0891(3) 0.6863(14)
C38 C 0.1824(3) 0.1111(3) 0.5746(10)
H19 H 0.1704(3) 0.1119(3) 0.4848(10)
H20 H 0.2234(4) 0.1060(4) 0.9335(9)
N4 N 0.1961(2) 0.9071(2) 0.9299(6)
Co2 Co 0.1667 0.8334 0.8334
C39 C 0.2101(3) 0.9856(3) 0.9011(9)
C40 C 0.1870(3) 0.9379(3) 0.8693(8)
H23 H 0.1634(3) 0.9269(3) 0.8001(8)
N4_2 N 0.0929(2) 0.2890(3) 0.9299(6)
Co2_2 Co 0.1666 0.3334 0.8334
C39_2 C 0.0144(3) 0.2244(4) 0.9011(9)
C40_2 C 0.0621(3) 0.2490(4) 0.8693(8)
H23_2 H 0.0731(3) 0.2364(4) 0.8001(8)
Co1_2 Co 0.8334 0.1667 0.1667
N2_2 N 0.8914(2) 0.1682(3) 0.2370(5)
C2_2 C 0.7406(3) 0.0846(4) 0.5013(8)
H1_2 H 0.7109(3) 0.0685(4) 0.5431(8)
C3_2 C 0.7799(3) 0.0868(4) 0.5513(8)
H2_2 H 0.7827(3) 0.0722(4) 0.6334(8)
C4_2 C 0.8173(2) 0.1163(3) 0.4535(7)
C5_2 C 0.8637(2) 0.1255(3) 0.4658(7)
C6_2 C 0.8978(2) 0.1503(3) 0.3645(7)
C8_2 C 0.6967(3) 0.1449(4) 0.0697(8)
H4_2 H 0.6647(3) 0.1317(4) 0.0890(8)
C9_2 C 0.7312(2) 0.1413(3) 0.1579(7)
C10_2 C 0.9464(2) 0.2174(3) 0.0473(7)
C16_2 C 0.9976(2) 0.2427(3) 0.0038(7)
H9_2 H 0.6473(3) 0.0357(4) 0.1949(8)
C19_2 C 0.6046(3) 0.0843(4) 0.4640(8)
H11_2 H 0.5936(3) 0.0969(4) 0.5332(8)
C20_2 C 0.6523(3) 0.1089(4) 0.4322(9)
H12_2 H 0.6725(3) 0.1370(4) 0.4790(9)
N5_2 N 0.8000(2) 0.1317(3) 0.3449(5)
C21_2 C 0.7526(2) 0.1115(3) 0.3720(7)
N6_2 N 0.7753(2) 0.1651(3) 0.0963(5)
C27_2 C 0.7203(2) 0.1159(3) 0.2860(7)
C28_2 C 0.6691(2) 0.0906(3) 0.3295(7)
C29_2 C 0.6371(3) 0.0488(4) 0.2650(8)
C30_2 C 0.5901(3) 0.0264(4) 0.3040(8)
N7_2 N 0.5738(2) 0.0443(3) 0.4034(6)
Co3_2 Co 0.5000 0.0000 0.5000
N8_2 N 0.8039(2) 0.0929(4) 0.0701(6)
N9_2 N 0.8628(2) 0.2404(4) 0.2632(6)
C31_2 C 0.9355(2) 0.1920(3) 0.1754(7)
C32_2 C 0.9700(3) 0.1884(4) 0.2636(8)
C33_2 C 0.9469(3) 0.1623(4) 0.3787(8)
H15_2 H 0.9598(3) 0.1536(4) 0.4534(8)
C34_2 C 0.8770(2) 0.1063(3) 0.5922(8)
C35_2 C 0.8779(3) 0.1226(4) 0.7318(8)
H17_2 H 0.8690(3) 0.1450(4) 0.7494(8)
C36_2 C 0.8923(4) 0.1050(6) 0.8422(9)
N10_2 N 0.9037(4) 0.0720(6) 0.8281(10)
C37_2 C 0.9024(3) 0.0561(5) 0.6978(14)
H18_2 H 0.9109(3) 0.0331(5) 0.6863(14)
C38_2 C 0.8889(3) 0.0712(4) 0.5746(10)
H19_2 H 0.8881(3) 0.0584(4) 0.4848(10)
H20_2 H 0.8940(4) 0.1173(6) 0.9335(9)
H10_2 H 0.5690(3) 0.9981(4) 0.2599(8)
H10_3 H 0.0019(4) 0.5709(3) 0.2599(8)
Co1_3 Co 0.8333 0.6667 0.1667
N2_3 N 0.8318(3) 0.7232(2) 0.2370(5)
C2_3 C 0.9154(4) 0.6560(3) 0.5013(8)
H1_3 H 0.9315(4) 0.6424(3) 0.5431(8)
C3_3 C 0.9132(4) 0.6931(3) 0.5513(8)
H2_3 H 0.9278(4) 0.7105(3) 0.6334(8)
C4_3 C 0.8837(3) 0.7010(2) 0.4535(7)
C5_3 C 0.8745(3) 0.7382(2) 0.4658(7)
C6_3 C 0.8497(3) 0.7475(2) 0.3645(7)
C8_3 C 0.8551(4) 0.5518(3) 0.0697(8)
H4_3 H 0.8683(4) 0.5330(3) 0.0890(8)
C9_3 C 0.8587(3) 0.5899(2) 0.1579(7)
C10_3 C 0.7826(3) 0.7290(2) 0.0473(7)
C16_3 C 0.7573(3) 0.7549(2) 0.0038(7)
C17 C 0.7155(4) 0.7451(3) 0.0683(8)
H9_3 H 0.9643(4) 0.6116(3) 0.1949(8)
C18 C 0.6931(4) 0.7697(3) 0.0293(8)
C19_3 C 0.9157(4) 0.5203(3) 0.4640(8)
H11_3 H 0.9031(4) 0.4967(3) 0.5332(8)
C20_3 C 0.8911(4) 0.5434(3) 0.4322(9)
H12_3 H 0.8630(4) 0.5355(3) 0.4790(9)
N5_3 N 0.8683(3) 0.6682(2) 0.3449(5)
C21_3 C 0.8885(3) 0.6410(2) 0.3720(7)
N6_3 N 0.8349(3) 0.6101(2) 0.0963(5)
C27_3 C 0.8841(3) 0.6043(2) 0.2860(7)
C28_3 C 0.9094(3) 0.5784(2) 0.3295(7)
C29_3 C 0.9512(4) 0.5882(3) 0.2650(8)
C30_3 C 0.9736(4) 0.5636(3) 0.3040(8)
N7_3 N 0.9557(3) 0.5294(2) 0.4034(6)
Co3_3 Co 1.0000 0.4999 0.5000
N8_3 N 0.9071(4) 0.7110(3) 0.0701(6)
N9_3 N 0.7596(4) 0.6223(3) 0.2632(6)
C31_3 C 0.8080(3) 0.7434(2) 0.1754(7)
C32_3 C 0.8116(4) 0.7815(3) 0.2636(8)
C33_3 C 0.8377(4) 0.7845(3) 0.3787(8)
H15_3 H 0.8464(4) 0.8061(3) 0.4534(8)
H16 H 0.7984(4) 0.8003(3) 0.2443(8)
C34_3 C 0.8937(3) 0.7706(2) 0.5922(8)
C35_3 C 0.8774(4) 0.7552(3) 0.7318(8)
H17_3 H 0.8550(4) 0.7239(3) 0.7494(8)
C36_3 C 0.8950(6) 0.7872(4) 0.8422(9)
N10_3 N 0.9280(6) 0.8316(4) 0.8281(10)
C37_3 C 0.9439(5) 0.8462(4) 0.6978(14)
H18_3 H 0.9669(5) 0.8777(4) 0.6863(14)
C38_3 C 0.9288(4) 0.8176(3) 0.5746(10)
H19_3 H 0.9416(4) 0.8296(3) 0.4848(10)
H20_3 H 0.8827(6) 0.7766(4) 0.9335(9)
H21 H 0.7024(4) 0.7217(3) 0.1384(8)
H22 H 0.6648(4) 0.7624(3) 0.0734(8)
N1 N 0.7984(3) 0.6651(2) 0.9884(5)
N3 N 0.7387(6) 0.5017(4) 0.5052(10)
N4_3 N 0.7110(3) 0.8039(2) 0.9299(6)
C1 C 0.7782(3) 0.6923(2) 0.9613(7)
C7 C 0.8290(4) 0.5488(3) 0.9546(8)
H3 H 0.8203(4) 0.5272(3) 0.8799(8)
C11 C 0.7730(3) 0.5627(2) 0.7411(8)
C12 C 0.7893(4) 0.5781(3) 0.6015(8)
H5 H 0.8117(4) 0.6094(3) 0.5839(8)
C13 C 0.7717(6) 0.5461(4) 0.4911(9)
H6 H 0.7840(6) 0.5567(4) 0.3998(9)
C14 C 0.7228(5) 0.4871(4) 0.6355(14)
H7 H 0.6998(5) 0.4556(4) 0.6470(14)
C15 C 0.7379(4) 0.5157(3) 0.7587(10)
H8 H 0.7251(4) 0.5037(3) 0.8485(10)
Co2_3 Co 0.6666 0.8333 0.8334
C22 C 0.8170(3) 0.5858(2) 0.9688(7)
C23 C 0.7922(3) 0.5951(2) 0.8675(7)
C24 C 0.7830(3) 0.6323(2) 0.8798(7)
C25 C 0.7535(4) 0.6402(3) 0.7820(8)
C26 C 0.7513(4) 0.6773(3) 0.8320(8)
H13 H 0.7352(4) 0.6909(3) 0.7902(8)
H14 H 0.7389(4) 0.6228(3) 0.6999(8)
C39_3 C 0.7756(4) 0.7899(3) 0.9011(9)
C40_3 C 0.7510(4) 0.8130(3) 0.8693(8)
H23_3 H 0.7636(4) 0.8366(3) 0.8001(8)
H24 H 0.8037(4) 0.7978(3) 0.8543(9)
C19_4 C 0.8130(3) 0.0621(3) 0.1307(8)
H11_4 H 0.8366(3) 0.0731(3) 0.1999(8)
C20_4 C 0.7899(3) 0.0144(3) 0.0989(9)
N1_2 N 0.6682(2) 0.8000(2) 0.6551(5)
N2_4 N 0.6101(2) 0.7753(2) 0.9037(5)
N3_2 N 0.8316(4) 0.9037(4) 0.1719(10)
N4_4 N 0.5294(2) 0.5738(2) 0.5966(6)
C1_2 C 0.6410(2) 0.7526(2) 0.6280(7)
C7_2 C 0.7845(3) 0.9469(3) 0.6213(8)
H3_2 H 0.8061(3) 0.9598(3) 0.5466(8)
C8_4 C 0.7815(3) 0.9700(3) 0.7364(8)
C9_4 C 0.7434(2) 0.9355(2) 0.8246(7)
C10_4 C 0.6043(2) 0.7203(2) 0.7140(7)
C11_2 C 0.7706(2) 0.8770(2) 0.4078(8)
C12_2 C 0.7552(3) 0.8779(3) 0.2682(8)
H5_2 H 0.7239(3) 0.8690(3) 0.2506(8)
C13_2 C 0.7872(4) 0.8923(4) 0.1578(9)
H6_2 H 0.7766(4) 0.8940(4) 0.0665(9)
C14_2 C 0.8462(4) 0.9024(3) 0.3022(14)
H7_2 H 0.8777(4) 0.9109(3) 0.3137(14)
C15_2 C 0.8176(3) 0.8889(3) 0.4254(10)
H8_2 H 0.8296(3) 0.8881(3) 0.5152(10)
C16_4 C 0.5784(2) 0.6691(2) 0.6705(7)
C17_2 C 0.5882(3) 0.6371(3) 0.7350(8)
C18_2 C 0.5636(3) 0.5901(3) 0.6960(8)
N6_4 N 0.7232(2) 0.8914(2) 0.7630(5)
C22_2 C 0.7475(2) 0.8978(2) 0.6355(7)
C23_2 C 0.7382(2) 0.8637(2) 0.5342(7)
C24_2 C 0.7010(2) 0.8173(2) 0.5465(7)
C25_2 C 0.6931(3) 0.7799(3) 0.4487(8)
C26_2 C 0.6560(3) 0.7406(3) 0.4987(8)
H13_2 H 0.6424(3) 0.7109(3) 0.4569(8)
H14_2 H 0.7105(3) 0.7827(3) 0.3666(8)
C27_4 C 0.7290(2) 0.9464(2) 0.9527(7)
C28_4 C 0.7549(2) 0.9976(2) 0.9962(7)
N8_4 N 0.6223(3) 0.8628(2) 0.7368(6)
C31_4 C 0.5899(2) 0.7312(2) 0.8421(7)
C32_4 C 0.5518(3) 0.6967(3) 0.9303(8)
H16_2 H 0.5330(3) 0.6647(3) 0.9110(8)
C39_4 C 0.5434(3) 0.6523(3) 0.5678(9)
H21_2 H 0.6116(3) 0.6473(3) 0.8051(8)
H22_2 H 0.5709(3) 0.5690(3) 0.7401(8)
C40_4 C 0.5203(3) 0.6046(3) 0.5360(8)
H23_4 H 0.4967(3) 0.5936(3) 0.4668(8)
H24_2 H 0.5355(3) 0.6725(3) 0.5210(9)
H22_3 H 0.4310(3) 0.0019(4) 0.7401(8)
N1_3 N 0.2000(2) 0.8683(3) 0.6551(5)
N2_5 N 0.2247(2) 0.8349(3) 0.9037(5)
N3_3 N 0.0963(4) 0.9280(6) 0.1719(10)
N4_5 N 0.4262(2) 0.9557(3) 0.5966(6)
C1_3 C 0.2474(2) 0.8885(3) 0.6280(7)
C7_3 C 0.0531(3) 0.8377(4) 0.6213(8)
H3_3 H 0.0402(3) 0.8464(4) 0.5466(8)
C8_5 C 0.0300(3) 0.8116(4) 0.7364(8)
C9_5 C 0.0645(2) 0.8080(3) 0.8246(7)
C10_5 C 0.2797(2) 0.8841(3) 0.7140(7)
C11_3 C 0.1230(2) 0.8937(3) 0.4078(8)
C12_3 C 0.1221(3) 0.8774(4) 0.2682(8)
H5_3 H 0.1310(3) 0.8550(4) 0.2506(8)
C13_3 C 0.1077(4) 0.8950(6) 0.1578(9)
H6_3 H 0.1060(4) 0.8827(6) 0.0665(9)
C14_3 C 0.0976(3) 0.9439(5) 0.3022(14)
H7_3 H 0.0891(3) 0.9669(5) 0.3137(14)
C15_3 C 0.1111(3) 0.9288(4) 0.4254(10)
H8_3 H 0.1119(3) 0.9416(4) 0.5152(10)
C16_5 C 0.3309(2) 0.9094(3) 0.6705(7)
C17_3 C 0.3629(3) 0.9512(4) 0.7350(8)
C18_3 C 0.4099(3) 0.9736(4) 0.6960(8)
N6_5 N 0.1086(2) 0.8318(3) 0.7630(5)
C22_3 C 0.1022(2) 0.8497(3) 0.6355(7)
C23_3 C 0.1363(2) 0.8745(3) 0.5342(7)
C24_3 C 0.1827(2) 0.8837(3) 0.5465(7)
C25_3 C 0.2201(3) 0.9132(4) 0.4487(8)
C26_3 C 0.2594(3) 0.9154(4) 0.4987(8)
H13_3 H 0.2891(3) 0.9315(4) 0.4569(8)
H14_3 H 0.2173(3) 0.9278(4) 0.3666(8)
C27_5 C 0.0536(2) 0.7826(3) 0.9527(7)
C28_5 C 0.0024(2) 0.7573(3) 0.9962(7)
N8_5 N 0.1372(2) 0.7596(4) 0.7368(6)
C31_5 C 0.2688(2) 0.8587(3) 0.8421(7)
C32_5 C 0.3033(3) 0.8551(4) 0.9303(8)
H16_3 H 0.3353(3) 0.8683(4) 0.9110(8)
C39_5 C 0.3477(3) 0.8911(4) 0.5678(9)
H21_3 H 0.3527(3) 0.9643(4) 0.8051(8)
C40_5 C 0.3954(3) 0.9157(4) 0.5360(8)
H23_5 H 0.4064(3) 0.9031(4) 0.4668(8)
H24_3 H 0.3275(3) 0.8630(4) 0.5210(9)
C19_5 C 0.9379(3) 0.7510(4) 0.1307(8)
H11_5 H 0.9269(3) 0.7636(4) 0.1999(8)
C20_5 C 0.9856(3) 0.7756(4) 0.0989(9)
C2_4 C 0.2487(4) 0.3227(3) 0.1680(8)
H1_4 H 0.2648(4) 0.3091(3) 0.2098(8)
C3_4 C 0.2465(4) 0.3598(3) 0.2180(8)
H2_4 H 0.2611(4) 0.3772(3) 0.3001(8)
C4_4 C 0.2170(3) 0.3677(2) 0.1202(7)
C5_4 C 0.2078(3) 0.4049(2) 0.1325(7)
C6_4 C 0.1830(3) 0.4142(2) 0.0312(7)
C19_6 C 0.2490(4) 0.1870(3) 0.1307(8)
H11_6 H 0.2364(4) 0.1634(3) 0.1999(8)
C20_6 C 0.2244(4) 0.2101(3) 0.0989(9)
H12_4 H 0.1963(4) 0.2022(3) 0.1457(9)
N5_4 N 0.2016(3) 0.3349(2) 0.0116(5)
C21_4 C 0.2218(3) 0.3077(2) 0.0387(7)
C33_4 C 0.1710(4) 0.4512(3) 0.0454(8)
H15_4 H 0.1797(4) 0.4728(3) 0.1201(8)
C34_4 C 0.2270(3) 0.4373(2) 0.2589(8)
C35_4 C 0.2107(4) 0.4219(3) 0.3985(8)
H17_4 H 0.1883(4) 0.3906(3) 0.4161(8)
C36_4 C 0.2283(6) 0.4539(4) 0.5089(9)
N10_4 N 0.2613(6) 0.4983(4) 0.4948(10)
C37_4 C 0.2772(5) 0.5129(4) 0.3645(14)
H18_4 H 0.3002(5) 0.5444(4) 0.3530(14)
C38_4 C 0.2621(4) 0.4843(3) 0.2413(10)
H19_4 H 0.2749(4) 0.4963(3) 0.1515(10)
H20_4 H 0.2160(6) 0.4433(4) 0.6002(9)
N1_4 N 0.1317(3) 0.3318(2) 0.6551(5)
N2_6 N 0.1651(3) 0.3899(2) 0.9037(5)
N3_4 N 0.0720(6) 0.1684(4) 0.1719(10)
N4_6 N 0.0443(3) 0.4706(2) 0.5966(6)
C1_4 C 0.1115(3) 0.3590(2) 0.6280(7)
C7_4 C 0.1623(4) 0.2155(3) 0.6213(8)
H3_4 H 0.1536(4) 0.1939(3) 0.5466(8)
C8_6 C 0.1884(4) 0.2185(3) 0.7364(8)
H4_4 H 0.2016(4) 0.1997(3) 0.7557(8)
C9_6 C 0.1920(3) 0.2566(2) 0.8246(7)
C10_6 C 0.1159(3) 0.3957(2) 0.7140(7)
C11_4 C 0.1063(3) 0.2294(2) 0.4078(8)
C12_4 C 0.1226(4) 0.2448(3) 0.2682(8)
H5_4 H 0.1450(4) 0.2761(3) 0.2506(8)
C13_4 C 0.1050(6) 0.2128(4) 0.1578(9)
H6_4 H 0.1173(6) 0.2234(4) 0.0665(9)
C14_4 C 0.0561(5) 0.1538(4) 0.3022(14)
H7_4 H 0.0331(5) 0.1223(4) 0.3137(14)
C15_4 C 0.0712(4) 0.1824(3) 0.4254(10)
H8_4 H 0.0584(4) 0.1704(3) 0.5152(10)
C16_6 C 0.0906(3) 0.4216(2) 0.6705(7)
C17_4 C 0.0488(4) 0.4118(3) 0.7350(8)
H9_4 H 0.2976(4) 0.2783(3) 0.8616(8)
C18_4 C 0.0264(4) 0.4364(3) 0.6960(8)
H10_4 H 0.3352(4) 0.2376(3) 0.9266(8)
N6_6 N 0.1682(3) 0.2768(2) 0.7630(5)
C22_4 C 0.1503(3) 0.2525(2) 0.6355(7)
C23_4 C 0.1255(3) 0.2618(2) 0.5342(7)
C24_4 C 0.1163(3) 0.2990(2) 0.5465(7)
C25_4 C 0.0868(4) 0.3069(3) 0.4487(8)
C26_4 C 0.0846(4) 0.3440(3) 0.4987(8)
H13_4 H 0.0685(4) 0.3576(3) 0.4569(8)
H14_4 H 0.0722(4) 0.2895(3) 0.3666(8)
C27_6 C 0.2174(3) 0.2710(2) 0.9527(7)
C28_6 C 0.2427(3) 0.2451(2) 0.9962(7)
C29_4 C 0.2845(4) 0.2549(3) 0.9317(8)
C30_4 C 0.3069(4) 0.2303(3) 0.9707(8)
N8_6 N 0.2404(4) 0.3777(3) 0.7368(6)
C31_6 C 0.1413(3) 0.4101(2) 0.8421(7)
C32_6 C 0.1449(4) 0.4482(3) 0.9303(8)
H16_4 H 0.1317(4) 0.4670(3) 0.9110(8)
C39_6 C 0.1089(4) 0.4566(3) 0.5678(9)
H21_4 H 0.0357(4) 0.3884(3) 0.8051(8)
C40_6 C 0.0843(4) 0.4797(3) 0.5360(8)
H23_6 H 0.0969(4) 0.5033(3) 0.4668(8)
H24_4 H 0.1370(4) 0.4645(3) 0.5210(9)
H22_4 H 0.9981(4) 0.4291(3) 0.7401(8)
N1_5 N 0.0016(2) 0.4666(2) 0.3217(5)
C2_5 C 0.0107(3) 0.5927(3) 0.8346(8)
H1_5 H 0.0243(3) 0.6224(3) 0.8764(8)
C7_5 C 0.1179(3) 0.6135(3) 0.2879(8)
H3_5 H 0.1395(3) 0.6264(3) 0.2132(8)
C8_7 C 0.1149(3) 0.6366(3) 0.4030(8)
H4_5 H 0.1337(3) 0.6686(3) 0.4223(8)
C9_7 C 0.0768(2) 0.6021(2) 0.4912(7)
C11_5 C 0.1040(2) 0.5436(2) 0.0744(8)
C15_5 C 0.1510(3) 0.5555(3) 0.0920(10)
H8_5 H 0.1630(3) 0.5547(3) 0.1818(10)
H9_5 H 0.0551(3) 0.6860(3) 0.5282(8)
H10_5 H 0.0958(3) 0.7643(3) 0.5932(8)
C19_7 C 0.1464(3) 0.7287(3) 0.7973(8)
H11_7 H 0.1700(3) 0.7397(3) 0.8665(8)
C20_7 C 0.1233(3) 0.6810(3) 0.7655(9)
H12_5 H 0.1312(3) 0.6608(3) 0.8123(9)
C21_5 C 0.0256(2) 0.5808(2) 0.7054(7)
N6_7 N 0.0565(2) 0.5581(2) 0.4297(5)
C22_5 C 0.0808(2) 0.5645(2) 0.3022(7)
C23_5 C 0.0715(2) 0.5304(2) 0.2009(7)
C24_5 C 0.0343(2) 0.4840(2) 0.2132(7)
C25_5 C 0.0264(3) 0.4466(3) 0.1154(8)
H14_5 H 0.0438(3) 0.4494(3) 0.0333(8)
C27_7 C 0.0623(2) 0.6131(2) 0.6194(7)
C28_7 C 0.0882(2) 0.6643(2) 0.6629(7)
C29_5 C 0.0784(3) 0.6963(3) 0.5984(8)
C30_5 C 0.1030(3) 0.7433(3) 0.6374(8)
N2_7 N 0.9435(2) 0.4419(2) 0.5703(5)
C1_5 C 0.9744(2) 0.4192(2) 0.2946(7)
C3_5 C 0.9736(3) 0.5534(3) 0.8846(8)
H2_5 H 0.9562(3) 0.5506(3) 0.9667(8)
C4_5 C 0.9657(2) 0.5160(2) 0.7868(7)
C5_5 C 0.9285(2) 0.4696(2) 0.7991(7)
C6_5 C 0.9192(2) 0.4355(2) 0.6978(7)
C10_7 C 0.9377(2) 0.3869(2) 0.3806(7)
C16_7 C 0.9118(2) 0.3357(2) 0.3371(7)
C17_5 C 0.9216(3) 0.3037(3) 0.4016(8)
C18_5 C 0.8970(3) 0.2567(3) 0.3626(8)
N5_5 N 0.9984(2) 0.5334(2) 0.6783(5)
C26_5 C 0.9893(3) 0.4073(3) 0.1654(8)
H13_5 H 0.9757(3) 0.3776(3) 0.1236(8)
C31_7 C 0.9232(2) 0.3979(2) 0.5088(7)
C32_7 C 0.8851(3) 0.3634(3) 0.5970(8)
C33_5 C 0.8821(3) 0.3865(3) 0.7121(8)
H15_5 H 0.8605(3) 0.3736(3) 0.7868(8)
H16_5 H 0.8663(3) 0.3314(3) 0.5777(8)
C34_5 C 0.8960(2) 0.4564(2) 0.9256(8)
C38_5 C 0.8490(3) 0.4445(3) 0.9080(10)
H19_5 H 0.8370(3) 0.4453(3) 0.8182(10)
C39_7 C 0.8767(3) 0.3190(3) 0.2345(9)
H21_5 H 0.9449(3) 0.3140(3) 0.4718(8)
H22_5 H 0.9042(3) 0.2357(3) 0.4068(8)
C40_7 C 0.8536(3) 0.2713(3) 0.2027(8)
H23_7 H 0.8300(3) 0.2603(3) 0.1335(8)
H24_5 H 0.8688(3) 0.3392(3) 0.1877(9)
N1_6 N 0.5334(2) 0.5349(3) 0.3217(5)
N2_8 N 0.5581(2) 0.5015(3) 0.5703(5)
C1_6 C 0.5808(2) 0.5551(3) 0.2946(7)
C2_6 C 0.4073(3) 0.4179(4) 0.8346(8)
H1_6 H 0.3776(3) 0.4018(4) 0.8764(8)
C3_6 C 0.4466(3) 0.4201(4) 0.8846(8)
H2_6 H 0.4494(3) 0.4055(4) 0.9667(8)
C4_6 C 0.4840(2) 0.4496(3) 0.7868(7)
C5_6 C 0.5304(2) 0.4588(3) 0.7991(7)
C6_6 C 0.5645(2) 0.4836(3) 0.6978(7)
C7_6 C 0.3865(3) 0.5043(4) 0.2879(8)
H3_6 H 0.3736(3) 0.5130(4) 0.2132(8)
C8_8 C 0.3634(3) 0.4782(4) 0.4030(8)
H4_6 H 0.3314(3) 0.4650(4) 0.4223(8)
C9_8 C 0.3979(2) 0.4746(3) 0.4912(7)
C10_8 C 0.6131(2) 0.5507(3) 0.3806(7)
C11_6 C 0.4564(2) 0.5603(3) 0.0744(8)
C15_6 C 0.4445(3) 0.5954(4) 0.0920(10)
H8_6 H 0.4453(3) 0.6082(4) 0.1818(10)
C16_8 C 0.6643(2) 0.5760(3) 0.3371(7)
C17_6 C 0.6963(3) 0.6178(4) 0.4016(8)
H9_6 H 0.3140(3) 0.3690(4) 0.5282(8)
C18_6 C 0.7433(3) 0.6402(4) 0.3626(8)
H10_6 H 0.2357(3) 0.3314(4) 0.5932(8)
C19_8 C 0.2713(3) 0.4176(4) 0.7973(8)
H11_8 H 0.2603(3) 0.4302(4) 0.8665(8)
C20_8 C 0.3190(3) 0.4422(4) 0.7655(9)
H12_6 H 0.3392(3) 0.4703(4) 0.8123(9)
N5_6 N 0.4666(2) 0.4651(3) 0.6783(5)
C21_6 C 0.4192(2) 0.4449(3) 0.7054(7)
N6_8 N 0.4419(2) 0.4985(3) 0.4297(5)
C22_6 C 0.4355(2) 0.5164(3) 0.3022(7)
C23_6 C 0.4696(2) 0.5412(3) 0.2009(7)
C24_6 C 0.5160(2) 0.5504(3) 0.2132(7)
C25_6 C 0.5534(3) 0.5799(4) 0.1154(8)
C26_6 C 0.5927(3) 0.5821(4) 0.1654(8)
H13_6 H 0.6224(3) 0.5982(4) 0.1236(8)
H14_6 H 0.5506(3) 0.5945(4) 0.0333(8)
C27_8 C 0.3869(2) 0.4493(3) 0.6194(7)
C28_8 C 0.3357(2) 0.4240(3) 0.6629(7)
C29_6 C 0.3037(3) 0.3822(4) 0.5984(8)
C30_6 C 0.2567(3) 0.3598(4) 0.6374(8)
C31_8 C 0.6021(2) 0.5254(3) 0.5088(7)
C32_8 C 0.6366(3) 0.5218(4) 0.5970(8)
C33_6 C 0.6135(3) 0.4957(4) 0.7121(8)
H15_6 H 0.6264(3) 0.4870(4) 0.7868(8)
H16_6 H 0.6686(3) 0.5350(4) 0.5777(8)
C34_6 C 0.5436(2) 0.4397(3) 0.9256(8)
C38_6 C 0.5555(3) 0.4046(4) 0.9080(10)
H19_6 H 0.5547(3) 0.3918(4) 0.8182(10)
C39_8 C 0.6810(3) 0.5578(4) 0.2345(9)
H21_6 H 0.6860(3) 0.6310(4) 0.4718(8)
H22_6 H 0.7643(3) 0.6686(4) 0.4068(8)
C40_8 C 0.7287(3) 0.5824(4) 0.2027(8)
H23_8 H 0.7397(3) 0.5698(4) 0.1335(8)
H24_6 H 0.6608(3) 0.5297(4) 0.1877(9)
N2_9 N 0.4985(3) 0.0565(2) 0.5703(5)
C1_7 C 0.4449(3) 0.0256(2) 0.2946(7)
C3_7 C 0.5799(4) 0.0264(3) 0.8846(8)
H2_7 H 0.5945(4) 0.0438(3) 0.9667(8)
C4_7 C 0.5504(3) 0.0343(2) 0.7868(7)
C5_7 C 0.5412(3) 0.0715(2) 0.7991(7)
C6_7 C 0.5164(3) 0.0808(2) 0.6978(7)
C10_9 C 0.4493(3) 0.0623(2) 0.3806(7)
C16_9 C 0.4240(3) 0.0882(2) 0.3371(7)
C17_7 C 0.3822(4) 0.0784(3) 0.4016(8)
C18_7 C 0.3598(4) 0.1030(3) 0.3626(8)
N5_7 N 0.5349(3) 0.0016(2) 0.6783(5)
C26_7 C 0.4179(4) 0.0107(3) 0.1654(8)
H13_7 H 0.4018(4) 0.0243(3) 0.1236(8)
C31_9 C 0.4746(3) 0.0768(2) 0.5088(7)
C32_9 C 0.4782(4) 0.1149(3) 0.5970(8)
C33_7 C 0.5043(4) 0.1179(3) 0.7121(8)
H15_7 H 0.5130(4) 0.1395(3) 0.7868(8)
H16_7 H 0.4650(4) 0.1337(3) 0.5777(8)
C34_7 C 0.5603(3) 0.1040(2) 0.9256(8)
C38_7 C 0.5954(4) 0.1510(3) 0.9080(10)
H19_7 H 0.6082(4) 0.1630(3) 0.8182(10)
C39_9 C 0.4422(4) 0.1233(3) 0.2345(9)
H21_7 H 0.3690(4) 0.0551(3) 0.4718(8)
H22_7 H 0.3314(4) 0.0958(3) 0.4068(8)
C40_9 C 0.4176(4) 0.1464(3) 0.2027(8)
H23_9 H 0.4302(4) 0.1700(3) 0.1335(8)
H24_7 H 0.4703(4) 0.1312(3) 0.1877(9)
N1_7 N 0.4651(3) 0.9984(2) 0.3217(5)
C2_7 C 0.5821(4) 0.9893(3) 0.8346(8)
H1_7 H 0.5982(4) 0.9757(3) 0.8764(8)
C7_7 C 0.4957(4) 0.8821(3) 0.2879(8)
H3_7 H 0.4870(4) 0.8605(3) 0.2132(8)
C8_9 C 0.5218(4) 0.8851(3) 0.4030(8)
H4_7 H 0.5350(4) 0.8663(3) 0.4223(8)
C9_9 C 0.5254(3) 0.9232(2) 0.4912(7)
C11_7 C 0.4397(3) 0.8960(2) 0.0744(8)
C15_7 C 0.4046(4) 0.8490(3) 0.0920(10)
H8_7 H 0.3918(4) 0.8370(3) 0.1818(10)
H9_7 H 0.6310(4) 0.9449(3) 0.5282(8)
H10_7 H 0.6686(4) 0.9042(3) 0.5932(8)
C19_9 C 0.5824(4) 0.8536(3) 0.7973(8)
H11_9 H 0.5698(4) 0.8300(3) 0.8665(8)
C20_9 C 0.5578(4) 0.8767(3) 0.7655(9)
H12_7 H 0.5297(4) 0.8688(3) 0.8123(9)
C21_7 C 0.5551(3) 0.9744(2) 0.7054(7)
N6_9 N 0.5015(3) 0.9435(2) 0.4297(5)
C22_7 C 0.4836(3) 0.9192(2) 0.3022(7)
C23_7 C 0.4588(3) 0.9285(2) 0.2009(7)
C24_7 C 0.4496(3) 0.9657(2) 0.2132(7)
C25_7 C 0.4201(4) 0.9736(3) 0.1154(8)
H14_7 H 0.4055(4) 0.9562(3) 0.0333(8)
C27_9 C 0.5507(3) 0.9377(2) 0.6194(7)
C28_9 C 0.5760(3) 0.9118(2) 0.6629(7)
C29_7 C 0.6178(4) 0.9216(3) 0.5984(8)
C30_7 C 0.6402(4) 0.8970(3) 0.6374(8)
Co3_4 Co 0.5000 1.0000 0.5000
Co3_5 Co 0.0000 0.5001 0.5000
N1_8 N 0.3349(2) 0.1333(2) 0.9884(5)
N3_5 N 0.4983(4) 0.2370(4) 0.5052(10)
C1_8 C 0.3077(2) 0.0859(2) 0.9613(7)
C7_8 C 0.4512(3) 0.2802(3) 0.9546(8)
H3_8 H 0.4728(3) 0.2931(3) 0.8799(8)
C11_8 C 0.4373(2) 0.2103(2) 0.7411(8)
C12_5 C 0.4219(3) 0.2112(3) 0.6015(8)
H5_5 H 0.3906(3) 0.2023(3) 0.5839(8)
C13_5 C 0.4539(4) 0.2256(4) 0.4911(9)
H6_5 H 0.4433(4) 0.2273(4) 0.3998(9)
C14_5 C 0.5129(4) 0.2357(3) 0.6355(14)
H7_5 H 0.5444(4) 0.2442(3) 0.6470(14)
C15_8 C 0.4843(3) 0.2222(3) 0.7587(10)
H8_8 H 0.4963(3) 0.2214(3) 0.8485(10)
C22_8 C 0.4142(2) 0.2311(2) 0.9688(7)
C23_8 C 0.4049(2) 0.1970(2) 0.8675(7)
C24_8 C 0.3677(2) 0.1506(2) 0.8798(7)
C25_8 C 0.3598(3) 0.1132(3) 0.7820(8)
C26_8 C 0.3227(3) 0.0739(3) 0.8320(8)
H13_8 H 0.3091(3) 0.0442(3) 0.7902(8)
H14_8 H 0.3772(3) 0.1160(3) 0.6999(8)
H24_8 H 0.2022(3) 0.0058(3) 0.8543(9)
C17_8 C 0.2549(3) 0.9704(3) 0.0683(8)
C18_8 C 0.2303(3) 0.9234(3) 0.0293(8)
H16_8 H 0.1997(3) 0.9980(3) 0.2443(8)
H21_8 H 0.2783(3) 0.9806(3) 0.1384(8)
H22_8 H 0.2376(3) 0.9023(3) 0.0734(8)
C17_9 C 0.0296(3) 0.2845(4) 0.0683(8)
C18_9 C 0.0766(3) 0.3069(4) 0.0293(8)
H16_9 H 0.0020(3) 0.2016(4) 0.2443(8)
H21_9 H 0.0194(3) 0.2976(4) 0.1384(8)
H22_9 H 0.0977(3) 0.3352(4) 0.0734(8)
N1_9 N 0.8667(2) 0.2016(3) 0.9884(5)
N3_6 N 0.7630(4) 0.2613(6) 0.5052(10)
C1_9 C 0.9141(2) 0.2218(3) 0.9613(7)
C7_9 C 0.7198(3) 0.1710(4) 0.9546(8)
H3_9 H 0.7069(3) 0.1797(4) 0.8799(8)
C11_9 C 0.7897(2) 0.2270(3) 0.7411(8)
C12_6 C 0.7888(3) 0.2107(4) 0.6015(8)
H5_6 H 0.7977(3) 0.1883(4) 0.5839(8)
C13_6 C 0.7744(4) 0.2283(6) 0.4911(9)
H6_6 H 0.7727(4) 0.2160(6) 0.3998(9)
C14_6 C 0.7643(3) 0.2772(5) 0.6355(14)
H7_6 H 0.7558(3) 0.3002(5) 0.6470(14)
C15_9 C 0.7778(3) 0.2621(4) 0.7587(10)
H8_9 H 0.7786(3) 0.2749(4) 0.8485(10)
C22_9 C 0.7689(2) 0.1830(3) 0.9688(7)
C23_9 C 0.8030(2) 0.2078(3) 0.8675(7)
C24_9 C 0.8494(2) 0.2170(3) 0.8798(7)
C25_9 C 0.8868(3) 0.2465(4) 0.7820(8)
C26_9 C 0.9261(3) 0.2487(4) 0.8320(8)
H13_9 H 0.9558(3) 0.2648(4) 0.7902(8)
H14_9 H 0.8840(3) 0.2611(4) 0.6999(8)
H24_9 H 0.9942(3) 0.1963(4) 0.8543(9)
H4_8 H 0.8003(3) 0.0020(3) 0.7557(8)
H9_8 H 0.7217(3) 0.0194(3) 0.8616(8)
H10_8 H 0.7624(3) 0.0977(3) 0.9266(8)
C29_8 C 0.7451(3) 0.0296(3) 0.9317(8)
C30_8 C 0.7697(3) 0.0766(3) 0.9707(8)
C2_8 C 0.6773(3) 0.9261(3) 0.1680(8)
H1_8 H 0.6909(3) 0.9558(3) 0.2098(8)
C3_8 C 0.6402(3) 0.8868(3) 0.2180(8)
H2_8 H 0.6228(3) 0.8840(3) 0.3001(8)
C4_8 C 0.6323(2) 0.8494(2) 0.1202(7)
C5_8 C 0.5951(2) 0.8030(2) 0.1325(7)
C6_8 C 0.5858(2) 0.7689(2) 0.0312(7)
H12_8 H 0.7978(3) 0.9942(3) 0.1457(9)
N5_8 N 0.6651(2) 0.8667(2) 0.0116(5)
C21_8 C 0.6923(2) 0.9141(2) 0.0387(7)
C33_8 C 0.5488(3) 0.7198(3) 0.0454(8)
H15_8 H 0.5272(3) 0.7069(3) 0.1201(8)
C34_8 C 0.5627(2) 0.7897(2) 0.2589(8)
C35_5 C 0.5781(3) 0.7888(3) 0.3985(8)
H17_5 H 0.6094(3) 0.7977(3) 0.4161(8)
C36_5 C 0.5461(4) 0.7744(4) 0.5089(9)
N10_5 N 0.5017(4) 0.7630(4) 0.4948(10)
C37_5 C 0.4871(4) 0.7643(3) 0.3645(14)
H18_5 H 0.4556(4) 0.7558(3) 0.3530(14)
C38_8 C 0.5157(3) 0.7778(3) 0.2413(10)
H19_8 H 0.5037(3) 0.7786(3) 0.1515(10)
H20_5 H 0.5567(4) 0.7727(4) 0.6002(9)
C2_9 C 0.0739(3) 0.7513(4) 0.1680(8)
H1_9 H 0.0442(3) 0.7352(4) 0.2098(8)
C3_9 C 0.1132(3) 0.7535(4) 0.2180(8)
H2_9 H 0.1160(3) 0.7389(4) 0.3001(8)
C4_9 C 0.1506(2) 0.7830(3) 0.1202(7)
C5_9 C 0.1970(2) 0.7922(3) 0.1325(7)
C6_9 C 0.2311(2) 0.8170(3) 0.0312(7)
H12_9 H 0.0058(3) 0.8037(4) 0.1457(9)
N5_9 N 0.1333(2) 0.7984(3) 0.0116(5)
C21_9 C 0.0859(2) 0.7782(3) 0.0387(7)
C33_9 C 0.2802(3) 0.8290(4) 0.0454(8)
H15_9 H 0.2931(3) 0.8203(4) 0.1201(8)
C34_9 C 0.2103(2) 0.7730(3) 0.2589(8)
C35_6 C 0.2112(3) 0.7893(4) 0.3985(8)
H17_6 H 0.2023(3) 0.8117(4) 0.4161(8)
C36_6 C 0.2256(4) 0.7717(6) 0.5089(9)
N10_6 N 0.2370(4) 0.7387(6) 0.4948(10)
C37_6 C 0.2357(3) 0.7228(5) 0.3645(14)
H18_6 H 0.2442(3) 0.6998(5) 0.3530(14)
C38_9 C 0.2222(3) 0.7379(4) 0.2413(10)
H19_9 H 0.2214(3) 0.7251(4) 0.1515(10)
H20_6 H 0.2273(4) 0.7840(6) 0.6002(9)
H4_9 H 0.9980(3) 0.7984(4) 0.7557(8)
H9_9 H 0.9806(3) 0.7024(4) 0.8616(8)
H10_9 H 0.9023(3) 0.6648(4) 0.9266(8)
C29_9 C 0.9704(3) 0.7155(4) 0.9317(8)
C30_9 C 0.9234(3) 0.6931(4) 0.9707(8)
N3_7 N 0.1650(4) 0.5703(4) 0.8385(10)
C12_7 C 0.0886(3) 0.5445(3) 0.9348(8)
H5_7 H 0.0573(3) 0.5356(3) 0.9172(8)
C13_7 C 0.1206(4) 0.5589(4) 0.8244(9)
H6_7 H 0.1100(4) 0.5606(4) 0.7331(9)
C14_7 C 0.1796(4) 0.5690(3) 0.9688(14)
H7_7 H 0.2111(4) 0.5775(3) 0.9803(14)
C35_7 C 0.9114(3) 0.4555(3) 0.0652(8)
H17_7 H 0.9427(3) 0.4644(3) 0.0828(8)
C36_7 C 0.8794(4) 0.4411(4) 0.1756(9)
N10_7 N 0.8350(4) 0.4297(4) 0.1615(10)
C37_7 C 0.8204(4) 0.4310(3) 0.0312(14)
H18_7 H 0.7889(4) 0.4225(3) 0.0197(14)
H20_7 H 0.8900(4) 0.4394(4) 0.2669(9)
C35_8 C 0.5445(3) 0.4560(4) 0.0652(8)
H17_8 H 0.5356(3) 0.4784(4) 0.0828(8)
C36_8 C 0.5589(4) 0.4384(6) 0.1756(9)
N10_8 N 0.5703(4) 0.4054(6) 0.1615(10)
C37_8 C 0.5690(3) 0.3895(5) 0.0312(14)
H18_8 H 0.5775(3) 0.3665(5) 0.0197(14)
H20_8 H 0.5606(4) 0.4507(6) 0.2669(9)
N3_8 N 0.4297(4) 0.5946(6) 0.8385(10)
C12_8 C 0.4555(3) 0.5440(4) 0.9348(8)
H5_8 H 0.4644(3) 0.5216(4) 0.9172(8)
C13_8 C 0.4411(4) 0.5616(6) 0.8244(9)
H6_8 H 0.4394(4) 0.5493(6) 0.7331(9)
C14_8 C 0.4310(3) 0.6105(5) 0.9688(14)
H7_8 H 0.4225(3) 0.6335(5) 0.9803(14)
C35_9 C 0.5440(4) 0.0886(3) 0.0652(8)
H17_9 H 0.5216(4) 0.0573(3) 0.0828(8)
C36_9 C 0.5616(6) 0.1206(4) 0.1756(9)
N10_9 N 0.5946(6) 0.1650(4) 0.1615(10)
C37_9 C 0.6105(5) 0.1796(4) 0.0312(14)
H18_9 H 0.6335(5) 0.2111(4) 0.0197(14)
H20_9 H 0.5493(6) 0.1100(4) 0.2669(9)
N3_9 N 0.4054(6) 0.8350(4) 0.8385(10)
C12_9 C 0.4560(4) 0.9114(3) 0.9348(8)
H5_9 H 0.4784(4) 0.9427(3) 0.9172(8)
C13_9 C 0.4384(6) 0.8794(4) 0.8244(9)
H6_9 H 0.4507(6) 0.8900(4) 0.7331(9)
C14_9 C 0.3895(5) 0.8204(4) 0.9688(14)
H7_9 H 0.3665(5) 0.7889(4) 0.9803(14)
loop_
_geom_bond_atom_site_label_1
_geom_bond_atom_site_label_2
_geom_bond_site_symmetry_1
_geom_bond_site_symmetry_2
N2 Co1 1_555 1_555
C2 H1 1_555 1_555
C3 C2 1_555 1_555
H2 C3 1_555 1_555
C4 C3 1_555 1_555
C5 C4 1_555 1_555
C6 N2 1_555 1_555
H4 C8 1_555 1_555
C9 C8 1_555 1_555
C10 C16 1_555 1_555
H9 C29 1_555 1_555
H10 C30 1_555 1_555
C19 H11 1_555 1_555
C20 C19 1_555 1_555
H12 C20 1_555 1_555
N5 Co1 1_555 1_555
C21 C2 1_555 1_555
N6 Co1 1_555 1_555
C27 C9 1_555 1_555
C28 C20 1_555 1_555
C29 C28 1_555 1_555
C30 C29 1_555 1_555
N7 C19 1_555 1_555
Co3 N7 1_555 1_555
N8 Co1 1_555 1_555
N9 Co1 1_555 1_555
C31 N2 1_555 1_555
C32 C31 1_555 1_555
C33 C6 1_555 1_555
H15 C33 1_555 1_555
C34 C5 1_555 1_555
C35 C34 1_555 1_555
H17 C35 1_555 1_555
C36 C35 1_555 1_555
N10 C36 1_555 1_555
C37 N10 1_555 1_555
H18 C37 1_555 1_555
C38 C34 1_555 1_555
H19 C38 1_555 1_555
H20 C36 1_555 1_555
C4 N5 1_555 1_555
C5 C6 1_555 1_555
C9 N6 1_555 1_555
C10 C31 1_555 1_555
N5 C21 1_555 1_555
C21 C27 1_555 1_555
C27 C28 1_555 1_555
C30 N7 1_555 1_555
C32 C33 1_555 1_555
C37 C38 1_555 1_555
Co2 N4 1_555 1_555
C40 N4 1_555 1_555
H23 C40 1_555 1_555
C39 C40 1_555 1_555
Co2_2 N4_2 1_555 1_555
C40_2 N4_2 1_555 1_555
H23_2 C40_2 1_555 1_555
C39_2 C40_2 1_555 1_555
N2_2 Co1_2 1_555 1_555
C2_2 H1_2 1_555 1_555
C3_2 C2_2 1_555 1_555
H2_2 C3_2 1_555 1_555
C4_2 C3_2 1_555 1_555
C5_2 C4_2 1_555 1_555
C6_2 N2_2 1_555 1_555
H4_2 C8_2 1_555 1_555
C9_2 C8_2 1_555 1_555
C10_2 C16_2 1_555 1_555
H9_2 C29_2 1_555 1_555
C19_2 H11_2 1_555 1_555
C20_2 C19_2 1_555 1_555
H12_2 C20_2 1_555 1_555
N5_2 Co1_2 1_555 1_555
C21_2 C2_2 1_555 1_555
N6_2 Co1_2 1_555 1_555
C27_2 C9_2 1_555 1_555
C28_2 C20_2 1_555 1_555
C29_2 C28_2 1_555 1_555
C30_2 C29_2 1_555 1_555
N7_2 C19_2 1_555 1_555
Co3_2 N7_2 1_555 1_555
N8_2 Co1_2 1_555 1_555
N9_2 Co1_2 1_555 1_555
C31_2 N2_2 1_555 1_555
C32_2 C31_2 1_555 1_555
C33_2 C6_2 1_555 1_555
H15_2 C33_2 1_555 1_555
C34_2 C5_2 1_555 1_555
C35_2 C34_2 1_555 1_555
H17_2 C35_2 1_555 1_555
C36_2 C35_2 1_555 1_555
N10_2 C36_2 1_555 1_555
C37_2 N10_2 1_555 1_555
H18_2 C37_2 1_555 1_555
C38_2 C34_2 1_555 1_555
H19_2 C38_2 1_555 1_555
H20_2 C36_2 1_555 1_555
C4_2 N5_2 1_555 1_555
C5_2 C6_2 1_555 1_555
C9_2 N6_2 1_555 1_555
C10_2 C31_2 1_555 1_555
N5_2 C21_2 1_555 1_555
C21_2 C27_2 1_555 1_555
C27_2 C28_2 1_555 1_555
C30_2 N7_2 1_555 1_555
C32_2 C33_2 1_555 1_555
C37_2 C38_2 1_555 1_555
N2_3 Co1_3 1_555 1_555
C2_3 H1_3 1_555 1_555
C3_3 C2_3 1_555 1_555
H2_3 C3_3 1_555 1_555
C4_3 C3_3 1_555 1_555
C5_3 C4_3 1_555 1_555
C6_3 N2_3 1_555 1_555
H4_3 C8_3 1_555 1_555
C9_3 C8_3 1_555 1_555
C10_3 C16_3 1_555 1_555
C16_3 C17 1_555 1_555
C17 C18 1_555 1_555
H9_3 C29_3 1_555 1_555
C18 H22 1_555 1_555
C19_3 H11_3 1_555 1_555
C20_3 C19_3 1_555 1_555
H12_3 C20_3 1_555 1_555
N5_3 Co1_3 1_555 1_555
C21_3 C2_3 1_555 1_555
N6_3 Co1_3 1_555 1_555
C27_3 C9_3 1_555 1_555
C28_3 C20_3 1_555 1_555
C29_3 C28_3 1_555 1_555
C30_3 C29_3 1_555 1_555
N7_3 C19_3 1_555 1_555
Co3_3 N7_3 1_555 1_555
N8_3 Co1_3 1_555 1_555
N9_3 Co1_3 1_555 1_555
C31_3 N2_3 1_555 1_555
C32_3 C31_3 1_555 1_555
C33_3 C6_3 1_555 1_555
H15_3 C33_3 1_555 1_555
H16 C32_3 1_555 1_555
C34_3 C5_3 1_555 1_555
C35_3 C34_3 1_555 1_555
H17_3 C35_3 1_555 1_555
C36_3 C35_3 1_555 1_555
N10_3 C36_3 1_555 1_555
C37_3 N10_3 1_555 1_555
H18_3 C37_3 1_555 1_555
C38_3 C34_3 1_555 1_555
H19_3 C38_3 1_555 1_555
H20_3 C36_3 1_555 1_555
H21 C17 1_555 1_555
C4_3 N5_3 1_555 1_555
C5_3 C6_3 1_555 1_555
C9_3 N6_3 1_555 1_555
C10_3 C31_3 1_555 1_555
N5_3 C21_3 1_555 1_555
C21_3 C27_3 1_555 1_555
C27_3 C28_3 1_555 1_555
C30_3 N7_3 1_555 1_555
C32_3 C33_3 1_555 1_555
C37_3 C38_3 1_555 1_555
N1 C1 1_555 1_555
N3 C13 1_555 1_555
C7 H3 1_555 1_555
C11 C12 1_555 1_555
C12 H5 1_555 1_555
C13 C12 1_555 1_555
H6 C13 1_555 1_555
C14 N3 1_555 1_555
H7 C14 1_555 1_555
C15 C11 1_555 1_555
H8 C15 1_555 1_555
Co2_3 N4_3 1_555 1_555
C22 C7 1_555 1_555
C23 C11 1_555 1_555
C24 N1 1_555 1_555
C25 C24 1_555 1_555
C26 C1 1_555 1_555
H13 C26 1_555 1_555
H14 C25 1_555 1_555
C40_3 N4_3 1_555 1_555
H23_3 C40_3 1_555 1_555
H24 C39_3 1_555 1_555
C14 C15 1_555 1_555
C22 C23 1_555 1_555
C23 C24 1_555 1_555
C25 C26 1_555 1_555
C39_3 C40_3 1_555 1_555
C19_4 H11_4 1_555 1_555
C20_4 C19_4 1_555 1_555
N8_2 C19_4 1_555 1_555
Co2_3 N1_2 1_555 1_555
N1_2 C1_2 1_555 1_555
N2_4 Co2_3 1_555 1_555
N3_2 C13_2 1_555 1_555
N4_4 C18_2 1_555 1_555
C1_2 C10_4 1_555 1_555
C7_2 H3_2 1_555 1_555
C8_4 C7_2 1_555 1_555
C9_4 C8_4 1_555 1_555
C10_4 C16_4 1_555 1_555
C11_2 C12_2 1_555 1_555
C12_2 H5_2 1_555 1_555
C13_2 C12_2 1_555 1_555
H6_2 C13_2 1_555 1_555
C14_2 N3_2 1_555 1_555
H7_2 C14_2 1_555 1_555
C15_2 C11_2 1_555 1_555
H8_2 C15_2 1_555 1_555
C16_4 C17_2 1_555 1_555
C17_2 C18_2 1_555 1_555
C18_2 H22_2 1_555 1_555
Co3 N4_4 1_555 1_555
N6_4 Co2_3 1_555 1_555
C22_2 C7_2 1_555 1_555
C23_2 C11_2 1_555 1_555
C24_2 N1_2 1_555 1_555
C25_2 C24_2 1_555 1_555
C26_2 C1_2 1_555 1_555
H13_2 C26_2 1_555 1_555
H14_2 C25_2 1_555 1_555
C27_4 C9_4 1_555 1_555
N8_4 Co2_3 1_555 1_555
C31_4 N2_4 1_555 1_555
C32_4 C31_4 1_555 1_555
H16_2 C32_4 1_555 1_555
C39_4 C16_4 1_555 1_555
H21_2 C17_2 1_555 1_555
C40_4 N4_4 1_555 1_555
H23_4 C40_4 1_555 1_555
H24_2 C39_4 1_555 1_555
C9_4 N6_4 1_555 1_555
C10_4 C31_4 1_555 1_555
C14_2 C15_2 1_555 1_555
N6_4 C22_2 1_555 1_555
C22_2 C23_2 1_555 1_555
C23_2 C24_2 1_555 1_555
C25_2 C26_2 1_555 1_555
C27_4 C28_4 1_555 1_555
C39_4 C40_4 1_555 1_555
Co2 N1_3 1_555 1_555
N1_3 C1_3 1_555 1_555
N2_5 Co2 1_555 1_555
N3_3 C13_3 1_555 1_555
N4_5 C18_3 1_555 1_555
C1_3 C10_5 1_555 1_555
C7_3 H3_3 1_555 1_555
C8_5 C7_3 1_555 1_555
C9_5 C8_5 1_555 1_555
C10_5 C16_5 1_555 1_555
C11_3 C12_3 1_555 1_555
C12_3 H5_3 1_555 1_555
C13_3 C12_3 1_555 1_555
H6_3 C13_3 1_555 1_555
C14_3 N3_3 1_555 1_555
H7_3 C14_3 1_555 1_555
C15_3 C11_3 1_555 1_555
H8_3 C15_3 1_555 1_555
C16_5 C17_3 1_555 1_555
C17_3 C18_3 1_555 1_555
N6_5 Co2 1_555 1_555
C22_3 C7_3 1_555 1_555
C23_3 C11_3 1_555 1_555
C24_3 N1_3 1_555 1_555
C25_3 C24_3 1_555 1_555
C26_3 C1_3 1_555 1_555
H13_3 C26_3 1_555 1_555
H14_3 C25_3 1_555 1_555
C27_5 C9_5 1_555 1_555
N8_5 Co2 1_555 1_555
C31_5 N2_5 1_555 1_555
C32_5 C31_5 1_555 1_555
H16_3 C32_5 1_555 1_555
C39_5 C16_5 1_555 1_555
H21_3 C17_3 1_555 1_555
C40_5 N4_5 1_555 1_555
H23_5 C40_5 1_555 1_555
H24_3 C39_5 1_555 1_555
C9_5 N6_5 1_555 1_555
C10_5 C31_5 1_555 1_555
C14_3 C15_3 1_555 1_555
N6_5 C22_3 1_555 1_555
C22_3 C23_3 1_555 1_555
C23_3 C24_3 1_555 1_555
C25_3 C26_3 1_555 1_555
C27_5 C28_5 1_555 1_555
C39_5 C40_5 1_555 1_555
C19_5 H11_5 1_555 1_555
C20_5 C19_5 1_555 1_555
N8_3 C19_5 1_555 1_555
C2_4 H1_4 1_555 1_555
C3_4 C2_4 1_555 1_555
H2_4 C3_4 1_555 1_555
C4_4 C3_4 1_555 1_555
C5_4 C4_4 1_555 1_555
C19_6 H11_6 1_555 1_555
C20_6 C19_6 1_555 1_555
H12_4 C20_6 1_555 1_555
C21_4 C2_4 1_555 1_555
N8 C19_6 1_555 1_555
C33_4 C6_4 1_555 1_555
H15_4 C33_4 1_555 1_555
C34_4 C5_4 1_555 1_555
C35_4 C34_4 1_555 1_555
H17_4 C35_4 1_555 1_555
C36_4 C35_4 1_555 1_555
N10_4 C36_4 1_555 1_555
C37_4 N10_4 1_555 1_555
H18_4 C37_4 1_555 1_555
C38_4 C34_4 1_555 1_555
H19_4 C38_4 1_555 1_555
H20_4 C36_4 1_555 1_555
C4_4 N5_4 1_555 1_555
C5_4 C6_4 1_555 1_555
N5_4 C21_4 1_555 1_555
C37_4 C38_4 1_555 1_555
Co2_2 N1_4 1_555 1_555
N1_4 C1_4 1_555 1_555
N2_6 Co2_2 1_555 1_555
N3_4 C13_4 1_555 1_555
N4_6 C18_4 1_555 1_555
C1_4 C10_6 1_555 1_555
C7_4 H3_4 1_555 1_555
C8_6 C7_4 1_555 1_555
H4_4 C8_6 1_555 1_555
C9_6 C8_6 1_555 1_555
C10_6 C16_6 1_555 1_555
C11_4 C12_4 1_555 1_555
C12_4 H5_4 1_555 1_555
C13_4 C12_4 1_555 1_555
H6_4 C13_4 1_555 1_555
C14_4 N3_4 1_555 1_555
H7_4 C14_4 1_555 1_555
C15_4 C11_4 1_555 1_555
H8_4 C15_4 1_555 1_555
C16_6 C17_4 1_555 1_555
C17_4 C18_4 1_555 1_555
H9_4 C29_4 1_555 1_555
H10_4 C30_4 1_555 1_555
N6_6 Co2_2 1_555 1_555
C22_4 C7_4 1_555 1_555
C23_4 C11_4 1_555 1_555
C24_4 N1_4 1_555 1_555
C25_4 C24_4 1_555 1_555
C26_4 C1_4 1_555 1_555
H13_4 C26_4 1_555 1_555
H14_4 C25_4 1_555 1_555
C27_6 C9_6 1_555 1_555
C29_4 C28_6 1_555 1_555
C30_4 C29_4 1_555 1_555
N8_6 Co2_2 1_555 1_555
C31_6 N2_6 1_555 1_555
C32_6 C31_6 1_555 1_555
H16_4 C32_6 1_555 1_555
C39_6 C16_6 1_555 1_555
H21_4 C17_4 1_555 1_555
C40_6 N4_6 1_555 1_555
H23_6 C40_6 1_555 1_555
H24_4 C39_6 1_555 1_555
C9_6 N6_6 1_555 1_555
C10_6 C31_6 1_555 1_555
C14_4 C15_4 1_555 1_555
N6_6 C22_4 1_555 1_555
C22_4 C23_4 1_555 1_555
C23_4 C24_4 1_555 1_555
C25_4 C26_4 1_555 1_555
C27_6 C28_6 1_555 1_555
C39_6 C40_6 1_555 1_555
C2_5 H1_5 1_555 1_555
C7_5 H3_5 1_555 1_555
C8_7 C7_5 1_555 1_555
H4_5 C8_7 1_555 1_555
C9_7 C8_7 1_555 1_555
C15_5 C11_5 1_555 1_555
H8_5 C15_5 1_555 1_555
H9_5 C29_5 1_555 1_555
H10_5 C30_5 1_555 1_555
C19_7 H11_7 1_555 1_555
C20_7 C19_7 1_555 1_555
H12_5 C20_7 1_555 1_555
C21_5 C2_5 1_555 1_555
C22_5 C7_5 1_555 1_555
C23_5 C11_5 1_555 1_555
C24_5 N1_5 1_555 1_555
C25_5 C24_5 1_555 1_555
H14_5 C25_5 1_555 1_555
C27_7 C9_7 1_555 1_555
C28_7 C20_7 1_555 1_555
C29_5 C28_7 1_555 1_555
C30_5 C29_5 1_555 1_555
N8_5 C19_7 1_555 1_555
C9_7 N6_7 1_555 1_555
C21_5 C27_7 1_555 1_555
N6_7 C22_5 1_555 1_555
C22_5 C23_5 1_555 1_555
C23_5 C24_5 1_555 1_555
C27_7 C28_7 1_555 1_555
C30_5 N8_5 1_555 1_555
N2_7 Co3_3 1_555 1_555
N9_2 C18_5 1_555 1_555
C1_5 C10_7 1_555 1_555
H2_5 C3_5 1_555 1_555
C4_5 C3_5 1_555 1_555
C5_5 C4_5 1_555 1_555
C6_5 N2_7 1_555 1_555
C10_7 C16_7 1_555 1_555
C16_7 C17_5 1_555 1_555
C17_5 C18_5 1_555 1_555
C18_5 H22_5 1_555 1_555
N5_5 Co3_3 1_555 1_555
C26_5 C1_5 1_555 1_555
H13_5 C26_5 1_555 1_555
C31_7 N2_7 1_555 1_555
C32_7 C31_7 1_555 1_555
C33_5 C6_5 1_555 1_555
H15_5 C33_5 1_555 1_555
H16_5 C32_7 1_555 1_555
C34_5 C5_5 1_555 1_555
C38_5 C34_5 1_555 1_555
H19_5 C38_5 1_555 1_555
C39_7 C16_7 1_555 1_555
H21_5 C17_5 1_555 1_555
C40_7 N9_2 1_555 1_555
H23_7 C40_7 1_555 1_555
H24_5 C39_7 1_555 1_555
C4_5 N5_5 1_555 1_555
C5_5 C6_5 1_555 1_555
C10_7 C31_7 1_555 1_555
C32_7 C33_5 1_555 1_555
C39_7 C40_7 1_555 1_555
Co3 N1_6 1_555 1_555
N1_6 C1_6 1_555 1_555
N2_8 Co3 1_555 1_555
N9_3 C18_6 1_555 1_555
C1_6 C10_8 1_555 1_555
C2_6 H1_6 1_555 1_555
C3_6 C2_6 1_555 1_555
H2_6 C3_6 1_555 1_555
C4_6 C3_6 1_555 1_555
C5_6 C4_6 1_555 1_555
C6_6 N2_8 1_555 1_555
C7_6 H3_6 1_555 1_555
C8_8 C7_6 1_555 1_555
H4_6 C8_8 1_555 1_555
C9_8 C8_8 1_555 1_555
C10_8 C16_8 1_555 1_555
C15_6 C11_6 1_555 1_555
H8_6 C15_6 1_555 1_555
C16_8 C17_6 1_555 1_555
C17_6 C18_6 1_555 1_555
H9_6 C29_6 1_555 1_555
C18_6 H22_6 1_555 1_555
H10_6 C30_6 1_555 1_555
C19_8 H11_8 1_555 1_555
C20_8 C19_8 1_555 1_555
H12_6 C20_8 1_555 1_555
N5_6 Co3 1_555 1_555
C21_6 C2_6 1_555 1_555
N6_8 Co3 1_555 1_555
C22_6 C7_6 1_555 1_555
C23_6 C11_6 1_555 1_555
C24_6 N1_6 1_555 1_555
C25_6 C24_6 1_555 1_555
C26_6 C1_6 1_555 1_555
H13_6 C26_6 1_555 1_555
H14_6 C25_6 1_555 1_555
C27_8 C9_8 1_555 1_555
C28_8 C20_8 1_555 1_555
C29_6 C28_8 1_555 1_555
C30_6 C29_6 1_555 1_555
N8_6 C19_8 1_555 1_555
C31_8 N2_8 1_555 1_555
C32_8 C31_8 1_555 1_555
C33_6 C6_6 1_555 1_555
H15_6 C33_6 1_555 1_555
H16_6 C32_8 1_555 1_555
C34_6 C5_6 1_555 1_555
C38_6 C34_6 1_555 1_555
H19_6 C38_6 1_555 1_555
C39_8 C16_8 1_555 1_555
H21_6 C17_6 1_555 1_555
C40_8 N9_3 1_555 1_555
H23_8 C40_8 1_555 1_555
H24_6 C39_8 1_555 1_555
C4_6 N5_6 1_555 1_555
C5_6 C6_6 1_555 1_555
C9_8 N6_8 1_555 1_555
C10_8 C31_8 1_555 1_555
N5_6 C21_6 1_555 1_555
C21_6 C27_8 1_555 1_555
N6_8 C22_6 1_555 1_555
C22_6 C23_6 1_555 1_555
C23_6 C24_6 1_555 1_555
C25_6 C26_6 1_555 1_555
C27_8 C28_8 1_555 1_555
C30_6 N8_6 1_555 1_555
C32_8 C33_6 1_555 1_555
C39_8 C40_8 1_555 1_555
N2_9 Co3_2 1_555 1_555
N9 C18_7 1_555 1_555
C1_7 C10_9 1_555 1_555
H2_7 C3_7 1_555 1_555
C4_7 C3_7 1_555 1_555
C5_7 C4_7 1_555 1_555
C6_7 N2_9 1_555 1_555
C10_9 C16_9 1_555 1_555
C16_9 C17_7 1_555 1_555
C17_7 C18_7 1_555 1_555
C18_7 H22_7 1_555 1_555
N5_7 Co3_2 1_555 1_555
C26_7 C1_7 1_555 1_555
H13_7 C26_7 1_555 1_555
C31_9 N2_9 1_555 1_555
C32_9 C31_9 1_555 1_555
C33_7 C6_7 1_555 1_555
H15_7 C33_7 1_555 1_555
H16_7 C32_9 1_555 1_555
C34_7 C5_7 1_555 1_555
C38_7 C34_7 1_555 1_555
H19_7 C38_7 1_555 1_555
C39_9 C16_9 1_555 1_555
H21_7 C17_7 1_555 1_555
C40_9 N9 1_555 1_555
H23_9 C40_9 1_555 1_555
H24_7 C39_9 1_555 1_555
C4_7 N5_7 1_555 1_555
C5_7 C6_7 1_555 1_555
C10_9 C31_9 1_555 1_555
C32_9 C33_7 1_555 1_555
C39_9 C40_9 1_555 1_555
C2_7 H1_7 1_555 1_555
C7_7 H3_7 1_555 1_555
C8_9 C7_7 1_555 1_555
H4_7 C8_9 1_555 1_555
C9_9 C8_9 1_555 1_555
C15_7 C11_7 1_555 1_555
H8_7 C15_7 1_555 1_555
H9_7 C29_7 1_555 1_555
H10_7 C30_7 1_555 1_555
C19_9 H11_9 1_555 1_555
C20_9 C19_9 1_555 1_555
H12_7 C20_9 1_555 1_555
C21_7 C2_7 1_555 1_555
C22_7 C7_7 1_555 1_555
C23_7 C11_7 1_555 1_555
C24_7 N1_7 1_555 1_555
C25_7 C24_7 1_555 1_555
H14_7 C25_7 1_555 1_555
C27_9 C9_9 1_555 1_555
C28_9 C20_9 1_555 1_555
C29_7 C28_9 1_555 1_555
C30_7 C29_7 1_555 1_555
N8_4 C19_9 1_555 1_555
C9_9 N6_9 1_555 1_555
C21_7 C27_9 1_555 1_555
N6_9 C22_7 1_555 1_555
C22_7 C23_7 1_555 1_555
C23_7 C24_7 1_555 1_555
C27_9 C28_9 1_555 1_555
C30_7 N8_4 1_555 1_555
Co3_4 N4_5 1_555 1_555
Co3_5 N4_6 1_555 1_555
N6_7 Co3_5 1_555 1_555
N1_5 Co3_5 1_555 1_555
N6_9 Co3_4 1_555 1_555
N1_7 Co3_4 1_555 1_555
N1_8 C1_8 1_555 1_555
N3_5 C13_5 1_555 1_555
C7_8 H3_8 1_555 1_555
C11_8 C12_5 1_555 1_555
C12_5 H5_5 1_555 1_555
C13_5 C12_5 1_555 1_555
H6_5 C13_5 1_555 1_555
C14_5 N3_5 1_555 1_555
H7_5 C14_5 1_555 1_555
C15_8 C11_8 1_555 1_555
H8_8 C15_8 1_555 1_555
C22_8 C7_8 1_555 1_555
C23_8 C11_8 1_555 1_555
C24_8 N1_8 1_555 1_555
C25_8 C24_8 1_555 1_555
C26_8 C1_8 1_555 1_555
H13_8 C26_8 1_555 1_555
H14_8 C25_8 1_555 1_555
C14_5 C15_8 1_555 1_555
C22_8 C23_8 1_555 1_555
C23_8 C24_8 1_555 1_555
C25_8 C26_8 1_555 1_555
C17_8 C18_8 1_555 1_555
C18_8 H22_8 1_555 1_555
H21_8 C17_8 1_555 1_555
C17_9 C18_9 1_555 1_555
C18_9 H22_9 1_555 1_555
H21_9 C17_9 1_555 1_555
N1_9 C1_9 1_555 1_555
N3_6 C13_6 1_555 1_555
C7_9 H3_9 1_555 1_555
C11_9 C12_6 1_555 1_555
C12_6 H5_6 1_555 1_555
C13_6 C12_6 1_555 1_555
H6_6 C13_6 1_555 1_555
C14_6 N3_6 1_555 1_555
H7_6 C14_6 1_555 1_555
C15_9 C11_9 1_555 1_555
H8_9 C15_9 1_555 1_555
C22_9 C7_9 1_555 1_555
C23_9 C11_9 1_555 1_555
C24_9 N1_9 1_555 1_555
C25_9 C24_9 1_555 1_555
C26_9 C1_9 1_555 1_555
H13_9 C26_9 1_555 1_555
H14_9 C25_9 1_555 1_555
C14_6 C15_9 1_555 1_555
C22_9 C23_9 1_555 1_555
C23_9 C24_9 1_555 1_555
C25_9 C26_9 1_555 1_555
H9_8 C29_8 1_555 1_555
H10_8 C30_8 1_555 1_555
C30_8 C29_8 1_555 1_555
C2_8 H1_8 1_555 1_555
C3_8 C2_8 1_555 1_555
H2_8 C3_8 1_555 1_555
C4_8 C3_8 1_555 1_555
C5_8 C4_8 1_555 1_555
C21_8 C2_8 1_555 1_555
C33_8 C6_8 1_555 1_555
H15_8 C33_8 1_555 1_555
C34_8 C5_8 1_555 1_555
C35_5 C34_8 1_555 1_555
H17_5 C35_5 1_555 1_555
C36_5 C35_5 1_555 1_555
N10_5 C36_5 1_555 1_555
C37_5 N10_5 1_555 1_555
H18_5 C37_5 1_555 1_555
C38_8 C34_8 1_555 1_555
H19_8 C38_8 1_555 1_555
H20_5 C36_5 1_555 1_555
C4_8 N5_8 1_555 1_555
C5_8 C6_8 1_555 1_555
N5_8 C21_8 1_555 1_555
C37_5 C38_8 1_555 1_555
C2_9 H1_9 1_555 1_555
C3_9 C2_9 1_555 1_555
H2_9 C3_9 1_555 1_555
C4_9 C3_9 1_555 1_555
C5_9 C4_9 1_555 1_555
C21_9 C2_9 1_555 1_555
C33_9 C6_9 1_555 1_555
H15_9 C33_9 1_555 1_555
C34_9 C5_9 1_555 1_555
C35_6 C34_9 1_555 1_555
H17_6 C35_6 1_555 1_555
C36_6 C35_6 1_555 1_555
N10_6 C36_6 1_555 1_555
C37_6 N10_6 1_555 1_555
H18_6 C37_6 1_555 1_555
C38_9 C34_9 1_555 1_555
H19_9 C38_9 1_555 1_555
H20_6 C36_6 1_555 1_555
C4_9 N5_9 1_555 1_555
C5_9 C6_9 1_555 1_555
N5_9 C21_9 1_555 1_555
C37_6 C38_9 1_555 1_555
H9_9 C29_9 1_555 1_555
H10_9 C30_9 1_555 1_555
C30_9 C29_9 1_555 1_555
N3_7 C13_7 1_555 1_555
C12_7 H5_7 1_555 1_555
C13_7 C12_7 1_555 1_555
H6_7 C13_7 1_555 1_555
C14_7 N3_7 1_555 1_555
H7_7 C14_7 1_555 1_555
H17_7 C35_7 1_555 1_555
C36_7 C35_7 1_555 1_555
N10_7 C36_7 1_555 1_555
C37_7 N10_7 1_555 1_555
H18_7 C37_7 1_555 1_555
H20_7 C36_7 1_555 1_555
H17_8 C35_8 1_555 1_555
C36_8 C35_8 1_555 1_555
N10_8 C36_8 1_555 1_555
C37_8 N10_8 1_555 1_555
H18_8 C37_8 1_555 1_555
H20_8 C36_8 1_555 1_555
N3_8 C13_8 1_555 1_555
C12_8 H5_8 1_555 1_555
C13_8 C12_8 1_555 1_555
H6_8 C13_8 1_555 1_555
C14_8 N3_8 1_555 1_555
H7_8 C14_8 1_555 1_555
H17_9 C35_9 1_555 1_555
C36_9 C35_9 1_555 1_555
N10_9 C36_9 1_555 1_555
C37_9 N10_9 1_555 1_555
H18_9 C37_9 1_555 1_555
H20_9 C36_9 1_555 1_555
N3_9 C13_9 1_555 1_555
C12_9 H5_9 1_555 1_555
C13_9 C12_9 1_555 1_555
H6_9 C13_9 1_555 1_555
C14_9 N3_9 1_555 1_555
H7_9 C14_9 1_555 1_555

#END
