
###############################################################################
#
# This file contains modified crystal structure data generated from the
# MOF subset of the Cambridge Structural Database (CSD) v543 
# hosted by the Cambridge Crystallographic Data Centre (CCDC).
#
# This work is licensed under the Creative Commons
# Attribution-NonCommercial-ShareAlike 4.0 International License.
# To view a copy of this license, visit
# http://creativecommons.org/licenses/by-nc-sa/4.0/
# or send a letter to
# Creative Commons, PO Box 1866, Mountain View, CA 94042, USA.
#
# CIF created using the CSD Python API on 29 September 2022
# The structure has been converted into the P1 space group
# The structure has a 3D framework
# The original CSD entry CAYSOK is in the rhombohedral crystal system
# The framework has been calculated to contain at least 10.0% void space
# The void calculation uses a probe of radius 1.32A, grid spacing 0.4
#
###############################################################################

data_CAYSOK
_chemical_formula_moiety         '(C360 H216 Mn11 N72)n'
_symmetry_cell_setting           triclinic
_symmetry_space_group_name_H-M   'P 1'
_symmetry_Int_Tables_number      1
_space_group_name_Hall           'P 1'
loop_
_symmetry_equiv_pos_site_id
_symmetry_equiv_pos_as_xyz
1 x,y,z
_cell_length_a                   32.7624(2)
_cell_length_b                   32.7624(2)
_cell_length_c                   9.3410(1)
_cell_angle_alpha                90
_cell_angle_beta                 90
_cell_angle_gamma                120
_cell_volume                     8683.11
loop_
_atom_site_label
_atom_site_type_symbol
_atom_site_fract_x
_atom_site_fract_y
_atom_site_fract_z
C2 C 0.2480(2) 0.3220(2) 0.1677(7)
H1 H 0.2642(2) 0.3085(2) 0.2093(7)
C3 C 0.2456(2) 0.3594(2) 0.2188(7)
H2 H 0.2596(2) 0.3764(2) 0.3018(7)
C4 C 0.2173(2) 0.3676(2) 0.1197(6)
C5 C 0.2079(2) 0.4043(2) 0.1311(6)
C6 C 0.1829(2) 0.4140(2) 0.0297(6)
C20 C 0.2245(2) 0.2103(2) 0.0974(7)
H12 H 0.1964(2) 0.2023(2) 0.1439(7)
N5 N 0.2017(2) 0.33534(15) 0.0111(5)
C21 C 0.2214(2) 0.3074(2) 0.0395(6)
N7 N 0.2887(2) 0.1962(2) 0.0718(5)
Mn3 Mn 0.3334 0.1667 0.1666
C31 C 0.2494(2) 0.1874(2) 0.1309(7)
H15 H 0.2368(2) 0.1640(2) 0.2007(7)
C34 C 0.1703(2) 0.4504(2) 0.0440(7)
H17 H 0.1781(2) 0.4711(2) 0.1205(7)
C35 C 0.2268(2) 0.4365(2) 0.2608(7)
C36 C 0.2101(3) 0.4213(2) 0.3967(7)
H19 H 0.1873(3) 0.3901(2) 0.4136(7)
C37 C 0.2276(3) 0.4531(3) 0.5067(8)
N10 N 0.2595(3) 0.4968(2) 0.4947(8)
C38 C 0.2760(3) 0.5113(3) 0.3650(10)
H20 H 0.2991(3) 0.5427(3) 0.3529(10)
C39 C 0.2615(3) 0.4834(3) 0.2492(9)
H21 H 0.2748(3) 0.4957(3) 0.1604(9)
H22 H 0.2157(3) 0.4423(3) 0.5977(8)
Mn1 Mn 0.1667 0.3333 0.8333
N1 N 0.1316(2) 0.33133(15) 0.6556(5)
N2 N 0.1654(2) 0.38963(15) 0.9047(5)
N3 N 0.0738(3) 0.1699(2) 0.1720(8)
N4 N 0.0446(2) 0.4705(2) 0.5949(5)
C1 C 0.1119(2) 0.3593(2) 0.6272(6)
C7 C 0.1630(2) 0.2163(2) 0.6227(7)
H3 H 0.1552(2) 0.1956(2) 0.5462(7)
C8 C 0.1879(2) 0.2177(2) 0.7383(7)
H4 H 0.2000(2) 0.1980(2) 0.7587(7)
C9 C 0.1919(2) 0.2563(2) 0.8249(6)
C10 C 0.1165(2) 0.3962(2) 0.7150(6)
C11 C 0.1065(2) 0.2302(2) 0.4059(7)
C12 C 0.1232(3) 0.2454(2) 0.2700(7)
H5 H 0.1460(3) 0.2766(2) 0.2531(7)
C13 C 0.1057(3) 0.2136(3) 0.1600(8)
H6 H 0.1176(3) 0.2244(3) 0.0690(8)
C14 C 0.0573(3) 0.1554(3) 0.3017(10)
H7 H 0.0342(3) 0.1240(3) 0.3138(10)
C15 C 0.0718(3) 0.1833(3) 0.4175(9)
H8 H 0.0585(3) 0.1710(3) 0.5063(9)
C16 C 0.0911(2) 0.4217(2) 0.6723(6)
C17 C 0.0494(2) 0.4119(2) 0.7369(7)
H9 H 0.2970(2) 0.2774(2) 0.8581(7)
C18 C 0.0271(2) 0.4361(2) 0.6943(7)
C19 C 0.0839(2) 0.4793(2) 0.5358(7)
H11 H 0.0965(2) 0.5027(2) 0.4660(7)
N6 N 0.1679(2) 0.27704(15) 0.7620(5)
C22 C 0.1504(2) 0.2527(2) 0.6370(6)
C23 C 0.1254(2) 0.2624(2) 0.5356(6)
C24 C 0.1160(2) 0.2991(2) 0.5470(6)
C25 C 0.0877(2) 0.3073(2) 0.4479(7)
C26 C 0.0853(2) 0.3447(2) 0.4990(7)
H13 H 0.0691(2) 0.3582(2) 0.4574(7)
H14 H 0.0737(2) 0.2903(2) 0.3649(7)
C27 C 0.2168(2) 0.2705(2) 0.9517(6)
C28 C 0.2422(2) 0.2450(2) 0.9944(6)
C29 C 0.2839(2) 0.2548(2) 0.9298(7)
C30 C 0.3062(2) 0.2306(2) 0.9724(7)
H16 H 0.3349(2) 0.2384(2) 0.9301(7)
N8 N 0.2408(3) 0.3779(2) 0.7384(5)
N9 N 0.0926(3) 0.2887(2) 0.9282(5)
C32 C 0.1414(2) 0.4104(2) 0.8418(6)
C33 C 0.1454(2) 0.4490(2) 0.9284(7)
H18 H 0.1333(2) 0.4687(2) 0.9080(7)
C40 C 0.1088(2) 0.4564(2) 0.5693(7)
H23 H 0.1369(2) 0.4644(2) 0.5228(7)
H24 H 0.0363(2) 0.3893(2) 0.8086(7)
H10 H 0.9984(2) 0.4283(2) 0.7366(7)
Mn2 Mn 1.0000 0.4999 0.5000
C20_2 C 0.7897(2) 0.0142(3) 0.0974(7)
N7_2 N 0.8038(2) 0.0926(3) 0.0718(5)
Mn3_2 Mn 0.8333 0.1666 0.1666
C31_2 C 0.8126(2) 0.0621(3) 0.1309(7)
H15_2 H 0.8360(2) 0.0729(3) 0.2007(7)
Mn1_2 Mn 0.6667 0.8334 0.8333
N1_2 N 0.66867(15) 0.80027(25) 0.6556(5)
N2_2 N 0.61037(15) 0.77577(25) 0.9047(5)
N3_2 N 0.8301(2) 0.9039(4) 0.1720(8)
N4_2 N 0.5295(2) 0.5741(3) 0.5949(5)
C1_2 C 0.6407(2) 0.7526(3) 0.6272(6)
C7_2 C 0.7837(2) 0.9467(3) 0.6227(7)
H3_2 H 0.8044(2) 0.9596(3) 0.5462(7)
C8_2 C 0.7823(2) 0.9702(3) 0.7383(7)
C9_2 C 0.7437(2) 0.9356(3) 0.8249(6)
C10_2 C 0.6038(2) 0.7203(3) 0.7150(6)
C11_2 C 0.7698(2) 0.8763(3) 0.4059(7)
C12_2 C 0.7546(2) 0.8778(4) 0.2700(7)
H5_2 H 0.7234(2) 0.8694(4) 0.2531(7)
C13_2 C 0.7864(3) 0.8921(4) 0.1600(8)
H6_2 H 0.7756(3) 0.8932(4) 0.0690(8)
C14_2 C 0.8446(3) 0.9019(4) 0.3017(10)
H7_2 H 0.8760(3) 0.9102(4) 0.3138(10)
C15_2 C 0.8167(3) 0.8885(4) 0.4175(9)
H8_2 H 0.8290(3) 0.8875(4) 0.5063(9)
C16_2 C 0.5783(2) 0.6694(3) 0.6723(6)
C17_2 C 0.5881(2) 0.6375(3) 0.7369(7)
C18_2 C 0.5639(2) 0.5910(3) 0.6943(7)
H10_2 H 0.5717(2) 0.5701(3) 0.7366(7)
C19_2 C 0.5207(2) 0.6046(3) 0.5358(7)
H11_2 H 0.4973(2) 0.5938(3) 0.4660(7)
Mn2_2 Mn 0.5001 0.5000 0.5000
N6_2 N 0.72296(15) 0.89090(25) 0.7620(5)
C22_2 C 0.7473(2) 0.8978(3) 0.6370(6)
C23_2 C 0.7376(2) 0.8631(3) 0.5356(6)
C24_2 C 0.7009(2) 0.8170(3) 0.5470(6)
C25_2 C 0.6927(2) 0.7805(3) 0.4479(7)
C26_2 C 0.6553(2) 0.7407(3) 0.4990(7)
H13_2 H 0.6418(2) 0.7110(3) 0.4574(7)
H14_2 H 0.7097(2) 0.7835(3) 0.3649(7)
C27_2 C 0.7295(2) 0.9464(3) 0.9517(6)
C28_2 C 0.7550(2) 0.9973(3) 0.9944(6)
N8_2 N 0.6221(2) 0.8628(4) 0.7384(5)
N9_2 N 0.7113(2) 0.8038(4) 0.9282(5)
C32_2 C 0.5896(2) 0.7311(3) 0.8418(6)
C33_2 C 0.5510(2) 0.6965(3) 0.9284(7)
H18_2 H 0.5313(2) 0.6647(3) 0.9080(7)
C40_2 C 0.5436(2) 0.6525(3) 0.5693(7)
H23_2 H 0.5356(2) 0.6726(3) 0.5228(7)
H24_2 H 0.6107(2) 0.6471(3) 0.8086(7)
H10_3 H 0.4299(3) 0.0016(2) 0.7366(7)
Mn2_3 Mn 0.5000 0.0000 0.5000
Mn1_3 Mn 0.1666 0.8333 0.8333
N1_3 N 0.19973(25) 0.8684(2) 0.6556(5)
N2_3 N 0.22423(25) 0.8346(2) 0.9047(5)
N3_3 N 0.0961(4) 0.9262(3) 0.1720(8)
N4_3 N 0.4259(3) 0.9554(2) 0.5949(5)
C1_3 C 0.2474(3) 0.8881(2) 0.6272(6)
C7_3 C 0.0533(3) 0.8370(2) 0.6227(7)
H3_3 H 0.0404(3) 0.8448(2) 0.5462(7)
C8_3 C 0.0298(3) 0.8121(2) 0.7383(7)
C9_3 C 0.0644(3) 0.8081(2) 0.8249(6)
C10_3 C 0.2797(3) 0.8835(2) 0.7150(6)
C11_3 C 0.1237(3) 0.8935(2) 0.4059(7)
C12_3 C 0.1222(4) 0.8768(3) 0.2700(7)
H5_3 H 0.1306(4) 0.8540(3) 0.2531(7)
C13_3 C 0.1079(4) 0.8943(3) 0.1600(8)
H6_3 H 0.1068(4) 0.8824(3) 0.0690(8)
C14_3 C 0.0981(4) 0.9427(3) 0.3017(10)
H7_3 H 0.0898(4) 0.9658(3) 0.3138(10)
C15_3 C 0.1115(4) 0.9282(3) 0.4175(9)
H8_3 H 0.1125(4) 0.9415(3) 0.5063(9)
C16_3 C 0.3306(3) 0.9089(2) 0.6723(6)
C17_3 C 0.3625(3) 0.9506(2) 0.7369(7)
C18_3 C 0.4090(3) 0.9729(2) 0.6943(7)
C19_3 C 0.3954(3) 0.9161(2) 0.5358(7)
H11_3 H 0.4062(3) 0.9035(2) 0.4660(7)
N6_3 N 0.10910(25) 0.8321(2) 0.7620(5)
C22_3 C 0.1022(3) 0.8496(2) 0.6370(6)
C23_3 C 0.1369(3) 0.8746(2) 0.5356(6)
C24_3 C 0.1830(3) 0.8840(2) 0.5470(6)
C25_3 C 0.2195(3) 0.9123(2) 0.4479(7)
C26_3 C 0.2593(3) 0.9147(2) 0.4990(7)
H13_3 H 0.2890(3) 0.9309(2) 0.4574(7)
H14_3 H 0.2165(3) 0.9263(2) 0.3649(7)
C27_3 C 0.0536(3) 0.7832(2) 0.9517(6)
C28_3 C 0.0027(3) 0.7578(2) 0.9944(6)
N8_3 N 0.1372(4) 0.7592(3) 0.7384(5)
N9_3 N 0.1962(4) 0.9074(3) 0.9282(5)
C32_3 C 0.2689(3) 0.8586(2) 0.8418(6)
C33_3 C 0.3035(3) 0.8546(2) 0.9284(7)
H18_3 H 0.3353(3) 0.8667(2) 0.9080(7)
C40_3 C 0.3475(3) 0.8912(2) 0.5693(7)
H23_3 H 0.3274(3) 0.8631(2) 0.5228(7)
H24_3 H 0.3529(3) 0.9637(2) 0.8086(7)
C20_3 C 0.9858(3) 0.7755(2) 0.0974(7)
N7_3 N 0.9074(3) 0.7113(2) 0.0718(5)
Mn3_3 Mn 0.8334 0.6666 0.1666
C31_3 C 0.9379(3) 0.7506(2) 0.1309(7)
H15_3 H 0.9271(3) 0.7632(2) 0.2007(7)
Mn3_4 Mn 0.0000 0.5001 0.5000
H16_2 H 0.0016(2) 0.5717(2) 0.2634(7)
N2_4 N 0.8321(2) 0.72296(15) 0.2380(5)
C2_2 C 0.9147(2) 0.6553(2) 0.5010(7)
H1_2 H 0.9309(2) 0.6418(2) 0.5426(7)
C3_2 C 0.9123(2) 0.6927(2) 0.5521(7)
H2_2 H 0.9263(2) 0.7097(2) 0.6351(7)
C4_2 C 0.8840(2) 0.7009(2) 0.4530(6)
C5_2 C 0.8746(2) 0.7376(2) 0.4644(6)
C6_2 C 0.8496(2) 0.7473(2) 0.3630(6)
C8_4 C 0.8546(2) 0.5510(2) 0.0716(7)
H4_2 H 0.8667(2) 0.5313(2) 0.0920(7)
C9_4 C 0.8586(2) 0.5896(2) 0.1582(6)
C10_4 C 0.7832(2) 0.7295(2) 0.0483(6)
C16_4 C 0.7578(2) 0.7550(2) 0.0056(6)
C17_4 C 0.7161(2) 0.7452(2) 0.0702(7)
H9_2 H 0.9637(2) 0.6107(2) 0.1914(7)
C18_4 C 0.6938(2) 0.7694(2) 0.0276(7)
H10_4 H 0.6651(2) 0.7616(2) 0.0699(7)
C20_4 C 0.8912(2) 0.5436(2) 0.4307(7)
H12_2 H 0.8631(2) 0.5356(2) 0.4772(7)
N5_2 N 0.8684(2) 0.66867(15) 0.3444(5)
C21_2 C 0.8881(2) 0.6407(2) 0.3728(6)
N6_4 N 0.8346(2) 0.61037(15) 0.0953(5)
C27_4 C 0.8835(2) 0.6038(2) 0.2850(6)
C28_4 C 0.9089(2) 0.5783(2) 0.3277(6)
C29_2 C 0.9506(2) 0.5881(2) 0.2631(7)
C30_2 C 0.9729(2) 0.5639(2) 0.3057(7)
N7_4 N 0.9554(2) 0.5295(2) 0.4051(5)
C31_4 C 0.9161(2) 0.5207(2) 0.4642(7)
H15_4 H 0.9035(2) 0.4973(2) 0.5340(7)
N9_4 N 0.7592(3) 0.6221(2) 0.2616(5)
C32_4 C 0.8081(2) 0.7437(2) 0.1751(6)
C33_4 C 0.8121(2) 0.7823(2) 0.2617(7)
C34_2 C 0.8370(2) 0.7837(2) 0.3773(7)
H17_2 H 0.8448(2) 0.8044(2) 0.4538(7)
H18_4 H 0.8000(2) 0.8020(2) 0.2413(7)
C35_2 C 0.8935(2) 0.7698(2) 0.5941(7)
C36_2 C 0.8768(3) 0.7546(2) 0.7300(7)
H19_2 H 0.8540(3) 0.7234(2) 0.7469(7)
C37_2 C 0.8943(3) 0.7864(3) 0.8400(8)
N10_2 N 0.9262(3) 0.8301(2) 0.8280(8)
C38_2 C 0.9427(3) 0.8446(3) 0.6983(10)
H20_2 H 0.9658(3) 0.8760(3) 0.6862(10)
C39_2 C 0.9282(3) 0.8167(3) 0.5825(9)
H21_2 H 0.9415(3) 0.8290(3) 0.4937(9)
H22_2 H 0.8824(3) 0.7756(3) 0.9310(8)
H24_4 H 0.7030(2) 0.7226(2) 0.1419(7)
N1_4 N 0.7983(2) 0.66466(15) 0.9889(5)
N3_4 N 0.7405(3) 0.5032(2) 0.5053(8)
C1_4 C 0.7786(2) 0.6926(2) 0.9605(6)
C7_4 C 0.8297(2) 0.5496(2) 0.9560(7)
H3_4 H 0.8219(2) 0.5289(2) 0.8795(7)
C11_4 C 0.7732(2) 0.5635(2) 0.7392(7)
C12_4 C 0.7899(3) 0.5787(2) 0.6033(7)
H5_4 H 0.8127(3) 0.6099(2) 0.5864(7)
C13_4 C 0.7724(3) 0.5469(3) 0.4933(8)
H6_4 H 0.7843(3) 0.5577(3) 0.4023(8)
C14_4 C 0.7240(3) 0.4887(3) 0.6350(10)
H7_4 H 0.7009(3) 0.4573(3) 0.6471(10)
C15_4 C 0.7385(3) 0.5166(3) 0.7508(9)
H8_4 H 0.7252(3) 0.5043(3) 0.8396(9)
C19_4 C 0.7506(2) 0.8126(2) 0.8691(7)
H11_4 H 0.7632(2) 0.8360(2) 0.7993(7)
C22_4 C 0.8171(2) 0.5860(2) 0.9703(6)
C23_4 C 0.7921(2) 0.5957(2) 0.8689(6)
C24_4 C 0.7827(2) 0.6324(2) 0.8803(6)
C25_4 C 0.7544(2) 0.6406(2) 0.7812(7)
C26_4 C 0.7520(2) 0.6780(2) 0.8323(7)
H13_4 H 0.7358(2) 0.6915(2) 0.7907(7)
H14_4 H 0.7404(2) 0.6236(2) 0.6982(7)
C40_4 C 0.7755(2) 0.7897(2) 0.9026(7)
H23_4 H 0.8036(2) 0.7977(2) 0.8561(7)
N2_5 N 0.27704(15) 0.10910(25) 0.2380(5)
C2_3 C 0.3447(2) 0.2593(3) 0.5010(7)
H1_3 H 0.3582(2) 0.2890(3) 0.5426(7)
C3_3 C 0.3073(2) 0.2195(3) 0.5521(7)
H2_3 H 0.2903(2) 0.2165(3) 0.6351(7)
C4_3 C 0.2991(2) 0.1830(3) 0.4530(6)
C5_3 C 0.2624(2) 0.1369(3) 0.4644(6)
C6_3 C 0.2527(2) 0.1022(3) 0.3630(6)
C8_5 C 0.4490(2) 0.3035(3) 0.0716(7)
H4_3 H 0.4687(2) 0.3353(3) 0.0920(7)
C9_5 C 0.4104(2) 0.2689(3) 0.1582(6)
C10_5 C 0.2705(2) 0.0536(3) 0.0483(6)
C16_5 C 0.2450(2) 0.0027(3) 0.0056(6)
H9_3 H 0.3893(2) 0.3529(3) 0.1914(7)
C20_5 C 0.4564(2) 0.3475(3) 0.4307(7)
H12_3 H 0.4644(2) 0.3274(3) 0.4772(7)
N5_3 N 0.33133(15) 0.19973(25) 0.3444(5)
C21_3 C 0.3593(2) 0.2474(3) 0.3728(6)
N6_5 N 0.38963(15) 0.22423(25) 0.0953(5)
C27_5 C 0.3962(2) 0.2797(3) 0.2850(6)
C28_5 C 0.4217(2) 0.3306(3) 0.3277(6)
C29_3 C 0.4119(2) 0.3625(3) 0.2631(7)
C30_3 C 0.4361(2) 0.4090(3) 0.3057(7)
N7_5 N 0.4705(2) 0.4259(3) 0.4051(5)
C31_5 C 0.4793(2) 0.3954(3) 0.4642(7)
H15_5 H 0.5027(2) 0.4062(3) 0.5340(7)
H16_3 H 0.4283(2) 0.4299(3) 0.2634(7)
N9_5 N 0.3779(2) 0.1372(4) 0.2616(5)
C32_5 C 0.2563(2) 0.0644(3) 0.1751(6)
C33_5 C 0.2177(2) 0.0298(3) 0.2617(7)
C34_3 C 0.2163(2) 0.0533(3) 0.3773(7)
H17_3 H 0.1956(2) 0.0404(3) 0.4538(7)
C35_3 C 0.2302(2) 0.1237(3) 0.5941(7)
C36_3 C 0.2454(2) 0.1222(4) 0.7300(7)
H19_3 H 0.2766(2) 0.1306(4) 0.7469(7)
C37_3 C 0.2136(3) 0.1079(4) 0.8400(8)
N10_3 N 0.1699(2) 0.0961(4) 0.8280(8)
C38_3 C 0.1554(3) 0.0981(4) 0.6983(10)
H20_3 H 0.1240(3) 0.0898(4) 0.6862(10)
C39_3 C 0.1833(3) 0.1115(4) 0.5825(9)
H21_3 H 0.1710(3) 0.1125(4) 0.4937(9)
H22_3 H 0.2244(3) 0.1068(4) 0.9310(8)
C19_5 C 0.1874(2) 0.9379(3) 0.8691(7)
H11_5 H 0.1640(2) 0.9271(3) 0.7993(7)
C40_5 C 0.2103(2) 0.9858(3) 0.9026(7)
C19_6 C 0.0621(3) 0.2494(2) 0.8691(7)
H11_6 H 0.0729(3) 0.2368(2) 0.7993(7)
C40_6 C 0.0142(3) 0.2245(2) 0.9026(7)
N2_6 N 0.89090(25) 0.1679(2) 0.2380(5)
C2_4 C 0.7407(3) 0.0853(2) 0.5010(7)
H1_4 H 0.7110(3) 0.0691(2) 0.5426(7)
C3_4 C 0.7805(3) 0.0877(2) 0.5521(7)
H2_4 H 0.7835(3) 0.0737(2) 0.6351(7)
C4_4 C 0.8170(3) 0.1160(2) 0.4530(6)
C5_4 C 0.8631(3) 0.1254(2) 0.4644(6)
C6_4 C 0.8978(3) 0.1504(2) 0.3630(6)
C8_6 C 0.6965(3) 0.1454(2) 0.0716(7)
H4_4 H 0.6647(3) 0.1333(2) 0.0920(7)
C9_6 C 0.7311(3) 0.1414(2) 0.1582(6)
C10_6 C 0.9464(3) 0.2168(2) 0.0483(6)
C16_6 C 0.9973(3) 0.2422(2) 0.0056(6)
H9_4 H 0.6471(3) 0.0363(2) 0.1914(7)
C20_6 C 0.6525(3) 0.1088(2) 0.4307(7)
H12_4 H 0.6726(3) 0.1369(2) 0.4772(7)
N5_4 N 0.80027(25) 0.1316(2) 0.3444(5)
C21_4 C 0.7526(3) 0.1119(2) 0.3728(6)
N6_6 N 0.77577(25) 0.1654(2) 0.0953(5)
C27_6 C 0.7203(3) 0.1165(2) 0.2850(6)
C28_6 C 0.6694(3) 0.0911(2) 0.3277(6)
C29_4 C 0.6375(3) 0.0494(2) 0.2631(7)
C30_4 C 0.5910(3) 0.0271(2) 0.3057(7)
N7_6 N 0.5741(3) 0.0446(2) 0.4051(5)
C31_6 C 0.6046(3) 0.0839(2) 0.4642(7)
H15_6 H 0.5938(3) 0.0965(2) 0.5340(7)
N9_6 N 0.8628(4) 0.2408(3) 0.2616(5)
C32_6 C 0.9356(3) 0.1919(2) 0.1751(6)
C33_6 C 0.9702(3) 0.1879(2) 0.2617(7)
C34_4 C 0.9467(3) 0.1630(2) 0.3773(7)
H17_4 H 0.9596(3) 0.1552(2) 0.4538(7)
C35_4 C 0.8763(3) 0.1065(2) 0.5941(7)
C36_4 C 0.8778(4) 0.1232(3) 0.7300(7)
H19_4 H 0.8694(4) 0.1460(3) 0.7469(7)
C37_4 C 0.8921(4) 0.1057(3) 0.8400(8)
N10_4 N 0.9039(4) 0.0738(3) 0.8280(8)
C38_4 C 0.9019(4) 0.0573(3) 0.6983(10)
H20_4 H 0.9102(4) 0.0342(3) 0.6862(10)
C39_4 C 0.8885(4) 0.0718(3) 0.5825(9)
H21_4 H 0.8875(4) 0.0585(3) 0.4937(9)
H22_4 H 0.8932(4) 0.1176(3) 0.9310(8)
Mn3_5 Mn 0.5000 1.0000 0.5000
H16_4 H 0.5701(3) 0.9984(2) 0.2634(7)
N2_7 N 0.4987(2) 0.05630(15) 0.5714(5)
C1_5 C 0.4452(2) 0.0260(2) 0.2939(6)
C3_5 C 0.5789(2) 0.0261(2) 0.8855(7)
H2_5 H 0.5929(2) 0.0431(2) 0.9685(7)
C4_5 C 0.5506(2) 0.0343(2) 0.7864(6)
C5_5 C 0.5412(2) 0.0710(2) 0.7978(6)
C6_5 C 0.5162(2) 0.0807(2) 0.6964(6)
C10_7 C 0.4498(2) 0.0629(2) 0.3817(6)
C16_7 C 0.4244(2) 0.0884(2) 0.3390(6)
C17_5 C 0.3827(2) 0.0786(2) 0.4036(7)
C18_5 C 0.3604(2) 0.1028(2) 0.3610(7)
H10_5 H 0.3317(2) 0.0950(2) 0.4033(7)
C19_7 C 0.4172(2) 0.1460(2) 0.2025(7)
H11_7 H 0.4298(2) 0.1694(2) 0.1327(7)
N5_5 N 0.5351(2) 0.00200(15) 0.6777(5)
C26_5 C 0.4187(2) 0.0113(2) 0.1656(7)
H13_5 H 0.4025(2) 0.0248(2) 0.1240(7)
C32_7 C 0.4748(2) 0.0770(2) 0.5084(6)
C33_7 C 0.4788(2) 0.1156(2) 0.5950(7)
C34_5 C 0.5037(2) 0.1170(2) 0.7106(7)
H17_5 H 0.5115(2) 0.1377(2) 0.7871(7)
H18_5 H 0.4667(2) 0.1353(2) 0.5746(7)
C35_5 C 0.5602(2) 0.1031(2) 0.9274(7)
C39_5 C 0.5949(3) 0.1500(3) 0.9158(9)
H21_5 H 0.6082(3) 0.1623(3) 0.8270(9)
C40_7 C 0.4422(2) 0.1230(2) 0.2359(7)
H23_5 H 0.4703(2) 0.1310(2) 0.1894(7)
H24_5 H 0.3697(2) 0.0559(2) 0.4752(7)
N1_5 N 0.4649(2) 0.99800(15) 0.3223(5)
C2_5 C 0.5813(2) 0.9887(2) 0.8344(7)
H1_5 H 0.5975(2) 0.9752(2) 0.8760(7)
C7_5 C 0.4963(2) 0.8830(2) 0.2894(7)
H3_5 H 0.4885(2) 0.8623(2) 0.2129(7)
C8_7 C 0.5212(2) 0.8844(2) 0.4050(7)
H4_5 H 0.5333(2) 0.8647(2) 0.4254(7)
C9_7 C 0.5252(2) 0.9230(2) 0.4916(6)
C11_5 C 0.4398(2) 0.8969(2) 0.0726(7)
C15_5 C 0.4051(3) 0.8500(3) 0.0842(9)
H8_5 H 0.3918(3) 0.8377(3) 0.1730(9)
H9_5 H 0.6303(2) 0.9441(2) 0.5248(7)
C20_7 C 0.5578(2) 0.8770(2) 0.7641(7)
H12_5 H 0.5297(2) 0.8690(2) 0.8106(7)
C21_5 C 0.5548(2) 0.9740(2) 0.7061(6)
N6_7 N 0.5013(2) 0.94370(15) 0.4286(5)
C22_5 C 0.4838(2) 0.9193(2) 0.3036(6)
C23_5 C 0.4588(2) 0.9290(2) 0.2022(6)
C24_5 C 0.4494(2) 0.9657(2) 0.2136(6)
C25_5 C 0.4211(2) 0.9739(2) 0.1145(7)
H14_5 H 0.4071(2) 0.9569(2) 0.0315(7)
C27_7 C 0.5502(2) 0.9371(2) 0.6183(6)
C28_7 C 0.5756(2) 0.9116(2) 0.6610(6)
C29_5 C 0.6173(2) 0.9214(2) 0.5964(7)
C30_5 C 0.6396(2) 0.8972(2) 0.6390(7)
C31_7 C 0.5828(2) 0.8540(2) 0.7975(7)
H15_7 H 0.5702(2) 0.8306(2) 0.8673(7)
H16_5 H 0.6683(2) 0.9050(2) 0.5967(7)
N1_6 N 0.00200(15) 0.46694(25) 0.3223(5)
C2_6 C 0.0113(2) 0.5927(3) 0.8344(7)
H1_6 H 0.0248(2) 0.6224(3) 0.8760(7)
C7_6 C 0.1170(2) 0.6134(3) 0.2894(7)
H3_6 H 0.1377(2) 0.6263(3) 0.2129(7)
C8_8 C 0.1156(2) 0.6369(3) 0.4050(7)
H4_6 H 0.1353(2) 0.6687(3) 0.4254(7)
C9_8 C 0.0770(2) 0.6023(3) 0.4916(6)
C11_6 C 0.1031(2) 0.5430(3) 0.0726(7)
C15_6 C 0.1500(3) 0.5552(4) 0.0842(9)
H8_6 H 0.1623(3) 0.5542(4) 0.1730(9)
H9_6 H 0.0559(2) 0.6863(3) 0.5248(7)
C20_8 C 0.1230(2) 0.6809(3) 0.7641(7)
H12_6 H 0.1310(2) 0.6608(3) 0.8106(7)
C21_6 C 0.0260(2) 0.5807(3) 0.7061(6)
N6_8 N 0.05630(15) 0.55756(25) 0.4286(5)
C22_6 C 0.0807(2) 0.5644(3) 0.3036(6)
C23_6 C 0.0710(2) 0.5297(3) 0.2022(6)
C24_6 C 0.0343(2) 0.4836(3) 0.2136(6)
C25_6 C 0.0261(2) 0.4471(3) 0.1145(7)
H14_6 H 0.0431(2) 0.4501(3) 0.0315(7)
C27_8 C 0.0629(2) 0.6130(3) 0.6183(6)
C28_8 C 0.0884(2) 0.6639(3) 0.6610(6)
C29_6 C 0.0786(2) 0.6958(3) 0.5964(7)
C30_6 C 0.1028(2) 0.7423(3) 0.6390(7)
C31_8 C 0.1460(2) 0.7287(3) 0.7975(7)
H15_8 H 0.1694(2) 0.7395(3) 0.8673(7)
H16_6 H 0.0950(2) 0.7632(3) 0.5967(7)
N2_8 N 0.94370(15) 0.44244(25) 0.5714(5)
C1_6 C 0.9740(2) 0.4193(3) 0.2939(6)
C3_6 C 0.9739(2) 0.5529(3) 0.8855(7)
H2_6 H 0.9569(2) 0.5499(3) 0.9685(7)
C4_6 C 0.9657(2) 0.5164(3) 0.7864(6)
C5_6 C 0.9290(2) 0.4703(3) 0.7978(6)
C6_6 C 0.9193(2) 0.4356(3) 0.6964(6)
C10_8 C 0.9371(2) 0.3870(3) 0.3817(6)
C16_8 C 0.9116(2) 0.3361(3) 0.3390(6)
C17_6 C 0.9214(2) 0.3042(3) 0.4036(7)
C18_6 C 0.8972(2) 0.2577(3) 0.3610(7)
H10_6 H 0.9050(2) 0.2368(3) 0.4033(7)
C19_8 C 0.8540(2) 0.2713(3) 0.2025(7)
H11_8 H 0.8306(2) 0.2605(3) 0.1327(7)
N5_6 N 0.99800(15) 0.53306(25) 0.6777(5)
C26_6 C 0.9887(2) 0.4073(3) 0.1656(7)
H13_6 H 0.9752(2) 0.3776(3) 0.1240(7)
C32_8 C 0.9230(2) 0.3977(3) 0.5084(6)
C33_8 C 0.8844(2) 0.3631(3) 0.5950(7)
C34_6 C 0.8830(2) 0.3866(3) 0.7106(7)
H17_6 H 0.8623(2) 0.3737(3) 0.7871(7)
H18_6 H 0.8647(2) 0.3313(3) 0.5746(7)
C35_6 C 0.8969(2) 0.4570(3) 0.9274(7)
C39_6 C 0.8500(3) 0.4448(4) 0.9158(9)
H21_6 H 0.8377(3) 0.4458(4) 0.8270(9)
C40_8 C 0.8770(2) 0.3191(3) 0.2359(7)
H23_6 H 0.8690(2) 0.3392(3) 0.1894(7)
H24_6 H 0.9441(2) 0.3137(3) 0.4752(7)
N1_7 N 0.53306(25) 0.5351(2) 0.3223(5)
N2_9 N 0.55756(25) 0.5013(2) 0.5714(5)
C1_7 C 0.5807(3) 0.5548(2) 0.2939(6)
C2_7 C 0.4073(3) 0.4187(2) 0.8344(7)
H1_7 H 0.3776(3) 0.4025(2) 0.8760(7)
C3_7 C 0.4471(3) 0.4211(2) 0.8855(7)
H2_7 H 0.4501(3) 0.4071(2) 0.9685(7)
C4_7 C 0.4836(3) 0.4494(2) 0.7864(6)
C5_7 C 0.5297(3) 0.4588(2) 0.7978(6)
C6_7 C 0.5644(3) 0.4838(2) 0.6964(6)
C7_7 C 0.3866(3) 0.5037(2) 0.2894(7)
H3_7 H 0.3737(3) 0.5115(2) 0.2129(7)
C8_9 C 0.3631(3) 0.4788(2) 0.4050(7)
H4_7 H 0.3313(3) 0.4667(2) 0.4254(7)
C9_9 C 0.3977(3) 0.4748(2) 0.4916(6)
C10_9 C 0.6130(3) 0.5502(2) 0.3817(6)
C11_7 C 0.4570(3) 0.5602(2) 0.0726(7)
C15_7 C 0.4448(4) 0.5949(3) 0.0842(9)
H8_7 H 0.4458(4) 0.6082(3) 0.1730(9)
C16_9 C 0.6639(3) 0.5756(2) 0.3390(6)
C17_7 C 0.6958(3) 0.6173(2) 0.4036(7)
H9_7 H 0.3137(3) 0.3697(2) 0.5248(7)
C18_7 C 0.7423(3) 0.6396(2) 0.3610(7)
H10_7 H 0.7632(3) 0.6683(2) 0.4033(7)
C19_9 C 0.7287(3) 0.5828(2) 0.2025(7)
H11_9 H 0.7395(3) 0.5702(2) 0.1327(7)
C20_9 C 0.3191(3) 0.4422(2) 0.7641(7)
H12_7 H 0.3392(3) 0.4703(2) 0.8106(7)
N5_7 N 0.46694(25) 0.4649(2) 0.6777(5)
C21_7 C 0.4193(3) 0.4452(2) 0.7061(6)
N6_9 N 0.44244(25) 0.4987(2) 0.4286(5)
C22_7 C 0.4356(3) 0.5162(2) 0.3036(6)
C23_7 C 0.4703(3) 0.5412(2) 0.2022(6)
C24_7 C 0.5164(3) 0.5506(2) 0.2136(6)
C25_7 C 0.5529(3) 0.5789(2) 0.1145(7)
C26_7 C 0.5927(3) 0.5813(2) 0.1656(7)
H13_7 H 0.6224(3) 0.5975(2) 0.1240(7)
H14_7 H 0.5499(3) 0.5929(2) 0.0315(7)
C27_9 C 0.3870(3) 0.4498(2) 0.6183(6)
C28_9 C 0.3361(3) 0.4244(2) 0.6610(6)
C29_7 C 0.3042(3) 0.3827(2) 0.5964(7)
C30_7 C 0.2577(3) 0.3604(2) 0.6390(7)
C31_9 C 0.2713(3) 0.4172(2) 0.7975(7)
H15_9 H 0.2605(3) 0.4298(2) 0.8673(7)
H16_7 H 0.2368(3) 0.3317(2) 0.5967(7)
C32_9 C 0.6023(3) 0.5252(2) 0.5084(6)
C33_9 C 0.6369(3) 0.5212(2) 0.5950(7)
C34_7 C 0.6134(3) 0.4963(2) 0.7106(7)
H17_7 H 0.6263(3) 0.4885(2) 0.7871(7)
H18_7 H 0.6687(3) 0.5333(2) 0.5746(7)
C35_7 C 0.5430(3) 0.4398(2) 0.9274(7)
C39_7 C 0.5552(4) 0.4051(3) 0.9158(9)
H21_7 H 0.5542(4) 0.3918(3) 0.8270(9)
C40_9 C 0.6809(3) 0.5578(2) 0.2359(7)
H23_7 H 0.6608(3) 0.5297(2) 0.1894(7)
H24_7 H 0.6863(3) 0.6303(2) 0.4752(7)
H4_8 H 0.8020(2) 0.0020(3) 0.7587(7)
H9_8 H 0.7226(2) 0.0196(3) 0.8581(7)
C29_8 C 0.7452(2) 0.0292(3) 0.9298(7)
C30_8 C 0.7694(2) 0.0757(3) 0.9724(7)
H16_8 H 0.7616(2) 0.0966(3) 0.9301(7)
C2_8 C 0.6780(2) 0.9260(3) 0.1677(7)
H1_8 H 0.6915(2) 0.9557(3) 0.2093(7)
C3_8 C 0.6406(2) 0.8862(3) 0.2188(7)
H2_8 H 0.6236(2) 0.8832(3) 0.3018(7)
C4_8 C 0.6324(2) 0.8497(3) 0.1197(6)
C5_8 C 0.5957(2) 0.8036(3) 0.1311(6)
C6_8 C 0.5860(2) 0.7689(3) 0.0297(6)
H12_8 H 0.7977(2) 0.9941(3) 0.1439(7)
N5_8 N 0.66466(15) 0.86640(25) 0.0111(5)
C21_8 C 0.6926(2) 0.9141(3) 0.0395(6)
C34_8 C 0.5496(2) 0.7200(3) 0.0440(7)
H17_8 H 0.5289(2) 0.7071(3) 0.1205(7)
C35_8 C 0.5635(2) 0.7904(3) 0.2608(7)
C36_5 C 0.5787(2) 0.7889(4) 0.3967(7)
H19_5 H 0.6099(2) 0.7973(4) 0.4136(7)
C37_5 C 0.5469(3) 0.7746(4) 0.5067(8)
N10_5 N 0.5032(2) 0.7628(4) 0.4947(8)
C38_5 C 0.4887(3) 0.7648(4) 0.3650(10)
H20_5 H 0.4573(3) 0.7565(4) 0.3529(10)
C39_8 C 0.5166(3) 0.7782(4) 0.2492(9)
H21_8 H 0.5043(3) 0.7792(4) 0.1604(9)
H22_5 H 0.5577(3) 0.7735(4) 0.5977(8)
C2_9 C 0.0740(3) 0.7520(2) 0.1677(7)
H1_9 H 0.0443(3) 0.7358(2) 0.2093(7)
C3_9 C 0.1138(3) 0.7544(2) 0.2188(7)
H2_9 H 0.1168(3) 0.7404(2) 0.3018(7)
C4_9 C 0.1503(3) 0.7827(2) 0.1197(6)
C5_9 C 0.1964(3) 0.7921(2) 0.1311(6)
C6_9 C 0.2311(3) 0.8171(2) 0.0297(6)
H12_9 H 0.0059(3) 0.8036(2) 0.1439(7)
N5_9 N 0.13360(25) 0.7983(2) 0.0111(5)
C21_9 C 0.0859(3) 0.7786(2) 0.0395(6)
C34_9 C 0.2800(3) 0.8297(2) 0.0440(7)
H17_9 H 0.2929(3) 0.8219(2) 0.1205(7)
C35_9 C 0.2096(3) 0.7732(2) 0.2608(7)
C36_6 C 0.2111(4) 0.7899(3) 0.3967(7)
H19_6 H 0.2027(4) 0.8127(3) 0.4136(7)
C37_6 C 0.2254(4) 0.7724(3) 0.5067(8)
N10_6 N 0.2372(4) 0.7405(3) 0.4947(8)
C38_6 C 0.2352(4) 0.7240(3) 0.3650(10)
H20_6 H 0.2435(4) 0.7009(3) 0.3529(10)
C39_9 C 0.2218(4) 0.7385(3) 0.2492(9)
H21_9 H 0.2208(4) 0.7252(3) 0.1604(9)
H22_6 H 0.2265(4) 0.7843(3) 0.5977(8)
H4_9 H 0.9980(3) 0.8000(2) 0.7587(7)
H9_9 H 0.9804(3) 0.7030(2) 0.8581(7)
C29_9 C 0.9708(3) 0.7161(2) 0.9298(7)
C30_9 C 0.9243(3) 0.6938(2) 0.9724(7)
H16_9 H 0.9034(3) 0.6651(2) 0.9301(7)
N1_8 N 0.33534(15) 0.13360(25) 0.9889(5)
N3_5 N 0.4968(2) 0.2372(4) 0.5053(8)
C1_8 C 0.3074(2) 0.0859(3) 0.9605(6)
C7_8 C 0.4504(2) 0.2800(3) 0.9560(7)
H3_8 H 0.4711(2) 0.2929(3) 0.8795(7)
C11_8 C 0.4365(2) 0.2096(3) 0.7392(7)
C12_5 C 0.4213(2) 0.2111(4) 0.6033(7)
H5_5 H 0.3901(2) 0.2027(4) 0.5864(7)
C13_5 C 0.4531(3) 0.2254(4) 0.4933(8)
H6_5 H 0.4423(3) 0.2265(4) 0.4023(8)
C14_5 C 0.5113(3) 0.2352(4) 0.6350(10)
H7_5 H 0.5427(3) 0.2435(4) 0.6471(10)
C15_8 C 0.4834(3) 0.2218(4) 0.7508(9)
H8_8 H 0.4957(3) 0.2208(4) 0.8396(9)
C22_8 C 0.4140(2) 0.2311(3) 0.9703(6)
C23_8 C 0.4043(2) 0.1964(3) 0.8689(6)
C24_8 C 0.3676(2) 0.1503(3) 0.8803(6)
C25_8 C 0.3594(2) 0.1138(3) 0.7812(7)
C26_8 C 0.3220(2) 0.0740(3) 0.8323(7)
H13_8 H 0.3085(2) 0.0443(3) 0.7907(7)
H14_8 H 0.3764(2) 0.1168(3) 0.6982(7)
H23_8 H 0.2023(2) 0.0059(3) 0.8561(7)
C17_8 C 0.2548(2) 0.9708(3) 0.0702(7)
C18_8 C 0.2306(2) 0.9243(3) 0.0276(7)
H10_8 H 0.2384(2) 0.9034(3) 0.0699(7)
H18_8 H 0.1980(2) 0.9980(3) 0.2413(7)
H24_8 H 0.2774(2) 0.9804(3) 0.1419(7)
C17_9 C 0.0292(3) 0.2839(2) 0.0702(7)
C18_9 C 0.0757(3) 0.3062(2) 0.0276(7)
H10_9 H 0.0966(3) 0.3349(2) 0.0699(7)
H18_9 H 0.0020(3) 0.2000(2) 0.2413(7)
H24_9 H 0.0196(3) 0.2970(2) 0.1419(7)
N1_9 N 0.86640(25) 0.2017(2) 0.9889(5)
N3_6 N 0.7628(4) 0.2595(3) 0.5053(8)
C1_9 C 0.9141(3) 0.2214(2) 0.9605(6)
C7_9 C 0.7200(3) 0.1703(2) 0.9560(7)
H3_9 H 0.7071(3) 0.1781(2) 0.8795(7)
C11_9 C 0.7904(3) 0.2268(2) 0.7392(7)
C12_6 C 0.7889(4) 0.2101(3) 0.6033(7)
H5_6 H 0.7973(4) 0.1873(3) 0.5864(7)
C13_6 C 0.7746(4) 0.2276(3) 0.4933(8)
H6_6 H 0.7735(4) 0.2157(3) 0.4023(8)
C14_6 C 0.7648(4) 0.2760(3) 0.6350(10)
H7_6 H 0.7565(4) 0.2991(3) 0.6471(10)
C15_9 C 0.7782(4) 0.2615(3) 0.7508(9)
H8_9 H 0.7792(4) 0.2748(3) 0.8396(9)
C22_9 C 0.7689(3) 0.1829(2) 0.9703(6)
C23_9 C 0.8036(3) 0.2079(2) 0.8689(6)
C24_9 C 0.8497(3) 0.2173(2) 0.8803(6)
C25_9 C 0.8862(3) 0.2456(2) 0.7812(7)
C26_9 C 0.9260(3) 0.2480(2) 0.8323(7)
H13_9 H 0.9557(3) 0.2642(2) 0.7907(7)
H14_9 H 0.8832(3) 0.2596(2) 0.6982(7)
H23_9 H 0.9941(3) 0.1964(2) 0.8561(7)
C36_7 C 0.5435(3) 0.0879(2) 0.0633(7)
H19_7 H 0.5207(3) 0.0567(2) 0.0802(7)
C37_7 C 0.5610(3) 0.1197(3) 0.1733(8)
N10_7 N 0.5929(3) 0.1634(2) 0.1613(8)
C38_7 C 0.6094(3) 0.1779(3) 0.0316(10)
H20_7 H 0.6325(3) 0.2093(3) 0.0195(10)
H22_7 H 0.5491(3) 0.1089(3) 0.2643(8)
N3_7 N 0.4071(3) 0.8366(2) 0.8387(8)
C12_7 C 0.4565(3) 0.9121(2) 0.9367(7)
H5_7 H 0.4793(3) 0.9433(2) 0.9198(7)
C13_7 C 0.4390(3) 0.8803(3) 0.8267(8)
H6_7 H 0.4509(3) 0.8911(3) 0.7357(8)
C14_7 C 0.3906(3) 0.8221(3) 0.9684(10)
H7_7 H 0.3675(3) 0.7907(3) 0.9805(10)
N3_8 N 0.1634(2) 0.5706(4) 0.8387(8)
C12_8 C 0.0879(2) 0.5445(4) 0.9367(7)
H5_8 H 0.0567(2) 0.5361(4) 0.9198(7)
C13_8 C 0.1197(3) 0.5588(4) 0.8267(8)
H6_8 H 0.1089(3) 0.5599(4) 0.7357(8)
C14_8 C 0.1779(3) 0.5686(4) 0.9684(10)
H7_8 H 0.2093(3) 0.5769(4) 0.9805(10)
C36_8 C 0.9121(2) 0.4555(4) 0.0633(7)
H19_8 H 0.9433(2) 0.4639(4) 0.0802(7)
C37_8 C 0.8803(3) 0.4412(4) 0.1733(8)
N10_8 N 0.8366(2) 0.4294(4) 0.1613(8)
C38_8 C 0.8221(3) 0.4314(4) 0.0316(10)
H20_8 H 0.7907(3) 0.4231(4) 0.0195(10)
H22_8 H 0.8911(3) 0.4401(4) 0.2643(8)
C36_9 C 0.5445(4) 0.4565(3) 0.0633(7)
H19_9 H 0.5361(4) 0.4793(3) 0.0802(7)
C37_9 C 0.5588(4) 0.4390(3) 0.1733(8)
N10_9 N 0.5706(4) 0.4071(3) 0.1613(8)
C38_9 C 0.5686(4) 0.3906(3) 0.0316(10)
H20_9 H 0.5769(4) 0.3675(3) 0.0195(10)
H22_9 H 0.5599(4) 0.4509(3) 0.2643(8)
N3_9 N 0.4294(4) 0.5929(3) 0.8387(8)
C12_9 C 0.4555(4) 0.5435(3) 0.9367(7)
H5_9 H 0.4639(4) 0.5207(3) 0.9198(7)
C13_9 C 0.4412(4) 0.5610(3) 0.8267(8)
H6_9 H 0.4401(4) 0.5491(3) 0.7357(8)
C14_9 C 0.4314(4) 0.6094(3) 0.9684(10)
H7_9 H 0.4231(4) 0.6325(3) 0.9805(10)
loop_
_geom_bond_atom_site_label_1
_geom_bond_atom_site_label_2
_geom_bond_site_symmetry_1
_geom_bond_site_symmetry_2
C2 H1 1_555 1_555
C3 C2 1_555 1_555
H2 C3 1_555 1_555
C4 C3 1_555 1_555
C5 C4 1_555 1_555
C20 H12 1_555 1_555
C21 C2 1_555 1_555
Mn3 N7 1_555 1_555
C31 C20 1_555 1_555
H15 C31 1_555 1_555
C34 C6 1_555 1_555
H17 C34 1_555 1_555
C35 C5 1_555 1_555
C36 C35 1_555 1_555
H19 C36 1_555 1_555
C37 C36 1_555 1_555
N10 C37 1_555 1_555
C38 N10 1_555 1_555
H20 C38 1_555 1_555
C39 C35 1_555 1_555
H21 C39 1_555 1_555
H22 C37 1_555 1_555
C4 N5 1_555 1_555
C5 C6 1_555 1_555
N5 C21 1_555 1_555
N7 C31 1_555 1_555
C38 C39 1_555 1_555
Mn1 N1 1_555 1_555
N1 C1 1_555 1_555
N2 Mn1 1_555 1_555
N3 C13 1_555 1_555
N4 C18 1_555 1_555
C1 C10 1_555 1_555
C7 H3 1_555 1_555
C8 C7 1_555 1_555
H4 C8 1_555 1_555
C9 C8 1_555 1_555
C10 C16 1_555 1_555
C11 C12 1_555 1_555
C12 H5 1_555 1_555
C13 C12 1_555 1_555
H6 C13 1_555 1_555
C14 N3 1_555 1_555
H7 C14 1_555 1_555
C15 C11 1_555 1_555
H8 C15 1_555 1_555
C16 C17 1_555 1_555
C17 C18 1_555 1_555
H9 C29 1_555 1_555
C19 N4 1_555 1_555
H11 C19 1_555 1_555
N6 Mn1 1_555 1_555
C22 C7 1_555 1_555
C23 C11 1_555 1_555
C24 N1 1_555 1_555
C25 C24 1_555 1_555
C26 C1 1_555 1_555
H13 C26 1_555 1_555
H14 C25 1_555 1_555
C27 C9 1_555 1_555
C29 C28 1_555 1_555
C30 C29 1_555 1_555
H16 C30 1_555 1_555
N8 Mn1 1_555 1_555
N9 Mn1 1_555 1_555
C32 N2 1_555 1_555
C33 C32 1_555 1_555
H18 C33 1_555 1_555
C40 C16 1_555 1_555
H23 C40 1_555 1_555
H24 C17 1_555 1_555
C9 N6 1_555 1_555
C10 C32 1_555 1_555
C14 C15 1_555 1_555
C19 C40 1_555 1_555
N6 C22 1_555 1_555
C22 C23 1_555 1_555
C23 C24 1_555 1_555
C25 C26 1_555 1_555
C27 C28 1_555 1_555
Mn3_2 N7_2 1_555 1_555
C31_2 C20_2 1_555 1_555
H15_2 C31_2 1_555 1_555
N7_2 C31_2 1_555 1_555
Mn1_2 N1_2 1_555 1_555
N1_2 C1_2 1_555 1_555
N2_2 Mn1_2 1_555 1_555
N3_2 C13_2 1_555 1_555
N4_2 C18_2 1_555 1_555
C1_2 C10_2 1_555 1_555
C7_2 H3_2 1_555 1_555
C8_2 C7_2 1_555 1_555
C9_2 C8_2 1_555 1_555
C10_2 C16_2 1_555 1_555
C11_2 C12_2 1_555 1_555
C12_2 H5_2 1_555 1_555
C13_2 C12_2 1_555 1_555
H6_2 C13_2 1_555 1_555
C14_2 N3_2 1_555 1_555
H7_2 C14_2 1_555 1_555
C15_2 C11_2 1_555 1_555
H8_2 C15_2 1_555 1_555
C16_2 C17_2 1_555 1_555
C17_2 C18_2 1_555 1_555
C18_2 H10_2 1_555 1_555
C19_2 N4_2 1_555 1_555
H11_2 C19_2 1_555 1_555
Mn2_2 N4_2 1_555 1_555
N6_2 Mn1_2 1_555 1_555
C22_2 C7_2 1_555 1_555
C23_2 C11_2 1_555 1_555
C24_2 N1_2 1_555 1_555
C25_2 C24_2 1_555 1_555
C26_2 C1_2 1_555 1_555
H13_2 C26_2 1_555 1_555
H14_2 C25_2 1_555 1_555
C27_2 C9_2 1_555 1_555
N8_2 Mn1_2 1_555 1_555
N9_2 Mn1_2 1_555 1_555
C32_2 N2_2 1_555 1_555
C33_2 C32_2 1_555 1_555
H18_2 C33_2 1_555 1_555
C40_2 C16_2 1_555 1_555
H23_2 C40_2 1_555 1_555
H24_2 C17_2 1_555 1_555
C9_2 N6_2 1_555 1_555
C10_2 C32_2 1_555 1_555
C14_2 C15_2 1_555 1_555
C19_2 C40_2 1_555 1_555
N6_2 C22_2 1_555 1_555
C22_2 C23_2 1_555 1_555
C23_2 C24_2 1_555 1_555
C25_2 C26_2 1_555 1_555
C27_2 C28_2 1_555 1_555
Mn1_3 N1_3 1_555 1_555
N1_3 C1_3 1_555 1_555
N2_3 Mn1_3 1_555 1_555
N3_3 C13_3 1_555 1_555
N4_3 C18_3 1_555 1_555
C1_3 C10_3 1_555 1_555
C7_3 H3_3 1_555 1_555
C8_3 C7_3 1_555 1_555
C9_3 C8_3 1_555 1_555
C10_3 C16_3 1_555 1_555
C11_3 C12_3 1_555 1_555
C12_3 H5_3 1_555 1_555
C13_3 C12_3 1_555 1_555
H6_3 C13_3 1_555 1_555
C14_3 N3_3 1_555 1_555
H7_3 C14_3 1_555 1_555
C15_3 C11_3 1_555 1_555
H8_3 C15_3 1_555 1_555
C16_3 C17_3 1_555 1_555
C17_3 C18_3 1_555 1_555
C19_3 N4_3 1_555 1_555
H11_3 C19_3 1_555 1_555
N6_3 Mn1_3 1_555 1_555
C22_3 C7_3 1_555 1_555
C23_3 C11_3 1_555 1_555
C24_3 N1_3 1_555 1_555
C25_3 C24_3 1_555 1_555
C26_3 C1_3 1_555 1_555
H13_3 C26_3 1_555 1_555
H14_3 C25_3 1_555 1_555
C27_3 C9_3 1_555 1_555
N8_3 Mn1_3 1_555 1_555
N9_3 Mn1_3 1_555 1_555
C32_3 N2_3 1_555 1_555
C33_3 C32_3 1_555 1_555
H18_3 C33_3 1_555 1_555
C40_3 C16_3 1_555 1_555
H23_3 C40_3 1_555 1_555
H24_3 C17_3 1_555 1_555
C9_3 N6_3 1_555 1_555
C10_3 C32_3 1_555 1_555
C14_3 C15_3 1_555 1_555
C19_3 C40_3 1_555 1_555
N6_3 C22_3 1_555 1_555
C22_3 C23_3 1_555 1_555
C23_3 C24_3 1_555 1_555
C25_3 C26_3 1_555 1_555
C27_3 C28_3 1_555 1_555
Mn3_3 N7_3 1_555 1_555
C31_3 C20_3 1_555 1_555
H15_3 C31_3 1_555 1_555
N7_3 C31_3 1_555 1_555
N2_4 Mn3_3 1_555 1_555
C2_2 H1_2 1_555 1_555
C3_2 C2_2 1_555 1_555
H2_2 C3_2 1_555 1_555
C4_2 C3_2 1_555 1_555
C5_2 C4_2 1_555 1_555
C6_2 N2_4 1_555 1_555
H4_2 C8_4 1_555 1_555
C9_4 C8_4 1_555 1_555
C10_4 C16_4 1_555 1_555
C16_4 C17_4 1_555 1_555
C17_4 C18_4 1_555 1_555
H9_2 C29_2 1_555 1_555
C18_4 H10_4 1_555 1_555
C20_4 H12_2 1_555 1_555
N5_2 Mn3_3 1_555 1_555
C21_2 C2_2 1_555 1_555
N6_4 Mn3_3 1_555 1_555
C27_4 C9_4 1_555 1_555
C28_4 C20_4 1_555 1_555
C29_2 C28_4 1_555 1_555
C30_2 C29_2 1_555 1_555
N7_4 C30_2 1_555 1_555
C31_4 C20_4 1_555 1_555
H15_4 C31_4 1_555 1_555
N9_4 Mn3_3 1_555 1_555
C32_4 N2_4 1_555 1_555
C33_4 C32_4 1_555 1_555
C34_2 C6_2 1_555 1_555
H17_2 C34_2 1_555 1_555
H18_4 C33_4 1_555 1_555
C35_2 C5_2 1_555 1_555
C36_2 C35_2 1_555 1_555
H19_2 C36_2 1_555 1_555
C37_2 C36_2 1_555 1_555
N10_2 C37_2 1_555 1_555
C38_2 N10_2 1_555 1_555
H20_2 C38_2 1_555 1_555
C39_2 C35_2 1_555 1_555
H21_2 C39_2 1_555 1_555
H22_2 C37_2 1_555 1_555
H24_4 C17_4 1_555 1_555
C4_2 N5_2 1_555 1_555
C5_2 C6_2 1_555 1_555
C9_4 N6_4 1_555 1_555
C10_4 C32_4 1_555 1_555
N5_2 C21_2 1_555 1_555
C21_2 C27_4 1_555 1_555
C27_4 C28_4 1_555 1_555
N7_4 C31_4 1_555 1_555
C33_4 C34_2 1_555 1_555
C38_2 C39_2 1_555 1_555
N1_4 C1_4 1_555 1_555
N3_4 C13_4 1_555 1_555
C7_4 H3_4 1_555 1_555
C11_4 C12_4 1_555 1_555
C12_4 H5_4 1_555 1_555
C13_4 C12_4 1_555 1_555
H6_4 C13_4 1_555 1_555
C14_4 N3_4 1_555 1_555
H7_4 C14_4 1_555 1_555
C15_4 C11_4 1_555 1_555
H8_4 C15_4 1_555 1_555
C19_4 N9_2 1_555 1_555
H11_4 C19_4 1_555 1_555
C22_4 C7_4 1_555 1_555
C23_4 C11_4 1_555 1_555
C24_4 N1_4 1_555 1_555
C25_4 C24_4 1_555 1_555
C26_4 C1_4 1_555 1_555
H13_4 C26_4 1_555 1_555
H14_4 C25_4 1_555 1_555
H23_4 C40_4 1_555 1_555
C14_4 C15_4 1_555 1_555
C19_4 C40_4 1_555 1_555
C22_4 C23_4 1_555 1_555
C23_4 C24_4 1_555 1_555
C25_4 C26_4 1_555 1_555
N2_5 Mn3 1_555 1_555
C2_3 H1_3 1_555 1_555
C3_3 C2_3 1_555 1_555
H2_3 C3_3 1_555 1_555
C4_3 C3_3 1_555 1_555
C5_3 C4_3 1_555 1_555
C6_3 N2_5 1_555 1_555
H4_3 C8_5 1_555 1_555
C9_5 C8_5 1_555 1_555
C10_5 C16_5 1_555 1_555
H9_3 C29_3 1_555 1_555
C20_5 H12_3 1_555 1_555
N5_3 Mn3 1_555 1_555
C21_3 C2_3 1_555 1_555
N6_5 Mn3 1_555 1_555
C27_5 C9_5 1_555 1_555
C28_5 C20_5 1_555 1_555
C29_3 C28_5 1_555 1_555
C30_3 C29_3 1_555 1_555
N7_5 C30_3 1_555 1_555
Mn2_2 N7_5 1_555 1_555
C31_5 C20_5 1_555 1_555
H15_5 C31_5 1_555 1_555
H16_3 C30_3 1_555 1_555
N9_5 Mn3 1_555 1_555
C32_5 N2_5 1_555 1_555
C33_5 C32_5 1_555 1_555
C34_3 C6_3 1_555 1_555
H17_3 C34_3 1_555 1_555
C35_3 C5_3 1_555 1_555
C36_3 C35_3 1_555 1_555
H19_3 C36_3 1_555 1_555
C37_3 C36_3 1_555 1_555
N10_3 C37_3 1_555 1_555
C38_3 N10_3 1_555 1_555
H20_3 C38_3 1_555 1_555
C39_3 C35_3 1_555 1_555
H21_3 C39_3 1_555 1_555
H22_3 C37_3 1_555 1_555
C4_3 N5_3 1_555 1_555
C5_3 C6_3 1_555 1_555
C9_5 N6_5 1_555 1_555
C10_5 C32_5 1_555 1_555
N5_3 C21_3 1_555 1_555
C21_3 C27_5 1_555 1_555
C27_5 C28_5 1_555 1_555
N7_5 C31_5 1_555 1_555
C33_5 C34_3 1_555 1_555
C38_3 C39_3 1_555 1_555
C19_5 N9_3 1_555 1_555
H11_5 C19_5 1_555 1_555
C19_5 C40_5 1_555 1_555
C19_6 N9 1_555 1_555
H11_6 C19_6 1_555 1_555
C19_6 C40_6 1_555 1_555
N2_6 Mn3_2 1_555 1_555
C2_4 H1_4 1_555 1_555
C3_4 C2_4 1_555 1_555
H2_4 C3_4 1_555 1_555
C4_4 C3_4 1_555 1_555
C5_4 C4_4 1_555 1_555
C6_4 N2_6 1_555 1_555
H4_4 C8_6 1_555 1_555
C9_6 C8_6 1_555 1_555
C10_6 C16_6 1_555 1_555
H9_4 C29_4 1_555 1_555
C20_6 H12_4 1_555 1_555
N5_4 Mn3_2 1_555 1_555
C21_4 C2_4 1_555 1_555
N6_6 Mn3_2 1_555 1_555
C27_6 C9_6 1_555 1_555
C28_6 C20_6 1_555 1_555
C29_4 C28_6 1_555 1_555
C30_4 C29_4 1_555 1_555
N7_6 C30_4 1_555 1_555
C31_6 C20_6 1_555 1_555
H15_6 C31_6 1_555 1_555
N9_6 Mn3_2 1_555 1_555
C32_6 N2_6 1_555 1_555
C33_6 C32_6 1_555 1_555
C34_4 C6_4 1_555 1_555
H17_4 C34_4 1_555 1_555
C35_4 C5_4 1_555 1_555
C36_4 C35_4 1_555 1_555
H19_4 C36_4 1_555 1_555
C37_4 C36_4 1_555 1_555
N10_4 C37_4 1_555 1_555
C38_4 N10_4 1_555 1_555
H20_4 C38_4 1_555 1_555
C39_4 C35_4 1_555 1_555
H21_4 C39_4 1_555 1_555
H22_4 C37_4 1_555 1_555
C4_4 N5_4 1_555 1_555
C5_4 C6_4 1_555 1_555
C9_6 N6_6 1_555 1_555
C10_6 C32_6 1_555 1_555
N5_4 C21_4 1_555 1_555
C21_4 C27_6 1_555 1_555
C27_6 C28_6 1_555 1_555
N7_6 C31_6 1_555 1_555
C33_6 C34_4 1_555 1_555
C38_4 C39_4 1_555 1_555
N9_5 C18_5 1_555 1_555
C1_5 C10_7 1_555 1_555
H2_5 C3_5 1_555 1_555
C4_5 C3_5 1_555 1_555
C5_5 C4_5 1_555 1_555
C6_5 N2_7 1_555 1_555
C10_7 C16_7 1_555 1_555
C16_7 C17_5 1_555 1_555
C17_5 C18_5 1_555 1_555
C18_5 H10_5 1_555 1_555
C19_7 N9_5 1_555 1_555
H11_7 C19_7 1_555 1_555
C26_5 C1_5 1_555 1_555
H13_5 C26_5 1_555 1_555
C32_7 N2_7 1_555 1_555
C33_7 C32_7 1_555 1_555
C34_5 C6_5 1_555 1_555
H17_5 C34_5 1_555 1_555
H18_5 C33_7 1_555 1_555
C35_5 C5_5 1_555 1_555
C39_5 C35_5 1_555 1_555
H21_5 C39_5 1_555 1_555
C40_7 C16_7 1_555 1_555
H23_5 C40_7 1_555 1_555
H24_5 C17_5 1_555 1_555
C4_5 N5_5 1_555 1_555
C5_5 C6_5 1_555 1_555
C10_7 C32_7 1_555 1_555
C19_7 C40_7 1_555 1_555
C33_7 C34_5 1_555 1_555
Mn3_5 N1_5 1_555 1_555
C2_5 H1_5 1_555 1_555
C7_5 H3_5 1_555 1_555
C8_7 C7_5 1_555 1_555
H4_5 C8_7 1_555 1_555
C9_7 C8_7 1_555 1_555
C15_5 C11_5 1_555 1_555
H8_5 C15_5 1_555 1_555
H9_5 C29_5 1_555 1_555
C20_7 H12_5 1_555 1_555
C21_5 C2_5 1_555 1_555
N6_7 Mn3_5 1_555 1_555
C22_5 C7_5 1_555 1_555
C23_5 C11_5 1_555 1_555
C24_5 N1_5 1_555 1_555
C25_5 C24_5 1_555 1_555
H14_5 C25_5 1_555 1_555
C27_7 C9_7 1_555 1_555
C28_7 C20_7 1_555 1_555
C29_5 C28_7 1_555 1_555
C30_5 C29_5 1_555 1_555
N8_2 C30_5 1_555 1_555
C31_7 C20_7 1_555 1_555
H15_7 C31_7 1_555 1_555
H16_5 C30_5 1_555 1_555
N4_3 Mn3_5 1_555 1_555
C9_7 N6_7 1_555 1_555
C21_5 C27_7 1_555 1_555
N6_7 C22_5 1_555 1_555
C22_5 C23_5 1_555 1_555
C23_5 C24_5 1_555 1_555
C27_7 C28_7 1_555 1_555
N8_2 C31_7 1_555 1_555
Mn3_4 N1_6 1_555 1_555
C2_6 H1_6 1_555 1_555
C7_6 H3_6 1_555 1_555
C8_8 C7_6 1_555 1_555
H4_6 C8_8 1_555 1_555
C9_8 C8_8 1_555 1_555
C15_6 C11_6 1_555 1_555
H8_6 C15_6 1_555 1_555
H9_6 C29_6 1_555 1_555
C20_8 H12_6 1_555 1_555
C21_6 C2_6 1_555 1_555
N6_8 Mn3_4 1_555 1_555
C22_6 C7_6 1_555 1_555
C23_6 C11_6 1_555 1_555
C24_6 N1_6 1_555 1_555
C25_6 C24_6 1_555 1_555
H14_6 C25_6 1_555 1_555
C27_8 C9_8 1_555 1_555
C28_8 C20_8 1_555 1_555
C29_6 C28_8 1_555 1_555
C30_6 C29_6 1_555 1_555
N8_3 C30_6 1_555 1_555
C31_8 C20_8 1_555 1_555
H15_8 C31_8 1_555 1_555
H16_6 C30_6 1_555 1_555
N4 Mn3_4 1_555 1_555
C9_8 N6_8 1_555 1_555
C21_6 C27_8 1_555 1_555
N6_8 C22_6 1_555 1_555
C22_6 C23_6 1_555 1_555
C23_6 C24_6 1_555 1_555
C27_8 C28_8 1_555 1_555
N8_3 C31_8 1_555 1_555
N9_6 C18_6 1_555 1_555
C1_6 C10_8 1_555 1_555
H2_6 C3_6 1_555 1_555
C4_6 C3_6 1_555 1_555
C5_6 C4_6 1_555 1_555
C6_6 N2_8 1_555 1_555
C10_8 C16_8 1_555 1_555
C16_8 C17_6 1_555 1_555
C17_6 C18_6 1_555 1_555
C18_6 H10_6 1_555 1_555
C19_8 N9_6 1_555 1_555
H11_8 C19_8 1_555 1_555
C26_6 C1_6 1_555 1_555
H13_6 C26_6 1_555 1_555
C32_8 N2_8 1_555 1_555
C33_8 C32_8 1_555 1_555
C34_6 C6_6 1_555 1_555
H17_6 C34_6 1_555 1_555
H18_6 C33_8 1_555 1_555
C35_6 C5_6 1_555 1_555
C39_6 C35_6 1_555 1_555
H21_6 C39_6 1_555 1_555
C40_8 C16_8 1_555 1_555
H23_6 C40_8 1_555 1_555
H24_6 C17_6 1_555 1_555
C4_6 N5_6 1_555 1_555
C5_6 C6_6 1_555 1_555
C10_8 C32_8 1_555 1_555
C19_8 C40_8 1_555 1_555
C33_8 C34_6 1_555 1_555
Mn2_2 N1_7 1_555 1_555
N1_7 C1_7 1_555 1_555
N2_9 Mn2_2 1_555 1_555
N9_4 C18_7 1_555 1_555
C1_7 C10_9 1_555 1_555
C2_7 H1_7 1_555 1_555
C3_7 C2_7 1_555 1_555
H2_7 C3_7 1_555 1_555
C4_7 C3_7 1_555 1_555
C5_7 C4_7 1_555 1_555
C6_7 N2_9 1_555 1_555
C7_7 H3_7 1_555 1_555
C8_9 C7_7 1_555 1_555
H4_7 C8_9 1_555 1_555
C9_9 C8_9 1_555 1_555
C10_9 C16_9 1_555 1_555
C15_7 C11_7 1_555 1_555
H8_7 C15_7 1_555 1_555
C16_9 C17_7 1_555 1_555
C17_7 C18_7 1_555 1_555
H9_7 C29_7 1_555 1_555
C18_7 H10_7 1_555 1_555
C19_9 N9_4 1_555 1_555
H11_9 C19_9 1_555 1_555
C20_9 H12_7 1_555 1_555
N5_7 Mn2_2 1_555 1_555
C21_7 C2_7 1_555 1_555
N6_9 Mn2_2 1_555 1_555
C22_7 C7_7 1_555 1_555
C23_7 C11_7 1_555 1_555
C24_7 N1_7 1_555 1_555
C25_7 C24_7 1_555 1_555
C26_7 C1_7 1_555 1_555
H13_7 C26_7 1_555 1_555
H14_7 C25_7 1_555 1_555
C27_9 C9_9 1_555 1_555
C28_9 C20_9 1_555 1_555
C29_7 C28_9 1_555 1_555
C30_7 C29_7 1_555 1_555
N8 C30_7 1_555 1_555
C31_9 C20_9 1_555 1_555
H15_9 C31_9 1_555 1_555
H16_7 C30_7 1_555 1_555
C32_9 N2_9 1_555 1_555
C33_9 C32_9 1_555 1_555
C34_7 C6_7 1_555 1_555
H17_7 C34_7 1_555 1_555
H18_7 C33_9 1_555 1_555
C35_7 C5_7 1_555 1_555
C39_7 C35_7 1_555 1_555
H21_7 C39_7 1_555 1_555
C40_9 C16_9 1_555 1_555
H23_7 C40_9 1_555 1_555
H24_7 C17_7 1_555 1_555
C4_7 N5_7 1_555 1_555
C5_7 C6_7 1_555 1_555
C9_9 N6_9 1_555 1_555
C10_9 C32_9 1_555 1_555
C19_9 C40_9 1_555 1_555
N5_7 C21_7 1_555 1_555
C21_7 C27_9 1_555 1_555
N6_9 C22_7 1_555 1_555
C22_7 C23_7 1_555 1_555
C23_7 C24_7 1_555 1_555
C25_7 C26_7 1_555 1_555
C27_9 C28_9 1_555 1_555
N8 C31_9 1_555 1_555
C33_9 C34_7 1_555 1_555
Mn2_3 N5_5 1_555 1_555
N2_7 Mn2_3 1_555 1_555
N7_6 Mn2_3 1_555 1_555
Mn2 N5_6 1_555 1_555
N2_8 Mn2 1_555 1_555
N7_4 Mn2 1_555 1_555
H9_8 C29_8 1_555 1_555
C30_8 C29_8 1_555 1_555
H16_8 C30_8 1_555 1_555
C2_8 H1_8 1_555 1_555
C3_8 C2_8 1_555 1_555
H2_8 C3_8 1_555 1_555
C4_8 C3_8 1_555 1_555
C5_8 C4_8 1_555 1_555
C21_8 C2_8 1_555 1_555
C34_8 C6_8 1_555 1_555
H17_8 C34_8 1_555 1_555
C35_8 C5_8 1_555 1_555
C36_5 C35_8 1_555 1_555
H19_5 C36_5 1_555 1_555
C37_5 C36_5 1_555 1_555
N10_5 C37_5 1_555 1_555
C38_5 N10_5 1_555 1_555
H20_5 C38_5 1_555 1_555
C39_8 C35_8 1_555 1_555
H21_8 C39_8 1_555 1_555
H22_5 C37_5 1_555 1_555
C4_8 N5_8 1_555 1_555
C5_8 C6_8 1_555 1_555
N5_8 C21_8 1_555 1_555
C38_5 C39_8 1_555 1_555
C2_9 H1_9 1_555 1_555
C3_9 C2_9 1_555 1_555
H2_9 C3_9 1_555 1_555
C4_9 C3_9 1_555 1_555
C5_9 C4_9 1_555 1_555
C21_9 C2_9 1_555 1_555
C34_9 C6_9 1_555 1_555
H17_9 C34_9 1_555 1_555
C35_9 C5_9 1_555 1_555
C36_6 C35_9 1_555 1_555
H19_6 C36_6 1_555 1_555
C37_6 C36_6 1_555 1_555
N10_6 C37_6 1_555 1_555
C38_6 N10_6 1_555 1_555
H20_6 C38_6 1_555 1_555
C39_9 C35_9 1_555 1_555
H21_9 C39_9 1_555 1_555
H22_6 C37_6 1_555 1_555
C4_9 N5_9 1_555 1_555
C5_9 C6_9 1_555 1_555
N5_9 C21_9 1_555 1_555
C38_6 C39_9 1_555 1_555
H9_9 C29_9 1_555 1_555
C30_9 C29_9 1_555 1_555
H16_9 C30_9 1_555 1_555
N1_8 C1_8 1_555 1_555
N3_5 C13_5 1_555 1_555
C7_8 H3_8 1_555 1_555
C11_8 C12_5 1_555 1_555
C12_5 H5_5 1_555 1_555
C13_5 C12_5 1_555 1_555
H6_5 C13_5 1_555 1_555
C14_5 N3_5 1_555 1_555
H7_5 C14_5 1_555 1_555
C15_8 C11_8 1_555 1_555
H8_8 C15_8 1_555 1_555
C22_8 C7_8 1_555 1_555
C23_8 C11_8 1_555 1_555
C24_8 N1_8 1_555 1_555
C25_8 C24_8 1_555 1_555
C26_8 C1_8 1_555 1_555
H13_8 C26_8 1_555 1_555
H14_8 C25_8 1_555 1_555
C14_5 C15_8 1_555 1_555
C22_8 C23_8 1_555 1_555
C23_8 C24_8 1_555 1_555
C25_8 C26_8 1_555 1_555
C17_8 C18_8 1_555 1_555
C18_8 H10_8 1_555 1_555
H24_8 C17_8 1_555 1_555
C17_9 C18_9 1_555 1_555
C18_9 H10_9 1_555 1_555
H24_9 C17_9 1_555 1_555
N1_9 C1_9 1_555 1_555
N3_6 C13_6 1_555 1_555
C7_9 H3_9 1_555 1_555
C11_9 C12_6 1_555 1_555
C12_6 H5_6 1_555 1_555
C13_6 C12_6 1_555 1_555
H6_6 C13_6 1_555 1_555
C14_6 N3_6 1_555 1_555
H7_6 C14_6 1_555 1_555
C15_9 C11_9 1_555 1_555
H8_9 C15_9 1_555 1_555
C22_9 C7_9 1_555 1_555
C23_9 C11_9 1_555 1_555
C24_9 N1_9 1_555 1_555
C25_9 C24_9 1_555 1_555
C26_9 C1_9 1_555 1_555
H13_9 C26_9 1_555 1_555
H14_9 C25_9 1_555 1_555
C14_6 C15_9 1_555 1_555
C22_9 C23_9 1_555 1_555
C23_9 C24_9 1_555 1_555
C25_9 C26_9 1_555 1_555
H19_7 C36_7 1_555 1_555
C37_7 C36_7 1_555 1_555
N10_7 C37_7 1_555 1_555
C38_7 N10_7 1_555 1_555
H20_7 C38_7 1_555 1_555
H22_7 C37_7 1_555 1_555
N3_7 C13_7 1_555 1_555
C12_7 H5_7 1_555 1_555
C13_7 C12_7 1_555 1_555
H6_7 C13_7 1_555 1_555
C14_7 N3_7 1_555 1_555
H7_7 C14_7 1_555 1_555
N3_8 C13_8 1_555 1_555
C12_8 H5_8 1_555 1_555
C13_8 C12_8 1_555 1_555
H6_8 C13_8 1_555 1_555
C14_8 N3_8 1_555 1_555
H7_8 C14_8 1_555 1_555
H19_8 C36_8 1_555 1_555
C37_8 C36_8 1_555 1_555
N10_8 C37_8 1_555 1_555
C38_8 N10_8 1_555 1_555
H20_8 C38_8 1_555 1_555
H22_8 C37_8 1_555 1_555
H19_9 C36_9 1_555 1_555
C37_9 C36_9 1_555 1_555
N10_9 C37_9 1_555 1_555
C38_9 N10_9 1_555 1_555
H20_9 C38_9 1_555 1_555
H22_9 C37_9 1_555 1_555
N3_9 C13_9 1_555 1_555
C12_9 H5_9 1_555 1_555
C13_9 C12_9 1_555 1_555
H6_9 C13_9 1_555 1_555
C14_9 N3_9 1_555 1_555
H7_9 C14_9 1_555 1_555

#END
