
###############################################################################
#
# This file contains modified crystal structure data generated from the
# MOF subset of the Cambridge Structural Database (CSD) v543 
# hosted by the Cambridge Crystallographic Data Centre (CCDC).
#
# This work is licensed under the Creative Commons
# Attribution-NonCommercial-ShareAlike 4.0 International License.
# To view a copy of this license, visit
# http://creativecommons.org/licenses/by-nc-sa/4.0/
# or send a letter to
# Creative Commons, PO Box 1866, Mountain View, CA 94042, USA.
#
# CIF created using the CSD Python API on 29 September 2022
# The structure has been converted into the P1 space group
# The structure has a 3D framework
# The original CSD entry CAYYEG is in the rhombohedral crystal system
# The framework has been calculated to contain at least 10.0% void space
# The void calculation uses a probe of radius 1.32A, grid spacing 0.4
#
###############################################################################

data_CAYYEG
_chemical_formula_moiety         '(C360 H216 Mn11 N72)n'
_symmetry_cell_setting           triclinic
_symmetry_space_group_name_H-M   'P 1'
_symmetry_Int_Tables_number      1
_space_group_name_Hall           'P 1'
loop_
_symmetry_equiv_pos_site_id
_symmetry_equiv_pos_as_xyz
1 x,y,z
_cell_length_a                   33.3099(2)
_cell_length_b                   33.3099(2)
_cell_length_c                   9.3306(2)
_cell_angle_alpha                90
_cell_angle_beta                 90
_cell_angle_gamma                120
_cell_volume                     8965.75
loop_
_atom_site_label
_atom_site_type_symbol
_atom_site_fract_x
_atom_site_fract_y
_atom_site_fract_z
Mn1 Mn 0.3333 0.1666 0.1667
N2 N 0.27406(10) 0.10706(10) 0.2394(3)
C2 C 0.3426(2) 0.2594(2) 0.5030(5)
H1 H 0.3548(2) 0.2890(2) 0.5415(5)
C3 C 0.3058(2) 0.2203(2) 0.5542(5)
H2 H 0.2881(2) 0.2179(2) 0.6343(5)
C4 C 0.29919(13) 0.18285(13) 0.4608(4)
C5 C 0.26241(13) 0.13633(13) 0.4691(4)
C6 C 0.25167(12) 0.10114(13) 0.3673(4)
C8 C 0.4473(2) 0.3029(2) 0.0680(5)
H4 H 0.4656(2) 0.3343(2) 0.0872(5)
C9 C 0.41098(13) 0.26900(13) 0.1580(4)
C10 C 0.27104(13) 0.05517(13) 0.0447(4)
C16 C 0.24664(14) 0.00522(14) 0.0011(4)
H9 H 0.3865(2) 0.3494(2) 0.1998(5)
H10 H 0.4257(2) 0.4259(2) 0.2653(5)
C19 C 0.4765(2) 0.3920(2) 0.4689(5)
H11 H 0.4996(2) 0.4030(2) 0.5384(5)
C20 C 0.4544(2) 0.3453(2) 0.4355(5)
H12 H 0.4626(2) 0.3258(2) 0.4820(5)
N5 N 0.33275(10) 0.19997(10) 0.3571(3)
C21 C 0.35940(13) 0.24711(14) 0.3787(4)
N6 N 0.39261(10) 0.22627(10) 0.0939(3)
C27 C 0.39563(13) 0.27816(13) 0.2886(4)
C28 C 0.42003(14) 0.32811(14) 0.3322(4)
C29 C 0.4096(2) 0.3594(2) 0.2691(5)
C30 C 0.4334(2) 0.4056(2) 0.3092(5)
N7 N 0.46685(12) 0.42218(12) 0.4079(4)
Mn3 Mn 0.5001 0.5000 0.5000
N8 N 0.28867(17) 0.19982(12) 0.0746(4)
N9 N 0.37800(17) 0.13351(12) 0.2587(4)
C31 C 0.25569(13) 0.06433(13) 0.1753(4)
C32 C 0.2194(2) 0.0304(2) 0.2653(5)
C33 C 0.2169(2) 0.0530(2) 0.3834(5)
H15 H 0.1966(2) 0.0399(2) 0.4601(5)
C34 C 0.23059(14) 0.12358(14) 0.5962(4)
C35 C 0.2456(2) 0.1242(2) 0.7344(5)
H17 H 0.2766(2) 0.1338(2) 0.7519(5)
C36 C 0.2149(2) 0.1108(2) 0.8457(6)
N10 N 0.1708(2) 0.0976(2) 0.8314(6)
C37 C 0.1562(2) 0.0972(2) 0.7009(7)
H18 H 0.1250(2) 0.0880(2) 0.6887(7)
C38 C 0.1841(2) 0.1096(2) 0.5790(6)
H19 H 0.1718(2) 0.1085(2) 0.4886(6)
H20 H 0.2259(2) 0.1110(2) 0.9374(6)
N4 N 0.19982(12) 0.91115(12) 0.9254(4)
Mn2 Mn 0.1667 0.8334 0.8334
C39 C 0.2123(2) 0.9880(2) 0.8978(5)
C40 C 0.1902(2) 0.9413(2) 0.8644(5)
H23 H 0.1671(2) 0.9303(2) 0.7949(5)
N4_2 N 0.08885(12) 0.28867(17) 0.9254(4)
Mn2_2 Mn 0.1666 0.3334 0.8334
C39_2 C 0.0120(2) 0.2242(3) 0.8978(5)
C40_2 C 0.0587(2) 0.2488(3) 0.8644(5)
H23_2 H 0.0697(2) 0.2367(3) 0.7949(5)
Mn1_2 Mn 0.8334 0.1667 0.1667
N2_2 N 0.89294(10) 0.16700(14) 0.2394(3)
C2_2 C 0.7406(2) 0.0832(3) 0.5030(5)
H1_2 H 0.7110(2) 0.0658(3) 0.5415(5)
C3_2 C 0.7797(2) 0.0855(3) 0.5542(5)
H2_2 H 0.7821(2) 0.0702(3) 0.6343(5)
C4_2 C 0.81715(13) 0.11634(18) 0.4608(4)
C5_2 C 0.86367(13) 0.12608(18) 0.4691(4)
C6_2 C 0.89886(13) 0.15053(18) 0.3673(4)
C8_2 C 0.6971(2) 0.1444(3) 0.0680(5)
H4_2 H 0.6657(2) 0.1313(3) 0.0872(5)
C9_2 C 0.73100(13) 0.14198(18) 0.1580(4)
C10_2 C 0.94483(13) 0.21587(18) 0.0447(4)
C16_2 C 0.99478(14) 0.24142(20) 0.0011(4)
H9_2 H 0.6506(2) 0.0371(3) 0.1998(5)
C19_2 C 0.6080(2) 0.0845(3) 0.4689(5)
H11_2 H 0.5970(2) 0.0966(3) 0.5384(5)
C20_2 C 0.6547(2) 0.1091(3) 0.4355(5)
H12_2 H 0.6742(2) 0.1368(3) 0.4820(5)
N5_2 N 0.80003(10) 0.13277(14) 0.3571(3)
C21_2 C 0.75289(14) 0.11228(19) 0.3787(4)
N6_2 N 0.77373(10) 0.16633(14) 0.0939(3)
C27_2 C 0.72184(13) 0.11746(18) 0.2886(4)
C28_2 C 0.67189(14) 0.09191(20) 0.3322(4)
C29_2 C 0.6406(2) 0.0501(3) 0.2691(5)
C30_2 C 0.5944(2) 0.0277(3) 0.3092(5)
N7_2 N 0.57782(12) 0.04466(17) 0.4079(4)
Mn3_2 Mn 0.5000 0.0000 0.5000
N8_2 N 0.80018(12) 0.08885(21) 0.0746(4)
N9_2 N 0.86649(12) 0.24448(21) 0.2587(4)
C31_2 C 0.93567(13) 0.19135(18) 0.1753(4)
C32_2 C 0.9696(2) 0.1889(3) 0.2653(5)
C33_2 C 0.9470(2) 0.1638(3) 0.3834(5)
H15_2 H 0.9601(2) 0.1566(3) 0.4601(5)
C34_2 C 0.87642(14) 0.10700(20) 0.5962(4)
C35_2 C 0.8758(2) 0.1213(3) 0.7344(5)
H17_2 H 0.8662(2) 0.1427(3) 0.7519(5)
C36_2 C 0.8892(2) 0.1040(3) 0.8457(6)
N10_2 N 0.9024(2) 0.0731(3) 0.8314(6)
C37_2 C 0.9028(2) 0.0589(3) 0.7009(7)
H18_2 H 0.9120(2) 0.0369(3) 0.6887(7)
C38_2 C 0.8904(2) 0.0744(3) 0.5790(6)
H19_2 H 0.8915(2) 0.0632(3) 0.4886(6)
H20_2 H 0.8890(2) 0.1148(3) 0.9374(6)
H10_2 H 0.5741(2) 0.9998(3) 0.2653(5)
H10_3 H 0.0002(3) 0.5743(2) 0.2653(5)
Mn1_3 Mn 0.8333 0.6667 0.1667
N2_3 N 0.83300(14) 0.72594(10) 0.2394(3)
C2_3 C 0.9168(3) 0.6574(2) 0.5030(5)
H1_3 H 0.9342(3) 0.6452(2) 0.5415(5)
C3_3 C 0.9145(3) 0.6942(2) 0.5542(5)
H2_3 H 0.9298(3) 0.7119(2) 0.6343(5)
C4_3 C 0.88366(18) 0.70081(13) 0.4608(4)
C5_3 C 0.87392(18) 0.73759(13) 0.4691(4)
C6_3 C 0.84947(18) 0.74833(12) 0.3673(4)
C8_3 C 0.8556(3) 0.5527(2) 0.0680(5)
H4_3 H 0.8687(3) 0.5344(2) 0.0872(5)
C9_3 C 0.85802(18) 0.58902(13) 0.1580(4)
C10_3 C 0.78413(18) 0.72896(13) 0.0447(4)
C16_3 C 0.75858(20) 0.75336(14) 0.0011(4)
C17 C 0.7168(3) 0.7429(2) 0.0642(5)
H9_3 H 0.9629(3) 0.6135(2) 0.1998(5)
C18 C 0.6944(3) 0.7667(2) 0.0241(5)
C19_3 C 0.9155(3) 0.5235(2) 0.4689(5)
H11_3 H 0.9034(3) 0.5004(2) 0.5384(5)
C20_3 C 0.8909(3) 0.5456(2) 0.4355(5)
H12_3 H 0.8632(3) 0.5374(2) 0.4820(5)
N5_3 N 0.86723(14) 0.66725(10) 0.3571(3)
C21_3 C 0.88772(19) 0.64060(13) 0.3787(4)
N6_3 N 0.83367(14) 0.60739(10) 0.0939(3)
C27_3 C 0.88254(18) 0.60437(13) 0.2886(4)
C28_3 C 0.90809(20) 0.57997(14) 0.3322(4)
C29_3 C 0.9499(3) 0.5904(2) 0.2691(5)
C30_3 C 0.9723(3) 0.5666(2) 0.3092(5)
N7_3 N 0.95534(17) 0.53315(12) 0.4079(4)
Mn3_3 Mn 1.0000 0.4999 0.5000
N8_3 N 0.91115(21) 0.71133(17) 0.0746(4)
N9_3 N 0.75552(21) 0.62200(17) 0.2587(4)
C31_3 C 0.80865(18) 0.74431(13) 0.1753(4)
C32_3 C 0.8111(3) 0.7806(2) 0.2653(5)
C33_3 C 0.8362(3) 0.7831(2) 0.3834(5)
H15_3 H 0.8434(3) 0.8034(2) 0.4601(5)
H16 H 0.7980(3) 0.7989(2) 0.2461(5)
C34_3 C 0.89300(20) 0.76941(14) 0.5962(4)
C35_3 C 0.8787(3) 0.7544(2) 0.7344(5)
H17_3 H 0.8573(3) 0.7234(2) 0.7519(5)
C36_3 C 0.8960(3) 0.7851(2) 0.8457(6)
N10_3 N 0.9269(3) 0.8292(2) 0.8314(6)
C37_3 C 0.9411(3) 0.8438(2) 0.7009(7)
H18_3 H 0.9631(3) 0.8750(2) 0.6887(7)
C38_3 C 0.9256(3) 0.8159(2) 0.5790(6)
H19_3 H 0.9368(3) 0.8282(2) 0.4886(6)
H20_3 H 0.8852(3) 0.7741(2) 0.9374(6)
H21 H 0.7038(3) 0.7198(2) 0.1335(5)
H22 H 0.6665(3) 0.7590(2) 0.0680(5)
N1 N 0.79944(14) 0.66608(10) 0.9762(3)
N3 N 0.7398(3) 0.5041(2) 0.5019(6)
N4_3 N 0.71133(17) 0.80018(12) 0.9254(4)
C1 C 0.77895(19) 0.69273(13) 0.9546(4)
C7 C 0.8305(3) 0.5502(2) 0.9499(5)
H3 H 0.8233(3) 0.5299(2) 0.8732(5)
C11 C 0.77367(20) 0.56392(14) 0.7371(4)
C12 C 0.7880(3) 0.5789(2) 0.5989(5)
H5 H 0.8094(3) 0.6099(2) 0.5814(5)
C13 C 0.7707(3) 0.5482(2) 0.4876(6)
H6 H 0.7815(3) 0.5592(2) 0.3959(6)
C14 C 0.7256(3) 0.4895(2) 0.6324(7)
H7 H 0.7036(3) 0.4583(2) 0.6446(7)
C15 C 0.7411(3) 0.5174(2) 0.7543(6)
H8 H 0.7299(3) 0.5051(2) 0.8447(6)
Mn2_3 Mn 0.6666 0.8333 0.8334
C22 C 0.81720(18) 0.58500(12) 0.9660(4)
C23 C 0.79275(18) 0.59574(13) 0.8642(4)
C24 C 0.78301(18) 0.63252(13) 0.8725(4)
C25 C 0.7522(3) 0.6391(2) 0.7791(5)
C26 C 0.7499(3) 0.6759(2) 0.8303(5)
H13 H 0.7325(3) 0.6881(2) 0.7918(5)
H14 H 0.7369(3) 0.6214(2) 0.6990(5)
C39_3 C 0.7758(3) 0.7877(2) 0.8978(5)
C40_3 C 0.7512(3) 0.8098(2) 0.8644(5)
H23_3 H 0.7633(3) 0.8329(2) 0.7949(5)
H24 H 0.8035(3) 0.7959(2) 0.8513(5)
C19_4 C 0.8098(2) 0.0587(2) 0.1356(5)
H11_4 H 0.8329(2) 0.0697(2) 0.2051(5)
C20_4 C 0.7877(2) 0.0120(2) 0.1022(5)
N1_2 N 0.66725(10) 0.80003(10) 0.6429(3)
N2_4 N 0.60739(10) 0.77373(10) 0.9061(3)
N3_2 N 0.8292(2) 0.9024(2) 0.1686(6)
N4_4 N 0.53315(12) 0.57782(12) 0.5921(4)
C1_2 C 0.64060(13) 0.75289(14) 0.6213(4)
C7_2 C 0.7831(2) 0.9470(2) 0.6166(5)
H3_2 H 0.8034(2) 0.9601(2) 0.5399(5)
C8_4 C 0.7806(2) 0.9696(2) 0.7347(5)
C9_4 C 0.74431(13) 0.93567(13) 0.8247(4)
C10_4 C 0.60437(13) 0.72184(13) 0.7114(4)
C11_2 C 0.76941(14) 0.87642(14) 0.4038(4)
C12_2 C 0.7544(2) 0.8758(2) 0.2656(5)
H5_2 H 0.7234(2) 0.8662(2) 0.2481(5)
C13_2 C 0.7851(2) 0.8892(2) 0.1543(6)
H6_2 H 0.7741(2) 0.8890(2) 0.0626(6)
C14_2 C 0.8438(2) 0.9028(2) 0.2991(7)
H7_2 H 0.8750(2) 0.9120(2) 0.3113(7)
C15_2 C 0.8159(2) 0.8904(2) 0.4210(6)
H8_2 H 0.8282(2) 0.8915(2) 0.5114(6)
C16_4 C 0.57997(14) 0.67189(14) 0.6678(4)
C17_2 C 0.5904(2) 0.6406(2) 0.7309(5)
C18_2 C 0.5666(2) 0.5944(2) 0.6908(5)
N6_4 N 0.72594(10) 0.89294(10) 0.7606(3)
C22_2 C 0.74833(12) 0.89886(13) 0.6327(4)
C23_2 C 0.73759(13) 0.86367(13) 0.5309(4)
C24_2 C 0.70081(13) 0.81715(13) 0.5392(4)
C25_2 C 0.6942(2) 0.7797(2) 0.4458(5)
C26_2 C 0.6574(2) 0.7406(2) 0.4970(5)
H13_2 H 0.6452(2) 0.7110(2) 0.4585(5)
H14_2 H 0.7119(2) 0.7821(2) 0.3657(5)
C27_4 C 0.72896(13) 0.94483(13) 0.9553(4)
C28_4 C 0.75336(14) 0.99478(14) 0.9989(4)
N8_4 N 0.62200(17) 0.86649(12) 0.7413(4)
C31_4 C 0.58902(13) 0.73100(13) 0.8420(4)
C32_4 C 0.5527(2) 0.6971(2) 0.9320(5)
H16_2 H 0.5344(2) 0.6657(2) 0.9128(5)
C39_4 C 0.5456(2) 0.6547(2) 0.5645(5)
H21_2 H 0.6135(2) 0.6506(2) 0.8002(5)
H22_2 H 0.5743(2) 0.5741(2) 0.7347(5)
C40_4 C 0.5235(2) 0.6080(2) 0.5311(5)
H23_4 H 0.5004(2) 0.5970(2) 0.4616(5)
H24_2 H 0.5374(2) 0.6742(2) 0.5180(5)
H22_3 H 0.4259(2) 0.0002(3) 0.7347(5)
N1_3 N 0.19997(10) 0.86723(14) 0.6429(3)
N2_5 N 0.22627(10) 0.83367(14) 0.9061(3)
N3_3 N 0.0976(2) 0.9269(3) 0.1686(6)
N4_5 N 0.42218(12) 0.95534(17) 0.5921(4)
C1_3 C 0.24711(14) 0.88772(19) 0.6213(4)
C7_3 C 0.0530(2) 0.8362(3) 0.6166(5)
H3_3 H 0.0399(2) 0.8434(3) 0.5399(5)
C8_5 C 0.0304(2) 0.8111(3) 0.7347(5)
C9_5 C 0.06433(13) 0.80865(18) 0.8247(4)
C10_5 C 0.27816(13) 0.88254(18) 0.7114(4)
C11_3 C 0.12358(14) 0.89300(20) 0.4038(4)
C12_3 C 0.1242(2) 0.8787(3) 0.2656(5)
H5_3 H 0.1338(2) 0.8573(3) 0.2481(5)
C13_3 C 0.1108(2) 0.8960(3) 0.1543(6)
H6_3 H 0.1110(2) 0.8852(3) 0.0626(6)
C14_3 C 0.0972(2) 0.9411(3) 0.2991(7)
H7_3 H 0.0880(2) 0.9631(3) 0.3113(7)
C15_3 C 0.1096(2) 0.9256(3) 0.4210(6)
H8_3 H 0.1085(2) 0.9368(3) 0.5114(6)
C16_5 C 0.32811(14) 0.90809(20) 0.6678(4)
C17_3 C 0.3594(2) 0.9499(3) 0.7309(5)
C18_3 C 0.4056(2) 0.9723(3) 0.6908(5)
N6_5 N 0.10706(10) 0.83300(14) 0.7606(3)
C22_3 C 0.10114(13) 0.84947(18) 0.6327(4)
C23_3 C 0.13633(13) 0.87392(18) 0.5309(4)
C24_3 C 0.18285(13) 0.88366(18) 0.5392(4)
C25_3 C 0.2203(2) 0.9145(3) 0.4458(5)
C26_3 C 0.2594(2) 0.9168(3) 0.4970(5)
H13_3 H 0.2890(2) 0.9342(3) 0.4585(5)
H14_3 H 0.2179(2) 0.9298(3) 0.3657(5)
C27_5 C 0.05517(13) 0.78413(18) 0.9553(4)
C28_5 C 0.00522(14) 0.75858(20) 0.9989(4)
N8_5 N 0.13351(12) 0.75552(21) 0.7413(4)
C31_5 C 0.26900(13) 0.85802(18) 0.8420(4)
C32_5 C 0.3029(2) 0.8556(3) 0.9320(5)
H16_3 H 0.3343(2) 0.8687(3) 0.9128(5)
C39_5 C 0.3453(2) 0.8909(3) 0.5645(5)
H21_3 H 0.3494(2) 0.9629(3) 0.8002(5)
C40_5 C 0.3920(2) 0.9155(3) 0.5311(5)
H23_5 H 0.4030(2) 0.9034(3) 0.4616(5)
H24_3 H 0.3258(2) 0.8632(3) 0.5180(5)
C19_5 C 0.9413(2) 0.7512(3) 0.1356(5)
H11_5 H 0.9303(2) 0.7633(3) 0.2051(5)
C20_5 C 0.9880(2) 0.7758(3) 0.1022(5)
C2_4 C 0.2501(3) 0.3241(2) 0.1697(5)
H1_4 H 0.2675(3) 0.3119(2) 0.2082(5)
C3_4 C 0.2478(3) 0.3609(2) 0.2209(5)
H2_4 H 0.2631(3) 0.3786(2) 0.3010(5)
C4_4 C 0.21699(18) 0.36748(13) 0.1275(4)
C5_4 C 0.20725(18) 0.40426(13) 0.1358(4)
C6_4 C 0.18280(18) 0.41500(12) 0.0340(4)
C19_6 C 0.2488(3) 0.1902(2) 0.1356(5)
H11_6 H 0.2367(3) 0.1671(2) 0.2051(5)
C20_6 C 0.2242(3) 0.2123(2) 0.1022(5)
H12_4 H 0.1965(3) 0.2041(2) 0.1487(5)
N5_4 N 0.20056(14) 0.33392(10) 0.0238(3)
C21_4 C 0.22105(19) 0.30727(13) 0.0454(4)
C33_4 C 0.1695(3) 0.4498(2) 0.0501(5)
H15_4 H 0.1767(3) 0.4701(2) 0.1268(5)
C34_4 C 0.22633(20) 0.43608(14) 0.2629(4)
C35_4 C 0.2120(3) 0.4211(2) 0.4011(5)
H17_4 H 0.1906(3) 0.3901(2) 0.4186(5)
C36_4 C 0.2293(3) 0.4518(2) 0.5124(6)
N10_4 N 0.2602(3) 0.4959(2) 0.4981(6)
C37_4 C 0.2744(3) 0.5105(2) 0.3676(7)
H18_4 H 0.2964(3) 0.5417(2) 0.3554(7)
C38_4 C 0.2589(3) 0.4826(2) 0.2457(6)
H19_4 H 0.2701(3) 0.4949(2) 0.1553(6)
H20_4 H 0.2185(3) 0.4408(2) 0.6041(6)
N1_4 N 0.13277(14) 0.33275(10) 0.6429(3)
N2_6 N 0.16633(14) 0.39261(10) 0.9061(3)
N3_4 N 0.0731(3) 0.1708(2) 0.1686(6)
N4_6 N 0.04466(17) 0.46685(12) 0.5921(4)
C1_4 C 0.11228(19) 0.35940(13) 0.6213(4)
C7_4 C 0.1638(3) 0.2169(2) 0.6166(5)
H3_4 H 0.1566(3) 0.1966(2) 0.5399(5)
C8_6 C 0.1889(3) 0.2194(2) 0.7347(5)
H4_4 H 0.2020(3) 0.2011(2) 0.7539(5)
C9_6 C 0.19135(18) 0.25569(13) 0.8247(4)
C10_6 C 0.11746(18) 0.39563(13) 0.7114(4)
C11_4 C 0.10700(20) 0.23059(14) 0.4038(4)
C12_4 C 0.1213(3) 0.2456(2) 0.2656(5)
H5_4 H 0.1427(3) 0.2766(2) 0.2481(5)
C13_4 C 0.1040(3) 0.2149(2) 0.1543(6)
H6_4 H 0.1148(3) 0.2259(2) 0.0626(6)
C14_4 C 0.0589(3) 0.1562(2) 0.2991(7)
H7_4 H 0.0369(3) 0.1250(2) 0.3113(7)
C15_4 C 0.0744(3) 0.1841(2) 0.4210(6)
H8_4 H 0.0632(3) 0.1718(2) 0.5114(6)
C16_6 C 0.09191(20) 0.42003(14) 0.6678(4)
C17_4 C 0.0501(3) 0.4096(2) 0.7309(5)
H9_4 H 0.2962(3) 0.2802(2) 0.8665(5)
C18_4 C 0.0277(3) 0.4334(2) 0.6908(5)
H10_4 H 0.3335(3) 0.2410(2) 0.9320(5)
N6_6 N 0.16700(14) 0.27406(10) 0.7606(3)
C22_4 C 0.15053(18) 0.25167(12) 0.6327(4)
C23_4 C 0.12608(18) 0.26241(13) 0.5309(4)
C24_4 C 0.11634(18) 0.29919(13) 0.5392(4)
C25_4 C 0.0855(3) 0.3058(2) 0.4458(5)
C26_4 C 0.0832(3) 0.3426(2) 0.4970(5)
H13_4 H 0.0658(3) 0.3548(2) 0.4585(5)
H14_4 H 0.0702(3) 0.2881(2) 0.3657(5)
C27_6 C 0.21587(18) 0.27104(13) 0.9553(4)
C28_6 C 0.24142(20) 0.24664(14) 0.9989(4)
C29_4 C 0.2832(3) 0.2571(2) 0.9358(5)
C30_4 C 0.3056(3) 0.2333(2) 0.9759(5)
N8_6 N 0.24448(21) 0.37800(17) 0.7413(4)
C31_6 C 0.14198(18) 0.41098(13) 0.8420(4)
C32_6 C 0.1444(3) 0.4473(2) 0.9320(5)
H16_4 H 0.1313(3) 0.4656(2) 0.9128(5)
C39_6 C 0.1091(3) 0.4544(2) 0.5645(5)
H21_4 H 0.0371(3) 0.3865(2) 0.8002(5)
C40_6 C 0.0845(3) 0.4765(2) 0.5311(5)
H23_6 H 0.0966(3) 0.4996(2) 0.4616(5)
H24_4 H 0.1368(3) 0.4626(2) 0.5180(5)
H22_4 H 0.9998(3) 0.4257(2) 0.7347(5)
N1_5 N 0.00059(10) 0.46669(10) 0.3095(3)
C2_5 C 0.0093(2) 0.5927(2) 0.8363(5)
H1_5 H 0.0215(2) 0.6223(2) 0.8748(5)
C7_5 C 0.1165(2) 0.6136(2) 0.2832(5)
H3_5 H 0.1368(2) 0.6267(2) 0.2065(5)
C8_7 C 0.1140(2) 0.6362(2) 0.4013(5)
H4_5 H 0.1323(2) 0.6676(2) 0.4205(5)
C9_7 C 0.07765(13) 0.60233(13) 0.4913(4)
C11_5 C 0.10275(14) 0.54308(14) 0.0704(4)
C15_5 C 0.1493(2) 0.5570(2) 0.0876(6)
H8_5 H 0.1616(2) 0.5581(2) 0.1780(6)
H9_5 H 0.0532(2) 0.6827(2) 0.5331(5)
H10_5 H 0.0924(2) 0.7592(2) 0.5986(5)
C19_7 C 0.1432(2) 0.7253(2) 0.8022(5)
H11_7 H 0.1663(2) 0.7363(2) 0.8717(5)
C20_7 C 0.1211(2) 0.6786(2) 0.7688(5)
H12_5 H 0.1293(2) 0.6591(2) 0.8153(5)
C21_5 C 0.02606(13) 0.58045(14) 0.7121(4)
N6_7 N 0.05927(10) 0.55961(10) 0.4273(3)
C22_5 C 0.08166(12) 0.56553(13) 0.2994(4)
C23_5 C 0.07092(13) 0.53034(13) 0.1976(4)
C24_5 C 0.03414(13) 0.48382(13) 0.2059(4)
C25_5 C 0.0275(2) 0.4464(2) 0.1125(5)
H14_5 H 0.0452(2) 0.4488(2) 0.0324(5)
C27_7 C 0.06229(13) 0.61150(13) 0.6220(4)
C28_7 C 0.08669(14) 0.66145(14) 0.6656(4)
C29_5 C 0.0762(2) 0.6928(2) 0.6025(5)
C30_5 C 0.1000(2) 0.7390(2) 0.6426(5)
N2_7 N 0.94073(10) 0.44039(10) 0.5727(3)
C1_5 C 0.97394(13) 0.41955(14) 0.2879(4)
C3_5 C 0.9725(2) 0.5536(2) 0.8875(5)
H2_5 H 0.9548(2) 0.5512(2) 0.9676(5)
C4_5 C 0.96586(13) 0.51618(13) 0.7941(4)
C5_5 C 0.92908(13) 0.46966(13) 0.8024(4)
C6_5 C 0.91834(12) 0.43447(13) 0.7006(4)
C10_7 C 0.93771(13) 0.38850(13) 0.3780(4)
C16_7 C 0.91331(14) 0.33855(14) 0.3344(4)
C17_5 C 0.9238(2) 0.3072(2) 0.3975(5)
C18_5 C 0.9000(2) 0.2610(2) 0.3574(5)
N5_5 N 0.99941(10) 0.53331(10) 0.6905(3)
C26_5 C 0.9907(2) 0.4073(2) 0.1637(5)
H13_5 H 0.9785(2) 0.3777(2) 0.1252(5)
C31_7 C 0.92235(13) 0.39767(13) 0.5087(4)
C32_7 C 0.8860(2) 0.3638(2) 0.5987(5)
C33_5 C 0.8835(2) 0.3864(2) 0.7168(5)
H15_5 H 0.8632(2) 0.3733(2) 0.7935(5)
H16_5 H 0.8677(2) 0.3324(2) 0.5795(5)
C34_5 C 0.89725(14) 0.45692(14) 0.9296(4)
C38_5 C 0.8507(2) 0.4430(2) 0.9124(6)
H19_5 H 0.8384(2) 0.4419(2) 0.8220(6)
C39_7 C 0.8789(2) 0.3214(2) 0.2312(5)
H21_5 H 0.9468(2) 0.3173(2) 0.4669(5)
H22_5 H 0.9076(2) 0.2408(2) 0.4014(5)
C40_7 C 0.8568(2) 0.2747(2) 0.1978(5)
H23_7 H 0.8337(2) 0.2637(2) 0.1283(5)
H24_5 H 0.8707(2) 0.3409(2) 0.1847(5)
N1_6 N 0.53331(10) 0.53389(14) 0.3095(3)
N2_8 N 0.55961(10) 0.50033(14) 0.5727(3)
C1_6 C 0.58045(14) 0.55438(19) 0.2879(4)
C2_6 C 0.4073(2) 0.4165(3) 0.8363(5)
H1_6 H 0.3777(2) 0.3991(3) 0.8748(5)
C3_6 C 0.4464(2) 0.4188(3) 0.8875(5)
H2_6 H 0.4488(2) 0.4035(3) 0.9676(5)
C4_6 C 0.48382(13) 0.44967(18) 0.7941(4)
C5_6 C 0.53034(13) 0.45941(18) 0.8024(4)
C6_6 C 0.56553(13) 0.48386(18) 0.7006(4)
C7_6 C 0.3864(2) 0.5028(3) 0.2832(5)
H3_6 H 0.3733(2) 0.5100(3) 0.2065(5)
C8_8 C 0.3638(2) 0.4777(3) 0.4013(5)
H4_6 H 0.3324(2) 0.4646(3) 0.4205(5)
C9_8 C 0.39767(13) 0.47531(18) 0.4913(4)
C10_8 C 0.61150(13) 0.54920(18) 0.3780(4)
C11_6 C 0.45692(14) 0.55966(20) 0.0704(4)
C15_6 C 0.4430(2) 0.5922(3) 0.0876(6)
H8_6 H 0.4419(2) 0.6034(3) 0.1780(6)
C16_8 C 0.66145(14) 0.57475(20) 0.3344(4)
C17_6 C 0.6928(2) 0.6165(3) 0.3975(5)
H9_6 H 0.3173(2) 0.3704(3) 0.5331(5)
C18_6 C 0.7390(2) 0.6389(3) 0.3574(5)
H10_6 H 0.2408(2) 0.3331(3) 0.5986(5)
C19_8 C 0.2747(2) 0.4178(3) 0.8022(5)
H11_8 H 0.2637(2) 0.4299(3) 0.8717(5)
C20_8 C 0.3214(2) 0.4424(3) 0.7688(5)
H12_6 H 0.3409(2) 0.4701(3) 0.8153(5)
N5_6 N 0.46669(10) 0.46611(14) 0.6905(3)
C21_6 C 0.41955(14) 0.44562(19) 0.7121(4)
N6_8 N 0.44039(10) 0.49967(14) 0.4273(3)
C22_6 C 0.43447(13) 0.51614(18) 0.2994(4)
C23_6 C 0.46966(13) 0.54059(18) 0.1976(4)
C24_6 C 0.51618(13) 0.55033(18) 0.2059(4)
C25_6 C 0.5536(2) 0.5812(3) 0.1125(5)
C26_6 C 0.5927(2) 0.5835(3) 0.1637(5)
H13_6 H 0.6223(2) 0.6009(3) 0.1252(5)
H14_6 H 0.5512(2) 0.5965(3) 0.0324(5)
C27_8 C 0.38850(13) 0.45080(18) 0.6220(4)
C28_8 C 0.33855(14) 0.42525(20) 0.6656(4)
C29_6 C 0.3072(2) 0.3835(3) 0.6025(5)
C30_6 C 0.2610(2) 0.3611(3) 0.6426(5)
C31_8 C 0.60233(13) 0.52469(18) 0.5087(4)
C32_8 C 0.6362(2) 0.5223(3) 0.5987(5)
C33_6 C 0.6136(2) 0.4972(3) 0.7168(5)
H15_6 H 0.6267(2) 0.4900(3) 0.7935(5)
H16_6 H 0.6676(2) 0.5354(3) 0.5795(5)
C34_6 C 0.54308(14) 0.44034(20) 0.9296(4)
C38_6 C 0.5570(2) 0.4078(3) 0.9124(6)
H19_6 H 0.5581(2) 0.3966(3) 0.8220(6)
C39_8 C 0.6786(2) 0.5576(3) 0.2312(5)
H21_6 H 0.6827(2) 0.6296(3) 0.4669(5)
H22_6 H 0.7592(2) 0.6669(3) 0.4014(5)
C40_8 C 0.7253(2) 0.5822(3) 0.1978(5)
H23_8 H 0.7363(2) 0.5701(3) 0.1283(5)
H24_6 H 0.6591(2) 0.5299(3) 0.1847(5)
N2_9 N 0.49967(14) 0.05927(10) 0.5727(3)
C1_7 C 0.44562(19) 0.02606(13) 0.2879(4)
C3_7 C 0.5812(3) 0.0275(2) 0.8875(5)
H2_7 H 0.5965(3) 0.0452(2) 0.9676(5)
C4_7 C 0.55033(18) 0.03414(13) 0.7941(4)
C5_7 C 0.54059(18) 0.07092(13) 0.8024(4)
C6_7 C 0.51614(18) 0.08166(12) 0.7006(4)
C10_9 C 0.45080(18) 0.06229(13) 0.3780(4)
C16_9 C 0.42525(20) 0.08669(14) 0.3344(4)
C17_7 C 0.3835(3) 0.0762(2) 0.3975(5)
C18_7 C 0.3611(3) 0.1000(2) 0.3574(5)
N5_7 N 0.53389(14) 0.00059(10) 0.6905(3)
C26_7 C 0.4165(3) 0.0093(2) 0.1637(5)
H13_7 H 0.3991(3) 0.0215(2) 0.1252(5)
C31_9 C 0.47531(18) 0.07765(13) 0.5087(4)
C32_9 C 0.4777(3) 0.1140(2) 0.5987(5)
C33_7 C 0.5028(3) 0.1165(2) 0.7168(5)
H15_7 H 0.5100(3) 0.1368(2) 0.7935(5)
H16_7 H 0.4646(3) 0.1323(2) 0.5795(5)
C34_7 C 0.55966(20) 0.10275(14) 0.9296(4)
C38_7 C 0.5922(3) 0.1493(2) 0.9124(6)
H19_7 H 0.6034(3) 0.1616(2) 0.8220(6)
C39_9 C 0.4424(3) 0.1211(2) 0.2312(5)
H21_7 H 0.3704(3) 0.0532(2) 0.4669(5)
H22_7 H 0.3331(3) 0.0924(2) 0.4014(5)
C40_9 C 0.4178(3) 0.1432(2) 0.1978(5)
H23_9 H 0.4299(3) 0.1663(2) 0.1283(5)
H24_7 H 0.4701(3) 0.1293(2) 0.1847(5)
N1_7 N 0.46611(14) 0.99941(10) 0.3095(3)
C2_7 C 0.5835(3) 0.9907(2) 0.8363(5)
H1_7 H 0.6009(3) 0.9785(2) 0.8748(5)
C7_7 C 0.4972(3) 0.8835(2) 0.2832(5)
H3_7 H 0.4900(3) 0.8632(2) 0.2065(5)
C8_9 C 0.5223(3) 0.8860(2) 0.4013(5)
H4_7 H 0.5354(3) 0.8677(2) 0.4205(5)
C9_9 C 0.52469(18) 0.92235(13) 0.4913(4)
C11_7 C 0.44034(20) 0.89725(14) 0.0704(4)
C15_7 C 0.4078(3) 0.8507(2) 0.0876(6)
H8_7 H 0.3966(3) 0.8384(2) 0.1780(6)
H9_7 H 0.6296(3) 0.9468(2) 0.5331(5)
H10_7 H 0.6669(3) 0.9076(2) 0.5986(5)
C19_9 C 0.5822(3) 0.8568(2) 0.8022(5)
H11_9 H 0.5701(3) 0.8337(2) 0.8717(5)
C20_9 C 0.5576(3) 0.8789(2) 0.7688(5)
H12_7 H 0.5299(3) 0.8707(2) 0.8153(5)
C21_7 C 0.55438(19) 0.97394(13) 0.7121(4)
N6_9 N 0.50033(14) 0.94073(10) 0.4273(3)
C22_7 C 0.48386(18) 0.91834(12) 0.2994(4)
C23_7 C 0.45941(18) 0.92908(13) 0.1976(4)
C24_7 C 0.44967(18) 0.96586(13) 0.2059(4)
C25_7 C 0.4188(3) 0.9725(2) 0.1125(5)
H14_7 H 0.4035(3) 0.9548(2) 0.0324(5)
C27_9 C 0.54920(18) 0.93771(13) 0.6220(4)
C28_9 C 0.57475(20) 0.91331(14) 0.6656(4)
C29_7 C 0.6165(3) 0.9238(2) 0.6025(5)
C30_7 C 0.6389(3) 0.9000(2) 0.6426(5)
Mn3_4 Mn 0.5000 1.0000 0.5000
Mn3_5 Mn 0.0000 0.5001 0.5000
N1_8 N 0.33392(10) 0.13336(10) 0.9762(3)
N3_5 N 0.4959(2) 0.2357(2) 0.5019(6)
C1_8 C 0.30727(13) 0.08622(14) 0.9546(4)
C7_8 C 0.4498(2) 0.2803(2) 0.9499(5)
H3_8 H 0.4701(2) 0.2934(2) 0.8732(5)
C11_8 C 0.43608(14) 0.20975(14) 0.7371(4)
C12_5 C 0.4211(2) 0.2091(2) 0.5989(5)
H5_5 H 0.3901(2) 0.1995(2) 0.5814(5)
C13_5 C 0.4518(2) 0.2225(2) 0.4876(6)
H6_5 H 0.4408(2) 0.2223(2) 0.3959(6)
C14_5 C 0.5105(2) 0.2361(2) 0.6324(7)
H7_5 H 0.5417(2) 0.2453(2) 0.6446(7)
C15_8 C 0.4826(2) 0.2237(2) 0.7543(6)
H8_8 H 0.4949(2) 0.2248(2) 0.8447(6)
C22_8 C 0.41500(12) 0.23219(13) 0.9660(4)
C23_8 C 0.40426(13) 0.19700(13) 0.8642(4)
C24_8 C 0.36748(13) 0.15048(13) 0.8725(4)
C25_8 C 0.3609(2) 0.1130(2) 0.7791(5)
C26_8 C 0.3241(2) 0.0739(2) 0.8303(5)
H13_8 H 0.3119(2) 0.0443(2) 0.7918(5)
H14_8 H 0.3786(2) 0.1154(2) 0.6990(5)
H24_8 H 0.2041(2) 0.0075(2) 0.8513(5)
C17_8 C 0.2571(2) 0.9739(2) 0.0642(5)
C18_8 C 0.2333(2) 0.9277(2) 0.0241(5)
H16_8 H 0.2011(2) 0.9990(2) 0.2461(5)
H21_8 H 0.2802(2) 0.9839(2) 0.1335(5)
H22_8 H 0.2410(2) 0.9074(2) 0.0680(5)
C17_9 C 0.0261(2) 0.2832(3) 0.0642(5)
C18_9 C 0.0723(2) 0.3056(3) 0.0241(5)
H16_9 H 0.0010(2) 0.2020(3) 0.2461(5)
H21_9 H 0.0161(2) 0.2962(3) 0.1335(5)
H22_9 H 0.0926(2) 0.3335(3) 0.0680(5)
N1_9 N 0.86664(10) 0.20056(14) 0.9762(3)
N3_6 N 0.7643(2) 0.2602(3) 0.5019(6)
C1_9 C 0.91378(14) 0.22105(19) 0.9546(4)
C7_9 C 0.7197(2) 0.1695(3) 0.9499(5)
H3_9 H 0.7066(2) 0.1767(3) 0.8732(5)
C11_9 C 0.79025(14) 0.22633(20) 0.7371(4)
C12_6 C 0.7909(2) 0.2120(3) 0.5989(5)
H5_6 H 0.8005(2) 0.1906(3) 0.5814(5)
C13_6 C 0.7775(2) 0.2293(3) 0.4876(6)
H6_6 H 0.7777(2) 0.2185(3) 0.3959(6)
C14_6 C 0.7639(2) 0.2744(3) 0.6324(7)
H7_6 H 0.7547(2) 0.2964(3) 0.6446(7)
C15_9 C 0.7763(2) 0.2589(3) 0.7543(6)
H8_9 H 0.7752(2) 0.2701(3) 0.8447(6)
C22_9 C 0.76781(13) 0.18280(18) 0.9660(4)
C23_9 C 0.80300(13) 0.20725(18) 0.8642(4)
C24_9 C 0.84952(13) 0.21699(18) 0.8725(4)
C25_9 C 0.8870(2) 0.2478(3) 0.7791(5)
C26_9 C 0.9261(2) 0.2501(3) 0.8303(5)
H13_9 H 0.9557(2) 0.2675(3) 0.7918(5)
H14_9 H 0.8846(2) 0.2631(3) 0.6990(5)
H24_9 H 0.9925(2) 0.1965(3) 0.8513(5)
H4_8 H 0.7989(2) 0.0010(2) 0.7539(5)
H9_8 H 0.7198(2) 0.0161(2) 0.8665(5)
H10_8 H 0.7590(2) 0.0926(2) 0.9320(5)
C29_8 C 0.7429(2) 0.0261(2) 0.9358(5)
C30_8 C 0.7667(2) 0.0723(2) 0.9759(5)
C2_8 C 0.6759(2) 0.9261(2) 0.1697(5)
H1_8 H 0.6881(2) 0.9557(2) 0.2082(5)
C3_8 C 0.6391(2) 0.8870(2) 0.2209(5)
H2_8 H 0.6214(2) 0.8846(2) 0.3010(5)
C4_8 C 0.63252(13) 0.84952(13) 0.1275(4)
C5_8 C 0.59574(13) 0.80300(13) 0.1358(4)
C6_8 C 0.58500(12) 0.76781(13) 0.0340(4)
H12_8 H 0.7959(2) 0.9925(2) 0.1487(5)
N5_8 N 0.66608(10) 0.86664(10) 0.0238(3)
C21_8 C 0.69273(13) 0.91378(14) 0.0454(4)
C33_8 C 0.5502(2) 0.7197(2) 0.0501(5)
H15_8 H 0.5299(2) 0.7066(2) 0.1268(5)
C34_8 C 0.56392(14) 0.79025(14) 0.2629(4)
C35_5 C 0.5789(2) 0.7909(2) 0.4011(5)
H17_5 H 0.6099(2) 0.8005(2) 0.4186(5)
C36_5 C 0.5482(2) 0.7775(2) 0.5124(6)
N10_5 N 0.5041(2) 0.7643(2) 0.4981(6)
C37_5 C 0.4895(2) 0.7639(2) 0.3676(7)
H18_5 H 0.4583(2) 0.7547(2) 0.3554(7)
C38_8 C 0.5174(2) 0.7763(2) 0.2457(6)
H19_8 H 0.5051(2) 0.7752(2) 0.1553(6)
H20_5 H 0.5592(2) 0.7777(2) 0.6041(6)
C2_9 C 0.0739(2) 0.7499(3) 0.1697(5)
H1_9 H 0.0443(2) 0.7325(3) 0.2082(5)
C3_9 C 0.1130(2) 0.7522(3) 0.2209(5)
H2_9 H 0.1154(2) 0.7369(3) 0.3010(5)
C4_9 C 0.15048(13) 0.78301(18) 0.1275(4)
C5_9 C 0.19700(13) 0.79275(18) 0.1358(4)
C6_9 C 0.23219(13) 0.81720(18) 0.0340(4)
H12_9 H 0.0075(2) 0.8035(3) 0.1487(5)
N5_9 N 0.13336(10) 0.79944(14) 0.0238(3)
C21_9 C 0.08622(14) 0.77895(19) 0.0454(4)
C33_9 C 0.2803(2) 0.8305(3) 0.0501(5)
H15_9 H 0.2934(2) 0.8233(3) 0.1268(5)
C34_9 C 0.20975(14) 0.77367(20) 0.2629(4)
C35_6 C 0.2091(2) 0.7880(3) 0.4011(5)
H17_6 H 0.1995(2) 0.8094(3) 0.4186(5)
C36_6 C 0.2225(2) 0.7707(3) 0.5124(6)
N10_6 N 0.2357(2) 0.7398(3) 0.4981(6)
C37_6 C 0.2361(2) 0.7256(3) 0.3676(7)
H18_6 H 0.2453(2) 0.7036(3) 0.3554(7)
C38_9 C 0.2237(2) 0.7411(3) 0.2457(6)
H19_9 H 0.2248(2) 0.7299(3) 0.1553(6)
H20_6 H 0.2223(2) 0.7815(3) 0.6041(6)
H4_9 H 0.9990(2) 0.7980(3) 0.7539(5)
H9_9 H 0.9839(2) 0.7038(3) 0.8665(5)
H10_9 H 0.9074(2) 0.6665(3) 0.9320(5)
C29_9 C 0.9739(2) 0.7168(3) 0.9358(5)
C30_9 C 0.9277(2) 0.6944(3) 0.9759(5)
N3_7 N 0.1626(2) 0.5690(2) 0.8352(6)
C12_7 C 0.0878(2) 0.5424(2) 0.9322(5)
H5_7 H 0.0568(2) 0.5328(2) 0.9147(5)
C13_7 C 0.1185(2) 0.5558(2) 0.8209(6)
H6_7 H 0.1075(2) 0.5556(2) 0.7292(6)
C14_7 C 0.1772(2) 0.5694(2) 0.9657(7)
H7_7 H 0.2084(2) 0.5786(2) 0.9779(7)
C35_7 C 0.9122(2) 0.4576(2) 0.0678(5)
H17_7 H 0.9432(2) 0.4672(2) 0.0853(5)
C36_7 C 0.8815(2) 0.4442(2) 0.1791(6)
N10_7 N 0.8374(2) 0.4310(2) 0.1648(6)
C37_7 C 0.8228(2) 0.4306(2) 0.0343(7)
H18_7 H 0.7916(2) 0.4214(2) 0.0221(7)
H20_7 H 0.8925(2) 0.4444(2) 0.2708(6)
C35_8 C 0.5424(2) 0.4547(3) 0.0678(5)
H17_8 H 0.5328(2) 0.4761(3) 0.0853(5)
C36_8 C 0.5558(2) 0.4374(3) 0.1791(6)
N10_8 N 0.5690(2) 0.4065(3) 0.1648(6)
C37_8 C 0.5694(2) 0.3923(3) 0.0343(7)
H18_8 H 0.5786(2) 0.3703(3) 0.0221(7)
H20_8 H 0.5556(2) 0.4482(3) 0.2708(6)
N3_8 N 0.4310(2) 0.5935(3) 0.8352(6)
C12_8 C 0.4576(2) 0.5453(3) 0.9322(5)
H5_8 H 0.4672(2) 0.5239(3) 0.9147(5)
C13_8 C 0.4442(2) 0.5626(3) 0.8209(6)
H6_8 H 0.4444(2) 0.5518(3) 0.7292(6)
C14_8 C 0.4306(2) 0.6077(3) 0.9657(7)
H7_8 H 0.4214(2) 0.6297(3) 0.9779(7)
C35_9 C 0.5453(3) 0.0878(2) 0.0678(5)
H17_9 H 0.5239(3) 0.0568(2) 0.0853(5)
C36_9 C 0.5626(3) 0.1185(2) 0.1791(6)
N10_9 N 0.5935(3) 0.1626(2) 0.1648(6)
C37_9 C 0.6077(3) 0.1772(2) 0.0343(7)
H18_9 H 0.6297(3) 0.2084(2) 0.0221(7)
H20_9 H 0.5518(3) 0.1075(2) 0.2708(6)
N3_9 N 0.4065(3) 0.8374(2) 0.8352(6)
C12_9 C 0.4547(3) 0.9122(2) 0.9322(5)
H5_9 H 0.4761(3) 0.9432(2) 0.9147(5)
C13_9 C 0.4374(3) 0.8815(2) 0.8209(6)
H6_9 H 0.4482(3) 0.8925(2) 0.7292(6)
C14_9 C 0.3923(3) 0.8228(2) 0.9657(7)
H7_9 H 0.3703(3) 0.7916(2) 0.9779(7)
loop_
_geom_bond_atom_site_label_1
_geom_bond_atom_site_label_2
_geom_bond_site_symmetry_1
_geom_bond_site_symmetry_2
N2 Mn1 1_555 1_555
C2 H1 1_555 1_555
C3 C2 1_555 1_555
H2 C3 1_555 1_555
C4 C3 1_555 1_555
C5 C4 1_555 1_555
C6 N2 1_555 1_555
H4 C8 1_555 1_555
C9 C8 1_555 1_555
C10 C16 1_555 1_555
H9 C29 1_555 1_555
H10 C30 1_555 1_555
C19 H11 1_555 1_555
C20 C19 1_555 1_555
H12 C20 1_555 1_555
N5 Mn1 1_555 1_555
C21 C2 1_555 1_555
N6 Mn1 1_555 1_555
C27 C9 1_555 1_555
C28 C20 1_555 1_555
C29 C28 1_555 1_555
C30 C29 1_555 1_555
N7 C19 1_555 1_555
Mn3 N7 1_555 1_555
N8 Mn1 1_555 1_555
N9 Mn1 1_555 1_555
C31 N2 1_555 1_555
C32 C31 1_555 1_555
C33 C6 1_555 1_555
H15 C33 1_555 1_555
C34 C5 1_555 1_555
C35 C34 1_555 1_555
H17 C35 1_555 1_555
C36 C35 1_555 1_555
N10 C36 1_555 1_555
C37 N10 1_555 1_555
H18 C37 1_555 1_555
C38 C34 1_555 1_555
H19 C38 1_555 1_555
H20 C36 1_555 1_555
C4 N5 1_555 1_555
C5 C6 1_555 1_555
C9 N6 1_555 1_555
C10 C31 1_555 1_555
N5 C21 1_555 1_555
C21 C27 1_555 1_555
C27 C28 1_555 1_555
C30 N7 1_555 1_555
C32 C33 1_555 1_555
C37 C38 1_555 1_555
Mn2 N4 1_555 1_555
C40 N4 1_555 1_555
H23 C40 1_555 1_555
C39 C40 1_555 1_555
Mn2_2 N4_2 1_555 1_555
C40_2 N4_2 1_555 1_555
H23_2 C40_2 1_555 1_555
C39_2 C40_2 1_555 1_555
N2_2 Mn1_2 1_555 1_555
C2_2 H1_2 1_555 1_555
C3_2 C2_2 1_555 1_555
H2_2 C3_2 1_555 1_555
C4_2 C3_2 1_555 1_555
C5_2 C4_2 1_555 1_555
C6_2 N2_2 1_555 1_555
H4_2 C8_2 1_555 1_555
C9_2 C8_2 1_555 1_555
C10_2 C16_2 1_555 1_555
H9_2 C29_2 1_555 1_555
C19_2 H11_2 1_555 1_555
C20_2 C19_2 1_555 1_555
H12_2 C20_2 1_555 1_555
N5_2 Mn1_2 1_555 1_555
C21_2 C2_2 1_555 1_555
N6_2 Mn1_2 1_555 1_555
C27_2 C9_2 1_555 1_555
C28_2 C20_2 1_555 1_555
C29_2 C28_2 1_555 1_555
C30_2 C29_2 1_555 1_555
N7_2 C19_2 1_555 1_555
Mn3_2 N7_2 1_555 1_555
N8_2 Mn1_2 1_555 1_555
N9_2 Mn1_2 1_555 1_555
C31_2 N2_2 1_555 1_555
C32_2 C31_2 1_555 1_555
C33_2 C6_2 1_555 1_555
H15_2 C33_2 1_555 1_555
C34_2 C5_2 1_555 1_555
C35_2 C34_2 1_555 1_555
H17_2 C35_2 1_555 1_555
C36_2 C35_2 1_555 1_555
N10_2 C36_2 1_555 1_555
C37_2 N10_2 1_555 1_555
H18_2 C37_2 1_555 1_555
C38_2 C34_2 1_555 1_555
H19_2 C38_2 1_555 1_555
H20_2 C36_2 1_555 1_555
C4_2 N5_2 1_555 1_555
C5_2 C6_2 1_555 1_555
C9_2 N6_2 1_555 1_555
C10_2 C31_2 1_555 1_555
N5_2 C21_2 1_555 1_555
C21_2 C27_2 1_555 1_555
C27_2 C28_2 1_555 1_555
C30_2 N7_2 1_555 1_555
C32_2 C33_2 1_555 1_555
C37_2 C38_2 1_555 1_555
N2_3 Mn1_3 1_555 1_555
C2_3 H1_3 1_555 1_555
C3_3 C2_3 1_555 1_555
H2_3 C3_3 1_555 1_555
C4_3 C3_3 1_555 1_555
C5_3 C4_3 1_555 1_555
C6_3 N2_3 1_555 1_555
H4_3 C8_3 1_555 1_555
C9_3 C8_3 1_555 1_555
C10_3 C16_3 1_555 1_555
C16_3 C17 1_555 1_555
C17 C18 1_555 1_555
H9_3 C29_3 1_555 1_555
C18 H22 1_555 1_555
C19_3 H11_3 1_555 1_555
C20_3 C19_3 1_555 1_555
H12_3 C20_3 1_555 1_555
N5_3 Mn1_3 1_555 1_555
C21_3 C2_3 1_555 1_555
N6_3 Mn1_3 1_555 1_555
C27_3 C9_3 1_555 1_555
C28_3 C20_3 1_555 1_555
C29_3 C28_3 1_555 1_555
C30_3 C29_3 1_555 1_555
N7_3 C19_3 1_555 1_555
Mn3_3 N7_3 1_555 1_555
N8_3 Mn1_3 1_555 1_555
N9_3 Mn1_3 1_555 1_555
C31_3 N2_3 1_555 1_555
C32_3 C31_3 1_555 1_555
C33_3 C6_3 1_555 1_555
H15_3 C33_3 1_555 1_555
H16 C32_3 1_555 1_555
C34_3 C5_3 1_555 1_555
C35_3 C34_3 1_555 1_555
H17_3 C35_3 1_555 1_555
C36_3 C35_3 1_555 1_555
N10_3 C36_3 1_555 1_555
C37_3 N10_3 1_555 1_555
H18_3 C37_3 1_555 1_555
C38_3 C34_3 1_555 1_555
H19_3 C38_3 1_555 1_555
H20_3 C36_3 1_555 1_555
H21 C17 1_555 1_555
C4_3 N5_3 1_555 1_555
C5_3 C6_3 1_555 1_555
C9_3 N6_3 1_555 1_555
C10_3 C31_3 1_555 1_555
N5_3 C21_3 1_555 1_555
C21_3 C27_3 1_555 1_555
C27_3 C28_3 1_555 1_555
C30_3 N7_3 1_555 1_555
C32_3 C33_3 1_555 1_555
C37_3 C38_3 1_555 1_555
N1 C1 1_555 1_555
N3 C13 1_555 1_555
C7 H3 1_555 1_555
C11 C12 1_555 1_555
C12 H5 1_555 1_555
C13 C12 1_555 1_555
H6 C13 1_555 1_555
C14 N3 1_555 1_555
H7 C14 1_555 1_555
C15 C11 1_555 1_555
H8 C15 1_555 1_555
Mn2_3 N4_3 1_555 1_555
C22 C7 1_555 1_555
C23 C11 1_555 1_555
C24 N1 1_555 1_555
C25 C24 1_555 1_555
C26 C1 1_555 1_555
H13 C26 1_555 1_555
H14 C25 1_555 1_555
C40_3 N4_3 1_555 1_555
H23_3 C40_3 1_555 1_555
H24 C39_3 1_555 1_555
C14 C15 1_555 1_555
C22 C23 1_555 1_555
C23 C24 1_555 1_555
C25 C26 1_555 1_555
C39_3 C40_3 1_555 1_555
C19_4 H11_4 1_555 1_555
C20_4 C19_4 1_555 1_555
N8_2 C19_4 1_555 1_555
Mn2_3 N1_2 1_555 1_555
N1_2 C1_2 1_555 1_555
N2_4 Mn2_3 1_555 1_555
N3_2 C13_2 1_555 1_555
N4_4 C18_2 1_555 1_555
C1_2 C10_4 1_555 1_555
C7_2 H3_2 1_555 1_555
C8_4 C7_2 1_555 1_555
C9_4 C8_4 1_555 1_555
C10_4 C16_4 1_555 1_555
C11_2 C12_2 1_555 1_555
C12_2 H5_2 1_555 1_555
C13_2 C12_2 1_555 1_555
H6_2 C13_2 1_555 1_555
C14_2 N3_2 1_555 1_555
H7_2 C14_2 1_555 1_555
C15_2 C11_2 1_555 1_555
H8_2 C15_2 1_555 1_555
C16_4 C17_2 1_555 1_555
C17_2 C18_2 1_555 1_555
C18_2 H22_2 1_555 1_555
Mn3 N4_4 1_555 1_555
N6_4 Mn2_3 1_555 1_555
C22_2 C7_2 1_555 1_555
C23_2 C11_2 1_555 1_555
C24_2 N1_2 1_555 1_555
C25_2 C24_2 1_555 1_555
C26_2 C1_2 1_555 1_555
H13_2 C26_2 1_555 1_555
H14_2 C25_2 1_555 1_555
C27_4 C9_4 1_555 1_555
N8_4 Mn2_3 1_555 1_555
C31_4 N2_4 1_555 1_555
C32_4 C31_4 1_555 1_555
H16_2 C32_4 1_555 1_555
C39_4 C16_4 1_555 1_555
H21_2 C17_2 1_555 1_555
C40_4 N4_4 1_555 1_555
H23_4 C40_4 1_555 1_555
H24_2 C39_4 1_555 1_555
C9_4 N6_4 1_555 1_555
C10_4 C31_4 1_555 1_555
C14_2 C15_2 1_555 1_555
N6_4 C22_2 1_555 1_555
C22_2 C23_2 1_555 1_555
C23_2 C24_2 1_555 1_555
C25_2 C26_2 1_555 1_555
C27_4 C28_4 1_555 1_555
C39_4 C40_4 1_555 1_555
Mn2 N1_3 1_555 1_555
N1_3 C1_3 1_555 1_555
N2_5 Mn2 1_555 1_555
N3_3 C13_3 1_555 1_555
N4_5 C18_3 1_555 1_555
C1_3 C10_5 1_555 1_555
C7_3 H3_3 1_555 1_555
C8_5 C7_3 1_555 1_555
C9_5 C8_5 1_555 1_555
C10_5 C16_5 1_555 1_555
C11_3 C12_3 1_555 1_555
C12_3 H5_3 1_555 1_555
C13_3 C12_3 1_555 1_555
H6_3 C13_3 1_555 1_555
C14_3 N3_3 1_555 1_555
H7_3 C14_3 1_555 1_555
C15_3 C11_3 1_555 1_555
H8_3 C15_3 1_555 1_555
C16_5 C17_3 1_555 1_555
C17_3 C18_3 1_555 1_555
N6_5 Mn2 1_555 1_555
C22_3 C7_3 1_555 1_555
C23_3 C11_3 1_555 1_555
C24_3 N1_3 1_555 1_555
C25_3 C24_3 1_555 1_555
C26_3 C1_3 1_555 1_555
H13_3 C26_3 1_555 1_555
H14_3 C25_3 1_555 1_555
C27_5 C9_5 1_555 1_555
N8_5 Mn2 1_555 1_555
C31_5 N2_5 1_555 1_555
C32_5 C31_5 1_555 1_555
H16_3 C32_5 1_555 1_555
C39_5 C16_5 1_555 1_555
H21_3 C17_3 1_555 1_555
C40_5 N4_5 1_555 1_555
H23_5 C40_5 1_555 1_555
H24_3 C39_5 1_555 1_555
C9_5 N6_5 1_555 1_555
C10_5 C31_5 1_555 1_555
C14_3 C15_3 1_555 1_555
N6_5 C22_3 1_555 1_555
C22_3 C23_3 1_555 1_555
C23_3 C24_3 1_555 1_555
C25_3 C26_3 1_555 1_555
C27_5 C28_5 1_555 1_555
C39_5 C40_5 1_555 1_555
C19_5 H11_5 1_555 1_555
C20_5 C19_5 1_555 1_555
N8_3 C19_5 1_555 1_555
C2_4 H1_4 1_555 1_555
C3_4 C2_4 1_555 1_555
H2_4 C3_4 1_555 1_555
C4_4 C3_4 1_555 1_555
C5_4 C4_4 1_555 1_555
C19_6 H11_6 1_555 1_555
C20_6 C19_6 1_555 1_555
H12_4 C20_6 1_555 1_555
C21_4 C2_4 1_555 1_555
N8 C19_6 1_555 1_555
C33_4 C6_4 1_555 1_555
H15_4 C33_4 1_555 1_555
C34_4 C5_4 1_555 1_555
C35_4 C34_4 1_555 1_555
H17_4 C35_4 1_555 1_555
C36_4 C35_4 1_555 1_555
N10_4 C36_4 1_555 1_555
C37_4 N10_4 1_555 1_555
H18_4 C37_4 1_555 1_555
C38_4 C34_4 1_555 1_555
H19_4 C38_4 1_555 1_555
H20_4 C36_4 1_555 1_555
C4_4 N5_4 1_555 1_555
C5_4 C6_4 1_555 1_555
N5_4 C21_4 1_555 1_555
C37_4 C38_4 1_555 1_555
Mn2_2 N1_4 1_555 1_555
N1_4 C1_4 1_555 1_555
N2_6 Mn2_2 1_555 1_555
N3_4 C13_4 1_555 1_555
N4_6 C18_4 1_555 1_555
C1_4 C10_6 1_555 1_555
C7_4 H3_4 1_555 1_555
C8_6 C7_4 1_555 1_555
H4_4 C8_6 1_555 1_555
C9_6 C8_6 1_555 1_555
C10_6 C16_6 1_555 1_555
C11_4 C12_4 1_555 1_555
C12_4 H5_4 1_555 1_555
C13_4 C12_4 1_555 1_555
H6_4 C13_4 1_555 1_555
C14_4 N3_4 1_555 1_555
H7_4 C14_4 1_555 1_555
C15_4 C11_4 1_555 1_555
H8_4 C15_4 1_555 1_555
C16_6 C17_4 1_555 1_555
C17_4 C18_4 1_555 1_555
H9_4 C29_4 1_555 1_555
H10_4 C30_4 1_555 1_555
N6_6 Mn2_2 1_555 1_555
C22_4 C7_4 1_555 1_555
C23_4 C11_4 1_555 1_555
C24_4 N1_4 1_555 1_555
C25_4 C24_4 1_555 1_555
C26_4 C1_4 1_555 1_555
H13_4 C26_4 1_555 1_555
H14_4 C25_4 1_555 1_555
C27_6 C9_6 1_555 1_555
C29_4 C28_6 1_555 1_555
C30_4 C29_4 1_555 1_555
N8_6 Mn2_2 1_555 1_555
C31_6 N2_6 1_555 1_555
C32_6 C31_6 1_555 1_555
H16_4 C32_6 1_555 1_555
C39_6 C16_6 1_555 1_555
H21_4 C17_4 1_555 1_555
C40_6 N4_6 1_555 1_555
H23_6 C40_6 1_555 1_555
H24_4 C39_6 1_555 1_555
C9_6 N6_6 1_555 1_555
C10_6 C31_6 1_555 1_555
C14_4 C15_4 1_555 1_555
N6_6 C22_4 1_555 1_555
C22_4 C23_4 1_555 1_555
C23_4 C24_4 1_555 1_555
C25_4 C26_4 1_555 1_555
C27_6 C28_6 1_555 1_555
C39_6 C40_6 1_555 1_555
C2_5 H1_5 1_555 1_555
C7_5 H3_5 1_555 1_555
C8_7 C7_5 1_555 1_555
H4_5 C8_7 1_555 1_555
C9_7 C8_7 1_555 1_555
C15_5 C11_5 1_555 1_555
H8_5 C15_5 1_555 1_555
H9_5 C29_5 1_555 1_555
H10_5 C30_5 1_555 1_555
C19_7 H11_7 1_555 1_555
C20_7 C19_7 1_555 1_555
H12_5 C20_7 1_555 1_555
C21_5 C2_5 1_555 1_555
C22_5 C7_5 1_555 1_555
C23_5 C11_5 1_555 1_555
C24_5 N1_5 1_555 1_555
C25_5 C24_5 1_555 1_555
H14_5 C25_5 1_555 1_555
C27_7 C9_7 1_555 1_555
C28_7 C20_7 1_555 1_555
C29_5 C28_7 1_555 1_555
C30_5 C29_5 1_555 1_555
N8_5 C19_7 1_555 1_555
C9_7 N6_7 1_555 1_555
C21_5 C27_7 1_555 1_555
N6_7 C22_5 1_555 1_555
C22_5 C23_5 1_555 1_555
C23_5 C24_5 1_555 1_555
C27_7 C28_7 1_555 1_555
C30_5 N8_5 1_555 1_555
N2_7 Mn3_3 1_555 1_555
N9_2 C18_5 1_555 1_555
C1_5 C10_7 1_555 1_555
H2_5 C3_5 1_555 1_555
C4_5 C3_5 1_555 1_555
C5_5 C4_5 1_555 1_555
C6_5 N2_7 1_555 1_555
C10_7 C16_7 1_555 1_555
C16_7 C17_5 1_555 1_555
C17_5 C18_5 1_555 1_555
C18_5 H22_5 1_555 1_555
N5_5 Mn3_3 1_555 1_555
C26_5 C1_5 1_555 1_555
H13_5 C26_5 1_555 1_555
C31_7 N2_7 1_555 1_555
C32_7 C31_7 1_555 1_555
C33_5 C6_5 1_555 1_555
H15_5 C33_5 1_555 1_555
H16_5 C32_7 1_555 1_555
C34_5 C5_5 1_555 1_555
C38_5 C34_5 1_555 1_555
H19_5 C38_5 1_555 1_555
C39_7 C16_7 1_555 1_555
H21_5 C17_5 1_555 1_555
C40_7 N9_2 1_555 1_555
H23_7 C40_7 1_555 1_555
H24_5 C39_7 1_555 1_555
C4_5 N5_5 1_555 1_555
C5_5 C6_5 1_555 1_555
C10_7 C31_7 1_555 1_555
C32_7 C33_5 1_555 1_555
C39_7 C40_7 1_555 1_555
Mn3 N1_6 1_555 1_555
N1_6 C1_6 1_555 1_555
N2_8 Mn3 1_555 1_555
N9_3 C18_6 1_555 1_555
C1_6 C10_8 1_555 1_555
C2_6 H1_6 1_555 1_555
C3_6 C2_6 1_555 1_555
H2_6 C3_6 1_555 1_555
C4_6 C3_6 1_555 1_555
C5_6 C4_6 1_555 1_555
C6_6 N2_8 1_555 1_555
C7_6 H3_6 1_555 1_555
C8_8 C7_6 1_555 1_555
H4_6 C8_8 1_555 1_555
C9_8 C8_8 1_555 1_555
C10_8 C16_8 1_555 1_555
C15_6 C11_6 1_555 1_555
H8_6 C15_6 1_555 1_555
C16_8 C17_6 1_555 1_555
C17_6 C18_6 1_555 1_555
H9_6 C29_6 1_555 1_555
C18_6 H22_6 1_555 1_555
H10_6 C30_6 1_555 1_555
C19_8 H11_8 1_555 1_555
C20_8 C19_8 1_555 1_555
H12_6 C20_8 1_555 1_555
N5_6 Mn3 1_555 1_555
C21_6 C2_6 1_555 1_555
N6_8 Mn3 1_555 1_555
C22_6 C7_6 1_555 1_555
C23_6 C11_6 1_555 1_555
C24_6 N1_6 1_555 1_555
C25_6 C24_6 1_555 1_555
C26_6 C1_6 1_555 1_555
H13_6 C26_6 1_555 1_555
H14_6 C25_6 1_555 1_555
C27_8 C9_8 1_555 1_555
C28_8 C20_8 1_555 1_555
C29_6 C28_8 1_555 1_555
C30_6 C29_6 1_555 1_555
N8_6 C19_8 1_555 1_555
C31_8 N2_8 1_555 1_555
C32_8 C31_8 1_555 1_555
C33_6 C6_6 1_555 1_555
H15_6 C33_6 1_555 1_555
H16_6 C32_8 1_555 1_555
C34_6 C5_6 1_555 1_555
C38_6 C34_6 1_555 1_555
H19_6 C38_6 1_555 1_555
C39_8 C16_8 1_555 1_555
H21_6 C17_6 1_555 1_555
C40_8 N9_3 1_555 1_555
H23_8 C40_8 1_555 1_555
H24_6 C39_8 1_555 1_555
C4_6 N5_6 1_555 1_555
C5_6 C6_6 1_555 1_555
C9_8 N6_8 1_555 1_555
C10_8 C31_8 1_555 1_555
N5_6 C21_6 1_555 1_555
C21_6 C27_8 1_555 1_555
N6_8 C22_6 1_555 1_555
C22_6 C23_6 1_555 1_555
C23_6 C24_6 1_555 1_555
C25_6 C26_6 1_555 1_555
C27_8 C28_8 1_555 1_555
C30_6 N8_6 1_555 1_555
C32_8 C33_6 1_555 1_555
C39_8 C40_8 1_555 1_555
N2_9 Mn3_2 1_555 1_555
N9 C18_7 1_555 1_555
C1_7 C10_9 1_555 1_555
H2_7 C3_7 1_555 1_555
C4_7 C3_7 1_555 1_555
C5_7 C4_7 1_555 1_555
C6_7 N2_9 1_555 1_555
C10_9 C16_9 1_555 1_555
C16_9 C17_7 1_555 1_555
C17_7 C18_7 1_555 1_555
C18_7 H22_7 1_555 1_555
N5_7 Mn3_2 1_555 1_555
C26_7 C1_7 1_555 1_555
H13_7 C26_7 1_555 1_555
C31_9 N2_9 1_555 1_555
C32_9 C31_9 1_555 1_555
C33_7 C6_7 1_555 1_555
H15_7 C33_7 1_555 1_555
H16_7 C32_9 1_555 1_555
C34_7 C5_7 1_555 1_555
C38_7 C34_7 1_555 1_555
H19_7 C38_7 1_555 1_555
C39_9 C16_9 1_555 1_555
H21_7 C17_7 1_555 1_555
C40_9 N9 1_555 1_555
H23_9 C40_9 1_555 1_555
H24_7 C39_9 1_555 1_555
C4_7 N5_7 1_555 1_555
C5_7 C6_7 1_555 1_555
C10_9 C31_9 1_555 1_555
C32_9 C33_7 1_555 1_555
C39_9 C40_9 1_555 1_555
C2_7 H1_7 1_555 1_555
C7_7 H3_7 1_555 1_555
C8_9 C7_7 1_555 1_555
H4_7 C8_9 1_555 1_555
C9_9 C8_9 1_555 1_555
C15_7 C11_7 1_555 1_555
H8_7 C15_7 1_555 1_555
H9_7 C29_7 1_555 1_555
H10_7 C30_7 1_555 1_555
C19_9 H11_9 1_555 1_555
C20_9 C19_9 1_555 1_555
H12_7 C20_9 1_555 1_555
C21_7 C2_7 1_555 1_555
C22_7 C7_7 1_555 1_555
C23_7 C11_7 1_555 1_555
C24_7 N1_7 1_555 1_555
C25_7 C24_7 1_555 1_555
H14_7 C25_7 1_555 1_555
C27_9 C9_9 1_555 1_555
C28_9 C20_9 1_555 1_555
C29_7 C28_9 1_555 1_555
C30_7 C29_7 1_555 1_555
N8_4 C19_9 1_555 1_555
C9_9 N6_9 1_555 1_555
C21_7 C27_9 1_555 1_555
N6_9 C22_7 1_555 1_555
C22_7 C23_7 1_555 1_555
C23_7 C24_7 1_555 1_555
C27_9 C28_9 1_555 1_555
C30_7 N8_4 1_555 1_555
Mn3_4 N4_5 1_555 1_555
Mn3_5 N4_6 1_555 1_555
N6_7 Mn3_5 1_555 1_555
N1_5 Mn3_5 1_555 1_555
N6_9 Mn3_4 1_555 1_555
N1_7 Mn3_4 1_555 1_555
N1_8 C1_8 1_555 1_555
N3_5 C13_5 1_555 1_555
C7_8 H3_8 1_555 1_555
C11_8 C12_5 1_555 1_555
C12_5 H5_5 1_555 1_555
C13_5 C12_5 1_555 1_555
H6_5 C13_5 1_555 1_555
C14_5 N3_5 1_555 1_555
H7_5 C14_5 1_555 1_555
C15_8 C11_8 1_555 1_555
H8_8 C15_8 1_555 1_555
C22_8 C7_8 1_555 1_555
C23_8 C11_8 1_555 1_555
C24_8 N1_8 1_555 1_555
C25_8 C24_8 1_555 1_555
C26_8 C1_8 1_555 1_555
H13_8 C26_8 1_555 1_555
H14_8 C25_8 1_555 1_555
C14_5 C15_8 1_555 1_555
C22_8 C23_8 1_555 1_555
C23_8 C24_8 1_555 1_555
C25_8 C26_8 1_555 1_555
C17_8 C18_8 1_555 1_555
C18_8 H22_8 1_555 1_555
H21_8 C17_8 1_555 1_555
C17_9 C18_9 1_555 1_555
C18_9 H22_9 1_555 1_555
H21_9 C17_9 1_555 1_555
N1_9 C1_9 1_555 1_555
N3_6 C13_6 1_555 1_555
C7_9 H3_9 1_555 1_555
C11_9 C12_6 1_555 1_555
C12_6 H5_6 1_555 1_555
C13_6 C12_6 1_555 1_555
H6_6 C13_6 1_555 1_555
C14_6 N3_6 1_555 1_555
H7_6 C14_6 1_555 1_555
C15_9 C11_9 1_555 1_555
H8_9 C15_9 1_555 1_555
C22_9 C7_9 1_555 1_555
C23_9 C11_9 1_555 1_555
C24_9 N1_9 1_555 1_555
C25_9 C24_9 1_555 1_555
C26_9 C1_9 1_555 1_555
H13_9 C26_9 1_555 1_555
H14_9 C25_9 1_555 1_555
C14_6 C15_9 1_555 1_555
C22_9 C23_9 1_555 1_555
C23_9 C24_9 1_555 1_555
C25_9 C26_9 1_555 1_555
H9_8 C29_8 1_555 1_555
H10_8 C30_8 1_555 1_555
C30_8 C29_8 1_555 1_555
C2_8 H1_8 1_555 1_555
C3_8 C2_8 1_555 1_555
H2_8 C3_8 1_555 1_555
C4_8 C3_8 1_555 1_555
C5_8 C4_8 1_555 1_555
C21_8 C2_8 1_555 1_555
C33_8 C6_8 1_555 1_555
H15_8 C33_8 1_555 1_555
C34_8 C5_8 1_555 1_555
C35_5 C34_8 1_555 1_555
H17_5 C35_5 1_555 1_555
C36_5 C35_5 1_555 1_555
N10_5 C36_5 1_555 1_555
C37_5 N10_5 1_555 1_555
H18_5 C37_5 1_555 1_555
C38_8 C34_8 1_555 1_555
H19_8 C38_8 1_555 1_555
H20_5 C36_5 1_555 1_555
C4_8 N5_8 1_555 1_555
C5_8 C6_8 1_555 1_555
N5_8 C21_8 1_555 1_555
C37_5 C38_8 1_555 1_555
C2_9 H1_9 1_555 1_555
C3_9 C2_9 1_555 1_555
H2_9 C3_9 1_555 1_555
C4_9 C3_9 1_555 1_555
C5_9 C4_9 1_555 1_555
C21_9 C2_9 1_555 1_555
C33_9 C6_9 1_555 1_555
H15_9 C33_9 1_555 1_555
C34_9 C5_9 1_555 1_555
C35_6 C34_9 1_555 1_555
H17_6 C35_6 1_555 1_555
C36_6 C35_6 1_555 1_555
N10_6 C36_6 1_555 1_555
C37_6 N10_6 1_555 1_555
H18_6 C37_6 1_555 1_555
C38_9 C34_9 1_555 1_555
H19_9 C38_9 1_555 1_555
H20_6 C36_6 1_555 1_555
C4_9 N5_9 1_555 1_555
C5_9 C6_9 1_555 1_555
N5_9 C21_9 1_555 1_555
C37_6 C38_9 1_555 1_555
H9_9 C29_9 1_555 1_555
H10_9 C30_9 1_555 1_555
C30_9 C29_9 1_555 1_555
N3_7 C13_7 1_555 1_555
C12_7 H5_7 1_555 1_555
C13_7 C12_7 1_555 1_555
H6_7 C13_7 1_555 1_555
C14_7 N3_7 1_555 1_555
H7_7 C14_7 1_555 1_555
H17_7 C35_7 1_555 1_555
C36_7 C35_7 1_555 1_555
N10_7 C36_7 1_555 1_555
C37_7 N10_7 1_555 1_555
H18_7 C37_7 1_555 1_555
H20_7 C36_7 1_555 1_555
H17_8 C35_8 1_555 1_555
C36_8 C35_8 1_555 1_555
N10_8 C36_8 1_555 1_555
C37_8 N10_8 1_555 1_555
H18_8 C37_8 1_555 1_555
H20_8 C36_8 1_555 1_555
N3_8 C13_8 1_555 1_555
C12_8 H5_8 1_555 1_555
C13_8 C12_8 1_555 1_555
H6_8 C13_8 1_555 1_555
C14_8 N3_8 1_555 1_555
H7_8 C14_8 1_555 1_555
H17_9 C35_9 1_555 1_555
C36_9 C35_9 1_555 1_555
N10_9 C36_9 1_555 1_555
C37_9 N10_9 1_555 1_555
H18_9 C37_9 1_555 1_555
H20_9 C36_9 1_555 1_555
N3_9 C13_9 1_555 1_555
C12_9 H5_9 1_555 1_555
C13_9 C12_9 1_555 1_555
H6_9 C13_9 1_555 1_555
C14_9 N3_9 1_555 1_555
H7_9 C14_9 1_555 1_555

#END
