
###############################################################################
#
# This file contains modified crystal structure data generated from the
# MOF subset of the Cambridge Structural Database (CSD) v543 
# hosted by the Cambridge Crystallographic Data Centre (CCDC).
#
# This work is licensed under the Creative Commons
# Attribution-NonCommercial-ShareAlike 4.0 International License.
# To view a copy of this license, visit
# http://creativecommons.org/licenses/by-nc-sa/4.0/
# or send a letter to
# Creative Commons, PO Box 1866, Mountain View, CA 94042, USA.
#
# CIF created using the CSD Python API on 29 September 2022
# The structure has been converted into the P1 space group
# The structure has a 3D framework
# The original CSD entry CAZFOA is in the triclinic crystal system
# The framework has been calculated to contain at least 10.0% void space
# The void calculation uses a probe of radius 1.32A, grid spacing 0.4
#
###############################################################################

data_CAZFOA
_chemical_formula_moiety         '(C40 H28 Co9 N10 O10)n'
_symmetry_cell_setting           triclinic
_symmetry_space_group_name_H-M   'P 1'
_symmetry_Int_Tables_number      1
_space_group_name_Hall           'P 1'
loop_
_symmetry_equiv_pos_site_id
_symmetry_equiv_pos_as_xyz
1 x,y,z
_cell_length_a                   10.3547(16)
_cell_length_b                   10.5172(17)
_cell_length_c                   12.390(2)
_cell_angle_alpha                70.646(2)
_cell_angle_beta                 89.451(2)
_cell_angle_gamma                63.849(2)
_cell_volume                     1127.8
loop_
_atom_site_label
_atom_site_type_symbol
_atom_site_fract_x
_atom_site_fract_y
_atom_site_fract_z
Co1 Co -0.0000 0.0000 -0.0000
Co1_2 Co -0.0000 0.0000 1.0000
H10 H 0.0108 0.2384 0.7662
C16 C 0.1580(6) 0.0072(6) 0.5682(4)
H13 H 0.1863 0.0543 0.5016
Co6 Co 0.0000 0.5000 0.0000
H28 H 0.0611 0.1300 0.3441
Co6_2 Co 0.0000 0.5000 1.0000
Co1_3 Co -0.0000 1.0000 -0.0000
N10 N 0.1966(5) 0.4527(4) 0.1023(3)
N12 N 0.1229(4) 0.8435(4) 0.1719(3)
Co1_4 Co -0.0000 1.0000 1.0000
O1 O 0.0207(4) 0.6700(3) 0.8670(2)
O2 O 0.0059(4) 0.8228(3) 0.9585(2)
O3 O 0.4038(4) 0.8111(4) 0.9079(3)
O4 O 0.1958(4) 0.9646(4) 0.9463(3)
O5 O 0.1187(4) 0.3475(4) 0.9165(3)
H1 H 0.1067 0.2684 0.9381
H2 H 0.1932 0.3293 0.8829
C13 C 0.2682(5) 0.8887(5) 0.8875(4)
C14 C 0.1903(5) 0.9051(5) 0.7771(4)
C15 C 0.2313(6) 0.9694(6) 0.6750(4)
H12 H 0.3109 0.9876 0.6787
C17 C 0.0424(5) 0.9762(5) 0.5581(3)
C18 C 0.0101(5) 0.9001(5) 0.6602(4)
C19 C 0.0790(5) 0.8664(5) 0.7691(3)
C20 C 0.0322(5) 0.7818(5) 0.8723(3)
Co1_5 Co 1.0000 0.0000 -0.0000
O9 O 0.9941(4) 0.1772(3) 0.0415(2)
O12 O 0.8042(4) 0.0354(4) 0.0537(3)
Co1_6 Co 1.0000 0.0000 1.0000
N1 N 0.6152(5) 0.4822(5) 0.2945(3)
H3 H 0.6133 0.5371 0.2248
N2 N 0.7040(5) 0.4501(5) 0.3899(3)
N3 N 0.5636(5) 0.3363(5) 0.4411(3)
N5 N 0.8771(4) 0.1565(4) 0.8281(3)
C1 C 0.2914(5) 0.5040(6) 0.0607(4)
C2 C 0.2188(8) 0.3825(8) 0.2168(4)
H5 H 0.1585 0.3402 0.2482
C3 C 0.3257(7) 0.3689(7) 0.2911(4)
H6 H 0.3342 0.3213 0.3706
C4 C 0.4196(5) 0.4255(5) 0.2483(4)
C5 C 0.4009(5) 0.4957(5) 0.1290(4)
H7 H 0.4616 0.5365 0.0957
C6 C 0.5325(5) 0.4145(5) 0.3266(4)
C7 C 0.6697(5) 0.3605(5) 0.4765(4)
C8 C 0.7405(5) 0.2951(5) 0.5983(4)
C9 C 0.6844(5) 0.2232(5) 0.6840(4)
H8 H 0.5989 0.2205 0.6660
C10 C 0.7545(5) 0.1555(6) 0.7958(4)
H9 H 0.7152 0.1063 0.8524
C11 C 0.9283(5) 0.2322(5) 0.7452(4)
C12 C 0.8647(6) 0.3017(5) 0.6302(4)
H11 H 0.9044 0.3521 0.5750
Co6_3 Co 1.0000 0.5000 0.0000
O6 O 0.9793(4) 0.3300(3) 0.1330(2)
O10 O 0.5962(4) 0.1889(4) 0.0921(3)
C33 C 0.7318(5) 0.1113(5) 0.1125(4)
C34 C 0.8097(5) 0.0949(5) 0.2229(4)
C35 C 0.7687(6) 0.0306(6) 0.3250(4)
H26 H 0.6891 0.0124 0.3213
C37 C 0.9576(5) 0.0238(5) 0.4419(3)
C38 C 0.9899(5) 0.0999(5) 0.3398(4)
C39 C 0.9210(5) 0.1336(5) 0.2309(3)
C40 C 0.9678(5) 0.2182(5) 0.1277(3)
H4 H 0.2827 0.5479 0.9807
Co6_4 Co 1.0000 0.5000 1.0000
Co1_7 Co 1.0000 1.0000 -0.0000
O13 O 0.8813(4) 0.6525(4) 0.0835(3)
H15 H 0.8933 0.7316 0.0619
H16 H 0.8068 0.6707 0.1171
H18 H 0.7173 0.4521 0.0193
Co1_8 Co 1.0000 1.0000 1.0000
H14 H 0.9389 0.8700 0.6559
N6 N 0.3848(5) 0.5178(5) 0.7055(3)
H17 H 0.3867 0.4629 0.7752
N7 N 0.2960(5) 0.5499(5) 0.6101(3)
N8 N 0.4364(5) 0.6637(5) 0.5589(3)
N9 N 0.8034(5) 0.5473(4) 0.8977(3)
C21 C 0.7086(5) 0.4960(6) 0.9393(4)
C22 C 0.7812(8) 0.6175(8) 0.7832(4)
H19 H 0.8415 0.6598 0.7518
C23 C 0.6743(7) 0.6311(7) 0.7089(4)
H20 H 0.6658 0.6787 0.6294
C24 C 0.5804(5) 0.5745(5) 0.7517(4)
C25 C 0.5991(5) 0.5043(5) 0.8710(4)
H21 H 0.5384 0.4635 0.9043
C26 C 0.4675(5) 0.5855(5) 0.6734(4)
C27 C 0.3303(5) 0.6395(5) 0.5235(4)
C28 C 0.2595(5) 0.7049(5) 0.4017(4)
C29 C 0.3156(5) 0.7768(5) 0.3160(4)
H22 H 0.4011 0.7795 0.3340
C30 C 0.2455(5) 0.8445(6) 0.2042(4)
H23 H 0.2848 0.8937 0.1476
C31 C 0.0717(5) 0.7678(5) 0.2548(4)
C32 C 0.1353(6) 0.6983(5) 0.3698(4)
H25 H 0.0956 0.6479 0.4250
C36 C 0.8420(6) 0.9928(6) 0.4318(4)
H27 H 0.8137 0.9457 0.4984
H24 H 0.9892 0.7616 0.2338
loop_
_geom_bond_atom_site_label_1
_geom_bond_atom_site_label_2
_geom_bond_site_symmetry_1
_geom_bond_site_symmetry_2
H13 C16 1_555 1_555
N10 Co6 1_555 1_555
N12 Co1_3 1_555 1_555
Co1_4 O2 1_555 1_555
Co6_2 O1 1_555 1_555
O1 C20 1_555 1_555
O2 C20 1_555 1_555
O3 C13 1_555 1_555
O4 Co1_4 1_555 1_555
O5 Co6_2 1_555 1_555
H1 O5 1_555 1_555
H2 O5 1_555 1_555
C13 O4 1_555 1_555
C14 C13 1_555 1_555
C15 C14 1_555 1_555
H12 C15 1_555 1_555
C18 C17 1_555 1_555
C19 C14 1_555 1_555
C20 C19 1_555 1_555
C18 C19 1_555 1_555
O9 Co1_5 1_555 1_555
O12 Co1_5 1_555 1_555
N1 H3 1_555 1_555
N2 N1 1_555 1_555
N3 C6 1_555 1_555
N10 C1 1_555 1_555
N5 Co1_6 1_555 1_555
C2 N10 1_555 1_555
H5 C2 1_555 1_555
C3 C2 1_555 1_555
H6 C3 1_555 1_555
C4 C3 1_555 1_555
C5 C1 1_555 1_555
H7 C5 1_555 1_555
C6 N1 1_555 1_555
C7 N2 1_555 1_555
C8 C7 1_555 1_555
C9 C8 1_555 1_555
H8 C9 1_555 1_555
C10 N5 1_555 1_555
H9 C10 1_555 1_555
C11 N5 1_555 1_555
C12 C8 1_555 1_555
H11 C12 1_555 1_555
Co6_3 O6 1_555 1_555
O6 C40 1_555 1_555
O9 C40 1_555 1_555
O10 C33 1_555 1_555
C33 O12 1_555 1_555
C34 C33 1_555 1_555
C35 C34 1_555 1_555
H26 C35 1_555 1_555
C38 C37 1_555 1_555
C39 C34 1_555 1_555
C40 C39 1_555 1_555
N3 C7 1_555 1_555
C4 C5 1_555 1_555
C4 C6 1_555 1_555
C9 C10 1_555 1_555
C11 C12 1_555 1_555
C38 C39 1_555 1_555
O13 Co6_3 1_555 1_555
H15 O13 1_555 1_555
H16 O13 1_555 1_555
N6 H17 1_555 1_555
N7 N6 1_555 1_555
N8 C26 1_555 1_555
N9 Co6_4 1_555 1_555
N12 C30 1_555 1_555
C21 N9 1_555 1_555
C22 N9 1_555 1_555
H19 C22 1_555 1_555
C23 C22 1_555 1_555
H20 C23 1_555 1_555
C24 C23 1_555 1_555
C25 C21 1_555 1_555
H21 C25 1_555 1_555
C26 N6 1_555 1_555
C27 N7 1_555 1_555
C28 C27 1_555 1_555
C29 C28 1_555 1_555
H22 C29 1_555 1_555
C30 C29 1_555 1_555
H23 C30 1_555 1_555
C31 N12 1_555 1_555
C32 C28 1_555 1_555
H25 C32 1_555 1_555
H27 C36 1_555 1_555
N8 C27 1_555 1_555
C24 C25 1_555 1_555
C24 C26 1_555 1_555
C31 C32 1_555 1_555

#END
