
###############################################################################
#
# This file contains modified crystal structure data generated from the
# MOF subset of the Cambridge Structural Database (CSD) v543 
# hosted by the Cambridge Crystallographic Data Centre (CCDC).
#
# This work is licensed under the Creative Commons
# Attribution-NonCommercial-ShareAlike 4.0 International License.
# To view a copy of this license, visit
# http://creativecommons.org/licenses/by-nc-sa/4.0/
# or send a letter to
# Creative Commons, PO Box 1866, Mountain View, CA 94042, USA.
#
# CIF created using the CSD Python API on 29 September 2022
# The structure has been converted into the P1 space group
# The structure has a 3D framework
# The original CSD entry CAZGIT is in the monoclinic crystal system
# The framework has been calculated to contain at least 10.0% void space
# The void calculation uses a probe of radius 1.32A, grid spacing 0.4
#
###############################################################################

data_CAZGIT
_chemical_formula_moiety         '(C160 H96 Cu10 Mo12 N32 O40)n'
_symmetry_cell_setting           triclinic
_symmetry_space_group_name_H-M   'P 1'
_symmetry_Int_Tables_number      1
_space_group_name_Hall           'P 1'
loop_
_symmetry_equiv_pos_site_id
_symmetry_equiv_pos_as_xyz
1 x,y,z
_cell_length_a                   21.8453(4)
_cell_length_b                   21.84440(10)
_cell_length_c                   9.5879(2)
_cell_angle_alpha                90
_cell_angle_beta                 98.7850(10)
_cell_angle_gamma                90
_cell_volume                     4521.65
loop_
_atom_site_label
_atom_site_type_symbol
_atom_site_fract_x
_atom_site_fract_y
_atom_site_fract_z
Mo1 Mo 0.35066(3) 0.32692(3) 0.11982(8)
Mo2 Mo 0.15959(3) 0.33687(3) 0.45561(8)
Mo3 Mo 0.26029(3) 0.24908(3) 0.31172(8)
Cu1 Cu 0.14841(5) 0.31015(4) 0.05379(12)
Cu2 Cu 0.32838(5) 0.32818(5) 0.54624(12)
O1 O 0.3194(3) 0.3956(3) 0.0583(7)
O2 O 0.3420(3) 0.3121(3) 0.3044(7)
O3 O 0.1506(3) 0.4077(3) 0.5316(8)
O4 O 0.2963(3) 0.1874(3) 0.2452(7)
O5 O 0.2286(3) 0.2941(3) 0.1635(7)
O6 O 0.1954(3) 0.2156(3) 0.3633(7)
O7 O 0.1176(3) 0.3374(3) 0.2842(8)
O8 O 0.4287(3) 0.3326(3) 0.1187(8)
O9 O 0.1301(3) 0.2214(3) 0.0621(7)
O10 O 0.3227(3) 0.2613(3) -0.0001(7)
O11 O 0.2424(3) 0.3277(3) 0.4464(6)
C1 C 0.0141(4) 0.3285(4) 0.0015(9)
H1 H 0.0189 0.3436 0.0932
O12 O 0.1301(3) 0.2786(3) 0.5621(7)
O13 O 0.3227(3) 0.2387(3) 0.4999(7)
O15 O 0.2963(3) 0.3126(3) 0.7452(7)
Cu4 Cu 0.32838(5) 0.17182(5) 0.04624(12)
Cu5 Cu 0.14841(5) 0.18985(4) 0.55379(12)
N9 N 0.1681(3) 0.3985(3) 0.0187(8)
N10 N 0.4187(3) 0.3239(3) 0.6283(7)
N11 N 0.3236(3) 0.4188(3) 0.5664(7)
O10_2 O 0.3227(3) 0.2613(3) 0.9999(7)
C2 C 0.0562(5) 0.3022(5) 0.8052(11)
H2 H 0.0916 0.2998 0.7624
N1 N 0.0616(4) 0.3182(4) 0.9418(8)
O14 O 0.1954(3) 0.2844(3) 0.8633(7)
Mo4 Mo 0.15959(3) 0.16313(3) 0.95561(8)
Mo5 Mo 0.26029(3) 0.25092(3) 0.81172(8)
Cu3 Cu 0.74789(5) 0.23960(5) 0.50316(11)
C3 C 0.9549(5) 0.3168(5) 0.9276(11)
H3 H 0.9207 0.3241 0.9720
C4 C 0.9997(5) 0.2893(5) 0.7277(12)
H4 H 0.9965 0.2768 0.6341
C5 C 0.9459(4) 0.2954(4) 0.7944(10)
C9 C 0.8060(4) 0.0024(4) 0.4081(9)
H8 H 0.7984 0.0301 0.3337
C10 C 0.8035(4) 0.0214(4) 0.5323(9)
C11 C 0.4954(5) 0.1756(5) 0.3368(12)
H9 H 0.5059 0.1709 0.4339
C12 C 0.4333(5) 0.1706(5) 0.2665(12)
H10 H 0.4019 0.1632 0.3199
C13 C 0.5396(4) 0.1882(4) 0.2488(9)
C14 C 0.4606(4) 0.1835(4) 0.0478(10)
C15 C 0.5248(4) 0.1895(4) 0.1051(9)
H12 H 0.5550 0.1941 0.0472
C16 C 0.6807(4) 0.5552(4) 0.3121(10)
H13 H 0.6772 0.5785 0.2301
C17 C 0.6811(4) 0.5496(4) 0.5633(10)
H14 H 0.6762 0.5692 0.6469
C18 C 0.7001(4) 0.4586(4) 0.4366(8)
C19 C 0.6911(4) 0.4905(4) 0.3076(10)
H15 H 0.6918 0.4703 0.2225
C20 C 0.6937(4) 0.4870(4) 0.5586(9)
H16 H 0.6978 0.4643 0.6416
C21 C 0.8847(4) 0.2777(4) 0.7063(9)
C22 C 0.8687(4) 0.2173(4) 0.6952(9)
C23 C 0.9096(4) 0.1680(4) 0.7643(10)
H17 H 0.9458 0.1722 0.8285
C24 C 0.8815(4) 0.1149(4) 0.7116(9)
H18 H 0.8964 0.0755 0.7309
C25 C 0.8248(4) 0.1308(4) 0.6211(9)
C26 C 0.7839(3) 0.0873(3) 0.5480(8)
C27 C 0.7245(4) 0.1025(4) 0.4774(9)
C28 C 0.6776(4) 0.0599(4) 0.4212(9)
H19 H 0.6818 0.0175 0.4233
C29 C 0.6273(4) 0.0900(4) 0.3659(9)
H20 H 0.5891 0.0734 0.3287
C30 C 0.6448(4) 0.1565(4) 0.3758(9)
C31 C 0.6056(3) 0.2025(3) 0.3196(8)
C32 C 0.6240(4) 0.2634(4) 0.3209(9)
C33 C 0.5827(4) 0.3120(4) 0.2630(10)
H21 H 0.5436 0.3075 0.2103
C34 C 0.6125(4) 0.3651(4) 0.3007(9)
H22 H 0.5973 0.4044 0.2807
C35 C 0.6731(4) 0.3490(4) 0.3790(9)
C36 C 0.7174(4) 0.3903(4) 0.4335(9)
C37 C 0.7735(4) 0.3758(4) 0.5176(9)
C38 C 0.8212(4) 0.4185(5) 0.5664(10)
H23 H 0.8198 0.4604 0.5494
C39 C 0.8677(4) 0.3884(4) 0.6399(10)
H24 H 0.9044 0.4050 0.6867
C40 C 0.8506(4) 0.3254(4) 0.6333(9)
N3 N 0.4187(3) 0.1761(3) 0.1283(7)
N4 N 0.6764(3) 0.5812(3) 0.4336(7)
N5 N 0.7026(3) 0.1616(3) 0.4520(7)
N6 N 0.6784(3) 0.2866(3) 0.3937(7)
N7 N 0.7913(3) 0.3187(3) 0.5591(7)
N8 N 0.8164(3) 0.1929(3) 0.6137(7)
Cu8 Cu 0.67162(5) 0.67182(5) 0.45376(12)
C6 C 0.8202(4) 0.9391(4) 0.3773(9)
H5 H 0.8211 0.9271 0.2846
C7 C 0.8299(4) 0.9190(4) 0.6091(9)
H6 H 0.8379 0.8912 0.6830
C8 C 0.8165(4) 0.9811(4) 0.6447(9)
H7 H 0.8164 0.9934 0.7375
N2 N 0.8319(3) 0.8985(3) 0.4813(8)
Cu6 Cu 0.85159(5) 0.81015(4) 0.44621(12)
O3_2 O 0.1506(3) 0.0923(3) 0.0316(8)
N11_2 N 0.3236(3) 0.0812(3) 0.0664(7)
Mo1_2 Mo 0.35066(3) 0.17308(3) 0.61982(8)
O1_2 O 0.3194(3) 0.1044(3) 0.5583(7)
O2_2 O 0.3420(3) 0.1879(3) 0.8044(7)
O5_2 O 0.2286(3) 0.2059(3) 0.6635(7)
O7_2 O 0.1176(3) 0.1626(3) 0.7842(8)
O8_2 O 0.4287(3) 0.1674(3) 0.6187(8)
O11_2 O 0.2424(3) 0.1723(3) 0.9464(6)
C1_2 C 0.0141(4) 0.1715(4) 0.5015(9)
H1_2 H 0.0189 0.1564 0.5932
C2_2 C 0.0562(5) 0.1978(5) 0.3052(11)
H2_2 H 0.0916 0.2002 0.2624
N1_2 N 0.0616(4) 0.1818(4) 0.4418(8)
N9_2 N 0.1681(3) 0.1015(3) 0.5187(8)
C6_2 C 0.8202(4) 0.5609(4) 0.8773(9)
H5_2 H 0.8211 0.5729 0.7846
C9_2 C 0.8060(4) 0.4976(4) 0.9081(9)
H8_2 H 0.7984 0.4699 0.8337
C11_2 C 0.4954(5) 0.3244(5) 0.8368(12)
H9_2 H 0.5059 0.3291 0.9339
C12_2 C 0.4333(5) 0.3294(5) 0.7665(12)
H10_2 H 0.4019 0.3368 0.8199
C13_2 C 0.5396(4) 0.3118(4) 0.7488(9)
C14_2 C 0.4606(4) 0.3165(4) 0.5478(10)
H11 H 0.4487 0.3150 0.4505
C15_2 C 0.5248(4) 0.3105(4) 0.6051(9)
H12_2 H 0.5550 0.3059 0.5472
C18_2 C 0.7001(4) 0.0414(4) 0.9366(8)
C19_2 C 0.6911(4) 0.0095(4) 0.8076(10)
H15_2 H 0.6918 0.0297 0.7225
C27_2 C 0.7245(4) 0.3975(4) 0.9774(9)
C28_2 C 0.6776(4) 0.4401(4) 0.9212(9)
H19_2 H 0.6818 0.4825 0.9233
C29_2 C 0.6273(4) 0.4100(4) 0.8659(9)
H20_2 H 0.5891 0.4266 0.8287
C30_2 C 0.6448(4) 0.3435(4) 0.8758(9)
C31_2 C 0.6056(3) 0.2975(3) 0.8196(8)
C32_2 C 0.6240(4) 0.2366(4) 0.8209(9)
C33_2 C 0.5827(4) 0.1880(4) 0.7630(10)
H21_2 H 0.5436 0.1925 0.7103
C34_2 C 0.6125(4) 0.1349(4) 0.8007(9)
H22_2 H 0.5973 0.0956 0.7807
C35_2 C 0.6731(4) 0.1510(4) 0.8790(9)
C36_2 C 0.7174(4) 0.1097(4) 0.9335(9)
N2_2 N 0.8319(3) 0.6015(3) 0.9813(8)
N5_2 N 0.7026(3) 0.3384(3) 0.9520(7)
N6_2 N 0.6784(3) 0.2134(3) 0.8937(7)
Cu6_2 Cu 0.85159(5) 0.68985(4) 0.94621(12)
C16_2 C 0.6807(4) 0.9448(4) 0.8121(10)
H13_2 H 0.6772 0.9215 0.7301
N4_2 N 0.6764(3) 0.9188(3) 0.9336(7)
Cu8_2 Cu 0.67162(5) 0.82818(5) 0.95376(12)
C6_3 C 0.1798(4) 0.0609(4) 0.6227(9)
H5_3 H 0.1789 0.0729 0.7154
C7_2 C 0.1701(4) 0.0810(4) 0.3909(9)
H6_2 H 0.1621 0.1088 0.3170
C8_2 C 0.1835(4) 0.0189(4) 0.3553(9)
H7_2 H 0.1836 0.0066 0.2625
Cu3_2 Cu 0.25211(5) 0.76040(5) 0.49684(11)
C3_2 C 0.0451(5) 0.6832(5) 0.0724(11)
H3_2 H 0.0793 0.6759 0.0280
C4_2 C 0.0003(5) 0.7107(5) 0.2723(12)
H4_2 H 0.0035 0.7232 0.3659
C5_2 C 0.0541(4) 0.7046(4) 0.2056(10)
C9_3 C 0.1940(4) 0.9976(4) 0.5919(9)
H8_3 H 0.2016 0.9699 0.6663
C10_2 C 0.1965(4) 0.9786(4) 0.4677(9)
C11_3 C 0.5046(5) 0.8244(5) 0.6632(12)
H9_3 H 0.4941 0.8291 0.5661
C12_3 C 0.5667(5) 0.8294(5) 0.7335(12)
H10_3 H 0.5981 0.8368 0.6801
C13_3 C 0.4604(4) 0.8118(4) 0.7512(9)
C14_3 C 0.5394(4) 0.8165(4) 0.9522(10)
C15_3 C 0.4752(4) 0.8105(4) 0.8949(9)
H12_3 H 0.4450 0.8059 0.9528
C16_3 C 0.3193(4) 0.4448(4) 0.6879(10)
H13_3 H 0.3228 0.4215 0.7699
C17_2 C 0.3189(4) 0.4504(4) 0.4367(10)
H14_2 H 0.3238 0.4308 0.3531
C18_3 C 0.2999(4) 0.5414(4) 0.5634(8)
C19_3 C 0.3089(4) 0.5095(4) 0.6924(10)
H15_3 H 0.3082 0.5297 0.7775
C20_2 C 0.3063(4) 0.5130(4) 0.4414(9)
H16_2 H 0.3022 0.5357 0.3584
C21_2 C 0.1153(4) 0.7223(4) 0.2937(9)
C22_2 C 0.1313(4) 0.7827(4) 0.3048(9)
C23_2 C 0.0904(4) 0.8320(4) 0.2357(10)
H17_2 H 0.0542 0.8278 0.1715
C24_2 C 0.1185(4) 0.8851(4) 0.2884(9)
H18_2 H 0.1036 0.9245 0.2691
C25_2 C 0.1752(4) 0.8692(4) 0.3789(9)
C26_2 C 0.2161(3) 0.9127(3) 0.4520(8)
C27_3 C 0.2755(4) 0.8975(4) 0.5226(9)
C28_3 C 0.3224(4) 0.9401(4) 0.5788(9)
H19_3 H 0.3182 0.9825 0.5767
C29_3 C 0.3727(4) 0.9100(4) 0.6341(9)
H20_3 H 0.4109 0.9266 0.6713
C30_3 C 0.3552(4) 0.8435(4) 0.6242(9)
C31_3 C 0.3944(3) 0.7975(3) 0.6804(8)
C32_3 C 0.3760(4) 0.7366(4) 0.6791(9)
C33_3 C 0.4173(4) 0.6880(4) 0.7370(10)
H21_3 H 0.4564 0.6925 0.7897
C34_3 C 0.3875(4) 0.6349(4) 0.6993(9)
H22_3 H 0.4027 0.5956 0.7193
C35_3 C 0.3269(4) 0.6510(4) 0.6210(9)
C36_3 C 0.2826(4) 0.6097(4) 0.5665(9)
C37_2 C 0.2265(4) 0.6242(4) 0.4824(9)
C38_2 C 0.1788(4) 0.5815(5) 0.4336(10)
H23_2 H 0.1802 0.5396 0.4506
C39_2 C 0.1323(4) 0.6116(4) 0.3601(10)
H24_2 H 0.0956 0.5950 0.3133
C40_2 C 0.1494(4) 0.6746(4) 0.3667(9)
N3_2 N 0.5813(3) 0.8239(3) 0.8717(7)
N5_3 N 0.2974(3) 0.8384(3) 0.5480(7)
N6_3 N 0.3216(3) 0.7134(3) 0.6063(7)
N7_2 N 0.2087(3) 0.6813(3) 0.4409(7)
N8_2 N 0.1836(3) 0.8071(3) 0.3863(7)
O10_3 O 0.6773(3) 0.7387(3) 0.0001(7)
C2_3 C 0.9438(5) 0.6978(5) 0.1948(11)
H2_3 H 0.9084 0.7002 0.2376
N1_3 N 0.9384(4) 0.6818(4) 0.0582(8)
O14_2 O 0.8046(3) 0.7156(3) 0.1367(7)
Mo4_2 Mo 0.84041(3) 0.83687(3) 0.04439(8)
Mo5_2 Mo 0.73971(3) 0.74908(3) 0.18828(8)
Mo1_3 Mo 0.64934(3) 0.67308(3) 0.88018(8)
Mo2_2 Mo 0.84041(3) 0.66313(3) 0.54439(8)
Mo3_2 Mo 0.73971(3) 0.75092(3) 0.68828(8)
O1_3 O 0.6806(3) 0.6044(3) 0.9417(7)
O2_3 O 0.6580(3) 0.6879(3) 0.6956(7)
O3_3 O 0.8494(3) 0.5923(3) 0.4684(8)
O4_2 O 0.7037(3) 0.8126(3) 0.7548(7)
O5_3 O 0.7714(3) 0.7059(3) 0.8365(7)
O6_2 O 0.8046(3) 0.7844(3) 0.6367(7)
O7_3 O 0.8824(3) 0.6626(3) 0.7158(8)
O8_3 O 0.5713(3) 0.6674(3) 0.8813(8)
O9_2 O 0.8699(3) 0.7786(3) 0.9379(7)
O10_4 O 0.6773(3) 0.7387(3) 1.0001(7)
O11_3 O 0.7576(3) 0.6723(3) 0.5536(6)
C1_3 C 0.9859(4) 0.6715(4) 0.9985(9)
H1_3 H 0.9811 0.6564 0.9068
O12_2 O 0.8699(3) 0.7214(3) 0.4379(7)
O13_2 O 0.6773(3) 0.7613(3) 0.5001(7)
O15_2 O 0.7037(3) 0.6874(3) 0.2548(7)
N10_2 N 0.5813(3) 0.6761(3) 0.3717(7)
C16_4 C 0.3193(4) 0.0552(4) 0.1879(10)
H13_4 H 0.3228 0.0785 0.2699
C6_4 C 0.1798(4) 0.4391(4) 0.1227(9)
H5_4 H 0.1789 0.4271 0.2154
C9_4 C 0.1940(4) 0.5024(4) 0.0919(9)
H8_4 H 0.2016 0.5301 0.1663
C11_4 C 0.5046(5) 0.6756(5) 0.1632(12)
H9_4 H 0.4941 0.6709 0.0661
C12_4 C 0.5667(5) 0.6706(5) 0.2335(12)
H10_4 H 0.5981 0.6632 0.1801
C13_4 C 0.4604(4) 0.6882(4) 0.2512(9)
C14_4 C 0.5394(4) 0.6835(4) 0.4522(10)
H11_2 H 0.5513 0.6850 0.5495
C15_4 C 0.4752(4) 0.6895(4) 0.3949(9)
H12_4 H 0.4450 0.6941 0.4528
C18_4 C 0.2999(4) 0.9586(4) 0.0634(8)
C19_4 C 0.3089(4) 0.9905(4) 0.1924(10)
H15_4 H 0.3082 0.9703 0.2775
C27_4 C 0.2755(4) 0.6025(4) 0.0226(9)
C28_4 C 0.3224(4) 0.5599(4) 0.0788(9)
H19_4 H 0.3182 0.5175 0.0767
C29_4 C 0.3727(4) 0.5900(4) 0.1341(9)
H20_4 H 0.4109 0.5734 0.1713
C30_4 C 0.3552(4) 0.6565(4) 0.1242(9)
C31_4 C 0.3944(3) 0.7025(3) 0.1804(8)
C32_4 C 0.3760(4) 0.7634(4) 0.1791(9)
C33_4 C 0.4173(4) 0.8120(4) 0.2370(10)
H21_4 H 0.4564 0.8075 0.2897
C34_4 C 0.3875(4) 0.8651(4) 0.1993(9)
H22_4 H 0.4027 0.9044 0.2193
C35_4 C 0.3269(4) 0.8490(4) 0.1210(9)
C36_4 C 0.2826(4) 0.8903(4) 0.0665(9)
N5_4 N 0.2974(3) 0.6616(3) 0.0480(7)
N6_4 N 0.3216(3) 0.7866(3) 0.1063(7)
Mo1_4 Mo 0.64934(3) 0.82692(3) 0.38018(8)
O1_4 O 0.6806(3) 0.8956(3) 0.4417(7)
O2_4 O 0.6580(3) 0.8121(3) 0.1956(7)
O5_4 O 0.7714(3) 0.7941(3) 0.3365(7)
O7_4 O 0.8824(3) 0.8374(3) 0.2158(8)
O8_4 O 0.5713(3) 0.8326(3) 0.3813(8)
O11_4 O 0.7576(3) 0.8277(3) 0.0536(6)
C1_4 C 0.9859(4) 0.8285(4) 0.4985(9)
H1_4 H 0.9811 0.8436 0.4068
C2_4 C 0.9438(5) 0.8022(5) 0.6948(11)
H2_4 H 0.9084 0.7998 0.7376
N1_4 N 0.9384(4) 0.8182(4) 0.5582(8)
O3_4 O 0.8494(3) 0.9077(3) 0.9684(8)
H11_3 H 0.4487 0.1850 0.9505
Cu3_3 Cu 0.74789(5) 0.26040(5) 0.00316(11)
C3_3 C 0.9549(5) 0.1832(5) 0.4276(11)
H3_3 H 0.9207 0.1759 0.4720
C4_3 C 0.9997(5) 0.2107(5) 0.2277(12)
H4_3 H 0.9965 0.2232 0.1341
C5_3 C 0.9459(4) 0.2046(4) 0.2944(10)
C7_3 C 0.8299(4) 0.5810(4) 0.1091(9)
H6_3 H 0.8379 0.6088 0.1830
C8_3 C 0.8165(4) 0.5189(4) 0.1447(9)
H7_3 H 0.8164 0.5066 0.2375
C10_3 C 0.8035(4) 0.4786(4) 0.0323(9)
C20_3 C 0.6937(4) 0.0130(4) 0.0586(9)
H16_3 H 0.6978 0.0357 0.1416
C21_3 C 0.8847(4) 0.2223(4) 0.2063(9)
C22_3 C 0.8687(4) 0.2827(4) 0.1952(9)
C23_3 C 0.9096(4) 0.3320(4) 0.2643(10)
H17_3 H 0.9458 0.3278 0.3285
C24_3 C 0.8815(4) 0.3851(4) 0.2116(9)
H18_3 H 0.8964 0.4245 0.2309
C25_3 C 0.8248(4) 0.3692(4) 0.1211(9)
C26_3 C 0.7839(3) 0.4127(3) 0.0480(8)
C37_3 C 0.7735(4) 0.1242(4) 0.0176(9)
C38_3 C 0.8212(4) 0.0815(5) 0.0664(10)
H23_3 H 0.8198 0.0396 0.0494
C39_3 C 0.8677(4) 0.1116(4) 0.1399(10)
H24_3 H 0.9044 0.0950 0.1867
C40_3 C 0.8506(4) 0.1746(4) 0.1333(9)
N7_3 N 0.7913(3) 0.1813(3) 0.0591(7)
N8_3 N 0.8164(3) 0.3071(3) 0.1137(7)
C17_3 C 0.6811(4) 0.9504(4) 0.0633(10)
H14_3 H 0.6762 0.9308 0.1469
H11_4 H 0.5513 0.8150 0.0495
C17_4 C 0.3189(4) 0.0496(4) 0.9367(10)
H14_4 H 0.3238 0.0692 0.8531
Cu3_4 Cu 0.25211(5) 0.73960(5) 0.99684(11)
C3_4 C 0.0451(5) 0.8168(5) 0.5724(11)
H3_4 H 0.0793 0.8241 0.5280
C4_4 C 0.0003(5) 0.7893(5) 0.7723(12)
H4_4 H 0.0035 0.7768 0.8659
C5_4 C 0.0541(4) 0.7954(4) 0.7056(10)
C7_4 C 0.1701(4) 0.4190(4) 0.8909(9)
H6_4 H 0.1621 0.3912 0.8170
C8_4 C 0.1835(4) 0.4811(4) 0.8553(9)
H7_4 H 0.1836 0.4934 0.7625
C10_4 C 0.1965(4) 0.5214(4) 0.9677(9)
C20_4 C 0.3063(4) 0.9870(4) 0.9414(9)
H16_4 H 0.3022 0.9643 0.8584
C21_4 C 0.1153(4) 0.7777(4) 0.7937(9)
C22_4 C 0.1313(4) 0.7173(4) 0.8048(9)
C23_4 C 0.0904(4) 0.6680(4) 0.7357(10)
H17_4 H 0.0542 0.6722 0.6715
C24_4 C 0.1185(4) 0.6149(4) 0.7884(9)
H18_4 H 0.1036 0.5755 0.7691
C25_4 C 0.1752(4) 0.6308(4) 0.8789(9)
C26_4 C 0.2161(3) 0.5873(3) 0.9520(8)
C37_4 C 0.2265(4) 0.8758(4) 0.9824(9)
C38_4 C 0.1788(4) 0.9185(5) 0.9336(10)
H23_4 H 0.1802 0.9604 0.9506
C39_4 C 0.1323(4) 0.8884(4) 0.8601(10)
H24_4 H 0.0956 0.9050 0.8133
C40_4 C 0.1494(4) 0.8254(4) 0.8667(9)
N7_4 N 0.2087(3) 0.8187(3) 0.9409(7)
N8_4 N 0.1836(3) 0.6929(3) 0.8863(7)
loop_
_geom_bond_atom_site_label_1
_geom_bond_atom_site_label_2
_geom_bond_site_symmetry_1
_geom_bond_site_symmetry_2
Mo1 O1 1_555 1_555
Mo2 O3 1_555 1_555
Mo3 Cu2 1_555 1_555
Cu1 O5 1_555 1_555
Cu2 O2 1_555 1_555
O2 Mo1 1_555 1_555
O4 Mo3 1_555 1_555
O5 Mo3 1_555 1_555
O6 Mo3 1_555 1_555
O7 Mo2 1_555 1_555
O8 Mo1 1_555 1_555
O9 Cu1 1_555 1_555
O10 Mo1 1_555 1_555
O11 Mo2 1_555 1_555
C1 H1 1_555 1_555
O12 Mo2 1_555 1_555
O13 Mo3 1_555 1_555
O15 Cu2 1_555 1_555
Cu4 O4 1_555 1_555
Cu5 O6 1_555 1_555
N9 Cu1 1_555 1_555
N10 Cu2 1_555 1_555
N11 Cu2 1_555 1_555
Mo3 O2 1_555 1_555
Mo3 O11 1_555 1_555
Cu1 O7 1_555 1_555
Cu2 O13 1_555 1_555
Cu2 O11 1_555 1_555
O10 Cu4 1_555 1_555
O12 Cu5 1_555 1_555
C2 H2 1_555 1_555
Mo5 O10_2 1_555 1_555
C2 N1 1_555 1_555
O14 Mo5 1_555 1_555
Cu3 N5 1_555 1_555
H3 C3 1_555 1_555
H4 C4 1_555 1_555
C5 C3 1_555 1_555
H8 C9 1_555 1_555
C11 H9 1_555 1_555
C12 C11 1_555 1_555
H10 C12 1_555 1_555
C13 C11 1_555 1_555
C15 C13 1_555 1_555
H12 C15 1_555 1_555
C16 H13 1_555 1_555
C17 H14 1_555 1_555
C18 C19 1_555 1_555
C19 C16 1_555 1_555
H15 C19 1_555 1_555
C20 C17 1_555 1_555
H16 C20 1_555 1_555
C21 C5 1_555 1_555
C22 C21 1_555 1_555
C23 C22 1_555 1_555
H17 C23 1_555 1_555
C24 C23 1_555 1_555
H18 C24 1_555 1_555
C25 C24 1_555 1_555
C26 C10 1_555 1_555
C27 C26 1_555 1_555
C28 C27 1_555 1_555
H19 C28 1_555 1_555
C29 C28 1_555 1_555
H20 C29 1_555 1_555
C30 C29 1_555 1_555
C31 C13 1_555 1_555
C32 C31 1_555 1_555
C33 C32 1_555 1_555
H21 C33 1_555 1_555
C34 C33 1_555 1_555
H22 C34 1_555 1_555
C35 C34 1_555 1_555
C36 C18 1_555 1_555
C37 C36 1_555 1_555
C38 C37 1_555 1_555
H23 C38 1_555 1_555
C39 C38 1_555 1_555
H24 C39 1_555 1_555
C40 C21 1_555 1_555
N3 C12 1_555 1_555
N4 C16 1_555 1_555
N5 C27 1_555 1_555
N6 Cu3 1_555 1_555
N7 Cu3 1_555 1_555
N8 Cu3 1_555 1_555
Cu4 N3 1_555 1_555
Cu8 N4 1_555 1_555
C4 C5 1_555 1_555
C9 C10 1_555 1_555
C14 C15 1_555 1_555
C14 N3 1_555 1_555
C17 N4 1_555 1_555
C18 C20 1_555 1_555
C22 N8 1_555 1_555
C25 C26 1_555 1_555
C25 N8 1_555 1_555
C30 C31 1_555 1_555
C30 N5 1_555 1_555
C32 N6 1_555 1_555
C35 C36 1_555 1_555
C35 N6 1_555 1_555
C37 N7 1_555 1_555
C39 C40 1_555 1_555
C40 N7 1_555 1_555
C6 H5 1_555 1_555
C7 H6 1_555 1_555
C8 C7 1_555 1_555
H7 C8 1_555 1_555
N2 C6 1_555 1_555
Cu6 N2 1_555 1_555
C7 N2 1_555 1_555
N11_2 Cu4 1_555 1_555
Mo1_2 O1_2 1_555 1_555
Cu5 O5_2 1_555 1_555
O2_2 Mo1_2 1_555 1_555
O15 Mo5 1_555 1_555
O5_2 Mo5 1_555 1_555
O7_2 Mo4 1_555 1_555
O8_2 Mo1_2 1_555 1_555
O13 Mo1_2 1_555 1_555
O11_2 Mo4 1_555 1_555
C1_2 H1_2 1_555 1_555
C2_2 H2_2 1_555 1_555
N1_2 Cu5 1_555 1_555
N9_2 Cu5 1_555 1_555
Mo5 O2_2 1_555 1_555
Mo5 O11_2 1_555 1_555
Cu5 O7_2 1_555 1_555
C1_2 N1_2 1_555 1_555
C2_2 N1_2 1_555 1_555
C6_2 H5_2 1_555 1_555
C9_2 C6_2 1_555 1_555
H8_2 C9_2 1_555 1_555
C11_2 H9_2 1_555 1_555
C12_2 C11_2 1_555 1_555
H10_2 C12_2 1_555 1_555
C13_2 C11_2 1_555 1_555
C14_2 H11 1_555 1_555
C15_2 C13_2 1_555 1_555
H12_2 C15_2 1_555 1_555
C18_2 C19_2 1_555 1_555
H15_2 C19_2 1_555 1_555
C28_2 C27_2 1_555 1_555
H19_2 C28_2 1_555 1_555
C29_2 C28_2 1_555 1_555
H20_2 C29_2 1_555 1_555
C30_2 C29_2 1_555 1_555
C31_2 C13_2 1_555 1_555
C32_2 C31_2 1_555 1_555
C33_2 C32_2 1_555 1_555
H21_2 C33_2 1_555 1_555
C34_2 C33_2 1_555 1_555
H22_2 C34_2 1_555 1_555
C35_2 C34_2 1_555 1_555
C36_2 C18_2 1_555 1_555
N2_2 C6_2 1_555 1_555
N10 C12_2 1_555 1_555
N5_2 C27_2 1_555 1_555
Cu6_2 N2_2 1_555 1_555
C14_2 C15_2 1_555 1_555
C14_2 N10 1_555 1_555
C30_2 C31_2 1_555 1_555
C30_2 N5_2 1_555 1_555
C32_2 N6_2 1_555 1_555
C35_2 C36_2 1_555 1_555
C35_2 N6_2 1_555 1_555
C16_2 H13_2 1_555 1_555
N4_2 C16_2 1_555 1_555
Cu8_2 N4_2 1_555 1_555
C6_3 H5_3 1_555 1_555
C7_2 H6_2 1_555 1_555
C8_2 C7_2 1_555 1_555
H7_2 C8_2 1_555 1_555
N9_2 C6_3 1_555 1_555
C7_2 N9_2 1_555 1_555
Cu3_2 N5_3 1_555 1_555
H3_2 C3_2 1_555 1_555
H4_2 C4_2 1_555 1_555
C5_2 C3_2 1_555 1_555
H8_3 C9_3 1_555 1_555
C11_3 H9_3 1_555 1_555
C12_3 C11_3 1_555 1_555
H10_3 C12_3 1_555 1_555
C13_3 C11_3 1_555 1_555
C15_3 C13_3 1_555 1_555
H12_3 C15_3 1_555 1_555
C16_3 H13_3 1_555 1_555
C17_2 H14_2 1_555 1_555
C18_3 C19_3 1_555 1_555
C19_3 C16_3 1_555 1_555
H15_3 C19_3 1_555 1_555
C20_2 C17_2 1_555 1_555
H16_2 C20_2 1_555 1_555
C21_2 C5_2 1_555 1_555
C22_2 C21_2 1_555 1_555
C23_2 C22_2 1_555 1_555
H17_2 C23_2 1_555 1_555
C24_2 C23_2 1_555 1_555
H18_2 C24_2 1_555 1_555
C25_2 C24_2 1_555 1_555
C26_2 C10_2 1_555 1_555
C27_3 C26_2 1_555 1_555
C28_3 C27_3 1_555 1_555
H19_3 C28_3 1_555 1_555
C29_3 C28_3 1_555 1_555
H20_3 C29_3 1_555 1_555
C30_3 C29_3 1_555 1_555
C31_3 C13_3 1_555 1_555
C32_3 C31_3 1_555 1_555
C33_3 C32_3 1_555 1_555
H21_3 C33_3 1_555 1_555
C34_3 C33_3 1_555 1_555
H22_3 C34_3 1_555 1_555
C35_3 C34_3 1_555 1_555
C36_3 C18_3 1_555 1_555
C37_2 C36_3 1_555 1_555
C38_2 C37_2 1_555 1_555
H23_2 C38_2 1_555 1_555
C39_2 C38_2 1_555 1_555
H24_2 C39_2 1_555 1_555
C40_2 C21_2 1_555 1_555
N3_2 C12_3 1_555 1_555
N11 C16_3 1_555 1_555
N5_3 C27_3 1_555 1_555
N6_3 Cu3_2 1_555 1_555
N7_2 Cu3_2 1_555 1_555
N8_2 Cu3_2 1_555 1_555
Cu8_2 N3_2 1_555 1_555
C4_2 C5_2 1_555 1_555
C9_3 C10_2 1_555 1_555
C14_3 C15_3 1_555 1_555
C14_3 N3_2 1_555 1_555
C17_2 N11 1_555 1_555
C18_3 C20_2 1_555 1_555
C22_2 N8_2 1_555 1_555
C25_2 C26_2 1_555 1_555
C25_2 N8_2 1_555 1_555
C30_3 C31_3 1_555 1_555
C30_3 N5_3 1_555 1_555
C32_3 N6_3 1_555 1_555
C35_3 C36_3 1_555 1_555
C35_3 N6_3 1_555 1_555
C37_2 N7_2 1_555 1_555
C39_2 C40_2 1_555 1_555
C40_2 N7_2 1_555 1_555
C2_3 H2_3 1_555 1_555
Mo5_2 O10_3 1_555 1_555
C2_3 N1_3 1_555 1_555
O14_2 Mo5_2 1_555 1_555
Mo1_3 O1_3 1_555 1_555
Mo2_2 O3_3 1_555 1_555
Mo3_2 Cu8 1_555 1_555
Cu6_2 O5_3 1_555 1_555
Cu8 O2_3 1_555 1_555
O2_3 Mo1_3 1_555 1_555
O4_2 Mo3_2 1_555 1_555
O5_3 Mo3_2 1_555 1_555
O6_2 Mo3_2 1_555 1_555
O7_3 Mo2_2 1_555 1_555
O8_3 Mo1_3 1_555 1_555
O9_2 Cu6_2 1_555 1_555
O10_4 Mo1_3 1_555 1_555
O11_3 Mo2_2 1_555 1_555
C1_3 H1_3 1_555 1_555
O12_2 Mo2_2 1_555 1_555
O13_2 Mo3_2 1_555 1_555
O15_2 Cu8 1_555 1_555
Cu8_2 O4_2 1_555 1_555
Cu6 O6_2 1_555 1_555
N10_2 Cu8 1_555 1_555
Mo3_2 O2_3 1_555 1_555
Mo3_2 O11_3 1_555 1_555
Cu6_2 O7_3 1_555 1_555
Cu8 O13_2 1_555 1_555
Cu8 O11_3 1_555 1_555
O10_4 Cu8_2 1_555 1_555
O12_2 Cu6 1_555 1_555
C16_4 H13_4 1_555 1_555
N11_2 C16_4 1_555 1_555
C6_4 H5_4 1_555 1_555
C9_4 C6_4 1_555 1_555
H8_4 C9_4 1_555 1_555
C11_4 H9_4 1_555 1_555
C12_4 C11_4 1_555 1_555
H10_4 C12_4 1_555 1_555
C13_4 C11_4 1_555 1_555
C14_4 H11_2 1_555 1_555
C15_4 C13_4 1_555 1_555
H12_4 C15_4 1_555 1_555
C18_4 C19_4 1_555 1_555
H15_4 C19_4 1_555 1_555
C28_4 C27_4 1_555 1_555
H19_4 C28_4 1_555 1_555
C29_4 C28_4 1_555 1_555
H20_4 C29_4 1_555 1_555
C30_4 C29_4 1_555 1_555
C31_4 C13_4 1_555 1_555
C32_4 C31_4 1_555 1_555
C33_4 C32_4 1_555 1_555
H21_4 C33_4 1_555 1_555
C34_4 C33_4 1_555 1_555
H22_4 C34_4 1_555 1_555
C35_4 C34_4 1_555 1_555
C36_4 C18_4 1_555 1_555
N9 C6_4 1_555 1_555
N10_2 C12_4 1_555 1_555
N5_4 C27_4 1_555 1_555
C14_4 C15_4 1_555 1_555
C14_4 N10_2 1_555 1_555
C30_4 C31_4 1_555 1_555
C30_4 N5_4 1_555 1_555
C32_4 N6_4 1_555 1_555
C35_4 C36_4 1_555 1_555
C35_4 N6_4 1_555 1_555
Mo1_4 O1_4 1_555 1_555
Cu6 O5_4 1_555 1_555
O2_4 Mo1_4 1_555 1_555
O15_2 Mo5_2 1_555 1_555
O5_4 Mo5_2 1_555 1_555
O7_4 Mo4_2 1_555 1_555
O8_4 Mo1_4 1_555 1_555
O13_2 Mo1_4 1_555 1_555
O11_4 Mo4_2 1_555 1_555
C1_4 H1_4 1_555 1_555
C2_4 H2_4 1_555 1_555
N1_4 Cu6 1_555 1_555
Mo5_2 O2_4 1_555 1_555
Mo5_2 O11_4 1_555 1_555
Cu6 O7_4 1_555 1_555
C1_4 N1_4 1_555 1_555
C2_4 N1_4 1_555 1_555
H3_3 C3_3 1_555 1_555
H4_3 C4_3 1_555 1_555
C5_3 C3_3 1_555 1_555
C7_3 H6_3 1_555 1_555
C8_3 C7_3 1_555 1_555
H7_3 C8_3 1_555 1_555
C10_3 C8_3 1_555 1_555
H16_3 C20_3 1_555 1_555
C21_3 C5_3 1_555 1_555
C22_3 C21_3 1_555 1_555
C23_3 C22_3 1_555 1_555
H17_3 C23_3 1_555 1_555
C24_3 C23_3 1_555 1_555
H18_3 C24_3 1_555 1_555
C25_3 C24_3 1_555 1_555
C26_3 C10_3 1_555 1_555
C38_3 C37_3 1_555 1_555
H23_3 C38_3 1_555 1_555
C39_3 C38_3 1_555 1_555
H24_3 C39_3 1_555 1_555
C40_3 C21_3 1_555 1_555
N7_3 Cu3_3 1_555 1_555
N8_3 Cu3_3 1_555 1_555
C4_3 C5_3 1_555 1_555
C22_3 N8_3 1_555 1_555
C25_3 C26_3 1_555 1_555
C25_3 N8_3 1_555 1_555
C37_3 N7_3 1_555 1_555
C39_3 C40_3 1_555 1_555
C40_3 N7_3 1_555 1_555
C17_3 H14_3 1_555 1_555
C17_4 H14_4 1_555 1_555
H3_4 C3_4 1_555 1_555
H4_4 C4_4 1_555 1_555
C5_4 C3_4 1_555 1_555
C7_4 H6_4 1_555 1_555
C8_4 C7_4 1_555 1_555
H7_4 C8_4 1_555 1_555
C10_4 C8_4 1_555 1_555
H16_4 C20_4 1_555 1_555
C21_4 C5_4 1_555 1_555
C22_4 C21_4 1_555 1_555
C23_4 C22_4 1_555 1_555
H17_4 C23_4 1_555 1_555
C24_4 C23_4 1_555 1_555
H18_4 C24_4 1_555 1_555
C25_4 C24_4 1_555 1_555
C26_4 C10_4 1_555 1_555
C38_4 C37_4 1_555 1_555
H23_4 C38_4 1_555 1_555
C39_4 C38_4 1_555 1_555
H24_4 C39_4 1_555 1_555
C40_4 C21_4 1_555 1_555
N7_4 Cu3_4 1_555 1_555
N8_4 Cu3_4 1_555 1_555
C4_4 C5_4 1_555 1_555
C22_4 N8_4 1_555 1_555
C25_4 C26_4 1_555 1_555
C25_4 N8_4 1_555 1_555
C37_4 N7_4 1_555 1_555
C39_4 C40_4 1_555 1_555
C40_4 N7_4 1_555 1_555

#END
