
###############################################################################
#
# This file contains modified crystal structure data generated from the
# MOF subset of the Cambridge Structural Database (CSD) v543 
# hosted by the Cambridge Crystallographic Data Centre (CCDC).
#
# This work is licensed under the Creative Commons
# Attribution-NonCommercial-ShareAlike 4.0 International License.
# To view a copy of this license, visit
# http://creativecommons.org/licenses/by-nc-sa/4.0/
# or send a letter to
# Creative Commons, PO Box 1866, Mountain View, CA 94042, USA.
#
# CIF created using the CSD Python API on 29 September 2022
# The structure has been converted into the P1 space group
# The structure has a 3D framework
# The original CSD entry CAZGOZ is in the cubic crystal system
# The framework has been calculated to contain at least 10.0% void space
# The void calculation uses a probe of radius 1.32A, grid spacing 0.4
# The framework is charged, counterions have been retained in the structure
# H atom positions have been added when not included in the experimental data
#
###############################################################################

data_CAZGOZ
_chemical_formula_moiety         '(C240 H192 Fe8 Mo24 N48 O86)n'
_symmetry_cell_setting           triclinic
_symmetry_space_group_name_H-M   'P 1'
_symmetry_Int_Tables_number      1
_space_group_name_Hall           'P 1'
loop_
_symmetry_equiv_pos_site_id
_symmetry_equiv_pos_as_xyz
1 x,y,z
_cell_length_a                   19.66600(10)
_cell_length_b                   19.66600(10)
_cell_length_c                   19.66600(10)
_cell_angle_alpha                90
_cell_angle_beta                 90
_cell_angle_gamma                90
_cell_volume                     7605.86
loop_
_atom_site_label
_atom_site_type_symbol
_atom_site_fract_x
_atom_site_fract_y
_atom_site_fract_z
Mo1 Mo 0.61621(4) 0.51494(4) 0.01317(4)
O1 O 0.7014(3) 0.5235(4) 0.0210(4)
O3 O 0.5000 0.5000 0.0000
O4 O 0.5846(3) 0.5188(3) 0.1027(3)
Mo4 Mo 0.51317(4) 0.38379(4) 0.01494(4)
Mo5 Mo 0.48506(4) 0.51317(4) 0.11621(4)
O10 O 0.5210(4) 0.2986(3) 0.0235(4)
O11 O 0.4991(3) 0.4152(3) 0.1036(3)
O12 O 0.4765(4) 0.5210(4) 0.2014(3)
O13 O 0.3964(3) 0.4991(3) 0.0848(3)
O15 O 0.4152(3) 0.3964(3) 0.0009(3)
O17 O 0.4812(3) 0.6027(3) 0.0846(3)
O18 O 0.6027(3) 0.4154(3) 0.0188(3)
H73 H 0.542071 0.288037 0.0681542
H73_2 H 0.431846 0.542071 0.211963
H74 H 0.493021 0.282962 0.0625157
H74_2 H 0.437484 0.493021 0.217038
H73_3 H 0.711963 0.568154 0.0420712
H74_3 H 0.282962 0.437484 0.00697866
O2 O 0.5848(3) 0.6036(3) 0.9991(3)
O3_2 O 0.5000 0.5000 1.0000
Mo2 Mo 0.48683(4) 0.61621(4) 0.98506(4)
Mo3 Mo 0.51494(4) 0.48683(4) 0.88379(4)
Mo6 Mo 0.38379(4) 0.48506(4) 0.98683(4)
O5 O 0.4790(4) 0.7014(3) 0.9765(4)
O6 O 0.5009(3) 0.5848(3) 0.8964(3)
O7 O 0.5235(4) 0.4790(4) 0.7986(3)
O8 O 0.6036(3) 0.5009(3) 0.9152(3)
O9 O 0.5188(3) 0.3973(3) 0.9154(3)
O14 O 0.2986(3) 0.4765(4) 0.9790(4)
O16 O 0.3973(3) 0.5846(3) 0.9812(3)
O19 O 0.4154(3) 0.4812(3) 0.8973(3)
H74_4 H 0.506979 0.717038 0.937484
H74_5 H 0.562516 0.506979 0.782962
H73_4 H 0.288037 0.431846 0.957929
H74_6 H 0.717038 0.562516 0.993021
H73_5 H 0.457929 0.711963 0.931846
H73_6 H 0.568154 0.457929 0.788037
O3_3 O -0.0000 0.0000 0.0000
O11_2 O 0.0009(3) 0.0848(3) 0.1036(3)
O13_2 O 0.1036(3) 0.0009(3) 0.0848(3)
O15_2 O 0.0848(3) 0.1036(3) 0.0009(3)
H74_7 H 0.00697866 0.217038 0.0625157
H74_8 H 0.0625157 0.00697866 0.217038
H74_9 H 0.217038 0.0625157 0.00697866
O3_4 O -0.0000 0.0000 1.0000
Mo6_2 Mo 0.11621(4) 0.01494(4) 0.98683(4)
O14_2 O 0.2014(3) 0.0235(4) 0.9790(4)
O19_2 O 0.0846(3) 0.0188(3) 0.8973(3)
H73_7 H 0.211963 0.0681542 0.957929
O3_5 O -0.0000 1.0000 0.0000
Mo5_2 Mo 0.01494(4) 0.98683(4) 0.11621(4)
O12_2 O 0.0235(4) 0.9790(4) 0.2014(3)
O17_2 O 0.0188(3) 0.8973(3) 0.0846(3)
H73_8 H 0.0681542 0.957929 0.211963
O3_6 O -0.0000 1.0000 1.0000
Mo2_2 Mo 0.01317(4) 0.88379(4) 0.98506(4)
O5_2 O 0.0210(4) 0.7986(3) 0.9765(4)
O16_2 O 0.1027(3) 0.9154(3) 0.9812(3)
H73_9 H 0.0420712 0.788037 0.931846
O3_7 O 1.0000 0.0000 0.0000
Mo4_2 Mo 0.98683(4) 0.11621(4) 0.01494(4)
O10_2 O 0.9790(4) 0.2014(3) 0.0235(4)
O18_2 O 0.8973(3) 0.0846(3) 0.0188(3)
H73_10 H 0.957929 0.211963 0.0681542
O3_8 O 1.0000 0.0000 1.0000
Mo3_2 Mo 0.98506(4) 0.01317(4) 0.88379(4)
O7_2 O 0.9765(4) 0.0210(4) 0.7986(3)
O9_2 O 0.9812(3) 0.1027(3) 0.9154(3)
H73_11 H 0.931846 0.0420712 0.788037
Mo1_2 Mo 0.88379(4) 0.98506(4) 0.01317(4)
O1_2 O 0.7986(3) 0.9765(4) 0.0210(4)
O3_9 O 1.0000 1.0000 0.0000
O4_2 O 0.9154(3) 0.9812(3) 0.1027(3)
H73_12 H 0.788037 0.931846 0.0420712
O2_2 O 0.9152(3) 0.8964(3) 0.9991(3)
O3_10 O 1.0000 1.0000 1.0000
O6_2 O 0.9991(3) 0.9152(3) 0.8964(3)
O8_2 O 0.8964(3) 0.9991(3) 0.9152(3)
H74_10 H 0.993021 0.782962 0.937484
H74_11 H 0.937484 0.993021 0.782962
H74_12 H 0.782962 0.937484 0.993021
O3_11 O 0.5000 0.0000 0.5000
Mo3_3 Mo 0.51494(4) 0.01317(4) 0.61621(4)
Mo4_3 Mo 0.51317(4) 0.11621(4) 0.48506(4)
Mo6_3 Mo 0.38379(4) 0.01494(4) 0.51317(4)
O7_3 O 0.5235(4) 0.0210(4) 0.7014(3)
O9_3 O 0.5188(3) 0.1027(3) 0.5846(3)
O10_3 O 0.5210(4) 0.2014(3) 0.4765(4)
O11_3 O 0.4991(3) 0.0848(3) 0.3964(3)
O13_3 O 0.3964(3) 0.0009(3) 0.4152(3)
O14_3 O 0.2986(3) 0.0235(4) 0.5210(4)
O15_3 O 0.4152(3) 0.1036(3) 0.4991(3)
O18_3 O 0.6027(3) 0.0846(3) 0.4812(3)
O19_3 O 0.4154(3) 0.0188(3) 0.6027(3)
H73_13 H 0.542071 0.211963 0.431846
H73_14 H 0.288037 0.0681542 0.542071
H74_13 H 0.493021 0.217038 0.437484
H73_15 H 0.568154 0.0420712 0.711963
H74_14 H 0.437484 0.00697866 0.282962
H74_15 H 0.282962 0.0625157 0.493021
Mo1_3 Mo 0.61621(4) 0.98506(4) 0.48683(4)
O1_3 O 0.7014(3) 0.9765(4) 0.4790(4)
O2_3 O 0.5848(3) 0.8964(3) 0.5009(3)
O3_12 O 0.5000 1.0000 0.5000
O4_3 O 0.5846(3) 0.9812(3) 0.3973(3)
Mo2_3 Mo 0.48683(4) 0.88379(4) 0.51494(4)
Mo5_3 Mo 0.48506(4) 0.98683(4) 0.38379(4)
O5_3 O 0.4790(4) 0.7986(3) 0.5235(4)
O6_3 O 0.5009(3) 0.9152(3) 0.6036(3)
O8_3 O 0.6036(3) 0.9991(3) 0.5848(3)
O12_3 O 0.4765(4) 0.9790(4) 0.2986(3)
O16_3 O 0.3973(3) 0.9154(3) 0.5188(3)
O17_3 O 0.4812(3) 0.8973(3) 0.4154(3)
H74_16 H 0.506979 0.782962 0.562516
H73_16 H 0.431846 0.957929 0.288037
H74_17 H 0.562516 0.993021 0.717038
H74_18 H 0.717038 0.937484 0.506979
H73_17 H 0.457929 0.788037 0.568154
H73_18 H 0.711963 0.931846 0.457929
Mo1_4 Mo 0.01317(4) 0.61621(4) 0.51494(4)
O1_4 O 0.0210(4) 0.7014(3) 0.5235(4)
O3_13 O 0.0000 0.5000 0.5000
O4_4 O 0.1027(3) 0.5846(3) 0.5188(3)
Mo4_4 Mo 0.01494(4) 0.51317(4) 0.38379(4)
Mo5_4 Mo 0.11621(4) 0.48506(4) 0.51317(4)
O10_4 O 0.0235(4) 0.5210(4) 0.2986(3)
O11_4 O 0.1036(3) 0.4991(3) 0.4152(3)
O12_4 O 0.2014(3) 0.4765(4) 0.5210(4)
O13_4 O 0.0848(3) 0.3964(3) 0.4991(3)
O15_4 O 0.0009(3) 0.4152(3) 0.3964(3)
O17_4 O 0.0846(3) 0.4812(3) 0.6027(3)
O18_4 O 0.0188(3) 0.6027(3) 0.4154(3)
H73_19 H 0.0681542 0.542071 0.288037
H73_20 H 0.211963 0.431846 0.542071
H74_19 H 0.0625157 0.493021 0.282962
H73_21 H 0.0420712 0.711963 0.568154
H74_20 H 0.00697866 0.282962 0.437484
H74_21 H 0.217038 0.437484 0.493021
O2_4 O 0.9991(3) 0.5848(3) 0.6036(3)
O3_14 O 1.0000 0.5000 0.5000
Mo2_4 Mo 0.98506(4) 0.48683(4) 0.61621(4)
Mo3_4 Mo 0.88379(4) 0.51494(4) 0.48683(4)
Mo6_4 Mo 0.98683(4) 0.38379(4) 0.48506(4)
O5_4 O 0.9765(4) 0.4790(4) 0.7014(3)
O6_4 O 0.8964(3) 0.5009(3) 0.5848(3)
O7_4 O 0.7986(3) 0.5235(4) 0.4790(4)
O8_4 O 0.9152(3) 0.6036(3) 0.5009(3)
O9_4 O 0.9154(3) 0.5188(3) 0.3973(3)
O14_4 O 0.9790(4) 0.2986(3) 0.4765(4)
O16_4 O 0.9812(3) 0.3973(3) 0.5846(3)
O19_4 O 0.8973(3) 0.4154(3) 0.4812(3)
H74_22 H 0.937484 0.506979 0.717038
H73_22 H 0.957929 0.288037 0.431846
H74_23 H 0.993021 0.717038 0.562516
H74_24 H 0.782962 0.562516 0.506979
H73_23 H 0.931846 0.457929 0.711963
H73_24 H 0.788037 0.568154 0.457929
C33 C 0.3068(5) 0.0333(11) 0.2543(5)
H17 H 0.3481 0.0106 0.2589
C34 C 0.3064(5) 0.1031(10) 0.2521(5)
N8 N 0.2500(4) 0.1399 0.2500
C35 C 0.1936(5) 0.1031(10) 0.2479(5)
C36 C 0.1932(5) 0.0333(11) 0.2457(5)
H18 H 0.1519 0.0106 0.2411
H19 H 0.1521 0.1257 0.2479
H20 H 0.3479 0.1257 0.2521
Fe3 Fe 0.2500 0.2500 0.2500
C113 C 0.2543(5) 0.3068(5) 0.0333(11)
H65 H 0.2589 0.3481 0.0106
C114 C 0.2521(5) 0.3064(5) 0.1031(10)
N24 N 0.2500 0.2500(4) 0.1399
C115 C 0.2479(5) 0.1936(5) 0.1031(10)
C116 C 0.2457(5) 0.1932(5) 0.0333(11)
H66 H 0.2411 0.1519 0.0106
H67 H 0.2479 0.1521 0.1257
H68 H 0.2521 0.3479 0.1257
Fe1 Fe 0.2500 0.7500 0.2500
N1 N 0.2500 0.7500(4) 0.6458
N2 N 0.2500(4) 0.3601 0.2500
N3 N 0.2498(3) 0.6796(3) 0.3224(3)
C1 C 0.1939(9) 0.7441(5) 0.6097(5)
H1 H 0.1527 0.7408 0.6328
C2 C 0.1927(10) 0.7424(5) 0.5391(5)
H2 H 0.1515 0.7359 0.5167
C3 C 0.2500 0.7500(5) 0.5025
C4 C 0.2500 0.7500(5) 0.4265
C5 C 0.2484(4) 0.6878(3) 0.3925(4)
C6 C 0.2476(4) 0.6228(4) 0.4261(5)
H3 H 0.2468 0.6153 0.4728
C7 C 0.2484(4) 0.5755(4) 0.3776(5)
H4 H 0.2474 0.5287 0.3844
C8 C 0.2511(3) 0.6097(3) 0.3126(4)
C9 C 0.2500(5) 0.5775 0.2500
C10 C 0.2500(5) 0.5025 0.2500
C11 C 0.3068(5) 0.4667(11) 0.2457(5)
H5 H 0.3481 0.4894 0.2411
C12 C 0.3064(5) 0.3969(10) 0.2479(5)
H6 H 0.3479 0.3743 0.2479
C13 C 0.3073(10) 0.7576(5) 0.5391(5)
C14 C 0.3061(9) 0.7559(5) 0.6097(5)
H7 H 0.3473 0.7592 0.6328
H8 H 0.3485 0.7641 0.5167
C15 C 0.2489(3) 0.6097(3) 0.1874(4)
N4 N 0.2502(3) 0.6796(3) 0.1776(3)
C16 C 0.2516(4) 0.6878(3) 0.1075(4)
C17 C 0.2500 0.7500(5) 0.0735
C23 C 0.2484(4) 0.8122(3) 0.1075(4)
N6 N 0.2498(3) 0.8204(3) 0.1776(3)
C24 C 0.2511(3) 0.8903(3) 0.1874(4)
C25 C 0.2484(4) 0.9245(4) 0.1224(5)
C26 C 0.2476(4) 0.8772(4) 0.0739(5)
H13 H 0.2468 0.8847 0.0272
H14 H 0.2474 0.9713 0.1156
C27 C 0.2500(5) 0.9225 0.2500
C28 C 0.2489(3) 0.8903(3) 0.3126(4)
N7 N 0.2502(3) 0.8204(3) 0.3224(3)
C29 C 0.2516(4) 0.8122(3) 0.3925(4)
C30 C 0.2524(4) 0.8772(4) 0.4261(5)
H15 H 0.2532 0.8847 0.4728
C31 C 0.2516(4) 0.9245(4) 0.3776(5)
H16 H 0.2526 0.9713 0.3844
C32 C 0.2500(5) 0.9975 0.2500
C37 C 0.2524(4) 0.6228(4) 0.0739(5)
H21 H 0.2532 0.6153 0.0272
C38 C 0.2516(4) 0.5755(4) 0.1224(5)
H22 H 0.2526 0.5287 0.1156
C39 C 0.1936(5) 0.3969(10) 0.2521(5)
C40 C 0.1932(5) 0.4667(11) 0.2543(5)
H23 H 0.1519 0.4894 0.2589
H24 H 0.1521 0.3743 0.2521
N17 N 0.6458 0.2500 0.7500(4)
N18 N 0.2500 0.2500(4) 0.3601
N19 N 0.3224(3) 0.2498(3) 0.6796(3)
C81 C 0.6097(5) 0.1939(9) 0.7441(5)
H49 H 0.6328 0.1527 0.7408
C82 C 0.5391(5) 0.1927(10) 0.7424(5)
H50 H 0.5167 0.1515 0.7359
C83 C 0.5025 0.2500 0.7500(5)
C84 C 0.4265 0.2500 0.7500(5)
C85 C 0.3925(4) 0.2484(4) 0.6878(3)
C86 C 0.4261(5) 0.2476(4) 0.6228(4)
H51 H 0.4728 0.2468 0.6153
C87 C 0.3776(5) 0.2484(4) 0.5755(4)
H52 H 0.3844 0.2474 0.5287
C88 C 0.3126(4) 0.2511(3) 0.6097(3)
C89 C 0.2500 0.2500(5) 0.5775
C90 C 0.2500 0.2500(5) 0.5025
C91 C 0.2457(5) 0.3068(5) 0.4667(11)
H53 H 0.2411 0.3481 0.4894
C92 C 0.2479(5) 0.3064(5) 0.3969(10)
H54 H 0.2479 0.3479 0.3743
C93 C 0.5391(5) 0.3073(10) 0.7576(5)
C94 C 0.6097(5) 0.3061(9) 0.7559(5)
H55 H 0.6328 0.3473 0.7592
H56 H 0.5167 0.3485 0.7641
C95 C 0.1874(4) 0.2489(3) 0.6097(3)
N20 N 0.1776(3) 0.2502(3) 0.6796(3)
C96 C 0.1075(4) 0.2516(4) 0.6878(3)
C97 C 0.0735 0.2500 0.7500(5)
C103 C 0.1075(4) 0.2484(4) 0.8122(3)
N22 N 0.1776(3) 0.2498(3) 0.8204(3)
C104 C 0.1874(4) 0.2511(3) 0.8903(3)
C105 C 0.1224(5) 0.2484(4) 0.9245(4)
C106 C 0.0739(5) 0.2476(4) 0.8772(4)
H61 H 0.0272 0.2468 0.8847
H62 H 0.1156 0.2474 0.9713
C107 C 0.2500 0.2500(5) 0.9225
C108 C 0.3126(4) 0.2489(3) 0.8903(3)
N23 N 0.3224(3) 0.2502(3) 0.8204(3)
C109 C 0.3925(4) 0.2516(4) 0.8122(3)
C110 C 0.4261(5) 0.2524(4) 0.8772(4)
H63 H 0.4728 0.2532 0.8847
C111 C 0.3776(5) 0.2516(4) 0.9245(4)
H64 H 0.3844 0.2526 0.9713
C112 C 0.2500 0.2500(5) 0.9975
C117 C 0.0739(5) 0.2524(4) 0.6228(4)
H69 H 0.0272 0.2532 0.6153
C118 C 0.1224(5) 0.2516(4) 0.5755(4)
H70 H 0.1156 0.2526 0.5287
C119 C 0.2521(5) 0.1936(5) 0.3969(10)
C120 C 0.2543(5) 0.1932(5) 0.4667(11)
H71 H 0.2589 0.1519 0.4894
H72 H 0.2521 0.1521 0.3743
N26 N 0.3601 0.2500 0.2500(4)
N27 N 0.1399 0.2500 0.2500(4)
Fe9 Fe 0.7500 0.2500 0.7500
Fe11 Fe 0.2500 0.7500 0.7500
Fe13 Fe 0.2500 0.2500 0.7500
N28 N 0.2500(4) 0.3542 0.7500
N29 N 0.3542 0.7500 0.2500(4)
N30 N 0.1458 0.7500 0.2500(4)
N33 N 0.2500(4) 0.1458 0.7500
C18 C 0.2500 0.7500(5) 0.9975
C19 C 0.3073(10) 0.7424(5) 0.9609(5)
C20 C 0.3061(9) 0.7441(5) 0.8903(5)
N5 N 0.2500 0.7500(4) 0.8542
C21 C 0.1939(9) 0.7559(5) 0.8903(5)
H9 H 0.1527 0.7592 0.8672
C22 C 0.1927(10) 0.7576(5) 0.9609(5)
H10 H 0.1515 0.7641 0.9833
H11 H 0.3473 0.7408 0.8672
H12 H 0.3485 0.7359 0.9833
C98 C 0.9975 0.2500 0.7500(5)
C99 C 0.9609(5) 0.3073(10) 0.7424(5)
C100 C 0.8903(5) 0.3061(9) 0.7441(5)
N21 N 0.8542 0.2500 0.7500(4)
C101 C 0.8903(5) 0.1939(9) 0.7559(5)
H57 H 0.8672 0.1527 0.7592
C102 C 0.9609(5) 0.1927(10) 0.7576(5)
H58 H 0.9833 0.1515 0.7641
H59 H 0.8672 0.3473 0.7408
H60 H 0.9833 0.3485 0.7359
C113_2 C 0.0333(11) 0.2543(5) 0.3068(5)
H65_2 H 0.0106 0.2589 0.3481
C114_2 C 0.1031(10) 0.2521(5) 0.3064(5)
C115_2 C 0.1031(10) 0.2479(5) 0.1936(5)
C116_2 C 0.0333(11) 0.2457(5) 0.1932(5)
H66_2 H 0.0106 0.2411 0.1519
H67_2 H 0.1257 0.2479 0.1521
H68_2 H 0.1257 0.2521 0.3479
N17_2 N 0.7500(4) 0.6458 0.2500
N19_2 N 0.6796(3) 0.3224(3) 0.2498(3)
C81_2 C 0.7441(5) 0.6097(5) 0.1939(9)
H49_2 H 0.7408 0.6328 0.1527
C82_2 C 0.7424(5) 0.5391(5) 0.1927(10)
H50_2 H 0.7359 0.5167 0.1515
C83_2 C 0.7500(5) 0.5025 0.2500
C84_2 C 0.7500(5) 0.4265 0.2500
C85_2 C 0.6878(3) 0.3925(4) 0.2484(4)
C86_2 C 0.6228(4) 0.4261(5) 0.2476(4)
H51_2 H 0.6153 0.4728 0.2468
C87_2 C 0.5755(4) 0.3776(5) 0.2484(4)
H52_2 H 0.5287 0.3844 0.2474
C88_2 C 0.6097(3) 0.3126(4) 0.2511(3)
C89_2 C 0.5775 0.2500 0.2500(5)
C90_2 C 0.5025 0.2500 0.2500(5)
C91_2 C 0.4667(11) 0.2457(5) 0.3068(5)
H53_2 H 0.4894 0.2411 0.3481
C92_2 C 0.3969(10) 0.2479(5) 0.3064(5)
H54_2 H 0.3743 0.2479 0.3479
C93_2 C 0.7576(5) 0.5391(5) 0.3073(10)
C94_2 C 0.7559(5) 0.6097(5) 0.3061(9)
H55_2 H 0.7592 0.6328 0.3473
H56_2 H 0.7641 0.5167 0.3485
C95_2 C 0.6097(3) 0.1874(4) 0.2489(3)
N20_2 N 0.6796(3) 0.1776(3) 0.2502(3)
C96_2 C 0.6878(3) 0.1075(4) 0.2516(4)
C97_2 C 0.7500(5) 0.0735 0.2500
C103_2 C 0.8122(3) 0.1075(4) 0.2484(4)
N22_2 N 0.8204(3) 0.1776(3) 0.2498(3)
C104_2 C 0.8903(3) 0.1874(4) 0.2511(3)
C105_2 C 0.9245(4) 0.1224(5) 0.2484(4)
C106_2 C 0.8772(4) 0.0739(5) 0.2476(4)
H61_2 H 0.8847 0.0272 0.2468
H62_2 H 0.9713 0.1156 0.2474
C107_2 C 0.9225 0.2500 0.2500(5)
C108_2 C 0.8903(3) 0.3126(4) 0.2489(3)
N23_2 N 0.8204(3) 0.3224(3) 0.2502(3)
C109_2 C 0.8122(3) 0.3925(4) 0.2516(4)
C110_2 C 0.8772(4) 0.4261(5) 0.2524(4)
H63_2 H 0.8847 0.4728 0.2532
C111_2 C 0.9245(4) 0.3776(5) 0.2516(4)
H64_2 H 0.9713 0.3844 0.2526
C112_2 C 0.9975 0.2500 0.2500(5)
C117_2 C 0.6228(4) 0.0739(5) 0.2524(4)
H69_2 H 0.6153 0.0272 0.2532
C118_2 C 0.5755(4) 0.1224(5) 0.2516(4)
H70_2 H 0.5287 0.1156 0.2526
C119_2 C 0.3969(10) 0.2521(5) 0.1936(5)
C120_2 C 0.4667(11) 0.2543(5) 0.1932(5)
H71_2 H 0.4894 0.2589 0.1519
H72_2 H 0.3743 0.2521 0.1521
Fe9_2 Fe 0.7500 0.7500 0.2500
Fe13_2 Fe 0.7500 0.2500 0.2500
N28_2 N 0.7500 0.2500(4) 0.3542
N33_2 N 0.7500 0.2500(4) 0.1458
C98_2 C 0.7500(5) 0.9975 0.2500
C99_2 C 0.7424(5) 0.9609(5) 0.3073(10)
C100_2 C 0.7441(5) 0.8903(5) 0.3061(9)
N21_2 N 0.7500(4) 0.8542 0.2500
C101_2 C 0.7559(5) 0.8903(5) 0.1939(9)
H57_2 H 0.7592 0.8672 0.1527
C102_2 C 0.7576(5) 0.9609(5) 0.1927(10)
H58_2 H 0.7641 0.9833 0.1515
H59_2 H 0.7408 0.8672 0.3473
H60_2 H 0.7359 0.9833 0.3485
C98_3 C 0.0025 0.7500 0.2500(5)
C99_3 C 0.0391(5) 0.6927(10) 0.2576(5)
C100_3 C 0.1097(5) 0.6939(9) 0.2559(5)
C101_3 C 0.1097(5) 0.8061(9) 0.2441(5)
H57_3 H 0.1328 0.8473 0.2408
C102_3 C 0.0391(5) 0.8073(10) 0.2424(5)
H58_3 H 0.0167 0.8485 0.2359
H59_3 H 0.1328 0.6527 0.2592
H60_3 H 0.0167 0.6515 0.2641
C58 C 0.7500 0.2500(5) 0.0025
C59 C 0.8073(10) 0.2424(5) 0.0391(5)
C60 C 0.8061(9) 0.2441(5) 0.1097(5)
C61 C 0.6939(9) 0.2559(5) 0.1097(5)
H33 H 0.6527 0.2592 0.1328
C62 C 0.6927(10) 0.2576(5) 0.0391(5)
H34 H 0.6515 0.2641 0.0167
H35 H 0.8473 0.2408 0.1328
H36 H 0.8485 0.2359 0.0167
N11 N 0.7498(3) 0.1796(3) 0.6776(3)
C41 C 0.6939(9) 0.2441(5) 0.3903(5)
H25 H 0.6527 0.2408 0.3672
C42 C 0.6927(10) 0.2424(5) 0.4609(5)
H26 H 0.6515 0.2359 0.4833
C43 C 0.7500 0.2500(5) 0.4975
C44 C 0.7500 0.2500(5) 0.5735
C45 C 0.7484(4) 0.1878(3) 0.6075(4)
C46 C 0.7476(4) 0.1228(4) 0.5739(5)
H27 H 0.7468 0.1153 0.5272
C47 C 0.7484(4) 0.0755(4) 0.6224(5)
H28 H 0.7474 0.0287 0.6156
C48 C 0.7511(3) 0.1097(3) 0.6874(4)
C49 C 0.7500(5) 0.0775 0.7500
C50 C 0.7500(5) 0.0025 0.7500
C53 C 0.8073(10) 0.2576(5) 0.4609(5)
C54 C 0.8061(9) 0.2559(5) 0.3903(5)
H31 H 0.8473 0.2592 0.3672
H32 H 0.8485 0.2641 0.4833
C55 C 0.7489(3) 0.1097(3) 0.8126(4)
N12 N 0.7502(3) 0.1796(3) 0.8224(3)
C56 C 0.7516(4) 0.1878(3) 0.8925(4)
C57 C 0.7500 0.2500(5) 0.9265
C63 C 0.7484(4) 0.3122(3) 0.8925(4)
N14 N 0.7498(3) 0.3204(3) 0.8224(3)
C64 C 0.7511(3) 0.3903(3) 0.8126(4)
C65 C 0.7484(4) 0.4245(4) 0.8776(5)
C66 C 0.7476(4) 0.3772(4) 0.9261(5)
H37 H 0.7468 0.3847 0.9728
H38 H 0.7474 0.4713 0.8844
C67 C 0.7500(5) 0.4225 0.7500
C68 C 0.7489(3) 0.3903(3) 0.6874(4)
N15 N 0.7502(3) 0.3204(3) 0.6776(3)
C69 C 0.7516(4) 0.3122(3) 0.6075(4)
C70 C 0.7524(4) 0.3772(4) 0.5739(5)
H39 H 0.7532 0.3847 0.5272
C71 C 0.7516(4) 0.4245(4) 0.6224(5)
H40 H 0.7526 0.4713 0.6156
C72 C 0.7500(5) 0.4975 0.7500
C73 C 0.8068(5) 0.5333(11) 0.7457(5)
H41 H 0.8481 0.5106 0.7411
C74 C 0.8064(5) 0.6031(10) 0.7479(5)
N16 N 0.7500(4) 0.6399 0.7500
C75 C 0.6936(5) 0.6031(10) 0.7521(5)
C76 C 0.6932(5) 0.5333(11) 0.7543(5)
H42 H 0.6519 0.5106 0.7589
H43 H 0.6521 0.6257 0.7521
H44 H 0.8479 0.6257 0.7479
C77 C 0.7524(4) 0.1228(4) 0.9261(5)
H45 H 0.7532 0.1153 0.9728
C78 C 0.7516(4) 0.0755(4) 0.8776(5)
H46 H 0.7526 0.0287 0.8844
Fe4 Fe 0.7500 0.7500 0.7500
N10 N 0.7500(4) 0.8601 0.7500
C51 C 0.8068(5) 0.9667(11) 0.7543(5)
H29 H 0.8481 0.9894 0.7589
C52 C 0.8064(5) 0.8969(10) 0.7521(5)
H30 H 0.8479 0.8743 0.7521
C79 C 0.6936(5) 0.8969(10) 0.7479(5)
C80 C 0.6932(5) 0.9667(11) 0.7457(5)
H47 H 0.6519 0.9894 0.7411
H48 H 0.6521 0.8743 0.7479
N18_2 N 0.7500 0.7500(4) 0.6399
N19_3 N 0.6776(3) 0.7502(3) 0.3204(3)
C81_3 C 0.3903(5) 0.8061(9) 0.2559(5)
H49_3 H 0.3672 0.8473 0.2592
C82_3 C 0.4609(5) 0.8073(10) 0.2576(5)
H50_3 H 0.4833 0.8485 0.2641
C83_3 C 0.4975 0.7500 0.2500(5)
C84_3 C 0.5735 0.7500 0.2500(5)
C85_3 C 0.6075(4) 0.7516(4) 0.3122(3)
C86_3 C 0.5739(5) 0.7524(4) 0.3772(4)
H51_3 H 0.5272 0.7532 0.3847
C87_3 C 0.6224(5) 0.7516(4) 0.4245(4)
H52_3 H 0.6156 0.7526 0.4713
C88_3 C 0.6874(4) 0.7489(3) 0.3903(3)
C89_3 C 0.7500 0.7500(5) 0.4225
C90_3 C 0.7500 0.7500(5) 0.4975
C91_3 C 0.7543(5) 0.6932(5) 0.5333(11)
H53_3 H 0.7589 0.6519 0.5106
C92_3 C 0.7521(5) 0.6936(5) 0.6031(10)
H54_3 H 0.7521 0.6521 0.6257
C93_3 C 0.4609(5) 0.6927(10) 0.2424(5)
C94_3 C 0.3903(5) 0.6939(9) 0.2441(5)
H55_3 H 0.3672 0.6527 0.2408
H56_3 H 0.4833 0.6515 0.2359
C95_3 C 0.8126(4) 0.7511(3) 0.3903(3)
N20_3 N 0.8224(3) 0.7498(3) 0.3204(3)
C96_3 C 0.8925(4) 0.7484(4) 0.3122(3)
C97_3 C 0.9265 0.7500 0.2500(5)
C103_3 C 0.8925(4) 0.7516(4) 0.1878(3)
N22_3 N 0.8224(3) 0.7502(3) 0.1796(3)
C104_3 C 0.8126(4) 0.7489(3) 0.1097(3)
C105_3 C 0.8776(5) 0.7516(4) 0.0755(4)
C106_3 C 0.9261(5) 0.7524(4) 0.1228(4)
H61_3 H 0.9728 0.7532 0.1153
H62_3 H 0.8844 0.7526 0.0287
C107_3 C 0.7500 0.7500(5) 0.0775
C108_3 C 0.6874(4) 0.7511(3) 0.1097(3)
N23_3 N 0.6776(3) 0.7498(3) 0.1796(3)
C109_3 C 0.6075(4) 0.7484(4) 0.1878(3)
C110_3 C 0.5739(5) 0.7476(4) 0.1228(4)
H63_3 H 0.5272 0.7468 0.1153
C111_3 C 0.6224(5) 0.7484(4) 0.0755(4)
H64_3 H 0.6156 0.7474 0.0287
C112_3 C 0.7500 0.7500(5) 0.0025
C117_3 C 0.9261(5) 0.7476(4) 0.3772(4)
H69_3 H 0.9728 0.7468 0.3847
C118_3 C 0.8776(5) 0.7484(4) 0.4245(4)
H70_3 H 0.8844 0.7474 0.4713
C119_3 C 0.7479(5) 0.8064(5) 0.6031(10)
C120_3 C 0.7457(5) 0.8068(5) 0.5333(11)
H71_3 H 0.7411 0.8481 0.5106
H72_3 H 0.7479 0.8479 0.6257
N25 N 0.7500 0.7500(4) 0.8601
N26_2 N 0.6399 0.7500 0.7500(4)
N27_2 N 0.8601 0.7500 0.7500(4)
C113_3 C 0.7457(5) 0.6932(5) 0.9667(11)
H65_3 H 0.7411 0.6519 0.9894
C114_3 C 0.7479(5) 0.6936(5) 0.8969(10)
C115_3 C 0.7521(5) 0.8064(5) 0.8969(10)
C116_3 C 0.7543(5) 0.8068(5) 0.9667(11)
H66_3 H 0.7589 0.8481 0.9894
H67_3 H 0.7521 0.8479 0.8743
H68_3 H 0.7479 0.6521 0.8743
C98_4 C 0.2500(5) 0.0025 0.7500
C99_4 C 0.2576(5) 0.0391(5) 0.6927(10)
C100_4 C 0.2559(5) 0.1097(5) 0.6939(9)
C101_4 C 0.2441(5) 0.1097(5) 0.8061(9)
H57_4 H 0.2408 0.1328 0.8473
C102_4 C 0.2424(5) 0.0391(5) 0.8073(10)
H58_4 H 0.2359 0.0167 0.8485
H59_4 H 0.2592 0.1328 0.6527
H60_4 H 0.2641 0.0167 0.6515
N19_4 N 0.3204(3) 0.6776(3) 0.7502(3)
C81_4 C 0.2559(5) 0.3903(5) 0.8061(9)
H49_4 H 0.2592 0.3672 0.8473
C82_4 C 0.2576(5) 0.4609(5) 0.8073(10)
H50_4 H 0.2641 0.4833 0.8485
C83_4 C 0.2500(5) 0.4975 0.7500
C84_4 C 0.2500(5) 0.5735 0.7500
C85_4 C 0.3122(3) 0.6075(4) 0.7516(4)
C86_4 C 0.3772(4) 0.5739(5) 0.7524(4)
H51_4 H 0.3847 0.5272 0.7532
C87_4 C 0.4245(4) 0.6224(5) 0.7516(4)
H52_4 H 0.4713 0.6156 0.7526
C88_4 C 0.3903(3) 0.6874(4) 0.7489(3)
C89_4 C 0.4225 0.7500 0.7500(5)
C90_4 C 0.4975 0.7500 0.7500(5)
C91_4 C 0.5333(11) 0.7543(5) 0.6932(5)
H53_4 H 0.5106 0.7589 0.6519
C92_4 C 0.6031(10) 0.7521(5) 0.6936(5)
H54_4 H 0.6257 0.7521 0.6521
C93_4 C 0.2424(5) 0.4609(5) 0.6927(10)
C94_4 C 0.2441(5) 0.3903(5) 0.6939(9)
H55_4 H 0.2408 0.3672 0.6527
H56_4 H 0.2359 0.4833 0.6515
C95_4 C 0.3903(3) 0.8126(4) 0.7511(3)
N20_4 N 0.3204(3) 0.8224(3) 0.7498(3)
C96_4 C 0.3122(3) 0.8925(4) 0.7484(4)
C97_4 C 0.2500(5) 0.9265 0.7500
C103_4 C 0.1878(3) 0.8925(4) 0.7516(4)
N22_4 N 0.1796(3) 0.8224(3) 0.7502(3)
C104_4 C 0.1097(3) 0.8126(4) 0.7489(3)
C105_4 C 0.0755(4) 0.8776(5) 0.7516(4)
C106_4 C 0.1228(4) 0.9261(5) 0.7524(4)
H61_4 H 0.1153 0.9728 0.7532
H62_4 H 0.0287 0.8844 0.7526
C107_4 C 0.0775 0.7500 0.7500(5)
C108_4 C 0.1097(3) 0.6874(4) 0.7511(3)
N23_4 N 0.1796(3) 0.6776(3) 0.7498(3)
C109_4 C 0.1878(3) 0.6075(4) 0.7484(4)
C110_4 C 0.1228(4) 0.5739(5) 0.7476(4)
H63_4 H 0.1153 0.5272 0.7468
C111_4 C 0.0755(4) 0.6224(5) 0.7484(4)
H64_4 H 0.0287 0.6156 0.7474
C112_4 C 0.0025 0.7500 0.7500(5)
C117_4 C 0.3772(4) 0.9261(5) 0.7476(4)
H69_4 H 0.3847 0.9728 0.7468
C118_4 C 0.4245(4) 0.8776(5) 0.7484(4)
H70_4 H 0.4713 0.8844 0.7474
C119_4 C 0.6031(10) 0.7479(5) 0.8064(5)
C120_4 C 0.5333(11) 0.7457(5) 0.8068(5)
H71_4 H 0.5106 0.7411 0.8481
H72_4 H 0.6257 0.7479 0.8479
C113_4 C 0.9667(11) 0.7457(5) 0.6932(5)
H65_4 H 0.9894 0.7411 0.6519
C114_4 C 0.8969(10) 0.7479(5) 0.6936(5)
C115_4 C 0.8969(10) 0.7521(5) 0.8064(5)
C116_4 C 0.9667(11) 0.7543(5) 0.8068(5)
H66_4 H 0.9894 0.7589 0.8481
H67_4 H 0.8743 0.7521 0.8479
H68_4 H 0.8743 0.7479 0.6521
loop_
_geom_bond_atom_site_label_1
_geom_bond_atom_site_label_2
_geom_bond_site_symmetry_1
_geom_bond_site_symmetry_2
Mo1 O1 1_555 1_555
O3 Mo1 1_555 1_555
O4 Mo1 1_555 1_555
Mo4 Mo1 1_555 1_555
Mo5 Mo1 1_555 1_555
O10 Mo4 1_555 1_555
O11 Mo4 1_555 1_555
O12 Mo5 1_555 1_555
O13 Mo5 1_555 1_555
O15 Mo4 1_555 1_555
O18 Mo1 1_555 1_555
O3 Mo4 1_555 1_555
O3 Mo5 1_555 1_555
O4 Mo5 1_555 1_555
Mo4 Mo5 1_555 1_555
Mo4 O18 1_555 1_555
Mo5 O11 1_555 1_555
Mo5 O17 1_555 1_555
O10 H73 1_555 1_555
O12 H73_2 1_555 1_555
O10 H74 1_555 1_555
O12 H74_2 1_555 1_555
O1 H73_3 1_555 1_555
Mo6 O3_2 1_555 1_555
O5 Mo2 1_555 1_555
O6 Mo2 1_555 1_555
O7 Mo3 1_555 1_555
O9 Mo3 1_555 1_555
O14 Mo6 1_555 1_555
O16 Mo2 1_555 1_555
O19 Mo3 1_555 1_555
O2 Mo2 1_555 1_555
O3_2 Mo2 1_555 1_555
O3_2 Mo3 1_555 1_555
Mo2 Mo3 1_555 1_555
Mo2 Mo6 1_555 1_555
Mo3 Mo6 1_555 1_555
Mo3 O6 1_555 1_555
Mo3 O8 1_555 1_555
Mo6 O16 1_555 1_555
Mo6 O19 1_555 1_555
O5 H74_4 1_555 1_555
O7 H74_5 1_555 1_555
O14 H73_4 1_555 1_555
O5 H73_5 1_555 1_555
O7 H73_6 1_555 1_555
Mo6_2 O3_4 1_555 1_555
O14_2 Mo6_2 1_555 1_555
Mo6_2 O19_2 1_555 1_555
O14_2 H73_7 1_555 1_555
O12_2 Mo5_2 1_555 1_555
O3_5 Mo5_2 1_555 1_555
Mo5_2 O17_2 1_555 1_555
O12_2 H73_8 1_555 1_555
O5_2 Mo2_2 1_555 1_555
O16_2 Mo2_2 1_555 1_555
O3_6 Mo2_2 1_555 1_555
O5_2 H73_9 1_555 1_555
O10_2 Mo4_2 1_555 1_555
O3_7 Mo4_2 1_555 1_555
Mo4_2 O18_2 1_555 1_555
O10_2 H73_10 1_555 1_555
O7_2 Mo3_2 1_555 1_555
O9_2 Mo3_2 1_555 1_555
O3_8 Mo3_2 1_555 1_555
O7_2 H73_11 1_555 1_555
Mo1_2 O1_2 1_555 1_555
O3_9 Mo1_2 1_555 1_555
O4_2 Mo1_2 1_555 1_555
O1_2 H73_12 1_555 1_555
Mo6_3 O3_11 1_555 1_555
O7_3 Mo3_3 1_555 1_555
O9_3 Mo3_3 1_555 1_555
O10_3 Mo4_3 1_555 1_555
O11_3 Mo4_3 1_555 1_555
O14_3 Mo6_3 1_555 1_555
O15_3 Mo4_3 1_555 1_555
O19_3 Mo3_3 1_555 1_555
O3_11 Mo3_3 1_555 1_555
O3_11 Mo4_3 1_555 1_555
Mo3_3 Mo4_3 1_555 1_555
Mo3_3 Mo6_3 1_555 1_555
Mo4_3 Mo6_3 1_555 1_555
Mo4_3 O9_3 1_555 1_555
Mo4_3 O18_3 1_555 1_555
Mo6_3 O13_3 1_555 1_555
Mo6_3 O15_3 1_555 1_555
Mo6_3 O19_3 1_555 1_555
O10_3 H73_13 1_555 1_555
O14_3 H73_14 1_555 1_555
O10_3 H74_13 1_555 1_555
O7_3 H73_15 1_555 1_555
O14_3 H74_15 1_555 1_555
Mo1_3 O1_3 1_555 1_555
O2_3 Mo1_3 1_555 1_555
O3_12 Mo1_3 1_555 1_555
O4_3 Mo1_3 1_555 1_555
Mo2_3 Mo1_3 1_555 1_555
Mo5_3 Mo1_3 1_555 1_555
O5_3 Mo2_3 1_555 1_555
O6_3 Mo2_3 1_555 1_555
O8_3 Mo1_3 1_555 1_555
O12_3 Mo5_3 1_555 1_555
O16_3 Mo2_3 1_555 1_555
O17_3 Mo2_3 1_555 1_555
O2_3 Mo2_3 1_555 1_555
O3_12 Mo2_3 1_555 1_555
O3_12 Mo5_3 1_555 1_555
O4_3 Mo5_3 1_555 1_555
Mo2_3 Mo5_3 1_555 1_555
Mo5_3 O17_3 1_555 1_555
O5_3 H74_16 1_555 1_555
O12_3 H73_16 1_555 1_555
O1_3 H74_18 1_555 1_555
O5_3 H73_17 1_555 1_555
O1_3 H73_18 1_555 1_555
Mo1_4 O1_4 1_555 1_555
O3_13 Mo1_4 1_555 1_555
O4_4 Mo1_4 1_555 1_555
Mo4_4 Mo1_4 1_555 1_555
Mo5_4 Mo1_4 1_555 1_555
O10_4 Mo4_4 1_555 1_555
O11_4 Mo4_4 1_555 1_555
O12_4 Mo5_4 1_555 1_555
O13_4 Mo5_4 1_555 1_555
O15_4 Mo4_4 1_555 1_555
O18_4 Mo1_4 1_555 1_555
O3_13 Mo4_4 1_555 1_555
O3_13 Mo5_4 1_555 1_555
O4_4 Mo5_4 1_555 1_555
Mo4_4 Mo5_4 1_555 1_555
Mo4_4 O18_4 1_555 1_555
Mo5_4 O11_4 1_555 1_555
Mo5_4 O17_4 1_555 1_555
O10_4 H73_19 1_555 1_555
O12_4 H73_20 1_555 1_555
O10_4 H74_19 1_555 1_555
O1_4 H73_21 1_555 1_555
O12_4 H74_21 1_555 1_555
Mo6_4 O3_14 1_555 1_555
O5_4 Mo2_4 1_555 1_555
O6_4 Mo2_4 1_555 1_555
O7_4 Mo3_4 1_555 1_555
O9_4 Mo3_4 1_555 1_555
O14_4 Mo6_4 1_555 1_555
O16_4 Mo2_4 1_555 1_555
O19_4 Mo3_4 1_555 1_555
O2_4 Mo2_4 1_555 1_555
O3_14 Mo2_4 1_555 1_555
O3_14 Mo3_4 1_555 1_555
Mo2_4 Mo3_4 1_555 1_555
Mo2_4 Mo6_4 1_555 1_555
Mo3_4 Mo6_4 1_555 1_555
Mo3_4 O6_4 1_555 1_555
Mo3_4 O8_4 1_555 1_555
Mo6_4 O16_4 1_555 1_555
Mo6_4 O19_4 1_555 1_555
O5_4 H74_22 1_555 1_555
O14_4 H73_22 1_555 1_555
O7_4 H74_24 1_555 1_555
O5_4 H73_23 1_555 1_555
O7_4 H73_24 1_555 1_555
H17 C33 1_555 1_555
C34 C33 1_555 1_555
N8 C34 1_555 1_555
C35 N8 1_555 1_555
H18 C36 1_555 1_555
H19 C35 1_555 1_555
H20 C34 1_555 1_555
Fe3 N8 1_555 1_555
C35 C36 1_555 1_555
H65 C113 1_555 1_555
C114 C113 1_555 1_555
N24 C114 1_555 1_555
C115 N24 1_555 1_555
H66 C116 1_555 1_555
H67 C115 1_555 1_555
H68 C114 1_555 1_555
Fe3 N24 1_555 1_555
C115 C116 1_555 1_555
Fe1 N3 1_555 1_555
Fe3 N2 1_555 1_555
N1 C1 1_555 1_555
N2 C12 1_555 1_555
N3 C5 1_555 1_555
C1 H1 1_555 1_555
C2 C1 1_555 1_555
H2 C2 1_555 1_555
C3 C2 1_555 1_555
C4 C3 1_555 1_555
C5 C4 1_555 1_555
C6 C5 1_555 1_555
H3 C6 1_555 1_555
C7 C6 1_555 1_555
H4 C7 1_555 1_555
C8 N3 1_555 1_555
C9 C8 1_555 1_555
C10 C9 1_555 1_555
C11 C10 1_555 1_555
H5 C11 1_555 1_555
C12 C11 1_555 1_555
H6 C12 1_555 1_555
C13 C3 1_555 1_555
C14 N1 1_555 1_555
H7 C14 1_555 1_555
H8 C13 1_555 1_555
C15 C9 1_555 1_555
N4 Fe1 1_555 1_555
C16 N4 1_555 1_555
C17 C16 1_555 1_555
C23 C17 1_555 1_555
N6 Fe1 1_555 1_555
C24 N6 1_555 1_555
C25 C24 1_555 1_555
C26 C23 1_555 1_555
H13 C26 1_555 1_555
H14 C25 1_555 1_555
C27 C24 1_555 1_555
C28 C27 1_555 1_555
N7 Fe1 1_555 1_555
C29 C4 1_555 1_555
C30 C29 1_555 1_555
H15 C30 1_555 1_555
C31 C28 1_555 1_555
H16 C31 1_555 1_555
C32 C27 1_555 1_555
C37 C16 1_555 1_555
H21 C37 1_555 1_555
C38 C15 1_555 1_555
H22 C38 1_555 1_555
C39 N2 1_555 1_555
C40 C10 1_555 1_555
H23 C40 1_555 1_555
H24 C39 1_555 1_555
N17 C81 1_555 1_555
N18 Fe3 1_555 1_555
N19 C85 1_555 1_555
C81 H49 1_555 1_555
C82 C81 1_555 1_555
H50 C82 1_555 1_555
C83 C82 1_555 1_555
C84 C83 1_555 1_555
C85 C84 1_555 1_555
C86 C85 1_555 1_555
H51 C86 1_555 1_555
C87 C86 1_555 1_555
H52 C87 1_555 1_555
C88 N19 1_555 1_555
C89 C88 1_555 1_555
C90 C89 1_555 1_555
C91 C90 1_555 1_555
H53 C91 1_555 1_555
C92 N18 1_555 1_555
H54 C92 1_555 1_555
C93 C83 1_555 1_555
C94 N17 1_555 1_555
H55 C94 1_555 1_555
H56 C93 1_555 1_555
C95 C89 1_555 1_555
N20 C95 1_555 1_555
C96 N20 1_555 1_555
C97 C96 1_555 1_555
C103 C97 1_555 1_555
N22 C103 1_555 1_555
C104 N22 1_555 1_555
C105 C104 1_555 1_555
C106 C103 1_555 1_555
H61 C106 1_555 1_555
H62 C105 1_555 1_555
C107 C104 1_555 1_555
C108 C107 1_555 1_555
N23 C108 1_555 1_555
C109 C84 1_555 1_555
C110 C109 1_555 1_555
H63 C110 1_555 1_555
C111 C108 1_555 1_555
H64 C111 1_555 1_555
C112 C107 1_555 1_555
C117 C96 1_555 1_555
H69 C117 1_555 1_555
C118 C95 1_555 1_555
H70 C118 1_555 1_555
C119 N18 1_555 1_555
C120 C90 1_555 1_555
H71 C120 1_555 1_555
H72 C119 1_555 1_555
N26 Fe3 1_555 1_555
N27 Fe3 1_555 1_555
Fe9 N17 1_555 1_555
Fe11 N1 1_555 1_555
Fe13 N19 1_555 1_555
N28 Fe13 1_555 1_555
N29 Fe1 1_555 1_555
N30 Fe1 1_555 1_555
N33 Fe13 1_555 1_555
C7 C8 1_555 1_555
C13 C14 1_555 1_555
C15 N4 1_555 1_555
C23 N6 1_555 1_555
C25 C26 1_555 1_555
C28 N7 1_555 1_555
N7 C29 1_555 1_555
C30 C31 1_555 1_555
C37 C38 1_555 1_555
C39 C40 1_555 1_555
C87 C88 1_555 1_555
C91 C92 1_555 1_555
C93 C94 1_555 1_555
N20 Fe13 1_555 1_555
N22 Fe13 1_555 1_555
C105 C106 1_555 1_555
N23 C109 1_555 1_555
N23 Fe13 1_555 1_555
C110 C111 1_555 1_555
C117 C118 1_555 1_555
C119 C120 1_555 1_555
C19 C18 1_555 1_555
C20 C19 1_555 1_555
N5 C20 1_555 1_555
C21 N5 1_555 1_555
H9 C21 1_555 1_555
C22 C18 1_555 1_555
H10 C22 1_555 1_555
H11 C20 1_555 1_555
H12 C19 1_555 1_555
Fe11 N5 1_555 1_555
C21 C22 1_555 1_555
C99 C98 1_555 1_555
C100 C99 1_555 1_555
N21 C100 1_555 1_555
C101 N21 1_555 1_555
H57 C101 1_555 1_555
C102 C98 1_555 1_555
H58 C102 1_555 1_555
H59 C100 1_555 1_555
H60 C99 1_555 1_555
Fe9 N21 1_555 1_555
C101 C102 1_555 1_555
H65_2 C113_2 1_555 1_555
C114_2 C113_2 1_555 1_555
N27 C114_2 1_555 1_555
C115_2 N27 1_555 1_555
H66_2 C116_2 1_555 1_555
H67_2 C115_2 1_555 1_555
H68_2 C114_2 1_555 1_555
C115_2 C116_2 1_555 1_555
N17_2 C81_2 1_555 1_555
N19_2 C85_2 1_555 1_555
C81_2 H49_2 1_555 1_555
C82_2 C81_2 1_555 1_555
H50_2 C82_2 1_555 1_555
C83_2 C82_2 1_555 1_555
C84_2 C83_2 1_555 1_555
C85_2 C84_2 1_555 1_555
C86_2 C85_2 1_555 1_555
H51_2 C86_2 1_555 1_555
C87_2 C86_2 1_555 1_555
H52_2 C87_2 1_555 1_555
C88_2 N19_2 1_555 1_555
C89_2 C88_2 1_555 1_555
C90_2 C89_2 1_555 1_555
C91_2 C90_2 1_555 1_555
H53_2 C91_2 1_555 1_555
C92_2 N26 1_555 1_555
H54_2 C92_2 1_555 1_555
C93_2 C83_2 1_555 1_555
C94_2 N17_2 1_555 1_555
H55_2 C94_2 1_555 1_555
H56_2 C93_2 1_555 1_555
C95_2 C89_2 1_555 1_555
N20_2 C95_2 1_555 1_555
C96_2 N20_2 1_555 1_555
C97_2 C96_2 1_555 1_555
C103_2 C97_2 1_555 1_555
N22_2 C103_2 1_555 1_555
C104_2 N22_2 1_555 1_555
C105_2 C104_2 1_555 1_555
C106_2 C103_2 1_555 1_555
H61_2 C106_2 1_555 1_555
H62_2 C105_2 1_555 1_555
C107_2 C104_2 1_555 1_555
C108_2 C107_2 1_555 1_555
N23_2 C108_2 1_555 1_555
C109_2 C84_2 1_555 1_555
C110_2 C109_2 1_555 1_555
H63_2 C110_2 1_555 1_555
C111_2 C108_2 1_555 1_555
H64_2 C111_2 1_555 1_555
C112_2 C107_2 1_555 1_555
C117_2 C96_2 1_555 1_555
H69_2 C117_2 1_555 1_555
C118_2 C95_2 1_555 1_555
H70_2 C118_2 1_555 1_555
C119_2 N26 1_555 1_555
C120_2 C90_2 1_555 1_555
H71_2 C120_2 1_555 1_555
H72_2 C119_2 1_555 1_555
Fe9_2 N17_2 1_555 1_555
Fe13_2 N19_2 1_555 1_555
N28_2 Fe13_2 1_555 1_555
N33_2 Fe13_2 1_555 1_555
C87_2 C88_2 1_555 1_555
C91_2 C92_2 1_555 1_555
C93_2 C94_2 1_555 1_555
N20_2 Fe13_2 1_555 1_555
N22_2 Fe13_2 1_555 1_555
C105_2 C106_2 1_555 1_555
N23_2 C109_2 1_555 1_555
N23_2 Fe13_2 1_555 1_555
C110_2 C111_2 1_555 1_555
C117_2 C118_2 1_555 1_555
C119_2 C120_2 1_555 1_555
C99_2 C98_2 1_555 1_555
C100_2 C99_2 1_555 1_555
N21_2 C100_2 1_555 1_555
C101_2 N21_2 1_555 1_555
H57_2 C101_2 1_555 1_555
C102_2 C98_2 1_555 1_555
H58_2 C102_2 1_555 1_555
H59_2 C100_2 1_555 1_555
H60_2 C99_2 1_555 1_555
Fe9_2 N21_2 1_555 1_555
C101_2 C102_2 1_555 1_555
C99_3 C98_3 1_555 1_555
C100_3 C99_3 1_555 1_555
N30 C100_3 1_555 1_555
C101_3 N30 1_555 1_555
H57_3 C101_3 1_555 1_555
C102_3 C98_3 1_555 1_555
H58_3 C102_3 1_555 1_555
H59_3 C100_3 1_555 1_555
H60_3 C99_3 1_555 1_555
C101_3 C102_3 1_555 1_555
C59 C58 1_555 1_555
C60 C59 1_555 1_555
N33_2 C60 1_555 1_555
C61 N33_2 1_555 1_555
H33 C61 1_555 1_555
C62 C58 1_555 1_555
H34 C62 1_555 1_555
H35 C60 1_555 1_555
H36 C59 1_555 1_555
C61 C62 1_555 1_555
N28_2 C41 1_555 1_555
N11 C45 1_555 1_555
C41 H25 1_555 1_555
C42 C41 1_555 1_555
H26 C42 1_555 1_555
C43 C42 1_555 1_555
C44 C43 1_555 1_555
C45 C44 1_555 1_555
C46 C45 1_555 1_555
H27 C46 1_555 1_555
C47 C46 1_555 1_555
H28 C47 1_555 1_555
C48 N11 1_555 1_555
C49 C48 1_555 1_555
C50 C49 1_555 1_555
C53 C43 1_555 1_555
C54 N28_2 1_555 1_555
H31 C54 1_555 1_555
H32 C53 1_555 1_555
C55 C49 1_555 1_555
N12 C55 1_555 1_555
C56 N12 1_555 1_555
C57 C56 1_555 1_555
C63 C57 1_555 1_555
N14 C63 1_555 1_555
C64 N14 1_555 1_555
C65 C64 1_555 1_555
C66 C63 1_555 1_555
H37 C66 1_555 1_555
H38 C65 1_555 1_555
C67 C64 1_555 1_555
C68 C67 1_555 1_555
N15 C68 1_555 1_555
C69 C44 1_555 1_555
C70 C69 1_555 1_555
H39 C70 1_555 1_555
C71 C68 1_555 1_555
H40 C71 1_555 1_555
C72 C67 1_555 1_555
C73 C72 1_555 1_555
H41 C73 1_555 1_555
C74 C73 1_555 1_555
N16 C74 1_555 1_555
C75 N16 1_555 1_555
C76 C72 1_555 1_555
H42 C76 1_555 1_555
H43 C75 1_555 1_555
H44 C74 1_555 1_555
C77 C56 1_555 1_555
H45 C77 1_555 1_555
C78 C55 1_555 1_555
H46 C78 1_555 1_555
Fe4 N16 1_555 1_555
Fe9 N11 1_555 1_555
C47 C48 1_555 1_555
C53 C54 1_555 1_555
N12 Fe9 1_555 1_555
N14 Fe9 1_555 1_555
C65 C66 1_555 1_555
N15 C69 1_555 1_555
N15 Fe9 1_555 1_555
C70 C71 1_555 1_555
C75 C76 1_555 1_555
C77 C78 1_555 1_555
N10 Fe4 1_555 1_555
H29 C51 1_555 1_555
C52 N10 1_555 1_555
H30 C52 1_555 1_555
C79 N10 1_555 1_555
H47 C80 1_555 1_555
H48 C79 1_555 1_555
N29 C81_3 1_555 1_555
N18_2 Fe4 1_555 1_555
N19_3 C85_3 1_555 1_555
C81_3 H49_3 1_555 1_555
C82_3 C81_3 1_555 1_555
H50_3 C82_3 1_555 1_555
C83_3 C82_3 1_555 1_555
C84_3 C83_3 1_555 1_555
C85_3 C84_3 1_555 1_555
C86_3 C85_3 1_555 1_555
H51_3 C86_3 1_555 1_555
C87_3 C86_3 1_555 1_555
H52_3 C87_3 1_555 1_555
C88_3 N19_3 1_555 1_555
C89_3 C88_3 1_555 1_555
C90_3 C89_3 1_555 1_555
C91_3 C90_3 1_555 1_555
H53_3 C91_3 1_555 1_555
C92_3 N18_2 1_555 1_555
H54_3 C92_3 1_555 1_555
C93_3 C83_3 1_555 1_555
C94_3 N29 1_555 1_555
H55_3 C94_3 1_555 1_555
H56_3 C93_3 1_555 1_555
C95_3 C89_3 1_555 1_555
N20_3 C95_3 1_555 1_555
C96_3 N20_3 1_555 1_555
C97_3 C96_3 1_555 1_555
C103_3 C97_3 1_555 1_555
N22_3 C103_3 1_555 1_555
C104_3 N22_3 1_555 1_555
C105_3 C104_3 1_555 1_555
C106_3 C103_3 1_555 1_555
H61_3 C106_3 1_555 1_555
H62_3 C105_3 1_555 1_555
C107_3 C104_3 1_555 1_555
C108_3 C107_3 1_555 1_555
N23_3 C108_3 1_555 1_555
C109_3 C84_3 1_555 1_555
C110_3 C109_3 1_555 1_555
H63_3 C110_3 1_555 1_555
C111_3 C108_3 1_555 1_555
H64_3 C111_3 1_555 1_555
C112_3 C107_3 1_555 1_555
C117_3 C96_3 1_555 1_555
H69_3 C117_3 1_555 1_555
C118_3 C95_3 1_555 1_555
H70_3 C118_3 1_555 1_555
C119_3 N18_2 1_555 1_555
C120_3 C90_3 1_555 1_555
H71_3 C120_3 1_555 1_555
H72_3 C119_3 1_555 1_555
N25 Fe4 1_555 1_555
N26_2 Fe4 1_555 1_555
N27_2 Fe4 1_555 1_555
Fe9_2 N19_3 1_555 1_555
C51 C52 1_555 1_555
C79 C80 1_555 1_555
C87_3 C88_3 1_555 1_555
C91_3 C92_3 1_555 1_555
C93_3 C94_3 1_555 1_555
N20_3 Fe9_2 1_555 1_555
N22_3 Fe9_2 1_555 1_555
C105_3 C106_3 1_555 1_555
N23_3 C109_3 1_555 1_555
N23_3 Fe9_2 1_555 1_555
C110_3 C111_3 1_555 1_555
C117_3 C118_3 1_555 1_555
C119_3 C120_3 1_555 1_555
H65_3 C113_3 1_555 1_555
C114_3 C113_3 1_555 1_555
N25 C114_3 1_555 1_555
C115_3 N25 1_555 1_555
H66_3 C116_3 1_555 1_555
H67_3 C115_3 1_555 1_555
H68_3 C114_3 1_555 1_555
C115_3 C116_3 1_555 1_555
C99_4 C98_4 1_555 1_555
C100_4 C99_4 1_555 1_555
N33 C100_4 1_555 1_555
C101_4 N33 1_555 1_555
H57_4 C101_4 1_555 1_555
C102_4 C98_4 1_555 1_555
H58_4 C102_4 1_555 1_555
H59_4 C100_4 1_555 1_555
H60_4 C99_4 1_555 1_555
C101_4 C102_4 1_555 1_555
N28 C81_4 1_555 1_555
N19_4 C85_4 1_555 1_555
C81_4 H49_4 1_555 1_555
C82_4 C81_4 1_555 1_555
H50_4 C82_4 1_555 1_555
C83_4 C82_4 1_555 1_555
C84_4 C83_4 1_555 1_555
C85_4 C84_4 1_555 1_555
C86_4 C85_4 1_555 1_555
H51_4 C86_4 1_555 1_555
C87_4 C86_4 1_555 1_555
H52_4 C87_4 1_555 1_555
C88_4 N19_4 1_555 1_555
C89_4 C88_4 1_555 1_555
C90_4 C89_4 1_555 1_555
C91_4 C90_4 1_555 1_555
H53_4 C91_4 1_555 1_555
C92_4 N26_2 1_555 1_555
H54_4 C92_4 1_555 1_555
C93_4 C83_4 1_555 1_555
C94_4 N28 1_555 1_555
H55_4 C94_4 1_555 1_555
H56_4 C93_4 1_555 1_555
C95_4 C89_4 1_555 1_555
N20_4 C95_4 1_555 1_555
C96_4 N20_4 1_555 1_555
C97_4 C96_4 1_555 1_555
C103_4 C97_4 1_555 1_555
N22_4 C103_4 1_555 1_555
C104_4 N22_4 1_555 1_555
C105_4 C104_4 1_555 1_555
C106_4 C103_4 1_555 1_555
H61_4 C106_4 1_555 1_555
H62_4 C105_4 1_555 1_555
C107_4 C104_4 1_555 1_555
C108_4 C107_4 1_555 1_555
N23_4 C108_4 1_555 1_555
C109_4 C84_4 1_555 1_555
C110_4 C109_4 1_555 1_555
H63_4 C110_4 1_555 1_555
C111_4 C108_4 1_555 1_555
H64_4 C111_4 1_555 1_555
C112_4 C107_4 1_555 1_555
C117_4 C96_4 1_555 1_555
H69_4 C117_4 1_555 1_555
C118_4 C95_4 1_555 1_555
H70_4 C118_4 1_555 1_555
C119_4 N26_2 1_555 1_555
C120_4 C90_4 1_555 1_555
H71_4 C120_4 1_555 1_555
H72_4 C119_4 1_555 1_555
Fe11 N19_4 1_555 1_555
C87_4 C88_4 1_555 1_555
C91_4 C92_4 1_555 1_555
C93_4 C94_4 1_555 1_555
N20_4 Fe11 1_555 1_555
N22_4 Fe11 1_555 1_555
C105_4 C106_4 1_555 1_555
N23_4 C109_4 1_555 1_555
N23_4 Fe11 1_555 1_555
C110_4 C111_4 1_555 1_555
C117_4 C118_4 1_555 1_555
C119_4 C120_4 1_555 1_555
H65_4 C113_4 1_555 1_555
C114_4 C113_4 1_555 1_555
N27_2 C114_4 1_555 1_555
C115_4 N27_2 1_555 1_555
H66_4 C116_4 1_555 1_555
H67_4 C115_4 1_555 1_555
H68_4 C114_4 1_555 1_555
C115_4 C116_4 1_555 1_555

#END
