
###############################################################################
#
# This file contains modified crystal structure data generated from the
# MOF subset of the Cambridge Structural Database (CSD) v543 
# hosted by the Cambridge Crystallographic Data Centre (CCDC).
#
# This work is licensed under the Creative Commons
# Attribution-NonCommercial-ShareAlike 4.0 International License.
# To view a copy of this license, visit
# http://creativecommons.org/licenses/by-nc-sa/4.0/
# or send a letter to
# Creative Commons, PO Box 1866, Mountain View, CA 94042, USA.
#
# CIF created using the CSD Python API on 29 September 2022
# The structure has been converted into the P1 space group
# The structure has a 3D framework
# The original CSD entry CAZNOI is in the monoclinic crystal system
# The original CSD entry CAZNOI is in a Sohncke space group
# The framework has been calculated to contain at least 10.0% void space
# The void calculation uses a probe of radius 1.32A, grid spacing 0.4
# The framework is charged, counterions have been retained in the structure
# H atom positions have been added when not included in the experimental data
#
###############################################################################

data_CAZNOI
_chemical_formula_moiety         '(C140 H108 Co6 N12 O41 2-)n'
_symmetry_cell_setting           triclinic
_symmetry_space_group_name_H-M   'P 1'
_symmetry_Int_Tables_number      1
_space_group_name_Hall           'P 1'
loop_
_symmetry_equiv_pos_site_id
_symmetry_equiv_pos_as_xyz
1 x,y,z
_cell_length_a                   15.061(8)
_cell_length_b                   28.353(16)
_cell_length_c                   17.069(10)
_cell_angle_alpha                90
_cell_angle_beta                 100.653(9)
_cell_angle_gamma                90
_cell_volume                     7163.26
loop_
_atom_site_label
_atom_site_type_symbol
_atom_site_fract_x
_atom_site_fract_y
_atom_site_fract_z
Co9 Co 0.48635(8) 0.06915(4) 0.24076(6)
O28 O 0.5661(5) 0.0171(3) 0.0912(4)
O30 O 0.3656(5) 0.0063(2) 0.0842(4)
O23 O 0.5985(4) 0.0040(2) 0.4111(4)
O24 O 0.3951(5) 0.0118(2) 0.3820(4)
Co1 Co 0.47826(8) 0.97005(4) 0.13205(6)
N4 N 0.4691(6) 0.9339(3) 0.0207(4)
C2 C 0.0790(7) 0.6570(4) 0.2353(6)
H3 H 0.0628 0.6240 0.2375
H4 H 0.1369 0.6617 0.2702
C4 C 0.0864(6) 0.6700(3) 0.1510(5)
C5 C 0.0329(7) 0.6638(4) 0.4254(7)
H5 H 0.0759 0.6867 0.4129
H6 H 0.0290 0.6671 0.4812
C8 C 0.1133(7) 0.7197(4) 0.1449(6)
H11 H 0.1200 0.7269 0.0907
H12 H 0.0676 0.7405 0.1592
C9 C 0.1525(8) 0.6360(4) 0.1256(6)
H13 H 0.2100 0.6375 0.1621
H14 H 0.1296 0.6040 0.1255
H16 H 0.0032 0.6691 0.0430
C11 C 0.1410(8) 0.6024(4) 0.4579(7)
C12 C 0.1714(9) 0.5596(4) 0.4386(8)
H17 H 0.1402 0.5428 0.3954
C13 C 0.2496(9) 0.5415(4) 0.4845(8)
H18 H 0.2692 0.5118 0.4719
C14 C 0.2992(7) 0.5653(4) 0.5475(6)
C15 C 0.2671(9) 0.6085(4) 0.5630(8)
H19 H 0.2991 0.6262 0.6047
C16 C 0.1880(9) 0.6273(5) 0.5185(8)
H20 H 0.1678 0.6569 0.5308
C17 C 0.3805(7) 0.5464(3) 0.5972(5)
C32 C 0.2372(8) 0.7700(4) 0.2030(7)
C33 C 0.234(2) 0.7999(9) 0.1385(11)
H29 H 0.1999 0.7919 0.0890
C34 C 0.2811(14) 0.8412(6) 0.1486(9)
H30 H 0.2797 0.8609 0.1048
C35 C 0.3289(7) 0.8545(4) 0.2182(6)
C36 C 0.3237(15) 0.8282(6) 0.2774(9)
H31 H 0.3438 0.8403 0.3283
C37 C 0.2885(15) 0.7807(8) 0.2705(10)
H32 H 0.3018 0.7591 0.3119
C38 C 0.3800(6) 0.9005(3) 0.2262(5)
C39 C 0.2189(8) 0.6224(5) 0.0112(7)
H35 H 0.3518 0.5336 0.0196
C44 C 0.2680(8) 0.5844(4) 0.0436(7)
H36 H 0.2654 0.5744 0.0951
C59 C 0.4699(11) 0.8882(4) 0.0180(7)
H43 H 0.4664 0.8712 0.0639
O1 O 0.0120(5) 0.6855(3) 0.2619(4)
O2 O 0.5957(7) 0.9240(4) 0.1722(5)
O3 O 0.0622(5) 0.6170(3) 0.4104(5)
O6 O 0.1983(6) 0.7266(3) 0.1990(5)
O7 O 0.1634(6) 0.6488(3) 0.0489(5)
O9 O 0.4262(5) 0.5735(2) 0.6465(4)
O10 O 0.4015(4) 0.5040(2) 0.5889(4)
O15 O 0.3981(5) 0.9173(3) 0.2929(4)
O16 O 0.4004(6) 0.9167(3) 0.1647(4)
O21 O 0.5077(4) 0.9973(2) 0.2443(3)
Co6 Co 0.51365(8) 0.56915(4) 0.75924(6)
Co10 Co 0.51467(8) 0.46705(4) 0.65341(6)
Co13 Co 0.48533(8) 0.96705(4) 0.34659(6)
H53 H 0.641871 0.929586 0.138557
H54 H 0.621938 0.931161 0.228684
N1 N 0.4805(7) 0.8861(3) 0.7391(4)
N2 N 0.4878(7) 0.8142(3) 0.6736(5)
N3 N 0.4856(7) 0.8145(3) 0.8115(5)
N5 N 0.4843(6) 0.9312(3) 0.4578(4)
N6 N 0.5089(6) 0.6442(3) 0.7536(4)
C40 C 0.2268(9) 0.6391(5) 0.9354(7)
H33 H 0.1921 0.6644 0.9125
C41 C 0.2863(9) 0.6174(5) 0.8959(7)
H34 H 0.2971 0.6303 0.8485
C42 C 0.3315(6) 0.5760(4) 0.9255(6)
C43 C 0.3216(9) 0.5608(4) 0.9989(7)
C45 C 0.3959(7) 0.5533(3) 0.8801(6)
C53 C 0.4818(9) 0.8614(3) 0.8066(5)
C54 C 0.4846(9) 0.8598(3) 0.6752(5)
C55 C 0.4908(8) 0.7932(4) 0.7442(5)
C56 C 0.4774(10) 0.8872(4) 0.8805(6)
C57 C 0.4771(10) 0.9356(4) 0.8846(6)
H41 H 0.4813 0.9533 0.8396
C58 C 0.4710(10) 0.9573(4) 0.9528(6)
H42 H 0.4678 0.9900 0.9533
C60 C 0.4759(13) 0.8644(4) 0.9500(6)
H44 H 0.4789 0.8316 0.9513
C61 C 0.4846(8) 0.8851(3) 0.6000(5)
C62 C 0.4838(8) 0.9335(3) 0.5958(5)
H45 H 0.4834 0.9515 0.6413
C63 C 0.4836(8) 0.9548(3) 0.5238(5)
H46 H 0.4830 0.9876 0.5216
C64 C 0.4841(9) 0.8849(4) 0.4623(6)
H47 H 0.4841 0.8679 0.4157
C65 C 0.4838(8) 0.8597(3) 0.5322(5)
H48 H 0.4832 0.8269 0.5325
C66 C 0.4966(8) 0.7418(4) 0.7473(5)
C67 C 0.4979(10) 0.7178(3) 0.8175(6)
H49 H 0.4941 0.7343 0.8638
C68 C 0.5048(9) 0.6694(3) 0.8191(6)
H50 H 0.5066 0.6537 0.8672
C69 C 0.5084(9) 0.6678(3) 0.6863(6)
H51 H 0.5110 0.6508 0.6402
C70 C 0.5043(9) 0.7155(3) 0.6816(5)
H52 H 0.5067 0.7305 0.6335
O17 O 0.4339(5) 0.5171(3) 0.9088(4)
O18 O 0.4040(4) 0.5729(3) 0.8164(4)
Co4 Co 0.52174(8) 0.47005(4) 0.86795(6)
O25 O 0.6236(4) 0.5691(3) 0.7056(4)
O26 O 0.5922(5) 0.9135(2) 0.3315(4)
O29 O 0.5995(5) 0.5785(2) 0.8653(4)
O31 O 0.4923(4) 0.4973(2) 0.7557(3)
C1 C 0.9411(6) 0.6602(4) 0.2871(6)
H1 H 0.9493 0.6266 0.2808
H2 H 0.8833 0.6692 0.2554
C3 C 0.9435(6) 0.6721(3) 0.3753(6)
C6 C 0.8726(7) 0.6385(4) 0.4017(6)
H7 H 0.8146 0.6421 0.3665
H8 H 0.8918 0.6060 0.3993
C7 C 0.9207(7) 0.7228(4) 0.3876(6)
H9 H 0.9258 0.7293 0.4441
H10 H 0.9622 0.7433 0.3667
C10 C 0.9974(7) 0.6638(4) 0.0980(6)
H15 H 0.9547 0.6865 0.1117
C18 C 0.8085(9) 0.6238(5) 0.5154(8)
C19 C 0.7643(10) 0.5847(5) 0.4814(8)
H21 H 0.7694 0.5751 0.4304
C20 C 0.7112(8) 0.5597(4) 0.5264(6)
H22 H 0.6839 0.5318 0.5060
C21 C 0.6983(7) 0.5749(4) 0.5990(6)
C22 C 0.7417(8) 0.6148(5) 0.6284(7)
H23 H 0.7332 0.6258 0.6778
C23 C 0.7983(9) 0.6398(5) 0.5877(7)
H24 H 0.8283 0.6668 0.6097
C24 C 0.6376(7) 0.5503(3) 0.6438(5)
C25 C 0.7954(8) 0.7748(4) 0.3589(8)
C26 C 0.8403(9) 0.8095(5) 0.4021(10)
H25 H 0.8993 0.8049 0.4288
C27 C 0.7984(9) 0.8517(5) 0.4066(8)
H26 H 0.8305 0.8762 0.4352
C28 C 0.7112(8) 0.8593(4) 0.3708(7)
C29 C 0.6681(8) 0.8227(5) 0.3240(9)
H27 H 0.6096 0.8268 0.2959
C30 C 0.7103(9) 0.7825(5) 0.3198(10)
H28 H 0.6803 0.7585 0.2885
C31 C 0.6639(9) 0.9047(4) 0.3738(7)
C46 C 0.8848(7) 0.6032(4) 0.0553(6)
C47 C 0.8636(9) 0.5588(5) 0.0643(9)
H37 H 0.9008 0.5395 0.1004
C48 C 0.7832(9) 0.5410(4) 0.0179(8)
H38 H 0.7659 0.5100 0.0242
C51 C 0.8332(8) 0.6324(4) 0.0035(8)
O4 O 0.8652(6) 0.6501(3) 0.4791(5)
O5 O 0.8310(5) 0.7312(3) 0.3475(5)
O8 O 0.9655(5) 0.6179(3) 0.1064(5)
O11 O 0.6049(5) 0.5118(2) 0.6180(4)
O13 O 0.7045(6) 0.9332(3) 0.4315(5)
C49 C 0.7314(6) 0.5695(4) 0.9640(5)
C50 C 0.7562(8) 0.6150(4) 0.9585(7)
H39 H 0.7197 0.6349 0.9229
H40 H 0.8498 0.6637 0.9988
C52 C 0.6487(7) 0.5504(4) 0.9107(6)
O20 O 0.6344(5) 0.5063(2) 0.9158(4)
C49_2 C 0.2686(6) 0.0695(4) 0.0360(5)
C50_2 C 0.2438(8) 0.1150(4) 0.0415(7)
H39_2 H 0.2803 0.1349 0.0771
H40_2 H 0.1502 0.1637 0.0012
C52_2 C 0.3513(7) 0.0504(4) 0.0893(6)
O19 O 0.4005(5) 0.0785(2) 0.1347(4)
C1_2 C 0.0589(6) 0.1602(4) 0.7129(6)
H1_2 H 0.0507 0.1266 0.7192
H2_2 H 0.1167 0.1692 0.7446
C3_2 C 0.0565(6) 0.1721(3) 0.6247(6)
C6_2 C 0.1274(7) 0.1385(4) 0.5983(6)
H7_2 H 0.1854 0.1421 0.6335
H8_2 H 0.1082 0.1060 0.6007
C7_2 C 0.0793(7) 0.2228(4) 0.6124(6)
H9_2 H 0.0742 0.2293 0.5559
H10_2 H 0.0378 0.2433 0.6333
C10_2 C 0.0026(7) 0.1638(4) 0.9020(6)
H15_2 H 0.0453 0.1865 0.8883
C18_2 C 0.1915(9) 0.1238(5) 0.4846(8)
C19_2 C 0.2357(10) 0.0847(5) 0.5186(8)
H21_2 H 0.2306 0.0751 0.5696
C20_2 C 0.2888(8) 0.0597(4) 0.4736(6)
H22_2 H 0.3161 0.0318 0.4940
C21_2 C 0.3017(7) 0.0749(4) 0.4010(6)
C22_2 C 0.2583(8) 0.1148(5) 0.3716(7)
H23_2 H 0.2668 0.1258 0.3222
C23_2 C 0.2017(9) 0.1398(5) 0.4123(7)
H24_2 H 0.1717 0.1668 0.3903
C24_2 C 0.3624(7) 0.0503(3) 0.3562(5)
C25_2 C 0.2046(8) 0.2748(4) 0.6411(8)
C26_2 C 0.1597(9) 0.3095(5) 0.5979(10)
H25_2 H 0.1007 0.3049 0.5712
C27_2 C 0.2016(9) 0.3517(5) 0.5934(8)
H26_2 H 0.1695 0.3762 0.5648
C28_2 C 0.2888(8) 0.3593(4) 0.6292(7)
C29_2 C 0.3319(8) 0.3227(5) 0.6760(9)
H27_2 H 0.3904 0.3268 0.7041
C30_2 C 0.2897(9) 0.2825(5) 0.6802(10)
H28_2 H 0.3197 0.2585 0.7115
C31_2 C 0.3361(9) 0.4047(4) 0.6262(7)
C46_2 C 0.1152(7) 0.1032(4) 0.9447(6)
C47_2 C 0.1364(9) 0.0588(5) 0.9357(9)
H37_2 H 0.0992 0.0395 0.8996
C48_2 C 0.2168(9) 0.0410(4) 0.9821(8)
H38_2 H 0.2341 0.0100 0.9758
C51_2 C 0.1668(8) 0.1324(4) 0.9965(8)
O4_2 O 0.1348(6) 0.1501(3) 0.5209(5)
O5_2 O 0.1690(5) 0.2312(3) 0.6525(5)
O8_2 O 0.0345(5) 0.1179(3) 0.8936(5)
O12 O 0.3764(4) 0.0691(3) 0.2944(4)
O13_2 O 0.2955(6) 0.4332(3) 0.5685(5)
O14 O 0.4078(5) 0.4135(2) 0.6685(4)
N1_2 N 0.5195(7) 0.3861(3) 0.2609(4)
N2_2 N 0.5122(7) 0.3142(3) 0.3264(5)
N3_2 N 0.5144(7) 0.3145(3) 0.1885(5)
N5_2 N 0.5157(6) 0.4312(3) 0.5422(4)
N6_2 N 0.4911(6) 0.1442(3) 0.2464(4)
C40_2 C 0.7732(9) 0.1391(5) 0.0646(7)
H33_2 H 0.8079 0.1644 0.0875
C41_2 C 0.7137(9) 0.1174(5) 0.1041(7)
H34_2 H 0.7029 0.1303 0.1515
C42_2 C 0.6685(6) 0.0760(4) 0.0745(6)
C43_2 C 0.6784(9) 0.0608(4) 0.0011(7)
C45_2 C 0.6041(7) 0.0533(3) 0.1199(6)
C53_2 C 0.5182(9) 0.3614(3) 0.1934(5)
C54_2 C 0.5154(9) 0.3598(3) 0.3248(5)
C55_2 C 0.5092(8) 0.2932(4) 0.2558(5)
C56_2 C 0.5226(10) 0.3872(4) 0.1195(6)
C57_2 C 0.5229(10) 0.4356(4) 0.1154(6)
H41_2 H 0.5187 0.4533 0.1604
C58_2 C 0.5290(10) 0.4573(4) 0.0472(6)
H42_2 H 0.5322 0.4900 0.0467
C60_2 C 0.5241(13) 0.3644(4) 0.0500(6)
H44_2 H 0.5211 0.3316 0.0487
C61_2 C 0.5154(8) 0.3851(3) 0.4000(5)
C62_2 C 0.5162(8) 0.4335(3) 0.4042(5)
H45_2 H 0.5166 0.4515 0.3587
C63_2 C 0.5164(8) 0.4548(3) 0.4762(5)
H46_2 H 0.5170 0.4876 0.4784
C64_2 C 0.5159(9) 0.3849(4) 0.5377(6)
H47_2 H 0.5159 0.3679 0.5843
C65_2 C 0.5162(8) 0.3597(3) 0.4678(5)
H48_2 H 0.5168 0.3269 0.4675
C66_2 C 0.5034(8) 0.2418(4) 0.2527(5)
C67_2 C 0.5021(10) 0.2178(3) 0.1825(6)
H49_2 H 0.5059 0.2343 0.1362
C68_2 C 0.4952(9) 0.1694(3) 0.1809(6)
H50_2 H 0.4934 0.1537 0.1328
C69_2 C 0.4916(9) 0.1678(3) 0.3137(6)
H51_2 H 0.4890 0.1508 0.3598
C70_2 C 0.4957(9) 0.2155(3) 0.3184(5)
H52_2 H 0.4933 0.2305 0.3665
O18_2 O 0.5960(4) 0.0729(3) 0.1836(4)
O22 O 0.5738(5) 0.0735(2) 0.3535(4)
O27 O 0.6019(5) 0.4173(3) 0.7071(4)
N4_2 N 0.5309(6) 0.4339(3) 0.9793(4)
C2_2 C 0.9210(7) 0.1570(4) 0.7647(6)
H3_2 H 0.9372 0.1240 0.7625
H4_2 H 0.8631 0.1617 0.7298
C4_2 C 0.9136(6) 0.1700(3) 0.8490(5)
C5_2 C 0.9671(7) 0.1638(4) 0.5746(7)
H5_2 H 0.9241 0.1867 0.5871
H6_2 H 0.9710 0.1671 0.5188
C8_2 C 0.8867(7) 0.2197(4) 0.8551(6)
H11_2 H 0.8800 0.2269 0.9093
H12_2 H 0.9324 0.2405 0.8408
C9_2 C 0.8475(8) 0.1360(4) 0.8744(6)
H13_2 H 0.7900 0.1375 0.8379
H14_2 H 0.8704 0.1040 0.8745
H16_2 H 0.9968 0.1691 0.9570
C11_2 C 0.8590(8) 0.1024(4) 0.5421(7)
C12_2 C 0.8286(9) 0.0596(4) 0.5614(8)
H17_2 H 0.8598 0.0428 0.6046
C13_2 C 0.7504(9) 0.0415(4) 0.5155(8)
H18_2 H 0.7308 0.0118 0.5281
C14_2 C 0.7008(7) 0.0653(4) 0.4525(6)
C15_2 C 0.7329(9) 0.1085(4) 0.4370(8)
H19_2 H 0.7009 0.1262 0.3953
C16_2 C 0.8120(9) 0.1273(5) 0.4815(8)
H20_2 H 0.8322 0.1569 0.4692
C17_2 C 0.6195(7) 0.0464(3) 0.4028(5)
C32_2 C 0.7628(8) 0.2700(4) 0.7970(7)
C33_2 C 0.766(2) 0.2999(9) 0.8615(11)
H29_2 H 0.8001 0.2919 0.9110
C34_2 C 0.7189(14) 0.3412(6) 0.8514(9)
H30_2 H 0.7203 0.3609 0.8952
C35_2 C 0.6711(7) 0.3545(4) 0.7818(6)
C36_2 C 0.6763(15) 0.3282(6) 0.7226(9)
H31_2 H 0.6562 0.3403 0.6717
C37_2 C 0.7115(15) 0.2807(8) 0.7295(10)
H32_2 H 0.6982 0.2591 0.6881
C38_2 C 0.6200(6) 0.4005(3) 0.7738(5)
C39_2 C 0.7811(8) 0.1224(5) 0.9888(7)
H35_2 H 0.6482 0.0336 0.9804
C44_2 C 0.7320(8) 0.0844(4) 0.9564(7)
H36_2 H 0.7346 0.0744 0.9049
C59_2 C 0.5301(11) 0.3882(4) 0.9820(7)
H43_2 H 0.5336 0.3712 0.9361
O1_2 O 0.9880(5) 0.1855(3) 0.7381(4)
O2_2 O 0.4043(7) 0.4240(4) 0.8278(5)
O3_2 O 0.9378(5) 0.1170(3) 0.5896(5)
O6_2 O 0.8017(6) 0.2266(3) 0.8010(5)
O7_2 O 0.8366(6) 0.1488(3) 0.9511(5)
O16_2 O 0.5996(6) 0.4167(3) 0.8353(4)
H53_2 H 0.358129 0.429586 0.861443
H54_2 H 0.378062 0.431161 0.771316
loop_
_geom_bond_atom_site_label_1
_geom_bond_atom_site_label_2
_geom_bond_site_symmetry_1
_geom_bond_site_symmetry_2
Co1 N4 1_555 1_555
C2 H3 1_555 1_555
H4 C2 1_555 1_555
C4 C2 1_555 1_555
H5 C5 1_555 1_555
H6 C5 1_555 1_555
C8 C4 1_555 1_555
H11 C8 1_555 1_555
H12 C8 1_555 1_555
C9 C4 1_555 1_555
H13 C9 1_555 1_555
H14 C9 1_555 1_555
C11 C12 1_555 1_555
C12 H17 1_555 1_555
C13 C12 1_555 1_555
H18 C13 1_555 1_555
C14 C13 1_555 1_555
C15 C14 1_555 1_555
H19 C15 1_555 1_555
C16 C11 1_555 1_555
H20 C16 1_555 1_555
C17 C14 1_555 1_555
C32 C33 1_555 1_555
C33 H29 1_555 1_555
C34 C33 1_555 1_555
H30 C34 1_555 1_555
C35 C34 1_555 1_555
C36 C35 1_555 1_555
H31 C36 1_555 1_555
C37 C32 1_555 1_555
H32 C37 1_555 1_555
C38 C35 1_555 1_555
C44 C39 1_555 1_555
H36 C44 1_555 1_555
C59 N4 1_555 1_555
H43 C59 1_555 1_555
O2 Co1 1_555 1_555
O3 C5 1_555 1_555
O6 C8 1_555 1_555
O7 C9 1_555 1_555
O9 C17 1_555 1_555
O10 C17 1_555 1_555
O15 C38 1_555 1_555
O16 Co1 1_555 1_555
O21 Co1 1_555 1_555
Co6 O9 1_555 1_555
Co10 O10 1_555 1_555
Co13 O15 1_555 1_555
C2 O1 1_555 1_555
C11 O3 1_555 1_555
C15 C16 1_555 1_555
C32 O6 1_555 1_555
C36 C37 1_555 1_555
C38 O16 1_555 1_555
C39 O7 1_555 1_555
O21 Co13 1_555 1_555
O2 H53 1_555 1_555
O2 H54 1_555 1_555
Co6 N6 1_555 1_555
Co13 N5 1_555 1_555
N1 C53 1_555 1_555
N2 C54 1_555 1_555
N3 C53 1_555 1_555
N5 C63 1_555 1_555
N6 C68 1_555 1_555
C40 H33 1_555 1_555
C41 C40 1_555 1_555
H34 C41 1_555 1_555
C42 C41 1_555 1_555
C43 C42 1_555 1_555
C45 C42 1_555 1_555
C53 C56 1_555 1_555
C54 N1 1_555 1_555
C55 N2 1_555 1_555
C56 C57 1_555 1_555
C57 H41 1_555 1_555
C58 C57 1_555 1_555
H42 C58 1_555 1_555
C60 C56 1_555 1_555
H44 C60 1_555 1_555
C61 C54 1_555 1_555
C62 C61 1_555 1_555
H45 C62 1_555 1_555
C63 C62 1_555 1_555
H46 C63 1_555 1_555
C64 N5 1_555 1_555
H47 C64 1_555 1_555
C65 C61 1_555 1_555
H48 C65 1_555 1_555
C66 C55 1_555 1_555
C67 C66 1_555 1_555
H49 C67 1_555 1_555
C68 C67 1_555 1_555
H50 C68 1_555 1_555
C69 N6 1_555 1_555
H51 C69 1_555 1_555
C70 C66 1_555 1_555
H52 C70 1_555 1_555
O17 C45 1_555 1_555
O18 Co6 1_555 1_555
Co4 O17 1_555 1_555
O25 Co6 1_555 1_555
O26 Co13 1_555 1_555
O29 Co6 1_555 1_555
O31 Co6 1_555 1_555
N3 C55 1_555 1_555
C45 O18 1_555 1_555
C64 C65 1_555 1_555
C69 C70 1_555 1_555
Co4 O31 1_555 1_555
C1 H1 1_555 1_555
H2 C1 1_555 1_555
C3 C1 1_555 1_555
C6 C3 1_555 1_555
H7 C6 1_555 1_555
H8 C6 1_555 1_555
C7 C3 1_555 1_555
H9 C7 1_555 1_555
H10 C7 1_555 1_555
H15 C10 1_555 1_555
C18 C19 1_555 1_555
C19 H21 1_555 1_555
C20 C19 1_555 1_555
H22 C20 1_555 1_555
C21 C20 1_555 1_555
C22 C21 1_555 1_555
H23 C22 1_555 1_555
C23 C18 1_555 1_555
H24 C23 1_555 1_555
C24 C21 1_555 1_555
C25 C26 1_555 1_555
C26 H25 1_555 1_555
C27 C26 1_555 1_555
H26 C27 1_555 1_555
C28 C27 1_555 1_555
C29 C28 1_555 1_555
H27 C29 1_555 1_555
C30 C25 1_555 1_555
H28 C30 1_555 1_555
C31 C28 1_555 1_555
C46 C47 1_555 1_555
C47 H37 1_555 1_555
C48 C47 1_555 1_555
H38 C48 1_555 1_555
C51 C46 1_555 1_555
O4 C6 1_555 1_555
O5 C7 1_555 1_555
O8 C10 1_555 1_555
O11 C24 1_555 1_555
O25 C24 1_555 1_555
O13 C31 1_555 1_555
O26 C31 1_555 1_555
Co10 O11 1_555 1_555
C18 O4 1_555 1_555
C22 C23 1_555 1_555
C25 O5 1_555 1_555
C29 C30 1_555 1_555
C46 O8 1_555 1_555
C50 C49 1_555 1_555
H39 C50 1_555 1_555
C52 C49 1_555 1_555
O29 C52 1_555 1_555
O20 C52 1_555 1_555
Co4 O20 1_555 1_555
C50_2 C49_2 1_555 1_555
H39_2 C50_2 1_555 1_555
C52_2 C49_2 1_555 1_555
O19 C52_2 1_555 1_555
O30 C52_2 1_555 1_555
Co9 O19 1_555 1_555
C1_2 H1_2 1_555 1_555
H2_2 C1_2 1_555 1_555
C3_2 C1_2 1_555 1_555
C6_2 C3_2 1_555 1_555
H7_2 C6_2 1_555 1_555
H8_2 C6_2 1_555 1_555
C7_2 C3_2 1_555 1_555
H9_2 C7_2 1_555 1_555
H10_2 C7_2 1_555 1_555
H15_2 C10_2 1_555 1_555
C18_2 C19_2 1_555 1_555
C19_2 H21_2 1_555 1_555
C20_2 C19_2 1_555 1_555
H22_2 C20_2 1_555 1_555
C21_2 C20_2 1_555 1_555
C22_2 C21_2 1_555 1_555
H23_2 C22_2 1_555 1_555
C23_2 C18_2 1_555 1_555
H24_2 C23_2 1_555 1_555
C24_2 C21_2 1_555 1_555
C25_2 C26_2 1_555 1_555
C26_2 H25_2 1_555 1_555
C27_2 C26_2 1_555 1_555
H26_2 C27_2 1_555 1_555
C28_2 C27_2 1_555 1_555
C29_2 C28_2 1_555 1_555
H27_2 C29_2 1_555 1_555
C30_2 C25_2 1_555 1_555
H28_2 C30_2 1_555 1_555
C31_2 C28_2 1_555 1_555
C46_2 C47_2 1_555 1_555
C47_2 H37_2 1_555 1_555
C48_2 C47_2 1_555 1_555
H38_2 C48_2 1_555 1_555
C51_2 C46_2 1_555 1_555
O4_2 C6_2 1_555 1_555
O5_2 C7_2 1_555 1_555
O8_2 C10_2 1_555 1_555
O24 C24_2 1_555 1_555
O12 C24_2 1_555 1_555
O13_2 C31_2 1_555 1_555
O14 C31_2 1_555 1_555
Co9 O12 1_555 1_555
Co10 O14 1_555 1_555
C18_2 O4_2 1_555 1_555
C22_2 C23_2 1_555 1_555
C25_2 O5_2 1_555 1_555
C29_2 C30_2 1_555 1_555
C46_2 O8_2 1_555 1_555
Co9 N6_2 1_555 1_555
Co10 N5_2 1_555 1_555
N1_2 C53_2 1_555 1_555
N2_2 C54_2 1_555 1_555
N3_2 C53_2 1_555 1_555
N5_2 C63_2 1_555 1_555
N6_2 C68_2 1_555 1_555
C40_2 H33_2 1_555 1_555
C41_2 C40_2 1_555 1_555
H34_2 C41_2 1_555 1_555
C42_2 C41_2 1_555 1_555
C43_2 C42_2 1_555 1_555
C45_2 C42_2 1_555 1_555
C53_2 C56_2 1_555 1_555
C54_2 N1_2 1_555 1_555
C55_2 N2_2 1_555 1_555
C56_2 C57_2 1_555 1_555
C57_2 H41_2 1_555 1_555
C58_2 C57_2 1_555 1_555
H42_2 C58_2 1_555 1_555
C60_2 C56_2 1_555 1_555
H44_2 C60_2 1_555 1_555
C61_2 C54_2 1_555 1_555
C62_2 C61_2 1_555 1_555
H45_2 C62_2 1_555 1_555
C63_2 C62_2 1_555 1_555
H46_2 C63_2 1_555 1_555
C64_2 N5_2 1_555 1_555
H47_2 C64_2 1_555 1_555
C65_2 C61_2 1_555 1_555
H48_2 C65_2 1_555 1_555
C66_2 C55_2 1_555 1_555
C67_2 C66_2 1_555 1_555
H49_2 C67_2 1_555 1_555
C68_2 C67_2 1_555 1_555
H50_2 C68_2 1_555 1_555
C69_2 N6_2 1_555 1_555
H51_2 C69_2 1_555 1_555
C70_2 C66_2 1_555 1_555
H52_2 C70_2 1_555 1_555
O28 C45_2 1_555 1_555
O18_2 Co9 1_555 1_555
O22 Co9 1_555 1_555
O27 Co10 1_555 1_555
O31 Co10 1_555 1_555
N3_2 C55_2 1_555 1_555
C45_2 O18_2 1_555 1_555
C64_2 C65_2 1_555 1_555
C69_2 C70_2 1_555 1_555
Co4 N4_2 1_555 1_555
C2_2 H3_2 1_555 1_555
H4_2 C2_2 1_555 1_555
C4_2 C2_2 1_555 1_555
H5_2 C5_2 1_555 1_555
H6_2 C5_2 1_555 1_555
C8_2 C4_2 1_555 1_555
H11_2 C8_2 1_555 1_555
H12_2 C8_2 1_555 1_555
C9_2 C4_2 1_555 1_555
H13_2 C9_2 1_555 1_555
H14_2 C9_2 1_555 1_555
C11_2 C12_2 1_555 1_555
C12_2 H17_2 1_555 1_555
C13_2 C12_2 1_555 1_555
H18_2 C13_2 1_555 1_555
C14_2 C13_2 1_555 1_555
C15_2 C14_2 1_555 1_555
H19_2 C15_2 1_555 1_555
C16_2 C11_2 1_555 1_555
H20_2 C16_2 1_555 1_555
C17_2 C14_2 1_555 1_555
C32_2 C33_2 1_555 1_555
C33_2 H29_2 1_555 1_555
C34_2 C33_2 1_555 1_555
H30_2 C34_2 1_555 1_555
C35_2 C34_2 1_555 1_555
C36_2 C35_2 1_555 1_555
H31_2 C36_2 1_555 1_555
C37_2 C32_2 1_555 1_555
H32_2 C37_2 1_555 1_555
C38_2 C35_2 1_555 1_555
C44_2 C39_2 1_555 1_555
H36_2 C44_2 1_555 1_555
C59_2 N4_2 1_555 1_555
H43_2 C59_2 1_555 1_555
O2_2 Co4 1_555 1_555
O3_2 C5_2 1_555 1_555
O6_2 C8_2 1_555 1_555
O7_2 C9_2 1_555 1_555
O22 C17_2 1_555 1_555
O23 C17_2 1_555 1_555
O27 C38_2 1_555 1_555
O16_2 Co4 1_555 1_555
C2_2 O1_2 1_555 1_555
C11_2 O3_2 1_555 1_555
C15_2 C16_2 1_555 1_555
C32_2 O6_2 1_555 1_555
C36_2 C37_2 1_555 1_555
C38_2 O16_2 1_555 1_555
C39_2 O7_2 1_555 1_555
O2_2 H53_2 1_555 1_555
O2_2 H54_2 1_555 1_555

#END
