
###############################################################################
#
# This file contains modified crystal structure data generated from the
# MOF subset of the Cambridge Structural Database (CSD) v543 
# hosted by the Cambridge Crystallographic Data Centre (CCDC).
#
# This work is licensed under the Creative Commons
# Attribution-NonCommercial-ShareAlike 4.0 International License.
# To view a copy of this license, visit
# http://creativecommons.org/licenses/by-nc-sa/4.0/
# or send a letter to
# Creative Commons, PO Box 1866, Mountain View, CA 94042, USA.
#
# CIF created using the CSD Python API on 29 September 2022
# The structure has been converted into the P1 space group
# The structure has a 3D framework
# The original CSD entry CAZNIC is in the triclinic crystal system
# The original CSD entry CAZNIC is in a Sohncke space group
# The framework has been calculated to contain at least 10.0% void space
# The void calculation uses a probe of radius 1.32A, grid spacing 0.4
# The framework is charged, counterions have been retained in the structure
#
###############################################################################

data_CAZNIC
_chemical_formula_moiety         '(C70 H52 Cd3 N6 O18)n'
_symmetry_cell_setting           triclinic
_symmetry_space_group_name_H-M   'P 1'
_symmetry_Int_Tables_number      1
_space_group_name_Hall           'P 1'
loop_
_symmetry_equiv_pos_site_id
_symmetry_equiv_pos_as_xyz
1 x,y,z
_cell_length_a                   9.3592(14)
_cell_length_b                   15.488(2)
_cell_length_c                   16.108(3)
_cell_angle_alpha                78.217(2)
_cell_angle_beta                 78.133(2)
_cell_angle_gamma                84.160(2)
_cell_volume                     2232.53
loop_
_atom_site_label
_atom_site_type_symbol
_atom_site_fract_x
_atom_site_fract_y
_atom_site_fract_z
_atom_site_U_iso_or_equiv
_atom_site_thermal_displace_type
Cd5 Cd 0.09064(4) 0.71769(3) 0.94480(3) 0.0346 Uani
H26 H 0.0025 0.0512 0.9536 0.1070 Uiso
C71 C 0.0318(9) 0.6940(5) 0.6879(5) 0.0489 Uani
O22 O 0.0810(6) 0.6239(4) 0.7290(3) 0.0525 Uani
N6 N 0.0548(8) 0.8434(4) 0.0080(5) 0.0554 Uani
C2 C 0.3957(8) 0.0644(5) 0.2172(5) 0.0431 Uani
H1 H 0.3438 0.0341 0.1866 0.0520 Uiso
H2 H 0.3267 0.1049 0.2462 0.0520 Uiso
C3 C 0.5622(9) 0.0432(5) 0.3236(5) 0.0454 Uani
H3 H 0.5974 0.0021 0.3702 0.0550 Uiso
H4 H 0.6462 0.0649 0.2809 0.0550 Uiso
H5 H 0.2895 0.0018 0.3818 0.0540 Uiso
C6 C 0.5628(9) 0.1742(5) 0.3777(5) 0.0446 Uani
H9 H 0.6165 0.2091 0.3258 0.0540 Uiso
H10 H 0.6322 0.1427 0.4121 0.0540 Uiso
C7 C 0.4555(8) 0.2335(4) 0.4290(4) 0.0355 Uani
C8 C 0.5458(9) 0.2873(5) 0.4655(5) 0.0420 Uani
H11 H 0.5995 0.2488 0.5055 0.0510 Uiso
H12 H 0.6153 0.3195 0.4193 0.0510 Uiso
C9 C 0.3570(9) 0.1758(5) 0.5016(5) 0.0473 Uani
H13 H 0.2919 0.2117 0.5380 0.0570 Uiso
H14 H 0.2986 0.1416 0.4785 0.0570 Uiso
C10 C 0.3563(8) 0.2911(4) 0.3750(4) 0.0387 Uani
H15 H 0.3062 0.2554 0.3484 0.0460 Uiso
H16 H 0.2837 0.3243 0.4104 0.0460 Uiso
C11 C 0.3835(8) 0.4105(5) 0.2534(4) 0.0456 Uani
C12 C 0.4774(9) 0.4695(6) 0.1940(6) 0.0647 Uani
H17 H 0.5765 0.4656 0.1960 0.0780 Uiso
C13 C 0.3983(12) 0.4469(7) 0.6057(7) 0.0781 Uani
H18 H 0.3003 0.4497 0.6014 0.0940 Uiso
C14 C 0.4030(10) 0.0463(6) 0.6068(6) 0.0611 Uani
C15 C 0.2617(9) 0.0265(6) 0.6312(5) 0.0582 Uani
H19 H 0.1906 0.0632 0.6064 0.0700 Uiso
C17 C 0.4720(9) 0.1905(5) 0.1108(5) 0.0564 Uani
C30 C 0.0092(9) 0.9990(5) 0.0742(5) 0.0532 Uani
C35 C 0.2124(8) 0.6105(5) 0.0685(4) 0.0412 Uani
C36 C 0.2718(8) 0.5411(5) 0.1330(4) 0.0413 Uani
C37 C 0.2377(9) 0.4186(6) 0.2528(5) 0.0580 Uani
H27 H 0.1755 0.3808 0.2933 0.0700 Uiso
C38 C 0.1807(9) 0.4823(6) 0.1924(5) 0.0556 Uani
H28 H 0.0812 0.4859 0.1916 0.0670 Uiso
C46 C 0.0335(10) 0.9165(5) 0.1240(6) 0.0586 Uani
H33 H 0.0361 0.9119 0.1822 0.0700 Uiso
C47 C 0.0532(10) 0.8434(5) 0.0895(5) 0.0561 Uani
H34 H 0.0665 0.7894 0.1256 0.0670 Uiso
C50 C 0.4142(8) 0.3516(5) 0.0111(6) 0.0558 Uani
C52 C 0.6334(14) 0.5414(6) 0.7238(5) 0.0648 Uani
H39 H 0.6081 0.0022 0.6222 0.1280 Uiso
C56 C 0.5034(10) 0.3929(6) 0.5583(6) 0.0589 Uani
C57 C 0.4432(12) 0.4944(6) 0.6573(7) 0.0711 Uani
H40 H 0.3749 0.5309 0.6868 0.0850 Uiso
C58 C 0.5810(11) 0.4899(6) 0.6664(5) 0.0541 Uani
C64 C 0.3402(13) 0.2126(8) 0.0913(11) 0.1391 Uani
H46 H 0.2679 0.1722 0.1084 0.1670 Uiso
C65 C 0.3121(14) 0.2940(9) 0.0463(12) 0.1425 Uani
H47 H 0.2163 0.3108 0.0396 0.1710 Uiso
C66 C 0.5371(12) 0.3330(8) 0.0403(10) 0.1104 Uani
H48 H 0.6033 0.3766 0.0297 0.1320 Uiso
C67 C 0.5707(12) 0.2510(8) 0.0859(10) 0.1220 Uani
H49 H 0.6633 0.2377 0.0995 0.1460 Uiso
C68 C 0.6844(12) 0.4348(8) 0.6237(7) 0.0781 Uani
H50 H 0.7812 0.4312 0.6306 0.0940 Uiso
C69 C 0.4236(9) 0.5327(6) 0.1333(5) 0.0647 Uani
H51 H 0.4866 0.5699 0.0926 0.0770 Uiso
C70 C 0.6430(12) 0.3853(9) 0.5710(8) 0.0872 Uani
H52 H 0.7113 0.3467 0.5443 0.1050 Uiso
O1 O 0.4793(6) 0.1140(4) 0.3558(4) 0.0555 Uani
O3 O 0.5110(6) 0.1115(4) 0.1583(4) 0.0692 Uani
O5 O 0.4488(5) 0.3502(3) 0.3097(3) 0.0496 Uani
O6 O 0.4479(7) 0.3469(4) 0.5086(4) 0.0636 Uani
O7 O 0.4543(7) 0.1187(5) 0.5497(4) 0.0806 Uani
O12 O 0.0759(6) 0.6196(4) 0.0734(3) 0.0504 Uani
O13 O 0.2964(5) 0.6564(3) 0.0103(3) 0.0413 Uani
O17 O 0.7571(10) 0.5197(5) 0.7396(4) 0.0800 Uani
O20 O 0.5438(10) 0.6025(4) 0.7488(4) 0.0760 Uani
Cd8 Cd 0.43905(4) 0.63169(3) 0.87679(3) 0.0360 Uani
Cd11 Cd 0.84642(5) 0.59800(3) 0.81253(3) 0.0379 Uani
C29 C 0.0169(16) 0.9981(6) 0.9908(6) 0.0888 Uani
C41 C 0.3764(9) 0.4381(5) 0.9584(5) 0.0527 Uani
C63 C 0.0443(17) 0.9244(6) 0.9585(6) 0.0981 Uani
H45 H 0.0569 0.9289 0.8990 0.1180 Uiso
O2 O 0.1998(5) 0.6057(3) 0.8674(3) 0.0400 Uani
O15 O 0.4753(6) 0.4931(4) 0.9355(4) 0.0618 Uani
O16 O 0.2523(7) 0.4524(4) 0.9423(5) 0.0864 Uani
O23 O 0.1523(6) 0.8051(4) 0.8186(3) 0.0546 Uani
O25 O 0.6592(5) 0.6650(4) 0.9005(3) 0.0428 Uani
O29 O 0.3873(7) 0.7728(4) 0.8272(4) 0.0627 Uani
C1 C 0.4687(8) 0.9973(4) 0.2833(4) 0.0382 Uani
C4 C 0.3425(8) 0.9572(5) 0.3508(5) 0.0453 Uani
H6 H 0.2754 0.9344 0.3232 0.0540 Uiso
C5 C 0.5602(8) 0.9284(5) 0.2393(4) 0.0413 Uani
H7 H 0.6442 0.9545 0.1998 0.0500 Uiso
H8 H 0.5954 0.8819 0.2819 0.0500 Uiso
C16 C 0.2209(9) 0.9525(5) 0.6926(5) 0.0562 Uani
H20 H 0.1229 0.9401 0.7104 0.0670 Uiso
C18 C 0.3067(9) 0.8436(5) 0.4748(5) 0.0506 Uani
C19 C 0.1602(10) 0.8618(6) 0.4889(6) 0.0712 Uani
H21 H 0.1178 0.9054 0.4508 0.0850 Uiso
C32 C 0.1283(9) 0.7481(6) 0.6150(5) 0.0532 Uani
C34 C 0.6696(7) 0.7456(5) 0.0095(5) 0.0309 Uani
C39 C 0.3274(10) 0.8973(5) 0.7271(5) 0.0505 Uani
C40 C 0.5324(8) 0.7883(6) 0.0092(6) 0.0539 Uani
C42 C 0.7374(8) 0.7496(5) 0.0766(5) 0.0446 Uani
H30 H 0.8258 0.7175 0.0813 0.0540 Uiso
C43 C 0.4715(9) 0.8362(6) 0.0710(6) 0.0589 Uani
H31 H 0.3793 0.8648 0.0703 0.0710 Uiso
C44 C 0.2851(10) 0.8175(5) 0.7969(5) 0.0498 Uani
C48 C 0.5451(9) 0.8423(6) 0.1332(6) 0.0518 Uani
C49 C 0.6768(9) 0.7998(6) 0.1358(5) 0.0536 Uani
H35 H 0.7268 0.8048 0.1787 0.0640 Uiso
C51 C 0.2761(11) 0.7299(8) 0.6006(7) 0.0848 Uani
H36 H 0.3185 0.6851 0.6375 0.1020 Uiso
C54 C 0.4718(11) 0.9132(7) 0.6979(6) 0.0819 Uani
H38 H 0.5438 0.8728 0.7175 0.0980 Uiso
C55 C 0.5104(12) 0.9892(8) 0.6396(8) 0.1070 Uani
C59 C 0.3622(12) 0.7797(8) 0.5295(7) 0.0914 Uani
H41 H 0.4629 0.7675 0.5201 0.1100 Uiso
C60 C 0.0749(11) 0.8150(7) 0.5604(6) 0.0750 Uani
O4 O 0.4010(6) 0.8884(4) 0.4082(4) 0.0614 Uani
O8 O 0.4750(6) 0.8931(4) 0.1938(4) 0.0623 Uani
C33 C 0.7368(7) 0.6947(4) 0.9428(4) 0.0300 Uani
H29 H 0.4814 0.7841 0.9664 0.0650 Uiso
O18 O 0.8737(5) 0.6791(3) 0.9263(3) 0.0362 Uiso
N4 N 0.8932(7) 0.4708(4) 0.9107(4) 0.0457 Uani
C24 C 0.9206(16) 0.3144(6) 0.9405(6) 0.0851 Uani
H22 H 0.9305 0.2621 0.9193 0.1020 Uiso
C45 C 0.9026(10) 0.4705(5) 0.9926(6) 0.0579 Uani
C61 C 0.8977(16) 0.3950(6) 0.8872(6) 0.0893 Uani
H43 H 0.8849 0.3948 0.8315 0.1070 Uiso
O21 O 0.9017(7) 0.7189(4) 0.7077(4) 0.0693 Uani
H42 H 0.9752 0.8305 0.5716 0.0900 Uiso
N1 N 0.9490(7) 0.2317(4) 0.1641(5) 0.0515 Uani
N2 N 0.9847(8) 0.0779(4) 0.1914(5) 0.0543 Uani
N3 N 0.9700(8) 0.1554(4) 0.0511(4) 0.0565 Uani
N5 N 0.9524(12) 0.1530(11) 0.4798(7) 0.1073 Uani
C20 C 0.9877(9) 0.0811(5) 0.1057(5) 0.0505 Uani
C21 C 0.9629(8) 0.1543(5) 0.2169(5) 0.0491 Uani
C22 C 0.9490(9) 0.2300(5) 0.0837(5) 0.0484 Uani
C23 C 0.9283(9) 0.3130(5) 0.0245(5) 0.0483 Uani
C25 C 0.9189(10) 0.3935(5) 0.0495(6) 0.0574 Uani
H23 H 0.9236 0.3955 0.1062 0.0690 Uiso
C26 C 0.9598(9) 0.1547(6) 0.3099(6) 0.0569 Uani
C27 C 0.9582(11) 0.2337(7) 0.3382(7) 0.0710 Uani
H24 H 0.9585 0.2875 0.2998 0.0850 Uiso
C28 C 0.9542(13) 0.0775(7) 0.3713(7) 0.0777 Uani
H25 H 0.9522 0.0229 0.3559 0.0930 Uiso
H32 H 0.8980 0.5240 0.0110 0.0700 Uiso
C53 C 0.9561(13) 0.2307(10) 0.4219(8) 0.0865 Uani
H37 H 0.9572 0.2832 0.4413 0.1040 Uiso
C62 C 0.9519(16) 0.0833(9) 0.4507(8) 0.0959 Uani
H44 H 0.9495 0.0304 0.4905 0.1150 Uiso
loop_
_atom_site_aniso_label
_atom_site_aniso_U_11
_atom_site_aniso_U_22
_atom_site_aniso_U_33
_atom_site_aniso_U_23
_atom_site_aniso_U_13
_atom_site_aniso_U_12
Cd5 0.0354 0.0279 0.0405 0.00127 -0.0139 -0.00341
C71 0.059 0.047 0.039 0 -0.01 -0.011
O22 0.054 0.056 0.046 -0.004 -0.006 -0.015
N6 0.064 0.031 0.071 -0.004 -0.021 0.003
C2 0.039 0.038 0.047 0 -0.003 -0.005
C3 0.055 0.034 0.052 -0.017 -0.014 0.001
C6 0.059 0.031 0.052 -0.007 -0.028 -0.007
C7 0.052 0.025 0.031 -0.004 -0.012 -0.003
C8 0.057 0.036 0.04 -0.013 -0.019 -0.003
C9 0.065 0.037 0.037 0.007 -0.015 -0.007
C10 0.053 0.029 0.035 0.002 -0.016 -0.008
C11 0.051 0.044 0.037 0.009 -0.013 -0.005
C12 0.039 0.068 0.076 0.025 -0.02 -0.011
C13 0.064 0.083 0.106 -0.058 -0.035 0.028
C14 0.065 0.045 0.061 0.03 -0.018 -0.015
C15 0.056 0.047 0.062 0.019 -0.021 0.002
C17 0.043 0.051 0.061 0.014 -0.003 -0.001
C30 0.065 0.034 0.06 -0.003 -0.018 0
C35 0.048 0.036 0.038 -0.002 -0.011 0
C36 0.043 0.039 0.039 0.006 -0.014 -0.003
C37 0.061 0.059 0.045 0.023 -0.013 -0.022
C38 0.05 0.056 0.056 0.013 -0.021 -0.007
C46 0.077 0.041 0.059 -0.005 -0.022 0.001
C47 0.085 0.031 0.054 0.001 -0.03 0.004
C50 0.039 0.037 0.08 0.016 -0.01 -0.007
C52 0.103 0.054 0.039 -0.004 -0.011 -0.027
C56 0.072 0.052 0.066 -0.027 -0.027 -0.005
C57 0.075 0.06 0.094 -0.045 -0.028 0.009
C58 0.078 0.048 0.044 -0.023 -0.012 -0.01
C64 0.067 0.095 0.22 0.106 -0.059 -0.051
C65 0.072 0.094 0.227 0.089 -0.06 -0.021
C66 0.058 0.07 0.176 0.064 -0.035 -0.028
C67 0.055 0.092 0.182 0.074 -0.032 -0.015
C68 0.069 0.096 0.088 -0.053 -0.019 -0.011
C69 0.046 0.074 0.06 0.033 -0.018 -0.015
C70 0.07 0.113 0.104 -0.077 -0.019 -0.004
O1 0.05 0.048 0.079 -0.034 -0.016 0.001
O3 0.05 0.049 0.085 0.032 -0.004 -0.001
O5 0.047 0.045 0.047 0.02 -0.013 -0.007
O6 0.069 0.061 0.081 -0.046 -0.035 0.011
O7 0.073 0.075 0.081 0.048 -0.037 -0.027
O12 0.045 0.053 0.046 0.009 -0.014 0.005
O13 0.049 0.033 0.039 0.008 -0.014 -0.007
O17 0.111 0.078 0.07 -0.029 -0.035 -0.027
O20 0.137 0.052 0.043 -0.022 -0.009 -0.014
Cd8 0.0335 0.0323 0.0424 -0.0013 -0.012 -0.0048
Cd11 0.0424 0.0359 0.0367 -0.0104 -0.0054 -0.0053
C29 0.166 0.027 0.066 0.006 -0.027 0.009
C41 0.047 0.04 0.064 0.011 -0.014 -0.004
C63 0.194 0.035 0.056 0.006 -0.029 0.017
O2 0.034 0.033 0.055 -0.005 -0.017 -0.0011
O15 0.049 0.04 0.084 0.013 -0.009 -0.003
O16 0.069 0.044 0.14 0.032 -0.05 -0.013
O23 0.064 0.046 0.044 0.015 -0.007 -0.012
O25 0.034 0.051 0.052 -0.024 -0.012 -0.006
O29 0.083 0.036 0.072 0.017 -0.042 -0.016
C1 0.044 0.03 0.04 -0.007 -0.005 -0.005
C4 0.051 0.04 0.04 -0.006 0.003 -0.007
C5 0.05 0.033 0.041 -0.011 -0.003 -0.006
C16 0.055 0.05 0.052 0.016 -0.009 -0.004
C18 0.051 0.049 0.042 0.004 -0.001 0.001
C19 0.062 0.063 0.068 0.025 -0.003 -0.003
C32 0.058 0.056 0.042 0 -0.006 -0.013
C34 0.021 0.031 0.041 -0.009 -0.003 -0.005
C39 0.072 0.032 0.043 0.01 -0.016 -0.006
C40 0.036 0.062 0.081 -0.046 -0.022 0.005
C42 0.037 0.056 0.044 -0.019 -0.009 0.005
C43 0.037 0.069 0.081 -0.043 -0.012 0.009
C44 0.078 0.032 0.04 0.003 -0.02 -0.008
C48 0.041 0.055 0.066 -0.033 -0.003 -0.004
C49 0.053 0.072 0.045 -0.028 -0.016 0.002
C51 0.06 0.09 0.082 0.024 -0.004 -0.001
C54 0.065 0.079 0.081 0.048 -0.022 -0.019
C55 0.061 0.103 0.132 0.073 -0.044 -0.029
C59 0.068 0.082 0.088 0.037 0.014 -0.002
C60 0.054 0.081 0.067 0.019 0.008 -0.003
O4 0.052 0.06 0.052 0.015 0.006 0.006
O8 0.043 0.076 0.08 -0.055 0.001 -0.004
C33 0.034 0.028 0.032 -0.007 -0.012 -0.006
N4 0.057 0.036 0.044 -0.007 -0.01 -0.003
C24 0.167 0.034 0.06 -0.02 -0.032 0.011
C45 0.083 0.029 0.066 -0.007 -0.025 -0.006
C61 0.179 0.029 0.057 -0.006 -0.021 0
O21 0.065 0.068 0.06 0.009 0.003 -0.008
N1 0.054 0.036 0.068 -0.012 -0.017 -0.003
N2 0.057 0.036 0.067 -0.003 -0.013 0
N3 0.07 0.038 0.059 -0.006 -0.012 0.002
N5 0.083 0.172 0.066 -0.023 -0.022 0.014
C20 0.059 0.03 0.06 -0.002 -0.014 0.001
C21 0.043 0.044 0.059 -0.007 -0.009 -0.004
C22 0.057 0.03 0.06 -0.009 -0.015 -0.002
C23 0.051 0.029 0.065 -0.006 -0.014 -0.002
C25 0.082 0.036 0.06 -0.011 -0.027 0.001
C26 0.044 0.059 0.065 -0.007 -0.008 -0.005
C27 0.068 0.079 0.071 -0.02 -0.009 -0.024
C28 0.093 0.057 0.073 -0.004 -0.007 0.008
C53 0.077 0.11 0.081 -0.047 -0.006 -0.005
C62 0.135 0.084 0.066 -0.022 -0.021 0.026
loop_
_geom_bond_atom_site_label_1
_geom_bond_atom_site_label_2
_geom_bond_site_symmetry_1
_geom_bond_site_symmetry_2
C71 O22 1_555 1_555
N6 C47 1_555 1_555
C2 H1 1_555 1_555
H2 C2 1_555 1_555
H3 C3 1_555 1_555
H4 C3 1_555 1_555
C6 H9 1_555 1_555
H10 C6 1_555 1_555
C7 C6 1_555 1_555
C8 C7 1_555 1_555
H11 C8 1_555 1_555
H12 C8 1_555 1_555
C9 C7 1_555 1_555
H13 C9 1_555 1_555
H14 C9 1_555 1_555
C10 C7 1_555 1_555
H15 C10 1_555 1_555
H16 C10 1_555 1_555
C11 C12 1_555 1_555
C12 H17 1_555 1_555
C13 H18 1_555 1_555
C14 C15 1_555 1_555
C15 H19 1_555 1_555
C17 C64 1_555 1_555
C35 C36 1_555 1_555
C36 C38 1_555 1_555
C37 C11 1_555 1_555
H27 C37 1_555 1_555
C38 C37 1_555 1_555
H28 C38 1_555 1_555
C46 C30 1_555 1_555
H33 C46 1_555 1_555
C47 C46 1_555 1_555
H34 C47 1_555 1_555
C50 C65 1_555 1_555
C52 C58 1_555 1_555
C56 C13 1_555 1_555
C57 C13 1_555 1_555
H40 C57 1_555 1_555
C58 C57 1_555 1_555
C64 H46 1_555 1_555
C65 C64 1_555 1_555
H47 C65 1_555 1_555
C66 C50 1_555 1_555
H48 C66 1_555 1_555
C67 C17 1_555 1_555
H49 C67 1_555 1_555
C68 C58 1_555 1_555
H50 C68 1_555 1_555
C69 C12 1_555 1_555
H51 C69 1_555 1_555
C70 C56 1_555 1_555
H52 C70 1_555 1_555
O1 C3 1_555 1_555
O3 C2 1_555 1_555
O5 C10 1_555 1_555
O6 C8 1_555 1_555
O7 C9 1_555 1_555
O17 C52 1_555 1_555
O20 C52 1_555 1_555
Cd8 O20 1_555 1_555
Cd11 O17 1_555 1_555
C6 O1 1_555 1_555
C11 O5 1_555 1_555
C14 O7 1_555 1_555
C17 O3 1_555 1_555
C35 O12 1_555 1_555
C35 O13 1_555 1_555
C36 C69 1_555 1_555
C56 O6 1_555 1_555
C66 C67 1_555 1_555
C68 C70 1_555 1_555
Cd8 O2 1_555 1_555
H45 C63 1_555 1_555
O2 Cd5 1_555 1_555
O15 Cd8 1_555 1_555
O16 C41 1_555 1_555
O23 Cd5 1_555 1_555
O25 Cd8 1_555 1_555
O29 Cd8 1_555 1_555
C29 C63 1_555 1_555
C41 O15 1_555 1_555
C4 C1 1_555 1_555
H6 C4 1_555 1_555
C5 C1 1_555 1_555
H7 C5 1_555 1_555
H8 C5 1_555 1_555
H20 C16 1_555 1_555
C18 C19 1_555 1_555
C19 H21 1_555 1_555
C71 C32 1_555 1_555
C32 C51 1_555 1_555
C34 C40 1_555 1_555
C39 C16 1_555 1_555
C42 C34 1_555 1_555
H30 C42 1_555 1_555
C43 C40 1_555 1_555
H31 C43 1_555 1_555
C44 C39 1_555 1_555
C48 C43 1_555 1_555
C49 C42 1_555 1_555
H35 C49 1_555 1_555
C51 H36 1_555 1_555
C54 C39 1_555 1_555
H38 C54 1_555 1_555
C59 C18 1_555 1_555
H41 C59 1_555 1_555
C60 C19 1_555 1_555
O4 C4 1_555 1_555
O8 C5 1_555 1_555
O23 C44 1_555 1_555
O29 C44 1_555 1_555
C18 O4 1_555 1_555
C32 C60 1_555 1_555
C48 C49 1_555 1_555
C48 O8 1_555 1_555
C51 C59 1_555 1_555
C54 C55 1_555 1_555
O25 C33 1_555 1_555
O18 C33 1_555 1_555
Cd11 O25 1_555 1_555
O18 Cd11 1_555 1_555
Cd11 N4 1_555 1_555
N4 C45 1_555 1_555
H22 C24 1_555 1_555
C61 N4 1_555 1_555
H43 C61 1_555 1_555
O21 Cd11 1_555 1_555
C24 C61 1_555 1_555
N1 C21 1_555 1_555
N2 C20 1_555 1_555
N3 C20 1_555 1_555
N5 C53 1_555 1_555
C21 N2 1_555 1_555
C22 N1 1_555 1_555
C23 C22 1_555 1_555
C25 C23 1_555 1_555
H23 C25 1_555 1_555
C26 C21 1_555 1_555
C27 C26 1_555 1_555
H24 C27 1_555 1_555
C28 C26 1_555 1_555
H25 C28 1_555 1_555
C53 C27 1_555 1_555
H37 C53 1_555 1_555
C62 N5 1_555 1_555
H44 C62 1_555 1_555
N3 C22 1_555 1_555
C28 C62 1_555 1_555

#END
