
###############################################################################
#
# This file contains modified crystal structure data generated from the
# MOF subset of the Cambridge Structural Database (CSD) v543 
# hosted by the Cambridge Crystallographic Data Centre (CCDC).
#
# This work is licensed under the Creative Commons
# Attribution-NonCommercial-ShareAlike 4.0 International License.
# To view a copy of this license, visit
# http://creativecommons.org/licenses/by-nc-sa/4.0/
# or send a letter to
# Creative Commons, PO Box 1866, Mountain View, CA 94042, USA.
#
# CIF created using the CSD Python API on 29 September 2022
# The structure has been converted into the P1 space group
# The structure has a 3D framework
# The original CSD entry CAZXOT is in the monoclinic crystal system
# The framework has been calculated to contain at least 10.0% void space
# The void calculation uses a probe of radius 1.32A, grid spacing 0.4
#
###############################################################################

data_CAZXOT
_chemical_formula_moiety         '(C288 H312 Cd14 N48 O86)n'
_symmetry_cell_setting           triclinic
_symmetry_space_group_name_H-M   'P 1'
_symmetry_Int_Tables_number      1
_space_group_name_Hall           'P 1'
loop_
_symmetry_equiv_pos_site_id
_symmetry_equiv_pos_as_xyz
1 x,y,z
_cell_length_a                   30.3057(4)
_cell_length_b                   17.9926(3)
_cell_length_c                   21.8963(3)
_cell_angle_alpha                90
_cell_angle_beta                 132.3060(10)
_cell_angle_gamma                90
_cell_volume                     8830.04
loop_
_atom_site_label
_atom_site_type_symbol
_atom_site_fract_x
_atom_site_fract_y
_atom_site_fract_z
Cd1 Cd -0.0000 0.39835(2) 0.2500
O1 O 0.17353(11) 0.20822(13) 0.44941(13)
N1 N 0.08111(10) 0.40224(13) 0.39230(14)
N2 N 0.20692(11) 0.28309(14) 0.55686(15)
H1 H 0.2324 0.2853 0.6111
C1 C 0.09782(13) 0.46693(16) 0.43248(19)
H4 H 0.0735 0.5096 0.4040
C2 C 0.14993(14) 0.47317(17) 0.51505(19)
H5 H 0.1606 0.5194 0.5428
C3 C 0.18581(13) 0.41214(17) 0.55617(18)
H6 H 0.2217 0.4157 0.6125
C4 C 0.16884(13) 0.34455(15) 0.51405(18)
C5 C 0.11557(13) 0.34219(15) 0.43191(18)
H7 H 0.1032 0.2964 0.4029
C6 C 0.20872(13) 0.22041(16) 0.52341(18)
C7 C 0.25991(14) 0.16841(17) 0.58712(19)
H8 H 0.2979 0.1914 0.6094
H9 H 0.2615 0.1622 0.6335
C8 C 0.25429(14) 0.09236(17) 0.55235(19)
H10 H 0.2926 0.0655 0.5925
H11 H 0.2465 0.0988 0.5009
C9 C 0.20465(14) 0.04567(19) 0.5338(2)
H12 H 0.2086 0.0462 0.5825
H13 H 0.1656 0.0681 0.4869
O10 O -0.0000 0.2699(2) 0.2500
H39 H 0.017(3) 0.244(3) 0.245(4)
Cd3 Cd 0.19076(2) 0.84221(2) 0.26826(2)
O15 O 0.07554(9) 0.38995(11) 0.24141(13)
O16 O 0.04351(9) 0.50087(11) 0.23799(13)
O17 O 0.14810(9) 0.72710(11) 0.26635(13)
O18 O 0.21201(9) 0.72059(11) 0.24959(13)
O19 O 0.27287(9) 0.46767(11) 0.22521(12)
O20 O 0.24314(8) 0.37012(10) 0.25083(12)
C64 C 0.07769(12) 0.45985(15) 0.23941(17)
C65 C 0.17756(12) 0.69010(15) 0.25538(16)
C66 C 0.24190(12) 0.43839(15) 0.23829(16)
C67 C 0.12300(12) 0.49555(15) 0.24047(16)
C68 C 0.12982(12) 0.57270(15) 0.24775(16)
H74 H 0.1061 0.6019 0.2524
C69 C 0.17097(12) 0.60681(14) 0.24829(16)
C70 C 0.20692(12) 0.56372(15) 0.24348(16)
H75 H 0.2350 0.5870 0.2434
C71 C 0.20155(12) 0.48677(15) 0.23877(16)
C72 C 0.15901(12) 0.45318(15) 0.23615(16)
H76 H 0.1546 0.4007 0.2314
O21 O 0.13783(11) 0.89406(13) 0.29873(15)
H77 H 0.1452 0.8645 0.3349
H78 H 0.1359 0.9361 0.3146
Cd6 Cd 0.30924(2) 0.34221(2) 0.23174(2)
O22 O 0.22713(9) 0.96767(11) 0.27479(12)
O24 O 0.25686(8) 0.87012(10) 0.24917(12)
N14 N 0.10966(10) 0.85642(13) 0.12682(15)
N15 N 0.27222(12) 0.82717(14) 0.40830(15)
O2 O 0.04134(13) 0.8576(2) 0.4103(2)
N3 N 0.05080(12) 0.89900(16) 0.51642(17)
H2 H 0.0753 0.9210 0.5649
C10 C 0.20598(15) 0.96579(19) 0.5127(2)
H14 H 0.2394 0.9396 0.5640
H15 H 0.2138 0.9657 0.4755
C11 C 0.14826(16) 0.9230(2) 0.4712(2)
H16 H 0.1146 0.9500 0.4207
H17 H 0.1510 0.8735 0.4541
C12 C 0.13502(16) 0.9125(3) 0.5267(3)
H18 H 0.1629 0.8752 0.5698
H19 H 0.1418 0.9601 0.5547
C13 C 0.07128(16) 0.8871(2) 0.4783(3)
H20 H 0.0197 0.8703 0.5989
C59 C 0.00581(14) 0.87970(18) 0.0136(2)
C62 C 0.11587(14) 0.8418(2) 0.0736(2)
H72 H 0.1540 0.8273 0.0944
C63 C 0.05577(13) 0.87504(17) 0.09772(19)
H73 H 0.0514 0.8855 0.1359
Cd1_2 Cd 1.0000 0.39835(2) 0.2500
Cd2 Cd 0.80924(2) 0.84221(2) 0.23174(2)
O3 O 0.58345(11) 0.79068(16) 0.06920(17)
O4 O 0.92446(9) 0.38995(11) 0.25859(13)
O5 O 0.95649(9) 0.50087(11) 0.26201(13)
O6 O 0.85190(9) 0.72710(11) 0.23365(13)
O7 O 0.78799(9) 0.72059(11) 0.25041(13)
O8 O 0.72713(9) 0.46767(11) 0.27479(12)
O9 O 0.75686(8) 0.37012(10) 0.24917(12)
N5 N 0.72778(12) 0.82717(14) 0.09170(15)
C19 C 0.73280(18) 0.8252(2) 0.0361(2)
H24 H 0.7713 0.8293 0.0541
C23 C 0.67316(14) 0.82229(17) 0.06585(19)
H27 H 0.6695 0.8223 0.1056
H31 H 0.4982 0.8843 0.0465
H32 H 0.5500 0.9584 0.0254
C28 C 0.92231(12) 0.45985(15) 0.26059(17)
C29 C 0.82244(12) 0.69010(15) 0.24462(16)
C30 C 0.75810(12) 0.43839(15) 0.26171(16)
C31 C 0.87700(12) 0.49555(15) 0.25953(16)
C32 C 0.87018(12) 0.57270(15) 0.25225(16)
H34 H 0.8939 0.6019 0.2476
C33 C 0.82903(12) 0.60681(14) 0.25171(16)
C34 C 0.79308(12) 0.56372(15) 0.25652(16)
H35 H 0.7650 0.5870 0.2566
C35 C 0.79845(12) 0.48677(15) 0.26123(16)
C36 C 0.84099(12) 0.45318(15) 0.26385(16)
H36 H 0.8454 0.4007 0.2686
O10_2 O 1.0000 0.2699(2) 0.2500
O11 O 0.86217(11) 0.89406(13) 0.20127(15)
H37 H 0.8548 0.8645 0.1651
H38 H 0.8641 0.9361 0.1854
H51 H 0.983(3) 0.244(3) 0.255(4)
O13 O 0.82647(11) 0.20822(13) 0.05059(13)
N9 N 0.91889(10) 0.40224(13) 0.10770(14)
C46 C 0.90218(13) 0.46693(16) 0.06752(19)
H54 H 0.9265 0.5096 0.0960
C50 C 0.88443(13) 0.34219(15) 0.06809(18)
H57 H 0.8968 0.2964 0.0971
H63 H 0.8344 0.0681 0.0131
Cd7 Cd 0.69076(2) 0.34221(2) 0.26826(2)
O23 O 0.77287(9) 0.96767(11) 0.22521(12)
O25 O 0.74314(8) 0.87012(10) 0.25083(12)
N13 N 0.89034(10) 0.85642(13) 0.37318(15)
C14 C 0.99419(14) 0.87970(18) 0.4864(2)
C15 C 0.98677(15) 0.8662(2) 0.5411(2)
C16 C 0.93102(16) 0.8467(2) 0.5109(2)
H21 H 0.9250 0.8369 0.5475
C17 C 0.88413(14) 0.8418(2) 0.4264(2)
H22 H 0.8460 0.8273 0.4056
C18 C 0.94423(13) 0.87504(17) 0.40228(19)
H23 H 0.9486 0.8855 0.3641
O14 O 0.95866(13) 0.8576(2) 0.0897(2)
H65 H 0.7862 0.9657 0.0245
C56 C 0.85174(16) 0.9230(2) 0.0288(2)
H66 H 0.8854 0.9500 0.0793
H67 H 0.8490 0.8735 0.0459
C58 C 0.92872(16) 0.8871(2) 0.0217(3)
O3_2 O 0.41655(11) 0.79068(16) 0.43080(17)
N6 N 0.43601(13) 0.81994(18) 0.54707(18)
H3 H 0.4651 0.8293 0.6001
C19_2 C 0.26720(18) 0.8252(2) 0.4639(2)
H24_2 H 0.2287 0.8293 0.4459
C20 C 0.3166(2) 0.8174(3) 0.5482(2)
H25 H 0.3118 0.8148 0.5867
C21 C 0.37194(19) 0.8136(2) 0.5744(2)
H26 H 0.4061 0.8084 0.6315
C22 C 0.37822(15) 0.81720(18) 0.5177(2)
C23_2 C 0.32684(14) 0.82229(17) 0.43415(19)
H27_2 H 0.3305 0.8223 0.3944
C24 C 0.45227(15) 0.80978(19) 0.5028(2)
C25 C 0.51689(15) 0.8266(2) 0.5482(3)
H28 H 0.5350 0.7833 0.5441
H29 H 0.5392 0.8354 0.6073
C26 C 0.52155(15) 0.89527(18) 0.5114(2)
H30 H 0.5642 0.9050 0.5425
H31_2 H 0.5018 0.8843 0.4535
C27 C 0.49375(14) 0.96544(18) 0.5125(2)
H32_2 H 0.4500 0.9584 0.4746
H33 H 0.5092 0.9725 0.5688
O3_3 O 0.08345(11) 0.29068(16) 0.06920(17)
O5_2 O 0.45649(9) 0.00087(11) 0.26201(13)
O6_2 O 0.35190(9) 0.22710(11) 0.23365(13)
O7_2 O 0.28799(9) 0.22059(11) 0.25041(13)
N5_2 N 0.22778(12) 0.32717(14) 0.09170(15)
H4_2 H 0.5735 0.0096 0.4040
H5_2 H 0.6606 0.0194 0.5428
C19_3 C 0.23280(18) 0.3252(2) 0.0361(2)
H24_3 H 0.2713 0.3293 0.0541
C23_3 C 0.17316(14) 0.32229(17) 0.06585(19)
H27_3 H 0.1695 0.3223 0.1056
H32_3 H 0.0500 0.4584 0.0254
C29_2 C 0.32244(12) 0.19010(15) 0.24462(16)
C32_2 C 0.37018(12) 0.07270(15) 0.25225(16)
H34_2 H 0.3939 0.1019 0.2476
C33_2 C 0.32903(12) 0.10681(14) 0.25171(16)
C34_2 C 0.29308(12) 0.06372(15) 0.25652(16)
H35_2 H 0.2650 0.0870 0.2566
O11_2 O 0.36217(11) 0.39406(13) 0.20127(15)
H37_2 H 0.3548 0.3645 0.1651
H38_2 H 0.3641 0.4361 0.1854
C43 C 0.01689(15) 0.6734(2) 0.0482(3)
H45 H 0.0350 0.7167 0.0441
H46 H 0.0392 0.6646 0.1073
C44 C 0.02155(15) 0.60473(18) 0.0114(2)
H47 H 0.0642 0.5950 0.0425
H50 H 0.0092 0.5275 0.0688
O16_2 O 0.54351(9) 0.00087(11) 0.23799(13)
O17_2 O 0.64810(9) 0.22710(11) 0.26635(13)
O18_2 O 0.71201(9) 0.22059(11) 0.24959(13)
H54_2 H 0.4265 0.0096 0.0960
C65_2 C 0.67756(12) 0.19010(15) 0.25538(16)
C68_2 C 0.62982(12) 0.07270(15) 0.24775(16)
H74_2 H 0.6061 0.1019 0.2524
C69_2 C 0.67097(12) 0.10681(14) 0.24829(16)
C70_2 C 0.70692(12) 0.06372(15) 0.24348(16)
H75_2 H 0.7350 0.0870 0.2434
O21_2 O 0.63783(11) 0.39406(13) 0.29873(15)
H77_2 H 0.6452 0.3645 0.3349
H78_2 H 0.6359 0.4361 0.3146
N13_2 N 0.39034(10) 0.35642(13) 0.37318(15)
N14_2 N 0.60966(10) 0.35642(13) 0.12682(15)
N15_2 N 0.77222(12) 0.32717(14) 0.40830(15)
Cd1_3 Cd 0.5000 0.89835(2) 0.2500
O1_2 O 0.67353(11) 0.70822(13) 0.44941(13)
O2_2 O 0.54134(13) 0.3576(2) 0.4103(2)
O4_2 O 0.42446(9) 0.88995(11) 0.25859(13)
N1_2 N 0.58111(10) 0.90224(13) 0.39230(14)
N2_2 N 0.70692(11) 0.78309(14) 0.55686(15)
H1_2 H 0.7324 0.7853 0.6111
N3_2 N 0.55080(12) 0.39900(16) 0.51642(17)
H2_2 H 0.5753 0.4210 0.5649
C1_2 C 0.59782(13) 0.96693(16) 0.43248(19)
C2_2 C 0.64993(14) 0.97317(17) 0.51505(19)
C3_2 C 0.68581(13) 0.91214(17) 0.55617(18)
H6_2 H 0.7217 0.9157 0.6125
C4_2 C 0.66884(13) 0.84455(15) 0.51405(18)
C5_2 C 0.61557(13) 0.84219(15) 0.43191(18)
H7_2 H 0.6032 0.7964 0.4029
C6_2 C 0.70872(13) 0.72041(16) 0.52341(18)
C7_2 C 0.75991(14) 0.66841(17) 0.58712(19)
H8_2 H 0.7979 0.6914 0.6094
H9_2 H 0.7615 0.6622 0.6335
C8_2 C 0.75429(14) 0.59236(17) 0.55235(19)
H10_2 H 0.7926 0.5655 0.5925
H11_2 H 0.7465 0.5988 0.5009
C9_2 C 0.70465(14) 0.54567(19) 0.5338(2)
H12_2 H 0.7086 0.5462 0.5825
H13_2 H 0.6656 0.5681 0.4869
C10_2 C 0.70598(15) 0.46579(19) 0.5127(2)
H14_2 H 0.7394 0.4396 0.5640
H15_2 H 0.7138 0.4657 0.4755
C11_2 C 0.64826(16) 0.4230(2) 0.4712(2)
H16_2 H 0.6146 0.4500 0.4207
H17_2 H 0.6510 0.3735 0.4541
C12_2 C 0.63502(16) 0.4125(3) 0.5267(3)
H18_2 H 0.6629 0.3752 0.5698
H19_2 H 0.6418 0.4601 0.5547
C13_2 C 0.57128(16) 0.3871(2) 0.4783(3)
C14_2 C 0.49419(14) 0.37970(18) 0.4864(2)
C15_2 C 0.48677(15) 0.3662(2) 0.5411(2)
H20_2 H 0.5197 0.3703 0.5989
C16_2 C 0.43102(16) 0.3467(2) 0.5109(2)
H21_2 H 0.4250 0.3369 0.5475
C17_2 C 0.38413(14) 0.3418(2) 0.4264(2)
H22_2 H 0.3460 0.3273 0.4056
C18_2 C 0.44423(13) 0.37504(17) 0.40228(19)
H23_2 H 0.4486 0.3855 0.3641
C28_2 C 0.42231(12) 0.95985(15) 0.26059(17)
C30_2 C 0.25810(12) 0.93839(15) 0.26171(16)
C31_2 C 0.37700(12) 0.99555(15) 0.25953(16)
C35_2 C 0.29845(12) 0.98677(15) 0.26123(16)
C36_2 C 0.34099(12) 0.95318(15) 0.26385(16)
H36_2 H 0.3454 0.9007 0.2686
O10_3 O 0.5000 0.7699(2) 0.2500
H39_2 H 0.517(3) 0.744(3) 0.245(4)
H51_2 H 0.483(3) 0.744(3) 0.255(4)
O13_2 O 0.32647(11) 0.70822(13) 0.05059(13)
O14_2 O 0.45866(13) 0.3576(2) 0.0897(2)
O15_2 O 0.57554(9) 0.88995(11) 0.24141(13)
N9_2 N 0.41889(10) 0.90224(13) 0.10770(14)
C46_2 C 0.40218(13) 0.96693(16) 0.06752(19)
C50_2 C 0.38443(13) 0.84219(15) 0.06809(18)
H57_2 H 0.3968 0.7964 0.0971
H63_2 H 0.3344 0.5681 0.0131
H65_2 H 0.2862 0.4657 0.0245
C56_2 C 0.35174(16) 0.4230(2) 0.0288(2)
H66_2 H 0.3854 0.4500 0.0793
H67_2 H 0.3490 0.3735 0.0459
C58_2 C 0.42872(16) 0.3871(2) 0.0217(3)
C59_2 C 0.50581(14) 0.37970(18) 0.0136(2)
C62_2 C 0.61587(14) 0.3418(2) 0.0736(2)
H72_2 H 0.6540 0.3273 0.0944
C63_2 C 0.55577(13) 0.37504(17) 0.09772(19)
H73_2 H 0.5514 0.3855 0.1359
C64_2 C 0.57769(12) 0.95985(15) 0.23941(17)
C66_2 C 0.74190(12) 0.93839(15) 0.23829(16)
C67_2 C 0.62300(12) 0.99555(15) 0.24047(16)
C71_2 C 0.70155(12) 0.98677(15) 0.23877(16)
C72_2 C 0.65901(12) 0.95318(15) 0.23615(16)
H76_2 H 0.6546 0.9007 0.2314
O3_4 O 0.91655(11) 0.29068(16) 0.43080(17)
N6_2 N 0.93601(13) 0.31994(18) 0.54707(18)
H3_2 H 0.9651 0.3293 0.6001
C19_4 C 0.76720(18) 0.3252(2) 0.4639(2)
H24_4 H 0.7287 0.3293 0.4459
C20_2 C 0.8166(2) 0.3174(3) 0.5482(2)
H25_2 H 0.8118 0.3148 0.5867
C21_2 C 0.87194(19) 0.3136(2) 0.5744(2)
H26_2 H 0.9061 0.3084 0.6315
C22_2 C 0.87822(15) 0.31720(18) 0.5177(2)
C23_4 C 0.82684(14) 0.32229(17) 0.43415(19)
H27_4 H 0.8305 0.3223 0.3944
C24_2 C 0.95227(15) 0.30978(19) 0.5028(2)
C27_2 C 0.99375(14) 0.46544(18) 0.5125(2)
H32_4 H 0.9500 0.4584 0.4746
C43_2 C 0.98311(15) 0.6734(2) 0.4518(3)
H45_2 H 0.9650 0.7167 0.4559
H46_2 H 0.9608 0.6646 0.3927
C44_2 C 0.97845(15) 0.60473(18) 0.4886(2)
H47_2 H 0.9358 0.5950 0.4575
H48 H 0.9982 0.6157 0.5465
H50_2 H 0.9908 0.5275 0.4312
C60 C 0.01323(15) 0.8662(2) 0.9589(2)
C61 C 0.06898(16) 0.8467(2) 0.9891(2)
H71 H 0.0750 0.8369 0.9525
N8 N 0.43601(13) 0.18006(18) 0.04707(18)
H40 H 0.4651 0.1707 0.1001
C38 C 0.3166(2) 0.1826(3) 0.0482(2)
H42 H 0.3118 0.1852 0.0867
C39 C 0.37194(19) 0.1864(2) 0.0744(2)
H43 H 0.4061 0.1916 0.1315
C40 C 0.37822(15) 0.18280(18) 0.0177(2)
C42 C 0.45227(15) 0.19022(19) 0.0028(2)
C43_3 C 0.51689(15) 0.1734(2) 0.0482(3)
H45_3 H 0.5350 0.2167 0.0441
H46_3 H 0.5392 0.1646 0.1073
C44_3 C 0.52155(15) 0.10473(18) 0.0114(2)
H47_3 H 0.5642 0.0950 0.0425
C45 C 0.49375(14) 0.03456(18) 0.0125(2)
H50_3 H 0.5092 0.0275 0.0688
N10 N 0.20692(11) 0.71691(14) 0.05686(15)
H52 H 0.2324 0.7147 0.1111
C47 C 0.14993(14) 0.52683(17) 0.01505(19)
H55 H 0.1606 0.4806 0.0428
C48 C 0.18581(13) 0.58786(17) 0.05617(18)
H56 H 0.2217 0.5843 0.1125
C49 C 0.16884(13) 0.65545(15) 0.01405(18)
C51 C 0.20872(13) 0.77959(16) 0.02341(18)
C52 C 0.25991(14) 0.83159(17) 0.08712(19)
H58 H 0.2979 0.8086 0.1094
H59 H 0.2615 0.8378 0.1335
C53 C 0.25429(14) 0.90764(17) 0.05235(19)
H60 H 0.2926 0.9345 0.0925
H61 H 0.2465 0.9012 0.0009
C54 C 0.20465(14) 0.95433(19) 0.0338(2)
H62 H 0.2086 0.9538 0.0825
O12 O 0.41655(11) 0.20932(16) 0.93080(17)
N7 N 0.27222(12) 0.17283(14) 0.90830(15)
C37 C 0.26720(18) 0.1748(2) 0.9639(2)
H41 H 0.2287 0.1707 0.9459
C41 C 0.32684(14) 0.17771(17) 0.93415(19)
H44 H 0.3305 0.1777 0.8944
H48_2 H 0.5018 0.1157 0.9535
H49 H 0.4500 0.0416 0.9746
Cd8 Cd 0.19076(2) 0.15779(2) 0.76826(2)
O12_2 O 0.58345(11) 0.20932(16) 0.56920(17)
N7_2 N 0.72778(12) 0.17283(14) 0.59170(15)
N8_2 N 0.56399(13) 0.18006(18) 0.45293(18)
H40_2 H 0.5349 0.1707 0.3999
C37_2 C 0.73280(18) 0.1748(2) 0.5361(2)
H41_2 H 0.7713 0.1707 0.5541
C38_2 C 0.6834(2) 0.1826(3) 0.4518(2)
H42_2 H 0.6882 0.1852 0.4133
C39_2 C 0.62806(19) 0.1864(2) 0.4256(2)
H43_2 H 0.5939 0.1916 0.3685
C40_2 C 0.62178(15) 0.18280(18) 0.4823(2)
C41_2 C 0.67316(14) 0.17771(17) 0.56585(19)
H44_2 H 0.6695 0.1777 0.6056
C42_2 C 0.54773(15) 0.19022(19) 0.4972(2)
C43_4 C 0.48311(15) 0.1734(2) 0.4518(3)
H45_4 H 0.4650 0.2167 0.4559
H46_4 H 0.4608 0.1646 0.3927
C44_4 C 0.47845(15) 0.10473(18) 0.4886(2)
H47_4 H 0.4358 0.0950 0.4575
H48_3 H 0.4982 0.1157 0.5465
C45_2 C 0.50625(14) 0.03456(18) 0.4875(2)
H49_2 H 0.5500 0.0416 0.5254
H50_4 H 0.4908 0.0275 0.4312
Cd8_2 Cd 0.80924(2) 0.15779(2) 0.73174(2)
C25_2 C 0.98311(15) 0.3266(2) 0.9518(3)
H28_2 H 0.9650 0.2833 0.9559
H29_2 H 0.9608 0.3354 0.8927
C26_2 C 0.97845(15) 0.39527(18) 0.9886(2)
H30_2 H 0.9358 0.4050 0.9575
H33_2 H 0.9908 0.4725 0.9312
O12_3 O 0.91655(11) 0.70932(16) 0.93080(17)
N7_3 N 0.77222(12) 0.67283(14) 0.90830(15)
C37_3 C 0.76720(18) 0.6748(2) 0.9639(2)
H41_3 H 0.7287 0.6707 0.9459
C41_3 C 0.82684(14) 0.67771(17) 0.93415(19)
H44_3 H 0.8305 0.6777 0.8944
H49_3 H 0.9500 0.5416 0.9746
Cd8_3 Cd 0.69076(2) 0.65779(2) 0.76826(2)
C25_3 C 0.01689(15) 0.3266(2) 0.5482(3)
H28_3 H 0.0350 0.2833 0.5441
H29_3 H 0.0392 0.3354 0.6073
C26_3 C 0.02155(15) 0.39527(18) 0.5114(2)
H30_3 H 0.0642 0.4050 0.5425
H31_3 H 0.0018 0.3843 0.4535
H33_3 H 0.0092 0.4725 0.5688
O12_4 O 0.08345(11) 0.70932(16) 0.56920(17)
N7_4 N 0.22778(12) 0.67283(14) 0.59170(15)
N8_3 N 0.06399(13) 0.68006(18) 0.45293(18)
H40_3 H 0.0349 0.6707 0.3999
C37_4 C 0.23280(18) 0.6748(2) 0.5361(2)
H41_4 H 0.2713 0.6707 0.5541
C38_3 C 0.1834(2) 0.6826(3) 0.4518(2)
H42_3 H 0.1882 0.6852 0.4133
C39_3 C 0.12806(19) 0.6864(2) 0.4256(2)
H43_3 H 0.0939 0.6916 0.3685
C40_3 C 0.12178(15) 0.68280(18) 0.4823(2)
C41_4 C 0.17316(14) 0.67771(17) 0.56585(19)
H44_4 H 0.1695 0.6777 0.6056
C42_3 C 0.04773(15) 0.69022(19) 0.4972(2)
C45_3 C 0.00625(14) 0.53456(18) 0.4875(2)
H49_4 H 0.0500 0.5416 0.5254
Cd8_4 Cd 0.30924(2) 0.65779(2) 0.73174(2)
N4 N 0.10966(10) 0.14358(13) 0.62682(15)
C14_3 C 0.00581(14) 0.12030(18) 0.5136(2)
C15_3 C 0.01323(15) 0.1338(2) 0.4589(2)
C16_3 C 0.06898(16) 0.1533(2) 0.4891(2)
H21_3 H 0.0750 0.1631 0.4525
C17_3 C 0.11587(14) 0.1582(2) 0.5736(2)
H22_3 H 0.1540 0.1727 0.5944
C18_3 C 0.05577(13) 0.12496(17) 0.59772(19)
H23_3 H 0.0514 0.1145 0.6359
O14_3 O 0.04134(13) 0.1424(2) 0.9103(2)
H65_3 H 0.2138 0.0343 0.9755
C56_3 C 0.14826(16) 0.0770(2) 0.9712(2)
H66_3 H 0.1146 0.0500 0.9207
H67_3 H 0.1510 0.1265 0.9541
C58_3 C 0.07128(16) 0.1129(2) 0.9783(3)
Cd1_4 Cd -0.0000 0.60165(2) 0.7500
O4_3 O 0.07554(9) 0.61005(11) 0.74141(13)
O5_3 O 0.04351(9) 0.49913(11) 0.73799(13)
O6_3 O 0.14810(9) 0.27290(11) 0.76635(13)
O7_3 O 0.21201(9) 0.27941(11) 0.74959(13)
O8_2 O 0.27287(9) 0.53233(11) 0.72521(12)
O9_2 O 0.24314(8) 0.62988(10) 0.75083(12)
C28_3 C 0.07769(12) 0.54015(15) 0.73941(17)
C29_3 C 0.17756(12) 0.30990(15) 0.75538(16)
C30_3 C 0.24190(12) 0.56161(15) 0.73829(16)
C31_3 C 0.12300(12) 0.50445(15) 0.74047(16)
C32_3 C 0.12982(12) 0.42730(15) 0.74775(16)
H34_3 H 0.1061 0.3981 0.7524
C33_3 C 0.17097(12) 0.39319(14) 0.74829(16)
C34_3 C 0.20692(12) 0.43628(15) 0.74348(16)
H35_3 H 0.2350 0.4130 0.7434
C35_3 C 0.20155(12) 0.51323(15) 0.73877(16)
C36_3 C 0.15901(12) 0.54682(15) 0.73615(16)
H36_3 H 0.1546 0.5993 0.7314
O10_4 O 0.0000 0.7301(2) 0.7500
O11_3 O 0.13783(11) 0.10594(13) 0.79873(15)
H37_3 H 0.1452 0.1355 0.8349
H38_3 H 0.1359 0.0639 0.8146
H51_3 H 0.017(3) 0.756(3) 0.745(4)
O13_3 O 0.17353(11) 0.79178(13) 0.94941(13)
N9_3 N 0.08111(10) 0.59776(13) 0.89230(14)
C46_3 C 0.09782(13) 0.53307(16) 0.93248(19)
H54_3 H 0.0735 0.4904 0.9040
C50_3 C 0.11557(13) 0.65781(15) 0.93191(18)
H57_3 H 0.1032 0.7036 0.9029
H63_3 H 0.1656 0.9319 0.9869
O23_2 O 0.22713(9) 0.03233(11) 0.77479(12)
O25_2 O 0.25686(8) 0.12988(10) 0.74917(12)
O2_3 O 0.95866(13) 0.1424(2) 0.5897(2)
N3_3 N 0.94920(12) 0.10100(16) 0.48358(17)
H2_3 H 0.9247 0.0790 0.4351
C10_3 C 0.79402(15) 0.03421(19) 0.4873(2)
H14_3 H 0.7606 0.0604 0.4360
H15_3 H 0.7862 0.0343 0.5245
C11_3 C 0.85174(16) 0.0770(2) 0.5288(2)
H16_3 H 0.8854 0.0500 0.5793
H17_3 H 0.8490 0.1265 0.5459
C12_3 C 0.86498(16) 0.0875(3) 0.4733(3)
H18_3 H 0.8371 0.1248 0.4302
H19_3 H 0.8582 0.0399 0.4453
C13_3 C 0.92872(16) 0.1129(2) 0.5217(3)
H20_3 H 0.9803 0.1297 0.4011
N12 N 0.89034(10) 0.14358(13) 0.87318(15)
C59_3 C 0.99419(14) 0.12030(18) 0.9864(2)
C62_3 C 0.88413(14) 0.1582(2) 0.9264(2)
H72_3 H 0.8460 0.1727 0.9056
C63_3 C 0.94423(13) 0.12496(17) 0.90228(19)
H73_3 H 0.9486 0.1145 0.8641
Cd1_5 Cd 1.0000 0.60165(2) 0.7500
O1_3 O 0.82647(11) 0.79178(13) 0.55059(13)
N1_3 N 0.91889(10) 0.59776(13) 0.60770(14)
N2_3 N 0.79308(11) 0.71691(14) 0.44314(15)
H1_3 H 0.7676 0.7147 0.3889
C1_3 C 0.90218(13) 0.53307(16) 0.56752(19)
H4_3 H 0.9265 0.4904 0.5960
C2_3 C 0.85007(14) 0.52683(17) 0.48495(19)
H5_3 H 0.8394 0.4806 0.4572
C3_3 C 0.81419(13) 0.58786(17) 0.44383(18)
H6_3 H 0.7783 0.5843 0.3875
C4_3 C 0.83116(13) 0.65545(15) 0.48595(18)
C5_3 C 0.88443(13) 0.65781(15) 0.56809(18)
H7_3 H 0.8968 0.7036 0.5971
C6_3 C 0.79128(13) 0.77959(16) 0.47659(18)
C7_3 C 0.74009(14) 0.83159(17) 0.41288(19)
H8_3 H 0.7021 0.8086 0.3906
H9_3 H 0.7385 0.8378 0.3665
C8_3 C 0.74571(14) 0.90764(17) 0.44765(19)
H10_3 H 0.7074 0.9345 0.4075
H11_3 H 0.7535 0.9012 0.4991
C9_3 C 0.79535(14) 0.95433(19) 0.4662(2)
H12_3 H 0.7914 0.9538 0.4175
H13_3 H 0.8344 0.9319 0.5131
O10_5 O 1.0000 0.7301(2) 0.7500
H39_3 H 0.983(3) 0.756(3) 0.755(4)
O15_3 O 0.92446(9) 0.61005(11) 0.75859(13)
O16_3 O 0.95649(9) 0.49913(11) 0.76201(13)
O17_3 O 0.85190(9) 0.27290(11) 0.73365(13)
O18_3 O 0.78799(9) 0.27941(11) 0.75041(13)
O19_2 O 0.72713(9) 0.53233(11) 0.77479(12)
O20_2 O 0.75686(8) 0.62988(10) 0.74917(12)
C64_3 C 0.92231(12) 0.54015(15) 0.76059(17)
C65_3 C 0.82244(12) 0.30990(15) 0.74462(16)
C66_3 C 0.75810(12) 0.56161(15) 0.76171(16)
C67_3 C 0.87700(12) 0.50445(15) 0.75953(16)
C68_3 C 0.87018(12) 0.42730(15) 0.75225(16)
H74_3 H 0.8939 0.3981 0.7476
C69_3 C 0.82903(12) 0.39319(14) 0.75171(16)
C70_3 C 0.79308(12) 0.43628(15) 0.75652(16)
H75_3 H 0.7650 0.4130 0.7566
C71_3 C 0.79845(12) 0.51323(15) 0.76123(16)
C72_3 C 0.84099(12) 0.54682(15) 0.76385(16)
H76_3 H 0.8454 0.5993 0.7686
O21_3 O 0.86217(11) 0.10594(13) 0.70127(15)
H77_3 H 0.8548 0.1355 0.6651
H78_3 H 0.8641 0.0639 0.6854
O22_2 O 0.77287(9) 0.03233(11) 0.72521(12)
O24_2 O 0.74314(8) 0.12988(10) 0.75083(12)
Cd1_6 Cd 0.5000 0.10165(2) 0.7500
O1_4 O 0.32647(11) 0.29178(13) 0.55059(13)
O2_4 O 0.45866(13) 0.6424(2) 0.5897(2)
O4_4 O 0.57554(9) 0.11005(11) 0.74141(13)
N1_4 N 0.41889(10) 0.09776(13) 0.60770(14)
N2_4 N 0.29308(11) 0.21691(14) 0.44314(15)
H1_4 H 0.2676 0.2147 0.3889
N3_4 N 0.44920(12) 0.60100(16) 0.48358(17)
H2_4 H 0.4247 0.5790 0.4351
N4_2 N 0.60966(10) 0.64358(13) 0.62682(15)
C1_4 C 0.40218(13) 0.03307(16) 0.56752(19)
C2_4 C 0.35007(14) 0.02683(17) 0.48495(19)
C3_4 C 0.31419(13) 0.08786(17) 0.44383(18)
H6_4 H 0.2783 0.0843 0.3875
C4_4 C 0.33116(13) 0.15545(15) 0.48595(18)
C5_4 C 0.38443(13) 0.15781(15) 0.56809(18)
H7_4 H 0.3968 0.2036 0.5971
C6_4 C 0.29128(13) 0.27959(16) 0.47659(18)
C7_4 C 0.24009(14) 0.33159(17) 0.41288(19)
H8_4 H 0.2021 0.3086 0.3906
H9_4 H 0.2385 0.3378 0.3665
C8_4 C 0.24571(14) 0.40764(17) 0.44765(19)
H10_4 H 0.2074 0.4345 0.4075
H11_4 H 0.2535 0.4012 0.4991
C9_4 C 0.29535(14) 0.45433(19) 0.4662(2)
H12_4 H 0.2914 0.4538 0.4175
H13_4 H 0.3344 0.4319 0.5131
C10_4 C 0.29402(15) 0.53421(19) 0.4873(2)
H14_4 H 0.2606 0.5604 0.4360
H15_4 H 0.2862 0.5343 0.5245
C11_4 C 0.35174(16) 0.5770(2) 0.5288(2)
H16_4 H 0.3854 0.5500 0.5793
H17_4 H 0.3490 0.6265 0.5459
C12_4 C 0.36498(16) 0.5875(3) 0.4733(3)
H18_4 H 0.3371 0.6248 0.4302
H19_4 H 0.3582 0.5399 0.4453
C13_4 C 0.42872(16) 0.6129(2) 0.5217(3)
C14_4 C 0.50581(14) 0.62030(18) 0.5136(2)
C15_4 C 0.51323(15) 0.6338(2) 0.4589(2)
H20_4 H 0.4803 0.6297 0.4011
C16_4 C 0.56898(16) 0.6533(2) 0.4891(2)
H21_4 H 0.5750 0.6631 0.4525
C17_4 C 0.61587(14) 0.6582(2) 0.5736(2)
H22_4 H 0.6540 0.6727 0.5944
C18_4 C 0.55577(13) 0.62496(17) 0.59772(19)
H23_4 H 0.5514 0.6145 0.6359
C28_4 C 0.57769(12) 0.04015(15) 0.73941(17)
C30_4 C 0.74190(12) 0.06161(15) 0.73829(16)
C31_4 C 0.62300(12) 0.00445(15) 0.74047(16)
C35_4 C 0.70155(12) 0.01323(15) 0.73877(16)
C36_4 C 0.65901(12) 0.04682(15) 0.73615(16)
H36_4 H 0.6546 0.0993 0.7314
O10_6 O 0.5000 0.2301(2) 0.7500
H39_4 H 0.483(3) 0.256(3) 0.755(4)
H51_4 H 0.517(3) 0.256(3) 0.745(4)
O13_4 O 0.67353(11) 0.29178(13) 0.94941(13)
O14_4 O 0.54134(13) 0.6424(2) 0.9103(2)
O15_4 O 0.42446(9) 0.11005(11) 0.75859(13)
N9_4 N 0.58111(10) 0.09776(13) 0.89230(14)
N12_2 N 0.39034(10) 0.64358(13) 0.87318(15)
C46_4 C 0.59782(13) 0.03307(16) 0.93248(19)
C50_4 C 0.61557(13) 0.15781(15) 0.93191(18)
H57_4 H 0.6032 0.2036 0.9029
H63_4 H 0.6656 0.4319 0.9869
H65_4 H 0.7138 0.5343 0.9755
C56_4 C 0.64826(16) 0.5770(2) 0.9712(2)
H66_4 H 0.6146 0.5500 0.9207
H67_4 H 0.6510 0.6265 0.9541
C58_4 C 0.57128(16) 0.6129(2) 0.9783(3)
C59_4 C 0.49419(14) 0.62030(18) 0.9864(2)
C62_4 C 0.38413(14) 0.6582(2) 0.9264(2)
H72_4 H 0.3460 0.6727 0.9056
C63_4 C 0.44423(13) 0.62496(17) 0.90228(19)
H73_4 H 0.4486 0.6145 0.8641
C64_4 C 0.42231(12) 0.04015(15) 0.76059(17)
C66_4 C 0.25810(12) 0.06161(15) 0.76171(16)
C67_4 C 0.37700(12) 0.00445(15) 0.75953(16)
C71_4 C 0.29845(12) 0.01323(15) 0.76123(16)
C72_4 C 0.34099(12) 0.04682(15) 0.76385(16)
H76_4 H 0.3454 0.0993 0.7686
O5_4 O 0.54351(9) 0.99913(11) 0.73799(13)
O6_4 O 0.64810(9) 0.77290(11) 0.76635(13)
O7_4 O 0.71201(9) 0.77941(11) 0.74959(13)
H4_4 H 0.4265 0.9904 0.5960
H5_4 H 0.3394 0.9806 0.4572
C29_4 C 0.67756(12) 0.80990(15) 0.75538(16)
C32_4 C 0.62982(12) 0.92730(15) 0.74775(16)
H34_4 H 0.6061 0.8981 0.7524
C33_4 C 0.67097(12) 0.89319(14) 0.74829(16)
C34_4 C 0.70692(12) 0.93628(15) 0.74348(16)
H35_4 H 0.7350 0.9130 0.7434
O11_4 O 0.63783(11) 0.60594(13) 0.79873(15)
H37_4 H 0.6452 0.6355 0.8349
H38_4 H 0.6359 0.5639 0.8146
O16_4 O 0.45649(9) 0.99913(11) 0.76201(13)
O17_4 O 0.35190(9) 0.77290(11) 0.73365(13)
O18_4 O 0.28799(9) 0.77941(11) 0.75041(13)
H54_4 H 0.5735 0.9904 0.9040
C65_4 C 0.32244(12) 0.80990(15) 0.74462(16)
C68_4 C 0.37018(12) 0.92730(15) 0.75225(16)
H74_4 H 0.3939 0.8981 0.7476
C69_4 C 0.32903(12) 0.89319(14) 0.75171(16)
C70_4 C 0.29308(12) 0.93628(15) 0.75652(16)
H75_4 H 0.2650 0.9130 0.7566
O21_4 O 0.36217(11) 0.60594(13) 0.70127(15)
H77_4 H 0.3548 0.6355 0.6651
H78_4 H 0.3641 0.5639 0.6854
N6_3 N 0.56399(13) 0.81994(18) 0.95293(18)
H3_3 H 0.5349 0.8293 0.8999
C20_3 C 0.6834(2) 0.8174(3) 0.9518(2)
H25_3 H 0.6882 0.8148 0.9133
C21_3 C 0.62806(19) 0.8136(2) 0.9256(2)
H26_3 H 0.5939 0.8084 0.8685
C22_3 C 0.62178(15) 0.81720(18) 0.9823(2)
C24_3 C 0.54773(15) 0.80978(19) 0.9972(2)
C25_4 C 0.48311(15) 0.8266(2) 0.9518(3)
H28_4 H 0.4650 0.7833 0.9559
H29_4 H 0.4608 0.8354 0.8927
C26_4 C 0.47845(15) 0.89527(18) 0.9886(2)
H30_4 H 0.4358 0.9050 0.9575
C27_3 C 0.50625(14) 0.96544(18) 0.9875(2)
H33_4 H 0.4908 0.9725 0.9312
N10_2 N 0.79308(11) 0.28309(14) 0.94314(15)
H52_2 H 0.7676 0.2853 0.8889
C47_2 C 0.85007(14) 0.47317(17) 0.98495(19)
H55_2 H 0.8394 0.5194 0.9572
C48_2 C 0.81419(13) 0.41214(17) 0.94383(18)
H56_2 H 0.7783 0.4157 0.8875
C49_2 C 0.83116(13) 0.34455(15) 0.98595(18)
C51_2 C 0.79128(13) 0.22041(16) 0.97659(18)
C52_2 C 0.74009(14) 0.16841(17) 0.91288(19)
H58_2 H 0.7021 0.1914 0.8906
H59_2 H 0.7385 0.1622 0.8665
C53_2 C 0.74571(14) 0.09236(17) 0.94765(19)
H60_2 H 0.7074 0.0655 0.9075
H61_2 H 0.7535 0.0988 0.9991
C54_2 C 0.79535(14) 0.04567(19) 0.9662(2)
H62_2 H 0.7914 0.0462 0.9175
N11 N 0.94920(12) 0.89900(16) 0.98358(17)
H53 H 0.9247 0.9210 0.9351
C55 C 0.79402(15) 0.96579(19) 0.9873(2)
H64 H 0.7606 0.9396 0.9360
C57 C 0.86498(16) 0.9125(3) 0.9733(3)
H68 H 0.8371 0.8752 0.9302
H69 H 0.8582 0.9601 0.9453
H70 H 0.9803 0.8703 0.9011
N6_4 N 0.06399(13) 0.31994(18) 0.95293(18)
H3_4 H 0.0349 0.3293 0.8999
C20_4 C 0.1834(2) 0.3174(3) 0.9518(2)
H25_4 H 0.1882 0.3148 0.9133
C21_4 C 0.12806(19) 0.3136(2) 0.9256(2)
H26_4 H 0.0939 0.3084 0.8685
C22_4 C 0.12178(15) 0.31720(18) 0.9823(2)
C24_4 C 0.04773(15) 0.30978(19) 0.9972(2)
C27_4 C 0.00625(14) 0.46544(18) 0.9875(2)
H48_4 H 0.0018 0.6157 0.9535
H55_3 H 0.3394 0.0194 0.9572
N10_3 N 0.29308(11) 0.78309(14) 0.94314(15)
H52_3 H 0.2676 0.7853 0.8889
N11_2 N 0.44920(12) 0.39900(16) 0.98358(17)
H53_2 H 0.4247 0.4210 0.9351
C47_3 C 0.35007(14) 0.97317(17) 0.98495(19)
C48_3 C 0.31419(13) 0.91214(17) 0.94383(18)
H56_3 H 0.2783 0.9157 0.8875
C49_3 C 0.33116(13) 0.84455(15) 0.98595(18)
C51_3 C 0.29128(13) 0.72041(16) 0.97659(18)
C52_3 C 0.24009(14) 0.66841(17) 0.91288(19)
H58_3 H 0.2021 0.6914 0.8906
H59_3 H 0.2385 0.6622 0.8665
C53_3 C 0.24571(14) 0.59236(17) 0.94765(19)
H60_3 H 0.2074 0.5655 0.9075
H61_3 H 0.2535 0.5988 0.9991
C54_3 C 0.29535(14) 0.54567(19) 0.9662(2)
H62_3 H 0.2914 0.5462 0.9175
C55_2 C 0.29402(15) 0.46579(19) 0.9873(2)
H64_2 H 0.2606 0.4396 0.9360
C57_2 C 0.36498(16) 0.4125(3) 0.9733(3)
H68_2 H 0.3371 0.3752 0.9302
H69_2 H 0.3582 0.4601 0.9453
C60_2 C 0.51323(15) 0.3662(2) 0.9589(2)
H70_2 H 0.4803 0.3703 0.9011
C61_2 C 0.56898(16) 0.3467(2) 0.9891(2)
H71_2 H 0.5750 0.3369 0.9525
H31_4 H 0.9982 0.3843 0.0465
N8_4 N 0.93601(13) 0.68006(18) 0.04707(18)
H40_4 H 0.9651 0.6707 0.1001
C38_4 C 0.8166(2) 0.6826(3) 0.0482(2)
H42_4 H 0.8118 0.6852 0.0867
C39_4 C 0.87194(19) 0.6864(2) 0.0744(2)
H43_4 H 0.9061 0.6916 0.1315
C40_4 C 0.87822(15) 0.68280(18) 0.0177(2)
C42_4 C 0.95227(15) 0.69022(19) 0.0028(2)
C45_4 C 0.99375(14) 0.53456(18) 0.0125(2)
H55_4 H 0.6606 0.9806 0.0428
N11_3 N 0.05080(12) 0.10100(16) 0.01642(17)
H53_3 H 0.0753 0.0790 0.0649
C55_3 C 0.20598(15) 0.03421(19) 0.0127(2)
H64_3 H 0.2394 0.0604 0.0640
C57_3 C 0.13502(16) 0.0875(3) 0.0267(3)
H68_3 H 0.1629 0.1248 0.0698
H69_3 H 0.1418 0.0399 0.0547
H70_3 H 0.0197 0.1297 0.0989
C60_3 C 0.98677(15) 0.1338(2) 0.0411(2)
C61_3 C 0.93102(16) 0.1533(2) 0.0109(2)
H71_3 H 0.9250 0.1631 0.0475
N10_4 N 0.70692(11) 0.21691(14) 0.05686(15)
H52_4 H 0.7324 0.2147 0.1111
N11_4 N 0.55080(12) 0.60100(16) 0.01642(17)
H53_4 H 0.5753 0.5790 0.0649
C47_4 C 0.64993(14) 0.02683(17) 0.01505(19)
C48_4 C 0.68581(13) 0.08786(17) 0.05617(18)
H56_4 H 0.7217 0.0843 0.1125
C49_4 C 0.66884(13) 0.15545(15) 0.01405(18)
C51_4 C 0.70872(13) 0.27959(16) 0.02341(18)
C52_4 C 0.75991(14) 0.33159(17) 0.08712(19)
H58_4 H 0.7979 0.3086 0.1094
H59_4 H 0.7615 0.3378 0.1335
C53_4 C 0.75429(14) 0.40764(17) 0.05235(19)
H60_4 H 0.7926 0.4345 0.0925
H61_4 H 0.7465 0.4012 0.0009
C54_4 C 0.70465(14) 0.45433(19) 0.0338(2)
H62_4 H 0.7086 0.4538 0.0825
C55_4 C 0.70598(15) 0.53421(19) 0.0127(2)
H64_4 H 0.7394 0.5604 0.0640
C57_4 C 0.63502(16) 0.5875(3) 0.0267(3)
H68_4 H 0.6629 0.6248 0.0698
H69_4 H 0.6418 0.5399 0.0547
C60_4 C 0.48677(15) 0.6338(2) 0.0411(2)
H70_4 H 0.5197 0.6297 0.0989
C61_4 C 0.43102(16) 0.6533(2) 0.0109(2)
H71_4 H 0.4250 0.6631 0.0475
loop_
_geom_bond_atom_site_label_1
_geom_bond_atom_site_label_2
_geom_bond_site_symmetry_1
_geom_bond_site_symmetry_2
O1 C6 1_555 1_555
N1 Cd1 1_555 1_555
N2 H1 1_555 1_555
C1 N1 1_555 1_555
H4 C1 1_555 1_555
C2 C1 1_555 1_555
H5 C2 1_555 1_555
C3 C2 1_555 1_555
H6 C3 1_555 1_555
C4 N2 1_555 1_555
C5 N1 1_555 1_555
H7 C5 1_555 1_555
C6 N2 1_555 1_555
C7 C6 1_555 1_555
H8 C7 1_555 1_555
H9 C7 1_555 1_555
C8 C7 1_555 1_555
H10 C8 1_555 1_555
H11 C8 1_555 1_555
C9 C8 1_555 1_555
H12 C9 1_555 1_555
H13 C9 1_555 1_555
O10 Cd1 1_555 1_555
H39 O10 1_555 1_555
Cd3 O17 1_555 1_555
O15 Cd1 1_555 1_555
O16 Cd1 1_555 1_555
O17 C65 1_555 1_555
O18 Cd3 1_555 1_555
O19 C66 1_555 1_555
O20 C66 1_555 1_555
C64 O15 1_555 1_555
C65 O18 1_555 1_555
C66 C71 1_555 1_555
C67 C64 1_555 1_555
C68 C67 1_555 1_555
H74 C68 1_555 1_555
C69 C65 1_555 1_555
C70 C69 1_555 1_555
H75 C70 1_555 1_555
C71 C70 1_555 1_555
C72 C67 1_555 1_555
H76 C72 1_555 1_555
O21 Cd3 1_555 1_555
H77 O21 1_555 1_555
H78 O21 1_555 1_555
Cd6 O19 1_555 1_555
O22 Cd3 1_555 1_555
O24 Cd3 1_555 1_555
N14 Cd3 1_555 1_555
N15 Cd3 1_555 1_555
C3 C4 1_555 1_555
C4 C5 1_555 1_555
O16 C64 1_555 1_555
O20 Cd6 1_555 1_555
C68 C69 1_555 1_555
C71 C72 1_555 1_555
O2 C13 1_555 1_555
N3 H2 1_555 1_555
H14 C10 1_555 1_555
H15 C10 1_555 1_555
C11 C10 1_555 1_555
H16 C11 1_555 1_555
H17 C11 1_555 1_555
C12 C11 1_555 1_555
H18 C12 1_555 1_555
H19 C12 1_555 1_555
C13 N3 1_555 1_555
N14 C62 1_555 1_555
H72 C62 1_555 1_555
C63 N14 1_555 1_555
H73 C63 1_555 1_555
C12 C13 1_555 1_555
C59 C63 1_555 1_555
Cd1_2 O4 1_555 1_555
Cd2 O6 1_555 1_555
O4 C28 1_555 1_555
O5 Cd1_2 1_555 1_555
O6 C29 1_555 1_555
O7 Cd2 1_555 1_555
O8 C30 1_555 1_555
O9 C30 1_555 1_555
N5 Cd2 1_555 1_555
C19 N5 1_555 1_555
H24 C19 1_555 1_555
C23 N5 1_555 1_555
H27 C23 1_555 1_555
C28 O5 1_555 1_555
C29 O7 1_555 1_555
C30 C35 1_555 1_555
C31 C28 1_555 1_555
C32 C31 1_555 1_555
H34 C32 1_555 1_555
C33 C29 1_555 1_555
C34 C33 1_555 1_555
H35 C34 1_555 1_555
C35 C34 1_555 1_555
C36 C31 1_555 1_555
H36 C36 1_555 1_555
O10_2 Cd1_2 1_555 1_555
O11 Cd2 1_555 1_555
H37 O11 1_555 1_555
H38 O11 1_555 1_555
H51 O10_2 1_555 1_555
N9 Cd1_2 1_555 1_555
C46 N9 1_555 1_555
H54 C46 1_555 1_555
C50 N9 1_555 1_555
H57 C50 1_555 1_555
Cd7 O8 1_555 1_555
O23 Cd2 1_555 1_555
O25 Cd2 1_555 1_555
N13 Cd2 1_555 1_555
O9 Cd7 1_555 1_555
C32 C33 1_555 1_555
C35 C36 1_555 1_555
N13 C17 1_555 1_555
C15 C14 1_555 1_555
C16 C15 1_555 1_555
H21 C16 1_555 1_555
C17 C16 1_555 1_555
H22 C17 1_555 1_555
C18 N13 1_555 1_555
H23 C18 1_555 1_555
O14 C58 1_555 1_555
H66 C56 1_555 1_555
H67 C56 1_555 1_555
C14 C18 1_555 1_555
O3_2 C24 1_555 1_555
N6 H3 1_555 1_555
C19_2 N15 1_555 1_555
H24_2 C19_2 1_555 1_555
C20 C19_2 1_555 1_555
H25 C20 1_555 1_555
C21 C20 1_555 1_555
H26 C21 1_555 1_555
C22 N6 1_555 1_555
C23_2 N15 1_555 1_555
H27_2 C23_2 1_555 1_555
C24 N6 1_555 1_555
C25 C24 1_555 1_555
H28 C25 1_555 1_555
H29 C25 1_555 1_555
C26 C25 1_555 1_555
H30 C26 1_555 1_555
H31_2 C26 1_555 1_555
C27 C26 1_555 1_555
H32_2 C27 1_555 1_555
H33 C27 1_555 1_555
C21 C22 1_555 1_555
C22 C23_2 1_555 1_555
Cd6 O6_2 1_555 1_555
O6_2 C29_2 1_555 1_555
O7_2 Cd6 1_555 1_555
N5_2 Cd6 1_555 1_555
C19_3 N5_2 1_555 1_555
H24_3 C19_3 1_555 1_555
C23_3 N5_2 1_555 1_555
H27_3 C23_3 1_555 1_555
C29_2 O7_2 1_555 1_555
H34_2 C32_2 1_555 1_555
C33_2 C29_2 1_555 1_555
C34_2 C33_2 1_555 1_555
H35_2 C34_2 1_555 1_555
O11_2 Cd6 1_555 1_555
H37_2 O11_2 1_555 1_555
H38_2 O11_2 1_555 1_555
H45 C43 1_555 1_555
H46 C43 1_555 1_555
C44 C43 1_555 1_555
H47 C44 1_555 1_555
Cd7 O17_2 1_555 1_555
O17_2 C65_2 1_555 1_555
O18_2 Cd7 1_555 1_555
C65_2 O18_2 1_555 1_555
H74_2 C68_2 1_555 1_555
C69_2 C65_2 1_555 1_555
C70_2 C69_2 1_555 1_555
H75_2 C70_2 1_555 1_555
O21_2 Cd7 1_555 1_555
H77_2 O21_2 1_555 1_555
H78_2 O21_2 1_555 1_555
N13_2 Cd6 1_555 1_555
N14_2 Cd7 1_555 1_555
N15_2 Cd7 1_555 1_555
C32_2 C33_2 1_555 1_555
C68_2 C69_2 1_555 1_555
Cd1_3 O4_2 1_555 1_555
O1_2 C6_2 1_555 1_555
O2_2 C13_2 1_555 1_555
O4_2 C28_2 1_555 1_555
O22 C30_2 1_555 1_555
O24 C30_2 1_555 1_555
N1_2 Cd1_3 1_555 1_555
N2_2 H1_2 1_555 1_555
N3_2 H2_2 1_555 1_555
N13_2 C17_2 1_555 1_555
C1_2 N1_2 1_555 1_555
C2_2 C1_2 1_555 1_555
C3_2 C2_2 1_555 1_555
H6_2 C3_2 1_555 1_555
C4_2 N2_2 1_555 1_555
C5_2 N1_2 1_555 1_555
H7_2 C5_2 1_555 1_555
C6_2 N2_2 1_555 1_555
C7_2 C6_2 1_555 1_555
H8_2 C7_2 1_555 1_555
H9_2 C7_2 1_555 1_555
C8_2 C7_2 1_555 1_555
H10_2 C8_2 1_555 1_555
H11_2 C8_2 1_555 1_555
C9_2 C8_2 1_555 1_555
H12_2 C9_2 1_555 1_555
H13_2 C9_2 1_555 1_555
C10_2 C9_2 1_555 1_555
H14_2 C10_2 1_555 1_555
H15_2 C10_2 1_555 1_555
C11_2 C10_2 1_555 1_555
H16_2 C11_2 1_555 1_555
H17_2 C11_2 1_555 1_555
C12_2 C11_2 1_555 1_555
H18_2 C12_2 1_555 1_555
H19_2 C12_2 1_555 1_555
C13_2 N3_2 1_555 1_555
C14_2 N3_2 1_555 1_555
C15_2 C14_2 1_555 1_555
H20_2 C15_2 1_555 1_555
C16_2 C15_2 1_555 1_555
H21_2 C16_2 1_555 1_555
C17_2 C16_2 1_555 1_555
H22_2 C17_2 1_555 1_555
C18_2 N13_2 1_555 1_555
H23_2 C18_2 1_555 1_555
C30_2 C35_2 1_555 1_555
C31_2 C28_2 1_555 1_555
C36_2 C31_2 1_555 1_555
H36_2 C36_2 1_555 1_555
O10_3 Cd1_3 1_555 1_555
H39_2 O10_3 1_555 1_555
H51_2 O10_3 1_555 1_555
O14_2 C58_2 1_555 1_555
O15_2 Cd1_3 1_555 1_555
O23 C66_2 1_555 1_555
O25 C66_2 1_555 1_555
N9_2 Cd1_3 1_555 1_555
N14_2 C62_2 1_555 1_555
C46_2 N9_2 1_555 1_555
C50_2 N9_2 1_555 1_555
H57_2 C50_2 1_555 1_555
H66_2 C56_2 1_555 1_555
H67_2 C56_2 1_555 1_555
H72_2 C62_2 1_555 1_555
C63_2 N14_2 1_555 1_555
H73_2 C63_2 1_555 1_555
C64_2 O15_2 1_555 1_555
C66_2 C71_2 1_555 1_555
C67_2 C64_2 1_555 1_555
C72_2 C67_2 1_555 1_555
H76_2 C72_2 1_555 1_555
C3_2 C4_2 1_555 1_555
C4_2 C5_2 1_555 1_555
C12_2 C13_2 1_555 1_555
C14_2 C18_2 1_555 1_555
C35_2 C36_2 1_555 1_555
C59_2 C63_2 1_555 1_555
C71_2 C72_2 1_555 1_555
O3_4 C24_2 1_555 1_555
N6_2 H3_2 1_555 1_555
C19_4 N15_2 1_555 1_555
H24_4 C19_4 1_555 1_555
C20_2 C19_4 1_555 1_555
H25_2 C20_2 1_555 1_555
C21_2 C20_2 1_555 1_555
H26_2 C21_2 1_555 1_555
C22_2 N6_2 1_555 1_555
C23_4 N15_2 1_555 1_555
H27_4 C23_4 1_555 1_555
C24_2 N6_2 1_555 1_555
H32_4 C27_2 1_555 1_555
H45_2 C43_2 1_555 1_555
H46_2 C43_2 1_555 1_555
C44_2 C43_2 1_555 1_555
H47_2 C44_2 1_555 1_555
H48 C44_2 1_555 1_555
C21_2 C22_2 1_555 1_555
C22_2 C23_4 1_555 1_555
C61 C60 1_555 1_555
H71 C61 1_555 1_555
N8 H40 1_555 1_555
H42 C38 1_555 1_555
C39 C38 1_555 1_555
H43 C39 1_555 1_555
C40 N8 1_555 1_555
C42 N8 1_555 1_555
C43_3 C42 1_555 1_555
H45_3 C43_3 1_555 1_555
H46_3 C43_3 1_555 1_555
C44_3 C43_3 1_555 1_555
H47_3 C44_3 1_555 1_555
H50_3 C45 1_555 1_555
C39 C40 1_555 1_555
C44_3 C45 1_555 1_555
N10 H52 1_555 1_555
H55 C47 1_555 1_555
C48 C47 1_555 1_555
H56 C48 1_555 1_555
C49 N10 1_555 1_555
C51 N10 1_555 1_555
C52 C51 1_555 1_555
H58 C52 1_555 1_555
H59 C52 1_555 1_555
C53 C52 1_555 1_555
H60 C53 1_555 1_555
H61 C53 1_555 1_555
C54 C53 1_555 1_555
H62 C54 1_555 1_555
C48 C49 1_555 1_555
N7 C37 1_555 1_555
C37 H41 1_555 1_555
C41 N7 1_555 1_555
H44 C41 1_555 1_555
Cd8 N7 1_555 1_555
O12_2 C42_2 1_555 1_555
N7_2 C37_2 1_555 1_555
N8_2 H40_2 1_555 1_555
C37_2 H41_2 1_555 1_555
C38_2 C37_2 1_555 1_555
H42_2 C38_2 1_555 1_555
C39_2 C38_2 1_555 1_555
H43_2 C39_2 1_555 1_555
C40_2 N8_2 1_555 1_555
C41_2 N7_2 1_555 1_555
H44_2 C41_2 1_555 1_555
C42_2 N8_2 1_555 1_555
C43_4 C42_2 1_555 1_555
H45_4 C43_4 1_555 1_555
H46_4 C43_4 1_555 1_555
C44_4 C43_4 1_555 1_555
H47_4 C44_4 1_555 1_555
H48_3 C44_4 1_555 1_555
H49_2 C45_2 1_555 1_555
H50_4 C45_2 1_555 1_555
Cd8_2 N7_2 1_555 1_555
C39_2 C40_2 1_555 1_555
C40_2 C41_2 1_555 1_555
C44_4 C45_2 1_555 1_555
H28_2 C25_2 1_555 1_555
H29_2 C25_2 1_555 1_555
C26_2 C25_2 1_555 1_555
H30_2 C26_2 1_555 1_555
N7_3 C37_3 1_555 1_555
C37_3 H41_3 1_555 1_555
C41_3 N7_3 1_555 1_555
H44_3 C41_3 1_555 1_555
Cd8_3 N7_3 1_555 1_555
H28_3 C25_3 1_555 1_555
H29_3 C25_3 1_555 1_555
C26_3 C25_3 1_555 1_555
H30_3 C26_3 1_555 1_555
H31_3 C26_3 1_555 1_555
O12_4 C42_3 1_555 1_555
N7_4 C37_4 1_555 1_555
N8_3 H40_3 1_555 1_555
C37_4 H41_4 1_555 1_555
C38_3 C37_4 1_555 1_555
H42_3 C38_3 1_555 1_555
C39_3 C38_3 1_555 1_555
H43_3 C39_3 1_555 1_555
C40_3 N8_3 1_555 1_555
C41_4 N7_4 1_555 1_555
H44_4 C41_4 1_555 1_555
C42_3 N8_3 1_555 1_555
H49_4 C45_3 1_555 1_555
Cd8_4 N7_4 1_555 1_555
C39_3 C40_3 1_555 1_555
C40_3 C41_4 1_555 1_555
N4 C17_3 1_555 1_555
C15_3 C14_3 1_555 1_555
C16_3 C15_3 1_555 1_555
H21_3 C16_3 1_555 1_555
C17_3 C16_3 1_555 1_555
H22_3 C17_3 1_555 1_555
C18_3 N4 1_555 1_555
H23_3 C18_3 1_555 1_555
O14_3 C58_3 1_555 1_555
H66_3 C56_3 1_555 1_555
H67_3 C56_3 1_555 1_555
Cd8 N4 1_555 1_555
C14_3 C18_3 1_555 1_555
Cd1_4 O4_3 1_555 1_555
Cd8 O6_3 1_555 1_555
O4_3 C28_3 1_555 1_555
O5_3 Cd1_4 1_555 1_555
O6_3 C29_3 1_555 1_555
O7_3 Cd8 1_555 1_555
O8_2 C30_3 1_555 1_555
O9_2 C30_3 1_555 1_555
C28_3 O5_3 1_555 1_555
C29_3 O7_3 1_555 1_555
C30_3 C35_3 1_555 1_555
C31_3 C28_3 1_555 1_555
C32_3 C31_3 1_555 1_555
H34_3 C32_3 1_555 1_555
C33_3 C29_3 1_555 1_555
C34_3 C33_3 1_555 1_555
H35_3 C34_3 1_555 1_555
C35_3 C34_3 1_555 1_555
C36_3 C31_3 1_555 1_555
H36_3 C36_3 1_555 1_555
O10_4 Cd1_4 1_555 1_555
O11_3 Cd8 1_555 1_555
H37_3 O11_3 1_555 1_555
H38_3 O11_3 1_555 1_555
H51_3 O10_4 1_555 1_555
N9_3 Cd1_4 1_555 1_555
C46_3 N9_3 1_555 1_555
H54_3 C46_3 1_555 1_555
C50_3 N9_3 1_555 1_555
H57_3 C50_3 1_555 1_555
Cd8_4 O8_2 1_555 1_555
O23_2 Cd8 1_555 1_555
O25_2 Cd8 1_555 1_555
O9_2 Cd8_4 1_555 1_555
C32_3 C33_3 1_555 1_555
C35_3 C36_3 1_555 1_555
O2_3 C13_3 1_555 1_555
N3_3 H2_3 1_555 1_555
H14_3 C10_3 1_555 1_555
H15_3 C10_3 1_555 1_555
C11_3 C10_3 1_555 1_555
H16_3 C11_3 1_555 1_555
H17_3 C11_3 1_555 1_555
C12_3 C11_3 1_555 1_555
H18_3 C12_3 1_555 1_555
H19_3 C12_3 1_555 1_555
C13_3 N3_3 1_555 1_555
N12 C62_3 1_555 1_555
H72_3 C62_3 1_555 1_555
C63_3 N12 1_555 1_555
H73_3 C63_3 1_555 1_555
Cd8_2 N12 1_555 1_555
C12_3 C13_3 1_555 1_555
C59_3 C63_3 1_555 1_555
O1_3 C6_3 1_555 1_555
N1_3 Cd1_5 1_555 1_555
N2_3 H1_3 1_555 1_555
C1_3 N1_3 1_555 1_555
H4_3 C1_3 1_555 1_555
C2_3 C1_3 1_555 1_555
H5_3 C2_3 1_555 1_555
C3_3 C2_3 1_555 1_555
H6_3 C3_3 1_555 1_555
C4_3 N2_3 1_555 1_555
C5_3 N1_3 1_555 1_555
H7_3 C5_3 1_555 1_555
C6_3 N2_3 1_555 1_555
C7_3 C6_3 1_555 1_555
H8_3 C7_3 1_555 1_555
H9_3 C7_3 1_555 1_555
C8_3 C7_3 1_555 1_555
H10_3 C8_3 1_555 1_555
H11_3 C8_3 1_555 1_555
C9_3 C8_3 1_555 1_555
H12_3 C9_3 1_555 1_555
H13_3 C9_3 1_555 1_555
O10_5 Cd1_5 1_555 1_555
H39_3 O10_5 1_555 1_555
Cd8_2 O17_3 1_555 1_555
O15_3 Cd1_5 1_555 1_555
O16_3 Cd1_5 1_555 1_555
O17_3 C65_3 1_555 1_555
O18_3 Cd8_2 1_555 1_555
O19_2 C66_3 1_555 1_555
O20_2 C66_3 1_555 1_555
C64_3 O15_3 1_555 1_555
C65_3 O18_3 1_555 1_555
C66_3 C71_3 1_555 1_555
C67_3 C64_3 1_555 1_555
C68_3 C67_3 1_555 1_555
H74_3 C68_3 1_555 1_555
C69_3 C65_3 1_555 1_555
C70_3 C69_3 1_555 1_555
H75_3 C70_3 1_555 1_555
C71_3 C70_3 1_555 1_555
C72_3 C67_3 1_555 1_555
H76_3 C72_3 1_555 1_555
O21_3 Cd8_2 1_555 1_555
H77_3 O21_3 1_555 1_555
H78_3 O21_3 1_555 1_555
Cd8_3 O19_2 1_555 1_555
O22_2 Cd8_2 1_555 1_555
O24_2 Cd8_2 1_555 1_555
C3_3 C4_3 1_555 1_555
C4_3 C5_3 1_555 1_555
O16_3 C64_3 1_555 1_555
O20_2 Cd8_3 1_555 1_555
C68_3 C69_3 1_555 1_555
C71_3 C72_3 1_555 1_555
Cd1_6 O4_4 1_555 1_555
O1_4 C6_4 1_555 1_555
O2_4 C13_4 1_555 1_555
O4_4 C28_4 1_555 1_555
O22_2 C30_4 1_555 1_555
O24_2 C30_4 1_555 1_555
N1_4 Cd1_6 1_555 1_555
N2_4 H1_4 1_555 1_555
N3_4 H2_4 1_555 1_555
N4_2 C17_4 1_555 1_555
C1_4 N1_4 1_555 1_555
C2_4 C1_4 1_555 1_555
C3_4 C2_4 1_555 1_555
H6_4 C3_4 1_555 1_555
C4_4 N2_4 1_555 1_555
C5_4 N1_4 1_555 1_555
H7_4 C5_4 1_555 1_555
C6_4 N2_4 1_555 1_555
C7_4 C6_4 1_555 1_555
H8_4 C7_4 1_555 1_555
H9_4 C7_4 1_555 1_555
C8_4 C7_4 1_555 1_555
H10_4 C8_4 1_555 1_555
H11_4 C8_4 1_555 1_555
C9_4 C8_4 1_555 1_555
H12_4 C9_4 1_555 1_555
H13_4 C9_4 1_555 1_555
C10_4 C9_4 1_555 1_555
H14_4 C10_4 1_555 1_555
H15_4 C10_4 1_555 1_555
C11_4 C10_4 1_555 1_555
H16_4 C11_4 1_555 1_555
H17_4 C11_4 1_555 1_555
C12_4 C11_4 1_555 1_555
H18_4 C12_4 1_555 1_555
H19_4 C12_4 1_555 1_555
C13_4 N3_4 1_555 1_555
C14_4 N3_4 1_555 1_555
C15_4 C14_4 1_555 1_555
H20_4 C15_4 1_555 1_555
C16_4 C15_4 1_555 1_555
H21_4 C16_4 1_555 1_555
C17_4 C16_4 1_555 1_555
H22_4 C17_4 1_555 1_555
C18_4 N4_2 1_555 1_555
H23_4 C18_4 1_555 1_555
C30_4 C35_4 1_555 1_555
C31_4 C28_4 1_555 1_555
C36_4 C31_4 1_555 1_555
H36_4 C36_4 1_555 1_555
O10_6 Cd1_6 1_555 1_555
H39_4 O10_6 1_555 1_555
H51_4 O10_6 1_555 1_555
O14_4 C58_4 1_555 1_555
O15_4 Cd1_6 1_555 1_555
O23_2 C66_4 1_555 1_555
O25_2 C66_4 1_555 1_555
N9_4 Cd1_6 1_555 1_555
N12_2 C62_4 1_555 1_555
C46_4 N9_4 1_555 1_555
C50_4 N9_4 1_555 1_555
H57_4 C50_4 1_555 1_555
H66_4 C56_4 1_555 1_555
H67_4 C56_4 1_555 1_555
H72_4 C62_4 1_555 1_555
C63_4 N12_2 1_555 1_555
H73_4 C63_4 1_555 1_555
C64_4 O15_4 1_555 1_555
C66_4 C71_4 1_555 1_555
C67_4 C64_4 1_555 1_555
C72_4 C67_4 1_555 1_555
H76_4 C72_4 1_555 1_555
Cd8_3 N4_2 1_555 1_555
Cd8_4 N12_2 1_555 1_555
C3_4 C4_4 1_555 1_555
C4_4 C5_4 1_555 1_555
C12_4 C13_4 1_555 1_555
C14_4 C18_4 1_555 1_555
C35_4 C36_4 1_555 1_555
C59_4 C63_4 1_555 1_555
C71_4 C72_4 1_555 1_555
Cd8_3 O6_4 1_555 1_555
O6_4 C29_4 1_555 1_555
O7_4 Cd8_3 1_555 1_555
C29_4 O7_4 1_555 1_555
H34_4 C32_4 1_555 1_555
C33_4 C29_4 1_555 1_555
C34_4 C33_4 1_555 1_555
H35_4 C34_4 1_555 1_555
O11_4 Cd8_3 1_555 1_555
H37_4 O11_4 1_555 1_555
H38_4 O11_4 1_555 1_555
Cd8_4 O17_4 1_555 1_555
O17_4 C65_4 1_555 1_555
O18_4 Cd8_4 1_555 1_555
C65_4 O18_4 1_555 1_555
H74_4 C68_4 1_555 1_555
C69_4 C65_4 1_555 1_555
C70_4 C69_4 1_555 1_555
H75_4 C70_4 1_555 1_555
O21_4 Cd8_4 1_555 1_555
H77_4 O21_4 1_555 1_555
H78_4 O21_4 1_555 1_555
C32_4 C33_4 1_555 1_555
C68_4 C69_4 1_555 1_555
N6_3 H3_3 1_555 1_555
H25_3 C20_3 1_555 1_555
C21_3 C20_3 1_555 1_555
H26_3 C21_3 1_555 1_555
C22_3 N6_3 1_555 1_555
C24_3 N6_3 1_555 1_555
C25_4 C24_3 1_555 1_555
H28_4 C25_4 1_555 1_555
H29_4 C25_4 1_555 1_555
C26_4 C25_4 1_555 1_555
H30_4 C26_4 1_555 1_555
C27_3 C26_4 1_555 1_555
H33_4 C27_3 1_555 1_555
N10_2 H52_2 1_555 1_555
H55_2 C47_2 1_555 1_555
C48_2 C47_2 1_555 1_555
H56_2 C48_2 1_555 1_555
C49_2 N10_2 1_555 1_555
C51_2 N10_2 1_555 1_555
C52_2 C51_2 1_555 1_555
H58_2 C52_2 1_555 1_555
H59_2 C52_2 1_555 1_555
C53_2 C52_2 1_555 1_555
H60_2 C53_2 1_555 1_555
H61_2 C53_2 1_555 1_555
C54_2 C53_2 1_555 1_555
H62_2 C54_2 1_555 1_555
C21_3 C22_3 1_555 1_555
C48_2 C49_2 1_555 1_555
N11 H53 1_555 1_555
H64 C55 1_555 1_555
H68 C57 1_555 1_555
H69 C57 1_555 1_555
N6_4 H3_4 1_555 1_555
H25_4 C20_4 1_555 1_555
C21_4 C20_4 1_555 1_555
H26_4 C21_4 1_555 1_555
C22_4 N6_4 1_555 1_555
C24_4 N6_4 1_555 1_555
C21_4 C22_4 1_555 1_555
N10_3 H52_3 1_555 1_555
N11_2 H53_2 1_555 1_555
C48_3 C47_3 1_555 1_555
H56_3 C48_3 1_555 1_555
C49_3 N10_3 1_555 1_555
C51_3 N10_3 1_555 1_555
C52_3 C51_3 1_555 1_555
H58_3 C52_3 1_555 1_555
H59_3 C52_3 1_555 1_555
C53_3 C52_3 1_555 1_555
H60_3 C53_3 1_555 1_555
H61_3 C53_3 1_555 1_555
C54_3 C53_3 1_555 1_555
H62_3 C54_3 1_555 1_555
C55_2 C54_3 1_555 1_555
H64_2 C55_2 1_555 1_555
H68_2 C57_2 1_555 1_555
H69_2 C57_2 1_555 1_555
H70_2 C60_2 1_555 1_555
C61_2 C60_2 1_555 1_555
H71_2 C61_2 1_555 1_555
C48_3 C49_3 1_555 1_555
N8_4 H40_4 1_555 1_555
H42_4 C38_4 1_555 1_555
C39_4 C38_4 1_555 1_555
H43_4 C39_4 1_555 1_555
C40_4 N8_4 1_555 1_555
C42_4 N8_4 1_555 1_555
C39_4 C40_4 1_555 1_555
N11_3 H53_3 1_555 1_555
H64_3 C55_3 1_555 1_555
H68_3 C57_3 1_555 1_555
H69_3 C57_3 1_555 1_555
C61_3 C60_3 1_555 1_555
H71_3 C61_3 1_555 1_555
N10_4 H52_4 1_555 1_555
N11_4 H53_4 1_555 1_555
C48_4 C47_4 1_555 1_555
H56_4 C48_4 1_555 1_555
C49_4 N10_4 1_555 1_555
C51_4 N10_4 1_555 1_555
C52_4 C51_4 1_555 1_555
H58_4 C52_4 1_555 1_555
H59_4 C52_4 1_555 1_555
C53_4 C52_4 1_555 1_555
H60_4 C53_4 1_555 1_555
H61_4 C53_4 1_555 1_555
C54_4 C53_4 1_555 1_555
H62_4 C54_4 1_555 1_555
C55_4 C54_4 1_555 1_555
H64_4 C55_4 1_555 1_555
H68_4 C57_4 1_555 1_555
H69_4 C57_4 1_555 1_555
H70_4 C60_4 1_555 1_555
C61_4 C60_4 1_555 1_555
H71_4 C61_4 1_555 1_555
C48_4 C49_4 1_555 1_555

#END
