
###############################################################################
#
# This file contains modified crystal structure data generated from the
# MOF subset of the Cambridge Structural Database (CSD) v543 
# hosted by the Cambridge Crystallographic Data Centre (CCDC).
#
# This work is licensed under the Creative Commons
# Attribution-NonCommercial-ShareAlike 4.0 International License.
# To view a copy of this license, visit
# http://creativecommons.org/licenses/by-nc-sa/4.0/
# or send a letter to
# Creative Commons, PO Box 1866, Mountain View, CA 94042, USA.
#
# CIF created using the CSD Python API on 29 September 2022
# The structure has been converted into the P1 space group
# The structure has a 3D framework
# The original CSD entry CAZZIP is in the cubic crystal system
# The framework has been calculated to contain at least 10.0% void space
# The void calculation uses a probe of radius 1.32A, grid spacing 0.4
# The framework is charged, counterions have been retained in the structure
#
###############################################################################

data_CAZZIP
_chemical_formula_moiety         '(C30 H48 Co14 N54 O24 8-)n'
_symmetry_cell_setting           triclinic
_symmetry_space_group_name_H-M   'P 1'
_symmetry_Int_Tables_number      1
_space_group_name_Hall           'P 1'
loop_
_symmetry_equiv_pos_site_id
_symmetry_equiv_pos_as_xyz
1 x,y,z
_cell_length_a                   11.6700(7)
_cell_length_b                   11.6700(7)
_cell_length_c                   11.6700(7)
_cell_angle_alpha                90
_cell_angle_beta                 90
_cell_angle_gamma                90
_cell_volume                     1589.32
loop_
_atom_site_label
_atom_site_type_symbol
_atom_site_fract_x
_atom_site_fract_y
_atom_site_fract_z
Co2 Co 0.5000 -0.0000 0.5000
N2 N 0.3719(4) -0.0000 0.3719(4)
C2 C 0.5000 0.1760(16) 0.5000
N3 N 0.5000 0.2779(17) 0.5000
N4 N 0.2438(3) 0.0577(5) 0.2438(3)
C3 C 0.3215(4) 0.0880(9) 0.3215(4)
H3 H 0.3387 0.1639 0.3387
Co3 Co 0.12920(6) 0.12920(6) 0.12920(6)
Co4 Co 0.0000 0.5000 0.5000
N5 N 0.0577(5) 0.2438(3) 0.2438(3)
N6 N -0.0000 0.3719(4) 0.3719(4)
O2 O 0.1753(6) -0.0000 0.0000
H4 H 0.2481 -0.0000 0.0000
C4 C 0.0880(9) 0.3215(4) 0.3215(4)
H5 H 0.1639 0.3387 0.3387
O3 O -0.0000 0.1753(6) 0.0000
H7 H -0.0000 0.2481 0.0000
N27 N 0.3719(4) 0.3719(4) 0.0000
N28 N 0.2438(3) 0.2438(3) 0.0577(5)
C19 C 0.3215(4) 0.3215(4) 0.0880(9)
H23 H 0.3387 0.3387 0.1639
O6 O -0.0000 -0.0000 0.1753(6)
H30 H -0.0000 -0.0000 0.2481
C26 C 0.1760(16) 0.5000 0.5000
N38 N 0.2779(17) 0.5000 0.5000
Co20 Co 0.5000 0.5000 0.0000
N44 N 0.6281(4) -0.0000 0.3719(4)
N45 N -0.0000 0.6281(4) 0.3719(4)
N47 N 0.3719(4) -0.0000 0.6281(4)
N48 N -0.0000 0.3719(4) 0.6281(4)
N50 N 0.6281(4) -0.0000 0.6281(4)
N51 N -0.0000 0.6281(4) 0.6281(4)
O2_2 O 0.1753(6) -0.0000 1.0000
H4_2 H 0.2481 -0.0000 1.0000
O3_2 O -0.0000 0.1753(6) 1.0000
H7_2 H -0.0000 0.2481 1.0000
Co8 Co 0.12920(6) 0.12920(6) 0.87080(6)
N14 N 0.2438(3) 0.0577(5) 0.7562(3)
C10 C 0.3215(4) 0.0880(9) 0.6785(4)
H13 H 0.3387 0.1639 0.6613
N19 N 0.0577(5) 0.2438(3) 0.7562(3)
C13 C 0.0880(9) 0.3215(4) 0.6785(4)
H16 H 0.1639 0.3387 0.6613
N26 N 0.2438(3) 0.2438(3) 0.9423(5)
N27_2 N 0.3719(4) 0.3719(4) 1.0000
O5 O -0.0000 -0.0000 0.8247(6)
H21 H -0.0000 -0.0000 0.7519
C18 C 0.3215(4) 0.3215(4) 0.9120(9)
H22 H 0.3387 0.3387 0.8361
Co20_2 Co 0.5000 0.5000 1.0000
Co1 Co 0.12920(6) 0.87080(6) 0.12920(6)
Co2_2 Co 0.5000 1.0000 0.5000
N1 N 0.2438(3) 0.9423(5) 0.2438(3)
N2_2 N 0.3719(4) 1.0000 0.3719(4)
O1 O -0.0000 0.8247(6) 0.0000
H1 H -0.0000 0.7519 0.0000
C1 C 0.3215(4) 0.9120(9) 0.3215(4)
H2 H 0.3387 0.8361 0.3387
O2_3 O 0.1753(6) 1.0000 0.0000
H4_3 H 0.2481 1.0000 0.0000
N13 N 0.0577(5) 0.7562(3) 0.2438(3)
C9 C 0.0880(9) 0.6785(4) 0.3215(4)
H12 H 0.1639 0.6613 0.3387
N36 N 0.3719(4) 0.6281(4) 0.0000
N37 N 0.2438(3) 0.7562(3) 0.0577(5)
C25 C 0.3215(4) 0.6785(4) 0.0880(9)
H29 H 0.3387 0.6613 0.1639
O6_2 O 0.0000 1.0000 0.1753(6)
H30_2 H -0.0000 1.0000 0.2481
C27 C 0.5000 0.8240(16) 0.5000
N39 N 0.5000 0.7221(17) 0.5000
N44_2 N 0.6281(4) 1.0000 0.3719(4)
N47_2 N 0.3719(4) 1.0000 0.6281(4)
N50_2 N 0.6281(4) 1.0000 0.6281(4)
O1_2 O -0.0000 0.8247(6) 1.0000
H1_2 H -0.0000 0.7519 1.0000
O2_4 O 0.1753(6) 1.0000 1.0000
H4_4 H 0.2481 1.0000 1.0000
N16 N 0.2438(3) 0.9423(5) 0.7562(3)
C11 C 0.3215(4) 0.9120(9) 0.6785(4)
H14 H 0.3387 0.8361 0.6613
Co11 Co 0.12920(6) 0.87080(6) 0.87080(6)
N23 N 0.0577(5) 0.7562(3) 0.7562(3)
C16 C 0.0880(9) 0.6785(4) 0.6785(4)
H19 H 0.1639 0.6613 0.6613
O5_2 O 0.0000 1.0000 0.8247(6)
H21_2 H -0.0000 1.0000 0.7519
N35 N 0.2438(3) 0.7562(3) 0.9423(5)
N36_2 N 0.3719(4) 0.6281(4) 1.0000
C24 C 0.3215(4) 0.6785(4) 0.9120(9)
H28 H 0.3387 0.6613 0.8361
Co4_2 Co 1.0000 0.5000 0.5000
N6_2 N 1.0000 0.3719(4) 0.3719(4)
N7 N 0.9423(5) 0.2438(3) 0.2438(3)
C5 C 0.9120(9) 0.3215(4) 0.3215(4)
H6 H 0.8361 0.3387 0.3387
Co5 Co 0.87080(6) 0.12920(6) 0.12920(6)
N8 N 0.7562(3) 0.0577(5) 0.2438(3)
O3_3 O 1.0000 0.1753(6) 0.0000
H7_3 H 1.0000 0.2481 0.0000
C6 C 0.6785(4) 0.0880(9) 0.3215(4)
H8 H 0.6613 0.1639 0.3387
O4 O 0.8247(6) -0.0000 0.0000
H10 H 0.7519 -0.0000 0.0000
N30 N 0.6281(4) 0.3719(4) 0.0000
N31 N 0.7562(3) 0.2438(3) 0.0577(5)
C21 C 0.6785(4) 0.3215(4) 0.0880(9)
H25 H 0.6613 0.3387 0.1639
O6_3 O 1.0000 -0.0000 0.1753(6)
H30_3 H 1.0000 -0.0000 0.2481
C28 C 0.8240(16) 0.5000 0.5000
N40 N 0.7221(17) 0.5000 0.5000
N45_2 N 1.0000 0.6281(4) 0.3719(4)
N48_2 N 1.0000 0.3719(4) 0.6281(4)
N51_2 N 1.0000 0.6281(4) 0.6281(4)
O3_4 O 1.0000 0.1753(6) 1.0000
H7_4 H 1.0000 0.2481 1.0000
O4_2 O 0.8247(6) -0.0000 1.0000
H10_2 H 0.7519 -0.0000 1.0000
Co9 Co 0.87080(6) 0.12920(6) 0.87080(6)
N17 N 0.9423(5) 0.2438(3) 0.7562(3)
C12 C 0.9120(9) 0.3215(4) 0.6785(4)
H15 H 0.8361 0.3387 0.6613
N22 N 0.7562(3) 0.0577(5) 0.7562(3)
C15 C 0.6785(4) 0.0880(9) 0.6785(4)
H18 H 0.6613 0.1639 0.6613
O5_3 O 1.0000 -0.0000 0.8247(6)
H21_3 H 1.0000 -0.0000 0.7519
N29 N 0.7562(3) 0.2438(3) 0.9423(5)
N30_2 N 0.6281(4) 0.3719(4) 1.0000
C20 C 0.6785(4) 0.3215(4) 0.9120(9)
H24 H 0.6613 0.3387 0.8361
O1_3 O 1.0000 0.8247(6) 0.0000
H1_3 H 1.0000 0.7519 0.0000
N10 N 0.7562(3) 0.9423(5) 0.2438(3)
C7 C 0.6785(4) 0.9120(9) 0.3215(4)
H9 H 0.6613 0.8361 0.3387
Co7 Co 0.87080(6) 0.87080(6) 0.12920(6)
N11 N 0.9423(5) 0.7562(3) 0.2438(3)
O4_3 O 0.8247(6) 1.0000 0.0000
H10_3 H 0.7519 1.0000 0.0000
C8 C 0.9120(9) 0.6785(4) 0.3215(4)
H11 H 0.8361 0.6613 0.3387
N33 N 0.6281(4) 0.6281(4) 0.0000
N34 N 0.7562(3) 0.7562(3) 0.0577(5)
C23 C 0.6785(4) 0.6785(4) 0.0880(9)
H27 H 0.6613 0.6613 0.1639
O6_4 O 1.0000 1.0000 0.1753(6)
H30_4 H 1.0000 1.0000 0.2481
O1_4 O 1.0000 0.8247(6) 1.0000
H1_4 H 1.0000 0.7519 1.0000
O4_4 O 0.8247(6) 1.0000 1.0000
H10_4 H 0.7519 1.0000 1.0000
Co10 Co 0.87080(6) 0.87080(6) 0.87080(6)
N20 N 0.7562(3) 0.9423(5) 0.7562(3)
C14 C 0.6785(4) 0.9120(9) 0.6785(4)
H17 H 0.6613 0.8361 0.6613
N25 N 0.9423(5) 0.7562(3) 0.7562(3)
C17 C 0.9120(9) 0.6785(4) 0.6785(4)
H20 H 0.8361 0.6613 0.6613
O5_4 O 1.0000 1.0000 0.8247(6)
H21_4 H 1.0000 1.0000 0.7519
N32 N 0.7562(3) 0.7562(3) 0.9423(5)
N33_2 N 0.6281(4) 0.6281(4) 1.0000
C22 C 0.6785(4) 0.6785(4) 0.9120(9)
H26 H 0.6613 0.6613 0.8361
C2_2 C 0.5000 0.5000 0.1760(16)
N3_2 N 0.5000 0.5000 0.2779(17)
C27_2 C 0.5000 0.5000 0.8240(16)
N39_2 N 0.5000 0.5000 0.7221(17)
loop_
_geom_bond_atom_site_label_1
_geom_bond_atom_site_label_2
_geom_bond_site_symmetry_1
_geom_bond_site_symmetry_2
Co2 N2 1_555 1_555
C2 Co2 1_555 1_555
N3 C2 1_555 1_555
C3 N2 1_555 1_555
H3 C3 1_555 1_555
Co3 N4 1_555 1_555
Co4 N6 1_555 1_555
N5 Co3 1_555 1_555
N6 C4 1_555 1_555
H4 O2 1_555 1_555
C4 N5 1_555 1_555
H5 C4 1_555 1_555
O3 Co3 1_555 1_555
H7 O3 1_555 1_555
N28 Co3 1_555 1_555
C19 N27 1_555 1_555
H23 C19 1_555 1_555
H30 O6 1_555 1_555
C26 Co4 1_555 1_555
N38 C26 1_555 1_555
Co20 N27 1_555 1_555
N44 Co2 1_555 1_555
N45 Co4 1_555 1_555
N47 Co2 1_555 1_555
N48 Co4 1_555 1_555
N50 Co2 1_555 1_555
N51 Co4 1_555 1_555
N4 C3 1_555 1_555
Co3 O2 1_555 1_555
Co3 O6 1_555 1_555
N28 C19 1_555 1_555
H4_2 O2_2 1_555 1_555
H7_2 O3_2 1_555 1_555
Co8 O2_2 1_555 1_555
N14 Co8 1_555 1_555
N47 C10 1_555 1_555
C10 N14 1_555 1_555
H13 C10 1_555 1_555
N19 Co8 1_555 1_555
C13 N48 1_555 1_555
H16 C13 1_555 1_555
N26 Co8 1_555 1_555
N27_2 C18 1_555 1_555
O5 Co8 1_555 1_555
H21 O5 1_555 1_555
C18 N26 1_555 1_555
H22 C18 1_555 1_555
Co20_2 N27_2 1_555 1_555
O3_2 Co8 1_555 1_555
N19 C13 1_555 1_555
Co1 N1 1_555 1_555
Co2_2 N2_2 1_555 1_555
N1 C1 1_555 1_555
N2_2 C1 1_555 1_555
O1 Co1 1_555 1_555
H1 O1 1_555 1_555
C1 H2 1_555 1_555
O2_3 Co1 1_555 1_555
H4_3 O2_3 1_555 1_555
N13 Co1 1_555 1_555
C9 N45 1_555 1_555
H12 C9 1_555 1_555
N37 Co1 1_555 1_555
C25 N36 1_555 1_555
H29 C25 1_555 1_555
O6_2 Co1 1_555 1_555
H30_2 O6_2 1_555 1_555
C27 Co2_2 1_555 1_555
N39 C27 1_555 1_555
Co20 N36 1_555 1_555
N44_2 Co2_2 1_555 1_555
N47_2 Co2_2 1_555 1_555
N50_2 Co2_2 1_555 1_555
N13 C9 1_555 1_555
N37 C25 1_555 1_555
H1_2 O1_2 1_555 1_555
H4_4 O2_4 1_555 1_555
C11 N47_2 1_555 1_555
H14 C11 1_555 1_555
Co11 O1_2 1_555 1_555
N23 Co11 1_555 1_555
N51 C16 1_555 1_555
C16 N23 1_555 1_555
H19 C16 1_555 1_555
H21_2 O5_2 1_555 1_555
N35 Co11 1_555 1_555
N36_2 C24 1_555 1_555
C24 N35 1_555 1_555
H28 C24 1_555 1_555
Co20_2 N36_2 1_555 1_555
O2_4 Co11 1_555 1_555
N16 C11 1_555 1_555
N16 Co11 1_555 1_555
Co11 O5_2 1_555 1_555
Co4_2 N6_2 1_555 1_555
C5 N6_2 1_555 1_555
H6 C5 1_555 1_555
Co5 N7 1_555 1_555
N8 Co5 1_555 1_555
N44 C6 1_555 1_555
H7_3 O3_3 1_555 1_555
C6 N8 1_555 1_555
H8 C6 1_555 1_555
O4 Co5 1_555 1_555
H10 O4 1_555 1_555
N31 Co5 1_555 1_555
C21 N30 1_555 1_555
H25 C21 1_555 1_555
H30_3 O6_3 1_555 1_555
C28 Co4_2 1_555 1_555
N40 C28 1_555 1_555
Co20 N30 1_555 1_555
N45_2 Co4_2 1_555 1_555
N48_2 Co4_2 1_555 1_555
N51_2 Co4_2 1_555 1_555
N7 C5 1_555 1_555
Co5 O3_3 1_555 1_555
Co5 O6_3 1_555 1_555
N31 C21 1_555 1_555
H7_4 O3_4 1_555 1_555
H10_2 O4_2 1_555 1_555
Co9 O3_4 1_555 1_555
N17 Co9 1_555 1_555
N48_2 C12 1_555 1_555
C12 N17 1_555 1_555
H15 C12 1_555 1_555
N22 Co9 1_555 1_555
C15 N50 1_555 1_555
H18 C15 1_555 1_555
H21_3 O5_3 1_555 1_555
N29 Co9 1_555 1_555
N30_2 C20 1_555 1_555
C20 N29 1_555 1_555
H24 C20 1_555 1_555
Co20_2 N30_2 1_555 1_555
O4_2 Co9 1_555 1_555
Co9 O5_3 1_555 1_555
N22 C15 1_555 1_555
H1_3 O1_3 1_555 1_555
C7 N44_2 1_555 1_555
H9 C7 1_555 1_555
Co7 O1_3 1_555 1_555
N11 Co7 1_555 1_555
N45_2 C8 1_555 1_555
H10_3 O4_3 1_555 1_555
C8 N11 1_555 1_555
H11 C8 1_555 1_555
N34 Co7 1_555 1_555
C23 N33 1_555 1_555
H27 C23 1_555 1_555
H30_4 O6_4 1_555 1_555
Co20 N33 1_555 1_555
N10 C7 1_555 1_555
N10 Co7 1_555 1_555
Co7 O4_3 1_555 1_555
Co7 O6_4 1_555 1_555
N34 C23 1_555 1_555
H1_4 O1_4 1_555 1_555
H10_4 O4_4 1_555 1_555
Co10 O1_4 1_555 1_555
N20 Co10 1_555 1_555
N50_2 C14 1_555 1_555
C14 N20 1_555 1_555
H17 C14 1_555 1_555
N25 Co10 1_555 1_555
C17 N51_2 1_555 1_555
H20 C17 1_555 1_555
H21_4 O5_4 1_555 1_555
N32 Co10 1_555 1_555
N33_2 C22 1_555 1_555
C22 N32 1_555 1_555
H26 C22 1_555 1_555
Co20_2 N33_2 1_555 1_555
O4_4 Co10 1_555 1_555
Co10 O5_4 1_555 1_555
N25 C17 1_555 1_555
C2_2 Co20 1_555 1_555
N3_2 C2_2 1_555 1_555
C27_2 Co20_2 1_555 1_555
N39_2 C27_2 1_555 1_555

#END
