
###############################################################################
#
# This file contains modified crystal structure data generated from the
# MOF subset of the Cambridge Structural Database (CSD) v543 
# hosted by the Cambridge Crystallographic Data Centre (CCDC).
#
# This work is licensed under the Creative Commons
# Attribution-NonCommercial-ShareAlike 4.0 International License.
# To view a copy of this license, visit
# http://creativecommons.org/licenses/by-nc-sa/4.0/
# or send a letter to
# Creative Commons, PO Box 1866, Mountain View, CA 94042, USA.
#
# CIF created using the CSD Python API on 29 September 2022
# The structure has been converted into the P1 space group
# The structure has a 3D framework
# The original CSD entry CEBDOD is in the monoclinic crystal system
# The framework has been calculated to contain at least 10.0% void space
# The void calculation uses a probe of radius 1.32A, grid spacing 0.4
# The framework is charged, counterions have been retained in the structure
# H atom positions have been added when not included in the experimental data
# Generated hydrogen atom positions removed from atoms on special positions
#
###############################################################################

data_CEBDOD
_chemical_formula_moiety         '(C16 H104 Ba14 N8 O56 P16 4+)n'
_symmetry_cell_setting           triclinic
_symmetry_space_group_name_H-M   'P 1'
_symmetry_Int_Tables_number      1
_space_group_name_Hall           'P 1'
loop_
_symmetry_equiv_pos_site_id
_symmetry_equiv_pos_as_xyz
1 x,y,z
_cell_length_a                   23.287(2)
_cell_length_b                   13.5995(7)
_cell_length_c                   7.1862(6)
_cell_angle_alpha                90
_cell_angle_beta                 98.732(10)
_cell_angle_gamma                90
_cell_volume                     2249.43
loop_
_atom_site_label
_atom_site_type_symbol
_atom_site_fract_x
_atom_site_fract_y
_atom_site_fract_z
O26 O 0.06002(13) 0.0215(2) 0.0709(4)
H15 H 0.0206552 0.284732 0.0778793
Ba1 Ba -0.0000 0.10062(3) 0.7500
O8 O 0.0020(3) 0.2926(6) 0.9450(18)
O29 O 0.11771(15) 0.1517(2) 0.9369(4)
H16 H 0.024404 0.340733 0.880872
H20 H 0.035772 0.303385 0.510014
Ba3 Ba 0.0000 0.89938(3) 0.2500
O27 O 0.06002(13) 0.9785(2) 0.5709(4)
Ba1_2 Ba 1.0000 0.10062(3) 0.7500
Ba10 Ba 0.758450(11) 0.090260(17) 0.60959(3)
Ba13 Ba 0.741550(11) 0.409740(17) 0.39041(3)
P4 P 0.88431(5) 0.08153(8) 0.39795(15)
O12 O 0.75819(14) 0.3819(2) 0.0100(4)
O20 O 0.82925(13) 0.0223(2) 0.3525(4)
O25 O 0.93998(13) 0.0215(2) 0.4291(4)
O28 O 0.88229(15) 0.1517(2) 0.5631(4)
N2 N 0.84282(16) 0.2145(3) 0.1100(5)
H6 H 0.884(3) 0.326(4) 0.027(8)
C4 C 0.89385(19) 0.1550(3) 0.1925(6)
H7 H 0.927(2) 0.199(4) 0.230(8)
H8 H 0.903(2) 0.111(4) 0.101(8)
O33 O 0.9980(3) 0.2926(6) 0.5550(18)
H9 H 0.811621 0.168392 0.0461767
H10 H 0.827591 0.251119 0.215503
Ba12 Ba 0.741550(11) 0.590260(17) 0.89041(3)
P3 P 0.79273(5) 0.35295(8) 0.85466(15)
O9 O 0.76017(14) 0.2838(2) 0.7099(4)
O11 O 0.73983(14) 0.2162(2) 0.2901(4)
O15 O 0.75819(14) 0.6181(2) 0.5100(4)
O17 O 0.81557(14) 0.4430(2) 0.7618(5)
O19 O 0.81557(14) 0.5570(2) 0.2618(5)
O23 O 0.67075(13) 0.5223(2) 0.1475(4)
O24 O 0.67075(13) 0.4777(2) 0.6475(4)
O31 O 0.61771(15) 0.3483(2) 0.4369(4)
C3 C 0.8567(2) 0.2875(4) 0.9688(7)
H5 H 0.865(2) 0.259(4) 0.878(9)
O32 O 0.8636(2) 0.3368(3) 0.4446(6)
O6 O 0.88229(15) 0.8483(2) 0.0631(4)
Ba3_2 Ba 1.0000 0.89938(3) 0.2500
Ba9 Ba 0.758450(11) 0.909740(17) 0.10959(3)
P1 P 0.79273(5) 0.64705(8) 0.35466(15)
P2 P 0.88431(5) 0.91847(8) 0.89795(15)
O1 O 0.76017(14) 0.7162(2) 0.2099(4)
O4 O 0.82925(13) 0.9777(2) 0.8525(4)
O5 O 0.93998(13) 0.9785(2) 0.9291(4)
N1 N 0.84282(16) 0.7855(3) 0.6100(5)
C1 C 0.8567(2) 0.7125(4) 0.4688(7)
H1 H 0.865(2) 0.741(4) 0.378(9)
H2 H 0.884(3) 0.674(4) 0.527(8)
C2 C 0.89385(19) 0.8450(3) 0.6925(6)
H3 H 0.927(2) 0.801(4) 0.730(8)
H4 H 0.903(2) 0.889(4) 0.601(8)
H11 H 0.827591 0.748881 0.715503
H12 H 0.811621 0.831608 0.546177
H17 H 0.883733 0.642398 0.0702029
O7 O 0.8636(2) 0.6632(3) 0.9446(6)
O10 O 0.73983(14) 0.7838(2) 0.7901(4)
O30 O 0.61771(15) 0.6517(2) 0.9369(4)
H18 H 0.884136 0.635419 0.845142
Ba12_2 Ba 0.241550(11) 0.090260(17) 0.89041(3)
O15_2 O 0.25819(14) 0.1181(2) 0.5100(4)
O19_2 O 0.31557(14) 0.0570(2) 0.2618(5)
O23_2 O 0.17075(13) 0.0223(2) 0.1475(4)
O6_2 O 0.38229(15) 0.3483(2) 0.0631(4)
Ba3_3 Ba 0.5000 0.39938(3) 0.2500
Ba9_2 Ba 0.258450(11) 0.409740(17) 0.10959(3)
O26_2 O 0.56002(13) 0.5215(2) 0.0709(4)
H15_2 H 0.520655 0.784732 0.0778793
Ba1_3 Ba 0.5000 0.60062(3) 0.7500
P1_2 P 0.29273(5) 0.14705(8) 0.35466(15)
P2_2 P 0.38431(5) 0.41847(8) 0.89795(15)
O1_2 O 0.26017(14) 0.2162(2) 0.2099(4)
O4_2 O 0.32925(13) 0.4777(2) 0.8525(4)
O5_2 O 0.43998(13) 0.4785(2) 0.9291(4)
N1_2 N 0.34282(16) 0.2855(3) 0.6100(5)
C1_2 C 0.3567(2) 0.2125(4) 0.4688(7)
H1_2 H 0.365(2) 0.241(4) 0.378(9)
H2_2 H 0.384(3) 0.174(4) 0.527(8)
C2_2 C 0.39385(19) 0.3450(3) 0.6925(6)
H3_2 H 0.427(2) 0.301(4) 0.730(8)
H4_2 H 0.403(2) 0.389(4) 0.601(8)
O8_2 O 0.5020(3) 0.7926(6) 0.9450(18)
Ba10_2 Ba 0.258450(11) 0.590260(17) 0.60959(3)
Ba13_2 Ba 0.241550(11) 0.909740(17) 0.39041(3)
P4_2 P 0.38431(5) 0.58153(8) 0.39795(15)
O12_2 O 0.25819(14) 0.8819(2) 0.0100(4)
O20_2 O 0.32925(13) 0.5223(2) 0.3525(4)
O25_2 O 0.43998(13) 0.5215(2) 0.4291(4)
O27_2 O 0.56002(13) 0.4785(2) 0.5709(4)
O28_2 O 0.38229(15) 0.6517(2) 0.5631(4)
N2_2 N 0.34282(16) 0.7145(3) 0.1100(5)
H6_2 H 0.384(3) 0.826(4) 0.027(8)
C4_2 C 0.39385(19) 0.6550(3) 0.1925(6)
H7_2 H 0.427(2) 0.699(4) 0.230(8)
H8_2 H 0.403(2) 0.611(4) 0.101(8)
O33_2 O 0.4980(3) 0.7926(6) 0.5550(18)
H9_2 H 0.311621 0.668392 0.0461767
H10_2 H 0.327591 0.751119 0.215503
H11_2 H 0.327591 0.248881 0.715503
H12_2 H 0.311621 0.331608 0.546177
H17_2 H 0.383733 0.142398 0.0702029
O7_2 O 0.3636(2) 0.1632(3) 0.9446(6)
P3_2 P 0.29273(5) 0.85295(8) 0.85466(15)
O9_2 O 0.26017(14) 0.7838(2) 0.7099(4)
O10_2 O 0.23983(14) 0.2838(2) 0.7901(4)
O11_2 O 0.23983(14) 0.7162(2) 0.2901(4)
O17_2 O 0.31557(14) 0.9430(2) 0.7618(5)
O24_2 O 0.17075(13) 0.9777(2) 0.6475(4)
O31_2 O 0.11771(15) 0.8483(2) 0.4369(4)
C3_2 C 0.3567(2) 0.7875(4) 0.9688(7)
H5_2 H 0.365(2) 0.759(4) 0.878(9)
O32_2 O 0.3636(2) 0.8368(3) 0.4446(6)
H18_2 H 0.384136 0.135419 0.845142
O16 O 0.24181(14) 0.3819(2) 0.4900(4)
O19_3 O 0.18443(14) 0.5570(2) 0.2382(5)
O32_3 O 0.1364(2) 0.3368(3) 0.0554(6)
H13 H 0.136393 0.263908 0.0634851
H14 H 0.115864 0.364581 0.154858
P3_3 P 0.20727(5) 0.35295(8) 0.64534(15)
P4_3 P 0.11569(5) 0.08153(8) 0.10205(15)
O15_3 O 0.24181(14) 0.6181(2) 0.9900(4)
O17_3 O 0.18443(14) 0.4430(2) 0.7382(5)
N2_3 N 0.15718(16) 0.2145(3) 0.3900(5)
C3_3 C 0.1433(2) 0.2875(4) 0.5312(7)
H5_3 H 0.135(2) 0.259(4) 0.622(9)
H6_3 H 0.116(3) 0.326(4) 0.473(8)
C4_3 C 0.10615(19) 0.1550(3) 0.3075(6)
H7_3 H 0.073(2) 0.199(4) 0.270(8)
H8_3 H 0.097(2) 0.111(4) 0.399(8)
H9_3 H 0.188379 0.168392 0.453823
H10_3 H 0.172409 0.251119 0.284497
H19 H 0.00866117 0.345937 0.85635
P1_3 P 0.20727(5) 0.64705(8) 0.14534(15)
C1_3 C 0.1433(2) 0.7125(4) 0.0312(7)
H1_3 H 0.135(2) 0.741(4) 0.122(9)
O7_3 O 0.1364(2) 0.6632(3) 0.5554(6)
P2_3 P 0.11569(5) 0.91847(8) 0.60205(15)
N1_3 N 0.15718(16) 0.7855(3) 0.8900(5)
H2_3 H 0.116(3) 0.674(4) 0.973(8)
C2_3 C 0.10615(19) 0.8450(3) 0.8075(6)
H3_3 H 0.073(2) 0.801(4) 0.770(8)
H4_3 H 0.097(2) 0.889(4) 0.899(8)
H11_3 H 0.172409 0.748881 0.784497
H12_3 H 0.188379 0.831608 0.953823
H20_2 H 0.964228 0.303385 0.989986
O19_4 O 0.68443(14) 0.0570(2) 0.2382(5)
O15_4 O 0.74181(14) 0.1181(2) 0.9900(4)
O16_2 O 0.74181(14) 0.8819(2) 0.4900(4)
O32_4 O 0.6364(2) 0.8368(3) 0.0554(6)
H13_2 H 0.636393 0.763908 0.0634851
H14_2 H 0.615864 0.864581 0.154858
P1_4 P 0.70727(5) 0.14705(8) 0.14534(15)
C1_4 C 0.6433(2) 0.2125(4) 0.0312(7)
H1_4 H 0.635(2) 0.241(4) 0.122(9)
O7_4 O 0.6364(2) 0.1632(3) 0.5554(6)
P3_4 P 0.70727(5) 0.85295(8) 0.64534(15)
P4_4 P 0.61569(5) 0.58153(8) 0.10205(15)
O17_4 O 0.68443(14) 0.9430(2) 0.7382(5)
N2_4 N 0.65718(16) 0.7145(3) 0.3900(5)
C3_4 C 0.6433(2) 0.7875(4) 0.5312(7)
H5_4 H 0.635(2) 0.759(4) 0.622(9)
H6_4 H 0.616(3) 0.826(4) 0.473(8)
C4_4 C 0.60615(19) 0.6550(3) 0.3075(6)
H7_4 H 0.573(2) 0.699(4) 0.270(8)
H8_4 H 0.597(2) 0.611(4) 0.399(8)
H9_4 H 0.688379 0.668392 0.453823
H10_4 H 0.672409 0.751119 0.284497
P2_4 P 0.61569(5) 0.41847(8) 0.60205(15)
N1_4 N 0.65718(16) 0.2855(3) 0.8900(5)
H2_4 H 0.616(3) 0.174(4) 0.973(8)
C2_4 C 0.60615(19) 0.3450(3) 0.8075(6)
H3_4 H 0.573(2) 0.301(4) 0.770(8)
H4_4 H 0.597(2) 0.389(4) 0.899(8)
H11_4 H 0.672409 0.248881 0.784497
H12_4 H 0.688379 0.331608 0.953823
H17_3 H 0.116267 0.357602 0.929797
O33_3 O 0.0020(3) 0.7074(6) 0.4450(18)
O8_3 O 0.9980(3) 0.7074(6) 0.0550(18)
H16_2 H 0.975596 0.659267 0.119128
H20_3 H 0.964228 0.696615 0.489986
H15_3 H 0.979345 0.715268 0.922121
O8_4 O 0.4980(3) 0.2074(6) 0.0550(18)
O33_4 O 0.5020(3) 0.2074(6) 0.4450(18)
H17_4 H 0.616267 0.857602 0.929797
H15_4 H 0.479345 0.215268 0.922121
H20_4 H 0.035772 0.696615 0.0100139
H19_2 H 0.991339 0.654063 0.14365
H13_3 H 0.863607 0.736092 0.936515
H13_4 H 0.363607 0.236092 0.936515
loop_
_geom_bond_atom_site_label_1
_geom_bond_atom_site_label_2
_geom_bond_site_symmetry_1
_geom_bond_site_symmetry_2
O8 Ba1 1_555 1_555
O29 Ba1 1_555 1_555
O8 H16 1_555 1_555
Ba3 O27 1_555 1_555
Ba13 O12 1_555 1_555
P4 O20 1_555 1_555
O25 Ba1_2 1_555 1_555
O28 Ba1_2 1_555 1_555
C4 P4 1_555 1_555
H7 C4 1_555 1_555
H8 C4 1_555 1_555
O33 Ba1_2 1_555 1_555
Ba10 O20 1_555 1_555
Ba10 O28 1_555 1_555
P4 O25 1_555 1_555
P4 O28 1_555 1_555
N2 C4 1_555 1_555
N2 H9 1_555 1_555
N2 H10 1_555 1_555
Ba13 O9 1_555 1_555
Ba10 O9 1_555 1_555
P3 O9 1_555 1_555
O11 Ba13 1_555 1_555
O15 Ba13 1_555 1_555
O17 Ba13 1_555 1_555
O19 Ba13 1_555 1_555
O23 Ba13 1_555 1_555
O24 Ba13 1_555 1_555
O31 Ba13 1_555 1_555
C3 P3 1_555 1_555
H5 C3 1_555 1_555
O32 Ba13 1_555 1_555
Ba10 O11 1_555 1_555
Ba12 O15 1_555 1_555
Ba12 O17 1_555 1_555
Ba12 O24 1_555 1_555
P3 O17 1_555 1_555
Ba9 O6 1_555 1_555
O6 Ba3_2 1_555 1_555
P1 O1 1_555 1_555
P2 O4 1_555 1_555
O1 Ba9 1_555 1_555
O15 P1 1_555 1_555
O5 P2 1_555 1_555
N1 C1 1_555 1_555
C1 P1 1_555 1_555
H1 C1 1_555 1_555
H2 C1 1_555 1_555
C2 P2 1_555 1_555
H3 C2 1_555 1_555
H4 C2 1_555 1_555
P1 O19 1_555 1_555
N1 C2 1_555 1_555
N1 H11 1_555 1_555
N1 H12 1_555 1_555
O7 Ba12 1_555 1_555
O10 Ba12 1_555 1_555
O30 Ba12 1_555 1_555
O7 H18 1_555 1_555
Ba12_2 O15_2 1_555 1_555
Ba9_2 O6_2 1_555 1_555
O6_2 Ba3_3 1_555 1_555
Ba3_3 O26_2 1_555 1_555
Ba1_3 O5_2 1_555 1_555
P1_2 O1_2 1_555 1_555
P2_2 O4_2 1_555 1_555
O1_2 Ba9_2 1_555 1_555
O15_2 P1_2 1_555 1_555
O5_2 P2_2 1_555 1_555
N1_2 C1_2 1_555 1_555
C1_2 P1_2 1_555 1_555
H1_2 C1_2 1_555 1_555
H2_2 C1_2 1_555 1_555
C2_2 P2_2 1_555 1_555
H3_2 C2_2 1_555 1_555
H4_2 C2_2 1_555 1_555
O8_2 Ba1_3 1_555 1_555
Ba3_3 O25_2 1_555 1_555
Ba10_2 O4_2 1_555 1_555
Ba13_2 O12_2 1_555 1_555
P4_2 O20_2 1_555 1_555
O20_2 Ba9_2 1_555 1_555
O25_2 Ba1_3 1_555 1_555
O27_2 Ba1_3 1_555 1_555
O28_2 Ba1_3 1_555 1_555
O30 Ba1_3 1_555 1_555
C4_2 P4_2 1_555 1_555
H7_2 C4_2 1_555 1_555
H8_2 C4_2 1_555 1_555
O33_2 Ba1_3 1_555 1_555
P1_2 O19_2 1_555 1_555
N1_2 C2_2 1_555 1_555
Ba3_3 O27_2 1_555 1_555
Ba10_2 O20_2 1_555 1_555
Ba10_2 O28_2 1_555 1_555
P4_2 O25_2 1_555 1_555
P4_2 O28_2 1_555 1_555
N2_2 C4_2 1_555 1_555
N2_2 H9_2 1_555 1_555
N2_2 H10_2 1_555 1_555
N1_2 H11_2 1_555 1_555
N1_2 H12_2 1_555 1_555
O7_2 Ba12_2 1_555 1_555
Ba13_2 O9_2 1_555 1_555
Ba10_2 O9_2 1_555 1_555
P3_2 O9_2 1_555 1_555
O10_2 Ba12_2 1_555 1_555
O11_2 Ba13_2 1_555 1_555
O17_2 Ba13_2 1_555 1_555
O24_2 Ba13_2 1_555 1_555
O29 Ba12_2 1_555 1_555
O31_2 Ba13_2 1_555 1_555
C3_2 P3_2 1_555 1_555
H5_2 C3_2 1_555 1_555
O32_2 Ba13_2 1_555 1_555
Ba10_2 O11_2 1_555 1_555
P3_2 O17_2 1_555 1_555
O7_2 H18_2 1_555 1_555
O16 Ba9_2 1_555 1_555
O19_3 Ba9_2 1_555 1_555
O32_3 Ba9_2 1_555 1_555
O32_3 H13 1_555 1_555
O32_3 H14 1_555 1_555
Ba10_2 O16 1_555 1_555
P3_3 O10_2 1_555 1_555
P4_3 O23_2 1_555 1_555
O16 P3_3 1_555 1_555
N2_3 C3_3 1_555 1_555
C3_3 P3_3 1_555 1_555
H5_3 C3_3 1_555 1_555
H6_3 C3_3 1_555 1_555
C4_3 P4_3 1_555 1_555
H7_3 C4_3 1_555 1_555
H8_3 C4_3 1_555 1_555
Ba10_2 O15_3 1_555 1_555
Ba10_2 O17_3 1_555 1_555
P3_3 O17_3 1_555 1_555
P4_3 O26 1_555 1_555
N2_3 C4_3 1_555 1_555
N2_3 H9_3 1_555 1_555
N2_3 H10_3 1_555 1_555
O8 H19 1_555 1_555
P1_3 O11_2 1_555 1_555
O19_3 Ba10_2 1_555 1_555
C1_3 P1_3 1_555 1_555
H1_3 C1_3 1_555 1_555
O7_3 Ba10_2 1_555 1_555
P1_3 O19_3 1_555 1_555
P2_3 O24_2 1_555 1_555
O27 P2_3 1_555 1_555
O31_2 P2_3 1_555 1_555
C2_3 P2_3 1_555 1_555
H3_3 C2_3 1_555 1_555
H4_3 C2_3 1_555 1_555
O31_2 Ba3 1_555 1_555
N1_3 C2_3 1_555 1_555
N1_3 H11_3 1_555 1_555
N1_3 H12_3 1_555 1_555
Ba10 O15_4 1_555 1_555
O16_2 Ba9 1_555 1_555
O32_4 Ba9 1_555 1_555
O32_4 H13_2 1_555 1_555
O32_4 H14_2 1_555 1_555
P1_4 O11 1_555 1_555
O19_4 Ba10 1_555 1_555
C1_4 P1_4 1_555 1_555
H1_4 C1_4 1_555 1_555
O7_4 Ba10 1_555 1_555
P3_4 O10 1_555 1_555
P4_4 O23 1_555 1_555
O16_2 P3_4 1_555 1_555
N2_4 C3_4 1_555 1_555
C3_4 P3_4 1_555 1_555
H5_4 C3_4 1_555 1_555
H6_4 C3_4 1_555 1_555
C4_4 P4_4 1_555 1_555
H7_4 C4_4 1_555 1_555
H8_4 C4_4 1_555 1_555
P1_4 O19_4 1_555 1_555
P3_4 O17_4 1_555 1_555
P4_4 O26_2 1_555 1_555
N2_4 C4_4 1_555 1_555
N2_4 H9_4 1_555 1_555
N2_4 H10_4 1_555 1_555
P2_4 O24 1_555 1_555
O27_2 P2_4 1_555 1_555
O31 P2_4 1_555 1_555
C2_4 P2_4 1_555 1_555
H3_4 C2_4 1_555 1_555
H4_4 C2_4 1_555 1_555
O31 Ba3_3 1_555 1_555
N1_4 C2_4 1_555 1_555
N1_4 H11_4 1_555 1_555
N1_4 H12_4 1_555 1_555
O33_3 Ba3 1_555 1_555
O8_3 Ba3_2 1_555 1_555
O8_3 H16_2 1_555 1_555
O8_4 Ba3_3 1_555 1_555
O33_4 Ba3_3 1_555 1_555
O8_3 H19_2 1_555 1_555
O7 H13_3 1_555 1_555
O7_2 H13_4 1_555 1_555

#END
