
###############################################################################
#
# This file contains modified crystal structure data generated from the
# MOF subset of the Cambridge Structural Database (CSD) v543 
# hosted by the Cambridge Crystallographic Data Centre (CCDC).
#
# This work is licensed under the Creative Commons
# Attribution-NonCommercial-ShareAlike 4.0 International License.
# To view a copy of this license, visit
# http://creativecommons.org/licenses/by-nc-sa/4.0/
# or send a letter to
# Creative Commons, PO Box 1866, Mountain View, CA 94042, USA.
#
# CIF created using the CSD Python API on 29 September 2022
# The structure has been converted into the P1 space group
# The structure has a 3D framework
# The original CSD entry CEBGAS is in the orthorhombic crystal system
# The framework has been calculated to contain at least 10.0% void space
# The void calculation uses a probe of radius 1.32A, grid spacing 0.4
#
###############################################################################

data_CEBGAS
_chemical_formula_moiety         '(C208 H192 Cl16 Co8 N32 O16 S32)n'
_symmetry_cell_setting           triclinic
_symmetry_space_group_name_H-M   'P 1'
_symmetry_Int_Tables_number      1
_space_group_name_Hall           'P 1'
loop_
_symmetry_equiv_pos_site_id
_symmetry_equiv_pos_as_xyz
1 x,y,z
_cell_length_a                   18.457(6)
_cell_length_b                   16.262(5)
_cell_length_c                   21.388(6)
_cell_angle_alpha                90
_cell_angle_beta                 90
_cell_angle_gamma                90
_cell_volume                     6419.56
loop_
_atom_site_label
_atom_site_type_symbol
_atom_site_fract_x
_atom_site_fract_y
_atom_site_fract_z
H24 H 0.6493 0.0252 0.0143
N4 N 0.69059(18) 0.0819(2) 0.94104(16)
C23 C 0.6530(2) 0.0222(3) 0.84371(19)
H21 H 0.6544 0.0238 0.7993
C24 C 0.6905(2) 0.0794(3) 0.87820(19)
H22 H 0.7180 0.1196 0.8564
C26 C 0.6508(2) 0.0245(3) 0.96989(19)
Co3 Co 0.75100(3) 0.17694(3) 0.99112(2)
N4_2 N 0.80941(18) 0.9181(2) 0.44104(16)
C23_2 C 0.8470(2) 0.9778(3) 0.34371(19)
H21_2 H 0.8456 0.9762 0.2993
C24_2 C 0.8095(2) 0.9206(3) 0.37820(19)
H22_2 H 0.7820 0.8804 0.3564
C26_2 C 0.8492(2) 0.9755(3) 0.46989(19)
H24_2 H 0.8507 0.9748 0.5143
Co3_2 Co 0.74900(3) 0.82306(3) 0.49112(2)
S1 S 0.93718(6) 0.46861(7) 0.14748(5)
O1 O 0.78062(19) 0.4604(3) 0.24321(16)
N1 N 0.80924(18) 0.2731(2) 0.04168(15)
C1 C 0.7744(2) 0.3349(2) 0.07052(19)
H1 H 0.7231 0.3363 0.0677
Cl2 Cl 0.65861(5) 0.17759(6) 0.07195(5)
S2 S 0.94753(6) 0.54932(7) 0.32771(6)
N2 N 0.80998(18) 0.7296(2) 0.44003(15)
C2 C 0.8082(2) 0.3965(3) 0.1040(2)
H2 H 0.7807 0.4389 0.1232
N3 N 0.81337(17) 0.0858(2) 0.04292(16)
C3 C 0.8823(2) 0.2731(3) 0.04680(19)
H3 H 0.9086 0.2303 0.0268
C4 C 0.9203(2) 0.3312(2) 0.0792(2)
H4 H 0.9717 0.3281 0.0815
C5 C 0.8835(2) 0.3955(3) 0.10908(18)
C6 C 0.8729(2) 0.5331(3) 0.18870(19)
H5 H 0.8975 0.5837 0.2032
H6 H 0.8335 0.5493 0.1599
C7 C 0.8415(2) 0.4884(3) 0.2439(2)
C8 C 0.8895(3) 0.4683(3) 0.2992(2)
H7 H 0.9205 0.4210 0.2876
H8 H 0.8581 0.4503 0.3341
C9 C 0.8900(2) 0.6150(3) 0.36952(19)
C10 C 0.9239(2) 0.6811(3) 0.4001(2)
H9 H 0.9749 0.6881 0.3975
C11 C 0.8827(2) 0.7354(3) 0.4340(2)
H10 H 0.9066 0.7797 0.4543
C12 C 0.8155(2) 0.6082(2) 0.37590(18)
H11 H 0.7901 0.5642 0.3565
C13 C 0.7786(2) 0.6661(2) 0.41068(18)
H12 H 0.7275 0.6605 0.4141
C14 C 0.8158(2) 0.0893(3) 0.10594(19)
H13 H 0.7924 0.1341 0.1261
C15 C 0.8501(2) 0.0323(2) 0.1426(2)
H14 H 0.8500 0.0378 0.1868
C16 C 0.8485(2) 0.0229(3) 0.0162(2)
Cl1 Cl 0.84315(5) 0.17883(6) 0.91126(5)
H15 H 0.8486 0.0196 0.9719
N5 N 0.69002(18) 0.2704(2) 0.94003(15)
Cl1_2 Cl 0.65685(5) 0.82117(6) 0.41126(5)
S1_2 S 0.56282(6) 0.53139(7) 0.64748(5)
O1_2 O 0.71938(19) 0.5396(3) 0.74321(16)
N1_2 N 0.69076(18) 0.7269(2) 0.54168(15)
C1_2 C 0.7256(2) 0.6651(2) 0.57052(19)
H1_2 H 0.7769 0.6637 0.5677
Cl2_2 Cl 0.84139(5) 0.82241(6) 0.57195(5)
S2_2 S 0.55247(6) 0.45068(7) 0.82771(6)
C2_2 C 0.6918(2) 0.6035(3) 0.6040(2)
H2_2 H 0.7193 0.5611 0.6232
N3_2 N 0.68663(17) 0.9142(2) 0.54292(16)
C3_2 C 0.6177(2) 0.7269(3) 0.54680(19)
H3_2 H 0.5914 0.7697 0.5268
C4_2 C 0.5797(2) 0.6688(2) 0.5792(2)
H4_2 H 0.5283 0.6719 0.5815
C5_2 C 0.6165(2) 0.6045(3) 0.60908(18)
C6_2 C 0.6271(2) 0.4669(3) 0.68870(19)
H5_2 H 0.6025 0.4163 0.7032
H6_2 H 0.6665 0.4507 0.6599
C7_2 C 0.6585(2) 0.5116(3) 0.7439(2)
C8_2 C 0.6105(3) 0.5317(3) 0.7992(2)
H7_2 H 0.5795 0.5790 0.7876
H8_2 H 0.6419 0.5497 0.8341
C9_2 C 0.6100(2) 0.3850(3) 0.86952(19)
C10_2 C 0.5761(2) 0.3189(3) 0.9001(2)
H9_2 H 0.5251 0.3119 0.8975
C11_2 C 0.6173(2) 0.2646(3) 0.9340(2)
H10_2 H 0.5934 0.2203 0.9543
C12_2 C 0.6845(2) 0.3918(2) 0.87590(18)
H11_2 H 0.7099 0.4358 0.8565
C13_2 C 0.7214(2) 0.3339(2) 0.91068(18)
H12_2 H 0.7725 0.3395 0.9141
C14_2 C 0.6842(2) 0.9107(3) 0.60594(19)
H13_2 H 0.7076 0.8659 0.6261
C15_2 C 0.6499(2) 0.9677(2) 0.6426(2)
H14_2 H 0.6500 0.9622 0.6868
C16_2 C 0.6515(2) 0.9771(3) 0.5162(2)
H15_2 H 0.6514 0.9804 0.4719
Co1 Co 0.25100(3) 0.32306(3) 0.00888(2)
Cl1_3 Cl 0.34315(5) 0.32117(6) 0.08874(5)
H15_3 H 0.3486 0.4804 0.0281
N5_2 N 0.19002(18) 0.2296(2) 0.05997(15)
N6 N 0.19059(18) 0.4181(2) 0.05896(16)
S2_3 S 0.05247(6) 0.04932(7) 0.17229(6)
C6_3 C 0.1271(2) 0.0331(3) 0.31130(19)
H5_3 H 0.1025 0.0837 0.2968
H6_3 H 0.1665 0.0493 0.3401
C9_3 C 0.1100(2) 0.1150(3) 0.13048(19)
C10_3 C 0.0761(2) 0.1811(3) 0.0999(2)
H9_3 H 0.0251 0.1881 0.1025
C11_3 C 0.1173(2) 0.2354(3) 0.0660(2)
H10_3 H 0.0934 0.2797 0.0457
C12_3 C 0.1845(2) 0.1082(2) 0.12410(18)
H11_3 H 0.2099 0.0642 0.1435
C13_3 C 0.2214(2) 0.1661(2) 0.08932(18)
H12_3 H 0.2725 0.1605 0.0859
S4 S 0.06938(6) 0.61042(6) 0.17342(5)
H18 H 0.0083 0.8488 0.0931
C21 C 0.0263(2) 0.6788(2) 0.1184(2)
H19 H 0.0621 0.6984 0.0873
C22 C 0.1126(2) 0.5384(2) 0.12555(19)
C23_3 C 0.1530(2) 0.4778(3) 0.15629(19)
H21_3 H 0.1544 0.4762 0.2007
C24_3 C 0.1905(2) 0.4206(3) 0.12180(19)
H22_3 H 0.2180 0.3804 0.1436
C25 C 0.1118(2) 0.5358(3) 0.06082(19)
H23 H 0.0847 0.5751 0.0377
C26_3 C 0.1508(2) 0.4755(3) 0.03011(19)
S1_3 S 0.43718(6) 0.03139(7) 0.85252(5)
O1_3 O 0.28062(19) 0.0396(3) 0.75679(16)
N1_3 N 0.30924(18) 0.2269(2) 0.95832(15)
C1_3 C 0.2744(2) 0.1651(2) 0.92948(19)
H1_3 H 0.2231 0.1637 0.9323
Cl2_3 Cl 0.15861(5) 0.32241(6) 0.92805(5)
O2 O 0.4922(2) 0.7480(2) 0.79002(18)
C2_3 C 0.3082(2) 0.1035(3) 0.8960(2)
H2_3 H 0.2807 0.0611 0.8768
S3 S 0.42206(6) 0.60711(7) 0.83439(5)
N3_3 N 0.31337(17) 0.4142(2) 0.95708(16)
C3_3 C 0.3823(2) 0.2269(3) 0.95320(19)
H3_3 H 0.4086 0.2697 0.9732
S4_2 S 0.56938(6) 0.88958(6) 0.82658(5)
C4_3 C 0.4203(2) 0.1688(2) 0.9208(2)
H4_3 H 0.4717 0.1719 0.9185
C5_3 C 0.3835(2) 0.1045(3) 0.89092(18)
C7_3 C 0.3415(2) 0.0116(3) 0.7561(2)
C8_3 C 0.3895(3) 0.0317(3) 0.7008(2)
H7_3 H 0.4205 0.0790 0.7124
H8_3 H 0.3581 0.0497 0.6659
C14_3 C 0.3158(2) 0.4107(3) 0.89406(19)
H13_3 H 0.2924 0.3659 0.8739
C15_3 C 0.3501(2) 0.4677(2) 0.8574(2)
H14_3 H 0.3500 0.4622 0.8132
C16_3 C 0.3485(2) 0.4771(3) 0.9838(2)
C17 C 0.3848(2) 0.5376(3) 0.9506(2)
H16 H 0.4091 0.5808 0.9720
C18 C 0.3853(2) 0.5344(2) 0.8858(2)
C19 C 0.4675(2) 0.6788(2) 0.8854(2)
H17 H 0.4334 0.6994 0.9174
H18_2 H 0.5083 0.6512 0.9069
C20 C 0.4953(2) 0.7494(3) 0.8460(2)
C21_2 C 0.5263(2) 0.8212(2) 0.8816(2)
H19_2 H 0.5621 0.8016 0.9127
H20 H 0.4872 0.8506 0.9042
C22_2 C 0.6126(2) 0.9616(2) 0.87445(19)
C25_2 C 0.6118(2) 0.9642(3) 0.93918(19)
H23_2 H 0.5847 0.9249 0.9623
S2_4 S 0.44753(6) 0.95068(7) 0.67229(6)
N2_2 N 0.30998(18) 0.7704(2) 0.55997(15)
C6_4 C 0.3729(2) 0.9669(3) 0.81130(19)
H5_4 H 0.3975 0.9163 0.7968
H6_4 H 0.3335 0.9507 0.8401
C9_4 C 0.3900(2) 0.8850(3) 0.63048(19)
C10_4 C 0.4239(2) 0.8189(3) 0.5999(2)
H9_4 H 0.4749 0.8119 0.6025
C11_4 C 0.3827(2) 0.7646(3) 0.5660(2)
H10_4 H 0.4066 0.7203 0.5457
C12_4 C 0.3155(2) 0.8918(2) 0.62410(18)
H11_4 H 0.2901 0.9358 0.6435
C13_4 C 0.2786(2) 0.8339(2) 0.58932(18)
H12_4 H 0.2275 0.8395 0.5859
Co2 Co 0.24900(3) 0.67694(3) 0.50888(2)
Cl1_4 Cl 0.15685(5) 0.67883(6) 0.58874(5)
S1_4 S 0.06282(6) 0.96861(7) 0.35252(5)
O1_4 O 0.21938(19) 0.9604(3) 0.25679(16)
N1_4 N 0.19076(18) 0.7731(2) 0.45832(15)
C1_4 C 0.2256(2) 0.8349(2) 0.42948(19)
H1_4 H 0.2769 0.8363 0.4323
Cl2_4 Cl 0.34139(5) 0.67759(6) 0.42805(5)
O2_2 O 0.0078(2) 0.2520(2) 0.29002(18)
C2_4 C 0.1918(2) 0.8965(3) 0.3960(2)
H2_4 H 0.2193 0.9389 0.3768
S3_2 S 0.07794(6) 0.39289(7) 0.33439(5)
N3_4 N 0.18663(17) 0.5858(2) 0.45708(16)
C3_4 C 0.1177(2) 0.7731(3) 0.45320(19)
H3_4 H 0.0914 0.7303 0.4732
C4_4 C 0.0797(2) 0.8312(2) 0.4208(2)
H4_4 H 0.0283 0.8281 0.4185
C5_4 C 0.1165(2) 0.8955(3) 0.39092(18)
C7_4 C 0.1585(2) 0.9884(3) 0.2561(2)
C8_4 C 0.1105(3) 0.9683(3) 0.2008(2)
H7_4 H 0.0795 0.9210 0.2124
H8_4 H 0.1419 0.9503 0.1659
C14_4 C 0.1842(2) 0.5893(3) 0.39406(19)
H13_4 H 0.2076 0.6341 0.3739
C15_4 C 0.1499(2) 0.5323(2) 0.3574(2)
H14_4 H 0.1500 0.5378 0.3132
C16_4 C 0.1515(2) 0.5229(3) 0.4838(2)
H15_4 H 0.1514 0.5196 0.5281
C17_2 C 0.1152(2) 0.4624(3) 0.4506(2)
H16_2 H 0.0909 0.4192 0.4720
C18_2 C 0.1147(2) 0.4656(2) 0.3858(2)
C19_2 C 0.0325(2) 0.3212(2) 0.3854(2)
H17_2 H 0.0666 0.3006 0.4174
C20_2 C 0.0047(2) 0.2506(3) 0.3460(2)
H20_2 H 0.0128 0.1494 0.4042
N6_2 N 0.30941(18) 0.5819(2) 0.55896(16)
O2_3 O 0.5078(2) 0.2480(2) 0.70998(18)
S3_3 S 0.57794(6) 0.10711(7) 0.66561(5)
S4_3 S 0.43062(6) 0.38958(6) 0.67342(5)
C17_3 C 0.6152(2) 0.0376(3) 0.5494(2)
H16_3 H 0.5909 0.0808 0.5280
C18_3 C 0.6147(2) 0.0344(2) 0.6142(2)
C19_3 C 0.5325(2) 0.1788(2) 0.6146(2)
H17_3 H 0.5666 0.1994 0.5826
H18_3 H 0.4917 0.1512 0.5931
C20_3 C 0.5047(2) 0.2494(3) 0.6540(2)
C21_3 C 0.4737(2) 0.3212(2) 0.6184(2)
H19_3 H 0.4379 0.3016 0.5873
H20_3 H 0.5128 0.3506 0.5958
C22_3 C 0.3874(2) 0.4616(2) 0.62555(19)
C23_4 C 0.3470(2) 0.5222(3) 0.65629(19)
H21_4 H 0.3456 0.5238 0.7007
C24_4 C 0.3095(2) 0.5794(3) 0.62180(19)
H22_4 H 0.2820 0.6196 0.6436
C25_3 C 0.3882(2) 0.4642(3) 0.56082(19)
H23_3 H 0.4153 0.4249 0.5377
C26_4 C 0.3492(2) 0.5245(3) 0.53011(19)
H24_3 H 0.3507 0.5252 0.4857
S4_4 S 0.93062(6) 0.11042(6) 0.32658(5)
H18_4 H 0.9917 0.3488 0.4069
C21_4 C 0.9737(2) 0.1788(2) 0.3816(2)
H19_4 H 0.9379 0.1984 0.4127
C22_4 C 0.8874(2) 0.0384(2) 0.37445(19)
C25_4 C 0.8882(2) 0.0358(3) 0.43918(19)
H23_4 H 0.9153 0.0751 0.4623
H24_4 H 0.1493 0.4748 0.9857
O2_4 O 0.9922(2) 0.7520(2) 0.20998(18)
S3_4 S 0.92206(6) 0.89289(7) 0.16561(5)
C17_4 C 0.8848(2) 0.9624(3) 0.0494(2)
H16_4 H 0.9091 0.9192 0.0280
C18_4 C 0.8853(2) 0.9656(2) 0.1142(2)
C19_4 C 0.9675(2) 0.8212(2) 0.1146(2)
H17_4 H 0.9334 0.8006 0.0826
C20_4 C 0.9953(2) 0.7506(3) 0.1540(2)
H20_4 H 0.9872 0.6494 0.0958
S2_5 S 0.55247(6) 0.04932(7) 0.32771(6)
N2_3 N 0.69002(18) 0.2296(2) 0.44003(15)
C6_5 C 0.6271(2) 0.0331(3) 0.18870(19)
H5_5 H 0.6025 0.0837 0.2032
H6_5 H 0.6665 0.0493 0.1599
C9_5 C 0.6100(2) 0.1150(3) 0.36952(19)
C10_5 C 0.5761(2) 0.1811(3) 0.4001(2)
H9_5 H 0.5251 0.1881 0.3975
C11_5 C 0.6173(2) 0.2354(3) 0.4340(2)
H10_5 H 0.5934 0.2797 0.4543
C12_5 C 0.6845(2) 0.1082(2) 0.37590(18)
H11_5 H 0.7099 0.0642 0.3565
C13_5 C 0.7214(2) 0.1661(2) 0.41068(18)
H12_5 H 0.7725 0.1605 0.4141
Co2_2 Co 0.75100(3) 0.32306(3) 0.49112(2)
Cl1_5 Cl 0.84315(5) 0.32117(6) 0.41126(5)
S1_5 S 0.93718(6) 0.03139(7) 0.64748(5)
O1_5 O 0.78062(19) 0.0396(3) 0.74321(16)
N1_5 N 0.80924(18) 0.2269(2) 0.54168(15)
C1_5 C 0.7744(2) 0.1651(2) 0.57052(19)
H1_5 H 0.7231 0.1637 0.5677
Cl2_5 Cl 0.65861(5) 0.32241(6) 0.57195(5)
O2_5 O 0.9922(2) 0.7480(2) 0.70998(18)
C2_5 C 0.8082(2) 0.1035(3) 0.6040(2)
H2_5 H 0.7807 0.0611 0.6232
S3_5 S 0.92206(6) 0.60711(7) 0.66561(5)
N3_5 N 0.81337(17) 0.4142(2) 0.54292(16)
C3_5 C 0.8823(2) 0.2269(3) 0.54680(19)
H3_5 H 0.9086 0.2697 0.5268
C4_5 C 0.9203(2) 0.1688(2) 0.5792(2)
H4_5 H 0.9717 0.1719 0.5815
C5_5 C 0.8835(2) 0.1045(3) 0.60908(18)
C7_5 C 0.8415(2) 0.0116(3) 0.7439(2)
C8_5 C 0.8895(3) 0.0317(3) 0.7992(2)
H7_5 H 0.9205 0.0790 0.7876
H8_5 H 0.8581 0.0497 0.8341
C14_5 C 0.8158(2) 0.4107(3) 0.60594(19)
H13_5 H 0.7924 0.3659 0.6261
C15_5 C 0.8501(2) 0.4677(2) 0.6426(2)
H14_5 H 0.8500 0.4622 0.6868
C16_5 C 0.8485(2) 0.4771(3) 0.5162(2)
H15_5 H 0.8486 0.4804 0.4719
C17_5 C 0.8848(2) 0.5376(3) 0.5494(2)
H16_5 H 0.9091 0.5808 0.5280
C18_5 C 0.8853(2) 0.5344(2) 0.6142(2)
C19_5 C 0.9675(2) 0.6788(2) 0.6146(2)
H17_5 H 0.9334 0.6994 0.5826
C20_5 C 0.9953(2) 0.7494(3) 0.6540(2)
H20_5 H 0.9872 0.8506 0.5958
N6_3 N 0.69059(18) 0.4181(2) 0.44104(16)
O2_6 O 0.4922(2) 0.7520(2) 0.29002(18)
S3_6 S 0.42206(6) 0.89289(7) 0.33439(5)
S4_5 S 0.56938(6) 0.61042(6) 0.32658(5)
C17_6 C 0.3848(2) 0.9624(3) 0.4506(2)
H16_6 H 0.4091 0.9192 0.4720
C18_6 C 0.3853(2) 0.9656(2) 0.3858(2)
C19_6 C 0.4675(2) 0.8212(2) 0.3854(2)
H17_6 H 0.4334 0.8006 0.4174
H18_5 H 0.5083 0.8488 0.4069
C20_6 C 0.4953(2) 0.7506(3) 0.3460(2)
C21_5 C 0.5263(2) 0.6788(2) 0.3816(2)
H19_5 H 0.5621 0.6984 0.4127
H20_6 H 0.4872 0.6494 0.4042
C22_5 C 0.6126(2) 0.5384(2) 0.37445(19)
C23_5 C 0.6530(2) 0.4778(3) 0.34371(19)
H21_5 H 0.6544 0.4762 0.2993
C24_5 C 0.6905(2) 0.4206(3) 0.37820(19)
H22_5 H 0.7180 0.3804 0.3564
C25_5 C 0.6118(2) 0.5358(3) 0.43918(19)
H23_5 H 0.5847 0.5751 0.4623
C26_5 C 0.6508(2) 0.4755(3) 0.46989(19)
H24_5 H 0.6493 0.4748 0.5143
S1_6 S 0.56282(6) 0.96861(7) 0.14748(5)
O1_6 O 0.71938(19) 0.9604(3) 0.24321(16)
N1_6 N 0.69076(18) 0.7731(2) 0.04168(15)
C1_6 C 0.7256(2) 0.8349(2) 0.07052(19)
H1_6 H 0.7769 0.8363 0.0677
Cl2_6 Cl 0.84139(5) 0.67759(6) 0.07195(5)
O2_7 O 0.5078(2) 0.2520(2) 0.20998(18)
C2_6 C 0.6918(2) 0.8965(3) 0.1040(2)
H2_6 H 0.7193 0.9389 0.1232
S3_7 S 0.57794(6) 0.39289(7) 0.16561(5)
N3_6 N 0.68663(17) 0.5858(2) 0.04292(16)
C3_6 C 0.6177(2) 0.7731(3) 0.04680(19)
H3_6 H 0.5914 0.7303 0.0268
S4_6 S 0.43062(6) 0.11042(6) 0.17342(5)
C4_6 C 0.5797(2) 0.8312(2) 0.0792(2)
H4_6 H 0.5283 0.8281 0.0815
C5_6 C 0.6165(2) 0.8955(3) 0.10908(18)
C7_6 C 0.6585(2) 0.9884(3) 0.2439(2)
C8_6 C 0.6105(3) 0.9683(3) 0.2992(2)
H7_6 H 0.5795 0.9210 0.2876
H8_6 H 0.6419 0.9503 0.3341
C14_6 C 0.6842(2) 0.5893(3) 0.10594(19)
H13_6 H 0.7076 0.6341 0.1261
C15_6 C 0.6499(2) 0.5323(2) 0.1426(2)
H14_6 H 0.6500 0.5378 0.1868
C16_6 C 0.6515(2) 0.5229(3) 0.0162(2)
C17_7 C 0.6152(2) 0.4624(3) 0.0494(2)
H16_7 H 0.5909 0.4192 0.0280
C18_7 C 0.6147(2) 0.4656(2) 0.1142(2)
C19_7 C 0.5325(2) 0.3212(2) 0.1146(2)
H17_7 H 0.5666 0.3006 0.0826
H18_6 H 0.4917 0.3488 0.0931
C20_7 C 0.5047(2) 0.2506(3) 0.1540(2)
C21_6 C 0.4737(2) 0.1788(2) 0.1184(2)
H19_6 H 0.4379 0.1984 0.0873
H20_7 H 0.5128 0.1494 0.0958
C22_6 C 0.3874(2) 0.0384(2) 0.12555(19)
C25_6 C 0.3882(2) 0.0358(3) 0.06082(19)
H23_6 H 0.4153 0.0751 0.0377
Co1_2 Co 0.74900(3) 0.67694(3) 0.99112(2)
Cl1_6 Cl 0.65685(5) 0.67883(6) 0.91126(5)
H15_6 H 0.6514 0.5196 0.9719
N5_3 N 0.80998(18) 0.7704(2) 0.94003(15)
N6_4 N 0.80941(18) 0.5819(2) 0.94104(16)
S2_6 S 0.94753(6) 0.95068(7) 0.82771(6)
C6_6 C 0.8729(2) 0.9669(3) 0.68870(19)
H5_6 H 0.8975 0.9163 0.7032
H6_6 H 0.8335 0.9507 0.6599
C9_6 C 0.8900(2) 0.8850(3) 0.86952(19)
C10_6 C 0.9239(2) 0.8189(3) 0.9001(2)
H9_6 H 0.9749 0.8119 0.8975
C11_6 C 0.8827(2) 0.7646(3) 0.9340(2)
H10_6 H 0.9066 0.7203 0.9543
C12_6 C 0.8155(2) 0.8918(2) 0.87590(18)
H11_6 H 0.7901 0.9358 0.8565
C13_6 C 0.7786(2) 0.8339(2) 0.91068(18)
H12_6 H 0.7275 0.8395 0.9141
S4_7 S 0.93062(6) 0.38958(6) 0.82658(5)
H18_7 H 0.9917 0.1512 0.9069
C21_7 C 0.9737(2) 0.3212(2) 0.8816(2)
H19_7 H 0.9379 0.3016 0.9127
C22_7 C 0.8874(2) 0.4616(2) 0.87445(19)
C23_6 C 0.8470(2) 0.5222(3) 0.84371(19)
H21_6 H 0.8456 0.5238 0.7993
C24_6 C 0.8095(2) 0.5794(3) 0.87820(19)
H22_6 H 0.7820 0.6196 0.8564
C25_7 C 0.8882(2) 0.4642(3) 0.93918(19)
H23_7 H 0.9153 0.4249 0.9623
C26_6 C 0.8492(2) 0.5245(3) 0.96989(19)
N4_3 N 0.30941(18) 0.9181(2) 0.05896(16)
C23_7 C 0.3470(2) 0.9778(3) 0.15629(19)
H21_7 H 0.3456 0.9762 0.2007
C24_7 C 0.3095(2) 0.9206(3) 0.12180(19)
H22_7 H 0.2820 0.8804 0.1436
C26_7 C 0.3492(2) 0.9755(3) 0.03011(19)
Co3_3 Co 0.24900(3) 0.82306(3) 0.00888(2)
N4_4 N 0.19059(18) 0.0819(2) 0.55896(16)
C23_8 C 0.1530(2) 0.0222(3) 0.65629(19)
H21_8 H 0.1544 0.0238 0.7007
C24_8 C 0.1905(2) 0.0794(3) 0.62180(19)
H22_8 H 0.2180 0.1196 0.6436
C26_8 C 0.1508(2) 0.0245(3) 0.53011(19)
H24_6 H 0.1493 0.0252 0.4857
Co3_4 Co 0.25100(3) 0.17694(3) 0.50888(2)
Cl1_7 Cl 0.15685(5) 0.82117(6) 0.08874(5)
H15_7 H 0.1514 0.9804 0.0281
N5_4 N 0.30998(18) 0.7296(2) 0.05997(15)
S1_7 S 0.06282(6) 0.53139(7) 0.85252(5)
O1_7 O 0.21938(19) 0.5396(3) 0.75679(16)
N1_7 N 0.19076(18) 0.7269(2) 0.95832(15)
C1_7 C 0.2256(2) 0.6651(2) 0.92948(19)
H1_7 H 0.2769 0.6637 0.9323
Cl2_7 Cl 0.34139(5) 0.82241(6) 0.92805(5)
S2_7 S 0.05247(6) 0.45068(7) 0.67229(6)
N2_4 N 0.19002(18) 0.2704(2) 0.55997(15)
C2_7 C 0.1918(2) 0.6035(3) 0.8960(2)
H2_7 H 0.2193 0.5611 0.8768
N3_7 N 0.18663(17) 0.9142(2) 0.95708(16)
C3_7 C 0.1177(2) 0.7269(3) 0.95320(19)
H3_7 H 0.0914 0.7697 0.9732
C4_7 C 0.0797(2) 0.6688(2) 0.9208(2)
H4_7 H 0.0283 0.6719 0.9185
C5_7 C 0.1165(2) 0.6045(3) 0.89092(18)
C6_7 C 0.1271(2) 0.4669(3) 0.81130(19)
H5_7 H 0.1025 0.4163 0.7968
H6_7 H 0.1665 0.4507 0.8401
C7_7 C 0.1585(2) 0.5116(3) 0.7561(2)
C8_7 C 0.1105(3) 0.5317(3) 0.7008(2)
H7_7 H 0.0795 0.5790 0.7124
H8_7 H 0.1419 0.5497 0.6659
C9_7 C 0.1100(2) 0.3850(3) 0.63048(19)
C10_7 C 0.0761(2) 0.3189(3) 0.5999(2)
H9_7 H 0.0251 0.3119 0.6025
C11_7 C 0.1173(2) 0.2646(3) 0.5660(2)
H10_7 H 0.0934 0.2203 0.5457
C12_7 C 0.1845(2) 0.3918(2) 0.62410(18)
H11_7 H 0.2099 0.4358 0.6435
C13_7 C 0.2214(2) 0.3339(2) 0.58932(18)
H12_7 H 0.2725 0.3395 0.5859
C14_7 C 0.1842(2) 0.9107(3) 0.89406(19)
H13_7 H 0.2076 0.8659 0.8739
C15_7 C 0.1499(2) 0.9677(2) 0.8574(2)
H14_7 H 0.1500 0.9622 0.8132
C16_7 C 0.1515(2) 0.9771(3) 0.9838(2)
Cl1_8 Cl 0.34315(5) 0.17883(6) 0.58874(5)
S1_8 S 0.43718(6) 0.46861(7) 0.35252(5)
O1_8 O 0.28062(19) 0.4604(3) 0.25679(16)
N1_8 N 0.30924(18) 0.2731(2) 0.45832(15)
C1_8 C 0.2744(2) 0.3349(2) 0.42948(19)
H1_8 H 0.2231 0.3363 0.4323
Cl2_8 Cl 0.15861(5) 0.17759(6) 0.42805(5)
S2_8 S 0.44753(6) 0.54932(7) 0.17229(6)
C2_8 C 0.3082(2) 0.3965(3) 0.3960(2)
H2_8 H 0.2807 0.4389 0.3768
N3_8 N 0.31337(17) 0.0858(2) 0.45708(16)
C3_8 C 0.3823(2) 0.2731(3) 0.45320(19)
H3_8 H 0.4086 0.2303 0.4732
C4_8 C 0.4203(2) 0.3312(2) 0.4208(2)
H4_8 H 0.4717 0.3281 0.4185
C5_8 C 0.3835(2) 0.3955(3) 0.39092(18)
C6_8 C 0.3729(2) 0.5331(3) 0.31130(19)
H5_8 H 0.3975 0.5837 0.2968
H6_8 H 0.3335 0.5493 0.3401
C7_8 C 0.3415(2) 0.4884(3) 0.2561(2)
C8_8 C 0.3895(3) 0.4683(3) 0.2008(2)
H7_8 H 0.4205 0.4210 0.2124
H8_8 H 0.3581 0.4503 0.1659
C9_8 C 0.3900(2) 0.6150(3) 0.13048(19)
C10_8 C 0.4239(2) 0.6811(3) 0.0999(2)
H9_8 H 0.4749 0.6881 0.1025
C11_8 C 0.3827(2) 0.7354(3) 0.0660(2)
H10_8 H 0.4066 0.7797 0.0457
C12_8 C 0.3155(2) 0.6082(2) 0.12410(18)
H11_8 H 0.2901 0.5642 0.1435
C13_8 C 0.2786(2) 0.6661(2) 0.08932(18)
H12_8 H 0.2275 0.6605 0.0859
C14_8 C 0.3158(2) 0.0893(3) 0.39406(19)
H13_8 H 0.2924 0.1341 0.3739
C15_8 C 0.3501(2) 0.0323(2) 0.3574(2)
H14_8 H 0.3500 0.0378 0.3132
C16_8 C 0.3485(2) 0.0229(3) 0.4838(2)
H15_8 H 0.3486 0.0196 0.5281
H24_7 H 0.3507 0.9748 0.9857
S4_8 S 0.06938(6) 0.88958(6) 0.67342(5)
H18_8 H 0.0083 0.6512 0.5931
C21_8 C 0.0263(2) 0.8212(2) 0.6184(2)
H19_8 H 0.0621 0.8016 0.5873
C22_8 C 0.1126(2) 0.9616(2) 0.62555(19)
C25_8 C 0.1118(2) 0.9642(3) 0.56082(19)
H23_8 H 0.0847 0.9249 0.5377
O2_8 O 0.0078(2) 0.2480(2) 0.79002(18)
S3_8 S 0.07794(6) 0.10711(7) 0.83439(5)
C17_8 C 0.1152(2) 0.0376(3) 0.9506(2)
H16_8 H 0.0909 0.0808 0.9720
C18_8 C 0.1147(2) 0.0344(2) 0.8858(2)
C19_8 C 0.0325(2) 0.1788(2) 0.8854(2)
H17_8 H 0.0666 0.1994 0.9174
C20_8 C 0.0047(2) 0.2494(3) 0.8460(2)
H20_8 H 0.0128 0.3506 0.9042
H24_8 H 0.8507 0.5252 0.0143
loop_
_geom_bond_atom_site_label_1
_geom_bond_atom_site_label_2
_geom_bond_site_symmetry_1
_geom_bond_site_symmetry_2
N4 C24 1_555 1_555
H21 C23 1_555 1_555
C24 C23 1_555 1_555
H22 C24 1_555 1_555
C26 N4 1_555 1_555
Co3 N4 1_555 1_555
N4_2 C24_2 1_555 1_555
H21_2 C23_2 1_555 1_555
C24_2 C23_2 1_555 1_555
H22_2 C24_2 1_555 1_555
C26_2 N4_2 1_555 1_555
H24_2 C26_2 1_555 1_555
Co3_2 N4_2 1_555 1_555
S1 C5 1_555 1_555
O1 C7 1_555 1_555
C1 N1 1_555 1_555
H1 C1 1_555 1_555
S2 C8 1_555 1_555
N2 C11 1_555 1_555
C2 C1 1_555 1_555
H2 C2 1_555 1_555
C3 N1 1_555 1_555
H3 C3 1_555 1_555
C4 C3 1_555 1_555
H4 C4 1_555 1_555
C5 C2 1_555 1_555
C6 S1 1_555 1_555
H5 C6 1_555 1_555
H6 C6 1_555 1_555
C7 C6 1_555 1_555
C8 C7 1_555 1_555
H7 C8 1_555 1_555
H8 C8 1_555 1_555
C9 S2 1_555 1_555
C10 C9 1_555 1_555
H9 C10 1_555 1_555
C11 C10 1_555 1_555
H10 C11 1_555 1_555
C12 C9 1_555 1_555
H11 C12 1_555 1_555
C13 N2 1_555 1_555
H12 C13 1_555 1_555
C14 N3 1_555 1_555
H13 C14 1_555 1_555
C15 C14 1_555 1_555
H14 C15 1_555 1_555
C16 N3 1_555 1_555
Co3_2 N2 1_555 1_555
C4 C5 1_555 1_555
C12 C13 1_555 1_555
Co3 Cl1 1_555 1_555
N5 Co3 1_555 1_555
Co3_2 Cl1_2 1_555 1_555
S1_2 C5_2 1_555 1_555
O1_2 C7_2 1_555 1_555
N1_2 Co3_2 1_555 1_555
C1_2 N1_2 1_555 1_555
H1_2 C1_2 1_555 1_555
Cl2_2 Co3_2 1_555 1_555
S2_2 C8_2 1_555 1_555
N5 C11_2 1_555 1_555
C2_2 C1_2 1_555 1_555
H2_2 C2_2 1_555 1_555
N3_2 Co3_2 1_555 1_555
C3_2 N1_2 1_555 1_555
H3_2 C3_2 1_555 1_555
C4_2 C3_2 1_555 1_555
H4_2 C4_2 1_555 1_555
C5_2 C2_2 1_555 1_555
C6_2 S1_2 1_555 1_555
H5_2 C6_2 1_555 1_555
H6_2 C6_2 1_555 1_555
C7_2 C6_2 1_555 1_555
C8_2 C7_2 1_555 1_555
H7_2 C8_2 1_555 1_555
H8_2 C8_2 1_555 1_555
C9_2 S2_2 1_555 1_555
C10_2 C9_2 1_555 1_555
H9_2 C10_2 1_555 1_555
C11_2 C10_2 1_555 1_555
H10_2 C11_2 1_555 1_555
C12_2 C9_2 1_555 1_555
H11_2 C12_2 1_555 1_555
C13_2 N5 1_555 1_555
H12_2 C13_2 1_555 1_555
C14_2 N3_2 1_555 1_555
H13_2 C14_2 1_555 1_555
C15_2 C14_2 1_555 1_555
H14_2 C15_2 1_555 1_555
C16_2 N3_2 1_555 1_555
H15_2 C16_2 1_555 1_555
C4_2 C5_2 1_555 1_555
C12_2 C13_2 1_555 1_555
Co1 Cl1_3 1_555 1_555
N5_2 Co1 1_555 1_555
N6 Co1 1_555 1_555
N5_2 C11_3 1_555 1_555
H5_3 C6_3 1_555 1_555
H6_3 C6_3 1_555 1_555
C9_3 S2_3 1_555 1_555
C10_3 C9_3 1_555 1_555
H9_3 C10_3 1_555 1_555
C11_3 C10_3 1_555 1_555
H10_3 C11_3 1_555 1_555
C12_3 C9_3 1_555 1_555
H11_3 C12_3 1_555 1_555
C13_3 N5_2 1_555 1_555
H12_3 C13_3 1_555 1_555
C12_3 C13_3 1_555 1_555
S4 C21 1_555 1_555
N6 C24_3 1_555 1_555
H19 C21 1_555 1_555
C22 S4 1_555 1_555
C23_3 C22 1_555 1_555
H21_3 C23_3 1_555 1_555
C24_3 C23_3 1_555 1_555
H22_3 C24_3 1_555 1_555
C25 C22 1_555 1_555
H23 C25 1_555 1_555
C26_3 N6 1_555 1_555
C25 C26_3 1_555 1_555
S1_3 C5_3 1_555 1_555
O1_3 C7_3 1_555 1_555
C1_3 N1_3 1_555 1_555
H1_3 C1_3 1_555 1_555
O2 C20 1_555 1_555
C2_3 C1_3 1_555 1_555
H2_3 C2_3 1_555 1_555
S3 C18 1_555 1_555
C3_3 N1_3 1_555 1_555
H3_3 C3_3 1_555 1_555
S4_2 C21_2 1_555 1_555
C4_3 C3_3 1_555 1_555
H4_3 C4_3 1_555 1_555
C5_3 C2_3 1_555 1_555
C8_3 C7_3 1_555 1_555
H7_3 C8_3 1_555 1_555
H8_3 C8_3 1_555 1_555
C14_3 N3_3 1_555 1_555
H13_3 C14_3 1_555 1_555
C15_3 C14_3 1_555 1_555
H14_3 C15_3 1_555 1_555
C16_3 N3_3 1_555 1_555
C17 C16_3 1_555 1_555
H16 C17 1_555 1_555
C18 C15_3 1_555 1_555
C19 S3 1_555 1_555
H17 C19 1_555 1_555
H18_2 C19 1_555 1_555
C20 C19 1_555 1_555
C21_2 C20 1_555 1_555
H19_2 C21_2 1_555 1_555
H20 C21_2 1_555 1_555
C22_2 S4_2 1_555 1_555
C25_2 C22_2 1_555 1_555
H23_2 C25_2 1_555 1_555
C4_3 C5_3 1_555 1_555
C17 C18 1_555 1_555
N2_2 C11_4 1_555 1_555
H5_4 C6_4 1_555 1_555
H6_4 C6_4 1_555 1_555
C9_4 S2_4 1_555 1_555
C10_4 C9_4 1_555 1_555
H9_4 C10_4 1_555 1_555
C11_4 C10_4 1_555 1_555
H10_4 C11_4 1_555 1_555
C12_4 C9_4 1_555 1_555
H11_4 C12_4 1_555 1_555
C13_4 N2_2 1_555 1_555
H12_4 C13_4 1_555 1_555
Co2 N2_2 1_555 1_555
C12_4 C13_4 1_555 1_555
Co2 Cl1_4 1_555 1_555
S1_4 C5_4 1_555 1_555
O1_4 C7_4 1_555 1_555
N1_4 Co2 1_555 1_555
C1_4 N1_4 1_555 1_555
H1_4 C1_4 1_555 1_555
Cl2_4 Co2 1_555 1_555
O2_2 C20_2 1_555 1_555
C2_4 C1_4 1_555 1_555
H2_4 C2_4 1_555 1_555
S3_2 C18_2 1_555 1_555
N3_4 Co2 1_555 1_555
C3_4 N1_4 1_555 1_555
H3_4 C3_4 1_555 1_555
C4_4 C3_4 1_555 1_555
H4_4 C4_4 1_555 1_555
C5_4 C2_4 1_555 1_555
C8_4 C7_4 1_555 1_555
H7_4 C8_4 1_555 1_555
H8_4 C8_4 1_555 1_555
C14_4 N3_4 1_555 1_555
H13_4 C14_4 1_555 1_555
C15_4 C14_4 1_555 1_555
H14_4 C15_4 1_555 1_555
C16_4 N3_4 1_555 1_555
H15_4 C16_4 1_555 1_555
C17_2 C16_4 1_555 1_555
H16_2 C17_2 1_555 1_555
C18_2 C15_4 1_555 1_555
C19_2 S3_2 1_555 1_555
H17_2 C19_2 1_555 1_555
C20_2 C19_2 1_555 1_555
N6_2 Co2 1_555 1_555
C4_4 C5_4 1_555 1_555
C17_2 C18_2 1_555 1_555
O2_3 C20_3 1_555 1_555
S3_3 C18_3 1_555 1_555
S4_3 C21_3 1_555 1_555
N6_2 C24_4 1_555 1_555
H16_3 C17_3 1_555 1_555
C19_3 S3_3 1_555 1_555
H17_3 C19_3 1_555 1_555
H18_3 C19_3 1_555 1_555
C20_3 C19_3 1_555 1_555
C21_3 C20_3 1_555 1_555
H19_3 C21_3 1_555 1_555
H20_3 C21_3 1_555 1_555
C22_3 S4_3 1_555 1_555
C23_4 C22_3 1_555 1_555
H21_4 C23_4 1_555 1_555
C24_4 C23_4 1_555 1_555
H22_4 C24_4 1_555 1_555
C25_3 C22_3 1_555 1_555
H23_3 C25_3 1_555 1_555
C26_4 N6_2 1_555 1_555
H24_3 C26_4 1_555 1_555
C17_3 C18_3 1_555 1_555
C25_3 C26_4 1_555 1_555
S4_4 C21_4 1_555 1_555
H19_4 C21_4 1_555 1_555
C22_4 S4_4 1_555 1_555
C25_4 C22_4 1_555 1_555
H23_4 C25_4 1_555 1_555
O2_4 C20_4 1_555 1_555
S3_4 C18_4 1_555 1_555
H16_4 C17_4 1_555 1_555
C19_4 S3_4 1_555 1_555
H17_4 C19_4 1_555 1_555
C20_4 C19_4 1_555 1_555
C17_4 C18_4 1_555 1_555
N2_3 C11_5 1_555 1_555
H5_5 C6_5 1_555 1_555
H6_5 C6_5 1_555 1_555
C9_5 S2_5 1_555 1_555
C10_5 C9_5 1_555 1_555
H9_5 C10_5 1_555 1_555
C11_5 C10_5 1_555 1_555
H10_5 C11_5 1_555 1_555
C12_5 C9_5 1_555 1_555
H11_5 C12_5 1_555 1_555
C13_5 N2_3 1_555 1_555
H12_5 C13_5 1_555 1_555
Co2_2 N2_3 1_555 1_555
C12_5 C13_5 1_555 1_555
Co2_2 Cl1_5 1_555 1_555
S1_5 C5_5 1_555 1_555
O1_5 C7_5 1_555 1_555
N1_5 Co2_2 1_555 1_555
C1_5 N1_5 1_555 1_555
H1_5 C1_5 1_555 1_555
Cl2_5 Co2_2 1_555 1_555
O2_5 C20_5 1_555 1_555
C2_5 C1_5 1_555 1_555
H2_5 C2_5 1_555 1_555
S3_5 C18_5 1_555 1_555
N3_5 Co2_2 1_555 1_555
C3_5 N1_5 1_555 1_555
H3_5 C3_5 1_555 1_555
C4_5 C3_5 1_555 1_555
H4_5 C4_5 1_555 1_555
C5_5 C2_5 1_555 1_555
C8_5 C7_5 1_555 1_555
H7_5 C8_5 1_555 1_555
H8_5 C8_5 1_555 1_555
C14_5 N3_5 1_555 1_555
H13_5 C14_5 1_555 1_555
C15_5 C14_5 1_555 1_555
H14_5 C15_5 1_555 1_555
C16_5 N3_5 1_555 1_555
H15_5 C16_5 1_555 1_555
C17_5 C16_5 1_555 1_555
H16_5 C17_5 1_555 1_555
C18_5 C15_5 1_555 1_555
C19_5 S3_5 1_555 1_555
H17_5 C19_5 1_555 1_555
C20_5 C19_5 1_555 1_555
N6_3 Co2_2 1_555 1_555
C4_5 C5_5 1_555 1_555
C17_5 C18_5 1_555 1_555
O2_6 C20_6 1_555 1_555
S3_6 C18_6 1_555 1_555
S4_5 C21_5 1_555 1_555
N6_3 C24_5 1_555 1_555
H16_6 C17_6 1_555 1_555
C19_6 S3_6 1_555 1_555
H17_6 C19_6 1_555 1_555
H18_5 C19_6 1_555 1_555
C20_6 C19_6 1_555 1_555
C21_5 C20_6 1_555 1_555
H19_5 C21_5 1_555 1_555
H20_6 C21_5 1_555 1_555
C22_5 S4_5 1_555 1_555
C23_5 C22_5 1_555 1_555
H21_5 C23_5 1_555 1_555
C24_5 C23_5 1_555 1_555
H22_5 C24_5 1_555 1_555
C25_5 C22_5 1_555 1_555
H23_5 C25_5 1_555 1_555
C26_5 N6_3 1_555 1_555
H24_5 C26_5 1_555 1_555
C17_6 C18_6 1_555 1_555
C25_5 C26_5 1_555 1_555
S1_6 C5_6 1_555 1_555
O1_6 C7_6 1_555 1_555
C1_6 N1_6 1_555 1_555
H1_6 C1_6 1_555 1_555
O2_7 C20_7 1_555 1_555
C2_6 C1_6 1_555 1_555
H2_6 C2_6 1_555 1_555
S3_7 C18_7 1_555 1_555
C3_6 N1_6 1_555 1_555
H3_6 C3_6 1_555 1_555
S4_6 C21_6 1_555 1_555
C4_6 C3_6 1_555 1_555
H4_6 C4_6 1_555 1_555
C5_6 C2_6 1_555 1_555
C8_6 C7_6 1_555 1_555
H7_6 C8_6 1_555 1_555
H8_6 C8_6 1_555 1_555
C14_6 N3_6 1_555 1_555
H13_6 C14_6 1_555 1_555
C15_6 C14_6 1_555 1_555
H14_6 C15_6 1_555 1_555
C16_6 N3_6 1_555 1_555
C17_7 C16_6 1_555 1_555
H16_7 C17_7 1_555 1_555
C18_7 C15_6 1_555 1_555
C19_7 S3_7 1_555 1_555
H17_7 C19_7 1_555 1_555
H18_6 C19_7 1_555 1_555
C20_7 C19_7 1_555 1_555
C21_6 C20_7 1_555 1_555
H19_6 C21_6 1_555 1_555
H20_7 C21_6 1_555 1_555
C22_6 S4_6 1_555 1_555
C25_6 C22_6 1_555 1_555
H23_6 C25_6 1_555 1_555
C4_6 C5_6 1_555 1_555
C17_7 C18_7 1_555 1_555
Co1_2 Cl1_6 1_555 1_555
N5_3 Co1_2 1_555 1_555
N6_4 Co1_2 1_555 1_555
N5_3 C11_6 1_555 1_555
H5_6 C6_6 1_555 1_555
H6_6 C6_6 1_555 1_555
C9_6 S2_6 1_555 1_555
C10_6 C9_6 1_555 1_555
H9_6 C10_6 1_555 1_555
C11_6 C10_6 1_555 1_555
H10_6 C11_6 1_555 1_555
C12_6 C9_6 1_555 1_555
H11_6 C12_6 1_555 1_555
C13_6 N5_3 1_555 1_555
H12_6 C13_6 1_555 1_555
C12_6 C13_6 1_555 1_555
S4_7 C21_7 1_555 1_555
N6_4 C24_6 1_555 1_555
H19_7 C21_7 1_555 1_555
C22_7 S4_7 1_555 1_555
C23_6 C22_7 1_555 1_555
H21_6 C23_6 1_555 1_555
C24_6 C23_6 1_555 1_555
H22_6 C24_6 1_555 1_555
C25_7 C22_7 1_555 1_555
H23_7 C25_7 1_555 1_555
C26_6 N6_4 1_555 1_555
C25_7 C26_6 1_555 1_555
N4_3 C24_7 1_555 1_555
H21_7 C23_7 1_555 1_555
C24_7 C23_7 1_555 1_555
H22_7 C24_7 1_555 1_555
C26_7 N4_3 1_555 1_555
Co3_3 N4_3 1_555 1_555
N4_4 C24_8 1_555 1_555
H21_8 C23_8 1_555 1_555
C24_8 C23_8 1_555 1_555
H22_8 C24_8 1_555 1_555
C26_8 N4_4 1_555 1_555
H24_6 C26_8 1_555 1_555
Co3_4 N4_4 1_555 1_555
Co3_3 Cl1_7 1_555 1_555
N5_4 Co3_3 1_555 1_555
S1_7 C5_7 1_555 1_555
O1_7 C7_7 1_555 1_555
C1_7 N1_7 1_555 1_555
H1_7 C1_7 1_555 1_555
S2_7 C8_7 1_555 1_555
N2_4 C11_7 1_555 1_555
C2_7 C1_7 1_555 1_555
H2_7 C2_7 1_555 1_555
C3_7 N1_7 1_555 1_555
H3_7 C3_7 1_555 1_555
C4_7 C3_7 1_555 1_555
H4_7 C4_7 1_555 1_555
C5_7 C2_7 1_555 1_555
C6_7 S1_7 1_555 1_555
H5_7 C6_7 1_555 1_555
H6_7 C6_7 1_555 1_555
C7_7 C6_7 1_555 1_555
C8_7 C7_7 1_555 1_555
H7_7 C8_7 1_555 1_555
H8_7 C8_7 1_555 1_555
C9_7 S2_7 1_555 1_555
C10_7 C9_7 1_555 1_555
H9_7 C10_7 1_555 1_555
C11_7 C10_7 1_555 1_555
H10_7 C11_7 1_555 1_555
C12_7 C9_7 1_555 1_555
H11_7 C12_7 1_555 1_555
C13_7 N2_4 1_555 1_555
H12_7 C13_7 1_555 1_555
C14_7 N3_7 1_555 1_555
H13_7 C14_7 1_555 1_555
C15_7 C14_7 1_555 1_555
H14_7 C15_7 1_555 1_555
C16_7 N3_7 1_555 1_555
Co3_4 N2_4 1_555 1_555
C4_7 C5_7 1_555 1_555
C12_7 C13_7 1_555 1_555
Co3_4 Cl1_8 1_555 1_555
S1_8 C5_8 1_555 1_555
O1_8 C7_8 1_555 1_555
N1_8 Co3_4 1_555 1_555
C1_8 N1_8 1_555 1_555
H1_8 C1_8 1_555 1_555
Cl2_8 Co3_4 1_555 1_555
S2_8 C8_8 1_555 1_555
N5_4 C11_8 1_555 1_555
C2_8 C1_8 1_555 1_555
H2_8 C2_8 1_555 1_555
N3_8 Co3_4 1_555 1_555
C3_8 N1_8 1_555 1_555
H3_8 C3_8 1_555 1_555
C4_8 C3_8 1_555 1_555
H4_8 C4_8 1_555 1_555
C5_8 C2_8 1_555 1_555
C6_8 S1_8 1_555 1_555
H5_8 C6_8 1_555 1_555
H6_8 C6_8 1_555 1_555
C7_8 C6_8 1_555 1_555
C8_8 C7_8 1_555 1_555
H7_8 C8_8 1_555 1_555
H8_8 C8_8 1_555 1_555
C9_8 S2_8 1_555 1_555
C10_8 C9_8 1_555 1_555
H9_8 C10_8 1_555 1_555
C11_8 C10_8 1_555 1_555
H10_8 C11_8 1_555 1_555
C12_8 C9_8 1_555 1_555
H11_8 C12_8 1_555 1_555
C13_8 N5_4 1_555 1_555
H12_8 C13_8 1_555 1_555
C14_8 N3_8 1_555 1_555
H13_8 C14_8 1_555 1_555
C15_8 C14_8 1_555 1_555
H14_8 C15_8 1_555 1_555
C16_8 N3_8 1_555 1_555
H15_8 C16_8 1_555 1_555
C4_8 C5_8 1_555 1_555
C12_8 C13_8 1_555 1_555
S4_8 C21_8 1_555 1_555
H19_8 C21_8 1_555 1_555
C22_8 S4_8 1_555 1_555
C25_8 C22_8 1_555 1_555
H23_8 C25_8 1_555 1_555
O2_8 C20_8 1_555 1_555
S3_8 C18_8 1_555 1_555
H16_8 C17_8 1_555 1_555
C19_8 S3_8 1_555 1_555
H17_8 C19_8 1_555 1_555
C20_8 C19_8 1_555 1_555
C17_8 C18_8 1_555 1_555

#END
