
###############################################################################
#
# This file contains modified crystal structure data generated from the
# MOF subset of the Cambridge Structural Database (CSD) v543 
# hosted by the Cambridge Crystallographic Data Centre (CCDC).
#
# This work is licensed under the Creative Commons
# Attribution-NonCommercial-ShareAlike 4.0 International License.
# To view a copy of this license, visit
# http://creativecommons.org/licenses/by-nc-sa/4.0/
# or send a letter to
# Creative Commons, PO Box 1866, Mountain View, CA 94042, USA.
#
# CIF created using the CSD Python API on 29 September 2022
# The structure has been converted into the P1 space group
# The structure has a 3D framework
# The original CSD entry CEBSOV is in the tetragonal crystal system
# The original CSD entry CEBSOV is in a Sohncke space group
# The framework has been calculated to contain at least 10.0% void space
# The void calculation uses a probe of radius 1.32A, grid spacing 0.4
# The framework is charged, counterions have been retained in the structure
#
###############################################################################

data_CEBSOV
_chemical_formula_moiety         '(C408 H328 F56 N96 Ni21 O32 Si8 2+)n'
_symmetry_cell_setting           triclinic
_symmetry_space_group_name_H-M   'P 1'
_symmetry_Int_Tables_number      1
_space_group_name_Hall           'P 1'
loop_
_symmetry_equiv_pos_site_id
_symmetry_equiv_pos_as_xyz
1 x,y,z
_cell_length_a                   29.6729(2)
_cell_length_b                   29.6729(2)
_cell_length_c                   23.2899(3)
_cell_angle_alpha                90
_cell_angle_beta                 90
_cell_angle_gamma                90
_cell_volume                     20506.3
loop_
_atom_site_label
_atom_site_type_symbol
_atom_site_fract_x
_atom_site_fract_y
_atom_site_fract_z
Si1 Si 0.65838(2) 0.45402(2) 0.67690(5)
F1 F 0.71498(5) 0.43902(5) 0.67016(11)
F2 F 0.65849(8) 0.45261(9) 0.59789(9)
F3 F 0.67351(6) 0.50860(5) 0.66940(10)
F4 F 0.60401(5) 0.46896(6) 0.66857(10)
F5 F 0.66005(7) 0.45506(6) 0.74277(9)
F6 F 0.64401(5) 0.39956(5) 0.67180(12)
Si1_2 Si 0.34162(2) 0.54598(2) 0.67690(5)
F1_2 F 0.28502(5) 0.56098(5) 0.67016(11)
F2_2 F 0.34151(8) 0.54739(9) 0.59789(9)
F3_2 F 0.32649(6) 0.49140(5) 0.66940(10)
F4_2 F 0.39599(5) 0.53104(6) 0.66857(10)
F5_2 F 0.33995(7) 0.54494(6) 0.74277(9)
F6_2 F 0.35599(5) 0.60044(5) 0.67180(12)
Si1_3 Si 0.54598(2) 0.65838(2) 0.67690(5)
F1_3 F 0.56098(5) 0.71498(5) 0.67016(11)
F2_3 F 0.54739(9) 0.65849(8) 0.59789(9)
F3_3 F 0.49140(5) 0.67351(6) 0.66940(10)
F4_3 F 0.53104(6) 0.60401(5) 0.66857(10)
F5_3 F 0.54494(6) 0.66005(7) 0.74277(9)
F6_3 F 0.60044(5) 0.64401(5) 0.67180(12)
Si1_4 Si 0.45402(2) 0.34162(2) 0.67690(5)
F1_4 F 0.43902(5) 0.28502(5) 0.67016(11)
F2_4 F 0.45261(9) 0.34151(8) 0.59789(9)
F3_4 F 0.50860(5) 0.32649(6) 0.66940(10)
F4_4 F 0.46896(6) 0.39599(5) 0.66857(10)
F5_4 F 0.45506(6) 0.33995(7) 0.74277(9)
F6_4 F 0.39956(5) 0.35599(5) 0.67180(12)
F3_5 F 0.17351(6) 0.00860(5) 0.16940(10)
Si1_5 Si 0.15838(2) 0.95402(2) 0.17690(5)
F1_5 F 0.21498(5) 0.93902(5) 0.17016(11)
F2_5 F 0.15849(8) 0.95261(9) 0.09789(9)
F4_5 F 0.10401(5) 0.96896(6) 0.16857(10)
F5_5 F 0.16005(7) 0.95506(6) 0.24277(9)
F6_5 F 0.14401(5) 0.89956(5) 0.17180(12)
Si1_6 Si 0.84162(2) 0.04598(2) 0.17690(5)
F1_6 F 0.78502(5) 0.06098(5) 0.17016(11)
F2_6 F 0.84151(8) 0.04739(9) 0.09789(9)
F4_6 F 0.89599(5) 0.03104(6) 0.16857(10)
F5_6 F 0.83995(7) 0.04494(6) 0.24277(9)
F6_6 F 0.85599(5) 0.10044(5) 0.17180(12)
F3_6 F 0.82649(6) 0.99140(5) 0.16940(10)
Si1_7 Si 0.04598(2) 0.15838(2) 0.17690(5)
F1_7 F 0.06098(5) 0.21498(5) 0.17016(11)
F2_7 F 0.04739(9) 0.15849(8) 0.09789(9)
F4_7 F 0.03104(6) 0.10401(5) 0.16857(10)
F5_7 F 0.04494(6) 0.16005(7) 0.24277(9)
F6_7 F 0.10044(5) 0.14401(5) 0.17180(12)
F3_7 F 0.99140(5) 0.17351(6) 0.16940(10)
F3_8 F 0.00860(5) 0.82649(6) 0.16940(10)
Si1_8 Si 0.95402(2) 0.84162(2) 0.17690(5)
F1_8 F 0.93902(5) 0.78502(5) 0.17016(11)
F2_8 F 0.95261(9) 0.84151(8) 0.09789(9)
F4_8 F 0.96896(6) 0.89599(5) 0.16857(10)
F5_8 F 0.95506(6) 0.83995(7) 0.24277(9)
F6_8 F 0.89956(5) 0.85599(5) 0.17180(12)
N1 N 0.61441(18) 0.56547(12) 0.6058(2)
H1 H 0.625725 0.545344 0.630141
H2 H 0.600300 0.586550 0.626146
C1 C 0.6541(2) 0.5879(2) 0.5708(3)
H3 H 0.649685 0.582460 0.530499
H4 H 0.682249 0.574987 0.582642
H5 H 0.654394 0.619721 0.577840
C2 C 0.58329(16) 0.54409(15) 0.56925(19)
H6 H 0.564862 0.566400 0.550815
H7 H 0.564555 0.524220 0.591345
H8 H 0.599217 0.527061 0.540675
N1_2 N 0.38559(18) 0.43453(12) 0.6058(2)
H1_2 H 0.374275 0.454656 0.630141
H2_2 H 0.399700 0.413450 0.626146
C1_2 C 0.3459(2) 0.4121(2) 0.5708(3)
H3_2 H 0.350315 0.417540 0.530499
H4_2 H 0.317751 0.425013 0.582642
H5_2 H 0.345606 0.380279 0.577840
C2_2 C 0.41671(16) 0.45591(15) 0.56925(19)
H6_2 H 0.435138 0.433600 0.550815
H7_2 H 0.435445 0.475780 0.591345
H8_2 H 0.400783 0.472939 0.540675
N1_3 N 0.43453(12) 0.61441(18) 0.6058(2)
H1_3 H 0.454656 0.625725 0.630141
H2_3 H 0.413450 0.600300 0.626146
C1_3 C 0.4121(2) 0.6541(2) 0.5708(3)
H3_3 H 0.417540 0.649685 0.530499
H4_3 H 0.425013 0.682249 0.582642
H5_3 H 0.380279 0.654394 0.577840
C2_3 C 0.45591(15) 0.58329(16) 0.56925(19)
H6_3 H 0.433600 0.564862 0.550815
H7_3 H 0.475780 0.564555 0.591345
H8_3 H 0.472939 0.599217 0.540675
N1_4 N 0.56547(12) 0.38559(18) 0.6058(2)
H1_4 H 0.545344 0.374275 0.630141
H2_4 H 0.586550 0.399700 0.626146
C1_4 C 0.5879(2) 0.3459(2) 0.5708(3)
H3_4 H 0.582460 0.350315 0.530499
H4_4 H 0.574987 0.317751 0.582642
H5_4 H 0.619721 0.345606 0.577840
C2_4 C 0.54409(15) 0.41671(16) 0.56925(19)
H6_4 H 0.566400 0.435138 0.550815
H7_4 H 0.524220 0.435445 0.591345
H8_4 H 0.527061 0.400783 0.540675
N1_5 N 0.11441(18) 0.06547(12) 0.1058(2)
H1_5 H 0.125725 0.045344 0.130141
H2_5 H 0.100300 0.086550 0.126146
C1_5 C 0.1541(2) 0.0879(2) 0.0708(3)
H3_5 H 0.149685 0.082460 0.030499
H4_5 H 0.182249 0.074987 0.082642
H5_5 H 0.154394 0.119721 0.077840
C2_5 C 0.08329(16) 0.04409(15) 0.06925(19)
H6_5 H 0.064862 0.066400 0.050815
H7_5 H 0.064555 0.024220 0.091345
H8_5 H 0.099217 0.027061 0.040675
N1_6 N 0.88559(18) 0.93453(12) 0.1058(2)
H1_6 H 0.874275 0.954656 0.130141
H2_6 H 0.899700 0.913450 0.126146
C1_6 C 0.8459(2) 0.9121(2) 0.0708(3)
H3_6 H 0.850315 0.917540 0.030499
H4_6 H 0.817751 0.925013 0.082642
H5_6 H 0.845606 0.880279 0.077840
C2_6 C 0.91671(16) 0.95591(15) 0.06925(19)
H6_6 H 0.935138 0.933600 0.050815
H7_6 H 0.935445 0.975780 0.091345
H8_6 H 0.900783 0.972939 0.040675
N1_7 N 0.93453(12) 0.11441(18) 0.1058(2)
H1_7 H 0.954656 0.125725 0.130141
H2_7 H 0.913450 0.100300 0.126146
C1_7 C 0.9121(2) 0.1541(2) 0.0708(3)
H3_7 H 0.917540 0.149685 0.030499
H4_7 H 0.925013 0.182249 0.082642
H5_7 H 0.880279 0.154394 0.077840
C2_7 C 0.95591(15) 0.08329(16) 0.06925(19)
H6_7 H 0.933600 0.064862 0.050815
H7_7 H 0.975780 0.064555 0.091345
H8_7 H 0.972939 0.099217 0.040675
N1_8 N 0.06547(12) 0.88559(18) 0.1058(2)
H1_8 H 0.045344 0.874275 0.130141
H2_8 H 0.086550 0.899700 0.126146
C1_8 C 0.0879(2) 0.8459(2) 0.0708(3)
H3_8 H 0.082460 0.850315 0.030499
H4_8 H 0.074987 0.817751 0.082642
H5_8 H 0.119721 0.845606 0.077840
C2_8 C 0.04409(15) 0.91671(16) 0.06925(19)
H6_8 H 0.066400 0.935138 0.050815
H7_8 H 0.024220 0.935445 0.091345
H8_8 H 0.027061 0.900783 0.040675
Ni3 Ni -0.000000 -0.000000 0.66967(5)
N13 N 0.06543(6) 0.00813(5) 0.66395(12)
C62 C 0.13582(8) 0.03955(9) 0.6647(2)
H47 H 0.158483 0.061199 0.663979
C63 C 0.09024(7) 0.04782(7) 0.66480(16)
O9 O 0.18957(7) 0.26807(5) 0.71758(7)
O10 O 0.18723(6) 0.27083(6) 0.62240(7)
C76 C 0.17983(6) 0.25302(5) 0.66962(10)
C77 C 0.11728(11) 0.14794(9) 0.71541(14)
H54 H 0.108505 0.134479 0.749690
C78 C 0.14598(11) 0.18553(10) 0.71777(13)
H55 H 0.159170 0.194370 0.752205
C79 C 0.15402(7) 0.20872(6) 0.66832(13)
C80 C 0.13748(11) 0.19166(10) 0.61592(14)
H56 H 0.143665 0.206670 0.581757
C81 C 0.11212(12) 0.15268(11) 0.61530(15)
H57 H 0.101861 0.141303 0.580459
C82 C 0.10175(6) 0.13037(6) 0.66537(14)
C83 C 0.07128(7) 0.09039(7) 0.66672(16)
C84 C 0.02527(8) 0.09835(7) 0.66317(13)
C85 C 0.00601(8) 0.14197(8) 0.6660(2)
H58 H 0.021307 0.169265 0.668246
Ni4 Ni 0.20671(2) 0.33061(2) 0.74899(2)
Ni5 Ni 0.20408(2) 0.33460(2) 0.60136(2)
F8 F 0.23497(3) 0.34941(3) 0.67151(5)
O11 O 0.14503(6) 0.35705(7) 0.72107(8)
O12 O 0.14377(6) 0.36099(7) 0.62552(7)
N16 N 0.16951(6) 0.31677(6) 0.52044(8)
N17 N 0.23050(6) 0.19744(6) 0.27109(7)
N19 N 0.06752(7) 0.24850(9) 0.29524(10)
H60 H 0.064642 0.233353 0.263973
N20 N 0.05083(7) 0.29045(9) 0.36926(10)
N21 N 0.21730(9) 0.40056(7) 0.56758(9)
N22 N 0.30962(7) 0.73355(6) 0.56871(8)
N23 N 0.25553(10) 0.56873(8) 0.54842(12)
H61 H 0.265848 0.566006 0.582748
N24 N 0.22234(8) 0.55094(7) 0.46520(10)
C88 C 0.17701(7) 0.27770(8) 0.49554(10)
H62 H 0.198884 0.258932 0.511240
C89 C 0.12852(7) 0.36741(7) 0.67191(15)
H63 H 0.100768 0.381960 0.672731
C90 C 0.15394(7) 0.26285(8) 0.44685(12)
H64 H 0.160353 0.235080 0.430230
C91 C 0.12064(8) 0.29135(9) 0.42379(10)
C92 C 0.11263(8) 0.33253(10) 0.45049(11)
H65 H 0.091348 0.352420 0.435754
C93 C 0.13665(8) 0.34330(9) 0.49888(12)
H66 H 0.129998 0.370122 0.517721
C94 C 0.09449(8) 0.27924(9) 0.37047(12)
C95 C 0.10696(8) 0.25421(9) 0.32623(11)
C96 C 0.22903(7) 0.23709(7) 0.29981(10)
H67 H 0.255947 0.251834 0.307885
C97 C 0.18989(8) 0.25606(9) 0.31720(12)
H68 H 0.189791 0.283041 0.337521
C98 C 0.15004(8) 0.23426(8) 0.30395(11)
C99 C 0.15056(8) 0.19696(8) 0.27267(11)
H69 H 0.123768 0.182885 0.262277
C100 C 0.19217(7) 0.17907(8) 0.25548(12)
H70 H 0.192620 0.153497 0.232394
C101 C 0.03461(10) 0.27079(10) 0.32271(14)
C107 C 0.22022(10) 0.41125(8) 0.51191(12)
H75 H 0.218399 0.388441 0.484616
C108 C 0.22615(10) 0.45734(8) 0.49294(12)
H76 H 0.226933 0.464279 0.454014
C109 C 0.23064(12) 0.49093(9) 0.53388(13)
C110 C 0.23104(11) 0.47863(8) 0.59062(13)
H77 H 0.236040 0.500188 0.618897
C111 C 0.22381(11) 0.43285(8) 0.60618(14)
H78 H 0.223637 0.425230 0.644916
C112 C 0.23666(12) 0.53490(9) 0.51554(13)
C113 C 0.23247(10) 0.59617(8) 0.46522(12)
C114 C 0.22059(6) 0.60581(3) 0.36072(6)
H79 H 0.231814 0.576821 0.355636
C115 C 0.21837(6) 0.62436(4) 0.41546(5)
C116 C 0.20160(6) 0.66769(4) 0.42306(4)
H80 H 0.200113 0.680093 0.459681
C117 C 0.18705(5) 0.69247(3) 0.37593(5)
H81 H 0.175831 0.721462 0.381019
N25 N 0.18927(5) 0.67393(4) 0.32120(5)
C118 C 0.20604(5) 0.63060(4) 0.31359(5)
H82 H 0.207531 0.618191 0.276972
C119 C 0.25480(11) 0.60867(9) 0.51532(13)
C120 C 0.31116(7) 0.71996(7) 0.51422(10)
H83 H 0.324436 0.738945 0.487318
C121 C 0.29425(8) 0.67954(7) 0.49568(12)
H84 H 0.296822 0.671530 0.457212
C122 C 0.27337(11) 0.65058(8) 0.53390(11)
C123 C 0.27515(11) 0.66355(9) 0.59150(12)
H85 H 0.264799 0.644116 0.619921
C124 C 0.29268(9) 0.70624(8) 0.60659(13)
H86 H 0.292070 0.715056 0.644904
Ni14 Ni 0.29329(2) 0.16939(2) 0.24899(2)
Ni21 Ni 0.16939(2) 0.70671(2) 0.24899(2)
Ni24 Ni 0.33460(2) 0.79592(2) 0.60136(2)
N46 N 0.26950(6) 0.30256(6) 0.77109(7)
N53 N 0.21989(6) 0.39661(6) 0.77669(8)
N55 N 0.26645(6) 0.30962(7) 0.56871(8)
N58 N 0.17393(4) 0.31073(5) 0.82120(5)
Ni3_2 Ni -0.000000 1.000000 0.66967(5)
N4 N 0.10339(6) 0.71989(6) 0.27669(8)
N11 N 0.00813(5) 0.93457(6) 0.66395(12)
C17 C 0.07721(7) 0.75075(7) 0.25296(11)
H20 H 0.089751 0.770537 0.226428
C18 C 0.03179(7) 0.75482(7) 0.26604(10)
H21 H 0.014101 0.776147 0.247388
C19 C 0.01372(8) 0.72780(9) 0.30568(11)
C20 C 0.04196(10) 0.69412(13) 0.33060(17)
H22 H 0.030134 0.673812 0.357021
C21 C 0.08468(8) 0.69188(11) 0.31612(14)
H23 H 0.102798 0.670271 0.333551
C50 C 0.03955(9) 0.86418(8) 0.6647(2)
H41 H 0.061199 0.841517 0.663979
C51 C 0.04782(7) 0.90976(7) 0.66480(16)
O5 O 0.26807(5) 0.81043(7) 0.71758(7)
O6 O 0.27083(6) 0.81277(6) 0.62240(7)
C52 C 0.25302(5) 0.82017(6) 0.66962(10)
C53 C 0.14794(9) 0.88272(11) 0.71541(14)
H42 H 0.134479 0.891495 0.749690
C54 C 0.18553(10) 0.85402(11) 0.71777(13)
H43 H 0.194370 0.840830 0.752205
C55 C 0.20872(6) 0.84598(7) 0.66832(13)
C56 C 0.19166(10) 0.86252(11) 0.61592(14)
H44 H 0.206670 0.856335 0.581757
C57 C 0.15268(11) 0.88788(12) 0.61530(15)
H45 H 0.141303 0.898139 0.580459
C58 C 0.13037(6) 0.89825(6) 0.66537(14)
C59 C 0.09039(7) 0.92872(7) 0.66672(16)
C60 C 0.09835(7) 0.97473(8) 0.66317(13)
C61 C 0.14197(8) 0.99399(8) 0.6660(2)
H46 H 0.169265 0.978693 0.668246
Ni10 Ni 0.33061(2) 0.79329(2) 0.74899(2)
Ni3_3 Ni 1.000000 -0.000000 0.66967(5)
O7 O 0.73193(5) 0.18957(7) 0.71758(7)
O8 O 0.72917(6) 0.18723(6) 0.62240(7)
C64 C 0.74698(5) 0.17983(6) 0.66962(10)
C65 C 0.85206(9) 0.11728(11) 0.71541(14)
H48 H 0.865521 0.108505 0.749690
C66 C 0.81447(10) 0.14598(11) 0.71777(13)
H49 H 0.805630 0.159170 0.752205
C67 C 0.79128(6) 0.15402(7) 0.66832(13)
C68 C 0.80834(10) 0.13748(11) 0.61592(14)
H50 H 0.793330 0.143665 0.581757
C69 C 0.84732(11) 0.11212(12) 0.61530(15)
H51 H 0.858697 0.101861 0.580459
C70 C 0.86963(6) 0.10175(6) 0.66537(14)
C71 C 0.90961(7) 0.07128(7) 0.66672(16)
C72 C 0.90165(7) 0.02527(8) 0.66317(13)
C73 C 0.85803(8) 0.00601(8) 0.6660(2)
H52 H 0.830735 0.021307 0.668246
N15 N 0.99187(5) 0.06543(6) 0.66395(12)
C86 C 0.96045(9) 0.13582(8) 0.6647(2)
H59 H 0.938801 0.158483 0.663979
C87 C 0.95218(7) 0.09024(7) 0.66480(16)
N18 N 0.89661(6) 0.28011(6) 0.27669(8)
C102 C 0.92279(7) 0.24925(7) 0.25296(11)
H71 H 0.910249 0.229463 0.226428
C103 C 0.96821(7) 0.24518(7) 0.26604(10)
H72 H 0.985899 0.223853 0.247388
C104 C 0.98628(8) 0.27220(9) 0.30568(11)
C105 C 0.95804(10) 0.30588(13) 0.33060(17)
H73 H 0.969866 0.326188 0.357021
C106 C 0.91532(8) 0.30812(11) 0.31612(14)
H74 H 0.897202 0.329729 0.333551
N28 N 0.28011(6) 0.10339(6) 0.27669(8)
C139 C 0.24925(7) 0.07721(7) 0.25296(11)
H98 H 0.229463 0.089751 0.226428
C140 C 0.24518(7) 0.03179(7) 0.26604(10)
H99 H 0.223853 0.014101 0.247388
C141 C 0.27220(9) 0.01372(8) 0.30568(11)
C142 C 0.30588(13) 0.04196(10) 0.33060(17)
H100 H 0.326188 0.030134 0.357021
C143 C 0.30812(11) 0.08468(8) 0.31612(14)
H101 H 0.329729 0.102798 0.333551
Ni11 Ni 0.66939(2) 0.20671(2) 0.74899(2)
Ni18 Ni 0.83061(2) 0.29329(2) 0.24899(2)
Ni25 Ni 0.66540(2) 0.20408(2) 0.60136(2)
Ni1 Ni 0.79329(2) 0.66939(2) 0.74899(2)
Ni2 Ni 0.79592(2) 0.66540(2) 0.60136(2)
Ni3_4 Ni 1.000000 1.000000 0.66967(5)
F7 F 0.76503(3) 0.65059(3) 0.67151(5)
O1 O 0.81043(7) 0.73193(5) 0.71758(7)
O2 O 0.81277(6) 0.72917(6) 0.62240(7)
O3 O 0.85497(6) 0.64295(7) 0.72107(8)
O4 O 0.85623(6) 0.63901(7) 0.62552(7)
N2 N 0.83049(6) 0.68323(6) 0.52044(8)
N3 N 0.76950(6) 0.80256(6) 0.27109(7)
N5 N 0.93248(7) 0.75150(9) 0.29524(10)
H9 H 0.935358 0.766647 0.263973
N6 N 0.94917(7) 0.70955(9) 0.36926(10)
N7 N 0.78270(9) 0.59944(7) 0.56758(9)
N8 N 0.69038(7) 0.26645(6) 0.56871(8)
N9 N 0.74447(10) 0.43127(8) 0.54842(12)
H10 H 0.734152 0.433994 0.582748
N10 N 0.77766(8) 0.44906(7) 0.46520(10)
C3 C 0.82299(7) 0.72230(8) 0.49554(10)
H11 H 0.801116 0.741068 0.511240
C4 C 0.87148(7) 0.63259(7) 0.67191(15)
H12 H 0.899232 0.618040 0.672731
C5 C 0.84606(7) 0.73715(8) 0.44685(12)
H13 H 0.839647 0.764920 0.430230
C6 C 0.87936(8) 0.70865(9) 0.42379(10)
C7 C 0.88737(8) 0.66747(10) 0.45049(11)
H14 H 0.908652 0.647580 0.435754
C8 C 0.86335(8) 0.65670(9) 0.49888(12)
H15 H 0.870002 0.629878 0.517721
C9 C 0.90551(8) 0.72076(9) 0.37047(12)
C10 C 0.89304(8) 0.74579(9) 0.32623(11)
C11 C 0.77097(7) 0.76291(7) 0.29981(10)
H16 H 0.744053 0.748166 0.307885
C12 C 0.81011(8) 0.74394(9) 0.31720(12)
H17 H 0.810209 0.716959 0.337521
C13 C 0.84996(8) 0.76574(8) 0.30395(11)
C14 C 0.84944(8) 0.80304(8) 0.27267(11)
H18 H 0.876232 0.817115 0.262277
C15 C 0.80783(7) 0.82093(8) 0.25548(12)
H19 H 0.807380 0.846503 0.232394
C16 C 0.96539(10) 0.72921(10) 0.32271(14)
C22 C 0.77978(10) 0.58875(8) 0.51191(12)
H24 H 0.781601 0.611559 0.484616
C23 C 0.77385(10) 0.54266(8) 0.49294(12)
H25 H 0.773067 0.535721 0.454014
C24 C 0.76936(12) 0.50907(9) 0.53388(13)
C25 C 0.76896(11) 0.52137(8) 0.59062(13)
H26 H 0.763960 0.499812 0.618897
C26 C 0.77619(11) 0.56715(8) 0.60618(14)
H27 H 0.776363 0.574770 0.644916
C27 C 0.76334(12) 0.46510(9) 0.51554(13)
C28 C 0.76753(10) 0.40383(8) 0.46522(12)
C29 C 0.77941(6) 0.39419(3) 0.36072(6)
H28 H 0.768186 0.423179 0.355636
C30 C 0.78163(6) 0.37564(4) 0.41546(5)
C31 C 0.79840(6) 0.33231(4) 0.42306(4)
H29 H 0.799887 0.319907 0.459681
C32 C 0.81295(5) 0.30753(3) 0.37593(5)
H30 H 0.824169 0.278538 0.381019
N12 N 0.81073(5) 0.32607(4) 0.32120(5)
C33 C 0.79396(5) 0.36940(4) 0.31359(5)
H31 H 0.792469 0.381809 0.276972
C34 C 0.74520(11) 0.39133(9) 0.51532(13)
C35 C 0.68884(7) 0.28004(7) 0.51422(10)
H32 H 0.675564 0.261055 0.487318
C36 C 0.70575(8) 0.32046(7) 0.49568(12)
H33 H 0.703178 0.328470 0.457212
C37 C 0.72663(11) 0.34942(8) 0.53390(11)
C38 C 0.72485(11) 0.33645(9) 0.59150(12)
H34 H 0.735201 0.355884 0.619921
C39 C 0.70732(9) 0.29376(8) 0.60659(13)
H35 H 0.707930 0.284944 0.644904
C40 C 0.82017(6) 0.74698(5) 0.66962(10)
C41 C 0.88272(11) 0.85206(9) 0.71541(14)
H36 H 0.891495 0.865521 0.749690
C42 C 0.85402(11) 0.81447(10) 0.71777(13)
H37 H 0.840830 0.805630 0.752205
C43 C 0.84598(7) 0.79128(6) 0.66832(13)
C44 C 0.86252(11) 0.80834(10) 0.61592(14)
H38 H 0.856335 0.793330 0.581757
C45 C 0.88788(12) 0.84732(11) 0.61530(15)
H39 H 0.898139 0.858697 0.580459
C46 C 0.89825(6) 0.86963(6) 0.66537(14)
C47 C 0.92872(7) 0.90961(7) 0.66672(16)
C48 C 0.97473(8) 0.90165(7) 0.66317(13)
C49 C 0.99399(8) 0.85803(8) 0.6660(2)
H40 H 0.978693 0.830735 0.668246
N14 N 0.93457(6) 0.99187(5) 0.66395(12)
C74 C 0.86418(8) 0.96045(9) 0.6647(2)
H53 H 0.841517 0.938801 0.663979
C75 C 0.90976(7) 0.95218(7) 0.66480(16)
F9 F 0.34941(3) 0.76503(3) 0.67151(5)
O13 O 0.35705(7) 0.85497(6) 0.72107(8)
O14 O 0.36099(7) 0.85623(6) 0.62552(7)
N26 N 0.31677(6) 0.83049(6) 0.52044(8)
N27 N 0.19744(6) 0.76950(6) 0.27109(7)
N29 N 0.24850(9) 0.93248(7) 0.29524(10)
H87 H 0.233353 0.935358 0.263973
N30 N 0.29045(9) 0.94917(7) 0.36926(10)
N31 N 0.40056(7) 0.78270(9) 0.56758(9)
N32 N 0.73355(6) 0.69038(7) 0.56871(8)
N33 N 0.56873(8) 0.74447(10) 0.54842(12)
H88 H 0.566006 0.734152 0.582748
N34 N 0.55094(7) 0.77766(8) 0.46520(10)
C125 C 0.27770(8) 0.82299(7) 0.49554(10)
H89 H 0.258932 0.801116 0.511240
C126 C 0.36741(7) 0.87148(7) 0.67191(15)
H90 H 0.381960 0.899232 0.672731
C127 C 0.26285(8) 0.84606(7) 0.44685(12)
H91 H 0.235080 0.839647 0.430230
C128 C 0.29135(9) 0.87936(8) 0.42379(10)
C129 C 0.33253(10) 0.88737(8) 0.45049(11)
H92 H 0.352420 0.908652 0.435754
C130 C 0.34330(9) 0.86335(8) 0.49888(12)
H93 H 0.370122 0.870002 0.517721
C131 C 0.27924(9) 0.90551(8) 0.37047(12)
C132 C 0.25421(9) 0.89304(8) 0.32623(11)
C133 C 0.23709(7) 0.77097(7) 0.29981(10)
H94 H 0.251834 0.744053 0.307885
C134 C 0.25606(9) 0.81011(8) 0.31720(12)
H95 H 0.283041 0.810209 0.337521
C135 C 0.23426(8) 0.84996(8) 0.30395(11)
C136 C 0.19696(8) 0.84944(8) 0.27267(11)
H96 H 0.182885 0.876232 0.262277
C137 C 0.17907(8) 0.80783(7) 0.25548(12)
H97 H 0.153497 0.807380 0.232394
C138 C 0.27079(10) 0.96539(10) 0.32271(14)
C144 C 0.41125(8) 0.77978(10) 0.51191(12)
H102 H 0.388441 0.781601 0.484616
C145 C 0.45734(8) 0.77385(10) 0.49294(12)
H103 H 0.464279 0.773067 0.454014
C146 C 0.49093(9) 0.76936(12) 0.53388(13)
C147 C 0.47863(8) 0.76896(11) 0.59062(13)
H104 H 0.500188 0.763960 0.618897
C148 C 0.43285(8) 0.77619(11) 0.60618(14)
H105 H 0.425230 0.776363 0.644916
C149 C 0.53490(9) 0.76334(12) 0.51554(13)
C150 C 0.59617(8) 0.76753(10) 0.46522(12)
C151 C 0.60581(3) 0.77941(6) 0.36072(6)
H106 H 0.576821 0.768186 0.355636
C152 C 0.62436(4) 0.78163(6) 0.41546(5)
C153 C 0.66769(4) 0.79840(6) 0.42306(4)
H107 H 0.680093 0.799887 0.459681
C154 C 0.69247(3) 0.81295(5) 0.37593(5)
H108 H 0.721462 0.824169 0.381019
N35 N 0.67393(4) 0.81073(5) 0.32120(5)
C155 C 0.63060(4) 0.79396(5) 0.31359(5)
H109 H 0.618191 0.792469 0.276972
C156 C 0.60867(9) 0.74520(11) 0.51532(13)
C157 C 0.71996(7) 0.68884(7) 0.51422(10)
H110 H 0.738945 0.675564 0.487318
C158 C 0.67954(7) 0.70575(8) 0.49568(12)
H111 H 0.671530 0.703178 0.457212
C159 C 0.65058(8) 0.72663(11) 0.53390(11)
C160 C 0.66355(9) 0.72485(11) 0.59150(12)
H112 H 0.644116 0.735201 0.619921
C161 C 0.70624(8) 0.70732(9) 0.60659(13)
H113 H 0.715056 0.707930 0.644904
F10 F 0.65059(3) 0.23497(3) 0.67151(5)
O15 O 0.64295(7) 0.14503(6) 0.72107(8)
O16 O 0.63901(7) 0.14377(6) 0.62552(7)
N36 N 0.68323(6) 0.16951(6) 0.52044(8)
N37 N 0.80256(6) 0.23050(6) 0.27109(7)
N39 N 0.75150(9) 0.06752(7) 0.29524(10)
H114 H 0.766647 0.064642 0.263973
N40 N 0.70955(9) 0.05083(7) 0.36926(10)
N41 N 0.59944(7) 0.21730(9) 0.56758(9)
N43 N 0.43127(8) 0.25553(10) 0.54842(12)
H115 H 0.433994 0.265848 0.582748
N44 N 0.44906(7) 0.22234(8) 0.46520(10)
C162 C 0.72230(8) 0.17701(7) 0.49554(10)
H116 H 0.741068 0.198884 0.511240
C163 C 0.63259(7) 0.12852(7) 0.67191(15)
H117 H 0.618040 0.100768 0.672731
C164 C 0.73715(8) 0.15394(7) 0.44685(12)
H118 H 0.764920 0.160353 0.430230
C165 C 0.70865(9) 0.12064(8) 0.42379(10)
C166 C 0.66747(10) 0.11263(8) 0.45049(11)
H119 H 0.647580 0.091348 0.435754
C167 C 0.65670(9) 0.13665(8) 0.49888(12)
H120 H 0.629878 0.129998 0.517721
C168 C 0.72076(9) 0.09449(8) 0.37047(12)
C169 C 0.74579(9) 0.10696(8) 0.32623(11)
C170 C 0.76291(7) 0.22903(7) 0.29981(10)
H121 H 0.748166 0.255947 0.307885
C171 C 0.74394(9) 0.18989(8) 0.31720(12)
H122 H 0.716959 0.189791 0.337521
C172 C 0.76574(8) 0.15004(8) 0.30395(11)
C173 C 0.80304(8) 0.15056(8) 0.27267(11)
H123 H 0.817115 0.123768 0.262277
C174 C 0.82093(8) 0.19217(7) 0.25548(12)
H124 H 0.846503 0.192620 0.232394
C175 C 0.72921(10) 0.03461(10) 0.32271(14)
C181 C 0.58875(8) 0.22022(10) 0.51191(12)
H129 H 0.611559 0.218399 0.484616
C182 C 0.54266(8) 0.22615(10) 0.49294(12)
H130 H 0.535721 0.226933 0.454014
C183 C 0.50907(9) 0.23064(12) 0.53388(13)
C184 C 0.52137(8) 0.23104(11) 0.59062(13)
H131 H 0.499812 0.236040 0.618897
C185 C 0.56715(8) 0.22381(11) 0.60618(14)
H132 H 0.574770 0.223637 0.644916
C186 C 0.46510(9) 0.23666(12) 0.51554(13)
C187 C 0.40383(8) 0.23247(10) 0.46522(12)
C188 C 0.39419(3) 0.22059(6) 0.36072(6)
H133 H 0.423179 0.231814 0.355636
C189 C 0.37564(4) 0.21837(6) 0.41546(5)
C190 C 0.33231(4) 0.20160(6) 0.42306(4)
H134 H 0.319907 0.200113 0.459681
C191 C 0.30753(3) 0.18705(5) 0.37593(5)
H135 H 0.278538 0.175831 0.381019
N45 N 0.32607(4) 0.18927(5) 0.32120(5)
C192 C 0.36940(4) 0.20604(5) 0.31359(5)
H136 H 0.381809 0.207531 0.276972
C193 C 0.39133(9) 0.25480(11) 0.51532(13)
C194 C 0.28004(7) 0.31116(7) 0.51422(10)
H137 H 0.261055 0.324436 0.487318
C195 C 0.32046(7) 0.29425(8) 0.49568(12)
H138 H 0.328470 0.296822 0.457212
C196 C 0.34942(8) 0.27337(11) 0.53390(11)
C197 C 0.33645(9) 0.27515(11) 0.59150(12)
H139 H 0.355884 0.264799 0.619921
C198 C 0.29376(8) 0.29268(9) 0.60659(13)
H140 H 0.284944 0.292070 0.644904
Ni16 Ni 0.70671(2) 0.83061(2) 0.24899(2)
N47 N 0.73050(6) 0.69744(6) 0.77109(7)
N48 N 0.69744(6) 0.26950(6) 0.77109(7)
N49 N 0.30256(6) 0.73050(6) 0.77109(7)
N50 N 0.60339(6) 0.21989(6) 0.77669(8)
N51 N 0.39661(6) 0.78011(6) 0.77669(8)
N52 N 0.78011(6) 0.60339(6) 0.77669(8)
N56 N 0.31073(5) 0.82607(4) 0.82120(5)
N57 N 0.68927(5) 0.17393(4) 0.82120(5)
N59 N 0.82607(4) 0.68927(5) 0.82120(5)
N38 N 0.71989(6) 0.89661(6) 0.27669(8)
C176 C 0.75075(7) 0.92279(7) 0.25296(11)
H125 H 0.770537 0.910249 0.226428
C177 C 0.75482(7) 0.96821(7) 0.26604(10)
H126 H 0.776147 0.985899 0.247388
C178 C 0.72780(9) 0.98628(8) 0.30568(11)
C179 C 0.69412(13) 0.95804(10) 0.33060(17)
H127 H 0.673812 0.969866 0.357021
C180 C 0.69188(11) 0.91532(8) 0.31612(14)
H128 H 0.670271 0.897202 0.333551
N22_2 N 0.80962(7) 0.23355(6) 0.06871(8)
N23_2 N 0.75553(10) 0.06873(8) 0.04842(12)
H61_2 H 0.765848 0.066006 0.082748
H77_2 H 0.736040 0.000188 0.118897
C112_2 C 0.73666(12) 0.03490(9) 0.01554(13)
C119_2 C 0.75480(11) 0.10867(9) 0.01532(13)
C120_2 C 0.81116(7) 0.21996(7) 0.01422(10)
C122_2 C 0.77337(11) 0.15058(8) 0.03390(11)
C123_2 C 0.77515(11) 0.16355(9) 0.09150(12)
H85_2 H 0.764799 0.144116 0.119921
C124_2 C 0.79268(9) 0.20624(8) 0.10659(13)
H86_2 H 0.792070 0.215056 0.144904
Ni24_2 Ni 0.83460(2) 0.29592(2) 0.10136(2)
N24_2 N 0.72234(8) 0.05094(7) 0.96520(10)
C113_2 C 0.73247(10) 0.09617(8) 0.96522(12)
C114_2 C 0.72059(6) 0.10581(3) 0.86072(6)
H79_2 H 0.731814 0.076821 0.855636
C115_2 C 0.71837(6) 0.12436(4) 0.91546(5)
C116_2 C 0.70160(6) 0.16769(4) 0.92306(4)
H80_2 H 0.700113 0.180093 0.959681
C117_2 C 0.68705(5) 0.19247(3) 0.87593(5)
H81_2 H 0.675831 0.221462 0.881019
C118_2 C 0.70604(5) 0.13060(4) 0.81359(5)
H82_2 H 0.707531 0.118191 0.776972
H83_2 H 0.824436 0.238945 0.987318
C121_2 C 0.79425(8) 0.17954(7) 0.99568(12)
H84_2 H 0.796822 0.171530 0.957212
Ni2_2 Ni 0.29592(2) 0.16540(2) 0.10136(2)
Ni3_5 Ni 0.500000 0.500000 0.16967(5)
F7_2 F 0.26503(3) 0.15059(3) 0.17151(5)
O1_2 O 0.31043(7) 0.23193(5) 0.21758(7)
O2_2 O 0.31277(6) 0.22917(6) 0.12240(7)
O3_2 O 0.35497(6) 0.14295(7) 0.22107(8)
O4_2 O 0.35623(6) 0.13901(7) 0.12552(7)
N2_2 N 0.33049(6) 0.18323(6) 0.02044(8)
N7_2 N 0.28270(9) 0.09944(7) 0.06758(9)
N11_2 N 0.50813(5) 0.43457(6) 0.16395(12)
H11_2 H 0.301116 0.241068 0.011240
C4_2 C 0.37148(7) 0.13259(7) 0.17191(15)
H12_2 H 0.399232 0.118040 0.172731
H15_2 H 0.370002 0.129878 0.017721
C22_2 C 0.27978(10) 0.08875(8) 0.01191(12)
C24_2 C 0.26936(12) 0.00907(9) 0.03388(13)
C25_2 C 0.26896(11) 0.02137(8) 0.09062(13)
C26_2 C 0.27619(11) 0.06715(8) 0.10618(14)
H27_2 H 0.276363 0.074770 0.144916
C40_2 C 0.32017(6) 0.24698(5) 0.16962(10)
C41_2 C 0.38272(11) 0.35206(9) 0.21541(14)
H36_2 H 0.391495 0.365521 0.249690
C42_2 C 0.35402(11) 0.31447(10) 0.21777(13)
H37_2 H 0.340830 0.305630 0.252205
C43_2 C 0.34598(7) 0.29128(6) 0.16832(13)
C44_2 C 0.36252(11) 0.30834(10) 0.11592(14)
H38_2 H 0.356335 0.293330 0.081757
C45_2 C 0.38788(12) 0.34732(11) 0.11530(15)
H39_2 H 0.398139 0.358697 0.080459
C46_2 C 0.39825(6) 0.36963(6) 0.16537(14)
C47_2 C 0.42872(7) 0.40961(7) 0.16672(16)
C48_2 C 0.47473(8) 0.40165(7) 0.16317(13)
C49_2 C 0.49399(8) 0.35803(8) 0.1660(2)
H40_2 H 0.478693 0.330735 0.168246
C50_2 C 0.53955(9) 0.36418(8) 0.1647(2)
H41_2 H 0.561199 0.341517 0.163979
C51_2 C 0.54782(7) 0.40976(7) 0.16480(16)
O5_2 O 0.76807(5) 0.31043(7) 0.21758(7)
O6_2 O 0.77083(6) 0.31277(6) 0.12240(7)
N13_2 N 0.56543(6) 0.50813(5) 0.16395(12)
C52_2 C 0.75302(5) 0.32017(6) 0.16962(10)
C53_2 C 0.64794(9) 0.38272(11) 0.21541(14)
H42_2 H 0.634479 0.391495 0.249690
C54_2 C 0.68553(10) 0.35402(11) 0.21777(13)
H43_2 H 0.694370 0.340830 0.252205
C55_2 C 0.70872(6) 0.34598(7) 0.16832(13)
C56_2 C 0.69166(10) 0.36252(11) 0.11592(14)
H44_2 H 0.706670 0.356335 0.081757
C57_2 C 0.65268(11) 0.38788(12) 0.11530(15)
H45_2 H 0.641303 0.398139 0.080459
C58_2 C 0.63037(6) 0.39825(6) 0.16537(14)
C59_2 C 0.59039(7) 0.42872(7) 0.16672(16)
C60_2 C 0.59835(7) 0.47473(8) 0.16317(13)
C61_2 C 0.64197(8) 0.49399(8) 0.1660(2)
H46_2 H 0.669265 0.478693 0.168246
C62_2 C 0.63582(8) 0.53955(9) 0.1647(2)
H47_2 H 0.658483 0.561199 0.163979
C63_2 C 0.59024(7) 0.54782(7) 0.16480(16)
O7_2 O 0.23193(5) 0.68957(7) 0.21758(7)
O8_2 O 0.22917(6) 0.68723(6) 0.12240(7)
N14_2 N 0.43457(6) 0.49187(5) 0.16395(12)
C64_2 C 0.24698(5) 0.67983(6) 0.16962(10)
C65_2 C 0.35206(9) 0.61728(11) 0.21541(14)
H48_2 H 0.365521 0.608505 0.249690
C66_2 C 0.31447(10) 0.64598(11) 0.21777(13)
H49_2 H 0.305630 0.659170 0.252205
C67_2 C 0.29128(6) 0.65402(7) 0.16832(13)
C68_2 C 0.30834(10) 0.63748(11) 0.11592(14)
H50_2 H 0.293330 0.643665 0.081757
C69_2 C 0.34732(11) 0.61212(12) 0.11530(15)
H51_2 H 0.358697 0.601861 0.080459
C70_2 C 0.36963(6) 0.60175(6) 0.16537(14)
C71_2 C 0.40961(7) 0.57128(7) 0.16672(16)
C72_2 C 0.40165(7) 0.52527(8) 0.16317(13)
C73_2 C 0.35803(8) 0.50601(8) 0.1660(2)
H52_2 H 0.330735 0.521307 0.168246
C74_2 C 0.36418(8) 0.46045(9) 0.1647(2)
H53_2 H 0.341517 0.438801 0.163979
C75_2 C 0.40976(7) 0.45218(7) 0.16480(16)
O9_2 O 0.68957(7) 0.76807(5) 0.21758(7)
O10_2 O 0.68723(6) 0.77083(6) 0.12240(7)
N15_2 N 0.49187(5) 0.56543(6) 0.16395(12)
C76_2 C 0.67983(6) 0.75302(5) 0.16962(10)
C77_2 C 0.61728(11) 0.64794(9) 0.21541(14)
H54_2 H 0.608505 0.634479 0.249690
C78_2 C 0.64598(11) 0.68553(10) 0.21777(13)
H55_2 H 0.659170 0.694370 0.252205
C79_2 C 0.65402(7) 0.70872(6) 0.16832(13)
C80_2 C 0.63748(11) 0.69166(10) 0.11592(14)
H56_2 H 0.643665 0.706670 0.081757
C81_2 C 0.61212(12) 0.65268(11) 0.11530(15)
H57_2 H 0.601861 0.641303 0.080459
C82_2 C 0.60175(6) 0.63037(6) 0.16537(14)
C83_2 C 0.57128(7) 0.59039(7) 0.16672(16)
C84_2 C 0.52527(8) 0.59835(7) 0.16317(13)
C85_2 C 0.50601(8) 0.64197(8) 0.1660(2)
H58_2 H 0.521307 0.669265 0.168246
C86_2 C 0.46045(9) 0.63582(8) 0.1647(2)
H59_2 H 0.438801 0.658483 0.163979
C87_2 C 0.45218(7) 0.59024(7) 0.16480(16)
Ni5_2 Ni 0.70408(2) 0.83460(2) 0.10136(2)
F8_2 F 0.73497(3) 0.84941(3) 0.17151(5)
O11_2 O 0.64503(6) 0.85705(7) 0.22107(8)
O12_2 O 0.64377(6) 0.86099(7) 0.12552(7)
N16_2 N 0.66951(6) 0.81677(6) 0.02044(8)
N21_2 N 0.71730(9) 0.90056(7) 0.06758(9)
H62_2 H 0.698884 0.758932 0.011240
C89_2 C 0.62852(7) 0.86741(7) 0.17191(15)
H63_2 H 0.600768 0.881960 0.172731
H66_2 H 0.629998 0.870122 0.017721
C107_2 C 0.72022(10) 0.91125(8) 0.01191(12)
C109_2 C 0.73064(12) 0.99093(9) 0.03388(13)
C110_2 C 0.73104(11) 0.97863(8) 0.09062(13)
C111_2 C 0.72381(11) 0.93285(8) 0.10618(14)
H78_2 H 0.723637 0.925230 0.144916
N32_2 N 0.23355(6) 0.19038(7) 0.06871(8)
N33_2 N 0.06873(8) 0.24447(10) 0.04842(12)
H88_2 H 0.066006 0.234152 0.082748
H104_2 H 0.000188 0.263960 0.118897
C149_2 C 0.03490(9) 0.26334(12) 0.01554(13)
C156_2 C 0.10867(9) 0.24520(11) 0.01532(13)
C157_2 C 0.21996(7) 0.18884(7) 0.01422(10)
C159_2 C 0.15058(8) 0.22663(11) 0.03390(11)
C160_2 C 0.16355(9) 0.22485(11) 0.09150(12)
H112_2 H 0.144116 0.235201 0.119921
C161_2 C 0.20624(8) 0.20732(9) 0.10659(13)
H113_2 H 0.215056 0.207930 0.144904
Ni25_2 Ni 0.16540(2) 0.70408(2) 0.10136(2)
N55_2 N 0.76645(6) 0.80962(7) 0.06871(8)
N5_2 N 0.43248(7) 0.25150(9) 0.79524(10)
H9_2 H 0.435358 0.266647 0.763973
N6_2 N 0.44917(7) 0.20955(9) 0.86926(10)
C3_2 C 0.32299(7) 0.22230(8) 0.99554(10)
C5_2 C 0.34606(7) 0.23715(8) 0.94685(12)
H13_2 H 0.339647 0.264920 0.930230
C6_2 C 0.37936(8) 0.20865(9) 0.92379(10)
C7_2 C 0.38737(8) 0.16747(10) 0.95049(11)
H14_2 H 0.408652 0.147580 0.935754
C8_2 C 0.36335(8) 0.15670(9) 0.99888(12)
C9_2 C 0.40551(8) 0.22076(9) 0.87047(12)
C10_2 C 0.39304(8) 0.24579(9) 0.82623(11)
C11_2 C 0.27097(7) 0.26291(7) 0.79981(10)
H16_2 H 0.244053 0.248166 0.807885
C12_2 C 0.31011(8) 0.24394(9) 0.81720(12)
H17_2 H 0.310209 0.216959 0.837521
C13_2 C 0.34996(8) 0.26574(8) 0.80395(11)
C14_2 C 0.34944(8) 0.30304(8) 0.77267(11)
H18_2 H 0.376232 0.317115 0.762277
C15_2 C 0.30783(7) 0.32093(8) 0.75548(12)
H19_2 H 0.307380 0.346503 0.732394
C16_2 C 0.46539(10) 0.22921(10) 0.82271(14)
C17_2 C 0.57721(7) 0.25075(7) 0.75296(11)
H20_2 H 0.589751 0.270537 0.726428
C18_2 C 0.53179(7) 0.25482(7) 0.76604(10)
H21_2 H 0.514101 0.276147 0.747388
C19_2 C 0.51372(8) 0.22780(9) 0.80568(11)
C20_2 C 0.54196(10) 0.19412(13) 0.83060(17)
H22_2 H 0.530134 0.173812 0.857021
C21_2 C 0.58468(8) 0.19188(11) 0.81612(14)
H23_2 H 0.602798 0.170271 0.833551
H24_2 H 0.281601 0.111559 0.984616
C23_2 C 0.27385(10) 0.04266(8) 0.99294(12)
H25_2 H 0.273067 0.035721 0.954014
N19_2 N 0.56752(7) 0.74850(9) 0.79524(10)
H60_2 H 0.564642 0.733353 0.763973
N20_2 N 0.55083(7) 0.79045(9) 0.86926(10)
C88_2 C 0.67701(7) 0.77770(8) 0.99554(10)
C90_2 C 0.65394(7) 0.76285(8) 0.94685(12)
H64_2 H 0.660353 0.735080 0.930230
C91_2 C 0.62064(8) 0.79135(9) 0.92379(10)
C92_2 C 0.61263(8) 0.83253(10) 0.95049(11)
H65_2 H 0.591348 0.852420 0.935754
C93_2 C 0.63665(8) 0.84330(9) 0.99888(12)
C94_2 C 0.59449(8) 0.77924(9) 0.87047(12)
C95_2 C 0.60696(8) 0.75421(9) 0.82623(11)
C96_2 C 0.72903(7) 0.73709(7) 0.79981(10)
H67_2 H 0.755947 0.751834 0.807885
C97_2 C 0.68989(8) 0.75606(9) 0.81720(12)
H68_2 H 0.689791 0.783041 0.837521
C98_2 C 0.65004(8) 0.73426(8) 0.80395(11)
C99_2 C 0.65056(8) 0.69696(8) 0.77267(11)
H69_2 H 0.623768 0.682885 0.762277
C100_2 C 0.69217(7) 0.67907(8) 0.75548(12)
H70_2 H 0.692620 0.653497 0.732394
C101_2 C 0.53461(10) 0.77079(10) 0.82271(14)
C102_2 C 0.42279(7) 0.74925(7) 0.75296(11)
H71_2 H 0.410249 0.729463 0.726428
C103_2 C 0.46821(7) 0.74518(7) 0.76604(10)
H72_2 H 0.485899 0.723853 0.747388
C104_2 C 0.48628(8) 0.77220(9) 0.80568(11)
C105_2 C 0.45804(10) 0.80588(13) 0.83060(17)
H73_2 H 0.469866 0.826188 0.857021
C106_2 C 0.41532(8) 0.80812(11) 0.81612(14)
H74_2 H 0.397202 0.829729 0.833551
H75_2 H 0.718399 0.888441 0.984616
C108_2 C 0.72615(10) 0.95734(8) 0.99294(12)
H76_2 H 0.726933 0.964279 0.954014
N34_2 N 0.05094(7) 0.27766(8) 0.96520(10)
C150_2 C 0.09617(8) 0.26753(10) 0.96522(12)
C151_2 C 0.10581(3) 0.27941(6) 0.86072(6)
H106_2 H 0.076821 0.268186 0.855636
C152_2 C 0.12436(4) 0.28163(6) 0.91546(5)
C153_2 C 0.16769(4) 0.29840(6) 0.92306(4)
H107_2 H 0.180093 0.299887 0.959681
C154_2 C 0.19247(3) 0.31295(5) 0.87593(5)
H108_2 H 0.221462 0.324169 0.881019
C155_2 C 0.13060(4) 0.29396(5) 0.81359(5)
H109_2 H 0.118191 0.292469 0.776972
H110_2 H 0.238945 0.175564 0.987318
C158_2 C 0.17954(7) 0.20575(8) 0.99568(12)
H111_2 H 0.171530 0.203178 0.957212
N8_2 N 0.19038(7) 0.76645(6) 0.06871(8)
N9_2 N 0.24447(10) 0.93127(8) 0.04842(12)
H10_2 H 0.234152 0.933994 0.082748
H26_2 H 0.263960 0.999812 0.118897
C27_2 C 0.26334(12) 0.96510(9) 0.01554(13)
C34_2 C 0.24520(11) 0.89133(9) 0.01532(13)
C35_2 C 0.18884(7) 0.78004(7) 0.01422(10)
C37_2 C 0.22663(11) 0.84942(8) 0.03390(11)
C38_2 C 0.22485(11) 0.83645(9) 0.09150(12)
H34_2 H 0.235201 0.855884 0.119921
C39_2 C 0.20732(9) 0.79376(8) 0.10659(13)
H35_2 H 0.207930 0.784944 0.144904
F10_2 F 0.15059(3) 0.73497(3) 0.17151(5)
O15_2 O 0.14295(7) 0.64503(6) 0.22107(8)
O16_2 O 0.13901(7) 0.64377(6) 0.12552(7)
N36_2 N 0.18323(6) 0.66951(6) 0.02044(8)
N41_2 N 0.09944(7) 0.71730(9) 0.06758(9)
H116_2 H 0.241068 0.698884 0.011240
C163_2 C 0.13259(7) 0.62852(7) 0.17191(15)
H117_2 H 0.118040 0.600768 0.172731
H120_2 H 0.129878 0.629998 0.017721
C181_2 C 0.08875(8) 0.72022(10) 0.01191(12)
C183_2 C 0.00907(9) 0.73064(12) 0.03388(13)
C184_2 C 0.02137(8) 0.73104(11) 0.09062(13)
C185_2 C 0.06715(8) 0.72381(11) 0.10618(14)
H132_2 H 0.074770 0.723637 0.144916
N10_2 N 0.27766(8) 0.94906(7) 0.96520(10)
C28_2 C 0.26753(10) 0.90383(8) 0.96522(12)
C29_2 C 0.27941(6) 0.89419(3) 0.86072(6)
H28_2 H 0.268186 0.923179 0.855636
C30_2 C 0.28163(6) 0.87564(4) 0.91546(5)
C31_2 C 0.29840(6) 0.83231(4) 0.92306(4)
H29_2 H 0.299887 0.819907 0.959681
C32_2 C 0.31295(5) 0.80753(3) 0.87593(5)
H30_2 H 0.324169 0.778538 0.881019
C33_2 C 0.29396(5) 0.86940(4) 0.81359(5)
H31_2 H 0.292469 0.881809 0.776972
H32_2 H 0.175564 0.761055 0.987318
C36_2 C 0.20575(8) 0.82046(7) 0.99568(12)
H33_2 H 0.203178 0.828470 0.957212
N39_2 N 0.25150(9) 0.56752(7) 0.79524(10)
H114_2 H 0.266647 0.564642 0.763973
N40_2 N 0.20955(9) 0.55083(7) 0.86926(10)
C162_2 C 0.22230(8) 0.67701(7) 0.99554(10)
C164_2 C 0.23715(8) 0.65394(7) 0.94685(12)
H118_2 H 0.264920 0.660353 0.930230
C165_2 C 0.20865(9) 0.62064(8) 0.92379(10)
C166_2 C 0.16747(10) 0.61263(8) 0.95049(11)
H119_2 H 0.147580 0.591348 0.935754
C167_2 C 0.15670(9) 0.63665(8) 0.99888(12)
C168_2 C 0.22076(9) 0.59449(8) 0.87047(12)
C169_2 C 0.24579(9) 0.60696(8) 0.82623(11)
C170_2 C 0.26291(7) 0.72903(7) 0.79981(10)
H121_2 H 0.248166 0.755947 0.807885
C171_2 C 0.24394(9) 0.68989(8) 0.81720(12)
H122_2 H 0.216959 0.689791 0.837521
C172_2 C 0.26574(8) 0.65004(8) 0.80395(11)
C173_2 C 0.30304(8) 0.65056(8) 0.77267(11)
H123_2 H 0.317115 0.623768 0.762277
C174_2 C 0.32093(8) 0.69217(7) 0.75548(12)
H124_2 H 0.346503 0.692620 0.732394
C175_2 C 0.22921(10) 0.53461(10) 0.82271(14)
C176_2 C 0.25075(7) 0.42279(7) 0.75296(11)
H125_2 H 0.270537 0.410249 0.726428
C177_2 C 0.25482(7) 0.46821(7) 0.76604(10)
H126_2 H 0.276147 0.485899 0.747388
C178_2 C 0.22780(9) 0.48628(8) 0.80568(11)
C179_2 C 0.19412(13) 0.45804(10) 0.83060(17)
H127_2 H 0.173812 0.469866 0.857021
C180_2 C 0.19188(11) 0.41532(8) 0.81612(14)
H128_2 H 0.170271 0.397202 0.833551
H129_2 H 0.111559 0.718399 0.984616
C182_2 C 0.04266(8) 0.72615(10) 0.99294(12)
H130_2 H 0.035721 0.726933 0.954014
F9_2 F 0.84941(3) 0.26503(3) 0.17151(5)
O13_2 O 0.85705(7) 0.35497(6) 0.22107(8)
O14_2 O 0.86099(7) 0.35623(6) 0.12552(7)
N26_2 N 0.81677(6) 0.33049(6) 0.02044(8)
N31_2 N 0.90056(7) 0.28270(9) 0.06758(9)
H89_2 H 0.758932 0.301116 0.011240
C126_2 C 0.86741(7) 0.37148(7) 0.17191(15)
H90_2 H 0.881960 0.399232 0.172731
H93_2 H 0.870122 0.370002 0.017721
C144_2 C 0.91125(8) 0.27978(10) 0.01191(12)
C146_2 C 0.99093(9) 0.26936(12) 0.03388(13)
C147_2 C 0.97863(8) 0.26896(11) 0.09062(13)
C148_2 C 0.93285(8) 0.27619(11) 0.10618(14)
H105_2 H 0.925230 0.276363 0.144916
N29_2 N 0.74850(9) 0.43248(7) 0.79524(10)
H87_2 H 0.733353 0.435358 0.763973
N30_2 N 0.79045(9) 0.44917(7) 0.86926(10)
C125_2 C 0.77770(8) 0.32299(7) 0.99554(10)
C127_2 C 0.76285(8) 0.34606(7) 0.94685(12)
H91_2 H 0.735080 0.339647 0.930230
C128_2 C 0.79135(9) 0.37936(8) 0.92379(10)
C129_2 C 0.83253(10) 0.38737(8) 0.95049(11)
H92_2 H 0.852420 0.408652 0.935754
C130_2 C 0.84330(9) 0.36335(8) 0.99888(12)
C131_2 C 0.77924(9) 0.40551(8) 0.87047(12)
C132_2 C 0.75421(9) 0.39304(8) 0.82623(11)
C133_2 C 0.73709(7) 0.27097(7) 0.79981(10)
H94_2 H 0.751834 0.244053 0.807885
C134_2 C 0.75606(9) 0.31011(8) 0.81720(12)
H95_2 H 0.783041 0.310209 0.837521
C135_2 C 0.73426(8) 0.34996(8) 0.80395(11)
C136_2 C 0.69696(8) 0.34944(8) 0.77267(11)
H96_2 H 0.682885 0.376232 0.762277
C137_2 C 0.67907(8) 0.30783(7) 0.75548(12)
H97_2 H 0.653497 0.307380 0.732394
C138_2 C 0.77079(10) 0.46539(10) 0.82271(14)
C139_2 C 0.74925(7) 0.57721(7) 0.75296(11)
H98_2 H 0.729463 0.589751 0.726428
C140_2 C 0.74518(7) 0.53179(7) 0.76604(10)
H99_2 H 0.723853 0.514101 0.747388
C141_2 C 0.77220(9) 0.51372(8) 0.80568(11)
C142_2 C 0.80588(13) 0.54196(10) 0.83060(17)
H100_2 H 0.826188 0.530134 0.857021
C143_2 C 0.80812(11) 0.58468(8) 0.81612(14)
H101_2 H 0.829729 0.602798 0.833551
H102_2 H 0.888441 0.281601 0.984616
C145_2 C 0.95734(8) 0.27385(10) 0.99294(12)
H103_2 H 0.964279 0.273067 0.954014
N43_2 N 0.93127(8) 0.75553(10) 0.04842(12)
H115_2 H 0.933994 0.765848 0.082748
H131_2 H 0.999812 0.736040 0.118897
C186_2 C 0.96510(9) 0.73666(12) 0.01554(13)
C193_2 C 0.89133(9) 0.75480(11) 0.01532(13)
C194_2 C 0.78004(7) 0.81116(7) 0.01422(10)
C196_2 C 0.84942(8) 0.77337(11) 0.03390(11)
C197_2 C 0.83645(9) 0.77515(11) 0.09150(12)
H139_2 H 0.855884 0.764799 0.119921
C198_2 C 0.79376(8) 0.79268(9) 0.10659(13)
H140_2 H 0.784944 0.792070 0.144904
N44_2 N 0.94906(7) 0.72234(8) 0.96520(10)
C187_2 C 0.90383(8) 0.73247(10) 0.96522(12)
C188_2 C 0.89419(3) 0.72059(6) 0.86072(6)
H133_2 H 0.923179 0.731814 0.855636
C189_2 C 0.87564(4) 0.71837(6) 0.91546(5)
C190_2 C 0.83231(4) 0.70160(6) 0.92306(4)
H134_2 H 0.819907 0.700113 0.959681
C191_2 C 0.80753(3) 0.68705(5) 0.87593(5)
H135_2 H 0.778538 0.675831 0.881019
C192_2 C 0.86940(4) 0.70604(5) 0.81359(5)
H136_2 H 0.881809 0.707531 0.776972
H137_2 H 0.761055 0.824436 0.987318
C195_2 C 0.82046(7) 0.79425(8) 0.99568(12)
H138_2 H 0.828470 0.796822 0.957212
loop_
_geom_bond_atom_site_label_1
_geom_bond_atom_site_label_2
_geom_bond_site_symmetry_1
_geom_bond_site_symmetry_2
Si1 F1 1_555 1_555
F2 Si1 1_555 1_555
F3 Si1 1_555 1_555
F4 Si1 1_555 1_555
F5 Si1 1_555 1_555
F6 Si1 1_555 1_555
Si1_2 F1_2 1_555 1_555
F2_2 Si1_2 1_555 1_555
F3_2 Si1_2 1_555 1_555
F4_2 Si1_2 1_555 1_555
F5_2 Si1_2 1_555 1_555
F6_2 Si1_2 1_555 1_555
Si1_3 F1_3 1_555 1_555
F2_3 Si1_3 1_555 1_555
F3_3 Si1_3 1_555 1_555
F4_3 Si1_3 1_555 1_555
F5_3 Si1_3 1_555 1_555
F6_3 Si1_3 1_555 1_555
Si1_4 F1_4 1_555 1_555
F2_4 Si1_4 1_555 1_555
F3_4 Si1_4 1_555 1_555
F4_4 Si1_4 1_555 1_555
F5_4 Si1_4 1_555 1_555
F6_4 Si1_4 1_555 1_555
Si1_5 F1_5 1_555 1_555
F2_5 Si1_5 1_555 1_555
F4_5 Si1_5 1_555 1_555
F5_5 Si1_5 1_555 1_555
F6_5 Si1_5 1_555 1_555
Si1_6 F1_6 1_555 1_555
F2_6 Si1_6 1_555 1_555
F4_6 Si1_6 1_555 1_555
F5_6 Si1_6 1_555 1_555
F6_6 Si1_6 1_555 1_555
Si1_7 F1_7 1_555 1_555
F2_7 Si1_7 1_555 1_555
F4_7 Si1_7 1_555 1_555
F5_7 Si1_7 1_555 1_555
F6_7 Si1_7 1_555 1_555
Si1_8 F1_8 1_555 1_555
F2_8 Si1_8 1_555 1_555
F4_8 Si1_8 1_555 1_555
F5_8 Si1_8 1_555 1_555
F6_8 Si1_8 1_555 1_555
N1 H1 1_555 1_555
H2 N1 1_555 1_555
C1 N1 1_555 1_555
H3 C1 1_555 1_555
H4 C1 1_555 1_555
H5 C1 1_555 1_555
C2 N1 1_555 1_555
H6 C2 1_555 1_555
H7 C2 1_555 1_555
H8 C2 1_555 1_555
N1_2 H1_2 1_555 1_555
H2_2 N1_2 1_555 1_555
C1_2 N1_2 1_555 1_555
H3_2 C1_2 1_555 1_555
H4_2 C1_2 1_555 1_555
H5_2 C1_2 1_555 1_555
C2_2 N1_2 1_555 1_555
H6_2 C2_2 1_555 1_555
H7_2 C2_2 1_555 1_555
H8_2 C2_2 1_555 1_555
N1_3 H1_3 1_555 1_555
H2_3 N1_3 1_555 1_555
C1_3 N1_3 1_555 1_555
H3_3 C1_3 1_555 1_555
H4_3 C1_3 1_555 1_555
H5_3 C1_3 1_555 1_555
C2_3 N1_3 1_555 1_555
H6_3 C2_3 1_555 1_555
H7_3 C2_3 1_555 1_555
H8_3 C2_3 1_555 1_555
N1_4 H1_4 1_555 1_555
H2_4 N1_4 1_555 1_555
C1_4 N1_4 1_555 1_555
H3_4 C1_4 1_555 1_555
H4_4 C1_4 1_555 1_555
H5_4 C1_4 1_555 1_555
C2_4 N1_4 1_555 1_555
H6_4 C2_4 1_555 1_555
H7_4 C2_4 1_555 1_555
H8_4 C2_4 1_555 1_555
N1_5 H1_5 1_555 1_555
H2_5 N1_5 1_555 1_555
C1_5 N1_5 1_555 1_555
H3_5 C1_5 1_555 1_555
H4_5 C1_5 1_555 1_555
H5_5 C1_5 1_555 1_555
C2_5 N1_5 1_555 1_555
H6_5 C2_5 1_555 1_555
H7_5 C2_5 1_555 1_555
H8_5 C2_5 1_555 1_555
N1_6 H1_6 1_555 1_555
H2_6 N1_6 1_555 1_555
C1_6 N1_6 1_555 1_555
H3_6 C1_6 1_555 1_555
H4_6 C1_6 1_555 1_555
H5_6 C1_6 1_555 1_555
C2_6 N1_6 1_555 1_555
H6_6 C2_6 1_555 1_555
H7_6 C2_6 1_555 1_555
H8_6 C2_6 1_555 1_555
N1_7 H1_7 1_555 1_555
H2_7 N1_7 1_555 1_555
C1_7 N1_7 1_555 1_555
H3_7 C1_7 1_555 1_555
H4_7 C1_7 1_555 1_555
H5_7 C1_7 1_555 1_555
C2_7 N1_7 1_555 1_555
H6_7 C2_7 1_555 1_555
H7_7 C2_7 1_555 1_555
H8_7 C2_7 1_555 1_555
N1_8 H1_8 1_555 1_555
H2_8 N1_8 1_555 1_555
C1_8 N1_8 1_555 1_555
H3_8 C1_8 1_555 1_555
H4_8 C1_8 1_555 1_555
H5_8 C1_8 1_555 1_555
C2_8 N1_8 1_555 1_555
H6_8 C2_8 1_555 1_555
H7_8 C2_8 1_555 1_555
H8_8 C2_8 1_555 1_555
N13 Ni3 1_555 1_555
H47 C62 1_555 1_555
C63 N13 1_555 1_555
O9 C76 1_555 1_555
O10 C76 1_555 1_555
C76 C79 1_555 1_555
C77 H54 1_555 1_555
C78 C77 1_555 1_555
H55 C78 1_555 1_555
C79 C78 1_555 1_555
C80 C79 1_555 1_555
H56 C80 1_555 1_555
C81 C80 1_555 1_555
H57 C81 1_555 1_555
C82 C77 1_555 1_555
C83 C63 1_555 1_555
C85 C84 1_555 1_555
H58 C85 1_555 1_555
Ni4 O9 1_555 1_555
Ni5 O10 1_555 1_555
F8 Ni4 1_555 1_555
O11 Ni4 1_555 1_555
O12 Ni5 1_555 1_555
N16 Ni5 1_555 1_555
N17 C96 1_555 1_555
N19 H60 1_555 1_555
N20 C94 1_555 1_555
N21 Ni5 1_555 1_555
N22 C120 1_555 1_555
N23 H61 1_555 1_555
N24 C112 1_555 1_555
C88 N16 1_555 1_555
H62 C88 1_555 1_555
C89 O11 1_555 1_555
H63 C89 1_555 1_555
C90 C88 1_555 1_555
H64 C90 1_555 1_555
C91 C90 1_555 1_555
C92 C91 1_555 1_555
H65 C92 1_555 1_555
C93 N16 1_555 1_555
H66 C93 1_555 1_555
C94 C91 1_555 1_555
C95 N19 1_555 1_555
C96 H67 1_555 1_555
C97 C96 1_555 1_555
H68 C97 1_555 1_555
C98 C95 1_555 1_555
C99 C98 1_555 1_555
H69 C99 1_555 1_555
C100 N17 1_555 1_555
H70 C100 1_555 1_555
C101 N19 1_555 1_555
C107 N21 1_555 1_555
H75 C107 1_555 1_555
C108 C107 1_555 1_555
H76 C108 1_555 1_555
C109 C108 1_555 1_555
C110 C109 1_555 1_555
H77 C110 1_555 1_555
C111 N21 1_555 1_555
H78 C111 1_555 1_555
C112 N23 1_555 1_555
C113 N24 1_555 1_555
C114 H79 1_555 1_555
C115 C113 1_555 1_555
C116 C115 1_555 1_555
H80 C116 1_555 1_555
C117 C116 1_555 1_555
H81 C117 1_555 1_555
N25 C117 1_555 1_555
C118 C114 1_555 1_555
H82 C118 1_555 1_555
C119 N23 1_555 1_555
C120 H83 1_555 1_555
C121 C120 1_555 1_555
H84 C121 1_555 1_555
C122 C119 1_555 1_555
C123 C122 1_555 1_555
H85 C123 1_555 1_555
C124 N22 1_555 1_555
H86 C124 1_555 1_555
Ni14 N17 1_555 1_555
Ni21 N25 1_555 1_555
Ni24 N22 1_555 1_555
N46 Ni4 1_555 1_555
N53 Ni4 1_555 1_555
N55 Ni5 1_555 1_555
N58 Ni4 1_555 1_555
C62 C63 1_555 1_555
C81 C82 1_555 1_555
C82 C83 1_555 1_555
C83 C84 1_555 1_555
Ni5 F8 1_555 1_555
O12 C89 1_555 1_555
N20 C101 1_555 1_555
C92 C93 1_555 1_555
C94 C95 1_555 1_555
C97 C98 1_555 1_555
C99 C100 1_555 1_555
C109 C112 1_555 1_555
C110 C111 1_555 1_555
C113 C119 1_555 1_555
C114 C115 1_555 1_555
N25 C118 1_555 1_555
C121 C122 1_555 1_555
C123 C124 1_555 1_555
Ni3_2 N11 1_555 1_555
N4 C17 1_555 1_555
C17 H20 1_555 1_555
C18 C17 1_555 1_555
H21 C18 1_555 1_555
C20 C19 1_555 1_555
H22 C20 1_555 1_555
C21 N4 1_555 1_555
H23 C21 1_555 1_555
H41 C50 1_555 1_555
C51 N11 1_555 1_555
O5 C52 1_555 1_555
O6 C52 1_555 1_555
C52 C55 1_555 1_555
C53 H42 1_555 1_555
C54 C53 1_555 1_555
H43 C54 1_555 1_555
C55 C54 1_555 1_555
C56 C55 1_555 1_555
H44 C56 1_555 1_555
C57 C56 1_555 1_555
H45 C57 1_555 1_555
C58 C53 1_555 1_555
C59 C51 1_555 1_555
C61 C60 1_555 1_555
H46 C61 1_555 1_555
Ni10 O5 1_555 1_555
Ni21 N4 1_555 1_555
Ni24 O6 1_555 1_555
C18 C19 1_555 1_555
C20 C21 1_555 1_555
C50 C51 1_555 1_555
C57 C58 1_555 1_555
C58 C59 1_555 1_555
C59 C60 1_555 1_555
O7 C64 1_555 1_555
O8 C64 1_555 1_555
C64 C67 1_555 1_555
C65 H48 1_555 1_555
C66 C65 1_555 1_555
H49 C66 1_555 1_555
C67 C66 1_555 1_555
C68 C67 1_555 1_555
H50 C68 1_555 1_555
C69 C68 1_555 1_555
H51 C69 1_555 1_555
C70 C65 1_555 1_555
C71 C70 1_555 1_555
C73 C72 1_555 1_555
H52 C73 1_555 1_555
N15 Ni3_3 1_555 1_555
H59 C86 1_555 1_555
C87 C71 1_555 1_555
N18 C102 1_555 1_555
C102 H71 1_555 1_555
C103 C102 1_555 1_555
H72 C103 1_555 1_555
C105 C104 1_555 1_555
H73 C105 1_555 1_555
C106 N18 1_555 1_555
H74 C106 1_555 1_555
N28 C139 1_555 1_555
C139 H98 1_555 1_555
C140 C139 1_555 1_555
H99 C140 1_555 1_555
C142 C141 1_555 1_555
H100 C142 1_555 1_555
C143 N28 1_555 1_555
H101 C143 1_555 1_555
Ni11 O7 1_555 1_555
Ni14 N28 1_555 1_555
Ni18 N18 1_555 1_555
Ni25 O8 1_555 1_555
C69 C70 1_555 1_555
C71 C72 1_555 1_555
N15 C87 1_555 1_555
C86 C87 1_555 1_555
C103 C104 1_555 1_555
C105 C106 1_555 1_555
C140 C141 1_555 1_555
C142 C143 1_555 1_555
Ni1 F7 1_555 1_555
Ni2 F7 1_555 1_555
O1 Ni1 1_555 1_555
O2 Ni2 1_555 1_555
O3 Ni1 1_555 1_555
O4 Ni2 1_555 1_555
N2 Ni2 1_555 1_555
N3 C11 1_555 1_555
N5 H9 1_555 1_555
N6 C9 1_555 1_555
N7 Ni2 1_555 1_555
N8 C35 1_555 1_555
N9 H10 1_555 1_555
N10 C27 1_555 1_555
C3 N2 1_555 1_555
H11 C3 1_555 1_555
C4 O3 1_555 1_555
H12 C4 1_555 1_555
C5 C3 1_555 1_555
H13 C5 1_555 1_555
C6 C5 1_555 1_555
C7 C6 1_555 1_555
H14 C7 1_555 1_555
C8 N2 1_555 1_555
H15 C8 1_555 1_555
C9 C6 1_555 1_555
C10 N5 1_555 1_555
C11 H16 1_555 1_555
C12 C11 1_555 1_555
H17 C12 1_555 1_555
C13 C10 1_555 1_555
C14 C13 1_555 1_555
H18 C14 1_555 1_555
C15 N3 1_555 1_555
H19 C15 1_555 1_555
C16 N5 1_555 1_555
C22 N7 1_555 1_555
H24 C22 1_555 1_555
C23 C22 1_555 1_555
H25 C23 1_555 1_555
C24 C23 1_555 1_555
C25 C24 1_555 1_555
H26 C25 1_555 1_555
C26 N7 1_555 1_555
H27 C26 1_555 1_555
C27 N9 1_555 1_555
C28 N10 1_555 1_555
C29 H28 1_555 1_555
C30 C28 1_555 1_555
C31 C30 1_555 1_555
H29 C31 1_555 1_555
C32 C31 1_555 1_555
H30 C32 1_555 1_555
N12 C32 1_555 1_555
C33 C29 1_555 1_555
H31 C33 1_555 1_555
C34 N9 1_555 1_555
C35 H32 1_555 1_555
C36 C35 1_555 1_555
H33 C36 1_555 1_555
C37 C34 1_555 1_555
C38 C37 1_555 1_555
H34 C38 1_555 1_555
C39 N8 1_555 1_555
H35 C39 1_555 1_555
C40 O1 1_555 1_555
C41 H36 1_555 1_555
C42 C41 1_555 1_555
H37 C42 1_555 1_555
C43 C40 1_555 1_555
C44 C43 1_555 1_555
H38 C44 1_555 1_555
C45 C44 1_555 1_555
H39 C45 1_555 1_555
C46 C41 1_555 1_555
C47 C46 1_555 1_555
C48 C47 1_555 1_555
C49 C48 1_555 1_555
H40 C49 1_555 1_555
N14 Ni3_4 1_555 1_555
H53 C74 1_555 1_555
C75 C47 1_555 1_555
Ni10 F9 1_555 1_555
Ni24 F9 1_555 1_555
O13 Ni10 1_555 1_555
O14 Ni24 1_555 1_555
N26 Ni24 1_555 1_555
N27 C133 1_555 1_555
N29 H87 1_555 1_555
N30 C131 1_555 1_555
N31 Ni24 1_555 1_555
N32 Ni2 1_555 1_555
N33 H88 1_555 1_555
N34 C149 1_555 1_555
C125 N26 1_555 1_555
H89 C125 1_555 1_555
C126 O13 1_555 1_555
H90 C126 1_555 1_555
C127 C125 1_555 1_555
H91 C127 1_555 1_555
C128 C127 1_555 1_555
C129 C128 1_555 1_555
H92 C129 1_555 1_555
C130 N26 1_555 1_555
H93 C130 1_555 1_555
C131 C128 1_555 1_555
C132 N29 1_555 1_555
C133 H94 1_555 1_555
C134 C133 1_555 1_555
H95 C134 1_555 1_555
C135 C132 1_555 1_555
C136 C135 1_555 1_555
H96 C136 1_555 1_555
C137 N27 1_555 1_555
H97 C137 1_555 1_555
C138 N29 1_555 1_555
C144 N31 1_555 1_555
H102 C144 1_555 1_555
C145 C144 1_555 1_555
H103 C145 1_555 1_555
C146 C145 1_555 1_555
C147 C146 1_555 1_555
H104 C147 1_555 1_555
C148 N31 1_555 1_555
H105 C148 1_555 1_555
C149 N33 1_555 1_555
C150 N34 1_555 1_555
C151 H106 1_555 1_555
C152 C150 1_555 1_555
C153 C152 1_555 1_555
H107 C153 1_555 1_555
C154 C153 1_555 1_555
H108 C154 1_555 1_555
N35 C154 1_555 1_555
C155 C151 1_555 1_555
H109 C155 1_555 1_555
C156 N33 1_555 1_555
C157 N32 1_555 1_555
H110 C157 1_555 1_555
C158 C157 1_555 1_555
H111 C158 1_555 1_555
C159 C156 1_555 1_555
C160 C159 1_555 1_555
H112 C160 1_555 1_555
C161 N32 1_555 1_555
H113 C161 1_555 1_555
Ni11 F10 1_555 1_555
Ni25 N8 1_555 1_555
F10 Ni25 1_555 1_555
O15 Ni11 1_555 1_555
O16 Ni25 1_555 1_555
N36 Ni25 1_555 1_555
N37 C170 1_555 1_555
N39 H114 1_555 1_555
N40 C168 1_555 1_555
N41 Ni25 1_555 1_555
N55 C194 1_555 1_555
N43 H115 1_555 1_555
N44 C186 1_555 1_555
C162 N36 1_555 1_555
H116 C162 1_555 1_555
C163 O15 1_555 1_555
H117 C163 1_555 1_555
C164 C162 1_555 1_555
H118 C164 1_555 1_555
C165 C164 1_555 1_555
C166 C165 1_555 1_555
H119 C166 1_555 1_555
C167 N36 1_555 1_555
H120 C167 1_555 1_555
C168 C165 1_555 1_555
C169 N39 1_555 1_555
C170 H121 1_555 1_555
C171 C170 1_555 1_555
H122 C171 1_555 1_555
C172 C169 1_555 1_555
C173 C172 1_555 1_555
H123 C173 1_555 1_555
C174 N37 1_555 1_555
H124 C174 1_555 1_555
C175 N39 1_555 1_555
C181 N41 1_555 1_555
H129 C181 1_555 1_555
C182 C181 1_555 1_555
H130 C182 1_555 1_555
C183 C182 1_555 1_555
C184 C183 1_555 1_555
H131 C184 1_555 1_555
C185 N41 1_555 1_555
H132 C185 1_555 1_555
C186 N43 1_555 1_555
C187 N44 1_555 1_555
C188 H133 1_555 1_555
C189 C187 1_555 1_555
C190 C189 1_555 1_555
H134 C190 1_555 1_555
C191 C190 1_555 1_555
H135 C191 1_555 1_555
N45 C191 1_555 1_555
C192 C188 1_555 1_555
H136 C192 1_555 1_555
C193 N43 1_555 1_555
C194 H137 1_555 1_555
C195 C194 1_555 1_555
H138 C195 1_555 1_555
C196 C193 1_555 1_555
C197 C196 1_555 1_555
H139 C197 1_555 1_555
C198 N55 1_555 1_555
H140 C198 1_555 1_555
Ni14 N45 1_555 1_555
Ni16 N3 1_555 1_555
Ni18 N12 1_555 1_555
Ni21 N27 1_555 1_555
N47 Ni1 1_555 1_555
N48 Ni11 1_555 1_555
N49 Ni10 1_555 1_555
N50 Ni11 1_555 1_555
N51 Ni10 1_555 1_555
N52 Ni1 1_555 1_555
N56 Ni10 1_555 1_555
N57 Ni11 1_555 1_555
N59 Ni1 1_555 1_555
O2 C40 1_555 1_555
O4 C4 1_555 1_555
N6 C16 1_555 1_555
C7 C8 1_555 1_555
C9 C10 1_555 1_555
C12 C13 1_555 1_555
C14 C15 1_555 1_555
C24 C27 1_555 1_555
C25 C26 1_555 1_555
C28 C34 1_555 1_555
C29 C30 1_555 1_555
N12 C33 1_555 1_555
C36 C37 1_555 1_555
C38 C39 1_555 1_555
C42 C43 1_555 1_555
C45 C46 1_555 1_555
N14 C75 1_555 1_555
C74 C75 1_555 1_555
O14 C126 1_555 1_555
N30 C138 1_555 1_555
C129 C130 1_555 1_555
C131 C132 1_555 1_555
C134 C135 1_555 1_555
C136 C137 1_555 1_555
C146 C149 1_555 1_555
C147 C148 1_555 1_555
C150 C156 1_555 1_555
C151 C152 1_555 1_555
N35 C155 1_555 1_555
N35 Ni16 1_555 1_555
C158 C159 1_555 1_555
C160 C161 1_555 1_555
O16 C163 1_555 1_555
N37 Ni18 1_555 1_555
N40 C175 1_555 1_555
C166 C167 1_555 1_555
C168 C169 1_555 1_555
C171 C172 1_555 1_555
C173 C174 1_555 1_555
C183 C186 1_555 1_555
C184 C185 1_555 1_555
C187 C193 1_555 1_555
C188 C189 1_555 1_555
N45 C192 1_555 1_555
C195 C196 1_555 1_555
C197 C198 1_555 1_555
N38 C176 1_555 1_555
C176 H125 1_555 1_555
C177 C176 1_555 1_555
H126 C177 1_555 1_555
C179 C178 1_555 1_555
H127 C179 1_555 1_555
C180 N38 1_555 1_555
H128 C180 1_555 1_555
Ni16 N38 1_555 1_555
C177 C178 1_555 1_555
C179 C180 1_555 1_555
N22_2 C120_2 1_555 1_555
N23_2 H61_2 1_555 1_555
C112_2 N23_2 1_555 1_555
C119_2 N23_2 1_555 1_555
C122_2 C119_2 1_555 1_555
C123_2 C122_2 1_555 1_555
H85_2 C123_2 1_555 1_555
C124_2 N22_2 1_555 1_555
H86_2 C124_2 1_555 1_555
Ni24_2 N22_2 1_555 1_555
C123_2 C124_2 1_555 1_555
C113_2 N24_2 1_555 1_555
C114_2 H79_2 1_555 1_555
C115_2 C113_2 1_555 1_555
C116_2 C115_2 1_555 1_555
H80_2 C116_2 1_555 1_555
C117_2 C116_2 1_555 1_555
H81_2 C117_2 1_555 1_555
N57 C117_2 1_555 1_555
C118_2 C114_2 1_555 1_555
H82_2 C118_2 1_555 1_555
H84_2 C121_2 1_555 1_555
C114_2 C115_2 1_555 1_555
N57 C118_2 1_555 1_555
Ni14 F7_2 1_555 1_555
Ni2_2 F7_2 1_555 1_555
Ni3_5 N11_2 1_555 1_555
O1_2 Ni14 1_555 1_555
O2_2 Ni2_2 1_555 1_555
O3_2 Ni14 1_555 1_555
O4_2 Ni2_2 1_555 1_555
N2_2 Ni2_2 1_555 1_555
N7_2 Ni2_2 1_555 1_555
N11_2 C48_2 1_555 1_555
C4_2 O3_2 1_555 1_555
H12_2 C4_2 1_555 1_555
C22_2 N7_2 1_555 1_555
C25_2 C24_2 1_555 1_555
C26_2 N7_2 1_555 1_555
H27_2 C26_2 1_555 1_555
C40_2 O1_2 1_555 1_555
C41_2 H36_2 1_555 1_555
C42_2 C41_2 1_555 1_555
H37_2 C42_2 1_555 1_555
C43_2 C40_2 1_555 1_555
C44_2 C43_2 1_555 1_555
H38_2 C44_2 1_555 1_555
C45_2 C44_2 1_555 1_555
H39_2 C45_2 1_555 1_555
C46_2 C41_2 1_555 1_555
C47_2 C46_2 1_555 1_555
C48_2 C47_2 1_555 1_555
C49_2 C48_2 1_555 1_555
H40_2 C49_2 1_555 1_555
C50_2 C49_2 1_555 1_555
H41_2 C50_2 1_555 1_555
C51_2 N11_2 1_555 1_555
O5_2 C52_2 1_555 1_555
O6_2 C52_2 1_555 1_555
N13_2 Ni3_5 1_555 1_555
C52_2 C55_2 1_555 1_555
C53_2 H42_2 1_555 1_555
C54_2 C53_2 1_555 1_555
H43_2 C54_2 1_555 1_555
C55_2 C54_2 1_555 1_555
C56_2 C55_2 1_555 1_555
H44_2 C56_2 1_555 1_555
C57_2 C56_2 1_555 1_555
H45_2 C57_2 1_555 1_555
C58_2 C53_2 1_555 1_555
C59_2 C51_2 1_555 1_555
C60_2 N13_2 1_555 1_555
C61_2 C60_2 1_555 1_555
H46_2 C61_2 1_555 1_555
C62_2 C61_2 1_555 1_555
H47_2 C62_2 1_555 1_555
C63_2 N13_2 1_555 1_555
O7_2 C64_2 1_555 1_555
O8_2 C64_2 1_555 1_555
N14_2 Ni3_5 1_555 1_555
C64_2 C67_2 1_555 1_555
C65_2 H48_2 1_555 1_555
C66_2 C65_2 1_555 1_555
H49_2 C66_2 1_555 1_555
C67_2 C66_2 1_555 1_555
C68_2 C67_2 1_555 1_555
H50_2 C68_2 1_555 1_555
C69_2 C68_2 1_555 1_555
H51_2 C69_2 1_555 1_555
C70_2 C65_2 1_555 1_555
C71_2 C70_2 1_555 1_555
C72_2 N14_2 1_555 1_555
C73_2 C72_2 1_555 1_555
H52_2 C73_2 1_555 1_555
C74_2 C73_2 1_555 1_555
H53_2 C74_2 1_555 1_555
C75_2 C47_2 1_555 1_555
O9_2 C76_2 1_555 1_555
O10_2 C76_2 1_555 1_555
N15_2 Ni3_5 1_555 1_555
C76_2 C79_2 1_555 1_555
C77_2 H54_2 1_555 1_555
C78_2 C77_2 1_555 1_555
H55_2 C78_2 1_555 1_555
C79_2 C78_2 1_555 1_555
C80_2 C79_2 1_555 1_555
H56_2 C80_2 1_555 1_555
C81_2 C80_2 1_555 1_555
H57_2 C81_2 1_555 1_555
C82_2 C77_2 1_555 1_555
C83_2 C63_2 1_555 1_555
C84_2 N15_2 1_555 1_555
C85_2 C84_2 1_555 1_555
H58_2 C85_2 1_555 1_555
C86_2 C85_2 1_555 1_555
H59_2 C86_2 1_555 1_555
C87_2 C71_2 1_555 1_555
Ni16 O9_2 1_555 1_555
Ni5_2 O10_2 1_555 1_555
F8_2 Ni16 1_555 1_555
O11_2 Ni16 1_555 1_555
O12_2 Ni5_2 1_555 1_555
N16_2 Ni5_2 1_555 1_555
N21_2 Ni5_2 1_555 1_555
C89_2 O11_2 1_555 1_555
H63_2 C89_2 1_555 1_555
C107_2 N21_2 1_555 1_555
C110_2 C109_2 1_555 1_555
C111_2 N21_2 1_555 1_555
H78_2 C111_2 1_555 1_555
N32_2 Ni2_2 1_555 1_555
N33_2 H88_2 1_555 1_555
C149_2 N33_2 1_555 1_555
C156_2 N33_2 1_555 1_555
C157_2 N32_2 1_555 1_555
C159_2 C156_2 1_555 1_555
C160_2 C159_2 1_555 1_555
H112_2 C160_2 1_555 1_555
C161_2 N32_2 1_555 1_555
H113_2 C161_2 1_555 1_555
Ni18 O5_2 1_555 1_555
Ni21 O7_2 1_555 1_555
Ni24_2 O6_2 1_555 1_555
Ni25_2 O8_2 1_555 1_555
N55_2 Ni5_2 1_555 1_555
O2_2 C40_2 1_555 1_555
O4_2 C4_2 1_555 1_555
C25_2 C26_2 1_555 1_555
C42_2 C43_2 1_555 1_555
C45_2 C46_2 1_555 1_555
C50_2 C51_2 1_555 1_555
C57_2 C58_2 1_555 1_555
C58_2 C59_2 1_555 1_555
C59_2 C60_2 1_555 1_555
C62_2 C63_2 1_555 1_555
N14_2 C75_2 1_555 1_555
C69_2 C70_2 1_555 1_555
C71_2 C72_2 1_555 1_555
C74_2 C75_2 1_555 1_555
N15_2 C87_2 1_555 1_555
C81_2 C82_2 1_555 1_555
C82_2 C83_2 1_555 1_555
C83_2 C84_2 1_555 1_555
C86_2 C87_2 1_555 1_555
Ni5_2 F8_2 1_555 1_555
O12_2 C89_2 1_555 1_555
C110_2 C111_2 1_555 1_555
C160_2 C161_2 1_555 1_555
N46 C11_2 1_555 1_555
N50 C17_2 1_555 1_555
N5_2 H9_2 1_555 1_555
N6_2 C9_2 1_555 1_555
C5_2 C3_2 1_555 1_555
H13_2 C5_2 1_555 1_555
C6_2 C5_2 1_555 1_555
C7_2 C6_2 1_555 1_555
H14_2 C7_2 1_555 1_555
C9_2 C6_2 1_555 1_555
C10_2 N5_2 1_555 1_555
C11_2 H16_2 1_555 1_555
C12_2 C11_2 1_555 1_555
H17_2 C12_2 1_555 1_555
C13_2 C10_2 1_555 1_555
C14_2 C13_2 1_555 1_555
H18_2 C14_2 1_555 1_555
C15_2 N46 1_555 1_555
H19_2 C15_2 1_555 1_555
C16_2 N5_2 1_555 1_555
C17_2 H20_2 1_555 1_555
C18_2 C17_2 1_555 1_555
H21_2 C18_2 1_555 1_555
C19_2 C16_2 1_555 1_555
C20_2 C19_2 1_555 1_555
H22_2 C20_2 1_555 1_555
C21_2 N50 1_555 1_555
H23_2 C21_2 1_555 1_555
H25_2 C23_2 1_555 1_555
N47 C96_2 1_555 1_555
N51 C102_2 1_555 1_555
N19_2 H60_2 1_555 1_555
N20_2 C94_2 1_555 1_555
C90_2 C88_2 1_555 1_555
H64_2 C90_2 1_555 1_555
C91_2 C90_2 1_555 1_555
C92_2 C91_2 1_555 1_555
H65_2 C92_2 1_555 1_555
C94_2 C91_2 1_555 1_555
C95_2 N19_2 1_555 1_555
C96_2 H67_2 1_555 1_555
C97_2 C96_2 1_555 1_555
H68_2 C97_2 1_555 1_555
C98_2 C95_2 1_555 1_555
C99_2 C98_2 1_555 1_555
H69_2 C99_2 1_555 1_555
C100_2 N47 1_555 1_555
H70_2 C100_2 1_555 1_555
C101_2 N19_2 1_555 1_555
C102_2 H71_2 1_555 1_555
C103_2 C102_2 1_555 1_555
H72_2 C103_2 1_555 1_555
C104_2 C101_2 1_555 1_555
C105_2 C104_2 1_555 1_555
H73_2 C105_2 1_555 1_555
C106_2 N51 1_555 1_555
H74_2 C106_2 1_555 1_555
H76_2 C108_2 1_555 1_555
C150_2 N34_2 1_555 1_555
C151_2 H106_2 1_555 1_555
C152_2 C150_2 1_555 1_555
C153_2 C152_2 1_555 1_555
H107_2 C153_2 1_555 1_555
C154_2 C153_2 1_555 1_555
H108_2 C154_2 1_555 1_555
N58 C154_2 1_555 1_555
C155_2 C151_2 1_555 1_555
H109_2 C155_2 1_555 1_555
H111_2 C158_2 1_555 1_555
N6_2 C16_2 1_555 1_555
C7_2 C8_2 1_555 1_555
C9_2 C10_2 1_555 1_555
C12_2 C13_2 1_555 1_555
C14_2 C15_2 1_555 1_555
C18_2 C19_2 1_555 1_555
C20_2 C21_2 1_555 1_555
N20_2 C101_2 1_555 1_555
C92_2 C93_2 1_555 1_555
C94_2 C95_2 1_555 1_555
C97_2 C98_2 1_555 1_555
C99_2 C100_2 1_555 1_555
C103_2 C104_2 1_555 1_555
C105_2 C106_2 1_555 1_555
C151_2 C152_2 1_555 1_555
N58 C155_2 1_555 1_555
N8_2 C35_2 1_555 1_555
N9_2 H10_2 1_555 1_555
C27_2 N9_2 1_555 1_555
C34_2 N9_2 1_555 1_555
C37_2 C34_2 1_555 1_555
C38_2 C37_2 1_555 1_555
H34_2 C38_2 1_555 1_555
C39_2 N8_2 1_555 1_555
H35_2 C39_2 1_555 1_555
Ni21 F10_2 1_555 1_555
Ni25_2 N8_2 1_555 1_555
F10_2 Ni25_2 1_555 1_555
O15_2 Ni21 1_555 1_555
O16_2 Ni25_2 1_555 1_555
N36_2 Ni25_2 1_555 1_555
N41_2 Ni25_2 1_555 1_555
C163_2 O15_2 1_555 1_555
H117_2 C163_2 1_555 1_555
C181_2 N41_2 1_555 1_555
C184_2 C183_2 1_555 1_555
C185_2 N41_2 1_555 1_555
H132_2 C185_2 1_555 1_555
C38_2 C39_2 1_555 1_555
O16_2 C163_2 1_555 1_555
C184_2 C185_2 1_555 1_555
C28_2 N10_2 1_555 1_555
C29_2 H28_2 1_555 1_555
C30_2 C28_2 1_555 1_555
C31_2 C30_2 1_555 1_555
H29_2 C31_2 1_555 1_555
C32_2 C31_2 1_555 1_555
H30_2 C32_2 1_555 1_555
N56 C32_2 1_555 1_555
C33_2 C29_2 1_555 1_555
H31_2 C33_2 1_555 1_555
H33_2 C36_2 1_555 1_555
N49 C170_2 1_555 1_555
N53 C176_2 1_555 1_555
N39_2 H114_2 1_555 1_555
N40_2 C168_2 1_555 1_555
C164_2 C162_2 1_555 1_555
H118_2 C164_2 1_555 1_555
C165_2 C164_2 1_555 1_555
C166_2 C165_2 1_555 1_555
H119_2 C166_2 1_555 1_555
C168_2 C165_2 1_555 1_555
C169_2 N39_2 1_555 1_555
C170_2 H121_2 1_555 1_555
C171_2 C170_2 1_555 1_555
H122_2 C171_2 1_555 1_555
C172_2 C169_2 1_555 1_555
C173_2 C172_2 1_555 1_555
H123_2 C173_2 1_555 1_555
C174_2 N49 1_555 1_555
H124_2 C174_2 1_555 1_555
C175_2 N39_2 1_555 1_555
C176_2 H125_2 1_555 1_555
C177_2 C176_2 1_555 1_555
H126_2 C177_2 1_555 1_555
C178_2 C175_2 1_555 1_555
C179_2 C178_2 1_555 1_555
H127_2 C179_2 1_555 1_555
C180_2 N53 1_555 1_555
H128_2 C180_2 1_555 1_555
H130_2 C182_2 1_555 1_555
C29_2 C30_2 1_555 1_555
N56 C33_2 1_555 1_555
N40_2 C175_2 1_555 1_555
C166_2 C167_2 1_555 1_555
C168_2 C169_2 1_555 1_555
C171_2 C172_2 1_555 1_555
C173_2 C174_2 1_555 1_555
C177_2 C178_2 1_555 1_555
C179_2 C180_2 1_555 1_555
Ni18 F9_2 1_555 1_555
Ni24_2 F9_2 1_555 1_555
O13_2 Ni18 1_555 1_555
O14_2 Ni24_2 1_555 1_555
N26_2 Ni24_2 1_555 1_555
N31_2 Ni24_2 1_555 1_555
C126_2 O13_2 1_555 1_555
H90_2 C126_2 1_555 1_555
C144_2 N31_2 1_555 1_555
C147_2 C146_2 1_555 1_555
C148_2 N31_2 1_555 1_555
H105_2 C148_2 1_555 1_555
O14_2 C126_2 1_555 1_555
C147_2 C148_2 1_555 1_555
N48 C133_2 1_555 1_555
N52 C139_2 1_555 1_555
N29_2 H87_2 1_555 1_555
N30_2 C131_2 1_555 1_555
C127_2 C125_2 1_555 1_555
H91_2 C127_2 1_555 1_555
C128_2 C127_2 1_555 1_555
C129_2 C128_2 1_555 1_555
H92_2 C129_2 1_555 1_555
C131_2 C128_2 1_555 1_555
C132_2 N29_2 1_555 1_555
C133_2 H94_2 1_555 1_555
C134_2 C133_2 1_555 1_555
H95_2 C134_2 1_555 1_555
C135_2 C132_2 1_555 1_555
C136_2 C135_2 1_555 1_555
H96_2 C136_2 1_555 1_555
C137_2 N48 1_555 1_555
H97_2 C137_2 1_555 1_555
C138_2 N29_2 1_555 1_555
C139_2 H98_2 1_555 1_555
C140_2 C139_2 1_555 1_555
H99_2 C140_2 1_555 1_555
C141_2 C138_2 1_555 1_555
C142_2 C141_2 1_555 1_555
H100_2 C142_2 1_555 1_555
C143_2 N52 1_555 1_555
H101_2 C143_2 1_555 1_555
H103_2 C145_2 1_555 1_555
N30_2 C138_2 1_555 1_555
C129_2 C130_2 1_555 1_555
C131_2 C132_2 1_555 1_555
C134_2 C135_2 1_555 1_555
C136_2 C137_2 1_555 1_555
C140_2 C141_2 1_555 1_555
C142_2 C143_2 1_555 1_555
N55_2 C194_2 1_555 1_555
N43_2 H115_2 1_555 1_555
C186_2 N43_2 1_555 1_555
C193_2 N43_2 1_555 1_555
C196_2 C193_2 1_555 1_555
C197_2 C196_2 1_555 1_555
H139_2 C197_2 1_555 1_555
C198_2 N55_2 1_555 1_555
H140_2 C198_2 1_555 1_555
C197_2 C198_2 1_555 1_555
C187_2 N44_2 1_555 1_555
C188_2 H133_2 1_555 1_555
C189_2 C187_2 1_555 1_555
C190_2 C189_2 1_555 1_555
H134_2 C190_2 1_555 1_555
C191_2 C190_2 1_555 1_555
H135_2 C191_2 1_555 1_555
N59 C191_2 1_555 1_555
C192_2 C188_2 1_555 1_555
H136_2 C192_2 1_555 1_555
H138_2 C195_2 1_555 1_555
C188_2 C189_2 1_555 1_555
N59 C192_2 1_555 1_555

#END
