
###############################################################################
#
# This file contains modified crystal structure data generated from the
# MOF subset of the Cambridge Structural Database (CSD) v543 
# hosted by the Cambridge Crystallographic Data Centre (CCDC).
#
# This work is licensed under the Creative Commons
# Attribution-NonCommercial-ShareAlike 4.0 International License.
# To view a copy of this license, visit
# http://creativecommons.org/licenses/by-nc-sa/4.0/
# or send a letter to
# Creative Commons, PO Box 1866, Mountain View, CA 94042, USA.
#
# CIF created using the CSD Python API on 29 September 2022
# The structure has been converted into the P1 space group
# The structure has a 3D framework
# The original CSD entry CECFEY is in the monoclinic crystal system
# The framework has been calculated to contain at least 10.0% void space
# The void calculation uses a probe of radius 1.32A, grid spacing 0.4
#
###############################################################################

data_CECFEY
_chemical_formula_moiety         '(C148 H100 N32 O40 Zn8)n'
_symmetry_cell_setting           triclinic
_symmetry_space_group_name_H-M   'P 1'
_symmetry_Int_Tables_number      1
_space_group_name_Hall           'P 1'
loop_
_symmetry_equiv_pos_site_id
_symmetry_equiv_pos_as_xyz
1 x,y,z
_cell_length_a                   25.469(3)
_cell_length_b                   12.0512(10)
_cell_length_c                   21.5230(17)
_cell_angle_alpha                90
_cell_angle_beta                 116.159(3)
_cell_angle_gamma                90
_cell_volume                     5929.46
loop_
_atom_site_label
_atom_site_type_symbol
_atom_site_fract_x
_atom_site_fract_y
_atom_site_fract_z
H19 H 0.5105 0.2754 0.0349
O7 O 0.84038(14) 0.0659(3) 0.25711(16)
C29 C 0.83543(19) 0.0614(4) 0.1958(2)
C30 C 0.79334(19) 0.1454(4) 0.1468(2)
C31 C 0.7576(2) 0.2052(5) 0.1673(2)
H22 H 0.7596 0.1938 0.2111
C32 C 0.7181(2) 0.2829(4) 0.1226(2)
C33 C 0.7154(2) 0.3002(4) 0.0568(2)
H23 H 0.6893 0.3522 0.0272
C34 C 0.7512(2) 0.2406(4) 0.0352(2)
C35 C 0.7896(2) 0.1620(5) 0.0805(2)
H24 H 0.8130 0.1200 0.0664
O9 O 0.64581(13) 0.4210(3) 0.10567(15)
O10 O 0.67941(14) 0.3252(4) 0.20238(16)
C36 C 0.67887(19) 0.3457(5) 0.1454(2)
Zn4 Zn 0.60884(2) 0.47001(6) 0.16868(3)
Zn1 Zn 0.60884(2) 0.52999(6) 0.66868(3)
N1 N 0.54689(16) 0.6362(3) 0.66462(18)
N2 N 0.45893(18) 0.7020(4) 0.6347(2)
H1 H 0.4215 0.7046 0.6191
N3 N 0.54818(16) 0.4253(3) 0.59688(18)
N4 N 0.46026(17) 0.3757(3) 0.52159(18)
H2 H 0.4228 0.3707 0.5007
O1 O 0.65962(14) 0.4341(3) 0.74289(16)
O2 O 0.63936(15) 0.5057(3) 0.82528(17)
O3 O 0.85419(13) 0.0790(3) 0.89433(15)
O4 O 0.82059(14) 0.1748(4) 0.79762(16)
O5 O 0.40447(13) 0.4988(3) 0.58112(16)
H3 H 0.3890 0.5048 0.6073
C1 C 0.49038(19) 0.6113(4) 0.6378(2)
C2 C 0.4963(3) 0.7896(5) 0.6604(3)
H4 H 0.4863 0.8626 0.6643
C3 C 0.5511(2) 0.7488(4) 0.6792(3)
H5 H 0.5856 0.7897 0.6986
C4 C 0.4911(2) 0.4361(4) 0.5780(2)
C5 C 0.4988(2) 0.3228(4) 0.5026(2)
H6 H 0.4895 0.2754 0.4651
C6 C 0.5529(2) 0.3536(4) 0.5491(2)
H7 H 0.5878 0.3305 0.5492
C7 C 0.4659(2) 0.4947(4) 0.6203(2)
C8 C 0.5000 0.4851(6) 0.7500
H8 H 0.5000 0.5623 0.7500
C9 C 0.4844(2) 0.4296(4) 0.6884(2)
C10 C 0.4835(3) 0.3148(5) 0.6885(3)
H9 H 0.4718 0.2761 0.6471
C11 C 0.5000 0.2572(7) 0.7500
H10 H 0.5000 0.1800 0.7500
C12 C 0.66457(19) 0.4386(4) 0.8042(2)
C13 C 0.82113(19) 0.1543(5) 0.8546(2)
C14 C 0.70666(19) 0.3546(4) 0.8532(2)
C15 C 0.7424(2) 0.2948(5) 0.8327(2)
H11 H 0.7404 0.3062 0.7889
C16 C 0.7819(2) 0.2171(4) 0.8774(2)
C17 C 0.7846(2) 0.1998(4) 0.9432(2)
H12 H 0.8107 0.1478 0.9728
C18 C 0.7488(2) 0.2594(4) 0.9648(2)
C19 C 0.7104(2) 0.3380(5) 0.9195(2)
H13 H 0.6870 0.3800 0.9336
N5 N 0.45311(16) 0.6362(3) 0.83538(18)
N6 N 0.54107(18) 0.7020(4) 0.8653(2)
H14 H 0.5785 0.7046 0.8809
N7 N 0.45182(16) 0.4253(3) 0.90312(18)
N8 N 0.53974(17) 0.3757(3) 0.97841(18)
H15 H 0.5772 0.3707 0.9993
O6 O 0.59553(13) 0.4988(3) 0.91888(16)
H16 H 0.6110 0.5048 0.8927
C20 C 0.50962(19) 0.6113(4) 0.8622(2)
C21 C 0.5037(3) 0.7896(5) 0.8396(3)
H17 H 0.5137 0.8626 0.8357
C22 C 0.4489(2) 0.7488(4) 0.8208(3)
H18 H 0.4144 0.7897 0.8014
C23 C 0.5089(2) 0.4361(4) 0.9220(2)
C24 C 0.5012(2) 0.3228(4) 0.9974(2)
C25 C 0.4471(2) 0.3536(4) 0.9509(2)
H20 H 0.4122 0.3305 0.9508
C26 C 0.5341(2) 0.4947(4) 0.8797(2)
C27 C 0.5156(2) 0.4296(4) 0.8116(2)
C28 C 0.5165(3) 0.3148(5) 0.8115(3)
H21 H 0.5282 0.2761 0.8529
Zn2 Zn 0.39116(2) 0.52999(6) 0.83132(3)
Zn3 Zn 0.89116(2) 0.02999(6) 0.83132(3)
O11 O 0.34038(14) 0.4341(3) 0.75711(16)
O12 O 0.35419(13) 0.5790(3) 0.89433(15)
O13 O 0.64581(13) 0.5790(3) 0.60567(15)
O14 O 0.32059(14) 0.6748(4) 0.79762(16)
O15 O 0.67941(14) 0.6748(4) 0.70238(16)
O8 O 0.86064(15) 0.9943(3) 0.17472(17)
Zn5 Zn 0.89116(2) 0.97001(6) 0.33132(3)
O2_2 O 0.36064(15) 0.5057(3) 0.67472(17)
O3_2 O 0.14581(13) 0.0790(3) 0.60567(15)
O4_2 O 0.17941(14) 0.1748(4) 0.70238(16)
C12_2 C 0.33543(19) 0.4386(4) 0.6958(2)
C13_2 C 0.17887(19) 0.1543(5) 0.6454(2)
C14_2 C 0.29334(19) 0.3546(4) 0.6468(2)
C15_2 C 0.2576(2) 0.2948(5) 0.6673(2)
H11_2 H 0.2596 0.3062 0.7111
C16_2 C 0.2181(2) 0.2171(4) 0.6226(2)
C17_2 C 0.2154(2) 0.1998(4) 0.5568(2)
H12_2 H 0.1893 0.1478 0.5272
C18_2 C 0.2512(2) 0.2594(4) 0.5352(2)
C19_2 C 0.2896(2) 0.3380(5) 0.5805(2)
H13_2 H 0.3130 0.3800 0.5664
O7_2 O 0.15962(14) 0.0659(3) 0.24289(16)
C29_2 C 0.16457(19) 0.0614(4) 0.3042(2)
C30_2 C 0.20666(19) 0.1454(4) 0.3532(2)
C31_2 C 0.2424(2) 0.2052(5) 0.3327(2)
H22_2 H 0.2404 0.1938 0.2889
C32_2 C 0.2819(2) 0.2829(4) 0.3774(2)
C33_2 C 0.2846(2) 0.3002(4) 0.4432(2)
H23_2 H 0.3107 0.3522 0.4728
C34_2 C 0.2488(2) 0.2406(4) 0.4648(2)
C35_2 C 0.2104(2) 0.1620(5) 0.4195(2)
H24_2 H 0.1870 0.1200 0.4336
O9_2 O 0.35419(13) 0.4210(3) 0.39433(15)
O10_2 O 0.32059(14) 0.3252(4) 0.29762(16)
C36_2 C 0.32113(19) 0.3457(5) 0.3546(2)
Zn3_2 Zn 0.10884(2) 0.02999(6) 0.66868(3)
Zn4_2 Zn 0.39116(2) 0.47001(6) 0.33132(3)
O8_2 O 0.13936(15) 0.9943(3) 0.32528(17)
Zn5_2 Zn 0.10884(2) 0.97001(6) 0.16868(3)
N1_2 N 0.04689(16) 0.1362(3) 0.66462(18)
O2_3 O 0.13936(15) 0.0057(3) 0.82528(17)
C3_2 C 0.0511(2) 0.2488(4) 0.6792(3)
H5_2 H 0.0856 0.2897 0.6986
H8_2 H 0.0000 0.0623 0.7500
N6_2 N 0.04107(18) 0.2020(4) 0.8653(2)
H14_2 H 0.0785 0.2046 0.8809
H16_2 H 0.1110 0.0048 0.8927
C20_2 C 0.00962(19) 0.1113(4) 0.8622(2)
C21_2 C 0.0037(3) 0.2896(5) 0.8396(3)
H17_2 H 0.0137 0.3626 0.8357
H19_2 H 0.0105 0.7754 0.0349
O7_3 O 0.34038(14) 0.5659(3) 0.25711(16)
O8_3 O 0.36064(15) 0.4943(3) 0.17472(17)
C29_3 C 0.33543(19) 0.5614(4) 0.1958(2)
C30_3 C 0.29334(19) 0.6454(4) 0.1468(2)
C31_3 C 0.2576(2) 0.7052(5) 0.1673(2)
H22_3 H 0.2596 0.6938 0.2111
C32_3 C 0.2181(2) 0.7829(4) 0.1226(2)
C33_3 C 0.2154(2) 0.8002(4) 0.0568(2)
H23_3 H 0.1893 0.8522 0.0272
C34_3 C 0.2512(2) 0.7406(4) 0.0352(2)
C35_3 C 0.2896(2) 0.6620(5) 0.0805(2)
H24_3 H 0.3130 0.6200 0.0664
O9_3 O 0.14581(13) 0.9210(3) 0.10567(15)
O10_3 O 0.17941(14) 0.8252(4) 0.20238(16)
C36_3 C 0.17887(19) 0.8457(5) 0.1454(2)
N3_2 N 0.04818(16) 0.9253(3) 0.59688(18)
O1_2 O 0.15962(14) 0.9341(3) 0.74289(16)
C6_2 C 0.0529(2) 0.8536(4) 0.5491(2)
H7_2 H 0.0878 0.8305 0.5492
C8_2 C 0.0000 0.9851(6) 0.7500
C11_2 C 0.0000 0.7572(7) 0.7500
H10_2 H 0.0000 0.6800 0.7500
C12_3 C 0.16457(19) 0.9386(4) 0.8042(2)
C13_3 C 0.32113(19) 0.6543(5) 0.8546(2)
C14_3 C 0.20666(19) 0.8546(4) 0.8532(2)
C15_3 C 0.2424(2) 0.7948(5) 0.8327(2)
H11_3 H 0.2404 0.8062 0.7889
C16_3 C 0.2819(2) 0.7171(4) 0.8774(2)
C17_3 C 0.2846(2) 0.6998(4) 0.9432(2)
H12_3 H 0.3107 0.6478 0.9728
C18_3 C 0.2488(2) 0.7594(4) 0.9648(2)
C19_3 C 0.2104(2) 0.8380(5) 0.9195(2)
H13_3 H 0.1870 0.8800 0.9336
N8_2 N 0.03974(17) 0.8757(3) 0.97841(18)
H15_2 H 0.0772 0.8707 0.9993
O6_2 O 0.09553(13) 0.9988(3) 0.91888(16)
C23_2 C 0.0089(2) 0.9361(4) 0.9220(2)
C24_2 C 0.0012(2) 0.8228(4) 0.9974(2)
C26_2 C 0.0341(2) 0.9947(4) 0.8797(2)
C27_2 C 0.0156(2) 0.9296(4) 0.8116(2)
C28_2 C 0.0165(3) 0.8148(5) 0.8115(3)
H21_2 H 0.0282 0.7761 0.8529
N2_2 N 0.95893(18) 0.2020(4) 0.6347(2)
H1_2 H 0.9215 0.2046 0.6191
H3_2 H 0.8890 0.0048 0.6073
C1_2 C 0.99038(19) 0.1113(4) 0.6378(2)
C2_2 C 0.9963(3) 0.2896(5) 0.6604(3)
H4_2 H 0.9863 0.3626 0.6643
H8_3 H 1.0000 0.0623 0.7500
N5_2 N 0.95311(16) 0.1362(3) 0.83538(18)
C22_2 C 0.9489(2) 0.2488(4) 0.8208(3)
H18_2 H 0.9144 0.2897 0.8014
N4_2 N 0.96026(17) 0.8757(3) 0.52159(18)
H2_2 H 0.9228 0.8707 0.5007
O5_2 O 0.90447(13) 0.9988(3) 0.58112(16)
C4_2 C 0.9911(2) 0.9361(4) 0.5780(2)
C5_2 C 0.9988(2) 0.8228(4) 0.5026(2)
H6_2 H 0.9895 0.7754 0.4651
C7_2 C 0.9659(2) 0.9947(4) 0.6203(2)
C8_3 C 1.0000 0.9851(6) 0.7500
C9_2 C 0.9844(2) 0.9296(4) 0.6884(2)
C10_2 C 0.9835(3) 0.8148(5) 0.6885(3)
H9_2 H 0.9718 0.7761 0.6471
C11_3 C 1.0000 0.7572(7) 0.7500
H10_3 H 1.0000 0.6800 0.7500
N7_2 N 0.95182(16) 0.9253(3) 0.90312(18)
C25_2 C 0.9471(2) 0.8536(4) 0.9509(2)
H20_2 H 0.9122 0.8305 0.9508
O11_2 O 0.84038(14) 0.9341(3) 0.75711(16)
O2_4 O 0.86064(15) 0.0057(3) 0.67472(17)
C12_4 C 0.83543(19) 0.9386(4) 0.6958(2)
C13_4 C 0.67887(19) 0.6543(5) 0.6454(2)
C14_4 C 0.79334(19) 0.8546(4) 0.6468(2)
C15_4 C 0.7576(2) 0.7948(5) 0.6673(2)
H11_4 H 0.7596 0.8062 0.7111
C16_4 C 0.7181(2) 0.7171(4) 0.6226(2)
C17_4 C 0.7154(2) 0.6998(4) 0.5568(2)
H12_4 H 0.6893 0.6478 0.5272
C18_4 C 0.7512(2) 0.7594(4) 0.5352(2)
C19_4 C 0.7896(2) 0.8380(5) 0.5805(2)
H13_4 H 0.8130 0.8800 0.5664
O7_4 O 0.65962(14) 0.5659(3) 0.24289(16)
O8_4 O 0.63936(15) 0.4943(3) 0.32528(17)
C29_4 C 0.66457(19) 0.5614(4) 0.3042(2)
C30_4 C 0.70666(19) 0.6454(4) 0.3532(2)
C31_4 C 0.7424(2) 0.7052(5) 0.3327(2)
H22_4 H 0.7404 0.6938 0.2889
C32_4 C 0.7819(2) 0.7829(4) 0.3774(2)
C33_4 C 0.7846(2) 0.8002(4) 0.4432(2)
H23_4 H 0.8107 0.8522 0.4728
C34_4 C 0.7488(2) 0.7406(4) 0.4648(2)
C35_4 C 0.7104(2) 0.6620(5) 0.4195(2)
H24_4 H 0.6870 0.6200 0.4336
O9_4 O 0.85419(13) 0.9210(3) 0.39433(15)
O10_4 O 0.82059(14) 0.8252(4) 0.29762(16)
C36_4 C 0.82113(19) 0.8457(5) 0.3546(2)
N1_3 N 0.45311(16) 0.3638(3) 0.33538(18)
N2_3 N 0.54107(18) 0.2980(4) 0.3653(2)
H1_3 H 0.5785 0.2954 0.3809
N3_3 N 0.45182(16) 0.5747(3) 0.40312(18)
N4_3 N 0.53974(17) 0.6243(3) 0.47841(18)
H2_3 H 0.5772 0.6293 0.4993
O5_3 O 0.59553(13) 0.5012(3) 0.41888(16)
H3_3 H 0.6110 0.4952 0.3927
C1_3 C 0.50962(19) 0.3887(4) 0.3622(2)
C2_3 C 0.5037(3) 0.2104(5) 0.3396(3)
H4_3 H 0.5137 0.1374 0.3357
C3_3 C 0.4489(2) 0.2512(4) 0.3208(3)
H5_3 H 0.4144 0.2103 0.3014
C4_3 C 0.5089(2) 0.5639(4) 0.4220(2)
C5_3 C 0.5012(2) 0.6772(4) 0.4974(2)
H6_3 H 0.5105 0.7246 0.5349
C6_3 C 0.4471(2) 0.6464(4) 0.4509(2)
H7_3 H 0.4122 0.6695 0.4508
C7_3 C 0.5341(2) 0.5053(4) 0.3797(2)
C8_4 C 0.5000 0.5149(6) 0.2500
H8_4 H 0.5000 0.4377 0.2500
C9_3 C 0.5156(2) 0.5704(4) 0.3116(2)
C10_3 C 0.5165(3) 0.6852(5) 0.3115(3)
H9_3 H 0.5282 0.7239 0.3529
C11_4 C 0.5000 0.7428(7) 0.2500
H10_4 H 0.5000 0.8200 0.2500
N5_3 N 0.54689(16) 0.3638(3) 0.16462(18)
N6_3 N 0.45893(18) 0.2980(4) 0.1347(2)
H14_3 H 0.4215 0.2954 0.1191
N7_3 N 0.54818(16) 0.5747(3) 0.09688(18)
N8_3 N 0.46026(17) 0.6243(3) 0.02159(18)
H15_3 H 0.4228 0.6293 0.0007
O6_3 O 0.40447(13) 0.5012(3) 0.08112(16)
H16_3 H 0.3890 0.4952 0.1073
C20_3 C 0.49038(19) 0.3887(4) 0.1378(2)
C21_3 C 0.4963(3) 0.2104(5) 0.1604(3)
H17_3 H 0.4863 0.1374 0.1643
C22_3 C 0.5511(2) 0.2512(4) 0.1792(3)
H18_3 H 0.5856 0.2103 0.1986
C23_3 C 0.4911(2) 0.5639(4) 0.0780(2)
C24_3 C 0.4988(2) 0.6772(4) 0.0026(2)
C25_3 C 0.5529(2) 0.6464(4) 0.0491(2)
H20_3 H 0.5878 0.6695 0.0492
C26_3 C 0.4659(2) 0.5053(4) 0.1203(2)
C27_3 C 0.4844(2) 0.5704(4) 0.1884(2)
C28_3 C 0.4835(3) 0.6852(5) 0.1885(3)
H21_3 H 0.4718 0.7239 0.1471
H19_3 H 0.4895 0.7246 0.9651
N4_4 N 0.03974(17) 0.1243(3) 0.47841(18)
H2_4 H 0.0772 0.1293 0.4993
O5_4 O 0.09553(13) 0.0012(3) 0.41888(16)
C4_4 C 0.0089(2) 0.0639(4) 0.4220(2)
C5_4 C 0.0012(2) 0.1772(4) 0.4974(2)
H6_4 H 0.0105 0.2246 0.5349
C7_4 C 0.0341(2) 0.0053(4) 0.3797(2)
C8_5 C 0.0000 0.0149(6) 0.2500
C9_4 C 0.0156(2) 0.0704(4) 0.3116(2)
C10_4 C 0.0165(3) 0.1852(5) 0.3115(3)
H9_4 H 0.0282 0.2239 0.3529
C11_5 C 0.0000 0.2428(7) 0.2500
H10_5 H 0.0000 0.3200 0.2500
N7_4 N 0.04818(16) 0.0747(3) 0.09688(18)
C25_4 C 0.0529(2) 0.1464(4) 0.0491(2)
H20_4 H 0.0878 0.1695 0.0492
N2_4 N 0.04107(18) 0.7980(4) 0.3653(2)
H1_4 H 0.0785 0.7954 0.3809
H3_4 H 0.1110 0.9952 0.3927
C1_4 C 0.00962(19) 0.8887(4) 0.3622(2)
C2_4 C 0.0037(3) 0.7104(5) 0.3396(3)
H4_4 H 0.0137 0.6374 0.3357
H8_5 H 0.0000 0.9377 0.2500
N5_4 N 0.04689(16) 0.8638(3) 0.16462(18)
C22_4 C 0.0511(2) 0.7512(4) 0.1792(3)
H18_4 H 0.0856 0.7103 0.1986
N3_4 N 0.95182(16) 0.0747(3) 0.40312(18)
C6_4 C 0.9471(2) 0.1464(4) 0.4509(2)
H7_4 H 0.9122 0.1695 0.4508
C8_6 C 1.0000 0.0149(6) 0.2500
C11_6 C 1.0000 0.2428(7) 0.2500
H10_6 H 1.0000 0.3200 0.2500
N8_4 N 0.96026(17) 0.1243(3) 0.02159(18)
H15_4 H 0.9228 0.1293 0.0007
O6_4 O 0.90447(13) 0.0012(3) 0.08112(16)
C23_4 C 0.9911(2) 0.0639(4) 0.0780(2)
C24_4 C 0.9988(2) 0.1772(4) 0.0026(2)
C26_4 C 0.9659(2) 0.0053(4) 0.1203(2)
C27_4 C 0.9844(2) 0.0704(4) 0.1884(2)
C28_4 C 0.9835(3) 0.1852(5) 0.1885(3)
H21_4 H 0.9718 0.2239 0.1471
H19_4 H 0.9895 0.2246 0.9651
N1_4 N 0.95311(16) 0.8638(3) 0.33538(18)
C3_4 C 0.9489(2) 0.7512(4) 0.3208(3)
H5_4 H 0.9144 0.7103 0.3014
H8_6 H 1.0000 0.9377 0.2500
N6_4 N 0.95893(18) 0.7980(4) 0.1347(2)
H14_4 H 0.9215 0.7954 0.1191
H16_4 H 0.8890 0.9952 0.1073
C20_4 C 0.99038(19) 0.8887(4) 0.1378(2)
C21_4 C 0.9963(3) 0.7104(5) 0.1604(3)
H17_4 H 0.9863 0.6374 0.1643
loop_
_geom_bond_atom_site_label_1
_geom_bond_atom_site_label_2
_geom_bond_site_symmetry_1
_geom_bond_site_symmetry_2
O7 C29 1_555 1_555
C29 C30 1_555 1_555
C30 C31 1_555 1_555
C31 H22 1_555 1_555
C32 C31 1_555 1_555
C33 C32 1_555 1_555
H23 C33 1_555 1_555
C35 C30 1_555 1_555
H24 C35 1_555 1_555
O9 C36 1_555 1_555
O10 C36 1_555 1_555
C36 C32 1_555 1_555
Zn4 O9 1_555 1_555
C33 C34 1_555 1_555
C34 C35 1_555 1_555
O10 Zn4 1_555 1_555
Zn1 N1 1_555 1_555
N1 C1 1_555 1_555
N2 H1 1_555 1_555
N3 Zn1 1_555 1_555
N4 H2 1_555 1_555
O1 Zn1 1_555 1_555
O2 C12 1_555 1_555
O3 C13 1_555 1_555
O4 C13 1_555 1_555
O5 H3 1_555 1_555
C1 N2 1_555 1_555
C2 N2 1_555 1_555
H4 C2 1_555 1_555
C3 N1 1_555 1_555
H5 C3 1_555 1_555
C4 N3 1_555 1_555
C5 N4 1_555 1_555
H6 C5 1_555 1_555
C6 N3 1_555 1_555
H7 C6 1_555 1_555
C7 O5 1_555 1_555
C8 H8 1_555 1_555
C9 C7 1_555 1_555
C10 C9 1_555 1_555
H9 C10 1_555 1_555
C11 C10 1_555 1_555
H10 C11 1_555 1_555
C12 O1 1_555 1_555
C13 C16 1_555 1_555
C14 C12 1_555 1_555
C15 C14 1_555 1_555
H11 C15 1_555 1_555
C16 C15 1_555 1_555
C17 C16 1_555 1_555
H12 C17 1_555 1_555
C18 C17 1_555 1_555
C19 C14 1_555 1_555
H13 C19 1_555 1_555
N5 C20 1_555 1_555
N6 H14 1_555 1_555
N7 C23 1_555 1_555
N8 H15 1_555 1_555
O6 H16 1_555 1_555
C20 N6 1_555 1_555
C21 N6 1_555 1_555
H17 C21 1_555 1_555
C22 N5 1_555 1_555
H18 C22 1_555 1_555
C23 N8 1_555 1_555
C24 N8 1_555 1_555
C25 N7 1_555 1_555
H20 C25 1_555 1_555
C26 O6 1_555 1_555
C27 C8 1_555 1_555
C28 C11 1_555 1_555
H21 C28 1_555 1_555
Zn2 N5 1_555 1_555
Zn3 O3 1_555 1_555
O11 Zn2 1_555 1_555
O12 Zn2 1_555 1_555
O13 Zn1 1_555 1_555
O14 Zn2 1_555 1_555
O15 Zn1 1_555 1_555
N4 C4 1_555 1_555
O4 Zn3 1_555 1_555
C1 C7 1_555 1_555
C2 C3 1_555 1_555
C4 C7 1_555 1_555
C5 C6 1_555 1_555
C8 C9 1_555 1_555
C18 C19 1_555 1_555
N7 Zn2 1_555 1_555
C20 C26 1_555 1_555
C21 C22 1_555 1_555
C23 C26 1_555 1_555
C24 C25 1_555 1_555
C26 C27 1_555 1_555
C27 C28 1_555 1_555
O2_2 C12_2 1_555 1_555
O3_2 C13_2 1_555 1_555
O4_2 C13_2 1_555 1_555
C12_2 O11 1_555 1_555
C13_2 C16_2 1_555 1_555
C14_2 C12_2 1_555 1_555
C15_2 C14_2 1_555 1_555
H11_2 C15_2 1_555 1_555
C16_2 C15_2 1_555 1_555
C17_2 C16_2 1_555 1_555
H12_2 C17_2 1_555 1_555
C18_2 C17_2 1_555 1_555
C19_2 C14_2 1_555 1_555
H13_2 C19_2 1_555 1_555
O7_2 C29_2 1_555 1_555
C29_2 C30_2 1_555 1_555
C30_2 C31_2 1_555 1_555
C31_2 H22_2 1_555 1_555
C32_2 C31_2 1_555 1_555
C33_2 C32_2 1_555 1_555
H23_2 C33_2 1_555 1_555
C34_2 C18_2 1_555 1_555
C35_2 C30_2 1_555 1_555
H24_2 C35_2 1_555 1_555
O9_2 C36_2 1_555 1_555
O10_2 C36_2 1_555 1_555
C36_2 C32_2 1_555 1_555
Zn3_2 O3_2 1_555 1_555
Zn4_2 O9_2 1_555 1_555
O4_2 Zn3_2 1_555 1_555
C18_2 C19_2 1_555 1_555
C33_2 C34_2 1_555 1_555
C34_2 C35_2 1_555 1_555
O10_2 Zn4_2 1_555 1_555
Zn3_2 N1_2 1_555 1_555
C3_2 N1_2 1_555 1_555
H5_2 C3_2 1_555 1_555
N6_2 H14_2 1_555 1_555
C20_2 N6_2 1_555 1_555
C21_2 N6_2 1_555 1_555
H17_2 C21_2 1_555 1_555
O7_3 C29_3 1_555 1_555
O8_3 C29_3 1_555 1_555
C29_3 C30_3 1_555 1_555
C30_3 C31_3 1_555 1_555
C31_3 H22_3 1_555 1_555
C32_3 C31_3 1_555 1_555
C33_3 C32_3 1_555 1_555
H23_3 C33_3 1_555 1_555
C35_3 C30_3 1_555 1_555
H24_3 C35_3 1_555 1_555
O9_3 C36_3 1_555 1_555
O10_3 C36_3 1_555 1_555
C36_3 C32_3 1_555 1_555
Zn5_2 O9_3 1_555 1_555
Zn4_2 O7_3 1_555 1_555
C33_3 C34_3 1_555 1_555
C34_3 C35_3 1_555 1_555
O10_3 Zn5_2 1_555 1_555
O12 C13_3 1_555 1_555
O14 C13_3 1_555 1_555
C6_2 N3_2 1_555 1_555
H7_2 C6_2 1_555 1_555
H10_2 C11_2 1_555 1_555
C12_3 O1_2 1_555 1_555
C13_3 C16_3 1_555 1_555
C14_3 C12_3 1_555 1_555
C15_3 C14_3 1_555 1_555
H11_3 C15_3 1_555 1_555
C16_3 C15_3 1_555 1_555
C17_3 C16_3 1_555 1_555
H12_3 C17_3 1_555 1_555
C18_3 C17_3 1_555 1_555
C19_3 C14_3 1_555 1_555
H13_3 C19_3 1_555 1_555
N8_2 H15_2 1_555 1_555
C23_2 N8_2 1_555 1_555
C24_2 N8_2 1_555 1_555
C26_2 O6_2 1_555 1_555
C27_2 C8_2 1_555 1_555
C28_2 C11_2 1_555 1_555
H21_2 C28_2 1_555 1_555
C18_3 C19_3 1_555 1_555
C23_2 C26_2 1_555 1_555
C26_2 C27_2 1_555 1_555
C27_2 C28_2 1_555 1_555
N2_2 H1_2 1_555 1_555
C1_2 N2_2 1_555 1_555
C2_2 N2_2 1_555 1_555
H4_2 C2_2 1_555 1_555
C22_2 N5_2 1_555 1_555
H18_2 C22_2 1_555 1_555
Zn3 N5_2 1_555 1_555
N4_2 H2_2 1_555 1_555
C5_2 N4_2 1_555 1_555
H6_2 C5_2 1_555 1_555
C7_2 O5_2 1_555 1_555
C9_2 C7_2 1_555 1_555
C10_2 C9_2 1_555 1_555
H9_2 C10_2 1_555 1_555
C11_3 C10_2 1_555 1_555
H10_3 C11_3 1_555 1_555
C25_2 N7_2 1_555 1_555
H20_2 C25_2 1_555 1_555
N4_2 C4_2 1_555 1_555
C4_2 C7_2 1_555 1_555
C8_3 C9_2 1_555 1_555
O13 C13_4 1_555 1_555
O15 C13_4 1_555 1_555
C12_4 O11_2 1_555 1_555
C13_4 C16_4 1_555 1_555
C14_4 C12_4 1_555 1_555
C15_4 C14_4 1_555 1_555
H11_4 C15_4 1_555 1_555
C16_4 C15_4 1_555 1_555
C17_4 C16_4 1_555 1_555
H12_4 C17_4 1_555 1_555
C18_4 C17_4 1_555 1_555
C19_4 C14_4 1_555 1_555
H13_4 C19_4 1_555 1_555
O7_4 C29_4 1_555 1_555
O8_4 C29_4 1_555 1_555
C29_4 C30_4 1_555 1_555
C30_4 C31_4 1_555 1_555
C31_4 H22_4 1_555 1_555
C32_4 C31_4 1_555 1_555
C33_4 C32_4 1_555 1_555
H23_4 C33_4 1_555 1_555
C34_4 C18_4 1_555 1_555
C35_4 C30_4 1_555 1_555
H24_4 C35_4 1_555 1_555
O9_4 C36_4 1_555 1_555
O10_4 C36_4 1_555 1_555
C36_4 C32_4 1_555 1_555
Zn5 O9_4 1_555 1_555
Zn4 O7_4 1_555 1_555
C18_4 C19_4 1_555 1_555
C33_4 C34_4 1_555 1_555
C34_4 C35_4 1_555 1_555
O10_4 Zn5 1_555 1_555
Zn4_2 N1_3 1_555 1_555
N1_3 C1_3 1_555 1_555
N2_3 H1_3 1_555 1_555
N3_3 Zn4_2 1_555 1_555
N4_3 H2_3 1_555 1_555
O5_3 H3_3 1_555 1_555
C1_3 N2_3 1_555 1_555
C2_3 N2_3 1_555 1_555
H4_3 C2_3 1_555 1_555
C3_3 N1_3 1_555 1_555
H5_3 C3_3 1_555 1_555
C4_3 N3_3 1_555 1_555
C5_3 N4_3 1_555 1_555
H6_3 C5_3 1_555 1_555
C6_3 N3_3 1_555 1_555
H7_3 C6_3 1_555 1_555
C7_3 O5_3 1_555 1_555
C8_4 H8_4 1_555 1_555
C9_3 C7_3 1_555 1_555
C10_3 C9_3 1_555 1_555
H9_3 C10_3 1_555 1_555
C11_4 C10_3 1_555 1_555
H10_4 C11_4 1_555 1_555
N5_3 C20_3 1_555 1_555
N6_3 H14_3 1_555 1_555
N7_3 C23_3 1_555 1_555
N8_3 H15_3 1_555 1_555
O6_3 H16_3 1_555 1_555
C20_3 N6_3 1_555 1_555
C21_3 N6_3 1_555 1_555
H17_3 C21_3 1_555 1_555
C22_3 N5_3 1_555 1_555
H18_3 C22_3 1_555 1_555
C23_3 N8_3 1_555 1_555
C24_3 N8_3 1_555 1_555
C25_3 N7_3 1_555 1_555
H20_3 C25_3 1_555 1_555
C26_3 O6_3 1_555 1_555
C27_3 C8_4 1_555 1_555
C28_3 C11_4 1_555 1_555
H21_3 C28_3 1_555 1_555
Zn4 N5_3 1_555 1_555
N4_3 C4_3 1_555 1_555
C1_3 C7_3 1_555 1_555
C2_3 C3_3 1_555 1_555
C4_3 C7_3 1_555 1_555
C5_3 C6_3 1_555 1_555
C8_4 C9_3 1_555 1_555
N7_3 Zn4 1_555 1_555
C20_3 C26_3 1_555 1_555
C21_3 C22_3 1_555 1_555
C23_3 C26_3 1_555 1_555
C24_3 C25_3 1_555 1_555
C26_3 C27_3 1_555 1_555
C27_3 C28_3 1_555 1_555
N4_4 H2_4 1_555 1_555
C5_4 N4_4 1_555 1_555
H6_4 C5_4 1_555 1_555
C7_4 O5_4 1_555 1_555
C9_4 C7_4 1_555 1_555
C10_4 C9_4 1_555 1_555
H9_4 C10_4 1_555 1_555
C11_5 C10_4 1_555 1_555
H10_5 C11_5 1_555 1_555
C25_4 N7_4 1_555 1_555
H20_4 C25_4 1_555 1_555
N4_4 C4_4 1_555 1_555
C4_4 C7_4 1_555 1_555
C8_5 C9_4 1_555 1_555
N2_4 H1_4 1_555 1_555
C1_4 N2_4 1_555 1_555
C2_4 N2_4 1_555 1_555
H4_4 C2_4 1_555 1_555
C22_4 N5_4 1_555 1_555
H18_4 C22_4 1_555 1_555
Zn5_2 N5_4 1_555 1_555
C6_4 N3_4 1_555 1_555
H7_4 C6_4 1_555 1_555
H10_6 C11_6 1_555 1_555
N8_4 H15_4 1_555 1_555
C23_4 N8_4 1_555 1_555
C24_4 N8_4 1_555 1_555
C26_4 O6_4 1_555 1_555
C27_4 C8_6 1_555 1_555
C28_4 C11_6 1_555 1_555
H21_4 C28_4 1_555 1_555
C23_4 C26_4 1_555 1_555
C26_4 C27_4 1_555 1_555
C27_4 C28_4 1_555 1_555
Zn5 N1_4 1_555 1_555
C3_4 N1_4 1_555 1_555
H5_4 C3_4 1_555 1_555
N6_4 H14_4 1_555 1_555
C20_4 N6_4 1_555 1_555
C21_4 N6_4 1_555 1_555
H17_4 C21_4 1_555 1_555

#END
