
###############################################################################
#
# This file contains modified crystal structure data generated from the
# MOF subset of the Cambridge Structural Database (CSD) v543 
# hosted by the Cambridge Crystallographic Data Centre (CCDC).
#
# This work is licensed under the Creative Commons
# Attribution-NonCommercial-ShareAlike 4.0 International License.
# To view a copy of this license, visit
# http://creativecommons.org/licenses/by-nc-sa/4.0/
# or send a letter to
# Creative Commons, PO Box 1866, Mountain View, CA 94042, USA.
#
# CIF created using the CSD Python API on 29 September 2022
# The structure has been converted into the P1 space group
# The structure has a 3D framework
# The original CSD entry CECGUP is in the tetragonal crystal system
# The framework has been calculated to contain at least 10.0% void space
# The void calculation uses a probe of radius 1.32A, grid spacing 0.4
#
###############################################################################

data_CECGUP
_chemical_formula_moiety         '(C160 H96 F32 N32 Si6 Zn20)n'
_symmetry_cell_setting           triclinic
_symmetry_space_group_name_H-M   'P 1'
_symmetry_Int_Tables_number      1
_space_group_name_Hall           'P 1'
loop_
_symmetry_equiv_pos_site_id
_symmetry_equiv_pos_as_xyz
1 x,y,z
_cell_length_a                   13.985(10)
_cell_length_b                   13.985(10)
_cell_length_c                   24.40(4)
_cell_angle_alpha                90
_cell_angle_beta                 90
_cell_angle_gamma                90
_cell_volume                     4772.16
loop_
_atom_site_label
_atom_site_type_symbol
_atom_site_fract_x
_atom_site_fract_y
_atom_site_fract_z
Zn7 Zn -0.0000 -0.0000 0.34038(10)
Zn10 Zn -0.0000 -0.0000 0.65962(10)
Zn7_2 Zn -0.0000 1.0000 0.34038(10)
Zn10_2 Zn -0.0000 1.0000 0.65962(10)
Zn7_3 Zn 1.0000 -0.0000 0.34038(10)
Zn10_3 Zn 1.0000 -0.0000 0.65962(10)
Zn2 Zn 0.0000 0.0000 0.17554(10)
Si1 Si 0.0000 0.0000 0.5000
F1 F 0.0000 0.0000 0.2582(4)
F2 F 0.0000 0.0000 0.4292(5)
N1 N 0.1229(5) 0.0941(5) 0.3450(3)
N2 N 0.3529(5) 0.4908(4) 0.3389(4)
C1 C 0.1845(6) 0.0992(6) 0.3035(5)
H1 H 0.1792 0.0551 0.2751
C2 C 0.2564(6) 0.1675(6) 0.3009(4)
H2 H 0.2979 0.1692 0.2712
C3 C 0.2658(6) 0.2342(6) 0.3438(4)
C4 C 0.2037(6) 0.2250(6) 0.3882(4)
H3 H 0.2091 0.2660 0.4180
C5 C 0.1332(6) 0.1540(6) 0.3877(5)
H4 H 0.0926 0.1480 0.4177
C6 C 0.3375(6) 0.3144(6) 0.3401(4)
C7 C 0.2990(5) 0.4081(6) 0.3401(4)
C8 C 0.1995(6) 0.4314(6) 0.3429(5)
H5 H 0.1488 0.3884 0.3447
C9 C 0.1933(6) 0.5272(6) 0.3423(5)
H6 H 0.1371 0.5627 0.3435
C10 C 0.2895(6) 0.5654(6) 0.3396(5)
F6 F 0.1189(5) 0.0062(6) 0.5000
F7 F 0.0000 0.0000 0.5708(5)
N3 N 0.9059(5) 0.1229(5) 0.3450(3)
N4 N 0.5092(4) 0.3529(5) 0.3389(4)
C11 C 0.9008(6) 0.1845(6) 0.3035(5)
H7 H 0.9449 0.1792 0.2751
C12 C 0.8325(6) 0.2564(6) 0.3009(4)
H8 H 0.8308 0.2979 0.2712
C13 C 0.7658(6) 0.2658(6) 0.3438(4)
C14 C 0.7750(6) 0.2037(6) 0.3882(4)
H9 H 0.7340 0.2091 0.4180
C15 C 0.8460(6) 0.1332(6) 0.3877(5)
H10 H 0.8520 0.0926 0.4177
C16 C 0.6856(6) 0.3375(6) 0.3401(4)
C17 C 0.5919(6) 0.2990(5) 0.3401(4)
C18 C 0.5686(6) 0.1995(6) 0.3429(5)
H11 H 0.6116 0.1488 0.3447
C19 C 0.4728(6) 0.1933(6) 0.3423(5)
H12 H 0.4373 0.1371 0.3435
C20 C 0.4346(6) 0.2895(6) 0.3396(5)
N5 N 0.0941(5) 0.8771(5) 0.3450(3)
N6 N 0.4908(4) 0.6471(5) 0.3389(4)
C21 C 0.0992(6) 0.8155(6) 0.3035(5)
H13 H 0.0551 0.8208 0.2751
C22 C 0.1675(6) 0.7436(6) 0.3009(4)
H14 H 0.1692 0.7021 0.2712
C23 C 0.2342(6) 0.7342(6) 0.3438(4)
C24 C 0.2250(6) 0.7963(6) 0.3882(4)
H15 H 0.2660 0.7909 0.4180
C25 C 0.1540(6) 0.8668(6) 0.3877(5)
H16 H 0.1480 0.9074 0.4177
C26 C 0.3144(6) 0.6625(6) 0.3401(4)
C27 C 0.4081(6) 0.7010(5) 0.3401(4)
C28 C 0.4314(6) 0.8005(6) 0.3429(5)
H17 H 0.3884 0.8512 0.3447
C29 C 0.5272(6) 0.8067(6) 0.3423(5)
H18 H 0.5627 0.8629 0.3435
C30 C 0.5654(6) 0.7105(6) 0.3396(5)
N7 N 0.8771(5) 0.9059(5) 0.3450(3)
N8 N 0.6471(5) 0.5092(4) 0.3389(4)
C31 C 0.8155(6) 0.9008(6) 0.3035(5)
H19 H 0.8208 0.9449 0.2751
C32 C 0.7436(6) 0.8325(6) 0.3009(4)
H20 H 0.7021 0.8308 0.2712
C33 C 0.7342(6) 0.7658(6) 0.3438(4)
C34 C 0.7963(6) 0.7750(6) 0.3882(4)
H21 H 0.7909 0.7340 0.4180
C35 C 0.8668(6) 0.8460(6) 0.3877(5)
H22 H 0.9074 0.8520 0.4177
C36 C 0.6625(6) 0.6856(6) 0.3401(4)
C37 C 0.7010(5) 0.5919(6) 0.3401(4)
C38 C 0.8005(6) 0.5686(6) 0.3429(5)
H23 H 0.8512 0.6116 0.3447
C39 C 0.8067(6) 0.4728(6) 0.3423(5)
H24 H 0.8629 0.4373 0.3435
C40 C 0.7105(6) 0.4346(6) 0.3396(5)
Zn4 Zn 0.0000 0.0000 0.82446(10)
F8 F 0.0000 0.0000 0.7418(4)
N9 N 0.1229(5) 0.0941(5) 0.6550(3)
N10 N 0.3529(5) 0.4908(4) 0.6611(4)
C41 C 0.1845(6) 0.0992(6) 0.6965(5)
H25 H 0.1792 0.0551 0.7249
C42 C 0.2564(6) 0.1675(6) 0.6991(4)
H26 H 0.2979 0.1692 0.7288
C43 C 0.2658(6) 0.2342(6) 0.6562(4)
C44 C 0.2037(6) 0.2250(6) 0.6118(4)
H27 H 0.2091 0.2660 0.5820
C45 C 0.1332(6) 0.1540(6) 0.6123(5)
H28 H 0.0926 0.1480 0.5823
C46 C 0.3375(6) 0.3144(6) 0.6599(4)
C47 C 0.2990(5) 0.4081(6) 0.6599(4)
C48 C 0.1995(6) 0.4314(6) 0.6571(5)
H29 H 0.1488 0.3884 0.6553
C49 C 0.1933(6) 0.5272(6) 0.6577(5)
H30 H 0.1371 0.5627 0.6565
C50 C 0.2895(6) 0.5654(6) 0.6604(5)
N11 N 0.9059(5) 0.1229(5) 0.6550(3)
N12 N 0.5092(4) 0.3529(5) 0.6611(4)
C51 C 0.9008(6) 0.1845(6) 0.6965(5)
H31 H 0.9449 0.1792 0.7249
C52 C 0.8325(6) 0.2564(6) 0.6991(4)
H32 H 0.8308 0.2979 0.7288
C53 C 0.7658(6) 0.2658(6) 0.6562(4)
C54 C 0.7750(6) 0.2037(6) 0.6118(4)
H33 H 0.7340 0.2091 0.5820
C55 C 0.8460(6) 0.1332(6) 0.6123(5)
H34 H 0.8520 0.0926 0.5823
C56 C 0.6856(6) 0.3375(6) 0.6599(4)
C57 C 0.5919(6) 0.2990(5) 0.6599(4)
C58 C 0.5686(6) 0.1995(6) 0.6571(5)
H35 H 0.6116 0.1488 0.6553
C59 C 0.4728(6) 0.1933(6) 0.6577(5)
H36 H 0.4373 0.1371 0.6565
C60 C 0.4346(6) 0.2895(6) 0.6604(5)
N13 N 0.0941(5) 0.8771(5) 0.6550(3)
N14 N 0.4908(4) 0.6471(5) 0.6611(4)
C61 C 0.0992(6) 0.8155(6) 0.6965(5)
H37 H 0.0551 0.8208 0.7249
C62 C 0.1675(6) 0.7436(6) 0.6991(4)
H38 H 0.1692 0.7021 0.7288
C63 C 0.2342(6) 0.7342(6) 0.6562(4)
C64 C 0.2250(6) 0.7963(6) 0.6118(4)
H39 H 0.2660 0.7909 0.5820
C65 C 0.1540(6) 0.8668(6) 0.6123(5)
H40 H 0.1480 0.9074 0.5823
C66 C 0.3144(6) 0.6625(6) 0.6599(4)
C67 C 0.4081(6) 0.7010(5) 0.6599(4)
C68 C 0.4314(6) 0.8005(6) 0.6571(5)
H41 H 0.3884 0.8512 0.6553
C69 C 0.5272(6) 0.8067(6) 0.6577(5)
H42 H 0.5627 0.8629 0.6565
C70 C 0.5654(6) 0.7105(6) 0.6604(5)
N15 N 0.8771(5) 0.9059(5) 0.6550(3)
N16 N 0.6471(5) 0.5092(4) 0.6611(4)
C71 C 0.8155(6) 0.9008(6) 0.6965(5)
H43 H 0.8208 0.9449 0.7249
C72 C 0.7436(6) 0.8325(6) 0.6991(4)
H44 H 0.7021 0.8308 0.7288
C73 C 0.7342(6) 0.7658(6) 0.6562(4)
C74 C 0.7963(6) 0.7750(6) 0.6118(4)
H45 H 0.7909 0.7340 0.5820
C75 C 0.8668(6) 0.8460(6) 0.6123(5)
H46 H 0.9074 0.8520 0.5823
C76 C 0.6625(6) 0.6856(6) 0.6599(4)
C77 C 0.7010(5) 0.5919(6) 0.6599(4)
C78 C 0.8005(6) 0.5686(6) 0.6571(5)
H47 H 0.8512 0.6116 0.6553
C79 C 0.8067(6) 0.4728(6) 0.6577(5)
H48 H 0.8629 0.4373 0.6565
C80 C 0.7105(6) 0.4346(6) 0.6604(5)
Zn7_4 Zn 1.0000 1.0000 0.34038(10)
Zn10_4 Zn 1.0000 1.0000 0.65962(10)
Zn11 Zn 0.5000 0.5000 0.67554(10)
Zn12 Zn 0.5000 0.5000 0.32446(10)
N24 N 0.1471(5) 0.0092(4) 0.8389(4)
N27 N 0.1471(5) 0.0092(4) 0.1611(4)
Zn2_2 Zn -0.0000 1.0000 0.17554(10)
Si1_2 Si 0.0000 1.0000 0.5000
F1_2 F 0.0000 1.0000 0.2582(4)
F2_2 F 0.0000 1.0000 0.4292(5)
F4 F 0.0062(6) 0.8811(5) 0.5000
F7_2 F 0.0000 1.0000 0.5708(5)
Zn4_2 Zn 0.0000 1.0000 0.82446(10)
F8_2 F 0.0000 1.0000 0.7418(4)
N25 N 0.0092(4) 0.8529(5) 0.8389(4)
N30 N 0.0092(4) 0.8529(5) 0.1611(4)
Zn2_3 Zn 1.0000 0.0000 0.17554(10)
Si1_3 Si 1.0000 0.0000 0.5000
F1_3 F 1.0000 0.0000 0.2582(4)
F2_3 F 1.0000 0.0000 0.4292(5)
F3 F 0.9938(6) 0.1189(5) 0.5000
F7_3 F 1.0000 0.0000 0.5708(5)
Zn4_3 Zn 1.0000 0.0000 0.82446(10)
F8_3 F 1.0000 0.0000 0.7418(4)
N26 N 0.9908(4) 0.1471(5) 0.8389(4)
N29 N 0.9908(4) 0.1471(5) 0.1611(4)
Zn2_4 Zn 1.0000 1.0000 0.17554(10)
Si1_4 Si 1.0000 1.0000 0.5000
F1_4 F 1.0000 1.0000 0.2582(4)
F2_4 F 1.0000 1.0000 0.4292(5)
F5 F 0.8811(5) 0.9938(6) 0.5000
F7_4 F 1.0000 1.0000 0.5708(5)
Zn4_4 Zn 1.0000 1.0000 0.82446(10)
F8_4 F 1.0000 1.0000 0.7418(4)
N23 N 0.8529(5) 0.9908(4) 0.8389(4)
N28 N 0.8529(5) 0.9908(4) 0.1611(4)
C69_2 C 0.0272(6) 0.3067(6) 0.1577(5)
H42_2 H 0.0627 0.3629 0.1565
C70_2 C 0.0654(6) 0.2105(6) 0.1604(5)
N15_2 N 0.3771(5) 0.4059(5) 0.1550(3)
C71_2 C 0.3155(6) 0.4008(6) 0.1965(5)
H43_2 H 0.3208 0.4449 0.2249
C72_2 C 0.2436(6) 0.3325(6) 0.1991(4)
H44_2 H 0.2021 0.3308 0.2288
C73_2 C 0.2342(6) 0.2658(6) 0.1562(4)
C74_2 C 0.2963(6) 0.2750(6) 0.1118(4)
H45_2 H 0.2909 0.2340 0.0820
C75_2 C 0.3668(6) 0.3460(6) 0.1123(5)
H46_2 H 0.4074 0.3520 0.0823
C76_2 C 0.1625(6) 0.1856(6) 0.1599(4)
C77_2 C 0.2010(5) 0.0919(6) 0.1599(4)
C78_2 C 0.3005(6) 0.0686(6) 0.1571(5)
H47_2 H 0.3512 0.1116 0.1553
Zn10_5 Zn 0.5000 0.5000 0.15962(10)
C29_2 C 0.0272(6) 0.3067(6) 0.8423(5)
H18_2 H 0.0627 0.3629 0.8435
C30_2 C 0.0654(6) 0.2105(6) 0.8396(5)
N7_2 N 0.3771(5) 0.4059(5) 0.8450(3)
C31_2 C 0.3155(6) 0.4008(6) 0.8035(5)
H19_2 H 0.3208 0.4449 0.7751
C32_2 C 0.2436(6) 0.3325(6) 0.8009(4)
H20_2 H 0.2021 0.3308 0.7712
C33_2 C 0.2342(6) 0.2658(6) 0.8438(4)
C34_2 C 0.2963(6) 0.2750(6) 0.8882(4)
H21_2 H 0.2909 0.2340 0.9180
C35_2 C 0.3668(6) 0.3460(6) 0.8877(5)
H22_2 H 0.4074 0.3520 0.9177
C36_2 C 0.1625(6) 0.1856(6) 0.8401(4)
C37_2 C 0.2010(5) 0.0919(6) 0.8401(4)
C38_2 C 0.3005(6) 0.0686(6) 0.8429(5)
H23_2 H 0.3512 0.1116 0.8447
Zn7_5 Zn 0.5000 0.5000 0.84038(10)
N11_2 N 0.4059(5) 0.6229(5) 0.1550(3)
C51_2 C 0.4008(6) 0.6845(6) 0.1965(5)
H31_2 H 0.4449 0.6792 0.2249
C52_2 C 0.3325(6) 0.7564(6) 0.1991(4)
H32_2 H 0.3308 0.7979 0.2288
C53_2 C 0.2658(6) 0.7658(6) 0.1562(4)
C54_2 C 0.2750(6) 0.7037(6) 0.1118(4)
H33_2 H 0.2340 0.7091 0.0820
C55_2 C 0.3460(6) 0.6332(6) 0.1123(5)
H34_2 H 0.3520 0.5926 0.0823
C56_2 C 0.1856(6) 0.8375(6) 0.1599(4)
C57_2 C 0.0919(6) 0.7990(5) 0.1599(4)
C58_2 C 0.0686(6) 0.6995(6) 0.1571(5)
H35_2 H 0.1116 0.6488 0.1553
C79_2 C 0.3067(6) 0.9728(6) 0.1577(5)
H48_2 H 0.3629 0.9373 0.1565
C80_2 C 0.2105(6) 0.9346(6) 0.1604(5)
N3_2 N 0.4059(5) 0.6229(5) 0.8450(3)
C11_2 C 0.4008(6) 0.6845(6) 0.8035(5)
H7_2 H 0.4449 0.6792 0.7751
C12_2 C 0.3325(6) 0.7564(6) 0.8009(4)
H8_2 H 0.3308 0.7979 0.7712
C13_2 C 0.2658(6) 0.7658(6) 0.8438(4)
C14_2 C 0.2750(6) 0.7037(6) 0.8882(4)
H9_2 H 0.2340 0.7091 0.9180
C15_2 C 0.3460(6) 0.6332(6) 0.8877(5)
H10_2 H 0.3520 0.5926 0.9177
C16_2 C 0.1856(6) 0.8375(6) 0.8401(4)
C17_2 C 0.0919(6) 0.7990(5) 0.8401(4)
C18_2 C 0.0686(6) 0.6995(6) 0.8429(5)
H11_2 H 0.1116 0.6488 0.8447
C39_2 C 0.3067(6) 0.9728(6) 0.8423(5)
H24_2 H 0.3629 0.9373 0.8435
C40_2 C 0.2105(6) 0.9346(6) 0.8396(5)
C49_2 C 0.6933(6) 0.0272(6) 0.1577(5)
H30_2 H 0.6371 0.0627 0.1565
C50_2 C 0.7895(6) 0.0654(6) 0.1604(5)
N13_2 N 0.5941(5) 0.3771(5) 0.1550(3)
C61_2 C 0.5992(6) 0.3155(6) 0.1965(5)
H37_2 H 0.5551 0.3208 0.2249
C62_2 C 0.6675(6) 0.2436(6) 0.1991(4)
H38_2 H 0.6692 0.2021 0.2288
C63_2 C 0.7342(6) 0.2342(6) 0.1562(4)
C64_2 C 0.7250(6) 0.2963(6) 0.1118(4)
H39_2 H 0.7660 0.2909 0.0820
C65_2 C 0.6540(6) 0.3668(6) 0.1123(5)
H40_2 H 0.6480 0.4074 0.0823
C66_2 C 0.8144(6) 0.1625(6) 0.1599(4)
C67_2 C 0.9081(6) 0.2010(5) 0.1599(4)
C68_2 C 0.9314(6) 0.3005(6) 0.1571(5)
H41_2 H 0.8884 0.3512 0.1553
C9_2 C 0.6933(6) 0.0272(6) 0.8423(5)
H6_2 H 0.6371 0.0627 0.8435
C10_2 C 0.7895(6) 0.0654(6) 0.8396(5)
N5_2 N 0.5941(5) 0.3771(5) 0.8450(3)
C21_2 C 0.5992(6) 0.3155(6) 0.8035(5)
H13_2 H 0.5551 0.3208 0.7751
C22_2 C 0.6675(6) 0.2436(6) 0.8009(4)
H14_2 H 0.6692 0.2021 0.7712
C23_2 C 0.7342(6) 0.2342(6) 0.8438(4)
C24_2 C 0.7250(6) 0.2963(6) 0.8882(4)
H15_2 H 0.7660 0.2909 0.9180
C25_2 C 0.6540(6) 0.3668(6) 0.8877(5)
H16_2 H 0.6480 0.4074 0.9177
C26_2 C 0.8144(6) 0.1625(6) 0.8401(4)
C27_2 C 0.9081(6) 0.2010(5) 0.8401(4)
C28_2 C 0.9314(6) 0.3005(6) 0.8429(5)
H17_2 H 0.8884 0.3512 0.8447
Si1_5 Si 0.5000 0.5000 -0.0000
F3_2 F 0.4938(6) 0.6189(5) -0.0000
F4_2 F 0.5062(6) 0.3811(5) -0.0000
F5_2 F 0.3811(5) 0.4938(6) -0.0000
F6_2 F 0.6189(5) 0.5062(6) -0.0000
F7_5 F 0.5000 0.5000 0.0708(5)
F8_5 F 0.5000 0.5000 0.2418(4)
N9_2 N 0.6229(5) 0.5941(5) 0.1550(3)
C41_2 C 0.6845(6) 0.5992(6) 0.1965(5)
H25_2 H 0.6792 0.5551 0.2249
C42_2 C 0.7564(6) 0.6675(6) 0.1991(4)
H26_2 H 0.7979 0.6692 0.2288
C43_2 C 0.7658(6) 0.7342(6) 0.1562(4)
C44_2 C 0.7037(6) 0.7250(6) 0.1118(4)
H27_2 H 0.7091 0.7660 0.0820
C45_2 C 0.6332(6) 0.6540(6) 0.1123(5)
H28_2 H 0.5926 0.6480 0.0823
C46_2 C 0.8375(6) 0.8144(6) 0.1599(4)
C47_2 C 0.7990(5) 0.9081(6) 0.1599(4)
C48_2 C 0.6995(6) 0.9314(6) 0.1571(5)
H29_2 H 0.6488 0.8884 0.1553
C59_2 C 0.9728(6) 0.6933(6) 0.1577(5)
H36_2 H 0.9373 0.6371 0.1565
C60_2 C 0.9346(6) 0.7895(6) 0.1604(5)
Si1_6 Si 0.5000 0.5000 1.0000
F1_5 F 0.5000 0.5000 0.7582(4)
F2_5 F 0.5000 0.5000 0.9292(5)
F3_3 F 0.4938(6) 0.6189(5) 1.0000
N1_2 N 0.6229(5) 0.5941(5) 0.8450(3)
C1_2 C 0.6845(6) 0.5992(6) 0.8035(5)
H1_2 H 0.6792 0.5551 0.7751
C2_2 C 0.7564(6) 0.6675(6) 0.8009(4)
H2_2 H 0.7979 0.6692 0.7712
C3_2 C 0.7658(6) 0.7342(6) 0.8438(4)
C4_2 C 0.7037(6) 0.7250(6) 0.8882(4)
H3_2 H 0.7091 0.7660 0.9180
C5_2 C 0.6332(6) 0.6540(6) 0.8877(5)
H4_2 H 0.5926 0.6480 0.9177
C6_2 C 0.8375(6) 0.8144(6) 0.8401(4)
C7_2 C 0.7990(5) 0.9081(6) 0.8401(4)
C8_2 C 0.6995(6) 0.9314(6) 0.8429(5)
H5_2 H 0.6488 0.8884 0.8447
F4_3 F 0.5062(6) 0.3811(5) 1.0000
F5_3 F 0.3811(5) 0.4938(6) 1.0000
F6_3 F 0.6189(5) 0.5062(6) 1.0000
C19_2 C 0.9728(6) 0.6933(6) 0.8423(5)
H12_2 H 0.9373 0.6371 0.8435
C20_2 C 0.9346(6) 0.7895(6) 0.8396(5)
loop_
_geom_bond_atom_site_label_1
_geom_bond_atom_site_label_2
_geom_bond_site_symmetry_1
_geom_bond_site_symmetry_2
Zn7 F1 1_555 1_555
Zn2 F1 1_555 1_555
Si1 F2 1_555 1_555
F2 Zn7 1_555 1_555
N1 Zn7 1_555 1_555
N2 C7 1_555 1_555
C1 N1 1_555 1_555
H1 C1 1_555 1_555
C2 C1 1_555 1_555
H2 C2 1_555 1_555
C3 C2 1_555 1_555
C4 C3 1_555 1_555
H3 C4 1_555 1_555
C5 N1 1_555 1_555
H4 C5 1_555 1_555
C6 C3 1_555 1_555
C7 C6 1_555 1_555
C8 C7 1_555 1_555
H5 C8 1_555 1_555
C9 C8 1_555 1_555
H6 C9 1_555 1_555
C10 N2 1_555 1_555
F6 Si1 1_555 1_555
F7 Si1 1_555 1_555
N3 C11 1_555 1_555
N4 C17 1_555 1_555
C11 H7 1_555 1_555
C12 C11 1_555 1_555
H8 C12 1_555 1_555
C13 C12 1_555 1_555
C14 C13 1_555 1_555
H9 C14 1_555 1_555
C15 N3 1_555 1_555
H10 C15 1_555 1_555
C16 C13 1_555 1_555
C17 C16 1_555 1_555
C18 C17 1_555 1_555
H11 C18 1_555 1_555
C19 C18 1_555 1_555
H12 C19 1_555 1_555
C20 C6 1_555 1_555
N5 C21 1_555 1_555
N6 C27 1_555 1_555
C21 H13 1_555 1_555
C22 C21 1_555 1_555
H14 C22 1_555 1_555
C23 C22 1_555 1_555
C24 C23 1_555 1_555
H15 C24 1_555 1_555
C25 N5 1_555 1_555
H16 C25 1_555 1_555
C26 C10 1_555 1_555
C27 C26 1_555 1_555
C28 C27 1_555 1_555
H17 C28 1_555 1_555
C29 C28 1_555 1_555
H18 C29 1_555 1_555
C30 N6 1_555 1_555
N7 C31 1_555 1_555
N8 C37 1_555 1_555
C31 H19 1_555 1_555
C32 C31 1_555 1_555
H20 C32 1_555 1_555
C33 C32 1_555 1_555
C34 C33 1_555 1_555
H21 C34 1_555 1_555
C35 N7 1_555 1_555
H22 C35 1_555 1_555
C36 C30 1_555 1_555
C37 C36 1_555 1_555
C38 C37 1_555 1_555
H23 C38 1_555 1_555
C39 C38 1_555 1_555
H24 C39 1_555 1_555
C40 C16 1_555 1_555
Zn10 F7 1_555 1_555
Zn4 F8 1_555 1_555
F8 Zn10 1_555 1_555
N9 Zn10 1_555 1_555
N10 C47 1_555 1_555
C41 N9 1_555 1_555
H25 C41 1_555 1_555
C42 C41 1_555 1_555
H26 C42 1_555 1_555
C43 C42 1_555 1_555
C44 C43 1_555 1_555
H27 C44 1_555 1_555
C45 N9 1_555 1_555
H28 C45 1_555 1_555
C46 C43 1_555 1_555
C47 C46 1_555 1_555
C48 C47 1_555 1_555
H29 C48 1_555 1_555
C49 C48 1_555 1_555
H30 C49 1_555 1_555
C50 N10 1_555 1_555
N11 C51 1_555 1_555
N12 C57 1_555 1_555
C51 H31 1_555 1_555
C52 C51 1_555 1_555
H32 C52 1_555 1_555
C53 C52 1_555 1_555
C54 C53 1_555 1_555
H33 C54 1_555 1_555
C55 N11 1_555 1_555
H34 C55 1_555 1_555
C56 C53 1_555 1_555
C57 C56 1_555 1_555
C58 C57 1_555 1_555
H35 C58 1_555 1_555
C59 C58 1_555 1_555
H36 C59 1_555 1_555
C60 C46 1_555 1_555
N13 C61 1_555 1_555
N14 C67 1_555 1_555
C61 H37 1_555 1_555
C62 C61 1_555 1_555
H38 C62 1_555 1_555
C63 C62 1_555 1_555
C64 C63 1_555 1_555
H39 C64 1_555 1_555
C65 N13 1_555 1_555
H40 C65 1_555 1_555
C66 C50 1_555 1_555
C67 C66 1_555 1_555
C68 C67 1_555 1_555
H41 C68 1_555 1_555
C69 C68 1_555 1_555
H42 C69 1_555 1_555
C70 N14 1_555 1_555
N15 C71 1_555 1_555
N16 C77 1_555 1_555
C71 H43 1_555 1_555
C72 C71 1_555 1_555
H44 C72 1_555 1_555
C73 C72 1_555 1_555
C74 C73 1_555 1_555
H45 C74 1_555 1_555
C75 N15 1_555 1_555
H46 C75 1_555 1_555
C76 C70 1_555 1_555
C77 C76 1_555 1_555
C78 C77 1_555 1_555
H47 C78 1_555 1_555
C79 C78 1_555 1_555
H48 C79 1_555 1_555
C80 C56 1_555 1_555
Zn7_2 N5 1_555 1_555
Zn7_3 N3 1_555 1_555
Zn7_4 N7 1_555 1_555
Zn10_2 N13 1_555 1_555
Zn10_3 N11 1_555 1_555
Zn10_4 N15 1_555 1_555
Zn11 N10 1_555 1_555
Zn12 N2 1_555 1_555
N24 Zn4 1_555 1_555
N27 Zn2 1_555 1_555
C4 C5 1_555 1_555
C9 C10 1_555 1_555
N4 C20 1_555 1_555
N4 Zn12 1_555 1_555
C14 C15 1_555 1_555
C19 C20 1_555 1_555
N6 Zn12 1_555 1_555
C23 C26 1_555 1_555
C24 C25 1_555 1_555
C29 C30 1_555 1_555
N8 C40 1_555 1_555
N8 Zn12 1_555 1_555
C33 C36 1_555 1_555
C34 C35 1_555 1_555
C39 C40 1_555 1_555
C44 C45 1_555 1_555
C49 C50 1_555 1_555
N12 C60 1_555 1_555
N12 Zn11 1_555 1_555
C54 C55 1_555 1_555
C59 C60 1_555 1_555
N14 Zn11 1_555 1_555
C63 C66 1_555 1_555
C64 C65 1_555 1_555
C69 C70 1_555 1_555
N16 C80 1_555 1_555
N16 Zn11 1_555 1_555
C73 C76 1_555 1_555
C74 C75 1_555 1_555
C79 C80 1_555 1_555
Zn7_2 F1_2 1_555 1_555
Zn2_2 F1_2 1_555 1_555
Si1_2 F2_2 1_555 1_555
F2_2 Zn7_2 1_555 1_555
F4 Si1_2 1_555 1_555
F7_2 Si1_2 1_555 1_555
Zn10_2 F7_2 1_555 1_555
Zn4_2 F8_2 1_555 1_555
F8_2 Zn10_2 1_555 1_555
N25 Zn4_2 1_555 1_555
N30 Zn2_2 1_555 1_555
Zn7_3 F1_3 1_555 1_555
Zn2_3 F1_3 1_555 1_555
Si1_3 F2_3 1_555 1_555
F2_3 Zn7_3 1_555 1_555
F3 Si1_3 1_555 1_555
F7_3 Si1_3 1_555 1_555
Zn10_3 F7_3 1_555 1_555
Zn4_3 F8_3 1_555 1_555
F8_3 Zn10_3 1_555 1_555
N26 Zn4_3 1_555 1_555
N29 Zn2_3 1_555 1_555
Zn7_4 F1_4 1_555 1_555
Zn2_4 F1_4 1_555 1_555
Si1_4 F2_4 1_555 1_555
F2_4 Zn7_4 1_555 1_555
F5 Si1_4 1_555 1_555
F7_4 Si1_4 1_555 1_555
Zn10_4 F7_4 1_555 1_555
Zn4_4 F8_4 1_555 1_555
F8_4 Zn10_4 1_555 1_555
N23 Zn4_4 1_555 1_555
N28 Zn2_4 1_555 1_555
H42_2 C69_2 1_555 1_555
N15_2 C71_2 1_555 1_555
N27 C77_2 1_555 1_555
C71_2 H43_2 1_555 1_555
C72_2 C71_2 1_555 1_555
H44_2 C72_2 1_555 1_555
C73_2 C72_2 1_555 1_555
C74_2 C73_2 1_555 1_555
H45_2 C74_2 1_555 1_555
C75_2 N15_2 1_555 1_555
H46_2 C75_2 1_555 1_555
C76_2 C70_2 1_555 1_555
C77_2 C76_2 1_555 1_555
C78_2 C77_2 1_555 1_555
H47_2 C78_2 1_555 1_555
Zn10_5 N15_2 1_555 1_555
C69_2 C70_2 1_555 1_555
C73_2 C76_2 1_555 1_555
C74_2 C75_2 1_555 1_555
H18_2 C29_2 1_555 1_555
N7_2 C31_2 1_555 1_555
N24 C37_2 1_555 1_555
C31_2 H19_2 1_555 1_555
C32_2 C31_2 1_555 1_555
H20_2 C32_2 1_555 1_555
C33_2 C32_2 1_555 1_555
C34_2 C33_2 1_555 1_555
H21_2 C34_2 1_555 1_555
C35_2 N7_2 1_555 1_555
H22_2 C35_2 1_555 1_555
C36_2 C30_2 1_555 1_555
C37_2 C36_2 1_555 1_555
C38_2 C37_2 1_555 1_555
H23_2 C38_2 1_555 1_555
Zn7_5 N7_2 1_555 1_555
C29_2 C30_2 1_555 1_555
C33_2 C36_2 1_555 1_555
C34_2 C35_2 1_555 1_555
N11_2 C51_2 1_555 1_555
N30 C57_2 1_555 1_555
C51_2 H31_2 1_555 1_555
C52_2 C51_2 1_555 1_555
H32_2 C52_2 1_555 1_555
C53_2 C52_2 1_555 1_555
C54_2 C53_2 1_555 1_555
H33_2 C54_2 1_555 1_555
C55_2 N11_2 1_555 1_555
H34_2 C55_2 1_555 1_555
C56_2 C53_2 1_555 1_555
C57_2 C56_2 1_555 1_555
C58_2 C57_2 1_555 1_555
H35_2 C58_2 1_555 1_555
H48_2 C79_2 1_555 1_555
C80_2 C56_2 1_555 1_555
Zn10_5 N11_2 1_555 1_555
C54_2 C55_2 1_555 1_555
C79_2 C80_2 1_555 1_555
N3_2 C11_2 1_555 1_555
N25 C17_2 1_555 1_555
C11_2 H7_2 1_555 1_555
C12_2 C11_2 1_555 1_555
H8_2 C12_2 1_555 1_555
C13_2 C12_2 1_555 1_555
C14_2 C13_2 1_555 1_555
H9_2 C14_2 1_555 1_555
C15_2 N3_2 1_555 1_555
H10_2 C15_2 1_555 1_555
C16_2 C13_2 1_555 1_555
C17_2 C16_2 1_555 1_555
C18_2 C17_2 1_555 1_555
H11_2 C18_2 1_555 1_555
H24_2 C39_2 1_555 1_555
C40_2 C16_2 1_555 1_555
Zn7_5 N3_2 1_555 1_555
C14_2 C15_2 1_555 1_555
C39_2 C40_2 1_555 1_555
H30_2 C49_2 1_555 1_555
N13_2 C61_2 1_555 1_555
N29 C67_2 1_555 1_555
C61_2 H37_2 1_555 1_555
C62_2 C61_2 1_555 1_555
H38_2 C62_2 1_555 1_555
C63_2 C62_2 1_555 1_555
C64_2 C63_2 1_555 1_555
H39_2 C64_2 1_555 1_555
C65_2 N13_2 1_555 1_555
H40_2 C65_2 1_555 1_555
C66_2 C50_2 1_555 1_555
C67_2 C66_2 1_555 1_555
C68_2 C67_2 1_555 1_555
H41_2 C68_2 1_555 1_555
Zn10_5 N13_2 1_555 1_555
C49_2 C50_2 1_555 1_555
C63_2 C66_2 1_555 1_555
C64_2 C65_2 1_555 1_555
H6_2 C9_2 1_555 1_555
N5_2 C21_2 1_555 1_555
N26 C27_2 1_555 1_555
C21_2 H13_2 1_555 1_555
C22_2 C21_2 1_555 1_555
H14_2 C22_2 1_555 1_555
C23_2 C22_2 1_555 1_555
C24_2 C23_2 1_555 1_555
H15_2 C24_2 1_555 1_555
C25_2 N5_2 1_555 1_555
H16_2 C25_2 1_555 1_555
C26_2 C10_2 1_555 1_555
C27_2 C26_2 1_555 1_555
C28_2 C27_2 1_555 1_555
H17_2 C28_2 1_555 1_555
Zn7_5 N5_2 1_555 1_555
C9_2 C10_2 1_555 1_555
C23_2 C26_2 1_555 1_555
C24_2 C25_2 1_555 1_555
F3_2 Si1_5 1_555 1_555
F4_2 Si1_5 1_555 1_555
F5_2 Si1_5 1_555 1_555
F6_2 Si1_5 1_555 1_555
F7_5 Si1_5 1_555 1_555
Zn10_5 F7_5 1_555 1_555
Zn12 F8_5 1_555 1_555
F8_5 Zn10_5 1_555 1_555
N9_2 Zn10_5 1_555 1_555
N28 C47_2 1_555 1_555
C41_2 N9_2 1_555 1_555
H25_2 C41_2 1_555 1_555
C42_2 C41_2 1_555 1_555
H26_2 C42_2 1_555 1_555
C43_2 C42_2 1_555 1_555
C44_2 C43_2 1_555 1_555
H27_2 C44_2 1_555 1_555
C45_2 N9_2 1_555 1_555
H28_2 C45_2 1_555 1_555
C46_2 C43_2 1_555 1_555
C47_2 C46_2 1_555 1_555
C48_2 C47_2 1_555 1_555
H29_2 C48_2 1_555 1_555
H36_2 C59_2 1_555 1_555
C60_2 C46_2 1_555 1_555
C44_2 C45_2 1_555 1_555
C59_2 C60_2 1_555 1_555
Zn7_5 F1_5 1_555 1_555
Zn11 F1_5 1_555 1_555
Si1_6 F2_5 1_555 1_555
F2_5 Zn7_5 1_555 1_555
F3_3 Si1_6 1_555 1_555
N1_2 Zn7_5 1_555 1_555
N23 C7_2 1_555 1_555
C1_2 N1_2 1_555 1_555
H1_2 C1_2 1_555 1_555
C2_2 C1_2 1_555 1_555
H2_2 C2_2 1_555 1_555
C3_2 C2_2 1_555 1_555
C4_2 C3_2 1_555 1_555
H3_2 C4_2 1_555 1_555
C5_2 N1_2 1_555 1_555
H4_2 C5_2 1_555 1_555
C6_2 C3_2 1_555 1_555
C7_2 C6_2 1_555 1_555
C8_2 C7_2 1_555 1_555
H5_2 C8_2 1_555 1_555
F4_3 Si1_6 1_555 1_555
F5_3 Si1_6 1_555 1_555
F6_3 Si1_6 1_555 1_555
H12_2 C19_2 1_555 1_555
C20_2 C6_2 1_555 1_555
C4_2 C5_2 1_555 1_555
C19_2 C20_2 1_555 1_555

#END
