
###############################################################################
#
# This file contains modified crystal structure data generated from the
# MOF subset of the Cambridge Structural Database (CSD) v543 
# hosted by the Cambridge Crystallographic Data Centre (CCDC).
#
# This work is licensed under the Creative Commons
# Attribution-NonCommercial-ShareAlike 4.0 International License.
# To view a copy of this license, visit
# http://creativecommons.org/licenses/by-nc-sa/4.0/
# or send a letter to
# Creative Commons, PO Box 1866, Mountain View, CA 94042, USA.
#
# CIF created using the CSD Python API on 29 September 2022
# The structure has been converted into the P1 space group
# The structure has a 3D framework
# The original CSD entry CECHAW is in the rhombohedral crystal system
# The framework has been calculated to contain at least 10.0% void space
# The void calculation uses a probe of radius 1.32A, grid spacing 0.4
#
###############################################################################

data_CECHAW
_chemical_formula_moiety         '(C360 H216 Cu11 N72)n'
_symmetry_cell_setting           triclinic
_symmetry_space_group_name_H-M   'P 1'
_symmetry_Int_Tables_number      1
_space_group_name_Hall           'P 1'
loop_
_symmetry_equiv_pos_site_id
_symmetry_equiv_pos_as_xyz
1 x,y,z
_cell_length_a                   33.0984(19)
_cell_length_b                   33.0984(19)
_cell_length_c                   9.3673(11)
_cell_angle_alpha                90
_cell_angle_beta                 90
_cell_angle_gamma                120
_cell_volume                     8887.08
loop_
_atom_site_label
_atom_site_type_symbol
_atom_site_fract_x
_atom_site_fract_y
_atom_site_fract_z
Cu1 Cu 0.3333 0.1667 0.1667
N1 N 0.27523(8) 0.16779(8) 0.2397(2)
C5 C 0.27129(10) 0.21706(10) 0.0482(3)
C6 C 0.25659(10) 0.19260(10) 0.1786(3)
C7 C 0.22036(11) 0.18984(11) 0.2687(3)
H3 H 0.2017 0.2029 0.2499
C8 C 0.21815(11) 0.16522(11) 0.3846(3)
H4 H 0.1980 0.1583 0.4617
C9 C 0.25278(10) 0.15142(10) 0.3678(3)
C13 C 0.24612(10) 0.24230(10) 0.0046(3)
C14 C 0.25424(11) 0.28261(10) 0.0741(3)
H7 H 0.2757 0.2947 0.1483
C15 C 0.22996(11) 0.30481(11) 0.0317(3)
H8 H 0.2357 0.3318 0.0796
N5 N 0.39144(8) 0.16554(8) 0.0936(2)
N6 N 0.33304(8) 0.13279(8) 0.3524(2)
N7 N 0.46758(8) 0.04390(8) 0.4067(2)
N8 N 0.17245(12) 0.07424(12) 0.8337(3)
C21 C 0.30013(10) 0.11712(9) 0.4586(3)
C22 C 0.30693(10) 0.08643(11) 0.5525(3)
H13 H 0.2895 0.0716 0.6333
C23 C 0.34320(11) 0.08327(11) 0.5011(3)
H14 H 0.3555 0.0659 0.5401
C24 C 0.35953(10) 0.11195(10) 0.3740(3)
C25 C 0.39538(10) 0.11627(10) 0.2851(3)
C26 C 0.41008(10) 0.14073(10) 0.1547(3)
C27 C 0.44631(11) 0.14349(11) 0.0646(3)
H15 H 0.4650 0.1304 0.0834
C30 C 0.26334(10) 0.12680(10) 0.4686(3)
C31 C 0.47450(11) 0.08253(10) 0.4740(3)
H17 H 0.4957 0.0936 0.5492
C32 C 0.45240(11) 0.10683(11) 0.4391(3)
H18 H 0.4588 0.1336 0.4893
C33 C 0.42055(10) 0.09103(10) 0.3287(3)
C34 C 0.41243(11) 0.05072(10) 0.2592(3)
H19 H 0.3910 0.0386 0.1850
C35 C 0.43671(11) 0.02852(11) 0.3016(3)
H20 H 0.4310 0.0015 0.2537
C36 C 0.15756(13) 0.05957(15) 0.7015(4)
H21 H 0.1263 0.0373 0.6895
C37 C 0.18538(11) 0.07515(12) 0.5805(4)
H22 H 0.1730 0.0635 0.4907
C38 C 0.23221(10) 0.10857(10) 0.5965(3)
C39 C 0.24814(11) 0.12337(11) 0.7331(3)
H23 H 0.2795 0.1449 0.7484
C40 C 0.21787(13) 0.10631(13) 0.8471(3)
H24 H 0.2295 0.1175 0.9379
Cu2 Cu 0.5001 0.0000 0.5000
N9 N 0.37724(8) 0.24299(11) 0.2599(2)
N10 N 0.28943(8) 0.09034(11) 0.0734(2)
N2 N 0.33363(8) 0.20054(8) 0.9809(2)
N3 N 0.19909(8) 0.28943(8) 0.9266(2)
N4 N 0.49422(12) 0.25909(12) 0.4996(3)
C1 C 0.36654(10) 0.21621(9) 0.8747(3)
C2 C 0.35974(10) 0.24690(11) 0.7808(3)
H1 H 0.3772 0.2617 0.7000
C3 C 0.32347(11) 0.25006(11) 0.8322(3)
H2 H 0.3112 0.2674 0.7932
C4 C 0.30714(10) 0.22138(10) 0.9593(3)
C10 C 0.40333(10) 0.20653(10) 0.8647(3)
C11 C 0.19217(11) 0.25080(10) 0.8593(3)
H5 H 0.1710 0.2397 0.7841
C12 C 0.21427(11) 0.22650(11) 0.8942(3)
H6 H 0.2079 0.1997 0.8440
C16 C 0.50911(13) 0.27376(15) 0.6318(4)
H9 H 0.5404 0.2960 0.6438
C17 C 0.48129(11) 0.25818(12) 0.7528(4)
H10 H 0.4937 0.2698 0.8426
C18 C 0.43446(10) 0.22476(10) 0.7368(3)
C19 C 0.41853(11) 0.20996(11) 0.6002(3)
H11 H 0.3872 0.1884 0.5849
C20 C 0.44880(13) 0.22702(13) 0.4862(3)
H12 H 0.4372 0.2158 0.3954
C28 C 0.44852(11) 0.16811(11) 0.9487(3)
H16 H 0.4687 0.1750 0.8716
C29 C 0.41389(10) 0.18191(10) 0.9655(3)
Cu3 Cu 0.1667 0.3334 0.8334
Cu1_2 Cu 0.8333 0.1666 0.1667
N1_2 N 0.83221(8) 0.10744(11) 0.2397(2)
C5_2 C 0.78294(10) 0.05423(14) 0.0482(3)
C6_2 C 0.80740(10) 0.06399(14) 0.1786(3)
C7_2 C 0.81016(11) 0.03052(16) 0.2687(3)
C8_2 C 0.83478(11) 0.05293(16) 0.3846(3)
H4_2 H 0.8417 0.0397 0.4617
C9_2 C 0.84858(10) 0.10136(14) 0.3678(3)
C13_2 C 0.75770(10) 0.00382(14) 0.0046(3)
N5_2 N 0.83446(8) 0.22589(11) 0.0936(2)
N6_2 N 0.86721(8) 0.20024(11) 0.3524(2)
N7_2 N 0.95610(8) 0.42367(11) 0.4067(2)
N8_2 N 0.92576(12) 0.09820(17) 0.8337(3)
C21_2 C 0.88288(9) 0.18300(13) 0.4586(3)
C22_2 C 0.91357(11) 0.22049(15) 0.5525(3)
H13_2 H 0.9284 0.2178 0.6333
C23_2 C 0.91673(11) 0.25992(16) 0.5011(3)
H14_2 H 0.9341 0.2895 0.5401
C24_2 C 0.88805(10) 0.24757(14) 0.3740(3)
C25_2 C 0.88373(10) 0.27910(14) 0.2851(3)
C26_2 C 0.85927(10) 0.26934(14) 0.1547(3)
C27_2 C 0.85651(11) 0.30281(16) 0.0646(3)
H15_2 H 0.8696 0.3345 0.0834
C30_2 C 0.87320(10) 0.13653(14) 0.4686(3)
C31_2 C 0.91747(10) 0.39196(15) 0.4740(3)
H17_2 H 0.9064 0.4020 0.5492
C32_2 C 0.89317(11) 0.34556(16) 0.4391(3)
H18_2 H 0.8664 0.3251 0.4893
C33_2 C 0.90897(10) 0.32951(14) 0.3287(3)
C34_2 C 0.94928(10) 0.36170(15) 0.2592(3)
H19_2 H 0.9614 0.3523 0.1850
C35_2 C 0.97148(11) 0.40818(16) 0.3016(3)
H20_2 H 0.9985 0.4294 0.2537
C36_2 C 0.94043(15) 0.09798(20) 0.7015(4)
H21_2 H 0.9627 0.0889 0.6895
C37_2 C 0.92485(12) 0.11022(16) 0.5805(4)
H22_2 H 0.9365 0.1094 0.4907
C38_2 C 0.89143(10) 0.12363(14) 0.5965(3)
C39_2 C 0.87663(11) 0.12476(16) 0.7331(3)
H23_2 H 0.8551 0.1345 0.7484
C40_2 C 0.89369(13) 0.11155(18) 0.8471(3)
H24_2 H 0.8825 0.1119 0.9379
Cu2_2 Cu 1.0000 0.5000 0.5000
N9_2 N 0.75701(11) 0.13424(14) 0.2599(2)
N10_2 N 0.90966(11) 0.19909(14) 0.0734(2)
N3_2 N 0.71057(8) 0.90966(11) 0.9266(2)
C11_2 C 0.74920(10) 0.94137(15) 0.8593(3)
H5_2 H 0.7603 0.9313 0.7841
C12_2 C 0.77350(11) 0.98777(16) 0.8942(3)
Cu3_2 Cu 0.6666 0.8334 0.8334
N3_3 N 0.09034(11) 0.80091(8) 0.9266(2)
C11_3 C 0.05863(15) 0.80783(11) 0.8593(3)
H5_3 H 0.0687 0.8290 0.7841
C12_3 C 0.01223(16) 0.78573(11) 0.8942(3)
Cu3_3 Cu 0.1666 0.8333 0.8334
Cu1_3 Cu 0.8334 0.6667 0.1667
N1_3 N 0.89256(11) 0.72477(8) 0.2397(2)
C5_3 C 0.94577(14) 0.72871(10) 0.0482(3)
C6_3 C 0.93601(14) 0.74341(10) 0.1786(3)
C7_3 C 0.96948(16) 0.77964(11) 0.2687(3)
C8_3 C 0.94707(16) 0.78185(11) 0.3846(3)
H4_3 H 0.9603 0.8020 0.4617
C9_3 C 0.89864(14) 0.74722(10) 0.3678(3)
C13_3 C 0.99618(14) 0.75388(10) 0.0046(3)
N5_3 N 0.77411(11) 0.60856(8) 0.0936(2)
N6_3 N 0.79976(11) 0.66696(8) 0.3524(2)
N7_3 N 0.57633(11) 0.53242(8) 0.4067(2)
N8_3 N 0.90180(17) 0.82755(12) 0.8337(3)
C21_3 C 0.81700(13) 0.69987(10) 0.4586(3)
C22_3 C 0.77951(15) 0.69307(10) 0.5525(3)
H13_3 H 0.7822 0.7105 0.6333
C23_3 C 0.74008(16) 0.65680(11) 0.5011(3)
H14_3 H 0.7105 0.6445 0.5401
C24_3 C 0.75243(14) 0.64047(10) 0.3740(3)
C25_3 C 0.72090(14) 0.60462(10) 0.2851(3)
C26_3 C 0.73066(14) 0.58992(10) 0.1547(3)
C27_3 C 0.69719(16) 0.55369(11) 0.0646(3)
H15_3 H 0.6655 0.5350 0.0834
C30_3 C 0.86347(14) 0.73666(10) 0.4686(3)
C31_3 C 0.60804(15) 0.52550(11) 0.4740(3)
H17_3 H 0.5980 0.5043 0.5492
C32_3 C 0.65444(16) 0.54760(11) 0.4391(3)
H18_3 H 0.6749 0.5412 0.4893
C33_3 C 0.67049(14) 0.57945(10) 0.3287(3)
C34_3 C 0.63830(15) 0.58757(11) 0.2592(3)
H19_3 H 0.6477 0.6090 0.1850
C35_3 C 0.59182(16) 0.56329(11) 0.3016(3)
H20_3 H 0.5706 0.5690 0.2537
C36_3 C 0.90202(20) 0.84244(13) 0.7015(4)
H21_3 H 0.9111 0.8737 0.6895
C37_3 C 0.88978(16) 0.81462(11) 0.5805(4)
H22_3 H 0.8906 0.8270 0.4907
C38_3 C 0.87637(14) 0.76779(10) 0.5965(3)
C39_3 C 0.87524(16) 0.75186(11) 0.7331(3)
H23_3 H 0.8655 0.7205 0.7484
C40_3 C 0.88845(18) 0.78213(13) 0.8471(3)
H24_3 H 0.8881 0.7705 0.9379
Cu2_3 Cu 0.5000 0.4999 0.5000
N9_3 N 0.86576(14) 0.62276(8) 0.2599(2)
N10_3 N 0.80091(14) 0.71057(8) 0.0734(2)
N2_2 N 0.00030(8) 0.53387(8) 0.3142(2)
C1_2 C 0.03321(10) 0.54954(9) 0.2080(3)
C2_2 C 0.02641(10) 0.58023(11) 0.1141(3)
H1_2 H 0.0439 0.5950 0.0333
C10_2 C 0.07000(10) 0.53986(10) 0.1980(3)
C17_2 C 0.14796(11) 0.59151(12) 0.0861(4)
H10_2 H 0.1604 0.6031 0.1759
C18_2 C 0.10113(10) 0.55809(10) 0.0701(3)
N5_4 N 0.05810(8) 0.49888(8) 0.4270(2)
N7_4 N 0.13424(8) 0.37724(8) 0.7401(2)
C23_4 C 0.00986(11) 0.41661(11) 0.8345(3)
H14_4 H 0.0221 0.3993 0.8735
C24_4 C 0.02619(10) 0.44529(10) 0.7074(3)
C25_4 C 0.06204(10) 0.44961(10) 0.6185(3)
C26_4 C 0.07674(10) 0.47407(10) 0.4881(3)
C27_4 C 0.11297(11) 0.47683(11) 0.3980(3)
H15_4 H 0.1316 0.4638 0.4168
C28_2 C 0.11518(11) 0.50145(11) 0.2821(3)
H16_2 H 0.1353 0.5084 0.2050
C29_2 C 0.08055(10) 0.51525(10) 0.2989(3)
C31_4 C 0.14116(11) 0.41587(10) 0.8074(3)
H17_4 H 0.1623 0.4270 0.8826
C32_4 C 0.11906(11) 0.44017(11) 0.7725(3)
H18_4 H 0.1254 0.4670 0.8227
C33_4 C 0.08721(10) 0.42437(10) 0.6621(3)
C34_4 C 0.07909(11) 0.38406(10) 0.5926(3)
H19_4 H 0.0576 0.3720 0.5184
C35_4 C 0.10337(11) 0.36186(11) 0.6350(3)
H20_4 H 0.0976 0.3349 0.5871
N9_4 N 0.04390(8) 0.57633(11) 0.5933(2)
N1_4 N 0.94190(8) 0.50112(8) 0.5730(2)
C3_2 C 0.99014(11) 0.58339(11) 0.1655(3)
H2_2 H 0.9779 0.6007 0.1265
C4_2 C 0.97381(10) 0.55471(10) 0.2926(3)
C5_4 C 0.93796(10) 0.55039(10) 0.3815(3)
C6_4 C 0.92326(10) 0.52593(10) 0.5119(3)
C7_4 C 0.88703(11) 0.52317(11) 0.6020(3)
H3_2 H 0.8684 0.5362 0.5832
C8_4 C 0.88482(11) 0.49855(11) 0.7179(3)
H4_4 H 0.8647 0.4916 0.7950
C9_4 C 0.91945(10) 0.48475(10) 0.7011(3)
C11_4 C 0.85884(11) 0.58413(10) 0.1926(3)
H5_4 H 0.8377 0.5730 0.1174
C12_4 C 0.88094(11) 0.55983(11) 0.2275(3)
H6_2 H 0.8746 0.5330 0.1773
C13_4 C 0.91279(10) 0.57563(10) 0.3379(3)
C14_2 C 0.92091(11) 0.61594(10) 0.4074(3)
H7_2 H 0.9424 0.6280 0.4816
C15_2 C 0.89663(11) 0.63814(11) 0.3650(3)
H8_2 H 0.9024 0.6651 0.4129
N6_4 N 0.99970(8) 0.46613(8) 0.6858(2)
C21_4 C 0.96679(10) 0.45046(9) 0.7920(3)
C22_4 C 0.97359(10) 0.41977(11) 0.8859(3)
H13_4 H 0.9561 0.4050 0.9667
C30_4 C 0.93000(10) 0.46014(10) 0.8020(3)
C37_4 C 0.85204(11) 0.40849(12) 0.9139(4)
H22_4 H 0.8396 0.3969 0.8241
C38_4 C 0.89887(10) 0.44191(10) 0.9299(3)
N1_5 N 0.49888(8) 0.44077(11) 0.5730(2)
N2_3 N 0.46613(8) 0.46642(11) 0.3142(2)
C1_3 C 0.45046(9) 0.48366(13) 0.2080(3)
C2_3 C 0.41977(11) 0.44617(15) 0.1141(3)
H1_3 H 0.4050 0.4488 0.0333
C3_3 C 0.41661(11) 0.40674(16) 0.1655(3)
H2_3 H 0.3993 0.3771 0.1265
C4_3 C 0.44529(10) 0.41909(14) 0.2926(3)
C5_5 C 0.44961(10) 0.38756(14) 0.3815(3)
C6_5 C 0.47407(10) 0.39732(14) 0.5119(3)
C7_5 C 0.47683(11) 0.36385(16) 0.6020(3)
H3_3 H 0.4638 0.3321 0.5832
C8_5 C 0.50145(11) 0.38626(16) 0.7179(3)
H4_5 H 0.5084 0.3730 0.7950
C9_5 C 0.51525(10) 0.43469(14) 0.7011(3)
C10_3 C 0.46014(10) 0.53013(14) 0.1980(3)
C11_5 C 0.41587(10) 0.27470(15) 0.1926(3)
H5_5 H 0.4270 0.2646 0.1174
C12_5 C 0.44017(11) 0.32110(16) 0.2275(3)
H6_3 H 0.4670 0.3415 0.1773
C13_5 C 0.42437(10) 0.33715(14) 0.3379(3)
C14_3 C 0.38406(10) 0.30496(15) 0.4074(3)
H7_3 H 0.3720 0.3143 0.4816
C15_3 C 0.36186(11) 0.25848(16) 0.3650(3)
H8_3 H 0.3349 0.2372 0.4129
C17_3 C 0.40849(12) 0.55644(16) 0.0861(4)
H10_3 H 0.3969 0.5572 0.1759
C18_3 C 0.44191(10) 0.54303(14) 0.0701(3)
N5_5 N 0.50112(8) 0.55923(11) 0.4270(2)
N6_5 N 0.53387(8) 0.53358(11) 0.6858(2)
N7_5 N 0.62276(8) 0.75701(11) 0.7401(2)
C21_5 C 0.54954(9) 0.51634(13) 0.7920(3)
C22_5 C 0.58023(11) 0.55383(15) 0.8859(3)
H13_5 H 0.5950 0.5512 0.9667
C23_5 C 0.58339(11) 0.59326(16) 0.8345(3)
H14_5 H 0.6007 0.6229 0.8735
C24_5 C 0.55471(10) 0.58091(14) 0.7074(3)
C25_5 C 0.55039(10) 0.61244(14) 0.6185(3)
C26_5 C 0.52593(10) 0.60268(14) 0.4881(3)
C27_5 C 0.52317(11) 0.63615(16) 0.3980(3)
H15_5 H 0.5362 0.6679 0.4168
C28_3 C 0.49855(11) 0.61374(16) 0.2821(3)
H16_3 H 0.4916 0.6270 0.2050
C29_3 C 0.48475(10) 0.56531(14) 0.2989(3)
C30_5 C 0.53986(10) 0.46987(14) 0.8020(3)
C31_5 C 0.58413(10) 0.72530(15) 0.8074(3)
H17_5 H 0.5730 0.7354 0.8826
C32_5 C 0.55983(11) 0.67890(16) 0.7725(3)
H18_5 H 0.5330 0.6585 0.8227
C33_5 C 0.57563(10) 0.66285(14) 0.6621(3)
C34_5 C 0.61594(10) 0.69504(15) 0.5926(3)
H19_5 H 0.6280 0.6857 0.5184
C35_5 C 0.63814(11) 0.74152(16) 0.6350(3)
H20_5 H 0.6651 0.7628 0.5871
C37_5 C 0.59151(12) 0.44356(16) 0.9139(4)
H22_5 H 0.6031 0.4428 0.8241
C38_5 C 0.55809(10) 0.45697(14) 0.9299(3)
N9_5 N 0.42367(11) 0.46758(14) 0.5933(2)
N1_6 N 0.55923(11) 0.05810(8) 0.5730(2)
C3_4 C 0.59326(16) 0.00986(11) 0.1655(3)
H2_4 H 0.6229 0.0221 0.1265
C4_4 C 0.58091(14) 0.02619(10) 0.2926(3)
C5_6 C 0.61244(14) 0.06204(10) 0.3815(3)
C6_6 C 0.60268(14) 0.07674(10) 0.5119(3)
C7_6 C 0.63615(16) 0.11297(11) 0.6020(3)
H3_4 H 0.6679 0.1316 0.5832
C8_6 C 0.61374(16) 0.11518(11) 0.7179(3)
H4_6 H 0.6270 0.1353 0.7950
C9_6 C 0.56531(14) 0.08055(10) 0.7011(3)
C11_6 C 0.72530(15) 0.14116(11) 0.1926(3)
H5_6 H 0.7354 0.1623 0.1174
C12_6 C 0.67890(16) 0.11906(11) 0.2275(3)
H6_4 H 0.6585 0.1254 0.1773
C13_6 C 0.66285(14) 0.08721(10) 0.3379(3)
C14_4 C 0.69504(15) 0.07909(11) 0.4074(3)
H7_4 H 0.6857 0.0576 0.4816
C15_4 C 0.74152(16) 0.10337(11) 0.3650(3)
H8_4 H 0.7628 0.0976 0.4129
N6_6 N 0.46642(11) 0.00030(8) 0.6858(2)
C21_6 C 0.48366(13) 0.03321(10) 0.7920(3)
C22_6 C 0.44617(15) 0.02641(10) 0.8859(3)
H13_6 H 0.4488 0.0439 0.9667
C30_6 C 0.53013(14) 0.07000(10) 0.8020(3)
C37_6 C 0.55644(16) 0.14796(11) 0.9139(4)
H22_6 H 0.5572 0.1604 0.8241
C38_6 C 0.54303(14) 0.10113(10) 0.9299(3)
N2_4 N 0.53358(11) 0.99970(8) 0.3142(2)
C1_4 C 0.51634(13) 0.96679(10) 0.2080(3)
C2_4 C 0.55383(15) 0.97359(10) 0.1141(3)
H1_4 H 0.5512 0.9561 0.0333
C10_4 C 0.46987(14) 0.93000(10) 0.1980(3)
C17_4 C 0.44356(16) 0.85204(11) 0.0861(4)
H10_4 H 0.4428 0.8396 0.1759
C18_4 C 0.45697(14) 0.89887(10) 0.0701(3)
N5_6 N 0.44077(11) 0.94190(8) 0.4270(2)
N7_6 N 0.24299(11) 0.86576(8) 0.7401(2)
C23_6 C 0.40674(16) 0.99014(11) 0.8345(3)
H14_6 H 0.3771 0.9779 0.8735
C24_6 C 0.41909(14) 0.97381(10) 0.7074(3)
C25_6 C 0.38756(14) 0.93796(10) 0.6185(3)
C26_6 C 0.39732(14) 0.92326(10) 0.4881(3)
C27_6 C 0.36385(16) 0.88703(11) 0.3980(3)
H15_6 H 0.3321 0.8684 0.4168
C28_4 C 0.38626(16) 0.88482(11) 0.2821(3)
H16_4 H 0.3730 0.8647 0.2050
C29_4 C 0.43469(14) 0.91945(10) 0.2989(3)
C31_6 C 0.27470(15) 0.85884(11) 0.8074(3)
H17_6 H 0.2646 0.8377 0.8826
C32_6 C 0.32110(16) 0.88094(11) 0.7725(3)
H18_6 H 0.3415 0.8746 0.8227
C33_6 C 0.33715(14) 0.91279(10) 0.6621(3)
C34_6 C 0.30496(15) 0.92091(11) 0.5926(3)
H19_6 H 0.3143 0.9424 0.5184
C35_6 C 0.25848(16) 0.89663(11) 0.6350(3)
H20_6 H 0.2372 0.9024 0.5871
N9_6 N 0.53242(14) 0.95610(8) 0.5933(2)
C8_7 C 0.55148(11) 0.83189(11) 0.0513(3)
H4_7 H 0.5313 0.8250 0.1284
C9_7 C 0.58611(10) 0.81809(10) 0.0345(3)
N6_7 N 0.66637(8) 0.79946(8) 0.0191(2)
N8_4 N 0.50578(12) 0.74091(12) 0.5004(3)
C21_7 C 0.63346(10) 0.78379(9) 0.1253(3)
C22_7 C 0.64026(10) 0.75310(11) 0.2192(3)
H13_7 H 0.6228 0.7383 0.3000
C23_7 C 0.67653(11) 0.74994(11) 0.1678(3)
H14_7 H 0.6888 0.7326 0.2068
C24_7 C 0.69286(10) 0.77862(10) 0.0407(3)
C30_7 C 0.59667(10) 0.79347(10) 0.1353(3)
C31_7 C 0.80783(11) 0.74920(10) 0.1407(3)
H17_7 H 0.8290 0.7603 0.2159
C32_7 C 0.78573(11) 0.77350(11) 0.1058(3)
H18_7 H 0.7921 0.8003 0.1560
C36_4 C 0.49089(13) 0.72624(15) 0.3682(4)
H21_4 H 0.4596 0.7040 0.3562
C37_7 C 0.51871(11) 0.74182(12) 0.2472(4)
H22_7 H 0.5063 0.7302 0.1574
C38_7 C 0.56554(10) 0.77524(10) 0.2632(3)
C39_4 C 0.58147(11) 0.79004(11) 0.3998(3)
H23_4 H 0.6128 0.8116 0.4151
C40_4 C 0.55120(13) 0.77298(13) 0.5138(3)
H24_4 H 0.5628 0.7842 0.6046
N1_7 N 0.60856(8) 0.83446(8) 0.9064(2)
N2_5 N 0.66696(8) 0.86721(8) 0.6476(2)
N4_2 N 0.82755(12) 0.92576(12) 0.1663(3)
C1_5 C 0.69987(10) 0.88288(9) 0.5414(3)
C2_5 C 0.69307(10) 0.91357(11) 0.4475(3)
H1_5 H 0.7105 0.9284 0.3667
C3_5 C 0.65680(11) 0.91673(11) 0.4989(3)
H2_5 H 0.6445 0.9341 0.4599
C4_5 C 0.64047(10) 0.88805(10) 0.6260(3)
C5_7 C 0.60462(10) 0.88373(10) 0.7149(3)
C6_7 C 0.58992(10) 0.85927(10) 0.8453(3)
C7_7 C 0.55369(11) 0.85651(11) 0.9354(3)
H3_5 H 0.5350 0.8696 0.9166
C10_5 C 0.73666(10) 0.87320(10) 0.5314(3)
C11_7 C 0.52550(11) 0.91747(10) 0.5260(3)
H5_7 H 0.5043 0.9064 0.4508
C12_7 C 0.54760(11) 0.89317(11) 0.5609(3)
H6_5 H 0.5412 0.8664 0.5107
C13_7 C 0.57945(10) 0.90897(10) 0.6713(3)
C14_5 C 0.58757(11) 0.94928(10) 0.7408(3)
H7_5 H 0.6090 0.9614 0.8150
C15_5 C 0.56329(11) 0.97148(11) 0.6984(3)
H8_5 H 0.5690 0.9985 0.7463
C16_2 C 0.84244(13) 0.94043(15) 0.2985(4)
H9_2 H 0.8737 0.9627 0.3105
C17_5 C 0.81462(11) 0.92485(12) 0.4195(4)
H10_5 H 0.8270 0.9365 0.5093
C18_5 C 0.76779(10) 0.89143(10) 0.4035(3)
C19_2 C 0.75186(11) 0.87663(11) 0.2669(3)
H11_2 H 0.7205 0.8551 0.2516
C20_2 C 0.78213(13) 0.89369(13) 0.1529(3)
H12_2 H 0.7705 0.8825 0.0621
N5_7 N 0.72477(8) 0.83221(8) 0.7603(2)
C25_7 C 0.72871(10) 0.78294(10) 0.9518(3)
C26_7 C 0.74341(10) 0.80740(10) 0.8214(3)
C27_7 C 0.77964(11) 0.81016(11) 0.7313(3)
H15_7 H 0.7983 0.7971 0.7501
C28_5 C 0.78185(11) 0.83478(11) 0.6154(3)
H16_5 H 0.8020 0.8417 0.5383
C29_5 C 0.74722(10) 0.84858(10) 0.6322(3)
C33_7 C 0.75388(10) 0.75770(10) 0.9954(3)
C34_7 C 0.74576(11) 0.71739(10) 0.9259(3)
H19_7 H 0.7243 0.7053 0.8517
C35_7 C 0.77004(11) 0.69519(11) 0.9683(3)
H20_7 H 0.7643 0.6682 0.9204
C31_8 C 0.25080(10) 0.05863(15) 0.1407(3)
H17_8 H 0.2397 0.0687 0.2159
C32_8 C 0.22650(11) 0.01223(16) 0.1058(3)
N1_8 N 0.16554(8) 0.77411(11) 0.9064(2)
N2_6 N 0.13279(8) 0.79976(11) 0.6476(2)
N4_3 N 0.07424(12) 0.90180(17) 0.1663(3)
C1_6 C 0.11712(9) 0.81700(13) 0.5414(3)
C2_6 C 0.08643(11) 0.77951(15) 0.4475(3)
H1_6 H 0.0716 0.7822 0.3667
C3_6 C 0.08327(11) 0.74008(16) 0.4989(3)
H2_6 H 0.0659 0.7105 0.4599
C4_6 C 0.11195(10) 0.75243(14) 0.6260(3)
C5_8 C 0.11627(10) 0.72090(14) 0.7149(3)
C6_8 C 0.14073(10) 0.73066(14) 0.8453(3)
C7_8 C 0.14349(11) 0.69719(16) 0.9354(3)
H3_6 H 0.1304 0.6655 0.9166
C10_6 C 0.12680(10) 0.86347(14) 0.5314(3)
C11_8 C 0.08253(10) 0.60804(15) 0.5260(3)
H5_8 H 0.0936 0.5980 0.4508
C12_8 C 0.10683(11) 0.65444(16) 0.5609(3)
H6_6 H 0.1336 0.6749 0.5107
C13_8 C 0.09103(10) 0.67049(14) 0.6713(3)
C14_6 C 0.05072(10) 0.63830(15) 0.7408(3)
H7_6 H 0.0386 0.6477 0.8150
C15_6 C 0.02852(11) 0.59182(16) 0.6984(3)
H8_6 H 0.0015 0.5706 0.7463
C16_3 C 0.05957(15) 0.90202(20) 0.2985(4)
H9_3 H 0.0373 0.9111 0.3105
C17_6 C 0.07515(12) 0.88978(16) 0.4195(4)
H10_6 H 0.0635 0.8906 0.5093
C18_6 C 0.10857(10) 0.87637(14) 0.4035(3)
C19_3 C 0.12337(11) 0.87524(16) 0.2669(3)
H11_3 H 0.1449 0.8655 0.2516
C20_3 C 0.10631(13) 0.88845(18) 0.1529(3)
H12_3 H 0.1175 0.8881 0.0621
N5_8 N 0.16779(8) 0.89256(11) 0.7603(2)
C25_8 C 0.21706(10) 0.94577(14) 0.9518(3)
C26_8 C 0.19260(10) 0.93601(14) 0.8214(3)
C27_8 C 0.18984(11) 0.96948(16) 0.7313(3)
C28_6 C 0.16522(11) 0.94707(16) 0.6154(3)
H16_6 H 0.1583 0.9603 0.5383
C29_6 C 0.15142(10) 0.89864(14) 0.6322(3)
C33_8 C 0.24230(10) 0.99618(14) 0.9954(3)
N1_9 N 0.22589(11) 0.39144(8) 0.9064(2)
N2_7 N 0.20024(11) 0.33304(8) 0.6476(2)
N4_4 N 0.09820(17) 0.17245(12) 0.1663(3)
C1_7 C 0.18300(13) 0.30013(10) 0.5414(3)
C2_7 C 0.22049(15) 0.30693(10) 0.4475(3)
H1_7 H 0.2178 0.2895 0.3667
C3_7 C 0.25992(16) 0.34320(11) 0.4989(3)
H2_7 H 0.2895 0.3555 0.4599
C4_7 C 0.24757(14) 0.35953(10) 0.6260(3)
C5_9 C 0.27910(14) 0.39538(10) 0.7149(3)
C6_9 C 0.26934(14) 0.41008(10) 0.8453(3)
C7_9 C 0.30281(16) 0.44631(11) 0.9354(3)
H3_7 H 0.3345 0.4650 0.9166
C10_7 C 0.13653(14) 0.26334(10) 0.5314(3)
C11_9 C 0.39196(15) 0.47450(11) 0.5260(3)
H5_9 H 0.4020 0.4957 0.4508
C12_9 C 0.34556(16) 0.45240(11) 0.5609(3)
H6_7 H 0.3251 0.4588 0.5107
C13_9 C 0.32951(14) 0.42055(10) 0.6713(3)
C14_7 C 0.36170(15) 0.41243(11) 0.7408(3)
H7_7 H 0.3523 0.3910 0.8150
C15_7 C 0.40818(16) 0.43671(11) 0.6984(3)
H8_7 H 0.4294 0.4310 0.7463
C16_4 C 0.09798(20) 0.15756(13) 0.2985(4)
H9_4 H 0.0889 0.1263 0.3105
C17_7 C 0.11022(16) 0.18538(11) 0.4195(4)
H10_7 H 0.1094 0.1730 0.5093
C18_7 C 0.12363(14) 0.23221(10) 0.4035(3)
C19_4 C 0.12476(16) 0.24814(11) 0.2669(3)
H11_4 H 0.1345 0.2795 0.2516
C20_4 C 0.11155(18) 0.21787(13) 0.1529(3)
H12_4 H 0.1119 0.2295 0.0621
N5_9 N 0.10744(11) 0.27523(8) 0.7603(2)
C25_9 C 0.05423(14) 0.27129(10) 0.9518(3)
C26_9 C 0.06399(14) 0.25659(10) 0.8214(3)
C27_9 C 0.03052(16) 0.22036(11) 0.7313(3)
C28_7 C 0.05293(16) 0.21815(11) 0.6154(3)
H16_7 H 0.0397 0.1980 0.5383
C29_7 C 0.10136(14) 0.25278(10) 0.6322(3)
C33_9 C 0.00382(14) 0.24612(10) 0.9954(3)
C31_9 C 0.94137(15) 0.19217(11) 0.1407(3)
H17_9 H 0.9313 0.1710 0.2159
C32_9 C 0.98777(16) 0.21427(11) 0.1058(3)
Cu2_4 Cu 0.4999 1.0000 0.5000
Cu2_5 Cu 0.0000 0.5000 0.5000
N2_8 N 0.79946(8) 0.13309(11) 0.9809(2)
N4_5 N 0.74091(12) 0.23513(17) 0.4996(3)
C1_8 C 0.78379(9) 0.15033(13) 0.8747(3)
C2_8 C 0.75310(11) 0.11284(15) 0.7808(3)
H1_8 H 0.7383 0.1155 0.7000
C3_8 C 0.74994(11) 0.07341(16) 0.8322(3)
H2_8 H 0.7326 0.0438 0.7932
C4_8 C 0.77862(10) 0.08576(14) 0.9593(3)
C10_8 C 0.79347(10) 0.19680(14) 0.8647(3)
H6_8 H 0.8003 0.0082 0.8440
C16_5 C 0.72624(15) 0.23535(20) 0.6318(4)
H9_5 H 0.7040 0.2444 0.6438
C17_8 C 0.74182(12) 0.22311(16) 0.7528(4)
H10_8 H 0.7302 0.2239 0.8426
C18_8 C 0.77524(10) 0.20970(14) 0.7368(3)
C19_5 C 0.79004(11) 0.20857(16) 0.6002(3)
H11_5 H 0.8116 0.1988 0.5849
C20_5 C 0.77298(13) 0.22178(18) 0.4862(3)
H12_5 H 0.7842 0.2214 0.3954
C28_8 C 0.83189(11) 0.28040(16) 0.9487(3)
H16_8 H 0.8250 0.2936 0.8716
C29_8 C 0.81809(10) 0.23197(14) 0.9655(3)
H3_8 H 0.7971 0.9988 0.2499
C14_8 C 0.71739(10) 0.97163(15) 0.0741(3)
H7_8 H 0.7053 0.9810 0.1483
C15_8 C 0.69519(11) 0.92515(16) 0.0317(3)
H8_8 H 0.6682 0.9039 0.0796
H3_9 H 0.0012 0.7983 0.2499
C14_9 C 0.02837(15) 0.74576(11) 0.0741(3)
H7_9 H 0.0190 0.7243 0.1483
C15_9 C 0.07485(16) 0.77004(11) 0.0317(3)
H8_9 H 0.0961 0.7643 0.0796
N2_9 N 0.86691(11) 0.66637(8) 0.9809(2)
N4_6 N 0.76487(17) 0.50578(12) 0.4996(3)
C1_9 C 0.84967(13) 0.63346(10) 0.8747(3)
C2_9 C 0.88716(15) 0.64026(10) 0.7808(3)
H1_9 H 0.8845 0.6228 0.7000
C3_9 C 0.92659(16) 0.67653(11) 0.8322(3)
H2_9 H 0.9562 0.6888 0.7932
C4_9 C 0.91424(14) 0.69286(10) 0.9593(3)
C10_9 C 0.80320(14) 0.59667(10) 0.8647(3)
H6_9 H 0.9918 0.7921 0.8440
C16_6 C 0.76465(20) 0.49089(13) 0.6318(4)
H9_6 H 0.7556 0.4596 0.6438
C17_9 C 0.77689(16) 0.51871(11) 0.7528(4)
H10_9 H 0.7761 0.5063 0.8426
C18_9 C 0.79030(14) 0.56554(10) 0.7368(3)
C19_6 C 0.79143(16) 0.58147(11) 0.6002(3)
H11_6 H 0.8012 0.6128 0.5849
C20_6 C 0.77822(18) 0.55120(13) 0.4862(3)
H12_6 H 0.7786 0.5628 0.3954
C28_9 C 0.71960(16) 0.55148(11) 0.9487(3)
H16_9 H 0.7064 0.5313 0.8716
C29_9 C 0.76803(14) 0.58611(10) 0.9655(3)
N4_7 N 0.16089(12) 0.59242(12) 0.8329(3)
C16_7 C 0.17578(13) 0.60709(15) 0.9651(4)
H9_7 H 0.2071 0.6293 0.9771
C19_7 C 0.08520(11) 0.54329(11) 0.9335(3)
H11_7 H 0.0539 0.5217 0.9182
C20_7 C 0.11547(13) 0.56035(13) 0.8195(3)
H12_7 H 0.1039 0.5491 0.7287
N8_5 N 0.83911(12) 0.40758(12) 0.1671(3)
C36_5 C 0.82422(13) 0.39291(15) 0.0349(4)
H21_5 H 0.7929 0.3707 0.0229
C39_5 C 0.91480(11) 0.45671(11) 0.0665(3)
H23_5 H 0.9461 0.4783 0.0818
C40_5 C 0.88453(13) 0.43965(13) 0.1805(3)
H24_5 H 0.8961 0.4509 0.2713
N8_6 N 0.59242(12) 0.43154(17) 0.1671(3)
C36_6 C 0.60709(15) 0.43132(20) 0.0349(4)
H21_6 H 0.6293 0.4223 0.0229
C39_6 C 0.54329(11) 0.45810(16) 0.0665(3)
H23_6 H 0.5217 0.4679 0.0818
C40_6 C 0.56035(13) 0.44489(18) 0.1805(3)
H24_6 H 0.5491 0.4453 0.2713
N4_8 N 0.40758(12) 0.56846(17) 0.8329(3)
C16_8 C 0.39291(15) 0.56868(20) 0.9651(4)
H9_8 H 0.3707 0.5777 0.9771
C19_8 C 0.45671(11) 0.54190(16) 0.9335(3)
H11_8 H 0.4783 0.5321 0.9182
C20_8 C 0.43965(13) 0.55511(18) 0.8195(3)
H12_8 H 0.4509 0.5547 0.7287
N8_7 N 0.56846(17) 0.16089(12) 0.1671(3)
C36_7 C 0.56868(20) 0.17578(13) 0.0349(4)
H21_7 H 0.5777 0.2071 0.0229
C39_7 C 0.54190(16) 0.08520(11) 0.0665(3)
H23_7 H 0.5321 0.0539 0.0818
C40_7 C 0.55511(18) 0.11547(13) 0.1805(3)
H24_7 H 0.5547 0.1039 0.2713
N4_9 N 0.43154(17) 0.83911(12) 0.8329(3)
C16_9 C 0.43132(20) 0.82422(13) 0.9651(4)
H9_9 H 0.4223 0.7929 0.9771
C19_9 C 0.45810(16) 0.91480(11) 0.9335(3)
H11_9 H 0.4679 0.9461 0.9182
C20_9 C 0.44489(18) 0.88453(13) 0.8195(3)
H12_9 H 0.4453 0.8961 0.7287
H15_8 H 0.2029 0.0012 0.7501
C34_8 C 0.28261(10) 0.02837(15) 0.9259(3)
H19_8 H 0.2947 0.0190 0.8517
C35_8 C 0.30481(11) 0.07485(16) 0.9683(3)
H20_8 H 0.3318 0.0961 0.9204
C8_8 C 0.16811(11) 0.71960(16) 0.0513(3)
H4_8 H 0.1750 0.7064 0.1284
C9_8 C 0.18191(10) 0.76803(14) 0.0345(3)
N6_8 N 0.20054(8) 0.86691(11) 0.0191(2)
N8_8 N 0.25909(12) 0.76487(17) 0.5004(3)
C21_8 C 0.21621(9) 0.84967(13) 0.1253(3)
C22_8 C 0.24690(11) 0.88716(15) 0.2192(3)
H13_8 H 0.2617 0.8845 0.3000
C23_8 C 0.25006(11) 0.92659(16) 0.1678(3)
H14_8 H 0.2674 0.9562 0.2068
C24_8 C 0.22138(10) 0.91424(14) 0.0407(3)
C30_8 C 0.20653(10) 0.80320(14) 0.1353(3)
H18_8 H 0.1997 0.9918 0.1560
C36_8 C 0.27376(15) 0.76465(20) 0.3682(4)
H21_8 H 0.2960 0.7556 0.3562
C37_8 C 0.25818(12) 0.77689(16) 0.2472(4)
H22_8 H 0.2698 0.7761 0.1574
C38_8 C 0.22476(10) 0.79030(14) 0.2632(3)
C39_8 C 0.20996(11) 0.79143(16) 0.3998(3)
H23_8 H 0.1884 0.8012 0.4151
C40_8 C 0.22702(13) 0.77822(18) 0.5138(3)
H24_8 H 0.2158 0.7786 0.6046
C8_9 C 0.28040(16) 0.44852(11) 0.0513(3)
H4_9 H 0.2936 0.4687 0.1284
C9_9 C 0.23197(14) 0.41389(10) 0.0345(3)
N6_9 N 0.13309(11) 0.33363(8) 0.0191(2)
N8_9 N 0.23513(17) 0.49422(12) 0.5004(3)
C21_9 C 0.15033(13) 0.36654(10) 0.1253(3)
C22_9 C 0.11284(15) 0.35974(10) 0.2192(3)
H13_9 H 0.1155 0.3772 0.3000
C23_9 C 0.07341(16) 0.32347(11) 0.1678(3)
H14_9 H 0.0438 0.3112 0.2068
C24_9 C 0.08576(14) 0.30714(10) 0.0407(3)
C30_9 C 0.19680(14) 0.40333(10) 0.1353(3)
H18_9 H 0.0082 0.2079 0.1560
C36_9 C 0.23535(20) 0.50911(13) 0.3682(4)
H21_9 H 0.2444 0.5404 0.3562
C37_9 C 0.22311(16) 0.48129(11) 0.2472(4)
H22_9 H 0.2239 0.4937 0.1574
C38_9 C 0.20970(14) 0.43446(10) 0.2632(3)
C39_9 C 0.20857(16) 0.41853(11) 0.3998(3)
H23_9 H 0.1988 0.3872 0.4151
C40_9 C 0.22178(18) 0.44880(13) 0.5138(3)
H24_9 H 0.2214 0.4372 0.6046
H15_9 H 0.9988 0.2017 0.7501
C34_9 C 0.97163(15) 0.25424(11) 0.9259(3)
H19_9 H 0.9810 0.2757 0.8517
C35_9 C 0.92515(16) 0.22996(11) 0.9683(3)
H20_9 H 0.9039 0.2357 0.9204
loop_
_geom_bond_atom_site_label_1
_geom_bond_atom_site_label_2
_geom_bond_site_symmetry_1
_geom_bond_site_symmetry_2
Cu1 N1 1_555 1_555
N1 C6 1_555 1_555
C6 C5 1_555 1_555
C7 C6 1_555 1_555
H3 C7 1_555 1_555
C8 C7 1_555 1_555
H4 C8 1_555 1_555
C9 N1 1_555 1_555
C13 C5 1_555 1_555
C14 C13 1_555 1_555
H7 C14 1_555 1_555
H8 C15 1_555 1_555
N5 Cu1 1_555 1_555
N6 Cu1 1_555 1_555
N7 C31 1_555 1_555
N8 C36 1_555 1_555
C21 N6 1_555 1_555
C22 C21 1_555 1_555
H13 C22 1_555 1_555
C23 C22 1_555 1_555
H14 C23 1_555 1_555
C24 N6 1_555 1_555
C25 C24 1_555 1_555
C26 N5 1_555 1_555
C27 C26 1_555 1_555
H15 C27 1_555 1_555
C30 C9 1_555 1_555
C31 H17 1_555 1_555
C32 C31 1_555 1_555
H18 C32 1_555 1_555
C33 C25 1_555 1_555
C34 C33 1_555 1_555
H19 C34 1_555 1_555
C35 N7 1_555 1_555
H20 C35 1_555 1_555
C36 H21 1_555 1_555
C37 C36 1_555 1_555
H22 C37 1_555 1_555
C38 C30 1_555 1_555
C39 C38 1_555 1_555
H23 C39 1_555 1_555
C40 N8 1_555 1_555
H24 C40 1_555 1_555
Cu2 N7 1_555 1_555
N9 Cu1 1_555 1_555
N10 Cu1 1_555 1_555
C8 C9 1_555 1_555
C14 C15 1_555 1_555
C21 C30 1_555 1_555
C23 C24 1_555 1_555
C25 C26 1_555 1_555
C32 C33 1_555 1_555
C34 C35 1_555 1_555
C37 C38 1_555 1_555
C39 C40 1_555 1_555
N3 C11 1_555 1_555
N4 C16 1_555 1_555
C1 N2 1_555 1_555
C2 C1 1_555 1_555
H1 C2 1_555 1_555
C3 C2 1_555 1_555
H2 C3 1_555 1_555
C4 N2 1_555 1_555
C10 C1 1_555 1_555
C11 H5 1_555 1_555
C12 C11 1_555 1_555
H6 C12 1_555 1_555
C16 H9 1_555 1_555
C17 C16 1_555 1_555
H10 C17 1_555 1_555
C18 C10 1_555 1_555
C19 C18 1_555 1_555
H11 C19 1_555 1_555
C20 N4 1_555 1_555
H12 C20 1_555 1_555
H16 C28 1_555 1_555
C29 C10 1_555 1_555
Cu3 N3 1_555 1_555
C3 C4 1_555 1_555
C17 C18 1_555 1_555
C19 C20 1_555 1_555
C28 C29 1_555 1_555
Cu1_2 N1_2 1_555 1_555
N1_2 C6_2 1_555 1_555
C6_2 C5_2 1_555 1_555
C7_2 C6_2 1_555 1_555
C8_2 C7_2 1_555 1_555
H4_2 C8_2 1_555 1_555
C9_2 N1_2 1_555 1_555
C13_2 C5_2 1_555 1_555
N5_2 Cu1_2 1_555 1_555
N6_2 Cu1_2 1_555 1_555
N7_2 C31_2 1_555 1_555
N8_2 C36_2 1_555 1_555
C21_2 N6_2 1_555 1_555
C22_2 C21_2 1_555 1_555
H13_2 C22_2 1_555 1_555
C23_2 C22_2 1_555 1_555
H14_2 C23_2 1_555 1_555
C24_2 N6_2 1_555 1_555
C25_2 C24_2 1_555 1_555
C26_2 N5_2 1_555 1_555
C27_2 C26_2 1_555 1_555
H15_2 C27_2 1_555 1_555
C30_2 C9_2 1_555 1_555
C31_2 H17_2 1_555 1_555
C32_2 C31_2 1_555 1_555
H18_2 C32_2 1_555 1_555
C33_2 C25_2 1_555 1_555
C34_2 C33_2 1_555 1_555
H19_2 C34_2 1_555 1_555
C35_2 N7_2 1_555 1_555
H20_2 C35_2 1_555 1_555
C36_2 H21_2 1_555 1_555
C37_2 C36_2 1_555 1_555
H22_2 C37_2 1_555 1_555
C38_2 C30_2 1_555 1_555
C39_2 C38_2 1_555 1_555
H23_2 C39_2 1_555 1_555
C40_2 N8_2 1_555 1_555
H24_2 C40_2 1_555 1_555
Cu2_2 N7_2 1_555 1_555
N9_2 Cu1_2 1_555 1_555
N10_2 Cu1_2 1_555 1_555
C8_2 C9_2 1_555 1_555
C21_2 C30_2 1_555 1_555
C23_2 C24_2 1_555 1_555
C25_2 C26_2 1_555 1_555
C32_2 C33_2 1_555 1_555
C34_2 C35_2 1_555 1_555
C37_2 C38_2 1_555 1_555
C39_2 C40_2 1_555 1_555
N3_2 C11_2 1_555 1_555
C11_2 H5_2 1_555 1_555
C12_2 C11_2 1_555 1_555
Cu3_2 N3_2 1_555 1_555
N3_3 C11_3 1_555 1_555
C11_3 H5_3 1_555 1_555
C12_3 C11_3 1_555 1_555
Cu3_3 N3_3 1_555 1_555
Cu1_3 N1_3 1_555 1_555
N1_3 C6_3 1_555 1_555
C6_3 C5_3 1_555 1_555
C7_3 C6_3 1_555 1_555
C8_3 C7_3 1_555 1_555
H4_3 C8_3 1_555 1_555
C9_3 N1_3 1_555 1_555
C13_3 C5_3 1_555 1_555
N5_3 Cu1_3 1_555 1_555
N6_3 Cu1_3 1_555 1_555
N7_3 C31_3 1_555 1_555
N8_3 C36_3 1_555 1_555
C21_3 N6_3 1_555 1_555
C22_3 C21_3 1_555 1_555
H13_3 C22_3 1_555 1_555
C23_3 C22_3 1_555 1_555
H14_3 C23_3 1_555 1_555
C24_3 N6_3 1_555 1_555
C25_3 C24_3 1_555 1_555
C26_3 N5_3 1_555 1_555
C27_3 C26_3 1_555 1_555
H15_3 C27_3 1_555 1_555
C30_3 C9_3 1_555 1_555
C31_3 H17_3 1_555 1_555
C32_3 C31_3 1_555 1_555
H18_3 C32_3 1_555 1_555
C33_3 C25_3 1_555 1_555
C34_3 C33_3 1_555 1_555
H19_3 C34_3 1_555 1_555
C35_3 N7_3 1_555 1_555
H20_3 C35_3 1_555 1_555
C36_3 H21_3 1_555 1_555
C37_3 C36_3 1_555 1_555
H22_3 C37_3 1_555 1_555
C38_3 C30_3 1_555 1_555
C39_3 C38_3 1_555 1_555
H23_3 C39_3 1_555 1_555
C40_3 N8_3 1_555 1_555
H24_3 C40_3 1_555 1_555
Cu2_3 N7_3 1_555 1_555
N9_3 Cu1_3 1_555 1_555
N10_3 Cu1_3 1_555 1_555
C8_3 C9_3 1_555 1_555
C21_3 C30_3 1_555 1_555
C23_3 C24_3 1_555 1_555
C25_3 C26_3 1_555 1_555
C32_3 C33_3 1_555 1_555
C34_3 C35_3 1_555 1_555
C37_3 C38_3 1_555 1_555
C39_3 C40_3 1_555 1_555
C1_2 N2_2 1_555 1_555
C2_2 C1_2 1_555 1_555
H1_2 C2_2 1_555 1_555
C10_2 C1_2 1_555 1_555
H10_2 C17_2 1_555 1_555
C18_2 C10_2 1_555 1_555
N7_4 C31_4 1_555 1_555
H14_4 C23_4 1_555 1_555
C25_4 C24_4 1_555 1_555
C26_4 N5_4 1_555 1_555
C27_4 C26_4 1_555 1_555
H15_4 C27_4 1_555 1_555
C28_2 C27_4 1_555 1_555
H16_2 C28_2 1_555 1_555
C29_2 C10_2 1_555 1_555
C31_4 H17_4 1_555 1_555
C32_4 C31_4 1_555 1_555
H18_4 C32_4 1_555 1_555
C33_4 C25_4 1_555 1_555
C34_4 C33_4 1_555 1_555
H19_4 C34_4 1_555 1_555
C35_4 N7_4 1_555 1_555
H20_4 C35_4 1_555 1_555
Cu3 N7_4 1_555 1_555
C17_2 C18_2 1_555 1_555
N5_4 C29_2 1_555 1_555
C23_4 C24_4 1_555 1_555
C25_4 C26_4 1_555 1_555
C28_2 C29_2 1_555 1_555
C32_4 C33_4 1_555 1_555
C34_4 C35_4 1_555 1_555
Cu2_2 N1_4 1_555 1_555
N1_4 C6_4 1_555 1_555
N9_3 C11_4 1_555 1_555
H2_2 C3_2 1_555 1_555
C5_4 C4_2 1_555 1_555
C6_4 C5_4 1_555 1_555
C7_4 C6_4 1_555 1_555
H3_2 C7_4 1_555 1_555
C8_4 C7_4 1_555 1_555
H4_4 C8_4 1_555 1_555
C9_4 N1_4 1_555 1_555
C11_4 H5_4 1_555 1_555
C12_4 C11_4 1_555 1_555
H6_2 C12_4 1_555 1_555
C13_4 C5_4 1_555 1_555
C14_2 C13_4 1_555 1_555
H7_2 C14_2 1_555 1_555
C15_2 N9_3 1_555 1_555
H8_2 C15_2 1_555 1_555
N6_4 Cu2_2 1_555 1_555
C21_4 N6_4 1_555 1_555
C22_4 C21_4 1_555 1_555
H13_4 C22_4 1_555 1_555
C30_4 C9_4 1_555 1_555
H22_4 C37_4 1_555 1_555
C38_4 C30_4 1_555 1_555
C3_2 C4_2 1_555 1_555
C8_4 C9_4 1_555 1_555
C12_4 C13_4 1_555 1_555
C14_2 C15_2 1_555 1_555
C21_4 C30_4 1_555 1_555
C37_4 C38_4 1_555 1_555
Cu2_3 N1_5 1_555 1_555
N1_5 C6_5 1_555 1_555
N2_3 Cu2_3 1_555 1_555
N9 C11_5 1_555 1_555
C1_3 N2_3 1_555 1_555
C2_3 C1_3 1_555 1_555
H1_3 C2_3 1_555 1_555
C3_3 C2_3 1_555 1_555
H2_3 C3_3 1_555 1_555
C4_3 N2_3 1_555 1_555
C5_5 C4_3 1_555 1_555
C6_5 C5_5 1_555 1_555
C7_5 C6_5 1_555 1_555
H3_3 C7_5 1_555 1_555
C8_5 C7_5 1_555 1_555
H4_5 C8_5 1_555 1_555
C9_5 N1_5 1_555 1_555
C10_3 C1_3 1_555 1_555
C11_5 H5_5 1_555 1_555
C12_5 C11_5 1_555 1_555
H6_3 C12_5 1_555 1_555
C13_5 C5_5 1_555 1_555
C14_3 C13_5 1_555 1_555
H7_3 C14_3 1_555 1_555
C15_3 N9 1_555 1_555
H8_3 C15_3 1_555 1_555
H10_3 C17_3 1_555 1_555
C18_3 C10_3 1_555 1_555
N5_5 Cu2_3 1_555 1_555
N6_5 Cu2_3 1_555 1_555
N7_5 C31_5 1_555 1_555
C21_5 N6_5 1_555 1_555
C22_5 C21_5 1_555 1_555
H13_5 C22_5 1_555 1_555
C23_5 C22_5 1_555 1_555
H14_5 C23_5 1_555 1_555
C24_5 N6_5 1_555 1_555
C25_5 C24_5 1_555 1_555
C26_5 N5_5 1_555 1_555
C27_5 C26_5 1_555 1_555
H15_5 C27_5 1_555 1_555
C28_3 C27_5 1_555 1_555
H16_3 C28_3 1_555 1_555
C29_3 C10_3 1_555 1_555
C30_5 C9_5 1_555 1_555
C31_5 H17_5 1_555 1_555
C32_5 C31_5 1_555 1_555
H18_5 C32_5 1_555 1_555
C33_5 C25_5 1_555 1_555
C34_5 C33_5 1_555 1_555
H19_5 C34_5 1_555 1_555
C35_5 N7_5 1_555 1_555
H20_5 C35_5 1_555 1_555
H22_5 C37_5 1_555 1_555
C38_5 C30_5 1_555 1_555
Cu3_2 N7_5 1_555 1_555
N9_5 Cu2_3 1_555 1_555
C3_3 C4_3 1_555 1_555
C8_5 C9_5 1_555 1_555
C12_5 C13_5 1_555 1_555
C14_3 C15_3 1_555 1_555
C17_3 C18_3 1_555 1_555
N5_5 C29_3 1_555 1_555
C21_5 C30_5 1_555 1_555
C23_5 C24_5 1_555 1_555
C25_5 C26_5 1_555 1_555
C28_3 C29_3 1_555 1_555
C32_5 C33_5 1_555 1_555
C34_5 C35_5 1_555 1_555
C37_5 C38_5 1_555 1_555
Cu2 N1_6 1_555 1_555
N1_6 C6_6 1_555 1_555
N9_2 C11_6 1_555 1_555
H2_4 C3_4 1_555 1_555
C5_6 C4_4 1_555 1_555
C6_6 C5_6 1_555 1_555
C7_6 C6_6 1_555 1_555
H3_4 C7_6 1_555 1_555
C8_6 C7_6 1_555 1_555
H4_6 C8_6 1_555 1_555
C9_6 N1_6 1_555 1_555
C11_6 H5_6 1_555 1_555
C12_6 C11_6 1_555 1_555
H6_4 C12_6 1_555 1_555
C13_6 C5_6 1_555 1_555
C14_4 C13_6 1_555 1_555
H7_4 C14_4 1_555 1_555
C15_4 N9_2 1_555 1_555
H8_4 C15_4 1_555 1_555
N6_6 Cu2 1_555 1_555
C21_6 N6_6 1_555 1_555
C22_6 C21_6 1_555 1_555
H13_6 C22_6 1_555 1_555
C30_6 C9_6 1_555 1_555
H22_6 C37_6 1_555 1_555
C38_6 C30_6 1_555 1_555
C3_4 C4_4 1_555 1_555
C8_6 C9_6 1_555 1_555
C12_6 C13_6 1_555 1_555
C14_4 C15_4 1_555 1_555
C21_6 C30_6 1_555 1_555
C37_6 C38_6 1_555 1_555
C1_4 N2_4 1_555 1_555
C2_4 C1_4 1_555 1_555
H1_4 C2_4 1_555 1_555
C10_4 C1_4 1_555 1_555
H10_4 C17_4 1_555 1_555
C18_4 C10_4 1_555 1_555
N7_6 C31_6 1_555 1_555
H14_6 C23_6 1_555 1_555
C25_6 C24_6 1_555 1_555
C26_6 N5_6 1_555 1_555
C27_6 C26_6 1_555 1_555
H15_6 C27_6 1_555 1_555
C28_4 C27_6 1_555 1_555
H16_4 C28_4 1_555 1_555
C29_4 C10_4 1_555 1_555
C31_6 H17_6 1_555 1_555
C32_6 C31_6 1_555 1_555
H18_6 C32_6 1_555 1_555
C33_6 C25_6 1_555 1_555
C34_6 C33_6 1_555 1_555
H19_6 C34_6 1_555 1_555
C35_6 N7_6 1_555 1_555
H20_6 C35_6 1_555 1_555
Cu3_3 N7_6 1_555 1_555
C17_4 C18_4 1_555 1_555
N5_6 C29_4 1_555 1_555
C23_6 C24_6 1_555 1_555
C25_6 C26_6 1_555 1_555
C28_4 C29_4 1_555 1_555
C32_6 C33_6 1_555 1_555
C34_6 C35_6 1_555 1_555
H4_7 C8_7 1_555 1_555
N10_3 C31_7 1_555 1_555
N8_4 C36_4 1_555 1_555
C21_7 N6_7 1_555 1_555
C22_7 C21_7 1_555 1_555
H13_7 C22_7 1_555 1_555
C23_7 C22_7 1_555 1_555
H14_7 C23_7 1_555 1_555
C24_7 N6_7 1_555 1_555
C30_7 C9_7 1_555 1_555
C31_7 H17_7 1_555 1_555
C32_7 C31_7 1_555 1_555
H18_7 C32_7 1_555 1_555
C36_4 H21_4 1_555 1_555
C37_7 C36_4 1_555 1_555
H22_7 C37_7 1_555 1_555
C38_7 C30_7 1_555 1_555
C39_4 C38_7 1_555 1_555
H23_4 C39_4 1_555 1_555
C40_4 N8_4 1_555 1_555
H24_4 C40_4 1_555 1_555
C8_7 C9_7 1_555 1_555
C21_7 C30_7 1_555 1_555
C23_7 C24_7 1_555 1_555
C37_7 C38_7 1_555 1_555
C39_4 C40_4 1_555 1_555
Cu3_2 N1_7 1_555 1_555
N1_7 C6_7 1_555 1_555
N2_5 Cu3_2 1_555 1_555
N9_6 C11_7 1_555 1_555
N4_2 C16_2 1_555 1_555
C1_5 N2_5 1_555 1_555
C2_5 C1_5 1_555 1_555
H1_5 C2_5 1_555 1_555
C3_5 C2_5 1_555 1_555
H2_5 C3_5 1_555 1_555
C4_5 N2_5 1_555 1_555
C5_7 C4_5 1_555 1_555
C6_7 C5_7 1_555 1_555
C7_7 C6_7 1_555 1_555
H3_5 C7_7 1_555 1_555
C10_5 C1_5 1_555 1_555
C11_7 H5_7 1_555 1_555
C12_7 C11_7 1_555 1_555
H6_5 C12_7 1_555 1_555
C13_7 C5_7 1_555 1_555
C14_5 C13_7 1_555 1_555
H7_5 C14_5 1_555 1_555
C15_5 N9_6 1_555 1_555
H8_5 C15_5 1_555 1_555
C16_2 H9_2 1_555 1_555
C17_5 C16_2 1_555 1_555
H10_5 C17_5 1_555 1_555
C18_5 C10_5 1_555 1_555
C19_2 C18_5 1_555 1_555
H11_2 C19_2 1_555 1_555
C20_2 N4_2 1_555 1_555
H12_2 C20_2 1_555 1_555
N5_7 Cu3_2 1_555 1_555
C26_7 N5_7 1_555 1_555
C27_7 C26_7 1_555 1_555
H15_7 C27_7 1_555 1_555
C28_5 C27_7 1_555 1_555
H16_5 C28_5 1_555 1_555
C29_5 C10_5 1_555 1_555
C33_7 C25_7 1_555 1_555
C34_7 C33_7 1_555 1_555
H19_7 C34_7 1_555 1_555
H20_7 C35_7 1_555 1_555
C3_5 C4_5 1_555 1_555
C12_7 C13_7 1_555 1_555
C14_5 C15_5 1_555 1_555
C17_5 C18_5 1_555 1_555
C19_2 C20_2 1_555 1_555
N5_7 C29_5 1_555 1_555
C25_7 C26_7 1_555 1_555
C28_5 C29_5 1_555 1_555
C34_7 C35_7 1_555 1_555
N10 C31_8 1_555 1_555
C31_8 H17_8 1_555 1_555
C32_8 C31_8 1_555 1_555
Cu3_3 N1_8 1_555 1_555
N1_8 C6_8 1_555 1_555
N2_6 Cu3_3 1_555 1_555
N9_4 C11_8 1_555 1_555
N4_3 C16_3 1_555 1_555
C1_6 N2_6 1_555 1_555
C2_6 C1_6 1_555 1_555
H1_6 C2_6 1_555 1_555
C3_6 C2_6 1_555 1_555
H2_6 C3_6 1_555 1_555
C4_6 N2_6 1_555 1_555
C5_8 C4_6 1_555 1_555
C6_8 C5_8 1_555 1_555
C7_8 C6_8 1_555 1_555
H3_6 C7_8 1_555 1_555
C10_6 C1_6 1_555 1_555
C11_8 H5_8 1_555 1_555
C12_8 C11_8 1_555 1_555
H6_6 C12_8 1_555 1_555
C13_8 C5_8 1_555 1_555
C14_6 C13_8 1_555 1_555
H7_6 C14_6 1_555 1_555
C15_6 N9_4 1_555 1_555
H8_6 C15_6 1_555 1_555
C16_3 H9_3 1_555 1_555
C17_6 C16_3 1_555 1_555
H10_6 C17_6 1_555 1_555
C18_6 C10_6 1_555 1_555
C19_3 C18_6 1_555 1_555
H11_3 C19_3 1_555 1_555
C20_3 N4_3 1_555 1_555
H12_3 C20_3 1_555 1_555
N5_8 Cu3_3 1_555 1_555
C26_8 N5_8 1_555 1_555
C27_8 C26_8 1_555 1_555
C28_6 C27_8 1_555 1_555
H16_6 C28_6 1_555 1_555
C29_6 C10_6 1_555 1_555
C33_8 C25_8 1_555 1_555
C3_6 C4_6 1_555 1_555
C12_8 C13_8 1_555 1_555
C14_6 C15_6 1_555 1_555
C17_6 C18_6 1_555 1_555
C19_3 C20_3 1_555 1_555
N5_8 C29_6 1_555 1_555
C25_8 C26_8 1_555 1_555
C28_6 C29_6 1_555 1_555
Cu3 N1_9 1_555 1_555
N1_9 C6_9 1_555 1_555
N2_7 Cu3 1_555 1_555
N9_5 C11_9 1_555 1_555
N4_4 C16_4 1_555 1_555
C1_7 N2_7 1_555 1_555
C2_7 C1_7 1_555 1_555
H1_7 C2_7 1_555 1_555
C3_7 C2_7 1_555 1_555
H2_7 C3_7 1_555 1_555
C4_7 N2_7 1_555 1_555
C5_9 C4_7 1_555 1_555
C6_9 C5_9 1_555 1_555
C7_9 C6_9 1_555 1_555
H3_7 C7_9 1_555 1_555
C10_7 C1_7 1_555 1_555
C11_9 H5_9 1_555 1_555
C12_9 C11_9 1_555 1_555
H6_7 C12_9 1_555 1_555
C13_9 C5_9 1_555 1_555
C14_7 C13_9 1_555 1_555
H7_7 C14_7 1_555 1_555
C15_7 N9_5 1_555 1_555
H8_7 C15_7 1_555 1_555
C16_4 H9_4 1_555 1_555
C17_7 C16_4 1_555 1_555
H10_7 C17_7 1_555 1_555
C18_7 C10_7 1_555 1_555
C19_4 C18_7 1_555 1_555
H11_4 C19_4 1_555 1_555
C20_4 N4_4 1_555 1_555
H12_4 C20_4 1_555 1_555
N5_9 Cu3 1_555 1_555
C26_9 N5_9 1_555 1_555
C27_9 C26_9 1_555 1_555
C28_7 C27_9 1_555 1_555
H16_7 C28_7 1_555 1_555
C29_7 C10_7 1_555 1_555
C33_9 C25_9 1_555 1_555
C3_7 C4_7 1_555 1_555
C12_9 C13_9 1_555 1_555
C14_7 C15_7 1_555 1_555
C17_7 C18_7 1_555 1_555
C19_4 C20_4 1_555 1_555
N5_9 C29_7 1_555 1_555
C25_9 C26_9 1_555 1_555
C28_7 C29_7 1_555 1_555
N10_2 C31_9 1_555 1_555
C31_9 H17_9 1_555 1_555
C32_9 C31_9 1_555 1_555
Cu2_4 N9_6 1_555 1_555
Cu2_5 N9_4 1_555 1_555
Cu2_5 N5_4 1_555 1_555
N2_2 Cu2_5 1_555 1_555
Cu2_4 N5_6 1_555 1_555
N2_4 Cu2_4 1_555 1_555
N4_5 C16_5 1_555 1_555
C1_8 N2_8 1_555 1_555
C2_8 C1_8 1_555 1_555
H1_8 C2_8 1_555 1_555
C3_8 C2_8 1_555 1_555
H2_8 C3_8 1_555 1_555
C4_8 N2_8 1_555 1_555
C10_8 C1_8 1_555 1_555
C16_5 H9_5 1_555 1_555
C17_8 C16_5 1_555 1_555
H10_8 C17_8 1_555 1_555
C18_8 C10_8 1_555 1_555
C19_5 C18_8 1_555 1_555
H11_5 C19_5 1_555 1_555
C20_5 N4_5 1_555 1_555
H12_5 C20_5 1_555 1_555
H16_8 C28_8 1_555 1_555
C29_8 C10_8 1_555 1_555
C3_8 C4_8 1_555 1_555
C17_8 C18_8 1_555 1_555
C19_5 C20_5 1_555 1_555
C28_8 C29_8 1_555 1_555
H7_8 C14_8 1_555 1_555
H8_8 C15_8 1_555 1_555
C14_8 C15_8 1_555 1_555
H7_9 C14_9 1_555 1_555
H8_9 C15_9 1_555 1_555
C14_9 C15_9 1_555 1_555
N4_6 C16_6 1_555 1_555
C1_9 N2_9 1_555 1_555
C2_9 C1_9 1_555 1_555
H1_9 C2_9 1_555 1_555
C3_9 C2_9 1_555 1_555
H2_9 C3_9 1_555 1_555
C4_9 N2_9 1_555 1_555
C10_9 C1_9 1_555 1_555
C16_6 H9_6 1_555 1_555
C17_9 C16_6 1_555 1_555
H10_9 C17_9 1_555 1_555
C18_9 C10_9 1_555 1_555
C19_6 C18_9 1_555 1_555
H11_6 C19_6 1_555 1_555
C20_6 N4_6 1_555 1_555
H12_6 C20_6 1_555 1_555
H16_9 C28_9 1_555 1_555
C29_9 C10_9 1_555 1_555
C3_9 C4_9 1_555 1_555
C17_9 C18_9 1_555 1_555
C19_6 C20_6 1_555 1_555
C28_9 C29_9 1_555 1_555
N4_7 C16_7 1_555 1_555
C16_7 H9_7 1_555 1_555
H11_7 C19_7 1_555 1_555
C20_7 N4_7 1_555 1_555
H12_7 C20_7 1_555 1_555
C19_7 C20_7 1_555 1_555
N8_5 C36_5 1_555 1_555
C36_5 H21_5 1_555 1_555
H23_5 C39_5 1_555 1_555
C40_5 N8_5 1_555 1_555
H24_5 C40_5 1_555 1_555
C39_5 C40_5 1_555 1_555
N8_6 C36_6 1_555 1_555
C36_6 H21_6 1_555 1_555
H23_6 C39_6 1_555 1_555
C40_6 N8_6 1_555 1_555
H24_6 C40_6 1_555 1_555
C39_6 C40_6 1_555 1_555
N4_8 C16_8 1_555 1_555
C16_8 H9_8 1_555 1_555
H11_8 C19_8 1_555 1_555
C20_8 N4_8 1_555 1_555
H12_8 C20_8 1_555 1_555
C19_8 C20_8 1_555 1_555
N8_7 C36_7 1_555 1_555
C36_7 H21_7 1_555 1_555
H23_7 C39_7 1_555 1_555
C40_7 N8_7 1_555 1_555
H24_7 C40_7 1_555 1_555
C39_7 C40_7 1_555 1_555
N4_9 C16_9 1_555 1_555
C16_9 H9_9 1_555 1_555
H11_9 C19_9 1_555 1_555
C20_9 N4_9 1_555 1_555
H12_9 C20_9 1_555 1_555
C19_9 C20_9 1_555 1_555
H19_8 C34_8 1_555 1_555
H20_8 C35_8 1_555 1_555
C34_8 C35_8 1_555 1_555
H4_8 C8_8 1_555 1_555
N8_8 C36_8 1_555 1_555
C21_8 N6_8 1_555 1_555
C22_8 C21_8 1_555 1_555
H13_8 C22_8 1_555 1_555
C23_8 C22_8 1_555 1_555
H14_8 C23_8 1_555 1_555
C24_8 N6_8 1_555 1_555
C30_8 C9_8 1_555 1_555
C36_8 H21_8 1_555 1_555
C37_8 C36_8 1_555 1_555
H22_8 C37_8 1_555 1_555
C38_8 C30_8 1_555 1_555
C39_8 C38_8 1_555 1_555
H23_8 C39_8 1_555 1_555
C40_8 N8_8 1_555 1_555
H24_8 C40_8 1_555 1_555
C8_8 C9_8 1_555 1_555
C21_8 C30_8 1_555 1_555
C23_8 C24_8 1_555 1_555
C37_8 C38_8 1_555 1_555
C39_8 C40_8 1_555 1_555
H4_9 C8_9 1_555 1_555
N8_9 C36_9 1_555 1_555
C21_9 N6_9 1_555 1_555
C22_9 C21_9 1_555 1_555
H13_9 C22_9 1_555 1_555
C23_9 C22_9 1_555 1_555
H14_9 C23_9 1_555 1_555
C24_9 N6_9 1_555 1_555
C30_9 C9_9 1_555 1_555
C36_9 H21_9 1_555 1_555
C37_9 C36_9 1_555 1_555
H22_9 C37_9 1_555 1_555
C38_9 C30_9 1_555 1_555
C39_9 C38_9 1_555 1_555
H23_9 C39_9 1_555 1_555
C40_9 N8_9 1_555 1_555
H24_9 C40_9 1_555 1_555
C8_9 C9_9 1_555 1_555
C21_9 C30_9 1_555 1_555
C23_9 C24_9 1_555 1_555
C37_9 C38_9 1_555 1_555
C39_9 C40_9 1_555 1_555
H19_9 C34_9 1_555 1_555
H20_9 C35_9 1_555 1_555
C34_9 C35_9 1_555 1_555

#END
