
###############################################################################
#
# This file contains modified crystal structure data generated from the
# MOF subset of the Cambridge Structural Database (CSD) v543 
# hosted by the Cambridge Crystallographic Data Centre (CCDC).
#
# This work is licensed under the Creative Commons
# Attribution-NonCommercial-ShareAlike 4.0 International License.
# To view a copy of this license, visit
# http://creativecommons.org/licenses/by-nc-sa/4.0/
# or send a letter to
# Creative Commons, PO Box 1866, Mountain View, CA 94042, USA.
#
# CIF created using the CSD Python API on 29 September 2022
# The structure has been converted into the P1 space group
# The structure has a 3D framework
# The original CSD entry CECKIH is in the triclinic crystal system
# The framework has been calculated to contain at least 10.0% void space
# The void calculation uses a probe of radius 1.32A, grid spacing 0.4
# The framework is charged, counterions have been retained in the structure
# H atom positions have been added when not included in the experimental data
#
###############################################################################

data_CECKIH
_chemical_formula_moiety         '(C28 H36 N4 O22 Zn4 1+)n'
_symmetry_cell_setting           triclinic
_symmetry_space_group_name_H-M   'P 1'
_symmetry_Int_Tables_number      1
_space_group_name_Hall           'P 1'
loop_
_symmetry_equiv_pos_site_id
_symmetry_equiv_pos_as_xyz
1 x,y,z
_cell_length_a                   9.110(13)
_cell_length_b                   9.723(14)
_cell_length_c                   14.337(18)
_cell_angle_alpha                91.703(10)
_cell_angle_beta                 97.738(17)
_cell_angle_gamma                113.407(10)
_cell_volume                     1149.96
loop_
_atom_site_label
_atom_site_type_symbol
_atom_site_fract_x
_atom_site_fract_y
_atom_site_fract_z
C6 C 0.5914(6) 0.0150(6) 0.0043(4)
O12 O 0.6845(5) 0.1412(4) 0.9817(3)
O19 O 0.3679(5) 0.0865(4) 0.9660(3)
Zn7 Zn 0.56370(8) 0.27096(7) 0.92939(4)
C1 C 0.4956(7) 0.4497(7) 0.4553(4)
C3 C 0.3895(6) 0.7339(6) 0.2606(4)
C4 C 0.2438(6) 0.5916(6) 0.2102(4)
C5 C 0.5571(7) 0.5046(6) 0.0474(3)
O1 O 0.5904(6) 0.3837(6) 0.4629(3)
O2 O 0.3955(5) 0.4395(6) 0.3854(3)
O3 O 0.0756(5) 0.3757(5) 0.4544(3)
O5 O 0.4032(5) 0.7525(5) 0.3490(3)
O6 O 0.1507(5) 0.5071(5) 0.2615(3)
O7 O 0.4821(5) 0.8193(4) 0.2101(3)
O8 O 0.2300(5) 0.5725(5) 0.1225(3)
O9 O 0.5761(5) 0.6050(4) 0.1097(3)
O10 O 0.6184(5) 0.4103(4) 0.0523(3)
O11 O 0.6321(5) 0.9135(4) 0.0340(3)
Zn1 Zn 0.25405(8) 0.56148(8) 0.40704(4)
Zn2 Zn 0.43630(8) 0.72904(7) 0.07061(4)
C7 C 0.5044(7) 0.5503(7) 0.5447(4)
O13 O 0.4096(6) 0.6163(6) 0.5371(3)
O14 O 0.6045(5) 0.5605(6) 0.6146(3)
C8 C 0.0125(6) 0.5841(6) 0.5007(4)
O16 O 0.1170(5) 0.6667(5) 0.4553(3)
O20 O 0.3155(5) 0.8588(4) 0.0183(3)
Zn5 Zn 0.74595(8) 0.43852(8) 0.59296(4)
C9 C 0.4429(7) 0.4954(6) 0.9526(3)
O17 O 0.4239(5) 0.3950(4) 0.8903(3)
O18 O 0.3816(5) 0.5897(4) 0.9477(3)
C10 C 0.4086(6) 0.9850(6) 0.9957(4)
C2 C 0.9875(6) 0.4159(6) 0.4993(4)
O4 O 0.8830(5) 0.3333(5) 0.5447(3)
O15 O 0.9244(5) 0.6243(5) 0.5456(3)
C11 C 0.6105(6) 0.2661(6) 0.7394(4)
C12 C 0.7562(6) 0.4084(6) 0.7898(4)
O21 O 0.5968(5) 0.2475(5) 0.6510(3)
O22 O 0.8493(5) 0.4929(5) 0.7385(3)
O23 O 0.5179(5) 0.1807(4) 0.7899(3)
O24 O 0.7700(5) 0.4275(5) 0.8775(3)
C14 C 0.226(2) 0.0536(19) 0.3251(12)
C15 C 0.025(2) 0.1343(19) 0.2346(12)
C20 C 0.2863(11) 0.2116(10) 0.1821(7)
H4 H 0.2421 0.2305 0.1216
H5 H 0.3725 0.1809 0.1748
H6 H 0.3277 0.3017 0.2243
N2 N 0.1547(7) 0.0878(6) 0.2222(4)
H13 H 0.0665339 0.221382 0.293311
H15 H 0.0434181 0.025991 0.417363
H18 H 0.296957 0.158324 0.369388
C13 C 0.073(2) 0.9547(19) 0.3699(13)
C18 C 0.096(2) 0.9396(19) 0.1618(12)
H7 H 0.0390167 0.739179 0.237949
H11 H 0.0328383 0.948282 0.0936134
H12 H 0.199734 0.915274 0.151239
H16 H 0.0979289 0.870067 0.409084
H17 H 0.301496 0.992218 0.317055
C16 C 0.879(2) 0.001(2) 0.2554(13)
H10 H 0.825144 0.0364584 0.309657
H14 H 0.991122 0.178641 0.170213
C17 C 0.979(2) 0.8102(19) 0.2108(13)
C19 C 0.8025(9) 0.7555(9) 0.3301(6)
H1 H 0.8458 0.6883 0.3581
H2 H 0.7145 0.7008 0.2802
H3 H 0.7641 0.7988 0.3772
N1 N 0.9333(6) 0.8790(6) 0.2903(4)
H8 H 0.871068 0.74274 0.160481
H9 H 0.790043 0.956735 0.191276
C17_2 C 0.021(2) 0.1898(19) 0.7892(13)
C19_2 C 0.1975(9) 0.2445(9) 0.6699(6)
H1_2 H 0.1542 0.3117 0.6419
H2_2 H 0.2855 0.2992 0.7198
H3_2 H 0.2359 0.2012 0.6228
N1_2 N 0.0667(6) 0.1210(6) 0.7097(4)
H8_2 H 0.128932 0.25726 0.839519
H9_2 H 0.209957 0.0432649 0.808724
C16_2 C 0.121(2) 0.999(2) 0.7446(13)
H10_2 H 0.174856 0.963542 0.690343
H14_2 H 0.00887763 0.821359 0.829787
C13_2 C 0.927(2) 0.0453(19) 0.6301(13)
C18_2 C 0.904(2) 0.0604(19) 0.8382(12)
H7_2 H 0.960983 0.260821 0.762051
H11_2 H 0.967162 0.0517178 0.906387
H12_2 H 0.800266 0.0847258 0.848761
H16_2 H 0.902071 0.129933 0.590916
H17_2 H 0.698504 0.00778183 0.682945
C14_2 C 0.774(2) 0.9464(19) 0.6749(12)
C15_2 C 0.975(2) 0.8657(19) 0.7654(12)
C20_2 C 0.7137(11) 0.7884(10) 0.8179(7)
H4_2 H 0.7579 0.7695 0.8784
H5_2 H 0.6275 0.8191 0.8252
H6_2 H 0.6723 0.6983 0.7757
N2_2 N 0.8453(7) 0.9122(6) 0.7778(4)
H13_2 H 0.933466 0.778618 0.706689
H15_2 H 0.956582 0.974009 0.582637
H18_2 H 0.703043 0.841676 0.630612
loop_
_geom_bond_atom_site_label_1
_geom_bond_atom_site_label_2
_geom_bond_site_symmetry_1
_geom_bond_site_symmetry_2
Zn7 O12 1_555 1_555
O19 Zn7 1_555 1_555
C1 O1 1_555 1_555
C3 C4 1_555 1_555
C4 O6 1_555 1_555
C5 O9 1_555 1_555
O1 Zn5 1_555 1_555
O2 C1 1_555 1_555
O3 Zn1 1_555 1_555
O5 C3 1_555 1_555
O6 Zn1 1_555 1_555
O7 C3 1_555 1_555
O8 C4 1_555 1_555
O9 Zn2 1_555 1_555
O10 C5 1_555 1_555
O11 Zn2 1_555 1_555
Zn1 O2 1_555 1_555
Zn2 O7 1_555 1_555
C7 C1 1_555 1_555
O13 Zn1 1_555 1_555
O14 C7 1_555 1_555
O16 Zn1 1_555 1_555
O20 Zn2 1_555 1_555
Zn5 O14 1_555 1_555
O5 Zn1 1_555 1_555
O8 Zn2 1_555 1_555
C7 O13 1_555 1_555
C8 O16 1_555 1_555
O17 C9 1_555 1_555
C9 O18 1_555 1_555
O17 Zn7 1_555 1_555
O4 C2 1_555 1_555
C11 C12 1_555 1_555
C12 O22 1_555 1_555
O21 C11 1_555 1_555
O22 Zn5 1_555 1_555
O23 C11 1_555 1_555
O24 C12 1_555 1_555
Zn5 O4 1_555 1_555
Zn7 O23 1_555 1_555
O15 Zn5 1_555 1_555
O21 Zn5 1_555 1_555
O24 Zn7 1_555 1_555
C14 N2 1_555 1_555
C20 H4 1_555 1_555
H5 C20 1_555 1_555
H6 C20 1_555 1_555
N2 C15 1_555 1_555
C20 N2 1_555 1_555
C15 H13 1_555 1_555
C14 H18 1_555 1_555
C18 H11 1_555 1_555
C18 H12 1_555 1_555
C13 H16 1_555 1_555
C16 H10 1_555 1_555
C19 H1 1_555 1_555
H2 C19 1_555 1_555
H3 C19 1_555 1_555
C17 N1 1_555 1_555
C19 N1 1_555 1_555
C17 H8 1_555 1_555
C19_2 H1_2 1_555 1_555
H2_2 C19_2 1_555 1_555
H3_2 C19_2 1_555 1_555
C17_2 N1_2 1_555 1_555
C19_2 N1_2 1_555 1_555
C17_2 H8_2 1_555 1_555
C16_2 H10_2 1_555 1_555
C18_2 H11_2 1_555 1_555
C18_2 H12_2 1_555 1_555
C13_2 H16_2 1_555 1_555
C14_2 N2_2 1_555 1_555
C20_2 H4_2 1_555 1_555
H5_2 C20_2 1_555 1_555
H6_2 C20_2 1_555 1_555
N2_2 C15_2 1_555 1_555
C20_2 N2_2 1_555 1_555
C15_2 H13_2 1_555 1_555
C14_2 H18_2 1_555 1_555

#END
