
###############################################################################
#
# This file contains modified crystal structure data generated from the
# MOF subset of the Cambridge Structural Database (CSD) v543 
# hosted by the Cambridge Crystallographic Data Centre (CCDC).
#
# This work is licensed under the Creative Commons
# Attribution-NonCommercial-ShareAlike 4.0 International License.
# To view a copy of this license, visit
# http://creativecommons.org/licenses/by-nc-sa/4.0/
# or send a letter to
# Creative Commons, PO Box 1866, Mountain View, CA 94042, USA.
#
# CIF created using the CSD Python API on 29 September 2022
# The structure has been converted into the P1 space group
# The structure has a 3D framework
# The original CSD entry CECKON is in the triclinic crystal system
# The framework has been calculated to contain at least 10.0% void space
# The void calculation uses a probe of radius 1.32A, grid spacing 0.4
# The framework is charged, counterions have been retained in the structure
# H atom positions have been added when not included in the experimental data
#
###############################################################################

data_CECKON
_chemical_formula_moiety         '(C28 H36 Co4 N4 O23)n'
_symmetry_cell_setting           triclinic
_symmetry_space_group_name_H-M   'P 1'
_symmetry_Int_Tables_number      1
_space_group_name_Hall           'P 1'
loop_
_symmetry_equiv_pos_site_id
_symmetry_equiv_pos_as_xyz
1 x,y,z
_cell_length_a                   9.0560(18)
_cell_length_b                   9.6860(19)
_cell_length_c                   14.356(3)
_cell_angle_alpha                91.39(3)
_cell_angle_beta                 97.77(3)
_cell_angle_gamma                113.50(3)
_cell_volume                     1139.97
loop_
_atom_site_label
_atom_site_type_symbol
_atom_site_fract_x
_atom_site_fract_y
_atom_site_fract_z
C3 C 0.0909(10) 0.5136(9) 0.0038(6)
C4 C 0.0543(10) 0.0024(9) 0.0473(6)
O5 O 0.1303(8) 0.4115(7) 0.0323(4)
O7 O 0.0691(8) 0.0993(7) 0.1112(4)
O13 O 0.0989(7) 0.0539(8) 0.6160(4)
O6 O 0.1853(7) 0.6396(7) 0.9799(5)
Co6 Co 0.06503(15) 0.77164(13) 0.92883(8)
C1 C 0.0006(11) 0.9542(10) 0.4550(6)
O2 O 0.0979(8) 0.8912(8) 0.4626(4)
O8 O 0.1150(8) 0.9069(7) 0.0531(4)
Co7 Co 0.24664(15) 0.93998(14) 0.59407(8)
C5 C 0.8889(11) 0.2324(10) 0.2603(6)
C6 C 0.7438(10) 0.0918(10) 0.2096(6)
Co1 Co 0.93497(15) 0.22836(13) 0.07117(8)
Co2 Co 0.75336(15) 0.06002(14) 0.40593(8)
O9 O 0.9789(7) 0.3205(6) 0.2089(4)
O10 O 0.9045(8) 0.2532(7) 0.3483(4)
O11 O 0.7304(7) 0.0711(7) 0.1231(4)
O12 O 0.6484(7) 0.0074(7) 0.2612(4)
C7 C 0.9994(11) 0.0458(10) 0.5450(6)
O14 O 0.9021(8) 0.1088(8) 0.5374(4)
C8 C 0.5106(10) 0.0828(10) 0.4996(6)
O15 O 0.4229(8) 0.1251(7) 0.5438(4)
O16 O 0.6111(8) 0.1636(7) 0.4509(5)
O18 O 0.8147(7) 0.3604(7) 0.0201(5)
C9 C 0.9091(10) 0.4864(9) 0.9962(6)
O17 O 0.8697(8) 0.5885(7) 0.9677(4)
O20 O 0.8850(8) 0.0931(7) 0.9469(4)
C2 C 0.4894(10) 0.9172(10) 0.5004(6)
O1 O 0.9011(7) 0.9461(8) 0.3840(4)
O3 O 0.5771(8) 0.8749(7) 0.4562(4)
O4 O 0.3889(8) 0.8364(7) 0.5491(5)
C11 C 0.1111(11) 0.7676(10) 0.7397(6)
C12 C 0.2562(10) 0.9082(10) 0.7904(6)
O21 O 0.0211(7) 0.6795(6) 0.7911(4)
O22 O 0.0955(8) 0.7468(7) 0.6517(4)
O23 O 0.2696(7) 0.9289(7) 0.8769(4)
O24 O 0.3516(7) 0.9926(7) 0.7388(4)
C10 C 0.9457(10) 0.9976(9) 0.9527(6)
O19 O 0.9309(8) 0.9007(7) 0.8888(4)
C13 C 0.6992(13) 0.7469(13) 0.6698(8)
H1 H 0.6541 0.8162 0.6424
H2 H 0.7377 0.7037 0.6208
H3 H 0.7906 0.8022 0.7202
C14 C 0.2124(15) 0.2869(13) 0.8168(9)
H4 H 0.2023 0.1887 0.7906
H5 H 0.1086 0.2966 0.7998
H6 H 0.2401 0.2947 0.8857
C15 C 0.426(3) 0.545(3) 0.6289(17)
C16 C 0.628(3) 0.500(3) 0.7458(18)
C17 C 0.518(3) 0.691(3) 0.7879(19)
C18 C 0.272(3) 0.443(3) 0.6744(17)
C19 C 0.477(3) 0.365(3) 0.7681(17)
C20 C 0.403(3) 0.561(3) 0.8389(18)
N1 N 0.3457(10) 0.4123(9) 0.7772(6)
N2 N 0.5692(9) 0.6219(9) 0.7099(5)
H7 H 0.509687 0.323076 0.833984
H8 H 0.436324 0.275417 0.711167
H9 H 0.297955 0.583557 0.850341
H10 H 0.468393 0.552901 0.906575
H11 H 0.399823 0.630185 0.59035
H12 H 0.456264 0.474934 0.580965
H13 H 0.681349 0.46374 0.691599
H14 H 0.718389 0.545326 0.809295
H15 H 0.202716 0.336858 0.631116
H16 H 0.193565 0.502221 0.681554
H17 H 0.625023 0.762883 0.837721
H18 H 0.453942 0.758099 0.758397
C13_2 C 0.3008(13) 0.2531(13) 0.3302(8)
H1_2 H 0.3459 0.1838 0.3576
H2_2 H 0.2623 0.2963 0.3792
H3_2 H 0.2094 0.1978 0.2798
C14_2 C 0.7876(15) 0.7131(13) 0.1832(9)
H4_2 H 0.7977 0.8113 0.2094
H5_2 H 0.8914 0.7034 0.2002
H6_2 H 0.7599 0.7053 0.1143
C15_2 C 0.574(3) 0.455(3) 0.3711(17)
C16_2 C 0.372(3) 0.500(3) 0.2542(18)
C17_2 C 0.482(3) 0.309(3) 0.2121(19)
C18_2 C 0.728(3) 0.557(3) 0.3256(17)
C19_2 C 0.523(3) 0.635(3) 0.2319(17)
C20_2 C 0.597(3) 0.439(3) 0.1611(18)
N1_2 N 0.6543(10) 0.5877(9) 0.2228(6)
N2_2 N 0.4308(9) 0.3781(9) 0.2901(5)
H7_2 H 0.490313 0.676924 0.166016
H8_2 H 0.563676 0.724583 0.288833
H9_2 H 0.702045 0.416443 0.149659
H10_2 H 0.531607 0.447099 0.0934253
H11_2 H 0.600177 0.369815 0.40965
H12_2 H 0.543736 0.525066 0.419035
H13_2 H 0.318651 0.53626 0.308401
H14_2 H 0.281611 0.454674 0.190705
H15_2 H 0.797284 0.663142 0.368884
H16_2 H 0.806435 0.497779 0.318446
H17_2 H 0.374977 0.237117 0.162279
H18_2 H 0.546058 0.241901 0.241603
loop_
_geom_bond_atom_site_label_1
_geom_bond_atom_site_label_2
_geom_bond_site_symmetry_1
_geom_bond_site_symmetry_2
C3 O5 1_555 1_555
C4 O7 1_555 1_555
Co6 O6 1_555 1_555
O2 C1 1_555 1_555
Co7 O2 1_555 1_555
C5 C6 1_555 1_555
C6 O11 1_555 1_555
O9 C5 1_555 1_555
O10 C5 1_555 1_555
O11 Co1 1_555 1_555
O12 C6 1_555 1_555
O14 Co2 1_555 1_555
O15 C8 1_555 1_555
O16 Co2 1_555 1_555
O18 Co1 1_555 1_555
Co1 O9 1_555 1_555
Co2 O10 1_555 1_555
Co2 O12 1_555 1_555
C7 O14 1_555 1_555
C8 O16 1_555 1_555
O17 C9 1_555 1_555
C2 O3 1_555 1_555
O4 C2 1_555 1_555
C11 C12 1_555 1_555
C12 O23 1_555 1_555
Co6 O21 1_555 1_555
Co7 O4 1_555 1_555
O21 C11 1_555 1_555
O22 C11 1_555 1_555
O23 Co6 1_555 1_555
O24 C12 1_555 1_555
Co7 O22 1_555 1_555
Co7 O24 1_555 1_555
O19 C10 1_555 1_555
C13 H1 1_555 1_555
H2 C13 1_555 1_555
H3 C13 1_555 1_555
C14 H4 1_555 1_555
H5 C14 1_555 1_555
H6 C14 1_555 1_555
C15 C18 1_555 1_555
C16 C19 1_555 1_555
C17 C20 1_555 1_555
C18 N1 1_555 1_555
C19 N1 1_555 1_555
C20 N1 1_555 1_555
N1 C14 1_555 1_555
N2 C13 1_555 1_555
C15 N2 1_555 1_555
C16 N2 1_555 1_555
C17 N2 1_555 1_555
C19 H7 1_555 1_555
C19 H8 1_555 1_555
C20 H9 1_555 1_555
C20 H10 1_555 1_555
C15 H11 1_555 1_555
C15 H12 1_555 1_555
C16 H13 1_555 1_555
C16 H14 1_555 1_555
C18 H15 1_555 1_555
C18 H16 1_555 1_555
C17 H17 1_555 1_555
C17 H18 1_555 1_555
C13_2 H1_2 1_555 1_555
H2_2 C13_2 1_555 1_555
H3_2 C13_2 1_555 1_555
C14_2 H4_2 1_555 1_555
H5_2 C14_2 1_555 1_555
H6_2 C14_2 1_555 1_555
C15_2 C18_2 1_555 1_555
C16_2 C19_2 1_555 1_555
C17_2 C20_2 1_555 1_555
C18_2 N1_2 1_555 1_555
C19_2 N1_2 1_555 1_555
C20_2 N1_2 1_555 1_555
N1_2 C14_2 1_555 1_555
N2_2 C13_2 1_555 1_555
C15_2 N2_2 1_555 1_555
C16_2 N2_2 1_555 1_555
C17_2 N2_2 1_555 1_555
C19_2 H7_2 1_555 1_555
C19_2 H8_2 1_555 1_555
C20_2 H9_2 1_555 1_555
C20_2 H10_2 1_555 1_555
C15_2 H11_2 1_555 1_555
C15_2 H12_2 1_555 1_555
C16_2 H13_2 1_555 1_555
C16_2 H14_2 1_555 1_555
C18_2 H15_2 1_555 1_555
C18_2 H16_2 1_555 1_555
C17_2 H17_2 1_555 1_555
C17_2 H18_2 1_555 1_555

#END
