
###############################################################################
#
# This file contains modified crystal structure data generated from the
# MOF subset of the Cambridge Structural Database (CSD) v543 
# hosted by the Cambridge Crystallographic Data Centre (CCDC).
#
# This work is licensed under the Creative Commons
# Attribution-NonCommercial-ShareAlike 4.0 International License.
# To view a copy of this license, visit
# http://creativecommons.org/licenses/by-nc-sa/4.0/
# or send a letter to
# Creative Commons, PO Box 1866, Mountain View, CA 94042, USA.
#
# CIF created using the CSD Python API on 29 September 2022
# The structure has been converted into the P1 space group
# The structure has a 3D framework
# The original CSD entry CECVAI is in the cubic crystal system
# The original CSD entry CECVAI is in a Sohncke space group
# The framework has been calculated to contain at least 10.0% void space
# The void calculation uses a probe of radius 1.32A, grid spacing 0.4
# H atom positions have been added when not included in the experimental data
#
###############################################################################

data_CECVAI
_chemical_formula_moiety         '(C188 H132 Cu24 N48 O72)n'
_symmetry_cell_setting           triclinic
_symmetry_space_group_name_H-M   'P 1'
_symmetry_Int_Tables_number      1
_space_group_name_Hall           'P 1'
loop_
_symmetry_equiv_pos_site_id
_symmetry_equiv_pos_as_xyz
1 x,y,z
_cell_length_a                   22.3869(5)
_cell_length_b                   22.3869(5)
_cell_length_c                   22.3869(5)
_cell_angle_alpha                90
_cell_angle_beta                 90
_cell_angle_gamma                90
_cell_volume                     11219.7
loop_
_atom_site_label
_atom_site_type_symbol
_atom_site_fract_x
_atom_site_fract_y
_atom_site_fract_z
H3 H 0.5543 0.0109 0.3901
Cu2 Cu 0.66999(4) 0.04081(4) 0.29468(4)
N3 N 0.6814(3) 0.1145(3) 0.3963(3)
N4 N 0.7067(3) 0.0641(3) 0.3700(3)
C9 C 0.6337(4) 0.1337(4) 0.3663(4)
C10 C 0.7504(5) 0.0380(5) 0.3972(5)
H7 H 0.7632 0.0541 0.4343
O5 O 0.6509(3) 0.0311(3) 0.2050(3)
C17 C 0.6774(3) 0.0582(3) 0.1757(3)
O6 O 0.7097(7) 0.0939(5) 0.1993(5)
Cu5 Cu 0.41738(4) 0.24408(5) 0.33754(4)
Cu6 Cu 0.74408(5) 0.16246(4) 0.58262(4)
O10 O 0.9034(6) 0.1070(5) 0.1002(6)
H12 H 0.9108 0.1248 0.0680
C27 C 0.8979(6) 0.0223(5) 0.0363(6)
H18 H 0.9255 0.0411 0.0101
C29 C 0.8788(6) 0.0509(5) 0.0878(6)
C31 C 0.8393(5) 0.0244(5) 0.1241(5)
H20 H 0.8270 0.0451 0.1591
Cu9 Cu 0.70532(4) 0.16999(4) 0.45919(4)
Cu10 Cu 0.54081(4) 0.20532(4) 0.33001(4)
O11 O 0.4745(2) 0.2161(3) 0.2745(2)
O12 O 0.7161(3) 0.2255(2) 0.5255(2)
O15 O 0.3953(8) 0.0661(7) 0.0969(8)
O16 O 0.5661(7) 0.4031(8) 0.6047(8)
H21 H 0.4207 0.0390 0.0918
H22 H 0.5390 0.4082 0.5793
N9 N 0.6145(3) 0.1037(3) 0.3186(3)
N10 N 0.6037(3) 0.1814(3) 0.3855(3)
N13 N 0.5641(3) 0.1300(3) 0.2933(3)
N14 N 0.6300(3) 0.2067(3) 0.4359(3)
C32 C 0.5380(5) 0.1028(5) 0.2496(5)
C33 C 0.6028(5) 0.2504(5) 0.4620(5)
H23 H 0.5541 0.0657 0.2368
H24 H 0.5657 0.2632 0.4459
C34 C 0.4862(5) 0.1251(5) 0.2191(5)
C35 C 0.6251(5) 0.2809(5) 0.5138(5)
C36 C 0.4572(4) 0.1798(4) 0.2321(4)
C37 C 0.6798(4) 0.2679(4) 0.5428(4)
C38 C 0.4062(3) 0.1943(3) 0.1981(3)
C39 C 0.6943(3) 0.3019(3) 0.5938(3)
H25 H 0.3853 0.2302 0.2068
H26 H 0.7302 0.2932 0.6147
C40 C 0.3855(3) 0.1579(3) 0.1522(3)
C41 C 0.6579(3) 0.3478(3) 0.6145(3)
H27 H 0.3510 0.1690 0.1302
H28 H 0.6690 0.3698 0.6490
C42 C 0.4154(3) 0.1052(3) 0.1386(3)
C43 C 0.6052(3) 0.3614(3) 0.5846(3)
C44 C 0.4659(3) 0.0889(3) 0.1708(3)
C45 C 0.5889(3) 0.3292(3) 0.5341(3)
H29 H 0.4871 0.0536 0.1605
H30 H 0.5536 0.3395 0.5129
H31 H 0.675134 0.053593 0.127327
Cu1 Cu 0.66246(4) 0.91738(4) 0.25592(5)
O1 O 0.6170(3) 0.9542(3) 0.3167(3)
O2 O 0.3930(5) 0.8998(6) 0.4034(6)
H1 H 0.3752 0.9320 0.4108
N1 N 0.6210(3) 0.8130(3) 0.1992(3)
N2 N 0.6055(3) 0.8541(3) 0.2427(3)
C1 C 0.6703(3) 0.8297(3) 0.1703(3)
C2 C 0.5540(4) 0.8470(4) 0.2709(3)
H2 H 0.5303 0.8133 0.2610
C3 C 0.5322(4) 0.8869(4) 0.3152(4)
C4 C 0.5624(4) 0.9404(4) 0.3343(4)
C5 C 0.5342(5) 0.9763(5) 0.3760(5)
C6 C 0.4777(5) 0.9637(6) 0.3979(6)
H4 H 0.4589 0.9899 0.4255
C7 C 0.4491(5) 0.9122(6) 0.3788(6)
C8 C 0.4756(5) 0.8759(5) 0.3393(5)
H5 H 0.4549 0.8409 0.3270
O3 O 0.7255(2) 0.9745(2) 0.2839(3)
O4 O 0.9031(8) 0.8953(8) 0.4339(7)
H6 H 0.9082 0.9207 0.4610
C11 C 0.7809(5) 0.9862(5) 0.3749(5)
C12 C 0.7679(4) 0.9572(4) 0.3202(4)
C13 C 0.8019(3) 0.9062(3) 0.3057(3)
H8 H 0.7932 0.8853 0.2698
C14 C 0.8478(3) 0.8855(3) 0.3421(3)
H9 H 0.8698 0.8510 0.3310
C15 C 0.8614(3) 0.9154(3) 0.3948(3)
C16 C 0.8292(3) 0.9659(3) 0.4111(3)
H10 H 0.8395 0.9871 0.4464
Cu3 Cu 0.58262(4) 0.74408(5) 0.16246(4)
Cu4 Cu 0.75592(5) 0.83754(4) 0.08262(4)
O7 O 0.5458(3) 0.6833(3) 0.1170(3)
O8 O 0.8167(3) 0.8830(3) 0.0458(3)
N5 N 0.6870(3) 0.8008(3) 0.1210(3)
N6 N 0.6992(3) 0.8790(3) 0.1870(3)
N7 N 0.6459(3) 0.7573(3) 0.1055(3)
N8 N 0.7427(3) 0.8945(3) 0.1459(3)
C18 C 0.6530(4) 0.7291(3) 0.0540(4)
C19 C 0.7709(3) 0.9460(4) 0.1530(4)
H13 H 0.6867 0.7390 0.0303
H14 H 0.7610 0.9697 0.1867
C20 C 0.6131(4) 0.6848(4) 0.0322(4)
C21 C 0.8152(4) 0.9678(4) 0.1131(4)
C22 C 0.5596(4) 0.6657(4) 0.0624(4)
C23 C 0.8343(4) 0.9376(4) 0.0596(4)
C24 C 0.5237(5) 0.6240(5) 0.0342(5)
C25 C 0.8760(5) 0.9658(5) 0.0237(5)
H15 H 0.4891 0.6099 0.0543
Cu7 Cu 0.45919(4) 0.70532(4) 0.16999(4)
O13 O 0.5255(2) 0.7161(3) 0.2255(2)
O14 O 0.7839(3) 0.7745(2) 0.0255(2)
N11 N 0.3963(3) 0.6814(3) 0.1145(3)
N15 N 0.4359(3) 0.6300(3) 0.2067(3)
O17 O 0.4689(3) 0.7950(3) 0.1509(3)
C46 C 0.4418(3) 0.8243(3) 0.1774(3)
O19 O 0.4061(5) 0.8007(5) 0.2097(7)
H32 H 0.446407 0.872673 0.175134
O9 O 0.6002(6) 0.5966(6) 0.8930(5)
H11 H 0.5680 0.5892 0.8752
H16 H 0.8901 0.9457 0.9891
C26 C 0.5363(6) 0.6021(6) 0.9777(5)
H17 H 0.5101 0.5745 0.9589
C28 C 0.5878(6) 0.6212(6) 0.9491(5)
C30 C 0.6241(5) 0.6607(5) 0.9756(5)
H19 H 0.6591 0.6730 0.9549
Cu8 Cu 0.79468(4) 0.83001(4) 0.95919(4)
N12 N 0.8186(3) 0.8855(3) 0.8963(3)
N16 N 0.8700(3) 0.7933(3) 0.9359(3)
O18 O 0.7050(3) 0.8491(3) 0.9689(3)
C47 C 0.6757(3) 0.8226(3) 0.9418(3)
O20 O 0.6993(5) 0.7903(7) 0.9061(5)
H33 H 0.627327 0.824866 0.946407
O2_2 O 0.1070(5) 0.1002(6) 0.9034(6)
H1_2 H 0.1248 0.0680 0.9108
C6_2 C 0.0223(5) 0.0363(6) 0.8979(6)
H4_2 H 0.0411 0.0101 0.9255
C7_2 C 0.0509(5) 0.0878(6) 0.8788(6)
C8_2 C 0.0244(5) 0.1241(5) 0.8393(5)
H5_2 H 0.0451 0.1591 0.8270
H15_2 H 0.0109 0.3901 0.5543
Cu7_2 Cu 0.04081(4) 0.29468(4) 0.66999(4)
N11_2 N 0.1037(3) 0.3186(3) 0.6145(3)
N15_2 N 0.0641(3) 0.3700(3) 0.7067(3)
O17_2 O 0.0311(3) 0.2050(3) 0.6509(3)
C46_2 C 0.0582(3) 0.1757(3) 0.6774(3)
O19_2 O 0.0939(5) 0.1993(5) 0.7097(7)
H32_2 H 0.053593 0.127327 0.675134
Cu5_2 Cu 0.08262(4) 0.75592(5) 0.83754(4)
O11_2 O 0.0255(2) 0.7839(3) 0.7745(2)
O15_2 O 0.1047(8) 0.9339(7) 0.5969(8)
H21_2 H 0.0793 0.9610 0.5918
C34_2 C 0.0138(5) 0.8749(5) 0.7191(5)
C36_2 C 0.0428(4) 0.8202(4) 0.7321(4)
C38_2 C 0.0938(3) 0.8057(3) 0.6981(3)
H25_2 H 0.1147 0.7698 0.7068
C40_2 C 0.1145(3) 0.8421(3) 0.6522(3)
H27_2 H 0.1490 0.8310 0.6302
C42_2 C 0.0846(3) 0.8948(3) 0.6386(3)
C44_2 C 0.0341(3) 0.9111(3) 0.6708(3)
H29_2 H 0.0129 0.9464 0.6605
Cu1_2 Cu 0.83754(4) 0.08262(4) 0.75592(5)
O1_2 O 0.8830(3) 0.0458(3) 0.8167(3)
N1_2 N 0.8790(3) 0.1870(3) 0.6992(3)
N2_2 N 0.8945(3) 0.1459(3) 0.7427(3)
C1_2 C 0.8297(3) 0.1703(3) 0.6703(3)
C2_2 C 0.9460(4) 0.1530(4) 0.7709(3)
H2_2 H 0.9697 0.1867 0.7610
C3_2 C 0.9678(4) 0.1131(4) 0.8152(4)
C4_2 C 0.9376(4) 0.0596(4) 0.8343(4)
C5_2 C 0.9658(5) 0.0237(5) 0.8760(5)
O3_2 O 0.7745(2) 0.0255(2) 0.7839(3)
O4_2 O 0.5969(8) 0.1047(8) 0.9339(7)
H6_2 H 0.5918 0.0793 0.9610
C11_2 C 0.7191(5) 0.0138(5) 0.8749(5)
C12_2 C 0.7321(4) 0.0428(4) 0.8202(4)
C13_2 C 0.6981(3) 0.0938(3) 0.8057(3)
H8_2 H 0.7068 0.1147 0.7698
C14_2 C 0.6522(3) 0.1145(3) 0.8421(3)
H9_2 H 0.6302 0.1490 0.8310
C15_2 C 0.6386(3) 0.0846(3) 0.8948(3)
C16_2 C 0.6708(3) 0.0341(3) 0.9111(3)
H10_2 H 0.6605 0.0129 0.9464
Cu3_2 Cu 0.91738(4) 0.25592(5) 0.66246(4)
O7_2 O 0.9542(3) 0.3167(3) 0.6170(3)
O8_2 O 0.6833(3) 0.1170(3) 0.5458(3)
O9_2 O 0.8998(6) 0.4034(6) 0.3930(5)
H11_2 H 0.9320 0.4108 0.3752
N5_2 N 0.8130(3) 0.1992(3) 0.6210(3)
N6_2 N 0.8008(3) 0.1210(3) 0.6870(3)
N7_2 N 0.8541(3) 0.2427(3) 0.6055(3)
N8_2 N 0.7573(3) 0.1055(3) 0.6459(3)
C18_2 C 0.8470(4) 0.2709(3) 0.5540(4)
C19_2 C 0.7291(3) 0.0540(4) 0.6530(4)
H13_2 H 0.8133 0.2610 0.5303
H14_2 H 0.7390 0.0303 0.6867
C20_2 C 0.8869(4) 0.3152(4) 0.5322(4)
C21_2 C 0.6848(4) 0.0322(4) 0.6131(4)
C22_2 C 0.9404(4) 0.3343(4) 0.5624(4)
C23_2 C 0.6657(4) 0.0624(4) 0.5596(4)
C24_2 C 0.9763(5) 0.3760(5) 0.5342(5)
C25_2 C 0.6240(5) 0.0342(5) 0.5237(5)
H16_2 H 0.6099 0.0543 0.4891
C26_2 C 0.9637(6) 0.3979(6) 0.4777(5)
H17_2 H 0.9899 0.4255 0.4589
C28_2 C 0.9122(6) 0.3788(6) 0.4491(5)
C30_2 C 0.8759(5) 0.3393(5) 0.4756(5)
H19_2 H 0.8409 0.3270 0.4549
O13_2 O 0.9745(2) 0.2839(3) 0.7255(2)
O18_2 O 0.7950(3) 0.1509(3) 0.4689(3)
C47_2 C 0.8243(3) 0.1774(3) 0.4418(3)
O20_2 O 0.8007(5) 0.2097(7) 0.4061(5)
H33_2 H 0.872673 0.175134 0.446407
O16_2 O 0.9339(7) 0.5969(8) 0.1047(8)
H22_2 H 0.9610 0.5918 0.0793
C35_2 C 0.8749(5) 0.7191(5) 0.0138(5)
C37_2 C 0.8202(4) 0.7321(4) 0.0428(4)
C39_2 C 0.8057(3) 0.6981(3) 0.0938(3)
H26_2 H 0.7698 0.7068 0.1147
C41_2 C 0.8421(3) 0.6522(3) 0.1145(3)
H28_2 H 0.8310 0.6302 0.1490
C43_2 C 0.8948(3) 0.6386(3) 0.0846(3)
C45_2 C 0.9111(3) 0.6708(3) 0.0341(3)
H30_2 H 0.9464 0.6605 0.0129
H3_2 H 0.9457 0.9891 0.8901
Cu2_2 Cu 0.83001(4) 0.95919(4) 0.79468(4)
N4_2 N 0.7933(3) 0.9359(3) 0.8700(3)
C9_2 C 0.8663(4) 0.8663(4) 0.8663(4)
C10_2 C 0.7496(5) 0.9620(5) 0.8972(5)
H7_2 H 0.7368 0.9459 0.9343
O5_2 O 0.8491(3) 0.9689(3) 0.7050(3)
C17_2 C 0.8226(3) 0.9418(3) 0.6757(3)
O6_2 O 0.7903(7) 0.9061(5) 0.6993(5)
O10_2 O 0.5966(6) 0.8930(5) 0.6002(6)
H12_2 H 0.5892 0.8752 0.5680
C27_2 C 0.6021(6) 0.9777(5) 0.5363(6)
H18_2 H 0.5745 0.9589 0.5101
C29_2 C 0.6212(6) 0.9491(5) 0.5878(6)
C31_2 C 0.6607(5) 0.9756(5) 0.6241(5)
H20_2 H 0.6730 0.9549 0.6591
Cu10_2 Cu 0.95919(4) 0.79468(4) 0.83001(4)
N9_2 N 0.8855(3) 0.8963(3) 0.8186(3)
N10_2 N 0.8963(3) 0.8186(3) 0.8855(3)
N13_2 N 0.9359(3) 0.8700(3) 0.7933(3)
C32_2 C 0.9620(5) 0.8972(5) 0.7496(5)
C33_2 C 0.8972(5) 0.7496(5) 0.9620(5)
H23_2 H 0.9459 0.9343 0.7368
H24_2 H 0.9343 0.7368 0.9459
H31_2 H 0.824866 0.946407 0.627327
Cu1_3 Cu 0.33754(4) 0.41738(4) 0.24408(5)
O1_3 O 0.3830(3) 0.4542(3) 0.1833(3)
O2_3 O 0.6070(5) 0.3998(6) 0.0966(6)
H1_3 H 0.6248 0.4320 0.0892
N1_3 N 0.3790(3) 0.3130(3) 0.3008(3)
N2_3 N 0.3945(3) 0.3541(3) 0.2573(3)
C1_3 C 0.3297(3) 0.3297(3) 0.3297(3)
C2_3 C 0.4460(4) 0.3470(4) 0.2291(3)
H2_3 H 0.4697 0.3133 0.2390
C3_3 C 0.4678(4) 0.3869(4) 0.1848(4)
C4_3 C 0.4376(4) 0.4404(4) 0.1657(4)
C5_3 C 0.4658(5) 0.4763(5) 0.1240(5)
H3_3 H 0.4457 0.5109 0.1099
C6_3 C 0.5223(5) 0.4637(6) 0.1021(6)
H4_3 H 0.5411 0.4899 0.0745
C7_3 C 0.5509(5) 0.4122(6) 0.1212(6)
C8_3 C 0.5244(5) 0.3759(5) 0.1607(5)
H5_3 H 0.5451 0.3409 0.1730
Cu2_3 Cu 0.33001(4) 0.54081(4) 0.20532(4)
O3_3 O 0.2745(2) 0.4745(2) 0.2161(3)
O4_3 O 0.0969(8) 0.3953(8) 0.0661(7)
H6_3 H 0.0918 0.4207 0.0390
N3_2 N 0.3186(3) 0.6145(3) 0.1037(3)
N4_3 N 0.2933(3) 0.5641(3) 0.1300(3)
C9_3 C 0.3663(4) 0.6337(4) 0.1337(4)
C10_3 C 0.2496(5) 0.5380(5) 0.1028(5)
H7_3 H 0.2368 0.5541 0.0657
C11_3 C 0.2191(5) 0.4862(5) 0.1251(5)
C12_3 C 0.2321(4) 0.4572(4) 0.1798(4)
C13_3 C 0.1981(3) 0.4062(3) 0.1943(3)
H8_3 H 0.2068 0.3853 0.2302
C14_3 C 0.1522(3) 0.3855(3) 0.1579(3)
H9_3 H 0.1302 0.3510 0.1690
C15_3 C 0.1386(3) 0.4154(3) 0.1052(3)
C16_3 C 0.1708(3) 0.4659(3) 0.0889(3)
H10_3 H 0.1605 0.4871 0.0536
O5_3 O 0.3491(3) 0.5311(3) 0.2950(3)
C17_3 C 0.3226(3) 0.5582(3) 0.3243(3)
O6_3 O 0.2903(7) 0.5939(5) 0.3007(5)
Cu4_2 Cu 0.24408(5) 0.33754(4) 0.41738(4)
O7_3 O 0.4542(3) 0.1833(3) 0.3830(3)
O8_3 O 0.1833(3) 0.3830(3) 0.4542(3)
O9_3 O 0.3998(6) 0.0966(6) 0.6070(5)
O10_3 O 0.0966(6) 0.6070(5) 0.3998(6)
H11_3 H 0.4320 0.0892 0.6248
H12_3 H 0.0892 0.6248 0.4320
N5_3 N 0.3130(3) 0.3008(3) 0.3790(3)
N6_3 N 0.3008(3) 0.3790(3) 0.3130(3)
N7_3 N 0.3541(3) 0.2573(3) 0.3945(3)
N8_3 N 0.2573(3) 0.3945(3) 0.3541(3)
C18_3 C 0.3470(4) 0.2291(3) 0.4460(4)
C19_3 C 0.2291(3) 0.4460(4) 0.3470(4)
H13_3 H 0.3133 0.2390 0.4697
H14_3 H 0.2390 0.4697 0.3133
C20_3 C 0.3869(4) 0.1848(4) 0.4678(4)
C21_3 C 0.1848(4) 0.4678(4) 0.3869(4)
C22_3 C 0.4404(4) 0.1657(4) 0.4376(4)
C23_3 C 0.1657(4) 0.4376(4) 0.4404(4)
C24_3 C 0.4763(5) 0.1240(5) 0.4658(5)
C25_3 C 0.1240(5) 0.4658(5) 0.4763(5)
H15_3 H 0.5109 0.1099 0.4457
H16_3 H 0.1099 0.4457 0.5109
C26_3 C 0.4637(6) 0.1021(6) 0.5223(5)
C27_3 C 0.1021(6) 0.5223(5) 0.4637(6)
H17_3 H 0.4899 0.0745 0.5411
H18_3 H 0.0745 0.5411 0.4899
C28_3 C 0.4122(6) 0.1212(6) 0.5509(5)
C29_3 C 0.1212(6) 0.5509(5) 0.4122(6)
C30_3 C 0.3759(5) 0.1607(5) 0.5244(5)
C31_3 C 0.1607(5) 0.5244(5) 0.3759(5)
H19_3 H 0.3409 0.1730 0.5451
H20_3 H 0.1730 0.5451 0.3409
Cu8_2 Cu 0.20532(4) 0.33001(4) 0.54081(4)
Cu9_2 Cu 0.29468(4) 0.66999(4) 0.04081(4)
O14_2 O 0.2161(3) 0.2745(2) 0.4745(2)
O15_3 O 0.6047(8) 0.5661(7) 0.4031(8)
H21_3 H 0.5793 0.5390 0.4082
N9_3 N 0.3855(3) 0.6037(3) 0.1814(3)
N12_2 N 0.1814(3) 0.3855(3) 0.6037(3)
N14_2 N 0.3700(3) 0.7067(3) 0.0641(3)
N16_2 N 0.1300(3) 0.2933(3) 0.5641(3)
C32_3 C 0.4620(5) 0.6028(5) 0.2504(5)
C33_3 C 0.3972(5) 0.7504(5) 0.0380(5)
H23_3 H 0.4459 0.5657 0.2632
H24_3 H 0.4343 0.7632 0.0541
C34_3 C 0.5138(5) 0.6251(5) 0.2809(5)
C36_3 C 0.5428(4) 0.6798(4) 0.2679(4)
C38_3 C 0.5938(3) 0.6943(3) 0.3019(3)
H25_3 H 0.6147 0.7302 0.2932
C40_3 C 0.6145(3) 0.6579(3) 0.3478(3)
H27_3 H 0.6490 0.6690 0.3698
C42_3 C 0.5846(3) 0.6052(3) 0.3614(3)
C44_3 C 0.5341(3) 0.5889(3) 0.3292(3)
H29_3 H 0.5129 0.5536 0.3395
O17_3 O 0.5311(3) 0.2950(3) 0.3491(3)
O18_3 O 0.2950(3) 0.3491(3) 0.5311(3)
C46_3 C 0.5582(3) 0.3243(3) 0.3226(3)
C47_3 C 0.3243(3) 0.3226(3) 0.5582(3)
O19_3 O 0.5939(5) 0.3007(5) 0.2903(7)
O20_3 O 0.3007(5) 0.2903(7) 0.5939(5)
H31_3 H 0.324866 0.553593 0.372673
H32_3 H 0.553593 0.372673 0.324866
H33_3 H 0.372673 0.324866 0.553593
Cu6_2 Cu 0.25592(5) 0.66246(4) 0.91738(4)
O12_2 O 0.2839(3) 0.7255(2) 0.9745(2)
O16_3 O 0.4339(7) 0.9031(8) 0.8953(8)
H22_3 H 0.4610 0.9082 0.9207
C35_3 C 0.3749(5) 0.7809(5) 0.9862(5)
C37_3 C 0.3202(4) 0.7679(4) 0.9572(4)
C39_3 C 0.3057(3) 0.8019(3) 0.9062(3)
H26_3 H 0.2698 0.7932 0.8853
C41_3 C 0.3421(3) 0.8478(3) 0.8855(3)
H28_3 H 0.3310 0.8698 0.8510
C43_3 C 0.3948(3) 0.8614(3) 0.9154(3)
C45_3 C 0.4111(3) 0.8292(3) 0.9659(3)
H30_3 H 0.4464 0.8395 0.9871
O9_4 O 0.1002(6) 0.9034(6) 0.1070(5)
H11_4 H 0.0680 0.9108 0.1248
H16_4 H 0.3901 0.5543 0.0109
C26_4 C 0.0363(6) 0.8979(6) 0.0223(5)
H17_4 H 0.0101 0.9255 0.0411
C28_4 C 0.0878(6) 0.8788(6) 0.0509(5)
C30_4 C 0.1241(5) 0.8393(5) 0.0244(5)
H19_4 H 0.1591 0.8270 0.0451
O18_4 O 0.2050(3) 0.6509(3) 0.0311(3)
C47_4 C 0.1757(3) 0.6774(3) 0.0582(3)
O20_4 O 0.1993(5) 0.7097(7) 0.0939(5)
H33_4 H 0.127327 0.675134 0.053593
Cu1_4 Cu 0.16246(4) 0.58262(4) 0.74408(5)
O1_4 O 0.1170(3) 0.5458(3) 0.6833(3)
N1_4 N 0.1210(3) 0.6870(3) 0.8008(3)
N2_4 N 0.1055(3) 0.6459(3) 0.7573(3)
C1_4 C 0.1703(3) 0.6703(3) 0.8297(3)
C2_4 C 0.0540(4) 0.6530(4) 0.7291(3)
H2_4 H 0.0303 0.6867 0.7390
C3_4 C 0.0322(4) 0.6131(4) 0.6848(4)
C4_4 C 0.0624(4) 0.5596(4) 0.6657(4)
C5_4 C 0.0342(5) 0.5237(5) 0.6240(5)
H3_4 H 0.0543 0.4891 0.6099
Cu2_4 Cu 0.16999(4) 0.45919(4) 0.70532(4)
O3_4 O 0.2255(2) 0.5255(2) 0.7161(3)
O4_4 O 0.4031(8) 0.6047(8) 0.5661(7)
H6_4 H 0.4082 0.5793 0.5390
N4_4 N 0.2067(3) 0.4359(3) 0.6300(3)
C9_4 C 0.1337(4) 0.3663(4) 0.6337(4)
C10_4 C 0.2504(5) 0.4620(5) 0.6028(5)
H7_4 H 0.2632 0.4459 0.5657
C11_4 C 0.2809(5) 0.5138(5) 0.6251(5)
C12_4 C 0.2679(4) 0.5428(4) 0.6798(4)
C13_4 C 0.3019(3) 0.5938(3) 0.6943(3)
H8_4 H 0.2932 0.6147 0.7302
C14_4 C 0.3478(3) 0.6145(3) 0.6579(3)
H9_4 H 0.3698 0.6490 0.6690
C15_4 C 0.3614(3) 0.5846(3) 0.6052(3)
C16_4 C 0.3292(3) 0.5341(3) 0.5889(3)
H10_4 H 0.3395 0.5129 0.5536
O5_4 O 0.1509(3) 0.4689(3) 0.7950(3)
C17_4 C 0.1774(3) 0.4418(3) 0.8243(3)
O6_4 O 0.2097(7) 0.4061(5) 0.8007(5)
O7_4 O 0.0458(3) 0.8167(3) 0.8830(3)
O8_4 O 0.3167(3) 0.6170(3) 0.9542(3)
O10_4 O 0.4034(6) 0.3930(5) 0.8998(6)
H12_4 H 0.4108 0.3752 0.9320
N5_4 N 0.1870(3) 0.6992(3) 0.8790(3)
N6_4 N 0.1992(3) 0.6210(3) 0.8130(3)
N7_4 N 0.1459(3) 0.7427(3) 0.8945(3)
N8_4 N 0.2427(3) 0.6055(3) 0.8541(3)
C18_4 C 0.1530(4) 0.7709(3) 0.9460(4)
C19_4 C 0.2709(3) 0.5540(4) 0.8470(4)
H13_4 H 0.1867 0.7610 0.9697
H14_4 H 0.2610 0.5303 0.8133
C20_4 C 0.1131(4) 0.8152(4) 0.9678(4)
C21_4 C 0.3152(4) 0.5322(4) 0.8869(4)
C22_4 C 0.0596(4) 0.8343(4) 0.9376(4)
C23_4 C 0.3343(4) 0.5624(4) 0.9404(4)
C24_4 C 0.0237(5) 0.8760(5) 0.9658(5)
C25_4 C 0.3760(5) 0.5342(5) 0.9763(5)
C27_4 C 0.3979(6) 0.4777(5) 0.9637(6)
H18_4 H 0.4255 0.4589 0.9899
C29_4 C 0.3788(6) 0.4491(5) 0.9122(6)
C31_4 C 0.3393(5) 0.4756(5) 0.8759(5)
H20_4 H 0.3270 0.4549 0.8409
O16_4 O 0.0661(7) 0.0969(8) 0.3953(8)
H22_4 H 0.0390 0.0918 0.4207
N9_4 N 0.1145(3) 0.3963(3) 0.6814(3)
C32_4 C 0.0380(5) 0.3972(5) 0.7504(5)
C33_4 C 0.1028(5) 0.2496(5) 0.5380(5)
H23_4 H 0.0541 0.4343 0.7632
H24_4 H 0.0657 0.2368 0.5541
C35_4 C 0.1251(5) 0.2191(5) 0.4862(5)
C37_4 C 0.1798(4) 0.2321(4) 0.4572(4)
C39_4 C 0.1943(3) 0.1981(3) 0.4062(3)
H26_4 H 0.2302 0.2068 0.3853
C41_4 C 0.1579(3) 0.1522(3) 0.3855(3)
H28_4 H 0.1690 0.1302 0.3510
C43_4 C 0.1052(3) 0.1386(3) 0.4154(3)
C45_4 C 0.0889(3) 0.1708(3) 0.4659(3)
H30_4 H 0.0536 0.1605 0.4871
H31_4 H 0.175134 0.446407 0.872673
O2_4 O 0.8930(5) 0.6002(6) 0.5966(6)
H1_4 H 0.8752 0.5680 0.5892
C6_4 C 0.9777(5) 0.5363(6) 0.6021(6)
H4_4 H 0.9589 0.5101 0.5745
C7_4 C 0.9491(5) 0.5878(6) 0.6212(6)
C8_4 C 0.9756(5) 0.6241(5) 0.6607(5)
H5_4 H 0.9549 0.6591 0.6730
H15_4 H 0.9891 0.8901 0.9457
O15_4 O 0.8953(8) 0.4339(7) 0.9031(8)
H21_4 H 0.9207 0.4610 0.9082
C34_4 C 0.9862(5) 0.3749(5) 0.7809(5)
C36_4 C 0.9572(4) 0.3202(4) 0.7679(4)
C38_4 C 0.9062(3) 0.3057(3) 0.8019(3)
H25_4 H 0.8853 0.2698 0.7932
C40_4 C 0.8855(3) 0.3421(3) 0.8478(3)
H27_4 H 0.8510 0.3310 0.8698
C42_4 C 0.9154(3) 0.3948(3) 0.8614(3)
C44_4 C 0.9659(3) 0.4111(3) 0.8292(3)
H29_4 H 0.9871 0.4464 0.8395
O17_4 O 0.9689(3) 0.7050(3) 0.8491(3)
C46_4 C 0.9418(3) 0.6757(3) 0.8226(3)
O19_4 O 0.9061(5) 0.6993(5) 0.7903(7)
H32_4 H 0.946407 0.627327 0.824866
loop_
_geom_bond_atom_site_label_1
_geom_bond_atom_site_label_2
_geom_bond_site_symmetry_1
_geom_bond_site_symmetry_2
N3 N4 1_555 1_555
N4 Cu2 1_555 1_555
C9 N3 1_555 1_555
C10 N4 1_555 1_555
H7 C10 1_555 1_555
O5 Cu2 1_555 1_555
C17 O5 1_555 1_555
O6 C17 1_555 1_555
Cu5 O11 1_555 1_555
Cu6 O12 1_555 1_555
O10 H12 1_555 1_555
H18 C27 1_555 1_555
C29 O10 1_555 1_555
H20 C31 1_555 1_555
Cu9 N3 1_555 1_555
Cu10 O11 1_555 1_555
O11 C36 1_555 1_555
O12 Cu9 1_555 1_555
O15 H21 1_555 1_555
O16 H22 1_555 1_555
N9 Cu2 1_555 1_555
N10 C9 1_555 1_555
N13 Cu10 1_555 1_555
N14 Cu9 1_555 1_555
C32 N13 1_555 1_555
C33 N14 1_555 1_555
H23 C32 1_555 1_555
H24 C33 1_555 1_555
C34 C32 1_555 1_555
C35 C33 1_555 1_555
C36 C34 1_555 1_555
C37 O12 1_555 1_555
C38 C36 1_555 1_555
C39 C37 1_555 1_555
H25 C38 1_555 1_555
H26 C39 1_555 1_555
C40 C38 1_555 1_555
C41 C39 1_555 1_555
H27 C40 1_555 1_555
H28 C41 1_555 1_555
C42 O15 1_555 1_555
C43 O16 1_555 1_555
C44 C34 1_555 1_555
C45 C35 1_555 1_555
H29 C44 1_555 1_555
H30 C45 1_555 1_555
C9 N9 1_555 1_555
C27 C29 1_555 1_555
C29 C31 1_555 1_555
Cu10 N10 1_555 1_555
N9 N13 1_555 1_555
N10 N14 1_555 1_555
C35 C37 1_555 1_555
C40 C42 1_555 1_555
C41 C43 1_555 1_555
C42 C44 1_555 1_555
C43 C45 1_555 1_555
C17 H31 1_555 1_555
Cu1 O1 1_555 1_555
O1 C4 1_555 1_555
O2 H1 1_555 1_555
N1 N2 1_555 1_555
N2 Cu1 1_555 1_555
C1 N1 1_555 1_555
C2 N2 1_555 1_555
H2 C2 1_555 1_555
C3 C2 1_555 1_555
C4 C3 1_555 1_555
C5 C4 1_555 1_555
C6 C5 1_555 1_555
H4 C6 1_555 1_555
C7 O2 1_555 1_555
C8 C3 1_555 1_555
H5 C8 1_555 1_555
O3 Cu1 1_555 1_555
O4 H6 1_555 1_555
C12 O3 1_555 1_555
C13 C12 1_555 1_555
H8 C13 1_555 1_555
C14 C13 1_555 1_555
H9 C14 1_555 1_555
C15 O4 1_555 1_555
C16 C11 1_555 1_555
H10 C16 1_555 1_555
Cu3 N1 1_555 1_555
Cu4 O8 1_555 1_555
O7 Cu3 1_555 1_555
O8 C23 1_555 1_555
N5 C1 1_555 1_555
N6 Cu1 1_555 1_555
N7 Cu3 1_555 1_555
N8 Cu4 1_555 1_555
C18 N7 1_555 1_555
C19 N8 1_555 1_555
H13 C18 1_555 1_555
H14 C19 1_555 1_555
C20 C18 1_555 1_555
C21 C19 1_555 1_555
C22 O7 1_555 1_555
C23 C21 1_555 1_555
C24 C22 1_555 1_555
C25 C23 1_555 1_555
H15 C24 1_555 1_555
Cu7 O7 1_555 1_555
O13 Cu3 1_555 1_555
O14 Cu4 1_555 1_555
N11 Cu7 1_555 1_555
N15 Cu7 1_555 1_555
O17 Cu7 1_555 1_555
C46 O17 1_555 1_555
O19 C46 1_555 1_555
C1 N6 1_555 1_555
C6 C7 1_555 1_555
C7 C8 1_555 1_555
C11 C12 1_555 1_555
C14 C15 1_555 1_555
C15 C16 1_555 1_555
Cu4 N5 1_555 1_555
N5 N7 1_555 1_555
N6 N8 1_555 1_555
C20 C22 1_555 1_555
Cu7 O13 1_555 1_555
C46 H32 1_555 1_555
O9 H11 1_555 1_555
H17 C26 1_555 1_555
C28 O9 1_555 1_555
H19 C30 1_555 1_555
N12 Cu8 1_555 1_555
N16 Cu8 1_555 1_555
O18 Cu8 1_555 1_555
C47 O18 1_555 1_555
O20 C47 1_555 1_555
C26 C28 1_555 1_555
C28 C30 1_555 1_555
C47 H33 1_555 1_555
O2_2 H1_2 1_555 1_555
H4_2 C6_2 1_555 1_555
C7_2 O2_2 1_555 1_555
H5_2 C8_2 1_555 1_555
N11_2 Cu7_2 1_555 1_555
N15_2 Cu7_2 1_555 1_555
O17_2 Cu7_2 1_555 1_555
C46_2 O17_2 1_555 1_555
O19_2 C46_2 1_555 1_555
C6_2 C7_2 1_555 1_555
C7_2 C8_2 1_555 1_555
C46_2 H32_2 1_555 1_555
Cu5_2 O11_2 1_555 1_555
O11_2 C36_2 1_555 1_555
O15_2 H21_2 1_555 1_555
C36_2 C34_2 1_555 1_555
C38_2 C36_2 1_555 1_555
H25_2 C38_2 1_555 1_555
C40_2 C38_2 1_555 1_555
H27_2 C40_2 1_555 1_555
C42_2 O15_2 1_555 1_555
C44_2 C34_2 1_555 1_555
H29_2 C44_2 1_555 1_555
C40_2 C42_2 1_555 1_555
C42_2 C44_2 1_555 1_555
Cu1_2 O1_2 1_555 1_555
O1_2 C4_2 1_555 1_555
N1_2 N2_2 1_555 1_555
N2_2 Cu1_2 1_555 1_555
C1_2 N1_2 1_555 1_555
C2_2 N2_2 1_555 1_555
H2_2 C2_2 1_555 1_555
C3_2 C2_2 1_555 1_555
C4_2 C3_2 1_555 1_555
C5_2 C4_2 1_555 1_555
O3_2 Cu1_2 1_555 1_555
O4_2 H6_2 1_555 1_555
C12_2 O3_2 1_555 1_555
C13_2 C12_2 1_555 1_555
H8_2 C13_2 1_555 1_555
C14_2 C13_2 1_555 1_555
H9_2 C14_2 1_555 1_555
C15_2 O4_2 1_555 1_555
C16_2 C11_2 1_555 1_555
H10_2 C16_2 1_555 1_555
Cu3_2 N1_2 1_555 1_555
Cu6 O8_2 1_555 1_555
O7_2 Cu3_2 1_555 1_555
O8_2 C23_2 1_555 1_555
O9_2 H11_2 1_555 1_555
N5_2 C1_2 1_555 1_555
N6_2 Cu1_2 1_555 1_555
N7_2 Cu3_2 1_555 1_555
N8_2 Cu6 1_555 1_555
C18_2 N7_2 1_555 1_555
C19_2 N8_2 1_555 1_555
H13_2 C18_2 1_555 1_555
H14_2 C19_2 1_555 1_555
C20_2 C18_2 1_555 1_555
C21_2 C19_2 1_555 1_555
C22_2 O7_2 1_555 1_555
C23_2 C21_2 1_555 1_555
C24_2 C22_2 1_555 1_555
C25_2 C23_2 1_555 1_555
H16_2 C25_2 1_555 1_555
C26_2 C24_2 1_555 1_555
H17_2 C26_2 1_555 1_555
C28_2 O9_2 1_555 1_555
C30_2 C20_2 1_555 1_555
H19_2 C30_2 1_555 1_555
Cu9 O8_2 1_555 1_555
O13_2 Cu3_2 1_555 1_555
O18_2 Cu9 1_555 1_555
C47_2 O18_2 1_555 1_555
O20_2 C47_2 1_555 1_555
C1_2 N6_2 1_555 1_555
C11_2 C12_2 1_555 1_555
C14_2 C15_2 1_555 1_555
C15_2 C16_2 1_555 1_555
Cu6 N5_2 1_555 1_555
N5_2 N7_2 1_555 1_555
N6_2 N8_2 1_555 1_555
C20_2 C22_2 1_555 1_555
C26_2 C28_2 1_555 1_555
C28_2 C30_2 1_555 1_555
C47_2 H33_2 1_555 1_555
O16_2 H22_2 1_555 1_555
C37_2 O14 1_555 1_555
C39_2 C37_2 1_555 1_555
H26_2 C39_2 1_555 1_555
C41_2 C39_2 1_555 1_555
H28_2 C41_2 1_555 1_555
C43_2 O16_2 1_555 1_555
C45_2 C35_2 1_555 1_555
H30_2 C45_2 1_555 1_555
C35_2 C37_2 1_555 1_555
C41_2 C43_2 1_555 1_555
C43_2 C45_2 1_555 1_555
N12 N4_2 1_555 1_555
N4_2 Cu2_2 1_555 1_555
C9_2 N12 1_555 1_555
C10_2 N4_2 1_555 1_555
H7_2 C10_2 1_555 1_555
O5_2 Cu2_2 1_555 1_555
C17_2 O5_2 1_555 1_555
O6_2 C17_2 1_555 1_555
O10_2 H12_2 1_555 1_555
H18_2 C27_2 1_555 1_555
C29_2 O10_2 1_555 1_555
H20_2 C31_2 1_555 1_555
N9_2 Cu2_2 1_555 1_555
N10_2 C9_2 1_555 1_555
N13_2 Cu10_2 1_555 1_555
C32_2 N13_2 1_555 1_555
C33_2 N16 1_555 1_555
H23_2 C32_2 1_555 1_555
H24_2 C33_2 1_555 1_555
C9_2 N9_2 1_555 1_555
C27_2 C29_2 1_555 1_555
C29_2 C31_2 1_555 1_555
Cu10_2 N10_2 1_555 1_555
N9_2 N13_2 1_555 1_555
N10_2 N16 1_555 1_555
C17_2 H31_2 1_555 1_555
Cu1_3 O1_3 1_555 1_555
O1_3 C4_3 1_555 1_555
O2_3 H1_3 1_555 1_555
N1_3 N2_3 1_555 1_555
N2_3 Cu1_3 1_555 1_555
C1_3 N1_3 1_555 1_555
C2_3 N2_3 1_555 1_555
H2_3 C2_3 1_555 1_555
C3_3 C2_3 1_555 1_555
C4_3 C3_3 1_555 1_555
C5_3 C4_3 1_555 1_555
H3_3 C5_3 1_555 1_555
C6_3 C5_3 1_555 1_555
H4_3 C6_3 1_555 1_555
C7_3 O2_3 1_555 1_555
C8_3 C3_3 1_555 1_555
H5_3 C8_3 1_555 1_555
Cu2_3 O1_3 1_555 1_555
O3_3 Cu1_3 1_555 1_555
O4_3 H6_3 1_555 1_555
N3_2 N4_3 1_555 1_555
N4_3 Cu2_3 1_555 1_555
C9_3 N3_2 1_555 1_555
C10_3 N4_3 1_555 1_555
H7_3 C10_3 1_555 1_555
C11_3 C10_3 1_555 1_555
C12_3 O3_3 1_555 1_555
C13_3 C12_3 1_555 1_555
H8_3 C13_3 1_555 1_555
C14_3 C13_3 1_555 1_555
H9_3 C14_3 1_555 1_555
C15_3 O4_3 1_555 1_555
C16_3 C11_3 1_555 1_555
H10_3 C16_3 1_555 1_555
O5_3 Cu2_3 1_555 1_555
C17_3 O5_3 1_555 1_555
O6_3 C17_3 1_555 1_555
Cu5 N1_3 1_555 1_555
Cu4_2 O8_3 1_555 1_555
O7_3 Cu5 1_555 1_555
O8_3 C23_3 1_555 1_555
O9_3 H11_3 1_555 1_555
O10_3 H12_3 1_555 1_555
N5_3 C1_3 1_555 1_555
N6_3 Cu1_3 1_555 1_555
N7_3 Cu5 1_555 1_555
N8_3 Cu4_2 1_555 1_555
C18_3 N7_3 1_555 1_555
C19_3 N8_3 1_555 1_555
H13_3 C18_3 1_555 1_555
H14_3 C19_3 1_555 1_555
C20_3 C18_3 1_555 1_555
C21_3 C19_3 1_555 1_555
C22_3 O7_3 1_555 1_555
C23_3 C21_3 1_555 1_555
C24_3 C22_3 1_555 1_555
C25_3 C23_3 1_555 1_555
H15_3 C24_3 1_555 1_555
H16_3 C25_3 1_555 1_555
C26_3 C24_3 1_555 1_555
C27_3 C25_3 1_555 1_555
H17_3 C26_3 1_555 1_555
H18_3 C27_3 1_555 1_555
C28_3 O9_3 1_555 1_555
C29_3 O10_3 1_555 1_555
C30_3 C20_3 1_555 1_555
C31_3 C21_3 1_555 1_555
H19_3 C30_3 1_555 1_555
H20_3 C31_3 1_555 1_555
Cu10 O7_3 1_555 1_555
Cu8_2 O8_3 1_555 1_555
Cu9_2 N3_2 1_555 1_555
O13 C36_3 1_555 1_555
O14_2 Cu4_2 1_555 1_555
O15_3 H21_3 1_555 1_555
N9_3 Cu2_3 1_555 1_555
N11 C9_3 1_555 1_555
N12_2 Cu8_2 1_555 1_555
N14_2 Cu9_2 1_555 1_555
N16_2 Cu8_2 1_555 1_555
C32_3 N15 1_555 1_555
C33_3 N14_2 1_555 1_555
H23_3 C32_3 1_555 1_555
H24_3 C33_3 1_555 1_555
C34_3 C32_3 1_555 1_555
C36_3 C34_3 1_555 1_555
C38_3 C36_3 1_555 1_555
H25_3 C38_3 1_555 1_555
C40_3 C38_3 1_555 1_555
H27_3 C40_3 1_555 1_555
C42_3 O15_3 1_555 1_555
C44_3 C34_3 1_555 1_555
H29_3 C44_3 1_555 1_555
O17_3 Cu10 1_555 1_555
O18_3 Cu8_2 1_555 1_555
C46_3 O17_3 1_555 1_555
C47_3 O18_3 1_555 1_555
O19_3 C46_3 1_555 1_555
O20_3 C47_3 1_555 1_555
C1_3 N6_3 1_555 1_555
C6_3 C7_3 1_555 1_555
C7_3 C8_3 1_555 1_555
Cu2_3 O3_3 1_555 1_555
C9_3 N9_3 1_555 1_555
C11_3 C12_3 1_555 1_555
C14_3 C15_3 1_555 1_555
C15_3 C16_3 1_555 1_555
Cu4_2 N5_3 1_555 1_555
N5_3 N7_3 1_555 1_555
N6_3 N8_3 1_555 1_555
C20_3 C22_3 1_555 1_555
C26_3 C28_3 1_555 1_555
C27_3 C29_3 1_555 1_555
C28_3 C30_3 1_555 1_555
C29_3 C31_3 1_555 1_555
Cu8_2 O14_2 1_555 1_555
N9_3 N15 1_555 1_555
N11 N14_2 1_555 1_555
C40_3 C42_3 1_555 1_555
C42_3 C44_3 1_555 1_555
C17_3 H31_3 1_555 1_555
C46_3 H32_3 1_555 1_555
C47_3 H33_3 1_555 1_555
Cu6_2 O12_2 1_555 1_555
O16_3 H22_3 1_555 1_555
C37_3 O12_2 1_555 1_555
C39_3 C37_3 1_555 1_555
H26_3 C39_3 1_555 1_555
C41_3 C39_3 1_555 1_555
H28_3 C41_3 1_555 1_555
C43_3 O16_3 1_555 1_555
C45_3 C35_3 1_555 1_555
H30_3 C45_3 1_555 1_555
C35_3 C37_3 1_555 1_555
C41_3 C43_3 1_555 1_555
C43_3 C45_3 1_555 1_555
O9_4 H11_4 1_555 1_555
H17_4 C26_4 1_555 1_555
C28_4 O9_4 1_555 1_555
H19_4 C30_4 1_555 1_555
O18_4 Cu9_2 1_555 1_555
C47_4 O18_4 1_555 1_555
O20_4 C47_4 1_555 1_555
C26_4 C28_4 1_555 1_555
C28_4 C30_4 1_555 1_555
C47_4 H33_4 1_555 1_555
Cu1_4 O1_4 1_555 1_555
O1_4 C4_4 1_555 1_555
N1_4 N2_4 1_555 1_555
N2_4 Cu1_4 1_555 1_555
C1_4 N1_4 1_555 1_555
C2_4 N2_4 1_555 1_555
H2_4 C2_4 1_555 1_555
C3_4 C2_4 1_555 1_555
C4_4 C3_4 1_555 1_555
C5_4 C4_4 1_555 1_555
H3_4 C5_4 1_555 1_555
Cu2_4 O1_4 1_555 1_555
O3_4 Cu1_4 1_555 1_555
O4_4 H6_4 1_555 1_555
N12_2 N4_4 1_555 1_555
N4_4 Cu2_4 1_555 1_555
C9_4 N12_2 1_555 1_555
C10_4 N4_4 1_555 1_555
H7_4 C10_4 1_555 1_555
C11_4 C10_4 1_555 1_555
C12_4 O3_4 1_555 1_555
C13_4 C12_4 1_555 1_555
H8_4 C13_4 1_555 1_555
C14_4 C13_4 1_555 1_555
H9_4 C14_4 1_555 1_555
C15_4 O4_4 1_555 1_555
C16_4 C11_4 1_555 1_555
H10_4 C16_4 1_555 1_555
O5_4 Cu2_4 1_555 1_555
C17_4 O5_4 1_555 1_555
O6_4 C17_4 1_555 1_555
Cu5_2 N1_4 1_555 1_555
Cu6_2 O8_4 1_555 1_555
O7_4 Cu5_2 1_555 1_555
O8_4 C23_4 1_555 1_555
O10_4 H12_4 1_555 1_555
N5_4 C1_4 1_555 1_555
N6_4 Cu1_4 1_555 1_555
N7_4 Cu5_2 1_555 1_555
N8_4 Cu6_2 1_555 1_555
C18_4 N7_4 1_555 1_555
C19_4 N8_4 1_555 1_555
H13_4 C18_4 1_555 1_555
H14_4 C19_4 1_555 1_555
C20_4 C18_4 1_555 1_555
C21_4 C19_4 1_555 1_555
C22_4 O7_4 1_555 1_555
C23_4 C21_4 1_555 1_555
C24_4 C22_4 1_555 1_555
C25_4 C23_4 1_555 1_555
C27_4 C25_4 1_555 1_555
H18_4 C27_4 1_555 1_555
C29_4 O10_4 1_555 1_555
C31_4 C21_4 1_555 1_555
H20_4 C31_4 1_555 1_555
O16_4 H22_4 1_555 1_555
N9_4 Cu2_4 1_555 1_555
N11_2 C9_4 1_555 1_555
C32_4 N15_2 1_555 1_555
C33_4 N16_2 1_555 1_555
H23_4 C32_4 1_555 1_555
H24_4 C33_4 1_555 1_555
C35_4 C33_4 1_555 1_555
C37_4 O14_2 1_555 1_555
C39_4 C37_4 1_555 1_555
H26_4 C39_4 1_555 1_555
C41_4 C39_4 1_555 1_555
H28_4 C41_4 1_555 1_555
C43_4 O16_4 1_555 1_555
C45_4 C35_4 1_555 1_555
H30_4 C45_4 1_555 1_555
C1_4 N6_4 1_555 1_555
Cu2_4 O3_4 1_555 1_555
C9_4 N9_4 1_555 1_555
C11_4 C12_4 1_555 1_555
C14_4 C15_4 1_555 1_555
C15_4 C16_4 1_555 1_555
Cu6_2 N5_4 1_555 1_555
N5_4 N7_4 1_555 1_555
N6_4 N8_4 1_555 1_555
C20_4 C22_4 1_555 1_555
C27_4 C29_4 1_555 1_555
C29_4 C31_4 1_555 1_555
N9_4 N15_2 1_555 1_555
N11_2 N16_2 1_555 1_555
C35_4 C37_4 1_555 1_555
C41_4 C43_4 1_555 1_555
C43_4 C45_4 1_555 1_555
C17_4 H31_4 1_555 1_555
O2_4 H1_4 1_555 1_555
H4_4 C6_4 1_555 1_555
C7_4 O2_4 1_555 1_555
H5_4 C8_4 1_555 1_555
O13_2 C36_4 1_555 1_555
O15_4 H21_4 1_555 1_555
C36_4 C34_4 1_555 1_555
C38_4 C36_4 1_555 1_555
H25_4 C38_4 1_555 1_555
C40_4 C38_4 1_555 1_555
H27_4 C40_4 1_555 1_555
C42_4 O15_4 1_555 1_555
C44_4 C34_4 1_555 1_555
H29_4 C44_4 1_555 1_555
O17_4 Cu10_2 1_555 1_555
C46_4 O17_4 1_555 1_555
O19_4 C46_4 1_555 1_555
C6_4 C7_4 1_555 1_555
C7_4 C8_4 1_555 1_555
C40_4 C42_4 1_555 1_555
C42_4 C44_4 1_555 1_555
C46_4 H32_4 1_555 1_555

#END
