
###############################################################################
#
# This file contains modified crystal structure data generated from the
# MOF subset of the Cambridge Structural Database (CSD) v543 
# hosted by the Cambridge Crystallographic Data Centre (CCDC).
#
# This work is licensed under the Creative Commons
# Attribution-NonCommercial-ShareAlike 4.0 International License.
# To view a copy of this license, visit
# http://creativecommons.org/licenses/by-nc-sa/4.0/
# or send a letter to
# Creative Commons, PO Box 1866, Mountain View, CA 94042, USA.
#
# CIF created using the CSD Python API on 29 September 2022
# The structure has been converted into the P1 space group
# The structure has a 3D framework
# The original CSD entry CECVOW is in the monoclinic crystal system
# The framework has been calculated to contain at least 10.0% void space
# The void calculation uses a probe of radius 1.32A, grid spacing 0.4
# H atom positions have been added when not included in the experimental data
#
###############################################################################

data_CECVOW
_chemical_formula_moiety         '(C32 H24 N4 Nd4 O32)n'
_symmetry_cell_setting           triclinic
_symmetry_space_group_name_H-M   'P 1'
_symmetry_Int_Tables_number      1
_space_group_name_Hall           'P 1'
loop_
_symmetry_equiv_pos_site_id
_symmetry_equiv_pos_as_xyz
1 x,y,z
_cell_length_a                   6.751(5)
_cell_length_b                   11.916(3)
_cell_length_c                   13.457(5)
_cell_angle_alpha                90
_cell_angle_beta                 100.427(5)
_cell_angle_gamma                90
_cell_volume                     1064.67
loop_
_atom_site_label
_atom_site_type_symbol
_atom_site_fract_x
_atom_site_fract_y
_atom_site_fract_z
Nd2 Nd 0.05251(4) 0.16946(3) 0.25507(2)
Nd3 Nd 0.05251(4) 0.33054(3) 0.75507(2)
O1 O 0.3775(6) 0.0990(4) 0.2189(3)
O2 O 0.7120(6) 0.0935(4) 0.2579(3)
O3 O 0.8345(6) 0.1679(4) 0.7292(3)
O4 O 0.9251(6) 0.0134(3) 0.6545(3)
O5 O 0.0772(6) 0.2569(4) 0.5885(3)
O8 O 0.2704(6) 0.3494(4) 0.2826(3)
N1 N 0.3499(7) 0.1622(4) 0.4042(4)
C1 C 0.5425(8) 0.1037(5) 0.2809(4)
C2 C 0.5269(8) 0.1205(5) 0.3899(4)
C3 C 0.6828(8) 0.0961(5) 0.4703(4)
C4 C 0.6549(8) 0.1224(5) 0.5661(4)
C5 C 0.8182(8) 0.0995(5) 0.6572(4)
C6 C 0.4768(9) 0.1735(5) 0.5812(4)
C7 C 0.3257(8) 0.1883(5) 0.4981(4)
C8 C 0.1182(8) 0.2336(5) 0.5038(4)
H1 H 0.789(16) 0.059(9) 0.457(8)
H2 H 0.454(16) 0.192(9) 0.641(8)
O12 O 0.0772(6) 0.2431(4) 0.0885(3)
H3 H 0.318057 0.368743 0.219113
H4 H 0.188558 0.412232 0.301985
Nd4 Nd 0.94749(4) 0.83054(3) 0.74493(2)
O11 O 0.0749(6) 0.9866(3) 0.3455(3)
H5 H 0.0416104 0.943664 0.147107
O6 O 0.9985(6) 0.2434(4) 0.4209(3)
O7 O 0.9785(8) 0.0151(4) 0.1196(4)
O10 O 0.8345(6) 0.3321(4) 0.2292(3)
H6 H 0.830628 0.00461442 0.100178
O6_2 O 0.0015(6) 0.7434(4) 0.0791(3)
O7_2 O 0.0215(8) 0.5151(4) 0.3804(4)
O9 O 0.2880(6) 0.5935(4) 0.2421(3)
O10_2 O 0.1655(6) 0.8321(4) 0.2708(3)
H6_2 H 0.169372 0.504614 0.399822
Nd1 Nd 0.94749(4) 0.66946(3) 0.24493(2)
O1_2 O 0.6225(6) 0.5990(4) 0.2811(3)
O8_2 O 0.7296(6) 0.8494(4) 0.2174(3)
N1_2 N 0.6501(7) 0.6622(4) 0.0958(4)
C1_2 C 0.4575(8) 0.6037(5) 0.2191(4)
C2_2 C 0.4731(8) 0.6205(5) 0.1101(4)
C3_2 C 0.3172(8) 0.5961(5) 0.0297(4)
C7_2 C 0.6743(8) 0.6883(5) 0.0019(4)
H1_2 H 0.211(16) 0.559(9) 0.043(8)
O11_2 O 0.9251(6) 0.4866(3) 0.1545(3)
O12_2 O 0.9228(6) 0.7431(4) 0.4115(3)
H3_2 H 0.681943 0.868743 0.280887
H4_2 H 0.811442 0.912232 0.198015
H5_2 H 0.95839 0.443664 0.352893
O3_2 O 0.1655(6) 0.6679(4) 0.7708(3)
O4_2 O 0.0749(6) 0.5134(3) 0.8455(3)
O5_2 O 0.9228(6) 0.7569(4) 0.9115(3)
C4_2 C 0.3451(8) 0.6224(5) 0.9339(4)
C5_2 C 0.1818(8) 0.5995(5) 0.8428(4)
C6_2 C 0.5232(9) 0.6735(5) 0.9188(4)
C8_2 C 0.8818(8) 0.7336(5) 0.9962(4)
H2_2 H 0.546(16) 0.692(9) 0.859(8)
O6_3 O 0.0015(6) 0.7566(4) 0.5791(3)
O7_3 O 0.0215(8) 0.9849(4) 0.8804(4)
O9_2 O 0.2880(6) 0.9065(4) 0.7421(3)
H6_3 H 0.169372 0.995386 0.899822
H5_3 H 0.95839 0.0563357 0.852893
O1_3 O 0.6225(6) 0.9010(4) 0.7811(3)
O8_3 O 0.7296(6) 0.6506(4) 0.7174(3)
N1_3 N 0.6501(7) 0.8378(4) 0.5958(4)
C1_3 C 0.4575(8) 0.8963(5) 0.7191(4)
C2_3 C 0.4731(8) 0.8795(5) 0.6101(4)
C3_3 C 0.3172(8) 0.9039(5) 0.5297(4)
C4_3 C 0.3451(8) 0.8776(5) 0.4339(4)
C5_3 C 0.1818(8) 0.9005(5) 0.3428(4)
C6_3 C 0.5232(9) 0.8265(5) 0.4188(4)
C7_3 C 0.6743(8) 0.8117(5) 0.5019(4)
C8_3 C 0.8818(8) 0.7664(5) 0.4962(4)
H1_3 H 0.211(16) 0.941(9) 0.543(8)
H2_3 H 0.546(16) 0.808(9) 0.359(8)
H3_3 H 0.681943 0.631257 0.780887
H4_3 H 0.811442 0.587768 0.698015
C4_4 C 0.6549(8) 0.3776(5) 0.0661(4)
C5_4 C 0.8182(8) 0.4005(5) 0.1572(4)
C6_4 C 0.4768(9) 0.3265(5) 0.0812(4)
C8_4 C 0.1182(8) 0.2664(5) 0.0038(4)
H2_4 H 0.454(16) 0.308(9) 0.141(8)
O1_4 O 0.3775(6) 0.4010(4) 0.7189(3)
O2_2 O 0.7120(6) 0.4065(4) 0.7579(3)
O8_4 O 0.2704(6) 0.1506(4) 0.7826(3)
N1_4 N 0.3499(7) 0.3378(4) 0.9042(4)
C1_4 C 0.5425(8) 0.3963(5) 0.7809(4)
C2_4 C 0.5269(8) 0.3795(5) 0.8899(4)
C3_4 C 0.6828(8) 0.4039(5) 0.9703(4)
C7_4 C 0.3257(8) 0.3117(5) 0.9981(4)
H1_4 H 0.789(16) 0.441(9) 0.957(8)
H3_4 H 0.318057 0.131257 0.719113
H4_4 H 0.188558 0.0877683 0.801985
H5_4 H 0.0416104 0.556336 0.647107
O6_4 O 0.9985(6) 0.2566(4) 0.9209(3)
O7_4 O 0.9785(8) 0.4849(4) 0.6196(4)
H6_4 H 0.830628 0.495386 0.600178
loop_
_geom_bond_atom_site_label_1
_geom_bond_atom_site_label_2
_geom_bond_site_symmetry_1
_geom_bond_site_symmetry_2
Nd2 O1 1_555 1_555
O1 C1 1_555 1_555
O2 C1 1_555 1_555
O3 C5 1_555 1_555
O4 C5 1_555 1_555
O5 C8 1_555 1_555
O8 Nd2 1_555 1_555
N1 Nd2 1_555 1_555
C1 C2 1_555 1_555
C2 N1 1_555 1_555
C3 C2 1_555 1_555
C4 C3 1_555 1_555
C5 C4 1_555 1_555
C6 C4 1_555 1_555
C7 N1 1_555 1_555
H1 C3 1_555 1_555
H2 C6 1_555 1_555
Nd3 O5 1_555 1_555
O12 Nd2 1_555 1_555
C6 C7 1_555 1_555
C7 C8 1_555 1_555
O8 H3 1_555 1_555
O8 H4 1_555 1_555
O7 H6 1_555 1_555
O7_2 H6_2 1_555 1_555
Nd1 O1_2 1_555 1_555
O1_2 C1_2 1_555 1_555
O9 C1_2 1_555 1_555
O8_2 Nd1 1_555 1_555
N1_2 Nd1 1_555 1_555
C1_2 C2_2 1_555 1_555
C2_2 N1_2 1_555 1_555
C3_2 C2_2 1_555 1_555
C7_2 N1_2 1_555 1_555
H1_2 C3_2 1_555 1_555
O11_2 Nd1 1_555 1_555
O12_2 Nd1 1_555 1_555
O8_2 H3_2 1_555 1_555
O8_2 H4_2 1_555 1_555
O3_2 C5_2 1_555 1_555
O4_2 C5_2 1_555 1_555
O5_2 C8_2 1_555 1_555
C5_2 C4_2 1_555 1_555
C6_2 C4_2 1_555 1_555
H2_2 C6_2 1_555 1_555
Nd3 O4_2 1_555 1_555
Nd4 O5_2 1_555 1_555
O7_3 H6_3 1_555 1_555
Nd4 O1_3 1_555 1_555
O1_3 C1_3 1_555 1_555
O9_2 C1_3 1_555 1_555
O10_2 C5_3 1_555 1_555
O11 C5_3 1_555 1_555
O12_2 C8_3 1_555 1_555
O8_3 Nd4 1_555 1_555
N1_3 Nd4 1_555 1_555
C1_3 C2_3 1_555 1_555
C2_3 N1_3 1_555 1_555
C3_3 C2_3 1_555 1_555
C4_3 C3_3 1_555 1_555
C5_3 C4_3 1_555 1_555
C6_3 C4_3 1_555 1_555
C7_3 N1_3 1_555 1_555
H1_3 C3_3 1_555 1_555
H2_3 C6_3 1_555 1_555
C6_3 C7_3 1_555 1_555
C7_3 C8_3 1_555 1_555
O8_3 H3_3 1_555 1_555
O8_3 H4_3 1_555 1_555
O10 C5_4 1_555 1_555
O11_2 C5_4 1_555 1_555
O12 C8_4 1_555 1_555
C5_4 C4_4 1_555 1_555
C6_4 C4_4 1_555 1_555
H2_4 C6_4 1_555 1_555
Nd3 O1_4 1_555 1_555
O1_4 C1_4 1_555 1_555
O2_2 C1_4 1_555 1_555
O8_4 Nd3 1_555 1_555
N1_4 Nd3 1_555 1_555
C1_4 C2_4 1_555 1_555
C2_4 N1_4 1_555 1_555
C3_4 C2_4 1_555 1_555
C7_4 N1_4 1_555 1_555
H1_4 C3_4 1_555 1_555
O8_4 H3_4 1_555 1_555
O8_4 H4_4 1_555 1_555
O7_4 H6_4 1_555 1_555

#END
