
###############################################################################
#
# This file contains modified crystal structure data generated from the
# MOF subset of the Cambridge Structural Database (CSD) v543 
# hosted by the Cambridge Crystallographic Data Centre (CCDC).
#
# This work is licensed under the Creative Commons
# Attribution-NonCommercial-ShareAlike 4.0 International License.
# To view a copy of this license, visit
# http://creativecommons.org/licenses/by-nc-sa/4.0/
# or send a letter to
# Creative Commons, PO Box 1866, Mountain View, CA 94042, USA.
#
# CIF created using the CSD Python API on 29 September 2022
# The structure has been converted into the P1 space group
# The structure has a 3D framework
# The original CSD entry CEDFIC is in the monoclinic crystal system
# The framework has been calculated to contain at least 10.0% void space
# The void calculation uses a probe of radius 1.32A, grid spacing 0.4
#
###############################################################################

data_CEDFIC
_chemical_formula_moiety         '(C148 H150 Gd8 N30 O86)n'
_symmetry_cell_setting           triclinic
_symmetry_space_group_name_H-M   'P 1'
_symmetry_Int_Tables_number      1
_space_group_name_Hall           'P 1'
loop_
_symmetry_equiv_pos_site_id
_symmetry_equiv_pos_as_xyz
1 x,y,z
_cell_length_a                   21.622(4)
_cell_length_b                   16.800(3)
_cell_length_c                   16.317(3)
_cell_angle_alpha                90
_cell_angle_beta                 119.628(4)
_cell_angle_gamma                90
_cell_volume                     5152.19
loop_
_atom_site_label
_atom_site_type_symbol
_atom_site_fract_x
_atom_site_fract_y
_atom_site_fract_z
C35 C 0.03955(13) 0.33103(15) 0.47056(19)
H32 H 0.0346 0.3387 0.4081
H33 H 0.0898 0.3225 0.5170
H34 H 0.0221 0.3784 0.4879
C36 C 0.02020(14) 0.18478(16) 0.4506(2)
H36 H 0.0690 0.1734 0.5002
H37 H 0.0182 0.1861 0.3893
O1 O 0.37580(7) 0.24871(8) 0.10891(9)
O3 O 0.08618(7) 0.33374(9) 0.01879(10)
O4 O 0.31390(7) 0.36207(8) 0.08513(9)
C1 C 0.43776(9) 0.36538(10) 0.18939(12)
C2 C 0.5000 0.32436(15) 0.2500
H1 H 0.5000 0.2678 0.2500
C4 C 0.37035(9) 0.32149(11) 0.12228(12)
C6 C 0.43724(9) 0.44843(11) 0.19035(12)
H3 H 0.3949 0.4773 0.1511
N1 N 0.5000 0.57533(14) 0.2500
O9 O 0.44241(8) 0.61015(9) 0.20974(12)
C12 C 0.5000 0.48776(15) 0.2500
N4 N 0.00197(9) 0.26168(11) 0.03132(13)
C16 C 0.06134(10) 0.26914(13) 0.02590(13)
H10 H 0.0862 0.2220 0.0276
H17 H 0.0117 0.1431 0.0498
Gd2 Gd 0.811087(4) 0.356601(5) 0.502144(5)
Gd3 Gd 0.311087(4) 0.143399(5) 0.002144(5)
Gd5 Gd 0.688913(4) 0.143399(5) 0.497856(5)
Gd6 Gd 0.188913(4) 0.643399(5) 0.497856(5)
Gd7 Gd 0.311087(4) 0.856601(5) 0.502144(5)
O12 O 0.62420(7) 0.24871(8) 0.39109(9)
O14 O 0.87580(7) 0.25129(8) 0.60891(9)
O15 O 0.90503(7) 0.42975(9) 0.62339(9)
O16 O 0.91382(7) 0.33374(9) 0.48121(10)
O17 O 0.68610(7) 0.36207(8) 0.41487(9)
O18 O 0.22158(7) 0.62991(8) 0.37855(9)
O19 O 0.77842(7) 0.37009(8) 0.62145(9)
O20 O 0.27771(7) 0.74696(8) 0.40255(9)
O21 O 0.22229(7) 0.24696(8) 0.09745(9)
O22 O 0.77771(7) 0.24696(8) 0.40255(9)
O23 O 0.22647(7) 0.50009(8) 0.01537(9)
O24 O 0.77353(7) 0.50009(8) 0.48463(9)
O25 O 0.20305(7) 0.44879(8) 0.12219(9)
O26 O 0.79695(7) 0.44879(8) 0.37781(9)
C20 C 0.56224(9) 0.36538(10) 0.31061(12)
C21 C 0.28136(10) 0.63961(11) 0.11855(13)
H20 H 0.2863 0.6318 0.0644
C22 C 0.62965(9) 0.32149(11) 0.37772(12)
C23 C 0.25394(9) 0.68226(11) 0.35883(12)
C24 C 0.56276(9) 0.44843(11) 0.30965(12)
H21 H 0.6051 0.4773 0.3489
C25 C 0.24042(9) 0.59578(11) 0.22447(12)
H22 H 0.2182 0.5566 0.2432
C26 C 0.26464(9) 0.66668(11) 0.27577(12)
O27 O 0.55759(8) 0.61015(9) 0.29026(12)
O28 O 0.33821(9) 0.76037(10) 0.06637(11)
C27 C 0.24873(9) 0.58222(10) 0.14610(12)
C28 C 0.22417(9) 0.50571(11) 0.09076(12)
C29 C 0.29915(9) 0.72340(11) 0.25021(12)
H23 H 0.3171 0.7711 0.2855
O29 O 0.37771(10) 0.82005(11) 0.20093(13)
N5 N 0.92502(9) 0.45209(11) 0.77182(12)
N6 N 0.34361(9) 0.76715(11) 0.14454(13)
C30 C 0.93472(12) 0.36759(13) 0.79853(16)
H24 H 0.9237 0.3349 0.7432
H25 H 0.9028 0.3531 0.8227
H26 H 0.9841 0.3584 0.8476
N7 N 0.99803(9) 0.26168(11) 0.46868(13)
C31 C 0.30647(10) 0.70827(11) 0.17195(13)
C32 C 0.91076(10) 0.47526(13) 0.68708(14)
H27 H 0.9044 0.5306 0.6736
C33 C 0.93866(10) 0.26914(13) 0.47410(13)
H28 H 0.9138 0.2220 0.4724
C34 C 0.93727(13) 0.50910(15) 0.84532(16)
H29 H 0.9305 0.5632 0.8198
H30 H 0.9860 0.5033 0.8977
H31 H 0.9036 0.4992 0.8680
H35 H 0.9883 0.1431 0.4502
Gd1 Gd 0.188913(4) 0.356601(5) 0.997856(5)
O2 O 0.09497(7) 0.42975(9) 0.87661(9)
O5 O 0.22158(7) 0.37009(8) 0.87855(9)
O6 O 0.27771(7) 0.25304(8) 0.90255(9)
O7 O 0.22647(7) 0.49991(8) 0.51537(9)
O8 O 0.20305(7) 0.55121(8) 0.62219(9)
C3 C 0.28136(10) 0.36039(11) 0.61855(13)
H2 H 0.2863 0.3682 0.5644
C5 C 0.25394(9) 0.31774(11) 0.85883(12)
C7 C 0.24042(9) 0.40422(11) 0.72447(12)
H4 H 0.2182 0.4434 0.7432
C8 C 0.26464(9) 0.33332(11) 0.77577(12)
O10 O 0.33821(9) 0.23963(10) 0.56637(11)
C9 C 0.24873(9) 0.41778(10) 0.64610(12)
C10 C 0.22417(9) 0.49429(11) 0.59076(12)
C11 C 0.29915(9) 0.27660(11) 0.75021(12)
H5 H 0.3171 0.2289 0.7855
O11 O 0.37771(10) 0.17995(11) 0.70093(13)
N2 N 0.07498(9) 0.45209(11) 0.72818(12)
N3 N 0.34361(9) 0.23285(11) 0.64454(13)
C13 C 0.06528(12) 0.36759(13) 0.70147(16)
H6 H 0.0763 0.3349 0.7568
H7 H 0.0972 0.3531 0.6773
H8 H 0.0159 0.3584 0.6524
C14 C 0.30647(10) 0.29173(11) 0.67195(13)
C15 C 0.08924(10) 0.47526(13) 0.81292(14)
H9 H 0.0956 0.5306 0.8264
C17 C 0.06273(13) 0.50910(15) 0.65468(16)
H11 H 0.0695 0.5632 0.6802
H12 H 0.0140 0.5033 0.6023
H13 H 0.0964 0.4992 0.6320
O13 O 0.12420(7) 0.25129(8) 0.89109(9)
Gd4 Gd 0.811087(4) 0.643399(5) 0.002144(5)
O6_2 O 0.72229(7) 0.25304(8) 0.59745(9)
O7_2 O 0.77353(7) 0.49991(8) 0.98463(9)
O8_2 O 0.79695(7) 0.55121(8) 0.87781(9)
C3_2 C 0.71864(10) 0.36039(11) 0.88145(13)
H2_2 H 0.7137 0.3682 0.9356
C5_2 C 0.74606(9) 0.31774(11) 0.64117(12)
C7_2 C 0.75958(9) 0.40422(11) 0.77553(12)
H4_2 H 0.7818 0.4434 0.7568
C8_2 C 0.73536(9) 0.33332(11) 0.72423(12)
O10_2 O 0.66179(9) 0.23963(10) 0.93363(11)
C9_2 C 0.75127(9) 0.41778(10) 0.85390(12)
C10_2 C 0.77583(9) 0.49429(11) 0.90924(12)
C11_2 C 0.70085(9) 0.27660(11) 0.74979(12)
H5_2 H 0.6829 0.2289 0.7145
O11_2 O 0.62229(10) 0.17995(11) 0.79907(13)
N3_2 N 0.65639(9) 0.23285(11) 0.85546(13)
C14_2 C 0.69353(10) 0.29173(11) 0.82805(13)
O18_2 O 0.77842(7) 0.62991(8) 0.12145(9)
O20_2 O 0.72229(7) 0.74696(8) 0.09745(9)
C21_2 C 0.71864(10) 0.63961(11) 0.38145(13)
H20_2 H 0.7137 0.6318 0.4356
C23_2 C 0.74606(9) 0.68226(11) 0.14117(12)
C25_2 C 0.75958(9) 0.59578(11) 0.27553(12)
H22_2 H 0.7818 0.5566 0.2568
C26_2 C 0.73536(9) 0.66668(11) 0.22423(12)
O28_2 O 0.66179(9) 0.76037(10) 0.43363(11)
C27_2 C 0.75127(9) 0.58222(10) 0.35390(12)
C28_2 C 0.77583(9) 0.50571(11) 0.40924(12)
C29_2 C 0.70085(9) 0.72340(11) 0.24979(12)
H23_2 H 0.6829 0.7711 0.2145
O29_2 O 0.62229(10) 0.82005(11) 0.29907(13)
N6_2 N 0.65639(9) 0.76715(11) 0.35546(13)
C31_2 C 0.69353(10) 0.70827(11) 0.32805(13)
Gd7_2 Gd 0.688913(4) 0.856601(5) 0.997856(5)
N1_2 N 0.0000 0.07533(14) 0.2500
O24_2 O 0.27353(7) 0.00009(8) 0.48463(9)
O27_2 O 0.05759(8) 0.11015(9) 0.29026(12)
H27_2 H 0.4044 0.0306 0.6736
C34_2 C 0.43727(13) 0.00910(15) 0.84532(16)
H29_2 H 0.4305 0.0632 0.8198
H30_2 H 0.4860 0.0033 0.8977
C2_2 C 0.0000 0.82436(15) 0.2500
H1_2 H 0.0000 0.7678 0.2500
C12_2 C 0.0000 0.98776(15) 0.2500
O12_2 O 0.12420(7) 0.74871(8) 0.39109(9)
O14_2 O 0.37580(7) 0.75129(8) 0.60891(9)
O15_2 O 0.40503(7) 0.92975(9) 0.62339(9)
O16_2 O 0.41382(7) 0.83374(9) 0.48121(10)
O17_2 O 0.18610(7) 0.86207(8) 0.41487(9)
O19_2 O 0.27842(7) 0.87009(8) 0.62145(9)
O26_2 O 0.29695(7) 0.94879(8) 0.37781(9)
C20_2 C 0.06224(9) 0.86538(10) 0.31061(12)
C22_2 C 0.12965(9) 0.82149(11) 0.37772(12)
C24_2 C 0.06276(9) 0.94843(11) 0.30965(12)
H21_2 H 0.1051 0.9773 0.3489
N5_2 N 0.42502(9) 0.95209(11) 0.77182(12)
C30_2 C 0.43472(12) 0.86759(13) 0.79853(16)
H24_2 H 0.4237 0.8349 0.7432
H25_2 H 0.4028 0.8531 0.8227
H26_2 H 0.4841 0.8584 0.8476
N7_2 N 0.49803(9) 0.76168(11) 0.46868(13)
C32_2 C 0.41076(10) 0.97526(13) 0.68708(14)
C33_2 C 0.43866(10) 0.76914(13) 0.47410(13)
H28_2 H 0.4138 0.7220 0.4724
H31_2 H 0.4036 0.9992 0.8680
C35_2 C 0.53955(13) 0.83103(15) 0.47056(19)
H32_2 H 0.5346 0.8387 0.4081
H33_2 H 0.5898 0.8225 0.5170
H34_2 H 0.5221 0.8784 0.4879
C36_2 C 0.52020(14) 0.68478(16) 0.4506(2)
H35_2 H 0.4883 0.6431 0.4502
H36_2 H 0.5690 0.6734 0.5002
H37_2 H 0.5182 0.6861 0.3893
N1_3 N 1.0000 0.07533(14) 0.2500
O9_2 O 0.94241(8) 0.11015(9) 0.20974(12)
O18_3 O 0.72158(7) 0.12991(8) 0.37855(9)
O23_2 O 0.72647(7) 0.00009(8) 0.01537(9)
C21_3 C 0.78136(10) 0.13961(11) 0.11855(13)
H20_3 H 0.7863 0.1318 0.0644
C23_3 C 0.75394(9) 0.18226(11) 0.35883(12)
C25_3 C 0.74042(9) 0.09578(11) 0.22447(12)
H22_3 H 0.7182 0.0566 0.2432
C26_3 C 0.76464(9) 0.16668(11) 0.27577(12)
O28_3 O 0.83821(9) 0.26037(10) 0.06637(11)
C27_3 C 0.74873(9) 0.08222(10) 0.14610(12)
C28_3 C 0.72417(9) 0.00571(11) 0.09076(12)
C29_3 C 0.79915(9) 0.22340(11) 0.25021(12)
H23_3 H 0.8171 0.2711 0.2855
O29_3 O 0.87771(10) 0.32005(11) 0.20093(13)
N6_3 N 0.84361(9) 0.26715(11) 0.14454(13)
C31_3 C 0.80647(10) 0.20827(11) 0.17195(13)
O8_3 O 0.70305(7) 0.05121(8) 0.62219(9)
H9_2 H 0.5956 0.0306 0.8264
C17_2 C 0.56273(13) 0.00910(15) 0.65468(16)
H11_2 H 0.5695 0.0632 0.6802
H12_2 H 0.5140 0.0033 0.6023
O1_2 O 0.87580(7) 0.74871(8) 0.10891(9)
O3_2 O 0.58618(7) 0.83374(9) 0.01879(10)
O4_2 O 0.81390(7) 0.86207(8) 0.08513(9)
C1_2 C 0.93776(9) 0.86538(10) 0.18939(12)
C2_3 C 1.0000 0.82436(15) 0.2500
H1_3 H 1.0000 0.7678 0.2500
C4_2 C 0.87035(9) 0.82149(11) 0.12228(12)
C6_2 C 0.93724(9) 0.94843(11) 0.19035(12)
H3_2 H 0.8949 0.9773 0.1511
C12_3 C 1.0000 0.98776(15) 0.2500
N4_2 N 0.50197(9) 0.76168(11) 0.03132(13)
C16_2 C 0.56134(10) 0.76914(13) 0.02590(13)
H10_2 H 0.5862 0.7220 0.0276
C18 C 0.46045(13) 0.83103(15) 0.02944(19)
H14 H 0.4654 0.8387 0.0919
H16 H 0.4779 0.8784 0.0121
C19 C 0.47980(14) 0.68478(16) 0.0494(2)
H17_2 H 0.5117 0.6431 0.0498
H19 H 0.4818 0.6861 0.1107
O25_2 O 0.70305(7) 0.94879(8) 0.12219(9)
O2_2 O 0.59497(7) 0.92975(9) 0.87661(9)
O5_2 O 0.72158(7) 0.87009(8) 0.87855(9)
O6_3 O 0.77771(7) 0.75304(8) 0.90255(9)
O7_3 O 0.72647(7) 0.99991(8) 0.51537(9)
C3_3 C 0.78136(10) 0.86039(11) 0.61855(13)
H2_3 H 0.7863 0.8682 0.5644
C5_3 C 0.75394(9) 0.81774(11) 0.85883(12)
C7_3 C 0.74042(9) 0.90422(11) 0.72447(12)
H4_3 H 0.7182 0.9434 0.7432
C8_3 C 0.76464(9) 0.83332(11) 0.77577(12)
O10_3 O 0.83821(9) 0.73963(10) 0.56637(11)
C9_3 C 0.74873(9) 0.91778(10) 0.64610(12)
C10_3 C 0.72417(9) 0.99429(11) 0.59076(12)
C11_3 C 0.79915(9) 0.77660(11) 0.75021(12)
H5_3 H 0.8171 0.7289 0.7855
O11_3 O 0.87771(10) 0.67995(11) 0.70093(13)
N2_2 N 0.57498(9) 0.95209(11) 0.72818(12)
N3_3 N 0.84361(9) 0.73285(11) 0.64454(13)
C13_2 C 0.56528(12) 0.86759(13) 0.70147(16)
H6_2 H 0.5763 0.8349 0.7568
H7_2 H 0.5972 0.8531 0.6773
H8_2 H 0.5159 0.8584 0.6524
C14_3 C 0.80647(10) 0.79173(11) 0.67195(13)
C15_2 C 0.58924(10) 0.97526(13) 0.81292(14)
H13_2 H 0.5964 0.9992 0.6320
H15 H 0.4102 0.8225 0.9830
H18 H 0.4310 0.6734 0.9998
O13_2 O 0.62420(7) 0.75129(8) 0.89109(9)
O8_4 O 0.29695(7) 0.05121(8) 0.87781(9)
O18_4 O 0.27842(7) 0.12991(8) 0.12145(9)
C21_4 C 0.21864(10) 0.13961(11) 0.38145(13)
H20_4 H 0.2137 0.1318 0.4356
C23_4 C 0.24606(9) 0.18226(11) 0.14117(12)
C25_4 C 0.25958(9) 0.09578(11) 0.27553(12)
H22_4 H 0.2818 0.0566 0.2568
C26_4 C 0.23536(9) 0.16668(11) 0.22423(12)
O28_4 O 0.16179(9) 0.26037(10) 0.43363(11)
C27_4 C 0.25127(9) 0.08222(10) 0.35390(12)
C28_4 C 0.27583(9) 0.00571(11) 0.40924(12)
C29_4 C 0.20085(9) 0.22340(11) 0.24979(12)
H23_4 H 0.1829 0.2711 0.2145
O29_4 O 0.12229(10) 0.32005(11) 0.29907(13)
N6_4 N 0.15639(9) 0.26715(11) 0.35546(13)
C31_4 C 0.19353(10) 0.20827(11) 0.32805(13)
O6_4 O 0.22229(7) 0.75304(8) 0.59745(9)
O7_4 O 0.27353(7) 0.99991(8) 0.98463(9)
C3_4 C 0.21864(10) 0.86039(11) 0.88145(13)
H2_4 H 0.2137 0.8682 0.9356
C5_4 C 0.24606(9) 0.81774(11) 0.64117(12)
C7_4 C 0.25958(9) 0.90422(11) 0.77553(12)
H4_4 H 0.2818 0.9434 0.7568
C8_4 C 0.23536(9) 0.83332(11) 0.72423(12)
O10_4 O 0.16179(9) 0.73963(10) 0.93363(11)
C9_4 C 0.25127(9) 0.91778(10) 0.85390(12)
C10_4 C 0.27583(9) 0.99429(11) 0.90924(12)
C11_4 C 0.20085(9) 0.77660(11) 0.74979(12)
H5_4 H 0.1829 0.7289 0.7145
O11_4 O 0.12229(10) 0.67995(11) 0.79907(13)
N3_4 N 0.15639(9) 0.73285(11) 0.85546(13)
C14_4 C 0.19353(10) 0.79173(11) 0.82805(13)
O2_3 O 0.90503(7) 0.57025(9) 0.12339(9)
N2_3 N 0.92502(9) 0.54791(11) 0.27182(12)
C13_3 C 0.93472(12) 0.63241(13) 0.29853(16)
H6_3 H 0.9237 0.6651 0.2432
H7_3 H 0.9028 0.6469 0.3227
H8_3 H 0.9841 0.6416 0.3476
C15_3 C 0.91076(10) 0.52474(13) 0.18708(14)
H9_3 H 0.9044 0.4694 0.1736
C17_3 C 0.93727(13) 0.49090(15) 0.34532(16)
H11_3 H 0.9305 0.4368 0.3198
H12_3 H 0.9860 0.4967 0.3977
H13_3 H 0.9036 0.5008 0.3680
O3_3 O 0.91382(7) 0.66626(9) 0.98121(10)
O4_3 O 0.68610(7) 0.63793(8) 0.91487(9)
C1_3 C 0.56224(9) 0.63462(10) 0.81061(12)
C2_4 C 0.5000 0.67564(15) 0.7500
H1_4 H 0.5000 0.7322 0.7500
C4_3 C 0.62965(9) 0.67851(11) 0.87772(12)
C6_3 C 0.56276(9) 0.55157(11) 0.80965(12)
H3_3 H 0.6051 0.5227 0.8489
N1_4 N 0.5000 0.42467(14) 0.7500
O9_3 O 0.55759(8) 0.38985(9) 0.79026(12)
C12_4 C 0.5000 0.51224(15) 0.7500
N4_3 N 0.99803(9) 0.73832(11) 0.96868(13)
C16_3 C 0.93866(10) 0.73086(13) 0.97410(13)
H10_3 H 0.9138 0.7780 0.9724
H17_3 H 0.9883 0.8569 0.9502
O15_3 O 0.09497(7) 0.57025(9) 0.37661(9)
O16_3 O 0.08618(7) 0.66626(9) 0.51879(10)
O17_3 O 0.31390(7) 0.63793(8) 0.58513(9)
C20_3 C 0.43776(9) 0.63462(10) 0.68939(12)
C22_3 C 0.37035(9) 0.67851(11) 0.62228(12)
C24_3 C 0.43724(9) 0.55157(11) 0.69035(12)
H21_3 H 0.3949 0.5227 0.6511
O27_3 O 0.44241(8) 0.38985(9) 0.70974(12)
N5_3 N 0.07498(9) 0.54791(11) 0.22818(12)
C30_3 C 0.06528(12) 0.63241(13) 0.20147(16)
H24_3 H 0.0763 0.6651 0.2568
H25_3 H 0.0972 0.6469 0.1773
H26_3 H 0.0159 0.6416 0.1524
N7_3 N 0.00197(9) 0.73832(11) 0.53132(13)
C32_3 C 0.08924(10) 0.52474(13) 0.31292(14)
H27_3 H 0.0956 0.4694 0.3264
C33_3 C 0.06134(10) 0.73086(13) 0.52590(13)
H28_3 H 0.0862 0.7780 0.5276
C34_3 C 0.06273(13) 0.49090(15) 0.15468(16)
H29_3 H 0.0695 0.4368 0.1802
H30_3 H 0.0140 0.4967 0.1023
H31_3 H 0.0964 0.5008 0.1320
H35_3 H 0.0117 0.8569 0.5498
O2_4 O 0.40503(7) 0.07025(9) 0.12339(9)
N2_4 N 0.42502(9) 0.04791(11) 0.27182(12)
C13_4 C 0.43472(12) 0.13241(13) 0.29853(16)
H6_4 H 0.4237 0.1651 0.2432
H7_4 H 0.4028 0.1469 0.3227
H8_4 H 0.4841 0.1416 0.3476
C15_4 C 0.41076(10) 0.02474(13) 0.18708(14)
H13_4 H 0.4036 0.0008 0.3680
H15_2 H 0.5898 0.1775 0.0170
H18_2 H 0.5690 0.3266 0.0002
O3_4 O 0.41382(7) 0.16626(9) 0.98121(10)
O4_4 O 0.18610(7) 0.13793(8) 0.91487(9)
C1_4 C 0.06224(9) 0.13462(10) 0.81061(12)
C2_5 C 0.0000 0.17564(15) 0.7500
H1_5 H 0.0000 0.2322 0.7500
C4_4 C 0.12965(9) 0.17851(11) 0.87772(12)
C6_4 C 0.06276(9) 0.05157(11) 0.80965(12)
H3_4 H 0.1051 0.0227 0.8489
C12_5 C 0.0000 0.01224(15) 0.7500
N4_4 N 0.49803(9) 0.23832(11) 0.96868(13)
C16_4 C 0.43866(10) 0.23086(13) 0.97410(13)
H10_4 H 0.4138 0.2780 0.9724
C18_2 C 0.53955(13) 0.16897(15) 0.97056(19)
H14_2 H 0.5346 0.1613 0.9081
H16_2 H 0.5221 0.1216 0.9879
C19_2 C 0.52020(14) 0.31522(16) 0.9506(2)
H17_4 H 0.4883 0.3569 0.9502
H19_2 H 0.5182 0.3139 0.8893
H9_4 H 0.4044 0.9694 0.1736
C17_4 C 0.43727(13) 0.99090(15) 0.34532(16)
H11_4 H 0.4305 0.9368 0.3198
H12_4 H 0.4860 0.9967 0.3977
N1_5 N 0.0000 0.92467(14) 0.7500
O9_4 O 0.05759(8) 0.88985(9) 0.79026(12)
C2_6 C 1.0000 0.17564(15) 0.7500
H1_6 H 1.0000 0.2322 0.7500
C12_6 C 1.0000 0.01224(15) 0.7500
O15_4 O 0.59497(7) 0.07025(9) 0.37661(9)
O16_4 O 0.58618(7) 0.16626(9) 0.51879(10)
O17_4 O 0.81390(7) 0.13793(8) 0.58513(9)
C20_4 C 0.93776(9) 0.13462(10) 0.68939(12)
C22_4 C 0.87035(9) 0.17851(11) 0.62228(12)
C24_4 C 0.93724(9) 0.05157(11) 0.69035(12)
H21_4 H 0.8949 0.0227 0.6511
N5_4 N 0.57498(9) 0.04791(11) 0.22818(12)
C30_4 C 0.56528(12) 0.13241(13) 0.20147(16)
H24_4 H 0.5763 0.1651 0.2568
H25_4 H 0.5972 0.1469 0.1773
H26_4 H 0.5159 0.1416 0.1524
N7_4 N 0.50197(9) 0.23832(11) 0.53132(13)
C32_4 C 0.58924(10) 0.02474(13) 0.31292(14)
C33_4 C 0.56134(10) 0.23086(13) 0.52590(13)
H28_4 H 0.5862 0.2780 0.5276
H31_4 H 0.5964 0.0008 0.1320
C35_3 C 0.46045(13) 0.16897(15) 0.52944(19)
H32_3 H 0.4654 0.1613 0.5919
H33_3 H 0.4102 0.1775 0.4830
H34_3 H 0.4779 0.1216 0.5121
C36_3 C 0.47980(14) 0.31522(16) 0.5494(2)
H35_4 H 0.5117 0.3569 0.5498
H36_3 H 0.4310 0.3266 0.4998
H37_3 H 0.4818 0.3139 0.6107
N1_6 N 1.0000 0.92467(14) 0.7500
O27_4 O 0.94241(8) 0.88985(9) 0.70974(12)
H27_4 H 0.5956 0.9694 0.3264
C34_4 C 0.56273(13) 0.99090(15) 0.15468(16)
H29_4 H 0.5695 0.9368 0.1802
H30_4 H 0.5140 0.9967 0.1023
C18_3 C 0.96045(13) 0.33103(15) 0.02944(19)
H14_3 H 0.9654 0.3387 0.0919
H16_3 H 0.9779 0.3784 0.0121
C19_3 C 0.97980(14) 0.18478(16) 0.0494(2)
H19_3 H 0.9818 0.1861 0.1107
H15_3 H 0.9102 0.3225 0.9830
H18_3 H 0.9310 0.1734 0.9998
H15_4 H 0.0898 0.6775 0.0170
H18_4 H 0.0690 0.8266 0.0002
C18_4 C 0.03955(13) 0.66897(15) 0.97056(19)
H14_4 H 0.0346 0.6613 0.9081
H16_4 H 0.0221 0.6216 0.9879
C19_4 C 0.02020(14) 0.81522(16) 0.9506(2)
H19_4 H 0.0182 0.8139 0.8893
C35_4 C 0.96045(13) 0.66897(15) 0.52944(19)
H32_4 H 0.9654 0.6613 0.5919
H33_4 H 0.9102 0.6775 0.4830
H34_4 H 0.9779 0.6216 0.5121
C36_4 C 0.97980(14) 0.81522(16) 0.5494(2)
H36_4 H 0.9310 0.8266 0.4998
H37_4 H 0.9818 0.8139 0.6107
loop_
_geom_bond_atom_site_label_1
_geom_bond_atom_site_label_2
_geom_bond_site_symmetry_1
_geom_bond_site_symmetry_2
H32 C35 1_555 1_555
H33 C35 1_555 1_555
H34 C35 1_555 1_555
H36 C36 1_555 1_555
H37 C36 1_555 1_555
O1 C4 1_555 1_555
C1 C2 1_555 1_555
C2 H1 1_555 1_555
C4 O4 1_555 1_555
C6 C1 1_555 1_555
H3 C6 1_555 1_555
N1 O9 1_555 1_555
C12 C6 1_555 1_555
N4 C16 1_555 1_555
C16 O3 1_555 1_555
H10 C16 1_555 1_555
Gd2 O14 1_555 1_555
Gd3 O1 1_555 1_555
Gd5 O12 1_555 1_555
Gd6 O18 1_555 1_555
Gd7 O20 1_555 1_555
O12 C22 1_555 1_555
O15 Gd2 1_555 1_555
O16 Gd2 1_555 1_555
O17 Gd2 1_555 1_555
O18 C23 1_555 1_555
O19 Gd2 1_555 1_555
O20 C23 1_555 1_555
O22 Gd2 1_555 1_555
O24 Gd2 1_555 1_555
O26 Gd2 1_555 1_555
C20 C2 1_555 1_555
C21 H20 1_555 1_555
C22 O17 1_555 1_555
C23 C26 1_555 1_555
C24 C12 1_555 1_555
H21 C24 1_555 1_555
C25 H22 1_555 1_555
C26 C25 1_555 1_555
O27 N1 1_555 1_555
O28 N6 1_555 1_555
C27 C21 1_555 1_555
C28 O23 1_555 1_555
C29 C26 1_555 1_555
H23 C29 1_555 1_555
O29 N6 1_555 1_555
N5 C30 1_555 1_555
N6 C31 1_555 1_555
C30 H24 1_555 1_555
H25 C30 1_555 1_555
H26 C30 1_555 1_555
N7 C33 1_555 1_555
C31 C21 1_555 1_555
C32 O15 1_555 1_555
H27 C32 1_555 1_555
C33 O16 1_555 1_555
H28 C33 1_555 1_555
C34 N5 1_555 1_555
H29 C34 1_555 1_555
H30 C34 1_555 1_555
H31 C34 1_555 1_555
C1 C4 1_555 1_555
N1 C12 1_555 1_555
O25 C28 1_555 1_555
C20 C22 1_555 1_555
C20 C24 1_555 1_555
C25 C27 1_555 1_555
C27 C28 1_555 1_555
C29 C31 1_555 1_555
N5 C32 1_555 1_555
Gd1 O2 1_555 1_555
O2 C15 1_555 1_555
O5 Gd1 1_555 1_555
O6 C5 1_555 1_555
O7 C10 1_555 1_555
O8 C10 1_555 1_555
C3 H2 1_555 1_555
C5 O5 1_555 1_555
C7 H4 1_555 1_555
C8 C5 1_555 1_555
O10 N3 1_555 1_555
C9 C3 1_555 1_555
C10 C9 1_555 1_555
C11 C8 1_555 1_555
H5 C11 1_555 1_555
O11 N3 1_555 1_555
N2 C13 1_555 1_555
N3 C14 1_555 1_555
C13 H6 1_555 1_555
H7 C13 1_555 1_555
H8 C13 1_555 1_555
C14 C3 1_555 1_555
C15 N2 1_555 1_555
H9 C15 1_555 1_555
C17 N2 1_555 1_555
H11 C17 1_555 1_555
H12 C17 1_555 1_555
H13 C17 1_555 1_555
Gd6 O7 1_555 1_555
O13 Gd1 1_555 1_555
O8 Gd6 1_555 1_555
C7 C8 1_555 1_555
C7 C9 1_555 1_555
C11 C14 1_555 1_555
O6_2 C5_2 1_555 1_555
O7_2 C10_2 1_555 1_555
O8_2 C10_2 1_555 1_555
C3_2 H2_2 1_555 1_555
C5_2 O19 1_555 1_555
C7_2 H4_2 1_555 1_555
C8_2 C5_2 1_555 1_555
O10_2 N3_2 1_555 1_555
C9_2 C3_2 1_555 1_555
C10_2 C9_2 1_555 1_555
C11_2 C8_2 1_555 1_555
H5_2 C11_2 1_555 1_555
O11_2 N3_2 1_555 1_555
N3_2 C14_2 1_555 1_555
C14_2 C3_2 1_555 1_555
Gd4 O18_2 1_555 1_555
O18_2 C23_2 1_555 1_555
O20_2 C23_2 1_555 1_555
C21_2 H20_2 1_555 1_555
C23_2 C26_2 1_555 1_555
C25_2 H22_2 1_555 1_555
C26_2 C25_2 1_555 1_555
O28_2 N6_2 1_555 1_555
C27_2 C21_2 1_555 1_555
C28_2 O24 1_555 1_555
C29_2 C26_2 1_555 1_555
H23_2 C29_2 1_555 1_555
O29_2 N6_2 1_555 1_555
N6_2 C31_2 1_555 1_555
C31_2 C21_2 1_555 1_555
O6_2 Gd5 1_555 1_555
C7_2 C8_2 1_555 1_555
C7_2 C9_2 1_555 1_555
C11_2 C14_2 1_555 1_555
O26 C28_2 1_555 1_555
C25_2 C27_2 1_555 1_555
C27_2 C28_2 1_555 1_555
C29_2 C31_2 1_555 1_555
O27_2 N1_2 1_555 1_555
H29_2 C34_2 1_555 1_555
H30_2 C34_2 1_555 1_555
C2_2 H1_2 1_555 1_555
Gd7 O14_2 1_555 1_555
Gd6 O12_2 1_555 1_555
O12_2 C22_2 1_555 1_555
O15_2 Gd7 1_555 1_555
O16_2 Gd7 1_555 1_555
O17_2 Gd7 1_555 1_555
O19_2 Gd7 1_555 1_555
O26_2 Gd7 1_555 1_555
C20_2 C2_2 1_555 1_555
C22_2 O17_2 1_555 1_555
C24_2 C12_2 1_555 1_555
H21_2 C24_2 1_555 1_555
N5_2 C30_2 1_555 1_555
C30_2 H24_2 1_555 1_555
H25_2 C30_2 1_555 1_555
H26_2 C30_2 1_555 1_555
N7_2 C33_2 1_555 1_555
C32_2 O15_2 1_555 1_555
C33_2 O16_2 1_555 1_555
H28_2 C33_2 1_555 1_555
C35_2 N7_2 1_555 1_555
H32_2 C35_2 1_555 1_555
H33_2 C35_2 1_555 1_555
H34_2 C35_2 1_555 1_555
C36_2 N7_2 1_555 1_555
H35_2 C36_2 1_555 1_555
H36_2 C36_2 1_555 1_555
H37_2 C36_2 1_555 1_555
C20_2 C22_2 1_555 1_555
C20_2 C24_2 1_555 1_555
N5_2 C32_2 1_555 1_555
N1_3 O9_2 1_555 1_555
Gd5 O18_3 1_555 1_555
O18_3 C23_3 1_555 1_555
O22 C23_3 1_555 1_555
C21_3 H20_3 1_555 1_555
C23_3 C26_3 1_555 1_555
C25_3 H22_3 1_555 1_555
C26_3 C25_3 1_555 1_555
O28_3 N6_3 1_555 1_555
C27_3 C21_3 1_555 1_555
C28_3 O23_2 1_555 1_555
C29_3 C26_3 1_555 1_555
H23_3 C29_3 1_555 1_555
O29_3 N6_3 1_555 1_555
N6_3 C31_3 1_555 1_555
C31_3 C21_3 1_555 1_555
C25_3 C27_3 1_555 1_555
C27_3 C28_3 1_555 1_555
C29_3 C31_3 1_555 1_555
H11_2 C17_2 1_555 1_555
H12_2 C17_2 1_555 1_555
O8_3 Gd5 1_555 1_555
O1_2 C4_2 1_555 1_555
C1_2 C2_3 1_555 1_555
C2_3 H1_3 1_555 1_555
C4_2 O4_2 1_555 1_555
C6_2 C1_2 1_555 1_555
H3_2 C6_2 1_555 1_555
C12_3 C6_2 1_555 1_555
N4_2 C16_2 1_555 1_555
C16_2 O3_2 1_555 1_555
H10_2 C16_2 1_555 1_555
C18 N4_2 1_555 1_555
H14 C18 1_555 1_555
H16 C18 1_555 1_555
C19 N4_2 1_555 1_555
H17_2 C19 1_555 1_555
H19 C19 1_555 1_555
Gd4 O1_2 1_555 1_555
C1_2 C4_2 1_555 1_555
Gd7_2 O2_2 1_555 1_555
O2_2 C15_2 1_555 1_555
O5_2 Gd7_2 1_555 1_555
O6_3 C5_3 1_555 1_555
O7_3 C10_3 1_555 1_555
C3_3 H2_3 1_555 1_555
C5_3 O5_2 1_555 1_555
C7_3 H4_3 1_555 1_555
C8_3 C5_3 1_555 1_555
O10_3 N3_3 1_555 1_555
C9_3 C3_3 1_555 1_555
C10_3 C9_3 1_555 1_555
C11_3 C8_3 1_555 1_555
H5_3 C11_3 1_555 1_555
O11_3 N3_3 1_555 1_555
N2_2 C13_2 1_555 1_555
N3_3 C14_3 1_555 1_555
C13_2 H6_2 1_555 1_555
H7_2 C13_2 1_555 1_555
H8_2 C13_2 1_555 1_555
C14_3 C3_3 1_555 1_555
C15_2 N2_2 1_555 1_555
O13_2 Gd7_2 1_555 1_555
C7_3 C8_3 1_555 1_555
C7_3 C9_3 1_555 1_555
C11_3 C14_3 1_555 1_555
Gd3 O18_4 1_555 1_555
O18_4 C23_4 1_555 1_555
O21 C23_4 1_555 1_555
C21_4 H20_4 1_555 1_555
C23_4 C26_4 1_555 1_555
C25_4 H22_4 1_555 1_555
C26_4 C25_4 1_555 1_555
O28_4 N6_4 1_555 1_555
C27_4 C21_4 1_555 1_555
C28_4 O24_2 1_555 1_555
C29_4 C26_4 1_555 1_555
H23_4 C29_4 1_555 1_555
O29_4 N6_4 1_555 1_555
N6_4 C31_4 1_555 1_555
C31_4 C21_4 1_555 1_555
C25_4 C27_4 1_555 1_555
C27_4 C28_4 1_555 1_555
C29_4 C31_4 1_555 1_555
O6_4 C5_4 1_555 1_555
O7_4 C10_4 1_555 1_555
C3_4 H2_4 1_555 1_555
C5_4 O19_2 1_555 1_555
C7_4 H4_4 1_555 1_555
C8_4 C5_4 1_555 1_555
O10_4 N3_4 1_555 1_555
C9_4 C3_4 1_555 1_555
C10_4 C9_4 1_555 1_555
C11_4 C8_4 1_555 1_555
H5_4 C11_4 1_555 1_555
O11_4 N3_4 1_555 1_555
N3_4 C14_4 1_555 1_555
C14_4 C3_4 1_555 1_555
O6_4 Gd6 1_555 1_555
C7_4 C8_4 1_555 1_555
C7_4 C9_4 1_555 1_555
C11_4 C14_4 1_555 1_555
Gd4 O2_3 1_555 1_555
O2_3 C15_3 1_555 1_555
N2_3 C13_3 1_555 1_555
C13_3 H6_3 1_555 1_555
H7_3 C13_3 1_555 1_555
H8_3 C13_3 1_555 1_555
C15_3 N2_3 1_555 1_555
H9_3 C15_3 1_555 1_555
C17_3 N2_3 1_555 1_555
H11_3 C17_3 1_555 1_555
H12_3 C17_3 1_555 1_555
H13_3 C17_3 1_555 1_555
O13_2 C4_3 1_555 1_555
C1_3 C2_4 1_555 1_555
C2_4 H1_4 1_555 1_555
C4_3 O4_3 1_555 1_555
C6_3 C1_3 1_555 1_555
H3_3 C6_3 1_555 1_555
N1_4 O9_3 1_555 1_555
C12_4 C6_3 1_555 1_555
N4_3 C16_3 1_555 1_555
C16_3 O3_3 1_555 1_555
H10_3 C16_3 1_555 1_555
O14_2 C22_3 1_555 1_555
O15_3 Gd6 1_555 1_555
O16_3 Gd6 1_555 1_555
O17_3 Gd6 1_555 1_555
C20_3 C2_4 1_555 1_555
C22_3 O17_3 1_555 1_555
C24_3 C12_4 1_555 1_555
H21_3 C24_3 1_555 1_555
O27_3 N1_4 1_555 1_555
N5_3 C30_3 1_555 1_555
C30_3 H24_3 1_555 1_555
H25_3 C30_3 1_555 1_555
H26_3 C30_3 1_555 1_555
N7_3 C33_3 1_555 1_555
C32_3 O15_3 1_555 1_555
H27_3 C32_3 1_555 1_555
C33_3 O16_3 1_555 1_555
H28_3 C33_3 1_555 1_555
C34_3 N5_3 1_555 1_555
H29_3 C34_3 1_555 1_555
H30_3 C34_3 1_555 1_555
H31_3 C34_3 1_555 1_555
C1_3 C4_3 1_555 1_555
N1_4 C12_4 1_555 1_555
C20_3 C22_3 1_555 1_555
C20_3 C24_3 1_555 1_555
N5_3 C32_3 1_555 1_555
Gd3 O2_4 1_555 1_555
O2_4 C15_4 1_555 1_555
N2_4 C13_4 1_555 1_555
C13_4 H6_4 1_555 1_555
H7_4 C13_4 1_555 1_555
H8_4 C13_4 1_555 1_555
C15_4 N2_4 1_555 1_555
O13 C4_4 1_555 1_555
C1_4 C2_5 1_555 1_555
C2_5 H1_5 1_555 1_555
C4_4 O4_4 1_555 1_555
C6_4 C1_4 1_555 1_555
H3_4 C6_4 1_555 1_555
C12_5 C6_4 1_555 1_555
N4_4 C16_4 1_555 1_555
C16_4 O3_4 1_555 1_555
H10_4 C16_4 1_555 1_555
C18_2 N4_4 1_555 1_555
H14_2 C18_2 1_555 1_555
H16_2 C18_2 1_555 1_555
C19_2 N4_4 1_555 1_555
H17_4 C19_2 1_555 1_555
H19_2 C19_2 1_555 1_555
C1_4 C4_4 1_555 1_555
H11_4 C17_4 1_555 1_555
H12_4 C17_4 1_555 1_555
N1_5 O9_4 1_555 1_555
C2_6 H1_6 1_555 1_555
O14 C22_4 1_555 1_555
O15_4 Gd5 1_555 1_555
O16_4 Gd5 1_555 1_555
O17_4 Gd5 1_555 1_555
C20_4 C2_6 1_555 1_555
C22_4 O17_4 1_555 1_555
C24_4 C12_6 1_555 1_555
H21_4 C24_4 1_555 1_555
N5_4 C30_4 1_555 1_555
C30_4 H24_4 1_555 1_555
H25_4 C30_4 1_555 1_555
H26_4 C30_4 1_555 1_555
N7_4 C33_4 1_555 1_555
C32_4 O15_4 1_555 1_555
C33_4 O16_4 1_555 1_555
H28_4 C33_4 1_555 1_555
C35_3 N7_4 1_555 1_555
H32_3 C35_3 1_555 1_555
H33_3 C35_3 1_555 1_555
H34_3 C35_3 1_555 1_555
C36_3 N7_4 1_555 1_555
H35_4 C36_3 1_555 1_555
H36_3 C36_3 1_555 1_555
H37_3 C36_3 1_555 1_555
C20_4 C22_4 1_555 1_555
C20_4 C24_4 1_555 1_555
N5_4 C32_4 1_555 1_555
O27_4 N1_6 1_555 1_555
H29_4 C34_4 1_555 1_555
H30_4 C34_4 1_555 1_555
H14_3 C18_3 1_555 1_555
H16_3 C18_3 1_555 1_555
H19_3 C19_3 1_555 1_555
H14_4 C18_4 1_555 1_555
H16_4 C18_4 1_555 1_555
H19_4 C19_4 1_555 1_555
H32_4 C35_4 1_555 1_555
H33_4 C35_4 1_555 1_555
H34_4 C35_4 1_555 1_555
H36_4 C36_4 1_555 1_555
H37_4 C36_4 1_555 1_555

#END
