
###############################################################################
#
# This file contains modified crystal structure data generated from the
# MOF subset of the Cambridge Structural Database (CSD) v543 
# hosted by the Cambridge Crystallographic Data Centre (CCDC).
#
# This work is licensed under the Creative Commons
# Attribution-NonCommercial-ShareAlike 4.0 International License.
# To view a copy of this license, visit
# http://creativecommons.org/licenses/by-nc-sa/4.0/
# or send a letter to
# Creative Commons, PO Box 1866, Mountain View, CA 94042, USA.
#
# CIF created using the CSD Python API on 29 September 2022
# The structure has been converted into the P1 space group
# The structure has a 3D framework
# The original CSD entry CEFDAU is in the monoclinic crystal system
# The framework has been calculated to contain at least 10.0% void space
# The void calculation uses a probe of radius 1.32A, grid spacing 0.4
# The framework is charged, counterions have been retained in the structure
#
###############################################################################

data_CEFDAU
_chemical_formula_moiety         '(C32 H56 N8 O32 Zn2 4+)n'
_symmetry_cell_setting           triclinic
_symmetry_space_group_name_H-M   'P 1'
_symmetry_Int_Tables_number      1
_space_group_name_Hall           'P 1'
loop_
_symmetry_equiv_pos_site_id
_symmetry_equiv_pos_as_xyz
1 x,y,z
_cell_length_a                   14.1153(12)
_cell_length_b                   8.8505(8)
_cell_length_c                   13.5704(11)
_cell_angle_alpha                90
_cell_angle_beta                 111.761(2)
_cell_angle_gamma                90
_cell_volume                     1574.5
loop_
_atom_site_label
_atom_site_type_symbol
_atom_site_fract_x
_atom_site_fract_y
_atom_site_fract_z
Zn4 Zn 0.0000 0.00029(6) 0.7500
O7 O 0.1857(2) 0.0465(4) 0.4122(2)
O8 O 0.1520(3) 0.0343(4) 0.6352(3)
Zn1 Zn 0.5000 0.50029(6) 0.7500
O1 O 0.41853(19) 0.6486(3) 0.6404(2)
O2 O 0.3143(2) 0.4535(4) 0.5878(2)
O3 O 0.3480(3) 0.4657(4) 0.3648(3)
O4 O 0.44049(18) 0.6425(3) 0.32532(19)
C1 C 0.3369(3) 0.5846(4) 0.5744(3)
C2 C 0.3742(3) 0.5970(5) 0.3645(3)
C3 C 0.2700(3) 0.6794(4) 0.4801(3)
H1 H 0.2111 0.6180 0.4378
C4 C 0.3286(3) 0.7247(4) 0.4090(3)
H2 H 0.2827 0.7823 0.3496
H3 H 0.3836 0.7918 0.4494
Zn2 Zn 0.5000 0.49971(6) 0.2500
Zn3 Zn -0.0000 0.99971(6) 0.2500
O5 O 0.08147(19) 0.8514(3) 0.3596(2)
O6 O 0.58147(19) 0.6486(3) 0.8596(2)
O9 O 0.05951(18) 0.8575(3) 0.67468(19)
O10 O 0.55951(18) 0.3575(3) 0.67468(19)
O11 O 0.44049(18) 0.3575(3) 0.82532(19)
C5 C 0.1631(3) 0.9154(4) 0.4256(3)
C6 C 0.1258(3) 0.9030(5) 0.6355(3)
C7 C 0.2300(3) 0.8206(4) 0.5199(3)
H4 H 0.2889 0.8820 0.5622
C8 C 0.1714(3) 0.7753(4) 0.5910(3)
H5 H 0.2173 0.7177 0.6504
H6 H 0.1164 0.7082 0.5506
Zn4_2 Zn 1.0000 0.00029(6) 0.7500
Zn3_2 Zn 1.0000 0.99971(6) 0.2500
O7_2 O 0.8143(2) 0.0465(4) 0.0878(2)
O8_2 O 0.8480(3) 0.0343(4) 0.8648(3)
O3_2 O 0.6520(3) 0.4657(4) 0.1352(3)
O4_2 O 0.55951(18) 0.6425(3) 0.17468(19)
C2_2 C 0.6258(3) 0.5970(5) 0.1355(3)
C3_2 C 0.7300(3) 0.6794(4) 0.0199(3)
H1_2 H 0.7889 0.6180 0.0622
C4_2 C 0.6714(3) 0.7247(4) 0.0910(3)
H2_2 H 0.7173 0.7823 0.1504
H3_2 H 0.6164 0.7918 0.0506
O5_2 O 0.91853(19) 0.8514(3) 0.1404(2)
C5_2 C 0.8369(3) 0.9154(4) 0.0744(3)
O2_2 O 0.6857(2) 0.4535(4) 0.9122(2)
C1_2 C 0.6631(3) 0.5846(4) 0.9256(3)
O9_2 O 0.94049(18) 0.8575(3) 0.82532(19)
C6_2 C 0.8742(3) 0.9030(5) 0.8645(3)
C7_2 C 0.7700(3) 0.8206(4) 0.9801(3)
H4_2 H 0.7111 0.8820 0.9378
C8_2 C 0.8286(3) 0.7753(4) 0.9090(3)
H5_2 H 0.7827 0.7177 0.8496
H6_2 H 0.8836 0.7082 0.9494
O6_2 O 0.08147(19) 0.1486(3) 0.8596(2)
O1_2 O 0.91853(19) 0.1486(3) 0.6404(2)
O4_3 O 0.94049(18) 0.1425(3) 0.32532(19)
C1_3 C 0.8369(3) 0.0846(4) 0.5744(3)
C2_3 C 0.8742(3) 0.0970(5) 0.3645(3)
C3_3 C 0.7700(3) 0.1794(4) 0.4801(3)
H1_3 H 0.7111 0.1180 0.4378
C4_3 C 0.8286(3) 0.2247(4) 0.4090(3)
H2_3 H 0.7827 0.2823 0.3496
H3_3 H 0.8836 0.2918 0.4494
O5_3 O 0.58147(19) 0.3514(3) 0.3596(2)
O7_3 O 0.6857(2) 0.5465(4) 0.4122(2)
O8_3 O 0.6520(3) 0.5343(4) 0.6352(3)
C5_3 C 0.6631(3) 0.4154(4) 0.4256(3)
C6_3 C 0.6258(3) 0.4030(5) 0.6355(3)
C7_3 C 0.7300(3) 0.3206(4) 0.5199(3)
H4_3 H 0.7889 0.3820 0.5622
C8_3 C 0.6714(3) 0.2753(4) 0.5910(3)
H5_3 H 0.7173 0.2177 0.6504
H6_3 H 0.6164 0.2082 0.5506
O2_3 O 0.8143(2) 0.9535(4) 0.5878(2)
O3_3 O 0.8480(3) 0.9657(4) 0.3648(3)
O4_4 O 0.05951(18) 0.1425(3) 0.17468(19)
C2_4 C 0.1258(3) 0.0970(5) 0.1355(3)
C3_4 C 0.2300(3) 0.1794(4) 0.0199(3)
H1_4 H 0.2889 0.1180 0.0622
C4_4 C 0.1714(3) 0.2247(4) 0.0910(3)
H2_4 H 0.2173 0.2823 0.1504
H3_4 H 0.1164 0.2918 0.0506
O5_4 O 0.41853(19) 0.3514(3) 0.1404(2)
O7_4 O 0.3143(2) 0.5465(4) 0.0878(2)
C5_4 C 0.3369(3) 0.4154(4) 0.0744(3)
C1_4 C 0.1631(3) 0.0846(4) 0.9256(3)
O8_4 O 0.3480(3) 0.5343(4) 0.8648(3)
C6_4 C 0.3742(3) 0.4030(5) 0.8645(3)
C7_4 C 0.2700(3) 0.3206(4) 0.9801(3)
H4_4 H 0.2111 0.3820 0.9378
C8_4 C 0.3286(3) 0.2753(4) 0.9090(3)
H5_4 H 0.2827 0.2177 0.8496
H6_4 H 0.3836 0.2082 0.9494
O3_4 O 0.1520(3) 0.9657(4) 0.1352(3)
O2_4 O 0.1857(2) 0.9535(4) 0.9122(2)
N1 N 0.6212(3) 0.8163(4) 0.5030(3)
H7 H 0.5861 0.8480 0.5427
H8 H 0.6836 0.8588 0.5287
H9 H 0.5884 0.8440 0.4350
H10 H 0.6269 0.7150 0.5062
H9_2 H 0.4116 0.8440 0.0650
N1_2 N 0.3788(3) 0.8163(4) 0.9970(3)
H7_2 H 0.4139 0.8480 0.9573
H8_2 H 0.3164 0.8588 0.9713
H10_2 H 0.3731 0.7150 0.9938
N1_3 N 0.1212(3) 0.3163(4) 0.5030(3)
H7_3 H 0.0861 0.3480 0.5427
H8_3 H 0.1836 0.3588 0.5287
H9_3 H 0.0884 0.3440 0.4350
H10_3 H 0.1269 0.2150 0.5062
H9_4 H 0.9116 0.3440 0.0650
N1_4 N 0.8788(3) 0.3163(4) 0.9970(3)
H7_4 H 0.9139 0.3480 0.9573
H8_4 H 0.8164 0.3588 0.9713
H10_4 H 0.8731 0.2150 0.9938
N1_5 N 0.3788(3) 0.1837(4) 0.4970(3)
H7_5 H 0.4139 0.1520 0.4573
H8_5 H 0.3164 0.1412 0.4713
H9_5 H 0.4116 0.1560 0.5650
H10_5 H 0.3731 0.2850 0.4938
N1_6 N 0.6212(3) 0.1837(4) 0.0030(3)
H7_6 H 0.5861 0.1520 0.0427
H8_6 H 0.6836 0.1412 0.0287
H10_6 H 0.6269 0.2850 0.0062
H9_6 H 0.5884 0.1560 0.9350
N1_7 N 0.8788(3) 0.6837(4) 0.4970(3)
H7_7 H 0.9139 0.6520 0.4573
H8_7 H 0.8164 0.6412 0.4713
H9_7 H 0.9116 0.6560 0.5650
H10_7 H 0.8731 0.7850 0.4938
N1_8 N 0.1212(3) 0.6837(4) 0.0030(3)
H7_8 H 0.0861 0.6520 0.0427
H8_8 H 0.1836 0.6412 0.0287
H10_8 H 0.1269 0.7850 0.0062
H9_8 H 0.0884 0.6560 0.9350
loop_
_geom_bond_atom_site_label_1
_geom_bond_atom_site_label_2
_geom_bond_site_symmetry_1
_geom_bond_site_symmetry_2
Zn1 O1 1_555 1_555
O1 C1 1_555 1_555
O2 C1 1_555 1_555
O3 C2 1_555 1_555
O4 C2 1_555 1_555
C1 C3 1_555 1_555
C2 C4 1_555 1_555
C3 H1 1_555 1_555
C4 C3 1_555 1_555
H2 C4 1_555 1_555
H3 C4 1_555 1_555
Zn2 O4 1_555 1_555
Zn3 O5 1_555 1_555
O5 C5 1_555 1_555
O6 Zn1 1_555 1_555
O9 C6 1_555 1_555
O10 Zn1 1_555 1_555
O11 Zn1 1_555 1_555
C5 C7 1_555 1_555
C6 C8 1_555 1_555
C7 C3 1_555 1_555
H4 C7 1_555 1_555
C8 C7 1_555 1_555
H5 C8 1_555 1_555
H6 C8 1_555 1_555
O3_2 C2_2 1_555 1_555
O4_2 C2_2 1_555 1_555
C2_2 C4_2 1_555 1_555
C3_2 H1_2 1_555 1_555
C4_2 C3_2 1_555 1_555
H2_2 C4_2 1_555 1_555
H3_2 C4_2 1_555 1_555
Zn2 O4_2 1_555 1_555
Zn3_2 O5_2 1_555 1_555
O5_2 C5_2 1_555 1_555
O6 C1_2 1_555 1_555
O2_2 C1_2 1_555 1_555
O9_2 C6_2 1_555 1_555
C6_2 C8_2 1_555 1_555
H4_2 C7_2 1_555 1_555
C8_2 C7_2 1_555 1_555
H5_2 C8_2 1_555 1_555
H6_2 C8_2 1_555 1_555
O6_2 Zn4 1_555 1_555
Zn4_2 O1_2 1_555 1_555
O1_2 C1_3 1_555 1_555
O4_3 C2_3 1_555 1_555
C1_3 C3_3 1_555 1_555
C2_3 C4_3 1_555 1_555
C3_3 H1_3 1_555 1_555
C4_3 C3_3 1_555 1_555
H2_3 C4_3 1_555 1_555
H3_3 C4_3 1_555 1_555
Zn2 O5_3 1_555 1_555
O5_3 C5_3 1_555 1_555
O7_3 C5_3 1_555 1_555
O8_3 C6_3 1_555 1_555
O10 C6_3 1_555 1_555
C5_3 C7_3 1_555 1_555
C6_3 C8_3 1_555 1_555
C7_3 C3_3 1_555 1_555
H4_3 C7_3 1_555 1_555
C8_3 C7_3 1_555 1_555
H5_3 C8_3 1_555 1_555
H6_3 C8_3 1_555 1_555
O4_4 C2_4 1_555 1_555
C2_4 C4_4 1_555 1_555
C3_4 H1_4 1_555 1_555
C4_4 C3_4 1_555 1_555
H2_4 C4_4 1_555 1_555
H3_4 C4_4 1_555 1_555
Zn2 O5_4 1_555 1_555
O5_4 C5_4 1_555 1_555
O7_4 C5_4 1_555 1_555
O6_2 C1_4 1_555 1_555
O8_4 C6_4 1_555 1_555
O11 C6_4 1_555 1_555
C6_4 C8_4 1_555 1_555
H4_4 C7_4 1_555 1_555
C8_4 C7_4 1_555 1_555
H5_4 C8_4 1_555 1_555
H6_4 C8_4 1_555 1_555
N1 H7 1_555 1_555
H8 N1 1_555 1_555
H9 N1 1_555 1_555
H10 N1 1_555 1_555
N1_2 H7_2 1_555 1_555
H8_2 N1_2 1_555 1_555
H10_2 N1_2 1_555 1_555
N1_3 H7_3 1_555 1_555
H8_3 N1_3 1_555 1_555
H9_3 N1_3 1_555 1_555
H10_3 N1_3 1_555 1_555
N1_4 H7_4 1_555 1_555
H8_4 N1_4 1_555 1_555
H10_4 N1_4 1_555 1_555
N1_5 H7_5 1_555 1_555
H8_5 N1_5 1_555 1_555
H9_5 N1_5 1_555 1_555
H10_5 N1_5 1_555 1_555
N1_6 H7_6 1_555 1_555
H8_6 N1_6 1_555 1_555
H10_6 N1_6 1_555 1_555
N1_7 H7_7 1_555 1_555
H8_7 N1_7 1_555 1_555
H9_7 N1_7 1_555 1_555
H10_7 N1_7 1_555 1_555
N1_8 H7_8 1_555 1_555
H8_8 N1_8 1_555 1_555
H10_8 N1_8 1_555 1_555

#END
