
###############################################################################
#
# This file contains modified crystal structure data generated from the
# MOF subset of the Cambridge Structural Database (CSD) v543 
# hosted by the Cambridge Crystallographic Data Centre (CCDC).
#
# This work is licensed under the Creative Commons
# Attribution-NonCommercial-ShareAlike 4.0 International License.
# To view a copy of this license, visit
# http://creativecommons.org/licenses/by-nc-sa/4.0/
# or send a letter to
# Creative Commons, PO Box 1866, Mountain View, CA 94042, USA.
#
# CIF created using the CSD Python API on 29 September 2022
# The structure has been converted into the P1 space group
# The structure has a 3D framework
# The original CSD entry CEFLEF is in the hexagonal crystal system
# The framework has been calculated to contain at least 10.0% void space
# The void calculation uses a probe of radius 1.32A, grid spacing 0.4
# H atom positions have been added when not included in the experimental data
# Generated hydrogen atom positions removed from atoms on special positions
#
###############################################################################

data_CEFLEF
_chemical_formula_moiety         '(C84 H132 Dy4 Mn15 N12 O66)n'
_symmetry_cell_setting           triclinic
_symmetry_space_group_name_H-M   'P 1'
_symmetry_Int_Tables_number      1
_space_group_name_Hall           'P 1'
loop_
_symmetry_equiv_pos_site_id
_symmetry_equiv_pos_as_xyz
1 x,y,z
_cell_length_a                   15.277(5)
_cell_length_b                   15.277(5)
_cell_length_c                   15.776(10)
_cell_angle_alpha                90
_cell_angle_beta                 90
_cell_angle_gamma                120
_cell_volume                     3188.63
loop_
_atom_site_label
_atom_site_type_symbol
_atom_site_fract_x
_atom_site_fract_y
_atom_site_fract_z
Mn4 Mn -0.0000 0.5000 0.5000
Mn5 Mn -0.0000 0.5000 0.0000
O28 O 0.064320(6) 0.614054(4) 0.593746(4)
O29 O 0.064320(6) 0.614054(4) 0.406254(4)
O30 O 0.064320(6) 0.450266(4) 0.093746(4)
O75 O 0.144135(7) 0.491150(5) 0.5000
O77 O 0.144135(7) 0.652985(5) 0.0000
Mn5_2 Mn -0.0000 0.5000 1.0000
O31 O 0.064320(6) 0.450266(4) 0.906254(4)
O77_2 O 0.144135(7) 0.652985(5) 1.0000
Mn9 Mn 0.5000 -0.0000 0.5000
Mn10 Mn 0.5000 0.5000 -0.0000
Dy1 Dy 0.6667 0.3333 0.2500
N1 N 0.480032(6) 0.240016(3) 0.2500
O1 O 0.450266(4) 0.385946(4) 0.093746(4)
O2 O 0.586491(3) 0.387880(3) 0.145477(3)
O3 O 0.652985(5) 0.508850(5) 0.0000
C1 C 0.494227(5) 0.356680(5) 0.141026(5)
C2 C 0.428228(5) 0.266879(5) 0.197231(5)
C3 C 0.323297(6) 0.214826(6) 0.194240(6)
H1 H 0.2892 0.2330 0.1556
C4 C 0.270435(9) 0.135218(5) 0.2500
H2 H 0.2001 0.1001 0.2500
Dy4 Dy 0.3333 0.6667 0.2500
Dy5 Dy 0.6667 0.3333 0.7500
Mn3 Mn 0.5000 0.0000 0.0000
Mn4_2 Mn 1.0000 0.5000 0.5000
Mn5_3 Mn 1.0000 0.5000 0.0000
Mn6 Mn 0.5000 0.5000 0.5000
Mn9_2 Mn 0.5000 1.0000 0.5000
Mn10_2 Mn 0.5000 0.5000 1.0000
N2 N 0.759984(3) 0.240016(7) 0.2500
N3 N 0.759984(7) 0.519968(6) 0.2500
N6 N 0.519968(6) 0.759984(3) 0.2500
N7 N 0.480032(6) 0.240016(3) 0.7500
N16 N 0.240016(3) 0.759984(7) 0.2500
N17 N 0.240016(7) 0.480032(6) 0.2500
O4 O 0.450266(4) 0.064320(6) 0.406254(4)
O5 O 0.614054(4) 0.064320(6) 0.093746(4)
O6 O 0.935680(6) 0.385946(4) 0.406254(4)
O7 O 0.935680(6) 0.549734(4) 0.093746(4)
O8 O 0.614054(4) 0.549734(4) 0.406254(4)
O13 O 0.549734(4) 0.614054(4) 0.093746(4)
O14 O 0.549734(4) 0.935680(6) 0.406254(4)
O15 O 0.450266(4) 0.064320(6) 0.593746(4)
O16 O 0.450266(4) 0.385946(4) 0.906254(4)
O27 O 0.935680(6) 0.385946(4) 0.593746(4)
O33 O 0.385946(4) 0.450266(4) 0.406254(4)
O34 O 0.385946(4) 0.450266(4) 0.593746(4)
O35 O 0.614054(4) 0.549734(4) 0.593746(4)
O36 O 0.586491(3) 0.198611(4) 0.354523(3)
O37 O 0.612120(3) 0.198611(4) 0.145477(3)
O38 O 0.801389(4) 0.387880(3) 0.354523(3)
O39 O 0.801389(4) 0.413509(3) 0.145477(3)
O40 O 0.612120(3) 0.413509(3) 0.354523(3)
O45 O 0.413509(3) 0.612120(3) 0.145477(3)
O46 O 0.413509(3) 0.801389(4) 0.354523(3)
O47 O 0.586491(3) 0.198611(4) 0.645477(3)
O48 O 0.586491(3) 0.387880(3) 0.854523(3)
O65 O 0.387880(3) 0.801389(4) 0.145477(3)
O66 O 0.198611(4) 0.586491(3) 0.145477(3)
O67 O 0.387880(3) 0.586491(3) 0.354523(3)
O68 O 0.198611(4) 0.612120(3) 0.354523(3)
O69 O 0.347015(5) 0.491150(5) 0.0000
O70 O 0.652985(5) 0.144135(7) 0.5000
O72 O 0.491150(5) 0.144135(7) 0.0000
O74 O 0.855865(7) 0.508850(5) 0.5000
O76 O 0.855865(7) 0.347015(5) 0.0000
O78 O 0.491150(5) 0.347015(5) 0.5000
O79 O 0.508850(5) 0.652985(5) 0.5000
C5 C 0.494227(5) 0.137547(7) 0.358974(5)
C6 C 0.643320(5) 0.137547(7) 0.141026(5)
C7 C 0.862453(7) 0.356680(5) 0.358974(5)
C8 C 0.862453(7) 0.505773(5) 0.141026(5)
C9 C 0.643320(5) 0.505773(5) 0.358974(5)
C14 C 0.505773(5) 0.643320(5) 0.141026(5)
C15 C 0.505773(5) 0.862453(7) 0.358974(5)
C16 C 0.494227(5) 0.137547(7) 0.641026(5)
C17 C 0.494227(5) 0.356680(5) 0.858974(5)
C28 C 0.428228(5) 0.161349(7) 0.302769(5)
C29 C 0.733121(5) 0.161349(7) 0.197231(5)
C30 C 0.838651(7) 0.266879(5) 0.302769(5)
C31 C 0.838651(7) 0.571772(5) 0.197231(5)
C32 C 0.733121(5) 0.571772(5) 0.302769(5)
C37 C 0.571772(5) 0.733121(5) 0.197231(5)
C38 C 0.571772(5) 0.838651(7) 0.302769(5)
C39 C 0.428228(5) 0.161349(7) 0.697231(5)
C40 C 0.428228(5) 0.266879(5) 0.802769(5)
C51 C 0.323297(6) 0.108471(8) 0.305760(6)
C52 C 0.785174(6) 0.108471(8) 0.194240(6)
C53 C 0.891529(8) 0.214826(6) 0.305760(6)
C54 C 0.891529(8) 0.676703(6) 0.194240(6)
C55 C 0.785174(6) 0.676703(6) 0.305760(6)
C60 C 0.676703(6) 0.785174(6) 0.194240(6)
C61 C 0.676703(6) 0.891529(8) 0.305760(6)
C62 C 0.323297(6) 0.108471(8) 0.694240(6)
C63 C 0.323297(6) 0.214826(6) 0.805760(6)
H3 H 0.2892 0.0562 0.3444
H4 H 0.7670 0.0562 0.1556
H5 H 0.9438 0.2330 0.3444
H6 H 0.9438 0.7108 0.1556
H7 H 0.7670 0.7108 0.3444
H12 H 0.7108 0.7670 0.1556
H13 H 0.7108 0.9438 0.3444
H14 H 0.2892 0.0562 0.6556
H15 H 0.2892 0.2330 0.8444
C74 C 0.864782(5) 0.135217(10) 0.2500
C75 C 0.864783(10) 0.729565(9) 0.2500
C78 C 0.729565(9) 0.864782(5) 0.2500
C79 C 0.270435(9) 0.135217(10) 0.7500
H26 H 0.8999 0.1000 0.2500
H27 H 0.9000 0.7999 0.2500
H30 H 0.7999 0.8999 0.2500
H31 H 0.2001 0.1000 0.7500
O3_2 O 0.652985(5) 0.508850(5) 1.0000
Dy3 Dy 0.3333 0.6667 0.7500
Mn3_2 Mn 0.5000 -0.0000 1.0000
Mn5_4 Mn 1.0000 0.5000 1.0000
N5 N 0.519968(6) 0.759984(3) 0.7500
N10 N 0.759984(7) 0.240016(3) 0.7500
N13 N 0.759984(7) 0.519968(6) 0.7500
N14 N 0.240016(3) 0.480032(6) 0.7500
N15 N 0.240016(3) 0.759984(7) 0.7500
O11 O 0.549734(4) 0.614054(4) 0.906254(4)
O12 O 0.549734(4) 0.935680(6) 0.593746(4)
O21 O 0.614054(4) 0.064320(6) 0.906254(4)
O32 O 0.935680(6) 0.549734(4) 0.906254(4)
O43 O 0.413509(3) 0.612120(3) 0.854523(3)
O44 O 0.413509(3) 0.801389(4) 0.645477(3)
O53 O 0.612120(3) 0.198611(4) 0.854523(3)
O54 O 0.801389(4) 0.387880(3) 0.645477(3)
O59 O 0.801389(4) 0.413509(3) 0.854523(3)
O60 O 0.612120(3) 0.413509(3) 0.645477(3)
O61 O 0.387880(3) 0.586491(3) 0.645477(3)
O62 O 0.387880(3) 0.801389(4) 0.854523(3)
O63 O 0.198611(4) 0.586491(3) 0.854523(3)
O64 O 0.198611(4) 0.612120(3) 0.645477(3)
O69_2 O 0.347015(5) 0.491150(5) 1.0000
O72_2 O 0.491150(5) 0.144135(7) 1.0000
O76_2 O 0.855865(7) 0.347015(5) 1.0000
C12 C 0.505773(5) 0.643320(5) 0.858974(5)
C13 C 0.505773(5) 0.862453(7) 0.641026(5)
C22 C 0.643320(5) 0.137547(7) 0.858974(5)
C23 C 0.862453(7) 0.356680(5) 0.641026(5)
C35 C 0.571772(5) 0.733121(5) 0.802769(5)
C36 C 0.571772(5) 0.838651(7) 0.697231(5)
C45 C 0.733121(5) 0.161349(7) 0.802769(5)
C46 C 0.838651(7) 0.266879(5) 0.697231(5)
C58 C 0.676703(6) 0.785174(6) 0.805760(6)
C59 C 0.676703(6) 0.891529(8) 0.694240(6)
C68 C 0.785174(6) 0.108471(8) 0.805760(6)
C69 C 0.891529(8) 0.214826(6) 0.694240(6)
H10 H 0.7108 0.7670 0.8444
H11 H 0.7108 0.9438 0.6556
H20 H 0.7670 0.0562 0.8444
H21 H 0.9438 0.2330 0.6556
C77 C 0.729565(9) 0.864782(5) 0.7500
C82 C 0.864782(5) 0.135217(10) 0.7500
H29 H 0.7999 0.8999 0.7500
H34 H 0.8999 0.1000 0.7500
Mn3_3 Mn 0.5000 1.0000 0.0000
O25 O 0.385946(4) 0.935680(6) 0.093746(4)
O71 O 0.347015(5) 0.855865(7) 0.5000
O73 O 0.508850(5) 0.855865(7) 0.0000
C26 C 0.356680(5) 0.862453(7) 0.141026(5)
C27 C 0.137547(7) 0.643320(5) 0.358974(5)
C49 C 0.266879(5) 0.838651(7) 0.197231(5)
C50 C 0.161349(7) 0.733121(5) 0.302769(5)
C72 C 0.214826(6) 0.891529(8) 0.194240(6)
C73 C 0.108471(8) 0.785174(6) 0.305760(6)
H24 H 0.2330 0.9438 0.1556
H25 H 0.0562 0.7670 0.3444
C84 C 0.135218(5) 0.864783(10) 0.2500
H36 H 0.1001 0.9000 0.2500
Mn3_4 Mn 0.5000 1.0000 1.0000
O23 O 0.385946(4) 0.935680(6) 0.906254(4)
O73_2 O 0.508850(5) 0.855865(7) 1.0000
C24 C 0.356680(5) 0.862453(7) 0.858974(5)
C25 C 0.137547(7) 0.643320(5) 0.641026(5)
C47 C 0.266879(5) 0.838651(7) 0.802769(5)
C48 C 0.161349(7) 0.733121(5) 0.697231(5)
C70 C 0.214826(6) 0.891529(8) 0.805760(6)
C71 C 0.108471(8) 0.785174(6) 0.694240(6)
H22 H 0.2330 0.9438 0.8444
H23 H 0.0562 0.7670 0.6556
C83 C 0.135218(5) 0.864783(10) 0.7500
H35 H 0.1001 0.9000 0.7500
C26_2 C 0.137547(7) 0.494227(9) 0.141026(5)
C27_2 C 0.356680(5) 0.494227(9) 0.358974(5)
C49_2 C 0.161349(7) 0.428228(9) 0.197231(5)
C50_2 C 0.266879(5) 0.428228(9) 0.302769(5)
C72_2 C 0.108471(8) 0.323297(10) 0.194240(6)
C73_2 C 0.214826(6) 0.323297(10) 0.305760(6)
H24_2 H 0.0562 0.2892 0.1556
H25_2 H 0.2330 0.2892 0.3444
C84_2 C 0.135217(10) 0.270435(11) 0.2500
H36_2 H 0.1000 0.2001 0.2500
C24_2 C 0.137547(7) 0.494227(9) 0.858974(5)
C25_2 C 0.356680(5) 0.494227(9) 0.641026(5)
C47_2 C 0.161349(7) 0.428228(9) 0.802769(5)
C48_2 C 0.266879(5) 0.428228(9) 0.697231(5)
C70_2 C 0.108471(8) 0.323297(10) 0.805760(6)
C71_2 C 0.214826(6) 0.323297(10) 0.694240(6)
H22_2 H 0.0562 0.2892 0.8444
H23_2 H 0.2330 0.2892 0.6556
C83_2 C 0.135217(10) 0.270435(11) 0.7500
H35_2 H 0.1000 0.2001 0.7500
C22_2 C 0.862453(7) 0.505773(9) 0.858974(5)
C23_2 C 0.643320(5) 0.505773(9) 0.641026(5)
C45_2 C 0.838651(7) 0.571772(9) 0.802769(5)
C46_2 C 0.733121(5) 0.571772(9) 0.697231(5)
C68_2 C 0.891529(8) 0.676703(10) 0.805760(6)
C69_2 C 0.785174(6) 0.676703(10) 0.694240(6)
H20_2 H 0.9438 0.7108 0.8444
H21_2 H 0.7670 0.7108 0.6556
C82_2 C 0.864783(10) 0.729565(11) 0.7500
H34_2 H 0.9000 0.7999 0.7500
loop_
_geom_bond_atom_site_label_1
_geom_bond_atom_site_label_2
_geom_bond_site_symmetry_1
_geom_bond_site_symmetry_2
O28 Mn4 1_555 1_555
O29 Mn4 1_555 1_555
O30 Mn5 1_555 1_555
O75 Mn4 1_555 1_555
O77 Mn5 1_555 1_555
O31 Mn5_2 1_555 1_555
O77_2 Mn5_2 1_555 1_555
Dy1 N1 1_555 1_555
Mn10 O1 1_555 1_555
N1 C2 1_555 1_555
O1 C1 1_555 1_555
O2 Dy1 1_555 1_555
O3 Mn10 1_555 1_555
C1 O2 1_555 1_555
C2 C1 1_555 1_555
C3 C2 1_555 1_555
H1 C3 1_555 1_555
C4 C3 1_555 1_555
H2 C4 1_555 1_555
Dy4 N6 1_555 1_555
Dy5 N7 1_555 1_555
Mn9 O4 1_555 1_555
Mn3 O5 1_555 1_555
Mn4_2 O6 1_555 1_555
Mn5_3 O7 1_555 1_555
Mn6 O8 1_555 1_555
Mn9_2 O14 1_555 1_555
Mn10_2 O16 1_555 1_555
N2 Dy1 1_555 1_555
N3 Dy1 1_555 1_555
N6 C37 1_555 1_555
N7 C39 1_555 1_555
N16 Dy4 1_555 1_555
N17 Dy4 1_555 1_555
O4 C5 1_555 1_555
O5 C6 1_555 1_555
O6 C7 1_555 1_555
O7 C8 1_555 1_555
O8 C9 1_555 1_555
O13 Mn10 1_555 1_555
O14 C15 1_555 1_555
O15 Mn9 1_555 1_555
O16 C17 1_555 1_555
O27 Mn4_2 1_555 1_555
O33 Mn6 1_555 1_555
O34 Mn6 1_555 1_555
O35 Mn6 1_555 1_555
O36 Dy1 1_555 1_555
O37 Dy1 1_555 1_555
O38 Dy1 1_555 1_555
O39 Dy1 1_555 1_555
O40 Dy1 1_555 1_555
O45 Dy4 1_555 1_555
O46 Dy4 1_555 1_555
O47 Dy5 1_555 1_555
O48 Dy5 1_555 1_555
O65 Dy4 1_555 1_555
O66 Dy4 1_555 1_555
O67 Dy4 1_555 1_555
O68 Dy4 1_555 1_555
O69 Mn10 1_555 1_555
O70 Mn9 1_555 1_555
O72 Mn3 1_555 1_555
O74 Mn4_2 1_555 1_555
O76 Mn5_3 1_555 1_555
O78 Mn6 1_555 1_555
O79 Mn6 1_555 1_555
C5 O36 1_555 1_555
C6 O37 1_555 1_555
C7 O38 1_555 1_555
C8 O39 1_555 1_555
C9 O40 1_555 1_555
C14 O13 1_555 1_555
C15 O46 1_555 1_555
C16 O15 1_555 1_555
C17 O48 1_555 1_555
C28 N1 1_555 1_555
C29 N2 1_555 1_555
C30 N2 1_555 1_555
C31 N3 1_555 1_555
C32 N3 1_555 1_555
C37 C14 1_555 1_555
C38 N6 1_555 1_555
C39 C16 1_555 1_555
C40 N7 1_555 1_555
C51 C4 1_555 1_555
C52 C29 1_555 1_555
C53 C30 1_555 1_555
C54 C31 1_555 1_555
C55 C32 1_555 1_555
C60 C37 1_555 1_555
C61 C38 1_555 1_555
C62 C39 1_555 1_555
C63 C40 1_555 1_555
H3 C51 1_555 1_555
H4 C52 1_555 1_555
H5 C53 1_555 1_555
H6 C54 1_555 1_555
H7 C55 1_555 1_555
H12 C60 1_555 1_555
H13 C61 1_555 1_555
H14 C62 1_555 1_555
H15 C63 1_555 1_555
C74 C52 1_555 1_555
C75 C54 1_555 1_555
C78 C60 1_555 1_555
C79 C62 1_555 1_555
H26 C74 1_555 1_555
H27 C75 1_555 1_555
H30 C78 1_555 1_555
H31 C79 1_555 1_555
O45 C14 1_555 1_555
O47 C16 1_555 1_555
C5 C28 1_555 1_555
C6 C29 1_555 1_555
C7 C30 1_555 1_555
C8 C31 1_555 1_555
C9 C32 1_555 1_555
C15 C38 1_555 1_555
C17 C40 1_555 1_555
C28 C51 1_555 1_555
C53 C74 1_555 1_555
C55 C75 1_555 1_555
C61 C78 1_555 1_555
C63 C79 1_555 1_555
O3_2 Mn10_2 1_555 1_555
Dy3 N5 1_555 1_555
Mn9_2 O12 1_555 1_555
N5 C35 1_555 1_555
N10 Dy5 1_555 1_555
N13 Dy5 1_555 1_555
N14 Dy3 1_555 1_555
N15 Dy3 1_555 1_555
O11 Mn10_2 1_555 1_555
O12 C13 1_555 1_555
O21 Mn3_2 1_555 1_555
O27 C23 1_555 1_555
O32 Mn5_4 1_555 1_555
O43 Dy3 1_555 1_555
O44 Dy3 1_555 1_555
O53 Dy5 1_555 1_555
O54 Dy5 1_555 1_555
O59 Dy5 1_555 1_555
O60 Dy5 1_555 1_555
O61 Dy3 1_555 1_555
O62 Dy3 1_555 1_555
O63 Dy3 1_555 1_555
O64 Dy3 1_555 1_555
O69_2 Mn10_2 1_555 1_555
O72_2 Mn3_2 1_555 1_555
O76_2 Mn5_4 1_555 1_555
C12 O11 1_555 1_555
C13 O44 1_555 1_555
C22 O21 1_555 1_555
C23 O54 1_555 1_555
C35 C12 1_555 1_555
C36 N5 1_555 1_555
C45 N10 1_555 1_555
C46 N10 1_555 1_555
C58 C35 1_555 1_555
C59 C36 1_555 1_555
C68 C45 1_555 1_555
C69 C46 1_555 1_555
H10 C58 1_555 1_555
H11 C59 1_555 1_555
H20 C68 1_555 1_555
H21 C69 1_555 1_555
C77 C58 1_555 1_555
C82 C68 1_555 1_555
H29 C77 1_555 1_555
H34 C82 1_555 1_555
O43 C12 1_555 1_555
O53 C22 1_555 1_555
C13 C36 1_555 1_555
C22 C45 1_555 1_555
C23 C46 1_555 1_555
C59 C77 1_555 1_555
C69 C82 1_555 1_555
O25 Mn3_3 1_555 1_555
O29 C27 1_555 1_555
O71 Mn9_2 1_555 1_555
O73 Mn3_3 1_555 1_555
C26 O25 1_555 1_555
C27 O68 1_555 1_555
C49 N16 1_555 1_555
C50 N16 1_555 1_555
C72 C49 1_555 1_555
C73 C50 1_555 1_555
H24 C72 1_555 1_555
H25 C73 1_555 1_555
C84 C72 1_555 1_555
H36 C84 1_555 1_555
O65 C26 1_555 1_555
C26 C49 1_555 1_555
C27 C50 1_555 1_555
C73 C84 1_555 1_555
N15 C47 1_555 1_555
O23 Mn3_4 1_555 1_555
O28 C25 1_555 1_555
O73_2 Mn3_4 1_555 1_555
C24 O23 1_555 1_555
C25 O64 1_555 1_555
C47 C24 1_555 1_555
C48 N15 1_555 1_555
C70 C47 1_555 1_555
C71 C48 1_555 1_555
H22 C70 1_555 1_555
H23 C71 1_555 1_555
C83 C70 1_555 1_555
H35 C83 1_555 1_555
O62 C24 1_555 1_555
C25 C48 1_555 1_555
C71 C83 1_555 1_555
O33 C27_2 1_555 1_555
C26_2 O30 1_555 1_555
C27_2 O67 1_555 1_555
C49_2 N17 1_555 1_555
C50_2 N17 1_555 1_555
C72_2 C49_2 1_555 1_555
C73_2 C50_2 1_555 1_555
H24_2 C72_2 1_555 1_555
H25_2 C73_2 1_555 1_555
C84_2 C72_2 1_555 1_555
H36_2 C84_2 1_555 1_555
O66 C26_2 1_555 1_555
C26_2 C49_2 1_555 1_555
C27_2 C50_2 1_555 1_555
C73_2 C84_2 1_555 1_555
N14 C47_2 1_555 1_555
O34 C25_2 1_555 1_555
C24_2 O31 1_555 1_555
C25_2 O61 1_555 1_555
C47_2 C24_2 1_555 1_555
C48_2 N14 1_555 1_555
C70_2 C47_2 1_555 1_555
C71_2 C48_2 1_555 1_555
H22_2 C70_2 1_555 1_555
H23_2 C71_2 1_555 1_555
C83_2 C70_2 1_555 1_555
H35_2 C83_2 1_555 1_555
O63 C24_2 1_555 1_555
C25_2 C48_2 1_555 1_555
C71_2 C83_2 1_555 1_555
O35 C23_2 1_555 1_555
C22_2 O32 1_555 1_555
C23_2 O60 1_555 1_555
C45_2 N13 1_555 1_555
C46_2 N13 1_555 1_555
C68_2 C45_2 1_555 1_555
C69_2 C46_2 1_555 1_555
H20_2 C68_2 1_555 1_555
H21_2 C69_2 1_555 1_555
C82_2 C68_2 1_555 1_555
H34_2 C82_2 1_555 1_555
O59 C22_2 1_555 1_555
C22_2 C45_2 1_555 1_555
C23_2 C46_2 1_555 1_555
C69_2 C82_2 1_555 1_555

#END
