
###############################################################################
#
# This file contains modified crystal structure data generated from the
# MOF subset of the Cambridge Structural Database (CSD) v543 
# hosted by the Cambridge Crystallographic Data Centre (CCDC).
#
# This work is licensed under the Creative Commons
# Attribution-NonCommercial-ShareAlike 4.0 International License.
# To view a copy of this license, visit
# http://creativecommons.org/licenses/by-nc-sa/4.0/
# or send a letter to
# Creative Commons, PO Box 1866, Mountain View, CA 94042, USA.
#
# CIF created using the CSD Python API on 29 September 2022
# The structure has been converted into the P1 space group
# The structure has a 3D framework
# The original CSD entry CEFNEJ is in the cubic crystal system
# The framework has been calculated to contain at least 10.0% void space
# The void calculation uses a probe of radius 1.32A, grid spacing 0.4
# H atom positions have been added when not included in the experimental data
# Generated hydrogen atom positions removed from atoms on special positions
#
###############################################################################

data_CEFNEJ
_chemical_formula_moiety         '(C480 H480 Cu48 O144)n'
_symmetry_cell_setting           triclinic
_symmetry_space_group_name_H-M   'P 1'
_symmetry_Int_Tables_number      1
_space_group_name_Hall           'P 1'
loop_
_symmetry_equiv_pos_site_id
_symmetry_equiv_pos_as_xyz
1 x,y,z
_cell_length_a                   34.600(18)
_cell_length_b                   34.600(18)
_cell_length_c                   34.600(18)
_cell_angle_alpha                90
_cell_angle_beta                 90
_cell_angle_gamma                90
_cell_volume                     41421.7
loop_
_atom_site_label
_atom_site_type_symbol
_atom_site_fract_x
_atom_site_fract_y
_atom_site_fract_z
Cu1 Cu 0.288331(14) 0.5000 0.0000
O2 O 0.34953(15) 0.5000 0.0000
Cu2 Cu 0.5000 0.288331(14) 0.0000
O14 O 0.5000 0.34953(15) 0.0000
Cu3 Cu 0.211669(14) 0.5000 0.0000
O15 O 0.15047(15) 0.5000 0.0000
Cu9 Cu 0.5000 0.211669(14) 0.0000
O16 O 0.28272(5) 0.53991(4) 0.03986(4)
O17 O 0.46009(4) 0.28272(5) 0.03986(4)
O19 O 0.21728(5) 0.53986(4) 0.03991(4)
O20 O 0.28272(5) 0.46009(4) 0.03986(4)
O22 O 0.53991(4) 0.28272(5) 0.03986(4)
O24 O 0.21728(5) 0.46014(4) 0.03991(4)
Cu1_2 Cu 0.288331(14) 0.5000 1.0000
O1 O 0.28272(5) 0.46009(4) 0.96014(4)
O2_2 O 0.34953(15) 0.5000 1.0000
C1 C 0.2500 0.44873(5) 0.94873(5)
C2 C 0.2500 0.41803(5) 0.91803(5)
C3 C 0.2500 0.27867(5) 0.77867(5)
C4 C 0.2500 0.30781(6) 0.80781(6)
C5 C 0.2500 0.36127(6) 0.86127(6)
C6 C 0.28473(9) 0.40247(8) 0.90509(8)
H1 H 0.3081 0.4113 0.9150
C7 C 0.2500 0.33201(6) 0.83201(6)
C8 C 0.28420(9) 0.37371(10) 0.87741(9)
H2 H 0.3073 0.3625 0.8695
O3 O 0.21728(5) 0.46014(4) 0.96009(4)
C9 C 0.21527(9) 0.40509(8) 0.90247(8)
H3 H 0.1919 0.4150 0.9113
C10 C 0.21580(9) 0.37741(9) 0.87371(10)
H4 H 0.1927 0.3695 0.8625
O4 O 0.46009(4) 0.28272(5) 0.96014(4)
C11 C 0.44873(5) 0.2500 0.94873(5)
C12 C 0.41803(5) 0.2500 0.91803(5)
C13 C 0.27867(5) 0.2500 0.77867(5)
C14 C 0.30781(6) 0.2500 0.80781(6)
C15 C 0.36127(6) 0.2500 0.86127(6)
C16 C 0.40247(8) 0.28473(9) 0.90509(8)
H5 H 0.4113 0.3081 0.9150
C17 C 0.33201(6) 0.2500 0.83201(6)
C18 C 0.37371(10) 0.28420(9) 0.87741(9)
H6 H 0.3625 0.3073 0.8695
O5 O 0.03986(4) 0.46009(4) 0.71728(5)
C19 C 0.05127(5) 0.44873(5) 0.7500
C20 C 0.08197(5) 0.41803(5) 0.7500
C21 C 0.22133(5) 0.27867(5) 0.7500
C22 C 0.19219(6) 0.30781(6) 0.7500
C23 C 0.13873(6) 0.36127(6) 0.7500
C24 C 0.09491(8) 0.40247(8) 0.71527(9)
H7 H 0.0850 0.4113 0.6919
C25 C 0.16799(6) 0.33201(6) 0.7500
C26 C 0.12259(9) 0.37371(10) 0.71580(9)
H8 H 0.1305 0.3625 0.6927
O6 O 0.46014(4) 0.21728(5) 0.96009(4)
C27 C 0.40509(8) 0.21527(9) 0.90247(8)
H9 H 0.4150 0.1919 0.9113
C28 C 0.37741(9) 0.21580(9) 0.87371(10)
H10 H 0.3695 0.1927 0.8625
O7 O 0.03991(4) 0.46014(4) 0.78272(5)
C29 C 0.09753(8) 0.40509(8) 0.78473(9)
H11 H 0.0887 0.4150 0.8081
C30 C 0.12629(10) 0.37741(9) 0.78420(9)
H12 H 0.1375 0.3695 0.8073
O8 O 0.03986(4) 0.28272(5) 0.53991(4)
C31 C 0.05127(5) 0.2500 0.55127(5)
C32 C 0.08197(5) 0.2500 0.58197(5)
C33 C 0.22133(5) 0.2500 0.72133(5)
C34 C 0.19219(6) 0.2500 0.69219(6)
C35 C 0.13873(6) 0.2500 0.63873(6)
C36 C 0.09491(8) 0.28473(9) 0.59753(8)
H13 H 0.0850 0.3081 0.5887
C37 C 0.16799(6) 0.2500 0.66799(6)
C38 C 0.12259(9) 0.28420(9) 0.62629(10)
H14 H 0.1305 0.3073 0.6375
O9 O 0.46009(4) 0.03986(4) 0.71728(5)
C39 C 0.44873(5) 0.05127(5) 0.7500
C40 C 0.41803(5) 0.08197(5) 0.7500
C41 C 0.27867(5) 0.22133(5) 0.7500
C42 C 0.30781(6) 0.19219(6) 0.7500
C43 C 0.36127(6) 0.13873(6) 0.7500
C44 C 0.40247(8) 0.09491(8) 0.71527(9)
H15 H 0.4113 0.0850 0.6919
C45 C 0.33201(6) 0.16799(6) 0.7500
C46 C 0.37371(10) 0.12259(9) 0.71580(9)
H16 H 0.3625 0.1305 0.6927
O10 O 0.03991(4) 0.21728(5) 0.53986(4)
C47 C 0.09753(8) 0.21527(9) 0.59491(8)
H17 H 0.0887 0.1919 0.5850
C48 C 0.12629(10) 0.21580(9) 0.62259(9)
H18 H 0.1375 0.1927 0.6305
O11 O 0.46014(4) 0.03991(4) 0.78272(5)
C49 C 0.40509(8) 0.09753(8) 0.78473(9)
H19 H 0.4150 0.0887 0.8081
C50 C 0.37741(9) 0.12629(10) 0.78420(9)
H20 H 0.3695 0.1375 0.8073
O12 O 0.28272(5) 0.03986(4) 0.53991(4)
C51 C 0.2500 0.05127(5) 0.55127(5)
C52 C 0.2500 0.08197(5) 0.58197(5)
C53 C 0.2500 0.22133(5) 0.72133(5)
C54 C 0.2500 0.19219(6) 0.69219(6)
C55 C 0.2500 0.13873(6) 0.63873(6)
C56 C 0.28473(9) 0.09491(8) 0.59753(8)
H21 H 0.3081 0.0850 0.5887
C57 C 0.2500 0.16799(6) 0.66799(6)
C58 C 0.28420(9) 0.12259(9) 0.62629(10)
H22 H 0.3073 0.1305 0.6375
O13 O 0.21728(5) 0.03991(4) 0.53986(4)
C59 C 0.21527(9) 0.09753(8) 0.59491(8)
H23 H 0.1919 0.0887 0.5850
C60 C 0.21580(9) 0.12629(10) 0.62259(9)
H24 H 0.1927 0.1375 0.6305
Cu2_2 Cu 0.5000 0.288331(14) 1.0000
O14_2 O 0.5000 0.34953(15) 1.0000
Cu3_2 Cu 0.211669(14) 0.5000 1.0000
O15_2 O 0.15047(15) 0.5000 1.0000
Cu4 Cu -0.0000 0.288331(14) 0.5000
Cu5 Cu 0.5000 0.0000 0.711669(14)
Cu6 Cu 0.288331(14) 0.0000 0.5000
Cu7 Cu 0.0000 0.5000 0.711669(14)
Cu8 Cu 0.211669(14) 0.0000 0.5000
Cu9_2 Cu 0.5000 0.211669(14) 1.0000
Cu10 Cu -0.0000 0.5000 0.788331(14)
Cu11 Cu 0.0000 0.211669(14) 0.5000
Cu12 Cu 0.5000 -0.0000 0.788331(14)
O18 O 0.53991(4) 0.28272(5) 0.96014(4)
O21 O 0.28272(5) 0.53991(4) 0.96014(4)
O23 O 0.21728(5) 0.53986(4) 0.96009(4)
Cu5_2 Cu 0.5000 1.0000 0.711669(14)
Cu6_2 Cu 0.288331(14) 1.0000 0.5000
Cu8_2 Cu 0.211669(14) 1.0000 0.5000
Cu12_2 Cu 0.5000 1.0000 0.788331(14)
Cu4_2 Cu 1.0000 0.288331(14) 0.5000
Cu7_2 Cu 1.0000 0.5000 0.711669(14)
Cu10_2 Cu 1.0000 0.5000 0.788331(14)
Cu11_2 Cu 1.0000 0.211669(14) 0.5000
Cu4_3 Cu -0.0000 0.711669(14) 0.5000
Cu11_3 Cu -0.0000 0.788331(14) 0.5000
Cu6_3 Cu 0.711669(14) 0.0000 0.5000
Cu8_3 Cu 0.788331(14) 0.0000 0.5000
Cu1_3 Cu 0.711669(14) 0.5000 0.0000
O2_3 O 0.65047(15) 0.5000 0.0000
Cu2_3 Cu 0.5000 0.711669(14) 0.0000
O14_3 O 0.5000 0.65047(15) 0.0000
Cu3_3 Cu 0.788331(14) 0.5000 0.0000
O15_3 O 0.84953(15) 0.5000 0.0000
Cu9_3 Cu 0.5000 0.788331(14) 0.0000
O16_2 O 0.71728(5) 0.46009(4) 0.03986(4)
O17_2 O 0.53991(4) 0.71728(5) 0.03986(4)
O19_2 O 0.78272(5) 0.46014(4) 0.03991(4)
O20_2 O 0.71728(5) 0.53991(4) 0.03986(4)
O22_2 O 0.46009(4) 0.71728(5) 0.03986(4)
O24_2 O 0.78272(5) 0.53986(4) 0.03991(4)
Cu1_4 Cu 0.711669(14) 0.5000 1.0000
O1_2 O 0.71728(5) 0.53991(4) 0.96014(4)
O2_4 O 0.65047(15) 0.5000 1.0000
C1_2 C 0.7500 0.55127(5) 0.94873(5)
C2_2 C 0.7500 0.58197(5) 0.91803(5)
C3_2 C 0.7500 0.72133(5) 0.77867(5)
C4_2 C 0.7500 0.69219(6) 0.80781(6)
C5_2 C 0.7500 0.63873(6) 0.86127(6)
C6_2 C 0.71527(9) 0.59753(8) 0.90509(8)
H1_2 H 0.6919 0.5887 0.9150
C7_2 C 0.7500 0.66799(6) 0.83201(6)
C8_2 C 0.71580(9) 0.62629(10) 0.87741(9)
H2_2 H 0.6927 0.6375 0.8695
O3_2 O 0.78272(5) 0.53986(4) 0.96009(4)
C9_2 C 0.78473(9) 0.59491(8) 0.90247(8)
H3_2 H 0.8081 0.5850 0.9113
C10_2 C 0.78420(9) 0.62259(9) 0.87371(10)
H4_2 H 0.8073 0.6305 0.8625
O4_2 O 0.53991(4) 0.71728(5) 0.96014(4)
C11_2 C 0.55127(5) 0.7500 0.94873(5)
C12_2 C 0.58197(5) 0.7500 0.91803(5)
C13_2 C 0.72133(5) 0.7500 0.77867(5)
C14_2 C 0.69219(6) 0.7500 0.80781(6)
C15_2 C 0.63873(6) 0.7500 0.86127(6)
C16_2 C 0.59753(8) 0.71527(9) 0.90509(8)
H5_2 H 0.5887 0.6919 0.9150
C17_2 C 0.66799(6) 0.7500 0.83201(6)
C18_2 C 0.62629(10) 0.71580(9) 0.87741(9)
H6_2 H 0.6375 0.6927 0.8695
O5_2 O 0.96014(4) 0.53991(4) 0.71728(5)
C19_2 C 0.94873(5) 0.55127(5) 0.7500
C20_2 C 0.91803(5) 0.58197(5) 0.7500
C21_2 C 0.77867(5) 0.72133(5) 0.7500
C22_2 C 0.80781(6) 0.69219(6) 0.7500
C23_2 C 0.86127(6) 0.63873(6) 0.7500
C24_2 C 0.90509(8) 0.59753(8) 0.71527(9)
H7_2 H 0.9150 0.5887 0.6919
C25_2 C 0.83201(6) 0.66799(6) 0.7500
C26_2 C 0.87741(9) 0.62629(10) 0.71580(9)
H8_2 H 0.8695 0.6375 0.6927
O6_2 O 0.53986(4) 0.78272(5) 0.96009(4)
C27_2 C 0.59491(8) 0.78473(9) 0.90247(8)
H9_2 H 0.5850 0.8081 0.9113
C28_2 C 0.62259(9) 0.78420(9) 0.87371(10)
H10_2 H 0.6305 0.8073 0.8625
O7_2 O 0.96009(4) 0.53986(4) 0.78272(5)
C29_2 C 0.90247(8) 0.59491(8) 0.78473(9)
H11_2 H 0.9113 0.5850 0.8081
C30_2 C 0.87371(10) 0.62259(9) 0.78420(9)
H12_2 H 0.8625 0.6305 0.8073
O8_2 O 0.96014(4) 0.71728(5) 0.53991(4)
C31_2 C 0.94873(5) 0.7500 0.55127(5)
C32_2 C 0.91803(5) 0.7500 0.58197(5)
C33_2 C 0.77867(5) 0.7500 0.72133(5)
C34_2 C 0.80781(6) 0.7500 0.69219(6)
C35_2 C 0.86127(6) 0.7500 0.63873(6)
C36_2 C 0.90509(8) 0.71527(9) 0.59753(8)
H13_2 H 0.9150 0.6919 0.5887
C37_2 C 0.83201(6) 0.7500 0.66799(6)
C38_2 C 0.87741(9) 0.71580(9) 0.62629(10)
H14_2 H 0.8695 0.6927 0.6375
O9_2 O 0.53991(4) 0.96014(4) 0.71728(5)
C39_2 C 0.55127(5) 0.94873(5) 0.7500
C40_2 C 0.58197(5) 0.91803(5) 0.7500
C41_2 C 0.72133(5) 0.77867(5) 0.7500
C42_2 C 0.69219(6) 0.80781(6) 0.7500
C43_2 C 0.63873(6) 0.86127(6) 0.7500
C44_2 C 0.59753(8) 0.90509(8) 0.71527(9)
H15_2 H 0.5887 0.9150 0.6919
C45_2 C 0.66799(6) 0.83201(6) 0.7500
C46_2 C 0.62629(10) 0.87741(9) 0.71580(9)
H16_2 H 0.6375 0.8695 0.6927
O10_2 O 0.96009(4) 0.78272(5) 0.53986(4)
C47_2 C 0.90247(8) 0.78473(9) 0.59491(8)
H17_2 H 0.9113 0.8081 0.5850
C48_2 C 0.87371(10) 0.78420(9) 0.62259(9)
H18_2 H 0.8625 0.8073 0.6305
O11_2 O 0.53986(4) 0.96009(4) 0.78272(5)
C49_2 C 0.59491(8) 0.90247(8) 0.78473(9)
H19_2 H 0.5850 0.9113 0.8081
C50_2 C 0.62259(9) 0.87371(10) 0.78420(9)
H20_2 H 0.6305 0.8625 0.8073
O12_2 O 0.71728(5) 0.96014(4) 0.53991(4)
C51_2 C 0.7500 0.94873(5) 0.55127(5)
C52_2 C 0.7500 0.91803(5) 0.58197(5)
C53_2 C 0.7500 0.77867(5) 0.72133(5)
C54_2 C 0.7500 0.80781(6) 0.69219(6)
C55_2 C 0.7500 0.86127(6) 0.63873(6)
C56_2 C 0.71527(9) 0.90509(8) 0.59753(8)
H21_2 H 0.6919 0.9150 0.5887
C57_2 C 0.7500 0.83201(6) 0.66799(6)
C58_2 C 0.71580(9) 0.87741(9) 0.62629(10)
H22_2 H 0.6927 0.8695 0.6375
O13_2 O 0.78272(5) 0.96009(4) 0.53986(4)
C59_2 C 0.78473(9) 0.90247(8) 0.59491(8)
H23_2 H 0.8081 0.9113 0.5850
C60_2 C 0.78420(9) 0.87371(10) 0.62259(9)
H24_2 H 0.8073 0.8625 0.6305
Cu2_4 Cu 0.5000 0.711669(14) 1.0000
O14_4 O 0.5000 0.65047(15) 1.0000
Cu3_4 Cu 0.788331(14) 0.5000 1.0000
O15_4 O 0.84953(15) 0.5000 1.0000
Cu4_4 Cu 1.0000 0.711669(14) 0.5000
Cu6_4 Cu 0.711669(14) 1.0000 0.5000
Cu8_4 Cu 0.788331(14) 1.0000 0.5000
Cu9_4 Cu 0.5000 0.788331(14) 1.0000
Cu11_4 Cu 1.0000 0.788331(14) 0.5000
O18_2 O 0.46009(4) 0.71728(5) 0.96014(4)
O21_2 O 0.71728(5) 0.46009(4) 0.96014(4)
O23_2 O 0.78272(5) 0.46014(4) 0.96009(4)
Cu7_3 Cu -0.0000 0.5000 0.288331(14)
Cu10_3 Cu 0.0000 0.5000 0.211669(14)
C1_3 C 0.7500 0.44873(5) 0.05127(5)
C2_3 C 0.7500 0.41803(5) 0.08197(5)
C3_3 C 0.7500 0.27867(5) 0.22133(5)
C4_3 C 0.7500 0.30781(6) 0.19219(6)
C5_3 C 0.7500 0.36127(6) 0.13873(6)
C6_3 C 0.71527(9) 0.40247(8) 0.09491(8)
H1_3 H 0.6919 0.4113 0.0850
C7_3 C 0.7500 0.33201(6) 0.16799(6)
C8_3 C 0.71580(9) 0.37371(10) 0.12259(9)
H2_3 H 0.6927 0.3625 0.1305
C9_3 C 0.78473(9) 0.40509(8) 0.09753(8)
H3_3 H 0.8081 0.4150 0.0887
C10_3 C 0.78420(9) 0.37741(9) 0.12629(10)
H4_3 H 0.8073 0.3695 0.1375
C11_3 C 0.55127(5) 0.2500 0.05127(5)
C12_3 C 0.58197(5) 0.2500 0.08197(5)
C13_3 C 0.72133(5) 0.2500 0.22133(5)
C14_3 C 0.69219(6) 0.2500 0.19219(6)
C15_3 C 0.63873(6) 0.2500 0.13873(6)
C16_3 C 0.59753(8) 0.28473(9) 0.09491(8)
H5_3 H 0.5887 0.3081 0.0850
C17_3 C 0.66799(6) 0.2500 0.16799(6)
C18_3 C 0.62629(10) 0.28420(9) 0.12259(9)
H6_3 H 0.6375 0.3073 0.1305
O5_3 O 0.96014(4) 0.46009(4) 0.28272(5)
C19_3 C 0.94873(5) 0.44873(5) 0.2500
C20_3 C 0.91803(5) 0.41803(5) 0.2500
C21_3 C 0.77867(5) 0.27867(5) 0.2500
C22_3 C 0.80781(6) 0.30781(6) 0.2500
C23_3 C 0.86127(6) 0.36127(6) 0.2500
C24_3 C 0.90509(8) 0.40247(8) 0.28473(9)
H7_3 H 0.9150 0.4113 0.3081
C25_3 C 0.83201(6) 0.33201(6) 0.2500
C26_3 C 0.87741(9) 0.37371(10) 0.28420(9)
H8_3 H 0.8695 0.3625 0.3073
O6_3 O 0.53986(4) 0.21728(5) 0.03991(4)
C27_3 C 0.59491(8) 0.21527(9) 0.09753(8)
H9_3 H 0.5850 0.1919 0.0887
C28_3 C 0.62259(9) 0.21580(9) 0.12629(10)
H10_3 H 0.6305 0.1927 0.1375
O7_3 O 0.96009(4) 0.46014(4) 0.21728(5)
C29_3 C 0.90247(8) 0.40509(8) 0.21527(9)
H11_3 H 0.9113 0.4150 0.1919
C30_3 C 0.87371(10) 0.37741(9) 0.21580(9)
H12_3 H 0.8625 0.3695 0.1927
O8_3 O 0.96014(4) 0.28272(5) 0.46009(4)
C31_3 C 0.94873(5) 0.2500 0.44873(5)
C32_3 C 0.91803(5) 0.2500 0.41803(5)
C33_3 C 0.77867(5) 0.2500 0.27867(5)
C34_3 C 0.80781(6) 0.2500 0.30781(6)
C35_3 C 0.86127(6) 0.2500 0.36127(6)
C36_3 C 0.90509(8) 0.28473(9) 0.40247(8)
H13_3 H 0.9150 0.3081 0.4113
C37_3 C 0.83201(6) 0.2500 0.33201(6)
C38_3 C 0.87741(9) 0.28420(9) 0.37371(10)
H14_3 H 0.8695 0.3073 0.3625
O9_3 O 0.53991(4) 0.03986(4) 0.28272(5)
C39_3 C 0.55127(5) 0.05127(5) 0.2500
C40_3 C 0.58197(5) 0.08197(5) 0.2500
C41_3 C 0.72133(5) 0.22133(5) 0.2500
C42_3 C 0.69219(6) 0.19219(6) 0.2500
C43_3 C 0.63873(6) 0.13873(6) 0.2500
C44_3 C 0.59753(8) 0.09491(8) 0.28473(9)
H15_3 H 0.5887 0.0850 0.3081
C45_3 C 0.66799(6) 0.16799(6) 0.2500
C46_3 C 0.62629(10) 0.12259(9) 0.28420(9)
H16_3 H 0.6375 0.1305 0.3073
O10_3 O 0.96009(4) 0.21728(5) 0.46014(4)
C47_3 C 0.90247(8) 0.21527(9) 0.40509(8)
H17_3 H 0.9113 0.1919 0.4150
C48_3 C 0.87371(10) 0.21580(9) 0.37741(9)
H18_3 H 0.8625 0.1927 0.3695
O11_3 O 0.53986(4) 0.03991(4) 0.21728(5)
C49_3 C 0.59491(8) 0.09753(8) 0.21527(9)
H19_3 H 0.5850 0.0887 0.1919
C50_3 C 0.62259(9) 0.12629(10) 0.21580(9)
H20_3 H 0.6305 0.1375 0.1927
O12_3 O 0.71728(5) 0.03986(4) 0.46009(4)
C51_3 C 0.7500 0.05127(5) 0.44873(5)
C52_3 C 0.7500 0.08197(5) 0.41803(5)
C53_3 C 0.7500 0.22133(5) 0.27867(5)
C54_3 C 0.7500 0.19219(6) 0.30781(6)
C55_3 C 0.7500 0.13873(6) 0.36127(6)
C56_3 C 0.71527(9) 0.09491(8) 0.40247(8)
H21_3 H 0.6919 0.0850 0.4113
C57_3 C 0.7500 0.16799(6) 0.33201(6)
C58_3 C 0.71580(9) 0.12259(9) 0.37371(10)
H22_3 H 0.6927 0.1305 0.3625
O13_3 O 0.78272(5) 0.03991(4) 0.46014(4)
C59_3 C 0.78473(9) 0.09753(8) 0.40509(8)
H23_3 H 0.8081 0.0887 0.4150
C60_3 C 0.78420(9) 0.12629(10) 0.37741(9)
H24_3 H 0.8073 0.1375 0.3695
Cu5_3 Cu 0.5000 0.0000 0.288331(14)
Cu7_4 Cu 1.0000 0.5000 0.288331(14)
Cu10_4 Cu 1.0000 0.5000 0.211669(14)
Cu12_3 Cu 0.5000 0.0000 0.211669(14)
Cu5_4 Cu 0.5000 1.0000 0.288331(14)
Cu12_4 Cu 0.5000 1.0000 0.211669(14)
C1_4 C 0.2500 0.55127(5) 0.05127(5)
C2_4 C 0.2500 0.58197(5) 0.08197(5)
C3_4 C 0.2500 0.72133(5) 0.22133(5)
C4_4 C 0.2500 0.69219(6) 0.19219(6)
C5_4 C 0.2500 0.63873(6) 0.13873(6)
C6_4 C 0.28473(9) 0.59753(8) 0.09491(8)
H1_4 H 0.3081 0.5887 0.0850
C7_4 C 0.2500 0.66799(6) 0.16799(6)
C8_4 C 0.28420(9) 0.62629(10) 0.12259(9)
H2_4 H 0.3073 0.6375 0.1305
C9_4 C 0.21527(9) 0.59491(8) 0.09753(8)
H3_4 H 0.1919 0.5850 0.0887
C10_4 C 0.21580(9) 0.62259(9) 0.12629(10)
H4_4 H 0.1927 0.6305 0.1375
C11_4 C 0.44873(5) 0.7500 0.05127(5)
C12_4 C 0.41803(5) 0.7500 0.08197(5)
C13_4 C 0.27867(5) 0.7500 0.22133(5)
C14_4 C 0.30781(6) 0.7500 0.19219(6)
C15_4 C 0.36127(6) 0.7500 0.13873(6)
C16_4 C 0.40247(8) 0.71527(9) 0.09491(8)
H5_4 H 0.4113 0.6919 0.0850
C17_4 C 0.33201(6) 0.7500 0.16799(6)
C18_4 C 0.37371(10) 0.71580(9) 0.12259(9)
H6_4 H 0.3625 0.6927 0.1305
O5_4 O 0.03986(4) 0.53991(4) 0.28272(5)
C19_4 C 0.05127(5) 0.55127(5) 0.2500
C20_4 C 0.08197(5) 0.58197(5) 0.2500
C21_4 C 0.22133(5) 0.72133(5) 0.2500
C22_4 C 0.19219(6) 0.69219(6) 0.2500
C23_4 C 0.13873(6) 0.63873(6) 0.2500
C24_4 C 0.09491(8) 0.59753(8) 0.28473(9)
H7_4 H 0.0850 0.5887 0.3081
C25_4 C 0.16799(6) 0.66799(6) 0.2500
C26_4 C 0.12259(9) 0.62629(10) 0.28420(9)
H8_4 H 0.1305 0.6375 0.3073
O6_4 O 0.46014(4) 0.78272(5) 0.03991(4)
C27_4 C 0.40509(8) 0.78473(9) 0.09753(8)
H9_4 H 0.4150 0.8081 0.0887
C28_4 C 0.37741(9) 0.78420(9) 0.12629(10)
H10_4 H 0.3695 0.8073 0.1375
O7_4 O 0.03991(4) 0.53986(4) 0.21728(5)
C29_4 C 0.09753(8) 0.59491(8) 0.21527(9)
H11_4 H 0.0887 0.5850 0.1919
C30_4 C 0.12629(10) 0.62259(9) 0.21580(9)
H12_4 H 0.1375 0.6305 0.1927
O8_4 O 0.03986(4) 0.71728(5) 0.46009(4)
C31_4 C 0.05127(5) 0.7500 0.44873(5)
C32_4 C 0.08197(5) 0.7500 0.41803(5)
C33_4 C 0.22133(5) 0.7500 0.27867(5)
C34_4 C 0.19219(6) 0.7500 0.30781(6)
C35_4 C 0.13873(6) 0.7500 0.36127(6)
C36_4 C 0.09491(8) 0.71527(9) 0.40247(8)
H13_4 H 0.0850 0.6919 0.4113
C37_4 C 0.16799(6) 0.7500 0.33201(6)
C38_4 C 0.12259(9) 0.71580(9) 0.37371(10)
H14_4 H 0.1305 0.6927 0.3625
O9_4 O 0.46009(4) 0.96014(4) 0.28272(5)
C39_4 C 0.44873(5) 0.94873(5) 0.2500
C40_4 C 0.41803(5) 0.91803(5) 0.2500
C41_4 C 0.27867(5) 0.77867(5) 0.2500
C42_4 C 0.30781(6) 0.80781(6) 0.2500
C43_4 C 0.36127(6) 0.86127(6) 0.2500
C44_4 C 0.40247(8) 0.90509(8) 0.28473(9)
H15_4 H 0.4113 0.9150 0.3081
C45_4 C 0.33201(6) 0.83201(6) 0.2500
C46_4 C 0.37371(10) 0.87741(9) 0.28420(9)
H16_4 H 0.3625 0.8695 0.3073
O10_4 O 0.03991(4) 0.78272(5) 0.46014(4)
C47_4 C 0.09753(8) 0.78473(9) 0.40509(8)
H17_4 H 0.0887 0.8081 0.4150
C48_4 C 0.12629(10) 0.78420(9) 0.37741(9)
H18_4 H 0.1375 0.8073 0.3695
O11_4 O 0.46014(4) 0.96009(4) 0.21728(5)
C49_4 C 0.40509(8) 0.90247(8) 0.21527(9)
H19_4 H 0.4150 0.9113 0.1919
C50_4 C 0.37741(9) 0.87371(10) 0.21580(9)
H20_4 H 0.3695 0.8625 0.1927
O12_4 O 0.28272(5) 0.96014(4) 0.46009(4)
C51_4 C 0.2500 0.94873(5) 0.44873(5)
C52_4 C 0.2500 0.91803(5) 0.41803(5)
C53_4 C 0.2500 0.77867(5) 0.27867(5)
C54_4 C 0.2500 0.80781(6) 0.30781(6)
C55_4 C 0.2500 0.86127(6) 0.36127(6)
C56_4 C 0.28473(9) 0.90509(8) 0.40247(8)
H21_4 H 0.3081 0.9150 0.4113
C57_4 C 0.2500 0.83201(6) 0.33201(6)
C58_4 C 0.28420(9) 0.87741(9) 0.37371(10)
H22_4 H 0.3073 0.8695 0.3625
O13_4 O 0.21728(5) 0.96009(4) 0.46014(4)
C59_4 C 0.21527(9) 0.90247(8) 0.40509(8)
H23_4 H 0.1919 0.9113 0.4150
C60_4 C 0.21580(9) 0.87371(10) 0.37741(9)
H24_4 H 0.1927 0.8625 0.3695
O2_5 O -0.0000 0.34953(15) 0.5000
O14_5 O -0.0000 0.5000 0.34953(15)
O15_5 O -0.0000 0.15047(15) 0.5000
O17_3 O 0.03986(4) 0.46009(4) 0.28272(5)
O20_3 O 0.03986(4) 0.28272(5) 0.46009(4)
O24_3 O 0.03991(4) 0.21728(5) 0.46014(4)
O2_6 O 1.0000 0.34953(15) 0.5000
O14_6 O 1.0000 0.5000 0.34953(15)
O15_6 O 1.0000 0.15047(15) 0.5000
O18_3 O 0.96014(4) 0.53991(4) 0.28272(5)
O21_3 O 0.96014(4) 0.28272(5) 0.53991(4)
O23_3 O 0.96009(4) 0.21728(5) 0.53986(4)
O2_7 O -0.0000 0.65047(15) 0.5000
O14_7 O -0.0000 0.5000 0.65047(15)
O15_7 O -0.0000 0.84953(15) 0.5000
O17_4 O 0.03986(4) 0.53991(4) 0.71728(5)
O20_4 O 0.03986(4) 0.71728(5) 0.53991(4)
O24_4 O 0.03991(4) 0.78272(5) 0.53986(4)
O2_8 O 1.0000 0.65047(15) 0.5000
O14_8 O 1.0000 0.5000 0.65047(15)
O15_8 O 1.0000 0.84953(15) 0.5000
O18_4 O 0.96014(4) 0.46009(4) 0.71728(5)
O21_4 O 0.96014(4) 0.71728(5) 0.46009(4)
O23_4 O 0.96009(4) 0.78272(5) 0.46014(4)
O2_9 O 0.5000 0.0000 0.34953(15)
O14_9 O 0.34953(15) 0.0000 0.5000
O15_9 O 0.5000 0.0000 0.15047(15)
O17_5 O 0.28272(5) 0.03986(4) 0.46009(4)
O20_5 O 0.46009(4) 0.03986(4) 0.28272(5)
O24_5 O 0.46014(4) 0.03991(4) 0.21728(5)
O2_10 O 0.5000 1.0000 0.34953(15)
O14_10 O 0.34953(15) 1.0000 0.5000
O15_10 O 0.5000 1.0000 0.15047(15)
O18_5 O 0.28272(5) 0.96014(4) 0.53991(4)
O21_5 O 0.53991(4) 0.96014(4) 0.28272(5)
O23_5 O 0.53986(4) 0.96009(4) 0.21728(5)
O2_11 O 0.5000 -0.0000 0.65047(15)
O14_11 O 0.65047(15) 0.0000 0.5000
O15_11 O 0.5000 -0.0000 0.84953(15)
O17_6 O 0.71728(5) 0.03986(4) 0.53991(4)
O20_6 O 0.53991(4) 0.03986(4) 0.71728(5)
O24_6 O 0.53986(4) 0.03991(4) 0.78272(5)
O2_12 O 0.5000 1.0000 0.65047(15)
O14_12 O 0.65047(15) 1.0000 0.5000
O15_12 O 0.5000 1.0000 0.84953(15)
O18_6 O 0.71728(5) 0.96014(4) 0.46009(4)
O21_6 O 0.46009(4) 0.96014(4) 0.71728(5)
O23_6 O 0.46014(4) 0.96009(4) 0.78272(5)
C1_5 C 0.44873(5) 0.2500 0.05127(5)
C2_5 C 0.41803(5) 0.2500 0.08197(5)
C3_5 C 0.27867(5) 0.2500 0.22133(5)
C4_5 C 0.30781(6) 0.2500 0.19219(6)
C5_5 C 0.36127(6) 0.2500 0.13873(6)
C6_5 C 0.40247(8) 0.28473(9) 0.09491(8)
H1_5 H 0.4113 0.3081 0.0850
C7_5 C 0.33201(6) 0.2500 0.16799(6)
C8_5 C 0.37371(10) 0.28420(9) 0.12259(9)
H2_5 H 0.3625 0.3073 0.1305
O3_3 O 0.46014(4) 0.21728(5) 0.03991(4)
C9_5 C 0.40509(8) 0.21527(9) 0.09753(8)
H3_5 H 0.4150 0.1919 0.0887
C10_5 C 0.37741(9) 0.21580(9) 0.12629(10)
H4_5 H 0.3695 0.1927 0.1375
C11_5 C 0.2500 0.44873(5) 0.05127(5)
C12_5 C 0.2500 0.41803(5) 0.08197(5)
C13_5 C 0.2500 0.27867(5) 0.22133(5)
C14_5 C 0.2500 0.30781(6) 0.19219(6)
C15_5 C 0.2500 0.36127(6) 0.13873(6)
C16_5 C 0.28473(9) 0.40247(8) 0.09491(8)
H5_5 H 0.3081 0.4113 0.0850
C17_5 C 0.2500 0.33201(6) 0.16799(6)
C18_5 C 0.28420(9) 0.37371(10) 0.12259(9)
H6_5 H 0.3073 0.3625 0.1305
C19_5 C 0.44873(5) 0.05127(5) 0.2500
C20_5 C 0.41803(5) 0.08197(5) 0.2500
C21_5 C 0.27867(5) 0.22133(5) 0.2500
C22_5 C 0.30781(6) 0.19219(6) 0.2500
C23_5 C 0.36127(6) 0.13873(6) 0.2500
C24_5 C 0.40247(8) 0.09491(8) 0.28473(9)
H7_5 H 0.4113 0.0850 0.3081
C25_5 C 0.33201(6) 0.16799(6) 0.2500
C26_5 C 0.37371(10) 0.12259(9) 0.28420(9)
H8_5 H 0.3625 0.1305 0.3073
C27_5 C 0.21527(9) 0.40509(8) 0.09753(8)
H9_5 H 0.1919 0.4150 0.0887
C28_5 C 0.21580(9) 0.37741(9) 0.12629(10)
H10_5 H 0.1927 0.3695 0.1375
C29_5 C 0.40509(8) 0.09753(8) 0.21527(9)
H11_5 H 0.4150 0.0887 0.1919
C30_5 C 0.37741(9) 0.12629(10) 0.21580(9)
H12_5 H 0.3695 0.1375 0.1927
C31_5 C 0.2500 0.05127(5) 0.44873(5)
C32_5 C 0.2500 0.08197(5) 0.41803(5)
C33_5 C 0.2500 0.22133(5) 0.27867(5)
C34_5 C 0.2500 0.19219(6) 0.30781(6)
C35_5 C 0.2500 0.13873(6) 0.36127(6)
C36_5 C 0.28473(9) 0.09491(8) 0.40247(8)
H13_5 H 0.3081 0.0850 0.4113
C37_5 C 0.2500 0.16799(6) 0.33201(6)
C38_5 C 0.28420(9) 0.12259(9) 0.37371(10)
H14_5 H 0.3073 0.1305 0.3625
C39_5 C 0.05127(5) 0.44873(5) 0.2500
C40_5 C 0.08197(5) 0.41803(5) 0.2500
C41_5 C 0.22133(5) 0.27867(5) 0.2500
C42_5 C 0.19219(6) 0.30781(6) 0.2500
C43_5 C 0.13873(6) 0.36127(6) 0.2500
C44_5 C 0.09491(8) 0.40247(8) 0.28473(9)
H15_5 H 0.0850 0.4113 0.3081
C45_5 C 0.16799(6) 0.33201(6) 0.2500
C46_5 C 0.12259(9) 0.37371(10) 0.28420(9)
H16_5 H 0.1305 0.3625 0.3073
O10_5 O 0.21728(5) 0.03991(4) 0.46014(4)
C47_5 C 0.21527(9) 0.09753(8) 0.40509(8)
H17_5 H 0.1919 0.0887 0.4150
C48_5 C 0.21580(9) 0.12629(10) 0.37741(9)
H18_5 H 0.1927 0.1375 0.3695
O11_5 O 0.03991(4) 0.46014(4) 0.21728(5)
C49_5 C 0.09753(8) 0.40509(8) 0.21527(9)
H19_5 H 0.0887 0.4150 0.1919
C50_5 C 0.12629(10) 0.37741(9) 0.21580(9)
H20_5 H 0.1375 0.3695 0.1927
C51_5 C 0.05127(5) 0.2500 0.44873(5)
C52_5 C 0.08197(5) 0.2500 0.41803(5)
C53_5 C 0.22133(5) 0.2500 0.27867(5)
C54_5 C 0.19219(6) 0.2500 0.30781(6)
C55_5 C 0.13873(6) 0.2500 0.36127(6)
C56_5 C 0.09491(8) 0.28473(9) 0.40247(8)
H21_5 H 0.0850 0.3081 0.4113
C57_5 C 0.16799(6) 0.2500 0.33201(6)
C58_5 C 0.12259(9) 0.28420(9) 0.37371(10)
H22_5 H 0.1305 0.3073 0.3625
C59_5 C 0.09753(8) 0.21527(9) 0.40509(8)
H23_5 H 0.0887 0.1919 0.4150
C60_5 C 0.12629(10) 0.21580(9) 0.37741(9)
H24_5 H 0.1375 0.1927 0.3695
O15_13 O 0.5000 0.15047(15) 0.0000
O15_14 O 0.5000 0.15047(15) 1.0000
O19_3 O 0.53986(4) 0.21728(5) 0.96009(4)
C1_6 C 0.55127(5) 0.7500 0.05127(5)
C2_6 C 0.58197(5) 0.7500 0.08197(5)
C3_6 C 0.72133(5) 0.7500 0.22133(5)
C4_6 C 0.69219(6) 0.7500 0.19219(6)
C5_6 C 0.63873(6) 0.7500 0.13873(6)
C6_6 C 0.59753(8) 0.71527(9) 0.09491(8)
H1_6 H 0.5887 0.6919 0.0850
C7_6 C 0.66799(6) 0.7500 0.16799(6)
C8_6 C 0.62629(10) 0.71580(9) 0.12259(9)
H2_6 H 0.6375 0.6927 0.1305
O3_4 O 0.53986(4) 0.78272(5) 0.03991(4)
C9_6 C 0.59491(8) 0.78473(9) 0.09753(8)
H3_6 H 0.5850 0.8081 0.0887
C10_6 C 0.62259(9) 0.78420(9) 0.12629(10)
H4_6 H 0.6305 0.8073 0.1375
C11_6 C 0.7500 0.55127(5) 0.05127(5)
C12_6 C 0.7500 0.58197(5) 0.08197(5)
C13_6 C 0.7500 0.72133(5) 0.22133(5)
C14_6 C 0.7500 0.69219(6) 0.19219(6)
C15_6 C 0.7500 0.63873(6) 0.13873(6)
C16_6 C 0.71527(9) 0.59753(8) 0.09491(8)
H5_6 H 0.6919 0.5887 0.0850
C17_6 C 0.7500 0.66799(6) 0.16799(6)
C18_6 C 0.71580(9) 0.62629(10) 0.12259(9)
H6_6 H 0.6927 0.6375 0.1305
C19_6 C 0.55127(5) 0.94873(5) 0.2500
C20_6 C 0.58197(5) 0.91803(5) 0.2500
C21_6 C 0.72133(5) 0.77867(5) 0.2500
C22_6 C 0.69219(6) 0.80781(6) 0.2500
C23_6 C 0.63873(6) 0.86127(6) 0.2500
C24_6 C 0.59753(8) 0.90509(8) 0.28473(9)
H7_6 H 0.5887 0.9150 0.3081
C25_6 C 0.66799(6) 0.83201(6) 0.2500
C26_6 C 0.62629(10) 0.87741(9) 0.28420(9)
H8_6 H 0.6375 0.8695 0.3073
C27_6 C 0.78473(9) 0.59491(8) 0.09753(8)
H9_6 H 0.8081 0.5850 0.0887
C28_6 C 0.78420(9) 0.62259(9) 0.12629(10)
H10_6 H 0.8073 0.6305 0.1375
C29_6 C 0.59491(8) 0.90247(8) 0.21527(9)
H11_6 H 0.5850 0.9113 0.1919
C30_6 C 0.62259(9) 0.87371(10) 0.21580(9)
H12_6 H 0.6305 0.8625 0.1927
C31_6 C 0.7500 0.94873(5) 0.44873(5)
C32_6 C 0.7500 0.91803(5) 0.41803(5)
C33_6 C 0.7500 0.77867(5) 0.27867(5)
C34_6 C 0.7500 0.80781(6) 0.30781(6)
C35_6 C 0.7500 0.86127(6) 0.36127(6)
C36_6 C 0.71527(9) 0.90509(8) 0.40247(8)
H13_6 H 0.6919 0.9150 0.4113
C37_6 C 0.7500 0.83201(6) 0.33201(6)
C38_6 C 0.71580(9) 0.87741(9) 0.37371(10)
H14_6 H 0.6927 0.8695 0.3625
C39_6 C 0.94873(5) 0.55127(5) 0.2500
C40_6 C 0.91803(5) 0.58197(5) 0.2500
C41_6 C 0.77867(5) 0.72133(5) 0.2500
C42_6 C 0.80781(6) 0.69219(6) 0.2500
C43_6 C 0.86127(6) 0.63873(6) 0.2500
C44_6 C 0.90509(8) 0.59753(8) 0.28473(9)
H15_6 H 0.9150 0.5887 0.3081
C45_6 C 0.83201(6) 0.66799(6) 0.2500
C46_6 C 0.87741(9) 0.62629(10) 0.28420(9)
H16_6 H 0.8695 0.6375 0.3073
O10_6 O 0.78272(5) 0.96009(4) 0.46014(4)
C47_6 C 0.78473(9) 0.90247(8) 0.40509(8)
H17_6 H 0.8081 0.9113 0.4150
C48_6 C 0.78420(9) 0.87371(10) 0.37741(9)
H18_6 H 0.8073 0.8625 0.3695
O11_6 O 0.96009(4) 0.53986(4) 0.21728(5)
C49_6 C 0.90247(8) 0.59491(8) 0.21527(9)
H19_6 H 0.9113 0.5850 0.1919
C50_6 C 0.87371(10) 0.62259(9) 0.21580(9)
H20_6 H 0.8625 0.6305 0.1927
C51_6 C 0.94873(5) 0.7500 0.44873(5)
C52_6 C 0.91803(5) 0.7500 0.41803(5)
C53_6 C 0.77867(5) 0.7500 0.27867(5)
C54_6 C 0.80781(6) 0.7500 0.30781(6)
C55_6 C 0.86127(6) 0.7500 0.36127(6)
C56_6 C 0.90509(8) 0.71527(9) 0.40247(8)
H21_6 H 0.9150 0.6919 0.4113
C57_6 C 0.83201(6) 0.7500 0.33201(6)
C58_6 C 0.87741(9) 0.71580(9) 0.37371(10)
H22_6 H 0.8695 0.6927 0.3625
C59_6 C 0.90247(8) 0.78473(9) 0.40509(8)
H23_6 H 0.9113 0.8081 0.4150
C60_6 C 0.87371(10) 0.78420(9) 0.37741(9)
H24_6 H 0.8625 0.8073 0.3695
O15_15 O 0.5000 0.84953(15) 0.0000
O15_16 O 0.5000 0.84953(15) 1.0000
O19_4 O 0.46014(4) 0.78272(5) 0.96009(4)
C1_7 C 0.44873(5) 0.7500 0.94873(5)
C2_7 C 0.41803(5) 0.7500 0.91803(5)
C3_7 C 0.27867(5) 0.7500 0.77867(5)
C4_7 C 0.30781(6) 0.7500 0.80781(6)
C5_7 C 0.36127(6) 0.7500 0.86127(6)
C6_7 C 0.40247(8) 0.71527(9) 0.90509(8)
H1_7 H 0.4113 0.6919 0.9150
C7_7 C 0.33201(6) 0.7500 0.83201(6)
C8_7 C 0.37371(10) 0.71580(9) 0.87741(9)
H2_7 H 0.3625 0.6927 0.8695
C9_7 C 0.40509(8) 0.78473(9) 0.90247(8)
H3_7 H 0.4150 0.8081 0.9113
C10_7 C 0.37741(9) 0.78420(9) 0.87371(10)
H4_7 H 0.3695 0.8073 0.8625
C11_7 C 0.2500 0.55127(5) 0.94873(5)
C12_7 C 0.2500 0.58197(5) 0.91803(5)
C13_7 C 0.2500 0.72133(5) 0.77867(5)
C14_7 C 0.2500 0.69219(6) 0.80781(6)
C15_7 C 0.2500 0.63873(6) 0.86127(6)
C16_7 C 0.28473(9) 0.59753(8) 0.90509(8)
H5_7 H 0.3081 0.5887 0.9150
C17_7 C 0.2500 0.66799(6) 0.83201(6)
C18_7 C 0.28420(9) 0.62629(10) 0.87741(9)
H6_7 H 0.3073 0.6375 0.8695
C19_7 C 0.44873(5) 0.94873(5) 0.7500
C20_7 C 0.41803(5) 0.91803(5) 0.7500
C21_7 C 0.27867(5) 0.77867(5) 0.7500
C22_7 C 0.30781(6) 0.80781(6) 0.7500
C23_7 C 0.36127(6) 0.86127(6) 0.7500
C24_7 C 0.40247(8) 0.90509(8) 0.71527(9)
H7_7 H 0.4113 0.9150 0.6919
C25_7 C 0.33201(6) 0.83201(6) 0.7500
C26_7 C 0.37371(10) 0.87741(9) 0.71580(9)
H8_7 H 0.3625 0.8695 0.6927
C27_7 C 0.21527(9) 0.59491(8) 0.90247(8)
H9_7 H 0.1919 0.5850 0.9113
C28_7 C 0.21580(9) 0.62259(9) 0.87371(10)
H10_7 H 0.1927 0.6305 0.8625
C29_7 C 0.40509(8) 0.90247(8) 0.78473(9)
H11_7 H 0.4150 0.9113 0.8081
C30_7 C 0.37741(9) 0.87371(10) 0.78420(9)
H12_7 H 0.3695 0.8625 0.8073
C31_7 C 0.2500 0.94873(5) 0.55127(5)
C32_7 C 0.2500 0.91803(5) 0.58197(5)
C33_7 C 0.2500 0.77867(5) 0.72133(5)
C34_7 C 0.2500 0.80781(6) 0.69219(6)
C35_7 C 0.2500 0.86127(6) 0.63873(6)
C36_7 C 0.28473(9) 0.90509(8) 0.59753(8)
H13_7 H 0.3081 0.9150 0.5887
C37_7 C 0.2500 0.83201(6) 0.66799(6)
C38_7 C 0.28420(9) 0.87741(9) 0.62629(10)
H14_7 H 0.3073 0.8695 0.6375
C39_7 C 0.05127(5) 0.55127(5) 0.7500
C40_7 C 0.08197(5) 0.58197(5) 0.7500
C41_7 C 0.22133(5) 0.72133(5) 0.7500
C42_7 C 0.19219(6) 0.69219(6) 0.7500
C43_7 C 0.13873(6) 0.63873(6) 0.7500
C44_7 C 0.09491(8) 0.59753(8) 0.71527(9)
H15_7 H 0.0850 0.5887 0.6919
C45_7 C 0.16799(6) 0.66799(6) 0.7500
C46_7 C 0.12259(9) 0.62629(10) 0.71580(9)
H16_7 H 0.1305 0.6375 0.6927
O10_7 O 0.21728(5) 0.96009(4) 0.53986(4)
C47_7 C 0.21527(9) 0.90247(8) 0.59491(8)
H17_7 H 0.1919 0.9113 0.5850
C48_7 C 0.21580(9) 0.87371(10) 0.62259(9)
H18_7 H 0.1927 0.8625 0.6305
O11_7 O 0.03991(4) 0.53986(4) 0.78272(5)
C49_7 C 0.09753(8) 0.59491(8) 0.78473(9)
H19_7 H 0.0887 0.5850 0.8081
C50_7 C 0.12629(10) 0.62259(9) 0.78420(9)
H20_7 H 0.1375 0.6305 0.8073
C51_7 C 0.05127(5) 0.7500 0.55127(5)
C52_7 C 0.08197(5) 0.7500 0.58197(5)
C53_7 C 0.22133(5) 0.7500 0.72133(5)
C54_7 C 0.19219(6) 0.7500 0.69219(6)
C55_7 C 0.13873(6) 0.7500 0.63873(6)
C56_7 C 0.09491(8) 0.71527(9) 0.59753(8)
H21_7 H 0.0850 0.6919 0.5887
C57_7 C 0.16799(6) 0.7500 0.66799(6)
C58_7 C 0.12259(9) 0.71580(9) 0.62629(10)
H22_7 H 0.1305 0.6927 0.6375
C59_7 C 0.09753(8) 0.78473(9) 0.59491(8)
H23_7 H 0.0887 0.8081 0.5850
C60_7 C 0.12629(10) 0.78420(9) 0.62259(9)
H24_7 H 0.1375 0.8073 0.6305
C1_8 C 0.55127(5) 0.2500 0.94873(5)
C2_8 C 0.58197(5) 0.2500 0.91803(5)
C3_8 C 0.72133(5) 0.2500 0.77867(5)
C4_8 C 0.69219(6) 0.2500 0.80781(6)
C5_8 C 0.63873(6) 0.2500 0.86127(6)
C6_8 C 0.59753(8) 0.28473(9) 0.90509(8)
H1_8 H 0.5887 0.3081 0.9150
C7_8 C 0.66799(6) 0.2500 0.83201(6)
C8_8 C 0.62629(10) 0.28420(9) 0.87741(9)
H2_8 H 0.6375 0.3073 0.8695
C9_8 C 0.59491(8) 0.21527(9) 0.90247(8)
H3_8 H 0.5850 0.1919 0.9113
C10_8 C 0.62259(9) 0.21580(9) 0.87371(10)
H4_8 H 0.6305 0.1927 0.8625
C11_8 C 0.7500 0.44873(5) 0.94873(5)
C12_8 C 0.7500 0.41803(5) 0.91803(5)
C13_8 C 0.7500 0.27867(5) 0.77867(5)
C14_8 C 0.7500 0.30781(6) 0.80781(6)
C15_8 C 0.7500 0.36127(6) 0.86127(6)
C16_8 C 0.71527(9) 0.40247(8) 0.90509(8)
H5_8 H 0.6919 0.4113 0.9150
C17_8 C 0.7500 0.33201(6) 0.83201(6)
C18_8 C 0.71580(9) 0.37371(10) 0.87741(9)
H6_8 H 0.6927 0.3625 0.8695
C19_8 C 0.55127(5) 0.05127(5) 0.7500
C20_8 C 0.58197(5) 0.08197(5) 0.7500
C21_8 C 0.72133(5) 0.22133(5) 0.7500
C22_8 C 0.69219(6) 0.19219(6) 0.7500
C23_8 C 0.63873(6) 0.13873(6) 0.7500
C24_8 C 0.59753(8) 0.09491(8) 0.71527(9)
H7_8 H 0.5887 0.0850 0.6919
C25_8 C 0.66799(6) 0.16799(6) 0.7500
C26_8 C 0.62629(10) 0.12259(9) 0.71580(9)
H8_8 H 0.6375 0.1305 0.6927
C27_8 C 0.78473(9) 0.40509(8) 0.90247(8)
H9_8 H 0.8081 0.4150 0.9113
C28_8 C 0.78420(9) 0.37741(9) 0.87371(10)
H10_8 H 0.8073 0.3695 0.8625
C29_8 C 0.59491(8) 0.09753(8) 0.78473(9)
H11_8 H 0.5850 0.0887 0.8081
C30_8 C 0.62259(9) 0.12629(10) 0.78420(9)
H12_8 H 0.6305 0.1375 0.8073
C31_8 C 0.7500 0.05127(5) 0.55127(5)
C32_8 C 0.7500 0.08197(5) 0.58197(5)
C33_8 C 0.7500 0.22133(5) 0.72133(5)
C34_8 C 0.7500 0.19219(6) 0.69219(6)
C35_8 C 0.7500 0.13873(6) 0.63873(6)
C36_8 C 0.71527(9) 0.09491(8) 0.59753(8)
H13_8 H 0.6919 0.0850 0.5887
C37_8 C 0.7500 0.16799(6) 0.66799(6)
C38_8 C 0.71580(9) 0.12259(9) 0.62629(10)
H14_8 H 0.6927 0.1305 0.6375
C39_8 C 0.94873(5) 0.44873(5) 0.7500
C40_8 C 0.91803(5) 0.41803(5) 0.7500
C41_8 C 0.77867(5) 0.27867(5) 0.7500
C42_8 C 0.80781(6) 0.30781(6) 0.7500
C43_8 C 0.86127(6) 0.36127(6) 0.7500
C44_8 C 0.90509(8) 0.40247(8) 0.71527(9)
H15_8 H 0.9150 0.4113 0.6919
C45_8 C 0.83201(6) 0.33201(6) 0.7500
C46_8 C 0.87741(9) 0.37371(10) 0.71580(9)
H16_8 H 0.8695 0.3625 0.6927
O10_8 O 0.78272(5) 0.03991(4) 0.53986(4)
C47_8 C 0.78473(9) 0.09753(8) 0.59491(8)
H17_8 H 0.8081 0.0887 0.5850
C48_8 C 0.78420(9) 0.12629(10) 0.62259(9)
H18_8 H 0.8073 0.1375 0.6305
O11_8 O 0.96009(4) 0.46014(4) 0.78272(5)
C49_8 C 0.90247(8) 0.40509(8) 0.78473(9)
H19_8 H 0.9113 0.4150 0.8081
C50_8 C 0.87371(10) 0.37741(9) 0.78420(9)
H20_8 H 0.8625 0.3695 0.8073
C51_8 C 0.94873(5) 0.2500 0.55127(5)
C52_8 C 0.91803(5) 0.2500 0.58197(5)
C53_8 C 0.77867(5) 0.2500 0.72133(5)
C54_8 C 0.80781(6) 0.2500 0.69219(6)
C55_8 C 0.86127(6) 0.2500 0.63873(6)
C56_8 C 0.90509(8) 0.28473(9) 0.59753(8)
H21_8 H 0.9150 0.3081 0.5887
C57_8 C 0.83201(6) 0.2500 0.66799(6)
C58_8 C 0.87741(9) 0.28420(9) 0.62629(10)
H22_8 H 0.8695 0.3073 0.6375
C59_8 C 0.90247(8) 0.21527(9) 0.59491(8)
H23_8 H 0.9113 0.1919 0.5850
C60_8 C 0.87371(10) 0.21580(9) 0.62259(9)
H24_8 H 0.8625 0.1927 0.6305
O15_17 O 0.15047(15) 0.0000 0.5000
O15_18 O 0.15047(15) 1.0000 0.5000
O15_19 O 0.84953(15) 0.0000 0.5000
O15_20 O 0.84953(15) 1.0000 0.5000
O15_21 O -0.0000 0.5000 0.84953(15)
O15_22 O 1.0000 0.5000 0.84953(15)
O15_23 O -0.0000 0.5000 0.15047(15)
O15_24 O 1.0000 0.5000 0.15047(15)
loop_
_geom_bond_atom_site_label_1
_geom_bond_atom_site_label_2
_geom_bond_site_symmetry_1
_geom_bond_site_symmetry_2
O2 Cu1 1_555 1_555
O14 Cu2 1_555 1_555
O15 Cu3 1_555 1_555
O16 Cu1 1_555 1_555
O17 Cu2 1_555 1_555
O19 Cu3 1_555 1_555
O20 Cu1 1_555 1_555
O22 Cu2 1_555 1_555
O24 Cu3 1_555 1_555
Cu1_2 O1 1_555 1_555
O1 C1 1_555 1_555
O2_2 Cu1_2 1_555 1_555
C1 C2 1_555 1_555
C2 C6 1_555 1_555
C3 C4 1_555 1_555
C4 C7 1_555 1_555
C5 C7 1_555 1_555
C6 H1 1_555 1_555
C8 C5 1_555 1_555
H2 C8 1_555 1_555
O3 C1 1_555 1_555
C9 C2 1_555 1_555
H3 C9 1_555 1_555
C10 C5 1_555 1_555
H4 C10 1_555 1_555
O4 C11 1_555 1_555
C11 C12 1_555 1_555
C12 C16 1_555 1_555
C13 C3 1_555 1_555
C14 C13 1_555 1_555
C15 C17 1_555 1_555
C16 H5 1_555 1_555
C17 C14 1_555 1_555
C18 C15 1_555 1_555
H6 C18 1_555 1_555
O5 C19 1_555 1_555
C19 C20 1_555 1_555
C20 C24 1_555 1_555
C21 C3 1_555 1_555
C22 C21 1_555 1_555
C23 C25 1_555 1_555
C24 H7 1_555 1_555
C25 C22 1_555 1_555
C26 C23 1_555 1_555
H8 C26 1_555 1_555
O6 C11 1_555 1_555
C27 C12 1_555 1_555
H9 C27 1_555 1_555
C28 C15 1_555 1_555
H10 C28 1_555 1_555
O7 C19 1_555 1_555
C29 C20 1_555 1_555
H11 C29 1_555 1_555
C30 C23 1_555 1_555
H12 C30 1_555 1_555
O8 C31 1_555 1_555
C31 C32 1_555 1_555
C32 C36 1_555 1_555
C33 C21 1_555 1_555
C34 C33 1_555 1_555
C35 C37 1_555 1_555
C36 H13 1_555 1_555
C37 C34 1_555 1_555
C38 C35 1_555 1_555
H14 C38 1_555 1_555
O9 C39 1_555 1_555
C39 C40 1_555 1_555
C40 C44 1_555 1_555
C41 C13 1_555 1_555
C42 C41 1_555 1_555
C43 C45 1_555 1_555
C44 H15 1_555 1_555
C45 C42 1_555 1_555
C46 C43 1_555 1_555
H16 C46 1_555 1_555
O10 C31 1_555 1_555
C47 C32 1_555 1_555
H17 C47 1_555 1_555
C48 C35 1_555 1_555
H18 C48 1_555 1_555
O11 C39 1_555 1_555
C49 C40 1_555 1_555
H19 C49 1_555 1_555
C50 C43 1_555 1_555
H20 C50 1_555 1_555
O12 C51 1_555 1_555
C51 C52 1_555 1_555
C52 C56 1_555 1_555
C53 C33 1_555 1_555
C54 C53 1_555 1_555
C55 C57 1_555 1_555
C56 H21 1_555 1_555
C57 C54 1_555 1_555
C58 C55 1_555 1_555
H22 C58 1_555 1_555
O13 C51 1_555 1_555
C59 C52 1_555 1_555
H23 C59 1_555 1_555
C60 C55 1_555 1_555
H24 C60 1_555 1_555
Cu2_2 O4 1_555 1_555
O14_2 Cu2_2 1_555 1_555
Cu3_2 O3 1_555 1_555
O15_2 Cu3_2 1_555 1_555
Cu4 O8 1_555 1_555
Cu5 O9 1_555 1_555
Cu6 O12 1_555 1_555
Cu7 O5 1_555 1_555
Cu8 O13 1_555 1_555
Cu9_2 O6 1_555 1_555
Cu10 O7 1_555 1_555
Cu11 O10 1_555 1_555
Cu12 O11 1_555 1_555
O18 Cu2_2 1_555 1_555
O21 Cu1_2 1_555 1_555
O23 Cu3_2 1_555 1_555
C6 C8 1_555 1_555
C9 C10 1_555 1_555
C16 C18 1_555 1_555
C24 C26 1_555 1_555
C27 C28 1_555 1_555
C29 C30 1_555 1_555
C36 C38 1_555 1_555
C41 C53 1_555 1_555
C44 C46 1_555 1_555
C47 C48 1_555 1_555
C49 C50 1_555 1_555
C56 C58 1_555 1_555
C59 C60 1_555 1_555
O2_3 Cu1_3 1_555 1_555
O14_3 Cu2_3 1_555 1_555
O15_3 Cu3_3 1_555 1_555
O16_2 Cu1_3 1_555 1_555
O17_2 Cu2_3 1_555 1_555
O19_2 Cu3_3 1_555 1_555
O20_2 Cu1_3 1_555 1_555
O22_2 Cu2_3 1_555 1_555
O24_2 Cu3_3 1_555 1_555
Cu1_4 O1_2 1_555 1_555
O1_2 C1_2 1_555 1_555
O2_4 Cu1_4 1_555 1_555
C1_2 C2_2 1_555 1_555
C2_2 C6_2 1_555 1_555
C3_2 C4_2 1_555 1_555
C4_2 C7_2 1_555 1_555
C5_2 C7_2 1_555 1_555
C6_2 H1_2 1_555 1_555
C8_2 C5_2 1_555 1_555
H2_2 C8_2 1_555 1_555
O3_2 C1_2 1_555 1_555
C9_2 C2_2 1_555 1_555
H3_2 C9_2 1_555 1_555
C10_2 C5_2 1_555 1_555
H4_2 C10_2 1_555 1_555
O4_2 C11_2 1_555 1_555
C11_2 C12_2 1_555 1_555
C12_2 C16_2 1_555 1_555
C13_2 C3_2 1_555 1_555
C14_2 C13_2 1_555 1_555
C15_2 C17_2 1_555 1_555
C16_2 H5_2 1_555 1_555
C17_2 C14_2 1_555 1_555
C18_2 C15_2 1_555 1_555
H6_2 C18_2 1_555 1_555
O5_2 C19_2 1_555 1_555
C19_2 C20_2 1_555 1_555
C20_2 C24_2 1_555 1_555
C21_2 C3_2 1_555 1_555
C22_2 C21_2 1_555 1_555
C23_2 C25_2 1_555 1_555
C24_2 H7_2 1_555 1_555
C25_2 C22_2 1_555 1_555
C26_2 C23_2 1_555 1_555
H8_2 C26_2 1_555 1_555
O6_2 C11_2 1_555 1_555
C27_2 C12_2 1_555 1_555
H9_2 C27_2 1_555 1_555
C28_2 C15_2 1_555 1_555
H10_2 C28_2 1_555 1_555
O7_2 C19_2 1_555 1_555
C29_2 C20_2 1_555 1_555
H11_2 C29_2 1_555 1_555
C30_2 C23_2 1_555 1_555
H12_2 C30_2 1_555 1_555
O8_2 C31_2 1_555 1_555
C31_2 C32_2 1_555 1_555
C32_2 C36_2 1_555 1_555
C33_2 C21_2 1_555 1_555
C34_2 C33_2 1_555 1_555
C35_2 C37_2 1_555 1_555
C36_2 H13_2 1_555 1_555
C37_2 C34_2 1_555 1_555
C38_2 C35_2 1_555 1_555
H14_2 C38_2 1_555 1_555
O9_2 C39_2 1_555 1_555
C39_2 C40_2 1_555 1_555
C40_2 C44_2 1_555 1_555
C41_2 C13_2 1_555 1_555
C42_2 C41_2 1_555 1_555
C43_2 C45_2 1_555 1_555
C44_2 H15_2 1_555 1_555
C45_2 C42_2 1_555 1_555
C46_2 C43_2 1_555 1_555
H16_2 C46_2 1_555 1_555
O10_2 C31_2 1_555 1_555
C47_2 C32_2 1_555 1_555
H17_2 C47_2 1_555 1_555
C48_2 C35_2 1_555 1_555
H18_2 C48_2 1_555 1_555
O11_2 C39_2 1_555 1_555
C49_2 C40_2 1_555 1_555
H19_2 C49_2 1_555 1_555
C50_2 C43_2 1_555 1_555
H20_2 C50_2 1_555 1_555
O12_2 C51_2 1_555 1_555
C51_2 C52_2 1_555 1_555
C52_2 C56_2 1_555 1_555
C53_2 C33_2 1_555 1_555
C54_2 C53_2 1_555 1_555
C55_2 C57_2 1_555 1_555
C56_2 H21_2 1_555 1_555
C57_2 C54_2 1_555 1_555
C58_2 C55_2 1_555 1_555
H22_2 C58_2 1_555 1_555
O13_2 C51_2 1_555 1_555
C59_2 C52_2 1_555 1_555
H23_2 C59_2 1_555 1_555
C60_2 C55_2 1_555 1_555
H24_2 C60_2 1_555 1_555
Cu2_4 O4_2 1_555 1_555
O14_4 Cu2_4 1_555 1_555
Cu3_4 O3_2 1_555 1_555
O15_4 Cu3_4 1_555 1_555
Cu4_4 O8_2 1_555 1_555
Cu5_2 O9_2 1_555 1_555
Cu6_4 O12_2 1_555 1_555
Cu7_2 O5_2 1_555 1_555
Cu8_4 O13_2 1_555 1_555
Cu9_4 O6_2 1_555 1_555
Cu10_2 O7_2 1_555 1_555
Cu11_4 O10_2 1_555 1_555
Cu12_2 O11_2 1_555 1_555
O18_2 Cu2_4 1_555 1_555
O21_2 Cu1_4 1_555 1_555
O23_2 Cu3_4 1_555 1_555
C6_2 C8_2 1_555 1_555
C9_2 C10_2 1_555 1_555
C16_2 C18_2 1_555 1_555
C24_2 C26_2 1_555 1_555
C27_2 C28_2 1_555 1_555
C29_2 C30_2 1_555 1_555
C36_2 C38_2 1_555 1_555
C41_2 C53_2 1_555 1_555
C44_2 C46_2 1_555 1_555
C47_2 C48_2 1_555 1_555
C49_2 C50_2 1_555 1_555
C56_2 C58_2 1_555 1_555
C59_2 C60_2 1_555 1_555
O16_2 C1_3 1_555 1_555
C1_3 C2_3 1_555 1_555
C2_3 C6_3 1_555 1_555
C3_3 C4_3 1_555 1_555
C4_3 C7_3 1_555 1_555
C5_3 C7_3 1_555 1_555
C6_3 H1_3 1_555 1_555
C8_3 C5_3 1_555 1_555
H2_3 C8_3 1_555 1_555
O19_2 C1_3 1_555 1_555
C9_3 C2_3 1_555 1_555
H3_3 C9_3 1_555 1_555
C10_3 C5_3 1_555 1_555
H4_3 C10_3 1_555 1_555
O22 C11_3 1_555 1_555
C11_3 C12_3 1_555 1_555
C12_3 C16_3 1_555 1_555
C13_3 C3_3 1_555 1_555
C14_3 C13_3 1_555 1_555
C15_3 C17_3 1_555 1_555
C16_3 H5_3 1_555 1_555
C17_3 C14_3 1_555 1_555
C18_3 C15_3 1_555 1_555
H6_3 C18_3 1_555 1_555
O5_3 C19_3 1_555 1_555
C19_3 C20_3 1_555 1_555
C20_3 C24_3 1_555 1_555
C21_3 C3_3 1_555 1_555
C22_3 C21_3 1_555 1_555
C23_3 C25_3 1_555 1_555
C24_3 H7_3 1_555 1_555
C25_3 C22_3 1_555 1_555
C26_3 C23_3 1_555 1_555
H8_3 C26_3 1_555 1_555
O6_3 C11_3 1_555 1_555
C27_3 C12_3 1_555 1_555
H9_3 C27_3 1_555 1_555
C28_3 C15_3 1_555 1_555
H10_3 C28_3 1_555 1_555
O7_3 C19_3 1_555 1_555
C29_3 C20_3 1_555 1_555
H11_3 C29_3 1_555 1_555
C30_3 C23_3 1_555 1_555
H12_3 C30_3 1_555 1_555
O8_3 C31_3 1_555 1_555
C31_3 C32_3 1_555 1_555
C32_3 C36_3 1_555 1_555
C33_3 C21_3 1_555 1_555
C34_3 C33_3 1_555 1_555
C35_3 C37_3 1_555 1_555
C36_3 H13_3 1_555 1_555
C37_3 C34_3 1_555 1_555
C38_3 C35_3 1_555 1_555
H14_3 C38_3 1_555 1_555
O9_3 C39_3 1_555 1_555
C39_3 C40_3 1_555 1_555
C40_3 C44_3 1_555 1_555
C41_3 C13_3 1_555 1_555
C42_3 C41_3 1_555 1_555
C43_3 C45_3 1_555 1_555
C44_3 H15_3 1_555 1_555
C45_3 C42_3 1_555 1_555
C46_3 C43_3 1_555 1_555
H16_3 C46_3 1_555 1_555
O10_3 C31_3 1_555 1_555
C47_3 C32_3 1_555 1_555
H17_3 C47_3 1_555 1_555
C48_3 C35_3 1_555 1_555
H18_3 C48_3 1_555 1_555
O11_3 C39_3 1_555 1_555
C49_3 C40_3 1_555 1_555
H19_3 C49_3 1_555 1_555
C50_3 C43_3 1_555 1_555
H20_3 C50_3 1_555 1_555
O12_3 C51_3 1_555 1_555
C51_3 C52_3 1_555 1_555
C52_3 C56_3 1_555 1_555
C53_3 C33_3 1_555 1_555
C54_3 C53_3 1_555 1_555
C55_3 C57_3 1_555 1_555
C56_3 H21_3 1_555 1_555
C57_3 C54_3 1_555 1_555
C58_3 C55_3 1_555 1_555
H22_3 C58_3 1_555 1_555
O13_3 C51_3 1_555 1_555
C59_3 C52_3 1_555 1_555
H23_3 C59_3 1_555 1_555
C60_3 C55_3 1_555 1_555
H24_3 C60_3 1_555 1_555
Cu4_2 O8_3 1_555 1_555
Cu5_3 O9_3 1_555 1_555
Cu6_3 O12_3 1_555 1_555
Cu7_4 O5_3 1_555 1_555
Cu8_3 O13_3 1_555 1_555
Cu9 O6_3 1_555 1_555
Cu10_4 O7_3 1_555 1_555
Cu11_2 O10_3 1_555 1_555
Cu12_3 O11_3 1_555 1_555
C6_3 C8_3 1_555 1_555
C9_3 C10_3 1_555 1_555
C16_3 C18_3 1_555 1_555
C24_3 C26_3 1_555 1_555
C27_3 C28_3 1_555 1_555
C29_3 C30_3 1_555 1_555
C36_3 C38_3 1_555 1_555
C41_3 C53_3 1_555 1_555
C44_3 C46_3 1_555 1_555
C47_3 C48_3 1_555 1_555
C49_3 C50_3 1_555 1_555
C56_3 C58_3 1_555 1_555
C59_3 C60_3 1_555 1_555
O16 C1_4 1_555 1_555
C1_4 C2_4 1_555 1_555
C2_4 C6_4 1_555 1_555
C3_4 C4_4 1_555 1_555
C4_4 C7_4 1_555 1_555
C5_4 C7_4 1_555 1_555
C6_4 H1_4 1_555 1_555
C8_4 C5_4 1_555 1_555
H2_4 C8_4 1_555 1_555
O19 C1_4 1_555 1_555
C9_4 C2_4 1_555 1_555
H3_4 C9_4 1_555 1_555
C10_4 C5_4 1_555 1_555
H4_4 C10_4 1_555 1_555
O22_2 C11_4 1_555 1_555
C11_4 C12_4 1_555 1_555
C12_4 C16_4 1_555 1_555
C13_4 C3_4 1_555 1_555
C14_4 C13_4 1_555 1_555
C15_4 C17_4 1_555 1_555
C16_4 H5_4 1_555 1_555
C17_4 C14_4 1_555 1_555
C18_4 C15_4 1_555 1_555
H6_4 C18_4 1_555 1_555
O5_4 C19_4 1_555 1_555
C19_4 C20_4 1_555 1_555
C20_4 C24_4 1_555 1_555
C21_4 C3_4 1_555 1_555
C22_4 C21_4 1_555 1_555
C23_4 C25_4 1_555 1_555
C24_4 H7_4 1_555 1_555
C25_4 C22_4 1_555 1_555
C26_4 C23_4 1_555 1_555
H8_4 C26_4 1_555 1_555
O6_4 C11_4 1_555 1_555
C27_4 C12_4 1_555 1_555
H9_4 C27_4 1_555 1_555
C28_4 C15_4 1_555 1_555
H10_4 C28_4 1_555 1_555
O7_4 C19_4 1_555 1_555
C29_4 C20_4 1_555 1_555
H11_4 C29_4 1_555 1_555
C30_4 C23_4 1_555 1_555
H12_4 C30_4 1_555 1_555
O8_4 C31_4 1_555 1_555
C31_4 C32_4 1_555 1_555
C32_4 C36_4 1_555 1_555
C33_4 C21_4 1_555 1_555
C34_4 C33_4 1_555 1_555
C35_4 C37_4 1_555 1_555
C36_4 H13_4 1_555 1_555
C37_4 C34_4 1_555 1_555
C38_4 C35_4 1_555 1_555
H14_4 C38_4 1_555 1_555
O9_4 C39_4 1_555 1_555
C39_4 C40_4 1_555 1_555
C40_4 C44_4 1_555 1_555
C41_4 C13_4 1_555 1_555
C42_4 C41_4 1_555 1_555
C43_4 C45_4 1_555 1_555
C44_4 H15_4 1_555 1_555
C45_4 C42_4 1_555 1_555
C46_4 C43_4 1_555 1_555
H16_4 C46_4 1_555 1_555
O10_4 C31_4 1_555 1_555
C47_4 C32_4 1_555 1_555
H17_4 C47_4 1_555 1_555
C48_4 C35_4 1_555 1_555
H18_4 C48_4 1_555 1_555
O11_4 C39_4 1_555 1_555
C49_4 C40_4 1_555 1_555
H19_4 C49_4 1_555 1_555
C50_4 C43_4 1_555 1_555
H20_4 C50_4 1_555 1_555
O12_4 C51_4 1_555 1_555
C51_4 C52_4 1_555 1_555
C52_4 C56_4 1_555 1_555
C53_4 C33_4 1_555 1_555
C54_4 C53_4 1_555 1_555
C55_4 C57_4 1_555 1_555
C56_4 H21_4 1_555 1_555
C57_4 C54_4 1_555 1_555
C58_4 C55_4 1_555 1_555
H22_4 C58_4 1_555 1_555
O13_4 C51_4 1_555 1_555
C59_4 C52_4 1_555 1_555
H23_4 C59_4 1_555 1_555
C60_4 C55_4 1_555 1_555
H24_4 C60_4 1_555 1_555
Cu4_3 O8_4 1_555 1_555
Cu5_4 O9_4 1_555 1_555
Cu6_2 O12_4 1_555 1_555
Cu7_3 O5_4 1_555 1_555
Cu8_2 O13_4 1_555 1_555
Cu9_3 O6_4 1_555 1_555
Cu10_3 O7_4 1_555 1_555
Cu11_3 O10_4 1_555 1_555
Cu12_4 O11_4 1_555 1_555
C6_4 C8_4 1_555 1_555
C9_4 C10_4 1_555 1_555
C16_4 C18_4 1_555 1_555
C24_4 C26_4 1_555 1_555
C27_4 C28_4 1_555 1_555
C29_4 C30_4 1_555 1_555
C36_4 C38_4 1_555 1_555
C41_4 C53_4 1_555 1_555
C44_4 C46_4 1_555 1_555
C47_4 C48_4 1_555 1_555
C49_4 C50_4 1_555 1_555
C56_4 C58_4 1_555 1_555
C59_4 C60_4 1_555 1_555
O2_5 Cu4 1_555 1_555
O14_5 Cu7_3 1_555 1_555
O15_5 Cu11 1_555 1_555
O17_3 Cu7_3 1_555 1_555
O20_3 Cu4 1_555 1_555
O24_3 Cu11 1_555 1_555
O2_6 Cu4_2 1_555 1_555
O14_6 Cu7_4 1_555 1_555
O15_6 Cu11_2 1_555 1_555
O18_3 Cu7_4 1_555 1_555
O21_3 Cu4_2 1_555 1_555
O23_3 Cu11_2 1_555 1_555
O2_7 Cu4_3 1_555 1_555
O14_7 Cu7 1_555 1_555
O15_7 Cu11_3 1_555 1_555
O17_4 Cu7 1_555 1_555
O20_4 Cu4_3 1_555 1_555
O24_4 Cu11_3 1_555 1_555
O2_8 Cu4_4 1_555 1_555
O14_8 Cu7_2 1_555 1_555
O15_8 Cu11_4 1_555 1_555
O18_4 Cu7_2 1_555 1_555
O21_4 Cu4_4 1_555 1_555
O23_4 Cu11_4 1_555 1_555
O2_9 Cu5_3 1_555 1_555
O14_9 Cu6 1_555 1_555
O15_9 Cu12_3 1_555 1_555
O17_5 Cu6 1_555 1_555
O20_5 Cu5_3 1_555 1_555
O24_5 Cu12_3 1_555 1_555
O2_10 Cu5_4 1_555 1_555
O14_10 Cu6_2 1_555 1_555
O15_10 Cu12_4 1_555 1_555
O18_5 Cu6_2 1_555 1_555
O21_5 Cu5_4 1_555 1_555
O23_5 Cu12_4 1_555 1_555
O2_11 Cu5 1_555 1_555
O14_11 Cu6_3 1_555 1_555
O15_11 Cu12 1_555 1_555
O17_6 Cu6_3 1_555 1_555
O20_6 Cu5 1_555 1_555
O24_6 Cu12 1_555 1_555
O2_12 Cu5_2 1_555 1_555
O14_12 Cu6_4 1_555 1_555
O15_12 Cu12_2 1_555 1_555
O18_6 Cu6_4 1_555 1_555
O21_6 Cu5_2 1_555 1_555
O23_6 Cu12_2 1_555 1_555
O17 C1_5 1_555 1_555
C1_5 C2_5 1_555 1_555
C2_5 C6_5 1_555 1_555
C3_5 C4_5 1_555 1_555
C4_5 C7_5 1_555 1_555
C5_5 C7_5 1_555 1_555
C6_5 H1_5 1_555 1_555
C8_5 C5_5 1_555 1_555
H2_5 C8_5 1_555 1_555
O3_3 C1_5 1_555 1_555
C9_5 C2_5 1_555 1_555
H3_5 C9_5 1_555 1_555
C10_5 C5_5 1_555 1_555
H4_5 C10_5 1_555 1_555
O20 C11_5 1_555 1_555
C11_5 C12_5 1_555 1_555
C12_5 C16_5 1_555 1_555
C13_5 C3_5 1_555 1_555
C14_5 C13_5 1_555 1_555
C15_5 C17_5 1_555 1_555
C16_5 H5_5 1_555 1_555
C17_5 C14_5 1_555 1_555
C18_5 C15_5 1_555 1_555
H6_5 C18_5 1_555 1_555
O20_5 C19_5 1_555 1_555
C19_5 C20_5 1_555 1_555
C20_5 C24_5 1_555 1_555
C21_5 C3_5 1_555 1_555
C22_5 C21_5 1_555 1_555
C23_5 C25_5 1_555 1_555
C24_5 H7_5 1_555 1_555
C25_5 C22_5 1_555 1_555
C26_5 C23_5 1_555 1_555
H8_5 C26_5 1_555 1_555
O24 C11_5 1_555 1_555
C27_5 C12_5 1_555 1_555
H9_5 C27_5 1_555 1_555
C28_5 C15_5 1_555 1_555
H10_5 C28_5 1_555 1_555
O24_5 C19_5 1_555 1_555
C29_5 C20_5 1_555 1_555
H11_5 C29_5 1_555 1_555
C30_5 C23_5 1_555 1_555
H12_5 C30_5 1_555 1_555
O17_5 C31_5 1_555 1_555
C31_5 C32_5 1_555 1_555
C32_5 C36_5 1_555 1_555
C33_5 C21_5 1_555 1_555
C34_5 C33_5 1_555 1_555
C35_5 C37_5 1_555 1_555
C36_5 H13_5 1_555 1_555
C37_5 C34_5 1_555 1_555
C38_5 C35_5 1_555 1_555
H14_5 C38_5 1_555 1_555
O17_3 C39_5 1_555 1_555
C39_5 C40_5 1_555 1_555
C40_5 C44_5 1_555 1_555
C41_5 C13_5 1_555 1_555
C42_5 C41_5 1_555 1_555
C43_5 C45_5 1_555 1_555
C44_5 H15_5 1_555 1_555
C45_5 C42_5 1_555 1_555
C46_5 C43_5 1_555 1_555
H16_5 C46_5 1_555 1_555
O10_5 C31_5 1_555 1_555
C47_5 C32_5 1_555 1_555
H17_5 C47_5 1_555 1_555
C48_5 C35_5 1_555 1_555
H18_5 C48_5 1_555 1_555
O11_5 C39_5 1_555 1_555
C49_5 C40_5 1_555 1_555
H19_5 C49_5 1_555 1_555
C50_5 C43_5 1_555 1_555
H20_5 C50_5 1_555 1_555
O20_3 C51_5 1_555 1_555
C51_5 C52_5 1_555 1_555
C52_5 C56_5 1_555 1_555
C53_5 C33_5 1_555 1_555
C54_5 C53_5 1_555 1_555
C55_5 C57_5 1_555 1_555
C56_5 H21_5 1_555 1_555
C57_5 C54_5 1_555 1_555
C58_5 C55_5 1_555 1_555
H22_5 C58_5 1_555 1_555
O24_3 C51_5 1_555 1_555
C59_5 C52_5 1_555 1_555
H23_5 C59_5 1_555 1_555
C60_5 C55_5 1_555 1_555
H24_5 C60_5 1_555 1_555
Cu9 O3_3 1_555 1_555
O15_13 Cu9 1_555 1_555
Cu8 O10_5 1_555 1_555
Cu10_3 O11_5 1_555 1_555
C6_5 C8_5 1_555 1_555
C9_5 C10_5 1_555 1_555
C16_5 C18_5 1_555 1_555
C24_5 C26_5 1_555 1_555
C27_5 C28_5 1_555 1_555
C29_5 C30_5 1_555 1_555
C36_5 C38_5 1_555 1_555
C41_5 C53_5 1_555 1_555
C44_5 C46_5 1_555 1_555
C47_5 C48_5 1_555 1_555
C49_5 C50_5 1_555 1_555
C56_5 C58_5 1_555 1_555
C59_5 C60_5 1_555 1_555
O15_14 Cu9_2 1_555 1_555
O19_3 Cu9_2 1_555 1_555
O17_2 C1_6 1_555 1_555
C1_6 C2_6 1_555 1_555
C2_6 C6_6 1_555 1_555
C3_6 C4_6 1_555 1_555
C4_6 C7_6 1_555 1_555
C5_6 C7_6 1_555 1_555
C6_6 H1_6 1_555 1_555
C8_6 C5_6 1_555 1_555
H2_6 C8_6 1_555 1_555
O3_4 C1_6 1_555 1_555
C9_6 C2_6 1_555 1_555
H3_6 C9_6 1_555 1_555
C10_6 C5_6 1_555 1_555
H4_6 C10_6 1_555 1_555
O20_2 C11_6 1_555 1_555
C11_6 C12_6 1_555 1_555
C12_6 C16_6 1_555 1_555
C13_6 C3_6 1_555 1_555
C14_6 C13_6 1_555 1_555
C15_6 C17_6 1_555 1_555
C16_6 H5_6 1_555 1_555
C17_6 C14_6 1_555 1_555
C18_6 C15_6 1_555 1_555
H6_6 C18_6 1_555 1_555
O21_5 C19_6 1_555 1_555
C19_6 C20_6 1_555 1_555
C20_6 C24_6 1_555 1_555
C21_6 C3_6 1_555 1_555
C22_6 C21_6 1_555 1_555
C23_6 C25_6 1_555 1_555
C24_6 H7_6 1_555 1_555
C25_6 C22_6 1_555 1_555
C26_6 C23_6 1_555 1_555
H8_6 C26_6 1_555 1_555
O24_2 C11_6 1_555 1_555
C27_6 C12_6 1_555 1_555
H9_6 C27_6 1_555 1_555
C28_6 C15_6 1_555 1_555
H10_6 C28_6 1_555 1_555
O23_5 C19_6 1_555 1_555
C29_6 C20_6 1_555 1_555
H11_6 C29_6 1_555 1_555
C30_6 C23_6 1_555 1_555
H12_6 C30_6 1_555 1_555
O18_6 C31_6 1_555 1_555
C31_6 C32_6 1_555 1_555
C32_6 C36_6 1_555 1_555
C33_6 C21_6 1_555 1_555
C34_6 C33_6 1_555 1_555
C35_6 C37_6 1_555 1_555
C36_6 H13_6 1_555 1_555
C37_6 C34_6 1_555 1_555
C38_6 C35_6 1_555 1_555
H14_6 C38_6 1_555 1_555
O18_3 C39_6 1_555 1_555
C39_6 C40_6 1_555 1_555
C40_6 C44_6 1_555 1_555
C41_6 C13_6 1_555 1_555
C42_6 C41_6 1_555 1_555
C43_6 C45_6 1_555 1_555
C44_6 H15_6 1_555 1_555
C45_6 C42_6 1_555 1_555
C46_6 C43_6 1_555 1_555
H16_6 C46_6 1_555 1_555
O10_6 C31_6 1_555 1_555
C47_6 C32_6 1_555 1_555
H17_6 C47_6 1_555 1_555
C48_6 C35_6 1_555 1_555
H18_6 C48_6 1_555 1_555
O11_6 C39_6 1_555 1_555
C49_6 C40_6 1_555 1_555
H19_6 C49_6 1_555 1_555
C50_6 C43_6 1_555 1_555
H20_6 C50_6 1_555 1_555
O21_4 C51_6 1_555 1_555
C51_6 C52_6 1_555 1_555
C52_6 C56_6 1_555 1_555
C53_6 C33_6 1_555 1_555
C54_6 C53_6 1_555 1_555
C55_6 C57_6 1_555 1_555
C56_6 H21_6 1_555 1_555
C57_6 C54_6 1_555 1_555
C58_6 C55_6 1_555 1_555
H22_6 C58_6 1_555 1_555
O23_4 C51_6 1_555 1_555
C59_6 C52_6 1_555 1_555
H23_6 C59_6 1_555 1_555
C60_6 C55_6 1_555 1_555
H24_6 C60_6 1_555 1_555
Cu9_3 O3_4 1_555 1_555
O15_15 Cu9_3 1_555 1_555
Cu8_4 O10_6 1_555 1_555
Cu10_4 O11_6 1_555 1_555
C6_6 C8_6 1_555 1_555
C9_6 C10_6 1_555 1_555
C16_6 C18_6 1_555 1_555
C24_6 C26_6 1_555 1_555
C27_6 C28_6 1_555 1_555
C29_6 C30_6 1_555 1_555
C36_6 C38_6 1_555 1_555
C41_6 C53_6 1_555 1_555
C44_6 C46_6 1_555 1_555
C47_6 C48_6 1_555 1_555
C49_6 C50_6 1_555 1_555
C56_6 C58_6 1_555 1_555
C59_6 C60_6 1_555 1_555
O15_16 Cu9_4 1_555 1_555
O19_4 Cu9_4 1_555 1_555
O18_2 C1_7 1_555 1_555
C1_7 C2_7 1_555 1_555
C2_7 C6_7 1_555 1_555
C3_7 C4_7 1_555 1_555
C4_7 C7_7 1_555 1_555
C5_7 C7_7 1_555 1_555
C6_7 H1_7 1_555 1_555
C8_7 C5_7 1_555 1_555
H2_7 C8_7 1_555 1_555
O19_4 C1_7 1_555 1_555
C9_7 C2_7 1_555 1_555
H3_7 C9_7 1_555 1_555
C10_7 C5_7 1_555 1_555
H4_7 C10_7 1_555 1_555
O21 C11_7 1_555 1_555
C11_7 C12_7 1_555 1_555
C12_7 C16_7 1_555 1_555
C13_7 C3_7 1_555 1_555
C14_7 C13_7 1_555 1_555
C15_7 C17_7 1_555 1_555
C16_7 H5_7 1_555 1_555
C17_7 C14_7 1_555 1_555
C18_7 C15_7 1_555 1_555
H6_7 C18_7 1_555 1_555
O21_6 C19_7 1_555 1_555
C19_7 C20_7 1_555 1_555
C20_7 C24_7 1_555 1_555
C21_7 C3_7 1_555 1_555
C22_7 C21_7 1_555 1_555
C23_7 C25_7 1_555 1_555
C24_7 H7_7 1_555 1_555
C25_7 C22_7 1_555 1_555
C26_7 C23_7 1_555 1_555
H8_7 C26_7 1_555 1_555
O23 C11_7 1_555 1_555
C27_7 C12_7 1_555 1_555
H9_7 C27_7 1_555 1_555
C28_7 C15_7 1_555 1_555
H10_7 C28_7 1_555 1_555
O23_6 C19_7 1_555 1_555
C29_7 C20_7 1_555 1_555
H11_7 C29_7 1_555 1_555
C30_7 C23_7 1_555 1_555
H12_7 C30_7 1_555 1_555
O18_5 C31_7 1_555 1_555
C31_7 C32_7 1_555 1_555
C32_7 C36_7 1_555 1_555
C33_7 C21_7 1_555 1_555
C34_7 C33_7 1_555 1_555
C35_7 C37_7 1_555 1_555
C36_7 H13_7 1_555 1_555
C37_7 C34_7 1_555 1_555
C38_7 C35_7 1_555 1_555
H14_7 C38_7 1_555 1_555
O17_4 C39_7 1_555 1_555
C39_7 C40_7 1_555 1_555
C40_7 C44_7 1_555 1_555
C41_7 C13_7 1_555 1_555
C42_7 C41_7 1_555 1_555
C43_7 C45_7 1_555 1_555
C44_7 H15_7 1_555 1_555
C45_7 C42_7 1_555 1_555
C46_7 C43_7 1_555 1_555
H16_7 C46_7 1_555 1_555
O10_7 C31_7 1_555 1_555
C47_7 C32_7 1_555 1_555
H17_7 C47_7 1_555 1_555
C48_7 C35_7 1_555 1_555
H18_7 C48_7 1_555 1_555
O11_7 C39_7 1_555 1_555
C49_7 C40_7 1_555 1_555
H19_7 C49_7 1_555 1_555
C50_7 C43_7 1_555 1_555
H20_7 C50_7 1_555 1_555
O20_4 C51_7 1_555 1_555
C51_7 C52_7 1_555 1_555
C52_7 C56_7 1_555 1_555
C53_7 C33_7 1_555 1_555
C54_7 C53_7 1_555 1_555
C55_7 C57_7 1_555 1_555
C56_7 H21_7 1_555 1_555
C57_7 C54_7 1_555 1_555
C58_7 C55_7 1_555 1_555
H22_7 C58_7 1_555 1_555
O24_4 C51_7 1_555 1_555
C59_7 C52_7 1_555 1_555
H23_7 C59_7 1_555 1_555
C60_7 C55_7 1_555 1_555
H24_7 C60_7 1_555 1_555
Cu8_2 O10_7 1_555 1_555
Cu10 O11_7 1_555 1_555
C6_7 C8_7 1_555 1_555
C9_7 C10_7 1_555 1_555
C16_7 C18_7 1_555 1_555
C24_7 C26_7 1_555 1_555
C27_7 C28_7 1_555 1_555
C29_7 C30_7 1_555 1_555
C36_7 C38_7 1_555 1_555
C41_7 C53_7 1_555 1_555
C44_7 C46_7 1_555 1_555
C47_7 C48_7 1_555 1_555
C49_7 C50_7 1_555 1_555
C56_7 C58_7 1_555 1_555
C59_7 C60_7 1_555 1_555
O18 C1_8 1_555 1_555
C1_8 C2_8 1_555 1_555
C2_8 C6_8 1_555 1_555
C3_8 C4_8 1_555 1_555
C4_8 C7_8 1_555 1_555
C5_8 C7_8 1_555 1_555
C6_8 H1_8 1_555 1_555
C8_8 C5_8 1_555 1_555
H2_8 C8_8 1_555 1_555
O19_3 C1_8 1_555 1_555
C9_8 C2_8 1_555 1_555
H3_8 C9_8 1_555 1_555
C10_8 C5_8 1_555 1_555
H4_8 C10_8 1_555 1_555
O21_2 C11_8 1_555 1_555
C11_8 C12_8 1_555 1_555
C12_8 C16_8 1_555 1_555
C13_8 C3_8 1_555 1_555
C14_8 C13_8 1_555 1_555
C15_8 C17_8 1_555 1_555
C16_8 H5_8 1_555 1_555
C17_8 C14_8 1_555 1_555
C18_8 C15_8 1_555 1_555
H6_8 C18_8 1_555 1_555
O20_6 C19_8 1_555 1_555
C19_8 C20_8 1_555 1_555
C20_8 C24_8 1_555 1_555
C21_8 C3_8 1_555 1_555
C22_8 C21_8 1_555 1_555
C23_8 C25_8 1_555 1_555
C24_8 H7_8 1_555 1_555
C25_8 C22_8 1_555 1_555
C26_8 C23_8 1_555 1_555
H8_8 C26_8 1_555 1_555
O23_2 C11_8 1_555 1_555
C27_8 C12_8 1_555 1_555
H9_8 C27_8 1_555 1_555
C28_8 C15_8 1_555 1_555
H10_8 C28_8 1_555 1_555
O24_6 C19_8 1_555 1_555
C29_8 C20_8 1_555 1_555
H11_8 C29_8 1_555 1_555
C30_8 C23_8 1_555 1_555
H12_8 C30_8 1_555 1_555
O17_6 C31_8 1_555 1_555
C31_8 C32_8 1_555 1_555
C32_8 C36_8 1_555 1_555
C33_8 C21_8 1_555 1_555
C34_8 C33_8 1_555 1_555
C35_8 C37_8 1_555 1_555
C36_8 H13_8 1_555 1_555
C37_8 C34_8 1_555 1_555
C38_8 C35_8 1_555 1_555
H14_8 C38_8 1_555 1_555
O18_4 C39_8 1_555 1_555
C39_8 C40_8 1_555 1_555
C40_8 C44_8 1_555 1_555
C41_8 C13_8 1_555 1_555
C42_8 C41_8 1_555 1_555
C43_8 C45_8 1_555 1_555
C44_8 H15_8 1_555 1_555
C45_8 C42_8 1_555 1_555
C46_8 C43_8 1_555 1_555
H16_8 C46_8 1_555 1_555
O10_8 C31_8 1_555 1_555
C47_8 C32_8 1_555 1_555
H17_8 C47_8 1_555 1_555
C48_8 C35_8 1_555 1_555
H18_8 C48_8 1_555 1_555
O11_8 C39_8 1_555 1_555
C49_8 C40_8 1_555 1_555
H19_8 C49_8 1_555 1_555
C50_8 C43_8 1_555 1_555
H20_8 C50_8 1_555 1_555
O21_3 C51_8 1_555 1_555
C51_8 C52_8 1_555 1_555
C52_8 C56_8 1_555 1_555
C53_8 C33_8 1_555 1_555
C54_8 C53_8 1_555 1_555
C55_8 C57_8 1_555 1_555
C56_8 H21_8 1_555 1_555
C57_8 C54_8 1_555 1_555
C58_8 C55_8 1_555 1_555
H22_8 C58_8 1_555 1_555
O23_3 C51_8 1_555 1_555
C59_8 C52_8 1_555 1_555
H23_8 C59_8 1_555 1_555
C60_8 C55_8 1_555 1_555
H24_8 C60_8 1_555 1_555
Cu8_3 O10_8 1_555 1_555
Cu10_2 O11_8 1_555 1_555
C6_8 C8_8 1_555 1_555
C9_8 C10_8 1_555 1_555
C16_8 C18_8 1_555 1_555
C24_8 C26_8 1_555 1_555
C27_8 C28_8 1_555 1_555
C29_8 C30_8 1_555 1_555
C36_8 C38_8 1_555 1_555
C41_8 C53_8 1_555 1_555
C44_8 C46_8 1_555 1_555
C47_8 C48_8 1_555 1_555
C49_8 C50_8 1_555 1_555
C56_8 C58_8 1_555 1_555
C59_8 C60_8 1_555 1_555
O15_17 Cu8 1_555 1_555
O15_18 Cu8_2 1_555 1_555
O15_19 Cu8_3 1_555 1_555
O15_20 Cu8_4 1_555 1_555
O15_21 Cu10 1_555 1_555
O15_22 Cu10_2 1_555 1_555
O15_23 Cu10_3 1_555 1_555
O15_24 Cu10_4 1_555 1_555

#END
