
###############################################################################
#
# This file contains modified crystal structure data generated from the
# MOF subset of the Cambridge Structural Database (CSD) v543 
# hosted by the Cambridge Crystallographic Data Centre (CCDC).
#
# This work is licensed under the Creative Commons
# Attribution-NonCommercial-ShareAlike 4.0 International License.
# To view a copy of this license, visit
# http://creativecommons.org/licenses/by-nc-sa/4.0/
# or send a letter to
# Creative Commons, PO Box 1866, Mountain View, CA 94042, USA.
#
# CIF created using the CSD Python API on 29 September 2022
# The structure has been converted into the P1 space group
# The structure has a 3D framework
# The original CSD entry CEFNIN is in the cubic crystal system
# The framework has been calculated to contain at least 10.0% void space
# The void calculation uses a probe of radius 1.32A, grid spacing 0.4
# H atom positions have been added when not included in the experimental data
# Generated hydrogen atom positions removed from atoms on special positions
#
###############################################################################

data_CEFNIN
_chemical_formula_moiety         '(C672 H672 Cu48 O144)n'
_symmetry_cell_setting           triclinic
_symmetry_space_group_name_H-M   'P 1'
_symmetry_Int_Tables_number      1
_space_group_name_Hall           'P 1'
loop_
_symmetry_equiv_pos_site_id
_symmetry_equiv_pos_as_xyz
1 x,y,z
_cell_length_a                   39.618(3)
_cell_length_b                   39.618(3)
_cell_length_c                   39.618(3)
_cell_angle_alpha                90
_cell_angle_beta                 90
_cell_angle_gamma                90
_cell_volume                     62183.9
loop_
_atom_site_label
_atom_site_type_symbol
_atom_site_fract_x
_atom_site_fract_y
_atom_site_fract_z
Cu1 Cu 0.21664(3) 0.5000 0.0000
O2 O 0.1618(3) 0.5000 0.0000
Cu2 Cu 0.5000 0.21664(3) 0.0000
O14 O 0.5000 0.1618(3) 0.0000
Cu3 Cu 0.28336(3) 0.5000 0.0000
O15 O 0.3382(3) 0.5000 0.0000
Cu9 Cu 0.5000 0.28336(3) 0.0000
O16 O 0.22106(10) 0.53479(7) 0.03478(8)
O17 O 0.46521(7) 0.22106(10) 0.03478(8)
O19 O 0.27894(10) 0.53478(8) 0.03479(7)
O20 O 0.22106(10) 0.46521(7) 0.03478(8)
O22 O 0.53479(7) 0.22106(10) 0.03478(8)
O24 O 0.27894(10) 0.46522(8) 0.03479(7)
Cu1_2 Cu 0.21664(3) 0.5000 1.0000
O1 O 0.22106(10) 0.46521(7) 0.96522(8)
O2_2 O 0.1618(3) 0.5000 1.0000
C1 C 0.2500 0.27522(7) 0.77522(7)
C2 C 0.2500 0.30157(7) 0.80157(7)
C3 C 0.2309(3) 0.29780(19) 0.83059(19)
H1 H 0.2175 0.2787 0.8335
C4 C 0.2316(3) 0.32285(18) 0.85561(18)
H2 H 0.2192 0.3196 0.8753
C5 C 0.2500 0.35195(9) 0.85195(9)
C6 C 0.2500 0.37805(9) 0.87805(9)
C7 C 0.21973(19) 0.3896(2) 0.8926(2)
H3 H 0.1992 0.3812 0.8849
C8 C 0.22024(18) 0.41331(17) 0.91812(19)
H4 H 0.2001 0.4192 0.9286
C9 C 0.2500 0.42852(8) 0.92852(8)
C10 C 0.2500 0.45526(11) 0.95526(11)
O3 O 0.27894(10) 0.46522(8) 0.96521(7)
C11 C 0.2691(3) 0.33059(19) 0.79780(19)
H5 H 0.2825 0.3335 0.7787
C12 C 0.2684(3) 0.35561(18) 0.82285(18)
H6 H 0.2808 0.3753 0.8196
C13 C 0.28027(19) 0.3926(2) 0.8896(2)
H7 H 0.3008 0.3849 0.8812
C14 C 0.27976(18) 0.41812(19) 0.91331(17)
H8 H 0.2999 0.4286 0.9192
O4 O 0.46521(7) 0.22106(10) 0.96522(8)
C15 C 0.27522(7) 0.2500 0.77522(7)
C16 C 0.30157(7) 0.2500 0.80157(7)
C17 C 0.29780(19) 0.2309(3) 0.83059(19)
H9 H 0.2787 0.2175 0.8335
C18 C 0.32285(18) 0.2316(3) 0.85561(18)
H10 H 0.3196 0.2192 0.8753
C19 C 0.35195(9) 0.2500 0.85195(9)
C20 C 0.37805(9) 0.2500 0.87805(9)
C21 C 0.3896(2) 0.21973(19) 0.8926(2)
H11 H 0.3812 0.1992 0.8849
C22 C 0.41331(17) 0.22024(18) 0.91812(19)
H12 H 0.4192 0.2001 0.9286
C23 C 0.42852(8) 0.2500 0.92852(8)
C24 C 0.45526(11) 0.2500 0.95526(11)
O5 O 0.03478(8) 0.46521(7) 0.77894(10)
C25 C 0.22478(7) 0.27522(7) 0.7500
C26 C 0.19843(7) 0.30157(7) 0.7500
C27 C 0.16941(19) 0.29780(19) 0.7691(3)
H13 H 0.1665 0.2787 0.7825
C28 C 0.14439(18) 0.32285(18) 0.7684(3)
H14 H 0.1247 0.3196 0.7808
C29 C 0.14805(9) 0.35195(9) 0.7500
C30 C 0.12195(9) 0.37805(9) 0.7500
C31 C 0.1074(2) 0.3896(2) 0.78027(19)
H15 H 0.1151 0.3812 0.8008
C32 C 0.08188(19) 0.41331(17) 0.77976(18)
H16 H 0.0714 0.4192 0.7999
C33 C 0.07148(8) 0.42852(8) 0.7500
C34 C 0.04474(11) 0.45526(11) 0.7500
O6 O 0.46522(8) 0.27894(10) 0.96521(7)
C35 C 0.33059(19) 0.2691(3) 0.79780(19)
H17 H 0.3335 0.2825 0.7787
C36 C 0.35561(18) 0.2684(3) 0.82285(18)
H18 H 0.3753 0.2808 0.8196
C37 C 0.3926(2) 0.28027(19) 0.8896(2)
H19 H 0.3849 0.3008 0.8812
C38 C 0.41812(19) 0.27976(18) 0.91331(17)
H20 H 0.4286 0.2999 0.9192
O7 O 0.03479(7) 0.46522(8) 0.72106(10)
C39 C 0.20220(19) 0.33059(19) 0.7309(3)
H21 H 0.2213 0.3335 0.7175
C40 C 0.17715(18) 0.35561(18) 0.7316(3)
H22 H 0.1804 0.3753 0.7192
C41 C 0.1104(2) 0.3926(2) 0.71973(19)
H23 H 0.1188 0.3849 0.6992
C42 C 0.08669(17) 0.41812(19) 0.72024(18)
H24 H 0.0808 0.4286 0.7001
O8 O 0.03478(8) 0.22106(10) 0.53479(7)
C43 C 0.22478(7) 0.2500 0.72478(7)
C44 C 0.19843(7) 0.2500 0.69843(7)
C45 C 0.16941(19) 0.2309(3) 0.70220(19)
H25 H 0.1665 0.2175 0.7213
C46 C 0.14439(18) 0.2316(3) 0.67715(18)
H26 H 0.1247 0.2192 0.6804
C47 C 0.14805(9) 0.2500 0.64805(9)
C48 C 0.12195(9) 0.2500 0.62195(9)
C49 C 0.1074(2) 0.21973(19) 0.6104(2)
H27 H 0.1151 0.1992 0.6188
C50 C 0.08188(19) 0.22024(18) 0.58669(17)
H28 H 0.0714 0.2001 0.5808
C51 C 0.07148(8) 0.2500 0.57148(8)
C52 C 0.04474(11) 0.2500 0.54474(11)
O9 O 0.46521(7) 0.03478(8) 0.77894(10)
C53 C 0.27522(7) 0.22478(7) 0.7500
C54 C 0.30157(7) 0.19843(7) 0.7500
C55 C 0.29780(19) 0.16941(19) 0.7691(3)
H29 H 0.2787 0.1665 0.7825
C56 C 0.32285(18) 0.14439(18) 0.7684(3)
H30 H 0.3196 0.1247 0.7808
C57 C 0.35195(9) 0.14805(9) 0.7500
C58 C 0.37805(9) 0.12195(9) 0.7500
C59 C 0.3896(2) 0.1074(2) 0.78027(19)
H31 H 0.3812 0.1151 0.8008
C60 C 0.41331(17) 0.08188(19) 0.77976(18)
H32 H 0.4192 0.0714 0.7999
C61 C 0.42852(8) 0.07148(8) 0.7500
C62 C 0.45526(11) 0.04474(11) 0.7500
O10 O 0.03479(7) 0.27894(10) 0.53478(8)
C63 C 0.20220(19) 0.2691(3) 0.66941(19)
H33 H 0.2213 0.2825 0.6665
C64 C 0.17715(18) 0.2684(3) 0.64439(18)
H34 H 0.1804 0.2808 0.6247
C65 C 0.1104(2) 0.28027(19) 0.6074(2)
H35 H 0.1188 0.3008 0.6151
C66 C 0.08669(17) 0.27976(18) 0.58188(19)
H36 H 0.0808 0.2999 0.5714
O11 O 0.46522(8) 0.03479(7) 0.72106(10)
C67 C 0.33059(19) 0.20220(19) 0.7309(3)
H37 H 0.3335 0.2213 0.7175
C68 C 0.35561(18) 0.17715(18) 0.7316(3)
H38 H 0.3753 0.1804 0.7192
C69 C 0.3926(2) 0.1104(2) 0.71973(19)
H39 H 0.3849 0.1188 0.6992
C70 C 0.41812(19) 0.08669(17) 0.72024(18)
H40 H 0.4286 0.0808 0.7001
O12 O 0.22106(10) 0.03478(8) 0.53479(7)
C71 C 0.2500 0.22478(7) 0.72478(7)
C72 C 0.2500 0.19843(7) 0.69843(7)
C73 C 0.2309(3) 0.16941(19) 0.70220(19)
H41 H 0.2175 0.1665 0.7213
C74 C 0.2316(3) 0.14439(18) 0.67715(18)
H42 H 0.2192 0.1247 0.6804
C75 C 0.2500 0.14805(9) 0.64805(9)
C76 C 0.2500 0.12195(9) 0.62195(9)
C77 C 0.21973(19) 0.1074(2) 0.6104(2)
H43 H 0.1992 0.1151 0.6188
C78 C 0.22024(18) 0.08188(19) 0.58669(17)
H44 H 0.2001 0.0714 0.5808
C79 C 0.2500 0.07148(8) 0.57148(8)
C80 C 0.2500 0.04474(11) 0.54474(11)
O13 O 0.27894(10) 0.03479(7) 0.53478(8)
C81 C 0.2691(3) 0.20220(19) 0.66941(19)
H45 H 0.2825 0.2213 0.6665
C82 C 0.2684(3) 0.17715(18) 0.64439(18)
H46 H 0.2808 0.1804 0.6247
C83 C 0.28027(19) 0.1104(2) 0.6074(2)
H47 H 0.3008 0.1188 0.6151
C84 C 0.27976(18) 0.08669(17) 0.58188(19)
H48 H 0.2999 0.0808 0.5714
Cu2_2 Cu 0.5000 0.21664(3) 1.0000
O14_2 O 0.5000 0.1618(3) 1.0000
Cu3_2 Cu 0.28336(3) 0.5000 1.0000
O15_2 O 0.3382(3) 0.5000 1.0000
Cu4 Cu 0.0000 0.21664(3) 0.5000
Cu5 Cu 0.5000 0.0000 0.78336(3)
Cu6 Cu 0.21664(3) 0.0000 0.5000
Cu7 Cu -0.0000 0.5000 0.78336(3)
Cu8 Cu 0.28336(3) 0.0000 0.5000
Cu9_2 Cu 0.5000 0.28336(3) 1.0000
Cu10 Cu -0.0000 0.5000 0.71664(3)
Cu11 Cu -0.0000 0.28336(3) 0.5000
Cu12 Cu 0.5000 0.0000 0.71664(3)
O18 O 0.53479(7) 0.22106(10) 0.96522(8)
O21 O 0.22106(10) 0.53479(7) 0.96522(8)
O23 O 0.27894(10) 0.53478(8) 0.96521(7)
Cu5_2 Cu 0.5000 1.0000 0.78336(3)
Cu6_2 Cu 0.21664(3) 1.0000 0.5000
Cu8_2 Cu 0.28336(3) 1.0000 0.5000
Cu12_2 Cu 0.5000 1.0000 0.71664(3)
Cu4_2 Cu 1.0000 0.21664(3) 0.5000
Cu7_2 Cu 1.0000 0.5000 0.78336(3)
Cu10_2 Cu 1.0000 0.5000 0.71664(3)
Cu11_2 Cu 1.0000 0.28336(3) 0.5000
Cu4_3 Cu -0.0000 0.78336(3) 0.5000
Cu11_3 Cu -0.0000 0.71664(3) 0.5000
Cu6_3 Cu 0.78336(3) 0.0000 0.5000
Cu8_3 Cu 0.71664(3) 0.0000 0.5000
Cu1_3 Cu 0.78336(3) 0.5000 0.0000
O2_3 O 0.8382(3) 0.5000 0.0000
Cu2_3 Cu 0.5000 0.78336(3) 0.0000
O14_3 O 0.5000 0.8382(3) 0.0000
Cu3_3 Cu 0.71664(3) 0.5000 0.0000
O15_3 O 0.6618(3) 0.5000 0.0000
Cu9_3 Cu 0.5000 0.71664(3) 0.0000
O16_2 O 0.77894(10) 0.46521(7) 0.03478(8)
O17_2 O 0.53479(7) 0.77894(10) 0.03478(8)
O19_2 O 0.72106(10) 0.46522(8) 0.03479(7)
O20_2 O 0.77894(10) 0.53479(7) 0.03478(8)
O22_2 O 0.46521(7) 0.77894(10) 0.03478(8)
O24_2 O 0.72106(10) 0.53478(8) 0.03479(7)
Cu1_4 Cu 0.78336(3) 0.5000 1.0000
O1_2 O 0.77894(10) 0.53479(7) 0.96522(8)
O2_4 O 0.8382(3) 0.5000 1.0000
C1_2 C 0.7500 0.72478(7) 0.77522(7)
C2_2 C 0.7500 0.69843(7) 0.80157(7)
C3_2 C 0.7691(3) 0.70220(19) 0.83059(19)
H1_2 H 0.7825 0.7213 0.8335
C4_2 C 0.7684(3) 0.67715(18) 0.85561(18)
H2_2 H 0.7808 0.6804 0.8753
C5_2 C 0.7500 0.64805(9) 0.85195(9)
C6_2 C 0.7500 0.62195(9) 0.87805(9)
C7_2 C 0.78027(19) 0.6104(2) 0.8926(2)
H3_2 H 0.8008 0.6188 0.8849
C8_2 C 0.77976(18) 0.58669(17) 0.91812(19)
H4_2 H 0.7999 0.5808 0.9286
C9_2 C 0.7500 0.57148(8) 0.92852(8)
C10_2 C 0.7500 0.54474(11) 0.95526(11)
O3_2 O 0.72106(10) 0.53478(8) 0.96521(7)
C11_2 C 0.7309(3) 0.66941(19) 0.79780(19)
H5_2 H 0.7175 0.6665 0.7787
C12_2 C 0.7316(3) 0.64439(18) 0.82285(18)
H6_2 H 0.7192 0.6247 0.8196
C13_2 C 0.71973(19) 0.6074(2) 0.8896(2)
H7_2 H 0.6992 0.6151 0.8812
C14_2 C 0.72024(18) 0.58188(19) 0.91331(17)
H8_2 H 0.7001 0.5714 0.9192
O4_2 O 0.53479(7) 0.77894(10) 0.96522(8)
C15_2 C 0.72478(7) 0.7500 0.77522(7)
C16_2 C 0.69843(7) 0.7500 0.80157(7)
C17_2 C 0.70220(19) 0.7691(3) 0.83059(19)
H9_2 H 0.7213 0.7825 0.8335
C18_2 C 0.67715(18) 0.7684(3) 0.85561(18)
H10_2 H 0.6804 0.7808 0.8753
C19_2 C 0.64805(9) 0.7500 0.85195(9)
C20_2 C 0.62195(9) 0.7500 0.87805(9)
C21_2 C 0.6104(2) 0.78027(19) 0.8926(2)
H11_2 H 0.6188 0.8008 0.8849
C22_2 C 0.58669(17) 0.77976(18) 0.91812(19)
H12_2 H 0.5808 0.7999 0.9286
C23_2 C 0.57148(8) 0.7500 0.92852(8)
C24_2 C 0.54474(11) 0.7500 0.95526(11)
O5_2 O 0.96522(8) 0.53479(7) 0.77894(10)
C25_2 C 0.77522(7) 0.72478(7) 0.7500
C26_2 C 0.80157(7) 0.69843(7) 0.7500
C27_2 C 0.83059(19) 0.70220(19) 0.7691(3)
H13_2 H 0.8335 0.7213 0.7825
C28_2 C 0.85561(18) 0.67715(18) 0.7684(3)
H14_2 H 0.8753 0.6804 0.7808
C29_2 C 0.85195(9) 0.64805(9) 0.7500
C30_2 C 0.87805(9) 0.62195(9) 0.7500
C31_2 C 0.8926(2) 0.6104(2) 0.78027(19)
H15_2 H 0.8849 0.6188 0.8008
C32_2 C 0.91812(19) 0.58669(17) 0.77976(18)
H16_2 H 0.9286 0.5808 0.7999
C33_2 C 0.92852(8) 0.57148(8) 0.7500
C34_2 C 0.95526(11) 0.54474(11) 0.7500
O6_2 O 0.53478(8) 0.72106(10) 0.96521(7)
C35_2 C 0.66941(19) 0.7309(3) 0.79780(19)
H17_2 H 0.6665 0.7175 0.7787
C36_2 C 0.64439(18) 0.7316(3) 0.82285(18)
H18_2 H 0.6247 0.7192 0.8196
C37_2 C 0.6074(2) 0.71973(19) 0.8896(2)
H19_2 H 0.6151 0.6992 0.8812
C38_2 C 0.58188(19) 0.72024(18) 0.91331(17)
H20_2 H 0.5714 0.7001 0.9192
O7_2 O 0.96521(7) 0.53478(8) 0.72106(10)
C39_2 C 0.79780(19) 0.66941(19) 0.7309(3)
H21_2 H 0.7787 0.6665 0.7175
C40_2 C 0.82285(18) 0.64439(18) 0.7316(3)
H22_2 H 0.8196 0.6247 0.7192
C41_2 C 0.8896(2) 0.6074(2) 0.71973(19)
H23_2 H 0.8812 0.6151 0.6992
C42_2 C 0.91331(17) 0.58188(19) 0.72024(18)
H24_2 H 0.9192 0.5714 0.7001
O8_2 O 0.96522(8) 0.77894(10) 0.53479(7)
C43_2 C 0.77522(7) 0.7500 0.72478(7)
C44_2 C 0.80157(7) 0.7500 0.69843(7)
C45_2 C 0.83059(19) 0.7691(3) 0.70220(19)
H25_2 H 0.8335 0.7825 0.7213
C46_2 C 0.85561(18) 0.7684(3) 0.67715(18)
H26_2 H 0.8753 0.7808 0.6804
C47_2 C 0.85195(9) 0.7500 0.64805(9)
C48_2 C 0.87805(9) 0.7500 0.62195(9)
C49_2 C 0.8926(2) 0.78027(19) 0.6104(2)
H27_2 H 0.8849 0.8008 0.6188
C50_2 C 0.91812(19) 0.77976(18) 0.58669(17)
H28_2 H 0.9286 0.7999 0.5808
C51_2 C 0.92852(8) 0.7500 0.57148(8)
C52_2 C 0.95526(11) 0.7500 0.54474(11)
O9_2 O 0.53479(7) 0.96522(8) 0.77894(10)
C53_2 C 0.72478(7) 0.77522(7) 0.7500
C54_2 C 0.69843(7) 0.80157(7) 0.7500
C55_2 C 0.70220(19) 0.83059(19) 0.7691(3)
H29_2 H 0.7213 0.8335 0.7825
C56_2 C 0.67715(18) 0.85561(18) 0.7684(3)
H30_2 H 0.6804 0.8753 0.7808
C57_2 C 0.64805(9) 0.85195(9) 0.7500
C58_2 C 0.62195(9) 0.87805(9) 0.7500
C59_2 C 0.6104(2) 0.8926(2) 0.78027(19)
H31_2 H 0.6188 0.8849 0.8008
C60_2 C 0.58669(17) 0.91812(19) 0.77976(18)
H32_2 H 0.5808 0.9286 0.7999
C61_2 C 0.57148(8) 0.92852(8) 0.7500
C62_2 C 0.54474(11) 0.95526(11) 0.7500
O10_2 O 0.96521(7) 0.72106(10) 0.53478(8)
C63_2 C 0.79780(19) 0.7309(3) 0.66941(19)
H33_2 H 0.7787 0.7175 0.6665
C64_2 C 0.82285(18) 0.7316(3) 0.64439(18)
H34_2 H 0.8196 0.7192 0.6247
C65_2 C 0.8896(2) 0.71973(19) 0.6074(2)
H35_2 H 0.8812 0.6992 0.6151
C66_2 C 0.91331(17) 0.72024(18) 0.58188(19)
H36_2 H 0.9192 0.7001 0.5714
O11_2 O 0.53478(8) 0.96521(7) 0.72106(10)
C67_2 C 0.66941(19) 0.79780(19) 0.7309(3)
H37_2 H 0.6665 0.7787 0.7175
C68_2 C 0.64439(18) 0.82285(18) 0.7316(3)
H38_2 H 0.6247 0.8196 0.7192
C69_2 C 0.6074(2) 0.8896(2) 0.71973(19)
H39_2 H 0.6151 0.8812 0.6992
C70_2 C 0.58188(19) 0.91331(17) 0.72024(18)
H40_2 H 0.5714 0.9192 0.7001
O12_2 O 0.77894(10) 0.96522(8) 0.53479(7)
C71_2 C 0.7500 0.77522(7) 0.72478(7)
C72_2 C 0.7500 0.80157(7) 0.69843(7)
C73_2 C 0.7691(3) 0.83059(19) 0.70220(19)
H41_2 H 0.7825 0.8335 0.7213
C74_2 C 0.7684(3) 0.85561(18) 0.67715(18)
H42_2 H 0.7808 0.8753 0.6804
C75_2 C 0.7500 0.85195(9) 0.64805(9)
C76_2 C 0.7500 0.87805(9) 0.62195(9)
C77_2 C 0.78027(19) 0.8926(2) 0.6104(2)
H43_2 H 0.8008 0.8849 0.6188
C78_2 C 0.77976(18) 0.91812(19) 0.58669(17)
H44_2 H 0.7999 0.9286 0.5808
C79_2 C 0.7500 0.92852(8) 0.57148(8)
C80_2 C 0.7500 0.95526(11) 0.54474(11)
O13_2 O 0.72106(10) 0.96521(7) 0.53478(8)
C81_2 C 0.7309(3) 0.79780(19) 0.66941(19)
H45_2 H 0.7175 0.7787 0.6665
C82_2 C 0.7316(3) 0.82285(18) 0.64439(18)
H46_2 H 0.7192 0.8196 0.6247
C83_2 C 0.71973(19) 0.8896(2) 0.6074(2)
H47_2 H 0.6992 0.8812 0.6151
C84_2 C 0.72024(18) 0.91331(17) 0.58188(19)
H48_2 H 0.7001 0.9192 0.5714
Cu2_4 Cu 0.5000 0.78336(3) 1.0000
O14_4 O 0.5000 0.8382(3) 1.0000
Cu3_4 Cu 0.71664(3) 0.5000 1.0000
O15_4 O 0.6618(3) 0.5000 1.0000
Cu4_4 Cu 1.0000 0.78336(3) 0.5000
Cu6_4 Cu 0.78336(3) 1.0000 0.5000
Cu8_4 Cu 0.71664(3) 1.0000 0.5000
Cu9_4 Cu 0.5000 0.71664(3) 1.0000
Cu11_4 Cu 1.0000 0.71664(3) 0.5000
O18_2 O 0.46521(7) 0.77894(10) 0.96522(8)
O21_2 O 0.77894(10) 0.46521(7) 0.96522(8)
O23_2 O 0.72106(10) 0.46522(8) 0.96521(7)
Cu7_3 Cu 0.0000 0.5000 0.21664(3)
Cu10_3 Cu -0.0000 0.5000 0.28336(3)
C1_3 C 0.7500 0.27522(7) 0.22478(7)
C2_3 C 0.7500 0.30157(7) 0.19843(7)
C3_3 C 0.7691(3) 0.29780(19) 0.16941(19)
H1_3 H 0.7825 0.2787 0.1665
C4_3 C 0.7684(3) 0.32285(18) 0.14439(18)
H2_3 H 0.7808 0.3196 0.1247
C5_3 C 0.7500 0.35195(9) 0.14805(9)
C6_3 C 0.7500 0.37805(9) 0.12195(9)
C7_3 C 0.78027(19) 0.3896(2) 0.1074(2)
H3_3 H 0.8008 0.3812 0.1151
C8_3 C 0.77976(18) 0.41331(17) 0.08188(19)
H4_3 H 0.7999 0.4192 0.0714
C9_3 C 0.7500 0.42852(8) 0.07148(8)
C10_3 C 0.7500 0.45526(11) 0.04474(11)
C11_3 C 0.7309(3) 0.33059(19) 0.20220(19)
H5_3 H 0.7175 0.3335 0.2213
C12_3 C 0.7316(3) 0.35561(18) 0.17715(18)
H6_3 H 0.7192 0.3753 0.1804
C13_3 C 0.71973(19) 0.3926(2) 0.1104(2)
H7_3 H 0.6992 0.3849 0.1188
C14_3 C 0.72024(18) 0.41812(19) 0.08669(17)
H8_3 H 0.7001 0.4286 0.0808
C15_3 C 0.72478(7) 0.2500 0.22478(7)
C16_3 C 0.69843(7) 0.2500 0.19843(7)
C17_3 C 0.70220(19) 0.2309(3) 0.16941(19)
H9_3 H 0.7213 0.2175 0.1665
C18_3 C 0.67715(18) 0.2316(3) 0.14439(18)
H10_3 H 0.6804 0.2192 0.1247
C19_3 C 0.64805(9) 0.2500 0.14805(9)
C20_3 C 0.62195(9) 0.2500 0.12195(9)
C21_3 C 0.6104(2) 0.21973(19) 0.1074(2)
H11_3 H 0.6188 0.1992 0.1151
C22_3 C 0.58669(17) 0.22024(18) 0.08188(19)
H12_3 H 0.5808 0.2001 0.0714
C23_3 C 0.57148(8) 0.2500 0.07148(8)
C24_3 C 0.54474(11) 0.2500 0.04474(11)
O5_3 O 0.96522(8) 0.46521(7) 0.22106(10)
C25_3 C 0.77522(7) 0.27522(7) 0.2500
C26_3 C 0.80157(7) 0.30157(7) 0.2500
C27_3 C 0.83059(19) 0.29780(19) 0.2309(3)
H13_3 H 0.8335 0.2787 0.2175
C28_3 C 0.85561(18) 0.32285(18) 0.2316(3)
H14_3 H 0.8753 0.3196 0.2192
C29_3 C 0.85195(9) 0.35195(9) 0.2500
C30_3 C 0.87805(9) 0.37805(9) 0.2500
C31_3 C 0.8926(2) 0.3896(2) 0.21973(19)
H15_3 H 0.8849 0.3812 0.1992
C32_3 C 0.91812(19) 0.41331(17) 0.22024(18)
H16_3 H 0.9286 0.4192 0.2001
C33_3 C 0.92852(8) 0.42852(8) 0.2500
C34_3 C 0.95526(11) 0.45526(11) 0.2500
O6_3 O 0.53478(8) 0.27894(10) 0.03479(7)
C35_3 C 0.66941(19) 0.2691(3) 0.20220(19)
H17_3 H 0.6665 0.2825 0.2213
C36_3 C 0.64439(18) 0.2684(3) 0.17715(18)
H18_3 H 0.6247 0.2808 0.1804
C37_3 C 0.6074(2) 0.28027(19) 0.1104(2)
H19_3 H 0.6151 0.3008 0.1188
C38_3 C 0.58188(19) 0.27976(18) 0.08669(17)
H20_3 H 0.5714 0.2999 0.0808
O7_3 O 0.96521(7) 0.46522(8) 0.27894(10)
C39_3 C 0.79780(19) 0.33059(19) 0.2691(3)
H21_3 H 0.7787 0.3335 0.2825
C40_3 C 0.82285(18) 0.35561(18) 0.2684(3)
H22_3 H 0.8196 0.3753 0.2808
C41_3 C 0.8896(2) 0.3926(2) 0.28027(19)
H23_3 H 0.8812 0.3849 0.3008
C42_3 C 0.91331(17) 0.41812(19) 0.27976(18)
H24_3 H 0.9192 0.4286 0.2999
O8_3 O 0.96522(8) 0.22106(10) 0.46521(7)
C43_3 C 0.77522(7) 0.2500 0.27522(7)
C44_3 C 0.80157(7) 0.2500 0.30157(7)
C45_3 C 0.83059(19) 0.2309(3) 0.29780(19)
H25_3 H 0.8335 0.2175 0.2787
C46_3 C 0.85561(18) 0.2316(3) 0.32285(18)
H26_3 H 0.8753 0.2192 0.3196
C47_3 C 0.85195(9) 0.2500 0.35195(9)
C48_3 C 0.87805(9) 0.2500 0.37805(9)
C49_3 C 0.8926(2) 0.21973(19) 0.3896(2)
H27_3 H 0.8849 0.1992 0.3812
C50_3 C 0.91812(19) 0.22024(18) 0.41331(17)
H28_3 H 0.9286 0.2001 0.4192
C51_3 C 0.92852(8) 0.2500 0.42852(8)
C52_3 C 0.95526(11) 0.2500 0.45526(11)
O9_3 O 0.53479(7) 0.03478(8) 0.22106(10)
C53_3 C 0.72478(7) 0.22478(7) 0.2500
C54_3 C 0.69843(7) 0.19843(7) 0.2500
C55_3 C 0.70220(19) 0.16941(19) 0.2309(3)
H29_3 H 0.7213 0.1665 0.2175
C56_3 C 0.67715(18) 0.14439(18) 0.2316(3)
H30_3 H 0.6804 0.1247 0.2192
C57_3 C 0.64805(9) 0.14805(9) 0.2500
C58_3 C 0.62195(9) 0.12195(9) 0.2500
C59_3 C 0.6104(2) 0.1074(2) 0.21973(19)
H31_3 H 0.6188 0.1151 0.1992
C60_3 C 0.58669(17) 0.08188(19) 0.22024(18)
H32_3 H 0.5808 0.0714 0.2001
C61_3 C 0.57148(8) 0.07148(8) 0.2500
C62_3 C 0.54474(11) 0.04474(11) 0.2500
O10_3 O 0.96521(7) 0.27894(10) 0.46522(8)
C63_3 C 0.79780(19) 0.2691(3) 0.33059(19)
H33_3 H 0.7787 0.2825 0.3335
C64_3 C 0.82285(18) 0.2684(3) 0.35561(18)
H34_3 H 0.8196 0.2808 0.3753
C65_3 C 0.8896(2) 0.28027(19) 0.3926(2)
H35_3 H 0.8812 0.3008 0.3849
C66_3 C 0.91331(17) 0.27976(18) 0.41812(19)
H36_3 H 0.9192 0.2999 0.4286
O11_3 O 0.53478(8) 0.03479(7) 0.27894(10)
C67_3 C 0.66941(19) 0.20220(19) 0.2691(3)
H37_3 H 0.6665 0.2213 0.2825
C68_3 C 0.64439(18) 0.17715(18) 0.2684(3)
H38_3 H 0.6247 0.1804 0.2808
C69_3 C 0.6074(2) 0.1104(2) 0.28027(19)
H39_3 H 0.6151 0.1188 0.3008
C70_3 C 0.58188(19) 0.08669(17) 0.27976(18)
H40_3 H 0.5714 0.0808 0.2999
O12_3 O 0.77894(10) 0.03478(8) 0.46521(7)
C71_3 C 0.7500 0.22478(7) 0.27522(7)
C72_3 C 0.7500 0.19843(7) 0.30157(7)
C73_3 C 0.7691(3) 0.16941(19) 0.29780(19)
H41_3 H 0.7825 0.1665 0.2787
C74_3 C 0.7684(3) 0.14439(18) 0.32285(18)
H42_3 H 0.7808 0.1247 0.3196
C75_3 C 0.7500 0.14805(9) 0.35195(9)
C76_3 C 0.7500 0.12195(9) 0.37805(9)
C77_3 C 0.78027(19) 0.1074(2) 0.3896(2)
H43_3 H 0.8008 0.1151 0.3812
C78_3 C 0.77976(18) 0.08188(19) 0.41331(17)
H44_3 H 0.7999 0.0714 0.4192
C79_3 C 0.7500 0.07148(8) 0.42852(8)
C80_3 C 0.7500 0.04474(11) 0.45526(11)
O13_3 O 0.72106(10) 0.03479(7) 0.46522(8)
C81_3 C 0.7309(3) 0.20220(19) 0.33059(19)
H45_3 H 0.7175 0.2213 0.3335
C82_3 C 0.7316(3) 0.17715(18) 0.35561(18)
H46_3 H 0.7192 0.1804 0.3753
C83_3 C 0.71973(19) 0.1104(2) 0.3926(2)
H47_3 H 0.6992 0.1188 0.3849
C84_3 C 0.72024(18) 0.08669(17) 0.41812(19)
H48_3 H 0.7001 0.0808 0.4286
Cu5_3 Cu 0.5000 -0.0000 0.21664(3)
Cu7_4 Cu 1.0000 0.5000 0.21664(3)
Cu10_4 Cu 1.0000 0.5000 0.28336(3)
Cu12_3 Cu 0.5000 0.0000 0.28336(3)
Cu5_4 Cu 0.5000 1.0000 0.21664(3)
Cu12_4 Cu 0.5000 1.0000 0.28336(3)
C1_4 C 0.2500 0.72478(7) 0.22478(7)
C2_4 C 0.2500 0.69843(7) 0.19843(7)
C3_4 C 0.2309(3) 0.70220(19) 0.16941(19)
H1_4 H 0.2175 0.7213 0.1665
C4_4 C 0.2316(3) 0.67715(18) 0.14439(18)
H2_4 H 0.2192 0.6804 0.1247
C5_4 C 0.2500 0.64805(9) 0.14805(9)
C6_4 C 0.2500 0.62195(9) 0.12195(9)
C7_4 C 0.21973(19) 0.6104(2) 0.1074(2)
H3_4 H 0.1992 0.6188 0.1151
C8_4 C 0.22024(18) 0.58669(17) 0.08188(19)
H4_4 H 0.2001 0.5808 0.0714
C9_4 C 0.2500 0.57148(8) 0.07148(8)
C10_4 C 0.2500 0.54474(11) 0.04474(11)
C11_4 C 0.2691(3) 0.66941(19) 0.20220(19)
H5_4 H 0.2825 0.6665 0.2213
C12_4 C 0.2684(3) 0.64439(18) 0.17715(18)
H6_4 H 0.2808 0.6247 0.1804
C13_4 C 0.28027(19) 0.6074(2) 0.1104(2)
H7_4 H 0.3008 0.6151 0.1188
C14_4 C 0.27976(18) 0.58188(19) 0.08669(17)
H8_4 H 0.2999 0.5714 0.0808
C15_4 C 0.27522(7) 0.7500 0.22478(7)
C16_4 C 0.30157(7) 0.7500 0.19843(7)
C17_4 C 0.29780(19) 0.7691(3) 0.16941(19)
H9_4 H 0.2787 0.7825 0.1665
C18_4 C 0.32285(18) 0.7684(3) 0.14439(18)
H10_4 H 0.3196 0.7808 0.1247
C19_4 C 0.35195(9) 0.7500 0.14805(9)
C20_4 C 0.37805(9) 0.7500 0.12195(9)
C21_4 C 0.3896(2) 0.78027(19) 0.1074(2)
H11_4 H 0.3812 0.8008 0.1151
C22_4 C 0.41331(17) 0.77976(18) 0.08188(19)
H12_4 H 0.4192 0.7999 0.0714
C23_4 C 0.42852(8) 0.7500 0.07148(8)
C24_4 C 0.45526(11) 0.7500 0.04474(11)
O5_4 O 0.03478(8) 0.53479(7) 0.22106(10)
C25_4 C 0.22478(7) 0.72478(7) 0.2500
C26_4 C 0.19843(7) 0.69843(7) 0.2500
C27_4 C 0.16941(19) 0.70220(19) 0.2309(3)
H13_4 H 0.1665 0.7213 0.2175
C28_4 C 0.14439(18) 0.67715(18) 0.2316(3)
H14_4 H 0.1247 0.6804 0.2192
C29_4 C 0.14805(9) 0.64805(9) 0.2500
C30_4 C 0.12195(9) 0.62195(9) 0.2500
C31_4 C 0.1074(2) 0.6104(2) 0.21973(19)
H15_4 H 0.1151 0.6188 0.1992
C32_4 C 0.08188(19) 0.58669(17) 0.22024(18)
H16_4 H 0.0714 0.5808 0.2001
C33_4 C 0.07148(8) 0.57148(8) 0.2500
C34_4 C 0.04474(11) 0.54474(11) 0.2500
O6_4 O 0.46522(8) 0.72106(10) 0.03479(7)
C35_4 C 0.33059(19) 0.7309(3) 0.20220(19)
H17_4 H 0.3335 0.7175 0.2213
C36_4 C 0.35561(18) 0.7316(3) 0.17715(18)
H18_4 H 0.3753 0.7192 0.1804
C37_4 C 0.3926(2) 0.71973(19) 0.1104(2)
H19_4 H 0.3849 0.6992 0.1188
C38_4 C 0.41812(19) 0.72024(18) 0.08669(17)
H20_4 H 0.4286 0.7001 0.0808
O7_4 O 0.03479(7) 0.53478(8) 0.27894(10)
C39_4 C 0.20220(19) 0.66941(19) 0.2691(3)
H21_4 H 0.2213 0.6665 0.2825
C40_4 C 0.17715(18) 0.64439(18) 0.2684(3)
H22_4 H 0.1804 0.6247 0.2808
C41_4 C 0.1104(2) 0.6074(2) 0.28027(19)
H23_4 H 0.1188 0.6151 0.3008
C42_4 C 0.08669(17) 0.58188(19) 0.27976(18)
H24_4 H 0.0808 0.5714 0.2999
O8_4 O 0.03478(8) 0.77894(10) 0.46521(7)
C43_4 C 0.22478(7) 0.7500 0.27522(7)
C44_4 C 0.19843(7) 0.7500 0.30157(7)
C45_4 C 0.16941(19) 0.7691(3) 0.29780(19)
H25_4 H 0.1665 0.7825 0.2787
C46_4 C 0.14439(18) 0.7684(3) 0.32285(18)
H26_4 H 0.1247 0.7808 0.3196
C47_4 C 0.14805(9) 0.7500 0.35195(9)
C48_4 C 0.12195(9) 0.7500 0.37805(9)
C49_4 C 0.1074(2) 0.78027(19) 0.3896(2)
H27_4 H 0.1151 0.8008 0.3812
C50_4 C 0.08188(19) 0.77976(18) 0.41331(17)
H28_4 H 0.0714 0.7999 0.4192
C51_4 C 0.07148(8) 0.7500 0.42852(8)
C52_4 C 0.04474(11) 0.7500 0.45526(11)
O9_4 O 0.46521(7) 0.96522(8) 0.22106(10)
C53_4 C 0.27522(7) 0.77522(7) 0.2500
C54_4 C 0.30157(7) 0.80157(7) 0.2500
C55_4 C 0.29780(19) 0.83059(19) 0.2309(3)
H29_4 H 0.2787 0.8335 0.2175
C56_4 C 0.32285(18) 0.85561(18) 0.2316(3)
H30_4 H 0.3196 0.8753 0.2192
C57_4 C 0.35195(9) 0.85195(9) 0.2500
C58_4 C 0.37805(9) 0.87805(9) 0.2500
C59_4 C 0.3896(2) 0.8926(2) 0.21973(19)
H31_4 H 0.3812 0.8849 0.1992
C60_4 C 0.41331(17) 0.91812(19) 0.22024(18)
H32_4 H 0.4192 0.9286 0.2001
C61_4 C 0.42852(8) 0.92852(8) 0.2500
C62_4 C 0.45526(11) 0.95526(11) 0.2500
O10_4 O 0.03479(7) 0.72106(10) 0.46522(8)
C63_4 C 0.20220(19) 0.7309(3) 0.33059(19)
H33_4 H 0.2213 0.7175 0.3335
C64_4 C 0.17715(18) 0.7316(3) 0.35561(18)
H34_4 H 0.1804 0.7192 0.3753
C65_4 C 0.1104(2) 0.71973(19) 0.3926(2)
H35_4 H 0.1188 0.6992 0.3849
C66_4 C 0.08669(17) 0.72024(18) 0.41812(19)
H36_4 H 0.0808 0.7001 0.4286
O11_4 O 0.46522(8) 0.96521(7) 0.27894(10)
C67_4 C 0.33059(19) 0.79780(19) 0.2691(3)
H37_4 H 0.3335 0.7787 0.2825
C68_4 C 0.35561(18) 0.82285(18) 0.2684(3)
H38_4 H 0.3753 0.8196 0.2808
C69_4 C 0.3926(2) 0.8896(2) 0.28027(19)
H39_4 H 0.3849 0.8812 0.3008
C70_4 C 0.41812(19) 0.91331(17) 0.27976(18)
H40_4 H 0.4286 0.9192 0.2999
O12_4 O 0.22106(10) 0.96522(8) 0.46521(7)
C71_4 C 0.2500 0.77522(7) 0.27522(7)
C72_4 C 0.2500 0.80157(7) 0.30157(7)
C73_4 C 0.2309(3) 0.83059(19) 0.29780(19)
H41_4 H 0.2175 0.8335 0.2787
C74_4 C 0.2316(3) 0.85561(18) 0.32285(18)
H42_4 H 0.2192 0.8753 0.3196
C75_4 C 0.2500 0.85195(9) 0.35195(9)
C76_4 C 0.2500 0.87805(9) 0.37805(9)
C77_4 C 0.21973(19) 0.8926(2) 0.3896(2)
H43_4 H 0.1992 0.8849 0.3812
C78_4 C 0.22024(18) 0.91812(19) 0.41331(17)
H44_4 H 0.2001 0.9286 0.4192
C79_4 C 0.2500 0.92852(8) 0.42852(8)
C80_4 C 0.2500 0.95526(11) 0.45526(11)
O13_4 O 0.27894(10) 0.96521(7) 0.46522(8)
C81_4 C 0.2691(3) 0.79780(19) 0.33059(19)
H45_4 H 0.2825 0.7787 0.3335
C82_4 C 0.2684(3) 0.82285(18) 0.35561(18)
H46_4 H 0.2808 0.8196 0.3753
C83_4 C 0.28027(19) 0.8896(2) 0.3926(2)
H47_4 H 0.3008 0.8812 0.3849
C84_4 C 0.27976(18) 0.91331(17) 0.41812(19)
H48_4 H 0.2999 0.9192 0.4286
O2_5 O -0.0000 0.1618(3) 0.5000
O14_5 O -0.0000 0.5000 0.1618(3)
O15_5 O -0.0000 0.3382(3) 0.5000
O17_3 O 0.03478(8) 0.46521(7) 0.22106(10)
O20_3 O 0.03478(8) 0.22106(10) 0.46521(7)
O24_3 O 0.03479(7) 0.27894(10) 0.46522(8)
O2_6 O 1.0000 0.1618(3) 0.5000
O14_6 O 1.0000 0.5000 0.1618(3)
O15_6 O 1.0000 0.3382(3) 0.5000
O18_3 O 0.96522(8) 0.53479(7) 0.22106(10)
O21_3 O 0.96522(8) 0.22106(10) 0.53479(7)
O23_3 O 0.96521(7) 0.27894(10) 0.53478(8)
O2_7 O 0.0000 0.8382(3) 0.5000
O14_7 O 0.0000 0.5000 0.8382(3)
O15_7 O -0.0000 0.6618(3) 0.5000
O17_4 O 0.03478(8) 0.53479(7) 0.77894(10)
O20_4 O 0.03478(8) 0.77894(10) 0.53479(7)
O24_4 O 0.03479(7) 0.72106(10) 0.53478(8)
O2_8 O 1.0000 0.8382(3) 0.5000
O14_8 O 1.0000 0.5000 0.8382(3)
O15_8 O 1.0000 0.6618(3) 0.5000
O18_4 O 0.96522(8) 0.46521(7) 0.77894(10)
O21_4 O 0.96522(8) 0.77894(10) 0.46521(7)
O23_4 O 0.96521(7) 0.72106(10) 0.46522(8)
O2_9 O 0.5000 -0.0000 0.1618(3)
O14_9 O 0.1618(3) 0.0000 0.5000
O15_9 O 0.5000 0.0000 0.3382(3)
O17_5 O 0.22106(10) 0.03478(8) 0.46521(7)
O20_5 O 0.46521(7) 0.03478(8) 0.22106(10)
O24_5 O 0.46522(8) 0.03479(7) 0.27894(10)
O2_10 O 0.5000 1.0000 0.1618(3)
O14_10 O 0.1618(3) 1.0000 0.5000
O15_10 O 0.5000 1.0000 0.3382(3)
O18_5 O 0.22106(10) 0.96522(8) 0.53479(7)
O21_5 O 0.53479(7) 0.96522(8) 0.22106(10)
O23_5 O 0.53478(8) 0.96521(7) 0.27894(10)
O2_11 O 0.5000 0.0000 0.8382(3)
O14_11 O 0.8382(3) 0.0000 0.5000
O15_11 O 0.5000 0.0000 0.6618(3)
O17_6 O 0.77894(10) 0.03478(8) 0.53479(7)
O20_6 O 0.53479(7) 0.03478(8) 0.77894(10)
O24_6 O 0.53478(8) 0.03479(7) 0.72106(10)
O2_12 O 0.5000 1.0000 0.8382(3)
O14_12 O 0.8382(3) 1.0000 0.5000
O15_12 O 0.5000 1.0000 0.6618(3)
O18_6 O 0.77894(10) 0.96522(8) 0.46521(7)
O21_6 O 0.46521(7) 0.96522(8) 0.77894(10)
O23_6 O 0.46522(8) 0.96521(7) 0.72106(10)
C1_5 C 0.27522(7) 0.2500 0.22478(7)
C2_5 C 0.30157(7) 0.2500 0.19843(7)
C3_5 C 0.29780(19) 0.2309(3) 0.16941(19)
H1_5 H 0.2787 0.2175 0.1665
C4_5 C 0.32285(18) 0.2316(3) 0.14439(18)
H2_5 H 0.3196 0.2192 0.1247
C5_5 C 0.35195(9) 0.2500 0.14805(9)
C6_5 C 0.37805(9) 0.2500 0.12195(9)
C7_5 C 0.3896(2) 0.21973(19) 0.1074(2)
H3_5 H 0.3812 0.1992 0.1151
C8_5 C 0.41331(17) 0.22024(18) 0.08188(19)
H4_5 H 0.4192 0.2001 0.0714
C9_5 C 0.42852(8) 0.2500 0.07148(8)
C10_5 C 0.45526(11) 0.2500 0.04474(11)
O3_3 O 0.46522(8) 0.27894(10) 0.03479(7)
C11_5 C 0.33059(19) 0.2691(3) 0.20220(19)
H5_5 H 0.3335 0.2825 0.2213
C12_5 C 0.35561(18) 0.2684(3) 0.17715(18)
H6_5 H 0.3753 0.2808 0.1804
C13_5 C 0.3926(2) 0.28027(19) 0.1104(2)
H7_5 H 0.3849 0.3008 0.1188
C14_5 C 0.41812(19) 0.27976(18) 0.08669(17)
H8_5 H 0.4286 0.2999 0.0808
C15_5 C 0.2500 0.27522(7) 0.22478(7)
C16_5 C 0.2500 0.30157(7) 0.19843(7)
C17_5 C 0.2309(3) 0.29780(19) 0.16941(19)
H9_5 H 0.2175 0.2787 0.1665
C18_5 C 0.2316(3) 0.32285(18) 0.14439(18)
H10_5 H 0.2192 0.3196 0.1247
C19_5 C 0.2500 0.35195(9) 0.14805(9)
C20_5 C 0.2500 0.37805(9) 0.12195(9)
C21_5 C 0.21973(19) 0.3896(2) 0.1074(2)
H11_5 H 0.1992 0.3812 0.1151
C22_5 C 0.22024(18) 0.41331(17) 0.08188(19)
H12_5 H 0.2001 0.4192 0.0714
C23_5 C 0.2500 0.42852(8) 0.07148(8)
C24_5 C 0.2500 0.45526(11) 0.04474(11)
C25_5 C 0.27522(7) 0.22478(7) 0.2500
C26_5 C 0.30157(7) 0.19843(7) 0.2500
C27_5 C 0.29780(19) 0.16941(19) 0.2309(3)
H13_5 H 0.2787 0.1665 0.2175
C28_5 C 0.32285(18) 0.14439(18) 0.2316(3)
H14_5 H 0.3196 0.1247 0.2192
C29_5 C 0.35195(9) 0.14805(9) 0.2500
C30_5 C 0.37805(9) 0.12195(9) 0.2500
C31_5 C 0.3896(2) 0.1074(2) 0.21973(19)
H15_5 H 0.3812 0.1151 0.1992
C32_5 C 0.41331(17) 0.08188(19) 0.22024(18)
H16_5 H 0.4192 0.0714 0.2001
C33_5 C 0.42852(8) 0.07148(8) 0.2500
C34_5 C 0.45526(11) 0.04474(11) 0.2500
C35_5 C 0.2691(3) 0.33059(19) 0.20220(19)
H17_5 H 0.2825 0.3335 0.2213
C36_5 C 0.2684(3) 0.35561(18) 0.17715(18)
H18_5 H 0.2808 0.3753 0.1804
C37_5 C 0.28027(19) 0.3926(2) 0.1104(2)
H19_5 H 0.3008 0.3849 0.1188
C38_5 C 0.27976(18) 0.41812(19) 0.08669(17)
H20_5 H 0.2999 0.4286 0.0808
C39_5 C 0.33059(19) 0.20220(19) 0.2691(3)
H21_5 H 0.3335 0.2213 0.2825
C40_5 C 0.35561(18) 0.17715(18) 0.2684(3)
H22_5 H 0.3753 0.1804 0.2808
C41_5 C 0.3926(2) 0.1104(2) 0.28027(19)
H23_5 H 0.3849 0.1188 0.3008
C42_5 C 0.41812(19) 0.08669(17) 0.27976(18)
H24_5 H 0.4286 0.0808 0.2999
C43_5 C 0.2500 0.22478(7) 0.27522(7)
C44_5 C 0.2500 0.19843(7) 0.30157(7)
C45_5 C 0.2309(3) 0.16941(19) 0.29780(19)
H25_5 H 0.2175 0.1665 0.2787
C46_5 C 0.2316(3) 0.14439(18) 0.32285(18)
H26_5 H 0.2192 0.1247 0.3196
C47_5 C 0.2500 0.14805(9) 0.35195(9)
C48_5 C 0.2500 0.12195(9) 0.37805(9)
C49_5 C 0.21973(19) 0.1074(2) 0.3896(2)
H27_5 H 0.1992 0.1151 0.3812
C50_5 C 0.22024(18) 0.08188(19) 0.41331(17)
H28_5 H 0.2001 0.0714 0.4192
C51_5 C 0.2500 0.07148(8) 0.42852(8)
C52_5 C 0.2500 0.04474(11) 0.45526(11)
C53_5 C 0.22478(7) 0.27522(7) 0.2500
C54_5 C 0.19843(7) 0.30157(7) 0.2500
C55_5 C 0.16941(19) 0.29780(19) 0.2309(3)
H29_5 H 0.1665 0.2787 0.2175
C56_5 C 0.14439(18) 0.32285(18) 0.2316(3)
H30_5 H 0.1247 0.3196 0.2192
C57_5 C 0.14805(9) 0.35195(9) 0.2500
C58_5 C 0.12195(9) 0.37805(9) 0.2500
C59_5 C 0.1074(2) 0.3896(2) 0.21973(19)
H31_5 H 0.1151 0.3812 0.1992
C60_5 C 0.08188(19) 0.41331(17) 0.22024(18)
H32_5 H 0.0714 0.4192 0.2001
C61_5 C 0.07148(8) 0.42852(8) 0.2500
C62_5 C 0.04474(11) 0.45526(11) 0.2500
O10_5 O 0.27894(10) 0.03479(7) 0.46522(8)
C63_5 C 0.2691(3) 0.20220(19) 0.33059(19)
H33_5 H 0.2825 0.2213 0.3335
C64_5 C 0.2684(3) 0.17715(18) 0.35561(18)
H34_5 H 0.2808 0.1804 0.3753
C65_5 C 0.28027(19) 0.1104(2) 0.3926(2)
H35_5 H 0.3008 0.1188 0.3849
C66_5 C 0.27976(18) 0.08669(17) 0.41812(19)
H36_5 H 0.2999 0.0808 0.4286
O11_5 O 0.03479(7) 0.46522(8) 0.27894(10)
C67_5 C 0.20220(19) 0.33059(19) 0.2691(3)
H37_5 H 0.2213 0.3335 0.2825
C68_5 C 0.17715(18) 0.35561(18) 0.2684(3)
H38_5 H 0.1804 0.3753 0.2808
C69_5 C 0.1104(2) 0.3926(2) 0.28027(19)
H39_5 H 0.1188 0.3849 0.3008
C70_5 C 0.08669(17) 0.41812(19) 0.27976(18)
H40_5 H 0.0808 0.4286 0.2999
C71_5 C 0.22478(7) 0.2500 0.27522(7)
C72_5 C 0.19843(7) 0.2500 0.30157(7)
C73_5 C 0.16941(19) 0.2309(3) 0.29780(19)
H41_5 H 0.1665 0.2175 0.2787
C74_5 C 0.14439(18) 0.2316(3) 0.32285(18)
H42_5 H 0.1247 0.2192 0.3196
C75_5 C 0.14805(9) 0.2500 0.35195(9)
C76_5 C 0.12195(9) 0.2500 0.37805(9)
C77_5 C 0.1074(2) 0.21973(19) 0.3896(2)
H43_5 H 0.1151 0.1992 0.3812
C78_5 C 0.08188(19) 0.22024(18) 0.41331(17)
H44_5 H 0.0714 0.2001 0.4192
C79_5 C 0.07148(8) 0.2500 0.42852(8)
C80_5 C 0.04474(11) 0.2500 0.45526(11)
C81_5 C 0.20220(19) 0.2691(3) 0.33059(19)
H45_5 H 0.2213 0.2825 0.3335
C82_5 C 0.17715(18) 0.2684(3) 0.35561(18)
H46_5 H 0.1804 0.2808 0.3753
C83_5 C 0.1104(2) 0.28027(19) 0.3926(2)
H47_5 H 0.1188 0.3008 0.3849
C84_5 C 0.08669(17) 0.27976(18) 0.41812(19)
H48_5 H 0.0808 0.2999 0.4286
O15_13 O 0.5000 0.3382(3) 0.0000
O15_14 O 0.5000 0.3382(3) 1.0000
O19_3 O 0.53478(8) 0.27894(10) 0.96521(7)
C1_6 C 0.72478(7) 0.7500 0.22478(7)
C2_6 C 0.69843(7) 0.7500 0.19843(7)
C3_6 C 0.70220(19) 0.7691(3) 0.16941(19)
H1_6 H 0.7213 0.7825 0.1665
C4_6 C 0.67715(18) 0.7684(3) 0.14439(18)
H2_6 H 0.6804 0.7808 0.1247
C5_6 C 0.64805(9) 0.7500 0.14805(9)
C6_6 C 0.62195(9) 0.7500 0.12195(9)
C7_6 C 0.6104(2) 0.78027(19) 0.1074(2)
H3_6 H 0.6188 0.8008 0.1151
C8_6 C 0.58669(17) 0.77976(18) 0.08188(19)
H4_6 H 0.5808 0.7999 0.0714
C9_6 C 0.57148(8) 0.7500 0.07148(8)
C10_6 C 0.54474(11) 0.7500 0.04474(11)
O3_4 O 0.53478(8) 0.72106(10) 0.03479(7)
C11_6 C 0.66941(19) 0.7309(3) 0.20220(19)
H5_6 H 0.6665 0.7175 0.2213
C12_6 C 0.64439(18) 0.7316(3) 0.17715(18)
H6_6 H 0.6247 0.7192 0.1804
C13_6 C 0.6074(2) 0.71973(19) 0.1104(2)
H7_6 H 0.6151 0.6992 0.1188
C14_6 C 0.58188(19) 0.72024(18) 0.08669(17)
H8_6 H 0.5714 0.7001 0.0808
C15_6 C 0.7500 0.72478(7) 0.22478(7)
C16_6 C 0.7500 0.69843(7) 0.19843(7)
C17_6 C 0.7691(3) 0.70220(19) 0.16941(19)
H9_6 H 0.7825 0.7213 0.1665
C18_6 C 0.7684(3) 0.67715(18) 0.14439(18)
H10_6 H 0.7808 0.6804 0.1247
C19_6 C 0.7500 0.64805(9) 0.14805(9)
C20_6 C 0.7500 0.62195(9) 0.12195(9)
C21_6 C 0.78027(19) 0.6104(2) 0.1074(2)
H11_6 H 0.8008 0.6188 0.1151
C22_6 C 0.77976(18) 0.58669(17) 0.08188(19)
H12_6 H 0.7999 0.5808 0.0714
C23_6 C 0.7500 0.57148(8) 0.07148(8)
C24_6 C 0.7500 0.54474(11) 0.04474(11)
C25_6 C 0.72478(7) 0.77522(7) 0.2500
C26_6 C 0.69843(7) 0.80157(7) 0.2500
C27_6 C 0.70220(19) 0.83059(19) 0.2309(3)
H13_6 H 0.7213 0.8335 0.2175
C28_6 C 0.67715(18) 0.85561(18) 0.2316(3)
H14_6 H 0.6804 0.8753 0.2192
C29_6 C 0.64805(9) 0.85195(9) 0.2500
C30_6 C 0.62195(9) 0.87805(9) 0.2500
C31_6 C 0.6104(2) 0.8926(2) 0.21973(19)
H15_6 H 0.6188 0.8849 0.1992
C32_6 C 0.58669(17) 0.91812(19) 0.22024(18)
H16_6 H 0.5808 0.9286 0.2001
C33_6 C 0.57148(8) 0.92852(8) 0.2500
C34_6 C 0.54474(11) 0.95526(11) 0.2500
C35_6 C 0.7309(3) 0.66941(19) 0.20220(19)
H17_6 H 0.7175 0.6665 0.2213
C36_6 C 0.7316(3) 0.64439(18) 0.17715(18)
H18_6 H 0.7192 0.6247 0.1804
C37_6 C 0.71973(19) 0.6074(2) 0.1104(2)
H19_6 H 0.6992 0.6151 0.1188
C38_6 C 0.72024(18) 0.58188(19) 0.08669(17)
H20_6 H 0.7001 0.5714 0.0808
C39_6 C 0.66941(19) 0.79780(19) 0.2691(3)
H21_6 H 0.6665 0.7787 0.2825
C40_6 C 0.64439(18) 0.82285(18) 0.2684(3)
H22_6 H 0.6247 0.8196 0.2808
C41_6 C 0.6074(2) 0.8896(2) 0.28027(19)
H23_6 H 0.6151 0.8812 0.3008
C42_6 C 0.58188(19) 0.91331(17) 0.27976(18)
H24_6 H 0.5714 0.9192 0.2999
C43_6 C 0.7500 0.77522(7) 0.27522(7)
C44_6 C 0.7500 0.80157(7) 0.30157(7)
C45_6 C 0.7691(3) 0.83059(19) 0.29780(19)
H25_6 H 0.7825 0.8335 0.2787
C46_6 C 0.7684(3) 0.85561(18) 0.32285(18)
H26_6 H 0.7808 0.8753 0.3196
C47_6 C 0.7500 0.85195(9) 0.35195(9)
C48_6 C 0.7500 0.87805(9) 0.37805(9)
C49_6 C 0.78027(19) 0.8926(2) 0.3896(2)
H27_6 H 0.8008 0.8849 0.3812
C50_6 C 0.77976(18) 0.91812(19) 0.41331(17)
H28_6 H 0.7999 0.9286 0.4192
C51_6 C 0.7500 0.92852(8) 0.42852(8)
C52_6 C 0.7500 0.95526(11) 0.45526(11)
C53_6 C 0.77522(7) 0.72478(7) 0.2500
C54_6 C 0.80157(7) 0.69843(7) 0.2500
C55_6 C 0.83059(19) 0.70220(19) 0.2309(3)
H29_6 H 0.8335 0.7213 0.2175
C56_6 C 0.85561(18) 0.67715(18) 0.2316(3)
H30_6 H 0.8753 0.6804 0.2192
C57_6 C 0.85195(9) 0.64805(9) 0.2500
C58_6 C 0.87805(9) 0.62195(9) 0.2500
C59_6 C 0.8926(2) 0.6104(2) 0.21973(19)
H31_6 H 0.8849 0.6188 0.1992
C60_6 C 0.91812(19) 0.58669(17) 0.22024(18)
H32_6 H 0.9286 0.5808 0.2001
C61_6 C 0.92852(8) 0.57148(8) 0.2500
C62_6 C 0.95526(11) 0.54474(11) 0.2500
O10_6 O 0.72106(10) 0.96521(7) 0.46522(8)
C63_6 C 0.7309(3) 0.79780(19) 0.33059(19)
H33_6 H 0.7175 0.7787 0.3335
C64_6 C 0.7316(3) 0.82285(18) 0.35561(18)
H34_6 H 0.7192 0.8196 0.3753
C65_6 C 0.71973(19) 0.8896(2) 0.3926(2)
H35_6 H 0.6992 0.8812 0.3849
C66_6 C 0.72024(18) 0.91331(17) 0.41812(19)
H36_6 H 0.7001 0.9192 0.4286
O11_6 O 0.96521(7) 0.53478(8) 0.27894(10)
C67_6 C 0.79780(19) 0.66941(19) 0.2691(3)
H37_6 H 0.7787 0.6665 0.2825
C68_6 C 0.82285(18) 0.64439(18) 0.2684(3)
H38_6 H 0.8196 0.6247 0.2808
C69_6 C 0.8896(2) 0.6074(2) 0.28027(19)
H39_6 H 0.8812 0.6151 0.3008
C70_6 C 0.91331(17) 0.58188(19) 0.27976(18)
H40_6 H 0.9192 0.5714 0.2999
C71_6 C 0.77522(7) 0.7500 0.27522(7)
C72_6 C 0.80157(7) 0.7500 0.30157(7)
C73_6 C 0.83059(19) 0.7691(3) 0.29780(19)
H41_6 H 0.8335 0.7825 0.2787
C74_6 C 0.85561(18) 0.7684(3) 0.32285(18)
H42_6 H 0.8753 0.7808 0.3196
C75_6 C 0.85195(9) 0.7500 0.35195(9)
C76_6 C 0.87805(9) 0.7500 0.37805(9)
C77_6 C 0.8926(2) 0.78027(19) 0.3896(2)
H43_6 H 0.8849 0.8008 0.3812
C78_6 C 0.91812(19) 0.77976(18) 0.41331(17)
H44_6 H 0.9286 0.7999 0.4192
C79_6 C 0.92852(8) 0.7500 0.42852(8)
C80_6 C 0.95526(11) 0.7500 0.45526(11)
C81_6 C 0.79780(19) 0.7309(3) 0.33059(19)
H45_6 H 0.7787 0.7175 0.3335
C82_6 C 0.82285(18) 0.7316(3) 0.35561(18)
H46_6 H 0.8196 0.7192 0.3753
C83_6 C 0.8896(2) 0.71973(19) 0.3926(2)
H47_6 H 0.8812 0.6992 0.3849
C84_6 C 0.91331(17) 0.72024(18) 0.41812(19)
H48_6 H 0.9192 0.7001 0.4286
O15_15 O 0.5000 0.6618(3) 0.0000
O15_16 O 0.5000 0.6618(3) 1.0000
O19_4 O 0.46522(8) 0.72106(10) 0.96521(7)
C1_7 C 0.27522(7) 0.7500 0.77522(7)
C2_7 C 0.30157(7) 0.7500 0.80157(7)
C3_7 C 0.29780(19) 0.7691(3) 0.83059(19)
H1_7 H 0.2787 0.7825 0.8335
C4_7 C 0.32285(18) 0.7684(3) 0.85561(18)
H2_7 H 0.3196 0.7808 0.8753
C5_7 C 0.35195(9) 0.7500 0.85195(9)
C6_7 C 0.37805(9) 0.7500 0.87805(9)
C7_7 C 0.3896(2) 0.78027(19) 0.8926(2)
H3_7 H 0.3812 0.8008 0.8849
C8_7 C 0.41331(17) 0.77976(18) 0.91812(19)
H4_7 H 0.4192 0.7999 0.9286
C9_7 C 0.42852(8) 0.7500 0.92852(8)
C10_7 C 0.45526(11) 0.7500 0.95526(11)
C11_7 C 0.33059(19) 0.7309(3) 0.79780(19)
H5_7 H 0.3335 0.7175 0.7787
C12_7 C 0.35561(18) 0.7316(3) 0.82285(18)
H6_7 H 0.3753 0.7192 0.8196
C13_7 C 0.3926(2) 0.71973(19) 0.8896(2)
H7_7 H 0.3849 0.6992 0.8812
C14_7 C 0.41812(19) 0.72024(18) 0.91331(17)
H8_7 H 0.4286 0.7001 0.9192
C15_7 C 0.2500 0.72478(7) 0.77522(7)
C16_7 C 0.2500 0.69843(7) 0.80157(7)
C17_7 C 0.2309(3) 0.70220(19) 0.83059(19)
H9_7 H 0.2175 0.7213 0.8335
C18_7 C 0.2316(3) 0.67715(18) 0.85561(18)
H10_7 H 0.2192 0.6804 0.8753
C19_7 C 0.2500 0.64805(9) 0.85195(9)
C20_7 C 0.2500 0.62195(9) 0.87805(9)
C21_7 C 0.21973(19) 0.6104(2) 0.8926(2)
H11_7 H 0.1992 0.6188 0.8849
C22_7 C 0.22024(18) 0.58669(17) 0.91812(19)
H12_7 H 0.2001 0.5808 0.9286
C23_7 C 0.2500 0.57148(8) 0.92852(8)
C24_7 C 0.2500 0.54474(11) 0.95526(11)
C25_7 C 0.27522(7) 0.77522(7) 0.7500
C26_7 C 0.30157(7) 0.80157(7) 0.7500
C27_7 C 0.29780(19) 0.83059(19) 0.7691(3)
H13_7 H 0.2787 0.8335 0.7825
C28_7 C 0.32285(18) 0.85561(18) 0.7684(3)
H14_7 H 0.3196 0.8753 0.7808
C29_7 C 0.35195(9) 0.85195(9) 0.7500
C30_7 C 0.37805(9) 0.87805(9) 0.7500
C31_7 C 0.3896(2) 0.8926(2) 0.78027(19)
H15_7 H 0.3812 0.8849 0.8008
C32_7 C 0.41331(17) 0.91812(19) 0.77976(18)
H16_7 H 0.4192 0.9286 0.7999
C33_7 C 0.42852(8) 0.92852(8) 0.7500
C34_7 C 0.45526(11) 0.95526(11) 0.7500
C35_7 C 0.2691(3) 0.66941(19) 0.79780(19)
H17_7 H 0.2825 0.6665 0.7787
C36_7 C 0.2684(3) 0.64439(18) 0.82285(18)
H18_7 H 0.2808 0.6247 0.8196
C37_7 C 0.28027(19) 0.6074(2) 0.8896(2)
H19_7 H 0.3008 0.6151 0.8812
C38_7 C 0.27976(18) 0.58188(19) 0.91331(17)
H20_7 H 0.2999 0.5714 0.9192
C39_7 C 0.33059(19) 0.79780(19) 0.7309(3)
H21_7 H 0.3335 0.7787 0.7175
C40_7 C 0.35561(18) 0.82285(18) 0.7316(3)
H22_7 H 0.3753 0.8196 0.7192
C41_7 C 0.3926(2) 0.8896(2) 0.71973(19)
H23_7 H 0.3849 0.8812 0.6992
C42_7 C 0.41812(19) 0.91331(17) 0.72024(18)
H24_7 H 0.4286 0.9192 0.7001
C43_7 C 0.2500 0.77522(7) 0.72478(7)
C44_7 C 0.2500 0.80157(7) 0.69843(7)
C45_7 C 0.2309(3) 0.83059(19) 0.70220(19)
H25_7 H 0.2175 0.8335 0.7213
C46_7 C 0.2316(3) 0.85561(18) 0.67715(18)
H26_7 H 0.2192 0.8753 0.6804
C47_7 C 0.2500 0.85195(9) 0.64805(9)
C48_7 C 0.2500 0.87805(9) 0.62195(9)
C49_7 C 0.21973(19) 0.8926(2) 0.6104(2)
H27_7 H 0.1992 0.8849 0.6188
C50_7 C 0.22024(18) 0.91812(19) 0.58669(17)
H28_7 H 0.2001 0.9286 0.5808
C51_7 C 0.2500 0.92852(8) 0.57148(8)
C52_7 C 0.2500 0.95526(11) 0.54474(11)
C53_7 C 0.22478(7) 0.72478(7) 0.7500
C54_7 C 0.19843(7) 0.69843(7) 0.7500
C55_7 C 0.16941(19) 0.70220(19) 0.7691(3)
H29_7 H 0.1665 0.7213 0.7825
C56_7 C 0.14439(18) 0.67715(18) 0.7684(3)
H30_7 H 0.1247 0.6804 0.7808
C57_7 C 0.14805(9) 0.64805(9) 0.7500
C58_7 C 0.12195(9) 0.62195(9) 0.7500
C59_7 C 0.1074(2) 0.6104(2) 0.78027(19)
H31_7 H 0.1151 0.6188 0.8008
C60_7 C 0.08188(19) 0.58669(17) 0.77976(18)
H32_7 H 0.0714 0.5808 0.7999
C61_7 C 0.07148(8) 0.57148(8) 0.7500
C62_7 C 0.04474(11) 0.54474(11) 0.7500
O10_7 O 0.27894(10) 0.96521(7) 0.53478(8)
C63_7 C 0.2691(3) 0.79780(19) 0.66941(19)
H33_7 H 0.2825 0.7787 0.6665
C64_7 C 0.2684(3) 0.82285(18) 0.64439(18)
H34_7 H 0.2808 0.8196 0.6247
C65_7 C 0.28027(19) 0.8896(2) 0.6074(2)
H35_7 H 0.3008 0.8812 0.6151
C66_7 C 0.27976(18) 0.91331(17) 0.58188(19)
H36_7 H 0.2999 0.9192 0.5714
O11_7 O 0.03479(7) 0.53478(8) 0.72106(10)
C67_7 C 0.20220(19) 0.66941(19) 0.7309(3)
H37_7 H 0.2213 0.6665 0.7175
C68_7 C 0.17715(18) 0.64439(18) 0.7316(3)
H38_7 H 0.1804 0.6247 0.7192
C69_7 C 0.1104(2) 0.6074(2) 0.71973(19)
H39_7 H 0.1188 0.6151 0.6992
C70_7 C 0.08669(17) 0.58188(19) 0.72024(18)
H40_7 H 0.0808 0.5714 0.7001
C71_7 C 0.22478(7) 0.7500 0.72478(7)
C72_7 C 0.19843(7) 0.7500 0.69843(7)
C73_7 C 0.16941(19) 0.7691(3) 0.70220(19)
H41_7 H 0.1665 0.7825 0.7213
C74_7 C 0.14439(18) 0.7684(3) 0.67715(18)
H42_7 H 0.1247 0.7808 0.6804
C75_7 C 0.14805(9) 0.7500 0.64805(9)
C76_7 C 0.12195(9) 0.7500 0.62195(9)
C77_7 C 0.1074(2) 0.78027(19) 0.6104(2)
H43_7 H 0.1151 0.8008 0.6188
C78_7 C 0.08188(19) 0.77976(18) 0.58669(17)
H44_7 H 0.0714 0.7999 0.5808
C79_7 C 0.07148(8) 0.7500 0.57148(8)
C80_7 C 0.04474(11) 0.7500 0.54474(11)
C81_7 C 0.20220(19) 0.7309(3) 0.66941(19)
H45_7 H 0.2213 0.7175 0.6665
C82_7 C 0.17715(18) 0.7316(3) 0.64439(18)
H46_7 H 0.1804 0.7192 0.6247
C83_7 C 0.1104(2) 0.71973(19) 0.6074(2)
H47_7 H 0.1188 0.6992 0.6151
C84_7 C 0.08669(17) 0.72024(18) 0.58188(19)
H48_7 H 0.0808 0.7001 0.5714
C1_8 C 0.72478(7) 0.2500 0.77522(7)
C2_8 C 0.69843(7) 0.2500 0.80157(7)
C3_8 C 0.70220(19) 0.2309(3) 0.83059(19)
H1_8 H 0.7213 0.2175 0.8335
C4_8 C 0.67715(18) 0.2316(3) 0.85561(18)
H2_8 H 0.6804 0.2192 0.8753
C5_8 C 0.64805(9) 0.2500 0.85195(9)
C6_8 C 0.62195(9) 0.2500 0.87805(9)
C7_8 C 0.6104(2) 0.21973(19) 0.8926(2)
H3_8 H 0.6188 0.1992 0.8849
C8_8 C 0.58669(17) 0.22024(18) 0.91812(19)
H4_8 H 0.5808 0.2001 0.9286
C9_8 C 0.57148(8) 0.2500 0.92852(8)
C10_8 C 0.54474(11) 0.2500 0.95526(11)
C11_8 C 0.66941(19) 0.2691(3) 0.79780(19)
H5_8 H 0.6665 0.2825 0.7787
C12_8 C 0.64439(18) 0.2684(3) 0.82285(18)
H6_8 H 0.6247 0.2808 0.8196
C13_8 C 0.6074(2) 0.28027(19) 0.8896(2)
H7_8 H 0.6151 0.3008 0.8812
C14_8 C 0.58188(19) 0.27976(18) 0.91331(17)
H8_8 H 0.5714 0.2999 0.9192
C15_8 C 0.7500 0.27522(7) 0.77522(7)
C16_8 C 0.7500 0.30157(7) 0.80157(7)
C17_8 C 0.7691(3) 0.29780(19) 0.83059(19)
H9_8 H 0.7825 0.2787 0.8335
C18_8 C 0.7684(3) 0.32285(18) 0.85561(18)
H10_8 H 0.7808 0.3196 0.8753
C19_8 C 0.7500 0.35195(9) 0.85195(9)
C20_8 C 0.7500 0.37805(9) 0.87805(9)
C21_8 C 0.78027(19) 0.3896(2) 0.8926(2)
H11_8 H 0.8008 0.3812 0.8849
C22_8 C 0.77976(18) 0.41331(17) 0.91812(19)
H12_8 H 0.7999 0.4192 0.9286
C23_8 C 0.7500 0.42852(8) 0.92852(8)
C24_8 C 0.7500 0.45526(11) 0.95526(11)
C25_8 C 0.72478(7) 0.22478(7) 0.7500
C26_8 C 0.69843(7) 0.19843(7) 0.7500
C27_8 C 0.70220(19) 0.16941(19) 0.7691(3)
H13_8 H 0.7213 0.1665 0.7825
C28_8 C 0.67715(18) 0.14439(18) 0.7684(3)
H14_8 H 0.6804 0.1247 0.7808
C29_8 C 0.64805(9) 0.14805(9) 0.7500
C30_8 C 0.62195(9) 0.12195(9) 0.7500
C31_8 C 0.6104(2) 0.1074(2) 0.78027(19)
H15_8 H 0.6188 0.1151 0.8008
C32_8 C 0.58669(17) 0.08188(19) 0.77976(18)
H16_8 H 0.5808 0.0714 0.7999
C33_8 C 0.57148(8) 0.07148(8) 0.7500
C34_8 C 0.54474(11) 0.04474(11) 0.7500
C35_8 C 0.7309(3) 0.33059(19) 0.79780(19)
H17_8 H 0.7175 0.3335 0.7787
C36_8 C 0.7316(3) 0.35561(18) 0.82285(18)
H18_8 H 0.7192 0.3753 0.8196
C37_8 C 0.71973(19) 0.3926(2) 0.8896(2)
H19_8 H 0.6992 0.3849 0.8812
C38_8 C 0.72024(18) 0.41812(19) 0.91331(17)
H20_8 H 0.7001 0.4286 0.9192
C39_8 C 0.66941(19) 0.20220(19) 0.7309(3)
H21_8 H 0.6665 0.2213 0.7175
C40_8 C 0.64439(18) 0.17715(18) 0.7316(3)
H22_8 H 0.6247 0.1804 0.7192
C41_8 C 0.6074(2) 0.1104(2) 0.71973(19)
H23_8 H 0.6151 0.1188 0.6992
C42_8 C 0.58188(19) 0.08669(17) 0.72024(18)
H24_8 H 0.5714 0.0808 0.7001
C43_8 C 0.7500 0.22478(7) 0.72478(7)
C44_8 C 0.7500 0.19843(7) 0.69843(7)
C45_8 C 0.7691(3) 0.16941(19) 0.70220(19)
H25_8 H 0.7825 0.1665 0.7213
C46_8 C 0.7684(3) 0.14439(18) 0.67715(18)
H26_8 H 0.7808 0.1247 0.6804
C47_8 C 0.7500 0.14805(9) 0.64805(9)
C48_8 C 0.7500 0.12195(9) 0.62195(9)
C49_8 C 0.78027(19) 0.1074(2) 0.6104(2)
H27_8 H 0.8008 0.1151 0.6188
C50_8 C 0.77976(18) 0.08188(19) 0.58669(17)
H28_8 H 0.7999 0.0714 0.5808
C51_8 C 0.7500 0.07148(8) 0.57148(8)
C52_8 C 0.7500 0.04474(11) 0.54474(11)
C53_8 C 0.77522(7) 0.27522(7) 0.7500
C54_8 C 0.80157(7) 0.30157(7) 0.7500
C55_8 C 0.83059(19) 0.29780(19) 0.7691(3)
H29_8 H 0.8335 0.2787 0.7825
C56_8 C 0.85561(18) 0.32285(18) 0.7684(3)
H30_8 H 0.8753 0.3196 0.7808
C57_8 C 0.85195(9) 0.35195(9) 0.7500
C58_8 C 0.87805(9) 0.37805(9) 0.7500
C59_8 C 0.8926(2) 0.3896(2) 0.78027(19)
H31_8 H 0.8849 0.3812 0.8008
C60_8 C 0.91812(19) 0.41331(17) 0.77976(18)
H32_8 H 0.9286 0.4192 0.7999
C61_8 C 0.92852(8) 0.42852(8) 0.7500
C62_8 C 0.95526(11) 0.45526(11) 0.7500
O10_8 O 0.72106(10) 0.03479(7) 0.53478(8)
C63_8 C 0.7309(3) 0.20220(19) 0.66941(19)
H33_8 H 0.7175 0.2213 0.6665
C64_8 C 0.7316(3) 0.17715(18) 0.64439(18)
H34_8 H 0.7192 0.1804 0.6247
C65_8 C 0.71973(19) 0.1104(2) 0.6074(2)
H35_8 H 0.6992 0.1188 0.6151
C66_8 C 0.72024(18) 0.08669(17) 0.58188(19)
H36_8 H 0.7001 0.0808 0.5714
O11_8 O 0.96521(7) 0.46522(8) 0.72106(10)
C67_8 C 0.79780(19) 0.33059(19) 0.7309(3)
H37_8 H 0.7787 0.3335 0.7175
C68_8 C 0.82285(18) 0.35561(18) 0.7316(3)
H38_8 H 0.8196 0.3753 0.7192
C69_8 C 0.8896(2) 0.3926(2) 0.71973(19)
H39_8 H 0.8812 0.3849 0.6992
C70_8 C 0.91331(17) 0.41812(19) 0.72024(18)
H40_8 H 0.9192 0.4286 0.7001
C71_8 C 0.77522(7) 0.2500 0.72478(7)
C72_8 C 0.80157(7) 0.2500 0.69843(7)
C73_8 C 0.83059(19) 0.2309(3) 0.70220(19)
H41_8 H 0.8335 0.2175 0.7213
C74_8 C 0.85561(18) 0.2316(3) 0.67715(18)
H42_8 H 0.8753 0.2192 0.6804
C75_8 C 0.85195(9) 0.2500 0.64805(9)
C76_8 C 0.87805(9) 0.2500 0.62195(9)
C77_8 C 0.8926(2) 0.21973(19) 0.6104(2)
H43_8 H 0.8849 0.1992 0.6188
C78_8 C 0.91812(19) 0.22024(18) 0.58669(17)
H44_8 H 0.9286 0.2001 0.5808
C79_8 C 0.92852(8) 0.2500 0.57148(8)
C80_8 C 0.95526(11) 0.2500 0.54474(11)
C81_8 C 0.79780(19) 0.2691(3) 0.66941(19)
H45_8 H 0.7787 0.2825 0.6665
C82_8 C 0.82285(18) 0.2684(3) 0.64439(18)
H46_8 H 0.8196 0.2808 0.6247
C83_8 C 0.8896(2) 0.28027(19) 0.6074(2)
H47_8 H 0.8812 0.3008 0.6151
C84_8 C 0.91331(17) 0.27976(18) 0.58188(19)
H48_8 H 0.9192 0.2999 0.5714
O15_17 O 0.3382(3) 0.0000 0.5000
O15_18 O 0.3382(3) 1.0000 0.5000
O15_19 O 0.6618(3) 0.0000 0.5000
O15_20 O 0.6618(3) 1.0000 0.5000
O15_21 O -0.0000 0.5000 0.6618(3)
O15_22 O 1.0000 0.5000 0.6618(3)
O15_23 O 0.0000 0.5000 0.3382(3)
O15_24 O 1.0000 0.5000 0.3382(3)
loop_
_geom_bond_atom_site_label_1
_geom_bond_atom_site_label_2
_geom_bond_site_symmetry_1
_geom_bond_site_symmetry_2
O2 Cu1 1_555 1_555
O14 Cu2 1_555 1_555
O15 Cu3 1_555 1_555
O16 Cu1 1_555 1_555
O17 Cu2 1_555 1_555
O19 Cu3 1_555 1_555
O20 Cu1 1_555 1_555
O22 Cu2 1_555 1_555
O24 Cu3 1_555 1_555
Cu1_2 O1 1_555 1_555
O1 C10 1_555 1_555
O2_2 Cu1_2 1_555 1_555
C1 C2 1_555 1_555
C2 C3 1_555 1_555
C3 H1 1_555 1_555
C4 C3 1_555 1_555
H2 C4 1_555 1_555
C5 C4 1_555 1_555
C6 C5 1_555 1_555
C7 C6 1_555 1_555
H3 C7 1_555 1_555
C8 C7 1_555 1_555
H4 C8 1_555 1_555
C9 C8 1_555 1_555
C10 C9 1_555 1_555
O3 C10 1_555 1_555
C11 C2 1_555 1_555
H5 C11 1_555 1_555
C12 C5 1_555 1_555
H6 C12 1_555 1_555
C13 C6 1_555 1_555
H7 C13 1_555 1_555
C14 C9 1_555 1_555
H8 C14 1_555 1_555
O4 C24 1_555 1_555
C15 C1 1_555 1_555
C16 C15 1_555 1_555
C17 C16 1_555 1_555
H9 C17 1_555 1_555
C18 C17 1_555 1_555
H10 C18 1_555 1_555
C19 C18 1_555 1_555
C20 C19 1_555 1_555
C21 C20 1_555 1_555
H11 C21 1_555 1_555
C22 C21 1_555 1_555
H12 C22 1_555 1_555
C23 C22 1_555 1_555
C24 C23 1_555 1_555
O5 C34 1_555 1_555
C25 C1 1_555 1_555
C26 C25 1_555 1_555
C27 C26 1_555 1_555
H13 C27 1_555 1_555
C28 C27 1_555 1_555
H14 C28 1_555 1_555
C29 C28 1_555 1_555
C30 C29 1_555 1_555
C31 C30 1_555 1_555
H15 C31 1_555 1_555
C32 C31 1_555 1_555
H16 C32 1_555 1_555
C33 C32 1_555 1_555
C34 C33 1_555 1_555
O6 C24 1_555 1_555
C35 C16 1_555 1_555
H17 C35 1_555 1_555
C36 C19 1_555 1_555
H18 C36 1_555 1_555
C37 C20 1_555 1_555
H19 C37 1_555 1_555
C38 C23 1_555 1_555
H20 C38 1_555 1_555
O7 C34 1_555 1_555
C39 C26 1_555 1_555
H21 C39 1_555 1_555
C40 C29 1_555 1_555
H22 C40 1_555 1_555
C41 C30 1_555 1_555
H23 C41 1_555 1_555
C42 C33 1_555 1_555
H24 C42 1_555 1_555
O8 C52 1_555 1_555
C43 C25 1_555 1_555
C44 C43 1_555 1_555
C45 C44 1_555 1_555
H25 C45 1_555 1_555
C46 C45 1_555 1_555
H26 C46 1_555 1_555
C47 C46 1_555 1_555
C48 C47 1_555 1_555
C49 C48 1_555 1_555
H27 C49 1_555 1_555
C50 C49 1_555 1_555
H28 C50 1_555 1_555
C51 C50 1_555 1_555
C52 C51 1_555 1_555
O9 C62 1_555 1_555
C53 C15 1_555 1_555
C54 C53 1_555 1_555
C55 C54 1_555 1_555
H29 C55 1_555 1_555
C56 C55 1_555 1_555
H30 C56 1_555 1_555
C57 C56 1_555 1_555
C58 C57 1_555 1_555
C59 C58 1_555 1_555
H31 C59 1_555 1_555
C60 C59 1_555 1_555
H32 C60 1_555 1_555
C61 C60 1_555 1_555
C62 C61 1_555 1_555
O10 C52 1_555 1_555
C63 C44 1_555 1_555
H33 C63 1_555 1_555
C64 C47 1_555 1_555
H34 C64 1_555 1_555
C65 C48 1_555 1_555
H35 C65 1_555 1_555
C66 C51 1_555 1_555
H36 C66 1_555 1_555
O11 C62 1_555 1_555
C67 C54 1_555 1_555
H37 C67 1_555 1_555
C68 C57 1_555 1_555
H38 C68 1_555 1_555
C69 C58 1_555 1_555
H39 C69 1_555 1_555
C70 C61 1_555 1_555
H40 C70 1_555 1_555
O12 C80 1_555 1_555
C71 C43 1_555 1_555
C72 C71 1_555 1_555
C73 C72 1_555 1_555
H41 C73 1_555 1_555
C74 C73 1_555 1_555
H42 C74 1_555 1_555
C75 C74 1_555 1_555
C76 C75 1_555 1_555
C77 C76 1_555 1_555
H43 C77 1_555 1_555
C78 C77 1_555 1_555
H44 C78 1_555 1_555
C79 C78 1_555 1_555
C80 C79 1_555 1_555
O13 C80 1_555 1_555
C81 C72 1_555 1_555
H45 C81 1_555 1_555
C82 C75 1_555 1_555
H46 C82 1_555 1_555
C83 C76 1_555 1_555
H47 C83 1_555 1_555
C84 C79 1_555 1_555
H48 C84 1_555 1_555
Cu2_2 O4 1_555 1_555
O14_2 Cu2_2 1_555 1_555
Cu3_2 O3 1_555 1_555
O15_2 Cu3_2 1_555 1_555
Cu4 O8 1_555 1_555
Cu5 O9 1_555 1_555
Cu6 O12 1_555 1_555
Cu7 O5 1_555 1_555
Cu8 O13 1_555 1_555
Cu9_2 O6 1_555 1_555
Cu10 O7 1_555 1_555
Cu11 O10 1_555 1_555
Cu12 O11 1_555 1_555
O18 Cu2_2 1_555 1_555
O21 Cu1_2 1_555 1_555
O23 Cu3_2 1_555 1_555
C11 C12 1_555 1_555
C13 C14 1_555 1_555
C35 C36 1_555 1_555
C37 C38 1_555 1_555
C39 C40 1_555 1_555
C41 C42 1_555 1_555
C53 C71 1_555 1_555
C63 C64 1_555 1_555
C65 C66 1_555 1_555
C67 C68 1_555 1_555
C69 C70 1_555 1_555
C81 C82 1_555 1_555
C83 C84 1_555 1_555
O2_3 Cu1_3 1_555 1_555
O14_3 Cu2_3 1_555 1_555
O15_3 Cu3_3 1_555 1_555
O16_2 Cu1_3 1_555 1_555
O17_2 Cu2_3 1_555 1_555
O19_2 Cu3_3 1_555 1_555
O20_2 Cu1_3 1_555 1_555
O22_2 Cu2_3 1_555 1_555
O24_2 Cu3_3 1_555 1_555
Cu1_4 O1_2 1_555 1_555
O1_2 C10_2 1_555 1_555
O2_4 Cu1_4 1_555 1_555
C1_2 C2_2 1_555 1_555
C2_2 C3_2 1_555 1_555
C3_2 H1_2 1_555 1_555
C4_2 C3_2 1_555 1_555
H2_2 C4_2 1_555 1_555
C5_2 C4_2 1_555 1_555
C6_2 C5_2 1_555 1_555
C7_2 C6_2 1_555 1_555
H3_2 C7_2 1_555 1_555
C8_2 C7_2 1_555 1_555
H4_2 C8_2 1_555 1_555
C9_2 C8_2 1_555 1_555
C10_2 C9_2 1_555 1_555
O3_2 C10_2 1_555 1_555
C11_2 C2_2 1_555 1_555
H5_2 C11_2 1_555 1_555
C12_2 C5_2 1_555 1_555
H6_2 C12_2 1_555 1_555
C13_2 C6_2 1_555 1_555
H7_2 C13_2 1_555 1_555
C14_2 C9_2 1_555 1_555
H8_2 C14_2 1_555 1_555
O4_2 C24_2 1_555 1_555
C15_2 C1_2 1_555 1_555
C16_2 C15_2 1_555 1_555
C17_2 C16_2 1_555 1_555
H9_2 C17_2 1_555 1_555
C18_2 C17_2 1_555 1_555
H10_2 C18_2 1_555 1_555
C19_2 C18_2 1_555 1_555
C20_2 C19_2 1_555 1_555
C21_2 C20_2 1_555 1_555
H11_2 C21_2 1_555 1_555
C22_2 C21_2 1_555 1_555
H12_2 C22_2 1_555 1_555
C23_2 C22_2 1_555 1_555
C24_2 C23_2 1_555 1_555
O5_2 C34_2 1_555 1_555
C25_2 C1_2 1_555 1_555
C26_2 C25_2 1_555 1_555
C27_2 C26_2 1_555 1_555
H13_2 C27_2 1_555 1_555
C28_2 C27_2 1_555 1_555
H14_2 C28_2 1_555 1_555
C29_2 C28_2 1_555 1_555
C30_2 C29_2 1_555 1_555
C31_2 C30_2 1_555 1_555
H15_2 C31_2 1_555 1_555
C32_2 C31_2 1_555 1_555
H16_2 C32_2 1_555 1_555
C33_2 C32_2 1_555 1_555
C34_2 C33_2 1_555 1_555
O6_2 C24_2 1_555 1_555
C35_2 C16_2 1_555 1_555
H17_2 C35_2 1_555 1_555
C36_2 C19_2 1_555 1_555
H18_2 C36_2 1_555 1_555
C37_2 C20_2 1_555 1_555
H19_2 C37_2 1_555 1_555
C38_2 C23_2 1_555 1_555
H20_2 C38_2 1_555 1_555
O7_2 C34_2 1_555 1_555
C39_2 C26_2 1_555 1_555
H21_2 C39_2 1_555 1_555
C40_2 C29_2 1_555 1_555
H22_2 C40_2 1_555 1_555
C41_2 C30_2 1_555 1_555
H23_2 C41_2 1_555 1_555
C42_2 C33_2 1_555 1_555
H24_2 C42_2 1_555 1_555
O8_2 C52_2 1_555 1_555
C43_2 C25_2 1_555 1_555
C44_2 C43_2 1_555 1_555
C45_2 C44_2 1_555 1_555
H25_2 C45_2 1_555 1_555
C46_2 C45_2 1_555 1_555
H26_2 C46_2 1_555 1_555
C47_2 C46_2 1_555 1_555
C48_2 C47_2 1_555 1_555
C49_2 C48_2 1_555 1_555
H27_2 C49_2 1_555 1_555
C50_2 C49_2 1_555 1_555
H28_2 C50_2 1_555 1_555
C51_2 C50_2 1_555 1_555
C52_2 C51_2 1_555 1_555
O9_2 C62_2 1_555 1_555
C53_2 C15_2 1_555 1_555
C54_2 C53_2 1_555 1_555
C55_2 C54_2 1_555 1_555
H29_2 C55_2 1_555 1_555
C56_2 C55_2 1_555 1_555
H30_2 C56_2 1_555 1_555
C57_2 C56_2 1_555 1_555
C58_2 C57_2 1_555 1_555
C59_2 C58_2 1_555 1_555
H31_2 C59_2 1_555 1_555
C60_2 C59_2 1_555 1_555
H32_2 C60_2 1_555 1_555
C61_2 C60_2 1_555 1_555
C62_2 C61_2 1_555 1_555
O10_2 C52_2 1_555 1_555
C63_2 C44_2 1_555 1_555
H33_2 C63_2 1_555 1_555
C64_2 C47_2 1_555 1_555
H34_2 C64_2 1_555 1_555
C65_2 C48_2 1_555 1_555
H35_2 C65_2 1_555 1_555
C66_2 C51_2 1_555 1_555
H36_2 C66_2 1_555 1_555
O11_2 C62_2 1_555 1_555
C67_2 C54_2 1_555 1_555
H37_2 C67_2 1_555 1_555
C68_2 C57_2 1_555 1_555
H38_2 C68_2 1_555 1_555
C69_2 C58_2 1_555 1_555
H39_2 C69_2 1_555 1_555
C70_2 C61_2 1_555 1_555
H40_2 C70_2 1_555 1_555
O12_2 C80_2 1_555 1_555
C71_2 C43_2 1_555 1_555
C72_2 C71_2 1_555 1_555
C73_2 C72_2 1_555 1_555
H41_2 C73_2 1_555 1_555
C74_2 C73_2 1_555 1_555
H42_2 C74_2 1_555 1_555
C75_2 C74_2 1_555 1_555
C76_2 C75_2 1_555 1_555
C77_2 C76_2 1_555 1_555
H43_2 C77_2 1_555 1_555
C78_2 C77_2 1_555 1_555
H44_2 C78_2 1_555 1_555
C79_2 C78_2 1_555 1_555
C80_2 C79_2 1_555 1_555
O13_2 C80_2 1_555 1_555
C81_2 C72_2 1_555 1_555
H45_2 C81_2 1_555 1_555
C82_2 C75_2 1_555 1_555
H46_2 C82_2 1_555 1_555
C83_2 C76_2 1_555 1_555
H47_2 C83_2 1_555 1_555
C84_2 C79_2 1_555 1_555
H48_2 C84_2 1_555 1_555
Cu2_4 O4_2 1_555 1_555
O14_4 Cu2_4 1_555 1_555
Cu3_4 O3_2 1_555 1_555
O15_4 Cu3_4 1_555 1_555
Cu4_4 O8_2 1_555 1_555
Cu5_2 O9_2 1_555 1_555
Cu6_4 O12_2 1_555 1_555
Cu7_2 O5_2 1_555 1_555
Cu8_4 O13_2 1_555 1_555
Cu9_4 O6_2 1_555 1_555
Cu10_2 O7_2 1_555 1_555
Cu11_4 O10_2 1_555 1_555
Cu12_2 O11_2 1_555 1_555
O18_2 Cu2_4 1_555 1_555
O21_2 Cu1_4 1_555 1_555
O23_2 Cu3_4 1_555 1_555
C11_2 C12_2 1_555 1_555
C13_2 C14_2 1_555 1_555
C35_2 C36_2 1_555 1_555
C37_2 C38_2 1_555 1_555
C39_2 C40_2 1_555 1_555
C41_2 C42_2 1_555 1_555
C53_2 C71_2 1_555 1_555
C63_2 C64_2 1_555 1_555
C65_2 C66_2 1_555 1_555
C67_2 C68_2 1_555 1_555
C69_2 C70_2 1_555 1_555
C81_2 C82_2 1_555 1_555
C83_2 C84_2 1_555 1_555
O16_2 C10_3 1_555 1_555
C1_3 C2_3 1_555 1_555
C2_3 C3_3 1_555 1_555
C3_3 H1_3 1_555 1_555
C4_3 C3_3 1_555 1_555
H2_3 C4_3 1_555 1_555
C5_3 C4_3 1_555 1_555
C6_3 C5_3 1_555 1_555
C7_3 C6_3 1_555 1_555
H3_3 C7_3 1_555 1_555
C8_3 C7_3 1_555 1_555
H4_3 C8_3 1_555 1_555
C9_3 C8_3 1_555 1_555
C10_3 C9_3 1_555 1_555
O19_2 C10_3 1_555 1_555
C11_3 C2_3 1_555 1_555
H5_3 C11_3 1_555 1_555
C12_3 C5_3 1_555 1_555
H6_3 C12_3 1_555 1_555
C13_3 C6_3 1_555 1_555
H7_3 C13_3 1_555 1_555
C14_3 C9_3 1_555 1_555
H8_3 C14_3 1_555 1_555
O22 C24_3 1_555 1_555
C15_3 C1_3 1_555 1_555
C16_3 C15_3 1_555 1_555
C17_3 C16_3 1_555 1_555
H9_3 C17_3 1_555 1_555
C18_3 C17_3 1_555 1_555
H10_3 C18_3 1_555 1_555
C19_3 C18_3 1_555 1_555
C20_3 C19_3 1_555 1_555
C21_3 C20_3 1_555 1_555
H11_3 C21_3 1_555 1_555
C22_3 C21_3 1_555 1_555
H12_3 C22_3 1_555 1_555
C23_3 C22_3 1_555 1_555
C24_3 C23_3 1_555 1_555
O5_3 C34_3 1_555 1_555
C25_3 C1_3 1_555 1_555
C26_3 C25_3 1_555 1_555
C27_3 C26_3 1_555 1_555
H13_3 C27_3 1_555 1_555
C28_3 C27_3 1_555 1_555
H14_3 C28_3 1_555 1_555
C29_3 C28_3 1_555 1_555
C30_3 C29_3 1_555 1_555
C31_3 C30_3 1_555 1_555
H15_3 C31_3 1_555 1_555
C32_3 C31_3 1_555 1_555
H16_3 C32_3 1_555 1_555
C33_3 C32_3 1_555 1_555
C34_3 C33_3 1_555 1_555
O6_3 C24_3 1_555 1_555
C35_3 C16_3 1_555 1_555
H17_3 C35_3 1_555 1_555
C36_3 C19_3 1_555 1_555
H18_3 C36_3 1_555 1_555
C37_3 C20_3 1_555 1_555
H19_3 C37_3 1_555 1_555
C38_3 C23_3 1_555 1_555
H20_3 C38_3 1_555 1_555
O7_3 C34_3 1_555 1_555
C39_3 C26_3 1_555 1_555
H21_3 C39_3 1_555 1_555
C40_3 C29_3 1_555 1_555
H22_3 C40_3 1_555 1_555
C41_3 C30_3 1_555 1_555
H23_3 C41_3 1_555 1_555
C42_3 C33_3 1_555 1_555
H24_3 C42_3 1_555 1_555
O8_3 C52_3 1_555 1_555
C43_3 C25_3 1_555 1_555
C44_3 C43_3 1_555 1_555
C45_3 C44_3 1_555 1_555
H25_3 C45_3 1_555 1_555
C46_3 C45_3 1_555 1_555
H26_3 C46_3 1_555 1_555
C47_3 C46_3 1_555 1_555
C48_3 C47_3 1_555 1_555
C49_3 C48_3 1_555 1_555
H27_3 C49_3 1_555 1_555
C50_3 C49_3 1_555 1_555
H28_3 C50_3 1_555 1_555
C51_3 C50_3 1_555 1_555
C52_3 C51_3 1_555 1_555
O9_3 C62_3 1_555 1_555
C53_3 C15_3 1_555 1_555
C54_3 C53_3 1_555 1_555
C55_3 C54_3 1_555 1_555
H29_3 C55_3 1_555 1_555
C56_3 C55_3 1_555 1_555
H30_3 C56_3 1_555 1_555
C57_3 C56_3 1_555 1_555
C58_3 C57_3 1_555 1_555
C59_3 C58_3 1_555 1_555
H31_3 C59_3 1_555 1_555
C60_3 C59_3 1_555 1_555
H32_3 C60_3 1_555 1_555
C61_3 C60_3 1_555 1_555
C62_3 C61_3 1_555 1_555
O10_3 C52_3 1_555 1_555
C63_3 C44_3 1_555 1_555
H33_3 C63_3 1_555 1_555
C64_3 C47_3 1_555 1_555
H34_3 C64_3 1_555 1_555
C65_3 C48_3 1_555 1_555
H35_3 C65_3 1_555 1_555
C66_3 C51_3 1_555 1_555
H36_3 C66_3 1_555 1_555
O11_3 C62_3 1_555 1_555
C67_3 C54_3 1_555 1_555
H37_3 C67_3 1_555 1_555
C68_3 C57_3 1_555 1_555
H38_3 C68_3 1_555 1_555
C69_3 C58_3 1_555 1_555
H39_3 C69_3 1_555 1_555
C70_3 C61_3 1_555 1_555
H40_3 C70_3 1_555 1_555
O12_3 C80_3 1_555 1_555
C71_3 C43_3 1_555 1_555
C72_3 C71_3 1_555 1_555
C73_3 C72_3 1_555 1_555
H41_3 C73_3 1_555 1_555
C74_3 C73_3 1_555 1_555
H42_3 C74_3 1_555 1_555
C75_3 C74_3 1_555 1_555
C76_3 C75_3 1_555 1_555
C77_3 C76_3 1_555 1_555
H43_3 C77_3 1_555 1_555
C78_3 C77_3 1_555 1_555
H44_3 C78_3 1_555 1_555
C79_3 C78_3 1_555 1_555
C80_3 C79_3 1_555 1_555
O13_3 C80_3 1_555 1_555
C81_3 C72_3 1_555 1_555
H45_3 C81_3 1_555 1_555
C82_3 C75_3 1_555 1_555
H46_3 C82_3 1_555 1_555
C83_3 C76_3 1_555 1_555
H47_3 C83_3 1_555 1_555
C84_3 C79_3 1_555 1_555
H48_3 C84_3 1_555 1_555
Cu4_2 O8_3 1_555 1_555
Cu5_3 O9_3 1_555 1_555
Cu6_3 O12_3 1_555 1_555
Cu7_4 O5_3 1_555 1_555
Cu8_3 O13_3 1_555 1_555
Cu9 O6_3 1_555 1_555
Cu10_4 O7_3 1_555 1_555
Cu11_2 O10_3 1_555 1_555
Cu12_3 O11_3 1_555 1_555
C11_3 C12_3 1_555 1_555
C13_3 C14_3 1_555 1_555
C35_3 C36_3 1_555 1_555
C37_3 C38_3 1_555 1_555
C39_3 C40_3 1_555 1_555
C41_3 C42_3 1_555 1_555
C53_3 C71_3 1_555 1_555
C63_3 C64_3 1_555 1_555
C65_3 C66_3 1_555 1_555
C67_3 C68_3 1_555 1_555
C69_3 C70_3 1_555 1_555
C81_3 C82_3 1_555 1_555
C83_3 C84_3 1_555 1_555
O16 C10_4 1_555 1_555
C1_4 C2_4 1_555 1_555
C2_4 C3_4 1_555 1_555
C3_4 H1_4 1_555 1_555
C4_4 C3_4 1_555 1_555
H2_4 C4_4 1_555 1_555
C5_4 C4_4 1_555 1_555
C6_4 C5_4 1_555 1_555
C7_4 C6_4 1_555 1_555
H3_4 C7_4 1_555 1_555
C8_4 C7_4 1_555 1_555
H4_4 C8_4 1_555 1_555
C9_4 C8_4 1_555 1_555
C10_4 C9_4 1_555 1_555
O19 C10_4 1_555 1_555
C11_4 C2_4 1_555 1_555
H5_4 C11_4 1_555 1_555
C12_4 C5_4 1_555 1_555
H6_4 C12_4 1_555 1_555
C13_4 C6_4 1_555 1_555
H7_4 C13_4 1_555 1_555
C14_4 C9_4 1_555 1_555
H8_4 C14_4 1_555 1_555
O22_2 C24_4 1_555 1_555
C15_4 C1_4 1_555 1_555
C16_4 C15_4 1_555 1_555
C17_4 C16_4 1_555 1_555
H9_4 C17_4 1_555 1_555
C18_4 C17_4 1_555 1_555
H10_4 C18_4 1_555 1_555
C19_4 C18_4 1_555 1_555
C20_4 C19_4 1_555 1_555
C21_4 C20_4 1_555 1_555
H11_4 C21_4 1_555 1_555
C22_4 C21_4 1_555 1_555
H12_4 C22_4 1_555 1_555
C23_4 C22_4 1_555 1_555
C24_4 C23_4 1_555 1_555
O5_4 C34_4 1_555 1_555
C25_4 C1_4 1_555 1_555
C26_4 C25_4 1_555 1_555
C27_4 C26_4 1_555 1_555
H13_4 C27_4 1_555 1_555
C28_4 C27_4 1_555 1_555
H14_4 C28_4 1_555 1_555
C29_4 C28_4 1_555 1_555
C30_4 C29_4 1_555 1_555
C31_4 C30_4 1_555 1_555
H15_4 C31_4 1_555 1_555
C32_4 C31_4 1_555 1_555
H16_4 C32_4 1_555 1_555
C33_4 C32_4 1_555 1_555
C34_4 C33_4 1_555 1_555
O6_4 C24_4 1_555 1_555
C35_4 C16_4 1_555 1_555
H17_4 C35_4 1_555 1_555
C36_4 C19_4 1_555 1_555
H18_4 C36_4 1_555 1_555
C37_4 C20_4 1_555 1_555
H19_4 C37_4 1_555 1_555
C38_4 C23_4 1_555 1_555
H20_4 C38_4 1_555 1_555
O7_4 C34_4 1_555 1_555
C39_4 C26_4 1_555 1_555
H21_4 C39_4 1_555 1_555
C40_4 C29_4 1_555 1_555
H22_4 C40_4 1_555 1_555
C41_4 C30_4 1_555 1_555
H23_4 C41_4 1_555 1_555
C42_4 C33_4 1_555 1_555
H24_4 C42_4 1_555 1_555
O8_4 C52_4 1_555 1_555
C43_4 C25_4 1_555 1_555
C44_4 C43_4 1_555 1_555
C45_4 C44_4 1_555 1_555
H25_4 C45_4 1_555 1_555
C46_4 C45_4 1_555 1_555
H26_4 C46_4 1_555 1_555
C47_4 C46_4 1_555 1_555
C48_4 C47_4 1_555 1_555
C49_4 C48_4 1_555 1_555
H27_4 C49_4 1_555 1_555
C50_4 C49_4 1_555 1_555
H28_4 C50_4 1_555 1_555
C51_4 C50_4 1_555 1_555
C52_4 C51_4 1_555 1_555
O9_4 C62_4 1_555 1_555
C53_4 C15_4 1_555 1_555
C54_4 C53_4 1_555 1_555
C55_4 C54_4 1_555 1_555
H29_4 C55_4 1_555 1_555
C56_4 C55_4 1_555 1_555
H30_4 C56_4 1_555 1_555
C57_4 C56_4 1_555 1_555
C58_4 C57_4 1_555 1_555
C59_4 C58_4 1_555 1_555
H31_4 C59_4 1_555 1_555
C60_4 C59_4 1_555 1_555
H32_4 C60_4 1_555 1_555
C61_4 C60_4 1_555 1_555
C62_4 C61_4 1_555 1_555
O10_4 C52_4 1_555 1_555
C63_4 C44_4 1_555 1_555
H33_4 C63_4 1_555 1_555
C64_4 C47_4 1_555 1_555
H34_4 C64_4 1_555 1_555
C65_4 C48_4 1_555 1_555
H35_4 C65_4 1_555 1_555
C66_4 C51_4 1_555 1_555
H36_4 C66_4 1_555 1_555
O11_4 C62_4 1_555 1_555
C67_4 C54_4 1_555 1_555
H37_4 C67_4 1_555 1_555
C68_4 C57_4 1_555 1_555
H38_4 C68_4 1_555 1_555
C69_4 C58_4 1_555 1_555
H39_4 C69_4 1_555 1_555
C70_4 C61_4 1_555 1_555
H40_4 C70_4 1_555 1_555
O12_4 C80_4 1_555 1_555
C71_4 C43_4 1_555 1_555
C72_4 C71_4 1_555 1_555
C73_4 C72_4 1_555 1_555
H41_4 C73_4 1_555 1_555
C74_4 C73_4 1_555 1_555
H42_4 C74_4 1_555 1_555
C75_4 C74_4 1_555 1_555
C76_4 C75_4 1_555 1_555
C77_4 C76_4 1_555 1_555
H43_4 C77_4 1_555 1_555
C78_4 C77_4 1_555 1_555
H44_4 C78_4 1_555 1_555
C79_4 C78_4 1_555 1_555
C80_4 C79_4 1_555 1_555
O13_4 C80_4 1_555 1_555
C81_4 C72_4 1_555 1_555
H45_4 C81_4 1_555 1_555
C82_4 C75_4 1_555 1_555
H46_4 C82_4 1_555 1_555
C83_4 C76_4 1_555 1_555
H47_4 C83_4 1_555 1_555
C84_4 C79_4 1_555 1_555
H48_4 C84_4 1_555 1_555
Cu4_3 O8_4 1_555 1_555
Cu5_4 O9_4 1_555 1_555
Cu6_2 O12_4 1_555 1_555
Cu7_3 O5_4 1_555 1_555
Cu8_2 O13_4 1_555 1_555
Cu9_3 O6_4 1_555 1_555
Cu10_3 O7_4 1_555 1_555
Cu11_3 O10_4 1_555 1_555
Cu12_4 O11_4 1_555 1_555
C11_4 C12_4 1_555 1_555
C13_4 C14_4 1_555 1_555
C35_4 C36_4 1_555 1_555
C37_4 C38_4 1_555 1_555
C39_4 C40_4 1_555 1_555
C41_4 C42_4 1_555 1_555
C53_4 C71_4 1_555 1_555
C63_4 C64_4 1_555 1_555
C65_4 C66_4 1_555 1_555
C67_4 C68_4 1_555 1_555
C69_4 C70_4 1_555 1_555
C81_4 C82_4 1_555 1_555
C83_4 C84_4 1_555 1_555
O2_5 Cu4 1_555 1_555
O14_5 Cu7_3 1_555 1_555
O15_5 Cu11 1_555 1_555
O17_3 Cu7_3 1_555 1_555
O20_3 Cu4 1_555 1_555
O24_3 Cu11 1_555 1_555
O2_6 Cu4_2 1_555 1_555
O14_6 Cu7_4 1_555 1_555
O15_6 Cu11_2 1_555 1_555
O18_3 Cu7_4 1_555 1_555
O21_3 Cu4_2 1_555 1_555
O23_3 Cu11_2 1_555 1_555
O2_7 Cu4_3 1_555 1_555
O14_7 Cu7 1_555 1_555
O15_7 Cu11_3 1_555 1_555
O17_4 Cu7 1_555 1_555
O20_4 Cu4_3 1_555 1_555
O24_4 Cu11_3 1_555 1_555
O2_8 Cu4_4 1_555 1_555
O14_8 Cu7_2 1_555 1_555
O15_8 Cu11_4 1_555 1_555
O18_4 Cu7_2 1_555 1_555
O21_4 Cu4_4 1_555 1_555
O23_4 Cu11_4 1_555 1_555
O2_9 Cu5_3 1_555 1_555
O14_9 Cu6 1_555 1_555
O15_9 Cu12_3 1_555 1_555
O17_5 Cu6 1_555 1_555
O20_5 Cu5_3 1_555 1_555
O24_5 Cu12_3 1_555 1_555
O2_10 Cu5_4 1_555 1_555
O14_10 Cu6_2 1_555 1_555
O15_10 Cu12_4 1_555 1_555
O18_5 Cu6_2 1_555 1_555
O21_5 Cu5_4 1_555 1_555
O23_5 Cu12_4 1_555 1_555
O2_11 Cu5 1_555 1_555
O14_11 Cu6_3 1_555 1_555
O15_11 Cu12 1_555 1_555
O17_6 Cu6_3 1_555 1_555
O20_6 Cu5 1_555 1_555
O24_6 Cu12 1_555 1_555
O2_12 Cu5_2 1_555 1_555
O14_12 Cu6_4 1_555 1_555
O15_12 Cu12_2 1_555 1_555
O18_6 Cu6_4 1_555 1_555
O21_6 Cu5_2 1_555 1_555
O23_6 Cu12_2 1_555 1_555
O17 C10_5 1_555 1_555
C1_5 C2_5 1_555 1_555
C2_5 C3_5 1_555 1_555
C3_5 H1_5 1_555 1_555
C4_5 C3_5 1_555 1_555
H2_5 C4_5 1_555 1_555
C5_5 C4_5 1_555 1_555
C6_5 C5_5 1_555 1_555
C7_5 C6_5 1_555 1_555
H3_5 C7_5 1_555 1_555
C8_5 C7_5 1_555 1_555
H4_5 C8_5 1_555 1_555
C9_5 C8_5 1_555 1_555
C10_5 C9_5 1_555 1_555
O3_3 C10_5 1_555 1_555
C11_5 C2_5 1_555 1_555
H5_5 C11_5 1_555 1_555
C12_5 C5_5 1_555 1_555
H6_5 C12_5 1_555 1_555
C13_5 C6_5 1_555 1_555
H7_5 C13_5 1_555 1_555
C14_5 C9_5 1_555 1_555
H8_5 C14_5 1_555 1_555
O20 C24_5 1_555 1_555
C15_5 C1_5 1_555 1_555
C16_5 C15_5 1_555 1_555
C17_5 C16_5 1_555 1_555
H9_5 C17_5 1_555 1_555
C18_5 C17_5 1_555 1_555
H10_5 C18_5 1_555 1_555
C19_5 C18_5 1_555 1_555
C20_5 C19_5 1_555 1_555
C21_5 C20_5 1_555 1_555
H11_5 C21_5 1_555 1_555
C22_5 C21_5 1_555 1_555
H12_5 C22_5 1_555 1_555
C23_5 C22_5 1_555 1_555
C24_5 C23_5 1_555 1_555
O20_5 C34_5 1_555 1_555
C25_5 C1_5 1_555 1_555
C26_5 C25_5 1_555 1_555
C27_5 C26_5 1_555 1_555
H13_5 C27_5 1_555 1_555
C28_5 C27_5 1_555 1_555
H14_5 C28_5 1_555 1_555
C29_5 C28_5 1_555 1_555
C30_5 C29_5 1_555 1_555
C31_5 C30_5 1_555 1_555
H15_5 C31_5 1_555 1_555
C32_5 C31_5 1_555 1_555
H16_5 C32_5 1_555 1_555
C33_5 C32_5 1_555 1_555
C34_5 C33_5 1_555 1_555
O24 C24_5 1_555 1_555
C35_5 C16_5 1_555 1_555
H17_5 C35_5 1_555 1_555
C36_5 C19_5 1_555 1_555
H18_5 C36_5 1_555 1_555
C37_5 C20_5 1_555 1_555
H19_5 C37_5 1_555 1_555
C38_5 C23_5 1_555 1_555
H20_5 C38_5 1_555 1_555
O24_5 C34_5 1_555 1_555
C39_5 C26_5 1_555 1_555
H21_5 C39_5 1_555 1_555
C40_5 C29_5 1_555 1_555
H22_5 C40_5 1_555 1_555
C41_5 C30_5 1_555 1_555
H23_5 C41_5 1_555 1_555
C42_5 C33_5 1_555 1_555
H24_5 C42_5 1_555 1_555
O17_5 C52_5 1_555 1_555
C43_5 C25_5 1_555 1_555
C44_5 C43_5 1_555 1_555
C45_5 C44_5 1_555 1_555
H25_5 C45_5 1_555 1_555
C46_5 C45_5 1_555 1_555
H26_5 C46_5 1_555 1_555
C47_5 C46_5 1_555 1_555
C48_5 C47_5 1_555 1_555
C49_5 C48_5 1_555 1_555
H27_5 C49_5 1_555 1_555
C50_5 C49_5 1_555 1_555
H28_5 C50_5 1_555 1_555
C51_5 C50_5 1_555 1_555
C52_5 C51_5 1_555 1_555
O17_3 C62_5 1_555 1_555
C53_5 C15_5 1_555 1_555
C54_5 C53_5 1_555 1_555
C55_5 C54_5 1_555 1_555
H29_5 C55_5 1_555 1_555
C56_5 C55_5 1_555 1_555
H30_5 C56_5 1_555 1_555
C57_5 C56_5 1_555 1_555
C58_5 C57_5 1_555 1_555
C59_5 C58_5 1_555 1_555
H31_5 C59_5 1_555 1_555
C60_5 C59_5 1_555 1_555
H32_5 C60_5 1_555 1_555
C61_5 C60_5 1_555 1_555
C62_5 C61_5 1_555 1_555
O10_5 C52_5 1_555 1_555
C63_5 C44_5 1_555 1_555
H33_5 C63_5 1_555 1_555
C64_5 C47_5 1_555 1_555
H34_5 C64_5 1_555 1_555
C65_5 C48_5 1_555 1_555
H35_5 C65_5 1_555 1_555
C66_5 C51_5 1_555 1_555
H36_5 C66_5 1_555 1_555
O11_5 C62_5 1_555 1_555
C67_5 C54_5 1_555 1_555
H37_5 C67_5 1_555 1_555
C68_5 C57_5 1_555 1_555
H38_5 C68_5 1_555 1_555
C69_5 C58_5 1_555 1_555
H39_5 C69_5 1_555 1_555
C70_5 C61_5 1_555 1_555
H40_5 C70_5 1_555 1_555
O20_3 C80_5 1_555 1_555
C71_5 C43_5 1_555 1_555
C72_5 C71_5 1_555 1_555
C73_5 C72_5 1_555 1_555
H41_5 C73_5 1_555 1_555
C74_5 C73_5 1_555 1_555
H42_5 C74_5 1_555 1_555
C75_5 C74_5 1_555 1_555
C76_5 C75_5 1_555 1_555
C77_5 C76_5 1_555 1_555
H43_5 C77_5 1_555 1_555
C78_5 C77_5 1_555 1_555
H44_5 C78_5 1_555 1_555
C79_5 C78_5 1_555 1_555
C80_5 C79_5 1_555 1_555
O24_3 C80_5 1_555 1_555
C81_5 C72_5 1_555 1_555
H45_5 C81_5 1_555 1_555
C82_5 C75_5 1_555 1_555
H46_5 C82_5 1_555 1_555
C83_5 C76_5 1_555 1_555
H47_5 C83_5 1_555 1_555
C84_5 C79_5 1_555 1_555
H48_5 C84_5 1_555 1_555
Cu9 O3_3 1_555 1_555
O15_13 Cu9 1_555 1_555
Cu8 O10_5 1_555 1_555
Cu10_3 O11_5 1_555 1_555
C11_5 C12_5 1_555 1_555
C13_5 C14_5 1_555 1_555
C35_5 C36_5 1_555 1_555
C37_5 C38_5 1_555 1_555
C39_5 C40_5 1_555 1_555
C41_5 C42_5 1_555 1_555
C53_5 C71_5 1_555 1_555
C63_5 C64_5 1_555 1_555
C65_5 C66_5 1_555 1_555
C67_5 C68_5 1_555 1_555
C69_5 C70_5 1_555 1_555
C81_5 C82_5 1_555 1_555
C83_5 C84_5 1_555 1_555
O15_14 Cu9_2 1_555 1_555
O19_3 Cu9_2 1_555 1_555
O17_2 C10_6 1_555 1_555
C1_6 C2_6 1_555 1_555
C2_6 C3_6 1_555 1_555
C3_6 H1_6 1_555 1_555
C4_6 C3_6 1_555 1_555
H2_6 C4_6 1_555 1_555
C5_6 C4_6 1_555 1_555
C6_6 C5_6 1_555 1_555
C7_6 C6_6 1_555 1_555
H3_6 C7_6 1_555 1_555
C8_6 C7_6 1_555 1_555
H4_6 C8_6 1_555 1_555
C9_6 C8_6 1_555 1_555
C10_6 C9_6 1_555 1_555
O3_4 C10_6 1_555 1_555
C11_6 C2_6 1_555 1_555
H5_6 C11_6 1_555 1_555
C12_6 C5_6 1_555 1_555
H6_6 C12_6 1_555 1_555
C13_6 C6_6 1_555 1_555
H7_6 C13_6 1_555 1_555
C14_6 C9_6 1_555 1_555
H8_6 C14_6 1_555 1_555
O20_2 C24_6 1_555 1_555
C15_6 C1_6 1_555 1_555
C16_6 C15_6 1_555 1_555
C17_6 C16_6 1_555 1_555
H9_6 C17_6 1_555 1_555
C18_6 C17_6 1_555 1_555
H10_6 C18_6 1_555 1_555
C19_6 C18_6 1_555 1_555
C20_6 C19_6 1_555 1_555
C21_6 C20_6 1_555 1_555
H11_6 C21_6 1_555 1_555
C22_6 C21_6 1_555 1_555
H12_6 C22_6 1_555 1_555
C23_6 C22_6 1_555 1_555
C24_6 C23_6 1_555 1_555
O21_5 C34_6 1_555 1_555
C25_6 C1_6 1_555 1_555
C26_6 C25_6 1_555 1_555
C27_6 C26_6 1_555 1_555
H13_6 C27_6 1_555 1_555
C28_6 C27_6 1_555 1_555
H14_6 C28_6 1_555 1_555
C29_6 C28_6 1_555 1_555
C30_6 C29_6 1_555 1_555
C31_6 C30_6 1_555 1_555
H15_6 C31_6 1_555 1_555
C32_6 C31_6 1_555 1_555
H16_6 C32_6 1_555 1_555
C33_6 C32_6 1_555 1_555
C34_6 C33_6 1_555 1_555
O24_2 C24_6 1_555 1_555
C35_6 C16_6 1_555 1_555
H17_6 C35_6 1_555 1_555
C36_6 C19_6 1_555 1_555
H18_6 C36_6 1_555 1_555
C37_6 C20_6 1_555 1_555
H19_6 C37_6 1_555 1_555
C38_6 C23_6 1_555 1_555
H20_6 C38_6 1_555 1_555
O23_5 C34_6 1_555 1_555
C39_6 C26_6 1_555 1_555
H21_6 C39_6 1_555 1_555
C40_6 C29_6 1_555 1_555
H22_6 C40_6 1_555 1_555
C41_6 C30_6 1_555 1_555
H23_6 C41_6 1_555 1_555
C42_6 C33_6 1_555 1_555
H24_6 C42_6 1_555 1_555
O18_6 C52_6 1_555 1_555
C43_6 C25_6 1_555 1_555
C44_6 C43_6 1_555 1_555
C45_6 C44_6 1_555 1_555
H25_6 C45_6 1_555 1_555
C46_6 C45_6 1_555 1_555
H26_6 C46_6 1_555 1_555
C47_6 C46_6 1_555 1_555
C48_6 C47_6 1_555 1_555
C49_6 C48_6 1_555 1_555
H27_6 C49_6 1_555 1_555
C50_6 C49_6 1_555 1_555
H28_6 C50_6 1_555 1_555
C51_6 C50_6 1_555 1_555
C52_6 C51_6 1_555 1_555
O18_3 C62_6 1_555 1_555
C53_6 C15_6 1_555 1_555
C54_6 C53_6 1_555 1_555
C55_6 C54_6 1_555 1_555
H29_6 C55_6 1_555 1_555
C56_6 C55_6 1_555 1_555
H30_6 C56_6 1_555 1_555
C57_6 C56_6 1_555 1_555
C58_6 C57_6 1_555 1_555
C59_6 C58_6 1_555 1_555
H31_6 C59_6 1_555 1_555
C60_6 C59_6 1_555 1_555
H32_6 C60_6 1_555 1_555
C61_6 C60_6 1_555 1_555
C62_6 C61_6 1_555 1_555
O10_6 C52_6 1_555 1_555
C63_6 C44_6 1_555 1_555
H33_6 C63_6 1_555 1_555
C64_6 C47_6 1_555 1_555
H34_6 C64_6 1_555 1_555
C65_6 C48_6 1_555 1_555
H35_6 C65_6 1_555 1_555
C66_6 C51_6 1_555 1_555
H36_6 C66_6 1_555 1_555
O11_6 C62_6 1_555 1_555
C67_6 C54_6 1_555 1_555
H37_6 C67_6 1_555 1_555
C68_6 C57_6 1_555 1_555
H38_6 C68_6 1_555 1_555
C69_6 C58_6 1_555 1_555
H39_6 C69_6 1_555 1_555
C70_6 C61_6 1_555 1_555
H40_6 C70_6 1_555 1_555
O21_4 C80_6 1_555 1_555
C71_6 C43_6 1_555 1_555
C72_6 C71_6 1_555 1_555
C73_6 C72_6 1_555 1_555
H41_6 C73_6 1_555 1_555
C74_6 C73_6 1_555 1_555
H42_6 C74_6 1_555 1_555
C75_6 C74_6 1_555 1_555
C76_6 C75_6 1_555 1_555
C77_6 C76_6 1_555 1_555
H43_6 C77_6 1_555 1_555
C78_6 C77_6 1_555 1_555
H44_6 C78_6 1_555 1_555
C79_6 C78_6 1_555 1_555
C80_6 C79_6 1_555 1_555
O23_4 C80_6 1_555 1_555
C81_6 C72_6 1_555 1_555
H45_6 C81_6 1_555 1_555
C82_6 C75_6 1_555 1_555
H46_6 C82_6 1_555 1_555
C83_6 C76_6 1_555 1_555
H47_6 C83_6 1_555 1_555
C84_6 C79_6 1_555 1_555
H48_6 C84_6 1_555 1_555
Cu9_3 O3_4 1_555 1_555
O15_15 Cu9_3 1_555 1_555
Cu8_4 O10_6 1_555 1_555
Cu10_4 O11_6 1_555 1_555
C11_6 C12_6 1_555 1_555
C13_6 C14_6 1_555 1_555
C35_6 C36_6 1_555 1_555
C37_6 C38_6 1_555 1_555
C39_6 C40_6 1_555 1_555
C41_6 C42_6 1_555 1_555
C53_6 C71_6 1_555 1_555
C63_6 C64_6 1_555 1_555
C65_6 C66_6 1_555 1_555
C67_6 C68_6 1_555 1_555
C69_6 C70_6 1_555 1_555
C81_6 C82_6 1_555 1_555
C83_6 C84_6 1_555 1_555
O15_16 Cu9_4 1_555 1_555
O19_4 Cu9_4 1_555 1_555
O18_2 C10_7 1_555 1_555
C1_7 C2_7 1_555 1_555
C2_7 C3_7 1_555 1_555
C3_7 H1_7 1_555 1_555
C4_7 C3_7 1_555 1_555
H2_7 C4_7 1_555 1_555
C5_7 C4_7 1_555 1_555
C6_7 C5_7 1_555 1_555
C7_7 C6_7 1_555 1_555
H3_7 C7_7 1_555 1_555
C8_7 C7_7 1_555 1_555
H4_7 C8_7 1_555 1_555
C9_7 C8_7 1_555 1_555
C10_7 C9_7 1_555 1_555
O19_4 C10_7 1_555 1_555
C11_7 C2_7 1_555 1_555
H5_7 C11_7 1_555 1_555
C12_7 C5_7 1_555 1_555
H6_7 C12_7 1_555 1_555
C13_7 C6_7 1_555 1_555
H7_7 C13_7 1_555 1_555
C14_7 C9_7 1_555 1_555
H8_7 C14_7 1_555 1_555
O21 C24_7 1_555 1_555
C15_7 C1_7 1_555 1_555
C16_7 C15_7 1_555 1_555
C17_7 C16_7 1_555 1_555
H9_7 C17_7 1_555 1_555
C18_7 C17_7 1_555 1_555
H10_7 C18_7 1_555 1_555
C19_7 C18_7 1_555 1_555
C20_7 C19_7 1_555 1_555
C21_7 C20_7 1_555 1_555
H11_7 C21_7 1_555 1_555
C22_7 C21_7 1_555 1_555
H12_7 C22_7 1_555 1_555
C23_7 C22_7 1_555 1_555
C24_7 C23_7 1_555 1_555
O21_6 C34_7 1_555 1_555
C25_7 C1_7 1_555 1_555
C26_7 C25_7 1_555 1_555
C27_7 C26_7 1_555 1_555
H13_7 C27_7 1_555 1_555
C28_7 C27_7 1_555 1_555
H14_7 C28_7 1_555 1_555
C29_7 C28_7 1_555 1_555
C30_7 C29_7 1_555 1_555
C31_7 C30_7 1_555 1_555
H15_7 C31_7 1_555 1_555
C32_7 C31_7 1_555 1_555
H16_7 C32_7 1_555 1_555
C33_7 C32_7 1_555 1_555
C34_7 C33_7 1_555 1_555
O23 C24_7 1_555 1_555
C35_7 C16_7 1_555 1_555
H17_7 C35_7 1_555 1_555
C36_7 C19_7 1_555 1_555
H18_7 C36_7 1_555 1_555
C37_7 C20_7 1_555 1_555
H19_7 C37_7 1_555 1_555
C38_7 C23_7 1_555 1_555
H20_7 C38_7 1_555 1_555
O23_6 C34_7 1_555 1_555
C39_7 C26_7 1_555 1_555
H21_7 C39_7 1_555 1_555
C40_7 C29_7 1_555 1_555
H22_7 C40_7 1_555 1_555
C41_7 C30_7 1_555 1_555
H23_7 C41_7 1_555 1_555
C42_7 C33_7 1_555 1_555
H24_7 C42_7 1_555 1_555
O18_5 C52_7 1_555 1_555
C43_7 C25_7 1_555 1_555
C44_7 C43_7 1_555 1_555
C45_7 C44_7 1_555 1_555
H25_7 C45_7 1_555 1_555
C46_7 C45_7 1_555 1_555
H26_7 C46_7 1_555 1_555
C47_7 C46_7 1_555 1_555
C48_7 C47_7 1_555 1_555
C49_7 C48_7 1_555 1_555
H27_7 C49_7 1_555 1_555
C50_7 C49_7 1_555 1_555
H28_7 C50_7 1_555 1_555
C51_7 C50_7 1_555 1_555
C52_7 C51_7 1_555 1_555
O17_4 C62_7 1_555 1_555
C53_7 C15_7 1_555 1_555
C54_7 C53_7 1_555 1_555
C55_7 C54_7 1_555 1_555
H29_7 C55_7 1_555 1_555
C56_7 C55_7 1_555 1_555
H30_7 C56_7 1_555 1_555
C57_7 C56_7 1_555 1_555
C58_7 C57_7 1_555 1_555
C59_7 C58_7 1_555 1_555
H31_7 C59_7 1_555 1_555
C60_7 C59_7 1_555 1_555
H32_7 C60_7 1_555 1_555
C61_7 C60_7 1_555 1_555
C62_7 C61_7 1_555 1_555
O10_7 C52_7 1_555 1_555
C63_7 C44_7 1_555 1_555
H33_7 C63_7 1_555 1_555
C64_7 C47_7 1_555 1_555
H34_7 C64_7 1_555 1_555
C65_7 C48_7 1_555 1_555
H35_7 C65_7 1_555 1_555
C66_7 C51_7 1_555 1_555
H36_7 C66_7 1_555 1_555
O11_7 C62_7 1_555 1_555
C67_7 C54_7 1_555 1_555
H37_7 C67_7 1_555 1_555
C68_7 C57_7 1_555 1_555
H38_7 C68_7 1_555 1_555
C69_7 C58_7 1_555 1_555
H39_7 C69_7 1_555 1_555
C70_7 C61_7 1_555 1_555
H40_7 C70_7 1_555 1_555
O20_4 C80_7 1_555 1_555
C71_7 C43_7 1_555 1_555
C72_7 C71_7 1_555 1_555
C73_7 C72_7 1_555 1_555
H41_7 C73_7 1_555 1_555
C74_7 C73_7 1_555 1_555
H42_7 C74_7 1_555 1_555
C75_7 C74_7 1_555 1_555
C76_7 C75_7 1_555 1_555
C77_7 C76_7 1_555 1_555
H43_7 C77_7 1_555 1_555
C78_7 C77_7 1_555 1_555
H44_7 C78_7 1_555 1_555
C79_7 C78_7 1_555 1_555
C80_7 C79_7 1_555 1_555
O24_4 C80_7 1_555 1_555
C81_7 C72_7 1_555 1_555
H45_7 C81_7 1_555 1_555
C82_7 C75_7 1_555 1_555
H46_7 C82_7 1_555 1_555
C83_7 C76_7 1_555 1_555
H47_7 C83_7 1_555 1_555
C84_7 C79_7 1_555 1_555
H48_7 C84_7 1_555 1_555
Cu8_2 O10_7 1_555 1_555
Cu10 O11_7 1_555 1_555
C11_7 C12_7 1_555 1_555
C13_7 C14_7 1_555 1_555
C35_7 C36_7 1_555 1_555
C37_7 C38_7 1_555 1_555
C39_7 C40_7 1_555 1_555
C41_7 C42_7 1_555 1_555
C53_7 C71_7 1_555 1_555
C63_7 C64_7 1_555 1_555
C65_7 C66_7 1_555 1_555
C67_7 C68_7 1_555 1_555
C69_7 C70_7 1_555 1_555
C81_7 C82_7 1_555 1_555
C83_7 C84_7 1_555 1_555
O18 C10_8 1_555 1_555
C1_8 C2_8 1_555 1_555
C2_8 C3_8 1_555 1_555
C3_8 H1_8 1_555 1_555
C4_8 C3_8 1_555 1_555
H2_8 C4_8 1_555 1_555
C5_8 C4_8 1_555 1_555
C6_8 C5_8 1_555 1_555
C7_8 C6_8 1_555 1_555
H3_8 C7_8 1_555 1_555
C8_8 C7_8 1_555 1_555
H4_8 C8_8 1_555 1_555
C9_8 C8_8 1_555 1_555
C10_8 C9_8 1_555 1_555
O19_3 C10_8 1_555 1_555
C11_8 C2_8 1_555 1_555
H5_8 C11_8 1_555 1_555
C12_8 C5_8 1_555 1_555
H6_8 C12_8 1_555 1_555
C13_8 C6_8 1_555 1_555
H7_8 C13_8 1_555 1_555
C14_8 C9_8 1_555 1_555
H8_8 C14_8 1_555 1_555
O21_2 C24_8 1_555 1_555
C15_8 C1_8 1_555 1_555
C16_8 C15_8 1_555 1_555
C17_8 C16_8 1_555 1_555
H9_8 C17_8 1_555 1_555
C18_8 C17_8 1_555 1_555
H10_8 C18_8 1_555 1_555
C19_8 C18_8 1_555 1_555
C20_8 C19_8 1_555 1_555
C21_8 C20_8 1_555 1_555
H11_8 C21_8 1_555 1_555
C22_8 C21_8 1_555 1_555
H12_8 C22_8 1_555 1_555
C23_8 C22_8 1_555 1_555
C24_8 C23_8 1_555 1_555
O20_6 C34_8 1_555 1_555
C25_8 C1_8 1_555 1_555
C26_8 C25_8 1_555 1_555
C27_8 C26_8 1_555 1_555
H13_8 C27_8 1_555 1_555
C28_8 C27_8 1_555 1_555
H14_8 C28_8 1_555 1_555
C29_8 C28_8 1_555 1_555
C30_8 C29_8 1_555 1_555
C31_8 C30_8 1_555 1_555
H15_8 C31_8 1_555 1_555
C32_8 C31_8 1_555 1_555
H16_8 C32_8 1_555 1_555
C33_8 C32_8 1_555 1_555
C34_8 C33_8 1_555 1_555
O23_2 C24_8 1_555 1_555
C35_8 C16_8 1_555 1_555
H17_8 C35_8 1_555 1_555
C36_8 C19_8 1_555 1_555
H18_8 C36_8 1_555 1_555
C37_8 C20_8 1_555 1_555
H19_8 C37_8 1_555 1_555
C38_8 C23_8 1_555 1_555
H20_8 C38_8 1_555 1_555
O24_6 C34_8 1_555 1_555
C39_8 C26_8 1_555 1_555
H21_8 C39_8 1_555 1_555
C40_8 C29_8 1_555 1_555
H22_8 C40_8 1_555 1_555
C41_8 C30_8 1_555 1_555
H23_8 C41_8 1_555 1_555
C42_8 C33_8 1_555 1_555
H24_8 C42_8 1_555 1_555
O17_6 C52_8 1_555 1_555
C43_8 C25_8 1_555 1_555
C44_8 C43_8 1_555 1_555
C45_8 C44_8 1_555 1_555
H25_8 C45_8 1_555 1_555
C46_8 C45_8 1_555 1_555
H26_8 C46_8 1_555 1_555
C47_8 C46_8 1_555 1_555
C48_8 C47_8 1_555 1_555
C49_8 C48_8 1_555 1_555
H27_8 C49_8 1_555 1_555
C50_8 C49_8 1_555 1_555
H28_8 C50_8 1_555 1_555
C51_8 C50_8 1_555 1_555
C52_8 C51_8 1_555 1_555
O18_4 C62_8 1_555 1_555
C53_8 C15_8 1_555 1_555
C54_8 C53_8 1_555 1_555
C55_8 C54_8 1_555 1_555
H29_8 C55_8 1_555 1_555
C56_8 C55_8 1_555 1_555
H30_8 C56_8 1_555 1_555
C57_8 C56_8 1_555 1_555
C58_8 C57_8 1_555 1_555
C59_8 C58_8 1_555 1_555
H31_8 C59_8 1_555 1_555
C60_8 C59_8 1_555 1_555
H32_8 C60_8 1_555 1_555
C61_8 C60_8 1_555 1_555
C62_8 C61_8 1_555 1_555
O10_8 C52_8 1_555 1_555
C63_8 C44_8 1_555 1_555
H33_8 C63_8 1_555 1_555
C64_8 C47_8 1_555 1_555
H34_8 C64_8 1_555 1_555
C65_8 C48_8 1_555 1_555
H35_8 C65_8 1_555 1_555
C66_8 C51_8 1_555 1_555
H36_8 C66_8 1_555 1_555
O11_8 C62_8 1_555 1_555
C67_8 C54_8 1_555 1_555
H37_8 C67_8 1_555 1_555
C68_8 C57_8 1_555 1_555
H38_8 C68_8 1_555 1_555
C69_8 C58_8 1_555 1_555
H39_8 C69_8 1_555 1_555
C70_8 C61_8 1_555 1_555
H40_8 C70_8 1_555 1_555
O21_3 C80_8 1_555 1_555
C71_8 C43_8 1_555 1_555
C72_8 C71_8 1_555 1_555
C73_8 C72_8 1_555 1_555
H41_8 C73_8 1_555 1_555
C74_8 C73_8 1_555 1_555
H42_8 C74_8 1_555 1_555
C75_8 C74_8 1_555 1_555
C76_8 C75_8 1_555 1_555
C77_8 C76_8 1_555 1_555
H43_8 C77_8 1_555 1_555
C78_8 C77_8 1_555 1_555
H44_8 C78_8 1_555 1_555
C79_8 C78_8 1_555 1_555
C80_8 C79_8 1_555 1_555
O23_3 C80_8 1_555 1_555
C81_8 C72_8 1_555 1_555
H45_8 C81_8 1_555 1_555
C82_8 C75_8 1_555 1_555
H46_8 C82_8 1_555 1_555
C83_8 C76_8 1_555 1_555
H47_8 C83_8 1_555 1_555
C84_8 C79_8 1_555 1_555
H48_8 C84_8 1_555 1_555
Cu8_3 O10_8 1_555 1_555
Cu10_2 O11_8 1_555 1_555
C11_8 C12_8 1_555 1_555
C13_8 C14_8 1_555 1_555
C35_8 C36_8 1_555 1_555
C37_8 C38_8 1_555 1_555
C39_8 C40_8 1_555 1_555
C41_8 C42_8 1_555 1_555
C53_8 C71_8 1_555 1_555
C63_8 C64_8 1_555 1_555
C65_8 C66_8 1_555 1_555
C67_8 C68_8 1_555 1_555
C69_8 C70_8 1_555 1_555
C81_8 C82_8 1_555 1_555
C83_8 C84_8 1_555 1_555
O15_17 Cu8 1_555 1_555
O15_18 Cu8_2 1_555 1_555
O15_19 Cu8_3 1_555 1_555
O15_20 Cu8_4 1_555 1_555
O15_21 Cu10 1_555 1_555
O15_22 Cu10_2 1_555 1_555
O15_23 Cu10_3 1_555 1_555
O15_24 Cu10_4 1_555 1_555

#END
