
###############################################################################
#
# This file contains modified crystal structure data generated from the
# MOF subset of the Cambridge Structural Database (CSD) v543 
# hosted by the Cambridge Crystallographic Data Centre (CCDC).
#
# This work is licensed under the Creative Commons
# Attribution-NonCommercial-ShareAlike 4.0 International License.
# To view a copy of this license, visit
# http://creativecommons.org/licenses/by-nc-sa/4.0/
# or send a letter to
# Creative Commons, PO Box 1866, Mountain View, CA 94042, USA.
#
# CIF created using the CSD Python API on 29 September 2022
# The structure has been converted into the P1 space group
# The structure has a 3D framework
# The original CSD entry CEHKUW is in the tetragonal crystal system
# The original CSD entry CEHKUW is in a Sohncke space group
# The framework has been calculated to contain at least 10.0% void space
# The void calculation uses a probe of radius 1.32A, grid spacing 0.4
# H atom positions have been added when not included in the experimental data
#
###############################################################################

data_CEHKUW
_chemical_formula_moiety         '(C135 H109 Cd16 N8 O88)n'
_symmetry_cell_setting           triclinic
_symmetry_space_group_name_H-M   'P 1'
_symmetry_Int_Tables_number      1
_space_group_name_Hall           'P 1'
loop_
_symmetry_equiv_pos_site_id
_symmetry_equiv_pos_as_xyz
1 x,y,z
_cell_length_a                   10.3503(4)
_cell_length_b                   10.3503(4)
_cell_length_c                   52.557(3)
_cell_angle_alpha                90
_cell_angle_beta                 90
_cell_angle_gamma                90
_cell_volume                     5630.36
loop_
_atom_site_label
_atom_site_type_symbol
_atom_site_fract_x
_atom_site_fract_y
_atom_site_fract_z
Cd7 Cd 0.35845(4) 0.05972(4) 0.023612(7)
O16 O 0.1318(5) 0.0874(6) 0.02165(8)
O19 O 0.2149(4) 0.0648(5) 0.06019(8)
O23 O 0.0648(5) 0.2149(4) 0.18981(8)
H14 H 0.0511 0.1271 0.0927
C27 C 0.1179(6) 0.0805(6) 0.04559(12)
Cd12 Cd 0.24293(5) 0.85467(5) 0.078830(8)
Cd8 Cd 0.85467(5) 0.24293(5) 0.171170(8)
O12 O 0.6405(5) 0.0037(5) 0.01767(8)
O13 O 0.5286(5) 0.0718(6) 0.05044(9)
O14 O 0.7420(6) 0.1836(9) 0.13210(10)
O15 O 0.9484(6) 0.1824(8) 0.13398(10)
O26 O 0.8485(5) 0.3418(6) 0.21322(9)
O29 O 0.6709(5) 0.3315(7) 0.19072(10)
O31 O 0.4088(6) 0.2579(5) 0.01150(12)
O33 O 0.7923(8) 0.0510(7) 0.18983(16)
O34 O 0.9150(7) 0.4509(9) 0.15931(13)
C19 C 0.6318(6) 0.0507(7) 0.03949(11)
C20 C 0.7551(6) 0.0802(7) 0.05405(12)
C21 C 0.7452(6) 0.1117(8) 0.07941(13)
H13 H 0.6641 0.1199 0.0869
C22 C 0.8577(7) 0.1320(7) 0.09429(11)
C23 C 0.9767(6) 0.1185(7) 0.08296(11)
C24 C 0.9875(6) 0.0920(6) 0.05699(11)
C25 C 0.8762(6) 0.0725(6) 0.04242(11)
H15 H 0.8827 0.0545 0.0251
C26 C 0.8479(7) 0.1666(9) 0.12208(12)
H26 H 0.83653 0.502718 0.155564
H27 H 0.963894 0.492007 0.173407
Cd2 Cd 0.14533(5) 0.24293(5) 0.828830(8)
O1 O 0.3595(5) 0.0037(5) 0.98233(8)
O2 O 0.4714(5) 0.0718(6) 0.94956(9)
O3 O 0.2580(6) 0.1836(9) 0.86790(10)
O4 O 0.0516(6) 0.1824(8) 0.86602(10)
O10 O 0.2077(8) 0.0510(7) 0.81017(16)
O11 O 0.0850(7) 0.4509(9) 0.84069(13)
C1 C 0.3682(6) 0.0507(7) 0.96051(11)
C2 C 0.2449(6) 0.0802(7) 0.94595(12)
C3 C 0.2548(6) 0.1117(8) 0.92059(13)
H1 H 0.3359 0.1199 0.9131
C4 C 0.1423(7) 0.1320(7) 0.90571(11)
C5 C 0.0233(6) 0.1185(7) 0.91704(11)
C6 C 0.0125(6) 0.0920(6) 0.94301(11)
C7 C 0.1238(6) 0.0725(6) 0.95758(11)
H3 H 0.1173 0.0545 0.9749
C8 C 0.1521(7) 0.1666(9) 0.87792(12)
Cd3 Cd 0.64155(4) 0.05972(4) 0.976388(7)
O18 O 0.8682(5) 0.0874(6) 0.97835(8)
O22 O 0.7851(4) 0.0648(5) 0.93981(8)
O25 O 0.1515(5) 0.3418(6) 0.78678(9)
O28 O 0.3291(5) 0.3315(7) 0.80928(10)
O32 O 0.5912(6) 0.2579(5) 0.98850(12)
H24 H 0.16347 0.502718 0.844436
H25 H 0.0361064 0.492007 0.826593
O7 O 0.3418(6) 0.8485(5) 0.03678(9)
O8 O 0.3315(7) 0.6709(5) 0.05928(10)
C10 C 0.3659(7) 0.7297(6) 0.03987(13)
C11 C 0.4336(7) 0.6578(6) 0.01885(11)
C12 C 0.5000 0.7260(8) 0.0000
H4 H 0.5000 0.8159 0.0000
C13 C 0.4356(7) 0.5245(6) 0.01879(11)
H5 H 0.3931 0.4791 0.0316
C14 C 0.5000 0.4584(9) 0.0000
C15 C 0.5000 0.3110(8) 0.0000
N2 N 0.753(2) 0.824(3) 0.2092(6)
C31 C 0.788(2) 0.933(3) 0.1946(11)
H17 H 0.8331 0.8970 0.1810
C32 C 0.772(3) 0.885(3) 0.2327(5)
H18 H 0.7572 0.8243 0.2462
H19 H 0.7130 0.9560 0.2343
H20 H 0.8592 0.9164 0.2337
C33 C 0.731(3) 0.744(4) 0.1881(6)
H21 H 0.7446 0.7928 0.1728
H22 H 0.6434 0.7133 0.1885
H23 H 0.7892 0.6723 0.1886
N1 N 0.247(2) 0.824(3) 0.7908(6)
C12_2 C 0.5000 0.7260(8) 1.0000
H4_2 H 0.5000 0.8159 1.0000
C14_2 C 0.5000 0.4584(9) 1.0000
C15_2 C 0.5000 0.3110(8) 1.0000
C16 C 0.212(2) 0.933(3) 0.8054(11)
H6 H 0.1669 0.8970 0.8190
C17 C 0.228(3) 0.885(3) 0.7673(5)
H7 H 0.2428 0.8243 0.7538
H8 H 0.2870 0.9560 0.7657
H9 H 0.1408 0.9164 0.7663
C18 C 0.269(3) 0.744(4) 0.8119(6)
H10 H 0.2554 0.7928 0.8272
H11 H 0.3566 0.7133 0.8115
H12 H 0.2108 0.6723 0.8114
Cd11 Cd 0.75707(5) 0.85467(5) 0.921170(8)
O24 O 0.6582(6) 0.8485(5) 0.96322(9)
O27 O 0.6685(7) 0.6709(5) 0.94072(10)
C28 C 0.6341(7) 0.7297(6) 0.96013(13)
C29 C 0.5664(7) 0.6578(6) 0.98115(11)
C30 C 0.5644(7) 0.5245(6) 0.98121(11)
H16 H 0.6069 0.4791 0.9684
H2 H 0.9489 0.1271 0.9073
C9 C 0.8821(6) 0.0805(6) 0.95441(12)
O21 O 0.9352(5) 0.2149(4) 0.81019(8)
Cd9 Cd 0.24293(5) 0.14533(5) 0.421170(8)
O5 O 0.1318(5) 0.9126(6) 0.47835(8)
O6 O 0.2149(4) 0.9352(5) 0.43981(8)
H2_2 H 0.0511 0.8729 0.4073
C9_2 C 0.1179(6) 0.9195(6) 0.45441(12)
Cd4 Cd 0.35845(4) 0.94028(4) 0.476388(7)
O21_2 O 0.0648(5) 0.7851(4) 0.31019(8)
N1_2 N 0.753(2) 0.176(3) 0.2908(6)
O7_2 O 0.6582(6) 0.1515(5) 0.53678(9)
O8_2 O 0.6685(7) 0.3291(5) 0.55928(10)
O9 O 0.5912(6) 0.7421(5) 0.51150(12)
C10_2 C 0.6341(7) 0.2703(6) 0.53987(13)
C11_2 C 0.5664(7) 0.3422(6) 0.51885(11)
C12_3 C 0.5000 0.2740(8) 0.5000
H4_3 H 0.5000 0.1841 0.5000
C13_2 C 0.5644(7) 0.4755(6) 0.51879(11)
H5_2 H 0.6069 0.5209 0.5316
C14_3 C 0.5000 0.5416(9) 0.5000
C15_3 C 0.5000 0.6890(8) 0.5000
C16_2 C 0.788(2) 0.067(3) 0.3054(11)
H6_2 H 0.8331 0.1030 0.3190
C17_2 C 0.772(3) 0.115(3) 0.2673(5)
H7_2 H 0.7572 0.1757 0.2538
H8_2 H 0.7130 0.0440 0.2657
H9_2 H 0.8592 0.0836 0.2663
C18_2 C 0.731(3) 0.256(4) 0.3119(6)
H10_2 H 0.7446 0.2072 0.3272
H11_2 H 0.6434 0.2867 0.3115
H12_2 H 0.7892 0.3277 0.3114
Cd5 Cd 0.64155(4) 0.94028(4) 0.523612(7)
Cd10 Cd 0.75707(5) 0.14533(5) 0.578830(8)
N2_2 N 0.247(2) 0.176(3) 0.7092(6)
O24_2 O 0.3418(6) 0.1515(5) 0.46322(9)
O27_2 O 0.3315(7) 0.3291(5) 0.44072(10)
O30 O 0.4088(6) 0.7421(5) 0.48850(12)
C28_2 C 0.3659(7) 0.2703(6) 0.46013(13)
C29_2 C 0.4336(7) 0.3422(6) 0.48115(11)
C30_2 C 0.4356(7) 0.4755(6) 0.48121(11)
H16_2 H 0.3931 0.5209 0.4684
C31_2 C 0.212(2) 0.067(3) 0.6946(11)
H17_2 H 0.1669 0.1030 0.6810
C32_2 C 0.228(3) 0.115(3) 0.7327(5)
H18_2 H 0.2428 0.1757 0.7462
H19_2 H 0.2870 0.0440 0.7343
H20_2 H 0.1408 0.0836 0.7337
C33_2 C 0.269(3) 0.256(4) 0.6881(6)
H21_2 H 0.2554 0.2072 0.6728
H22_2 H 0.3566 0.2867 0.6885
H23_2 H 0.2108 0.3277 0.6886
Cd2_2 Cd 0.85467(5) 0.75707(5) 0.328830(8)
O1_2 O 0.6405(5) 0.9963(5) 0.48233(8)
O2_2 O 0.5286(5) 0.9282(6) 0.44956(9)
O3_2 O 0.7420(6) 0.8164(9) 0.36790(10)
O4_2 O 0.9484(6) 0.8176(8) 0.36602(10)
O10_2 O 0.7923(8) 0.9490(7) 0.31017(16)
O11_2 O 0.9150(7) 0.5491(9) 0.34069(13)
C1_2 C 0.6318(6) 0.9493(7) 0.46051(11)
C2_2 C 0.7551(6) 0.9198(7) 0.44595(12)
C3_2 C 0.7452(6) 0.8883(8) 0.42059(13)
H1_2 H 0.6641 0.8801 0.4131
C4_2 C 0.8577(7) 0.8680(7) 0.40571(11)
C5_2 C 0.9767(6) 0.8815(7) 0.41704(11)
C6_2 C 0.9875(6) 0.9080(6) 0.44301(11)
C7_2 C 0.8762(6) 0.9275(6) 0.45758(11)
H3_2 H 0.8827 0.9455 0.4749
C8_2 C 0.8479(7) 0.8334(9) 0.37792(12)
Cd8_2 Cd 0.14533(5) 0.75707(5) 0.671170(8)
O12_2 O 0.3595(5) 0.9963(5) 0.51767(8)
O13_2 O 0.4714(5) 0.9282(6) 0.55044(9)
O14_2 O 0.2580(6) 0.8164(9) 0.63210(10)
O15_2 O 0.0516(6) 0.8176(8) 0.63398(10)
O17 O 0.8682(5) 0.9126(6) 0.52165(8)
O20 O 0.7851(4) 0.9352(5) 0.56019(8)
O25_2 O 0.8485(5) 0.6582(6) 0.28678(9)
O26_2 O 0.1515(5) 0.6582(6) 0.71322(9)
O28_2 O 0.6709(5) 0.6685(7) 0.30928(10)
O29_2 O 0.3291(5) 0.6685(7) 0.69072(10)
O33_2 O 0.2077(8) 0.9490(7) 0.68983(16)
O34_2 O 0.0850(7) 0.5491(9) 0.65931(13)
C19_2 C 0.3682(6) 0.9493(7) 0.53949(11)
C20_2 C 0.2449(6) 0.9198(7) 0.55405(12)
C21_2 C 0.2548(6) 0.8883(8) 0.57941(13)
H13_2 H 0.3359 0.8801 0.5869
C22_2 C 0.1423(7) 0.8680(7) 0.59429(11)
C23_2 C 0.0233(6) 0.8815(7) 0.58296(11)
C24_2 C 0.0125(6) 0.9080(6) 0.55699(11)
C25_2 C 0.1238(6) 0.9275(6) 0.54242(11)
H15_2 H 0.1173 0.9455 0.5251
C26_2 C 0.1521(7) 0.8334(9) 0.62208(12)
H24_2 H 0.83653 0.497282 0.344436
H25_2 H 0.963894 0.507993 0.326593
H26_2 H 0.16347 0.497282 0.655564
H27_2 H 0.0361064 0.507993 0.673407
O23_2 O 0.9352(5) 0.7851(4) 0.68981(8)
H14_2 H 0.9489 0.8729 0.5927
C27_2 C 0.8821(6) 0.9195(6) 0.54559(12)
N1_3 N 0.176(3) 0.247(2) 0.5408(6)
O9_2 O 0.7421(5) 0.4088(6) 0.76150(12)
C10_3 C 0.2703(6) 0.3659(7) 0.78987(13)
C11_3 C 0.3422(6) 0.4336(7) 0.76885(11)
C12_4 C 0.2740(8) 0.5000 0.7500
H4_4 H 0.1841 0.5000 0.7500
C13_3 C 0.4755(6) 0.4356(7) 0.76879(11)
H5_3 H 0.5209 0.3931 0.7816
C14_4 C 0.5416(9) 0.5000 0.7500
C15_4 C 0.6890(8) 0.5000 0.7500
C16_3 C 0.067(3) 0.212(2) 0.5554(11)
H6_3 H 0.1030 0.1669 0.5690
C17_3 C 0.115(3) 0.228(3) 0.5173(5)
H7_3 H 0.1757 0.2428 0.5038
H8_3 H 0.0440 0.2870 0.5157
H9_3 H 0.0836 0.1408 0.5163
C18_3 C 0.256(4) 0.269(3) 0.5619(6)
H10_3 H 0.2072 0.2554 0.5772
H11_3 H 0.2867 0.3566 0.5615
H12_3 H 0.3277 0.2108 0.5614
Cd5_2 Cd 0.94028(4) 0.35845(4) 0.773612(7)
Cd6 Cd 0.94028(4) 0.64155(4) 0.726388(7)
N2_3 N 0.176(3) 0.753(2) 0.9592(6)
O30_2 O 0.7421(5) 0.5912(6) 0.73850(12)
C28_3 C 0.2703(6) 0.6341(7) 0.71013(13)
C29_3 C 0.3422(6) 0.5664(7) 0.73115(11)
C30_3 C 0.4755(6) 0.5644(7) 0.73121(11)
H16_3 H 0.5209 0.6069 0.7184
C31_3 C 0.067(3) 0.788(2) 0.9446(11)
H17_3 H 0.1030 0.8331 0.9310
C32_3 C 0.115(3) 0.772(3) 0.9827(5)
H18_3 H 0.1757 0.7572 0.9962
H19_3 H 0.0440 0.7130 0.9843
H20_3 H 0.0836 0.8592 0.9837
C33_3 C 0.256(4) 0.731(3) 0.9381(6)
H21_3 H 0.2072 0.7446 0.9228
H22_3 H 0.2867 0.6434 0.9385
H23_3 H 0.3277 0.7892 0.9386
O16_2 O 0.9126(6) 0.1318(5) 0.77165(8)
H14_3 H 0.8729 0.0511 0.8427
C27_3 C 0.9195(6) 0.1179(6) 0.79559(12)
O1_3 O 0.9963(5) 0.3595(5) 0.73233(8)
O2_3 O 0.9282(6) 0.4714(5) 0.69956(9)
O3_3 O 0.8164(9) 0.2580(6) 0.61790(10)
O4_3 O 0.8176(8) 0.0516(6) 0.61602(10)
O10_3 O 0.9490(7) 0.2077(8) 0.56017(16)
O11_3 O 0.5491(9) 0.0850(7) 0.59069(13)
C1_3 C 0.9493(7) 0.3682(6) 0.71051(11)
C2_3 C 0.9198(7) 0.2449(6) 0.69595(12)
C3_3 C 0.8883(8) 0.2548(6) 0.67059(13)
H1_3 H 0.8801 0.3359 0.6631
C4_3 C 0.8680(7) 0.1423(7) 0.65571(11)
C5_3 C 0.8815(7) 0.0233(6) 0.66704(11)
C6_3 C 0.9080(6) 0.0125(6) 0.69301(11)
C7_3 C 0.9275(6) 0.1238(6) 0.70758(11)
H3_3 H 0.9455 0.1173 0.7249
C8_3 C 0.8334(9) 0.1521(7) 0.62792(12)
O12_3 O 0.9963(5) 0.6405(5) 0.76767(8)
O13_3 O 0.9282(6) 0.5286(5) 0.80044(9)
O14_3 O 0.8164(9) 0.7420(6) 0.88210(10)
O15_3 O 0.8176(8) 0.9484(6) 0.88398(10)
O18_2 O 0.9126(6) 0.8682(5) 0.72835(8)
O33_3 O 0.9490(7) 0.7923(8) 0.93983(16)
O34_3 O 0.5491(9) 0.9150(7) 0.90931(13)
C19_3 C 0.9493(7) 0.6318(6) 0.78949(11)
C20_3 C 0.9198(7) 0.7551(6) 0.80405(12)
C21_3 C 0.8883(8) 0.7452(6) 0.82941(13)
H13_3 H 0.8801 0.6641 0.8369
C22_3 C 0.8680(7) 0.8577(7) 0.84429(11)
C23_3 C 0.8815(7) 0.9767(6) 0.83296(11)
C24_3 C 0.9080(6) 0.9875(6) 0.80699(11)
C25_3 C 0.9275(6) 0.8762(6) 0.79242(11)
H15_3 H 0.9455 0.8827 0.7751
C26_3 C 0.8334(9) 0.8479(7) 0.87208(12)
H24_3 H 0.497282 0.16347 0.594436
H25_3 H 0.507993 0.0361064 0.576593
H26_3 H 0.497282 0.83653 0.905564
H27_3 H 0.507993 0.963894 0.923407
H2_3 H 0.8729 0.9489 0.6573
C9_3 C 0.9195(6) 0.8821(6) 0.70441(12)
O5_2 O 0.0874(6) 0.1318(5) 0.22835(8)
H2_4 H 0.1271 0.0511 0.1573
C9_4 C 0.0805(6) 0.1179(6) 0.20441(12)
Cd4_2 Cd 0.05972(4) 0.35845(4) 0.226388(7)
Cd1 Cd 0.05972(4) 0.64155(4) 0.273612(7)
O1_4 O 0.0037(5) 0.6405(5) 0.23233(8)
O2_4 O 0.0718(6) 0.5286(5) 0.19956(9)
O3_4 O 0.1836(9) 0.7420(6) 0.11790(10)
O4_4 O 0.1824(8) 0.9484(6) 0.11602(10)
O10_4 O 0.0510(7) 0.7923(8) 0.06017(16)
O11_4 O 0.4509(9) 0.9150(7) 0.09069(13)
C1_4 C 0.0507(7) 0.6318(6) 0.21051(11)
C2_4 C 0.0802(7) 0.7551(6) 0.19595(12)
C3_4 C 0.1117(8) 0.7452(6) 0.17059(13)
H1_4 H 0.1199 0.6641 0.1631
C4_4 C 0.1320(7) 0.8577(7) 0.15571(11)
C5_4 C 0.1185(7) 0.9767(6) 0.16704(11)
C6_4 C 0.0920(6) 0.9875(6) 0.19301(11)
C7_4 C 0.0725(6) 0.8762(6) 0.20758(11)
H3_4 H 0.0545 0.8827 0.2249
C8_4 C 0.1666(9) 0.8479(7) 0.12792(12)
O12_4 O 0.0037(5) 0.3595(5) 0.26767(8)
O13_4 O 0.0718(6) 0.4714(5) 0.30044(9)
O14_4 O 0.1836(9) 0.2580(6) 0.38210(10)
O15_4 O 0.1824(8) 0.0516(6) 0.38398(10)
O17_2 O 0.0874(6) 0.8682(5) 0.27165(8)
O31_2 O 0.2579(5) 0.5912(6) 0.26150(12)
O32_2 O 0.2579(5) 0.4088(6) 0.23850(12)
O33_4 O 0.0510(7) 0.2077(8) 0.43983(16)
O34_4 O 0.4509(9) 0.0850(7) 0.40931(13)
C19_4 C 0.0507(7) 0.3682(6) 0.28949(11)
C20_4 C 0.0802(7) 0.2449(6) 0.30405(12)
C21_4 C 0.1117(8) 0.2548(6) 0.32941(13)
H13_4 H 0.1199 0.3359 0.3369
C22_4 C 0.1320(7) 0.1423(7) 0.34429(11)
C23_4 C 0.1185(7) 0.0233(6) 0.33296(11)
C24_4 C 0.0920(6) 0.0125(6) 0.30699(11)
C25_4 C 0.0725(6) 0.1238(6) 0.29242(11)
H15_4 H 0.0545 0.1173 0.2751
C26_4 C 0.1666(9) 0.1521(7) 0.37208(12)
H24_4 H 0.502718 0.83653 0.0944357
H25_4 H 0.492007 0.963894 0.076593
H26_4 H 0.502718 0.16347 0.405564
H27_4 H 0.492007 0.0361064 0.423407
H14_4 H 0.1271 0.9489 0.3427
C27_4 C 0.0805(6) 0.8821(6) 0.29559(12)
N1_4 N 0.824(3) 0.753(2) 0.0408(6)
C10_4 C 0.7297(6) 0.6341(7) 0.28987(13)
C11_4 C 0.6578(6) 0.5664(7) 0.26885(11)
C12_5 C 0.7260(8) 0.5000 0.2500
H4_5 H 0.8159 0.5000 0.2500
C13_4 C 0.5245(6) 0.5644(7) 0.26879(11)
H5_4 H 0.4791 0.6069 0.2816
C14_5 C 0.4584(9) 0.5000 0.2500
C15_5 C 0.3110(8) 0.5000 0.2500
C16_4 C 0.933(3) 0.788(2) 0.0554(11)
H6_4 H 0.8970 0.8331 0.0690
C17_4 C 0.885(3) 0.772(3) 0.0173(5)
H7_4 H 0.8243 0.7572 0.0038
H8_4 H 0.9560 0.7130 0.0157
H9_4 H 0.9164 0.8592 0.0163
C18_4 C 0.744(4) 0.731(3) 0.0619(6)
H10_4 H 0.7928 0.7446 0.0772
H11_4 H 0.7133 0.6434 0.0615
H12_4 H 0.6723 0.7892 0.0614
N2_4 N 0.824(3) 0.247(2) 0.4592(6)
C28_4 C 0.7297(6) 0.3659(7) 0.21013(13)
C29_4 C 0.6578(6) 0.4336(7) 0.23115(11)
C30_4 C 0.5245(6) 0.4356(7) 0.23121(11)
H16_4 H 0.4791 0.3931 0.2184
C31_4 C 0.933(3) 0.212(2) 0.4446(11)
H17_4 H 0.8970 0.1669 0.4310
C32_4 C 0.885(3) 0.228(3) 0.4827(5)
H18_4 H 0.8243 0.2428 0.4962
H19_4 H 0.9560 0.2870 0.4843
H20_4 H 0.9164 0.1408 0.4837
C33_4 C 0.744(4) 0.269(3) 0.4381(6)
H21_4 H 0.7928 0.2554 0.4228
H22_4 H 0.7133 0.3566 0.4385
H23_4 H 0.6723 0.2108 0.4386
loop_
_geom_bond_atom_site_label_1
_geom_bond_atom_site_label_2
_geom_bond_site_symmetry_1
_geom_bond_site_symmetry_2
Cd7 O16 1_555 1_555
O16 C27 1_555 1_555
O19 Cd7 1_555 1_555
C27 O19 1_555 1_555
Cd8 O14 1_555 1_555
O13 Cd7 1_555 1_555
O14 C26 1_555 1_555
O15 Cd8 1_555 1_555
O26 Cd8 1_555 1_555
O29 Cd8 1_555 1_555
O31 Cd7 1_555 1_555
O33 Cd8 1_555 1_555
O34 Cd8 1_555 1_555
C19 O12 1_555 1_555
C20 C19 1_555 1_555
C21 C20 1_555 1_555
H13 C21 1_555 1_555
C22 C21 1_555 1_555
C23 C22 1_555 1_555
C24 C23 1_555 1_555
C25 C20 1_555 1_555
H15 C25 1_555 1_555
C26 O15 1_555 1_555
O13 C19 1_555 1_555
C22 C26 1_555 1_555
C24 C25 1_555 1_555
O34 H26 1_555 1_555
O34 H27 1_555 1_555
Cd2 O3 1_555 1_555
O1 C1 1_555 1_555
O2 C1 1_555 1_555
O3 C8 1_555 1_555
O4 Cd2 1_555 1_555
O10 Cd2 1_555 1_555
O11 Cd2 1_555 1_555
C1 C2 1_555 1_555
C2 C3 1_555 1_555
C3 H1 1_555 1_555
C4 C3 1_555 1_555
C5 C4 1_555 1_555
C6 C5 1_555 1_555
C7 C2 1_555 1_555
H3 C7 1_555 1_555
C8 O4 1_555 1_555
Cd3 O2 1_555 1_555
O18 Cd3 1_555 1_555
O22 Cd3 1_555 1_555
O25 Cd2 1_555 1_555
O28 Cd2 1_555 1_555
O32 Cd3 1_555 1_555
C4 C8 1_555 1_555
C6 C7 1_555 1_555
O11 H24 1_555 1_555
O11 H25 1_555 1_555
O8 C10 1_555 1_555
O31 C15 1_555 1_555
C10 O7 1_555 1_555
C11 C10 1_555 1_555
C12 C11 1_555 1_555
H4 C12 1_555 1_555
C13 C11 1_555 1_555
H5 C13 1_555 1_555
C14 C13 1_555 1_555
C15 C14 1_555 1_555
Cd12 O7 1_555 1_555
N2 C31 1_555 1_555
H17 C31 1_555 1_555
C32 N2 1_555 1_555
H18 C32 1_555 1_555
H19 C32 1_555 1_555
H20 C32 1_555 1_555
C33 N2 1_555 1_555
H21 C33 1_555 1_555
H22 C33 1_555 1_555
H23 C33 1_555 1_555
O8 Cd12 1_555 1_555
N1 C16 1_555 1_555
H4_2 C12_2 1_555 1_555
C15_2 C14_2 1_555 1_555
H6 C16 1_555 1_555
C17 N1 1_555 1_555
H7 C17 1_555 1_555
H8 C17 1_555 1_555
H9 C17 1_555 1_555
C18 N1 1_555 1_555
H10 C18 1_555 1_555
H11 C18 1_555 1_555
H12 C18 1_555 1_555
O27 Cd11 1_555 1_555
O32 C15_2 1_555 1_555
C28 O24 1_555 1_555
C29 C12_2 1_555 1_555
C30 C14_2 1_555 1_555
H16 C30 1_555 1_555
Cd11 O24 1_555 1_555
O27 C28 1_555 1_555
C28 C29 1_555 1_555
C29 C30 1_555 1_555
O18 C9 1_555 1_555
O22 C9 1_555 1_555
O5 C9_2 1_555 1_555
O6 C9_2 1_555 1_555
Cd4 O5 1_555 1_555
O6 Cd4 1_555 1_555
N1_2 C16_2 1_555 1_555
O8_2 C10_2 1_555 1_555
O9 C15_3 1_555 1_555
C10_2 O7_2 1_555 1_555
C11_2 C10_2 1_555 1_555
C12_3 C11_2 1_555 1_555
H4_3 C12_3 1_555 1_555
C13_2 C11_2 1_555 1_555
H5_2 C13_2 1_555 1_555
C14_3 C13_2 1_555 1_555
C15_3 C14_3 1_555 1_555
H6_2 C16_2 1_555 1_555
C17_2 N1_2 1_555 1_555
H7_2 C17_2 1_555 1_555
H8_2 C17_2 1_555 1_555
H9_2 C17_2 1_555 1_555
C18_2 N1_2 1_555 1_555
H10_2 C18_2 1_555 1_555
H11_2 C18_2 1_555 1_555
H12_2 C18_2 1_555 1_555
Cd5 O9 1_555 1_555
Cd4 O30 1_555 1_555
Cd10 O7_2 1_555 1_555
N2_2 C31_2 1_555 1_555
O27_2 Cd9 1_555 1_555
O30 C15_3 1_555 1_555
C28_2 O24_2 1_555 1_555
C29_2 C12_3 1_555 1_555
C30_2 C14_3 1_555 1_555
H16_2 C30_2 1_555 1_555
H17_2 C31_2 1_555 1_555
C32_2 N2_2 1_555 1_555
H18_2 C32_2 1_555 1_555
H19_2 C32_2 1_555 1_555
H20_2 C32_2 1_555 1_555
C33_2 N2_2 1_555 1_555
H21_2 C33_2 1_555 1_555
H22_2 C33_2 1_555 1_555
H23_2 C33_2 1_555 1_555
O8_2 Cd10 1_555 1_555
Cd9 O24_2 1_555 1_555
O27_2 C28_2 1_555 1_555
C28_2 C29_2 1_555 1_555
C29_2 C30_2 1_555 1_555
Cd5 O1_2 1_555 1_555
Cd2_2 O3_2 1_555 1_555
O1_2 C1_2 1_555 1_555
O2_2 C1_2 1_555 1_555
O3_2 C8_2 1_555 1_555
O4_2 Cd2_2 1_555 1_555
O10_2 Cd2_2 1_555 1_555
O11_2 Cd2_2 1_555 1_555
C1_2 C2_2 1_555 1_555
C2_2 C3_2 1_555 1_555
C3_2 H1_2 1_555 1_555
C4_2 C3_2 1_555 1_555
C5_2 C4_2 1_555 1_555
C6_2 C5_2 1_555 1_555
C7_2 C2_2 1_555 1_555
H3_2 C7_2 1_555 1_555
C8_2 O4_2 1_555 1_555
Cd4 O2_2 1_555 1_555
Cd8_2 O14_2 1_555 1_555
O12_2 Cd4 1_555 1_555
O13_2 Cd5 1_555 1_555
O14_2 C26_2 1_555 1_555
O15_2 Cd8_2 1_555 1_555
O17 Cd5 1_555 1_555
O20 Cd5 1_555 1_555
O25_2 Cd2_2 1_555 1_555
O26_2 Cd8_2 1_555 1_555
O28_2 Cd2_2 1_555 1_555
O29_2 Cd8_2 1_555 1_555
O33_2 Cd8_2 1_555 1_555
O34_2 Cd8_2 1_555 1_555
C19_2 O12_2 1_555 1_555
C20_2 C19_2 1_555 1_555
C21_2 C20_2 1_555 1_555
H13_2 C21_2 1_555 1_555
C22_2 C21_2 1_555 1_555
C23_2 C22_2 1_555 1_555
C24_2 C23_2 1_555 1_555
C25_2 C20_2 1_555 1_555
H15_2 C25_2 1_555 1_555
C26_2 O15_2 1_555 1_555
C4_2 C8_2 1_555 1_555
C6_2 C7_2 1_555 1_555
O13_2 C19_2 1_555 1_555
C22_2 C26_2 1_555 1_555
C24_2 C25_2 1_555 1_555
O11_2 H24_2 1_555 1_555
O11_2 H25_2 1_555 1_555
O34_2 H26_2 1_555 1_555
O34_2 H27_2 1_555 1_555
O17 C27_2 1_555 1_555
C27_2 O20 1_555 1_555
N1_3 C16_3 1_555 1_555
O28 C10_3 1_555 1_555
O9_2 C15_4 1_555 1_555
C10_3 O25 1_555 1_555
C11_3 C10_3 1_555 1_555
C12_4 C11_3 1_555 1_555
H4_4 C12_4 1_555 1_555
C13_3 C11_3 1_555 1_555
H5_3 C13_3 1_555 1_555
C14_4 C13_3 1_555 1_555
C15_4 C14_4 1_555 1_555
H6_3 C16_3 1_555 1_555
C17_3 N1_3 1_555 1_555
H7_3 C17_3 1_555 1_555
H8_3 C17_3 1_555 1_555
H9_3 C17_3 1_555 1_555
C18_3 N1_3 1_555 1_555
H10_3 C18_3 1_555 1_555
H11_3 C18_3 1_555 1_555
H12_3 C18_3 1_555 1_555
Cd5_2 O9_2 1_555 1_555
Cd6 O30_2 1_555 1_555
N2_3 C31_3 1_555 1_555
O30_2 C15_4 1_555 1_555
C28_3 O26_2 1_555 1_555
C29_3 C12_4 1_555 1_555
C30_3 C14_4 1_555 1_555
H16_3 C30_3 1_555 1_555
H17_3 C31_3 1_555 1_555
C32_3 N2_3 1_555 1_555
H18_3 C32_3 1_555 1_555
H19_3 C32_3 1_555 1_555
H20_3 C32_3 1_555 1_555
C33_3 N2_3 1_555 1_555
H21_3 C33_3 1_555 1_555
H22_3 C33_3 1_555 1_555
H23_3 C33_3 1_555 1_555
O29_2 C28_3 1_555 1_555
C28_3 C29_3 1_555 1_555
C29_3 C30_3 1_555 1_555
Cd5_2 O16_2 1_555 1_555
O16_2 C27_3 1_555 1_555
O21 Cd5_2 1_555 1_555
C27_3 O21 1_555 1_555
Cd5_2 O1_3 1_555 1_555
Cd10 O3_3 1_555 1_555
O1_3 C1_3 1_555 1_555
O2_3 C1_3 1_555 1_555
O3_3 C8_3 1_555 1_555
O4_3 Cd10 1_555 1_555
O10_3 Cd10 1_555 1_555
O11_3 Cd10 1_555 1_555
C1_3 C2_3 1_555 1_555
C2_3 C3_3 1_555 1_555
C3_3 H1_3 1_555 1_555
C4_3 C3_3 1_555 1_555
C5_3 C4_3 1_555 1_555
C6_3 C5_3 1_555 1_555
C7_3 C2_3 1_555 1_555
H3_3 C7_3 1_555 1_555
C8_3 O4_3 1_555 1_555
Cd6 O2_3 1_555 1_555
Cd11 O14_3 1_555 1_555
O12_3 Cd6 1_555 1_555
O13_3 Cd5_2 1_555 1_555
O14_3 C26_3 1_555 1_555
O15_3 Cd11 1_555 1_555
O18_2 Cd6 1_555 1_555
O23_2 Cd6 1_555 1_555
O33_3 Cd11 1_555 1_555
O34_3 Cd11 1_555 1_555
C19_3 O12_3 1_555 1_555
C20_3 C19_3 1_555 1_555
C21_3 C20_3 1_555 1_555
H13_3 C21_3 1_555 1_555
C22_3 C21_3 1_555 1_555
C23_3 C22_3 1_555 1_555
C24_3 C23_3 1_555 1_555
C25_3 C20_3 1_555 1_555
H15_3 C25_3 1_555 1_555
C26_3 O15_3 1_555 1_555
C4_3 C8_3 1_555 1_555
C6_3 C7_3 1_555 1_555
O13_3 C19_3 1_555 1_555
C22_3 C26_3 1_555 1_555
C24_3 C25_3 1_555 1_555
O11_3 H24_3 1_555 1_555
O11_3 H25_3 1_555 1_555
O34_3 H26_3 1_555 1_555
O34_3 H27_3 1_555 1_555
O18_2 C9_3 1_555 1_555
O23_2 C9_3 1_555 1_555
O5_2 C9_4 1_555 1_555
O23 C9_4 1_555 1_555
Cd4_2 O5_2 1_555 1_555
O23 Cd4_2 1_555 1_555
Cd1 O1_4 1_555 1_555
Cd12 O3_4 1_555 1_555
O1_4 C1_4 1_555 1_555
O2_4 C1_4 1_555 1_555
O3_4 C8_4 1_555 1_555
O4_4 Cd12 1_555 1_555
O10_4 Cd12 1_555 1_555
O11_4 Cd12 1_555 1_555
C1_4 C2_4 1_555 1_555
C2_4 C3_4 1_555 1_555
C3_4 H1_4 1_555 1_555
C4_4 C3_4 1_555 1_555
C5_4 C4_4 1_555 1_555
C6_4 C5_4 1_555 1_555
C7_4 C2_4 1_555 1_555
H3_4 C7_4 1_555 1_555
C8_4 O4_4 1_555 1_555
Cd4_2 O2_4 1_555 1_555
Cd9 O14_4 1_555 1_555
O12_4 Cd4_2 1_555 1_555
O13_4 Cd1 1_555 1_555
O14_4 C26_4 1_555 1_555
O15_4 Cd9 1_555 1_555
O17_2 Cd1 1_555 1_555
O21_2 Cd1 1_555 1_555
O31_2 Cd1 1_555 1_555
O32_2 Cd4_2 1_555 1_555
O33_4 Cd9 1_555 1_555
O34_4 Cd9 1_555 1_555
C19_4 O12_4 1_555 1_555
C20_4 C19_4 1_555 1_555
C21_4 C20_4 1_555 1_555
H13_4 C21_4 1_555 1_555
C22_4 C21_4 1_555 1_555
C23_4 C22_4 1_555 1_555
C24_4 C23_4 1_555 1_555
C25_4 C20_4 1_555 1_555
H15_4 C25_4 1_555 1_555
C26_4 O15_4 1_555 1_555
C4_4 C8_4 1_555 1_555
C6_4 C7_4 1_555 1_555
O13_4 C19_4 1_555 1_555
C22_4 C26_4 1_555 1_555
C24_4 C25_4 1_555 1_555
O11_4 H24_4 1_555 1_555
O11_4 H25_4 1_555 1_555
O34_4 H26_4 1_555 1_555
O34_4 H27_4 1_555 1_555
O17_2 C27_4 1_555 1_555
C27_4 O21_2 1_555 1_555
N1_4 C16_4 1_555 1_555
O28_2 C10_4 1_555 1_555
O31_2 C15_5 1_555 1_555
C10_4 O25_2 1_555 1_555
C11_4 C10_4 1_555 1_555
C12_5 C11_4 1_555 1_555
H4_5 C12_5 1_555 1_555
C13_4 C11_4 1_555 1_555
H5_4 C13_4 1_555 1_555
C14_5 C13_4 1_555 1_555
C15_5 C14_5 1_555 1_555
H6_4 C16_4 1_555 1_555
C17_4 N1_4 1_555 1_555
H7_4 C17_4 1_555 1_555
H8_4 C17_4 1_555 1_555
H9_4 C17_4 1_555 1_555
C18_4 N1_4 1_555 1_555
H10_4 C18_4 1_555 1_555
H11_4 C18_4 1_555 1_555
H12_4 C18_4 1_555 1_555
N2_4 C31_4 1_555 1_555
O32_2 C15_5 1_555 1_555
C28_4 O26 1_555 1_555
C29_4 C12_5 1_555 1_555
C30_4 C14_5 1_555 1_555
H16_4 C30_4 1_555 1_555
H17_4 C31_4 1_555 1_555
C32_4 N2_4 1_555 1_555
H18_4 C32_4 1_555 1_555
H19_4 C32_4 1_555 1_555
H20_4 C32_4 1_555 1_555
C33_4 N2_4 1_555 1_555
H21_4 C33_4 1_555 1_555
H22_4 C33_4 1_555 1_555
H23_4 C33_4 1_555 1_555
O29 C28_4 1_555 1_555
C28_4 C29_4 1_555 1_555
C29_4 C30_4 1_555 1_555

#END
