
###############################################################################
#
# This file contains modified crystal structure data generated from the
# MOF subset of the Cambridge Structural Database (CSD) v543 
# hosted by the Cambridge Crystallographic Data Centre (CCDC).
#
# This work is licensed under the Creative Commons
# Attribution-NonCommercial-ShareAlike 4.0 International License.
# To view a copy of this license, visit
# http://creativecommons.org/licenses/by-nc-sa/4.0/
# or send a letter to
# Creative Commons, PO Box 1866, Mountain View, CA 94042, USA.
#
# CIF created using the CSD Python API on 29 September 2022
# The structure has been converted into the P1 space group
# The structure has a 3D framework
# The original CSD entry CEHLAD is in the tetragonal crystal system
# The original CSD entry CEHLAD is in a Sohncke space group
# The framework has been calculated to contain at least 10.0% void space
# The void calculation uses a probe of radius 1.32A, grid spacing 0.4
# H atom positions have been added when not included in the experimental data
#
###############################################################################

data_CEHLAD
_chemical_formula_moiety         '(C216 H232 N24 O122 Zn24)n'
_symmetry_cell_setting           triclinic
_symmetry_space_group_name_H-M   'P 1'
_symmetry_Int_Tables_number      1
_space_group_name_Hall           'P 1'
loop_
_symmetry_equiv_pos_site_id
_symmetry_equiv_pos_as_xyz
1 x,y,z
_cell_length_a                   13.6929(19)
_cell_length_b                   13.6929(19)
_cell_length_c                   50.664(10)
_cell_angle_alpha                90
_cell_angle_beta                 90
_cell_angle_gamma                90
_cell_volume                     9499.27
loop_
_atom_site_label
_atom_site_type_symbol
_atom_site_fract_x
_atom_site_fract_y
_atom_site_fract_z
Zn1 Zn 0.00475(3) 0.41549(3) 0.117667(9)
Zn3 Zn 0.05397(4) 0.26897(4) 0.168110(11)
N2 N 0.2800(3) 0.0873(4) 0.19485(11)
O7 O 0.0706(2) 0.3109(2) 0.09653(7)
O8 O 0.1315(3) 0.2402(3) 0.13250(6)
O14 O 0.1666(3) 0.2027(3) 0.18772(8)
C10 C 0.1136(3) 0.2443(3) 0.10811(9)
C11 C 0.1480(3) 0.1583(3) 0.09194(9)
C12 C 0.0929(3) 0.1255(3) 0.07045(9)
H4 H 0.0379 0.1604 0.0653
C13 C 0.1183(3) 0.0439(3) 0.05710(9)
C15 C 0.2598(3) 0.0249(3) 0.08486(9)
C16 C 0.2304(3) 0.1059(3) 0.09911(9)
H6 H 0.2665 0.1255 0.1137
C17 C 0.0540(3) 0.0043(3) 0.03460(8)
C22 C 0.2033(5) 0.1253(5) 0.18323(13)
H14 H 0.1743 0.0880 0.1701
C23 C 0.3311(8) 0.1450(8) 0.2133(2)
H15 H 0.2965 0.2050 0.2161
H16 H 0.3953 0.1590 0.2066
H17 H 0.3364 0.1103 0.2297
H20 H 0.3845 0.0035 0.1796
H26 H 0.0105 0.5943 0.1937
O22 O 0.1148(2) 0.4852(2) 0.13502(7)
O23 O 0.1247(2) 0.3997(2) 0.17259(6)
H29 H 0.0199536 0.247581 0.217736
O10 O 0.0869(3) 0.9342(3) 0.02201(7)
O11 O 0.3852(2) 0.9852(2) 0.11498(7)
O12 O 0.3753(2) 0.8997(2) 0.07741(6)
C14 C 0.2023(3) 0.9932(3) 0.06348(8)
H5 H 0.2207 0.9386 0.0537
C18 C 0.3486(3) 0.9643(3) 0.09239(9)
C24 C 0.3209(7) 0.9937(6) 0.1871(2)
H18 H 0.2791 0.9635 0.1743
H19 H 0.3261 0.9523 0.2024
Zn5 Zn 0.49525(3) 0.91549(3) 0.132333(9)
Zn9 Zn 0.44603(4) 0.76897(4) 0.081890(11)
Zn8 Zn 0.01201(3) 0.86198(3) 0.994680(9)
Zn2 Zn 0.63802(3) 0.51201(3) 0.244680(9)
N1 N 0.9000(4) 0.0137(4) 0.13961(12)
N3 N 0.8692(4) 0.5945(4) 0.20265(10)
O1 O 0.9386(2) 0.3410(2) 0.14751(7)
O2 O 0.8529(3) 0.3134(3) 0.11174(7)
O3 O 0.6789(3) 0.3999(2) 0.22024(7)
O4 O 0.5584(2) 0.2918(3) 0.22468(7)
O5 O 0.6147(3) 0.0384(3) 0.12197(8)
O6 O 0.5368(2) 0.0177(2) 0.15941(7)
O9 O 0.9728(2) 0.0428(3) 0.03175(7)
O13 O 0.9812(3) 0.1299(3) 0.16260(10)
O15 O 0.7405(2) 0.6002(2) 0.23102(7)
O16 O 0.9800(3) 0.2779(4) 0.20358(9)
C1 C 0.8613(3) 0.3080(3) 0.13567(10)
C2 C 0.7797(3) 0.2661(3) 0.15238(8)
C3 C 0.7271(3) 0.1886(3) 0.14209(10)
H1 H 0.7432 0.1638 0.1256
C4 C 0.6503(3) 0.1476(3) 0.15630(10)
C5 C 0.6237(3) 0.1901(3) 0.18017(9)
H2 H 0.5729 0.1631 0.1899
C6 C 0.6714(3) 0.2718(3) 0.18966(9)
C7 C 0.7521(3) 0.3087(3) 0.17635(9)
H3 H 0.7873 0.3608 0.1833
C8 C 0.5963(4) 0.0628(3) 0.14526(11)
C9 C 0.6346(4) 0.3247(3) 0.21356(9)
C19 C 0.9562(5) 0.0915(4) 0.14211(15)
H7 H 0.9790 0.1197 0.1266
H11 H 0.9083 0.0153 0.1010
C25 C 0.8160(4) 0.5637(4) 0.22191(11)
H21 H 0.8371 0.5065 0.2300
C26 C 0.8294(8) 0.6813(10) 0.1886(3)
H22 H 0.7714 0.7034 0.1974
H23 H 0.8140 0.6640 0.1708
H24 H 0.8772 0.7326 0.1887
C27 C 0.9585(6) 0.5473(5) 0.19405(17)
H25 H 0.9748 0.4957 0.2061
H27 H 0.9493 0.5209 0.1767
Zn6 Zn 0.48799(3) 0.36198(3) 0.255320(9)
Zn7 Zn 0.86198(3) 0.01201(3) 0.005320(9)
O17 O 0.7082(3) 0.4416(2) 0.27532(7)
O18 O 0.8853(3) 0.5384(3) 0.12803(8)
O19 O 0.9632(2) 0.5177(2) 0.09059(7)
O20 O 0.5272(2) 0.5428(3) 0.21825(7)
O21 O 0.5658(3) 0.5869(3) 0.27201(7)
H28 H 0.916733 0.242881 0.202099
C20 C 0.8562(7) 0.9631(6) 0.16063(19)
H8 H 0.8754 0.9924 0.1770
H9 H 0.8769 0.8961 0.1603
H10 H 0.7865 0.9662 0.1589
C21 C 0.8765(7) 0.9765(7) 0.11423(17)
H12 H 0.8071 0.9791 0.1117
H13 H 0.8983 0.9101 0.1129
C20_2 C 0.1438(7) 0.0369(6) 0.66063(19)
H8_2 H 0.1246 0.0076 0.6770
H9_2 H 0.1231 0.1039 0.6603
H10_2 H 0.2135 0.0338 0.6589
C21_2 C 0.1235(7) 0.0235(7) 0.61423(17)
H12_2 H 0.1929 0.0209 0.6117
H13_2 H 0.1017 0.0899 0.6129
Zn4 Zn 0.50475(3) 0.08451(3) 0.632333(9)
Zn2_2 Zn 0.36198(3) 0.48799(3) 0.744680(9)
N1_2 N 0.1000(4) 0.9863(4) 0.63961(12)
N3_2 N 0.1308(4) 0.4055(4) 0.70265(10)
O1_2 O 0.0614(2) 0.6590(2) 0.64751(7)
O2_2 O 0.1471(3) 0.6866(3) 0.61174(7)
O3_2 O 0.3211(3) 0.6001(2) 0.72024(7)
O4_2 O 0.4416(2) 0.7082(3) 0.72468(7)
O5_2 O 0.3853(3) 0.9616(3) 0.62197(8)
O6_2 O 0.4632(2) 0.9823(2) 0.65941(7)
O9_2 O 0.0272(2) 0.9572(3) 0.53175(7)
O13_2 O 0.0188(3) 0.8701(3) 0.66260(10)
O15_2 O 0.2595(2) 0.3998(2) 0.73102(7)
O16_2 O 0.0200(3) 0.7221(4) 0.70358(9)
C1_2 C 0.1387(3) 0.6920(3) 0.63567(10)
C2_2 C 0.2203(3) 0.7339(3) 0.65238(8)
C3_2 C 0.2729(3) 0.8114(3) 0.64209(10)
H1_2 H 0.2568 0.8362 0.6256
C4_2 C 0.3497(3) 0.8524(3) 0.65630(10)
C5_2 C 0.3763(3) 0.8099(3) 0.68017(9)
H2_2 H 0.4271 0.8369 0.6899
C6_2 C 0.3286(3) 0.7282(3) 0.68966(9)
C7_2 C 0.2479(3) 0.6913(3) 0.67635(9)
H3_2 H 0.2127 0.6392 0.6833
C8_2 C 0.4037(4) 0.9372(3) 0.64526(11)
C9_2 C 0.3654(4) 0.6753(3) 0.71356(9)
C19_2 C 0.0438(5) 0.9085(4) 0.64211(15)
H7_2 H 0.0210 0.8803 0.6266
H11_2 H 0.0917 0.9847 0.6010
C25_2 C 0.1840(4) 0.4363(4) 0.72191(11)
H21_2 H 0.1629 0.4935 0.7300
C26_2 C 0.1706(8) 0.3187(10) 0.6886(3)
H22_2 H 0.2286 0.2966 0.6974
H23_2 H 0.1860 0.3360 0.6708
H24_2 H 0.1228 0.2674 0.6887
C27_2 C 0.0415(6) 0.4527(5) 0.69405(17)
H25_2 H 0.0252 0.5043 0.7061
H27_2 H 0.0507 0.4791 0.6767
Zn6_2 Zn 0.51201(3) 0.63802(3) 0.755320(9)
Zn7_2 Zn 0.13802(3) 0.98799(3) 0.505320(9)
O17_2 O 0.2918(3) 0.5584(2) 0.77532(7)
O18_2 O 0.1147(3) 0.4616(3) 0.62803(8)
O19_2 O 0.0368(2) 0.4823(2) 0.59059(7)
O20_2 O 0.4728(2) 0.4572(3) 0.71825(7)
O21_2 O 0.4342(3) 0.4131(3) 0.77201(7)
H28_2 H 0.0832671 0.757119 0.702099
O10_2 O 0.9131(3) 0.0658(3) 0.52201(7)
O11_2 O 0.6148(2) 0.0148(2) 0.61498(7)
O12_2 O 0.6247(2) 0.1003(2) 0.57741(6)
C14_2 C 0.7977(3) 0.0068(3) 0.56348(8)
H5_2 H 0.7793 0.0614 0.5537
C18_2 C 0.6514(3) 0.0357(3) 0.59239(9)
C24_2 C 0.6791(7) 0.0063(6) 0.6871(2)
H18_2 H 0.7209 0.0365 0.6743
H19_2 H 0.6739 0.0477 0.7024
Zn8_2 Zn 0.98799(3) 0.13802(3) 0.494680(9)
Zn9_2 Zn 0.55397(4) 0.23103(4) 0.581890(11)
Zn1_2 Zn 0.99525(3) 0.58451(3) 0.617667(9)
Zn3_2 Zn 0.94603(4) 0.73103(4) 0.668110(11)
N2_2 N 0.7200(3) 0.9127(4) 0.69485(11)
O7_2 O 0.9294(2) 0.6891(2) 0.59653(7)
O8_2 O 0.8685(3) 0.7598(3) 0.63250(6)
O14_2 O 0.8334(3) 0.7973(3) 0.68772(8)
C10_2 C 0.8864(3) 0.7557(3) 0.60811(9)
C11_2 C 0.8520(3) 0.8417(3) 0.59194(9)
C12_2 C 0.9071(3) 0.8745(3) 0.57045(9)
H4_2 H 0.9621 0.8396 0.5653
C13_2 C 0.8817(3) 0.9561(3) 0.55710(9)
C15_2 C 0.7402(3) 0.9751(3) 0.58486(9)
C16_2 C 0.7696(3) 0.8941(3) 0.59911(9)
H6_2 H 0.7335 0.8745 0.6137
C17_2 C 0.9460(3) 0.9957(3) 0.53460(8)
C22_2 C 0.7967(5) 0.8747(5) 0.68323(13)
H14_2 H 0.8257 0.9120 0.6701
C23_2 C 0.6689(8) 0.8550(8) 0.7133(2)
H15_2 H 0.7035 0.7950 0.7161
H16_2 H 0.6047 0.8410 0.7066
H17_2 H 0.6636 0.8897 0.7297
H20_2 H 0.6155 0.9965 0.6796
H26_2 H 0.9895 0.4057 0.6937
O22_2 O 0.8852(2) 0.5148(2) 0.63502(7)
O23_2 O 0.8753(2) 0.6003(2) 0.67259(6)
H29_2 H 0.980046 0.752419 0.717736
Zn1_3 Zn 0.08451(3) 0.50475(3) 0.367667(9)
Zn3_3 Zn 0.23103(4) 0.55397(4) 0.418110(11)
N1_3 N 0.4863(4) 0.4000(4) 0.38961(12)
N2_3 N 0.4127(4) 0.7800(3) 0.44485(11)
O1_3 O 0.1590(2) 0.4386(2) 0.39751(7)
O2_3 O 0.1866(3) 0.3529(3) 0.36174(7)
O3_3 O 0.1001(2) 0.1789(3) 0.47024(7)
O4_3 O 0.2082(3) 0.0584(2) 0.47468(7)
O5_3 O 0.4616(3) 0.1147(3) 0.37197(8)
O6_3 O 0.4823(2) 0.0368(2) 0.40941(7)
O7_3 O 0.1891(2) 0.5706(2) 0.34653(7)
O8_3 O 0.2598(3) 0.6315(3) 0.38250(6)
O9_3 O 0.4572(3) 0.4728(2) 0.28175(7)
O11_3 O 0.5148(2) 0.8852(2) 0.36498(7)
O12_3 O 0.6003(2) 0.8753(2) 0.32741(6)
O13_3 O 0.3701(3) 0.4812(3) 0.41260(10)
O14_3 O 0.2973(3) 0.6666(3) 0.43772(8)
O16_3 O 0.2221(4) 0.4800(3) 0.45358(9)
C1_3 C 0.1920(3) 0.3613(3) 0.38567(10)
C2_3 C 0.2339(3) 0.2797(3) 0.40238(8)
C3_3 C 0.3114(3) 0.2271(3) 0.39209(10)
H1_3 H 0.3362 0.2432 0.3756
C4_3 C 0.3524(3) 0.1503(3) 0.40630(10)
C5_3 C 0.3099(3) 0.1237(3) 0.43017(9)
H2_3 H 0.3369 0.0729 0.4399
C6_3 C 0.2282(3) 0.1714(3) 0.43966(9)
C7_3 C 0.1913(3) 0.2521(3) 0.42635(9)
H3_3 H 0.1392 0.2873 0.4333
C8_3 C 0.4372(3) 0.0963(4) 0.39526(11)
C9_3 C 0.1753(3) 0.1346(4) 0.46356(9)
C10_3 C 0.2557(3) 0.6136(3) 0.35811(9)
C11_3 C 0.3417(3) 0.6480(3) 0.34194(9)
C12_3 C 0.3745(3) 0.5929(3) 0.32045(9)
H4_3 H 0.3396 0.5379 0.3153
C13_3 C 0.4561(3) 0.6183(3) 0.30710(9)
C14_3 C 0.5068(3) 0.7023(3) 0.31348(8)
H5_3 H 0.5614 0.7207 0.3037
C15_3 C 0.4751(3) 0.7598(3) 0.33486(9)
C16_3 C 0.3941(3) 0.7304(3) 0.34911(9)
H6_3 H 0.3745 0.7665 0.3637
C17_3 C 0.4957(3) 0.5540(3) 0.28460(8)
C18_3 C 0.5357(3) 0.8486(3) 0.34239(9)
C19_3 C 0.4085(4) 0.4562(5) 0.39211(15)
H7_3 H 0.3803 0.4790 0.3766
C20_3 C 0.5369(6) 0.3562(7) 0.41063(19)
H8_3 H 0.5076 0.3754 0.4270
H9_3 H 0.6039 0.3769 0.4103
H10_3 H 0.5338 0.2865 0.4089
C21_3 C 0.5235(7) 0.3765(7) 0.36423(17)
H11_3 H 0.4847 0.4083 0.3510
H12_3 H 0.5209 0.3071 0.3617
H13_3 H 0.5899 0.3983 0.3629
C22_3 C 0.3747(5) 0.7033(5) 0.43323(13)
H14_3 H 0.4120 0.6743 0.4201
C23_3 C 0.3550(8) 0.8311(8) 0.4633(2)
H15_3 H 0.2950 0.7965 0.4661
H16_3 H 0.3410 0.8953 0.4566
H17_3 H 0.3897 0.8364 0.4797
C24_3 C 0.5063(6) 0.8209(7) 0.4371(2)
H18_3 H 0.5365 0.7791 0.4243
H19_3 H 0.5477 0.8261 0.4524
H20_3 H 0.4965 0.8845 0.4296
H25_3 H 0.0043 0.4748 0.4561
Zn5_2 Zn 0.58451(3) 0.99525(3) 0.382333(9)
Zn9_3 Zn 0.73103(4) 0.94603(4) 0.331890(11)
O17_3 O 0.0584(2) 0.2082(3) 0.52532(7)
O22_3 O 0.0148(2) 0.6148(2) 0.38502(7)
O23_3 O 0.1003(2) 0.6247(2) 0.42259(6)
H28_3 H 0.257119 0.416733 0.452099
H29_3 H 0.252419 0.519954 0.467736
N3_3 N 0.9055(4) 0.3692(4) 0.45265(10)
O15_3 O 0.8998(2) 0.2405(2) 0.48102(7)
C25_3 C 0.9363(4) 0.3160(4) 0.47191(11)
H21_3 H 0.9935 0.3371 0.4800
C26_3 C 0.8187(10) 0.3294(8) 0.4386(3)
H22_3 H 0.7966 0.2714 0.4474
H23_3 H 0.8360 0.3140 0.4208
H24_3 H 0.7674 0.3772 0.4387
C27_3 C 0.9527(5) 0.4585(6) 0.44405(17)
H26_3 H 0.9057 0.5105 0.4437
H27_3 H 0.9791 0.4493 0.4267
O18_3 O 0.9616(3) 0.3853(3) 0.37803(8)
O19_3 O 0.9823(2) 0.4632(2) 0.34059(7)
O20_3 O 0.9572(3) 0.0272(2) 0.46825(7)
N3_4 N 0.0945(4) 0.6308(4) 0.95265(10)
O15_4 O 0.1002(2) 0.7595(2) 0.98102(7)
C25_4 C 0.0637(4) 0.6840(4) 0.97191(11)
H21_4 H 0.0065 0.6629 0.9800
C26_4 C 0.1813(10) 0.6706(8) 0.9386(3)
H22_4 H 0.2034 0.7286 0.9474
H23_4 H 0.1640 0.6860 0.9208
H24_4 H 0.2326 0.6228 0.9387
C27_4 C 0.0473(5) 0.5415(6) 0.94405(17)
H26_4 H 0.0943 0.4895 0.9437
H27_4 H 0.0209 0.5507 0.9267
O18_4 O 0.0384(3) 0.6147(3) 0.87803(8)
O19_4 O 0.0177(2) 0.5368(2) 0.84059(7)
O20_4 O 0.0428(3) 0.9728(2) 0.96825(7)
Zn4_2 Zn 0.41549(3) 0.00475(3) 0.882333(9)
O17_4 O 0.9416(2) 0.7918(3) 0.02532(7)
Zn1_4 Zn 0.91549(3) 0.49525(3) 0.867667(9)
Zn3_4 Zn 0.76897(4) 0.44603(4) 0.918110(11)
N1_4 N 0.5137(4) 0.6000(4) 0.88961(12)
N2_4 N 0.5873(4) 0.2200(3) 0.94485(11)
O1_4 O 0.8410(2) 0.5614(2) 0.89751(7)
O2_4 O 0.8134(3) 0.6471(3) 0.86174(7)
O3_4 O 0.8999(2) 0.8211(3) 0.97024(7)
O4_4 O 0.7918(3) 0.9416(2) 0.97468(7)
O5_4 O 0.5384(3) 0.8853(3) 0.87197(8)
O6_4 O 0.5177(2) 0.9632(2) 0.90941(7)
O7_4 O 0.8109(2) 0.4294(2) 0.84653(7)
O8_4 O 0.7402(3) 0.3685(3) 0.88250(6)
O9_4 O 0.5428(3) 0.5272(2) 0.78175(7)
O11_4 O 0.4852(2) 0.1148(2) 0.86498(7)
O12_4 O 0.3997(2) 0.1247(2) 0.82741(6)
O13_4 O 0.6299(3) 0.5188(3) 0.91260(10)
O14_4 O 0.7027(3) 0.3334(3) 0.93772(8)
O16_4 O 0.7779(4) 0.5200(3) 0.95358(9)
C1_4 C 0.8080(3) 0.6387(3) 0.88567(10)
C2_4 C 0.7661(3) 0.7203(3) 0.90238(8)
C3_4 C 0.6886(3) 0.7729(3) 0.89209(10)
H1_4 H 0.6638 0.7568 0.8756
C4_4 C 0.6476(3) 0.8497(3) 0.90630(10)
C5_4 C 0.6901(3) 0.8763(3) 0.93017(9)
H2_4 H 0.6631 0.9271 0.9399
C6_4 C 0.7718(3) 0.8286(3) 0.93966(9)
C7_4 C 0.8087(3) 0.7479(3) 0.92635(9)
H3_4 H 0.8608 0.7127 0.9333
C8_4 C 0.5628(3) 0.9037(4) 0.89526(11)
C9_4 C 0.8247(3) 0.8654(4) 0.96356(9)
C10_4 C 0.7443(3) 0.3864(3) 0.85811(9)
C11_4 C 0.6583(3) 0.3520(3) 0.84194(9)
C12_4 C 0.6255(3) 0.4071(3) 0.82045(9)
H4_4 H 0.6604 0.4621 0.8153
C13_4 C 0.5439(3) 0.3817(3) 0.80710(9)
C14_4 C 0.4932(3) 0.2977(3) 0.81348(8)
H5_4 H 0.4386 0.2793 0.8037
C15_4 C 0.5249(3) 0.2402(3) 0.83486(9)
C16_4 C 0.6059(3) 0.2696(3) 0.84911(9)
H6_4 H 0.6255 0.2335 0.8637
C17_4 C 0.5043(3) 0.4460(3) 0.78460(8)
C18_4 C 0.4643(3) 0.1514(3) 0.84239(9)
C19_4 C 0.5915(4) 0.5438(5) 0.89211(15)
H7_4 H 0.6197 0.5210 0.8766
C20_4 C 0.4631(6) 0.6438(7) 0.91063(19)
H8_4 H 0.4924 0.6246 0.9270
H9_4 H 0.3961 0.6231 0.9103
H10_4 H 0.4662 0.7135 0.9089
C21_4 C 0.4765(7) 0.6235(7) 0.86423(17)
H11_4 H 0.5153 0.5917 0.8510
H12_4 H 0.4791 0.6929 0.8617
H13_4 H 0.4101 0.6017 0.8629
C22_4 C 0.6253(5) 0.2967(5) 0.93323(13)
H14_4 H 0.5880 0.3257 0.9201
C23_4 C 0.6450(8) 0.1689(8) 0.9633(2)
H15_4 H 0.7050 0.2035 0.9661
H16_4 H 0.6590 0.1047 0.9566
H17_4 H 0.6103 0.1636 0.9797
C24_4 C 0.4937(6) 0.1791(7) 0.9371(2)
H18_4 H 0.4635 0.2209 0.9243
H19_4 H 0.4523 0.1739 0.9524
H20_4 H 0.5035 0.1155 0.9296
H25_4 H 0.9957 0.5252 0.9561
Zn9_4 Zn 0.26897(4) 0.05397(4) 0.831890(11)
O22_4 O 0.9852(2) 0.3852(2) 0.88502(7)
O23_4 O 0.8997(2) 0.3753(2) 0.92259(6)
H28_4 H 0.742881 0.583267 0.952099
H29_4 H 0.747581 0.480046 0.967736
N3_5 N 0.6308(4) 0.0945(4) 0.04735(10)
O15_5 O 0.7595(2) 0.1002(2) 0.01898(7)
C25_5 C 0.6840(4) 0.0637(4) 0.02809(11)
H21_5 H 0.6629 0.0065 0.0200
C26_5 C 0.6706(8) 0.1813(10) 0.0614(3)
H22_5 H 0.7286 0.2034 0.0526
H23_5 H 0.6860 0.1640 0.0792
H24_5 H 0.6228 0.2326 0.0613
C27_5 C 0.5415(6) 0.0473(5) 0.05595(17)
H26_5 H 0.4895 0.0943 0.0563
H27_5 H 0.5507 0.0209 0.0733
O21_3 O 0.9342(3) 0.0869(3) 0.97799(7)
N1_5 N 0.6000(4) 0.5137(4) 0.11039(12)
N2_5 N 0.2200(3) 0.5873(4) 0.05515(11)
O1_5 O 0.5614(2) 0.8410(2) 0.10249(7)
O2_5 O 0.6471(3) 0.8134(3) 0.13826(7)
O3_5 O 0.8211(3) 0.8999(2) 0.02976(7)
O7_5 O 0.4294(2) 0.8109(2) 0.15347(7)
O8_5 O 0.3685(3) 0.7402(3) 0.11750(6)
O10_3 O 0.4131(3) 0.4342(3) 0.22799(7)
O13_5 O 0.5188(3) 0.6299(3) 0.08740(10)
O14_5 O 0.3334(3) 0.7027(3) 0.06228(8)
O16_5 O 0.5200(3) 0.7779(4) 0.04642(9)
C1_5 C 0.6387(3) 0.8080(3) 0.11433(10)
C2_5 C 0.7203(3) 0.7661(3) 0.09762(8)
C3_5 C 0.7729(3) 0.6886(3) 0.10791(10)
H1_5 H 0.7568 0.6638 0.1244
C4_5 C 0.8497(3) 0.6476(3) 0.09370(10)
C5_5 C 0.8763(3) 0.6901(3) 0.06983(9)
H2_5 H 0.9271 0.6631 0.0601
C6_5 C 0.8286(3) 0.7718(3) 0.06034(9)
C7_5 C 0.7479(3) 0.8087(3) 0.07365(9)
H3_5 H 0.7127 0.8608 0.0667
C8_5 C 0.9037(4) 0.5628(3) 0.10474(11)
C9_5 C 0.8654(4) 0.8247(3) 0.03644(9)
C10_5 C 0.3864(3) 0.7443(3) 0.14189(9)
C11_5 C 0.3520(3) 0.6583(3) 0.15806(9)
C12_5 C 0.4071(3) 0.6255(3) 0.17955(9)
H4_5 H 0.4621 0.6604 0.1847
C13_5 C 0.3817(3) 0.5439(3) 0.19290(9)
C14_5 C 0.2977(3) 0.4932(3) 0.18652(8)
H5_5 H 0.2793 0.4386 0.1963
C15_5 C 0.2402(3) 0.5249(3) 0.16514(9)
C16_5 C 0.2696(3) 0.6059(3) 0.15089(9)
H6_5 H 0.2335 0.6255 0.1363
C17_5 C 0.4460(3) 0.5043(3) 0.21540(8)
C18_5 C 0.1514(3) 0.4643(3) 0.15761(9)
C19_5 C 0.5438(5) 0.5915(4) 0.10789(15)
H7_5 H 0.5210 0.6197 0.1234
C20_5 C 0.6438(7) 0.4631(6) 0.08937(19)
H8_5 H 0.6246 0.4924 0.0730
H9_5 H 0.6231 0.3961 0.0897
H10_5 H 0.7135 0.4662 0.0911
C21_5 C 0.6235(7) 0.4765(7) 0.13577(17)
H11_5 H 0.5917 0.5153 0.1490
H12_5 H 0.6929 0.4791 0.1383
H13_5 H 0.6017 0.4101 0.1371
C22_5 C 0.2967(5) 0.6253(5) 0.06677(13)
H14_5 H 0.3257 0.5880 0.0799
C23_5 C 0.1689(8) 0.6450(8) 0.0367(2)
H15_5 H 0.2035 0.7050 0.0339
H16_5 H 0.1047 0.6590 0.0434
H17_5 H 0.1636 0.6103 0.0203
C24_5 C 0.1791(7) 0.4937(6) 0.0629(2)
H18_5 H 0.2209 0.4635 0.0757
H19_5 H 0.1739 0.4523 0.0476
H20_5 H 0.1155 0.5035 0.0704
H25_5 H 0.5252 0.9957 0.0439
H28_5 H 0.583267 0.742881 0.0479008
H29_5 H 0.480046 0.747581 0.0322636
N1_6 N 0.4000(4) 0.4863(4) 0.61039(12)
N2_6 N 0.7800(3) 0.4127(4) 0.55515(11)
O1_6 O 0.4386(2) 0.1590(2) 0.60249(7)
O2_6 O 0.3529(3) 0.1866(3) 0.63826(7)
O3_6 O 0.1789(3) 0.1001(2) 0.52976(7)
O7_6 O 0.5706(2) 0.1891(2) 0.65347(7)
O8_6 O 0.6315(3) 0.2598(3) 0.61750(6)
O10_4 O 0.5869(3) 0.5658(3) 0.72799(7)
O13_6 O 0.4812(3) 0.3701(3) 0.58740(10)
O14_6 O 0.6666(3) 0.2973(3) 0.56228(8)
O16_6 O 0.4800(3) 0.2221(4) 0.54642(9)
C1_6 C 0.3613(3) 0.1920(3) 0.61433(10)
C2_6 C 0.2797(3) 0.2339(3) 0.59762(8)
C3_6 C 0.2271(3) 0.3114(3) 0.60791(10)
H1_6 H 0.2432 0.3362 0.6244
C4_6 C 0.1503(3) 0.3524(3) 0.59370(10)
C5_6 C 0.1237(3) 0.3099(3) 0.56983(9)
H2_6 H 0.0729 0.3369 0.5601
C6_6 C 0.1714(3) 0.2282(3) 0.56034(9)
C7_6 C 0.2521(3) 0.1913(3) 0.57365(9)
H3_6 H 0.2873 0.1392 0.5667
C8_6 C 0.0963(4) 0.4372(3) 0.60474(11)
C9_6 C 0.1346(4) 0.1753(3) 0.53644(9)
C10_6 C 0.6136(3) 0.2557(3) 0.64189(9)
C11_6 C 0.6480(3) 0.3417(3) 0.65806(9)
C12_6 C 0.5929(3) 0.3745(3) 0.67955(9)
H4_6 H 0.5379 0.3396 0.6847
C13_6 C 0.6183(3) 0.4561(3) 0.69290(9)
C14_6 C 0.7023(3) 0.5068(3) 0.68652(8)
H5_6 H 0.7207 0.5614 0.6963
C15_6 C 0.7598(3) 0.4751(3) 0.66514(9)
C16_6 C 0.7304(3) 0.3941(3) 0.65089(9)
H6_6 H 0.7665 0.3745 0.6363
C17_6 C 0.5540(3) 0.4957(3) 0.71540(8)
C18_6 C 0.8486(3) 0.5357(3) 0.65761(9)
C19_6 C 0.4562(5) 0.4085(4) 0.60789(15)
H7_6 H 0.4790 0.3803 0.6234
C20_6 C 0.3562(7) 0.5369(6) 0.58937(19)
H8_6 H 0.3754 0.5076 0.5730
H9_6 H 0.3769 0.6039 0.5897
H10_6 H 0.2865 0.5338 0.5911
C21_6 C 0.3765(7) 0.5235(7) 0.63577(17)
H11_6 H 0.4083 0.4847 0.6490
H12_6 H 0.3071 0.5209 0.6383
H13_6 H 0.3983 0.5899 0.6371
C22_6 C 0.7033(5) 0.3747(5) 0.56677(13)
H14_6 H 0.6743 0.4120 0.5799
C23_6 C 0.8311(8) 0.3550(8) 0.5367(2)
H15_6 H 0.7965 0.2950 0.5339
H16_6 H 0.8953 0.3410 0.5434
H17_6 H 0.8364 0.3897 0.5203
C24_6 C 0.8209(7) 0.5063(6) 0.5629(2)
H18_6 H 0.7791 0.5365 0.5757
H19_6 H 0.8261 0.5477 0.5476
H20_6 H 0.8845 0.4965 0.5704
H25_6 H 0.4748 0.0043 0.5439
H28_6 H 0.416733 0.257119 0.547901
H29_6 H 0.519954 0.252419 0.532264
N3_6 N 0.3692(4) 0.9055(4) 0.54735(10)
O15_6 O 0.2405(2) 0.8998(2) 0.51898(7)
C25_6 C 0.3160(4) 0.9363(4) 0.52809(11)
H21_6 H 0.3371 0.9935 0.5200
C26_6 C 0.3294(8) 0.8187(10) 0.5614(3)
H22_6 H 0.2714 0.7966 0.5526
H23_6 H 0.3140 0.8360 0.5792
H24_6 H 0.3772 0.7674 0.5613
C27_6 C 0.4585(6) 0.9527(5) 0.55595(17)
H26_6 H 0.5105 0.9057 0.5563
H27_6 H 0.4493 0.9791 0.5733
O21_4 O 0.0658(3) 0.9131(3) 0.47799(7)
N2_7 N 0.0873(4) 0.2800(3) 0.80515(11)
O7_7 O 0.3109(2) 0.0706(2) 0.90347(7)
O8_7 O 0.2402(3) 0.1315(3) 0.86750(6)
O14_7 O 0.2027(3) 0.1666(3) 0.81228(8)
C10_7 C 0.2443(3) 0.1136(3) 0.89189(9)
C11_7 C 0.1583(3) 0.1480(3) 0.90806(9)
C12_7 C 0.1255(3) 0.0929(3) 0.92955(9)
H4_7 H 0.1604 0.0379 0.9347
C13_7 C 0.0439(3) 0.1183(3) 0.94290(9)
C15_7 C 0.0249(3) 0.2598(3) 0.91514(9)
C16_7 C 0.1059(3) 0.2304(3) 0.90089(9)
H6_7 H 0.1255 0.2665 0.8863
C17_7 C 0.0043(3) 0.0540(3) 0.96540(8)
C22_7 C 0.1253(5) 0.2033(5) 0.81677(13)
H14_7 H 0.0880 0.1743 0.8299
C23_7 C 0.1450(8) 0.3311(8) 0.7867(2)
H15_7 H 0.2050 0.2965 0.7839
H16_7 H 0.1590 0.3953 0.7934
H17_7 H 0.1103 0.3364 0.7703
H20_7 H 0.0035 0.3845 0.8204
H26_7 H 0.5943 0.0105 0.8063
H29_7 H 0.247581 0.0199536 0.782264
N1_7 N 0.0137(4) 0.9000(4) 0.86039(12)
N3_7 N 0.5945(4) 0.8692(4) 0.79735(10)
O1_7 O 0.3410(2) 0.9386(2) 0.85249(7)
O2_7 O 0.3134(3) 0.8529(3) 0.88826(7)
O3_7 O 0.3999(2) 0.6789(3) 0.77976(7)
O13_7 O 0.1299(3) 0.9812(3) 0.83740(10)
O15_7 O 0.6002(2) 0.7405(2) 0.76898(7)
O16_7 O 0.2779(4) 0.9800(3) 0.79642(9)
C1_7 C 0.3080(3) 0.8613(3) 0.86433(10)
C2_7 C 0.2661(3) 0.7797(3) 0.84762(8)
C3_7 C 0.1886(3) 0.7271(3) 0.85791(10)
H1_7 H 0.1638 0.7432 0.8744
C4_7 C 0.1476(3) 0.6503(3) 0.84370(10)
C5_7 C 0.1901(3) 0.6237(3) 0.81983(9)
H2_7 H 0.1631 0.5729 0.8101
C6_7 C 0.2718(3) 0.6714(3) 0.81034(9)
C7_7 C 0.3087(3) 0.7521(3) 0.82365(9)
H3_7 H 0.3608 0.7873 0.8167
C8_7 C 0.0628(3) 0.5963(4) 0.85474(11)
C9_7 C 0.3247(3) 0.6346(4) 0.78644(9)
C19_7 C 0.0915(4) 0.9562(5) 0.85789(15)
H7_7 H 0.1197 0.9790 0.8734
H11_7 H 0.0153 0.9083 0.8990
C25_7 C 0.5637(4) 0.8160(4) 0.77809(11)
H21_7 H 0.5065 0.8371 0.7700
C26_7 C 0.6813(10) 0.8294(8) 0.8114(3)
H22_7 H 0.7034 0.7714 0.8026
H23_7 H 0.6640 0.8140 0.8292
H24_7 H 0.7326 0.8772 0.8113
C27_7 C 0.5473(5) 0.9585(6) 0.80595(17)
H25_7 H 0.4957 0.9748 0.7939
H27_7 H 0.5209 0.9493 0.8233
H28_7 H 0.242881 0.916733 0.797901
C14_7 C 0.9932(3) 0.2023(3) 0.93652(8)
H5_7 H 0.9386 0.2207 0.9463
C18_7 C 0.9643(3) 0.3486(3) 0.90761(9)
C24_7 C 0.9937(6) 0.3209(7) 0.8129(2)
H18_7 H 0.9635 0.2791 0.8257
H19_7 H 0.9523 0.3261 0.7976
C20_7 C 0.9631(6) 0.8562(7) 0.83937(19)
H8_7 H 0.9924 0.8754 0.8230
H9_7 H 0.8961 0.8769 0.8397
H10_7 H 0.9662 0.7865 0.8411
C21_7 C 0.9765(7) 0.8765(7) 0.88577(17)
H12_7 H 0.9791 0.8071 0.8883
H13_7 H 0.9101 0.8983 0.8871
C20_8 C 0.0369(6) 0.1438(7) 0.33937(19)
H8_8 H 0.0076 0.1246 0.3230
H9_8 H 0.1039 0.1231 0.3397
H10_8 H 0.0338 0.2135 0.3411
C21_8 C 0.0235(7) 0.1235(7) 0.38577(17)
H12_8 H 0.0209 0.1929 0.3883
H13_8 H 0.0899 0.1017 0.3871
C14_8 C 0.0068(3) 0.7977(3) 0.43652(8)
H5_8 H 0.0614 0.7793 0.4463
C18_8 C 0.0357(3) 0.6514(3) 0.40761(9)
C24_8 C 0.0063(6) 0.6791(7) 0.3129(2)
H18_8 H 0.0365 0.7209 0.3257
H19_8 H 0.0477 0.6739 0.2976
N1_8 N 0.9863(4) 0.1000(4) 0.36039(12)
N3_8 N 0.4055(4) 0.1308(4) 0.29735(10)
O1_8 O 0.6590(2) 0.0614(2) 0.35249(7)
O2_8 O 0.6866(3) 0.1471(3) 0.38826(7)
O3_8 O 0.6001(2) 0.3211(3) 0.27976(7)
O13_8 O 0.8701(3) 0.0188(3) 0.33740(10)
O15_8 O 0.3998(2) 0.2595(2) 0.26898(7)
O16_8 O 0.7221(4) 0.0200(3) 0.29642(9)
C1_8 C 0.6920(3) 0.1387(3) 0.36433(10)
C2_8 C 0.7339(3) 0.2203(3) 0.34762(8)
C3_8 C 0.8114(3) 0.2729(3) 0.35791(10)
H1_8 H 0.8362 0.2568 0.3744
C4_8 C 0.8524(3) 0.3497(3) 0.34370(10)
C5_8 C 0.8099(3) 0.3763(3) 0.31983(9)
H2_8 H 0.8369 0.4271 0.3101
C6_8 C 0.7282(3) 0.3286(3) 0.31034(9)
C7_8 C 0.6913(3) 0.2479(3) 0.32365(9)
H3_8 H 0.6392 0.2127 0.3167
C8_8 C 0.9372(3) 0.4037(4) 0.35474(11)
C9_8 C 0.6753(3) 0.3654(4) 0.28644(9)
C19_8 C 0.9085(4) 0.0438(5) 0.35789(15)
H7_8 H 0.8803 0.0210 0.3734
H11_8 H 0.9847 0.0917 0.3990
C25_8 C 0.4363(4) 0.1840(4) 0.27809(11)
H21_8 H 0.4935 0.1629 0.2700
C26_8 C 0.3187(10) 0.1706(8) 0.3114(3)
H22_8 H 0.2966 0.2286 0.3026
H23_8 H 0.3360 0.1860 0.3292
H24_8 H 0.2674 0.1228 0.3113
C27_8 C 0.4527(5) 0.0415(6) 0.30595(17)
H25_8 H 0.5043 0.0252 0.2939
H27_8 H 0.4791 0.0507 0.3233
H28_8 H 0.757119 0.0832671 0.297901
N2_8 N 0.9127(4) 0.7200(3) 0.30515(11)
O7_8 O 0.6891(2) 0.9294(2) 0.40347(7)
O8_8 O 0.7598(3) 0.8685(3) 0.36750(6)
O14_8 O 0.7973(3) 0.8334(3) 0.31228(8)
C10_8 C 0.7557(3) 0.8864(3) 0.39189(9)
C11_8 C 0.8417(3) 0.8520(3) 0.40806(9)
C12_8 C 0.8745(3) 0.9071(3) 0.42955(9)
H4_8 H 0.8396 0.9621 0.4347
C13_8 C 0.9561(3) 0.8817(3) 0.44290(9)
C15_8 C 0.9751(3) 0.7402(3) 0.41514(9)
C16_8 C 0.8941(3) 0.7696(3) 0.40089(9)
H6_8 H 0.8745 0.7335 0.3863
C17_8 C 0.9957(3) 0.9460(3) 0.46540(8)
C22_8 C 0.8747(5) 0.7967(5) 0.31677(13)
H14_8 H 0.9120 0.8257 0.3299
C23_8 C 0.8550(8) 0.6689(8) 0.2867(2)
H15_8 H 0.7950 0.7035 0.2839
H16_8 H 0.8410 0.6047 0.2934
H17_8 H 0.8897 0.6636 0.2703
H20_8 H 0.9965 0.6155 0.3204
H26_8 H 0.4057 0.9895 0.3063
H29_8 H 0.752419 0.980046 0.282264
loop_
_geom_bond_atom_site_label_1
_geom_bond_atom_site_label_2
_geom_bond_site_symmetry_1
_geom_bond_site_symmetry_2
N2 C22 1_555 1_555
O7 Zn1 1_555 1_555
O8 Zn3 1_555 1_555
O14 Zn3 1_555 1_555
C10 O7 1_555 1_555
C11 C10 1_555 1_555
C12 C11 1_555 1_555
H4 C12 1_555 1_555
C13 C12 1_555 1_555
C16 C11 1_555 1_555
H6 C16 1_555 1_555
C17 C13 1_555 1_555
C22 O14 1_555 1_555
H14 C22 1_555 1_555
C23 N2 1_555 1_555
H15 C23 1_555 1_555
H16 C23 1_555 1_555
H17 C23 1_555 1_555
O22 Zn1 1_555 1_555
O23 Zn3 1_555 1_555
O8 C10 1_555 1_555
C15 C16 1_555 1_555
O11 C18 1_555 1_555
O12 C18 1_555 1_555
H5 C14 1_555 1_555
H18 C24 1_555 1_555
H19 C24 1_555 1_555
Zn5 O11 1_555 1_555
Zn9 O12 1_555 1_555
Zn2 O3 1_555 1_555
N1 C19 1_555 1_555
N3 C25 1_555 1_555
O1 C1 1_555 1_555
O2 C1 1_555 1_555
O3 C9 1_555 1_555
O4 C9 1_555 1_555
O5 C8 1_555 1_555
O6 C8 1_555 1_555
O15 Zn2 1_555 1_555
C1 C2 1_555 1_555
C2 C3 1_555 1_555
C3 H1 1_555 1_555
C4 C3 1_555 1_555
C5 C4 1_555 1_555
H2 C5 1_555 1_555
C6 C5 1_555 1_555
C7 C2 1_555 1_555
H3 C7 1_555 1_555
C8 C4 1_555 1_555
C9 C6 1_555 1_555
C19 O13 1_555 1_555
H7 C19 1_555 1_555
C25 O15 1_555 1_555
H21 C25 1_555 1_555
C26 N3 1_555 1_555
H22 C26 1_555 1_555
H23 C26 1_555 1_555
H24 C26 1_555 1_555
C27 N3 1_555 1_555
H25 C27 1_555 1_555
H27 C27 1_555 1_555
Zn6 Zn2 1_555 1_555
Zn7 O9 1_555 1_555
O17 Zn2 1_555 1_555
O20 Zn2 1_555 1_555
O21 Zn2 1_555 1_555
O4 Zn6 1_555 1_555
C6 C7 1_555 1_555
O16 H28 1_555 1_555
H8 C20 1_555 1_555
H9 C20 1_555 1_555
H10 C20 1_555 1_555
H12 C21 1_555 1_555
H13 C21 1_555 1_555
H8_2 C20_2 1_555 1_555
H9_2 C20_2 1_555 1_555
H10_2 C20_2 1_555 1_555
H12_2 C21_2 1_555 1_555
H13_2 C21_2 1_555 1_555
Zn2_2 O3_2 1_555 1_555
N1_2 C19_2 1_555 1_555
N3_2 C25_2 1_555 1_555
O1_2 C1_2 1_555 1_555
O2_2 C1_2 1_555 1_555
O3_2 C9_2 1_555 1_555
O4_2 C9_2 1_555 1_555
O5_2 C8_2 1_555 1_555
O6_2 C8_2 1_555 1_555
O15_2 Zn2_2 1_555 1_555
C1_2 C2_2 1_555 1_555
C2_2 C3_2 1_555 1_555
C3_2 H1_2 1_555 1_555
C4_2 C3_2 1_555 1_555
C5_2 C4_2 1_555 1_555
H2_2 C5_2 1_555 1_555
C6_2 C5_2 1_555 1_555
C7_2 C2_2 1_555 1_555
H3_2 C7_2 1_555 1_555
C8_2 C4_2 1_555 1_555
C9_2 C6_2 1_555 1_555
C19_2 O13_2 1_555 1_555
H7_2 C19_2 1_555 1_555
C25_2 O15_2 1_555 1_555
H21_2 C25_2 1_555 1_555
C26_2 N3_2 1_555 1_555
H22_2 C26_2 1_555 1_555
H23_2 C26_2 1_555 1_555
H24_2 C26_2 1_555 1_555
C27_2 N3_2 1_555 1_555
H25_2 C27_2 1_555 1_555
H27_2 C27_2 1_555 1_555
Zn6_2 Zn2_2 1_555 1_555
Zn7_2 O9_2 1_555 1_555
O17_2 Zn2_2 1_555 1_555
O20_2 Zn2_2 1_555 1_555
O21_2 Zn2_2 1_555 1_555
O4_2 Zn6_2 1_555 1_555
C6_2 C7_2 1_555 1_555
O16_2 H28_2 1_555 1_555
O11_2 C18_2 1_555 1_555
O12_2 C18_2 1_555 1_555
H5_2 C14_2 1_555 1_555
H18_2 C24_2 1_555 1_555
H19_2 C24_2 1_555 1_555
Zn4 O11_2 1_555 1_555
Zn8_2 O10_2 1_555 1_555
Zn9_2 O12_2 1_555 1_555
N2_2 C22_2 1_555 1_555
O7_2 Zn1_2 1_555 1_555
O8_2 Zn3_2 1_555 1_555
O14_2 Zn3_2 1_555 1_555
C10_2 O7_2 1_555 1_555
C11_2 C10_2 1_555 1_555
C12_2 C11_2 1_555 1_555
H4_2 C12_2 1_555 1_555
C13_2 C12_2 1_555 1_555
C16_2 C11_2 1_555 1_555
H6_2 C16_2 1_555 1_555
C17_2 C13_2 1_555 1_555
C22_2 O14_2 1_555 1_555
H14_2 C22_2 1_555 1_555
C23_2 N2_2 1_555 1_555
H15_2 C23_2 1_555 1_555
H16_2 C23_2 1_555 1_555
H17_2 C23_2 1_555 1_555
O22_2 Zn1_2 1_555 1_555
O23_2 Zn3_2 1_555 1_555
O8_2 C10_2 1_555 1_555
C15_2 C16_2 1_555 1_555
Zn1_3 O1_3 1_555 1_555
Zn3_3 O1_3 1_555 1_555
N1_3 C19_3 1_555 1_555
N2_3 C22_3 1_555 1_555
O1_3 C1_3 1_555 1_555
O2_3 C1_3 1_555 1_555
O3_3 C9_3 1_555 1_555
O4_3 C9_3 1_555 1_555
O5_3 C8_3 1_555 1_555
O6_3 C8_3 1_555 1_555
O7_3 Zn1_3 1_555 1_555
O8_3 Zn3_3 1_555 1_555
O9_3 C17_3 1_555 1_555
O21 C17_3 1_555 1_555
O11_3 C18_3 1_555 1_555
O12_3 C18_3 1_555 1_555
O13_3 Zn3_3 1_555 1_555
O14_3 Zn3_3 1_555 1_555
O16_3 Zn3_3 1_555 1_555
C1_3 C2_3 1_555 1_555
C2_3 C3_3 1_555 1_555
C3_3 H1_3 1_555 1_555
C4_3 C3_3 1_555 1_555
C5_3 C4_3 1_555 1_555
H2_3 C5_3 1_555 1_555
C6_3 C5_3 1_555 1_555
C7_3 C2_3 1_555 1_555
H3_3 C7_3 1_555 1_555
C8_3 C4_3 1_555 1_555
C9_3 C6_3 1_555 1_555
C10_3 O7_3 1_555 1_555
C11_3 C10_3 1_555 1_555
C12_3 C11_3 1_555 1_555
H4_3 C12_3 1_555 1_555
C13_3 C12_3 1_555 1_555
C14_3 C13_3 1_555 1_555
H5_3 C14_3 1_555 1_555
C15_3 C14_3 1_555 1_555
C16_3 C11_3 1_555 1_555
H6_3 C16_3 1_555 1_555
C17_3 C13_3 1_555 1_555
C18_3 C15_3 1_555 1_555
C19_3 O13_3 1_555 1_555
H7_3 C19_3 1_555 1_555
C20_3 N1_3 1_555 1_555
H8_3 C20_3 1_555 1_555
H9_3 C20_3 1_555 1_555
H10_3 C20_3 1_555 1_555
C21_3 N1_3 1_555 1_555
H11_3 C21_3 1_555 1_555
H12_3 C21_3 1_555 1_555
H13_3 C21_3 1_555 1_555
C22_3 O14_3 1_555 1_555
H14_3 C22_3 1_555 1_555
C23_3 N2_3 1_555 1_555
H15_3 C23_3 1_555 1_555
H16_3 C23_3 1_555 1_555
H17_3 C23_3 1_555 1_555
C24_3 N2_3 1_555 1_555
H18_3 C24_3 1_555 1_555
H19_3 C24_3 1_555 1_555
H20_3 C24_3 1_555 1_555
Zn5_2 O11_3 1_555 1_555
Zn6 O9_3 1_555 1_555
Zn9_3 O12_3 1_555 1_555
O22_3 Zn1_3 1_555 1_555
O23_3 Zn3_3 1_555 1_555
O8_3 C10_3 1_555 1_555
C6_3 C7_3 1_555 1_555
C15_3 C16_3 1_555 1_555
O16_3 H28_3 1_555 1_555
O16_3 H29_3 1_555 1_555
N3_3 C25_3 1_555 1_555
O15_3 Zn8_2 1_555 1_555
C25_3 O15_3 1_555 1_555
H21_3 C25_3 1_555 1_555
C26_3 N3_3 1_555 1_555
H22_3 C26_3 1_555 1_555
H23_3 C26_3 1_555 1_555
H24_3 C26_3 1_555 1_555
C27_3 N3_3 1_555 1_555
H26_3 C27_3 1_555 1_555
H27_3 C27_3 1_555 1_555
O20_3 Zn8_2 1_555 1_555
N3_4 C25_4 1_555 1_555
O15_4 Zn8 1_555 1_555
C25_4 O15_4 1_555 1_555
H21_4 C25_4 1_555 1_555
C26_4 N3_4 1_555 1_555
H22_4 C26_4 1_555 1_555
H23_4 C26_4 1_555 1_555
H24_4 C26_4 1_555 1_555
C27_4 N3_4 1_555 1_555
H26_4 C27_4 1_555 1_555
H27_4 C27_4 1_555 1_555
O20_4 Zn8 1_555 1_555
Zn1_4 O1_4 1_555 1_555
Zn3_4 O1_4 1_555 1_555
N1_4 C19_4 1_555 1_555
N2_4 C22_4 1_555 1_555
O1_4 C1_4 1_555 1_555
O2_4 C1_4 1_555 1_555
O3_4 C9_4 1_555 1_555
O4_4 C9_4 1_555 1_555
O5_4 C8_4 1_555 1_555
O6_4 C8_4 1_555 1_555
O7_4 Zn1_4 1_555 1_555
O8_4 Zn3_4 1_555 1_555
O9_4 C17_4 1_555 1_555
O21_2 C17_4 1_555 1_555
O11_4 C18_4 1_555 1_555
O12_4 C18_4 1_555 1_555
O13_4 Zn3_4 1_555 1_555
O14_4 Zn3_4 1_555 1_555
O16_4 Zn3_4 1_555 1_555
C1_4 C2_4 1_555 1_555
C2_4 C3_4 1_555 1_555
C3_4 H1_4 1_555 1_555
C4_4 C3_4 1_555 1_555
C5_4 C4_4 1_555 1_555
H2_4 C5_4 1_555 1_555
C6_4 C5_4 1_555 1_555
C7_4 C2_4 1_555 1_555
H3_4 C7_4 1_555 1_555
C8_4 C4_4 1_555 1_555
C9_4 C6_4 1_555 1_555
C10_4 O7_4 1_555 1_555
C11_4 C10_4 1_555 1_555
C12_4 C11_4 1_555 1_555
H4_4 C12_4 1_555 1_555
C13_4 C12_4 1_555 1_555
C14_4 C13_4 1_555 1_555
H5_4 C14_4 1_555 1_555
C15_4 C14_4 1_555 1_555
C16_4 C11_4 1_555 1_555
H6_4 C16_4 1_555 1_555
C17_4 C13_4 1_555 1_555
C18_4 C15_4 1_555 1_555
C19_4 O13_4 1_555 1_555
H7_4 C19_4 1_555 1_555
C20_4 N1_4 1_555 1_555
H8_4 C20_4 1_555 1_555
H9_4 C20_4 1_555 1_555
H10_4 C20_4 1_555 1_555
C21_4 N1_4 1_555 1_555
H11_4 C21_4 1_555 1_555
H12_4 C21_4 1_555 1_555
H13_4 C21_4 1_555 1_555
C22_4 O14_4 1_555 1_555
H14_4 C22_4 1_555 1_555
C23_4 N2_4 1_555 1_555
H15_4 C23_4 1_555 1_555
H16_4 C23_4 1_555 1_555
H17_4 C23_4 1_555 1_555
C24_4 N2_4 1_555 1_555
H18_4 C24_4 1_555 1_555
H19_4 C24_4 1_555 1_555
H20_4 C24_4 1_555 1_555
Zn4_2 O11_4 1_555 1_555
Zn6_2 O9_4 1_555 1_555
Zn9_4 O12_4 1_555 1_555
O22_4 Zn1_4 1_555 1_555
O23_4 Zn3_4 1_555 1_555
O8_4 C10_4 1_555 1_555
C6_4 C7_4 1_555 1_555
C15_4 C16_4 1_555 1_555
O16_4 H28_4 1_555 1_555
O16_4 H29_4 1_555 1_555
N3_5 C25_5 1_555 1_555
O15_5 Zn7 1_555 1_555
C25_5 O15_5 1_555 1_555
H21_5 C25_5 1_555 1_555
C26_5 N3_5 1_555 1_555
H22_5 C26_5 1_555 1_555
H23_5 C26_5 1_555 1_555
H24_5 C26_5 1_555 1_555
C27_5 N3_5 1_555 1_555
H26_5 C27_5 1_555 1_555
H27_5 C27_5 1_555 1_555
Zn5 O1_5 1_555 1_555
Zn9 O1_5 1_555 1_555
N1_5 C19_5 1_555 1_555
N2_5 C22_5 1_555 1_555
O1_5 C1_5 1_555 1_555
O2_5 C1_5 1_555 1_555
O3_5 C9_5 1_555 1_555
O17_4 C9_5 1_555 1_555
O18 C8_5 1_555 1_555
O19 C8_5 1_555 1_555
O7_5 Zn5 1_555 1_555
O8_5 Zn9 1_555 1_555
O20 C17_5 1_555 1_555
O10_3 C17_5 1_555 1_555
O22 C18_5 1_555 1_555
O23 C18_5 1_555 1_555
O13_5 Zn9 1_555 1_555
O14_5 Zn9 1_555 1_555
O16_5 Zn9 1_555 1_555
C1_5 C2_5 1_555 1_555
C2_5 C3_5 1_555 1_555
C3_5 H1_5 1_555 1_555
C4_5 C3_5 1_555 1_555
C5_5 C4_5 1_555 1_555
H2_5 C5_5 1_555 1_555
C6_5 C5_5 1_555 1_555
C7_5 C2_5 1_555 1_555
H3_5 C7_5 1_555 1_555
C8_5 C4_5 1_555 1_555
C9_5 C6_5 1_555 1_555
C10_5 O7_5 1_555 1_555
C11_5 C10_5 1_555 1_555
C12_5 C11_5 1_555 1_555
H4_5 C12_5 1_555 1_555
C13_5 C12_5 1_555 1_555
C14_5 C13_5 1_555 1_555
H5_5 C14_5 1_555 1_555
C15_5 C14_5 1_555 1_555
C16_5 C11_5 1_555 1_555
H6_5 C16_5 1_555 1_555
C17_5 C13_5 1_555 1_555
C18_5 C15_5 1_555 1_555
C19_5 O13_5 1_555 1_555
H7_5 C19_5 1_555 1_555
C20_5 N1_5 1_555 1_555
H8_5 C20_5 1_555 1_555
H9_5 C20_5 1_555 1_555
H10_5 C20_5 1_555 1_555
C21_5 N1_5 1_555 1_555
H11_5 C21_5 1_555 1_555
H12_5 C21_5 1_555 1_555
H13_5 C21_5 1_555 1_555
C22_5 O14_5 1_555 1_555
H14_5 C22_5 1_555 1_555
C23_5 N2_5 1_555 1_555
H15_5 C23_5 1_555 1_555
H16_5 C23_5 1_555 1_555
H17_5 C23_5 1_555 1_555
C24_5 N2_5 1_555 1_555
H18_5 C24_5 1_555 1_555
H19_5 C24_5 1_555 1_555
H20_5 C24_5 1_555 1_555
Zn6 O10_3 1_555 1_555
O8_5 C10_5 1_555 1_555
C6_5 C7_5 1_555 1_555
C15_5 C16_5 1_555 1_555
O16_5 H28_5 1_555 1_555
O16_5 H29_5 1_555 1_555
Zn4 O1_6 1_555 1_555
Zn9_2 O1_6 1_555 1_555
N1_6 C19_6 1_555 1_555
N2_6 C22_6 1_555 1_555
O1_6 C1_6 1_555 1_555
O2_6 C1_6 1_555 1_555
O3_6 C9_6 1_555 1_555
O17_3 C9_6 1_555 1_555
O18_2 C8_6 1_555 1_555
O19_2 C8_6 1_555 1_555
O7_6 Zn4 1_555 1_555
O8_6 Zn9_2 1_555 1_555
O20_2 C17_6 1_555 1_555
O10_4 C17_6 1_555 1_555
O22_2 C18_6 1_555 1_555
O23_2 C18_6 1_555 1_555
O13_6 Zn9_2 1_555 1_555
O14_6 Zn9_2 1_555 1_555
O16_6 Zn9_2 1_555 1_555
C1_6 C2_6 1_555 1_555
C2_6 C3_6 1_555 1_555
C3_6 H1_6 1_555 1_555
C4_6 C3_6 1_555 1_555
C5_6 C4_6 1_555 1_555
H2_6 C5_6 1_555 1_555
C6_6 C5_6 1_555 1_555
C7_6 C2_6 1_555 1_555
H3_6 C7_6 1_555 1_555
C8_6 C4_6 1_555 1_555
C9_6 C6_6 1_555 1_555
C10_6 O7_6 1_555 1_555
C11_6 C10_6 1_555 1_555
C12_6 C11_6 1_555 1_555
H4_6 C12_6 1_555 1_555
C13_6 C12_6 1_555 1_555
C14_6 C13_6 1_555 1_555
H5_6 C14_6 1_555 1_555
C15_6 C14_6 1_555 1_555
C16_6 C11_6 1_555 1_555
H6_6 C16_6 1_555 1_555
C17_6 C13_6 1_555 1_555
C18_6 C15_6 1_555 1_555
C19_6 O13_6 1_555 1_555
H7_6 C19_6 1_555 1_555
C20_6 N1_6 1_555 1_555
H8_6 C20_6 1_555 1_555
H9_6 C20_6 1_555 1_555
H10_6 C20_6 1_555 1_555
C21_6 N1_6 1_555 1_555
H11_6 C21_6 1_555 1_555
H12_6 C21_6 1_555 1_555
H13_6 C21_6 1_555 1_555
C22_6 O14_6 1_555 1_555
H14_6 C22_6 1_555 1_555
C23_6 N2_6 1_555 1_555
H15_6 C23_6 1_555 1_555
H16_6 C23_6 1_555 1_555
H17_6 C23_6 1_555 1_555
C24_6 N2_6 1_555 1_555
H18_6 C24_6 1_555 1_555
H19_6 C24_6 1_555 1_555
H20_6 C24_6 1_555 1_555
Zn6_2 O10_4 1_555 1_555
O8_6 C10_6 1_555 1_555
C6_6 C7_6 1_555 1_555
C15_6 C16_6 1_555 1_555
O16_6 H28_6 1_555 1_555
O16_6 H29_6 1_555 1_555
N3_6 C25_6 1_555 1_555
O15_6 Zn7_2 1_555 1_555
C25_6 O15_6 1_555 1_555
H21_6 C25_6 1_555 1_555
C26_6 N3_6 1_555 1_555
H22_6 C26_6 1_555 1_555
H23_6 C26_6 1_555 1_555
H24_6 C26_6 1_555 1_555
C27_6 N3_6 1_555 1_555
H26_6 C27_6 1_555 1_555
H27_6 C27_6 1_555 1_555
O21_4 Zn7_2 1_555 1_555
N2_7 C22_7 1_555 1_555
O7_7 Zn4_2 1_555 1_555
O8_7 Zn9_4 1_555 1_555
O14_7 Zn9_4 1_555 1_555
C10_7 O7_7 1_555 1_555
C11_7 C10_7 1_555 1_555
C12_7 C11_7 1_555 1_555
H4_7 C12_7 1_555 1_555
C13_7 C12_7 1_555 1_555
C16_7 C11_7 1_555 1_555
H6_7 C16_7 1_555 1_555
C17_7 C13_7 1_555 1_555
C22_7 O14_7 1_555 1_555
H14_7 C22_7 1_555 1_555
C23_7 N2_7 1_555 1_555
H15_7 C23_7 1_555 1_555
H16_7 C23_7 1_555 1_555
H17_7 C23_7 1_555 1_555
O8_7 C10_7 1_555 1_555
C15_7 C16_7 1_555 1_555
Zn6_2 O3_7 1_555 1_555
N1_7 C19_7 1_555 1_555
N3_7 C25_7 1_555 1_555
O1_7 C1_7 1_555 1_555
O2_7 C1_7 1_555 1_555
O3_7 C9_7 1_555 1_555
O17_2 C9_7 1_555 1_555
O18_4 C8_7 1_555 1_555
O19_4 C8_7 1_555 1_555
O15_7 Zn6_2 1_555 1_555
C1_7 C2_7 1_555 1_555
C2_7 C3_7 1_555 1_555
C3_7 H1_7 1_555 1_555
C4_7 C3_7 1_555 1_555
C5_7 C4_7 1_555 1_555
H2_7 C5_7 1_555 1_555
C6_7 C5_7 1_555 1_555
C7_7 C2_7 1_555 1_555
H3_7 C7_7 1_555 1_555
C8_7 C4_7 1_555 1_555
C9_7 C6_7 1_555 1_555
C19_7 O13_7 1_555 1_555
H7_7 C19_7 1_555 1_555
C25_7 O15_7 1_555 1_555
H21_7 C25_7 1_555 1_555
C26_7 N3_7 1_555 1_555
H22_7 C26_7 1_555 1_555
H23_7 C26_7 1_555 1_555
H24_7 C26_7 1_555 1_555
C27_7 N3_7 1_555 1_555
H25_7 C27_7 1_555 1_555
H27_7 C27_7 1_555 1_555
C6_7 C7_7 1_555 1_555
O16_7 H28_7 1_555 1_555
O22_4 C18_7 1_555 1_555
O23_4 C18_7 1_555 1_555
H5_7 C14_7 1_555 1_555
H18_7 C24_7 1_555 1_555
H19_7 C24_7 1_555 1_555
H8_7 C20_7 1_555 1_555
H9_7 C20_7 1_555 1_555
H10_7 C20_7 1_555 1_555
H12_7 C21_7 1_555 1_555
H13_7 C21_7 1_555 1_555
H8_8 C20_8 1_555 1_555
H9_8 C20_8 1_555 1_555
H10_8 C20_8 1_555 1_555
H12_8 C21_8 1_555 1_555
H13_8 C21_8 1_555 1_555
O22_3 C18_8 1_555 1_555
O23_3 C18_8 1_555 1_555
H5_8 C14_8 1_555 1_555
H18_8 C24_8 1_555 1_555
H19_8 C24_8 1_555 1_555
Zn6 O3_8 1_555 1_555
N1_8 C19_8 1_555 1_555
N3_8 C25_8 1_555 1_555
O1_8 C1_8 1_555 1_555
O2_8 C1_8 1_555 1_555
O3_8 C9_8 1_555 1_555
O17 C9_8 1_555 1_555
O18_3 C8_8 1_555 1_555
O19_3 C8_8 1_555 1_555
O15_8 Zn6 1_555 1_555
C1_8 C2_8 1_555 1_555
C2_8 C3_8 1_555 1_555
C3_8 H1_8 1_555 1_555
C4_8 C3_8 1_555 1_555
C5_8 C4_8 1_555 1_555
H2_8 C5_8 1_555 1_555
C6_8 C5_8 1_555 1_555
C7_8 C2_8 1_555 1_555
H3_8 C7_8 1_555 1_555
C8_8 C4_8 1_555 1_555
C9_8 C6_8 1_555 1_555
C19_8 O13_8 1_555 1_555
H7_8 C19_8 1_555 1_555
C25_8 O15_8 1_555 1_555
H21_8 C25_8 1_555 1_555
C26_8 N3_8 1_555 1_555
H22_8 C26_8 1_555 1_555
H23_8 C26_8 1_555 1_555
H24_8 C26_8 1_555 1_555
C27_8 N3_8 1_555 1_555
H25_8 C27_8 1_555 1_555
H27_8 C27_8 1_555 1_555
C6_8 C7_8 1_555 1_555
O16_8 H28_8 1_555 1_555
N2_8 C22_8 1_555 1_555
O7_8 Zn5_2 1_555 1_555
O8_8 Zn9_3 1_555 1_555
O14_8 Zn9_3 1_555 1_555
C10_8 O7_8 1_555 1_555
C11_8 C10_8 1_555 1_555
C12_8 C11_8 1_555 1_555
H4_8 C12_8 1_555 1_555
C13_8 C12_8 1_555 1_555
C16_8 C11_8 1_555 1_555
H6_8 C16_8 1_555 1_555
C17_8 C13_8 1_555 1_555
C22_8 O14_8 1_555 1_555
H14_8 C22_8 1_555 1_555
C23_8 N2_8 1_555 1_555
H15_8 C23_8 1_555 1_555
H16_8 C23_8 1_555 1_555
H17_8 C23_8 1_555 1_555
O8_8 C10_8 1_555 1_555
C15_8 C16_8 1_555 1_555

#END
