
###############################################################################
#
# This file contains modified crystal structure data generated from the
# MOF subset of the Cambridge Structural Database (CSD) v543 
# hosted by the Cambridge Crystallographic Data Centre (CCDC).
#
# This work is licensed under the Creative Commons
# Attribution-NonCommercial-ShareAlike 4.0 International License.
# To view a copy of this license, visit
# http://creativecommons.org/licenses/by-nc-sa/4.0/
# or send a letter to
# Creative Commons, PO Box 1866, Mountain View, CA 94042, USA.
#
# CIF created using the CSD Python API on 29 September 2022
# The structure has been converted into the P1 space group
# The structure has a 3D framework
# The original CSD entry CEHWIX is in the orthorhombic crystal system
# The framework has been calculated to contain at least 10.0% void space
# The void calculation uses a probe of radius 1.32A, grid spacing 0.4
#
###############################################################################

data_CEHWIX
_chemical_formula_moiety         '(C20 H20 Cl4 N6 Ni4 O10)n'
_symmetry_cell_setting           triclinic
_symmetry_space_group_name_H-M   'P 1'
_symmetry_Int_Tables_number      1
_space_group_name_Hall           'P 1'
loop_
_symmetry_equiv_pos_site_id
_symmetry_equiv_pos_as_xyz
1 x,y,z
_cell_length_a                   10.545(2)
_cell_length_b                   11.200(2)
_cell_length_c                   7.8651(16)
_cell_angle_alpha                90
_cell_angle_beta                 90
_cell_angle_gamma                90
_cell_volume                     928.9
loop_
_atom_site_label
_atom_site_type_symbol
_atom_site_fract_x
_atom_site_fract_y
_atom_site_fract_z
H4 H 0.5719 0.0179 0.0041
H5 H 0.9277 0.0205 0.8745
N2 N 0.7454(5) 0.0356(4) 0.9163(7)
Ni3 Ni 0.71545(5) 0.17892(5) 0.75692(10)
Ni1 Ni 0.78455(5) 0.67892(5) 0.25692(10)
Cl1 Cl 0.71854(15) 0.56107(14) 0.0079(3)
O1 O 0.5996(3) 0.7326(3) 0.2858(6)
O2 O 0.8291(5) 0.7787(4) 0.4735(6)
H1 H 0.8321 0.8294 0.5539
H2 H 0.8892 0.7293 0.4884
N1 N 0.7893(4) 0.8368(4) 0.1180(7)
C1 C 0.5711(5) 0.8270(4) 0.2114(7)
C2 C 0.8810(5) 0.8876(5) 0.0308(9)
H3 H 0.9623 0.8556 0.0361
C3 C 0.6742(5) 0.8878(4) 0.1091(8)
C4 C 0.6530(5) 0.9854(4) 0.0085(8)
O3 O 0.4647(3) 0.8758(3) 0.2073(6)
Ni2 Ni 0.28455(5) 0.82108(5) 0.25692(10)
N3 N 0.7546(5) 0.5356(4) 0.4163(7)
O4 O 0.9647(3) 0.6242(3) 0.2073(6)
Ni1_2 Ni 0.21545(5) 0.32108(5) 0.75692(10)
Cl1_2 Cl 0.28146(15) 0.43893(14) 0.5079(3)
O1_2 O 0.4004(3) 0.2674(3) 0.7858(6)
O2_2 O 0.1709(5) 0.2213(4) 0.9735(6)
H2_2 H 0.1108 0.2707 0.9884
N1_2 N 0.2107(4) 0.1632(4) 0.6180(7)
C1_2 C 0.4289(5) 0.1730(4) 0.7114(7)
C2_2 C 0.1190(5) 0.1124(5) 0.5308(9)
H3_2 H 0.0377 0.1444 0.5361
C3_2 C 0.3258(5) 0.1122(4) 0.6091(8)
C4_2 C 0.3470(5) 0.0146(4) 0.5085(8)
C5 C 0.1402(5) 0.0135(5) 0.4323(8)
O3_2 O 0.5353(3) 0.1242(3) 0.7073(6)
N3_2 N 0.2454(5) 0.4644(4) 0.9163(7)
O4_2 O 0.0353(3) 0.3758(3) 0.7073(6)
H4_2 H 0.4281 0.9821 0.5041
H5_2 H 0.0723 0.9795 0.3745
N2_2 N 0.2546(5) 0.9644(4) 0.4163(7)
Cl1_3 Cl 0.21854(15) 0.93893(14) 0.0079(3)
O1_3 O 0.0996(3) 0.7674(3) 0.2858(6)
O2_3 O 0.3291(5) 0.7213(4) 0.4735(6)
H1_2 H 0.3321 0.6706 0.5539
H2_3 H 0.3892 0.7707 0.4884
N1_3 N 0.2893(4) 0.6632(4) 0.1180(7)
C1_3 C 0.0711(5) 0.6730(4) 0.2114(7)
C2_3 C 0.3810(5) 0.6124(5) 0.0308(9)
H3_3 H 0.4623 0.6444 0.0361
C3_3 C 0.1742(5) 0.6122(4) 0.1091(8)
C4_3 C 0.1530(5) 0.5146(4) 0.0085(8)
H4_3 H 0.0719 0.4821 0.0041
C5_2 C 0.3598(5) 0.5135(5) 0.9323(8)
H5_3 H 0.4277 0.4795 0.8745
Cl1_4 Cl 0.78146(15) 0.06107(14) 0.5079(3)
O1_4 O 0.9004(3) 0.2326(3) 0.7858(6)
O2_4 O 0.6709(5) 0.2787(4) 0.9735(6)
H2_4 H 0.6108 0.2293 0.9884
N1_4 N 0.7107(4) 0.3368(4) 0.6180(7)
C1_4 C 0.9289(5) 0.3270(4) 0.7114(7)
C2_4 C 0.6190(5) 0.3876(5) 0.5308(9)
H3_4 H 0.5377 0.3556 0.5361
C3_4 C 0.8258(5) 0.3878(4) 0.6091(8)
C4_4 C 0.8470(5) 0.4854(4) 0.5085(8)
H4_4 H 0.9281 0.5179 0.5041
C5_3 C 0.6402(5) 0.4865(5) 0.4323(8)
H5_4 H 0.5723 0.5205 0.3745
C5_4 C 0.8598(5) 0.9865(5) 0.9323(8)
H1_3 H 0.1679 0.1706 0.0539
H1_4 H 0.6679 0.3294 0.0539
loop_
_geom_bond_atom_site_label_1
_geom_bond_atom_site_label_2
_geom_bond_site_symmetry_1
_geom_bond_site_symmetry_2
Ni3 N2 1_555 1_555
Ni1 Cl1 1_555 1_555
O1 Ni1 1_555 1_555
O2 Ni1 1_555 1_555
H1 O2 1_555 1_555
H2 O2 1_555 1_555
N1 Ni1 1_555 1_555
C1 O1 1_555 1_555
C2 N1 1_555 1_555
H3 C2 1_555 1_555
C3 N1 1_555 1_555
C4 C3 1_555 1_555
O3 C1 1_555 1_555
Ni2 O3 1_555 1_555
N3 Ni1 1_555 1_555
O4 Ni1 1_555 1_555
C1 C3 1_555 1_555
Ni1_2 Cl1_2 1_555 1_555
O1_2 Ni1_2 1_555 1_555
O2_2 Ni1_2 1_555 1_555
H2_2 O2_2 1_555 1_555
N1_2 Ni1_2 1_555 1_555
C1_2 O1_2 1_555 1_555
C2_2 N1_2 1_555 1_555
H3_2 C2_2 1_555 1_555
C3_2 N1_2 1_555 1_555
C4_2 C3_2 1_555 1_555
C5 C2_2 1_555 1_555
O3_2 C1_2 1_555 1_555
Ni3 O3_2 1_555 1_555
N3_2 Ni1_2 1_555 1_555
O4_2 Ni1_2 1_555 1_555
C1_2 C3_2 1_555 1_555
Ni2 N2_2 1_555 1_555
Ni2 Cl1_3 1_555 1_555
O1_3 Ni2 1_555 1_555
O2_3 Ni2 1_555 1_555
H1_2 O2_3 1_555 1_555
H2_3 O2_3 1_555 1_555
N1_3 Ni2 1_555 1_555
C1_3 O1_3 1_555 1_555
C2_3 N1_3 1_555 1_555
H3_3 C2_3 1_555 1_555
C3_3 N1_3 1_555 1_555
C4_3 C3_3 1_555 1_555
H4_3 C4_3 1_555 1_555
C1_3 C3_3 1_555 1_555
H5_3 C5_2 1_555 1_555
C5_2 N3_2 1_555 1_555
Ni3 Cl1_4 1_555 1_555
O1_4 Ni3 1_555 1_555
O2_4 Ni3 1_555 1_555
H2_4 O2_4 1_555 1_555
N1_4 Ni3 1_555 1_555
C1_4 O1_4 1_555 1_555
C2_4 N1_4 1_555 1_555
H3_4 C2_4 1_555 1_555
C3_4 N1_4 1_555 1_555
C4_4 C3_4 1_555 1_555
H4_4 C4_4 1_555 1_555
C5_3 C2_4 1_555 1_555
H5_4 C5_3 1_555 1_555
N3 C4_4 1_555 1_555
C1_4 C3_4 1_555 1_555
C5_3 N3 1_555 1_555

#END
