
###############################################################################
#
# This file contains modified crystal structure data generated from the
# MOF subset of the Cambridge Structural Database (CSD) v543 
# hosted by the Cambridge Crystallographic Data Centre (CCDC).
#
# This work is licensed under the Creative Commons
# Attribution-NonCommercial-ShareAlike 4.0 International License.
# To view a copy of this license, visit
# http://creativecommons.org/licenses/by-nc-sa/4.0/
# or send a letter to
# Creative Commons, PO Box 1866, Mountain View, CA 94042, USA.
#
# CIF created using the CSD Python API on 29 September 2022
# The structure has been converted into the P1 space group
# The structure has a 3D framework
# The original CSD entry CEHYUK is in the cubic crystal system
# The original CSD entry CEHYUK is in a Sohncke space group
# The framework has been calculated to contain at least 10.0% void space
# The void calculation uses a probe of radius 1.32A, grid spacing 0.4
#
###############################################################################

data_CEHYUK
_chemical_formula_moiety         '(C24 Mo4 Na4 O44)n'
_symmetry_cell_setting           triclinic
_symmetry_space_group_name_H-M   'P 1'
_symmetry_Int_Tables_number      1
_space_group_name_Hall           'P 1'
loop_
_symmetry_equiv_pos_site_id
_symmetry_equiv_pos_as_xyz
1 x,y,z
_cell_length_a                   16.1155(2)
_cell_length_b                   16.1155(2)
_cell_length_c                   16.1155(2)
_cell_angle_alpha                90
_cell_angle_beta                 90
_cell_angle_gamma                90
_cell_volume                     4185.35
loop_
_atom_site_label
_atom_site_type_symbol
_atom_site_fract_x
_atom_site_fract_y
_atom_site_fract_z
Na2 Na 0.0834(2) 0.0834(2) 0.0834(2)
O9 O 0.2215(4) 0.1083(7) 0.0513(4)
Mo1 Mo 0.33844(5) 0.16156(5) 0.83844(5)
O1 O 0.3876(5) 0.0772(4) 0.6092(4)
C1 C 0.3703(5) 0.0914(4) 0.6812(4)
C2 C 0.3738(5) 0.0192(4) 0.7455(4)
O3 O 0.3624(4) 0.0410(3) 0.8199(3)
O4 O 0.3487(4) 0.1603(3) 0.7144(3)
Na3 Na 0.5834(2) 0.4166(2) 0.9166(2)
O5 O 0.1092(4) 0.1124(5) 0.9228(4)
O6 O 0.4228(4) 0.3908(4) 0.8876(5)
O10 O 0.5513(4) 0.2785(4) 0.8917(7)
C3 C 0.1812(4) 0.1297(5) 0.9086(4)
C4 C 0.4086(4) 0.3188(4) 0.8703(5)
C5 C 0.2455(4) 0.1262(5) 0.9808(4)
C6 C 0.4808(4) 0.2545(4) 0.8738(5)
O13 O 0.3199(3) 0.1376(4) 0.9590(3)
O14 O 0.4590(3) 0.1801(3) 0.8624(4)
O15 O 0.2144(3) 0.1513(4) 0.8397(3)
O16 O 0.3397(3) 0.2856(3) 0.8487(4)
Na1 Na 0.4166(2) 0.9166(2) 0.5834(2)
O2 O 0.3917(7) 0.9487(4) 0.7215(4)
O7 O 0.3908(4) 0.8876(5) 0.4228(4)
O8 O 0.5772(4) 0.8908(4) 0.6124(5)
O11 O 0.2785(4) 0.8917(7) 0.5513(4)
O12 O 0.4487(4) 0.7785(4) 0.6083(7)
O2_2 O 0.1083(7) 0.0513(4) 0.2215(4)
O12_2 O 0.0513(4) 0.2215(4) 0.1083(7)
Mo1_2 Mo 0.16156(5) 0.83844(5) 0.33844(5)
O1_2 O 0.1124(5) 0.9228(4) 0.1092(4)
C1_2 C 0.1297(5) 0.9086(4) 0.1812(4)
C2_2 C 0.1262(5) 0.9808(4) 0.2455(4)
O3_2 O 0.1376(4) 0.9590(3) 0.3199(3)
O4_2 O 0.1513(4) 0.8397(3) 0.2144(3)
O6_2 O 0.0772(4) 0.6092(4) 0.3876(5)
C3_2 C 0.3188(4) 0.8703(5) 0.4086(4)
C4_2 C 0.0914(4) 0.6812(4) 0.3703(5)
C5_2 C 0.2545(4) 0.8738(5) 0.4808(4)
C6_2 C 0.0192(4) 0.7455(4) 0.3738(5)
O13_2 O 0.1801(3) 0.8624(4) 0.4590(3)
O14_2 O 0.0410(3) 0.8199(3) 0.3624(4)
O15_2 O 0.2856(3) 0.8487(4) 0.3397(3)
O16_2 O 0.1603(3) 0.7144(3) 0.3487(4)
O8_2 O 0.9228(4) 0.1092(4) 0.1124(5)
Na3_2 Na 0.9166(2) 0.5834(2) 0.4166(2)
O10_2 O 0.9487(4) 0.7215(4) 0.3917(7)
O7_2 O 0.6092(4) 0.3876(5) 0.0772(4)
Mo1_3 Mo 0.66156(5) 0.66156(5) 0.66156(5)
O1_3 O 0.6124(5) 0.5772(4) 0.8908(4)
O2_3 O 0.6083(7) 0.4487(4) 0.7785(4)
C1_3 C 0.6297(5) 0.5914(4) 0.8188(4)
C2_3 C 0.6262(5) 0.5192(4) 0.7545(4)
O3_3 O 0.6376(4) 0.5410(3) 0.6801(3)
O4_3 O 0.6513(4) 0.6603(3) 0.7856(3)
O5_2 O 0.8908(4) 0.6124(5) 0.5772(4)
O9_2 O 0.7785(4) 0.6083(7) 0.4487(4)
O11_2 O 0.7215(4) 0.3917(7) 0.9487(4)
C3_3 C 0.8188(4) 0.6297(5) 0.5914(4)
C4_3 C 0.5914(4) 0.8188(4) 0.6297(5)
C5_3 C 0.7545(4) 0.6262(5) 0.5192(4)
C6_3 C 0.5192(4) 0.7545(4) 0.6262(5)
O13_3 O 0.6801(3) 0.6376(4) 0.5410(3)
O14_3 O 0.5410(3) 0.6801(3) 0.6376(4)
O15_3 O 0.7856(3) 0.6513(4) 0.6603(3)
O16_3 O 0.6603(3) 0.7856(3) 0.6513(4)
Mo1_4 Mo 0.83844(5) 0.33844(5) 0.16156(5)
O1_4 O 0.8876(5) 0.4228(4) 0.3908(4)
O2_4 O 0.8917(7) 0.5513(4) 0.2785(4)
C1_4 C 0.8703(5) 0.4086(4) 0.3188(4)
C2_4 C 0.8738(5) 0.4808(4) 0.2545(4)
O3_4 O 0.8624(4) 0.4590(3) 0.1801(3)
O4_4 O 0.8487(4) 0.3397(3) 0.2856(3)
C3_4 C 0.6812(4) 0.3703(5) 0.0914(4)
C4_4 C 0.9086(4) 0.1812(4) 0.1297(5)
C5_4 C 0.7455(4) 0.3738(5) 0.0192(4)
C6_4 C 0.9808(4) 0.2455(4) 0.1262(5)
O13_4 O 0.8199(3) 0.3624(4) 0.0410(3)
O14_4 O 0.9590(3) 0.3199(3) 0.1376(4)
O15_4 O 0.7144(3) 0.3487(4) 0.1603(3)
O16_4 O 0.8397(3) 0.2144(3) 0.1513(4)
loop_
_geom_bond_atom_site_label_1
_geom_bond_atom_site_label_2
_geom_bond_site_symmetry_1
_geom_bond_site_symmetry_2
O9 Na2 1_555 1_555
Mo1 O3 1_555 1_555
O1 C1 1_555 1_555
C1 C2 1_555 1_555
O3 C2 1_555 1_555
O4 Mo1 1_555 1_555
Na3 O6 1_555 1_555
O5 C3 1_555 1_555
O6 C4 1_555 1_555
O10 Na3 1_555 1_555
C3 C5 1_555 1_555
C4 C6 1_555 1_555
C6 O10 1_555 1_555
O13 Mo1 1_555 1_555
O14 Mo1 1_555 1_555
O15 Mo1 1_555 1_555
O16 Mo1 1_555 1_555
C1 O4 1_555 1_555
C3 O15 1_555 1_555
C4 O16 1_555 1_555
C5 O13 1_555 1_555
C6 O14 1_555 1_555
O2 Na1 1_555 1_555
O7 Na1 1_555 1_555
O8 Na1 1_555 1_555
O11 Na1 1_555 1_555
O12 Na1 1_555 1_555
O2_2 Na2 1_555 1_555
O12_2 Na2 1_555 1_555
Mo1_2 O3_2 1_555 1_555
O1_2 C1_2 1_555 1_555
C1_2 C2_2 1_555 1_555
O3_2 C2_2 1_555 1_555
O4_2 Mo1_2 1_555 1_555
O7 C3_2 1_555 1_555
O6_2 C4_2 1_555 1_555
C3_2 C5_2 1_555 1_555
C4_2 C6_2 1_555 1_555
C5_2 O11 1_555 1_555
O13_2 Mo1_2 1_555 1_555
O14_2 Mo1_2 1_555 1_555
O15_2 Mo1_2 1_555 1_555
O16_2 Mo1_2 1_555 1_555
C1_2 O4_2 1_555 1_555
C3_2 O15_2 1_555 1_555
C4_2 O16_2 1_555 1_555
C5_2 O13_2 1_555 1_555
C6_2 O14_2 1_555 1_555
O10_2 Na3_2 1_555 1_555
Mo1_3 O3_3 1_555 1_555
Na3 O1_3 1_555 1_555
O1_3 C1_3 1_555 1_555
O2_3 Na3 1_555 1_555
C1_3 C2_3 1_555 1_555
C2_3 O2_3 1_555 1_555
O3_3 C2_3 1_555 1_555
O4_3 Mo1_3 1_555 1_555
Na3_2 O5_2 1_555 1_555
O5_2 C3_3 1_555 1_555
O8 C4_3 1_555 1_555
O9_2 Na3_2 1_555 1_555
O11_2 Na3 1_555 1_555
C3_3 C5_3 1_555 1_555
C4_3 C6_3 1_555 1_555
C5_3 O9_2 1_555 1_555
C6_3 O12 1_555 1_555
O13_3 Mo1_3 1_555 1_555
O14_3 Mo1_3 1_555 1_555
O15_3 Mo1_3 1_555 1_555
O16_3 Mo1_3 1_555 1_555
C1_3 O4_3 1_555 1_555
C3_3 O15_3 1_555 1_555
C4_3 O16_3 1_555 1_555
C5_3 O13_3 1_555 1_555
C6_3 O14_3 1_555 1_555
Mo1_4 O3_4 1_555 1_555
Na3_2 O1_4 1_555 1_555
O1_4 C1_4 1_555 1_555
O2_4 Na3_2 1_555 1_555
C1_4 C2_4 1_555 1_555
C2_4 O2_4 1_555 1_555
O3_4 C2_4 1_555 1_555
O4_4 Mo1_4 1_555 1_555
O7_2 C3_4 1_555 1_555
O8_2 C4_4 1_555 1_555
C3_4 C5_4 1_555 1_555
C4_4 C6_4 1_555 1_555
O13_4 Mo1_4 1_555 1_555
O14_4 Mo1_4 1_555 1_555
O15_4 Mo1_4 1_555 1_555
O16_4 Mo1_4 1_555 1_555
C1_4 O4_4 1_555 1_555
C3_4 O15_4 1_555 1_555
C4_4 O16_4 1_555 1_555
C5_4 O13_4 1_555 1_555
C6_4 O14_4 1_555 1_555

#END
