
###############################################################################
#
# This file contains modified crystal structure data generated from the
# MOF subset of the Cambridge Structural Database (CSD) v543 
# hosted by the Cambridge Crystallographic Data Centre (CCDC).
#
# This work is licensed under the Creative Commons
# Attribution-NonCommercial-ShareAlike 4.0 International License.
# To view a copy of this license, visit
# http://creativecommons.org/licenses/by-nc-sa/4.0/
# or send a letter to
# Creative Commons, PO Box 1866, Mountain View, CA 94042, USA.
#
# CIF created using the CSD Python API on 29 September 2022
# The structure has been converted into the P1 space group
# The structure has a 3D framework
# The original CSD entry CEJBEA is in the triclinic crystal system
# The framework has been calculated to contain at least 10.0% void space
# The void calculation uses a probe of radius 1.32A, grid spacing 0.4
#
###############################################################################

data_CEJBEA
_chemical_formula_moiety         '(C136 H80 Dy6 N14 O30)n'
_symmetry_cell_setting           triclinic
_symmetry_space_group_name_H-M   'P 1'
_symmetry_Int_Tables_number      1
_space_group_name_Hall           'P 1'
loop_
_symmetry_equiv_pos_site_id
_symmetry_equiv_pos_as_xyz
1 x,y,z
_cell_length_a                   10.286(2)
_cell_length_b                   19.161(4)
_cell_length_c                   19.787(4)
_cell_angle_alpha                77.52(3)
_cell_angle_beta                 76.72(3)
_cell_angle_gamma                81.02(3)
_cell_volume                     3682.53
loop_
_atom_site_label
_atom_site_type_symbol
_atom_site_fract_x
_atom_site_fract_y
_atom_site_fract_z
O3 O 0.4822(2) 0.02109(14) 0.37390(13)
C1 C 0.0489(3) 0.00614(17) 0.33941(17)
C5 C 0.2258(4) 0.0031(2) 0.23726(19)
H3 H 0.2540 0.0034 0.1891
C6 C 0.0905(3) 0.0060(2) 0.26754(19)
H4 H 0.0276 0.0079 0.2399
Dy4 Dy 0.632997(13) 0.058325(7) 0.428431(8)
O4 O 0.3544(2) 0.94564(12) 0.45540(12)
C2 C 0.1435(3) 0.99917(17) 0.38103(18)
H1 H 0.1158 0.9965 0.4296
C3 C 0.2800(3) 0.99610(17) 0.35027(17)
C4 C 0.3193(3) 0.9996(2) 0.27819(19)
H2 H 0.4099 0.9997 0.2570
C8 C 0.3809(3) 0.98651(18) 0.39719(17)
Dy5 Dy 0.367003(13) 0.941675(7) 0.571569(8)
Dy3 Dy 0.148440(13) 0.419970(8) 0.038590(7)
O13 O 0.1594(2) 0.54237(13) 0.01203(15)
O16 O 0.6177(2) 0.57403(14) 0.01789(14)
N5 N 0.1234(3) 0.31100(16) 0.14498(15)
N6 N 0.2830(3) 0.41482(16) 0.13146(15)
C27 C 0.4506(3) 0.67492(19) 0.00292(17)
C28 C 0.4113(4) 0.7461(2) 0.0048(2)
H14 H 0.4730 0.7755 0.0076
C29 C 0.2785(4) 0.7746(2) 0.0024(2)
H15 H 0.2514 0.8230 0.0038
C32 C 0.5927(3) 0.6420(2) 0.00429(18)
C57 C 0.0534(4) 0.2564(2) 0.1500(2)
H33 H 0.0064 0.2577 0.1147
C58 C 0.0474(5) 0.1974(2) 0.2057(3)
C59 C 0.1170(5) 0.1940(3) 0.2575(3)
H35 H 0.1148 0.1545 0.2945
C60 C 0.1916(4) 0.2498(2) 0.2551(2)
C61 C 0.1941(3) 0.3073(2) 0.19641(18)
C62 C 0.2678(5) 0.2508(3) 0.3076(2)
H36 H 0.2612 0.2150 0.3479
C63 C 0.3475(5) 0.3018(3) 0.2996(2)
H37 H 0.3974 0.3002 0.3337
C64 C 0.3573(4) 0.3592(2) 0.23925(19)
C65 C 0.4499(4) 0.4094(2) 0.2252(2)
H38 H 0.5066 0.4071 0.2562
C66 C 0.4565(4) 0.4607(3) 0.1670(2)
H39 H 0.5186 0.4939 0.1567
C67 C 0.3686(4) 0.4634(2) 0.1222(2)
H40 H 0.3696 0.5011 0.0836
C68 C 0.2780(4) 0.3628(2) 0.18952(18)
O27 O 0.3137(2) 0.31836(14) 0.01224(15)
Dy2 Dy 0.183917(14) 0.519360(7) 0.432388(7)
O1 O 0.8660(2) 0.01045(14) 0.43766(13)
O2 O 0.8150(2) 0.02828(13) 0.33312(13)
O5 O 0.4699(2) 0.15893(13) 0.45440(14)
O6 O 0.3870(2) 0.06112(11) 0.51761(14)
O7 O 0.1881(3) 0.39499(13) 0.47162(15)
O9 O 0.1636(3) 0.51193(14) 0.55120(12)
O11 O 0.1462(3) 0.44473(16) 0.91954(13)
O12 O 0.0126(3) 0.53643(14) 0.87232(13)
O14 O 0.0239(2) 0.63720(14) 0.97212(14)
O15 O 0.6863(2) 0.68164(14) 0.98776(15)
O17 O 0.4171(3) 0.47037(16) 0.44751(16)
O18 O 0.3600(3) 0.4679(2) 0.35107(15)
O19 O 0.5457(3) 0.4068(2) 0.3739(2)
N1 N 0.2204(3) 0.60777(18) 0.31417(16)
N2 N 0.3040(3) 0.62726(16) 0.42822(17)
N3 N 0.7681(3) 0.16252(16) 0.41506(19)
N4 N 0.6303(3) 0.15360(17) 0.31423(17)
N7 N 0.4445(3) 0.4481(2) 0.39099(19)
C7 C 0.9020(3) 0.01490(17) 0.37275(18)
C9 C 0.2738(3) 0.17406(16) 0.54128(18)
C10 C 0.2432(3) 0.24651(16) 0.51411(18)
H5 H 0.2934 0.2674 0.4711
C11 C 0.1397(3) 0.28778(17) 0.5499(2)
C12 C 0.0650(4) 0.2568(2) 0.6142(3)
C13 C 0.0948(6) 0.1850(2) 0.6419(3)
H7 H 0.0438 0.1643 0.6847
C14 C 0.1999(5) 0.14360(19) 0.6066(2)
H8 H 0.2214 0.0957 0.6263
C15 C 0.3828(3) 0.12935(16) 0.50161(18)
C16 C 0.1049(3) 0.36532(17) 0.5212(2)
C17 C 0.1653(3) 0.48024(18) 0.67237(16)
C18 C 0.1040(3) 0.49159(16) 0.73941(15)
H9 H 0.0166 0.5143 0.7470
C19 C 0.1691(3) 0.47004(17) 0.79600(16)
C20 C 0.2972(4) 0.4355(2) 0.7845(2)
H10 H 0.3411 0.4193 0.8221
C21 C 0.3623(4) 0.4244(3) 0.7169(2)
H11 H 0.4495 0.4014 0.7094
C22 C 0.2967(4) 0.4477(3) 0.66103(19)
H12 H 0.3407 0.4415 0.6157
C23 C 0.0923(3) 0.50234(17) 0.61227(16)
C24 C 0.1042(3) 0.48496(18) 0.86803(16)
C25 C 0.2278(3) 0.65788(17) 0.99667(16)
C26 C 0.3604(3) 0.63055(19) 0.99856(17)
H13 H 0.3885 0.5823 0.9969
C30 C 0.1875(3) 0.7304(2) 0.9981(2)
H16 H 0.0991 0.7492 0.9961
C31 C 0.1300(3) 0.60875(17) 0.99360(17)
C33 C 0.8399(4) 0.1651(2) 0.4622(3)
H17 H 0.8408 0.1274 0.5007
C34 C 0.9148(5) 0.2227(3) 0.4563(3)
H18 H 0.9642 0.2233 0.4900
C35 C 0.9123(6) 0.2768(3) 0.4001(3)
H19 H 0.9613 0.3151 0.3954
C36 C 0.8403(5) 0.2773(2) 0.3497(3)
C37 C 0.7679(4) 0.2170(2) 0.3587(3)
C38 C 0.8319(6) 0.3320(3) 0.2810(3)
H20 H 0.8727 0.3737 0.2739
C39 C 0.7767(6) 0.3251(4) 0.2356(4)
H21 H 0.7808 0.3616 0.1958
C40 C 0.7036(5) 0.2646(2) 0.2375(3)
C41 C 0.6399(6) 0.2539(3) 0.1892(3)
H22 H 0.6403 0.2878 0.1477
C42 C 0.5771(6) 0.1970(3) 0.1991(3)
H23 H 0.5363 0.1896 0.1642
C43 C 0.5720(5) 0.1474(3) 0.2629(2)
H24 H 0.5251 0.1078 0.2697
C44 C 0.6986(4) 0.2120(2) 0.3049(3)
C45 C 0.3539(4) 0.6350(2) 0.4811(2)
H25 H 0.3505 0.5978 0.5202
C46 C 0.4121(5) 0.6961(3) 0.4820(3)
H26 H 0.4503 0.6982 0.5197
C47 C 0.4113(6) 0.7519(3) 0.4270(3)
H27 H 0.4454 0.7939 0.4276
C48 C 0.3604(5) 0.7466(2) 0.3702(3)
C49 C 0.3104(4) 0.68143(19) 0.3713(2)
C50 C 0.3543(8) 0.8016(3) 0.3078(5)
H28 H 0.3813 0.8460 0.3069
C51 C 0.3132(9) 0.7932(3) 0.2523(4)
H29 H 0.3124 0.8308 0.2137
C52 C 0.2702(6) 0.7270(3) 0.2507(3)
C53 C 0.2331(8) 0.7137(4) 0.1935(3)
H30 H 0.2346 0.7493 0.1532
C54 C 0.1937(7) 0.6489(4) 0.1945(3)
H31 H 0.1705 0.6394 0.1549
C55 C 0.1888(5) 0.5960(3) 0.2569(2)
H32 H 0.1624 0.5516 0.2576
C56 C 0.2639(4) 0.6714(2) 0.3111(2)
Dy9 Dy 0.851560(13) 0.580030(8) 0.961410(7)
O21 O 0.6456(2) 0.05436(12) 0.54460(12)
O23 O 0.0054(3) 0.60331(14) 0.45133(15)
O24 O 0.0333(2) 0.49048(14) 0.37365(12)
O28 O 0.3823(2) 0.42597(14) 0.98211(14)
O22 O 0.6130(2) 0.93888(11) 0.48239(14)
H34 H 0.9965 0.1607 0.2074
O25 O 0.9874(3) 0.46357(14) 0.12768(13)
O26 O 0.9761(2) 0.36280(14) 0.02788(14)
O8 O 0.9946(3) 0.39669(14) 0.54867(15)
O10 O 0.9667(2) 0.50952(14) 0.62635(12)
H6 H 0.9950 0.2845 0.6387
Dy7 Dy 0.816083(14) 0.480640(7) 0.567612(7)
H6_2 H 0.0050 0.7155 0.3613
H34_2 H 0.0035 0.8393 0.7926
O1_2 O 0.1340(2) 0.98955(14) 0.56234(13)
O2_2 O 0.1850(2) 0.97172(13) 0.66688(13)
O5_2 O 0.5301(2) 0.84107(13) 0.54560(14)
O7_2 O 0.8119(3) 0.60501(13) 0.52838(15)
O9_2 O 0.8364(3) 0.48807(14) 0.44880(12)
O11_2 O 0.8538(3) 0.55527(16) 0.08046(13)
O17_2 O 0.5829(3) 0.52963(16) 0.55249(16)
O18_2 O 0.6400(3) 0.5321(2) 0.64893(15)
O19_2 O 0.4543(3) 0.5932(2) 0.6261(2)
N1_2 N 0.7796(3) 0.39223(18) 0.68583(16)
N2_2 N 0.6960(3) 0.37274(16) 0.57178(17)
N3_2 N 0.2319(3) 0.83748(16) 0.58494(19)
N4_2 N 0.3697(3) 0.84640(17) 0.68577(17)
N7_2 N 0.5555(3) 0.5519(2) 0.60901(19)
C7_2 C 0.0980(3) 0.98510(17) 0.62725(18)
C9_2 C 0.7262(3) 0.82594(16) 0.45872(18)
C10_2 C 0.7568(3) 0.75349(16) 0.48589(18)
H5_2 H 0.7066 0.7326 0.5289
C11_2 C 0.8603(3) 0.71222(17) 0.4501(2)
C12_2 C 0.9350(4) 0.7432(2) 0.3858(3)
C13_2 C 0.9052(6) 0.8150(2) 0.3581(3)
H7_2 H 0.9562 0.8357 0.3153
C14_2 C 0.8001(5) 0.85640(19) 0.3934(2)
H8_2 H 0.7786 0.9043 0.3737
C15_2 C 0.6172(3) 0.87065(16) 0.49839(18)
C16_2 C 0.8951(3) 0.63468(17) 0.4788(2)
C17_2 C 0.8347(3) 0.51976(18) 0.32763(16)
C18_2 C 0.8960(3) 0.50841(16) 0.26059(15)
H9_2 H 0.9834 0.4857 0.2530
C19_2 C 0.8309(3) 0.52996(17) 0.20400(16)
C20_2 C 0.7028(4) 0.5645(2) 0.2155(2)
H10_2 H 0.6589 0.5807 0.1779
C21_2 C 0.6377(4) 0.5756(3) 0.2831(2)
H11_2 H 0.5505 0.5986 0.2906
C22_2 C 0.7033(4) 0.5523(3) 0.33897(19)
H12_2 H 0.6593 0.5585 0.3843
C23_2 C 0.9077(3) 0.49766(17) 0.38773(16)
C24_2 C 0.8958(3) 0.51504(18) 0.13197(16)
C25_2 C 0.7722(3) 0.34212(17) 0.00333(16)
C26_2 C 0.6396(3) 0.36945(19) 0.00144(17)
H13_2 H 0.6115 0.4177 0.0031
C30_2 C 0.8125(3) 0.2696(2) 0.0019(2)
H16_2 H 0.9009 0.2508 0.0039
C31_2 C 0.8700(3) 0.39125(17) 0.00640(17)
C33_2 C 0.1601(4) 0.8349(2) 0.5378(3)
H17_2 H 0.1592 0.8726 0.4993
C34_2 C 0.0852(5) 0.7773(3) 0.5437(3)
H18_2 H 0.0358 0.7767 0.5100
C35_2 C 0.0877(6) 0.7232(3) 0.5999(3)
H19_2 H 0.0387 0.6849 0.6046
C36_2 C 0.1597(5) 0.7227(2) 0.6503(3)
C37_2 C 0.2321(4) 0.7830(2) 0.6413(3)
C38_2 C 0.1681(6) 0.6680(3) 0.7190(3)
H20_2 H 0.1273 0.6263 0.7261
C39_2 C 0.2233(6) 0.6749(4) 0.7644(4)
H21_2 H 0.2192 0.6384 0.8042
C40_2 C 0.2964(5) 0.7354(2) 0.7625(3)
C41_2 C 0.3601(6) 0.7461(3) 0.8108(3)
H22_2 H 0.3597 0.7122 0.8523
C42_2 C 0.4229(6) 0.8030(3) 0.8009(3)
H23_2 H 0.4637 0.8104 0.8358
C43_2 C 0.4280(5) 0.8526(3) 0.7371(2)
H24_2 H 0.4749 0.8922 0.7303
C44_2 C 0.3014(4) 0.7880(2) 0.6951(3)
C45_2 C 0.6461(4) 0.3650(2) 0.5189(2)
H25_2 H 0.6495 0.4022 0.4798
C46_2 C 0.5879(5) 0.3039(3) 0.5180(3)
H26_2 H 0.5497 0.3018 0.4803
C47_2 C 0.5887(6) 0.2481(3) 0.5730(3)
H27_2 H 0.5546 0.2061 0.5724
C48_2 C 0.6396(5) 0.2534(2) 0.6298(3)
C49_2 C 0.6896(4) 0.31857(19) 0.6287(2)
C50_2 C 0.6457(8) 0.1984(3) 0.6922(5)
H28_2 H 0.6187 0.1540 0.6931
C51_2 C 0.6868(9) 0.2068(3) 0.7477(4)
H29_2 H 0.6876 0.1692 0.7863
C52_2 C 0.7298(6) 0.2730(3) 0.7493(3)
C53_2 C 0.7669(8) 0.2863(4) 0.8065(3)
H30_2 H 0.7654 0.2507 0.8468
C54_2 C 0.8063(7) 0.3511(4) 0.8055(3)
H31_2 H 0.8295 0.3606 0.8451
C55_2 C 0.8112(5) 0.4040(3) 0.7431(2)
H32_2 H 0.8376 0.4484 0.7424
C56_2 C 0.7361(4) 0.3286(2) 0.6889(2)
O20 O 0.5178(2) 0.97891(14) 0.62610(13)
O13_2 O 0.8406(2) 0.45763(13) 0.98797(15)
N5_2 N 0.8766(3) 0.68900(16) 0.85502(15)
N6_2 N 0.7170(3) 0.58518(16) 0.86854(15)
C27_2 C 0.5494(3) 0.32508(19) 0.99708(17)
C28_2 C 0.5887(4) 0.2539(2) 0.9952(2)
H14_2 H 0.5270 0.2245 0.9924
C29_2 C 0.7215(4) 0.2254(2) 0.9976(2)
H15_2 H 0.7486 0.1770 0.9962
C32_2 C 0.4073(3) 0.3580(2) 0.99571(18)
C57_2 C 0.9466(4) 0.7436(2) 0.8500(2)
H33_2 H 0.9936 0.7423 0.8853
C58_2 C 0.9526(5) 0.8026(2) 0.7943(3)
C59_2 C 0.8830(5) 0.8060(3) 0.7425(3)
H35_2 H 0.8852 0.8455 0.7055
C60_2 C 0.8084(4) 0.7502(2) 0.7449(2)
C61_2 C 0.8059(3) 0.6927(2) 0.80359(18)
C62_2 C 0.7322(5) 0.7492(3) 0.6924(2)
H36_2 H 0.7388 0.7850 0.6521
C63_2 C 0.6525(5) 0.6982(3) 0.7004(2)
H37_2 H 0.6026 0.6998 0.6663
C64_2 C 0.6427(4) 0.6408(2) 0.76075(19)
C65_2 C 0.5501(4) 0.5906(2) 0.7748(2)
H38_2 H 0.4934 0.5929 0.7438
C66_2 C 0.5435(4) 0.5393(3) 0.8330(2)
H39_2 H 0.4814 0.5061 0.8433
C67_2 C 0.6314(4) 0.5366(2) 0.8778(2)
H40_2 H 0.6304 0.4989 0.9164
C68_2 C 0.7220(4) 0.6372(2) 0.81048(18)
C2_2 C 0.8565(3) 0.00083(17) 0.61897(18)
H1_2 H 0.8842 0.0035 0.5704
C3_2 C 0.7200(3) 0.00390(17) 0.64973(17)
C4_2 C 0.6807(3) 0.0004(2) 0.72181(19)
H2_2 H 0.5901 0.0003 0.7430
C8_2 C 0.6191(3) 0.01349(18) 0.60281(17)
C1_2 C 0.9511(3) 0.99386(17) 0.66059(17)
C5_2 C 0.7742(4) 0.9969(2) 0.76274(19)
H3_2 H 0.7460 0.9966 0.8109
C6_2 C 0.9095(3) 0.9940(2) 0.73246(19)
H4_2 H 0.9724 0.9921 0.7601
loop_
_geom_bond_atom_site_label_1
_geom_bond_atom_site_label_2
_geom_bond_site_symmetry_1
_geom_bond_site_symmetry_2
H3 C5 1_555 1_555
C6 C1 1_555 1_555
H4 C6 1_555 1_555
Dy4 O3 1_555 1_555
C5 C6 1_555 1_555
O4 C8 1_555 1_555
C2 H1 1_555 1_555
C3 C2 1_555 1_555
C4 C3 1_555 1_555
H2 C4 1_555 1_555
C8 C3 1_555 1_555
Dy5 O4 1_555 1_555
O13 Dy3 1_555 1_555
O16 C32 1_555 1_555
N5 Dy3 1_555 1_555
N6 Dy3 1_555 1_555
C28 C27 1_555 1_555
H14 C28 1_555 1_555
C29 C28 1_555 1_555
H15 C29 1_555 1_555
C32 C27 1_555 1_555
C57 N5 1_555 1_555
H33 C57 1_555 1_555
C58 C57 1_555 1_555
C59 C58 1_555 1_555
H35 C59 1_555 1_555
C60 C59 1_555 1_555
C61 N5 1_555 1_555
C62 C60 1_555 1_555
H36 C62 1_555 1_555
C63 C62 1_555 1_555
H37 C63 1_555 1_555
C64 C63 1_555 1_555
C65 C64 1_555 1_555
H38 C65 1_555 1_555
C66 C65 1_555 1_555
H39 C66 1_555 1_555
C67 N6 1_555 1_555
H40 C67 1_555 1_555
C68 N6 1_555 1_555
O27 Dy3 1_555 1_555
C60 C61 1_555 1_555
C61 C68 1_555 1_555
C64 C68 1_555 1_555
C66 C67 1_555 1_555
Dy4 O1 1_555 1_555
Dy2 O7 1_555 1_555
O1 C7 1_555 1_555
O2 Dy4 1_555 1_555
O5 Dy4 1_555 1_555
O6 Dy4 1_555 1_555
O7 C16 1_555 1_555
O9 Dy2 1_555 1_555
O11 C24 1_555 1_555
O12 C24 1_555 1_555
O14 C31 1_555 1_555
O17 Dy2 1_555 1_555
O18 Dy2 1_555 1_555
O19 N7 1_555 1_555
N1 Dy2 1_555 1_555
N2 Dy2 1_555 1_555
N3 Dy4 1_555 1_555
N4 Dy4 1_555 1_555
N7 O17 1_555 1_555
C7 O2 1_555 1_555
C9 C10 1_555 1_555
C10 H5 1_555 1_555
C11 C10 1_555 1_555
C12 C11 1_555 1_555
C13 C12 1_555 1_555
H7 C13 1_555 1_555
C14 C9 1_555 1_555
H8 C14 1_555 1_555
C15 O5 1_555 1_555
C16 C11 1_555 1_555
C17 C18 1_555 1_555
C18 H9 1_555 1_555
C19 C18 1_555 1_555
C20 C19 1_555 1_555
H10 C20 1_555 1_555
C21 C20 1_555 1_555
H11 C21 1_555 1_555
C22 C17 1_555 1_555
H12 C22 1_555 1_555
C23 O9 1_555 1_555
C24 C19 1_555 1_555
C25 C26 1_555 1_555
C26 H13 1_555 1_555
C30 C25 1_555 1_555
H16 C30 1_555 1_555
C33 N3 1_555 1_555
H17 C33 1_555 1_555
C34 C33 1_555 1_555
H18 C34 1_555 1_555
C35 C34 1_555 1_555
H19 C35 1_555 1_555
C36 C35 1_555 1_555
C37 N3 1_555 1_555
C38 C36 1_555 1_555
H20 C38 1_555 1_555
C39 C38 1_555 1_555
H21 C39 1_555 1_555
C40 C39 1_555 1_555
C41 C40 1_555 1_555
H22 C41 1_555 1_555
C42 C41 1_555 1_555
H23 C42 1_555 1_555
C43 N4 1_555 1_555
H24 C43 1_555 1_555
C44 N4 1_555 1_555
C45 N2 1_555 1_555
H25 C45 1_555 1_555
C46 C45 1_555 1_555
H26 C46 1_555 1_555
C47 C46 1_555 1_555
H27 C47 1_555 1_555
C48 C47 1_555 1_555
C49 N2 1_555 1_555
C50 C48 1_555 1_555
H28 C50 1_555 1_555
C51 C50 1_555 1_555
H29 C51 1_555 1_555
C52 C51 1_555 1_555
C53 C52 1_555 1_555
H30 C53 1_555 1_555
C54 C53 1_555 1_555
H31 C54 1_555 1_555
C55 N1 1_555 1_555
H32 C55 1_555 1_555
C56 N1 1_555 1_555
Dy9 O15 1_555 1_555
O21 Dy4 1_555 1_555
O23 Dy2 1_555 1_555
O24 Dy2 1_555 1_555
O6 C15 1_555 1_555
O18 N7 1_555 1_555
C9 C15 1_555 1_555
C13 C14 1_555 1_555
C17 C23 1_555 1_555
C21 C22 1_555 1_555
C25 C31 1_555 1_555
C36 C37 1_555 1_555
C37 C44 1_555 1_555
C40 C44 1_555 1_555
C42 C43 1_555 1_555
C48 C49 1_555 1_555
C49 C56 1_555 1_555
C52 C56 1_555 1_555
C54 C55 1_555 1_555
Dy5 O22 1_555 1_555
Dy7 O8 1_555 1_555
O10 Dy7 1_555 1_555
Dy5 O1_2 1_555 1_555
Dy7 O7_2 1_555 1_555
O1_2 C7_2 1_555 1_555
O2_2 Dy5 1_555 1_555
O5_2 Dy5 1_555 1_555
O7_2 C16_2 1_555 1_555
O9_2 Dy7 1_555 1_555
O11_2 C24_2 1_555 1_555
O25 C24_2 1_555 1_555
O26 C31_2 1_555 1_555
O17_2 Dy7 1_555 1_555
O18_2 Dy7 1_555 1_555
O19_2 N7_2 1_555 1_555
N1_2 Dy7 1_555 1_555
N2_2 Dy7 1_555 1_555
N3_2 Dy5 1_555 1_555
N4_2 Dy5 1_555 1_555
N7_2 O17_2 1_555 1_555
C7_2 O2_2 1_555 1_555
C9_2 C10_2 1_555 1_555
C10_2 H5_2 1_555 1_555
C11_2 C10_2 1_555 1_555
C12_2 C11_2 1_555 1_555
C13_2 C12_2 1_555 1_555
H7_2 C13_2 1_555 1_555
C14_2 C9_2 1_555 1_555
H8_2 C14_2 1_555 1_555
C15_2 O5_2 1_555 1_555
C16_2 C11_2 1_555 1_555
C17_2 C18_2 1_555 1_555
C18_2 H9_2 1_555 1_555
C19_2 C18_2 1_555 1_555
C20_2 C19_2 1_555 1_555
H10_2 C20_2 1_555 1_555
C21_2 C20_2 1_555 1_555
H11_2 C21_2 1_555 1_555
C22_2 C17_2 1_555 1_555
H12_2 C22_2 1_555 1_555
C23_2 O9_2 1_555 1_555
C24_2 C19_2 1_555 1_555
C25_2 C26_2 1_555 1_555
C26_2 H13_2 1_555 1_555
C30_2 C25_2 1_555 1_555
H16_2 C30_2 1_555 1_555
C33_2 N3_2 1_555 1_555
H17_2 C33_2 1_555 1_555
C34_2 C33_2 1_555 1_555
H18_2 C34_2 1_555 1_555
C35_2 C34_2 1_555 1_555
H19_2 C35_2 1_555 1_555
C36_2 C35_2 1_555 1_555
C37_2 N3_2 1_555 1_555
C38_2 C36_2 1_555 1_555
H20_2 C38_2 1_555 1_555
C39_2 C38_2 1_555 1_555
H21_2 C39_2 1_555 1_555
C40_2 C39_2 1_555 1_555
C41_2 C40_2 1_555 1_555
H22_2 C41_2 1_555 1_555
C42_2 C41_2 1_555 1_555
H23_2 C42_2 1_555 1_555
C43_2 N4_2 1_555 1_555
H24_2 C43_2 1_555 1_555
C44_2 N4_2 1_555 1_555
C45_2 N2_2 1_555 1_555
H25_2 C45_2 1_555 1_555
C46_2 C45_2 1_555 1_555
H26_2 C46_2 1_555 1_555
C47_2 C46_2 1_555 1_555
H27_2 C47_2 1_555 1_555
C48_2 C47_2 1_555 1_555
C49_2 N2_2 1_555 1_555
C50_2 C48_2 1_555 1_555
H28_2 C50_2 1_555 1_555
C51_2 C50_2 1_555 1_555
H29_2 C51_2 1_555 1_555
C52_2 C51_2 1_555 1_555
C53_2 C52_2 1_555 1_555
H30_2 C53_2 1_555 1_555
C54_2 C53_2 1_555 1_555
H31_2 C54_2 1_555 1_555
C55_2 N1_2 1_555 1_555
H32_2 C55_2 1_555 1_555
C56_2 N1_2 1_555 1_555
O20 Dy5 1_555 1_555
O22 C15_2 1_555 1_555
O18_2 N7_2 1_555 1_555
C9_2 C15_2 1_555 1_555
C13_2 C14_2 1_555 1_555
C17_2 C23_2 1_555 1_555
C21_2 C22_2 1_555 1_555
C25_2 C31_2 1_555 1_555
C36_2 C37_2 1_555 1_555
C37_2 C44_2 1_555 1_555
C40_2 C44_2 1_555 1_555
C42_2 C43_2 1_555 1_555
C48_2 C49_2 1_555 1_555
C49_2 C56_2 1_555 1_555
C52_2 C56_2 1_555 1_555
C54_2 C55_2 1_555 1_555
O13_2 Dy9 1_555 1_555
O28 C32_2 1_555 1_555
N5_2 Dy9 1_555 1_555
N6_2 Dy9 1_555 1_555
C28_2 C27_2 1_555 1_555
H14_2 C28_2 1_555 1_555
C29_2 C28_2 1_555 1_555
H15_2 C29_2 1_555 1_555
C32_2 C27_2 1_555 1_555
C57_2 N5_2 1_555 1_555
H33_2 C57_2 1_555 1_555
C58_2 C57_2 1_555 1_555
C59_2 C58_2 1_555 1_555
H35_2 C59_2 1_555 1_555
C60_2 C59_2 1_555 1_555
C61_2 N5_2 1_555 1_555
C62_2 C60_2 1_555 1_555
H36_2 C62_2 1_555 1_555
C63_2 C62_2 1_555 1_555
H37_2 C63_2 1_555 1_555
C64_2 C63_2 1_555 1_555
C65_2 C64_2 1_555 1_555
H38_2 C65_2 1_555 1_555
C66_2 C65_2 1_555 1_555
H39_2 C66_2 1_555 1_555
C67_2 N6_2 1_555 1_555
H40_2 C67_2 1_555 1_555
C68_2 N6_2 1_555 1_555
C60_2 C61_2 1_555 1_555
C61_2 C68_2 1_555 1_555
C64_2 C68_2 1_555 1_555
C66_2 C67_2 1_555 1_555
O21 C8_2 1_555 1_555
C2_2 H1_2 1_555 1_555
C3_2 C2_2 1_555 1_555
C4_2 C3_2 1_555 1_555
H2_2 C4_2 1_555 1_555
C8_2 C3_2 1_555 1_555
H3_2 C5_2 1_555 1_555
C6_2 C1_2 1_555 1_555
H4_2 C6_2 1_555 1_555
C5_2 C6_2 1_555 1_555

#END
