
###############################################################################
#
# This file contains modified crystal structure data generated from the
# MOF subset of the Cambridge Structural Database (CSD) v543 
# hosted by the Cambridge Crystallographic Data Centre (CCDC).
#
# This work is licensed under the Creative Commons
# Attribution-NonCommercial-ShareAlike 4.0 International License.
# To view a copy of this license, visit
# http://creativecommons.org/licenses/by-nc-sa/4.0/
# or send a letter to
# Creative Commons, PO Box 1866, Mountain View, CA 94042, USA.
#
# CIF created using the CSD Python API on 29 September 2022
# The structure has been converted into the P1 space group
# The structure has a 3D framework
# The original CSD entry CEJCAW is in the triclinic crystal system
# The framework has been calculated to contain at least 10.0% void space
# The void calculation uses a probe of radius 1.32A, grid spacing 0.4
# The framework is charged, counterions have been retained in the structure
# H atom positions have been added when not included in the experimental data
# Generated hydrogen atom positions removed from atoms on special positions
#
###############################################################################

data_CEJCAW
_chemical_formula_moiety         '(C66 H74 Cu7 N6 O34 3+)n'
_symmetry_cell_setting           triclinic
_symmetry_space_group_name_H-M   'P 1'
_symmetry_Int_Tables_number      1
_space_group_name_Hall           'P 1'
loop_
_symmetry_equiv_pos_site_id
_symmetry_equiv_pos_as_xyz
1 x,y,z
_cell_length_a                   11.1556(18)
_cell_length_b                   13.043(2)
_cell_length_c                   14.135(2)
_cell_angle_alpha                89.759(18)
_cell_angle_beta                 87.182(18)
_cell_angle_gamma                85.006(14)
_cell_volume                     2046.39
loop_
_atom_site_label
_atom_site_type_symbol
_atom_site_fract_x
_atom_site_fract_y
_atom_site_fract_z
Cu4 Cu 0.40556(10) 0.06789(8) 0.00066(7)
O27 O 0.4970(6) 0.1446(5) 0.0886(5)
C55 C 0.0929(9) 0.2823(9) 0.0736(9)
H27 H 0.0632 0.3156 0.1291
C56 C 0.2032(9) 0.2216(9) 0.0722(8)
H28 H 0.2447 0.2145 0.1276
O19 O 0.4989(7) 0.1283(5) 0.8964(5)
N4 N 0.2493(7) 0.1748(6) 0.9963(6)
C52 C 0.1941(11) 0.1903(10) 0.9167(9)
H25 H 0.2302 0.1608 0.8615
C53 C 0.0842(10) 0.2488(10) 0.9113(8)
H26 H 0.0488 0.2583 0.8534
C54 C 0.0282(10) 0.2925(9) 0.9922(8)
O17 O 0.3445(7) 0.9890(5) 0.1067(5)
O29 O 0.3450(6) 0.9700(5) 0.9112(6)
Cu11 Cu 0.40153(12) 0.45028(8) 0.50107(8)
Cu12 Cu 0.59847(12) 0.54972(8) 0.49893(8)
C38 C 0.6600(9) 0.1758(7) 0.1810(7)
C39 C 0.5959(9) 0.2496(6) 0.2417(6)
C40 C 0.6610(10) 0.3089(7) 0.2994(7)
C41 C 0.7833(10) 0.2981(8) 0.2952(8)
H18 H 0.8242 0.3399 0.3332
C42 C 0.8491(10) 0.2272(9) 0.2366(8)
H19 H 0.9329 0.2204 0.2354
C43 C 0.7860(9) 0.1658(8) 0.1790(8)
H20 H 0.8284 0.1177 0.1388
C44 C 0.5989(10) 0.1126(7) 0.1150(7)
C45 C 0.4598(9) 0.2549(7) 0.2476(6)
C46 C 0.5980(10) 0.3849(7) 0.3701(7)
O28 O 0.6550(6) 0.0300(5) 0.0888(6)
O30 O 0.4114(6) 0.1853(5) 0.2908(5)
O31 O 0.4039(6) 0.3320(5) 0.2096(5)
O32 O 0.4964(7) 0.3709(5) 0.3993(5)
O35 O 0.6590(7) 0.4564(5) 0.3956(5)
C1 C 0.6582(9) 0.1497(8) 0.7838(7)
C2 C 0.5936(9) 0.2277(7) 0.7348(6)
C3 C 0.6582(10) 0.2856(8) 0.6690(7)
C4 C 0.7799(11) 0.2637(8) 0.6505(8)
H1 H 0.8203 0.3030 0.6064
C5 C 0.8429(11) 0.1839(9) 0.6965(9)
H2 H 0.9254 0.1697 0.6845
C6 C 0.7791(10) 0.1247(9) 0.7621(8)
H3 H 0.8190 0.0682 0.7910
C7 C 0.5985(9) 0.0895(7) 0.8628(7)
C8 C 0.4617(10) 0.2477(7) 0.7505(6)
C9 C 0.5950(11) 0.3698(8) 0.6122(7)
O1 O 0.6555(7) 0.0110(5) 0.8933(5)
O3 O 0.4163(7) 0.3262(5) 0.7939(5)
O4 O 0.3970(6) 0.1839(5) 0.7122(5)
O5 O 0.6547(7) 0.4437(6) 0.5896(5)
O6 O 0.4880(7) 0.3608(5) 0.5924(5)
O15 O 0.7503(8) 0.6402(7) 0.5061(6)
O24 O 0.5120(7) 0.6392(5) 0.4076(5)
O33 O 0.5036(7) 0.6291(5) 0.6007(5)
N2 N 0.7507(7) 0.8252(6) 0.0037(6)
C24 C 0.8059(11) 0.8097(10) 0.0833(9)
H11 H 0.7698 0.8392 0.1385
C25 C 0.9158(10) 0.7512(10) 0.0887(8)
H12 H 0.9512 0.7417 0.1466
C26 C 0.9718(10) 0.7075(9) 0.0078(8)
C29 C 0.3418(9) 0.8503(8) 0.2162(7)
C30 C 0.4064(9) 0.7723(7) 0.2652(6)
C31 C 0.3418(10) 0.7144(8) 0.3310(7)
C32 C 0.2201(11) 0.7363(8) 0.3495(8)
H15 H 0.1797 0.6970 0.3936
C33 C 0.1571(11) 0.8161(9) 0.3035(9)
H16 H 0.0746 0.8303 0.3155
C34 C 0.2209(10) 0.8753(9) 0.2379(8)
H17 H 0.1810 0.9318 0.2090
C35 C 0.4015(9) 0.9105(7) 0.1372(7)
C36 C 0.5383(10) 0.7523(7) 0.2495(6)
C37 C 0.4050(11) 0.6302(8) 0.3878(7)
O18 O 0.5011(7) 0.8717(5) 0.1036(5)
O20 O 0.5837(7) 0.6738(5) 0.2061(5)
O21 O 0.6030(6) 0.8161(5) 0.2878(5)
O22 O 0.3453(7) 0.5563(6) 0.4104(5)
O37 O 0.3410(7) 0.5436(5) 0.6044(5)
O40 O 0.2497(8) 0.3598(7) 0.4939(6)
Cu1 Cu 0.59444(10) 0.93211(8) 0.99934(7)
C10 C 0.3400(9) 0.8242(7) 0.8190(7)
C11 C 0.4041(9) 0.7504(6) 0.7583(6)
C12 C 0.3390(10) 0.6911(7) 0.7006(7)
C13 C 0.2167(10) 0.7019(8) 0.7048(8)
H4 H 0.1758 0.6601 0.6668
C14 C 0.1509(10) 0.7728(9) 0.7634(8)
H5 H 0.0671 0.7796 0.7646
C15 C 0.2140(9) 0.8342(8) 0.8210(8)
H6 H 0.1716 0.8823 0.8612
C16 C 0.4011(10) 0.8874(7) 0.8850(7)
C17 C 0.5402(9) 0.7451(7) 0.7524(6)
C18 C 0.4020(10) 0.6151(7) 0.6299(7)
O7 O 0.5030(6) 0.8554(5) 0.9114(5)
O9 O 0.5886(6) 0.8147(5) 0.7092(5)
O10 O 0.5961(6) 0.6680(5) 0.7904(5)
C27 C 0.9071(9) 0.7177(9) 0.9264(9)
H13 H 0.9368 0.6844 0.8709
C28 C 0.7968(9) 0.7784(9) 0.9278(8)
H14 H 0.7553 0.7855 0.8724
Cu2 Cu 0.5000 0.5000 -0.0000
N1 N 0.3278(8) 0.5608(7) 0.0021(7)
C19 C 0.2932(11) 0.6407(10) 0.0572(10)
H7 H 0.3499 0.6659 0.0951
C20 C 0.1776(10) 0.6889(10) 0.0617(10)
H8 H 0.1577 0.7444 0.1023
C21 C 0.0923(9) 0.6539(9) 0.0054(8)
O14 O 0.4968(7) 0.4994(6) 0.1455(5)
C50 C 0.8701(10) 0.4299(9) 0.0510(10)
H23 H 0.9234 0.4573 0.0904
C51 C 0.7533(10) 0.4725(9) 0.0485(9)
H24 H 0.7312 0.5299 0.0864
O38 O 0.5644(7) 0.6559(5) 0.0037(6)
Cu2_2 Cu 0.5000 0.5000 1.0000
C22 C 0.1299(10) 0.5701(9) 0.9490(10)
H9 H 0.0766 0.5427 0.9096
C23 C 0.2467(10) 0.5275(9) 0.9515(9)
H10 H 0.2688 0.4701 0.9136
O13 O 0.4356(7) 0.3441(5) 0.9963(6)
N3 N 0.6722(8) 0.4392(7) 0.9979(7)
C47 C 0.7068(11) 0.3593(10) 0.9428(10)
H21 H 0.6501 0.3341 0.9049
C48 C 0.8224(10) 0.3111(10) 0.9383(10)
H22 H 0.8423 0.2556 0.8977
C49 C 0.9077(9) 0.3461(9) 0.9946(8)
O39 O 0.5032(7) 0.5006(6) 0.8545(5)
Cu14 Cu 0.5000 0.0000 0.5000
C62 C 0.2539(10) 0.0588(10) 0.4434(9)
H33 H 0.2926 0.1027 0.4024
C63 C 0.1306(9) 0.0632(10) 0.4413(9)
H34 H 0.0901 0.1094 0.4011
N5 N 0.6765(8) 0.0015(6) 0.5024(5)
C59 C 0.9337(9) 0.0013(8) 0.5007(7)
C60 C 0.8624(10) 0.0691(12) 0.4476(10)
H31 H 0.8981 0.1175 0.4098
C61 C 0.7387(10) 0.0661(11) 0.4498(10)
H32 H 0.6953 0.1126 0.4117
O42 O 0.5155(6) 0.0020(5) 0.3546(5)
O43 O 0.4764(7) 0.1695(5) 0.4964(6)
H37 H 0.516696 0.0604162 0.670739
H44 H 0.434354 0.00162763 0.32877
H38 H 0.601641 0.00301689 0.333573
H43 H 0.433053 0.0597216 0.668338
Cu14_2 Cu 0.5000 1.0000 0.5000
N6 N 0.3235(8) 0.9985(6) 0.4976(5)
C64 C 0.0663(9) 0.9987(8) 0.4993(7)
C65 C 0.1376(10) 0.9309(12) 0.5524(10)
H35 H 0.1019 0.8825 0.5902
C66 C 0.2613(10) 0.9339(11) 0.5502(10)
H36 H 0.3047 0.8874 0.5883
C57 C 0.7461(10) 0.9412(10) 0.5566(9)
H29 H 0.7074 0.8973 0.5976
C58 C 0.8694(9) 0.9368(10) 0.5587(9)
H30 H 0.9099 0.8906 0.5989
O41 O 0.5236(7) 0.8305(5) 0.5036(6)
O44 O 0.4845(6) 0.9980(5) 0.6454(5)
H38_2 H 0.398359 0.996983 0.666427
H43_2 H 0.566947 0.940278 0.331662
H37_2 H 0.483304 0.939584 0.329261
H44_2 H 0.565646 0.998372 0.67123
loop_
_geom_bond_atom_site_label_1
_geom_bond_atom_site_label_2
_geom_bond_site_symmetry_1
_geom_bond_site_symmetry_2
O27 Cu4 1_555 1_555
H27 C55 1_555 1_555
H28 C56 1_555 1_555
C55 C56 1_555 1_555
C52 N4 1_555 1_555
H25 C52 1_555 1_555
C53 C52 1_555 1_555
H26 C53 1_555 1_555
C53 C54 1_555 1_555
Cu11 O32 1_555 1_555
Cu12 O35 1_555 1_555
C38 C39 1_555 1_555
C39 C40 1_555 1_555
C40 C41 1_555 1_555
C41 H18 1_555 1_555
C42 C41 1_555 1_555
H19 C42 1_555 1_555
C43 C38 1_555 1_555
H20 C43 1_555 1_555
C44 C38 1_555 1_555
C45 C39 1_555 1_555
C46 C40 1_555 1_555
O30 C45 1_555 1_555
O31 C45 1_555 1_555
O32 C46 1_555 1_555
O35 C46 1_555 1_555
C42 C43 1_555 1_555
C44 O27 1_555 1_555
C44 O28 1_555 1_555
Cu12 O5 1_555 1_555
C1 C2 1_555 1_555
C2 C3 1_555 1_555
C3 C4 1_555 1_555
C4 H1 1_555 1_555
C5 C4 1_555 1_555
H2 C5 1_555 1_555
C6 C1 1_555 1_555
H3 C6 1_555 1_555
C7 C1 1_555 1_555
C8 C2 1_555 1_555
C9 C3 1_555 1_555
O1 C7 1_555 1_555
O19 C7 1_555 1_555
O3 C8 1_555 1_555
O4 C8 1_555 1_555
O5 C9 1_555 1_555
O6 C9 1_555 1_555
O15 Cu12 1_555 1_555
Cu11 O6 1_555 1_555
O24 Cu12 1_555 1_555
O33 Cu12 1_555 1_555
C5 C6 1_555 1_555
C24 N2 1_555 1_555
H11 C24 1_555 1_555
C25 C24 1_555 1_555
H12 C25 1_555 1_555
Cu11 O22 1_555 1_555
C29 C30 1_555 1_555
C30 C31 1_555 1_555
C31 C32 1_555 1_555
C32 H15 1_555 1_555
C33 C32 1_555 1_555
H16 C33 1_555 1_555
C34 C29 1_555 1_555
H17 C34 1_555 1_555
C35 C29 1_555 1_555
C36 C30 1_555 1_555
C37 C31 1_555 1_555
O20 C36 1_555 1_555
O21 C36 1_555 1_555
O22 C37 1_555 1_555
O24 C37 1_555 1_555
O37 Cu11 1_555 1_555
O40 Cu11 1_555 1_555
C25 C26 1_555 1_555
C33 C34 1_555 1_555
C35 O17 1_555 1_555
C35 O18 1_555 1_555
C10 C11 1_555 1_555
C11 C12 1_555 1_555
C12 C13 1_555 1_555
C13 H4 1_555 1_555
C14 C13 1_555 1_555
H5 C14 1_555 1_555
C15 C10 1_555 1_555
H6 C15 1_555 1_555
C16 C10 1_555 1_555
C17 C11 1_555 1_555
C18 C12 1_555 1_555
O7 Cu1 1_555 1_555
O29 C16 1_555 1_555
O9 C17 1_555 1_555
O10 C17 1_555 1_555
O33 C18 1_555 1_555
O37 C18 1_555 1_555
H13 C27 1_555 1_555
H14 C28 1_555 1_555
C14 C15 1_555 1_555
C16 O7 1_555 1_555
C27 C28 1_555 1_555
Cu2 N1 1_555 1_555
N1 C19 1_555 1_555
C19 H7 1_555 1_555
C20 C19 1_555 1_555
H8 C20 1_555 1_555
C21 C20 1_555 1_555
O14 Cu2 1_555 1_555
H23 C50 1_555 1_555
H24 C51 1_555 1_555
O38 Cu2 1_555 1_555
C50 C51 1_555 1_555
H9 C22 1_555 1_555
H10 C23 1_555 1_555
O13 Cu2_2 1_555 1_555
N3 Cu2_2 1_555 1_555
C47 N3 1_555 1_555
H21 C47 1_555 1_555
C48 C47 1_555 1_555
H22 C48 1_555 1_555
C49 C48 1_555 1_555
O39 Cu2_2 1_555 1_555
C22 C23 1_555 1_555
C62 H33 1_555 1_555
C63 C62 1_555 1_555
H34 C63 1_555 1_555
Cu14 N5 1_555 1_555
C60 C59 1_555 1_555
H31 C60 1_555 1_555
C61 N5 1_555 1_555
H32 C61 1_555 1_555
O42 Cu14 1_555 1_555
O43 Cu14 1_555 1_555
C60 C61 1_555 1_555
O42 H44 1_555 1_555
O42 H38 1_555 1_555
Cu14_2 N6 1_555 1_555
C65 C64 1_555 1_555
H35 C65 1_555 1_555
C66 N6 1_555 1_555
H36 C66 1_555 1_555
C65 C66 1_555 1_555
C57 H29 1_555 1_555
C58 C57 1_555 1_555
H30 C58 1_555 1_555
O41 Cu14_2 1_555 1_555
O44 Cu14_2 1_555 1_555
O44 H38_2 1_555 1_555
O44 H44_2 1_555 1_555

#END
