
###############################################################################
#
# This file contains modified crystal structure data generated from the
# MOF subset of the Cambridge Structural Database (CSD) v543 
# hosted by the Cambridge Crystallographic Data Centre (CCDC).
#
# This work is licensed under the Creative Commons
# Attribution-NonCommercial-ShareAlike 4.0 International License.
# To view a copy of this license, visit
# http://creativecommons.org/licenses/by-nc-sa/4.0/
# or send a letter to
# Creative Commons, PO Box 1866, Mountain View, CA 94042, USA.
#
# CIF created using the CSD Python API on 29 September 2022
# The structure has been converted into the P1 space group
# The structure has a 3D framework
# The original CSD entry CEJZAU is in the monoclinic crystal system
# The framework has been calculated to contain at least 10.0% void space
# The void calculation uses a probe of radius 1.32A, grid spacing 0.4
#
###############################################################################

data_CEJZAU
_chemical_formula_moiety         '(C424 H272 Co29 N32 O73)n'
_symmetry_cell_setting           triclinic
_symmetry_space_group_name_H-M   'P 1'
_symmetry_Int_Tables_number      1
_space_group_name_Hall           'P 1'
loop_
_symmetry_equiv_pos_site_id
_symmetry_equiv_pos_as_xyz
1 x,y,z
_cell_length_a                   27.4499(17)
_cell_length_b                   17.0811(10)
_cell_length_c                   29.4964(18)
_cell_angle_alpha                90
_cell_angle_beta                 108.5660(10)
_cell_angle_gamma                90
_cell_volume                     13110.4
loop_
_atom_site_label
_atom_site_type_symbol
_atom_site_fract_x
_atom_site_fract_y
_atom_site_fract_z
Co7 Co 0.042680(10) 0.832070(16) 0.517000(9)
C1 C 0.61732(9) 0.30089(15) 0.61755(8)
H1 H 0.6314 0.3488 0.6134
C2 C 0.63325(9) 0.26720(15) 0.66231(9)
H2 H 0.6575 0.2922 0.6876
C3 C 0.61295(9) 0.19605(15) 0.66941(8)
C4 C 0.57859(9) 0.16024(14) 0.62976(8)
H3 H 0.5649 0.1114 0.6326
C5 C 0.56496(9) 0.19759(14) 0.58619(8)
H4 H 0.5423 0.1724 0.5599
C6 C 0.62671(9) 0.15717(15) 0.71652(8)
C7 C 0.67727(10) 0.15530(16) 0.74624(9)
H5 H 0.7023 0.1833 0.7380
C8 C 0.69087(9) 0.11183(15) 0.78835(9)
C9 C 0.65372(9) 0.07115(14) 0.80113(8)
H6 H 0.6626 0.0410 0.8288
C10 C 0.60304(9) 0.07600(13) 0.77201(8)
C11 C 0.58931(9) 0.11756(14) 0.73028(8)
H7 H 0.5551 0.1194 0.7111
C12 C 0.74578(9) 0.10948(15) 0.81864(9)
C13 C 0.77153(10) 0.17693(16) 0.83714(10)
H8 H 0.7547 0.2250 0.8311
C14 C 0.82219(10) 0.17308(16) 0.86461(10)
H9 H 0.8388 0.2195 0.8771
C15 C 0.82406(10) 0.04267(16) 0.85567(10)
C16 C 0.77305(11) 0.04112(16) 0.82897(10)
C33 C 0.61493(8) 0.47300(13) 0.52720(7)
C34 C 0.66963(8) 0.49684(13) 0.53477(8)
C35 C 0.68369(9) 0.57446(15) 0.53378(9)
H23 H 0.6586 0.6132 0.5258
C36 C 0.73490(10) 0.59471(16) 0.54456(10)
H24 H 0.7443 0.6469 0.5442
C37 C 0.77141(9) 0.53754(17) 0.55576(10)
C38 C 0.75858(10) 0.46030(17) 0.55668(11)
H25 H 0.7840 0.4220 0.5644
C39 C 0.70765(9) 0.43994(15) 0.54599(10)
H26 H 0.6986 0.3875 0.5463
C40 C 0.84576(9) 0.60795(16) 0.55010(10)
C41 C 0.82397(10) 0.63934(19) 0.50505(10)
H27 H 0.7906 0.6259 0.4871
C42 C 0.85154(9) 0.69038(16) 0.48661(9)
H28 H 0.8363 0.7120 0.4565
C43 C 0.90150(8) 0.70999(13) 0.51219(8)
C44 C 0.92296(9) 0.67713(14) 0.55746(9)
H29 H 0.9567 0.6891 0.5751
C45 C 0.89535(9) 0.62752(16) 0.57659(9)
H30 H 0.9100 0.6073 0.6072
C46 C 0.93255(8) 0.76362(12) 0.49228(7)
C47 C 0.46447(8) 0.55344(13) 0.39689(7)
C48 C 0.47201(9) 0.60290(13) 0.35802(8)
C49 C 0.44726(12) 0.58496(17) 0.31035(9)
H31 H 0.4248 0.5426 0.3027
C50 C 0.45526(15) 0.62828(18) 0.27459(9)
H32 H 0.4374 0.6169 0.2428
C51 C 0.49001(13) 0.68914(15) 0.28581(9)
C52 C 0.51378(12) 0.70970(15) 0.33232(9)
H33 H 0.5359 0.7525 0.3396
C53 C 0.50487(10) 0.66678(14) 0.36837(8)
H34 H 0.5211 0.6808 0.4001
Co1 Co 0.5000 0.5000 0.5000
Co2 Co 0.542680(10) 0.332070(16) 0.517000(9)
Co3 Co 0.571210(11) 0.608830(17) 0.580900(10)
N1 N 0.58259(7) 0.26798(11) 0.57975(6)
N2 N 0.84914(7) 0.10674(11) 0.87445(7)
O1 O 0.56443(6) 0.04017(9) 0.78594(6)
O2 O 0.82387(6) 0.55267(13) 0.57153(8)
O3 O 0.5000 0.73340(15) 0.2500
O4 O 0.60659(5) 0.40116(8) 0.52758(5)
O5 O 0.58137(5) 0.52607(9) 0.52143(5)
O6 O 0.90956(6) 0.79968(9) 0.45428(5)
O7 O 0.97947(5) 0.76870(9) 0.51500(5)
O8 O 0.43796(6) 0.49225(9) 0.38403(5)
O9 O 0.48540(5) 0.57504(8) 0.43981(5)
O10 O 0.50331(5) 0.40343(8) 0.46134(5)
H44 H 0.8421 0.0044 0.3609
H45 H 0.7570 0.0063 0.3179
C70 C 0.56796(9) 0.04039(13) 0.29024(8)
C71 C 0.57036(10) 0.07198(14) 0.33368(8)
H46 H 0.5708 0.0395 0.3591
C72 C 0.57209(10) 0.15280(14) 0.33935(8)
C73 C 0.57103(10) 0.19991(15) 0.30071(8)
H47 H 0.5728 0.2540 0.3045
C74 C 0.56737(10) 0.16790(14) 0.25652(8)
C75 C 0.56628(9) 0.08677(14) 0.25170(8)
H48 H 0.5644 0.0641 0.2225
C76 C 0.57296(10) 0.18770(14) 0.38566(8)
C77 C 0.54623(12) 0.15327(16) 0.41319(10)
H49 H 0.5304 0.1049 0.4045
C78 C 0.54321(12) 0.19081(15) 0.45336(9)
H50 H 0.5243 0.1672 0.4708
C79 C 0.59399(11) 0.28961(16) 0.44347(9)
H51 H 0.6117 0.3359 0.4543
C80 C 0.59826(11) 0.25679(16) 0.40276(9)
H52 H 0.6182 0.2809 0.3865
C81 C 0.56389(10) 0.21919(14) 0.21447(8)
C82 C 0.55082(14) 0.29710(18) 0.21258(10)
H53 H 0.5430 0.3195 0.2382
C83 C 0.54912(14) 0.34253(17) 0.17375(10)
H54 H 0.5409 0.3952 0.1745
C84 C 0.56823(13) 0.23923(16) 0.13601(9)
H55 H 0.5732 0.2173 0.1089
C85 C 0.57147(14) 0.19048(17) 0.17391(9)
H56 H 0.5789 0.1377 0.1720
C86 C 0.38507(8) 0.52700(13) 0.47280(7)
C87 C 0.33037(8) 0.50316(13) 0.46523(8)
C88 C 0.31631(9) 0.42554(15) 0.46622(9)
H57 H 0.3414 0.3868 0.4742
C89 C 0.26510(10) 0.40529(16) 0.45544(10)
H58 H 0.2557 0.3531 0.4558
C90 C 0.22859(9) 0.46246(17) 0.44424(10)
C91 C 0.24142(10) 0.53970(17) 0.44332(11)
H59 H 0.2160 0.5780 0.4356
C92 C 0.29235(9) 0.56006(15) 0.45401(10)
H60 H 0.3014 0.6125 0.4537
C93 C 0.15424(9) 0.39205(16) 0.44990(10)
C94 C 0.17603(10) 0.36066(19) 0.49495(10)
H61 H 0.2094 0.3741 0.5129
C95 C 0.14846(9) 0.30962(16) 0.51339(9)
H62 H 0.1637 0.2880 0.5435
C96 C 0.09850(8) 0.29001(13) 0.48781(8)
C97 C 0.07704(9) 0.32287(14) 0.44254(9)
H63 H 0.0433 0.3109 0.4249
C98 C 0.10465(9) 0.37248(16) 0.42341(9)
H64 H 0.0900 0.3927 0.3928
C99 C 0.06745(8) 0.23638(12) 0.50772(7)
C100 C 0.53553(8) 0.55344(13) 0.10311(7)
C101 C 0.52799(9) 0.60290(13) 0.14198(8)
C102 C 0.55274(12) 0.58496(17) 0.18965(9)
H65 H 0.5752 0.5426 0.1973
C103 C 0.54474(15) 0.62828(18) 0.22541(9)
H66 H 0.5626 0.6169 0.2572
C104 C 0.50999(13) 0.68914(15) 0.21419(9)
C105 C 0.48622(12) 0.70970(15) 0.16768(9)
H67 H 0.4641 0.7525 0.1604
C106 C 0.49513(10) 0.66678(14) 0.13163(8)
H68 H 0.4789 0.6808 0.0999
Co4 Co 0.5000 0.5000 0.0000
Co5 Co 0.457320(10) 0.667930(16) 0.483000(9)
Co8 Co 0.542680(10) 0.667930(16) 0.017000(9)
Co11 Co 0.428790(11) 0.391170(17) 0.419100(10)
Co12 Co 0.928790(11) 0.108830(17) 0.919100(10)
Co14 Co 0.928790(11) 0.891170(17) 0.419100(10)
Co15 Co 0.571210(11) 0.391170(17) 0.080900(10)
Co16 Co 0.071210(11) 0.108830(17) 0.580900(10)
N6 N 0.41741(7) 0.73202(11) 0.42025(6)
N8 N 0.65086(7) 0.60674(11) 0.62555(7)
N9 N 0.34914(7) 0.39326(11) 0.37445(7)
N10 N 0.56584(8) 0.25932(11) 0.46879(7)
N11 N 0.43416(8) 0.74068(11) 0.53121(7)
N12 N 0.55851(8) 0.31589(12) 0.13527(7)
N13 N 0.55851(8) 0.68411(12) 0.63527(7)
N14 N 0.44149(8) 0.31589(12) 0.36473(7)
O12 O 0.17613(6) 0.44733(13) 0.42847(8)
O13 O 0.39341(5) 0.59884(8) 0.47242(5)
O14 O 0.41863(5) 0.47393(9) 0.47857(5)
O15 O 0.09044(6) 0.20032(9) 0.54572(5)
O16 O 0.59044(6) 0.70032(9) 0.54572(5)
O17 O 0.40956(6) 0.29968(9) 0.45428(5)
O18 O 0.02053(5) 0.23130(9) 0.48500(5)
O19 O 0.47947(5) 0.26870(9) 0.51500(5)
O20 O 0.52053(5) 0.73130(9) 0.48500(5)
O21 O 0.56204(6) 0.49225(9) 0.11597(5)
O22 O 0.56204(6) 0.50775(9) 0.61597(5)
O23 O 0.51460(5) 0.57504(8) 0.06019(5)
O24 O 0.51460(5) 0.42496(8) 0.56019(5)
O25 O 0.49669(5) 0.59657(8) 0.53866(5)
Co4_2 Co 0.5000 0.5000 1.0000
H10 H 0.8421 0.9956 0.8609
H11 H 0.7570 0.9937 0.8179
C17 C 0.56796(9) 0.95961(13) 0.79024(8)
C18 C 0.57036(10) 0.92802(14) 0.83368(8)
H12 H 0.5708 0.9605 0.8591
C19 C 0.57209(10) 0.84720(14) 0.83935(8)
C20 C 0.57103(10) 0.80009(15) 0.80071(8)
H13 H 0.5728 0.7460 0.8045
C21 C 0.56737(10) 0.83210(14) 0.75652(8)
C22 C 0.56628(9) 0.91323(14) 0.75170(8)
H14 H 0.5644 0.9359 0.7225
C23 C 0.57296(10) 0.81230(14) 0.88566(8)
C24 C 0.54623(12) 0.84673(16) 0.91319(10)
H15 H 0.5304 0.8951 0.9045
C25 C 0.54321(12) 0.80919(15) 0.95336(9)
H16 H 0.5243 0.8328 0.9708
C26 C 0.59399(11) 0.71039(16) 0.94347(9)
H17 H 0.6117 0.6641 0.9543
C27 C 0.59826(11) 0.74321(16) 0.90276(9)
H18 H 0.6182 0.7191 0.8865
C28 C 0.56389(10) 0.78081(14) 0.71447(8)
C29 C 0.55082(14) 0.70290(18) 0.71258(10)
H19 H 0.5430 0.6805 0.7382
C30 C 0.54912(14) 0.65747(17) 0.67375(10)
H20 H 0.5409 0.6048 0.6745
C31 C 0.56823(13) 0.76077(16) 0.63601(9)
H21 H 0.5732 0.7827 0.6089
C32 C 0.57147(14) 0.80952(17) 0.67391(9)
H22 H 0.5789 0.8623 0.6720
N3 N 0.56584(8) 0.74068(11) 0.96879(7)
C54 C 0.61732(9) 0.69911(15) 0.11755(8)
H35 H 0.6314 0.6512 0.1134
C55 C 0.63325(9) 0.73280(15) 0.16231(9)
H36 H 0.6575 0.7078 0.1876
C56 C 0.61295(9) 0.80395(15) 0.16941(8)
C57 C 0.57859(9) 0.83976(14) 0.12976(8)
H37 H 0.5649 0.8886 0.1326
C58 C 0.56496(9) 0.80241(14) 0.08619(8)
H38 H 0.5423 0.8276 0.0599
C59 C 0.62671(9) 0.84283(15) 0.21652(8)
C60 C 0.67727(10) 0.84470(16) 0.24624(9)
H39 H 0.7023 0.8167 0.2380
C61 C 0.69087(9) 0.88817(15) 0.28835(9)
C62 C 0.65372(9) 0.92885(14) 0.30113(8)
H40 H 0.6626 0.9590 0.3288
C63 C 0.60304(9) 0.92400(13) 0.27201(8)
C64 C 0.58931(9) 0.88244(14) 0.23028(8)
H41 H 0.5551 0.8806 0.2111
C65 C 0.74578(9) 0.89052(15) 0.31864(9)
C66 C 0.77153(10) 0.82307(16) 0.33714(10)
H42 H 0.7547 0.7750 0.3311
C67 C 0.82219(10) 0.82692(16) 0.36461(10)
H43 H 0.8388 0.7805 0.3771
C68 C 0.82406(10) 0.95733(16) 0.35567(10)
C69 C 0.77305(11) 0.95888(16) 0.32897(10)
N5 N 0.58259(7) 0.73202(11) 0.07975(6)
N7 N 0.84914(7) 0.89326(11) 0.37445(7)
O11 O 0.56443(6) 0.95983(9) 0.28594(6)
Co9 Co 0.957320(10) 0.167930(16) 0.483000(9)
Co9_2 Co 0.042680(10) 0.167930(16) 0.017000(9)
H27_2 H 0.2094 0.6259 0.0129
C42_2 C 0.14846(9) 0.69038(16) 0.01339(9)
H28_2 H 0.1637 0.7120 0.0435
C46_2 C 0.06745(8) 0.76362(12) 0.00772(7)
O6_2 O 0.09044(6) 0.79968(9) 0.04572(5)
O10_2 O 0.49669(5) 0.40343(8) 0.03866(5)
H44_2 H 0.1579 0.0044 0.1391
H45_2 H 0.2430 0.0063 0.1821
C70_2 C 0.43204(9) 0.04039(13) 0.20976(8)
C71_2 C 0.42964(10) 0.07198(14) 0.16632(8)
H46_2 H 0.4292 0.0395 0.1409
C72_2 C 0.42791(10) 0.15280(14) 0.16065(8)
C73_2 C 0.42897(10) 0.19991(15) 0.19929(8)
H47_2 H 0.4272 0.2540 0.1955
C74_2 C 0.43263(10) 0.16790(14) 0.24348(8)
C75_2 C 0.43372(9) 0.08677(14) 0.24830(8)
H48_2 H 0.4356 0.0641 0.2775
C76_2 C 0.42704(10) 0.18770(14) 0.11434(8)
C77_2 C 0.45377(12) 0.15327(16) 0.08681(10)
H49_2 H 0.4696 0.1049 0.0955
C78_2 C 0.45679(12) 0.19081(15) 0.04664(9)
H50_2 H 0.4757 0.1672 0.0292
C79_2 C 0.40601(11) 0.28961(16) 0.05653(9)
H51_2 H 0.3883 0.3359 0.0457
C80_2 C 0.40174(11) 0.25679(16) 0.09724(9)
H52_2 H 0.3818 0.2809 0.1135
C81_2 C 0.43611(10) 0.21919(14) 0.28553(8)
C82_2 C 0.44918(14) 0.29710(18) 0.28742(10)
H53_2 H 0.4570 0.3195 0.2618
C83_2 C 0.45088(14) 0.34253(17) 0.32625(10)
H54_2 H 0.4591 0.3952 0.3255
C84_2 C 0.43177(13) 0.23923(16) 0.36399(9)
H55_2 H 0.4268 0.2173 0.3911
C85_2 C 0.42853(14) 0.19048(17) 0.32609(9)
H56_2 H 0.4211 0.1377 0.3280
C86_2 C 0.61493(8) 0.52700(13) 0.02720(7)
C87_2 C 0.66963(8) 0.50316(13) 0.03477(8)
C88_2 C 0.68369(9) 0.42554(15) 0.03378(9)
H57_2 H 0.6586 0.3868 0.0258
C89_2 C 0.73490(10) 0.40529(16) 0.04456(10)
H58_2 H 0.7443 0.3531 0.0442
C90_2 C 0.77141(9) 0.46246(17) 0.05576(10)
C91_2 C 0.75858(10) 0.53970(17) 0.05668(11)
H59_2 H 0.7840 0.5780 0.0644
C92_2 C 0.70765(9) 0.56006(15) 0.04599(10)
H60_2 H 0.6986 0.6125 0.0463
C93_2 C 0.84576(9) 0.39205(16) 0.05010(10)
C94_2 C 0.82397(10) 0.36066(19) 0.00505(10)
C96_2 C 0.90150(8) 0.29001(13) 0.01219(8)
C97_2 C 0.92296(9) 0.32287(14) 0.05746(9)
H63_2 H 0.9567 0.3109 0.0751
C98_2 C 0.89535(9) 0.37248(16) 0.07659(9)
H64_2 H 0.9100 0.3927 0.1072
Co14_2 Co 0.071210(11) 0.891170(17) 0.080900(10)
N9_2 N 0.65086(7) 0.39326(11) 0.12555(7)
N10_2 N 0.43416(8) 0.25932(11) 0.03121(7)
O12_2 O 0.82387(6) 0.44733(13) 0.07153(8)
O13_2 O 0.60659(5) 0.59884(8) 0.02758(5)
O14_2 O 0.58137(5) 0.47393(9) 0.02143(5)
O17_2 O 0.59044(6) 0.29968(9) 0.04572(5)
O18_2 O 0.97947(5) 0.23130(9) 0.01500(5)
O20_2 O 0.47947(5) 0.73130(9) 0.01500(5)
C1_2 C 0.38268(9) 0.30089(15) 0.88245(8)
H1_2 H 0.3686 0.3488 0.8866
C2_2 C 0.36675(9) 0.26720(15) 0.83769(9)
H2_2 H 0.3425 0.2922 0.8124
C3_2 C 0.38705(9) 0.19605(15) 0.83059(8)
C4_2 C 0.42141(9) 0.16024(14) 0.87024(8)
H3_2 H 0.4351 0.1114 0.8674
C5_2 C 0.43504(9) 0.19759(14) 0.91381(8)
H4_2 H 0.4577 0.1724 0.9401
C6_2 C 0.37329(9) 0.15717(15) 0.78348(8)
C7_2 C 0.32273(10) 0.15530(16) 0.75376(9)
H5_2 H 0.2977 0.1833 0.7620
C8_2 C 0.30913(9) 0.11183(15) 0.71165(9)
C9_2 C 0.34628(9) 0.07115(14) 0.69887(8)
H6_2 H 0.3374 0.0410 0.6712
C10_2 C 0.39696(9) 0.07600(13) 0.72799(8)
C11_2 C 0.41069(9) 0.11756(14) 0.76972(8)
H7_2 H 0.4449 0.1194 0.7889
C12_2 C 0.25422(9) 0.10948(15) 0.68136(9)
C13_2 C 0.22847(10) 0.17693(16) 0.66286(10)
H8_2 H 0.2453 0.2250 0.6689
C14_2 C 0.17781(10) 0.17308(16) 0.63539(10)
H9_2 H 0.1612 0.2195 0.6229
C15_2 C 0.17594(10) 0.04267(16) 0.64433(10)
C16_2 C 0.22695(11) 0.04112(16) 0.67103(10)
C33_2 C 0.38507(8) 0.47300(13) 0.97280(7)
C34_2 C 0.33037(8) 0.49684(13) 0.96523(8)
C35_2 C 0.31631(9) 0.57446(15) 0.96622(9)
H23_2 H 0.3414 0.6132 0.9742
C36_2 C 0.26510(10) 0.59471(16) 0.95544(10)
H24_2 H 0.2557 0.6469 0.9558
C37_2 C 0.22859(9) 0.53754(17) 0.94424(10)
C38_2 C 0.24142(10) 0.46030(17) 0.94332(11)
H25_2 H 0.2160 0.4220 0.9356
C39_2 C 0.29235(9) 0.43994(15) 0.95401(10)
H26_2 H 0.3014 0.3875 0.9537
C40_2 C 0.15424(9) 0.60795(16) 0.94990(10)
C41_2 C 0.17603(10) 0.63934(19) 0.99495(10)
C43_2 C 0.09850(8) 0.70999(13) 0.98781(8)
C44_2 C 0.07704(9) 0.67713(14) 0.94254(9)
H29_2 H 0.0433 0.6891 0.9249
C45_2 C 0.10465(9) 0.62752(16) 0.92341(9)
H30_2 H 0.0900 0.6073 0.8928
Co2_2 Co 0.457320(10) 0.332070(16) 0.983000(9)
Co3_2 Co 0.428790(11) 0.608830(17) 0.919100(10)
N1_2 N 0.41741(7) 0.26798(11) 0.92025(6)
N2_2 N 0.15086(7) 0.10674(11) 0.62555(7)
O1_2 O 0.43557(6) 0.04017(9) 0.71406(6)
O2_2 O 0.17613(6) 0.55267(13) 0.92847(8)
O4_2 O 0.39341(5) 0.40116(8) 0.97242(5)
O5_2 O 0.41863(5) 0.52607(9) 0.97857(5)
O7_2 O 0.02053(5) 0.76870(9) 0.98500(5)
H61_2 H 0.7906 0.3741 0.9871
C95_2 C 0.85154(9) 0.30962(16) 0.98661(9)
H62_2 H 0.8363 0.2880 0.9565
C99_2 C 0.93255(8) 0.23638(12) 0.99228(7)
N8_2 N 0.34914(7) 0.60674(11) 0.87445(7)
N13_2 N 0.44149(8) 0.68411(12) 0.86473(7)
O15_2 O 0.90956(6) 0.20032(9) 0.95428(5)
O16_2 O 0.40956(6) 0.70032(9) 0.95428(5)
O19_2 O 0.52053(5) 0.26870(9) 0.98500(5)
O22_2 O 0.43796(6) 0.50775(9) 0.88403(5)
O24_2 O 0.48540(5) 0.42496(8) 0.93981(5)
O25_2 O 0.50331(5) 0.59657(8) 0.96134(5)
C54_2 C 0.38268(9) 0.69911(15) 0.38245(8)
H35_2 H 0.3686 0.6512 0.3866
C55_2 C 0.36675(9) 0.73280(15) 0.33769(9)
H36_2 H 0.3425 0.7078 0.3124
C56_2 C 0.38705(9) 0.80395(15) 0.33059(8)
C57_2 C 0.42141(9) 0.83976(14) 0.37024(8)
H37_2 H 0.4351 0.8886 0.3674
C58_2 C 0.43504(9) 0.80241(14) 0.41381(8)
H38_2 H 0.4577 0.8276 0.4401
C59_2 C 0.37329(9) 0.84283(15) 0.28348(8)
C60_2 C 0.32273(10) 0.84470(16) 0.25376(9)
H39_2 H 0.2977 0.8167 0.2620
C61_2 C 0.30913(9) 0.88817(15) 0.21165(9)
C62_2 C 0.34628(9) 0.92885(14) 0.19887(8)
H40_2 H 0.3374 0.9590 0.1712
C63_2 C 0.39696(9) 0.92400(13) 0.22799(8)
C64_2 C 0.41069(9) 0.88244(14) 0.26972(8)
H41_2 H 0.4449 0.8806 0.2889
C65_2 C 0.25422(9) 0.89052(15) 0.18136(9)
C66_2 C 0.22847(10) 0.82307(16) 0.16286(10)
H42_2 H 0.2453 0.7750 0.1689
C67_2 C 0.17781(10) 0.82692(16) 0.13539(10)
H43_2 H 0.1612 0.7805 0.1229
C68_2 C 0.17594(10) 0.95733(16) 0.14433(10)
C69_2 C 0.22695(11) 0.95888(16) 0.17103(10)
N7_2 N 0.15086(7) 0.89326(11) 0.12555(7)
O11_2 O 0.43557(6) 0.95983(9) 0.21406(6)
H10_2 H 0.1579 0.9956 0.6391
H11_2 H 0.2430 0.9937 0.6821
C17_2 C 0.43204(9) 0.95961(13) 0.70976(8)
C18_2 C 0.42964(10) 0.92802(14) 0.66632(8)
H12_2 H 0.4292 0.9605 0.6409
C19_2 C 0.42791(10) 0.84720(14) 0.66065(8)
C20_2 C 0.42897(10) 0.80009(15) 0.69929(8)
H13_2 H 0.4272 0.7460 0.6955
C21_2 C 0.43263(10) 0.83210(14) 0.74348(8)
C22_2 C 0.43372(9) 0.91323(14) 0.74830(8)
H14_2 H 0.4356 0.9359 0.7775
C23_2 C 0.42704(10) 0.81230(14) 0.61434(8)
C24_2 C 0.45377(12) 0.84673(16) 0.58681(10)
H15_2 H 0.4696 0.8951 0.5955
C25_2 C 0.45679(12) 0.80919(15) 0.54664(9)
H16_2 H 0.4757 0.8328 0.5292
C26_2 C 0.40601(11) 0.71039(16) 0.55653(9)
H17_2 H 0.3883 0.6641 0.5457
C27_2 C 0.40174(11) 0.74321(16) 0.59724(9)
H18_2 H 0.3818 0.7191 0.6135
C28_2 C 0.43611(10) 0.78081(14) 0.78553(8)
C29_2 C 0.44918(14) 0.70290(18) 0.78742(10)
H19_2 H 0.4570 0.6805 0.7618
C30_2 C 0.45088(14) 0.65747(17) 0.82625(10)
H20_2 H 0.4591 0.6048 0.8255
C31_2 C 0.43177(13) 0.76077(16) 0.86399(9)
H21_2 H 0.4268 0.7827 0.8911
C32_2 C 0.42853(14) 0.80952(17) 0.82609(9)
H22_2 H 0.4211 0.8623 0.8280
Co7_2 Co 0.957320(10) 0.832070(16) 0.983000(9)
C35_3 C 0.18369(9) 0.07446(15) 0.53378(9)
H23_3 H 0.1586 0.1132 0.5258
C36_3 C 0.23490(10) 0.09471(16) 0.54456(10)
H24_3 H 0.2443 0.1469 0.5442
C37_3 C 0.27141(9) 0.03754(17) 0.55576(10)
C40_3 C 0.34576(9) 0.10795(16) 0.55010(10)
C41_3 C 0.32397(10) 0.13934(19) 0.50505(10)
H27_3 H 0.2906 0.1259 0.4871
C42_3 C 0.35154(9) 0.19038(16) 0.48661(9)
H28_3 H 0.3363 0.2120 0.4565
C43_3 C 0.40150(8) 0.20999(13) 0.51219(8)
C44_3 C 0.42296(9) 0.17713(14) 0.55746(9)
H29_3 H 0.4567 0.1891 0.5751
C45_3 C 0.39535(9) 0.12752(16) 0.57659(9)
H30_3 H 0.4100 0.1073 0.6072
C46_3 C 0.43255(8) 0.26362(12) 0.49228(7)
C52_2 C 0.01378(12) 0.20970(15) 0.33232(9)
H33_2 H 0.0359 0.2525 0.3396
C53_2 C 0.00487(10) 0.16678(14) 0.36837(8)
H34_2 H 0.0211 0.1808 0.4001
Co1_2 Co 0.0000 0.0000 0.5000
O2_3 O 0.32387(6) 0.05267(13) 0.57153(8)
O3_2 O -0.0000 0.23340(15) 0.2500
O5_3 O 0.08137(5) 0.02607(9) 0.52143(5)
C100_2 C 0.03553(8) 0.05344(13) 0.10311(7)
C101_2 C 0.02799(9) 0.10290(13) 0.14198(8)
C102_2 C 0.05274(12) 0.08496(17) 0.18965(9)
H65_2 H 0.0752 0.0426 0.1973
C103_2 C 0.04474(15) 0.12828(18) 0.22541(9)
H66_2 H 0.0626 0.1169 0.2572
C104_2 C 0.00999(13) 0.18914(15) 0.21419(9)
Co4_3 Co -0.0000 0.0000 0.0000
N13_3 N 0.05851(8) 0.18411(12) 0.63527(7)
O22_3 O 0.06204(6) 0.00775(9) 0.61597(5)
O23_2 O 0.01460(5) 0.07504(8) 0.06019(5)
Co4_4 Co -0.0000 0.0000 1.0000
C1_3 C 0.11732(9) 0.80089(15) 0.61755(8)
H1_3 H 0.1314 0.8488 0.6134
C2_3 C 0.13325(9) 0.76720(15) 0.66231(9)
H2_3 H 0.1575 0.7922 0.6876
C3_3 C 0.11295(9) 0.69605(15) 0.66941(8)
C4_3 C 0.07859(9) 0.66024(14) 0.62976(8)
H3_3 H 0.0649 0.6114 0.6326
C5_3 C 0.06496(9) 0.69759(14) 0.58619(8)
H4_3 H 0.0423 0.6724 0.5599
C6_3 C 0.12671(9) 0.65717(15) 0.71652(8)
C7_3 C 0.17727(10) 0.65530(16) 0.74624(9)
H5_3 H 0.2023 0.6833 0.7380
C8_3 C 0.19087(9) 0.61183(15) 0.78835(9)
C9_3 C 0.15372(9) 0.57115(14) 0.80113(8)
H6_3 H 0.1626 0.5410 0.8288
C10_3 C 0.10304(9) 0.57600(13) 0.77201(8)
C11_3 C 0.08931(9) 0.61756(14) 0.73028(8)
H7_3 H 0.0551 0.6194 0.7111
C12_3 C 0.24578(9) 0.60948(15) 0.81864(9)
C13_3 C 0.27153(10) 0.67693(16) 0.83714(10)
H8_3 H 0.2547 0.7250 0.8311
C14_3 C 0.32219(10) 0.67308(16) 0.86461(10)
H9_3 H 0.3388 0.7195 0.8771
C15_3 C 0.32406(10) 0.54267(16) 0.85567(10)
H10_3 H 0.3421 0.4956 0.8609
C16_3 C 0.27305(11) 0.54112(16) 0.82897(10)
H11_3 H 0.2570 0.4937 0.8179
C17_3 C 0.06796(9) 0.45961(13) 0.79024(8)
C18_3 C 0.07036(10) 0.42802(14) 0.83368(8)
H12_3 H 0.0708 0.4605 0.8591
C19_3 C 0.07209(10) 0.34720(14) 0.83935(8)
C20_3 C 0.07103(10) 0.30009(15) 0.80071(8)
H13_3 H 0.0728 0.2460 0.8045
C21_3 C 0.06737(10) 0.33210(14) 0.75652(8)
C22_3 C 0.06628(9) 0.41323(14) 0.75170(8)
H14_3 H 0.0644 0.4359 0.7225
C23_3 C 0.07296(10) 0.31230(14) 0.88566(8)
C24_3 C 0.04623(12) 0.34673(16) 0.91319(10)
H15_3 H 0.0304 0.3951 0.9045
C25_3 C 0.04321(12) 0.30919(15) 0.95336(9)
H16_3 H 0.0243 0.3328 0.9708
C26_3 C 0.09399(11) 0.21039(16) 0.94347(9)
H17_3 H 0.1117 0.1641 0.9543
C27_3 C 0.09826(11) 0.24321(16) 0.90276(9)
H18_3 H 0.1182 0.2191 0.8865
C28_3 C 0.06389(10) 0.28081(14) 0.71447(8)
C29_3 C 0.05082(14) 0.20290(18) 0.71258(10)
H19_3 H 0.0430 0.1805 0.7382
C30_3 C 0.04912(14) 0.15747(17) 0.67375(10)
H20_3 H 0.0409 0.1048 0.6745
C31_3 C 0.06823(13) 0.26077(16) 0.63601(9)
H21_3 H 0.0732 0.2827 0.6089
C32_3 C 0.07147(14) 0.30952(17) 0.67391(9)
H22_3 H 0.0789 0.3623 0.6720
C33_3 C 0.11493(8) 0.97300(13) 0.52720(7)
C34_3 C 0.16963(8) 0.99684(13) 0.53477(8)
C38_3 C 0.25858(10) 0.96030(17) 0.55668(11)
H25_3 H 0.2840 0.9220 0.5644
C39_3 C 0.20765(9) 0.93994(15) 0.54599(10)
H26_3 H 0.1986 0.8875 0.5463
Co1_3 Co 0.0000 1.0000 0.5000
N1_3 N 0.08259(7) 0.76798(11) 0.57975(6)
N3_2 N 0.06584(8) 0.24068(11) 0.96879(7)
O1_3 O 0.06443(6) 0.54017(9) 0.78594(6)
O4_3 O 0.10659(5) 0.90116(8) 0.52758(5)
O10_3 O 0.00331(5) 0.90343(8) 0.46134(5)
C54_3 C 0.11732(9) 0.19911(15) 0.11755(8)
H35_3 H 0.1314 0.1512 0.1134
C55_3 C 0.13325(9) 0.23280(15) 0.16231(9)
H36_3 H 0.1575 0.2078 0.1876
C56_3 C 0.11295(9) 0.30395(15) 0.16941(8)
C57_3 C 0.07859(9) 0.33976(14) 0.12976(8)
H37_3 H 0.0649 0.3886 0.1326
C58_3 C 0.06496(9) 0.30241(14) 0.08619(8)
H38_3 H 0.0423 0.3276 0.0599
C59_3 C 0.12671(9) 0.34283(15) 0.21652(8)
C60_3 C 0.17727(10) 0.34470(16) 0.24624(9)
H39_3 H 0.2023 0.3167 0.2380
C61_3 C 0.19087(9) 0.38817(15) 0.28835(9)
C62_3 C 0.15372(9) 0.42885(14) 0.30113(8)
H40_3 H 0.1626 0.4590 0.3288
C63_3 C 0.10304(9) 0.42400(13) 0.27201(8)
C64_3 C 0.08931(9) 0.38244(14) 0.23028(8)
H41_3 H 0.0551 0.3806 0.2111
C65_3 C 0.24578(9) 0.39052(15) 0.31864(9)
C66_3 C 0.27153(10) 0.32307(16) 0.33714(10)
H42_3 H 0.2547 0.2750 0.3311
C67_3 C 0.32219(10) 0.32692(16) 0.36461(10)
H43_3 H 0.3388 0.2805 0.3771
C68_3 C 0.32406(10) 0.45733(16) 0.35567(10)
H44_3 H 0.3421 0.5044 0.3609
C69_3 C 0.27305(11) 0.45888(16) 0.32897(10)
H45_3 H 0.2570 0.5063 0.3179
C70_3 C 0.06796(9) 0.54039(13) 0.29024(8)
C71_3 C 0.07036(10) 0.57198(14) 0.33368(8)
H46_3 H 0.0708 0.5395 0.3591
C72_3 C 0.07209(10) 0.65280(14) 0.33935(8)
C73_3 C 0.07103(10) 0.69991(15) 0.30071(8)
H47_3 H 0.0728 0.7540 0.3045
C74_3 C 0.06737(10) 0.66790(14) 0.25652(8)
C75_3 C 0.06628(9) 0.58677(14) 0.25170(8)
H48_3 H 0.0644 0.5641 0.2225
C76_3 C 0.07296(10) 0.68770(14) 0.38566(8)
C77_3 C 0.04623(12) 0.65327(16) 0.41319(10)
H49_3 H 0.0304 0.6049 0.4045
C78_3 C 0.04321(12) 0.69081(15) 0.45336(9)
H50_3 H 0.0243 0.6672 0.4708
C79_3 C 0.09399(11) 0.78961(16) 0.44347(9)
H51_3 H 0.1117 0.8359 0.4543
C80_3 C 0.09826(11) 0.75679(16) 0.40276(9)
H52_3 H 0.1182 0.7809 0.3865
C81_3 C 0.06389(10) 0.71919(14) 0.21447(8)
C82_3 C 0.05082(14) 0.79710(18) 0.21258(10)
H53_3 H 0.0430 0.8195 0.2382
C83_3 C 0.04912(14) 0.84253(17) 0.17375(10)
H54_3 H 0.0409 0.8952 0.1745
C84_3 C 0.06823(13) 0.73923(16) 0.13601(9)
H55_3 H 0.0732 0.7173 0.1089
C85_3 C 0.07147(14) 0.69048(17) 0.17391(9)
H56_3 H 0.0789 0.6377 0.1720
Co4_5 Co -0.0000 1.0000 0.0000
N5_2 N 0.08259(7) 0.23202(11) 0.07975(6)
N10_3 N 0.06584(8) 0.75932(11) 0.46879(7)
N12_2 N 0.05851(8) 0.81589(12) 0.13527(7)
O11_3 O 0.06443(6) 0.45983(9) 0.28594(6)
O21_2 O 0.06204(6) 0.99225(9) 0.11597(5)
O24_3 O 0.01460(5) 0.92496(8) 0.56019(5)
Co4_6 Co 0.0000 1.0000 1.0000
C47_2 C 0.96447(8) 0.05344(13) 0.39689(7)
C48_2 C 0.97201(9) 0.10290(13) 0.35802(8)
C49_2 C 0.94726(12) 0.08496(17) 0.31035(9)
H31_2 H 0.9248 0.0426 0.3027
C50_2 C 0.95526(15) 0.12828(18) 0.27459(9)
H32_2 H 0.9374 0.1169 0.2428
C51_2 C 0.99001(13) 0.18914(15) 0.28581(9)
Co1_4 Co 1.0000 0.0000 0.5000
O3_3 O 1.0000 0.23340(15) 0.2500
O9_2 O 0.98540(5) 0.07504(8) 0.43981(5)
C86_3 C 0.88507(8) 0.02700(13) 0.47280(7)
C87_3 C 0.83037(8) 0.00316(13) 0.46523(8)
C91_3 C 0.74142(10) 0.03970(17) 0.44332(11)
H59_3 H 0.7160 0.0780 0.4356
C92_3 C 0.79235(9) 0.06006(15) 0.45401(10)
H60_3 H 0.8014 0.1125 0.4537
C105_2 C 0.98622(12) 0.20970(15) 0.16768(9)
H67_2 H 0.9641 0.2525 0.1604
C106_2 C 0.99513(10) 0.16678(14) 0.13163(8)
H68_2 H 0.9789 0.1808 0.0999
Co4_7 Co 1.0000 0.0000 0.0000
N6_2 N 0.91741(7) 0.23202(11) 0.42025(6)
N11_2 N 0.93416(8) 0.24068(11) 0.53121(7)
O13_3 O 0.89341(5) 0.09884(8) 0.47242(5)
O25_3 O 0.99669(5) 0.09657(8) 0.53866(5)
Co4_8 Co 1.0000 0.0000 1.0000
Co1_5 Co 1.0000 1.0000 0.5000
O8_2 O 0.93796(6) 0.99225(9) 0.38403(5)
C88_3 C 0.81631(9) 0.92554(15) 0.46622(9)
H57_3 H 0.8414 0.8868 0.4742
C89_3 C 0.76510(10) 0.90529(16) 0.45544(10)
H58_3 H 0.7557 0.8531 0.4558
C90_3 C 0.72859(9) 0.96246(17) 0.44424(10)
C93_3 C 0.65424(9) 0.89205(16) 0.44990(10)
C94_3 C 0.67603(10) 0.86066(19) 0.49495(10)
H61_3 H 0.7094 0.8741 0.5129
C95_3 C 0.64846(9) 0.80962(16) 0.51339(9)
H62_3 H 0.6637 0.7880 0.5435
C96_3 C 0.59850(8) 0.79001(13) 0.48781(8)
C97_3 C 0.57704(9) 0.82287(14) 0.44254(9)
H63_3 H 0.5433 0.8109 0.4249
C98_3 C 0.60465(9) 0.87248(16) 0.42341(9)
H64_3 H 0.5900 0.8927 0.3928
C99_3 C 0.56745(8) 0.73638(12) 0.50772(7)
Co4_9 Co 1.0000 1.0000 0.0000
N14_2 N 0.94149(8) 0.81589(12) 0.36473(7)
O12_3 O 0.67613(6) 0.94733(13) 0.42847(8)
O14_3 O 0.91863(5) 0.97393(9) 0.47857(5)
Co4_10 Co 1.0000 1.0000 1.0000
C86_4 C 0.11493(8) 0.02700(13) 0.02720(7)
C87_4 C 0.16963(8) 0.00316(13) 0.03477(8)
C91_4 C 0.25858(10) 0.03970(17) 0.05668(11)
H59_4 H 0.2840 0.0780 0.0644
C92_4 C 0.20765(9) 0.06006(15) 0.04599(10)
H60_4 H 0.1986 0.1125 0.0463
O13_4 O 0.10659(5) 0.09884(8) 0.02758(5)
O25_4 O 0.00331(5) 0.09657(8) 0.96134(5)
C88_4 C 0.18369(9) 0.92554(15) 0.03378(9)
H57_4 H 0.1586 0.8868 0.0258
C89_4 C 0.23490(10) 0.90529(16) 0.04456(10)
H58_4 H 0.2443 0.8531 0.0442
C90_4 C 0.27141(9) 0.96246(17) 0.05576(10)
C93_4 C 0.34576(9) 0.89205(16) 0.05010(10)
C94_4 C 0.32397(10) 0.86066(19) 0.00505(10)
C96_4 C 0.40150(8) 0.79001(13) 0.01219(8)
C97_4 C 0.42296(9) 0.82287(14) 0.05746(9)
H63_4 H 0.4567 0.8109 0.0751
C98_4 C 0.39535(9) 0.87248(16) 0.07659(9)
H64_4 H 0.4100 0.8927 0.1072
O12_4 O 0.32387(6) 0.94733(13) 0.07153(8)
O14_4 O 0.08137(5) 0.97393(9) 0.02143(5)
H61_4 H 0.2906 0.8741 0.9871
C95_4 C 0.35154(9) 0.80962(16) 0.98661(9)
H62_4 H 0.3363 0.7880 0.9565
C99_4 C 0.43255(8) 0.73638(12) 0.99228(7)
H27_4 H 0.7094 0.1259 0.0129
C42_4 C 0.64846(9) 0.19038(16) 0.01339(9)
H28_4 H 0.6637 0.2120 0.0435
C46_4 C 0.56745(8) 0.26362(12) 0.00772(7)
C35_4 C 0.81631(9) 0.07446(15) 0.96622(9)
H23_4 H 0.8414 0.1132 0.9742
C36_4 C 0.76510(10) 0.09471(16) 0.95544(10)
H24_4 H 0.7557 0.1469 0.9558
C37_4 C 0.72859(9) 0.03754(17) 0.94424(10)
C40_4 C 0.65424(9) 0.10795(16) 0.94990(10)
C41_4 C 0.67603(10) 0.13934(19) 0.99495(10)
C43_4 C 0.59850(8) 0.20999(13) 0.98781(8)
C44_4 C 0.57704(9) 0.17713(14) 0.94254(9)
H29_4 H 0.5433 0.1891 0.9249
C45_4 C 0.60465(9) 0.12752(16) 0.92341(9)
H30_4 H 0.5900 0.1073 0.8928
O2_4 O 0.67613(6) 0.05267(13) 0.92847(8)
O5_4 O 0.91863(5) 0.02607(9) 0.97857(5)
N13_4 N 0.94149(8) 0.18411(12) 0.86473(7)
O22_4 O 0.93796(6) 0.00775(9) 0.88403(5)
O10_4 O 0.99669(5) 0.90343(8) 0.03866(5)
C54_4 C 0.88268(9) 0.19911(15) 0.38245(8)
H35_4 H 0.8686 0.1512 0.3866
C55_4 C 0.86675(9) 0.23280(15) 0.33769(9)
H36_4 H 0.8425 0.2078 0.3124
C56_4 C 0.88705(9) 0.30395(15) 0.33059(8)
C57_4 C 0.92141(9) 0.33976(14) 0.37024(8)
H37_4 H 0.9351 0.3886 0.3674
C58_4 C 0.93504(9) 0.30241(14) 0.41381(8)
H38_4 H 0.9577 0.3276 0.4401
C59_4 C 0.87329(9) 0.34283(15) 0.28348(8)
C60_4 C 0.82273(10) 0.34470(16) 0.25376(9)
H39_4 H 0.7977 0.3167 0.2620
C61_4 C 0.80913(9) 0.38817(15) 0.21165(9)
C62_4 C 0.84628(9) 0.42885(14) 0.19887(8)
H40_4 H 0.8374 0.4590 0.1712
C63_4 C 0.89696(9) 0.42400(13) 0.22799(8)
C64_4 C 0.91069(9) 0.38244(14) 0.26972(8)
H41_4 H 0.9449 0.3806 0.2889
C65_4 C 0.75422(9) 0.39052(15) 0.18136(9)
C66_4 C 0.72847(10) 0.32307(16) 0.16286(10)
H42_4 H 0.7453 0.2750 0.1689
C67_4 C 0.67781(10) 0.32692(16) 0.13539(10)
H43_4 H 0.6612 0.2805 0.1229
C68_4 C 0.67594(10) 0.45733(16) 0.14433(10)
H44_4 H 0.6579 0.5044 0.1391
C69_4 C 0.72695(11) 0.45888(16) 0.17103(10)
H45_4 H 0.7430 0.5063 0.1821
C70_4 C 0.93204(9) 0.54039(13) 0.20976(8)
C71_4 C 0.92964(10) 0.57198(14) 0.16632(8)
H46_4 H 0.9292 0.5395 0.1409
C72_4 C 0.92791(10) 0.65280(14) 0.16065(8)
C73_4 C 0.92897(10) 0.69991(15) 0.19929(8)
H47_4 H 0.9272 0.7540 0.1955
C74_4 C 0.93263(10) 0.66790(14) 0.24348(8)
C75_4 C 0.93372(9) 0.58677(14) 0.24830(8)
H48_4 H 0.9356 0.5641 0.2775
C76_4 C 0.92704(10) 0.68770(14) 0.11434(8)
C77_4 C 0.95377(12) 0.65327(16) 0.08681(10)
H49_4 H 0.9696 0.6049 0.0955
C78_4 C 0.95679(12) 0.69081(15) 0.04664(9)
H50_4 H 0.9757 0.6672 0.0292
C79_4 C 0.90601(11) 0.78961(16) 0.05653(9)
H51_4 H 0.8883 0.8359 0.0457
C80_4 C 0.90174(11) 0.75679(16) 0.09724(9)
H52_4 H 0.8818 0.7809 0.1135
C81_4 C 0.93611(10) 0.71919(14) 0.28553(8)
C82_4 C 0.94918(14) 0.79710(18) 0.28742(10)
H53_4 H 0.9570 0.8195 0.2618
C83_4 C 0.95088(14) 0.84253(17) 0.32625(10)
H54_4 H 0.9591 0.8952 0.3255
C84_4 C 0.93177(13) 0.73923(16) 0.36399(9)
H55_4 H 0.9268 0.7173 0.3911
C85_4 C 0.92853(14) 0.69048(17) 0.32609(9)
H56_4 H 0.9211 0.6377 0.3280
N10_4 N 0.93416(8) 0.75932(11) 0.03121(7)
O11_4 O 0.93557(6) 0.45983(9) 0.21406(6)
C1_4 C 0.88268(9) 0.80089(15) 0.88245(8)
H1_4 H 0.8686 0.8488 0.8866
C2_4 C 0.86675(9) 0.76720(15) 0.83769(9)
H2_4 H 0.8425 0.7922 0.8124
C3_4 C 0.88705(9) 0.69605(15) 0.83059(8)
C4_4 C 0.92141(9) 0.66024(14) 0.87024(8)
H3_4 H 0.9351 0.6114 0.8674
C5_4 C 0.93504(9) 0.69759(14) 0.91381(8)
H4_4 H 0.9577 0.6724 0.9401
C6_4 C 0.87329(9) 0.65717(15) 0.78348(8)
C7_4 C 0.82273(10) 0.65530(16) 0.75376(9)
H5_4 H 0.7977 0.6833 0.7620
C8_4 C 0.80913(9) 0.61183(15) 0.71165(9)
C9_4 C 0.84628(9) 0.57115(14) 0.69887(8)
H6_4 H 0.8374 0.5410 0.6712
C10_4 C 0.89696(9) 0.57600(13) 0.72799(8)
C11_4 C 0.91069(9) 0.61756(14) 0.76972(8)
H7_4 H 0.9449 0.6194 0.7889
C12_4 C 0.75422(9) 0.60948(15) 0.68136(9)
C13_4 C 0.72847(10) 0.67693(16) 0.66286(10)
H8_4 H 0.7453 0.7250 0.6689
C14_4 C 0.67781(10) 0.67308(16) 0.63539(10)
H9_4 H 0.6612 0.7195 0.6229
C15_4 C 0.67594(10) 0.54267(16) 0.64433(10)
H10_4 H 0.6579 0.4956 0.6391
C16_4 C 0.72695(11) 0.54112(16) 0.67103(10)
H11_4 H 0.7430 0.4937 0.6821
C17_4 C 0.93204(9) 0.45961(13) 0.70976(8)
C18_4 C 0.92964(10) 0.42802(14) 0.66632(8)
H12_4 H 0.9292 0.4605 0.6409
C19_4 C 0.92791(10) 0.34720(14) 0.66065(8)
C20_4 C 0.92897(10) 0.30009(15) 0.69929(8)
H13_4 H 0.9272 0.2460 0.6955
C21_4 C 0.93263(10) 0.33210(14) 0.74348(8)
C22_4 C 0.93372(9) 0.41323(14) 0.74830(8)
H14_4 H 0.9356 0.4359 0.7775
C23_4 C 0.92704(10) 0.31230(14) 0.61434(8)
C24_4 C 0.95377(12) 0.34673(16) 0.58681(10)
H15_4 H 0.9696 0.3951 0.5955
C25_4 C 0.95679(12) 0.30919(15) 0.54664(9)
H16_4 H 0.9757 0.3328 0.5292
C26_4 C 0.90601(11) 0.21039(16) 0.55653(9)
H17_4 H 0.8883 0.1641 0.5457
C27_4 C 0.90174(11) 0.24321(16) 0.59724(9)
H18_4 H 0.8818 0.2191 0.6135
C28_4 C 0.93611(10) 0.28081(14) 0.78553(8)
C29_4 C 0.94918(14) 0.20290(18) 0.78742(10)
H19_4 H 0.9570 0.1805 0.7618
C30_4 C 0.95088(14) 0.15747(17) 0.82625(10)
H20_4 H 0.9591 0.1048 0.8255
C31_4 C 0.93177(13) 0.26077(16) 0.86399(9)
H21_4 H 0.9268 0.2827 0.8911
C32_4 C 0.92853(14) 0.30952(17) 0.82609(9)
H22_4 H 0.9211 0.3623 0.8280
C33_4 C 0.88507(8) 0.97300(13) 0.97280(7)
C34_4 C 0.83037(8) 0.99684(13) 0.96523(8)
C38_4 C 0.74142(10) 0.96030(17) 0.94332(11)
H25_4 H 0.7160 0.9220 0.9356
C39_4 C 0.79235(9) 0.93994(15) 0.95401(10)
H26_4 H 0.8014 0.8875 0.9537
N1_4 N 0.91741(7) 0.76798(11) 0.92025(6)
O1_4 O 0.93557(6) 0.54017(9) 0.71406(6)
O4_4 O 0.89341(5) 0.90116(8) 0.97242(5)
O24_4 O 0.98540(5) 0.92496(8) 0.93981(5)
C47_3 C 0.53553(8) 0.44656(13) 0.60311(7)
C48_3 C 0.52799(9) 0.39710(13) 0.64198(8)
C49_3 C 0.55274(12) 0.41504(17) 0.68965(9)
H31_3 H 0.5752 0.4574 0.6973
C50_3 C 0.54474(15) 0.37172(18) 0.72541(9)
H32_3 H 0.5626 0.3831 0.7572
C51_3 C 0.50999(13) 0.31086(15) 0.71419(9)
C52_3 C 0.48622(12) 0.29030(15) 0.66768(9)
H33_3 H 0.4641 0.2475 0.6604
C53_3 C 0.49513(10) 0.33322(14) 0.63163(8)
H34_3 H 0.4789 0.3192 0.5999
O3_4 O 0.5000 0.26660(15) 0.7500
C100_3 C 0.46447(8) 0.44656(13) 0.89689(7)
C101_3 C 0.47201(9) 0.39710(13) 0.85802(8)
C102_3 C 0.44726(12) 0.41504(17) 0.81035(9)
H65_3 H 0.4248 0.4574 0.8027
C103_3 C 0.45526(15) 0.37172(18) 0.77459(9)
H66_3 H 0.4374 0.3831 0.7428
C104_3 C 0.49001(13) 0.31086(15) 0.78581(9)
C105_3 C 0.51378(12) 0.29030(15) 0.83232(9)
H67_3 H 0.5359 0.2475 0.8396
C106_3 C 0.50487(10) 0.33322(14) 0.86837(8)
H68_3 H 0.5211 0.3192 0.9001
C47_4 C 0.03553(8) 0.94656(13) 0.60311(7)
C48_4 C 0.02799(9) 0.89710(13) 0.64198(8)
C49_4 C 0.05274(12) 0.91504(17) 0.68965(9)
H31_4 H 0.0752 0.9574 0.6973
C50_4 C 0.04474(15) 0.87172(18) 0.72541(9)
H32_4 H 0.0626 0.8831 0.7572
C51_4 C 0.00999(13) 0.81086(15) 0.71419(9)
O3_5 O 0.0000 0.76660(15) 0.7500
C105_4 C 0.01378(12) 0.79030(15) 0.83232(9)
H67_4 H 0.0359 0.7475 0.8396
C106_4 C 0.00487(10) 0.83322(14) 0.86837(8)
H68_4 H 0.0211 0.8192 0.9001
C52_4 C 0.98622(12) 0.79030(15) 0.66768(9)
H33_4 H 0.9641 0.7475 0.6604
C53_4 C 0.99513(10) 0.83322(14) 0.63163(8)
H34_4 H 0.9789 0.8192 0.5999
O3_6 O 1.0000 0.76660(15) 0.7500
C100_4 C 0.96447(8) 0.94656(13) 0.89689(7)
C101_4 C 0.97201(9) 0.89710(13) 0.85802(8)
C102_4 C 0.94726(12) 0.91504(17) 0.81035(9)
H65_4 H 0.9248 0.9574 0.8027
C103_4 C 0.95526(15) 0.87172(18) 0.77459(9)
H66_4 H 0.9374 0.8831 0.7428
C104_4 C 0.99001(13) 0.81086(15) 0.78581(9)
loop_
_geom_bond_atom_site_label_1
_geom_bond_atom_site_label_2
_geom_bond_site_symmetry_1
_geom_bond_site_symmetry_2
C1 H1 1_555 1_555
C2 C1 1_555 1_555
H2 C2 1_555 1_555
C3 C2 1_555 1_555
C4 C3 1_555 1_555
H3 C4 1_555 1_555
C5 C4 1_555 1_555
H4 C5 1_555 1_555
C6 C3 1_555 1_555
C7 C6 1_555 1_555
H5 C7 1_555 1_555
C8 C7 1_555 1_555
C9 C8 1_555 1_555
H6 C9 1_555 1_555
C10 C9 1_555 1_555
C11 C6 1_555 1_555
H7 C11 1_555 1_555
C12 C8 1_555 1_555
C13 C12 1_555 1_555
H8 C13 1_555 1_555
C14 C13 1_555 1_555
H9 C14 1_555 1_555
C16 C12 1_555 1_555
C33 C34 1_555 1_555
C34 C35 1_555 1_555
C35 H23 1_555 1_555
C36 C35 1_555 1_555
H24 C36 1_555 1_555
C37 C36 1_555 1_555
C38 C37 1_555 1_555
H25 C38 1_555 1_555
C39 C34 1_555 1_555
H26 C39 1_555 1_555
C40 C41 1_555 1_555
C41 H27 1_555 1_555
C42 C41 1_555 1_555
H28 C42 1_555 1_555
C43 C42 1_555 1_555
C44 C43 1_555 1_555
H29 C44 1_555 1_555
C45 C40 1_555 1_555
H30 C45 1_555 1_555
C46 C43 1_555 1_555
C47 C48 1_555 1_555
C48 C49 1_555 1_555
C49 H31 1_555 1_555
C50 C49 1_555 1_555
H32 C50 1_555 1_555
C51 C50 1_555 1_555
C52 C51 1_555 1_555
H33 C52 1_555 1_555
C53 C48 1_555 1_555
H34 C53 1_555 1_555
Co1 O5 1_555 1_555
Co2 N1 1_555 1_555
Co3 O5 1_555 1_555
N1 C1 1_555 1_555
N2 C14 1_555 1_555
O1 C10 1_555 1_555
O2 C37 1_555 1_555
O3 C51 1_555 1_555
O4 C33 1_555 1_555
O5 C33 1_555 1_555
O6 C46 1_555 1_555
O7 C46 1_555 1_555
O8 C47 1_555 1_555
O9 C47 1_555 1_555
O10 Co1 1_555 1_555
C70 C71 1_555 1_555
C71 H46 1_555 1_555
C72 C71 1_555 1_555
C73 C72 1_555 1_555
H47 C73 1_555 1_555
C74 C73 1_555 1_555
C75 C70 1_555 1_555
H48 C75 1_555 1_555
C76 C72 1_555 1_555
C77 C76 1_555 1_555
H49 C77 1_555 1_555
C78 C77 1_555 1_555
H50 C78 1_555 1_555
C79 H51 1_555 1_555
C80 C76 1_555 1_555
H52 C80 1_555 1_555
C81 C74 1_555 1_555
C82 C81 1_555 1_555
H53 C82 1_555 1_555
C83 C82 1_555 1_555
H54 C83 1_555 1_555
C84 H55 1_555 1_555
C85 C81 1_555 1_555
H56 C85 1_555 1_555
C86 C87 1_555 1_555
C87 C88 1_555 1_555
C88 H57 1_555 1_555
C89 C88 1_555 1_555
H58 C89 1_555 1_555
C90 C89 1_555 1_555
C91 C90 1_555 1_555
H59 C91 1_555 1_555
C92 C87 1_555 1_555
H60 C92 1_555 1_555
C93 C94 1_555 1_555
C94 H61 1_555 1_555
C95 C94 1_555 1_555
H62 C95 1_555 1_555
C96 C95 1_555 1_555
C97 C96 1_555 1_555
H63 C97 1_555 1_555
C98 C93 1_555 1_555
H64 C98 1_555 1_555
C99 C96 1_555 1_555
C100 C101 1_555 1_555
C101 C102 1_555 1_555
C102 H65 1_555 1_555
C103 C102 1_555 1_555
H66 C103 1_555 1_555
C104 O3 1_555 1_555
C105 C104 1_555 1_555
H67 C105 1_555 1_555
C106 C101 1_555 1_555
H68 C106 1_555 1_555
Co4 O23 1_555 1_555
Co5 O9 1_555 1_555
Co8 O23 1_555 1_555
Co11 O8 1_555 1_555
Co12 N2 1_555 1_555
Co14 O6 1_555 1_555
Co15 N12 1_555 1_555
Co16 O15 1_555 1_555
N6 Co5 1_555 1_555
N8 Co3 1_555 1_555
N9 Co11 1_555 1_555
N10 Co2 1_555 1_555
N11 Co5 1_555 1_555
N12 C83 1_555 1_555
N13 Co3 1_555 1_555
N14 Co11 1_555 1_555
O12 C90 1_555 1_555
O13 C86 1_555 1_555
O14 Co1 1_555 1_555
O15 C99 1_555 1_555
O16 Co3 1_555 1_555
O17 Co11 1_555 1_555
O18 C99 1_555 1_555
O19 Co2 1_555 1_555
O20 Co5 1_555 1_555
O21 C100 1_555 1_555
O22 Co3 1_555 1_555
O23 C100 1_555 1_555
O24 Co1 1_555 1_555
O25 Co1 1_555 1_555
C5 N1 1_555 1_555
C10 C11 1_555 1_555
C15 C16 1_555 1_555
C15 N2 1_555 1_555
C38 C39 1_555 1_555
C40 O2 1_555 1_555
C44 C45 1_555 1_555
C52 C53 1_555 1_555
Co1 O9 1_555 1_555
Co2 O4 1_555 1_555
Co2 O10 1_555 1_555
Co2 O24 1_555 1_555
Co3 O25 1_555 1_555
O10 Co11 1_555 1_555
C74 C75 1_555 1_555
C78 N10 1_555 1_555
C79 C80 1_555 1_555
C79 N10 1_555 1_555
C84 C85 1_555 1_555
C84 N12 1_555 1_555
C86 O14 1_555 1_555
C91 C92 1_555 1_555
C93 O12 1_555 1_555
C97 C98 1_555 1_555
C103 C104 1_555 1_555
C105 C106 1_555 1_555
Co5 O13 1_555 1_555
Co5 O25 1_555 1_555
Co11 O14 1_555 1_555
Co15 O21 1_555 1_555
C17 C18 1_555 1_555
C18 H12 1_555 1_555
C19 C18 1_555 1_555
C20 C19 1_555 1_555
H13 C20 1_555 1_555
C21 C20 1_555 1_555
C22 C17 1_555 1_555
H14 C22 1_555 1_555
C23 C19 1_555 1_555
C24 C23 1_555 1_555
H15 C24 1_555 1_555
C25 C24 1_555 1_555
H16 C25 1_555 1_555
C26 H17 1_555 1_555
C27 C23 1_555 1_555
H18 C27 1_555 1_555
C28 C21 1_555 1_555
C29 C28 1_555 1_555
H19 C29 1_555 1_555
C30 C29 1_555 1_555
H20 C30 1_555 1_555
C31 H21 1_555 1_555
C32 C28 1_555 1_555
H22 C32 1_555 1_555
N3 C25 1_555 1_555
N13 C30 1_555 1_555
C54 H35 1_555 1_555
C55 C54 1_555 1_555
H36 C55 1_555 1_555
C56 C55 1_555 1_555
C57 C56 1_555 1_555
H37 C57 1_555 1_555
C58 C57 1_555 1_555
H38 C58 1_555 1_555
C59 C56 1_555 1_555
C60 C59 1_555 1_555
H39 C60 1_555 1_555
C61 C60 1_555 1_555
C62 C61 1_555 1_555
H40 C62 1_555 1_555
C63 C62 1_555 1_555
C64 C59 1_555 1_555
H41 C64 1_555 1_555
C65 C61 1_555 1_555
C66 C65 1_555 1_555
H42 C66 1_555 1_555
C67 C66 1_555 1_555
H43 C67 1_555 1_555
C69 C65 1_555 1_555
Co8 N5 1_555 1_555
Co14 N7 1_555 1_555
N5 C54 1_555 1_555
N7 C67 1_555 1_555
O11 C63 1_555 1_555
C21 C22 1_555 1_555
C26 C27 1_555 1_555
C26 N3 1_555 1_555
C31 C32 1_555 1_555
C31 N13 1_555 1_555
C58 N5 1_555 1_555
C63 C64 1_555 1_555
C68 C69 1_555 1_555
C68 N7 1_555 1_555
H28_2 C42_2 1_555 1_555
O6_2 C46_2 1_555 1_555
O10_2 Co4 1_555 1_555
C70_2 C71_2 1_555 1_555
C71_2 H46_2 1_555 1_555
C72_2 C71_2 1_555 1_555
C73_2 C72_2 1_555 1_555
H47_2 C73_2 1_555 1_555
C74_2 C73_2 1_555 1_555
C75_2 C70_2 1_555 1_555
H48_2 C75_2 1_555 1_555
C76_2 C72_2 1_555 1_555
C77_2 C76_2 1_555 1_555
H49_2 C77_2 1_555 1_555
C78_2 C77_2 1_555 1_555
H50_2 C78_2 1_555 1_555
C79_2 H51_2 1_555 1_555
C80_2 C76_2 1_555 1_555
H52_2 C80_2 1_555 1_555
C81_2 C74_2 1_555 1_555
C82_2 C81_2 1_555 1_555
H53_2 C82_2 1_555 1_555
C83_2 C82_2 1_555 1_555
H54_2 C83_2 1_555 1_555
C84_2 H55_2 1_555 1_555
C85_2 C81_2 1_555 1_555
H56_2 C85_2 1_555 1_555
C86_2 C87_2 1_555 1_555
C87_2 C88_2 1_555 1_555
C88_2 H57_2 1_555 1_555
C89_2 C88_2 1_555 1_555
H58_2 C89_2 1_555 1_555
C90_2 C89_2 1_555 1_555
C91_2 C90_2 1_555 1_555
H59_2 C91_2 1_555 1_555
C92_2 C87_2 1_555 1_555
H60_2 C92_2 1_555 1_555
C93_2 C94_2 1_555 1_555
C97_2 C96_2 1_555 1_555
H63_2 C97_2 1_555 1_555
C98_2 C93_2 1_555 1_555
H64_2 C98_2 1_555 1_555
Co14_2 O6_2 1_555 1_555
N9_2 Co15 1_555 1_555
N14 C83_2 1_555 1_555
O12_2 C90_2 1_555 1_555
O13_2 C86_2 1_555 1_555
O14_2 Co4 1_555 1_555
O17_2 Co15 1_555 1_555
O20_2 Co8 1_555 1_555
O10_2 Co15 1_555 1_555
C74_2 C75_2 1_555 1_555
C78_2 N10_2 1_555 1_555
C79_2 C80_2 1_555 1_555
C79_2 N10_2 1_555 1_555
C84_2 C85_2 1_555 1_555
C84_2 N14 1_555 1_555
C86_2 O14_2 1_555 1_555
C91_2 C92_2 1_555 1_555
C93_2 O12_2 1_555 1_555
C97_2 C98_2 1_555 1_555
Co8 O13_2 1_555 1_555
Co15 O14_2 1_555 1_555
C1_2 H1_2 1_555 1_555
C2_2 C1_2 1_555 1_555
H2_2 C2_2 1_555 1_555
C3_2 C2_2 1_555 1_555
C4_2 C3_2 1_555 1_555
H3_2 C4_2 1_555 1_555
C5_2 C4_2 1_555 1_555
H4_2 C5_2 1_555 1_555
C6_2 C3_2 1_555 1_555
C7_2 C6_2 1_555 1_555
H5_2 C7_2 1_555 1_555
C8_2 C7_2 1_555 1_555
C9_2 C8_2 1_555 1_555
H6_2 C9_2 1_555 1_555
C10_2 C9_2 1_555 1_555
C11_2 C6_2 1_555 1_555
H7_2 C11_2 1_555 1_555
C12_2 C8_2 1_555 1_555
C13_2 C12_2 1_555 1_555
H8_2 C13_2 1_555 1_555
C14_2 C13_2 1_555 1_555
H9_2 C14_2 1_555 1_555
C16_2 C12_2 1_555 1_555
C33_2 C34_2 1_555 1_555
C34_2 C35_2 1_555 1_555
C35_2 H23_2 1_555 1_555
C36_2 C35_2 1_555 1_555
H24_2 C36_2 1_555 1_555
C37_2 C36_2 1_555 1_555
C38_2 C37_2 1_555 1_555
H25_2 C38_2 1_555 1_555
C39_2 C34_2 1_555 1_555
H26_2 C39_2 1_555 1_555
C40_2 C41_2 1_555 1_555
C44_2 C43_2 1_555 1_555
H29_2 C44_2 1_555 1_555
C45_2 C40_2 1_555 1_555
H30_2 C45_2 1_555 1_555
Co4_2 O5_2 1_555 1_555
Co2_2 N1_2 1_555 1_555
Co3_2 O5_2 1_555 1_555
N1_2 C1_2 1_555 1_555
N2_2 C14_2 1_555 1_555
O1_2 C10_2 1_555 1_555
O2_2 C37_2 1_555 1_555
O4_2 C33_2 1_555 1_555
O5_2 C33_2 1_555 1_555
H62_2 C95_2 1_555 1_555
Co16 N2_2 1_555 1_555
Co12 O15_2 1_555 1_555
N8_2 Co3_2 1_555 1_555
N13_2 Co3_2 1_555 1_555
O15_2 C99_2 1_555 1_555
O16_2 Co3_2 1_555 1_555
O19_2 Co2_2 1_555 1_555
O22_2 Co3_2 1_555 1_555
O24_2 Co4_2 1_555 1_555
O25_2 Co4_2 1_555 1_555
C5_2 N1_2 1_555 1_555
C10_2 C11_2 1_555 1_555
C15_2 C16_2 1_555 1_555
C15_2 N2_2 1_555 1_555
C38_2 C39_2 1_555 1_555
C40_2 O2_2 1_555 1_555
C44_2 C45_2 1_555 1_555
Co2_2 O4_2 1_555 1_555
Co2_2 O24_2 1_555 1_555
Co3_2 O25_2 1_555 1_555
C54_2 H35_2 1_555 1_555
C55_2 C54_2 1_555 1_555
H36_2 C55_2 1_555 1_555
C56_2 C55_2 1_555 1_555
C57_2 C56_2 1_555 1_555
H37_2 C57_2 1_555 1_555
C58_2 C57_2 1_555 1_555
H38_2 C58_2 1_555 1_555
C59_2 C56_2 1_555 1_555
C60_2 C59_2 1_555 1_555
H39_2 C60_2 1_555 1_555
C61_2 C60_2 1_555 1_555
C62_2 C61_2 1_555 1_555
H40_2 C62_2 1_555 1_555
C63_2 C62_2 1_555 1_555
C64_2 C59_2 1_555 1_555
H41_2 C64_2 1_555 1_555
C65_2 C61_2 1_555 1_555
C66_2 C65_2 1_555 1_555
H42_2 C66_2 1_555 1_555
C67_2 C66_2 1_555 1_555
H43_2 C67_2 1_555 1_555
C69_2 C65_2 1_555 1_555
Co14_2 N7_2 1_555 1_555
N6 C54_2 1_555 1_555
N7_2 C67_2 1_555 1_555
O11_2 C63_2 1_555 1_555
C58_2 N6 1_555 1_555
C63_2 C64_2 1_555 1_555
C68_2 C69_2 1_555 1_555
C68_2 N7_2 1_555 1_555
C17_2 C18_2 1_555 1_555
C18_2 H12_2 1_555 1_555
C19_2 C18_2 1_555 1_555
C20_2 C19_2 1_555 1_555
H13_2 C20_2 1_555 1_555
C21_2 C20_2 1_555 1_555
C22_2 C17_2 1_555 1_555
H14_2 C22_2 1_555 1_555
C23_2 C19_2 1_555 1_555
C24_2 C23_2 1_555 1_555
H15_2 C24_2 1_555 1_555
C25_2 C24_2 1_555 1_555
H16_2 C25_2 1_555 1_555
C26_2 H17_2 1_555 1_555
C27_2 C23_2 1_555 1_555
H18_2 C27_2 1_555 1_555
C28_2 C21_2 1_555 1_555
C29_2 C28_2 1_555 1_555
H19_2 C29_2 1_555 1_555
C30_2 C29_2 1_555 1_555
H20_2 C30_2 1_555 1_555
C31_2 H21_2 1_555 1_555
C32_2 C28_2 1_555 1_555
H22_2 C32_2 1_555 1_555
N11 C25_2 1_555 1_555
N13_2 C30_2 1_555 1_555
C21_2 C22_2 1_555 1_555
C26_2 C27_2 1_555 1_555
C26_2 N11 1_555 1_555
C31_2 C32_2 1_555 1_555
C31_2 N13_2 1_555 1_555
C35_3 H23_3 1_555 1_555
C36_3 C35_3 1_555 1_555
H24_3 C36_3 1_555 1_555
C37_3 C36_3 1_555 1_555
C40_3 C41_3 1_555 1_555
C41_3 H27_3 1_555 1_555
C42_3 C41_3 1_555 1_555
H28_3 C42_3 1_555 1_555
C43_3 C42_3 1_555 1_555
C44_3 C43_3 1_555 1_555
H29_3 C44_3 1_555 1_555
C45_3 C40_3 1_555 1_555
H30_3 C45_3 1_555 1_555
C46_3 C43_3 1_555 1_555
H33_2 C52_2 1_555 1_555
H34_2 C53_2 1_555 1_555
Co1_2 O5_3 1_555 1_555
Co16 O5_3 1_555 1_555
O2_3 C37_3 1_555 1_555
O17 C46_3 1_555 1_555
O19 C46_3 1_555 1_555
C100_2 C101_2 1_555 1_555
C101_2 C102_2 1_555 1_555
C102_2 H65_2 1_555 1_555
C103_2 C102_2 1_555 1_555
H66_2 C103_2 1_555 1_555
C104_2 O3_2 1_555 1_555
Co4_3 O23_2 1_555 1_555
Co9_2 O23_2 1_555 1_555
N13_3 Co16 1_555 1_555
O22_3 Co16 1_555 1_555
O23_2 C100_2 1_555 1_555
C40_3 O2_3 1_555 1_555
C44_3 C45_3 1_555 1_555
C52_2 C53_2 1_555 1_555
C103_2 C104_2 1_555 1_555
C1_3 H1_3 1_555 1_555
C2_3 C1_3 1_555 1_555
H2_3 C2_3 1_555 1_555
C3_3 C2_3 1_555 1_555
C4_3 C3_3 1_555 1_555
H3_3 C4_3 1_555 1_555
C5_3 C4_3 1_555 1_555
H4_3 C5_3 1_555 1_555
C6_3 C3_3 1_555 1_555
C7_3 C6_3 1_555 1_555
H5_3 C7_3 1_555 1_555
C8_3 C7_3 1_555 1_555
C9_3 C8_3 1_555 1_555
H6_3 C9_3 1_555 1_555
C10_3 C9_3 1_555 1_555
C11_3 C6_3 1_555 1_555
H7_3 C11_3 1_555 1_555
C12_3 C8_3 1_555 1_555
C13_3 C12_3 1_555 1_555
H8_3 C13_3 1_555 1_555
C14_3 C13_3 1_555 1_555
H9_3 C14_3 1_555 1_555
C15_3 H10_3 1_555 1_555
C16_3 C12_3 1_555 1_555
H11_3 C16_3 1_555 1_555
C17_3 C18_3 1_555 1_555
C18_3 H12_3 1_555 1_555
C19_3 C18_3 1_555 1_555
C20_3 C19_3 1_555 1_555
H13_3 C20_3 1_555 1_555
C21_3 C20_3 1_555 1_555
C22_3 C17_3 1_555 1_555
H14_3 C22_3 1_555 1_555
C23_3 C19_3 1_555 1_555
C24_3 C23_3 1_555 1_555
H15_3 C24_3 1_555 1_555
C25_3 C24_3 1_555 1_555
H16_3 C25_3 1_555 1_555
C26_3 H17_3 1_555 1_555
C27_3 C23_3 1_555 1_555
H18_3 C27_3 1_555 1_555
C28_3 C21_3 1_555 1_555
C29_3 C28_3 1_555 1_555
H19_3 C29_3 1_555 1_555
C30_3 C29_3 1_555 1_555
H20_3 C30_3 1_555 1_555
C31_3 H21_3 1_555 1_555
C32_3 C28_3 1_555 1_555
H22_3 C32_3 1_555 1_555
C33_3 C34_3 1_555 1_555
H25_3 C38_3 1_555 1_555
C39_3 C34_3 1_555 1_555
H26_3 C39_3 1_555 1_555
Co7 N1_3 1_555 1_555
N1_3 C1_3 1_555 1_555
N8_2 C14_3 1_555 1_555
N3_2 C25_3 1_555 1_555
N13_3 C30_3 1_555 1_555
O1_3 C10_3 1_555 1_555
O4_3 C33_3 1_555 1_555
O10_3 Co1_3 1_555 1_555
C54_3 H35_3 1_555 1_555
C55_3 C54_3 1_555 1_555
H36_3 C55_3 1_555 1_555
C56_3 C55_3 1_555 1_555
C57_3 C56_3 1_555 1_555
H37_3 C57_3 1_555 1_555
C58_3 C57_3 1_555 1_555
H38_3 C58_3 1_555 1_555
C59_3 C56_3 1_555 1_555
C60_3 C59_3 1_555 1_555
H39_3 C60_3 1_555 1_555
C61_3 C60_3 1_555 1_555
C62_3 C61_3 1_555 1_555
H40_3 C62_3 1_555 1_555
C63_3 C62_3 1_555 1_555
C64_3 C59_3 1_555 1_555
H41_3 C64_3 1_555 1_555
C65_3 C61_3 1_555 1_555
C66_3 C65_3 1_555 1_555
H42_3 C66_3 1_555 1_555
C67_3 C66_3 1_555 1_555
H43_3 C67_3 1_555 1_555
C68_3 H44_3 1_555 1_555
C69_3 C65_3 1_555 1_555
H45_3 C69_3 1_555 1_555
C70_3 C71_3 1_555 1_555
C71_3 H46_3 1_555 1_555
C72_3 C71_3 1_555 1_555
C73_3 C72_3 1_555 1_555
H47_3 C73_3 1_555 1_555
C74_3 C73_3 1_555 1_555
C75_3 C70_3 1_555 1_555
H48_3 C75_3 1_555 1_555
C76_3 C72_3 1_555 1_555
C77_3 C76_3 1_555 1_555
H49_3 C77_3 1_555 1_555
C78_3 C77_3 1_555 1_555
H50_3 C78_3 1_555 1_555
C79_3 H51_3 1_555 1_555
C80_3 C76_3 1_555 1_555
H52_3 C80_3 1_555 1_555
C81_3 C74_3 1_555 1_555
C82_3 C81_3 1_555 1_555
H53_3 C82_3 1_555 1_555
C83_3 C82_3 1_555 1_555
H54_3 C83_3 1_555 1_555
C84_3 H55_3 1_555 1_555
C85_3 C81_3 1_555 1_555
H56_3 C85_3 1_555 1_555
Co9_2 N5_2 1_555 1_555
Co14_2 N12_2 1_555 1_555
N5_2 C54_3 1_555 1_555
N9 C67_3 1_555 1_555
N10_3 Co7 1_555 1_555
N12_2 C83_3 1_555 1_555
O11_3 C63_3 1_555 1_555
O24_3 Co1_3 1_555 1_555
C5_3 N1_3 1_555 1_555
C10_3 C11_3 1_555 1_555
C15_3 C16_3 1_555 1_555
C15_3 N8_2 1_555 1_555
C17_3 O1_3 1_555 1_555
C21_3 C22_3 1_555 1_555
C26_3 C27_3 1_555 1_555
C26_3 N3_2 1_555 1_555
C31_3 C32_3 1_555 1_555
C31_3 N13_3 1_555 1_555
C38_3 C39_3 1_555 1_555
Co7 O4_3 1_555 1_555
Co7 O10_3 1_555 1_555
Co7 O24_3 1_555 1_555
C58_3 N5_2 1_555 1_555
C63_3 C64_3 1_555 1_555
C68_3 C69_3 1_555 1_555
C68_3 N9 1_555 1_555
C70_3 O11_3 1_555 1_555
C74_3 C75_3 1_555 1_555
C78_3 N10_3 1_555 1_555
C79_3 C80_3 1_555 1_555
C79_3 N10_3 1_555 1_555
C84_3 C85_3 1_555 1_555
C84_3 N12_2 1_555 1_555
Co14_2 O21_2 1_555 1_555
C47_2 C48_2 1_555 1_555
C48_2 C49_2 1_555 1_555
C49_2 H31_2 1_555 1_555
C50_2 C49_2 1_555 1_555
H32_2 C50_2 1_555 1_555
C51_2 C50_2 1_555 1_555
O3_3 C51_2 1_555 1_555
O9_2 C47_2 1_555 1_555
C86_3 C87_3 1_555 1_555
H59_3 C91_3 1_555 1_555
C92_3 C87_3 1_555 1_555
H60_3 C92_3 1_555 1_555
H67_2 C105_2 1_555 1_555
H68_2 C106_2 1_555 1_555
Co9 O9_2 1_555 1_555
N6_2 Co9 1_555 1_555
N11_2 Co9 1_555 1_555
O13_3 C86_3 1_555 1_555
O25_3 Co1_4 1_555 1_555
Co1_4 O9_2 1_555 1_555
C91_3 C92_3 1_555 1_555
C105_2 C106_2 1_555 1_555
Co9 O13_3 1_555 1_555
Co9 O25_3 1_555 1_555
C88_3 H57_3 1_555 1_555
C89_3 C88_3 1_555 1_555
H58_3 C89_3 1_555 1_555
C90_3 C89_3 1_555 1_555
C93_3 C94_3 1_555 1_555
C94_3 H61_3 1_555 1_555
C95_3 C94_3 1_555 1_555
H62_3 C95_3 1_555 1_555
C96_3 C95_3 1_555 1_555
C97_3 C96_3 1_555 1_555
H63_3 C97_3 1_555 1_555
C98_3 C93_3 1_555 1_555
H64_3 C98_3 1_555 1_555
C99_3 C96_3 1_555 1_555
Co14 O8_2 1_555 1_555
N14_2 Co14 1_555 1_555
O12_3 C90_3 1_555 1_555
O14_3 Co1_5 1_555 1_555
O16 C99_3 1_555 1_555
O20 C99_3 1_555 1_555
C93_3 O12_3 1_555 1_555
C97_3 C98_3 1_555 1_555
Co14 O14_3 1_555 1_555
C86_4 C87_4 1_555 1_555
H59_4 C91_4 1_555 1_555
C92_4 C87_4 1_555 1_555
H60_4 C92_4 1_555 1_555
O13_4 C86_4 1_555 1_555
C91_4 C92_4 1_555 1_555
Co9_2 O13_4 1_555 1_555
O25_4 Co4_4 1_555 1_555
C88_4 H57_4 1_555 1_555
C89_4 C88_4 1_555 1_555
H58_4 C89_4 1_555 1_555
C90_4 C89_4 1_555 1_555
C93_4 C94_4 1_555 1_555
C97_4 C96_4 1_555 1_555
H63_4 C97_4 1_555 1_555
C98_4 C93_4 1_555 1_555
H64_4 C98_4 1_555 1_555
O12_4 C90_4 1_555 1_555
O14_4 Co4_5 1_555 1_555
C93_4 O12_4 1_555 1_555
C97_4 C98_4 1_555 1_555
Co14_2 O14_4 1_555 1_555
H62_4 C95_4 1_555 1_555
O16_2 C99_4 1_555 1_555
H28_4 C42_4 1_555 1_555
O17_2 C46_4 1_555 1_555
C35_4 H23_4 1_555 1_555
C36_4 C35_4 1_555 1_555
H24_4 C36_4 1_555 1_555
C37_4 C36_4 1_555 1_555
C40_4 C41_4 1_555 1_555
C44_4 C43_4 1_555 1_555
H29_4 C44_4 1_555 1_555
C45_4 C40_4 1_555 1_555
H30_4 C45_4 1_555 1_555
Co4_8 O5_4 1_555 1_555
Co12 O5_4 1_555 1_555
O2_4 C37_4 1_555 1_555
N13_4 Co12 1_555 1_555
O22_4 Co12 1_555 1_555
C40_4 O2_4 1_555 1_555
C44_4 C45_4 1_555 1_555
O10_4 Co4_9 1_555 1_555
C54_4 H35_4 1_555 1_555
C55_4 C54_4 1_555 1_555
H36_4 C55_4 1_555 1_555
C56_4 C55_4 1_555 1_555
C57_4 C56_4 1_555 1_555
H37_4 C57_4 1_555 1_555
C58_4 C57_4 1_555 1_555
H38_4 C58_4 1_555 1_555
C59_4 C56_4 1_555 1_555
C60_4 C59_4 1_555 1_555
H39_4 C60_4 1_555 1_555
C61_4 C60_4 1_555 1_555
C62_4 C61_4 1_555 1_555
H40_4 C62_4 1_555 1_555
C63_4 C62_4 1_555 1_555
C64_4 C59_4 1_555 1_555
H41_4 C64_4 1_555 1_555
C65_4 C61_4 1_555 1_555
C66_4 C65_4 1_555 1_555
H42_4 C66_4 1_555 1_555
C67_4 C66_4 1_555 1_555
H43_4 C67_4 1_555 1_555
C68_4 H44_4 1_555 1_555
C69_4 C65_4 1_555 1_555
H45_4 C69_4 1_555 1_555
C70_4 C71_4 1_555 1_555
C71_4 H46_4 1_555 1_555
C72_4 C71_4 1_555 1_555
C73_4 C72_4 1_555 1_555
H47_4 C73_4 1_555 1_555
C74_4 C73_4 1_555 1_555
C75_4 C70_4 1_555 1_555
H48_4 C75_4 1_555 1_555
C76_4 C72_4 1_555 1_555
C77_4 C76_4 1_555 1_555
H49_4 C77_4 1_555 1_555
C78_4 C77_4 1_555 1_555
H50_4 C78_4 1_555 1_555
C79_4 H51_4 1_555 1_555
C80_4 C76_4 1_555 1_555
H52_4 C80_4 1_555 1_555
C81_4 C74_4 1_555 1_555
C82_4 C81_4 1_555 1_555
H53_4 C82_4 1_555 1_555
C83_4 C82_4 1_555 1_555
H54_4 C83_4 1_555 1_555
C84_4 H55_4 1_555 1_555
C85_4 C81_4 1_555 1_555
H56_4 C85_4 1_555 1_555
N6_2 C54_4 1_555 1_555
N9_2 C67_4 1_555 1_555
N14_2 C83_4 1_555 1_555
O11_4 C63_4 1_555 1_555
C58_4 N6_2 1_555 1_555
C63_4 C64_4 1_555 1_555
C68_4 C69_4 1_555 1_555
C68_4 N9_2 1_555 1_555
C70_4 O11_4 1_555 1_555
C74_4 C75_4 1_555 1_555
C78_4 N10_4 1_555 1_555
C79_4 C80_4 1_555 1_555
C79_4 N10_4 1_555 1_555
C84_4 C85_4 1_555 1_555
C84_4 N14_2 1_555 1_555
C1_4 H1_4 1_555 1_555
C2_4 C1_4 1_555 1_555
H2_4 C2_4 1_555 1_555
C3_4 C2_4 1_555 1_555
C4_4 C3_4 1_555 1_555
H3_4 C4_4 1_555 1_555
C5_4 C4_4 1_555 1_555
H4_4 C5_4 1_555 1_555
C6_4 C3_4 1_555 1_555
C7_4 C6_4 1_555 1_555
H5_4 C7_4 1_555 1_555
C8_4 C7_4 1_555 1_555
C9_4 C8_4 1_555 1_555
H6_4 C9_4 1_555 1_555
C10_4 C9_4 1_555 1_555
C11_4 C6_4 1_555 1_555
H7_4 C11_4 1_555 1_555
C12_4 C8_4 1_555 1_555
C13_4 C12_4 1_555 1_555
H8_4 C13_4 1_555 1_555
C14_4 C13_4 1_555 1_555
H9_4 C14_4 1_555 1_555
C15_4 H10_4 1_555 1_555
C16_4 C12_4 1_555 1_555
H11_4 C16_4 1_555 1_555
C17_4 C18_4 1_555 1_555
C18_4 H12_4 1_555 1_555
C19_4 C18_4 1_555 1_555
C20_4 C19_4 1_555 1_555
H13_4 C20_4 1_555 1_555
C21_4 C20_4 1_555 1_555
C22_4 C17_4 1_555 1_555
H14_4 C22_4 1_555 1_555
C23_4 C19_4 1_555 1_555
C24_4 C23_4 1_555 1_555
H15_4 C24_4 1_555 1_555
C25_4 C24_4 1_555 1_555
H16_4 C25_4 1_555 1_555
C26_4 H17_4 1_555 1_555
C27_4 C23_4 1_555 1_555
H18_4 C27_4 1_555 1_555
C28_4 C21_4 1_555 1_555
C29_4 C28_4 1_555 1_555
H19_4 C29_4 1_555 1_555
C30_4 C29_4 1_555 1_555
H20_4 C30_4 1_555 1_555
C31_4 H21_4 1_555 1_555
C32_4 C28_4 1_555 1_555
H22_4 C32_4 1_555 1_555
C33_4 C34_4 1_555 1_555
H25_4 C38_4 1_555 1_555
C39_4 C34_4 1_555 1_555
H26_4 C39_4 1_555 1_555
Co7_2 N1_4 1_555 1_555
N1_4 C1_4 1_555 1_555
N8 C14_4 1_555 1_555
N11_2 C25_4 1_555 1_555
N13_4 C30_4 1_555 1_555
O1_4 C10_4 1_555 1_555
O4_4 C33_4 1_555 1_555
O24_4 Co4_10 1_555 1_555
C5_4 N1_4 1_555 1_555
C10_4 C11_4 1_555 1_555
C15_4 C16_4 1_555 1_555
C15_4 N8 1_555 1_555
C17_4 O1_4 1_555 1_555
C21_4 C22_4 1_555 1_555
C26_4 C27_4 1_555 1_555
C26_4 N11_2 1_555 1_555
C31_4 C32_4 1_555 1_555
C31_4 N13_4 1_555 1_555
C38_4 C39_4 1_555 1_555
Co7_2 O4_4 1_555 1_555
Co7_2 O24_4 1_555 1_555
C47_3 C48_3 1_555 1_555
C48_3 C49_3 1_555 1_555
C49_3 H31_3 1_555 1_555
C50_3 C49_3 1_555 1_555
H32_3 C50_3 1_555 1_555
C51_3 C50_3 1_555 1_555
C52_3 C51_3 1_555 1_555
H33_3 C52_3 1_555 1_555
C53_3 C48_3 1_555 1_555
H34_3 C53_3 1_555 1_555
O3_4 C51_3 1_555 1_555
O22 C47_3 1_555 1_555
O24 C47_3 1_555 1_555
C100_3 C101_3 1_555 1_555
C101_3 C102_3 1_555 1_555
C102_3 H65_3 1_555 1_555
C103_3 C102_3 1_555 1_555
H66_3 C103_3 1_555 1_555
C104_3 O3_4 1_555 1_555
C105_3 C104_3 1_555 1_555
H67_3 C105_3 1_555 1_555
C106_3 C101_3 1_555 1_555
H68_3 C106_3 1_555 1_555
O22_2 C100_3 1_555 1_555
O24_2 C100_3 1_555 1_555
C52_3 C53_3 1_555 1_555
C103_3 C104_3 1_555 1_555
C105_3 C106_3 1_555 1_555
C47_4 C48_4 1_555 1_555
C48_4 C49_4 1_555 1_555
C49_4 H31_4 1_555 1_555
C50_4 C49_4 1_555 1_555
H32_4 C50_4 1_555 1_555
C51_4 C50_4 1_555 1_555
O3_5 C51_4 1_555 1_555
O24_3 C47_4 1_555 1_555
H67_4 C105_4 1_555 1_555
H68_4 C106_4 1_555 1_555
C105_4 C106_4 1_555 1_555
H33_4 C52_4 1_555 1_555
H34_4 C53_4 1_555 1_555
C100_4 C101_4 1_555 1_555
C101_4 C102_4 1_555 1_555
C102_4 H65_4 1_555 1_555
C103_4 C102_4 1_555 1_555
H66_4 C103_4 1_555 1_555
C104_4 O3_6 1_555 1_555
O24_4 C100_4 1_555 1_555
C52_4 C53_4 1_555 1_555
C103_4 C104_4 1_555 1_555

#END
