
###############################################################################
#
# This file contains modified crystal structure data generated from the
# MOF subset of the Cambridge Structural Database (CSD) v543 
# hosted by the Cambridge Crystallographic Data Centre (CCDC).
#
# This work is licensed under the Creative Commons
# Attribution-NonCommercial-ShareAlike 4.0 International License.
# To view a copy of this license, visit
# http://creativecommons.org/licenses/by-nc-sa/4.0/
# or send a letter to
# Creative Commons, PO Box 1866, Mountain View, CA 94042, USA.
#
# CIF created using the CSD Python API on 29 September 2022
# The structure has been converted into the P1 space group
# The structure has a 3D framework
# The original CSD entry CEKPER is in the orthorhombic crystal system
# The framework has been calculated to contain at least 10.0% void space
# The void calculation uses a probe of radius 1.32A, grid spacing 0.4
#
###############################################################################

data_CEKPER
_chemical_formula_moiety         '(C544 H384 N64 O160 S32 Zn28)n'
_symmetry_cell_setting           triclinic
_symmetry_space_group_name_H-M   'P 1'
_symmetry_Int_Tables_number      1
_space_group_name_Hall           'P 1'
loop_
_symmetry_equiv_pos_site_id
_symmetry_equiv_pos_as_xyz
1 x,y,z
_cell_length_a                   18.9606(5)
_cell_length_b                   21.2169(4)
_cell_length_c                   42.6830(12)
_cell_angle_alpha                90
_cell_angle_beta                 90
_cell_angle_gamma                90
_cell_volume                     17170.7
loop_
_atom_site_label
_atom_site_type_symbol
_atom_site_fract_x
_atom_site_fract_y
_atom_site_fract_z
Zn1 Zn 0.375000 0.375000 0.67521(2)
Zn2 Zn 0.500000 0.250000 0.750000
O1 O 0.45904(9) 0.41382(8) 0.69309(4)
O2 O 0.46692(8) 0.32641(7) 0.72110(4)
C1 C 0.48982(12) 0.37937(10) 0.71343(5)
C2 C 0.55374(12) 0.40837(10) 0.72861(5)
C3 C 0.54398(14) 0.46675(11) 0.74346(6)
H1 H 0.499138 0.486643 0.742624
C4 C 0.59917(15) 0.49590(12) 0.75939(8)
H2 H 0.591561 0.534955 0.769739
C5 C 0.66524(14) 0.46788(13) 0.76013(7)
H3 H 0.702970 0.487837 0.770898
C6 C 0.67630(13) 0.41030(12) 0.74503(6)
H4 H 0.721800 0.391563 0.745254
C7 C 0.62109(12) 0.38031(10) 0.72969(5)
S1 S 0.63726(3) 0.30560(2) 0.71195(2)
O3 O 0.60796(8) 0.25905(7) 0.73414(4)
O4 O 0.60132(11) 0.30520(9) 0.68214(4)
O5 O 0.71326(9) 0.29966(8) 0.70959(4)
N1 N 0.34725(12) 0.44530(10) 0.64492(4)
C8 C 0.28091(14) 0.46627(12) 0.64188(6)
H5 H 0.244936 0.447839 0.654372
C9 C 0.26304(14) 0.51384(12) 0.62117(6)
H6 H 0.215441 0.527439 0.619539
C10 C 0.31475(13) 0.54164(11) 0.60278(5)
C11 C 0.38393(16) 0.51940(17) 0.60597(7)
H7 H 0.420810 0.536696 0.593591
C12 C 0.39806(16) 0.47182(17) 0.62739(7)
H8 H 0.445250 0.457531 0.629730
N2 N 0.27049(9) 0.68918(8) 0.53737(4)
C13 C 0.22032(11) 0.64765(10) 0.54575(5)
H9 H 0.174787 0.651394 0.536645
C14 C 0.23225(12) 0.59972(10) 0.56706(5)
H10 H 0.195485 0.571232 0.572366
C15 C 0.29887(12) 0.59359(10) 0.58072(5)
C16 C 0.35011(12) 0.63832(13) 0.57249(5)
H11 H 0.395680 0.636576 0.581705
C17 C 0.33422(11) 0.68511(11) 0.55091(5)
H12 H 0.369426 0.715094 0.545560
O6 O 0.29096(9) 0.33618(8) 0.69309(4)
O7 O 0.28308(8) 0.42359(7) 0.72110(4)
C18 C 0.26018(12) 0.37063(10) 0.71343(5)
C19 C 0.19626(12) 0.34163(10) 0.72861(5)
C20 C 0.20602(14) 0.28325(11) 0.74346(6)
H13 H 0.250862 0.263357 0.742624
C21 C 0.15083(15) 0.25410(12) 0.75939(8)
H14 H 0.158439 0.215045 0.769739
C22 C 0.08476(14) 0.28212(13) 0.76013(7)
H15 H 0.047030 0.262163 0.770898
C23 C 0.07370(13) 0.33970(12) 0.74503(6)
H16 H 0.028200 0.358437 0.745254
C24 C 0.12891(12) 0.36969(10) 0.72969(5)
S2 S 0.11274(3) 0.44440(2) 0.71195(2)
O8 O 0.14204(8) 0.49095(7) 0.73414(4)
O9 O 0.14868(11) 0.44480(9) 0.68214(4)
O10 O 0.03674(9) 0.45034(8) 0.70959(4)
N3 N 0.40275(12) 0.30470(10) 0.64492(4)
C25 C 0.46909(14) 0.28373(12) 0.64188(6)
H17 H 0.505064 0.302161 0.654372
C26 C 0.48696(14) 0.23616(12) 0.62117(6)
H18 H 0.534559 0.222561 0.619539
C27 C 0.43525(13) 0.20836(11) 0.60278(5)
C28 C 0.36607(16) 0.23060(17) 0.60597(7)
H19 H 0.329190 0.213304 0.593591
C29 C 0.35194(16) 0.27818(17) 0.62739(7)
H20 H 0.304750 0.292469 0.629730
N4 N 0.47951(9) 0.06082(8) 0.53737(4)
C30 C 0.52968(11) 0.10235(10) 0.54575(5)
H21 H 0.575213 0.098606 0.536645
C31 C 0.51775(12) 0.15028(10) 0.56706(5)
H22 H 0.554515 0.178768 0.572366
C32 C 0.45113(12) 0.15641(10) 0.58072(5)
C33 C 0.39989(12) 0.11168(13) 0.57249(5)
H23 H 0.354320 0.113424 0.581705
C34 C 0.41578(11) 0.06489(11) 0.55091(5)
H24 H 0.380574 0.034906 0.545560
Zn3 Zn 0.250000 0.500000 0.750000
Zn4 Zn 0.250000 0.750000 0.500000
Zn5 Zn 0.500000 0.000000 0.500000
O11 O 0.53308(8) 0.17359(7) 0.77890(4)
O12 O 0.39204(8) 0.24095(7) 0.76586(4)
N5 N 0.47951(9) 0.18918(8) 0.71263(4)
N6 N 0.52049(9) 0.31082(8) 0.78737(4)
Zn5_2 Zn 0.500000 1.000000 0.500000
O11_2 O 0.21692(8) 0.57641(7) 0.77890(4)
O12_2 O 0.35796(8) 0.50905(7) 0.76586(4)
N5_2 N 0.27049(9) 0.56082(8) 0.71263(4)
N6_2 N 0.22951(9) 0.43918(8) 0.78737(4)
Zn1_2 Zn 0.375000 0.375000 0.07479(2)
Zn2_2 Zn 0.250000 0.250000 0.000000
O1_2 O 0.29096(9) 0.41382(8) 0.05691(4)
O2_2 O 0.28308(8) 0.32641(7) 0.02890(4)
C1_2 C 0.26018(12) 0.37937(10) 0.03657(5)
C2_2 C 0.19626(12) 0.40837(10) 0.02139(5)
C3_2 C 0.20602(14) 0.46675(11) 0.00654(6)
H1_2 H 0.250862 0.486643 0.007376
C6_2 C 0.07370(13) 0.41030(12) 0.00497(6)
H4_2 H 0.028200 0.391563 0.004746
C7_2 C 0.12891(12) 0.38031(10) 0.02031(5)
S1_2 S 0.11274(3) 0.30560(2) 0.03805(2)
O3_2 O 0.14204(8) 0.25905(7) 0.01586(4)
O4_2 O 0.14868(11) 0.30520(9) 0.06786(4)
O5_2 O 0.03674(9) 0.29966(8) 0.04041(4)
N1_2 N 0.40275(12) 0.44530(10) 0.10508(4)
C8_2 C 0.46909(14) 0.46627(12) 0.10812(6)
H5_2 H 0.505064 0.447839 0.095628
C9_2 C 0.48696(14) 0.51384(12) 0.12883(6)
H6_2 H 0.534559 0.527439 0.130461
C10_2 C 0.43525(13) 0.54164(11) 0.14722(5)
C11_2 C 0.36607(16) 0.51940(17) 0.14403(7)
H7_2 H 0.329190 0.536696 0.156409
C12_2 C 0.35194(16) 0.47182(17) 0.12261(7)
H8_2 H 0.304750 0.457531 0.120270
N2_2 N 0.47951(9) 0.68918(8) 0.21263(4)
C13_2 C 0.52968(11) 0.64765(10) 0.20425(5)
H9_2 H 0.575213 0.651394 0.213355
C14_2 C 0.51775(12) 0.59972(10) 0.18294(5)
H10_2 H 0.554515 0.571232 0.177634
C15_2 C 0.45113(12) 0.59359(10) 0.16928(5)
C16_2 C 0.39989(12) 0.63832(13) 0.17751(5)
H11_2 H 0.354320 0.636576 0.168295
C17_2 C 0.41578(11) 0.68511(11) 0.19909(5)
H12_2 H 0.380574 0.715094 0.204440
O6_2 O 0.45904(9) 0.33618(8) 0.05691(4)
O7_2 O 0.46692(8) 0.42359(7) 0.02890(4)
C18_2 C 0.48982(12) 0.37063(10) 0.03657(5)
C19_2 C 0.55374(12) 0.34163(10) 0.02139(5)
C20_2 C 0.54398(14) 0.28325(11) 0.00654(6)
H13_2 H 0.499138 0.263357 0.007376
C23_2 C 0.67630(13) 0.33970(12) 0.00497(6)
H16_2 H 0.721800 0.358437 0.004746
C24_2 C 0.62109(12) 0.36969(10) 0.02031(5)
S2_2 S 0.63726(3) 0.44440(2) 0.03805(2)
O8_2 O 0.60796(8) 0.49095(7) 0.01586(4)
O9_2 O 0.60132(11) 0.44480(9) 0.06786(4)
O10_2 O 0.71326(9) 0.45034(8) 0.04041(4)
N3_2 N 0.34725(12) 0.30470(10) 0.10508(4)
C25_2 C 0.28091(14) 0.28373(12) 0.10812(6)
H17_2 H 0.244936 0.302161 0.095628
C26_2 C 0.26304(14) 0.23616(12) 0.12883(6)
H18_2 H 0.215441 0.222561 0.130461
C27_2 C 0.31475(13) 0.20836(11) 0.14722(5)
C28_2 C 0.38393(16) 0.23060(17) 0.14403(7)
H19_2 H 0.420810 0.213304 0.156409
C29_2 C 0.39806(16) 0.27818(17) 0.12261(7)
H20_2 H 0.445250 0.292469 0.120270
N4_2 N 0.27049(9) 0.06082(8) 0.21263(4)
C30_2 C 0.22032(11) 0.10235(10) 0.20425(5)
H21_2 H 0.174787 0.098606 0.213355
C31_2 C 0.23225(12) 0.15028(10) 0.18294(5)
H22_2 H 0.195485 0.178768 0.177634
C32_2 C 0.29887(12) 0.15641(10) 0.16928(5)
C33_2 C 0.35011(12) 0.11168(13) 0.17751(5)
H23_2 H 0.395680 0.113424 0.168295
C34_2 C 0.33422(11) 0.06489(11) 0.19909(5)
H24_2 H 0.369426 0.034906 0.204440
Zn3_2 Zn 0.500000 0.500000 0.000000
Zn4_2 Zn 0.500000 0.750000 0.250000
Zn5_3 Zn 0.250000 0.000000 0.250000
N5_3 N 0.27049(9) 0.18918(8) 0.03737(4)
Zn2_3 Zn 0.250000 0.250000 1.000000
C4_2 C 0.15083(15) 0.49590(12) 0.99061(8)
H2_2 H 0.158439 0.534955 0.980261
C5_2 C 0.08476(14) 0.46788(13) 0.98987(7)
H3_2 H 0.047030 0.487837 0.979102
C21_2 C 0.59917(15) 0.25410(12) 0.99061(8)
H14_2 H 0.591561 0.215045 0.980261
C22_2 C 0.66524(14) 0.28212(13) 0.98987(7)
H15_2 H 0.702970 0.262163 0.979102
Zn3_3 Zn 0.500000 0.500000 1.000000
O11_3 O 0.21692(8) 0.17359(7) 0.97110(4)
O12_3 O 0.35796(8) 0.24095(7) 0.98414(4)
N6_3 N 0.22951(9) 0.31082(8) 0.96263(4)
Zn5_4 Zn 0.250000 1.000000 0.250000
N5_4 N 0.47951(9) 0.56082(8) 0.03737(4)
O11_4 O 0.53308(8) 0.57641(7) 0.97110(4)
O12_4 O 0.39204(8) 0.50905(7) 0.98414(4)
N6_4 N 0.52049(9) 0.43918(8) 0.96263(4)
H2_3 H 0.591561 0.034955 0.269739
C9_3 C 0.26304(14) 0.01384(12) 0.12117(6)
H6_3 H 0.215441 0.027439 0.119539
C10_3 C 0.31475(13) 0.04164(11) 0.10278(5)
C11_3 C 0.38393(16) 0.01940(17) 0.10597(7)
H7_3 H 0.420810 0.036696 0.093591
C13_3 C 0.22032(11) 0.14765(10) 0.04575(5)
H9_3 H 0.174787 0.151394 0.036645
C14_3 C 0.23225(12) 0.09972(10) 0.06706(5)
H10_3 H 0.195485 0.071232 0.072366
C15_3 C 0.29887(12) 0.09359(10) 0.08072(5)
C16_3 C 0.35011(12) 0.13832(13) 0.07249(5)
H11_3 H 0.395680 0.136576 0.081705
C17_3 C 0.33422(11) 0.18511(11) 0.05091(5)
H12_3 H 0.369426 0.215094 0.045560
Zn1_3 Zn 0.375000 0.875000 0.17521(2)
O1_3 O 0.45904(9) 0.91382(8) 0.19309(4)
O2_3 O 0.46692(8) 0.82641(7) 0.22110(4)
C1_3 C 0.48982(12) 0.87937(10) 0.21343(5)
C2_3 C 0.55374(12) 0.90837(10) 0.22861(5)
C3_3 C 0.54398(14) 0.96675(11) 0.24346(6)
H1_3 H 0.499138 0.986643 0.242624
C4_3 C 0.59917(15) 0.99590(12) 0.25939(8)
C5_3 C 0.66524(14) 0.96788(13) 0.26013(7)
H3_3 H 0.702970 0.987837 0.270898
C6_3 C 0.67630(13) 0.91030(12) 0.24503(6)
H4_3 H 0.721800 0.891563 0.245254
C7_3 C 0.62109(12) 0.88031(10) 0.22969(5)
S1_3 S 0.63726(3) 0.80560(2) 0.21195(2)
O3_3 O 0.60796(8) 0.75905(7) 0.23414(4)
O4_3 O 0.60132(11) 0.80520(9) 0.18214(4)
O5_3 O 0.71326(9) 0.79966(8) 0.20959(4)
N1_3 N 0.34725(12) 0.94530(10) 0.14492(4)
C8_3 C 0.28091(14) 0.96627(12) 0.14188(6)
H5_3 H 0.244936 0.947839 0.154372
C12_3 C 0.39806(16) 0.97182(17) 0.12739(7)
H8_3 H 0.445250 0.957531 0.129730
O6_3 O 0.29096(9) 0.83618(8) 0.19309(4)
O7_3 O 0.28308(8) 0.92359(7) 0.22110(4)
C18_3 C 0.26018(12) 0.87063(10) 0.21343(5)
C19_3 C 0.19626(12) 0.84163(10) 0.22861(5)
C20_3 C 0.20602(14) 0.78325(11) 0.24346(6)
H13_3 H 0.250862 0.763357 0.242624
C21_3 C 0.15083(15) 0.75410(12) 0.25939(8)
H14_3 H 0.158439 0.715045 0.269739
C22_3 C 0.08476(14) 0.78212(13) 0.26013(7)
H15_3 H 0.047030 0.762163 0.270898
C23_3 C 0.07370(13) 0.83970(12) 0.24503(6)
H16_3 H 0.028200 0.858437 0.245254
C24_3 C 0.12891(12) 0.86969(10) 0.22969(5)
S2_3 S 0.11274(3) 0.94440(2) 0.21195(2)
O8_3 O 0.14204(8) 0.99095(7) 0.23414(4)
O9_3 O 0.14868(11) 0.94480(9) 0.18214(4)
O10_3 O 0.03674(9) 0.95034(8) 0.20959(4)
N3_3 N 0.40275(12) 0.80470(10) 0.14492(4)
C25_3 C 0.46909(14) 0.78373(12) 0.14188(6)
H17_3 H 0.505064 0.802161 0.154372
C26_3 C 0.48696(14) 0.73616(12) 0.12117(6)
H18_3 H 0.534559 0.722561 0.119539
C27_3 C 0.43525(13) 0.70836(11) 0.10278(5)
C28_3 C 0.36607(16) 0.73060(17) 0.10597(7)
H19_3 H 0.329190 0.713304 0.093591
C29_3 C 0.35194(16) 0.77818(17) 0.12739(7)
H20_3 H 0.304750 0.792469 0.129730
C30_3 C 0.52968(11) 0.60235(10) 0.04575(5)
H21_3 H 0.575213 0.598606 0.036645
C31_3 C 0.51775(12) 0.65028(10) 0.06706(5)
H22_3 H 0.554515 0.678768 0.072366
C32_3 C 0.45113(12) 0.65641(10) 0.08072(5)
C33_3 C 0.39989(12) 0.61168(13) 0.07249(5)
H23_3 H 0.354320 0.613424 0.081705
C34_3 C 0.41578(11) 0.56489(11) 0.05091(5)
H24_3 H 0.380574 0.534906 0.045560
O11_5 O 0.53308(8) 0.67359(7) 0.27890(4)
O12_5 O 0.39204(8) 0.74095(7) 0.26586(4)
N6_5 N 0.52049(9) 0.81082(8) 0.28737(4)
O11_6 O 0.21692(8) 0.07641(7) 0.27890(4)
O12_6 O 0.35796(8) 0.00905(7) 0.26586(4)
N6_6 N 0.22951(9) 0.93918(8) 0.28737(4)
H2_4 H 0.158439 0.034955 0.480261
C9_4 C 0.48696(14) 0.01384(12) 0.62883(6)
H6_4 H 0.534559 0.027439 0.630461
C10_4 C 0.43525(13) 0.04164(11) 0.64722(5)
C11_4 C 0.36607(16) 0.01940(17) 0.64403(7)
H7_4 H 0.329190 0.036696 0.656409
C13_4 C 0.52968(11) 0.14765(10) 0.70425(5)
H9_4 H 0.575213 0.151394 0.713355
C14_4 C 0.51775(12) 0.09972(10) 0.68294(5)
H10_4 H 0.554515 0.071232 0.677634
C15_4 C 0.45113(12) 0.09359(10) 0.66928(5)
C16_4 C 0.39989(12) 0.13832(13) 0.67751(5)
H11_4 H 0.354320 0.136576 0.668295
C17_4 C 0.41578(11) 0.18511(11) 0.69909(5)
H12_4 H 0.380574 0.215094 0.704440
Zn1_4 Zn 0.375000 0.875000 0.57479(2)
O1_4 O 0.29096(9) 0.91382(8) 0.55691(4)
O2_4 O 0.28308(8) 0.82641(7) 0.52890(4)
C1_4 C 0.26018(12) 0.87937(10) 0.53657(5)
C2_4 C 0.19626(12) 0.90837(10) 0.52139(5)
C3_4 C 0.20602(14) 0.96675(11) 0.50654(6)
H1_4 H 0.250862 0.986643 0.507376
C4_4 C 0.15083(15) 0.99590(12) 0.49061(8)
C5_4 C 0.08476(14) 0.96788(13) 0.48987(7)
H3_4 H 0.047030 0.987837 0.479102
C6_4 C 0.07370(13) 0.91030(12) 0.50497(6)
H4_4 H 0.028200 0.891563 0.504746
C7_4 C 0.12891(12) 0.88031(10) 0.52031(5)
S1_4 S 0.11274(3) 0.80560(2) 0.53805(2)
O3_4 O 0.14204(8) 0.75905(7) 0.51586(4)
O4_4 O 0.14868(11) 0.80520(9) 0.56786(4)
O5_4 O 0.03674(9) 0.79966(8) 0.54041(4)
N1_4 N 0.40275(12) 0.94530(10) 0.60508(4)
C8_4 C 0.46909(14) 0.96627(12) 0.60812(6)
H5_4 H 0.505064 0.947839 0.595628
C12_4 C 0.35194(16) 0.97182(17) 0.62261(7)
H8_4 H 0.304750 0.957531 0.620270
O6_4 O 0.45904(9) 0.83618(8) 0.55691(4)
O7_4 O 0.46692(8) 0.92359(7) 0.52890(4)
C18_4 C 0.48982(12) 0.87063(10) 0.53657(5)
C19_4 C 0.55374(12) 0.84163(10) 0.52139(5)
C20_4 C 0.54398(14) 0.78325(11) 0.50654(6)
H13_4 H 0.499138 0.763357 0.507376
C21_4 C 0.59917(15) 0.75410(12) 0.49061(8)
H14_4 H 0.591561 0.715045 0.480261
C22_4 C 0.66524(14) 0.78212(13) 0.48987(7)
H15_4 H 0.702970 0.762163 0.479102
C23_4 C 0.67630(13) 0.83970(12) 0.50497(6)
H16_4 H 0.721800 0.858437 0.504746
C24_4 C 0.62109(12) 0.86969(10) 0.52031(5)
S2_4 S 0.63726(3) 0.94440(2) 0.53805(2)
O8_4 O 0.60796(8) 0.99095(7) 0.51586(4)
O9_4 O 0.60132(11) 0.94480(9) 0.56786(4)
O10_4 O 0.71326(9) 0.95034(8) 0.54041(4)
N3_4 N 0.34725(12) 0.80470(10) 0.60508(4)
C25_4 C 0.28091(14) 0.78373(12) 0.60812(6)
H17_4 H 0.244936 0.802161 0.595628
C26_4 C 0.26304(14) 0.73616(12) 0.62883(6)
H18_4 H 0.215441 0.722561 0.630461
C27_4 C 0.31475(13) 0.70836(11) 0.64722(5)
C28_4 C 0.38393(16) 0.73060(17) 0.64403(7)
H19_4 H 0.420810 0.713304 0.656409
C29_4 C 0.39806(16) 0.77818(17) 0.62261(7)
H20_4 H 0.445250 0.792469 0.620270
C30_4 C 0.22032(11) 0.60235(10) 0.70425(5)
H21_4 H 0.174787 0.598606 0.713355
C31_4 C 0.23225(12) 0.65028(10) 0.68294(5)
H22_4 H 0.195485 0.678768 0.677634
C32_4 C 0.29887(12) 0.65641(10) 0.66928(5)
C33_4 C 0.35011(12) 0.61168(13) 0.67751(5)
H23_4 H 0.395680 0.613424 0.668295
C34_4 C 0.33422(11) 0.56489(11) 0.69909(5)
H24_4 H 0.369426 0.534906 0.704440
O11_7 O 0.21692(8) 0.67359(7) 0.47110(4)
O12_7 O 0.35796(8) 0.74095(7) 0.48414(4)
N6_7 N 0.22951(9) 0.81082(8) 0.46263(4)
O11_8 O 0.53308(8) 0.07641(7) 0.47110(4)
O12_8 O 0.39204(8) 0.00905(7) 0.48414(4)
N6_8 N 0.52049(9) 0.93918(8) 0.46263(4)
Zn2_4 Zn 0.000000 0.250000 0.250000
C2_5 C 0.05374(12) 0.40837(10) 0.22861(5)
C3_5 C 0.04398(14) 0.46675(11) 0.24346(6)
C4_5 C 0.09917(15) 0.49590(12) 0.25939(8)
H2_5 H 0.091561 0.534955 0.269739
C5_5 C 0.16524(14) 0.46788(13) 0.26013(7)
H3_5 H 0.202970 0.487837 0.270898
C6_5 C 0.17630(13) 0.41030(12) 0.24503(6)
H4_5 H 0.221800 0.391563 0.245254
C7_5 C 0.12109(12) 0.38031(10) 0.22969(5)
S1_5 S 0.13726(3) 0.30560(2) 0.21195(2)
O3_5 O 0.10796(8) 0.25905(7) 0.23414(4)
O4_5 O 0.10132(11) 0.30520(9) 0.18214(4)
O5_5 O 0.21326(9) 0.29966(8) 0.20959(4)
H17_5 H 0.005064 0.302161 0.154372
H18_5 H 0.034559 0.222561 0.119539
C30_5 C 0.02968(11) 0.10235(10) 0.04575(5)
H21_5 H 0.075213 0.098606 0.036645
C31_5 C 0.01775(12) 0.15028(10) 0.06706(5)
H22_5 H 0.054515 0.178768 0.072366
Zn5_5 Zn 0.000000 0.000000 -0.000000
O11_9 O 0.03308(8) 0.17359(7) 0.27890(4)
N6_9 N 0.02049(9) 0.31082(8) 0.28737(4)
Zn5_6 Zn 0.000000 0.000000 1.000000
Zn5_7 Zn 0.000000 1.000000 -0.000000
Zn5_8 Zn 0.000000 1.000000 1.000000
Zn1_5 Zn 0.875000 0.375000 0.17521(2)
Zn2_5 Zn 1.000000 0.250000 0.250000
O1_5 O 0.95904(9) 0.41382(8) 0.19309(4)
O2_5 O 0.96692(8) 0.32641(7) 0.22110(4)
C1_5 C 0.98982(12) 0.37937(10) 0.21343(5)
H1_5 H 0.999138 0.486643 0.242624
N1_5 N 0.84725(12) 0.44530(10) 0.14492(4)
C8_5 C 0.78091(14) 0.46627(12) 0.14188(6)
H5_5 H 0.744936 0.447839 0.154372
C9_5 C 0.76304(14) 0.51384(12) 0.12117(6)
H6_5 H 0.715441 0.527439 0.119539
C10_5 C 0.81475(13) 0.54164(11) 0.10278(5)
C11_5 C 0.88393(16) 0.51940(17) 0.10597(7)
H7_5 H 0.920810 0.536696 0.093591
C12_5 C 0.89806(16) 0.47182(17) 0.12739(7)
H8_5 H 0.945250 0.457531 0.129730
N2_3 N 0.77049(9) 0.68918(8) 0.03737(4)
C13_5 C 0.72032(11) 0.64765(10) 0.04575(5)
H9_5 H 0.674787 0.651394 0.036645
C14_5 C 0.73225(12) 0.59972(10) 0.06706(5)
H10_5 H 0.695485 0.571232 0.072366
C15_5 C 0.79887(12) 0.59359(10) 0.08072(5)
C16_5 C 0.85011(12) 0.63832(13) 0.07249(5)
H11_5 H 0.895680 0.636576 0.081705
C17_5 C 0.83422(11) 0.68511(11) 0.05091(5)
H12_5 H 0.869426 0.715094 0.045560
O6_5 O 0.79096(9) 0.33618(8) 0.19309(4)
O7_5 O 0.78308(8) 0.42359(7) 0.22110(4)
C18_5 C 0.76018(12) 0.37063(10) 0.21343(5)
C19_5 C 0.69626(12) 0.34163(10) 0.22861(5)
C20_5 C 0.70602(14) 0.28325(11) 0.24346(6)
H13_5 H 0.750862 0.263357 0.242624
C21_5 C 0.65083(15) 0.25410(12) 0.25939(8)
H14_5 H 0.658439 0.215045 0.269739
C22_5 C 0.58476(14) 0.28212(13) 0.26013(7)
H15_5 H 0.547030 0.262163 0.270898
C23_5 C 0.57370(13) 0.33970(12) 0.24503(6)
H16_5 H 0.528200 0.358437 0.245254
C24_5 C 0.62891(12) 0.36969(10) 0.22969(5)
S2_5 S 0.61274(3) 0.44440(2) 0.21195(2)
O8_5 O 0.64204(8) 0.49095(7) 0.23414(4)
O9_5 O 0.64868(11) 0.44480(9) 0.18214(4)
O10_5 O 0.53674(9) 0.45034(8) 0.20959(4)
N3_5 N 0.90275(12) 0.30470(10) 0.14492(4)
C25_5 C 0.96909(14) 0.28373(12) 0.14188(6)
C26_5 C 0.98696(14) 0.23616(12) 0.12117(6)
C27_5 C 0.93525(13) 0.20836(11) 0.10278(5)
C28_5 C 0.86607(16) 0.23060(17) 0.10597(7)
H19_5 H 0.829190 0.213304 0.093591
C29_5 C 0.85194(16) 0.27818(17) 0.12739(7)
H20_5 H 0.804750 0.292469 0.129730
N4_3 N 0.97951(9) 0.06082(8) 0.03737(4)
C32_5 C 0.95113(12) 0.15641(10) 0.08072(5)
C33_5 C 0.89989(12) 0.11168(13) 0.07249(5)
H23_5 H 0.854320 0.113424 0.081705
C34_5 C 0.91578(11) 0.06489(11) 0.05091(5)
H24_5 H 0.880574 0.034906 0.045560
Zn3_4 Zn 0.750000 0.500000 0.250000
Zn4_3 Zn 0.750000 0.750000 -0.000000
Zn5_9 Zn 1.000000 0.000000 -0.000000
O12_9 O 0.89204(8) 0.24095(7) 0.26586(4)
N5_5 N 0.97951(9) 0.18918(8) 0.21263(4)
Zn4_4 Zn 0.750000 0.750000 1.000000
Zn5_10 Zn 1.000000 0.000000 1.000000
Zn5_11 Zn 1.000000 1.000000 -0.000000
Zn5_12 Zn 1.000000 1.000000 1.000000
O11_10 O 0.71692(8) 0.57641(7) 0.27890(4)
O12_10 O 0.85796(8) 0.50905(7) 0.26586(4)
N5_6 N 0.77049(9) 0.56082(8) 0.21263(4)
N6_10 N 0.72951(9) 0.43918(8) 0.28737(4)
H5_6 H 0.005064 0.447839 0.595628
H6_6 H 0.034559 0.527439 0.630461
C13_6 C 0.02968(11) 0.64765(10) 0.70425(5)
H9_6 H 0.075213 0.651394 0.713355
C14_6 C 0.01775(12) 0.59972(10) 0.68294(5)
H10_6 H 0.054515 0.571232 0.677634
C19_6 C 0.05374(12) 0.34163(10) 0.52139(5)
C20_6 C 0.04398(14) 0.28325(11) 0.50654(6)
C21_6 C 0.09917(15) 0.25410(12) 0.49061(8)
H14_6 H 0.091561 0.215045 0.480261
C22_6 C 0.16524(14) 0.28212(13) 0.48987(7)
H15_6 H 0.202970 0.262163 0.479102
C23_6 C 0.17630(13) 0.33970(12) 0.50497(6)
H16_6 H 0.221800 0.358437 0.504746
C24_6 C 0.12109(12) 0.36969(10) 0.52031(5)
S2_6 S 0.13726(3) 0.44440(2) 0.53805(2)
O8_6 O 0.10796(8) 0.49095(7) 0.51586(4)
O9_6 O 0.10132(11) 0.44480(9) 0.56786(4)
O10_6 O 0.21326(9) 0.45034(8) 0.54041(4)
Zn3_5 Zn 0.000000 0.500000 0.500000
Zn4_5 Zn 0.000000 0.750000 0.750000
Zn1_6 Zn 0.875000 0.375000 0.57479(2)
Zn2_6 Zn 0.750000 0.250000 0.500000
O1_6 O 0.79096(9) 0.41382(8) 0.55691(4)
O2_6 O 0.78308(8) 0.32641(7) 0.52890(4)
C1_6 C 0.76018(12) 0.37937(10) 0.53657(5)
C2_6 C 0.69626(12) 0.40837(10) 0.52139(5)
C3_6 C 0.70602(14) 0.46675(11) 0.50654(6)
H1_6 H 0.750862 0.486643 0.507376
C4_6 C 0.65083(15) 0.49590(12) 0.49061(8)
H2_6 H 0.658439 0.534955 0.480261
C5_6 C 0.58476(14) 0.46788(13) 0.48987(7)
H3_6 H 0.547030 0.487837 0.479102
C6_6 C 0.57370(13) 0.41030(12) 0.50497(6)
H4_6 H 0.528200 0.391563 0.504746
C7_6 C 0.62891(12) 0.38031(10) 0.52031(5)
S1_6 S 0.61274(3) 0.30560(2) 0.53805(2)
O3_6 O 0.64204(8) 0.25905(7) 0.51586(4)
O4_6 O 0.64868(11) 0.30520(9) 0.56786(4)
O5_6 O 0.53674(9) 0.29966(8) 0.54041(4)
N1_6 N 0.90275(12) 0.44530(10) 0.60508(4)
C8_6 C 0.96909(14) 0.46627(12) 0.60812(6)
C9_6 C 0.98696(14) 0.51384(12) 0.62883(6)
C10_6 C 0.93525(13) 0.54164(11) 0.64722(5)
C11_6 C 0.86607(16) 0.51940(17) 0.64403(7)
H7_6 H 0.829190 0.536696 0.656409
C12_6 C 0.85194(16) 0.47182(17) 0.62261(7)
H8_6 H 0.804750 0.457531 0.620270
N2_4 N 0.97951(9) 0.68918(8) 0.71263(4)
C15_6 C 0.95113(12) 0.59359(10) 0.66928(5)
C16_6 C 0.89989(12) 0.63832(13) 0.67751(5)
H11_6 H 0.854320 0.636576 0.668295
C17_6 C 0.91578(11) 0.68511(11) 0.69909(5)
H12_6 H 0.880574 0.715094 0.704440
O6_6 O 0.95904(9) 0.33618(8) 0.55691(4)
O7_6 O 0.96692(8) 0.42359(7) 0.52890(4)
C18_6 C 0.98982(12) 0.37063(10) 0.53657(5)
H13_6 H 0.999138 0.263357 0.507376
N3_6 N 0.84725(12) 0.30470(10) 0.60508(4)
C25_6 C 0.78091(14) 0.28373(12) 0.60812(6)
H17_6 H 0.744936 0.302161 0.595628
C26_6 C 0.76304(14) 0.23616(12) 0.62883(6)
H18_6 H 0.715441 0.222561 0.630461
C27_6 C 0.81475(13) 0.20836(11) 0.64722(5)
C28_6 C 0.88393(16) 0.23060(17) 0.64403(7)
H19_6 H 0.920810 0.213304 0.656409
C29_6 C 0.89806(16) 0.27818(17) 0.62261(7)
H20_6 H 0.945250 0.292469 0.620270
N4_4 N 0.77049(9) 0.06082(8) 0.71263(4)
C30_6 C 0.72032(11) 0.10235(10) 0.70425(5)
H21_6 H 0.674787 0.098606 0.713355
C31_6 C 0.73225(12) 0.15028(10) 0.68294(5)
H22_6 H 0.695485 0.178768 0.677634
C32_6 C 0.79887(12) 0.15641(10) 0.66928(5)
C33_6 C 0.85011(12) 0.11168(13) 0.67751(5)
H23_6 H 0.895680 0.113424 0.668295
C34_6 C 0.83422(11) 0.06489(11) 0.69909(5)
H24_6 H 0.869426 0.034906 0.704440
Zn3_6 Zn 1.000000 0.500000 0.500000
Zn4_6 Zn 1.000000 0.750000 0.750000
Zn5_13 Zn 0.750000 0.000000 0.750000
O11_11 O 0.71692(8) 0.17359(7) 0.47110(4)
O12_11 O 0.85796(8) 0.24095(7) 0.48414(4)
N5_7 N 0.77049(9) 0.18918(8) 0.53737(4)
N6_11 N 0.72951(9) 0.31082(8) 0.46263(4)
Zn5_14 Zn 0.750000 1.000000 0.750000
O11_12 O 0.03308(8) 0.57641(7) 0.47110(4)
N6_12 N 0.02049(9) 0.43918(8) 0.46263(4)
O12_12 O 0.89204(8) 0.50905(7) 0.48414(4)
N5_8 N 0.97951(9) 0.56082(8) 0.53737(4)
C2_7 C 0.05374(12) 0.90837(10) 0.72861(5)
C3_7 C 0.04398(14) 0.96675(11) 0.74346(6)
C4_7 C 0.09917(15) 0.99590(12) 0.75939(8)
C5_7 C 0.16524(14) 0.96788(13) 0.76013(7)
H3_7 H 0.202970 0.987837 0.770898
C6_7 C 0.17630(13) 0.91030(12) 0.74503(6)
H4_7 H 0.221800 0.891563 0.745254
C7_7 C 0.12109(12) 0.88031(10) 0.72969(5)
S1_7 S 0.13726(3) 0.80560(2) 0.71195(2)
O3_7 O 0.10796(8) 0.75905(7) 0.73414(4)
O4_7 O 0.10132(11) 0.80520(9) 0.68214(4)
O5_7 O 0.21326(9) 0.79966(8) 0.70959(4)
H17_7 H 0.005064 0.802161 0.654372
H18_7 H 0.034559 0.722561 0.619539
C30_7 C 0.02968(11) 0.60235(10) 0.54575(5)
H21_7 H 0.075213 0.598606 0.536645
C31_7 C 0.01775(12) 0.65028(10) 0.56706(5)
H22_7 H 0.054515 0.678768 0.572366
O11_13 O 0.03308(8) 0.67359(7) 0.77890(4)
N6_13 N 0.02049(9) 0.81082(8) 0.78737(4)
C9_7 C 0.76304(14) 0.01384(12) 0.62117(6)
H6_7 H 0.715441 0.027439 0.619539
C10_7 C 0.81475(13) 0.04164(11) 0.60278(5)
C11_7 C 0.88393(16) 0.01940(17) 0.60597(7)
H7_7 H 0.920810 0.036696 0.593591
C13_7 C 0.72032(11) 0.14765(10) 0.54575(5)
H9_7 H 0.674787 0.151394 0.536645
C14_7 C 0.73225(12) 0.09972(10) 0.56706(5)
H10_7 H 0.695485 0.071232 0.572366
C15_7 C 0.79887(12) 0.09359(10) 0.58072(5)
C16_7 C 0.85011(12) 0.13832(13) 0.57249(5)
H11_7 H 0.895680 0.136576 0.581705
C17_7 C 0.83422(11) 0.18511(11) 0.55091(5)
H12_7 H 0.869426 0.215094 0.545560
Zn1_7 Zn 0.875000 0.875000 0.67521(2)
O1_7 O 0.95904(9) 0.91382(8) 0.69309(4)
O2_7 O 0.96692(8) 0.82641(7) 0.72110(4)
C1_7 C 0.98982(12) 0.87937(10) 0.71343(5)
H1_7 H 0.999138 0.986643 0.742624
N1_7 N 0.84725(12) 0.94530(10) 0.64492(4)
C8_7 C 0.78091(14) 0.96627(12) 0.64188(6)
H5_7 H 0.744936 0.947839 0.654372
C12_7 C 0.89806(16) 0.97182(17) 0.62739(7)
H8_7 H 0.945250 0.957531 0.629730
O6_7 O 0.79096(9) 0.83618(8) 0.69309(4)
O7_7 O 0.78308(8) 0.92359(7) 0.72110(4)
C18_7 C 0.76018(12) 0.87063(10) 0.71343(5)
C19_7 C 0.69626(12) 0.84163(10) 0.72861(5)
C20_7 C 0.70602(14) 0.78325(11) 0.74346(6)
H13_7 H 0.750862 0.763357 0.742624
C21_7 C 0.65083(15) 0.75410(12) 0.75939(8)
H14_7 H 0.658439 0.715045 0.769739
C22_7 C 0.58476(14) 0.78212(13) 0.76013(7)
H15_7 H 0.547030 0.762163 0.770898
C23_7 C 0.57370(13) 0.83970(12) 0.74503(6)
H16_7 H 0.528200 0.858437 0.745254
C24_7 C 0.62891(12) 0.86969(10) 0.72969(5)
S2_7 S 0.61274(3) 0.94440(2) 0.71195(2)
O8_7 O 0.64204(8) 0.99095(7) 0.73414(4)
O9_7 O 0.64868(11) 0.94480(9) 0.68214(4)
O10_7 O 0.53674(9) 0.95034(8) 0.70959(4)
N3_7 N 0.90275(12) 0.80470(10) 0.64492(4)
C25_7 C 0.96909(14) 0.78373(12) 0.64188(6)
C26_7 C 0.98696(14) 0.73616(12) 0.62117(6)
C27_7 C 0.93525(13) 0.70836(11) 0.60278(5)
C28_7 C 0.86607(16) 0.73060(17) 0.60597(7)
H19_7 H 0.829190 0.713304 0.593591
C29_7 C 0.85194(16) 0.77818(17) 0.62739(7)
H20_7 H 0.804750 0.792469 0.629730
C32_7 C 0.95113(12) 0.65641(10) 0.58072(5)
C33_7 C 0.89989(12) 0.61168(13) 0.57249(5)
H23_7 H 0.854320 0.613424 0.581705
C34_7 C 0.91578(11) 0.56489(11) 0.55091(5)
H24_7 H 0.880574 0.534906 0.545560
O12_13 O 0.89204(8) 0.74095(7) 0.76586(4)
O11_14 O 0.71692(8) 0.07641(7) 0.77890(4)
O12_14 O 0.85796(8) 0.00905(7) 0.76586(4)
N6_14 N 0.72951(9) 0.93918(8) 0.78737(4)
H6_8 H 0.034559 0.027439 0.130461
C13_8 C 0.02968(11) 0.14765(10) 0.20425(5)
H9_8 H 0.075213 0.151394 0.213355
C14_8 C 0.01775(12) 0.09972(10) 0.18294(5)
H10_8 H 0.054515 0.071232 0.177634
H5_8 H 0.005064 0.947839 0.095628
C19_8 C 0.05374(12) 0.84163(10) 0.02139(5)
C20_8 C 0.04398(14) 0.78325(11) 0.00654(6)
C23_8 C 0.17630(13) 0.83970(12) 0.00497(6)
H16_8 H 0.221800 0.858437 0.004746
C24_8 C 0.12109(12) 0.86969(10) 0.02031(5)
S2_8 S 0.13726(3) 0.94440(2) 0.03805(2)
O8_8 O 0.10796(8) 0.99095(7) 0.01586(4)
O9_8 O 0.10132(11) 0.94480(9) 0.06786(4)
O10_8 O 0.21326(9) 0.95034(8) 0.04041(4)
C21_8 C 0.09917(15) 0.75410(12) 0.99061(8)
H14_8 H 0.091561 0.715045 0.980261
C22_8 C 0.16524(14) 0.78212(13) 0.98987(7)
H15_8 H 0.202970 0.762163 0.979102
C9_8 C 0.98696(14) 0.01384(12) 0.12883(6)
C10_8 C 0.93525(13) 0.04164(11) 0.14722(5)
C11_8 C 0.86607(16) 0.01940(17) 0.14403(7)
H7_8 H 0.829190 0.036696 0.156409
C15_8 C 0.95113(12) 0.09359(10) 0.16928(5)
C16_8 C 0.89989(12) 0.13832(13) 0.17751(5)
H11_8 H 0.854320 0.136576 0.168295
C17_8 C 0.91578(11) 0.18511(11) 0.19909(5)
H12_8 H 0.880574 0.215094 0.204440
H2_7 H 0.658439 0.034955 0.980261
Zn1_8 Zn 0.875000 0.875000 0.07479(2)
O1_8 O 0.79096(9) 0.91382(8) 0.05691(4)
O2_8 O 0.78308(8) 0.82641(7) 0.02890(4)
C1_8 C 0.76018(12) 0.87937(10) 0.03657(5)
C2_8 C 0.69626(12) 0.90837(10) 0.02139(5)
C3_8 C 0.70602(14) 0.96675(11) 0.00654(6)
H1_8 H 0.750862 0.986643 0.007376
C6_8 C 0.57370(13) 0.91030(12) 0.00497(6)
H4_8 H 0.528200 0.891563 0.004746
C7_8 C 0.62891(12) 0.88031(10) 0.02031(5)
S1_8 S 0.61274(3) 0.80560(2) 0.03805(2)
O3_8 O 0.64204(8) 0.75905(7) 0.01586(4)
O4_8 O 0.64868(11) 0.80520(9) 0.06786(4)
O5_8 O 0.53674(9) 0.79966(8) 0.04041(4)
N1_8 N 0.90275(12) 0.94530(10) 0.10508(4)
C8_8 C 0.96909(14) 0.96627(12) 0.10812(6)
C12_8 C 0.85194(16) 0.97182(17) 0.12261(7)
H8_8 H 0.804750 0.957531 0.120270
O6_8 O 0.95904(9) 0.83618(8) 0.05691(4)
O7_8 O 0.96692(8) 0.92359(7) 0.02890(4)
C18_8 C 0.98982(12) 0.87063(10) 0.03657(5)
H13_8 H 0.999138 0.763357 0.007376
N3_8 N 0.84725(12) 0.80470(10) 0.10508(4)
C25_8 C 0.78091(14) 0.78373(12) 0.10812(6)
H17_8 H 0.744936 0.802161 0.095628
C26_8 C 0.76304(14) 0.73616(12) 0.12883(6)
H18_8 H 0.715441 0.722561 0.130461
C27_8 C 0.81475(13) 0.70836(11) 0.14722(5)
C28_8 C 0.88393(16) 0.73060(17) 0.14403(7)
H19_8 H 0.920810 0.713304 0.156409
C29_8 C 0.89806(16) 0.77818(17) 0.12261(7)
H20_8 H 0.945250 0.792469 0.120270
C30_8 C 0.72032(11) 0.60235(10) 0.20425(5)
H21_8 H 0.674787 0.598606 0.213355
C31_8 C 0.73225(12) 0.65028(10) 0.18294(5)
H22_8 H 0.695485 0.678768 0.177634
C32_8 C 0.79887(12) 0.65641(10) 0.16928(5)
C33_8 C 0.85011(12) 0.61168(13) 0.17751(5)
H23_8 H 0.895680 0.613424 0.168295
C34_8 C 0.83422(11) 0.56489(11) 0.19909(5)
H24_8 H 0.869426 0.534906 0.204440
C4_8 C 0.65083(15) 0.99590(12) 0.99061(8)
C5_8 C 0.58476(14) 0.96788(13) 0.98987(7)
H3_8 H 0.547030 0.987837 0.979102
O11_15 O 0.71692(8) 0.67359(7) 0.97110(4)
O12_15 O 0.85796(8) 0.74095(7) 0.98414(4)
N6_15 N 0.72951(9) 0.81082(8) 0.96263(4)
O11_16 O 0.03308(8) 0.07641(7) 0.97110(4)
N6_16 N 0.02049(9) 0.93918(8) 0.96263(4)
O12_16 O 0.89204(8) 0.00905(7) 0.98414(4)
Zn1_9 Zn 0.625000 0.625000 0.32479(2)
O1_9 O 0.54096(9) 0.58618(8) 0.30691(4)
C1_9 C 0.51018(12) 0.62063(10) 0.28657(5)
C2_9 C 0.44626(12) 0.59163(10) 0.27139(5)
C3_9 C 0.45602(14) 0.53325(11) 0.25654(6)
H1_9 H 0.500862 0.513357 0.257376
C4_9 C 0.40083(15) 0.50410(12) 0.24061(8)
H2_8 H 0.408439 0.465045 0.230261
C5_9 C 0.33476(14) 0.53212(13) 0.23987(7)
H3_9 H 0.297030 0.512163 0.229102
C6_9 C 0.32370(13) 0.58970(12) 0.25497(6)
H4_9 H 0.278200 0.608437 0.254746
C7_9 C 0.37891(12) 0.61969(10) 0.27031(5)
S1_9 S 0.36274(3) 0.69440(2) 0.28805(2)
O4_9 O 0.39868(11) 0.69480(9) 0.31786(4)
O5_9 O 0.28674(9) 0.70034(8) 0.29041(4)
N1_9 N 0.65275(12) 0.55470(10) 0.35508(4)
C8_9 C 0.71909(14) 0.53373(12) 0.35812(6)
H5_9 H 0.755064 0.552161 0.345628
C9_9 C 0.73696(14) 0.48616(12) 0.37883(6)
H6_9 H 0.784559 0.472561 0.380461
C10_9 C 0.68525(13) 0.45836(11) 0.39722(5)
C11_9 C 0.61607(16) 0.48060(17) 0.39403(7)
H7_9 H 0.579190 0.463304 0.406409
C12_9 C 0.60194(16) 0.52818(17) 0.37261(7)
H8_9 H 0.554750 0.542469 0.370270
C13_9 C 0.77968(11) 0.35235(10) 0.45425(5)
H9_9 H 0.825213 0.348606 0.463355
C14_9 C 0.76775(12) 0.40028(10) 0.43294(5)
H10_9 H 0.804515 0.428768 0.427634
C15_9 C 0.70113(12) 0.40641(10) 0.41928(5)
C16_9 C 0.64989(12) 0.36168(13) 0.42751(5)
H11_9 H 0.604320 0.363424 0.418295
C17_9 C 0.66578(11) 0.31489(11) 0.44909(5)
H12_9 H 0.630574 0.284906 0.454440
O6_9 O 0.70904(9) 0.66382(8) 0.30691(4)
C18_9 C 0.73982(12) 0.62937(10) 0.28657(5)
C19_9 C 0.80374(12) 0.65837(10) 0.27139(5)
C20_9 C 0.79398(14) 0.71675(11) 0.25654(6)
H13_9 H 0.749138 0.736643 0.257376
C21_9 C 0.84917(15) 0.74590(12) 0.24061(8)
H14_9 H 0.841561 0.784955 0.230261
C22_9 C 0.91524(14) 0.71788(13) 0.23987(7)
H15_9 H 0.952970 0.737837 0.229102
C23_9 C 0.92630(13) 0.66030(12) 0.25497(6)
H16_9 H 0.971800 0.641563 0.254746
C24_9 C 0.87109(12) 0.63031(10) 0.27031(5)
S2_9 S 0.88726(3) 0.55560(2) 0.28805(2)
O9_9 O 0.85132(11) 0.55520(9) 0.31786(4)
O10_9 O 0.96326(9) 0.54966(8) 0.29041(4)
N3_9 N 0.59725(12) 0.69530(10) 0.35508(4)
C25_9 C 0.53091(14) 0.71627(12) 0.35812(6)
H17_9 H 0.494936 0.697839 0.345628
C26_9 C 0.51304(14) 0.76384(12) 0.37883(6)
H18_9 H 0.465441 0.777439 0.380461
C27_9 C 0.56475(13) 0.79164(11) 0.39722(5)
C28_9 C 0.63393(16) 0.76940(17) 0.39403(7)
H19_9 H 0.670810 0.786696 0.406409
C29_9 C 0.64806(16) 0.72182(17) 0.37261(7)
H20_9 H 0.695250 0.707531 0.370270
C30_9 C 0.47032(11) 0.89765(10) 0.45425(5)
H21_9 H 0.424787 0.901394 0.463355
C31_9 C 0.48225(12) 0.84972(10) 0.43294(5)
H22_9 H 0.445485 0.821232 0.427634
C32_9 C 0.54887(12) 0.84359(10) 0.41928(5)
C33_9 C 0.60011(12) 0.88832(13) 0.42751(5)
H23_9 H 0.645680 0.886576 0.418295
C34_9 C 0.58422(11) 0.93511(11) 0.44909(5)
H24_9 H 0.619426 0.965094 0.454440
C4_10 C 0.84917(15) 0.50410(12) 0.00939(8)
H2_9 H 0.841561 0.465045 0.019739
C5_10 C 0.91524(14) 0.53212(13) 0.01013(7)
H3_10 H 0.952970 0.512163 0.020898
C21_10 C 0.40083(15) 0.74590(12) 0.00939(8)
H14_10 H 0.408439 0.784955 0.019739
C22_10 C 0.33476(14) 0.71788(13) 0.01013(7)
H15_10 H 0.297030 0.737837 0.020898
Zn1_10 Zn 0.625000 0.625000 0.92521(2)
O1_10 O 0.70904(9) 0.58618(8) 0.94309(4)
C1_10 C 0.73982(12) 0.62063(10) 0.96343(5)
C2_10 C 0.80374(12) 0.59163(10) 0.97861(5)
C3_10 C 0.79398(14) 0.53325(11) 0.99346(6)
H1_10 H 0.749138 0.513357 0.992624
C6_10 C 0.92630(13) 0.58970(12) 0.99503(6)
H4_10 H 0.971800 0.608437 0.995254
C7_10 C 0.87109(12) 0.61969(10) 0.97969(5)
S1_10 S 0.88726(3) 0.69440(2) 0.96195(2)
O4_10 O 0.85132(11) 0.69480(9) 0.93214(4)
O5_10 O 0.96326(9) 0.70034(8) 0.95959(4)
N1_10 N 0.59725(12) 0.55470(10) 0.89492(4)
C8_10 C 0.53091(14) 0.53373(12) 0.89188(6)
H5_10 H 0.494936 0.552161 0.904372
C9_10 C 0.51304(14) 0.48616(12) 0.87117(6)
H6_10 H 0.465441 0.472561 0.869539
C10_10 C 0.56475(13) 0.45836(11) 0.85278(5)
C11_10 C 0.63393(16) 0.48060(17) 0.85597(7)
H7_10 H 0.670810 0.463304 0.843591
C12_10 C 0.64806(16) 0.52818(17) 0.87739(7)
H8_10 H 0.695250 0.542469 0.879730
C13_10 C 0.47032(11) 0.35235(10) 0.79575(5)
H9_10 H 0.424787 0.348606 0.786645
C14_10 C 0.48225(12) 0.40028(10) 0.81706(5)
H10_10 H 0.445485 0.428768 0.822366
C15_10 C 0.54887(12) 0.40641(10) 0.83072(5)
C16_10 C 0.60011(12) 0.36168(13) 0.82249(5)
H11_10 H 0.645680 0.363424 0.831705
C17_10 C 0.58422(11) 0.31489(11) 0.80091(5)
H12_10 H 0.619426 0.284906 0.795560
O6_10 O 0.54096(9) 0.66382(8) 0.94309(4)
C18_10 C 0.51018(12) 0.62937(10) 0.96343(5)
C19_10 C 0.44626(12) 0.65837(10) 0.97861(5)
C20_10 C 0.45602(14) 0.71675(11) 0.99346(6)
H13_10 H 0.500862 0.736643 0.992624
C23_10 C 0.32370(13) 0.66030(12) 0.99503(6)
H16_10 H 0.278200 0.641563 0.995254
C24_10 C 0.37891(12) 0.63031(10) 0.97969(5)
S2_10 S 0.36274(3) 0.55560(2) 0.96195(2)
O9_10 O 0.39868(11) 0.55520(9) 0.93214(4)
O10_10 O 0.28674(9) 0.54966(8) 0.95959(4)
N3_10 N 0.65275(12) 0.69530(10) 0.89492(4)
C25_10 C 0.71909(14) 0.71627(12) 0.89188(6)
H17_10 H 0.755064 0.697839 0.904372
C26_10 C 0.73696(14) 0.76384(12) 0.87117(6)
H18_10 H 0.784559 0.777439 0.869539
C27_10 C 0.68525(13) 0.79164(11) 0.85278(5)
C28_10 C 0.61607(16) 0.76940(17) 0.85597(7)
H19_10 H 0.579190 0.786696 0.843591
C29_10 C 0.60194(16) 0.72182(17) 0.87739(7)
H20_10 H 0.554750 0.707531 0.879730
C30_10 C 0.77968(11) 0.89765(10) 0.79575(5)
H21_10 H 0.825213 0.901394 0.786645
C31_10 C 0.76775(12) 0.84972(10) 0.81706(5)
H22_10 H 0.804515 0.821232 0.822366
C32_10 C 0.70113(12) 0.84359(10) 0.83072(5)
C33_10 C 0.64989(12) 0.88832(13) 0.82249(5)
H23_10 H 0.604320 0.886576 0.831705
C34_10 C 0.66578(11) 0.93511(11) 0.80091(5)
H24_10 H 0.630574 0.965094 0.795560
Zn1_11 Zn 0.625000 0.125000 0.82479(2)
O1_11 O 0.54096(9) 0.08618(8) 0.80691(4)
C1_11 C 0.51018(12) 0.12063(10) 0.78657(5)
C2_11 C 0.44626(12) 0.09163(10) 0.77139(5)
C3_11 C 0.45602(14) 0.03325(11) 0.75654(6)
H1_11 H 0.500862 0.013357 0.757376
C4_11 C 0.40083(15) 0.00410(12) 0.74061(8)
C5_11 C 0.33476(14) 0.03212(13) 0.73987(7)
H3_11 H 0.297030 0.012163 0.729102
C6_11 C 0.32370(13) 0.08970(12) 0.75497(6)
H4_11 H 0.278200 0.108437 0.754746
C7_11 C 0.37891(12) 0.11969(10) 0.77031(5)
S1_11 S 0.36274(3) 0.19440(2) 0.78805(2)
O4_11 O 0.39868(11) 0.19480(9) 0.81786(4)
O5_11 O 0.28674(9) 0.20034(8) 0.79041(4)
N1_11 N 0.65275(12) 0.05470(10) 0.85508(4)
C8_11 C 0.71909(14) 0.03373(12) 0.85812(6)
H5_11 H 0.755064 0.052161 0.845628
C12_11 C 0.60194(16) 0.02818(17) 0.87261(7)
H8_11 H 0.554750 0.042469 0.870270
O6_11 O 0.70904(9) 0.16382(8) 0.80691(4)
C18_11 C 0.73982(12) 0.12937(10) 0.78657(5)
C19_11 C 0.80374(12) 0.15837(10) 0.77139(5)
C20_11 C 0.79398(14) 0.21675(11) 0.75654(6)
H13_11 H 0.749138 0.236643 0.757376
C21_11 C 0.84917(15) 0.24590(12) 0.74061(8)
H14_11 H 0.841561 0.284955 0.730261
C22_11 C 0.91524(14) 0.21788(13) 0.73987(7)
H15_11 H 0.952970 0.237837 0.729102
C23_11 C 0.92630(13) 0.16030(12) 0.75497(6)
H16_11 H 0.971800 0.141563 0.754746
C24_11 C 0.87109(12) 0.13031(10) 0.77031(5)
S2_11 S 0.88726(3) 0.05560(2) 0.78805(2)
O9_11 O 0.85132(11) 0.05520(9) 0.81786(4)
O10_11 O 0.96326(9) 0.04966(8) 0.79041(4)
N3_11 N 0.59725(12) 0.19530(10) 0.85508(4)
C25_11 C 0.53091(14) 0.21627(12) 0.85812(6)
H17_11 H 0.494936 0.197839 0.845628
C26_11 C 0.51304(14) 0.26384(12) 0.87883(6)
H18_11 H 0.465441 0.277439 0.880461
C27_11 C 0.56475(13) 0.29164(11) 0.89722(5)
C28_11 C 0.63393(16) 0.26940(17) 0.89403(7)
H19_11 H 0.670810 0.286696 0.906409
C29_11 C 0.64806(16) 0.22182(17) 0.87261(7)
H20_11 H 0.695250 0.207531 0.870270
C30_11 C 0.47032(11) 0.39765(10) 0.95425(5)
H21_11 H 0.424787 0.401394 0.963355
C31_11 C 0.48225(12) 0.34972(10) 0.93294(5)
H22_11 H 0.445485 0.321232 0.927634
C32_11 C 0.54887(12) 0.34359(10) 0.91928(5)
C33_11 C 0.60011(12) 0.38832(13) 0.92751(5)
H23_11 H 0.645680 0.386576 0.918295
C34_11 C 0.58422(11) 0.43511(11) 0.94909(5)
H24_11 H 0.619426 0.465094 0.954440
H2_10 H 0.408439 0.965045 0.730261
C9_11 C 0.73696(14) 0.98616(12) 0.87883(6)
H6_11 H 0.784559 0.972561 0.880461
C10_11 C 0.68525(13) 0.95836(11) 0.89722(5)
C11_11 C 0.61607(16) 0.98060(17) 0.89403(7)
H7_11 H 0.579190 0.963304 0.906409
C13_11 C 0.77968(11) 0.85235(10) 0.95425(5)
H9_11 H 0.825213 0.848606 0.963355
C14_11 C 0.76775(12) 0.90028(10) 0.93294(5)
H10_11 H 0.804515 0.928768 0.927634
C15_11 C 0.70113(12) 0.90641(10) 0.91928(5)
C16_11 C 0.64989(12) 0.86168(13) 0.92751(5)
H11_11 H 0.604320 0.863424 0.918295
C17_11 C 0.66578(11) 0.81489(11) 0.94909(5)
H12_11 H 0.630574 0.784906 0.954440
Zn1_12 Zn 0.625000 0.125000 0.42521(2)
O1_12 O 0.70904(9) 0.08618(8) 0.44309(4)
C1_12 C 0.73982(12) 0.12063(10) 0.46343(5)
C2_12 C 0.80374(12) 0.09163(10) 0.47861(5)
C3_12 C 0.79398(14) 0.03325(11) 0.49346(6)
H1_12 H 0.749138 0.013357 0.492624
C4_12 C 0.84917(15) 0.00410(12) 0.50939(8)
C5_12 C 0.91524(14) 0.03212(13) 0.51013(7)
H3_12 H 0.952970 0.012163 0.520898
C6_12 C 0.92630(13) 0.08970(12) 0.49503(6)
H4_12 H 0.971800 0.108437 0.495254
C7_12 C 0.87109(12) 0.11969(10) 0.47969(5)
S1_12 S 0.88726(3) 0.19440(2) 0.46195(2)
O4_12 O 0.85132(11) 0.19480(9) 0.43214(4)
O5_12 O 0.96326(9) 0.20034(8) 0.45959(4)
N1_12 N 0.59725(12) 0.05470(10) 0.39492(4)
C8_12 C 0.53091(14) 0.03373(12) 0.39188(6)
H5_12 H 0.494936 0.052161 0.404372
C12_12 C 0.64806(16) 0.02818(17) 0.37739(7)
H8_12 H 0.695250 0.042469 0.379730
O6_12 O 0.54096(9) 0.16382(8) 0.44309(4)
C18_12 C 0.51018(12) 0.12937(10) 0.46343(5)
C19_12 C 0.44626(12) 0.15837(10) 0.47861(5)
C20_12 C 0.45602(14) 0.21675(11) 0.49346(6)
H13_12 H 0.500862 0.236643 0.492624
C21_12 C 0.40083(15) 0.24590(12) 0.50939(8)
H14_12 H 0.408439 0.284955 0.519739
C22_12 C 0.33476(14) 0.21788(13) 0.51013(7)
H15_12 H 0.297030 0.237837 0.520898
C23_12 C 0.32370(13) 0.16030(12) 0.49503(6)
H16_12 H 0.278200 0.141563 0.495254
C24_12 C 0.37891(12) 0.13031(10) 0.47969(5)
S2_12 S 0.36274(3) 0.05560(2) 0.46195(2)
O9_12 O 0.39868(11) 0.05520(9) 0.43214(4)
O10_12 O 0.28674(9) 0.04966(8) 0.45959(4)
N3_12 N 0.65275(12) 0.19530(10) 0.39492(4)
C25_12 C 0.71909(14) 0.21627(12) 0.39188(6)
H17_12 H 0.755064 0.197839 0.404372
C26_12 C 0.73696(14) 0.26384(12) 0.37117(6)
H18_12 H 0.784559 0.277439 0.369539
C27_12 C 0.68525(13) 0.29164(11) 0.35278(5)
C28_12 C 0.61607(16) 0.26940(17) 0.35597(7)
H19_12 H 0.579190 0.286696 0.343591
C29_12 C 0.60194(16) 0.22182(17) 0.37739(7)
H20_12 H 0.554750 0.207531 0.379730
C30_12 C 0.77968(11) 0.39765(10) 0.29575(5)
H21_12 H 0.825213 0.401394 0.286645
C31_12 C 0.76775(12) 0.34972(10) 0.31706(5)
H22_12 H 0.804515 0.321232 0.322366
C32_12 C 0.70113(12) 0.34359(10) 0.33072(5)
C33_12 C 0.64989(12) 0.38832(13) 0.32249(5)
H23_12 H 0.604320 0.386576 0.331705
C34_12 C 0.66578(11) 0.43511(11) 0.30091(5)
H24_12 H 0.630574 0.465094 0.295560
H2_11 H 0.841561 0.965045 0.519739
C9_12 C 0.51304(14) 0.98616(12) 0.37117(6)
H6_12 H 0.465441 0.972561 0.369539
C10_12 C 0.56475(13) 0.95836(11) 0.35278(5)
C11_12 C 0.63393(16) 0.98060(17) 0.35597(7)
H7_12 H 0.670810 0.963304 0.343591
C13_12 C 0.47032(11) 0.85235(10) 0.29575(5)
H9_12 H 0.424787 0.848606 0.286645
C14_12 C 0.48225(12) 0.90028(10) 0.31706(5)
H10_12 H 0.445485 0.928768 0.322366
C15_12 C 0.54887(12) 0.90641(10) 0.33072(5)
C16_12 C 0.60011(12) 0.86168(13) 0.32249(5)
H11_12 H 0.645680 0.863424 0.331705
C17_12 C 0.58422(11) 0.81489(11) 0.30091(5)
H12_12 H 0.619426 0.784906 0.295560
Zn1_13 Zn 0.125000 0.625000 0.82479(2)
O1_13 O 0.04096(9) 0.58618(8) 0.80691(4)
C1_13 C 0.01018(12) 0.62063(10) 0.78657(5)
H1_13 H 0.000862 0.513357 0.757376
N1_13 N 0.15275(12) 0.55470(10) 0.85508(4)
C8_13 C 0.21909(14) 0.53373(12) 0.85812(6)
H5_13 H 0.255064 0.552161 0.845628
C9_13 C 0.23696(14) 0.48616(12) 0.87883(6)
H6_13 H 0.284559 0.472561 0.880461
C10_13 C 0.18525(13) 0.45836(11) 0.89722(5)
C11_13 C 0.11607(16) 0.48060(17) 0.89403(7)
H7_13 H 0.079190 0.463304 0.906409
C12_13 C 0.10194(16) 0.52818(17) 0.87261(7)
H8_13 H 0.054750 0.542469 0.870270
C13_13 C 0.27968(11) 0.35235(10) 0.95425(5)
H9_13 H 0.325213 0.348606 0.963355
C14_13 C 0.26775(12) 0.40028(10) 0.93294(5)
H10_13 H 0.304515 0.428768 0.927634
C15_13 C 0.20113(12) 0.40641(10) 0.91928(5)
C16_13 C 0.14989(12) 0.36168(13) 0.92751(5)
H11_13 H 0.104320 0.363424 0.918295
C17_13 C 0.16578(11) 0.31489(11) 0.94909(5)
H12_13 H 0.130574 0.284906 0.954440
O6_13 O 0.20904(9) 0.66382(8) 0.80691(4)
C18_13 C 0.23982(12) 0.62937(10) 0.78657(5)
C19_13 C 0.30374(12) 0.65837(10) 0.77139(5)
C20_13 C 0.29398(14) 0.71675(11) 0.75654(6)
H13_13 H 0.249138 0.736643 0.757376
C21_13 C 0.34917(15) 0.74590(12) 0.74061(8)
H14_13 H 0.341561 0.784955 0.730261
C22_13 C 0.41524(14) 0.71788(13) 0.73987(7)
H15_13 H 0.452970 0.737837 0.729102
C23_13 C 0.42630(13) 0.66030(12) 0.75497(6)
H16_13 H 0.471800 0.641563 0.754746
C24_13 C 0.37109(12) 0.63031(10) 0.77031(5)
S2_13 S 0.38726(3) 0.55560(2) 0.78805(2)
O9_13 O 0.35132(11) 0.55520(9) 0.81786(4)
O10_13 O 0.46326(9) 0.54966(8) 0.79041(4)
N3_13 N 0.09725(12) 0.69530(10) 0.85508(4)
C25_13 C 0.03091(14) 0.71627(12) 0.85812(6)
C26_13 C 0.01304(14) 0.76384(12) 0.87883(6)
C27_13 C 0.06475(13) 0.79164(11) 0.89722(5)
C28_13 C 0.13393(16) 0.76940(17) 0.89403(7)
H19_13 H 0.170810 0.786696 0.906409
C29_13 C 0.14806(16) 0.72182(17) 0.87261(7)
H20_13 H 0.195250 0.707531 0.870270
C32_13 C 0.04887(12) 0.84359(10) 0.91928(5)
C33_13 C 0.10011(12) 0.88832(13) 0.92751(5)
H23_13 H 0.145680 0.886576 0.918295
C34_13 C 0.08422(11) 0.93511(11) 0.94909(5)
H24_13 H 0.119426 0.965094 0.954440
C2_13 C 0.94626(12) 0.59163(10) 0.77139(5)
C3_13 C 0.95602(14) 0.53325(11) 0.75654(6)
C4_13 C 0.90083(15) 0.50410(12) 0.74061(8)
H2_12 H 0.908439 0.465045 0.730261
C5_13 C 0.83476(14) 0.53212(13) 0.73987(7)
H3_13 H 0.797030 0.512163 0.729102
C6_13 C 0.82370(13) 0.58970(12) 0.75497(6)
H4_13 H 0.778200 0.608437 0.754746
C7_13 C 0.87891(12) 0.61969(10) 0.77031(5)
S1_13 S 0.86274(3) 0.69440(2) 0.78805(2)
O4_13 O 0.89868(11) 0.69480(9) 0.81786(4)
O5_13 O 0.78674(9) 0.70034(8) 0.79041(4)
H17_13 H 0.994936 0.697839 0.845628
H18_13 H 0.965441 0.777439 0.880461
C30_13 C 0.97032(11) 0.89765(10) 0.95425(5)
H21_13 H 0.924787 0.901394 0.963355
C31_13 C 0.98225(12) 0.84972(10) 0.93294(5)
H22_13 H 0.945485 0.821232 0.927634
Zn1_14 Zn 0.125000 0.625000 0.42521(2)
O1_14 O 0.20904(9) 0.58618(8) 0.44309(4)
C1_14 C 0.23982(12) 0.62063(10) 0.46343(5)
C2_14 C 0.30374(12) 0.59163(10) 0.47861(5)
C3_14 C 0.29398(14) 0.53325(11) 0.49346(6)
H1_14 H 0.249138 0.513357 0.492624
C4_14 C 0.34917(15) 0.50410(12) 0.50939(8)
H2_13 H 0.341561 0.465045 0.519739
C5_14 C 0.41524(14) 0.53212(13) 0.51013(7)
H3_14 H 0.452970 0.512163 0.520898
C6_14 C 0.42630(13) 0.58970(12) 0.49503(6)
H4_14 H 0.471800 0.608437 0.495254
C7_14 C 0.37109(12) 0.61969(10) 0.47969(5)
S1_14 S 0.38726(3) 0.69440(2) 0.46195(2)
O4_14 O 0.35132(11) 0.69480(9) 0.43214(4)
O5_14 O 0.46326(9) 0.70034(8) 0.45959(4)
N1_14 N 0.09725(12) 0.55470(10) 0.39492(4)
C8_14 C 0.03091(14) 0.53373(12) 0.39188(6)
C9_14 C 0.01304(14) 0.48616(12) 0.37117(6)
C10_14 C 0.06475(13) 0.45836(11) 0.35278(5)
C11_14 C 0.13393(16) 0.48060(17) 0.35597(7)
H7_14 H 0.170810 0.463304 0.343591
C12_14 C 0.14806(16) 0.52818(17) 0.37739(7)
H8_14 H 0.195250 0.542469 0.379730
C15_14 C 0.04887(12) 0.40641(10) 0.33072(5)
C16_14 C 0.10011(12) 0.36168(13) 0.32249(5)
H11_14 H 0.145680 0.363424 0.331705
C17_14 C 0.08422(11) 0.31489(11) 0.30091(5)
H12_14 H 0.119426 0.284906 0.295560
O6_14 O 0.04096(9) 0.66382(8) 0.44309(4)
C18_14 C 0.01018(12) 0.62937(10) 0.46343(5)
H13_14 H 0.000862 0.736643 0.492624
N3_14 N 0.15275(12) 0.69530(10) 0.39492(4)
C25_14 C 0.21909(14) 0.71627(12) 0.39188(6)
H17_14 H 0.255064 0.697839 0.404372
C26_14 C 0.23696(14) 0.76384(12) 0.37117(6)
H18_14 H 0.284559 0.777439 0.369539
C27_14 C 0.18525(13) 0.79164(11) 0.35278(5)
C28_14 C 0.11607(16) 0.76940(17) 0.35597(7)
H19_14 H 0.079190 0.786696 0.343591
C29_14 C 0.10194(16) 0.72182(17) 0.37739(7)
H20_14 H 0.054750 0.707531 0.379730
C30_14 C 0.27968(11) 0.89765(10) 0.29575(5)
H21_14 H 0.325213 0.901394 0.286645
C31_14 C 0.26775(12) 0.84972(10) 0.31706(5)
H22_14 H 0.304515 0.821232 0.322366
C32_14 C 0.20113(12) 0.84359(10) 0.33072(5)
C33_14 C 0.14989(12) 0.88832(13) 0.32249(5)
H23_14 H 0.104320 0.886576 0.331705
C34_14 C 0.16578(11) 0.93511(11) 0.30091(5)
H24_14 H 0.130574 0.965094 0.295560
H5_14 H 0.994936 0.552161 0.404372
H6_14 H 0.965441 0.472561 0.369539
C13_14 C 0.97032(11) 0.35235(10) 0.29575(5)
H9_14 H 0.924787 0.348606 0.286645
C14_14 C 0.98225(12) 0.40028(10) 0.31706(5)
H10_14 H 0.945485 0.428768 0.322366
C19_14 C 0.94626(12) 0.65837(10) 0.47861(5)
C20_14 C 0.95602(14) 0.71675(11) 0.49346(6)
C21_14 C 0.90083(15) 0.74590(12) 0.50939(8)
H14_14 H 0.908439 0.784955 0.519739
C22_14 C 0.83476(14) 0.71788(13) 0.51013(7)
H15_14 H 0.797030 0.737837 0.520898
C23_14 C 0.82370(13) 0.66030(12) 0.49503(6)
H16_14 H 0.778200 0.641563 0.495254
C24_14 C 0.87891(12) 0.63031(10) 0.47969(5)
S2_14 S 0.86274(3) 0.55560(2) 0.46195(2)
O9_14 O 0.89868(11) 0.55520(9) 0.43214(4)
O10_14 O 0.78674(9) 0.54966(8) 0.45959(4)
Zn1_15 Zn 0.125000 0.125000 0.32479(2)
O1_15 O 0.04096(9) 0.08618(8) 0.30691(4)
C1_15 C 0.01018(12) 0.12063(10) 0.28657(5)
H1_15 H 0.000862 0.013357 0.257376
N1_15 N 0.15275(12) 0.05470(10) 0.35508(4)
C8_15 C 0.21909(14) 0.03373(12) 0.35812(6)
H5_15 H 0.255064 0.052161 0.345628
C12_15 C 0.10194(16) 0.02818(17) 0.37261(7)
H8_15 H 0.054750 0.042469 0.370270
O6_15 O 0.20904(9) 0.16382(8) 0.30691(4)
C18_15 C 0.23982(12) 0.12937(10) 0.28657(5)
C19_15 C 0.30374(12) 0.15837(10) 0.27139(5)
C20_15 C 0.29398(14) 0.21675(11) 0.25654(6)
H13_15 H 0.249138 0.236643 0.257376
C21_15 C 0.34917(15) 0.24590(12) 0.24061(8)
H14_15 H 0.341561 0.284955 0.230261
C22_15 C 0.41524(14) 0.21788(13) 0.23987(7)
H15_15 H 0.452970 0.237837 0.229102
C23_15 C 0.42630(13) 0.16030(12) 0.25497(6)
H16_15 H 0.471800 0.141563 0.254746
C24_15 C 0.37109(12) 0.13031(10) 0.27031(5)
S2_15 S 0.38726(3) 0.05560(2) 0.28805(2)
O9_15 O 0.35132(11) 0.05520(9) 0.31786(4)
O10_15 O 0.46326(9) 0.04966(8) 0.29041(4)
N3_15 N 0.09725(12) 0.19530(10) 0.35508(4)
C25_15 C 0.03091(14) 0.21627(12) 0.35812(6)
C26_15 C 0.01304(14) 0.26384(12) 0.37883(6)
C27_15 C 0.06475(13) 0.29164(11) 0.39722(5)
C28_15 C 0.13393(16) 0.26940(17) 0.39403(7)
H19_15 H 0.170810 0.286696 0.406409
C29_15 C 0.14806(16) 0.22182(17) 0.37261(7)
H20_15 H 0.195250 0.207531 0.370270
C32_15 C 0.04887(12) 0.34359(10) 0.41928(5)
C33_15 C 0.10011(12) 0.38832(13) 0.42751(5)
H23_15 H 0.145680 0.386576 0.418295
C34_15 C 0.08422(11) 0.43511(11) 0.44909(5)
H24_15 H 0.119426 0.465094 0.454440
C9_15 C 0.23696(14) 0.98616(12) 0.37883(6)
H6_15 H 0.284559 0.972561 0.380461
C10_15 C 0.18525(13) 0.95836(11) 0.39722(5)
C11_15 C 0.11607(16) 0.98060(17) 0.39403(7)
H7_15 H 0.079190 0.963304 0.406409
C13_15 C 0.27968(11) 0.85235(10) 0.45425(5)
H9_15 H 0.325213 0.848606 0.463355
C14_15 C 0.26775(12) 0.90028(10) 0.43294(5)
H10_15 H 0.304515 0.928768 0.427634
C15_15 C 0.20113(12) 0.90641(10) 0.41928(5)
C16_15 C 0.14989(12) 0.86168(13) 0.42751(5)
H11_15 H 0.104320 0.863424 0.418295
C17_15 C 0.16578(11) 0.81489(11) 0.44909(5)
H12_15 H 0.130574 0.784906 0.454440
C2_15 C 0.94626(12) 0.09163(10) 0.27139(5)
C3_15 C 0.95602(14) 0.03325(11) 0.25654(6)
C4_15 C 0.90083(15) 0.00410(12) 0.24061(8)
C5_15 C 0.83476(14) 0.03212(13) 0.23987(7)
H3_15 H 0.797030 0.012163 0.229102
C6_15 C 0.82370(13) 0.08970(12) 0.25497(6)
H4_15 H 0.778200 0.108437 0.254746
C7_15 C 0.87891(12) 0.11969(10) 0.27031(5)
S1_15 S 0.86274(3) 0.19440(2) 0.28805(2)
O4_15 O 0.89868(11) 0.19480(9) 0.31786(4)
O5_15 O 0.78674(9) 0.20034(8) 0.29041(4)
H17_15 H 0.994936 0.197839 0.345628
H18_15 H 0.965441 0.277439 0.380461
C30_15 C 0.97032(11) 0.39765(10) 0.45425(5)
H21_15 H 0.924787 0.401394 0.463355
C31_15 C 0.98225(12) 0.34972(10) 0.43294(5)
H22_15 H 0.945485 0.321232 0.427634
C4_16 C 0.34917(15) 0.00410(12) 0.00939(8)
C5_16 C 0.41524(14) 0.03212(13) 0.01013(7)
H3_16 H 0.452970 0.012163 0.020898
Zn1_16 Zn 0.125000 0.125000 0.92521(2)
O1_16 O 0.20904(9) 0.08618(8) 0.94309(4)
C1_16 C 0.23982(12) 0.12063(10) 0.96343(5)
C2_16 C 0.30374(12) 0.09163(10) 0.97861(5)
C3_16 C 0.29398(14) 0.03325(11) 0.99346(6)
H1_16 H 0.249138 0.013357 0.992624
C6_16 C 0.42630(13) 0.08970(12) 0.99503(6)
H4_16 H 0.471800 0.108437 0.995254
C7_16 C 0.37109(12) 0.11969(10) 0.97969(5)
S1_16 S 0.38726(3) 0.19440(2) 0.96195(2)
O4_16 O 0.35132(11) 0.19480(9) 0.93214(4)
O5_16 O 0.46326(9) 0.20034(8) 0.95959(4)
N1_16 N 0.09725(12) 0.05470(10) 0.89492(4)
C8_16 C 0.03091(14) 0.03373(12) 0.89188(6)
C12_16 C 0.14806(16) 0.02818(17) 0.87739(7)
H8_16 H 0.195250 0.042469 0.879730
O6_16 O 0.04096(9) 0.16382(8) 0.94309(4)
C18_16 C 0.01018(12) 0.12937(10) 0.96343(5)
H13_16 H 0.000862 0.236643 0.992624
N3_16 N 0.15275(12) 0.19530(10) 0.89492(4)
C25_16 C 0.21909(14) 0.21627(12) 0.89188(6)
H17_16 H 0.255064 0.197839 0.904372
C26_16 C 0.23696(14) 0.26384(12) 0.87117(6)
H18_16 H 0.284559 0.277439 0.869539
C27_16 C 0.18525(13) 0.29164(11) 0.85278(5)
C28_16 C 0.11607(16) 0.26940(17) 0.85597(7)
H19_16 H 0.079190 0.286696 0.843591
C29_16 C 0.10194(16) 0.22182(17) 0.87739(7)
H20_16 H 0.054750 0.207531 0.879730
C30_16 C 0.27968(11) 0.39765(10) 0.79575(5)
H21_16 H 0.325213 0.401394 0.786645
C31_16 C 0.26775(12) 0.34972(10) 0.81706(5)
H22_16 H 0.304515 0.321232 0.822366
C32_16 C 0.20113(12) 0.34359(10) 0.83072(5)
C33_16 C 0.14989(12) 0.38832(13) 0.82249(5)
H23_16 H 0.104320 0.386576 0.831705
C34_16 C 0.16578(11) 0.43511(11) 0.80091(5)
H24_16 H 0.130574 0.465094 0.795560
H2_14 H 0.341561 0.965045 0.019739
C9_16 C 0.01304(14) 0.98616(12) 0.87117(6)
C10_16 C 0.06475(13) 0.95836(11) 0.85278(5)
C11_16 C 0.13393(16) 0.98060(17) 0.85597(7)
H7_16 H 0.170810 0.963304 0.843591
C15_16 C 0.04887(12) 0.90641(10) 0.83072(5)
C16_16 C 0.10011(12) 0.86168(13) 0.82249(5)
H11_16 H 0.145680 0.863424 0.831705
C17_16 C 0.08422(11) 0.81489(11) 0.80091(5)
H12_16 H 0.119426 0.784906 0.795560
C21_16 C 0.90083(15) 0.24590(12) 0.00939(8)
H14_16 H 0.908439 0.284955 0.019739
C22_16 C 0.83476(14) 0.21788(13) 0.01013(7)
H15_16 H 0.797030 0.237837 0.020898
H5_16 H 0.994936 0.052161 0.904372
C19_16 C 0.94626(12) 0.15837(10) 0.97861(5)
C20_16 C 0.95602(14) 0.21675(11) 0.99346(6)
C23_16 C 0.82370(13) 0.16030(12) 0.99503(6)
H16_16 H 0.778200 0.141563 0.995254
C24_16 C 0.87891(12) 0.13031(10) 0.97969(5)
S2_16 S 0.86274(3) 0.05560(2) 0.96195(2)
O9_16 O 0.89868(11) 0.05520(9) 0.93214(4)
O10_16 O 0.78674(9) 0.04966(8) 0.95959(4)
H6_16 H 0.965441 0.972561 0.869539
C13_16 C 0.97032(11) 0.85235(10) 0.79575(5)
H9_16 H 0.924787 0.848606 0.786645
C14_16 C 0.98225(12) 0.90028(10) 0.81706(5)
H10_16 H 0.945485 0.928768 0.822366
H2_15 H 0.091561 0.034955 0.769739
H2_16 H 0.908439 0.965045 0.230261
loop_
_geom_bond_atom_site_label_1
_geom_bond_atom_site_label_2
_geom_bond_site_symmetry_1
_geom_bond_site_symmetry_2
Zn1 O1 1_555 1_555
Zn2 O2 1_555 1_555
O1 C1 1_555 1_555
O2 C1 1_555 1_555
C1 C2 1_555 1_555
C2 C3 1_555 1_555
C3 H1 1_555 1_555
C4 C3 1_555 1_555
H2 C4 1_555 1_555
C5 C4 1_555 1_555
H3 C5 1_555 1_555
C6 C5 1_555 1_555
H4 C6 1_555 1_555
C7 C2 1_555 1_555
S1 C7 1_555 1_555
O3 Zn2 1_555 1_555
O4 S1 1_555 1_555
O5 S1 1_555 1_555
N1 Zn1 1_555 1_555
C8 N1 1_555 1_555
H5 C8 1_555 1_555
C9 C8 1_555 1_555
H6 C9 1_555 1_555
C10 C9 1_555 1_555
C11 C10 1_555 1_555
H7 C11 1_555 1_555
C12 N1 1_555 1_555
H8 C12 1_555 1_555
N2 C13 1_555 1_555
C13 H9 1_555 1_555
C14 C13 1_555 1_555
H10 C14 1_555 1_555
C15 C10 1_555 1_555
C16 C15 1_555 1_555
H11 C16 1_555 1_555
C17 N2 1_555 1_555
H12 C17 1_555 1_555
O6 Zn1 1_555 1_555
O7 C18 1_555 1_555
C18 O6 1_555 1_555
C19 C18 1_555 1_555
C20 C19 1_555 1_555
H13 C20 1_555 1_555
C21 C20 1_555 1_555
H14 C21 1_555 1_555
C22 C21 1_555 1_555
H15 C22 1_555 1_555
C23 C22 1_555 1_555
H16 C23 1_555 1_555
C24 C19 1_555 1_555
S2 C24 1_555 1_555
O8 S2 1_555 1_555
O9 S2 1_555 1_555
O10 S2 1_555 1_555
N3 Zn1 1_555 1_555
C25 N3 1_555 1_555
H17 C25 1_555 1_555
C26 C25 1_555 1_555
H18 C26 1_555 1_555
C27 C26 1_555 1_555
C28 C27 1_555 1_555
H19 C28 1_555 1_555
C29 N3 1_555 1_555
H20 C29 1_555 1_555
N4 C30 1_555 1_555
C30 H21 1_555 1_555
C31 C30 1_555 1_555
H22 C31 1_555 1_555
C32 C27 1_555 1_555
C33 C32 1_555 1_555
H23 C33 1_555 1_555
C34 N4 1_555 1_555
H24 C34 1_555 1_555
Zn3 O7 1_555 1_555
Zn4 N2 1_555 1_555
Zn5 N4 1_555 1_555
O11 Zn2 1_555 1_555
O12 Zn2 1_555 1_555
N5 Zn2 1_555 1_555
N6 Zn2 1_555 1_555
C6 C7 1_555 1_555
S1 O3 1_555 1_555
C11 C12 1_555 1_555
C14 C15 1_555 1_555
C16 C17 1_555 1_555
C23 C24 1_555 1_555
O8 Zn3 1_555 1_555
C28 C29 1_555 1_555
C31 C32 1_555 1_555
C33 C34 1_555 1_555
O11_2 Zn3 1_555 1_555
O12_2 Zn3 1_555 1_555
N5_2 Zn3 1_555 1_555
N6_2 Zn3 1_555 1_555
Zn1_2 O1_2 1_555 1_555
Zn2_2 O2_2 1_555 1_555
O1_2 C1_2 1_555 1_555
O2_2 C1_2 1_555 1_555
C1_2 C2_2 1_555 1_555
C2_2 C3_2 1_555 1_555
C3_2 H1_2 1_555 1_555
H4_2 C6_2 1_555 1_555
C7_2 C2_2 1_555 1_555
S1_2 C7_2 1_555 1_555
O3_2 Zn2_2 1_555 1_555
O4_2 S1_2 1_555 1_555
O5_2 S1_2 1_555 1_555
N1_2 Zn1_2 1_555 1_555
C8_2 N1_2 1_555 1_555
H5_2 C8_2 1_555 1_555
C9_2 C8_2 1_555 1_555
H6_2 C9_2 1_555 1_555
C10_2 C9_2 1_555 1_555
C11_2 C10_2 1_555 1_555
H7_2 C11_2 1_555 1_555
C12_2 N1_2 1_555 1_555
H8_2 C12_2 1_555 1_555
N2_2 C13_2 1_555 1_555
C13_2 H9_2 1_555 1_555
C14_2 C13_2 1_555 1_555
H10_2 C14_2 1_555 1_555
C15_2 C10_2 1_555 1_555
C16_2 C15_2 1_555 1_555
H11_2 C16_2 1_555 1_555
C17_2 N2_2 1_555 1_555
H12_2 C17_2 1_555 1_555
O6_2 Zn1_2 1_555 1_555
O7_2 C18_2 1_555 1_555
C18_2 O6_2 1_555 1_555
C19_2 C18_2 1_555 1_555
C20_2 C19_2 1_555 1_555
H13_2 C20_2 1_555 1_555
H16_2 C23_2 1_555 1_555
C24_2 C19_2 1_555 1_555
S2_2 C24_2 1_555 1_555
O8_2 S2_2 1_555 1_555
O9_2 S2_2 1_555 1_555
O10_2 S2_2 1_555 1_555
N3_2 Zn1_2 1_555 1_555
C25_2 N3_2 1_555 1_555
H17_2 C25_2 1_555 1_555
C26_2 C25_2 1_555 1_555
H18_2 C26_2 1_555 1_555
C27_2 C26_2 1_555 1_555
C28_2 C27_2 1_555 1_555
H19_2 C28_2 1_555 1_555
C29_2 N3_2 1_555 1_555
H20_2 C29_2 1_555 1_555
N4_2 C30_2 1_555 1_555
C30_2 H21_2 1_555 1_555
C31_2 C30_2 1_555 1_555
H22_2 C31_2 1_555 1_555
C32_2 C27_2 1_555 1_555
C33_2 C32_2 1_555 1_555
H23_2 C33_2 1_555 1_555
C34_2 N4_2 1_555 1_555
H24_2 C34_2 1_555 1_555
Zn3_2 O7_2 1_555 1_555
Zn4_2 N2_2 1_555 1_555
Zn5_3 N4_2 1_555 1_555
N5_3 Zn2_2 1_555 1_555
C6_2 C7_2 1_555 1_555
S1_2 O3_2 1_555 1_555
C11_2 C12_2 1_555 1_555
C14_2 C15_2 1_555 1_555
C16_2 C17_2 1_555 1_555
C23_2 C24_2 1_555 1_555
O8_2 Zn3_2 1_555 1_555
C28_2 C29_2 1_555 1_555
C31_2 C32_2 1_555 1_555
C33_2 C34_2 1_555 1_555
H2_2 C4_2 1_555 1_555
C5_2 C4_2 1_555 1_555
H3_2 C5_2 1_555 1_555
H14_2 C21_2 1_555 1_555
C22_2 C21_2 1_555 1_555
H15_2 C22_2 1_555 1_555
O11_3 Zn2_3 1_555 1_555
O12_3 Zn2_3 1_555 1_555
N6_3 Zn2_3 1_555 1_555
N5_4 Zn3_2 1_555 1_555
O11_4 Zn3_3 1_555 1_555
O12_4 Zn3_3 1_555 1_555
N6_4 Zn3_3 1_555 1_555
H6_3 C9_3 1_555 1_555
C10_3 C9_3 1_555 1_555
C11_3 C10_3 1_555 1_555
H7_3 C11_3 1_555 1_555
N5_3 C13_3 1_555 1_555
C13_3 H9_3 1_555 1_555
C14_3 C13_3 1_555 1_555
H10_3 C14_3 1_555 1_555
C15_3 C10_3 1_555 1_555
C16_3 C15_3 1_555 1_555
H11_3 C16_3 1_555 1_555
C17_3 N5_3 1_555 1_555
H12_3 C17_3 1_555 1_555
C14_3 C15_3 1_555 1_555
C16_3 C17_3 1_555 1_555
Zn1_3 O1_3 1_555 1_555
Zn4_2 O2_3 1_555 1_555
O1_3 C1_3 1_555 1_555
O2_3 C1_3 1_555 1_555
C1_3 C2_3 1_555 1_555
C2_3 C3_3 1_555 1_555
C3_3 H1_3 1_555 1_555
C4_3 C3_3 1_555 1_555
C5_3 C4_3 1_555 1_555
H3_3 C5_3 1_555 1_555
C6_3 C5_3 1_555 1_555
H4_3 C6_3 1_555 1_555
C7_3 C2_3 1_555 1_555
S1_3 C7_3 1_555 1_555
O3_3 Zn4_2 1_555 1_555
O4_3 S1_3 1_555 1_555
O5_3 S1_3 1_555 1_555
N1_3 Zn1_3 1_555 1_555
C8_3 N1_3 1_555 1_555
H5_3 C8_3 1_555 1_555
C12_3 N1_3 1_555 1_555
H8_3 C12_3 1_555 1_555
O6_3 Zn1_3 1_555 1_555
O7_3 C18_3 1_555 1_555
C18_3 O6_3 1_555 1_555
C19_3 C18_3 1_555 1_555
C20_3 C19_3 1_555 1_555
H13_3 C20_3 1_555 1_555
C21_3 C20_3 1_555 1_555
H14_3 C21_3 1_555 1_555
C22_3 C21_3 1_555 1_555
H15_3 C22_3 1_555 1_555
C23_3 C22_3 1_555 1_555
H16_3 C23_3 1_555 1_555
C24_3 C19_3 1_555 1_555
S2_3 C24_3 1_555 1_555
O8_3 S2_3 1_555 1_555
O9_3 S2_3 1_555 1_555
O10_3 S2_3 1_555 1_555
N3_3 Zn1_3 1_555 1_555
C25_3 N3_3 1_555 1_555
H17_3 C25_3 1_555 1_555
C26_3 C25_3 1_555 1_555
H18_3 C26_3 1_555 1_555
C27_3 C26_3 1_555 1_555
C28_3 C27_3 1_555 1_555
H19_3 C28_3 1_555 1_555
C29_3 N3_3 1_555 1_555
H20_3 C29_3 1_555 1_555
N5_4 C30_3 1_555 1_555
C30_3 H21_3 1_555 1_555
C31_3 C30_3 1_555 1_555
H22_3 C31_3 1_555 1_555
C32_3 C27_3 1_555 1_555
C33_3 C32_3 1_555 1_555
H23_3 C33_3 1_555 1_555
C34_3 N5_4 1_555 1_555
H24_3 C34_3 1_555 1_555
Zn5_4 O7_3 1_555 1_555
O11_5 Zn4_2 1_555 1_555
O12_5 Zn4_2 1_555 1_555
N6_5 Zn4_2 1_555 1_555
C6_3 C7_3 1_555 1_555
S1_3 O3_3 1_555 1_555
C23_3 C24_3 1_555 1_555
O8_3 Zn5_4 1_555 1_555
C28_3 C29_3 1_555 1_555
C31_3 C32_3 1_555 1_555
C33_3 C34_3 1_555 1_555
O11_6 Zn5_3 1_555 1_555
O12_6 Zn5_3 1_555 1_555
N6_6 Zn5_4 1_555 1_555
H6_4 C9_4 1_555 1_555
C10_4 C9_4 1_555 1_555
C11_4 C10_4 1_555 1_555
H7_4 C11_4 1_555 1_555
N5 C13_4 1_555 1_555
C13_4 H9_4 1_555 1_555
C14_4 C13_4 1_555 1_555
H10_4 C14_4 1_555 1_555
C15_4 C10_4 1_555 1_555
C16_4 C15_4 1_555 1_555
H11_4 C16_4 1_555 1_555
C17_4 N5 1_555 1_555
H12_4 C17_4 1_555 1_555
C14_4 C15_4 1_555 1_555
C16_4 C17_4 1_555 1_555
Zn1_4 O1_4 1_555 1_555
Zn4 O2_4 1_555 1_555
O1_4 C1_4 1_555 1_555
O2_4 C1_4 1_555 1_555
C1_4 C2_4 1_555 1_555
C2_4 C3_4 1_555 1_555
C3_4 H1_4 1_555 1_555
C4_4 C3_4 1_555 1_555
C5_4 C4_4 1_555 1_555
H3_4 C5_4 1_555 1_555
C6_4 C5_4 1_555 1_555
H4_4 C6_4 1_555 1_555
C7_4 C2_4 1_555 1_555
S1_4 C7_4 1_555 1_555
O3_4 Zn4 1_555 1_555
O4_4 S1_4 1_555 1_555
O5_4 S1_4 1_555 1_555
N1_4 Zn1_4 1_555 1_555
C8_4 N1_4 1_555 1_555
H5_4 C8_4 1_555 1_555
C12_4 N1_4 1_555 1_555
H8_4 C12_4 1_555 1_555
O6_4 Zn1_4 1_555 1_555
O7_4 C18_4 1_555 1_555
C18_4 O6_4 1_555 1_555
C19_4 C18_4 1_555 1_555
C20_4 C19_4 1_555 1_555
H13_4 C20_4 1_555 1_555
C21_4 C20_4 1_555 1_555
H14_4 C21_4 1_555 1_555
C22_4 C21_4 1_555 1_555
H15_4 C22_4 1_555 1_555
C23_4 C22_4 1_555 1_555
H16_4 C23_4 1_555 1_555
C24_4 C19_4 1_555 1_555
S2_4 C24_4 1_555 1_555
O8_4 S2_4 1_555 1_555
O9_4 S2_4 1_555 1_555
O10_4 S2_4 1_555 1_555
N3_4 Zn1_4 1_555 1_555
C25_4 N3_4 1_555 1_555
H17_4 C25_4 1_555 1_555
C26_4 C25_4 1_555 1_555
H18_4 C26_4 1_555 1_555
C27_4 C26_4 1_555 1_555
C28_4 C27_4 1_555 1_555
H19_4 C28_4 1_555 1_555
C29_4 N3_4 1_555 1_555
H20_4 C29_4 1_555 1_555
N5_2 C30_4 1_555 1_555
C30_4 H21_4 1_555 1_555
C31_4 C30_4 1_555 1_555
H22_4 C31_4 1_555 1_555
C32_4 C27_4 1_555 1_555
C33_4 C32_4 1_555 1_555
H23_4 C33_4 1_555 1_555
C34_4 N5_2 1_555 1_555
H24_4 C34_4 1_555 1_555
Zn5_2 O7_4 1_555 1_555
O11_7 Zn4 1_555 1_555
O12_7 Zn4 1_555 1_555
N6_7 Zn4 1_555 1_555
C6_4 C7_4 1_555 1_555
S1_4 O3_4 1_555 1_555
C23_4 C24_4 1_555 1_555
O8_4 Zn5_2 1_555 1_555
C28_4 C29_4 1_555 1_555
C31_4 C32_4 1_555 1_555
C33_4 C34_4 1_555 1_555
O11_8 Zn5 1_555 1_555
O12_8 Zn5 1_555 1_555
N6_8 Zn5_2 1_555 1_555
C2_5 C3_5 1_555 1_555
C4_5 C3_5 1_555 1_555
H2_5 C4_5 1_555 1_555
C5_5 C4_5 1_555 1_555
H3_5 C5_5 1_555 1_555
C6_5 C5_5 1_555 1_555
H4_5 C6_5 1_555 1_555
C7_5 C2_5 1_555 1_555
S1_5 C7_5 1_555 1_555
O3_5 Zn2_4 1_555 1_555
O4_5 S1_5 1_555 1_555
O5_5 S1_5 1_555 1_555
C30_5 H21_5 1_555 1_555
C31_5 C30_5 1_555 1_555
H22_5 C31_5 1_555 1_555
O11_9 Zn2_4 1_555 1_555
N6_9 Zn2_4 1_555 1_555
C6_5 C7_5 1_555 1_555
S1_5 O3_5 1_555 1_555
Zn1_5 O1_5 1_555 1_555
Zn2_5 O2_5 1_555 1_555
O1_5 C1_5 1_555 1_555
O2_5 C1_5 1_555 1_555
N1_5 Zn1_5 1_555 1_555
C8_5 N1_5 1_555 1_555
H5_5 C8_5 1_555 1_555
C9_5 C8_5 1_555 1_555
H6_5 C9_5 1_555 1_555
C10_5 C9_5 1_555 1_555
C11_5 C10_5 1_555 1_555
H7_5 C11_5 1_555 1_555
C12_5 N1_5 1_555 1_555
H8_5 C12_5 1_555 1_555
N2_3 C13_5 1_555 1_555
C13_5 H9_5 1_555 1_555
C14_5 C13_5 1_555 1_555
H10_5 C14_5 1_555 1_555
C15_5 C10_5 1_555 1_555
C16_5 C15_5 1_555 1_555
H11_5 C16_5 1_555 1_555
C17_5 N2_3 1_555 1_555
H12_5 C17_5 1_555 1_555
O6_5 Zn1_5 1_555 1_555
O7_5 C18_5 1_555 1_555
C18_5 O6_5 1_555 1_555
C19_5 C18_5 1_555 1_555
C20_5 C19_5 1_555 1_555
H13_5 C20_5 1_555 1_555
C21_5 C20_5 1_555 1_555
H14_5 C21_5 1_555 1_555
C22_5 C21_5 1_555 1_555
H15_5 C22_5 1_555 1_555
C23_5 C22_5 1_555 1_555
H16_5 C23_5 1_555 1_555
C24_5 C19_5 1_555 1_555
S2_5 C24_5 1_555 1_555
O8_5 S2_5 1_555 1_555
O9_5 S2_5 1_555 1_555
O10_5 S2_5 1_555 1_555
N3_5 Zn1_5 1_555 1_555
C25_5 N3_5 1_555 1_555
C26_5 C25_5 1_555 1_555
C27_5 C26_5 1_555 1_555
C28_5 C27_5 1_555 1_555
H19_5 C28_5 1_555 1_555
C29_5 N3_5 1_555 1_555
H20_5 C29_5 1_555 1_555
C32_5 C27_5 1_555 1_555
C33_5 C32_5 1_555 1_555
H23_5 C33_5 1_555 1_555
C34_5 N4_3 1_555 1_555
H24_5 C34_5 1_555 1_555
Zn3_4 O7_5 1_555 1_555
Zn4_3 N2_3 1_555 1_555
Zn5_9 N4_3 1_555 1_555
O12_9 Zn2_5 1_555 1_555
N5_5 Zn2_5 1_555 1_555
C11_5 C12_5 1_555 1_555
C14_5 C15_5 1_555 1_555
C16_5 C17_5 1_555 1_555
C23_5 C24_5 1_555 1_555
O8_5 Zn3_4 1_555 1_555
C28_5 C29_5 1_555 1_555
C33_5 C34_5 1_555 1_555
O11_10 Zn3_4 1_555 1_555
O12_10 Zn3_4 1_555 1_555
N5_6 Zn3_4 1_555 1_555
N6_10 Zn3_4 1_555 1_555
C13_6 H9_6 1_555 1_555
C14_6 C13_6 1_555 1_555
H10_6 C14_6 1_555 1_555
C20_6 C19_6 1_555 1_555
C21_6 C20_6 1_555 1_555
H14_6 C21_6 1_555 1_555
C22_6 C21_6 1_555 1_555
H15_6 C22_6 1_555 1_555
C23_6 C22_6 1_555 1_555
H16_6 C23_6 1_555 1_555
C24_6 C19_6 1_555 1_555
S2_6 C24_6 1_555 1_555
O8_6 S2_6 1_555 1_555
O9_6 S2_6 1_555 1_555
O10_6 S2_6 1_555 1_555
C23_6 C24_6 1_555 1_555
O8_6 Zn3_5 1_555 1_555
Zn1_6 O1_6 1_555 1_555
Zn2_6 O2_6 1_555 1_555
O1_6 C1_6 1_555 1_555
O2_6 C1_6 1_555 1_555
C1_6 C2_6 1_555 1_555
C2_6 C3_6 1_555 1_555
C3_6 H1_6 1_555 1_555
C4_6 C3_6 1_555 1_555
H2_6 C4_6 1_555 1_555
C5_6 C4_6 1_555 1_555
H3_6 C5_6 1_555 1_555
C6_6 C5_6 1_555 1_555
H4_6 C6_6 1_555 1_555
C7_6 C2_6 1_555 1_555
S1_6 C7_6 1_555 1_555
O3_6 Zn2_6 1_555 1_555
O4_6 S1_6 1_555 1_555
O5_6 S1_6 1_555 1_555
N1_6 Zn1_6 1_555 1_555
C8_6 N1_6 1_555 1_555
C9_6 C8_6 1_555 1_555
C10_6 C9_6 1_555 1_555
C11_6 C10_6 1_555 1_555
H7_6 C11_6 1_555 1_555
C12_6 N1_6 1_555 1_555
H8_6 C12_6 1_555 1_555
C15_6 C10_6 1_555 1_555
C16_6 C15_6 1_555 1_555
H11_6 C16_6 1_555 1_555
C17_6 N2_4 1_555 1_555
H12_6 C17_6 1_555 1_555
O6_6 Zn1_6 1_555 1_555
O7_6 C18_6 1_555 1_555
C18_6 O6_6 1_555 1_555
N3_6 Zn1_6 1_555 1_555
C25_6 N3_6 1_555 1_555
H17_6 C25_6 1_555 1_555
C26_6 C25_6 1_555 1_555
H18_6 C26_6 1_555 1_555
C27_6 C26_6 1_555 1_555
C28_6 C27_6 1_555 1_555
H19_6 C28_6 1_555 1_555
C29_6 N3_6 1_555 1_555
H20_6 C29_6 1_555 1_555
N4_4 C30_6 1_555 1_555
C30_6 H21_6 1_555 1_555
C31_6 C30_6 1_555 1_555
H22_6 C31_6 1_555 1_555
C32_6 C27_6 1_555 1_555
C33_6 C32_6 1_555 1_555
H23_6 C33_6 1_555 1_555
C34_6 N4_4 1_555 1_555
H24_6 C34_6 1_555 1_555
Zn3_6 O7_6 1_555 1_555
Zn4_6 N2_4 1_555 1_555
Zn5_13 N4_4 1_555 1_555
O11_11 Zn2_6 1_555 1_555
O12_11 Zn2_6 1_555 1_555
N5_7 Zn2_6 1_555 1_555
N6_11 Zn2_6 1_555 1_555
C6_6 C7_6 1_555 1_555
S1_6 O3_6 1_555 1_555
C11_6 C12_6 1_555 1_555
C16_6 C17_6 1_555 1_555
C28_6 C29_6 1_555 1_555
C31_6 C32_6 1_555 1_555
C33_6 C34_6 1_555 1_555
O11_12 Zn3_5 1_555 1_555
N6_12 Zn3_5 1_555 1_555
O12_12 Zn3_6 1_555 1_555
N5_8 Zn3_6 1_555 1_555
C2_7 C3_7 1_555 1_555
C4_7 C3_7 1_555 1_555
C5_7 C4_7 1_555 1_555
H3_7 C5_7 1_555 1_555
C6_7 C5_7 1_555 1_555
H4_7 C6_7 1_555 1_555
C7_7 C2_7 1_555 1_555
S1_7 C7_7 1_555 1_555
O3_7 Zn4_5 1_555 1_555
O4_7 S1_7 1_555 1_555
O5_7 S1_7 1_555 1_555
C30_7 H21_7 1_555 1_555
C31_7 C30_7 1_555 1_555
H22_7 C31_7 1_555 1_555
O11_13 Zn4_5 1_555 1_555
N6_13 Zn4_5 1_555 1_555
C6_7 C7_7 1_555 1_555
S1_7 O3_7 1_555 1_555
H6_7 C9_7 1_555 1_555
C10_7 C9_7 1_555 1_555
C11_7 C10_7 1_555 1_555
H7_7 C11_7 1_555 1_555
N5_7 C13_7 1_555 1_555
C13_7 H9_7 1_555 1_555
C14_7 C13_7 1_555 1_555
H10_7 C14_7 1_555 1_555
C15_7 C10_7 1_555 1_555
C16_7 C15_7 1_555 1_555
H11_7 C16_7 1_555 1_555
C17_7 N5_7 1_555 1_555
H12_7 C17_7 1_555 1_555
C14_7 C15_7 1_555 1_555
C16_7 C17_7 1_555 1_555
Zn1_7 O1_7 1_555 1_555
Zn4_6 O2_7 1_555 1_555
O1_7 C1_7 1_555 1_555
O2_7 C1_7 1_555 1_555
N1_7 Zn1_7 1_555 1_555
C8_7 N1_7 1_555 1_555
H5_7 C8_7 1_555 1_555
C12_7 N1_7 1_555 1_555
H8_7 C12_7 1_555 1_555
O6_7 Zn1_7 1_555 1_555
O7_7 C18_7 1_555 1_555
C18_7 O6_7 1_555 1_555
C19_7 C18_7 1_555 1_555
C20_7 C19_7 1_555 1_555
H13_7 C20_7 1_555 1_555
C21_7 C20_7 1_555 1_555
H14_7 C21_7 1_555 1_555
C22_7 C21_7 1_555 1_555
H15_7 C22_7 1_555 1_555
C23_7 C22_7 1_555 1_555
H16_7 C23_7 1_555 1_555
C24_7 C19_7 1_555 1_555
S2_7 C24_7 1_555 1_555
O8_7 S2_7 1_555 1_555
O9_7 S2_7 1_555 1_555
O10_7 S2_7 1_555 1_555
N3_7 Zn1_7 1_555 1_555
C25_7 N3_7 1_555 1_555
C26_7 C25_7 1_555 1_555
C27_7 C26_7 1_555 1_555
C28_7 C27_7 1_555 1_555
H19_7 C28_7 1_555 1_555
C29_7 N3_7 1_555 1_555
H20_7 C29_7 1_555 1_555
C32_7 C27_7 1_555 1_555
C33_7 C32_7 1_555 1_555
H23_7 C33_7 1_555 1_555
C34_7 N5_8 1_555 1_555
H24_7 C34_7 1_555 1_555
Zn5_14 O7_7 1_555 1_555
O12_13 Zn4_6 1_555 1_555
C23_7 C24_7 1_555 1_555
O8_7 Zn5_14 1_555 1_555
C28_7 C29_7 1_555 1_555
C33_7 C34_7 1_555 1_555
O11_14 Zn5_13 1_555 1_555
O12_14 Zn5_13 1_555 1_555
N6_14 Zn5_14 1_555 1_555
C13_8 H9_8 1_555 1_555
C14_8 C13_8 1_555 1_555
H10_8 C14_8 1_555 1_555
C20_8 C19_8 1_555 1_555
H16_8 C23_8 1_555 1_555
C24_8 C19_8 1_555 1_555
S2_8 C24_8 1_555 1_555
O8_8 S2_8 1_555 1_555
O9_8 S2_8 1_555 1_555
O10_8 S2_8 1_555 1_555
C23_8 C24_8 1_555 1_555
O8_8 Zn5_7 1_555 1_555
H14_8 C21_8 1_555 1_555
C22_8 C21_8 1_555 1_555
H15_8 C22_8 1_555 1_555
C10_8 C9_8 1_555 1_555
C11_8 C10_8 1_555 1_555
H7_8 C11_8 1_555 1_555
C15_8 C10_8 1_555 1_555
C16_8 C15_8 1_555 1_555
H11_8 C16_8 1_555 1_555
C17_8 N5_5 1_555 1_555
H12_8 C17_8 1_555 1_555
C16_8 C17_8 1_555 1_555
Zn1_8 O1_8 1_555 1_555
Zn4_3 O2_8 1_555 1_555
O1_8 C1_8 1_555 1_555
O2_8 C1_8 1_555 1_555
C1_8 C2_8 1_555 1_555
C2_8 C3_8 1_555 1_555
C3_8 H1_8 1_555 1_555
H4_8 C6_8 1_555 1_555
C7_8 C2_8 1_555 1_555
S1_8 C7_8 1_555 1_555
O3_8 Zn4_3 1_555 1_555
O4_8 S1_8 1_555 1_555
O5_8 S1_8 1_555 1_555
N1_8 Zn1_8 1_555 1_555
C8_8 N1_8 1_555 1_555
C12_8 N1_8 1_555 1_555
H8_8 C12_8 1_555 1_555
O6_8 Zn1_8 1_555 1_555
O7_8 C18_8 1_555 1_555
C18_8 O6_8 1_555 1_555
N3_8 Zn1_8 1_555 1_555
C25_8 N3_8 1_555 1_555
H17_8 C25_8 1_555 1_555
C26_8 C25_8 1_555 1_555
H18_8 C26_8 1_555 1_555
C27_8 C26_8 1_555 1_555
C28_8 C27_8 1_555 1_555
H19_8 C28_8 1_555 1_555
C29_8 N3_8 1_555 1_555
H20_8 C29_8 1_555 1_555
N5_6 C30_8 1_555 1_555
C30_8 H21_8 1_555 1_555
C31_8 C30_8 1_555 1_555
H22_8 C31_8 1_555 1_555
C32_8 C27_8 1_555 1_555
C33_8 C32_8 1_555 1_555
H23_8 C33_8 1_555 1_555
C34_8 N5_6 1_555 1_555
H24_8 C34_8 1_555 1_555
Zn5_11 O7_8 1_555 1_555
C6_8 C7_8 1_555 1_555
S1_8 O3_8 1_555 1_555
C28_8 C29_8 1_555 1_555
C31_8 C32_8 1_555 1_555
C33_8 C34_8 1_555 1_555
C5_8 C4_8 1_555 1_555
H3_8 C5_8 1_555 1_555
O11_15 Zn4_4 1_555 1_555
O12_15 Zn4_4 1_555 1_555
N6_15 Zn4_4 1_555 1_555
O11_16 Zn5_6 1_555 1_555
N6_16 Zn5_8 1_555 1_555
O12_16 Zn5_10 1_555 1_555
Zn1_9 O1_9 1_555 1_555
O1_9 C1_9 1_555 1_555
O11_5 C1_9 1_555 1_555
C1_9 C2_9 1_555 1_555
C2_9 C3_9 1_555 1_555
C3_9 H1_9 1_555 1_555
C4_9 C3_9 1_555 1_555
H2_8 C4_9 1_555 1_555
C5_9 C4_9 1_555 1_555
H3_9 C5_9 1_555 1_555
C6_9 C5_9 1_555 1_555
H4_9 C6_9 1_555 1_555
C7_9 C2_9 1_555 1_555
S1_9 C7_9 1_555 1_555
O4_9 S1_9 1_555 1_555
O5_9 S1_9 1_555 1_555
N1_9 Zn1_9 1_555 1_555
C8_9 N1_9 1_555 1_555
H5_9 C8_9 1_555 1_555
C9_9 C8_9 1_555 1_555
H6_9 C9_9 1_555 1_555
C10_9 C9_9 1_555 1_555
C11_9 C10_9 1_555 1_555
H7_9 C11_9 1_555 1_555
C12_9 N1_9 1_555 1_555
H8_9 C12_9 1_555 1_555
N6_11 C13_9 1_555 1_555
C13_9 H9_9 1_555 1_555
C14_9 C13_9 1_555 1_555
H10_9 C14_9 1_555 1_555
C15_9 C10_9 1_555 1_555
C16_9 C15_9 1_555 1_555
H11_9 C16_9 1_555 1_555
C17_9 N6_11 1_555 1_555
H12_9 C17_9 1_555 1_555
O6_9 Zn1_9 1_555 1_555
O11_10 C18_9 1_555 1_555
C18_9 O6_9 1_555 1_555
C19_9 C18_9 1_555 1_555
C20_9 C19_9 1_555 1_555
H13_9 C20_9 1_555 1_555
C21_9 C20_9 1_555 1_555
H14_9 C21_9 1_555 1_555
C22_9 C21_9 1_555 1_555
H15_9 C22_9 1_555 1_555
C23_9 C22_9 1_555 1_555
H16_9 C23_9 1_555 1_555
C24_9 C19_9 1_555 1_555
S2_9 C24_9 1_555 1_555
O12_10 S2_9 1_555 1_555
O9_9 S2_9 1_555 1_555
O10_9 S2_9 1_555 1_555
N3_9 Zn1_9 1_555 1_555
C25_9 N3_9 1_555 1_555
H17_9 C25_9 1_555 1_555
C26_9 C25_9 1_555 1_555
H18_9 C26_9 1_555 1_555
C27_9 C26_9 1_555 1_555
C28_9 C27_9 1_555 1_555
H19_9 C28_9 1_555 1_555
C29_9 N3_9 1_555 1_555
H20_9 C29_9 1_555 1_555
N6_8 C30_9 1_555 1_555
C30_9 H21_9 1_555 1_555
C31_9 C30_9 1_555 1_555
H22_9 C31_9 1_555 1_555
C32_9 C27_9 1_555 1_555
C33_9 C32_9 1_555 1_555
H23_9 C33_9 1_555 1_555
C34_9 N6_8 1_555 1_555
H24_9 C34_9 1_555 1_555
C6_9 C7_9 1_555 1_555
S1_9 O12_5 1_555 1_555
C11_9 C12_9 1_555 1_555
C14_9 C15_9 1_555 1_555
C16_9 C17_9 1_555 1_555
C23_9 C24_9 1_555 1_555
C28_9 C29_9 1_555 1_555
C31_9 C32_9 1_555 1_555
C33_9 C34_9 1_555 1_555
H2_9 C4_10 1_555 1_555
C5_10 C4_10 1_555 1_555
H3_10 C5_10 1_555 1_555
H14_10 C21_10 1_555 1_555
C22_10 C21_10 1_555 1_555
H15_10 C22_10 1_555 1_555
Zn1_10 O1_10 1_555 1_555
O1_10 C1_10 1_555 1_555
O11_15 C1_10 1_555 1_555
C1_10 C2_10 1_555 1_555
C2_10 C3_10 1_555 1_555
C3_10 H1_10 1_555 1_555
H4_10 C6_10 1_555 1_555
C7_10 C2_10 1_555 1_555
S1_10 C7_10 1_555 1_555
O4_10 S1_10 1_555 1_555
O5_10 S1_10 1_555 1_555
N1_10 Zn1_10 1_555 1_555
C8_10 N1_10 1_555 1_555
H5_10 C8_10 1_555 1_555
C9_10 C8_10 1_555 1_555
H6_10 C9_10 1_555 1_555
C10_10 C9_10 1_555 1_555
C11_10 C10_10 1_555 1_555
H7_10 C11_10 1_555 1_555
C12_10 N1_10 1_555 1_555
H8_10 C12_10 1_555 1_555
N6 C13_10 1_555 1_555
C13_10 H9_10 1_555 1_555
C14_10 C13_10 1_555 1_555
H10_10 C14_10 1_555 1_555
C15_10 C10_10 1_555 1_555
C16_10 C15_10 1_555 1_555
H11_10 C16_10 1_555 1_555
C17_10 N6 1_555 1_555
H12_10 C17_10 1_555 1_555
O6_10 Zn1_10 1_555 1_555
O11_4 C18_10 1_555 1_555
C18_10 O6_10 1_555 1_555
C19_10 C18_10 1_555 1_555
C20_10 C19_10 1_555 1_555
H13_10 C20_10 1_555 1_555
H16_10 C23_10 1_555 1_555
C24_10 C19_10 1_555 1_555
S2_10 C24_10 1_555 1_555
O12_4 S2_10 1_555 1_555
O9_10 S2_10 1_555 1_555
O10_10 S2_10 1_555 1_555
N3_10 Zn1_10 1_555 1_555
C25_10 N3_10 1_555 1_555
H17_10 C25_10 1_555 1_555
C26_10 C25_10 1_555 1_555
H18_10 C26_10 1_555 1_555
C27_10 C26_10 1_555 1_555
C28_10 C27_10 1_555 1_555
H19_10 C28_10 1_555 1_555
C29_10 N3_10 1_555 1_555
H20_10 C29_10 1_555 1_555
N6_14 C30_10 1_555 1_555
C30_10 H21_10 1_555 1_555
C31_10 C30_10 1_555 1_555
H22_10 C31_10 1_555 1_555
C32_10 C27_10 1_555 1_555
C33_10 C32_10 1_555 1_555
H23_10 C33_10 1_555 1_555
C34_10 N6_14 1_555 1_555
H24_10 C34_10 1_555 1_555
C6_10 C7_10 1_555 1_555
S1_10 O12_15 1_555 1_555
C11_10 C12_10 1_555 1_555
C14_10 C15_10 1_555 1_555
C16_10 C17_10 1_555 1_555
C23_10 C24_10 1_555 1_555
C28_10 C29_10 1_555 1_555
C31_10 C32_10 1_555 1_555
C33_10 C34_10 1_555 1_555
Zn1_11 O1_11 1_555 1_555
O1_11 C1_11 1_555 1_555
O11 C1_11 1_555 1_555
C1_11 C2_11 1_555 1_555
C2_11 C3_11 1_555 1_555
C3_11 H1_11 1_555 1_555
C4_11 C3_11 1_555 1_555
C5_11 C4_11 1_555 1_555
H3_11 C5_11 1_555 1_555
C6_11 C5_11 1_555 1_555
H4_11 C6_11 1_555 1_555
C7_11 C2_11 1_555 1_555
S1_11 C7_11 1_555 1_555
O4_11 S1_11 1_555 1_555
O5_11 S1_11 1_555 1_555
N1_11 Zn1_11 1_555 1_555
C8_11 N1_11 1_555 1_555
H5_11 C8_11 1_555 1_555
C12_11 N1_11 1_555 1_555
H8_11 C12_11 1_555 1_555
O6_11 Zn1_11 1_555 1_555
O11_14 C18_11 1_555 1_555
C18_11 O6_11 1_555 1_555
C19_11 C18_11 1_555 1_555
C20_11 C19_11 1_555 1_555
H13_11 C20_11 1_555 1_555
C21_11 C20_11 1_555 1_555
H14_11 C21_11 1_555 1_555
C22_11 C21_11 1_555 1_555
H15_11 C22_11 1_555 1_555
C23_11 C22_11 1_555 1_555
H16_11 C23_11 1_555 1_555
C24_11 C19_11 1_555 1_555
S2_11 C24_11 1_555 1_555
O12_14 S2_11 1_555 1_555
O9_11 S2_11 1_555 1_555
O10_11 S2_11 1_555 1_555
N3_11 Zn1_11 1_555 1_555
C25_11 N3_11 1_555 1_555
H17_11 C25_11 1_555 1_555
C26_11 C25_11 1_555 1_555
H18_11 C26_11 1_555 1_555
C27_11 C26_11 1_555 1_555
C28_11 C27_11 1_555 1_555
H19_11 C28_11 1_555 1_555
C29_11 N3_11 1_555 1_555
H20_11 C29_11 1_555 1_555
N6_4 C30_11 1_555 1_555
C30_11 H21_11 1_555 1_555
C31_11 C30_11 1_555 1_555
H22_11 C31_11 1_555 1_555
C32_11 C27_11 1_555 1_555
C33_11 C32_11 1_555 1_555
H23_11 C33_11 1_555 1_555
C34_11 N6_4 1_555 1_555
H24_11 C34_11 1_555 1_555
C6_11 C7_11 1_555 1_555
S1_11 O12 1_555 1_555
C23_11 C24_11 1_555 1_555
C28_11 C29_11 1_555 1_555
C31_11 C32_11 1_555 1_555
C33_11 C34_11 1_555 1_555
H6_11 C9_11 1_555 1_555
C10_11 C9_11 1_555 1_555
C11_11 C10_11 1_555 1_555
H7_11 C11_11 1_555 1_555
N6_15 C13_11 1_555 1_555
C13_11 H9_11 1_555 1_555
C14_11 C13_11 1_555 1_555
H10_11 C14_11 1_555 1_555
C15_11 C10_11 1_555 1_555
C16_11 C15_11 1_555 1_555
H11_11 C16_11 1_555 1_555
C17_11 N6_15 1_555 1_555
H12_11 C17_11 1_555 1_555
C14_11 C15_11 1_555 1_555
C16_11 C17_11 1_555 1_555
Zn1_12 O1_12 1_555 1_555
O1_12 C1_12 1_555 1_555
O11_11 C1_12 1_555 1_555
C1_12 C2_12 1_555 1_555
C2_12 C3_12 1_555 1_555
C3_12 H1_12 1_555 1_555
C4_12 C3_12 1_555 1_555
C5_12 C4_12 1_555 1_555
H3_12 C5_12 1_555 1_555
C6_12 C5_12 1_555 1_555
H4_12 C6_12 1_555 1_555
C7_12 C2_12 1_555 1_555
S1_12 C7_12 1_555 1_555
O4_12 S1_12 1_555 1_555
O5_12 S1_12 1_555 1_555
N1_12 Zn1_12 1_555 1_555
C8_12 N1_12 1_555 1_555
H5_12 C8_12 1_555 1_555
C12_12 N1_12 1_555 1_555
H8_12 C12_12 1_555 1_555
O6_12 Zn1_12 1_555 1_555
O11_8 C18_12 1_555 1_555
C18_12 O6_12 1_555 1_555
C19_12 C18_12 1_555 1_555
C20_12 C19_12 1_555 1_555
H13_12 C20_12 1_555 1_555
C21_12 C20_12 1_555 1_555
H14_12 C21_12 1_555 1_555
C22_12 C21_12 1_555 1_555
H15_12 C22_12 1_555 1_555
C23_12 C22_12 1_555 1_555
H16_12 C23_12 1_555 1_555
C24_12 C19_12 1_555 1_555
S2_12 C24_12 1_555 1_555
O12_8 S2_12 1_555 1_555
O9_12 S2_12 1_555 1_555
O10_12 S2_12 1_555 1_555
N3_12 Zn1_12 1_555 1_555
C25_12 N3_12 1_555 1_555
H17_12 C25_12 1_555 1_555
C26_12 C25_12 1_555 1_555
H18_12 C26_12 1_555 1_555
C27_12 C26_12 1_555 1_555
C28_12 C27_12 1_555 1_555
H19_12 C28_12 1_555 1_555
C29_12 N3_12 1_555 1_555
H20_12 C29_12 1_555 1_555
N6_10 C30_12 1_555 1_555
C30_12 H21_12 1_555 1_555
C31_12 C30_12 1_555 1_555
H22_12 C31_12 1_555 1_555
C32_12 C27_12 1_555 1_555
C33_12 C32_12 1_555 1_555
H23_12 C33_12 1_555 1_555
C34_12 N6_10 1_555 1_555
H24_12 C34_12 1_555 1_555
C6_12 C7_12 1_555 1_555
S1_12 O12_11 1_555 1_555
C23_12 C24_12 1_555 1_555
C28_12 C29_12 1_555 1_555
C31_12 C32_12 1_555 1_555
C33_12 C34_12 1_555 1_555
H6_12 C9_12 1_555 1_555
C10_12 C9_12 1_555 1_555
C11_12 C10_12 1_555 1_555
H7_12 C11_12 1_555 1_555
N6_5 C13_12 1_555 1_555
C13_12 H9_12 1_555 1_555
C14_12 C13_12 1_555 1_555
H10_12 C14_12 1_555 1_555
C15_12 C10_12 1_555 1_555
C16_12 C15_12 1_555 1_555
H11_12 C16_12 1_555 1_555
C17_12 N6_5 1_555 1_555
H12_12 C17_12 1_555 1_555
C14_12 C15_12 1_555 1_555
C16_12 C17_12 1_555 1_555
Zn1_13 O1_13 1_555 1_555
O1_13 C1_13 1_555 1_555
O11_13 C1_13 1_555 1_555
N1_13 Zn1_13 1_555 1_555
C8_13 N1_13 1_555 1_555
H5_13 C8_13 1_555 1_555
C9_13 C8_13 1_555 1_555
H6_13 C9_13 1_555 1_555
C10_13 C9_13 1_555 1_555
C11_13 C10_13 1_555 1_555
H7_13 C11_13 1_555 1_555
C12_13 N1_13 1_555 1_555
H8_13 C12_13 1_555 1_555
N6_3 C13_13 1_555 1_555
C13_13 H9_13 1_555 1_555
C14_13 C13_13 1_555 1_555
H10_13 C14_13 1_555 1_555
C15_13 C10_13 1_555 1_555
C16_13 C15_13 1_555 1_555
H11_13 C16_13 1_555 1_555
C17_13 N6_3 1_555 1_555
H12_13 C17_13 1_555 1_555
O6_13 Zn1_13 1_555 1_555
O11_2 C18_13 1_555 1_555
C18_13 O6_13 1_555 1_555
C19_13 C18_13 1_555 1_555
C20_13 C19_13 1_555 1_555
H13_13 C20_13 1_555 1_555
C21_13 C20_13 1_555 1_555
H14_13 C21_13 1_555 1_555
C22_13 C21_13 1_555 1_555
H15_13 C22_13 1_555 1_555
C23_13 C22_13 1_555 1_555
H16_13 C23_13 1_555 1_555
C24_13 C19_13 1_555 1_555
S2_13 C24_13 1_555 1_555
O12_2 S2_13 1_555 1_555
O9_13 S2_13 1_555 1_555
O10_13 S2_13 1_555 1_555
N3_13 Zn1_13 1_555 1_555
C25_13 N3_13 1_555 1_555
C26_13 C25_13 1_555 1_555
C27_13 C26_13 1_555 1_555
C28_13 C27_13 1_555 1_555
H19_13 C28_13 1_555 1_555
C29_13 N3_13 1_555 1_555
H20_13 C29_13 1_555 1_555
C32_13 C27_13 1_555 1_555
C33_13 C32_13 1_555 1_555
H23_13 C33_13 1_555 1_555
C34_13 N6_16 1_555 1_555
H24_13 C34_13 1_555 1_555
C11_13 C12_13 1_555 1_555
C14_13 C15_13 1_555 1_555
C16_13 C17_13 1_555 1_555
C23_13 C24_13 1_555 1_555
C28_13 C29_13 1_555 1_555
C33_13 C34_13 1_555 1_555
C2_13 C3_13 1_555 1_555
C4_13 C3_13 1_555 1_555
H2_12 C4_13 1_555 1_555
C5_13 C4_13 1_555 1_555
H3_13 C5_13 1_555 1_555
C6_13 C5_13 1_555 1_555
H4_13 C6_13 1_555 1_555
C7_13 C2_13 1_555 1_555
S1_13 C7_13 1_555 1_555
O4_13 S1_13 1_555 1_555
O5_13 S1_13 1_555 1_555
C30_13 H21_13 1_555 1_555
C31_13 C30_13 1_555 1_555
H22_13 C31_13 1_555 1_555
C6_13 C7_13 1_555 1_555
S1_13 O12_13 1_555 1_555
Zn1_14 O1_14 1_555 1_555
O1_14 C1_14 1_555 1_555
O11_7 C1_14 1_555 1_555
C1_14 C2_14 1_555 1_555
C2_14 C3_14 1_555 1_555
C3_14 H1_14 1_555 1_555
C4_14 C3_14 1_555 1_555
H2_13 C4_14 1_555 1_555
C5_14 C4_14 1_555 1_555
H3_14 C5_14 1_555 1_555
C6_14 C5_14 1_555 1_555
H4_14 C6_14 1_555 1_555
C7_14 C2_14 1_555 1_555
S1_14 C7_14 1_555 1_555
O4_14 S1_14 1_555 1_555
O5_14 S1_14 1_555 1_555
N1_14 Zn1_14 1_555 1_555
C8_14 N1_14 1_555 1_555
C9_14 C8_14 1_555 1_555
C10_14 C9_14 1_555 1_555
C11_14 C10_14 1_555 1_555
H7_14 C11_14 1_555 1_555
C12_14 N1_14 1_555 1_555
H8_14 C12_14 1_555 1_555
C15_14 C10_14 1_555 1_555
C16_14 C15_14 1_555 1_555
H11_14 C16_14 1_555 1_555
C17_14 N6_9 1_555 1_555
H12_14 C17_14 1_555 1_555
O6_14 Zn1_14 1_555 1_555
O11_12 C18_14 1_555 1_555
C18_14 O6_14 1_555 1_555
N3_14 Zn1_14 1_555 1_555
C25_14 N3_14 1_555 1_555
H17_14 C25_14 1_555 1_555
C26_14 C25_14 1_555 1_555
H18_14 C26_14 1_555 1_555
C27_14 C26_14 1_555 1_555
C28_14 C27_14 1_555 1_555
H19_14 C28_14 1_555 1_555
C29_14 N3_14 1_555 1_555
H20_14 C29_14 1_555 1_555
N6_6 C30_14 1_555 1_555
C30_14 H21_14 1_555 1_555
C31_14 C30_14 1_555 1_555
H22_14 C31_14 1_555 1_555
C32_14 C27_14 1_555 1_555
C33_14 C32_14 1_555 1_555
H23_14 C33_14 1_555 1_555
C34_14 N6_6 1_555 1_555
H24_14 C34_14 1_555 1_555
C6_14 C7_14 1_555 1_555
S1_14 O12_7 1_555 1_555
C11_14 C12_14 1_555 1_555
C16_14 C17_14 1_555 1_555
C28_14 C29_14 1_555 1_555
C31_14 C32_14 1_555 1_555
C33_14 C34_14 1_555 1_555
C13_14 H9_14 1_555 1_555
C14_14 C13_14 1_555 1_555
H10_14 C14_14 1_555 1_555
C20_14 C19_14 1_555 1_555
C21_14 C20_14 1_555 1_555
H14_14 C21_14 1_555 1_555
C22_14 C21_14 1_555 1_555
H15_14 C22_14 1_555 1_555
C23_14 C22_14 1_555 1_555
H16_14 C23_14 1_555 1_555
C24_14 C19_14 1_555 1_555
S2_14 C24_14 1_555 1_555
O12_12 S2_14 1_555 1_555
O9_14 S2_14 1_555 1_555
O10_14 S2_14 1_555 1_555
C23_14 C24_14 1_555 1_555
Zn1_15 O1_15 1_555 1_555
O1_15 C1_15 1_555 1_555
O11_9 C1_15 1_555 1_555
N1_15 Zn1_15 1_555 1_555
C8_15 N1_15 1_555 1_555
H5_15 C8_15 1_555 1_555
C12_15 N1_15 1_555 1_555
H8_15 C12_15 1_555 1_555
O6_15 Zn1_15 1_555 1_555
O11_6 C18_15 1_555 1_555
C18_15 O6_15 1_555 1_555
C19_15 C18_15 1_555 1_555
C20_15 C19_15 1_555 1_555
H13_15 C20_15 1_555 1_555
C21_15 C20_15 1_555 1_555
H14_15 C21_15 1_555 1_555
C22_15 C21_15 1_555 1_555
H15_15 C22_15 1_555 1_555
C23_15 C22_15 1_555 1_555
H16_15 C23_15 1_555 1_555
C24_15 C19_15 1_555 1_555
S2_15 C24_15 1_555 1_555
O12_6 S2_15 1_555 1_555
O9_15 S2_15 1_555 1_555
O10_15 S2_15 1_555 1_555
N3_15 Zn1_15 1_555 1_555
C25_15 N3_15 1_555 1_555
C26_15 C25_15 1_555 1_555
C27_15 C26_15 1_555 1_555
C28_15 C27_15 1_555 1_555
H19_15 C28_15 1_555 1_555
C29_15 N3_15 1_555 1_555
H20_15 C29_15 1_555 1_555
C32_15 C27_15 1_555 1_555
C33_15 C32_15 1_555 1_555
H23_15 C33_15 1_555 1_555
C34_15 N6_12 1_555 1_555
H24_15 C34_15 1_555 1_555
C23_15 C24_15 1_555 1_555
C28_15 C29_15 1_555 1_555
C33_15 C34_15 1_555 1_555
H6_15 C9_15 1_555 1_555
C10_15 C9_15 1_555 1_555
C11_15 C10_15 1_555 1_555
H7_15 C11_15 1_555 1_555
N6_7 C13_15 1_555 1_555
C13_15 H9_15 1_555 1_555
C14_15 C13_15 1_555 1_555
H10_15 C14_15 1_555 1_555
C15_15 C10_15 1_555 1_555
C16_15 C15_15 1_555 1_555
H11_15 C16_15 1_555 1_555
C17_15 N6_7 1_555 1_555
H12_15 C17_15 1_555 1_555
C14_15 C15_15 1_555 1_555
C16_15 C17_15 1_555 1_555
C2_15 C3_15 1_555 1_555
C4_15 C3_15 1_555 1_555
C5_15 C4_15 1_555 1_555
H3_15 C5_15 1_555 1_555
C6_15 C5_15 1_555 1_555
H4_15 C6_15 1_555 1_555
C7_15 C2_15 1_555 1_555
S1_15 C7_15 1_555 1_555
O4_15 S1_15 1_555 1_555
O5_15 S1_15 1_555 1_555
C30_15 H21_15 1_555 1_555
C31_15 C30_15 1_555 1_555
H22_15 C31_15 1_555 1_555
C6_15 C7_15 1_555 1_555
S1_15 O12_9 1_555 1_555
C5_16 C4_16 1_555 1_555
H3_16 C5_16 1_555 1_555
Zn1_16 O1_16 1_555 1_555
O1_16 C1_16 1_555 1_555
O11_3 C1_16 1_555 1_555
C1_16 C2_16 1_555 1_555
C2_16 C3_16 1_555 1_555
C3_16 H1_16 1_555 1_555
H4_16 C6_16 1_555 1_555
C7_16 C2_16 1_555 1_555
S1_16 C7_16 1_555 1_555
O4_16 S1_16 1_555 1_555
O5_16 S1_16 1_555 1_555
N1_16 Zn1_16 1_555 1_555
C8_16 N1_16 1_555 1_555
C12_16 N1_16 1_555 1_555
H8_16 C12_16 1_555 1_555
O6_16 Zn1_16 1_555 1_555
O11_16 C18_16 1_555 1_555
C18_16 O6_16 1_555 1_555
N3_16 Zn1_16 1_555 1_555
C25_16 N3_16 1_555 1_555
H17_16 C25_16 1_555 1_555
C26_16 C25_16 1_555 1_555
H18_16 C26_16 1_555 1_555
C27_16 C26_16 1_555 1_555
C28_16 C27_16 1_555 1_555
H19_16 C28_16 1_555 1_555
C29_16 N3_16 1_555 1_555
H20_16 C29_16 1_555 1_555
N6_2 C30_16 1_555 1_555
C30_16 H21_16 1_555 1_555
C31_16 C30_16 1_555 1_555
H22_16 C31_16 1_555 1_555
C32_16 C27_16 1_555 1_555
C33_16 C32_16 1_555 1_555
H23_16 C33_16 1_555 1_555
C34_16 N6_2 1_555 1_555
H24_16 C34_16 1_555 1_555
C6_16 C7_16 1_555 1_555
S1_16 O12_3 1_555 1_555
C28_16 C29_16 1_555 1_555
C31_16 C32_16 1_555 1_555
C33_16 C34_16 1_555 1_555
C10_16 C9_16 1_555 1_555
C11_16 C10_16 1_555 1_555
H7_16 C11_16 1_555 1_555
C15_16 C10_16 1_555 1_555
C16_16 C15_16 1_555 1_555
H11_16 C16_16 1_555 1_555
C17_16 N6_13 1_555 1_555
H12_16 C17_16 1_555 1_555
C16_16 C17_16 1_555 1_555
H14_16 C21_16 1_555 1_555
C22_16 C21_16 1_555 1_555
H15_16 C22_16 1_555 1_555
C20_16 C19_16 1_555 1_555
H16_16 C23_16 1_555 1_555
C24_16 C19_16 1_555 1_555
S2_16 C24_16 1_555 1_555
O12_16 S2_16 1_555 1_555
O9_16 S2_16 1_555 1_555
O10_16 S2_16 1_555 1_555
C23_16 C24_16 1_555 1_555
C13_16 H9_16 1_555 1_555
C14_16 C13_16 1_555 1_555
H10_16 C14_16 1_555 1_555

#END
