
###############################################################################
#
# This file contains modified crystal structure data generated from the
# MOF subset of the Cambridge Structural Database (CSD) v543 
# hosted by the Cambridge Crystallographic Data Centre (CCDC).
#
# This work is licensed under the Creative Commons
# Attribution-NonCommercial-ShareAlike 4.0 International License.
# To view a copy of this license, visit
# http://creativecommons.org/licenses/by-nc-sa/4.0/
# or send a letter to
# Creative Commons, PO Box 1866, Mountain View, CA 94042, USA.
#
# CIF created using the CSD Python API on 29 September 2022
# The structure has been converted into the P1 space group
# The structure has a 3D framework
# The original CSD entry CEKROB is in the trigonal crystal system
# The original CSD entry CEKROB is in a Sohncke space group
# The framework has been calculated to contain at least 10.0% void space
# The void calculation uses a probe of radius 1.32A, grid spacing 0.4
# The framework is charged, counterions have been retained in the structure
#
###############################################################################

data_CEKROB
_chemical_formula_moiety         '(C156 H168 Cl12 Fe5 Mn6 N35 O12)n'
_symmetry_cell_setting           triclinic
_symmetry_space_group_name_H-M   'P 1'
_symmetry_Int_Tables_number      1
_space_group_name_Hall           'P 1'
loop_
_symmetry_equiv_pos_site_id
_symmetry_equiv_pos_as_xyz
1 x,y,z
_cell_length_a                   16.2948(3)
_cell_length_b                   16.2948(3)
_cell_length_c                   19.3671(6)
_cell_angle_alpha                90
_cell_angle_beta                 90
_cell_angle_gamma                120
_cell_volume                     4453.42
loop_
_atom_site_label
_atom_site_type_symbol
_atom_site_fract_x
_atom_site_fract_y
_atom_site_fract_z
Fe1 Fe 0.53315(2) -0.0000 0.1667
C14 C 0.84746(14) 0.05093(14) 0.28542(11)
C15 C 0.83507(15) 0.08497(14) 0.34818(11)
H11 H 0.8799 0.1472 0.3629
C16 C 0.75752(14) 0.02818(13) 0.38889(10)
H12 H 0.7494 0.0515 0.4317
Cl2 Cl 0.94738(4) 0.12270(4) 0.23530(3)
Mn4 Mn 0.499350(19) 0.283390(28) 0.282257(13)
N7 N 0.80924(16) 0.25070(11) 0.02862(7)
N8 N 0.59837(16) 0.10544(11) 0.02565(8)
N9 N 0.49507(16) 0.15909(11) 0.21994(8)
N12 N 0.73769(18) 0.14195(13) 0.21228(9)
C30 C 0.74694(18) 0.40063(13) 0.01251(9)
H23 H 0.7138 0.4352 0.0259
C31 C 0.79285(18) 0.38596(13) 0.07686(9)
C32 C 0.85897(19) 0.34765(14) 0.05778(10)
H25 H 0.9061 0.3909 0.0237
H26 H 0.8939 0.3478 0.0996
C33 C 0.82884(18) 0.19040(13) 0.05567(9)
H27 H 0.8676 0.2101 0.0958
C34 C 0.79753(18) 0.09568(13) 0.03092(9)
C35 C 0.81967(20) 0.03730(14) 0.07094(10)
H28 H 0.8508 0.0593 0.1141
C40 C 0.71670(21) 0.32146(15) 0.12789(10)
H31 H 0.6772 0.3491 0.1400
H32 H 0.7467 0.3147 0.1697
H33 H 0.6771 0.2590 0.1069
C41 C 0.85698(20) 0.48428(15) 0.10844(11)
H34 H 0.8189 0.5137 0.1199
H35 H 0.9062 0.5241 0.0751
H36 H 0.8867 0.4778 0.1505
C42 C 0.50388(18) 0.09749(12) 0.19929(8)
C43 C 0.66134(18) 0.08769(13) 0.19620(9)
C44 C 0.56928(18) 0.06330(12) 0.07654(8)
Mn2 Mn 0.716610(28) 0.21596(2) 0.948923(13)
O3 O 0.62747(13) 0.17838(9) 0.87576(6)
O4 O 0.74107(13) 0.11912(9) 0.92277(6)
N6 N 0.67883(16) 0.31125(11) 0.97833(7)
N11 N 0.84091(11) 0.33598(11) 0.88661(8)
C23 C 0.54083(19) 0.16599(14) 0.88277(9)
C24 C 0.46744(20) 0.10016(14) 0.84006(9)
H19 H 0.4804 0.0648 0.8072
C25 C 0.37715(21) 0.08642(15) 0.84539(10)
H20 H 0.3281 0.0415 0.8165
C26 C 0.35788(21) 0.13827(14) 0.89299(10)
C27 C 0.42783(21) 0.20467(14) 0.93432(10)
H21 H 0.4141 0.2411 0.9656
C28 C 0.52032(20) 0.21866(14) 0.93011(9)
C29 C 0.59349(20) 0.29479(14) 0.97028(10)
H22 H 0.5772 0.3365 0.9928
H24 H 0.7973 0.4406 0.9792
C39 C 0.75438(17) 0.06402(12) 0.96590(9)
Cl3 Cl 0.24198(6) 0.11767(4) 0.90078(3)
Fe1_2 Fe 0.53315(2) 1.0000 0.1667
Mn1 Mn 0.500650(19) 0.78404(2) 0.384410(13)
O1 O 0.44909(9) 0.82162(9) 0.45757(6)
O2 O 0.62195(9) 0.88088(9) 0.41056(6)
N1 N 0.36758(11) 0.68875(11) 0.35500(7)
N2 N 0.55854(11) 0.74930(11) 0.30471(7)
N3 N 0.49293(11) 0.89456(11) 0.30768(8)
N4 N 0.33598(11) 0.84091(11) 0.11339(8)
N5 N 0.59574(12) 0.85805(13) 0.12105(9)
C1 C 0.37484(13) 0.83401(14) 0.45056(9)
C2 C 0.36728(14) 0.89984(14) 0.49327(9)
H1 H 0.4156 0.9352 0.5261
C3 C 0.29073(15) 0.91358(15) 0.48794(10)
H2 H 0.2866 0.9585 0.5168
C4 C 0.21961(15) 0.86173(14) 0.44034(10)
C5 C 0.22316(15) 0.79533(14) 0.39901(10)
H3 H 0.1730 0.7589 0.3677
C6 C 0.30166(14) 0.78134(14) 0.40322(9)
C7 C 0.29870(14) 0.70521(14) 0.36305(10)
H4 H 0.2407 0.6635 0.3405
C8 C 0.34631(13) 0.59937(13) 0.32082(9)
H5 H 0.2786 0.5648 0.3074
H6 H 0.3567 0.5594 0.3541
C9 C 0.40689(13) 0.61404(13) 0.25647(9)
C10 C 0.51132(13) 0.65235(14) 0.27555(10)
H7 H 0.5152 0.6091 0.3096
H8 H 0.5461 0.6522 0.2337
C11 C 0.63844(12) 0.80960(13) 0.27766(9)
H9 H 0.6575 0.7899 0.2375
C12 C 0.70185(13) 0.90432(13) 0.30241(9)
C13 C 0.78237(14) 0.96270(14) 0.26239(10)
H10 H 0.7915 0.9407 0.2192
C17 C 0.69036(12) 0.93598(12) 0.36743(9)
C18 C 0.39524(14) 0.67854(15) 0.20544(10)
H13 H 0.3281 0.6509 0.1933
H14 H 0.4320 0.6853 0.1636
H15 H 0.4181 0.7410 0.2264
C19 C 0.37270(13) 0.51572(15) 0.22489(11)
H16 H 0.3052 0.4863 0.2134
H17 H 0.3821 0.4759 0.2582
H18 H 0.4089 0.5222 0.1828
C20 C 0.40639(13) 0.90251(12) 0.13404(8)
C21 C 0.57365(13) 0.91231(13) 0.13713(9)
C22 C 0.50598(13) 0.93670(12) 0.25679(8)
Cl1 Cl 0.12431(4) 0.88233(4) 0.43255(3)
Mn3 Mn 0.21596(2) 0.716610(28) 0.051077(13)
N10 N 0.50493(16) 0.66402(11) 0.44672(8)
C36 C 0.79653(20) 0.94907(14) 0.04791(11)
Cl4 Cl 0.82468(6) 0.87730(4) 0.09803(3)
O1_2 O 0.17838(9) 0.62747(13) 0.12424(6)
O2_2 O 0.11912(9) 0.74107(13) 0.07723(6)
N1_2 N 0.31125(11) 0.67883(16) 0.02167(7)
C1_2 C 0.16599(14) 0.54083(19) 0.11723(9)
C2_2 C 0.10016(14) 0.46744(20) 0.15994(9)
H1_2 H 0.0648 0.4804 0.1928
C3_2 C 0.08642(15) 0.37715(21) 0.15461(10)
H2_2 H 0.0415 0.3281 0.1835
C4_2 C 0.13827(14) 0.35788(21) 0.10701(10)
C5_2 C 0.20467(14) 0.42783(21) 0.06568(10)
H3_2 H 0.2411 0.4141 0.0344
C6_2 C 0.21866(14) 0.52032(20) 0.06989(9)
C7_2 C 0.29479(14) 0.59349(20) 0.02972(10)
H4_2 H 0.3365 0.5772 0.0072
H6_2 H 0.4406 0.7973 0.0208
C17_2 C 0.06402(12) 0.75438(17) 0.03410(9)
Cl1_2 Cl 0.11767(4) 0.24198(6) 0.09922(3)
Fe1_3 Fe 0.0000 0.53315(2) 0.8334
N2_2 N 0.25070(11) 0.80924(16) 0.97138(7)
N3_2 N 0.10544(11) 0.59837(16) 0.97435(8)
N4_2 N 0.15909(11) 0.49507(16) 0.78006(8)
N5_2 N 0.14195(13) 0.73769(18) 0.78772(9)
C8_2 C 0.40063(13) 0.74694(18) 0.98749(9)
H5_2 H 0.4352 0.7138 0.9741
C9_2 C 0.38596(13) 0.79285(18) 0.92314(9)
C10_2 C 0.34765(14) 0.85897(19) 0.94222(10)
H7_2 H 0.3909 0.9061 0.9763
H8_2 H 0.3478 0.8939 0.9004
C11_2 C 0.19040(13) 0.82884(18) 0.94433(9)
H9_2 H 0.2101 0.8676 0.9042
C12_2 C 0.09568(13) 0.79753(18) 0.96908(9)
C13_2 C 0.03730(14) 0.81967(20) 0.92906(10)
H10_2 H 0.0593 0.8508 0.8859
C18_2 C 0.32146(15) 0.71670(21) 0.87211(10)
H13_2 H 0.3491 0.6772 0.8600
H14_2 H 0.3147 0.7467 0.8303
H15_2 H 0.2590 0.6771 0.8931
C19_2 C 0.48428(15) 0.85698(20) 0.89156(11)
H16_2 H 0.5137 0.8189 0.8801
H17_2 H 0.5241 0.9062 0.9249
H18_2 H 0.4778 0.8867 0.8495
C20_2 C 0.09749(12) 0.50388(18) 0.80071(8)
C21_2 C 0.08769(13) 0.66134(18) 0.80380(9)
C22_2 C 0.06330(12) 0.56928(18) 0.92346(8)
Mn3_2 Mn 0.283390(28) 0.499350(34) 0.717743(13)
C36_2 C 0.05093(14) 0.84746(24) 0.71458(11)
C37 C 0.08497(14) 0.83507(25) 0.65182(11)
H29 H 0.1472 0.8799 0.6371
C38 C 0.02818(13) 0.75752(23) 0.61111(10)
H30 H 0.0515 0.7494 0.5683
Cl4_2 Cl 0.12270(4) 0.94738(7) 0.76470(3)
Fe1_4 Fe 1.0000 0.53315(2) 0.8334
C14_2 C 0.94907(14) 0.79653(20) 0.95209(11)
Cl2_2 Cl 0.87730(4) 0.82468(6) 0.90197(3)
Mn2_2 Mn 0.78404(2) 0.500650(34) 0.615590(13)
O3_2 O 0.82162(9) 0.44909(16) 0.54243(6)
O4_2 O 0.88088(9) 0.62195(16) 0.58944(6)
N6_2 N 0.68875(11) 0.36758(19) 0.64500(7)
N7_2 N 0.74930(11) 0.55854(19) 0.69529(7)
N8_2 N 0.89456(11) 0.49293(19) 0.69232(8)
N11_2 N 0.66402(11) 0.50493(16) 0.55328(8)
N12_2 N 0.85805(13) 0.59574(22) 0.87895(9)
C23_2 C 0.83401(14) 0.37484(24) 0.54944(9)
C24_2 C 0.89984(14) 0.36728(24) 0.50673(9)
H19_2 H 0.9352 0.4156 0.4739
C25_2 C 0.91358(15) 0.29073(26) 0.51206(10)
H20_2 H 0.9585 0.2866 0.4832
C26_2 C 0.86173(14) 0.21961(25) 0.55966(10)
C27_2 C 0.79533(14) 0.22316(25) 0.60099(10)
H21_2 H 0.7589 0.1730 0.6323
C28_2 C 0.78134(14) 0.30166(24) 0.59678(9)
C29_2 C 0.70521(14) 0.29870(24) 0.63695(10)
H22_2 H 0.6635 0.2407 0.6595
C30_2 C 0.59937(13) 0.34631(22) 0.67918(9)
H23_2 H 0.5648 0.2786 0.6926
H24_2 H 0.5594 0.3567 0.6459
C31_2 C 0.61404(13) 0.40689(22) 0.74353(9)
C32_2 C 0.65235(14) 0.51132(24) 0.72445(10)
H25_2 H 0.6091 0.5152 0.6904
H26_2 H 0.6522 0.5461 0.7663
C33_2 C 0.80960(13) 0.63844(22) 0.72234(9)
H27_2 H 0.7899 0.6575 0.7625
C34_2 C 0.90432(13) 0.70185(22) 0.69759(9)
C35_2 C 0.96270(14) 0.78237(24) 0.73761(10)
H28_2 H 0.9407 0.7915 0.7808
C39_2 C 0.93598(12) 0.69036(21) 0.63257(9)
C40_2 C 0.67854(15) 0.39524(26) 0.79456(10)
H31_2 H 0.6509 0.3281 0.8067
H32_2 H 0.6853 0.4320 0.8364
H33_2 H 0.7410 0.4181 0.7736
C41_2 C 0.51572(15) 0.37270(25) 0.77511(11)
H34_2 H 0.4863 0.3052 0.7866
H35_2 H 0.4759 0.3821 0.7418
H36_2 H 0.5222 0.4089 0.8172
C42_2 C 0.90251(12) 0.40639(22) 0.86596(8)
C43_2 C 0.91231(13) 0.57365(22) 0.86287(9)
C44_2 C 0.93670(12) 0.50598(22) 0.74321(8)
Cl3_2 Cl 0.88233(4) 0.12431(7) 0.56745(3)
Fe1_5 Fe 0.46685(2) 0.46685(2) 0.5000
O1_3 O 0.37253(13) 0.55091(9) 0.79090(6)
O2_3 O 0.25893(13) 0.37805(9) 0.74389(6)
N1_3 N 0.32117(16) 0.63242(11) 0.68833(7)
N2_3 N 0.19076(16) 0.44146(11) 0.63804(7)
N3_3 N 0.40163(16) 0.50707(11) 0.64101(8)
N5_3 N 0.26231(18) 0.40426(12) 0.45438(9)
C1_3 C 0.45917(19) 0.62516(13) 0.78389(9)
C2_3 C 0.53256(20) 0.63272(14) 0.82660(9)
H1_3 H 0.5196 0.5844 0.8594
C3_3 C 0.62285(21) 0.70927(15) 0.82127(10)
H2_3 H 0.6719 0.7134 0.8501
C4_3 C 0.64212(21) 0.78039(15) 0.77367(10)
C5_3 C 0.57217(21) 0.77684(15) 0.73234(10)
H3_3 H 0.5859 0.8270 0.7010
C6_3 C 0.47968(20) 0.69834(14) 0.73655(9)
C7_3 C 0.40651(20) 0.70130(14) 0.69638(10)
H4_3 H 0.4228 0.7593 0.6738
C8_3 C 0.25306(18) 0.65369(13) 0.65415(9)
H5_3 H 0.2862 0.7214 0.6407
H6_3 H 0.2027 0.6433 0.6874
C9_3 C 0.20715(18) 0.59311(13) 0.58980(9)
C10_3 C 0.14103(19) 0.48868(13) 0.60888(10)
H7_3 H 0.0939 0.4848 0.6429
H8_3 H 0.1061 0.4539 0.5670
C11_3 C 0.17116(18) 0.36156(12) 0.61099(9)
H9_3 H 0.1324 0.3425 0.5708
C12_3 C 0.20247(18) 0.29815(13) 0.63574(9)
C13_3 C 0.18033(20) 0.21763(14) 0.59572(10)
H10_3 H 0.1492 0.2085 0.5525
C14_3 C 0.20347(20) 0.15254(14) 0.61875(11)
C15_2 C 0.24990(21) 0.16493(15) 0.68151(11)
H11_2 H 0.2673 0.1201 0.6962
C16_2 C 0.27066(19) 0.24248(14) 0.72222(10)
H12_2 H 0.3021 0.2506 0.7650
C17_3 C 0.24562(17) 0.30964(12) 0.70076(9)
C18_3 C 0.28330(21) 0.60476(14) 0.53877(10)
H13_3 H 0.3228 0.6719 0.5266
H14_3 H 0.2533 0.5680 0.4969
H15_3 H 0.3229 0.5819 0.5597
C19_3 C 0.14302(20) 0.62730(13) 0.55822(11)
H16_3 H 0.1811 0.6948 0.5467
H17_3 H 0.0938 0.6179 0.5915
H18_3 H 0.1133 0.5911 0.5161
C20_3 C 0.49612(18) 0.59361(13) 0.46737(8)
C21_3 C 0.33866(18) 0.42635(13) 0.47046(9)
C22_3 C 0.43072(18) 0.49402(13) 0.59012(8)
Cl1_3 Cl 0.75802(6) 0.87569(4) 0.76588(3)
Cl2_3 Cl 0.17532(6) 0.05262(4) 0.56863(3)
O3_3 O 0.55091(16) 0.37253(13) 0.20910(6)
O4_3 O 0.37805(16) 0.25893(13) 0.25611(6)
N6_3 N 0.63242(19) 0.32117(16) 0.31167(7)
N7_3 N 0.44146(19) 0.19076(16) 0.36196(7)
N8_3 N 0.50707(19) 0.40163(16) 0.35899(8)
N12_3 N 0.40426(22) 0.26231(18) 0.54562(9)
C23_3 C 0.62516(24) 0.45917(19) 0.21611(9)
C24_3 C 0.63272(24) 0.53256(20) 0.17340(9)
H19_3 H 0.5844 0.5196 0.1406
C25_3 C 0.70927(26) 0.62285(21) 0.17873(10)
H20_3 H 0.7134 0.6719 0.1499
C26_3 C 0.78039(25) 0.64212(21) 0.22633(10)
C27_3 C 0.77684(25) 0.57217(21) 0.26766(10)
H21_3 H 0.8270 0.5859 0.2990
C28_3 C 0.69834(24) 0.47968(20) 0.26345(9)
C29_3 C 0.70130(24) 0.40651(20) 0.30362(10)
H22_3 H 0.7593 0.4228 0.3262
C30_3 C 0.65369(22) 0.25306(18) 0.34585(9)
H23_3 H 0.7214 0.2862 0.3593
H24_3 H 0.6433 0.2027 0.3126
C31_3 C 0.59311(22) 0.20715(18) 0.41020(9)
C32_3 C 0.48868(24) 0.14103(19) 0.39112(10)
H25_3 H 0.4848 0.0939 0.3571
H26_3 H 0.4539 0.1061 0.4330
C33_3 C 0.36156(22) 0.17116(18) 0.38901(9)
H27_3 H 0.3425 0.1324 0.4292
C34_3 C 0.29815(22) 0.20247(18) 0.36426(9)
C35_3 C 0.21763(24) 0.18033(20) 0.40428(10)
H28_3 H 0.2085 0.1492 0.4475
C36_3 C 0.15254(24) 0.20347(20) 0.38125(11)
C37_2 C 0.16493(25) 0.24990(21) 0.31849(11)
H29_2 H 0.1201 0.2673 0.3038
C38_2 C 0.24248(23) 0.27066(19) 0.27778(10)
H30_2 H 0.2506 0.3021 0.2350
C39_3 C 0.30964(21) 0.24562(17) 0.29924(9)
C40_3 C 0.60476(26) 0.28330(21) 0.46123(10)
H31_3 H 0.6719 0.3228 0.4734
H32_3 H 0.5680 0.2533 0.5031
H33_3 H 0.5819 0.3229 0.4403
C41_3 C 0.62730(25) 0.14302(20) 0.44178(11)
H34_3 H 0.6948 0.1811 0.4533
H35_3 H 0.6179 0.0938 0.4085
H36_3 H 0.5911 0.1133 0.4839
C42_3 C 0.59361(22) 0.49612(18) 0.53263(8)
C43_3 C 0.42635(22) 0.33866(18) 0.52954(9)
C44_3 C 0.49402(22) 0.43072(18) 0.40988(8)
Cl3_3 Cl 0.87569(7) 0.75802(6) 0.23412(3)
Cl4_3 Cl 0.05262(7) 0.17532(6) 0.43137(3)
C37_3 C 0.75010(21) 0.91503(14) 0.98515(11)
H29_3 H 0.7327 0.8528 0.9704
C38_3 C 0.72934(19) 0.97182(13) 0.94444(10)
H30_3 H 0.6979 0.9485 0.9016
C15_3 C 0.91503(14) 0.75010(21) 0.01485(11)
H11_3 H 0.8528 0.7327 0.0296
C16_3 C 0.97182(13) 0.72934(19) 0.05556(10)
H12_3 H 0.9485 0.6979 0.0984
N13 N 0.18822(14) -0.0000 0.1667
H39 H 0.3269 0.0082 0.2487
C47 C 0.15971(17) 0.04727(15) 0.22069(11)
H42 H 0.1539 0.0988 0.1983
H43 H 0.2113 0.0769 0.2552
H45 H 0.0569 0.0208 0.2925
C49 C 0.27928(26) 0.07762(18) 0.13493(12)
H47 H 0.2690 0.1302 0.1208
H48 H 0.3290 0.1024 0.1709
C50 C 0.3158(4) 0.0489(3) 0.07339(15)
H50 H 0.3792 0.1004 0.0613
H51 H 0.2729 0.0357 0.0341
C52 C 0.0850(3) 0.0163(2) 0.07518(13)
H54 H 0.0601 0.0439 0.1083
H56 H 0.1407 0.0671 0.0520
N13_2 N 0.18822(14) 1.0000 0.1667
C45 C 0.20166(19) 0.92238(18) 0.19840(12)
H37 H 0.1388 0.8698 0.2125
H38 H 0.2266 0.8976 0.1624
C46 C 0.2669(2) 0.9511(3) 0.25994(15)
H40 H 0.2788 0.8996 0.2720
H41 H 0.2372 0.9643 0.2992
C48 C 0.0687(2) 0.9837(2) 0.25815(13)
H44 H 0.0162 0.9561 0.2250
H46 H 0.0736 0.9329 0.2813
H49 H 0.3187 0.9918 0.0846
C51 C 0.11244(23) 0.95273(15) 0.11264(11)
H52 H 0.0551 0.9012 0.1350
H53 H 0.1344 0.9231 0.0781
H55 H 0.0361 0.9792 0.0408
N13_3 N 0.0000 0.18822(14) 0.8334
C45_2 C 0.07762(18) 0.27928(26) 0.86507(12)
H37_2 H 0.1302 0.2690 0.8792
H38_2 H 0.1024 0.3290 0.8291
C46_2 C 0.0489(3) 0.3158(4) 0.92661(15)
H40_2 H 0.1004 0.3792 0.9387
H41_2 H 0.0357 0.2729 0.9659
C48_2 C 0.0163(2) 0.0850(3) 0.92482(13)
H44_2 H 0.0439 0.0601 0.8917
H46_2 H 0.0671 0.1407 0.9480
H49_2 H 0.0082 0.3269 0.7513
C51_2 C 0.04727(15) 0.15971(27) 0.77931(11)
H52_2 H 0.0988 0.1539 0.8017
H53_2 H 0.0769 0.2113 0.7448
H55_2 H 0.0208 0.0569 0.7075
N13_4 N 1.0000 0.18822(14) 0.8334
H39_2 H 0.9918 0.3187 0.9154
C47_2 C 0.95273(15) 0.11244(23) 0.88736(11)
H42_2 H 0.9012 0.0551 0.8650
H43_2 H 0.9231 0.1344 0.9219
H45_2 H 0.9792 0.0361 0.9592
C49_2 C 0.92238(18) 0.20166(32) 0.80160(12)
H47_2 H 0.8698 0.1388 0.7875
H48_2 H 0.8976 0.2266 0.8376
C50_2 C 0.9511(3) 0.2669(5) 0.74006(15)
H50_2 H 0.8996 0.2788 0.7280
H51_2 H 0.9643 0.2372 0.7008
C52_2 C 0.9837(2) 0.0687(4) 0.74185(13)
H54_2 H 0.9561 0.0162 0.7750
H56_2 H 0.9329 0.0736 0.7187
N13_5 N 0.81178(14) 0.81178(14) 0.5000
C45_3 C 0.72072(26) 0.79834(19) 0.53173(12)
H37_3 H 0.7310 0.8612 0.5458
H38_3 H 0.6710 0.7734 0.4957
C46_3 C 0.6842(4) 0.7331(2) 0.59327(15)
H39_3 H 0.6813 0.6731 0.5820
H40_3 H 0.6208 0.7212 0.6053
H41_3 H 0.7271 0.7628 0.6325
C47_3 C 0.88756(23) 0.84029(17) 0.55402(11)
H42_3 H 0.9449 0.8461 0.5316
H43_3 H 0.8656 0.7887 0.5885
C48_3 C 0.9150(3) 0.9313(2) 0.59148(13)
H44_3 H 0.9399 0.9838 0.5583
H45_3 H 0.9639 0.9431 0.6258
H46_3 H 0.8593 0.9264 0.6146
C49_3 C 0.79834(32) 0.72072(26) 0.46827(12)
H47_3 H 0.8612 0.7310 0.4542
H48_3 H 0.7734 0.6710 0.5043
C50_3 C 0.7331(5) 0.6842(4) 0.40673(15)
H49_3 H 0.6731 0.6813 0.4180
H50_3 H 0.7212 0.6208 0.3947
H51_3 H 0.7628 0.7271 0.3675
C51_3 C 0.84029(27) 0.88756(23) 0.44598(11)
H52_3 H 0.8461 0.9449 0.4684
H53_3 H 0.7887 0.8656 0.4115
C52_3 C 0.9313(4) 0.9150(3) 0.40852(13)
H54_3 H 0.9838 0.9399 0.4417
H55_3 H 0.9431 0.9639 0.3742
H56_3 H 0.9264 0.8593 0.3854
loop_
_geom_bond_atom_site_label_1
_geom_bond_atom_site_label_2
_geom_bond_site_symmetry_1
_geom_bond_site_symmetry_2
C15 C14 1_555 1_555
H11 C15 1_555 1_555
C16 C15 1_555 1_555
H12 C16 1_555 1_555
Cl2 C14 1_555 1_555
Mn4 N9 1_555 1_555
N9 C42 1_555 1_555
N12 C43 1_555 1_555
H23 C30 1_555 1_555
C31 C30 1_555 1_555
C32 N7 1_555 1_555
H25 C32 1_555 1_555
H26 C32 1_555 1_555
C33 N7 1_555 1_555
H27 C33 1_555 1_555
C34 C33 1_555 1_555
C35 C34 1_555 1_555
H28 C35 1_555 1_555
C40 C31 1_555 1_555
H31 C40 1_555 1_555
H32 C40 1_555 1_555
H33 C40 1_555 1_555
C41 C31 1_555 1_555
H34 C41 1_555 1_555
H35 C41 1_555 1_555
H36 C41 1_555 1_555
C42 Fe1 1_555 1_555
C43 Fe1 1_555 1_555
C44 Fe1 1_555 1_555
N8 C44 1_555 1_555
C31 C32 1_555 1_555
Mn2 O3 1_555 1_555
O3 C23 1_555 1_555
O4 Mn2 1_555 1_555
N6 Mn2 1_555 1_555
N11 Mn2 1_555 1_555
C23 C24 1_555 1_555
C24 H19 1_555 1_555
C25 C24 1_555 1_555
H20 C25 1_555 1_555
C26 C25 1_555 1_555
C27 C26 1_555 1_555
H21 C27 1_555 1_555
C28 C23 1_555 1_555
C29 N6 1_555 1_555
H22 C29 1_555 1_555
C39 O4 1_555 1_555
Cl3 C26 1_555 1_555
C27 C28 1_555 1_555
C28 C29 1_555 1_555
Fe1_2 C20 1_555 1_555
Mn1 O1 1_555 1_555
O1 C1 1_555 1_555
O2 Mn1 1_555 1_555
N1 Mn1 1_555 1_555
N2 Mn1 1_555 1_555
N3 Mn1 1_555 1_555
N4 C20 1_555 1_555
N5 C21 1_555 1_555
C1 C2 1_555 1_555
C2 H1 1_555 1_555
C3 C2 1_555 1_555
H2 C3 1_555 1_555
C4 C3 1_555 1_555
C5 C4 1_555 1_555
H3 C5 1_555 1_555
C6 C1 1_555 1_555
C7 N1 1_555 1_555
H4 C7 1_555 1_555
C8 N1 1_555 1_555
H5 C8 1_555 1_555
H6 C8 1_555 1_555
C9 C8 1_555 1_555
C10 N2 1_555 1_555
H7 C10 1_555 1_555
H8 C10 1_555 1_555
C11 N2 1_555 1_555
H9 C11 1_555 1_555
C12 C11 1_555 1_555
C13 C12 1_555 1_555
H10 C13 1_555 1_555
C17 O2 1_555 1_555
C18 C9 1_555 1_555
H13 C18 1_555 1_555
H14 C18 1_555 1_555
H15 C18 1_555 1_555
C19 C9 1_555 1_555
H16 C19 1_555 1_555
H17 C19 1_555 1_555
H18 C19 1_555 1_555
C21 Fe1_2 1_555 1_555
C22 Fe1_2 1_555 1_555
Cl1 C4 1_555 1_555
Mn3 N4 1_555 1_555
N10 Mn1 1_555 1_555
Cl4 C36 1_555 1_555
N3 C22 1_555 1_555
C5 C6 1_555 1_555
C6 C7 1_555 1_555
C9 C10 1_555 1_555
C12 C17 1_555 1_555
Mn3 O1_2 1_555 1_555
O1_2 C1_2 1_555 1_555
O2_2 Mn3 1_555 1_555
N1_2 Mn3 1_555 1_555
C1_2 C2_2 1_555 1_555
C2_2 H1_2 1_555 1_555
C3_2 C2_2 1_555 1_555
H2_2 C3_2 1_555 1_555
C4_2 C3_2 1_555 1_555
C5_2 C4_2 1_555 1_555
H3_2 C5_2 1_555 1_555
C6_2 C1_2 1_555 1_555
C7_2 N1_2 1_555 1_555
H4_2 C7_2 1_555 1_555
C17_2 O2_2 1_555 1_555
Cl1_2 C4_2 1_555 1_555
C5_2 C6_2 1_555 1_555
C6_2 C7_2 1_555 1_555
Fe1_3 C20_2 1_555 1_555
N4_2 C20_2 1_555 1_555
N5_2 C21_2 1_555 1_555
H5_2 C8_2 1_555 1_555
C9_2 C8_2 1_555 1_555
C10_2 N2_2 1_555 1_555
H7_2 C10_2 1_555 1_555
H8_2 C10_2 1_555 1_555
C11_2 N2_2 1_555 1_555
H9_2 C11_2 1_555 1_555
C12_2 C11_2 1_555 1_555
C13_2 C12_2 1_555 1_555
H10_2 C13_2 1_555 1_555
C18_2 C9_2 1_555 1_555
H13_2 C18_2 1_555 1_555
H14_2 C18_2 1_555 1_555
H15_2 C18_2 1_555 1_555
C19_2 C9_2 1_555 1_555
H16_2 C19_2 1_555 1_555
H17_2 C19_2 1_555 1_555
H18_2 C19_2 1_555 1_555
C21_2 Fe1_3 1_555 1_555
C22_2 Fe1_3 1_555 1_555
Mn3_2 N4_2 1_555 1_555
C37 C36_2 1_555 1_555
H29 C37 1_555 1_555
C38 C37 1_555 1_555
H30 C38 1_555 1_555
Cl4_2 C36_2 1_555 1_555
N3_2 C22_2 1_555 1_555
C9_2 C10_2 1_555 1_555
Cl2_2 C14_2 1_555 1_555
Mn2_2 O3_2 1_555 1_555
O3_2 C23_2 1_555 1_555
O4_2 Mn2_2 1_555 1_555
N6_2 Mn2_2 1_555 1_555
N7_2 Mn2_2 1_555 1_555
N8_2 Mn2_2 1_555 1_555
N11 C42_2 1_555 1_555
N11_2 Mn2_2 1_555 1_555
N12_2 C43_2 1_555 1_555
C23_2 C24_2 1_555 1_555
C24_2 H19_2 1_555 1_555
C25_2 C24_2 1_555 1_555
H20_2 C25_2 1_555 1_555
C26_2 C25_2 1_555 1_555
C27_2 C26_2 1_555 1_555
H21_2 C27_2 1_555 1_555
C28_2 C23_2 1_555 1_555
C29_2 N6_2 1_555 1_555
H22_2 C29_2 1_555 1_555
C30_2 N6_2 1_555 1_555
H23_2 C30_2 1_555 1_555
H24_2 C30_2 1_555 1_555
C31_2 C30_2 1_555 1_555
C32_2 N7_2 1_555 1_555
H25_2 C32_2 1_555 1_555
H26_2 C32_2 1_555 1_555
C33_2 N7_2 1_555 1_555
H27_2 C33_2 1_555 1_555
C34_2 C33_2 1_555 1_555
C35_2 C34_2 1_555 1_555
H28_2 C35_2 1_555 1_555
C39_2 O4_2 1_555 1_555
C40_2 C31_2 1_555 1_555
H31_2 C40_2 1_555 1_555
H32_2 C40_2 1_555 1_555
H33_2 C40_2 1_555 1_555
C41_2 C31_2 1_555 1_555
H34_2 C41_2 1_555 1_555
H35_2 C41_2 1_555 1_555
H36_2 C41_2 1_555 1_555
C42_2 Fe1_4 1_555 1_555
C43_2 Fe1_4 1_555 1_555
C44_2 Fe1_4 1_555 1_555
Cl3_2 C26_2 1_555 1_555
N8_2 C44_2 1_555 1_555
C27_2 C28_2 1_555 1_555
C28_2 C29_2 1_555 1_555
C31_2 C32_2 1_555 1_555
C34_2 C39_2 1_555 1_555
Fe1_5 C20_3 1_555 1_555
Mn3_2 O1_3 1_555 1_555
O1_3 C1_3 1_555 1_555
O2_3 Mn3_2 1_555 1_555
N1_3 Mn3_2 1_555 1_555
N2_3 Mn3_2 1_555 1_555
N3_3 Mn3_2 1_555 1_555
N10 C20_3 1_555 1_555
N5_3 C21_3 1_555 1_555
C1_3 C2_3 1_555 1_555
C2_3 H1_3 1_555 1_555
C3_3 C2_3 1_555 1_555
H2_3 C3_3 1_555 1_555
C4_3 C3_3 1_555 1_555
C5_3 C4_3 1_555 1_555
H3_3 C5_3 1_555 1_555
C6_3 C1_3 1_555 1_555
C7_3 N1_3 1_555 1_555
H4_3 C7_3 1_555 1_555
C8_3 N1_3 1_555 1_555
H5_3 C8_3 1_555 1_555
H6_3 C8_3 1_555 1_555
C9_3 C8_3 1_555 1_555
C10_3 N2_3 1_555 1_555
H7_3 C10_3 1_555 1_555
H8_3 C10_3 1_555 1_555
C11_3 N2_3 1_555 1_555
H9_3 C11_3 1_555 1_555
C12_3 C11_3 1_555 1_555
C13_3 C12_3 1_555 1_555
H10_3 C13_3 1_555 1_555
C14_3 C13_3 1_555 1_555
C15_2 C14_3 1_555 1_555
H11_2 C15_2 1_555 1_555
C16_2 C15_2 1_555 1_555
H12_2 C16_2 1_555 1_555
C17_3 O2_3 1_555 1_555
C18_3 C9_3 1_555 1_555
H13_3 C18_3 1_555 1_555
H14_3 C18_3 1_555 1_555
H15_3 C18_3 1_555 1_555
C19_3 C9_3 1_555 1_555
H16_3 C19_3 1_555 1_555
H17_3 C19_3 1_555 1_555
H18_3 C19_3 1_555 1_555
C21_3 Fe1_5 1_555 1_555
C22_3 Fe1_5 1_555 1_555
Cl1_3 C4_3 1_555 1_555
Cl2_3 C14_3 1_555 1_555
Mn4 O3_3 1_555 1_555
O3_3 C23_3 1_555 1_555
O4_3 Mn4 1_555 1_555
N6_3 Mn4 1_555 1_555
N7_3 Mn4 1_555 1_555
N8_3 Mn4 1_555 1_555
N11_2 C42_3 1_555 1_555
N12_3 C43_3 1_555 1_555
C23_3 C24_3 1_555 1_555
C24_3 H19_3 1_555 1_555
C25_3 C24_3 1_555 1_555
H20_3 C25_3 1_555 1_555
C26_3 C25_3 1_555 1_555
C27_3 C26_3 1_555 1_555
H21_3 C27_3 1_555 1_555
C28_3 C23_3 1_555 1_555
C29_3 N6_3 1_555 1_555
H22_3 C29_3 1_555 1_555
C30_3 N6_3 1_555 1_555
H23_3 C30_3 1_555 1_555
H24_3 C30_3 1_555 1_555
C31_3 C30_3 1_555 1_555
C32_3 N7_3 1_555 1_555
H25_3 C32_3 1_555 1_555
H26_3 C32_3 1_555 1_555
C33_3 N7_3 1_555 1_555
H27_3 C33_3 1_555 1_555
C34_3 C33_3 1_555 1_555
C35_3 C34_3 1_555 1_555
H28_3 C35_3 1_555 1_555
C36_3 C35_3 1_555 1_555
C37_2 C36_3 1_555 1_555
H29_2 C37_2 1_555 1_555
C38_2 C37_2 1_555 1_555
H30_2 C38_2 1_555 1_555
C39_3 O4_3 1_555 1_555
C40_3 C31_3 1_555 1_555
H31_3 C40_3 1_555 1_555
H32_3 C40_3 1_555 1_555
H33_3 C40_3 1_555 1_555
C41_3 C31_3 1_555 1_555
H34_3 C41_3 1_555 1_555
H35_3 C41_3 1_555 1_555
H36_3 C41_3 1_555 1_555
C42_3 Fe1_5 1_555 1_555
C43_3 Fe1_5 1_555 1_555
C44_3 Fe1_5 1_555 1_555
Cl3_3 C26_3 1_555 1_555
Cl4_3 C36_3 1_555 1_555
N3_3 C22_3 1_555 1_555
C5_3 C6_3 1_555 1_555
C6_3 C7_3 1_555 1_555
C9_3 C10_3 1_555 1_555
C12_3 C17_3 1_555 1_555
C16_2 C17_3 1_555 1_555
N8_3 C44_3 1_555 1_555
C27_3 C28_3 1_555 1_555
C28_3 C29_3 1_555 1_555
C31_3 C32_3 1_555 1_555
C34_3 C39_3 1_555 1_555
C38_2 C39_3 1_555 1_555
H29_3 C37_3 1_555 1_555
C38_3 C37_3 1_555 1_555
H30_3 C38_3 1_555 1_555
H11_3 C15_3 1_555 1_555
C16_3 C15_3 1_555 1_555
H12_3 C16_3 1_555 1_555
C47 N13 1_555 1_555
H42 C47 1_555 1_555
H43 C47 1_555 1_555
C49 N13 1_555 1_555
H47 C49 1_555 1_555
H48 C49 1_555 1_555
C50 C49 1_555 1_555
H50 C50 1_555 1_555
H51 C50 1_555 1_555
H54 C52 1_555 1_555
H56 C52 1_555 1_555
N13_2 C45 1_555 1_555
C45 H37 1_555 1_555
H38 C45 1_555 1_555
C46 C45 1_555 1_555
H40 C46 1_555 1_555
H41 C46 1_555 1_555
H44 C48 1_555 1_555
H46 C48 1_555 1_555
C51 N13_2 1_555 1_555
H52 C51 1_555 1_555
H53 C51 1_555 1_555
N13_3 C45_2 1_555 1_555
C45_2 H37_2 1_555 1_555
H38_2 C45_2 1_555 1_555
C46_2 C45_2 1_555 1_555
H40_2 C46_2 1_555 1_555
H41_2 C46_2 1_555 1_555
H44_2 C48_2 1_555 1_555
H46_2 C48_2 1_555 1_555
C51_2 N13_3 1_555 1_555
H52_2 C51_2 1_555 1_555
H53_2 C51_2 1_555 1_555
C47_2 N13_4 1_555 1_555
H42_2 C47_2 1_555 1_555
H43_2 C47_2 1_555 1_555
C49_2 N13_4 1_555 1_555
H47_2 C49_2 1_555 1_555
H48_2 C49_2 1_555 1_555
C50_2 C49_2 1_555 1_555
H50_2 C50_2 1_555 1_555
H51_2 C50_2 1_555 1_555
H54_2 C52_2 1_555 1_555
H56_2 C52_2 1_555 1_555
N13_5 C45_3 1_555 1_555
C45_3 H37_3 1_555 1_555
H38_3 C45_3 1_555 1_555
C46_3 C45_3 1_555 1_555
H39_3 C46_3 1_555 1_555
H40_3 C46_3 1_555 1_555
H41_3 C46_3 1_555 1_555
C47_3 N13_5 1_555 1_555
H42_3 C47_3 1_555 1_555
H43_3 C47_3 1_555 1_555
C48_3 C47_3 1_555 1_555
H44_3 C48_3 1_555 1_555
H45_3 C48_3 1_555 1_555
H46_3 C48_3 1_555 1_555
C49_3 N13_5 1_555 1_555
H47_3 C49_3 1_555 1_555
H48_3 C49_3 1_555 1_555
C50_3 C49_3 1_555 1_555
H49_3 C50_3 1_555 1_555
H50_3 C50_3 1_555 1_555
H51_3 C50_3 1_555 1_555
C51_3 N13_5 1_555 1_555
H52_3 C51_3 1_555 1_555
H53_3 C51_3 1_555 1_555
C52_3 C51_3 1_555 1_555
H54_3 C52_3 1_555 1_555
H55_3 C52_3 1_555 1_555
H56_3 C52_3 1_555 1_555

#END
