
###############################################################################
#
# This file contains modified crystal structure data generated from the
# MOF subset of the Cambridge Structural Database (CSD) v543 
# hosted by the Cambridge Crystallographic Data Centre (CCDC).
#
# This work is licensed under the Creative Commons
# Attribution-NonCommercial-ShareAlike 4.0 International License.
# To view a copy of this license, visit
# http://creativecommons.org/licenses/by-nc-sa/4.0/
# or send a letter to
# Creative Commons, PO Box 1866, Mountain View, CA 94042, USA.
#
# CIF created using the CSD Python API on 29 September 2022
# The structure has been converted into the P1 space group
# The structure has a 3D framework
# The original CSD entry CEKRUH is in the trigonal crystal system
# The original CSD entry CEKRUH is in a Sohncke space group
# The framework has been calculated to contain at least 10.0% void space
# The void calculation uses a probe of radius 1.32A, grid spacing 0.4
#
###############################################################################

data_CEKRUH
_chemical_formula_moiety         '(C468 H504 Br36 Fe9 Mn18 N99 O36)n'
_symmetry_cell_setting           triclinic
_symmetry_space_group_name_H-M   'P 1'
_symmetry_Int_Tables_number      1
_space_group_name_Hall           'P 1'
loop_
_symmetry_equiv_pos_site_id
_symmetry_equiv_pos_as_xyz
1 x,y,z
_cell_length_a                   28.5554(2)
_cell_length_b                   28.5554(2)
_cell_length_c                   19.2155(2)
_cell_angle_alpha                90
_cell_angle_beta                 90
_cell_angle_gamma                120
_cell_volume                     13569.3
loop_
_atom_site_label
_atom_site_type_symbol
_atom_site_fract_x
_atom_site_fract_y
_atom_site_fract_z
Br1 Br 0.099854(17) 0.026792(15) 0.238704(18)
Br8 Br 0.54574(2) 0.214140(16) 0.22649(2)
H2 H 0.1404 0.0077 0.1073
H61 H 0.2840 0.0003 0.0999
C86 C 0.37015(16) 0.03342(15) 0.15557(17)
H63 H 0.3625 0.0577 0.1310
C87 C 0.41902(16) 0.05700(15) 0.19705(18)
C88 C 0.45338(17) 0.11321(16) 0.19263(19)
H64 H 0.4459 0.1340 0.1606
C89 C 0.49815(17) 0.13793(15) 0.23531(18)
C90 C 0.50898(16) 0.10844(16) 0.28296(19)
H65 H 0.5398 0.1261 0.3123
C91 C 0.47519(16) 0.05350(15) 0.28814(19)
H66 H 0.4828 0.0336 0.3215
C92 C 0.42958(16) 0.02604(15) 0.24510(17)
Mn1 Mn 0.02029(2) 0.76417(2) 0.08077(3)
Mn4 Mn 0.35425(2) 0.92626(2) 0.18016(3)
Mn6 Mn 0.07104(2) 0.64635(2) 0.40932(3)
Fe3 Fe 0.15719(2) 0.84669(2) 0.29836(3)
Br2 Br 0.214662(16) 0.672391(18) 0.030752(19)
Br7 Br 0.432590(16) 0.740260(17) 0.02755(2)
Br11 Br 0.256860(16) 0.565790(17) 0.55617(2)
N2 N 0.00295(12) 0.68976(12) 0.11185(14)
N7 N 0.31235(12) 0.87658(12) 0.09953(14)
N8 N 0.33619(12) 0.98273(12) 0.14889(14)
N11 N 0.12034(13) 0.68679(12) 0.48986(14)
N12 N 0.01479(12) 0.66500(13) 0.43975(14)
N20 N 0.43078(12) 0.96725(12) 0.10238(14)
N22 N 0.02952(13) 0.56925(13) 0.48689(15)
N25 N 0.04375(13) 0.82121(14) 0.34708(17)
N26 N 0.11479(12) 0.72792(12) 0.34850(15)
N27 N 0.27372(12) 0.88495(13) 0.24217(14)
N28 N 0.18497(13) 0.96172(13) 0.25444(16)
N29 N 0.20886(12) 0.90228(12) 0.43995(15)
N30 N 0.09712(12) 0.79901(12) 0.15794(15)
O1 O 0.04408(10) 0.83616(9) 0.05466(12)
O2 O 0.06243(10) 0.76014(9) 0.00698(12)
O7 O 0.37761(10) 0.87814(10) 0.20723(12)
O8 O 0.39718(10) 0.97335(10) 0.25273(11)
O11 O 0.11796(10) 0.62181(11) 0.38085(12)
O12 O 0.02478(10) 0.60534(11) 0.33521(11)
C8 C 0.45554(14) 0.97316(14) 0.05243(17)
C10 C 0.02485(14) 0.54551(15) 0.53779(17)
C13 C 0.08694(15) 0.83187(15) 0.33026(18)
C14 C 0.13313(14) 0.77171(14) 0.32918(17)
C15 C 0.23013(14) 0.86786(15) 0.26367(17)
C16 C 0.17424(15) 0.91860(14) 0.26958(18)
C17 C 0.18917(14) 0.87903(14) 0.38965(18)
C18 C 0.12181(14) 0.81740(15) 0.20776(17)
C19 C 0.05920(14) 0.87654(14) 0.09941(18)
C20 C 0.09973(14) 0.92853(14) 0.07951(18)
H1 H 0.1184 0.9333 0.0368
C21 C 0.11280(14) 0.97271(15) 0.12103(18)
C22 C 0.08494(15) 0.96546(14) 0.18379(18)
C23 C 0.04699(15) 0.91554(14) 0.20612(18)
H3 H 0.0292 0.9114 0.2494
C24 C 0.03408(15) 0.86973(14) 0.16478(18)
C29 C 0.03770(14) 0.67388(15) 0.10465(18)
H9 H 0.0309 0.6422 0.1293
C30 C 0.08607(14) 0.69974(14) 0.06262(18)
C31 C 0.12145(15) 0.67893(14) 0.06630(18)
H10 H 0.1148 0.6509 0.0984
C32 C 0.16571(15) 0.69940(15) 0.02320(19)
C35 C 0.09536(15) 0.74041(14) 0.01401(17)
H16 H 0.0191 0.7273 0.2436
C76 C 0.39275(15) 0.85241(14) 0.16396(17)
C77 C 0.43207(15) 0.83910(15) 0.18509(19)
H55 H 0.4500 0.8521 0.2284
C78 C 0.44464(16) 0.80779(16) 0.1442(2)
H56 H 0.4718 0.7999 0.1587
C79 C 0.41796(16) 0.78747(16) 0.08135(19)
C80 C 0.38082(15) 0.80016(15) 0.05798(19)
H57 H 0.3633 0.7866 0.0146
C81 C 0.36843(15) 0.83364(15) 0.09849(18)
C82 C 0.32622(15) 0.84382(14) 0.07290(17)
H58 H 0.3070 0.8243 0.0327
C83 C 0.26406(15) 0.87575(15) 0.07025(18)
H59 H 0.2345 0.8597 0.1050
H60 H 0.2520 0.8522 0.0286
C84 C 0.27380(15) 0.93168(14) 0.05000(18)
C85 C 0.28435(15) 0.96712(14) 0.11396(18)
H62 H 0.2545 0.9475 0.1477
C93 C 0.22025(16) 0.92216(15) 0.0177(2)
H68 H 0.2235 0.9570 0.0057
H69 H 0.1908 0.9033 0.0513
H70 H 0.3533 0.9629 0.0182
C114 C 0.14475(15) 0.60757(15) 0.42361(17)
C115 C 0.15739(16) 0.56789(15) 0.40130(19)
H91 H 0.1432 0.5497 0.3584
C116 C 0.18954(16) 0.55523(15) 0.4402(2)
H92 H 0.1978 0.5287 0.4242
C117 C 0.21023(16) 0.58156(15) 0.50350(19)
C118 C 0.19738(15) 0.61870(15) 0.52850(18)
H93 H 0.2113 0.6358 0.5721
C119 C 0.16343(15) 0.63155(15) 0.48934(18)
C120 C 0.15367(15) 0.67311(15) 0.51611(17)
H94 H 0.1733 0.6921 0.5564
C121 C 0.12160(15) 0.73482(15) 0.52041(18)
H95 H 0.1390 0.7651 0.4869
H96 H 0.1443 0.7455 0.5629
C122 C 0.06564(15) 0.72635(16) 0.53956(18)
C123 C 0.03075(15) 0.71680(16) 0.47488(18)
H98 H 0.0510 0.7467 0.4416
C131 C 0.07555(16) 0.77934(17) 0.57256(19)
H103 H 0.0409 0.7757 0.5869
H104 H 0.0931 0.8087 0.5387
H105 H 0.0989 0.7874 0.6134
C132 C 0.03673(16) 0.67912(17) 0.59065(18)
H106 H 0.0015 0.6748 0.6032
H107 H 0.0588 0.6865 0.6327
H108 H 0.0314 0.6458 0.5688
Mn7 Mn 0.24484(2) 0.97905(3) 0.51823(3)
Fe5 Fe 0.02285(3) 0.51258(2) 0.62846(2)
Br10 Br 0.006300(15) 0.885530(16) 0.704990(19)
C33 C 0.17524(15) 0.73863(15) 0.97418(18)
H11 H 0.2056 0.7516 0.9440
C34 C 0.14037(15) 0.75874(15) 0.96948(18)
H12 H 0.1468 0.7855 0.9355
H67 H 0.2124 0.9001 0.9756
C94 C 0.32027(16) 0.95965(15) 0.99800(18)
H71 H 0.3261 0.9957 0.9873
H72 H 0.3112 0.9382 0.9552
C104 C 0.02067(15) 0.63732(15) 0.81218(19)
H79 H 0.0545 0.6702 0.8264
H80 H 0.0304 0.6173 0.7786
C105 C 0.00326(16) 0.70473(15) 0.76957(19)
H81 H 0.0364 0.7287 0.7920
C107 C 0.00005(15) 0.78497(15) 0.73528(18)
H82 H 0.0293 0.8056 0.7660
C112 C 0.03798(16) 0.59165(15) 0.9095(2)
H85 H 0.0699 0.6264 0.9212
H86 H 0.0482 0.5722 0.8764
H87 H 0.0235 0.5700 0.9519
H89 H 0.0075 0.6658 0.9396
Fe4 Fe 0.48973(2) 0.97715(3) 0.96180(2)
Mn3 Mn 0.68669(2) 0.59049(2) 0.18345(3)
Fe2 Fe 0.48742(2) 0.51027(2) 0.29513(2)
Br5 Br 0.767437(17) 0.407662(17) 0.02765(2)
Br6 Br 0.883076(16) 0.875473(16) 0.23211(2)
Br12 Br 0.78634(2) 0.45012(2) 0.36597(2)
N1 N 0.97852(12) 0.77141(12) 0.16167(15)
N5 N 0.64530(12) 0.54149(12) 0.10259(15)
N6 N 0.66928(12) 0.64747(12) 0.15276(15)
N13 N 0.93949(12) 0.72441(12) 0.01933(15)
N16 N 0.85193(13) 0.55808(13) 0.01185(16)
N17 N 0.76350(12) 0.63219(13) 0.10635(15)
N19 N 0.60545(12) 0.54874(12) 0.24450(15)
N21 N 0.37286(14) 0.48461(13) 0.33982(16)
N24 N 0.51546(13) 0.62426(13) 0.24669(15)
O5 O 0.71081(10) 0.54286(10) 0.21032(12)
O6 O 0.72791(10) 0.63627(10) 0.25780(12)
C5 C 0.78840(15) 0.63885(15) 0.05628(18)
C7 C 0.56161(15) 0.53199(14) 0.26396(17)
C9 C 0.41579(15) 0.49490(15) 0.32449(17)
C12 C 0.50417(14) 0.58191(15) 0.26382(18)
C25 C 0.99211(15) 0.81784(15) 0.18885(18)
H4 H 0.9724 0.8177 0.2288
C26 C 0.93051(15) 0.72381(14) 0.19109(19)
H5 H 0.9008 0.7103 0.1566
H6 H 0.9186 0.7352 0.2329
C27 C 0.94019(15) 0.67723(14) 0.21121(18)
C28 C 0.95120(14) 0.65282(15) 0.14614(18)
H7 H 0.9512 0.6194 0.1596
H8 H 0.9214 0.6427 0.1124
C36 C 0.88699(15) 0.63318(15) 0.2428(2)
H13 H 0.8895 0.6007 0.2515
H14 H 0.8573 0.6245 0.2103
H15 H 0.8802 0.6462 0.2867
C37 C 0.98676(15) 0.69625(15) 0.26296(18)
H17 H 0.9942 0.6668 0.2719
H18 H 0.9769 0.7068 0.3066
C57 C 0.72610(14) 0.51733(14) 0.16610(18)
C58 C 0.76685(15) 0.50551(15) 0.1861(2)
H37 H 0.7854 0.5191 0.2289
C59 C 0.77987(15) 0.47485(15) 0.1445(2)
H38 H 0.8077 0.4677 0.1580
C60 C 0.75221(16) 0.45420(15) 0.0825(2)
C61 C 0.71392(16) 0.46581(15) 0.05934(19)
H39 H 0.6962 0.4518 0.0162
C62 C 0.70108(15) 0.49881(15) 0.10028(18)
C63 C 0.65889(15) 0.50843(15) 0.07531(19)
H40 H 0.6394 0.4888 0.0353
C64 C 0.59734(14) 0.54116(15) 0.07298(18)
H41 H 0.5675 0.5248 0.1073
H42 H 0.5856 0.5180 0.0309
C65 C 0.60723(15) 0.59713(15) 0.05349(19)
C66 C 0.61730(15) 0.63265(15) 0.11785(19)
H43 H 0.6174 0.6661 0.1038
H44 H 0.5873 0.6131 0.1513
C67 C 0.70328(15) 0.69799(15) 0.16157(19)
H45 H 0.6955 0.7229 0.1390
C68 C 0.75220(15) 0.72050(15) 0.20257(19)
C69 C 0.78826(15) 0.77649(15) 0.19778(18)
H46 H 0.7819 0.7978 0.1653
C70 C 0.83275(15) 0.80006(15) 0.24036(19)
C71 C 0.84262(15) 0.76978(15) 0.28911(19)
H47 H 0.8736 0.7867 0.3182
C72 C 0.80707(15) 0.71524(15) 0.29466(18)
H48 H 0.8134 0.6948 0.3285
C73 C 0.76157(15) 0.68921(14) 0.25117(18)
C74 C 0.55335(15) 0.58785(16) 0.0216(2)
H50 H 0.5564 0.6228 0.0108
H51 H 0.5239 0.5683 0.0550
C75 C 0.65364(15) 0.62550(16) 0.00130(19)
H52 H 0.6865 0.6279 0.0207
H97 H 0.9977 0.7176 0.4886
C124 C 0.96387(16) 0.63198(16) 0.43075(17)
H99 H 0.9393 0.6409 0.4521
C125 C 0.94100(15) 0.58235(16) 0.39083(17)
C126 C 0.88491(17) 0.54649(16) 0.39627(19)
H100 H 0.8636 0.5540 0.4274
C127 C 0.86140(17) 0.50039(17) 0.35586(19)
C128 C 0.89128(17) 0.48963(17) 0.30843(19)
H101 H 0.8741 0.4578 0.2807
C129 C 0.94567(16) 0.52490(17) 0.30154(19)
H102 H 0.9658 0.5178 0.2681
C130 C 0.97217(16) 0.57160(16) 0.34351(18)
C133 C 0.51762(20) 0.54446(14) 0.38576(17)
C134 C 0.45449(15) 0.47934(21) 0.20446(17)
C135 C 0.46373(15) 0.43650(21) 0.32901(17)
Mn2 Mn 0.73421(2) 0.75516(2) 0.85156(3)
Mn5 Mn 0.91019(2) 0.59804(2) 0.74600(3)
Fe1 Fe 0.82273(2) 0.64379(2) 0.96550(3)
Br4 Br 0.447756(16) 0.661951(18) 0.891176(19)
Br9 Br 0.643100(17) 0.409160(17) 0.88945(2)
N3 N 0.78410(11) 0.76467(12) 0.77133(14)
N4 N 0.67853(12) 0.67983(12) 0.82094(14)
N9 N 0.90096(12) 0.54791(12) 0.82607(15)
N10 N 0.98507(13) 0.65369(12) 0.77723(15)
N14 N 0.77838(12) 0.71787(12) 0.91296(15)
N15 N 0.70927(14) 0.55477(13) 0.91854(17)
N18 N 0.87419(12) 0.63874(12) 0.82450(15)
N23 N 0.94766(12) 0.55478(13) 0.68399(15)
O3 O 0.78100(9) 0.82583(10) 0.88133(12)
O4 O 0.68699(10) 0.74974(10) 0.92437(12)
O9 O 0.83924(10) 0.55074(10) 0.71709(12)
O10 O 0.91489(10) 0.64564(10) 0.67413(12)
C1 C 0.89613(15) 0.69719(15) 0.99843(17)
C2 C 0.79775(14) 0.69350(14) 0.93306(17)
C3 C 0.75201(15) 0.58743(15) 0.93527(18)
C4 C 0.84067(14) 0.58978(15) 0.99578(18)
C6 C 0.85461(15) 0.64274(14) 0.87477(18)
C11 C 0.97277(14) 0.53627(15) 0.66234(17)
C38 C 0.80839(14) 0.86773(14) 0.83869(18)
C39 C 0.82247(14) 0.91985(15) 0.86422(18)
H19 H 0.8091 0.9233 0.9080
C40 C 0.85554(14) 0.96543(15) 0.82570(18)
C41 C 0.87552(15) 0.96014(15) 0.76203(18)
C42 C 0.86178(14) 0.91042(15) 0.73632(19)
H21 H 0.8755 0.9076 0.6925
C43 C 0.82748(14) 0.86321(14) 0.77390(18)
C44 C 0.81726(14) 0.81161(15) 0.74601(18)
H22 H 0.8368 0.8126 0.7055
C45 C 0.78581(15) 0.71819(15) 0.74100(18)
H23 H 0.8031 0.7054 0.7748
H24 H 0.8088 0.7304 0.6988
C46 C 0.73035(15) 0.67074(14) 0.72135(18)
C47 C 0.69534(15) 0.64487(14) 0.78560(18)
H25 H 0.6626 0.6109 0.7716
H26 H 0.7158 0.6354 0.8189
C48 C 0.62773(15) 0.66128(14) 0.82956(17)
H27 H 0.6037 0.6274 0.8087
C49 C 0.60395(14) 0.68745(14) 0.86833(17)
C50 C 0.54756(14) 0.66668(15) 0.86296(18)
H28 H 0.5266 0.6376 0.8321
C51 C 0.52321(15) 0.68851(15) 0.90242(18)
C52 C 0.55253(15) 0.73018(16) 0.94864(18)
H29 H 0.5349 0.7448 0.9755
C53 C 0.60748(15) 0.75056(15) 0.95563(18)
H30 H 0.6274 0.7788 0.9880
C54 C 0.63407(15) 0.73008(15) 0.91545(18)
C55 C 0.74055(16) 0.62764(15) 0.6877(2)
H31 H 0.7623 0.6425 0.6455
H32 H 0.7059 0.5958 0.6756
H33 H 0.7599 0.6172 0.7206
C56 C 0.70103(15) 0.68903(15) 0.67047(19)
H34 H 0.6952 0.7166 0.6928
H35 H 0.6661 0.6579 0.6576
H36 H 0.7231 0.7043 0.6286
H49 H 0.5456 0.5666 0.9788
H53 H 0.6600 0.6620 0.9919
H54 H 0.6441 0.6048 0.9579
C95 C 0.79755(15) 0.52342(15) 0.75897(18)
C96 C 0.74541(15) 0.50957(15) 0.7350(2)
H73 H 0.7415 0.5234 0.6918
C97 C 0.70027(15) 0.47623(15) 0.7736(2)
H74 H 0.6653 0.4665 0.7566
C98 C 0.70597(15) 0.45685(16) 0.83767(19)
C99 C 0.75584(15) 0.47061(16) 0.8632(2)
H75 H 0.7590 0.4571 0.9071
C100 C 0.80260(15) 0.50482(15) 0.82468(19)
C101 C 0.85408(15) 0.51511(15) 0.85207(18)
H76 H 0.8533 0.4960 0.8929
C102 C 0.94743(15) 0.54603(15) 0.85641(19)
H77 H 0.9605 0.5291 0.8224
H78 H 0.9351 0.5228 0.8983
C103 C 0.99467(15) 0.60164(15) 0.87656(18)
C106 C 0.97790(15) 0.72875(15) 0.73002(18)
C108 C 0.97875(14) 0.80973(15) 0.69520(18)
C109 C 0.93717(15) 0.78068(15) 0.64769(18)
H83 H 0.9236 0.7987 0.6197
C110 C 0.91616(15) 0.72596(15) 0.64173(18)
H84 H 0.8879 0.7062 0.6092
C111 C 0.93553(15) 0.69837(15) 0.68269(18)
C113 C 0.97654(17) 0.63059(16) 0.9274(2)
H88 H 0.9484 0.6358 0.9055
H90 H 0.9620 0.6087 0.9695
N31 N 0.69342(17) 0.79114(12) 0.77328(15)
Mn6_2 Mn 0.35365(2) 0.42469(3) 0.07599(3)
Br11_2 Br 0.434210(17) 0.691070(23) 0.22284(2)
Br12_2 Br 0.54988(2) 0.33622(3) 0.03264(2)
N11_2 N 0.31321(12) 0.43355(18) 0.15653(14)
N12_2 N 0.33500(13) 0.34979(18) 0.10642(14)
N22_2 N 0.43075(13) 0.46027(18) 0.15356(15)
N25_2 N 0.17879(14) 0.22254(19) 0.01375(17)
N26_2 N 0.27208(12) 0.38687(17) 0.01517(15)
N29_2 N 0.09772(12) 0.30658(17) 0.10662(15)
O11_2 O 0.37819(11) 0.49615(15) 0.04752(12)
O12_2 O 0.39466(11) 0.41944(15) 0.00188(11)
C17_2 C 0.12097(14) 0.31014(20) 0.05632(18)
C114_2 C 0.39243(15) 0.53718(21) 0.09028(17)
C115_2 C 0.43211(15) 0.58950(22) 0.06797(19)
H91_2 H 0.4503 0.5935 0.0251
C116_2 C 0.44477(15) 0.63431(22) 0.1069(2)
H92_2 H 0.4713 0.6691 0.0909
C117_2 C 0.41844(15) 0.62867(22) 0.17017(19)
C118_2 C 0.38130(15) 0.57868(21) 0.19517(18)
H93_2 H 0.3642 0.5755 0.2388
C119_2 C 0.36845(15) 0.53188(21) 0.15601(18)
C120_2 C 0.32689(15) 0.48056(21) 0.18278(17)
H94_2 H 0.3079 0.4812 0.2231
C121_2 C 0.26518(15) 0.38678(21) 0.18708(18)
H95_2 H 0.2349 0.3739 0.1536
H96_2 H 0.2545 0.3988 0.2296
C122_2 C 0.27365(16) 0.33929(22) 0.20623(18)
C123_2 C 0.28320(16) 0.31395(22) 0.14155(18)
H97_2 H 0.2824 0.2801 0.1553
H98_2 H 0.2533 0.3043 0.1083
C124_2 C 0.36802(16) 0.33189(23) 0.09742(17)
H99_2 H 0.3591 0.2984 0.1188
C125_2 C 0.41765(16) 0.35865(22) 0.05750(17)
C126_2 C 0.45351(16) 0.33842(23) 0.06294(19)
H100_2 H 0.4460 0.3096 0.0941
C127_2 C 0.49961(17) 0.36101(24) 0.02253(19)
C130_2 C 0.42840(16) 0.40057(23) 0.01018(18)
C131_2 C 0.22066(17) 0.29621(23) 0.23923(19)
H103_2 H 0.2243 0.2652 0.2536
H104_2 H 0.1913 0.2844 0.2054
H105_2 H 0.2126 0.3115 0.2801
C132_2 C 0.32088(17) 0.35761(23) 0.25732(18)
H106_2 H 0.3252 0.3267 0.2699
H107_2 H 0.3135 0.3723 0.2994
H108_2 H 0.3542 0.3856 0.2355
Mn7_2 Mn 0.02095(3) 0.26579(4) 0.18489(3)
Mn1_2 Mn 0.23583(2) 0.25612(3) 0.74744(3)
Mn3_2 Mn 0.40951(2) 0.09620(3) 0.85012(3)
Mn4_2 Mn 0.07374(2) 0.42799(3) 0.84683(3)
Mn5_2 Mn 0.40196(2) 0.31215(3) 0.41267(3)
Fe1_2 Fe 0.35621(2) 0.17894(3) 0.63217(3)
Fe3_2 Fe 0.15331(2) 0.31050(3) 0.96503(3)
Br2_2 Br 0.327609(18) 0.542271(24) 0.697419(19)
Br5_2 Br 0.592338(17) 0.359775(24) 0.69432(2)
Br6_2 Br 0.124527(16) 0.007603(23) 0.89878(2)
Br7_2 Br 0.259740(17) 0.692330(23) 0.69422(2)
Br9_2 Br 0.590840(17) 0.233940(24) 0.55612(2)
Br10_2 Br 0.114470(16) 0.120770(22) 0.371657(19)
N1_2 N 0.22859(12) 0.20711(17) 0.82834(15)
N2_2 N 0.31024(12) 0.31319(17) 0.77852(14)
N3_2 N 0.23533(12) 0.01943(16) 0.43800(14)
N5_2 N 0.45851(12) 0.10381(17) 0.76926(15)
N6_2 N 0.35253(12) 0.02181(17) 0.81943(15)
N7_2 N 0.12342(12) 0.43577(17) 0.76620(14)
N8_2 N 0.01727(12) 0.35346(17) 0.81556(14)
N9_2 N 0.45209(12) 0.35305(17) 0.49274(15)
N10_2 N 0.34631(12) 0.33138(18) 0.44390(15)
N13_2 N 0.27559(12) 0.21508(17) 0.68600(15)
N14_2 N 0.28213(12) 0.06051(17) 0.57963(15)
N15_2 N 0.44523(13) 0.15450(19) 0.58521(17)
N16_2 N 0.44192(13) 0.29385(18) 0.67852(16)
N17_2 N 0.36781(13) 0.13131(18) 0.77302(15)
N18_2 N 0.36126(12) 0.23545(17) 0.49117(15)
N19_2 N 0.45126(12) 0.05671(17) 0.91117(15)
N20_2 N 0.03275(12) 0.46353(17) 0.76905(14)
N23_2 N 0.44522(13) 0.39288(18) 0.35066(15)
N27_2 N 0.11505(13) 0.38877(18) 0.90884(14)
N28_2 N 0.03828(13) 0.22325(18) 0.92111(16)
N30_2 N 0.20099(12) 0.29811(17) 0.82461(15)
O1_2 O 0.16384(9) 0.20792(13) 0.72133(12)
O2_2 O 0.23986(9) 0.30229(13) 0.67365(12)
O5_2 O 0.45714(10) 0.16795(14) 0.87699(12)
O6_2 O 0.36373(10) 0.09164(14) 0.92447(12)
O7_2 O 0.12186(10) 0.49947(14) 0.87390(12)
O8_2 O 0.02665(10) 0.42383(14) 0.91940(11)
O9_2 O 0.44926(10) 0.28850(14) 0.38376(12)
O10_2 O 0.35436(10) 0.26925(14) 0.34080(12)
C1_2 C 0.30281(15) 0.19894(21) 0.66510(17)
C2_2 C 0.30650(14) 0.10425(20) 0.59973(17)
C3_2 C 0.41257(15) 0.16458(21) 0.60194(18)
C4_2 C 0.41022(15) 0.25089(21) 0.66245(18)
C5_2 C 0.36115(15) 0.14955(21) 0.72295(18)
C6_2 C 0.35726(14) 0.21187(21) 0.54144(18)
C7_2 C 0.46801(14) 0.02962(21) 0.93063(17)
C8_2 C 0.02684(14) 0.48238(20) 0.71910(17)
C13_2 C 0.16813(15) 0.25507(21) 0.99693(18)
C14_2 C 0.22829(14) 0.36142(20) 0.99585(17)
C15_2 C 0.13214(15) 0.36227(21) 0.93034(17)
C16_2 C 0.08140(14) 0.25564(21) 0.93625(18)
C18_2 C 0.18260(15) 0.30441(21) 0.87443(17)
C19_2 C 0.12346(14) 0.18266(20) 0.76608(18)
C20_2 C 0.07147(14) 0.17120(20) 0.74618(18)
H1_2 H 0.0667 0.1851 0.7035
C21_2 C 0.02729(15) 0.14009(21) 0.78770(18)
C22_2 C 0.03454(14) 0.11948(21) 0.85046(18)
C23_2 C 0.08446(14) 0.13145(21) 0.87279(18)
H3_2 H 0.0886 0.1178 0.9161
C24_2 C 0.13027(14) 0.16435(21) 0.83145(18)
C25_2 C 0.18216(15) 0.17427(21) 0.85552(18)
H4_2 H 0.1823 0.1547 0.8955
C26_2 C 0.27619(14) 0.20670(21) 0.85776(19)
H5_2 H 0.2897 0.1905 0.8233
H6_2 H 0.2648 0.1834 0.8996
C27_2 C 0.32277(14) 0.26296(21) 0.87788(18)
C28_2 C 0.34718(15) 0.29838(21) 0.81281(18)
H7_2 H 0.3806 0.3318 0.8263
H8_2 H 0.3573 0.2787 0.7791
C29_2 C 0.32612(15) 0.36382(21) 0.77132(18)
H9_2 H 0.3578 0.3887 0.7960
C30_2 C 0.30026(14) 0.38633(20) 0.72929(18)
C31_2 C 0.32107(14) 0.44252(21) 0.73297(18)
H10_2 H 0.3491 0.4639 0.7651
C32_2 C 0.30060(15) 0.46631(21) 0.68987(19)
C33_2 C 0.26137(15) 0.43661(21) 0.64085(18)
H11_2 H 0.2484 0.4540 0.6107
C34_2 C 0.24126(15) 0.38163(21) 0.63615(18)
H12_2 H 0.2145 0.3613 0.6022
C35_2 C 0.25959(14) 0.35495(21) 0.68068(17)
C36_2 C 0.36682(15) 0.25381(21) 0.9095(2)
H13_2 H 0.3993 0.2888 0.9182
H14_2 H 0.3755 0.2328 0.8770
H15_2 H 0.3538 0.2340 0.9534
C37_2 C 0.30375(15) 0.29051(21) 0.92963(18)
H16_2 H 0.2727 0.2918 0.9103
H17_2 H 0.3332 0.3274 0.9386
H18_2 H 0.2932 0.2701 0.9733
C44_2 C 0.18839(15) 0.00565(21) 0.41268(18)
H22_2 H 0.1874 0.0242 0.3722
C45_2 C 0.28181(15) 0.06762(21) 0.40767(18)
H23_2 H 0.2946 0.0977 0.4415
H24_2 H 0.2696 0.0784 0.3655
C46_2 C 0.32926(14) 0.05961(21) 0.38802(18)
C47_2 C 0.35513(14) 0.05047(21) 0.45227(18)
H25_2 H 0.3891 0.0517 0.4383
H26_2 H 0.3646 0.0804 0.4856
C55_2 C 0.37236(15) 0.11291(22) 0.3544(2)
H31_2 H 0.3575 0.1198 0.3122
H32_2 H 0.4042 0.1101 0.3423
H33_2 H 0.3828 0.1427 0.3873
C56_2 C 0.31097(15) 0.01200(21) 0.33714(19)
H35_2 H 0.3421 0.0082 0.3243
H36_2 H 0.2957 0.0188 0.2953
C57_2 C 0.48267(14) 0.20877(20) 0.83277(18)
C58_2 C 0.49449(15) 0.26134(21) 0.8528(2)
H37_2 H 0.4809 0.2663 0.8956
C59_2 C 0.52515(15) 0.30502(21) 0.8112(2)
H38_2 H 0.5323 0.3400 0.8247
C60_2 C 0.54580(15) 0.29801(22) 0.7492(2)
C61_2 C 0.53419(15) 0.24811(22) 0.72601(19)
H39_2 H 0.5482 0.2444 0.6829
C62_2 C 0.50119(15) 0.20227(21) 0.76695(18)
C63_2 C 0.49157(15) 0.15046(21) 0.74198(19)
H40_2 H 0.5112 0.1506 0.7020
C64_2 C 0.45884(15) 0.05618(21) 0.73965(18)
H41_2 H 0.4752 0.0427 0.7740
H42_2 H 0.4820 0.0676 0.6976
C65_2 C 0.40287(15) 0.01010(21) 0.72016(19)
C67_2 C 0.30201(15) 0.00529(21) 0.82824(19)
C68_2 C 0.27950(15) 0.03170(21) 0.86924(19)
C69_2 C 0.22351(15) 0.01177(21) 0.86445(18)
C70_2 C 0.19994(15) 0.03269(21) 0.90703(19)
C71_2 C 0.23022(15) 0.07284(21) 0.95578(19)
H47_2 H 0.2133 0.0869 0.9849
C72_2 C 0.28476(15) 0.09183(21) 0.96133(18)
H48_2 H 0.3052 0.1186 0.9952
C73_2 C 0.31079(14) 0.07236(21) 0.91784(18)
C75_2 C 0.37450(16) 0.02814(22) 0.66797(19)
H52_2 H 0.3721 0.0586 0.6874
H54_2 H 0.3952 0.0393 0.6246
C76_2 C 0.14759(14) 0.54034(21) 0.83063(17)
C77_2 C 0.16090(15) 0.59297(21) 0.85176(19)
H55_2 H 0.1479 0.5979 0.8951
C78_2 C 0.19221(16) 0.63685(23) 0.8109(2)
H56_2 H 0.2001 0.6719 0.8254
C79_2 C 0.21253(16) 0.63049(23) 0.74802(19)
C80_2 C 0.19984(15) 0.58066(21) 0.72465(19)
H57_2 H 0.2134 0.5767 0.6813
C81_2 C 0.16636(15) 0.53479(21) 0.76516(18)
C82_2 C 0.15618(14) 0.48240(21) 0.73957(17)
H58_2 H 0.1757 0.4827 0.6994
C83_2 C 0.12425(15) 0.38831(21) 0.73692(18)
H59_2 H 0.1403 0.3748 0.7717
H60_2 H 0.1478 0.3998 0.6953
C84_2 C 0.06832(14) 0.34212(21) 0.71667(18)
C85_2 C 0.03288(14) 0.31723(21) 0.78063(18)
H62_2 H 0.0525 0.3070 0.8144
C93_2 C 0.07784(15) 0.29809(22) 0.6844(2)
H67_2 H 0.0999 0.3123 0.6423
H68_2 H 0.0430 0.2665 0.6724
H69_2 H 0.0967 0.2875 0.7180
C94_2 C 0.04035(15) 0.36062(22) 0.66467(18)
H70_2 H 0.0371 0.3904 0.6849
H71_2 H 0.0043 0.3304 0.6540
H72_2 H 0.0618 0.3730 0.6219
C95_2 C 0.47658(15) 0.27413(21) 0.42564(18)
C96_2 C 0.49043(15) 0.23584(21) 0.4017(2)
H73_2 H 0.4766 0.2181 0.3585
C97_2 C 0.52377(15) 0.22404(21) 0.4403(2)
H74_2 H 0.5335 0.1988 0.4233
C98_2 C 0.54315(16) 0.24912(22) 0.50434(19)
C99_2 C 0.52939(16) 0.28523(22) 0.5299(2)
H75_2 H 0.5429 0.3019 0.5738
C100_2 C 0.49518(15) 0.29778(21) 0.49135(19)
C101_2 C 0.48489(15) 0.33897(21) 0.51874(18)
H76_2 H 0.5040 0.3573 0.5596
C102_2 C 0.45397(15) 0.40140(21) 0.52308(19)
H77_2 H 0.4709 0.4314 0.4891
H78_2 H 0.4772 0.4123 0.5650
C103_2 C 0.39836(15) 0.39303(21) 0.54323(18)
C104_2 C 0.36268(15) 0.38335(21) 0.47885(19)
H79_2 H 0.3298 0.3843 0.4931
H80_2 H 0.3827 0.4131 0.4453
C105_2 C 0.29527(15) 0.29853(22) 0.43624(19)
H81_2 H 0.2713 0.3077 0.4587
C106_2 C 0.27125(15) 0.24915(21) 0.39669(18)
C107_2 C 0.21503(15) 0.21508(21) 0.40195(18)
H82_2 H 0.1944 0.2237 0.4327
C108_2 C 0.19027(15) 0.16902(21) 0.36187(18)
C109_2 C 0.21932(15) 0.15649(21) 0.31436(18)
H83_2 H 0.2013 0.1249 0.2864
C110_2 C 0.27404(15) 0.19020(21) 0.30840(18)
H84_2 H 0.2938 0.1817 0.2759
C111_2 C 0.30163(15) 0.23716(21) 0.34936(18)
C112_2 C 0.40835(15) 0.44633(22) 0.5762(2)
H85_2 H 0.3736 0.4435 0.5879
H86_2 H 0.4278 0.4760 0.5431
H87_2 H 0.4300 0.4535 0.6186
C113_2 C 0.36941(16) 0.34595(23) 0.5941(2)
H88_2 H 0.3642 0.3126 0.5722
H89_2 H 0.3342 0.3417 0.6063
H90_2 H 0.3913 0.3533 0.6362
C128_2 C 0.51037(17) 0.40165(24) 0.97510(19)
H101_2 H 0.5422 0.4163 0.9474
C129_2 C 0.47510(17) 0.42077(23) 0.96821(19)
H102_2 H 0.4822 0.4480 0.9348
C135_2 C 0.56350(21) 0.02723(26) 0.99567(17)
N21_2 N 0.51539(13) 0.88825(19) 0.00649(16)
Br4_2 Br 0.338049(18) 0.785805(24) 0.557843(19)
N4_2 N 0.32017(12) 0.99870(17) 0.48761(14)
N24_2 N 0.37574(13) 0.89120(18) 0.91336(15)
O3_2 O 0.17417(10) 0.95517(13) 0.54800(12)
O4_2 O 0.25026(10) 0.93725(14) 0.59104(12)
C9_2 C 0.50510(15) 0.92089(21) 0.99116(17)
C12_2 C 0.41809(15) 0.92226(21) 0.93049(18)
C38_2 C 0.13227(14) 0.94066(20) 0.50536(18)
C39_2 C 0.08015(15) 0.90262(21) 0.53089(18)
H19_2 H 0.0767 0.8858 0.5747
C40_2 C 0.03457(15) 0.89011(21) 0.49237(18)
C41_2 C 0.03986(15) 0.91538(21) 0.42870(18)
C42_2 C 0.08958(15) 0.95136(21) 0.40299(19)
H21_2 H 0.0924 0.9679 0.3592
C43_2 C 0.13679(14) 0.96427(20) 0.44057(18)
C48_2 C 0.33872(14) 0.96645(21) 0.49623(17)
H27_2 H 0.3726 0.9763 0.4754
C49_2 C 0.31255(14) 0.91650(20) 0.53500(17)
C50_2 C 0.33332(15) 0.88088(21) 0.52963(18)
H28_2 H 0.3624 0.8890 0.4988
C51_2 C 0.31149(15) 0.83470(21) 0.56909(18)
C52_2 C 0.26982(16) 0.82235(22) 0.61531(18)
H29_2 H 0.2552 0.7901 0.6422
C53_2 C 0.24944(15) 0.85692(21) 0.62230(18)
H30_2 H 0.2212 0.8486 0.6547
C54_2 C 0.26992(15) 0.90399(21) 0.58212(18)
H34_2 H 0.2834 0.9786 0.3595
C66_2 C 0.36735(15) 0.98465(21) 0.78452(19)
H43_2 H 0.3339 0.9513 0.7705
H44_2 H 0.3869 0.9742 0.8180
H45_2 H 0.2771 0.9726 0.8057
H46_2 H 0.2022 0.9841 0.8320
C74_2 C 0.41215(16) 0.96550(22) 0.6883(2)
H49_2 H 0.4334 0.9790 0.6455
H50_2 H 0.3772 0.9336 0.6775
H51_2 H 0.4317 0.9556 0.7217
H53_2 H 0.3380 0.9980 0.6586
C134_2 C 0.52066(21) 0.97515(26) 0.87112(17)
Br3 Br 0.100130(22) 0.076929(16) 0.043634(18)
Br4_3 Br 0.214195(24) 0.552244(16) 0.224509(19)
N4_3 N 0.00130(17) 0.32147(12) 0.15427(14)
N21_3 N 0.11175(19) 0.62714(14) 0.67315(16)
N24_3 N 0.10880(18) 0.48454(13) 0.58002(15)
O3_3 O 0.04483(13) 0.21900(9) 0.21466(12)
O4_3 O 0.06275(14) 0.31301(10) 0.25770(12)
C9_3 C 0.07911(21) 0.58421(15) 0.65782(17)
C12_3 C 0.07774(21) 0.49583(14) 0.59715(18)
C38_3 C 0.05934(20) 0.19161(14) 0.17202(18)
C39_3 C 0.09738(21) 0.17753(14) 0.19755(18)
H19_3 H 0.1142 0.1909 0.2413
C40_3 C 0.10989(21) 0.14446(14) 0.15903(18)
H20 H 0.1356 0.1354 0.1759
C41_3 C 0.08462(21) 0.12448(15) 0.09536(18)
C42_3 C 0.04864(21) 0.13822(14) 0.06965(19)
H21_3 H 0.0321 0.1245 0.0258
C43_3 C 0.03573(20) 0.17252(14) 0.10723(18)
C48_3 C 0.03355(21) 0.37227(15) 0.16289(17)
H27_3 H 0.0237 0.3963 0.1420
C49_3 C 0.08350(20) 0.39605(14) 0.20166(17)
C50_3 C 0.11912(21) 0.45244(14) 0.19629(18)
H28_3 H 0.1110 0.4734 0.1654
C51_3 C 0.16530(21) 0.47679(15) 0.23575(18)
C52_3 C 0.17765(22) 0.44747(15) 0.28197(18)
H29_3 H 0.2099 0.4651 0.3088
C53_3 C 0.14308(21) 0.39252(15) 0.28896(18)
H30_3 H 0.1514 0.3726 0.3213
C54_3 C 0.09601(21) 0.36593(15) 0.24878(18)
H34_3 H 0.0214 0.3048 0.0261
C66_3 C 0.01535(21) 0.38270(15) 0.45118(19)
H43_3 H 0.0487 0.3826 0.4371
H44_3 H 0.0258 0.4127 0.4846
H45_3 H 0.0274 0.3045 0.4723
H46_3 H 0.0159 0.2181 0.4986
C74_3 C 0.03450(22) 0.44665(15) 0.3549(2)
H49_3 H 0.0210 0.4544 0.3121
H50_3 H 0.0664 0.4436 0.3441
H51_3 H 0.0444 0.4761 0.3883
H53_3 H 0.0020 0.3400 0.3252
Mn3_3 Mn 0.90380(3) 0.31331(2) 0.51678(3)
Mn5_3 Mn 0.68785(3) 0.08981(2) 0.07933(3)
Fe1_3 Fe 0.82106(3) 0.17727(2) 0.29883(3)
Br5_3 Br 0.640225(24) 0.232563(17) 0.36098(2)
Br6_3 Br 0.992397(23) 0.116924(16) 0.56544(2)
Br9_3 Br 0.766060(24) 0.356900(17) 0.22278(2)
Br12_3 Br 0.66378(3) 0.21366(2) 0.69930(2)
N1_3 N 0.79289(17) 0.02148(12) 0.49500(15)
N3_3 N 0.98057(16) 0.21590(11) 0.10466(14)
N5_3 N 0.89619(17) 0.35470(12) 0.43592(15)
N6_3 N 0.97819(17) 0.33072(12) 0.48609(15)
N9_3 N 0.64695(17) 0.09904(12) 0.15940(15)
N10_3 N 0.66862(18) 0.01493(13) 0.11056(15)
N13_3 N 0.78492(17) 0.06051(12) 0.35266(15)
N14_3 N 0.93949(17) 0.22162(12) 0.24629(15)
N15_3 N 0.84550(19) 0.29073(14) 0.25187(17)
N16_3 N 0.70615(18) 0.14807(13) 0.34518(16)
N17_3 N 0.86869(18) 0.23650(12) 0.43968(15)
N18_3 N 0.76455(17) 0.12581(12) 0.15783(15)
N19_3 N 0.94329(17) 0.39455(12) 0.57783(15)
N23_3 N 0.60712(18) 0.05234(12) 0.01732(15)
O5_3 O 0.83205(14) 0.28919(10) 0.54365(12)
O6_3 O 0.90836(14) 0.27209(10) 0.59113(12)
O9_3 O 0.71150(14) 0.16076(10) 0.05042(12)
O10_3 O 0.73075(14) 0.08511(10) 0.00746(12)
C1_3 C 0.80106(21) 0.10387(15) 0.33176(17)
C2_3 C 0.89575(20) 0.20225(14) 0.26639(17)
C3_3 C 0.83542(21) 0.24799(15) 0.26860(18)
C4_3 C 0.74911(21) 0.15933(14) 0.32911(18)
C5_3 C 0.85045(21) 0.21160(15) 0.38961(18)
C6_3 C 0.78813(21) 0.14539(15) 0.20810(18)
C7_3 C 0.97038(21) 0.43839(15) 0.59729(17)
C25_3 C 0.82573(21) 0.00789(15) 0.52218(18)
H4_3 H 0.8453 0.0276 0.5621
C26_3 C 0.79330(21) 0.06949(15) 0.52442(19)
H5_3 H 0.8095 0.0992 0.4899
H6_3 H 0.8166 0.0814 0.5662
C27_3 C 0.73704(21) 0.05981(15) 0.54454(18)
C28_3 C 0.70162(21) 0.04880(14) 0.47947(18)
H7_3 H 0.6682 0.0488 0.4929
H8_3 H 0.7213 0.0786 0.4457
C36_3 C 0.74619(21) 0.11301(15) 0.5761(2)
H13_3 H 0.7112 0.1105 0.5848
H14_3 H 0.7672 0.1427 0.5436
H15_3 H 0.7660 0.1198 0.6200
C37_3 C 0.70949(21) 0.01324(15) 0.59629(18)
H17_3 H 0.6726 0.0058 0.6052
H18_3 H 0.7299 0.0231 0.6399
C44_3 C 0.99435(21) 0.18274(14) 0.07934(18)
H22_3 H 0.9758 0.1632 0.0388
C45_3 C 0.93238(21) 0.21419(15) 0.07433(18)
H23_3 H 0.9023 0.1969 0.1081
H24_3 H 0.9216 0.1912 0.0321
C46_3 C 0.94039(21) 0.26965(15) 0.05468(18)
C47_3 C 0.94953(21) 0.30466(15) 0.11893(18)
H25_3 H 0.9483 0.3374 0.1049
H26_3 H 0.9196 0.2842 0.1522
C55_3 C 0.88709(22) 0.25945(16) 0.0210(2)
H32_3 H 0.8899 0.2941 0.0089
H33_3 H 0.8573 0.2401 0.0539
C56_3 C 0.98800(21) 0.29897(15) 0.00380(19)
C57_3 C 0.79123(20) 0.27390(14) 0.49943(18)
C58_3 C 0.73866(21) 0.23315(15) 0.5194(2)
H37_3 H 0.7337 0.2146 0.5622
C59_3 C 0.69498(21) 0.22013(15) 0.4778(2)
H38_3 H 0.6600 0.1923 0.4913
C60_3 C 0.70199(22) 0.24779(16) 0.4158(2)
C61_3 C 0.75189(22) 0.28608(16) 0.39267(19)
H39_3 H 0.7556 0.3038 0.3495
C62_3 C 0.79773(21) 0.29892(15) 0.43361(18)
C63_3 C 0.84954(21) 0.34111(15) 0.40864(19)
H40_3 H 0.8494 0.3606 0.3686
C64_3 C 0.94382(21) 0.40266(14) 0.40631(18)
H41_3 H 0.9573 0.4325 0.4406
H42_3 H 0.9324 0.4144 0.3642
C65_3 C 0.98990(21) 0.39277(15) 0.38682(19)
C67_3 C 0.99471(21) 0.29672(15) 0.49490(19)
C68_3 C 0.96830(21) 0.24780(15) 0.53590(19)
C69_3 C 0.98823(21) 0.21174(15) 0.53111(18)
C70_3 C 0.96731(21) 0.16725(15) 0.57369(19)
C71_3 C 0.92716(21) 0.15738(15) 0.62244(19)
H47_3 H 0.9131 0.1264 0.6515
C72_3 C 0.90817(21) 0.19293(15) 0.62799(18)
H48_3 H 0.8814 0.1866 0.6618
C73_3 C 0.92764(21) 0.23843(15) 0.58450(18)
C75_3 C 0.97186(22) 0.34636(15) 0.33463(19)
H52_3 H 0.9414 0.3135 0.3540
H54_3 H 0.9607 0.3559 0.2912
C95_3 C 0.72587(21) 0.20245(15) 0.09230(18)
C96_3 C 0.76416(21) 0.25459(15) 0.0683(2)
H73_3 H 0.7819 0.2585 0.0251
C97_3 C 0.77596(21) 0.29973(15) 0.1069(2)
H74_3 H 0.8012 0.3347 0.0899
C98_3 C 0.75088(22) 0.29403(15) 0.17100(19)
C99_3 C 0.71477(22) 0.24416(15) 0.1965(2)
H75_3 H 0.6981 0.2410 0.2404
C100_3 C 0.70222(21) 0.19740(15) 0.15801(19)
C101_3 C 0.66103(21) 0.14592(15) 0.18540(18)
H76_3 H 0.6427 0.1467 0.2262
C102_3 C 0.59860(21) 0.05257(15) 0.18974(19)
H77_3 H 0.5686 0.0395 0.1557
H78_3 H 0.5877 0.0649 0.2316
C103_3 C 0.60697(21) 0.00533(15) 0.20989(18)
C106_3 C 0.75085(21) 0.02210(15) 0.06335(18)
C108_3 C 0.83098(21) 0.02125(14) 0.02853(18)
C111_3 C 0.76284(21) 0.06447(15) 0.01602(18)
C113_3 C 0.65405(23) 0.02346(17) 0.2607(2)
H88_3 H 0.6874 0.0516 0.2388
H90_3 H 0.6467 0.0380 0.3028
H97_3 H 0.7199 0.0023 0.8219
C124_3 C 0.66811(23) 0.03613(16) 0.76408(17)
H99_3 H 0.7016 0.0607 0.7854
C125_3 C 0.64135(22) 0.05900(15) 0.72416(17)
C126_3 C 0.66158(23) 0.11509(17) 0.72960(19)
H100_3 H 0.6904 0.1364 0.7607
C127_3 C 0.63899(24) 0.13860(17) 0.68919(19)
C128_3 C 0.59835(24) 0.10872(17) 0.64176(19)
H101_3 H 0.5837 0.1259 0.6140
C129_3 C 0.57923(23) 0.05433(16) 0.63487(19)
H102_3 H 0.5520 0.0342 0.6014
C130_3 C 0.59943(23) 0.02783(16) 0.67684(18)
H31_3 H 0.8802 0.2377 0.9788
H35_3 H 0.9918 0.3339 0.9909
H36_3 H 0.9812 0.2769 0.9619
C109_3 C 0.84351(21) 0.06283(15) 0.98102(18)
H83_3 H 0.8751 0.0764 0.9530
C110_3 C 0.80980(21) 0.08384(15) 0.97506(18)
H84_3 H 0.8183 0.1121 0.9425
Mn1_3 Mn 0.74388(3) 0.97971(2) 0.41410(3)
Mn4_3 Mn 0.57201(3) 0.64575(2) 0.51349(3)
Mn6_3 Mn 0.57531(3) 0.92896(2) 0.74265(3)
Fe3_3 Fe 0.68950(3) 0.84281(2) 0.63169(3)
Br1_2 Br 0.926938(23) 0.900146(17) 0.572037(18)
Br2_3 Br 0.457729(24) 0.785338(16) 0.364085(19)
Br7_3 Br 0.307670(23) 0.567410(16) 0.36088(2)
Br8_2 Br 0.668400(26) 0.45426(2) 0.55982(2)
Br10_3 Br 0.879230(22) 0.993700(15) 0.038323(19)
Br11_3 Br 0.308930(23) 0.743140(16) 0.88950(2)
N2_3 N 0.68681(17) 0.99705(12) 0.44518(14)
N7_3 N 0.56423(17) 0.68765(12) 0.43286(14)
N8_3 N 0.64654(17) 0.66381(12) 0.48222(14)
N11_3 N 0.56645(18) 0.87966(13) 0.82319(14)
N12_3 N 0.65021(18) 0.98521(12) 0.77308(14)
N20_3 N 0.53647(17) 0.56922(12) 0.43571(14)
N22_3 N 0.53973(18) 0.97048(13) 0.82022(15)
N25_3 N 0.77746(19) 0.95625(13) 0.68041(17)
N26_3 N 0.61313(17) 0.88521(12) 0.68183(15)
N27_3 N 0.61123(18) 0.72628(12) 0.57550(14)
N28_3 N 0.77675(18) 0.81503(13) 0.58777(16)
N30_3 N 0.70189(17) 0.90288(12) 0.49127(15)
O1_3 O 0.79208(13) 0.95592(10) 0.38799(12)
O2_3 O 0.69771(13) 0.93757(10) 0.34031(12)
O7_3 O 0.50053(14) 0.62239(10) 0.54056(12)
O8_3 O 0.57617(14) 0.60282(10) 0.58606(11)
O11_3 O 0.50385(15) 0.88204(10) 0.71418(12)
O12_3 O 0.58056(15) 0.97522(10) 0.66854(11)
C13_3 C 0.74493(21) 0.91306(15) 0.66359(18)
C14_3 C 0.63858(20) 0.86687(14) 0.66251(17)
C15_3 C 0.63773(21) 0.76987(14) 0.59700(17)
C16_3 C 0.74436(21) 0.82576(15) 0.60291(18)
C17_3 C 0.68986(20) 0.81083(14) 0.72298(18)
C18_3 C 0.69559(21) 0.87819(14) 0.54109(17)
C19_3 C 0.81734(20) 0.94080(14) 0.43274(18)
C20_3 C 0.82880(20) 0.90027(14) 0.41284(18)
H1_3 H 0.8149 0.8816 0.3701
C21_3 C 0.85991(21) 0.88720(14) 0.45436(18)
H2_2 H 0.8673 0.8596 0.4406
C22_3 C 0.88052(21) 0.91506(15) 0.51712(18)
C23_3 C 0.86855(21) 0.95301(15) 0.53945(18)
H3_3 H 0.8822 0.9708 0.5827
C24_3 C 0.83565(21) 0.96592(15) 0.49811(18)
C29_3 C 0.63618(21) 0.96230(14) 0.43798(18)
H9_3 H 0.6113 0.9691 0.4626
C30_3 C 0.61367(20) 0.91393(14) 0.39595(18)
C31_3 C 0.55748(21) 0.87855(15) 0.39963(18)
H10_3 H 0.5361 0.8852 0.4317
C32_3 C 0.53369(21) 0.83429(15) 0.35653(19)
C33_3 C 0.56339(21) 0.82476(15) 0.30751(18)
H11_3 H 0.5460 0.7944 0.2773
C34_3 C 0.61837(21) 0.85963(15) 0.30281(18)
H12_3 H 0.6387 0.8532 0.2688
C35_3 C 0.64505(21) 0.90464(15) 0.34734(17)
H16_3 H 0.7082 0.9809 0.5769
C76_3 C 0.45966(21) 0.60725(15) 0.49729(17)
C77_3 C 0.40703(21) 0.56793(15) 0.51842(19)
H55_3 H 0.4021 0.5500 0.5617
C78_3 C 0.36315(23) 0.55536(16) 0.4775(2)
H56_3 H 0.3281 0.5282 0.4920
C79_3 C 0.36951(23) 0.58204(16) 0.41468(19)
C80_3 C 0.41934(21) 0.61918(15) 0.39131(19)
H57_3 H 0.4233 0.6367 0.3479
C81_3 C 0.46521(21) 0.63157(15) 0.43182(18)
C82_3 C 0.51760(21) 0.67378(15) 0.40623(17)
H58_3 H 0.5173 0.6930 0.3660
C83_3 C 0.61169(21) 0.73594(15) 0.40358(18)
H59_3 H 0.6252 0.7655 0.4383
H60_3 H 0.6002 0.7480 0.3619
C84_3 C 0.65788(21) 0.72620(15) 0.38333(18)
C85_3 C 0.68277(21) 0.71565(15) 0.44729(18)
H61_2 H 0.7163 0.7160 0.4332
H62_3 H 0.6930 0.7455 0.4810
C86_2 C 0.66327(22) 0.62985(16) 0.48890(17)
H63_2 H 0.6952 0.6375 0.4643
C87_2 C 0.63798(22) 0.58098(16) 0.53038(18)
C88_2 C 0.65983(23) 0.54662(17) 0.52596(19)
H64_2 H 0.6881 0.5541 0.4939
C89_2 C 0.63978(23) 0.50185(17) 0.56864(18)
C90_2 C 0.59946(23) 0.49102(16) 0.61629(19)
H65_2 H 0.5863 0.4602 0.6456
C91_2 C 0.57831(22) 0.52481(16) 0.62147(19)
H66_2 H 0.5508 0.5172 0.6548
C92_2 C 0.59646(22) 0.57042(16) 0.57843(17)
C93_3 C 0.70191(22) 0.77975(16) 0.3510(2)
H67_3 H 0.6877 0.7876 0.3089
H68_3 H 0.7335 0.7765 0.3390
H69_3 H 0.7125 0.8092 0.3846
C94_3 C 0.63938(22) 0.67973(16) 0.33133(18)
H70_3 H 0.6096 0.6467 0.3515
H71_3 H 0.6696 0.6739 0.3206
H72_3 H 0.6270 0.6888 0.2885
C104_3 C 0.61665(21) 0.97933(15) 0.14551(19)
H79_3 H 0.6157 0.9455 0.1597
H80_3 H 0.5869 0.9696 0.1119
C105_3 C 0.70147(22) 0.99674(16) 0.10290(19)
H81_3 H 0.6923 0.9636 0.1253
C107_3 C 0.78492(21) 0.99995(15) 0.06861(18)
H82_3 H 0.7763 0.9707 0.0993
C112_3 C 0.55367(22) 0.96202(16) 0.2428(2)
H85_3 H 0.5565 0.9301 0.2545
H86_3 H 0.5240 0.9518 0.2097
H87_3 H 0.5465 0.9765 0.2852
H89_3 H 0.6583 0.9925 0.2729
C114_3 C 0.46282(21) 0.85525(15) 0.75694(17)
C115_3 C 0.41050(22) 0.84261(16) 0.73463(19)
H91_3 H 0.4065 0.8568 0.6917
C116_3 C 0.36569(22) 0.81046(16) 0.7735(2)
H92_3 H 0.3309 0.8022 0.7575
C117_3 C 0.37133(22) 0.78977(16) 0.83683(19)
C118_3 C 0.42132(21) 0.80262(15) 0.86183(18)
H93_3 H 0.4245 0.7887 0.9054
C119_3 C 0.46812(21) 0.83657(15) 0.82267(18)
C120_3 C 0.51944(21) 0.84633(15) 0.84944(17)
H94_3 H 0.5188 0.8267 0.8897
C121_3 C 0.61322(21) 0.87840(15) 0.85374(18)
H95_3 H 0.6261 0.8610 0.8202
H96_3 H 0.6012 0.8557 0.8962
C122_3 C 0.66071(22) 0.93436(15) 0.87289(18)
C123_3 C 0.68605(22) 0.96925(15) 0.80821(18)
H98_3 H 0.6957 0.9490 0.7749
C131_3 C 0.70379(23) 0.92445(16) 0.90589(19)
H103_3 H 0.7348 0.9591 0.9202
H104_3 H 0.7156 0.9069 0.8720
H105_3 H 0.6885 0.9011 0.9467
C132_3 C 0.64239(23) 0.96327(16) 0.92398(18)
H106_3 H 0.6733 0.9985 0.9365
H107_3 H 0.6277 0.9412 0.9660
H108_3 H 0.6144 0.9686 0.9021
Br3_2 Br 0.923071(16) 0.023201(15) 0.710301(18)
H20_2 H 0.8646 0.0002 0.8426
Br1_3 Br 0.973208(15) 0.073062(23) 0.905371(18)
Br8_3 Br 0.785860(16) 0.331600(26) 0.89316(2)
H2_3 H 0.9923 0.1327 0.7740
H61_3 H 0.9997 0.2837 0.7666
C86_3 C 0.96658(15) 0.33673(22) 0.82224(17)
H63_3 H 0.9423 0.3048 0.7977
C87_3 C 0.94300(15) 0.36202(22) 0.86372(18)
C88_3 C 0.88679(16) 0.34017(23) 0.85930(19)
H64_3 H 0.8660 0.3119 0.8273
C89_3 C 0.86207(15) 0.36022(23) 0.90198(18)
C90_3 C 0.89156(16) 0.40054(23) 0.94963(19)
H65_3 H 0.8739 0.4137 0.9790
C91_3 C 0.94650(15) 0.42169(22) 0.95481(19)
H66_3 H 0.9664 0.4492 0.9882
C92_3 C 0.97396(15) 0.40354(22) 0.91177(17)
Br3_3 Br 0.976799(15) 0.899870(22) 0.376968(18)
H20_3 H 0.9998 0.8644 0.5093
N32 N 0.12784(12) 0.06207(12) 0.62581(14)
C136 C 0.16574(16) 0.11578(15) 0.59154(18)
H109 H 0.1445 0.1329 0.5771
H110 H 0.1924 0.1397 0.6266
C137 C 0.19605(16) 0.11273(18) 0.5290(2)
H111 H 0.2150 0.0933 0.5415
H112 H 0.2224 0.1494 0.5137
H113 H 0.1705 0.0936 0.4912
C138 C 0.08779(15) 0.02158(15) 0.57475(18)
H115 H 0.1082 0.0160 0.5372
C139 C 0.04864(16) 0.03709(16) 0.5413(2)
H116 H 0.0238 0.0366 0.5768
H117 H 0.0280 0.0111 0.5046
H118 H 0.0692 0.0734 0.5213
C140 C 0.09986(16) 0.07550(15) 0.68266(19)
H119 H 0.0815 0.0935 0.6612
H120 H 0.1277 0.1017 0.7148
C141 C 0.05863(16) 0.02762(16) 0.7249(2)
H121 H 0.0297 0.0021 0.6941
H122 H 0.0433 0.0403 0.7609
H123 H 0.0763 0.0095 0.7468
C142 C 0.15916(15) 0.03630(15) 0.65659(18)
H125 H 0.1802 0.0320 0.6188
C143 C 0.19750(16) 0.06697(16) 0.71568(19)
H126 H 0.2202 0.1050 0.7025
H127 H 0.2205 0.0513 0.7253
H128 H 0.1766 0.0644 0.7574
H114 H 0.0663 0.9866 0.5991
H124 H 0.1327 0.9997 0.6735
H114_2 H 0.0134 0.0797 0.2658
H124_2 H 0.0003 0.1330 0.3402
N32_2 N 0.93793(12) 0.06577(17) 0.29248(14)
C136_2 C 0.88422(15) 0.04996(22) 0.25821(18)
H109_2 H 0.8671 0.0116 0.2438
H110_2 H 0.8603 0.0527 0.2933
C137_2 C 0.88727(18) 0.08332(24) 0.1957(2)
H111_2 H 0.9067 0.1217 0.2082
H112_2 H 0.8506 0.0730 0.1804
H113_2 H 0.9064 0.0769 0.1579
C138_2 C 0.97842(15) 0.06621(21) 0.24142(18)
H115_2 H 0.9840 0.0922 0.2039
C139_2 C 0.96291(16) 0.01155(23) 0.2080(2)
H117_2 H 0.9889 0.0169 0.1713
C140_2 C 0.92450(15) 0.02436(22) 0.34933(19)
H120_2 H 0.8983 0.0260 0.3815
C141_2 C 0.97238(16) 0.03101(23) 0.3916(2)
H121_2 H 0.9979 0.0276 0.3608
H122_2 H 0.9597 0.0030 0.4276
H123_2 H 0.9905 0.0668 0.4135
C142_2 C 0.96370(15) 0.12286(21) 0.32326(18)
H125_2 H 0.9680 0.1482 0.2855
C143_2 C 0.93303(16) 0.13053(23) 0.38235(19)
H126_2 H 0.8950 0.1152 0.3692
H127_2 H 0.9487 0.1692 0.3920
H128_2 H 0.9356 0.1122 0.4241
H116_2 H 0.9634 0.9872 0.2435
H118_2 H 0.9266 0.9958 0.1880
H119_2 H 0.9065 0.9880 0.3279
H116_3 H 0.0128 0.9762 0.9101
H118_3 H 0.0042 0.9308 0.8546
H119_3 H 0.0120 0.9185 0.9945
C140_3 C 0.97564(22) 0.90014(16) 0.01599(19)
H120_3 H 0.9740 0.8723 0.0481
C141_3 C 0.96899(23) 0.94137(16) 0.0582(2)
H121_3 H 0.9724 0.9703 0.0274
H122_3 H 0.9970 0.9567 0.0942
H123_3 H 0.9332 0.9237 0.0801
H124_3 H 0.8670 0.8673 0.0068
C143_3 C 0.86947(23) 0.80250(16) 0.04901(19)
H126_3 H 0.8848 0.7798 0.0358
H127_3 H 0.8308 0.7795 0.0586
H128_3 H 0.8878 0.8234 0.0907
N32_3 N 0.93423(17) 0.87216(12) 0.95914(14)
C136_3 C 0.95004(22) 0.83426(16) 0.92487(18)
H109_3 H 0.9884 0.8555 0.9104
H110_3 H 0.9473 0.8076 0.9599
C137_3 C 0.91668(24) 0.80395(16) 0.8623(2)
H111_3 H 0.8783 0.7850 0.8748
H112_3 H 0.9270 0.7776 0.8470
H113_3 H 0.9231 0.8295 0.8245
C138_3 C 0.93379(21) 0.91221(15) 0.90808(18)
H114_3 H 0.9203 0.9337 0.9324
H115_3 H 0.9078 0.8918 0.8705
C139_3 C 0.98845(23) 0.95136(16) 0.8746(2)
H117_3 H 0.9831 0.9720 0.8379
C142_3 C 0.87714(21) 0.84084(15) 0.98992(18)
H125_3 H 0.8518 0.8198 0.9521
C146 C 0.21566(17) 0.50212(17) 0.0021(2)
H134 H 0.1996 0.5243 0.0166
C147 C 0.2176(2) 0.47103(19) 0.0648(2)
H136 H 0.2353 0.4504 0.0520
H137 H 0.1807 0.4461 0.0807
H138 H 0.2380 0.4964 0.1022
C148 C 0.31077(15) 0.57710(15) 0.01934(19)
H140 H 0.3152 0.5553 0.0561
C149 C 0.29670(17) 0.61627(16) 0.0537(2)
H141 H 0.2977 0.6418 0.0189
H142 H 0.3230 0.6361 0.0905
H143 H 0.2604 0.5962 0.0738
N33 N 0.26965(13) 0.53903(12) 0.96713(17)
C144 C 0.29432(18) 0.50671(17) 0.9369(2)
H129 H 0.3313 0.5325 0.9203
H130 H 0.2978 0.4852 0.9749
C145 C 0.2635(2) 0.46911(18) 0.8781(2)
H131 H 0.2261 0.4448 0.8926
H132 H 0.2805 0.4478 0.8656
H133 H 0.2638 0.4902 0.8377
H135 H 0.1911 0.4758 0.9671
H139 H 0.3460 0.5982 0.9955
C150 C 0.25907(16) 0.56909(17) 0.9115(2)
H144 H 0.2423 0.5886 0.9332
H145 H 0.2324 0.5424 0.8785
C151 C 0.30819(17) 0.60946(17) 0.8704(2)
H146 H 0.3334 0.6384 0.9014
H147 H 0.2968 0.6250 0.8331
H148 H 0.3262 0.5911 0.8501
N33_2 N 0.46097(12) 0.73062(18) 0.63380(17)
C144_2 C 0.49329(17) 0.78761(25) 0.6036(2)
H129_2 H 0.4675 0.7988 0.5870
H130_2 H 0.5148 0.8126 0.6416
C145_2 C 0.53089(18) 0.79439(27) 0.5448(2)
H131_2 H 0.5552 0.7813 0.5593
H132_2 H 0.5522 0.8327 0.5323
H133_2 H 0.5098 0.7736 0.5044
C146_2 C 0.49788(17) 0.71354(24) 0.6688(2)
H134_2 H 0.4757 0.6753 0.6833
H135_2 H 0.5242 0.7153 0.6338
C147_2 C 0.52897(19) 0.74657(28) 0.7315(2)
H136_2 H 0.5496 0.7849 0.7187
H137_2 H 0.5539 0.7346 0.7474
H138_2 H 0.5036 0.7416 0.7689
C148_2 C 0.42290(15) 0.73367(21) 0.68601(19)
H139_2 H 0.4018 0.7478 0.6622
H140_2 H 0.4447 0.7599 0.7228
C149_2 C 0.38373(16) 0.68043(23) 0.7204(2)
H141_2 H 0.3582 0.6559 0.6856
H142_2 H 0.3639 0.6869 0.7572
H143_2 H 0.4038 0.6642 0.7405
C150_2 C 0.43091(17) 0.68998(23) 0.5782(2)
H144_2 H 0.4114 0.6537 0.5999
H145_2 H 0.4576 0.6900 0.5452
C151_2 C 0.39054(17) 0.69873(24) 0.5371(2)
H146_2 H 0.3616 0.6950 0.5681
H147_2 H 0.3750 0.6718 0.4998
H148_2 H 0.4089 0.7351 0.5168
N33_3 N 0.26938(18) 0.73035(13) 0.30046(17)
C144_3 C 0.21239(25) 0.70568(18) 0.2702(2)
H129_3 H 0.2012 0.6687 0.2536
H130_3 H 0.1874 0.7022 0.3082
C145_3 C 0.20561(27) 0.7365(2) 0.2114(2)
H131_3 H 0.2187 0.7739 0.2259
H132_3 H 0.1673 0.7195 0.1989
H133_3 H 0.2264 0.7362 0.1710
C146_3 C 0.28646(24) 0.78434(17) 0.3354(2)
H134_3 H 0.3247 0.8004 0.3499
H135_3 H 0.2847 0.8089 0.3004
C147_3 C 0.25343(28) 0.7824(2) 0.3981(2)
H136_3 H 0.2151 0.7647 0.3853
H137_3 H 0.2654 0.8193 0.4140
H138_3 H 0.2584 0.7620 0.4355
C148_3 C 0.26633(21) 0.68923(15) 0.35267(19)
H139_3 H 0.2522 0.6540 0.3288
H140_3 H 0.2401 0.6848 0.3894
C149_3 C 0.31957(23) 0.70330(17) 0.3870(2)
H141_3 H 0.3441 0.7023 0.3522
H142_3 H 0.3131 0.6770 0.4238
H143_3 H 0.3358 0.7396 0.4071
C150_3 C 0.31002(23) 0.74093(16) 0.2448(2)
H144_3 H 0.3463 0.7577 0.2665
H145_3 H 0.3100 0.7676 0.2118
C151_3 C 0.30127(24) 0.69181(17) 0.2037(2)
H146_3 H 0.3050 0.6666 0.2347
H147_3 H 0.3282 0.7032 0.1664
H148_3 H 0.2649 0.6738 0.1834
N34 N 0.79437(12) 0.39916(13) 0.63344(17)
C152 C 0.83111(17) 0.38128(19) 0.6676(2)
H149 H 0.8085 0.3433 0.6829
H150 H 0.8565 0.3820 0.6319
C153 C 0.86379(18) 0.4143(2) 0.7292(2)
H151 H 0.8827 0.4528 0.7168
H152 H 0.8902 0.4035 0.7420
H153 H 0.8396 0.4081 0.7686
C154 C 0.82696(17) 0.45535(16) 0.6022(2)
H154 H 0.8014 0.4670 0.5863
H155 H 0.8494 0.4805 0.6395
C155 C 0.86317(18) 0.4612(2) 0.5427(2)
H156 H 0.8897 0.4512 0.5579
H157 H 0.8820 0.4989 0.5267
H158 H 0.8415 0.4375 0.5045
C156 C 0.76275(18) 0.35766(16) 0.5787(2)
H159 H 0.7433 0.3217 0.6012
H160 H 0.7886 0.3568 0.5450
C157 C 0.72210(19) 0.36666(17) 0.5388(2)
H161 H 0.6939 0.3635 0.5706
H162 H 0.7057 0.3394 0.5020
H163 H 0.7405 0.4028 0.5180
C158 C 0.75782(17) 0.40286(17) 0.6867(2)
H164 H 0.7367 0.4174 0.6637
H165 H 0.7806 0.4292 0.7227
C159 C 0.71843(18) 0.35005(18) 0.7227(2)
H166 H 0.6920 0.3253 0.6888
H167 H 0.6996 0.3574 0.7601
H168 H 0.7384 0.3335 0.7424
N34_2 N 0.60084(13) 0.39521(18) 0.30011(17)
C152_2 C 0.61872(19) 0.44983(25) 0.3343(2)
H149_2 H 0.6567 0.4652 0.3496
H150_2 H 0.6180 0.4745 0.2986
C153_2 C 0.5857(2) 0.44949(27) 0.3959(2)
H151_2 H 0.5472 0.4299 0.3835
H152_2 H 0.5965 0.4867 0.4087
H153_2 H 0.5919 0.4315 0.4353
C154_2 C 0.54465(16) 0.37161(23) 0.2689(2)
H154_2 H 0.5330 0.3344 0.2530
H155_2 H 0.5195 0.3689 0.3062
C155_2 C 0.5388(2) 0.40197(27) 0.2094(2)
H156_2 H 0.5488 0.4385 0.2246
H157_2 H 0.5011 0.3831 0.1934
H158_2 H 0.5625 0.4040 0.1712
C156_2 C 0.64234(16) 0.40509(24) 0.2454(2)
H159_2 H 0.6783 0.4216 0.2679
H160_2 H 0.6432 0.4318 0.2117
C157_2 C 0.63334(17) 0.35544(25) 0.2055(2)
H161_2 H 0.6365 0.3304 0.2373
H162_2 H 0.6606 0.3663 0.1687
H163_2 H 0.5972 0.3377 0.1847
C158_2 C 0.59714(17) 0.35496(24) 0.3534(2)
H164_2 H 0.5826 0.3193 0.3304
H165_2 H 0.5708 0.3514 0.3894
C159_2 C 0.64995(18) 0.36838(25) 0.3894(2)
H166_2 H 0.6747 0.3667 0.3555
H167_2 H 0.6426 0.3422 0.4268
H168_2 H 0.6665 0.4049 0.4091
C152_3 C 0.55017(25) 0.16889(17) 0.0009(2)
H149_3 H 0.5348 0.1915 0.0162
C153_3 C 0.55051(27) 0.13621(18) 0.0625(2)
H151_3 H 0.5701 0.1173 0.0501
H152_3 H 0.5133 0.1098 0.0753
H153_3 H 0.5685 0.1604 0.1019
C158_3 C 0.64504(24) 0.24218(17) 0.0200(2)
H165_3 H 0.6486 0.2194 0.0560
C159_3 C 0.63162(25) 0.28157(18) 0.0560(2)
H166_3 H 0.6333 0.3080 0.0221
H167_3 H 0.6578 0.3004 0.0934
H168_3 H 0.5951 0.2616 0.0757
N34_3 N 0.60479(18) 0.20563(12) 0.96677(17)
H150_3 H 0.5255 0.1435 0.9652
C154_3 C 0.62839(23) 0.17304(17) 0.9355(2)
H154_3 H 0.6656 0.1986 0.9196
H155_3 H 0.6311 0.1506 0.9728
C155_3 C 0.59803(27) 0.13683(18) 0.8760(2)
H156_3 H 0.5615 0.1103 0.8912
H157_3 H 0.6169 0.1180 0.8600
H158_3 H 0.5960 0.1585 0.8378
C156_3 C 0.59491(24) 0.23725(18) 0.9120(2)
H159_3 H 0.5784 0.2567 0.9345
H160_3 H 0.5682 0.2114 0.8783
C157_3 C 0.64456(25) 0.27790(19) 0.8721(2)
H161_3 H 0.6696 0.3061 0.9039
H162_3 H 0.6337 0.2943 0.8353
H163_3 H 0.6623 0.2595 0.8513
H164_3 H 0.6807 0.2633 0.9970
loop_
_geom_bond_atom_site_label_1
_geom_bond_atom_site_label_2
_geom_bond_site_symmetry_1
_geom_bond_site_symmetry_2
Br8 C89 1_555 1_555
H63 C86 1_555 1_555
C87 C86 1_555 1_555
C88 C87 1_555 1_555
H64 C88 1_555 1_555
C89 C88 1_555 1_555
C90 C89 1_555 1_555
H65 C90 1_555 1_555
C91 C90 1_555 1_555
H66 C91 1_555 1_555
C87 C92 1_555 1_555
C91 C92 1_555 1_555
Mn4 N7 1_555 1_555
Mn6 N11 1_555 1_555
Fe3 C13 1_555 1_555
Br2 C32 1_555 1_555
Br7 C79 1_555 1_555
Br11 C117 1_555 1_555
N2 Mn1 1_555 1_555
N7 C82 1_555 1_555
N8 Mn4 1_555 1_555
N11 C120 1_555 1_555
N12 Mn6 1_555 1_555
N20 Mn4 1_555 1_555
N22 Mn6 1_555 1_555
N25 C13 1_555 1_555
N26 Mn6 1_555 1_555
N27 Mn4 1_555 1_555
N28 C16 1_555 1_555
N29 C17 1_555 1_555
N30 Mn1 1_555 1_555
O1 Mn1 1_555 1_555
O2 Mn1 1_555 1_555
O7 Mn4 1_555 1_555
O8 Mn4 1_555 1_555
O11 Mn6 1_555 1_555
O12 Mn6 1_555 1_555
C8 N20 1_555 1_555
C10 N22 1_555 1_555
C14 Fe3 1_555 1_555
C15 Fe3 1_555 1_555
C16 Fe3 1_555 1_555
C17 Fe3 1_555 1_555
C18 Fe3 1_555 1_555
C19 O1 1_555 1_555
C20 C19 1_555 1_555
H1 C20 1_555 1_555
C21 C20 1_555 1_555
C22 C21 1_555 1_555
C23 C22 1_555 1_555
H3 C23 1_555 1_555
C24 C19 1_555 1_555
C29 N2 1_555 1_555
H9 C29 1_555 1_555
C30 C29 1_555 1_555
C31 C30 1_555 1_555
H10 C31 1_555 1_555
C32 C31 1_555 1_555
C35 O2 1_555 1_555
C76 O7 1_555 1_555
C77 C76 1_555 1_555
H55 C77 1_555 1_555
C78 C77 1_555 1_555
H56 C78 1_555 1_555
C79 C78 1_555 1_555
C80 C79 1_555 1_555
H57 C80 1_555 1_555
C81 C76 1_555 1_555
C82 C81 1_555 1_555
H58 C82 1_555 1_555
C83 N7 1_555 1_555
H59 C83 1_555 1_555
H60 C83 1_555 1_555
C84 C83 1_555 1_555
C85 N8 1_555 1_555
H62 C85 1_555 1_555
C93 C84 1_555 1_555
H68 C93 1_555 1_555
H69 C93 1_555 1_555
C114 O11 1_555 1_555
C115 C114 1_555 1_555
H91 C115 1_555 1_555
C116 C115 1_555 1_555
H92 C116 1_555 1_555
C117 C116 1_555 1_555
C118 C117 1_555 1_555
H93 C118 1_555 1_555
C119 C114 1_555 1_555
C120 C119 1_555 1_555
H94 C120 1_555 1_555
C121 N11 1_555 1_555
H95 C121 1_555 1_555
H96 C121 1_555 1_555
C122 C121 1_555 1_555
C123 N12 1_555 1_555
H98 C123 1_555 1_555
C131 C122 1_555 1_555
H103 C131 1_555 1_555
H104 C131 1_555 1_555
H105 C131 1_555 1_555
C132 C122 1_555 1_555
H106 C132 1_555 1_555
H107 C132 1_555 1_555
H108 C132 1_555 1_555
Mn7 N29 1_555 1_555
Fe5 C10 1_555 1_555
N26 C14 1_555 1_555
N27 C15 1_555 1_555
N30 C18 1_555 1_555
C23 C24 1_555 1_555
C30 C35 1_555 1_555
C80 C81 1_555 1_555
C84 C85 1_555 1_555
C118 C119 1_555 1_555
C122 C123 1_555 1_555
H11 C33 1_555 1_555
C34 C33 1_555 1_555
H12 C34 1_555 1_555
H71 C94 1_555 1_555
H72 C94 1_555 1_555
H79 C104 1_555 1_555
H80 C104 1_555 1_555
H81 C105 1_555 1_555
H82 C107 1_555 1_555
H85 C112 1_555 1_555
H86 C112 1_555 1_555
H87 C112 1_555 1_555
Mn3 N5 1_555 1_555
Fe2 C7 1_555 1_555
Br5 C60 1_555 1_555
Br6 C70 1_555 1_555
Br12 C127 1_555 1_555
N1 C25 1_555 1_555
N5 C63 1_555 1_555
N6 Mn3 1_555 1_555
N17 Mn3 1_555 1_555
N19 Mn3 1_555 1_555
N21 C9 1_555 1_555
N24 C12 1_555 1_555
O5 Mn3 1_555 1_555
O6 Mn3 1_555 1_555
C7 N19 1_555 1_555
C9 Fe2 1_555 1_555
C12 Fe2 1_555 1_555
H4 C25 1_555 1_555
C26 N1 1_555 1_555
H5 C26 1_555 1_555
H6 C26 1_555 1_555
C27 C26 1_555 1_555
H7 C28 1_555 1_555
H8 C28 1_555 1_555
C36 C27 1_555 1_555
H13 C36 1_555 1_555
H14 C36 1_555 1_555
H15 C36 1_555 1_555
C37 C27 1_555 1_555
H17 C37 1_555 1_555
H18 C37 1_555 1_555
C57 O5 1_555 1_555
C58 C57 1_555 1_555
H37 C58 1_555 1_555
C59 C58 1_555 1_555
H38 C59 1_555 1_555
C60 C59 1_555 1_555
C61 C60 1_555 1_555
H39 C61 1_555 1_555
C62 C57 1_555 1_555
C63 C62 1_555 1_555
H40 C63 1_555 1_555
C64 N5 1_555 1_555
H41 C64 1_555 1_555
H42 C64 1_555 1_555
C65 C64 1_555 1_555
C66 N6 1_555 1_555
H43 C66 1_555 1_555
H44 C66 1_555 1_555
C67 N6 1_555 1_555
H45 C67 1_555 1_555
C68 C67 1_555 1_555
C69 C68 1_555 1_555
H46 C69 1_555 1_555
C70 C69 1_555 1_555
C71 C70 1_555 1_555
H47 C71 1_555 1_555
C72 C71 1_555 1_555
H48 C72 1_555 1_555
C73 O6 1_555 1_555
C74 C65 1_555 1_555
H50 C74 1_555 1_555
H51 C74 1_555 1_555
C75 C65 1_555 1_555
H52 C75 1_555 1_555
H99 C124 1_555 1_555
C125 C124 1_555 1_555
C126 C125 1_555 1_555
H100 C126 1_555 1_555
C127 C126 1_555 1_555
C128 C127 1_555 1_555
H101 C128 1_555 1_555
C129 C128 1_555 1_555
H102 C129 1_555 1_555
C133 Fe2 1_555 1_555
C134 Fe2 1_555 1_555
C135 Fe2 1_555 1_555
N17 C5 1_555 1_555
C27 C28 1_555 1_555
C61 C62 1_555 1_555
C65 C66 1_555 1_555
C68 C73 1_555 1_555
C72 C73 1_555 1_555
C125 C130 1_555 1_555
C129 C130 1_555 1_555
Mn2 N3 1_555 1_555
Mn5 N9 1_555 1_555
Fe1 C1 1_555 1_555
Br4 C51 1_555 1_555
Br9 C98 1_555 1_555
N3 C44 1_555 1_555
N4 Mn2 1_555 1_555
N9 C101 1_555 1_555
N10 Mn5 1_555 1_555
N14 Mn2 1_555 1_555
N15 C3 1_555 1_555
N18 Mn5 1_555 1_555
N23 Mn5 1_555 1_555
O3 Mn2 1_555 1_555
O4 Mn2 1_555 1_555
O9 Mn5 1_555 1_555
O10 Mn5 1_555 1_555
C2 Fe1 1_555 1_555
C3 Fe1 1_555 1_555
C4 Fe1 1_555 1_555
C6 Fe1 1_555 1_555
C11 N23 1_555 1_555
C38 O3 1_555 1_555
C39 C38 1_555 1_555
H19 C39 1_555 1_555
C40 C39 1_555 1_555
C41 C40 1_555 1_555
C42 C41 1_555 1_555
H21 C42 1_555 1_555
C43 C38 1_555 1_555
C44 C43 1_555 1_555
H22 C44 1_555 1_555
C45 N3 1_555 1_555
H23 C45 1_555 1_555
H24 C45 1_555 1_555
C46 C45 1_555 1_555
C47 N4 1_555 1_555
H25 C47 1_555 1_555
H26 C47 1_555 1_555
C48 N4 1_555 1_555
H27 C48 1_555 1_555
C49 C48 1_555 1_555
C50 C49 1_555 1_555
H28 C50 1_555 1_555
C51 C50 1_555 1_555
C52 C51 1_555 1_555
H29 C52 1_555 1_555
C53 C52 1_555 1_555
H30 C53 1_555 1_555
C54 O4 1_555 1_555
C55 C46 1_555 1_555
H31 C55 1_555 1_555
H32 C55 1_555 1_555
H33 C55 1_555 1_555
C56 C46 1_555 1_555
H34 C56 1_555 1_555
H35 C56 1_555 1_555
H36 C56 1_555 1_555
C95 O9 1_555 1_555
C96 C95 1_555 1_555
H73 C96 1_555 1_555
C97 C96 1_555 1_555
H74 C97 1_555 1_555
C98 C97 1_555 1_555
C99 C98 1_555 1_555
H75 C99 1_555 1_555
C100 C95 1_555 1_555
C101 C100 1_555 1_555
H76 C101 1_555 1_555
C102 N9 1_555 1_555
H77 C102 1_555 1_555
H78 C102 1_555 1_555
C103 C102 1_555 1_555
C109 C108 1_555 1_555
H83 C109 1_555 1_555
C110 C109 1_555 1_555
H84 C110 1_555 1_555
C111 O10 1_555 1_555
C113 C103 1_555 1_555
H88 C113 1_555 1_555
H90 C113 1_555 1_555
N31 Mn2 1_555 1_555
N14 C2 1_555 1_555
N18 C6 1_555 1_555
C42 C43 1_555 1_555
C46 C47 1_555 1_555
C49 C54 1_555 1_555
C53 C54 1_555 1_555
C99 C100 1_555 1_555
C106 C111 1_555 1_555
C110 C111 1_555 1_555
Mn6_2 N11_2 1_555 1_555
Br11_2 C117_2 1_555 1_555
Br12_2 C127_2 1_555 1_555
N11_2 C120_2 1_555 1_555
N12_2 Mn6_2 1_555 1_555
N22_2 Mn6_2 1_555 1_555
N26_2 Mn6_2 1_555 1_555
N29_2 C17_2 1_555 1_555
O11_2 Mn6_2 1_555 1_555
O12_2 Mn6_2 1_555 1_555
C134 N22_2 1_555 1_555
C114_2 O11_2 1_555 1_555
C115_2 C114_2 1_555 1_555
H91_2 C115_2 1_555 1_555
C116_2 C115_2 1_555 1_555
H92_2 C116_2 1_555 1_555
C117_2 C116_2 1_555 1_555
C118_2 C117_2 1_555 1_555
H93_2 C118_2 1_555 1_555
C119_2 C114_2 1_555 1_555
C120_2 C119_2 1_555 1_555
H94_2 C120_2 1_555 1_555
C121_2 N11_2 1_555 1_555
H95_2 C121_2 1_555 1_555
H96_2 C121_2 1_555 1_555
C122_2 C121_2 1_555 1_555
C123_2 N12_2 1_555 1_555
H97_2 C123_2 1_555 1_555
H98_2 C123_2 1_555 1_555
C124_2 N12_2 1_555 1_555
H99_2 C124_2 1_555 1_555
C125_2 C124_2 1_555 1_555
C126_2 C125_2 1_555 1_555
H100_2 C126_2 1_555 1_555
C127_2 C126_2 1_555 1_555
C130_2 O12_2 1_555 1_555
C131_2 C122_2 1_555 1_555
H103_2 C131_2 1_555 1_555
H104_2 C131_2 1_555 1_555
H105_2 C131_2 1_555 1_555
C132_2 C122_2 1_555 1_555
H106_2 C132_2 1_555 1_555
H107_2 C132_2 1_555 1_555
H108_2 C132_2 1_555 1_555
Mn7_2 N29_2 1_555 1_555
C118_2 C119_2 1_555 1_555
C122_2 C123_2 1_555 1_555
C125_2 C130_2 1_555 1_555
Mn1_2 N1_2 1_555 1_555
Mn3_2 N5_2 1_555 1_555
Mn4_2 N7_2 1_555 1_555
Mn5_2 N9_2 1_555 1_555
Fe1_2 C1_2 1_555 1_555
Fe3_2 C13_2 1_555 1_555
Br2_2 C32_2 1_555 1_555
Br5_2 C60_2 1_555 1_555
Br6_2 C70_2 1_555 1_555
Br7_2 C79_2 1_555 1_555
Br9_2 C98_2 1_555 1_555
Br10_2 C108_2 1_555 1_555
N1_2 C25_2 1_555 1_555
N2_2 Mn1_2 1_555 1_555
N3_2 C44_2 1_555 1_555
N5_2 C63_2 1_555 1_555
N6_2 Mn3_2 1_555 1_555
N7_2 C82_2 1_555 1_555
N8_2 Mn4_2 1_555 1_555
N9_2 C101_2 1_555 1_555
N10_2 Mn5_2 1_555 1_555
N13_2 Mn1_2 1_555 1_555
N15_2 C3_2 1_555 1_555
N16_2 C4_2 1_555 1_555
N17_2 Mn3_2 1_555 1_555
N18_2 Mn5_2 1_555 1_555
N19_2 Mn3_2 1_555 1_555
N20_2 Mn4_2 1_555 1_555
N23_2 Mn5_2 1_555 1_555
N27_2 Mn4_2 1_555 1_555
N28_2 C16_2 1_555 1_555
N30_2 Mn1_2 1_555 1_555
O1_2 Mn1_2 1_555 1_555
O2_2 Mn1_2 1_555 1_555
O5_2 Mn3_2 1_555 1_555
O6_2 Mn3_2 1_555 1_555
O7_2 Mn4_2 1_555 1_555
O8_2 Mn4_2 1_555 1_555
O9_2 Mn5_2 1_555 1_555
O10_2 Mn5_2 1_555 1_555
C1_2 N13_2 1_555 1_555
C2_2 Fe1_2 1_555 1_555
C3_2 Fe1_2 1_555 1_555
C4_2 Fe1_2 1_555 1_555
C5_2 Fe1_2 1_555 1_555
C6_2 Fe1_2 1_555 1_555
C7_2 N19_2 1_555 1_555
C8_2 N20_2 1_555 1_555
C135 N23_2 1_555 1_555
C14_2 Fe3_2 1_555 1_555
C15_2 Fe3_2 1_555 1_555
C16_2 Fe3_2 1_555 1_555
C18_2 Fe3_2 1_555 1_555
C19_2 O1_2 1_555 1_555
C20_2 C19_2 1_555 1_555
H1_2 C20_2 1_555 1_555
C21_2 C20_2 1_555 1_555
C22_2 C21_2 1_555 1_555
C23_2 C22_2 1_555 1_555
H3_2 C23_2 1_555 1_555
C24_2 C19_2 1_555 1_555
C25_2 C24_2 1_555 1_555
H4_2 C25_2 1_555 1_555
C26_2 N1_2 1_555 1_555
H5_2 C26_2 1_555 1_555
H6_2 C26_2 1_555 1_555
C27_2 C26_2 1_555 1_555
C28_2 N2_2 1_555 1_555
H7_2 C28_2 1_555 1_555
H8_2 C28_2 1_555 1_555
C29_2 N2_2 1_555 1_555
H9_2 C29_2 1_555 1_555
C30_2 C29_2 1_555 1_555
C31_2 C30_2 1_555 1_555
H10_2 C31_2 1_555 1_555
C32_2 C31_2 1_555 1_555
C33_2 C32_2 1_555 1_555
H11_2 C33_2 1_555 1_555
C34_2 C33_2 1_555 1_555
H12_2 C34_2 1_555 1_555
C35_2 O2_2 1_555 1_555
C36_2 C27_2 1_555 1_555
H13_2 C36_2 1_555 1_555
H14_2 C36_2 1_555 1_555
H15_2 C36_2 1_555 1_555
C37_2 C27_2 1_555 1_555
H16_2 C37_2 1_555 1_555
H17_2 C37_2 1_555 1_555
H18_2 C37_2 1_555 1_555
H22_2 C44_2 1_555 1_555
C45_2 N3_2 1_555 1_555
H23_2 C45_2 1_555 1_555
H24_2 C45_2 1_555 1_555
C46_2 C45_2 1_555 1_555
H25_2 C47_2 1_555 1_555
H26_2 C47_2 1_555 1_555
C55_2 C46_2 1_555 1_555
H31_2 C55_2 1_555 1_555
H32_2 C55_2 1_555 1_555
H33_2 C55_2 1_555 1_555
C56_2 C46_2 1_555 1_555
H35_2 C56_2 1_555 1_555
H36_2 C56_2 1_555 1_555
C57_2 O5_2 1_555 1_555
C58_2 C57_2 1_555 1_555
H37_2 C58_2 1_555 1_555
C59_2 C58_2 1_555 1_555
H38_2 C59_2 1_555 1_555
C60_2 C59_2 1_555 1_555
C61_2 C60_2 1_555 1_555
H39_2 C61_2 1_555 1_555
C62_2 C57_2 1_555 1_555
C63_2 C62_2 1_555 1_555
H40_2 C63_2 1_555 1_555
C64_2 N5_2 1_555 1_555
H41_2 C64_2 1_555 1_555
H42_2 C64_2 1_555 1_555
C65_2 C64_2 1_555 1_555
C67_2 N6_2 1_555 1_555
C68_2 C67_2 1_555 1_555
C69_2 C68_2 1_555 1_555
C70_2 C69_2 1_555 1_555
C71_2 C70_2 1_555 1_555
H47_2 C71_2 1_555 1_555
C72_2 C71_2 1_555 1_555
H48_2 C72_2 1_555 1_555
C73_2 O6_2 1_555 1_555
C75_2 C65_2 1_555 1_555
H52_2 C75_2 1_555 1_555
H54_2 C75_2 1_555 1_555
C76_2 O7_2 1_555 1_555
C77_2 C76_2 1_555 1_555
H55_2 C77_2 1_555 1_555
C78_2 C77_2 1_555 1_555
H56_2 C78_2 1_555 1_555
C79_2 C78_2 1_555 1_555
C80_2 C79_2 1_555 1_555
H57_2 C80_2 1_555 1_555
C81_2 C76_2 1_555 1_555
C82_2 C81_2 1_555 1_555
H58_2 C82_2 1_555 1_555
C83_2 N7_2 1_555 1_555
H59_2 C83_2 1_555 1_555
H60_2 C83_2 1_555 1_555
C84_2 C83_2 1_555 1_555
C85_2 N8_2 1_555 1_555
H62_2 C85_2 1_555 1_555
C93_2 C84_2 1_555 1_555
H67_2 C93_2 1_555 1_555
H68_2 C93_2 1_555 1_555
H69_2 C93_2 1_555 1_555
C94_2 C84_2 1_555 1_555
H70_2 C94_2 1_555 1_555
H71_2 C94_2 1_555 1_555
H72_2 C94_2 1_555 1_555
C95_2 O9_2 1_555 1_555
C96_2 C95_2 1_555 1_555
H73_2 C96_2 1_555 1_555
C97_2 C96_2 1_555 1_555
H74_2 C97_2 1_555 1_555
C98_2 C97_2 1_555 1_555
C99_2 C98_2 1_555 1_555
H75_2 C99_2 1_555 1_555
C100_2 C95_2 1_555 1_555
C101_2 C100_2 1_555 1_555
H76_2 C101_2 1_555 1_555
C102_2 N9_2 1_555 1_555
H77_2 C102_2 1_555 1_555
H78_2 C102_2 1_555 1_555
C103_2 C102_2 1_555 1_555
C104_2 N10_2 1_555 1_555
H79_2 C104_2 1_555 1_555
H80_2 C104_2 1_555 1_555
C105_2 N10_2 1_555 1_555
H81_2 C105_2 1_555 1_555
C106_2 C105_2 1_555 1_555
C107_2 C106_2 1_555 1_555
H82_2 C107_2 1_555 1_555
C108_2 C107_2 1_555 1_555
C109_2 C108_2 1_555 1_555
H83_2 C109_2 1_555 1_555
C110_2 C109_2 1_555 1_555
H84_2 C110_2 1_555 1_555
C111_2 O10_2 1_555 1_555
C112_2 C103_2 1_555 1_555
H85_2 C112_2 1_555 1_555
H86_2 C112_2 1_555 1_555
H87_2 C112_2 1_555 1_555
C113_2 C103_2 1_555 1_555
H88_2 C113_2 1_555 1_555
H89_2 C113_2 1_555 1_555
H90_2 C113_2 1_555 1_555
H101_2 C128_2 1_555 1_555
C129_2 C128_2 1_555 1_555
H102_2 C129_2 1_555 1_555
Fe5 C8_2 1_555 1_555
N14_2 C2_2 1_555 1_555
N17_2 C5_2 1_555 1_555
N18_2 C6_2 1_555 1_555
N27_2 C15_2 1_555 1_555
N30_2 C18_2 1_555 1_555
C23_2 C24_2 1_555 1_555
C27_2 C28_2 1_555 1_555
C30_2 C35_2 1_555 1_555
C34_2 C35_2 1_555 1_555
C46_2 C47_2 1_555 1_555
C61_2 C62_2 1_555 1_555
C68_2 C73_2 1_555 1_555
C72_2 C73_2 1_555 1_555
C80_2 C81_2 1_555 1_555
C84_2 C85_2 1_555 1_555
C99_2 C100_2 1_555 1_555
C103_2 C104_2 1_555 1_555
C106_2 C111_2 1_555 1_555
C110_2 C111_2 1_555 1_555
Br4_2 C51_2 1_555 1_555
N4_2 Mn7 1_555 1_555
N24_2 C12_2 1_555 1_555
O3_2 Mn7 1_555 1_555
O4_2 Mn7 1_555 1_555
C9_2 Fe4 1_555 1_555
C12_2 Fe4 1_555 1_555
C38_2 O3_2 1_555 1_555
C39_2 C38_2 1_555 1_555
H19_2 C39_2 1_555 1_555
C40_2 C39_2 1_555 1_555
C41_2 C40_2 1_555 1_555
C42_2 C41_2 1_555 1_555
H21_2 C42_2 1_555 1_555
C43_2 C38_2 1_555 1_555
C48_2 N4_2 1_555 1_555
H27_2 C48_2 1_555 1_555
C49_2 C48_2 1_555 1_555
C50_2 C49_2 1_555 1_555
H28_2 C50_2 1_555 1_555
C51_2 C50_2 1_555 1_555
C52_2 C51_2 1_555 1_555
H29_2 C52_2 1_555 1_555
C53_2 C52_2 1_555 1_555
H30_2 C53_2 1_555 1_555
C54_2 O4_2 1_555 1_555
H43_2 C66_2 1_555 1_555
H44_2 C66_2 1_555 1_555
H49_2 C74_2 1_555 1_555
H50_2 C74_2 1_555 1_555
H51_2 C74_2 1_555 1_555
C134_2 Fe4 1_555 1_555
C42_2 C43_2 1_555 1_555
C49_2 C54_2 1_555 1_555
C53_2 C54_2 1_555 1_555
Br3 C41_3 1_555 1_555
Br4_3 C51_3 1_555 1_555
N4_3 Mn7_2 1_555 1_555
N21_3 C9_3 1_555 1_555
N24_3 C12_3 1_555 1_555
O3_3 Mn7_2 1_555 1_555
O4_3 Mn7_2 1_555 1_555
C9_3 Fe5 1_555 1_555
C12_3 Fe5 1_555 1_555
C38_3 O3_3 1_555 1_555
C39_3 C38_3 1_555 1_555
H19_3 C39_3 1_555 1_555
C40_3 C39_3 1_555 1_555
H20 C40_3 1_555 1_555
C41_3 C40_3 1_555 1_555
C42_3 C41_3 1_555 1_555
H21_3 C42_3 1_555 1_555
C43_3 C38_3 1_555 1_555
C48_3 N4_3 1_555 1_555
H27_3 C48_3 1_555 1_555
C49_3 C48_3 1_555 1_555
C50_3 C49_3 1_555 1_555
H28_3 C50_3 1_555 1_555
C51_3 C50_3 1_555 1_555
C52_3 C51_3 1_555 1_555
H29_3 C52_3 1_555 1_555
C53_3 C52_3 1_555 1_555
H30_3 C53_3 1_555 1_555
C54_3 O4_3 1_555 1_555
H43_3 C66_3 1_555 1_555
H44_3 C66_3 1_555 1_555
H49_3 C74_3 1_555 1_555
H50_3 C74_3 1_555 1_555
H51_3 C74_3 1_555 1_555
C42_3 C43_3 1_555 1_555
C49_3 C54_3 1_555 1_555
C53_3 C54_3 1_555 1_555
Mn3_3 N5_3 1_555 1_555
Mn5_3 N9_3 1_555 1_555
Fe1_3 C1_3 1_555 1_555
Br5_3 C60_3 1_555 1_555
Br6_3 C70_3 1_555 1_555
Br9_3 C98_3 1_555 1_555
Br12_3 C127_3 1_555 1_555
N1_3 C25_3 1_555 1_555
N3_3 C44_3 1_555 1_555
N5_3 C63_3 1_555 1_555
N6_3 Mn3_3 1_555 1_555
N9_3 C101_3 1_555 1_555
N10_3 Mn5_3 1_555 1_555
N15_3 C3_3 1_555 1_555
N16_3 C4_3 1_555 1_555
N17_3 Mn3_3 1_555 1_555
N18_3 Mn5_3 1_555 1_555
N19_3 Mn3_3 1_555 1_555
N23_3 Mn5_3 1_555 1_555
O5_3 Mn3_3 1_555 1_555
O6_3 Mn3_3 1_555 1_555
O9_3 Mn5_3 1_555 1_555
O10_3 Mn5_3 1_555 1_555
C1_3 N13_3 1_555 1_555
C2_3 Fe1_3 1_555 1_555
C3_3 Fe1_3 1_555 1_555
C4_3 Fe1_3 1_555 1_555
C5_3 Fe1_3 1_555 1_555
C6_3 Fe1_3 1_555 1_555
C7_3 N19_3 1_555 1_555
H4_3 C25_3 1_555 1_555
C26_3 N1_3 1_555 1_555
H5_3 C26_3 1_555 1_555
H6_3 C26_3 1_555 1_555
C27_3 C26_3 1_555 1_555
H7_3 C28_3 1_555 1_555
H8_3 C28_3 1_555 1_555
C36_3 C27_3 1_555 1_555
H13_3 C36_3 1_555 1_555
H14_3 C36_3 1_555 1_555
H15_3 C36_3 1_555 1_555
C37_3 C27_3 1_555 1_555
H17_3 C37_3 1_555 1_555
H18_3 C37_3 1_555 1_555
H22_3 C44_3 1_555 1_555
C45_3 N3_3 1_555 1_555
H23_3 C45_3 1_555 1_555
H24_3 C45_3 1_555 1_555
C46_3 C45_3 1_555 1_555
H25_3 C47_3 1_555 1_555
H26_3 C47_3 1_555 1_555
C55_3 C46_3 1_555 1_555
H32_3 C55_3 1_555 1_555
H33_3 C55_3 1_555 1_555
C56_3 C46_3 1_555 1_555
C57_3 O5_3 1_555 1_555
C58_3 C57_3 1_555 1_555
H37_3 C58_3 1_555 1_555
C59_3 C58_3 1_555 1_555
H38_3 C59_3 1_555 1_555
C60_3 C59_3 1_555 1_555
C61_3 C60_3 1_555 1_555
H39_3 C61_3 1_555 1_555
C62_3 C57_3 1_555 1_555
C63_3 C62_3 1_555 1_555
H40_3 C63_3 1_555 1_555
C64_3 N5_3 1_555 1_555
H41_3 C64_3 1_555 1_555
H42_3 C64_3 1_555 1_555
C65_3 C64_3 1_555 1_555
C67_3 N6_3 1_555 1_555
C68_3 C67_3 1_555 1_555
C69_3 C68_3 1_555 1_555
C70_3 C69_3 1_555 1_555
C71_3 C70_3 1_555 1_555
H47_3 C71_3 1_555 1_555
C72_3 C71_3 1_555 1_555
H48_3 C72_3 1_555 1_555
C73_3 O6_3 1_555 1_555
C75_3 C65_3 1_555 1_555
H52_3 C75_3 1_555 1_555
H54_3 C75_3 1_555 1_555
C95_3 O9_3 1_555 1_555
C96_3 C95_3 1_555 1_555
H73_3 C96_3 1_555 1_555
C97_3 C96_3 1_555 1_555
H74_3 C97_3 1_555 1_555
C98_3 C97_3 1_555 1_555
C99_3 C98_3 1_555 1_555
H75_3 C99_3 1_555 1_555
C100_3 C95_3 1_555 1_555
C101_3 C100_3 1_555 1_555
H76_3 C101_3 1_555 1_555
C102_3 N9_3 1_555 1_555
H77_3 C102_3 1_555 1_555
H78_3 C102_3 1_555 1_555
C103_3 C102_3 1_555 1_555
C111_3 O10_3 1_555 1_555
C113_3 C103_3 1_555 1_555
H88_3 C113_3 1_555 1_555
H90_3 C113_3 1_555 1_555
H99_3 C124_3 1_555 1_555
C125_3 C124_3 1_555 1_555
C126_3 C125_3 1_555 1_555
H100_3 C126_3 1_555 1_555
C127_3 C126_3 1_555 1_555
C128_3 C127_3 1_555 1_555
H101_3 C128_3 1_555 1_555
C129_3 C128_3 1_555 1_555
H102_3 C129_3 1_555 1_555
N14_3 C2_3 1_555 1_555
N17_3 C5_3 1_555 1_555
N18_3 C6_3 1_555 1_555
C27_3 C28_3 1_555 1_555
C46_3 C47_3 1_555 1_555
C61_3 C62_3 1_555 1_555
C68_3 C73_3 1_555 1_555
C72_3 C73_3 1_555 1_555
C99_3 C100_3 1_555 1_555
C106_3 C111_3 1_555 1_555
C125_3 C130_3 1_555 1_555
C129_3 C130_3 1_555 1_555
H83_3 C109_3 1_555 1_555
C110_3 C109_3 1_555 1_555
H84_3 C110_3 1_555 1_555
Mn4_3 N7_3 1_555 1_555
Mn6_3 N11_3 1_555 1_555
Fe3_3 C13_3 1_555 1_555
Br1_2 C22_3 1_555 1_555
Br2_3 C32_3 1_555 1_555
Br7_3 C79_3 1_555 1_555
Br8_2 C89_2 1_555 1_555
Br11_3 C117_3 1_555 1_555
N2_3 Mn1_3 1_555 1_555
N7_3 C82_3 1_555 1_555
N8_3 Mn4_3 1_555 1_555
N11_3 C120_3 1_555 1_555
N12_3 Mn6_3 1_555 1_555
N20_3 Mn4_3 1_555 1_555
N22_3 Mn6_3 1_555 1_555
N25_3 C13_3 1_555 1_555
N26_3 Mn6_3 1_555 1_555
N27_3 Mn4_3 1_555 1_555
N28_3 C16_3 1_555 1_555
N31 C17_3 1_555 1_555
N30_3 Mn1_3 1_555 1_555
O1_3 Mn1_3 1_555 1_555
O2_3 Mn1_3 1_555 1_555
O7_3 Mn4_3 1_555 1_555
O8_3 Mn4_3 1_555 1_555
O11_3 Mn6_3 1_555 1_555
O12_3 Mn6_3 1_555 1_555
C133 N20_3 1_555 1_555
C134_2 N22_3 1_555 1_555
C14_3 Fe3_3 1_555 1_555
C15_3 Fe3_3 1_555 1_555
C16_3 Fe3_3 1_555 1_555
C17_3 Fe3_3 1_555 1_555
C18_3 Fe3_3 1_555 1_555
C19_3 O1_3 1_555 1_555
C20_3 C19_3 1_555 1_555
H1_3 C20_3 1_555 1_555
C21_3 C20_3 1_555 1_555
H2_2 C21_3 1_555 1_555
C22_3 C21_3 1_555 1_555
C23_3 C22_3 1_555 1_555
H3_3 C23_3 1_555 1_555
C24_3 C19_3 1_555 1_555
C29_3 N2_3 1_555 1_555
H9_3 C29_3 1_555 1_555
C30_3 C29_3 1_555 1_555
C31_3 C30_3 1_555 1_555
H10_3 C31_3 1_555 1_555
C32_3 C31_3 1_555 1_555
C33_3 C32_3 1_555 1_555
H11_3 C33_3 1_555 1_555
C34_3 C33_3 1_555 1_555
H12_3 C34_3 1_555 1_555
C35_3 O2_3 1_555 1_555
C76_3 O7_3 1_555 1_555
C77_3 C76_3 1_555 1_555
H55_3 C77_3 1_555 1_555
C78_3 C77_3 1_555 1_555
H56_3 C78_3 1_555 1_555
C79_3 C78_3 1_555 1_555
C80_3 C79_3 1_555 1_555
H57_3 C80_3 1_555 1_555
C81_3 C76_3 1_555 1_555
C82_3 C81_3 1_555 1_555
H58_3 C82_3 1_555 1_555
C83_3 N7_3 1_555 1_555
H59_3 C83_3 1_555 1_555
H60_3 C83_3 1_555 1_555
C84_3 C83_3 1_555 1_555
C85_3 N8_3 1_555 1_555
H61_2 C85_3 1_555 1_555
H62_3 C85_3 1_555 1_555
C86_2 N8_3 1_555 1_555
H63_2 C86_2 1_555 1_555
C87_2 C86_2 1_555 1_555
C88_2 C87_2 1_555 1_555
H64_2 C88_2 1_555 1_555
C89_2 C88_2 1_555 1_555
C90_2 C89_2 1_555 1_555
H65_2 C90_2 1_555 1_555
C91_2 C90_2 1_555 1_555
H66_2 C91_2 1_555 1_555
C92_2 O8_3 1_555 1_555
C93_3 C84_3 1_555 1_555
H67_3 C93_3 1_555 1_555
H68_3 C93_3 1_555 1_555
H69_3 C93_3 1_555 1_555
C94_3 C84_3 1_555 1_555
H70_3 C94_3 1_555 1_555
H71_3 C94_3 1_555 1_555
H72_3 C94_3 1_555 1_555
H79_3 C104_3 1_555 1_555
H80_3 C104_3 1_555 1_555
H81_3 C105_3 1_555 1_555
H82_3 C107_3 1_555 1_555
H85_3 C112_3 1_555 1_555
H86_3 C112_3 1_555 1_555
H87_3 C112_3 1_555 1_555
C114_3 O11_3 1_555 1_555
C115_3 C114_3 1_555 1_555
H91_3 C115_3 1_555 1_555
C116_3 C115_3 1_555 1_555
H92_3 C116_3 1_555 1_555
C117_3 C116_3 1_555 1_555
C118_3 C117_3 1_555 1_555
H93_3 C118_3 1_555 1_555
C119_3 C114_3 1_555 1_555
C120_3 C119_3 1_555 1_555
H94_3 C120_3 1_555 1_555
C121_3 N11_3 1_555 1_555
H95_3 C121_3 1_555 1_555
H96_3 C121_3 1_555 1_555
C122_3 C121_3 1_555 1_555
C123_3 N12_3 1_555 1_555
H98_3 C123_3 1_555 1_555
C131_3 C122_3 1_555 1_555
H103_3 C131_3 1_555 1_555
H104_3 C131_3 1_555 1_555
H105_3 C131_3 1_555 1_555
C132_3 C122_3 1_555 1_555
H106_3 C132_3 1_555 1_555
H107_3 C132_3 1_555 1_555
H108_3 C132_3 1_555 1_555
N26_3 C14_3 1_555 1_555
N27_3 C15_3 1_555 1_555
N30_3 C18_3 1_555 1_555
C23_3 C24_3 1_555 1_555
C30_3 C35_3 1_555 1_555
C34_3 C35_3 1_555 1_555
C80_3 C81_3 1_555 1_555
C84_3 C85_3 1_555 1_555
C87_2 C92_2 1_555 1_555
C91_2 C92_2 1_555 1_555
C118_3 C119_3 1_555 1_555
C122_3 C123_3 1_555 1_555
Br8_3 C89_3 1_555 1_555
H63_3 C86_3 1_555 1_555
C87_3 C86_3 1_555 1_555
C88_3 C87_3 1_555 1_555
H64_3 C88_3 1_555 1_555
C89_3 C88_3 1_555 1_555
C90_3 C89_3 1_555 1_555
H65_3 C90_3 1_555 1_555
C91_3 C90_3 1_555 1_555
H66_3 C91_3 1_555 1_555
C87_3 C92_3 1_555 1_555
C91_3 C92_3 1_555 1_555
N32 C136 1_555 1_555
C136 H109 1_555 1_555
H110 C136 1_555 1_555
C137 C136 1_555 1_555
H111 C137 1_555 1_555
H112 C137 1_555 1_555
H113 C137 1_555 1_555
C138 N32 1_555 1_555
H115 C138 1_555 1_555
C139 C138 1_555 1_555
H116 C139 1_555 1_555
H117 C139 1_555 1_555
H118 C139 1_555 1_555
C140 N32 1_555 1_555
H119 C140 1_555 1_555
H120 C140 1_555 1_555
C141 C140 1_555 1_555
H121 C141 1_555 1_555
H122 C141 1_555 1_555
H123 C141 1_555 1_555
C142 N32 1_555 1_555
H125 C142 1_555 1_555
C143 C142 1_555 1_555
H126 C143 1_555 1_555
H127 C143 1_555 1_555
H128 C143 1_555 1_555
N32_2 C136_2 1_555 1_555
C136_2 H109_2 1_555 1_555
H110_2 C136_2 1_555 1_555
C137_2 C136_2 1_555 1_555
H111_2 C137_2 1_555 1_555
H112_2 C137_2 1_555 1_555
H113_2 C137_2 1_555 1_555
C138_2 N32_2 1_555 1_555
H115_2 C138_2 1_555 1_555
C139_2 C138_2 1_555 1_555
H117_2 C139_2 1_555 1_555
C140_2 N32_2 1_555 1_555
H120_2 C140_2 1_555 1_555
C141_2 C140_2 1_555 1_555
H121_2 C141_2 1_555 1_555
H122_2 C141_2 1_555 1_555
H123_2 C141_2 1_555 1_555
C142_2 N32_2 1_555 1_555
H125_2 C142_2 1_555 1_555
C143_2 C142_2 1_555 1_555
H126_2 C143_2 1_555 1_555
H127_2 C143_2 1_555 1_555
H128_2 C143_2 1_555 1_555
H120_3 C140_3 1_555 1_555
C141_3 C140_3 1_555 1_555
H121_3 C141_3 1_555 1_555
H122_3 C141_3 1_555 1_555
H123_3 C141_3 1_555 1_555
H126_3 C143_3 1_555 1_555
H127_3 C143_3 1_555 1_555
H128_3 C143_3 1_555 1_555
N32_3 C136_3 1_555 1_555
C136_3 H109_3 1_555 1_555
H110_3 C136_3 1_555 1_555
C137_3 C136_3 1_555 1_555
H111_3 C137_3 1_555 1_555
H112_3 C137_3 1_555 1_555
H113_3 C137_3 1_555 1_555
C138_3 N32_3 1_555 1_555
H114_3 C138_3 1_555 1_555
H115_3 C138_3 1_555 1_555
C139_3 C138_3 1_555 1_555
H117_3 C139_3 1_555 1_555
C142_3 N32_3 1_555 1_555
H125_3 C142_3 1_555 1_555
H134 C146 1_555 1_555
C147 C146 1_555 1_555
H136 C147 1_555 1_555
H137 C147 1_555 1_555
H138 C147 1_555 1_555
H140 C148 1_555 1_555
C149 C148 1_555 1_555
H141 C149 1_555 1_555
H142 C149 1_555 1_555
H143 C149 1_555 1_555
N33 C144 1_555 1_555
C144 H129 1_555 1_555
H130 C144 1_555 1_555
C145 C144 1_555 1_555
H131 C145 1_555 1_555
H132 C145 1_555 1_555
H133 C145 1_555 1_555
C150 N33 1_555 1_555
H144 C150 1_555 1_555
H145 C150 1_555 1_555
C151 C150 1_555 1_555
H146 C151 1_555 1_555
H147 C151 1_555 1_555
H148 C151 1_555 1_555
N33_2 C144_2 1_555 1_555
C144_2 H129_2 1_555 1_555
H130_2 C144_2 1_555 1_555
C145_2 C144_2 1_555 1_555
H131_2 C145_2 1_555 1_555
H132_2 C145_2 1_555 1_555
H133_2 C145_2 1_555 1_555
C146_2 N33_2 1_555 1_555
H134_2 C146_2 1_555 1_555
H135_2 C146_2 1_555 1_555
C147_2 C146_2 1_555 1_555
H136_2 C147_2 1_555 1_555
H137_2 C147_2 1_555 1_555
H138_2 C147_2 1_555 1_555
C148_2 N33_2 1_555 1_555
H139_2 C148_2 1_555 1_555
H140_2 C148_2 1_555 1_555
C149_2 C148_2 1_555 1_555
H141_2 C149_2 1_555 1_555
H142_2 C149_2 1_555 1_555
H143_2 C149_2 1_555 1_555
C150_2 N33_2 1_555 1_555
H144_2 C150_2 1_555 1_555
H145_2 C150_2 1_555 1_555
C151_2 C150_2 1_555 1_555
H146_2 C151_2 1_555 1_555
H147_2 C151_2 1_555 1_555
H148_2 C151_2 1_555 1_555
N33_3 C144_3 1_555 1_555
C144_3 H129_3 1_555 1_555
H130_3 C144_3 1_555 1_555
C145_3 C144_3 1_555 1_555
H131_3 C145_3 1_555 1_555
H132_3 C145_3 1_555 1_555
H133_3 C145_3 1_555 1_555
C146_3 N33_3 1_555 1_555
H134_3 C146_3 1_555 1_555
H135_3 C146_3 1_555 1_555
C147_3 C146_3 1_555 1_555
H136_3 C147_3 1_555 1_555
H137_3 C147_3 1_555 1_555
H138_3 C147_3 1_555 1_555
C148_3 N33_3 1_555 1_555
H139_3 C148_3 1_555 1_555
H140_3 C148_3 1_555 1_555
C149_3 C148_3 1_555 1_555
H141_3 C149_3 1_555 1_555
H142_3 C149_3 1_555 1_555
H143_3 C149_3 1_555 1_555
C150_3 N33_3 1_555 1_555
H144_3 C150_3 1_555 1_555
H145_3 C150_3 1_555 1_555
C151_3 C150_3 1_555 1_555
H146_3 C151_3 1_555 1_555
H147_3 C151_3 1_555 1_555
H148_3 C151_3 1_555 1_555
N34 C152 1_555 1_555
C152 H149 1_555 1_555
H150 C152 1_555 1_555
C153 C152 1_555 1_555
H151 C153 1_555 1_555
H152 C153 1_555 1_555
H153 C153 1_555 1_555
C154 N34 1_555 1_555
H154 C154 1_555 1_555
H155 C154 1_555 1_555
C155 C154 1_555 1_555
H156 C155 1_555 1_555
H157 C155 1_555 1_555
H158 C155 1_555 1_555
C156 N34 1_555 1_555
H159 C156 1_555 1_555
H160 C156 1_555 1_555
C157 C156 1_555 1_555
H161 C157 1_555 1_555
H162 C157 1_555 1_555
H163 C157 1_555 1_555
C158 N34 1_555 1_555
H164 C158 1_555 1_555
H165 C158 1_555 1_555
C159 C158 1_555 1_555
H166 C159 1_555 1_555
H167 C159 1_555 1_555
H168 C159 1_555 1_555
N34_2 C152_2 1_555 1_555
C152_2 H149_2 1_555 1_555
H150_2 C152_2 1_555 1_555
C153_2 C152_2 1_555 1_555
H151_2 C153_2 1_555 1_555
H152_2 C153_2 1_555 1_555
H153_2 C153_2 1_555 1_555
C154_2 N34_2 1_555 1_555
H154_2 C154_2 1_555 1_555
H155_2 C154_2 1_555 1_555
C155_2 C154_2 1_555 1_555
H156_2 C155_2 1_555 1_555
H157_2 C155_2 1_555 1_555
H158_2 C155_2 1_555 1_555
C156_2 N34_2 1_555 1_555
H159_2 C156_2 1_555 1_555
H160_2 C156_2 1_555 1_555
C157_2 C156_2 1_555 1_555
H161_2 C157_2 1_555 1_555
H162_2 C157_2 1_555 1_555
H163_2 C157_2 1_555 1_555
C158_2 N34_2 1_555 1_555
H164_2 C158_2 1_555 1_555
H165_2 C158_2 1_555 1_555
C159_2 C158_2 1_555 1_555
H166_2 C159_2 1_555 1_555
H167_2 C159_2 1_555 1_555
H168_2 C159_2 1_555 1_555
C152_3 H149_3 1_555 1_555
C153_3 C152_3 1_555 1_555
H151_3 C153_3 1_555 1_555
H152_3 C153_3 1_555 1_555
H153_3 C153_3 1_555 1_555
H165_3 C158_3 1_555 1_555
C159_3 C158_3 1_555 1_555
H166_3 C159_3 1_555 1_555
H167_3 C159_3 1_555 1_555
H168_3 C159_3 1_555 1_555
C154_3 N34_3 1_555 1_555
H154_3 C154_3 1_555 1_555
H155_3 C154_3 1_555 1_555
C155_3 C154_3 1_555 1_555
H156_3 C155_3 1_555 1_555
H157_3 C155_3 1_555 1_555
H158_3 C155_3 1_555 1_555
C156_3 N34_3 1_555 1_555
H159_3 C156_3 1_555 1_555
H160_3 C156_3 1_555 1_555
C157_3 C156_3 1_555 1_555
H161_3 C157_3 1_555 1_555
H162_3 C157_3 1_555 1_555
H163_3 C157_3 1_555 1_555

#END
