
###############################################################################
#
# This file contains modified crystal structure data generated from the
# MOF subset of the Cambridge Structural Database (CSD) v543 
# hosted by the Cambridge Crystallographic Data Centre (CCDC).
#
# This work is licensed under the Creative Commons
# Attribution-NonCommercial-ShareAlike 4.0 International License.
# To view a copy of this license, visit
# http://creativecommons.org/licenses/by-nc-sa/4.0/
# or send a letter to
# Creative Commons, PO Box 1866, Mountain View, CA 94042, USA.
#
# CIF created using the CSD Python API on 29 September 2022
# The structure has been converted into the P1 space group
# The structure has a 3D framework
# The original CSD entry CELJUA is in the tetragonal crystal system
# The original CSD entry CELJUA is in a Sohncke space group
# The framework has been calculated to contain at least 10.0% void space
# The void calculation uses a probe of radius 1.32A, grid spacing 0.4
# The framework is charged, counterions have been retained in the structure
#
###############################################################################

data_CELJUA
_chemical_formula_moiety         '(C112 H96 Cu4 N16 O48 4-)n'
_symmetry_cell_setting           triclinic
_symmetry_space_group_name_H-M   'P 1'
_symmetry_Int_Tables_number      1
_space_group_name_Hall           'P 1'
loop_
_symmetry_equiv_pos_site_id
_symmetry_equiv_pos_as_xyz
1 x,y,z
_cell_length_a                   8.5721(10)
_cell_length_b                   8.5721(10)
_cell_length_c                   43.284(7)
_cell_angle_alpha                90
_cell_angle_beta                 90
_cell_angle_gamma                90
_cell_volume                     3180.55
loop_
_atom_site_label
_atom_site_type_symbol
_atom_site_fract_x
_atom_site_fract_y
_atom_site_fract_z
Cu3 Cu 0.47673(7) 0.15887(6) 0.857642(12)
N2 N 0.1418(4) 0.4310(4) 0.09772(8)
C3 C 0.0822(5) 0.3623(5) 0.00049(10)
C6 C 0.1061(5) 0.3835(5) 0.03471(10)
C7 C 0.2238(5) 0.5122(5) 0.07716(10)
H7 H 0.2958 0.5879 0.0845
C8 C 0.2094(5) 0.4917(5) 0.04607(10)
H8 H 0.2707 0.5522 0.0323
C9 C 0.0240(5) 0.2967(5) 0.05583(9)
C10 C 0.0462(5) 0.3227(5) 0.08676(9)
Cu2 Cu 0.15887(6) 0.47673(7) 0.142358(12)
N1 N 0.0303(4) 0.3347(4) 0.93719(7)
O1 O 0.2293(4) 0.3820(3) 0.87989(6)
O2 O 0.4553(3) 0.9327(3) 0.85430(6)
O3 O 0.2271(4) 0.9431(4) 0.82995(7)
H1 H 0.2204 0.9256 0.8109
O4 O 0.2435(3) 0.6946(3) 0.89054(7)
H2 H 0.1566 0.6518 0.8876
O5 O 0.4633(4) 0.3845(3) 0.85750(6)
O6 O 0.2054(4) 0.6367(3) 0.82328(7)
C4 C 0.1647(5) 0.4520(5) 0.97933(9)
H5 H 0.2410 0.5244 0.9862
C5 C 0.1347(5) 0.4352(5) 0.94825(10)
H6 H 0.1912 0.4981 0.9341
C11 C 0.3410(6) 0.8719(6) 0.84068(10)
C12 C 0.3391(6) 0.6923(5) 0.83816(9)
H11 H 0.4323 0.6590 0.8259
C13 C 0.3553(6) 0.6269(5) 0.87101(9)
H12 H 0.4610 0.6559 0.8789
C14 C 0.3457(6) 0.4488(5) 0.86970(10)
Cu1 Cu 0.97673(7) 0.34113(6) 0.892358(12)
C1 C 0.9554(6) 0.2445(5) 0.95727(9)
H3 H 0.8831 0.1700 0.9496
C2 C 0.9775(5) 0.2541(5) 0.98848(9)
N3 N 0.9310(4) 0.3582(4) 0.84772(8)
O7 O 0.9553(3) 0.5673(3) 0.89570(6)
O8 O 0.9633(4) 0.1155(3) 0.89250(6)
N1_2 N 0.1653(4) 0.5303(4) 0.18719(7)
N2_2 N 0.0690(4) 0.6418(4) 0.34772(8)
O1_2 O 0.1180(3) 0.7293(4) 0.12989(6)
O5_2 O 0.1155(3) 0.9633(4) 0.10750(6)
C1_2 C 0.2555(5) 0.4554(6) 0.20727(9)
H3_2 H 0.3300 0.3831 0.1996
C2_2 C 0.2459(5) 0.4775(5) 0.23848(9)
H4 H 0.3131 0.4215 0.2520
C3_2 C 0.1377(5) 0.5822(5) 0.25049(10)
C4_2 C 0.0480(5) 0.6647(5) 0.22933(9)
C5_2 C 0.0648(5) 0.6347(5) 0.19825(10)
H6_2 H 0.0019 0.6912 0.1841
C6_2 C 0.1165(5) 0.6061(5) 0.28471(10)
C8_2 C 0.0083(5) 0.7094(5) 0.29607(10)
C9_2 C 0.2033(5) 0.5240(5) 0.30583(9)
H9 H 0.2807 0.4523 0.2991
C10_2 C 0.1773(5) 0.5462(5) 0.33676(9)
H10 H 0.2401 0.4904 0.3511
C14_2 C 0.0512(5) 0.8457(6) 0.11970(10)
Cu2_2 Cu 0.02327(7) 0.65887(6) 0.392358(12)
Cu4 Cu 0.34113(6) 0.97673(7) 0.107642(12)
O8_2 O 0.3845(3) 0.4633(4) 0.14250(6)
O2_2 O 0.5673(3) 0.9553(3) 0.10430(6)
O3_2 O 0.5569(4) 0.7271(4) 0.07995(7)
H1_2 H 0.5744 0.7204 0.0609
O4_2 O 0.8054(3) 0.7435(3) 0.14054(7)
H2_2 H 0.8482 0.6566 0.1376
O6_2 O 0.8633(3) 0.7054(4) 0.07328(7)
H5_2 H 0.9756 0.7410 0.2362
C7_2 C 0.9878(5) 0.7238(5) 0.32716(10)
H7_2 H 0.9121 0.7958 0.3345
H8_2 H 0.9478 0.7707 0.2823
C11_2 C 0.6281(6) 0.8410(6) 0.09068(10)
C12_2 C 0.8077(5) 0.8391(6) 0.08816(9)
H11_2 H 0.8410 0.9323 0.0759
C13_2 C 0.8731(5) 0.8553(6) 0.12101(9)
H12_2 H 0.8441 0.9610 0.1289
O7_2 O 0.9327(3) 0.4553(3) 0.14570(6)
O2_3 O 0.4327(3) 0.0447(3) 0.60430(6)
O3_3 O 0.4431(4) 0.2729(4) 0.57995(7)
H1_3 H 0.4256 0.2796 0.5609
O4_3 O 0.1946(3) 0.2565(3) 0.64054(7)
H2_3 H 0.1518 0.3434 0.6376
O6_3 O 0.1367(3) 0.2946(4) 0.57328(7)
H5_3 H 0.0244 0.2590 0.7362
C7_3 C 0.0122(5) 0.2762(5) 0.82716(10)
H7_3 H 0.0879 0.2042 0.8345
H8_3 H 0.0522 0.2293 0.7823
C11_3 C 0.3719(6) 0.1590(6) 0.59068(10)
C12_3 C 0.1923(5) 0.1609(6) 0.58816(9)
H11_3 H 0.1590 0.0677 0.5759
C13_3 C 0.1269(5) 0.1447(6) 0.62101(9)
H12_3 H 0.1559 0.0390 0.6289
Cu3_2 Cu 0.65887(6) 0.02327(7) 0.607642(12)
O7_3 O 0.0673(3) 0.5447(3) 0.64570(6)
Cu1_2 Cu 0.84113(6) 0.52327(7) 0.642358(12)
N1_3 N 0.8347(4) 0.4697(4) 0.68719(7)
O1_3 O 0.8820(3) 0.2707(4) 0.62989(6)
O5_3 O 0.8845(3) 0.0367(4) 0.60750(6)
C1_3 C 0.7445(5) 0.5446(6) 0.70727(9)
H3_3 H 0.6700 0.6169 0.6996
C2_3 C 0.7541(5) 0.5225(5) 0.73848(9)
H4_2 H 0.6869 0.5785 0.7520
C3_3 C 0.8623(5) 0.4178(5) 0.75049(10)
C4_3 C 0.9520(5) 0.3353(5) 0.72933(9)
C5_3 C 0.9352(5) 0.3653(5) 0.69825(10)
H6_3 H 0.9981 0.3088 0.6841
C6_3 C 0.8835(5) 0.3939(5) 0.78471(10)
C8_3 C 0.9917(5) 0.2906(5) 0.79607(10)
C9_3 C 0.7967(5) 0.4760(5) 0.80583(9)
H9_2 H 0.7193 0.5477 0.7991
C10_3 C 0.8227(5) 0.4538(5) 0.83676(9)
H10_2 H 0.7599 0.5096 0.8511
C14_3 C 0.9488(5) 0.1543(6) 0.61970(10)
N3_2 N 0.8582(4) 0.5690(4) 0.59772(8)
O8_3 O 0.6155(3) 0.5367(4) 0.64250(6)
N1_4 N 0.5303(4) 0.1653(4) 0.81281(7)
N2_3 N 0.6418(4) 0.0690(4) 0.65228(8)
O1_4 O 0.7293(4) 0.1180(3) 0.87011(6)
C1_4 C 0.4554(6) 0.2555(5) 0.79273(9)
H3_4 H 0.3831 0.3300 0.8004
C2_4 C 0.4775(5) 0.2459(5) 0.76152(9)
H4_3 H 0.4215 0.3131 0.7480
C3_4 C 0.5822(5) 0.1377(5) 0.74951(10)
C4_4 C 0.6647(5) 0.0480(5) 0.77067(9)
C5_4 C 0.6347(5) 0.0648(5) 0.80175(10)
H6_4 H 0.6912 0.0019 0.8159
C6_4 C 0.6061(5) 0.1165(5) 0.71529(10)
C8_4 C 0.7094(5) 0.0083(5) 0.70393(10)
C9_4 C 0.5240(5) 0.2033(5) 0.69417(9)
H9_3 H 0.4523 0.2807 0.7009
C10_4 C 0.5462(5) 0.1773(5) 0.66324(9)
H10_3 H 0.4904 0.2401 0.6489
C14_4 C 0.8457(6) 0.0512(5) 0.88030(10)
N3_3 N 0.4310(4) 0.1418(4) 0.90228(8)
O3_4 O 0.7271(4) 0.5569(4) 0.92005(7)
H1_4 H 0.7204 0.5744 0.9391
O4_4 O 0.7435(3) 0.8054(3) 0.85946(7)
H2_4 H 0.6566 0.8482 0.8624
O6_4 O 0.7054(4) 0.8633(3) 0.92672(7)
H5_4 H 0.7410 0.9756 0.7638
C7_4 C 0.7238(5) 0.9878(5) 0.67284(10)
H7_4 H 0.7958 0.9121 0.6655
H8_4 H 0.7707 0.9478 0.7177
C11_4 C 0.8410(6) 0.6281(6) 0.90932(10)
C12_4 C 0.8391(6) 0.8077(5) 0.91184(9)
H11_4 H 0.9323 0.8410 0.9241
C13_4 C 0.8553(6) 0.8731(5) 0.87899(9)
H12_4 H 0.9610 0.8441 0.8711
O2_4 O 0.0447(3) 0.4327(3) 0.39570(6)
O3_5 O 0.2729(4) 0.4431(4) 0.42005(7)
H1_5 H 0.2796 0.4256 0.4391
O4_5 O 0.2565(3) 0.1946(3) 0.35946(7)
H2_5 H 0.3434 0.1518 0.3624
O6_5 O 0.2946(4) 0.1367(3) 0.42672(7)
H5_5 H 0.2590 0.0244 0.2638
C7_5 C 0.2762(5) 0.0122(5) 0.17284(10)
H7_5 H 0.2042 0.0879 0.1655
H8_5 H 0.2293 0.0522 0.2177
C11_5 C 0.1590(6) 0.3719(6) 0.40932(10)
C12_5 C 0.1609(6) 0.1923(5) 0.41184(9)
H11_5 H 0.0677 0.1590 0.4241
C13_5 C 0.1447(6) 0.1269(5) 0.37899(9)
H12_5 H 0.0390 0.1559 0.3711
O7_4 O 0.5447(3) 0.0673(3) 0.35430(6)
Cu1_3 Cu 0.52327(7) 0.84113(6) 0.357642(12)
N1_5 N 0.4697(4) 0.8347(4) 0.31281(7)
N2_4 N 0.3582(4) 0.9310(4) 0.15228(8)
O1_5 O 0.2707(4) 0.8820(3) 0.37011(6)
O5_4 O 0.0367(4) 0.8845(3) 0.39250(6)
C1_5 C 0.5446(6) 0.7445(5) 0.29273(9)
H3_5 H 0.6169 0.6700 0.3004
C2_5 C 0.5225(5) 0.7541(5) 0.26152(9)
H4_4 H 0.5785 0.6869 0.2480
C3_5 C 0.4178(5) 0.8623(5) 0.24951(10)
C4_5 C 0.3353(5) 0.9520(5) 0.27067(9)
C5_5 C 0.3653(5) 0.9352(5) 0.30175(10)
H6_5 H 0.3088 0.9981 0.3159
C6_5 C 0.3939(5) 0.8835(5) 0.21529(10)
C8_5 C 0.2906(5) 0.9917(5) 0.20393(10)
C9_5 C 0.4760(5) 0.7967(5) 0.19417(9)
H9_4 H 0.5477 0.7193 0.2009
C10_5 C 0.4538(5) 0.8227(5) 0.16324(9)
H10_4 H 0.5096 0.7599 0.1489
C14_5 C 0.1543(6) 0.9488(5) 0.38030(10)
N3_4 N 0.5690(4) 0.8582(4) 0.40228(8)
O8_4 O 0.5367(4) 0.6155(3) 0.35750(6)
C1_6 C 0.0446(6) 0.7555(5) 0.45727(9)
H3_6 H 0.1169 0.8300 0.4496
C2_6 C 0.0225(5) 0.7459(5) 0.48848(9)
H4_5 H 0.0785 0.8131 0.5020
H9_5 H 0.0477 0.7807 0.5491
H10_5 H 0.0096 0.7401 0.6011
N1_6 N 0.9697(4) 0.6653(4) 0.43719(7)
O1_6 O 0.7707(4) 0.6180(3) 0.37989(6)
O3_6 O 0.7729(4) 0.0569(4) 0.32995(7)
H1_6 H 0.7796 0.0744 0.3109
O4_6 O 0.7565(3) 0.3054(3) 0.39054(7)
H2_6 H 0.8434 0.3482 0.3876
O6_6 O 0.7946(4) 0.3633(3) 0.32328(7)
C3_6 C 0.9178(5) 0.6377(5) 0.50049(10)
C4_6 C 0.8353(5) 0.5480(5) 0.47933(9)
H5_6 H 0.7590 0.4756 0.4862
C5_6 C 0.8653(5) 0.5648(5) 0.44825(10)
H6_6 H 0.8088 0.5019 0.4341
C6_6 C 0.8939(5) 0.6165(5) 0.53471(10)
C7_6 C 0.7762(5) 0.4878(5) 0.57716(10)
H7_6 H 0.7042 0.4121 0.5845
C8_6 C 0.7906(5) 0.5083(5) 0.54607(10)
H8_6 H 0.7293 0.4478 0.5323
C9_6 C 0.9760(5) 0.7033(5) 0.55583(9)
C10_6 C 0.9538(5) 0.6773(5) 0.58676(9)
C11_6 C 0.6590(6) 0.1281(6) 0.34068(10)
C12_6 C 0.6609(6) 0.3077(5) 0.33816(9)
H11_6 H 0.5677 0.3410 0.3259
C13_6 C 0.6447(6) 0.3731(5) 0.37101(9)
H12_6 H 0.5390 0.3441 0.3789
C14_6 C 0.6543(6) 0.5512(5) 0.36970(10)
N1_7 N 0.3347(4) 0.0303(4) 0.06281(7)
O1_7 O 0.3820(3) 0.2293(4) 0.12011(6)
O3_7 O 0.9431(4) 0.2271(4) 0.17005(7)
H1_7 H 0.9256 0.2204 0.1891
O4_7 O 0.6946(3) 0.2435(3) 0.10946(7)
H2_7 H 0.6518 0.1566 0.1124
O6_7 O 0.6367(3) 0.2054(4) 0.17672(7)
C4_7 C 0.4520(5) 0.1647(5) 0.02067(9)
H5_7 H 0.5244 0.2410 0.0138
C5_7 C 0.4352(5) 0.1347(5) 0.05175(10)
H6_7 H 0.4981 0.1912 0.0659
C11_7 C 0.8719(6) 0.3410(6) 0.15932(10)
C12_7 C 0.6923(5) 0.3391(6) 0.16184(9)
H11_7 H 0.6590 0.4323 0.1741
C13_7 C 0.6269(5) 0.3553(6) 0.12899(9)
H12_7 H 0.6559 0.4610 0.1211
C14_7 C 0.4488(5) 0.3457(6) 0.13030(10)
C3_7 C 0.3623(5) 0.0822(5) 0.99951(10)
C6_7 C 0.3835(5) 0.1061(5) 0.96529(10)
C7_7 C 0.5122(5) 0.2238(5) 0.92284(10)
H7_7 H 0.5879 0.2958 0.9155
C8_7 C 0.4917(5) 0.2094(5) 0.95393(10)
H8_7 H 0.5522 0.2707 0.9677
C9_7 C 0.2967(5) 0.0240(5) 0.94417(9)
C10_7 C 0.3227(5) 0.0462(5) 0.91324(9)
C1_7 C 0.2445(5) 0.9554(6) 0.04273(9)
H3_7 H 0.1700 0.8831 0.0504
C2_7 C 0.2541(5) 0.9775(5) 0.01152(9)
C1_8 C 0.7555(5) 0.0446(6) 0.54273(9)
H3_8 H 0.8300 0.1169 0.5504
C2_8 C 0.7459(5) 0.0225(5) 0.51152(9)
H4_6 H 0.8131 0.0785 0.4980
H9_6 H 0.7807 0.0477 0.4509
H10_6 H 0.7401 0.0096 0.3989
N1_8 N 0.6653(4) 0.9697(4) 0.56281(7)
O1_8 O 0.6180(3) 0.7707(4) 0.62011(6)
O3_8 O 0.0569(4) 0.7729(4) 0.67005(7)
H1_8 H 0.0744 0.7796 0.6891
O4_8 O 0.3054(3) 0.7565(3) 0.60946(7)
H2_8 H 0.3482 0.8434 0.6124
O6_8 O 0.3633(3) 0.7946(4) 0.67672(7)
C3_8 C 0.6377(5) 0.9178(5) 0.49951(10)
C4_8 C 0.5480(5) 0.8353(5) 0.52067(9)
H5_8 H 0.4756 0.7590 0.5138
C5_8 C 0.5648(5) 0.8653(5) 0.55175(10)
H6_8 H 0.5019 0.8088 0.5659
C6_8 C 0.6165(5) 0.8939(5) 0.46529(10)
C7_8 C 0.4878(5) 0.7762(5) 0.42284(10)
H7_8 H 0.4121 0.7042 0.4155
C8_8 C 0.5083(5) 0.7906(5) 0.45393(10)
H8_8 H 0.4478 0.7293 0.4677
C9_8 C 0.7033(5) 0.9760(5) 0.44417(9)
C10_8 C 0.6773(5) 0.9538(5) 0.41324(9)
C11_8 C 0.1281(6) 0.6590(6) 0.65932(10)
C12_8 C 0.3077(5) 0.6609(6) 0.66184(9)
H11_8 H 0.3410 0.5677 0.6741
C13_8 C 0.3731(5) 0.6447(6) 0.62899(9)
H12_8 H 0.3441 0.5390 0.6211
C14_8 C 0.5512(5) 0.6543(6) 0.63030(10)
H4_7 H 0.9215 0.1869 0.0020
H9_7 H 0.9523 0.2193 0.0491
H10_7 H 0.9904 0.2599 0.1011
H4_8 H 0.1869 0.9215 0.9980
H9_8 H 0.2193 0.9523 0.9509
H10_8 H 0.2599 0.9904 0.8989
loop_
_geom_bond_atom_site_label_1
_geom_bond_atom_site_label_2
_geom_bond_site_symmetry_1
_geom_bond_site_symmetry_2
N2 C7 1_555 1_555
C6 C3 1_555 1_555
C7 H7 1_555 1_555
C8 C6 1_555 1_555
H8 C8 1_555 1_555
C9 C6 1_555 1_555
C10 N2 1_555 1_555
Cu2 N2 1_555 1_555
C7 C8 1_555 1_555
C9 C10 1_555 1_555
O2 C11 1_555 1_555
O3 H1 1_555 1_555
O4 H2 1_555 1_555
O5 C14 1_555 1_555
O6 C12 1_555 1_555
H5 C4 1_555 1_555
C5 N1 1_555 1_555
H6 C5 1_555 1_555
C11 O3 1_555 1_555
C12 C11 1_555 1_555
H11 C12 1_555 1_555
C13 O4 1_555 1_555
H12 C13 1_555 1_555
C14 O1 1_555 1_555
Cu3 O5 1_555 1_555
C4 C5 1_555 1_555
C12 C13 1_555 1_555
C13 C14 1_555 1_555
C1 H3 1_555 1_555
C2 C1 1_555 1_555
N3 Cu1 1_555 1_555
O7 Cu1 1_555 1_555
O8 Cu1 1_555 1_555
Cu2 N1_2 1_555 1_555
N1_2 C1_2 1_555 1_555
O1_2 Cu2 1_555 1_555
O5_2 C14_2 1_555 1_555
C1_2 H3_2 1_555 1_555
C2_2 C1_2 1_555 1_555
H4 C2_2 1_555 1_555
C3_2 C2_2 1_555 1_555
C4_2 C3_2 1_555 1_555
C5_2 N1_2 1_555 1_555
H6_2 C5_2 1_555 1_555
C6_2 C3_2 1_555 1_555
C8_2 C6_2 1_555 1_555
C9_2 C6_2 1_555 1_555
H9 C9_2 1_555 1_555
C10_2 N2_2 1_555 1_555
H10 C10_2 1_555 1_555
C14_2 O1_2 1_555 1_555
Cu2_2 N2_2 1_555 1_555
Cu4 O5_2 1_555 1_555
O8_2 Cu2 1_555 1_555
C4_2 C5_2 1_555 1_555
C9_2 C10_2 1_555 1_555
O2_2 C11_2 1_555 1_555
O3_2 H1_2 1_555 1_555
O4_2 H2_2 1_555 1_555
O6_2 C12_2 1_555 1_555
C7_2 H7_2 1_555 1_555
C11_2 O3_2 1_555 1_555
C12_2 C11_2 1_555 1_555
H11_2 C12_2 1_555 1_555
C13_2 O4_2 1_555 1_555
H12_2 C13_2 1_555 1_555
Cu4 O2_2 1_555 1_555
C12_2 C13_2 1_555 1_555
O2_3 C11_3 1_555 1_555
O3_3 H1_3 1_555 1_555
O4_3 H2_3 1_555 1_555
O6_3 C12_3 1_555 1_555
C7_3 H7_3 1_555 1_555
C11_3 O3_3 1_555 1_555
C12_3 C11_3 1_555 1_555
H11_3 C12_3 1_555 1_555
C13_3 O4_3 1_555 1_555
H12_3 C13_3 1_555 1_555
Cu3_2 O2_3 1_555 1_555
C12_3 C13_3 1_555 1_555
Cu1_2 N1_3 1_555 1_555
N1_3 C1_3 1_555 1_555
O1_3 Cu1_2 1_555 1_555
O5_3 C14_3 1_555 1_555
C1_3 H3_3 1_555 1_555
C2_3 C1_3 1_555 1_555
H4_2 C2_3 1_555 1_555
C3_3 C2_3 1_555 1_555
C4_3 C3_3 1_555 1_555
C5_3 N1_3 1_555 1_555
H6_3 C5_3 1_555 1_555
C6_3 C3_3 1_555 1_555
C8_3 C6_3 1_555 1_555
C9_3 C6_3 1_555 1_555
H9_2 C9_3 1_555 1_555
C10_3 N3 1_555 1_555
H10_2 C10_3 1_555 1_555
C14_3 O1_3 1_555 1_555
Cu3_2 O5_3 1_555 1_555
N3_2 Cu1_2 1_555 1_555
O8_3 Cu1_2 1_555 1_555
C4_3 C5_3 1_555 1_555
C9_3 C10_3 1_555 1_555
Cu3 N1_4 1_555 1_555
N1_4 C1_4 1_555 1_555
O1_4 Cu3 1_555 1_555
O8 C14_4 1_555 1_555
C1_4 H3_4 1_555 1_555
C2_4 C1_4 1_555 1_555
H4_3 C2_4 1_555 1_555
C3_4 C2_4 1_555 1_555
C4_4 C3_4 1_555 1_555
C5_4 N1_4 1_555 1_555
H6_4 C5_4 1_555 1_555
C6_4 C3_4 1_555 1_555
C8_4 C6_4 1_555 1_555
C9_4 C6_4 1_555 1_555
H9_3 C9_4 1_555 1_555
C10_4 N2_3 1_555 1_555
H10_3 C10_4 1_555 1_555
C14_4 O1_4 1_555 1_555
Cu3_2 N2_3 1_555 1_555
N3_3 Cu3 1_555 1_555
C4_4 C5_4 1_555 1_555
C9_4 C10_4 1_555 1_555
O7 C11_4 1_555 1_555
O3_4 H1_4 1_555 1_555
O4_4 H2_4 1_555 1_555
O6_4 C12_4 1_555 1_555
C7_4 H7_4 1_555 1_555
C11_4 O3_4 1_555 1_555
C12_4 C11_4 1_555 1_555
H11_4 C12_4 1_555 1_555
C13_4 O4_4 1_555 1_555
H12_4 C13_4 1_555 1_555
C12_4 C13_4 1_555 1_555
O2_4 C11_5 1_555 1_555
O3_5 H1_5 1_555 1_555
O4_5 H2_5 1_555 1_555
O6_5 C12_5 1_555 1_555
C7_5 H7_5 1_555 1_555
C11_5 O3_5 1_555 1_555
C12_5 C11_5 1_555 1_555
H11_5 C12_5 1_555 1_555
C13_5 O4_5 1_555 1_555
H12_5 C13_5 1_555 1_555
Cu2_2 O2_4 1_555 1_555
C12_5 C13_5 1_555 1_555
Cu1_3 N1_5 1_555 1_555
N1_5 C1_5 1_555 1_555
O1_5 Cu1_3 1_555 1_555
O5_4 C14_5 1_555 1_555
C1_5 H3_5 1_555 1_555
C2_5 C1_5 1_555 1_555
H4_4 C2_5 1_555 1_555
C3_5 C2_5 1_555 1_555
C4_5 C3_5 1_555 1_555
C5_5 N1_5 1_555 1_555
H6_5 C5_5 1_555 1_555
C6_5 C3_5 1_555 1_555
C8_5 C6_5 1_555 1_555
C9_5 C6_5 1_555 1_555
H9_4 C9_5 1_555 1_555
C10_5 N2_4 1_555 1_555
H10_4 C10_5 1_555 1_555
C14_5 O1_5 1_555 1_555
Cu4 N2_4 1_555 1_555
Cu2_2 O5_4 1_555 1_555
N3_4 Cu1_3 1_555 1_555
O8_4 Cu1_3 1_555 1_555
C4_5 C5_5 1_555 1_555
C9_5 C10_5 1_555 1_555
C1_6 H3_6 1_555 1_555
C2_6 C1_6 1_555 1_555
H4_5 C2_6 1_555 1_555
N3_2 C7_6 1_555 1_555
O7_4 C11_6 1_555 1_555
O3_6 H1_6 1_555 1_555
O4_6 H2_6 1_555 1_555
O8_4 C14_6 1_555 1_555
O6_6 C12_6 1_555 1_555
C4_6 C3_6 1_555 1_555
H5_6 C4_6 1_555 1_555
C5_6 N1_6 1_555 1_555
H6_6 C5_6 1_555 1_555
C6_6 C3_6 1_555 1_555
C7_6 H7_6 1_555 1_555
C8_6 C6_6 1_555 1_555
H8_6 C8_6 1_555 1_555
C9_6 C6_6 1_555 1_555
C10_6 N3_2 1_555 1_555
C11_6 O3_6 1_555 1_555
C12_6 C11_6 1_555 1_555
H11_6 C12_6 1_555 1_555
C13_6 O4_6 1_555 1_555
H12_6 C13_6 1_555 1_555
C14_6 O1_6 1_555 1_555
C4_6 C5_6 1_555 1_555
C7_6 C8_6 1_555 1_555
C9_6 C10_6 1_555 1_555
C12_6 C13_6 1_555 1_555
C13_6 C14_6 1_555 1_555
O7_2 C11_7 1_555 1_555
O3_7 H1_7 1_555 1_555
O4_7 H2_7 1_555 1_555
O8_2 C14_7 1_555 1_555
O6_7 C12_7 1_555 1_555
H5_7 C4_7 1_555 1_555
C5_7 N1_7 1_555 1_555
H6_7 C5_7 1_555 1_555
C11_7 O3_7 1_555 1_555
C12_7 C11_7 1_555 1_555
H11_7 C12_7 1_555 1_555
C13_7 O4_7 1_555 1_555
H12_7 C13_7 1_555 1_555
C14_7 O1_7 1_555 1_555
C4_7 C5_7 1_555 1_555
C12_7 C13_7 1_555 1_555
C13_7 C14_7 1_555 1_555
N3_3 C7_7 1_555 1_555
C6_7 C3_7 1_555 1_555
C7_7 H7_7 1_555 1_555
C8_7 C6_7 1_555 1_555
H8_7 C8_7 1_555 1_555
C9_7 C6_7 1_555 1_555
C10_7 N3_3 1_555 1_555
C7_7 C8_7 1_555 1_555
C9_7 C10_7 1_555 1_555
C1_7 H3_7 1_555 1_555
C2_7 C1_7 1_555 1_555
C1_8 H3_8 1_555 1_555
C2_8 C1_8 1_555 1_555
H4_6 C2_8 1_555 1_555
N3_4 C7_8 1_555 1_555
O7_3 C11_8 1_555 1_555
O3_8 H1_8 1_555 1_555
O4_8 H2_8 1_555 1_555
O8_3 C14_8 1_555 1_555
O6_8 C12_8 1_555 1_555
C4_8 C3_8 1_555 1_555
H5_8 C4_8 1_555 1_555
C5_8 N1_8 1_555 1_555
H6_8 C5_8 1_555 1_555
C6_8 C3_8 1_555 1_555
C7_8 H7_8 1_555 1_555
C8_8 C6_8 1_555 1_555
H8_8 C8_8 1_555 1_555
C9_8 C6_8 1_555 1_555
C10_8 N3_4 1_555 1_555
C11_8 O3_8 1_555 1_555
C12_8 C11_8 1_555 1_555
H11_8 C12_8 1_555 1_555
C13_8 O4_8 1_555 1_555
H12_8 C13_8 1_555 1_555
C14_8 O1_8 1_555 1_555
C4_8 C5_8 1_555 1_555
C7_8 C8_8 1_555 1_555
C9_8 C10_8 1_555 1_555
C12_8 C13_8 1_555 1_555
C13_8 C14_8 1_555 1_555

#END
