
###############################################################################
#
# This file contains modified crystal structure data generated from the
# MOF subset of the Cambridge Structural Database (CSD) v543 
# hosted by the Cambridge Crystallographic Data Centre (CCDC).
#
# This work is licensed under the Creative Commons
# Attribution-NonCommercial-ShareAlike 4.0 International License.
# To view a copy of this license, visit
# http://creativecommons.org/licenses/by-nc-sa/4.0/
# or send a letter to
# Creative Commons, PO Box 1866, Mountain View, CA 94042, USA.
#
# CIF created using the CSD Python API on 29 September 2022
# The structure has been converted into the P1 space group
# The structure has a 3D framework
# The original CSD entry CELKEL is in the orthorhombic crystal system
# The original CSD entry CELKEL is in a Sohncke space group
# The framework has been calculated to contain at least 10.0% void space
# The void calculation uses a probe of radius 1.32A, grid spacing 0.4
#
###############################################################################

data_CELKEL
_chemical_formula_moiety         '(C128 H112 Cu8 N16 O43)n'
_symmetry_cell_setting           triclinic
_symmetry_space_group_name_H-M   'P 1'
_symmetry_Int_Tables_number      1
_space_group_name_Hall           'P 1'
loop_
_symmetry_equiv_pos_site_id
_symmetry_equiv_pos_as_xyz
1 x,y,z
_cell_length_a                   8.5750(17)
_cell_length_b                   8.5750(17)
_cell_length_c                   52.520(11)
_cell_angle_alpha                90
_cell_angle_beta                 90
_cell_angle_gamma                90
_cell_volume                     3861.83
loop_
_atom_site_label
_atom_site_type_symbol
_atom_site_fract_x
_atom_site_fract_y
_atom_site_fract_z
O1 O 0.1353(8) 0.5509(8) 0.26153(12)
O2 O 0.6841(7) 0.5314(8) 0.26588(12)
O3 O 0.4448(8) 0.3223(10) 0.23670(17)
H1 H 0.3882 0.2423 0.2369
O4 O 0.3759(11) 0.3104(10) 0.29397(16)
H2 H 0.4101 0.2235 0.2891
O8 O 0.1308(8) 0.3098(7) 0.24638(12)
O10 O 0.6880(9) 0.3064(8) 0.28652(16)
C4 C 0.0038(15) 0.5326(16) 0.3421(2)
H5 H 0.0699 0.4733 0.3529
C5 C 0.0134(14) 0.5134(16) 0.3156(2)
H6 H 0.0862 0.4415 0.3087
H7 H 0.0421 0.6720 0.2141
H8 H 0.0069 0.6430 0.1707
C21 C 0.0255(15) 0.5371(15) 0.4416(2)
H19 H 0.0998 0.4659 0.4349
C22 C 0.0076(13) 0.5514(13) 0.46766(19)
H20 H 0.0731 0.4931 0.4787
H21 H 0.0427 0.5360 0.3930
C25 C 0.2011(12) 0.4224(12) 0.25301(17)
C26 C 0.3787(11) 0.4369(12) 0.25218(17)
H23 H 0.4056 0.5413 0.2449
C27 C 0.6217(11) 0.4125(11) 0.27768(16)
C28 C 0.4428(11) 0.4289(12) 0.27927(18)
H24 H 0.4193 0.5306 0.2878
Cu3 Cu 0.90957(13) 0.55432(14) 0.26255(2)
Cu4 Cu 0.09043(13) 0.05432(14) 0.23745(2)
O6 O 0.6217(8) 0.1139(7) 0.01504(12)
C32 C 0.5054(11) 0.0498(11) 0.00373(16)
Cu6 Cu 0.63470(14) 0.33875(13) 0.01547(2)
O7 O 0.3954(9) 0.1149(8) 0.99397(14)
Cu7 Cu 0.13470(14) 0.16125(13) 0.98453(2)
N1 N 0.9228(12) 0.5938(12) 0.30032(15)
N2 N 0.8895(9) 0.5083(9) 0.22531(14)
N3 N 0.6739(10) 0.3237(10) 0.05286(15)
N4 N 0.8970(11) 0.6482(10) 0.47781(15)
O5 O 0.6136(8) 0.5693(8) 0.01869(12)
O9 O 0.3854(10) 0.5634(9) 0.03965(19)
C1 C 0.8205(14) 0.6970(13) 0.3106(2)
H3 H 0.7541 0.7533 0.2994
C2 C 0.8078(15) 0.7240(14) 0.3359(2)
H4 H 0.7376 0.8015 0.3418
C3 C 0.8951(13) 0.6409(14) 0.3530(2)
C6 C 0.9708(13) 0.5957(13) 0.20802(19)
C7 C 0.9529(12) 0.5767(13) 0.18222(19)
C8 C 0.8566(13) 0.4618(14) 0.17313(17)
C9 C 0.7739(13) 0.3737(13) 0.1909(2)
H9 H 0.7023 0.2963 0.1854
C10 C 0.7959(12) 0.3991(12) 0.21627(18)
H10 H 0.7412 0.3352 0.2280
C11 C 0.8389(14) 0.4442(14) 0.1457(2)
H11 H 0.9050 0.5063 0.1353
C12 C 0.7401(13) 0.3506(13) 0.1336(2)
H12 H 0.6748 0.2866 0.1438
C13 C 0.7228(13) 0.3370(14) 0.10591(18)
C14 C 0.8051(15) 0.4314(15) 0.0893(2)
H13 H 0.8806 0.5017 0.0958
C15 C 0.7796(11) 0.4257(12) 0.06315(19)
H14 H 0.8364 0.4935 0.0523
C16 C 0.5977(12) 0.2317(13) 0.06891(18)
H15 H 0.5256 0.1591 0.0620
C17 C 0.6158(13) 0.2341(13) 0.0947(2)
H16 H 0.5558 0.1661 0.1051
C18 C 0.8156(12) 0.7332(12) 0.46266(17)
H17 H 0.7426 0.8049 0.4696
C19 C 0.8315(14) 0.7228(14) 0.4364(2)
H18 H 0.7673 0.7858 0.4258
C20 C 0.9365(18) 0.6250(16) 0.4254(3)
C23 C 0.9606(16) 0.6035(15) 0.3981(2)
C24 C 0.8807(15) 0.6678(16) 0.3805(2)
H22 H 0.8037 0.7407 0.3857
C29 C 0.5182(12) 0.8718(11) 0.00290(18)
C30 C 0.5019(13) 0.6288(13) 0.0297(2)
C31 C 0.5085(12) 0.8086(12) 0.03064(19)
H26 H 0.6084 0.8374 0.0393
O12 O 0.3886(11) 0.8761(9) 0.04456(16)
H28 H 0.3034 0.8348 0.0405
Cu5 Cu 0.86530(14) 0.66125(13) 0.51547(2)
O15 O 0.8954(9) 0.3851(8) 0.00603(14)
O16 O 0.8692(8) 0.8098(7) 0.25362(12)
H25 H 0.6235 0.8447 0.9960
O11 O 0.4059(10) 0.8025(9) 0.98710(15)
H27 H 0.3164 0.8294 0.9919
N5 N 0.6030(11) 0.3518(10) 0.97781(15)
O2_2 O 0.1841(7) 0.9686(8) 0.73412(12)
Cu3_2 Cu 0.40957(13) 0.94568(14) 0.73745(2)
N5_2 N 0.1030(11) 0.1482(10) 0.02219(15)
N3_2 N 0.1739(10) 0.1763(10) 0.94714(15)
O3_2 O 0.9448(8) 0.1777(10) 0.76330(17)
H1_2 H 0.8882 0.2577 0.7631
O4_2 O 0.8759(11) 0.1896(10) 0.70603(16)
H2_2 H 0.9101 0.2765 0.7109
O8_2 O 0.6308(8) 0.1902(7) 0.75362(12)
H5_2 H 0.5699 0.0267 0.6471
H6_2 H 0.5862 0.0585 0.6913
C8_2 C 0.3566(13) 0.0382(14) 0.82687(17)
C9_2 C 0.2739(13) 0.1263(13) 0.8091(2)
H9_2 H 0.2023 0.2037 0.8146
C10_2 C 0.2959(12) 0.1009(12) 0.78373(18)
H10_2 H 0.2412 0.1648 0.7720
C11_2 C 0.3389(14) 0.0558(14) 0.8543(2)
C12_2 C 0.2401(13) 0.1494(13) 0.8664(2)
H12_2 H 0.1748 0.2134 0.8562
C13_2 C 0.2228(13) 0.1630(14) 0.89409(18)
C14_2 C 0.3051(15) 0.0686(15) 0.9107(2)
C15_2 C 0.2796(11) 0.0743(12) 0.93685(19)
H14_2 H 0.3364 0.0065 0.9477
C16_2 C 0.0977(12) 0.2683(13) 0.93109(18)
H15_2 H 0.0256 0.3409 0.9380
C17_2 C 0.1158(13) 0.2659(13) 0.9053(2)
H16_2 H 0.0558 0.3339 0.8949
H19_2 H 0.5998 0.0341 0.5651
H20_2 H 0.5731 0.0069 0.5213
C25_2 C 0.7011(12) 0.0776(12) 0.74699(17)
C26_2 C 0.8787(11) 0.0631(12) 0.74782(17)
C28_2 C 0.9428(11) 0.0711(12) 0.72073(18)
Cu4_2 Cu 0.59043(13) 0.44568(14) 0.76255(2)
O14 O 0.1217(8) 0.3861(7) 0.98496(12)
N1_2 N 0.4228(12) 0.9062(12) 0.69968(15)
N2_2 N 0.3895(9) 0.9917(9) 0.77469(14)
N4_2 N 0.3970(11) 0.8518(10) 0.52219(15)
O1_2 O 0.6353(8) 0.9491(8) 0.73847(12)
O5_2 O 0.1136(8) 0.9307(8) 0.98131(12)
C1_2 C 0.3205(14) 0.8030(13) 0.6894(2)
H3_2 H 0.2541 0.7467 0.7006
C2_2 C 0.3078(15) 0.7760(14) 0.6641(2)
H4_2 H 0.2376 0.6985 0.6582
C3_2 C 0.3951(13) 0.8591(14) 0.6470(2)
C4_2 C 0.5038(15) 0.9674(16) 0.6579(2)
C5_2 C 0.5134(14) 0.9866(16) 0.6844(2)
C6_2 C 0.4708(13) 0.9043(13) 0.79198(19)
H7_2 H 0.5421 0.8280 0.7859
C7_2 C 0.4529(12) 0.9233(13) 0.81778(19)
H8_2 H 0.5069 0.8570 0.8293
H11_2 H 0.4050 0.9937 0.8647
H13_2 H 0.3806 0.9983 0.9042
C18_2 C 0.3156(12) 0.7668(12) 0.53734(17)
H17_2 H 0.2426 0.6951 0.5304
C19_2 C 0.3315(14) 0.7772(14) 0.5636(2)
H18_2 H 0.2673 0.7142 0.5742
C20_2 C 0.4365(18) 0.8750(16) 0.5746(3)
C21_2 C 0.5255(15) 0.9629(15) 0.5584(2)
C22_2 C 0.5076(13) 0.9486(13) 0.53234(19)
C23_2 C 0.4606(16) 0.8965(15) 0.6019(2)
H21_2 H 0.5427 0.9640 0.6070
C24_2 C 0.3807(15) 0.8322(16) 0.6195(2)
H22_2 H 0.3037 0.7593 0.6143
H23_2 H 0.9056 0.9587 0.7551
H24_2 H 0.9193 0.9694 0.7122
C29_2 C 0.0182(12) 0.6282(11) 0.99710(18)
C30_2 C 0.0019(13) 0.8712(13) 0.9703(2)
C31_2 C 0.0085(12) 0.6914(12) 0.96936(19)
H26_2 H 0.1084 0.6626 0.9607
C32_2 C 0.0054(11) 0.4502(11) 0.99627(16)
Cu5_2 Cu 0.36530(14) 0.83875(13) 0.48453(2)
O16_2 O 0.3692(8) 0.6902(7) 0.74638(12)
O11_2 O 0.9059(10) 0.6975(9) 0.01290(15)
H27_2 H 0.8164 0.6706 0.0081
N1_3 N 0.0772(12) 0.0938(12) 0.19968(15)
N2_3 N 0.1105(9) 0.0083(9) 0.27469(14)
O5_3 O 0.3864(8) 0.0693(8) 0.48131(12)
O6_2 O 0.3783(8) 0.6139(7) 0.48496(12)
O7_2 O 0.6046(9) 0.6149(8) 0.50603(14)
O9_2 O 0.6146(10) 0.0634(9) 0.46035(19)
C1_3 C 0.1795(14) 0.1970(13) 0.1894(2)
H3_3 H 0.2459 0.2533 0.2006
C2_3 C 0.1922(15) 0.2240(14) 0.1641(2)
H4_3 H 0.2624 0.3015 0.1582
C3_3 C 0.1049(13) 0.1409(14) 0.1470(2)
C6_3 C 0.0292(13) 0.0957(13) 0.29198(19)
C7_3 C 0.0471(12) 0.0767(13) 0.31778(19)
H11_3 H 0.0950 0.0063 0.3647
H13_3 H 0.1194 0.0017 0.4042
C18_3 C 0.1844(12) 0.2332(12) 0.03734(17)
H17_3 H 0.2574 0.3049 0.0304
C19_3 C 0.1685(14) 0.2228(14) 0.0636(2)
H18_3 H 0.2327 0.2858 0.0742
C20_3 C 0.0635(18) 0.1250(16) 0.0746(3)
C23_3 C 0.0394(16) 0.1035(15) 0.1019(2)
C24_3 C 0.1193(15) 0.1678(16) 0.1195(2)
H22_3 H 0.1963 0.2407 0.1143
C29_3 C 0.4818(12) 0.3718(11) 0.49710(18)
H25_2 H 0.3765 0.3447 0.5040
C30_3 C 0.4981(13) 0.1288(13) 0.4703(2)
C31_3 C 0.4915(12) 0.3086(12) 0.46936(19)
H26_3 H 0.3916 0.3374 0.4607
C32_3 C 0.4946(11) 0.5498(11) 0.49627(16)
O11_3 O 0.5941(10) 0.3025(9) 0.51290(15)
H27_3 H 0.6836 0.3294 0.5081
O12_2 O 0.6114(11) 0.3761(9) 0.45544(16)
H28_2 H 0.6966 0.3348 0.4595
O13 O 0.3159(7) 0.0314(8) 0.23412(12)
N3_3 N 0.3261(10) 0.8237(10) 0.44714(15)
C8_3 C 0.1434(13) 0.9618(14) 0.32687(17)
C9_3 C 0.2261(13) 0.8737(13) 0.3091(2)
H9_3 H 0.2977 0.7963 0.3146
C10_3 C 0.2041(12) 0.8991(12) 0.28373(18)
H10_3 H 0.2588 0.8352 0.2720
C11_3 C 0.1611(14) 0.9442(14) 0.3543(2)
C12_3 C 0.2599(13) 0.8506(13) 0.3664(2)
H12_3 H 0.3252 0.7866 0.3562
C13_3 C 0.2772(13) 0.8370(14) 0.39409(18)
C14_3 C 0.1949(15) 0.9314(15) 0.4107(2)
C15_3 C 0.2204(11) 0.9257(12) 0.43685(19)
H14_3 H 0.1636 0.9935 0.4477
C16_3 C 0.4023(12) 0.7317(13) 0.43109(18)
H15_3 H 0.4744 0.6591 0.4380
C17_3 C 0.3842(13) 0.7341(13) 0.4053(2)
H16_3 H 0.4442 0.6661 0.3949
O15_2 O 0.1046(9) 0.8851(8) 0.49397(14)
O1_3 O 0.8647(8) 0.0509(8) 0.23847(12)
C4_3 C 0.9962(15) 0.0326(16) 0.1579(2)
C5_3 C 0.9866(14) 0.0134(16) 0.1844(2)
H7_3 H 0.9579 0.1720 0.2859
H8_3 H 0.9931 0.1430 0.3293
C21_3 C 0.9745(15) 0.0371(15) 0.0584(2)
C22_3 C 0.9924(13) 0.0514(13) 0.03234(19)
H21_3 H 0.9573 0.0360 0.1070
H23_3 H 0.5944 0.0413 0.2551
H24_3 H 0.5807 0.0306 0.2122
O3_3 O 0.5552(8) 0.8223(10) 0.26330(17)
H1_3 H 0.6118 0.7423 0.2631
O4_3 O 0.6241(11) 0.8104(10) 0.20603(16)
H2_3 H 0.5899 0.7235 0.2109
O10_2 O 0.3120(9) 0.8064(8) 0.21348(16)
H5_3 H 0.9301 0.9733 0.1471
H6_3 H 0.9138 0.9415 0.1913
H19_3 H 0.9002 0.9659 0.0651
H20_3 H 0.9269 0.9931 0.0213
C25_3 C 0.7989(12) 0.9224(12) 0.24699(17)
C26_3 C 0.6213(11) 0.9369(12) 0.24782(17)
C27_2 C 0.3783(11) 0.9125(11) 0.22232(16)
C28_3 C 0.5572(11) 0.9289(12) 0.22073(18)
N1_4 N 0.5772(12) 0.4062(12) 0.80032(15)
N2_4 N 0.6105(9) 0.4917(9) 0.72531(14)
N3_4 N 0.8261(10) 0.6763(10) 0.55286(15)
O1_4 O 0.3647(8) 0.4491(8) 0.76153(12)
O3_4 O 0.0552(8) 0.6777(10) 0.73670(17)
H1_4 H 0.1118 0.7577 0.7369
O4_4 O 0.1241(11) 0.6896(10) 0.79397(16)
H2_4 H 0.0899 0.7765 0.7891
O5_4 O 0.8864(8) 0.4307(8) 0.51869(12)
C1_4 C 0.6795(14) 0.3030(13) 0.8106(2)
H3_4 H 0.7459 0.2467 0.7994
C2_4 C 0.6922(15) 0.2760(14) 0.8359(2)
H4_4 H 0.7624 0.1985 0.8418
C3_4 C 0.6049(13) 0.3591(14) 0.8530(2)
C4_4 C 0.4962(15) 0.4674(16) 0.8421(2)
H5_4 H 0.4301 0.5267 0.8529
C5_4 C 0.4866(14) 0.4866(16) 0.8156(2)
H6_4 H 0.4138 0.5585 0.8087
C6_4 C 0.5292(13) 0.4043(13) 0.70802(19)
H7_4 H 0.4579 0.3280 0.7141
C7_4 C 0.5471(12) 0.4233(13) 0.68222(19)
H8_4 H 0.4931 0.3570 0.6707
C8_4 C 0.6434(13) 0.5382(14) 0.67313(17)
C9_4 C 0.7261(13) 0.6263(13) 0.6909(2)
H9_4 H 0.7977 0.7037 0.6854
C10_4 C 0.7041(12) 0.6009(12) 0.71627(18)
H10_4 H 0.7588 0.6648 0.7280
C11_4 C 0.6611(14) 0.5558(14) 0.6457(2)
H11_4 H 0.5950 0.4937 0.6353
C12_4 C 0.7599(13) 0.6494(13) 0.6336(2)
H12_4 H 0.8252 0.7134 0.6438
C13_4 C 0.7772(13) 0.6630(14) 0.60591(18)
C14_4 C 0.6949(15) 0.5686(15) 0.5893(2)
H13_4 H 0.6194 0.4983 0.5958
C15_4 C 0.7204(11) 0.5743(12) 0.56315(19)
H14_4 H 0.6636 0.5065 0.5523
C16_4 C 0.9023(12) 0.7683(13) 0.56891(18)
H15_4 H 0.9744 0.8409 0.5620
C17_4 C 0.8842(13) 0.7659(13) 0.5947(2)
H16_4 H 0.9442 0.8339 0.6051
C18_4 C 0.6844(12) 0.2668(12) 0.96266(17)
H17_4 H 0.7574 0.1951 0.9696
C19_4 C 0.6685(14) 0.2772(14) 0.9364(2)
H18_4 H 0.7327 0.2142 0.9258
C20_4 C 0.5635(18) 0.3750(16) 0.9254(3)
C21_4 C 0.4745(15) 0.4629(15) 0.9416(2)
H19_4 H 0.4002 0.5341 0.9349
C22_4 C 0.4924(13) 0.4486(13) 0.96766(19)
H20_4 H 0.4269 0.5069 0.9787
C23_4 C 0.5394(16) 0.3965(15) 0.8981(2)
H21_4 H 0.4573 0.4640 0.8930
C24_4 C 0.6193(15) 0.3322(16) 0.8805(2)
H22_4 H 0.6963 0.2593 0.8857
C25_4 C 0.2989(12) 0.5776(12) 0.75301(17)
C26_4 C 0.1213(11) 0.5631(12) 0.75218(17)
H23_4 H 0.0944 0.4587 0.7449
C28_4 C 0.0572(11) 0.5711(12) 0.77927(18)
H24_4 H 0.0807 0.4694 0.7878
C29_4 C 0.9818(12) 0.1282(11) 0.50290(18)
H25_3 H 0.8765 0.1553 0.4960
C30_4 C 0.9981(13) 0.3712(13) 0.5297(2)
C31_4 C 0.9915(12) 0.1914(12) 0.53064(19)
H26_4 H 0.8916 0.1626 0.5393
O13_2 O 0.8159(7) 0.4686(8) 0.76588(12)
O14_2 O 0.8783(8) 0.8861(7) 0.51504(12)
C32_4 C 0.9946(11) 0.9502(11) 0.50373(16)
O10_3 O 0.8120(9) 0.6936(8) 0.78652(16)
C27_3 C 0.8783(11) 0.5875(11) 0.77768(16)
O10_4 O 0.1880(9) 0.1936(8) 0.71348(16)
C27_4 C 0.1217(11) 0.0875(11) 0.72232(16)
H25_4 H 0.1235 0.6553 0.0040
O9_3 O 0.8854(10) 0.9366(9) 0.96035(19)
O12_3 O 0.8886(11) 0.6239(9) 0.95544(16)
H28_3 H 0.8034 0.6652 0.9595
O9_4 O 0.1146(10) 0.4366(9) 0.53965(19)
O11_4 O 0.0941(10) 0.1975(9) 0.48710(15)
H27_4 H 0.1836 0.1706 0.4919
O12_4 O 0.1114(11) 0.1239(9) 0.54456(16)
H28_4 H 0.1966 0.1652 0.5405
loop_
_geom_bond_atom_site_label_1
_geom_bond_atom_site_label_2
_geom_bond_site_symmetry_1
_geom_bond_site_symmetry_2
O2 C27 1_555 1_555
O3 H1 1_555 1_555
O4 H2 1_555 1_555
O8 C25 1_555 1_555
O10 C27 1_555 1_555
H5 C4 1_555 1_555
H6 C5 1_555 1_555
H19 C21 1_555 1_555
H20 C22 1_555 1_555
C25 O1 1_555 1_555
C26 O3 1_555 1_555
H23 C26 1_555 1_555
C27 C28 1_555 1_555
C28 O4 1_555 1_555
H24 C28 1_555 1_555
Cu3 O2 1_555 1_555
Cu4 O8 1_555 1_555
C4 C5 1_555 1_555
C21 C22 1_555 1_555
C25 C26 1_555 1_555
C26 C28 1_555 1_555
O6 C32 1_555 1_555
Cu6 O6 1_555 1_555
Cu7 O7 1_555 1_555
Cu3 N1 1_555 1_555
Cu6 N3 1_555 1_555
N1 C1 1_555 1_555
N2 Cu3 1_555 1_555
N3 C15 1_555 1_555
N4 C18 1_555 1_555
O5 Cu6 1_555 1_555
O9 C30 1_555 1_555
C1 H3 1_555 1_555
C2 C1 1_555 1_555
H4 C2 1_555 1_555
C3 C2 1_555 1_555
C6 N2 1_555 1_555
C7 C6 1_555 1_555
C8 C7 1_555 1_555
C9 C8 1_555 1_555
H9 C9 1_555 1_555
C10 N2 1_555 1_555
H10 C10 1_555 1_555
C11 C8 1_555 1_555
H11 C11 1_555 1_555
C12 C11 1_555 1_555
H12 C12 1_555 1_555
C13 C12 1_555 1_555
C14 C13 1_555 1_555
H13 C14 1_555 1_555
C15 C14 1_555 1_555
H14 C15 1_555 1_555
C16 N3 1_555 1_555
H15 C16 1_555 1_555
C17 C13 1_555 1_555
H16 C17 1_555 1_555
C18 H17 1_555 1_555
C19 C18 1_555 1_555
H18 C19 1_555 1_555
C20 C19 1_555 1_555
C23 C20 1_555 1_555
C24 C3 1_555 1_555
H22 C24 1_555 1_555
C30 O5 1_555 1_555
C31 C29 1_555 1_555
H26 C31 1_555 1_555
O12 C31 1_555 1_555
H28 O12 1_555 1_555
Cu5 N4 1_555 1_555
O15 Cu6 1_555 1_555
O16 Cu3 1_555 1_555
C9 C10 1_555 1_555
C16 C17 1_555 1_555
C23 C24 1_555 1_555
C30 C31 1_555 1_555
H27 O11 1_555 1_555
Cu3_2 O2_2 1_555 1_555
Cu7 N3_2 1_555 1_555
N3_2 C15_2 1_555 1_555
O3_2 H1_2 1_555 1_555
O4_2 H2_2 1_555 1_555
O8_2 C25_2 1_555 1_555
C9_2 C8_2 1_555 1_555
H9_2 C9_2 1_555 1_555
H10_2 C10_2 1_555 1_555
C11_2 C8_2 1_555 1_555
C12_2 C11_2 1_555 1_555
H12_2 C12_2 1_555 1_555
C13_2 C12_2 1_555 1_555
C14_2 C13_2 1_555 1_555
C15_2 C14_2 1_555 1_555
H14_2 C15_2 1_555 1_555
C16_2 N3_2 1_555 1_555
H15_2 C16_2 1_555 1_555
C17_2 C13_2 1_555 1_555
H16_2 C17_2 1_555 1_555
C26_2 O3_2 1_555 1_555
C28_2 O4_2 1_555 1_555
Cu4_2 O8_2 1_555 1_555
O14 Cu7 1_555 1_555
C9_2 C10_2 1_555 1_555
C16_2 C17_2 1_555 1_555
C25_2 C26_2 1_555 1_555
C26_2 C28_2 1_555 1_555
Cu3_2 N1_2 1_555 1_555
N1_2 C1_2 1_555 1_555
N2_2 Cu3_2 1_555 1_555
N4_2 C18_2 1_555 1_555
O1_2 Cu3_2 1_555 1_555
O14 C32_2 1_555 1_555
C1_2 H3_2 1_555 1_555
C2_2 C1_2 1_555 1_555
H4_2 C2_2 1_555 1_555
C3_2 C2_2 1_555 1_555
C4_2 C3_2 1_555 1_555
C5_2 N1_2 1_555 1_555
C6_2 N2_2 1_555 1_555
H7_2 C6_2 1_555 1_555
C7_2 C6_2 1_555 1_555
H8_2 C7_2 1_555 1_555
C18_2 H17_2 1_555 1_555
C19_2 C18_2 1_555 1_555
H18_2 C19_2 1_555 1_555
C20_2 C19_2 1_555 1_555
C21_2 C20_2 1_555 1_555
C22_2 N4_2 1_555 1_555
C23_2 C20_2 1_555 1_555
H21_2 C23_2 1_555 1_555
C24_2 C3_2 1_555 1_555
H22_2 C24_2 1_555 1_555
C30_2 O5_2 1_555 1_555
C31_2 C29_2 1_555 1_555
H26_2 C31_2 1_555 1_555
C32_2 C29_2 1_555 1_555
Cu5_2 N4_2 1_555 1_555
O16_2 Cu3_2 1_555 1_555
C4_2 C5_2 1_555 1_555
C21_2 C22_2 1_555 1_555
C23_2 C24_2 1_555 1_555
C30_2 C31_2 1_555 1_555
H27_2 O11_2 1_555 1_555
Cu4 N1_3 1_555 1_555
N1_3 C1_3 1_555 1_555
N2_3 Cu4 1_555 1_555
N5_2 C18_3 1_555 1_555
O6_2 C32_3 1_555 1_555
O7_2 C32_3 1_555 1_555
O9_2 C30_3 1_555 1_555
C1_3 H3_3 1_555 1_555
C2_3 C1_3 1_555 1_555
H4_3 C2_3 1_555 1_555
C3_3 C2_3 1_555 1_555
C6_3 N2_3 1_555 1_555
C7_3 C6_3 1_555 1_555
C18_3 H17_3 1_555 1_555
C19_3 C18_3 1_555 1_555
H18_3 C19_3 1_555 1_555
C20_3 C19_3 1_555 1_555
C23_3 C20_3 1_555 1_555
C24_3 C3_3 1_555 1_555
H22_3 C24_3 1_555 1_555
C29_3 H25_2 1_555 1_555
C30_3 O5_3 1_555 1_555
C31_3 C29_3 1_555 1_555
H26_3 C31_3 1_555 1_555
C32_3 C29_3 1_555 1_555
O11_3 C29_3 1_555 1_555
H27_3 O11_3 1_555 1_555
O12_2 C31_3 1_555 1_555
H28_2 O12_2 1_555 1_555
Cu5_2 O6_2 1_555 1_555
Cu5 O7_2 1_555 1_555
O13 Cu4 1_555 1_555
C23_3 C24_3 1_555 1_555
C30_3 C31_3 1_555 1_555
Cu5_2 N3_3 1_555 1_555
N3_3 C15_3 1_555 1_555
C9_3 C8_3 1_555 1_555
H9_3 C9_3 1_555 1_555
H10_3 C10_3 1_555 1_555
C11_3 C8_3 1_555 1_555
C12_3 C11_3 1_555 1_555
H12_3 C12_3 1_555 1_555
C13_3 C12_3 1_555 1_555
C14_3 C13_3 1_555 1_555
C15_3 C14_3 1_555 1_555
H14_3 C15_3 1_555 1_555
C16_3 N3_3 1_555 1_555
H15_3 C16_3 1_555 1_555
C17_3 C13_3 1_555 1_555
H16_3 C17_3 1_555 1_555
O15_2 Cu5_2 1_555 1_555
C9_3 C10_3 1_555 1_555
C16_3 C17_3 1_555 1_555
C4_3 C5_3 1_555 1_555
C21_3 C22_3 1_555 1_555
O3_3 H1_3 1_555 1_555
O4_3 H2_3 1_555 1_555
O16 C25_3 1_555 1_555
O10_2 C27_2 1_555 1_555
C26_3 O3_3 1_555 1_555
C27_2 C28_3 1_555 1_555
C28_3 O4_3 1_555 1_555
C25_3 C26_3 1_555 1_555
C26_3 C28_3 1_555 1_555
Cu4_2 N1_4 1_555 1_555
Cu5 N3_4 1_555 1_555
N1_4 C1_4 1_555 1_555
N2_4 Cu4_2 1_555 1_555
N3_4 C15_4 1_555 1_555
N5 C18_4 1_555 1_555
O1_4 Cu4_2 1_555 1_555
O3_4 H1_4 1_555 1_555
O4_4 H2_4 1_555 1_555
O5_4 Cu5 1_555 1_555
O16_2 C25_4 1_555 1_555
C1_4 H3_4 1_555 1_555
C2_4 C1_4 1_555 1_555
H4_4 C2_4 1_555 1_555
C3_4 C2_4 1_555 1_555
C4_4 C3_4 1_555 1_555
H5_4 C4_4 1_555 1_555
C5_4 N1_4 1_555 1_555
H6_4 C5_4 1_555 1_555
C6_4 N2_4 1_555 1_555
H7_4 C6_4 1_555 1_555
C7_4 C6_4 1_555 1_555
H8_4 C7_4 1_555 1_555
C8_4 C7_4 1_555 1_555
C9_4 C8_4 1_555 1_555
H9_4 C9_4 1_555 1_555
C10_4 N2_4 1_555 1_555
H10_4 C10_4 1_555 1_555
C11_4 C8_4 1_555 1_555
H11_4 C11_4 1_555 1_555
C12_4 C11_4 1_555 1_555
H12_4 C12_4 1_555 1_555
C13_4 C12_4 1_555 1_555
C14_4 C13_4 1_555 1_555
H13_4 C14_4 1_555 1_555
C15_4 C14_4 1_555 1_555
H14_4 C15_4 1_555 1_555
C16_4 N3_4 1_555 1_555
H15_4 C16_4 1_555 1_555
C17_4 C13_4 1_555 1_555
H16_4 C17_4 1_555 1_555
C18_4 H17_4 1_555 1_555
C19_4 C18_4 1_555 1_555
H18_4 C19_4 1_555 1_555
C20_4 C19_4 1_555 1_555
C21_4 C20_4 1_555 1_555
H19_4 C21_4 1_555 1_555
C22_4 N5 1_555 1_555
H20_4 C22_4 1_555 1_555
C23_4 C20_4 1_555 1_555
H21_4 C23_4 1_555 1_555
C24_4 C3_4 1_555 1_555
H22_4 C24_4 1_555 1_555
C25_4 O1_4 1_555 1_555
C26_4 O3_4 1_555 1_555
H23_4 C26_4 1_555 1_555
C28_4 O4_4 1_555 1_555
H24_4 C28_4 1_555 1_555
C29_4 H25_3 1_555 1_555
C30_4 O5_4 1_555 1_555
C31_4 C29_4 1_555 1_555
H26_4 C31_4 1_555 1_555
O13_2 Cu4_2 1_555 1_555
O14_2 Cu5 1_555 1_555
C4_4 C5_4 1_555 1_555
C9_4 C10_4 1_555 1_555
C16_4 C17_4 1_555 1_555
C21_4 C22_4 1_555 1_555
C23_4 C24_4 1_555 1_555
C25_4 C26_4 1_555 1_555
C26_4 C28_4 1_555 1_555
C30_4 C31_4 1_555 1_555
O14_2 C32_4 1_555 1_555
O13_2 C27_3 1_555 1_555
O10_3 C27_3 1_555 1_555
O10_4 C27_4 1_555 1_555
H28_3 O12_3 1_555 1_555
H27_4 O11_4 1_555 1_555
H28_4 O12_4 1_555 1_555

#END
