
###############################################################################
#
# This file contains modified crystal structure data generated from the
# MOF subset of the Cambridge Structural Database (CSD) v543 
# hosted by the Cambridge Crystallographic Data Centre (CCDC).
#
# This work is licensed under the Creative Commons
# Attribution-NonCommercial-ShareAlike 4.0 International License.
# To view a copy of this license, visit
# http://creativecommons.org/licenses/by-nc-sa/4.0/
# or send a letter to
# Creative Commons, PO Box 1866, Mountain View, CA 94042, USA.
#
# CIF created using the CSD Python API on 29 September 2022
# The structure has been converted into the P1 space group
# The structure has a 3D framework
# The original CSD entry CELYEA is in the monoclinic crystal system
# The framework has been calculated to contain at least 10.0% void space
# The void calculation uses a probe of radius 1.32A, grid spacing 0.4
#
###############################################################################

data_CELYEA
_chemical_formula_moiety         '(C8 H4 Fe2 N6 Pt2)n'
_symmetry_cell_setting           triclinic
_symmetry_space_group_name_H-M   'P 1'
_symmetry_Int_Tables_number      1
_space_group_name_Hall           'P 1'
loop_
_symmetry_equiv_pos_site_id
_symmetry_equiv_pos_as_xyz
1 x,y,z
_cell_length_a                   7.2727(2)
_cell_length_b                   7.46810(10)
_cell_length_c                   7.4416(2)
_cell_angle_alpha                90
_cell_angle_beta                 95.9390(10)
_cell_angle_gamma                90
_cell_volume                     402.008
loop_
_atom_site_label
_atom_site_type_symbol
_atom_site_fract_x
_atom_site_fract_y
_atom_site_fract_z
Fe5 Fe 0.5000 0.5000 -0.0000
Pt1 Pt 0.5000 0.0000 0.5000
N2 N 0.5098(8) 0.2944(10) 0.2029(9)
C2 C 0.5094(10) 0.1864(11) 0.3101(11)
N5 N 0.4902(8) 0.2944(10) 0.7971(9)
C7 C 0.4906(10) 0.1864(11) 0.6899(11)
Fe5_2 Fe 0.5000 0.5000 1.0000
N7 N 0.8097(11) 0.5000 0.0110(12)
N10 N 0.5098(8) 0.7056(10) 0.2029(9)
N1 N 0.1903(11) 0.5000 0.9890(12)
C1 C 0.0947(10) 0.3480(11) 0.9947(10)
H1 H 0.1579 0.2369 0.9914
C5 C 0.0947(10) 0.6520(11) 0.9947(10)
H4 H 0.1579 0.7631 0.9914
N9 N 0.4902(8) 0.7056(10) 0.7971(9)
Pt1_2 Pt 0.5000 1.0000 0.5000
C6 C 0.5094(10) 0.8136(11) 0.3101(11)
C8 C 0.4906(10) 0.8136(11) 0.6899(11)
C3 C 0.9053(10) 0.3480(11) 0.0053(10)
H2 H 0.8421 0.2369 0.0086
C4 C 0.9053(10) 0.6520(11) 0.0053(10)
H3 H 0.8421 0.7631 0.0086
loop_
_geom_bond_atom_site_label_1
_geom_bond_atom_site_label_2
_geom_bond_site_symmetry_1
_geom_bond_site_symmetry_2
Pt1 C2 1_555 1_555
N2 Fe5 1_555 1_555
C2 N2 1_555 1_555
N5 C7 1_555 1_555
C7 Pt1 1_555 1_555
Fe5_2 N5 1_555 1_555
N7 Fe5 1_555 1_555
N10 Fe5 1_555 1_555
Fe5_2 N1 1_555 1_555
N1 C1 1_555 1_555
C1 H1 1_555 1_555
C5 N1 1_555 1_555
H4 C5 1_555 1_555
N9 Fe5_2 1_555 1_555
N10 C6 1_555 1_555
C6 Pt1_2 1_555 1_555
N9 C8 1_555 1_555
C8 Pt1_2 1_555 1_555
N7 C3 1_555 1_555
H2 C3 1_555 1_555
C4 N7 1_555 1_555
H3 C4 1_555 1_555

#END
