
###############################################################################
#
# This file contains modified crystal structure data generated from the
# MOF subset of the Cambridge Structural Database (CSD) v543 
# hosted by the Cambridge Crystallographic Data Centre (CCDC).
#
# This work is licensed under the Creative Commons
# Attribution-NonCommercial-ShareAlike 4.0 International License.
# To view a copy of this license, visit
# http://creativecommons.org/licenses/by-nc-sa/4.0/
# or send a letter to
# Creative Commons, PO Box 1866, Mountain View, CA 94042, USA.
#
# CIF created using the CSD Python API on 29 September 2022
# The structure has been converted into the P1 space group
# The structure has a 3D framework
# The original CSD entry CELZUQ is in the tetragonal crystal system
# The original CSD entry CELZUQ is in a Sohncke space group
# The framework has been calculated to contain at least 10.0% void space
# The void calculation uses a probe of radius 1.32A, grid spacing 0.4
# H atom positions have been added when not included in the experimental data
#
###############################################################################

data_CELZUQ
_chemical_formula_moiety         '(C128 H64 Al16 O72)n'
_symmetry_cell_setting           triclinic
_symmetry_space_group_name_H-M   'P 1'
_symmetry_Int_Tables_number      1
_space_group_name_Hall           'P 1'
loop_
_symmetry_equiv_pos_site_id
_symmetry_equiv_pos_as_xyz
1 x,y,z
_cell_length_a                   21.547(69)
_cell_length_b                   21.547(69)
_cell_length_c                   10.378(33)
_cell_angle_alpha                90
_cell_angle_beta                 90
_cell_angle_gamma                90
_cell_volume                     4818.23
loop_
_atom_site_label
_atom_site_type_symbol
_atom_site_fract_x
_atom_site_fract_y
_atom_site_fract_z
_atom_site_U_iso_or_equiv
_atom_site_thermal_displace_type
Al1 Al 0.2544(10) 0.3183(11) 0.3719(20) 0.0164 Uiso
Al2 Al 0.2470(13) 0.6826(12) 0.3518(28) 0.0186 Uiso
C1 C 0.2048(18) 0.3864(10) 0.1290(24) 0.0051 Uiso
C2 C 0.2933(21) 0.3834(13) 0.6020(32) 0.0716 Uiso
C3 C 0.2971(16) 0.6121(11) 0.5804(27) 0.0051 Uiso
C4 C 0.2051(13) 0.6170(21) 0.1368(33) 0.0522 Uiso
C5 C 0.2026(24) 0.44846(96) 0.0598(21) 0.0051 Uiso
C6 C 0.2170(25) 0.4981(23) 0.1338(27) 0.0051 Uiso
C7 C 0.2071(30) 0.5564(10) 0.0665(27) 0.0051 Uiso
C11 C 0.3148(16) 0.5565(11) 0.6611(23) 0.0395 Uiso
C12 C 0.2927(19) 0.5071(18) 0.5910(25) 0.0051 Uiso
C13 C 0.3019(19) 0.4480(11) 0.6502(29) 0.0345 Uiso
C14 C 0.3321(21) 0.4474(13) 0.7749(29) 0.0051 Uiso
C15 C 0.3422(20) 0.5029(25) 0.8439(31) 0.0185 Uiso
C16 C 0.3452(20) 0.5609(12) 0.7816(25) 0.0051 Uiso
O1 O 0.3197(25) 0.6575(13) 0.6328(60) 0.0051 Uiso
O2 O 0.3194(27) 0.3357(11) 0.6414(49) 0.0801 Uiso
O3 O 0.2412(23) 0.3742(19) 0.2241(21) 0.0051 Uiso
O4 O 0.2497(24) 0.7455(26) 0.4688(53) 0.0315 Uiso
O5 O 0.1944(22) 0.3412(13) 0.0592(47) 0.0152 Uiso
O6 O 0.1847(19) 0.6691(11) 0.0980(37) 0.0051 Uiso
O7 O 0.2653(20) 0.3897(20) 0.4923(21) 0.0087 Uiso
O8 O 0.2703(22) 0.2551(20) 0.4808(32) 0.0051 Uiso
O9 O 0.2608(21) 0.6165(20) 0.4831(30) 0.0051 Uiso
O10 O 0.2446(19) 0.6121(23) 0.2306(25) 0.0368 Uiso
Al3 Al 0.1817(11) 0.2544(10) 0.1219(20) 0.0164 Uiso
Al4 Al 0.3183(11) 0.2456(10) 0.6219(20) 0.0164 Uiso
Al5 Al 0.3174(12) 0.7470(13) 0.6018(28) 0.0186 Uiso
Al6 Al 0.1826(12) 0.7530(13) 0.1018(28) 0.0186 Uiso
O11 O 0.1575(13) 0.6803(25) 0.3828(60) 0.0051 Uiso
O12 O 0.1643(11) 0.3194(27) 0.3914(49) 0.0801 Uiso
O13 O 0.2455(26) 0.7503(24) 0.2188(53) 0.0315 Uiso
O14 O 0.3412(13) 0.3056(22) 0.3092(47) 0.0152 Uiso
O15 O 0.3309(11) 0.6847(19) 0.3480(37) 0.0051 Uiso
O16 O 0.2449(20) 0.2703(22) 0.2308(32) 0.0051 Uiso
H2 H 0.347826 0.500846 0.948094 . .
H4 H 0.270026 0.512588 0.497914 . .
H6 H 0.347239 0.403433 0.816012 . .
H7 H 0.234032 0.494755 0.232351 . .
H8 H 0.367334 0.602408 0.819968 . .
Al1_2 Al 0.7456(10) 0.6817(11) 0.3719(20) 0.0164 Uiso
Al2_2 Al 0.7530(13) 0.3174(12) 0.3518(28) 0.0186 Uiso
C1_2 C 0.7952(18) 0.6136(10) 0.1290(24) 0.0051 Uiso
C2_2 C 0.7067(21) 0.6166(13) 0.6020(32) 0.0716 Uiso
C3_2 C 0.7029(16) 0.3879(11) 0.5804(27) 0.0051 Uiso
C4_2 C 0.7949(13) 0.3830(21) 0.1368(33) 0.0522 Uiso
C5_2 C 0.7974(24) 0.55154(96) 0.0598(21) 0.0051 Uiso
C6_2 C 0.7830(25) 0.5019(23) 0.1338(27) 0.0051 Uiso
C7_2 C 0.7929(30) 0.4436(10) 0.0665(27) 0.0051 Uiso
C11_2 C 0.6852(16) 0.4435(11) 0.6611(23) 0.0395 Uiso
C12_2 C 0.7073(19) 0.4929(18) 0.5910(25) 0.0051 Uiso
C13_2 C 0.6981(19) 0.5520(11) 0.6502(29) 0.0345 Uiso
C14_2 C 0.6679(21) 0.5526(13) 0.7749(29) 0.0051 Uiso
C15_2 C 0.6578(20) 0.4971(25) 0.8439(31) 0.0185 Uiso
C16_2 C 0.6548(20) 0.4391(12) 0.7816(25) 0.0051 Uiso
O1_2 O 0.6803(25) 0.3425(13) 0.6328(60) 0.0051 Uiso
O2_2 O 0.6806(27) 0.6643(11) 0.6414(49) 0.0801 Uiso
O3_2 O 0.7588(23) 0.6258(19) 0.2241(21) 0.0051 Uiso
O4_2 O 0.7503(24) 0.2545(26) 0.4688(53) 0.0315 Uiso
O5_2 O 0.8056(22) 0.6588(13) 0.0592(47) 0.0152 Uiso
O6_2 O 0.8153(19) 0.3309(11) 0.0980(37) 0.0051 Uiso
O7_2 O 0.7347(20) 0.6103(20) 0.4923(21) 0.0087 Uiso
O8_2 O 0.7297(22) 0.7449(20) 0.4808(32) 0.0051 Uiso
O9_2 O 0.7392(21) 0.3835(20) 0.4831(30) 0.0051 Uiso
O10_2 O 0.7554(19) 0.3879(23) 0.2306(25) 0.0368 Uiso
Al3_2 Al 0.8183(11) 0.7456(10) 0.1219(20) 0.0164 Uiso
Al4_2 Al 0.6817(11) 0.7544(10) 0.6219(20) 0.0164 Uiso
Al5_2 Al 0.6826(12) 0.2530(13) 0.6018(28) 0.0186 Uiso
Al6_2 Al 0.8174(12) 0.2470(13) 0.1018(28) 0.0186 Uiso
O11_2 O 0.8425(13) 0.3197(25) 0.3828(60) 0.0051 Uiso
O12_2 O 0.8357(11) 0.6806(27) 0.3914(49) 0.0801 Uiso
O13_2 O 0.7545(26) 0.2497(24) 0.2188(53) 0.0315 Uiso
O14_2 O 0.6588(13) 0.6944(22) 0.3092(47) 0.0152 Uiso
O15_2 O 0.6691(11) 0.3153(19) 0.3480(37) 0.0051 Uiso
O16_2 O 0.7551(20) 0.7297(22) 0.2308(32) 0.0051 Uiso
H2_2 H 0.652174 0.499154 0.948094 . .
H4_2 H 0.729974 0.487412 0.497914 . .
H6_2 H 0.652761 0.596567 0.816012 . .
H7_2 H 0.765968 0.505245 0.232351 . .
H8_2 H 0.632666 0.397592 0.819968 . .
C2_3 C 0.2067(21) 0.1166(13) 0.1020(32) 0.0716 Uiso
C13_3 C 0.1981(19) 0.0520(11) 0.1502(29) 0.0345 Uiso
C14_3 C 0.1679(21) 0.0526(13) 0.2749(29) 0.0051 Uiso
O2_3 O 0.1806(27) 0.1643(11) 0.1414(49) 0.0801 Uiso
H6_3 H 0.152761 0.0965668 0.316012 . .
Al1_3 Al 0.2456(10) 0.1817(11) 0.8719(20) 0.0164 Uiso
C1_3 C 0.2952(18) 0.1136(10) 0.6290(24) 0.0051 Uiso
C5_3 C 0.2974(24) 0.05154(96) 0.5598(21) 0.0051 Uiso
C6_3 C 0.2830(25) 0.0019(23) 0.6338(27) 0.0051 Uiso
C10 C 0.3171(36) 0.0450(13) 0.4339(31) 0.0589 Uiso
O3_3 O 0.2588(23) 0.1258(19) 0.7241(21) 0.0051 Uiso
O5_3 O 0.3056(22) 0.1588(13) 0.5592(47) 0.0152 Uiso
O7_3 O 0.2347(20) 0.1103(20) 0.9923(21) 0.0087 Uiso
O8_3 O 0.2297(22) 0.2449(20) 0.9808(32) 0.0051 Uiso
O12_3 O 0.3357(11) 0.1806(27) 0.8914(49) 0.0801 Uiso
O14_3 O 0.1588(13) 0.1944(22) 0.8092(47) 0.0152 Uiso
O16_3 O 0.2551(20) 0.2297(22) 0.7308(32) 0.0051 Uiso
H3 H 0.325241 0.0865113 0.376478 . .
H7_3 H 0.265968 0.00524486 0.732351 . .
C3_3 C 0.2029(16) 0.8879(11) 0.0804(27) 0.0051 Uiso
C11_3 C 0.1852(16) 0.9435(11) 0.1611(23) 0.0395 Uiso
C12_3 C 0.2073(19) 0.9929(18) 0.0910(25) 0.0051 Uiso
C15_3 C 0.1578(20) 0.9971(25) 0.3439(31) 0.0185 Uiso
C16_3 C 0.1548(20) 0.9391(12) 0.2816(25) 0.0051 Uiso
O1_3 O 0.1803(25) 0.8425(13) 0.1328(60) 0.0051 Uiso
H2_3 H 0.152174 0.999154 0.448094 . .
H8_3 H 0.132666 0.897592 0.319968 . .
Al2_3 Al 0.2530(13) 0.8174(12) 0.8518(28) 0.0186 Uiso
C4_3 C 0.2949(13) 0.8830(21) 0.6368(33) 0.0522 Uiso
C7_3 C 0.2929(30) 0.9436(10) 0.5665(27) 0.0051 Uiso
C8 C 0.3184(32) 0.9319(10) 0.4419(28) 0.0454 Uiso
C9 C 0.3271(39) 0.9859(15) 0.3768(32) 0.0734 Uiso
O4_3 O 0.2503(24) 0.7545(26) 0.9688(53) 0.0315 Uiso
O6_3 O 0.3153(19) 0.8309(11) 0.5980(37) 0.0051 Uiso
O9_3 O 0.2392(21) 0.8835(20) 0.9831(30) 0.0051 Uiso
O10_3 O 0.2554(19) 0.8879(23) 0.7306(25) 0.0368 Uiso
O11_3 O 0.3425(13) 0.8197(25) 0.8828(60) 0.0051 Uiso
O13_3 O 0.2545(26) 0.7497(24) 0.7188(53) 0.0315 Uiso
O15_3 O 0.1691(11) 0.8153(19) 0.8480(37) 0.0051 Uiso
H1 H 0.329366 0.886021 0.40423 . .
H4_3 H 0.229974 0.987412 0.997914 . .
H5 H 0.342349 0.983813 0.27685 . .
C1_4 C 0.6136(10) 0.7048(18) 0.3790(24) 0.0051 Uiso
C2_4 C 0.6166(13) 0.7933(21) 0.8520(32) 0.0716 Uiso
C3_4 C 0.3879(11) 0.7971(16) 0.8304(27) 0.0051 Uiso
C4_4 C 0.3830(21) 0.7051(13) 0.3868(33) 0.0522 Uiso
C5_4 C 0.55154(96) 0.7026(24) 0.3098(21) 0.0051 Uiso
C6_4 C 0.5019(23) 0.7170(25) 0.3838(27) 0.0051 Uiso
C7_4 C 0.4436(10) 0.7071(30) 0.3165(27) 0.0051 Uiso
C8_2 C 0.4319(10) 0.6816(32) 0.1919(28) 0.0454 Uiso
C9_2 C 0.4859(15) 0.6729(39) 0.1268(32) 0.0734 Uiso
C10_2 C 0.5450(13) 0.6829(36) 0.1839(31) 0.0589 Uiso
C11_4 C 0.4435(11) 0.8148(16) 0.9111(23) 0.0395 Uiso
C12_4 C 0.4929(18) 0.7927(19) 0.8410(25) 0.0051 Uiso
C13_4 C 0.5520(11) 0.8019(19) 0.9002(29) 0.0345 Uiso
O2_4 O 0.6643(11) 0.8194(27) 0.8914(49) 0.0801 Uiso
O3_4 O 0.6258(19) 0.7412(23) 0.4741(21) 0.0051 Uiso
O7_4 O 0.6103(20) 0.7653(20) 0.7423(21) 0.0087 Uiso
O8_4 O 0.7449(20) 0.7703(22) 0.7308(32) 0.0051 Uiso
O9_4 O 0.3835(20) 0.7608(21) 0.7331(30) 0.0051 Uiso
O10_4 O 0.3879(23) 0.7446(19) 0.4806(25) 0.0368 Uiso
Al4_3 Al 0.7544(10) 0.8183(11) 0.8719(20) 0.0164 Uiso
O14_4 O 0.6944(22) 0.8412(13) 0.5592(47) 0.0152 Uiso
H1_2 H 0.386021 0.670634 0.15423 . .
H3_2 H 0.586511 0.674759 0.126478 . .
H4_4 H 0.487412 0.770026 0.747914 . .
H5_2 H 0.483813 0.657651 0.0268504 . .
H7_4 H 0.505245 0.734032 0.482351 . .
C2_5 C 0.1166(13) 0.2933(21) 0.3520(32) 0.0716 Uiso
C13_5 C 0.0520(11) 0.3019(19) 0.4002(29) 0.0345 Uiso
C14_4 C 0.0526(13) 0.3321(21) 0.5249(29) 0.0051 Uiso
O7_5 O 0.1103(20) 0.2653(20) 0.2423(21) 0.0087 Uiso
H6_4 H 0.0965668 0.347239 0.566012 . .
C1_5 C 0.1136(10) 0.2048(18) 0.8790(24) 0.0051 Uiso
C5_5 C 0.05154(96) 0.2026(24) 0.8098(21) 0.0051 Uiso
C6_5 C 0.0019(23) 0.2170(25) 0.8838(27) 0.0051 Uiso
C10_3 C 0.0450(13) 0.1829(36) 0.6839(31) 0.0589 Uiso
O3_5 O 0.1258(19) 0.2412(23) 0.9741(21) 0.0051 Uiso
H3_3 H 0.0865113 0.174759 0.626478 . .
H7_5 H 0.00524486 0.234032 0.982351 . .
C3_5 C 0.8879(11) 0.2971(16) 0.3304(27) 0.0051 Uiso
C11_5 C 0.9435(11) 0.3148(16) 0.4111(23) 0.0395 Uiso
C12_5 C 0.9929(18) 0.2927(19) 0.3410(25) 0.0051 Uiso
C15_4 C 0.9971(25) 0.3422(20) 0.5939(31) 0.0185 Uiso
C16_4 C 0.9391(12) 0.3452(20) 0.5316(25) 0.0051 Uiso
O9_5 O 0.8835(20) 0.2608(21) 0.2331(30) 0.0051 Uiso
O11_4 O 0.8197(25) 0.1575(13) 0.1328(60) 0.0051 Uiso
H2_4 H 0.999154 0.347826 0.698094 . .
H4_5 H 0.987412 0.270026 0.247914 . .
H8_4 H 0.897592 0.367334 0.569968 . .
C4_5 C 0.8830(21) 0.2051(13) 0.8868(33) 0.0522 Uiso
C7_5 C 0.9436(10) 0.2071(30) 0.8165(27) 0.0051 Uiso
C8_3 C 0.9319(10) 0.1816(32) 0.6919(28) 0.0454 Uiso
C9_3 C 0.9859(15) 0.1729(39) 0.6268(32) 0.0734 Uiso
O6_4 O 0.8309(11) 0.1847(19) 0.8480(37) 0.0051 Uiso
O10_5 O 0.8879(23) 0.2446(19) 0.9806(25) 0.0368 Uiso
Al6_3 Al 0.7470(13) 0.1826(12) 0.8518(28) 0.0186 Uiso
O13_4 O 0.7497(24) 0.2455(26) 0.9688(53) 0.0315 Uiso
H1_3 H 0.886021 0.170634 0.65423 . .
H5_3 H 0.983813 0.157651 0.52685 . .
C1_6 C 0.3864(10) 0.2952(18) 0.3790(24) 0.0051 Uiso
C2_6 C 0.3834(13) 0.2067(21) 0.8520(32) 0.0716 Uiso
C3_6 C 0.6121(11) 0.2029(16) 0.8304(27) 0.0051 Uiso
C4_6 C 0.6170(21) 0.2949(13) 0.3868(33) 0.0522 Uiso
C5_6 C 0.44846(96) 0.2974(24) 0.3098(21) 0.0051 Uiso
C6_6 C 0.4981(23) 0.2830(25) 0.3838(27) 0.0051 Uiso
C7_6 C 0.5564(10) 0.2929(30) 0.3165(27) 0.0051 Uiso
C8_4 C 0.5681(10) 0.3184(32) 0.1919(28) 0.0454 Uiso
C9_4 C 0.5141(15) 0.3271(39) 0.1268(32) 0.0734 Uiso
C10_4 C 0.4550(13) 0.3171(36) 0.1839(31) 0.0589 Uiso
C11_6 C 0.5565(11) 0.1852(16) 0.9111(23) 0.0395 Uiso
C12_6 C 0.5071(18) 0.2073(19) 0.8410(25) 0.0051 Uiso
C13_6 C 0.4480(11) 0.1981(19) 0.9002(29) 0.0345 Uiso
O1_4 O 0.6575(13) 0.1803(25) 0.8828(60) 0.0051 Uiso
O3_6 O 0.3742(19) 0.2588(23) 0.4741(21) 0.0051 Uiso
O4_4 O 0.7455(26) 0.2503(24) 0.7188(53) 0.0315 Uiso
O7_6 O 0.3897(20) 0.2347(20) 0.7423(21) 0.0087 Uiso
O9_6 O 0.6165(20) 0.2392(21) 0.7331(30) 0.0051 Uiso
O10_6 O 0.6121(23) 0.2554(19) 0.4806(25) 0.0368 Uiso
O15_4 O 0.6847(19) 0.1691(11) 0.5980(37) 0.0051 Uiso
H1_4 H 0.613979 0.329366 0.15423 . .
H3_4 H 0.413489 0.325241 0.126478 . .
H4_6 H 0.512588 0.229974 0.747914 . .
H5_4 H 0.516187 0.342349 0.0268504 . .
H7_6 H 0.494755 0.265968 0.482351 . .
C3_7 C 0.1121(11) 0.7029(16) 0.3304(27) 0.0051 Uiso
C11_7 C 0.0565(11) 0.6852(16) 0.4111(23) 0.0395 Uiso
C12_7 C 0.0071(18) 0.7073(19) 0.3410(25) 0.0051 Uiso
C15_5 C 0.0029(25) 0.6578(20) 0.5939(31) 0.0185 Uiso
C16_5 C 0.0609(12) 0.6548(20) 0.5316(25) 0.0051 Uiso
O9_7 O 0.1165(20) 0.7392(21) 0.2331(30) 0.0051 Uiso
H2_5 H 0.000845863 0.652174 0.698094 . .
H4_7 H 0.0125885 0.729974 0.247914 . .
H8_5 H 0.102408 0.632666 0.569968 . .
C4_7 C 0.1170(21) 0.7949(13) 0.8868(33) 0.0522 Uiso
C7_7 C 0.0564(10) 0.7929(30) 0.8165(27) 0.0051 Uiso
C8_5 C 0.0681(10) 0.8184(32) 0.6919(28) 0.0454 Uiso
C9_5 C 0.0141(15) 0.8271(39) 0.6268(32) 0.0734 Uiso
O10_7 O 0.1121(23) 0.7554(19) 0.9806(25) 0.0368 Uiso
H1_5 H 0.113979 0.829366 0.65423 . .
H5_5 H 0.0161872 0.842349 0.52685 . .
C2_7 C 0.8834(13) 0.7067(21) 0.3520(32) 0.0716 Uiso
C13_7 C 0.9480(11) 0.6981(19) 0.4002(29) 0.0345 Uiso
C14_5 C 0.9474(13) 0.6679(21) 0.5249(29) 0.0051 Uiso
O7_7 O 0.8897(20) 0.7347(20) 0.2423(21) 0.0087 Uiso
O12_4 O 0.8194(27) 0.8357(11) 0.1414(49) 0.0801 Uiso
H6_5 H 0.903433 0.652761 0.566012 . .
C1_7 C 0.8864(10) 0.7952(18) 0.8790(24) 0.0051 Uiso
C5_7 C 0.94846(96) 0.7974(24) 0.8098(21) 0.0051 Uiso
C6_7 C 0.9981(23) 0.7830(25) 0.8838(27) 0.0051 Uiso
C10_5 C 0.9550(13) 0.8171(36) 0.6839(31) 0.0589 Uiso
O3_7 O 0.8742(19) 0.7588(23) 0.9741(21) 0.0051 Uiso
O5_4 O 0.8412(13) 0.8056(22) 0.8092(47) 0.0152 Uiso
O16_4 O 0.7703(22) 0.7551(20) 0.9808(32) 0.0051 Uiso
H3_5 H 0.913489 0.825241 0.626478 . .
H7_7 H 0.994755 0.765968 0.982351 . .
C3_8 C 0.7971(16) 0.1121(11) 0.0804(27) 0.0051 Uiso
C11_8 C 0.8148(16) 0.0565(11) 0.1611(23) 0.0395 Uiso
C12_8 C 0.7927(19) 0.0071(18) 0.0910(25) 0.0051 Uiso
C15_6 C 0.8422(20) 0.0029(25) 0.3439(31) 0.0185 Uiso
C16_6 C 0.8452(20) 0.0609(12) 0.2816(25) 0.0051 Uiso
H2_6 H 0.847826 0.000845863 0.448094 . .
H8_6 H 0.867334 0.102408 0.319968 . .
C4_8 C 0.7051(13) 0.1170(21) 0.6368(33) 0.0522 Uiso
C7_8 C 0.7071(30) 0.0564(10) 0.5665(27) 0.0051 Uiso
C8_6 C 0.6816(32) 0.0681(10) 0.4419(28) 0.0454 Uiso
C9_6 C 0.6729(39) 0.0141(15) 0.3768(32) 0.0734 Uiso
O9_8 O 0.7608(21) 0.1165(20) 0.9831(30) 0.0051 Uiso
O10_8 O 0.7446(19) 0.1121(23) 0.7306(25) 0.0368 Uiso
H1_6 H 0.670634 0.113979 0.40423 . .
H4_8 H 0.770026 0.0125885 0.997914 . .
H5_6 H 0.657651 0.0161872 0.27685 . .
C2_8 C 0.7933(21) 0.8834(13) 0.1020(32) 0.0716 Uiso
C13_8 C 0.8019(19) 0.9480(11) 0.1502(29) 0.0345 Uiso
C14_6 C 0.8321(21) 0.9474(13) 0.2749(29) 0.0051 Uiso
H6_6 H 0.847239 0.903433 0.316012 . .
C1_8 C 0.7048(18) 0.8864(10) 0.6290(24) 0.0051 Uiso
C5_8 C 0.7026(24) 0.94846(96) 0.5598(21) 0.0051 Uiso
C6_8 C 0.7170(25) 0.9981(23) 0.6338(27) 0.0051 Uiso
C10_6 C 0.6829(36) 0.9550(13) 0.4339(31) 0.0589 Uiso
O3_8 O 0.7412(23) 0.8742(19) 0.7241(21) 0.0051 Uiso
O7_8 O 0.7653(20) 0.8897(20) 0.9923(21) 0.0087 Uiso
H3_6 H 0.674759 0.913489 0.376478 . .
H7_8 H 0.734032 0.994755 0.732351 . .
C8_7 C 0.1816(32) 0.5681(10) 0.9419(28) 0.0454 Uiso
C9_7 C 0.1729(39) 0.5141(15) 0.8768(32) 0.0734 Uiso
C10_7 C 0.1829(36) 0.4550(13) 0.9339(31) 0.0589 Uiso
H1_7 H 0.170634 0.613979 0.90423 . .
H3_7 H 0.174759 0.413489 0.876478 . .
H5_7 H 0.157651 0.516187 0.77685 . .
C8_8 C 0.8184(32) 0.4319(10) 0.9419(28) 0.0454 Uiso
C9_8 C 0.8271(39) 0.4859(15) 0.8768(32) 0.0734 Uiso
C10_8 C 0.8171(36) 0.5450(13) 0.9339(31) 0.0589 Uiso
H1_8 H 0.829366 0.386021 0.90423 . .
H3_8 H 0.825241 0.586511 0.876478 . .
H5_8 H 0.842349 0.483813 0.77685 . .
C14_7 C 0.5526(13) 0.8321(21) 0.0249(29) 0.0051 Uiso
C15_7 C 0.4971(25) 0.8422(20) 0.0939(31) 0.0185 Uiso
C16_7 C 0.4391(12) 0.8452(20) 0.0316(25) 0.0051 Uiso
H2_7 H 0.499154 0.847826 0.198094 . .
H6_7 H 0.596567 0.847239 0.0660122 . .
H8_7 H 0.397592 0.867334 0.0699675 . .
C14_8 C 0.4474(13) 0.1679(21) 0.0249(29) 0.0051 Uiso
C15_8 C 0.5029(25) 0.1578(20) 0.0939(31) 0.0185 Uiso
C16_8 C 0.5609(12) 0.1548(20) 0.0316(25) 0.0051 Uiso
H2_8 H 0.500846 0.152174 0.198094 . .
H6_8 H 0.403433 0.152761 0.0660122 . .
H8_8 H 0.602408 0.132666 0.0699675 . .
loop_
_geom_bond_atom_site_label_1
_geom_bond_atom_site_label_2
_geom_bond_site_symmetry_1
_geom_bond_site_symmetry_2
Al1 O3 1_555 1_555
Al2 O4 1_555 1_555
C1 C5 1_555 1_555
C2 C13 1_555 1_555
C3 C11 1_555 1_555
C4 C7 1_555 1_555
C5 C6 1_555 1_555
C6 C7 1_555 1_555
C11 C12 1_555 1_555
C12 C13 1_555 1_555
C13 C14 1_555 1_555
C14 C15 1_555 1_555
C15 C16 1_555 1_555
C16 C11 1_555 1_555
O1 C3 1_555 1_555
O2 C2 1_555 1_555
O3 C1 1_555 1_555
O4 Al5 1_555 1_555
O5 C1 1_555 1_555
O6 C4 1_555 1_555
O7 Al1 1_555 1_555
O8 Al1 1_555 1_555
O9 Al2 1_555 1_555
O10 Al2 1_555 1_555
Al3 O5 1_555 1_555
Al4 O2 1_555 1_555
Al5 O1 1_555 1_555
Al6 O6 1_555 1_555
O11 Al2 1_555 1_555
O12 Al1 1_555 1_555
O13 Al2 1_555 1_555
O14 Al1 1_555 1_555
O15 Al2 1_555 1_555
O16 Al1 1_555 1_555
C2 O7 1_555 1_555
C3 O9 1_555 1_555
C4 O10 1_555 1_555
O8 Al4 1_555 1_555
Al3 O16 1_555 1_555
Al6 O13 1_555 1_555
C15 H2 1_555 1_555
C12 H4 1_555 1_555
C14 H6 1_555 1_555
C6 H7 1_555 1_555
C16 H8 1_555 1_555
Al1_2 O3_2 1_555 1_555
Al2_2 O4_2 1_555 1_555
C1_2 C5_2 1_555 1_555
C2_2 C13_2 1_555 1_555
C3_2 C11_2 1_555 1_555
C4_2 C7_2 1_555 1_555
C5_2 C6_2 1_555 1_555
C6_2 C7_2 1_555 1_555
C11_2 C12_2 1_555 1_555
C12_2 C13_2 1_555 1_555
C13_2 C14_2 1_555 1_555
C14_2 C15_2 1_555 1_555
C15_2 C16_2 1_555 1_555
C16_2 C11_2 1_555 1_555
O1_2 C3_2 1_555 1_555
O2_2 C2_2 1_555 1_555
O3_2 C1_2 1_555 1_555
O4_2 Al5_2 1_555 1_555
O5_2 C1_2 1_555 1_555
O6_2 C4_2 1_555 1_555
O7_2 Al1_2 1_555 1_555
O8_2 Al1_2 1_555 1_555
O9_2 Al2_2 1_555 1_555
O10_2 Al2_2 1_555 1_555
Al3_2 O5_2 1_555 1_555
Al4_2 O2_2 1_555 1_555
Al5_2 O1_2 1_555 1_555
Al6_2 O6_2 1_555 1_555
O11_2 Al2_2 1_555 1_555
O12_2 Al1_2 1_555 1_555
O13_2 Al2_2 1_555 1_555
O14_2 Al1_2 1_555 1_555
O15_2 Al2_2 1_555 1_555
O16_2 Al1_2 1_555 1_555
C2_2 O7_2 1_555 1_555
C3_2 O9_2 1_555 1_555
C4_2 O10_2 1_555 1_555
O8_2 Al4_2 1_555 1_555
Al3_2 O16_2 1_555 1_555
Al6_2 O13_2 1_555 1_555
C15_2 H2_2 1_555 1_555
C12_2 H4_2 1_555 1_555
C14_2 H6_2 1_555 1_555
C6_2 H7_2 1_555 1_555
C16_2 H8_2 1_555 1_555
C2_3 C13_3 1_555 1_555
C13_3 C14_3 1_555 1_555
O2_3 C2_3 1_555 1_555
Al3 O2_3 1_555 1_555
C14_3 H6_3 1_555 1_555
Al1_3 O3_3 1_555 1_555
C1_3 C5_3 1_555 1_555
C5_3 C6_3 1_555 1_555
C10 C5_3 1_555 1_555
O3_3 C1_3 1_555 1_555
O5_3 C1_3 1_555 1_555
O7_3 Al1_3 1_555 1_555
O8_3 Al1_3 1_555 1_555
Al4 O5_3 1_555 1_555
O12_3 Al1_3 1_555 1_555
O14_3 Al1_3 1_555 1_555
O16_3 Al1_3 1_555 1_555
Al4 O16_3 1_555 1_555
C10 H3 1_555 1_555
C6_3 H7_3 1_555 1_555
C3_3 C11_3 1_555 1_555
C11_3 C12_3 1_555 1_555
C15_3 C16_3 1_555 1_555
C16_3 C11_3 1_555 1_555
O1_3 C3_3 1_555 1_555
Al6 O1_3 1_555 1_555
C15_3 H2_3 1_555 1_555
C16_3 H8_3 1_555 1_555
Al2_3 O4_3 1_555 1_555
C4_3 C7_3 1_555 1_555
C7_3 C8 1_555 1_555
C8 C9 1_555 1_555
O6_3 C4_3 1_555 1_555
O9_3 Al2_3 1_555 1_555
O10_3 Al2_3 1_555 1_555
Al5 O6_3 1_555 1_555
O11_3 Al2_3 1_555 1_555
O13_3 Al2_3 1_555 1_555
O15_3 Al2_3 1_555 1_555
C4_3 O10_3 1_555 1_555
Al5 O13_3 1_555 1_555
C8 H1 1_555 1_555
C9 H5 1_555 1_555
Al4_2 O3_4 1_555 1_555
C1_4 C5_4 1_555 1_555
C2_4 C13_4 1_555 1_555
C3_4 C11_4 1_555 1_555
C4_4 C7_4 1_555 1_555
C5_4 C6_4 1_555 1_555
C6_4 C7_4 1_555 1_555
C7_4 C8_2 1_555 1_555
C8_2 C9_2 1_555 1_555
C9_2 C10_2 1_555 1_555
C10_2 C5_4 1_555 1_555
C11_4 C12_4 1_555 1_555
C12_4 C13_4 1_555 1_555
O11_3 C3_4 1_555 1_555
O2_4 C2_4 1_555 1_555
O3_4 C1_4 1_555 1_555
O14_2 C1_4 1_555 1_555
O15 C4_4 1_555 1_555
O7_4 Al4_2 1_555 1_555
O8_4 Al4_2 1_555 1_555
O9_4 Al5 1_555 1_555
O10_4 Al5 1_555 1_555
Al4_3 O2_4 1_555 1_555
O14_4 Al4_2 1_555 1_555
C2_4 O7_4 1_555 1_555
C3_4 O9_4 1_555 1_555
C4_4 O10_4 1_555 1_555
O8_4 Al4_3 1_555 1_555
C8_2 H1_2 1_555 1_555
C10_2 H3_2 1_555 1_555
C12_4 H4_4 1_555 1_555
C9_2 H5_2 1_555 1_555
C6_4 H7_4 1_555 1_555
C2_5 C13_5 1_555 1_555
C13_5 C14_4 1_555 1_555
O12 C2_5 1_555 1_555
O7_5 Al3 1_555 1_555
C2_5 O7_5 1_555 1_555
C14_4 H6_4 1_555 1_555
C1_5 C5_5 1_555 1_555
C5_5 C6_5 1_555 1_555
C10_3 C5_5 1_555 1_555
O3_5 C1_5 1_555 1_555
O14_3 C1_5 1_555 1_555
C10_3 H3_3 1_555 1_555
C6_5 H7_5 1_555 1_555
C3_5 C11_5 1_555 1_555
C11_5 C12_5 1_555 1_555
C15_4 C16_4 1_555 1_555
C16_4 C11_5 1_555 1_555
O11_2 C3_5 1_555 1_555
O9_5 Al6_2 1_555 1_555
O11_4 Al6_2 1_555 1_555
C3_5 O9_5 1_555 1_555
C15_4 H2_4 1_555 1_555
C12_5 H4_5 1_555 1_555
C16_4 H8_4 1_555 1_555
C4_5 C7_5 1_555 1_555
C7_5 C8_3 1_555 1_555
C8_3 C9_3 1_555 1_555
O6_4 C4_5 1_555 1_555
Al6_3 O6_4 1_555 1_555
C4_5 O10_5 1_555 1_555
Al6_3 O13_4 1_555 1_555
C8_3 H1_3 1_555 1_555
C9_3 H5_3 1_555 1_555
Al4 O3_6 1_555 1_555
Al5_2 O4_4 1_555 1_555
C1_6 C5_6 1_555 1_555
C2_6 C13_6 1_555 1_555
C3_6 C11_6 1_555 1_555
C4_6 C7_6 1_555 1_555
C5_6 C6_6 1_555 1_555
C6_6 C7_6 1_555 1_555
C7_6 C8_4 1_555 1_555
C8_4 C9_4 1_555 1_555
C9_4 C10_4 1_555 1_555
C10_4 C5_6 1_555 1_555
C11_6 C12_6 1_555 1_555
C12_6 C13_6 1_555 1_555
O1_4 C3_6 1_555 1_555
O12_3 C2_6 1_555 1_555
O3_6 C1_6 1_555 1_555
O4_4 Al6_3 1_555 1_555
O14 C1_6 1_555 1_555
O15_2 C4_6 1_555 1_555
O7_6 Al4 1_555 1_555
O9_6 Al5_2 1_555 1_555
O10_6 Al5_2 1_555 1_555
Al6_3 O1_4 1_555 1_555
O15_4 Al5_2 1_555 1_555
C2_6 O7_6 1_555 1_555
C3_6 O9_6 1_555 1_555
C4_6 O10_6 1_555 1_555
C8_4 H1_4 1_555 1_555
C10_4 H3_4 1_555 1_555
C12_6 H4_6 1_555 1_555
C9_4 H5_4 1_555 1_555
C6_6 H7_6 1_555 1_555
C3_7 C11_7 1_555 1_555
C11_7 C12_7 1_555 1_555
C15_5 C16_5 1_555 1_555
C16_5 C11_7 1_555 1_555
O11 C3_7 1_555 1_555
O9_7 Al6 1_555 1_555
C3_7 O9_7 1_555 1_555
C15_5 H2_5 1_555 1_555
C12_7 H4_7 1_555 1_555
C16_5 H8_5 1_555 1_555
C4_7 C7_7 1_555 1_555
C7_7 C8_5 1_555 1_555
C8_5 C9_5 1_555 1_555
O15_3 C4_7 1_555 1_555
C4_7 O10_7 1_555 1_555
C8_5 H1_5 1_555 1_555
C9_5 H5_5 1_555 1_555
C2_7 C13_7 1_555 1_555
C13_7 C14_5 1_555 1_555
O12_2 C2_7 1_555 1_555
O7_7 Al3_2 1_555 1_555
O12_4 Al3_2 1_555 1_555
C2_7 O7_7 1_555 1_555
C14_5 H6_5 1_555 1_555
C1_7 C5_7 1_555 1_555
C5_7 C6_7 1_555 1_555
C10_5 C5_7 1_555 1_555
O3_7 C1_7 1_555 1_555
O5_4 C1_7 1_555 1_555
Al4_3 O5_4 1_555 1_555
Al4_3 O16_4 1_555 1_555
C10_5 H3_5 1_555 1_555
C6_7 H7_7 1_555 1_555
C3_8 C11_8 1_555 1_555
C11_8 C12_8 1_555 1_555
C15_6 C16_6 1_555 1_555
C16_6 C11_8 1_555 1_555
O11_4 C3_8 1_555 1_555
C15_6 H2_6 1_555 1_555
C16_6 H8_6 1_555 1_555
C4_8 C7_8 1_555 1_555
C7_8 C8_6 1_555 1_555
C8_6 C9_6 1_555 1_555
O15_4 C4_8 1_555 1_555
O9_8 Al6_3 1_555 1_555
O10_8 Al6_3 1_555 1_555
C4_8 O10_8 1_555 1_555
C8_6 H1_6 1_555 1_555
C9_6 H5_6 1_555 1_555
C2_8 C13_8 1_555 1_555
C13_8 C14_6 1_555 1_555
O12_4 C2_8 1_555 1_555
C14_6 H6_6 1_555 1_555
Al4_3 O3_8 1_555 1_555
C1_8 C5_8 1_555 1_555
C5_8 C6_8 1_555 1_555
C10_6 C5_8 1_555 1_555
O3_8 C1_8 1_555 1_555
O14_4 C1_8 1_555 1_555
O7_8 Al4_3 1_555 1_555
C10_6 H3_6 1_555 1_555
C6_8 H7_8 1_555 1_555
C8_7 C9_7 1_555 1_555
C9_7 C10_7 1_555 1_555
C8_7 H1_7 1_555 1_555
C10_7 H3_7 1_555 1_555
C9_7 H5_7 1_555 1_555
C8_8 C9_8 1_555 1_555
C9_8 C10_8 1_555 1_555
C8_8 H1_8 1_555 1_555
C10_8 H3_8 1_555 1_555
C9_8 H5_8 1_555 1_555
C14_7 C15_7 1_555 1_555
C15_7 C16_7 1_555 1_555
C15_7 H2_7 1_555 1_555
C14_7 H6_7 1_555 1_555
C16_7 H8_7 1_555 1_555
C14_8 C15_8 1_555 1_555
C15_8 C16_8 1_555 1_555
C15_8 H2_8 1_555 1_555
C14_8 H6_8 1_555 1_555
C16_8 H8_8 1_555 1_555

#END
