
###############################################################################
#
# This file contains modified crystal structure data generated from the
# MOF subset of the Cambridge Structural Database (CSD) v543 
# hosted by the Cambridge Crystallographic Data Centre (CCDC).
#
# This work is licensed under the Creative Commons
# Attribution-NonCommercial-ShareAlike 4.0 International License.
# To view a copy of this license, visit
# http://creativecommons.org/licenses/by-nc-sa/4.0/
# or send a letter to
# Creative Commons, PO Box 1866, Mountain View, CA 94042, USA.
#
# CIF created using the CSD Python API on 29 September 2022
# The structure has been converted into the P1 space group
# The structure has a 3D framework
# The original CSD entry CELZEA is in the monoclinic crystal system
# The framework has been calculated to contain at least 10.0% void space
# The void calculation uses a probe of radius 1.32A, grid spacing 0.4
#
###############################################################################

data_CELZEA
_chemical_formula_moiety         '(C32 H48 Mo8 O44 P8)n'
_symmetry_cell_setting           triclinic
_symmetry_space_group_name_H-M   'P 1'
_symmetry_Int_Tables_number      1
_space_group_name_Hall           'P 1'
loop_
_symmetry_equiv_pos_site_id
_symmetry_equiv_pos_as_xyz
1 x,y,z
_cell_length_a                   20.8424(8)
_cell_length_b                   10.6114(3)
_cell_length_c                   9.0023(4)
_cell_angle_alpha                90
_cell_angle_beta                 111.686(4)
_cell_angle_gamma                90
_cell_volume                     1850.09
loop_
_atom_site_label
_atom_site_type_symbol
_atom_site_fract_x
_atom_site_fract_y
_atom_site_fract_z
Mo1 Mo 0.234976(11) 0.64843(2) 0.23633(2)
P1 P 0.30926(3) 0.40483(6) 0.46108(7)
O1 O 0.28788(8) 0.48920(15) 0.31161(17)
O2 O 0.25240(8) 0.39869(15) 0.52654(17)
O3 O 0.32820(8) 0.27473(15) 0.41328(18)
O4 O 0.30312(8) 0.74517(15) 0.31525(18)
O5 O 0.19576(9) 0.64819(17) 0.37088(19)
O6 O 0.14801(9) 0.50823(16) 0.09369(19)
C1 C 0.38574(12) 0.4670(3) 0.6088(3)
H1 H 0.3747 0.5496 0.6446
H2 H 0.4005 0.4099 0.7024
C2 C 0.44540(12) 0.4840(2) 0.5530(3)
C3 C 0.46653(13) 0.6033(2) 0.5299(3)
H3 H 0.4436 0.6750 0.5499
C4 C 0.52074(13) 0.6198(2) 0.4780(3)
H4 H 0.5349 0.7025 0.4634
H5 H 0.1210(15) 0.466(3) 0.147(4)
H6 H 0.1649(19) 0.438(2) 0.049(4)
P2 P 0.69074(3) 0.59517(6) 0.53892(7)
O7 O 0.71212(8) 0.51080(15) 0.68839(17)
O8 O 0.74760(8) 0.60131(15) 0.47346(17)
O9 O 0.67180(8) 0.72527(15) 0.58672(18)
C5 C 0.61426(12) 0.5330(3) 0.3912(3)
H7 H 0.6253 0.4504 0.3554
H8 H 0.5995 0.5901 0.2976
C6 C 0.55460(12) 0.5160(2) 0.4470(3)
C7 C 0.53347(13) 0.3967(2) 0.4701(3)
H9 H 0.5564 0.3250 0.4501
C8 C 0.47926(13) 0.3802(2) 0.5220(3)
H10 H 0.4651 0.2975 0.5366
Mo2 Mo 0.765024(11) 0.64843(2) 0.26367(2)
O10 O 0.69688(8) 0.74517(15) 0.18475(18)
O11 O 0.80424(9) 0.64819(17) 0.12912(19)
O12 O 0.85199(9) 0.50823(16) 0.40631(19)
H11 H 0.8790(15) 0.466(3) 0.353(4)
H12 H 0.8351(19) 0.438(2) 0.451(4)
Mo3 Mo 0.265024(11) 0.14843(2) 0.26367(2)
Mo4 Mo 0.765024(11) 0.35157(2) 0.76367(2)
Mo5 Mo 0.234976(11) 0.35157(2) 0.73633(2)
Mo6 Mo 0.734976(11) 0.85157(2) 0.73633(2)
O13 O 0.71212(8) 0.48920(15) 0.18839(17)
O14 O 0.25240(8) 0.60131(15) 0.02654(17)
O15 O 0.82820(8) 0.77473(15) 0.41328(18)
O16 O 0.17180(8) 0.77473(15) 0.08672(18)
P1_2 P 0.69074(3) 0.40483(6) 0.03892(7)
O3_2 O 0.67180(8) 0.27473(15) 0.08672(18)
C4_2 C 0.47926(13) 0.6198(2) 0.0220(3)
H4_2 H 0.4651 0.7025 0.0366
C5_2 C 0.38574(12) 0.5330(3) 0.1088(3)
H7_2 H 0.3747 0.4504 0.1446
H8_2 H 0.4005 0.5901 0.2024
C6_2 C 0.44540(12) 0.5160(2) 0.0530(3)
C7_2 C 0.46653(13) 0.3967(2) 0.0299(3)
H9_2 H 0.4436 0.3250 0.0499
Mo3_2 Mo 0.734976(11) 0.14843(2) 0.23633(2)
O2_2 O 0.74760(8) 0.39869(15) 0.97346(17)
C1_2 C 0.61426(12) 0.4670(3) 0.8912(3)
H1_2 H 0.6253 0.5496 0.8554
H2_2 H 0.5995 0.4099 0.7976
C2_2 C 0.55460(12) 0.4840(2) 0.9470(3)
C3_2 C 0.53347(13) 0.6033(2) 0.9701(3)
H3_2 H 0.5564 0.6750 0.9501
P2_2 P 0.30926(3) 0.59517(6) 0.96108(7)
O7_2 O 0.28788(8) 0.51080(15) 0.81161(17)
O9_2 O 0.32820(8) 0.72527(15) 0.91328(18)
C8_2 C 0.52074(13) 0.3802(2) 0.9780(3)
H10_2 H 0.5349 0.2975 0.9634
Mo6_2 Mo 0.265024(11) 0.85157(2) 0.76367(2)
C4_3 C 0.02074(13) 0.1198(2) 0.4780(3)
H4_3 H 0.0349 0.2025 0.4634
P2_3 P 0.19074(3) 0.09517(6) 0.53892(7)
O7_3 O 0.21212(8) 0.01080(15) 0.68839(17)
O8_2 O 0.24760(8) 0.10131(15) 0.47346(17)
O9_3 O 0.17180(8) 0.22527(15) 0.58672(18)
C5_3 C 0.11426(12) 0.0330(3) 0.3912(3)
H8_3 H 0.0995 0.0901 0.2976
C6_3 C 0.05460(12) 0.0160(2) 0.4470(3)
O10_2 O 0.19688(8) 0.24517(15) 0.18475(18)
O11_2 O 0.30424(9) 0.14819(17) 0.12912(19)
O12_2 O 0.35199(9) 0.00823(16) 0.40631(19)
H7_3 H 0.1253 0.9504 0.3554
C7_3 C 0.03347(13) 0.8967(2) 0.4701(3)
H9_3 H 0.0564 0.8250 0.4501
H11_2 H 0.3790(15) 0.966(3) 0.353(4)
H12_2 H 0.3351(19) 0.938(2) 0.451(4)
O13_2 O 0.21212(8) 0.98920(15) 0.18839(17)
O4_2 O 0.80312(8) 0.24517(15) 0.31525(18)
O5_2 O 0.69576(9) 0.14819(17) 0.37088(19)
O6_2 O 0.64801(9) 0.00823(16) 0.09369(19)
H1_3 H 0.8747 0.0496 0.6446
C3_3 C 0.96653(13) 0.1033(2) 0.5299(3)
H3_3 H 0.9436 0.1750 0.5499
O14_2 O 0.75240(8) 0.10131(15) 0.02654(17)
P1_3 P 0.80926(3) 0.90483(6) 0.46108(7)
O1_2 O 0.78788(8) 0.98920(15) 0.31161(17)
O2_3 O 0.75240(8) 0.89869(15) 0.52654(17)
C1_3 C 0.88574(12) 0.9670(3) 0.6088(3)
H2_3 H 0.9005 0.9099 0.7024
C2_3 C 0.94540(12) 0.9840(2) 0.5530(3)
H5_2 H 0.6210(15) 0.966(3) 0.147(4)
H6_2 H 0.6649(19) 0.938(2) 0.049(4)
C8_3 C 0.97926(13) 0.8802(2) 0.5220(3)
H10_3 H 0.9651 0.7975 0.5366
H1_4 H 0.1253 0.0496 0.8554
C3_4 C 0.03347(13) 0.1033(2) 0.9701(3)
H3_4 H 0.0564 0.1750 0.9501
P1_4 P 0.19074(3) 0.90483(6) 0.03892(7)
O2_4 O 0.24760(8) 0.89869(15) 0.97346(17)
C1_4 C 0.11426(12) 0.9670(3) 0.8912(3)
H2_4 H 0.0995 0.9099 0.7976
C2_4 C 0.05460(12) 0.9840(2) 0.9470(3)
C8_4 C 0.02074(13) 0.8802(2) 0.9780(3)
H10_4 H 0.0349 0.7975 0.9634
C4_4 C 0.97926(13) 0.1198(2) 0.0220(3)
H4_4 H 0.9651 0.2025 0.0366
C5_4 C 0.88574(12) 0.0330(3) 0.1088(3)
H8_4 H 0.9005 0.0901 0.2024
C6_4 C 0.94540(12) 0.0160(2) 0.0530(3)
P2_4 P 0.80926(3) 0.09517(6) 0.96108(7)
O7_4 O 0.78788(8) 0.01080(15) 0.81161(17)
O9_4 O 0.82820(8) 0.22527(15) 0.91328(18)
H7_4 H 0.8747 0.9504 0.1446
C7_4 C 0.96653(13) 0.8967(2) 0.0299(3)
H9_4 H 0.9436 0.8250 0.0499
O4_3 O 0.69688(8) 0.25483(15) 0.68475(18)
O5_3 O 0.80424(9) 0.35181(17) 0.62912(19)
O6_3 O 0.85199(9) 0.49177(16) 0.90631(19)
H5_3 H 0.8790(15) 0.534(3) 0.853(4)
H6_3 H 0.8351(19) 0.562(2) 0.951(4)
O10_3 O 0.30312(8) 0.25483(15) 0.81525(18)
O11_3 O 0.19576(9) 0.35181(17) 0.87088(19)
O12_3 O 0.14801(9) 0.49177(16) 0.59369(19)
H11_3 H 0.1210(15) 0.534(3) 0.647(4)
H12_3 H 0.1649(19) 0.562(2) 0.549(4)
H5_4 H 0.3790(15) 0.034(3) 0.853(4)
H6_4 H 0.3351(19) 0.062(2) 0.951(4)
O4_4 O 0.19688(8) 0.75483(15) 0.68475(18)
O5_4 O 0.30424(9) 0.85181(17) 0.62912(19)
O6_4 O 0.35199(9) 0.99177(16) 0.90631(19)
H11_4 H 0.6210(15) 0.034(3) 0.647(4)
H12_4 H 0.6649(19) 0.062(2) 0.549(4)
O10_4 O 0.80312(8) 0.75483(15) 0.81525(18)
O11_4 O 0.69576(9) 0.85181(17) 0.87088(19)
O12_4 O 0.64801(9) 0.99177(16) 0.59369(19)
loop_
_geom_bond_atom_site_label_1
_geom_bond_atom_site_label_2
_geom_bond_site_symmetry_1
_geom_bond_site_symmetry_2
Mo1 O1 1_555 1_555
P1 O1 1_555 1_555
O2 P1 1_555 1_555
O3 P1 1_555 1_555
O4 Mo1 1_555 1_555
O5 Mo1 1_555 1_555
O6 Mo1 1_555 1_555
C1 P1 1_555 1_555
H1 C1 1_555 1_555
H2 C1 1_555 1_555
C2 C1 1_555 1_555
C3 C2 1_555 1_555
H3 C3 1_555 1_555
C4 C3 1_555 1_555
H4 C4 1_555 1_555
H5 O6 1_555 1_555
H6 O6 1_555 1_555
P2 O7 1_555 1_555
O7 Mo4 1_555 1_555
O8 P2 1_555 1_555
O9 P2 1_555 1_555
C5 P2 1_555 1_555
H7 C5 1_555 1_555
H8 C5 1_555 1_555
C6 C4 1_555 1_555
C7 C6 1_555 1_555
H9 C7 1_555 1_555
C8 C2 1_555 1_555
H10 C8 1_555 1_555
Mo2 O8 1_555 1_555
O10 Mo2 1_555 1_555
O11 Mo2 1_555 1_555
O12 Mo2 1_555 1_555
H11 O12 1_555 1_555
H12 O12 1_555 1_555
Mo3 O3 1_555 1_555
Mo5 O2 1_555 1_555
Mo6 O9 1_555 1_555
O13 Mo2 1_555 1_555
O14 Mo1 1_555 1_555
O15 Mo2 1_555 1_555
O16 Mo1 1_555 1_555
C5 C6 1_555 1_555
C7 C8 1_555 1_555
P1_2 O13 1_555 1_555
O3_2 P1_2 1_555 1_555
H4_2 C4_2 1_555 1_555
H7_2 C5_2 1_555 1_555
H8_2 C5_2 1_555 1_555
C6_2 C4_2 1_555 1_555
C7_2 C6_2 1_555 1_555
H9_2 C7_2 1_555 1_555
Mo3_2 O3_2 1_555 1_555
C5_2 C6_2 1_555 1_555
H1_2 C1_2 1_555 1_555
H2_2 C1_2 1_555 1_555
C2_2 C1_2 1_555 1_555
C3_2 C2_2 1_555 1_555
H3_2 C3_2 1_555 1_555
P2_2 O7_2 1_555 1_555
O7_2 Mo5 1_555 1_555
O9_2 P2_2 1_555 1_555
C8_2 C2_2 1_555 1_555
H10_2 C8_2 1_555 1_555
Mo4 O2_2 1_555 1_555
Mo6_2 O9_2 1_555 1_555
H4_3 C4_3 1_555 1_555
P2_3 O7_3 1_555 1_555
O8_2 P2_3 1_555 1_555
O9_3 P2_3 1_555 1_555
C5_3 P2_3 1_555 1_555
H8_3 C5_3 1_555 1_555
C6_3 C4_3 1_555 1_555
Mo3 O8_2 1_555 1_555
O10_2 Mo3 1_555 1_555
O11_2 Mo3 1_555 1_555
O12_2 Mo3 1_555 1_555
Mo5 O9_3 1_555 1_555
C5_3 C6_3 1_555 1_555
H9_3 C7_3 1_555 1_555
O4_2 Mo3_2 1_555 1_555
O5_2 Mo3_2 1_555 1_555
O6_2 Mo3_2 1_555 1_555
H3_3 C3_3 1_555 1_555
O14_2 Mo3_2 1_555 1_555
P1_3 O1_2 1_555 1_555
O2_3 P1_3 1_555 1_555
O15 P1_3 1_555 1_555
C1_3 P1_3 1_555 1_555
H2_3 C1_3 1_555 1_555
C2_3 C1_3 1_555 1_555
C8_3 C2_3 1_555 1_555
H10_3 C8_3 1_555 1_555
Mo6 O2_3 1_555 1_555
H3_4 C3_4 1_555 1_555
P1_4 O13_2 1_555 1_555
O16 P1_4 1_555 1_555
H2_4 C1_4 1_555 1_555
C2_4 C1_4 1_555 1_555
C8_4 C2_4 1_555 1_555
H10_4 C8_4 1_555 1_555
Mo6_2 O2_4 1_555 1_555
H4_4 C4_4 1_555 1_555
H8_4 C5_4 1_555 1_555
C6_4 C4_4 1_555 1_555
C5_4 C6_4 1_555 1_555
P2_4 O7_4 1_555 1_555
O9_4 P2_4 1_555 1_555
Mo4 O9_4 1_555 1_555
H9_4 C7_4 1_555 1_555
O4_3 Mo4 1_555 1_555
O5_3 Mo4 1_555 1_555
O6_3 Mo4 1_555 1_555
H5_3 O6_3 1_555 1_555
H6_3 O6_3 1_555 1_555
O10_3 Mo5 1_555 1_555
O11_3 Mo5 1_555 1_555
O12_3 Mo5 1_555 1_555
H11_3 O12_3 1_555 1_555
H12_3 O12_3 1_555 1_555
O4_4 Mo6_2 1_555 1_555
O5_4 Mo6_2 1_555 1_555
O6_4 Mo6_2 1_555 1_555
O10_4 Mo6 1_555 1_555
O11_4 Mo6 1_555 1_555
O12_4 Mo6 1_555 1_555

#END
