
###############################################################################
#
# This file contains modified crystal structure data generated from the
# MOF subset of the Cambridge Structural Database (CSD) v543 
# hosted by the Cambridge Crystallographic Data Centre (CCDC).
#
# This work is licensed under the Creative Commons
# Attribution-NonCommercial-ShareAlike 4.0 International License.
# To view a copy of this license, visit
# http://creativecommons.org/licenses/by-nc-sa/4.0/
# or send a letter to
# Creative Commons, PO Box 1866, Mountain View, CA 94042, USA.
#
# CIF created using the CSD Python API on 29 September 2022
# The structure has been converted into the P1 space group
# The structure has a 3D framework
# The original CSD entry CELZIE is in the tetragonal crystal system
# The framework has been calculated to contain at least 10.0% void space
# The void calculation uses a probe of radius 1.32A, grid spacing 0.4
# H atom positions have been added when not included in the experimental data
#
###############################################################################

data_CELZIE
_chemical_formula_moiety         '(C144 H96 Al12 O84)n'
_symmetry_cell_setting           triclinic
_symmetry_space_group_name_H-M   'P 1'
_symmetry_Int_Tables_number      1
_space_group_name_Hall           'P 1'
loop_
_symmetry_equiv_pos_site_id
_symmetry_equiv_pos_as_xyz
1 x,y,z
_cell_length_a                   21.36092(26)
_cell_length_b                   21.36092(26)
_cell_length_c                   10.56985(20)
_cell_angle_alpha                90
_cell_angle_beta                 90
_cell_angle_gamma                90
_cell_volume                     4822.91
loop_
_atom_site_label
_atom_site_type_symbol
_atom_site_fract_x
_atom_site_fract_y
_atom_site_fract_z
_atom_site_U_iso_or_equiv
_atom_site_thermal_displace_type
Al1 Al 0.24061(21) 0.06675(22) 0.30403(46) 0.0168 Uiso
O1 O 0.65452(26) 0.06393(41) 0.18093(72) 0.0063 Uiso
O2 O 0.32487(23) 0.07042(39) 0.28602(70) 0.0063 Uiso
O3 O 0.38295(37) 0.01078(35) 0.42240(49) 0.0323 Uiso
O5 O 0.25076(40) 0.01209(37) 0.43601(99) 0.0063 Uiso
C1 C 0.54436(26) 0.04670(48) 0.20063(85) 0.0063 Uiso
C2 C 0.42109(29) 0.07129(55) 0.12478(76) 0.0063 Uiso
C3 C 0.61117(31) 0.04073(32) 0.24583(66) 0.0063 Uiso
C5 C 0.53258(28) 0.06730(50) 0.08123(84) 0.0063 Uiso
C6 C 0.49504(35) 0.03673(44) 0.2931(10) 0.0063 Uiso
C7 C 0.37462(29) 0.04456(32) 0.32504(66) 0.0396 Uiso
C8 C 0.43749(30) 0.05016(44) 0.24826(76) 0.0063 Uiso
C9 C 0.46981(38) 0.07772(56) 0.03962(72) 0.0640 Uiso
Al3 Al 0.31675(22) 0.00939(21) 0.55403(46) 0.0168 Uiso
Al4 Al 0.74061(21) 0.06675(22) 0.19597(46) 0.0168 Uiso
O7 O 0.15452(26) 0.06393(41) 0.31907(72) 0.0063 Uiso
O8 O 0.23922(35) 0.13295(37) 0.17240(49) 0.0323 Uiso
O9 O 0.24866(36) 0.13523(33) 0.42141(63) 0.0063 Uiso
O10 O 0.23791(37) 0.00076(40) 0.18601(99) 0.0063 Uiso
H1 H 0.372873 0.0817916 0.0989061 . .
H5 H 0.503674 0.0200965 0.388915 . .
H6 H 0.571378 0.0759362 0.0167118 . .
O4 O 0.61477(33) 0.99866(36) 0.32859(63) 0.0063 Uiso
Al2 Al 0.68325(22) 0.99061(21) 0.44597(46) 0.0168 Uiso
Al1_2 Al 0.75939(21) 0.43325(22) 0.30403(46) 0.0168 Uiso
O1_2 O 0.34548(26) 0.43607(41) 0.18093(72) 0.0063 Uiso
O2_2 O 0.67513(23) 0.42958(39) 0.28602(70) 0.0063 Uiso
O3_2 O 0.61705(37) 0.48922(35) 0.42240(49) 0.0323 Uiso
O4_2 O 0.38523(33) 0.50134(36) 0.32859(63) 0.0063 Uiso
O5_2 O 0.74924(40) 0.48791(37) 0.43601(99) 0.0063 Uiso
C1_2 C 0.45564(26) 0.45330(48) 0.20063(85) 0.0063 Uiso
C2_2 C 0.57891(29) 0.42871(55) 0.12478(76) 0.0063 Uiso
C3_2 C 0.38883(31) 0.45927(32) 0.24583(66) 0.0063 Uiso
C5_2 C 0.46742(28) 0.43270(50) 0.08123(84) 0.0063 Uiso
C6_2 C 0.50496(35) 0.46327(44) 0.2931(10) 0.0063 Uiso
C7_2 C 0.62538(29) 0.45544(32) 0.32504(66) 0.0396 Uiso
C8_2 C 0.56251(30) 0.44984(44) 0.24826(76) 0.0063 Uiso
C9_2 C 0.53019(38) 0.42228(56) 0.03962(72) 0.0640 Uiso
Al2_2 Al 0.31675(22) 0.50939(21) 0.44597(46) 0.0168 Uiso
Al3_2 Al 0.68325(22) 0.49061(21) 0.55403(46) 0.0168 Uiso
Al4_2 Al 0.25939(21) 0.43325(22) 0.19597(46) 0.0168 Uiso
O7_2 O 0.84548(26) 0.43607(41) 0.31907(72) 0.0063 Uiso
O8_2 O 0.76078(35) 0.36705(37) 0.17240(49) 0.0323 Uiso
O9_2 O 0.75134(36) 0.36477(33) 0.42141(63) 0.0063 Uiso
O10_2 O 0.76209(37) 0.49924(40) 0.18601(99) 0.0063 Uiso
H1_2 H 0.627127 0.418208 0.0989061 . .
H5_2 H 0.496326 0.479904 0.388915 . .
H6_2 H 0.428622 0.424064 0.0167118 . .
Al3_3 Al 0.18325(22) 0.99061(21) 0.05403(46) 0.0168 Uiso
Al1_3 Al 0.25939(21) 0.93325(22) 0.80403(46) 0.0168 Uiso
O2_3 O 0.17513(23) 0.92958(39) 0.78602(70) 0.0063 Uiso
O3_3 O 0.11705(37) 0.98922(35) 0.92240(49) 0.0323 Uiso
O5_3 O 0.24924(40) 0.98791(37) 0.93601(99) 0.0063 Uiso
O6 O 0.04264(43) 0.89369(45) 0.41986(78) 0.0423 Uiso
C2_3 C 0.07891(29) 0.92871(55) 0.62478(76) 0.0063 Uiso
C6_3 C 0.00496(35) 0.96327(44) 0.7931(10) 0.0063 Uiso
C7_3 C 0.12538(29) 0.95544(32) 0.82504(66) 0.0396 Uiso
C8_3 C 0.06251(30) 0.94984(44) 0.74826(76) 0.0063 Uiso
C9_3 C 0.03019(38) 0.92228(56) 0.53962(72) 0.0640 Uiso
O7_3 O 0.34548(26) 0.93607(41) 0.81907(72) 0.0063 Uiso
O8_3 O 0.26078(35) 0.86705(37) 0.67240(49) 0.0323 Uiso
O9_3 O 0.25134(36) 0.86477(33) 0.92141(63) 0.0063 Uiso
O10_3 O 0.26209(37) 0.99924(40) 0.68601(99) 0.0063 Uiso
H1_3 H 0.127127 0.918208 0.598906 . .
H3 H 0.00962437 0.867811 0.245 . .
O4_3 O 0.88523(33) 0.00134(36) 0.82859(63) 0.0063 Uiso
Al2_3 Al 0.81675(22) 0.00939(21) 0.94597(46) 0.0168 Uiso
O1_3 O 0.84548(26) 0.93607(41) 0.68093(72) 0.0063 Uiso
C1_3 C 0.95564(26) 0.95330(48) 0.70063(85) 0.0063 Uiso
C3_3 C 0.88883(31) 0.95927(32) 0.74583(66) 0.0063 Uiso
C4 C 0.99317(81) 0.89065(90) 0.3309(17) 0.1013 Uiso
C5_3 C 0.96742(28) 0.93270(50) 0.58123(84) 0.0063 Uiso
Al4_3 Al 0.75939(21) 0.93325(22) 0.69597(46) 0.0168 Uiso
H2 H 0.977366 0.937834 0.308491 . .
H4 H 0.954474 0.863967 0.370793 . .
H5_3 H 0.996326 0.979904 0.888915 . .
H6_3 H 0.928622 0.924064 0.516712 . .
O2_4 O 0.17958(39) 0.07487(23) 0.03602(70) 0.0063 Uiso
O4_4 O 0.25134(36) 0.36477(33) 0.07859(63) 0.0063 Uiso
C6_4 C 0.21327(44) 0.24504(35) 0.0431(10) 0.0063 Uiso
C7_4 C 0.20544(32) 0.12462(29) 0.07504(66) 0.0396 Uiso
H5_4 H 0.229904 0.253674 0.138915 . .
O1_4 O 0.18607(41) 0.40452(26) 0.93093(72) 0.0063 Uiso
C1_4 C 0.20330(48) 0.29436(26) 0.95063(85) 0.0063 Uiso
O6_2 O 0.14369(45) 0.20736(43) 0.66986(78) 0.0423 Uiso
C2_4 C 0.17871(55) 0.17109(29) 0.87478(76) 0.0063 Uiso
C3_4 C 0.20927(32) 0.36117(31) 0.99583(66) 0.0063 Uiso
C4_2 C 0.14065(90) 0.25683(81) 0.5809(17) 0.1013 Uiso
C5_4 C 0.18270(50) 0.28258(28) 0.83123(84) 0.0063 Uiso
C8_4 C 0.19984(44) 0.18749(30) 0.99826(76) 0.0063 Uiso
C9_4 C 0.17228(56) 0.21981(38) 0.78962(72) 0.0640 Uiso
Al4_4 Al 0.18325(22) 0.49061(21) 0.94597(46) 0.0168 Uiso
H1_4 H 0.168208 0.122873 0.848906 . .
H2_2 H 0.187834 0.272634 0.558491 . .
H3_2 H 0.117811 0.240376 0.495 . .
H4_2 H 0.113967 0.295526 0.620793 . .
H6_4 H 0.174064 0.321378 0.766712 . .
O7_4 O 0.18607(41) 0.90452(26) 0.06907(72) 0.0063 Uiso
O9_4 O 0.11477(33) 0.99866(36) 0.17141(63) 0.0063 Uiso
O1_5 O 0.68607(41) 0.90452(26) 0.43093(72) 0.0063 Uiso
O2_5 O 0.67958(39) 0.57487(23) 0.53602(70) 0.0063 Uiso
O3_4 O 0.73922(35) 0.63295(37) 0.67240(49) 0.0323 Uiso
O4_5 O 0.75134(36) 0.86477(33) 0.57859(63) 0.0063 Uiso
O5_4 O 0.73791(37) 0.50076(40) 0.68601(99) 0.0063 Uiso
C1_5 C 0.70330(48) 0.79436(26) 0.45063(85) 0.0063 Uiso
O6_3 O 0.64369(45) 0.70736(43) 0.16986(78) 0.0423 Uiso
C2_5 C 0.67871(55) 0.67109(29) 0.37478(76) 0.0063 Uiso
C3_5 C 0.70927(32) 0.86117(31) 0.49583(66) 0.0063 Uiso
C4_3 C 0.64065(90) 0.75683(81) 0.0809(17) 0.1013 Uiso
C5_5 C 0.68270(50) 0.78258(28) 0.33123(84) 0.0063 Uiso
C6_5 C 0.71327(44) 0.74504(35) 0.5431(10) 0.0063 Uiso
C7_5 C 0.70544(32) 0.62462(29) 0.57504(66) 0.0396 Uiso
C8_5 C 0.69984(44) 0.68749(30) 0.49826(76) 0.0063 Uiso
C9_5 C 0.67228(56) 0.71981(38) 0.28962(72) 0.0640 Uiso
Al3_4 Al 0.74061(21) 0.56675(22) 0.80403(46) 0.0168 Uiso
O7_5 O 0.68607(41) 0.40452(26) 0.56907(72) 0.0063 Uiso
O9_5 O 0.61477(33) 0.49866(36) 0.67141(63) 0.0063 Uiso
H1_5 H 0.668208 0.622873 0.348906 . .
H2_3 H 0.687834 0.772634 0.0584913 . .
H4_3 H 0.613967 0.795526 0.120793 . .
H5_5 H 0.729904 0.753674 0.638915 . .
H6_5 H 0.674064 0.821378 0.266712 . .
O7_6 O 0.31393(41) 0.09548(26) 0.56907(72) 0.0063 Uiso
O9_6 O 0.38523(33) 0.00134(36) 0.67141(63) 0.0063 Uiso
O1_6 O 0.31393(41) 0.59548(26) 0.43093(72) 0.0063 Uiso
O2_6 O 0.32042(39) 0.92513(23) 0.53602(70) 0.0063 Uiso
O4_6 O 0.24866(36) 0.63523(33) 0.57859(63) 0.0063 Uiso
C1_6 C 0.29670(48) 0.70564(26) 0.45063(85) 0.0063 Uiso
O6_4 O 0.35631(45) 0.79264(43) 0.16986(78) 0.0423 Uiso
C2_6 C 0.32129(55) 0.82891(29) 0.37478(76) 0.0063 Uiso
C3_6 C 0.29073(32) 0.63883(31) 0.49583(66) 0.0063 Uiso
C4_4 C 0.35935(90) 0.74317(81) 0.0809(17) 0.1013 Uiso
C5_6 C 0.31730(50) 0.71742(28) 0.33123(84) 0.0063 Uiso
C6_6 C 0.28673(44) 0.75496(35) 0.5431(10) 0.0063 Uiso
C7_6 C 0.29456(32) 0.87538(29) 0.57504(66) 0.0396 Uiso
C8_6 C 0.30016(44) 0.81251(30) 0.49826(76) 0.0063 Uiso
C9_6 C 0.32772(56) 0.78019(38) 0.28962(72) 0.0640 Uiso
Al2_4 Al 0.24061(21) 0.56675(22) 0.69597(46) 0.0168 Uiso
H1_6 H 0.331792 0.877127 0.348906 . .
H2_4 H 0.312166 0.727366 0.0584913 . .
H4_4 H 0.386033 0.704474 0.120793 . .
H5_6 H 0.270096 0.746326 0.638915 . .
H6_6 H 0.325936 0.678622 0.266712 . .
Al1_4 Al 0.81675(22) 0.50939(21) 0.05403(46) 0.0168 Uiso
O2_7 O 0.82042(39) 0.42513(23) 0.03602(70) 0.0063 Uiso
O4_7 O 0.74866(36) 0.13523(33) 0.07859(63) 0.0063 Uiso
C6_7 C 0.78673(44) 0.25496(35) 0.0431(10) 0.0063 Uiso
C7_7 C 0.79456(32) 0.37538(29) 0.07504(66) 0.0396 Uiso
O7_7 O 0.81393(41) 0.59548(26) 0.06907(72) 0.0063 Uiso
O9_7 O 0.88523(33) 0.50134(36) 0.17141(63) 0.0063 Uiso
H5_7 H 0.770096 0.246326 0.138915 . .
O1_7 O 0.81393(41) 0.09548(26) 0.93093(72) 0.0063 Uiso
C1_7 C 0.79670(48) 0.20564(26) 0.95063(85) 0.0063 Uiso
O6_5 O 0.85631(45) 0.29264(43) 0.66986(78) 0.0423 Uiso
C2_7 C 0.82129(55) 0.32891(29) 0.87478(76) 0.0063 Uiso
C3_7 C 0.79073(32) 0.13883(31) 0.99583(66) 0.0063 Uiso
C4_5 C 0.85935(90) 0.24317(81) 0.5809(17) 0.1013 Uiso
C5_7 C 0.81730(50) 0.21742(28) 0.83123(84) 0.0063 Uiso
C8_7 C 0.80016(44) 0.31251(30) 0.99826(76) 0.0063 Uiso
C9_7 C 0.82772(56) 0.28019(38) 0.78962(72) 0.0640 Uiso
O8_4 O 0.88295(37) 0.51078(35) 0.92240(49) 0.0323 Uiso
O10_4 O 0.75076(40) 0.51209(37) 0.93601(99) 0.0063 Uiso
H1_7 H 0.831792 0.377127 0.848906 . .
H2_5 H 0.812166 0.227366 0.558491 . .
H3_3 H 0.882189 0.259624 0.495 . .
H4_5 H 0.886033 0.204474 0.620793 . .
H6_7 H 0.825936 0.178622 0.766712 . .
O1_8 O 0.15452(26) 0.56393(41) 0.68093(72) 0.0063 Uiso
O4_8 O 0.11477(33) 0.49866(36) 0.82859(63) 0.0063 Uiso
C1_8 C 0.04436(26) 0.54670(48) 0.70063(85) 0.0063 Uiso
C3_8 C 0.11117(31) 0.54073(32) 0.74583(66) 0.0063 Uiso
C4_6 C 0.00683(81) 0.60935(90) 0.3309(17) 0.1013 Uiso
C5_8 C 0.03258(28) 0.56730(50) 0.58123(84) 0.0063 Uiso
H2_6 H 0.0226341 0.562166 0.308491 . .
H4_6 H 0.0455262 0.636033 0.370793 . .
H5_8 H 0.00367351 0.520096 0.888915 . .
H6_8 H 0.0713778 0.575936 0.516712 . .
O2_8 O 0.82487(23) 0.57042(39) 0.78602(70) 0.0063 Uiso
O6_6 O 0.95736(43) 0.60631(45) 0.41986(78) 0.0423 Uiso
C2_8 C 0.92109(29) 0.57129(55) 0.62478(76) 0.0063 Uiso
C6_8 C 0.99504(35) 0.53673(44) 0.7931(10) 0.0063 Uiso
C7_8 C 0.87462(29) 0.54456(32) 0.82504(66) 0.0396 Uiso
C8_8 C 0.93749(30) 0.55016(44) 0.74826(76) 0.0063 Uiso
C9_8 C 0.96981(38) 0.57772(56) 0.53962(72) 0.0640 Uiso
O7_8 O 0.65452(26) 0.56393(41) 0.81907(72) 0.0063 Uiso
O9_8 O 0.74866(36) 0.63523(33) 0.92141(63) 0.0063 Uiso
H1_8 H 0.872873 0.581792 0.598906 . .
H3_4 H 0.990376 0.632189 0.245 . .
O2_9 O 0.67513(23) 0.92958(39) 0.71398(70) 0.0063 Uiso
O3_5 O 0.61705(37) 0.98922(35) 0.57760(49) 0.0323 Uiso
O5_5 O 0.74924(40) 0.98791(37) 0.56399(99) 0.0063 Uiso
C1_9 C 0.45564(26) 0.95330(48) 0.79937(85) 0.0063 Uiso
C2_9 C 0.57891(29) 0.92871(55) 0.87522(76) 0.0063 Uiso
C3_9 C 0.38883(31) 0.95927(32) 0.75417(66) 0.0063 Uiso
C5_9 C 0.46742(28) 0.93270(50) 0.91877(84) 0.0063 Uiso
C6_9 C 0.50496(35) 0.96327(44) 0.7069(10) 0.0063 Uiso
C7_9 C 0.62538(29) 0.95544(32) 0.67496(66) 0.0396 Uiso
C8_9 C 0.56251(30) 0.94984(44) 0.75174(76) 0.0063 Uiso
C9_9 C 0.53019(38) 0.92228(56) 0.96038(72) 0.0640 Uiso
O8_5 O 0.76078(35) 0.86705(37) 0.82760(49) 0.0323 Uiso
O10_5 O 0.76209(37) 0.99924(40) 0.81399(99) 0.0063 Uiso
H1_9 H 0.627127 0.918208 0.901094 . .
H5_9 H 0.496326 0.979904 0.611085 . .
H6_9 H 0.428622 0.924064 0.983288 . .
O2_10 O 0.32487(23) 0.57042(39) 0.71398(70) 0.0063 Uiso
O3_6 O 0.38295(37) 0.51078(35) 0.57760(49) 0.0323 Uiso
O5_6 O 0.25076(40) 0.51209(37) 0.56399(99) 0.0063 Uiso
C1_10 C 0.54436(26) 0.54670(48) 0.79937(85) 0.0063 Uiso
C2_10 C 0.42109(29) 0.57129(55) 0.87522(76) 0.0063 Uiso
C3_10 C 0.61117(31) 0.54073(32) 0.75417(66) 0.0063 Uiso
C5_10 C 0.53258(28) 0.56730(50) 0.91877(84) 0.0063 Uiso
C6_10 C 0.49504(35) 0.53673(44) 0.7069(10) 0.0063 Uiso
C7_10 C 0.37462(29) 0.54456(32) 0.67496(66) 0.0396 Uiso
C8_10 C 0.43749(30) 0.55016(44) 0.75174(76) 0.0063 Uiso
C9_10 C 0.46981(38) 0.57772(56) 0.96038(72) 0.0640 Uiso
O8_6 O 0.23922(35) 0.63295(37) 0.82760(49) 0.0323 Uiso
O10_6 O 0.23791(37) 0.50076(40) 0.81399(99) 0.0063 Uiso
H1_10 H 0.372873 0.581792 0.901094 . .
H5_10 H 0.503674 0.520096 0.611085 . .
H6_10 H 0.571378 0.575936 0.983288 . .
C1_11 C 0.04436(26) 0.04670(48) 0.29937(85) 0.0063 Uiso
C3_11 C 0.11117(31) 0.04073(32) 0.25417(66) 0.0063 Uiso
C4_7 C 0.00683(81) 0.10935(90) 0.6691(17) 0.1013 Uiso
C5_11 C 0.03258(28) 0.06730(50) 0.41877(84) 0.0063 Uiso
H2_7 H 0.0226341 0.0621659 0.691509 . .
H4_7 H 0.0455262 0.136033 0.629207 . .
H5_11 H 0.00367351 0.0200965 0.111085 . .
H6_11 H 0.0713778 0.0759362 0.483288 . .
O2_11 O 0.82487(23) 0.07042(39) 0.21398(70) 0.0063 Uiso
O3_7 O 0.88295(37) 0.01078(35) 0.07760(49) 0.0323 Uiso
O5_7 O 0.75076(40) 0.01209(37) 0.06399(99) 0.0063 Uiso
O6_7 O 0.95736(43) 0.10631(45) 0.58014(78) 0.0423 Uiso
C2_11 C 0.92109(29) 0.07129(55) 0.37522(76) 0.0063 Uiso
C6_11 C 0.99504(35) 0.03673(44) 0.2069(10) 0.0063 Uiso
C7_11 C 0.87462(29) 0.04456(32) 0.17496(66) 0.0396 Uiso
C8_11 C 0.93749(30) 0.05016(44) 0.25174(76) 0.0063 Uiso
C9_11 C 0.96981(38) 0.07772(56) 0.46038(72) 0.0640 Uiso
O8_7 O 0.73922(35) 0.13295(37) 0.32760(49) 0.0323 Uiso
O10_7 O 0.73791(37) 0.00076(40) 0.31399(99) 0.0063 Uiso
H1_11 H 0.872873 0.0817916 0.401094 . .
H3_5 H 0.990376 0.132189 0.755 . .
C1_12 C 0.79670(48) 0.70564(26) 0.04937(85) 0.0063 Uiso
O6_8 O 0.85631(45) 0.79264(43) 0.33014(78) 0.0423 Uiso
C2_12 C 0.82129(55) 0.82891(29) 0.12522(76) 0.0063 Uiso
C3_12 C 0.79073(32) 0.63883(31) 0.00417(66) 0.0063 Uiso
C4_8 C 0.85935(90) 0.74317(81) 0.4191(17) 0.1013 Uiso
C5_12 C 0.81730(50) 0.71742(28) 0.16877(84) 0.0063 Uiso
C8_12 C 0.80016(44) 0.81251(30) 0.00174(76) 0.0063 Uiso
C9_12 C 0.82772(56) 0.78019(38) 0.21038(72) 0.0640 Uiso
H1_12 H 0.831792 0.877127 0.151094 . .
H2_8 H 0.812166 0.727366 0.441509 . .
H3_6 H 0.882189 0.759624 0.505 . .
H4_8 H 0.886033 0.704474 0.379207 . .
H6_12 H 0.825936 0.678622 0.233288 . .
O2_12 O 0.82042(39) 0.92513(23) 0.96398(70) 0.0063 Uiso
C6_12 C 0.78673(44) 0.75496(35) 0.9569(10) 0.0063 Uiso
C7_12 C 0.79456(32) 0.87538(29) 0.92496(66) 0.0396 Uiso
H5_12 H 0.770096 0.746326 0.861085 . .
O2_13 O 0.32042(39) 0.42513(23) 0.46398(70) 0.0063 Uiso
O3_8 O 0.26078(35) 0.36705(37) 0.32760(49) 0.0323 Uiso
O5_8 O 0.26209(37) 0.49924(40) 0.31399(99) 0.0063 Uiso
C1_13 C 0.29670(48) 0.20564(26) 0.54937(85) 0.0063 Uiso
O6_9 O 0.35631(45) 0.29264(43) 0.83014(78) 0.0423 Uiso
C2_13 C 0.32129(55) 0.32891(29) 0.62522(76) 0.0063 Uiso
C3_13 C 0.29073(32) 0.13883(31) 0.50417(66) 0.0063 Uiso
C4_9 C 0.35935(90) 0.24317(81) 0.9191(17) 0.1013 Uiso
C5_13 C 0.31730(50) 0.21742(28) 0.66877(84) 0.0063 Uiso
C6_13 C 0.28673(44) 0.25496(35) 0.4569(10) 0.0063 Uiso
C7_13 C 0.29456(32) 0.37538(29) 0.42496(66) 0.0396 Uiso
C8_13 C 0.30016(44) 0.31251(30) 0.50174(76) 0.0063 Uiso
C9_13 C 0.32772(56) 0.28019(38) 0.71038(72) 0.0640 Uiso
H1_13 H 0.331792 0.377127 0.651094 . .
H2_9 H 0.312166 0.227366 0.941509 . .
H4_9 H 0.386033 0.204474 0.879207 . .
H5_13 H 0.270096 0.246326 0.361085 . .
H6_13 H 0.325936 0.178622 0.733288 . .
O2_14 O 0.67958(39) 0.07487(23) 0.46398(70) 0.0063 Uiso
C1_14 C 0.70330(48) 0.29436(26) 0.54937(85) 0.0063 Uiso
O6_10 O 0.64369(45) 0.20736(43) 0.83014(78) 0.0423 Uiso
C2_14 C 0.67871(55) 0.17109(29) 0.62522(76) 0.0063 Uiso
C3_14 C 0.70927(32) 0.36117(31) 0.50417(66) 0.0063 Uiso
C4_10 C 0.64065(90) 0.25683(81) 0.9191(17) 0.1013 Uiso
C5_14 C 0.68270(50) 0.28258(28) 0.66877(84) 0.0063 Uiso
C6_14 C 0.71327(44) 0.24504(35) 0.4569(10) 0.0063 Uiso
C7_14 C 0.70544(32) 0.12462(29) 0.42496(66) 0.0396 Uiso
C8_14 C 0.69984(44) 0.18749(30) 0.50174(76) 0.0063 Uiso
C9_14 C 0.67228(56) 0.21981(38) 0.71038(72) 0.0640 Uiso
H1_14 H 0.668208 0.122873 0.651094 . .
H2_10 H 0.687834 0.272634 0.941509 . .
H4_10 H 0.613967 0.295526 0.879207 . .
H5_14 H 0.729904 0.253674 0.361085 . .
H6_14 H 0.674064 0.321378 0.733288 . .
C1_15 C 0.20330(48) 0.79436(26) 0.04937(85) 0.0063 Uiso
O6_11 O 0.14369(45) 0.70736(43) 0.33014(78) 0.0423 Uiso
C2_15 C 0.17871(55) 0.67109(29) 0.12522(76) 0.0063 Uiso
C3_15 C 0.20927(32) 0.86117(31) 0.00417(66) 0.0063 Uiso
C4_11 C 0.14065(90) 0.75683(81) 0.4191(17) 0.1013 Uiso
C5_15 C 0.18270(50) 0.78258(28) 0.16877(84) 0.0063 Uiso
C8_15 C 0.19984(44) 0.68749(30) 0.00174(76) 0.0063 Uiso
C9_15 C 0.17228(56) 0.71981(38) 0.21038(72) 0.0640 Uiso
O8_8 O 0.11705(37) 0.48922(35) 0.07760(49) 0.0323 Uiso
O10_8 O 0.24924(40) 0.48791(37) 0.06399(99) 0.0063 Uiso
H1_15 H 0.168208 0.622873 0.151094 . .
H2_11 H 0.187834 0.772634 0.441509 . .
H3_7 H 0.117811 0.740376 0.505 . .
H4_11 H 0.113967 0.795526 0.379207 . .
H6_15 H 0.174064 0.821378 0.233288 . .
O2_15 O 0.17958(39) 0.57487(23) 0.96398(70) 0.0063 Uiso
C6_15 C 0.21327(44) 0.74504(35) 0.9569(10) 0.0063 Uiso
C7_15 C 0.20544(32) 0.62462(29) 0.92496(66) 0.0396 Uiso
H5_15 H 0.229904 0.753674 0.861085 . .
O2_16 O 0.17513(23) 0.42958(39) 0.21398(70) 0.0063 Uiso
O6_12 O 0.04264(43) 0.39369(45) 0.58014(78) 0.0423 Uiso
C2_16 C 0.07891(29) 0.42871(55) 0.37522(76) 0.0063 Uiso
C6_16 C 0.00496(35) 0.46327(44) 0.2069(10) 0.0063 Uiso
C7_16 C 0.12538(29) 0.45544(32) 0.17496(66) 0.0396 Uiso
C8_16 C 0.06251(30) 0.44984(44) 0.25174(76) 0.0063 Uiso
C9_16 C 0.03019(38) 0.42228(56) 0.46038(72) 0.0640 Uiso
H1_16 H 0.127127 0.418208 0.401094 . .
H3_8 H 0.00962437 0.367811 0.755 . .
C1_16 C 0.95564(26) 0.45330(48) 0.29937(85) 0.0063 Uiso
C3_16 C 0.88883(31) 0.45927(32) 0.25417(66) 0.0063 Uiso
C4_12 C 0.99317(81) 0.39065(90) 0.6691(17) 0.1013 Uiso
C5_16 C 0.96742(28) 0.43270(50) 0.41877(84) 0.0063 Uiso
H2_12 H 0.977366 0.437834 0.691509 . .
H4_12 H 0.954474 0.363967 0.629207 . .
H5_16 H 0.996326 0.479904 0.111085 . .
H6_16 H 0.928622 0.424064 0.483288 . .
O6_13 O 0.45736(43) 0.10631(45) 0.91986(78) 0.0423 Uiso
C4_13 C 0.50683(81) 0.10935(90) 0.8309(17) 0.1013 Uiso
H2_13 H 0.522634 0.0621659 0.808491 . .
H3_9 H 0.490376 0.132189 0.745 . .
H4_13 H 0.545526 0.136033 0.870793 . .
O6_14 O 0.54264(43) 0.39369(45) 0.91986(78) 0.0423 Uiso
C4_14 C 0.49317(81) 0.39065(90) 0.8309(17) 0.1013 Uiso
H2_14 H 0.477366 0.437834 0.808491 . .
H3_10 H 0.509624 0.367811 0.745 . .
H4_14 H 0.454474 0.363967 0.870793 . .
H3_11 H 0.617811 0.740376 0.995 . .
H3_12 H 0.382189 0.759624 0.995 . .
O6_15 O 0.54264(43) 0.89369(45) 0.08014(78) 0.0423 Uiso
C4_15 C 0.49317(81) 0.89065(90) 0.1691(17) 0.1013 Uiso
H2_15 H 0.477366 0.937834 0.191509 . .
H3_13 H 0.509624 0.867811 0.255 . .
H4_15 H 0.454474 0.863967 0.129207 . .
O6_16 O 0.45736(43) 0.60631(45) 0.08014(78) 0.0423 Uiso
C4_16 C 0.50683(81) 0.60935(90) 0.1691(17) 0.1013 Uiso
H2_16 H 0.522634 0.562166 0.191509 . .
H3_14 H 0.490376 0.632189 0.255 . .
H4_16 H 0.545526 0.636033 0.129207 . .
H3_15 H 0.382189 0.259624 0.00500038 . .
H3_16 H 0.617811 0.240376 0.00500038 . .
loop_
_geom_bond_atom_site_label_1
_geom_bond_atom_site_label_2
_geom_bond_site_symmetry_1
_geom_bond_site_symmetry_2
Al1 O2 1_555 1_555
O1 C3 1_555 1_555
O2 C7 1_555 1_555
O3 C7 1_555 1_555
O5 Al1 1_555 1_555
C1 C3 1_555 1_555
C2 C8 1_555 1_555
C5 C1 1_555 1_555
C6 C1 1_555 1_555
C7 C8 1_555 1_555
C8 C6 1_555 1_555
Al3 O3 1_555 1_555
Al4 O1 1_555 1_555
O7 Al1 1_555 1_555
O8 Al1 1_555 1_555
O9 Al1 1_555 1_555
O10 Al1 1_555 1_555
O5 Al3 1_555 1_555
C2 C9 1_555 1_555
C5 C9 1_555 1_555
C2 H1 1_555 1_555
C6 H5 1_555 1_555
C5 H6 1_555 1_555
Al2 O4 1_555 1_555
Al1_2 O2_2 1_555 1_555
O1_2 C3_2 1_555 1_555
O2_2 C7_2 1_555 1_555
O3_2 C7_2 1_555 1_555
O4_2 C3_2 1_555 1_555
O5_2 Al1_2 1_555 1_555
C1_2 C3_2 1_555 1_555
C2_2 C8_2 1_555 1_555
C5_2 C1_2 1_555 1_555
C6_2 C1_2 1_555 1_555
C7_2 C8_2 1_555 1_555
C8_2 C6_2 1_555 1_555
Al2_2 O4_2 1_555 1_555
Al3_2 O3_2 1_555 1_555
Al4_2 O1_2 1_555 1_555
O7_2 Al1_2 1_555 1_555
O8_2 Al1_2 1_555 1_555
O9_2 Al1_2 1_555 1_555
O10_2 Al1_2 1_555 1_555
O5_2 Al3_2 1_555 1_555
C2_2 C9_2 1_555 1_555
C5_2 C9_2 1_555 1_555
C2_2 H1_2 1_555 1_555
C6_2 H5_2 1_555 1_555
C5_2 H6_2 1_555 1_555
Al1_3 O2_3 1_555 1_555
O2_3 C7_3 1_555 1_555
O3_3 C7_3 1_555 1_555
O5_3 Al1_3 1_555 1_555
C2_3 C8_3 1_555 1_555
C7_3 C8_3 1_555 1_555
C8_3 C6_3 1_555 1_555
C9_3 O6 1_555 1_555
O7_3 Al1_3 1_555 1_555
O8_3 Al1_3 1_555 1_555
O9_3 Al1_3 1_555 1_555
O10_3 Al1_3 1_555 1_555
C2_3 C9_3 1_555 1_555
C2_3 H1_3 1_555 1_555
Al2_3 O4_3 1_555 1_555
O1_3 C3_3 1_555 1_555
C1_3 C3_3 1_555 1_555
C5_3 C1_3 1_555 1_555
Al4_3 O1_3 1_555 1_555
C4 H2 1_555 1_555
C4 H4 1_555 1_555
C5_3 H6_3 1_555 1_555
O2_4 C7_4 1_555 1_555
O8 C7_4 1_555 1_555
Al4_2 O4_4 1_555 1_555
C6_4 H5_4 1_555 1_555
O1_4 C3_4 1_555 1_555
C1_4 C3_4 1_555 1_555
O6_2 C4_2 1_555 1_555
C2_4 C8_4 1_555 1_555
C5_4 C1_4 1_555 1_555
C9_4 O6_2 1_555 1_555
Al4_4 O1_4 1_555 1_555
C2_4 C9_4 1_555 1_555
C5_4 C9_4 1_555 1_555
C2_4 H1_4 1_555 1_555
C4_2 H2_2 1_555 1_555
C4_2 H3_2 1_555 1_555
C4_2 H4_2 1_555 1_555
C5_4 H6_4 1_555 1_555
O7_4 Al3_3 1_555 1_555
O9_4 Al3_3 1_555 1_555
Al3_2 O2_5 1_555 1_555
O1_5 C3_5 1_555 1_555
O2_5 C7_5 1_555 1_555
O3_4 C7_5 1_555 1_555
O4_5 C3_5 1_555 1_555
O5_4 Al3_2 1_555 1_555
C1_5 C3_5 1_555 1_555
O6_3 C4_3 1_555 1_555
C2_5 C8_5 1_555 1_555
C5_5 C1_5 1_555 1_555
C6_5 C1_5 1_555 1_555
C7_5 C8_5 1_555 1_555
C8_5 C6_5 1_555 1_555
C9_5 O6_3 1_555 1_555
Al4_3 O4_5 1_555 1_555
Al3_4 O3_4 1_555 1_555
Al2 O1_5 1_555 1_555
O7_5 Al3_2 1_555 1_555
O9_5 Al3_2 1_555 1_555
O5_4 Al3_4 1_555 1_555
C2_5 C9_5 1_555 1_555
C5_5 C9_5 1_555 1_555
C2_5 H1_5 1_555 1_555
C4_3 H2_3 1_555 1_555
C4_3 H4_3 1_555 1_555
C6_5 H5_5 1_555 1_555
C5_5 H6_5 1_555 1_555
O7_6 Al3 1_555 1_555
O9_6 Al3 1_555 1_555
O1_6 C3_6 1_555 1_555
O2_6 C7_6 1_555 1_555
O8_3 C7_6 1_555 1_555
O4_6 C3_6 1_555 1_555
C1_6 C3_6 1_555 1_555
O6_4 C4_4 1_555 1_555
C2_6 C8_6 1_555 1_555
C5_6 C1_6 1_555 1_555
C6_6 C1_6 1_555 1_555
C7_6 C8_6 1_555 1_555
C8_6 C6_6 1_555 1_555
C9_6 O6_4 1_555 1_555
Al2_4 O4_6 1_555 1_555
Al2_2 O1_6 1_555 1_555
C2_6 C9_6 1_555 1_555
C5_6 C9_6 1_555 1_555
C2_6 H1_6 1_555 1_555
C4_4 H2_4 1_555 1_555
C4_4 H4_4 1_555 1_555
C6_6 H5_6 1_555 1_555
C5_6 H6_6 1_555 1_555
Al1_4 O2_7 1_555 1_555
O2_7 C7_7 1_555 1_555
O8_2 C7_7 1_555 1_555
O10_2 Al1_4 1_555 1_555
Al4 O4_7 1_555 1_555
O7_7 Al1_4 1_555 1_555
O9_7 Al1_4 1_555 1_555
C6_7 H5_7 1_555 1_555
O1_7 C3_7 1_555 1_555
C1_7 C3_7 1_555 1_555
O6_5 C4_5 1_555 1_555
C2_7 C8_7 1_555 1_555
C5_7 C1_7 1_555 1_555
C9_7 O6_5 1_555 1_555
Al2_3 O1_7 1_555 1_555
C2_7 C9_7 1_555 1_555
C5_7 C9_7 1_555 1_555
C2_7 H1_7 1_555 1_555
C4_5 H2_5 1_555 1_555
C4_5 H3_3 1_555 1_555
C4_5 H4_5 1_555 1_555
C5_7 H6_7 1_555 1_555
O1_8 C3_8 1_555 1_555
O4_8 C3_8 1_555 1_555
C1_8 C3_8 1_555 1_555
C5_8 C1_8 1_555 1_555
Al4_4 O4_8 1_555 1_555
Al2_4 O1_8 1_555 1_555
C4_6 H2_6 1_555 1_555
C4_6 H4_6 1_555 1_555
C5_8 H6_8 1_555 1_555
Al3_4 O2_8 1_555 1_555
O2_8 C7_8 1_555 1_555
O8_4 C7_8 1_555 1_555
O10_4 Al3_4 1_555 1_555
C2_8 C8_8 1_555 1_555
C7_8 C8_8 1_555 1_555
C8_8 C6_8 1_555 1_555
C9_8 O6_6 1_555 1_555
O7_8 Al3_4 1_555 1_555
O9_8 Al3_4 1_555 1_555
C2_8 C9_8 1_555 1_555
C2_8 H1_8 1_555 1_555
Al4_3 O2_9 1_555 1_555
O7_3 C3_9 1_555 1_555
O2_9 C7_9 1_555 1_555
O3_5 C7_9 1_555 1_555
O5_5 Al4_3 1_555 1_555
C1_9 C3_9 1_555 1_555
C2_9 C8_9 1_555 1_555
C5_9 C1_9 1_555 1_555
C6_9 C1_9 1_555 1_555
C7_9 C8_9 1_555 1_555
C8_9 C6_9 1_555 1_555
Al2 O3_5 1_555 1_555
O8_5 Al4_3 1_555 1_555
O10_5 Al4_3 1_555 1_555
O5_5 Al2 1_555 1_555
C2_9 C9_9 1_555 1_555
C5_9 C9_9 1_555 1_555
C2_9 H1_9 1_555 1_555
C6_9 H5_9 1_555 1_555
C5_9 H6_9 1_555 1_555
Al2_4 O2_10 1_555 1_555
O7_8 C3_10 1_555 1_555
O2_10 C7_10 1_555 1_555
O3_6 C7_10 1_555 1_555
O9_5 C3_10 1_555 1_555
O5_6 Al2_4 1_555 1_555
C1_10 C3_10 1_555 1_555
C2_10 C8_10 1_555 1_555
C5_10 C1_10 1_555 1_555
C6_10 C1_10 1_555 1_555
C7_10 C8_10 1_555 1_555
C8_10 C6_10 1_555 1_555
Al2_2 O3_6 1_555 1_555
O8_6 Al2_4 1_555 1_555
O10_6 Al2_4 1_555 1_555
O5_6 Al2_2 1_555 1_555
C2_10 C9_10 1_555 1_555
C5_10 C9_10 1_555 1_555
C2_10 H1_10 1_555 1_555
C6_10 H5_10 1_555 1_555
C5_10 H6_10 1_555 1_555
O7 C3_11 1_555 1_555
C1_11 C3_11 1_555 1_555
C5_11 C1_11 1_555 1_555
C4_7 H2_7 1_555 1_555
C4_7 H4_7 1_555 1_555
C5_11 H6_11 1_555 1_555
Al4 O2_11 1_555 1_555
O2_11 C7_11 1_555 1_555
O3_7 C7_11 1_555 1_555
O5_7 Al4 1_555 1_555
C2_11 C8_11 1_555 1_555
C7_11 C8_11 1_555 1_555
C8_11 C6_11 1_555 1_555
C9_11 O6_7 1_555 1_555
O8_7 Al4 1_555 1_555
O10_7 Al4 1_555 1_555
C2_11 C9_11 1_555 1_555
C2_11 H1_11 1_555 1_555
O7_7 C3_12 1_555 1_555
C1_12 C3_12 1_555 1_555
O6_8 C4_8 1_555 1_555
C2_12 C8_12 1_555 1_555
C5_12 C1_12 1_555 1_555
C9_12 O6_8 1_555 1_555
C2_12 C9_12 1_555 1_555
C5_12 C9_12 1_555 1_555
C2_12 H1_12 1_555 1_555
C4_8 H2_8 1_555 1_555
C4_8 H3_6 1_555 1_555
C4_8 H4_8 1_555 1_555
C5_12 H6_12 1_555 1_555
O2_12 C7_12 1_555 1_555
O8_5 C7_12 1_555 1_555
C6_12 H5_12 1_555 1_555
Al2_2 O2_13 1_555 1_555
O7_6 C3_13 1_555 1_555
O2_13 C7_13 1_555 1_555
O3_8 C7_13 1_555 1_555
O9 C3_13 1_555 1_555
O5_8 Al2_2 1_555 1_555
C1_13 C3_13 1_555 1_555
O6_9 C4_9 1_555 1_555
C2_13 C8_13 1_555 1_555
C5_13 C1_13 1_555 1_555
C6_13 C1_13 1_555 1_555
C7_13 C8_13 1_555 1_555
C8_13 C6_13 1_555 1_555
C9_13 O6_9 1_555 1_555
Al4_2 O3_8 1_555 1_555
O5_8 Al4_2 1_555 1_555
C2_13 C9_13 1_555 1_555
C5_13 C9_13 1_555 1_555
C2_13 H1_13 1_555 1_555
C4_9 H2_9 1_555 1_555
C4_9 H4_9 1_555 1_555
C6_13 H5_13 1_555 1_555
C5_13 H6_13 1_555 1_555
O7_5 C3_14 1_555 1_555
O2_14 C7_14 1_555 1_555
O8_7 C7_14 1_555 1_555
O9_2 C3_14 1_555 1_555
C1_14 C3_14 1_555 1_555
O6_10 C4_10 1_555 1_555
C2_14 C8_14 1_555 1_555
C5_14 C1_14 1_555 1_555
C6_14 C1_14 1_555 1_555
C7_14 C8_14 1_555 1_555
C8_14 C6_14 1_555 1_555
C9_14 O6_10 1_555 1_555
C2_14 C9_14 1_555 1_555
C5_14 C9_14 1_555 1_555
C2_14 H1_14 1_555 1_555
C4_10 H2_10 1_555 1_555
C4_10 H4_10 1_555 1_555
C6_14 H5_14 1_555 1_555
C5_14 H6_14 1_555 1_555
O7_4 C3_15 1_555 1_555
C1_15 C3_15 1_555 1_555
O6_11 C4_11 1_555 1_555
C2_15 C8_15 1_555 1_555
C5_15 C1_15 1_555 1_555
C9_15 O6_11 1_555 1_555
C2_15 C9_15 1_555 1_555
C5_15 C9_15 1_555 1_555
C2_15 H1_15 1_555 1_555
C4_11 H2_11 1_555 1_555
C4_11 H3_7 1_555 1_555
C4_11 H4_11 1_555 1_555
C5_15 H6_15 1_555 1_555
Al4_4 O2_15 1_555 1_555
O2_15 C7_15 1_555 1_555
O8_6 C7_15 1_555 1_555
O10_6 Al4_4 1_555 1_555
C6_15 H5_15 1_555 1_555
Al4_2 O2_16 1_555 1_555
O2_16 C7_16 1_555 1_555
O8_8 C7_16 1_555 1_555
O10_8 Al4_2 1_555 1_555
C2_16 C8_16 1_555 1_555
C7_16 C8_16 1_555 1_555
C8_16 C6_16 1_555 1_555
C9_16 O6_12 1_555 1_555
C2_16 C9_16 1_555 1_555
C2_16 H1_16 1_555 1_555
O7_2 C3_16 1_555 1_555
O9_7 C3_16 1_555 1_555
C1_16 C3_16 1_555 1_555
C5_16 C1_16 1_555 1_555
C4_12 H2_12 1_555 1_555
C4_12 H4_12 1_555 1_555
C5_16 H6_16 1_555 1_555
O6_13 C4_13 1_555 1_555
C4_13 H2_13 1_555 1_555
C4_13 H3_9 1_555 1_555
C4_13 H4_13 1_555 1_555
O6_14 C4_14 1_555 1_555
C4_14 H2_14 1_555 1_555
C4_14 H3_10 1_555 1_555
C4_14 H4_14 1_555 1_555
O6_15 C4_15 1_555 1_555
C4_15 H2_15 1_555 1_555
C4_15 H3_13 1_555 1_555
C4_15 H4_15 1_555 1_555
O6_16 C4_16 1_555 1_555
C4_16 H2_16 1_555 1_555
C4_16 H3_14 1_555 1_555
C4_16 H4_16 1_555 1_555

#END
