
###############################################################################
#
# This file contains modified crystal structure data generated from the
# MOF subset of the Cambridge Structural Database (CSD) v543 
# hosted by the Cambridge Crystallographic Data Centre (CCDC).
#
# This work is licensed under the Creative Commons
# Attribution-NonCommercial-ShareAlike 4.0 International License.
# To view a copy of this license, visit
# http://creativecommons.org/licenses/by-nc-sa/4.0/
# or send a letter to
# Creative Commons, PO Box 1866, Mountain View, CA 94042, USA.
#
# CIF created using the CSD Python API on 29 September 2022
# The structure has been converted into the P1 space group
# The structure has a 3D framework
# The original CSD entry CELZOK is in the tetragonal crystal system
# The framework has been calculated to contain at least 10.0% void space
# The void calculation uses a probe of radius 1.32A, grid spacing 0.4
# H atom positions have been added when not included in the experimental data
#
###############################################################################

data_CELZOK
_chemical_formula_moiety         '(C156 H148 Al11 O62)n'
_symmetry_cell_setting           triclinic
_symmetry_space_group_name_H-M   'P 1'
_symmetry_Int_Tables_number      1
_space_group_name_Hall           'P 1'
loop_
_symmetry_equiv_pos_site_id
_symmetry_equiv_pos_as_xyz
1 x,y,z
_cell_length_a                   21.49172(58)
_cell_length_b                   21.49172(58)
_cell_length_c                   10.18102(47)
_cell_angle_alpha                90
_cell_angle_beta                 90
_cell_angle_gamma                90
_cell_volume                     4702.55
loop_
_atom_site_label
_atom_site_type_symbol
_atom_site_fract_x
_atom_site_fract_y
_atom_site_fract_z
Al1 Al 0.31655(24) 0.00000 0.00000
O1 O 0.25996(29) 0.00996(29) 0.125
O2 O 0.38146(33) 0.01131(29) 0.13185(71)
O3 O 0.33663(30) 0.06896(30) 0.28420(69)
C1 C 0.44403(24) 0.07936(44) 0.42131(81)
C2 C 0.44557(23) 0.05494(42) 0.29803(97)
C3 C 0.38696(24) 0.04596(58) 0.2272(13)
C4 C 0.50000 0.11474(58) 0.63143(75)
C5 C 0.50000 0.03658(63) 0.2347(12)
C6 C 0.50000 0.08734(48) 0.49306(84)
O4 O 0.61854(33) 0.01131(29) 0.13185(71)
O5 O 0.66337(30) 0.06896(30) 0.28420(69)
C7 C 0.55597(24) 0.07936(44) 0.42131(81)
C8 C 0.55443(23) 0.05494(42) 0.29803(97)
C9 C 0.61304(24) 0.04596(58) 0.2272(13)
Al2 Al 0.68345(24) 0.00000 0.00000
Al3 Al 0.25000 0.06655(24) 0.25000
Al4 Al 0.75000 0.06655(24) 0.25000
H1 H 0.472013 0.0855327 0.695847
H2 H 0.547523 0.116753 0.668298
H3 H 0.480464 0.161477 0.628833
H4 H 0.600249 0.0927891 0.464906
H5 H 0.399751 0.0927891 0.464906
H6 H 0.5 0.0101302 0.143465
Al1_2 Al 0.31655(24) 0.00000 1.00000
Al2_2 Al 0.68345(24) 0.00000 1.00000
O9 O 0.31896(30) 0.08663(30) 0.96580(69)
Al1_3 Al 0.31655(24) 1.00000 0.00000
Al2_3 Al 0.68345(24) 1.00000 0.00000
O8 O 0.31896(30) 0.91337(30) 0.03420(69)
Al1_4 Al 0.31655(24) 1.00000 1.00000
Al2_4 Al 0.68345(24) 1.00000 1.00000
O6 O 0.25996(29) 0.99004(29) 0.875
O7 O 0.38146(33) 0.98869(29) 0.86815(71)
Al1_5 Al 0.68345(24) 0.50000 0.00000
O1_2 O 0.74004(29) 0.49004(29) 0.125
O2_2 O 0.61854(33) 0.48869(29) 0.13185(71)
O3_2 O 0.66337(30) 0.43104(30) 0.28420(69)
C1_2 C 0.55597(24) 0.42064(44) 0.42131(81)
C2_2 C 0.55443(23) 0.44506(42) 0.29803(97)
C3_2 C 0.61304(24) 0.45404(58) 0.2272(13)
C4_2 C 0.50000 0.38526(58) 0.63143(75)
C5_2 C 0.50000 0.46342(63) 0.2347(12)
C6_2 C 0.50000 0.41266(48) 0.49306(84)
O4_2 O 0.38146(33) 0.48869(29) 0.13185(71)
O5_2 O 0.33663(30) 0.43104(30) 0.28420(69)
C7_2 C 0.44403(24) 0.42064(44) 0.42131(81)
C8_2 C 0.44557(23) 0.44506(42) 0.29803(97)
C9_2 C 0.38696(24) 0.45404(58) 0.2272(13)
Al2_5 Al 0.31655(24) 0.50000 0.00000
Al3_2 Al 0.75000 0.43345(24) 0.25000
Al4_2 Al 0.25000 0.43345(24) 0.25000
O8_2 O 0.68104(30) 0.58663(30) 0.03420(69)
H1_2 H 0.527987 0.414467 0.695847
H2_2 H 0.452477 0.383247 0.668298
H3_2 H 0.519536 0.338523 0.628833
H4_2 H 0.399751 0.407211 0.464906
H5_2 H 0.600249 0.407211 0.464906
H6_2 H 0.5 0.48987 0.143465
Al1_6 Al 0.68345(24) 0.50000 1.00000
Al2_6 Al 0.31655(24) 0.50000 1.00000
O6_2 O 0.74004(29) 0.50996(29) 0.875
O7_2 O 0.61854(33) 0.51131(29) 0.86815(71)
O9_2 O 0.68104(30) 0.41337(30) 0.96580(69)
O3_3 O 0.66337(30) 0.56896(30) 0.71580(69)
C1_3 C 0.55597(24) 0.57936(44) 0.57869(81)
C2_3 C 0.55443(23) 0.55494(42) 0.70197(97)
C3_3 C 0.61304(24) 0.54596(58) 0.7728(13)
C4_3 C 0.50000 0.61474(58) 0.36857(75)
C5_3 C 0.50000 0.53658(63) 0.7653(12)
C6_3 C 0.50000 0.58734(48) 0.50694(84)
O4_3 O 0.38146(33) 0.51131(29) 0.86815(71)
O5_3 O 0.33663(30) 0.56896(30) 0.71580(69)
C7_3 C 0.44403(24) 0.57936(44) 0.57869(81)
C8_3 C 0.44557(23) 0.55494(42) 0.70197(97)
C9_3 C 0.38696(24) 0.54596(58) 0.7728(13)
Al3_3 Al 0.75000 0.56655(24) 0.75000
Al4_3 Al 0.25000 0.56655(24) 0.75000
H1_3 H 0.527987 0.585533 0.304153
H2_3 H 0.452477 0.616753 0.331702
H3_3 H 0.519536 0.661477 0.371167
H4_3 H 0.399751 0.592789 0.535094
H5_3 H 0.600249 0.592789 0.535094
H6_3 H 0.5 0.51013 0.856535
Al1_7 Al 0.18345(24) 0.00000 0.50000
O6_3 O 0.24004(29) 0.00996(29) 0.375
O7_3 O 0.11854(33) 0.01131(29) 0.36815(71)
O8_3 O 0.18104(30) 0.08663(30) 0.53420(69)
Al1_8 Al 0.18345(24) 1.00000 0.50000
O1_3 O 0.24004(29) 0.99004(29) 0.625
O2_3 O 0.11854(33) 0.98869(29) 0.63185(71)
O3_4 O 0.16337(30) 0.93104(30) 0.78420(69)
C1_4 C 0.05597(24) 0.92064(44) 0.92131(81)
C2_4 C 0.05443(23) 0.94506(42) 0.79803(97)
C3_4 C 0.11304(24) 0.95404(58) 0.7272(13)
C5_4 C -0.00000 0.96342(63) 0.7347(12)
C6_4 C 0.00000 0.91266(48) 0.99306(84)
Al3_4 Al 0.25000 0.93345(24) 0.75000
O9_3 O 0.18104(30) 0.91337(30) 0.46580(69)
H5_4 H 0.100249 0.907211 0.964906
H6_4 H 9.24446e-33 0.98987 0.643465
Al2_7 Al 0.81655(24) 0.00000 0.50000
C5_5 C 1.00000 0.96342(63) 0.7347(12)
C6_5 C 1.00000 0.91266(48) 0.99306(84)
O4_4 O 0.88146(33) 0.98869(29) 0.63185(71)
O5_4 O 0.83663(30) 0.93104(30) 0.78420(69)
C7_4 C 0.94403(24) 0.92064(44) 0.92131(81)
C8_4 C 0.94557(23) 0.94506(42) 0.79803(97)
C9_4 C 0.88696(24) 0.95404(58) 0.7272(13)
Al2_8 Al 0.81655(24) 1.00000 0.50000
Al4_4 Al 0.75000 0.93345(24) 0.75000
H4_4 H 0.899751 0.907211 0.964906
H6_5 H 1 0.98987 0.643465
O3_5 O 0.16337(30) 0.06896(30) 0.21580(69)
C1_5 C 0.05597(24) 0.07936(44) 0.07869(81)
C2_5 C 0.05443(23) 0.05494(42) 0.20197(97)
C3_5 C 0.11304(24) 0.04596(58) 0.2728(13)
C5_6 C 0.00000 0.03658(63) 0.2653(12)
C6_6 C -0.00000 0.08734(48) 0.00694(84)
H5_5 H 0.100249 0.0927891 0.0350944
H6_6 H 0 0.0101302 0.356535
C5_7 C 1.00000 0.03658(63) 0.2653(12)
C6_7 C 1.00000 0.08734(48) 0.00694(84)
O4_5 O 0.88146(33) 0.01131(29) 0.36815(71)
O5_5 O 0.83663(30) 0.06896(30) 0.21580(69)
C7_5 C 0.94403(24) 0.07936(44) 0.07869(81)
C8_5 C 0.94557(23) 0.05494(42) 0.20197(97)
C9_5 C 0.88696(24) 0.04596(58) 0.2728(13)
H4_5 H 0.899751 0.0927891 0.0350944
H6_7 H 1 0.0101302 0.356535
O2_4 O 0.23869(29) 0.86854(33) 0.61815(71)
C1_6 C 0.17064(44) 0.80597(24) 0.32869(81)
C2_6 C 0.19506(42) 0.80443(23) 0.45197(97)
C3_6 C 0.20404(58) 0.86304(24) 0.5228(13)
C4_4 C 0.13526(58) 0.75000 0.11857(75)
C5_8 C 0.21342(63) 0.75000 0.5153(12)
C6_8 C 0.16266(48) 0.75000 0.25694(84)
O4_6 O 0.23869(29) 0.63146(33) 0.61815(71)
O5_6 O 0.18104(30) 0.58663(30) 0.46580(69)
C7_6 C 0.17064(44) 0.69403(24) 0.32869(81)
C8_6 C 0.19506(42) 0.69557(23) 0.45197(97)
C9_6 C 0.20404(58) 0.63696(24) 0.5228(13)
Al4_5 Al 0.18345(24) 0.50000 0.50000
O7_4 O 0.26131(29) 0.86854(33) 0.88185(71)
O8_4 O 0.33663(30) 0.93104(30) 0.71580(69)
H1_4 H 0.164467 0.777987 0.0541531
H2_4 H 0.133247 0.702477 0.0817017
H3_4 H 0.0885231 0.769536 0.121167
H4_6 H 0.157211 0.649751 0.285094
H5_6 H 0.157211 0.850249 0.285094
H6_8 H 0.23987 0.75 0.606535
O2_5 O 0.23869(29) 0.13146(33) 0.38185(71)
C1_7 C 0.17064(44) 0.19403(24) 0.67131(81)
C2_7 C 0.19506(42) 0.19557(23) 0.54803(97)
C3_7 C 0.20404(58) 0.13696(24) 0.4772(13)
C4_5 C 0.13526(58) 0.25000 0.88143(75)
C5_9 C 0.21342(63) 0.25000 0.4847(12)
C6_9 C 0.16266(48) 0.25000 0.74306(84)
O4_7 O 0.23869(29) 0.36854(33) 0.38185(71)
O5_7 O 0.18104(30) 0.41337(30) 0.53420(69)
C7_7 C 0.17064(44) 0.30597(24) 0.67131(81)
C8_7 C 0.19506(42) 0.30443(23) 0.54803(97)
C9_7 C 0.20404(58) 0.36304(24) 0.4772(13)
O7_5 O 0.26131(29) 0.13146(33) 0.11815(71)
H1_5 H 0.164467 0.222013 0.945847
H2_5 H 0.133247 0.297523 0.918298
H3_5 H 0.0885231 0.230464 0.878833
H4_7 H 0.157211 0.350249 0.714906
H5_7 H 0.157211 0.149751 0.714906
H6_9 H 0.23987 0.25 0.393465
O2_6 O 0.73869(29) 0.36854(33) 0.11815(71)
C3_8 C 0.70404(58) 0.36304(24) 0.0228(13)
C5_10 C 0.71342(63) 0.25000 0.0153(12)
O4_8 O 0.73869(29) 0.13146(33) 0.11815(71)
C9_8 C 0.70404(58) 0.13696(24) 0.0228(13)
O6_4 O 0.75996(29) 0.49004(29) 0.375
O7_6 O 0.76131(29) 0.36854(33) 0.38185(71)
O8_5 O 0.83663(30) 0.43104(30) 0.21580(69)
H6_10 H 0.73987 0.25 0.106535
C1_8 C 0.67064(44) 0.30597(24) 0.82869(81)
C2_8 C 0.69506(42) 0.30443(23) 0.95197(97)
C4_6 C 0.63526(58) 0.25000 0.61857(75)
C6_10 C 0.66266(48) 0.25000 0.75694(84)
O5_8 O 0.68104(30) 0.08663(30) 0.96580(69)
C7_8 C 0.67064(44) 0.19403(24) 0.82869(81)
C8_8 C 0.69506(42) 0.19557(23) 0.95197(97)
H1_6 H 0.664467 0.277987 0.554153
H2_6 H 0.633247 0.202477 0.581702
H3_6 H 0.588523 0.269536 0.621167
H4_8 H 0.657211 0.149751 0.785094
H5_8 H 0.657211 0.350249 0.785094
C1_9 C 0.67064(44) 0.69403(24) 0.17131(81)
C2_9 C 0.69506(42) 0.69557(23) 0.04803(97)
C4_7 C 0.63526(58) 0.75000 0.38143(75)
C6_11 C 0.66266(48) 0.75000 0.24306(84)
O5_9 O 0.68104(30) 0.91337(30) 0.03420(69)
C7_9 C 0.67064(44) 0.80597(24) 0.17131(81)
C8_9 C 0.69506(42) 0.80443(23) 0.04803(97)
H1_7 H 0.664467 0.722013 0.445847
H2_7 H 0.633247 0.797523 0.418298
H3_7 H 0.588523 0.730464 0.378833
H4_9 H 0.657211 0.850249 0.214906
H5_9 H 0.657211 0.649751 0.214906
O2_7 O 0.73869(29) 0.63146(33) 0.88185(71)
C3_9 C 0.70404(58) 0.63696(24) 0.9772(13)
C5_11 C 0.71342(63) 0.75000 0.9847(12)
O4_9 O 0.73869(29) 0.86854(33) 0.88185(71)
C9_9 C 0.70404(58) 0.86304(24) 0.9772(13)
O6_5 O 0.75996(29) 0.50996(29) 0.625
O7_7 O 0.76131(29) 0.63146(33) 0.61815(71)
O8_6 O 0.83663(30) 0.56896(30) 0.78420(69)
H6_11 H 0.73987 0.75 0.893465
C1_10 C 0.32936(44) 0.80597(24) 0.17131(81)
C2_10 C 0.30494(42) 0.80443(23) 0.04803(97)
C4_8 C 0.36474(58) 0.75000 0.38143(75)
C6_12 C 0.33734(48) 0.75000 0.24306(84)
O5_10 O 0.31896(30) 0.58663(30) 0.03420(69)
C7_10 C 0.32936(44) 0.69403(24) 0.17131(81)
C8_10 C 0.30494(42) 0.69557(23) 0.04803(97)
H1_8 H 0.335533 0.777987 0.445847
H2_8 H 0.366753 0.702477 0.418298
H3_8 H 0.411477 0.769536 0.378833
H4_10 H 0.342789 0.649751 0.214906
H5_10 H 0.342789 0.850249 0.214906
C3_10 C 0.29596(58) 0.86304(24) 0.9772(13)
C5_12 C 0.28658(63) 0.75000 0.9847(12)
O4_10 O 0.26131(29) 0.63146(33) 0.88185(71)
C9_10 C 0.29596(58) 0.63696(24) 0.9772(13)
H6_12 H 0.26013 0.75 0.893465
C3_11 C 0.29596(58) 0.13696(24) 0.0228(13)
C5_13 C 0.28658(63) 0.25000 0.0153(12)
O4_11 O 0.26131(29) 0.36854(33) 0.11815(71)
C9_11 C 0.29596(58) 0.36304(24) 0.0228(13)
H6_13 H 0.26013 0.25 0.106535
C1_11 C 0.32936(44) 0.19403(24) 0.82869(81)
C2_11 C 0.30494(42) 0.19557(23) 0.95197(97)
C4_9 C 0.36474(58) 0.25000 0.61857(75)
C6_13 C 0.33734(48) 0.25000 0.75694(84)
O5_11 O 0.31896(30) 0.41337(30) 0.96580(69)
C7_11 C 0.32936(44) 0.30597(24) 0.82869(81)
C8_11 C 0.30494(42) 0.30443(23) 0.95197(97)
H1_9 H 0.335533 0.222013 0.554153
H2_9 H 0.366753 0.297523 0.581702
H3_9 H 0.411477 0.230464 0.621167
H4_11 H 0.342789 0.350249 0.785094
H5_11 H 0.342789 0.149751 0.785094
O3_6 O 0.81896(30) 0.41337(30) 0.53420(69)
C1_12 C 0.82936(44) 0.30597(24) 0.67131(81)
C2_12 C 0.80494(42) 0.30443(23) 0.54803(97)
C3_12 C 0.79596(58) 0.36304(24) 0.4772(13)
C4_10 C 0.86474(58) 0.25000 0.88143(75)
C5_14 C 0.78658(63) 0.25000 0.4847(12)
C6_14 C 0.83734(48) 0.25000 0.74306(84)
O4_12 O 0.76131(29) 0.13146(33) 0.38185(71)
O5_12 O 0.81896(30) 0.08663(30) 0.53420(69)
C7_12 C 0.82936(44) 0.19403(24) 0.67131(81)
C8_12 C 0.80494(42) 0.19557(23) 0.54803(97)
C9_12 C 0.79596(58) 0.13696(24) 0.4772(13)
Al3_5 Al 0.81655(24) 0.50000 0.50000
H1_10 H 0.835533 0.277987 0.945847
H2_10 H 0.866753 0.202477 0.918298
H3_10 H 0.911477 0.269536 0.878833
H4_12 H 0.842789 0.149751 0.714906
H5_12 H 0.842789 0.350249 0.714906
H6_14 H 0.76013 0.25 0.393465
O3_7 O 0.81896(30) 0.58663(30) 0.46580(69)
C1_13 C 0.82936(44) 0.69403(24) 0.32869(81)
C2_13 C 0.80494(42) 0.69557(23) 0.45197(97)
C3_13 C 0.79596(58) 0.63696(24) 0.5228(13)
C4_11 C 0.86474(58) 0.75000 0.11857(75)
C5_15 C 0.78658(63) 0.75000 0.5153(12)
C6_15 C 0.83734(48) 0.75000 0.25694(84)
O4_13 O 0.76131(29) 0.86854(33) 0.61815(71)
O5_13 O 0.81896(30) 0.91337(30) 0.46580(69)
C7_13 C 0.82936(44) 0.80597(24) 0.32869(81)
C8_13 C 0.80494(42) 0.80443(23) 0.45197(97)
C9_13 C 0.79596(58) 0.86304(24) 0.5228(13)
H1_11 H 0.835533 0.722013 0.0541531
H2_11 H 0.866753 0.797523 0.0817017
H3_11 H 0.911477 0.730464 0.121167
H4_13 H 0.842789 0.850249 0.285094
H5_13 H 0.842789 0.649751 0.285094
H6_15 H 0.76013 0.75 0.606535
C1_14 C 0.44403(24) 0.92064(44) 0.57869(81)
C2_14 C 0.44557(23) 0.94506(42) 0.70197(97)
C3_14 C 0.38696(24) 0.95404(58) 0.7728(13)
C4_12 C 0.50000 0.88526(58) 0.36857(75)
C5_16 C 0.50000 0.96342(63) 0.7653(12)
C6_16 C 0.50000 0.91266(48) 0.50694(84)
O4_14 O 0.61854(33) 0.98869(29) 0.86815(71)
O5_14 O 0.66337(30) 0.93104(30) 0.71580(69)
C7_14 C 0.55597(24) 0.92064(44) 0.57869(81)
C8_14 C 0.55443(23) 0.94506(42) 0.70197(97)
C9_14 C 0.61304(24) 0.95404(58) 0.7728(13)
H1_12 H 0.472013 0.914467 0.304153
H2_12 H 0.547523 0.883247 0.331702
H3_12 H 0.480464 0.838523 0.371167
H4_14 H 0.600249 0.907211 0.535094
H5_14 H 0.399751 0.907211 0.535094
H6_16 H 0.5 0.98987 0.856535
C5_17 C 0.00000 0.46342(63) 0.2653(12)
C6_17 C -0.00000 0.41266(48) 0.00694(84)
O4_15 O 0.11854(33) 0.48869(29) 0.36815(71)
O5_15 O 0.16337(30) 0.43104(30) 0.21580(69)
C7_15 C 0.05597(24) 0.42064(44) 0.07869(81)
C8_15 C 0.05443(23) 0.44506(42) 0.20197(97)
C9_15 C 0.11304(24) 0.45404(58) 0.2728(13)
H4_15 H 0.100249 0.407211 0.0350944
H6_17 H -6.16298e-33 0.48987 0.356535
O2_8 O 0.88146(33) 0.48869(29) 0.36815(71)
C1_15 C 0.94403(24) 0.42064(44) 0.07869(81)
C2_15 C 0.94557(23) 0.44506(42) 0.20197(97)
C3_15 C 0.88696(24) 0.45404(58) 0.2728(13)
C5_18 C 1.00000 0.46342(63) 0.2653(12)
C6_18 C 1.00000 0.41266(48) 0.00694(84)
O7_8 O 0.88146(33) 0.51131(29) 0.63185(71)
H5_15 H 0.899751 0.407211 0.0350944
H6_18 H 1 0.48987 0.356535
C5_19 C 0.00000 0.53658(63) 0.7347(12)
C6_19 C 0.00000 0.58734(48) 0.99306(84)
O4_16 O 0.11854(33) 0.51131(29) 0.63185(71)
O5_16 O 0.16337(30) 0.56896(30) 0.78420(69)
C7_16 C 0.05597(24) 0.57936(44) 0.92131(81)
C8_16 C 0.05443(23) 0.55494(42) 0.79803(97)
C9_16 C 0.11304(24) 0.54596(58) 0.7272(13)
H4_16 H 0.100249 0.592789 0.964906
H6_19 H 9.24446e-33 0.51013 0.643465
C1_16 C 0.94403(24) 0.57936(44) 0.92131(81)
C2_16 C 0.94557(23) 0.55494(42) 0.79803(97)
C3_16 C 0.88696(24) 0.54596(58) 0.7272(13)
C5_20 C 1.00000 0.53658(63) 0.7347(12)
C6_20 C 1.00000 0.58734(48) 0.99306(84)
H5_16 H 0.899751 0.592789 0.964906
H6_20 H 1 0.51013 0.643465
O6_6 O 0.74004(29) 0.00996(29) 0.125
O1_4 O 0.74004(29) 0.99004(29) 0.875
H1_13 H 0.527987 0.914467 0.304153
H2_13 H 0.452477 0.883247 0.331702
H3_13 H 0.519536 0.838523 0.371167
O6_7 O 0.25996(29) 0.49004(29) 0.125
O1_5 O 0.25996(29) 0.50996(29) 0.875
H1_14 H 0.472013 0.585533 0.304153
H2_14 H 0.547523 0.616753 0.331702
H3_14 H 0.480464 0.661477 0.371167
H1_15 H 0.472013 0.414467 0.695847
H2_15 H 0.547523 0.383247 0.668298
H3_15 H 0.480464 0.338523 0.628833
O1_6 O 0.75996(29) 0.00996(29) 0.375
O6_8 O 0.75996(29) 0.99004(29) 0.625
H1_16 H 0.835533 0.222013 0.945847
H2_16 H 0.866753 0.297523 0.918298
H3_16 H 0.911477 0.230464 0.878833
H1_17 H 0.835533 0.777987 0.0541531
H2_17 H 0.866753 0.702477 0.0817017
H3_17 H 0.911477 0.769536 0.121167
H1_18 H 0.335533 0.722013 0.445847
H2_18 H 0.366753 0.797523 0.418298
H3_18 H 0.411477 0.730464 0.378833
O6_9 O 0.24004(29) 0.50996(29) 0.625
O6_10 O 0.24004(29) 0.49004(29) 0.375
H1_19 H 0.335533 0.277987 0.554153
H2_19 H 0.366753 0.202477 0.581702
H3_19 H 0.411477 0.269536 0.621167
H1_20 H 0.664467 0.222013 0.554153
H2_20 H 0.633247 0.297523 0.581702
H3_20 H 0.588523 0.230464 0.621167
H1_21 H 0.664467 0.777987 0.445847
H2_21 H 0.633247 0.702477 0.418298
H3_21 H 0.588523 0.769536 0.378833
H1_22 H 0.164467 0.722013 0.0541531
H2_22 H 0.133247 0.797523 0.0817017
H3_22 H 0.0885231 0.730464 0.121167
H1_23 H 0.164467 0.277987 0.945847
H2_23 H 0.133247 0.202477 0.918298
H3_23 H 0.0885231 0.269536 0.878833
H1_24 H 0.527987 0.0855327 0.695847
H2_24 H 0.452477 0.116753 0.668298
H3_24 H 0.519536 0.161477 0.628833
C4_13 C 0.00000 0.88526(58) 0.13143(75)
H1_25 H 0.0279867 0.914467 0.195847
H3_25 H 0.0195362 0.838523 0.128833
H2_25 H 0.047523 0.883247 0.168298
C4_14 C 1.00000 0.88526(58) 0.13143(75)
H2_26 H 0.952477 0.883247 0.168298
H1_26 H 0.972013 0.914467 0.195847
H3_26 H 0.980464 0.838523 0.128833
C4_15 C 0.00000 0.11474(58) 0.86857(75)
H1_27 H 0.0279867 0.0855327 0.804153
H3_27 H 0.0195362 0.161477 0.871167
H2_27 H 0.047523 0.116753 0.831702
C4_16 C 1.00000 0.11474(58) 0.86857(75)
H2_28 H 0.952477 0.116753 0.831702
H1_28 H 0.972013 0.0855327 0.804153
H3_28 H 0.980464 0.161477 0.871167
C4_17 C 0.00000 0.38526(58) 0.86857(75)
H2_29 H 0.047523 0.383247 0.831702
H1_29 H 0.0279867 0.414467 0.804153
H3_29 H 0.0195362 0.338523 0.871167
C4_18 C 1.00000 0.38526(58) 0.86857(75)
H1_30 H 0.972013 0.414467 0.804153
H3_30 H 0.980464 0.338523 0.871167
H2_30 H 0.952477 0.383247 0.831702
C4_19 C 0.00000 0.61474(58) 0.13143(75)
H2_31 H 0.047523 0.616753 0.168298
H1_31 H 0.0279867 0.585533 0.195847
H3_31 H 0.0195362 0.661477 0.128833
C4_20 C 1.00000 0.61474(58) 0.13143(75)
H1_32 H 0.972013 0.585533 0.195847
H3_32 H 0.980464 0.661477 0.128833
H2_32 H 0.952477 0.616753 0.168298
loop_
_geom_bond_atom_site_label_1
_geom_bond_atom_site_label_2
_geom_bond_site_symmetry_1
_geom_bond_site_symmetry_2
Al1 O1 1_555 1_555
O1 Al3 1_555 1_555
O2 Al1 1_555 1_555
O3 C3 1_555 1_555
C1 C2 1_555 1_555
C2 C3 1_555 1_555
C3 O2 1_555 1_555
C4 C6 1_555 1_555
C5 C2 1_555 1_555
C6 C1 1_555 1_555
O4 C9 1_555 1_555
O5 C9 1_555 1_555
C7 C6 1_555 1_555
C8 C5 1_555 1_555
C9 C8 1_555 1_555
Al2 O4 1_555 1_555
Al3 O3 1_555 1_555
Al4 O5 1_555 1_555
C7 C8 1_555 1_555
C4 H1 1_555 1_555
C4 H2 1_555 1_555
C4 H3 1_555 1_555
C7 H4 1_555 1_555
C1 H5 1_555 1_555
C5 H6 1_555 1_555
O9 Al1_2 1_555 1_555
O8 Al1_3 1_555 1_555
O6 Al1_4 1_555 1_555
O7 Al1_4 1_555 1_555
Al1_5 O1_2 1_555 1_555
O1_2 Al3_2 1_555 1_555
O2_2 Al1_5 1_555 1_555
O3_2 C3_2 1_555 1_555
C1_2 C2_2 1_555 1_555
C2_2 C3_2 1_555 1_555
C3_2 O2_2 1_555 1_555
C4_2 C6_2 1_555 1_555
C5_2 C2_2 1_555 1_555
C6_2 C1_2 1_555 1_555
O4_2 C9_2 1_555 1_555
O5_2 C9_2 1_555 1_555
C7_2 C6_2 1_555 1_555
C8_2 C5_2 1_555 1_555
C9_2 C8_2 1_555 1_555
Al2_5 O4_2 1_555 1_555
Al3_2 O3_2 1_555 1_555
Al4_2 O5_2 1_555 1_555
O8_2 Al1_5 1_555 1_555
C7_2 C8_2 1_555 1_555
C4_2 H1_2 1_555 1_555
C4_2 H2_2 1_555 1_555
C4_2 H3_2 1_555 1_555
C7_2 H4_2 1_555 1_555
C1_2 H5_2 1_555 1_555
C5_2 H6_2 1_555 1_555
O6_2 Al1_6 1_555 1_555
O7_2 Al1_6 1_555 1_555
O9_2 Al1_6 1_555 1_555
O6_2 Al3_3 1_555 1_555
O3_3 C3_3 1_555 1_555
C1_3 C2_3 1_555 1_555
C2_3 C3_3 1_555 1_555
C3_3 O7_2 1_555 1_555
C4_3 C6_3 1_555 1_555
C5_3 C2_3 1_555 1_555
C6_3 C1_3 1_555 1_555
O4_3 C9_3 1_555 1_555
O5_3 C9_3 1_555 1_555
C7_3 C6_3 1_555 1_555
C8_3 C5_3 1_555 1_555
C9_3 C8_3 1_555 1_555
Al2_6 O4_3 1_555 1_555
Al3_3 O3_3 1_555 1_555
Al4_3 O5_3 1_555 1_555
C7_3 C8_3 1_555 1_555
C4_3 H1_3 1_555 1_555
C4_3 H2_3 1_555 1_555
C4_3 H3_3 1_555 1_555
C7_3 H4_3 1_555 1_555
C1_3 H5_3 1_555 1_555
C5_3 H6_3 1_555 1_555
O6_3 Al1_7 1_555 1_555
O7_3 Al1_7 1_555 1_555
O8_3 Al1_7 1_555 1_555
Al1_8 O1_3 1_555 1_555
O1_3 Al3_4 1_555 1_555
O2_3 Al1_8 1_555 1_555
O3_4 C3_4 1_555 1_555
C1_4 C2_4 1_555 1_555
C2_4 C3_4 1_555 1_555
C3_4 O2_3 1_555 1_555
C5_4 C2_4 1_555 1_555
C6_4 C1_4 1_555 1_555
Al3_4 O3_4 1_555 1_555
O9_3 Al1_8 1_555 1_555
C1_4 H5_4 1_555 1_555
C5_4 H6_4 1_555 1_555
O4_4 C9_4 1_555 1_555
O5_4 C9_4 1_555 1_555
C7_4 C6_5 1_555 1_555
C8_4 C5_5 1_555 1_555
C9_4 C8_4 1_555 1_555
Al2_8 O4_4 1_555 1_555
Al4_4 O5_4 1_555 1_555
C7_4 C8_4 1_555 1_555
C7_4 H4_4 1_555 1_555
C5_5 H6_5 1_555 1_555
O6_3 Al3 1_555 1_555
O3_5 C3_5 1_555 1_555
C1_5 C2_5 1_555 1_555
C2_5 C3_5 1_555 1_555
C3_5 O7_3 1_555 1_555
C5_6 C2_5 1_555 1_555
C6_6 C1_5 1_555 1_555
Al3 O3_5 1_555 1_555
C1_5 H5_5 1_555 1_555
C5_6 H6_6 1_555 1_555
O4_5 C9_5 1_555 1_555
O5_5 C9_5 1_555 1_555
C7_5 C6_7 1_555 1_555
C8_5 C5_7 1_555 1_555
C9_5 C8_5 1_555 1_555
Al2_7 O4_5 1_555 1_555
Al4 O5_5 1_555 1_555
C7_5 C8_5 1_555 1_555
C7_5 H4_5 1_555 1_555
C5_7 H6_7 1_555 1_555
O2_4 Al3_4 1_555 1_555
O9_3 C3_6 1_555 1_555
C1_6 C2_6 1_555 1_555
C2_6 C3_6 1_555 1_555
C3_6 O2_4 1_555 1_555
C4_4 C6_8 1_555 1_555
C5_8 C2_6 1_555 1_555
C6_8 C1_6 1_555 1_555
O4_6 C9_6 1_555 1_555
O5_6 C9_6 1_555 1_555
C7_6 C6_8 1_555 1_555
C8_6 C5_8 1_555 1_555
C9_6 C8_6 1_555 1_555
Al4_3 O4_6 1_555 1_555
Al4_5 O5_6 1_555 1_555
O6 Al3_4 1_555 1_555
O7_4 Al3_4 1_555 1_555
O8_4 Al3_4 1_555 1_555
C7_6 C8_6 1_555 1_555
C4_4 H1_4 1_555 1_555
C4_4 H2_4 1_555 1_555
C4_4 H3_4 1_555 1_555
C7_6 H4_6 1_555 1_555
C1_6 H5_6 1_555 1_555
C5_8 H6_8 1_555 1_555
O2_5 Al3 1_555 1_555
O8_3 C3_7 1_555 1_555
C1_7 C2_7 1_555 1_555
C2_7 C3_7 1_555 1_555
C3_7 O2_5 1_555 1_555
C4_5 C6_9 1_555 1_555
C5_9 C2_7 1_555 1_555
C6_9 C1_7 1_555 1_555
O4_7 C9_7 1_555 1_555
O5_7 C9_7 1_555 1_555
C7_7 C6_9 1_555 1_555
C8_7 C5_9 1_555 1_555
C9_7 C8_7 1_555 1_555
Al4_2 O4_7 1_555 1_555
Al4_5 O5_7 1_555 1_555
O7_5 Al3 1_555 1_555
C7_7 C8_7 1_555 1_555
C4_5 H1_5 1_555 1_555
C4_5 H2_5 1_555 1_555
C4_5 H3_5 1_555 1_555
C7_7 H4_7 1_555 1_555
C1_7 H5_7 1_555 1_555
C5_9 H6_9 1_555 1_555
O2_6 Al3_2 1_555 1_555
C3_8 O2_6 1_555 1_555
O4_8 C9_8 1_555 1_555
Al4 O4_8 1_555 1_555
O6_4 Al3_2 1_555 1_555
O7_6 Al3_2 1_555 1_555
O8_5 Al3_2 1_555 1_555
C5_10 H6_10 1_555 1_555
C1_8 C2_8 1_555 1_555
C4_6 C6_10 1_555 1_555
C6_10 C1_8 1_555 1_555
C7_8 C6_10 1_555 1_555
Al2_2 O5_8 1_555 1_555
C7_8 C8_8 1_555 1_555
C4_6 H1_6 1_555 1_555
C4_6 H2_6 1_555 1_555
C4_6 H3_6 1_555 1_555
C7_8 H4_8 1_555 1_555
C1_8 H5_8 1_555 1_555
C1_9 C2_9 1_555 1_555
C4_7 C6_11 1_555 1_555
C6_11 C1_9 1_555 1_555
C7_9 C6_11 1_555 1_555
Al2_3 O5_9 1_555 1_555
C7_9 C8_9 1_555 1_555
C4_7 H1_7 1_555 1_555
C4_7 H2_7 1_555 1_555
C4_7 H3_7 1_555 1_555
C7_9 H4_9 1_555 1_555
C1_9 H5_9 1_555 1_555
O2_7 Al3_3 1_555 1_555
C3_9 O2_7 1_555 1_555
O4_9 C9_9 1_555 1_555
Al4_4 O4_9 1_555 1_555
O6_5 Al3_3 1_555 1_555
O7_7 Al3_3 1_555 1_555
O8_6 Al3_3 1_555 1_555
C5_11 H6_11 1_555 1_555
C1_10 C2_10 1_555 1_555
C4_8 C6_12 1_555 1_555
C6_12 C1_10 1_555 1_555
C7_10 C6_12 1_555 1_555
Al2_5 O5_10 1_555 1_555
C7_10 C8_10 1_555 1_555
C4_8 H1_8 1_555 1_555
C4_8 H2_8 1_555 1_555
C4_8 H3_8 1_555 1_555
C7_10 H4_10 1_555 1_555
C1_10 H5_10 1_555 1_555
C3_10 O7_4 1_555 1_555
O4_10 C9_10 1_555 1_555
Al4_3 O4_10 1_555 1_555
C5_12 H6_12 1_555 1_555
C3_11 O7_5 1_555 1_555
O4_11 C9_11 1_555 1_555
Al4_2 O4_11 1_555 1_555
C5_13 H6_13 1_555 1_555
C1_11 C2_11 1_555 1_555
C4_9 C6_13 1_555 1_555
C6_13 C1_11 1_555 1_555
C7_11 C6_13 1_555 1_555
Al2_6 O5_11 1_555 1_555
C7_11 C8_11 1_555 1_555
C4_9 H1_9 1_555 1_555
C4_9 H2_9 1_555 1_555
C4_9 H3_9 1_555 1_555
C7_11 H4_11 1_555 1_555
C1_11 H5_11 1_555 1_555
O6_4 Al3_5 1_555 1_555
O3_6 C3_12 1_555 1_555
C1_12 C2_12 1_555 1_555
C2_12 C3_12 1_555 1_555
C3_12 O7_6 1_555 1_555
C4_10 C6_14 1_555 1_555
C5_14 C2_12 1_555 1_555
C6_14 C1_12 1_555 1_555
O4_12 C9_12 1_555 1_555
O5_12 C9_12 1_555 1_555
C7_12 C6_14 1_555 1_555
C8_12 C5_14 1_555 1_555
C9_12 C8_12 1_555 1_555
Al4 O4_12 1_555 1_555
Al3_5 O3_6 1_555 1_555
Al2_7 O5_12 1_555 1_555
C7_12 C8_12 1_555 1_555
C4_10 H1_10 1_555 1_555
C4_10 H2_10 1_555 1_555
C4_10 H3_10 1_555 1_555
C7_12 H4_12 1_555 1_555
C1_12 H5_12 1_555 1_555
C5_14 H6_14 1_555 1_555
O6_5 Al3_5 1_555 1_555
O3_7 C3_13 1_555 1_555
C1_13 C2_13 1_555 1_555
C2_13 C3_13 1_555 1_555
C3_13 O7_7 1_555 1_555
C4_11 C6_15 1_555 1_555
C5_15 C2_13 1_555 1_555
C6_15 C1_13 1_555 1_555
O4_13 C9_13 1_555 1_555
O5_13 C9_13 1_555 1_555
C7_13 C6_15 1_555 1_555
C8_13 C5_15 1_555 1_555
C9_13 C8_13 1_555 1_555
Al4_4 O4_13 1_555 1_555
Al3_5 O3_7 1_555 1_555
Al2_8 O5_13 1_555 1_555
C7_13 C8_13 1_555 1_555
C4_11 H1_11 1_555 1_555
C4_11 H2_11 1_555 1_555
C4_11 H3_11 1_555 1_555
C7_13 H4_13 1_555 1_555
C1_13 H5_13 1_555 1_555
C5_15 H6_15 1_555 1_555
O8_4 C3_14 1_555 1_555
C1_14 C2_14 1_555 1_555
C2_14 C3_14 1_555 1_555
C3_14 O7 1_555 1_555
C4_12 C6_16 1_555 1_555
C5_16 C2_14 1_555 1_555
C6_16 C1_14 1_555 1_555
O4_14 C9_14 1_555 1_555
O5_14 C9_14 1_555 1_555
C7_14 C6_16 1_555 1_555
C8_14 C5_16 1_555 1_555
C9_14 C8_14 1_555 1_555
Al2_4 O4_14 1_555 1_555
Al4_4 O5_14 1_555 1_555
C7_14 C8_14 1_555 1_555
C4_12 H1_12 1_555 1_555
C4_12 H2_12 1_555 1_555
C4_12 H3_12 1_555 1_555
C7_14 H4_14 1_555 1_555
C1_14 H5_14 1_555 1_555
C5_16 H6_16 1_555 1_555
O4_15 C9_15 1_555 1_555
O5_15 C9_15 1_555 1_555
C7_15 C6_17 1_555 1_555
C8_15 C5_17 1_555 1_555
C9_15 C8_15 1_555 1_555
Al4_5 O4_15 1_555 1_555
Al4_2 O5_15 1_555 1_555
C7_15 C8_15 1_555 1_555
C7_15 H4_15 1_555 1_555
C5_17 H6_17 1_555 1_555
O2_8 Al3_5 1_555 1_555
O8_5 C3_15 1_555 1_555
C1_15 C2_15 1_555 1_555
C2_15 C3_15 1_555 1_555
C3_15 O2_8 1_555 1_555
C5_18 C2_15 1_555 1_555
C6_18 C1_15 1_555 1_555
O7_8 Al3_5 1_555 1_555
C1_15 H5_15 1_555 1_555
C5_18 H6_18 1_555 1_555
O4_16 C9_16 1_555 1_555
O5_16 C9_16 1_555 1_555
C7_16 C6_19 1_555 1_555
C8_16 C5_19 1_555 1_555
C9_16 C8_16 1_555 1_555
Al4_5 O4_16 1_555 1_555
Al4_3 O5_16 1_555 1_555
C7_16 C8_16 1_555 1_555
C7_16 H4_16 1_555 1_555
C5_19 H6_19 1_555 1_555
O8_6 C3_16 1_555 1_555
C1_16 C2_16 1_555 1_555
C2_16 C3_16 1_555 1_555
C3_16 O7_8 1_555 1_555
C5_20 C2_16 1_555 1_555
C6_20 C1_16 1_555 1_555
C1_16 H5_16 1_555 1_555
C5_20 H6_20 1_555 1_555
O6_6 Al2 1_555 1_555
Al2_4 O1_4 1_555 1_555
O1_4 Al4_4 1_555 1_555
C4_12 H1_13 1_555 1_555
C4_12 H2_13 1_555 1_555
C4_12 H3_13 1_555 1_555
O6_7 Al2_5 1_555 1_555
Al2_6 O1_5 1_555 1_555
O1_5 Al4_3 1_555 1_555
C4_3 H1_14 1_555 1_555
C4_3 H2_14 1_555 1_555
C4_3 H3_14 1_555 1_555
O6_7 Al4_2 1_555 1_555
C4_2 H1_15 1_555 1_555
C4_2 H2_15 1_555 1_555
C4_2 H3_15 1_555 1_555
Al2_7 O1_6 1_555 1_555
O1_6 Al4 1_555 1_555
O6_8 Al2_8 1_555 1_555
O6_8 Al4_4 1_555 1_555
O6_6 Al4 1_555 1_555
C4_10 H1_16 1_555 1_555
C4_10 H2_16 1_555 1_555
C4_10 H3_16 1_555 1_555
C4_11 H1_17 1_555 1_555
C4_11 H2_17 1_555 1_555
C4_11 H3_17 1_555 1_555
C4_8 H1_18 1_555 1_555
C4_8 H2_18 1_555 1_555
C4_8 H3_18 1_555 1_555
O6_9 Al4_3 1_555 1_555
O6_10 Al4_2 1_555 1_555
C4_9 H1_19 1_555 1_555
C4_9 H2_19 1_555 1_555
C4_9 H3_19 1_555 1_555
C4_6 H1_20 1_555 1_555
C4_6 H2_20 1_555 1_555
C4_6 H3_20 1_555 1_555
C4_7 H1_21 1_555 1_555
C4_7 H2_21 1_555 1_555
C4_7 H3_21 1_555 1_555
O6_9 Al4_5 1_555 1_555
C4_4 H1_22 1_555 1_555
C4_4 H2_22 1_555 1_555
C4_4 H3_22 1_555 1_555
O6_10 Al4_5 1_555 1_555
C4_5 H1_23 1_555 1_555
C4_5 H2_23 1_555 1_555
C4_5 H3_23 1_555 1_555
C4 H1_24 1_555 1_555
C4 H2_24 1_555 1_555
C4 H3_24 1_555 1_555
C4_13 H1_25 1_555 1_555
C4_13 H3_25 1_555 1_555
C4_13 H2_25 1_555 1_555
C4_14 H2_26 1_555 1_555
C4_14 H1_26 1_555 1_555
C4_14 H3_26 1_555 1_555
C4_15 H1_27 1_555 1_555
C4_15 H3_27 1_555 1_555
C4_15 H2_27 1_555 1_555
C4_16 H2_28 1_555 1_555
C4_16 H1_28 1_555 1_555
C4_16 H3_28 1_555 1_555
C4_17 H2_29 1_555 1_555
C4_17 H1_29 1_555 1_555
C4_17 H3_29 1_555 1_555
C4_18 H1_30 1_555 1_555
C4_18 H3_30 1_555 1_555
C4_18 H2_30 1_555 1_555
C4_19 H2_31 1_555 1_555
C4_19 H1_31 1_555 1_555
C4_19 H3_31 1_555 1_555
C4_20 H1_32 1_555 1_555
C4_20 H3_32 1_555 1_555
C4_20 H2_32 1_555 1_555

#END
