
###############################################################################
#
# This file contains modified crystal structure data generated from the
# MOF subset of the Cambridge Structural Database (CSD) v543 
# hosted by the Cambridge Crystallographic Data Centre (CCDC).
#
# This work is licensed under the Creative Commons
# Attribution-NonCommercial-ShareAlike 4.0 International License.
# To view a copy of this license, visit
# http://creativecommons.org/licenses/by-nc-sa/4.0/
# or send a letter to
# Creative Commons, PO Box 1866, Mountain View, CA 94042, USA.
#
# CIF created using the CSD Python API on 29 September 2022
# The structure has been converted into the P1 space group
# The structure has a 3D framework
# The original CSD entry CEMJOV is in the monoclinic crystal system
# The framework has been calculated to contain at least 10.0% void space
# The void calculation uses a probe of radius 1.32A, grid spacing 0.4
# The framework is charged, counterions have been retained in the structure
#
###############################################################################

data_CEMJOV
_chemical_formula_moiety         '(C40 H8 In4 O32 3-)n'
_symmetry_cell_setting           triclinic
_symmetry_space_group_name_H-M   'P 1'
_symmetry_Int_Tables_number      1
_space_group_name_Hall           'P 1'
loop_
_symmetry_equiv_pos_site_id
_symmetry_equiv_pos_as_xyz
1 x,y,z
_cell_length_a                   7.2441(6)
_cell_length_b                   14.2018(12)
_cell_length_c                   17.147(2)
_cell_angle_alpha                90
_cell_angle_beta                 100.960(10)
_cell_angle_gamma                90
_cell_volume                     1731.89
loop_
_atom_site_label
_atom_site_type_symbol
_atom_site_fract_x
_atom_site_fract_y
_atom_site_fract_z
In1 In 0.03526(6) 0.09049(3) 0.55932(2)
In9 In 0.03526(6) 0.40951(3) 0.05932(2)
O24 O 0.2703(7) 0.1784(3) 0.5985(3)
O31 O 0.1937(6) 0.0130(3) 0.4714(2)
O28 O 0.1751(7) 0.9700(3) 0.6279(3)
H6 H 0.1735 0.0548 0.4252
In11 In 0.5000 0.0000 0.5000
In2 In 0.5000 0.5000 0.0000
C1 C 0.4377(9) 0.3448(5) 0.1268(4)
C2 C 0.4206(9) 0.1386(5) 0.3619(4)
C3 C 0.8322(9) 0.1159(5) 0.3857(4)
C4 C 0.5304(10) 0.1848(5) 0.3066(4)
C5 C 0.7367(9) 0.2780(5) 0.2094(4)
C6 C 0.8286(9) 0.2254(5) 0.2723(4)
H1 H 0.9591 0.2211 0.2820
C7 C 0.4390(9) 0.2365(5) 0.2427(4)
H2 H 0.3083 0.2392 0.2323
C8 C 0.7263(9) 0.1786(5) 0.3215(3)
C9 C 0.5401(9) 0.2849(5) 0.1930(4)
C10 C 0.8535(10) 0.3249(5) 0.1569(4)
O1 O 0.8476(7) 0.2957(4) 0.0881(3)
O2 O 0.9598(8) 0.3911(4) 0.1833(3)
O3 O 0.2703(7) 0.3216(3) 0.0985(3)
O4 O 0.5268(6) 0.4115(3) 0.1051(3)
O5 O 0.5195(7) 0.1198(3) 0.4310(3)
O6 O 0.2524(7) 0.1209(4) 0.3425(3)
O7 O 0.9294(6) 0.1572(3) 0.4446(3)
O8 O 0.8249(7) 0.0300(3) 0.3721(3)
O20 O 0.8476(7) 0.2043(4) 0.5881(3)
O22 O 0.9598(8) 0.1089(4) 0.6833(3)
O25 O 0.4805(7) 0.6198(3) 0.0690(3)
O32 O 0.8063(6) 0.5130(3) 0.0286(2)
In2_2 In 0.5000 0.5000 1.0000
C11 C 0.5623(9) 0.6552(5) 0.8732(4)
C12 C 0.5794(9) 0.8614(5) 0.6381(4)
C13 C 0.1678(9) 0.8841(5) 0.6143(4)
C14 C 0.4696(10) 0.8152(5) 0.6934(4)
C15 C 0.2633(9) 0.7220(5) 0.7906(4)
C16 C 0.1714(9) 0.7746(5) 0.7277(4)
H4 H 0.0409 0.7789 0.7180
C17 C 0.5610(9) 0.7635(5) 0.7573(4)
H5 H 0.6917 0.7608 0.7677
C18 C 0.2737(9) 0.8214(5) 0.6785(3)
C19 C 0.4599(9) 0.7151(5) 0.8070(4)
C20 C 0.1465(10) 0.6751(5) 0.8431(4)
O10 O 0.1524(7) 0.7043(4) 0.9119(3)
O11 O 0.0402(8) 0.6089(4) 0.8167(3)
O12 O 0.7297(7) 0.6784(3) 0.9015(3)
O13 O 0.4732(6) 0.5885(3) 0.8949(3)
O14 O 0.4805(7) 0.8802(3) 0.5690(3)
O15 O 0.7476(7) 0.8791(4) 0.6575(3)
O16 O 0.0706(6) 0.8428(3) 0.5554(3)
In6 In 0.96474(6) 0.59049(3) 0.94068(2)
In11_2 In 0.5000 1.0000 0.5000
O19 O 0.1524(7) 0.7957(4) 0.4119(3)
O21 O 0.0402(8) 0.8911(4) 0.3167(3)
O26 O 0.5195(7) 0.3802(3) 0.9310(3)
O30 O 0.1937(6) 0.4870(3) 0.9714(2)
O9 O 0.8063(6) 0.9870(3) 0.5286(2)
H3 H 0.8265 0.9452 0.5748
In7 In 0.96474(6) 0.90951(3) 0.44068(2)
O23 O 0.7297(7) 0.8216(3) 0.4015(3)
O27 O 0.1751(7) 0.5300(3) 0.1279(3)
H6_2 H 0.8265 0.5548 0.0748
C11_2 C 0.4377(9) 0.1552(5) 0.6268(4)
C12_2 C 0.4206(9) 0.3614(5) 0.8619(4)
C13_2 C 0.8322(9) 0.3841(5) 0.8857(4)
C14_2 C 0.5304(10) 0.3152(5) 0.8066(4)
C15_2 C 0.7367(9) 0.2220(5) 0.7094(4)
C16_2 C 0.8286(9) 0.2746(5) 0.7723(4)
H4_2 H 0.9591 0.2789 0.7820
C17_2 C 0.4390(9) 0.2635(5) 0.7427(4)
H5_2 H 0.3083 0.2608 0.7323
C18_2 C 0.7263(9) 0.3214(5) 0.8215(3)
C19_2 C 0.5401(9) 0.2151(5) 0.6930(4)
C20_2 C 0.8535(10) 0.1751(5) 0.6569(4)
O13_2 O 0.5268(6) 0.0885(3) 0.6051(3)
O15_2 O 0.2524(7) 0.3791(4) 0.8425(3)
O16_2 O 0.9294(6) 0.3428(3) 0.9446(3)
O17 O 0.8249(7) 0.4700(3) 0.8721(3)
C1_2 C 0.5623(9) 0.8448(5) 0.3732(4)
C2_2 C 0.5794(9) 0.6386(5) 0.1381(4)
C3_2 C 0.1678(9) 0.6159(5) 0.1143(4)
C4_2 C 0.4696(10) 0.6848(5) 0.1934(4)
C5_2 C 0.2633(9) 0.7780(5) 0.2906(4)
C6_2 C 0.1714(9) 0.7254(5) 0.2277(4)
H1_2 H 0.0409 0.7211 0.2180
C7_2 C 0.5610(9) 0.7365(5) 0.2573(4)
H2_2 H 0.6917 0.7392 0.2677
C8_2 C 0.2737(9) 0.6786(5) 0.1785(3)
C9_2 C 0.4599(9) 0.7849(5) 0.3070(4)
C10_2 C 0.1465(10) 0.8249(5) 0.3431(4)
O4_2 O 0.4732(6) 0.9115(3) 0.3949(3)
O6_2 O 0.7476(7) 0.6209(4) 0.1575(3)
O7_2 O 0.0706(6) 0.6572(3) 0.0554(3)
H3_2 H 0.1735 0.4452 0.9252
loop_
_geom_bond_atom_site_label_1
_geom_bond_atom_site_label_2
_geom_bond_site_symmetry_1
_geom_bond_site_symmetry_2
O24 In1 1_555 1_555
O31 In1 1_555 1_555
H6 O31 1_555 1_555
O31 In11 1_555 1_555
In2 O4 1_555 1_555
C1 C9 1_555 1_555
C2 C4 1_555 1_555
C3 C8 1_555 1_555
C4 C7 1_555 1_555
C5 C6 1_555 1_555
C6 H1 1_555 1_555
C7 H2 1_555 1_555
C8 C4 1_555 1_555
C9 C5 1_555 1_555
C10 C5 1_555 1_555
O1 C10 1_555 1_555
O2 C10 1_555 1_555
O3 C1 1_555 1_555
O4 C1 1_555 1_555
O5 C2 1_555 1_555
O6 C2 1_555 1_555
O7 C3 1_555 1_555
O8 C3 1_555 1_555
In9 O3 1_555 1_555
In11 O5 1_555 1_555
O25 In2 1_555 1_555
O32 In2 1_555 1_555
C6 C8 1_555 1_555
C7 C9 1_555 1_555
C11 C19 1_555 1_555
C12 C14 1_555 1_555
C13 C18 1_555 1_555
C14 C17 1_555 1_555
C15 C16 1_555 1_555
C16 H4 1_555 1_555
C17 H5 1_555 1_555
C18 C14 1_555 1_555
C19 C15 1_555 1_555
C20 C15 1_555 1_555
O10 C20 1_555 1_555
O11 C20 1_555 1_555
O12 C11 1_555 1_555
O13 In2_2 1_555 1_555
O14 C12 1_555 1_555
O15 C12 1_555 1_555
O16 C13 1_555 1_555
O28 C13 1_555 1_555
In6 O12 1_555 1_555
In11_2 O14 1_555 1_555
O26 In2_2 1_555 1_555
O30 In2_2 1_555 1_555
C11 O13 1_555 1_555
C16 C18 1_555 1_555
C17 C19 1_555 1_555
H3 O9 1_555 1_555
O9 In7 1_555 1_555
O9 In11_2 1_555 1_555
O23 In7 1_555 1_555
O27 In9 1_555 1_555
H6_2 O32 1_555 1_555
C11_2 C19_2 1_555 1_555
C12_2 C14_2 1_555 1_555
C13_2 C18_2 1_555 1_555
C14_2 C17_2 1_555 1_555
C15_2 C16_2 1_555 1_555
C16_2 H4_2 1_555 1_555
C17_2 H5_2 1_555 1_555
C18_2 C14_2 1_555 1_555
C19_2 C15_2 1_555 1_555
C20_2 C15_2 1_555 1_555
O20 C20_2 1_555 1_555
O22 C20_2 1_555 1_555
O24 C11_2 1_555 1_555
O13_2 In11 1_555 1_555
O26 C12_2 1_555 1_555
O15_2 C12_2 1_555 1_555
O16_2 C13_2 1_555 1_555
O17 C13_2 1_555 1_555
In6 O17 1_555 1_555
C11_2 O13_2 1_555 1_555
C16_2 C18_2 1_555 1_555
C17_2 C19_2 1_555 1_555
In11_2 O4_2 1_555 1_555
C1_2 C9_2 1_555 1_555
C2_2 C4_2 1_555 1_555
C3_2 C8_2 1_555 1_555
C4_2 C7_2 1_555 1_555
C5_2 C6_2 1_555 1_555
C6_2 H1_2 1_555 1_555
C7_2 H2_2 1_555 1_555
C8_2 C4_2 1_555 1_555
C9_2 C5_2 1_555 1_555
C10_2 C5_2 1_555 1_555
O19 C10_2 1_555 1_555
O21 C10_2 1_555 1_555
O23 C1_2 1_555 1_555
O4_2 C1_2 1_555 1_555
O25 C2_2 1_555 1_555
O6_2 C2_2 1_555 1_555
O7_2 C3_2 1_555 1_555
O27 C3_2 1_555 1_555
C6_2 C8_2 1_555 1_555
C7_2 C9_2 1_555 1_555
H3_2 O30 1_555 1_555

#END
