
###############################################################################
#
# This file contains modified crystal structure data generated from the
# MOF subset of the Cambridge Structural Database (CSD) v543 
# hosted by the Cambridge Crystallographic Data Centre (CCDC).
#
# This work is licensed under the Creative Commons
# Attribution-NonCommercial-ShareAlike 4.0 International License.
# To view a copy of this license, visit
# http://creativecommons.org/licenses/by-nc-sa/4.0/
# or send a letter to
# Creative Commons, PO Box 1866, Mountain View, CA 94042, USA.
#
# CIF created using the CSD Python API on 29 September 2022
# The structure has been converted into the P1 space group
# The structure has a 3D framework
# The original CSD entry CEMLIS is in the trigonal crystal system
# The original CSD entry CEMLIS is in a Sohncke space group
# The framework has been calculated to contain at least 10.0% void space
# The void calculation uses a probe of radius 1.32A, grid spacing 0.4
#
###############################################################################

data_CEMLIS
_chemical_formula_moiety         '(C168 H112 Al15 O67 Si6)n'
_symmetry_cell_setting           triclinic
_symmetry_space_group_name_H-M   'P 1'
_symmetry_Int_Tables_number      1
_space_group_name_Hall           'P 1'
loop_
_symmetry_equiv_pos_site_id
_symmetry_equiv_pos_as_xyz
1 x,y,z
_cell_length_a                   17.0240(17)
_cell_length_b                   17.0240(17)
_cell_length_c                   30.862(4)
_cell_angle_alpha                90
_cell_angle_beta                 90
_cell_angle_gamma                120
_cell_volume                     7746.01
loop_
_atom_site_label
_atom_site_type_symbol
_atom_site_fract_x
_atom_site_fract_y
_atom_site_fract_z
H1 H 0.000693 0.831519 0.282726
H2 H 0.032893 0.860479 0.241076
Al16 Al -0.000000 0.8376(11) 0.166667
H20 H 0.831519 0.000693 0.717274
H21 H 0.860479 0.032893 0.758924
Si1 Si 0.2737(2) 0.53698(16) 0.19714(7)
Al2 Al 0.8636(3) 0.7942(2) 0.23726(12)
O1 O 0.1026(4) 0.2666(4) 0.37809(17)
O3 O 0.7428(7) 0.7695(6) 0.2195(2)
O4 O 0.6983(4) 0.8176(4) 0.27868(19)
O5 O 0.1597(6) 0.8445(5) 0.1214(3)
O6 O 0.0590(12) 0.7847(12) 0.1699(6)
O7 O 0.2049(4) 0.1959(4) 0.06057(16)
O8 O 0.1729(4) 0.2740(3) 0.01391(16)
O9 O 0.0740(4) 0.9228(5) 0.1380(2)
O10 O 0.9925(10) 0.8172(9) 0.2561(5)
C1 C 0.1989(4) 0.2595(4) 0.05251(18)
C2 C 0.0762(6) 0.3207(5) 0.2655(2)
H3 H 0.018395 0.272818 0.259629
C3 C 0.1226(7) 0.3880(6) 0.2366(3)
H4 H 0.095196 0.385287 0.210135
C4 C 0.2073(6) 0.4596(6) 0.2440(2)
C5 C 0.2499(5) 0.4665(5) 0.2830(2)
H5 H 0.306448 0.516570 0.288719
C6 C 0.2074(6) 0.3977(6) 0.3138(3)
H6 H 0.236742 0.399236 0.339502
C7 C 0.1203(5) 0.3270(5) 0.3052(2)
C8 C 0.2538(7) 0.3241(6) 0.1254(2)
H7 H 0.262933 0.275349 0.130153
C9 C 0.2234(6) 0.3359(6) 0.0862(3)
C10 C 0.2026(7) 0.4036(5) 0.0789(2)
H8 H 0.178546 0.408199 0.052596
C11 C 0.2187(8) 0.4631(7) 0.1116(2)
H9 H 0.202377 0.507209 0.107698
C12 C 0.2583(7) 0.4613(5) 0.1505(2)
C13 C 0.2703(7) 0.3864(6) 0.1576(3)
H10 H 0.289941 0.378887 0.184634
C14 C 0.6800(7) 0.7714(7) 0.2444(3)
C15 C 0.4248(6) 0.6744(6) 0.2419(3)
H11 H 0.381083 0.679790 0.257562
C16 C 0.5143(7) 0.7297(8) 0.2503(4)
H12 H 0.531496 0.779791 0.268028
C17 C 0.5823(6) 0.7146(6) 0.2333(2)
C18 C 0.5522(8) 0.6482(9) 0.2023(4)
H13 H 0.595652 0.638789 0.188742
C19 C 0.4639(6) 0.5943(6) 0.1895(3)
H14 H 0.447689 0.549633 0.168495
C20 C 0.4000(6) 0.6098(6) 0.2097(3)
C21 C 0.0767(7) 0.2577(6) 0.3408(3)
C22 C 0.1574(10) 0.6082(11) 0.2090(5)
H15 H 0.128060 0.565293 0.230638
C23 C 0.2258(8) 0.6118(6) 0.1839(3)
C24 C 0.2671(9) 0.6757(8) 0.1514(4)
H16 H 0.317292 0.680088 0.137221
C25 C 0.2351(8) 0.7333(8) 0.1396(4)
H17 H 0.260622 0.773021 0.116393
C26 C 0.1654(9) 0.7302(9) 0.1627(4)
C27 C 0.1363(12) 0.6752(9) 0.1988(4)
H18 H 0.099099 0.683590 0.218068
C28 C 0.1376(9) 0.8007(9) 0.1485(4)
O12 O 0.0973(5) 0.0973(5) 0.000000
Al4 Al 0.19229(16) 0.09861(17) 0.02973(7)
O22 O 0.1192(4) 0.0155(4) 0.0694(2)
O23 O 0.9260(4) 0.8488(6) 0.1953(2)
Al6 Al 0.80771(16) 0.90632(23) 0.30360(7)
Al14 Al 0.1364(3) 0.9306(4) 0.09607(12)
Al15 Al 0.0694(4) 0.2058(2) 0.42941(12)
Al16_2 Al 1.000000 0.8376(11) 0.166667
O25 O 0.8360(6) 0.7334(4) 0.28858(17)
O27 O 0.0029(4) 0.1903(6) 0.00312(19)
O29 O 0.3017(4) 0.1193(6) 0.05465(19)
O31 O 0.8403(6) 0.6848(8) 0.2119(3)
O35 O 0.8808(4) 0.8963(6) 0.2639(2)
Al1 Al 0.09861(17) 0.19229(16) 0.97027(7)
O11 O 0.0155(4) 0.1192(4) 0.9306(2)
O12_2 O 0.0973(5) 0.0973(5) 1.000000
Si2 Si 0.53698(16) 0.2737(2) 0.80286(7)
Al5 Al 0.7942(2) 0.8636(3) 0.76274(12)
O13 O 0.2666(4) 0.1026(4) 0.62191(17)
O15 O 0.7695(6) 0.7428(7) 0.7805(2)
O16 O 0.8176(4) 0.6983(4) 0.72132(19)
O17 O 0.8445(5) 0.1597(6) 0.8786(3)
O18 O 0.7847(12) 0.0590(12) 0.8301(6)
O19 O 0.1959(4) 0.2049(4) 0.93943(16)
O20 O 0.2740(3) 0.1729(4) 0.98609(16)
O21 O 0.8172(9) 0.9925(10) 0.7439(5)
C29 C 0.2595(4) 0.1989(4) 0.94749(18)
C30 C 0.3207(5) 0.0762(6) 0.7345(2)
H22 H 0.272818 0.018395 0.740371
C31 C 0.3880(6) 0.1226(7) 0.7634(3)
H23 H 0.385287 0.095196 0.789865
C32 C 0.4596(6) 0.2073(6) 0.7560(2)
C33 C 0.4665(5) 0.2499(5) 0.7170(2)
H24 H 0.516570 0.306448 0.711281
C34 C 0.3977(6) 0.2074(6) 0.6862(3)
H25 H 0.399236 0.236742 0.660498
C35 C 0.3270(5) 0.1203(5) 0.6948(2)
C36 C 0.3241(6) 0.2538(7) 0.8746(2)
H26 H 0.275349 0.262933 0.869847
C37 C 0.3359(6) 0.2234(6) 0.9138(3)
C38 C 0.4036(5) 0.2026(7) 0.9211(2)
H27 H 0.408199 0.178546 0.947404
C39 C 0.4631(7) 0.2187(8) 0.8884(2)
H28 H 0.507209 0.202377 0.892302
C40 C 0.4613(5) 0.2583(7) 0.8495(2)
C41 C 0.3864(6) 0.2703(7) 0.8424(3)
H29 H 0.378887 0.289941 0.815366
C42 C 0.7714(7) 0.6800(7) 0.7556(3)
C43 C 0.6744(6) 0.4248(6) 0.7581(3)
H30 H 0.679790 0.381083 0.742438
C44 C 0.7297(8) 0.5143(7) 0.7497(4)
H31 H 0.779791 0.531496 0.731972
C45 C 0.7146(6) 0.5823(6) 0.7667(2)
C46 C 0.6482(9) 0.5522(8) 0.7977(4)
H32 H 0.638789 0.595652 0.811258
C47 C 0.5943(6) 0.4639(6) 0.8105(3)
H33 H 0.549633 0.447689 0.831505
C48 C 0.6098(6) 0.4000(6) 0.7903(3)
C49 C 0.2577(6) 0.0767(7) 0.6592(3)
C50 C 0.6082(11) 0.1574(10) 0.7910(5)
H34 H 0.565293 0.128060 0.769362
C51 C 0.6118(6) 0.2258(8) 0.8161(3)
C52 C 0.6757(8) 0.2671(9) 0.8486(4)
H35 H 0.680088 0.317292 0.862779
C53 C 0.7333(8) 0.2351(8) 0.8604(4)
H36 H 0.773021 0.260622 0.883607
C54 C 0.7302(9) 0.1654(9) 0.8373(4)
C55 C 0.6752(9) 0.1363(12) 0.8012(4)
H37 H 0.683590 0.099099 0.781932
C56 C 0.8007(9) 0.1376(9) 0.8515(4)
Al9 Al 0.90632(23) 0.80771(16) 0.69640(7)
Al10 Al 0.2058(2) 0.0694(4) 0.57059(12)
Al12 Al 0.9306(4) 0.1364(3) 0.90393(12)
Al17 Al 0.8376(11) 0.000000 0.833334
O24 O 0.7334(4) 0.8360(6) 0.71142(17)
O26 O 0.1903(6) 0.0029(4) 0.99688(19)
O28 O 0.1193(6) 0.3017(4) 0.94535(19)
O30 O 0.6848(8) 0.8403(6) 0.7881(3)
O33 O 0.8488(6) 0.9260(4) 0.8047(2)
O36 O 0.8963(6) 0.8808(4) 0.7361(2)
H38 H 0.074716 0.984883 0.052310
O14 O 0.1874(4) 0.9971(4) 0.66979(19)
Al7 Al 0.09368(23) 0.90139(17) 0.63694(7)
Al17_2 Al 0.8376(11) 1.000000 0.833334
O2 O 0.9971(4) 0.1874(4) 0.33021(19)
Al8 Al 0.90139(17) 0.09368(23) 0.36306(7)
O32 O 0.9410(12) 0.7257(17) 0.1634(6)
H19 H 0.984883 0.074716 0.947690
H38_2 H 0.015117 0.089833 0.385643
O7_2 O 0.8041(4) 0.0090(6) 0.39390(16)
O10_2 O 0.1828(9) 0.1753(13) 0.5894(5)
H1_2 H 0.168481 0.169174 0.616059
H2_2 H 0.139521 0.172414 0.574409
O12_3 O 0.9027(5) 0.0000(7) 0.333333
Si2_2 Si 0.7263(2) 0.26328(26) 0.13619(7)
O15_2 O 0.2572(7) 0.0267(9) 0.1138(2)
O20_2 O 0.8271(4) 0.1011(5) 0.31942(16)
C29_2 C 0.8011(4) 0.0606(6) 0.28082(18)
C30_2 C 0.9238(6) 0.2445(8) 0.0678(2)
H22_2 H 0.981605 0.254423 0.073704
C31_2 C 0.8774(7) 0.2654(9) 0.0967(3)
H23_2 H 0.904804 0.290091 0.123198
C32_2 C 0.7927(6) 0.2523(8) 0.0893(2)
C33_2 C 0.7501(5) 0.2166(7) 0.0503(2)
H24_2 H 0.693552 0.210122 0.044614
C34_2 C 0.7926(6) 0.1903(8) 0.0195(3)
C35_2 C 0.8797(5) 0.2067(7) 0.0281(2)
C36_2 C 0.7462(7) 0.0703(9) 0.2079(2)
H26_2 H 0.737067 0.012416 0.203180
C37_2 C 0.7766(6) 0.1125(8) 0.2471(3)
C38_2 C 0.7974(7) 0.2010(9) 0.2544(2)
H27_2 H 0.821454 0.229653 0.280737
C39_2 C 0.7813(8) 0.2444(11) 0.2217(2)
H28_2 H 0.797623 0.304832 0.225635
C40_2 C 0.7417(7) 0.2030(9) 0.1828(2)
C41_2 C 0.7297(7) 0.1161(9) 0.1757(3)
H29_2 H 0.710059 0.088946 0.148699
C42_2 C 0.3200(7) 0.0914(10) 0.0889(3)
C43_2 C 0.5752(6) 0.2496(8) 0.0914(3)
H30_2 H 0.618917 0.298707 0.075771
C44_2 C 0.4857(7) 0.2154(11) 0.0830(4)
H31_2 H 0.468504 0.248295 0.065305
C45_2 C 0.4177(6) 0.1323(8) 0.1000(2)
C46_2 C 0.4478(8) 0.0960(12) 0.1310(4)
H32_2 H 0.404348 0.043137 0.144591
C47_2 C 0.5361(6) 0.1304(8) 0.1438(3)
H33_2 H 0.552311 0.101944 0.164838
C48_2 C 0.6000(6) 0.2098(8) 0.1236(3)
C50_2 C 0.8426(10) 0.4508(15) 0.1243(5)
H34_2 H 0.871940 0.437233 0.102695
C51_2 C 0.7742(8) 0.3860(10) 0.1494(3)
C52_2 C 0.7329(9) 0.4086(12) 0.1819(4)
H35_2 H 0.682708 0.362796 0.196112
C53_2 C 0.7649(8) 0.4982(11) 0.1937(4)
H36_2 H 0.739378 0.512399 0.216940
C54_2 C 0.8346(9) 0.5648(13) 0.1706(4)
C55_2 C 0.8637(12) 0.5389(15) 0.1345(4)
H37_2 H 0.900901 0.584491 0.115265
C56_2 C 0.8624(9) 0.6631(13) 0.1848(4)
O22_2 O 0.9845(4) 0.1037(6) 0.4027(2)
O23_2 O 0.1512(6) 0.0772(7) 0.5287(2)
Al16_3 Al 0.1624(11) 0.1624(11) 0.500000
O29_2 O 0.8807(6) 0.1824(7) 0.38799(19)
O31_2 O 0.3152(8) 0.1555(10) 0.5453(3)
O13_2 O 0.8974(4) 0.1640(6) 0.95524(17)
H25_2 H 0.763258 0.162494 0.993831
C49_2 C 0.9233(7) 0.1810(9) 0.9925(3)
Si1_2 Si 0.46302(16) 0.73672(26) 0.53047(7)
O2_2 O 0.8126(4) 0.8097(6) 0.66354(19)
O3_2 O 0.2305(6) 0.9733(9) 0.5528(2)
O4_2 O 0.1824(4) 0.8807(6) 0.61201(19)
O5_2 O 0.1555(5) 0.3152(8) 0.4547(3)
O6_2 O 0.2153(12) 0.2743(17) 0.5032(6)
O8_2 O 0.7260(3) 0.8989(5) 0.34724(16)
O9_2 O 0.0772(5) 0.1512(6) 0.4713(2)
C1_2 C 0.7405(4) 0.9394(6) 0.38584(18)
C2_2 C 0.6793(5) 0.7555(8) 0.5988(2)
H3_2 H 0.727182 0.745577 0.592962
C3_2 C 0.6120(6) 0.7346(9) 0.5699(3)
H4_2 H 0.614713 0.709909 0.543468
C4_2 C 0.5404(6) 0.7477(8) 0.5773(2)
C5_2 C 0.5335(5) 0.7834(7) 0.6163(2)
H5_2 H 0.483430 0.789878 0.622052
C6_2 C 0.6023(6) 0.8097(8) 0.6471(3)
H6_2 H 0.600764 0.837506 0.672835
C7_2 C 0.6730(5) 0.7933(7) 0.6385(2)
C8_2 C 0.6759(6) 0.9297(9) 0.4587(2)
H7_2 H 0.724651 0.987584 0.463486
C9_2 C 0.6641(6) 0.8875(8) 0.4195(3)
C10_2 C 0.5964(5) 0.7990(9) 0.4122(2)
H8_2 H 0.591801 0.770347 0.385929
C11_2 C 0.5369(7) 0.7556(11) 0.4449(2)
H9_2 H 0.492791 0.695168 0.441031
C12_2 C 0.5387(5) 0.7970(9) 0.4838(2)
C13_2 C 0.6136(6) 0.8839(9) 0.4909(3)
H10_2 H 0.621113 0.911054 0.517967
C14_2 C 0.2286(7) 0.9086(10) 0.5777(3)
C15_2 C 0.3256(6) 0.7504(8) 0.5752(3)
H11_2 H 0.320210 0.701293 0.590895
C16_2 C 0.2703(8) 0.7846(11) 0.5836(4)
H12_2 H 0.220209 0.751705 0.601361
C17_2 C 0.2854(6) 0.8677(8) 0.5666(2)
C18_2 C 0.3518(9) 0.9040(12) 0.5356(4)
H13_2 H 0.361211 0.956863 0.522075
C19_2 C 0.4057(6) 0.8696(8) 0.5228(3)
H14_2 H 0.450367 0.898056 0.501828
C20_2 C 0.3902(6) 0.7902(8) 0.5430(3)
C21_2 C 0.7423(6) 0.8190(9) 0.6741(3)
C22_2 C 0.3918(11) 0.5492(15) 0.5423(5)
H15_2 H 0.434707 0.562767 0.563971
C23_2 C 0.3882(6) 0.6140(10) 0.5172(3)
C24_2 C 0.3243(8) 0.5914(12) 0.4847(4)
H16_2 H 0.319912 0.637204 0.470554
C25_2 C 0.2667(8) 0.5018(11) 0.4729(4)
H17_2 H 0.226979 0.487601 0.449726
C26_2 C 0.2698(9) 0.4352(13) 0.4960(4)
C27_2 C 0.3248(9) 0.4611(15) 0.5321(4)
H18_2 H 0.316410 0.415509 0.551401
C28_2 C 0.1993(9) 0.3369(13) 0.4818(4)
H19_2 H 0.925284 0.910167 0.281023
O12_4 O 0.9027(5) 1.0000(7) 0.333333
O19_2 O 0.7951(4) 0.9910(6) 0.27276(16)
O21_2 O 0.0075(10) 0.8247(13) 0.0772(5)
O24_2 O 0.1640(6) 0.8974(7) 0.04476(17)
O27_2 O 0.8097(6) 0.8126(7) 0.33646(19)
O32_2 O 0.2743(17) 0.2153(21) 0.4968(6)
O35_2 O 0.1037(6) 0.9845(7) 0.5973(2)
H20_2 H 0.999307 0.830826 0.050607
H21_2 H 0.967107 0.827586 0.092257
H19_3 H 0.089833 0.015117 0.614357
O34 O 0.9228(7) 0.0740(4) 0.8620(2)
H6_3 H 0.162494 0.763258 0.006169
C21_3 C 0.1810(9) 0.9233(7) 0.0075(3)
Si1_3 Si 0.26328(26) 0.7263(2) 0.86381(7)
O3_3 O 0.0267(9) 0.2572(7) 0.8862(2)
O6_3 O 0.7257(17) 0.9410(12) 0.8366(6)
O8_3 O 0.1011(5) 0.8271(4) 0.68058(16)
C1_3 C 0.0606(6) 0.8011(4) 0.71918(18)
C2_3 C 0.2445(8) 0.9238(6) 0.9322(2)
H3_3 H 0.254423 0.981605 0.926296
C3_3 C 0.2654(9) 0.8774(7) 0.9033(3)
H4_3 H 0.290091 0.904804 0.876802
C4_3 C 0.2523(8) 0.7927(6) 0.9107(2)
C5_3 C 0.2166(7) 0.7501(5) 0.9497(2)
H5_3 H 0.210122 0.693552 0.955386
C6_3 C 0.1903(8) 0.7926(6) 0.9805(3)
C7_3 C 0.2067(7) 0.8797(5) 0.9719(2)
C8_3 C 0.0703(9) 0.7462(7) 0.7921(2)
H7_3 H 0.012416 0.737067 0.796820
C9_3 C 0.1125(8) 0.7766(6) 0.7529(3)
C10_3 C 0.2010(9) 0.7974(7) 0.7456(2)
H8_3 H 0.229653 0.821454 0.719263
C11_3 C 0.2444(11) 0.7813(8) 0.7783(2)
H9_3 H 0.304832 0.797623 0.774365
C12_3 C 0.2030(9) 0.7417(7) 0.8172(2)
C13_3 C 0.1161(9) 0.7297(7) 0.8243(3)
H10_3 H 0.088946 0.710059 0.851301
C14_3 C 0.0914(10) 0.3200(7) 0.9111(3)
C15_3 C 0.2496(8) 0.5752(6) 0.9086(3)
H11_3 H 0.298707 0.618917 0.924229
C16_3 C 0.2154(11) 0.4857(7) 0.9170(4)
H12_3 H 0.248295 0.468504 0.934695
C17_3 C 0.1323(8) 0.4177(6) 0.9000(2)
C18_3 C 0.0960(12) 0.4478(8) 0.8690(4)
H13_3 H 0.043137 0.404348 0.855409
C19_3 C 0.1304(8) 0.5361(6) 0.8562(3)
H14_3 H 0.101944 0.552311 0.835162
C20_3 C 0.2098(8) 0.6000(6) 0.8764(3)
C22_3 C 0.4508(15) 0.8426(10) 0.8757(5)
H15_3 H 0.437233 0.871940 0.897305
C23_3 C 0.3860(10) 0.7742(8) 0.8506(3)
C24_3 C 0.4086(12) 0.7329(9) 0.8181(4)
H16_3 H 0.362796 0.682708 0.803888
C25_3 C 0.4982(11) 0.7649(8) 0.8063(4)
H17_3 H 0.512399 0.739378 0.783060
C26_3 C 0.5648(13) 0.8346(9) 0.8294(4)
C27_3 C 0.5389(15) 0.8637(12) 0.8655(4)
H18_3 H 0.584491 0.900901 0.884735
C28_3 C 0.6631(13) 0.8624(9) 0.8152(4)
O12_5 O -0.0000(7) 0.9027(5) 0.666667
O19_3 O 0.0090(6) 0.8041(4) 0.60610(16)
O21_3 O 0.1753(13) 0.1828(9) 0.4106(5)
H20_3 H 0.169174 0.168481 0.383941
H21_3 H 0.172414 0.139521 0.425591
O7_3 O 0.9910(6) 0.7951(4) 0.72724(16)
O10_3 O 0.8247(13) 0.0075(10) 0.9228(5)
O12_6 O 1.0000(7) 0.9027(5) 0.666667
Si2_3 Si 0.73672(26) 0.46302(16) 0.46953(7)
O15_3 O 0.9733(9) 0.2305(6) 0.4472(2)
O20_3 O 0.8989(5) 0.7260(3) 0.65276(16)
C29_3 C 0.9394(6) 0.7405(4) 0.61416(18)
C30_3 C 0.7555(8) 0.6793(5) 0.4012(2)
H22_3 H 0.745577 0.727182 0.407038
C31_3 C 0.7346(9) 0.6120(6) 0.4301(3)
H23_3 H 0.709909 0.614713 0.456532
C32_3 C 0.7477(8) 0.5404(6) 0.4227(2)
C33_3 C 0.7834(7) 0.5335(5) 0.3837(2)
H24_3 H 0.789878 0.483430 0.377948
C34_3 C 0.8097(8) 0.6023(6) 0.3529(3)
H25_3 H 0.837506 0.600764 0.327165
C35_3 C 0.7933(7) 0.6730(5) 0.3615(2)
C36_3 C 0.9297(9) 0.6759(6) 0.5413(2)
H26_3 H 0.987584 0.724651 0.536514
C37_3 C 0.8875(8) 0.6641(6) 0.5805(3)
C38_3 C 0.7990(9) 0.5964(5) 0.5878(2)
H27_3 H 0.770347 0.591801 0.614071
C39_3 C 0.7556(11) 0.5369(7) 0.5551(2)
H28_3 H 0.695168 0.492791 0.558969
C40_3 C 0.7970(9) 0.5387(5) 0.5162(2)
C41_3 C 0.8839(9) 0.6136(6) 0.5091(3)
H29_3 H 0.911054 0.621113 0.482033
C42_3 C 0.9086(10) 0.2286(7) 0.4223(3)
C43_3 C 0.7504(8) 0.3256(6) 0.4248(3)
H30_3 H 0.701293 0.320210 0.409105
C44_3 C 0.7846(11) 0.2703(8) 0.4164(4)
H31_3 H 0.751705 0.220209 0.398639
C45_3 C 0.8677(8) 0.2854(6) 0.4334(2)
C46_3 C 0.9040(12) 0.3518(9) 0.4644(4)
H32_3 H 0.956863 0.361211 0.477925
C47_3 C 0.8696(8) 0.4057(6) 0.4772(3)
H33_3 H 0.898056 0.450367 0.498172
C48_3 C 0.7902(8) 0.3902(6) 0.4570(3)
C49_3 C 0.8190(9) 0.7423(6) 0.3259(3)
C50_3 C 0.5492(15) 0.3918(11) 0.4577(5)
H34_3 H 0.562767 0.434707 0.436029
C51_3 C 0.6140(10) 0.3882(6) 0.4828(3)
C52_3 C 0.5914(12) 0.3243(8) 0.5153(4)
H35_3 H 0.637204 0.319912 0.529446
C53_3 C 0.5018(11) 0.2667(8) 0.5271(4)
H36_3 H 0.487601 0.226979 0.550274
C54_3 C 0.4352(13) 0.2698(9) 0.5040(4)
C55_3 C 0.4611(15) 0.3248(9) 0.4679(4)
H37_3 H 0.415509 0.316410 0.448599
C56_3 C 0.3369(13) 0.1993(9) 0.5182(4)
H38_3 H 0.910167 0.925284 0.718977
H1_3 H 0.830826 0.999307 0.949393
H2_3 H 0.827586 0.967107 0.907743
loop_
_geom_bond_atom_site_label_1
_geom_bond_atom_site_label_2
_geom_bond_site_symmetry_1
_geom_bond_site_symmetry_2
Si1 C4 1_555 1_555
Al2 O3 1_555 1_555
Al16 O6 1_555 1_555
O1 C21 1_555 1_555
O3 C14 1_555 1_555
O4 C14 1_555 1_555
O5 C28 1_555 1_555
O6 C28 1_555 1_555
O7 C1 1_555 1_555
O8 C1 1_555 1_555
O9 Al16 1_555 1_555
O10 Al2 1_555 1_555
C1 C9 1_555 1_555
C2 H3 1_555 1_555
C3 C2 1_555 1_555
H4 C3 1_555 1_555
C4 C3 1_555 1_555
C5 C4 1_555 1_555
H5 C5 1_555 1_555
C6 C5 1_555 1_555
H6 C6 1_555 1_555
C7 C2 1_555 1_555
C8 H7 1_555 1_555
C9 C8 1_555 1_555
C10 C9 1_555 1_555
H8 C10 1_555 1_555
C11 C10 1_555 1_555
H9 C11 1_555 1_555
C12 Si1 1_555 1_555
C13 C8 1_555 1_555
H10 C13 1_555 1_555
C14 C17 1_555 1_555
C15 H11 1_555 1_555
C16 C15 1_555 1_555
H12 C16 1_555 1_555
C17 C16 1_555 1_555
C18 C17 1_555 1_555
H13 C18 1_555 1_555
C19 C18 1_555 1_555
H14 C19 1_555 1_555
C20 Si1 1_555 1_555
C21 C7 1_555 1_555
C22 H15 1_555 1_555
C23 Si1 1_555 1_555
C24 C23 1_555 1_555
H16 C24 1_555 1_555
C25 C24 1_555 1_555
H17 C25 1_555 1_555
C26 C25 1_555 1_555
C27 C22 1_555 1_555
H18 C27 1_555 1_555
C28 C26 1_555 1_555
Al4 O7 1_555 1_555
O22 Al4 1_555 1_555
O23 Al2 1_555 1_555
Al6 O4 1_555 1_555
Al14 O5 1_555 1_555
Al15 O1 1_555 1_555
Al16_2 O23 1_555 1_555
O25 Al2 1_555 1_555
O29 Al4 1_555 1_555
O31 Al2 1_555 1_555
O35 Al2 1_555 1_555
O9 Al14 1_555 1_555
C6 C7 1_555 1_555
C11 C12 1_555 1_555
C12 C13 1_555 1_555
C15 C20 1_555 1_555
C19 C20 1_555 1_555
C22 C23 1_555 1_555
C26 C27 1_555 1_555
O12 Al4 1_555 1_555
Al6 O35 1_555 1_555
O11 Al1 1_555 1_555
O12_2 Al1 1_555 1_555
Si2 C32 1_555 1_555
Al5 O15 1_555 1_555
O13 C49 1_555 1_555
O15 C42 1_555 1_555
O16 C42 1_555 1_555
O17 C56 1_555 1_555
O18 C56 1_555 1_555
O19 Al1 1_555 1_555
O21 Al5 1_555 1_555
C29 O19 1_555 1_555
C30 H22 1_555 1_555
C31 C30 1_555 1_555
H23 C31 1_555 1_555
C32 C31 1_555 1_555
C33 C32 1_555 1_555
H24 C33 1_555 1_555
C34 C33 1_555 1_555
H25 C34 1_555 1_555
C35 C30 1_555 1_555
C36 H26 1_555 1_555
C37 C29 1_555 1_555
C38 C37 1_555 1_555
H27 C38 1_555 1_555
C39 C38 1_555 1_555
H28 C39 1_555 1_555
C40 Si2 1_555 1_555
C41 C36 1_555 1_555
H29 C41 1_555 1_555
C42 C45 1_555 1_555
C43 H30 1_555 1_555
C44 C43 1_555 1_555
H31 C44 1_555 1_555
C45 C44 1_555 1_555
C46 C45 1_555 1_555
H32 C46 1_555 1_555
C47 C46 1_555 1_555
H33 C47 1_555 1_555
C48 Si2 1_555 1_555
C49 C35 1_555 1_555
C50 H34 1_555 1_555
C51 Si2 1_555 1_555
C52 C51 1_555 1_555
H35 C52 1_555 1_555
C53 C52 1_555 1_555
H36 C53 1_555 1_555
C54 C53 1_555 1_555
C55 C50 1_555 1_555
H37 C55 1_555 1_555
C56 C54 1_555 1_555
Al9 O16 1_555 1_555
Al10 O13 1_555 1_555
Al12 O17 1_555 1_555
Al17 O18 1_555 1_555
O24 Al5 1_555 1_555
O28 Al1 1_555 1_555
O30 Al5 1_555 1_555
O33 Al5 1_555 1_555
O36 Al5 1_555 1_555
O20 C29 1_555 1_555
C34 C35 1_555 1_555
C36 C37 1_555 1_555
C39 C40 1_555 1_555
C40 C41 1_555 1_555
C43 C48 1_555 1_555
C47 C48 1_555 1_555
C50 C51 1_555 1_555
C54 C55 1_555 1_555
Al9 O36 1_555 1_555
Al7 O14 1_555 1_555
Al8 O2 1_555 1_555
O32 Al16_2 1_555 1_555
O10_2 Al10 1_555 1_555
H1_2 O10_2 1_555 1_555
H2_2 O10_2 1_555 1_555
Si2_2 C32_2 1_555 1_555
Al8 O7_2 1_555 1_555
O15_2 C42_2 1_555 1_555
O29 C42_2 1_555 1_555
O31 C56_2 1_555 1_555
O32 C56_2 1_555 1_555
O20_2 Al8 1_555 1_555
C30_2 H22_2 1_555 1_555
C31_2 C30_2 1_555 1_555
H23_2 C31_2 1_555 1_555
C32_2 C31_2 1_555 1_555
C33_2 C32_2 1_555 1_555
H24_2 C33_2 1_555 1_555
C34_2 C33_2 1_555 1_555
C35_2 C30_2 1_555 1_555
C36_2 H26_2 1_555 1_555
C37_2 C29_2 1_555 1_555
C38_2 C37_2 1_555 1_555
H27_2 C38_2 1_555 1_555
C39_2 C38_2 1_555 1_555
H28_2 C39_2 1_555 1_555
C40_2 Si2_2 1_555 1_555
C41_2 C36_2 1_555 1_555
H29_2 C41_2 1_555 1_555
C42_2 C45_2 1_555 1_555
C43_2 H30_2 1_555 1_555
C44_2 C43_2 1_555 1_555
H31_2 C44_2 1_555 1_555
C45_2 C44_2 1_555 1_555
C46_2 C45_2 1_555 1_555
H32_2 C46_2 1_555 1_555
C47_2 C46_2 1_555 1_555
H33_2 C47_2 1_555 1_555
C48_2 Si2_2 1_555 1_555
C50_2 H34_2 1_555 1_555
C51_2 Si2_2 1_555 1_555
C52_2 C51_2 1_555 1_555
H35_2 C52_2 1_555 1_555
C53_2 C52_2 1_555 1_555
H36_2 C53_2 1_555 1_555
C54_2 C53_2 1_555 1_555
C55_2 C50_2 1_555 1_555
H37_2 C55_2 1_555 1_555
C56_2 C54_2 1_555 1_555
O22_2 Al8 1_555 1_555
O23_2 Al10 1_555 1_555
Al16_3 O23_2 1_555 1_555
O29_2 Al8 1_555 1_555
O31_2 Al10 1_555 1_555
O12_3 Al8 1_555 1_555
O20_2 C29_2 1_555 1_555
C34_2 C35_2 1_555 1_555
C36_2 C37_2 1_555 1_555
C39_2 C40_2 1_555 1_555
C40_2 C41_2 1_555 1_555
C43_2 C48_2 1_555 1_555
C47_2 C48_2 1_555 1_555
C50_2 C51_2 1_555 1_555
C54_2 C55_2 1_555 1_555
O13_2 C49_2 1_555 1_555
Al12 O13_2 1_555 1_555
Si1_2 C4_2 1_555 1_555
Al6 O8_2 1_555 1_555
Al16_3 O6_2 1_555 1_555
O24 C21_2 1_555 1_555
O2_2 C21_2 1_555 1_555
O3_2 C14_2 1_555 1_555
O4_2 C14_2 1_555 1_555
O5_2 C28_2 1_555 1_555
O6_2 C28_2 1_555 1_555
O8_2 C1_2 1_555 1_555
O9_2 Al16_3 1_555 1_555
C1_2 C9_2 1_555 1_555
C2_2 H3_2 1_555 1_555
C3_2 C2_2 1_555 1_555
H4_2 C3_2 1_555 1_555
C4_2 C3_2 1_555 1_555
C5_2 C4_2 1_555 1_555
H5_2 C5_2 1_555 1_555
C6_2 C5_2 1_555 1_555
H6_2 C6_2 1_555 1_555
C7_2 C2_2 1_555 1_555
C8_2 H7_2 1_555 1_555
C9_2 C8_2 1_555 1_555
C10_2 C9_2 1_555 1_555
H8_2 C10_2 1_555 1_555
C11_2 C10_2 1_555 1_555
H9_2 C11_2 1_555 1_555
C12_2 Si1_2 1_555 1_555
C13_2 C8_2 1_555 1_555
H10_2 C13_2 1_555 1_555
C14_2 C17_2 1_555 1_555
C15_2 H11_2 1_555 1_555
C16_2 C15_2 1_555 1_555
H12_2 C16_2 1_555 1_555
C17_2 C16_2 1_555 1_555
C18_2 C17_2 1_555 1_555
H13_2 C18_2 1_555 1_555
C19_2 C18_2 1_555 1_555
H14_2 C19_2 1_555 1_555
C20_2 Si1_2 1_555 1_555
C21_2 C7_2 1_555 1_555
C22_2 H15_2 1_555 1_555
C23_2 Si1_2 1_555 1_555
C24_2 C23_2 1_555 1_555
H16_2 C24_2 1_555 1_555
C25_2 C24_2 1_555 1_555
H17_2 C25_2 1_555 1_555
C26_2 C25_2 1_555 1_555
C27_2 C22_2 1_555 1_555
H18_2 C27_2 1_555 1_555
C28_2 C26_2 1_555 1_555
H19_2 O35 1_555 1_555
O12_4 Al6 1_555 1_555
O19_2 Al6 1_555 1_555
O21_2 Al14 1_555 1_555
Al7 O4_2 1_555 1_555
Al9 O2_2 1_555 1_555
Al15 O5_2 1_555 1_555
O24_2 Al14 1_555 1_555
O27_2 Al6 1_555 1_555
O32_2 Al16_3 1_555 1_555
O9_2 Al15 1_555 1_555
C6_2 C7_2 1_555 1_555
C11_2 C12_2 1_555 1_555
C12_2 C13_2 1_555 1_555
C15_2 C20_2 1_555 1_555
C19_2 C20_2 1_555 1_555
C22_2 C23_2 1_555 1_555
C26_2 C27_2 1_555 1_555
Al7 O35_2 1_555 1_555
O34 Al17 1_555 1_555
O24_2 C21_3 1_555 1_555
Si1_3 C4_3 1_555 1_555
Al7 O8_3 1_555 1_555
Al17_2 O6_3 1_555 1_555
O3_3 C14_3 1_555 1_555
O28 C14_3 1_555 1_555
O30 C28_3 1_555 1_555
O6_3 C28_3 1_555 1_555
O8_3 C1_3 1_555 1_555
O33 Al17_2 1_555 1_555
C1_3 C9_3 1_555 1_555
C2_3 H3_3 1_555 1_555
C3_3 C2_3 1_555 1_555
H4_3 C3_3 1_555 1_555
C4_3 C3_3 1_555 1_555
C5_3 C4_3 1_555 1_555
H5_3 C5_3 1_555 1_555
C6_3 C5_3 1_555 1_555
C7_3 C2_3 1_555 1_555
C8_3 H7_3 1_555 1_555
C9_3 C8_3 1_555 1_555
C10_3 C9_3 1_555 1_555
H8_3 C10_3 1_555 1_555
C11_3 C10_3 1_555 1_555
H9_3 C11_3 1_555 1_555
C12_3 Si1_3 1_555 1_555
C13_3 C8_3 1_555 1_555
H10_3 C13_3 1_555 1_555
C14_3 C17_3 1_555 1_555
C15_3 H11_3 1_555 1_555
C16_3 C15_3 1_555 1_555
H12_3 C16_3 1_555 1_555
C17_3 C16_3 1_555 1_555
C18_3 C17_3 1_555 1_555
H13_3 C18_3 1_555 1_555
C19_3 C18_3 1_555 1_555
H14_3 C19_3 1_555 1_555
C20_3 Si1_3 1_555 1_555
C22_3 H15_3 1_555 1_555
C23_3 Si1_3 1_555 1_555
C24_3 C23_3 1_555 1_555
H16_3 C24_3 1_555 1_555
C25_3 C24_3 1_555 1_555
H17_3 C25_3 1_555 1_555
C26_3 C25_3 1_555 1_555
C27_3 C22_3 1_555 1_555
H18_3 C27_3 1_555 1_555
C28_3 C26_3 1_555 1_555
O12_5 Al7 1_555 1_555
O19_3 Al7 1_555 1_555
O21_3 Al15 1_555 1_555
H20_3 O21_3 1_555 1_555
H21_3 O21_3 1_555 1_555
C6_3 C7_3 1_555 1_555
C11_3 C12_3 1_555 1_555
C12_3 C13_3 1_555 1_555
C15_3 C20_3 1_555 1_555
C19_3 C20_3 1_555 1_555
C22_3 C23_3 1_555 1_555
C26_3 C27_3 1_555 1_555
O10_3 Al12 1_555 1_555
Si2_3 C32_3 1_555 1_555
Al9 O7_3 1_555 1_555
O25 C49_3 1_555 1_555
O27_2 C49_3 1_555 1_555
O15_3 C42_3 1_555 1_555
O29_2 C42_3 1_555 1_555
O31_2 C56_3 1_555 1_555
O32_2 C56_3 1_555 1_555
O20_3 Al9 1_555 1_555
C30_3 H22_3 1_555 1_555
C31_3 C30_3 1_555 1_555
H23_3 C31_3 1_555 1_555
C32_3 C31_3 1_555 1_555
C33_3 C32_3 1_555 1_555
H24_3 C33_3 1_555 1_555
C34_3 C33_3 1_555 1_555
H25_3 C34_3 1_555 1_555
C35_3 C30_3 1_555 1_555
C36_3 H26_3 1_555 1_555
C37_3 C29_3 1_555 1_555
C38_3 C37_3 1_555 1_555
H27_3 C38_3 1_555 1_555
C39_3 C38_3 1_555 1_555
H28_3 C39_3 1_555 1_555
C40_3 Si2_3 1_555 1_555
C41_3 C36_3 1_555 1_555
H29_3 C41_3 1_555 1_555
C42_3 C45_3 1_555 1_555
C43_3 H30_3 1_555 1_555
C44_3 C43_3 1_555 1_555
H31_3 C44_3 1_555 1_555
C45_3 C44_3 1_555 1_555
C46_3 C45_3 1_555 1_555
H32_3 C46_3 1_555 1_555
C47_3 C46_3 1_555 1_555
H33_3 C47_3 1_555 1_555
C48_3 Si2_3 1_555 1_555
C49_3 C35_3 1_555 1_555
C50_3 H34_3 1_555 1_555
C51_3 Si2_3 1_555 1_555
C52_3 C51_3 1_555 1_555
H35_3 C52_3 1_555 1_555
C53_3 C52_3 1_555 1_555
H36_3 C53_3 1_555 1_555
C54_3 C53_3 1_555 1_555
C55_3 C50_3 1_555 1_555
H37_3 C55_3 1_555 1_555
C56_3 C54_3 1_555 1_555
H38_3 O36 1_555 1_555
O34 Al12 1_555 1_555
O12_6 Al9 1_555 1_555
O20_3 C29_3 1_555 1_555
C34_3 C35_3 1_555 1_555
C36_3 C37_3 1_555 1_555
C39_3 C40_3 1_555 1_555
C40_3 C41_3 1_555 1_555
C43_3 C48_3 1_555 1_555
C47_3 C48_3 1_555 1_555
C50_3 C51_3 1_555 1_555
C54_3 C55_3 1_555 1_555

#END
