
###############################################################################
#
# This file contains modified crystal structure data generated from the
# MOF subset of the Cambridge Structural Database (CSD) v543 
# hosted by the Cambridge Crystallographic Data Centre (CCDC).
#
# This work is licensed under the Creative Commons
# Attribution-NonCommercial-ShareAlike 4.0 International License.
# To view a copy of this license, visit
# http://creativecommons.org/licenses/by-nc-sa/4.0/
# or send a letter to
# Creative Commons, PO Box 1866, Mountain View, CA 94042, USA.
#
# CIF created using the CSD Python API on 29 September 2022
# The structure has been converted into the P1 space group
# The structure has a 3D framework
# The original CSD entry CENPUI is in the triclinic crystal system
# The framework has been calculated to contain at least 10.0% void space
# The void calculation uses a probe of radius 1.32A, grid spacing 0.4
#
###############################################################################

data_CENPUI
_chemical_formula_moiety         '(C86 H70 Mg7 N4 O16)n'
_symmetry_cell_setting           triclinic
_symmetry_space_group_name_H-M   'P 1'
_symmetry_Int_Tables_number      1
_space_group_name_Hall           'P 1'
loop_
_symmetry_equiv_pos_site_id
_symmetry_equiv_pos_as_xyz
1 x,y,z
_cell_length_a                   8.4319(9)
_cell_length_b                   12.8251(13)
_cell_length_c                   20.924(5)
_cell_angle_alpha                73.462(16)
_cell_angle_beta                 84.692(13)
_cell_angle_gamma                78.307(9)
_cell_volume                     2122.64
loop_
_atom_site_label
_atom_site_type_symbol
_atom_site_fract_x
_atom_site_fract_y
_atom_site_fract_z
Mg2 Mg 0.0000 0.0000 0.0000
O16 O 0.1504(4) 0.1118(3) 0.00163(15)
H70 H 0.2274 0.0792 0.0252
Mg2_2 Mg 1.0000 0.0000 0.0000
O20 O 0.8109(4) 0.0779(3) 0.05880(15)
Mg2_3 Mg 1.0000 0.0000 1.0000
O25 O 0.8908(4) 0.1089(2) 0.92081(15)
N2 N 0.2398(9) 0.4403(7) 0.0159(6)
C41 C 0.2179(10) 0.3433(7) 0.0910(3)
H27 H 0.1332 0.3742 0.1179
H28 H 0.3178 0.3226 0.1139
H29 H 0.1906 0.2791 0.0830
C43 C 0.1729(9) 0.5523(5) 0.0189(4)
H33 H 0.1277 0.5510 0.0629
H35 H 0.2572 0.5955 0.0087
O14 O 0.4418(4) 0.0700(3) 0.07450(15)
H36 H 0.5843 0.0470 0.1877
O17 O 0.6406(4) 0.2287(3) 0.07325(16)
Mg1 Mg 0.56603(17) 0.17006(11) 0.99947(7)
Mg2_4 Mg 1.0000 1.0000 0.0000
O1 O 0.3589(4) 0.2902(2) 0.98536(17)
H1 H 0.8673 0.8158 0.0203
O8 O 0.5147(4) 0.1084(3) 0.92766(15)
N1 N 0.4337(5) 0.3177(3) 0.40354(18)
C1 C 0.4575(5) 0.0155(4) 0.7888(2)
C2 C 0.5321(5) 0.0701(4) 0.8235(2)
C3 C 0.5937(5) 0.1959(4) 0.7187(2)
H4 H 0.6451 0.2537 0.6949
C4 C 0.5995(5) 0.1610(4) 0.7871(2)
H5 H 0.6489 0.1985 0.8093
C6 C 0.5107(5) 0.1451(4) 0.6843(2)
C8 C 0.0394(5) 0.1788(4) 0.2473(2)
C9 C 0.7494(5) 0.5248(4) 0.2863(2)
C13 C 0.1457(5) 0.2012(4) 0.2926(2)
C14 C 0.5347(5) 0.0332(4) 0.8980(2)
C16 C 0.5368(6) 0.3906(4) 0.3667(2)
C17 C 0.4451(5) 0.0524(4) 0.7211(2)
H8 H 0.3930 0.0159 0.6992
C18 C 0.0878(5) 0.2190(4) 0.3549(2)
C19 C 0.3073(5) 0.2124(4) 0.2719(2)
H10 H 0.3493 0.1967 0.2323
C20 C 0.8632(5) 0.5909(4) 0.2416(2)
C21 C 0.9050(6) 0.7652(4) 0.1658(2)
H11 H 0.8660 0.8398 0.1463
C22 C 0.4049(5) 0.2461(4) 0.3091(2)
H12 H 0.5115 0.2518 0.2950
C23 C 0.5882(6) 0.5342(4) 0.2682(2)
H13 H 0.5514 0.5852 0.2286
C25 C 0.0099(5) 0.0857(4) 0.1631(2)
H15 H 0.0484 0.0310 0.1414
C26 C 0.4468(5) 0.2751(4) 0.4734(2)
C27 C 0.4841(6) 0.4695(4) 0.3077(2)
H16 H 0.3783 0.4786 0.2950
C28 C 0.7973(5) 0.4502(4) 0.3473(2)
H17 H 0.9003 0.4449 0.3619
C29 C 0.3408(5) 0.2716(4) 0.3686(2)
C30 C 0.8053(6) 0.7022(4) 0.2101(2)
H18 H 0.6993 0.7342 0.2189
C31 C 0.6938(5) 0.3838(4) 0.3869(2)
H19 H 0.7291 0.3343 0.4271
C32 C 0.4434(6) 0.3465(4) 0.5139(2)
H20 H 0.4257 0.4227 0.4951
C33 C 0.1001(5) 0.0983(4) 0.2116(2)
H21 H 0.2015 0.0538 0.2211
C35 C 0.4896(5) 0.1890(4) 0.6114(2)
C36 C 0.4698(6) 0.1608(4) 0.5030(2)
H23 H 0.4715 0.1130 0.4767
C37 C 0.1840(5) 0.2542(4) 0.3924(2)
H24 H 0.1444 0.2662 0.4332
C38 C 0.4900(6) 0.1183(4) 0.5712(2)
H25 H 0.5039 0.0422 0.5903
C39 C 0.4662(5) 0.3035(4) 0.5811(2)
H26 H 0.4662 0.3513 0.6072
C40 C 0.3115(8) 0.3848(7) 0.9878(6)
C42 C 0.3508(11) 0.4805(6) 0.9147(3)
H30 H 0.4070 0.4429 0.8832
H31 H 0.4169 0.5273 0.9234
H32 H 0.2506 0.5247 0.8966
H34 H 0.0896 0.5846 0.9870
O24 O 0.7069(4) 0.2622(3) 0.92687(15)
C7 C 0.8833(6) 0.2436(4) 0.2338(2)
H6 H 0.8400 0.2940 0.2580
C12 C 0.7658(5) 0.1537(4) 0.0893(2)
C15 C 0.8598(5) 0.1561(4) 0.1470(2)
H9 H 0.9846 0.2072 0.3710
C24 C 0.7947(6) 0.2319(4) 0.1842(2)
H14 H 0.6917 0.2743 0.1756
C48 C 0.8356(5) 0.2138(4) 0.9036(2)
C53 C 0.9722(6) 0.4555(4) 0.7720(2)
H40 H 0.9308 0.5287 0.7501
C54 C 0.9349(6) 0.2821(4) 0.8503(2)
C77 C 0.8732(6) 0.3932(4) 0.8173(2)
H55 H 0.7667 0.4246 0.8258
Mg2_5 Mg 0.0000 0.0000 1.0000
H69 H 0.1327 0.1842 0.9797
Mg2_6 Mg 0.0000 1.0000 0.0000
O5 O 0.2931(4) 0.7378(3) 0.07313(15)
O6 O 0.1092(4) 0.8911(2) 0.07919(15)
C5 C 0.1644(5) 0.7862(4) 0.0964(2)
C10 C 0.0278(6) 0.5445(4) 0.2280(2)
H7 H 0.0692 0.4713 0.2499
C11 C 0.0651(6) 0.7179(4) 0.1497(2)
C34 C 0.1268(6) 0.6068(4) 0.1827(2)
H22 H 0.2333 0.5754 0.1742
Mg7 Mg 0.43397(17) 0.82994(11) 0.00053(7)
Mg2_7 Mg 0.0000 1.0000 1.0000
O22 O 0.1891(4) 0.9221(3) 0.94120(15)
O10 O 0.3594(4) 0.7713(3) 0.92675(16)
C50 C 0.1167(6) 0.7564(4) 0.7662(2)
H39 H 0.1600 0.7060 0.7420
C55 C 0.2342(5) 0.8463(4) 0.9107(2)
C58 C 0.1402(5) 0.8439(4) 0.8530(2)
H42 H 0.0154 0.7928 0.6290
C67 C 0.2053(6) 0.7681(4) 0.8158(2)
H47 H 0.3083 0.7257 0.8244
Mg2_8 Mg 1.0000 1.0000 1.0000
O2 O 0.8496(4) 0.8882(3) 0.99837(15)
H2 H 0.7726 0.9208 0.9748
O9 O 0.6411(4) 0.7098(2) 0.01464(17)
O15 O 0.4853(4) 0.8916(3) 0.07234(15)
N3 N 0.5663(5) 0.6823(3) 0.59646(18)
C44 C 0.5425(5) 0.9845(4) 0.2112(2)
C45 C 0.4679(5) 0.9299(4) 0.1765(2)
C46 C 0.4063(5) 0.8041(4) 0.2813(2)
H37 H 0.3549 0.7463 0.3051
C47 C 0.4005(5) 0.8390(4) 0.2129(2)
H38 H 0.3511 0.8015 0.1907
C49 C 0.4893(5) 0.8549(4) 0.3157(2)
C51 C 0.9606(5) 0.8212(4) 0.7527(2)
C52 C 0.2506(5) 0.4752(4) 0.7137(2)
C56 C 0.8543(5) 0.7988(4) 0.7074(2)
C57 C 0.4653(5) 0.9668(4) 0.1020(2)
C59 C 0.4632(6) 0.6094(4) 0.6333(2)
C60 C 0.5549(5) 0.9476(4) 0.2789(2)
H41 H 0.6070 0.9841 0.3008
C61 C 0.9122(5) 0.7810(4) 0.6451(2)
C62 C 0.6927(5) 0.7876(4) 0.7281(2)
H43 H 0.6507 0.8033 0.7677
C63 C 0.1368(5) 0.4091(4) 0.7584(2)
C64 C 0.0950(6) 0.2348(4) 0.8342(2)
H44 H 0.1340 0.1602 0.8537
C65 C 0.5951(5) 0.7539(4) 0.6909(2)
H45 H 0.4885 0.7482 0.7050
C66 C 0.4118(6) 0.4658(4) 0.7318(2)
H46 H 0.4486 0.4148 0.7714
C68 C 0.9901(5) 0.9143(4) 0.8369(2)
H48 H 0.9516 0.9690 0.8586
C69 C 0.5532(5) 0.7249(4) 0.5266(2)
C70 C 0.5159(6) 0.5305(4) 0.6923(2)
H49 H 0.6217 0.5214 0.7050
C71 C 0.2027(5) 0.5498(4) 0.6527(2)
H50 H 0.0997 0.5551 0.6381
C72 C 0.6592(5) 0.7284(4) 0.6314(2)
C73 C 0.1947(6) 0.2978(4) 0.7899(2)
H51 H 0.3007 0.2658 0.7811
C74 C 0.3062(5) 0.6162(4) 0.6131(2)
H52 H 0.2709 0.6657 0.5729
C75 C 0.5566(6) 0.6535(4) 0.4861(2)
H53 H 0.5743 0.5773 0.5049
C76 C 0.8999(5) 0.9017(4) 0.7884(2)
H54 H 0.7985 0.9462 0.7789
C78 C 0.5104(5) 0.8110(4) 0.3886(2)
C79 C 0.5302(6) 0.8392(4) 0.4970(2)
H56 H 0.5285 0.8870 0.5233
C80 C 0.8160(5) 0.7458(4) 0.6076(2)
H57 H 0.8556 0.7338 0.5668
C81 C 0.5100(6) 0.8817(4) 0.4288(2)
H58 H 0.4961 0.9578 0.4097
C82 C 0.5338(5) 0.6965(4) 0.4189(2)
H59 H 0.5338 0.6487 0.3928
C83 C 0.6885(8) 0.6152(7) 0.0122(6)
C85 C 0.6492(11) 0.5195(6) 0.0853(3)
H63 H 0.5930 0.5571 0.1168
H64 H 0.5831 0.4727 0.0766
H65 H 0.7494 0.4753 0.1034
H67 H 0.9104 0.4154 0.0130
O7 O 0.5582(4) 0.9300(3) 0.92550(15)
H3 H 0.4157 0.9530 0.8123
N4 N 0.7602(9) 0.5597(7) 0.9841(6)
C84 C 0.7821(10) 0.6567(7) 0.9090(3)
H60 H 0.8668 0.6258 0.8821
H61 H 0.6822 0.6774 0.8861
H62 H 0.8094 0.7209 0.9170
C86 C 0.8271(9) 0.4477(5) 0.9811(4)
H66 H 0.8723 0.4490 0.9371
H68 H 0.7428 0.4045 0.9913
loop_
_geom_bond_atom_site_label_1
_geom_bond_atom_site_label_2
_geom_bond_site_symmetry_1
_geom_bond_site_symmetry_2
O16 Mg2 1_555 1_555
H70 O16 1_555 1_555
O20 Mg2_2 1_555 1_555
O25 Mg2_3 1_555 1_555
C41 N2 1_555 1_555
H27 C41 1_555 1_555
H28 C41 1_555 1_555
H29 C41 1_555 1_555
C43 N2 1_555 1_555
H33 C43 1_555 1_555
H35 C43 1_555 1_555
Mg1 O1 1_555 1_555
O1 C40 1_555 1_555
O8 Mg1 1_555 1_555
N1 C16 1_555 1_555
C2 C1 1_555 1_555
C3 H4 1_555 1_555
C4 C2 1_555 1_555
H5 C4 1_555 1_555
C6 C3 1_555 1_555
C9 C20 1_555 1_555
C13 C8 1_555 1_555
C14 O8 1_555 1_555
C16 C27 1_555 1_555
C17 C1 1_555 1_555
H8 C17 1_555 1_555
C18 C13 1_555 1_555
C19 C13 1_555 1_555
H10 C19 1_555 1_555
H11 C21 1_555 1_555
C22 C19 1_555 1_555
H12 C22 1_555 1_555
C23 C9 1_555 1_555
H13 C23 1_555 1_555
H15 C25 1_555 1_555
C26 N1 1_555 1_555
C27 C23 1_555 1_555
H16 C27 1_555 1_555
C28 C9 1_555 1_555
H17 C28 1_555 1_555
C29 N1 1_555 1_555
C30 C20 1_555 1_555
H18 C30 1_555 1_555
C31 C16 1_555 1_555
H19 C31 1_555 1_555
C32 C26 1_555 1_555
H20 C32 1_555 1_555
C33 C8 1_555 1_555
H21 C33 1_555 1_555
C35 C6 1_555 1_555
C36 C26 1_555 1_555
H23 C36 1_555 1_555
C37 C18 1_555 1_555
H24 C37 1_555 1_555
C38 C35 1_555 1_555
H25 C38 1_555 1_555
C39 C32 1_555 1_555
H26 C39 1_555 1_555
C40 C42 1_555 1_555
C42 H30 1_555 1_555
H31 C42 1_555 1_555
H32 C42 1_555 1_555
O24 Mg1 1_555 1_555
C2 C14 1_555 1_555
C3 C4 1_555 1_555
C6 C17 1_555 1_555
C21 C30 1_555 1_555
C22 C29 1_555 1_555
C25 C33 1_555 1_555
C28 C31 1_555 1_555
C29 C37 1_555 1_555
C35 C39 1_555 1_555
C36 C38 1_555 1_555
O17 C12 1_555 1_555
O20 C12 1_555 1_555
C7 H6 1_555 1_555
C12 C15 1_555 1_555
C15 C24 1_555 1_555
C24 C7 1_555 1_555
H14 C24 1_555 1_555
O24 C48 1_555 1_555
O25 C48 1_555 1_555
C48 C54 1_555 1_555
C53 H40 1_555 1_555
C77 C53 1_555 1_555
H55 C77 1_555 1_555
C54 C77 1_555 1_555
O5 C5 1_555 1_555
O6 Mg2_6 1_555 1_555
C5 O6 1_555 1_555
C10 H7 1_555 1_555
C11 C5 1_555 1_555
C34 C10 1_555 1_555
H22 C34 1_555 1_555
Mg7 O5 1_555 1_555
C11 C34 1_555 1_555
O22 Mg2_7 1_555 1_555
O10 C55 1_555 1_555
O22 C55 1_555 1_555
C50 H39 1_555 1_555
C55 C58 1_555 1_555
C58 C67 1_555 1_555
C67 C50 1_555 1_555
H47 C67 1_555 1_555
Mg2_8 O2 1_555 1_555
H2 O2 1_555 1_555
O9 Mg7 1_555 1_555
O15 Mg7 1_555 1_555
N3 C59 1_555 1_555
C45 C44 1_555 1_555
C46 H37 1_555 1_555
C47 C45 1_555 1_555
H38 C47 1_555 1_555
C49 C46 1_555 1_555
C52 C63 1_555 1_555
C56 C51 1_555 1_555
C59 C70 1_555 1_555
C60 C44 1_555 1_555
H41 C60 1_555 1_555
C61 C56 1_555 1_555
C62 C56 1_555 1_555
H43 C62 1_555 1_555
C64 H44 1_555 1_555
C65 C62 1_555 1_555
H45 C65 1_555 1_555
C66 C52 1_555 1_555
H46 C66 1_555 1_555
H48 C68 1_555 1_555
C69 N3 1_555 1_555
C70 C66 1_555 1_555
H49 C70 1_555 1_555
C71 C52 1_555 1_555
H50 C71 1_555 1_555
C72 N3 1_555 1_555
C73 C63 1_555 1_555
H51 C73 1_555 1_555
C74 C59 1_555 1_555
H52 C74 1_555 1_555
C75 C69 1_555 1_555
H53 C75 1_555 1_555
C76 C51 1_555 1_555
H54 C76 1_555 1_555
C78 C49 1_555 1_555
C79 C69 1_555 1_555
H56 C79 1_555 1_555
C80 C61 1_555 1_555
H57 C80 1_555 1_555
C81 C78 1_555 1_555
H58 C81 1_555 1_555
C82 C75 1_555 1_555
H59 C82 1_555 1_555
C83 O9 1_555 1_555
C85 C83 1_555 1_555
H63 C85 1_555 1_555
H64 C85 1_555 1_555
H65 C85 1_555 1_555
O15 C57 1_555 1_555
C45 C57 1_555 1_555
C46 C47 1_555 1_555
C49 C60 1_555 1_555
C64 C73 1_555 1_555
C65 C72 1_555 1_555
C68 C76 1_555 1_555
C71 C74 1_555 1_555
C72 C80 1_555 1_555
C78 C82 1_555 1_555
C79 C81 1_555 1_555
C84 N4 1_555 1_555
H60 C84 1_555 1_555
H61 C84 1_555 1_555
H62 C84 1_555 1_555
C86 N4 1_555 1_555
H66 C86 1_555 1_555
H68 C86 1_555 1_555

#END
