
###############################################################################
#
# This file contains modified crystal structure data generated from the
# MOF subset of the Cambridge Structural Database (CSD) v543 
# hosted by the Cambridge Crystallographic Data Centre (CCDC).
#
# This work is licensed under the Creative Commons
# Attribution-NonCommercial-ShareAlike 4.0 International License.
# To view a copy of this license, visit
# http://creativecommons.org/licenses/by-nc-sa/4.0/
# or send a letter to
# Creative Commons, PO Box 1866, Mountain View, CA 94042, USA.
#
# CIF created using the CSD Python API on 29 September 2022
# The structure has been converted into the P1 space group
# The structure has a 3D framework
# The original CSD entry CENQAP is in the orthorhombic crystal system
# The framework has been calculated to contain at least 10.0% void space
# The void calculation uses a probe of radius 1.32A, grid spacing 0.4
# The framework is charged, counterions have been retained in the structure
#
###############################################################################

data_CENQAP
_chemical_formula_moiety         '(C468 H288 N12 O72 Zn15 4-)n'
_symmetry_cell_setting           triclinic
_symmetry_space_group_name_H-M   'P 1'
_symmetry_Int_Tables_number      1
_space_group_name_Hall           'P 1'
loop_
_symmetry_equiv_pos_site_id
_symmetry_equiv_pos_as_xyz
1 x,y,z
_cell_length_a                   30.1777(17)
_cell_length_b                   21.4903(16)
_cell_length_c                   33.5299(18)
_cell_angle_alpha                90
_cell_angle_beta                 90
_cell_angle_gamma                90
_cell_volume                     21745.1
loop_
_atom_site_label
_atom_site_type_symbol
_atom_site_fract_x
_atom_site_fract_y
_atom_site_fract_z
Zn2 Zn 0.00923(4) 0.21363(6) 0.05138(4)
O22 O 0.0211(2) 0.2922(3) 0.0769(2)
O27 O 0.0610(2) 0.1624(4) 0.0619(2)
O4 O 0.0056(2) 0.1961(3) 0.9946(2)
O11 O 0.1061(2) 0.1750(4) 0.1153(2)
C31 C 0.0337(4) 0.0377(6) 0.0913(3)
H10 H 0.0260 0.0473 0.0652
C64 C 0.0656(3) 0.0684(6) 0.1550(3)
H29 H 0.0806 0.0981 0.1701
C67 C 0.0527(4) 0.0147(6) 0.1727(3)
H31 H 0.0584 0.0073 0.1996
C111 C 0.0573(4) 0.0808(7) 0.1146(4)
C114 C 0.0747(5) 0.1475(6) 0.0949(6)
Zn12 Zn 0.12944(4) 0.23172(6) 0.07264(4)
O8 O 0.0924(2) 0.3053(3) 0.0897(2)
C11 C 0.0056(3) 0.8580(6) 0.1416(3)
H2 H 0.0064 0.8621 0.1140
C15 C 0.0415(4) 0.3864(5) 0.1062(3)
C18 C 0.0240(4) 0.5015(5) 0.1394(3)
C37 C 0.0112(4) 0.5655(5) 0.1578(3)
C39 C 0.0228(3) 0.9849(6) 0.1065(3)
H14 H 0.0099 0.9553 0.0899
C41 C 0.0534(4) 0.3238(6) 0.0900(3)
C45 C 0.0318(3) 0.6681(5) 0.1786(3)
H16 H 0.0533 0.6989 0.1805
C46 C 0.0296(3) 0.9693(5) 0.1482(4)
C54 C 0.0036(3) 0.8415(5) 0.2219(4)
H24 H 0.0040 0.8365 0.2495
C58 C 0.0168(3) 0.9078(5) 0.1653(4)
C76 C 0.0657(3) 0.4789(7) 0.1363(3)
H39 H 0.0893 0.5032 0.1449
C85 C 0.0737(3) 0.4225(5) 0.1210(4)
H48 H 0.1027 0.4078 0.1207
C91 C 0.0006(4) 0.4081(5) 0.1063(3)
C98 C 0.0155(3) 0.8968(6) 0.2064(3)
H58 H 0.0233 0.9289 0.2236
C103 C 0.0413(4) 0.6122(7) 0.1602(3)
H63 H 0.0693 0.6063 0.1492
Zn1 Zn 0.89741(4) 0.27502(6) 0.02990(4)
O3 O 0.95849(19) 0.2731(3) 0.00971(16)
O24 O 0.8953(2) 0.1963(4) 0.0552(3)
O25 O 0.9623(2) 0.1734(3) 0.0815(2)
O29 O 0.8907(3) 0.3848(5) 0.0233(4)
O30 O 0.8867(5) 0.3330(6) 0.0787(3)
O1 O 0.7600(2) 0.6993(3) 0.5618(2)
O2 O 0.8167(2) 0.7341(3) 0.5999(2)
N2 N 0.8499(2) 0.2750(4) 0.7077(2)
C2 C 0.8376(3) 0.3347(5) 0.6945(3)
C3 C 0.8425(3) 0.2223(5) 0.6845(3)
C4 C 0.8716(3) 0.2692(6) 0.7460(3)
C5 C 0.8016(3) 0.2113(5) 0.6681(3)
H1 H 0.7792 0.2401 0.6730
C8 C 0.8143(3) 0.4510(5) 0.6628(4)
C9 C 0.9770(4) 0.2325(6) 0.9845(3)
C10 C 0.8044(3) 0.5122(5) 0.6444(4)
C13 C 0.9669(3) 0.1933(6) 0.9135(4)
H3 H 0.9807 0.1569 0.9221
C17 C 0.9150(3) 0.2600(8) 0.8198(4)
C20 C 0.8715(3) 0.2112(6) 0.7659(3)
H4 H 0.8567 0.1770 0.7553
C23 C 0.7914(3) 0.6301(6) 0.6089(3)
C25 C 0.8160(4) 0.5691(6) 0.6652(3)
H7 H 0.8279 0.5673 0.6907
C27 C 0.8202(3) 0.3796(5) 0.7189(3)
H8 H 0.8153 0.3715 0.7458
C29 C 0.9340(4) 0.2473(7) 0.8613(3)
C38 C 0.8515(4) 0.0305(6) 0.5946(4)
H13 H 0.8790 0.0499 0.5930
C42 C 0.8700(4) 0.0007(6) 0.1331(4)
C43 C 0.8253(3) 0.1154(5) 0.6382(3)
C44 C 0.7781(4) 0.5770(6) 0.5910(3)
H15 H 0.7635 0.5796 0.5667
C48 C 0.8092(3) 0.6256(6) 0.6470(4)
H18 H 0.8168 0.6618 0.6605
C50 C 0.8594(4) 0.0896(6) 0.0931(4)
H20 H 0.8408 0.1148 0.0781
C52 C 0.8948(4) 0.2071(6) 0.8024(4)
H22 H 0.8969 0.1688 0.8153
C53 C 0.8679(3) 0.1275(6) 0.6558(3)
H23 H 0.8907 0.0990 0.6524
C56 C 0.7916(3) 0.1599(6) 0.6448(3)
H26 H 0.7635 0.1548 0.6339
C57 C 0.9534(4) 0.1966(7) 0.8750(4)
H27 H 0.9578 0.1629 0.8581
C61 C 0.7890(4) 0.6919(6) 0.5897(3)
C62 C 0.9131(4) 0.3146(6) 0.7967(4)
H28 H 0.9267 0.3498 0.8072
C63 C 0.8175(4) 0.0584(5) 0.6150(3)
C66 C 0.8293(3) 0.4028(7) 0.6377(3)
H30 H 0.8311 0.4095 0.6103
C68 C 0.8755(4) 0.1818(6) 0.6782(3)
H32 H 0.9034 0.1895 0.6887
C69 C 0.8429(4) 0.0367(7) 0.1113(4)
H33 H 0.8131 0.0262 0.1085
C73 C 0.7763(3) 0.0280(7) 0.6148(4)
H37 H 0.7525 0.0464 0.6279
C75 C 0.8101(3) 0.4364(5) 0.7031(3)
H38 H 0.7998 0.4672 0.7203
C78 C 0.7851(3) 0.5201(6) 0.6070(3)
H41 H 0.7768 0.4851 0.5925
C79 C 0.8937(4) 0.3204(6) 0.7615(3)
H42 H 0.8948 0.3577 0.7475
C81 C 0.9139(4) 0.0225(6) 0.1405(4)
H44 H 0.9320 0.0001 0.1578
C90 C 0.9616(3) 0.2391(8) 0.9394(3)
C92 C 0.9293(4) 0.0721(6) 0.1240(4)
H54 H 0.9578 0.0859 0.1300
C93 C 0.8411(3) 0.3472(6) 0.6530(4)
H55 H 0.8517 0.3164 0.6361
C94 C 0.9418(3) 0.2978(6) 0.9263(4)
H56 H 0.9390 0.3322 0.9429
C96 C 0.9031(4) 0.1049(5) 0.0972(3)
C109 C 0.9280(4) 0.2977(6) 0.8878(4)
H68 H 0.9137 0.3330 0.8783
C115 C 0.9217(5) 0.1665(6) 0.0750(4)
Zn10 Zn 0.87056(4) 0.76828(6) 0.57264(4)
Zn13 Zn 0.76319(3) 0.77440(6) 0.53093(4)
O21 O 0.8618(2) 0.2615(3) 0.98200(18)
O5 O 0.6382(2) 0.7615(3) 0.48200(18)
O6 O 0.7046(2) 0.7811(4) 0.5111(2)
O13 O 0.8708(2) 0.7346(3) 0.51683(18)
O14 O 0.8028(2) 0.7501(4) 0.4886(2)
O15 O 0.7617(2) 0.8557(3) 0.55757(19)
O16 O 0.8360(2) 0.8512(3) 0.54949(19)
N1 N 0.8111(3) 0.7728(5) 0.2053(3)
N3 N 0.9799(2) 0.7329(4) 0.2142(2)
C1 C 0.8204(3) 0.7160(6) 0.1872(4)
C6 C 0.9907(3) 0.7920(6) 0.1984(3)
C7 C 0.8260(4) 0.8306(5) 0.1872(3)
C12 C 0.9909(4) 0.6779(5) 0.1940(3)
C14 C 0.8555(3) 0.9396(6) 0.1531(3)
C16 C 0.9030(4) 0.7228(5) 0.3700(3)
C19 C 0.7312(4) 0.7847(6) 0.3594(3)
C21 C 0.8394(3) 0.7296(6) 0.4133(3)
H5 H 0.8088 0.7288 0.4169
C22 C 0.8697(6) 0.4387(12) 0.0834(10)
C24 C 0.6766(4) 0.7487(6) 0.4080(4)
H6 H 0.6513 0.7251 0.4128
C26 C 0.7919(4) 0.7751(7) 0.2445(4)
C28 C 0.7493(3) 0.7817(7) 0.3204(4)
C30 C 0.9932(3) 0.8025(6) 0.1582(3)
H9 H 0.9860 0.7699 0.1411
C32 C 0.9626(3) 0.7312(5) 0.2542(4)
C33 C 0.7698(4) 0.9713(7) 0.5955(4)
H11 H 0.7417 0.9535 0.5958
C34 C 0.9113(3) 0.7244(6) 0.4422(3)
H12 H 0.9299 0.7232 0.4643
C35 C 0.9222(3) 0.7249(6) 0.3296(4)
C36 C 0.6958(4) 0.7794(6) 0.4382(3)
C40 C 0.8041(4) 0.9401(6) 0.5757(4)
C47 C 0.9893(3) 0.4618(7) 0.1218(4)
H17 H 0.9599 0.4746 0.1217
C49 C 0.9594(4) 0.6325(6) 0.1921(3)
H19 H 0.9316 0.6393 0.2031
C51 C 0.7979(4) 0.8788(6) 0.1826(3)
H21 H 0.7687 0.8745 0.1913
C55 C 0.8696(4) 0.8358(5) 0.1743(3)
H25 H 0.8893 0.8029 0.1775
C59 C 0.6820(5) 0.7733(6) 0.4825(4)
C60 C 0.8013(4) 0.8769(6) 0.5584(3)
C65 C 0.8535(4) 0.5488(7) 0.1227(6)
C70 C 0.8294(3) 0.6586(7) 0.1244(4)
H34 H 0.8278 0.6588 0.0967
C71 C 0.8333(4) 0.6641(7) 0.2068(4)
H35 H 0.8364 0.6659 0.2344
C72 C 0.6939(4) 0.7516(7) 0.3695(4)
H36 H 0.6793 0.7299 0.3494
C74 C 0.8667(4) 0.7316(5) 0.4455(3)
C77 C 0.7438(3) 0.7334(6) 0.2935(4)
H40 H 0.7260 0.7005 0.3016
C80 C 0.8576(4) 0.7288(6) 0.3745(3)
H43 H 0.8393 0.7322 0.3523
C82 C 0.9268(4) 0.7670(6) 0.2636(3)
H45 H 0.9144 0.7925 0.2441
C83 C 0.9087(4) 0.7661(6) 0.3007(4)
H46 H 0.8864 0.7945 0.3068
C84 C 0.8109(4) 0.9340(6) 0.1655(3)
H47 H 0.7910 0.9666 0.1621
C86 C 0.9735(3) 0.6897(6) 0.2818(4)
H49 H 0.9946 0.6601 0.2750
C87 C 0.8444(4) 0.9713(6) 0.5755(3)
H50 H 0.8682 0.9529 0.5623
C88 C 0.7616(3) 0.7295(6) 0.2568(4)
H51 H 0.7540 0.6970 0.2398
C89 C 0.8421(3) 0.6077(7) 0.1873(5)
H52 H 0.8484 0.5721 0.2020
H53 H 0.9785 0.3839 0.0946
C95 C 0.8198(3) 0.7116(6) 0.1465(5)
H57 H 0.8124 0.7474 0.1324
C97 C 0.8413(3) 0.6052(7) 0.1452(5)
C99 C 0.8829(3) 0.8896(6) 0.1570(3)
H59 H 0.9118 0.8925 0.1475
C100 C 0.8500(4) 0.4943(9) 0.1414(5)
H60 H 0.8403 0.4943 0.1678
C101 C 0.8008(4) 0.8273(6) 0.2696(4)
H61 H 0.8196 0.8592 0.2614
C102 C 0.7807(4) 0.8289(6) 0.3063(4)
H62 H 0.7874 0.8618 0.3233
C104 C 0.8437(6) 0.7410(5) 0.4872(3)
C105 C 0.8781(6) 0.492(2) 0.0679(7)
H64 H 0.8928 0.4904 0.0436
C106 C 0.7325(4) 0.8157(6) 0.4277(4)
H65 H 0.7461 0.8393 0.4475
C107 C 0.9684(4) 0.5792(6) 0.1748(3)
H66 H 0.9463 0.5491 0.1735
C108 C 0.9570(4) 0.6871(6) 0.3176(4)
H67 H 0.9689 0.6590 0.3357
C110 C 0.8679(8) 0.5598(11) 0.0830(6)
H69 H 0.8706 0.5974 0.0695
C112 C 0.7490(4) 0.8183(6) 0.3913(4)
H70 H 0.7734 0.8436 0.3867
C113 C 0.9274(3) 0.7191(6) 0.4035(4)
H71 H 0.9577 0.7124 0.4005
C116 C 0.8604(5) 0.4349(9) 0.1230(6)
H72 H 0.8607 0.3976 0.1370
C117 C 0.8869(8) 0.3661(15) 0.0576(4)
Zn7 Zn 0.60259(4) 0.77502(6) 0.52990(4)
O23 O 0.9076(2) 0.6947(3) 0.5897(2)
O26 O 0.8939(2) 0.8250(4) 0.6153(2)
O28 O 0.9390(2) 0.8376(4) 0.5619(2)
Zn4 Zn 0.23681(3) 0.22560(6) 0.03093(4)
O6_2 O 0.2954(2) 0.2189(4) 0.0111(2)
O13_2 O 0.1292(2) 0.2654(3) 0.01683(18)
O15_2 O 0.2383(2) 0.1443(3) 0.05757(19)
O16_2 O 0.1640(2) 0.1488(3) 0.04949(19)
C33_2 C 0.2302(4) 0.0287(7) 0.0955(4)
H11_2 H 0.2583 0.0465 0.0958
C40_2 C 0.1959(4) 0.0599(6) 0.0757(4)
C60_2 C 0.1987(4) 0.1231(6) 0.0584(3)
C87_2 C 0.1556(4) 0.0287(6) 0.0755(3)
H50_2 H 0.1318 0.0471 0.0623
Zn7_2 Zn 0.39741(4) 0.22498(6) 0.02990(4)
O19 O 0.2400(2) 0.3007(3) 0.0618(2)
O20 O 0.1833(2) 0.2659(3) 0.0999(2)
O5_2 O 0.3618(2) 0.2385(3) 0.98200(18)
O14_2 O 0.1972(2) 0.2499(4) 0.9886(2)
N1_2 N 0.1889(3) 0.2272(5) 0.7053(3)
N3_2 N 0.0201(2) 0.2671(4) 0.7142(2)
C1_2 C 0.1796(3) 0.2840(6) 0.6872(4)
C6_2 C 0.0093(3) 0.2080(6) 0.6984(3)
C7_2 C 0.1740(4) 0.1694(5) 0.6872(3)
C12_2 C 0.0091(4) 0.3221(5) 0.6940(3)
C14_2 C 0.1445(3) 0.0604(6) 0.6531(3)
C16_2 C 0.0970(4) 0.2772(5) 0.8700(3)
C19_2 C 0.2688(4) 0.2153(6) 0.8594(3)
C21_2 C 0.1606(3) 0.2704(6) 0.9133(3)
H5_2 H 0.1912 0.2712 0.9169
C22_2 C 0.1303(6) 0.5613(12) 0.5834(10)
C24_2 C 0.3234(4) 0.2513(6) 0.9080(4)
H6_2 H 0.3487 0.2749 0.9128
C26_2 C 0.2081(4) 0.2249(7) 0.7445(4)
C28_2 C 0.2507(3) 0.2183(7) 0.8204(4)
C30_2 C 0.0068(3) 0.1975(6) 0.6582(3)
H9_2 H 0.0140 0.2301 0.6411
C32_2 C 0.0374(3) 0.2688(5) 0.7542(4)
C34_2 C 0.0887(3) 0.2756(6) 0.9422(3)
H12_2 H 0.0701 0.2768 0.9643
C35_2 C 0.0778(3) 0.2751(6) 0.8296(4)
C36_2 C 0.3042(4) 0.2206(6) 0.9382(3)
C47_2 C 0.0107(3) 0.5382(7) 0.6218(4)
H17_2 H 0.0401 0.5254 0.6217
C49_2 C 0.0406(4) 0.3675(6) 0.6921(3)
H19_2 H 0.0684 0.3607 0.7031
C51_2 C 0.2021(4) 0.1212(6) 0.6826(3)
H21_2 H 0.2313 0.1255 0.6913
C55_2 C 0.1304(4) 0.1642(5) 0.6743(3)
H25_2 H 0.1107 0.1971 0.6775
C59_2 C 0.3180(5) 0.2267(6) 0.9825(4)
C65_2 C 0.1465(4) 0.4512(7) 0.6227(6)
C70_2 C 0.1706(3) 0.3414(7) 0.6244(4)
H34_2 H 0.1722 0.3412 0.5967
C71_2 C 0.1667(4) 0.3359(7) 0.7068(4)
H35_2 H 0.1636 0.3341 0.7344
C72_2 C 0.3061(4) 0.2484(7) 0.8695(4)
H36_2 H 0.3207 0.2701 0.8494
C74_2 C 0.1333(4) 0.2684(5) 0.9455(3)
C77_2 C 0.2562(3) 0.2666(6) 0.7935(4)
H40_2 H 0.2740 0.2995 0.8016
C80_2 C 0.1424(4) 0.2712(6) 0.8745(3)
H43_2 H 0.1607 0.2678 0.8523
C82_2 C 0.0732(4) 0.2330(6) 0.7636(3)
H45_2 H 0.0856 0.2075 0.7441
C83_2 C 0.0913(4) 0.2339(6) 0.8007(4)
H46_2 H 0.1136 0.2055 0.8068
C84_2 C 0.1891(4) 0.0660(6) 0.6655(3)
H47_2 H 0.2090 0.0334 0.6621
C86_2 C 0.0265(3) 0.3103(6) 0.7818(4)
H49_2 H 0.0054 0.3399 0.7750
C88_2 C 0.2384(3) 0.2705(6) 0.7568(4)
H51_2 H 0.2460 0.3030 0.7398
C89_2 C 0.1579(3) 0.3923(7) 0.6873(5)
H52_2 H 0.1516 0.4279 0.7020
H53_2 H 0.0215 0.6161 0.5946
C95_2 C 0.1802(3) 0.2884(6) 0.6465(5)
H57_2 H 0.1876 0.2526 0.6324
C97_2 C 0.1587(3) 0.3948(7) 0.6452(5)
C99_2 C 0.1171(3) 0.1104(6) 0.6570(3)
H59_2 H 0.0882 0.1075 0.6475
C100_2 C 0.1500(4) 0.5057(9) 0.6414(5)
H60_2 H 0.1597 0.5057 0.6678
C101_2 C 0.1992(4) 0.1727(6) 0.7696(4)
H61_2 H 0.1804 0.1408 0.7614
C102_2 C 0.2193(4) 0.1711(6) 0.8063(4)
H62_2 H 0.2126 0.1382 0.8233
C104_2 C 0.1563(6) 0.2590(5) 0.9872(3)
C105_2 C 0.1219(6) 0.508(2) 0.5679(7)
H64_2 H 0.1072 0.5096 0.5436
C106_2 C 0.2675(4) 0.1843(6) 0.9277(4)
H65_2 H 0.2539 0.1607 0.9475
C107_2 C 0.0316(4) 0.4208(6) 0.6748(3)
H66_2 H 0.0537 0.4509 0.6735
C108_2 C 0.0430(4) 0.3129(6) 0.8176(4)
H67_2 H 0.0311 0.3410 0.8357
C110_2 C 0.1321(8) 0.4402(11) 0.5830(6)
H69_2 H 0.1294 0.4026 0.5695
C112_2 C 0.2510(4) 0.1817(6) 0.8913(4)
H70_2 H 0.2266 0.1564 0.8867
C113_2 C 0.0726(3) 0.2809(6) 0.9035(4)
H71_2 H 0.0423 0.2876 0.9005
C116_2 C 0.1396(5) 0.5651(9) 0.6230(6)
H72_2 H 0.1393 0.6024 0.6370
O17 O 0.1093(3) 0.6152(5) 0.5233(4)
O18 O 0.1133(5) 0.6670(6) 0.5787(3)
C117_2 C 0.1131(8) 0.6339(15) 0.5576(4)
Zn5 Zn 0.10259(4) 0.72498(6) 0.52990(4)
O3_2 O 0.04151(19) 0.7269(3) 0.50971(16)
N2_2 N 0.1501(2) 0.7250(4) 0.2077(2)
C2_2 C 0.1624(3) 0.6653(5) 0.1945(3)
C3_2 C 0.1575(3) 0.7777(5) 0.1845(3)
C4_2 C 0.1284(3) 0.7308(6) 0.2460(3)
C5_2 C 0.1984(3) 0.7887(5) 0.1681(3)
H1_2 H 0.2208 0.7599 0.1730
C8_2 C 0.1857(3) 0.5490(5) 0.1628(4)
C9_2 C 0.0230(4) 0.7675(6) 0.4845(3)
C10_2 C 0.1956(3) 0.4878(5) 0.1444(4)
C13_2 C 0.0331(3) 0.8067(6) 0.4135(4)
H3_2 H 0.0193 0.8431 0.4221
C17_2 C 0.0850(3) 0.7400(8) 0.3198(4)
C20_2 C 0.1285(3) 0.7888(6) 0.2659(3)
H4_2 H 0.1433 0.8230 0.2553
C23_2 C 0.2086(3) 0.3699(6) 0.1089(3)
C25_2 C 0.1840(4) 0.4309(6) 0.1652(3)
H7_2 H 0.1721 0.4327 0.1907
C27_2 C 0.1798(3) 0.6204(5) 0.2189(3)
H8_2 H 0.1847 0.6285 0.2458
C29_2 C 0.0660(4) 0.7527(7) 0.3613(3)
C38_2 C 0.1485(4) 0.9695(6) 0.0946(4)
H13_2 H 0.1210 0.9501 0.0930
C43_2 C 0.1747(3) 0.8846(5) 0.1382(3)
C44_2 C 0.2219(4) 0.4230(6) 0.0910(3)
H15_2 H 0.2365 0.4204 0.0667
C48_2 C 0.1908(3) 0.3744(6) 0.1470(4)
H18_2 H 0.1832 0.3382 0.1605
C52_2 C 0.1052(4) 0.7929(6) 0.3024(4)
H22_2 H 0.1031 0.8312 0.3153
C53_2 C 0.1321(3) 0.8725(6) 0.1558(3)
H23_2 H 0.1093 0.9010 0.1524
C56_2 C 0.2084(3) 0.8401(6) 0.1448(3)
H26_2 H 0.2365 0.8452 0.1339
C57_2 C 0.0466(4) 0.8034(7) 0.3750(4)
H27_2 H 0.0422 0.8371 0.3581
C61_2 C 0.2110(4) 0.3081(6) 0.0897(3)
C62_2 C 0.0869(4) 0.6854(6) 0.2967(4)
H28_2 H 0.0733 0.6502 0.3072
C63_2 C 0.1825(4) 0.9416(5) 0.1150(3)
C66_2 C 0.1707(3) 0.5972(7) 0.1377(3)
H30_2 H 0.1689 0.5905 0.1103
C68_2 C 0.1245(4) 0.8182(6) 0.1782(3)
H32_2 H 0.0966 0.8105 0.1887
C73_2 C 0.2237(3) 0.9720(7) 0.1148(4)
H37_2 H 0.2475 0.9536 0.1279
C75_2 C 0.1899(3) 0.5636(5) 0.2031(3)
H38_2 H 0.2002 0.5328 0.2203
C78_2 C 0.2149(3) 0.4799(6) 0.1070(3)
H41_2 H 0.2232 0.5149 0.0925
C79_2 C 0.1063(4) 0.6796(6) 0.2615(3)
H42_2 H 0.1052 0.6423 0.2475
C90_2 C 0.0384(3) 0.7609(8) 0.4394(3)
C93_2 C 0.1589(3) 0.6528(6) 0.1530(4)
H55_2 H 0.1483 0.6836 0.1361
C94_2 C 0.0582(3) 0.7022(6) 0.4263(4)
H56_2 H 0.0610 0.6678 0.4429
C109_2 C 0.0720(4) 0.7023(6) 0.3878(4)
H68_2 H 0.0863 0.6670 0.3783
O21_2 O 0.1382(2) 0.7385(3) 0.48200(18)
O24_2 O 0.1047(2) 0.8037(4) 0.5552(3)
O25_2 O 0.0377(2) 0.8266(3) 0.5815(2)
C42_2 C 0.1300(4) 0.9993(6) 0.6331(4)
C50_2 C 0.1406(4) 0.9104(6) 0.5931(4)
H20_2 H 0.1592 0.8852 0.5781
C69_2 C 0.1571(4) 0.9633(7) 0.6113(4)
H33_2 H 0.1869 0.9738 0.6085
C81_2 C 0.0861(4) 0.9775(6) 0.6405(4)
H44_2 H 0.0680 0.9999 0.6578
C92_2 C 0.0707(4) 0.9279(6) 0.6240(4)
H54_2 H 0.0422 0.9141 0.6300
C96_2 C 0.0969(4) 0.8951(5) 0.5972(3)
C115_2 C 0.0783(5) 0.8335(6) 0.5750(4)
O7 O 0.9789(2) 0.7078(3) 0.5769(2)
C11_2 C 0.9944(3) 0.1420(6) 0.6416(3)
H2_2 H 0.9936 0.1379 0.6140
C15_2 C 0.9585(4) 0.6136(5) 0.6062(3)
C18_2 C 0.9760(4) 0.4985(5) 0.6394(3)
C37_2 C 0.9888(4) 0.4345(5) 0.6578(3)
C39_2 C 0.9772(3) 0.0151(6) 0.6065(3)
H14_2 H 0.9901 0.0447 0.5899
C41_2 C 0.9466(4) 0.6762(6) 0.5900(3)
C45_2 C 0.9682(3) 0.3319(5) 0.6786(3)
H16_2 H 0.9467 0.3011 0.6805
C46_2 C 0.9704(3) 0.0307(5) 0.6482(4)
C54_2 C 0.9964(3) 0.1585(5) 0.7219(4)
H24_2 H 0.9960 0.1635 0.7495
C58_2 C 0.9832(3) 0.0922(5) 0.6653(4)
C76_2 C 0.9343(3) 0.5211(7) 0.6363(3)
H39_2 H 0.9107 0.4968 0.6449
C85_2 C 0.9263(3) 0.5775(5) 0.6210(4)
H48_2 H 0.8973 0.5922 0.6207
C91_2 C 0.9994(4) 0.5919(5) 0.6063(3)
C98_2 C 0.9845(3) 0.1032(6) 0.7064(3)
H58_2 H 0.9767 0.0711 0.7236
C103_2 C 0.9587(4) 0.3878(7) 0.6602(3)
H63_2 H 0.9307 0.3937 0.6492
Zn8 Zn 0.99077(4) 0.78637(6) 0.55138(4)
O4_2 O 0.9944(2) 0.8039(3) 0.4946(2)
C31_2 C 0.9663(4) 0.9623(6) 0.5913(3)
H10_2 H 0.9740 0.9527 0.5652
C64_2 C 0.9344(3) 0.9316(6) 0.6550(3)
H29_2 H 0.9194 0.9019 0.6701
C67_2 C 0.9473(4) 0.9853(6) 0.6727(3)
H31_2 H 0.9416 0.9927 0.6996
C111_2 C 0.9427(4) 0.9192(7) 0.6146(4)
C114_2 C 0.9253(5) 0.8525(6) 0.5949(6)
O7_2 O 0.5211(2) 0.2078(3) 0.0769(2)
O8_2 O 0.5924(2) 0.1947(3) 0.0897(2)
C15_3 C 0.5415(4) 0.1136(5) 0.1062(3)
C22_3 C 0.3697(6) 0.0613(12) 0.0834(10)
C41_3 C 0.5534(4) 0.1762(6) 0.0900(3)
C47_3 C 0.4893(3) 0.0382(7) 0.1218(4)
H17_3 H 0.4599 0.0254 0.1217
C76_3 C 0.5657(3) 0.0211(7) 0.1363(3)
C85_3 C 0.5737(3) 0.0775(5) 0.1210(4)
H48_3 H 0.6027 0.0922 0.1207
C91_3 C 0.5006(4) 0.0919(5) 0.1063(3)
H53_3 H 0.4785 0.1161 0.0946
C100_3 C 0.3500(4) 0.0057(9) 0.1414(5)
H60_3 H 0.3403 0.0057 0.1678
C105_3 C 0.3781(6) 0.008(2) 0.0679(7)
H64_3 H 0.3928 0.0096 0.0436
C116_3 C 0.3604(5) 0.0651(9) 0.1230(6)
H72_3 H 0.3607 0.1024 0.1370
O17_2 O 0.3907(3) 0.1152(5) 0.0233(4)
O18_2 O 0.3867(5) 0.1670(6) 0.0787(3)
C117_3 C 0.3869(8) 0.1339(15) 0.0576(4)
Zn8_2 Zn 0.50923(4) 0.28637(6) 0.05138(4)
Zn11 Zn 0.62944(4) 0.26828(6) 0.07264(4)
O3_3 O 0.45849(19) 0.2269(3) 0.00971(16)
O24_3 O 0.3953(2) 0.3037(4) 0.0552(3)
O25_3 O 0.4623(2) 0.3266(3) 0.0815(2)
O27_2 O 0.5610(2) 0.3376(4) 0.0619(2)
Zn3 Zn 0.37056(4) 0.73172(6) 0.57264(4)
Zn4_2 Zn 0.26319(3) 0.72560(6) 0.53093(4)
O4_3 O 0.5056(2) 0.3039(3) 0.9946(2)
O6_3 O 0.2046(2) 0.7189(4) 0.5111(2)
O11_2 O 0.6061(2) 0.3250(4) 0.1153(2)
O13_3 O 0.3708(2) 0.7654(3) 0.51683(18)
O14_3 O 0.3028(2) 0.7499(4) 0.4886(2)
O15_3 O 0.2617(2) 0.6443(3) 0.55757(19)
O16_3 O 0.3360(2) 0.6488(3) 0.54949(19)
N1_3 N 0.3111(3) 0.7272(5) 0.2053(3)
N2_3 N 0.3499(2) 0.2250(4) 0.7077(2)
N3_3 N 0.4799(2) 0.7671(4) 0.2142(2)
C1_3 C 0.3204(3) 0.7840(6) 0.1872(4)
C2_3 C 0.3376(3) 0.1653(5) 0.6945(3)
C3_3 C 0.3425(3) 0.2777(5) 0.6845(3)
C4_3 C 0.3716(3) 0.2308(6) 0.7460(3)
C5_3 C 0.3016(3) 0.2887(5) 0.6681(3)
H1_3 H 0.2792 0.2599 0.6730
C6_3 C 0.4907(3) 0.7080(6) 0.1984(3)
C7_3 C 0.3260(4) 0.6694(5) 0.1872(3)
C8_3 C 0.3143(3) 0.0490(5) 0.6628(4)
C9_3 C 0.4770(4) 0.2675(6) 0.9845(3)
C11_3 C 0.5056(3) 0.6420(6) 0.1416(3)
H2_3 H 0.5064 0.6379 0.1140
C12_3 C 0.4909(4) 0.8221(5) 0.1940(3)
C13_3 C 0.4669(3) 0.3067(6) 0.9135(4)
H3_3 H 0.4807 0.3431 0.9221
C14_3 C 0.3555(3) 0.5604(6) 0.1531(3)
C16_3 C 0.4030(4) 0.7772(5) 0.3700(3)
C17_3 C 0.4150(3) 0.2400(8) 0.8198(4)
C18_3 C 0.5240(4) 0.9985(5) 0.1394(3)
C19_3 C 0.2312(4) 0.7153(6) 0.3594(3)
C20_3 C 0.3715(3) 0.2888(6) 0.7659(3)
H4_3 H 0.3567 0.3230 0.7553
C21_3 C 0.3394(3) 0.7704(6) 0.4133(3)
H5_3 H 0.3088 0.7712 0.4169
C24_3 C 0.1766(4) 0.7513(6) 0.4080(4)
H6_3 H 0.1513 0.7749 0.4128
C26_3 C 0.2919(4) 0.7249(7) 0.2445(4)
C27_3 C 0.3202(3) 0.1204(5) 0.7189(3)
H8_3 H 0.3153 0.1285 0.7458
C28_3 C 0.2493(3) 0.7183(7) 0.3204(4)
C29_3 C 0.4340(4) 0.2527(7) 0.8613(3)
C30_3 C 0.4932(3) 0.6975(6) 0.1582(3)
H9_3 H 0.4860 0.7301 0.1411
C31_3 C 0.5337(4) 0.4623(6) 0.0913(3)
H10_3 H 0.5260 0.4527 0.0652
C32_3 C 0.4626(3) 0.7688(5) 0.2542(4)
C33_3 C 0.2698(4) 0.5287(7) 0.5955(4)
H11_3 H 0.2417 0.5465 0.5958
C34_3 C 0.4113(3) 0.7756(6) 0.4422(3)
H12_3 H 0.4299 0.7768 0.4643
C35_3 C 0.4222(3) 0.7751(6) 0.3296(4)
C36_3 C 0.1958(4) 0.7206(6) 0.4382(3)
C37_3 C 0.5112(4) 0.9345(5) 0.1578(3)
C38_3 C 0.3515(4) 0.4695(6) 0.5946(4)
H13_3 H 0.3790 0.4501 0.5930
C39_3 C 0.5228(3) 0.5151(6) 0.1065(3)
H14_3 H 0.5099 0.5447 0.0899
C40_3 C 0.3041(4) 0.5599(6) 0.5757(4)
C42_3 C 0.3700(4) 0.4993(6) 0.1331(4)
C43_3 C 0.3253(3) 0.3846(5) 0.6382(3)
C45_3 C 0.5318(3) 0.8319(5) 0.1786(3)
H16_3 H 0.5533 0.8011 0.1805
C46_3 C 0.5296(3) 0.5307(5) 0.1482(4)
C49_3 C 0.4594(4) 0.8675(6) 0.1921(3)
H19_3 H 0.4316 0.8607 0.2031
C50_3 C 0.3594(4) 0.4104(6) 0.0931(4)
H20_3 H 0.3408 0.3852 0.0781
C51_3 C 0.2979(4) 0.6212(6) 0.1826(3)
H21_3 H 0.2687 0.6255 0.1913
C52_3 C 0.3948(4) 0.2929(6) 0.8024(4)
H22_3 H 0.3969 0.3312 0.8153
C53_3 C 0.3679(3) 0.3725(6) 0.6558(3)
H23_3 H 0.3907 0.4010 0.6524
C54_3 C 0.5036(3) 0.6585(5) 0.2219(4)
H24_3 H 0.5040 0.6635 0.2495
C55_3 C 0.3696(4) 0.6642(5) 0.1743(3)
H25_3 H 0.3893 0.6971 0.1775
C56_3 C 0.2916(3) 0.3401(6) 0.6448(3)
H26_3 H 0.2635 0.3452 0.6339
C57_3 C 0.4534(4) 0.3034(7) 0.8750(4)
H27_3 H 0.4578 0.3371 0.8581
C58_3 C 0.5168(3) 0.5922(5) 0.1653(4)
C59_3 C 0.1820(5) 0.7267(6) 0.4825(4)
C60_3 C 0.3013(4) 0.6231(6) 0.5584(3)
C62_3 C 0.4131(4) 0.1854(6) 0.7967(4)
H28_3 H 0.4267 0.1502 0.8072
C63_3 C 0.3175(4) 0.4416(5) 0.6150(3)
C64_3 C 0.5656(3) 0.4316(6) 0.1550(3)
H29_3 H 0.5806 0.4019 0.1701
C65_3 C 0.3535(4) 0.9512(7) 0.1227(6)
C66_3 C 0.3293(3) 0.0972(7) 0.6377(3)
H30_3 H 0.3311 0.0905 0.6103
C67_3 C 0.5527(4) 0.4853(6) 0.1727(3)
H31_3 H 0.5584 0.4927 0.1996
C68_3 C 0.3755(4) 0.3182(6) 0.6782(3)
H32_3 H 0.4034 0.3105 0.6887
C69_3 C 0.3429(4) 0.4633(7) 0.1113(4)
H33_3 H 0.3131 0.4738 0.1085
C70_3 C 0.3294(3) 0.8414(7) 0.1244(4)
H34_3 H 0.3278 0.8412 0.0967
C71_3 C 0.3333(4) 0.8359(7) 0.2068(4)
H35_3 H 0.3364 0.8341 0.2344
C72_3 C 0.1939(4) 0.7484(7) 0.3695(4)
H36_3 H 0.1793 0.7701 0.3494
C73_3 C 0.2763(3) 0.4720(7) 0.6148(4)
H37_3 H 0.2525 0.4536 0.6279
C74_3 C 0.3667(4) 0.7684(5) 0.4455(3)
C75_3 C 0.3101(3) 0.0636(5) 0.7031(3)
H38_3 H 0.2998 0.0328 0.7203
H39_3 H 0.5893 0.9968 0.1449
C77_3 C 0.2438(3) 0.7666(6) 0.2935(4)
H40_3 H 0.2260 0.7995 0.3016
H41_3 H 0.2768 0.0149 0.5925
C79_3 C 0.3937(4) 0.1796(6) 0.7615(3)
H42_3 H 0.3948 0.1423 0.7475
C80_3 C 0.3576(4) 0.7712(6) 0.3745(3)
H43_3 H 0.3393 0.7678 0.3523
C81_3 C 0.4139(4) 0.4775(6) 0.1405(4)
H44_3 H 0.4320 0.4999 0.1578
C82_3 C 0.4268(4) 0.7330(6) 0.2636(3)
H45_3 H 0.4144 0.7075 0.2441
C83_3 C 0.4087(4) 0.7339(6) 0.3007(4)
H46_3 H 0.3864 0.7055 0.3068
C84_3 C 0.3109(4) 0.5660(6) 0.1655(3)
H47_3 H 0.2910 0.5334 0.1621
C86_3 C 0.4735(3) 0.8103(6) 0.2818(4)
H49_3 H 0.4946 0.8399 0.2750
C87_3 C 0.3444(4) 0.5287(6) 0.5755(3)
H50_3 H 0.3682 0.5471 0.5623
C88_3 C 0.2616(3) 0.7705(6) 0.2568(4)
H51_3 H 0.2540 0.8030 0.2398
C89_3 C 0.3421(3) 0.8923(7) 0.1873(5)
H52_3 H 0.3484 0.9279 0.2020
C90_3 C 0.4616(3) 0.2609(8) 0.9394(3)
C92_3 C 0.4293(4) 0.4279(6) 0.1240(4)
H54_3 H 0.4578 0.4141 0.1300
C93_3 C 0.3411(3) 0.1528(6) 0.6530(4)
H55_3 H 0.3517 0.1836 0.6361
C94_3 C 0.4418(3) 0.2022(6) 0.9263(4)
H56_3 H 0.4390 0.1678 0.9429
C95_3 C 0.3198(3) 0.7884(6) 0.1465(5)
H57_3 H 0.3124 0.7526 0.1324
C96_3 C 0.4031(4) 0.3951(5) 0.0972(3)
C97_3 C 0.3413(3) 0.8948(7) 0.1452(5)
C98_3 C 0.5155(3) 0.6032(6) 0.2064(3)
H58_3 H 0.5233 0.5711 0.2236
C99_3 C 0.3829(3) 0.6104(6) 0.1570(3)
H59_3 H 0.4118 0.6075 0.1475
C101_3 C 0.3008(4) 0.6727(6) 0.2696(4)
H61_3 H 0.3196 0.6408 0.2614
C102_3 C 0.2807(4) 0.6711(6) 0.3063(4)
H62_3 H 0.2874 0.6382 0.3233
C103_3 C 0.5413(4) 0.8878(7) 0.1602(3)
H63_3 H 0.5693 0.8937 0.1492
C104_3 C 0.3437(6) 0.7590(5) 0.4872(3)
C106_3 C 0.2325(4) 0.6843(6) 0.4277(4)
H65_3 H 0.2461 0.6607 0.4475
C107_3 C 0.4684(4) 0.9208(6) 0.1748(3)
H66_3 H 0.4463 0.9509 0.1735
C108_3 C 0.4570(4) 0.8129(6) 0.3176(4)
H67_3 H 0.4689 0.8410 0.3357
C109_3 C 0.4280(4) 0.2023(6) 0.8878(4)
H68_3 H 0.4137 0.1670 0.8783
C110_3 C 0.3679(8) 0.9402(11) 0.0830(6)
H69_3 H 0.3706 0.9026 0.0695
C111_3 C 0.5573(4) 0.4192(7) 0.1146(4)
C112_3 C 0.2490(4) 0.6817(6) 0.3913(4)
H70_3 H 0.2734 0.6564 0.3867
C113_3 C 0.4274(3) 0.7809(6) 0.4035(4)
H71_3 H 0.4577 0.7876 0.4005
C114_3 C 0.5747(5) 0.3525(6) 0.0949(6)
C115_3 C 0.4217(5) 0.3335(6) 0.0750(4)
O19_2 O 0.2600(2) 0.8007(3) 0.5618(2)
O20_2 O 0.3167(2) 0.7659(3) 0.5999(2)
O23_2 O 0.4076(2) 0.8053(3) 0.5897(2)
O26_2 O 0.3939(2) 0.6750(4) 0.6153(2)
O28_2 O 0.4390(2) 0.6624(4) 0.5619(2)
C10_3 C 0.3044(3) 0.9878(5) 0.6444(4)
C23_3 C 0.2914(3) 0.8699(6) 0.6089(3)
C25_3 C 0.3160(4) 0.9309(6) 0.6652(3)
H7_3 H 0.3279 0.9327 0.6907
C44_3 C 0.2781(4) 0.9230(6) 0.5910(3)
H15_3 H 0.2635 0.9204 0.5667
C48_3 C 0.3092(3) 0.8744(6) 0.6470(4)
H18_3 H 0.3168 0.8382 0.6605
C61_3 C 0.2890(4) 0.8081(6) 0.5897(3)
C78_3 C 0.2851(3) 0.9799(6) 0.6070(3)
O1_2 O 0.7400(2) 0.1993(3) 0.0618(2)
O2_2 O 0.6833(2) 0.2341(3) 0.0999(2)
C10_4 C 0.6956(3) 0.0122(5) 0.1444(4)
C23_4 C 0.7086(3) 0.1301(6) 0.1089(3)
C25_4 C 0.6840(4) 0.0691(6) 0.1652(3)
H7_4 H 0.6721 0.0673 0.1907
C44_4 C 0.7219(4) 0.0770(6) 0.0910(3)
H15_4 H 0.7365 0.0796 0.0667
C48_4 C 0.6908(3) 0.1256(6) 0.1470(4)
H18_4 H 0.6832 0.1618 0.1605
C61_4 C 0.7110(4) 0.1919(6) 0.0897(3)
C78_4 C 0.7149(3) 0.0201(6) 0.1070(3)
Zn13_2 Zn 0.73681(3) 0.27440(6) 0.03093(4)
Zn2_2 Zn 0.49077(4) 0.71363(6) 0.55138(4)
O3_4 O 0.54151(19) 0.7731(3) 0.50971(16)
O4_4 O 0.4944(2) 0.6961(3) 0.4946(2)
O6_4 O 0.7954(2) 0.2811(4) 0.0111(2)
O13_4 O 0.6292(2) 0.2346(3) 0.01683(18)
O15_4 O 0.7383(2) 0.3557(3) 0.05757(19)
O16_4 O 0.6640(2) 0.3512(3) 0.04949(19)
N2_4 N 0.6501(2) 0.7750(4) 0.2077(2)
C2_4 C 0.6624(3) 0.8347(5) 0.1945(3)
C3_4 C 0.6575(3) 0.7223(5) 0.1845(3)
C4_4 C 0.6284(3) 0.7692(6) 0.2460(3)
C5_4 C 0.6984(3) 0.7113(5) 0.1681(3)
H1_4 H 0.7208 0.7401 0.1730
C8_4 C 0.6857(3) 0.9510(5) 0.1628(4)
C9_4 C 0.5230(4) 0.7325(6) 0.4845(3)
C13_4 C 0.5331(3) 0.6933(6) 0.4135(4)
H3_4 H 0.5193 0.6569 0.4221
C17_4 C 0.5850(3) 0.7600(8) 0.3198(4)
C20_4 C 0.6285(3) 0.7112(6) 0.2659(3)
H4_4 H 0.6433 0.6770 0.2553
C27_4 C 0.6798(3) 0.8796(5) 0.2189(3)
H8_4 H 0.6847 0.8715 0.2458
C29_4 C 0.5660(4) 0.7473(7) 0.3613(3)
C33_4 C 0.7302(4) 0.4713(7) 0.0955(4)
H11_4 H 0.7583 0.4535 0.0958
C38_4 C 0.6485(4) 0.5305(6) 0.0946(4)
H13_4 H 0.6210 0.5499 0.0930
C40_4 C 0.6959(4) 0.4401(6) 0.0757(4)
C43_4 C 0.6747(3) 0.6154(5) 0.1382(3)
C52_4 C 0.6052(4) 0.7071(6) 0.3024(4)
H22_4 H 0.6031 0.6688 0.3153
C53_4 C 0.6321(3) 0.6275(6) 0.1558(3)
H23_4 H 0.6093 0.5990 0.1524
C56_4 C 0.7084(3) 0.6599(6) 0.1448(3)
H26_4 H 0.7365 0.6548 0.1339
C57_4 C 0.5466(4) 0.6966(7) 0.3750(4)
H27_4 H 0.5422 0.6629 0.3581
C60_4 C 0.6987(4) 0.3769(6) 0.0584(3)
C62_4 C 0.5869(4) 0.8146(6) 0.2967(4)
H28_4 H 0.5733 0.8498 0.3072
C63_4 C 0.6825(4) 0.5584(5) 0.1150(3)
C66_4 C 0.6707(3) 0.9028(7) 0.1377(3)
H30_4 H 0.6689 0.9095 0.1103
C68_4 C 0.6245(4) 0.6818(6) 0.1782(3)
H32_4 H 0.5966 0.6895 0.1887
C73_4 C 0.7237(3) 0.5280(7) 0.1148(4)
H37_4 H 0.7475 0.5464 0.1279
C75_4 C 0.6899(3) 0.9364(5) 0.2031(3)
H38_4 H 0.7002 0.9672 0.2203
H41_4 H 0.7232 0.9851 0.0925
C79_4 C 0.6063(4) 0.8204(6) 0.2615(3)
H42_4 H 0.6052 0.8577 0.2475
C87_4 C 0.6556(4) 0.4713(6) 0.0755(3)
H50_4 H 0.6318 0.4529 0.0623
C90_4 C 0.5384(3) 0.7391(8) 0.4394(3)
C93_4 C 0.6589(3) 0.8472(6) 0.1530(4)
H55_4 H 0.6483 0.8164 0.1361
C94_4 C 0.5582(3) 0.7978(6) 0.4263(4)
H56_4 H 0.5610 0.8322 0.4429
C109_4 C 0.5720(4) 0.7977(6) 0.3878(4)
H68_4 H 0.5863 0.8330 0.3783
O22_2 O 0.4789(2) 0.7922(3) 0.5769(2)
O24_4 O 0.6047(2) 0.6963(4) 0.5552(3)
O25_4 O 0.5377(2) 0.6734(3) 0.5815(2)
O29_2 O 0.6093(3) 0.8848(5) 0.5233(4)
O30_2 O 0.6133(5) 0.8330(6) 0.5787(3)
O14_4 O 0.6972(2) 0.2501(4) 0.9886(2)
N1_4 N 0.6889(3) 0.2728(5) 0.7053(3)
N3_4 N 0.5201(2) 0.2329(4) 0.7142(2)
C1_4 C 0.6796(3) 0.2160(6) 0.6872(4)
C6_4 C 0.5093(3) 0.2920(6) 0.6984(3)
C7_4 C 0.6740(4) 0.3306(5) 0.6872(3)
C11_4 C 0.4944(3) 0.3580(6) 0.6416(3)
H2_4 H 0.4936 0.3621 0.6140
C12_4 C 0.5091(4) 0.1779(5) 0.6940(3)
C14_4 C 0.6445(3) 0.4396(6) 0.6531(3)
C16_4 C 0.5970(4) 0.2228(5) 0.8700(3)
C18_4 C 0.4760(4) 0.0015(5) 0.6394(3)
C19_4 C 0.7688(4) 0.2847(6) 0.8594(3)
C21_4 C 0.6606(3) 0.2296(6) 0.9133(3)
H5_4 H 0.6912 0.2288 0.9169
C24_4 C 0.8234(4) 0.2487(6) 0.9080(4)
H6_4 H 0.8487 0.2251 0.9128
C26_4 C 0.7081(4) 0.2751(7) 0.7445(4)
C28_4 C 0.7507(3) 0.2817(7) 0.8204(4)
C30_4 C 0.5068(3) 0.3025(6) 0.6582(3)
H9_4 H 0.5140 0.2699 0.6411
C31_4 C 0.4663(4) 0.5377(6) 0.5913(3)
H10_4 H 0.4740 0.5473 0.5652
C32_4 C 0.5374(3) 0.2312(5) 0.7542(4)
C34_4 C 0.5887(3) 0.2244(6) 0.9422(3)
H12_4 H 0.5701 0.2232 0.9643
C35_4 C 0.5778(3) 0.2249(6) 0.8296(4)
C36_4 C 0.8042(4) 0.2794(6) 0.9382(3)
C37_4 C 0.4888(4) 0.0655(5) 0.6578(3)
C39_4 C 0.4772(3) 0.4849(6) 0.6065(3)
H14_4 H 0.4901 0.4553 0.5899
C42_4 C 0.6300(4) 0.5007(6) 0.6331(4)
C45_4 C 0.4682(3) 0.1681(5) 0.6786(3)
H16_4 H 0.4467 0.1989 0.6805
C46_4 C 0.4704(3) 0.4693(5) 0.6482(4)
C49_4 C 0.5406(4) 0.1325(6) 0.6921(3)
H19_4 H 0.5684 0.1393 0.7031
C50_4 C 0.6406(4) 0.5896(6) 0.5931(4)
H20_4 H 0.6592 0.6148 0.5781
C51_4 C 0.7021(4) 0.3788(6) 0.6826(3)
H21_4 H 0.7313 0.3745 0.6913
C54_4 C 0.4964(3) 0.3415(5) 0.7219(4)
H24_4 H 0.4960 0.3365 0.7495
C55_4 C 0.6304(4) 0.3358(5) 0.6743(3)
H25_4 H 0.6107 0.3029 0.6775
C58_4 C 0.4832(3) 0.4078(5) 0.6653(4)
C59_4 C 0.8180(5) 0.2733(6) 0.9825(4)
C64_4 C 0.4344(3) 0.5684(6) 0.6550(3)
H29_4 H 0.4194 0.5981 0.6701
C65_4 C 0.6465(4) 0.0488(7) 0.6227(6)
C67_4 C 0.4473(4) 0.5147(6) 0.6727(3)
H31_4 H 0.4416 0.5073 0.6996
C69_4 C 0.6571(4) 0.5367(7) 0.6113(4)
H33_4 H 0.6869 0.5262 0.6085
C70_4 C 0.6706(3) 0.1586(7) 0.6244(4)
H34_4 H 0.6722 0.1588 0.5967
C71_4 C 0.6667(4) 0.1641(7) 0.7068(4)
H35_4 H 0.6636 0.1659 0.7344
C72_4 C 0.8061(4) 0.2516(7) 0.8695(4)
H36_4 H 0.8207 0.2299 0.8494
C74_4 C 0.6333(4) 0.2316(5) 0.9455(3)
H39_4 H 0.4107 0.0032 0.6449
C77_4 C 0.7562(3) 0.2334(6) 0.7935(4)
H40_4 H 0.7740 0.2005 0.8016
C80_4 C 0.6424(4) 0.2288(6) 0.8745(3)
H43_4 H 0.6607 0.2322 0.8523
C81_4 C 0.5861(4) 0.5225(6) 0.6405(4)
H44_4 H 0.5680 0.5001 0.6578
C82_4 C 0.5732(4) 0.2670(6) 0.7636(3)
H45_4 H 0.5856 0.2925 0.7441
C83_4 C 0.5913(4) 0.2661(6) 0.8007(4)
H46_4 H 0.6136 0.2945 0.8068
C84_4 C 0.6891(4) 0.4340(6) 0.6655(3)
H47_4 H 0.7090 0.4666 0.6621
C86_4 C 0.5265(3) 0.1897(6) 0.7818(4)
H49_4 H 0.5054 0.1601 0.7750
C88_4 C 0.7384(3) 0.2295(6) 0.7568(4)
H51_4 H 0.7460 0.1970 0.7398
C89_4 C 0.6579(3) 0.1077(7) 0.6873(5)
H52_4 H 0.6516 0.0721 0.7020
C92_4 C 0.5707(4) 0.5721(6) 0.6240(4)
H54_4 H 0.5422 0.5859 0.6300
C95_4 C 0.6802(3) 0.2116(6) 0.6465(5)
H57_4 H 0.6876 0.2474 0.6324
C96_4 C 0.5969(4) 0.6049(5) 0.5972(3)
C97_4 C 0.6587(3) 0.1052(7) 0.6452(5)
C98_4 C 0.4845(3) 0.3968(6) 0.7064(3)
H58_4 H 0.4767 0.4289 0.7236
C99_4 C 0.6171(3) 0.3896(6) 0.6570(3)
H59_4 H 0.5882 0.3925 0.6475
C101_4 C 0.6992(4) 0.3273(6) 0.7696(4)
H61_4 H 0.6804 0.3592 0.7614
C102_4 C 0.7193(4) 0.3289(6) 0.8063(4)
H62_4 H 0.7126 0.3618 0.8233
C103_4 C 0.4587(4) 0.1122(7) 0.6602(3)
H63_4 H 0.4307 0.1063 0.6492
C104_4 C 0.6563(6) 0.2410(5) 0.9872(3)
C106_4 C 0.7675(4) 0.3157(6) 0.9277(4)
H65_4 H 0.7539 0.3393 0.9475
C107_4 C 0.5316(4) 0.0792(6) 0.6748(3)
H66_4 H 0.5537 0.0491 0.6735
C108_4 C 0.5430(4) 0.1871(6) 0.8176(4)
H67_4 H 0.5311 0.1590 0.8357
C110_4 C 0.6321(8) 0.0598(11) 0.5830(6)
H69_4 H 0.6294 0.0974 0.5695
C111_4 C 0.4427(4) 0.5808(7) 0.6146(4)
C112_4 C 0.7510(4) 0.3183(6) 0.8913(4)
H70_4 H 0.7266 0.3436 0.8867
C113_4 C 0.5726(3) 0.2191(6) 0.9035(4)
H71_4 H 0.5423 0.2124 0.9005
C114_4 C 0.4253(5) 0.6475(6) 0.5949(6)
C115_4 C 0.5783(5) 0.6665(6) 0.5750(4)
C15_4 C 0.4585(4) 0.8864(5) 0.6062(3)
C22_4 C 0.6303(6) 0.9387(12) 0.5834(10)
C41_4 C 0.4466(4) 0.8238(6) 0.5900(3)
C47_4 C 0.5107(3) 0.9618(7) 0.6218(4)
H17_4 H 0.5401 0.9746 0.6217
C76_4 C 0.4343(3) 0.9789(7) 0.6363(3)
C85_4 C 0.4263(3) 0.9225(5) 0.6210(4)
H48_4 H 0.3973 0.9078 0.6207
C91_4 C 0.4994(4) 0.9081(5) 0.6063(3)
H53_4 H 0.5215 0.8839 0.5946
C100_4 C 0.6500(4) 0.9943(9) 0.6414(5)
H60_4 H 0.6597 0.9943 0.6678
C105_4 C 0.6219(6) 0.992(2) 0.5679(7)
H64_4 H 0.6072 0.9904 0.5436
C116_4 C 0.6396(5) 0.9349(9) 0.6230(6)
H72_4 H 0.6393 0.8976 0.6370
C117_4 C 0.6131(8) 0.8661(15) 0.5576(4)
loop_
_geom_bond_atom_site_label_1
_geom_bond_atom_site_label_2
_geom_bond_site_symmetry_1
_geom_bond_site_symmetry_2
O22 Zn2 1_555 1_555
O27 Zn2 1_555 1_555
O11 C114 1_555 1_555
O27 C114 1_555 1_555
C31 H10 1_555 1_555
C64 H29 1_555 1_555
H31 C67 1_555 1_555
C111 C31 1_555 1_555
C114 C111 1_555 1_555
Zn12 O11 1_555 1_555
O27 Zn12 1_555 1_555
C64 C67 1_555 1_555
C64 C111 1_555 1_555
O22 C41 1_555 1_555
O8 C41 1_555 1_555
C11 H2 1_555 1_555
C15 C41 1_555 1_555
C18 C37 1_555 1_555
C37 C103 1_555 1_555
H14 C39 1_555 1_555
H16 C45 1_555 1_555
C46 C39 1_555 1_555
H24 C54 1_555 1_555
C58 C11 1_555 1_555
C76 C18 1_555 1_555
H39 C76 1_555 1_555
C85 C15 1_555 1_555
H48 C85 1_555 1_555
C91 C15 1_555 1_555
C98 C54 1_555 1_555
H58 C98 1_555 1_555
C103 C45 1_555 1_555
H63 C103 1_555 1_555
Zn12 O8 1_555 1_555
C46 C58 1_555 1_555
C58 C98 1_555 1_555
C76 C85 1_555 1_555
Zn1 O3 1_555 1_555
O24 Zn1 1_555 1_555
O29 Zn1 1_555 1_555
O30 Zn1 1_555 1_555
O1 C61 1_555 1_555
O2 C61 1_555 1_555
O24 C115 1_555 1_555
O25 C115 1_555 1_555
N2 C2 1_555 1_555
C2 C27 1_555 1_555
C3 N2 1_555 1_555
C4 N2 1_555 1_555
C5 C3 1_555 1_555
H1 C5 1_555 1_555
C8 C10 1_555 1_555
C10 C25 1_555 1_555
C13 H3 1_555 1_555
C17 C29 1_555 1_555
C20 C4 1_555 1_555
H4 C20 1_555 1_555
C23 C44 1_555 1_555
C25 H7 1_555 1_555
C27 H8 1_555 1_555
C29 C57 1_555 1_555
C38 H13 1_555 1_555
C42 C69 1_555 1_555
C43 C53 1_555 1_555
C44 H15 1_555 1_555
C48 C23 1_555 1_555
H18 C48 1_555 1_555
C50 H20 1_555 1_555
C52 C17 1_555 1_555
H22 C52 1_555 1_555
C53 H23 1_555 1_555
C56 C5 1_555 1_555
H26 C56 1_555 1_555
C57 C13 1_555 1_555
H27 C57 1_555 1_555
C61 C23 1_555 1_555
C62 C17 1_555 1_555
H28 C62 1_555 1_555
C63 C38 1_555 1_555
C66 C8 1_555 1_555
H30 C66 1_555 1_555
C68 C3 1_555 1_555
H32 C68 1_555 1_555
C69 C50 1_555 1_555
H33 C69 1_555 1_555
H37 C73 1_555 1_555
C75 C8 1_555 1_555
H38 C75 1_555 1_555
C78 C10 1_555 1_555
H41 C78 1_555 1_555
C79 C4 1_555 1_555
H42 C79 1_555 1_555
C81 C42 1_555 1_555
H44 C81 1_555 1_555
C90 C9 1_555 1_555
C92 C81 1_555 1_555
H54 C92 1_555 1_555
C93 C2 1_555 1_555
H55 C93 1_555 1_555
C94 C90 1_555 1_555
H56 C94 1_555 1_555
C96 C50 1_555 1_555
C109 C29 1_555 1_555
H68 C109 1_555 1_555
C115 C96 1_555 1_555
Zn10 O2 1_555 1_555
Zn13 O1 1_555 1_555
C13 C90 1_555 1_555
C20 C52 1_555 1_555
C25 C48 1_555 1_555
C27 C75 1_555 1_555
C43 C56 1_555 1_555
C43 C63 1_555 1_555
C44 C78 1_555 1_555
C53 C68 1_555 1_555
C62 C79 1_555 1_555
C63 C73 1_555 1_555
C66 C93 1_555 1_555
C92 C96 1_555 1_555
C94 C109 1_555 1_555
Zn10 O13 1_555 1_555
Zn13 O6 1_555 1_555
O5 C59 1_555 1_555
O6 C59 1_555 1_555
O13 C104 1_555 1_555
O14 Zn13 1_555 1_555
O15 Zn13 1_555 1_555
O16 Zn10 1_555 1_555
N1 C1 1_555 1_555
N3 C6 1_555 1_555
C1 C71 1_555 1_555
C6 C30 1_555 1_555
C7 N1 1_555 1_555
C12 N3 1_555 1_555
C16 C35 1_555 1_555
C19 C28 1_555 1_555
C21 H5 1_555 1_555
C22 C105 1_555 1_555
C24 H6 1_555 1_555
C26 N1 1_555 1_555
C28 C77 1_555 1_555
H9 C30 1_555 1_555
C32 N3 1_555 1_555
C33 H11 1_555 1_555
C34 H12 1_555 1_555
C35 C83 1_555 1_555
C36 C24 1_555 1_555
C40 C33 1_555 1_555
H17 C47 1_555 1_555
C49 C12 1_555 1_555
H19 C49 1_555 1_555
C51 C7 1_555 1_555
H21 C51 1_555 1_555
C55 C7 1_555 1_555
H25 C55 1_555 1_555
C59 C36 1_555 1_555
C60 O15 1_555 1_555
C65 C97 1_555 1_555
C70 H34 1_555 1_555
C71 H35 1_555 1_555
C72 C19 1_555 1_555
H36 C72 1_555 1_555
C74 C21 1_555 1_555
C77 H40 1_555 1_555
C80 C16 1_555 1_555
H43 C80 1_555 1_555
C82 C32 1_555 1_555
H45 C82 1_555 1_555
C83 C82 1_555 1_555
H46 C83 1_555 1_555
C84 C14 1_555 1_555
H47 C84 1_555 1_555
C86 C32 1_555 1_555
H49 C86 1_555 1_555
H50 C87 1_555 1_555
C88 C26 1_555 1_555
H51 C88 1_555 1_555
C89 C71 1_555 1_555
H52 C89 1_555 1_555
C95 C1 1_555 1_555
H57 C95 1_555 1_555
C97 C70 1_555 1_555
C99 C14 1_555 1_555
H59 C99 1_555 1_555
C100 C65 1_555 1_555
H60 C100 1_555 1_555
C101 C26 1_555 1_555
H61 C101 1_555 1_555
C102 C28 1_555 1_555
H62 C102 1_555 1_555
C104 O14 1_555 1_555
C105 H64 1_555 1_555
C106 C36 1_555 1_555
H65 C106 1_555 1_555
H66 C107 1_555 1_555
C108 C35 1_555 1_555
H67 C108 1_555 1_555
C110 C65 1_555 1_555
H69 C110 1_555 1_555
C112 C19 1_555 1_555
H70 C112 1_555 1_555
C113 C16 1_555 1_555
H71 C113 1_555 1_555
C116 C22 1_555 1_555
H72 C116 1_555 1_555
O29 C117 1_555 1_555
O30 C117 1_555 1_555
C117 C22 1_555 1_555
Zn7 O5 1_555 1_555
O23 Zn10 1_555 1_555
O26 Zn10 1_555 1_555
O28 Zn10 1_555 1_555
O16 C60 1_555 1_555
C21 C80 1_555 1_555
C24 C72 1_555 1_555
C34 C74 1_555 1_555
C34 C113 1_555 1_555
C40 C60 1_555 1_555
C40 C87 1_555 1_555
C49 C107 1_555 1_555
C51 C84 1_555 1_555
C55 C99 1_555 1_555
C70 C95 1_555 1_555
C74 C104 1_555 1_555
C77 C88 1_555 1_555
C86 C108 1_555 1_555
C89 C97 1_555 1_555
C100 C116 1_555 1_555
C101 C102 1_555 1_555
C105 C110 1_555 1_555
C106 C112 1_555 1_555
Zn12 O13_2 1_555 1_555
Zn4 O6_2 1_555 1_555
O15_2 Zn4 1_555 1_555
O16_2 Zn12 1_555 1_555
C33_2 H11_2 1_555 1_555
C40_2 C33_2 1_555 1_555
C60_2 O15_2 1_555 1_555
H50_2 C87_2 1_555 1_555
O19 Zn4 1_555 1_555
O20 Zn12 1_555 1_555
O16_2 C60_2 1_555 1_555
C40_2 C60_2 1_555 1_555
C40_2 C87_2 1_555 1_555
O5_2 C59_2 1_555 1_555
N1_2 C1_2 1_555 1_555
N3_2 C6_2 1_555 1_555
C1_2 C71_2 1_555 1_555
C6_2 C30_2 1_555 1_555
C7_2 N1_2 1_555 1_555
C12_2 N3_2 1_555 1_555
C16_2 C35_2 1_555 1_555
C19_2 C28_2 1_555 1_555
C21_2 H5_2 1_555 1_555
C22_2 C105_2 1_555 1_555
C24_2 H6_2 1_555 1_555
C26_2 N1_2 1_555 1_555
C28_2 C77_2 1_555 1_555
H9_2 C30_2 1_555 1_555
C32_2 N3_2 1_555 1_555
C34_2 H12_2 1_555 1_555
C35_2 C83_2 1_555 1_555
C36_2 C24_2 1_555 1_555
H17_2 C47_2 1_555 1_555
C49_2 C12_2 1_555 1_555
H19_2 C49_2 1_555 1_555
C51_2 C7_2 1_555 1_555
H21_2 C51_2 1_555 1_555
C55_2 C7_2 1_555 1_555
H25_2 C55_2 1_555 1_555
C59_2 C36_2 1_555 1_555
C65_2 C97_2 1_555 1_555
C70_2 H34_2 1_555 1_555
C71_2 H35_2 1_555 1_555
C72_2 C19_2 1_555 1_555
H36_2 C72_2 1_555 1_555
C74_2 C21_2 1_555 1_555
C77_2 H40_2 1_555 1_555
C80_2 C16_2 1_555 1_555
H43_2 C80_2 1_555 1_555
C82_2 C32_2 1_555 1_555
H45_2 C82_2 1_555 1_555
C83_2 C82_2 1_555 1_555
H46_2 C83_2 1_555 1_555
C84_2 C14_2 1_555 1_555
H47_2 C84_2 1_555 1_555
C86_2 C32_2 1_555 1_555
H49_2 C86_2 1_555 1_555
C88_2 C26_2 1_555 1_555
H51_2 C88_2 1_555 1_555
C89_2 C71_2 1_555 1_555
H52_2 C89_2 1_555 1_555
C95_2 C1_2 1_555 1_555
H57_2 C95_2 1_555 1_555
C97_2 C70_2 1_555 1_555
C99_2 C14_2 1_555 1_555
H59_2 C99_2 1_555 1_555
C100_2 C65_2 1_555 1_555
H60_2 C100_2 1_555 1_555
C101_2 C26_2 1_555 1_555
H61_2 C101_2 1_555 1_555
C102_2 C28_2 1_555 1_555
H62_2 C102_2 1_555 1_555
C104_2 O14_2 1_555 1_555
C105_2 H64_2 1_555 1_555
C106_2 C36_2 1_555 1_555
H65_2 C106_2 1_555 1_555
H66_2 C107_2 1_555 1_555
C108_2 C35_2 1_555 1_555
H67_2 C108_2 1_555 1_555
C110_2 C65_2 1_555 1_555
H69_2 C110_2 1_555 1_555
C112_2 C19_2 1_555 1_555
H70_2 C112_2 1_555 1_555
C113_2 C16_2 1_555 1_555
H71_2 C113_2 1_555 1_555
C116_2 C22_2 1_555 1_555
H72_2 C116_2 1_555 1_555
O17 C117_2 1_555 1_555
O18 C117_2 1_555 1_555
C117_2 C22_2 1_555 1_555
Zn5 O17 1_555 1_555
C21_2 C80_2 1_555 1_555
C24_2 C72_2 1_555 1_555
C34_2 C74_2 1_555 1_555
C34_2 C113_2 1_555 1_555
C49_2 C107_2 1_555 1_555
C51_2 C84_2 1_555 1_555
C55_2 C99_2 1_555 1_555
C70_2 C95_2 1_555 1_555
C74_2 C104_2 1_555 1_555
C77_2 C88_2 1_555 1_555
C86_2 C108_2 1_555 1_555
C89_2 C97_2 1_555 1_555
C100_2 C116_2 1_555 1_555
C101_2 C102_2 1_555 1_555
C105_2 C110_2 1_555 1_555
C106_2 C112_2 1_555 1_555
O18 Zn5 1_555 1_555
Zn5 O3_2 1_555 1_555
O19 C61_2 1_555 1_555
O20 C61_2 1_555 1_555
O3_2 C9_2 1_555 1_555
N2_2 C2_2 1_555 1_555
C2_2 C27_2 1_555 1_555
C3_2 N2_2 1_555 1_555
C4_2 N2_2 1_555 1_555
C5_2 C3_2 1_555 1_555
H1_2 C5_2 1_555 1_555
C8_2 C10_2 1_555 1_555
C10_2 C25_2 1_555 1_555
C13_2 H3_2 1_555 1_555
C17_2 C29_2 1_555 1_555
C20_2 C4_2 1_555 1_555
H4_2 C20_2 1_555 1_555
C23_2 C44_2 1_555 1_555
C25_2 H7_2 1_555 1_555
C27_2 H8_2 1_555 1_555
C29_2 C57_2 1_555 1_555
C38_2 H13_2 1_555 1_555
C43_2 C53_2 1_555 1_555
C44_2 H15_2 1_555 1_555
C48_2 C23_2 1_555 1_555
H18_2 C48_2 1_555 1_555
C52_2 C17_2 1_555 1_555
H22_2 C52_2 1_555 1_555
C53_2 H23_2 1_555 1_555
C56_2 C5_2 1_555 1_555
H26_2 C56_2 1_555 1_555
C57_2 C13_2 1_555 1_555
H27_2 C57_2 1_555 1_555
C61_2 C23_2 1_555 1_555
C62_2 C17_2 1_555 1_555
H28_2 C62_2 1_555 1_555
C63_2 C38_2 1_555 1_555
C66_2 C8_2 1_555 1_555
H30_2 C66_2 1_555 1_555
C68_2 C3_2 1_555 1_555
H32_2 C68_2 1_555 1_555
H37_2 C73_2 1_555 1_555
C75_2 C8_2 1_555 1_555
H38_2 C75_2 1_555 1_555
C78_2 C10_2 1_555 1_555
H41_2 C78_2 1_555 1_555
C79_2 C4_2 1_555 1_555
H42_2 C79_2 1_555 1_555
C90_2 C9_2 1_555 1_555
C93_2 C2_2 1_555 1_555
H55_2 C93_2 1_555 1_555
C94_2 C90_2 1_555 1_555
H56_2 C94_2 1_555 1_555
C109_2 C29_2 1_555 1_555
H68_2 C109_2 1_555 1_555
O21_2 Zn5 1_555 1_555
O24_2 Zn5 1_555 1_555
C13_2 C90_2 1_555 1_555
C20_2 C52_2 1_555 1_555
C25_2 C48_2 1_555 1_555
C27_2 C75_2 1_555 1_555
C43_2 C56_2 1_555 1_555
C43_2 C63_2 1_555 1_555
C44_2 C78_2 1_555 1_555
C53_2 C68_2 1_555 1_555
C62_2 C79_2 1_555 1_555
C63_2 C73_2 1_555 1_555
C66_2 C93_2 1_555 1_555
C94_2 C109_2 1_555 1_555
O24_2 C115_2 1_555 1_555
O25_2 C115_2 1_555 1_555
C42_2 C69_2 1_555 1_555
C50_2 H20_2 1_555 1_555
C69_2 C50_2 1_555 1_555
H33_2 C69_2 1_555 1_555
C81_2 C42_2 1_555 1_555
H44_2 C81_2 1_555 1_555
C92_2 C81_2 1_555 1_555
H54_2 C92_2 1_555 1_555
C96_2 C50_2 1_555 1_555
C115_2 C96_2 1_555 1_555
C92_2 C96_2 1_555 1_555
O7 C41_2 1_555 1_555
O23 C41_2 1_555 1_555
C11_2 H2_2 1_555 1_555
C15_2 C41_2 1_555 1_555
C18_2 C37_2 1_555 1_555
C37_2 C103_2 1_555 1_555
H14_2 C39_2 1_555 1_555
H16_2 C45_2 1_555 1_555
C46_2 C39_2 1_555 1_555
H24_2 C54_2 1_555 1_555
C58_2 C11_2 1_555 1_555
C76_2 C18_2 1_555 1_555
H39_2 C76_2 1_555 1_555
C85_2 C15_2 1_555 1_555
H48_2 C85_2 1_555 1_555
C91_2 C15_2 1_555 1_555
C98_2 C54_2 1_555 1_555
H58_2 C98_2 1_555 1_555
C103_2 C45_2 1_555 1_555
H63_2 C103_2 1_555 1_555
Zn8 O7 1_555 1_555
C46_2 C58_2 1_555 1_555
C58_2 C98_2 1_555 1_555
C76_2 C85_2 1_555 1_555
O4_2 Zn8 1_555 1_555
O28 Zn8 1_555 1_555
O26 C114_2 1_555 1_555
O28 C114_2 1_555 1_555
C31_2 H10_2 1_555 1_555
C64_2 H29_2 1_555 1_555
H31_2 C67_2 1_555 1_555
C111_2 C31_2 1_555 1_555
C114_2 C111_2 1_555 1_555
C64_2 C67_2 1_555 1_555
C64_2 C111_2 1_555 1_555
O7_2 C41_3 1_555 1_555
O8_2 C41_3 1_555 1_555
C15_3 C41_3 1_555 1_555
C22_3 C105_3 1_555 1_555
H17_3 C47_3 1_555 1_555
C85_3 C15_3 1_555 1_555
H48_3 C85_3 1_555 1_555
C91_3 C15_3 1_555 1_555
H53_3 C91_3 1_555 1_555
H60_3 C100_3 1_555 1_555
C105_3 H64_3 1_555 1_555
C116_3 C22_3 1_555 1_555
H72_3 C116_3 1_555 1_555
O17_2 C117_3 1_555 1_555
O18_2 C117_3 1_555 1_555
C117_3 C22_3 1_555 1_555
Zn7_2 O17_2 1_555 1_555
Zn8_2 O7_2 1_555 1_555
Zn11 O8_2 1_555 1_555
C47_3 C91_3 1_555 1_555
C76_3 C85_3 1_555 1_555
C100_3 C116_3 1_555 1_555
O18_2 Zn7_2 1_555 1_555
Zn7_2 O3_3 1_555 1_555
Zn8_2 O3_3 1_555 1_555
O24_3 Zn7_2 1_555 1_555
O25_3 Zn8_2 1_555 1_555
O27_2 Zn8_2 1_555 1_555
Zn3 O13_3 1_555 1_555
Zn4_2 O6_3 1_555 1_555
O21_2 C59_3 1_555 1_555
O6_3 C59_3 1_555 1_555
O24_3 C115_3 1_555 1_555
O25_3 C115_3 1_555 1_555
O11_2 C114_3 1_555 1_555
O27_2 C114_3 1_555 1_555
O13_3 C104_3 1_555 1_555
O14_3 Zn4_2 1_555 1_555
O15_3 Zn4_2 1_555 1_555
O16_3 Zn3 1_555 1_555
N1_3 C1_3 1_555 1_555
N2_3 C2_3 1_555 1_555
N3_3 C6_3 1_555 1_555
C1_3 C71_3 1_555 1_555
C2_3 C27_3 1_555 1_555
C3_3 N2_3 1_555 1_555
C4_3 N2_3 1_555 1_555
C5_3 C3_3 1_555 1_555
H1_3 C5_3 1_555 1_555
C6_3 C30_3 1_555 1_555
C7_3 N1_3 1_555 1_555
C9_3 O4_3 1_555 1_555
C11_3 H2_3 1_555 1_555
C12_3 N3_3 1_555 1_555
C13_3 H3_3 1_555 1_555
C14_3 C42_3 1_555 1_555
C16_3 C35_3 1_555 1_555
C17_3 C29_3 1_555 1_555
C18_3 C37_3 1_555 1_555
C19_3 C28_3 1_555 1_555
C20_3 C4_3 1_555 1_555
H4_3 C20_3 1_555 1_555
C21_3 H5_3 1_555 1_555
C24_3 H6_3 1_555 1_555
C26_3 N1_3 1_555 1_555
C27_3 H8_3 1_555 1_555
C28_3 C77_3 1_555 1_555
C29_3 C57_3 1_555 1_555
C30_3 C11_3 1_555 1_555
H9_3 C30_3 1_555 1_555
C31_3 H10_3 1_555 1_555
C32_3 N3_3 1_555 1_555
C33_3 H11_3 1_555 1_555
C34_3 H12_3 1_555 1_555
C35_3 C83_3 1_555 1_555
C36_3 C24_3 1_555 1_555
C37_3 C103_3 1_555 1_555
C38_3 H13_3 1_555 1_555
C39_3 C31_3 1_555 1_555
H14_3 C39_3 1_555 1_555
C40_3 C33_3 1_555 1_555
C42_3 C69_3 1_555 1_555
C43_3 C53_3 1_555 1_555
C45_3 C12_3 1_555 1_555
H16_3 C45_3 1_555 1_555
C46_3 C39_3 1_555 1_555
C49_3 C12_3 1_555 1_555
H19_3 C49_3 1_555 1_555
C50_3 H20_3 1_555 1_555
C51_3 C7_3 1_555 1_555
H21_3 C51_3 1_555 1_555
C52_3 C17_3 1_555 1_555
H22_3 C52_3 1_555 1_555
C53_3 H23_3 1_555 1_555
C54_3 C6_3 1_555 1_555
H24_3 C54_3 1_555 1_555
C55_3 C7_3 1_555 1_555
H25_3 C55_3 1_555 1_555
C56_3 C5_3 1_555 1_555
H26_3 C56_3 1_555 1_555
C57_3 C13_3 1_555 1_555
H27_3 C57_3 1_555 1_555
C58_3 C11_3 1_555 1_555
C59_3 C36_3 1_555 1_555
C60_3 O15_3 1_555 1_555
C62_3 C17_3 1_555 1_555
H28_3 C62_3 1_555 1_555
C63_3 C38_3 1_555 1_555
C64_3 H29_3 1_555 1_555
C65_3 C97_3 1_555 1_555
C66_3 C8_3 1_555 1_555
H30_3 C66_3 1_555 1_555
C67_3 C46_3 1_555 1_555
H31_3 C67_3 1_555 1_555
C68_3 C3_3 1_555 1_555
H32_3 C68_3 1_555 1_555
C69_3 C50_3 1_555 1_555
H33_3 C69_3 1_555 1_555
C70_3 H34_3 1_555 1_555
C71_3 H35_3 1_555 1_555
C72_3 C19_3 1_555 1_555
H36_3 C72_3 1_555 1_555
C73_3 C33_3 1_555 1_555
H37_3 C73_3 1_555 1_555
C74_3 C21_3 1_555 1_555
C75_3 C8_3 1_555 1_555
H38_3 C75_3 1_555 1_555
C77_3 H40_3 1_555 1_555
C79_3 C4_3 1_555 1_555
H42_3 C79_3 1_555 1_555
C80_3 C16_3 1_555 1_555
H43_3 C80_3 1_555 1_555
C81_3 C42_3 1_555 1_555
H44_3 C81_3 1_555 1_555
C82_3 C32_3 1_555 1_555
H45_3 C82_3 1_555 1_555
C83_3 C82_3 1_555 1_555
H46_3 C83_3 1_555 1_555
C84_3 C14_3 1_555 1_555
H47_3 C84_3 1_555 1_555
C86_3 C32_3 1_555 1_555
H49_3 C86_3 1_555 1_555
C87_3 C38_3 1_555 1_555
H50_3 C87_3 1_555 1_555
C88_3 C26_3 1_555 1_555
H51_3 C88_3 1_555 1_555
C89_3 C71_3 1_555 1_555
H52_3 C89_3 1_555 1_555
C90_3 C9_3 1_555 1_555
C92_3 C81_3 1_555 1_555
H54_3 C92_3 1_555 1_555
C93_3 C2_3 1_555 1_555
H55_3 C93_3 1_555 1_555
C94_3 C90_3 1_555 1_555
H56_3 C94_3 1_555 1_555
C95_3 C1_3 1_555 1_555
H57_3 C95_3 1_555 1_555
C96_3 C50_3 1_555 1_555
C97_3 C70_3 1_555 1_555
C98_3 C54_3 1_555 1_555
H58_3 C98_3 1_555 1_555
C99_3 C14_3 1_555 1_555
H59_3 C99_3 1_555 1_555
C101_3 C26_3 1_555 1_555
H61_3 C101_3 1_555 1_555
C102_3 C28_3 1_555 1_555
H62_3 C102_3 1_555 1_555
C103_3 C45_3 1_555 1_555
H63_3 C103_3 1_555 1_555
C104_3 O14_3 1_555 1_555
C106_3 C36_3 1_555 1_555
H65_3 C106_3 1_555 1_555
C107_3 C37_3 1_555 1_555
H66_3 C107_3 1_555 1_555
C108_3 C35_3 1_555 1_555
H67_3 C108_3 1_555 1_555
C109_3 C29_3 1_555 1_555
H68_3 C109_3 1_555 1_555
C110_3 C65_3 1_555 1_555
H69_3 C110_3 1_555 1_555
C111_3 C31_3 1_555 1_555
C112_3 C19_3 1_555 1_555
H70_3 C112_3 1_555 1_555
C113_3 C16_3 1_555 1_555
H71_3 C113_3 1_555 1_555
C114_3 C111_3 1_555 1_555
C115_3 C96_3 1_555 1_555
Zn11 O11_2 1_555 1_555
O19_2 Zn4_2 1_555 1_555
O20_2 Zn3 1_555 1_555
O23_2 Zn3 1_555 1_555
O26_2 Zn3 1_555 1_555
O28_2 Zn3 1_555 1_555
O27_2 Zn11 1_555 1_555
O16_3 C60_3 1_555 1_555
C13_3 C90_3 1_555 1_555
C20_3 C52_3 1_555 1_555
C21_3 C80_3 1_555 1_555
C24_3 C72_3 1_555 1_555
C27_3 C75_3 1_555 1_555
C34_3 C74_3 1_555 1_555
C34_3 C113_3 1_555 1_555
C40_3 C60_3 1_555 1_555
C40_3 C87_3 1_555 1_555
C43_3 C56_3 1_555 1_555
C43_3 C63_3 1_555 1_555
C46_3 C58_3 1_555 1_555
C49_3 C107_3 1_555 1_555
C51_3 C84_3 1_555 1_555
C53_3 C68_3 1_555 1_555
C55_3 C99_3 1_555 1_555
C58_3 C98_3 1_555 1_555
C62_3 C79_3 1_555 1_555
C63_3 C73_3 1_555 1_555
C64_3 C67_3 1_555 1_555
C64_3 C111_3 1_555 1_555
C66_3 C93_3 1_555 1_555
C70_3 C95_3 1_555 1_555
C74_3 C104_3 1_555 1_555
C77_3 C88_3 1_555 1_555
C86_3 C108_3 1_555 1_555
C89_3 C97_3 1_555 1_555
C92_3 C96_3 1_555 1_555
C94_3 C109_3 1_555 1_555
C101_3 C102_3 1_555 1_555
C106_3 C112_3 1_555 1_555
O19_2 C61_3 1_555 1_555
O20_2 C61_3 1_555 1_555
C10_3 C25_3 1_555 1_555
C23_3 C44_3 1_555 1_555
C25_3 H7_3 1_555 1_555
C44_3 H15_3 1_555 1_555
C48_3 C23_3 1_555 1_555
H18_3 C48_3 1_555 1_555
C61_3 C23_3 1_555 1_555
C78_3 C10_3 1_555 1_555
C25_3 C48_3 1_555 1_555
C44_3 C78_3 1_555 1_555
O1_2 C61_4 1_555 1_555
O2_2 C61_4 1_555 1_555
C10_4 C25_4 1_555 1_555
C23_4 C44_4 1_555 1_555
C25_4 H7_4 1_555 1_555
C44_4 H15_4 1_555 1_555
C48_4 C23_4 1_555 1_555
H18_4 C48_4 1_555 1_555
C61_4 C23_4 1_555 1_555
C78_4 C10_4 1_555 1_555
Zn11 O2_2 1_555 1_555
Zn13_2 O1_2 1_555 1_555
C25_4 C48_4 1_555 1_555
C44_4 C78_4 1_555 1_555
Zn7 O3_4 1_555 1_555
Zn2_2 O3_4 1_555 1_555
Zn11 O13_4 1_555 1_555
Zn13_2 O6_4 1_555 1_555
O3_4 C9_4 1_555 1_555
O4_4 Zn2_2 1_555 1_555
O15_4 Zn13_2 1_555 1_555
O16_4 Zn11 1_555 1_555
N2_4 C2_4 1_555 1_555
C2_4 C27_4 1_555 1_555
C3_4 N2_4 1_555 1_555
C4_4 N2_4 1_555 1_555
C5_4 C3_4 1_555 1_555
H1_4 C5_4 1_555 1_555
C9_4 O4_4 1_555 1_555
C13_4 H3_4 1_555 1_555
C17_4 C29_4 1_555 1_555
C20_4 C4_4 1_555 1_555
H4_4 C20_4 1_555 1_555
C27_4 H8_4 1_555 1_555
C29_4 C57_4 1_555 1_555
C33_4 H11_4 1_555 1_555
C38_4 H13_4 1_555 1_555
C40_4 C33_4 1_555 1_555
C43_4 C53_4 1_555 1_555
C52_4 C17_4 1_555 1_555
H22_4 C52_4 1_555 1_555
C53_4 H23_4 1_555 1_555
C56_4 C5_4 1_555 1_555
H26_4 C56_4 1_555 1_555
C57_4 C13_4 1_555 1_555
H27_4 C57_4 1_555 1_555
C60_4 O15_4 1_555 1_555
C62_4 C17_4 1_555 1_555
H28_4 C62_4 1_555 1_555
C63_4 C38_4 1_555 1_555
C66_4 C8_4 1_555 1_555
H30_4 C66_4 1_555 1_555
C68_4 C3_4 1_555 1_555
H32_4 C68_4 1_555 1_555
C73_4 C33_4 1_555 1_555
H37_4 C73_4 1_555 1_555
C75_4 C8_4 1_555 1_555
H38_4 C75_4 1_555 1_555
C79_4 C4_4 1_555 1_555
H42_4 C79_4 1_555 1_555
C87_4 C38_4 1_555 1_555
H50_4 C87_4 1_555 1_555
C90_4 C9_4 1_555 1_555
C93_4 C2_4 1_555 1_555
H55_4 C93_4 1_555 1_555
C94_4 C90_4 1_555 1_555
H56_4 C94_4 1_555 1_555
C109_4 C29_4 1_555 1_555
H68_4 C109_4 1_555 1_555
O22_2 Zn2_2 1_555 1_555
O24_4 Zn7 1_555 1_555
O25_4 Zn2_2 1_555 1_555
O28_2 Zn2_2 1_555 1_555
O29_2 Zn7 1_555 1_555
O30_2 Zn7 1_555 1_555
O16_4 C60_4 1_555 1_555
C13_4 C90_4 1_555 1_555
C20_4 C52_4 1_555 1_555
C27_4 C75_4 1_555 1_555
C40_4 C60_4 1_555 1_555
C40_4 C87_4 1_555 1_555
C43_4 C56_4 1_555 1_555
C43_4 C63_4 1_555 1_555
C53_4 C68_4 1_555 1_555
C62_4 C79_4 1_555 1_555
C63_4 C73_4 1_555 1_555
C66_4 C93_4 1_555 1_555
C94_4 C109_4 1_555 1_555
O21 C59_4 1_555 1_555
O24_4 C115_4 1_555 1_555
O25_4 C115_4 1_555 1_555
O26_2 C114_4 1_555 1_555
O28_2 C114_4 1_555 1_555
N1_4 C1_4 1_555 1_555
N3_4 C6_4 1_555 1_555
C1_4 C71_4 1_555 1_555
C6_4 C30_4 1_555 1_555
C7_4 N1_4 1_555 1_555
C11_4 H2_4 1_555 1_555
C12_4 N3_4 1_555 1_555
C14_4 C42_4 1_555 1_555
C16_4 C35_4 1_555 1_555
C18_4 C37_4 1_555 1_555
C19_4 C28_4 1_555 1_555
C21_4 H5_4 1_555 1_555
C24_4 H6_4 1_555 1_555
C26_4 N1_4 1_555 1_555
C28_4 C77_4 1_555 1_555
C30_4 C11_4 1_555 1_555
H9_4 C30_4 1_555 1_555
C31_4 H10_4 1_555 1_555
C32_4 N3_4 1_555 1_555
C34_4 H12_4 1_555 1_555
C35_4 C83_4 1_555 1_555
C36_4 C24_4 1_555 1_555
C37_4 C103_4 1_555 1_555
C39_4 C31_4 1_555 1_555
H14_4 C39_4 1_555 1_555
C42_4 C69_4 1_555 1_555
C45_4 C12_4 1_555 1_555
H16_4 C45_4 1_555 1_555
C46_4 C39_4 1_555 1_555
C49_4 C12_4 1_555 1_555
H19_4 C49_4 1_555 1_555
C50_4 H20_4 1_555 1_555
C51_4 C7_4 1_555 1_555
H21_4 C51_4 1_555 1_555
C54_4 C6_4 1_555 1_555
H24_4 C54_4 1_555 1_555
C55_4 C7_4 1_555 1_555
H25_4 C55_4 1_555 1_555
C58_4 C11_4 1_555 1_555
C59_4 C36_4 1_555 1_555
C64_4 H29_4 1_555 1_555
C65_4 C97_4 1_555 1_555
C67_4 C46_4 1_555 1_555
H31_4 C67_4 1_555 1_555
C69_4 C50_4 1_555 1_555
H33_4 C69_4 1_555 1_555
C70_4 H34_4 1_555 1_555
C71_4 H35_4 1_555 1_555
C72_4 C19_4 1_555 1_555
H36_4 C72_4 1_555 1_555
C74_4 C21_4 1_555 1_555
C77_4 H40_4 1_555 1_555
C80_4 C16_4 1_555 1_555
H43_4 C80_4 1_555 1_555
C81_4 C42_4 1_555 1_555
H44_4 C81_4 1_555 1_555
C82_4 C32_4 1_555 1_555
H45_4 C82_4 1_555 1_555
C83_4 C82_4 1_555 1_555
H46_4 C83_4 1_555 1_555
C84_4 C14_4 1_555 1_555
H47_4 C84_4 1_555 1_555
C86_4 C32_4 1_555 1_555
H49_4 C86_4 1_555 1_555
C88_4 C26_4 1_555 1_555
H51_4 C88_4 1_555 1_555
C89_4 C71_4 1_555 1_555
H52_4 C89_4 1_555 1_555
C92_4 C81_4 1_555 1_555
H54_4 C92_4 1_555 1_555
C95_4 C1_4 1_555 1_555
H57_4 C95_4 1_555 1_555
C96_4 C50_4 1_555 1_555
C97_4 C70_4 1_555 1_555
C98_4 C54_4 1_555 1_555
H58_4 C98_4 1_555 1_555
C99_4 C14_4 1_555 1_555
H59_4 C99_4 1_555 1_555
C101_4 C26_4 1_555 1_555
H61_4 C101_4 1_555 1_555
C102_4 C28_4 1_555 1_555
H62_4 C102_4 1_555 1_555
C103_4 C45_4 1_555 1_555
H63_4 C103_4 1_555 1_555
C104_4 O14_4 1_555 1_555
C106_4 C36_4 1_555 1_555
H65_4 C106_4 1_555 1_555
C107_4 C37_4 1_555 1_555
H66_4 C107_4 1_555 1_555
C108_4 C35_4 1_555 1_555
H67_4 C108_4 1_555 1_555
C110_4 C65_4 1_555 1_555
H69_4 C110_4 1_555 1_555
C111_4 C31_4 1_555 1_555
C112_4 C19_4 1_555 1_555
H70_4 C112_4 1_555 1_555
C113_4 C16_4 1_555 1_555
H71_4 C113_4 1_555 1_555
C114_4 C111_4 1_555 1_555
C115_4 C96_4 1_555 1_555
C21_4 C80_4 1_555 1_555
C24_4 C72_4 1_555 1_555
C34_4 C74_4 1_555 1_555
C34_4 C113_4 1_555 1_555
C46_4 C58_4 1_555 1_555
C49_4 C107_4 1_555 1_555
C51_4 C84_4 1_555 1_555
C55_4 C99_4 1_555 1_555
C58_4 C98_4 1_555 1_555
C64_4 C67_4 1_555 1_555
C64_4 C111_4 1_555 1_555
C70_4 C95_4 1_555 1_555
C74_4 C104_4 1_555 1_555
C77_4 C88_4 1_555 1_555
C86_4 C108_4 1_555 1_555
C89_4 C97_4 1_555 1_555
C92_4 C96_4 1_555 1_555
C101_4 C102_4 1_555 1_555
C106_4 C112_4 1_555 1_555
O22_2 C41_4 1_555 1_555
O23_2 C41_4 1_555 1_555
C15_4 C41_4 1_555 1_555
C22_4 C105_4 1_555 1_555
H17_4 C47_4 1_555 1_555
C85_4 C15_4 1_555 1_555
H48_4 C85_4 1_555 1_555
C91_4 C15_4 1_555 1_555
H53_4 C91_4 1_555 1_555
H60_4 C100_4 1_555 1_555
C105_4 H64_4 1_555 1_555
C116_4 C22_4 1_555 1_555
H72_4 C116_4 1_555 1_555
O29_2 C117_4 1_555 1_555
O30_2 C117_4 1_555 1_555
C117_4 C22_4 1_555 1_555
C47_4 C91_4 1_555 1_555
C76_4 C85_4 1_555 1_555
C100_4 C116_4 1_555 1_555

#END
