
###############################################################################
#
# This file contains modified crystal structure data generated from the
# MOF subset of the Cambridge Structural Database (CSD) v543 
# hosted by the Cambridge Crystallographic Data Centre (CCDC).
#
# This work is licensed under the Creative Commons
# Attribution-NonCommercial-ShareAlike 4.0 International License.
# To view a copy of this license, visit
# http://creativecommons.org/licenses/by-nc-sa/4.0/
# or send a letter to
# Creative Commons, PO Box 1866, Mountain View, CA 94042, USA.
#
# CIF created using the CSD Python API on 29 September 2022
# The structure has been converted into the P1 space group
# The structure has a 3D framework
# The original CSD entry CESQUP is in the orthorhombic crystal system
# The framework has been calculated to contain at least 10.0% void space
# The void calculation uses a probe of radius 1.32A, grid spacing 0.4
#
###############################################################################

data_CESQUP
_chemical_formula_moiety         '(C168 H104 O52 P8 Zn8)n'
_symmetry_cell_setting           triclinic
_symmetry_space_group_name_H-M   'P 1'
_symmetry_Int_Tables_number      1
_space_group_name_Hall           'P 1'
loop_
_symmetry_equiv_pos_site_id
_symmetry_equiv_pos_as_xyz
1 x,y,z
_cell_length_a                   16.293(3)
_cell_length_b                   23.545(5)
_cell_length_c                   14.589(3)
_cell_angle_alpha                90
_cell_angle_beta                 90
_cell_angle_gamma                90
_cell_volume                     5596.61
loop_
_atom_site_label
_atom_site_type_symbol
_atom_site_fract_x
_atom_site_fract_y
_atom_site_fract_z
Zn4 Zn 0.06782(2) 0.35331(2) 0.68408(2)
O8 O 0.01583(12) 0.59797(9) 0.38318(14)
Zn1 Zn 0.93218(2) 0.64669(2) 0.31592(2)
P1 P 0.76366(4) 0.61069(3) 0.42379(5)
O1 O 0.83291(12) 0.64747(8) 0.39107(14)
O2 O 0.54184(19) 0.47279(13) 0.1034(2)
H1 H 0.5154 0.4652 0.0555
O3 O 0.5460(2) 0.55857(14) 0.0394(2)
O4 O 0.98417(12) 0.40203(9) 0.61682(14)
O5 O 0.90218(13) 0.42172(9) 0.73574(14)
O6 O 0.48978(13) 0.78379(9) 0.63028(17)
O7 O 0.60413(14) 0.80227(9) 0.71051(15)
C1 C 0.70362(17) 0.58306(13) 0.33031(19)
C2 C 0.6686(2) 0.52952(15) 0.3321(2)
H2 H 0.6759 0.5057 0.3840
C3 C 0.6230(2) 0.51089(15) 0.2580(2)
H3 H 0.5996 0.4739 0.2588
C4 C 0.6113(2) 0.54582(16) 0.1827(2)
C5 C 0.5632(2) 0.52497(17) 0.1023(3)
C6 C 0.6458(3) 0.59878(18) 0.1813(3)
H4 H 0.6377 0.6227 0.1296
C7 C 0.6923(3) 0.61795(16) 0.2540(3)
H5 H 0.7165 0.6547 0.2521
C8 C 0.80161(17) 0.55267(12) 0.49109(19)
C9 C 0.85997(18) 0.51694(13) 0.4510(2)
H6 H 0.8732 0.5208 0.3878
C10 C 0.89838(19) 0.47601(13) 0.5036(2)
H7 H 0.9377 0.4515 0.4763
C11 C 0.88006(17) 0.47032(13) 0.5965(2)
C12 C 0.92558(17) 0.42793(12) 0.6544(2)
C13 C 0.8196(2) 0.50465(15) 0.6351(2)
H8 H 0.8051 0.4997 0.6977
C14 C 0.78069(19) 0.54580(14) 0.5834(2)
H9 H 0.7399 0.5693 0.6104
C15 C 0.69920(17) 0.65446(12) 0.4935(2)
C16 C 0.61459(19) 0.65605(14) 0.4861(3)
H10 H 0.5867 0.6307 0.4462
C17 C 0.57064(19) 0.69546(16) 0.5383(3)
H11 H 0.5125 0.6968 0.5337
C18 C 0.61067(18) 0.73228(13) 0.5959(2)
C19 C 0.56421(19) 0.77638(13) 0.6501(2)
C20 C 0.6950(2) 0.72937(17) 0.6039(3)
H12 H 0.7229 0.7540 0.6449
C21 C 0.7384(2) 0.69108(17) 0.5528(3)
H13 H 0.7965 0.6897 0.5583
Zn2 Zn 0.56782(2) 0.85331(2) 0.81592(2)
Zn3 Zn 0.43218(2) 0.85331(2) 0.68408(2)
Zn5 Zn 0.93218(2) 0.35331(2) 0.81592(2)
O9 O 0.90218(13) 0.57828(9) 0.23574(14)
O10 O 0.98978(13) 0.71621(9) 0.36972(17)
O11 O 0.89587(14) 0.69773(9) 0.21051(15)
O6_2 O 0.01022(13) 0.71621(9) 0.13028(17)
Zn3_2 Zn 0.06782(2) 0.64669(2) 0.18408(2)
O4_2 O 0.51583(12) 0.09797(9) 0.11682(14)
O5_2 O 0.59782(13) 0.07828(9) 0.23574(14)
C10_2 C 0.60162(19) 0.02399(13) 0.0036(2)
C11_2 C 0.61994(17) 0.02968(13) 0.0965(2)
C12_2 C 0.57442(17) 0.07207(12) 0.1544(2)
H8_2 H 0.6949 0.0003 0.1977
Zn4_2 Zn 0.43218(2) 0.14669(2) 0.18408(2)
Zn5_2 Zn 0.56782(2) 0.14669(2) 0.31592(2)
C13_2 C 0.6804(2) 0.99535(15) 0.1351(2)
C14_2 C 0.71931(19) 0.95420(14) 0.0834(2)
H9_2 H 0.7601 0.9307 0.1104
C17_2 C 0.92936(19) 0.80454(16) 0.0383(3)
H11_2 H 0.9875 0.8032 0.0337
C18_2 C 0.88933(18) 0.76772(13) 0.0959(2)
C19_2 C 0.93579(19) 0.72362(13) 0.1501(2)
C20_2 C 0.8050(2) 0.77063(17) 0.1039(3)
H12_2 H 0.7771 0.7460 0.1449
C21_2 C 0.7616(2) 0.80892(17) 0.0528(3)
H13_2 H 0.7035 0.8103 0.0583
P1_2 P 0.73634(4) 0.88931(3) 0.92379(5)
O1_2 O 0.66709(12) 0.85253(8) 0.89107(14)
O3_2 O 0.9540(2) 0.94143(14) 0.5394(2)
C1_2 C 0.79638(17) 0.91694(13) 0.83031(19)
C2_2 C 0.8314(2) 0.97048(15) 0.8321(2)
H2_2 H 0.8241 0.9943 0.8840
C3_2 C 0.8770(2) 0.98911(15) 0.7580(2)
C4_2 C 0.8887(2) 0.95418(16) 0.6827(2)
C5_2 C 0.9368(2) 0.97503(17) 0.6023(3)
C6_2 C 0.8542(3) 0.90122(18) 0.6813(3)
H4_2 H 0.8623 0.8773 0.6296
C7_2 C 0.8077(3) 0.88205(16) 0.7540(3)
H5_2 H 0.7835 0.8453 0.7521
C8_2 C 0.69839(17) 0.94733(12) 0.99109(19)
C9_2 C 0.64003(18) 0.98306(13) 0.9510(2)
H6_2 H 0.6268 0.9792 0.8878
C15_2 C 0.80080(17) 0.84554(12) 0.9935(2)
C16_2 C 0.88541(19) 0.84395(14) 0.9861(3)
H10_2 H 0.9133 0.8693 0.9462
O8_2 O 0.48417(12) 0.90203(9) 0.88318(14)
O9_2 O 0.59782(13) 0.92172(9) 0.73574(14)
O10_2 O 0.51022(13) 0.78379(9) 0.86972(17)
P1_3 P 0.23634(4) 0.61069(3) 0.07621(5)
O1_3 O 0.16709(12) 0.64747(8) 0.10893(14)
O2_2 O 0.45816(19) 0.47279(13) 0.3966(2)
H1_2 H 0.4846 0.4652 0.4445
O3_3 O 0.4540(2) 0.55857(14) 0.4606(2)
C1_3 C 0.29638(17) 0.58306(13) 0.16969(19)
C2_3 C 0.3314(2) 0.52952(15) 0.1679(2)
H2_3 H 0.3241 0.5057 0.1160
C3_3 C 0.3770(2) 0.51089(15) 0.2420(2)
H3_2 H 0.4004 0.4739 0.2412
C4_3 C 0.3887(2) 0.54582(16) 0.3173(2)
C5_3 C 0.4368(2) 0.52497(17) 0.3977(3)
C6_3 C 0.3542(3) 0.59878(18) 0.3187(3)
H4_3 H 0.3623 0.6227 0.3704
C7_3 C 0.3077(3) 0.61795(16) 0.2460(3)
H5_3 H 0.2835 0.6547 0.2479
C8_3 C 0.19839(17) 0.55267(12) 0.00891(19)
C9_3 C 0.14003(18) 0.51694(13) 0.0490(2)
H6_3 H 0.1268 0.5208 0.1122
H7_2 H 0.0623 0.4515 0.0237
C15_3 C 0.30080(17) 0.65446(12) 0.0065(2)
C16_3 C 0.38541(19) 0.65605(14) 0.0139(3)
H10_3 H 0.4133 0.6307 0.0538
O9_3 O 0.09782(13) 0.57828(9) 0.26426(14)
O11_2 O 0.10413(14) 0.69773(9) 0.28949(15)
O4_3 O 0.01583(12) 0.40203(9) 0.88318(14)
O5_3 O 0.09782(13) 0.42172(9) 0.76426(14)
O7_2 O 0.39587(14) 0.80227(9) 0.78949(15)
C10_3 C 0.10162(19) 0.47601(13) 0.9964(2)
C11_3 C 0.11994(17) 0.47032(13) 0.9035(2)
C12_3 C 0.07442(17) 0.42793(12) 0.8456(2)
C13_3 C 0.1804(2) 0.50465(15) 0.8649(2)
H8_3 H 0.1949 0.4997 0.8023
C14_3 C 0.21931(19) 0.54580(14) 0.9166(2)
H9_3 H 0.2601 0.5693 0.8896
C17_3 C 0.42936(19) 0.69546(16) 0.9617(3)
H11_3 H 0.4875 0.6968 0.9663
C18_3 C 0.38933(18) 0.73228(13) 0.9041(2)
C19_3 C 0.43579(19) 0.77638(13) 0.8499(2)
C20_3 C 0.3050(2) 0.72937(17) 0.8961(3)
H12_3 H 0.2771 0.7540 0.8551
C21_3 C 0.2616(2) 0.69108(17) 0.9472(3)
H13_3 H 0.2035 0.6897 0.9417
O8_3 O 0.98417(12) 0.59797(9) 0.11682(14)
O2_3 O 0.04184(19) 0.02721(13) 0.8966(2)
H1_3 H 0.0154 0.0348 0.9445
O4_4 O 0.48417(12) 0.09797(9) 0.38318(14)
O5_4 O 0.40218(13) 0.07828(9) 0.26426(14)
H3_3 H 0.0996 0.0261 0.7412
C10_4 C 0.39838(19) 0.02399(13) 0.4964(2)
H7_3 H 0.4377 0.0485 0.5237
C11_4 C 0.38006(17) 0.02968(13) 0.4035(2)
C12_4 C 0.42558(17) 0.07207(12) 0.3456(2)
H8_4 H 0.3051 0.0003 0.3023
P1_4 P 0.26366(4) 0.88931(3) 0.57621(5)
O1_4 O 0.33291(12) 0.85253(8) 0.60893(14)
O3_4 O 0.0460(2) 0.94143(14) 0.9606(2)
C1_4 C 0.20362(17) 0.91694(13) 0.66969(19)
C2_4 C 0.1686(2) 0.97048(15) 0.6679(2)
H2_4 H 0.1759 0.9943 0.6160
C3_4 C 0.1230(2) 0.98911(15) 0.7420(2)
C4_4 C 0.1113(2) 0.95418(16) 0.8173(2)
C5_4 C 0.0632(2) 0.97503(17) 0.8977(3)
C6_4 C 0.1458(3) 0.90122(18) 0.8187(3)
H4_4 H 0.1377 0.8773 0.8704
C7_4 C 0.1923(3) 0.88205(16) 0.7460(3)
H5_4 H 0.2165 0.8453 0.7479
C8_4 C 0.30161(17) 0.94733(12) 0.50891(19)
C9_4 C 0.35997(18) 0.98306(13) 0.5490(2)
H6_4 H 0.3732 0.9792 0.6122
C13_4 C 0.3196(2) 0.99535(15) 0.3649(2)
C14_4 C 0.28069(19) 0.95420(14) 0.4166(2)
H9_4 H 0.2399 0.9307 0.3896
C15_4 C 0.19920(17) 0.84554(12) 0.5065(2)
C16_4 C 0.11459(19) 0.84395(14) 0.5139(3)
H10_4 H 0.0867 0.8693 0.5538
C17_4 C 0.07064(19) 0.80454(16) 0.4617(3)
H11_4 H 0.0125 0.8032 0.4663
C18_4 C 0.11067(18) 0.76772(13) 0.4041(2)
C19_4 C 0.06421(19) 0.72362(13) 0.3499(2)
C20_4 C 0.1950(2) 0.77063(17) 0.3961(3)
H12_4 H 0.2229 0.7460 0.3551
C21_4 C 0.2384(2) 0.80892(17) 0.4472(3)
H13_4 H 0.2965 0.8103 0.4417
O8_4 O 0.51583(12) 0.90203(9) 0.61682(14)
O9_4 O 0.40218(13) 0.92172(9) 0.76426(14)
P1_5 P 0.23634(4) 0.38931(3) 0.57621(5)
O1_5 O 0.16709(12) 0.35253(8) 0.60893(14)
O2_4 O 0.45816(19) 0.52721(13) 0.8966(2)
H1_4 H 0.4846 0.5348 0.9445
O3_5 O 0.4540(2) 0.44143(14) 0.9606(2)
O6_3 O 0.51022(13) 0.21621(9) 0.36972(17)
O7_3 O 0.39587(14) 0.19773(9) 0.28949(15)
C1_5 C 0.29638(17) 0.41694(13) 0.66969(19)
C2_5 C 0.3314(2) 0.47048(15) 0.6679(2)
H2_5 H 0.3241 0.4943 0.6160
C3_5 C 0.3770(2) 0.48911(15) 0.7420(2)
H3_4 H 0.4004 0.5261 0.7412
C4_5 C 0.3887(2) 0.45418(16) 0.8173(2)
C5_5 C 0.4368(2) 0.47503(17) 0.8977(3)
C6_5 C 0.3542(3) 0.40122(18) 0.8187(3)
H4_5 H 0.3623 0.3773 0.8704
C7_5 C 0.3077(3) 0.38205(16) 0.7460(3)
H5_5 H 0.2835 0.3453 0.7479
C8_5 C 0.19839(17) 0.44733(12) 0.50891(19)
C9_5 C 0.14003(18) 0.48306(13) 0.5490(2)
H6_5 H 0.1268 0.4792 0.6122
C10_5 C 0.10162(19) 0.52399(13) 0.4964(2)
H7_4 H 0.0623 0.5485 0.5237
C11_5 C 0.11994(17) 0.52968(13) 0.4035(2)
C12_5 C 0.07442(17) 0.57207(12) 0.3456(2)
C13_5 C 0.1804(2) 0.49535(15) 0.3649(2)
H8_5 H 0.1949 0.5003 0.3023
C14_5 C 0.21931(19) 0.45420(14) 0.4166(2)
H9_5 H 0.2601 0.4307 0.3896
C15_5 C 0.30080(17) 0.34554(12) 0.5065(2)
C16_5 C 0.38541(19) 0.34395(14) 0.5139(3)
H10_5 H 0.4133 0.3693 0.5538
C17_5 C 0.42936(19) 0.30454(16) 0.4617(3)
H11_5 H 0.4875 0.3032 0.4663
C18_5 C 0.38933(18) 0.26772(13) 0.4041(2)
C19_5 C 0.43579(19) 0.22362(13) 0.3499(2)
C20_5 C 0.3050(2) 0.27063(17) 0.3961(3)
H12_5 H 0.2771 0.2460 0.3551
C21_5 C 0.2616(2) 0.30892(17) 0.4472(3)
H13_5 H 0.2035 0.3103 0.4417
O10_3 O 0.01022(13) 0.28379(9) 0.63028(17)
O11_3 O 0.10413(14) 0.30227(9) 0.78949(15)
P1_6 P 0.26366(4) 0.11069(3) 0.07621(5)
O1_6 O 0.33291(12) 0.14747(8) 0.10893(14)
O3_6 O 0.0460(2) 0.05857(14) 0.4606(2)
C1_6 C 0.20362(17) 0.08306(13) 0.16969(19)
C2_6 C 0.1686(2) 0.02952(15) 0.1679(2)
H2_6 H 0.1759 0.0057 0.1160
C3_6 C 0.1230(2) 0.01089(15) 0.2420(2)
C4_6 C 0.1113(2) 0.04582(16) 0.3173(2)
C5_6 C 0.0632(2) 0.02497(17) 0.3977(3)
C6_6 C 0.1458(3) 0.09878(18) 0.3187(3)
H4_6 H 0.1377 0.1227 0.3704
C7_6 C 0.1923(3) 0.11795(16) 0.2460(3)
H5_6 H 0.2165 0.1547 0.2479
C8_6 C 0.30161(17) 0.05267(12) 0.00891(19)
C9_6 C 0.35997(18) 0.01694(13) 0.0490(2)
H6_6 H 0.3732 0.0208 0.1122
C15_6 C 0.19920(17) 0.15446(12) 0.0065(2)
C16_6 C 0.11459(19) 0.15605(14) 0.0139(3)
H10_6 H 0.0867 0.1307 0.0538
O10_4 O 0.48978(13) 0.21621(9) 0.13028(17)
C13_6 C 0.3196(2) 0.00465(15) 0.8649(2)
C14_6 C 0.28069(19) 0.04580(14) 0.9166(2)
H9_6 H 0.2399 0.0693 0.8896
C17_6 C 0.07064(19) 0.19546(16) 0.9617(3)
H11_6 H 0.0125 0.1968 0.9663
C18_6 C 0.11067(18) 0.23228(13) 0.9041(2)
C19_6 C 0.06421(19) 0.27638(13) 0.8499(2)
C20_6 C 0.1950(2) 0.22937(17) 0.8961(3)
H12_6 H 0.2229 0.2540 0.8551
C21_6 C 0.2384(2) 0.19108(17) 0.9472(3)
H13_6 H 0.2965 0.1897 0.9417
C10_6 C 0.39838(19) 0.97601(13) 0.9964(2)
C11_6 C 0.38006(17) 0.97032(13) 0.9035(2)
C12_6 C 0.42558(17) 0.92793(12) 0.8456(2)
H8_6 H 0.3051 0.9997 0.8023
O6_4 O 0.98978(13) 0.28379(9) 0.86972(17)
O7_4 O 0.60413(14) 0.19773(9) 0.21051(15)
C10_7 C 0.89838(19) 0.52399(13) 0.0036(2)
C11_7 C 0.88006(17) 0.52968(13) 0.0965(2)
C12_7 C 0.92558(17) 0.57207(12) 0.1544(2)
C13_7 C 0.8196(2) 0.49535(15) 0.1351(2)
H8_7 H 0.8051 0.5003 0.1977
C14_7 C 0.78069(19) 0.45420(14) 0.0834(2)
H9_7 H 0.7399 0.4307 0.1104
C17_7 C 0.57064(19) 0.30454(16) 0.0383(3)
H11_7 H 0.5125 0.3032 0.0337
C18_7 C 0.61067(18) 0.26772(13) 0.0959(2)
C19_7 C 0.56421(19) 0.22362(13) 0.1501(2)
C20_7 C 0.6950(2) 0.27063(17) 0.1039(3)
H12_7 H 0.7229 0.2460 0.1449
C21_7 C 0.7384(2) 0.30892(17) 0.0528(3)
H13_7 H 0.7965 0.3103 0.0583
P1_7 P 0.76366(4) 0.38931(3) 0.92379(5)
O1_7 O 0.83291(12) 0.35253(8) 0.89107(14)
O2_5 O 0.54184(19) 0.52721(13) 0.6034(2)
H1_5 H 0.5154 0.5348 0.5555
O3_7 O 0.5460(2) 0.44143(14) 0.5394(2)
C1_7 C 0.70362(17) 0.41694(13) 0.83031(19)
C2_7 C 0.6686(2) 0.47048(15) 0.8321(2)
H2_7 H 0.6759 0.4943 0.8840
C3_7 C 0.6230(2) 0.48911(15) 0.7580(2)
H3_5 H 0.5996 0.5261 0.7588
C4_7 C 0.6113(2) 0.45418(16) 0.6827(2)
C5_7 C 0.5632(2) 0.47503(17) 0.6023(3)
C6_7 C 0.6458(3) 0.40122(18) 0.6813(3)
H4_7 H 0.6377 0.3773 0.6296
C7_7 C 0.6923(3) 0.38205(16) 0.7540(3)
H5_7 H 0.7165 0.3453 0.7521
C8_7 C 0.80161(17) 0.44733(12) 0.99109(19)
C9_7 C 0.85997(18) 0.48306(13) 0.9510(2)
H6_7 H 0.8732 0.4792 0.8878
H7_5 H 0.9377 0.5485 0.9763
C15_7 C 0.69920(17) 0.34554(12) 0.9935(2)
C16_7 C 0.61459(19) 0.34395(14) 0.9861(3)
H10_7 H 0.5867 0.3693 0.9462
O11_4 O 0.89587(14) 0.30227(9) 0.71051(15)
P1_8 P 0.73634(4) 0.11069(3) 0.42379(5)
O1_8 O 0.66709(12) 0.14747(8) 0.39107(14)
O3_8 O 0.9540(2) 0.05857(14) 0.0394(2)
C1_8 C 0.79638(17) 0.08306(13) 0.33031(19)
C2_8 C 0.8314(2) 0.02952(15) 0.3321(2)
H2_8 H 0.8241 0.0057 0.3840
C3_8 C 0.8770(2) 0.01089(15) 0.2580(2)
C4_8 C 0.8887(2) 0.04582(16) 0.1827(2)
C5_8 C 0.9368(2) 0.02497(17) 0.1023(3)
C6_8 C 0.8542(3) 0.09878(18) 0.1813(3)
H4_8 H 0.8623 0.1227 0.1296
C7_8 C 0.8077(3) 0.11795(16) 0.2540(3)
H5_8 H 0.7835 0.1547 0.2521
C8_8 C 0.69839(17) 0.05267(12) 0.49109(19)
C9_8 C 0.64003(18) 0.01694(13) 0.4510(2)
H6_8 H 0.6268 0.0208 0.3878
C13_8 C 0.6804(2) 0.00465(15) 0.6351(2)
C14_8 C 0.71931(19) 0.04580(14) 0.5834(2)
H9_8 H 0.7601 0.0693 0.6104
C15_8 C 0.80080(17) 0.15446(12) 0.4935(2)
C16_8 C 0.88541(19) 0.15605(14) 0.4861(3)
H10_8 H 0.9133 0.1307 0.4462
C17_8 C 0.92936(19) 0.19546(16) 0.5383(3)
H11_8 H 0.9875 0.1968 0.5337
C18_8 C 0.88933(18) 0.23228(13) 0.5959(2)
C19_8 C 0.93579(19) 0.27638(13) 0.6501(2)
C20_8 C 0.8050(2) 0.22937(17) 0.6039(3)
H12_8 H 0.7771 0.2540 0.6449
C21_8 C 0.7616(2) 0.19108(17) 0.5528(3)
H13_8 H 0.7035 0.1897 0.5583
O2_6 O 0.95816(19) 0.97279(13) 0.1034(2)
H1_6 H 0.9846 0.9652 0.0555
H3_6 H 0.9004 0.9739 0.2588
C10_8 C 0.60162(19) 0.97601(13) 0.5036(2)
H7_6 H 0.5623 0.9515 0.4763
C11_8 C 0.61994(17) 0.97032(13) 0.5965(2)
C12_8 C 0.57442(17) 0.92793(12) 0.6544(2)
H8_8 H 0.6949 0.9997 0.6977
O2_7 O 0.95816(19) 0.02721(13) 0.6034(2)
H1_7 H 0.9846 0.0348 0.5555
H3_7 H 0.9004 0.0261 0.7588
H7_7 H 0.5623 0.0485 0.9763
O2_8 O 0.04184(19) 0.97279(13) 0.3966(2)
H1_8 H 0.0154 0.9652 0.4445
H3_8 H 0.0996 0.9739 0.2412
H7_8 H 0.4377 0.9515 0.0237
loop_
_geom_bond_atom_site_label_1
_geom_bond_atom_site_label_2
_geom_bond_site_symmetry_1
_geom_bond_site_symmetry_2
Zn1 O1 1_555 1_555
P1 O1 1_555 1_555
O2 H1 1_555 1_555
O3 C5 1_555 1_555
O4 C12 1_555 1_555
O5 C12 1_555 1_555
O6 C19 1_555 1_555
O7 C19 1_555 1_555
C1 P1 1_555 1_555
C2 C1 1_555 1_555
H2 C2 1_555 1_555
C3 C2 1_555 1_555
H3 C3 1_555 1_555
C4 C3 1_555 1_555
C5 O2 1_555 1_555
C6 C4 1_555 1_555
H4 C6 1_555 1_555
C7 C1 1_555 1_555
H5 C7 1_555 1_555
C8 P1 1_555 1_555
C9 C8 1_555 1_555
H6 C9 1_555 1_555
C10 C9 1_555 1_555
H7 C10 1_555 1_555
C11 C10 1_555 1_555
C12 C11 1_555 1_555
C13 C11 1_555 1_555
H8 C13 1_555 1_555
C14 C8 1_555 1_555
H9 C14 1_555 1_555
C15 P1 1_555 1_555
C16 C15 1_555 1_555
H10 C16 1_555 1_555
C17 C16 1_555 1_555
H11 C17 1_555 1_555
C18 C17 1_555 1_555
C19 C18 1_555 1_555
C20 C18 1_555 1_555
H12 C20 1_555 1_555
C21 C15 1_555 1_555
H13 C21 1_555 1_555
Zn2 O7 1_555 1_555
Zn3 O6 1_555 1_555
Zn5 O5 1_555 1_555
O9 Zn1 1_555 1_555
O10 Zn1 1_555 1_555
O11 Zn1 1_555 1_555
C4 C5 1_555 1_555
C6 C7 1_555 1_555
C13 C14 1_555 1_555
C20 C21 1_555 1_555
Zn3_2 O6_2 1_555 1_555
O4_2 C12_2 1_555 1_555
O5_2 C12_2 1_555 1_555
C11_2 C10_2 1_555 1_555
C12_2 C11_2 1_555 1_555
Zn4_2 O4_2 1_555 1_555
Zn5_2 O5_2 1_555 1_555
O11 C19_2 1_555 1_555
H9_2 C14_2 1_555 1_555
H11_2 C17_2 1_555 1_555
C18_2 C17_2 1_555 1_555
C19_2 C18_2 1_555 1_555
C20_2 C18_2 1_555 1_555
H12_2 C20_2 1_555 1_555
H13_2 C21_2 1_555 1_555
C13_2 C14_2 1_555 1_555
C20_2 C21_2 1_555 1_555
Zn2 O1_2 1_555 1_555
P1_2 O1_2 1_555 1_555
O3_2 C5_2 1_555 1_555
C1_2 P1_2 1_555 1_555
C2_2 C1_2 1_555 1_555
H2_2 C2_2 1_555 1_555
C3_2 C2_2 1_555 1_555
C4_2 C3_2 1_555 1_555
C6_2 C4_2 1_555 1_555
H4_2 C6_2 1_555 1_555
C7_2 C1_2 1_555 1_555
H5_2 C7_2 1_555 1_555
C8_2 P1_2 1_555 1_555
C9_2 C8_2 1_555 1_555
H6_2 C9_2 1_555 1_555
C15_2 P1_2 1_555 1_555
C16_2 C15_2 1_555 1_555
H10_2 C16_2 1_555 1_555
O8_2 Zn2 1_555 1_555
O9_2 Zn2 1_555 1_555
O10_2 Zn2 1_555 1_555
C4_2 C5_2 1_555 1_555
C6_2 C7_2 1_555 1_555
Zn3_2 O1_3 1_555 1_555
P1_3 O1_3 1_555 1_555
O2_2 H1_2 1_555 1_555
O3_3 C5_3 1_555 1_555
C1_3 P1_3 1_555 1_555
C2_3 C1_3 1_555 1_555
H2_3 C2_3 1_555 1_555
C3_3 C2_3 1_555 1_555
H3_2 C3_3 1_555 1_555
C4_3 C3_3 1_555 1_555
C5_3 O2_2 1_555 1_555
C6_3 C4_3 1_555 1_555
H4_3 C6_3 1_555 1_555
C7_3 C1_3 1_555 1_555
H5_3 C7_3 1_555 1_555
C8_3 P1_3 1_555 1_555
C9_3 C8_3 1_555 1_555
H6_3 C9_3 1_555 1_555
C15_3 P1_3 1_555 1_555
C16_3 C15_3 1_555 1_555
H10_3 C16_3 1_555 1_555
O9_3 Zn3_2 1_555 1_555
O11_2 Zn3_2 1_555 1_555
C4_3 C5_3 1_555 1_555
C6_3 C7_3 1_555 1_555
O4_3 C12_3 1_555 1_555
O5_3 C12_3 1_555 1_555
O10_2 C19_3 1_555 1_555
O7_2 C19_3 1_555 1_555
C11_3 C10_3 1_555 1_555
C12_3 C11_3 1_555 1_555
C13_3 C11_3 1_555 1_555
H8_3 C13_3 1_555 1_555
H9_3 C14_3 1_555 1_555
H11_3 C17_3 1_555 1_555
C18_3 C17_3 1_555 1_555
C19_3 C18_3 1_555 1_555
C20_3 C18_3 1_555 1_555
H12_3 C20_3 1_555 1_555
H13_3 C21_3 1_555 1_555
Zn3 O7_2 1_555 1_555
Zn4 O5_3 1_555 1_555
C13_3 C14_3 1_555 1_555
C20_3 C21_3 1_555 1_555
O2_3 H1_3 1_555 1_555
O4_4 C12_4 1_555 1_555
O5_4 C12_4 1_555 1_555
H7_3 C10_4 1_555 1_555
C11_4 C10_4 1_555 1_555
C12_4 C11_4 1_555 1_555
Zn5_2 O4_4 1_555 1_555
Zn4_2 O5_4 1_555 1_555
Zn3 O1_4 1_555 1_555
P1_4 O1_4 1_555 1_555
O3_4 C5_4 1_555 1_555
O11_2 C19_4 1_555 1_555
C1_4 P1_4 1_555 1_555
C2_4 C1_4 1_555 1_555
H2_4 C2_4 1_555 1_555
C3_4 C2_4 1_555 1_555
C4_4 C3_4 1_555 1_555
C6_4 C4_4 1_555 1_555
H4_4 C6_4 1_555 1_555
C7_4 C1_4 1_555 1_555
H5_4 C7_4 1_555 1_555
C8_4 P1_4 1_555 1_555
C9_4 C8_4 1_555 1_555
H6_4 C9_4 1_555 1_555
C14_4 C8_4 1_555 1_555
H9_4 C14_4 1_555 1_555
C15_4 P1_4 1_555 1_555
C16_4 C15_4 1_555 1_555
H10_4 C16_4 1_555 1_555
C17_4 C16_4 1_555 1_555
H11_4 C17_4 1_555 1_555
C18_4 C17_4 1_555 1_555
C19_4 C18_4 1_555 1_555
C20_4 C18_4 1_555 1_555
H12_4 C20_4 1_555 1_555
C21_4 C15_4 1_555 1_555
H13_4 C21_4 1_555 1_555
O8_4 Zn3 1_555 1_555
O9_4 Zn3 1_555 1_555
C4_4 C5_4 1_555 1_555
C6_4 C7_4 1_555 1_555
C13_4 C14_4 1_555 1_555
C20_4 C21_4 1_555 1_555
Zn4 O1_5 1_555 1_555
P1_5 O1_5 1_555 1_555
O2_4 H1_4 1_555 1_555
O3_5 C5_5 1_555 1_555
O8 C12_5 1_555 1_555
O9_3 C12_5 1_555 1_555
O6_3 C19_5 1_555 1_555
O7_3 C19_5 1_555 1_555
C1_5 P1_5 1_555 1_555
C2_5 C1_5 1_555 1_555
H2_5 C2_5 1_555 1_555
C3_5 C2_5 1_555 1_555
H3_4 C3_5 1_555 1_555
C4_5 C3_5 1_555 1_555
C5_5 O2_4 1_555 1_555
C6_5 C4_5 1_555 1_555
H4_5 C6_5 1_555 1_555
C7_5 C1_5 1_555 1_555
H5_5 C7_5 1_555 1_555
C8_5 P1_5 1_555 1_555
C9_5 C8_5 1_555 1_555
H6_5 C9_5 1_555 1_555
C10_5 C9_5 1_555 1_555
H7_4 C10_5 1_555 1_555
C11_5 C10_5 1_555 1_555
C12_5 C11_5 1_555 1_555
C13_5 C11_5 1_555 1_555
H8_5 C13_5 1_555 1_555
C14_5 C8_5 1_555 1_555
H9_5 C14_5 1_555 1_555
C15_5 P1_5 1_555 1_555
C16_5 C15_5 1_555 1_555
H10_5 C16_5 1_555 1_555
C17_5 C16_5 1_555 1_555
H11_5 C17_5 1_555 1_555
C18_5 C17_5 1_555 1_555
C19_5 C18_5 1_555 1_555
C20_5 C18_5 1_555 1_555
H12_5 C20_5 1_555 1_555
C21_5 C15_5 1_555 1_555
H13_5 C21_5 1_555 1_555
Zn4_2 O7_3 1_555 1_555
Zn5_2 O6_3 1_555 1_555
O10_3 Zn4 1_555 1_555
O11_3 Zn4 1_555 1_555
C4_5 C5_5 1_555 1_555
C6_5 C7_5 1_555 1_555
C13_5 C14_5 1_555 1_555
C20_5 C21_5 1_555 1_555
Zn4_2 O1_6 1_555 1_555
P1_6 O1_6 1_555 1_555
O3_6 C5_6 1_555 1_555
C1_6 P1_6 1_555 1_555
C2_6 C1_6 1_555 1_555
H2_6 C2_6 1_555 1_555
C3_6 C2_6 1_555 1_555
C4_6 C3_6 1_555 1_555
C6_6 C4_6 1_555 1_555
H4_6 C6_6 1_555 1_555
C7_6 C1_6 1_555 1_555
H5_6 C7_6 1_555 1_555
C8_6 P1_6 1_555 1_555
C9_6 C8_6 1_555 1_555
H6_6 C9_6 1_555 1_555
C15_6 P1_6 1_555 1_555
C16_6 C15_6 1_555 1_555
H10_6 C16_6 1_555 1_555
O10_4 Zn4_2 1_555 1_555
C4_6 C5_6 1_555 1_555
C6_6 C7_6 1_555 1_555
O11_3 C19_6 1_555 1_555
H9_6 C14_6 1_555 1_555
H11_6 C17_6 1_555 1_555
C18_6 C17_6 1_555 1_555
C19_6 C18_6 1_555 1_555
C20_6 C18_6 1_555 1_555
H12_6 C20_6 1_555 1_555
H13_6 C21_6 1_555 1_555
C13_6 C14_6 1_555 1_555
C20_6 C21_6 1_555 1_555
O8_2 C12_6 1_555 1_555
O9_4 C12_6 1_555 1_555
C11_6 C10_6 1_555 1_555
C12_6 C11_6 1_555 1_555
Zn5 O6_4 1_555 1_555
O8_3 C12_7 1_555 1_555
O9 C12_7 1_555 1_555
O10_4 C19_7 1_555 1_555
O7_4 C19_7 1_555 1_555
C11_7 C10_7 1_555 1_555
C12_7 C11_7 1_555 1_555
C13_7 C11_7 1_555 1_555
H8_7 C13_7 1_555 1_555
H9_7 C14_7 1_555 1_555
H11_7 C17_7 1_555 1_555
C18_7 C17_7 1_555 1_555
C19_7 C18_7 1_555 1_555
C20_7 C18_7 1_555 1_555
H12_7 C20_7 1_555 1_555
H13_7 C21_7 1_555 1_555
Zn5_2 O7_4 1_555 1_555
C13_7 C14_7 1_555 1_555
C20_7 C21_7 1_555 1_555
Zn5 O1_7 1_555 1_555
P1_7 O1_7 1_555 1_555
O2_5 H1_5 1_555 1_555
O3_7 C5_7 1_555 1_555
C1_7 P1_7 1_555 1_555
C2_7 C1_7 1_555 1_555
H2_7 C2_7 1_555 1_555
C3_7 C2_7 1_555 1_555
H3_5 C3_7 1_555 1_555
C4_7 C3_7 1_555 1_555
C5_7 O2_5 1_555 1_555
C6_7 C4_7 1_555 1_555
H4_7 C6_7 1_555 1_555
C7_7 C1_7 1_555 1_555
H5_7 C7_7 1_555 1_555
C8_7 P1_7 1_555 1_555
C9_7 C8_7 1_555 1_555
H6_7 C9_7 1_555 1_555
C15_7 P1_7 1_555 1_555
C16_7 C15_7 1_555 1_555
H10_7 C16_7 1_555 1_555
O11_4 Zn5 1_555 1_555
C4_7 C5_7 1_555 1_555
C6_7 C7_7 1_555 1_555
Zn5_2 O1_8 1_555 1_555
P1_8 O1_8 1_555 1_555
O3_8 C5_8 1_555 1_555
O11_4 C19_8 1_555 1_555
C1_8 P1_8 1_555 1_555
C2_8 C1_8 1_555 1_555
H2_8 C2_8 1_555 1_555
C3_8 C2_8 1_555 1_555
C4_8 C3_8 1_555 1_555
C6_8 C4_8 1_555 1_555
H4_8 C6_8 1_555 1_555
C7_8 C1_8 1_555 1_555
H5_8 C7_8 1_555 1_555
C8_8 P1_8 1_555 1_555
C9_8 C8_8 1_555 1_555
H6_8 C9_8 1_555 1_555
C14_8 C8_8 1_555 1_555
H9_8 C14_8 1_555 1_555
C15_8 P1_8 1_555 1_555
C16_8 C15_8 1_555 1_555
H10_8 C16_8 1_555 1_555
C17_8 C16_8 1_555 1_555
H11_8 C17_8 1_555 1_555
C18_8 C17_8 1_555 1_555
C19_8 C18_8 1_555 1_555
C20_8 C18_8 1_555 1_555
H12_8 C20_8 1_555 1_555
C21_8 C15_8 1_555 1_555
H13_8 C21_8 1_555 1_555
C4_8 C5_8 1_555 1_555
C6_8 C7_8 1_555 1_555
C13_8 C14_8 1_555 1_555
C20_8 C21_8 1_555 1_555
O2_6 H1_6 1_555 1_555
O8_4 C12_8 1_555 1_555
O9_2 C12_8 1_555 1_555
H7_6 C10_8 1_555 1_555
C11_8 C10_8 1_555 1_555
C12_8 C11_8 1_555 1_555
O2_7 H1_7 1_555 1_555
O2_8 H1_8 1_555 1_555

#END
