
###############################################################################
#
# This file contains modified crystal structure data generated from the
# MOF subset of the Cambridge Structural Database (CSD) v543 
# hosted by the Cambridge Crystallographic Data Centre (CCDC).
#
# This work is licensed under the Creative Commons
# Attribution-NonCommercial-ShareAlike 4.0 International License.
# To view a copy of this license, visit
# http://creativecommons.org/licenses/by-nc-sa/4.0/
# or send a letter to
# Creative Commons, PO Box 1866, Mountain View, CA 94042, USA.
#
# CIF created using the CSD Python API on 29 September 2022
# The structure has been converted into the P1 space group
# The structure has a 3D framework
# The original CSD entry CESYEF01 is in the monoclinic crystal system
# The framework has been calculated to contain at least 10.0% void space
# The void calculation uses a probe of radius 1.32A, grid spacing 0.4
#
###############################################################################

data_CESYEF01
_chemical_formula_moiety         '(C24 H16 N4 O8)n'
_symmetry_cell_setting           triclinic
_symmetry_space_group_name_H-M   'P 1'
_symmetry_Int_Tables_number      1
_space_group_name_Hall           'P 1'
loop_
_symmetry_equiv_pos_site_id
_symmetry_equiv_pos_as_xyz
1 x,y,z
_cell_length_a                   3.6519(5)
_cell_length_b                   12.1512(18)
_cell_length_c                   15.070(2)
_cell_angle_alpha                90
_cell_angle_beta                 90.982(4)
_cell_angle_gamma                90
_cell_volume                     668.633
loop_
_atom_site_label
_atom_site_type_symbol
_atom_site_fract_x
_atom_site_fract_y
_atom_site_fract_z
O1 O 0.116(2) 0.4462(9) 0.1015(8)
O2 O 0.169(2) 0.2889(9) 0.0226(6)
C1 C 0.069(3) 0.3409(13) 0.0886(10)
Ag3 Ag 0.6044(3) 0.57393(8) 0.07548(6)
Ag4 Ag 0.3956(3) 0.42607(8) 0.92452(6)
N1 N 0.617(2) 0.1693(8) 0.3069(5)
C2 C 0.905(2) 0.2824(8) 0.1646(7)
C3 C 0.861(3) 0.3317(9) 0.2468(8)
H1 H 0.9298 0.4064 0.2555
C4 C 0.720(3) 0.2724(10) 0.3148(7)
H2 H 0.6950 0.3073 0.3708
C5 C 0.660(2) 0.1205(8) 0.2281(6)
H3 H 0.5898 0.0456 0.2218
C6 C 0.801(2) 0.1735(8) 0.1564(6)
H4 H 0.8269 0.1360 0.1016
Ag5 Ag 0.3956(3) 0.07393(8) 0.42452(6)
N2 N 0.383(2) 0.6693(8) 0.1931(5)
O4 O 0.831(2) 0.7111(9) 0.9774(6)
O4_2 O 0.169(2) 0.2111(9) 0.5226(6)
C2_2 C 0.095(2) 0.7824(8) 0.3354(7)
C3_2 C 0.139(3) 0.8317(9) 0.2532(8)
H1_2 H 0.0702 0.9064 0.2445
C4_2 C 0.280(3) 0.7724(10) 0.1852(7)
H2_2 H 0.3050 0.8073 0.1292
C5_2 C 0.340(2) 0.6205(8) 0.2719(6)
H3_2 H 0.4102 0.5456 0.2782
C6_2 C 0.199(2) 0.6735(8) 0.3436(6)
H4_2 H 0.1731 0.6360 0.3984
Ag2 Ag 0.6044(3) 0.92607(8) 0.57548(6)
O3 O 0.884(2) 0.9462(9) 0.3985(8)
O2_2 O 0.831(2) 0.7889(9) 0.4774(6)
C1_2 C 0.931(3) 0.8409(13) 0.4114(10)
N1_2 N 0.383(2) 0.8307(8) 0.6931(5)
C2_3 C 0.095(2) 0.7176(8) 0.8354(7)
C3_3 C 0.139(3) 0.6683(9) 0.7532(8)
H1_3 H 0.0702 0.5936 0.7445
C4_3 C 0.280(3) 0.7276(10) 0.6852(7)
H2_3 H 0.3050 0.6927 0.6292
C5_3 C 0.340(2) 0.8795(8) 0.7719(6)
H3_3 H 0.4102 0.9544 0.7782
C6_3 C 0.199(2) 0.8265(8) 0.8436(6)
H4_3 H 0.1731 0.8640 0.8984
O3_2 O 0.884(2) 0.5538(9) 0.8985(8)
N2_2 N 0.617(2) 0.3307(8) 0.8069(5)
C1_3 C 0.931(3) 0.6591(13) 0.9114(10)
O1_2 O 0.116(2) 0.0538(9) 0.6015(8)
C1_4 C 0.069(3) 0.1591(13) 0.5886(10)
C2_4 C 0.905(2) 0.2176(8) 0.6646(7)
C3_4 C 0.861(3) 0.1683(9) 0.7468(8)
H1_4 H 0.9298 0.0936 0.7555
C4_4 C 0.720(3) 0.2276(10) 0.8148(7)
H2_4 H 0.6950 0.1927 0.8708
C5_4 C 0.660(2) 0.3795(8) 0.7281(6)
H3_4 H 0.5898 0.4544 0.7218
C6_4 C 0.801(2) 0.3265(8) 0.6564(6)
H4_4 H 0.8269 0.3640 0.6016
loop_
_geom_bond_atom_site_label_1
_geom_bond_atom_site_label_2
_geom_bond_site_symmetry_1
_geom_bond_site_symmetry_2
O1 C1 1_555 1_555
O2 C1 1_555 1_555
Ag3 O1 1_555 1_555
N1 C4 1_555 1_555
C2 C3 1_555 1_555
C3 H1 1_555 1_555
C4 C3 1_555 1_555
H2 C4 1_555 1_555
C5 N1 1_555 1_555
H3 C5 1_555 1_555
C6 C2 1_555 1_555
H4 C6 1_555 1_555
Ag5 N1 1_555 1_555
N2 Ag3 1_555 1_555
C5 C6 1_555 1_555
O4_2 Ag5 1_555 1_555
N2 C4_2 1_555 1_555
C2_2 C3_2 1_555 1_555
C3_2 H1_2 1_555 1_555
C4_2 C3_2 1_555 1_555
H2_2 C4_2 1_555 1_555
C5_2 N2 1_555 1_555
H3_2 C5_2 1_555 1_555
C6_2 C2_2 1_555 1_555
H4_2 C6_2 1_555 1_555
C5_2 C6_2 1_555 1_555
O3 C1_2 1_555 1_555
O2_2 C1_2 1_555 1_555
Ag2 O2_2 1_555 1_555
N1_2 C4_3 1_555 1_555
C2_3 C3_3 1_555 1_555
C3_3 H1_3 1_555 1_555
C4_3 C3_3 1_555 1_555
H2_3 C4_3 1_555 1_555
C5_3 N1_2 1_555 1_555
H3_3 C5_3 1_555 1_555
C6_3 C2_3 1_555 1_555
H4_3 C6_3 1_555 1_555
Ag2 N1_2 1_555 1_555
O3_2 Ag4 1_555 1_555
N2_2 Ag4 1_555 1_555
C5_3 C6_3 1_555 1_555
O3_2 C1_3 1_555 1_555
O4 C1_3 1_555 1_555
O1_2 C1_4 1_555 1_555
O4_2 C1_4 1_555 1_555
N2_2 C4_4 1_555 1_555
C2_4 C3_4 1_555 1_555
C3_4 H1_4 1_555 1_555
C4_4 C3_4 1_555 1_555
H2_4 C4_4 1_555 1_555
C5_4 N2_2 1_555 1_555
H3_4 C5_4 1_555 1_555
C6_4 C2_4 1_555 1_555
H4_4 C6_4 1_555 1_555
C5_4 C6_4 1_555 1_555

#END
