
###############################################################################
#
# This file contains modified crystal structure data generated from the
# MOF subset of the Cambridge Structural Database (CSD) v543 
# hosted by the Cambridge Crystallographic Data Centre (CCDC).
#
# This work is licensed under the Creative Commons
# Attribution-NonCommercial-ShareAlike 4.0 International License.
# To view a copy of this license, visit
# http://creativecommons.org/licenses/by-nc-sa/4.0/
# or send a letter to
# Creative Commons, PO Box 1866, Mountain View, CA 94042, USA.
#
# CIF created using the CSD Python API on 29 September 2022
# The structure has been converted into the P1 space group
# The structure has a 3D framework
# The original CSD entry CESYEF is in the monoclinic crystal system
# The framework has been calculated to contain at least 10.0% void space
# The void calculation uses a probe of radius 1.32A, grid spacing 0.4
#
###############################################################################

data_CESYEF
_chemical_formula_moiety         '(C24 H16 Ag4 N4 O8)n'
_symmetry_cell_setting           triclinic
_symmetry_space_group_name_H-M   'P 1'
_symmetry_Int_Tables_number      1
_space_group_name_Hall           'P 1'
loop_
_symmetry_equiv_pos_site_id
_symmetry_equiv_pos_as_xyz
1 x,y,z
_cell_length_a                   3.6934(5)
_cell_length_b                   12.1783(17)
_cell_length_c                   15.239(2)
_cell_angle_alpha                90
_cell_angle_beta                 90.100(2)
_cell_angle_gamma                90
_cell_volume                     685.439
loop_
_atom_site_label
_atom_site_type_symbol
_atom_site_fract_x
_atom_site_fract_y
_atom_site_fract_z
Ag4 Ag 0.3904(2) 0.07542(4) 0.07524(4)
Ag3 Ag 0.6096(2) 0.92458(4) 0.92476(4)
Ag1 Ag 0.3904(2) 0.42458(4) 0.57524(4)
C1 C 0.649(2) 0.3771(5) 0.7712(4)
H1 H 0.5728 0.4494 0.7779
C2 C 0.7929(18) 0.3246(5) 0.8430(4)
H2 H 0.8137 0.3609 0.8965
C3 C 0.906(2) 0.2175(5) 0.8346(4)
C4 C 0.867(2) 0.1686(6) 0.7544(5)
H3 H 0.9376 0.0959 0.7465
C5 C 0.724(2) 0.2277(7) 0.6851(5)
H4 H 0.7053 0.1936 0.6307
N1 N 0.6112(18) 0.3309(5) 0.6927(3)
Ag2 Ag 0.6096(2) 0.57542(4) 0.42476(4)
O3 O 0.8792(18) 0.5551(5) 0.6009(5)
O5 O 0.153(2) 0.2904(6) 0.4770(4)
C1_2 C 0.351(2) 0.8771(5) 0.7288(4)
H1_2 H 0.4272 0.9494 0.7221
C2_2 C 0.2071(18) 0.8246(5) 0.6570(4)
H2_2 H 0.1863 0.8609 0.6035
C3_2 C 0.094(2) 0.7175(5) 0.6654(4)
C4_2 C 0.133(2) 0.6686(6) 0.7456(5)
H3_2 H 0.0624 0.5959 0.7535
C5_2 C 0.276(2) 0.7277(7) 0.8149(5)
H4_2 H 0.2947 0.6936 0.8693
N1_2 N 0.3888(18) 0.8309(5) 0.8073(3)
C6 C 0.927(2) 0.6573(8) 0.5900(6)
O2 O 0.847(2) 0.7096(6) 0.5230(4)
O4 O 0.1208(18) 0.4449(5) 0.3991(5)
C1_3 C 0.351(2) 0.6229(5) 0.2288(4)
H1_3 H 0.4272 0.5506 0.2221
C2_3 C 0.2071(18) 0.6754(5) 0.1570(4)
H2_3 H 0.1863 0.6391 0.1035
C3_3 C 0.094(2) 0.7825(5) 0.1654(4)
C4_3 C 0.133(2) 0.8314(6) 0.2456(5)
H3_3 H 0.0624 0.9041 0.2535
C5_3 C 0.276(2) 0.7723(7) 0.3149(5)
H4_3 H 0.2947 0.8064 0.3693
N1_3 N 0.3888(18) 0.6691(5) 0.3073(3)
C6_2 C 0.073(2) 0.3427(8) 0.4100(6)
C1_4 C 0.649(2) 0.1229(5) 0.2712(4)
H1_4 H 0.5728 0.0506 0.2779
C2_4 C 0.7929(18) 0.1754(5) 0.3430(4)
H2_4 H 0.8137 0.1391 0.3965
C3_4 C 0.906(2) 0.2825(5) 0.3346(4)
C4_4 C 0.867(2) 0.3314(6) 0.2544(5)
H3_4 H 0.9376 0.4041 0.2465
C5_4 C 0.724(2) 0.2723(7) 0.1851(5)
H4_4 H 0.7053 0.3064 0.1307
N1_4 N 0.6112(18) 0.1691(5) 0.1927(3)
C6_3 C 0.073(2) 0.1573(8) 0.9100(6)
O1 O 0.1208(18) 0.0551(5) 0.8991(5)
O2_2 O 0.153(2) 0.2096(6) 0.9770(4)
O5_2 O 0.847(2) 0.7904(6) 0.0230(4)
C6_4 C 0.927(2) 0.8427(8) 0.0900(6)
O1_2 O 0.8792(18) 0.9449(5) 0.1009(5)
loop_
_geom_bond_atom_site_label_1
_geom_bond_atom_site_label_2
_geom_bond_site_symmetry_1
_geom_bond_site_symmetry_2
Ag1 N1 1_555 1_555
C1 H1 1_555 1_555
C2 C1 1_555 1_555
H2 C2 1_555 1_555
C3 C2 1_555 1_555
C4 C3 1_555 1_555
H3 C4 1_555 1_555
C5 C4 1_555 1_555
H4 C5 1_555 1_555
N1 C1 1_555 1_555
Ag2 Ag1 1_555 1_555
O3 Ag1 1_555 1_555
O5 Ag1 1_555 1_555
C5 N1 1_555 1_555
Ag3 N1_2 1_555 1_555
C1_2 H1_2 1_555 1_555
C2_2 C1_2 1_555 1_555
H2_2 C2_2 1_555 1_555
C3_2 C2_2 1_555 1_555
C4_2 C3_2 1_555 1_555
H3_2 C4_2 1_555 1_555
C5_2 C4_2 1_555 1_555
H4_2 C5_2 1_555 1_555
N1_2 C1_2 1_555 1_555
C5_2 N1_2 1_555 1_555
O3 C6 1_555 1_555
O2 C6 1_555 1_555
Ag2 O2 1_555 1_555
Ag2 N1_3 1_555 1_555
C1_3 H1_3 1_555 1_555
C2_3 C1_3 1_555 1_555
H2_3 C2_3 1_555 1_555
C3_3 C2_3 1_555 1_555
C4_3 C3_3 1_555 1_555
H3_3 C4_3 1_555 1_555
C5_3 C4_3 1_555 1_555
H4_3 C5_3 1_555 1_555
N1_3 C1_3 1_555 1_555
O4 Ag2 1_555 1_555
C5_3 N1_3 1_555 1_555
O4 C6_2 1_555 1_555
O5 C6_2 1_555 1_555
Ag4 N1_4 1_555 1_555
C1_4 H1_4 1_555 1_555
C2_4 C1_4 1_555 1_555
H2_4 C2_4 1_555 1_555
C3_4 C2_4 1_555 1_555
C4_4 C3_4 1_555 1_555
H3_4 C4_4 1_555 1_555
C5_4 C4_4 1_555 1_555
H4_4 C5_4 1_555 1_555
N1_4 C1_4 1_555 1_555
C5_4 N1_4 1_555 1_555
O1 C6_3 1_555 1_555
O2_2 C6_3 1_555 1_555
O1_2 C6_4 1_555 1_555
O5_2 C6_4 1_555 1_555

#END
