
###############################################################################
#
# This file contains modified crystal structure data generated from the
# MOF subset of the Cambridge Structural Database (CSD) v543 
# hosted by the Cambridge Crystallographic Data Centre (CCDC).
#
# This work is licensed under the Creative Commons
# Attribution-NonCommercial-ShareAlike 4.0 International License.
# To view a copy of this license, visit
# http://creativecommons.org/licenses/by-nc-sa/4.0/
# or send a letter to
# Creative Commons, PO Box 1866, Mountain View, CA 94042, USA.
#
# CIF created using the CSD Python API on 29 September 2022
# The structure has been converted into the P1 space group
# The structure has a 3D framework
# The original CSD entry CETFUD is in the triclinic crystal system
# The framework has been calculated to contain at least 10.0% void space
# The void calculation uses a probe of radius 1.32A, grid spacing 0.4
#
###############################################################################

data_CETFUD
_chemical_formula_moiety         '(C24 H40 O10 Pr2)n'
_symmetry_cell_setting           triclinic
_symmetry_space_group_name_H-M   'P 1'
_symmetry_Int_Tables_number      1
_space_group_name_Hall           'P 1'
loop_
_symmetry_equiv_pos_site_id
_symmetry_equiv_pos_as_xyz
1 x,y,z
_cell_length_a                   7.7447(12)
_cell_length_b                   10.1935(16)
_cell_length_c                   12.1464(19)
_cell_angle_alpha                80.751(3)
_cell_angle_beta                 80.287(3)
_cell_angle_gamma                82.818(3)
_cell_volume                     928.135
loop_
_atom_site_label
_atom_site_type_symbol
_atom_site_fract_x
_atom_site_fract_y
_atom_site_fract_z
_atom_site_U_iso_or_equiv
_atom_site_thermal_displace_type
Pr7 Pr 0.73908(5) 0.00999(4) 0.55898(4) 0.0174 Uani
O10 O 0.6128(6) 0.2603(5) 0.5452(4) 0.0291 Uani
C13 C 0.5068(9) 0.2499(7) 0.4819(6) 0.0197 Uani
C15 C 0.0912(9) 0.4988(7) 0.4625(7) 0.0259 Uani
H21 H 0.1356 0.5851 0.4553 0.0310 Uiso
H22 H 0.0791 0.4828 0.3877 0.0310 Uiso
C20 C 0.3971(9) 0.3704(7) 0.4329(6) 0.0255 Uani
H31 H 0.4604 0.4488 0.4237 0.0300 Uiso
H32 H 0.3748 0.3580 0.3593 0.0300 Uiso
C21 C 0.2216(9) 0.3913(7) 0.5116(6) 0.0254 Uani
H33 H 0.2452 0.4145 0.5816 0.0300 Uiso
H34 H 0.1686 0.3076 0.5294 0.0300 Uiso
O12 O 0.4880(6) 0.1351(4) 0.4580(4) 0.0208 Uani
H5 H 0.0437 0.1582 0.1160 0.0410 Uiso
H16 H 0.0426 0.3756 0.1543 0.0330 Uiso
C12 C 0.0175(9) 0.2064(7) 0.3484(6) 0.0191 Uani
O5 O 0.1763(6) 0.2013(5) 0.3044(4) 0.0278 Uani
O2 O 0.1885(6) 0.0624(5) 0.6366(4) 0.0269 Uani
C2 C 0.0493(10) 0.1115(7) 0.6929(6) 0.0222 Uani
C4 C 0.0685(10) 0.2070(7) 0.7716(6) 0.0264 Uani
H3 H 0.1913 0.2234 0.7614 0.0320 Uiso
H4 H 0.0013 0.2913 0.7501 0.0320 Uiso
H7 H 0.1092 0.3101 0.9535 0.0390 Uiso
C7 C 0.0099(11) 0.1609(8) 0.8947(6) 0.0343 Uani
H9 H 0.0924 0.0877 0.9210 0.0410 Uiso
C5 C 0.9519(11) 0.2256(8) 0.0925(7) 0.0344 Uani
H6 H 0.8429 0.1840 0.1060 0.0410 Uiso
C10 C 0.9315(10) 0.3373(7) 0.1645(6) 0.0279 Uani
H15 H 0.8444 0.4070 0.1383 0.0330 Uiso
C11 C 0.8762(9) 0.2917(7) 0.2892(6) 0.0240 Uani
H17 H 0.8387 0.3700 0.3265 0.0280 Uiso
H18 H 0.7753 0.2413 0.2979 0.0280 Uiso
O7 O 0.9709(6) 0.1407(4) 0.4456(4) 0.0201 Uani
C6 C 0.9974(11) 0.2722(8) 0.9674(6) 0.0329 Uani
H8 H 0.9086 0.3424 0.9445 0.0390 Uiso
H10 H 0.8956 0.1277 0.9038 0.0410 Uiso
O6 O 0.8969(6) 0.0864(5) 0.6879(4) 0.0267 Uani
O8 O 0.5049(8) 0.0198(6) 0.7270(5) 0.0325 Uani
H39 H 0.505(9) 0.075(5) 0.766(5) 0.0200 Uiso
H40 H 0.405(6) 0.033(11) 0.713(9) 0.0800 Uiso
Pr8 Pr 0.26092(5) 0.99001(4) 0.44102(4) 0.0174 Uani
O1 O 0.4951(8) 0.9802(6) 0.2730(5) 0.0325 Uani
O3 O 0.3872(6) 0.7397(5) 0.4548(4) 0.0291 Uani
C1 C 0.4932(9) 0.7501(7) 0.5181(6) 0.0197 Uani
C3 C 0.9088(9) 0.5012(7) 0.5375(7) 0.0259 Uani
H1 H 0.8644 0.4149 0.5447 0.0310 Uiso
H2 H 0.9209 0.5172 0.6123 0.0310 Uiso
C8 C 0.6029(9) 0.6296(7) 0.5671(6) 0.0255 Uani
H11 H 0.5396 0.5512 0.5763 0.0300 Uiso
H12 H 0.6252 0.6420 0.6407 0.0300 Uiso
C9 C 0.7784(9) 0.6087(7) 0.4884(6) 0.0254 Uani
H13 H 0.7548 0.5855 0.4184 0.0300 Uiso
H14 H 0.8314 0.6924 0.4706 0.0300 Uiso
O4 O 0.5120(6) 0.8649(4) 0.5420(4) 0.0208 Uani
H19 H 0.495(9) 0.925(5) 0.234(5) 0.0200 Uiso
H20 H 0.595(6) 0.967(11) 0.287(9) 0.0800 Uiso
O19 O 0.1031(6) 0.9136(5) 0.3121(4) 0.0267 Uani
O22 O 0.0291(6) 0.8593(4) 0.5544(4) 0.0201 Uani
C18 C 0.0026(11) 0.7278(8) 0.0326(6) 0.0329 Uani
H28 H 0.0914 0.6576 0.0555 0.0390 Uiso
H30 H 0.1044 0.8723 0.0962 0.0410 Uiso
C17 C 0.0481(11) 0.7744(8) 0.9075(7) 0.0344 Uani
H26 H 0.1571 0.8160 0.8940 0.0410 Uiso
C22 C 0.0685(10) 0.6627(7) 0.8355(6) 0.0279 Uani
H35 H 0.1556 0.5930 0.8617 0.0330 Uiso
C23 C 0.1238(9) 0.7083(7) 0.7108(6) 0.0240 Uani
H37 H 0.1613 0.6300 0.6735 0.0280 Uiso
H38 H 0.2247 0.7587 0.7021 0.0280 Uiso
O9 O 0.8115(6) 0.9376(5) 0.3634(4) 0.0269 Uani
C14 C 0.9507(10) 0.8885(7) 0.3071(6) 0.0222 Uani
C16 C 0.9315(10) 0.7930(7) 0.2284(6) 0.0264 Uani
H23 H 0.8087 0.7766 0.2386 0.0320 Uiso
H24 H 0.9987 0.7087 0.2499 0.0320 Uiso
H27 H 0.8908 0.6899 0.0465 0.0390 Uiso
C19 C 0.9901(11) 0.8391(8) 0.1053(6) 0.0343 Uani
H29 H 0.9076 0.9123 0.0790 0.0410 Uiso
O17 O 0.8237(6) 0.7987(5) 0.6956(4) 0.0278 Uani
H25 H 0.9563 0.8418 0.8840 0.0410 Uiso
H36 H 0.9574 0.6244 0.8457 0.0330 Uiso
C24 C 0.9825(9) 0.7936(7) 0.6516(6) 0.0191 Uani
loop_
_atom_site_aniso_label
_atom_site_aniso_U_11
_atom_site_aniso_U_22
_atom_site_aniso_U_33
_atom_site_aniso_U_23
_atom_site_aniso_U_13
_atom_site_aniso_U_12
Pr7 0.0134 0.0175 0.0226 -0.0064 -0.00567 0.00248
O10 0.026 0.028 0.036 -0.012 -0.012 0.006
C13 0.014 0.022 0.022 -0.006 0 0.002
C15 0.023 0.015 0.041 -0.006 -0.01 0.003
C20 0.028 0.019 0.03 -0.003 -0.007 -0.001
C21 0.024 0.022 0.029 -0.003 -0.007 0.006
O12 0.02 0.015 0.03 -0.006 -0.01 0
C12 0.022 0.016 0.023 -0.006 -0.01 -0.003
O5 0.021 0.035 0.025 0 -0.001 -0.003
O2 0.02 0.031 0.034 -0.014 -0.008 -0.002
C2 0.026 0.019 0.023 -0.003 -0.005 -0.006
C4 0.026 0.032 0.025 -0.014 -0.007 -0.001
C7 0.048 0.032 0.027 -0.003 -0.016 -0.007
C5 0.044 0.028 0.031 -0.006 -0.003 -0.004
C10 0.032 0.026 0.027 -0.006 -0.01 0.002
C11 0.022 0.025 0.027 -0.008 -0.008 0.001
O7 0.023 0.02 0.016 -0.004 0 0.001
C6 0.042 0.036 0.024 -0.009 -0.009 -0.005
O6 0.017 0.036 0.03 -0.011 -0.007 -0.001
O8 0.024 0.044 0.034 -0.027 -0.001 0.002
Pr8 0.0134 0.0175 0.0226 -0.0064 -0.00567 0.00248
O1 0.024 0.044 0.034 -0.027 -0.001 0.002
O3 0.026 0.028 0.036 -0.012 -0.012 0.006
C1 0.014 0.022 0.022 -0.006 0 0.002
C3 0.023 0.015 0.041 -0.006 -0.01 0.003
C8 0.028 0.019 0.03 -0.003 -0.007 -0.001
C9 0.024 0.022 0.029 -0.003 -0.007 0.006
O4 0.02 0.015 0.03 -0.006 -0.01 0
O19 0.017 0.036 0.03 -0.011 -0.007 -0.001
O22 0.023 0.02 0.016 -0.004 0 0.001
C18 0.042 0.036 0.024 -0.009 -0.009 -0.005
C17 0.044 0.028 0.031 -0.006 -0.003 -0.004
C22 0.032 0.026 0.027 -0.006 -0.01 0.002
C23 0.022 0.025 0.027 -0.008 -0.008 0.001
O9 0.02 0.031 0.034 -0.014 -0.008 -0.002
C14 0.026 0.019 0.023 -0.003 -0.005 -0.006
C16 0.026 0.032 0.025 -0.014 -0.007 -0.001
C19 0.048 0.032 0.027 -0.003 -0.016 -0.007
O17 0.021 0.035 0.025 0 -0.001 -0.003
C24 0.022 0.016 0.023 -0.006 -0.01 -0.003
loop_
_geom_bond_atom_site_label_1
_geom_bond_atom_site_label_2
_geom_bond_site_symmetry_1
_geom_bond_site_symmetry_2
Pr7 O10 1_555 1_555
O10 C13 1_555 1_555
C13 C20 1_555 1_555
H21 C15 1_555 1_555
H22 C15 1_555 1_555
C20 H31 1_555 1_555
H32 C20 1_555 1_555
C21 C15 1_555 1_555
H33 C21 1_555 1_555
H34 C21 1_555 1_555
O12 Pr7 1_555 1_555
C13 O12 1_555 1_555
C20 C21 1_555 1_555
O5 C12 1_555 1_555
C2 O2 1_555 1_555
C4 C2 1_555 1_555
H3 C4 1_555 1_555
H4 C4 1_555 1_555
C7 C4 1_555 1_555
H9 C7 1_555 1_555
H6 C5 1_555 1_555
C10 C5 1_555 1_555
H15 C10 1_555 1_555
C11 C10 1_555 1_555
H17 C11 1_555 1_555
H18 C11 1_555 1_555
Pr7 O7 1_555 1_555
H8 C6 1_555 1_555
Pr7 O6 1_555 1_555
Pr7 O8 1_555 1_555
O8 H39 1_555 1_555
H40 O8 1_555 1_555
Pr8 O1 1_555 1_555
O1 H19 1_555 1_555
O3 Pr8 1_555 1_555
C1 O3 1_555 1_555
C3 H1 1_555 1_555
H2 C3 1_555 1_555
C8 C1 1_555 1_555
H11 C8 1_555 1_555
H12 C8 1_555 1_555
C9 C3 1_555 1_555
H13 C9 1_555 1_555
H14 C9 1_555 1_555
O4 Pr8 1_555 1_555
H20 O1 1_555 1_555
O19 Pr8 1_555 1_555
O22 Pr8 1_555 1_555
C1 O4 1_555 1_555
C8 C9 1_555 1_555
H28 C18 1_555 1_555
H26 C17 1_555 1_555
C22 C17 1_555 1_555
H35 C22 1_555 1_555
C23 C22 1_555 1_555
H37 C23 1_555 1_555
H38 C23 1_555 1_555
C14 O9 1_555 1_555
C16 C14 1_555 1_555
H23 C16 1_555 1_555
H24 C16 1_555 1_555
C19 C16 1_555 1_555
H29 C19 1_555 1_555
C24 O17 1_555 1_555

#END
