
###############################################################################
#
# This file contains modified crystal structure data generated from the
# MOF subset of the Cambridge Structural Database (CSD) v543 
# hosted by the Cambridge Crystallographic Data Centre (CCDC).
#
# This work is licensed under the Creative Commons
# Attribution-NonCommercial-ShareAlike 4.0 International License.
# To view a copy of this license, visit
# http://creativecommons.org/licenses/by-nc-sa/4.0/
# or send a letter to
# Creative Commons, PO Box 1866, Mountain View, CA 94042, USA.
#
# CIF created using the CSD Python API on 29 September 2022
# The structure has been converted into the P1 space group
# The structure has a 3D framework
# The original CSD entry CETFOX is in the triclinic crystal system
# The framework has been calculated to contain at least 10.0% void space
# The void calculation uses a probe of radius 1.32A, grid spacing 0.4
# H atom positions have been added when not included in the experimental data
# Generated hydrogen atom positions removed from atoms on special positions
#
###############################################################################

data_CETFOX
_chemical_formula_moiety         '(C36 H64 Nd4 O23)n'
_symmetry_cell_setting           triclinic
_symmetry_space_group_name_H-M   'P 1'
_symmetry_Int_Tables_number      1
_space_group_name_Hall           'P 1'
loop_
_symmetry_equiv_pos_site_id
_symmetry_equiv_pos_as_xyz
1 x,y,z
_cell_length_a                   7.768(3)
_cell_length_b                   14.344(6)
_cell_length_c                   16.125(7)
_cell_angle_alpha                92.980(7)
_cell_angle_beta                 95.605(7)
_cell_angle_gamma                99.593(7)
_cell_volume                     1758.85
loop_
_atom_site_label
_atom_site_type_symbol
_atom_site_fract_x
_atom_site_fract_y
_atom_site_fract_z
O14 O 0.1208(5) 0.5324(3) 0.7349(3)
Nd9 Nd 0.27176(4) 0.69878(2) 0.787600(18)
O32 O 0.0816(5) 0.8171(3) 0.7971(2)
O40 O 0.0190(5) 0.3537(3) 0.3030(2)
O3 O 0.3711(5) 0.3359(3) 0.4121(2)
O5 O 0.4136(5) 0.1488(3) 0.3432(2)
O6 O 0.0375(5) 0.1723(3) 0.3782(2)
O7 O 0.2085(5) 0.3416(3) 0.1551(2)
O8 O 0.0900(5) 0.0785(3) 0.2149(2)
C2 C 0.5080(8) 0.3638(4) 0.3816(4)
C3 C 0.0873(8) 0.3636(4) 0.1032(4)
C4 C 0.5713(8) 0.1464(4) 0.3602(4)
C6 C 0.6715(8) 0.4093(4) 0.4360(4)
H3 H 0.7045 0.4734 0.4195
H4 H 0.7649 0.3751 0.4241
C7 C 0.1434(8) 0.4039(4) 0.0246(4)
H6 H 0.2525 0.4483 0.0385
C9 C 0.6190(8) 0.0798(5) 0.4245(4)
H9 H 0.6715 0.0313 0.3972
H10 H 0.7081 0.1151 0.4660
C10 C 0.4739(8) 0.0322(5) 0.4684(4)
H12 H 0.4207 0.0803 0.4958
Nd1 Nd 0.22432(4) 0.24325(2) 0.275948(18)
O9 O 0.6971(5) 0.1943(3) 0.3289(2)
O12 O 0.5180(5) 0.3545(3) 0.3036(2)
O13 O 0.9810(5) 0.6463(3) 0.6970(2)
C12 C 0.8275(7) 0.4880(4) 0.6679(3)
H13 H 0.8301 0.4276 0.6919
H14 H 0.7217 0.5102 0.6817
C13 C 0.9852(8) 0.5579(4) 0.7038(3)
C15 C 0.8250(7) 0.4756(4) 0.5735(3)
H17 H 0.9266 0.4485 0.5610
H18 H 0.8366 0.5377 0.5514
C16 C 0.6640(7) 0.4144(4) 0.5291(3)
H19 H 0.5609 0.4400 0.5418
H20 H 0.6537 0.3511 0.5486
O15 O 0.5981(5) 0.1962(3) 0.0810(2)
O16 O 0.5534(5) 0.4000(3) 0.1307(2)
O17 O 0.6289(5) 0.6641(3) 0.5879(2)
O20 O 0.9289(5) 0.3502(3) 0.1139(2)
O22 O 0.5864(5) 0.8512(3) 0.6568(2)
O23 O 0.9625(5) 0.8277(3) 0.6218(2)
O25 O 0.7915(5) 0.6584(3) 0.8449(2)
O27 O 0.9100(5) 0.9215(3) 0.7851(2)
C19 C 0.4529(7) 0.1754(4) 0.1062(4)
C20 C 0.4920(8) 0.6362(4) 0.6184(4)
C23 C 0.3052(8) 0.1105(5) 0.0560(4)
H25 H 0.2800 0.0530 0.0851
H26 H 0.2019 0.1404 0.0545
C24 C 0.3285(8) 0.5907(4) 0.5640(4)
H27 H 0.2955 0.5266 0.5805
H28 H 0.2351 0.6249 0.5759
H31 H 0.0992 0.5879 0.0344
H35 H 0.6150 0.0040 0.5727
Nd3 Nd 0.77568(4) 0.75675(2) 0.724052(18)
Nd7 Nd 0.72824(4) 0.30122(2) 0.212400(18)
O33 O 0.9184(5) 0.1829(3) 0.2029(2)
O34 O 0.4251(5) 0.2069(3) 0.1777(2)
O35 O 0.5749(5) 0.7931(3) 0.8223(2)
O36 O 0.4820(5) 0.6455(3) 0.6964(2)
O43 O 0.8792(5) 0.4676(3) 0.2651(3)
C30 C 0.1725(7) 0.5120(4) 0.3321(3)
H37 H 0.1699 0.5724 0.3081
H38 H 0.2783 0.4898 0.3183
C31 C 0.0148(8) 0.4421(4) 0.2962(3)
C33 C 0.1750(7) 0.5244(4) 0.4265(3)
H41 H 0.0734 0.5515 0.4390
H42 H 0.1634 0.4623 0.4486
C34 C 0.3360(7) 0.5856(4) 0.4709(3)
H43 H 0.4391 0.5600 0.4582
H44 H 0.3463 0.6489 0.4514
H53 H 0.947821 0.784017 0.570807
H54 H 0.928141 0.888889 0.606988
H5 H 0.1677 0.3529 0.9881
C8 C 0.0130(8) 0.4544(4) 0.9765(3)
H8 H 0.0541 0.4696 0.9231
O18 O 0.0711(5) 0.6498(3) 0.8861(2)
H40 H 0.2098 0.0331 0.8060
C35 C 0.1913(8) 0.0038(4) 0.9274(3)
H45 H 0.0777 0.0226 0.9308
C36 C 0.3320(8) 0.0829(4) 0.9683(3)
H47 H 0.3339 0.1378 0.9356
H48 H 0.4454 0.0630 0.9680
H11 H 0.3850 0.9960 0.4273
C22 C 0.4287(8) 0.8536(4) 0.6398(4)
C27 C 0.3810(8) 0.9202(5) 0.5755(4)
H33 H 0.3285 0.9687 0.6028
H34 H 0.2919 0.8849 0.5340
C28 C 0.5261(8) 0.9678(5) 0.5316(4)
H36 H 0.5793 0.9197 0.5042
O28 O 0.3029(5) 0.8057(3) 0.6711(2)
C29 C 0.0580(8) 0.9025(4) 0.8040(3)
C32 C 0.2087(7) 0.9777(4) 0.8381(3)
H39 H 0.3184 0.9548 0.8339
H46 H 0.1938 0.9481 0.9588
C11 C 0.9420(8) 0.0975(4) 0.1960(3)
C14 C 0.7913(7) 0.0223(4) 0.1619(3)
H15 H 0.6816 0.0452 0.1661
H22 H 0.8062 0.0519 0.0412
H29 H 0.8323 0.6471 0.0119
C26 C 0.9870(8) 0.5456(4) 0.0235(3)
H32 H 0.9459 0.5304 0.0769
H51 H 0.984178 0.222108 0.406103
H52 H 0.943091 0.122708 0.349288
H7 H 0.9008 0.4121 0.9656
C21 C 0.9127(8) 0.6364(4) 0.8968(4)
C25 C 0.8566(8) 0.5961(4) 0.9754(4)
H30 H 0.7475 0.5517 0.9615
H16 H 0.7902 0.9669 0.1940
C17 C 0.8087(8) 0.9962(4) 0.0726(3)
H21 H 0.9223 0.9774 0.0692
C18 C 0.6680(8) 0.9171(4) 0.0317(3)
H23 H 0.6661 0.8622 0.0644
H24 H 0.5546 0.9370 0.0320
O1 O 0.4019(5) 0.8038(3) 0.9190(2)
O2 O 0.4466(5) 0.6000(3) 0.8693(2)
C1 C 0.5471(7) 0.8246(4) 0.8938(4)
C5 C 0.6948(8) 0.8895(5) 0.9440(4)
H1 H 0.7200 0.9470 0.9149
H2 H 0.7981 0.8596 0.9455
H51_2 H 0.0158216 0.777892 0.593897
H52_2 H 0.0569088 0.877292 0.650712
H53_2 H 0.052179 0.215983 0.429193
H54_2 H 0.0718588 0.111111 0.393012
loop_
_geom_bond_atom_site_label_1
_geom_bond_atom_site_label_2
_geom_bond_site_symmetry_1
_geom_bond_site_symmetry_2
O14 Nd9 1_555 1_555
Nd9 O32 1_555 1_555
O3 C2 1_555 1_555
O5 C4 1_555 1_555
O6 Nd1 1_555 1_555
O7 C3 1_555 1_555
O8 Nd1 1_555 1_555
C2 C6 1_555 1_555
C3 C7 1_555 1_555
C4 C9 1_555 1_555
C6 H3 1_555 1_555
H4 C6 1_555 1_555
H6 C7 1_555 1_555
C9 H9 1_555 1_555
H10 C9 1_555 1_555
C10 C9 1_555 1_555
H12 C10 1_555 1_555
Nd1 O3 1_555 1_555
O9 C4 1_555 1_555
O12 C2 1_555 1_555
O13 C13 1_555 1_555
C12 H13 1_555 1_555
H14 C12 1_555 1_555
C13 C12 1_555 1_555
C15 C12 1_555 1_555
H17 C15 1_555 1_555
H18 C15 1_555 1_555
C16 C6 1_555 1_555
H19 C16 1_555 1_555
H20 C16 1_555 1_555
O15 C19 1_555 1_555
O16 Nd7 1_555 1_555
O17 C20 1_555 1_555
O20 Nd7 1_555 1_555
O22 Nd3 1_555 1_555
O23 Nd3 1_555 1_555
O25 Nd3 1_555 1_555
O27 Nd3 1_555 1_555
C19 C23 1_555 1_555
C20 C24 1_555 1_555
C23 H25 1_555 1_555
H26 C23 1_555 1_555
C24 H27 1_555 1_555
H28 C24 1_555 1_555
Nd3 O13 1_555 1_555
Nd7 O9 1_555 1_555
Nd9 O35 1_555 1_555
O33 Nd7 1_555 1_555
O34 Nd1 1_555 1_555
O35 Nd3 1_555 1_555
O36 C20 1_555 1_555
O40 Nd1 1_555 1_555
O43 Nd7 1_555 1_555
C30 H37 1_555 1_555
H38 C30 1_555 1_555
C31 O40 1_555 1_555
C33 C30 1_555 1_555
H41 C33 1_555 1_555
H42 C33 1_555 1_555
C34 C24 1_555 1_555
H43 C34 1_555 1_555
H44 C34 1_555 1_555
O5 Nd1 1_555 1_555
O7 Nd1 1_555 1_555
Nd1 O12 1_555 1_555
O12 Nd7 1_555 1_555
C15 C16 1_555 1_555
O15 Nd7 1_555 1_555
O17 Nd3 1_555 1_555
C19 O34 1_555 1_555
Nd3 O36 1_555 1_555
Nd7 O34 1_555 1_555
Nd9 O36 1_555 1_555
C30 C31 1_555 1_555
C33 C34 1_555 1_555
O23 H53 1_555 1_555
O23 H54 1_555 1_555
H8 C8 1_555 1_555
Nd9 O18 1_555 1_555
H45 C35 1_555 1_555
H47 C36 1_555 1_555
H48 C36 1_555 1_555
C35 C36 1_555 1_555
O22 C22 1_555 1_555
C22 C27 1_555 1_555
C27 H33 1_555 1_555
H34 C27 1_555 1_555
H36 C28 1_555 1_555
Nd9 O28 1_555 1_555
O28 C22 1_555 1_555
C27 C28 1_555 1_555
C32 C29 1_555 1_555
H39 C32 1_555 1_555
O32 C29 1_555 1_555
C14 C11 1_555 1_555
H15 C14 1_555 1_555
H32 C26 1_555 1_555
O33 C11 1_555 1_555
O25 C21 1_555 1_555
C21 C25 1_555 1_555
H30 C25 1_555 1_555
H21 C17 1_555 1_555
H23 C18 1_555 1_555
H24 C18 1_555 1_555
C17 C18 1_555 1_555
O1 C1 1_555 1_555
O2 Nd9 1_555 1_555
C1 C5 1_555 1_555
C5 H1 1_555 1_555
H2 C5 1_555 1_555
Nd9 O1 1_555 1_555
O35 C1 1_555 1_555
O6 H53_2 1_555 1_555
O6 H54_2 1_555 1_555

#END
