
###############################################################################
#
# This file contains modified crystal structure data generated from the
# MOF subset of the Cambridge Structural Database (CSD) v543 
# hosted by the Cambridge Crystallographic Data Centre (CCDC).
#
# This work is licensed under the Creative Commons
# Attribution-NonCommercial-ShareAlike 4.0 International License.
# To view a copy of this license, visit
# http://creativecommons.org/licenses/by-nc-sa/4.0/
# or send a letter to
# Creative Commons, PO Box 1866, Mountain View, CA 94042, USA.
#
# CIF created using the CSD Python API on 29 September 2022
# The structure has been converted into the P1 space group
# The structure has a 3D framework
# The original CSD entry CETHEQ is in the rhombohedral crystal system
# The framework has been calculated to contain at least 10.0% void space
# The void calculation uses a probe of radius 1.32A, grid spacing 0.4
#
###############################################################################

data_CETHEQ
_chemical_formula_moiety         '(C81 H198 Cu27 N54 O72)n'
_symmetry_cell_setting           triclinic
_symmetry_space_group_name_H-M   'P 1'
_symmetry_Int_Tables_number      1
_space_group_name_Hall           'P 1'
loop_
_symmetry_equiv_pos_site_id
_symmetry_equiv_pos_as_xyz
1 x,y,z
_cell_length_a                   24.9131(14)
_cell_length_b                   24.9131(14)
_cell_length_c                   10.8608(12)
_cell_angle_alpha                90
_cell_angle_beta                 90
_cell_angle_gamma                120
_cell_volume                     5837.78
loop_
_atom_site_label
_atom_site_type_symbol
_atom_site_fract_x
_atom_site_fract_y
_atom_site_fract_z
O1 O 0.4692(7) 0.3513(8) 0.1057(12)
O3 O 0.5048(2) 0.4952(2) 0.1121(9)
H5 H 0.3421 0.3032 0.0195
H10 H 0.4626 0.3208 0.1505
H11 H 0.5060 0.3673 0.0779
O8 O 0.6487(8) 0.5308(7) 0.1057(12)
H18 H 0.6968 0.6579 0.0195
H21 H 0.6792 0.5374 0.1505
H22 H 0.6327 0.4940 0.0779
N7 N 0.3737(3) 0.4131(5) 0.0607(7)
N8 N 0.5869(5) 0.6263(3) 0.0607(7)
Cu1 Cu 0.53150(4) 0.46850(4) 0.73309(13)
Cu2 Cu 0.45478(5) 0.43069(5) 0.99348(8)
O2 O 0.5375(2) 0.4625(2) 0.9130(8)
H1 H 0.5562 0.4438 0.9220
C1 C 0.4217(5) 0.3414(4) 0.6678(8)
C2 C 0.4400(5) 0.3404(5) 0.5412(9)
H2 H 0.4762 0.3805 0.5208
H3 H 0.4056 0.3324 0.4860
H4 H 0.4504 0.3076 0.5315
C3 C 0.3754(4) 0.3143(4) 0.8422(9)
C4 C 0.3309(5) 0.2777(5) 0.9449(10)
H6 H 0.3334 0.2403 0.9614
H7 H 0.2886 0.2658 0.9203
N1 N 0.4513(3) 0.3887(3) 0.7436(7)
N2 N 0.4211(3) 0.3717(4) 0.8579(7)
N3 N 0.3728(4) 0.2930(3) 0.7274(7)
O4 O 0.5822(3) 0.4178(3) 0.6737(11)
H8 H 0.6189 0.4430 0.6627
O5 O 0.5128(3) 0.4872(3) 0.5687(10)
O6 O 0.4644(5) 0.5356(5) 0.649(3)
C5 C 0.4837(8) 0.5163(8) 0.559(2)
H9 H 0.4752 0.5248 0.4784
O7 O 0.4730(3) 0.5270(3) 0.8684(16)
H12 H 0.4396 0.5061 0.8273
H13 H 0.5570 0.3811 0.6627
H14 H 0.4939 0.5604 0.8273
Cu3 Cu 0.56931(5) 0.54522(5) 0.99348(8)
C6 C 0.6586(4) 0.5783(5) 0.6678(8)
C7 C 0.6596(5) 0.5600(5) 0.5412(9)
H15 H 0.6195 0.5238 0.5208
H16 H 0.6676 0.5944 0.4860
H17 H 0.6924 0.5496 0.5315
C8 C 0.6857(4) 0.6246(4) 0.8422(9)
C9 C 0.7223(5) 0.6691(5) 0.9449(10)
H19 H 0.7597 0.6666 0.9614
H20 H 0.7342 0.7114 0.9203
N4 N 0.6113(3) 0.5487(3) 0.7436(7)
N5 N 0.6283(4) 0.5789(3) 0.8579(7)
N6 N 0.7070(3) 0.6272(4) 0.7274(7)
Cu4 Cu 0.30924(7) 0.21189(5) 0.66015(8)
Cu5 Cu 0.78811(5) 0.69076(7) 0.66015(8)
Cu1_2 Cu 0.53150(4) 0.06300(6) 0.73309(13)
Cu2_2 Cu 0.56931(5) 0.02409(7) 0.99348(8)
O2_2 O 0.5375(2) 0.0750(3) 0.9130(8)
H1_2 H 0.5562 0.1124 0.9220
C1_2 C 0.6586(4) 0.0803(6) 0.6678(8)
C2_2 C 0.6596(5) 0.0996(7) 0.5412(9)
H2_2 H 0.6195 0.0957 0.5208
H3_2 H 0.6676 0.0732 0.4860
H4_2 H 0.6924 0.1428 0.5315
C3_2 C 0.6857(4) 0.0611(6) 0.8422(9)
C4_2 C 0.7223(5) 0.0532(7) 0.9449(10)
H6_2 H 0.7597 0.0931 0.9614
H7_2 H 0.7342 0.0228 0.9203
N1_2 N 0.6113(3) 0.0626(4) 0.7436(7)
N2_2 N 0.6283(4) 0.0494(5) 0.8579(7)
N3_2 N 0.7070(3) 0.0798(5) 0.7274(7)
O4_2 O 0.5822(3) 0.1644(4) 0.6737(11)
H8_2 H 0.5570 0.1759 0.6627
O5_2 O 0.5128(3) 0.0256(4) 0.5687(10)
H13_2 H 0.6189 0.1759 0.6627
Cu3_2 Cu 0.45478(5) 0.02409(7) 0.99348(8)
C6_2 C 0.4217(5) 0.0803(6) 0.6678(8)
C7_2 C 0.4400(5) 0.0996(7) 0.5412(9)
H15_2 H 0.4762 0.0957 0.5208
H16_2 H 0.4056 0.0732 0.4860
H17_2 H 0.4504 0.1428 0.5315
C8_2 C 0.3754(4) 0.0611(6) 0.8422(9)
C9_2 C 0.3309(5) 0.0532(7) 0.9449(10)
H19_2 H 0.3334 0.0931 0.9614
H20_2 H 0.2886 0.0228 0.9203
N4_2 N 0.4513(3) 0.0626(4) 0.7436(7)
N5_2 N 0.4211(3) 0.0494(5) 0.8579(7)
N6_2 N 0.3728(4) 0.0798(5) 0.7274(7)
Cu4_2 Cu 0.78811(5) 0.09736(9) 0.66015(8)
Cu5_2 Cu 0.30924(7) 0.09736(9) 0.66015(8)
N7_2 N 0.5869(5) 0.9605(6) 0.0607(7)
N8_2 N 0.3737(3) 0.9605(6) 0.0607(7)
N7_3 N 0.0395(6) 0.6263(3) 0.0607(7)
N8_3 N 0.0395(6) 0.4131(5) 0.0607(7)
Cu1_3 Cu 0.93700(6) 0.46850(4) 0.73309(13)
Cu2_3 Cu 0.97591(7) 0.54522(5) 0.99348(8)
O2_3 O 0.9250(3) 0.4625(2) 0.9130(8)
H1_3 H 0.8876 0.4438 0.9220
C1_3 C 0.9197(6) 0.5783(5) 0.6678(8)
C2_3 C 0.9004(7) 0.5600(5) 0.5412(9)
H2_3 H 0.9043 0.5238 0.5208
H3_3 H 0.9268 0.5944 0.4860
H4_3 H 0.8572 0.5496 0.5315
C3_3 C 0.9389(6) 0.6246(4) 0.8422(9)
C4_3 C 0.9468(7) 0.6691(5) 0.9449(10)
H6_3 H 0.9069 0.6666 0.9614
H7_3 H 0.9772 0.7114 0.9203
N1_3 N 0.9374(4) 0.5487(3) 0.7436(7)
N2_3 N 0.9506(5) 0.5789(3) 0.8579(7)
N3_3 N 0.9202(5) 0.6272(4) 0.7274(7)
O4_3 O 0.8356(4) 0.4178(3) 0.6737(11)
H8_3 H 0.8241 0.3811 0.6627
O5_3 O 0.9744(4) 0.4872(3) 0.5687(10)
H13_3 H 0.8241 0.4430 0.6627
Cu3_3 Cu 0.97591(7) 0.43069(5) 0.99348(8)
C6_3 C 0.9197(6) 0.3414(4) 0.6678(8)
C7_3 C 0.9004(7) 0.3404(5) 0.5412(9)
H15_3 H 0.9043 0.3805 0.5208
H16_3 H 0.9268 0.3324 0.4860
H17_3 H 0.8572 0.3076 0.5315
C8_3 C 0.9389(6) 0.3143(4) 0.8422(9)
C9_3 C 0.9468(7) 0.2777(5) 0.9449(10)
H19_3 H 0.9069 0.2403 0.9614
H20_3 H 0.9772 0.2658 0.9203
N4_3 N 0.9374(4) 0.3887(3) 0.7436(7)
N5_3 N 0.9506(5) 0.3717(4) 0.8579(7)
N6_3 N 0.9202(5) 0.2930(3) 0.7274(7)
Cu4_3 Cu 0.90264(9) 0.69076(7) 0.66015(8)
Cu5_3 Cu 0.90264(9) 0.21189(5) 0.66015(8)
O1_2 O 0.1359(7) 0.6846(8) 0.4390(12)
Cu1_4 Cu 0.19817(4) 0.80183(4) 0.06642(13)
Cu2_4 Cu 0.12145(5) 0.76402(5) 0.32681(8)
O2_4 O 0.2042(2) 0.7958(2) 0.2463(8)
H1_4 H 0.2229 0.7771 0.2553
O3_2 O 0.1715(2) 0.8285(2) 0.4454(9)
C1_4 C 0.0884(5) 0.6747(4) 0.0011(8)
C3_4 C 0.0421(4) 0.6476(4) 0.1755(9)
H5_2 H 0.0088 0.6365 0.3528
H6_4 H 0.0001 0.5736 0.2947
N1_4 N 0.1180(3) 0.7220(3) 0.0769(7)
N2_4 N 0.0878(3) 0.7050(4) 0.1912(7)
O4_4 O 0.2489(3) 0.7511(3) 0.0070(11)
H10_2 H 0.1293 0.6541 0.4838
H11_2 H 0.1727 0.7006 0.4112
O7_2 O 0.1397(3) 0.8603(3) 0.2017(16)
H12_2 H 0.1063 0.8394 0.1606
H14_2 H 0.1606 0.8937 0.1606
O8_2 O 0.3154(8) 0.8641(7) 0.4390(12)
Cu3_4 Cu 0.23598(5) 0.87855(5) 0.32681(8)
C6_4 C 0.3253(4) 0.9116(5) 0.0011(8)
C8_4 C 0.3524(4) 0.9579(4) 0.1755(9)
H18_2 H 0.3635 0.9912 0.3528
H19_4 H 0.4264 0.9999 0.2947
N4_4 N 0.2780(3) 0.8820(3) 0.0769(7)
N5_4 N 0.2950(4) 0.9122(3) 0.1912(7)
H21_2 H 0.3459 0.8707 0.4838
H22_2 H 0.2994 0.8273 0.4112
N7_4 N 0.0403(3) 0.7465(5) 0.3941(7)
N8_4 N 0.2535(5) 0.9597(3) 0.3941(7)
O1_3 O 0.3154(8) 0.4512(11) 0.4390(12)
Cu1_5 Cu 0.19817(4) 0.39633(6) 0.06642(13)
Cu2_5 Cu 0.23598(5) 0.35742(7) 0.32681(8)
O2_5 O 0.2042(2) 0.4083(3) 0.2463(8)
H1_5 H 0.2229 0.4457 0.2553
O3_3 O 0.1715(2) 0.3429(3) 0.4454(9)
C1_5 C 0.3253(4) 0.4136(6) 0.0011(8)
C3_5 C 0.3524(4) 0.3944(6) 0.1755(9)
C4_4 C 0.3890(5) 0.3865(7) 0.2782(10)
H5_3 H 0.3635 0.3722 0.3528
H6_5 H 0.4264 0.4264 0.2947
H7_4 H 0.4009 0.3561 0.2536
N1_5 N 0.2780(3) 0.3959(4) 0.0769(7)
N2_5 N 0.2950(4) 0.3827(5) 0.1912(7)
O4_5 O 0.2489(3) 0.4977(4) 0.0070(11)
H10_3 H 0.3459 0.4751 0.4838
H11_3 H 0.2994 0.4720 0.4112
O7_3 O 0.1397(3) 0.2793(4) 0.2017(16)
H12_3 H 0.1606 0.2668 0.1606
H14_3 H 0.1063 0.2668 0.1606
O8_3 O 0.1359(7) 0.4512(11) 0.4390(12)
Cu3_5 Cu 0.12145(5) 0.35742(7) 0.32681(8)
C6_5 C 0.0884(5) 0.4136(6) 0.0011(8)
C8_5 C 0.0421(4) 0.3944(6) 0.1755(9)
H18_3 H 0.0088 0.3722 0.3528
H19_5 H 0.0001 0.4264 0.2947
N4_5 N 0.1180(3) 0.3959(4) 0.0769(7)
N5_5 N 0.0878(3) 0.3827(5) 0.1912(7)
H21_3 H 0.1293 0.4751 0.4838
H22_3 H 0.1727 0.4720 0.4112
N7_5 N 0.2535(5) 0.2939(6) 0.3941(7)
N8_5 N 0.0403(3) 0.2939(6) 0.3941(7)
C2_4 C 0.3263(5) 0.4329(7) 0.8745(9)
H2_4 H 0.2862 0.4290 0.8541
H3_4 H 0.3343 0.4065 0.8193
H4_4 H 0.3591 0.4761 0.8648
H8_4 H 0.2237 0.5092 0.9960
O5_4 O 0.1795(3) 0.3589(4) 0.9020(10)
O6_2 O 0.1311(5) 0.2621(7) 0.982(3)
C5_2 C 0.1504(8) 0.3007(11) 0.892(2)
H9_2 H 0.1419 0.2837 0.8117
H13_4 H 0.2856 0.5092 0.9960
C7_4 C 0.1067(5) 0.4329(7) 0.8745(9)
H15_4 H 0.1429 0.4290 0.8541
H16_4 H 0.0723 0.4065 0.8193
H17_4 H 0.1171 0.4761 0.8648
O1_4 O 0.5488(11) 0.8641(7) 0.4390(12)
Cu1_6 Cu 0.60367(6) 0.80183(4) 0.06642(13)
Cu2_6 Cu 0.64258(7) 0.87855(5) 0.32681(8)
O2_6 O 0.5917(3) 0.7958(2) 0.2463(8)
H1_6 H 0.5543 0.7771 0.2553
O3_4 O 0.6571(3) 0.8285(2) 0.4454(9)
C1_6 C 0.5864(6) 0.9116(5) 0.0011(8)
C3_6 C 0.6056(6) 0.9579(4) 0.1755(9)
H5_4 H 0.6278 0.9912 0.3528
H6_6 H 0.5736 0.9999 0.2947
N1_6 N 0.6041(4) 0.8820(3) 0.0769(7)
N2_6 N 0.6173(5) 0.9122(3) 0.1912(7)
O4_6 O 0.5023(4) 0.7511(3) 0.0070(11)
H10_4 H 0.5249 0.8707 0.4838
H11_4 H 0.5280 0.8273 0.4112
O7_4 O 0.7207(4) 0.8603(3) 0.2017(16)
H12_4 H 0.7332 0.8937 0.1606
H14_4 H 0.7332 0.8394 0.1606
O8_4 O 0.5488(11) 0.6846(8) 0.4390(12)
Cu3_6 Cu 0.64258(7) 0.76402(5) 0.32681(8)
C6_6 C 0.5864(6) 0.6747(4) 0.0011(8)
C8_6 C 0.6056(6) 0.6476(4) 0.1755(9)
C9_4 C 0.6135(7) 0.6110(5) 0.2782(10)
H18_4 H 0.6278 0.6365 0.3528
H19_6 H 0.5736 0.5736 0.2947
H20_4 H 0.6439 0.5991 0.2536
N4_6 N 0.6041(4) 0.7220(3) 0.0769(7)
N5_6 N 0.6173(5) 0.7050(4) 0.1912(7)
H21_4 H 0.5249 0.6541 0.4838
H22_4 H 0.5280 0.7006 0.4112
N7_6 N 0.7061(6) 0.9597(3) 0.3941(7)
N8_6 N 0.7061(6) 0.7465(5) 0.3941(7)
C2_5 C 0.5671(7) 0.8933(5) 0.8745(9)
H2_5 H 0.5710 0.8571 0.8541
H3_5 H 0.5935 0.9277 0.8193
H4_5 H 0.5239 0.8829 0.8648
H8_5 H 0.4908 0.7144 0.9960
O5_5 O 0.6411(4) 0.8205(3) 0.9020(10)
O6_3 O 0.7379(7) 0.8689(5) 0.982(3)
C5_3 C 0.6993(11) 0.8496(8) 0.892(2)
H9_3 H 0.7163 0.8581 0.8117
H13_5 H 0.4908 0.7763 0.9960
C7_5 C 0.5671(7) 0.6737(5) 0.8745(9)
H15_5 H 0.5710 0.7138 0.8541
H16_5 H 0.5935 0.6657 0.8193
H17_5 H 0.5239 0.6409 0.8648
H16_6 H 0.0009 0.2611 0.1527
H17_6 H 0.0257 0.2163 0.1982
C8_7 C 0.0190(4) 0.2913(4) 0.5089(9)
C9_5 C 0.0556(5) 0.3358(5) 0.6116(10)
H18_5 H 0.0301 0.3246 0.6862
H19_7 H 0.0930 0.3333 0.6281
H20_5 H 0.0675 0.3781 0.5870
H21_5 H 0.0125 0.2041 0.8172
O1_5 O 0.8025(7) 0.0180(8) 0.7724(12)
Cu1_7 Cu 0.86483(4) 0.13517(4) 0.39976(13)
O2_7 O 0.8708(2) 0.1292(2) 0.5797(8)
H1_7 H 0.8895 0.1105 0.5887
O3_5 O 0.8381(2) 0.1619(2) 0.7788(9)
C1_7 C 0.7550(5) 0.0081(4) 0.3345(8)
C2_6 C 0.7733(5) 0.0071(5) 0.2079(9)
H2_6 H 0.8095 0.0472 0.1875
N1_7 N 0.7846(3) 0.0554(3) 0.4103(7)
N2_7 N 0.7544(3) 0.0384(4) 0.5246(7)
O4_7 O 0.9155(3) 0.0845(3) 0.3404(11)
H8_6 H 0.9522 0.1097 0.3294
O5_6 O 0.8461(3) 0.1539(3) 0.2354(10)
O6_4 O 0.7977(5) 0.2023(5) 0.316(3)
C5_4 C 0.8170(8) 0.1830(8) 0.226(2)
H9_4 H 0.8085 0.1915 0.1451
H11_5 H 0.8393 0.0340 0.7446
O7_5 O 0.8063(3) 0.1937(3) 0.5351(16)
H12_5 H 0.7729 0.1728 0.4940
H13_6 H 0.8903 0.0478 0.3294
H14_5 H 0.8272 0.2271 0.4940
O8_5 O 0.9820(8) 0.1975(7) 0.7724(12)
C6_7 C 0.9919(4) 0.2450(5) 0.3345(8)
C7_6 C 0.9929(5) 0.2267(5) 0.2079(9)
H15_6 H 0.9528 0.1905 0.1875
N4_7 N 0.9446(3) 0.2154(3) 0.4103(7)
N5_7 N 0.9616(4) 0.2456(3) 0.5246(7)
H22_5 H 0.9660 0.1607 0.7446
H3_6 H 0.7389 0.9991 0.1527
H4_6 H 0.7837 0.9743 0.1982
C3_7 C 0.7087(4) 0.9810(4) 0.5089(9)
C4_5 C 0.6642(5) 0.9444(5) 0.6116(10)
H5_5 H 0.6754 0.9699 0.6862
H6_7 H 0.6667 0.9070 0.6281
H7_5 H 0.6219 0.9325 0.5870
H10_5 H 0.7959 0.9875 0.8172
H3_7 H 0.0009 0.7399 0.1527
H4_7 H 0.0257 0.8095 0.1982
C3_8 C 0.0190(4) 0.7278(6) 0.5089(9)
C4_6 C 0.0556(5) 0.7199(7) 0.6116(10)
H5_6 H 0.0301 0.7056 0.6862
H6_8 H 0.0930 0.7598 0.6281
H7_6 H 0.0675 0.6895 0.5870
H10_6 H 0.0125 0.8085 0.8172
O1_6 O 0.9820(8) 0.7846(11) 0.7724(12)
Cu1_8 Cu 0.86483(4) 0.72967(6) 0.39976(13)
O2_8 O 0.8708(2) 0.7417(3) 0.5797(8)
H1_8 H 0.8895 0.7791 0.5887
O3_6 O 0.8381(2) 0.6763(3) 0.7788(9)
C1_8 C 0.9919(4) 0.7470(6) 0.3345(8)
C2_7 C 0.9929(5) 0.7663(7) 0.2079(9)
H2_7 H 0.9528 0.7624 0.1875
N1_8 N 0.9446(3) 0.7293(4) 0.4103(7)
N2_8 N 0.9616(4) 0.7161(5) 0.5246(7)
O4_8 O 0.9155(3) 0.8311(4) 0.3404(11)
H8_7 H 0.8903 0.8426 0.3294
O5_7 O 0.8461(3) 0.6923(4) 0.2354(10)
O6_5 O 0.7977(5) 0.5955(7) 0.316(3)
C5_5 C 0.8170(8) 0.6341(11) 0.226(2)
H9_5 H 0.8085 0.6171 0.1451
H11_6 H 0.9660 0.8054 0.7446
O7_6 O 0.8063(3) 0.6127(4) 0.5351(16)
H12_6 H 0.8272 0.6002 0.4940
H13_7 H 0.9522 0.8426 0.3294
H14_6 H 0.7729 0.6002 0.4940
O8_6 O 0.8025(7) 0.7846(11) 0.7724(12)
C6_8 C 0.7550(5) 0.7470(6) 0.3345(8)
C7_7 C 0.7733(5) 0.7663(7) 0.2079(9)
H15_7 H 0.8095 0.7624 0.1875
H16_7 H 0.7389 0.7399 0.1527
H17_7 H 0.7837 0.8095 0.1982
C8_8 C 0.7087(4) 0.7278(6) 0.5089(9)
C9_6 C 0.6642(5) 0.7199(7) 0.6116(10)
H18_6 H 0.6754 0.7056 0.6862
H19_8 H 0.6667 0.7598 0.6281
H20_6 H 0.6219 0.6895 0.5870
N4_8 N 0.7846(3) 0.7293(4) 0.4103(7)
N5_8 N 0.7544(3) 0.7161(5) 0.5246(7)
H21_6 H 0.7959 0.8085 0.8172
H22_6 H 0.8393 0.8054 0.7446
O1_7 O 0.2154(11) 0.1975(7) 0.7724(12)
Cu1_9 Cu 0.27033(6) 0.13517(4) 0.39976(13)
O2_9 O 0.2583(3) 0.1292(2) 0.5797(8)
H1_9 H 0.2209 0.1105 0.5887
O3_7 O 0.3237(3) 0.1619(2) 0.7788(9)
C1_9 C 0.2530(6) 0.2450(5) 0.3345(8)
C2_8 C 0.2337(7) 0.2267(5) 0.2079(9)
H2_8 H 0.2376 0.1905 0.1875
H3_8 H 0.2601 0.2611 0.1527
H4_8 H 0.1905 0.2163 0.1982
C3_9 C 0.2722(6) 0.2913(4) 0.5089(9)
C4_7 C 0.2801(7) 0.3358(5) 0.6116(10)
H5_7 H 0.2944 0.3246 0.6862
H6_9 H 0.2402 0.3333 0.6281
H7_7 H 0.3105 0.3781 0.5870
N1_9 N 0.2707(4) 0.2154(3) 0.4103(7)
N2_9 N 0.2839(5) 0.2456(3) 0.5246(7)
O4_9 O 0.1689(4) 0.0845(3) 0.3404(11)
H8_8 H 0.1574 0.0478 0.3294
O5_8 O 0.3077(4) 0.1539(3) 0.2354(10)
O6_6 O 0.4045(7) 0.2023(5) 0.316(3)
C5_6 C 0.3659(11) 0.1830(8) 0.226(2)
H9_6 H 0.3829 0.1915 0.1451
H10_7 H 0.1915 0.2041 0.8172
H11_7 H 0.1946 0.1607 0.7446
O7_7 O 0.3873(4) 0.1937(3) 0.5351(16)
H12_7 H 0.3998 0.2271 0.4940
H13_8 H 0.1574 0.1097 0.3294
H14_7 H 0.3998 0.1728 0.4940
O8_7 O 0.2154(11) 0.0180(8) 0.7724(12)
C6_9 C 0.2530(6) 0.0081(4) 0.3345(8)
C7_8 C 0.2337(7) 0.0071(5) 0.2079(9)
H15_8 H 0.2376 0.0472 0.1875
N4_9 N 0.2707(4) 0.0554(3) 0.4103(7)
N5_9 N 0.2839(5) 0.0384(4) 0.5246(7)
H22_7 H 0.1946 0.0340 0.7446
H16_8 H 0.2601 0.9991 0.1527
H17_8 H 0.1905 0.9743 0.1982
C8_9 C 0.2722(6) 0.9810(4) 0.5089(9)
C9_7 C 0.2801(7) 0.9444(5) 0.6116(10)
H18_7 H 0.2944 0.9699 0.6862
H19_9 H 0.2402 0.9070 0.6281
H20_7 H 0.3105 0.9325 0.5870
H21_7 H 0.1915 0.9875 0.8172
O1_8 O 0.6487(8) 0.1179(11) 0.1057(12)
O3_8 O 0.5048(2) 0.0096(3) 0.1121(9)
H5_8 H 0.6968 0.0389 0.0195
H10_8 H 0.6792 0.1418 0.1505
H11_8 H 0.6327 0.1387 0.0779
O8_8 O 0.4692(7) 0.1179(11) 0.1057(12)
H18_8 H 0.3421 0.0389 0.0195
H21_8 H 0.4626 0.1418 0.1505
H22_8 H 0.5060 0.1387 0.0779
O6_7 O 0.4644(5) 0.9288(7) 0.649(3)
C5_7 C 0.4837(8) 0.9674(11) 0.559(2)
H9_7 H 0.4752 0.9504 0.4784
O7_8 O 0.4730(3) 0.9460(4) 0.8684(16)
H12_8 H 0.4939 0.9335 0.8273
H14_8 H 0.4396 0.9335 0.8273
O6_8 O 0.0712(7) 0.5356(5) 0.649(3)
C5_8 C 0.0326(11) 0.5163(8) 0.559(2)
H9_8 H 0.0496 0.5248 0.4784
O7_9 O 0.0540(4) 0.5270(3) 0.8684(16)
H12_9 H 0.0665 0.5604 0.8273
H14_9 H 0.0665 0.5061 0.8273
O1_9 O 0.8821(11) 0.5308(7) 0.1057(12)
O3_9 O 0.9904(3) 0.4952(2) 0.1121(9)
H5_9 H 0.9611 0.6579 0.0195
H10_9 H 0.8582 0.5374 0.1505
H11_9 H 0.8613 0.4940 0.0779
O8_9 O 0.8821(11) 0.3513(8) 0.1057(12)
H18_9 H 0.9611 0.3032 0.0195
H21_9 H 0.8582 0.3208 0.1505
H22_9 H 0.8613 0.3673 0.0779
C9_8 C 0.3890(5) 0.0024(5) 0.2782(10)
H20_8 H 0.4009 0.0447 0.2536
C2_9 C 0.1067(5) 0.6737(5) 0.8745(9)
H2_9 H 0.1429 0.7138 0.8541
H3_9 H 0.0723 0.6657 0.8193
H4_9 H 0.1171 0.6409 0.8648
H8_9 H 0.2856 0.7763 0.9960
O5_9 O 0.1795(3) 0.8205(3) 0.9020(10)
O6_9 O 0.1311(5) 0.8689(5) 0.982(3)
C5_9 C 0.1504(8) 0.8496(8) 0.892(2)
H9_9 H 0.1419 0.8581 0.8117
H13_9 H 0.2237 0.7144 0.9960
C7_9 C 0.3263(5) 0.8933(5) 0.8745(9)
H15_9 H 0.2862 0.8571 0.8541
H16_9 H 0.3343 0.9277 0.8193
H17_9 H 0.3591 0.8829 0.8648
C4_8 C 0.9976(5) 0.6110(5) 0.2782(10)
H7_8 H 0.9553 0.5991 0.2536
C9_9 C 0.9976(5) 0.3865(7) 0.2782(10)
H20_9 H 0.9553 0.3561 0.2536
C4_9 C 0.6135(7) 0.0024(5) 0.2782(10)
H7_9 H 0.6439 0.0447 0.2536
loop_
_geom_bond_atom_site_label_1
_geom_bond_atom_site_label_2
_geom_bond_site_symmetry_1
_geom_bond_site_symmetry_2
H10 O1 1_555 1_555
H11 O1 1_555 1_555
H21 O8 1_555 1_555
H22 O8 1_555 1_555
Cu1 O2 1_555 1_555
Cu2 O2 1_555 1_555
O2 H1 1_555 1_555
C1 C2 1_555 1_555
C2 H2 1_555 1_555
H3 C2 1_555 1_555
H4 C2 1_555 1_555
C3 C4 1_555 1_555
H6 C4 1_555 1_555
H7 C4 1_555 1_555
N1 Cu1 1_555 1_555
N2 Cu2 1_555 1_555
N3 C1 1_555 1_555
O4 Cu1 1_555 1_555
H8 O4 1_555 1_555
O5 Cu1 1_555 1_555
O6 C5 1_555 1_555
C5 O5 1_555 1_555
H9 C5 1_555 1_555
O7 Cu2 1_555 1_555
H12 O7 1_555 1_555
H13 O4 1_555 1_555
H14 O7 1_555 1_555
Cu3 Cu2 1_555 1_555
C6 C7 1_555 1_555
C7 H15 1_555 1_555
H16 C7 1_555 1_555
H17 C7 1_555 1_555
C8 C9 1_555 1_555
H19 C9 1_555 1_555
H20 C9 1_555 1_555
N4 Cu1 1_555 1_555
N5 Cu3 1_555 1_555
N6 C6 1_555 1_555
Cu4 N3 1_555 1_555
Cu5 N6 1_555 1_555
O2 Cu3 1_555 1_555
C1 N1 1_555 1_555
C3 N2 1_555 1_555
C3 N3 1_555 1_555
N1 N2 1_555 1_555
O7 Cu3 1_555 1_555
C6 N4 1_555 1_555
C8 N5 1_555 1_555
C8 N6 1_555 1_555
N4 N5 1_555 1_555
Cu1_2 O2_2 1_555 1_555
Cu2_2 O2_2 1_555 1_555
O2_2 H1_2 1_555 1_555
C1_2 C2_2 1_555 1_555
C2_2 H2_2 1_555 1_555
H3_2 C2_2 1_555 1_555
H4_2 C2_2 1_555 1_555
C3_2 C4_2 1_555 1_555
H6_2 C4_2 1_555 1_555
H7_2 C4_2 1_555 1_555
N1_2 Cu1_2 1_555 1_555
N2_2 Cu2_2 1_555 1_555
N3_2 C1_2 1_555 1_555
O4_2 Cu1_2 1_555 1_555
H8_2 O4_2 1_555 1_555
O5_2 Cu1_2 1_555 1_555
H13_2 O4_2 1_555 1_555
Cu3_2 Cu2_2 1_555 1_555
C6_2 C7_2 1_555 1_555
C7_2 H15_2 1_555 1_555
H16_2 C7_2 1_555 1_555
H17_2 C7_2 1_555 1_555
C8_2 C9_2 1_555 1_555
H19_2 C9_2 1_555 1_555
H20_2 C9_2 1_555 1_555
N4_2 Cu1_2 1_555 1_555
N5_2 Cu3_2 1_555 1_555
N6_2 C6_2 1_555 1_555
Cu4_2 N3_2 1_555 1_555
Cu5_2 N6_2 1_555 1_555
O2_2 Cu3_2 1_555 1_555
C1_2 N1_2 1_555 1_555
C3_2 N2_2 1_555 1_555
C3_2 N3_2 1_555 1_555
N1_2 N2_2 1_555 1_555
C6_2 N4_2 1_555 1_555
C8_2 N5_2 1_555 1_555
C8_2 N6_2 1_555 1_555
N4_2 N5_2 1_555 1_555
Cu1_3 O2_3 1_555 1_555
Cu2_3 O2_3 1_555 1_555
O2_3 H1_3 1_555 1_555
C1_3 C2_3 1_555 1_555
C2_3 H2_3 1_555 1_555
H3_3 C2_3 1_555 1_555
H4_3 C2_3 1_555 1_555
C3_3 C4_3 1_555 1_555
H6_3 C4_3 1_555 1_555
H7_3 C4_3 1_555 1_555
N1_3 Cu1_3 1_555 1_555
N2_3 Cu2_3 1_555 1_555
N3_3 C1_3 1_555 1_555
O4_3 Cu1_3 1_555 1_555
H8_3 O4_3 1_555 1_555
O5_3 Cu1_3 1_555 1_555
H13_3 O4_3 1_555 1_555
Cu3_3 Cu2_3 1_555 1_555
C6_3 C7_3 1_555 1_555
C7_3 H15_3 1_555 1_555
H16_3 C7_3 1_555 1_555
H17_3 C7_3 1_555 1_555
C8_3 C9_3 1_555 1_555
H19_3 C9_3 1_555 1_555
H20_3 C9_3 1_555 1_555
N4_3 Cu1_3 1_555 1_555
N5_3 Cu3_3 1_555 1_555
N6_3 C6_3 1_555 1_555
Cu4_3 N3_3 1_555 1_555
Cu5_3 N6_3 1_555 1_555
O2_3 Cu3_3 1_555 1_555
C1_3 N1_3 1_555 1_555
C3_3 N2_3 1_555 1_555
C3_3 N3_3 1_555 1_555
N1_3 N2_3 1_555 1_555
C6_3 N4_3 1_555 1_555
C8_3 N5_3 1_555 1_555
C8_3 N6_3 1_555 1_555
N4_3 N5_3 1_555 1_555
O1_2 Cu2_4 1_555 1_555
Cu1_4 O2_4 1_555 1_555
Cu2_4 O2_4 1_555 1_555
O2_4 H1_4 1_555 1_555
O3_2 Cu2_4 1_555 1_555
N1_4 Cu1_4 1_555 1_555
N2_4 Cu2_4 1_555 1_555
N7_3 C1_4 1_555 1_555
O4_4 Cu1_4 1_555 1_555
H10_2 O1_2 1_555 1_555
H11_2 O1_2 1_555 1_555
O7_2 Cu2_4 1_555 1_555
H12_2 O7_2 1_555 1_555
H14_2 O7_2 1_555 1_555
O8_2 Cu3_4 1_555 1_555
Cu3_4 Cu2_4 1_555 1_555
N4_4 Cu1_4 1_555 1_555
N5_4 Cu3_4 1_555 1_555
N8_2 C6_4 1_555 1_555
H21_2 O8_2 1_555 1_555
H22_2 O8_2 1_555 1_555
N7_4 Cu2_4 1_555 1_555
N8_4 Cu3_4 1_555 1_555
O2_4 Cu3_4 1_555 1_555
O3_2 Cu3_4 1_555 1_555
C1_4 N1_4 1_555 1_555
C3_4 N2_4 1_555 1_555
C3_4 N7_3 1_555 1_555
N1_4 N2_4 1_555 1_555
O7_2 Cu3_4 1_555 1_555
C6_4 N4_4 1_555 1_555
C8_4 N5_4 1_555 1_555
C8_4 N8_2 1_555 1_555
N4_4 N5_4 1_555 1_555
O1_3 Cu2_5 1_555 1_555
Cu1_5 O2_5 1_555 1_555
Cu2_5 O2_5 1_555 1_555
O2_5 H1_5 1_555 1_555
O3_3 Cu2_5 1_555 1_555
C3_5 C4_4 1_555 1_555
C4_4 H5_3 1_555 1_555
H6_5 C4_4 1_555 1_555
H7_4 C4_4 1_555 1_555
N1_5 Cu1_5 1_555 1_555
N2_5 Cu2_5 1_555 1_555
N7 C1_5 1_555 1_555
O4_5 Cu1_5 1_555 1_555
H10_3 O1_3 1_555 1_555
H11_3 O1_3 1_555 1_555
O7_3 Cu2_5 1_555 1_555
H12_3 O7_3 1_555 1_555
H14_3 O7_3 1_555 1_555
O8_3 Cu3_5 1_555 1_555
Cu3_5 Cu2_5 1_555 1_555
N4_5 Cu1_5 1_555 1_555
N5_5 Cu3_5 1_555 1_555
N8_3 C6_5 1_555 1_555
H21_3 O8_3 1_555 1_555
H22_3 O8_3 1_555 1_555
N7_5 Cu2_5 1_555 1_555
N8_5 Cu3_5 1_555 1_555
O2_5 Cu3_5 1_555 1_555
O3_3 Cu3_5 1_555 1_555
C1_5 N1_5 1_555 1_555
C3_5 N2_5 1_555 1_555
C3_5 N7 1_555 1_555
N1_5 N2_5 1_555 1_555
O7_3 Cu3_5 1_555 1_555
C6_5 N4_5 1_555 1_555
C8_5 N5_5 1_555 1_555
C8_5 N8_3 1_555 1_555
N4_5 N5_5 1_555 1_555
C2_4 H2_4 1_555 1_555
H3_4 C2_4 1_555 1_555
H4_4 C2_4 1_555 1_555
O6_2 C5_2 1_555 1_555
C5_2 O5_4 1_555 1_555
H9_2 C5_2 1_555 1_555
C7_4 H15_4 1_555 1_555
H16_4 C7_4 1_555 1_555
H17_4 C7_4 1_555 1_555
O1_4 Cu2_6 1_555 1_555
Cu1_6 O2_6 1_555 1_555
Cu2_6 O2_6 1_555 1_555
O2_6 H1_6 1_555 1_555
O3_4 Cu2_6 1_555 1_555
N1_6 Cu1_6 1_555 1_555
N2_6 Cu2_6 1_555 1_555
N7_2 C1_6 1_555 1_555
O4_6 Cu1_6 1_555 1_555
H10_4 O1_4 1_555 1_555
H11_4 O1_4 1_555 1_555
O7_4 Cu2_6 1_555 1_555
H12_4 O7_4 1_555 1_555
H14_4 O7_4 1_555 1_555
O8_4 Cu3_6 1_555 1_555
Cu3_6 Cu2_6 1_555 1_555
C8_6 C9_4 1_555 1_555
C9_4 H18_4 1_555 1_555
H19_6 C9_4 1_555 1_555
H20_4 C9_4 1_555 1_555
N4_6 Cu1_6 1_555 1_555
N5_6 Cu3_6 1_555 1_555
N8 C6_6 1_555 1_555
H21_4 O8_4 1_555 1_555
H22_4 O8_4 1_555 1_555
N7_6 Cu2_6 1_555 1_555
N8_6 Cu3_6 1_555 1_555
O2_6 Cu3_6 1_555 1_555
O3_4 Cu3_6 1_555 1_555
C1_6 N1_6 1_555 1_555
C3_6 N2_6 1_555 1_555
C3_6 N7_2 1_555 1_555
N1_6 N2_6 1_555 1_555
O7_4 Cu3_6 1_555 1_555
C6_6 N4_6 1_555 1_555
C8_6 N5_6 1_555 1_555
C8_6 N8 1_555 1_555
N4_6 N5_6 1_555 1_555
C2_5 H2_5 1_555 1_555
H3_5 C2_5 1_555 1_555
H4_5 C2_5 1_555 1_555
O6_3 C5_3 1_555 1_555
C5_3 O5_5 1_555 1_555
H9_3 C5_3 1_555 1_555
C7_5 H15_5 1_555 1_555
H16_5 C7_5 1_555 1_555
H17_5 C7_5 1_555 1_555
C8_7 C9_5 1_555 1_555
C9_5 H18_5 1_555 1_555
H19_7 C9_5 1_555 1_555
H20_5 C9_5 1_555 1_555
C8_7 N8_5 1_555 1_555
O1_5 Cu4_2 1_555 1_555
Cu1_7 O2_7 1_555 1_555
Cu4_2 O2_7 1_555 1_555
O2_7 H1_7 1_555 1_555
O3_5 Cu4_2 1_555 1_555
C1_7 C2_6 1_555 1_555
C2_6 H2_6 1_555 1_555
N1_7 Cu1_7 1_555 1_555
N2_7 Cu4_2 1_555 1_555
O4_7 Cu1_7 1_555 1_555
H8_6 O4_7 1_555 1_555
O5_6 Cu1_7 1_555 1_555
O6_4 C5_4 1_555 1_555
C5_4 O5_6 1_555 1_555
H9_4 C5_4 1_555 1_555
H11_5 O1_5 1_555 1_555
O7_5 Cu4_2 1_555 1_555
H12_5 O7_5 1_555 1_555
H13_6 O4_7 1_555 1_555
H14_5 O7_5 1_555 1_555
O8_5 Cu5_3 1_555 1_555
Cu5_3 Cu4_2 1_555 1_555
C6_7 C7_6 1_555 1_555
C7_6 H15_6 1_555 1_555
N4_7 Cu1_7 1_555 1_555
N5_7 Cu5_3 1_555 1_555
H22_5 O8_5 1_555 1_555
O2_7 Cu5_3 1_555 1_555
O3_5 Cu5_3 1_555 1_555
C1_7 N1_7 1_555 1_555
N1_7 N2_7 1_555 1_555
O7_5 Cu5_3 1_555 1_555
C6_7 N4_7 1_555 1_555
N4_7 N5_7 1_555 1_555
C3_7 C4_5 1_555 1_555
C4_5 H5_5 1_555 1_555
H6_7 C4_5 1_555 1_555
H7_5 C4_5 1_555 1_555
C3_7 N7_6 1_555 1_555
C3_8 C4_6 1_555 1_555
C4_6 H5_6 1_555 1_555
H6_8 C4_6 1_555 1_555
H7_6 C4_6 1_555 1_555
C3_8 N7_4 1_555 1_555
O1_6 Cu4_3 1_555 1_555
Cu1_8 O2_8 1_555 1_555
Cu4_3 O2_8 1_555 1_555
O2_8 H1_8 1_555 1_555
O3_6 Cu4_3 1_555 1_555
C1_8 C2_7 1_555 1_555
C2_7 H2_7 1_555 1_555
N1_8 Cu1_8 1_555 1_555
N2_8 Cu4_3 1_555 1_555
O4_8 Cu1_8 1_555 1_555
H8_7 O4_8 1_555 1_555
O5_7 Cu1_8 1_555 1_555
O6_5 C5_5 1_555 1_555
C5_5 O5_7 1_555 1_555
H9_5 C5_5 1_555 1_555
H11_6 O1_6 1_555 1_555
O7_6 Cu4_3 1_555 1_555
H12_6 O7_6 1_555 1_555
H13_7 O4_8 1_555 1_555
H14_6 O7_6 1_555 1_555
O8_6 Cu5 1_555 1_555
Cu5 Cu4_3 1_555 1_555
C6_8 C7_7 1_555 1_555
C7_7 H15_7 1_555 1_555
H16_7 C7_7 1_555 1_555
H17_7 C7_7 1_555 1_555
C8_8 C9_6 1_555 1_555
C9_6 H18_6 1_555 1_555
H19_8 C9_6 1_555 1_555
H20_6 C9_6 1_555 1_555
N4_8 Cu1_8 1_555 1_555
N5_8 Cu5 1_555 1_555
N8_6 C6_8 1_555 1_555
H21_6 O8_6 1_555 1_555
H22_6 O8_6 1_555 1_555
O2_8 Cu5 1_555 1_555
O3_6 Cu5 1_555 1_555
C1_8 N1_8 1_555 1_555
N1_8 N2_8 1_555 1_555
O7_6 Cu5 1_555 1_555
C6_8 N4_8 1_555 1_555
C8_8 N5_8 1_555 1_555
C8_8 N8_6 1_555 1_555
N4_8 N5_8 1_555 1_555
O1_7 Cu4 1_555 1_555
Cu1_9 O2_9 1_555 1_555
Cu4 O2_9 1_555 1_555
O2_9 H1_9 1_555 1_555
O3_7 Cu4 1_555 1_555
C1_9 C2_8 1_555 1_555
C2_8 H2_8 1_555 1_555
H3_8 C2_8 1_555 1_555
H4_8 C2_8 1_555 1_555
C3_9 C4_7 1_555 1_555
C4_7 H5_7 1_555 1_555
H6_9 C4_7 1_555 1_555
H7_7 C4_7 1_555 1_555
N1_9 Cu1_9 1_555 1_555
N2_9 Cu4 1_555 1_555
N7_5 C1_9 1_555 1_555
O4_9 Cu1_9 1_555 1_555
H8_8 O4_9 1_555 1_555
O5_8 Cu1_9 1_555 1_555
O6_6 C5_6 1_555 1_555
C5_6 O5_8 1_555 1_555
H9_6 C5_6 1_555 1_555
H10_7 O1_7 1_555 1_555
H11_7 O1_7 1_555 1_555
O7_7 Cu4 1_555 1_555
H12_7 O7_7 1_555 1_555
H13_8 O4_9 1_555 1_555
H14_7 O7_7 1_555 1_555
O8_7 Cu5_2 1_555 1_555
Cu5_2 Cu4 1_555 1_555
C6_9 C7_8 1_555 1_555
C7_8 H15_8 1_555 1_555
N4_9 Cu1_9 1_555 1_555
N5_9 Cu5_2 1_555 1_555
H22_7 O8_7 1_555 1_555
O2_9 Cu5_2 1_555 1_555
O3_7 Cu5_2 1_555 1_555
C1_9 N1_9 1_555 1_555
C3_9 N2_9 1_555 1_555
C3_9 N7_5 1_555 1_555
N1_9 N2_9 1_555 1_555
O7_7 Cu5_2 1_555 1_555
C6_9 N4_9 1_555 1_555
N4_9 N5_9 1_555 1_555
C8_9 C9_7 1_555 1_555
C9_7 H18_7 1_555 1_555
H19_9 C9_7 1_555 1_555
H20_7 C9_7 1_555 1_555
C8_9 N8_4 1_555 1_555
H10_8 O1_8 1_555 1_555
H11_8 O1_8 1_555 1_555
H21_8 O8_8 1_555 1_555
H22_8 O8_8 1_555 1_555
O6_7 C5_7 1_555 1_555
H9_7 C5_7 1_555 1_555
H12_8 O7_8 1_555 1_555
H14_8 O7_8 1_555 1_555
O6_8 C5_8 1_555 1_555
H9_8 C5_8 1_555 1_555
H12_9 O7_9 1_555 1_555
H14_9 O7_9 1_555 1_555
H10_9 O1_9 1_555 1_555
H11_9 O1_9 1_555 1_555
H21_9 O8_9 1_555 1_555
H22_9 O8_9 1_555 1_555
H20_8 C9_8 1_555 1_555
C2_9 H2_9 1_555 1_555
H3_9 C2_9 1_555 1_555
H4_9 C2_9 1_555 1_555
O6_9 C5_9 1_555 1_555
C5_9 O5_9 1_555 1_555
H9_9 C5_9 1_555 1_555
C7_9 H15_9 1_555 1_555
H16_9 C7_9 1_555 1_555
H17_9 C7_9 1_555 1_555
H7_8 C4_8 1_555 1_555
H20_9 C9_9 1_555 1_555
H7_9 C4_9 1_555 1_555

#END
