
###############################################################################
#
# This file contains modified crystal structure data generated from the
# MOF subset of the Cambridge Structural Database (CSD) v543 
# hosted by the Cambridge Crystallographic Data Centre (CCDC).
#
# This work is licensed under the Creative Commons
# Attribution-NonCommercial-ShareAlike 4.0 International License.
# To view a copy of this license, visit
# http://creativecommons.org/licenses/by-nc-sa/4.0/
# or send a letter to
# Creative Commons, PO Box 1866, Mountain View, CA 94042, USA.
#
# CIF created using the CSD Python API on 29 September 2022
# The structure has been converted into the P1 space group
# The structure has a 3D framework
# The original CSD entry CETJAN is in the tetragonal crystal system
# The framework has been calculated to contain at least 10.0% void space
# The void calculation uses a probe of radius 1.32A, grid spacing 0.4
# H atom positions have been added when not included in the experimental data
#
###############################################################################

data_CETJAN
_chemical_formula_moiety         '(C124 H96 Co4 N24 O32 S8)n'
_symmetry_cell_setting           triclinic
_symmetry_space_group_name_H-M   'P 1'
_symmetry_Int_Tables_number      1
_space_group_name_Hall           'P 1'
loop_
_symmetry_equiv_pos_site_id
_symmetry_equiv_pos_as_xyz
1 x,y,z
_cell_length_a                   13.451(2)
_cell_length_b                   13.451(2)
_cell_length_c                   25.498(6)
_cell_angle_alpha                90
_cell_angle_beta                 90
_cell_angle_gamma                90
_cell_volume                     4613.34
loop_
_atom_site_label
_atom_site_type_symbol
_atom_site_fract_x
_atom_site_fract_y
_atom_site_fract_z
N3 N 0.2905(4) 0.1417(4) 0.5500(2)
C12 C 0.3394(5) 0.0058(5) 0.4724(3)
C14 C 0.3777(7) 0.1002(7) 0.4735(3)
C15 C 0.2524(5) 0.0522(6) 0.5508(3)
C16 C 0.3562(6) 0.1660(5) 0.5133(3)
Co2 Co 0.2500 0.2500 0.61176(4)
S2 S 0.5352(2) 0.0207(2) 0.1021(2)
H2 H 0.393106 0.238012 0.514675
H3 H 0.204258 0.03029 0.583134
H4 H 0.426701 0.123938 0.441892
Co1 Co 0.7500 0.7500 0.11176(4)
N1 N 0.8087(4) 0.6073(4) 0.1132(2)
C1 C 0.8735(6) 0.5530(6) 0.1068(3)
S1 S 0.9648(2) 0.4793(2) 0.1021(2)
O1 O 0.3471(4) 0.5400(4) 0.2568(2)
O2 O 0.3575(3) 0.6873(3) 0.29512(15)
O3 O 0.3169(3) 0.8528(4) 0.43244(15)
O4 O 0.4198(5) 0.9581(4) 0.3944(3)
N2 N 0.6367(3) 0.7059(4) 0.16962(18)
C2 C 0.5967(5) 0.7696(5) 0.2046(2)
C3 C 0.5157(5) 0.7462(5) 0.2360(2)
C4 C 0.4734(5) 0.6507(5) 0.2305(2)
C5 C 0.5166(5) 0.5822(5) 0.1948(2)
C6 C 0.5973(5) 0.6158(5) 0.1653(2)
C7 C 0.3887(5) 0.6173(5) 0.2627(2)
C8 C 0.2745(4) 0.6596(5) 0.3280(2)
C9 C 0.2500 0.7500 0.3623(3)
C10 C 0.3395(4) 0.7722(5) 0.3958(2)
C11 C 0.3652(6) 0.9380(6) 0.4300(3)
C13 C 0.2727(6) 0.9844(5) 0.5107(3)
N4 N 0.6913(4) 0.8927(4) 0.1132(2)
C17 C 0.6265(6) 0.9470(6) 0.1068(3)
O5 O 0.1529(4) 0.9600(4) 0.2568(2)
O6 O 0.1425(3) 0.8127(3) 0.29512(15)
O7 O 0.1831(3) 0.6472(4) 0.43244(15)
O8 O 0.0802(5) 0.5419(4) 0.3944(3)
N6 N 0.8633(3) 0.7941(4) 0.16962(18)
N7 N 0.2095(4) 0.3583(4) 0.5500(2)
N8 N 0.8583(4) 0.7905(4) 0.0500(2)
N9 N 0.6417(4) 0.7095(4) 0.0500(2)
C20 C 0.0266(5) 0.8493(5) 0.2305(2)
C23 C 0.1113(5) 0.8827(5) 0.2627(2)
C24 C 0.2255(4) 0.8404(5) 0.3280(2)
C25 C 0.1605(4) 0.7278(5) 0.3958(2)
C26 C 0.1348(6) 0.5620(6) 0.4300(3)
C27 C 0.1606(5) 0.4942(5) 0.4724(3)
C28 C 0.2273(6) 0.5156(5) 0.5107(3)
C29 C 0.1223(7) 0.3998(7) 0.4735(3)
C30 C 0.2476(5) 0.4478(6) 0.5508(3)
C31 C 0.1438(6) 0.3340(5) 0.5133(3)
H1 H 0.629651 0.843199 0.208408
H5 H 0.485805 0.799676 0.263921
H6 H 0.234322 0.913121 0.510168
H7 H 0.488071 0.506849 0.190618
H8 H 0.63001 0.56486 0.136941
H9 H 0.359902 0.705855 0.417784
H10 H 0.401235 0.794283 0.370745
H11 H 0.294547 0.596477 0.352564
H12 H 0.210624 0.640153 0.303847
H13 H 0.295742 0.46971 0.583134
H14 H 0.106894 0.261988 0.514675
H16 H 0.265678 0.586879 0.510168
H17 H 0.0732993 0.376062 0.441892
H18 H 0.0141946 0.700324 0.263921
H19 H 0.0119294 0.993151 0.190618
H21 H 0.289376 0.859847 0.303847
H22 H 0.205453 0.903523 0.352564
H23 H 0.0987647 0.705717 0.370745
H24 H 0.140098 0.794145 0.417784
C18 C 0.9033(5) 0.7304(5) 0.2046(2)
C19 C 0.9843(5) 0.7538(5) 0.2360(2)
C21 C 0.9834(5) 0.9178(5) 0.1948(2)
C22 C 0.9027(5) 0.8842(5) 0.1653(2)
H15 H 0.870349 0.656801 0.208408
H20 H 0.86999 0.93514 0.136941
N1_2 N 0.3927(4) 0.3087(4) 0.6132(2)
C1_2 C 0.4470(6) 0.3735(6) 0.6068(3)
S1_2 S 0.5207(2) 0.4648(2) 0.6021(2)
N2_2 N 0.2941(4) 0.1367(3) 0.66962(18)
C2_2 C 0.2304(5) 0.0967(5) 0.7046(2)
C3_2 C 0.2538(5) 0.0157(5) 0.7360(2)
C5_2 C 0.4178(5) 0.0166(5) 0.6948(2)
C6_2 C 0.3842(5) 0.0973(5) 0.6653(2)
N4_2 N 0.1073(4) 0.1913(4) 0.6132(2)
C17_2 C 0.0530(6) 0.1265(6) 0.6068(3)
N6_2 N 0.2059(4) 0.3633(3) 0.66962(18)
H1_2 H 0.156801 0.129651 0.708408
H8_2 H 0.43514 0.13001 0.636941
C13_2 C 0.0156(5) 0.7727(6) 0.0107(3)
C28_2 C 0.4844(5) 0.7273(6) 0.0107(3)
C30_2 C 0.5522(6) 0.7476(5) 0.0508(3)
C31_2 C 0.6660(5) 0.6438(6) 0.0133(3)
H6_2 H 0.086879 0.734322 0.010168
H13_2 H 0.53029 0.795742 0.0831343
H14_2 H 0.738012 0.606894 0.014675
H16_2 H 0.413121 0.765678 0.010168
O1_2 O 0.4600(4) 0.8471(4) 0.7568(2)
O2_2 O 0.3127(3) 0.8575(3) 0.79512(15)
O3_2 O 0.1472(4) 0.8169(3) 0.93244(15)
O4_2 O 0.0419(4) 0.9198(5) 0.8944(3)
C4_2 C 0.3493(5) 0.9734(5) 0.7305(2)
C7_2 C 0.3827(5) 0.8887(5) 0.7627(2)
C8_2 C 0.3404(5) 0.7745(4) 0.8280(2)
C9_2 C 0.2500 0.7500 0.8623(3)
C10_2 C 0.2278(5) 0.8395(4) 0.8958(2)
C11_2 C 0.0620(6) 0.8652(6) 0.9300(3)
O5_2 O 0.0400(4) 0.6529(4) 0.7568(2)
O6_2 O 0.1873(3) 0.6425(3) 0.79512(15)
O7_2 O 0.3528(4) 0.6831(3) 0.93244(15)
O8_2 O 0.4581(4) 0.5802(5) 0.8944(3)
C18_2 C 0.2696(5) 0.4033(5) 0.7046(2)
C19_2 C 0.2462(5) 0.4843(5) 0.7360(2)
C20_2 C 0.1507(5) 0.5266(5) 0.7305(2)
C21_2 C 0.0822(5) 0.4834(5) 0.6948(2)
C22_2 C 0.1158(5) 0.4027(5) 0.6653(2)
C23_2 C 0.1173(5) 0.6113(5) 0.7627(2)
C24_2 C 0.1596(5) 0.7255(4) 0.8280(2)
C25_2 C 0.2722(5) 0.6605(4) 0.8958(2)
C26_2 C 0.4380(6) 0.6348(6) 0.9300(3)
C27_2 C 0.5058(5) 0.6606(5) 0.9724(3)
C29_2 C 0.6002(7) 0.6223(7) 0.9735(3)
H5_2 H 0.200324 0.985805 0.763921
H7_2 H 0.493151 0.988071 0.690618
H9_2 H 0.294145 0.859902 0.917784
H10_2 H 0.205717 0.901235 0.870745
H11_2 H 0.403523 0.794547 0.852564
H12_2 H 0.359847 0.710624 0.803847
H15_2 H 0.343199 0.370349 0.708408
H17_2 H 0.623938 0.573299 0.941892
H18_2 H 0.299676 0.514195 0.763921
H19_2 H 0.00684854 0.511929 0.690618
H20_2 H 0.0648602 0.36999 0.636941
H21_2 H 0.140153 0.789376 0.803847
H22_2 H 0.0964768 0.705453 0.852564
H23_2 H 0.294283 0.598765 0.870745
H24_2 H 0.205855 0.640098 0.917784
C15_2 C 0.9478(6) 0.7524(5) 0.0508(3)
C16_2 C 0.8340(5) 0.8562(6) 0.0133(3)
H2_2 H 0.761988 0.893106 0.014675
H3_2 H 0.96971 0.704258 0.0831343
S2_2 S 0.9793(2) 0.0352(2) 0.6021(2)
C12_2 C 0.9942(5) 0.8394(5) 0.9724(3)
C14_2 C 0.8998(7) 0.8777(7) 0.9735(3)
H4_2 H 0.876062 0.926701 0.941892
Co3 Co 0.2500 0.2500 0.88824(4)
N5 N 0.1367(3) 0.2059(4) 0.83038(18)
C18_3 C 0.0967(5) 0.2696(5) 0.7954(2)
C19_3 C 0.0157(5) 0.2462(5) 0.7640(2)
C21_3 C 0.0166(5) 0.0822(5) 0.8052(2)
C22_3 C 0.0973(5) 0.1158(5) 0.8347(2)
H15_3 H 0.129651 0.343199 0.791592
H20_3 H 0.13001 0.0648602 0.863059
N1_3 N 0.1913(4) 0.3927(4) 0.8868(2)
C1_3 C 0.1265(6) 0.4470(6) 0.8932(3)
S1_3 S 0.0352(2) 0.5207(2) 0.8979(2)
O1_3 O 0.6529(4) 0.4600(4) 0.7432(2)
O2_3 O 0.6425(3) 0.3127(3) 0.70488(15)
O3_3 O 0.6831(3) 0.1472(4) 0.56756(15)
O4_3 O 0.5802(5) 0.0419(4) 0.6056(3)
N2_3 N 0.3633(3) 0.2941(4) 0.83038(18)
C2_3 C 0.4033(5) 0.2304(5) 0.7954(2)
C3_3 C 0.4843(5) 0.2538(5) 0.7640(2)
C4_3 C 0.5266(5) 0.3493(5) 0.7695(2)
C5_3 C 0.4834(5) 0.4178(5) 0.8052(2)
C6_3 C 0.4027(5) 0.3842(5) 0.8347(2)
C7_3 C 0.6113(5) 0.3827(5) 0.7373(2)
C8_3 C 0.7255(4) 0.3404(5) 0.6720(2)
C9_3 C 0.7500 0.2500 0.6377(3)
C10_3 C 0.6605(4) 0.2278(5) 0.6042(2)
C11_3 C 0.6348(6) 0.0620(6) 0.5700(3)
C13_3 C 0.7273(6) 0.0156(5) 0.4893(3)
Co4 Co 0.7500 0.7500 0.38824(4)
N4_3 N 0.3087(4) 0.1073(4) 0.8868(2)
C17_3 C 0.3735(6) 0.0530(6) 0.8932(3)
O5_3 O 0.8471(4) 0.0400(4) 0.7432(2)
O6_3 O 0.8575(3) 0.1873(3) 0.70488(15)
O7_3 O 0.8169(3) 0.3528(4) 0.56756(15)
O8_3 O 0.9198(5) 0.4581(4) 0.6056(3)
N7_2 N 0.7905(4) 0.6417(4) 0.4500(2)
N8_2 N 0.1417(4) 0.2095(4) 0.9500(2)
N9_2 N 0.3583(4) 0.2905(4) 0.9500(2)
C20_3 C 0.9734(5) 0.1507(5) 0.7695(2)
C23_3 C 0.8887(5) 0.1173(5) 0.7373(2)
C24_3 C 0.7745(4) 0.1596(5) 0.6720(2)
C25_3 C 0.8395(4) 0.2722(5) 0.6042(2)
C26_3 C 0.8652(6) 0.4380(6) 0.5700(3)
C27_3 C 0.8394(5) 0.5058(5) 0.5276(3)
C28_3 C 0.7727(6) 0.4844(5) 0.4893(3)
C29_3 C 0.8777(7) 0.6002(7) 0.5265(3)
C30_3 C 0.7524(5) 0.5522(6) 0.4492(3)
C31_3 C 0.8562(6) 0.6660(5) 0.4867(3)
H1_3 H 0.370349 0.156801 0.791592
H5_3 H 0.514195 0.200324 0.736079
H6_3 H 0.765678 0.086879 0.489832
H7_3 H 0.511929 0.493151 0.809382
H8_3 H 0.36999 0.43514 0.863059
H9_3 H 0.640098 0.294145 0.582216
H10_3 H 0.598765 0.205717 0.629255
H11_3 H 0.705453 0.403523 0.647436
H12_3 H 0.789376 0.359847 0.696153
H13_3 H 0.704258 0.53029 0.416866
H14_3 H 0.893106 0.738012 0.485325
H16_3 H 0.734322 0.413121 0.489832
H17_3 H 0.926701 0.623938 0.558108
H18_3 H 0.985805 0.299676 0.736079
H19_3 H 0.988071 0.00684854 0.809382
H21_3 H 0.710624 0.140153 0.696153
H22_3 H 0.794547 0.0964768 0.647436
H23_3 H 0.901235 0.294283 0.629255
H24_3 H 0.859902 0.205855 0.582216
N3_2 N 0.7095(4) 0.8583(4) 0.4500(2)
C12_3 C 0.6606(5) 0.9942(5) 0.5276(3)
C14_3 C 0.6223(7) 0.8998(7) 0.5265(3)
C15_3 C 0.7476(5) 0.9478(6) 0.4492(3)
C16_3 C 0.6438(6) 0.8340(5) 0.4867(3)
S2_3 S 0.4648(2) 0.9793(2) 0.8979(2)
H2_3 H 0.606894 0.761988 0.485325
H3_3 H 0.795742 0.96971 0.416866
H4_3 H 0.573299 0.876062 0.558108
C15_4 C 0.0522(6) 0.2476(5) 0.9492(3)
C16_4 C 0.1660(5) 0.1438(6) 0.9867(3)
H2_4 H 0.238012 0.106894 0.985325
H3_4 H 0.03029 0.295742 0.916866
O1_4 O 0.5400(4) 0.1529(4) 0.2432(2)
O2_4 O 0.6873(3) 0.1425(3) 0.20488(15)
O3_4 O 0.8528(4) 0.1831(3) 0.06756(15)
O4_4 O 0.9581(4) 0.0802(5) 0.1056(3)
C4_4 C 0.6507(5) 0.0266(5) 0.2695(2)
C7_4 C 0.6173(5) 0.1113(5) 0.2373(2)
C8_4 C 0.6596(5) 0.2255(4) 0.1720(2)
C9_4 C 0.7500 0.2500 0.1377(3)
C10_4 C 0.7722(5) 0.1605(4) 0.1042(2)
C11_4 C 0.9380(6) 0.1348(6) 0.0700(3)
O5_4 O 0.9600(4) 0.3471(4) 0.2432(2)
O6_4 O 0.8127(3) 0.3575(3) 0.20488(15)
O7_4 O 0.6472(4) 0.3169(3) 0.06756(15)
O8_4 O 0.5419(4) 0.4198(5) 0.1056(3)
N5_2 N 0.7941(4) 0.6367(3) 0.33038(18)
C18_4 C 0.7304(5) 0.5967(5) 0.2954(2)
C19_4 C 0.7538(5) 0.5157(5) 0.2640(2)
C20_4 C 0.8493(5) 0.4734(5) 0.2695(2)
C21_4 C 0.9178(5) 0.5166(5) 0.3052(2)
C22_4 C 0.8842(5) 0.5973(5) 0.3347(2)
C23_4 C 0.8827(5) 0.3887(5) 0.2373(2)
C24_4 C 0.8404(5) 0.2745(4) 0.1720(2)
C25_4 C 0.7278(5) 0.3395(4) 0.1042(2)
C26_4 C 0.5620(6) 0.3652(6) 0.0700(3)
C27_4 C 0.4942(5) 0.3394(5) 0.0276(3)
C29_4 C 0.3998(7) 0.3777(7) 0.0265(3)
H5_4 H 0.799676 0.0141946 0.236079
H7_4 H 0.506849 0.0119294 0.309382
H9_4 H 0.705855 0.140098 0.0822158
H10_4 H 0.794283 0.0987647 0.129255
H11_4 H 0.596477 0.205453 0.147436
H12_4 H 0.640153 0.289376 0.196153
H15_4 H 0.656801 0.629651 0.291592
H17_4 H 0.376062 0.426701 0.0581082
H18_4 H 0.700324 0.485805 0.236079
H19_4 H 0.993151 0.488071 0.309382
H20_4 H 0.93514 0.63001 0.363059
H21_4 H 0.859847 0.210624 0.196153
H22_4 H 0.903523 0.294547 0.147436
H23_4 H 0.705717 0.401235 0.129255
H24_4 H 0.794145 0.359902 0.0822158
C13_4 C 0.9844(5) 0.2273(6) 0.9893(3)
C28_4 C 0.5156(5) 0.2727(6) 0.9893(3)
C30_4 C 0.4478(6) 0.2524(5) 0.9492(3)
C31_4 C 0.3340(5) 0.3562(6) 0.9867(3)
H6_4 H 0.913121 0.265678 0.989832
H13_4 H 0.46971 0.204258 0.916866
H14_4 H 0.261988 0.393106 0.985325
H16_4 H 0.586879 0.234322 0.989832
N1_4 N 0.6073(4) 0.6913(4) 0.3868(2)
C1_4 C 0.5530(6) 0.6265(6) 0.3932(3)
S1_4 S 0.4793(2) 0.5352(2) 0.3979(2)
N2_4 N 0.7059(4) 0.8633(3) 0.33038(18)
C2_4 C 0.7696(5) 0.9033(5) 0.2954(2)
C3_4 C 0.7462(5) 0.9843(5) 0.2640(2)
C5_4 C 0.5822(5) 0.9834(5) 0.3052(2)
C6_4 C 0.6158(5) 0.9027(5) 0.3347(2)
N4_4 N 0.8927(4) 0.8087(4) 0.3868(2)
C17_4 C 0.9470(6) 0.8735(6) 0.3932(3)
H1_4 H 0.843199 0.870349 0.291592
H8_4 H 0.56486 0.86999 0.363059
C12_4 C 0.0058(5) 0.1606(5) 0.0276(3)
C14_4 C 0.1002(7) 0.1223(7) 0.0265(3)
H4_4 H 0.123938 0.0732993 0.0581082
S2_4 S 0.0207(2) 0.9648(2) 0.3979(2)
loop_
_geom_bond_atom_site_label_1
_geom_bond_atom_site_label_2
_geom_bond_site_symmetry_1
_geom_bond_site_symmetry_2
N3 C15 1_555 1_555
C14 C12 1_555 1_555
C16 N3 1_555 1_555
Co2 N3 1_555 1_555
C14 C16 1_555 1_555
C16 H2 1_555 1_555
C15 H3 1_555 1_555
C14 H4 1_555 1_555
Co1 N1 1_555 1_555
N1 C1 1_555 1_555
C1 S1 1_555 1_555
O1 C7 1_555 1_555
O2 C7 1_555 1_555
O3 C10 1_555 1_555
O4 C11 1_555 1_555
N2 Co1 1_555 1_555
C2 N2 1_555 1_555
C3 C2 1_555 1_555
C4 C3 1_555 1_555
C5 C4 1_555 1_555
C6 N2 1_555 1_555
C7 C4 1_555 1_555
C8 O2 1_555 1_555
C9 C8 1_555 1_555
C10 C9 1_555 1_555
C11 O3 1_555 1_555
Co2 N7 1_555 1_555
N4 Co1 1_555 1_555
C17 N4 1_555 1_555
O5 C23 1_555 1_555
O6 C23 1_555 1_555
O7 C25 1_555 1_555
O8 C26 1_555 1_555
N6 Co1 1_555 1_555
N7 C30 1_555 1_555
N8 Co1 1_555 1_555
N9 Co1 1_555 1_555
C23 C20 1_555 1_555
C24 C9 1_555 1_555
C25 C9 1_555 1_555
C26 O7 1_555 1_555
C27 C26 1_555 1_555
C28 C27 1_555 1_555
C29 C27 1_555 1_555
C30 C28 1_555 1_555
C31 N7 1_555 1_555
C5 C6 1_555 1_555
O6 C24 1_555 1_555
C29 C31 1_555 1_555
C2 H1 1_555 1_555
C3 H5 1_555 1_555
C13 H6 1_555 1_555
C5 H7 1_555 1_555
C6 H8 1_555 1_555
C10 H9 1_555 1_555
C10 H10 1_555 1_555
C8 H11 1_555 1_555
C8 H12 1_555 1_555
C30 H13 1_555 1_555
C31 H14 1_555 1_555
C28 H16 1_555 1_555
C29 H17 1_555 1_555
C24 H21 1_555 1_555
C24 H22 1_555 1_555
C25 H23 1_555 1_555
C25 H24 1_555 1_555
N6 C18 1_555 1_555
C18 C19 1_555 1_555
C21 C22 1_555 1_555
C22 N6 1_555 1_555
C18 H15 1_555 1_555
C22 H20 1_555 1_555
Co2 N1_2 1_555 1_555
N1_2 C1_2 1_555 1_555
C1_2 S1_2 1_555 1_555
N2_2 Co2 1_555 1_555
C2_2 N2_2 1_555 1_555
C3_2 C2_2 1_555 1_555
C6_2 N2_2 1_555 1_555
N4_2 Co2 1_555 1_555
C17_2 N4_2 1_555 1_555
N6_2 Co2 1_555 1_555
C5_2 C6_2 1_555 1_555
C2_2 H1_2 1_555 1_555
C6_2 H8_2 1_555 1_555
N9 C30_2 1_555 1_555
C30_2 C28_2 1_555 1_555
C31_2 N9 1_555 1_555
C13_2 H6_2 1_555 1_555
C30_2 H13_2 1_555 1_555
C31_2 H14_2 1_555 1_555
C28_2 H16_2 1_555 1_555
O1_2 C7_2 1_555 1_555
O2_2 C7_2 1_555 1_555
O3_2 C10_2 1_555 1_555
O4_2 C11_2 1_555 1_555
C7_2 C4_2 1_555 1_555
C8_2 O2_2 1_555 1_555
C9_2 C8_2 1_555 1_555
C10_2 C9_2 1_555 1_555
C11_2 O3_2 1_555 1_555
O5_2 C23_2 1_555 1_555
O6_2 C23_2 1_555 1_555
O7_2 C25_2 1_555 1_555
O8_2 C26_2 1_555 1_555
N6_2 C18_2 1_555 1_555
C18_2 C19_2 1_555 1_555
C19_2 C20_2 1_555 1_555
C20_2 C21_2 1_555 1_555
C21_2 C22_2 1_555 1_555
C22_2 N6_2 1_555 1_555
C23_2 C20_2 1_555 1_555
C24_2 C9_2 1_555 1_555
C25_2 C9_2 1_555 1_555
C26_2 O7_2 1_555 1_555
C27_2 C26_2 1_555 1_555
C29_2 C27_2 1_555 1_555
O6_2 C24_2 1_555 1_555
C10_2 H9_2 1_555 1_555
C10_2 H10_2 1_555 1_555
C8_2 H11_2 1_555 1_555
C8_2 H12_2 1_555 1_555
C18_2 H15_2 1_555 1_555
C29_2 H17_2 1_555 1_555
C19_2 H18_2 1_555 1_555
C21_2 H19_2 1_555 1_555
C22_2 H20_2 1_555 1_555
C24_2 H21_2 1_555 1_555
C24_2 H22_2 1_555 1_555
C25_2 H23_2 1_555 1_555
C25_2 H24_2 1_555 1_555
N8 C15_2 1_555 1_555
C16_2 N8 1_555 1_555
C16_2 H2_2 1_555 1_555
C15_2 H3_2 1_555 1_555
C14_2 C12_2 1_555 1_555
C14_2 H4_2 1_555 1_555
Co3 N5 1_555 1_555
N5 C18_3 1_555 1_555
C18_3 C19_3 1_555 1_555
C21_3 C22_3 1_555 1_555
C22_3 N5 1_555 1_555
C18_3 H15_3 1_555 1_555
C22_3 H20_3 1_555 1_555
Co3 N1_3 1_555 1_555
N1_3 C1_3 1_555 1_555
C1_3 S1_3 1_555 1_555
O1_3 C7_3 1_555 1_555
O2_3 C7_3 1_555 1_555
O3_3 C10_3 1_555 1_555
O4_3 C11_3 1_555 1_555
N2_3 Co3 1_555 1_555
C2_3 N2_3 1_555 1_555
C3_3 C2_3 1_555 1_555
C4_3 C3_3 1_555 1_555
C5_3 C4_3 1_555 1_555
C6_3 N2_3 1_555 1_555
C7_3 C4_3 1_555 1_555
C8_3 O2_3 1_555 1_555
C9_3 C8_3 1_555 1_555
C10_3 C9_3 1_555 1_555
C11_3 O3_3 1_555 1_555
Co4 N7_2 1_555 1_555
N4_3 Co3 1_555 1_555
C17_3 N4_3 1_555 1_555
O5_3 C23_3 1_555 1_555
O6_3 C23_3 1_555 1_555
O7_3 C25_3 1_555 1_555
O8_3 C26_3 1_555 1_555
N7_2 C30_3 1_555 1_555
N8_2 Co3 1_555 1_555
N9_2 Co3 1_555 1_555
C23_3 C20_3 1_555 1_555
C24_3 C9_3 1_555 1_555
C25_3 C9_3 1_555 1_555
C26_3 O7_3 1_555 1_555
C27_3 C26_3 1_555 1_555
C28_3 C27_3 1_555 1_555
C29_3 C27_3 1_555 1_555
C30_3 C28_3 1_555 1_555
C31_3 N7_2 1_555 1_555
C5_3 C6_3 1_555 1_555
O6_3 C24_3 1_555 1_555
C29_3 C31_3 1_555 1_555
C2_3 H1_3 1_555 1_555
C3_3 H5_3 1_555 1_555
C13_3 H6_3 1_555 1_555
C5_3 H7_3 1_555 1_555
C6_3 H8_3 1_555 1_555
C10_3 H9_3 1_555 1_555
C10_3 H10_3 1_555 1_555
C8_3 H11_3 1_555 1_555
C8_3 H12_3 1_555 1_555
C30_3 H13_3 1_555 1_555
C31_3 H14_3 1_555 1_555
C28_3 H16_3 1_555 1_555
C29_3 H17_3 1_555 1_555
C24_3 H21_3 1_555 1_555
C24_3 H22_3 1_555 1_555
C25_3 H23_3 1_555 1_555
C25_3 H24_3 1_555 1_555
N3_2 C15_3 1_555 1_555
C14_3 C12_3 1_555 1_555
C16_3 N3_2 1_555 1_555
Co4 N3_2 1_555 1_555
C14_3 C16_3 1_555 1_555
C16_3 H2_3 1_555 1_555
C15_3 H3_3 1_555 1_555
C14_3 H4_3 1_555 1_555
N8_2 C15_4 1_555 1_555
C16_4 N8_2 1_555 1_555
C16_4 H2_4 1_555 1_555
C15_4 H3_4 1_555 1_555
O1_4 C7_4 1_555 1_555
O2_4 C7_4 1_555 1_555
O3_4 C10_4 1_555 1_555
O4_4 C11_4 1_555 1_555
C7_4 C4_4 1_555 1_555
C8_4 O2_4 1_555 1_555
C9_4 C8_4 1_555 1_555
C10_4 C9_4 1_555 1_555
C11_4 O3_4 1_555 1_555
Co4 N5_2 1_555 1_555
O5_4 C23_4 1_555 1_555
O6_4 C23_4 1_555 1_555
O7_4 C25_4 1_555 1_555
O8_4 C26_4 1_555 1_555
N5_2 C18_4 1_555 1_555
C18_4 C19_4 1_555 1_555
C19_4 C20_4 1_555 1_555
C20_4 C21_4 1_555 1_555
C21_4 C22_4 1_555 1_555
C22_4 N5_2 1_555 1_555
C23_4 C20_4 1_555 1_555
C24_4 C9_4 1_555 1_555
C25_4 C9_4 1_555 1_555
C26_4 O7_4 1_555 1_555
C27_4 C26_4 1_555 1_555
C29_4 C27_4 1_555 1_555
O6_4 C24_4 1_555 1_555
C10_4 H9_4 1_555 1_555
C10_4 H10_4 1_555 1_555
C8_4 H11_4 1_555 1_555
C8_4 H12_4 1_555 1_555
C18_4 H15_4 1_555 1_555
C29_4 H17_4 1_555 1_555
C19_4 H18_4 1_555 1_555
C21_4 H19_4 1_555 1_555
C22_4 H20_4 1_555 1_555
C24_4 H21_4 1_555 1_555
C24_4 H22_4 1_555 1_555
C25_4 H23_4 1_555 1_555
C25_4 H24_4 1_555 1_555
N9_2 C30_4 1_555 1_555
C30_4 C28_4 1_555 1_555
C31_4 N9_2 1_555 1_555
C13_4 H6_4 1_555 1_555
C30_4 H13_4 1_555 1_555
C31_4 H14_4 1_555 1_555
C28_4 H16_4 1_555 1_555
Co4 N1_4 1_555 1_555
N1_4 C1_4 1_555 1_555
C1_4 S1_4 1_555 1_555
N2_4 Co4 1_555 1_555
C2_4 N2_4 1_555 1_555
C3_4 C2_4 1_555 1_555
C6_4 N2_4 1_555 1_555
N4_4 Co4 1_555 1_555
C17_4 N4_4 1_555 1_555
C5_4 C6_4 1_555 1_555
C2_4 H1_4 1_555 1_555
C6_4 H8_4 1_555 1_555
C14_4 C12_4 1_555 1_555
C14_4 H4_4 1_555 1_555

#END
