
###############################################################################
#
# This file contains modified crystal structure data generated from the
# MOF subset of the Cambridge Structural Database (CSD) v543 
# hosted by the Cambridge Crystallographic Data Centre (CCDC).
#
# This work is licensed under the Creative Commons
# Attribution-NonCommercial-ShareAlike 4.0 International License.
# To view a copy of this license, visit
# http://creativecommons.org/licenses/by-nc-sa/4.0/
# or send a letter to
# Creative Commons, PO Box 1866, Mountain View, CA 94042, USA.
#
# CIF created using the CSD Python API on 29 September 2022
# The structure has been converted into the P1 space group
# The structure has a 3D framework
# The original CSD entry CETKUK is in the orthorhombic crystal system
# The framework has been calculated to contain at least 10.0% void space
# The void calculation uses a probe of radius 1.32A, grid spacing 0.4
# The framework is charged, counterions have been retained in the structure
#
###############################################################################

data_CETKUK
_chemical_formula_moiety         '(C64 H48 O72 P16 Zn12 12-)n'
_symmetry_cell_setting           triclinic
_symmetry_space_group_name_H-M   'P 1'
_symmetry_Int_Tables_number      1
_space_group_name_Hall           'P 1'
loop_
_symmetry_equiv_pos_site_id
_symmetry_equiv_pos_as_xyz
1 x,y,z
_cell_length_a                   19.5129(7)
_cell_length_b                   29.8029(11)
_cell_length_c                   10.0415(4)
_cell_angle_alpha                90
_cell_angle_beta                 90
_cell_angle_gamma                90
_cell_volume                     5839.54
loop_
_atom_site_label
_atom_site_type_symbol
_atom_site_fract_x
_atom_site_fract_y
_atom_site_fract_z
O1 O 0.65855(17) 0.05925(9) 0.0686(3)
Zn5 Zn 0.59276(2) 0.106680(14) 0.04826(5)
P1 P 0.66198(6) 0.01547(3) 0.99144(10)
O2 O 0.68543(19) 0.02078(11) 0.8534(3)
Zn3 Zn 0.68446(2) 0.061372(13) 0.70188(4)
Zn1 Zn 0.68446(2) 0.938628(13) 0.20188(4)
Zn2 Zn 0.59276(2) 0.893320(14) 0.54826(5)
P2 P 0.52785(6) 0.91898(4) 0.25331(10)
H2 H 0.5054 0.9592 0.2190
O3 O 0.70604(14) 0.98147(9) 0.0618(3)
O4 O 0.59226(15) 0.91341(11) 0.1757(3)
O5 O 0.47050(16) 0.89092(9) 0.1974(3)
O6 O 0.53606(16) 0.90969(12) 0.3975(3)
O7 O 0.7320(2) 0.87992(10) 0.0168(4)
O8 O 0.74299(17) 0.88622(10) 0.2313(3)
O9 O 0.87479(16) 0.66766(9) 0.0269(3)
O10 O 0.82545(18) 0.65692(10) 0.2205(4)
C1 C 0.7521(3) 0.86615(16) 0.1221(5)
C2 C 0.7810(3) 0.81823(14) 0.1295(4)
C3 C 0.7727(3) 0.79273(16) 0.2500(5)
H3 H 0.7545 0.8051 0.3273
C4 C 0.7938(3) 0.74857(15) 0.2426(5)
H4 H 0.7884 0.7305 0.3173
C5 C 0.8082(3) 0.79958(15) 0.0215(4)
C6 C 0.8324(2) 0.75609(14) 0.0207(4)
C7 C 0.8223(2) 0.73004(15) 0.1297(4)
C8 C 0.8428(2) 0.68077(14) 0.1271(5)
Zn4 Zn 0.90724(2) 0.606680(14) 0.04826(5)
Zn6 Zn 0.40724(2) 0.893320(14) 0.04826(5)
O11 O 0.65855(17) 0.94075(9) 0.5686(3)
O12 O 0.68543(19) 0.97922(11) 0.3534(3)
O13 O 0.52950(16) 0.89092(9) 0.6974(3)
O14 O 0.62521(16) 0.83234(9) 0.5269(3)
Zn1_2 Zn 0.31554(2) 0.061372(13) 0.20188(4)
Zn2_2 Zn 0.40724(2) 0.106680(14) 0.54826(5)
P2_2 P 0.47215(6) 0.08102(4) 0.25331(10)
H2_2 H 0.4946 0.0408 0.2190
O3_2 O 0.29396(14) 0.01853(9) 0.0618(3)
O4_2 O 0.40774(15) 0.08659(11) 0.1757(3)
O5_2 O 0.52950(16) 0.10908(9) 0.1974(3)
O6_2 O 0.46394(16) 0.09031(12) 0.3975(3)
O7_2 O 0.2680(2) 0.12008(10) 0.0168(4)
O8_2 O 0.25701(17) 0.11378(10) 0.2313(3)
O9_2 O 0.12521(16) 0.33234(9) 0.0269(3)
O10_2 O 0.17455(18) 0.34308(10) 0.2205(4)
C1_2 C 0.2479(3) 0.13385(16) 0.1221(5)
C2_2 C 0.2190(3) 0.18177(14) 0.1295(4)
C3_2 C 0.2273(3) 0.20727(16) 0.2500(5)
H3_2 H 0.2455 0.1949 0.3273
C4_2 C 0.2062(3) 0.25143(15) 0.2426(5)
H4_2 H 0.2116 0.2695 0.3173
C5_2 C 0.1918(3) 0.20042(15) 0.0215(4)
C6_2 C 0.1676(2) 0.24391(14) 0.0207(4)
C7_2 C 0.1777(2) 0.26996(15) 0.1297(4)
C8_2 C 0.1572(2) 0.31923(14) 0.1271(5)
Zn4_2 Zn 0.09276(2) 0.393320(14) 0.04826(5)
O11_2 O 0.34145(17) 0.05925(9) 0.5686(3)
O12_2 O 0.31457(19) 0.02078(11) 0.3534(3)
O13_2 O 0.47050(16) 0.10908(9) 0.6974(3)
O14_2 O 0.37479(16) 0.16766(9) 0.5269(3)
O1_2 O 0.34145(17) 0.94075(9) 0.0686(3)
P1_2 P 0.33802(6) 0.98453(3) 0.99144(10)
O2_2 O 0.31457(19) 0.97922(11) 0.8534(3)
Zn3_2 Zn 0.31554(2) 0.938628(13) 0.70188(4)
Zn1_3 Zn 0.18446(2) 0.561372(13) 0.20188(4)
Zn2_3 Zn 0.09276(2) 0.606680(14) 0.54826(5)
P2_3 P 0.02785(6) 0.58102(4) 0.25331(10)
H2_3 H 0.0054 0.5408 0.2190
O1_3 O 0.15855(17) 0.44075(9) 0.0686(3)
O3_3 O 0.20604(14) 0.51853(9) 0.0618(3)
O4_3 O 0.09226(15) 0.58659(11) 0.1757(3)
O6_3 O 0.03606(16) 0.59031(12) 0.3975(3)
O7_3 O 0.2320(2) 0.62008(10) 0.0168(4)
O8_3 O 0.24299(17) 0.61378(10) 0.2313(3)
O9_3 O 0.37479(16) 0.83234(9) 0.0269(3)
O10_3 O 0.32545(18) 0.84308(10) 0.2205(4)
C1_3 C 0.2521(3) 0.63385(16) 0.1221(5)
C2_3 C 0.2810(3) 0.68177(14) 0.1295(4)
C3_3 C 0.2727(3) 0.70727(16) 0.2500(5)
H3_3 H 0.2545 0.6949 0.3273
C4_3 C 0.2938(3) 0.75143(15) 0.2426(5)
H4_3 H 0.2884 0.7695 0.3173
C5_3 C 0.3082(3) 0.70042(15) 0.0215(4)
C6_3 C 0.3324(2) 0.74391(14) 0.0207(4)
C7_3 C 0.3223(2) 0.76996(15) 0.1297(4)
C8_3 C 0.3428(2) 0.81923(14) 0.1271(5)
O11_3 O 0.15855(17) 0.55925(9) 0.5686(3)
O12_3 O 0.18543(19) 0.52078(11) 0.3534(3)
O13_3 O 0.02950(16) 0.60908(9) 0.6974(3)
O14_3 O 0.12521(16) 0.66766(9) 0.5269(3)
P1_3 P 0.16198(6) 0.48453(3) 0.99144(10)
H1 H 0.1022 0.5011 0.9994
O2_3 O 0.18543(19) 0.47922(11) 0.8534(3)
H5 H 0.3111 0.6835 0.9438
H6 H 0.3551 0.7552 0.9465
Zn3_3 Zn 0.18446(2) 0.438628(13) 0.70188(4)
O5_3 O 0.97050(16) 0.60908(9) 0.1974(3)
O5_4 O 0.02950(16) 0.39092(9) 0.1974(3)
Zn1_4 Zn 0.81554(2) 0.438628(13) 0.20188(4)
Zn2_4 Zn 0.90724(2) 0.393320(14) 0.54826(5)
P2_4 P 0.97215(6) 0.41898(4) 0.25331(10)
H2_4 H 0.9946 0.4592 0.2190
O1_4 O 0.84145(17) 0.55925(9) 0.0686(3)
O3_4 O 0.79396(14) 0.48147(9) 0.0618(3)
O4_4 O 0.90774(15) 0.41341(11) 0.1757(3)
O6_4 O 0.96394(16) 0.40969(12) 0.3975(3)
O7_4 O 0.7680(2) 0.37992(10) 0.0168(4)
O8_4 O 0.75701(17) 0.38622(10) 0.2313(3)
O9_4 O 0.62521(16) 0.16766(9) 0.0269(3)
O10_4 O 0.67455(18) 0.15692(10) 0.2205(4)
C1_4 C 0.7479(3) 0.36615(16) 0.1221(5)
C2_4 C 0.7190(3) 0.31823(14) 0.1295(4)
C3_4 C 0.7273(3) 0.29273(16) 0.2500(5)
H3_4 H 0.7455 0.3051 0.3273
C4_4 C 0.7062(3) 0.24857(15) 0.2426(5)
H4_4 H 0.7116 0.2305 0.3173
C5_4 C 0.6918(3) 0.29958(15) 0.0215(4)
C6_4 C 0.6676(2) 0.25609(14) 0.0207(4)
C7_4 C 0.6777(2) 0.23004(15) 0.1297(4)
C8_4 C 0.6572(2) 0.18077(14) 0.1271(5)
O11_4 O 0.84145(17) 0.44075(9) 0.5686(3)
O12_4 O 0.81457(19) 0.47922(11) 0.3534(3)
O13_4 O 0.97050(16) 0.39092(9) 0.6974(3)
O14_4 O 0.87479(16) 0.33234(9) 0.5269(3)
P1_4 P 0.83802(6) 0.51547(3) 0.99144(10)
H1_2 H 0.8978 0.4989 0.9994
O2_4 O 0.81457(19) 0.52078(11) 0.8534(3)
H5_2 H 0.6889 0.3165 0.9438
H6_2 H 0.6449 0.2448 0.9465
Zn3_4 Zn 0.81554(2) 0.561372(13) 0.70188(4)
P1_5 P 0.16198(6) 0.51547(3) 0.49144(10)
H1_3 H 0.1022 0.4989 0.4994
P2_5 P 0.02785(6) 0.41898(4) 0.75331(10)
H2_5 H 0.0054 0.4592 0.7190
O3_5 O 0.20604(14) 0.48147(9) 0.5618(3)
O4_5 O 0.09226(15) 0.41341(11) 0.6757(3)
O6_5 O 0.03606(16) 0.40969(12) 0.8975(3)
O7_5 O 0.2320(2) 0.37992(10) 0.5168(4)
O8_5 O 0.24299(17) 0.38622(10) 0.7313(3)
O10_5 O 0.32545(18) 0.15692(10) 0.7205(4)
C1_5 C 0.2521(3) 0.36615(16) 0.6221(5)
C2_5 C 0.2810(3) 0.31823(14) 0.6295(4)
C3_5 C 0.2727(3) 0.29273(16) 0.7500(5)
H3_5 H 0.2545 0.3051 0.8273
C4_5 C 0.2938(3) 0.24857(15) 0.7426(5)
H4_5 H 0.2884 0.2305 0.8173
C5_5 C 0.3082(3) 0.29958(15) 0.5215(4)
H5_3 H 0.3111 0.3165 0.4438
C6_5 C 0.3324(2) 0.25609(14) 0.5207(4)
H6_3 H 0.3551 0.2448 0.4465
C7_5 C 0.3223(2) 0.23004(15) 0.6297(4)
C8_5 C 0.3428(2) 0.18077(14) 0.6271(5)
P1_6 P 0.83802(6) 0.48453(3) 0.49144(10)
H1_4 H 0.8978 0.5011 0.4994
P2_6 P 0.97215(6) 0.58102(4) 0.75331(10)
H2_6 H 0.9946 0.5408 0.7190
O3_6 O 0.79396(14) 0.51853(9) 0.5618(3)
O4_6 O 0.90774(15) 0.58659(11) 0.6757(3)
O6_6 O 0.96394(16) 0.59031(12) 0.8975(3)
O7_6 O 0.7680(2) 0.62008(10) 0.5168(4)
O8_6 O 0.75701(17) 0.61378(10) 0.7313(3)
O10_6 O 0.67455(18) 0.84308(10) 0.7205(4)
C1_6 C 0.7479(3) 0.63385(16) 0.6221(5)
C2_6 C 0.7190(3) 0.68177(14) 0.6295(4)
C3_6 C 0.7273(3) 0.70727(16) 0.7500(5)
H3_6 H 0.7455 0.6949 0.8273
C4_6 C 0.7062(3) 0.75143(15) 0.7426(5)
H4_6 H 0.7116 0.7695 0.8173
C5_6 C 0.6918(3) 0.70042(15) 0.5215(4)
H5_4 H 0.6889 0.6835 0.4438
C6_6 C 0.6676(2) 0.74391(14) 0.5207(4)
H6_4 H 0.6449 0.7552 0.4465
C7_6 C 0.6777(2) 0.76996(15) 0.6297(4)
C8_6 C 0.6572(2) 0.81923(14) 0.6271(5)
H1_5 H 0.6022 0.0011 0.4994
P2_7 P 0.52785(6) 0.08102(4) 0.75331(10)
H2_7 H 0.5054 0.0408 0.7190
O3_7 O 0.70604(14) 0.01853(9) 0.5618(3)
O4_7 O 0.59226(15) 0.08659(11) 0.6757(3)
O6_7 O 0.53606(16) 0.09031(12) 0.8975(3)
O7_7 O 0.7320(2) 0.12008(10) 0.5168(4)
O8_7 O 0.74299(17) 0.11378(10) 0.7313(3)
O10_7 O 0.82545(18) 0.34308(10) 0.7205(4)
C1_7 C 0.7521(3) 0.13385(16) 0.6221(5)
C2_7 C 0.7810(3) 0.18177(14) 0.6295(4)
C3_7 C 0.7727(3) 0.20727(16) 0.7500(5)
H3_7 H 0.7545 0.1949 0.8273
C4_7 C 0.7938(3) 0.25143(15) 0.7426(5)
H4_7 H 0.7884 0.2695 0.8173
C5_7 C 0.8082(3) 0.20042(15) 0.5215(4)
H5_5 H 0.8111 0.1835 0.4438
C6_7 C 0.8324(2) 0.24391(14) 0.5207(4)
H6_5 H 0.8551 0.2552 0.4465
C7_7 C 0.8223(2) 0.26996(15) 0.6297(4)
C8_7 C 0.8428(2) 0.31923(14) 0.6271(5)
P1_7 P 0.66198(6) 0.98453(3) 0.49144(10)
P1_8 P 0.33802(6) 0.01547(3) 0.49144(10)
H1_6 H 0.3978 0.9989 0.4994
P2_8 P 0.47215(6) 0.91898(4) 0.75331(10)
H2_8 H 0.4946 0.9592 0.7190
O3_8 O 0.29396(14) 0.98147(9) 0.5618(3)
O4_8 O 0.40774(15) 0.91341(11) 0.6757(3)
O6_8 O 0.46394(16) 0.90969(12) 0.8975(3)
O7_8 O 0.2680(2) 0.87992(10) 0.5168(4)
O8_8 O 0.25701(17) 0.88622(10) 0.7313(3)
O10_8 O 0.17455(18) 0.65692(10) 0.7205(4)
C1_8 C 0.2479(3) 0.86615(16) 0.6221(5)
C2_8 C 0.2190(3) 0.81823(14) 0.6295(4)
C3_8 C 0.2273(3) 0.79273(16) 0.7500(5)
H3_8 H 0.2455 0.8051 0.8273
C4_8 C 0.2062(3) 0.74857(15) 0.7426(5)
H4_8 H 0.2116 0.7305 0.8173
C5_8 C 0.1918(3) 0.79958(15) 0.5215(4)
H5_6 H 0.1889 0.8165 0.4438
C6_8 C 0.1676(2) 0.75609(14) 0.5207(4)
H6_6 H 0.1449 0.7448 0.4465
C7_8 C 0.1777(2) 0.73004(15) 0.6297(4)
C8_8 C 0.1572(2) 0.68077(14) 0.6271(5)
H1_7 H 0.6022 0.9989 0.9994
H5_7 H 0.8111 0.8165 0.9438
H6_7 H 0.8551 0.7448 0.9465
H1_8 H 0.3978 0.0011 0.9994
H5_8 H 0.1889 0.1835 0.9438
H6_8 H 0.1449 0.2552 0.9465
loop_
_geom_bond_atom_site_label_1
_geom_bond_atom_site_label_2
_geom_bond_site_symmetry_1
_geom_bond_site_symmetry_2
Zn5 O1 1_555 1_555
O2 P1 1_555 1_555
Zn3 O2 1_555 1_555
Zn1 O3 1_555 1_555
Zn2 O6 1_555 1_555
P2 H2 1_555 1_555
O4 Zn1 1_555 1_555
O5 P2 1_555 1_555
O6 P2 1_555 1_555
O7 C1 1_555 1_555
O8 Zn1 1_555 1_555
O9 C8 1_555 1_555
O10 C8 1_555 1_555
C1 O8 1_555 1_555
C2 C1 1_555 1_555
C3 C2 1_555 1_555
H3 C3 1_555 1_555
C4 C3 1_555 1_555
H4 C4 1_555 1_555
C5 C2 1_555 1_555
C6 C5 1_555 1_555
C7 C4 1_555 1_555
C8 C7 1_555 1_555
Zn4 O9 1_555 1_555
Zn6 O5 1_555 1_555
O11 Zn2 1_555 1_555
O12 Zn1 1_555 1_555
O13 Zn2 1_555 1_555
O14 Zn2 1_555 1_555
P2 O4 1_555 1_555
C6 C7 1_555 1_555
Zn1_2 O3_2 1_555 1_555
Zn2_2 O6_2 1_555 1_555
P2_2 H2_2 1_555 1_555
O4_2 Zn1_2 1_555 1_555
O5_2 P2_2 1_555 1_555
O6_2 P2_2 1_555 1_555
O7_2 C1_2 1_555 1_555
O8_2 Zn1_2 1_555 1_555
O9_2 C8_2 1_555 1_555
O10_2 C8_2 1_555 1_555
C1_2 O8_2 1_555 1_555
C2_2 C1_2 1_555 1_555
C3_2 C2_2 1_555 1_555
H3_2 C3_2 1_555 1_555
C4_2 C3_2 1_555 1_555
H4_2 C4_2 1_555 1_555
C5_2 C2_2 1_555 1_555
C6_2 C5_2 1_555 1_555
C7_2 C4_2 1_555 1_555
C8_2 C7_2 1_555 1_555
Zn4_2 O9_2 1_555 1_555
Zn5 O5_2 1_555 1_555
O11_2 Zn2_2 1_555 1_555
O12_2 Zn1_2 1_555 1_555
O13_2 Zn2_2 1_555 1_555
O14_2 Zn2_2 1_555 1_555
P2_2 O4_2 1_555 1_555
C6_2 C7_2 1_555 1_555
Zn6 O1_2 1_555 1_555
O2_2 P1_2 1_555 1_555
Zn3_2 O2_2 1_555 1_555
Zn1_3 O3_3 1_555 1_555
Zn2_3 O6_3 1_555 1_555
P2_3 H2_3 1_555 1_555
O4_3 Zn1_3 1_555 1_555
O6_3 P2_3 1_555 1_555
O7_3 C1_3 1_555 1_555
O8_3 Zn1_3 1_555 1_555
O9_3 C8_3 1_555 1_555
O10_3 C8_3 1_555 1_555
C1_3 O8_3 1_555 1_555
C2_3 C1_3 1_555 1_555
C3_3 C2_3 1_555 1_555
H3_3 C3_3 1_555 1_555
C4_3 C3_3 1_555 1_555
H4_3 C4_3 1_555 1_555
C5_3 C2_3 1_555 1_555
C6_3 C5_3 1_555 1_555
C7_3 C4_3 1_555 1_555
C8_3 C7_3 1_555 1_555
Zn6 O9_3 1_555 1_555
Zn4_2 O1_3 1_555 1_555
O11_3 Zn2_3 1_555 1_555
O12_3 Zn1_3 1_555 1_555
O13_3 Zn2_3 1_555 1_555
O14_3 Zn2_3 1_555 1_555
P2_3 O4_3 1_555 1_555
C6_3 C7_3 1_555 1_555
P1_3 H1 1_555 1_555
O2_3 P1_3 1_555 1_555
Zn3_3 O2_3 1_555 1_555
Zn4 O5_3 1_555 1_555
Zn4_2 O5_4 1_555 1_555
Zn1_4 O3_4 1_555 1_555
Zn2_4 O6_4 1_555 1_555
P2_4 H2_4 1_555 1_555
O4_4 Zn1_4 1_555 1_555
O6_4 P2_4 1_555 1_555
O7_4 C1_4 1_555 1_555
O8_4 Zn1_4 1_555 1_555
O9_4 C8_4 1_555 1_555
O10_4 C8_4 1_555 1_555
C1_4 O8_4 1_555 1_555
C2_4 C1_4 1_555 1_555
C3_4 C2_4 1_555 1_555
H3_4 C3_4 1_555 1_555
C4_4 C3_4 1_555 1_555
H4_4 C4_4 1_555 1_555
C5_4 C2_4 1_555 1_555
C6_4 C5_4 1_555 1_555
C7_4 C4_4 1_555 1_555
C8_4 C7_4 1_555 1_555
Zn5 O9_4 1_555 1_555
Zn4 O1_4 1_555 1_555
O11_4 Zn2_4 1_555 1_555
O12_4 Zn1_4 1_555 1_555
O13_4 Zn2_4 1_555 1_555
O14_4 Zn2_4 1_555 1_555
P2_4 O4_4 1_555 1_555
C6_4 C7_4 1_555 1_555
P1_4 H1_2 1_555 1_555
O2_4 P1_4 1_555 1_555
Zn3_4 O2_4 1_555 1_555
Zn3_3 O3_5 1_555 1_555
P1_5 H1_3 1_555 1_555
P2_5 H2_5 1_555 1_555
O11_3 P1_5 1_555 1_555
O12_3 P1_5 1_555 1_555
O3_5 P1_5 1_555 1_555
O4_5 Zn3_3 1_555 1_555
O6_5 P2_5 1_555 1_555
O7_5 C1_5 1_555 1_555
O8_5 Zn3_3 1_555 1_555
O14_2 C8_5 1_555 1_555
O10_5 C8_5 1_555 1_555
C1_5 O8_5 1_555 1_555
C2_5 C1_5 1_555 1_555
C3_5 C2_5 1_555 1_555
H3_5 C3_5 1_555 1_555
C4_5 C3_5 1_555 1_555
H4_5 C4_5 1_555 1_555
C5_5 C2_5 1_555 1_555
H5_3 C5_5 1_555 1_555
C6_5 C5_5 1_555 1_555
H6_3 C6_5 1_555 1_555
C7_5 C4_5 1_555 1_555
C8_5 C7_5 1_555 1_555
P2_5 O4_5 1_555 1_555
C6_5 C7_5 1_555 1_555
Zn3_4 O3_6 1_555 1_555
P1_6 H1_4 1_555 1_555
P2_6 H2_6 1_555 1_555
O11_4 P1_6 1_555 1_555
O12_4 P1_6 1_555 1_555
O3_6 P1_6 1_555 1_555
O4_6 Zn3_4 1_555 1_555
O6_6 P2_6 1_555 1_555
O7_6 C1_6 1_555 1_555
O8_6 Zn3_4 1_555 1_555
O14 C8_6 1_555 1_555
O10_6 C8_6 1_555 1_555
C1_6 O8_6 1_555 1_555
C2_6 C1_6 1_555 1_555
C3_6 C2_6 1_555 1_555
H3_6 C3_6 1_555 1_555
C4_6 C3_6 1_555 1_555
H4_6 C4_6 1_555 1_555
C5_6 C2_6 1_555 1_555
H5_4 C5_6 1_555 1_555
C6_6 C5_6 1_555 1_555
H6_4 C6_6 1_555 1_555
C7_6 C4_6 1_555 1_555
C8_6 C7_6 1_555 1_555
P2_6 O4_6 1_555 1_555
C6_6 C7_6 1_555 1_555
Zn3 O3_7 1_555 1_555
P2_7 H2_7 1_555 1_555
O4_7 Zn3 1_555 1_555
O13_2 P2_7 1_555 1_555
O6_7 P2_7 1_555 1_555
O7_7 C1_7 1_555 1_555
O8_7 Zn3 1_555 1_555
O14_4 C8_7 1_555 1_555
O10_7 C8_7 1_555 1_555
C1_7 O8_7 1_555 1_555
C2_7 C1_7 1_555 1_555
C3_7 C2_7 1_555 1_555
H3_7 C3_7 1_555 1_555
C4_7 C3_7 1_555 1_555
H4_7 C4_7 1_555 1_555
C5_7 C2_7 1_555 1_555
H5_5 C5_7 1_555 1_555
C6_7 C5_7 1_555 1_555
H6_5 C6_7 1_555 1_555
C7_7 C4_7 1_555 1_555
C8_7 C7_7 1_555 1_555
P2_7 O4_7 1_555 1_555
C6_7 C7_7 1_555 1_555
O11 P1_7 1_555 1_555
O12 P1_7 1_555 1_555
O11_2 P1_8 1_555 1_555
O12_2 P1_8 1_555 1_555
Zn3_2 O3_8 1_555 1_555
P2_8 H2_8 1_555 1_555
O4_8 Zn3_2 1_555 1_555
O13 P2_8 1_555 1_555
O6_8 P2_8 1_555 1_555
O7_8 C1_8 1_555 1_555
O8_8 Zn3_2 1_555 1_555
O14_3 C8_8 1_555 1_555
O10_8 C8_8 1_555 1_555
C1_8 O8_8 1_555 1_555
C2_8 C1_8 1_555 1_555
C3_8 C2_8 1_555 1_555
H3_8 C3_8 1_555 1_555
C4_8 C3_8 1_555 1_555
H4_8 C4_8 1_555 1_555
C5_8 C2_8 1_555 1_555
H5_6 C5_8 1_555 1_555
C6_8 C5_8 1_555 1_555
H6_6 C6_8 1_555 1_555
C7_8 C4_8 1_555 1_555
C8_8 C7_8 1_555 1_555
P2_8 O4_8 1_555 1_555
C6_8 C7_8 1_555 1_555

#END
