
###############################################################################
#
# This file contains modified crystal structure data generated from the
# MOF subset of the Cambridge Structural Database (CSD) v543 
# hosted by the Cambridge Crystallographic Data Centre (CCDC).
#
# This work is licensed under the Creative Commons
# Attribution-NonCommercial-ShareAlike 4.0 International License.
# To view a copy of this license, visit
# http://creativecommons.org/licenses/by-nc-sa/4.0/
# or send a letter to
# Creative Commons, PO Box 1866, Mountain View, CA 94042, USA.
#
# CIF created using the CSD Python API on 29 September 2022
# The structure has been converted into the P1 space group
# The structure has a 3D framework
# The original CSD entry CETLAR is in the orthorhombic crystal system
# The framework has been calculated to contain at least 10.0% void space
# The void calculation uses a probe of radius 1.32A, grid spacing 0.4
# The framework is charged, counterions have been retained in the structure
#
###############################################################################

data_CETLAR
_chemical_formula_moiety         '(C112 H80 O80 P16 Zn16 16-)n'
_symmetry_cell_setting           triclinic
_symmetry_space_group_name_H-M   'P 1'
_symmetry_Int_Tables_number      1
_space_group_name_Hall           'P 1'
loop_
_symmetry_equiv_pos_site_id
_symmetry_equiv_pos_as_xyz
1 x,y,z
_cell_length_a                   20.5011(8)
_cell_length_b                   37.9847(12)
_cell_length_c                   10.0139(3)
_cell_angle_alpha                90
_cell_angle_beta                 90
_cell_angle_gamma                90
_cell_volume                     7798.11
loop_
_atom_site_label
_atom_site_type_symbol
_atom_site_fract_x
_atom_site_fract_y
_atom_site_fract_z
P2 P 0.39786(6) 0.26037(3) 0.01035(10)
H2 H 0.3440 0.2464 0.0166
O6 O 0.4157(2) 0.26324(8) 0.1563(3)
H3 H 0.3683 0.4488 0.0035
Zn6 Zn 0.41891(2) 0.297436(11) 0.29618(4)
O11 O 0.28243(17) 0.32156(9) 0.0955(3)
Zn1 Zn 0.34061(2) 0.333568(11) 0.94987(4)
Zn2 Zn 0.41891(2) 0.202564(11) 0.79618(4)
P1 P 0.22780(5) 0.31362(2) 0.73933(9)
H1 H 0.2416 0.2810 0.7490
O1 O 0.28436(17) 0.33505(8) 0.7911(3)
O2 O 0.21757(17) 0.32156(9) 0.5955(3)
O3 O 0.16804(16) 0.31772(8) 0.8258(3)
O4 O 0.40173(16) 0.29488(7) 0.9353(3)
O5 O 0.43956(16) 0.23191(7) 0.9479(3)
O7 O 0.36589(19) 0.38320(8) 0.9700(3)
O8 O 0.4203(2) 0.36914(9) 0.7847(4)
O9 O 0.5256(2) 0.66321(8) 0.7469(4)
O10 O 0.5280(2) 0.64747(9) 0.5335(3)
C1 C 0.4000(2) 0.39091(11) 0.8684(5)
C2 C 0.4143(2) 0.42919(11) 0.8442(5)
C3 C 0.3925(3) 0.45504(11) 0.9285(5)
C4 C 0.4054(3) 0.48999(12) 0.9048(5)
H4 H 0.3920 0.5070 0.9658
C5 C 0.4479(3) 0.43854(13) 0.7315(6)
H5 H 0.4619 0.4213 0.6721
C6 C 0.4612(4) 0.47391(14) 0.7056(6)
H6 H 0.4857 0.4800 0.6310
C7 C 0.4384(3) 0.49992(12) 0.7902(5)
C8 C 0.4528(3) 0.53770(11) 0.7578(5)
C9 C 0.4729(3) 0.56105(12) 0.8555(5)
H7 H 0.4739 0.5538 0.9442
C10 C 0.4915(3) 0.59493(12) 0.8233(5)
H8 H 0.5053 0.6103 0.8898
C11 C 0.4476(4) 0.54990(14) 0.6257(5)
H9 H 0.4316 0.5350 0.5598
C12 C 0.4657(3) 0.58338(13) 0.5931(5)
H10 H 0.4622 0.5911 0.5053
C13 C 0.4893(2) 0.60602(11) 0.6906(4)
C14 C 0.5158(2) 0.64165(12) 0.6521(6)
Zn3 Zn 0.15939(2) 0.333568(11) 0.44987(4)
Zn4 Zn 0.08109(2) 0.297436(11) 0.79618(4)
Zn5 Zn 0.58109(2) 0.702564(11) 0.70382(4)
O12 O 0.33196(16) 0.18228(8) 0.8258(3)
O13 O 0.4157(2) 0.23676(8) 0.6563(3)
O14 O 0.4744(2) 0.16321(8) 0.7531(4)
P2_2 P 0.10214(6) 0.23963(3) 0.01035(10)
H2_2 H 0.1560 0.2536 0.0166
O6_2 O 0.0843(2) 0.23676(8) 0.1563(3)
H3_2 H 0.1317 0.0512 0.0035
Zn6_2 Zn 0.08109(2) 0.202564(11) 0.29618(4)
O11_2 O 0.21757(17) 0.17844(9) 0.0955(3)
Zn1_2 Zn 0.15939(2) 0.166432(11) 0.94987(4)
P1_2 P 0.27220(5) 0.18638(2) 0.73933(9)
H1_2 H 0.2584 0.2190 0.7490
O1_2 O 0.21564(17) 0.16495(8) 0.7911(3)
O2_2 O 0.28243(17) 0.17844(9) 0.5955(3)
O4_2 O 0.09827(16) 0.20512(7) 0.9353(3)
O5_2 O 0.06044(16) 0.26809(7) 0.9479(3)
O7_2 O 0.13411(19) 0.11680(8) 0.9700(3)
O8_2 O 0.0797(2) 0.13086(9) 0.7847(4)
C1_2 C 0.1000(2) 0.10909(11) 0.8684(5)
C2_2 C 0.0857(2) 0.07081(11) 0.8442(5)
C3_2 C 0.1075(3) 0.04496(11) 0.9285(5)
C4_2 C 0.0946(3) 0.01001(12) 0.9048(5)
C5_2 C 0.0521(3) 0.06146(13) 0.7315(6)
H5_2 H 0.0381 0.0787 0.6721
C6_2 C 0.0388(4) 0.02609(14) 0.7056(6)
H6_2 H 0.0143 0.0200 0.6310
C7_2 C 0.0616(3) 0.00008(12) 0.7902(5)
Zn3_2 Zn 0.34061(2) 0.166432(11) 0.44987(4)
O13_2 O 0.0843(2) 0.26324(8) 0.6563(3)
O14_2 O 0.0256(2) 0.33679(8) 0.7531(4)
O9_2 O 0.9744(2) 0.83679(8) 0.7469(4)
O10_2 O 0.9720(2) 0.85253(9) 0.5335(3)
H8_2 H 0.9947 0.8897 0.8898
C14_2 C 0.9842(2) 0.85835(12) 0.6521(6)
Zn5_2 Zn 0.91891(2) 0.797436(11) 0.70382(4)
O10_3 O 0.4720(2) 0.14747(9) 0.9665(3)
H4_2 H 0.6080 0.0070 0.5342
C8_2 C 0.5472(3) 0.03770(11) 0.7422(5)
C9_2 C 0.5271(3) 0.06105(12) 0.6445(5)
H7_2 H 0.5261 0.0538 0.5558
C10_2 C 0.5085(3) 0.09493(12) 0.6767(5)
H8_3 H 0.4947 0.1103 0.6102
C11_2 C 0.5524(4) 0.04990(14) 0.8743(5)
H9_2 H 0.5684 0.0350 0.9402
C12_2 C 0.5343(3) 0.08338(13) 0.9069(5)
H10_2 H 0.5378 0.0911 0.9947
C13_2 C 0.5107(2) 0.10602(11) 0.8094(4)
C14_3 C 0.4842(2) 0.14165(12) 0.8479(6)
Zn3_3 Zn 0.84061(2) 0.833568(11) 0.05013(4)
Zn1_3 Zn 0.65939(2) 0.833568(11) 0.55013(4)
P1_3 P 0.77220(5) 0.81362(2) 0.76067(9)
H1_3 H 0.7584 0.7810 0.7510
P2_3 P 0.60214(6) 0.76037(3) 0.48965(10)
H2_3 H 0.6560 0.7464 0.4834
O1_3 O 0.71564(17) 0.83505(8) 0.7089(3)
O2_3 O 0.78243(17) 0.82156(9) 0.9045(3)
O3_2 O 0.83196(16) 0.81772(8) 0.6742(3)
O4_3 O 0.59827(16) 0.79488(7) 0.5647(3)
O5_3 O 0.56044(16) 0.73191(7) 0.5521(3)
O6_3 O 0.5843(2) 0.76324(8) 0.3437(3)
O7_3 O 0.63411(19) 0.88320(8) 0.5300(3)
O8_3 O 0.5797(2) 0.86914(9) 0.7153(4)
C1_3 C 0.6000(2) 0.89091(11) 0.6316(5)
C2_3 C 0.5857(2) 0.92919(11) 0.6558(5)
C3_3 C 0.6075(3) 0.95504(11) 0.5715(5)
H3_3 H 0.6317 0.9488 0.4965
C4_3 C 0.5946(3) 0.98999(12) 0.5952(5)
C5_3 C 0.5521(3) 0.93854(13) 0.7685(6)
H5_3 H 0.5381 0.9213 0.8279
C6_3 C 0.5388(4) 0.97391(14) 0.7944(6)
H6_3 H 0.5143 0.9800 0.8690
C7_3 C 0.5616(3) 0.99992(12) 0.7098(5)
Zn6_3 Zn 0.58109(2) 0.797436(11) 0.20382(4)
O11_3 O 0.71757(17) 0.82156(9) 0.4045(3)
O12_2 O 0.66804(16) 0.68228(8) 0.6742(3)
O13_3 O 0.5843(2) 0.73676(8) 0.8437(3)
O10_4 O 0.0280(2) 0.35253(9) 0.9665(3)
H8_4 H 0.0053 0.3897 0.6102
C14_4 C 0.0158(2) 0.35835(12) 0.8479(6)
Zn3_4 Zn 0.65939(2) 0.666432(11) 0.05013(4)
Zn1_4 Zn 0.84061(2) 0.666432(11) 0.55013(4)
P1_4 P 0.72780(5) 0.68638(2) 0.76067(9)
H1_4 H 0.7416 0.7190 0.7510
P2_4 P 0.89786(6) 0.73963(3) 0.48965(10)
H2_4 H 0.8440 0.7536 0.4834
O1_4 O 0.78436(17) 0.66495(8) 0.7089(3)
O2_4 O 0.71757(17) 0.67844(9) 0.9045(3)
O4_4 O 0.90173(16) 0.70512(7) 0.5647(3)
O5_4 O 0.93956(16) 0.76809(7) 0.5521(3)
O6_4 O 0.9157(2) 0.73676(8) 0.3437(3)
O7_4 O 0.86589(19) 0.61680(8) 0.5300(3)
O8_4 O 0.9203(2) 0.63086(9) 0.7153(4)
C1_4 C 0.9000(2) 0.60909(11) 0.6316(5)
C2_4 C 0.9143(2) 0.57081(11) 0.6558(5)
C3_4 C 0.8925(3) 0.54496(11) 0.5715(5)
H3_4 H 0.8683 0.5512 0.4965
C4_4 C 0.9054(3) 0.51001(12) 0.5952(5)
H4_3 H 0.8920 0.4930 0.5342
C5_4 C 0.9479(3) 0.56146(13) 0.7685(6)
H5_4 H 0.9619 0.5787 0.8279
C6_4 C 0.9612(4) 0.52609(14) 0.7944(6)
H6_4 H 0.9857 0.5200 0.8690
C7_4 C 0.9384(3) 0.50008(12) 0.7098(5)
C8_3 C 0.9528(3) 0.46230(11) 0.7422(5)
C9_3 C 0.9729(3) 0.43895(12) 0.6445(5)
H7_3 H 0.9739 0.4462 0.5558
C10_3 C 0.9915(3) 0.40507(12) 0.6767(5)
C11_3 C 0.9476(4) 0.45010(14) 0.8743(5)
H9_3 H 0.9316 0.4650 0.9402
C12_3 C 0.9657(3) 0.41662(13) 0.9069(5)
H10_3 H 0.9622 0.4089 0.9947
C13_3 C 0.9893(2) 0.39398(11) 0.8094(4)
Zn6_4 Zn 0.91891(2) 0.702564(11) 0.20382(4)
O11_4 O 0.78243(17) 0.67844(9) 0.4045(3)
O13_4 O 0.9157(2) 0.76324(8) 0.8437(3)
P1_5 P 0.77220(5) 0.68638(2) 0.26067(9)
H1_5 H 0.7584 0.7190 0.2510
O1_5 O 0.71564(17) 0.66495(8) 0.2089(3)
O3_3 O 0.83196(16) 0.68228(8) 0.1742(3)
O4_5 O 0.59827(16) 0.70512(7) 0.0647(3)
O5_5 O 0.56044(16) 0.76809(7) 0.0521(3)
O7_5 O 0.63411(19) 0.61680(8) 0.0300(3)
O8_5 O 0.5797(2) 0.63086(9) 0.2153(4)
O9_3 O 0.4744(2) 0.33679(8) 0.2531(4)
O10_5 O 0.4720(2) 0.35253(9) 0.4665(3)
C1_5 C 0.6000(2) 0.60909(11) 0.1316(5)
C2_5 C 0.5857(2) 0.57081(11) 0.1558(5)
C3_5 C 0.6075(3) 0.54496(11) 0.0715(5)
C4_5 C 0.5946(3) 0.51001(12) 0.0952(5)
H4_4 H 0.6080 0.4930 0.0342
C5_5 C 0.5521(3) 0.56146(13) 0.2685(6)
H5_5 H 0.5381 0.5787 0.3279
C6_5 C 0.5388(4) 0.52609(14) 0.2944(6)
H6_5 H 0.5143 0.5200 0.3690
C7_5 C 0.5616(3) 0.50008(12) 0.2098(5)
C8_4 C 0.5472(3) 0.46230(11) 0.2422(5)
C9_4 C 0.5271(3) 0.43895(12) 0.1445(5)
H7_4 H 0.5261 0.4462 0.0558
C10_4 C 0.5085(3) 0.40507(12) 0.1767(5)
H8_5 H 0.4947 0.3897 0.1102
C11_4 C 0.5524(4) 0.45010(14) 0.3743(5)
H9_4 H 0.5684 0.4650 0.4402
C12_4 C 0.5343(3) 0.41662(13) 0.4069(5)
H10_4 H 0.5378 0.4089 0.4947
C13_4 C 0.5107(2) 0.39398(11) 0.3094(4)
C14_5 C 0.4842(2) 0.35835(12) 0.3479(6)
O12_3 O 0.66804(16) 0.81772(8) 0.1742(3)
O14_3 O 0.5256(2) 0.83679(8) 0.2469(4)
P2_5 P 0.60214(6) 0.73963(3) 0.98965(10)
H2_5 H 0.6560 0.7536 0.9834
H3_5 H 0.6317 0.5512 0.9965
O9_4 O 0.0256(2) 0.16321(8) 0.2531(4)
O10_6 O 0.0280(2) 0.14747(9) 0.4665(3)
H8_6 H 0.0053 0.1103 0.1102
C14_6 C 0.0158(2) 0.14165(12) 0.3479(6)
P1_6 P 0.72780(5) 0.81362(2) 0.26067(9)
H1_6 H 0.7416 0.7810 0.2510
O1_6 O 0.78436(17) 0.83505(8) 0.2089(3)
O4_6 O 0.90173(16) 0.79488(7) 0.0647(3)
O5_6 O 0.93956(16) 0.73191(7) 0.0521(3)
O7_6 O 0.86589(19) 0.88320(8) 0.0300(3)
O8_6 O 0.9203(2) 0.86914(9) 0.2153(4)
C1_6 C 0.9000(2) 0.89091(11) 0.1316(5)
C2_6 C 0.9143(2) 0.92919(11) 0.1558(5)
C3_6 C 0.8925(3) 0.95504(11) 0.0715(5)
C4_6 C 0.9054(3) 0.98999(12) 0.0952(5)
C5_6 C 0.9479(3) 0.93854(13) 0.2685(6)
H5_6 H 0.9619 0.9213 0.3279
C6_6 C 0.9612(4) 0.97391(14) 0.2944(6)
H6_6 H 0.9857 0.9800 0.3690
C7_6 C 0.9384(3) 0.99992(12) 0.2098(5)
O14_4 O 0.9744(2) 0.66321(8) 0.2469(4)
P2_6 P 0.89786(6) 0.76037(3) 0.98965(10)
H2_6 H 0.8440 0.7464 0.9834
H3_6 H 0.8683 0.9488 0.9965
P1_7 P 0.22780(5) 0.18638(2) 0.23933(9)
H1_7 H 0.2416 0.2190 0.2490
P2_7 P 0.39786(6) 0.23963(3) 0.51035(10)
H2_7 H 0.3440 0.2536 0.5166
O1_7 O 0.28436(17) 0.16495(8) 0.2911(3)
O3_4 O 0.16804(16) 0.18228(8) 0.3258(3)
O4_7 O 0.40173(16) 0.20512(7) 0.4353(3)
O5_7 O 0.43956(16) 0.26809(7) 0.4479(3)
O7_7 O 0.36589(19) 0.11680(8) 0.4700(3)
O8_7 O 0.4203(2) 0.13086(9) 0.2847(4)
C1_7 C 0.4000(2) 0.10909(11) 0.3684(5)
C2_7 C 0.4143(2) 0.07081(11) 0.3442(5)
C3_7 C 0.3925(3) 0.04496(11) 0.4285(5)
H3_7 H 0.3683 0.0512 0.5035
C4_7 C 0.4054(3) 0.01001(12) 0.4048(5)
C5_7 C 0.4479(3) 0.06146(13) 0.2315(6)
H5_7 H 0.4619 0.0787 0.1721
C6_7 C 0.4612(4) 0.02609(14) 0.2056(6)
H6_7 H 0.4857 0.0200 0.1310
C7_7 C 0.4384(3) 0.00008(12) 0.2902(5)
O12_4 O 0.33196(16) 0.31772(8) 0.3258(3)
O10_7 O 0.5280(2) 0.85253(9) 0.0335(3)
H4_5 H 0.3920 0.9930 0.4658
C8_5 C 0.4528(3) 0.96230(11) 0.2578(5)
C9_5 C 0.4729(3) 0.93895(12) 0.3555(5)
H7_5 H 0.4739 0.9462 0.4442
C10_5 C 0.4915(3) 0.90507(12) 0.3233(5)
H8_7 H 0.5053 0.8897 0.3898
C11_5 C 0.4476(4) 0.95010(14) 0.1257(5)
H9_5 H 0.4316 0.9650 0.0598
C12_5 C 0.4657(3) 0.91662(13) 0.0931(5)
H10_5 H 0.4622 0.9089 0.0053
C13_5 C 0.4893(2) 0.89398(11) 0.1906(4)
C14_7 C 0.5158(2) 0.85835(12) 0.1521(6)
P1_8 P 0.27220(5) 0.31362(2) 0.23933(9)
H1_8 H 0.2584 0.2810 0.2490
P2_8 P 0.10214(6) 0.26037(3) 0.51035(10)
H2_8 H 0.1560 0.2464 0.5166
O1_8 O 0.21564(17) 0.33505(8) 0.2911(3)
O4_8 O 0.09827(16) 0.29488(7) 0.4353(3)
O5_8 O 0.06044(16) 0.23191(7) 0.4479(3)
O7_8 O 0.13411(19) 0.38320(8) 0.4700(3)
O8_8 O 0.0797(2) 0.36914(9) 0.2847(4)
C1_8 C 0.1000(2) 0.39091(11) 0.3684(5)
C2_8 C 0.0857(2) 0.42919(11) 0.3442(5)
C3_8 C 0.1075(3) 0.45504(11) 0.4285(5)
H3_8 H 0.1317 0.4488 0.5035
C4_8 C 0.0946(3) 0.48999(12) 0.4048(5)
H4_6 H 0.1080 0.5070 0.4658
C5_8 C 0.0521(3) 0.43854(13) 0.2315(6)
H5_8 H 0.0381 0.4213 0.1721
C6_8 C 0.0388(4) 0.47391(14) 0.2056(6)
H6_8 H 0.0143 0.4800 0.1310
C7_8 C 0.0616(3) 0.49992(12) 0.2902(5)
C8_6 C 0.0472(3) 0.53770(11) 0.2578(5)
C9_6 C 0.0271(3) 0.56105(12) 0.3555(5)
H7_6 H 0.0261 0.5538 0.4442
C10_6 C 0.0085(3) 0.59493(12) 0.3233(5)
C11_6 C 0.0524(4) 0.54990(14) 0.1257(5)
H9_6 H 0.0684 0.5350 0.0598
C12_6 C 0.0343(3) 0.58338(13) 0.0931(5)
H10_6 H 0.0378 0.5911 0.0053
C13_6 C 0.0107(2) 0.60602(11) 0.1906(4)
O10_8 O 0.9720(2) 0.64747(9) 0.0335(3)
H8_8 H 0.9947 0.6103 0.3898
C14_8 C 0.9842(2) 0.64165(12) 0.1521(6)
H4_7 H 0.1080 0.9930 0.9658
C8_7 C 0.0472(3) 0.96230(11) 0.7578(5)
C9_7 C 0.0271(3) 0.93895(12) 0.8555(5)
H7_7 H 0.0261 0.9462 0.9442
C10_7 C 0.0085(3) 0.90507(12) 0.8233(5)
C11_7 C 0.0524(4) 0.95010(14) 0.6257(5)
H9_7 H 0.0684 0.9650 0.5598
C12_7 C 0.0343(3) 0.91662(13) 0.5931(5)
H10_7 H 0.0378 0.9089 0.5053
C13_7 C 0.0107(2) 0.89398(11) 0.6906(4)
H4_8 H 0.8920 0.0070 0.0342
C8_8 C 0.9528(3) 0.03770(11) 0.2422(5)
C9_8 C 0.9729(3) 0.06105(12) 0.1445(5)
H7_8 H 0.9739 0.0538 0.0558
C10_8 C 0.9915(3) 0.09493(12) 0.1767(5)
C11_8 C 0.9476(4) 0.04990(14) 0.3743(5)
H9_8 H 0.9316 0.0350 0.4402
C12_8 C 0.9657(3) 0.08338(13) 0.4069(5)
H10_8 H 0.9622 0.0911 0.4947
C13_8 C 0.9893(2) 0.10602(11) 0.3094(4)
loop_
_geom_bond_atom_site_label_1
_geom_bond_atom_site_label_2
_geom_bond_site_symmetry_1
_geom_bond_site_symmetry_2
P2 H2 1_555 1_555
O6 P2 1_555 1_555
Zn6 O6 1_555 1_555
Zn1 O1 1_555 1_555
Zn2 O5 1_555 1_555
P1 H1 1_555 1_555
O1 P1 1_555 1_555
O2 P1 1_555 1_555
O3 P1 1_555 1_555
O4 Zn1 1_555 1_555
O7 Zn1 1_555 1_555
O8 C1 1_555 1_555
O9 C14 1_555 1_555
O10 C14 1_555 1_555
C1 O7 1_555 1_555
C2 C1 1_555 1_555
C3 C2 1_555 1_555
C4 C3 1_555 1_555
H4 C4 1_555 1_555
C5 C2 1_555 1_555
H5 C5 1_555 1_555
C6 C5 1_555 1_555
H6 C6 1_555 1_555
C7 C4 1_555 1_555
C8 C7 1_555 1_555
C9 C8 1_555 1_555
H7 C9 1_555 1_555
C10 C9 1_555 1_555
H8 C10 1_555 1_555
C11 C8 1_555 1_555
H9 C11 1_555 1_555
C12 C11 1_555 1_555
H10 C12 1_555 1_555
C13 C10 1_555 1_555
C14 C13 1_555 1_555
Zn3 O2 1_555 1_555
Zn4 O3 1_555 1_555
Zn5 O9 1_555 1_555
O12 Zn2 1_555 1_555
O13 Zn2 1_555 1_555
O14 Zn2 1_555 1_555
C6 C7 1_555 1_555
C12 C13 1_555 1_555
P2_2 H2_2 1_555 1_555
O6_2 P2_2 1_555 1_555
Zn6_2 O6_2 1_555 1_555
Zn1_2 O1_2 1_555 1_555
Zn4 O5_2 1_555 1_555
P1_2 H1_2 1_555 1_555
O1_2 P1_2 1_555 1_555
O2_2 P1_2 1_555 1_555
O12 P1_2 1_555 1_555
O4_2 Zn1_2 1_555 1_555
O7_2 Zn1_2 1_555 1_555
O8_2 C1_2 1_555 1_555
C1_2 O7_2 1_555 1_555
C2_2 C1_2 1_555 1_555
C3_2 C2_2 1_555 1_555
C4_2 C3_2 1_555 1_555
C5_2 C2_2 1_555 1_555
H5_2 C5_2 1_555 1_555
C6_2 C5_2 1_555 1_555
H6_2 C6_2 1_555 1_555
C7_2 C4_2 1_555 1_555
Zn3_2 O2_2 1_555 1_555
O13_2 Zn4 1_555 1_555
O14_2 Zn4 1_555 1_555
C6_2 C7_2 1_555 1_555
O9_2 C14_2 1_555 1_555
O10_2 C14_2 1_555 1_555
Zn5_2 O9_2 1_555 1_555
O14 C14_3 1_555 1_555
O10_3 C14_3 1_555 1_555
C9_2 C8_2 1_555 1_555
H7_2 C9_2 1_555 1_555
C10_2 C9_2 1_555 1_555
H8_3 C10_2 1_555 1_555
C11_2 C8_2 1_555 1_555
H9_2 C11_2 1_555 1_555
C12_2 C11_2 1_555 1_555
H10_2 C12_2 1_555 1_555
C13_2 C10_2 1_555 1_555
C14_3 C13_2 1_555 1_555
C12_2 C13_2 1_555 1_555
Zn1_3 O1_3 1_555 1_555
Zn5 O5_3 1_555 1_555
P1_3 H1_3 1_555 1_555
P2_3 H2_3 1_555 1_555
O1_3 P1_3 1_555 1_555
O2_3 P1_3 1_555 1_555
O3_2 P1_3 1_555 1_555
O4_3 Zn1_3 1_555 1_555
O5_3 P2_3 1_555 1_555
O6_3 P2_3 1_555 1_555
O7_3 Zn1_3 1_555 1_555
O8_3 C1_3 1_555 1_555
C1_3 O7_3 1_555 1_555
C2_3 C1_3 1_555 1_555
C3_3 C2_3 1_555 1_555
H3_3 C3_3 1_555 1_555
C4_3 C3_3 1_555 1_555
C5_3 C2_3 1_555 1_555
H5_3 C5_3 1_555 1_555
C6_3 C5_3 1_555 1_555
H6_3 C6_3 1_555 1_555
C7_3 C4_3 1_555 1_555
Zn5_2 O3_2 1_555 1_555
Zn6_3 O6_3 1_555 1_555
O11_3 Zn1_3 1_555 1_555
O12_2 Zn5 1_555 1_555
O13_3 Zn5 1_555 1_555
P2_3 O4_3 1_555 1_555
C6_3 C7_3 1_555 1_555
O14_2 C14_4 1_555 1_555
O10_4 C14_4 1_555 1_555
Zn1_4 O1_4 1_555 1_555
Zn5_2 O5_4 1_555 1_555
P1_4 H1_4 1_555 1_555
P2_4 H2_4 1_555 1_555
O1_4 P1_4 1_555 1_555
O2_4 P1_4 1_555 1_555
O12_2 P1_4 1_555 1_555
O4_4 Zn1_4 1_555 1_555
O5_4 P2_4 1_555 1_555
O6_4 P2_4 1_555 1_555
O7_4 Zn1_4 1_555 1_555
O8_4 C1_4 1_555 1_555
C1_4 O7_4 1_555 1_555
C2_4 C1_4 1_555 1_555
C3_4 C2_4 1_555 1_555
H3_4 C3_4 1_555 1_555
C4_4 C3_4 1_555 1_555
H4_3 C4_4 1_555 1_555
C5_4 C2_4 1_555 1_555
H5_4 C5_4 1_555 1_555
C6_4 C5_4 1_555 1_555
H6_4 C6_4 1_555 1_555
C7_4 C4_4 1_555 1_555
C8_3 C7_4 1_555 1_555
C9_3 C8_3 1_555 1_555
H7_3 C9_3 1_555 1_555
C10_3 C9_3 1_555 1_555
C11_3 C8_3 1_555 1_555
H9_3 C11_3 1_555 1_555
C12_3 C11_3 1_555 1_555
H10_3 C12_3 1_555 1_555
C13_3 C10_3 1_555 1_555
Zn6_4 O6_4 1_555 1_555
O11_4 Zn1_4 1_555 1_555
O13_4 Zn5_2 1_555 1_555
P2_4 O4_4 1_555 1_555
C6_4 C7_4 1_555 1_555
C12_3 C13_3 1_555 1_555
Zn3_4 O1_5 1_555 1_555
Zn6_3 O5_5 1_555 1_555
P1_5 H1_5 1_555 1_555
O1_5 P1_5 1_555 1_555
O11_4 P1_5 1_555 1_555
O3_3 P1_5 1_555 1_555
O4_5 Zn3_4 1_555 1_555
O7_5 Zn3_4 1_555 1_555
O8_5 C1_5 1_555 1_555
O9_3 C14_5 1_555 1_555
O10_5 C14_5 1_555 1_555
C1_5 O7_5 1_555 1_555
C2_5 C1_5 1_555 1_555
C3_5 C2_5 1_555 1_555
C4_5 C3_5 1_555 1_555
H4_4 C4_5 1_555 1_555
C5_5 C2_5 1_555 1_555
H5_5 C5_5 1_555 1_555
C6_5 C5_5 1_555 1_555
H6_5 C6_5 1_555 1_555
C7_5 C4_5 1_555 1_555
C8_4 C7_5 1_555 1_555
C9_4 C8_4 1_555 1_555
H7_4 C9_4 1_555 1_555
C10_4 C9_4 1_555 1_555
H8_5 C10_4 1_555 1_555
C11_4 C8_4 1_555 1_555
H9_4 C11_4 1_555 1_555
C12_4 C11_4 1_555 1_555
H10_4 C12_4 1_555 1_555
C13_4 C10_4 1_555 1_555
C14_5 C13_4 1_555 1_555
Zn6_4 O3_3 1_555 1_555
Zn6 O9_3 1_555 1_555
O12_3 Zn6_3 1_555 1_555
O14_3 Zn6_3 1_555 1_555
C6_5 C7_5 1_555 1_555
C12_4 C13_4 1_555 1_555
P2_5 H2_5 1_555 1_555
O13_3 P2_5 1_555 1_555
O9_4 C14_6 1_555 1_555
O10_6 C14_6 1_555 1_555
Zn6_2 O9_4 1_555 1_555
Zn3_3 O1_6 1_555 1_555
Zn6_4 O5_6 1_555 1_555
P1_6 H1_6 1_555 1_555
O1_6 P1_6 1_555 1_555
O11_3 P1_6 1_555 1_555
O12_3 P1_6 1_555 1_555
O4_6 Zn3_3 1_555 1_555
O7_6 Zn3_3 1_555 1_555
O8_6 C1_6 1_555 1_555
C1_6 O7_6 1_555 1_555
C2_6 C1_6 1_555 1_555
C3_6 C2_6 1_555 1_555
C4_6 C3_6 1_555 1_555
C5_6 C2_6 1_555 1_555
H5_6 C5_6 1_555 1_555
C6_6 C5_6 1_555 1_555
H6_6 C6_6 1_555 1_555
C7_6 C4_6 1_555 1_555
O14_4 Zn6_4 1_555 1_555
C6_6 C7_6 1_555 1_555
P2_6 H2_6 1_555 1_555
O13_4 P2_6 1_555 1_555
Zn3_2 O1_7 1_555 1_555
Zn6 O5_7 1_555 1_555
P1_7 H1_7 1_555 1_555
P2_7 H2_7 1_555 1_555
O1_7 P1_7 1_555 1_555
O11_2 P1_7 1_555 1_555
O3_4 P1_7 1_555 1_555
O4_7 Zn3_2 1_555 1_555
O5_7 P2_7 1_555 1_555
O13 P2_7 1_555 1_555
O7_7 Zn3_2 1_555 1_555
O8_7 C1_7 1_555 1_555
C1_7 O7_7 1_555 1_555
C2_7 C1_7 1_555 1_555
C3_7 C2_7 1_555 1_555
H3_7 C3_7 1_555 1_555
C4_7 C3_7 1_555 1_555
C5_7 C2_7 1_555 1_555
H5_7 C5_7 1_555 1_555
C6_7 C5_7 1_555 1_555
H6_7 C6_7 1_555 1_555
C7_7 C4_7 1_555 1_555
Zn6_2 O3_4 1_555 1_555
O12_4 Zn6 1_555 1_555
P2_7 O4_7 1_555 1_555
C6_7 C7_7 1_555 1_555
O14_3 C14_7 1_555 1_555
O10_7 C14_7 1_555 1_555
C9_5 C8_5 1_555 1_555
H7_5 C9_5 1_555 1_555
C10_5 C9_5 1_555 1_555
H8_7 C10_5 1_555 1_555
C11_5 C8_5 1_555 1_555
H9_5 C11_5 1_555 1_555
C12_5 C11_5 1_555 1_555
H10_5 C12_5 1_555 1_555
C13_5 C10_5 1_555 1_555
C14_7 C13_5 1_555 1_555
C12_5 C13_5 1_555 1_555
Zn3 O1_8 1_555 1_555
Zn6_2 O5_8 1_555 1_555
P1_8 H1_8 1_555 1_555
P2_8 H2_8 1_555 1_555
O1_8 P1_8 1_555 1_555
O11 P1_8 1_555 1_555
O12_4 P1_8 1_555 1_555
O4_8 Zn3 1_555 1_555
O5_8 P2_8 1_555 1_555
O13_2 P2_8 1_555 1_555
O7_8 Zn3 1_555 1_555
O8_8 C1_8 1_555 1_555
C1_8 O7_8 1_555 1_555
C2_8 C1_8 1_555 1_555
C3_8 C2_8 1_555 1_555
H3_8 C3_8 1_555 1_555
C4_8 C3_8 1_555 1_555
H4_6 C4_8 1_555 1_555
C5_8 C2_8 1_555 1_555
H5_8 C5_8 1_555 1_555
C6_8 C5_8 1_555 1_555
H6_8 C6_8 1_555 1_555
C7_8 C4_8 1_555 1_555
C8_6 C7_8 1_555 1_555
C9_6 C8_6 1_555 1_555
H7_6 C9_6 1_555 1_555
C10_6 C9_6 1_555 1_555
C11_6 C8_6 1_555 1_555
H9_6 C11_6 1_555 1_555
C12_6 C11_6 1_555 1_555
H10_6 C12_6 1_555 1_555
C13_6 C10_6 1_555 1_555
P2_8 O4_8 1_555 1_555
C6_8 C7_8 1_555 1_555
C12_6 C13_6 1_555 1_555
O14_4 C14_8 1_555 1_555
O10_8 C14_8 1_555 1_555
C9_7 C8_7 1_555 1_555
H7_7 C9_7 1_555 1_555
C10_7 C9_7 1_555 1_555
C11_7 C8_7 1_555 1_555
H9_7 C11_7 1_555 1_555
C12_7 C11_7 1_555 1_555
H10_7 C12_7 1_555 1_555
C13_7 C10_7 1_555 1_555
C12_7 C13_7 1_555 1_555
C9_8 C8_8 1_555 1_555
H7_8 C9_8 1_555 1_555
C10_8 C9_8 1_555 1_555
C11_8 C8_8 1_555 1_555
H9_8 C11_8 1_555 1_555
C12_8 C11_8 1_555 1_555
H10_8 C12_8 1_555 1_555
C13_8 C10_8 1_555 1_555
C12_8 C13_8 1_555 1_555

#END
