
###############################################################################
#
# This file contains modified crystal structure data generated from the
# MOF subset of the Cambridge Structural Database (CSD) v543 
# hosted by the Cambridge Crystallographic Data Centre (CCDC).
#
# This work is licensed under the Creative Commons
# Attribution-NonCommercial-ShareAlike 4.0 International License.
# To view a copy of this license, visit
# http://creativecommons.org/licenses/by-nc-sa/4.0/
# or send a letter to
# Creative Commons, PO Box 1866, Mountain View, CA 94042, USA.
#
# CIF created using the CSD Python API on 29 September 2022
# The structure has been converted into the P1 space group
# The structure has a 3D framework
# The original CSD entry CETTUT is in the monoclinic crystal system
# The framework has been calculated to contain at least 10.0% void space
# The void calculation uses a probe of radius 1.32A, grid spacing 0.4
#
###############################################################################

data_CETTUT
_chemical_formula_moiety         '(C448 H320 N32 O62 Zn16)n'
_symmetry_cell_setting           triclinic
_symmetry_space_group_name_H-M   'P 1'
_symmetry_Int_Tables_number      1
_space_group_name_Hall           'P 1'
loop_
_symmetry_equiv_pos_site_id
_symmetry_equiv_pos_as_xyz
1 x,y,z
_cell_length_a                   27.5072(12)
_cell_length_b                   29.3890(14)
_cell_length_c                   14.9485(7)
_cell_angle_alpha                90
_cell_angle_beta                 109.537(2)
_cell_angle_gamma                90
_cell_volume                     11388.7
loop_
_atom_site_label
_atom_site_type_symbol
_atom_site_fract_x
_atom_site_fract_y
_atom_site_fract_z
N2 N 0.31727(7) 0.05927(6) 0.61949(15)
C17 C 0.32726(9) 0.01506(8) 0.6118(2)
C18 C 0.26929(9) 0.07021(9) 0.6135(2)
H11 H 0.3611 0.0066 0.6150
C22 C 0.23097(9) 0.03843(9) 0.6023(2)
H12 H 0.2611 0.1014 0.6172
H16 H 0.1974 0.0479 0.5988
Zn5 Zn 0.37649(2) 0.11015(2) 0.63940(2)
C11 C 0.00808(8) 0.69083(8) 0.63009(17)
H7 H 0.0413 0.6835 0.6278
C14 C 0.02495(9) 0.77387(9) 0.6173(2)
C15 C 0.07527(9) 0.77102(9) 0.6340(2)
H9 H 0.0090 0.8027 0.5993
C16 C 0.10936(9) 0.80867(9) 0.6281(2)
H10 H 0.0908 0.7420 0.6513
C19 C 0.16197(10) 0.80145(9) 0.6551(2)
C20 C 0.09052(10) 0.85219(10) 0.5950(3)
C21 C 0.29081(9) 0.98115(8) 0.5995(2)
C23 C 0.19534(10) 0.83562(9) 0.6494(2)
H13 H 0.1755 0.7723 0.6781
C24 C 0.12364(11) 0.88644(10) 0.5922(3)
H14 H 0.0545 0.8579 0.5744
C25 C 0.24135(9) 0.99230(8) 0.59617(19)
H15 H 0.2997 0.9503 0.5933
C26 C 0.17706(10) 0.87887(10) 0.6182(2)
H17 H 0.2312 0.8295 0.6671
H18 H 0.1103 0.9160 0.5723
C27 C 0.20242(9) 0.95771(9) 0.5921(2)
C28 C 0.21308(10) 0.91438(9) 0.6139(2)
H19 H 0.1673 0.9669 0.5726
H20 H 0.2481 0.9055 0.6283
O11 O 0.08762(6) 0.40424(5) 0.53093(12)
C61 C 0.06994(7) 0.43404(7) 0.46947(17)
O12 O 0.07867(6) 0.43646(5) 0.39213(13)
C62 C 0.03357(7) 0.46850(7) 0.48525(17)
C63 C 0.00561(8) 0.49628(7) 0.41132(17)
C64 C 0.02816(8) 0.47174(7) 0.57439(17)
H43 H 0.0095 0.4935 0.3508
H44 H 0.0473 0.4523 0.6247
Zn3 Zn 0.12351(2) 0.38985(2) 0.36060(2)
N5 N 0.07208(6) 0.33536(6) 0.35978(14)
C65 C 0.02419(8) 0.34297(8) 0.36109(17)
C66 C 0.08736(8) 0.29194(8) 0.36449(18)
H45 H 0.0121 0.3735 0.3556
C68 C 0.05730(8) 0.25628(8) 0.37301(19)
H46 H 0.1207 0.2856 0.3618
C69 C 0.00779(8) 0.26413(8) 0.37543(18)
H48 H 0.0702 0.2261 0.3773
Zn4 Zn 0.13783(2) 0.37314(2) 0.64488(2)
N7 N 0.18873(7) 0.43053(7) 0.65574(14)
C85 C 0.17263(9) 0.47314(8) 0.66085(19)
C86 C 0.23549(9) 0.42586(9) 0.6480(2)
C87 C 0.20077(9) 0.51131(9) 0.6575(2)
H61 H 0.1397 0.4772 0.6672
C88 C 0.26640(10) 0.46200(10) 0.6448(2)
H62 H 0.2480 0.3960 0.6447
H63 H 0.1870 0.5407 0.6604
C89 C 0.24963(10) 0.50683(9) 0.64985(19)
H64 H 0.2993 0.4567 0.6391
C90 C 0.28353(11) 0.54454(10) 0.6458(2)
H65 H 0.3142 0.5365 0.6337
C91 C 0.27662(11) 0.58820(10) 0.6568(2)
C92 C 0.31253(11) 0.62490(10) 0.6516(2)
H66 H 0.2462 0.5969 0.6691
C93 C 0.30213(11) 0.66999(12) 0.6640(3)
C94 C 0.35808(16) 0.61585(12) 0.6363(4)
C95 C 0.33543(11) 0.70451(11) 0.6583(3)
H67 H 0.2715 0.6776 0.6767
C96 C 0.39087(15) 0.64959(12) 0.6305(3)
H68 H 0.3670 0.5851 0.6296
C97 C 0.38056(10) 0.69512(11) 0.6413(2)
H69 H 0.3269 0.7352 0.6663
H70 H 0.4217 0.6417 0.6188
C98 C 0.41608(10) 0.73142(10) 0.6356(2)
C99 C 0.46155(11) 0.72521(10) 0.6249(2)
H71 H 0.4056 0.7619 0.6400
C100 C 0.49937(9) 0.75999(9) 0.62278(19)
H72 H 0.4707 0.6946 0.6178
C101 C 0.54818(10) 0.74692(9) 0.6256(2)
C102 C 0.48986(9) 0.80633(9) 0.6195(2)
C103 C 0.58485(10) 0.77876(8) 0.6272(2)
H73 H 0.5564 0.7155 0.6265
H74 H 0.4569 0.8174 0.6167
C104 C 0.52872(9) 0.83619(8) 0.6203(2)
N8 N 0.57631(7) 0.82348(6) 0.62623(15)
H75 H 0.6179 0.7685 0.6291
H76 H 0.5211 0.8678 0.6164
C109 C 0.15690(9) 0.34118(9) 0.0637(2)
C110 C 0.09884(9) 0.40446(9) 0.02803(19)
O15 O 0.09842(9) 0.40017(8) 0.21517(15)
C111 C 0.12690(9) 0.37201(9) 0.09161(18)
H79 H 0.1756 0.3185 0.1068
H80 H 0.0779 0.4255 0.0469
C112 C 0.12692(11) 0.37233(11) 0.1930(2)
O16 O 0.15528(8) 0.34553(10) 0.24962(16)
O17 O 0.18123(6) 0.32678(5) 0.60645(12)
O18 O 0.18009(5) 0.35709(5) 0.46872(12)
N10 N 0.18273(7) 0.44073(6) 0.38051(15)
Zn12 Zn 0.63783(2) 0.87314(2) 0.64488(2)
N12 N 0.07631(7) 0.32348(6) 0.62623(15)
O20 O 0.16696(6) 0.35269(7) 0.79132(13)
O22 O 0.10784(7) 0.40599(6) 0.75277(12)
C105 C 0.13587(9) 0.37887(9) 0.81116(18)
C106 C 0.13257(9) 0.37618(8) 0.90973(17)
C107 C 0.15990(9) 0.34317(9) 0.97237(19)
C108 C 0.10122(9) 0.40625(8) 0.93675(18)
H77 H 0.1806 0.3220 0.9534
H78 H 0.0813 0.4281 0.8928
O5 O 0.83304(6) 0.64731(7) 0.20868(13)
O6 O 0.89216(7) 0.59401(6) 0.24723(12)
C49 C 0.86413(9) 0.62113(9) 0.18884(18)
C50 C 0.86743(9) 0.62382(8) 0.09027(17)
C51 C 0.84010(9) 0.65683(9) 0.02763(19)
C52 C 0.89878(9) 0.59375(8) 0.06325(18)
H37 H 0.8194 0.6780 0.0466
H38 H 0.9187 0.5719 0.1072
Zn8 Zn 0.86217(2) 0.62686(2) 0.35512(2)
O1 O 0.81877(6) 0.67322(5) 0.39355(12)
O2 O 0.91238(6) 0.59576(5) 0.46907(12)
C1 C 0.80855(7) 0.67317(7) 0.46960(17)
C2 C 0.93006(7) 0.56596(7) 0.53053(17)
O3 O 0.81991(5) 0.64291(5) 0.53128(12)
C3 C 0.77828(7) 0.71343(7) 0.48507(16)
O4 O 0.92133(6) 0.56354(5) 0.60787(13)
C4 C 0.96643(7) 0.53150(7) 0.51475(17)
Zn1 Zn 0.87649(2) 0.61015(2) 0.63940(2)
C5 C 0.75822(8) 0.74497(8) 0.41405(17)
C6 C 0.77035(8) 0.71811(7) 0.57225(17)
C7 C 0.99439(8) 0.50372(7) 0.58868(17)
C8 C 0.97184(8) 0.52826(7) 0.42561(17)
N1 N 0.92792(6) 0.66464(6) 0.64022(14)
H1 H 0.7639 0.7415 0.3551
H2 H 0.7842 0.6965 0.6214
H3 H 0.9905 0.5065 0.6492
H4 H 0.9527 0.5477 0.3753
C9 C 0.97581(8) 0.65703(8) 0.63891(17)
C10 C 0.91264(8) 0.70806(8) 0.63551(18)
H5 H 0.9879 0.6265 0.6444
C12 C 0.94270(8) 0.74372(8) 0.62699(19)
H6 H 0.8793 0.7144 0.6382
C13 C 0.99221(8) 0.73587(8) 0.62457(18)
H8 H 0.9298 0.7739 0.6227
N3 N 0.81127(7) 0.56947(7) 0.34426(14)
C29 C 0.82737(9) 0.52686(8) 0.33915(19)
C30 C 0.76451(9) 0.57414(9) 0.3520(2)
C31 C 0.79923(9) 0.48869(9) 0.3425(2)
H21 H 0.8603 0.5228 0.3328
C32 C 0.73360(10) 0.53800(10) 0.3552(2)
H22 H 0.7520 0.6040 0.3553
H23 H 0.8130 0.4593 0.3396
C33 C 0.75037(10) 0.49317(9) 0.35015(19)
H24 H 0.7007 0.5433 0.3609
C34 C 0.71647(11) 0.45546(10) 0.3542(2)
H25 H 0.6858 0.4635 0.3663
C35 C 0.72338(11) 0.41180(10) 0.3432(2)
C36 C 0.68747(11) 0.37510(10) 0.3484(2)
H26 H 0.7538 0.4031 0.3309
C37 C 0.69787(11) 0.33001(12) 0.3360(3)
C38 C 0.64192(16) 0.38415(12) 0.3637(4)
C39 C 0.66457(11) 0.29549(11) 0.3417(3)
H27 H 0.7285 0.3224 0.3233
C40 C 0.60913(15) 0.35041(12) 0.3695(3)
H28 H 0.6330 0.4149 0.3704
C41 C 0.61944(10) 0.30488(11) 0.3587(2)
H29 H 0.6731 0.2648 0.3337
H30 H 0.5783 0.3583 0.3812
C42 C 0.58392(10) 0.26858(10) 0.3644(2)
C43 C 0.53845(11) 0.27479(10) 0.3751(2)
H31 H 0.5944 0.2381 0.3600
C44 C 0.50063(9) 0.24001(9) 0.37722(19)
H32 H 0.5293 0.3054 0.3822
C45 C 0.45182(10) 0.25308(9) 0.3744(2)
C46 C 0.51014(9) 0.19367(9) 0.3805(2)
C47 C 0.41515(10) 0.22124(8) 0.3728(2)
H33 H 0.4436 0.2845 0.3735
H34 H 0.5431 0.1826 0.3833
C48 C 0.47128(9) 0.16381(8) 0.3797(2)
N4 N 0.42369(7) 0.17652(6) 0.37377(15)
H35 H 0.3821 0.2315 0.3709
H36 H 0.4789 0.1322 0.3836
C53 C 0.84310(9) 0.65882(9) 0.9363(2)
C54 C 0.90116(9) 0.59554(9) 0.97197(19)
O7 O 0.90158(9) 0.59983(8) 0.78483(15)
C55 C 0.87310(9) 0.62799(9) 0.90839(18)
H39 H 0.8244 0.6815 0.8932
H40 H 0.9221 0.5745 0.9531
C56 C 0.87308(11) 0.62767(11) 0.8070(2)
O8 O 0.84472(8) 0.65447(10) 0.75038(16)
O9 O 0.68123(6) 0.82678(5) 0.60645(12)
C57 C 0.69145(7) 0.82683(7) 0.53040(17)
O10 O 0.68009(5) 0.85709(5) 0.46872(12)
C58 C 0.72172(7) 0.78657(7) 0.51493(16)
C59 C 0.74178(8) 0.75503(8) 0.58595(17)
C60 C 0.72965(8) 0.78189(7) 0.42775(17)
H41 H 0.7361 0.7585 0.6449
H42 H 0.7158 0.8035 0.3786
C67 C 0.99192(8) 0.30917(8) 0.36991(17)
H47 H 0.9587 0.3165 0.3722
C70 C 0.97505(9) 0.22613(9) 0.3827(2)
C71 C 0.92473(9) 0.22898(9) 0.3660(2)
H49 H 0.9910 0.1973 0.4007
C72 C 0.89064(9) 0.19133(9) 0.3719(2)
H50 H 0.9092 0.2580 0.3487
C75 C 0.83803(10) 0.19855(9) 0.3449(2)
C76 C 0.90948(10) 0.14781(10) 0.4050(3)
C77 C 0.70919(9) 0.01885(8) 0.4005(2)
C79 C 0.80466(10) 0.16438(9) 0.3506(2)
H53 H 0.8245 0.2277 0.3219
C80 C 0.87636(11) 0.11356(10) 0.4078(3)
H54 H 0.9455 0.1421 0.4256
C81 C 0.75865(9) 0.00770(8) 0.40383(19)
H55 H 0.7003 0.0497 0.4067
C82 C 0.82294(10) 0.12113(10) 0.3818(2)
H57 H 0.7688 0.1705 0.3329
H58 H 0.8897 0.0840 0.4277
C83 C 0.79758(9) 0.04229(9) 0.4079(2)
C84 C 0.78692(10) 0.08562(9) 0.3861(2)
H59 H 0.8327 0.0331 0.4274
H60 H 0.7519 0.0945 0.3717
Zn7 Zn 0.62351(2) 0.88985(2) 0.36060(2)
N9 N 0.81727(7) 0.55927(6) 0.61949(15)
Zn9 Zn 0.36217(2) 0.12686(2) 0.35512(2)
N11 N 0.92369(7) 0.67652(6) 0.37377(15)
N6 N 0.68273(7) 0.94073(6) 0.38051(15)
C73 C 0.67274(9) 0.98494(8) 0.3882(2)
C74 C 0.73071(9) 0.92979(9) 0.3865(2)
H51 H 0.6389 0.9934 0.3850
C78 C 0.76903(9) 0.96157(9) 0.3977(2)
H52 H 0.7389 0.8986 0.3828
H56 H 0.8026 0.9521 0.4012
C101_2 C 0.04818(10) 0.24692(9) 0.6256(2)
C103_2 C 0.08485(10) 0.27876(8) 0.6272(2)
H73_2 H 0.0564 0.2155 0.6265
C104_2 C 0.02872(9) 0.33619(8) 0.6203(2)
H75_2 H 0.1179 0.2685 0.6291
H76_2 H 0.0211 0.3678 0.6164
O5_2 O 0.33304(6) 0.14731(7) 0.20868(13)
O6_2 O 0.39216(7) 0.09401(6) 0.24723(12)
C49_2 C 0.36413(9) 0.12113(9) 0.18884(18)
C50_2 C 0.36743(9) 0.12382(8) 0.09027(17)
C51_2 C 0.34010(9) 0.15683(9) 0.02763(19)
C52_2 C 0.39878(9) 0.09375(8) 0.06325(18)
H37_2 H 0.3194 0.1780 0.0466
H38_2 H 0.4187 0.0719 0.1072
O1_2 O 0.31877(6) 0.17322(5) 0.39355(12)
O2_2 O 0.41238(6) 0.09576(5) 0.46907(12)
C1_2 C 0.30855(7) 0.17317(7) 0.46960(17)
C2_2 C 0.43006(7) 0.06596(7) 0.53053(17)
O3_2 O 0.31991(5) 0.14291(5) 0.53128(12)
C3_2 C 0.27828(7) 0.21343(7) 0.48507(16)
O4_2 O 0.42133(6) 0.06354(5) 0.60787(13)
C4_2 C 0.46643(7) 0.03150(7) 0.51475(17)
C5_2 C 0.25822(8) 0.24497(8) 0.41405(17)
C6_2 C 0.27035(8) 0.21811(7) 0.57225(17)
C7_2 C 0.49439(8) 0.00372(7) 0.58868(17)
C8_2 C 0.47184(8) 0.02826(7) 0.42561(17)
N1_2 N 0.42792(6) 0.16464(6) 0.64022(14)
H1_2 H 0.2639 0.2415 0.3551
H2_2 H 0.2842 0.1965 0.6214
H3_2 H 0.4905 0.0065 0.6492
H4_2 H 0.4527 0.0477 0.3753
C9_2 C 0.47581(8) 0.15703(8) 0.63891(17)
C10_2 C 0.41264(8) 0.20806(8) 0.63551(18)
C11_2 C 0.50808(8) 0.19083(8) 0.63009(17)
H5_2 H 0.4879 0.1265 0.6444
C12_2 C 0.44270(8) 0.24372(8) 0.62699(19)
H6_2 H 0.3793 0.2144 0.6382
C13_2 C 0.49221(8) 0.23587(8) 0.62457(18)
H7_2 H 0.5413 0.1835 0.6278
H8_2 H 0.4298 0.2739 0.6227
C14_2 C 0.52495(9) 0.27387(9) 0.6173(2)
C15_2 C 0.57527(9) 0.27102(9) 0.6340(2)
H9_2 H 0.5090 0.3027 0.5993
C16_2 C 0.60936(9) 0.30867(9) 0.6281(2)
H10_2 H 0.5908 0.2420 0.6513
C17_2 C 0.82726(9) 0.51506(8) 0.6118(2)
C18_2 C 0.76929(9) 0.57021(9) 0.6135(2)
C19_2 C 0.66197(10) 0.30145(9) 0.6551(2)
C20_2 C 0.59052(10) 0.35219(10) 0.5950(3)
C21_2 C 0.79081(9) 0.48115(8) 0.5995(2)
H11_2 H 0.8611 0.5066 0.6150
C22_2 C 0.73097(9) 0.53843(9) 0.6023(2)
H12_2 H 0.7611 0.6014 0.6172
C23_2 C 0.69534(10) 0.33562(9) 0.6494(2)
H13_2 H 0.6755 0.2723 0.6781
C24_2 C 0.62364(11) 0.38644(10) 0.5922(3)
H14_2 H 0.5545 0.3579 0.5744
C25_2 C 0.74135(9) 0.49230(8) 0.59617(19)
H15_2 H 0.7997 0.4503 0.5933
H16_2 H 0.6974 0.5479 0.5988
C26_2 C 0.67706(10) 0.37887(10) 0.6182(2)
H17_2 H 0.7312 0.3295 0.6671
H18_2 H 0.6103 0.4160 0.5723
C27_2 C 0.70242(9) 0.45771(9) 0.5921(2)
C28_2 C 0.71308(10) 0.41438(9) 0.6139(2)
H19_2 H 0.6673 0.4669 0.5726
H20_2 H 0.7481 0.4055 0.6283
N3_2 N 0.31127(7) 0.06947(7) 0.34426(14)
C29_2 C 0.32737(9) 0.02686(8) 0.33915(19)
C30_2 C 0.26451(9) 0.07414(9) 0.3520(2)
H21_2 H 0.3603 0.0228 0.3328
C32_2 C 0.23360(10) 0.03800(10) 0.3552(2)
H22_2 H 0.2520 0.1040 0.3553
H24_2 H 0.2007 0.0433 0.3609
C53_2 C 0.34310(9) 0.15882(9) 0.9363(2)
C54_2 C 0.40116(9) 0.09554(9) 0.97197(19)
O7_2 O 0.40158(9) 0.09983(8) 0.78483(15)
C55_2 C 0.37310(9) 0.12799(9) 0.90839(18)
H39_2 H 0.3244 0.1815 0.8932
H40_2 H 0.4221 0.0745 0.9531
C56_2 C 0.37308(11) 0.12767(11) 0.8070(2)
O8_2 O 0.34472(8) 0.15447(10) 0.75038(16)
C57_2 C 0.19145(7) 0.32683(7) 0.53040(17)
C58_2 C 0.22172(7) 0.28657(7) 0.51493(16)
C59_2 C 0.24178(8) 0.25503(8) 0.58595(17)
C60_2 C 0.22965(8) 0.28189(7) 0.42775(17)
H41_2 H 0.2361 0.2585 0.6449
H42_2 H 0.2158 0.3035 0.3786
C87_2 C 0.70077(9) 0.01131(9) 0.6575(2)
H63_2 H 0.6870 0.0407 0.6604
C89_2 C 0.74963(10) 0.00683(9) 0.64985(19)
C90_2 C 0.78353(11) 0.04454(10) 0.6458(2)
H65_2 H 0.8142 0.0365 0.6337
C91_2 C 0.77662(11) 0.08820(10) 0.6568(2)
C92_2 C 0.81253(11) 0.12490(10) 0.6516(2)
H66_2 H 0.7462 0.0969 0.6691
C93_2 C 0.80213(11) 0.16999(12) 0.6640(3)
C94_2 C 0.85808(16) 0.11585(12) 0.6363(4)
C95_2 C 0.83543(11) 0.20451(11) 0.6583(3)
H67_2 H 0.7715 0.1776 0.6767
C96_2 C 0.89087(15) 0.14959(12) 0.6305(3)
H68_2 H 0.8670 0.0851 0.6296
C97_2 C 0.88056(10) 0.19512(11) 0.6413(2)
H69_2 H 0.8269 0.2352 0.6663
H70_2 H 0.9217 0.1417 0.6188
C98_2 C 0.91608(10) 0.23142(10) 0.6356(2)
C99_2 C 0.96155(11) 0.22521(10) 0.6249(2)
H71_2 H 0.9056 0.2619 0.6400
C100_2 C 0.99937(9) 0.25999(9) 0.62278(19)
H72_2 H 0.9707 0.1946 0.6178
C102_2 C 0.98986(9) 0.30633(9) 0.6195(2)
H74_2 H 0.9569 0.3174 0.6167
C31_2 C 0.29923(9) 0.98869(9) 0.3425(2)
H23_2 H 0.3130 0.9593 0.3396
C33_2 C 0.25037(10) 0.99317(9) 0.35015(19)
C34_2 C 0.21647(11) 0.95546(10) 0.3542(2)
H25_2 H 0.1858 0.9635 0.3663
C35_2 C 0.22338(11) 0.91180(10) 0.3432(2)
C36_2 C 0.18747(11) 0.87510(10) 0.3484(2)
H26_2 H 0.2538 0.9031 0.3309
C37_2 C 0.19787(11) 0.83001(12) 0.3360(3)
C38_2 C 0.14192(16) 0.88415(12) 0.3637(4)
C39_2 C 0.16457(11) 0.79549(11) 0.3417(3)
H27_2 H 0.2285 0.8224 0.3233
C40_2 C 0.10913(15) 0.85041(12) 0.3695(3)
H28_2 H 0.1330 0.9149 0.3704
C41_2 C 0.11944(10) 0.80488(11) 0.3587(2)
H29_2 H 0.1731 0.7648 0.3337
H30_2 H 0.0783 0.8583 0.3812
C42_2 C 0.08392(10) 0.76858(10) 0.3644(2)
C43_2 C 0.03845(11) 0.77479(10) 0.3751(2)
H31_2 H 0.0944 0.7381 0.3600
C44_2 C 0.00063(9) 0.74001(9) 0.37722(19)
H32_2 H 0.0293 0.8054 0.3822
C46_2 C 0.01014(9) 0.69367(9) 0.3805(2)
H34_2 H 0.0431 0.6826 0.3833
O11_2 O 0.58762(6) 0.90424(5) 0.53093(12)
C61_2 C 0.56994(7) 0.93404(7) 0.46947(17)
O12_2 O 0.57867(6) 0.93646(5) 0.39213(13)
C62_2 C 0.53357(7) 0.96850(7) 0.48525(17)
C63_2 C 0.50561(8) 0.99628(7) 0.41132(17)
C64_2 C 0.52816(8) 0.97174(7) 0.57439(17)
H43_2 H 0.5095 0.9935 0.3508
H44_2 H 0.5473 0.9523 0.6247
N5_2 N 0.57208(6) 0.83536(6) 0.35978(14)
C65_2 C 0.52419(8) 0.84297(8) 0.36109(17)
C66_2 C 0.58736(8) 0.79194(8) 0.36449(18)
C67_2 C 0.49192(8) 0.80917(8) 0.36991(17)
H45_2 H 0.5121 0.8735 0.3556
C68_2 C 0.55730(8) 0.75628(8) 0.37301(19)
H46_2 H 0.6207 0.7856 0.3618
C69_2 C 0.50779(8) 0.76413(8) 0.37543(18)
H47_2 H 0.4587 0.8165 0.3722
H48_2 H 0.5702 0.7261 0.3773
C70_2 C 0.47505(9) 0.72613(9) 0.3827(2)
C71_2 C 0.42473(9) 0.72898(9) 0.3660(2)
H49_2 H 0.4910 0.6973 0.4007
C72_2 C 0.39064(9) 0.69133(9) 0.3719(2)
H50_2 H 0.4092 0.7580 0.3487
C73_2 C 0.17274(9) 0.48494(8) 0.3882(2)
C74_2 C 0.23071(9) 0.42979(9) 0.3865(2)
C75_2 C 0.33803(10) 0.69855(9) 0.3449(2)
C76_2 C 0.40948(10) 0.64781(10) 0.4050(3)
C77_2 C 0.20919(9) 0.51885(8) 0.4005(2)
H51_2 H 0.1389 0.4934 0.3850
C78_2 C 0.26903(9) 0.46157(9) 0.3977(2)
H52_2 H 0.2389 0.3986 0.3828
C79_2 C 0.30466(10) 0.66438(9) 0.3506(2)
H53_2 H 0.3245 0.7277 0.3219
C80_2 C 0.37636(11) 0.61356(10) 0.4078(3)
H54_2 H 0.4455 0.6421 0.4256
C81_2 C 0.25865(9) 0.50770(8) 0.40383(19)
H55_2 H 0.2003 0.5497 0.4067
H56_2 H 0.3026 0.4521 0.4012
C82_2 C 0.32294(10) 0.62113(10) 0.3818(2)
H57_2 H 0.2688 0.6705 0.3329
H58_2 H 0.3897 0.5840 0.4277
C83_2 C 0.29758(9) 0.54229(9) 0.4079(2)
C84_2 C 0.28692(10) 0.58562(9) 0.3861(2)
H59_2 H 0.3327 0.5331 0.4274
H60_2 H 0.2519 0.5945 0.3717
N7_2 N 0.68873(7) 0.93053(7) 0.65574(14)
C85_2 C 0.67263(9) 0.97314(8) 0.66085(19)
C86_2 C 0.73549(9) 0.92586(9) 0.6480(2)
H61_2 H 0.6397 0.9772 0.6672
C88_2 C 0.76640(10) 0.96200(10) 0.6448(2)
H62_2 H 0.7480 0.8960 0.6447
H64_2 H 0.7993 0.9567 0.6391
C109_2 C 0.65690(9) 0.84118(9) 0.0637(2)
C110_2 C 0.59884(9) 0.90446(9) 0.02803(19)
O15_2 O 0.59842(9) 0.90017(8) 0.21517(15)
C111_2 C 0.62690(9) 0.87201(9) 0.09161(18)
H79_2 H 0.6756 0.8185 0.1068
H80_2 H 0.5779 0.9255 0.0469
C112_2 C 0.62692(11) 0.87233(11) 0.1930(2)
O16_2 O 0.65528(8) 0.84553(10) 0.24962(16)
O20_2 O 0.66696(6) 0.85269(7) 0.79132(13)
O22_2 O 0.60784(7) 0.90599(6) 0.75277(12)
C105_2 C 0.63587(9) 0.87887(9) 0.81116(18)
C106_2 C 0.63257(9) 0.87618(8) 0.90973(17)
C107_2 C 0.65990(9) 0.84317(9) 0.97237(19)
C108_2 C 0.60122(9) 0.90625(8) 0.93675(18)
H77_2 H 0.6806 0.8220 0.9534
H78_2 H 0.5813 0.9281 0.8928
C45_2 C 0.95182(10) 0.75308(9) 0.3744(2)
C47_2 C 0.91515(10) 0.72124(8) 0.3728(2)
H33_2 H 0.9436 0.7845 0.3735
C48_2 C 0.97128(9) 0.66381(8) 0.3797(2)
H35_2 H 0.8821 0.7315 0.3709
H36_2 H 0.9789 0.6322 0.3836
O1_3 O 0.18123(6) 0.67322(5) 0.10645(12)
O2_3 O 0.08762(6) 0.59576(5) 0.03093(12)
C1_3 C 0.19145(7) 0.67317(7) 0.03040(17)
C3_3 C 0.22172(7) 0.71343(7) 0.01493(16)
C5_3 C 0.24178(8) 0.74497(8) 0.08595(17)
C8_3 C 0.02816(8) 0.52826(7) 0.07439(17)
H1_3 H 0.2361 0.7415 0.1449
H4_3 H 0.0473 0.5477 0.1247
Zn2 Zn 0.13783(2) 0.62686(2) 0.14488(2)
N3_3 N 0.18873(7) 0.56947(7) 0.15574(14)
C29_3 C 0.17263(9) 0.52686(8) 0.16085(19)
C30_3 C 0.23549(9) 0.57414(9) 0.1480(2)
C31_3 C 0.20077(9) 0.48869(9) 0.1575(2)
H21_3 H 0.1397 0.5228 0.1672
C32_3 C 0.26640(10) 0.53800(10) 0.1448(2)
H22_3 H 0.2480 0.6040 0.1447
H23_3 H 0.1870 0.4593 0.1604
C33_3 C 0.24963(10) 0.49317(9) 0.14985(19)
H24_3 H 0.2993 0.5433 0.1391
C34_3 C 0.28353(11) 0.45546(10) 0.1458(2)
H25_3 H 0.3142 0.4635 0.1337
C35_3 C 0.27662(11) 0.41180(10) 0.1568(2)
C36_3 C 0.31253(11) 0.37510(10) 0.1516(2)
H26_3 H 0.2462 0.4031 0.1691
C37_3 C 0.30213(11) 0.33001(12) 0.1640(3)
C38_3 C 0.35808(16) 0.38415(12) 0.1363(4)
C39_3 C 0.33543(11) 0.29549(11) 0.1583(3)
H27_3 H 0.2715 0.3224 0.1767
C40_3 C 0.39087(15) 0.35041(12) 0.1305(3)
H28_3 H 0.3670 0.4149 0.1296
C41_3 C 0.38056(10) 0.30488(11) 0.1413(2)
H29_3 H 0.3269 0.2648 0.1663
H30_3 H 0.4217 0.3583 0.1188
C42_3 C 0.41608(10) 0.26858(10) 0.1356(2)
C43_3 C 0.46155(11) 0.27479(10) 0.1249(2)
H31_3 H 0.4056 0.2381 0.1400
C44_3 C 0.49937(9) 0.24001(9) 0.12278(19)
H32_3 H 0.4707 0.3054 0.1178
C45_3 C 0.54818(10) 0.25308(9) 0.1256(2)
C46_3 C 0.48986(9) 0.19367(9) 0.1195(2)
C47_3 C 0.58485(10) 0.22124(8) 0.1272(2)
H33_3 H 0.5564 0.2845 0.1265
H34_3 H 0.4569 0.1826 0.1167
C48_3 C 0.52872(9) 0.16381(8) 0.1203(2)
N4_2 N 0.57631(7) 0.17652(6) 0.12623(15)
H35_3 H 0.6179 0.2315 0.1291
H36_3 H 0.5211 0.1322 0.1164
O10_2 O 0.31991(5) 0.85709(5) 0.03128(12)
C60_3 C 0.27035(8) 0.78189(7) 0.07225(17)
H42_3 H 0.2842 0.8035 0.1214
C67_3 C 0.00808(8) 0.30917(8) 0.13009(17)
H47_3 H 0.0413 0.3165 0.1278
C70_3 C 0.02495(9) 0.22613(9) 0.1173(2)
C71_3 C 0.07527(9) 0.22898(9) 0.1340(2)
H49_3 H 0.0090 0.1973 0.0993
C72_3 C 0.10936(9) 0.19133(9) 0.1281(2)
H50_3 H 0.0908 0.2580 0.1513
C75_3 C 0.16197(10) 0.19855(9) 0.1551(2)
C76_3 C 0.09052(10) 0.14781(10) 0.0950(3)
C77_3 C 0.29081(9) 0.01885(8) 0.0995(2)
C79_3 C 0.19534(10) 0.16438(9) 0.1494(2)
H53_3 H 0.1755 0.2277 0.1781
C80_3 C 0.12364(11) 0.11356(10) 0.0922(3)
H54_3 H 0.0545 0.1421 0.0744
C81_3 C 0.24135(9) 0.00770(8) 0.09617(19)
H55_3 H 0.2997 0.0497 0.0933
C82_3 C 0.17706(10) 0.12113(10) 0.1182(2)
H57_3 H 0.2312 0.1705 0.1671
H58_3 H 0.1103 0.0840 0.0723
C83_3 C 0.20242(9) 0.04229(9) 0.0921(2)
C84_3 C 0.21308(10) 0.08562(9) 0.1139(2)
H59_3 H 0.1673 0.0331 0.0726
H60_3 H 0.2481 0.0945 0.1283
Zn7_2 Zn 0.37649(2) 0.88985(2) 0.13940(2)
Zn9_2 Zn 0.63783(2) 0.12686(2) 0.14488(2)
N11_2 N 0.07631(7) 0.67652(6) 0.12623(15)
O19 O 0.16696(6) 0.64731(7) 0.29132(13)
O21 O 0.10784(7) 0.59401(6) 0.25277(12)
C2_3 C 0.06994(7) 0.56596(7) 0.96947(17)
O3_3 O 0.18009(5) 0.64291(5) 0.96872(12)
O4_3 O 0.07867(6) 0.56354(5) 0.89213(13)
C4_3 C 0.03357(7) 0.53150(7) 0.98525(17)
Zn1_2 Zn 0.12351(2) 0.61015(2) 0.86060(2)
C6_3 C 0.22965(8) 0.71811(7) 0.92775(17)
C7_3 C 0.00561(8) 0.50372(7) 0.91132(17)
N1_3 N 0.07208(6) 0.66464(6) 0.85978(14)
H2_3 H 0.2158 0.6965 0.8786
H3_3 H 0.0095 0.5065 0.8508
C9_3 C 0.02419(8) 0.65703(8) 0.86109(17)
C10_3 C 0.08736(8) 0.70806(8) 0.86449(18)
H5_3 H 0.0121 0.6265 0.8556
C12_3 C 0.05730(8) 0.74372(8) 0.87301(19)
H6_3 H 0.1207 0.7144 0.8618
C13_3 C 0.00779(8) 0.73587(8) 0.87543(18)
H8_3 H 0.0702 0.7739 0.8773
C49_3 C 0.13587(9) 0.62113(9) 0.31116(18)
C50_3 C 0.13257(9) 0.62382(8) 0.40973(17)
C51_3 C 0.15990(9) 0.65683(9) 0.47237(19)
C52_3 C 0.10122(9) 0.59375(8) 0.43675(18)
H37_3 H 0.1806 0.6780 0.4534
C53_3 C 0.15690(9) 0.65882(9) 0.5637(2)
H38_3 H 0.0813 0.5719 0.3928
C54_3 C 0.09884(9) 0.59554(9) 0.52803(19)
O7_3 O 0.09842(9) 0.59983(8) 0.71517(15)
C55_3 C 0.12690(9) 0.62799(9) 0.59161(18)
H39_3 H 0.1756 0.6815 0.6068
H40_3 H 0.0779 0.5745 0.5469
C56_3 C 0.12692(11) 0.62767(11) 0.6930(2)
O8_3 O 0.15528(8) 0.65447(10) 0.74962(16)
O9_2 O 0.31877(6) 0.82678(5) 0.89355(12)
C57_3 C 0.30855(7) 0.82683(7) 0.96960(17)
C58_3 C 0.27828(7) 0.78657(7) 0.98507(16)
C59_3 C 0.25822(8) 0.75503(8) 0.91405(17)
H41_3 H 0.2639 0.7585 0.8551
N9_2 N 0.18273(7) 0.55927(6) 0.88051(15)
Zn11 Zn 0.36217(2) 0.87314(2) 0.85512(2)
N6_2 N 0.31727(7) 0.94073(6) 0.11949(15)
C73_3 C 0.32726(9) 0.98494(8) 0.1118(2)
C74_3 C 0.26929(9) 0.92979(9) 0.1135(2)
H51_3 H 0.3611 0.9934 0.1150
C78_3 C 0.23097(9) 0.96157(9) 0.1023(2)
H52_3 H 0.2611 0.8986 0.1172
H56_3 H 0.1974 0.9521 0.0988
N2_2 N 0.68273(7) 0.05927(6) 0.88051(15)
C17_3 C 0.67274(9) 0.01506(8) 0.8882(2)
C18_3 C 0.73071(9) 0.07021(9) 0.8865(2)
H11_3 H 0.6389 0.0066 0.8850
C22_3 C 0.76903(9) 0.03843(9) 0.8977(2)
H12_3 H 0.7389 0.1014 0.8828
H16_3 H 0.8026 0.0479 0.9012
Zn5_2 Zn 0.62351(2) 0.11015(2) 0.86060(2)
C61_3 C 0.93006(7) 0.43404(7) 0.03053(17)
O12_3 O 0.92133(6) 0.43646(5) 0.10787(13)
C62_3 C 0.96643(7) 0.46850(7) 0.01475(17)
C63_3 C 0.99439(8) 0.49628(7) 0.08868(17)
H43_3 H 0.9905 0.4935 0.1492
Zn3_2 Zn 0.87649(2) 0.38985(2) 0.13940(2)
N5_3 N 0.92792(6) 0.33536(6) 0.14022(14)
C65_3 C 0.97581(8) 0.34297(8) 0.13891(17)
C66_3 C 0.91264(8) 0.29194(8) 0.13551(18)
H45_3 H 0.9879 0.3735 0.1444
C68_3 C 0.94270(8) 0.25628(8) 0.12699(19)
H46_3 H 0.8793 0.2856 0.1382
C69_3 C 0.99221(8) 0.26413(8) 0.12457(18)
H48_3 H 0.9298 0.2261 0.1227
O13 O 0.83304(6) 0.35269(7) 0.70868(13)
O14 O 0.89216(7) 0.40599(6) 0.74723(12)
C105_3 C 0.86413(9) 0.37887(9) 0.68884(18)
C106_3 C 0.86743(9) 0.37618(8) 0.59027(17)
C107_3 C 0.84010(9) 0.34317(9) 0.52763(19)
C108_3 C 0.89878(9) 0.40625(8) 0.56325(18)
H77_3 H 0.8194 0.3220 0.5466
C109_3 C 0.84310(9) 0.34118(9) 0.4363(2)
H78_3 H 0.9187 0.4281 0.6072
C110_3 C 0.90116(9) 0.40446(9) 0.47197(19)
O15_3 O 0.90158(9) 0.40017(8) 0.28483(15)
C111_3 C 0.87310(9) 0.37201(9) 0.40839(18)
H79_3 H 0.8244 0.3185 0.3932
H80_3 H 0.9221 0.4255 0.4531
C112_3 C 0.87308(11) 0.37233(11) 0.3070(2)
O16_3 O 0.84472(8) 0.34553(10) 0.25038(16)
O18_2 O 0.81991(5) 0.35709(5) 0.03128(12)
N10_2 N 0.81727(7) 0.44073(6) 0.11949(15)
Zn10 Zn 0.86217(2) 0.37314(2) 0.85512(2)
C11_3 C 0.99192(8) 0.69083(8) 0.86991(17)
H7_3 H 0.9587 0.6835 0.8722
C14_3 C 0.97505(9) 0.77387(9) 0.8827(2)
C15_3 C 0.92473(9) 0.77102(9) 0.8660(2)
H9_3 H 0.9910 0.8027 0.9007
C16_3 C 0.89064(9) 0.80867(9) 0.8719(2)
H10_3 H 0.9092 0.7420 0.8487
C19_3 C 0.83803(10) 0.80145(9) 0.8449(2)
C20_3 C 0.90948(10) 0.85219(10) 0.9050(3)
C21_3 C 0.70919(9) 0.98115(8) 0.9005(2)
C23_3 C 0.80466(10) 0.83562(9) 0.8506(2)
H13_3 H 0.8245 0.7723 0.8219
C24_3 C 0.87636(11) 0.88644(10) 0.9078(3)
H14_3 H 0.9455 0.8579 0.9256
C25_3 C 0.75865(9) 0.99230(8) 0.90383(19)
H15_3 H 0.7003 0.9503 0.9067
C26_3 C 0.82294(10) 0.87887(10) 0.8818(2)
H17_3 H 0.7688 0.8295 0.8329
H18_3 H 0.8897 0.9160 0.9277
C27_3 C 0.79758(9) 0.95771(9) 0.9079(2)
C28_3 C 0.78692(10) 0.91438(9) 0.8861(2)
H19_3 H 0.8327 0.9669 0.9274
H20_3 H 0.7519 0.9055 0.8717
O11_3 O 0.91238(6) 0.40424(5) 0.96907(12)
C64_3 C 0.97184(8) 0.47174(7) 0.92561(17)
H44_3 H 0.9527 0.4523 0.8753
N7_3 N 0.81127(7) 0.43053(7) 0.84426(14)
C85_3 C 0.82737(9) 0.47314(8) 0.83915(19)
C86_3 C 0.76451(9) 0.42586(9) 0.8520(2)
C87_3 C 0.79923(9) 0.51131(9) 0.8425(2)
H61_3 H 0.8603 0.4772 0.8328
C88_3 C 0.73360(10) 0.46200(10) 0.8552(2)
H62_3 H 0.7520 0.3960 0.8553
H63_3 H 0.8130 0.5407 0.8396
C89_3 C 0.75037(10) 0.50683(9) 0.85015(19)
H64_3 H 0.7007 0.4567 0.8609
C90_3 C 0.71647(11) 0.54454(10) 0.8542(2)
H65_3 H 0.6858 0.5365 0.8663
C91_3 C 0.72338(11) 0.58820(10) 0.8432(2)
C92_3 C 0.68747(11) 0.62490(10) 0.8484(2)
H66_3 H 0.7538 0.5969 0.8309
C93_3 C 0.69787(11) 0.66999(12) 0.8360(3)
C94_3 C 0.64192(16) 0.61585(12) 0.8637(4)
C95_3 C 0.66457(11) 0.70451(11) 0.8417(3)
H67_3 H 0.7285 0.6776 0.8233
C96_3 C 0.60913(15) 0.64959(12) 0.8695(3)
H68_3 H 0.6330 0.5851 0.8704
C97_3 C 0.61944(10) 0.69512(11) 0.8587(2)
H69_3 H 0.6731 0.7352 0.8337
H70_3 H 0.5783 0.6417 0.8812
C98_3 C 0.58392(10) 0.73142(10) 0.8644(2)
C99_3 C 0.53845(11) 0.72521(10) 0.8751(2)
H71_3 H 0.5944 0.7619 0.8600
C100_3 C 0.50063(9) 0.75999(9) 0.87722(19)
H72_3 H 0.5293 0.6946 0.8822
C101_3 C 0.45182(10) 0.74692(9) 0.8744(2)
C102_3 C 0.51014(9) 0.80633(9) 0.8805(2)
C103_3 C 0.41515(10) 0.77876(8) 0.8728(2)
H73_3 H 0.4436 0.7155 0.8735
H74_3 H 0.5431 0.8174 0.8833
C104_3 C 0.47128(9) 0.83619(8) 0.8797(2)
N8_2 N 0.42369(7) 0.82348(6) 0.87377(15)
H75_3 H 0.3821 0.7685 0.8709
H76_3 H 0.4789 0.8678 0.8836
O17_2 O 0.81877(6) 0.32678(5) 0.89355(12)
N12_2 N 0.92369(7) 0.32348(6) 0.87377(15)
C45_4 C 0.04818(10) 0.75308(9) 0.1256(2)
C47_4 C 0.08485(10) 0.72124(8) 0.1272(2)
H33_4 H 0.0564 0.7845 0.1265
C48_4 C 0.02872(9) 0.66381(8) 0.1203(2)
H35_4 H 0.1179 0.7315 0.1291
H36_4 H 0.0211 0.6322 0.1164
O1_4 O 0.68123(6) 0.17322(5) 0.10645(12)
O2_4 O 0.58762(6) 0.09576(5) 0.03093(12)
C1_4 C 0.69145(7) 0.17317(7) 0.03040(17)
C3_4 C 0.72172(7) 0.21343(7) 0.01493(16)
C5_4 C 0.74178(8) 0.24497(8) 0.08595(17)
C8_4 C 0.52816(8) 0.02826(7) 0.07439(17)
H1_4 H 0.7361 0.2415 0.1449
H4_4 H 0.5473 0.0477 0.1247
N3_4 N 0.68873(7) 0.06947(7) 0.15574(14)
C29_4 C 0.67263(9) 0.02686(8) 0.16085(19)
C30_4 C 0.73549(9) 0.07414(9) 0.1480(2)
H21_4 H 0.6397 0.0228 0.1672
C32_4 C 0.76640(10) 0.03800(10) 0.1448(2)
H22_4 H 0.7480 0.1040 0.1447
H24_4 H 0.7993 0.0433 0.1391
C60_4 C 0.77035(8) 0.28189(7) 0.07225(17)
H42_4 H 0.7842 0.3035 0.1214
O19_2 O 0.66696(6) 0.14731(7) 0.29132(13)
O21_2 O 0.60784(7) 0.09401(6) 0.25277(12)
C2_4 C 0.56994(7) 0.06596(7) 0.96947(17)
O3_4 O 0.68009(5) 0.14291(5) 0.96872(12)
O4_4 O 0.57867(6) 0.06354(5) 0.89213(13)
C4_4 C 0.53357(7) 0.03150(7) 0.98525(17)
C6_4 C 0.72965(8) 0.21811(7) 0.92775(17)
C7_4 C 0.50561(8) 0.00372(7) 0.91132(17)
N1_4 N 0.57208(6) 0.16464(6) 0.85978(14)
H2_4 H 0.7158 0.1965 0.8786
H3_4 H 0.5095 0.0065 0.8508
C9_4 C 0.52419(8) 0.15703(8) 0.86109(17)
C10_4 C 0.58736(8) 0.20806(8) 0.86449(18)
C11_4 C 0.49192(8) 0.19083(8) 0.86991(17)
H5_4 H 0.5121 0.1265 0.8556
C12_4 C 0.55730(8) 0.24372(8) 0.87301(19)
H6_4 H 0.6207 0.2144 0.8618
C13_4 C 0.50779(8) 0.23587(8) 0.87543(18)
H7_4 H 0.4587 0.1835 0.8722
H8_4 H 0.5702 0.2739 0.8773
C14_4 C 0.47505(9) 0.27387(9) 0.8827(2)
C15_4 C 0.42473(9) 0.27102(9) 0.8660(2)
H9_4 H 0.4910 0.3027 0.9007
C16_4 C 0.39064(9) 0.30867(9) 0.8719(2)
H10_4 H 0.4092 0.2420 0.8487
C17_4 C 0.17274(9) 0.51506(8) 0.8882(2)
C18_4 C 0.23071(9) 0.57021(9) 0.8865(2)
C19_4 C 0.33803(10) 0.30145(9) 0.8449(2)
C20_4 C 0.40948(10) 0.35219(10) 0.9050(3)
C21_4 C 0.20919(9) 0.48115(8) 0.9005(2)
H11_4 H 0.1389 0.5066 0.8850
C22_4 C 0.26903(9) 0.53843(9) 0.8977(2)
H12_4 H 0.2389 0.6014 0.8828
C23_4 C 0.30466(10) 0.33562(9) 0.8506(2)
H13_4 H 0.3245 0.2723 0.8219
C24_4 C 0.37636(11) 0.38644(10) 0.9078(3)
H14_4 H 0.4455 0.3579 0.9256
C25_4 C 0.25865(9) 0.49230(8) 0.90383(19)
H15_4 H 0.2003 0.4503 0.9067
H16_4 H 0.3026 0.5479 0.9012
C26_4 C 0.32294(10) 0.37887(10) 0.8818(2)
H17_4 H 0.2688 0.3295 0.8329
H18_4 H 0.3897 0.4160 0.9277
C27_4 C 0.29758(9) 0.45771(9) 0.9079(2)
C28_4 C 0.28692(10) 0.41438(9) 0.8861(2)
H19_4 H 0.3327 0.4669 0.9274
H20_4 H 0.2519 0.4055 0.8717
C49_4 C 0.63587(9) 0.12113(9) 0.31116(18)
C50_4 C 0.63257(9) 0.12382(8) 0.40973(17)
C51_4 C 0.65990(9) 0.15683(9) 0.47237(19)
C52_4 C 0.60122(9) 0.09375(8) 0.43675(18)
H37_4 H 0.6806 0.1780 0.4534
C53_4 C 0.65690(9) 0.15882(9) 0.5637(2)
H38_4 H 0.5813 0.0719 0.3928
C54_4 C 0.59884(9) 0.09554(9) 0.52803(19)
O7_4 O 0.59842(9) 0.09983(8) 0.71517(15)
C55_4 C 0.62690(9) 0.12799(9) 0.59161(18)
H39_4 H 0.6756 0.1815 0.6068
H40_4 H 0.5779 0.0745 0.5469
C56_4 C 0.62692(11) 0.12767(11) 0.6930(2)
O8_4 O 0.65528(8) 0.15447(10) 0.74962(16)
C57_4 C 0.80855(7) 0.32683(7) 0.96960(17)
C58_4 C 0.77828(7) 0.28657(7) 0.98507(16)
C59_4 C 0.75822(8) 0.25503(8) 0.91405(17)
H41_4 H 0.7639 0.2585 0.8551
C87_4 C 0.29923(9) 0.01131(9) 0.8425(2)
H63_4 H 0.3130 0.0407 0.8396
C89_4 C 0.25037(10) 0.00683(9) 0.85015(19)
C90_4 C 0.21647(11) 0.04454(10) 0.8542(2)
H65_4 H 0.1858 0.0365 0.8663
C91_4 C 0.22338(11) 0.08820(10) 0.8432(2)
C92_4 C 0.18747(11) 0.12490(10) 0.8484(2)
H66_4 H 0.2538 0.0969 0.8309
C93_4 C 0.19787(11) 0.16999(12) 0.8360(3)
C94_4 C 0.14192(16) 0.11585(12) 0.8637(4)
C95_4 C 0.16457(11) 0.20451(11) 0.8417(3)
H67_4 H 0.2285 0.1776 0.8233
C96_4 C 0.10913(15) 0.14959(12) 0.8695(3)
H68_4 H 0.1330 0.0851 0.8704
C97_4 C 0.11944(10) 0.19512(11) 0.8587(2)
H69_4 H 0.1731 0.2352 0.8337
H70_4 H 0.0783 0.1417 0.8812
C98_4 C 0.08392(10) 0.23142(10) 0.8644(2)
C99_4 C 0.03845(11) 0.22521(10) 0.8751(2)
H71_4 H 0.0944 0.2619 0.8600
C100_4 C 0.00063(9) 0.25999(9) 0.87722(19)
H72_4 H 0.0293 0.1946 0.8822
C102_4 C 0.01014(9) 0.30633(9) 0.8805(2)
H74_4 H 0.0431 0.3174 0.8833
C31_4 C 0.70077(9) 0.98869(9) 0.1575(2)
H23_4 H 0.6870 0.9593 0.1604
C33_4 C 0.74963(10) 0.99317(9) 0.14985(19)
C34_4 C 0.78353(11) 0.95546(10) 0.1458(2)
H25_4 H 0.8142 0.9635 0.1337
C35_4 C 0.77662(11) 0.91180(10) 0.1568(2)
C36_4 C 0.81253(11) 0.87510(10) 0.1516(2)
H26_4 H 0.7462 0.9031 0.1691
C37_4 C 0.80213(11) 0.83001(12) 0.1640(3)
C38_4 C 0.85808(16) 0.88415(12) 0.1363(4)
C39_4 C 0.83543(11) 0.79549(11) 0.1583(3)
H27_4 H 0.7715 0.8224 0.1767
C40_4 C 0.89087(15) 0.85041(12) 0.1305(3)
H28_4 H 0.8670 0.9149 0.1296
C41_4 C 0.88056(10) 0.80488(11) 0.1413(2)
H29_4 H 0.8269 0.7648 0.1663
H30_4 H 0.9217 0.8583 0.1188
C42_4 C 0.91608(10) 0.76858(10) 0.1356(2)
C43_4 C 0.96155(11) 0.77479(10) 0.1249(2)
H31_4 H 0.9056 0.7381 0.1400
C44_4 C 0.99937(9) 0.74001(9) 0.12278(19)
H32_4 H 0.9707 0.8054 0.1178
C46_4 C 0.98986(9) 0.69367(9) 0.1195(2)
H34_4 H 0.9569 0.6826 0.1167
C61_4 C 0.43006(7) 0.93404(7) 0.03053(17)
O12_4 O 0.42133(6) 0.93646(5) 0.10787(13)
C62_4 C 0.46643(7) 0.96850(7) 0.01475(17)
C63_4 C 0.49439(8) 0.99628(7) 0.08868(17)
H43_4 H 0.4905 0.9935 0.1492
N5_4 N 0.42792(6) 0.83536(6) 0.14022(14)
C65_4 C 0.47581(8) 0.84297(8) 0.13891(17)
C66_4 C 0.41264(8) 0.79194(8) 0.13551(18)
C67_4 C 0.50808(8) 0.80917(8) 0.13009(17)
H45_4 H 0.4879 0.8735 0.1444
C68_4 C 0.44270(8) 0.75628(8) 0.12699(19)
H46_4 H 0.3793 0.7856 0.1382
C69_4 C 0.49221(8) 0.76413(8) 0.12457(18)
H47_4 H 0.5413 0.8165 0.1278
H48_4 H 0.4298 0.7261 0.1227
C70_4 C 0.52495(9) 0.72613(9) 0.1173(2)
C71_4 C 0.57527(9) 0.72898(9) 0.1340(2)
H49_4 H 0.5090 0.6973 0.0993
C72_4 C 0.60936(9) 0.69133(9) 0.1281(2)
H50_4 H 0.5908 0.7580 0.1513
C73_4 C 0.82726(9) 0.48494(8) 0.1118(2)
C74_4 C 0.76929(9) 0.42979(9) 0.1135(2)
C75_4 C 0.66197(10) 0.69855(9) 0.1551(2)
C76_4 C 0.59052(10) 0.64781(10) 0.0950(3)
C77_4 C 0.79081(9) 0.51885(8) 0.0995(2)
H51_4 H 0.8611 0.4934 0.1150
C78_4 C 0.73097(9) 0.46157(9) 0.1023(2)
H52_4 H 0.7611 0.3986 0.1172
C79_4 C 0.69534(10) 0.66438(9) 0.1494(2)
H53_4 H 0.6755 0.7277 0.1781
C80_4 C 0.62364(11) 0.61356(10) 0.0922(3)
H54_4 H 0.5545 0.6421 0.0744
C81_4 C 0.74135(9) 0.50770(8) 0.09617(19)
H55_4 H 0.7997 0.5497 0.0933
H56_4 H 0.6974 0.4521 0.0988
C82_4 C 0.67706(10) 0.62113(10) 0.1182(2)
H57_4 H 0.7312 0.6705 0.1671
H58_4 H 0.6103 0.5840 0.0723
C83_4 C 0.70242(9) 0.54229(9) 0.0921(2)
C84_4 C 0.71308(10) 0.58562(9) 0.1139(2)
H59_4 H 0.6673 0.5331 0.0726
H60_4 H 0.7481 0.5945 0.1283
O13_2 O 0.33304(6) 0.85269(7) 0.70868(13)
O14_2 O 0.39216(7) 0.90599(6) 0.74723(12)
C105_4 C 0.36413(9) 0.87887(9) 0.68884(18)
C106_4 C 0.36743(9) 0.87618(8) 0.59027(17)
C107_4 C 0.34010(9) 0.84317(9) 0.52763(19)
C108_4 C 0.39878(9) 0.90625(8) 0.56325(18)
H77_4 H 0.3194 0.8220 0.5466
C109_4 C 0.34310(9) 0.84118(9) 0.4363(2)
H78_4 H 0.4187 0.9281 0.6072
C110_4 C 0.40116(9) 0.90446(9) 0.47197(19)
O15_4 O 0.40158(9) 0.90017(8) 0.28483(15)
C111_4 C 0.37310(9) 0.87201(9) 0.40839(18)
H79_4 H 0.3244 0.8185 0.3932
H80_4 H 0.4221 0.9255 0.4531
C112_4 C 0.37308(11) 0.87233(11) 0.3070(2)
O16_4 O 0.34472(8) 0.84553(10) 0.25038(16)
O11_4 O 0.41238(6) 0.90424(5) 0.96907(12)
C64_4 C 0.47184(8) 0.97174(7) 0.92561(17)
H44_4 H 0.4527 0.9523 0.8753
N7_4 N 0.31127(7) 0.93053(7) 0.84426(14)
C85_4 C 0.32737(9) 0.97314(8) 0.83915(19)
C86_4 C 0.26451(9) 0.92586(9) 0.8520(2)
H61_4 H 0.3603 0.9772 0.8328
C88_4 C 0.23360(10) 0.96200(10) 0.8552(2)
H62_4 H 0.2520 0.8960 0.8553
H64_4 H 0.2007 0.9567 0.8609
C101_4 C 0.95182(10) 0.24692(9) 0.8744(2)
C103_4 C 0.91515(10) 0.27876(8) 0.8728(2)
H73_4 H 0.9436 0.2155 0.8735
C104_4 C 0.97128(9) 0.33619(8) 0.8797(2)
H75_4 H 0.8821 0.2685 0.8709
H76_4 H 0.9789 0.3678 0.8836
loop_
_geom_bond_atom_site_label_1
_geom_bond_atom_site_label_2
_geom_bond_site_symmetry_1
_geom_bond_site_symmetry_2
N2 C17 1_555 1_555
C18 N2 1_555 1_555
H11 C17 1_555 1_555
C22 C18 1_555 1_555
H12 C18 1_555 1_555
H16 C22 1_555 1_555
Zn5 N2 1_555 1_555
H7 C11 1_555 1_555
C15 C14 1_555 1_555
H9 C14 1_555 1_555
C16 C15 1_555 1_555
H10 C15 1_555 1_555
C19 C16 1_555 1_555
C20 C16 1_555 1_555
C21 C25 1_555 1_555
C23 C19 1_555 1_555
H13 C19 1_555 1_555
C24 C20 1_555 1_555
H14 C20 1_555 1_555
H15 C21 1_555 1_555
C26 C23 1_555 1_555
H17 C23 1_555 1_555
H18 C24 1_555 1_555
C27 C25 1_555 1_555
C28 C26 1_555 1_555
H19 C27 1_555 1_555
H20 C28 1_555 1_555
O11 C61 1_555 1_555
C61 O12 1_555 1_555
O12 Zn3 1_555 1_555
C62 C61 1_555 1_555
H43 C63 1_555 1_555
H44 C64 1_555 1_555
Zn3 N5 1_555 1_555
N5 C65 1_555 1_555
C66 N5 1_555 1_555
H45 C65 1_555 1_555
C68 C66 1_555 1_555
H46 C66 1_555 1_555
C69 C68 1_555 1_555
H48 C68 1_555 1_555
Zn4 O11 1_555 1_555
N7 Zn4 1_555 1_555
C85 N7 1_555 1_555
C86 N7 1_555 1_555
C87 C85 1_555 1_555
H61 C85 1_555 1_555
C88 C86 1_555 1_555
H62 C86 1_555 1_555
H63 C87 1_555 1_555
C89 C87 1_555 1_555
H64 C88 1_555 1_555
C90 C89 1_555 1_555
H65 C90 1_555 1_555
C91 C90 1_555 1_555
C92 C91 1_555 1_555
H66 C91 1_555 1_555
C93 C92 1_555 1_555
C94 C92 1_555 1_555
C95 C93 1_555 1_555
H67 C93 1_555 1_555
C96 C94 1_555 1_555
H68 C94 1_555 1_555
C97 C95 1_555 1_555
H69 C95 1_555 1_555
H70 C96 1_555 1_555
C98 C97 1_555 1_555
C99 C98 1_555 1_555
H71 C98 1_555 1_555
C100 C99 1_555 1_555
H72 C99 1_555 1_555
C101 C100 1_555 1_555
C102 C100 1_555 1_555
C103 C101 1_555 1_555
H73 C101 1_555 1_555
H74 C102 1_555 1_555
C104 C102 1_555 1_555
N8 C103 1_555 1_555
H75 C103 1_555 1_555
H76 C104 1_555 1_555
O15 Zn3 1_555 1_555
C111 C109 1_555 1_555
H79 C109 1_555 1_555
H80 C110 1_555 1_555
C112 O15 1_555 1_555
O16 Zn3 1_555 1_555
O17 Zn4 1_555 1_555
O18 Zn3 1_555 1_555
N10 Zn3 1_555 1_555
Zn12 N8 1_555 1_555
N12 Zn4 1_555 1_555
O20 Zn4 1_555 1_555
O22 Zn4 1_555 1_555
C24 C26 1_555 1_555
C27 C28 1_555 1_555
C62 C63 1_555 1_555
C62 C64 1_555 1_555
C88 C89 1_555 1_555
C96 C97 1_555 1_555
C104 N8 1_555 1_555
C110 C111 1_555 1_555
C111 C112 1_555 1_555
C112 O16 1_555 1_555
O20 C105 1_555 1_555
O22 C105 1_555 1_555
C105 C106 1_555 1_555
C106 C107 1_555 1_555
C107 H77 1_555 1_555
C108 C106 1_555 1_555
H78 C108 1_555 1_555
O5 C49 1_555 1_555
O6 C49 1_555 1_555
C49 C50 1_555 1_555
C50 C51 1_555 1_555
C51 H37 1_555 1_555
C52 C50 1_555 1_555
H38 C52 1_555 1_555
Zn8 O5 1_555 1_555
O6 Zn8 1_555 1_555
O1 C1 1_555 1_555
O2 C2 1_555 1_555
C1 O3 1_555 1_555
C2 O4 1_555 1_555
O3 Zn1 1_555 1_555
C3 C1 1_555 1_555
O4 Zn1 1_555 1_555
C4 C2 1_555 1_555
Zn1 N1 1_555 1_555
C5 C3 1_555 1_555
C6 C3 1_555 1_555
C7 C4 1_555 1_555
C8 C4 1_555 1_555
N1 C9 1_555 1_555
H1 C5 1_555 1_555
H2 C6 1_555 1_555
H3 C7 1_555 1_555
H4 C8 1_555 1_555
C10 N1 1_555 1_555
H5 C9 1_555 1_555
C12 C10 1_555 1_555
H6 C10 1_555 1_555
C13 C12 1_555 1_555
H8 C12 1_555 1_555
Zn8 O1 1_555 1_555
N3 Zn8 1_555 1_555
C29 N3 1_555 1_555
C30 N3 1_555 1_555
C31 C29 1_555 1_555
H21 C29 1_555 1_555
C32 C30 1_555 1_555
H22 C30 1_555 1_555
H23 C31 1_555 1_555
C33 C31 1_555 1_555
H24 C32 1_555 1_555
C34 C33 1_555 1_555
H25 C34 1_555 1_555
C35 C34 1_555 1_555
C36 C35 1_555 1_555
H26 C35 1_555 1_555
C37 C36 1_555 1_555
C38 C36 1_555 1_555
C39 C37 1_555 1_555
H27 C37 1_555 1_555
C40 C38 1_555 1_555
H28 C38 1_555 1_555
C41 C39 1_555 1_555
H29 C39 1_555 1_555
H30 C40 1_555 1_555
C42 C41 1_555 1_555
C43 C42 1_555 1_555
H31 C42 1_555 1_555
C44 C43 1_555 1_555
H32 C43 1_555 1_555
C45 C44 1_555 1_555
C46 C44 1_555 1_555
C47 C45 1_555 1_555
H33 C45 1_555 1_555
H34 C46 1_555 1_555
C48 C46 1_555 1_555
N4 C47 1_555 1_555
H35 C47 1_555 1_555
H36 C48 1_555 1_555
O7 Zn1 1_555 1_555
C55 C53 1_555 1_555
H39 C53 1_555 1_555
H40 C54 1_555 1_555
C56 O7 1_555 1_555
O8 Zn1 1_555 1_555
O9 C57 1_555 1_555
C57 O10 1_555 1_555
O10 Zn7 1_555 1_555
C58 C57 1_555 1_555
C59 C6 1_555 1_555
C60 C5 1_555 1_555
H41 C59 1_555 1_555
H42 C60 1_555 1_555
H47 C67 1_555 1_555
C71 C70 1_555 1_555
H49 C70 1_555 1_555
C72 C71 1_555 1_555
H50 C71 1_555 1_555
C75 C72 1_555 1_555
C76 C72 1_555 1_555
C77 C81 1_555 1_555
C79 C75 1_555 1_555
H53 C75 1_555 1_555
C80 C76 1_555 1_555
H54 C76 1_555 1_555
H55 C77 1_555 1_555
C82 C79 1_555 1_555
H57 C79 1_555 1_555
H58 C80 1_555 1_555
C83 C81 1_555 1_555
C84 C82 1_555 1_555
H59 C83 1_555 1_555
H60 C84 1_555 1_555
N9 Zn1 1_555 1_555
Zn9 N4 1_555 1_555
Zn12 O9 1_555 1_555
N11 Zn8 1_555 1_555
O2 Zn8 1_555 1_555
C32 C33 1_555 1_555
C40 C41 1_555 1_555
C48 N4 1_555 1_555
C54 C55 1_555 1_555
C55 C56 1_555 1_555
C56 O8 1_555 1_555
C58 C59 1_555 1_555
C58 C60 1_555 1_555
C80 C82 1_555 1_555
C83 C84 1_555 1_555
N6 C73 1_555 1_555
C74 N6 1_555 1_555
H51 C73 1_555 1_555
C78 C74 1_555 1_555
H52 C74 1_555 1_555
H56 C78 1_555 1_555
Zn7 N6 1_555 1_555
C103_2 C101_2 1_555 1_555
H73_2 C101_2 1_555 1_555
N12 C103_2 1_555 1_555
H75_2 C103_2 1_555 1_555
H76_2 C104_2 1_555 1_555
C104_2 N12 1_555 1_555
O5_2 C49_2 1_555 1_555
O6_2 C49_2 1_555 1_555
C49_2 C50_2 1_555 1_555
C50_2 C51_2 1_555 1_555
C51_2 H37_2 1_555 1_555
C52_2 C50_2 1_555 1_555
H38_2 C52_2 1_555 1_555
Zn9 O5_2 1_555 1_555
O6_2 Zn9 1_555 1_555
O1_2 C1_2 1_555 1_555
O2_2 C2_2 1_555 1_555
C1_2 O3_2 1_555 1_555
C2_2 O4_2 1_555 1_555
O3_2 Zn5 1_555 1_555
C3_2 C1_2 1_555 1_555
O4_2 Zn5 1_555 1_555
C4_2 C2_2 1_555 1_555
Zn5 N1_2 1_555 1_555
C5_2 C3_2 1_555 1_555
C6_2 C3_2 1_555 1_555
C7_2 C4_2 1_555 1_555
C8_2 C4_2 1_555 1_555
N1_2 C9_2 1_555 1_555
N9 C17_2 1_555 1_555
H1_2 C5_2 1_555 1_555
H2_2 C6_2 1_555 1_555
H3_2 C7_2 1_555 1_555
H4_2 C8_2 1_555 1_555
C9_2 C11_2 1_555 1_555
C10_2 N1_2 1_555 1_555
C11_2 C13_2 1_555 1_555
H5_2 C9_2 1_555 1_555
C12_2 C10_2 1_555 1_555
H6_2 C10_2 1_555 1_555
C13_2 C12_2 1_555 1_555
H7_2 C11_2 1_555 1_555
H8_2 C12_2 1_555 1_555
C14_2 C13_2 1_555 1_555
C15_2 C14_2 1_555 1_555
H9_2 C14_2 1_555 1_555
C16_2 C15_2 1_555 1_555
H10_2 C15_2 1_555 1_555
C17_2 C21_2 1_555 1_555
C18_2 N9 1_555 1_555
C19_2 C16_2 1_555 1_555
C20_2 C16_2 1_555 1_555
C21_2 C25_2 1_555 1_555
H11_2 C17_2 1_555 1_555
C22_2 C18_2 1_555 1_555
H12_2 C18_2 1_555 1_555
C23_2 C19_2 1_555 1_555
H13_2 C19_2 1_555 1_555
C24_2 C20_2 1_555 1_555
H14_2 C20_2 1_555 1_555
C25_2 C22_2 1_555 1_555
H15_2 C21_2 1_555 1_555
H16_2 C22_2 1_555 1_555
C26_2 C23_2 1_555 1_555
H17_2 C23_2 1_555 1_555
H18_2 C24_2 1_555 1_555
C27_2 C25_2 1_555 1_555
C28_2 C26_2 1_555 1_555
H19_2 C27_2 1_555 1_555
H20_2 C28_2 1_555 1_555
Zn9 O1_2 1_555 1_555
N3_2 Zn9 1_555 1_555
C29_2 N3_2 1_555 1_555
C30_2 N3_2 1_555 1_555
H21_2 C29_2 1_555 1_555
C32_2 C30_2 1_555 1_555
H22_2 C30_2 1_555 1_555
H24_2 C32_2 1_555 1_555
O7_2 Zn5 1_555 1_555
C55_2 C53_2 1_555 1_555
H39_2 C53_2 1_555 1_555
H40_2 C54_2 1_555 1_555
C56_2 O7_2 1_555 1_555
O8_2 Zn5 1_555 1_555
O17 C57_2 1_555 1_555
C57_2 O18 1_555 1_555
C58_2 C57_2 1_555 1_555
C59_2 C6_2 1_555 1_555
C60_2 C5_2 1_555 1_555
H41_2 C59_2 1_555 1_555
H42_2 C60_2 1_555 1_555
H63_2 C87_2 1_555 1_555
C89_2 C87_2 1_555 1_555
C90_2 C89_2 1_555 1_555
H65_2 C90_2 1_555 1_555
C91_2 C90_2 1_555 1_555
C92_2 C91_2 1_555 1_555
H66_2 C91_2 1_555 1_555
C93_2 C92_2 1_555 1_555
C94_2 C92_2 1_555 1_555
C95_2 C93_2 1_555 1_555
H67_2 C93_2 1_555 1_555
C96_2 C94_2 1_555 1_555
H68_2 C94_2 1_555 1_555
C97_2 C95_2 1_555 1_555
H69_2 C95_2 1_555 1_555
H70_2 C96_2 1_555 1_555
C98_2 C97_2 1_555 1_555
C99_2 C98_2 1_555 1_555
H71_2 C98_2 1_555 1_555
C100_2 C99_2 1_555 1_555
H72_2 C99_2 1_555 1_555
C102_2 C100_2 1_555 1_555
H74_2 C102_2 1_555 1_555
O2_2 Zn9 1_555 1_555
C24_2 C26_2 1_555 1_555
C27_2 C28_2 1_555 1_555
C54_2 C55_2 1_555 1_555
C55_2 C56_2 1_555 1_555
C56_2 O8_2 1_555 1_555
C58_2 C59_2 1_555 1_555
C58_2 C60_2 1_555 1_555
C96_2 C97_2 1_555 1_555
H23_2 C31_2 1_555 1_555
C33_2 C31_2 1_555 1_555
C34_2 C33_2 1_555 1_555
H25_2 C34_2 1_555 1_555
C35_2 C34_2 1_555 1_555
C36_2 C35_2 1_555 1_555
H26_2 C35_2 1_555 1_555
C37_2 C36_2 1_555 1_555
C38_2 C36_2 1_555 1_555
C39_2 C37_2 1_555 1_555
H27_2 C37_2 1_555 1_555
C40_2 C38_2 1_555 1_555
H28_2 C38_2 1_555 1_555
C41_2 C39_2 1_555 1_555
H29_2 C39_2 1_555 1_555
H30_2 C40_2 1_555 1_555
C42_2 C41_2 1_555 1_555
C43_2 C42_2 1_555 1_555
H31_2 C42_2 1_555 1_555
C44_2 C43_2 1_555 1_555
H32_2 C43_2 1_555 1_555
C46_2 C44_2 1_555 1_555
H34_2 C46_2 1_555 1_555
O11_2 C61_2 1_555 1_555
C61_2 O12_2 1_555 1_555
O12_2 Zn7 1_555 1_555
C62_2 C61_2 1_555 1_555
H43_2 C63_2 1_555 1_555
H44_2 C64_2 1_555 1_555
Zn7 N5_2 1_555 1_555
N5_2 C65_2 1_555 1_555
N10 C73_2 1_555 1_555
C65_2 C67_2 1_555 1_555
C66_2 N5_2 1_555 1_555
C67_2 C69_2 1_555 1_555
H45_2 C65_2 1_555 1_555
C68_2 C66_2 1_555 1_555
H46_2 C66_2 1_555 1_555
C69_2 C68_2 1_555 1_555
H47_2 C67_2 1_555 1_555
H48_2 C68_2 1_555 1_555
C70_2 C69_2 1_555 1_555
C71_2 C70_2 1_555 1_555
H49_2 C70_2 1_555 1_555
C72_2 C71_2 1_555 1_555
H50_2 C71_2 1_555 1_555
C73_2 C77_2 1_555 1_555
C74_2 N10 1_555 1_555
C75_2 C72_2 1_555 1_555
C76_2 C72_2 1_555 1_555
C77_2 C81_2 1_555 1_555
H51_2 C73_2 1_555 1_555
C78_2 C74_2 1_555 1_555
H52_2 C74_2 1_555 1_555
C79_2 C75_2 1_555 1_555
H53_2 C75_2 1_555 1_555
C80_2 C76_2 1_555 1_555
H54_2 C76_2 1_555 1_555
C81_2 C78_2 1_555 1_555
H55_2 C77_2 1_555 1_555
H56_2 C78_2 1_555 1_555
C82_2 C79_2 1_555 1_555
H57_2 C79_2 1_555 1_555
H58_2 C80_2 1_555 1_555
C83_2 C81_2 1_555 1_555
C84_2 C82_2 1_555 1_555
H59_2 C83_2 1_555 1_555
H60_2 C84_2 1_555 1_555
Zn12 O11_2 1_555 1_555
N7_2 Zn12 1_555 1_555
C85_2 N7_2 1_555 1_555
C86_2 N7_2 1_555 1_555
H61_2 C85_2 1_555 1_555
C88_2 C86_2 1_555 1_555
H62_2 C86_2 1_555 1_555
H64_2 C88_2 1_555 1_555
O15_2 Zn7 1_555 1_555
C111_2 C109_2 1_555 1_555
H79_2 C109_2 1_555 1_555
H80_2 C110_2 1_555 1_555
C112_2 O15_2 1_555 1_555
O16_2 Zn7 1_555 1_555
O20_2 Zn12 1_555 1_555
O22_2 Zn12 1_555 1_555
C40_2 C41_2 1_555 1_555
C62_2 C63_2 1_555 1_555
C62_2 C64_2 1_555 1_555
C80_2 C82_2 1_555 1_555
C83_2 C84_2 1_555 1_555
C110_2 C111_2 1_555 1_555
C111_2 C112_2 1_555 1_555
C112_2 O16_2 1_555 1_555
O20_2 C105_2 1_555 1_555
O22_2 C105_2 1_555 1_555
C105_2 C106_2 1_555 1_555
C106_2 C107_2 1_555 1_555
C107_2 H77_2 1_555 1_555
C108_2 C106_2 1_555 1_555
H78_2 C108_2 1_555 1_555
C47_2 C45_2 1_555 1_555
H33_2 C45_2 1_555 1_555
N11 C47_2 1_555 1_555
H35_2 C47_2 1_555 1_555
H36_2 C48_2 1_555 1_555
C48_2 N11 1_555 1_555
O1_3 C1_3 1_555 1_555
C3_3 C1_3 1_555 1_555
C5_3 C3_3 1_555 1_555
H1_3 C5_3 1_555 1_555
H4_3 C8_3 1_555 1_555
Zn2 O1_3 1_555 1_555
N3_3 Zn2 1_555 1_555
C29_3 N3_3 1_555 1_555
C30_3 N3_3 1_555 1_555
C31_3 C29_3 1_555 1_555
H21_3 C29_3 1_555 1_555
C32_3 C30_3 1_555 1_555
H22_3 C30_3 1_555 1_555
H23_3 C31_3 1_555 1_555
C33_3 C31_3 1_555 1_555
H24_3 C32_3 1_555 1_555
C34_3 C33_3 1_555 1_555
H25_3 C34_3 1_555 1_555
C35_3 C34_3 1_555 1_555
C36_3 C35_3 1_555 1_555
H26_3 C35_3 1_555 1_555
C37_3 C36_3 1_555 1_555
C38_3 C36_3 1_555 1_555
C39_3 C37_3 1_555 1_555
H27_3 C37_3 1_555 1_555
C40_3 C38_3 1_555 1_555
H28_3 C38_3 1_555 1_555
C41_3 C39_3 1_555 1_555
H29_3 C39_3 1_555 1_555
H30_3 C40_3 1_555 1_555
C42_3 C41_3 1_555 1_555
C43_3 C42_3 1_555 1_555
H31_3 C42_3 1_555 1_555
C44_3 C43_3 1_555 1_555
H32_3 C43_3 1_555 1_555
C45_3 C44_3 1_555 1_555
C46_3 C44_3 1_555 1_555
C47_3 C45_3 1_555 1_555
H33_3 C45_3 1_555 1_555
H34_3 C46_3 1_555 1_555
C48_3 C46_3 1_555 1_555
N4_2 C47_3 1_555 1_555
H35_3 C47_3 1_555 1_555
H36_3 C48_3 1_555 1_555
O10_2 Zn7_2 1_555 1_555
C60_3 C5_3 1_555 1_555
H42_3 C60_3 1_555 1_555
H47_3 C67_3 1_555 1_555
C71_3 C70_3 1_555 1_555
H49_3 C70_3 1_555 1_555
C72_3 C71_3 1_555 1_555
H50_3 C71_3 1_555 1_555
C75_3 C72_3 1_555 1_555
C76_3 C72_3 1_555 1_555
C77_3 C81_3 1_555 1_555
C79_3 C75_3 1_555 1_555
H53_3 C75_3 1_555 1_555
C80_3 C76_3 1_555 1_555
H54_3 C76_3 1_555 1_555
H55_3 C77_3 1_555 1_555
C82_3 C79_3 1_555 1_555
H57_3 C79_3 1_555 1_555
H58_3 C80_3 1_555 1_555
C83_3 C81_3 1_555 1_555
C84_3 C82_3 1_555 1_555
H59_3 C83_3 1_555 1_555
H60_3 C84_3 1_555 1_555
Zn9_2 N4_2 1_555 1_555
N11_2 Zn2 1_555 1_555
O19 Zn2 1_555 1_555
O21 Zn2 1_555 1_555
O2_3 Zn2 1_555 1_555
C32_3 C33_3 1_555 1_555
C40_3 C41_3 1_555 1_555
C48_3 N4_2 1_555 1_555
C80_3 C82_3 1_555 1_555
C83_3 C84_3 1_555 1_555
C2_3 O4_3 1_555 1_555
O3_3 Zn1_2 1_555 1_555
O4_3 Zn1_2 1_555 1_555
C4_3 C2_3 1_555 1_555
Zn1_2 N1_3 1_555 1_555
C7_3 C4_3 1_555 1_555
N1_3 C9_3 1_555 1_555
H2_3 C6_3 1_555 1_555
H3_3 C7_3 1_555 1_555
C10_3 N1_3 1_555 1_555
H5_3 C9_3 1_555 1_555
C12_3 C10_3 1_555 1_555
H6_3 C10_3 1_555 1_555
C13_3 C12_3 1_555 1_555
H8_3 C12_3 1_555 1_555
O19 C49_3 1_555 1_555
O21 C49_3 1_555 1_555
C49_3 C50_3 1_555 1_555
C50_3 C51_3 1_555 1_555
C51_3 H37_3 1_555 1_555
C52_3 C50_3 1_555 1_555
C53_3 C51_3 1_555 1_555
H38_3 C52_3 1_555 1_555
C54_3 C52_3 1_555 1_555
O7_3 Zn1_2 1_555 1_555
C55_3 C53_3 1_555 1_555
H39_3 C53_3 1_555 1_555
H40_3 C54_3 1_555 1_555
C56_3 O7_3 1_555 1_555
O8_3 Zn1_2 1_555 1_555
O9_2 C57_3 1_555 1_555
C58_3 C57_3 1_555 1_555
C59_3 C6_3 1_555 1_555
H41_3 C59_3 1_555 1_555
N9_2 Zn1_2 1_555 1_555
Zn11 O9_2 1_555 1_555
C54_3 C55_3 1_555 1_555
C55_3 C56_3 1_555 1_555
C56_3 O8_3 1_555 1_555
C58_3 C59_3 1_555 1_555
N6_2 C73_3 1_555 1_555
C74_3 N6_2 1_555 1_555
H51_3 C73_3 1_555 1_555
C78_3 C74_3 1_555 1_555
H52_3 C74_3 1_555 1_555
H56_3 C78_3 1_555 1_555
Zn7_2 N6_2 1_555 1_555
N2_2 C17_3 1_555 1_555
C18_3 N2_2 1_555 1_555
H11_3 C17_3 1_555 1_555
C22_3 C18_3 1_555 1_555
H12_3 C18_3 1_555 1_555
H16_3 C22_3 1_555 1_555
Zn5_2 N2_2 1_555 1_555
C61_3 O12_3 1_555 1_555
O12_3 Zn3_2 1_555 1_555
C62_3 C61_3 1_555 1_555
H43_3 C63_3 1_555 1_555
Zn3_2 N5_3 1_555 1_555
N5_3 C65_3 1_555 1_555
C66_3 N5_3 1_555 1_555
H45_3 C65_3 1_555 1_555
C68_3 C66_3 1_555 1_555
H46_3 C66_3 1_555 1_555
C69_3 C68_3 1_555 1_555
H48_3 C68_3 1_555 1_555
O13 C105_3 1_555 1_555
O14 C105_3 1_555 1_555
C105_3 C106_3 1_555 1_555
C106_3 C107_3 1_555 1_555
C107_3 H77_3 1_555 1_555
C108_3 C106_3 1_555 1_555
C109_3 C107_3 1_555 1_555
H78_3 C108_3 1_555 1_555
C110_3 C108_3 1_555 1_555
O15_3 Zn3_2 1_555 1_555
C111_3 C109_3 1_555 1_555
H79_3 C109_3 1_555 1_555
H80_3 C110_3 1_555 1_555
C112_3 O15_3 1_555 1_555
O16_3 Zn3_2 1_555 1_555
O18_2 Zn3_2 1_555 1_555
N10_2 Zn3_2 1_555 1_555
Zn10 O13 1_555 1_555
C62_3 C63_3 1_555 1_555
O14 Zn10 1_555 1_555
C110_3 C111_3 1_555 1_555
C111_3 C112_3 1_555 1_555
C112_3 O16_3 1_555 1_555
H7_3 C11_3 1_555 1_555
C15_3 C14_3 1_555 1_555
H9_3 C14_3 1_555 1_555
C16_3 C15_3 1_555 1_555
H10_3 C15_3 1_555 1_555
C19_3 C16_3 1_555 1_555
C20_3 C16_3 1_555 1_555
C21_3 C25_3 1_555 1_555
C23_3 C19_3 1_555 1_555
H13_3 C19_3 1_555 1_555
C24_3 C20_3 1_555 1_555
H14_3 C20_3 1_555 1_555
H15_3 C21_3 1_555 1_555
C26_3 C23_3 1_555 1_555
H17_3 C23_3 1_555 1_555
H18_3 C24_3 1_555 1_555
C27_3 C25_3 1_555 1_555
C28_3 C26_3 1_555 1_555
H19_3 C27_3 1_555 1_555
H20_3 C28_3 1_555 1_555
H44_3 C64_3 1_555 1_555
Zn10 O11_3 1_555 1_555
N7_3 Zn10 1_555 1_555
C85_3 N7_3 1_555 1_555
C86_3 N7_3 1_555 1_555
C87_3 C85_3 1_555 1_555
H61_3 C85_3 1_555 1_555
C88_3 C86_3 1_555 1_555
H62_3 C86_3 1_555 1_555
H63_3 C87_3 1_555 1_555
C89_3 C87_3 1_555 1_555
H64_3 C88_3 1_555 1_555
C90_3 C89_3 1_555 1_555
H65_3 C90_3 1_555 1_555
C91_3 C90_3 1_555 1_555
C92_3 C91_3 1_555 1_555
H66_3 C91_3 1_555 1_555
C93_3 C92_3 1_555 1_555
C94_3 C92_3 1_555 1_555
C95_3 C93_3 1_555 1_555
H67_3 C93_3 1_555 1_555
C96_3 C94_3 1_555 1_555
H68_3 C94_3 1_555 1_555
C97_3 C95_3 1_555 1_555
H69_3 C95_3 1_555 1_555
H70_3 C96_3 1_555 1_555
C98_3 C97_3 1_555 1_555
C99_3 C98_3 1_555 1_555
H71_3 C98_3 1_555 1_555
C100_3 C99_3 1_555 1_555
H72_3 C99_3 1_555 1_555
C101_3 C100_3 1_555 1_555
C102_3 C100_3 1_555 1_555
C103_3 C101_3 1_555 1_555
H73_3 C101_3 1_555 1_555
H74_3 C102_3 1_555 1_555
C104_3 C102_3 1_555 1_555
N8_2 C103_3 1_555 1_555
H75_3 C103_3 1_555 1_555
H76_3 C104_3 1_555 1_555
O17_2 Zn10 1_555 1_555
Zn11 N8_2 1_555 1_555
N12_2 Zn10 1_555 1_555
C24_3 C26_3 1_555 1_555
C27_3 C28_3 1_555 1_555
C88_3 C89_3 1_555 1_555
C96_3 C97_3 1_555 1_555
C104_3 N8_2 1_555 1_555
C47_4 C45_4 1_555 1_555
H33_4 C45_4 1_555 1_555
N11_2 C47_4 1_555 1_555
H35_4 C47_4 1_555 1_555
H36_4 C48_4 1_555 1_555
C48_4 N11_2 1_555 1_555
O1_4 C1_4 1_555 1_555
C3_4 C1_4 1_555 1_555
C5_4 C3_4 1_555 1_555
H1_4 C5_4 1_555 1_555
H4_4 C8_4 1_555 1_555
Zn9_2 O1_4 1_555 1_555
N3_4 Zn9_2 1_555 1_555
C29_4 N3_4 1_555 1_555
C30_4 N3_4 1_555 1_555
H21_4 C29_4 1_555 1_555
C32_4 C30_4 1_555 1_555
H22_4 C30_4 1_555 1_555
H24_4 C32_4 1_555 1_555
C60_4 C5_4 1_555 1_555
H42_4 C60_4 1_555 1_555
O19_2 Zn9_2 1_555 1_555
O21_2 Zn9_2 1_555 1_555
O2_4 Zn9_2 1_555 1_555
C2_4 O4_4 1_555 1_555
O3_4 Zn5_2 1_555 1_555
O4_4 Zn5_2 1_555 1_555
C4_4 C2_4 1_555 1_555
Zn5_2 N1_4 1_555 1_555
C7_4 C4_4 1_555 1_555
N1_4 C9_4 1_555 1_555
N9_2 C17_4 1_555 1_555
H2_4 C6_4 1_555 1_555
H3_4 C7_4 1_555 1_555
C9_4 C11_4 1_555 1_555
C10_4 N1_4 1_555 1_555
C11_4 C13_4 1_555 1_555
H5_4 C9_4 1_555 1_555
C12_4 C10_4 1_555 1_555
H6_4 C10_4 1_555 1_555
C13_4 C12_4 1_555 1_555
H7_4 C11_4 1_555 1_555
H8_4 C12_4 1_555 1_555
C14_4 C13_4 1_555 1_555
C15_4 C14_4 1_555 1_555
H9_4 C14_4 1_555 1_555
C16_4 C15_4 1_555 1_555
H10_4 C15_4 1_555 1_555
C17_4 C21_4 1_555 1_555
C18_4 N9_2 1_555 1_555
C19_4 C16_4 1_555 1_555
C20_4 C16_4 1_555 1_555
C21_4 C25_4 1_555 1_555
H11_4 C17_4 1_555 1_555
C22_4 C18_4 1_555 1_555
H12_4 C18_4 1_555 1_555
C23_4 C19_4 1_555 1_555
H13_4 C19_4 1_555 1_555
C24_4 C20_4 1_555 1_555
H14_4 C20_4 1_555 1_555
C25_4 C22_4 1_555 1_555
H15_4 C21_4 1_555 1_555
H16_4 C22_4 1_555 1_555
C26_4 C23_4 1_555 1_555
H17_4 C23_4 1_555 1_555
H18_4 C24_4 1_555 1_555
C27_4 C25_4 1_555 1_555
C28_4 C26_4 1_555 1_555
H19_4 C27_4 1_555 1_555
H20_4 C28_4 1_555 1_555
O19_2 C49_4 1_555 1_555
O21_2 C49_4 1_555 1_555
C49_4 C50_4 1_555 1_555
C50_4 C51_4 1_555 1_555
C51_4 H37_4 1_555 1_555
C52_4 C50_4 1_555 1_555
C53_4 C51_4 1_555 1_555
H38_4 C52_4 1_555 1_555
C54_4 C52_4 1_555 1_555
O7_4 Zn5_2 1_555 1_555
C55_4 C53_4 1_555 1_555
H39_4 C53_4 1_555 1_555
H40_4 C54_4 1_555 1_555
C56_4 O7_4 1_555 1_555
O8_4 Zn5_2 1_555 1_555
O17_2 C57_4 1_555 1_555
C58_4 C57_4 1_555 1_555
C59_4 C6_4 1_555 1_555
H41_4 C59_4 1_555 1_555
H63_4 C87_4 1_555 1_555
C89_4 C87_4 1_555 1_555
C90_4 C89_4 1_555 1_555
H65_4 C90_4 1_555 1_555
C91_4 C90_4 1_555 1_555
C92_4 C91_4 1_555 1_555
H66_4 C91_4 1_555 1_555
C93_4 C92_4 1_555 1_555
C94_4 C92_4 1_555 1_555
C95_4 C93_4 1_555 1_555
H67_4 C93_4 1_555 1_555
C96_4 C94_4 1_555 1_555
H68_4 C94_4 1_555 1_555
C97_4 C95_4 1_555 1_555
H69_4 C95_4 1_555 1_555
H70_4 C96_4 1_555 1_555
C98_4 C97_4 1_555 1_555
C99_4 C98_4 1_555 1_555
H71_4 C98_4 1_555 1_555
C100_4 C99_4 1_555 1_555
H72_4 C99_4 1_555 1_555
C102_4 C100_4 1_555 1_555
H74_4 C102_4 1_555 1_555
C24_4 C26_4 1_555 1_555
C27_4 C28_4 1_555 1_555
C54_4 C55_4 1_555 1_555
C55_4 C56_4 1_555 1_555
C56_4 O8_4 1_555 1_555
C58_4 C59_4 1_555 1_555
C96_4 C97_4 1_555 1_555
H23_4 C31_4 1_555 1_555
C33_4 C31_4 1_555 1_555
C34_4 C33_4 1_555 1_555
H25_4 C34_4 1_555 1_555
C35_4 C34_4 1_555 1_555
C36_4 C35_4 1_555 1_555
H26_4 C35_4 1_555 1_555
C37_4 C36_4 1_555 1_555
C38_4 C36_4 1_555 1_555
C39_4 C37_4 1_555 1_555
H27_4 C37_4 1_555 1_555
C40_4 C38_4 1_555 1_555
H28_4 C38_4 1_555 1_555
C41_4 C39_4 1_555 1_555
H29_4 C39_4 1_555 1_555
H30_4 C40_4 1_555 1_555
C42_4 C41_4 1_555 1_555
C43_4 C42_4 1_555 1_555
H31_4 C42_4 1_555 1_555
C44_4 C43_4 1_555 1_555
H32_4 C43_4 1_555 1_555
C46_4 C44_4 1_555 1_555
H34_4 C46_4 1_555 1_555
C61_4 O12_4 1_555 1_555
O12_4 Zn7_2 1_555 1_555
C62_4 C61_4 1_555 1_555
H43_4 C63_4 1_555 1_555
Zn7_2 N5_4 1_555 1_555
N5_4 C65_4 1_555 1_555
N10_2 C73_4 1_555 1_555
C65_4 C67_4 1_555 1_555
C66_4 N5_4 1_555 1_555
C67_4 C69_4 1_555 1_555
H45_4 C65_4 1_555 1_555
C68_4 C66_4 1_555 1_555
H46_4 C66_4 1_555 1_555
C69_4 C68_4 1_555 1_555
H47_4 C67_4 1_555 1_555
H48_4 C68_4 1_555 1_555
C70_4 C69_4 1_555 1_555
C71_4 C70_4 1_555 1_555
H49_4 C70_4 1_555 1_555
C72_4 C71_4 1_555 1_555
H50_4 C71_4 1_555 1_555
C73_4 C77_4 1_555 1_555
C74_4 N10_2 1_555 1_555
C75_4 C72_4 1_555 1_555
C76_4 C72_4 1_555 1_555
C77_4 C81_4 1_555 1_555
H51_4 C73_4 1_555 1_555
C78_4 C74_4 1_555 1_555
H52_4 C74_4 1_555 1_555
C79_4 C75_4 1_555 1_555
H53_4 C75_4 1_555 1_555
C80_4 C76_4 1_555 1_555
H54_4 C76_4 1_555 1_555
C81_4 C78_4 1_555 1_555
H55_4 C77_4 1_555 1_555
H56_4 C78_4 1_555 1_555
C82_4 C79_4 1_555 1_555
H57_4 C79_4 1_555 1_555
H58_4 C80_4 1_555 1_555
C83_4 C81_4 1_555 1_555
C84_4 C82_4 1_555 1_555
H59_4 C83_4 1_555 1_555
H60_4 C84_4 1_555 1_555
O13_2 C105_4 1_555 1_555
O14_2 C105_4 1_555 1_555
C105_4 C106_4 1_555 1_555
C106_4 C107_4 1_555 1_555
C107_4 H77_4 1_555 1_555
C108_4 C106_4 1_555 1_555
C109_4 C107_4 1_555 1_555
H78_4 C108_4 1_555 1_555
C110_4 C108_4 1_555 1_555
O15_4 Zn7_2 1_555 1_555
C111_4 C109_4 1_555 1_555
H79_4 C109_4 1_555 1_555
H80_4 C110_4 1_555 1_555
C112_4 O15_4 1_555 1_555
O16_4 Zn7_2 1_555 1_555
Zn11 O13_2 1_555 1_555
C40_4 C41_4 1_555 1_555
C62_4 C63_4 1_555 1_555
C80_4 C82_4 1_555 1_555
C83_4 C84_4 1_555 1_555
O14_2 Zn11 1_555 1_555
C110_4 C111_4 1_555 1_555
C111_4 C112_4 1_555 1_555
C112_4 O16_4 1_555 1_555
H44_4 C64_4 1_555 1_555
Zn11 O11_4 1_555 1_555
N7_4 Zn11 1_555 1_555
C85_4 N7_4 1_555 1_555
C86_4 N7_4 1_555 1_555
H61_4 C85_4 1_555 1_555
C88_4 C86_4 1_555 1_555
H62_4 C86_4 1_555 1_555
H64_4 C88_4 1_555 1_555
C103_4 C101_4 1_555 1_555
H73_4 C101_4 1_555 1_555
N12_2 C103_4 1_555 1_555
H75_4 C103_4 1_555 1_555
H76_4 C104_4 1_555 1_555
C104_4 N12_2 1_555 1_555

#END
