
###############################################################################
#
# This file contains modified crystal structure data generated from the
# MOF subset of the Cambridge Structural Database (CSD) v543 
# hosted by the Cambridge Crystallographic Data Centre (CCDC).
#
# This work is licensed under the Creative Commons
# Attribution-NonCommercial-ShareAlike 4.0 International License.
# To view a copy of this license, visit
# http://creativecommons.org/licenses/by-nc-sa/4.0/
# or send a letter to
# Creative Commons, PO Box 1866, Mountain View, CA 94042, USA.
#
# CIF created using the CSD Python API on 29 September 2022
# The structure has been converted into the P1 space group
# The structure has a 3D framework
# The original CSD entry CETVAA is in the monoclinic crystal system
# The framework has been calculated to contain at least 10.0% void space
# The void calculation uses a probe of radius 1.32A, grid spacing 0.4
#
###############################################################################

data_CETVAA
_chemical_formula_moiety         '(C132 H96 Cl8 Cu4 N16)n'
_symmetry_cell_setting           triclinic
_symmetry_space_group_name_H-M   'P 1'
_symmetry_Int_Tables_number      1
_space_group_name_Hall           'P 1'
loop_
_symmetry_equiv_pos_site_id
_symmetry_equiv_pos_as_xyz
1 x,y,z
_cell_length_a                   14.2786(6)
_cell_length_b                   18.6712(7)
_cell_length_c                   11.8323(4)
_cell_angle_alpha                90
_cell_angle_beta                 92.933(2)
_cell_angle_gamma                90
_cell_volume                     3150.34
loop_
_atom_site_label
_atom_site_type_symbol
_atom_site_fract_x
_atom_site_fract_y
_atom_site_fract_z
Cu2 Cu 0.069665(18) 0.800887(13) 0.96983(2)
N1 N 0.11824(13) 0.81928(11) 0.81407(17)
N4 N 0.43075(13) 0.93249(10) 0.24643(15)
C1 C 0.15621(16) 0.76821(12) 0.74984(19)
H1 H 0.1545 0.7199 0.7749
C2 C 0.19756(16) 0.78297(13) 0.64908(19)
H2 H 0.2233 0.7452 0.6068
C3 C 0.20161(14) 0.85371(12) 0.60933(18)
C4 C 0.15823(18) 0.90577(13) 0.6743(2)
H3 H 0.1560 0.9542 0.6497
C5 C 0.11864(18) 0.88655(13) 0.7744(2)
H4 H 0.0903 0.9229 0.8172
C6 C 0.36862(15) 0.91258(12) 0.32979(17)
C7 C 0.34849(17) 0.96233(12) 0.4142(2)
C8 C 0.29210(17) 0.94331(12) 0.5017(2)
H6 H 0.2790 0.9779 0.5576
C9 C 0.25406(14) 0.87420(12) 0.50934(18)
C10 C 0.27269(15) 0.82566(12) 0.42287(18)
H7 H 0.2468 0.7788 0.4250
C11 C 0.32823(16) 0.84430(11) 0.33395(18)
H8 H 0.3387 0.8106 0.2759
C17 C 0.50983(15) 0.97666(11) 0.27946(17)
H15 H 0.6855 0.9886 0.4656
C22 C 0.56626(16) 0.96035(13) 0.3752(2)
H16 H 0.5497 0.9222 0.4234
C28 C 0.43961(15) 0.89214(11) 0.14566(17)
C29 C 0.52935(15) 0.87393(12) 0.11202(18)
H21 H 0.5832 0.8859 0.1586
C30 C 0.53905(15) 0.83839(12) 0.01054(19)
C33 C 0.36059(15) 0.87342(12) 0.07726(19)
H24 H 0.2996 0.8851 0.1001
Cu1 Cu 0.069665(18) 0.199113(13) 0.46983(2)
Cl1 Cl 0.17524(5) 0.29094(3) 0.50463(5)
Cl2 Cl 0.11538(4) 0.08009(3) 0.54406(5)
N1_2 N 0.11824(13) 0.18072(11) 0.31407(17)
C1_2 C 0.15621(16) 0.23179(12) 0.24984(19)
H1_2 H 0.1545 0.2801 0.2749
C2_2 C 0.19756(16) 0.21703(13) 0.14908(19)
H2_2 H 0.2233 0.2548 0.1068
C3_2 C 0.20161(14) 0.14629(12) 0.10933(18)
C4_2 C 0.15823(18) 0.09423(13) 0.1743(2)
H3_2 H 0.1560 0.0458 0.1497
C5_2 C 0.11864(18) 0.11345(13) 0.2744(2)
H4_2 H 0.0903 0.0771 0.3172
C8_2 C 0.29210(17) 0.05669(12) 0.0017(2)
H6_2 H 0.2790 0.0221 0.0576
C9_2 C 0.25406(14) 0.12580(12) 0.00934(18)
N6 N 0.02084(13) 0.22768(11) 0.62104(16)
C26 C 0.04634(17) 0.23415(13) 0.82183(19)
H19 H 0.0801 0.2176 0.8880
C27 C 0.06697(17) 0.20712(13) 0.7173(2)
H20 H 0.1157 0.1727 0.7134
H22 H 0.1000 0.3260 0.9883
N3 N 0.52084(13) 0.27232(11) 0.12104(16)
N4_2 N 0.43075(13) 0.06751(10) 0.74643(15)
C6_2 C 0.36862(15) 0.08742(12) 0.82979(17)
C7_2 C 0.34849(17) 0.03767(12) 0.9142(2)
C10_2 C 0.27269(15) 0.17434(12) 0.92287(18)
H7_2 H 0.2468 0.2212 0.9250
C11_2 C 0.32823(16) 0.15570(11) 0.83395(18)
H8_2 H 0.3387 0.1894 0.7759
C17_2 C 0.50983(15) 0.02334(11) 0.77946(17)
H15_2 H 0.6855 0.0114 0.9656
C22_2 C 0.56626(16) 0.03965(13) 0.8752(2)
H16_2 H 0.5497 0.0778 0.9234
C23 C 0.45186(17) 0.22425(14) 0.12875(19)
H17 H 0.4181 0.2099 0.0613
C24 C 0.42727(16) 0.19436(12) 0.2306(2)
H18 H 0.3776 0.1606 0.2322
C25 C 0.47647(15) 0.21458(12) 0.33069(18)
C26_2 C 0.54634(17) 0.26585(13) 0.32183(19)
H19_2 H 0.5801 0.2824 0.3880
C27_2 C 0.56697(17) 0.29288(13) 0.2173(2)
H20_2 H 0.6157 0.3273 0.2134
C28_2 C 0.43961(15) 0.10786(11) 0.64566(17)
C29_2 C 0.52935(15) 0.12607(12) 0.61202(18)
H21_2 H 0.5832 0.1141 0.6586
C30_2 C 0.53905(15) 0.16161(12) 0.51054(19)
H22_2 H 0.6000 0.1740 0.4883
C31 C 0.46095(15) 0.17965(12) 0.44011(18)
C32 C 0.37169(15) 0.16247(12) 0.47512(18)
H23 H 0.3179 0.1753 0.4290
C33_2 C 0.36059(15) 0.12658(12) 0.57726(19)
H24_2 H 0.2996 0.1149 0.6001
Cl1_2 Cl 0.67524(5) 0.20906(3) 0.00463(5)
Cl2_2 Cl 0.61538(4) 0.41991(3) 0.04406(5)
Cu3 Cu 0.569665(18) 0.300887(13) 0.96983(2)
Cl1_3 Cl 0.17524(5) 0.70906(3) 0.00463(5)
Cl2_3 Cl 0.11538(4) 0.91991(3) 0.04406(5)
N6_2 N 0.02084(13) 0.77232(11) 0.12104(16)
N2 N 0.43367(13) 0.33570(10) 0.91476(16)
C12 C 0.38609(16) 0.37105(13) 0.99288(19)
C13 C 0.30050(16) 0.40385(14) 0.96906(19)
C14 C 0.26018(15) 0.40334(12) 0.85850(19)
C15 C 0.30881(16) 0.36488(12) 0.77828(19)
H11 H 0.2836 0.3607 0.7027
C16 C 0.39399(16) 0.33291(12) 0.80968(19)
H12 H 0.4259 0.3076 0.7536
C17_3 C 0.00983(15) 0.52334(11) 0.77946(17)
C18 C 0.03432(15) 0.46699(12) 0.70933(19)
C19 C 0.11499(16) 0.42735(12) 0.73415(19)
H14 H 0.1313 0.3893 0.6857
C20 C 0.17268(15) 0.44330(12) 0.83073(19)
C21 C 0.14704(17) 0.49989(14) 0.90022(19)
H15_3 H 0.1855 0.5114 0.9656
C22_3 C 0.06626(16) 0.53965(13) 0.8752(2)
H16_3 H 0.0497 0.5778 0.9234
C26_3 C 0.04634(17) 0.76585(13) 0.32183(19)
H19_3 H 0.0801 0.7824 0.3880
C27_3 C 0.06697(17) 0.79288(13) 0.2173(2)
H20_3 H 0.1157 0.8273 0.2134
C29_3 C 0.02935(15) 0.62607(12) 0.61202(18)
H21_3 H 0.0832 0.6141 0.6586
C30_3 C 0.03905(15) 0.66161(12) 0.51054(19)
H22_3 H 0.1000 0.6740 0.4883
N1_3 N 0.61824(13) 0.31928(11) 0.81407(17)
N4_3 N 0.93075(13) 0.43249(10) 0.24643(15)
C1_3 C 0.65621(16) 0.26821(12) 0.74984(19)
H1_3 H 0.6545 0.2199 0.7749
C2_3 C 0.69756(16) 0.28297(13) 0.64908(19)
H2_3 H 0.7233 0.2452 0.6068
C3_3 C 0.70161(14) 0.35371(12) 0.60933(18)
C4_3 C 0.65823(18) 0.40577(13) 0.6743(2)
H3_3 H 0.6560 0.4542 0.6497
C5_3 C 0.61864(18) 0.38655(13) 0.7744(2)
H4_3 H 0.5903 0.4229 0.8172
C6_3 C 0.86862(15) 0.41258(12) 0.32979(17)
C7_3 C 0.84849(17) 0.46233(12) 0.4142(2)
H5 H 0.8736 0.5094 0.4114
C8_3 C 0.79210(17) 0.44331(12) 0.5017(2)
H6_3 H 0.7790 0.4779 0.5576
C9_3 C 0.75406(14) 0.37420(12) 0.50934(18)
C10_3 C 0.77269(15) 0.32566(12) 0.42287(18)
H7_3 H 0.7468 0.2788 0.4250
C11_3 C 0.82823(16) 0.34430(11) 0.33395(18)
H8_3 H 0.8387 0.3106 0.2759
H13 H 0.9955 0.5443 0.1442
C28_3 C 0.93961(15) 0.39214(11) 0.14566(17)
C33_3 C 0.86059(15) 0.37342(12) 0.07726(19)
H24_3 H 0.7996 0.3851 0.1001
H9 H 0.9127 0.8736 0.0680
H10 H 0.7689 0.9268 0.0278
N2_2 N 0.93367(13) 0.83570(10) 0.91476(16)
H5_2 H 0.3736 0.9906 0.9114
C12_2 C 0.88609(16) 0.87105(13) 0.99288(19)
C13_2 C 0.80050(16) 0.90385(14) 0.96906(19)
C14_2 C 0.76018(15) 0.90334(12) 0.85850(19)
C15_2 C 0.80881(16) 0.86488(12) 0.77828(19)
H11_2 H 0.7836 0.8607 0.7027
C16_2 C 0.89399(16) 0.83291(12) 0.80968(19)
H12_2 H 0.9259 0.8076 0.7536
C18_2 C 0.53432(15) 0.96699(12) 0.70933(19)
H13_2 H 0.4955 0.9557 0.6442
C19_2 C 0.61499(16) 0.92735(12) 0.73415(19)
H14_2 H 0.6313 0.8893 0.6857
C20_2 C 0.67268(15) 0.94330(12) 0.83073(19)
C21_2 C 0.64704(17) 0.99989(14) 0.90022(19)
N5 N 0.93367(13) 0.16430(10) 0.41476(16)
H5_3 H 0.3736 0.0094 0.4114
C12_3 C 0.88609(16) 0.12895(13) 0.49288(19)
H9_2 H 0.9127 0.1264 0.5680
C13_3 C 0.80050(16) 0.09615(14) 0.46906(19)
H10_2 H 0.7689 0.0732 0.5278
C14_3 C 0.76018(15) 0.09666(12) 0.35850(19)
C15_3 C 0.80881(16) 0.13512(12) 0.27828(19)
H11_3 H 0.7836 0.1393 0.2027
C16_3 C 0.89399(16) 0.16709(12) 0.30968(19)
H12_3 H 0.9259 0.1924 0.2536
C18_3 C 0.53432(15) 0.03301(12) 0.20933(19)
H13_3 H 0.4955 0.0443 0.1442
C19_3 C 0.61499(16) 0.07265(12) 0.23415(19)
H14_3 H 0.6313 0.1107 0.1857
C20_3 C 0.67268(15) 0.05670(12) 0.33073(19)
C21_3 C 0.64704(17) 0.00011(14) 0.40022(19)
N3_2 N 0.52084(13) 0.72768(11) 0.62104(16)
C23_2 C 0.45186(17) 0.77575(14) 0.62875(19)
H17_2 H 0.4181 0.7901 0.5613
C24_2 C 0.42727(16) 0.80564(12) 0.7306(2)
H18_2 H 0.3776 0.8394 0.7322
C25_2 C 0.47647(15) 0.78542(12) 0.83069(18)
C26_4 C 0.54634(17) 0.73415(13) 0.82183(19)
H19_4 H 0.5801 0.7176 0.8880
C27_4 C 0.56697(17) 0.70712(13) 0.7173(2)
H20_4 H 0.6157 0.6727 0.7134
H22_4 H 0.6000 0.8260 0.9883
C31_2 C 0.46095(15) 0.82035(12) 0.94011(18)
C32_2 C 0.37169(15) 0.83753(12) 0.97512(18)
H23_2 H 0.3179 0.8247 0.9290
Cu3_2 Cu 0.569665(18) 0.699113(13) 0.46983(2)
Cl1_4 Cl 0.67524(5) 0.79094(3) 0.50463(5)
Cl2_4 Cl 0.61538(4) 0.58009(3) 0.54406(5)
N1_4 N 0.61824(13) 0.68072(11) 0.31407(17)
C1_4 C 0.65621(16) 0.73179(12) 0.24984(19)
H1_4 H 0.6545 0.7801 0.2749
C2_4 C 0.69756(16) 0.71703(13) 0.14908(19)
H2_4 H 0.7233 0.7548 0.1068
C3_4 C 0.70161(14) 0.64629(12) 0.10933(18)
C4_4 C 0.65823(18) 0.59423(13) 0.1743(2)
H3_4 H 0.6560 0.5458 0.1497
C5_4 C 0.61864(18) 0.61345(13) 0.2744(2)
H4_4 H 0.5903 0.5771 0.3172
C8_4 C 0.79210(17) 0.55669(12) 0.0017(2)
H6_4 H 0.7790 0.5221 0.0576
C9_4 C 0.75406(14) 0.62580(12) 0.00934(18)
N5_2 N 0.43367(13) 0.66430(10) 0.41476(16)
C12_4 C 0.38609(16) 0.62895(13) 0.49288(19)
H9_3 H 0.4127 0.6264 0.5680
C13_4 C 0.30050(16) 0.59615(14) 0.46906(19)
H10_3 H 0.2689 0.5732 0.5278
C14_4 C 0.26018(15) 0.59666(12) 0.35850(19)
C15_4 C 0.30881(16) 0.63512(12) 0.27828(19)
H11_4 H 0.2836 0.6393 0.2027
C16_4 C 0.39399(16) 0.66709(12) 0.30968(19)
H12_4 H 0.4259 0.6924 0.2536
C17_4 C 0.00983(15) 0.47666(11) 0.27946(17)
C18_4 C 0.03432(15) 0.53301(12) 0.20933(19)
C19_4 C 0.11499(16) 0.57265(12) 0.23415(19)
H14_4 H 0.1313 0.6107 0.1857
C20_4 C 0.17268(15) 0.55670(12) 0.33073(19)
C21_4 C 0.14704(17) 0.50011(14) 0.40022(19)
H15_4 H 0.1855 0.4886 0.4656
C22_4 C 0.06626(16) 0.46035(13) 0.3752(2)
H16_4 H 0.0497 0.4222 0.4234
C29_4 C 0.02935(15) 0.37393(12) 0.11202(18)
H21_4 H 0.0832 0.3859 0.1586
C30_4 C 0.03905(15) 0.33839(12) 0.01054(19)
H9_4 H 0.4127 0.3736 0.0680
H10_4 H 0.2689 0.4268 0.0278
N4_4 N 0.93075(13) 0.56751(10) 0.74643(15)
C6_4 C 0.86862(15) 0.58742(12) 0.82979(17)
C7_4 C 0.84849(17) 0.53767(12) 0.9142(2)
H5_4 H 0.8736 0.4906 0.9114
C10_4 C 0.77269(15) 0.67434(12) 0.92287(18)
H7_4 H 0.7468 0.7212 0.9250
C11_4 C 0.82823(16) 0.65570(11) 0.83395(18)
H8_4 H 0.8387 0.6894 0.7759
H13_4 H 0.9955 0.4557 0.6442
C23_3 C 0.95186(17) 0.72425(14) 0.12875(19)
H17_3 H 0.9181 0.7099 0.0613
C24_3 C 0.92727(16) 0.69436(12) 0.2306(2)
H18_3 H 0.8776 0.6606 0.2322
C25_3 C 0.97647(15) 0.71458(12) 0.33069(18)
C28_4 C 0.93961(15) 0.60786(11) 0.64566(17)
C31_3 C 0.96095(15) 0.67965(12) 0.44011(18)
C32_3 C 0.87169(15) 0.66247(12) 0.47512(18)
H23_3 H 0.8179 0.6753 0.4290
C33_4 C 0.86059(15) 0.62658(12) 0.57726(19)
H24_4 H 0.7996 0.6149 0.6001
C23_4 C 0.95186(17) 0.27575(14) 0.62875(19)
H17_4 H 0.9181 0.2901 0.5613
C24_4 C 0.92727(16) 0.30564(12) 0.7306(2)
H18_4 H 0.8776 0.3394 0.7322
C25_4 C 0.97647(15) 0.28542(12) 0.83069(18)
C31_4 C 0.96095(15) 0.32035(12) 0.94011(18)
C32_4 C 0.87169(15) 0.33753(12) 0.97512(18)
H23_4 H 0.8179 0.3247 0.9290
loop_
_geom_bond_atom_site_label_1
_geom_bond_atom_site_label_2
_geom_bond_site_symmetry_1
_geom_bond_site_symmetry_2
N1 Cu2 1_555 1_555
N4 C6 1_555 1_555
C1 N1 1_555 1_555
H1 C1 1_555 1_555
C2 C1 1_555 1_555
H2 C2 1_555 1_555
C3 C2 1_555 1_555
C4 C3 1_555 1_555
H3 C4 1_555 1_555
C5 N1 1_555 1_555
H4 C5 1_555 1_555
C6 C7 1_555 1_555
C8 C7 1_555 1_555
H6 C8 1_555 1_555
C9 C3 1_555 1_555
C10 C9 1_555 1_555
H7 C10 1_555 1_555
C11 C6 1_555 1_555
H8 C11 1_555 1_555
C17 N4 1_555 1_555
C22 C17 1_555 1_555
H16 C22 1_555 1_555
C28 N4 1_555 1_555
C29 C28 1_555 1_555
H21 C29 1_555 1_555
C30 C29 1_555 1_555
C33 C28 1_555 1_555
H24 C33 1_555 1_555
C4 C5 1_555 1_555
C8 C9 1_555 1_555
C10 C11 1_555 1_555
Cu1 Cl1 1_555 1_555
Cl2 Cu1 1_555 1_555
N1_2 Cu1 1_555 1_555
C1_2 N1_2 1_555 1_555
H1_2 C1_2 1_555 1_555
C2_2 C1_2 1_555 1_555
H2_2 C2_2 1_555 1_555
C3_2 C2_2 1_555 1_555
C4_2 C3_2 1_555 1_555
H3_2 C4_2 1_555 1_555
C5_2 N1_2 1_555 1_555
H4_2 C5_2 1_555 1_555
H6_2 C8_2 1_555 1_555
C9_2 C3_2 1_555 1_555
N6 Cu1 1_555 1_555
C4_2 C5_2 1_555 1_555
C8_2 C9_2 1_555 1_555
H19 C26 1_555 1_555
C27 N6 1_555 1_555
H20 C27 1_555 1_555
C26 C27 1_555 1_555
N3 C23 1_555 1_555
N4_2 C6_2 1_555 1_555
C6_2 C7_2 1_555 1_555
H7_2 C10_2 1_555 1_555
C11_2 C6_2 1_555 1_555
H8_2 C11_2 1_555 1_555
C17_2 N4_2 1_555 1_555
C22_2 C17_2 1_555 1_555
H16_2 C22_2 1_555 1_555
C23 H17 1_555 1_555
C24 C23 1_555 1_555
H18 C24 1_555 1_555
C25 C24 1_555 1_555
C26_2 C25 1_555 1_555
H19_2 C26_2 1_555 1_555
C27_2 N3 1_555 1_555
H20_2 C27_2 1_555 1_555
C28_2 N4_2 1_555 1_555
C29_2 C28_2 1_555 1_555
H21_2 C29_2 1_555 1_555
C30_2 C29_2 1_555 1_555
H22_2 C30_2 1_555 1_555
C31 C25 1_555 1_555
C32 C31 1_555 1_555
H23 C32 1_555 1_555
C33_2 C28_2 1_555 1_555
H24_2 C33_2 1_555 1_555
C10_2 C11_2 1_555 1_555
C26_2 C27_2 1_555 1_555
C30_2 C31 1_555 1_555
C32 C33_2 1_555 1_555
N2 C12 1_555 1_555
C13 C12 1_555 1_555
C14 C13 1_555 1_555
C15 C14 1_555 1_555
H11 C15 1_555 1_555
C16 N2 1_555 1_555
H12 C16 1_555 1_555
C18 C17_3 1_555 1_555
C19 C18 1_555 1_555
H14 C19 1_555 1_555
C20 C14 1_555 1_555
C21 C20 1_555 1_555
H15_3 C21 1_555 1_555
C22_3 C17_3 1_555 1_555
H16_3 C22_3 1_555 1_555
H19_3 C26_3 1_555 1_555
C27_3 N6_2 1_555 1_555
H20_3 C27_3 1_555 1_555
H21_3 C29_3 1_555 1_555
C30_3 C29_3 1_555 1_555
H22_3 C30_3 1_555 1_555
Cu3 N2 1_555 1_555
C15 C16 1_555 1_555
C19 C20 1_555 1_555
C21 C22_3 1_555 1_555
C26_3 C27_3 1_555 1_555
N1_3 Cu3 1_555 1_555
N4_3 C6_3 1_555 1_555
C1_3 N1_3 1_555 1_555
H1_3 C1_3 1_555 1_555
C2_3 C1_3 1_555 1_555
H2_3 C2_3 1_555 1_555
C3_3 C2_3 1_555 1_555
C4_3 C3_3 1_555 1_555
H3_3 C4_3 1_555 1_555
C5_3 N1_3 1_555 1_555
H4_3 C5_3 1_555 1_555
C6_3 C7_3 1_555 1_555
C7_3 H5 1_555 1_555
C8_3 C7_3 1_555 1_555
H6_3 C8_3 1_555 1_555
C9_3 C3_3 1_555 1_555
C10_3 C9_3 1_555 1_555
H7_3 C10_3 1_555 1_555
C11_3 C6_3 1_555 1_555
H8_3 C11_3 1_555 1_555
C28_3 N4_3 1_555 1_555
C33_3 C28_3 1_555 1_555
H24_3 C33_3 1_555 1_555
C4_3 C5_3 1_555 1_555
C8_3 C9_3 1_555 1_555
C10_3 C11_3 1_555 1_555
N2_2 C12_2 1_555 1_555
C13_2 C12_2 1_555 1_555
C14_2 C13_2 1_555 1_555
C15_2 C14_2 1_555 1_555
H11_2 C15_2 1_555 1_555
C16_2 N2_2 1_555 1_555
H12_2 C16_2 1_555 1_555
H13_2 C18_2 1_555 1_555
C19_2 C18_2 1_555 1_555
H14_2 C19_2 1_555 1_555
C20_2 C14_2 1_555 1_555
C21_2 C20_2 1_555 1_555
C15_2 C16_2 1_555 1_555
C19_2 C20_2 1_555 1_555
N5 C12_3 1_555 1_555
C12_3 H9_2 1_555 1_555
C13_3 C12_3 1_555 1_555
H10_2 C13_3 1_555 1_555
C14_3 C13_3 1_555 1_555
C15_3 C14_3 1_555 1_555
H11_3 C15_3 1_555 1_555
C16_3 N5 1_555 1_555
H12_3 C16_3 1_555 1_555
H13_3 C18_3 1_555 1_555
C19_3 C18_3 1_555 1_555
H14_3 C19_3 1_555 1_555
C20_3 C14_3 1_555 1_555
C21_3 C20_3 1_555 1_555
C15_3 C16_3 1_555 1_555
C19_3 C20_3 1_555 1_555
N3_2 C23_2 1_555 1_555
C23_2 H17_2 1_555 1_555
C24_2 C23_2 1_555 1_555
H18_2 C24_2 1_555 1_555
C25_2 C24_2 1_555 1_555
C26_4 C25_2 1_555 1_555
H19_4 C26_4 1_555 1_555
C27_4 N3_2 1_555 1_555
H20_4 C27_4 1_555 1_555
C31_2 C25_2 1_555 1_555
C32_2 C31_2 1_555 1_555
H23_2 C32_2 1_555 1_555
Cu3_2 N3_2 1_555 1_555
C26_4 C27_4 1_555 1_555
Cu3_2 Cl1_4 1_555 1_555
Cl2_4 Cu3_2 1_555 1_555
N1_4 Cu3_2 1_555 1_555
C1_4 N1_4 1_555 1_555
H1_4 C1_4 1_555 1_555
C2_4 C1_4 1_555 1_555
H2_4 C2_4 1_555 1_555
C3_4 C2_4 1_555 1_555
C4_4 C3_4 1_555 1_555
H3_4 C4_4 1_555 1_555
C5_4 N1_4 1_555 1_555
H4_4 C5_4 1_555 1_555
H6_4 C8_4 1_555 1_555
C9_4 C3_4 1_555 1_555
N5_2 Cu3_2 1_555 1_555
C4_4 C5_4 1_555 1_555
C8_4 C9_4 1_555 1_555
N5_2 C12_4 1_555 1_555
C12_4 H9_3 1_555 1_555
C13_4 C12_4 1_555 1_555
H10_3 C13_4 1_555 1_555
C14_4 C13_4 1_555 1_555
C15_4 C14_4 1_555 1_555
H11_4 C15_4 1_555 1_555
C16_4 N5_2 1_555 1_555
H12_4 C16_4 1_555 1_555
C18_4 C17_4 1_555 1_555
C19_4 C18_4 1_555 1_555
H14_4 C19_4 1_555 1_555
C20_4 C14_4 1_555 1_555
C21_4 C20_4 1_555 1_555
H15_4 C21_4 1_555 1_555
C22_4 C17_4 1_555 1_555
H16_4 C22_4 1_555 1_555
H21_4 C29_4 1_555 1_555
C30_4 C29_4 1_555 1_555
C15_4 C16_4 1_555 1_555
C19_4 C20_4 1_555 1_555
C21_4 C22_4 1_555 1_555
N4_4 C6_4 1_555 1_555
C6_4 C7_4 1_555 1_555
C7_4 H5_4 1_555 1_555
H7_4 C10_4 1_555 1_555
C11_4 C6_4 1_555 1_555
H8_4 C11_4 1_555 1_555
C23_3 H17_3 1_555 1_555
C24_3 C23_3 1_555 1_555
H18_3 C24_3 1_555 1_555
C25_3 C24_3 1_555 1_555
C28_4 N4_4 1_555 1_555
C31_3 C25_3 1_555 1_555
C32_3 C31_3 1_555 1_555
H23_3 C32_3 1_555 1_555
C33_4 C28_4 1_555 1_555
H24_4 C33_4 1_555 1_555
C10_4 C11_4 1_555 1_555
C32_3 C33_4 1_555 1_555
C23_4 H17_4 1_555 1_555
C24_4 C23_4 1_555 1_555
H18_4 C24_4 1_555 1_555
C25_4 C24_4 1_555 1_555
C31_4 C25_4 1_555 1_555
C32_4 C31_4 1_555 1_555
H23_4 C32_4 1_555 1_555

#END
