
###############################################################################
#
# This file contains modified crystal structure data generated from the
# MOF subset of the Cambridge Structural Database (CSD) v543 
# hosted by the Cambridge Crystallographic Data Centre (CCDC).
#
# This work is licensed under the Creative Commons
# Attribution-NonCommercial-ShareAlike 4.0 International License.
# To view a copy of this license, visit
# http://creativecommons.org/licenses/by-nc-sa/4.0/
# or send a letter to
# Creative Commons, PO Box 1866, Mountain View, CA 94042, USA.
#
# CIF created using the CSD Python API on 29 September 2022
# The structure has been converted into the P1 space group
# The structure has a 3D framework
# The original CSD entry CEVCIS is in the monoclinic crystal system
# The framework has been calculated to contain at least 10.0% void space
# The void calculation uses a probe of radius 1.32A, grid spacing 0.4
#
###############################################################################

data_CEVCIS
_chemical_formula_moiety         '(C192 H140 Co8 N24 O32 P4)n'
_symmetry_cell_setting           triclinic
_symmetry_space_group_name_H-M   'P 1'
_symmetry_Int_Tables_number      1
_space_group_name_Hall           'P 1'
loop_
_symmetry_equiv_pos_site_id
_symmetry_equiv_pos_as_xyz
1 x,y,z
_cell_length_a                   14.8968(9)
_cell_length_b                   26.9699(17)
_cell_length_c                   13.2820(8)
_cell_angle_alpha                90
_cell_angle_beta                 105.351(2)
_cell_angle_gamma                90
_cell_volume                     5145.86
loop_
_atom_site_label
_atom_site_type_symbol
_atom_site_fract_x
_atom_site_fract_y
_atom_site_fract_z
N9 N 0.1796(3) 0.8231(2) 0.5461(4)
N10 N 0.1329(4) 0.8786(2) 0.4228(4)
C58 C 0.1225(5) 0.8326(3) 0.4533(6)
H45 H 0.0804 0.8098 0.4143
C59 C 0.2296(5) 0.8654(3) 0.5748(5)
H46 H 0.2763 0.8695 0.6365
C60 C 0.2013(5) 0.9005(3) 0.5003(5)
H47 H 0.2235 0.9327 0.5014
C61 C 0.0763(5) 0.9016(3) 0.3295(6)
C62 C 0.0504(6) 0.8730(3) 0.2400(7)
H48 H 0.0731 0.8410 0.2392
C66 C 0.0488(7) 0.9497(4) 0.3309(6)
H51 H 0.0696 0.9690 0.3906
Co7 Co 0.18452(5) 0.75924(3) 0.62880(6)
Co2 Co 0.81548(5) 0.24076(3) 0.37120(6)
O5 O 0.7426(3) 0.29755(19) 0.2150(3)
O8 O 0.7036(3) 0.22351(18) 0.2591(3)
N5 N 0.7866(4) 0.2962(2) 0.4606(4)
N6 N 0.7168(4) 0.3595(2) 0.5125(4)
C28 C 0.6048(4) 0.2932(2) 0.0238(5)
H22 H 0.6475 0.3191 0.0341
C29 C 0.6160(4) 0.2564(2) 0.0976(4)
C30 C 0.5553(4) 0.2168(2) 0.0794(5)
H23 H 0.5638 0.1911 0.1276
C32 C 0.6927(4) 0.2600(3) 0.1961(5)
H26 H 0.1618 0.2461 0.0212
C40 C 0.8326(6) 0.3085(4) 0.5610(6)
H29 H 0.8851 0.2924 0.6011
C41 C 0.7913(6) 0.3468(4) 0.5929(6)
H30 H 0.8097 0.3622 0.6578
C42 C 0.7180(5) 0.3275(3) 0.4354(6)
H31 H 0.6744 0.3278 0.3708
C43 C 0.6533(6) 0.3984(3) 0.5092(6)
C44 C 0.6648(8) 0.4289(4) 0.5934(7)
H32 H 0.7127 0.4233 0.6533
C45 C 0.6038(9) 0.4686(4) 0.5889(7)
H33 H 0.6123 0.4892 0.6468
C46 C 0.5317(5) 0.4787(3) 0.5024(6)
C47 C 0.5231(5) 0.4468(3) 0.4204(6)
H34 H 0.4750 0.4517 0.3604
C48 C 0.5824(5) 0.4078(3) 0.4232(6)
H35 H 0.5741 0.3873 0.3651
N7 N 0.2134(4) 0.7038(2) 0.5394(4)
N8 N 0.2832(4) 0.6405(2) 0.4875(4)
C49 C 0.1674(6) 0.6915(4) 0.4390(6)
H36 H 0.1149 0.7076 0.3989
C50 C 0.2087(6) 0.6532(4) 0.4071(6)
H37 H 0.1903 0.6378 0.3422
C51 C 0.2820(5) 0.6725(3) 0.5646(6)
H38 H 0.3256 0.6722 0.6292
C52 C 0.3467(6) 0.6016(3) 0.4908(6)
C53 C 0.3352(8) 0.5711(4) 0.4066(7)
H39 H 0.2873 0.5767 0.3467
C54 C 0.3962(9) 0.5314(4) 0.4111(7)
H40 H 0.3877 0.5108 0.3532
C55 C 0.4683(5) 0.5213(3) 0.4976(6)
C56 C 0.4769(5) 0.5532(3) 0.5796(6)
H41 H 0.5250 0.5483 0.6396
C57 C 0.4176(5) 0.5922(3) 0.5768(6)
H42 H 0.4259 0.6127 0.6349
H50 H 0.9692 0.0021 0.2417
C72 C 0.8958(6) 0.0124(4) 0.0316(6)
H55 H 0.9386 0.0333 0.0754
O18 O 0.9259(3) 0.23944(19) 0.3146(4)
N13 N 0.8204(3) 0.1769(2) 0.4539(4)
H8 H 0.0308 0.9979 0.7583
C15 C 0.1042(6) 0.9876(4) 0.9684(6)
H13 H 0.0614 0.9667 0.9246
O13 O 0.2574(3) 0.70245(19) 0.7850(3)
O16 O 0.2964(3) 0.77649(18) 0.7409(3)
C85 C 0.3952(4) 0.7068(2) 0.9762(5)
H64 H 0.3525 0.6809 0.9659
C86 C 0.3840(4) 0.7436(2) 0.9024(4)
C87 C 0.4447(4) 0.7832(2) 0.9206(5)
H65 H 0.4362 0.8089 0.8724
C89 C 0.3073(4) 0.7400(3) 0.8039(5)
H68 H 0.8382 0.7539 0.9788
O17 O 0.0741(3) 0.76056(19) 0.6854(4)
N2 N 0.8671(4) 0.1214(2) 0.5772(4)
C1 C 0.8775(5) 0.1674(3) 0.5467(6)
H3 H 0.9196 0.1902 0.5857
C2 C 0.7704(5) 0.1346(3) 0.4252(5)
H4 H 0.7237 0.1305 0.3635
C3 C 0.7987(5) 0.0995(3) 0.4997(5)
H5 H 0.7765 0.0673 0.4986
C4 C 0.9237(5) 0.0984(3) 0.6705(6)
C5 C 0.9496(6) 0.1270(3) 0.7600(7)
H6 H 0.9269 0.1590 0.7608
C9 C 0.9512(7) 0.0503(4) 0.6691(6)
H9 H 0.9304 0.0310 0.6094
O6 O 0.0131(3) 0.7485(2) 0.5186(5)
C39 C 0.0049(5) 0.7549(3) 0.6071(7)
O14 O 0.9869(3) 0.2515(2) 0.4814(5)
C96 C 0.9951(5) 0.2451(3) 0.3929(7)
O14_2 O 0.0131(3) 0.7515(2) 0.0186(5)
O15 O 0.0741(3) 0.73944(19) 0.1854(4)
C96_2 C 0.0049(5) 0.7451(3) 0.1071(7)
Co5 Co 0.18452(5) 0.74076(3) 0.12880(6)
N1 N 0.1796(3) 0.6769(2) 0.0461(4)
C2_2 C 0.2296(5) 0.6346(3) 0.0748(5)
H4_2 H 0.2763 0.6305 0.1365
C3_2 C 0.2013(5) 0.5995(3) 0.0003(5)
H5_2 H 0.2235 0.5673 0.0014
Co1 Co 0.5000 0.5000 1.0000
P1 P 0.62705(10) 0.75428(6) 0.69797(12)
O1 O 0.5936(4) 0.54895(17) 0.9698(4)
O3 O 0.6493(4) 0.5128(2) 0.8465(4)
O4 O 0.6166(3) 0.79395(15) 0.7728(3)
O5_2 O 0.2574(3) 0.79755(19) 0.2850(3)
O8_2 O 0.2964(3) 0.72351(18) 0.2409(3)
N5_2 N 0.2134(4) 0.7962(2) 0.0394(4)
C19 C 0.6256(5) 0.5496(3) 0.8906(6)
C20 C 0.6299(4) 0.6000(2) 0.8440(4)
C21 C 0.6798(4) 0.6081(3) 0.7720(5)
H17 H 0.7131 0.5822 0.7531
C22 C 0.6814(5) 0.6546(3) 0.7271(5)
H18 H 0.7157 0.6597 0.6788
C23 C 0.6315(4) 0.6934(2) 0.7545(4)
C24 C 0.5813(4) 0.6855(3) 0.8258(5)
H19 H 0.5466 0.7112 0.8433
C25 C 0.5820(5) 0.6393(3) 0.8721(5)
H20 H 0.5498 0.6347 0.9226
C26 C 0.5310(4) 0.7537(2) 0.5821(5)
C27 C 0.4683(4) 0.7927(2) 0.5653(5)
H21 H 0.4755 0.8183 0.6136
C28_2 C 0.3952(4) 0.7932(2) 0.4762(5)
H22_2 H 0.3525 0.8191 0.4659
C29_2 C 0.3840(4) 0.7564(2) 0.4024(4)
C30_2 C 0.4447(4) 0.7168(2) 0.4206(5)
H23_2 H 0.4362 0.6911 0.3724
C31 C 0.5179(4) 0.7150(2) 0.5095(5)
H24 H 0.5584 0.6881 0.5211
C32_2 C 0.3073(4) 0.7600(3) 0.3039(5)
C33 C 0.7343(4) 0.7590(2) 0.6601(5)
C34 C 0.7450(4) 0.7520(3) 0.5627(5)
H25 H 0.6928 0.7478 0.5067
C35 C 0.8322(5) 0.7511(3) 0.5460(6)
H26_2 H 0.8382 0.7461 0.4788
C36 C 0.9093(4) 0.7573(2) 0.6257(5)
C37 C 0.9001(5) 0.7657(3) 0.7221(6)
H27 H 0.9527 0.7706 0.7773
C38 C 0.8131(5) 0.7671(3) 0.7391(5)
H28 H 0.8075 0.7736 0.8060
C42_2 C 0.2820(5) 0.8275(3) 0.0646(6)
H31_2 H 0.3256 0.8278 0.1292
C47_2 C 0.4769(5) 0.9468(3) 0.0796(6)
H34_2 H 0.5250 0.9517 0.1396
C48_2 C 0.4176(5) 0.9078(3) 0.0768(6)
H35_2 H 0.4259 0.8873 0.1349
O10 O 0.5494(3) 0.44173(16) 0.9114(3)
H43 H 0.6077 0.4455 0.9341
H44 H 0.5403 0.4573 0.8545
N11 N 0.2871(4) 0.5218(2) 0.7174(4)
N12 N 0.3994(4) 0.5243(2) 0.8641(4)
C63 C 0.0103(6) 0.3931(4) 0.3488(7)
H49 H 0.0300 0.3740 0.4088
C64 C 0.0418(6) 0.4417(4) 0.3482(7)
C65 C 0.0111(7) 0.4694(4) 0.2588(7)
H50_2 H 0.0308 0.5021 0.2583
C67 C 0.1067(6) 0.4635(4) 0.4427(7)
C68 C 0.1735(8) 0.4357(4) 0.5064(9)
H52 H 0.1798 0.4028 0.4888
C69 C 0.2329(8) 0.4542(4) 0.5965(8)
H53 H 0.2773 0.4336 0.6388
C70 C 0.2266(5) 0.5025(3) 0.6237(6)
C71 C 0.1639(6) 0.5317(3) 0.5581(6)
H54 H 0.1606 0.5652 0.5733
C72_2 C 0.1042(6) 0.5124(4) 0.4684(6)
H55_2 H 0.0614 0.5333 0.4246
C73 C 0.2863(5) 0.5683(3) 0.7579(5)
H56 H 0.2458 0.5940 0.7293
C74 C 0.3547(5) 0.5700(3) 0.8464(5)
H57 H 0.3701 0.5976 0.8895
C75 C 0.3558(5) 0.4969(3) 0.7833(5)
H58 H 0.3712 0.4642 0.7735
Co1_2 Co 0.5000 0.0000 0.5000
P1_2 P 0.37295(10) 0.25428(6) 0.80203(12)
O1_2 O 0.4064(4) 0.04895(17) 0.5302(4)
O2 O 0.5494(3) 0.05827(16) 0.4114(3)
H1 H 0.6077 0.0545 0.4341
H2 H 0.5403 0.0427 0.3545
O3_2 O 0.3507(4) 0.0128(2) 0.6535(4)
O4_2 O 0.3834(3) 0.29395(15) 0.7272(3)
C11 C 0.1735(8) 0.0643(4) 0.0064(9)
C12 C 0.2329(8) 0.0458(4) 0.0965(8)
H11 H 0.2773 0.0664 0.1388
C18 C 0.3558(5) 0.0031(3) 0.2833(5)
H16 H 0.3712 0.0358 0.2735
C19_2 C 0.3744(5) 0.0496(3) 0.6094(6)
C20_2 C 0.3701(4) 0.1000(2) 0.6560(4)
C21_2 C 0.3202(4) 0.1081(3) 0.7280(5)
H17_2 H 0.2869 0.0822 0.7469
C22_2 C 0.3186(5) 0.1546(3) 0.7729(5)
H18_2 H 0.2843 0.1597 0.8212
C23_2 C 0.3685(4) 0.1934(2) 0.7455(4)
C24_2 C 0.4187(4) 0.1855(3) 0.6742(5)
H19_2 H 0.4534 0.2112 0.6567
C25_2 C 0.4180(5) 0.1393(3) 0.6279(5)
H20_2 H 0.4502 0.1347 0.5774
C26_2 C 0.4690(4) 0.2537(2) 0.9179(5)
C27_2 C 0.5317(4) 0.2927(2) 0.9347(5)
H21_2 H 0.5245 0.3183 0.8864
C31_2 C 0.4821(4) 0.2150(2) 0.9905(5)
H24_2 H 0.4416 0.1881 0.9789
C33_2 C 0.2657(4) 0.2590(2) 0.8399(5)
C34_2 C 0.2550(4) 0.2520(3) 0.9373(5)
H25_2 H 0.3072 0.2478 0.9933
C35_2 C 0.1678(5) 0.2511(3) 0.9540(6)
C36_2 C 0.0907(4) 0.2573(2) 0.8743(5)
C37_2 C 0.0999(5) 0.2657(3) 0.7779(6)
H27_2 H 0.0473 0.2706 0.7227
C38_2 C 0.1869(5) 0.2671(3) 0.7609(5)
H28_2 H 0.1925 0.2736 0.6940
N11_2 N 0.7129(4) 0.0218(2) 0.7826(4)
N12_2 N 0.6006(4) 0.0243(2) 0.6359(4)
C70_2 C 0.7734(5) 0.0025(3) 0.8763(6)
C71_2 C 0.8361(6) 0.0317(3) 0.9419(6)
H54_2 H 0.8394 0.0652 0.9267
C73_2 C 0.7137(5) 0.0683(3) 0.7421(5)
H56_2 H 0.7542 0.0940 0.7707
C74_2 C 0.6453(5) 0.0700(3) 0.6536(5)
H57_2 H 0.6299 0.0976 0.6105
C6 C 0.0103(6) 0.1069(4) 0.8488(7)
H7 H 0.0300 0.1260 0.9088
C7 C 0.0418(6) 0.0583(4) 0.8482(7)
C8 C 0.0111(7) 0.0306(4) 0.7588(7)
C10 C 0.1067(6) 0.0365(4) 0.9427(7)
H10 H 0.1798 0.0972 0.9888
C63_2 C 0.9897(6) 0.8931(4) 0.1512(7)
H49_2 H 0.9700 0.8740 0.0912
C64_2 C 0.9582(6) 0.9417(4) 0.1518(7)
C65_2 C 0.9889(7) 0.9694(4) 0.2412(7)
C67_2 C 0.8933(6) 0.9635(4) 0.0573(7)
H52_2 H 0.8202 0.9028 0.0112
Co1_3 Co 0.5000 1.0000 0.5000
N3 N 0.2871(4) 0.9782(2) 0.2174(4)
N4 N 0.3994(4) 0.9757(2) 0.3641(4)
C13 C 0.2266(5) 0.9975(3) 0.1237(6)
C14 C 0.1639(6) 0.9683(3) 0.0581(6)
H12 H 0.1606 0.9348 0.0733
C16 C 0.2863(5) 0.9317(3) 0.2579(5)
H14 H 0.2458 0.9060 0.2293
C17 C 0.3547(5) 0.9300(3) 0.3464(5)
H15 H 0.3701 0.9024 0.3895
P2 P 0.62705(10) 0.74572(6) 0.19797(12)
O9 O 0.5936(4) 0.95105(17) 0.4698(4)
O10_2 O 0.4506(3) 0.94173(16) 0.5886(3)
H43_2 H 0.3923 0.9455 0.5659
H44_2 H 0.4597 0.9573 0.6455
O11 O 0.6493(4) 0.9872(2) 0.3465(4)
O12 O 0.6166(3) 0.70605(15) 0.2728(3)
C68_2 C 0.8265(8) 0.9357(4) 0.9936(9)
C69_2 C 0.7671(8) 0.9542(4) 0.9035(8)
H53_2 H 0.7227 0.9336 0.8612
C75_2 C 0.6442(5) 0.9969(3) 0.7167(5)
H58_2 H 0.6288 0.9642 0.7265
C76 C 0.6256(5) 0.9504(3) 0.3906(6)
C77 C 0.6299(4) 0.9000(2) 0.3440(4)
C78 C 0.6798(4) 0.8919(3) 0.2720(5)
H59 H 0.7131 0.9178 0.2531
C79 C 0.6814(5) 0.8454(3) 0.2271(5)
H60 H 0.7157 0.8403 0.1788
C80 C 0.6315(4) 0.8066(2) 0.2545(4)
C81 C 0.5813(4) 0.8145(3) 0.3258(5)
H61 H 0.5466 0.7888 0.3433
C82 C 0.5820(5) 0.8607(3) 0.3721(5)
H62 H 0.5498 0.8653 0.4226
C83 C 0.5310(4) 0.7463(2) 0.0821(5)
C84 C 0.4683(4) 0.7073(2) 0.0653(5)
H63 H 0.4755 0.6817 0.1136
C88 C 0.5179(4) 0.7850(2) 0.0095(5)
H66 H 0.5584 0.8119 0.0211
C90 C 0.7343(4) 0.7410(2) 0.1601(5)
C91 C 0.7450(4) 0.7480(3) 0.0627(5)
H67 H 0.6928 0.7522 0.0067
C92 C 0.8322(5) 0.7489(3) 0.0460(6)
C93 C 0.9093(4) 0.7427(2) 0.1257(5)
C94 C 0.9001(5) 0.7343(3) 0.2221(6)
H69 H 0.9527 0.7294 0.2773
C95 C 0.8131(5) 0.7329(3) 0.2391(5)
H70 H 0.8075 0.7264 0.3060
O6_2 O 0.9869(3) 0.2485(2) 0.9814(5)
O7 O 0.9259(3) 0.26056(19) 0.8146(4)
C39_2 C 0.9951(5) 0.2549(3) 0.8929(7)
Co8 Co 0.81548(5) 0.25924(3) 0.87120(6)
N7_2 N 0.7866(4) 0.2038(2) 0.9606(4)
C51_2 C 0.7180(5) 0.1725(3) 0.9354(6)
H38_2 H 0.6744 0.1722 0.8708
C56_2 C 0.5231(5) 0.0532(3) 0.9204(6)
H41_2 H 0.4750 0.0483 0.8604
C57_2 C 0.5824(5) 0.0922(3) 0.9232(6)
H42_2 H 0.5741 0.1127 0.8651
Co1_4 Co 0.5000 0.5000 0.0000
O2_2 O 0.4506(3) 0.55827(16) 0.0886(3)
H1_2 H 0.3923 0.5545 0.0659
H2_2 H 0.4597 0.5427 0.1455
N3_2 N 0.7129(4) 0.4782(2) 0.2826(4)
N4_2 N 0.6006(4) 0.4757(2) 0.1359(4)
C6_2 C 0.9897(6) 0.6069(4) 0.6512(7)
H7_2 H 0.9700 0.6260 0.5912
C7_2 C 0.9582(6) 0.5583(4) 0.6518(7)
C8_2 C 0.9889(7) 0.5306(4) 0.7412(7)
H8_2 H 0.9692 0.4979 0.7417
C10_2 C 0.8933(6) 0.5365(4) 0.5573(7)
C11_2 C 0.8265(8) 0.5643(4) 0.4936(9)
H10_2 H 0.8202 0.5972 0.5112
C12_2 C 0.7671(8) 0.5458(4) 0.4035(8)
H11_2 H 0.7227 0.5664 0.3612
C13_2 C 0.7734(5) 0.4975(3) 0.3763(6)
C14_2 C 0.8361(6) 0.4683(3) 0.4419(6)
H12_2 H 0.8394 0.4348 0.4267
C15_2 C 0.8958(6) 0.4876(4) 0.5316(6)
H13_2 H 0.9386 0.4667 0.5754
C16_2 C 0.7137(5) 0.4317(3) 0.2421(5)
H14_2 H 0.7542 0.4060 0.2707
C17_2 C 0.6453(5) 0.4300(3) 0.1536(5)
H15_2 H 0.6299 0.4024 0.1105
C18_2 C 0.6442(5) 0.5031(3) 0.2167(5)
H16_2 H 0.6288 0.5358 0.2265
P2_2 P 0.37295(10) 0.24572(6) 0.30203(12)
O9_2 O 0.4064(4) 0.45105(17) 0.0302(4)
O11_2 O 0.3507(4) 0.4872(2) 0.1535(4)
O12_2 O 0.3834(3) 0.20605(15) 0.2272(3)
O13_2 O 0.7426(3) 0.20245(19) 0.7150(3)
O16_2 O 0.7036(3) 0.27649(18) 0.7591(3)
C76_2 C 0.3744(5) 0.4504(3) 0.1094(6)
C77_2 C 0.3701(4) 0.4000(2) 0.1560(4)
C78_2 C 0.3202(4) 0.3919(3) 0.2280(5)
H59_2 H 0.2869 0.4178 0.2469
C79_2 C 0.3186(5) 0.3454(3) 0.2729(5)
H60_2 H 0.2843 0.3403 0.3212
C80_2 C 0.3685(4) 0.3066(2) 0.2455(4)
C81_2 C 0.4187(4) 0.3145(3) 0.1742(5)
H61_2 H 0.4534 0.2888 0.1567
C82_2 C 0.4180(5) 0.3607(3) 0.1279(5)
H62_2 H 0.4502 0.3653 0.0774
C83_2 C 0.4690(4) 0.2463(2) 0.4179(5)
C84_2 C 0.5317(4) 0.2073(2) 0.4347(5)
H63_2 H 0.5245 0.1817 0.3864
C85_2 C 0.6048(4) 0.2068(2) 0.5238(5)
H64_2 H 0.6475 0.1809 0.5341
C86_2 C 0.6160(4) 0.2436(2) 0.5976(4)
C87_2 C 0.5553(4) 0.2832(2) 0.5794(5)
H65_2 H 0.5638 0.3089 0.6276
C88_2 C 0.4821(4) 0.2850(2) 0.4905(5)
H66_2 H 0.4416 0.3119 0.4789
C89_2 C 0.6927(4) 0.2400(3) 0.6961(5)
C90_2 C 0.2657(4) 0.2410(2) 0.3399(5)
C91_2 C 0.2550(4) 0.2480(3) 0.4373(5)
H67_2 H 0.3072 0.2522 0.4933
C92_2 C 0.1678(5) 0.2489(3) 0.4540(6)
H68_2 H 0.1618 0.2539 0.5212
C93_2 C 0.0907(4) 0.2427(2) 0.3743(5)
C94_2 C 0.0999(5) 0.2343(3) 0.2779(6)
H69_2 H 0.0473 0.2294 0.2227
C95_2 C 0.1869(5) 0.2329(3) 0.2609(5)
H70_2 H 0.1925 0.2264 0.1940
N14 N 0.8204(3) 0.3231(2) 0.9539(4)
C59_2 C 0.7704(5) 0.3654(3) 0.9252(5)
H46_2 H 0.7237 0.3695 0.8635
C60_2 C 0.7987(5) 0.4005(3) 0.9997(5)
H47_2 H 0.7765 0.4327 0.9986
N2_2 N 0.1329(4) 0.6214(2) 0.9228(4)
C1_2 C 0.1225(5) 0.6674(3) 0.9533(6)
H3_2 H 0.0804 0.6902 0.9143
C4_2 C 0.0763(5) 0.5984(3) 0.8295(6)
C5_2 C 0.0504(6) 0.6270(3) 0.7400(7)
H6_2 H 0.0731 0.6590 0.7392
C9_2 C 0.0488(7) 0.5503(4) 0.8309(6)
H9_2 H 0.0696 0.5310 0.8906
N8_2 N 0.7168(4) 0.1405(2) 0.0125(4)
C49_2 C 0.8326(6) 0.1915(4) 0.0610(6)
H36_2 H 0.8851 0.2076 0.1011
C50_2 C 0.7913(6) 0.1532(4) 0.0929(6)
H37_2 H 0.8097 0.1378 0.1578
C52_2 C 0.6533(6) 0.1016(3) 0.0092(6)
C53_2 C 0.6648(8) 0.0711(4) 0.0934(7)
H39_2 H 0.7127 0.0767 0.1533
C54_2 C 0.6038(9) 0.0314(4) 0.0889(7)
H40_2 H 0.6123 0.0108 0.1468
C55_2 C 0.5317(5) 0.0213(3) 0.0024(6)
N6_2 N 0.2832(4) 0.8595(2) 0.9875(4)
C40_2 C 0.1674(6) 0.8085(4) 0.9390(6)
H29_2 H 0.1149 0.7924 0.8989
C41_2 C 0.2087(6) 0.8468(4) 0.9071(6)
H30_2 H 0.1903 0.8622 0.8422
C43_2 C 0.3467(6) 0.8984(3) 0.9908(6)
C44_2 C 0.3352(8) 0.9289(4) 0.9066(7)
H32_2 H 0.2873 0.9233 0.8467
C45_2 C 0.3962(9) 0.9686(4) 0.9111(7)
H33_2 H 0.3877 0.9892 0.8532
C46_2 C 0.4683(5) 0.9787(3) 0.9976(6)
N10_2 N 0.8671(4) 0.3786(2) 0.0772(4)
C58_2 C 0.8775(5) 0.3326(3) 0.0467(6)
H45_2 H 0.9196 0.3098 0.0857
C61_2 C 0.9237(5) 0.4016(3) 0.1705(6)
C62_2 C 0.9496(6) 0.3730(3) 0.2600(7)
H48_2 H 0.9269 0.3410 0.2608
C66_2 C 0.9512(7) 0.4497(4) 0.1691(6)
H51_2 H 0.9304 0.4690 0.1094
loop_
_geom_bond_atom_site_label_1
_geom_bond_atom_site_label_2
_geom_bond_site_symmetry_1
_geom_bond_site_symmetry_2
N9 C58 1_555 1_555
N10 C58 1_555 1_555
C58 H45 1_555 1_555
C59 N9 1_555 1_555
H46 C59 1_555 1_555
C60 N10 1_555 1_555
H47 C60 1_555 1_555
C61 N10 1_555 1_555
C62 C61 1_555 1_555
H48 C62 1_555 1_555
C66 C61 1_555 1_555
H51 C66 1_555 1_555
Co7 N9 1_555 1_555
C59 C60 1_555 1_555
Co2 O8 1_555 1_555
O5 C32 1_555 1_555
O8 C32 1_555 1_555
N5 Co2 1_555 1_555
N6 C41 1_555 1_555
H22 C28 1_555 1_555
C29 C28 1_555 1_555
C30 C29 1_555 1_555
H23 C30 1_555 1_555
C32 C29 1_555 1_555
C40 N5 1_555 1_555
H29 C40 1_555 1_555
C41 C40 1_555 1_555
H30 C41 1_555 1_555
C42 N5 1_555 1_555
H31 C42 1_555 1_555
C43 N6 1_555 1_555
C44 C43 1_555 1_555
H32 C44 1_555 1_555
C45 C44 1_555 1_555
H33 C45 1_555 1_555
C46 C45 1_555 1_555
C47 C46 1_555 1_555
H34 C47 1_555 1_555
C48 C43 1_555 1_555
H35 C48 1_555 1_555
N7 C49 1_555 1_555
N8 C50 1_555 1_555
C49 H36 1_555 1_555
C50 C49 1_555 1_555
H37 C50 1_555 1_555
C51 N7 1_555 1_555
H38 C51 1_555 1_555
C52 N8 1_555 1_555
C53 C52 1_555 1_555
H39 C53 1_555 1_555
C54 C53 1_555 1_555
H40 C54 1_555 1_555
C55 C46 1_555 1_555
C56 C55 1_555 1_555
H41 C56 1_555 1_555
C57 C52 1_555 1_555
H42 C57 1_555 1_555
H55 C72 1_555 1_555
Co7 N7 1_555 1_555
O18 Co2 1_555 1_555
N13 Co2 1_555 1_555
N6 C42 1_555 1_555
C47 C48 1_555 1_555
N8 C51 1_555 1_555
C54 C55 1_555 1_555
C56 C57 1_555 1_555
H13 C15 1_555 1_555
Co7 O16 1_555 1_555
O13 C89 1_555 1_555
O16 C89 1_555 1_555
H64 C85 1_555 1_555
C86 C85 1_555 1_555
C87 C86 1_555 1_555
H65 C87 1_555 1_555
C89 C86 1_555 1_555
O17 Co7 1_555 1_555
N13 C1 1_555 1_555
N2 C1 1_555 1_555
C1 H3 1_555 1_555
C2 N13 1_555 1_555
H4 C2 1_555 1_555
C3 N2 1_555 1_555
H5 C3 1_555 1_555
C4 N2 1_555 1_555
C5 C4 1_555 1_555
H6 C5 1_555 1_555
C9 C4 1_555 1_555
H9 C9 1_555 1_555
C2 C3 1_555 1_555
O6 C39 1_555 1_555
O17 C39 1_555 1_555
O14 C96 1_555 1_555
O18 C96 1_555 1_555
O14_2 C96_2 1_555 1_555
O15 C96_2 1_555 1_555
Co5 O15 1_555 1_555
C2_2 N1 1_555 1_555
H4_2 C2_2 1_555 1_555
H5_2 C3_2 1_555 1_555
Co5 N1 1_555 1_555
C2_2 C3_2 1_555 1_555
Co1 O1 1_555 1_555
Co5 O8_2 1_555 1_555
P1 O4 1_555 1_555
O1 C19 1_555 1_555
O3 C19 1_555 1_555
O5_2 C32_2 1_555 1_555
O8_2 C32_2 1_555 1_555
N5_2 Co5 1_555 1_555
C19 C20 1_555 1_555
C20 C21 1_555 1_555
C21 H17 1_555 1_555
C22 C21 1_555 1_555
H18 C22 1_555 1_555
C23 P1 1_555 1_555
C24 C23 1_555 1_555
H19 C24 1_555 1_555
C25 C20 1_555 1_555
H20 C25 1_555 1_555
C26 P1 1_555 1_555
C27 C26 1_555 1_555
H21 C27 1_555 1_555
C28_2 C27 1_555 1_555
H22_2 C28_2 1_555 1_555
C29_2 C28_2 1_555 1_555
C30_2 C29_2 1_555 1_555
H23_2 C30_2 1_555 1_555
C31 C26 1_555 1_555
H24 C31 1_555 1_555
C32_2 C29_2 1_555 1_555
C33 P1 1_555 1_555
C34 C33 1_555 1_555
H25 C34 1_555 1_555
C35 C34 1_555 1_555
H26_2 C35 1_555 1_555
C36 C35 1_555 1_555
C37 C36 1_555 1_555
H27 C37 1_555 1_555
C38 C33 1_555 1_555
H28 C38 1_555 1_555
C42_2 N5_2 1_555 1_555
H31_2 C42_2 1_555 1_555
H34_2 C47_2 1_555 1_555
H35_2 C48_2 1_555 1_555
O10 Co1 1_555 1_555
H43 O10 1_555 1_555
H44 O10 1_555 1_555
N11 C70 1_555 1_555
N12 Co1 1_555 1_555
H49 C63 1_555 1_555
C64 C63 1_555 1_555
C65 C64 1_555 1_555
H50_2 C65 1_555 1_555
C67 C64 1_555 1_555
C68 C67 1_555 1_555
H52 C68 1_555 1_555
C69 C68 1_555 1_555
H53 C69 1_555 1_555
C70 C69 1_555 1_555
C71 C70 1_555 1_555
H54 C71 1_555 1_555
C72_2 C67 1_555 1_555
H55_2 C72_2 1_555 1_555
C73 N11 1_555 1_555
H56 C73 1_555 1_555
C74 N12 1_555 1_555
H57 C74 1_555 1_555
C75 N11 1_555 1_555
H58 C75 1_555 1_555
C22 C23 1_555 1_555
C24 C25 1_555 1_555
C30_2 C31 1_555 1_555
C37 C38 1_555 1_555
C47_2 C48_2 1_555 1_555
N12 C75 1_555 1_555
C71 C72_2 1_555 1_555
C73 C74 1_555 1_555
Co1_2 O1_2 1_555 1_555
P1_2 O4_2 1_555 1_555
O1_2 C19_2 1_555 1_555
O2 Co1_2 1_555 1_555
H1 O2 1_555 1_555
H2 O2 1_555 1_555
O3_2 C19_2 1_555 1_555
C12 C11 1_555 1_555
H11 C12 1_555 1_555
H16 C18 1_555 1_555
C19_2 C20_2 1_555 1_555
C20_2 C21_2 1_555 1_555
C21_2 H17_2 1_555 1_555
C22_2 C21_2 1_555 1_555
H18_2 C22_2 1_555 1_555
C23_2 P1_2 1_555 1_555
C24_2 C23_2 1_555 1_555
H19_2 C24_2 1_555 1_555
C25_2 C20_2 1_555 1_555
H20_2 C25_2 1_555 1_555
C26_2 P1_2 1_555 1_555
C27_2 C26_2 1_555 1_555
H21_2 C27_2 1_555 1_555
C31_2 C26_2 1_555 1_555
H24_2 C31_2 1_555 1_555
C33_2 P1_2 1_555 1_555
C34_2 C33_2 1_555 1_555
H25_2 C34_2 1_555 1_555
C35_2 C34_2 1_555 1_555
C36_2 C35_2 1_555 1_555
C37_2 C36_2 1_555 1_555
H27_2 C37_2 1_555 1_555
C38_2 C33_2 1_555 1_555
H28_2 C38_2 1_555 1_555
N11_2 C70_2 1_555 1_555
N12_2 Co1_2 1_555 1_555
C71_2 C70_2 1_555 1_555
H54_2 C71_2 1_555 1_555
C73_2 N11_2 1_555 1_555
H56_2 C73_2 1_555 1_555
C74_2 N12_2 1_555 1_555
H57_2 C74_2 1_555 1_555
C22_2 C23_2 1_555 1_555
C24_2 C25_2 1_555 1_555
C37_2 C38_2 1_555 1_555
C73_2 C74_2 1_555 1_555
H7 C6 1_555 1_555
C7 C6 1_555 1_555
C8 C7 1_555 1_555
C10 C7 1_555 1_555
H49_2 C63_2 1_555 1_555
C64_2 C63_2 1_555 1_555
C65_2 C64_2 1_555 1_555
C67_2 C64_2 1_555 1_555
N3 C13 1_555 1_555
N4 Co1_3 1_555 1_555
C14 C13 1_555 1_555
H12 C14 1_555 1_555
C16 N3 1_555 1_555
H14 C16 1_555 1_555
C17 N4 1_555 1_555
H15 C17 1_555 1_555
P2 O12 1_555 1_555
O9 Co1_3 1_555 1_555
O10_2 Co1_3 1_555 1_555
H43_2 O10_2 1_555 1_555
H44_2 O10_2 1_555 1_555
O11 C76 1_555 1_555
C69_2 C68_2 1_555 1_555
H53_2 C69_2 1_555 1_555
H58_2 C75_2 1_555 1_555
C76 O9 1_555 1_555
C77 C76 1_555 1_555
C78 C77 1_555 1_555
H59 C78 1_555 1_555
C79 C78 1_555 1_555
H60 C79 1_555 1_555
C80 P2 1_555 1_555
C81 C80 1_555 1_555
H61 C81 1_555 1_555
C82 C77 1_555 1_555
H62 C82 1_555 1_555
C83 P2 1_555 1_555
C84 C83 1_555 1_555
H63 C84 1_555 1_555
C88 C83 1_555 1_555
H66 C88 1_555 1_555
C90 P2 1_555 1_555
C91 C90 1_555 1_555
H67 C91 1_555 1_555
C92 C91 1_555 1_555
C93 C92 1_555 1_555
C94 C93 1_555 1_555
H69 C94 1_555 1_555
C95 C90 1_555 1_555
H70 C95 1_555 1_555
C16 C17 1_555 1_555
C79 C80 1_555 1_555
C81 C82 1_555 1_555
C94 C95 1_555 1_555
O6_2 C39_2 1_555 1_555
O7 C39_2 1_555 1_555
Co8 O7 1_555 1_555
C51_2 N7_2 1_555 1_555
H38_2 C51_2 1_555 1_555
H41_2 C56_2 1_555 1_555
H42_2 C57_2 1_555 1_555
Co8 N7_2 1_555 1_555
C56_2 C57_2 1_555 1_555
O2_2 Co1_4 1_555 1_555
H1_2 O2_2 1_555 1_555
H2_2 O2_2 1_555 1_555
N3_2 C13_2 1_555 1_555
N4_2 Co1_4 1_555 1_555
H7_2 C6_2 1_555 1_555
C7_2 C6_2 1_555 1_555
C8_2 C7_2 1_555 1_555
H8_2 C8_2 1_555 1_555
C10_2 C7_2 1_555 1_555
C11_2 C10_2 1_555 1_555
H10_2 C11_2 1_555 1_555
C12_2 C11_2 1_555 1_555
H11_2 C12_2 1_555 1_555
C13_2 C12_2 1_555 1_555
C14_2 C13_2 1_555 1_555
H12_2 C14_2 1_555 1_555
C15_2 C10_2 1_555 1_555
H13_2 C15_2 1_555 1_555
C16_2 N3_2 1_555 1_555
H14_2 C16_2 1_555 1_555
C17_2 N4_2 1_555 1_555
H15_2 C17_2 1_555 1_555
C18_2 N3_2 1_555 1_555
H16_2 C18_2 1_555 1_555
Co8 O16_2 1_555 1_555
P2_2 O12_2 1_555 1_555
O9_2 Co1_4 1_555 1_555
O11_2 C76_2 1_555 1_555
O13_2 C89_2 1_555 1_555
O16_2 C89_2 1_555 1_555
C76_2 O9_2 1_555 1_555
C77_2 C76_2 1_555 1_555
C78_2 C77_2 1_555 1_555
H59_2 C78_2 1_555 1_555
C79_2 C78_2 1_555 1_555
H60_2 C79_2 1_555 1_555
C80_2 P2_2 1_555 1_555
C81_2 C80_2 1_555 1_555
H61_2 C81_2 1_555 1_555
C82_2 C77_2 1_555 1_555
H62_2 C82_2 1_555 1_555
C83_2 P2_2 1_555 1_555
C84_2 C83_2 1_555 1_555
H63_2 C84_2 1_555 1_555
C85_2 C84_2 1_555 1_555
H64_2 C85_2 1_555 1_555
C86_2 C85_2 1_555 1_555
C87_2 C86_2 1_555 1_555
H65_2 C87_2 1_555 1_555
C88_2 C83_2 1_555 1_555
H66_2 C88_2 1_555 1_555
C89_2 C86_2 1_555 1_555
C90_2 P2_2 1_555 1_555
C91_2 C90_2 1_555 1_555
H67_2 C91_2 1_555 1_555
C92_2 C91_2 1_555 1_555
H68_2 C92_2 1_555 1_555
C93_2 C92_2 1_555 1_555
C94_2 C93_2 1_555 1_555
H69_2 C94_2 1_555 1_555
C95_2 C90_2 1_555 1_555
H70_2 C95_2 1_555 1_555
N14 Co8 1_555 1_555
N4_2 C18_2 1_555 1_555
C14_2 C15_2 1_555 1_555
C16_2 C17_2 1_555 1_555
C79_2 C80_2 1_555 1_555
C81_2 C82_2 1_555 1_555
C87_2 C88_2 1_555 1_555
C94_2 C95_2 1_555 1_555
C59_2 N14 1_555 1_555
H46_2 C59_2 1_555 1_555
H47_2 C60_2 1_555 1_555
C59_2 C60_2 1_555 1_555
N2_2 C1_2 1_555 1_555
C1_2 H3_2 1_555 1_555
C4_2 N2_2 1_555 1_555
C5_2 C4_2 1_555 1_555
H6_2 C5_2 1_555 1_555
C9_2 C4_2 1_555 1_555
H9_2 C9_2 1_555 1_555
N8_2 C50_2 1_555 1_555
C49_2 H36_2 1_555 1_555
C50_2 C49_2 1_555 1_555
H37_2 C50_2 1_555 1_555
C52_2 N8_2 1_555 1_555
C53_2 C52_2 1_555 1_555
H39_2 C53_2 1_555 1_555
C54_2 C53_2 1_555 1_555
H40_2 C54_2 1_555 1_555
C54_2 C55_2 1_555 1_555
N6_2 C41_2 1_555 1_555
H29_2 C40_2 1_555 1_555
C41_2 C40_2 1_555 1_555
H30_2 C41_2 1_555 1_555
C43_2 N6_2 1_555 1_555
C44_2 C43_2 1_555 1_555
H32_2 C44_2 1_555 1_555
C45_2 C44_2 1_555 1_555
H33_2 C45_2 1_555 1_555
C46_2 C45_2 1_555 1_555
N10_2 C58_2 1_555 1_555
C58_2 H45_2 1_555 1_555
C61_2 N10_2 1_555 1_555
C62_2 C61_2 1_555 1_555
H48_2 C62_2 1_555 1_555
C66_2 C61_2 1_555 1_555
H51_2 C66_2 1_555 1_555

#END
