
###############################################################################
#
# This file contains modified crystal structure data generated from the
# MOF subset of the Cambridge Structural Database (CSD) v543 
# hosted by the Cambridge Crystallographic Data Centre (CCDC).
#
# This work is licensed under the Creative Commons
# Attribution-NonCommercial-ShareAlike 4.0 International License.
# To view a copy of this license, visit
# http://creativecommons.org/licenses/by-nc-sa/4.0/
# or send a letter to
# Creative Commons, PO Box 1866, Mountain View, CA 94042, USA.
#
# CIF created using the CSD Python API on 29 September 2022
# The structure has been converted into the P1 space group
# The structure has a 3D framework
# The original CSD entry CEVJEV is in the monoclinic crystal system
# The framework has been calculated to contain at least 10.0% void space
# The void calculation uses a probe of radius 1.32A, grid spacing 0.4
# The framework is charged, counterions have been retained in the structure
#
###############################################################################

data_CEVJEV
_chemical_formula_moiety         '(C156 H96 Co4 K4 N4 O24 2-)n'
_symmetry_cell_setting           triclinic
_symmetry_space_group_name_H-M   'P 1'
_symmetry_Int_Tables_number      1
_space_group_name_Hall           'P 1'
loop_
_symmetry_equiv_pos_site_id
_symmetry_equiv_pos_as_xyz
1 x,y,z
_cell_length_a                   7.6449(2)
_cell_length_b                   27.8028(10)
_cell_length_c                   21.4651(7)
_cell_angle_alpha                90
_cell_angle_beta                 97.717(3)
_cell_angle_gamma                90
_cell_volume                     4521.08
loop_
_atom_site_label
_atom_site_type_symbol
_atom_site_fract_x
_atom_site_fract_y
_atom_site_fract_z
K5 K 0.5000 0.0000 0.5000
Co4 Co 0.08251(5) 0.43684(2) 0.03474(2)
O2 O 0.0589(4) 0.42388(12) 0.13286(14)
O16 O 0.3377(3) 0.41765(9) 0.01253(12)
O18 O 0.1580(3) 0.36064(9) 0.02930(13)
O22 O 0.1875(3) 0.50234(8) 0.05855(10)
C40 C 0.1628(4) 0.73169(12) 0.51231(15)
C43 C 0.3013(4) 0.76849(12) 0.50898(16)
C47 C 0.1500(4) 0.69205(13) 0.47341(17)
H25 H 0.2327 0.6879 0.4458
C52 C 0.5967(5) 0.78946(14) 0.49231(19)
H27 H 0.7089 0.7797 0.4855
C54 C 0.5594(4) 0.83767(12) 0.49370(15)
C58 C 0.2621(4) 0.81714(13) 0.51059(16)
H31 H 0.1494 0.8270 0.5167
C61 C 0.0398(5) 0.73579(13) 0.55348(17)
H34 H 0.0464 0.7617 0.5811
C63 C 0.3904(4) 0.85135(13) 0.50306(16)
H35 H 0.3625 0.8839 0.5043
C65 C 0.0184(5) 0.65847(14) 0.47426(16)
H37 H 0.0144 0.6320 0.4477
C67 C 0.6949(4) 0.87391(12) 0.48349(15)
C76 C 0.4717(5) 0.75520(13) 0.50071(19)
H46 H 0.5019 0.7228 0.5008
O9 O 0.6623(3) 0.91765(9) 0.48747(12)
O10 O 0.8420(3) 0.86064(9) 0.47070(13)
Co5 Co 0.91749(5) 0.93684(2) 0.46526(2)
K5_2 K 0.5000 1.0000 0.5000
K3 K 0.5000 0.5000 -0.0000
N1 N 0.2496(4) 0.36913(12) 0.49013(12)
C2 C 0.8555(4) 0.45901(12) 0.91936(14)
C3 C 0.7615(4) 0.44433(12) 0.85564(14)
C5 C 0.3351(4) 0.37924(13) 0.43657(14)
C6 C 0.5994(4) 0.40963(14) 0.27659(15)
C7 C 0.5968(4) 0.41921(13) 0.73519(14)
C9 C 0.5086(4) 0.40627(13) 0.67085(15)
C10 C 0.3385(4) 0.38104(13) 0.55068(14)
C11 C 0.6714(5) 0.38541(14) 0.77718(15)
H2 H 0.6649 0.3532 0.7655
C12 C 0.1077(4) 0.33636(13) 0.48594(14)
C14 C 0.0937(5) 0.29792(14) 0.44541(16)
H4 H 0.1744 0.2944 0.4169
C16 C 0.6845(5) 0.47860(13) 0.81464(16)
H5 H 0.6882 0.5106 0.8272
C17 C 0.5211(5) 0.40537(14) 0.21556(16)
H6 H 0.4030 0.3963 0.2075
C18 C 0.5059(4) 0.39924(13) 0.33128(15)
C20 C 0.5156(5) 0.37691(15) 0.44033(16)
H8 H 0.5826 0.3686 0.4782
C21 C 0.4481(5) 0.35970(14) 0.65720(15)
H9 H 0.4640 0.3362 0.6883
C23 C 0.7900(5) 0.42689(14) 0.17577(17)
C25 C 0.6023(5) 0.46701(13) 0.75574(16)
H12 H 0.5500 0.4910 0.7294
C27 C 0.3645(5) 0.34789(13) 0.59787(16)
H14 H 0.3252 0.3165 0.5900
C29 C 0.7716(6) 0.4265(2) 0.28605(19)
H15 H 0.8248 0.4331 0.3267
C30 C 0.5970(5) 0.38659(16) 0.38949(17)
H16 H 0.7194 0.3847 0.3937
C31 C 0.7549(5) 0.39719(13) 0.83558(15)
H17 H 0.8076 0.3732 0.8619
C32 C 0.3252(5) 0.40095(16) 0.32826(16)
H18 H 0.2579 0.4091 0.2904
C33 C 0.2412(5) 0.39106(15) 0.37924(16)
H19 H 0.1186 0.3923 0.3751
C34 C 0.8978(6) 0.43278(14) 0.12213(18)
C35 C 0.6133(5) 0.41414(15) 0.16578(16)
H20 H 0.5560 0.4115 0.1249
C36 C 0.8666(5) 0.43367(17) 0.23583(19)
H21 H 0.9840 0.4433 0.2436
C38 C 0.4810(6) 0.43911(15) 0.62287(18)
H23 H 0.5187 0.4707 0.6301
C39 C 0.3983(6) 0.42632(16) 0.56383(18)
H24 H 0.3832 0.4495 0.5323
O1 O 0.8270(4) 0.44563(11) 0.07081(12)
O5 O 0.8125(3) 0.49766(8) 0.94145(10)
O6 O 0.9675(3) 0.43065(9) 0.94530(11)
Co7 Co 0.91749(5) 0.56316(2) 0.96526(2)
O24 O 0.0325(3) 0.56935(9) 0.05470(11)
K3_2 K 0.5000 0.5000 1.0000
N2 N 0.7504(4) 0.63087(12) 0.50987(12)
C41 C 0.1445(4) 0.54099(12) 0.08064(14)
C42 C 0.2385(4) 0.55567(12) 0.14436(14)
C44 C 0.6649(4) 0.62076(13) 0.56343(14)
C45 C 0.4006(4) 0.59037(14) 0.72341(15)
C46 C 0.4032(4) 0.58079(13) 0.26481(14)
C48 C 0.4914(4) 0.59373(13) 0.32915(15)
C49 C 0.6615(4) 0.61896(13) 0.44932(14)
C50 C 0.3286(5) 0.61459(14) 0.22282(15)
H26 H 0.3351 0.6468 0.2345
C51 C 0.8923(4) 0.66364(13) 0.51406(14)
C53 C 0.9063(5) 0.70208(14) 0.55459(16)
H28 H 0.8256 0.7056 0.5831
C55 C 0.3155(5) 0.52140(13) 0.18536(16)
H29 H 0.3118 0.4894 0.1728
C56 C 0.4789(5) 0.59463(14) 0.78444(16)
H30 H 0.5970 0.6037 0.7925
C57 C 0.4941(4) 0.60076(13) 0.66872(15)
C59 C 0.4844(5) 0.62309(15) 0.55967(16)
H32 H 0.4174 0.6314 0.5218
C60 C 0.5519(5) 0.64030(14) 0.34280(15)
H33 H 0.5360 0.6638 0.3117
C62 C 0.2100(5) 0.57311(14) 0.82423(17)
C64 C 0.3977(5) 0.53299(13) 0.24426(16)
H36 H 0.4500 0.5090 0.2706
C66 C 0.6355(5) 0.65211(13) 0.40213(16)
H38 H 0.6748 0.6835 0.4100
C68 C 0.2284(6) 0.5735(2) 0.71395(19)
H39 H 0.1752 0.5669 0.6733
C69 C 0.4030(5) 0.61341(16) 0.61051(17)
H40 H 0.2806 0.6153 0.6063
C70 C 0.2451(5) 0.60281(13) 0.16442(15)
H41 H 0.1924 0.6268 0.1381
C71 C 0.6748(5) 0.59905(16) 0.67174(16)
H42 H 0.7421 0.5909 0.7096
C72 C 0.7588(5) 0.60894(15) 0.62076(16)
H43 H 0.8814 0.6077 0.6249
C73 C 0.1022(6) 0.56722(14) 0.87787(18)
C74 C 0.3867(5) 0.58586(15) 0.83422(16)
H44 H 0.4440 0.5885 0.8751
C75 C 0.1334(5) 0.56633(17) 0.76417(19)
H45 H 0.0160 0.5567 0.7564
C77 C 0.5190(6) 0.56089(15) 0.37713(18)
H47 H 0.4813 0.5293 0.3699
C78 C 0.6017(6) 0.57368(16) 0.43617(18)
H48 H 0.6168 0.5505 0.4677
O7 O 0.1730(4) 0.55437(11) 0.92919(12)
O14 O 0.6623(3) 0.58235(9) 0.98747(12)
C1 C 0.8372(4) 0.26831(12) 0.48769(15)
C4 C 0.6987(4) 0.23151(12) 0.49102(16)
C8 C 0.8500(4) 0.30795(13) 0.52659(17)
H1 H 0.7673 0.3121 0.5542
C13 C 0.4033(5) 0.21054(14) 0.50769(19)
H3 H 0.2911 0.2203 0.5145
C15 C 0.4406(4) 0.16233(12) 0.50630(15)
C19 C 0.7379(4) 0.18286(13) 0.48941(16)
H7 H 0.8506 0.1730 0.4833
C22 C 0.9602(5) 0.26421(13) 0.44652(17)
H10 H 0.9536 0.2383 0.4189
C24 C 0.6096(4) 0.14865(13) 0.49694(16)
H11 H 0.6375 0.1161 0.4957
C26 C 0.9816(5) 0.34153(14) 0.52574(16)
H13 H 0.9856 0.3680 0.5523
C28 C 0.3051(4) 0.12609(12) 0.51651(15)
C37 C 0.5283(5) 0.24480(13) 0.49929(19)
H22 H 0.4981 0.2772 0.4992
O3 O 0.3377(3) 0.08235(9) 0.51253(12)
O4 O 0.1580(3) 0.13936(9) 0.52930(13)
Co8 Co 0.08251(5) 0.06316(2) 0.53474(2)
O8 O 0.9411(4) 0.57612(12) 0.86714(14)
O17 O 0.8420(3) 0.63936(9) 0.97070(13)
O8_2 O 0.0589(4) 0.07612(12) 0.63286(14)
C1_2 C 0.1628(4) 0.76831(12) 0.01231(15)
C4_2 C 0.3013(4) 0.73151(12) 0.00898(16)
C19_2 C 0.2621(4) 0.68286(13) 0.01059(16)
H7_2 H 0.1494 0.6730 0.0167
C22_2 C 0.0398(5) 0.76421(13) 0.05348(17)
H10_2 H 0.0464 0.7383 0.0811
C24_2 C 0.3904(4) 0.64865(13) 0.00306(16)
H11_2 H 0.3625 0.6161 0.0043
C37_2 C 0.4717(5) 0.74480(13) 0.00071(19)
H22_2 H 0.5019 0.7772 0.0008
O19 O 0.1875(3) 0.99766(8) 0.55855(10)
C8_2 C 0.1500(4) 0.80795(13) 0.97341(17)
H1_2 H 0.2327 0.8121 0.9458
C13_2 C 0.5967(5) 0.71054(14) 0.99231(19)
H3_2 H 0.7089 0.7203 0.9855
C15_2 C 0.5594(4) 0.66233(12) 0.99370(15)
C26_2 C 0.0184(5) 0.84153(14) 0.97426(16)
H13_2 H 0.0144 0.8680 0.9477
C28_2 C 0.6949(4) 0.62609(12) 0.98349(15)
C41_2 C 0.8555(4) 0.04099(12) 0.41936(14)
C42_2 C 0.7615(4) 0.05567(12) 0.35564(14)
C46_2 C 0.5968(4) 0.08079(13) 0.23519(14)
C48_2 C 0.5086(4) 0.09373(13) 0.17085(15)
C49_2 C 0.3385(4) 0.11896(13) 0.05068(14)
C50_2 C 0.6714(5) 0.11459(14) 0.27718(15)
H26_2 H 0.6649 0.1468 0.2655
C55_2 C 0.6845(5) 0.02140(13) 0.31464(16)
C60_2 C 0.4481(5) 0.14030(14) 0.15720(15)
H33_2 H 0.4640 0.1638 0.1883
C64_2 C 0.6023(5) 0.03299(13) 0.25574(16)
H36_2 H 0.5500 0.0090 0.2294
C66_2 C 0.3645(5) 0.15211(13) 0.09787(16)
H38_2 H 0.3252 0.1835 0.0900
C70_2 C 0.7549(5) 0.10281(13) 0.33558(15)
H41_2 H 0.8076 0.1268 0.3619
C77_2 C 0.4810(6) 0.06089(15) 0.12287(18)
H47_2 H 0.5187 0.0293 0.1301
C78_2 C 0.3983(6) 0.07368(16) 0.06383(18)
H48_2 H 0.3832 0.0505 0.0323
O11 O 0.8125(3) 0.00234(8) 0.44145(10)
O12 O 0.9675(3) 0.06935(9) 0.44530(11)
N2_2 N 0.2496(4) 0.13087(12) 0.99013(12)
C44_2 C 0.3351(4) 0.12076(13) 0.93657(14)
C45_2 C 0.5994(4) 0.09037(14) 0.77659(15)
C51_2 C 0.1077(4) 0.16364(13) 0.98594(14)
C53_2 C 0.0937(5) 0.20208(14) 0.94541(16)
H28_2 H 0.1744 0.2056 0.9169
C56_2 C 0.5211(5) 0.09463(14) 0.71556(16)
H30_2 H 0.4030 0.1037 0.7075
C57_2 C 0.5059(4) 0.10076(13) 0.83128(15)
C59_2 C 0.5156(5) 0.12309(15) 0.94033(16)
H32_2 H 0.5826 0.1314 0.9782
C62_2 C 0.7900(5) 0.07311(14) 0.67577(17)
C68_2 C 0.7716(6) 0.0735(2) 0.78605(19)
H39_2 H 0.8248 0.0669 0.8267
C69_2 C 0.5970(5) 0.11341(16) 0.88949(17)
H40_2 H 0.7194 0.1153 0.8937
C71_2 C 0.3252(5) 0.09905(16) 0.82826(16)
H42_2 H 0.2579 0.0909 0.7904
C72_2 C 0.2412(5) 0.10894(15) 0.87924(16)
H43_2 H 0.1186 0.1077 0.8751
C73_2 C 0.8978(6) 0.06722(14) 0.62213(18)
C74_2 C 0.6133(5) 0.08586(15) 0.66578(16)
H44_2 H 0.5560 0.0885 0.6249
C75_2 C 0.8666(5) 0.06633(17) 0.73583(19)
H45_2 H 0.9840 0.0567 0.7436
O7_2 O 0.8270(4) 0.05437(11) 0.57081(12)
H5_2 H 0.3118 0.0106 0.6728
H29_2 H 0.6882 0.9894 0.3272
N1_2 N 0.7504(4) 0.86913(12) 0.00987(12)
C5_2 C 0.6649(4) 0.87924(13) 0.06343(14)
C6_2 C 0.4006(4) 0.90963(14) 0.22341(15)
C12_2 C 0.8923(4) 0.83636(13) 0.01406(14)
C14_2 C 0.9063(5) 0.79792(14) 0.05459(16)
H4_2 H 0.8256 0.7944 0.0831
C17_2 C 0.4789(5) 0.90537(14) 0.28444(16)
H6_2 H 0.5970 0.8963 0.2925
C18_2 C 0.4941(4) 0.89924(13) 0.16872(15)
C20_2 C 0.4844(5) 0.87691(15) 0.05967(16)
H8_2 H 0.4174 0.8686 0.0218
C23_2 C 0.2100(5) 0.92689(14) 0.32423(17)
C29_2 C 0.2284(6) 0.9265(2) 0.21395(19)
H15_2 H 0.1752 0.9331 0.1733
C30_2 C 0.4030(5) 0.88659(16) 0.11051(17)
H16_2 H 0.2806 0.8847 0.1063
C32_2 C 0.6748(5) 0.90095(16) 0.17174(16)
H18_2 H 0.7421 0.9091 0.2096
C33_2 C 0.7588(5) 0.89106(15) 0.12076(16)
H19_2 H 0.8814 0.8923 0.1249
C34_2 C 0.1022(6) 0.93278(14) 0.37787(18)
C35_2 C 0.3867(5) 0.91414(15) 0.33422(16)
H20_2 H 0.4440 0.9115 0.3751
C36_2 C 0.1334(5) 0.93367(17) 0.26417(19)
H21_2 H 0.0160 0.9433 0.2564
O1_2 O 0.1730(4) 0.94563(11) 0.42919(12)
O23 O 0.0325(3) 0.93065(9) 0.55470(11)
C2_2 C 0.1445(4) 0.95901(12) 0.58064(14)
C3_2 C 0.2385(4) 0.94433(12) 0.64436(14)
C7_2 C 0.4032(4) 0.91921(13) 0.76481(14)
C9_2 C 0.4914(4) 0.90627(13) 0.82915(15)
C10_2 C 0.6615(4) 0.88104(13) 0.94932(14)
C11_2 C 0.3286(5) 0.88541(14) 0.72282(15)
H2_2 H 0.3351 0.8532 0.7345
C16_2 C 0.3155(5) 0.97860(13) 0.68536(16)
C21_2 C 0.5519(5) 0.85970(14) 0.84280(15)
H9_2 H 0.5360 0.8362 0.8117
C25_2 C 0.3977(5) 0.96701(13) 0.74426(16)
H12_2 H 0.4500 0.9910 0.7706
C27_2 C 0.6355(5) 0.84789(13) 0.90213(16)
H14_2 H 0.6748 0.8165 0.9100
C31_2 C 0.2451(5) 0.89719(13) 0.66442(15)
H17_2 H 0.1924 0.8732 0.6381
C38_2 C 0.5190(6) 0.93911(15) 0.87713(18)
H23_2 H 0.4813 0.9707 0.8699
C39_2 C 0.6017(6) 0.92632(16) 0.93617(18)
H24_2 H 0.6168 0.9495 0.9677
C47_2 C 0.8500(4) 0.19205(13) 0.02659(17)
H25_2 H 0.7673 0.1879 0.0542
C52_2 C 0.4033(5) 0.28946(14) 0.00769(19)
H27_2 H 0.2911 0.2797 0.0145
C54_2 C 0.4406(4) 0.33767(12) 0.00630(15)
C65_2 C 0.9816(5) 0.15847(14) 0.02574(16)
H37_2 H 0.9856 0.1320 0.0523
C67_2 C 0.3051(4) 0.37391(12) 0.01651(15)
C40_2 C 0.8372(4) 0.23169(12) 0.98769(15)
C43_2 C 0.6987(4) 0.26849(12) 0.99102(16)
C58_2 C 0.7379(4) 0.31714(13) 0.98941(16)
H31_2 H 0.8506 0.3270 0.9833
C61_2 C 0.9602(5) 0.23579(13) 0.94652(17)
H34_2 H 0.9536 0.2617 0.9189
C63_2 C 0.6096(4) 0.35135(13) 0.99694(16)
H35_2 H 0.6375 0.3839 0.9957
C76_2 C 0.5283(5) 0.25520(13) 0.99929(19)
H46_2 H 0.4981 0.2228 0.9992
O2_2 O 0.9411(4) 0.92388(12) 0.36714(14)
loop_
_geom_bond_atom_site_label_1
_geom_bond_atom_site_label_2
_geom_bond_site_symmetry_1
_geom_bond_site_symmetry_2
O2 Co4 1_555 1_555
O16 Co4 1_555 1_555
O18 Co4 1_555 1_555
O22 Co4 1_555 1_555
C40 C43 1_555 1_555
C43 C58 1_555 1_555
C47 C40 1_555 1_555
H25 C47 1_555 1_555
C52 H27 1_555 1_555
C54 C52 1_555 1_555
C58 H31 1_555 1_555
C61 C40 1_555 1_555
H34 C61 1_555 1_555
C63 C54 1_555 1_555
H35 C63 1_555 1_555
C65 C47 1_555 1_555
H37 C65 1_555 1_555
C67 C54 1_555 1_555
C76 C43 1_555 1_555
H46 C76 1_555 1_555
O9 C67 1_555 1_555
O10 C67 1_555 1_555
Co5 O9 1_555 1_555
K5_2 O9 1_555 1_555
C52 C76 1_555 1_555
C58 C63 1_555 1_555
O10 Co5 1_555 1_555
N1 C5 1_555 1_555
C2 C3 1_555 1_555
C3 C16 1_555 1_555
C5 C20 1_555 1_555
C6 C17 1_555 1_555
C7 C9 1_555 1_555
C9 C21 1_555 1_555
C10 N1 1_555 1_555
C11 C7 1_555 1_555
H2 C11 1_555 1_555
C12 N1 1_555 1_555
C14 C12 1_555 1_555
H4 C14 1_555 1_555
C16 H5 1_555 1_555
C17 H6 1_555 1_555
C18 C6 1_555 1_555
C20 H8 1_555 1_555
C21 H9 1_555 1_555
C23 C34 1_555 1_555
C25 C7 1_555 1_555
H12 C25 1_555 1_555
C27 C10 1_555 1_555
H14 C27 1_555 1_555
C29 C6 1_555 1_555
H15 C29 1_555 1_555
C30 C18 1_555 1_555
H16 C30 1_555 1_555
C31 C3 1_555 1_555
H17 C31 1_555 1_555
C32 C18 1_555 1_555
H18 C32 1_555 1_555
C33 C5 1_555 1_555
H19 C33 1_555 1_555
C34 O1 1_555 1_555
C35 C17 1_555 1_555
H20 C35 1_555 1_555
C36 C23 1_555 1_555
H21 C36 1_555 1_555
C38 C9 1_555 1_555
H23 C38 1_555 1_555
C39 C10 1_555 1_555
H24 C39 1_555 1_555
O1 K3 1_555 1_555
O5 C2 1_555 1_555
O6 C2 1_555 1_555
Co7 O5 1_555 1_555
O16 K3 1_555 1_555
O22 K3 1_555 1_555
K3_2 O5 1_555 1_555
C11 C31 1_555 1_555
C16 C25 1_555 1_555
C20 C30 1_555 1_555
C21 C27 1_555 1_555
C23 C35 1_555 1_555
C29 C36 1_555 1_555
C32 C33 1_555 1_555
C38 C39 1_555 1_555
K3_2 O7 1_555 1_555
N2 C44 1_555 1_555
C41 C42 1_555 1_555
C42 C55 1_555 1_555
C44 C59 1_555 1_555
C45 C56 1_555 1_555
C46 C48 1_555 1_555
C48 C60 1_555 1_555
C49 N2 1_555 1_555
C50 C46 1_555 1_555
H26 C50 1_555 1_555
C51 N2 1_555 1_555
C53 C51 1_555 1_555
H28 C53 1_555 1_555
C55 H29 1_555 1_555
C56 H30 1_555 1_555
C57 C45 1_555 1_555
C59 H32 1_555 1_555
C60 H33 1_555 1_555
C62 C73 1_555 1_555
C64 C46 1_555 1_555
H36 C64 1_555 1_555
C66 C49 1_555 1_555
H38 C66 1_555 1_555
C68 C45 1_555 1_555
H39 C68 1_555 1_555
C69 C57 1_555 1_555
H40 C69 1_555 1_555
C70 C42 1_555 1_555
H41 C70 1_555 1_555
C71 C57 1_555 1_555
H42 C71 1_555 1_555
C72 C44 1_555 1_555
H43 C72 1_555 1_555
C73 O7 1_555 1_555
C74 C56 1_555 1_555
H44 C74 1_555 1_555
C75 C62 1_555 1_555
H45 C75 1_555 1_555
C77 C48 1_555 1_555
H47 C77 1_555 1_555
C78 C49 1_555 1_555
H48 C78 1_555 1_555
O22 C41 1_555 1_555
O24 C41 1_555 1_555
O14 K3_2 1_555 1_555
C50 C70 1_555 1_555
C55 C64 1_555 1_555
C59 C69 1_555 1_555
C60 C66 1_555 1_555
C62 C74 1_555 1_555
C68 C75 1_555 1_555
C71 C72 1_555 1_555
C77 C78 1_555 1_555
C1 C4 1_555 1_555
C4 C19 1_555 1_555
C8 C1 1_555 1_555
H1 C8 1_555 1_555
C13 H3 1_555 1_555
C15 C13 1_555 1_555
C19 H7 1_555 1_555
C22 C1 1_555 1_555
H10 C22 1_555 1_555
C24 C15 1_555 1_555
H11 C24 1_555 1_555
C26 C8 1_555 1_555
H13 C26 1_555 1_555
C28 C15 1_555 1_555
C37 C4 1_555 1_555
H22 C37 1_555 1_555
O3 C28 1_555 1_555
O4 C28 1_555 1_555
Co8 O3 1_555 1_555
K5 O3 1_555 1_555
C13 C37 1_555 1_555
C19 C24 1_555 1_555
O4 Co8 1_555 1_555
O8 Co7 1_555 1_555
O14 Co7 1_555 1_555
O17 Co7 1_555 1_555
O8_2 Co8 1_555 1_555
C1_2 C4_2 1_555 1_555
C4_2 C19_2 1_555 1_555
C19_2 H7_2 1_555 1_555
C22_2 C1_2 1_555 1_555
H10_2 C22_2 1_555 1_555
H11_2 C24_2 1_555 1_555
C37_2 C4_2 1_555 1_555
H22_2 C37_2 1_555 1_555
C19_2 C24_2 1_555 1_555
H1_2 C8_2 1_555 1_555
C13_2 H3_2 1_555 1_555
C15_2 C13_2 1_555 1_555
C26_2 C8_2 1_555 1_555
H13_2 C26_2 1_555 1_555
C28_2 C15_2 1_555 1_555
O14 C28_2 1_555 1_555
O17 C28_2 1_555 1_555
C41_2 C42_2 1_555 1_555
C42_2 C55_2 1_555 1_555
C46_2 C48_2 1_555 1_555
C48_2 C60_2 1_555 1_555
C50_2 C46_2 1_555 1_555
H26_2 C50_2 1_555 1_555
C60_2 H33_2 1_555 1_555
C64_2 C46_2 1_555 1_555
H36_2 C64_2 1_555 1_555
C66_2 C49_2 1_555 1_555
H38_2 C66_2 1_555 1_555
C70_2 C42_2 1_555 1_555
H41_2 C70_2 1_555 1_555
C77_2 C48_2 1_555 1_555
H47_2 C77_2 1_555 1_555
C78_2 C49_2 1_555 1_555
H48_2 C78_2 1_555 1_555
O11 C41_2 1_555 1_555
O12 C41_2 1_555 1_555
K5 O11 1_555 1_555
C50_2 C70_2 1_555 1_555
C55_2 C64_2 1_555 1_555
C60_2 C66_2 1_555 1_555
C77_2 C78_2 1_555 1_555
K5 O7_2 1_555 1_555
N2_2 C44_2 1_555 1_555
C44_2 C59_2 1_555 1_555
C45_2 C56_2 1_555 1_555
C51_2 N2_2 1_555 1_555
C53_2 C51_2 1_555 1_555
H28_2 C53_2 1_555 1_555
C56_2 H30_2 1_555 1_555
C57_2 C45_2 1_555 1_555
C59_2 H32_2 1_555 1_555
C62_2 C73_2 1_555 1_555
C68_2 C45_2 1_555 1_555
H39_2 C68_2 1_555 1_555
C69_2 C57_2 1_555 1_555
H40_2 C69_2 1_555 1_555
C71_2 C57_2 1_555 1_555
H42_2 C71_2 1_555 1_555
C72_2 C44_2 1_555 1_555
H43_2 C72_2 1_555 1_555
C73_2 O7_2 1_555 1_555
C74_2 C56_2 1_555 1_555
H44_2 C74_2 1_555 1_555
C75_2 C62_2 1_555 1_555
H45_2 C75_2 1_555 1_555
C59_2 C69_2 1_555 1_555
C62_2 C74_2 1_555 1_555
C68_2 C75_2 1_555 1_555
C71_2 C72_2 1_555 1_555
N1_2 C5_2 1_555 1_555
C5_2 C20_2 1_555 1_555
C6_2 C17_2 1_555 1_555
C12_2 N1_2 1_555 1_555
C14_2 C12_2 1_555 1_555
H4_2 C14_2 1_555 1_555
C17_2 H6_2 1_555 1_555
C18_2 C6_2 1_555 1_555
C20_2 H8_2 1_555 1_555
C23_2 C34_2 1_555 1_555
C29_2 C6_2 1_555 1_555
H15_2 C29_2 1_555 1_555
C30_2 C18_2 1_555 1_555
H16_2 C30_2 1_555 1_555
C32_2 C18_2 1_555 1_555
H18_2 C32_2 1_555 1_555
C33_2 C5_2 1_555 1_555
H19_2 C33_2 1_555 1_555
C34_2 O1_2 1_555 1_555
C35_2 C17_2 1_555 1_555
H20_2 C35_2 1_555 1_555
C36_2 C23_2 1_555 1_555
H21_2 C36_2 1_555 1_555
O1_2 K5_2 1_555 1_555
O19 K5_2 1_555 1_555
C20_2 C30_2 1_555 1_555
C23_2 C35_2 1_555 1_555
C29_2 C36_2 1_555 1_555
C32_2 C33_2 1_555 1_555
C2_2 C3_2 1_555 1_555
C3_2 C16_2 1_555 1_555
C7_2 C9_2 1_555 1_555
C9_2 C21_2 1_555 1_555
C11_2 C7_2 1_555 1_555
H2_2 C11_2 1_555 1_555
C21_2 H9_2 1_555 1_555
C25_2 C7_2 1_555 1_555
H12_2 C25_2 1_555 1_555
C27_2 C10_2 1_555 1_555
H14_2 C27_2 1_555 1_555
C31_2 C3_2 1_555 1_555
H17_2 C31_2 1_555 1_555
C38_2 C9_2 1_555 1_555
H23_2 C38_2 1_555 1_555
C39_2 C10_2 1_555 1_555
H24_2 C39_2 1_555 1_555
O19 C2_2 1_555 1_555
O23 C2_2 1_555 1_555
C11_2 C31_2 1_555 1_555
C16_2 C25_2 1_555 1_555
C21_2 C27_2 1_555 1_555
C38_2 C39_2 1_555 1_555
H25_2 C47_2 1_555 1_555
C52_2 H27_2 1_555 1_555
C54_2 C52_2 1_555 1_555
C65_2 C47_2 1_555 1_555
H37_2 C65_2 1_555 1_555
C67_2 C54_2 1_555 1_555
O16 C67_2 1_555 1_555
O18 C67_2 1_555 1_555
C40_2 C43_2 1_555 1_555
C43_2 C58_2 1_555 1_555
C58_2 H31_2 1_555 1_555
C61_2 C40_2 1_555 1_555
H34_2 C61_2 1_555 1_555
H35_2 C63_2 1_555 1_555
C76_2 C43_2 1_555 1_555
H46_2 C76_2 1_555 1_555
C58_2 C63_2 1_555 1_555
O2_2 Co5 1_555 1_555

#END
