
###############################################################################
#
# This file contains modified crystal structure data generated from the
# MOF subset of the Cambridge Structural Database (CSD) v543 
# hosted by the Cambridge Crystallographic Data Centre (CCDC).
#
# This work is licensed under the Creative Commons
# Attribution-NonCommercial-ShareAlike 4.0 International License.
# To view a copy of this license, visit
# http://creativecommons.org/licenses/by-nc-sa/4.0/
# or send a letter to
# Creative Commons, PO Box 1866, Mountain View, CA 94042, USA.
#
# CIF created using the CSD Python API on 29 September 2022
# The structure has been converted into the P1 space group
# The structure has a 3D framework
# The original CSD entry CEXHET is in the monoclinic crystal system
# The framework has been calculated to contain at least 10.0% void space
# The void calculation uses a probe of radius 1.32A, grid spacing 0.4
#
###############################################################################

data_CEXHET
_chemical_formula_moiety         '(C1040 H720 Ag28 F72 Fe28 N220 O72 S24)n'
_symmetry_cell_setting           triclinic
_symmetry_space_group_name_H-M   'P 1'
_symmetry_Int_Tables_number      1
_space_group_name_Hall           'P 1'
loop_
_symmetry_equiv_pos_site_id
_symmetry_equiv_pos_as_xyz
1 x,y,z
_cell_length_a                   33.186(5)
_cell_length_b                   66.054(10)
_cell_length_c                   14.882(2)
_cell_angle_alpha                90
_cell_angle_beta                 110.699(2)
_cell_angle_gamma                90
_cell_volume                     30516.6
loop_
_atom_site_label
_atom_site_type_symbol
_atom_site_fract_x
_atom_site_fract_y
_atom_site_fract_z
Ag1 Ag 0.34545(2) 0.123730(9) 0.41401(4)
C30 C 0.4095(3) 0.00841(12) 0.6368(7)
H22 H 0.4243 0.0095 0.7042
C31 C 0.3951(3) 0.02391(12) 0.5729(7)
H23 H 0.3973 0.0380 0.5876
C32 C 0.3759(3) 0.01513(12) 0.4801(6)
C33 C 0.3588(2) 0.02553(12) 0.3931(6)
C34 C 0.3423(3) 0.01631(12) 0.3032(7)
C35 C 0.3275(3) 0.02548(12) 0.2113(6)
H24 H 0.3270 0.0396 0.1986
C36 C 0.3143(3) 0.01079(13) 0.1454(7)
H25 H 0.3028 0.0125 0.0776
C38 C 0.3586(3) 0.04777(12) 0.3959(6)
C39 C 0.3188(3) 0.05773(13) 0.3630(8)
H27 H 0.2926 0.0504 0.3361
C40 C 0.3188(3) 0.07853(13) 0.3709(8)
H28 H 0.2915 0.0850 0.3506
C41 C 0.3908(3) 0.08052(12) 0.4276(7)
H29 H 0.4163 0.0885 0.4471
C42 C 0.3945(3) 0.06009(12) 0.4255(7)
H30 H 0.4223 0.0541 0.4449
N9 N 0.3525(2) 0.09009(10) 0.4033(5)
S1 S 0.47529(9) 0.12855(5) 0.4785(2)
C129 C 0.4903(5) 0.1275(2) 0.3733(12)
F1 F 0.4718(3) 0.11306(15) 0.3194(8)
F2 F 0.5344(3) 0.12448(14) 0.4098(9)
F3 F 0.4828(3) 0.14578(13) 0.3346(6)
O1 O 0.4889(3) 0.10553(14) 0.5114(7)
O2 O 0.4303(2) 0.12965(11) 0.4461(5)
O3 O 0.4991(2) 0.14261(9) 0.5455(5)
S3 S 0.21798(8) 0.11705(3) 0.33689(17)
C131 C 0.1924(4) 0.11803(17) 0.4248(9)
F7 F 0.1995(2) 0.13550(11) 0.4717(5)
F8 F 0.1493(2) 0.11634(10) 0.3842(5)
F9 F 0.2064(3) 0.10406(12) 0.4905(5)
O7 O 0.1991(2) 0.13327(9) 0.2741(5)
O8 O 0.2629(2) 0.12010(10) 0.3931(4)
O9 O 0.2070(2) 0.09696(9) 0.2965(5)
Ag5 Ag 0.65455(2) 0.123730(9) 0.08599(4)
C163 C 0.6241(3) 0.01513(12) 0.0199(6)
C164 C 0.6412(2) 0.02553(12) 0.1069(6)
C165 C 0.6577(3) 0.01631(12) 0.1968(7)
C166 C 0.6725(3) 0.02548(12) 0.2887(6)
H114 H 0.6730 0.0396 0.3014
C167 C 0.6857(3) 0.01079(13) 0.3546(7)
H115 H 0.6972 0.0125 0.4224
C169 C 0.6414(3) 0.04777(12) 0.1041(6)
C170 C 0.6812(3) 0.05773(13) 0.1370(8)
H117 H 0.7074 0.0504 0.1639
C171 C 0.6812(3) 0.07853(13) 0.1291(8)
H118 H 0.7085 0.0850 0.1494
C172 C 0.6092(3) 0.08052(12) 0.0724(7)
H119 H 0.5837 0.0885 0.0529
C173 C 0.6055(3) 0.06009(12) 0.0745(7)
H120 H 0.5777 0.0541 0.0551
N41 N 0.6475(2) 0.09009(10) 0.0967(5)
N45 N 0.3301(2) 0.14023(10) 0.2690(5)
N46 N 0.6699(2) 0.14023(10) 0.2310(5)
N50 N 0.3512(2) 0.14348(9) 0.5416(5)
S4 S 0.52471(9) 0.12855(5) 0.0215(2)
C256 C 0.5097(5) 0.1275(2) 0.1267(12)
F10 F 0.5282(3) 0.11306(15) 0.1806(8)
F11 F 0.4656(3) 0.12448(14) 0.0902(9)
F12 F 0.5172(3) 0.14578(13) 0.1654(6)
O11 O 0.5697(2) 0.12965(11) 0.0539(5)
S6 S 0.78202(8) 0.11705(3) 0.16311(17)
C258 C 0.8076(4) 0.11803(17) 0.0752(9)
F16 F 0.8005(2) 0.13550(11) 0.0283(5)
F17 F 0.8507(2) 0.11634(10) 0.1158(5)
F18 F 0.7936(3) 0.10406(12) 0.0095(5)
O16 O 0.8009(2) 0.13327(9) 0.2259(5)
O17 O 0.7371(2) 0.12010(10) 0.1069(4)
O18 O 0.7930(2) 0.09696(9) 0.2035(5)
C161 C 0.5905(3) 0.00841(12) 0.8632(7)
H112 H 0.5757 0.0095 0.7958
C162 C 0.6049(3) 0.02391(12) 0.9271(7)
H113 H 0.6027 0.0380 0.9124
N51 N 0.6488(2) 0.14348(9) 0.9584(5)
O10 O 0.5111(3) 0.10553(14) 0.9886(7)
O12 O 0.5009(2) 0.14261(9) 0.9545(5)
Fe1 Fe 0.35319(4) 0.974060(16) 0.38890(9)
C1 C 0.2840(3) 0.94935(12) 0.2490(6)
H1 H 0.2616 0.9578 0.2537
C2 C 0.2769(4) 0.93129(14) 0.1965(7)
H2 H 0.2497 0.9254 0.1611
C3 C 0.3166(4) 0.92372(14) 0.2060(7)
H3 H 0.3225 0.9116 0.1787
C4 C 0.3471(3) 0.93764(12) 0.2649(6)
C5 C 0.3916(3) 0.93765(12) 0.2873(6)
C6 C 0.4197(3) 0.95308(13) 0.3298(6)
C7 C 0.4650(3) 0.95516(15) 0.3470(7)
H4 H 0.4824 0.9453 0.3313
C8 C 0.4789(3) 0.97315(14) 0.3886(7)
H5 H 0.5072 0.9785 0.4056
C9 C 0.4431(3) 0.98246(13) 0.4021(7)
H6 H 0.4439 0.9953 0.4311
C10 C 0.4105(3) 0.91879(13) 0.2617(7)
C11 C 0.4122(3) 0.90173(13) 0.3162(8)
H7 H 0.4003 0.9017 0.3656
C12 C 0.4317(3) 0.88477(15) 0.2970(9)
H8 H 0.4335 0.8732 0.3362
C13 C 0.4468(7) 0.8998(2) 0.1795(11)
H9 H 0.4595 0.8995 0.1314
C14 C 0.4282(6) 0.91746(19) 0.1942(10)
H10 H 0.4279 0.9289 0.1555
C18 C 0.1608(3) 0.43814(12) 0.0025(6)
C19 C 0.2035(3) 0.44276(12) 0.0239(6)
C20 C 0.2224(3) 0.46108(12) 0.0609(6)
C21 C 0.2647(3) 0.46799(14) 0.0717(7)
H14 H 0.2863 0.4607 0.0572
C22 C 0.2678(3) 0.48771(14) 0.1080(6)
H15 H 0.2921 0.4964 0.1231
C23 C 0.2291(3) 0.49207(12) 0.1176(6)
H16 H 0.2227 0.5046 0.1404
C24 C 0.2316(3) 0.42654(12) 0.0079(6)
C25 C 0.2429(3) 0.41017(13) 0.0685(7)
H17 H 0.2330 0.4093 0.1210
C26 C 0.2684(3) 0.39503(14) 0.0540(7)
H18 H 0.2765 0.3842 0.0989
C29 C 0.3980(3) 0.99058(13) 0.5824(6)
H21 H 0.4032 0.9774 0.6092
C37 C 0.3207(3) 0.99234(13) 0.1961(6)
H26 H 0.3139 0.9794 0.1665
N1 N 0.3254(2) 0.95329(9) 0.2911(5)
N2 N 0.4077(2) 0.97063(10) 0.3682(5)
N3 N 0.4479(4) 0.88323(13) 0.2301(7)
N4 N 0.1306(2) 0.45092(9) 0.0193(5)
N5 N 0.2012(2) 0.47645(10) 0.0909(4)
N7 N 0.3790(2) 0.99424(9) 0.4892(5)
N8 N 0.3374(2) 0.99524(9) 0.2900(5)
C47 C 0.3213(2) 0.18704(12) 0.0629(6)
C48 C 0.3455(3) 0.20468(11) 0.1017(5)
C49 C 0.3684(3) 0.20877(13) 0.1992(6)
H34 H 0.3705 0.2004 0.2525
C50 C 0.3875(2) 0.22763(12) 0.2016(6)
H35 H 0.4049 0.2346 0.2575
C51 C 0.3763(2) 0.23432(12) 0.1077(6)
H36 H 0.3850 0.2469 0.0893
C52 C 0.3228(3) 0.17066(12) 0.1323(6)
C53 C 0.2873(3) 0.16413(12) 0.1509(6)
H37 H 0.2599 0.1699 0.1170
C54 C 0.2911(3) 0.14911(12) 0.2193(6)
H38 H 0.2662 0.1449 0.2317
C55 C 0.3642(3) 0.14624(14) 0.2465(7)
H39 H 0.3911 0.1398 0.2783
C56 C 0.3626(3) 0.16128(14) 0.1797(7)
H40 H 0.3876 0.1651 0.1666
H45 H 0.4463 0.1664 0.0239
H46 H 0.4141 0.1983 0.0557
C83 C 0.3319(3) 0.32452(12) 0.0255(6)
H59 H 0.3314 0.3299 0.0843
C84 C 0.3324(2) 0.30388(12) 0.0152(6)
H60 H 0.3313 0.2954 0.0659
N11 N 0.35126(19) 0.22050(9) 0.0458(4)
C85 C 0.4116(3) 0.40285(12) 0.0189(7)
H61 H 0.4134 0.4023 0.0840
H62 H 0.4519 0.4270 0.0397
Ag4 Ag 0.5000 0.859381(15) 0.2500
Fe4 Fe 0.5000 0.71044(2) 0.2500
C109 C 0.5243(3) 0.66221(12) 0.0315(6)
C110 C 0.4955(3) 0.64632(13) 0.0113(7)
H78 H 0.4768 0.6446 0.0466
C112 C 0.5712(3) 0.68153(12) 0.3521(6)
H80 H 0.5765 0.6877 0.4128
C113 C 0.5926(3) 0.66385(12) 0.3370(6)
H81 H 0.6142 0.6563 0.3845
C114 C 0.5759(3) 0.65990(12) 0.2414(6)
H82 H 0.5834 0.6488 0.2100
C115 C 0.5453(3) 0.67525(11) 0.1962(6)
C116 C 0.5228(3) 0.67837(12) 0.1011(6)
C117 C 0.4969(3) 0.69451(11) 0.0593(5)
C120 C 0.4606(2) 0.72288(12) 0.0486(5)
H85 H 0.4485 0.7348 0.0646
C121 C 0.5864(3) 0.72779(12) 0.2860(6)
H86 H 0.5988 0.7147 0.2889
C122 C 0.6100(2) 0.74613(12) 0.3029(5)
H87 H 0.6402 0.7476 0.3191
C123 C 0.5808(2) 0.76125(12) 0.2914(5)
H88 H 0.5872 0.7753 0.2981
C124 C 0.5387(2) 0.75237(11) 0.2674(5)
C125 C 0.5000 0.76177(15) 0.2500
C126 C 0.5000 0.78428(17) 0.2500
C127 C 0.5052(2) 0.79523(11) 0.1750(6)
H89 H 0.5091 0.7883 0.1227
C128 C 0.5048(2) 0.81588(13) 0.1761(6)
H90 H 0.5079 0.8231 0.1238
N25 N 0.54266(19) 0.68830(9) 0.2687(4)
N26 N 0.4866(2) 0.71026(9) 0.1117(4)
N27 N 0.54409(18) 0.73125(9) 0.2654(4)
N28 N 0.5000 0.82633(13) 0.2500
S2 S 0.38363(9) 0.36711(4) 0.24360(18)
C130 C 0.3633(4) 0.37148(15) 0.3400(8)
F4 F 0.3928(2) 0.37411(12) 0.4232(4)
F5 F 0.3375(2) 0.35653(10) 0.3482(5)
F6 F 0.3385(2) 0.38795(10) 0.3250(5)
O4 O 0.3452(2) 0.36578(12) 0.1604(5)
O5 O 0.4060(2) 0.34824(10) 0.2697(5)
O6 O 0.4099(2) 0.38403(10) 0.2486(5)
Fe5 Fe 0.64681(4) 0.974060(16) 0.11110(9)
Fe6 Fe 0.14681(4) 0.474060(16) 0.11110(9)
C132 C 0.7160(3) 0.94935(12) 0.2510(6)
H91 H 0.7384 0.9578 0.2463
C133 C 0.7231(4) 0.93129(14) 0.3035(7)
H92 H 0.7503 0.9254 0.3389
C134 C 0.6834(4) 0.92372(14) 0.2940(7)
H93 H 0.6775 0.9116 0.3213
C135 C 0.6529(3) 0.93764(12) 0.2351(6)
C136 C 0.6084(3) 0.93765(12) 0.2127(6)
C137 C 0.5803(3) 0.95308(13) 0.1702(6)
C138 C 0.5350(3) 0.95516(15) 0.1530(7)
H94 H 0.5176 0.9453 0.1687
C139 C 0.5211(3) 0.97315(14) 0.1114(7)
H95 H 0.4928 0.9785 0.0944
C140 C 0.5569(3) 0.98246(13) 0.0979(7)
H96 H 0.5561 0.9953 0.0689
C141 C 0.5895(3) 0.91879(13) 0.2383(7)
C142 C 0.5878(3) 0.90173(13) 0.1838(8)
H97 H 0.5997 0.9017 0.1344
C143 C 0.5683(3) 0.88477(15) 0.2030(9)
H98 H 0.5665 0.8732 0.1638
C144 C 0.5532(7) 0.8998(2) 0.3205(11)
H99 H 0.5405 0.8995 0.3686
C145 C 0.5718(6) 0.91746(19) 0.3058(10)
H100 H 0.5721 0.9289 0.3445
C168 C 0.6793(3) 0.99234(13) 0.3039(6)
H116 H 0.6861 0.9794 0.3335
N29 N 0.6746(2) 0.95329(9) 0.2089(5)
N30 N 0.5923(2) 0.97063(10) 0.1318(5)
N31 N 0.5521(4) 0.88323(13) 0.2699(7)
N33 N 0.3694(2) 0.95092(9) 0.4807(5)
N34 N 0.6306(2) 0.95092(9) 0.0193(5)
N36 N 0.2988(2) 0.97645(10) 0.4091(4)
N37 N 0.7012(2) 0.97645(10) 0.0909(4)
N39 N 0.6210(2) 0.99424(9) 0.0108(5)
N40 N 0.6626(2) 0.99524(9) 0.2100(5)
H162 H 0.5652 0.5045 0.0643
C250 C 0.4136(3) 0.72779(12) 0.2140(6)
H176 H 0.4012 0.7147 0.2111
C251 C 0.3900(2) 0.74613(12) 0.1971(5)
H177 H 0.3598 0.7476 0.1809
C252 C 0.4192(2) 0.76125(12) 0.2086(5)
H178 H 0.4128 0.7753 0.2019
C253 C 0.4613(2) 0.75237(11) 0.2326(5)
C254 C 0.4948(2) 0.79523(11) 0.3250(6)
H179 H 0.4909 0.7883 0.3773
C255 C 0.4952(2) 0.81588(13) 0.3239(6)
H180 H 0.4921 0.8231 0.3762
N61 N 0.45734(19) 0.68830(9) 0.2313(4)
N63 N 0.5134(2) 0.71026(9) 0.3883(4)
N64 N 0.45591(18) 0.73125(9) 0.2346(4)
C15 C 0.0925(3) 0.44244(13) 0.9811(7)
H11 H 0.0663 0.4480 0.9822
C16 C 0.0964(3) 0.42348(13) 0.9375(6)
H12 H 0.0735 0.4146 0.9042
C17 C 0.1385(3) 0.42072(13) 0.9526(7)
H13 H 0.1510 0.4093 0.9335
C27 C 0.2740(3) 0.41118(15) 0.9238(7)
H19 H 0.2858 0.4120 0.8743
C28 C 0.2485(3) 0.42719(15) 0.9347(7)
H20 H 0.2427 0.4385 0.8924
N6 N 0.2823(2) 0.39477(10) 0.9801(5)
Ag2 Ag 0.33111(2) 0.370830(10) 0.97720(5)
Fe2 Fe 0.33391(3) 0.221249(15) 0.90684(7)
C43 C 0.2633(2) 0.19146(12) 0.8146(6)
H31 H 0.2545 0.1982 0.7543
C44 C 0.2471(3) 0.17254(11) 0.8310(6)
H32 H 0.2257 0.1646 0.7852
C45 C 0.2678(2) 0.16808(11) 0.9244(6)
H33 H 0.2642 0.1561 0.9560
C46 C 0.2963(2) 0.18450(11) 0.9680(6)
C57 C 0.2918(2) 0.23472(12) 0.7077(6)
H41 H 0.2820 0.2468 0.7279
C58 C 0.2813(2) 0.22893(12) 0.6120(6)
H42 H 0.2639 0.2362 0.5570
C59 C 0.3009(2) 0.21066(12) 0.6130(5)
H43 H 0.2992 0.2026 0.5588
C60 C 0.3244(2) 0.20608(11) 0.7109(6)
C61 C 0.3497(2) 0.18909(11) 0.7460(5)
C62 C 0.3748(2) 0.18604(11) 0.8414(6)
C63 C 0.4053(3) 0.17011(11) 0.8805(6)
H44 H 0.4110 0.1589 0.8466
C64 C 0.4247(3) 0.17423(12) 0.9778(6)
C65 C 0.4063(2) 0.19203(11) 0.9943(6)
C66 C 0.3510(3) 0.17325(10) 0.6758(5)
C67 C 0.3174(3) 0.15981(13) 0.6388(6)
H47 H 0.2930 0.1605 0.6579
C68 C 0.3195(3) 0.14539(13) 0.5744(7)
H48 H 0.2962 0.1361 0.5517
C69 C 0.3842(3) 0.15641(13) 0.5783(7)
H49 H 0.4081 0.1552 0.5574
C70 C 0.3857(3) 0.17146(12) 0.6447(6)
H50 H 0.4098 0.1803 0.6682
C71 C 0.4173(2) 0.23968(11) 0.9279(5)
H51 H 0.4294 0.2268 0.9247
C72 C 0.4409(3) 0.25762(12) 0.9455(6)
H52 H 0.4707 0.2591 0.9563
C73 C 0.4124(2) 0.27259(11) 0.9440(5)
H53 H 0.4188 0.2866 0.9536
C74 C 0.3716(2) 0.26357(11) 0.9257(5)
C75 C 0.3344(2) 0.27291(11) 0.9214(5)
C76 C 0.2954(2) 0.26287(11) 0.9086(5)
C77 C 0.2542(2) 0.27145(11) 0.8948(5)
H54 H 0.2481 0.2855 0.8961
C78 C 0.2250(3) 0.25619(12) 0.8793(5)
H55 H 0.1951 0.2574 0.8678
C79 C 0.2487(2) 0.23815(12) 0.8840(5)
H56 H 0.2366 0.2250 0.8762
C80 C 0.3346(2) 0.29530(11) 0.9343(6)
C81 C 0.3362(3) 0.30838(11) 0.8627(6)
H57 H 0.3381 0.3031 0.8049
C82 C 0.3350(2) 0.32882(12) 0.8752(6)
H58 H 0.3363 0.3375 0.8254
N10 N 0.2927(2) 0.19866(9) 0.8949(4)
N13 N 0.3171(2) 0.22118(9) 0.7669(4)
N14 N 0.37670(18) 0.19953(9) 0.9153(4)
N16 N 0.37629(17) 0.24242(9) 0.9162(4)
N17 N 0.29029(18) 0.24194(9) 0.9005(4)
N18 N 0.33205(19) 0.33731(10) 0.9565(5)
Ag3 Ag 0.5000 0.617230(14) 0.7500
Fe3 Fe 0.5000 0.46712(2) 0.7500
C86 C 0.4349(3) 0.41766(13) 0.9932(6)
C87 C 0.4332(3) 0.41871(12) 0.9002(6)
C88 C 0.4082(3) 0.40442(14) 0.8357(7)
H63 H 0.4062 0.4044 0.7704
C89 C 0.3865(3) 0.39034(13) 0.8688(7)
H64 H 0.3700 0.3805 0.8243
C90 C 0.4552(3) 0.43461(11) 0.8638(6)
C91 C 0.4306(3) 0.45162(12) 0.8180(6)
C92 C 0.3875(3) 0.45564(12) 0.8074(6)
H65 H 0.3694 0.4475 0.8296
C93 C 0.3769(3) 0.47336(13) 0.7597(7)
H66 H 0.3501 0.4802 0.7435
C94 C 0.4131(3) 0.47980(13) 0.7382(6)
H67 H 0.4138 0.4917 0.7028
C95 C 0.4993(3) 0.43200(12) 0.8786(6)
C96 C 0.5269(3) 0.41649(13) 0.9340(7)
H68 H 0.5186 0.4054 0.9644
C97 C 0.5671(3) 0.42057(13) 0.9350(7)
H69 H 0.5926 0.4131 0.9671
C98 C 0.5637(3) 0.43819(13) 0.8788(7)
H70 H 0.5872 0.4443 0.8669
C99 C 0.4585(3) 0.48429(14) 0.5558(6)
H71 H 0.4519 0.4712 0.5279
C100 C 0.4484(3) 0.50297(13) 0.5032(7)
H72 H 0.4348 0.5045 0.4357
C101 C 0.4621(3) 0.51789(13) 0.5695(6)
H73 H 0.4590 0.5320 0.5569
C102 C 0.4821(3) 0.50878(12) 0.6614(6)
C103 C 0.5000 0.51827(16) 0.7500
C104 C 0.5000 0.54142(18) 0.7500
C105 C 0.5270(3) 0.55191(12) 0.7137(7)
H74 H 0.5455 0.5450 0.6877
C106 C 0.5260(3) 0.57280(13) 0.7167(6)
H75 H 0.5451 0.5801 0.6936
N19 N 0.3868(2) 0.38927(10) 0.9573(5)
N20 N 0.4465(2) 0.46681(10) 0.7749(5)
N21 N 0.5235(2) 0.44505(10) 0.8449(5)
N22 N 0.4789(2) 0.48793(10) 0.6507(5)
N23 N 0.5000 0.58344(15) 0.7500
C107 C 0.5495(3) 0.64920(13) 0.9109(7)
H76 H 0.5693 0.6500 0.8780
C108 C 0.5522(3) 0.66325(12) 0.9827(6)
H77 H 0.5735 0.6736 0.9977
C111 C 0.4942(3) 0.63276(13) 0.9380(6)
H79 H 0.4744 0.6218 0.9239
C118 C 0.4747(2) 0.69841(12) 0.9609(6)
H83 H 0.4749 0.6901 0.9090
C119 C 0.4531(3) 0.71606(13) 0.9532(6)
H84 H 0.4362 0.7227 0.8954
N24 N 0.5202(3) 0.63477(10) 0.8873(5)
Fe7 Fe 0.85319(4) 0.474060(16) 0.38890(9)
C146 C 0.9075(3) 0.44244(13) 0.5189(7)
H101 H 0.9337 0.4480 0.5178
C147 C 0.9036(3) 0.42348(13) 0.5625(6)
H102 H 0.9265 0.4146 0.5958
C148 C 0.8615(3) 0.42072(13) 0.5474(7)
H103 H 0.8490 0.4093 0.5665
C149 C 0.8392(3) 0.43814(12) 0.4975(6)
C150 C 0.7965(3) 0.44276(12) 0.4761(6)
C151 C 0.7776(3) 0.46108(12) 0.4391(6)
C152 C 0.7353(3) 0.46799(14) 0.4283(7)
H104 H 0.7137 0.4607 0.4428
C153 C 0.7322(3) 0.48771(14) 0.3920(6)
H105 H 0.7079 0.4964 0.3769
C154 C 0.7709(3) 0.49207(12) 0.3824(6)
H106 H 0.7773 0.5046 0.3596
C155 C 0.7684(3) 0.42654(12) 0.4921(6)
C156 C 0.7571(3) 0.41017(13) 0.4315(7)
H107 H 0.7670 0.4093 0.3790
C157 C 0.7316(3) 0.39503(14) 0.4460(7)
H108 H 0.7235 0.3842 0.4011
C158 C 0.7260(3) 0.41118(15) 0.5762(7)
H109 H 0.7142 0.4120 0.6257
C159 C 0.7515(3) 0.42719(15) 0.5653(7)
H110 H 0.7573 0.4385 0.6076
C160 C 0.6020(3) 0.99058(13) 0.9176(6)
H111 H 0.5968 0.9774 0.8908
N32 N 0.8694(2) 0.45092(9) 0.4807(5)
N35 N 0.7988(2) 0.47645(10) 0.4091(4)
N38 N 0.7177(2) 0.39477(10) 0.5199(5)
Ag10 Ag 0.66889(2) 0.370830(10) 0.52280(5)
Fe8 Fe 0.66609(3) 0.221249(15) 0.59316(7)
C174 C 0.7367(2) 0.19146(12) 0.6854(6)
H121 H 0.7455 0.1982 0.7457
C175 C 0.7529(3) 0.17254(11) 0.6690(6)
H122 H 0.7743 0.1646 0.7148
C176 C 0.7322(2) 0.16808(11) 0.5756(6)
H123 H 0.7358 0.1561 0.5440
C177 C 0.7037(2) 0.18450(11) 0.5320(6)
C178 C 0.6787(2) 0.18704(12) 0.4371(6)
C179 C 0.6545(3) 0.20468(11) 0.3983(5)
C180 C 0.6316(3) 0.20877(13) 0.3008(6)
H124 H 0.6295 0.2004 0.2475
C181 C 0.6125(2) 0.22763(12) 0.2984(6)
H125 H 0.5951 0.2346 0.2425
C182 C 0.6237(2) 0.23432(12) 0.3923(6)
H126 H 0.6150 0.2469 0.4107
C183 C 0.6772(3) 0.17066(12) 0.3677(6)
C184 C 0.7127(3) 0.16413(12) 0.3491(6)
H127 H 0.7401 0.1699 0.3830
C185 C 0.7089(3) 0.14911(12) 0.2807(6)
H128 H 0.7338 0.1449 0.2683
C186 C 0.6358(3) 0.14624(14) 0.2535(7)
H129 H 0.6089 0.1398 0.2217
C187 C 0.6374(3) 0.16128(14) 0.3203(7)
H130 H 0.6124 0.1651 0.3334
C188 C 0.7082(2) 0.23472(12) 0.7923(6)
H131 H 0.7180 0.2468 0.7721
C189 C 0.7187(2) 0.22893(12) 0.8880(6)
H132 H 0.7361 0.2362 0.9430
C190 C 0.6991(2) 0.21066(12) 0.8870(5)
H133 H 0.7008 0.2026 0.9412
C191 C 0.6756(2) 0.20608(11) 0.7891(6)
C192 C 0.6503(2) 0.18909(11) 0.7540(5)
C193 C 0.6252(2) 0.18604(11) 0.6586(6)
C194 C 0.5947(3) 0.17011(11) 0.6195(6)
H134 H 0.5890 0.1589 0.6534
C195 C 0.5753(3) 0.17423(12) 0.5222(6)
H135 H 0.5537 0.1664 0.4761
C196 C 0.5937(2) 0.19203(11) 0.5057(6)
H136 H 0.5859 0.1983 0.4443
C197 C 0.6490(3) 0.17325(10) 0.8242(5)
C198 C 0.6826(3) 0.15981(13) 0.8612(6)
H137 H 0.7070 0.1605 0.8421
C199 C 0.6805(3) 0.14539(13) 0.9256(7)
H138 H 0.7038 0.1361 0.9483
C200 C 0.6158(3) 0.15641(13) 0.9217(7)
H139 H 0.5919 0.1552 0.9426
C201 C 0.6143(3) 0.17146(12) 0.8553(6)
H140 H 0.5902 0.1803 0.8318
C202 C 0.5827(2) 0.23968(11) 0.5721(5)
H141 H 0.5706 0.2268 0.5753
C203 C 0.5591(3) 0.25762(12) 0.5545(6)
H142 H 0.5293 0.2591 0.5437
C204 C 0.5876(2) 0.27259(11) 0.5560(5)
H143 H 0.5812 0.2866 0.5464
C205 C 0.6284(2) 0.26357(11) 0.5743(5)
C206 C 0.6656(2) 0.27291(11) 0.5786(5)
C207 C 0.7046(2) 0.26287(11) 0.5914(5)
C208 C 0.7458(2) 0.27145(11) 0.6052(5)
H144 H 0.7519 0.2855 0.6039
C209 C 0.7750(3) 0.25619(12) 0.6207(5)
H145 H 0.8049 0.2574 0.6322
C210 C 0.7513(2) 0.23815(12) 0.6160(5)
H146 H 0.7634 0.2250 0.6238
C211 C 0.6654(2) 0.29530(11) 0.5657(6)
C212 C 0.6638(3) 0.30838(11) 0.6373(6)
H147 H 0.6619 0.3031 0.6951
C213 C 0.6650(2) 0.32882(12) 0.6248(6)
H148 H 0.6637 0.3375 0.6746
C214 C 0.6681(3) 0.32452(12) 0.4745(6)
H149 H 0.6686 0.3299 0.4157
C215 C 0.6676(2) 0.30388(12) 0.4848(6)
H150 H 0.6687 0.2954 0.4341
N42 N 0.7073(2) 0.19866(9) 0.6051(4)
N43 N 0.64874(19) 0.22050(9) 0.4542(4)
N47 N 0.6829(2) 0.22118(9) 0.7331(4)
N48 N 0.62330(18) 0.19953(9) 0.5847(4)
N52 N 0.62371(17) 0.24242(9) 0.5838(4)
N53 N 0.70971(18) 0.24194(9) 0.5995(4)
N54 N 0.66795(19) 0.33731(10) 0.5435(5)
C216 C 0.5884(3) 0.40285(12) 0.4811(7)
H151 H 0.5866 0.4023 0.4160
C217 C 0.5651(3) 0.41766(13) 0.5068(6)
H152 H 0.5481 0.4270 0.4603
C218 C 0.5668(3) 0.41871(12) 0.5998(6)
C219 C 0.5918(3) 0.40442(14) 0.6643(7)
H153 H 0.5938 0.4044 0.7296
C220 C 0.6135(3) 0.39034(13) 0.6312(7)
H154 H 0.6300 0.3805 0.6757
C221 C 0.5448(3) 0.43461(11) 0.6362(6)
C222 C 0.5694(3) 0.45162(12) 0.6820(6)
C223 C 0.6125(3) 0.45564(12) 0.6926(6)
H155 H 0.6306 0.4475 0.6704
C224 C 0.6231(3) 0.47336(13) 0.7403(7)
H156 H 0.6499 0.4802 0.7565
C225 C 0.5869(3) 0.47980(13) 0.7618(6)
H157 H 0.5862 0.4917 0.7972
C226 C 0.5007(3) 0.43200(12) 0.6214(6)
C227 C 0.4731(3) 0.41649(13) 0.5660(7)
H158 H 0.4814 0.4054 0.5356
C228 C 0.4329(3) 0.42057(13) 0.5650(7)
H159 H 0.4074 0.4131 0.5329
C229 C 0.4363(3) 0.43819(13) 0.6212(7)
H160 H 0.4128 0.4443 0.6331
C230 C 0.5415(3) 0.48429(14) 0.9442(6)
H161 H 0.5481 0.4712 0.9721
C231 C 0.5516(3) 0.50297(13) 0.9968(7)
C232 C 0.5379(3) 0.51789(13) 0.9305(6)
H163 H 0.5410 0.5320 0.9431
C233 C 0.5179(3) 0.50878(12) 0.8386(6)
C234 C 0.4730(3) 0.55191(12) 0.7863(7)
H164 H 0.4545 0.5450 0.8123
C235 C 0.4740(3) 0.57280(13) 0.7833(6)
H165 H 0.4549 0.5801 0.8064
N55 N 0.6132(2) 0.38927(10) 0.5427(5)
N56 N 0.5535(2) 0.46681(10) 0.7251(5)
N57 N 0.4765(2) 0.44505(10) 0.6551(5)
N58 N 0.5211(2) 0.48793(10) 0.8493(5)
C236 C 0.4505(3) 0.64920(13) 0.5891(7)
H166 H 0.4307 0.6500 0.6220
C237 C 0.4478(3) 0.66325(12) 0.5173(6)
H167 H 0.4265 0.6736 0.5023
C238 C 0.4757(3) 0.66221(12) 0.4685(6)
C239 C 0.5045(3) 0.64632(13) 0.4887(7)
H168 H 0.5232 0.6446 0.4534
C240 C 0.5058(3) 0.63276(13) 0.5620(6)
H169 H 0.5256 0.6218 0.5761
C241 C 0.4288(3) 0.68153(12) 0.1479(6)
H170 H 0.4235 0.6877 0.0872
C242 C 0.4074(3) 0.66385(12) 0.1630(6)
H171 H 0.3858 0.6563 0.1155
C243 C 0.4241(3) 0.65990(12) 0.2586(6)
H172 H 0.4166 0.6488 0.2900
C244 C 0.4547(3) 0.67525(11) 0.3038(6)
C245 C 0.4772(3) 0.67837(12) 0.3989(6)
C246 C 0.5031(3) 0.69451(11) 0.4407(5)
C247 C 0.5253(2) 0.69841(12) 0.5391(6)
H173 H 0.5251 0.6901 0.5910
C248 C 0.5469(3) 0.71606(13) 0.5468(6)
H174 H 0.5638 0.7227 0.6046
C249 C 0.5394(2) 0.72288(12) 0.4514(5)
H175 H 0.5515 0.7348 0.4354
N59 N 0.4798(3) 0.63477(10) 0.6127(5)
S5 S 0.61637(9) 0.36711(4) 0.25640(18)
C257 C 0.6367(4) 0.37148(15) 0.1600(8)
F13 F 0.6072(2) 0.37411(12) 0.0768(4)
F14 F 0.6625(2) 0.35653(10) 0.1518(5)
F15 F 0.6615(2) 0.38795(10) 0.1750(5)
O13 O 0.6548(2) 0.36578(12) 0.3396(5)
O14 O 0.5940(2) 0.34824(10) 0.2303(5)
O15 O 0.5901(2) 0.38403(10) 0.2514(5)
H5_2 H 0.0072 0.4785 0.4056
Ag4_2 Ag 0.0000 0.359381(15) 0.2500
Fe4_2 Fe -0.0000 0.21044(2) 0.2500
C109_2 C 0.0243(3) 0.16221(12) 0.0315(6)
C112_2 C 0.0712(3) 0.18153(12) 0.3521(6)
H80_2 H 0.0765 0.1877 0.4128
C113_2 C 0.0926(3) 0.16385(12) 0.3370(6)
H81_2 H 0.1142 0.1563 0.3845
C114_2 C 0.0759(3) 0.15990(12) 0.2414(6)
H82_2 H 0.0834 0.1488 0.2100
C115_2 C 0.0453(3) 0.17525(11) 0.1962(6)
C116_2 C 0.0228(3) 0.17837(12) 0.1011(6)
C121_2 C 0.0864(3) 0.22779(12) 0.2860(6)
H86_2 H 0.0988 0.2147 0.2889
C122_2 C 0.1100(2) 0.24613(12) 0.3029(5)
H87_2 H 0.1402 0.2476 0.3191
C123_2 C 0.0808(2) 0.26125(12) 0.2914(5)
H88_2 H 0.0872 0.2753 0.2981
C124_2 C 0.0387(2) 0.25237(11) 0.2674(5)
C125_2 C -0.0000 0.26177(15) 0.2500
C126_2 C -0.0000 0.28428(17) 0.2500
C127_2 C 0.0052(2) 0.29523(11) 0.1750(6)
H89_2 H 0.0091 0.2883 0.1227
C128_2 C 0.0048(2) 0.31588(13) 0.1761(6)
H90_2 H 0.0079 0.3231 0.1238
N25_2 N 0.04266(19) 0.18830(9) 0.2687(4)
N27_2 N 0.04409(18) 0.23125(9) 0.2654(4)
N28_2 N -0.0000 0.32633(13) 0.2500
F2_2 F 0.0344(3) 0.62448(14) 0.4098(9)
Ag5_2 Ag 0.15455(2) 0.623730(9) 0.08599(4)
C132_2 C 0.2160(3) 0.44935(12) 0.2510(6)
H91_2 H 0.2384 0.4578 0.2463
C133_2 C 0.2231(4) 0.43129(14) 0.3035(7)
H92_2 H 0.2503 0.4254 0.3389
C134_2 C 0.1834(4) 0.42372(14) 0.2940(7)
H93_2 H 0.1775 0.4116 0.3213
C135_2 C 0.1529(3) 0.43764(12) 0.2351(6)
C136_2 C 0.1084(3) 0.43765(12) 0.2127(6)
C137_2 C 0.0803(3) 0.45308(13) 0.1702(6)
C138_2 C 0.0350(3) 0.45516(15) 0.1530(7)
H94_2 H 0.0176 0.4453 0.1687
C139_2 C 0.0211(3) 0.47315(14) 0.1114(7)
C140_2 C 0.0569(3) 0.48246(13) 0.0979(7)
H96_2 H 0.0561 0.4953 0.0689
C141_2 C 0.0895(3) 0.41879(13) 0.2383(7)
C142_2 C 0.0878(3) 0.40173(13) 0.1838(8)
H97_2 H 0.0997 0.4017 0.1344
C143_2 C 0.0683(3) 0.38477(15) 0.2030(9)
H98_2 H 0.0665 0.3732 0.1638
C144_2 C 0.0532(7) 0.3998(2) 0.3205(11)
H99_2 H 0.0405 0.3995 0.3686
C145_2 C 0.0718(6) 0.41746(19) 0.3058(10)
H100_2 H 0.0721 0.4289 0.3445
C163_2 C 0.1241(3) 0.51513(12) 0.0199(6)
C164_2 C 0.1412(2) 0.52553(12) 0.1069(6)
C165_2 C 0.1577(3) 0.51631(12) 0.1968(7)
C166_2 C 0.1725(3) 0.52548(12) 0.2887(6)
H114_2 H 0.1730 0.5396 0.3014
C167_2 C 0.1857(3) 0.51079(13) 0.3546(7)
H115_2 H 0.1972 0.5125 0.4224
C168_2 C 0.1793(3) 0.49234(13) 0.3039(6)
H116_2 H 0.1861 0.4794 0.3335
C169_2 C 0.1414(3) 0.54777(12) 0.1041(6)
C170_2 C 0.1812(3) 0.55773(13) 0.1370(8)
H117_2 H 0.2074 0.5504 0.1639
C171_2 C 0.1812(3) 0.57853(13) 0.1291(8)
H118_2 H 0.2085 0.5850 0.1494
C172_2 C 0.1092(3) 0.58052(12) 0.0724(7)
H119_2 H 0.0837 0.5885 0.0529
C173_2 C 0.1055(3) 0.56009(12) 0.0745(7)
H120_2 H 0.0777 0.5541 0.0551
N29_2 N 0.1746(2) 0.45329(9) 0.2089(5)
N30_2 N 0.0923(2) 0.47063(10) 0.1318(5)
N31_2 N 0.0521(4) 0.38323(13) 0.2699(7)
N39_2 N 0.1210(2) 0.49424(9) 0.0108(5)
N40_2 N 0.1626(2) 0.49524(9) 0.2100(5)
N41_2 N 0.1475(2) 0.59009(10) 0.0967(5)
N46_2 N 0.1699(2) 0.64023(10) 0.2310(5)
H162_2 H 0.0652 0.0045 0.0643
N63_2 N 0.0134(2) 0.21026(9) 0.3883(4)
S4_2 S 0.02471(9) 0.62855(5) 0.0215(2)
C256_2 C 0.0097(5) 0.6275(2) 0.1267(12)
F10_2 F 0.0282(3) 0.61306(15) 0.1806(8)
F12_2 F 0.0172(3) 0.64578(13) 0.1654(6)
O11_2 O 0.0697(2) 0.62965(11) 0.0539(5)
S6_2 S 0.28202(8) 0.61705(3) 0.16311(17)
C258_2 C 0.3076(4) 0.61803(17) 0.0752(9)
F16_2 F 0.3005(2) 0.63550(11) 0.0283(5)
F17_2 F 0.3507(2) 0.61634(10) 0.1158(5)
F18_2 F 0.2936(3) 0.60406(12) 0.0095(5)
O16_2 O 0.3009(2) 0.63327(9) 0.2259(5)
O17_2 O 0.2371(2) 0.62010(10) 0.1069(4)
O18_2 O 0.2930(2) 0.59696(9) 0.2035(5)
Ag3_2 Ag -0.0000 0.117230(14) 0.7500
C103_2 C -0.0000 0.01827(16) 0.7500
C104_2 C -0.0000 0.04142(18) 0.7500
C105_2 C 0.0270(3) 0.05191(12) 0.7137(7)
H74_2 H 0.0455 0.0450 0.6877
C106_2 C 0.0260(3) 0.07280(13) 0.7167(6)
H75_2 H 0.0451 0.0801 0.6936
N23_2 N -0.0000 0.08344(15) 0.7500
C107_2 C 0.0495(3) 0.14920(13) 0.9109(7)
H76_2 H 0.0693 0.1500 0.8780
C108_2 C 0.0522(3) 0.16325(12) 0.9827(6)
H77_2 H 0.0735 0.1736 0.9977
N24_2 N 0.0202(3) 0.13477(10) 0.8873(5)
H106_2 H 0.2773 0.0046 0.3596
C160_2 C 0.1020(3) 0.49058(13) 0.9176(6)
H111_2 H 0.0968 0.4774 0.8908
C161_2 C 0.0905(3) 0.50841(12) 0.8632(7)
H112_2 H 0.0757 0.5095 0.7958
C162_2 C 0.1049(3) 0.52391(12) 0.9271(7)
H113_2 H 0.1027 0.5380 0.9124
N51_2 N 0.1488(2) 0.64348(9) 0.9584(5)
C231_2 C 0.0516(3) 0.00297(13) 0.9968(7)
C232_2 C 0.0379(3) 0.01789(13) 0.9305(6)
H163_2 H 0.0410 0.0320 0.9431
C233_2 C 0.0179(3) 0.00878(12) 0.8386(6)
C239_2 C 0.0045(3) 0.14632(13) 0.4887(7)
H168_2 H 0.0232 0.1446 0.4534
C240_2 C 0.0058(3) 0.13276(13) 0.5620(6)
H169_2 H 0.0256 0.1218 0.5761
C246_2 C 0.0031(3) 0.19451(11) 0.4407(5)
C247_2 C 0.0253(2) 0.19841(12) 0.5391(6)
H173_2 H 0.0251 0.1901 0.5910
C248_2 C 0.0469(3) 0.21606(13) 0.5468(6)
H174_2 H 0.0638 0.2227 0.6046
C249_2 C 0.0394(2) 0.22288(12) 0.4514(5)
H175_2 H 0.0515 0.2348 0.4354
O10_2 O 0.0111(3) 0.60553(14) 0.9886(7)
O12_2 O 0.0009(2) 0.64261(9) 0.9545(5)
Fe3_2 Fe 0.0000 0.96712(2) 0.7500
C96_2 C 0.0269(3) 0.91649(13) 0.9340(7)
H68_2 H 0.0186 0.9054 0.9644
C97_2 C 0.0671(3) 0.92057(13) 0.9350(7)
H69_2 H 0.0926 0.9131 0.9671
C98_2 C 0.0637(3) 0.93819(13) 0.8788(7)
H70_2 H 0.0872 0.9443 0.8669
N21_2 N 0.0235(2) 0.94505(10) 0.8449(5)
C146_2 C 0.4075(3) 0.94244(13) 0.5189(7)
H101_2 H 0.4337 0.9480 0.5178
C147_2 C 0.4036(3) 0.92348(13) 0.5625(6)
H102_2 H 0.4265 0.9146 0.5958
C148_2 C 0.3615(3) 0.92072(13) 0.5474(7)
H103_2 H 0.3490 0.9093 0.5665
C149_2 C 0.3392(3) 0.93814(12) 0.4975(6)
C150_2 C 0.2965(3) 0.94276(12) 0.4761(6)
C151_2 C 0.2776(3) 0.96108(12) 0.4391(6)
C152_2 C 0.2353(3) 0.96799(14) 0.4283(7)
H104_2 H 0.2137 0.9607 0.4428
C153_2 C 0.2322(3) 0.98771(14) 0.3920(6)
H105_2 H 0.2079 0.9964 0.3769
C154_2 C 0.2709(3) 0.99207(12) 0.3824(6)
C155_2 C 0.2684(3) 0.92654(12) 0.4921(6)
C156_2 C 0.2571(3) 0.91017(13) 0.4315(7)
H107_2 H 0.2670 0.9093 0.3790
C157_2 C 0.2316(3) 0.89503(14) 0.4460(7)
H108_2 H 0.2235 0.8842 0.4011
C158_2 C 0.2260(3) 0.91118(15) 0.5762(7)
H109_2 H 0.2142 0.9120 0.6257
C159_2 C 0.2515(3) 0.92719(15) 0.5653(7)
H110_2 H 0.2573 0.9385 0.6076
N38_2 N 0.2177(2) 0.89477(10) 0.5199(5)
Ag10_2 Ag 0.16889(2) 0.870830(10) 0.52280(5)
Fe8_2 Fe 0.16609(3) 0.721249(15) 0.59316(7)
C174_2 C 0.2367(2) 0.69146(12) 0.6854(6)
H121_2 H 0.2455 0.6982 0.7457
C175_2 C 0.2529(3) 0.67254(11) 0.6690(6)
H122_2 H 0.2743 0.6646 0.7148
C176_2 C 0.2322(2) 0.66808(11) 0.5756(6)
H123_2 H 0.2358 0.6561 0.5440
C177_2 C 0.2037(2) 0.68450(11) 0.5320(6)
C178_2 C 0.1787(2) 0.68704(12) 0.4371(6)
C179_2 C 0.1545(3) 0.70468(11) 0.3983(5)
C180_2 C 0.1316(3) 0.70877(13) 0.3008(6)
H124_2 H 0.1295 0.7004 0.2475
C181_2 C 0.1125(2) 0.72763(12) 0.2984(6)
H125_2 H 0.0951 0.7346 0.2425
C182_2 C 0.1237(2) 0.73432(12) 0.3923(6)
H126_2 H 0.1150 0.7469 0.4107
C183_2 C 0.1772(3) 0.67066(12) 0.3677(6)
C184_2 C 0.2127(3) 0.66413(12) 0.3491(6)
H127_2 H 0.2401 0.6699 0.3830
C185_2 C 0.2089(3) 0.64911(12) 0.2807(6)
H128_2 H 0.2338 0.6449 0.2683
C186_2 C 0.1358(3) 0.64624(14) 0.2535(7)
H129_2 H 0.1089 0.6398 0.2217
C187_2 C 0.1374(3) 0.66128(14) 0.3203(7)
H130_2 H 0.1124 0.6651 0.3334
C188_2 C 0.2082(2) 0.73472(12) 0.7923(6)
H131_2 H 0.2180 0.7468 0.7721
C189_2 C 0.2187(2) 0.72893(12) 0.8880(6)
H132_2 H 0.2361 0.7362 0.9430
C190_2 C 0.1991(2) 0.71066(12) 0.8870(5)
H133_2 H 0.2008 0.7026 0.9412
C191_2 C 0.1756(2) 0.70608(11) 0.7891(6)
C192_2 C 0.1503(2) 0.68909(11) 0.7540(5)
C193_2 C 0.1252(2) 0.68604(11) 0.6586(6)
C194_2 C 0.0947(3) 0.67011(11) 0.6195(6)
H134_2 H 0.0890 0.6589 0.6534
C195_2 C 0.0753(3) 0.67423(12) 0.5222(6)
H135_2 H 0.0537 0.6664 0.4761
C196_2 C 0.0937(2) 0.69203(11) 0.5057(6)
H136_2 H 0.0859 0.6983 0.4443
C197_2 C 0.1490(3) 0.67325(10) 0.8242(5)
C198_2 C 0.1826(3) 0.65981(13) 0.8612(6)
H137_2 H 0.2070 0.6605 0.8421
C199_2 C 0.1805(3) 0.64539(13) 0.9256(7)
H138_2 H 0.2038 0.6361 0.9483
C200_2 C 0.1158(3) 0.65641(13) 0.9217(7)
H139_2 H 0.0919 0.6552 0.9426
C201_2 C 0.1143(3) 0.67146(12) 0.8553(6)
H140_2 H 0.0902 0.6803 0.8318
C202_2 C 0.0827(2) 0.73968(11) 0.5721(5)
H141_2 H 0.0706 0.7268 0.5753
C203_2 C 0.0591(3) 0.75762(12) 0.5545(6)
H142_2 H 0.0293 0.7591 0.5437
C204_2 C 0.0876(2) 0.77259(11) 0.5560(5)
H143_2 H 0.0812 0.7866 0.5464
C205_2 C 0.1284(2) 0.76357(11) 0.5743(5)
C206_2 C 0.1656(2) 0.77291(11) 0.5786(5)
C207_2 C 0.2046(2) 0.76287(11) 0.5914(5)
C208_2 C 0.2458(2) 0.77145(11) 0.6052(5)
H144_2 H 0.2519 0.7855 0.6039
C209_2 C 0.2750(3) 0.75619(12) 0.6207(5)
H145_2 H 0.3049 0.7574 0.6322
C210_2 C 0.2513(2) 0.73815(12) 0.6160(5)
H146_2 H 0.2634 0.7250 0.6238
C211_2 C 0.1654(2) 0.79530(11) 0.5657(6)
C212_2 C 0.1638(3) 0.80838(11) 0.6373(6)
H147_2 H 0.1619 0.8031 0.6951
C213_2 C 0.1650(2) 0.82882(12) 0.6248(6)
H148_2 H 0.1637 0.8375 0.6746
C214_2 C 0.1681(3) 0.82452(12) 0.4745(6)
H149_2 H 0.1686 0.8299 0.4157
C215_2 C 0.1676(2) 0.80388(12) 0.4848(6)
H150_2 H 0.1687 0.7954 0.4341
N42_2 N 0.2073(2) 0.69866(9) 0.6051(4)
N43_2 N 0.14874(19) 0.72050(9) 0.4542(4)
N47_2 N 0.1829(2) 0.72118(9) 0.7331(4)
N48_2 N 0.12330(18) 0.69953(9) 0.5847(4)
N52_2 N 0.12371(17) 0.74242(9) 0.5838(4)
N53_2 N 0.20971(18) 0.74194(9) 0.5995(4)
N54_2 N 0.16795(19) 0.83731(10) 0.5435(5)
C216_2 C 0.0884(3) 0.90285(12) 0.4811(7)
H151_2 H 0.0866 0.9023 0.4160
C217_2 C 0.0651(3) 0.91766(13) 0.5068(6)
H152_2 H 0.0481 0.9270 0.4603
C218_2 C 0.0668(3) 0.91871(12) 0.5998(6)
C219_2 C 0.0918(3) 0.90442(14) 0.6643(7)
H153_2 H 0.0938 0.9044 0.7296
C220_2 C 0.1135(3) 0.89034(13) 0.6312(7)
H154_2 H 0.1300 0.8805 0.6757
C221_2 C 0.0448(3) 0.93461(11) 0.6362(6)
C222_2 C 0.0694(3) 0.95162(12) 0.6820(6)
C223_2 C 0.1125(3) 0.95564(12) 0.6926(6)
H155_2 H 0.1306 0.9475 0.6704
C224_2 C 0.1231(3) 0.97336(13) 0.7403(7)
H156_2 H 0.1499 0.9802 0.7565
C225_2 C 0.0869(3) 0.97980(13) 0.7618(6)
H157_2 H 0.0862 0.9917 0.7972
C226_2 C 0.0007(3) 0.93200(12) 0.6214(6)
C230_2 C 0.0415(3) 0.98429(14) 0.9442(6)
H161_2 H 0.0481 0.9712 0.9721
N55_2 N 0.1132(2) 0.88927(10) 0.5427(5)
N56_2 N 0.0535(2) 0.96681(10) 0.7251(5)
N58_2 N 0.0211(2) 0.98793(10) 0.8493(5)
S5_2 S 0.11637(9) 0.86711(4) 0.25640(18)
C257_2 C 0.1367(4) 0.87148(15) 0.1600(8)
F13_2 F 0.1072(2) 0.87411(12) 0.0768(4)
F14_2 F 0.1625(2) 0.85653(10) 0.1518(5)
F15_2 F 0.1615(2) 0.88795(10) 0.1750(5)
O13_2 O 0.1548(2) 0.86578(12) 0.3396(5)
O14_2 O 0.0940(2) 0.84824(10) 0.2303(5)
O15_2 O 0.0901(2) 0.88403(10) 0.2514(5)
Ag1_2 Ag 0.84545(2) 0.623730(9) 0.41401(4)
C1_2 C 0.7840(3) 0.44935(12) 0.2490(6)
H1_2 H 0.7616 0.4578 0.2537
C2_2 C 0.7769(4) 0.43129(14) 0.1965(7)
H2_2 H 0.7497 0.4254 0.1611
C3_2 C 0.8166(4) 0.42372(14) 0.2060(7)
H3_2 H 0.8225 0.4116 0.1787
C4_2 C 0.8471(3) 0.43764(12) 0.2649(6)
C5_2 C 0.8916(3) 0.43765(12) 0.2873(6)
C6_2 C 0.9197(3) 0.45308(13) 0.3298(6)
C7_2 C 0.9650(3) 0.45516(15) 0.3470(7)
H4_2 H 0.9824 0.4453 0.3313
C8_2 C 0.9789(3) 0.47315(14) 0.3886(7)
C9_2 C 0.9431(3) 0.48246(13) 0.4021(7)
H6_2 H 0.9439 0.4953 0.4311
C10_2 C 0.9105(3) 0.41879(13) 0.2617(7)
C11_2 C 0.9122(3) 0.40173(13) 0.3162(8)
H7_2 H 0.9003 0.4017 0.3656
C12_2 C 0.9317(3) 0.38477(15) 0.2970(9)
H8_2 H 0.9335 0.3732 0.3362
C13_2 C 0.9468(7) 0.3998(2) 0.1795(11)
H9_2 H 0.9595 0.3995 0.1314
C14_2 C 0.9282(6) 0.41746(19) 0.1942(10)
H10_2 H 0.9279 0.4289 0.1555
H16_2 H 0.7227 0.0046 0.1404
C29_2 C 0.8980(3) 0.49058(13) 0.5824(6)
H21_2 H 0.9032 0.4774 0.6092
C30_2 C 0.9095(3) 0.50841(12) 0.6368(7)
H22_2 H 0.9243 0.5095 0.7042
C31_2 C 0.8951(3) 0.52391(12) 0.5729(7)
H23_2 H 0.8973 0.5380 0.5876
C32_2 C 0.8759(3) 0.51513(12) 0.4801(6)
C33_2 C 0.8588(2) 0.52553(12) 0.3931(6)
C34_2 C 0.8423(3) 0.51631(12) 0.3032(7)
C35_2 C 0.8275(3) 0.52548(12) 0.2113(6)
H24_2 H 0.8270 0.5396 0.1986
C36_2 C 0.8143(3) 0.51079(13) 0.1454(7)
H25_2 H 0.8028 0.5125 0.0776
C37_2 C 0.8207(3) 0.49234(13) 0.1961(6)
H26_2 H 0.8139 0.4794 0.1665
C38_2 C 0.8586(3) 0.54777(12) 0.3959(6)
C39_2 C 0.8188(3) 0.55773(13) 0.3630(8)
H27_2 H 0.7926 0.5504 0.3361
C40_2 C 0.8188(3) 0.57853(13) 0.3709(8)
H28_2 H 0.7915 0.5850 0.3506
C41_2 C 0.8908(3) 0.58052(12) 0.4276(7)
H29_2 H 0.9163 0.5885 0.4471
C42_2 C 0.8945(3) 0.56009(12) 0.4255(7)
H30_2 H 0.9223 0.5541 0.4449
N1_2 N 0.8254(2) 0.45329(9) 0.2911(5)
N2_2 N 0.9077(2) 0.47063(10) 0.3682(5)
N3_2 N 0.9479(4) 0.38323(13) 0.2301(7)
N7_2 N 0.8790(2) 0.49424(9) 0.4892(5)
N8_2 N 0.8374(2) 0.49524(9) 0.2900(5)
N9_2 N 0.8525(2) 0.59009(10) 0.4033(5)
Ag4_3 Ag 1.0000 0.359381(15) 0.2500
Fe4_3 Fe 1.0000 0.21044(2) 0.2500
C110_2 C 0.9955(3) 0.14632(13) 0.0113(7)
H78_2 H 0.9768 0.1446 0.0466
C117_2 C 0.9969(3) 0.19451(11) 0.0593(5)
C120_2 C 0.9606(2) 0.22288(12) 0.0486(5)
H85_2 H 0.9485 0.2348 0.0646
C125_3 C 1.0000 0.26177(15) 0.2500
C126_3 C 1.0000 0.28428(17) 0.2500
N26_2 N 0.9866(2) 0.21026(9) 0.1117(4)
N28_3 N 1.0000 0.32633(13) 0.2500
S1_2 S 0.97529(9) 0.62855(5) 0.4785(2)
C129_2 C 0.9903(5) 0.6275(2) 0.3733(12)
F1_2 F 0.9718(3) 0.61306(15) 0.3194(8)
F3_2 F 0.9828(3) 0.64578(13) 0.3346(6)
O1_2 O 0.9889(3) 0.60553(14) 0.5114(7)
O2_2 O 0.9303(2) 0.62965(11) 0.4461(5)
O3_2 O 0.9991(2) 0.64261(9) 0.5455(5)
S3_2 S 0.71798(8) 0.61705(3) 0.33689(17)
C131_2 C 0.6924(4) 0.61803(17) 0.4248(9)
F7_2 F 0.6995(2) 0.63550(11) 0.4717(5)
F8_2 F 0.6493(2) 0.61634(10) 0.3842(5)
F9_2 F 0.7064(3) 0.60406(12) 0.4905(5)
O7_2 O 0.6991(2) 0.63327(9) 0.2741(5)
O8_2 O 0.7629(2) 0.62010(10) 0.3931(4)
O9_2 O 0.7070(2) 0.59696(9) 0.2965(5)
H95_2 H 0.9928 0.4785 0.0944
N45_2 N 0.8301(2) 0.64023(10) 0.2690(5)
N50_2 N 0.8512(2) 0.64348(9) 0.5416(5)
C250_2 C 0.9136(3) 0.22779(12) 0.2140(6)
H176_2 H 0.9012 0.2147 0.2111
C251_2 C 0.8900(2) 0.24613(12) 0.1971(5)
H177_2 H 0.8598 0.2476 0.1809
C252_2 C 0.9192(2) 0.26125(12) 0.2086(5)
H178_2 H 0.9128 0.2753 0.2019
C253_2 C 0.9613(2) 0.25237(11) 0.2326(5)
C254_2 C 0.9948(2) 0.29523(11) 0.3250(6)
H179_2 H 0.9909 0.2883 0.3773
C255_2 C 0.9952(2) 0.31588(13) 0.3239(6)
H180_2 H 0.9921 0.3231 0.3762
N61_2 N 0.95734(19) 0.18830(9) 0.2313(4)
N64_2 N 0.95591(18) 0.23125(9) 0.2346(4)
F11_2 F 0.9656(3) 0.62448(14) 0.0902(9)
Ag3_3 Ag 1.0000 0.117230(14) 0.7500
C100_2 C 0.9484(3) 0.00297(13) 0.5032(7)
H72_2 H 0.9348 0.0045 0.4357
C101_2 C 0.9621(3) 0.01789(13) 0.5695(6)
H73_2 H 0.9590 0.0320 0.5569
C102_2 C 0.9821(3) 0.00878(12) 0.6614(6)
C103_3 C 1.0000 0.01827(16) 0.7500
C104_3 C 1.0000 0.04142(18) 0.7500
N23_3 N 1.0000 0.08344(15) 0.7500
C111_2 C 0.9942(3) 0.13276(13) 0.9380(6)
H79_2 H 0.9744 0.1218 0.9239
C118_2 C 0.9747(2) 0.19841(12) 0.9609(6)
H83_2 H 0.9749 0.1901 0.9090
C119_2 C 0.9531(3) 0.21606(13) 0.9532(6)
H84_2 H 0.9362 0.2227 0.8954
C234_2 C 0.9730(3) 0.05191(12) 0.7863(7)
H164_2 H 0.9545 0.0450 0.8123
C235_2 C 0.9740(3) 0.07280(13) 0.7833(6)
H165_2 H 0.9549 0.0801 0.8064
C236_2 C 0.9505(3) 0.14920(13) 0.5891(7)
H166_2 H 0.9307 0.1500 0.6220
C237_2 C 0.9478(3) 0.16325(12) 0.5173(6)
H167_2 H 0.9265 0.1736 0.5023
C238_2 C 0.9757(3) 0.16221(12) 0.4685(6)
C241_2 C 0.9288(3) 0.18153(12) 0.1479(6)
H170_2 H 0.9235 0.1877 0.0872
C242_2 C 0.9074(3) 0.16385(12) 0.1630(6)
H171_2 H 0.8858 0.1563 0.1155
C243_2 C 0.9241(3) 0.15990(12) 0.2586(6)
H172_2 H 0.9166 0.1488 0.2900
C244_2 C 0.9547(3) 0.17525(11) 0.3038(6)
C245_2 C 0.9772(3) 0.17837(12) 0.3989(6)
N59_2 N 0.9798(3) 0.13477(10) 0.6127(5)
C18_2 C 0.6608(3) 0.93814(12) 0.0025(6)
C19_2 C 0.7035(3) 0.94276(12) 0.0239(6)
C20_2 C 0.7224(3) 0.96108(12) 0.0609(6)
C21_2 C 0.7647(3) 0.96799(14) 0.0717(7)
H14_2 H 0.7863 0.9607 0.0572
C22_2 C 0.7678(3) 0.98771(14) 0.1080(6)
H15_2 H 0.7921 0.9964 0.1231
C23_2 C 0.7291(3) 0.99207(12) 0.1176(6)
C24_2 C 0.7316(3) 0.92654(12) 0.0079(6)
C25_2 C 0.7429(3) 0.91017(13) 0.0685(7)
H17_2 H 0.7330 0.9093 0.1210
C26_2 C 0.7684(3) 0.89503(14) 0.0540(7)
H18_2 H 0.7765 0.8842 0.0989
C47_2 C 0.8213(2) 0.68704(12) 0.0629(6)
C48_2 C 0.8455(3) 0.70468(11) 0.1017(5)
C49_2 C 0.8684(3) 0.70877(13) 0.1992(6)
H34_2 H 0.8705 0.7004 0.2525
C50_2 C 0.8875(2) 0.72763(12) 0.2016(6)
H35_2 H 0.9049 0.7346 0.2575
C51_2 C 0.8763(2) 0.73432(12) 0.1077(6)
H36_2 H 0.8850 0.7469 0.0893
C52_2 C 0.8228(3) 0.67066(12) 0.1323(6)
C53_2 C 0.7873(3) 0.66413(12) 0.1509(6)
H37_2 H 0.7599 0.6699 0.1170
C54_2 C 0.7911(3) 0.64911(12) 0.2193(6)
H38_2 H 0.7662 0.6449 0.2317
C55_2 C 0.8642(3) 0.64624(14) 0.2465(7)
H39_2 H 0.8911 0.6398 0.2783
C56_2 C 0.8626(3) 0.66128(14) 0.1797(7)
H40_2 H 0.8876 0.6651 0.1666
H45_2 H 0.9463 0.6664 0.0239
H46_2 H 0.9141 0.6983 0.0557
C83_2 C 0.8319(3) 0.82452(12) 0.0255(6)
H59_2 H 0.8314 0.8299 0.0843
C84_2 C 0.8324(2) 0.80388(12) 0.0152(6)
H60_2 H 0.8313 0.7954 0.0659
N11_2 N 0.85126(19) 0.72050(9) 0.0458(4)
C85_2 C 0.9116(3) 0.90285(12) 0.0189(7)
H61_2 H 0.9134 0.9023 0.0840
H62_2 H 0.9519 0.9270 0.0397
S2_2 S 0.88363(9) 0.86711(4) 0.24360(18)
C130_2 C 0.8633(4) 0.87148(15) 0.3400(8)
F4_2 F 0.8928(2) 0.87411(12) 0.4232(4)
F5_2 F 0.8375(2) 0.85653(10) 0.3482(5)
F6_2 F 0.8385(2) 0.88795(10) 0.3250(5)
O4_2 O 0.8452(2) 0.86578(12) 0.1604(5)
O5_2 O 0.9060(2) 0.84824(10) 0.2697(5)
O6_2 O 0.9099(2) 0.88403(10) 0.2486(5)
C15_2 C 0.5925(3) 0.94244(13) 0.9811(7)
H11_2 H 0.5663 0.9480 0.9822
C16_2 C 0.5964(3) 0.92348(13) 0.9375(6)
H12_2 H 0.5735 0.9146 0.9042
C17_2 C 0.6385(3) 0.92072(13) 0.9526(7)
H13_2 H 0.6510 0.9093 0.9335
C27_2 C 0.7740(3) 0.91118(15) 0.9238(7)
H19_2 H 0.7858 0.9120 0.8743
C28_2 C 0.7485(3) 0.92719(15) 0.9347(7)
H20_2 H 0.7427 0.9385 0.8924
N6_2 N 0.7823(2) 0.89477(10) 0.9801(5)
Ag2_2 Ag 0.83111(2) 0.870830(10) 0.97720(5)
Fe2_2 Fe 0.83391(3) 0.721249(15) 0.90684(7)
C43_2 C 0.7633(2) 0.69146(12) 0.8146(6)
H31_2 H 0.7545 0.6982 0.7543
C44_2 C 0.7471(3) 0.67254(11) 0.8310(6)
H32_2 H 0.7257 0.6646 0.7852
C45_2 C 0.7678(2) 0.66808(11) 0.9244(6)
H33_2 H 0.7642 0.6561 0.9560
C46_2 C 0.7963(2) 0.68450(11) 0.9680(6)
C57_2 C 0.7918(2) 0.73472(12) 0.7077(6)
H41_2 H 0.7820 0.7468 0.7279
C58_2 C 0.7813(2) 0.72893(12) 0.6120(6)
H42_2 H 0.7639 0.7362 0.5570
C59_2 C 0.8009(2) 0.71066(12) 0.6130(5)
H43_2 H 0.7992 0.7026 0.5588
C60_2 C 0.8244(2) 0.70608(11) 0.7109(6)
C61_2 C 0.8497(2) 0.68909(11) 0.7460(5)
C62_2 C 0.8748(2) 0.68604(11) 0.8414(6)
C63_2 C 0.9053(3) 0.67011(11) 0.8805(6)
H44_2 H 0.9110 0.6589 0.8466
C64_2 C 0.9247(3) 0.67423(12) 0.9778(6)
C65_2 C 0.9063(2) 0.69203(11) 0.9943(6)
C66_2 C 0.8510(3) 0.67325(10) 0.6758(5)
C67_2 C 0.8174(3) 0.65981(13) 0.6388(6)
H47_2 H 0.7930 0.6605 0.6579
C68_2 C 0.8195(3) 0.64539(13) 0.5744(7)
H48_2 H 0.7962 0.6361 0.5517
C69_2 C 0.8842(3) 0.65641(13) 0.5783(7)
H49_2 H 0.9081 0.6552 0.5574
C70_2 C 0.8857(3) 0.67146(12) 0.6447(6)
H50_2 H 0.9098 0.6803 0.6682
C71_2 C 0.9173(2) 0.73968(11) 0.9279(5)
H51_2 H 0.9294 0.7268 0.9247
C72_2 C 0.9409(3) 0.75762(12) 0.9455(6)
H52_2 H 0.9707 0.7591 0.9563
C73_2 C 0.9124(2) 0.77259(11) 0.9440(5)
H53_2 H 0.9188 0.7866 0.9536
C74_2 C 0.8716(2) 0.76357(11) 0.9257(5)
C75_2 C 0.8344(2) 0.77291(11) 0.9214(5)
C76_2 C 0.7954(2) 0.76287(11) 0.9086(5)
C77_2 C 0.7542(2) 0.77145(11) 0.8948(5)
H54_2 H 0.7481 0.7855 0.8961
C78_2 C 0.7250(3) 0.75619(12) 0.8793(5)
H55_2 H 0.6951 0.7574 0.8678
C79_2 C 0.7487(2) 0.73815(12) 0.8840(5)
H56_2 H 0.7366 0.7250 0.8762
C80_2 C 0.8346(2) 0.79530(11) 0.9343(6)
C81_2 C 0.8362(3) 0.80838(11) 0.8627(6)
H57_2 H 0.8381 0.8031 0.8049
C82_2 C 0.8350(2) 0.82882(12) 0.8752(6)
H58_2 H 0.8363 0.8375 0.8254
N10_2 N 0.7927(2) 0.69866(9) 0.8949(4)
N13_2 N 0.8171(2) 0.72118(9) 0.7669(4)
N14_2 N 0.87670(18) 0.69953(9) 0.9153(4)
N16_2 N 0.87629(17) 0.74242(9) 0.9162(4)
N17_2 N 0.79029(18) 0.74194(9) 0.9005(4)
N18_2 N 0.83205(19) 0.83731(10) 0.9565(5)
Fe3_3 Fe 1.0000 0.96712(2) 0.7500
C86_2 C 0.9349(3) 0.91766(13) 0.9932(6)
C87_2 C 0.9332(3) 0.91871(12) 0.9002(6)
C88_2 C 0.9082(3) 0.90442(14) 0.8357(7)
H63_2 H 0.9062 0.9044 0.7704
C89_2 C 0.8865(3) 0.89034(13) 0.8688(7)
H64_2 H 0.8700 0.8805 0.8243
C90_2 C 0.9552(3) 0.93461(11) 0.8638(6)
C91_2 C 0.9306(3) 0.95162(12) 0.8180(6)
C92_2 C 0.8875(3) 0.95564(12) 0.8074(6)
H65_2 H 0.8694 0.9475 0.8296
C93_2 C 0.8769(3) 0.97336(13) 0.7597(7)
H66_2 H 0.8501 0.9802 0.7435
C94_2 C 0.9131(3) 0.97980(13) 0.7382(6)
H67_2 H 0.9138 0.9917 0.7028
C95_2 C 0.9993(3) 0.93200(12) 0.8786(6)
C99_2 C 0.9585(3) 0.98429(14) 0.5558(6)
H71_2 H 0.9519 0.9712 0.5279
N19_2 N 0.8868(2) 0.88927(10) 0.9573(5)
N20_2 N 0.9465(2) 0.96681(10) 0.7749(5)
N22_2 N 0.9789(2) 0.98793(10) 0.6507(5)
C227_2 C 0.9731(3) 0.91649(13) 0.5660(7)
H158_2 H 0.9814 0.9054 0.5356
C228_2 C 0.9329(3) 0.92057(13) 0.5650(7)
H159_2 H 0.9074 0.9131 0.5329
C229_2 C 0.9363(3) 0.93819(13) 0.6212(7)
H160_2 H 0.9128 0.9443 0.6331
N57_2 N 0.9765(2) 0.94505(10) 0.6551(5)
C15_3 C 0.9075(3) 0.55756(13) 0.0189(7)
H11_3 H 0.9337 0.5520 0.0178
C16_3 C 0.9036(3) 0.57652(13) 0.0625(6)
H12_3 H 0.9265 0.5854 0.0958
C17_3 C 0.8615(3) 0.57928(13) 0.0474(7)
H13_3 H 0.8490 0.5907 0.0665
C27_3 C 0.7260(3) 0.58882(15) 0.0762(7)
H19_3 H 0.7142 0.5880 0.1257
C28_3 C 0.7515(3) 0.57281(15) 0.0653(7)
H20_3 H 0.7573 0.5615 0.1076
N6_3 N 0.7177(2) 0.60523(10) 0.0199(5)
Ag2_3 Ag 0.66889(2) 0.629170(10) 0.02280(5)
Fe2_3 Fe 0.66609(3) 0.778751(15) 0.09316(7)
C43_3 C 0.7367(2) 0.80854(12) 0.1854(6)
H31_3 H 0.7455 0.8018 0.2457
C44_3 C 0.7529(3) 0.82746(11) 0.1690(6)
H32_3 H 0.7743 0.8354 0.2148
C45_3 C 0.7322(2) 0.83192(11) 0.0756(6)
H33_3 H 0.7358 0.8439 0.0440
C46_3 C 0.7037(2) 0.81550(11) 0.0320(6)
C57_3 C 0.7082(2) 0.76528(12) 0.2923(6)
H41_3 H 0.7180 0.7532 0.2721
C58_3 C 0.7187(2) 0.77107(12) 0.3880(6)
H42_3 H 0.7361 0.7638 0.4430
C59_3 C 0.6991(2) 0.78934(12) 0.3870(5)
H43_3 H 0.7008 0.7974 0.4412
C60_3 C 0.6756(2) 0.79392(11) 0.2891(6)
C61_3 C 0.6503(2) 0.81091(11) 0.2540(5)
C62_3 C 0.6252(2) 0.81396(11) 0.1586(6)
C63_3 C 0.5947(3) 0.82989(11) 0.1195(6)
H44_3 H 0.5890 0.8411 0.1534
C64_3 C 0.5753(3) 0.82577(12) 0.0222(6)
C65_3 C 0.5937(2) 0.80797(11) 0.0057(6)
C66_3 C 0.6490(3) 0.82675(10) 0.3242(5)
C67_3 C 0.6826(3) 0.84019(13) 0.3612(6)
H47_3 H 0.7070 0.8395 0.3421
C68_3 C 0.6805(3) 0.85461(13) 0.4256(7)
H48_3 H 0.7038 0.8639 0.4483
C69_3 C 0.6158(3) 0.84359(13) 0.4217(7)
H49_3 H 0.5919 0.8448 0.4426
C70_3 C 0.6143(3) 0.82854(12) 0.3553(6)
H50_3 H 0.5902 0.8197 0.3318
C71_3 C 0.5827(2) 0.76032(11) 0.0721(5)
H51_3 H 0.5706 0.7732 0.0753
C72_3 C 0.5591(3) 0.74238(12) 0.0545(6)
H52_3 H 0.5293 0.7409 0.0437
C73_3 C 0.5876(2) 0.72741(11) 0.0560(5)
H53_3 H 0.5812 0.7134 0.0464
C74_3 C 0.6284(2) 0.73643(11) 0.0743(5)
C75_3 C 0.6656(2) 0.72709(11) 0.0786(5)
C76_3 C 0.7046(2) 0.73713(11) 0.0914(5)
C77_3 C 0.7458(2) 0.72855(11) 0.1052(5)
H54_3 H 0.7519 0.7145 0.1039
C78_3 C 0.7750(3) 0.74381(12) 0.1207(5)
H55_3 H 0.8049 0.7426 0.1322
C79_3 C 0.7513(2) 0.76185(12) 0.1160(5)
H56_3 H 0.7634 0.7750 0.1238
C80_3 C 0.6654(2) 0.70470(11) 0.0657(6)
C81_3 C 0.6638(3) 0.69162(11) 0.1373(6)
H57_3 H 0.6619 0.6969 0.1951
C82_3 C 0.6650(2) 0.67118(12) 0.1248(6)
H58_3 H 0.6637 0.6625 0.1746
N10_3 N 0.7073(2) 0.80134(9) 0.1051(4)
N13_3 N 0.6829(2) 0.77882(9) 0.2331(4)
N14_3 N 0.62330(18) 0.80047(9) 0.0847(4)
N15 N 0.6488(2) 0.85652(9) 0.4584(5)
N16_3 N 0.62371(17) 0.75758(9) 0.0838(4)
N17_3 N 0.70971(18) 0.75806(9) 0.0995(4)
N18_3 N 0.66795(19) 0.66269(10) 0.0435(5)
Ag3_4 Ag 0.5000 0.382770(14) 0.2500
Fe3_4 Fe 0.5000 0.53288(2) 0.2500
C86_3 C 0.5651(3) 0.58234(13) 0.0068(6)
C87_3 C 0.5668(3) 0.58129(12) 0.0998(6)
C88_3 C 0.5918(3) 0.59558(14) 0.1643(7)
H63_3 H 0.5938 0.5956 0.2296
C89_3 C 0.6135(3) 0.60966(13) 0.1312(7)
H64_3 H 0.6300 0.6195 0.1757
C90_3 C 0.5448(3) 0.56539(11) 0.1362(6)
C91_3 C 0.5694(3) 0.54838(12) 0.1820(6)
C92_3 C 0.6125(3) 0.54436(12) 0.1926(6)
H65_3 H 0.6306 0.5525 0.1704
C93_3 C 0.6231(3) 0.52664(13) 0.2403(7)
H66_3 H 0.6499 0.5198 0.2565
C94_3 C 0.5869(3) 0.52020(13) 0.2618(6)
H67_3 H 0.5862 0.5083 0.2972
C95_3 C 0.5007(3) 0.56800(12) 0.1214(6)
C96_3 C 0.4731(3) 0.58351(13) 0.0660(7)
H68_3 H 0.4814 0.5946 0.0356
C97_3 C 0.4329(3) 0.57943(13) 0.0650(7)
H69_3 H 0.4074 0.5869 0.0329
C98_3 C 0.4363(3) 0.56181(13) 0.1212(7)
H70_3 H 0.4128 0.5557 0.1331
C99_3 C 0.5415(3) 0.51571(14) 0.4442(6)
H71_3 H 0.5481 0.5288 0.4721
C100_3 C 0.5516(3) 0.49703(13) 0.4968(7)
H72_3 H 0.5652 0.4955 0.5643
C101_3 C 0.5379(3) 0.48211(13) 0.4305(6)
H73_3 H 0.5410 0.4680 0.4431
C102_3 C 0.5179(3) 0.49122(12) 0.3386(6)
C103_4 C 0.5000 0.48173(16) 0.2500
C104_4 C 0.5000 0.45858(18) 0.2500
C105_3 C 0.4730(3) 0.44809(12) 0.2863(7)
H74_3 H 0.4545 0.4550 0.3123
C106_3 C 0.4740(3) 0.42720(13) 0.2833(6)
H75_3 H 0.4549 0.4199 0.3064
N19_3 N 0.6132(2) 0.61073(10) 0.0427(5)
N20_3 N 0.5535(2) 0.53319(10) 0.2251(5)
N21_3 N 0.4765(2) 0.55495(10) 0.1551(5)
N22_3 N 0.5211(2) 0.51207(10) 0.3493(5)
N23_4 N 0.5000 0.41656(15) 0.2500
C107_3 C 0.4505(3) 0.35080(13) 0.0891(7)
H76_3 H 0.4307 0.3500 0.1220
C108_3 C 0.4478(3) 0.33675(12) 0.0173(6)
H77_3 H 0.4265 0.3264 0.0023
C111_3 C 0.5058(3) 0.36724(13) 0.0620(6)
H79_3 H 0.5256 0.3782 0.0761
C118_3 C 0.5253(2) 0.30159(12) 0.0391(6)
H83_3 H 0.5251 0.3099 0.0910
C119_3 C 0.5469(3) 0.28394(13) 0.0468(6)
H84_3 H 0.5638 0.2773 0.1046
N24_3 N 0.4798(3) 0.36523(10) 0.1127(5)
Ag7 Ag 0.65455(2) 0.876270(9) 0.58599(4)
Ag8 Ag 0.34545(2) 0.876270(9) 0.91401(4)
Fe7_2 Fe 0.14681(4) 0.525940(16) 0.61110(9)
C146_3 C 0.0925(3) 0.55756(13) 0.4811(7)
H101_3 H 0.0663 0.5520 0.4822
C147_3 C 0.0964(3) 0.57652(13) 0.4375(6)
H102_3 H 0.0735 0.5854 0.4042
C148_3 C 0.1385(3) 0.57928(13) 0.4526(7)
H103_3 H 0.1510 0.5907 0.4335
C149_3 C 0.1608(3) 0.56186(12) 0.5025(6)
C150_3 C 0.2035(3) 0.55724(12) 0.5239(6)
C151_3 C 0.2224(3) 0.53892(12) 0.5609(6)
C152_3 C 0.2647(3) 0.53201(14) 0.5717(7)
H104_3 H 0.2863 0.5393 0.5572
C153_3 C 0.2678(3) 0.51229(14) 0.6080(6)
H105_3 H 0.2921 0.5036 0.6231
C154_3 C 0.2291(3) 0.50793(12) 0.6176(6)
H106_3 H 0.2227 0.4954 0.6404
C155_3 C 0.2316(3) 0.57346(12) 0.5079(6)
C156_3 C 0.2429(3) 0.58983(13) 0.5685(7)
H107_3 H 0.2330 0.5907 0.6210
C157_3 C 0.2684(3) 0.60497(14) 0.5540(7)
H108_3 H 0.2765 0.6158 0.5989
C158_3 C 0.2740(3) 0.58882(15) 0.4238(7)
H109_3 H 0.2858 0.5880 0.3743
C159_3 C 0.2485(3) 0.57281(15) 0.4347(7)
H110_3 H 0.2427 0.5615 0.3924
C160_3 C 0.3980(3) 0.00942(13) 0.0824(6)
H111_3 H 0.4032 0.0226 0.1092
N32_2 N 0.1306(2) 0.54908(9) 0.5193(5)
N35_2 N 0.2012(2) 0.52355(10) 0.5909(4)
N38_3 N 0.2823(2) 0.60523(10) 0.4801(5)
Ag10_3 Ag 0.33111(2) 0.629170(10) 0.47720(5)
Fe8_3 Fe 0.33391(3) 0.778751(15) 0.40684(7)
C174_3 C 0.2633(2) 0.80854(12) 0.3146(6)
H121_3 H 0.2545 0.8018 0.2543
C175_3 C 0.2471(3) 0.82746(11) 0.3310(6)
H122_3 H 0.2257 0.8354 0.2852
C176_3 C 0.2678(2) 0.83192(11) 0.4244(6)
H123_3 H 0.2642 0.8439 0.4560
C177_3 C 0.2963(2) 0.81550(11) 0.4680(6)
C178_3 C 0.3213(2) 0.81296(12) 0.5629(6)
C179_3 C 0.3455(3) 0.79532(11) 0.6017(5)
C180_3 C 0.3684(3) 0.79123(13) 0.6992(6)
H124_3 H 0.3705 0.7996 0.7525
C181_3 C 0.3875(2) 0.77237(12) 0.7016(6)
H125_3 H 0.4049 0.7654 0.7575
C182_3 C 0.3763(2) 0.76568(12) 0.6077(6)
H126_3 H 0.3850 0.7531 0.5893
C183_3 C 0.3228(3) 0.82934(12) 0.6323(6)
C184_3 C 0.2873(3) 0.83587(12) 0.6509(6)
H127_3 H 0.2599 0.8301 0.6170
C185_3 C 0.2911(3) 0.85089(12) 0.7193(6)
H128_3 H 0.2662 0.8551 0.7317
C186_3 C 0.3642(3) 0.85376(14) 0.7465(7)
H129_3 H 0.3911 0.8602 0.7783
C187_3 C 0.3626(3) 0.83872(14) 0.6797(7)
H130_3 H 0.3876 0.8349 0.6666
C188_3 C 0.2918(2) 0.76528(12) 0.2077(6)
H131_3 H 0.2820 0.7532 0.2279
C189_3 C 0.2813(2) 0.77107(12) 0.1120(6)
H132_3 H 0.2639 0.7638 0.0570
C190_3 C 0.3009(2) 0.78934(12) 0.1130(5)
H133_3 H 0.2992 0.7974 0.0588
C191_3 C 0.3244(2) 0.79392(11) 0.2109(6)
C192_3 C 0.3497(2) 0.81091(11) 0.2460(5)
C193_3 C 0.3748(2) 0.81396(11) 0.3414(6)
C194_3 C 0.4053(3) 0.82989(11) 0.3805(6)
H134_3 H 0.4110 0.8411 0.3466
C195_3 C 0.4247(3) 0.82577(12) 0.4778(6)
H135_3 H 0.4463 0.8336 0.5239
C196_3 C 0.4063(2) 0.80797(11) 0.4943(6)
H136_3 H 0.4141 0.8017 0.5557
C197_3 C 0.3510(3) 0.82675(10) 0.1758(5)
C198_3 C 0.3174(3) 0.84019(13) 0.1388(6)
H137_3 H 0.2930 0.8395 0.1579
C199_3 C 0.3195(3) 0.85461(13) 0.0744(7)
H138_3 H 0.2962 0.8639 0.0517
C200_3 C 0.3842(3) 0.84359(13) 0.0783(7)
H139_3 H 0.4081 0.8448 0.0574
C201_3 C 0.3857(3) 0.82854(12) 0.1447(6)
H140_3 H 0.4098 0.8197 0.1682
C202_3 C 0.4173(2) 0.76032(11) 0.4279(5)
H141_3 H 0.4294 0.7732 0.4247
C203_3 C 0.4409(3) 0.74238(12) 0.4455(6)
H142_3 H 0.4707 0.7409 0.4563
C204_3 C 0.4124(2) 0.72741(11) 0.4440(5)
H143_3 H 0.4188 0.7134 0.4536
C205_3 C 0.3716(2) 0.73643(11) 0.4257(5)
C206_3 C 0.3344(2) 0.72709(11) 0.4214(5)
C207_3 C 0.2954(2) 0.73713(11) 0.4086(5)
C208_3 C 0.2542(2) 0.72855(11) 0.3948(5)
H144_3 H 0.2481 0.7145 0.3961
C209_3 C 0.2250(3) 0.74381(12) 0.3793(5)
H145_3 H 0.1951 0.7426 0.3678
C210_3 C 0.2487(2) 0.76185(12) 0.3840(5)
H146_3 H 0.2366 0.7750 0.3762
C211_3 C 0.3346(2) 0.70470(11) 0.4343(6)
C212_3 C 0.3362(3) 0.69162(11) 0.3627(6)
H147_3 H 0.3381 0.6969 0.3049
C213_3 C 0.3350(2) 0.67118(12) 0.3752(6)
H148_3 H 0.3363 0.6625 0.3254
C214_3 C 0.3319(3) 0.67548(12) 0.5255(6)
H149_3 H 0.3314 0.6701 0.5843
C215_3 C 0.3324(2) 0.69612(12) 0.5152(6)
H150_3 H 0.3313 0.7046 0.5659
N42_3 N 0.2927(2) 0.80134(9) 0.3949(4)
N43_3 N 0.35126(19) 0.77950(9) 0.5458(4)
N44 N 0.3301(2) 0.85977(10) 0.7690(5)
N47_3 N 0.3171(2) 0.77882(9) 0.2669(4)
N48_3 N 0.37670(18) 0.80047(9) 0.4153(4)
N49 N 0.3512(2) 0.85652(9) 0.0416(5)
N52_3 N 0.37629(17) 0.75758(9) 0.4162(4)
N53_3 N 0.29029(18) 0.75806(9) 0.4005(4)
N54_3 N 0.33205(19) 0.66269(10) 0.4565(5)
C216_3 C 0.4116(3) 0.59715(12) 0.5189(7)
H151_3 H 0.4134 0.5977 0.5840
C217_3 C 0.4349(3) 0.58234(13) 0.4932(6)
H152_3 H 0.4519 0.5730 0.5397
C218_3 C 0.4332(3) 0.58129(12) 0.4002(6)
C219_3 C 0.4082(3) 0.59558(14) 0.3357(7)
H153_3 H 0.4062 0.5956 0.2704
C220_3 C 0.3865(3) 0.60966(13) 0.3688(7)
H154_3 H 0.3700 0.6195 0.3243
C221_3 C 0.4552(3) 0.56539(11) 0.3638(6)
C222_3 C 0.4306(3) 0.54838(12) 0.3180(6)
C223_3 C 0.3875(3) 0.54436(12) 0.3074(6)
H155_3 H 0.3694 0.5525 0.3296
C224_3 C 0.3769(3) 0.52664(13) 0.2597(7)
H156_3 H 0.3501 0.5198 0.2435
C225_3 C 0.4131(3) 0.52020(13) 0.2382(6)
H157_3 H 0.4138 0.5083 0.2028
C226_3 C 0.4993(3) 0.56800(12) 0.3786(6)
C227_3 C 0.5269(3) 0.58351(13) 0.4340(7)
H158_3 H 0.5186 0.5946 0.4644
C228_3 C 0.5671(3) 0.57943(13) 0.4350(7)
H159_3 H 0.5926 0.5869 0.4671
C229_3 C 0.5637(3) 0.56181(13) 0.3788(7)
H160_3 H 0.5872 0.5557 0.3669
C230_3 C 0.4585(3) 0.51571(14) 0.0558(6)
H161_3 H 0.4519 0.5288 0.0279
C231_3 C 0.4484(3) 0.49703(13) 0.0032(7)
C232_3 C 0.4621(3) 0.48211(13) 0.0695(6)
H163_3 H 0.4590 0.4680 0.0569
C233_3 C 0.4821(3) 0.49122(12) 0.1614(6)
C234_3 C 0.5270(3) 0.44809(12) 0.2137(7)
H164_3 H 0.5455 0.4550 0.1877
C235_3 C 0.5260(3) 0.42720(13) 0.2167(6)
H165_3 H 0.5451 0.4199 0.1936
N55_3 N 0.3868(2) 0.61073(10) 0.4573(5)
N56_3 N 0.4465(2) 0.53319(10) 0.2749(5)
N57_3 N 0.5235(2) 0.55495(10) 0.3449(5)
N58_3 N 0.4789(2) 0.51207(10) 0.1507(5)
Fe9 Fe 0.5000 0.28956(2) 0.7500
C236_3 C 0.5495(3) 0.35080(13) 0.4109(7)
H166_3 H 0.5693 0.3500 0.3780
C237_3 C 0.5522(3) 0.33675(12) 0.4827(6)
H167_3 H 0.5735 0.3264 0.4977
C238_3 C 0.5243(3) 0.33779(12) 0.5315(6)
C239_3 C 0.4955(3) 0.35368(13) 0.5113(7)
H168_3 H 0.4768 0.3554 0.5466
C240_3 C 0.4942(3) 0.36724(13) 0.4380(6)
H169_3 H 0.4744 0.3782 0.4239
C241_3 C 0.5712(3) 0.31847(12) 0.8521(6)
H170_3 H 0.5765 0.3123 0.9128
C242_3 C 0.5926(3) 0.33615(12) 0.8370(6)
H171_3 H 0.6142 0.3437 0.8845
C243_3 C 0.5759(3) 0.34010(12) 0.7414(6)
H172_3 H 0.5834 0.3512 0.7100
C244_3 C 0.5453(3) 0.32475(11) 0.6962(6)
C245_3 C 0.5228(3) 0.32163(12) 0.6011(6)
C246_3 C 0.4969(3) 0.30549(11) 0.5593(5)
C247_3 C 0.4747(2) 0.30159(12) 0.4609(6)
H173_3 H 0.4749 0.3099 0.4090
C248_3 C 0.4531(3) 0.28394(13) 0.4532(6)
H174_3 H 0.4362 0.2773 0.3954
C249_3 C 0.4606(2) 0.27712(12) 0.5486(5)
H175_3 H 0.4485 0.2652 0.5646
N59_3 N 0.5202(3) 0.36523(10) 0.3873(5)
N60 N 0.54266(19) 0.31170(9) 0.7687(4)
N62 N 0.4866(2) 0.28974(9) 0.6117(4)
S5_3 S 0.38363(9) 0.63289(4) 0.74360(18)
C257_3 C 0.3633(4) 0.62852(15) 0.8400(8)
F13_3 F 0.3928(2) 0.62589(12) 0.9232(4)
F14_3 F 0.3375(2) 0.64347(10) 0.8482(5)
F15_3 F 0.3385(2) 0.61205(10) 0.8250(5)
O13_3 O 0.3452(2) 0.63422(12) 0.6604(5)
O14_3 O 0.4060(2) 0.65176(10) 0.7697(5)
O15_3 O 0.4099(2) 0.61597(10) 0.7486(5)
Fe1_2 Fe 0.64681(4) 0.025940(16) 0.61110(9)
C1_3 C 0.7160(3) 0.05065(12) 0.7510(6)
H1_3 H 0.7384 0.0422 0.7463
C2_3 C 0.7231(4) 0.06871(14) 0.8035(7)
H2_3 H 0.7503 0.0746 0.8389
C3_3 C 0.6834(4) 0.07628(14) 0.7940(7)
H3_3 H 0.6775 0.0884 0.8213
C4_3 C 0.6529(3) 0.06236(12) 0.7351(6)
C5_3 C 0.6084(3) 0.06235(12) 0.7127(6)
C6_3 C 0.5803(3) 0.04692(13) 0.6702(6)
C7_3 C 0.5350(3) 0.04484(15) 0.6530(7)
H4_3 H 0.5176 0.0547 0.6687
C8_3 C 0.5211(3) 0.02685(14) 0.6114(7)
H5_3 H 0.4928 0.0215 0.5944
C9_3 C 0.5569(3) 0.01754(13) 0.5979(7)
H6_3 H 0.5561 0.0047 0.5689
C10_3 C 0.5895(3) 0.08121(13) 0.7383(7)
C11_3 C 0.5878(3) 0.09827(13) 0.6838(8)
H7_3 H 0.5997 0.0983 0.6344
C12_3 C 0.5683(3) 0.11523(15) 0.7030(9)
H8_3 H 0.5665 0.1268 0.6638
C13_3 C 0.5532(7) 0.1002(2) 0.8205(11)
H9_3 H 0.5405 0.1005 0.8686
C14_3 C 0.5718(6) 0.08254(19) 0.8058(10)
H10_3 H 0.5721 0.0711 0.8445
C18_3 C 0.8392(3) 0.56186(12) 0.9975(6)
C19_3 C 0.7965(3) 0.55724(12) 0.9761(6)
C20_3 C 0.7776(3) 0.53892(12) 0.9391(6)
C21_3 C 0.7353(3) 0.53201(14) 0.9283(7)
H14_3 H 0.7137 0.5393 0.9428
C22_3 C 0.7322(3) 0.51229(14) 0.8920(6)
H15_3 H 0.7079 0.5036 0.8769
C23_3 C 0.7709(3) 0.50793(12) 0.8824(6)
H16_3 H 0.7773 0.4954 0.8596
C24_3 C 0.7684(3) 0.57346(12) 0.9921(6)
C25_3 C 0.7571(3) 0.58983(13) 0.9315(7)
H17_3 H 0.7670 0.5907 0.8790
C26_3 C 0.7316(3) 0.60497(14) 0.9460(7)
H18_3 H 0.7235 0.6158 0.9011
C29_3 C 0.6020(3) 0.00942(13) 0.4176(6)
H21_3 H 0.5968 0.0226 0.3908
C37_3 C 0.6793(3) 0.00766(13) 0.8039(6)
H26_3 H 0.6861 0.0206 0.8335
N1_3 N 0.6746(2) 0.04671(9) 0.7089(5)
N2_3 N 0.5923(2) 0.02937(10) 0.6318(5)
N3_3 N 0.5521(4) 0.11677(13) 0.7699(7)
N4_2 N 0.8694(2) 0.54908(9) 0.9807(5)
N5_2 N 0.7988(2) 0.52355(10) 0.9091(4)
N7_3 N 0.6210(2) 0.00576(9) 0.5108(5)
N8_3 N 0.6626(2) 0.00476(9) 0.7100(5)
C47_3 C 0.6787(2) 0.81296(12) 0.9371(6)
C48_3 C 0.6545(3) 0.79532(11) 0.8983(5)
C49_3 C 0.6316(3) 0.79123(13) 0.8008(6)
H34_3 H 0.6295 0.7996 0.7475
C50_3 C 0.6125(2) 0.77237(12) 0.7984(6)
H35_3 H 0.5951 0.7654 0.7425
C51_3 C 0.6237(2) 0.76568(12) 0.8923(6)
H36_3 H 0.6150 0.7531 0.9107
C52_3 C 0.6772(3) 0.82934(12) 0.8677(6)
C53_3 C 0.7127(3) 0.83587(12) 0.8491(6)
H37_3 H 0.7401 0.8301 0.8830
C54_3 C 0.7089(3) 0.85089(12) 0.7807(6)
H38_3 H 0.7338 0.8551 0.7683
C55_3 C 0.6358(3) 0.85376(14) 0.7535(7)
H39_3 H 0.6089 0.8602 0.7217
C56_3 C 0.6374(3) 0.83872(14) 0.8203(7)
H40_3 H 0.6124 0.8349 0.8334
H45_3 H 0.5537 0.8336 0.9761
H46_3 H 0.5859 0.8017 0.9443
C83_3 C 0.6681(3) 0.67548(12) 0.9745(6)
H59_3 H 0.6686 0.6701 0.9157
C84_3 C 0.6676(2) 0.69612(12) 0.9848(6)
H60_3 H 0.6687 0.7046 0.9341
N11_3 N 0.64874(19) 0.77950(9) 0.9542(4)
N12 N 0.6699(2) 0.85977(10) 0.7310(5)
C85_3 C 0.5884(3) 0.59715(12) 0.9811(7)
H61_3 H 0.5866 0.5977 0.9160
H62_3 H 0.5481 0.5730 0.9603
Ag4_4 Ag 0.5000 0.140619(15) 0.7500
C109_3 C 0.4757(3) 0.33779(12) 0.9685(6)
C110_3 C 0.5045(3) 0.35368(13) 0.9887(7)
H78_3 H 0.5232 0.3554 0.9534
C112_3 C 0.4288(3) 0.31847(12) 0.6479(6)
H80_3 H 0.4235 0.3123 0.5872
C113_3 C 0.4074(3) 0.33615(12) 0.6630(6)
H81_3 H 0.3858 0.3437 0.6155
C114_3 C 0.4241(3) 0.34010(12) 0.7586(6)
H82_3 H 0.4166 0.3512 0.7900
C115_3 C 0.4547(3) 0.32475(11) 0.8038(6)
C116_3 C 0.4772(3) 0.32163(12) 0.8989(6)
C117_3 C 0.5031(3) 0.30549(11) 0.9407(5)
C120_3 C 0.5394(2) 0.27712(12) 0.9514(5)
H85_3 H 0.5515 0.2652 0.9354
C121_3 C 0.4136(3) 0.27221(12) 0.7140(6)
H86_3 H 0.4012 0.2853 0.7111
C122_3 C 0.3900(2) 0.25387(12) 0.6971(5)
H87_3 H 0.3598 0.2524 0.6809
C123_3 C 0.4192(2) 0.23875(12) 0.7086(5)
H88_3 H 0.4128 0.2247 0.7019
C124_3 C 0.4613(2) 0.24763(11) 0.7326(5)
C125_4 C 0.5000 0.23823(15) 0.7500
C126_4 C 0.5000 0.21572(17) 0.7500
C127_3 C 0.4948(2) 0.20477(11) 0.8250(6)
H89_3 H 0.4909 0.2117 0.8773
C128_3 C 0.4952(2) 0.18412(13) 0.8239(6)
H90_3 H 0.4921 0.1769 0.8762
N25_3 N 0.45734(19) 0.31170(9) 0.7313(4)
N26_3 N 0.5134(2) 0.28974(9) 0.8883(4)
N27_3 N 0.45591(18) 0.26875(9) 0.7346(4)
N28_4 N 0.5000 0.17367(13) 0.7500
S2_3 S 0.61637(9) 0.63289(4) 0.75640(18)
C130_3 C 0.6367(4) 0.62852(15) 0.6600(8)
F4_3 F 0.6072(2) 0.62589(12) 0.5768(4)
F5_3 F 0.6625(2) 0.64347(10) 0.6518(5)
F6_3 F 0.6615(2) 0.61205(10) 0.6750(5)
O4_3 O 0.6548(2) 0.63422(12) 0.8396(5)
O5_3 O 0.5940(2) 0.65176(10) 0.7303(5)
O6_3 O 0.5901(2) 0.61597(10) 0.7514(5)
Fe5_2 Fe 0.35319(4) 0.025940(16) 0.88890(9)
Fe6_2 Fe 0.85319(4) 0.525940(16) 0.88890(9)
C132_3 C 0.2840(3) 0.05065(12) 0.7490(6)
H91_3 H 0.2616 0.0422 0.7537
C133_3 C 0.2769(4) 0.06871(14) 0.6965(7)
H92_3 H 0.2497 0.0746 0.6611
C134_3 C 0.3166(4) 0.07628(14) 0.7060(7)
H93_3 H 0.3225 0.0884 0.6787
C135_3 C 0.3471(3) 0.06236(12) 0.7649(6)
C136_3 C 0.3916(3) 0.06235(12) 0.7873(6)
C137_3 C 0.4197(3) 0.04692(13) 0.8298(6)
C138_3 C 0.4650(3) 0.04484(15) 0.8470(7)
H94_3 H 0.4824 0.0547 0.8313
C139_3 C 0.4789(3) 0.02685(14) 0.8886(7)
H95_3 H 0.5072 0.0215 0.9056
C140_3 C 0.4431(3) 0.01754(13) 0.9021(7)
H96_3 H 0.4439 0.0047 0.9311
C141_3 C 0.4105(3) 0.08121(13) 0.7617(7)
C142_3 C 0.4122(3) 0.09827(13) 0.8162(8)
H97_3 H 0.4003 0.0983 0.8656
C143_3 C 0.4317(3) 0.11523(15) 0.7970(9)
H98_3 H 0.4335 0.1268 0.8362
C144_3 C 0.4468(7) 0.1002(2) 0.6795(11)
H99_3 H 0.4595 0.1005 0.6314
C145_3 C 0.4282(6) 0.08254(19) 0.6942(10)
H100_3 H 0.4279 0.0711 0.6555
C168_3 C 0.3207(3) 0.00766(13) 0.6961(6)
H116_3 H 0.3139 0.0206 0.6665
N29_3 N 0.3254(2) 0.04671(9) 0.7911(5)
N30_3 N 0.4077(2) 0.02937(10) 0.8682(5)
N31_3 N 0.4479(4) 0.11677(13) 0.7301(7)
N33_2 N 0.6306(2) 0.04908(9) 0.5193(5)
N34_2 N 0.3694(2) 0.04908(9) 0.9807(5)
N36_2 N 0.7012(2) 0.02355(10) 0.5909(4)
N37_2 N 0.2988(2) 0.02355(10) 0.9091(4)
N39_3 N 0.3790(2) 0.00576(9) 0.9892(5)
N40_3 N 0.3374(2) 0.00476(9) 0.7900(5)
H162_3 H 0.4348 0.4955 0.9357
C250_3 C 0.5864(3) 0.27221(12) 0.7860(6)
H176_3 H 0.5988 0.2853 0.7889
C251_3 C 0.6100(2) 0.25387(12) 0.8029(5)
H177_3 H 0.6402 0.2524 0.8191
C252_3 C 0.5808(2) 0.23875(12) 0.7914(5)
H178_3 H 0.5872 0.2247 0.7981
C253_3 C 0.5387(2) 0.24763(11) 0.7674(5)
C254_3 C 0.5052(2) 0.20477(11) 0.6750(6)
H179_3 H 0.5091 0.2117 0.6227
C255_3 C 0.5048(2) 0.18412(13) 0.6761(6)
H180_3 H 0.5079 0.1769 0.6238
N64_3 N 0.54409(18) 0.26875(9) 0.7654(4)
C161_3 C 0.4095(3) 0.99159(12) 0.1368(7)
H112_3 H 0.4243 0.9905 0.2042
C162_3 C 0.3951(3) 0.97609(12) 0.0729(7)
H113_3 H 0.3973 0.9620 0.0876
O10_3 O 0.4889(3) 0.89447(14) 0.0114(7)
O12_3 O 0.4991(2) 0.85739(9) 0.0455(5)
C30_3 C 0.5905(3) 0.99159(12) 0.3632(7)
H22_3 H 0.5757 0.9905 0.2958
C31_3 C 0.6049(3) 0.97609(12) 0.4271(7)
H23_3 H 0.6027 0.9620 0.4124
C32_3 C 0.6241(3) 0.98487(12) 0.5199(6)
C33_3 C 0.6412(2) 0.97447(12) 0.6069(6)
C34_3 C 0.6577(3) 0.98369(12) 0.6968(7)
C35_3 C 0.6725(3) 0.97452(12) 0.7887(6)
H24_3 H 0.6730 0.9604 0.8014
C36_3 C 0.6857(3) 0.98921(13) 0.8546(7)
H25_3 H 0.6972 0.9875 0.9224
C38_3 C 0.6414(3) 0.95223(12) 0.6041(6)
C39_3 C 0.6812(3) 0.94227(13) 0.6370(8)
H27_3 H 0.7074 0.9496 0.6639
C40_3 C 0.6812(3) 0.92147(13) 0.6291(8)
H28_3 H 0.7085 0.9150 0.6494
C41_3 C 0.6092(3) 0.91948(12) 0.5724(7)
H29_3 H 0.5837 0.9115 0.5529
C42_3 C 0.6055(3) 0.93991(12) 0.5745(7)
H30_3 H 0.5777 0.9459 0.5551
N9_3 N 0.6475(2) 0.90991(10) 0.5967(5)
S1_3 S 0.52471(9) 0.87145(5) 0.5215(2)
C129_3 C 0.5097(5) 0.8725(2) 0.6267(12)
F1_3 F 0.5282(3) 0.88694(15) 0.6806(8)
F2_3 F 0.4656(3) 0.87552(14) 0.5902(9)
F3_3 F 0.5172(3) 0.85422(13) 0.6654(6)
O1_3 O 0.5111(3) 0.89447(14) 0.4886(7)
O2_3 O 0.5697(2) 0.87035(11) 0.5539(5)
O3_3 O 0.5009(2) 0.85739(9) 0.4545(5)
S3_3 S 0.78202(8) 0.88295(3) 0.66311(17)
C131_3 C 0.8076(4) 0.88197(17) 0.5752(9)
F7_3 F 0.8005(2) 0.86450(11) 0.5283(5)
F8_3 F 0.8507(2) 0.88366(10) 0.6158(5)
F9_3 F 0.7936(3) 0.89594(12) 0.5095(5)
O7_3 O 0.8009(2) 0.86673(9) 0.7259(5)
O8_3 O 0.7371(2) 0.87990(10) 0.6069(4)
O9_3 O 0.7930(2) 0.90304(9) 0.7035(5)
C163_3 C 0.3759(3) 0.98487(12) 0.9801(6)
C164_3 C 0.3588(2) 0.97447(12) 0.8931(6)
C165_3 C 0.3423(3) 0.98369(12) 0.8032(7)
C166_3 C 0.3275(3) 0.97452(12) 0.7113(6)
H114_3 H 0.3270 0.9604 0.6986
C167_3 C 0.3143(3) 0.98921(13) 0.6454(7)
H115_3 H 0.3028 0.9875 0.5776
C169_3 C 0.3586(3) 0.95223(12) 0.8959(6)
C170_3 C 0.3188(3) 0.94227(13) 0.8630(8)
H117_3 H 0.2926 0.9496 0.8361
C171_3 C 0.3188(3) 0.92147(13) 0.8709(8)
H118_3 H 0.2915 0.9150 0.8506
C172_3 C 0.3908(3) 0.91948(12) 0.9276(7)
H119_3 H 0.4163 0.9115 0.9471
C173_3 C 0.3945(3) 0.93991(12) 0.9255(7)
H120_3 H 0.4223 0.9459 0.9449
N41_3 N 0.3525(2) 0.90991(10) 0.9033(5)
S4_3 S 0.47529(9) 0.87145(5) 0.9785(2)
C256_3 C 0.4903(5) 0.8725(2) 0.8733(12)
F10_3 F 0.4718(3) 0.88694(15) 0.8194(8)
F11_3 F 0.5344(3) 0.87552(14) 0.9098(9)
F12_3 F 0.4828(3) 0.85422(13) 0.8346(6)
O11_3 O 0.4303(2) 0.87035(11) 0.9461(5)
S6_3 S 0.21798(8) 0.88295(3) 0.83689(17)
C258_3 C 0.1924(4) 0.88197(17) 0.9248(9)
F16_3 F 0.1995(2) 0.86450(11) 0.9717(5)
F17_3 F 0.1493(2) 0.88366(10) 0.8842(5)
F18_3 F 0.2064(3) 0.89594(12) 0.9905(5)
O16_3 O 0.1991(2) 0.86673(9) 0.7741(5)
O17_3 O 0.2629(2) 0.87990(10) 0.8931(4)
O18_3 O 0.2070(2) 0.90304(9) 0.7965(5)
C15_4 C 0.4075(3) 0.05756(13) 0.0189(7)
H11_4 H 0.4337 0.0520 0.0178
C16_4 C 0.4036(3) 0.07652(13) 0.0625(6)
H12_4 H 0.4265 0.0854 0.0958
C17_4 C 0.3615(3) 0.07928(13) 0.0474(7)
H13_4 H 0.3490 0.0907 0.0665
C27_4 C 0.2260(3) 0.08882(15) 0.0762(7)
H19_4 H 0.2142 0.0880 0.1257
C28_4 C 0.2515(3) 0.07281(15) 0.0653(7)
H20_4 H 0.2573 0.0615 0.1076
N6_4 N 0.2177(2) 0.10523(10) 0.0199(5)
Ag2_4 Ag 0.16889(2) 0.129170(10) 0.02280(5)
Fe2_4 Fe 0.16609(3) 0.278751(15) 0.09316(7)
C43_4 C 0.2367(2) 0.30854(12) 0.1854(6)
H31_4 H 0.2455 0.3018 0.2457
C44_4 C 0.2529(3) 0.32746(11) 0.1690(6)
H32_4 H 0.2743 0.3354 0.2148
C45_4 C 0.2322(2) 0.33192(11) 0.0756(6)
H33_4 H 0.2358 0.3439 0.0440
C46_4 C 0.2037(2) 0.31550(11) 0.0320(6)
C57_4 C 0.2082(2) 0.26528(12) 0.2923(6)
H41_4 H 0.2180 0.2532 0.2721
C58_4 C 0.2187(2) 0.27107(12) 0.3880(6)
H42_4 H 0.2361 0.2638 0.4430
C59_4 C 0.1991(2) 0.28934(12) 0.3870(5)
H43_4 H 0.2008 0.2974 0.4412
C60_4 C 0.1756(2) 0.29392(11) 0.2891(6)
C61_4 C 0.1503(2) 0.31091(11) 0.2540(5)
C62_4 C 0.1252(2) 0.31396(11) 0.1586(6)
C63_4 C 0.0947(3) 0.32989(11) 0.1195(6)
H44_4 H 0.0890 0.3411 0.1534
C64_4 C 0.0753(3) 0.32577(12) 0.0222(6)
C65_4 C 0.0937(2) 0.30797(11) 0.0057(6)
C66_4 C 0.1490(3) 0.32675(10) 0.3242(5)
C67_4 C 0.1826(3) 0.34019(13) 0.3612(6)
H47_4 H 0.2070 0.3395 0.3421
C68_4 C 0.1805(3) 0.35461(13) 0.4256(7)
H48_4 H 0.2038 0.3639 0.4483
C69_4 C 0.1158(3) 0.34359(13) 0.4217(7)
H49_4 H 0.0919 0.3448 0.4426
C70_4 C 0.1143(3) 0.32854(12) 0.3553(6)
H50_4 H 0.0902 0.3197 0.3318
C71_4 C 0.0827(2) 0.26032(11) 0.0721(5)
H51_4 H 0.0706 0.2732 0.0753
C72_4 C 0.0591(3) 0.24238(12) 0.0545(6)
H52_4 H 0.0293 0.2409 0.0437
C73_4 C 0.0876(2) 0.22741(11) 0.0560(5)
H53_4 H 0.0812 0.2134 0.0464
C74_4 C 0.1284(2) 0.23643(11) 0.0743(5)
C75_4 C 0.1656(2) 0.22709(11) 0.0786(5)
C76_4 C 0.2046(2) 0.23713(11) 0.0914(5)
C77_4 C 0.2458(2) 0.22855(11) 0.1052(5)
H54_4 H 0.2519 0.2145 0.1039
C78_4 C 0.2750(3) 0.24381(12) 0.1207(5)
H55_4 H 0.3049 0.2426 0.1322
C79_4 C 0.2513(2) 0.26185(12) 0.1160(5)
H56_4 H 0.2634 0.2750 0.1238
C80_4 C 0.1654(2) 0.20470(11) 0.0657(6)
C81_4 C 0.1638(3) 0.19162(11) 0.1373(6)
H57_4 H 0.1619 0.1969 0.1951
C82_4 C 0.1650(2) 0.17118(12) 0.1248(6)
H58_4 H 0.1637 0.1625 0.1746
N10_4 N 0.2073(2) 0.30134(9) 0.1051(4)
N13_4 N 0.1829(2) 0.27882(9) 0.2331(4)
N14_4 N 0.12330(18) 0.30047(9) 0.0847(4)
N15_2 N 0.1488(2) 0.35652(9) 0.4584(5)
N16_4 N 0.12371(17) 0.25758(9) 0.0838(4)
N17_4 N 0.20971(18) 0.25806(9) 0.0995(4)
N18_4 N 0.16795(19) 0.16269(10) 0.0435(5)
Fe3_5 Fe 0.0000 0.03288(2) 0.2500
C86_4 C 0.0651(3) 0.08234(13) 0.0068(6)
C87_4 C 0.0668(3) 0.08129(12) 0.0998(6)
C88_4 C 0.0918(3) 0.09558(14) 0.1643(7)
H63_4 H 0.0938 0.0956 0.2296
C89_4 C 0.1135(3) 0.10966(13) 0.1312(7)
H64_4 H 0.1300 0.1195 0.1757
C90_4 C 0.0448(3) 0.06539(11) 0.1362(6)
C91_4 C 0.0694(3) 0.04838(12) 0.1820(6)
C92_4 C 0.1125(3) 0.04436(12) 0.1926(6)
H65_4 H 0.1306 0.0525 0.1704
C93_4 C 0.1231(3) 0.02664(13) 0.2403(7)
H66_4 H 0.1499 0.0198 0.2565
C94_4 C 0.0869(3) 0.02020(13) 0.2618(6)
H67_4 H 0.0862 0.0083 0.2972
C95_4 C 0.0007(3) 0.06800(12) 0.1214(6)
C99_4 C 0.0415(3) 0.01571(14) 0.4442(6)
H71_4 H 0.0481 0.0288 0.4721
N19_4 N 0.1132(2) 0.11073(10) 0.0427(5)
N20_4 N 0.0535(2) 0.03319(10) 0.2251(5)
N22_4 N 0.0211(2) 0.01207(10) 0.3493(5)
Ag7_2 Ag 0.15455(2) 0.376270(9) 0.58599(4)
C227_4 C 0.0269(3) 0.08351(13) 0.4340(7)
H158_4 H 0.0186 0.0946 0.4644
C228_4 C 0.0671(3) 0.07943(13) 0.4350(7)
H159_4 H 0.0926 0.0869 0.4671
C229_4 C 0.0637(3) 0.06181(13) 0.3788(7)
H160_4 H 0.0872 0.0557 0.3669
N57_4 N 0.0235(2) 0.05495(10) 0.3449(5)
C18_4 C 0.3392(3) 0.06186(12) 0.9975(6)
C19_4 C 0.2965(3) 0.05724(12) 0.9761(6)
C20_4 C 0.2776(3) 0.03892(12) 0.9391(6)
C21_4 C 0.2353(3) 0.03201(14) 0.9283(7)
H14_4 H 0.2137 0.0393 0.9428
C22_4 C 0.2322(3) 0.01229(14) 0.8920(6)
H15_4 H 0.2079 0.0036 0.8769
C23_4 C 0.2709(3) 0.00793(12) 0.8824(6)
C24_4 C 0.2684(3) 0.07346(12) 0.9921(6)
C25_4 C 0.2571(3) 0.08983(13) 0.9315(7)
H17_4 H 0.2670 0.0907 0.8790
C26_4 C 0.2316(3) 0.10497(14) 0.9460(7)
H18_4 H 0.2235 0.1158 0.9011
C47_4 C 0.1787(2) 0.31296(12) 0.9371(6)
C48_4 C 0.1545(3) 0.29532(11) 0.8983(5)
C49_4 C 0.1316(3) 0.29123(13) 0.8008(6)
H34_4 H 0.1295 0.2996 0.7475
C50_4 C 0.1125(2) 0.27237(12) 0.7984(6)
H35_4 H 0.0951 0.2654 0.7425
C51_4 C 0.1237(2) 0.26568(12) 0.8923(6)
H36_4 H 0.1150 0.2531 0.9107
C52_4 C 0.1772(3) 0.32934(12) 0.8677(6)
C53_4 C 0.2127(3) 0.33587(12) 0.8491(6)
H37_4 H 0.2401 0.3301 0.8830
C54_4 C 0.2089(3) 0.35089(12) 0.7807(6)
H38_4 H 0.2338 0.3551 0.7683
C55_4 C 0.1358(3) 0.35376(14) 0.7535(7)
H39_4 H 0.1089 0.3602 0.7217
C56_4 C 0.1374(3) 0.33872(14) 0.8203(7)
H40_4 H 0.1124 0.3349 0.8334
H45_4 H 0.0537 0.3336 0.9761
H46_4 H 0.0859 0.3017 0.9443
C83_4 C 0.1681(3) 0.17548(12) 0.9745(6)
H59_4 H 0.1686 0.1701 0.9157
C84_4 C 0.1676(2) 0.19612(12) 0.9848(6)
H60_4 H 0.1687 0.2046 0.9341
N11_4 N 0.14874(19) 0.27950(9) 0.9542(4)
N12_2 N 0.1699(2) 0.35977(10) 0.7310(5)
C85_4 C 0.0884(3) 0.09715(12) 0.9811(7)
H61_4 H 0.0866 0.0977 0.9160
H62_4 H 0.0481 0.0730 0.9603
S2_4 S 0.11637(9) 0.13289(4) 0.75640(18)
C130_4 C 0.1367(4) 0.12852(15) 0.6600(8)
F4_4 F 0.1072(2) 0.12589(12) 0.5768(4)
F5_4 F 0.1625(2) 0.14347(10) 0.6518(5)
F6_4 F 0.1615(2) 0.11205(10) 0.6750(5)
O4_4 O 0.1548(2) 0.13422(12) 0.8396(5)
O5_4 O 0.0940(2) 0.15176(10) 0.7303(5)
O6_4 O 0.0901(2) 0.11597(10) 0.7514(5)
Ag3_5 Ag -0.0000 0.882770(14) 0.2500
C100_4 C 0.0516(3) 0.99703(13) 0.4968(7)
H72_4 H 0.0652 0.9955 0.5643
C101_4 C 0.0379(3) 0.98211(13) 0.4305(6)
H73_4 H 0.0410 0.9680 0.4431
C102_4 C 0.0179(3) 0.99122(12) 0.3386(6)
C103_5 C 0.0000 0.98173(16) 0.2500
C104_5 C -0.0000 0.95858(18) 0.2500
N23_5 N 0.0000 0.91656(15) 0.2500
C111_4 C 0.0058(3) 0.86724(13) 0.0620(6)
H79_4 H 0.0256 0.8782 0.0761
C118_4 C 0.0253(2) 0.80159(12) 0.0391(6)
H83_4 H 0.0251 0.8099 0.0910
C119_4 C 0.0469(3) 0.78394(13) 0.0468(6)
H84_4 H 0.0638 0.7773 0.1046
C234_4 C 0.0270(3) 0.94809(12) 0.2137(7)
H164_4 H 0.0455 0.9550 0.1877
C235_4 C 0.0260(3) 0.92720(13) 0.2167(6)
H165_4 H 0.0451 0.9199 0.1936
Fe9_2 Fe -0.0000 0.78956(2) 0.7500
C236_4 C 0.0495(3) 0.85080(13) 0.4109(7)
H166_4 H 0.0693 0.8500 0.3780
C237_4 C 0.0522(3) 0.83675(12) 0.4827(6)
H167_4 H 0.0735 0.8264 0.4977
C238_4 C 0.0243(3) 0.83779(12) 0.5315(6)
C241_4 C 0.0712(3) 0.81847(12) 0.8521(6)
H170_4 H 0.0765 0.8123 0.9128
C242_4 C 0.0926(3) 0.83615(12) 0.8370(6)
H171_4 H 0.1142 0.8437 0.8845
C243_4 C 0.0759(3) 0.84010(12) 0.7414(6)
H172_4 H 0.0834 0.8512 0.7100
C244_4 C 0.0453(3) 0.82475(11) 0.6962(6)
C245_4 C 0.0228(3) 0.82163(12) 0.6011(6)
N59_4 N 0.0202(3) 0.86523(10) 0.3873(5)
N60_2 N 0.04266(19) 0.81170(9) 0.7687(4)
C1_4 C 0.2160(3) 0.55065(12) 0.7510(6)
H1_4 H 0.2384 0.5422 0.7463
C2_4 C 0.2231(4) 0.56871(14) 0.8035(7)
H2_4 H 0.2503 0.5746 0.8389
C3_4 C 0.1834(4) 0.57628(14) 0.7940(7)
H3_4 H 0.1775 0.5884 0.8213
C4_4 C 0.1529(3) 0.56236(12) 0.7351(6)
C5_4 C 0.1084(3) 0.56235(12) 0.7127(6)
C6_4 C 0.0803(3) 0.54692(13) 0.6702(6)
C7_4 C 0.0350(3) 0.54484(15) 0.6530(7)
H4_4 H 0.0176 0.5547 0.6687
C8_4 C 0.0211(3) 0.52685(14) 0.6114(7)
C9_4 C 0.0569(3) 0.51754(13) 0.5979(7)
H6_4 H 0.0561 0.5047 0.5689
C10_4 C 0.0895(3) 0.58121(13) 0.7383(7)
C11_4 C 0.0878(3) 0.59827(13) 0.6838(8)
H7_4 H 0.0997 0.5983 0.6344
C12_4 C 0.0683(3) 0.61523(15) 0.7030(9)
H8_4 H 0.0665 0.6268 0.6638
C13_4 C 0.0532(7) 0.6002(2) 0.8205(11)
H9_4 H 0.0405 0.6005 0.8686
C14_4 C 0.0718(6) 0.58254(19) 0.8058(10)
H10_4 H 0.0721 0.5711 0.8445
H16_4 H 0.2773 0.9954 0.8596
C29_4 C 0.1020(3) 0.50942(13) 0.4176(6)
H21_4 H 0.0968 0.5226 0.3908
C30_4 C 0.0905(3) 0.49159(12) 0.3632(7)
H22_4 H 0.0757 0.4905 0.2958
C31_4 C 0.1049(3) 0.47609(12) 0.4271(7)
H23_4 H 0.1027 0.4620 0.4124
C32_4 C 0.1241(3) 0.48487(12) 0.5199(6)
C33_4 C 0.1412(2) 0.47447(12) 0.6069(6)
C34_4 C 0.1577(3) 0.48369(12) 0.6968(7)
C35_4 C 0.1725(3) 0.47452(12) 0.7887(6)
H24_4 H 0.1730 0.4604 0.8014
C36_4 C 0.1857(3) 0.48921(13) 0.8546(7)
H25_4 H 0.1972 0.4875 0.9224
C37_4 C 0.1793(3) 0.50766(13) 0.8039(6)
H26_4 H 0.1861 0.5206 0.8335
C38_4 C 0.1414(3) 0.45223(12) 0.6041(6)
C39_4 C 0.1812(3) 0.44227(13) 0.6370(8)
H27_4 H 0.2074 0.4496 0.6639
C40_4 C 0.1812(3) 0.42147(13) 0.6291(8)
H28_4 H 0.2085 0.4150 0.6494
C41_4 C 0.1092(3) 0.41948(12) 0.5724(7)
H29_4 H 0.0837 0.4115 0.5529
C42_4 C 0.1055(3) 0.43991(12) 0.5745(7)
H30_4 H 0.0777 0.4459 0.5551
N1_4 N 0.1746(2) 0.54671(9) 0.7089(5)
N2_4 N 0.0923(2) 0.52937(10) 0.6318(5)
N3_4 N 0.0521(4) 0.61677(13) 0.7699(7)
N7_4 N 0.1210(2) 0.50576(9) 0.5108(5)
N8_4 N 0.1626(2) 0.50476(9) 0.7100(5)
N9_4 N 0.1475(2) 0.40991(10) 0.5967(5)
Ag4_5 Ag -0.0000 0.640619(15) 0.7500
C110_4 C 0.0045(3) 0.85368(13) 0.9887(7)
H78_4 H 0.0232 0.8554 0.9534
C117_4 C 0.0031(3) 0.80549(11) 0.9407(5)
C120_4 C 0.0394(2) 0.77712(12) 0.9514(5)
H85_4 H 0.0515 0.7652 0.9354
C125_5 C 0.0000 0.73823(15) 0.7500
C126_5 C 0.0000 0.71572(17) 0.7500
N26_4 N 0.0134(2) 0.78974(9) 0.8883(4)
N28_5 N -0.0000 0.67367(13) 0.7500
S1_4 S 0.02471(9) 0.37145(5) 0.5215(2)
C129_4 C 0.0097(5) 0.3725(2) 0.6267(12)
F1_4 F 0.0282(3) 0.38694(15) 0.6806(8)
F3_4 F 0.0172(3) 0.35422(13) 0.6654(6)
O1_4 O 0.0111(3) 0.39447(14) 0.4886(7)
O2_4 O 0.0697(2) 0.37035(11) 0.5539(5)
O3_4 O 0.0009(2) 0.35739(9) 0.4545(5)
S3_4 S 0.28202(8) 0.38295(3) 0.66311(17)
C131_4 C 0.3076(4) 0.38197(17) 0.5752(9)
F7_4 F 0.3005(2) 0.36450(11) 0.5283(5)
F8_4 F 0.3507(2) 0.38366(10) 0.6158(5)
F9_4 F 0.2936(3) 0.39594(12) 0.5095(5)
O7_4 O 0.3009(2) 0.36673(9) 0.7259(5)
O8_4 O 0.2371(2) 0.37990(10) 0.6069(4)
O9_4 O 0.2930(2) 0.40304(9) 0.7035(5)
H95_4 H 0.0072 0.5215 0.9056
C250_4 C 0.0864(3) 0.77221(12) 0.7860(6)
H176_4 H 0.0988 0.7853 0.7889
C251_4 C 0.1100(2) 0.75387(12) 0.8029(5)
H177_4 H 0.1402 0.7524 0.8191
C252_4 C 0.0808(2) 0.73875(12) 0.7914(5)
H178_4 H 0.0872 0.7247 0.7981
C253_4 C 0.0387(2) 0.74763(11) 0.7674(5)
C254_4 C 0.0052(2) 0.70477(11) 0.6750(6)
H179_4 H 0.0091 0.7117 0.6227
C255_4 C 0.0048(2) 0.68412(13) 0.6761(6)
H180_4 H 0.0079 0.6769 0.6238
N64_4 N 0.04409(18) 0.76875(9) 0.7654(4)
F11_4 F 0.0344(3) 0.37552(14) 0.9098(9)
Fe3_6 Fe 1.0000 0.03288(2) 0.2500
C96_4 C 0.9731(3) 0.08351(13) 0.0660(7)
H68_4 H 0.9814 0.0946 0.0356
C97_4 C 0.9329(3) 0.07943(13) 0.0650(7)
H69_4 H 0.9074 0.0869 0.0329
C98_4 C 0.9363(3) 0.06181(13) 0.1212(7)
H70_4 H 0.9128 0.0557 0.1331
N21_4 N 0.9765(2) 0.05495(10) 0.1551(5)
Ag8_2 Ag 0.84545(2) 0.376270(9) 0.91401(4)
C146_4 C 0.5925(3) 0.05756(13) 0.4811(7)
H101_4 H 0.5663 0.0520 0.4822
C147_4 C 0.5964(3) 0.07652(13) 0.4375(6)
H102_4 H 0.5735 0.0854 0.4042
C148_4 C 0.6385(3) 0.07928(13) 0.4526(7)
H103_4 H 0.6510 0.0907 0.4335
C149_4 C 0.6608(3) 0.06186(12) 0.5025(6)
C150_4 C 0.7035(3) 0.05724(12) 0.5239(6)
C151_4 C 0.7224(3) 0.03892(12) 0.5609(6)
C152_4 C 0.7647(3) 0.03201(14) 0.5717(7)
H104_4 H 0.7863 0.0393 0.5572
C153_4 C 0.7678(3) 0.01229(14) 0.6080(6)
H105_4 H 0.7921 0.0036 0.6231
C154_4 C 0.7291(3) 0.00793(12) 0.6176(6)
C155_4 C 0.7316(3) 0.07346(12) 0.5079(6)
C156_4 C 0.7429(3) 0.08983(13) 0.5685(7)
H107_4 H 0.7330 0.0907 0.6210
C157_4 C 0.7684(3) 0.10497(14) 0.5540(7)
H108_4 H 0.7765 0.1158 0.5989
C158_4 C 0.7740(3) 0.08882(15) 0.4238(7)
H109_4 H 0.7858 0.0880 0.3743
C159_4 C 0.7485(3) 0.07281(15) 0.4347(7)
H110_4 H 0.7427 0.0615 0.3924
N38_4 N 0.7823(2) 0.10523(10) 0.4801(5)
Ag10_4 Ag 0.83111(2) 0.129170(10) 0.47720(5)
Fe8_4 Fe 0.83391(3) 0.278751(15) 0.40684(7)
C174_4 C 0.7633(2) 0.30854(12) 0.3146(6)
H121_4 H 0.7545 0.3018 0.2543
C175_4 C 0.7471(3) 0.32746(11) 0.3310(6)
H122_4 H 0.7257 0.3354 0.2852
C176_4 C 0.7678(2) 0.33192(11) 0.4244(6)
H123_4 H 0.7642 0.3439 0.4560
C177_4 C 0.7963(2) 0.31550(11) 0.4680(6)
C178_4 C 0.8213(2) 0.31296(12) 0.5629(6)
C179_4 C 0.8455(3) 0.29532(11) 0.6017(5)
C180_4 C 0.8684(3) 0.29123(13) 0.6992(6)
H124_4 H 0.8705 0.2996 0.7525
C181_4 C 0.8875(2) 0.27237(12) 0.7016(6)
H125_4 H 0.9049 0.2654 0.7575
C182_4 C 0.8763(2) 0.26568(12) 0.6077(6)
H126_4 H 0.8850 0.2531 0.5893
C183_4 C 0.8228(3) 0.32934(12) 0.6323(6)
C184_4 C 0.7873(3) 0.33587(12) 0.6509(6)
H127_4 H 0.7599 0.3301 0.6170
C185_4 C 0.7911(3) 0.35089(12) 0.7193(6)
H128_4 H 0.7662 0.3551 0.7317
C186_4 C 0.8642(3) 0.35376(14) 0.7465(7)
H129_4 H 0.8911 0.3602 0.7783
C187_4 C 0.8626(3) 0.33872(14) 0.6797(7)
H130_4 H 0.8876 0.3349 0.6666
C188_4 C 0.7918(2) 0.26528(12) 0.2077(6)
H131_4 H 0.7820 0.2532 0.2279
C189_4 C 0.7813(2) 0.27107(12) 0.1120(6)
H132_4 H 0.7639 0.2638 0.0570
C190_4 C 0.8009(2) 0.28934(12) 0.1130(5)
H133_4 H 0.7992 0.2974 0.0588
C191_4 C 0.8244(2) 0.29392(11) 0.2109(6)
C192_4 C 0.8497(2) 0.31091(11) 0.2460(5)
C193_4 C 0.8748(2) 0.31396(11) 0.3414(6)
C194_4 C 0.9053(3) 0.32989(11) 0.3805(6)
H134_4 H 0.9110 0.3411 0.3466
C195_4 C 0.9247(3) 0.32577(12) 0.4778(6)
H135_4 H 0.9463 0.3336 0.5239
C196_4 C 0.9063(2) 0.30797(11) 0.4943(6)
H136_4 H 0.9141 0.3017 0.5557
C197_4 C 0.8510(3) 0.32675(10) 0.1758(5)
C198_4 C 0.8174(3) 0.34019(13) 0.1388(6)
H137_4 H 0.7930 0.3395 0.1579
C199_4 C 0.8195(3) 0.35461(13) 0.0744(7)
H138_4 H 0.7962 0.3639 0.0517
C200_4 C 0.8842(3) 0.34359(13) 0.0783(7)
H139_4 H 0.9081 0.3448 0.0574
C201_4 C 0.8857(3) 0.32854(12) 0.1447(6)
H140_4 H 0.9098 0.3197 0.1682
C202_4 C 0.9173(2) 0.26032(11) 0.4279(5)
H141_4 H 0.9294 0.2732 0.4247
C203_4 C 0.9409(3) 0.24238(12) 0.4455(6)
H142_4 H 0.9707 0.2409 0.4563
C204_4 C 0.9124(2) 0.22741(11) 0.4440(5)
H143_4 H 0.9188 0.2134 0.4536
C205_4 C 0.8716(2) 0.23643(11) 0.4257(5)
C206_4 C 0.8344(2) 0.22709(11) 0.4214(5)
C207_4 C 0.7954(2) 0.23713(11) 0.4086(5)
C208_4 C 0.7542(2) 0.22855(11) 0.3948(5)
H144_4 H 0.7481 0.2145 0.3961
C209_4 C 0.7250(3) 0.24381(12) 0.3793(5)
H145_4 H 0.6951 0.2426 0.3678
C210_4 C 0.7487(2) 0.26185(12) 0.3840(5)
H146_4 H 0.7366 0.2750 0.3762
C211_4 C 0.8346(2) 0.20470(11) 0.4343(6)
C212_4 C 0.8362(3) 0.19162(11) 0.3627(6)
H147_4 H 0.8381 0.1969 0.3049
C213_4 C 0.8350(2) 0.17118(12) 0.3752(6)
H148_4 H 0.8363 0.1625 0.3254
C214_4 C 0.8319(3) 0.17548(12) 0.5255(6)
H149_4 H 0.8314 0.1701 0.5843
C215_4 C 0.8324(2) 0.19612(12) 0.5152(6)
H150_4 H 0.8313 0.2046 0.5659
N42_4 N 0.7927(2) 0.30134(9) 0.3949(4)
N43_4 N 0.85126(19) 0.27950(9) 0.5458(4)
N44_2 N 0.8301(2) 0.35977(10) 0.7690(5)
N47_4 N 0.8171(2) 0.27882(9) 0.2669(4)
N48_4 N 0.87670(18) 0.30047(9) 0.4153(4)
N49_2 N 0.8512(2) 0.35652(9) 0.0416(5)
N52_4 N 0.87629(17) 0.25758(9) 0.4162(4)
N53_4 N 0.79029(18) 0.25806(9) 0.4005(4)
N54_4 N 0.83205(19) 0.16269(10) 0.4565(5)
C216_4 C 0.9116(3) 0.09715(12) 0.5189(7)
H151_4 H 0.9134 0.0977 0.5840
C217_4 C 0.9349(3) 0.08234(13) 0.4932(6)
H152_4 H 0.9519 0.0730 0.5397
C218_4 C 0.9332(3) 0.08129(12) 0.4002(6)
C219_4 C 0.9082(3) 0.09558(14) 0.3357(7)
H153_4 H 0.9062 0.0956 0.2704
C220_4 C 0.8865(3) 0.10966(13) 0.3688(7)
H154_4 H 0.8700 0.1195 0.3243
C221_4 C 0.9552(3) 0.06539(11) 0.3638(6)
C222_4 C 0.9306(3) 0.04838(12) 0.3180(6)
C223_4 C 0.8875(3) 0.04436(12) 0.3074(6)
H155_4 H 0.8694 0.0525 0.3296
C224_4 C 0.8769(3) 0.02664(13) 0.2597(7)
H156_4 H 0.8501 0.0198 0.2435
C225_4 C 0.9131(3) 0.02020(13) 0.2382(6)
H157_4 H 0.9138 0.0083 0.2028
C226_4 C 0.9993(3) 0.06800(12) 0.3786(6)
C230_4 C 0.9585(3) 0.01571(14) 0.0558(6)
H161_4 H 0.9519 0.0288 0.0279
N55_4 N 0.8868(2) 0.11073(10) 0.4573(5)
N56_4 N 0.9465(2) 0.03319(10) 0.2749(5)
N58_4 N 0.9789(2) 0.01207(10) 0.1507(5)
S5_4 S 0.88363(9) 0.13289(4) 0.74360(18)
C257_4 C 0.8633(4) 0.12852(15) 0.8400(8)
F13_4 F 0.8928(2) 0.12589(12) 0.9232(4)
F14_4 F 0.8375(2) 0.14347(10) 0.8482(5)
F15_4 F 0.8385(2) 0.11205(10) 0.8250(5)
O13_4 O 0.8452(2) 0.13422(12) 0.6604(5)
O14_4 O 0.9060(2) 0.15176(10) 0.7697(5)
O15_4 O 0.9099(2) 0.11597(10) 0.7486(5)
Ag3_6 Ag 1.0000 0.882770(14) 0.2500
C103_6 C 1.0000 0.98173(16) 0.2500
C104_6 C 1.0000 0.95858(18) 0.2500
C105_4 C 0.9730(3) 0.94809(12) 0.2863(7)
H74_4 H 0.9545 0.9550 0.3123
C106_4 C 0.9740(3) 0.92720(13) 0.2833(6)
H75_4 H 0.9549 0.9199 0.3064
N23_6 N 1.0000 0.91656(15) 0.2500
C107_4 C 0.9505(3) 0.85080(13) 0.0891(7)
H76_4 H 0.9307 0.8500 0.1220
C108_4 C 0.9478(3) 0.83675(12) 0.0173(6)
H77_4 H 0.9265 0.8264 0.0023
N24_4 N 0.9798(3) 0.86523(10) 0.1127(5)
H106_4 H 0.7227 0.9954 0.6404
C160_4 C 0.8980(3) 0.50942(13) 0.0824(6)
H111_4 H 0.9032 0.5226 0.1092
C161_4 C 0.9095(3) 0.49159(12) 0.1368(7)
H112_4 H 0.9243 0.4905 0.2042
C162_4 C 0.8951(3) 0.47609(12) 0.0729(7)
H113_4 H 0.8973 0.4620 0.0876
C231_4 C 0.9484(3) 0.99703(13) 0.0032(7)
C232_4 C 0.9621(3) 0.98211(13) 0.0695(6)
H163_4 H 0.9590 0.9680 0.0569
C233_4 C 0.9821(3) 0.99122(12) 0.1614(6)
Fe9_3 Fe 1.0000 0.78956(2) 0.7500
C239_4 C 0.9955(3) 0.85368(13) 0.5113(7)
H168_4 H 0.9768 0.8554 0.5466
C240_4 C 0.9942(3) 0.86724(13) 0.4380(6)
H169_4 H 0.9744 0.8782 0.4239
C246_4 C 0.9969(3) 0.80549(11) 0.5593(5)
C247_4 C 0.9747(2) 0.80159(12) 0.4609(6)
H173_4 H 0.9749 0.8099 0.4090
C248_4 C 0.9531(3) 0.78394(13) 0.4532(6)
H174_4 H 0.9362 0.7773 0.3954
C249_4 C 0.9606(2) 0.77712(12) 0.5486(5)
H175_4 H 0.9485 0.7652 0.5646
N62_2 N 0.9866(2) 0.78974(9) 0.6117(4)
O10_4 O 0.9889(3) 0.39447(14) 0.0114(7)
O12_4 O 0.9991(2) 0.35739(9) 0.0455(5)
H5_4 H 0.9928 0.5215 0.5944
Ag4_6 Ag 1.0000 0.640619(15) 0.7500
C109_4 C 0.9757(3) 0.83779(12) 0.9685(6)
C112_4 C 0.9288(3) 0.81847(12) 0.6479(6)
H80_4 H 0.9235 0.8123 0.5872
C113_4 C 0.9074(3) 0.83615(12) 0.6630(6)
H81_4 H 0.8858 0.8437 0.6155
C114_4 C 0.9241(3) 0.84010(12) 0.7586(6)
H82_4 H 0.9166 0.8512 0.7900
C115_4 C 0.9547(3) 0.82475(11) 0.8038(6)
C116_4 C 0.9772(3) 0.82163(12) 0.8989(6)
C121_4 C 0.9136(3) 0.77221(12) 0.7140(6)
H86_4 H 0.9012 0.7853 0.7111
C122_4 C 0.8900(2) 0.75387(12) 0.6971(5)
H87_4 H 0.8598 0.7524 0.6809
C123_4 C 0.9192(2) 0.73875(12) 0.7086(5)
H88_4 H 0.9128 0.7247 0.7019
C124_4 C 0.9613(2) 0.74763(11) 0.7326(5)
C125_6 C 1.0000 0.73823(15) 0.7500
C126_6 C 1.0000 0.71572(17) 0.7500
C127_4 C 0.9948(2) 0.70477(11) 0.8250(6)
H89_4 H 0.9909 0.7117 0.8773
C128_4 C 0.9952(2) 0.68412(13) 0.8239(6)
H90_4 H 0.9921 0.6769 0.8762
N25_4 N 0.95734(19) 0.81170(9) 0.7313(4)
N27_4 N 0.95591(18) 0.76875(9) 0.7346(4)
N28_6 N 1.0000 0.67367(13) 0.7500
F2_4 F 0.9656(3) 0.37552(14) 0.5902(9)
C132_4 C 0.7840(3) 0.55065(12) 0.7490(6)
H91_4 H 0.7616 0.5422 0.7537
C133_4 C 0.7769(4) 0.56871(14) 0.6965(7)
H92_4 H 0.7497 0.5746 0.6611
C134_4 C 0.8166(4) 0.57628(14) 0.7060(7)
H93_4 H 0.8225 0.5884 0.6787
C135_4 C 0.8471(3) 0.56236(12) 0.7649(6)
C136_4 C 0.8916(3) 0.56235(12) 0.7873(6)
C137_4 C 0.9197(3) 0.54692(13) 0.8298(6)
C138_4 C 0.9650(3) 0.54484(15) 0.8470(7)
H94_4 H 0.9824 0.5547 0.8313
C139_4 C 0.9789(3) 0.52685(14) 0.8886(7)
C140_4 C 0.9431(3) 0.51754(13) 0.9021(7)
H96_4 H 0.9439 0.5047 0.9311
C141_4 C 0.9105(3) 0.58121(13) 0.7617(7)
C142_4 C 0.9122(3) 0.59827(13) 0.8162(8)
H97_4 H 0.9003 0.5983 0.8656
C143_4 C 0.9317(3) 0.61523(15) 0.7970(9)
H98_4 H 0.9335 0.6268 0.8362
C144_4 C 0.9468(7) 0.6002(2) 0.6795(11)
H99_4 H 0.9595 0.6005 0.6314
C145_4 C 0.9282(6) 0.58254(19) 0.6942(10)
H100_4 H 0.9279 0.5711 0.6555
C163_4 C 0.8759(3) 0.48487(12) 0.9801(6)
C164_4 C 0.8588(2) 0.47447(12) 0.8931(6)
C165_4 C 0.8423(3) 0.48369(12) 0.8032(7)
C166_4 C 0.8275(3) 0.47452(12) 0.7113(6)
H114_4 H 0.8270 0.4604 0.6986
C167_4 C 0.8143(3) 0.48921(13) 0.6454(7)
H115_4 H 0.8028 0.4875 0.5776
C168_4 C 0.8207(3) 0.50766(13) 0.6961(6)
H116_4 H 0.8139 0.5206 0.6665
C169_4 C 0.8586(3) 0.45223(12) 0.8959(6)
C170_4 C 0.8188(3) 0.44227(13) 0.8630(8)
H117_4 H 0.7926 0.4496 0.8361
C171_4 C 0.8188(3) 0.42147(13) 0.8709(8)
H118_4 H 0.7915 0.4150 0.8506
C172_4 C 0.8908(3) 0.41948(12) 0.9276(7)
H119_4 H 0.9163 0.4115 0.9471
C173_4 C 0.8945(3) 0.43991(12) 0.9255(7)
H120_4 H 0.9223 0.4459 0.9449
N29_4 N 0.8254(2) 0.54671(9) 0.7911(5)
N30_4 N 0.9077(2) 0.52937(10) 0.8682(5)
N31_4 N 0.9479(4) 0.61677(13) 0.7301(7)
N39_4 N 0.8790(2) 0.50576(9) 0.9892(5)
N40_4 N 0.8374(2) 0.50476(9) 0.7900(5)
N41_4 N 0.8525(2) 0.40991(10) 0.9033(5)
H162_4 H 0.9348 0.9955 0.9357
S4_4 S 0.97529(9) 0.37145(5) 0.9785(2)
C256_4 C 0.9903(5) 0.3725(2) 0.8733(12)
F10_4 F 0.9718(3) 0.38694(15) 0.8194(8)
F12_4 F 0.9828(3) 0.35422(13) 0.8346(6)
O11_4 O 0.9303(2) 0.37035(11) 0.9461(5)
S6_4 S 0.71798(8) 0.38295(3) 0.83689(17)
C258_4 C 0.6924(4) 0.38197(17) 0.9248(9)
F16_4 F 0.6995(2) 0.36450(11) 0.9717(5)
F17_4 F 0.6493(2) 0.38366(10) 0.8842(5)
F18_4 F 0.7064(3) 0.39594(12) 0.9905(5)
O16_4 O 0.6991(2) 0.36673(9) 0.7741(5)
O17_4 O 0.7629(2) 0.37990(10) 0.8931(4)
O18_4 O 0.7070(2) 0.40304(9) 0.7965(5)
loop_
_geom_bond_atom_site_label_1
_geom_bond_atom_site_label_2
_geom_bond_site_symmetry_1
_geom_bond_site_symmetry_2
Ag1 N9 1_555 1_555
H22 C30 1_555 1_555
C31 C30 1_555 1_555
H23 C31 1_555 1_555
C32 C31 1_555 1_555
C33 C32 1_555 1_555
C34 C33 1_555 1_555
C35 C34 1_555 1_555
H24 C35 1_555 1_555
C36 C35 1_555 1_555
H25 C36 1_555 1_555
C38 C33 1_555 1_555
C39 C38 1_555 1_555
H27 C39 1_555 1_555
C40 C39 1_555 1_555
H28 C40 1_555 1_555
C41 H29 1_555 1_555
C42 C38 1_555 1_555
H30 C42 1_555 1_555
N9 C40 1_555 1_555
S1 C129 1_555 1_555
C129 F1 1_555 1_555
F2 C129 1_555 1_555
F3 C129 1_555 1_555
O1 S1 1_555 1_555
O2 Ag1 1_555 1_555
O3 S1 1_555 1_555
S3 C131 1_555 1_555
C131 F7 1_555 1_555
F8 C131 1_555 1_555
F9 C131 1_555 1_555
O7 S3 1_555 1_555
O8 Ag1 1_555 1_555
O9 S3 1_555 1_555
Ag5 N41 1_555 1_555
C164 C163 1_555 1_555
C165 C164 1_555 1_555
C166 C165 1_555 1_555
H114 C166 1_555 1_555
C167 C166 1_555 1_555
H115 C167 1_555 1_555
C169 C164 1_555 1_555
C170 C169 1_555 1_555
H117 C170 1_555 1_555
C171 C170 1_555 1_555
H118 C171 1_555 1_555
C172 H119 1_555 1_555
C173 C169 1_555 1_555
H120 C173 1_555 1_555
N41 C171 1_555 1_555
N45 Ag1 1_555 1_555
N46 Ag5 1_555 1_555
N50 Ag1 1_555 1_555
S4 C256 1_555 1_555
C256 F10 1_555 1_555
F11 C256 1_555 1_555
F12 C256 1_555 1_555
O11 Ag5 1_555 1_555
S6 C258 1_555 1_555
C258 F16 1_555 1_555
F17 C258 1_555 1_555
F18 C258 1_555 1_555
O16 S6 1_555 1_555
O17 Ag5 1_555 1_555
O18 S6 1_555 1_555
C41 C42 1_555 1_555
C41 N9 1_555 1_555
S1 O2 1_555 1_555
S3 O8 1_555 1_555
C172 C173 1_555 1_555
C172 N41 1_555 1_555
S4 O11 1_555 1_555
S6 O17 1_555 1_555
H112 C161 1_555 1_555
C162 C161 1_555 1_555
H113 C162 1_555 1_555
Fe1 N1 1_555 1_555
C1 H1 1_555 1_555
C2 C1 1_555 1_555
H2 C2 1_555 1_555
C3 C2 1_555 1_555
H3 C3 1_555 1_555
C4 C3 1_555 1_555
C5 C4 1_555 1_555
C6 C5 1_555 1_555
C7 C6 1_555 1_555
H4 C7 1_555 1_555
C8 C7 1_555 1_555
H5 C8 1_555 1_555
C9 C8 1_555 1_555
H6 C9 1_555 1_555
C10 C5 1_555 1_555
C11 C10 1_555 1_555
H7 C11 1_555 1_555
C12 C11 1_555 1_555
H8 C12 1_555 1_555
C13 H9 1_555 1_555
C14 C10 1_555 1_555
H10 C14 1_555 1_555
C19 C18 1_555 1_555
C20 C19 1_555 1_555
C21 C20 1_555 1_555
H14 C21 1_555 1_555
C22 C21 1_555 1_555
H15 C22 1_555 1_555
C23 C22 1_555 1_555
H16 C23 1_555 1_555
C24 C19 1_555 1_555
C25 C24 1_555 1_555
H17 C25 1_555 1_555
C26 C25 1_555 1_555
H18 C26 1_555 1_555
C29 H21 1_555 1_555
H26 C37 1_555 1_555
N1 C1 1_555 1_555
N2 Fe1 1_555 1_555
N3 C12 1_555 1_555
N5 C20 1_555 1_555
N7 Fe1 1_555 1_555
N8 Fe1 1_555 1_555
C48 C47 1_555 1_555
C49 C48 1_555 1_555
H34 C49 1_555 1_555
C50 C49 1_555 1_555
H35 C50 1_555 1_555
C51 C50 1_555 1_555
H36 C51 1_555 1_555
C52 C47 1_555 1_555
C53 C52 1_555 1_555
H37 C53 1_555 1_555
C54 C53 1_555 1_555
H38 C54 1_555 1_555
C55 H39 1_555 1_555
C56 C52 1_555 1_555
H40 C56 1_555 1_555
C83 H59 1_555 1_555
H60 C84 1_555 1_555
N45 C54 1_555 1_555
C85 H61 1_555 1_555
Ag4 N3 1_555 1_555
Fe4 N25 1_555 1_555
C110 C109 1_555 1_555
H78 C110 1_555 1_555
C112 H80 1_555 1_555
C113 C112 1_555 1_555
H81 C113 1_555 1_555
C114 C113 1_555 1_555
H82 C114 1_555 1_555
C115 C114 1_555 1_555
C116 C109 1_555 1_555
C117 C116 1_555 1_555
H85 C120 1_555 1_555
C121 H86 1_555 1_555
C122 C121 1_555 1_555
H87 C122 1_555 1_555
C123 C122 1_555 1_555
H88 C123 1_555 1_555
C124 C123 1_555 1_555
C125 C124 1_555 1_555
C126 C125 1_555 1_555
C127 C126 1_555 1_555
H89 C127 1_555 1_555
C128 C127 1_555 1_555
H90 C128 1_555 1_555
N25 C112 1_555 1_555
N26 Fe4 1_555 1_555
N27 Fe4 1_555 1_555
N28 Ag4 1_555 1_555
S2 C130 1_555 1_555
C130 F4 1_555 1_555
F5 C130 1_555 1_555
F6 C130 1_555 1_555
O5 S2 1_555 1_555
O6 S2 1_555 1_555
Fe5 N29 1_555 1_555
Fe6 N4 1_555 1_555
C132 H91 1_555 1_555
C133 C132 1_555 1_555
H92 C133 1_555 1_555
C134 C133 1_555 1_555
H93 C134 1_555 1_555
C135 C134 1_555 1_555
C136 C135 1_555 1_555
C137 C136 1_555 1_555
C138 C137 1_555 1_555
H94 C138 1_555 1_555
C139 C138 1_555 1_555
H95 C139 1_555 1_555
C140 C139 1_555 1_555
H96 C140 1_555 1_555
C141 C136 1_555 1_555
C142 C141 1_555 1_555
H97 C142 1_555 1_555
C143 C142 1_555 1_555
H98 C143 1_555 1_555
C144 H99 1_555 1_555
C145 C141 1_555 1_555
H100 C145 1_555 1_555
H116 C168 1_555 1_555
N29 C132 1_555 1_555
N30 Fe5 1_555 1_555
N31 Ag4 1_555 1_555
N33 Fe1 1_555 1_555
N34 Fe5 1_555 1_555
N36 Fe1 1_555 1_555
N37 Fe5 1_555 1_555
N39 Fe5 1_555 1_555
N40 Fe5 1_555 1_555
C250 H176 1_555 1_555
C251 C250 1_555 1_555
H177 C251 1_555 1_555
C252 C251 1_555 1_555
H178 C252 1_555 1_555
C253 C125 1_555 1_555
C254 C126 1_555 1_555
H179 C254 1_555 1_555
C255 N28 1_555 1_555
H180 C255 1_555 1_555
N61 Fe4 1_555 1_555
N63 Fe4 1_555 1_555
N64 Fe4 1_555 1_555
C4 N1 1_555 1_555
C6 N2 1_555 1_555
C9 N2 1_555 1_555
C13 C14 1_555 1_555
C13 N3 1_555 1_555
C18 N4 1_555 1_555
C23 N5 1_555 1_555
C29 N7 1_555 1_555
C37 N8 1_555 1_555
N5 Fe6 1_555 1_555
C48 N11 1_555 1_555
C51 N11 1_555 1_555
C55 C56 1_555 1_555
C55 N45 1_555 1_555
C83 C84 1_555 1_555
C115 C116 1_555 1_555
C115 N25 1_555 1_555
C117 N26 1_555 1_555
C120 N26 1_555 1_555
C121 N27 1_555 1_555
C124 N27 1_555 1_555
C128 N28 1_555 1_555
S2 O4 1_555 1_555
C135 N29 1_555 1_555
C137 N30 1_555 1_555
C140 N30 1_555 1_555
C143 N31 1_555 1_555
C144 C145 1_555 1_555
C144 N31 1_555 1_555
C168 N40 1_555 1_555
C250 N64 1_555 1_555
C252 C253 1_555 1_555
C253 N64 1_555 1_555
C254 C255 1_555 1_555
C15 H11 1_555 1_555
C16 C15 1_555 1_555
H12 C16 1_555 1_555
C17 C16 1_555 1_555
H13 C17 1_555 1_555
C27 H19 1_555 1_555
H20 C28 1_555 1_555
Ag2 N6 1_555 1_555
Fe2 N10 1_555 1_555
C43 H31 1_555 1_555
C44 C43 1_555 1_555
H32 C44 1_555 1_555
C45 C44 1_555 1_555
H33 C45 1_555 1_555
C46 C45 1_555 1_555
C57 H41 1_555 1_555
C58 C57 1_555 1_555
H42 C58 1_555 1_555
C59 C58 1_555 1_555
H43 C59 1_555 1_555
C60 C59 1_555 1_555
C61 C60 1_555 1_555
C62 C61 1_555 1_555
C63 C62 1_555 1_555
H44 C63 1_555 1_555
C64 C63 1_555 1_555
C65 C64 1_555 1_555
C66 C61 1_555 1_555
C67 C66 1_555 1_555
H47 C67 1_555 1_555
C68 C67 1_555 1_555
H48 C68 1_555 1_555
C69 H49 1_555 1_555
C70 C66 1_555 1_555
H50 C70 1_555 1_555
C71 H51 1_555 1_555
C72 C71 1_555 1_555
H52 C72 1_555 1_555
C73 C72 1_555 1_555
H53 C73 1_555 1_555
C74 C73 1_555 1_555
C75 C74 1_555 1_555
C76 C75 1_555 1_555
C77 C76 1_555 1_555
H54 C77 1_555 1_555
C78 C77 1_555 1_555
H55 C78 1_555 1_555
C79 C78 1_555 1_555
H56 C79 1_555 1_555
C80 C75 1_555 1_555
C81 C80 1_555 1_555
H57 C81 1_555 1_555
C82 C81 1_555 1_555
H58 C82 1_555 1_555
N10 C43 1_555 1_555
N13 Fe2 1_555 1_555
N14 Fe2 1_555 1_555
N50 C68 1_555 1_555
N16 Fe2 1_555 1_555
N17 Fe2 1_555 1_555
N18 Ag2 1_555 1_555
Ag3 N23 1_555 1_555
Fe3 N20 1_555 1_555
C87 C86 1_555 1_555
C88 C87 1_555 1_555
H63 C88 1_555 1_555
C89 C88 1_555 1_555
H64 C89 1_555 1_555
C90 C87 1_555 1_555
C91 C90 1_555 1_555
C92 C91 1_555 1_555
H65 C92 1_555 1_555
C93 C92 1_555 1_555
H66 C93 1_555 1_555
C94 C93 1_555 1_555
H67 C94 1_555 1_555
C95 C90 1_555 1_555
C96 C95 1_555 1_555
H68 C96 1_555 1_555
C97 C96 1_555 1_555
H69 C97 1_555 1_555
C98 C97 1_555 1_555
H70 C98 1_555 1_555
C99 H71 1_555 1_555
C100 C99 1_555 1_555
H72 C100 1_555 1_555
C101 C100 1_555 1_555
H73 C101 1_555 1_555
C102 C101 1_555 1_555
C103 C102 1_555 1_555
C104 C103 1_555 1_555
C105 C104 1_555 1_555
H74 C105 1_555 1_555
C106 C105 1_555 1_555
H75 C106 1_555 1_555
N19 Ag2 1_555 1_555
N20 C91 1_555 1_555
N21 Fe3 1_555 1_555
N22 Fe3 1_555 1_555
N23 C106 1_555 1_555
C107 H76 1_555 1_555
C108 C107 1_555 1_555
H77 C108 1_555 1_555
H79 C111 1_555 1_555
H83 C118 1_555 1_555
C119 C118 1_555 1_555
H84 C119 1_555 1_555
N24 Ag3 1_555 1_555
Fe7 N32 1_555 1_555
C146 H101 1_555 1_555
C147 C146 1_555 1_555
H102 C147 1_555 1_555
C148 C147 1_555 1_555
H103 C148 1_555 1_555
C149 C148 1_555 1_555
C150 C149 1_555 1_555
C151 C150 1_555 1_555
C152 C151 1_555 1_555
H104 C152 1_555 1_555
C153 C152 1_555 1_555
H105 C153 1_555 1_555
C154 C153 1_555 1_555
H106 C154 1_555 1_555
C155 C150 1_555 1_555
C156 C155 1_555 1_555
H107 C156 1_555 1_555
C157 C156 1_555 1_555
H108 C157 1_555 1_555
C158 H109 1_555 1_555
C159 C155 1_555 1_555
H110 C159 1_555 1_555
C160 H111 1_555 1_555
N32 C146 1_555 1_555
N35 Fe7 1_555 1_555
N38 C157 1_555 1_555
Ag10 N38 1_555 1_555
Fe8 N42 1_555 1_555
C174 H121 1_555 1_555
C175 C174 1_555 1_555
H122 C175 1_555 1_555
C176 C175 1_555 1_555
H123 C176 1_555 1_555
C177 C176 1_555 1_555
C178 C177 1_555 1_555
C179 C178 1_555 1_555
C180 C179 1_555 1_555
H124 C180 1_555 1_555
C181 C180 1_555 1_555
H125 C181 1_555 1_555
C182 C181 1_555 1_555
H126 C182 1_555 1_555
C183 C178 1_555 1_555
C184 C183 1_555 1_555
H127 C184 1_555 1_555
C185 C184 1_555 1_555
H128 C185 1_555 1_555
C186 H129 1_555 1_555
C187 C183 1_555 1_555
H130 C187 1_555 1_555
C188 H131 1_555 1_555
C189 C188 1_555 1_555
H132 C189 1_555 1_555
C190 C189 1_555 1_555
H133 C190 1_555 1_555
C191 C190 1_555 1_555
C192 C191 1_555 1_555
C193 C192 1_555 1_555
C194 C193 1_555 1_555
H134 C194 1_555 1_555
C195 C194 1_555 1_555
H135 C195 1_555 1_555
C196 C195 1_555 1_555
H136 C196 1_555 1_555
C197 C192 1_555 1_555
C198 C197 1_555 1_555
H137 C198 1_555 1_555
C199 C198 1_555 1_555
H138 C199 1_555 1_555
C200 H139 1_555 1_555
C201 C197 1_555 1_555
H140 C201 1_555 1_555
C202 H141 1_555 1_555
C203 C202 1_555 1_555
H142 C203 1_555 1_555
C204 C203 1_555 1_555
H143 C204 1_555 1_555
C205 C204 1_555 1_555
C206 C205 1_555 1_555
C207 C206 1_555 1_555
C208 C207 1_555 1_555
H144 C208 1_555 1_555
C209 C208 1_555 1_555
H145 C209 1_555 1_555
C210 C209 1_555 1_555
H146 C210 1_555 1_555
C211 C206 1_555 1_555
C212 C211 1_555 1_555
H147 C212 1_555 1_555
C213 C212 1_555 1_555
H148 C213 1_555 1_555
C214 H149 1_555 1_555
C215 C211 1_555 1_555
H150 C215 1_555 1_555
N42 C174 1_555 1_555
N43 Fe8 1_555 1_555
N46 C185 1_555 1_555
N47 Fe8 1_555 1_555
N48 Fe8 1_555 1_555
N51 C199 1_555 1_555
N52 Fe8 1_555 1_555
N53 Fe8 1_555 1_555
N54 Ag10 1_555 1_555
C216 H151 1_555 1_555
C217 C216 1_555 1_555
H152 C217 1_555 1_555
C218 C217 1_555 1_555
C219 C218 1_555 1_555
H153 C219 1_555 1_555
C220 C219 1_555 1_555
H154 C220 1_555 1_555
C221 C218 1_555 1_555
C222 C221 1_555 1_555
C223 C222 1_555 1_555
H155 C223 1_555 1_555
C224 C223 1_555 1_555
H156 C224 1_555 1_555
C225 C224 1_555 1_555
H157 C225 1_555 1_555
C226 C221 1_555 1_555
C227 C226 1_555 1_555
H158 C227 1_555 1_555
C228 C227 1_555 1_555
H159 C228 1_555 1_555
C229 C228 1_555 1_555
H160 C229 1_555 1_555
C230 H161 1_555 1_555
C231 C230 1_555 1_555
C232 C231 1_555 1_555
H163 C232 1_555 1_555
C233 C103 1_555 1_555
C234 C104 1_555 1_555
H164 C234 1_555 1_555
C235 N23 1_555 1_555
H165 C235 1_555 1_555
N55 Ag10 1_555 1_555
N56 Fe3 1_555 1_555
N57 Fe3 1_555 1_555
N58 Fe3 1_555 1_555
C236 H166 1_555 1_555
C237 C236 1_555 1_555
H167 C237 1_555 1_555
C238 C237 1_555 1_555
C239 C238 1_555 1_555
H168 C239 1_555 1_555
C240 C239 1_555 1_555
H169 C240 1_555 1_555
C241 H170 1_555 1_555
C242 C241 1_555 1_555
H171 C242 1_555 1_555
C243 C242 1_555 1_555
H172 C243 1_555 1_555
C244 C243 1_555 1_555
C245 C238 1_555 1_555
C246 C245 1_555 1_555
C247 C246 1_555 1_555
H173 C247 1_555 1_555
C248 C247 1_555 1_555
H174 C248 1_555 1_555
C249 C248 1_555 1_555
H175 C249 1_555 1_555
N59 Ag3 1_555 1_555
N61 C241 1_555 1_555
S5 C257 1_555 1_555
C257 F13 1_555 1_555
F14 C257 1_555 1_555
F15 C257 1_555 1_555
O13 Ag10 1_555 1_555
O14 S5 1_555 1_555
O15 S5 1_555 1_555
C27 C28 1_555 1_555
C27 N6 1_555 1_555
C46 N10 1_555 1_555
C57 N13 1_555 1_555
C60 N13 1_555 1_555
C62 N14 1_555 1_555
C65 N14 1_555 1_555
C69 C70 1_555 1_555
C69 N50 1_555 1_555
C71 N16 1_555 1_555
C74 N16 1_555 1_555
C76 N17 1_555 1_555
C79 N17 1_555 1_555
C82 N18 1_555 1_555
C89 N19 1_555 1_555
C94 N20 1_555 1_555
C95 N21 1_555 1_555
C98 N21 1_555 1_555
C99 N22 1_555 1_555
C102 N22 1_555 1_555
C107 N24 1_555 1_555
C111 N24 1_555 1_555
C149 N32 1_555 1_555
C151 N35 1_555 1_555
C154 N35 1_555 1_555
C158 C159 1_555 1_555
C158 N38 1_555 1_555
C177 N42 1_555 1_555
C179 N43 1_555 1_555
C182 N43 1_555 1_555
C186 C187 1_555 1_555
C186 N46 1_555 1_555
C188 N47 1_555 1_555
C191 N47 1_555 1_555
C193 N48 1_555 1_555
C196 N48 1_555 1_555
C200 C201 1_555 1_555
C200 N51 1_555 1_555
C202 N52 1_555 1_555
C205 N52 1_555 1_555
C207 N53 1_555 1_555
C210 N53 1_555 1_555
C213 N54 1_555 1_555
C214 C215 1_555 1_555
C214 N54 1_555 1_555
C216 N55 1_555 1_555
C220 N55 1_555 1_555
C222 N56 1_555 1_555
C225 N56 1_555 1_555
C226 N57 1_555 1_555
C229 N57 1_555 1_555
C230 N58 1_555 1_555
C232 C233 1_555 1_555
C233 N58 1_555 1_555
C234 C235 1_555 1_555
C236 N59 1_555 1_555
C240 N59 1_555 1_555
C244 C245 1_555 1_555
C244 N61 1_555 1_555
C246 N63 1_555 1_555
C249 N63 1_555 1_555
S5 O13 1_555 1_555
Fe4_2 N25_2 1_555 1_555
C112_2 H80_2 1_555 1_555
C113_2 C112_2 1_555 1_555
H81_2 C113_2 1_555 1_555
C114_2 C113_2 1_555 1_555
H82_2 C114_2 1_555 1_555
C115_2 C114_2 1_555 1_555
C116_2 C109_2 1_555 1_555
C121_2 H86_2 1_555 1_555
C122_2 C121_2 1_555 1_555
H87_2 C122_2 1_555 1_555
C123_2 C122_2 1_555 1_555
H88_2 C123_2 1_555 1_555
C124_2 C123_2 1_555 1_555
C125_2 C124_2 1_555 1_555
C126_2 C125_2 1_555 1_555
C127_2 C126_2 1_555 1_555
H89_2 C127_2 1_555 1_555
C128_2 C127_2 1_555 1_555
H90_2 C128_2 1_555 1_555
N25_2 C112_2 1_555 1_555
N27_2 Fe4_2 1_555 1_555
N28_2 Ag4_2 1_555 1_555
Ag5_2 N41_2 1_555 1_555
Fe6 N29_2 1_555 1_555
C132_2 H91_2 1_555 1_555
C133_2 C132_2 1_555 1_555
H92_2 C133_2 1_555 1_555
C134_2 C133_2 1_555 1_555
H93_2 C134_2 1_555 1_555
C135_2 C134_2 1_555 1_555
C136_2 C135_2 1_555 1_555
C137_2 C136_2 1_555 1_555
C138_2 C137_2 1_555 1_555
H94_2 C138_2 1_555 1_555
C139_2 C138_2 1_555 1_555
C140_2 C139_2 1_555 1_555
H96_2 C140_2 1_555 1_555
C141_2 C136_2 1_555 1_555
C142_2 C141_2 1_555 1_555
H97_2 C142_2 1_555 1_555
C143_2 C142_2 1_555 1_555
H98_2 C143_2 1_555 1_555
C144_2 H99_2 1_555 1_555
C145_2 C141_2 1_555 1_555
H100_2 C145_2 1_555 1_555
C164_2 C163_2 1_555 1_555
C165_2 C164_2 1_555 1_555
C166_2 C165_2 1_555 1_555
H114_2 C166_2 1_555 1_555
C167_2 C166_2 1_555 1_555
H115_2 C167_2 1_555 1_555
C168_2 C167_2 1_555 1_555
H116_2 C168_2 1_555 1_555
C169_2 C164_2 1_555 1_555
C170_2 C169_2 1_555 1_555
H117_2 C170_2 1_555 1_555
C171_2 C170_2 1_555 1_555
H118_2 C171_2 1_555 1_555
C172_2 H119_2 1_555 1_555
C173_2 C169_2 1_555 1_555
H120_2 C173_2 1_555 1_555
N29_2 C132_2 1_555 1_555
N30_2 Fe6 1_555 1_555
N31_2 Ag4_2 1_555 1_555
N39_2 Fe6 1_555 1_555
N40_2 Fe6 1_555 1_555
N41_2 C171_2 1_555 1_555
N46_2 Ag5_2 1_555 1_555
N63_2 Fe4_2 1_555 1_555
S4_2 C256_2 1_555 1_555
C256_2 F10_2 1_555 1_555
F12_2 C256_2 1_555 1_555
O11_2 Ag5_2 1_555 1_555
S6_2 C258_2 1_555 1_555
C258_2 F16_2 1_555 1_555
F17_2 C258_2 1_555 1_555
F18_2 C258_2 1_555 1_555
O16_2 S6_2 1_555 1_555
O17_2 Ag5_2 1_555 1_555
O18_2 S6_2 1_555 1_555
C115_2 C116_2 1_555 1_555
C115_2 N25_2 1_555 1_555
C121_2 N27_2 1_555 1_555
C124_2 N27_2 1_555 1_555
C128_2 N28_2 1_555 1_555
C135_2 N29_2 1_555 1_555
C137_2 N30_2 1_555 1_555
C140_2 N30_2 1_555 1_555
C143_2 N31_2 1_555 1_555
C144_2 C145_2 1_555 1_555
C144_2 N31_2 1_555 1_555
C163_2 N39_2 1_555 1_555
C165_2 N40_2 1_555 1_555
C168_2 N40_2 1_555 1_555
C172_2 C173_2 1_555 1_555
C172_2 N41_2 1_555 1_555
S4_2 O11_2 1_555 1_555
S6_2 O17_2 1_555 1_555
Ag3_2 N23_2 1_555 1_555
C104_2 C103_2 1_555 1_555
C105_2 C104_2 1_555 1_555
H74_2 C105_2 1_555 1_555
C106_2 C105_2 1_555 1_555
H75_2 C106_2 1_555 1_555
N23_2 C106_2 1_555 1_555
C107_2 H76_2 1_555 1_555
C108_2 C107_2 1_555 1_555
H77_2 C108_2 1_555 1_555
N24_2 Ag3_2 1_555 1_555
C160_2 H111_2 1_555 1_555
C161_2 C160_2 1_555 1_555
H112_2 C161_2 1_555 1_555
C162_2 C161_2 1_555 1_555
H113_2 C162_2 1_555 1_555
C232_2 C231_2 1_555 1_555
H163_2 C232_2 1_555 1_555
C233_2 C103_2 1_555 1_555
H168_2 C239_2 1_555 1_555
C240_2 C239_2 1_555 1_555
H169_2 C240_2 1_555 1_555
C247_2 C246_2 1_555 1_555
H173_2 C247_2 1_555 1_555
C248_2 C247_2 1_555 1_555
H174_2 C248_2 1_555 1_555
C249_2 C248_2 1_555 1_555
H175_2 C249_2 1_555 1_555
C107_2 N24_2 1_555 1_555
C232_2 C233_2 1_555 1_555
C246_2 N63_2 1_555 1_555
C249_2 N63_2 1_555 1_555
H68_2 C96_2 1_555 1_555
C97_2 C96_2 1_555 1_555
H69_2 C97_2 1_555 1_555
C98_2 C97_2 1_555 1_555
H70_2 C98_2 1_555 1_555
N21_2 Fe3_2 1_555 1_555
C146_2 H101_2 1_555 1_555
C147_2 C146_2 1_555 1_555
H102_2 C147_2 1_555 1_555
C148_2 C147_2 1_555 1_555
H103_2 C148_2 1_555 1_555
C149_2 C148_2 1_555 1_555
C150_2 C149_2 1_555 1_555
C151_2 C150_2 1_555 1_555
C152_2 C151_2 1_555 1_555
H104_2 C152_2 1_555 1_555
C153_2 C152_2 1_555 1_555
H105_2 C153_2 1_555 1_555
C154_2 C153_2 1_555 1_555
C155_2 C150_2 1_555 1_555
C156_2 C155_2 1_555 1_555
H107_2 C156_2 1_555 1_555
C157_2 C156_2 1_555 1_555
H108_2 C157_2 1_555 1_555
C158_2 H109_2 1_555 1_555
C159_2 C155_2 1_555 1_555
H110_2 C159_2 1_555 1_555
N33 C146_2 1_555 1_555
N38_2 C157_2 1_555 1_555
Ag10_2 N38_2 1_555 1_555
Fe8_2 N42_2 1_555 1_555
C174_2 H121_2 1_555 1_555
C175_2 C174_2 1_555 1_555
H122_2 C175_2 1_555 1_555
C176_2 C175_2 1_555 1_555
H123_2 C176_2 1_555 1_555
C177_2 C176_2 1_555 1_555
C178_2 C177_2 1_555 1_555
C179_2 C178_2 1_555 1_555
C180_2 C179_2 1_555 1_555
H124_2 C180_2 1_555 1_555
C181_2 C180_2 1_555 1_555
H125_2 C181_2 1_555 1_555
C182_2 C181_2 1_555 1_555
H126_2 C182_2 1_555 1_555
C183_2 C178_2 1_555 1_555
C184_2 C183_2 1_555 1_555
H127_2 C184_2 1_555 1_555
C185_2 C184_2 1_555 1_555
H128_2 C185_2 1_555 1_555
C186_2 H129_2 1_555 1_555
C187_2 C183_2 1_555 1_555
H130_2 C187_2 1_555 1_555
C188_2 H131_2 1_555 1_555
C189_2 C188_2 1_555 1_555
H132_2 C189_2 1_555 1_555
C190_2 C189_2 1_555 1_555
H133_2 C190_2 1_555 1_555
C191_2 C190_2 1_555 1_555
C192_2 C191_2 1_555 1_555
C193_2 C192_2 1_555 1_555
C194_2 C193_2 1_555 1_555
H134_2 C194_2 1_555 1_555
C195_2 C194_2 1_555 1_555
H135_2 C195_2 1_555 1_555
C196_2 C195_2 1_555 1_555
H136_2 C196_2 1_555 1_555
C197_2 C192_2 1_555 1_555
C198_2 C197_2 1_555 1_555
H137_2 C198_2 1_555 1_555
C199_2 C198_2 1_555 1_555
H138_2 C199_2 1_555 1_555
C200_2 H139_2 1_555 1_555
C201_2 C197_2 1_555 1_555
H140_2 C201_2 1_555 1_555
C202_2 H141_2 1_555 1_555
C203_2 C202_2 1_555 1_555
H142_2 C203_2 1_555 1_555
C204_2 C203_2 1_555 1_555
H143_2 C204_2 1_555 1_555
C205_2 C204_2 1_555 1_555
C206_2 C205_2 1_555 1_555
C207_2 C206_2 1_555 1_555
C208_2 C207_2 1_555 1_555
H144_2 C208_2 1_555 1_555
C209_2 C208_2 1_555 1_555
H145_2 C209_2 1_555 1_555
C210_2 C209_2 1_555 1_555
H146_2 C210_2 1_555 1_555
C211_2 C206_2 1_555 1_555
C212_2 C211_2 1_555 1_555
H147_2 C212_2 1_555 1_555
C213_2 C212_2 1_555 1_555
H148_2 C213_2 1_555 1_555
C214_2 H149_2 1_555 1_555
C215_2 C211_2 1_555 1_555
H150_2 C215_2 1_555 1_555
N42_2 C174_2 1_555 1_555
N43_2 Fe8_2 1_555 1_555
N46_2 C185_2 1_555 1_555
N47_2 Fe8_2 1_555 1_555
N48_2 Fe8_2 1_555 1_555
N51_2 C199_2 1_555 1_555
N52_2 Fe8_2 1_555 1_555
N53_2 Fe8_2 1_555 1_555
N54_2 Ag10_2 1_555 1_555
C216_2 H151_2 1_555 1_555
C217_2 C216_2 1_555 1_555
H152_2 C217_2 1_555 1_555
C218_2 C217_2 1_555 1_555
C219_2 C218_2 1_555 1_555
H153_2 C219_2 1_555 1_555
C220_2 C219_2 1_555 1_555
H154_2 C220_2 1_555 1_555
C221_2 C218_2 1_555 1_555
C222_2 C221_2 1_555 1_555
C223_2 C222_2 1_555 1_555
H155_2 C223_2 1_555 1_555
C224_2 C223_2 1_555 1_555
H156_2 C224_2 1_555 1_555
C225_2 C224_2 1_555 1_555
H157_2 C225_2 1_555 1_555
C226_2 C221_2 1_555 1_555
C230_2 H161_2 1_555 1_555
N55_2 Ag10_2 1_555 1_555
N56_2 Fe3_2 1_555 1_555
N58_2 Fe3_2 1_555 1_555
S5_2 C257_2 1_555 1_555
C257_2 F13_2 1_555 1_555
F14_2 C257_2 1_555 1_555
F15_2 C257_2 1_555 1_555
O13_2 Ag10_2 1_555 1_555
O14_2 S5_2 1_555 1_555
O15_2 S5_2 1_555 1_555
C98_2 N21_2 1_555 1_555
C149_2 N33 1_555 1_555
C151_2 N36 1_555 1_555
C154_2 N36 1_555 1_555
C158_2 C159_2 1_555 1_555
C158_2 N38_2 1_555 1_555
C177_2 N42_2 1_555 1_555
C179_2 N43_2 1_555 1_555
C182_2 N43_2 1_555 1_555
C186_2 C187_2 1_555 1_555
C186_2 N46_2 1_555 1_555
C188_2 N47_2 1_555 1_555
C191_2 N47_2 1_555 1_555
C193_2 N48_2 1_555 1_555
C196_2 N48_2 1_555 1_555
C200_2 C201_2 1_555 1_555
C200_2 N51_2 1_555 1_555
C202_2 N52_2 1_555 1_555
C205_2 N52_2 1_555 1_555
C207_2 N53_2 1_555 1_555
C210_2 N53_2 1_555 1_555
C213_2 N54_2 1_555 1_555
C214_2 C215_2 1_555 1_555
C214_2 N54_2 1_555 1_555
C216_2 N55_2 1_555 1_555
C220_2 N55_2 1_555 1_555
C222_2 N56_2 1_555 1_555
C225_2 N56_2 1_555 1_555
C230_2 N58_2 1_555 1_555
S5_2 O13_2 1_555 1_555
Ag1_2 N9_2 1_555 1_555
Fe7 N1_2 1_555 1_555
C1_2 H1_2 1_555 1_555
C2_2 C1_2 1_555 1_555
H2_2 C2_2 1_555 1_555
C3_2 C2_2 1_555 1_555
H3_2 C3_2 1_555 1_555
C4_2 C3_2 1_555 1_555
C5_2 C4_2 1_555 1_555
C6_2 C5_2 1_555 1_555
C7_2 C6_2 1_555 1_555
H4_2 C7_2 1_555 1_555
C8_2 C7_2 1_555 1_555
C9_2 C8_2 1_555 1_555
H6_2 C9_2 1_555 1_555
C10_2 C5_2 1_555 1_555
C11_2 C10_2 1_555 1_555
H7_2 C11_2 1_555 1_555
C12_2 C11_2 1_555 1_555
H8_2 C12_2 1_555 1_555
C13_2 H9_2 1_555 1_555
C14_2 C10_2 1_555 1_555
H10_2 C14_2 1_555 1_555
C29_2 H21_2 1_555 1_555
C30_2 C29_2 1_555 1_555
H22_2 C30_2 1_555 1_555
C31_2 C30_2 1_555 1_555
H23_2 C31_2 1_555 1_555
C32_2 C31_2 1_555 1_555
C33_2 C32_2 1_555 1_555
C34_2 C33_2 1_555 1_555
C35_2 C34_2 1_555 1_555
H24_2 C35_2 1_555 1_555
C36_2 C35_2 1_555 1_555
H25_2 C36_2 1_555 1_555
C37_2 C36_2 1_555 1_555
H26_2 C37_2 1_555 1_555
C38_2 C33_2 1_555 1_555
C39_2 C38_2 1_555 1_555
H27_2 C39_2 1_555 1_555
C40_2 C39_2 1_555 1_555
H28_2 C40_2 1_555 1_555
C41_2 H29_2 1_555 1_555
C42_2 C38_2 1_555 1_555
H30_2 C42_2 1_555 1_555
N1_2 C1_2 1_555 1_555
N2_2 Fe7 1_555 1_555
N3_2 C12_2 1_555 1_555
N7_2 Fe7 1_555 1_555
N8_2 Fe7 1_555 1_555
N9_2 C40_2 1_555 1_555
Ag4_3 N3_2 1_555 1_555
H78_2 C110_2 1_555 1_555
H85_2 C120_2 1_555 1_555
C126_3 C125_3 1_555 1_555
N26_2 Fe4_3 1_555 1_555
N28_3 Ag4_3 1_555 1_555
S1_2 C129_2 1_555 1_555
C129_2 F1_2 1_555 1_555
F3_2 C129_2 1_555 1_555
O1_2 S1_2 1_555 1_555
O2_2 Ag1_2 1_555 1_555
O3_2 S1_2 1_555 1_555
S3_2 C131_2 1_555 1_555
C131_2 F7_2 1_555 1_555
F8_2 C131_2 1_555 1_555
F9_2 C131_2 1_555 1_555
O7_2 S3_2 1_555 1_555
O8_2 Ag1_2 1_555 1_555
O9_2 S3_2 1_555 1_555
N45_2 Ag1_2 1_555 1_555
N50_2 Ag1_2 1_555 1_555
C250_2 H176_2 1_555 1_555
C251_2 C250_2 1_555 1_555
H177_2 C251_2 1_555 1_555
C252_2 C251_2 1_555 1_555
H178_2 C252_2 1_555 1_555
C253_2 C125_3 1_555 1_555
C254_2 C126_3 1_555 1_555
H179_2 C254_2 1_555 1_555
C255_2 N28_3 1_555 1_555
H180_2 C255_2 1_555 1_555
N61_2 Fe4_3 1_555 1_555
N64_2 Fe4_3 1_555 1_555
C4_2 N1_2 1_555 1_555
C6_2 N2_2 1_555 1_555
C9_2 N2_2 1_555 1_555
C13_2 C14_2 1_555 1_555
C13_2 N3_2 1_555 1_555
C29_2 N7_2 1_555 1_555
C32_2 N7_2 1_555 1_555
C34_2 N8_2 1_555 1_555
C37_2 N8_2 1_555 1_555
C41_2 C42_2 1_555 1_555
C41_2 N9_2 1_555 1_555
C117_2 N26_2 1_555 1_555
C120_2 N26_2 1_555 1_555
S1_2 O2_2 1_555 1_555
S3_2 O8_2 1_555 1_555
C250_2 N64_2 1_555 1_555
C252_2 C253_2 1_555 1_555
C253_2 N64_2 1_555 1_555
C254_2 C255_2 1_555 1_555
Ag3_3 N23_3 1_555 1_555
H72_2 C100_2 1_555 1_555
C101_2 C100_2 1_555 1_555
H73_2 C101_2 1_555 1_555
C102_2 C101_2 1_555 1_555
C103_3 C102_2 1_555 1_555
C104_3 C103_3 1_555 1_555
H79_2 C111_2 1_555 1_555
H83_2 C118_2 1_555 1_555
C119_2 C118_2 1_555 1_555
H84_2 C119_2 1_555 1_555
C234_2 C104_3 1_555 1_555
H164_2 C234_2 1_555 1_555
C235_2 N23_3 1_555 1_555
H165_2 C235_2 1_555 1_555
C236_2 H166_2 1_555 1_555
C237_2 C236_2 1_555 1_555
H167_2 C237_2 1_555 1_555
C238_2 C237_2 1_555 1_555
C241_2 H170_2 1_555 1_555
C242_2 C241_2 1_555 1_555
H171_2 C242_2 1_555 1_555
C243_2 C242_2 1_555 1_555
H172_2 C243_2 1_555 1_555
C244_2 C243_2 1_555 1_555
C245_2 C238_2 1_555 1_555
N59_2 Ag3_3 1_555 1_555
N61_2 C241_2 1_555 1_555
C234_2 C235_2 1_555 1_555
C236_2 N59_2 1_555 1_555
C244_2 C245_2 1_555 1_555
C244_2 N61_2 1_555 1_555
C19_2 C18_2 1_555 1_555
C20_2 C19_2 1_555 1_555
C21_2 C20_2 1_555 1_555
H14_2 C21_2 1_555 1_555
C22_2 C21_2 1_555 1_555
H15_2 C22_2 1_555 1_555
C23_2 C22_2 1_555 1_555
C24_2 C19_2 1_555 1_555
C25_2 C24_2 1_555 1_555
H17_2 C25_2 1_555 1_555
C26_2 C25_2 1_555 1_555
H18_2 C26_2 1_555 1_555
N37 C20_2 1_555 1_555
C48_2 C47_2 1_555 1_555
C49_2 C48_2 1_555 1_555
H34_2 C49_2 1_555 1_555
C50_2 C49_2 1_555 1_555
H35_2 C50_2 1_555 1_555
C51_2 C50_2 1_555 1_555
H36_2 C51_2 1_555 1_555
C52_2 C47_2 1_555 1_555
C53_2 C52_2 1_555 1_555
H37_2 C53_2 1_555 1_555
C54_2 C53_2 1_555 1_555
H38_2 C54_2 1_555 1_555
C55_2 H39_2 1_555 1_555
C56_2 C52_2 1_555 1_555
H40_2 C56_2 1_555 1_555
C83_2 H59_2 1_555 1_555
H60_2 C84_2 1_555 1_555
N45_2 C54_2 1_555 1_555
C85_2 H61_2 1_555 1_555
S2_2 C130_2 1_555 1_555
C130_2 F4_2 1_555 1_555
F5_2 C130_2 1_555 1_555
F6_2 C130_2 1_555 1_555
O5_2 S2_2 1_555 1_555
O6_2 S2_2 1_555 1_555
C18_2 N34 1_555 1_555
C23_2 N37 1_555 1_555
C48_2 N11_2 1_555 1_555
C51_2 N11_2 1_555 1_555
C55_2 C56_2 1_555 1_555
C55_2 N45_2 1_555 1_555
C83_2 C84_2 1_555 1_555
S2_2 O4_2 1_555 1_555
C15_2 H11_2 1_555 1_555
C16_2 C15_2 1_555 1_555
H12_2 C16_2 1_555 1_555
C17_2 C16_2 1_555 1_555
H13_2 C17_2 1_555 1_555
C27_2 H19_2 1_555 1_555
H20_2 C28_2 1_555 1_555
Ag2_2 N6_2 1_555 1_555
Fe2_2 N10_2 1_555 1_555
C43_2 H31_2 1_555 1_555
C44_2 C43_2 1_555 1_555
H32_2 C44_2 1_555 1_555
C45_2 C44_2 1_555 1_555
H33_2 C45_2 1_555 1_555
C46_2 C45_2 1_555 1_555
C57_2 H41_2 1_555 1_555
C58_2 C57_2 1_555 1_555
H42_2 C58_2 1_555 1_555
C59_2 C58_2 1_555 1_555
H43_2 C59_2 1_555 1_555
C60_2 C59_2 1_555 1_555
C61_2 C60_2 1_555 1_555
C62_2 C61_2 1_555 1_555
C63_2 C62_2 1_555 1_555
H44_2 C63_2 1_555 1_555
C64_2 C63_2 1_555 1_555
C65_2 C64_2 1_555 1_555
C66_2 C61_2 1_555 1_555
C67_2 C66_2 1_555 1_555
H47_2 C67_2 1_555 1_555
C68_2 C67_2 1_555 1_555
H48_2 C68_2 1_555 1_555
C69_2 H49_2 1_555 1_555
C70_2 C66_2 1_555 1_555
H50_2 C70_2 1_555 1_555
C71_2 H51_2 1_555 1_555
C72_2 C71_2 1_555 1_555
H52_2 C72_2 1_555 1_555
C73_2 C72_2 1_555 1_555
H53_2 C73_2 1_555 1_555
C74_2 C73_2 1_555 1_555
C75_2 C74_2 1_555 1_555
C76_2 C75_2 1_555 1_555
C77_2 C76_2 1_555 1_555
H54_2 C77_2 1_555 1_555
C78_2 C77_2 1_555 1_555
H55_2 C78_2 1_555 1_555
C79_2 C78_2 1_555 1_555
H56_2 C79_2 1_555 1_555
C80_2 C75_2 1_555 1_555
C81_2 C80_2 1_555 1_555
H57_2 C81_2 1_555 1_555
C82_2 C81_2 1_555 1_555
H58_2 C82_2 1_555 1_555
N10_2 C43_2 1_555 1_555
N13_2 Fe2_2 1_555 1_555
N14_2 Fe2_2 1_555 1_555
N50_2 C68_2 1_555 1_555
N16_2 Fe2_2 1_555 1_555
N17_2 Fe2_2 1_555 1_555
N18_2 Ag2_2 1_555 1_555
Fe3_3 N20_2 1_555 1_555
C87_2 C86_2 1_555 1_555
C88_2 C87_2 1_555 1_555
H63_2 C88_2 1_555 1_555
C89_2 C88_2 1_555 1_555
H64_2 C89_2 1_555 1_555
C90_2 C87_2 1_555 1_555
C91_2 C90_2 1_555 1_555
C92_2 C91_2 1_555 1_555
H65_2 C92_2 1_555 1_555
C93_2 C92_2 1_555 1_555
H66_2 C93_2 1_555 1_555
C94_2 C93_2 1_555 1_555
H67_2 C94_2 1_555 1_555
C95_2 C90_2 1_555 1_555
C99_2 H71_2 1_555 1_555
N19_2 Ag2_2 1_555 1_555
N20_2 C91_2 1_555 1_555
N22_2 Fe3_3 1_555 1_555
H158_2 C227_2 1_555 1_555
C228_2 C227_2 1_555 1_555
H159_2 C228_2 1_555 1_555
C229_2 C228_2 1_555 1_555
H160_2 C229_2 1_555 1_555
N57_2 Fe3_3 1_555 1_555
C27_2 C28_2 1_555 1_555
C27_2 N6_2 1_555 1_555
C46_2 N10_2 1_555 1_555
C57_2 N13_2 1_555 1_555
C60_2 N13_2 1_555 1_555
C62_2 N14_2 1_555 1_555
C65_2 N14_2 1_555 1_555
C69_2 C70_2 1_555 1_555
C69_2 N50_2 1_555 1_555
C71_2 N16_2 1_555 1_555
C74_2 N16_2 1_555 1_555
C76_2 N17_2 1_555 1_555
C79_2 N17_2 1_555 1_555
C82_2 N18_2 1_555 1_555
C89_2 N19_2 1_555 1_555
C94_2 N20_2 1_555 1_555
C99_2 N22_2 1_555 1_555
C229_2 N57_2 1_555 1_555
C15_3 H11_3 1_555 1_555
C16_3 C15_3 1_555 1_555
H12_3 C16_3 1_555 1_555
C17_3 C16_3 1_555 1_555
H13_3 C17_3 1_555 1_555
C27_3 H19_3 1_555 1_555
H20_3 C28_3 1_555 1_555
Ag2_3 N6_3 1_555 1_555
Fe2_3 N10_3 1_555 1_555
C43_3 H31_3 1_555 1_555
C44_3 C43_3 1_555 1_555
H32_3 C44_3 1_555 1_555
C45_3 C44_3 1_555 1_555
H33_3 C45_3 1_555 1_555
C46_3 C45_3 1_555 1_555
C57_3 H41_3 1_555 1_555
C58_3 C57_3 1_555 1_555
H42_3 C58_3 1_555 1_555
C59_3 C58_3 1_555 1_555
H43_3 C59_3 1_555 1_555
C60_3 C59_3 1_555 1_555
C61_3 C60_3 1_555 1_555
C62_3 C61_3 1_555 1_555
C63_3 C62_3 1_555 1_555
H44_3 C63_3 1_555 1_555
C64_3 C63_3 1_555 1_555
C65_3 C64_3 1_555 1_555
C66_3 C61_3 1_555 1_555
C67_3 C66_3 1_555 1_555
H47_3 C67_3 1_555 1_555
C68_3 C67_3 1_555 1_555
H48_3 C68_3 1_555 1_555
C69_3 H49_3 1_555 1_555
C70_3 C66_3 1_555 1_555
H50_3 C70_3 1_555 1_555
C71_3 H51_3 1_555 1_555
C72_3 C71_3 1_555 1_555
H52_3 C72_3 1_555 1_555
C73_3 C72_3 1_555 1_555
H53_3 C73_3 1_555 1_555
C74_3 C73_3 1_555 1_555
C75_3 C74_3 1_555 1_555
C76_3 C75_3 1_555 1_555
C77_3 C76_3 1_555 1_555
H54_3 C77_3 1_555 1_555
C78_3 C77_3 1_555 1_555
H55_3 C78_3 1_555 1_555
C79_3 C78_3 1_555 1_555
H56_3 C79_3 1_555 1_555
C80_3 C75_3 1_555 1_555
C81_3 C80_3 1_555 1_555
H57_3 C81_3 1_555 1_555
C82_3 C81_3 1_555 1_555
H58_3 C82_3 1_555 1_555
N10_3 C43_3 1_555 1_555
N13_3 Fe2_3 1_555 1_555
N14_3 Fe2_3 1_555 1_555
N15 C68_3 1_555 1_555
N16_3 Fe2_3 1_555 1_555
N17_3 Fe2_3 1_555 1_555
N18_3 Ag2_3 1_555 1_555
Ag3_4 N23_4 1_555 1_555
Fe3_4 N20_3 1_555 1_555
C87_3 C86_3 1_555 1_555
C88_3 C87_3 1_555 1_555
H63_3 C88_3 1_555 1_555
C89_3 C88_3 1_555 1_555
H64_3 C89_3 1_555 1_555
C90_3 C87_3 1_555 1_555
C91_3 C90_3 1_555 1_555
C92_3 C91_3 1_555 1_555
H65_3 C92_3 1_555 1_555
C93_3 C92_3 1_555 1_555
H66_3 C93_3 1_555 1_555
C94_3 C93_3 1_555 1_555
H67_3 C94_3 1_555 1_555
C95_3 C90_3 1_555 1_555
C96_3 C95_3 1_555 1_555
H68_3 C96_3 1_555 1_555
C97_3 C96_3 1_555 1_555
H69_3 C97_3 1_555 1_555
C98_3 C97_3 1_555 1_555
H70_3 C98_3 1_555 1_555
C99_3 H71_3 1_555 1_555
C100_3 C99_3 1_555 1_555
H72_3 C100_3 1_555 1_555
C101_3 C100_3 1_555 1_555
H73_3 C101_3 1_555 1_555
C102_3 C101_3 1_555 1_555
C103_4 C102_3 1_555 1_555
C104_4 C103_4 1_555 1_555
C105_3 C104_4 1_555 1_555
H74_3 C105_3 1_555 1_555
C106_3 C105_3 1_555 1_555
H75_3 C106_3 1_555 1_555
N19_3 Ag2_3 1_555 1_555
N20_3 C91_3 1_555 1_555
N21_3 Fe3_4 1_555 1_555
N22_3 Fe3_4 1_555 1_555
N23_4 C106_3 1_555 1_555
C107_3 H76_3 1_555 1_555
C108_3 C107_3 1_555 1_555
H77_3 C108_3 1_555 1_555
H79_3 C111_3 1_555 1_555
H83_3 C118_3 1_555 1_555
C119_3 C118_3 1_555 1_555
H84_3 C119_3 1_555 1_555
N24_3 Ag3_4 1_555 1_555
Ag7 N15 1_555 1_555
Ag8 N44 1_555 1_555
Fe7_2 N32_2 1_555 1_555
C146_3 H101_3 1_555 1_555
C147_3 C146_3 1_555 1_555
H102_3 C147_3 1_555 1_555
C148_3 C147_3 1_555 1_555
H103_3 C148_3 1_555 1_555
C149_3 C148_3 1_555 1_555
C150_3 C149_3 1_555 1_555
C151_3 C150_3 1_555 1_555
C152_3 C151_3 1_555 1_555
H104_3 C152_3 1_555 1_555
C153_3 C152_3 1_555 1_555
H105_3 C153_3 1_555 1_555
C154_3 C153_3 1_555 1_555
H106_3 C154_3 1_555 1_555
C155_3 C150_3 1_555 1_555
C156_3 C155_3 1_555 1_555
H107_3 C156_3 1_555 1_555
C157_3 C156_3 1_555 1_555
H108_3 C157_3 1_555 1_555
C158_3 H109_3 1_555 1_555
C159_3 C155_3 1_555 1_555
H110_3 C159_3 1_555 1_555
C160_3 H111_3 1_555 1_555
N32_2 C146_3 1_555 1_555
N35_2 Fe7_2 1_555 1_555
N38_3 C157_3 1_555 1_555
Ag10_3 N38_3 1_555 1_555
Fe8_3 N42_3 1_555 1_555
C174_3 H121_3 1_555 1_555
C175_3 C174_3 1_555 1_555
H122_3 C175_3 1_555 1_555
C176_3 C175_3 1_555 1_555
H123_3 C176_3 1_555 1_555
C177_3 C176_3 1_555 1_555
C178_3 C177_3 1_555 1_555
C179_3 C178_3 1_555 1_555
C180_3 C179_3 1_555 1_555
H124_3 C180_3 1_555 1_555
C181_3 C180_3 1_555 1_555
H125_3 C181_3 1_555 1_555
C182_3 C181_3 1_555 1_555
H126_3 C182_3 1_555 1_555
C183_3 C178_3 1_555 1_555
C184_3 C183_3 1_555 1_555
H127_3 C184_3 1_555 1_555
C185_3 C184_3 1_555 1_555
H128_3 C185_3 1_555 1_555
C186_3 H129_3 1_555 1_555
C187_3 C183_3 1_555 1_555
H130_3 C187_3 1_555 1_555
C188_3 H131_3 1_555 1_555
C189_3 C188_3 1_555 1_555
H132_3 C189_3 1_555 1_555
C190_3 C189_3 1_555 1_555
H133_3 C190_3 1_555 1_555
C191_3 C190_3 1_555 1_555
C192_3 C191_3 1_555 1_555
C193_3 C192_3 1_555 1_555
C194_3 C193_3 1_555 1_555
H134_3 C194_3 1_555 1_555
C195_3 C194_3 1_555 1_555
H135_3 C195_3 1_555 1_555
C196_3 C195_3 1_555 1_555
H136_3 C196_3 1_555 1_555
C197_3 C192_3 1_555 1_555
C198_3 C197_3 1_555 1_555
H137_3 C198_3 1_555 1_555
C199_3 C198_3 1_555 1_555
H138_3 C199_3 1_555 1_555
C200_3 H139_3 1_555 1_555
C201_3 C197_3 1_555 1_555
H140_3 C201_3 1_555 1_555
C202_3 H141_3 1_555 1_555
C203_3 C202_3 1_555 1_555
H142_3 C203_3 1_555 1_555
C204_3 C203_3 1_555 1_555
H143_3 C204_3 1_555 1_555
C205_3 C204_3 1_555 1_555
C206_3 C205_3 1_555 1_555
C207_3 C206_3 1_555 1_555
C208_3 C207_3 1_555 1_555
H144_3 C208_3 1_555 1_555
C209_3 C208_3 1_555 1_555
H145_3 C209_3 1_555 1_555
C210_3 C209_3 1_555 1_555
H146_3 C210_3 1_555 1_555
C211_3 C206_3 1_555 1_555
C212_3 C211_3 1_555 1_555
H147_3 C212_3 1_555 1_555
C213_3 C212_3 1_555 1_555
H148_3 C213_3 1_555 1_555
C214_3 H149_3 1_555 1_555
C215_3 C211_3 1_555 1_555
H150_3 C215_3 1_555 1_555
N42_3 C174_3 1_555 1_555
N43_3 Fe8_3 1_555 1_555
N44 C185_3 1_555 1_555
N47_3 Fe8_3 1_555 1_555
N48_3 Fe8_3 1_555 1_555
N49 C199_3 1_555 1_555
N52_3 Fe8_3 1_555 1_555
N53_3 Fe8_3 1_555 1_555
N54_3 Ag10_3 1_555 1_555
C216_3 H151_3 1_555 1_555
C217_3 C216_3 1_555 1_555
H152_3 C217_3 1_555 1_555
C218_3 C217_3 1_555 1_555
C219_3 C218_3 1_555 1_555
H153_3 C219_3 1_555 1_555
C220_3 C219_3 1_555 1_555
H154_3 C220_3 1_555 1_555
C221_3 C218_3 1_555 1_555
C222_3 C221_3 1_555 1_555
C223_3 C222_3 1_555 1_555
H155_3 C223_3 1_555 1_555
C224_3 C223_3 1_555 1_555
H156_3 C224_3 1_555 1_555
C225_3 C224_3 1_555 1_555
H157_3 C225_3 1_555 1_555
C226_3 C221_3 1_555 1_555
C227_3 C226_3 1_555 1_555
H158_3 C227_3 1_555 1_555
C228_3 C227_3 1_555 1_555
H159_3 C228_3 1_555 1_555
C229_3 C228_3 1_555 1_555
H160_3 C229_3 1_555 1_555
C230_3 H161_3 1_555 1_555
C231_3 C230_3 1_555 1_555
C232_3 C231_3 1_555 1_555
H163_3 C232_3 1_555 1_555
C233_3 C103_4 1_555 1_555
C234_3 C104_4 1_555 1_555
H164_3 C234_3 1_555 1_555
C235_3 N23_4 1_555 1_555
H165_3 C235_3 1_555 1_555
N55_3 Ag10_3 1_555 1_555
N56_3 Fe3_4 1_555 1_555
N57_3 Fe3_4 1_555 1_555
N58_3 Fe3_4 1_555 1_555
Fe9 N60 1_555 1_555
C236_3 H166_3 1_555 1_555
C237_3 C236_3 1_555 1_555
H167_3 C237_3 1_555 1_555
C238_3 C237_3 1_555 1_555
C239_3 C238_3 1_555 1_555
H168_3 C239_3 1_555 1_555
C240_3 C239_3 1_555 1_555
H169_3 C240_3 1_555 1_555
C241_3 H170_3 1_555 1_555
C242_3 C241_3 1_555 1_555
H171_3 C242_3 1_555 1_555
C243_3 C242_3 1_555 1_555
H172_3 C243_3 1_555 1_555
C244_3 C243_3 1_555 1_555
C245_3 C238_3 1_555 1_555
C246_3 C245_3 1_555 1_555
C247_3 C246_3 1_555 1_555
H173_3 C247_3 1_555 1_555
C248_3 C247_3 1_555 1_555
H174_3 C248_3 1_555 1_555
C249_3 C248_3 1_555 1_555
H175_3 C249_3 1_555 1_555
N59_3 Ag3_4 1_555 1_555
N60 C241_3 1_555 1_555
N62 Fe9 1_555 1_555
S5_3 C257_3 1_555 1_555
C257_3 F13_3 1_555 1_555
F14_3 C257_3 1_555 1_555
F15_3 C257_3 1_555 1_555
O13_3 Ag10_3 1_555 1_555
O14_3 S5_3 1_555 1_555
O15_3 S5_3 1_555 1_555
C27_3 C28_3 1_555 1_555
C27_3 N6_3 1_555 1_555
C46_3 N10_3 1_555 1_555
C57_3 N13_3 1_555 1_555
C60_3 N13_3 1_555 1_555
C62_3 N14_3 1_555 1_555
C65_3 N14_3 1_555 1_555
C69_3 C70_3 1_555 1_555
C69_3 N15 1_555 1_555
C71_3 N16_3 1_555 1_555
C74_3 N16_3 1_555 1_555
C76_3 N17_3 1_555 1_555
C79_3 N17_3 1_555 1_555
C82_3 N18_3 1_555 1_555
C89_3 N19_3 1_555 1_555
C94_3 N20_3 1_555 1_555
C95_3 N21_3 1_555 1_555
C98_3 N21_3 1_555 1_555
C99_3 N22_3 1_555 1_555
C102_3 N22_3 1_555 1_555
C107_3 N24_3 1_555 1_555
C111_3 N24_3 1_555 1_555
C149_3 N32_2 1_555 1_555
C151_3 N35_2 1_555 1_555
C154_3 N35_2 1_555 1_555
C158_3 C159_3 1_555 1_555
C158_3 N38_3 1_555 1_555
C177_3 N42_3 1_555 1_555
C179_3 N43_3 1_555 1_555
C182_3 N43_3 1_555 1_555
C186_3 C187_3 1_555 1_555
C186_3 N44 1_555 1_555
C188_3 N47_3 1_555 1_555
C191_3 N47_3 1_555 1_555
C193_3 N48_3 1_555 1_555
C196_3 N48_3 1_555 1_555
C200_3 C201_3 1_555 1_555
C200_3 N49 1_555 1_555
C202_3 N52_3 1_555 1_555
C205_3 N52_3 1_555 1_555
C207_3 N53_3 1_555 1_555
C210_3 N53_3 1_555 1_555
C213_3 N54_3 1_555 1_555
C214_3 C215_3 1_555 1_555
C214_3 N54_3 1_555 1_555
C216_3 N55_3 1_555 1_555
C220_3 N55_3 1_555 1_555
C222_3 N56_3 1_555 1_555
C225_3 N56_3 1_555 1_555
C226_3 N57_3 1_555 1_555
C229_3 N57_3 1_555 1_555
C230_3 N58_3 1_555 1_555
C232_3 C233_3 1_555 1_555
C233_3 N58_3 1_555 1_555
C234_3 C235_3 1_555 1_555
C236_3 N59_3 1_555 1_555
C240_3 N59_3 1_555 1_555
C244_3 C245_3 1_555 1_555
C244_3 N60 1_555 1_555
C246_3 N62 1_555 1_555
C249_3 N62 1_555 1_555
S5_3 O13_3 1_555 1_555
Fe1_2 N1_3 1_555 1_555
C1_3 H1_3 1_555 1_555
C2_3 C1_3 1_555 1_555
H2_3 C2_3 1_555 1_555
C3_3 C2_3 1_555 1_555
H3_3 C3_3 1_555 1_555
C4_3 C3_3 1_555 1_555
C5_3 C4_3 1_555 1_555
C6_3 C5_3 1_555 1_555
C7_3 C6_3 1_555 1_555
H4_3 C7_3 1_555 1_555
C8_3 C7_3 1_555 1_555
H5_3 C8_3 1_555 1_555
C9_3 C8_3 1_555 1_555
H6_3 C9_3 1_555 1_555
C10_3 C5_3 1_555 1_555
C11_3 C10_3 1_555 1_555
H7_3 C11_3 1_555 1_555
C12_3 C11_3 1_555 1_555
H8_3 C12_3 1_555 1_555
C13_3 H9_3 1_555 1_555
C14_3 C10_3 1_555 1_555
H10_3 C14_3 1_555 1_555
C19_3 C18_3 1_555 1_555
C20_3 C19_3 1_555 1_555
C21_3 C20_3 1_555 1_555
H14_3 C21_3 1_555 1_555
C22_3 C21_3 1_555 1_555
H15_3 C22_3 1_555 1_555
C23_3 C22_3 1_555 1_555
H16_3 C23_3 1_555 1_555
C24_3 C19_3 1_555 1_555
C25_3 C24_3 1_555 1_555
H17_3 C25_3 1_555 1_555
C26_3 C25_3 1_555 1_555
H18_3 C26_3 1_555 1_555
C29_3 H21_3 1_555 1_555
H26_3 C37_3 1_555 1_555
N1_3 C1_3 1_555 1_555
N2_3 Fe1_2 1_555 1_555
N3_3 C12_3 1_555 1_555
N5_2 C20_3 1_555 1_555
N7_3 Fe1_2 1_555 1_555
N8_3 Fe1_2 1_555 1_555
C48_3 C47_3 1_555 1_555
C49_3 C48_3 1_555 1_555
H34_3 C49_3 1_555 1_555
C50_3 C49_3 1_555 1_555
H35_3 C50_3 1_555 1_555
C51_3 C50_3 1_555 1_555
H36_3 C51_3 1_555 1_555
C52_3 C47_3 1_555 1_555
C53_3 C52_3 1_555 1_555
H37_3 C53_3 1_555 1_555
C54_3 C53_3 1_555 1_555
H38_3 C54_3 1_555 1_555
C55_3 H39_3 1_555 1_555
C56_3 C52_3 1_555 1_555
H40_3 C56_3 1_555 1_555
C83_3 H59_3 1_555 1_555
H60_3 C84_3 1_555 1_555
N12 C54_3 1_555 1_555
C85_3 H61_3 1_555 1_555
Ag4_4 N3_3 1_555 1_555
Fe9 N25_3 1_555 1_555
C110_3 C109_3 1_555 1_555
H78_3 C110_3 1_555 1_555
C112_3 H80_3 1_555 1_555
C113_3 C112_3 1_555 1_555
H81_3 C113_3 1_555 1_555
C114_3 C113_3 1_555 1_555
H82_3 C114_3 1_555 1_555
C115_3 C114_3 1_555 1_555
C116_3 C109_3 1_555 1_555
C117_3 C116_3 1_555 1_555
H85_3 C120_3 1_555 1_555
C121_3 H86_3 1_555 1_555
C122_3 C121_3 1_555 1_555
H87_3 C122_3 1_555 1_555
C123_3 C122_3 1_555 1_555
H88_3 C123_3 1_555 1_555
C124_3 C123_3 1_555 1_555
C125_4 C124_3 1_555 1_555
C126_4 C125_4 1_555 1_555
C127_3 C126_4 1_555 1_555
H89_3 C127_3 1_555 1_555
C128_3 C127_3 1_555 1_555
H90_3 C128_3 1_555 1_555
N25_3 C112_3 1_555 1_555
N26_3 Fe9 1_555 1_555
N27_3 Fe9 1_555 1_555
N28_4 Ag4_4 1_555 1_555
S2_3 C130_3 1_555 1_555
C130_3 F4_3 1_555 1_555
F5_3 C130_3 1_555 1_555
F6_3 C130_3 1_555 1_555
O5_3 S2_3 1_555 1_555
O6_3 S2_3 1_555 1_555
Ag7 N12 1_555 1_555
Fe5_2 N29_3 1_555 1_555
Fe6_2 N4_2 1_555 1_555
C132_3 H91_3 1_555 1_555
C133_3 C132_3 1_555 1_555
H92_3 C133_3 1_555 1_555
C134_3 C133_3 1_555 1_555
H93_3 C134_3 1_555 1_555
C135_3 C134_3 1_555 1_555
C136_3 C135_3 1_555 1_555
C137_3 C136_3 1_555 1_555
C138_3 C137_3 1_555 1_555
H94_3 C138_3 1_555 1_555
C139_3 C138_3 1_555 1_555
H95_3 C139_3 1_555 1_555
C140_3 C139_3 1_555 1_555
H96_3 C140_3 1_555 1_555
C141_3 C136_3 1_555 1_555
C142_3 C141_3 1_555 1_555
H97_3 C142_3 1_555 1_555
C143_3 C142_3 1_555 1_555
H98_3 C143_3 1_555 1_555
C144_3 H99_3 1_555 1_555
C145_3 C141_3 1_555 1_555
H100_3 C145_3 1_555 1_555
H116_3 C168_3 1_555 1_555
N29_3 C132_3 1_555 1_555
N30_3 Fe5_2 1_555 1_555
N31_3 Ag4_4 1_555 1_555
N33_2 Fe1_2 1_555 1_555
N34_2 Fe5_2 1_555 1_555
N36_2 Fe1_2 1_555 1_555
N37_2 Fe5_2 1_555 1_555
N39_3 Fe5_2 1_555 1_555
N40_3 Fe5_2 1_555 1_555
C250_3 H176_3 1_555 1_555
C251_3 C250_3 1_555 1_555
H177_3 C251_3 1_555 1_555
C252_3 C251_3 1_555 1_555
H178_3 C252_3 1_555 1_555
C253_3 C125_4 1_555 1_555
C254_3 C126_4 1_555 1_555
H179_3 C254_3 1_555 1_555
C255_3 N28_4 1_555 1_555
H180_3 C255_3 1_555 1_555
N64_3 Fe9 1_555 1_555
C4_3 N1_3 1_555 1_555
C6_3 N2_3 1_555 1_555
C9_3 N2_3 1_555 1_555
C13_3 C14_3 1_555 1_555
C13_3 N3_3 1_555 1_555
C18_3 N4_2 1_555 1_555
C23_3 N5_2 1_555 1_555
C29_3 N7_3 1_555 1_555
C37_3 N8_3 1_555 1_555
N5_2 Fe6_2 1_555 1_555
C48_3 N11_3 1_555 1_555
C51_3 N11_3 1_555 1_555
C55_3 C56_3 1_555 1_555
C55_3 N12 1_555 1_555
C83_3 C84_3 1_555 1_555
C115_3 C116_3 1_555 1_555
C115_3 N25_3 1_555 1_555
C117_3 N26_3 1_555 1_555
C120_3 N26_3 1_555 1_555
C121_3 N27_3 1_555 1_555
C124_3 N27_3 1_555 1_555
C128_3 N28_4 1_555 1_555
S2_3 O4_3 1_555 1_555
C135_3 N29_3 1_555 1_555
C137_3 N30_3 1_555 1_555
C140_3 N30_3 1_555 1_555
C143_3 N31_3 1_555 1_555
C144_3 C145_3 1_555 1_555
C144_3 N31_3 1_555 1_555
C168_3 N40_3 1_555 1_555
C250_3 N64_3 1_555 1_555
C252_3 C253_3 1_555 1_555
C253_3 N64_3 1_555 1_555
C254_3 C255_3 1_555 1_555
H112_3 C161_3 1_555 1_555
C162_3 C161_3 1_555 1_555
H113_3 C162_3 1_555 1_555
Ag7 N9_3 1_555 1_555
H22_3 C30_3 1_555 1_555
C31_3 C30_3 1_555 1_555
H23_3 C31_3 1_555 1_555
C32_3 C31_3 1_555 1_555
C33_3 C32_3 1_555 1_555
C34_3 C33_3 1_555 1_555
C35_3 C34_3 1_555 1_555
H24_3 C35_3 1_555 1_555
C36_3 C35_3 1_555 1_555
H25_3 C36_3 1_555 1_555
C38_3 C33_3 1_555 1_555
C39_3 C38_3 1_555 1_555
H27_3 C39_3 1_555 1_555
C40_3 C39_3 1_555 1_555
H28_3 C40_3 1_555 1_555
C41_3 H29_3 1_555 1_555
C42_3 C38_3 1_555 1_555
H30_3 C42_3 1_555 1_555
N9_3 C40_3 1_555 1_555
S1_3 C129_3 1_555 1_555
C129_3 F1_3 1_555 1_555
F2_3 C129_3 1_555 1_555
F3_3 C129_3 1_555 1_555
O1_3 S1_3 1_555 1_555
O2_3 Ag7 1_555 1_555
O3_3 S1_3 1_555 1_555
S3_3 C131_3 1_555 1_555
C131_3 F7_3 1_555 1_555
F8_3 C131_3 1_555 1_555
F9_3 C131_3 1_555 1_555
O7_3 S3_3 1_555 1_555
O8_3 Ag7 1_555 1_555
O9_3 S3_3 1_555 1_555
Ag8 N41_3 1_555 1_555
C164_3 C163_3 1_555 1_555
C165_3 C164_3 1_555 1_555
C166_3 C165_3 1_555 1_555
H114_3 C166_3 1_555 1_555
C167_3 C166_3 1_555 1_555
H115_3 C167_3 1_555 1_555
C169_3 C164_3 1_555 1_555
C170_3 C169_3 1_555 1_555
H117_3 C170_3 1_555 1_555
C171_3 C170_3 1_555 1_555
H118_3 C171_3 1_555 1_555
C172_3 H119_3 1_555 1_555
C173_3 C169_3 1_555 1_555
H120_3 C173_3 1_555 1_555
N41_3 C171_3 1_555 1_555
S4_3 C256_3 1_555 1_555
C256_3 F10_3 1_555 1_555
F11_3 C256_3 1_555 1_555
F12_3 C256_3 1_555 1_555
O11_3 Ag8 1_555 1_555
S6_3 C258_3 1_555 1_555
C258_3 F16_3 1_555 1_555
F17_3 C258_3 1_555 1_555
F18_3 C258_3 1_555 1_555
O16_3 S6_3 1_555 1_555
O17_3 Ag8 1_555 1_555
O18_3 S6_3 1_555 1_555
C41_3 C42_3 1_555 1_555
C41_3 N9_3 1_555 1_555
S1_3 O2_3 1_555 1_555
S3_3 O8_3 1_555 1_555
C172_3 C173_3 1_555 1_555
C172_3 N41_3 1_555 1_555
S4_3 O11_3 1_555 1_555
S6_3 O17_3 1_555 1_555
C15_4 H11_4 1_555 1_555
C16_4 C15_4 1_555 1_555
H12_4 C16_4 1_555 1_555
C17_4 C16_4 1_555 1_555
H13_4 C17_4 1_555 1_555
C27_4 H19_4 1_555 1_555
H20_4 C28_4 1_555 1_555
Ag2_4 N6_4 1_555 1_555
Fe2_4 N10_4 1_555 1_555
C43_4 H31_4 1_555 1_555
C44_4 C43_4 1_555 1_555
H32_4 C44_4 1_555 1_555
C45_4 C44_4 1_555 1_555
H33_4 C45_4 1_555 1_555
C46_4 C45_4 1_555 1_555
C57_4 H41_4 1_555 1_555
C58_4 C57_4 1_555 1_555
H42_4 C58_4 1_555 1_555
C59_4 C58_4 1_555 1_555
H43_4 C59_4 1_555 1_555
C60_4 C59_4 1_555 1_555
C61_4 C60_4 1_555 1_555
C62_4 C61_4 1_555 1_555
C63_4 C62_4 1_555 1_555
H44_4 C63_4 1_555 1_555
C64_4 C63_4 1_555 1_555
C65_4 C64_4 1_555 1_555
C66_4 C61_4 1_555 1_555
C67_4 C66_4 1_555 1_555
H47_4 C67_4 1_555 1_555
C68_4 C67_4 1_555 1_555
H48_4 C68_4 1_555 1_555
C69_4 H49_4 1_555 1_555
C70_4 C66_4 1_555 1_555
H50_4 C70_4 1_555 1_555
C71_4 H51_4 1_555 1_555
C72_4 C71_4 1_555 1_555
H52_4 C72_4 1_555 1_555
C73_4 C72_4 1_555 1_555
H53_4 C73_4 1_555 1_555
C74_4 C73_4 1_555 1_555
C75_4 C74_4 1_555 1_555
C76_4 C75_4 1_555 1_555
C77_4 C76_4 1_555 1_555
H54_4 C77_4 1_555 1_555
C78_4 C77_4 1_555 1_555
H55_4 C78_4 1_555 1_555
C79_4 C78_4 1_555 1_555
H56_4 C79_4 1_555 1_555
C80_4 C75_4 1_555 1_555
C81_4 C80_4 1_555 1_555
H57_4 C81_4 1_555 1_555
C82_4 C81_4 1_555 1_555
H58_4 C82_4 1_555 1_555
N10_4 C43_4 1_555 1_555
N13_4 Fe2_4 1_555 1_555
N14_4 Fe2_4 1_555 1_555
N15_2 C68_4 1_555 1_555
N16_4 Fe2_4 1_555 1_555
N17_4 Fe2_4 1_555 1_555
N18_4 Ag2_4 1_555 1_555
Fe3_5 N20_4 1_555 1_555
C87_4 C86_4 1_555 1_555
C88_4 C87_4 1_555 1_555
H63_4 C88_4 1_555 1_555
C89_4 C88_4 1_555 1_555
H64_4 C89_4 1_555 1_555
C90_4 C87_4 1_555 1_555
C91_4 C90_4 1_555 1_555
C92_4 C91_4 1_555 1_555
H65_4 C92_4 1_555 1_555
C93_4 C92_4 1_555 1_555
H66_4 C93_4 1_555 1_555
C94_4 C93_4 1_555 1_555
H67_4 C94_4 1_555 1_555
C95_4 C90_4 1_555 1_555
C99_4 H71_4 1_555 1_555
N19_4 Ag2_4 1_555 1_555
N20_4 C91_4 1_555 1_555
N22_4 Fe3_5 1_555 1_555
Ag7_2 N15_2 1_555 1_555
H158_4 C227_4 1_555 1_555
C228_4 C227_4 1_555 1_555
H159_4 C228_4 1_555 1_555
C229_4 C228_4 1_555 1_555
H160_4 C229_4 1_555 1_555
N57_4 Fe3_5 1_555 1_555
C27_4 C28_4 1_555 1_555
C27_4 N6_4 1_555 1_555
C46_4 N10_4 1_555 1_555
C57_4 N13_4 1_555 1_555
C60_4 N13_4 1_555 1_555
C62_4 N14_4 1_555 1_555
C65_4 N14_4 1_555 1_555
C69_4 C70_4 1_555 1_555
C69_4 N15_2 1_555 1_555
C71_4 N16_4 1_555 1_555
C74_4 N16_4 1_555 1_555
C76_4 N17_4 1_555 1_555
C79_4 N17_4 1_555 1_555
C82_4 N18_4 1_555 1_555
C89_4 N19_4 1_555 1_555
C94_4 N20_4 1_555 1_555
C99_4 N22_4 1_555 1_555
C229_4 N57_4 1_555 1_555
C19_4 C18_4 1_555 1_555
C20_4 C19_4 1_555 1_555
C21_4 C20_4 1_555 1_555
H14_4 C21_4 1_555 1_555
C22_4 C21_4 1_555 1_555
H15_4 C22_4 1_555 1_555
C23_4 C22_4 1_555 1_555
C24_4 C19_4 1_555 1_555
C25_4 C24_4 1_555 1_555
H17_4 C25_4 1_555 1_555
C26_4 C25_4 1_555 1_555
H18_4 C26_4 1_555 1_555
N37_2 C20_4 1_555 1_555
C48_4 C47_4 1_555 1_555
C49_4 C48_4 1_555 1_555
H34_4 C49_4 1_555 1_555
C50_4 C49_4 1_555 1_555
H35_4 C50_4 1_555 1_555
C51_4 C50_4 1_555 1_555
H36_4 C51_4 1_555 1_555
C52_4 C47_4 1_555 1_555
C53_4 C52_4 1_555 1_555
H37_4 C53_4 1_555 1_555
C54_4 C53_4 1_555 1_555
H38_4 C54_4 1_555 1_555
C55_4 H39_4 1_555 1_555
C56_4 C52_4 1_555 1_555
H40_4 C56_4 1_555 1_555
C83_4 H59_4 1_555 1_555
H60_4 C84_4 1_555 1_555
N12_2 C54_4 1_555 1_555
C85_4 H61_4 1_555 1_555
S2_4 C130_4 1_555 1_555
C130_4 F4_4 1_555 1_555
F5_4 C130_4 1_555 1_555
F6_4 C130_4 1_555 1_555
O5_4 S2_4 1_555 1_555
O6_4 S2_4 1_555 1_555
Ag7_2 N12_2 1_555 1_555
C18_4 N34_2 1_555 1_555
C23_4 N37_2 1_555 1_555
C48_4 N11_4 1_555 1_555
C51_4 N11_4 1_555 1_555
C55_4 C56_4 1_555 1_555
C55_4 N12_2 1_555 1_555
C83_4 C84_4 1_555 1_555
S2_4 O4_4 1_555 1_555
Ag3_5 N23_5 1_555 1_555
H72_4 C100_4 1_555 1_555
C101_4 C100_4 1_555 1_555
H73_4 C101_4 1_555 1_555
C102_4 C101_4 1_555 1_555
C103_5 C102_4 1_555 1_555
C104_5 C103_5 1_555 1_555
H79_4 C111_4 1_555 1_555
H83_4 C118_4 1_555 1_555
C119_4 C118_4 1_555 1_555
H84_4 C119_4 1_555 1_555
C234_4 C104_5 1_555 1_555
H164_4 C234_4 1_555 1_555
C235_4 N23_5 1_555 1_555
H165_4 C235_4 1_555 1_555
Fe9_2 N60_2 1_555 1_555
C236_4 H166_4 1_555 1_555
C237_4 C236_4 1_555 1_555
H167_4 C237_4 1_555 1_555
C238_4 C237_4 1_555 1_555
C241_4 H170_4 1_555 1_555
C242_4 C241_4 1_555 1_555
H171_4 C242_4 1_555 1_555
C243_4 C242_4 1_555 1_555
H172_4 C243_4 1_555 1_555
C244_4 C243_4 1_555 1_555
C245_4 C238_4 1_555 1_555
N59_4 Ag3_5 1_555 1_555
N60_2 C241_4 1_555 1_555
C234_4 C235_4 1_555 1_555
C236_4 N59_4 1_555 1_555
C244_4 C245_4 1_555 1_555
C244_4 N60_2 1_555 1_555
Ag7_2 N9_4 1_555 1_555
Fe7_2 N1_4 1_555 1_555
C1_4 H1_4 1_555 1_555
C2_4 C1_4 1_555 1_555
H2_4 C2_4 1_555 1_555
C3_4 C2_4 1_555 1_555
H3_4 C3_4 1_555 1_555
C4_4 C3_4 1_555 1_555
C5_4 C4_4 1_555 1_555
C6_4 C5_4 1_555 1_555
C7_4 C6_4 1_555 1_555
H4_4 C7_4 1_555 1_555
C8_4 C7_4 1_555 1_555
C9_4 C8_4 1_555 1_555
H6_4 C9_4 1_555 1_555
C10_4 C5_4 1_555 1_555
C11_4 C10_4 1_555 1_555
H7_4 C11_4 1_555 1_555
C12_4 C11_4 1_555 1_555
H8_4 C12_4 1_555 1_555
C13_4 H9_4 1_555 1_555
C14_4 C10_4 1_555 1_555
H10_4 C14_4 1_555 1_555
C29_4 H21_4 1_555 1_555
C30_4 C29_4 1_555 1_555
H22_4 C30_4 1_555 1_555
C31_4 C30_4 1_555 1_555
H23_4 C31_4 1_555 1_555
C32_4 C31_4 1_555 1_555
C33_4 C32_4 1_555 1_555
C34_4 C33_4 1_555 1_555
C35_4 C34_4 1_555 1_555
H24_4 C35_4 1_555 1_555
C36_4 C35_4 1_555 1_555
H25_4 C36_4 1_555 1_555
C37_4 C36_4 1_555 1_555
H26_4 C37_4 1_555 1_555
C38_4 C33_4 1_555 1_555
C39_4 C38_4 1_555 1_555
H27_4 C39_4 1_555 1_555
C40_4 C39_4 1_555 1_555
H28_4 C40_4 1_555 1_555
C41_4 H29_4 1_555 1_555
C42_4 C38_4 1_555 1_555
H30_4 C42_4 1_555 1_555
N1_4 C1_4 1_555 1_555
N2_4 Fe7_2 1_555 1_555
N3_4 C12_4 1_555 1_555
N7_4 Fe7_2 1_555 1_555
N8_4 Fe7_2 1_555 1_555
N9_4 C40_4 1_555 1_555
Ag4_5 N3_4 1_555 1_555
H78_4 C110_4 1_555 1_555
H85_4 C120_4 1_555 1_555
C126_5 C125_5 1_555 1_555
N26_4 Fe9_2 1_555 1_555
N28_5 Ag4_5 1_555 1_555
S1_4 C129_4 1_555 1_555
C129_4 F1_4 1_555 1_555
F3_4 C129_4 1_555 1_555
O1_4 S1_4 1_555 1_555
O2_4 Ag7_2 1_555 1_555
O3_4 S1_4 1_555 1_555
S3_4 C131_4 1_555 1_555
C131_4 F7_4 1_555 1_555
F8_4 C131_4 1_555 1_555
F9_4 C131_4 1_555 1_555
O7_4 S3_4 1_555 1_555
O8_4 Ag7_2 1_555 1_555
O9_4 S3_4 1_555 1_555
C250_4 H176_4 1_555 1_555
C251_4 C250_4 1_555 1_555
H177_4 C251_4 1_555 1_555
C252_4 C251_4 1_555 1_555
H178_4 C252_4 1_555 1_555
C253_4 C125_5 1_555 1_555
C254_4 C126_5 1_555 1_555
H179_4 C254_4 1_555 1_555
C255_4 N28_5 1_555 1_555
H180_4 C255_4 1_555 1_555
N64_4 Fe9_2 1_555 1_555
C4_4 N1_4 1_555 1_555
C6_4 N2_4 1_555 1_555
C9_4 N2_4 1_555 1_555
C13_4 C14_4 1_555 1_555
C13_4 N3_4 1_555 1_555
C29_4 N7_4 1_555 1_555
C32_4 N7_4 1_555 1_555
C34_4 N8_4 1_555 1_555
C37_4 N8_4 1_555 1_555
C41_4 C42_4 1_555 1_555
C41_4 N9_4 1_555 1_555
C117_4 N26_4 1_555 1_555
C120_4 N26_4 1_555 1_555
S1_4 O2_4 1_555 1_555
S3_4 O8_4 1_555 1_555
C250_4 N64_4 1_555 1_555
C252_4 C253_4 1_555 1_555
C253_4 N64_4 1_555 1_555
C254_4 C255_4 1_555 1_555
H68_4 C96_4 1_555 1_555
C97_4 C96_4 1_555 1_555
H69_4 C97_4 1_555 1_555
C98_4 C97_4 1_555 1_555
H70_4 C98_4 1_555 1_555
N21_4 Fe3_6 1_555 1_555
Ag8_2 N44_2 1_555 1_555
C146_4 H101_4 1_555 1_555
C147_4 C146_4 1_555 1_555
H102_4 C147_4 1_555 1_555
C148_4 C147_4 1_555 1_555
H103_4 C148_4 1_555 1_555
C149_4 C148_4 1_555 1_555
C150_4 C149_4 1_555 1_555
C151_4 C150_4 1_555 1_555
C152_4 C151_4 1_555 1_555
H104_4 C152_4 1_555 1_555
C153_4 C152_4 1_555 1_555
H105_4 C153_4 1_555 1_555
C154_4 C153_4 1_555 1_555
C155_4 C150_4 1_555 1_555
C156_4 C155_4 1_555 1_555
H107_4 C156_4 1_555 1_555
C157_4 C156_4 1_555 1_555
H108_4 C157_4 1_555 1_555
C158_4 H109_4 1_555 1_555
C159_4 C155_4 1_555 1_555
H110_4 C159_4 1_555 1_555
N33_2 C146_4 1_555 1_555
N38_4 C157_4 1_555 1_555
Ag10_4 N38_4 1_555 1_555
Fe8_4 N42_4 1_555 1_555
C174_4 H121_4 1_555 1_555
C175_4 C174_4 1_555 1_555
H122_4 C175_4 1_555 1_555
C176_4 C175_4 1_555 1_555
H123_4 C176_4 1_555 1_555
C177_4 C176_4 1_555 1_555
C178_4 C177_4 1_555 1_555
C179_4 C178_4 1_555 1_555
C180_4 C179_4 1_555 1_555
H124_4 C180_4 1_555 1_555
C181_4 C180_4 1_555 1_555
H125_4 C181_4 1_555 1_555
C182_4 C181_4 1_555 1_555
H126_4 C182_4 1_555 1_555
C183_4 C178_4 1_555 1_555
C184_4 C183_4 1_555 1_555
H127_4 C184_4 1_555 1_555
C185_4 C184_4 1_555 1_555
H128_4 C185_4 1_555 1_555
C186_4 H129_4 1_555 1_555
C187_4 C183_4 1_555 1_555
H130_4 C187_4 1_555 1_555
C188_4 H131_4 1_555 1_555
C189_4 C188_4 1_555 1_555
H132_4 C189_4 1_555 1_555
C190_4 C189_4 1_555 1_555
H133_4 C190_4 1_555 1_555
C191_4 C190_4 1_555 1_555
C192_4 C191_4 1_555 1_555
C193_4 C192_4 1_555 1_555
C194_4 C193_4 1_555 1_555
H134_4 C194_4 1_555 1_555
C195_4 C194_4 1_555 1_555
H135_4 C195_4 1_555 1_555
C196_4 C195_4 1_555 1_555
H136_4 C196_4 1_555 1_555
C197_4 C192_4 1_555 1_555
C198_4 C197_4 1_555 1_555
H137_4 C198_4 1_555 1_555
C199_4 C198_4 1_555 1_555
H138_4 C199_4 1_555 1_555
C200_4 H139_4 1_555 1_555
C201_4 C197_4 1_555 1_555
H140_4 C201_4 1_555 1_555
C202_4 H141_4 1_555 1_555
C203_4 C202_4 1_555 1_555
H142_4 C203_4 1_555 1_555
C204_4 C203_4 1_555 1_555
H143_4 C204_4 1_555 1_555
C205_4 C204_4 1_555 1_555
C206_4 C205_4 1_555 1_555
C207_4 C206_4 1_555 1_555
C208_4 C207_4 1_555 1_555
H144_4 C208_4 1_555 1_555
C209_4 C208_4 1_555 1_555
H145_4 C209_4 1_555 1_555
C210_4 C209_4 1_555 1_555
H146_4 C210_4 1_555 1_555
C211_4 C206_4 1_555 1_555
C212_4 C211_4 1_555 1_555
H147_4 C212_4 1_555 1_555
C213_4 C212_4 1_555 1_555
H148_4 C213_4 1_555 1_555
C214_4 H149_4 1_555 1_555
C215_4 C211_4 1_555 1_555
H150_4 C215_4 1_555 1_555
N42_4 C174_4 1_555 1_555
N43_4 Fe8_4 1_555 1_555
N44_2 C185_4 1_555 1_555
N47_4 Fe8_4 1_555 1_555
N48_4 Fe8_4 1_555 1_555
N49_2 C199_4 1_555 1_555
N52_4 Fe8_4 1_555 1_555
N53_4 Fe8_4 1_555 1_555
N54_4 Ag10_4 1_555 1_555
C216_4 H151_4 1_555 1_555
C217_4 C216_4 1_555 1_555
H152_4 C217_4 1_555 1_555
C218_4 C217_4 1_555 1_555
C219_4 C218_4 1_555 1_555
H153_4 C219_4 1_555 1_555
C220_4 C219_4 1_555 1_555
H154_4 C220_4 1_555 1_555
C221_4 C218_4 1_555 1_555
C222_4 C221_4 1_555 1_555
C223_4 C222_4 1_555 1_555
H155_4 C223_4 1_555 1_555
C224_4 C223_4 1_555 1_555
H156_4 C224_4 1_555 1_555
C225_4 C224_4 1_555 1_555
H157_4 C225_4 1_555 1_555
C226_4 C221_4 1_555 1_555
C230_4 H161_4 1_555 1_555
N55_4 Ag10_4 1_555 1_555
N56_4 Fe3_6 1_555 1_555
N58_4 Fe3_6 1_555 1_555
S5_4 C257_4 1_555 1_555
C257_4 F13_4 1_555 1_555
F14_4 C257_4 1_555 1_555
F15_4 C257_4 1_555 1_555
O13_4 Ag10_4 1_555 1_555
O14_4 S5_4 1_555 1_555
O15_4 S5_4 1_555 1_555
C98_4 N21_4 1_555 1_555
C149_4 N33_2 1_555 1_555
C151_4 N36_2 1_555 1_555
C154_4 N36_2 1_555 1_555
C158_4 C159_4 1_555 1_555
C158_4 N38_4 1_555 1_555
C177_4 N42_4 1_555 1_555
C179_4 N43_4 1_555 1_555
C182_4 N43_4 1_555 1_555
C186_4 C187_4 1_555 1_555
C186_4 N44_2 1_555 1_555
C188_4 N47_4 1_555 1_555
C191_4 N47_4 1_555 1_555
C193_4 N48_4 1_555 1_555
C196_4 N48_4 1_555 1_555
C200_4 C201_4 1_555 1_555
C200_4 N49_2 1_555 1_555
C202_4 N52_4 1_555 1_555
C205_4 N52_4 1_555 1_555
C207_4 N53_4 1_555 1_555
C210_4 N53_4 1_555 1_555
C213_4 N54_4 1_555 1_555
C214_4 C215_4 1_555 1_555
C214_4 N54_4 1_555 1_555
C216_4 N55_4 1_555 1_555
C220_4 N55_4 1_555 1_555
C222_4 N56_4 1_555 1_555
C225_4 N56_4 1_555 1_555
C230_4 N58_4 1_555 1_555
S5_4 O13_4 1_555 1_555
Ag3_6 N23_6 1_555 1_555
C104_6 C103_6 1_555 1_555
C105_4 C104_6 1_555 1_555
H74_4 C105_4 1_555 1_555
C106_4 C105_4 1_555 1_555
H75_4 C106_4 1_555 1_555
N23_6 C106_4 1_555 1_555
C107_4 H76_4 1_555 1_555
C108_4 C107_4 1_555 1_555
H77_4 C108_4 1_555 1_555
N24_4 Ag3_6 1_555 1_555
C160_4 H111_4 1_555 1_555
C161_4 C160_4 1_555 1_555
H112_4 C161_4 1_555 1_555
C162_4 C161_4 1_555 1_555
H113_4 C162_4 1_555 1_555
C232_4 C231_4 1_555 1_555
H163_4 C232_4 1_555 1_555
C233_4 C103_6 1_555 1_555
H168_4 C239_4 1_555 1_555
C240_4 C239_4 1_555 1_555
H169_4 C240_4 1_555 1_555
C247_4 C246_4 1_555 1_555
H173_4 C247_4 1_555 1_555
C248_4 C247_4 1_555 1_555
H174_4 C248_4 1_555 1_555
C249_4 C248_4 1_555 1_555
H175_4 C249_4 1_555 1_555
N62_2 Fe9_3 1_555 1_555
C107_4 N24_4 1_555 1_555
C232_4 C233_4 1_555 1_555
C246_4 N62_2 1_555 1_555
C249_4 N62_2 1_555 1_555
Fe9_3 N25_4 1_555 1_555
C112_4 H80_4 1_555 1_555
C113_4 C112_4 1_555 1_555
H81_4 C113_4 1_555 1_555
C114_4 C113_4 1_555 1_555
H82_4 C114_4 1_555 1_555
C115_4 C114_4 1_555 1_555
C116_4 C109_4 1_555 1_555
C121_4 H86_4 1_555 1_555
C122_4 C121_4 1_555 1_555
H87_4 C122_4 1_555 1_555
C123_4 C122_4 1_555 1_555
H88_4 C123_4 1_555 1_555
C124_4 C123_4 1_555 1_555
C125_6 C124_4 1_555 1_555
C126_6 C125_6 1_555 1_555
C127_4 C126_6 1_555 1_555
H89_4 C127_4 1_555 1_555
C128_4 C127_4 1_555 1_555
H90_4 C128_4 1_555 1_555
N25_4 C112_4 1_555 1_555
N27_4 Fe9_3 1_555 1_555
N28_6 Ag4_6 1_555 1_555
Ag8_2 N41_4 1_555 1_555
Fe6_2 N29_4 1_555 1_555
C132_4 H91_4 1_555 1_555
C133_4 C132_4 1_555 1_555
H92_4 C133_4 1_555 1_555
C134_4 C133_4 1_555 1_555
H93_4 C134_4 1_555 1_555
C135_4 C134_4 1_555 1_555
C136_4 C135_4 1_555 1_555
C137_4 C136_4 1_555 1_555
C138_4 C137_4 1_555 1_555
H94_4 C138_4 1_555 1_555
C139_4 C138_4 1_555 1_555
C140_4 C139_4 1_555 1_555
H96_4 C140_4 1_555 1_555
C141_4 C136_4 1_555 1_555
C142_4 C141_4 1_555 1_555
H97_4 C142_4 1_555 1_555
C143_4 C142_4 1_555 1_555
H98_4 C143_4 1_555 1_555
C144_4 H99_4 1_555 1_555
C145_4 C141_4 1_555 1_555
H100_4 C145_4 1_555 1_555
C164_4 C163_4 1_555 1_555
C165_4 C164_4 1_555 1_555
C166_4 C165_4 1_555 1_555
H114_4 C166_4 1_555 1_555
C167_4 C166_4 1_555 1_555
H115_4 C167_4 1_555 1_555
C168_4 C167_4 1_555 1_555
H116_4 C168_4 1_555 1_555
C169_4 C164_4 1_555 1_555
C170_4 C169_4 1_555 1_555
H117_4 C170_4 1_555 1_555
C171_4 C170_4 1_555 1_555
H118_4 C171_4 1_555 1_555
C172_4 H119_4 1_555 1_555
C173_4 C169_4 1_555 1_555
H120_4 C173_4 1_555 1_555
N29_4 C132_4 1_555 1_555
N30_4 Fe6_2 1_555 1_555
N31_4 Ag4_6 1_555 1_555
N39_4 Fe6_2 1_555 1_555
N40_4 Fe6_2 1_555 1_555
N41_4 C171_4 1_555 1_555
S4_4 C256_4 1_555 1_555
C256_4 F10_4 1_555 1_555
F12_4 C256_4 1_555 1_555
O11_4 Ag8_2 1_555 1_555
S6_4 C258_4 1_555 1_555
C258_4 F16_4 1_555 1_555
F17_4 C258_4 1_555 1_555
F18_4 C258_4 1_555 1_555
O16_4 S6_4 1_555 1_555
O17_4 Ag8_2 1_555 1_555
O18_4 S6_4 1_555 1_555
C115_4 C116_4 1_555 1_555
C115_4 N25_4 1_555 1_555
C121_4 N27_4 1_555 1_555
C124_4 N27_4 1_555 1_555
C128_4 N28_6 1_555 1_555
C135_4 N29_4 1_555 1_555
C137_4 N30_4 1_555 1_555
C140_4 N30_4 1_555 1_555
C143_4 N31_4 1_555 1_555
C144_4 C145_4 1_555 1_555
C144_4 N31_4 1_555 1_555
C163_4 N39_4 1_555 1_555
C165_4 N40_4 1_555 1_555
C168_4 N40_4 1_555 1_555
C172_4 C173_4 1_555 1_555
C172_4 N41_4 1_555 1_555
S4_4 O11_4 1_555 1_555
S6_4 O17_4 1_555 1_555

#END
