
###############################################################################
#
# This file contains modified crystal structure data generated from the
# MOF subset of the Cambridge Structural Database (CSD) v543 
# hosted by the Cambridge Crystallographic Data Centre (CCDC).
#
# This work is licensed under the Creative Commons
# Attribution-NonCommercial-ShareAlike 4.0 International License.
# To view a copy of this license, visit
# http://creativecommons.org/licenses/by-nc-sa/4.0/
# or send a letter to
# Creative Commons, PO Box 1866, Mountain View, CA 94042, USA.
#
# CIF created using the CSD Python API on 29 September 2022
# The structure has been converted into the P1 space group
# The structure has a 3D framework
# The original CSD entry CEYPUT01 is in the monoclinic crystal system
# The framework has been calculated to contain at least 10.0% void space
# The void calculation uses a probe of radius 1.32A, grid spacing 0.4
#
###############################################################################

data_CEYPUT01
_chemical_formula_moiety         '(C24 H16 Co2 N4 O8)n'
_symmetry_cell_setting           triclinic
_symmetry_space_group_name_H-M   'P 1'
_symmetry_Int_Tables_number      1
_space_group_name_Hall           'P 1'
loop_
_symmetry_equiv_pos_site_id
_symmetry_equiv_pos_as_xyz
1 x,y,z
_cell_length_a                   6.2081(12)
_cell_length_b                   12.681(3)
_cell_length_c                   10.414(2)
_cell_angle_alpha                90
_cell_angle_beta                 91.21(3)
_cell_angle_gamma                90
_cell_volume                     819.658
loop_
_atom_site_label
_atom_site_type_symbol
_atom_site_fract_x
_atom_site_fract_y
_atom_site_fract_z
H2 H 0.1496 0.0090 0.9199
Co1 Co 0.1658(2) 0.74660(6) 0.27566(14)
N1 N 0.0180(10) 0.8546(4) 0.1511(6)
N2 N 0.3146(10) 0.6574(4) 0.1370(6)
C2 C 0.6030(11) 0.5441(5) 0.0779(6)
H1 H 0.7432 0.5212 0.0938
C6 C 0.5115(12) 0.6213(6) 0.1538(7)
H4 H 0.5948 0.6491 0.2209
C8 C 0.1396(13) 0.8971(5) 0.0596(7)
H5 H 0.2763 0.8699 0.0459
C10 C 0.1957(12) 0.6208(6) 0.0336(7)
H7 H 0.0608 0.6497 0.0153
O5 O 0.4037(8) 0.8468(4) 0.3421(5)
O6 O 0.0906(8) 0.8572(4) 0.4367(5)
O8 O 0.2537(8) 0.6153(4) 0.4133(5)
C2_2 C 0.1030(11) 0.4559(5) 0.5779(6)
H1_2 H 0.2432 0.4788 0.5938
C5 C 0.0642(11) 0.5889(5) 0.4008(6)
C6_2 C 0.0115(12) 0.3787(6) 0.6538(7)
H4_2 H 0.0948 0.3509 0.7209
C1 C 0.3651(12) 0.9763(5) 0.5066(6)
H2_2 H 0.6496 0.9910 0.4199
H8 H 0.1082 0.9899 0.6223
C12 C 0.2780(12) 0.8849(6) 0.4266(7)
O3 O 0.4364(8) 0.3649(4) 0.8219(5)
O4 O 0.7537(8) 0.3847(4) 0.9133(5)
C3 C 0.0647(12) 0.9816(6) 0.9844(7)
C4 C 0.2742(12) 0.5413(6) 0.9563(7)
H3 H 0.1876 0.5145 0.8900
C5_2 C 0.5642(11) 0.4111(5) 0.9008(6)
C7 C 0.4784(12) 0.5014(6) 0.9760(7)
Co3 Co 0.6658(2) 0.25340(6) 0.77566(14)
O1 O 0.9037(8) 0.1532(4) 0.8421(5)
O2 O 0.5906(8) 0.1428(4) 0.9367(5)
C12_2 C 0.7780(12) 0.1151(6) 0.9266(7)
C9 C 0.8235(11) 0.8969(5) 0.1747(7)
H6 H 0.7413 0.8685 0.2398
C11 C 0.7425(12) 0.9818(5) 0.1043(7)
O7 O 0.9364(8) 0.6351(4) 0.3219(5)
N1_2 N 0.5180(10) 0.1454(4) 0.6511(6)
N2_2 N 0.8146(10) 0.3426(4) 0.6370(6)
C3_2 C 0.5647(12) 0.0184(6) 0.4844(7)
C4_2 C 0.7742(12) 0.4587(6) 0.4563(7)
H3_2 H 0.6876 0.4855 0.3900
C7_2 C 0.9784(12) 0.4986(6) 0.4760(7)
C8_2 C 0.6396(13) 0.1029(5) 0.5596(7)
H5_2 H 0.7763 0.1301 0.5459
C9_2 C 0.3235(11) 0.1031(5) 0.6747(7)
H6_2 H 0.2413 0.1315 0.7398
C10_2 C 0.6957(12) 0.3792(6) 0.5336(7)
H7_2 H 0.5608 0.3503 0.5153
C11_2 C 0.2425(12) 0.0182(5) 0.6043(7)
C1_2 C 0.8651(12) 0.0237(5) 0.0066(6)
H8_2 H 0.6082 0.0101 0.1223
loop_
_geom_bond_atom_site_label_1
_geom_bond_atom_site_label_2
_geom_bond_site_symmetry_1
_geom_bond_site_symmetry_2
Co1 N1 1_555 1_555
N1 C8 1_555 1_555
N2 Co1 1_555 1_555
C2 H1 1_555 1_555
C6 N2 1_555 1_555
H4 C6 1_555 1_555
H5 C8 1_555 1_555
C10 N2 1_555 1_555
H7 C10 1_555 1_555
O5 Co1 1_555 1_555
O6 Co1 1_555 1_555
O8 Co1 1_555 1_555
C2 C6 1_555 1_555
O8 C5 1_555 1_555
C2_2 H1_2 1_555 1_555
H4_2 C6_2 1_555 1_555
C2_2 C6_2 1_555 1_555
O5 C12 1_555 1_555
O6 C12 1_555 1_555
C12 C1 1_555 1_555
O3 C5_2 1_555 1_555
O4 C5_2 1_555 1_555
C4 H3 1_555 1_555
C5_2 C7 1_555 1_555
Co3 O3 1_555 1_555
O4 Co3 1_555 1_555
C4 C7 1_555 1_555
O1 C12_2 1_555 1_555
O2 C12_2 1_555 1_555
Co3 O1 1_555 1_555
O2 Co3 1_555 1_555
H6 C9 1_555 1_555
C9 C11 1_555 1_555
Co3 N1_2 1_555 1_555
N1_2 C8_2 1_555 1_555
N2_2 Co3 1_555 1_555
C4_2 H3_2 1_555 1_555
C8_2 C3_2 1_555 1_555
H5_2 C8_2 1_555 1_555
C9_2 N1_2 1_555 1_555
H6_2 C9_2 1_555 1_555
C10_2 N2_2 1_555 1_555
H7_2 C10_2 1_555 1_555
C4_2 C7_2 1_555 1_555
C4_2 C10_2 1_555 1_555
C9_2 C11_2 1_555 1_555

#END
