
###############################################################################
#
# This file contains modified crystal structure data generated from the
# MOF subset of the Cambridge Structural Database (CSD) v543 
# hosted by the Cambridge Crystallographic Data Centre (CCDC).
#
# This work is licensed under the Creative Commons
# Attribution-NonCommercial-ShareAlike 4.0 International License.
# To view a copy of this license, visit
# http://creativecommons.org/licenses/by-nc-sa/4.0/
# or send a letter to
# Creative Commons, PO Box 1866, Mountain View, CA 94042, USA.
#
# CIF created using the CSD Python API on 29 September 2022
# The structure has been converted into the P1 space group
# The structure has a 3D framework
# The original CSD entry CEZCOC is in the tetragonal crystal system
# The framework has been calculated to contain at least 10.0% void space
# The void calculation uses a probe of radius 1.32A, grid spacing 0.4
# The framework is charged, counterions have been retained in the structure
# H atom positions have been added when not included in the experimental data
# Generated hydrogen atom positions removed from atoms on special positions
#
###############################################################################

data_CEZCOC
_chemical_formula_moiety         '(C360 H616 Cu32 Fe8 N48 Ni16 O208 24-)n'
_symmetry_cell_setting           triclinic
_symmetry_space_group_name_H-M   'P 1'
_symmetry_Int_Tables_number      1
_space_group_name_Hall           'P 1'
loop_
_symmetry_equiv_pos_site_id
_symmetry_equiv_pos_as_xyz
1 x,y,z
_cell_length_a                   36.382(3)
_cell_length_b                   36.382(3)
_cell_length_c                   15.4890(15)
_cell_angle_alpha                90
_cell_angle_beta                 90
_cell_angle_gamma                90
_cell_volume                     20502
loop_
_atom_site_label
_atom_site_type_symbol
_atom_site_fract_x
_atom_site_fract_y
_atom_site_fract_z
Fe1 Fe 0.07371(18) 0.54257(19) 0.5000
O1 O 0.0713(4) 0.5808(3) 0.5919(8)
O2 O 0.1264(10) 0.5594(8) 0.5000
O3 O 0.0806(4) 0.5000 0.3983(9)
Fe2 Fe 0.07371(18) 0.45743(19) 0.5000
O4 O 0.0713(4) 0.4192(3) 0.4081(8)
O5 O 0.1264(10) 0.4406(8) 0.5000
O6 O 0.0806(4) 0.5000 0.6017(9)
O7 O 0.0713(4) 0.5808(3) 0.4081(8)
O8 O 0.0713(4) 0.4192(3) 0.5919(8)
Fe1_2 Fe 0.92629(18) 0.45743(19) 0.5000
O1_2 O 0.9287(4) 0.4192(3) 0.5919(8)
O2_2 O 0.8736(10) 0.4406(8) 0.5000
O3_2 O 0.9194(4) 0.5000 0.3983(9)
Fe2_2 Fe 0.92629(18) 0.54257(19) 0.5000
O4_2 O 0.9287(4) 0.5808(3) 0.4081(8)
O5_2 O 0.8736(10) 0.5594(8) 0.5000
O6_2 O 0.9194(4) 0.5000 0.6017(9)
O7_2 O 0.9287(4) 0.4192(3) 0.4081(8)
O8_2 O 0.9287(4) 0.5808(3) 0.5919(8)
Fe1_3 Fe 0.45743(19) 0.07371(18) 0.5000
O1_3 O 0.4192(3) 0.0713(4) 0.5919(8)
O2_3 O 0.4406(8) 0.1264(10) 0.5000
O3_3 O 0.5000 0.0806(4) 0.3983(9)
Fe2_3 Fe 0.54257(19) 0.07371(18) 0.5000
O4_3 O 0.5808(3) 0.0713(4) 0.4081(8)
O5_3 O 0.5594(8) 0.1264(10) 0.5000
O6_3 O 0.5000 0.0806(4) 0.6017(9)
O7_3 O 0.4192(3) 0.0713(4) 0.4081(8)
O8_3 O 0.5808(3) 0.0713(4) 0.5919(8)
Fe1_4 Fe 0.54257(19) 0.92629(18) 0.5000
O1_4 O 0.5808(3) 0.9287(4) 0.5919(8)
O2_4 O 0.5594(8) 0.8736(10) 0.5000
O3_4 O 0.5000 0.9194(4) 0.3983(9)
Fe2_4 Fe 0.45743(19) 0.92629(18) 0.5000
O4_4 O 0.4192(3) 0.9287(4) 0.4081(8)
O5_4 O 0.4406(8) 0.8736(10) 0.5000
O6_4 O 0.5000 0.9194(4) 0.6017(9)
O7_4 O 0.5808(3) 0.9287(4) 0.4081(8)
O8_4 O 0.4192(3) 0.9287(4) 0.5919(8)
Cu6 Cu 0.64881(11) 0.0000 0.2321(2)
Cu3 Cu 0.64881(11) 0.0000 0.7679(2)
O20 O 0.6007(6) 0.0000 0.6519(11)
O34 O 0.67076(14) 0.0396(3) 0.6889(4)
N9 N 0.63399(13) 0.0440(2) 0.8418(4)
H45 H 0.581386 0.0182899 0.666262
C4 C 0.54708(12) 0.8152(4) 0.0000
C6 C 0.54485(17) 0.8563(4) 0.0000
C7 C 0.55132(19) 0.7370(4) 0.0000
H1 H 0.5543 0.7111 0.0000
C18 C 0.6316(3) 0.95543(18) 0.0000
C22 C 0.5578(5) 0.9493(2) 0.0000
C24 C 0.6736(6) 0.9589(3) 0.0000
H9 H 0.5318 0.9468 0.0000
O21 O 0.5356(2) 0.85632(12) 0.3021(3)
N4 N 0.54477(14) 0.81351(13) 0.1622(4)
C25 C 0.5682(3) 0.85092(13) 0.2815(4)
C26 C 0.5775(4) 0.82470(13) 0.1955(4)
C27 C 0.54709(6) 0.7943(3) 0.0762(6)
O22 O 0.5965(2) 0.86261(12) 0.3168(4)
O23 O 0.6088(2) 0.81983(13) 0.1767(4)
C28 C 0.54910(11) 0.7562(3) 0.0794(6)
C29 C 0.54910(17) 0.7341(3) 0.1614(6)
H13 H 0.5237 0.7282 0.1776
H14 H 0.5629 0.7113 0.1525
H15 H 0.5606 0.7484 0.2077
O27 O 0.67089(12) 0.8979(3) 0.3154(4)
O28 O 0.63502(13) 0.8927(3) 0.1663(4)
C35 C 0.66398(13) 0.9283(5) 0.2848(5)
C36 C 0.64331(13) 0.9246(5) 0.1989(5)
O29 O 0.67076(14) 0.9604(3) 0.3111(4)
N6 N 0.63399(13) 0.9560(2) 0.1582(4)
C37 C 0.61127(19) 0.95392(8) 0.0745(4)
C38 C 0.57382(19) 0.95080(12) 0.0801(5)
C39 C 0.5494(5) 0.9490(2) 0.1612(9)
H19 H 0.5555 0.9695 0.1997
H20 H 0.5235 0.9506 0.1442
H21 H 0.5537 0.9257 0.1912
Ni2 Ni 0.64595(5) 0.85225(6) 0.24948(10)
Cu4 Cu 0.5000 0.82879(5) 0.22883(12)
O31 O 0.66086(17) 0.81091(18) 0.3331(4)
O32 O 0.69295(16) 0.83649(17) 0.1927(4)
Cu6_2 Cu 0.64881(11) 1.0000 0.2321(2)
H23 H 0.545284 0.866316 0.0662473
H47 H 0.683556 0.959572 0.066286
Cu1 Cu 0.5000 0.82879(5) 0.77117(12)
O9 O 0.5356(2) 0.85632(12) 0.6979(3)
N1 N 0.54477(14) 0.81351(13) 0.8378(4)
O10 O 0.5000 0.7806(3) 0.6584(7)
C1 C 0.5682(3) 0.85092(13) 0.7185(4)
C2 C 0.5775(4) 0.82470(13) 0.8045(4)
C3 C 0.54709(6) 0.7943(3) 0.9238(6)
O11 O 0.5965(2) 0.86261(12) 0.6832(4)
O12 O 0.6088(2) 0.81983(13) 0.8233(4)
C4_2 C 0.54708(12) 0.8152(4) 1.0000
C5 C 0.54910(11) 0.7562(3) 0.9206(6)
Ni1 Ni 0.64595(5) 0.85225(6) 0.75052(10)
C6_2 C 0.54485(17) 0.8563(4) 1.0000
C7_2 C 0.55132(19) 0.7370(4) 1.0000
C8 C 0.54910(17) 0.7341(3) 0.8386(6)
O13 O 0.66086(17) 0.81091(18) 0.6669(4)
O14 O 0.69295(16) 0.83649(17) 0.8073(4)
O15 O 0.67089(12) 0.8979(3) 0.6846(4)
O16 O 0.63502(13) 0.8927(3) 0.8337(4)
H1_2 H 0.5543 0.7111 1.0000
H2 H 0.5237 0.7282 0.8224
H3 H 0.5629 0.7113 0.8475
H4 H 0.5606 0.7484 0.7923
C9 C 0.68821(19) 0.7930(2) 0.6936(4)
C10 C 0.7082(2) 0.8051(2) 0.7722(5)
C11 C 0.66398(13) 0.9283(5) 0.7152(5)
C12 C 0.64331(13) 0.9246(5) 0.8011(5)
N2 N 0.70225(14) 0.76346(16) 0.6598(4)
O17 O 0.73465(18) 0.78832(18) 0.7993(4)
O18 O 0.67076(14) 0.9604(3) 0.6889(4)
N3 N 0.63399(13) 0.9560(2) 0.8418(4)
Cu2 Cu 0.74443(4) 0.74443(4) 0.72859(13)
C13 C 0.68721(9) 0.74794(10) 0.5747(4)
Cu3_2 Cu 0.64881(11) 1.0000 0.7679(2)
C14 C 0.61127(19) 0.95392(8) 0.9255(4)
O19 O 0.7130(4) 0.7130(4) 0.8363(13)
C15 C 0.69990(16) 0.76376(17) 0.5000
C16 C 0.66235(14) 0.71964(14) 0.5765(4)
O20_2 O 0.6007(6) 1.0000 0.6519(11)
C17 C 0.57382(19) 0.95080(12) 0.9199(5)
C18_2 C 0.6316(3) 0.95543(18) 1.0000
C19 C 0.7284(3) 0.7962(3) 0.5000
C20 C 0.6491(2) 0.7060(2) 0.5000
C21 C 0.6470(3) 0.7006(4) 0.6576(8)
C22_2 C 0.5578(5) 0.9493(2) 1.0000
C23 C 0.5494(5) 0.9490(2) 0.8388(9)
C24_2 C 0.6736(6) 0.9589(3) 1.0000
H5 H 0.6309 0.6872 0.5000
H6 H 0.6671 0.6956 0.6980
H7 H 0.6351 0.6775 0.6412
H8 H 0.6289 0.7168 0.6854
H9_2 H 0.5318 0.9468 1.0000
H10 H 0.5555 0.9695 0.8003
H11 H 0.5235 0.9506 0.8558
H12 H 0.5537 0.9257 0.8088
C30 C 0.68821(19) 0.7930(2) 0.3064(4)
C31 C 0.7082(2) 0.8051(2) 0.2278(5)
N5 N 0.70225(14) 0.76346(16) 0.3402(4)
O26 O 0.73465(18) 0.78832(18) 0.2007(4)
C32 C 0.68721(9) 0.74794(10) 0.4253(4)
C33 C 0.66235(14) 0.71964(14) 0.4235(4)
C34 C 0.6470(3) 0.7006(4) 0.3424(8)
H16 H 0.6671 0.6956 0.3020
H17 H 0.6351 0.6775 0.3588
H18 H 0.6289 0.7168 0.3146
O30 O 0.4644(2) 0.85632(12) 0.6979(3)
N7 N 0.45523(14) 0.81351(13) 0.8378(4)
N8 N 0.76346(16) 0.70225(14) 0.6598(4)
O33 O 0.78832(18) 0.73465(18) 0.7993(4)
Cu5 Cu 0.74443(4) 0.74443(4) 0.27141(13)
H22 H 0.519433 0.864913 0.968861
H24 H 0.568211 0.86756 0.964891
H41 H 0.753641 0.787306 0.531492
H42 H 0.73438 0.804227 0.43374
H43 H 0.716935 0.819554 0.534768
H44 H 0.589489 0.975179 0.64772
H46 H 0.681525 0.984153 0.967163
H48 H 0.68555 0.93544 0.966551
C4_3 C 0.45292(12) 0.1848(4) 0.0000
C6_3 C 0.45515(17) 0.1437(4) 0.0000
C7_3 C 0.44868(19) 0.2630(4) 0.0000
H1_3 H 0.4457 0.2889 0.0000
C18_3 C 0.3684(3) 0.04457(18) 0.0000
C22_3 C 0.4422(5) 0.0507(2) 0.0000
C24_3 C 0.3264(6) 0.0411(3) 0.0000
H9_3 H 0.4682 0.0532 0.0000
O21_2 O 0.4644(2) 0.14368(12) 0.3021(3)
N4_2 N 0.45523(14) 0.18649(13) 0.1622(4)
C25_2 C 0.4318(3) 0.14908(13) 0.2815(4)
C26_2 C 0.4225(4) 0.17530(13) 0.1955(4)
C27_2 C 0.45291(6) 0.2057(3) 0.0762(6)
O22_2 O 0.4035(2) 0.13739(12) 0.3168(4)
O23_2 O 0.3912(2) 0.18017(13) 0.1767(4)
C28_2 C 0.45090(11) 0.2438(3) 0.0794(6)
C29_2 C 0.45090(17) 0.2659(3) 0.1614(6)
H13_2 H 0.4763 0.2718 0.1776
H14_2 H 0.4371 0.2887 0.1525
H15_2 H 0.4394 0.2516 0.2077
O27_2 O 0.32911(12) 0.1021(3) 0.3154(4)
O28_2 O 0.36498(13) 0.1073(3) 0.1663(4)
C35_2 C 0.33602(13) 0.0717(5) 0.2848(5)
C36_2 C 0.35669(13) 0.0754(5) 0.1989(5)
O29_2 O 0.32924(14) 0.0396(3) 0.3111(4)
N6_2 N 0.36601(13) 0.0440(2) 0.1582(4)
C37_2 C 0.38873(19) 0.04608(8) 0.0745(4)
C38_2 C 0.42618(19) 0.04920(12) 0.0801(5)
C39_2 C 0.4506(5) 0.0510(2) 0.1612(9)
H19_2 H 0.4445 0.0305 0.1997
H20_2 H 0.4765 0.0494 0.1442
H21_2 H 0.4463 0.0743 0.1912
Ni2_2 Ni 0.35405(5) 0.14775(6) 0.24948(10)
Cu4_2 Cu 0.5000 0.17121(5) 0.22883(12)
O31_2 O 0.33914(17) 0.18909(18) 0.3331(4)
O32_2 O 0.30705(16) 0.16351(17) 0.1927(4)
Cu6_3 Cu 0.35119(11) -0.0000 0.2321(2)
H23_2 H 0.454716 0.133684 0.0662473
H47_2 H 0.316444 0.0404284 0.066286
Cu1_2 Cu 0.5000 0.17121(5) 0.77117(12)
O9_2 O 0.4644(2) 0.14368(12) 0.6979(3)
N1_2 N 0.45523(14) 0.18649(13) 0.8378(4)
O10_2 O 0.5000 0.2194(3) 0.6584(7)
C1_2 C 0.4318(3) 0.14908(13) 0.7185(4)
C2_2 C 0.4225(4) 0.17530(13) 0.8045(4)
C3_2 C 0.45291(6) 0.2057(3) 0.9238(6)
O11_2 O 0.4035(2) 0.13739(12) 0.6832(4)
O12_2 O 0.3912(2) 0.18017(13) 0.8233(4)
C4_4 C 0.45292(12) 0.1848(4) 1.0000
C5_2 C 0.45090(11) 0.2438(3) 0.9206(6)
Ni1_2 Ni 0.35405(5) 0.14775(6) 0.75052(10)
C6_4 C 0.45515(17) 0.1437(4) 1.0000
C7_4 C 0.44868(19) 0.2630(4) 1.0000
C8_2 C 0.45090(17) 0.2659(3) 0.8386(6)
O13_2 O 0.33914(17) 0.18909(18) 0.6669(4)
O14_2 O 0.30705(16) 0.16351(17) 0.8073(4)
O15_2 O 0.32911(12) 0.1021(3) 0.6846(4)
O16_2 O 0.36498(13) 0.1073(3) 0.8337(4)
H1_4 H 0.4457 0.2889 1.0000
H2_2 H 0.4763 0.2718 0.8224
H3_2 H 0.4371 0.2887 0.8475
H4_2 H 0.4394 0.2516 0.7923
C9_2 C 0.31179(19) 0.2070(2) 0.6936(4)
C10_2 C 0.2918(2) 0.1949(2) 0.7722(5)
C11_2 C 0.33602(13) 0.0717(5) 0.7152(5)
C12_2 C 0.35669(13) 0.0754(5) 0.8011(5)
N2_2 N 0.29775(14) 0.23654(16) 0.6598(4)
O17_2 O 0.26535(18) 0.21168(18) 0.7993(4)
O18_2 O 0.32924(14) 0.0396(3) 0.6889(4)
N3_2 N 0.36601(13) 0.0440(2) 0.8418(4)
Cu2_2 Cu 0.25557(4) 0.25557(4) 0.72859(13)
C13_2 C 0.31279(9) 0.25206(10) 0.5747(4)
Cu3_3 Cu 0.35119(11) -0.0000 0.7679(2)
C14_2 C 0.38873(19) 0.04608(8) 0.9255(4)
O19_2 O 0.2870(4) 0.2870(4) 0.8363(13)
C15_2 C 0.30010(16) 0.23624(17) 0.5000
C16_2 C 0.33765(14) 0.28036(14) 0.5765(4)
O20_3 O 0.3993(6) -0.0000 0.6519(11)
C17_2 C 0.42618(19) 0.04920(12) 0.9199(5)
C18_4 C 0.3684(3) 0.04457(18) 1.0000
C19_2 C 0.2716(3) 0.2038(3) 0.5000
C20_2 C 0.3509(2) 0.2940(2) 0.5000
C21_2 C 0.3530(3) 0.2994(4) 0.6576(8)
C22_4 C 0.4422(5) 0.0507(2) 1.0000
C23_2 C 0.4506(5) 0.0510(2) 0.8388(9)
C24_4 C 0.3264(6) 0.0411(3) 1.0000
H5_2 H 0.3691 0.3128 0.5000
H6_2 H 0.3329 0.3044 0.6980
H7_2 H 0.3649 0.3225 0.6412
H8_2 H 0.3711 0.2832 0.6854
H9_4 H 0.4682 0.0532 1.0000
H10_2 H 0.4445 0.0305 0.8003
H11_2 H 0.4765 0.0494 0.8558
H12_2 H 0.4463 0.0743 0.8088
C30_2 C 0.31179(19) 0.2070(2) 0.3064(4)
C31_2 C 0.2918(2) 0.1949(2) 0.2278(5)
N5_2 N 0.29775(14) 0.23654(16) 0.3402(4)
O26_2 O 0.26535(18) 0.21168(18) 0.2007(4)
C32_2 C 0.31279(9) 0.25206(10) 0.4253(4)
C33_2 C 0.33765(14) 0.28036(14) 0.4235(4)
C34_2 C 0.3530(3) 0.2994(4) 0.3424(8)
H16_2 H 0.3329 0.3044 0.3020
H17_2 H 0.3649 0.3225 0.3588
H18_2 H 0.3711 0.2832 0.3146
O30_2 O 0.5356(2) 0.14368(12) 0.6979(3)
N7_2 N 0.54477(14) 0.18649(13) 0.8378(4)
N8_2 N 0.23654(16) 0.29775(14) 0.6598(4)
O33_2 O 0.21168(18) 0.26535(18) 0.7993(4)
Cu5_2 Cu 0.25557(4) 0.25557(4) 0.27141(13)
H22_2 H 0.480567 0.135087 0.968861
H24_2 H 0.431789 0.13244 0.964891
H41_2 H 0.246359 0.212694 0.531492
H42_2 H 0.26562 0.195773 0.43374
H43_2 H 0.283065 0.180446 0.534768
H44_2 H 0.410511 0.0248211 0.64772
H46_2 H 0.318475 0.0158472 0.967163
H48_2 H 0.31445 0.0645599 0.966551
Cu6_4 Cu 0.35119(11) 1.0000 0.2321(2)
Cu3_4 Cu 0.35119(11) 1.0000 0.7679(2)
O20_4 O 0.3993(6) 1.0000 0.6519(11)
O34_2 O 0.32924(14) 0.9604(3) 0.6889(4)
N9_2 N 0.36601(13) 0.9560(2) 0.8418(4)
H45_2 H 0.418614 0.98171 0.666262
C4_5 C 0.1848(4) 0.54708(12) 0.0000
C6_5 C 0.1437(4) 0.54485(17) 0.0000
C7_5 C 0.2630(4) 0.55132(19) 0.0000
H1_5 H 0.2889 0.5543 0.0000
C18_5 C 0.04457(18) 0.6316(3) 0.0000
C22_5 C 0.0507(2) 0.5578(5) 0.0000
C24_5 C 0.0411(3) 0.6736(6) 0.0000
H9_5 H 0.0532 0.5318 0.0000
O21_3 O 0.14368(12) 0.5356(2) 0.3021(3)
N4_3 N 0.18649(13) 0.54477(14) 0.1622(4)
C25_3 C 0.14908(13) 0.5682(3) 0.2815(4)
C26_3 C 0.17530(13) 0.5775(4) 0.1955(4)
C27_3 C 0.2057(3) 0.54709(6) 0.0762(6)
O22_3 O 0.13739(12) 0.5965(2) 0.3168(4)
O23_3 O 0.18017(13) 0.6088(2) 0.1767(4)
C28_3 C 0.2438(3) 0.54910(11) 0.0794(6)
C29_3 C 0.2659(3) 0.54910(17) 0.1614(6)
H13_3 H 0.2718 0.5237 0.1776
H14_3 H 0.2887 0.5629 0.1525
H15_3 H 0.2516 0.5606 0.2077
O27_3 O 0.1021(3) 0.67089(12) 0.3154(4)
O28_3 O 0.1073(3) 0.63502(13) 0.1663(4)
C35_3 C 0.0717(5) 0.66398(13) 0.2848(5)
C36_3 C 0.0754(5) 0.64331(13) 0.1989(5)
O29_3 O 0.0396(3) 0.67076(14) 0.3111(4)
N6_3 N 0.0440(2) 0.63399(13) 0.1582(4)
C37_3 C 0.04608(8) 0.61127(19) 0.0745(4)
C38_3 C 0.04920(12) 0.57382(19) 0.0801(5)
C39_3 C 0.0510(2) 0.5494(5) 0.1612(9)
H19_3 H 0.0305 0.5555 0.1997
H20_3 H 0.0494 0.5235 0.1442
H21_3 H 0.0743 0.5537 0.1912
Ni2_3 Ni 0.14775(6) 0.64595(5) 0.24948(10)
Cu4_3 Cu 0.17121(5) 0.5000 0.22883(12)
O31_3 O 0.18909(18) 0.66086(17) 0.3331(4)
O32_3 O 0.16351(17) 0.69295(16) 0.1927(4)
Cu6_5 Cu -0.0000 0.64881(11) 0.2321(2)
H23_3 H 0.133684 0.545284 0.0662473
H47_3 H 0.0404284 0.683556 0.066286
Cu1_3 Cu 0.17121(5) 0.5000 0.77117(12)
O9_3 O 0.14368(12) 0.5356(2) 0.6979(3)
N1_3 N 0.18649(13) 0.54477(14) 0.8378(4)
O10_3 O 0.2194(3) 0.5000 0.6584(7)
C1_3 C 0.14908(13) 0.5682(3) 0.7185(4)
C2_3 C 0.17530(13) 0.5775(4) 0.8045(4)
C3_3 C 0.2057(3) 0.54709(6) 0.9238(6)
O11_3 O 0.13739(12) 0.5965(2) 0.6832(4)
O12_3 O 0.18017(13) 0.6088(2) 0.8233(4)
C4_6 C 0.1848(4) 0.54708(12) 1.0000
C5_3 C 0.2438(3) 0.54910(11) 0.9206(6)
Ni1_3 Ni 0.14775(6) 0.64595(5) 0.75052(10)
C6_6 C 0.1437(4) 0.54485(17) 1.0000
C7_6 C 0.2630(4) 0.55132(19) 1.0000
C8_3 C 0.2659(3) 0.54910(17) 0.8386(6)
O13_3 O 0.18909(18) 0.66086(17) 0.6669(4)
O14_3 O 0.16351(17) 0.69295(16) 0.8073(4)
O15_3 O 0.1021(3) 0.67089(12) 0.6846(4)
O16_3 O 0.1073(3) 0.63502(13) 0.8337(4)
H1_6 H 0.2889 0.5543 1.0000
H2_3 H 0.2718 0.5237 0.8224
H3_3 H 0.2887 0.5629 0.8475
H4_3 H 0.2516 0.5606 0.7923
C9_3 C 0.2070(2) 0.68821(19) 0.6936(4)
C10_3 C 0.1949(2) 0.7082(2) 0.7722(5)
C11_3 C 0.0717(5) 0.66398(13) 0.7152(5)
C12_3 C 0.0754(5) 0.64331(13) 0.8011(5)
N2_3 N 0.23654(16) 0.70225(14) 0.6598(4)
O17_3 O 0.21168(18) 0.73465(18) 0.7993(4)
O18_3 O 0.0396(3) 0.67076(14) 0.6889(4)
N3_3 N 0.0440(2) 0.63399(13) 0.8418(4)
Cu2_3 Cu 0.25557(4) 0.74443(4) 0.72859(13)
C13_3 C 0.25206(10) 0.68721(9) 0.5747(4)
Cu3_5 Cu -0.0000 0.64881(11) 0.7679(2)
C14_3 C 0.04608(8) 0.61127(19) 0.9255(4)
O19_3 O 0.2870(4) 0.7130(4) 0.8363(13)
C15_3 C 0.23624(17) 0.69990(16) 0.5000
C16_3 C 0.28036(14) 0.66235(14) 0.5765(4)
O20_5 O -0.0000 0.6007(6) 0.6519(11)
C17_3 C 0.04920(12) 0.57382(19) 0.9199(5)
C18_6 C 0.04457(18) 0.6316(3) 1.0000
C19_3 C 0.2038(3) 0.7284(3) 0.5000
C20_3 C 0.2940(2) 0.6491(2) 0.5000
C21_3 C 0.2994(4) 0.6470(3) 0.6576(8)
C22_6 C 0.0507(2) 0.5578(5) 1.0000
C23_3 C 0.0510(2) 0.5494(5) 0.8388(9)
C24_6 C 0.0411(3) 0.6736(6) 1.0000
H5_3 H 0.3128 0.6309 0.5000
H6_3 H 0.3044 0.6671 0.6980
H7_3 H 0.3225 0.6351 0.6412
H8_3 H 0.2832 0.6289 0.6854
H9_6 H 0.0532 0.5318 1.0000
H10_3 H 0.0305 0.5555 0.8003
H11_3 H 0.0494 0.5235 0.8558
H12_3 H 0.0743 0.5537 0.8088
C30_3 C 0.2070(2) 0.68821(19) 0.3064(4)
C31_3 C 0.1949(2) 0.7082(2) 0.2278(5)
N5_3 N 0.23654(16) 0.70225(14) 0.3402(4)
O26_3 O 0.21168(18) 0.73465(18) 0.2007(4)
C32_3 C 0.25206(10) 0.68721(9) 0.4253(4)
C33_3 C 0.28036(14) 0.66235(14) 0.4235(4)
C34_3 C 0.2994(4) 0.6470(3) 0.3424(8)
H16_3 H 0.3044 0.6671 0.3020
H17_3 H 0.3225 0.6351 0.3588
H18_3 H 0.2832 0.6289 0.3146
O30_3 O 0.14368(12) 0.4644(2) 0.6979(3)
N7_3 N 0.18649(13) 0.45523(14) 0.8378(4)
N8_3 N 0.29775(14) 0.76346(16) 0.6598(4)
O33_3 O 0.26535(18) 0.78832(18) 0.7993(4)
Cu5_3 Cu 0.25557(4) 0.74443(4) 0.27141(13)
H22_3 H 0.135087 0.519433 0.968861
H24_3 H 0.13244 0.568211 0.964891
H41_3 H 0.212694 0.753641 0.531492
H42_3 H 0.195773 0.73438 0.43374
H43_3 H 0.180446 0.716935 0.534768
H44_3 H 0.0248211 0.589489 0.64772
H46_3 H 0.0158472 0.681525 0.967163
H48_3 H 0.0645599 0.68555 0.966551
Cu6_6 Cu 1.0000 0.64881(11) 0.2321(2)
Cu3_6 Cu 1.0000 0.64881(11) 0.7679(2)
O20_6 O 1.0000 0.6007(6) 0.6519(11)
O34_3 O 0.9604(3) 0.67076(14) 0.6889(4)
N9_3 N 0.9560(2) 0.63399(13) 0.8418(4)
H45_3 H 0.98171 0.581386 0.666262
Cu6_7 Cu 0.0000 0.35119(11) 0.2321(2)
Cu3_7 Cu 0.0000 0.35119(11) 0.7679(2)
O20_7 O 0.0000 0.3993(6) 0.6519(11)
O34_4 O 0.0396(3) 0.32924(14) 0.6889(4)
N9_4 N 0.0440(2) 0.36601(13) 0.8418(4)
H45_4 H 0.0182899 0.418614 0.666262
C4_7 C 0.8152(4) 0.45292(12) 0.0000
C6_7 C 0.8563(4) 0.45515(17) 0.0000
C7_7 C 0.7370(4) 0.44868(19) 0.0000
H1_7 H 0.7111 0.4457 0.0000
C18_7 C 0.95543(18) 0.3684(3) 0.0000
C22_7 C 0.9493(2) 0.4422(5) 0.0000
C24_7 C 0.9589(3) 0.3264(6) 0.0000
H9_7 H 0.9468 0.4682 0.0000
O21_4 O 0.85632(12) 0.4644(2) 0.3021(3)
N4_4 N 0.81351(13) 0.45523(14) 0.1622(4)
C25_4 C 0.85092(13) 0.4318(3) 0.2815(4)
C26_4 C 0.82470(13) 0.4225(4) 0.1955(4)
C27_4 C 0.7943(3) 0.45291(6) 0.0762(6)
O22_4 O 0.86261(12) 0.4035(2) 0.3168(4)
O23_4 O 0.81983(13) 0.3912(2) 0.1767(4)
C28_4 C 0.7562(3) 0.45090(11) 0.0794(6)
C29_4 C 0.7341(3) 0.45090(17) 0.1614(6)
H13_4 H 0.7282 0.4763 0.1776
H14_4 H 0.7113 0.4371 0.1525
H15_4 H 0.7484 0.4394 0.2077
O27_4 O 0.8979(3) 0.32911(12) 0.3154(4)
O28_4 O 0.8927(3) 0.36498(13) 0.1663(4)
C35_4 C 0.9283(5) 0.33602(13) 0.2848(5)
C36_4 C 0.9246(5) 0.35669(13) 0.1989(5)
O29_4 O 0.9604(3) 0.32924(14) 0.3111(4)
N6_4 N 0.9560(2) 0.36601(13) 0.1582(4)
C37_4 C 0.95392(8) 0.38873(19) 0.0745(4)
C38_4 C 0.95080(12) 0.42618(19) 0.0801(5)
C39_4 C 0.9490(2) 0.4506(5) 0.1612(9)
H19_4 H 0.9695 0.4445 0.1997
H20_4 H 0.9506 0.4765 0.1442
H21_4 H 0.9257 0.4463 0.1912
Ni2_4 Ni 0.85225(6) 0.35405(5) 0.24948(10)
Cu4_4 Cu 0.82879(5) 0.5000 0.22883(12)
O31_4 O 0.81091(18) 0.33914(17) 0.3331(4)
O32_4 O 0.83649(17) 0.30705(16) 0.1927(4)
Cu6_8 Cu 1.0000 0.35119(11) 0.2321(2)
H23_4 H 0.866316 0.454716 0.0662473
H47_4 H 0.959572 0.316444 0.066286
Cu1_4 Cu 0.82879(5) 0.5000 0.77117(12)
O9_4 O 0.85632(12) 0.4644(2) 0.6979(3)
N1_4 N 0.81351(13) 0.45523(14) 0.8378(4)
O10_4 O 0.7806(3) 0.5000 0.6584(7)
C1_4 C 0.85092(13) 0.4318(3) 0.7185(4)
C2_4 C 0.82470(13) 0.4225(4) 0.8045(4)
C3_4 C 0.7943(3) 0.45291(6) 0.9238(6)
O11_4 O 0.86261(12) 0.4035(2) 0.6832(4)
O12_4 O 0.81983(13) 0.3912(2) 0.8233(4)
C4_8 C 0.8152(4) 0.45292(12) 1.0000
C5_4 C 0.7562(3) 0.45090(11) 0.9206(6)
Ni1_4 Ni 0.85225(6) 0.35405(5) 0.75052(10)
C6_8 C 0.8563(4) 0.45515(17) 1.0000
C7_8 C 0.7370(4) 0.44868(19) 1.0000
C8_4 C 0.7341(3) 0.45090(17) 0.8386(6)
O13_4 O 0.81091(18) 0.33914(17) 0.6669(4)
O14_4 O 0.83649(17) 0.30705(16) 0.8073(4)
O15_4 O 0.8979(3) 0.32911(12) 0.6846(4)
O16_4 O 0.8927(3) 0.36498(13) 0.8337(4)
H1_8 H 0.7111 0.4457 1.0000
H2_4 H 0.7282 0.4763 0.8224
H3_4 H 0.7113 0.4371 0.8475
H4_4 H 0.7484 0.4394 0.7923
C9_4 C 0.7930(2) 0.31179(19) 0.6936(4)
C10_4 C 0.8051(2) 0.2918(2) 0.7722(5)
C11_4 C 0.9283(5) 0.33602(13) 0.7152(5)
C12_4 C 0.9246(5) 0.35669(13) 0.8011(5)
N2_4 N 0.76346(16) 0.29775(14) 0.6598(4)
O17_4 O 0.78832(18) 0.26535(18) 0.7993(4)
O18_4 O 0.9604(3) 0.32924(14) 0.6889(4)
N3_4 N 0.9560(2) 0.36601(13) 0.8418(4)
Cu2_4 Cu 0.74443(4) 0.25557(4) 0.72859(13)
C13_4 C 0.74794(10) 0.31279(9) 0.5747(4)
Cu3_8 Cu 1.0000 0.35119(11) 0.7679(2)
C14_4 C 0.95392(8) 0.38873(19) 0.9255(4)
O19_4 O 0.7130(4) 0.2870(4) 0.8363(13)
C15_4 C 0.76376(17) 0.30010(16) 0.5000
C16_4 C 0.71964(14) 0.33765(14) 0.5765(4)
O20_8 O 1.0000 0.3993(6) 0.6519(11)
C17_4 C 0.95080(12) 0.42618(19) 0.9199(5)
C18_8 C 0.95543(18) 0.3684(3) 1.0000
C19_4 C 0.7962(3) 0.2716(3) 0.5000
C20_4 C 0.7060(2) 0.3509(2) 0.5000
C21_4 C 0.7006(4) 0.3530(3) 0.6576(8)
C22_8 C 0.9493(2) 0.4422(5) 1.0000
C23_4 C 0.9490(2) 0.4506(5) 0.8388(9)
C24_8 C 0.9589(3) 0.3264(6) 1.0000
H5_4 H 0.6872 0.3691 0.5000
H6_4 H 0.6956 0.3329 0.6980
H7_4 H 0.6775 0.3649 0.6412
H8_4 H 0.7168 0.3711 0.6854
H9_8 H 0.9468 0.4682 1.0000
H10_4 H 0.9695 0.4445 0.8003
H11_4 H 0.9506 0.4765 0.8558
H12_4 H 0.9257 0.4463 0.8088
C30_4 C 0.7930(2) 0.31179(19) 0.3064(4)
C31_4 C 0.8051(2) 0.2918(2) 0.2278(5)
N5_4 N 0.76346(16) 0.29775(14) 0.3402(4)
O26_4 O 0.78832(18) 0.26535(18) 0.2007(4)
C32_4 C 0.74794(10) 0.31279(9) 0.4253(4)
C33_4 C 0.71964(14) 0.33765(14) 0.4235(4)
C34_4 C 0.7006(4) 0.3530(3) 0.3424(8)
H16_4 H 0.6956 0.3329 0.3020
H17_4 H 0.6775 0.3649 0.3588
H18_4 H 0.7168 0.3711 0.3146
O30_4 O 0.85632(12) 0.5356(2) 0.6979(3)
N7_4 N 0.81351(13) 0.54477(14) 0.8378(4)
N8_4 N 0.70225(14) 0.23654(16) 0.6598(4)
O33_4 O 0.73465(18) 0.21168(18) 0.7993(4)
Cu5_4 Cu 0.74443(4) 0.25557(4) 0.27141(13)
H22_4 H 0.864913 0.480567 0.968861
H24_4 H 0.86756 0.431789 0.964891
H41_4 H 0.787306 0.246359 0.531492
H42_4 H 0.804227 0.26562 0.43374
H43_4 H 0.819554 0.283065 0.534768
H44_4 H 0.975179 0.410511 0.64772
H46_4 H 0.984153 0.318475 0.967163
H48_4 H 0.93544 0.31445 0.966551
O20_9 O 0.3993(6) 0.0000 0.3481(11)
H45_5 H 0.418614 0.0182899 0.333738
O9_5 O 0.4644(2) 0.85632(12) 0.3021(3)
N1_5 N 0.45523(14) 0.81351(13) 0.1622(4)
O10_5 O 0.5000 0.7806(3) 0.3416(7)
C1_5 C 0.4318(3) 0.85092(13) 0.2815(4)
C2_5 C 0.4225(4) 0.82470(13) 0.1955(4)
C3_5 C 0.45291(6) 0.7943(3) 0.0762(6)
O11_5 O 0.4035(2) 0.86261(12) 0.3168(4)
O12_5 O 0.3912(2) 0.81983(13) 0.1767(4)
C4_9 C 0.45292(12) 0.8152(4) 0.0000
C5_5 C 0.45090(11) 0.7562(3) 0.0794(6)
Ni1_5 Ni 0.35405(5) 0.85225(6) 0.24948(10)
C6_9 C 0.45515(17) 0.8563(4) 0.0000
C7_9 C 0.44868(19) 0.7370(4) 0.0000
C8_5 C 0.45090(17) 0.7341(3) 0.1614(6)
O13_5 O 0.33914(17) 0.81091(18) 0.3331(4)
O14_5 O 0.30705(16) 0.83649(17) 0.1927(4)
O15_5 O 0.32911(12) 0.8979(3) 0.3154(4)
O16_5 O 0.36498(13) 0.8927(3) 0.1663(4)
H1_9 H 0.4457 0.7111 0.0000
H2_5 H 0.4763 0.7282 0.1776
H3_5 H 0.4371 0.7113 0.1525
H4_5 H 0.4394 0.7484 0.2077
C9_5 C 0.31179(19) 0.7930(2) 0.3064(4)
C10_5 C 0.2918(2) 0.8051(2) 0.2278(5)
C11_5 C 0.33602(13) 0.9283(5) 0.2848(5)
C12_5 C 0.35669(13) 0.9246(5) 0.1989(5)
N2_5 N 0.29775(14) 0.76346(16) 0.3402(4)
O17_5 O 0.26535(18) 0.78832(18) 0.2007(4)
O18_5 O 0.32924(14) 0.9604(3) 0.3111(4)
N3_5 N 0.36601(13) 0.9560(2) 0.1582(4)
C13_5 C 0.31279(9) 0.74794(10) 0.4253(4)
C14_5 C 0.38873(19) 0.95392(8) 0.0745(4)
O19_5 O 0.2870(4) 0.7130(4) 0.1637(13)
C15_5 C 0.30010(16) 0.76376(17) 0.5000
C16_5 C 0.33765(14) 0.71964(14) 0.4235(4)
O20_10 O 0.3993(6) 1.0000 0.3481(11)
C17_5 C 0.42618(19) 0.95080(12) 0.0801(5)
C18_9 C 0.3684(3) 0.95543(18) 0.0000
C19_5 C 0.2716(3) 0.7962(3) 0.5000
C20_5 C 0.3509(2) 0.7060(2) 0.5000
C21_5 C 0.3530(3) 0.7006(4) 0.3424(8)
C22_9 C 0.4422(5) 0.9493(2) 0.0000
C23_5 C 0.4506(5) 0.9490(2) 0.1612(9)
C24_9 C 0.3264(6) 0.9589(3) 0.0000
H5_5 H 0.3691 0.6872 0.5000
H6_5 H 0.3329 0.6956 0.3020
H7_5 H 0.3649 0.6775 0.3588
H8_5 H 0.3711 0.7168 0.3146
H9_9 H 0.4682 0.9468 0.0000
H10_5 H 0.4445 0.9695 0.1997
H11_5 H 0.4765 0.9506 0.1442
H12_5 H 0.4463 0.9257 0.1912
O24 O 0.33914(17) 0.81091(18) 0.6669(4)
O25 O 0.30705(16) 0.83649(17) 0.8073(4)
C30_5 C 0.31179(19) 0.7930(2) 0.6936(4)
C31_5 C 0.2918(2) 0.8051(2) 0.7722(5)
C32_5 C 0.31279(9) 0.74794(10) 0.5747(4)
C33_5 C 0.33765(14) 0.71964(14) 0.5765(4)
C34_5 C 0.3530(3) 0.7006(4) 0.6576(8)
H16_5 H 0.3329 0.6956 0.6980
H17_5 H 0.3649 0.6775 0.6412
H18_5 H 0.3711 0.7168 0.6854
Ni3 Ni 0.35405(5) 0.85225(6) 0.75052(10)
H22_5 H 0.480567 0.864913 0.0311388
H24_5 H 0.431789 0.86756 0.0351085
H41_5 H 0.246359 0.787306 0.468508
H42_5 H 0.26562 0.804227 0.56626
H43_5 H 0.283065 0.819554 0.465232
H44_5 H 0.410511 0.975179 0.35228
H46_5 H 0.318475 0.984153 0.032837
H48_5 H 0.31445 0.93544 0.033449
C4_10 C 0.45292(12) 0.8152(4) 1.0000
C6_10 C 0.45515(17) 0.8563(4) 1.0000
C7_10 C 0.44868(19) 0.7370(4) 1.0000
H1_10 H 0.4457 0.7111 1.0000
C18_10 C 0.3684(3) 0.95543(18) 1.0000
C22_10 C 0.4422(5) 0.9493(2) 1.0000
C24_10 C 0.3264(6) 0.9589(3) 1.0000
H9_10 H 0.4682 0.9468 1.0000
C25_5 C 0.4318(3) 0.85092(13) 0.7185(4)
C26_5 C 0.4225(4) 0.82470(13) 0.8045(4)
C27_5 C 0.45291(6) 0.7943(3) 0.9238(6)
O22_5 O 0.4035(2) 0.86261(12) 0.6832(4)
O23_5 O 0.3912(2) 0.81983(13) 0.8233(4)
C28_5 C 0.45090(11) 0.7562(3) 0.9206(6)
C29_5 C 0.45090(17) 0.7341(3) 0.8386(6)
H13_5 H 0.4763 0.7282 0.8224
H14_5 H 0.4371 0.7113 0.8475
H15_5 H 0.4394 0.7484 0.7923
O27_5 O 0.32911(12) 0.8979(3) 0.6846(4)
O28_5 O 0.36498(13) 0.8927(3) 0.8337(4)
C35_5 C 0.33602(13) 0.9283(5) 0.7152(5)
C36_5 C 0.35669(13) 0.9246(5) 0.8011(5)
C37_5 C 0.38873(19) 0.95392(8) 0.9255(4)
C38_5 C 0.42618(19) 0.95080(12) 0.9199(5)
C39_5 C 0.4506(5) 0.9490(2) 0.8388(9)
H19_5 H 0.4445 0.9695 0.8003
H20_5 H 0.4765 0.9506 0.8558
H21_5 H 0.4463 0.9257 0.8088
H23_5 H 0.454716 0.866316 0.933753
H47_5 H 0.316444 0.959572 0.933714
O9_6 O 0.5356(2) 0.14368(12) 0.3021(3)
N1_6 N 0.54477(14) 0.18649(13) 0.1622(4)
O10_6 O 0.5000 0.2194(3) 0.3416(7)
C1_6 C 0.5682(3) 0.14908(13) 0.2815(4)
C2_6 C 0.5775(4) 0.17530(13) 0.1955(4)
C3_6 C 0.54709(6) 0.2057(3) 0.0762(6)
O11_6 O 0.5965(2) 0.13739(12) 0.3168(4)
O12_6 O 0.6088(2) 0.18017(13) 0.1767(4)
C4_11 C 0.54708(12) 0.1848(4) 0.0000
C5_6 C 0.54910(11) 0.2438(3) 0.0794(6)
Ni1_6 Ni 0.64595(5) 0.14775(6) 0.24948(10)
C6_11 C 0.54485(17) 0.1437(4) 0.0000
C7_11 C 0.55132(19) 0.2630(4) 0.0000
C8_6 C 0.54910(17) 0.2659(3) 0.1614(6)
O13_6 O 0.66086(17) 0.18909(18) 0.3331(4)
O14_6 O 0.69295(16) 0.16351(17) 0.1927(4)
O15_6 O 0.67089(12) 0.1021(3) 0.3154(4)
O16_6 O 0.63502(13) 0.1073(3) 0.1663(4)
H1_11 H 0.5543 0.2889 0.0000
H2_6 H 0.5237 0.2718 0.1776
H3_6 H 0.5629 0.2887 0.1525
H4_6 H 0.5606 0.2516 0.2077
C9_6 C 0.68821(19) 0.2070(2) 0.3064(4)
C10_6 C 0.7082(2) 0.1949(2) 0.2278(5)
C11_6 C 0.66398(13) 0.0717(5) 0.2848(5)
C12_6 C 0.64331(13) 0.0754(5) 0.1989(5)
N2_6 N 0.70225(14) 0.23654(16) 0.3402(4)
O17_6 O 0.73465(18) 0.21168(18) 0.2007(4)
O18_6 O 0.67076(14) 0.0396(3) 0.3111(4)
N3_6 N 0.63399(13) 0.0440(2) 0.1582(4)
C13_6 C 0.68721(9) 0.25206(10) 0.4253(4)
C14_6 C 0.61127(19) 0.04608(8) 0.0745(4)
O19_6 O 0.7130(4) 0.2870(4) 0.1637(13)
C15_6 C 0.69990(16) 0.23624(17) 0.5000
C16_6 C 0.66235(14) 0.28036(14) 0.4235(4)
O20_11 O 0.6007(6) -0.0000 0.3481(11)
C17_6 C 0.57382(19) 0.04920(12) 0.0801(5)
C18_11 C 0.6316(3) 0.04457(18) 0.0000
C19_6 C 0.7284(3) 0.2038(3) 0.5000
C20_6 C 0.6491(2) 0.2940(2) 0.5000
C21_6 C 0.6470(3) 0.2994(4) 0.3424(8)
C22_11 C 0.5578(5) 0.0507(2) 0.0000
C23_6 C 0.5494(5) 0.0510(2) 0.1612(9)
C24_11 C 0.6736(6) 0.0411(3) 0.0000
H5_6 H 0.6309 0.3128 0.5000
H6_6 H 0.6671 0.3044 0.3020
H7_6 H 0.6351 0.3225 0.3588
H8_6 H 0.6289 0.2832 0.3146
H9_11 H 0.5318 0.0532 0.0000
H10_6 H 0.5555 0.0305 0.1997
H11_6 H 0.5235 0.0494 0.1442
H12_6 H 0.5537 0.0743 0.1912
O24_2 O 0.66086(17) 0.18909(18) 0.6669(4)
O25_2 O 0.69295(16) 0.16351(17) 0.8073(4)
C30_6 C 0.68821(19) 0.2070(2) 0.6936(4)
C31_6 C 0.7082(2) 0.1949(2) 0.7722(5)
C32_6 C 0.68721(9) 0.25206(10) 0.5747(4)
C33_6 C 0.66235(14) 0.28036(14) 0.5765(4)
C34_6 C 0.6470(3) 0.2994(4) 0.6576(8)
H16_6 H 0.6671 0.3044 0.6980
H17_6 H 0.6351 0.3225 0.6412
H18_6 H 0.6289 0.2832 0.6854
Ni3_2 Ni 0.64595(5) 0.14775(6) 0.75052(10)
H22_6 H 0.519433 0.135087 0.0311388
H24_6 H 0.568211 0.13244 0.0351085
H41_6 H 0.753641 0.212694 0.468508
H42_6 H 0.73438 0.195773 0.56626
H43_6 H 0.716935 0.180446 0.465232
H44_6 H 0.589489 0.0248211 0.35228
H46_6 H 0.681525 0.0158472 0.032837
H48_6 H 0.68555 0.0645599 0.033449
C4_12 C 0.54708(12) 0.1848(4) 1.0000
C6_12 C 0.54485(17) 0.1437(4) 1.0000
C7_12 C 0.55132(19) 0.2630(4) 1.0000
H1_12 H 0.5543 0.2889 1.0000
C18_12 C 0.6316(3) 0.04457(18) 1.0000
C22_12 C 0.5578(5) 0.0507(2) 1.0000
C24_12 C 0.6736(6) 0.0411(3) 1.0000
H9_12 H 0.5318 0.0532 1.0000
C25_6 C 0.5682(3) 0.14908(13) 0.7185(4)
C26_6 C 0.5775(4) 0.17530(13) 0.8045(4)
C27_6 C 0.54709(6) 0.2057(3) 0.9238(6)
O22_6 O 0.5965(2) 0.13739(12) 0.6832(4)
O23_6 O 0.6088(2) 0.18017(13) 0.8233(4)
C28_6 C 0.54910(11) 0.2438(3) 0.9206(6)
C29_6 C 0.54910(17) 0.2659(3) 0.8386(6)
H13_6 H 0.5237 0.2718 0.8224
H14_6 H 0.5629 0.2887 0.8475
H15_6 H 0.5606 0.2516 0.7923
O27_6 O 0.67089(12) 0.1021(3) 0.6846(4)
O28_6 O 0.63502(13) 0.1073(3) 0.8337(4)
C35_6 C 0.66398(13) 0.0717(5) 0.7152(5)
C36_6 C 0.64331(13) 0.0754(5) 0.8011(5)
C37_6 C 0.61127(19) 0.04608(8) 0.9255(4)
C38_6 C 0.57382(19) 0.04920(12) 0.9199(5)
C39_6 C 0.5494(5) 0.0510(2) 0.8388(9)
H19_6 H 0.5555 0.0305 0.8003
H20_6 H 0.5235 0.0494 0.8558
H21_6 H 0.5537 0.0743 0.8088
H23_6 H 0.545284 0.133684 0.933753
H47_6 H 0.683556 0.0404284 0.933714
O20_12 O 0.6007(6) 1.0000 0.3481(11)
H45_6 H 0.581386 0.98171 0.333738
O20_13 O 0.0000 0.6007(6) 0.3481(11)
H45_7 H 0.0182899 0.581386 0.333738
O9_7 O 0.85632(12) 0.5356(2) 0.3021(3)
N1_7 N 0.81351(13) 0.54477(14) 0.1622(4)
O10_7 O 0.7806(3) 0.5000 0.3416(7)
C1_7 C 0.85092(13) 0.5682(3) 0.2815(4)
C2_7 C 0.82470(13) 0.5775(4) 0.1955(4)
C3_7 C 0.7943(3) 0.54709(6) 0.0762(6)
O11_7 O 0.86261(12) 0.5965(2) 0.3168(4)
O12_7 O 0.81983(13) 0.6088(2) 0.1767(4)
C4_13 C 0.8152(4) 0.54708(12) 0.0000
C5_7 C 0.7562(3) 0.54910(11) 0.0794(6)
Ni1_7 Ni 0.85225(6) 0.64595(5) 0.24948(10)
C6_13 C 0.8563(4) 0.54485(17) 0.0000
C7_13 C 0.7370(4) 0.55132(19) 0.0000
C8_7 C 0.7341(3) 0.54910(17) 0.1614(6)
O13_7 O 0.81091(18) 0.66086(17) 0.3331(4)
O14_7 O 0.83649(17) 0.69295(16) 0.1927(4)
O15_7 O 0.8979(3) 0.67089(12) 0.3154(4)
O16_7 O 0.8927(3) 0.63502(13) 0.1663(4)
H1_13 H 0.7111 0.5543 0.0000
H2_7 H 0.7282 0.5237 0.1776
H3_7 H 0.7113 0.5629 0.1525
H4_7 H 0.7484 0.5606 0.2077
C9_7 C 0.7930(2) 0.68821(19) 0.3064(4)
C10_7 C 0.8051(2) 0.7082(2) 0.2278(5)
C11_7 C 0.9283(5) 0.66398(13) 0.2848(5)
C12_7 C 0.9246(5) 0.64331(13) 0.1989(5)
N2_7 N 0.76346(16) 0.70225(14) 0.3402(4)
O17_7 O 0.78832(18) 0.73465(18) 0.2007(4)
O18_7 O 0.9604(3) 0.67076(14) 0.3111(4)
N3_7 N 0.9560(2) 0.63399(13) 0.1582(4)
C13_7 C 0.74794(10) 0.68721(9) 0.4253(4)
C14_7 C 0.95392(8) 0.61127(19) 0.0745(4)
O19_7 O 0.7130(4) 0.7130(4) 0.1637(13)
C15_7 C 0.76376(17) 0.69990(16) 0.5000
C16_7 C 0.71964(14) 0.66235(14) 0.4235(4)
O20_14 O 1.0000 0.6007(6) 0.3481(11)
C17_7 C 0.95080(12) 0.57382(19) 0.0801(5)
C18_13 C 0.95543(18) 0.6316(3) 0.0000
C19_7 C 0.7962(3) 0.7284(3) 0.5000
C20_7 C 0.7060(2) 0.6491(2) 0.5000
C21_7 C 0.7006(4) 0.6470(3) 0.3424(8)
C22_13 C 0.9493(2) 0.5578(5) 0.0000
C23_7 C 0.9490(2) 0.5494(5) 0.1612(9)
C24_13 C 0.9589(3) 0.6736(6) 0.0000
H5_7 H 0.6872 0.6309 0.5000
H6_7 H 0.6956 0.6671 0.3020
H7_7 H 0.6775 0.6351 0.3588
H8_7 H 0.7168 0.6289 0.3146
H9_13 H 0.9468 0.5318 0.0000
H10_7 H 0.9695 0.5555 0.1997
H11_7 H 0.9506 0.5235 0.1442
H12_7 H 0.9257 0.5537 0.1912
O24_3 O 0.81091(18) 0.66086(17) 0.6669(4)
O25_3 O 0.83649(17) 0.69295(16) 0.8073(4)
C30_7 C 0.7930(2) 0.68821(19) 0.6936(4)
C31_7 C 0.8051(2) 0.7082(2) 0.7722(5)
C32_7 C 0.74794(10) 0.68721(9) 0.5747(4)
C33_7 C 0.71964(14) 0.66235(14) 0.5765(4)
C34_7 C 0.7006(4) 0.6470(3) 0.6576(8)
H16_7 H 0.6956 0.6671 0.6980
H17_7 H 0.6775 0.6351 0.6412
H18_7 H 0.7168 0.6289 0.6854
Ni3_3 Ni 0.85225(6) 0.64595(5) 0.75052(10)
H22_7 H 0.864913 0.519433 0.0311388
H24_7 H 0.86756 0.568211 0.0351085
H41_7 H 0.787306 0.753641 0.468508
H42_7 H 0.804227 0.73438 0.56626
H43_7 H 0.819554 0.716935 0.465232
H44_7 H 0.975179 0.589489 0.35228
H46_7 H 0.984153 0.681525 0.032837
H48_7 H 0.93544 0.68555 0.033449
C4_14 C 0.8152(4) 0.54708(12) 1.0000
C6_14 C 0.8563(4) 0.54485(17) 1.0000
C7_14 C 0.7370(4) 0.55132(19) 1.0000
H1_14 H 0.7111 0.5543 1.0000
C18_14 C 0.95543(18) 0.6316(3) 1.0000
C22_14 C 0.9493(2) 0.5578(5) 1.0000
C24_14 C 0.9589(3) 0.6736(6) 1.0000
H9_14 H 0.9468 0.5318 1.0000
C25_7 C 0.85092(13) 0.5682(3) 0.7185(4)
C26_7 C 0.82470(13) 0.5775(4) 0.8045(4)
C27_7 C 0.7943(3) 0.54709(6) 0.9238(6)
O22_7 O 0.86261(12) 0.5965(2) 0.6832(4)
O23_7 O 0.81983(13) 0.6088(2) 0.8233(4)
C28_7 C 0.7562(3) 0.54910(11) 0.9206(6)
C29_7 C 0.7341(3) 0.54910(17) 0.8386(6)
H13_7 H 0.7282 0.5237 0.8224
H14_7 H 0.7113 0.5629 0.8475
H15_7 H 0.7484 0.5606 0.7923
O27_7 O 0.8979(3) 0.67089(12) 0.6846(4)
O28_7 O 0.8927(3) 0.63502(13) 0.8337(4)
C35_7 C 0.9283(5) 0.66398(13) 0.7152(5)
C36_7 C 0.9246(5) 0.64331(13) 0.8011(5)
C37_7 C 0.95392(8) 0.61127(19) 0.9255(4)
C38_7 C 0.95080(12) 0.57382(19) 0.9199(5)
C39_7 C 0.9490(2) 0.5494(5) 0.8388(9)
H19_7 H 0.9695 0.5555 0.8003
H20_7 H 0.9506 0.5235 0.8558
H21_7 H 0.9257 0.5537 0.8088
H23_7 H 0.866316 0.545284 0.933753
H47_7 H 0.959572 0.683556 0.933714
O9_8 O 0.14368(12) 0.4644(2) 0.3021(3)
N1_8 N 0.18649(13) 0.45523(14) 0.1622(4)
O10_8 O 0.2194(3) 0.5000 0.3416(7)
C1_8 C 0.14908(13) 0.4318(3) 0.2815(4)
C2_8 C 0.17530(13) 0.4225(4) 0.1955(4)
C3_8 C 0.2057(3) 0.45291(6) 0.0762(6)
O11_8 O 0.13739(12) 0.4035(2) 0.3168(4)
O12_8 O 0.18017(13) 0.3912(2) 0.1767(4)
C4_15 C 0.1848(4) 0.45292(12) 0.0000
C5_8 C 0.2438(3) 0.45090(11) 0.0794(6)
Ni1_8 Ni 0.14775(6) 0.35405(5) 0.24948(10)
C6_15 C 0.1437(4) 0.45515(17) 0.0000
C7_15 C 0.2630(4) 0.44868(19) 0.0000
C8_8 C 0.2659(3) 0.45090(17) 0.1614(6)
O13_8 O 0.18909(18) 0.33914(17) 0.3331(4)
O14_8 O 0.16351(17) 0.30705(16) 0.1927(4)
O15_8 O 0.1021(3) 0.32911(12) 0.3154(4)
O16_8 O 0.1073(3) 0.36498(13) 0.1663(4)
H1_15 H 0.2889 0.4457 0.0000
H2_8 H 0.2718 0.4763 0.1776
H3_8 H 0.2887 0.4371 0.1525
H4_8 H 0.2516 0.4394 0.2077
C9_8 C 0.2070(2) 0.31179(19) 0.3064(4)
C10_8 C 0.1949(2) 0.2918(2) 0.2278(5)
C11_8 C 0.0717(5) 0.33602(13) 0.2848(5)
C12_8 C 0.0754(5) 0.35669(13) 0.1989(5)
N2_8 N 0.23654(16) 0.29775(14) 0.3402(4)
O17_8 O 0.21168(18) 0.26535(18) 0.2007(4)
O18_8 O 0.0396(3) 0.32924(14) 0.3111(4)
N3_8 N 0.0440(2) 0.36601(13) 0.1582(4)
C13_8 C 0.25206(10) 0.31279(9) 0.4253(4)
C14_8 C 0.04608(8) 0.38873(19) 0.0745(4)
O19_8 O 0.2870(4) 0.2870(4) 0.1637(13)
C15_8 C 0.23624(17) 0.30010(16) 0.5000
C16_8 C 0.28036(14) 0.33765(14) 0.4235(4)
O20_15 O -0.0000 0.3993(6) 0.3481(11)
C17_8 C 0.04920(12) 0.42618(19) 0.0801(5)
C18_15 C 0.04457(18) 0.3684(3) 0.0000
C19_8 C 0.2038(3) 0.2716(3) 0.5000
C20_8 C 0.2940(2) 0.3509(2) 0.5000
C21_8 C 0.2994(4) 0.3530(3) 0.3424(8)
C22_15 C 0.0507(2) 0.4422(5) 0.0000
C23_8 C 0.0510(2) 0.4506(5) 0.1612(9)
C24_15 C 0.0411(3) 0.3264(6) 0.0000
H5_8 H 0.3128 0.3691 0.5000
H6_8 H 0.3044 0.3329 0.3020
H7_8 H 0.3225 0.3649 0.3588
H8_8 H 0.2832 0.3711 0.3146
H9_15 H 0.0532 0.4682 0.0000
H10_8 H 0.0305 0.4445 0.1997
H11_8 H 0.0494 0.4765 0.1442
H12_8 H 0.0743 0.4463 0.1912
O24_4 O 0.18909(18) 0.33914(17) 0.6669(4)
O25_4 O 0.16351(17) 0.30705(16) 0.8073(4)
C30_8 C 0.2070(2) 0.31179(19) 0.6936(4)
C31_8 C 0.1949(2) 0.2918(2) 0.7722(5)
C32_8 C 0.25206(10) 0.31279(9) 0.5747(4)
C33_8 C 0.28036(14) 0.33765(14) 0.5765(4)
C34_8 C 0.2994(4) 0.3530(3) 0.6576(8)
H16_8 H 0.3044 0.3329 0.6980
H17_8 H 0.3225 0.3649 0.6412
H18_8 H 0.2832 0.3711 0.6854
Ni3_4 Ni 0.14775(6) 0.35405(5) 0.75052(10)
H22_8 H 0.135087 0.480567 0.0311388
H24_8 H 0.13244 0.431789 0.0351085
H41_8 H 0.212694 0.246359 0.468508
H42_8 H 0.195773 0.26562 0.56626
H43_8 H 0.180446 0.283065 0.465232
H44_8 H 0.0248211 0.410511 0.35228
H46_8 H 0.0158472 0.318475 0.032837
H48_8 H 0.0645599 0.31445 0.033449
C4_16 C 0.1848(4) 0.45292(12) 1.0000
C6_16 C 0.1437(4) 0.45515(17) 1.0000
C7_16 C 0.2630(4) 0.44868(19) 1.0000
H1_16 H 0.2889 0.4457 1.0000
C18_16 C 0.04457(18) 0.3684(3) 1.0000
C22_16 C 0.0507(2) 0.4422(5) 1.0000
C24_16 C 0.0411(3) 0.3264(6) 1.0000
H9_16 H 0.0532 0.4682 1.0000
C25_8 C 0.14908(13) 0.4318(3) 0.7185(4)
C26_8 C 0.17530(13) 0.4225(4) 0.8045(4)
C27_8 C 0.2057(3) 0.45291(6) 0.9238(6)
O22_8 O 0.13739(12) 0.4035(2) 0.6832(4)
O23_8 O 0.18017(13) 0.3912(2) 0.8233(4)
C28_8 C 0.2438(3) 0.45090(11) 0.9206(6)
C29_8 C 0.2659(3) 0.45090(17) 0.8386(6)
H13_8 H 0.2718 0.4763 0.8224
H14_8 H 0.2887 0.4371 0.8475
H15_8 H 0.2516 0.4394 0.7923
O27_8 O 0.1021(3) 0.32911(12) 0.6846(4)
O28_8 O 0.1073(3) 0.36498(13) 0.8337(4)
C35_8 C 0.0717(5) 0.33602(13) 0.7152(5)
C36_8 C 0.0754(5) 0.35669(13) 0.8011(5)
C37_8 C 0.04608(8) 0.38873(19) 0.9255(4)
C38_8 C 0.04920(12) 0.42618(19) 0.9199(5)
C39_8 C 0.0510(2) 0.4506(5) 0.8388(9)
H19_8 H 0.0305 0.4445 0.8003
H20_8 H 0.0494 0.4765 0.8558
H21_8 H 0.0743 0.4463 0.8088
H23_8 H 0.133684 0.454716 0.933753
H47_8 H 0.0404284 0.316444 0.933714
O20_16 O 1.0000 0.3993(6) 0.3481(11)
H45_8 H 0.98171 0.418614 0.333738
H22_9 H 0.480567 0.135087 0.0311388
H24_9 H 0.431789 0.13244 0.0351085
H41_9 H 0.246359 0.212694 0.468508
H42_9 H 0.26562 0.195773 0.56626
H43_9 H 0.283065 0.180446 0.465232
H44_9 H 0.410511 0.0248211 0.35228
H46_9 H 0.318475 0.0158472 0.032837
H48_9 H 0.31445 0.0645599 0.033449
H23_9 H 0.454716 0.133684 0.933753
H47_9 H 0.316444 0.0404284 0.933714
H45_9 H 0.418614 0.98171 0.333738
H45_10 H 0.581386 0.0182899 0.333738
H22_10 H 0.519433 0.864913 0.0311388
H24_10 H 0.568211 0.86756 0.0351085
H41_10 H 0.753641 0.787306 0.468508
H42_10 H 0.73438 0.804227 0.56626
H43_10 H 0.716935 0.819554 0.465232
H44_10 H 0.589489 0.975179 0.35228
H46_10 H 0.681525 0.984153 0.032837
H48_10 H 0.68555 0.93544 0.033449
H23_10 H 0.545284 0.866316 0.933753
H47_10 H 0.683556 0.959572 0.933714
H45_11 H 0.0182899 0.418614 0.333738
H22_11 H 0.864913 0.480567 0.0311388
H24_11 H 0.86756 0.431789 0.0351085
H41_11 H 0.787306 0.246359 0.468508
H42_11 H 0.804227 0.26562 0.56626
H43_11 H 0.819554 0.283065 0.465232
H44_11 H 0.975179 0.410511 0.35228
H46_11 H 0.984153 0.318475 0.032837
H48_11 H 0.93544 0.31445 0.033449
H23_11 H 0.866316 0.454716 0.933753
H47_11 H 0.959572 0.316444 0.933714
H22_12 H 0.135087 0.519433 0.0311388
H24_12 H 0.13244 0.568211 0.0351085
H41_12 H 0.212694 0.753641 0.468508
H42_12 H 0.195773 0.73438 0.56626
H43_12 H 0.180446 0.716935 0.465232
H44_12 H 0.0248211 0.589489 0.35228
H46_12 H 0.0158472 0.681525 0.032837
H48_12 H 0.0645599 0.68555 0.033449
H23_12 H 0.133684 0.545284 0.933753
H47_12 H 0.0404284 0.683556 0.933714
H45_12 H 0.98171 0.581386 0.333738
H23_13 H 0.545284 0.133684 0.0662473
H47_13 H 0.683556 0.0404284 0.066286
H22_13 H 0.519433 0.135087 0.968861
H24_13 H 0.568211 0.13244 0.964891
H41_13 H 0.753641 0.212694 0.531492
H42_13 H 0.73438 0.195773 0.43374
H43_13 H 0.716935 0.180446 0.534768
H44_13 H 0.589489 0.0248211 0.64772
H46_13 H 0.681525 0.0158472 0.967163
H48_13 H 0.68555 0.0645599 0.966551
H45_13 H 0.581386 0.98171 0.666262
H45_14 H 0.418614 0.0182899 0.666262
H23_14 H 0.454716 0.866316 0.0662473
H47_14 H 0.316444 0.959572 0.066286
H22_14 H 0.480567 0.864913 0.968861
H24_14 H 0.431789 0.86756 0.964891
H41_14 H 0.246359 0.787306 0.531492
H42_14 H 0.26562 0.804227 0.43374
H43_14 H 0.283065 0.819554 0.534768
H44_14 H 0.410511 0.975179 0.64772
H46_14 H 0.318475 0.984153 0.967163
H48_14 H 0.31445 0.93544 0.966551
H23_15 H 0.133684 0.454716 0.0662473
H47_15 H 0.0404284 0.316444 0.066286
H22_15 H 0.135087 0.480567 0.968861
H24_15 H 0.13244 0.431789 0.964891
H41_15 H 0.212694 0.246359 0.531492
H42_15 H 0.195773 0.26562 0.43374
H43_15 H 0.180446 0.283065 0.534768
H44_15 H 0.0248211 0.410511 0.64772
H46_15 H 0.0158472 0.318475 0.967163
H48_15 H 0.0645599 0.31445 0.966551
H45_15 H 0.98171 0.418614 0.666262
H45_16 H 0.0182899 0.581386 0.666262
H23_16 H 0.866316 0.545284 0.0662473
H47_16 H 0.959572 0.683556 0.066286
H22_16 H 0.864913 0.519433 0.968861
H24_16 H 0.86756 0.568211 0.964891
H41_16 H 0.787306 0.753641 0.531492
H42_16 H 0.804227 0.73438 0.43374
H43_16 H 0.819554 0.716935 0.534768
H44_16 H 0.975179 0.589489 0.64772
H46_16 H 0.984153 0.681525 0.967163
H48_16 H 0.93544 0.68555 0.966551
loop_
_geom_bond_atom_site_label_1
_geom_bond_atom_site_label_2
_geom_bond_site_symmetry_1
_geom_bond_site_symmetry_2
Fe1 O1 1_555 1_555
O2 Fe1 1_555 1_555
O3 Fe1 1_555 1_555
Fe2 O3 1_555 1_555
O4 Fe2 1_555 1_555
O5 Fe2 1_555 1_555
O6 Fe1 1_555 1_555
O7 Fe1 1_555 1_555
O8 Fe2 1_555 1_555
Fe2 O6 1_555 1_555
Fe1_2 O1_2 1_555 1_555
O2_2 Fe1_2 1_555 1_555
O3_2 Fe1_2 1_555 1_555
Fe2_2 O3_2 1_555 1_555
O4_2 Fe2_2 1_555 1_555
O5_2 Fe2_2 1_555 1_555
O6_2 Fe1_2 1_555 1_555
O7_2 Fe1_2 1_555 1_555
O8_2 Fe2_2 1_555 1_555
Fe2_2 O6_2 1_555 1_555
Fe1_3 O1_3 1_555 1_555
O2_3 Fe1_3 1_555 1_555
O3_3 Fe1_3 1_555 1_555
Fe2_3 O3_3 1_555 1_555
O4_3 Fe2_3 1_555 1_555
O5_3 Fe2_3 1_555 1_555
O6_3 Fe1_3 1_555 1_555
O7_3 Fe1_3 1_555 1_555
O8_3 Fe2_3 1_555 1_555
Fe2_3 O6_3 1_555 1_555
Fe1_4 O1_4 1_555 1_555
O2_4 Fe1_4 1_555 1_555
O3_4 Fe1_4 1_555 1_555
Fe2_4 O3_4 1_555 1_555
O4_4 Fe2_4 1_555 1_555
O5_4 Fe2_4 1_555 1_555
O6_4 Fe1_4 1_555 1_555
O7_4 Fe1_4 1_555 1_555
O8_4 Fe2_4 1_555 1_555
Fe2_4 O6_4 1_555 1_555
O20 Cu3 1_555 1_555
O34 Cu3 1_555 1_555
N9 Cu3 1_555 1_555
O20 H45 1_555 1_555
C6 C4 1_555 1_555
H1 C7 1_555 1_555
C24 C18 1_555 1_555
H9 C22 1_555 1_555
O21 C25 1_555 1_555
N4 C26 1_555 1_555
C25 C26 1_555 1_555
C26 O23 1_555 1_555
C27 C4 1_555 1_555
O22 C25 1_555 1_555
O23 Ni2 1_555 1_555
C28 C7 1_555 1_555
C29 C28 1_555 1_555
H13 C29 1_555 1_555
H14 C29 1_555 1_555
H15 C29 1_555 1_555
O27 C35 1_555 1_555
O28 C36 1_555 1_555
C35 C36 1_555 1_555
C36 N6 1_555 1_555
O29 C35 1_555 1_555
N6 C37 1_555 1_555
C37 C18 1_555 1_555
C38 C22 1_555 1_555
C39 C38 1_555 1_555
H19 C39 1_555 1_555
H20 C39 1_555 1_555
H21 C39 1_555 1_555
Ni2 O22 1_555 1_555
Cu4 O21 1_555 1_555
O31 Ni2 1_555 1_555
O32 Ni2 1_555 1_555
Cu6_2 O29 1_555 1_555
N4 C27 1_555 1_555
N4 Cu4 1_555 1_555
C27 C28 1_555 1_555
O27 Ni2 1_555 1_555
O28 Ni2 1_555 1_555
N6 Cu6_2 1_555 1_555
C37 C38 1_555 1_555
C6 H23 1_555 1_555
C24 H47 1_555 1_555
Cu1 O9 1_555 1_555
O9 C1 1_555 1_555
N1 Cu1 1_555 1_555
O10 Cu1 1_555 1_555
C1 C2 1_555 1_555
C2 N1 1_555 1_555
C3 N1 1_555 1_555
O11 C1 1_555 1_555
O12 C2 1_555 1_555
C4_2 C3 1_555 1_555
C5 C3 1_555 1_555
Ni1 O11 1_555 1_555
C6_2 C4_2 1_555 1_555
C7_2 C5 1_555 1_555
C8 C5 1_555 1_555
O13 Ni1 1_555 1_555
O14 Ni1 1_555 1_555
O15 Ni1 1_555 1_555
O16 Ni1 1_555 1_555
H1_2 C7_2 1_555 1_555
H2 C8 1_555 1_555
H3 C8 1_555 1_555
H4 C8 1_555 1_555
C9 O13 1_555 1_555
C10 O14 1_555 1_555
C11 O15 1_555 1_555
C12 O16 1_555 1_555
N2 C9 1_555 1_555
O17 C10 1_555 1_555
O18 C11 1_555 1_555
N3 C12 1_555 1_555
Cu2 N2 1_555 1_555
C13 N2 1_555 1_555
Cu3_2 O18 1_555 1_555
C14 N3 1_555 1_555
O19 Cu2 1_555 1_555
C15 C13 1_555 1_555
C16 C13 1_555 1_555
O20_2 Cu3_2 1_555 1_555
C17 C14 1_555 1_555
C18_2 C14 1_555 1_555
C19 C15 1_555 1_555
C20 C16 1_555 1_555
C21 C16 1_555 1_555
C22_2 C17 1_555 1_555
C23 C17 1_555 1_555
C24_2 C18_2 1_555 1_555
H5 C20 1_555 1_555
H6 C21 1_555 1_555
H7 C21 1_555 1_555
H8 C21 1_555 1_555
H9_2 C22_2 1_555 1_555
H10 C23 1_555 1_555
H11 C23 1_555 1_555
H12 C23 1_555 1_555
O31 C30 1_555 1_555
O32 C31 1_555 1_555
C30 C31 1_555 1_555
C31 O26 1_555 1_555
N5 C30 1_555 1_555
O26 Cu5 1_555 1_555
C32 C15 1_555 1_555
C33 C20 1_555 1_555
C34 C33 1_555 1_555
H16 C34 1_555 1_555
H17 C34 1_555 1_555
H18 C34 1_555 1_555
O30 Cu1 1_555 1_555
N7 Cu1 1_555 1_555
N8 Cu2 1_555 1_555
O33 Cu2 1_555 1_555
Cu5 N5 1_555 1_555
O12 Ni1 1_555 1_555
C9 C10 1_555 1_555
C11 C12 1_555 1_555
O17 Cu2 1_555 1_555
N3 Cu3_2 1_555 1_555
N5 C32 1_555 1_555
C32 C33 1_555 1_555
C6_2 H22 1_555 1_555
C6_2 H24 1_555 1_555
C19 H41 1_555 1_555
C19 H42 1_555 1_555
C19 H43 1_555 1_555
O20_2 H44 1_555 1_555
C24_2 H46 1_555 1_555
C24_2 H48 1_555 1_555
C6_3 C4_3 1_555 1_555
H1_3 C7_3 1_555 1_555
C24_3 C18_3 1_555 1_555
H9_3 C22_3 1_555 1_555
O21_2 C25_2 1_555 1_555
N4_2 C26_2 1_555 1_555
C25_2 C26_2 1_555 1_555
C26_2 O23_2 1_555 1_555
C27_2 C4_3 1_555 1_555
O22_2 C25_2 1_555 1_555
O23_2 Ni2_2 1_555 1_555
C28_2 C7_3 1_555 1_555
C29_2 C28_2 1_555 1_555
H13_2 C29_2 1_555 1_555
H14_2 C29_2 1_555 1_555
H15_2 C29_2 1_555 1_555
O27_2 C35_2 1_555 1_555
O28_2 C36_2 1_555 1_555
C35_2 C36_2 1_555 1_555
C36_2 N6_2 1_555 1_555
O29_2 C35_2 1_555 1_555
N6_2 C37_2 1_555 1_555
C37_2 C18_3 1_555 1_555
C38_2 C22_3 1_555 1_555
C39_2 C38_2 1_555 1_555
H19_2 C39_2 1_555 1_555
H20_2 C39_2 1_555 1_555
H21_2 C39_2 1_555 1_555
Ni2_2 O22_2 1_555 1_555
Cu4_2 O21_2 1_555 1_555
O31_2 Ni2_2 1_555 1_555
O32_2 Ni2_2 1_555 1_555
Cu6_3 O29_2 1_555 1_555
N4_2 C27_2 1_555 1_555
N4_2 Cu4_2 1_555 1_555
C27_2 C28_2 1_555 1_555
O27_2 Ni2_2 1_555 1_555
O28_2 Ni2_2 1_555 1_555
N6_2 Cu6_3 1_555 1_555
C37_2 C38_2 1_555 1_555
C6_3 H23_2 1_555 1_555
C24_3 H47_2 1_555 1_555
Cu1_2 O9_2 1_555 1_555
O9_2 C1_2 1_555 1_555
N1_2 Cu1_2 1_555 1_555
O10_2 Cu1_2 1_555 1_555
C1_2 C2_2 1_555 1_555
C2_2 N1_2 1_555 1_555
C3_2 N1_2 1_555 1_555
O11_2 C1_2 1_555 1_555
O12_2 C2_2 1_555 1_555
C4_4 C3_2 1_555 1_555
C5_2 C3_2 1_555 1_555
Ni1_2 O11_2 1_555 1_555
C6_4 C4_4 1_555 1_555
C7_4 C5_2 1_555 1_555
C8_2 C5_2 1_555 1_555
O13_2 Ni1_2 1_555 1_555
O14_2 Ni1_2 1_555 1_555
O15_2 Ni1_2 1_555 1_555
O16_2 Ni1_2 1_555 1_555
H1_4 C7_4 1_555 1_555
H2_2 C8_2 1_555 1_555
H3_2 C8_2 1_555 1_555
H4_2 C8_2 1_555 1_555
C9_2 O13_2 1_555 1_555
C10_2 O14_2 1_555 1_555
C11_2 O15_2 1_555 1_555
C12_2 O16_2 1_555 1_555
N2_2 C9_2 1_555 1_555
O17_2 C10_2 1_555 1_555
O18_2 C11_2 1_555 1_555
N3_2 C12_2 1_555 1_555
Cu2_2 N2_2 1_555 1_555
C13_2 N2_2 1_555 1_555
Cu3_3 O18_2 1_555 1_555
C14_2 N3_2 1_555 1_555
O19_2 Cu2_2 1_555 1_555
C15_2 C13_2 1_555 1_555
C16_2 C13_2 1_555 1_555
O20_3 Cu3_3 1_555 1_555
C17_2 C14_2 1_555 1_555
C18_4 C14_2 1_555 1_555
C19_2 C15_2 1_555 1_555
C20_2 C16_2 1_555 1_555
C21_2 C16_2 1_555 1_555
C22_4 C17_2 1_555 1_555
C23_2 C17_2 1_555 1_555
C24_4 C18_4 1_555 1_555
H5_2 C20_2 1_555 1_555
H6_2 C21_2 1_555 1_555
H7_2 C21_2 1_555 1_555
H8_2 C21_2 1_555 1_555
H9_4 C22_4 1_555 1_555
H10_2 C23_2 1_555 1_555
H11_2 C23_2 1_555 1_555
H12_2 C23_2 1_555 1_555
O31_2 C30_2 1_555 1_555
O32_2 C31_2 1_555 1_555
C30_2 C31_2 1_555 1_555
C31_2 O26_2 1_555 1_555
N5_2 C30_2 1_555 1_555
O26_2 Cu5_2 1_555 1_555
C32_2 C15_2 1_555 1_555
C33_2 C20_2 1_555 1_555
C34_2 C33_2 1_555 1_555
H16_2 C34_2 1_555 1_555
H17_2 C34_2 1_555 1_555
H18_2 C34_2 1_555 1_555
O30_2 Cu1_2 1_555 1_555
N7_2 Cu1_2 1_555 1_555
N8_2 Cu2_2 1_555 1_555
O33_2 Cu2_2 1_555 1_555
Cu5_2 N5_2 1_555 1_555
O12_2 Ni1_2 1_555 1_555
C9_2 C10_2 1_555 1_555
C11_2 C12_2 1_555 1_555
O17_2 Cu2_2 1_555 1_555
N3_2 Cu3_3 1_555 1_555
N5_2 C32_2 1_555 1_555
C32_2 C33_2 1_555 1_555
C6_4 H22_2 1_555 1_555
C6_4 H24_2 1_555 1_555
C19_2 H41_2 1_555 1_555
C19_2 H42_2 1_555 1_555
C19_2 H43_2 1_555 1_555
O20_3 H44_2 1_555 1_555
C24_4 H46_2 1_555 1_555
C24_4 H48_2 1_555 1_555
O20_4 Cu3_4 1_555 1_555
O34_2 Cu3_4 1_555 1_555
N9_2 Cu3_4 1_555 1_555
O20_4 H45_2 1_555 1_555
C6_5 C4_5 1_555 1_555
H1_5 C7_5 1_555 1_555
C24_5 C18_5 1_555 1_555
H9_5 C22_5 1_555 1_555
O21_3 C25_3 1_555 1_555
N4_3 C26_3 1_555 1_555
C25_3 C26_3 1_555 1_555
C26_3 O23_3 1_555 1_555
C27_3 C4_5 1_555 1_555
O22_3 C25_3 1_555 1_555
O23_3 Ni2_3 1_555 1_555
C28_3 C7_5 1_555 1_555
C29_3 C28_3 1_555 1_555
H13_3 C29_3 1_555 1_555
H14_3 C29_3 1_555 1_555
H15_3 C29_3 1_555 1_555
O27_3 C35_3 1_555 1_555
O28_3 C36_3 1_555 1_555
C35_3 C36_3 1_555 1_555
C36_3 N6_3 1_555 1_555
O29_3 C35_3 1_555 1_555
N6_3 C37_3 1_555 1_555
C37_3 C18_5 1_555 1_555
C38_3 C22_5 1_555 1_555
C39_3 C38_3 1_555 1_555
H19_3 C39_3 1_555 1_555
H20_3 C39_3 1_555 1_555
H21_3 C39_3 1_555 1_555
Ni2_3 O22_3 1_555 1_555
Cu4_3 O21_3 1_555 1_555
O31_3 Ni2_3 1_555 1_555
O32_3 Ni2_3 1_555 1_555
Cu6_5 O29_3 1_555 1_555
N4_3 C27_3 1_555 1_555
N4_3 Cu4_3 1_555 1_555
C27_3 C28_3 1_555 1_555
O27_3 Ni2_3 1_555 1_555
O28_3 Ni2_3 1_555 1_555
N6_3 Cu6_5 1_555 1_555
C37_3 C38_3 1_555 1_555
C6_5 H23_3 1_555 1_555
C24_5 H47_3 1_555 1_555
Cu1_3 O9_3 1_555 1_555
O9_3 C1_3 1_555 1_555
N1_3 Cu1_3 1_555 1_555
O10_3 Cu1_3 1_555 1_555
C1_3 C2_3 1_555 1_555
C2_3 N1_3 1_555 1_555
C3_3 N1_3 1_555 1_555
O11_3 C1_3 1_555 1_555
O12_3 C2_3 1_555 1_555
C4_6 C3_3 1_555 1_555
C5_3 C3_3 1_555 1_555
Ni1_3 O11_3 1_555 1_555
C6_6 C4_6 1_555 1_555
C7_6 C5_3 1_555 1_555
C8_3 C5_3 1_555 1_555
O13_3 Ni1_3 1_555 1_555
O14_3 Ni1_3 1_555 1_555
O15_3 Ni1_3 1_555 1_555
O16_3 Ni1_3 1_555 1_555
H1_6 C7_6 1_555 1_555
H2_3 C8_3 1_555 1_555
H3_3 C8_3 1_555 1_555
H4_3 C8_3 1_555 1_555
C9_3 O13_3 1_555 1_555
C10_3 O14_3 1_555 1_555
C11_3 O15_3 1_555 1_555
C12_3 O16_3 1_555 1_555
N2_3 C9_3 1_555 1_555
O17_3 C10_3 1_555 1_555
O18_3 C11_3 1_555 1_555
N3_3 C12_3 1_555 1_555
Cu2_3 N2_3 1_555 1_555
C13_3 N2_3 1_555 1_555
Cu3_5 O18_3 1_555 1_555
C14_3 N3_3 1_555 1_555
O19_3 Cu2_3 1_555 1_555
C15_3 C13_3 1_555 1_555
C16_3 C13_3 1_555 1_555
O20_5 Cu3_5 1_555 1_555
C17_3 C14_3 1_555 1_555
C18_6 C14_3 1_555 1_555
C19_3 C15_3 1_555 1_555
C20_3 C16_3 1_555 1_555
C21_3 C16_3 1_555 1_555
C22_6 C17_3 1_555 1_555
C23_3 C17_3 1_555 1_555
C24_6 C18_6 1_555 1_555
H5_3 C20_3 1_555 1_555
H6_3 C21_3 1_555 1_555
H7_3 C21_3 1_555 1_555
H8_3 C21_3 1_555 1_555
H9_6 C22_6 1_555 1_555
H10_3 C23_3 1_555 1_555
H11_3 C23_3 1_555 1_555
H12_3 C23_3 1_555 1_555
O31_3 C30_3 1_555 1_555
O32_3 C31_3 1_555 1_555
C30_3 C31_3 1_555 1_555
C31_3 O26_3 1_555 1_555
N5_3 C30_3 1_555 1_555
O26_3 Cu5_3 1_555 1_555
C32_3 C15_3 1_555 1_555
C33_3 C20_3 1_555 1_555
C34_3 C33_3 1_555 1_555
H16_3 C34_3 1_555 1_555
H17_3 C34_3 1_555 1_555
H18_3 C34_3 1_555 1_555
O30_3 Cu1_3 1_555 1_555
N7_3 Cu1_3 1_555 1_555
N8_3 Cu2_3 1_555 1_555
O33_3 Cu2_3 1_555 1_555
Cu5_3 N5_3 1_555 1_555
O12_3 Ni1_3 1_555 1_555
C9_3 C10_3 1_555 1_555
C11_3 C12_3 1_555 1_555
O17_3 Cu2_3 1_555 1_555
N3_3 Cu3_5 1_555 1_555
N5_3 C32_3 1_555 1_555
C32_3 C33_3 1_555 1_555
C6_6 H22_3 1_555 1_555
C6_6 H24_3 1_555 1_555
C19_3 H41_3 1_555 1_555
C19_3 H42_3 1_555 1_555
C19_3 H43_3 1_555 1_555
O20_5 H44_3 1_555 1_555
C24_6 H46_3 1_555 1_555
C24_6 H48_3 1_555 1_555
O20_6 Cu3_6 1_555 1_555
O34_3 Cu3_6 1_555 1_555
N9_3 Cu3_6 1_555 1_555
O20_6 H45_3 1_555 1_555
O20_7 Cu3_7 1_555 1_555
O34_4 Cu3_7 1_555 1_555
N9_4 Cu3_7 1_555 1_555
O20_7 H45_4 1_555 1_555
C6_7 C4_7 1_555 1_555
H1_7 C7_7 1_555 1_555
C24_7 C18_7 1_555 1_555
H9_7 C22_7 1_555 1_555
O21_4 C25_4 1_555 1_555
N4_4 C26_4 1_555 1_555
C25_4 C26_4 1_555 1_555
C26_4 O23_4 1_555 1_555
C27_4 C4_7 1_555 1_555
O22_4 C25_4 1_555 1_555
O23_4 Ni2_4 1_555 1_555
C28_4 C7_7 1_555 1_555
C29_4 C28_4 1_555 1_555
H13_4 C29_4 1_555 1_555
H14_4 C29_4 1_555 1_555
H15_4 C29_4 1_555 1_555
O27_4 C35_4 1_555 1_555
O28_4 C36_4 1_555 1_555
C35_4 C36_4 1_555 1_555
C36_4 N6_4 1_555 1_555
O29_4 C35_4 1_555 1_555
N6_4 C37_4 1_555 1_555
C37_4 C18_7 1_555 1_555
C38_4 C22_7 1_555 1_555
C39_4 C38_4 1_555 1_555
H19_4 C39_4 1_555 1_555
H20_4 C39_4 1_555 1_555
H21_4 C39_4 1_555 1_555
Ni2_4 O22_4 1_555 1_555
Cu4_4 O21_4 1_555 1_555
O31_4 Ni2_4 1_555 1_555
O32_4 Ni2_4 1_555 1_555
Cu6_8 O29_4 1_555 1_555
N4_4 C27_4 1_555 1_555
N4_4 Cu4_4 1_555 1_555
C27_4 C28_4 1_555 1_555
O27_4 Ni2_4 1_555 1_555
O28_4 Ni2_4 1_555 1_555
N6_4 Cu6_8 1_555 1_555
C37_4 C38_4 1_555 1_555
C6_7 H23_4 1_555 1_555
C24_7 H47_4 1_555 1_555
Cu1_4 O9_4 1_555 1_555
O9_4 C1_4 1_555 1_555
N1_4 Cu1_4 1_555 1_555
O10_4 Cu1_4 1_555 1_555
C1_4 C2_4 1_555 1_555
C2_4 N1_4 1_555 1_555
C3_4 N1_4 1_555 1_555
O11_4 C1_4 1_555 1_555
O12_4 C2_4 1_555 1_555
C4_8 C3_4 1_555 1_555
C5_4 C3_4 1_555 1_555
Ni1_4 O11_4 1_555 1_555
C6_8 C4_8 1_555 1_555
C7_8 C5_4 1_555 1_555
C8_4 C5_4 1_555 1_555
O13_4 Ni1_4 1_555 1_555
O14_4 Ni1_4 1_555 1_555
O15_4 Ni1_4 1_555 1_555
O16_4 Ni1_4 1_555 1_555
H1_8 C7_8 1_555 1_555
H2_4 C8_4 1_555 1_555
H3_4 C8_4 1_555 1_555
H4_4 C8_4 1_555 1_555
C9_4 O13_4 1_555 1_555
C10_4 O14_4 1_555 1_555
C11_4 O15_4 1_555 1_555
C12_4 O16_4 1_555 1_555
N2_4 C9_4 1_555 1_555
O17_4 C10_4 1_555 1_555
O18_4 C11_4 1_555 1_555
N3_4 C12_4 1_555 1_555
Cu2_4 N2_4 1_555 1_555
C13_4 N2_4 1_555 1_555
Cu3_8 O18_4 1_555 1_555
C14_4 N3_4 1_555 1_555
O19_4 Cu2_4 1_555 1_555
C15_4 C13_4 1_555 1_555
C16_4 C13_4 1_555 1_555
O20_8 Cu3_8 1_555 1_555
C17_4 C14_4 1_555 1_555
C18_8 C14_4 1_555 1_555
C19_4 C15_4 1_555 1_555
C20_4 C16_4 1_555 1_555
C21_4 C16_4 1_555 1_555
C22_8 C17_4 1_555 1_555
C23_4 C17_4 1_555 1_555
C24_8 C18_8 1_555 1_555
H5_4 C20_4 1_555 1_555
H6_4 C21_4 1_555 1_555
H7_4 C21_4 1_555 1_555
H8_4 C21_4 1_555 1_555
H9_8 C22_8 1_555 1_555
H10_4 C23_4 1_555 1_555
H11_4 C23_4 1_555 1_555
H12_4 C23_4 1_555 1_555
O31_4 C30_4 1_555 1_555
O32_4 C31_4 1_555 1_555
C30_4 C31_4 1_555 1_555
C31_4 O26_4 1_555 1_555
N5_4 C30_4 1_555 1_555
O26_4 Cu5_4 1_555 1_555
C32_4 C15_4 1_555 1_555
C33_4 C20_4 1_555 1_555
C34_4 C33_4 1_555 1_555
H16_4 C34_4 1_555 1_555
H17_4 C34_4 1_555 1_555
H18_4 C34_4 1_555 1_555
O30_4 Cu1_4 1_555 1_555
N7_4 Cu1_4 1_555 1_555
N8_4 Cu2_4 1_555 1_555
O33_4 Cu2_4 1_555 1_555
Cu5_4 N5_4 1_555 1_555
O12_4 Ni1_4 1_555 1_555
C9_4 C10_4 1_555 1_555
C11_4 C12_4 1_555 1_555
O17_4 Cu2_4 1_555 1_555
N3_4 Cu3_8 1_555 1_555
N5_4 C32_4 1_555 1_555
C32_4 C33_4 1_555 1_555
C6_8 H22_4 1_555 1_555
C6_8 H24_4 1_555 1_555
C19_4 H41_4 1_555 1_555
C19_4 H42_4 1_555 1_555
C19_4 H43_4 1_555 1_555
O20_8 H44_4 1_555 1_555
C24_8 H46_4 1_555 1_555
C24_8 H48_4 1_555 1_555
O20_9 Cu6_3 1_555 1_555
O20_9 H45_5 1_555 1_555
Cu4 O9_5 1_555 1_555
O9_5 C1_5 1_555 1_555
N1_5 Cu4 1_555 1_555
O10_5 Cu4 1_555 1_555
C1_5 C2_5 1_555 1_555
C2_5 N1_5 1_555 1_555
C3_5 N1_5 1_555 1_555
O11_5 C1_5 1_555 1_555
O12_5 C2_5 1_555 1_555
C4_9 C3_5 1_555 1_555
C5_5 C3_5 1_555 1_555
Ni1_5 O11_5 1_555 1_555
C6_9 C4_9 1_555 1_555
C7_9 C5_5 1_555 1_555
C8_5 C5_5 1_555 1_555
O13_5 Ni1_5 1_555 1_555
O14_5 Ni1_5 1_555 1_555
O15_5 Ni1_5 1_555 1_555
O16_5 Ni1_5 1_555 1_555
H1_9 C7_9 1_555 1_555
H2_5 C8_5 1_555 1_555
H3_5 C8_5 1_555 1_555
H4_5 C8_5 1_555 1_555
C9_5 O13_5 1_555 1_555
C10_5 O14_5 1_555 1_555
C11_5 O15_5 1_555 1_555
C12_5 O16_5 1_555 1_555
N2_5 C9_5 1_555 1_555
O17_5 C10_5 1_555 1_555
O18_5 C11_5 1_555 1_555
N3_5 C12_5 1_555 1_555
Cu5_3 N2_5 1_555 1_555
C13_5 N2_5 1_555 1_555
Cu6_4 O18_5 1_555 1_555
C14_5 N3_5 1_555 1_555
O19_5 Cu5_3 1_555 1_555
C15_5 C13_5 1_555 1_555
C16_5 C13_5 1_555 1_555
O20_10 Cu6_4 1_555 1_555
C17_5 C14_5 1_555 1_555
C18_9 C14_5 1_555 1_555
C19_5 C15_5 1_555 1_555
C20_5 C16_5 1_555 1_555
C21_5 C16_5 1_555 1_555
C22_9 C17_5 1_555 1_555
C23_5 C17_5 1_555 1_555
C24_9 C18_9 1_555 1_555
H5_5 C20_5 1_555 1_555
H6_5 C21_5 1_555 1_555
H7_5 C21_5 1_555 1_555
H8_5 C21_5 1_555 1_555
H9_9 C22_9 1_555 1_555
H10_5 C23_5 1_555 1_555
H11_5 C23_5 1_555 1_555
H12_5 C23_5 1_555 1_555
O24 C30_5 1_555 1_555
O25 C31_5 1_555 1_555
C30_5 C31_5 1_555 1_555
C31_5 O33_3 1_555 1_555
N8_3 C30_5 1_555 1_555
C32_5 C15_5 1_555 1_555
C33_5 C20_5 1_555 1_555
C34_5 C33_5 1_555 1_555
H16_5 C34_5 1_555 1_555
H17_5 C34_5 1_555 1_555
H18_5 C34_5 1_555 1_555
Ni3 O24 1_555 1_555
O12_5 Ni1_5 1_555 1_555
C9_5 C10_5 1_555 1_555
C11_5 C12_5 1_555 1_555
O17_5 Cu5_3 1_555 1_555
N3_5 Cu6_4 1_555 1_555
O25 Ni3 1_555 1_555
N8_3 C32_5 1_555 1_555
C32_5 C33_5 1_555 1_555
C6_9 H22_5 1_555 1_555
C6_9 H24_5 1_555 1_555
C19_5 H41_5 1_555 1_555
C19_5 H42_5 1_555 1_555
C19_5 H43_5 1_555 1_555
O20_10 H44_5 1_555 1_555
C24_9 H46_5 1_555 1_555
C24_9 H48_5 1_555 1_555
C6_10 C4_10 1_555 1_555
H1_10 C7_10 1_555 1_555
C24_10 C18_10 1_555 1_555
H9_10 C22_10 1_555 1_555
O30 C25_5 1_555 1_555
N7 C26_5 1_555 1_555
C25_5 C26_5 1_555 1_555
C26_5 O23_5 1_555 1_555
C27_5 C4_10 1_555 1_555
O22_5 C25_5 1_555 1_555
O23_5 Ni3 1_555 1_555
C28_5 C7_10 1_555 1_555
C29_5 C28_5 1_555 1_555
H13_5 C29_5 1_555 1_555
H14_5 C29_5 1_555 1_555
H15_5 C29_5 1_555 1_555
O27_5 C35_5 1_555 1_555
O28_5 C36_5 1_555 1_555
C35_5 C36_5 1_555 1_555
C36_5 N9_2 1_555 1_555
O34_2 C35_5 1_555 1_555
N9_2 C37_5 1_555 1_555
C37_5 C18_10 1_555 1_555
C38_5 C22_10 1_555 1_555
C39_5 C38_5 1_555 1_555
H19_5 C39_5 1_555 1_555
H20_5 C39_5 1_555 1_555
H21_5 C39_5 1_555 1_555
Ni3 O22_5 1_555 1_555
N7 C27_5 1_555 1_555
C27_5 C28_5 1_555 1_555
O27_5 Ni3 1_555 1_555
O28_5 Ni3 1_555 1_555
C37_5 C38_5 1_555 1_555
C6_10 H23_5 1_555 1_555
C24_10 H47_5 1_555 1_555
Cu4_2 O9_6 1_555 1_555
O9_6 C1_6 1_555 1_555
N1_6 Cu4_2 1_555 1_555
O10_6 Cu4_2 1_555 1_555
C1_6 C2_6 1_555 1_555
C2_6 N1_6 1_555 1_555
C3_6 N1_6 1_555 1_555
O11_6 C1_6 1_555 1_555
O12_6 C2_6 1_555 1_555
C4_11 C3_6 1_555 1_555
C5_6 C3_6 1_555 1_555
Ni1_6 O11_6 1_555 1_555
C6_11 C4_11 1_555 1_555
C7_11 C5_6 1_555 1_555
C8_6 C5_6 1_555 1_555
O13_6 Ni1_6 1_555 1_555
O14_6 Ni1_6 1_555 1_555
O15_6 Ni1_6 1_555 1_555
O16_6 Ni1_6 1_555 1_555
H1_11 C7_11 1_555 1_555
H2_6 C8_6 1_555 1_555
H3_6 C8_6 1_555 1_555
H4_6 C8_6 1_555 1_555
C9_6 O13_6 1_555 1_555
C10_6 O14_6 1_555 1_555
C11_6 O15_6 1_555 1_555
C12_6 O16_6 1_555 1_555
N2_6 C9_6 1_555 1_555
O17_6 C10_6 1_555 1_555
O18_6 C11_6 1_555 1_555
N3_6 C12_6 1_555 1_555
Cu5_4 N2_6 1_555 1_555
C13_6 N2_6 1_555 1_555
Cu6 O18_6 1_555 1_555
C14_6 N3_6 1_555 1_555
O19_6 Cu5_4 1_555 1_555
C15_6 C13_6 1_555 1_555
C16_6 C13_6 1_555 1_555
O20_11 Cu6 1_555 1_555
C17_6 C14_6 1_555 1_555
C18_11 C14_6 1_555 1_555
C19_6 C15_6 1_555 1_555
C20_6 C16_6 1_555 1_555
C21_6 C16_6 1_555 1_555
C22_11 C17_6 1_555 1_555
C23_6 C17_6 1_555 1_555
C24_11 C18_11 1_555 1_555
H5_6 C20_6 1_555 1_555
H6_6 C21_6 1_555 1_555
H7_6 C21_6 1_555 1_555
H8_6 C21_6 1_555 1_555
H9_11 C22_11 1_555 1_555
H10_6 C23_6 1_555 1_555
H11_6 C23_6 1_555 1_555
H12_6 C23_6 1_555 1_555
O24_2 C30_6 1_555 1_555
O25_2 C31_6 1_555 1_555
C30_6 C31_6 1_555 1_555
C31_6 O33_4 1_555 1_555
N8_4 C30_6 1_555 1_555
C32_6 C15_6 1_555 1_555
C33_6 C20_6 1_555 1_555
C34_6 C33_6 1_555 1_555
H16_6 C34_6 1_555 1_555
H17_6 C34_6 1_555 1_555
H18_6 C34_6 1_555 1_555
Ni3_2 O24_2 1_555 1_555
O12_6 Ni1_6 1_555 1_555
C9_6 C10_6 1_555 1_555
C11_6 C12_6 1_555 1_555
O17_6 Cu5_4 1_555 1_555
N3_6 Cu6 1_555 1_555
O25_2 Ni3_2 1_555 1_555
N8_4 C32_6 1_555 1_555
C32_6 C33_6 1_555 1_555
C6_11 H22_6 1_555 1_555
C6_11 H24_6 1_555 1_555
C19_6 H41_6 1_555 1_555
C19_6 H42_6 1_555 1_555
C19_6 H43_6 1_555 1_555
O20_11 H44_6 1_555 1_555
C24_11 H46_6 1_555 1_555
C24_11 H48_6 1_555 1_555
C6_12 C4_12 1_555 1_555
H1_12 C7_12 1_555 1_555
C24_12 C18_12 1_555 1_555
H9_12 C22_12 1_555 1_555
O30_2 C25_6 1_555 1_555
N7_2 C26_6 1_555 1_555
C25_6 C26_6 1_555 1_555
C26_6 O23_6 1_555 1_555
C27_6 C4_12 1_555 1_555
O22_6 C25_6 1_555 1_555
O23_6 Ni3_2 1_555 1_555
C28_6 C7_12 1_555 1_555
C29_6 C28_6 1_555 1_555
H13_6 C29_6 1_555 1_555
H14_6 C29_6 1_555 1_555
H15_6 C29_6 1_555 1_555
O27_6 C35_6 1_555 1_555
O28_6 C36_6 1_555 1_555
C35_6 C36_6 1_555 1_555
C36_6 N9 1_555 1_555
O34 C35_6 1_555 1_555
N9 C37_6 1_555 1_555
C37_6 C18_12 1_555 1_555
C38_6 C22_12 1_555 1_555
C39_6 C38_6 1_555 1_555
H19_6 C39_6 1_555 1_555
H20_6 C39_6 1_555 1_555
H21_6 C39_6 1_555 1_555
Ni3_2 O22_6 1_555 1_555
N7_2 C27_6 1_555 1_555
C27_6 C28_6 1_555 1_555
O27_6 Ni3_2 1_555 1_555
O28_6 Ni3_2 1_555 1_555
C37_6 C38_6 1_555 1_555
C6_12 H23_6 1_555 1_555
C24_12 H47_6 1_555 1_555
O20_12 Cu6_2 1_555 1_555
O20_12 H45_6 1_555 1_555
O20_13 Cu6_5 1_555 1_555
O20_13 H45_7 1_555 1_555
Cu4_4 O9_7 1_555 1_555
O9_7 C1_7 1_555 1_555
N1_7 Cu4_4 1_555 1_555
O10_7 Cu4_4 1_555 1_555
C1_7 C2_7 1_555 1_555
C2_7 N1_7 1_555 1_555
C3_7 N1_7 1_555 1_555
O11_7 C1_7 1_555 1_555
O12_7 C2_7 1_555 1_555
C4_13 C3_7 1_555 1_555
C5_7 C3_7 1_555 1_555
Ni1_7 O11_7 1_555 1_555
C6_13 C4_13 1_555 1_555
C7_13 C5_7 1_555 1_555
C8_7 C5_7 1_555 1_555
O13_7 Ni1_7 1_555 1_555
O14_7 Ni1_7 1_555 1_555
O15_7 Ni1_7 1_555 1_555
O16_7 Ni1_7 1_555 1_555
H1_13 C7_13 1_555 1_555
H2_7 C8_7 1_555 1_555
H3_7 C8_7 1_555 1_555
H4_7 C8_7 1_555 1_555
C9_7 O13_7 1_555 1_555
C10_7 O14_7 1_555 1_555
C11_7 O15_7 1_555 1_555
C12_7 O16_7 1_555 1_555
N2_7 C9_7 1_555 1_555
O17_7 C10_7 1_555 1_555
O18_7 C11_7 1_555 1_555
N3_7 C12_7 1_555 1_555
Cu5 N2_7 1_555 1_555
C13_7 N2_7 1_555 1_555
Cu6_6 O18_7 1_555 1_555
C14_7 N3_7 1_555 1_555
O19_7 Cu5 1_555 1_555
C15_7 C13_7 1_555 1_555
C16_7 C13_7 1_555 1_555
O20_14 Cu6_6 1_555 1_555
C17_7 C14_7 1_555 1_555
C18_13 C14_7 1_555 1_555
C19_7 C15_7 1_555 1_555
C20_7 C16_7 1_555 1_555
C21_7 C16_7 1_555 1_555
C22_13 C17_7 1_555 1_555
C23_7 C17_7 1_555 1_555
C24_13 C18_13 1_555 1_555
H5_7 C20_7 1_555 1_555
H6_7 C21_7 1_555 1_555
H7_7 C21_7 1_555 1_555
H8_7 C21_7 1_555 1_555
H9_13 C22_13 1_555 1_555
H10_7 C23_7 1_555 1_555
H11_7 C23_7 1_555 1_555
H12_7 C23_7 1_555 1_555
O24_3 C30_7 1_555 1_555
O25_3 C31_7 1_555 1_555
C30_7 C31_7 1_555 1_555
C31_7 O33 1_555 1_555
N8 C30_7 1_555 1_555
C32_7 C15_7 1_555 1_555
C33_7 C20_7 1_555 1_555
C34_7 C33_7 1_555 1_555
H16_7 C34_7 1_555 1_555
H17_7 C34_7 1_555 1_555
H18_7 C34_7 1_555 1_555
Ni3_3 O24_3 1_555 1_555
O12_7 Ni1_7 1_555 1_555
C9_7 C10_7 1_555 1_555
C11_7 C12_7 1_555 1_555
O17_7 Cu5 1_555 1_555
N3_7 Cu6_6 1_555 1_555
O25_3 Ni3_3 1_555 1_555
N8 C32_7 1_555 1_555
C32_7 C33_7 1_555 1_555
C6_13 H22_7 1_555 1_555
C6_13 H24_7 1_555 1_555
C19_7 H41_7 1_555 1_555
C19_7 H42_7 1_555 1_555
C19_7 H43_7 1_555 1_555
O20_14 H44_7 1_555 1_555
C24_13 H46_7 1_555 1_555
C24_13 H48_7 1_555 1_555
C6_14 C4_14 1_555 1_555
H1_14 C7_14 1_555 1_555
C24_14 C18_14 1_555 1_555
H9_14 C22_14 1_555 1_555
O30_4 C25_7 1_555 1_555
N7_4 C26_7 1_555 1_555
C25_7 C26_7 1_555 1_555
C26_7 O23_7 1_555 1_555
C27_7 C4_14 1_555 1_555
O22_7 C25_7 1_555 1_555
O23_7 Ni3_3 1_555 1_555
C28_7 C7_14 1_555 1_555
C29_7 C28_7 1_555 1_555
H13_7 C29_7 1_555 1_555
H14_7 C29_7 1_555 1_555
H15_7 C29_7 1_555 1_555
O27_7 C35_7 1_555 1_555
O28_7 C36_7 1_555 1_555
C35_7 C36_7 1_555 1_555
C36_7 N9_3 1_555 1_555
O34_3 C35_7 1_555 1_555
N9_3 C37_7 1_555 1_555
C37_7 C18_14 1_555 1_555
C38_7 C22_14 1_555 1_555
C39_7 C38_7 1_555 1_555
H19_7 C39_7 1_555 1_555
H20_7 C39_7 1_555 1_555
H21_7 C39_7 1_555 1_555
Ni3_3 O22_7 1_555 1_555
N7_4 C27_7 1_555 1_555
C27_7 C28_7 1_555 1_555
O27_7 Ni3_3 1_555 1_555
O28_7 Ni3_3 1_555 1_555
C37_7 C38_7 1_555 1_555
C6_14 H23_7 1_555 1_555
C24_14 H47_7 1_555 1_555
Cu4_3 O9_8 1_555 1_555
O9_8 C1_8 1_555 1_555
N1_8 Cu4_3 1_555 1_555
O10_8 Cu4_3 1_555 1_555
C1_8 C2_8 1_555 1_555
C2_8 N1_8 1_555 1_555
C3_8 N1_8 1_555 1_555
O11_8 C1_8 1_555 1_555
O12_8 C2_8 1_555 1_555
C4_15 C3_8 1_555 1_555
C5_8 C3_8 1_555 1_555
Ni1_8 O11_8 1_555 1_555
C6_15 C4_15 1_555 1_555
C7_15 C5_8 1_555 1_555
C8_8 C5_8 1_555 1_555
O13_8 Ni1_8 1_555 1_555
O14_8 Ni1_8 1_555 1_555
O15_8 Ni1_8 1_555 1_555
O16_8 Ni1_8 1_555 1_555
H1_15 C7_15 1_555 1_555
H2_8 C8_8 1_555 1_555
H3_8 C8_8 1_555 1_555
H4_8 C8_8 1_555 1_555
C9_8 O13_8 1_555 1_555
C10_8 O14_8 1_555 1_555
C11_8 O15_8 1_555 1_555
C12_8 O16_8 1_555 1_555
N2_8 C9_8 1_555 1_555
O17_8 C10_8 1_555 1_555
O18_8 C11_8 1_555 1_555
N3_8 C12_8 1_555 1_555
Cu5_2 N2_8 1_555 1_555
C13_8 N2_8 1_555 1_555
Cu6_7 O18_8 1_555 1_555
C14_8 N3_8 1_555 1_555
O19_8 Cu5_2 1_555 1_555
C15_8 C13_8 1_555 1_555
C16_8 C13_8 1_555 1_555
O20_15 Cu6_7 1_555 1_555
C17_8 C14_8 1_555 1_555
C18_15 C14_8 1_555 1_555
C19_8 C15_8 1_555 1_555
C20_8 C16_8 1_555 1_555
C21_8 C16_8 1_555 1_555
C22_15 C17_8 1_555 1_555
C23_8 C17_8 1_555 1_555
C24_15 C18_15 1_555 1_555
H5_8 C20_8 1_555 1_555
H6_8 C21_8 1_555 1_555
H7_8 C21_8 1_555 1_555
H8_8 C21_8 1_555 1_555
H9_15 C22_15 1_555 1_555
H10_8 C23_8 1_555 1_555
H11_8 C23_8 1_555 1_555
H12_8 C23_8 1_555 1_555
O24_4 C30_8 1_555 1_555
O25_4 C31_8 1_555 1_555
C30_8 C31_8 1_555 1_555
C31_8 O33_2 1_555 1_555
N8_2 C30_8 1_555 1_555
C32_8 C15_8 1_555 1_555
C33_8 C20_8 1_555 1_555
C34_8 C33_8 1_555 1_555
H16_8 C34_8 1_555 1_555
H17_8 C34_8 1_555 1_555
H18_8 C34_8 1_555 1_555
Ni3_4 O24_4 1_555 1_555
O12_8 Ni1_8 1_555 1_555
C9_8 C10_8 1_555 1_555
C11_8 C12_8 1_555 1_555
O17_8 Cu5_2 1_555 1_555
N3_8 Cu6_7 1_555 1_555
O25_4 Ni3_4 1_555 1_555
N8_2 C32_8 1_555 1_555
C32_8 C33_8 1_555 1_555
C6_15 H22_8 1_555 1_555
C6_15 H24_8 1_555 1_555
C19_8 H41_8 1_555 1_555
C19_8 H42_8 1_555 1_555
C19_8 H43_8 1_555 1_555
O20_15 H44_8 1_555 1_555
C24_15 H46_8 1_555 1_555
C24_15 H48_8 1_555 1_555
C6_16 C4_16 1_555 1_555
H1_16 C7_16 1_555 1_555
C24_16 C18_16 1_555 1_555
H9_16 C22_16 1_555 1_555
O30_3 C25_8 1_555 1_555
N7_3 C26_8 1_555 1_555
C25_8 C26_8 1_555 1_555
C26_8 O23_8 1_555 1_555
C27_8 C4_16 1_555 1_555
O22_8 C25_8 1_555 1_555
O23_8 Ni3_4 1_555 1_555
C28_8 C7_16 1_555 1_555
C29_8 C28_8 1_555 1_555
H13_8 C29_8 1_555 1_555
H14_8 C29_8 1_555 1_555
H15_8 C29_8 1_555 1_555
O27_8 C35_8 1_555 1_555
O28_8 C36_8 1_555 1_555
C35_8 C36_8 1_555 1_555
C36_8 N9_4 1_555 1_555
O34_4 C35_8 1_555 1_555
N9_4 C37_8 1_555 1_555
C37_8 C18_16 1_555 1_555
C38_8 C22_16 1_555 1_555
C39_8 C38_8 1_555 1_555
H19_8 C39_8 1_555 1_555
H20_8 C39_8 1_555 1_555
H21_8 C39_8 1_555 1_555
Ni3_4 O22_8 1_555 1_555
N7_3 C27_8 1_555 1_555
C27_8 C28_8 1_555 1_555
O27_8 Ni3_4 1_555 1_555
O28_8 Ni3_4 1_555 1_555
C37_8 C38_8 1_555 1_555
C6_16 H23_8 1_555 1_555
C24_16 H47_8 1_555 1_555
O20_16 Cu6_8 1_555 1_555
O20_16 H45_8 1_555 1_555
C6_3 H22_9 1_555 1_555
C6_3 H24_9 1_555 1_555
C19_2 H41_9 1_555 1_555
C19_2 H42_9 1_555 1_555
C19_2 H43_9 1_555 1_555
O20_9 H44_9 1_555 1_555
C24_3 H46_9 1_555 1_555
C24_3 H48_9 1_555 1_555
C6_4 H23_9 1_555 1_555
C24_4 H47_9 1_555 1_555
O20_10 H45_9 1_555 1_555
O20_11 H45_10 1_555 1_555
C6 H22_10 1_555 1_555
C6 H24_10 1_555 1_555
C19 H41_10 1_555 1_555
C19 H42_10 1_555 1_555
C19 H43_10 1_555 1_555
O20_12 H44_10 1_555 1_555
C24 H46_10 1_555 1_555
C24 H48_10 1_555 1_555
C6_2 H23_10 1_555 1_555
C24_2 H47_10 1_555 1_555
O20_15 H45_11 1_555 1_555
C6_7 H22_11 1_555 1_555
C6_7 H24_11 1_555 1_555
C19_4 H41_11 1_555 1_555
C19_4 H42_11 1_555 1_555
C19_4 H43_11 1_555 1_555
O20_16 H44_11 1_555 1_555
C24_7 H46_11 1_555 1_555
C24_7 H48_11 1_555 1_555
C6_8 H23_11 1_555 1_555
C24_8 H47_11 1_555 1_555
C6_5 H22_12 1_555 1_555
C6_5 H24_12 1_555 1_555
C19_3 H41_12 1_555 1_555
C19_3 H42_12 1_555 1_555
C19_3 H43_12 1_555 1_555
O20_13 H44_12 1_555 1_555
C24_5 H46_12 1_555 1_555
C24_5 H48_12 1_555 1_555
C6_6 H23_12 1_555 1_555
C24_6 H47_12 1_555 1_555
O20_14 H45_12 1_555 1_555
C6_11 H23_13 1_555 1_555
C24_11 H47_13 1_555 1_555
C6_12 H22_13 1_555 1_555
C6_12 H24_13 1_555 1_555
C19_6 H41_13 1_555 1_555
C19_6 H42_13 1_555 1_555
C19_6 H43_13 1_555 1_555
O20 H44_13 1_555 1_555
C24_12 H46_13 1_555 1_555
C24_12 H48_13 1_555 1_555
O20_2 H45_13 1_555 1_555
O20_3 H45_14 1_555 1_555
C6_9 H23_14 1_555 1_555
C24_9 H47_14 1_555 1_555
C6_10 H22_14 1_555 1_555
C6_10 H24_14 1_555 1_555
C19_5 H41_14 1_555 1_555
C19_5 H42_14 1_555 1_555
C19_5 H43_14 1_555 1_555
O20_4 H44_14 1_555 1_555
C24_10 H46_14 1_555 1_555
C24_10 H48_14 1_555 1_555
C6_15 H23_15 1_555 1_555
C24_15 H47_15 1_555 1_555
C6_16 H22_15 1_555 1_555
C6_16 H24_15 1_555 1_555
C19_8 H41_15 1_555 1_555
C19_8 H42_15 1_555 1_555
C19_8 H43_15 1_555 1_555
O20_7 H44_15 1_555 1_555
C24_16 H46_15 1_555 1_555
C24_16 H48_15 1_555 1_555
O20_8 H45_15 1_555 1_555
O20_5 H45_16 1_555 1_555
C6_13 H23_16 1_555 1_555
C24_13 H47_16 1_555 1_555
C6_14 H22_16 1_555 1_555
C6_14 H24_16 1_555 1_555
C19_7 H41_16 1_555 1_555
C19_7 H42_16 1_555 1_555
C19_7 H43_16 1_555 1_555
O20_6 H44_16 1_555 1_555
C24_14 H46_16 1_555 1_555
C24_14 H48_16 1_555 1_555

#END
