
###############################################################################
#
# This file contains modified crystal structure data generated from the
# MOF subset of the Cambridge Structural Database (CSD) v543 
# hosted by the Cambridge Crystallographic Data Centre (CCDC).
#
# This work is licensed under the Creative Commons
# Attribution-NonCommercial-ShareAlike 4.0 International License.
# To view a copy of this license, visit
# http://creativecommons.org/licenses/by-nc-sa/4.0/
# or send a letter to
# Creative Commons, PO Box 1866, Mountain View, CA 94042, USA.
#
# CIF created using the CSD Python API on 29 September 2022
# The structure has been converted into the P1 space group
# The structure has a 3D framework
# The original CSD entry CEZFIY is in the orthorhombic crystal system
# The framework has been calculated to contain at least 10.0% void space
# The void calculation uses a probe of radius 1.32A, grid spacing 0.4
#
###############################################################################

data_CEZFIY
_chemical_formula_moiety         '(C272 H160 N32 O60 Zn8)n'
_symmetry_cell_setting           triclinic
_symmetry_space_group_name_H-M   'P 1'
_symmetry_Int_Tables_number      1
_space_group_name_Hall           'P 1'
loop_
_symmetry_equiv_pos_site_id
_symmetry_equiv_pos_as_xyz
1 x,y,z
_cell_length_a                   25.91510(10)
_cell_length_b                   14.17440(10)
_cell_length_c                   20.60420(10)
_cell_angle_alpha                90
_cell_angle_beta                 90
_cell_angle_gamma                90
_cell_volume                     7568.56
loop_
_atom_site_label
_atom_site_type_symbol
_atom_site_fract_x
_atom_site_fract_y
_atom_site_fract_z
Zn1 Zn 0.099600(11) 0.24154(2) 0.376918(14)
O5 O 0.14542(7) 0.22789(14) 0.30385(9)
O6 O 0.08019(7) 0.22015(15) 0.23403(9)
O7 O 0.41309(7) 0.23398(12) 0.01706(9)
N1 N 0.04694(7) 0.34699(14) 0.37243(8)
C1 C 0.05099(8) 0.42467(17) 0.40894(11)
H1 H 0.0812 0.4335 0.4343
C2 C 0.01272(8) 0.49246(17) 0.41112(11)
H2 H 0.0169 0.5470 0.4374
C5 C 0.00374(8) 0.33485(17) 0.33727(11)
H4 H 0.0004 0.2796 0.3115
C23 C 0.12603(10) 0.22489(17) 0.24650(12)
C24 C 0.16498(10) 0.22686(17) 0.19198(13)
C25 C 0.21633(10) 0.23456(16) 0.20600(12)
H15 H 0.2269 0.2401 0.2500
C26 C 0.25447(10) 0.23453(15) 0.15596(12)
C27 C 0.30737(9) 0.23915(16) 0.17062(13)
H16 H 0.3183 0.2432 0.2145
C28 C 0.34329(11) 0.23778(16) 0.12148(12)
H17 H 0.3790 0.2401 0.1315
C29 C 0.32685(9) 0.23284(15) 0.05521(13)
C30 C 0.27550(10) 0.22785(17) 0.04068(13)
C31 C 0.23736(9) 0.22802(16) 0.09104(12)
C32 C 0.18416(9) 0.22105(19) 0.07646(12)
H19 H 0.1731 0.2165 0.0326
C33 C 0.14837(10) 0.2208(2) 0.12604(12)
H20 H 0.1126 0.2166 0.1163
C34 C 0.36725(10) 0.23477(15) 0.00238(12)
O9 O 0.15044(6) 0.26207(12) 0.44389(9)
N5 N 0.05200(7) 0.12870(13) 0.38463(8)
O8 O 0.34956(6) 0.23793(12) 0.94389(9)
H18 H 0.2649 0.2242 0.9966
Zn2 Zn 0.400400(11) 0.25846(2) 0.876918(14)
O1 O 0.63568(6) 0.00040(14) 0.98481(8)
O2 O 0.86654(6) 0.04698(13) 0.99236(8)
O3 O 0.87136(7) 0.04381(14) 0.77048(9)
O5_2 O 0.35458(7) 0.27211(14) 0.80385(9)
O6_2 O 0.41981(7) 0.27985(15) 0.73403(9)
O7_2 O 0.08691(7) 0.26602(12) 0.51706(9)
N1_2 N 0.45306(7) 0.15301(14) 0.87243(8)
N3 N 0.88233(7) 0.04847(14) 0.88181(9)
C1_2 C 0.44901(8) 0.07533(17) 0.90894(11)
H1_2 H 0.4188 0.0665 0.9343
C2_2 C 0.48728(8) 0.00754(17) 0.91112(11)
C3 C 0.53172(8) 0.01926(17) 0.87487(10)
C4 C 0.53587(8) 0.10046(17) 0.83727(11)
H3 H 0.5658 0.1112 0.8118
C5_2 C 0.49626(8) 0.16515(17) 0.83727(11)
H4_2 H 0.4996 0.2204 0.8115
C8 C 0.70828(8) 0.01014(15) 0.91001(10)
C9 C 0.75200(8) 0.02177(15) 0.94764(11)
H7 H 0.7508 0.0256 0.9936
C10 C 0.79762(8) 0.02739(14) 0.91301(10)
C11 C 0.85127(8) 0.04171(15) 0.93707(11)
C12 C 0.85402(8) 0.03863(16) 0.82479(11)
C13 C 0.79925(8) 0.02351(15) 0.84516(10)
C14 C 0.75563(8) 0.01159(16) 0.80744(11)
H8 H 0.7568 0.0089 0.7614
C15 C 0.71011(8) 0.00394(15) 0.84232(10)
C17 C 0.93490(9) 0.08509(17) 0.88305(13)
H9 H 0.9391 0.1254 0.9219
H10 H 0.9403 0.1253 0.8444
C18 C 0.97587(8) 0.00909(16) 0.88410(10)
C23_2 C 0.37397(10) 0.27511(17) 0.74650(12)
C24_2 C 0.33502(10) 0.27314(17) 0.69198(13)
C25_2 C 0.28367(10) 0.26544(16) 0.70600(12)
H15_2 H 0.2731 0.2599 0.7500
C26_2 C 0.24553(10) 0.26547(15) 0.65596(12)
C27_2 C 0.19263(9) 0.26085(16) 0.67062(13)
H16_2 H 0.1817 0.2568 0.7145
C28_2 C 0.15671(11) 0.26222(16) 0.62148(12)
H17_2 H 0.1210 0.2599 0.6315
C29_2 C 0.17315(9) 0.26716(15) 0.55521(13)
C30_2 C 0.22450(10) 0.27215(17) 0.54068(13)
H18_2 H 0.2351 0.2758 0.4966
C31_2 C 0.26264(9) 0.27198(16) 0.59104(12)
C32_2 C 0.31584(9) 0.27895(19) 0.57646(12)
H19_2 H 0.3269 0.2835 0.5326
C33_2 C 0.35163(10) 0.2792(2) 0.62604(12)
H20_2 H 0.3874 0.2834 0.6163
C34_2 C 0.13275(10) 0.26523(15) 0.50238(12)
N5_2 N 0.44800(7) 0.37130(13) 0.88463(8)
O1_2 O 0.86432(6) 0.50040(14) 0.98481(8)
O2_2 O 0.63346(6) 0.54698(13) 0.99236(8)
O3_2 O 0.62864(7) 0.54381(14) 0.77048(9)
O4 O 0.85819(7) 0.47159(15) 0.76419(9)
N2 N 0.87457(7) 0.48184(14) 0.87408(9)
N3_2 N 0.61767(7) 0.54847(14) 0.88181(9)
C3_2 C 0.96828(8) 0.51926(17) 0.87487(10)
C4_2 C 0.96413(8) 0.60046(17) 0.83727(11)
H3_2 H 0.9342 0.6112 0.8118
C6 C 0.92711(8) 0.44433(18) 0.87452(12)
H5 H 0.9315 0.4040 0.9133
H6 H 0.9319 0.4040 0.8358
C7 C 0.84647(8) 0.49778(16) 0.93067(11)
C8_2 C 0.79172(8) 0.51014(15) 0.91001(10)
C9_2 C 0.74800(8) 0.52177(15) 0.94764(11)
H7_2 H 0.7492 0.5256 0.9936
C10_2 C 0.70238(8) 0.52739(14) 0.91301(10)
C11_2 C 0.64873(8) 0.54171(15) 0.93707(11)
C12_2 C 0.64598(8) 0.53863(16) 0.82479(11)
C13_2 C 0.70075(8) 0.52351(15) 0.84516(10)
C14_2 C 0.74437(8) 0.51159(16) 0.80744(11)
H8_2 H 0.7432 0.5089 0.7614
C15_2 C 0.78989(8) 0.50394(15) 0.84232(10)
C16 C 0.84341(8) 0.48446(16) 0.81884(11)
C17_2 C 0.56510(9) 0.58509(17) 0.88305(13)
H9_2 H 0.5609 0.6254 0.9219
H10_2 H 0.5597 0.6253 0.8444
C18_2 C 0.52413(8) 0.50909(16) 0.88410(10)
C19 C 0.48328(9) 0.51262(17) 0.84053(12)
H11 H 0.4808 0.5626 0.8100
C20 C 0.44619(8) 0.44226(17) 0.84221(11)
H12 H 0.4185 0.4447 0.8121
C21 C 0.48634(8) 0.36988(17) 0.92800(11)
H13 H 0.4870 0.3210 0.9595
C22 C 0.52503(8) 0.43672(18) 0.92876(11)
H14 H 0.5521 0.4329 0.9598
C20_2 C 0.05381(8) 0.05774(17) 0.34221(11)
H12_2 H 0.0815 0.0553 0.3121
C21_2 C 0.01366(8) 0.13012(17) 0.42800(11)
H13_2 H 0.0130 0.1790 0.4595
O1_3 O 0.86432(6) 0.49960(14) 0.48481(8)
O2_3 O 0.63346(6) 0.45302(13) 0.49236(8)
O3_3 O 0.62864(7) 0.45619(14) 0.27048(9)
O4_2 O 0.85819(7) 0.52841(15) 0.26419(9)
N2_2 N 0.87457(7) 0.51816(14) 0.37408(9)
N3_3 N 0.61767(7) 0.45153(14) 0.38181(9)
N4 N 0.44800(7) 0.62870(13) 0.38463(8)
C3_3 C 0.96828(8) 0.48074(17) 0.37487(10)
C4_3 C 0.96413(8) 0.39954(17) 0.33727(11)
H3_3 H 0.9342 0.3888 0.3118
C6_2 C 0.92711(8) 0.55567(18) 0.37452(12)
H5_2 H 0.9315 0.5960 0.4133
H6_2 H 0.9319 0.5960 0.3358
C7_2 C 0.84647(8) 0.50222(16) 0.43067(11)
C8_3 C 0.79172(8) 0.48986(15) 0.41001(10)
C9_3 C 0.74800(8) 0.47823(15) 0.44764(11)
H7_3 H 0.7492 0.4744 0.4936
C10_3 C 0.70238(8) 0.47261(14) 0.41301(10)
C11_3 C 0.64873(8) 0.45829(15) 0.43707(11)
C12_3 C 0.64598(8) 0.46137(16) 0.32479(11)
C13_3 C 0.70075(8) 0.47649(15) 0.34516(10)
C14_3 C 0.74437(8) 0.48841(16) 0.30744(11)
H8_3 H 0.7432 0.4911 0.2614
C15_3 C 0.78989(8) 0.49606(15) 0.34232(10)
C16_2 C 0.84341(8) 0.51554(16) 0.31884(11)
C17_3 C 0.56510(9) 0.41491(17) 0.38305(13)
H9_3 H 0.5609 0.3746 0.4219
H10_3 H 0.5597 0.3747 0.3444
C18_3 C 0.52413(8) 0.49091(16) 0.38410(10)
C19_2 C 0.48328(9) 0.48738(17) 0.34053(12)
H11_2 H 0.4808 0.4374 0.3100
C20_3 C 0.44619(8) 0.55774(17) 0.34221(11)
H12_3 H 0.4185 0.5553 0.3121
C21_3 C 0.48634(8) 0.63012(17) 0.42800(11)
H13_3 H 0.4870 0.6790 0.4595
C22_2 C 0.52503(8) 0.56328(18) 0.42876(11)
H14_2 H 0.5521 0.5671 0.4598
Zn3 Zn 0.400400(11) 0.74154(2) 0.376918(14)
N4_2 N 0.05200(7) 0.87130(13) 0.88463(8)
C20_4 C 0.05381(8) 0.94226(17) 0.84221(11)
H12_4 H 0.0815 0.9447 0.8121
C21_4 C 0.01366(8) 0.86988(17) 0.92800(11)
H13_4 H 0.0130 0.8210 0.9595
Zn3_2 Zn 0.099600(11) 0.75846(2) 0.876918(14)
O5_3 O 0.14542(7) 0.77211(14) 0.80385(9)
O6_3 O 0.08019(7) 0.77985(15) 0.73403(9)
O7_3 O 0.41309(7) 0.76602(12) 0.51706(9)
O8_2 O 0.34956(6) 0.76207(12) 0.44389(9)
N1_3 N 0.04694(7) 0.65301(14) 0.87243(8)
C1_3 C 0.05099(8) 0.57533(17) 0.90894(11)
H1_3 H 0.0812 0.5665 0.9343
C2_3 C 0.01272(8) 0.50754(17) 0.91112(11)
H2_2 H 0.0169 0.4530 0.9374
C5_3 C 0.00374(8) 0.66515(17) 0.83727(11)
H4_3 H 0.0004 0.7204 0.8115
C23_3 C 0.12603(10) 0.77511(17) 0.74650(12)
C24_3 C 0.16498(10) 0.77314(17) 0.69198(13)
C25_3 C 0.21633(10) 0.76544(16) 0.70600(12)
H15_3 H 0.2269 0.7599 0.7500
C26_3 C 0.25447(10) 0.76547(15) 0.65596(12)
C27_3 C 0.30737(9) 0.76085(16) 0.67062(13)
H16_3 H 0.3183 0.7568 0.7145
C28_3 C 0.34329(11) 0.76222(16) 0.62148(12)
H17_3 H 0.3790 0.7599 0.6315
C29_3 C 0.32685(9) 0.76716(15) 0.55521(13)
C30_3 C 0.27550(10) 0.77215(17) 0.54068(13)
H18_3 H 0.2649 0.7758 0.4966
C31_3 C 0.23736(9) 0.77198(16) 0.59104(12)
C32_3 C 0.18416(9) 0.77895(19) 0.57646(12)
H19_3 H 0.1731 0.7835 0.5326
C33_3 C 0.14837(10) 0.7792(2) 0.62604(12)
H20_3 H 0.1126 0.7834 0.6163
C34_3 C 0.36725(10) 0.76523(15) 0.50238(12)
O9_2 O 0.15044(6) 0.73793(12) 0.94389(9)
O1_4 O 0.63568(6) 0.99960(14) 0.48481(8)
O2_4 O 0.86654(6) 0.95302(13) 0.49236(8)
O3_4 O 0.87136(7) 0.95619(14) 0.27048(9)
O5_4 O 0.35458(7) 0.72789(14) 0.30385(9)
O6_4 O 0.41981(7) 0.72015(15) 0.23403(9)
O7_4 O 0.08691(7) 0.73398(12) 0.01706(9)
N1_4 N 0.45306(7) 0.84699(14) 0.37243(8)
N3_4 N 0.88233(7) 0.95153(14) 0.38181(9)
C1_4 C 0.44901(8) 0.92467(17) 0.40894(11)
H1_4 H 0.4188 0.9335 0.4343
C2_4 C 0.48728(8) 0.99246(17) 0.41112(11)
C3_4 C 0.53172(8) 0.98074(17) 0.37487(10)
C4_4 C 0.53587(8) 0.89954(17) 0.33727(11)
H3_4 H 0.5658 0.8888 0.3118
C5_4 C 0.49626(8) 0.83485(17) 0.33727(11)
H4_4 H 0.4996 0.7796 0.3115
C8_4 C 0.70828(8) 0.98986(15) 0.41001(10)
C9_4 C 0.75200(8) 0.97823(15) 0.44764(11)
H7_4 H 0.7508 0.9744 0.4936
C10_4 C 0.79762(8) 0.97261(14) 0.41301(10)
C11_4 C 0.85127(8) 0.95829(15) 0.43707(11)
C12_4 C 0.85402(8) 0.96137(16) 0.32479(11)
C13_4 C 0.79925(8) 0.97649(15) 0.34516(10)
C14_4 C 0.75563(8) 0.98841(16) 0.30744(11)
H8_4 H 0.7568 0.9911 0.2614
C15_4 C 0.71011(8) 0.99606(15) 0.34232(10)
C17_4 C 0.93490(9) 0.91491(17) 0.38305(13)
H9_4 H 0.9391 0.8746 0.4219
H10_4 H 0.9403 0.8747 0.3444
C18_4 C 0.97587(8) 0.99091(16) 0.38410(10)
C23_4 C 0.37397(10) 0.72489(17) 0.24650(12)
C24_4 C 0.33502(10) 0.72686(17) 0.19198(13)
C25_4 C 0.28367(10) 0.73456(16) 0.20600(12)
H15_4 H 0.2731 0.7401 0.2500
C26_4 C 0.24553(10) 0.73453(15) 0.15596(12)
C27_4 C 0.19263(9) 0.73915(16) 0.17062(13)
H16_4 H 0.1817 0.7432 0.2145
C28_4 C 0.15671(11) 0.73778(16) 0.12148(12)
H17_4 H 0.1210 0.7401 0.1315
C29_4 C 0.17315(9) 0.73284(15) 0.05521(13)
C30_4 C 0.22450(10) 0.72785(17) 0.04068(13)
C31_4 C 0.26264(9) 0.72802(16) 0.09104(12)
C32_4 C 0.31584(9) 0.72105(19) 0.07646(12)
H19_4 H 0.3269 0.7165 0.0326
C33_4 C 0.35163(10) 0.7208(2) 0.12604(12)
H20_4 H 0.3874 0.7166 0.1163
C34_4 C 0.13275(10) 0.73477(15) 0.00238(12)
H18_4 H 0.2351 0.7242 0.9966
C19_3 C 0.01672(9) 0.01262(17) 0.84053(12)
H11_3 H 0.0192 0.0626 0.8100
O4_3 O 0.64181(7) 0.97159(15) 0.76419(9)
N2_3 N 0.62543(7) 0.98184(14) 0.87408(9)
H2_3 H 0.4831 0.9530 0.9374
C6_3 C 0.57289(8) 0.94433(18) 0.87452(12)
H5_3 H 0.5685 0.9040 0.9133
H6_3 H 0.5681 0.9040 0.8358
C7_3 C 0.65353(8) 0.99778(16) 0.93067(11)
C16_3 C 0.65659(8) 0.98446(16) 0.81884(11)
C22_3 C 0.97497(8) 0.93672(18) 0.92876(11)
H14_3 H 0.9479 0.9329 0.9598
O1_5 O 0.13568(6) 0.49960(14) 0.01519(8)
O2_5 O 0.36654(6) 0.45302(13) 0.00764(8)
O3_5 O 0.37136(7) 0.45619(14) 0.22952(9)
O4_4 O 0.14181(7) 0.52841(15) 0.23581(9)
N2_4 N 0.12543(7) 0.51816(14) 0.12592(9)
N3_5 N 0.38233(7) 0.45153(14) 0.11819(9)
N4_3 N 0.55200(7) 0.62870(13) 0.11537(8)
C3_5 C 0.03172(8) 0.48074(17) 0.12513(10)
C4_5 C 0.03587(8) 0.39954(17) 0.16273(11)
H3_5 H 0.0658 0.3888 0.1882
C6_4 C 0.07289(8) 0.55567(18) 0.12548(12)
H5_4 H 0.0685 0.5960 0.0867
H6_4 H 0.0681 0.5960 0.1642
C7_4 C 0.15353(8) 0.50222(16) 0.06933(11)
C8_5 C 0.20828(8) 0.48986(15) 0.08999(10)
C9_5 C 0.25200(8) 0.47823(15) 0.05236(11)
H7_5 H 0.2508 0.4744 0.0064
C10_5 C 0.29762(8) 0.47261(14) 0.08699(10)
C11_5 C 0.35127(8) 0.45829(15) 0.06293(11)
C12_5 C 0.35402(8) 0.46137(16) 0.17521(11)
C13_5 C 0.29925(8) 0.47649(15) 0.15484(10)
C14_5 C 0.25563(8) 0.48841(16) 0.19256(11)
H8_5 H 0.2568 0.4911 0.2386
C15_5 C 0.21011(8) 0.49606(15) 0.15768(10)
C16_4 C 0.15659(8) 0.51554(16) 0.18116(11)
C17_5 C 0.43490(9) 0.41491(17) 0.11695(13)
H9_5 H 0.4391 0.3746 0.0781
H10_5 H 0.4403 0.3747 0.1556
C18_5 C 0.47587(8) 0.49091(16) 0.11590(10)
C19_4 C 0.51672(9) 0.48738(17) 0.15947(12)
H11_4 H 0.5192 0.4374 0.1900
C20_5 C 0.55381(8) 0.55774(17) 0.15779(11)
H12_5 H 0.5815 0.5553 0.1879
C21_5 C 0.51366(8) 0.63012(17) 0.07200(11)
H13_5 H 0.5130 0.6790 0.0405
C22_4 C 0.47497(8) 0.56328(18) 0.07124(11)
H14_4 H 0.4479 0.5671 0.0402
Zn3_3 Zn 0.599600(11) 0.74154(2) 0.123082(14)
N4_4 N 0.94800(7) 0.87130(13) 0.61537(8)
C20_6 C 0.94619(8) 0.94226(17) 0.65779(11)
H12_6 H 0.9185 0.9447 0.6879
C21_6 C 0.98634(8) 0.86988(17) 0.57200(11)
H13_6 H 0.9870 0.8210 0.5405
Zn3_4 Zn 0.900400(11) 0.75846(2) 0.623082(14)
O8_3 O 0.65044(6) 0.76207(12) 0.05611(9)
H18_5 H 0.7351 0.7758 0.0034
O5_5 O 0.85458(7) 0.77211(14) 0.69615(9)
O6_5 O 0.91981(7) 0.77985(15) 0.76597(9)
O7_5 O 0.58691(7) 0.76602(12) 0.98294(9)
N1_5 N 0.95306(7) 0.65301(14) 0.62757(8)
C1_5 C 0.94901(8) 0.57533(17) 0.59106(11)
H1_5 H 0.9188 0.5665 0.5657
C2_5 C 0.98728(8) 0.50754(17) 0.58888(11)
H2_4 H 0.9831 0.4530 0.5626
C5_5 C 0.99626(8) 0.66515(17) 0.66273(11)
H4_5 H 0.9996 0.7204 0.6885
C23_5 C 0.87397(10) 0.77511(17) 0.75350(12)
C24_5 C 0.83502(10) 0.77314(17) 0.80802(13)
C25_5 C 0.78367(10) 0.76544(16) 0.79400(12)
H15_5 H 0.7731 0.7599 0.7500
C26_5 C 0.74553(10) 0.76547(15) 0.84404(12)
C27_5 C 0.69263(9) 0.76085(16) 0.82938(13)
H16_5 H 0.6817 0.7568 0.7855
C28_5 C 0.65671(11) 0.76222(16) 0.87852(12)
H17_5 H 0.6210 0.7599 0.8685
C29_5 C 0.67315(9) 0.76716(15) 0.94479(13)
C30_5 C 0.72450(10) 0.77215(17) 0.95932(13)
C31_5 C 0.76264(9) 0.77198(16) 0.90896(12)
C32_5 C 0.81584(9) 0.77895(19) 0.92354(12)
H19_5 H 0.8269 0.7835 0.9674
C33_5 C 0.85163(10) 0.7792(2) 0.87396(12)
H20_5 H 0.8874 0.7834 0.8837
C34_5 C 0.63275(10) 0.76523(15) 0.99762(12)
O9_3 O 0.84956(6) 0.73793(12) 0.55611(9)
O1_6 O 0.36432(6) 0.99960(14) 0.01519(8)
O2_6 O 0.13346(6) 0.95302(13) 0.00764(8)
O3_6 O 0.12864(7) 0.95619(14) 0.22952(9)
O5_6 O 0.64542(7) 0.72789(14) 0.19615(9)
O6_6 O 0.58019(7) 0.72015(15) 0.26597(9)
O7_6 O 0.91309(7) 0.73398(12) 0.48294(9)
N1_6 N 0.54694(7) 0.84699(14) 0.12757(8)
N3_6 N 0.11767(7) 0.95153(14) 0.11819(9)
C1_6 C 0.55099(8) 0.92467(17) 0.09106(11)
H1_6 H 0.5812 0.9335 0.0657
C2_6 C 0.51272(8) 0.99246(17) 0.08888(11)
C3_6 C 0.46828(8) 0.98074(17) 0.12513(10)
C4_6 C 0.46413(8) 0.89954(17) 0.16273(11)
H3_6 H 0.4342 0.8888 0.1882
C5_6 C 0.50374(8) 0.83485(17) 0.16273(11)
H4_6 H 0.5004 0.7796 0.1885
C8_6 C 0.29172(8) 0.98986(15) 0.08999(10)
C9_6 C 0.24800(8) 0.97823(15) 0.05236(11)
H7_6 H 0.2492 0.9744 0.0064
C10_6 C 0.20238(8) 0.97261(14) 0.08699(10)
C11_6 C 0.14873(8) 0.95829(15) 0.06293(11)
C12_6 C 0.14598(8) 0.96137(16) 0.17521(11)
C13_6 C 0.20075(8) 0.97649(15) 0.15484(10)
C14_6 C 0.24437(8) 0.98841(16) 0.19256(11)
H8_6 H 0.2432 0.9911 0.2386
C15_6 C 0.28989(8) 0.99606(15) 0.15768(10)
C17_6 C 0.06510(9) 0.91491(17) 0.11695(13)
H9_6 H 0.0609 0.8746 0.0781
H10_6 H 0.0597 0.8747 0.1556
C18_6 C 0.02413(8) 0.99091(16) 0.11590(10)
C23_6 C 0.62603(10) 0.72489(17) 0.25350(12)
C24_6 C 0.66498(10) 0.72686(17) 0.30802(13)
C25_6 C 0.71633(10) 0.73456(16) 0.29400(12)
H15_6 H 0.7269 0.7401 0.2500
C26_6 C 0.75447(10) 0.73453(15) 0.34404(12)
C27_6 C 0.80737(9) 0.73915(16) 0.32938(13)
H16_6 H 0.8183 0.7432 0.2855
C28_6 C 0.84329(11) 0.73778(16) 0.37852(12)
H17_6 H 0.8790 0.7401 0.3685
C29_6 C 0.82685(9) 0.73284(15) 0.44479(13)
C30_6 C 0.77550(10) 0.72785(17) 0.45932(13)
H18_6 H 0.7649 0.7242 0.5034
C31_6 C 0.73736(9) 0.72802(16) 0.40896(12)
C32_6 C 0.68416(9) 0.72105(19) 0.42354(12)
H19_6 H 0.6731 0.7165 0.4674
C33_6 C 0.64837(10) 0.7208(2) 0.37396(12)
H20_6 H 0.6126 0.7166 0.3837
C34_6 C 0.86725(10) 0.73477(15) 0.49762(12)
Zn1_2 Zn 0.900400(11) 0.24154(2) 0.123082(14)
O5_7 O 0.85458(7) 0.22789(14) 0.19615(9)
O6_7 O 0.91981(7) 0.22015(15) 0.26597(9)
O7_7 O 0.58691(7) 0.23398(12) 0.48294(9)
O8_4 O 0.65044(6) 0.23793(12) 0.55611(9)
N1_7 N 0.95306(7) 0.34699(14) 0.12757(8)
C1_7 C 0.94901(8) 0.42467(17) 0.09106(11)
H1_7 H 0.9188 0.4335 0.0657
C2_7 C 0.98728(8) 0.49246(17) 0.08888(11)
H2_5 H 0.9831 0.5470 0.0626
C5_7 C 0.99626(8) 0.33485(17) 0.16273(11)
H4_7 H 0.9996 0.2796 0.1885
C23_7 C 0.87397(10) 0.22489(17) 0.25350(12)
C24_7 C 0.83502(10) 0.22686(17) 0.30802(13)
C25_7 C 0.78367(10) 0.23456(16) 0.29400(12)
H15_7 H 0.7731 0.2401 0.2500
C26_7 C 0.74553(10) 0.23453(15) 0.34404(12)
C27_7 C 0.69263(9) 0.23915(16) 0.32938(13)
H16_7 H 0.6817 0.2432 0.2855
C28_7 C 0.65671(11) 0.23778(16) 0.37852(12)
H17_7 H 0.6210 0.2401 0.3685
C29_7 C 0.67315(9) 0.23284(15) 0.44479(13)
C30_7 C 0.72450(10) 0.22785(17) 0.45932(13)
H18_7 H 0.7351 0.2242 0.5034
C31_7 C 0.76264(9) 0.22802(16) 0.40896(12)
C32_7 C 0.81584(9) 0.22105(19) 0.42354(12)
H19_7 H 0.8269 0.2165 0.4674
C33_7 C 0.85163(10) 0.2208(2) 0.37396(12)
H20_7 H 0.8874 0.2166 0.3837
C34_7 C 0.63275(10) 0.23477(15) 0.49762(12)
Zn2_2 Zn 0.599600(11) 0.25846(2) 0.623082(14)
O9_4 O 0.84956(6) 0.26207(12) 0.05611(9)
N5_3 N 0.94800(7) 0.12870(13) 0.11537(8)
H18_8 H 0.7649 0.2758 0.0034
O1_7 O 0.36432(6) 0.00040(14) 0.51519(8)
O2_7 O 0.13346(6) 0.04698(13) 0.50764(8)
O3_7 O 0.12864(7) 0.04381(14) 0.72952(9)
O5_8 O 0.64542(7) 0.27211(14) 0.69615(9)
O6_8 O 0.58019(7) 0.27985(15) 0.76597(9)
O7_8 O 0.91309(7) 0.26602(12) 0.98294(9)
N1_8 N 0.54694(7) 0.15301(14) 0.62757(8)
N3_7 N 0.11767(7) 0.04847(14) 0.61819(9)
C1_8 C 0.55099(8) 0.07533(17) 0.59106(11)
H1_8 H 0.5812 0.0665 0.5657
C2_8 C 0.51272(8) 0.00754(17) 0.58888(11)
C3_7 C 0.46828(8) 0.01926(17) 0.62513(10)
C4_7 C 0.46413(8) 0.10046(17) 0.66273(11)
H3_7 H 0.4342 0.1112 0.6882
C5_8 C 0.50374(8) 0.16515(17) 0.66273(11)
H4_8 H 0.5004 0.2204 0.6885
C8_7 C 0.29172(8) 0.01014(15) 0.58999(10)
C9_7 C 0.24800(8) 0.02177(15) 0.55236(11)
H7_7 H 0.2492 0.0256 0.5064
C10_7 C 0.20238(8) 0.02739(14) 0.58699(10)
C11_7 C 0.14873(8) 0.04171(15) 0.56293(11)
C12_7 C 0.14598(8) 0.03863(16) 0.67521(11)
C13_7 C 0.20075(8) 0.02351(15) 0.65484(10)
C14_7 C 0.24437(8) 0.01159(16) 0.69256(11)
H8_7 H 0.2432 0.0089 0.7386
C15_7 C 0.28989(8) 0.00394(15) 0.65768(10)
C17_7 C 0.06510(9) 0.08509(17) 0.61695(13)
H9_7 H 0.0609 0.1254 0.5781
H10_7 H 0.0597 0.1253 0.6556
C18_7 C 0.02413(8) 0.00909(16) 0.61590(10)
C23_8 C 0.62603(10) 0.27511(17) 0.75350(12)
C24_8 C 0.66498(10) 0.27314(17) 0.80802(13)
C25_8 C 0.71633(10) 0.26544(16) 0.79400(12)
H15_8 H 0.7269 0.2599 0.7500
C26_8 C 0.75447(10) 0.26547(15) 0.84404(12)
C27_8 C 0.80737(9) 0.26085(16) 0.82938(13)
H16_8 H 0.8183 0.2568 0.7855
C28_8 C 0.84329(11) 0.26222(16) 0.87852(12)
H17_8 H 0.8790 0.2599 0.8685
C29_8 C 0.82685(9) 0.26716(15) 0.94479(13)
C30_8 C 0.77550(10) 0.27215(17) 0.95932(13)
C31_8 C 0.73736(9) 0.27198(16) 0.90896(12)
C32_8 C 0.68416(9) 0.27895(19) 0.92354(12)
H19_8 H 0.6731 0.2835 0.9674
C33_8 C 0.64837(10) 0.2792(2) 0.87396(12)
H20_8 H 0.6126 0.2834 0.8837
C34_8 C 0.86725(10) 0.26523(15) 0.99762(12)
N5_4 N 0.55200(7) 0.37130(13) 0.61537(8)
O1_8 O 0.13568(6) 0.50040(14) 0.51519(8)
O2_8 O 0.36654(6) 0.54698(13) 0.50764(8)
O3_8 O 0.37136(7) 0.54381(14) 0.72952(9)
O4_5 O 0.14181(7) 0.47159(15) 0.73581(9)
N2_5 N 0.12543(7) 0.48184(14) 0.62592(9)
N3_8 N 0.38233(7) 0.54847(14) 0.61819(9)
C3_8 C 0.03172(8) 0.51926(17) 0.62513(10)
C4_8 C 0.03587(8) 0.60046(17) 0.66273(11)
H3_8 H 0.0658 0.6112 0.6882
C6_5 C 0.07289(8) 0.44433(18) 0.62548(12)
H5_5 H 0.0685 0.4040 0.5867
H6_5 H 0.0681 0.4040 0.6642
C7_5 C 0.15353(8) 0.49778(16) 0.56933(11)
C8_8 C 0.20828(8) 0.51014(15) 0.58999(10)
C9_8 C 0.25200(8) 0.52177(15) 0.55236(11)
H7_8 H 0.2508 0.5256 0.5064
C10_8 C 0.29762(8) 0.52739(14) 0.58699(10)
C11_8 C 0.35127(8) 0.54171(15) 0.56293(11)
C12_8 C 0.35402(8) 0.53863(16) 0.67521(11)
C13_8 C 0.29925(8) 0.52351(15) 0.65484(10)
C14_8 C 0.25563(8) 0.51159(16) 0.69256(11)
H8_8 H 0.2568 0.5089 0.7386
C15_8 C 0.21011(8) 0.50394(15) 0.65768(10)
C16_5 C 0.15659(8) 0.48446(16) 0.68116(11)
C17_8 C 0.43490(9) 0.58509(17) 0.61695(13)
H9_8 H 0.4391 0.6254 0.5781
H10_8 H 0.4403 0.6253 0.6556
C18_8 C 0.47587(8) 0.50909(16) 0.61590(10)
C19_5 C 0.51672(9) 0.51262(17) 0.65947(12)
H11_5 H 0.5192 0.5626 0.6900
C20_7 C 0.55381(8) 0.44226(17) 0.65779(11)
H12_7 H 0.5815 0.4447 0.6879
C21_7 C 0.51366(8) 0.36988(17) 0.57200(11)
H13_7 H 0.5130 0.3210 0.5405
C22_5 C 0.47497(8) 0.43672(18) 0.57124(11)
H14_5 H 0.4479 0.4329 0.5402
C20_8 C 0.94619(8) 0.05774(17) 0.15779(11)
H12_8 H 0.9185 0.0553 0.1879
C21_8 C 0.98634(8) 0.13012(17) 0.07200(11)
H13_8 H 0.9870 0.1790 0.0405
O4_6 O 0.35819(7) 0.97159(15) 0.73581(9)
N2_6 N 0.37457(7) 0.98184(14) 0.62592(9)
H2_6 H 0.5169 0.9530 0.5626
C6_6 C 0.42711(8) 0.94433(18) 0.62548(12)
H5_6 H 0.4315 0.9040 0.5867
H6_6 H 0.4319 0.9040 0.6642
C7_6 C 0.34647(8) 0.99778(16) 0.56933(11)
C16_6 C 0.34341(8) 0.98446(16) 0.68116(11)
C22_6 C 0.02503(8) 0.93672(18) 0.57124(11)
H14_6 H 0.0521 0.9329 0.5402
C19_6 C 0.98328(9) 0.01262(17) 0.65947(12)
H11_6 H 0.9808 0.0626 0.6900
O4_7 O 0.35819(7) 0.02841(15) 0.23581(9)
N2_7 N 0.37457(7) 0.01816(14) 0.12592(9)
H2_7 H 0.5169 0.0470 0.0626
C6_7 C 0.42711(8) 0.05567(18) 0.12548(12)
H5_7 H 0.4315 0.0960 0.0867
H6_7 H 0.4319 0.0960 0.1642
C7_7 C 0.34647(8) 0.00222(16) 0.06933(11)
C16_7 C 0.34341(8) 0.01554(16) 0.18116(11)
C22_7 C 0.02503(8) 0.06328(18) 0.07124(11)
H14_7 H 0.0521 0.0671 0.0402
C19_7 C 0.98328(9) 0.98738(17) 0.15947(12)
H11_7 H 0.9808 0.9374 0.1900
C19_8 C 0.01672(9) 0.98738(17) 0.34053(12)
H11_8 H 0.0192 0.9374 0.3100
O4_8 O 0.64181(7) 0.02841(15) 0.26419(9)
N2_8 N 0.62543(7) 0.01816(14) 0.37408(9)
H2_8 H 0.4831 0.0470 0.4374
C6_8 C 0.57289(8) 0.05567(18) 0.37452(12)
H5_8 H 0.5685 0.0960 0.4133
H6_8 H 0.5681 0.0960 0.3358
C7_8 C 0.65353(8) 0.00222(16) 0.43067(11)
C16_8 C 0.65659(8) 0.01554(16) 0.31884(11)
C22_8 C 0.97497(8) 0.06328(18) 0.42876(11)
H14_8 H 0.9479 0.0671 0.4598
loop_
_geom_bond_atom_site_label_1
_geom_bond_atom_site_label_2
_geom_bond_site_symmetry_1
_geom_bond_site_symmetry_2
Zn1 O5 1_555 1_555
O5 C23 1_555 1_555
O6 C23 1_555 1_555
O7 C34 1_555 1_555
N1 Zn1 1_555 1_555
C1 N1 1_555 1_555
H1 C1 1_555 1_555
C2 C1 1_555 1_555
H2 C2 1_555 1_555
C5 N1 1_555 1_555
H4 C5 1_555 1_555
C23 C24 1_555 1_555
C24 C25 1_555 1_555
C25 H15 1_555 1_555
C26 C25 1_555 1_555
C27 C26 1_555 1_555
H16 C27 1_555 1_555
C28 C27 1_555 1_555
H17 C28 1_555 1_555
C29 C28 1_555 1_555
C30 C29 1_555 1_555
C31 C26 1_555 1_555
C32 C31 1_555 1_555
H19 C32 1_555 1_555
C33 C24 1_555 1_555
H20 C33 1_555 1_555
C34 C29 1_555 1_555
O9 Zn1 1_555 1_555
N5 Zn1 1_555 1_555
C30 C31 1_555 1_555
C32 C33 1_555 1_555
Zn2 O8 1_555 1_555
Zn2 O5_2 1_555 1_555
O2 C11 1_555 1_555
O3 C12 1_555 1_555
O5_2 C23_2 1_555 1_555
O6_2 C23_2 1_555 1_555
O7_2 C34_2 1_555 1_555
O9 C34_2 1_555 1_555
N1_2 Zn2 1_555 1_555
N3 C11 1_555 1_555
C1_2 N1_2 1_555 1_555
H1_2 C1_2 1_555 1_555
C2_2 C1_2 1_555 1_555
C3 C2_2 1_555 1_555
C4 C3 1_555 1_555
H3 C4 1_555 1_555
C5_2 N1_2 1_555 1_555
H4_2 C5_2 1_555 1_555
C9 C8 1_555 1_555
H7 C9 1_555 1_555
C10 C9 1_555 1_555
C11 C10 1_555 1_555
C12 N3 1_555 1_555
C13 C10 1_555 1_555
C14 C13 1_555 1_555
H8 C14 1_555 1_555
C15 C8 1_555 1_555
C17 N3 1_555 1_555
H9 C17 1_555 1_555
H10 C17 1_555 1_555
C18 C17 1_555 1_555
C23_2 C24_2 1_555 1_555
C24_2 C25_2 1_555 1_555
C25_2 H15_2 1_555 1_555
C26_2 C25_2 1_555 1_555
C27_2 C26_2 1_555 1_555
H16_2 C27_2 1_555 1_555
C28_2 C27_2 1_555 1_555
H17_2 C28_2 1_555 1_555
C29_2 C28_2 1_555 1_555
C30_2 C29_2 1_555 1_555
H18_2 C30_2 1_555 1_555
C31_2 C26_2 1_555 1_555
C32_2 C31_2 1_555 1_555
H19_2 C32_2 1_555 1_555
C33_2 C24_2 1_555 1_555
H20_2 C33_2 1_555 1_555
C34_2 C29_2 1_555 1_555
N5_2 Zn2 1_555 1_555
C4 C5_2 1_555 1_555
C12 C13 1_555 1_555
C14 C15 1_555 1_555
C30_2 C31_2 1_555 1_555
C32_2 C33_2 1_555 1_555
O1_2 C7 1_555 1_555
O2_2 C11_2 1_555 1_555
O3_2 C12_2 1_555 1_555
O4 C16 1_555 1_555
N2 C6 1_555 1_555
N3_2 C11_2 1_555 1_555
N5_2 C20 1_555 1_555
C4_2 C3_2 1_555 1_555
H3_2 C4_2 1_555 1_555
C6 C3_2 1_555 1_555
H5 C6 1_555 1_555
H6 C6 1_555 1_555
C7 N2 1_555 1_555
C8_2 C7 1_555 1_555
C9_2 C8_2 1_555 1_555
H7_2 C9_2 1_555 1_555
C10_2 C9_2 1_555 1_555
C11_2 C10_2 1_555 1_555
C12_2 N3_2 1_555 1_555
C13_2 C10_2 1_555 1_555
C14_2 C13_2 1_555 1_555
H8_2 C14_2 1_555 1_555
C15_2 C8_2 1_555 1_555
C16 N2 1_555 1_555
C17_2 N3_2 1_555 1_555
H9_2 C17_2 1_555 1_555
H10_2 C17_2 1_555 1_555
C18_2 C17_2 1_555 1_555
C19 C18_2 1_555 1_555
H11 C19 1_555 1_555
C20 C19 1_555 1_555
H12 C20 1_555 1_555
C21 N5_2 1_555 1_555
H13 C21 1_555 1_555
C22 C18_2 1_555 1_555
H14 C22 1_555 1_555
C12_2 C13_2 1_555 1_555
C14_2 C15_2 1_555 1_555
C15_2 C16 1_555 1_555
C21 C22 1_555 1_555
N5 C20_2 1_555 1_555
H12_2 C20_2 1_555 1_555
C21_2 N5 1_555 1_555
H13_2 C21_2 1_555 1_555
O1_3 C7_2 1_555 1_555
O2_3 C11_3 1_555 1_555
O3_3 C12_3 1_555 1_555
O4_2 C16_2 1_555 1_555
N2_2 C6_2 1_555 1_555
N3_3 C11_3 1_555 1_555
N4 C20_3 1_555 1_555
C4_3 C3_3 1_555 1_555
H3_3 C4_3 1_555 1_555
C6_2 C3_3 1_555 1_555
H5_2 C6_2 1_555 1_555
H6_2 C6_2 1_555 1_555
C7_2 N2_2 1_555 1_555
C8_3 C7_2 1_555 1_555
C9_3 C8_3 1_555 1_555
H7_3 C9_3 1_555 1_555
C10_3 C9_3 1_555 1_555
C11_3 C10_3 1_555 1_555
C12_3 N3_3 1_555 1_555
C13_3 C10_3 1_555 1_555
C14_3 C13_3 1_555 1_555
H8_3 C14_3 1_555 1_555
C15_3 C8_3 1_555 1_555
C16_2 N2_2 1_555 1_555
C17_3 N3_3 1_555 1_555
H9_3 C17_3 1_555 1_555
H10_3 C17_3 1_555 1_555
C18_3 C17_3 1_555 1_555
C19_2 C18_3 1_555 1_555
H11_2 C19_2 1_555 1_555
C20_3 C19_2 1_555 1_555
H12_3 C20_3 1_555 1_555
C21_3 N4 1_555 1_555
H13_3 C21_3 1_555 1_555
C22_2 C18_3 1_555 1_555
H14_2 C22_2 1_555 1_555
Zn3 N4 1_555 1_555
C12_3 C13_3 1_555 1_555
C14_3 C15_3 1_555 1_555
C15_3 C16_2 1_555 1_555
C21_3 C22_2 1_555 1_555
N4_2 C20_4 1_555 1_555
H12_4 C20_4 1_555 1_555
C21_4 N4_2 1_555 1_555
H13_4 C21_4 1_555 1_555
Zn3_2 N4_2 1_555 1_555
Zn3_2 O5_3 1_555 1_555
O5_3 C23_3 1_555 1_555
O6_3 C23_3 1_555 1_555
O7_3 C34_3 1_555 1_555
O8_2 C34_3 1_555 1_555
N1_3 Zn3_2 1_555 1_555
C1_3 N1_3 1_555 1_555
H1_3 C1_3 1_555 1_555
C2_3 C1_3 1_555 1_555
H2_2 C2_3 1_555 1_555
C5_3 N1_3 1_555 1_555
H4_3 C5_3 1_555 1_555
C23_3 C24_3 1_555 1_555
C24_3 C25_3 1_555 1_555
C25_3 H15_3 1_555 1_555
C26_3 C25_3 1_555 1_555
C27_3 C26_3 1_555 1_555
H16_3 C27_3 1_555 1_555
C28_3 C27_3 1_555 1_555
H17_3 C28_3 1_555 1_555
C29_3 C28_3 1_555 1_555
C30_3 C29_3 1_555 1_555
H18_3 C30_3 1_555 1_555
C31_3 C26_3 1_555 1_555
C32_3 C31_3 1_555 1_555
H19_3 C32_3 1_555 1_555
C33_3 C24_3 1_555 1_555
H20_3 C33_3 1_555 1_555
C34_3 C29_3 1_555 1_555
Zn3 O8_2 1_555 1_555
O9_2 Zn3_2 1_555 1_555
C30_3 C31_3 1_555 1_555
C32_3 C33_3 1_555 1_555
Zn3 O5_4 1_555 1_555
O2_4 C11_4 1_555 1_555
O3_4 C12_4 1_555 1_555
O5_4 C23_4 1_555 1_555
O6_4 C23_4 1_555 1_555
O7_4 C34_4 1_555 1_555
N1_4 Zn3 1_555 1_555
N3_4 C11_4 1_555 1_555
C1_4 N1_4 1_555 1_555
H1_4 C1_4 1_555 1_555
C2_4 C1_4 1_555 1_555
C3_4 C2_4 1_555 1_555
C4_4 C3_4 1_555 1_555
H3_4 C4_4 1_555 1_555
C5_4 N1_4 1_555 1_555
H4_4 C5_4 1_555 1_555
C9_4 C8_4 1_555 1_555
H7_4 C9_4 1_555 1_555
C10_4 C9_4 1_555 1_555
C11_4 C10_4 1_555 1_555
C12_4 N3_4 1_555 1_555
C13_4 C10_4 1_555 1_555
C14_4 C13_4 1_555 1_555
H8_4 C14_4 1_555 1_555
C15_4 C8_4 1_555 1_555
C17_4 N3_4 1_555 1_555
H9_4 C17_4 1_555 1_555
H10_4 C17_4 1_555 1_555
C18_4 C17_4 1_555 1_555
C23_4 C24_4 1_555 1_555
C24_4 C25_4 1_555 1_555
C25_4 H15_4 1_555 1_555
C26_4 C25_4 1_555 1_555
C27_4 C26_4 1_555 1_555
H16_4 C27_4 1_555 1_555
C28_4 C27_4 1_555 1_555
H17_4 C28_4 1_555 1_555
C29_4 C28_4 1_555 1_555
C30_4 C29_4 1_555 1_555
C31_4 C26_4 1_555 1_555
C32_4 C31_4 1_555 1_555
H19_4 C32_4 1_555 1_555
C33_4 C24_4 1_555 1_555
H20_4 C33_4 1_555 1_555
C34_4 C29_4 1_555 1_555
C4_4 C5_4 1_555 1_555
C12_4 C13_4 1_555 1_555
C14_4 C15_4 1_555 1_555
C30_4 C31_4 1_555 1_555
C32_4 C33_4 1_555 1_555
H11_3 C19_3 1_555 1_555
O4_3 C16_3 1_555 1_555
N2_3 C6_3 1_555 1_555
H5_3 C6_3 1_555 1_555
H6_3 C6_3 1_555 1_555
C7_3 N2_3 1_555 1_555
C16_3 N2_3 1_555 1_555
H14_3 C22_3 1_555 1_555
O1_5 C7_4 1_555 1_555
O2_5 C11_5 1_555 1_555
O3_5 C12_5 1_555 1_555
O4_4 C16_4 1_555 1_555
N2_4 C6_4 1_555 1_555
N3_5 C11_5 1_555 1_555
N4_3 C20_5 1_555 1_555
C4_5 C3_5 1_555 1_555
H3_5 C4_5 1_555 1_555
C6_4 C3_5 1_555 1_555
H5_4 C6_4 1_555 1_555
H6_4 C6_4 1_555 1_555
C7_4 N2_4 1_555 1_555
C8_5 C7_4 1_555 1_555
C9_5 C8_5 1_555 1_555
H7_5 C9_5 1_555 1_555
C10_5 C9_5 1_555 1_555
C11_5 C10_5 1_555 1_555
C12_5 N3_5 1_555 1_555
C13_5 C10_5 1_555 1_555
C14_5 C13_5 1_555 1_555
H8_5 C14_5 1_555 1_555
C15_5 C8_5 1_555 1_555
C16_4 N2_4 1_555 1_555
C17_5 N3_5 1_555 1_555
H9_5 C17_5 1_555 1_555
H10_5 C17_5 1_555 1_555
C18_5 C17_5 1_555 1_555
C19_4 C18_5 1_555 1_555
H11_4 C19_4 1_555 1_555
C20_5 C19_4 1_555 1_555
H12_5 C20_5 1_555 1_555
C21_5 N4_3 1_555 1_555
H13_5 C21_5 1_555 1_555
C22_4 C18_5 1_555 1_555
H14_4 C22_4 1_555 1_555
Zn3_3 N4_3 1_555 1_555
C12_5 C13_5 1_555 1_555
C14_5 C15_5 1_555 1_555
C15_5 C16_4 1_555 1_555
C21_5 C22_4 1_555 1_555
N4_4 C20_6 1_555 1_555
H12_6 C20_6 1_555 1_555
C21_6 N4_4 1_555 1_555
H13_6 C21_6 1_555 1_555
Zn3_4 N4_4 1_555 1_555
Zn3_3 O8_3 1_555 1_555
Zn3_4 O5_5 1_555 1_555
O5_5 C23_5 1_555 1_555
O6_5 C23_5 1_555 1_555
O7_5 C34_5 1_555 1_555
N1_5 Zn3_4 1_555 1_555
C1_5 N1_5 1_555 1_555
H1_5 C1_5 1_555 1_555
C2_5 C1_5 1_555 1_555
H2_4 C2_5 1_555 1_555
C5_5 N1_5 1_555 1_555
H4_5 C5_5 1_555 1_555
C23_5 C24_5 1_555 1_555
C24_5 C25_5 1_555 1_555
C25_5 H15_5 1_555 1_555
C26_5 C25_5 1_555 1_555
C27_5 C26_5 1_555 1_555
H16_5 C27_5 1_555 1_555
C28_5 C27_5 1_555 1_555
H17_5 C28_5 1_555 1_555
C29_5 C28_5 1_555 1_555
C30_5 C29_5 1_555 1_555
C31_5 C26_5 1_555 1_555
C32_5 C31_5 1_555 1_555
H19_5 C32_5 1_555 1_555
C33_5 C24_5 1_555 1_555
H20_5 C33_5 1_555 1_555
C34_5 C29_5 1_555 1_555
O9_3 Zn3_4 1_555 1_555
C30_5 C31_5 1_555 1_555
C32_5 C33_5 1_555 1_555
Zn3_3 O5_6 1_555 1_555
O2_6 C11_6 1_555 1_555
O3_6 C12_6 1_555 1_555
O5_6 C23_6 1_555 1_555
O6_6 C23_6 1_555 1_555
O7_6 C34_6 1_555 1_555
O9_3 C34_6 1_555 1_555
N1_6 Zn3_3 1_555 1_555
N3_6 C11_6 1_555 1_555
C1_6 N1_6 1_555 1_555
H1_6 C1_6 1_555 1_555
C2_6 C1_6 1_555 1_555
C3_6 C2_6 1_555 1_555
C4_6 C3_6 1_555 1_555
H3_6 C4_6 1_555 1_555
C5_6 N1_6 1_555 1_555
H4_6 C5_6 1_555 1_555
C9_6 C8_6 1_555 1_555
H7_6 C9_6 1_555 1_555
C10_6 C9_6 1_555 1_555
C11_6 C10_6 1_555 1_555
C12_6 N3_6 1_555 1_555
C13_6 C10_6 1_555 1_555
C14_6 C13_6 1_555 1_555
H8_6 C14_6 1_555 1_555
C15_6 C8_6 1_555 1_555
C17_6 N3_6 1_555 1_555
H9_6 C17_6 1_555 1_555
H10_6 C17_6 1_555 1_555
C18_6 C17_6 1_555 1_555
C23_6 C24_6 1_555 1_555
C24_6 C25_6 1_555 1_555
C25_6 H15_6 1_555 1_555
C26_6 C25_6 1_555 1_555
C27_6 C26_6 1_555 1_555
H16_6 C27_6 1_555 1_555
C28_6 C27_6 1_555 1_555
H17_6 C28_6 1_555 1_555
C29_6 C28_6 1_555 1_555
C30_6 C29_6 1_555 1_555
H18_6 C30_6 1_555 1_555
C31_6 C26_6 1_555 1_555
C32_6 C31_6 1_555 1_555
H19_6 C32_6 1_555 1_555
C33_6 C24_6 1_555 1_555
H20_6 C33_6 1_555 1_555
C34_6 C29_6 1_555 1_555
C4_6 C5_6 1_555 1_555
C12_6 C13_6 1_555 1_555
C14_6 C15_6 1_555 1_555
C30_6 C31_6 1_555 1_555
C32_6 C33_6 1_555 1_555
Zn1_2 O5_7 1_555 1_555
O5_7 C23_7 1_555 1_555
O6_7 C23_7 1_555 1_555
O7_7 C34_7 1_555 1_555
O8_4 C34_7 1_555 1_555
N1_7 Zn1_2 1_555 1_555
C1_7 N1_7 1_555 1_555
H1_7 C1_7 1_555 1_555
C2_7 C1_7 1_555 1_555
H2_5 C2_7 1_555 1_555
C5_7 N1_7 1_555 1_555
H4_7 C5_7 1_555 1_555
C23_7 C24_7 1_555 1_555
C24_7 C25_7 1_555 1_555
C25_7 H15_7 1_555 1_555
C26_7 C25_7 1_555 1_555
C27_7 C26_7 1_555 1_555
H16_7 C27_7 1_555 1_555
C28_7 C27_7 1_555 1_555
H17_7 C28_7 1_555 1_555
C29_7 C28_7 1_555 1_555
C30_7 C29_7 1_555 1_555
H18_7 C30_7 1_555 1_555
C31_7 C26_7 1_555 1_555
C32_7 C31_7 1_555 1_555
H19_7 C32_7 1_555 1_555
C33_7 C24_7 1_555 1_555
H20_7 C33_7 1_555 1_555
C34_7 C29_7 1_555 1_555
Zn2_2 O8_4 1_555 1_555
O9_4 Zn1_2 1_555 1_555
N5_3 Zn1_2 1_555 1_555
C30_7 C31_7 1_555 1_555
C32_7 C33_7 1_555 1_555
Zn2_2 O5_8 1_555 1_555
O2_7 C11_7 1_555 1_555
O3_7 C12_7 1_555 1_555
O5_8 C23_8 1_555 1_555
O6_8 C23_8 1_555 1_555
O7_8 C34_8 1_555 1_555
N1_8 Zn2_2 1_555 1_555
N3_7 C11_7 1_555 1_555
C1_8 N1_8 1_555 1_555
H1_8 C1_8 1_555 1_555
C2_8 C1_8 1_555 1_555
C3_7 C2_8 1_555 1_555
C4_7 C3_7 1_555 1_555
H3_7 C4_7 1_555 1_555
C5_8 N1_8 1_555 1_555
H4_8 C5_8 1_555 1_555
C9_7 C8_7 1_555 1_555
H7_7 C9_7 1_555 1_555
C10_7 C9_7 1_555 1_555
C11_7 C10_7 1_555 1_555
C12_7 N3_7 1_555 1_555
C13_7 C10_7 1_555 1_555
C14_7 C13_7 1_555 1_555
H8_7 C14_7 1_555 1_555
C15_7 C8_7 1_555 1_555
C17_7 N3_7 1_555 1_555
H9_7 C17_7 1_555 1_555
H10_7 C17_7 1_555 1_555
C18_7 C17_7 1_555 1_555
C23_8 C24_8 1_555 1_555
C24_8 C25_8 1_555 1_555
C25_8 H15_8 1_555 1_555
C26_8 C25_8 1_555 1_555
C27_8 C26_8 1_555 1_555
H16_8 C27_8 1_555 1_555
C28_8 C27_8 1_555 1_555
H17_8 C28_8 1_555 1_555
C29_8 C28_8 1_555 1_555
C30_8 C29_8 1_555 1_555
C31_8 C26_8 1_555 1_555
C32_8 C31_8 1_555 1_555
H19_8 C32_8 1_555 1_555
C33_8 C24_8 1_555 1_555
H20_8 C33_8 1_555 1_555
C34_8 C29_8 1_555 1_555
N5_4 Zn2_2 1_555 1_555
C4_7 C5_8 1_555 1_555
C12_7 C13_7 1_555 1_555
C14_7 C15_7 1_555 1_555
C30_8 C31_8 1_555 1_555
C32_8 C33_8 1_555 1_555
O1_8 C7_5 1_555 1_555
O2_8 C11_8 1_555 1_555
O3_8 C12_8 1_555 1_555
O4_5 C16_5 1_555 1_555
N2_5 C6_5 1_555 1_555
N3_8 C11_8 1_555 1_555
N5_4 C20_7 1_555 1_555
C4_8 C3_8 1_555 1_555
H3_8 C4_8 1_555 1_555
C6_5 C3_8 1_555 1_555
H5_5 C6_5 1_555 1_555
H6_5 C6_5 1_555 1_555
C7_5 N2_5 1_555 1_555
C8_8 C7_5 1_555 1_555
C9_8 C8_8 1_555 1_555
H7_8 C9_8 1_555 1_555
C10_8 C9_8 1_555 1_555
C11_8 C10_8 1_555 1_555
C12_8 N3_8 1_555 1_555
C13_8 C10_8 1_555 1_555
C14_8 C13_8 1_555 1_555
H8_8 C14_8 1_555 1_555
C15_8 C8_8 1_555 1_555
C16_5 N2_5 1_555 1_555
C17_8 N3_8 1_555 1_555
H9_8 C17_8 1_555 1_555
H10_8 C17_8 1_555 1_555
C18_8 C17_8 1_555 1_555
C19_5 C18_8 1_555 1_555
H11_5 C19_5 1_555 1_555
C20_7 C19_5 1_555 1_555
H12_7 C20_7 1_555 1_555
C21_7 N5_4 1_555 1_555
H13_7 C21_7 1_555 1_555
C22_5 C18_8 1_555 1_555
H14_5 C22_5 1_555 1_555
C12_8 C13_8 1_555 1_555
C14_8 C15_8 1_555 1_555
C15_8 C16_5 1_555 1_555
C21_7 C22_5 1_555 1_555
N5_3 C20_8 1_555 1_555
H12_8 C20_8 1_555 1_555
C21_8 N5_3 1_555 1_555
H13_8 C21_8 1_555 1_555
O4_6 C16_6 1_555 1_555
N2_6 C6_6 1_555 1_555
H5_6 C6_6 1_555 1_555
H6_6 C6_6 1_555 1_555
C7_6 N2_6 1_555 1_555
C16_6 N2_6 1_555 1_555
H14_6 C22_6 1_555 1_555
H11_6 C19_6 1_555 1_555
O4_7 C16_7 1_555 1_555
N2_7 C6_7 1_555 1_555
H5_7 C6_7 1_555 1_555
H6_7 C6_7 1_555 1_555
C7_7 N2_7 1_555 1_555
C16_7 N2_7 1_555 1_555
H14_7 C22_7 1_555 1_555
H11_7 C19_7 1_555 1_555
H11_8 C19_8 1_555 1_555
O4_8 C16_8 1_555 1_555
N2_8 C6_8 1_555 1_555
H5_8 C6_8 1_555 1_555
H6_8 C6_8 1_555 1_555
C7_8 N2_8 1_555 1_555
C16_8 N2_8 1_555 1_555
H14_8 C22_8 1_555 1_555

#END
