
###############################################################################
#
# This file contains modified crystal structure data generated from the
# MOF subset of the Cambridge Structural Database (CSD) v543 
# hosted by the Cambridge Crystallographic Data Centre (CCDC).
#
# This work is licensed under the Creative Commons
# Attribution-NonCommercial-ShareAlike 4.0 International License.
# To view a copy of this license, visit
# http://creativecommons.org/licenses/by-nc-sa/4.0/
# or send a letter to
# Creative Commons, PO Box 1866, Mountain View, CA 94042, USA.
#
# CIF created using the CSD Python API on 29 September 2022
# The structure has been converted into the P1 space group
# The structure has a 3D framework
# The original CSD entry CIBCUO is in the tetragonal crystal system
# The framework has been calculated to contain at least 10.0% void space
# The void calculation uses a probe of radius 1.32A, grid spacing 0.4
# H atom positions have been added when not included in the experimental data
#
###############################################################################

data_CIBCUO
_chemical_formula_moiety         '(C576 H560 N64 Ni64 O256)n'
_symmetry_cell_setting           triclinic
_symmetry_space_group_name_H-M   'P 1'
_symmetry_Int_Tables_number      1
_space_group_name_Hall           'P 1'
loop_
_symmetry_equiv_pos_site_id
_symmetry_equiv_pos_as_xyz
1 x,y,z
_cell_length_a                   23.7839(6)
_cell_length_b                   23.7839(6)
_cell_length_c                   36.666(2)
_cell_angle_alpha                90
_cell_angle_beta                 90
_cell_angle_gamma                90
_cell_volume                     20741
loop_
_atom_site_label
_atom_site_type_symbol
_atom_site_fract_x
_atom_site_fract_y
_atom_site_fract_z
Ni2 Ni 0.21238(2) 0.14670(2) 0.04215(2)
Ni4 Ni 0.25181(2) 0.03461(2) 0.00608(2)
N4 N 0.13524(14) 0.18712(15) 0.05061(10)
O1 O 0.33609(11) 0.21044(11) 0.03161(8)
O2 O 0.25720(11) 0.21245(11) 0.06632(7)
O3 O 0.26481(17) 0.32238(16) 0.01777(11)
O4 O 0.22864(18) 0.38113(16) 0.05806(12)
O5 O 0.31229(11) 0.07179(12) 0.17304(9)
O6 O 0.29303(12) 0.04747(12) 0.11621(9)
O7 O 0.42177(12) 0.01446(11) 0.16239(8)
O8 O 0.48433(15) 0.01464(14) 0.11732(9)
O9 O 0.28332(10) 0.09911(11) 0.03646(8)
H1 H 0.3071(16) 0.0922(19) 0.0532(10)
O11 O 0.18263(11) 0.08657(11) 0.00601(8)
H3 H 0.1534(13) 0.0671(17) 0.0116(13)
O14 O 0.19862(15) 0.10554(18) 0.09175(10)
H7 H 0.2219(13) 0.0802(13) 0.0961(11)
H8 H 0.1669(14) 0.086(3) 0.099(3)
H9 H 0.190(3) 0.005(3) 0.059(3)
C1 C 0.30522(17) 0.22948(15) 0.05651(11)
C2 C 0.33020(18) 0.27661(16) 0.07878(12)
C3 C 0.3105(2) 0.33131(17) 0.07537(12)
C4 C 0.2637(2) 0.3452(2) 0.04773(16)
C5 C 0.3330(3) 0.37311(19) 0.09765(16)
H13 H 0.3183 0.4093 0.0968
C6 C 0.3758(3) 0.3613(2) 0.12053(16)
H14 H 0.3909 0.3900 0.1346
C7 C 0.3981(2) 0.3076(2) 0.12371(13)
H15 H 0.4287 0.3005 0.1389
C8 C 0.37308(19) 0.26414(17) 0.10316(12)
C9 C 0.39222(18) 0.20547(16) 0.10874(11)
C10 C 0.35282(17) 0.16550(17) 0.11926(11)
H16 H 0.3152 0.1759 0.1212
C11 C 0.36813(17) 0.11057(16) 0.12698(10)
C12 C 0.32145(16) 0.07238(17) 0.13996(13)
C13 C 0.42388(17) 0.09435(17) 0.12352(11)
C14 C 0.44444(18) 0.03661(18) 0.13474(13)
C15 C 0.46238(18) 0.13400(18) 0.11190(12)
H17 H 0.4998 0.1235 0.1089
C16 C 0.44711(19) 0.18754(18) 0.10485(12)
H18 H 0.4743 0.2131 0.0972
C27 C 0.12813(17) 0.24213(18) 0.04904(13)
H27 H 0.1599 0.2645 0.0461
C28 C 0.08854(17) 0.15711(18) 0.05647(14)
H28 H 0.0920 0.1182 0.0581
C29 C 0.07655(18) 0.26863(19) 0.05152(14)
H29 H 0.0741 0.3075 0.0494
C30 C 0.03604(18) 0.17973(19) 0.06029(14)
H30 H 0.0054 0.1565 0.0649
C31 C 0.02844(16) 0.23683(19) 0.05726(12)
Ni12 Ni 0.37821(2) 0.04847(2) 0.20753(2)
H69 H 0.190269 0.36474 0.0571055
Ni1 Ni 0.31494(2) 0.14852(2) 0.99496(2)
Ni3 Ni 0.20153(2) 0.12821(2) 0.95753(2)
N2 N 0.12655(13) 0.17204(14) 0.95581(9)
O10 O 0.23510(10) 0.18169(12) 0.99401(8)
H2 H 0.235(2) 0.2154(9) 0.9900(14)
O12 O 0.27645(11) 0.08723(11) 0.96506(8)
H4 H 0.2840(18) 0.0794(18) 0.9439(6)
O13 O 0.33350(13) 0.19698(14) 0.94823(10)
H5 H 0.3037(13) 0.1921(16) 0.9357(11)
H6 H 0.339(2) 0.2334(9) 0.9482(15)
C32 C 0.12658(17) 0.22769(18) 0.95515(12)
H31 H 0.1610 0.2462 0.9539
C33 C 0.07672(17) 0.14673(18) 0.95769(13)
H32 H 0.0758 0.1076 0.9577
C34 C 0.07814(17) 0.25968(18) 0.95615(11)
H33 H 0.0803 0.2987 0.9555
C35 C 0.02677(18) 0.17500(18) 0.95965(13)
C36 C 0.02660(16) 0.23333(18) 0.95809(11)
H38 H 0.0068 0.3447 0.9620
N9 N 0.39577(13) 0.11757(13) 0.99337(10)
O34 O 0.17821(12) 0.06229(11) 0.92304(9)
O36 O 0.23554(11) 0.17177(12) 0.91239(8)
N1 N 0.32559(14) 0.98767(14) 0.00768(11)
N3 N 0.60423(13) 0.88243(13) 0.00663(10)
O15 O 0.22009(14) 0.98762(15) 0.05044(10)
H10 H 0.210(4) 0.9532(13) 0.053(3)
C17 C 0.35391(19) 0.9799(2) 0.03854(14)
H19 H 0.3363 0.9888 0.0605
C19 C 0.40745(19) 0.9595(2) 0.03959(14)
H21 H 0.4261 0.9570 0.0618
C21 C 0.43414(15) 0.94256(16) 0.00815(12)
C22 C 0.49242(16) 0.92122(17) 0.00822(12)
C23 C 0.5244(2) 0.9166(3) 0.03861(15)
H23 H 0.5091 0.9263 0.0611
C25 C 0.5786(2) 0.8981(3) 0.03689(14)
H25 H 0.5989 0.8963 0.0585
Ni9 Ni 0.68506(2) 0.85148(2) 0.00504(2)
N6 N 0.86476(14) 0.31288(15) 0.05061(10)
C42 C 0.87187(17) 0.25787(18) 0.04904(13)
H39 H 0.8401 0.2355 0.0461
C43 C 0.91146(17) 0.34289(18) 0.05647(14)
H40 H 0.9080 0.3818 0.0581
C44 C 0.92345(18) 0.23137(19) 0.05152(14)
H41 H 0.9259 0.1925 0.0494
C45 C 0.96396(18) 0.32027(19) 0.06029(14)
H42 H 0.9946 0.3435 0.0649
C46 C 0.97156(16) 0.26317(19) 0.05726(12)
Ni6 Ni 0.78762(2) 0.35330(2) 0.04215(2)
Ni8 Ni 0.74819(2) 0.46539(2) 0.00608(2)
N7 N 0.67441(14) 0.51233(14) 0.00768(11)
N8 N 0.39577(13) 0.61757(13) 0.00663(10)
O17 O 0.66391(11) 0.28956(11) 0.03161(8)
O18 O 0.74280(11) 0.28755(11) 0.06632(7)
O19 O 0.73519(17) 0.17762(16) 0.01777(11)
O20 O 0.77136(18) 0.11887(16) 0.05806(12)
O21 O 0.68771(11) 0.42821(12) 0.17304(9)
O22 O 0.70697(12) 0.45253(12) 0.11621(9)
O23 O 0.57823(12) 0.48554(11) 0.16239(8)
O24 O 0.51567(15) 0.48536(14) 0.11732(9)
O25 O 0.71668(10) 0.40089(11) 0.03646(8)
H43 H 0.6929(16) 0.4078(19) 0.0532(10)
O27 O 0.81737(11) 0.41343(11) 0.00601(8)
H45 H 0.8466(13) 0.4329(17) 0.0116(13)
O30 O 0.80138(15) 0.39446(18) 0.09175(10)
H49 H 0.7781(13) 0.4198(13) 0.0961(11)
H50 H 0.8331(14) 0.414(3) 0.099(3)
O31 O 0.77991(14) 0.51238(15) 0.05044(10)
H51 H 0.810(3) 0.495(3) 0.059(3)
H52 H 0.790(4) 0.5468(13) 0.053(3)
C47 C 0.69478(17) 0.27052(15) 0.05651(11)
C48 C 0.66980(18) 0.22339(16) 0.07878(12)
C49 C 0.6895(2) 0.16869(17) 0.07537(12)
C50 C 0.7363(2) 0.1548(2) 0.04773(16)
C51 C 0.6670(3) 0.12689(19) 0.09765(16)
H55 H 0.6817 0.0907 0.0968
C52 C 0.6242(3) 0.1387(2) 0.12053(16)
H56 H 0.6091 0.1100 0.1346
C53 C 0.6019(2) 0.1924(2) 0.12371(13)
H57 H 0.5713 0.1995 0.1389
C54 C 0.62692(19) 0.23586(17) 0.10316(12)
C55 C 0.60778(18) 0.29453(16) 0.10874(11)
C56 C 0.64718(17) 0.33450(17) 0.11926(11)
H58 H 0.6848 0.3241 0.1212
C57 C 0.63187(17) 0.38943(16) 0.12698(10)
C58 C 0.67855(16) 0.42762(17) 0.13996(13)
C59 C 0.57612(17) 0.40565(17) 0.12352(11)
C60 C 0.55556(18) 0.46339(18) 0.13474(13)
C61 C 0.53762(18) 0.36600(18) 0.11190(12)
H59 H 0.5002 0.3765 0.1089
C62 C 0.55289(19) 0.31246(18) 0.10485(12)
H60 H 0.5257 0.2869 0.0972
C63 C 0.64609(19) 0.5201(2) 0.03854(14)
H61 H 0.6637 0.5112 0.0605
C65 C 0.59255(19) 0.5405(2) 0.03959(14)
H63 H 0.5739 0.5430 0.0618
C67 C 0.56586(15) 0.55744(16) 0.00815(12)
C68 C 0.50758(16) 0.57878(17) 0.00822(12)
C69 C 0.4756(2) 0.5834(3) 0.03861(15)
H65 H 0.4909 0.5737 0.0611
C71 C 0.4214(2) 0.6019(3) 0.03689(14)
H67 H 0.4011 0.6037 0.0585
Ni10 Ni 0.31494(2) 0.64852(2) 0.00504(2)
Ni11 Ni 0.62179(2) 0.45153(2) 0.20753(2)
H70 H 0.809731 0.13526 0.0571055
H34 H 0.9932 0.1553 0.9620
N5 N 0.87345(13) 0.32796(14) 0.95581(9)
C37 C 0.87342(17) 0.27231(18) 0.95515(12)
H35 H 0.8390 0.2538 0.9539
C38 C 0.92328(17) 0.35327(18) 0.95769(13)
H36 H 0.9242 0.3924 0.9577
C39 C 0.92186(17) 0.24032(18) 0.95615(11)
H37 H 0.9197 0.2013 0.9555
C40 C 0.97323(18) 0.32500(18) 0.95965(13)
C41 C 0.97340(16) 0.26667(18) 0.95809(11)
Ni5 Ni 0.68506(2) 0.35148(2) 0.99496(2)
Ni7 Ni 0.79847(2) 0.37179(2) 0.95753(2)
O26 O 0.76490(10) 0.31831(12) 0.99401(8)
H44 H 0.765(2) 0.2846(9) 0.9900(14)
O28 O 0.72355(11) 0.41277(11) 0.96506(8)
H46 H 0.7160(18) 0.4206(18) 0.9439(6)
O29 O 0.66650(13) 0.30302(14) 0.94823(10)
H47 H 0.6963(13) 0.3079(16) 0.9357(11)
H48 H 0.661(2) 0.2666(9) 0.9482(15)
O32 O 0.79052(14) 0.51835(13) 0.97023(10)
H53 H 0.8033(19) 0.5049(14) 0.9514(8)
H54 H 0.7891(19) 0.5548(8) 0.9664(11)
C64 C 0.6504(2) 0.5296(2) 0.97855(14)
H62 H 0.6707 0.5271 0.9569
C66 C 0.59574(19) 0.5520(2) 0.97663(15)
H64 H 0.5804 0.5628 0.9544
C70 C 0.4803(2) 0.5924(3) 0.97679(15)
H66 H 0.4991 0.5889 0.9547
C72 C 0.4254(2) 0.6113(3) 0.97696(14)
H68 H 0.4087 0.6200 0.9547
N10 N 0.60423(13) 0.38243(13) 0.99337(10)
O33 O 0.82179(12) 0.43771(11) 0.92304(9)
O35 O 0.76446(11) 0.32823(12) 0.91239(8)
N8_2 N 0.10423(13) 0.38243(13) 0.50663(10)
C69_2 C 0.0244(2) 0.4166(3) 0.53861(15)
H65_2 H 0.0091 0.4263 0.5611
C70_2 C 0.0197(2) 0.4076(3) 0.47679(15)
H66_2 H 0.0009 0.4111 0.4547
C71_2 C 0.0786(2) 0.3981(3) 0.53689(14)
H67_2 H 0.0989 0.3963 0.5585
C72_2 C 0.0746(2) 0.3887(3) 0.47696(14)
H68_2 H 0.0913 0.3800 0.4547
Ni10_2 Ni 0.18506(2) 0.35148(2) 0.50504(2)
Ni1_2 Ni 0.18506(2) 0.85148(2) 0.49496(2)
Ni2_2 Ni 0.28762(2) 0.85330(2) 0.54215(2)
Ni3_2 Ni 0.29847(2) 0.87179(2) 0.45753(2)
Ni4_2 Ni 0.24819(2) 0.96539(2) 0.50608(2)
N2_2 N 0.37345(13) 0.82796(14) 0.45581(9)
N4_2 N 0.36476(14) 0.81288(15) 0.55061(10)
O1_2 O 0.16391(11) 0.78956(11) 0.53161(8)
O2_2 O 0.24280(11) 0.78755(11) 0.56632(7)
O3_2 O 0.23519(17) 0.67762(16) 0.51777(11)
O4_2 O 0.27136(18) 0.61887(16) 0.55806(12)
O5_2 O 0.18771(11) 0.92821(12) 0.67304(9)
O6_2 O 0.20697(12) 0.95253(12) 0.61621(9)
O7_2 O 0.07823(12) 0.98554(11) 0.66239(8)
O8_2 O 0.01567(15) 0.98536(14) 0.61732(9)
O9_2 O 0.21668(10) 0.90089(11) 0.53646(8)
H1_2 H 0.1929(16) 0.9078(19) 0.5532(10)
O10_2 O 0.26490(10) 0.81831(12) 0.49401(8)
H2_2 H 0.265(2) 0.7846(9) 0.4900(14)
O11_2 O 0.31737(11) 0.91343(11) 0.50601(8)
H3_2 H 0.3466(13) 0.9329(17) 0.5116(13)
O12_2 O 0.22355(11) 0.91277(11) 0.46506(8)
H4_2 H 0.2160(18) 0.9206(18) 0.4439(6)
O13_2 O 0.16650(13) 0.80302(14) 0.44823(10)
H5_2 H 0.1963(13) 0.8079(16) 0.4357(11)
H6_2 H 0.161(2) 0.7666(9) 0.4482(15)
O14_2 O 0.30138(15) 0.89446(18) 0.59175(10)
H7_2 H 0.2781(13) 0.9198(13) 0.5961(11)
H8_2 H 0.3331(14) 0.914(3) 0.599(3)
H9_2 H 0.310(3) 0.995(3) 0.559(3)
C1_2 C 0.19478(17) 0.77052(15) 0.55651(11)
C2_2 C 0.16980(18) 0.72339(16) 0.57878(12)
C3_2 C 0.1895(2) 0.66869(17) 0.57537(12)
C4_2 C 0.2363(2) 0.6548(2) 0.54773(16)
C5_2 C 0.1670(3) 0.62689(19) 0.59765(16)
H13_2 H 0.1817 0.5907 0.5968
C6_2 C 0.1242(3) 0.6387(2) 0.62053(16)
H14_2 H 0.1091 0.6100 0.6346
C7_2 C 0.1019(2) 0.6924(2) 0.62371(13)
H15_2 H 0.0713 0.6995 0.6389
C8_2 C 0.12692(19) 0.73586(17) 0.60316(12)
C9_2 C 0.10778(18) 0.79453(16) 0.60874(11)
C10_2 C 0.14718(17) 0.83450(17) 0.61926(11)
H16_2 H 0.1848 0.8241 0.6212
C11_2 C 0.13187(17) 0.88943(16) 0.62698(10)
C12_2 C 0.17855(16) 0.92762(17) 0.63996(13)
C13_2 C 0.07612(17) 0.90565(17) 0.62352(11)
C14_2 C 0.05556(18) 0.96339(18) 0.63474(13)
C15_2 C 0.03762(18) 0.86600(18) 0.61190(12)
H17_2 H 0.0002 0.8765 0.6089
C16_2 C 0.05289(19) 0.81246(18) 0.60485(12)
H18_2 H 0.0257 0.7869 0.5972
C27_2 C 0.37187(17) 0.75787(18) 0.54904(13)
H27_2 H 0.3401 0.7355 0.5461
C28_2 C 0.41146(17) 0.84289(18) 0.55647(14)
H28_2 H 0.4080 0.8818 0.5581
C29_2 C 0.42345(18) 0.73137(19) 0.55152(14)
H29_2 H 0.4259 0.6925 0.5494
C30_2 C 0.46396(18) 0.82027(19) 0.56029(14)
H30_2 H 0.4946 0.8435 0.5649
C31_2 C 0.47156(16) 0.76317(19) 0.55726(12)
C32_2 C 0.37342(17) 0.77231(18) 0.45515(12)
H31_2 H 0.3390 0.7538 0.4539
C33_2 C 0.42328(17) 0.85327(18) 0.45769(13)
H32_2 H 0.4242 0.8924 0.4577
C34_2 C 0.42186(17) 0.74032(18) 0.45615(11)
H33_2 H 0.4197 0.7013 0.4555
C35_2 C 0.47323(18) 0.82500(18) 0.45965(13)
H34_2 H 0.5068 0.8447 0.4620
C36_2 C 0.47340(16) 0.76667(18) 0.45809(11)
N5_2 N 0.62655(13) 0.67204(14) 0.45581(9)
C37_2 C 0.62658(17) 0.72769(18) 0.45515(12)
H35_2 H 0.6610 0.7462 0.4539
C38_2 C 0.57672(17) 0.64673(18) 0.45769(13)
H36_2 H 0.5758 0.6076 0.4577
C39_2 C 0.57814(17) 0.75968(18) 0.45615(11)
H37_2 H 0.5803 0.7987 0.4555
C40_2 C 0.52677(18) 0.67500(18) 0.45965(13)
H38_2 H 0.4932 0.6553 0.4620
C41_2 C 0.52660(16) 0.73333(18) 0.45809(11)
N6_2 N 0.63524(14) 0.68712(15) 0.55061(10)
C42_2 C 0.62813(17) 0.74213(18) 0.54904(13)
H39_2 H 0.6599 0.7645 0.5461
C43_2 C 0.58854(17) 0.65711(18) 0.55647(14)
H40_2 H 0.5920 0.6182 0.5581
C44_2 C 0.57655(18) 0.76863(19) 0.55152(14)
H41_2 H 0.5741 0.8075 0.5494
C45_2 C 0.53604(18) 0.67973(19) 0.56029(14)
H42_2 H 0.5054 0.6565 0.5649
C46_2 C 0.52844(16) 0.73683(19) 0.55726(12)
Ni5_2 Ni 0.81494(2) 0.64852(2) 0.49496(2)
Ni6_2 Ni 0.71238(2) 0.64670(2) 0.54215(2)
Ni7_2 Ni 0.70153(2) 0.62821(2) 0.45753(2)
Ni8_2 Ni 0.75181(2) 0.53461(2) 0.50608(2)
N7_2 N 0.82559(14) 0.48767(14) 0.50768(11)
O17_2 O 0.83609(11) 0.71044(11) 0.53161(8)
O18_2 O 0.75720(11) 0.71245(11) 0.56632(7)
O19_2 O 0.76481(17) 0.82238(16) 0.51777(11)
O20_2 O 0.72864(18) 0.88113(16) 0.55806(12)
O21_2 O 0.81229(11) 0.57179(12) 0.67304(9)
O22_2 O 0.79303(12) 0.54747(12) 0.61621(9)
O23_2 O 0.92177(12) 0.51446(11) 0.66239(8)
O24_2 O 0.98433(15) 0.51464(14) 0.61732(9)
O25_2 O 0.78332(10) 0.59911(11) 0.53646(8)
H43_2 H 0.8071(16) 0.5922(19) 0.5532(10)
O26_2 O 0.73510(10) 0.68169(12) 0.49401(8)
H44_2 H 0.735(2) 0.7154(9) 0.4900(14)
O27_2 O 0.68263(11) 0.58657(11) 0.50601(8)
H45_2 H 0.6534(13) 0.5671(17) 0.5116(13)
O28_2 O 0.77645(11) 0.58723(11) 0.46506(8)
H46_2 H 0.7840(18) 0.5794(18) 0.4439(6)
O29_2 O 0.83350(13) 0.69698(14) 0.44823(10)
H47_2 H 0.8037(13) 0.6921(16) 0.4357(11)
H48_2 H 0.839(2) 0.7334(9) 0.4482(15)
O30_2 O 0.69862(15) 0.60554(18) 0.59175(10)
H49_2 H 0.7219(13) 0.5802(13) 0.5961(11)
H50_2 H 0.6669(14) 0.586(3) 0.599(3)
O31_2 O 0.72009(14) 0.48762(15) 0.55044(10)
H51_2 H 0.690(3) 0.505(3) 0.559(3)
H52_2 H 0.710(4) 0.4532(13) 0.553(3)
O32_2 O 0.70948(14) 0.48165(13) 0.47023(10)
H53_2 H 0.6967(19) 0.4951(14) 0.4514(8)
H54_2 H 0.7109(19) 0.4452(8) 0.4664(11)
C47_2 C 0.80522(17) 0.72948(15) 0.55651(11)
C48_2 C 0.83020(18) 0.77661(16) 0.57878(12)
C49_2 C 0.8105(2) 0.83131(17) 0.57537(12)
C50_2 C 0.7637(2) 0.8452(2) 0.54773(16)
C51_2 C 0.8330(3) 0.87311(19) 0.59765(16)
H55_2 H 0.8183 0.9093 0.5968
C52_2 C 0.8758(3) 0.8613(2) 0.62053(16)
H56_2 H 0.8909 0.8900 0.6346
C53_2 C 0.8981(2) 0.8076(2) 0.62371(13)
H57_2 H 0.9287 0.8005 0.6389
C54_2 C 0.87308(19) 0.76414(17) 0.60316(12)
C55_2 C 0.89222(18) 0.70547(16) 0.60874(11)
C56_2 C 0.85282(17) 0.66550(17) 0.61926(11)
H58_2 H 0.8152 0.6759 0.6212
C57_2 C 0.86813(17) 0.61057(16) 0.62698(10)
C58_2 C 0.82145(16) 0.57238(17) 0.63996(13)
C59_2 C 0.92388(17) 0.59435(17) 0.62352(11)
C60_2 C 0.94444(18) 0.53661(18) 0.63474(13)
C61_2 C 0.96238(18) 0.63400(18) 0.61190(12)
H59_2 H 0.9998 0.6235 0.6089
C62_2 C 0.94711(19) 0.68754(18) 0.60485(12)
H60_2 H 0.9743 0.7131 0.5972
C63_2 C 0.85391(19) 0.4799(2) 0.53854(14)
H61_2 H 0.8363 0.4888 0.5605
C64_2 C 0.8496(2) 0.4704(2) 0.47855(14)
H62_2 H 0.8293 0.4729 0.4569
C65_2 C 0.90745(19) 0.4595(2) 0.53959(14)
H63_2 H 0.9261 0.4570 0.5618
C66_2 C 0.90426(19) 0.4480(2) 0.47663(15)
H64_2 H 0.9196 0.4372 0.4544
C67_2 C 0.93414(15) 0.44256(16) 0.50815(12)
C68_2 C 0.99242(16) 0.42122(17) 0.50822(12)
Ni11_2 Ni 0.87821(2) 0.54847(2) 0.70753(2)
Ni12_2 Ni 0.12179(2) 0.95153(2) 0.70753(2)
N9_2 N 0.10423(13) 0.88243(13) 0.49337(10)
N10_2 N 0.89577(13) 0.61757(13) 0.49337(10)
O33_2 O 0.67821(12) 0.56229(11) 0.42304(9)
O34_2 O 0.32179(12) 0.93771(11) 0.42304(9)
O35_2 O 0.73554(11) 0.67177(12) 0.41239(8)
O36_2 O 0.26446(11) 0.82823(12) 0.41239(8)
H69_2 H 0.309731 0.63526 0.557106
H70_2 H 0.690269 0.86474 0.557106
N3_2 N 0.89577(13) 0.11757(13) 0.50663(10)
C23_2 C 0.9756(2) 0.0834(3) 0.53861(15)
H23_2 H 0.9909 0.0737 0.5611
C24 C 0.9803(2) 0.0924(3) 0.47679(15)
H24 H 0.9991 0.0889 0.4547
C25_2 C 0.9214(2) 0.1019(3) 0.53689(14)
H25_2 H 0.9011 0.1037 0.5585
C26 C 0.9254(2) 0.1113(3) 0.47696(14)
H26 H 0.9087 0.1200 0.4547
Ni9_2 Ni 0.81494(2) 0.14852(2) 0.50504(2)
Ni1_3 Ni 0.60148(2) 0.56494(2) 0.24496(2)
Ni2_3 Ni 0.60330(2) 0.46238(2) 0.29215(2)
Ni4_3 Ni 0.71539(2) 0.50181(2) 0.25608(2)
N1_2 N 0.76233(14) 0.57559(14) 0.25768(11)
N2_3 N 0.57796(14) 0.37655(13) 0.20581(9)
N3_3 N 0.86757(13) 0.85423(13) 0.25663(10)
N4_3 N 0.56288(15) 0.38524(14) 0.30061(10)
O1_3 O 0.53956(11) 0.58609(11) 0.28161(8)
O2_3 O 0.53755(11) 0.50720(11) 0.31632(7)
O3_3 O 0.42762(16) 0.51481(17) 0.26777(11)
O4_3 O 0.36887(16) 0.47864(18) 0.30806(12)
O6_3 O 0.70253(12) 0.54303(12) 0.36621(9)
O8_3 O 0.73536(14) 0.73433(15) 0.36732(9)
O9_3 O 0.65089(11) 0.53332(10) 0.28646(8)
H1_3 H 0.6578(19) 0.5571(16) 0.3032(10)
O10_3 O 0.56831(12) 0.48510(10) 0.24401(8)
H2_3 H 0.5346(9) 0.485(2) 0.2400(14)
O11_3 O 0.66343(11) 0.43263(11) 0.25601(8)
H3_3 H 0.6829(17) 0.4034(13) 0.2616(13)
O12_3 O 0.66277(11) 0.52645(11) 0.21506(8)
H4_3 H 0.6706(18) 0.5340(18) 0.1939(6)
O13_3 O 0.55302(14) 0.58350(13) 0.19823(10)
H5_3 H 0.5579(16) 0.5537(13) 0.1857(11)
H6_3 H 0.5166(9) 0.589(2) 0.1982(15)
O14_3 O 0.64446(18) 0.44862(15) 0.34175(10)
H7_3 H 0.6698(13) 0.4719(13) 0.3461(11)
H8_3 H 0.664(3) 0.4169(14) 0.349(3)
O15_2 O 0.76238(15) 0.47009(14) 0.30044(10)
H9_3 H 0.745(3) 0.440(3) 0.309(3)
H10_2 H 0.7968(13) 0.460(4) 0.303(3)
O16 O 0.76835(13) 0.45948(14) 0.22023(10)
H11 H 0.7549(14) 0.4467(19) 0.2014(8)
H12 H 0.8048(8) 0.4609(19) 0.2164(11)
C1_3 C 0.52052(15) 0.55522(17) 0.30651(11)
C2_3 C 0.47339(16) 0.58020(18) 0.32878(12)
C3_3 C 0.41869(17) 0.5605(2) 0.32537(12)
C4_3 C 0.4048(2) 0.5137(2) 0.29773(16)
C5_3 C 0.37689(19) 0.5830(3) 0.34765(16)
H13_3 H 0.3407 0.5683 0.3468
C6_3 C 0.3887(2) 0.6258(3) 0.37053(16)
H14_3 H 0.3600 0.6409 0.3846
C7_3 C 0.4424(2) 0.6481(2) 0.37371(13)
H15_3 H 0.4495 0.6787 0.3889
C8_3 C 0.48586(17) 0.62308(19) 0.35316(12)
C9_3 C 0.54453(16) 0.64222(18) 0.35874(11)
C10_3 C 0.58450(17) 0.60282(17) 0.36926(11)
H16_3 H 0.5741 0.5652 0.3712
C11_3 C 0.63943(16) 0.61813(17) 0.37698(10)
C12_3 C 0.67762(17) 0.57145(16) 0.38996(13)
C13_3 C 0.65565(17) 0.67388(17) 0.37352(11)
C14_3 C 0.71339(18) 0.69444(18) 0.38474(13)
C15_3 C 0.61600(18) 0.71238(18) 0.36190(12)
H17_3 H 0.6265 0.7498 0.3589
C16_3 C 0.56246(18) 0.69711(19) 0.35485(12)
H18_3 H 0.5369 0.7243 0.3472
C17_2 C 0.7701(2) 0.60391(19) 0.28854(14)
H19_2 H 0.7612 0.5863 0.3105
C18 C 0.7796(2) 0.5996(2) 0.22855(14)
H20 H 0.7771 0.5793 0.2069
C19_2 C 0.7905(2) 0.65745(19) 0.28959(14)
H21_2 H 0.7930 0.6761 0.3118
C20 C 0.8020(2) 0.65426(19) 0.22663(15)
H22 H 0.8128 0.6696 0.2044
C21_2 C 0.80744(16) 0.68414(15) 0.25815(12)
C22_2 C 0.82878(17) 0.74242(16) 0.25822(12)
C23_3 C 0.8334(3) 0.7744(2) 0.28861(15)
H23_3 H 0.8237 0.7591 0.3111
C24_2 C 0.8424(3) 0.7697(2) 0.22679(15)
H24_2 H 0.8389 0.7509 0.2047
C25_3 C 0.8519(3) 0.8286(2) 0.28689(14)
H25_3 H 0.8537 0.8489 0.3085
C26_2 C 0.8613(3) 0.8246(2) 0.22696(14)
H26_2 H 0.8700 0.8413 0.2047
C27_3 C 0.50787(18) 0.37813(17) 0.29904(13)
H27_3 H 0.4855 0.4099 0.2961
C28_3 C 0.59289(18) 0.33854(17) 0.30647(14)
H28_3 H 0.6318 0.3420 0.3081
C29_3 C 0.48137(19) 0.32655(18) 0.30152(14)
H29_3 H 0.4425 0.3241 0.2994
C30_3 C 0.57027(19) 0.28604(18) 0.31029(14)
H30_3 H 0.5935 0.2554 0.3149
C31_3 C 0.51317(19) 0.27844(16) 0.30726(12)
C32_3 C 0.52231(18) 0.37658(17) 0.20515(12)
H31_3 H 0.5038 0.4110 0.2039
C33_3 C 0.60327(18) 0.32672(17) 0.20769(13)
H32_3 H 0.6424 0.3258 0.2077
C34_3 C 0.49032(18) 0.32814(17) 0.20615(11)
H33_3 H 0.4513 0.3303 0.2055
C35_3 C 0.57500(18) 0.27677(18) 0.20965(13)
H34_3 H 0.5947 0.2432 0.2120
C36_3 C 0.51667(18) 0.27660(16) 0.20809(11)
N5_3 N 0.42204(14) 0.12345(13) 0.20581(9)
C37_3 C 0.47769(18) 0.12342(17) 0.20515(12)
H35_3 H 0.4962 0.0890 0.2039
C38_3 C 0.39673(18) 0.17328(17) 0.20769(13)
H36_3 H 0.3576 0.1742 0.2077
C39_3 C 0.50968(18) 0.17186(17) 0.20615(11)
H37_3 H 0.5487 0.1697 0.2055
C40_3 C 0.42500(18) 0.22323(18) 0.20965(13)
H38_3 H 0.4053 0.2568 0.2120
C41_3 C 0.48333(18) 0.22340(16) 0.20809(11)
N6_3 N 0.43712(15) 0.11476(14) 0.30061(10)
C42_3 C 0.49213(18) 0.12187(17) 0.29904(13)
H39_3 H 0.5145 0.0901 0.2961
C43_3 C 0.40711(18) 0.16146(17) 0.30647(14)
H40_3 H 0.3682 0.1580 0.3081
C44_3 C 0.51863(19) 0.17345(18) 0.30152(14)
H41_3 H 0.5575 0.1759 0.2994
C45_3 C 0.42973(19) 0.21396(18) 0.31029(14)
H42_3 H 0.4065 0.2446 0.3149
C46_3 C 0.48683(19) 0.22156(16) 0.30726(12)
Ni6_3 Ni 0.39670(2) 0.03762(2) 0.29215(2)
O20_3 O 0.63113(16) 0.02136(18) 0.30806(12)
O26_3 O 0.43169(12) 0.01490(10) 0.24401(8)
H44_3 H 0.4654(9) 0.015(2) 0.2400(14)
O27_3 O 0.33657(11) 0.06737(11) 0.25601(8)
H45_3 H 0.3171(17) 0.0966(13) 0.2616(13)
O30_3 O 0.35554(18) 0.05138(15) 0.34175(10)
H49_3 H 0.3302(13) 0.0281(13) 0.3461(11)
H50_3 H 0.336(3) 0.0831(14) 0.349(3)
O31_3 O 0.23762(15) 0.02991(14) 0.30044(10)
H51_3 H 0.255(3) 0.060(3) 0.309(3)
H52_3 H 0.2032(13) 0.040(4) 0.303(3)
O32_3 O 0.23165(13) 0.04052(14) 0.22023(10)
H53_3 H 0.2451(14) 0.0533(19) 0.2014(8)
H54_3 H 0.1952(8) 0.0391(19) 0.2164(11)
Ni9_3 Ni 0.89852(2) 0.93506(2) 0.25504(2)
N9_3 N 0.63243(13) 0.64577(13) 0.24337(10)
H69_3 H 0.38526 0.440269 0.307106
H70_3 H 0.61474 0.0597311 0.307106
Ni5_3 Ni 0.39852(2) 0.93506(2) 0.24496(2)
Ni8_3 Ni 0.28461(2) 0.99819(2) 0.25608(2)
N7_3 N 0.23767(14) 0.92441(14) 0.25768(11)
N8_3 N 0.13243(13) 0.64577(13) 0.25663(10)
O17_3 O 0.46044(11) 0.91391(11) 0.28161(8)
O18_3 O 0.46245(11) 0.99280(11) 0.31632(7)
O19_3 O 0.57238(16) 0.98519(17) 0.26777(11)
O22_3 O 0.29747(12) 0.95697(12) 0.36621(9)
O24_3 O 0.26464(14) 0.76567(15) 0.36732(9)
O25_3 O 0.34911(11) 0.96668(10) 0.28646(8)
H43_3 H 0.3422(19) 0.9429(16) 0.3032(10)
O28_3 O 0.33723(11) 0.97355(11) 0.21506(8)
H46_3 H 0.3294(18) 0.9660(18) 0.1939(6)
O29_3 O 0.44698(14) 0.91650(13) 0.19823(10)
H47_3 H 0.4421(16) 0.9463(13) 0.1857(11)
H48_3 H 0.4834(9) 0.911(2) 0.1982(15)
C47_3 C 0.47948(15) 0.94478(17) 0.30651(11)
C48_3 C 0.52661(16) 0.91980(18) 0.32878(12)
C49_3 C 0.58131(17) 0.9395(2) 0.32537(12)
C50_3 C 0.5952(2) 0.9863(2) 0.29773(16)
C51_3 C 0.62311(19) 0.9170(3) 0.34765(16)
H55_3 H 0.6593 0.9317 0.3468
C52_3 C 0.6113(2) 0.8742(3) 0.37053(16)
H56_3 H 0.6400 0.8591 0.3846
C53_3 C 0.5576(2) 0.8519(2) 0.37371(13)
H57_3 H 0.5505 0.8213 0.3889
C54_3 C 0.51414(17) 0.87692(19) 0.35316(12)
C55_3 C 0.45547(16) 0.85778(18) 0.35874(11)
C56_3 C 0.41550(17) 0.89718(17) 0.36926(11)
H58_3 H 0.4259 0.9348 0.3712
C57_3 C 0.36057(16) 0.88187(17) 0.37698(10)
C58_3 C 0.32238(17) 0.92855(16) 0.38996(13)
C59_3 C 0.34435(17) 0.82612(17) 0.37352(11)
C60_3 C 0.28661(18) 0.80556(18) 0.38474(13)
C61_3 C 0.38400(18) 0.78762(18) 0.36190(12)
H59_3 H 0.3735 0.7502 0.3589
C62_3 C 0.43754(18) 0.80289(19) 0.35485(12)
H60_3 H 0.4631 0.7757 0.3472
C63_3 C 0.2299(2) 0.89609(19) 0.28854(14)
H61_3 H 0.2388 0.9137 0.3105
C64_3 C 0.2204(2) 0.9004(2) 0.22855(14)
H62_3 H 0.2229 0.9207 0.2069
C65_3 C 0.2095(2) 0.84255(19) 0.28959(14)
H63_3 H 0.2070 0.8239 0.3118
C66_3 C 0.1980(2) 0.84574(19) 0.22663(15)
H64_3 H 0.1872 0.8304 0.2044
C67_3 C 0.19256(16) 0.81586(15) 0.25815(12)
C68_3 C 0.17122(17) 0.75758(16) 0.25822(12)
C69_3 C 0.1666(3) 0.7256(2) 0.28861(15)
H65_3 H 0.1763 0.7409 0.3111
C70_3 C 0.1576(3) 0.7303(2) 0.22679(15)
H66_3 H 0.1611 0.7491 0.2047
C71_3 C 0.1481(3) 0.6714(2) 0.28689(14)
H67_3 H 0.1463 0.6511 0.3085
C72_3 C 0.1387(3) 0.6754(2) 0.22696(14)
H68_3 H 0.1300 0.6587 0.2047
Ni10_3 Ni 0.10148(2) 0.56494(2) 0.25504(2)
N10_3 N 0.36757(13) 0.85423(13) 0.24337(10)
Ni5_4 Ni 0.10148(2) 0.06494(2) 0.74496(2)
Ni8_4 Ni 0.21539(2) 0.00181(2) 0.75608(2)
N7_4 N 0.26233(14) 0.07559(14) 0.75768(11)
N8_4 N 0.36757(13) 0.35423(13) 0.75663(10)
O17_4 O 0.03956(11) 0.08609(11) 0.78161(8)
O18_4 O 0.03755(11) 0.00720(11) 0.81632(7)
O22_4 O 0.20253(12) 0.04303(12) 0.86621(9)
O24_4 O 0.23536(14) 0.23433(15) 0.86732(9)
O25_4 O 0.15089(11) 0.03332(10) 0.78646(8)
H43_4 H 0.1578(19) 0.0571(16) 0.8032(10)
O28_4 O 0.16277(11) 0.02645(11) 0.71506(8)
H46_4 H 0.1706(18) 0.0340(18) 0.6939(6)
O29_4 O 0.05302(14) 0.08350(13) 0.69823(10)
H47_4 H 0.0579(16) 0.0537(13) 0.6857(11)
H48_4 H 0.0166(9) 0.089(2) 0.6982(15)
C47_4 C 0.02052(15) 0.05522(17) 0.80651(11)
C55_4 C 0.04453(16) 0.14222(18) 0.85874(11)
C56_4 C 0.08450(17) 0.10282(17) 0.86926(11)
H58_4 H 0.0741 0.0652 0.8712
C57_4 C 0.13943(16) 0.11813(17) 0.87698(10)
C58_4 C 0.17762(17) 0.07145(16) 0.88996(13)
C59_4 C 0.15565(17) 0.17388(17) 0.87352(11)
C60_4 C 0.21339(18) 0.19444(18) 0.88474(13)
C61_4 C 0.11600(18) 0.21238(18) 0.86190(12)
H59_4 H 0.1265 0.2498 0.8589
C62_4 C 0.06246(18) 0.19711(19) 0.85485(12)
H60_4 H 0.0369 0.2243 0.8472
C63_4 C 0.2701(2) 0.10391(19) 0.78854(14)
H61_4 H 0.2612 0.0863 0.8105
C64_4 C 0.2796(2) 0.0996(2) 0.72855(14)
H62_4 H 0.2771 0.0793 0.7069
C65_4 C 0.2905(2) 0.15745(19) 0.78959(14)
H63_4 H 0.2930 0.1761 0.8118
C66_4 C 0.3020(2) 0.15426(19) 0.72663(15)
H64_4 H 0.3128 0.1696 0.7044
C67_4 C 0.30744(16) 0.18414(15) 0.75815(12)
C68_4 C 0.32878(17) 0.24242(16) 0.75822(12)
C69_4 C 0.3334(3) 0.2744(2) 0.78861(15)
H65_4 H 0.3237 0.2591 0.8111
C70_4 C 0.3424(3) 0.2697(2) 0.72679(15)
H66_4 H 0.3389 0.2509 0.7047
C71_4 C 0.3519(3) 0.3286(2) 0.78689(14)
H67_4 H 0.3537 0.3489 0.8085
C72_4 C 0.3613(3) 0.3246(2) 0.72696(14)
H68_4 H 0.3700 0.3413 0.7047
Ni10_4 Ni 0.39852(2) 0.43506(2) 0.75504(2)
N10_4 N 0.13243(13) 0.14577(13) 0.74337(10)
O3_4 O 0.07238(16) 0.48519(17) 0.76777(11)
O4_4 O 0.13113(16) 0.52136(18) 0.80806(12)
C2_4 C 0.02661(16) 0.41980(18) 0.82878(12)
C3_4 C 0.08131(17) 0.4395(2) 0.82537(12)
C4_4 C 0.0952(2) 0.4863(2) 0.79773(16)
C5_4 C 0.12311(19) 0.4170(3) 0.84765(16)
H13_4 H 0.1593 0.4317 0.8468
C6_4 C 0.1113(2) 0.3742(3) 0.87053(16)
H14_4 H 0.1400 0.3591 0.8846
C7_4 C 0.0576(2) 0.3519(2) 0.87371(13)
H15_4 H 0.0505 0.3213 0.8889
C8_4 C 0.01414(17) 0.37692(19) 0.85316(12)
H27_4 H 0.0145 0.5901 0.7961
C29_4 C 0.01863(19) 0.67345(18) 0.80152(14)
H29_4 H 0.0575 0.6759 0.7994
C34_4 C 0.00968(18) 0.67186(17) 0.70615(11)
H33_4 H 0.0487 0.6697 0.7055
N5_4 N 0.07796(14) 0.87655(13) 0.70581(9)
C37_4 C 0.02231(18) 0.87658(17) 0.70515(12)
H35_4 H 0.0038 0.9110 0.7039
C38_4 C 0.10327(18) 0.82672(17) 0.70769(13)
H36_4 H 0.1424 0.8258 0.7077
C40_4 C 0.07500(18) 0.77677(18) 0.70965(13)
H38_4 H 0.0947 0.7432 0.7120
C41_4 C 0.01667(18) 0.77660(16) 0.70809(11)
N6_4 N 0.06288(15) 0.88524(14) 0.80061(10)
C42_4 C 0.00787(18) 0.87813(17) 0.79904(13)
C43_4 C 0.09289(18) 0.83854(17) 0.80647(14)
H40_4 H 0.1318 0.8420 0.8081
C45_4 C 0.07027(19) 0.78604(18) 0.81029(14)
H42_4 H 0.0935 0.7554 0.8149
C46_4 C 0.01317(19) 0.77844(16) 0.80726(12)
Ni6_4 Ni 0.10330(2) 0.96238(2) 0.79215(2)
O26_4 O 0.06831(12) 0.98510(10) 0.74401(8)
H44_4 H 0.0346(9) 0.985(2) 0.7400(14)
O27_4 O 0.16343(11) 0.93263(11) 0.75601(8)
H45_4 H 0.1829(17) 0.9034(13) 0.7616(13)
O30_4 O 0.14446(18) 0.94862(15) 0.84175(10)
H49_4 H 0.1698(13) 0.9719(13) 0.8461(11)
H50_4 H 0.164(3) 0.9169(14) 0.849(3)
O31_4 O 0.26238(15) 0.97009(14) 0.80044(10)
H51_4 H 0.245(3) 0.940(3) 0.809(3)
H52_4 H 0.2968(13) 0.960(4) 0.803(3)
O32_4 O 0.26835(13) 0.95948(14) 0.72023(10)
H53_4 H 0.2549(14) 0.9467(19) 0.7014(8)
H54_4 H 0.3048(8) 0.9609(19) 0.7164(11)
H69_4 H 0.11474 0.559731 0.807106
Ni1_4 Ni 0.89852(2) 0.43506(2) 0.74496(2)
Ni2_4 Ni 0.89670(2) 0.53762(2) 0.79215(2)
Ni4_4 Ni 0.78461(2) 0.49819(2) 0.75608(2)
N1_3 N 0.73767(14) 0.42441(14) 0.75768(11)
N2_4 N 0.92204(14) 0.62345(13) 0.70581(9)
N3_4 N 0.63243(13) 0.14577(13) 0.75663(10)
N4_4 N 0.93712(15) 0.61476(14) 0.80061(10)
O1_4 O 0.96044(11) 0.41391(11) 0.78161(8)
O2_4 O 0.96245(11) 0.49280(11) 0.81632(7)
O6_4 O 0.79747(12) 0.45697(12) 0.86621(9)
O8_4 O 0.76464(14) 0.26567(15) 0.86732(9)
O9_4 O 0.84911(11) 0.46668(10) 0.78646(8)
H1_4 H 0.8422(19) 0.4429(16) 0.8032(10)
O10_4 O 0.93169(12) 0.51490(10) 0.74401(8)
H2_4 H 0.9654(9) 0.515(2) 0.7400(14)
O11_4 O 0.83657(11) 0.56737(11) 0.75601(8)
H3_4 H 0.8171(17) 0.5966(13) 0.7616(13)
O12_4 O 0.83723(11) 0.47355(11) 0.71506(8)
H4_4 H 0.8294(18) 0.4660(18) 0.6939(6)
O13_4 O 0.94698(14) 0.41650(13) 0.69823(10)
H5_4 H 0.9421(16) 0.4463(13) 0.6857(11)
H6_4 H 0.9834(9) 0.411(2) 0.6982(15)
O14_4 O 0.85554(18) 0.55138(15) 0.84175(10)
H7_4 H 0.8302(13) 0.5281(13) 0.8461(11)
H8_4 H 0.836(3) 0.5831(14) 0.849(3)
O15_3 O 0.73762(15) 0.52991(14) 0.80044(10)
H9_4 H 0.755(3) 0.560(3) 0.809(3)
H10_3 H 0.7032(13) 0.540(4) 0.803(3)
O16_2 O 0.73165(13) 0.54052(14) 0.72023(10)
H11_2 H 0.7451(14) 0.5533(19) 0.7014(8)
H12_2 H 0.6952(8) 0.5391(19) 0.7164(11)
C1_4 C 0.97948(15) 0.44478(17) 0.80651(11)
C9_4 C 0.95547(16) 0.35778(18) 0.85874(11)
C10_4 C 0.91550(17) 0.39718(17) 0.86926(11)
H16_4 H 0.9259 0.4348 0.8712
C11_4 C 0.86057(16) 0.38187(17) 0.87698(10)
C12_4 C 0.82238(17) 0.42855(16) 0.88996(13)
C13_4 C 0.84435(17) 0.32612(17) 0.87352(11)
C14_4 C 0.78661(18) 0.30556(18) 0.88474(13)
C15_4 C 0.88400(18) 0.28762(18) 0.86190(12)
H17_4 H 0.8735 0.2502 0.8589
C16_4 C 0.93754(18) 0.30289(19) 0.85485(12)
H18_4 H 0.9631 0.2757 0.8472
C17_3 C 0.7299(2) 0.39609(19) 0.78854(14)
H19_3 H 0.7388 0.4137 0.8105
C18_2 C 0.7204(2) 0.4004(2) 0.72855(14)
H20_2 H 0.7229 0.4207 0.7069
C19_3 C 0.7095(2) 0.34255(19) 0.78959(14)
H21_3 H 0.7070 0.3239 0.8118
C20_2 C 0.6980(2) 0.34574(19) 0.72663(15)
H22_2 H 0.6872 0.3304 0.7044
C21_3 C 0.69256(16) 0.31586(15) 0.75815(12)
C22_3 C 0.67122(17) 0.25758(16) 0.75822(12)
C23_4 C 0.6666(3) 0.2256(2) 0.78861(15)
H23_4 H 0.6763 0.2409 0.8111
C24_3 C 0.6576(3) 0.2303(2) 0.72679(15)
H24_3 H 0.6611 0.2491 0.7047
C25_4 C 0.6481(3) 0.1714(2) 0.78689(14)
H25_4 H 0.6463 0.1511 0.8085
C26_3 C 0.6387(3) 0.1754(2) 0.72696(14)
H26_3 H 0.6300 0.1587 0.7047
C27_4 C 0.99213(18) 0.62187(17) 0.79904(13)
C28_4 C 0.90711(18) 0.66146(17) 0.80647(14)
H28_4 H 0.8682 0.6580 0.8081
C30_4 C 0.92973(19) 0.71396(18) 0.81029(14)
H30_4 H 0.9065 0.7446 0.8149
C31_4 C 0.98683(19) 0.72156(16) 0.80726(12)
C32_4 C 0.97769(18) 0.62342(17) 0.70515(12)
H31_4 H 0.9962 0.5890 0.7039
C33_4 C 0.89673(18) 0.67328(17) 0.70769(13)
H32_4 H 0.8576 0.6742 0.7077
C35_4 C 0.92500(18) 0.72323(18) 0.70965(13)
H34_4 H 0.9053 0.7568 0.7120
C36_4 C 0.98333(18) 0.72340(16) 0.70809(11)
C39_4 C 0.99032(18) 0.82814(17) 0.70615(11)
H37_4 H 0.9513 0.8303 0.7055
H39_4 H 0.9855 0.9099 0.7961
C44_4 C 0.98137(19) 0.82655(18) 0.80152(14)
H41_4 H 0.9425 0.8241 0.7994
O20_4 O 0.86887(16) 0.97864(18) 0.80806(12)
Ni9_4 Ni 0.60148(2) 0.06494(2) 0.75504(2)
N9_4 N 0.86757(13) 0.35423(13) 0.74337(10)
H70_4 H 0.88526 0.940269 0.807106
H34_5 H 0.0068 0.8447 0.0380
N5_5 N 0.12655(13) 0.67204(14) 0.04419(9)
C37_5 C 0.12658(17) 0.72769(18) 0.04485(12)
H35_5 H 0.1610 0.7462 0.0461
C38_5 C 0.07672(17) 0.64673(18) 0.04231(13)
H36_5 H 0.0758 0.6076 0.0423
C39_5 C 0.07814(17) 0.75968(18) 0.04385(11)
H37_5 H 0.0803 0.7987 0.0445
C40_5 C 0.02677(18) 0.67500(18) 0.04035(13)
C41_5 C 0.02660(16) 0.73333(18) 0.04191(11)
Ni7_3 Ni 0.20153(2) 0.62821(2) 0.04247(2)
O26_5 O 0.23510(10) 0.68169(12) 0.00599(8)
H44_5 H 0.235(2) 0.7154(9) 0.0100(14)
O28_5 O 0.27645(11) 0.58723(11) 0.03494(8)
H46_5 H 0.2840(18) 0.5794(18) 0.0561(6)
O29_5 O 0.33350(13) 0.69698(14) 0.05177(10)
H47_5 H 0.3037(13) 0.6921(16) 0.0643(11)
H48_5 H 0.339(2) 0.7334(9) 0.0518(15)
O32_5 O 0.20948(14) 0.48165(13) 0.02977(10)
H53_5 H 0.1967(19) 0.4951(14) 0.0486(8)
H54_5 H 0.2109(19) 0.4452(8) 0.0336(11)
C64_5 C 0.3496(2) 0.4704(2) 0.02145(14)
H62_5 H 0.3293 0.4729 0.0431
C66_5 C 0.40426(19) 0.4480(2) 0.02337(15)
H64_5 H 0.4196 0.4372 0.0456
C70_5 C 0.5197(2) 0.4076(3) 0.02321(15)
H66_5 H 0.5009 0.4111 0.0453
C72_5 C 0.5746(2) 0.3887(3) 0.02304(14)
H68_5 H 0.5913 0.3800 0.0453
O33_3 O 0.17821(12) 0.56229(11) 0.07696(9)
O35_3 O 0.23554(11) 0.67177(12) 0.08761(8)
N6_5 N 0.13524(14) 0.68712(15) 0.94939(10)
C42_5 C 0.12813(17) 0.74213(18) 0.95096(13)
H39_5 H 0.1599 0.7645 0.9539
C43_5 C 0.08854(17) 0.65711(18) 0.94353(14)
H40_5 H 0.0920 0.6182 0.9419
C44_5 C 0.07655(18) 0.76863(19) 0.94848(14)
H41_5 H 0.0741 0.8075 0.9506
C45_5 C 0.03604(18) 0.67973(19) 0.93971(14)
H42_5 H 0.0054 0.6565 0.9351
C46_5 C 0.02844(16) 0.73683(19) 0.94274(12)
Ni6_5 Ni 0.21238(2) 0.64670(2) 0.95785(2)
Ni8_5 Ni 0.25181(2) 0.53461(2) 0.99392(2)
N7_5 N 0.32559(14) 0.48767(14) 0.99232(11)
O17_5 O 0.33609(11) 0.71044(11) 0.96839(8)
O18_5 O 0.25720(11) 0.71245(11) 0.93368(7)
O19_4 O 0.26481(17) 0.82238(16) 0.98223(11)
O20_5 O 0.22864(18) 0.88113(16) 0.94194(12)
O21_3 O 0.31229(11) 0.57179(12) 0.82696(9)
O22_5 O 0.29303(12) 0.54747(12) 0.88379(9)
O23_3 O 0.42177(12) 0.51446(11) 0.83761(8)
O24_5 O 0.48433(15) 0.51464(14) 0.88268(9)
O25_5 O 0.28332(10) 0.59911(11) 0.96354(8)
H43_5 H 0.3071(16) 0.5922(19) 0.9468(10)
O27_5 O 0.18263(11) 0.58657(11) 0.99399(8)
H45_5 H 0.1534(13) 0.5671(17) 0.9884(13)
O30_5 O 0.19862(15) 0.60554(18) 0.90825(10)
H49_5 H 0.2219(13) 0.5802(13) 0.9039(11)
H50_5 H 0.1669(14) 0.586(3) 0.901(3)
O31_5 O 0.22009(14) 0.48762(15) 0.94956(10)
H51_5 H 0.190(3) 0.505(3) 0.941(3)
H52_5 H 0.210(4) 0.4532(13) 0.947(3)
C47_5 C 0.30522(17) 0.72948(15) 0.94349(11)
C48_4 C 0.33020(18) 0.77661(16) 0.92122(12)
C49_4 C 0.3105(2) 0.83131(17) 0.92463(12)
C50_4 C 0.2637(2) 0.8452(2) 0.95227(16)
C51_4 C 0.3330(3) 0.87311(19) 0.90235(16)
H55_4 H 0.3183 0.9093 0.9032
C52_4 C 0.3758(3) 0.8613(2) 0.87947(16)
H56_4 H 0.3909 0.8900 0.8654
C53_4 C 0.3981(2) 0.8076(2) 0.87629(13)
H57_4 H 0.4287 0.8005 0.8611
C54_4 C 0.37308(19) 0.76414(17) 0.89684(12)
C55_5 C 0.39222(18) 0.70547(16) 0.89126(11)
C56_5 C 0.35282(17) 0.66550(17) 0.88074(11)
H58_5 H 0.3152 0.6759 0.8788
C57_5 C 0.36813(17) 0.61057(16) 0.87302(10)
C58_5 C 0.32145(16) 0.57238(17) 0.86004(13)
C59_5 C 0.42388(17) 0.59435(17) 0.87648(11)
C60_5 C 0.44444(18) 0.53661(18) 0.86526(13)
C61_5 C 0.46238(18) 0.63400(18) 0.88810(12)
H59_5 H 0.4998 0.6235 0.8911
C62_5 C 0.44711(19) 0.68754(18) 0.89515(12)
H60_5 H 0.4743 0.7131 0.9028
C63_5 C 0.35391(19) 0.4799(2) 0.96146(14)
H61_5 H 0.3363 0.4888 0.9395
C65_5 C 0.40745(19) 0.4595(2) 0.96041(14)
H63_5 H 0.4261 0.4570 0.9382
C67_5 C 0.43414(15) 0.44256(16) 0.99185(12)
C68_5 C 0.49242(16) 0.42122(17) 0.99178(12)
C69_5 C 0.5244(2) 0.4166(3) 0.96139(15)
H65_5 H 0.5091 0.4263 0.9389
C71_5 C 0.5786(2) 0.3981(3) 0.96311(14)
H67_5 H 0.5989 0.3963 0.9415
Ni11_3 Ni 0.37821(2) 0.54847(2) 0.79247(2)
H70_5 H 0.190269 0.86474 0.942894
N1_4 N 0.67441(14) 0.01233(14) 0.99232(11)
O15_4 O 0.77991(14) 0.01238(15) 0.94956(10)
H10_4 H 0.790(4) 0.0468(13) 0.947(3)
C17_4 C 0.64609(19) 0.0201(2) 0.96146(14)
H19_4 H 0.6637 0.0112 0.9395
C19_4 C 0.59255(19) 0.0405(2) 0.96041(14)
H21_4 H 0.5739 0.0430 0.9382
C21_4 C 0.56586(15) 0.05744(16) 0.99185(12)
C22_4 C 0.50758(16) 0.07878(17) 0.99178(12)
C23_5 C 0.4756(2) 0.0834(3) 0.96139(15)
H23_5 H 0.4909 0.0737 0.9389
C25_5 C 0.4214(2) 0.1019(3) 0.96311(14)
H25_5 H 0.4011 0.1037 0.9415
Ni3_3 Ni 0.79847(2) 0.87179(2) 0.04247(2)
N2_5 N 0.87345(13) 0.82796(14) 0.04419(9)
O10_5 O 0.76490(10) 0.81831(12) 0.00599(8)
H2_5 H 0.765(2) 0.7846(9) 0.0100(14)
O12_5 O 0.72355(11) 0.91277(11) 0.03494(8)
H4_5 H 0.7160(18) 0.9206(18) 0.0561(6)
O13_5 O 0.66650(13) 0.80302(14) 0.05177(10)
H5_5 H 0.6963(13) 0.8079(16) 0.0643(11)
H6_5 H 0.661(2) 0.7666(9) 0.0518(15)
C32_5 C 0.87342(17) 0.77231(18) 0.04485(12)
H31_5 H 0.8390 0.7538 0.0461
C33_5 C 0.92328(17) 0.85327(18) 0.04231(13)
H32_5 H 0.9242 0.8924 0.0423
C34_5 C 0.92186(17) 0.74032(18) 0.04385(11)
H33_5 H 0.9197 0.7013 0.0445
C35_5 C 0.97323(18) 0.82500(18) 0.04035(13)
C36_5 C 0.97340(16) 0.76667(18) 0.04191(11)
H38_5 H 0.9932 0.6553 0.0380
O34_3 O 0.82179(12) 0.93771(11) 0.07696(9)
O36_3 O 0.76446(11) 0.82823(12) 0.08761(8)
Ni2_5 Ni 0.78762(2) 0.85330(2) 0.95785(2)
Ni4_5 Ni 0.74819(2) 0.96539(2) 0.99392(2)
N4_5 N 0.86476(14) 0.81288(15) 0.94939(10)
O1_5 O 0.66391(11) 0.78956(11) 0.96839(8)
O2_5 O 0.74280(11) 0.78755(11) 0.93368(7)
O3_5 O 0.73519(17) 0.67762(16) 0.98223(11)
O4_5 O 0.77136(18) 0.61887(16) 0.94194(12)
O5_3 O 0.68771(11) 0.92821(12) 0.82696(9)
O6_5 O 0.70697(12) 0.95253(12) 0.88379(9)
O7_3 O 0.57823(12) 0.98554(11) 0.83761(8)
O8_5 O 0.51567(15) 0.98536(14) 0.88268(9)
O9_5 O 0.71668(10) 0.90089(11) 0.96354(8)
H1_5 H 0.6929(16) 0.9078(19) 0.9468(10)
O11_5 O 0.81737(11) 0.91343(11) 0.99399(8)
H3_5 H 0.8466(13) 0.9329(17) 0.9884(13)
O14_5 O 0.80138(15) 0.89446(18) 0.90825(10)
H7_5 H 0.7781(13) 0.9198(13) 0.9039(11)
H8_5 H 0.8331(14) 0.914(3) 0.901(3)
H9_5 H 0.810(3) 0.995(3) 0.941(3)
C1_5 C 0.69478(17) 0.77052(15) 0.94349(11)
C2_5 C 0.66980(18) 0.72339(16) 0.92122(12)
C3_5 C 0.6895(2) 0.66869(17) 0.92463(12)
C4_5 C 0.7363(2) 0.6548(2) 0.95227(16)
C5_5 C 0.6670(3) 0.62689(19) 0.90235(16)
H13_5 H 0.6817 0.5907 0.9032
C6_5 C 0.6242(3) 0.6387(2) 0.87947(16)
H14_5 H 0.6091 0.6100 0.8654
C7_5 C 0.6019(2) 0.6924(2) 0.87629(13)
H15_5 H 0.5713 0.6995 0.8611
C8_5 C 0.62692(19) 0.73586(17) 0.89684(12)
C9_5 C 0.60778(18) 0.79453(16) 0.89126(11)
C10_5 C 0.64718(17) 0.83450(17) 0.88074(11)
H16_5 H 0.6848 0.8241 0.8788
C11_5 C 0.63187(17) 0.88943(16) 0.87302(10)
C12_5 C 0.67855(16) 0.92762(17) 0.86004(13)
C13_5 C 0.57612(17) 0.90565(17) 0.87648(11)
C14_5 C 0.55556(18) 0.96339(18) 0.86526(13)
C15_5 C 0.53762(18) 0.86600(18) 0.88810(12)
H17_5 H 0.5002 0.8765 0.8911
C16_5 C 0.55289(19) 0.81246(18) 0.89515(12)
H18_5 H 0.5257 0.7869 0.9028
C27_5 C 0.87187(17) 0.75787(18) 0.95096(13)
H27_5 H 0.8401 0.7355 0.9539
C28_5 C 0.91146(17) 0.84289(18) 0.94353(14)
H28_5 H 0.9080 0.8818 0.9419
C29_5 C 0.92345(18) 0.73137(19) 0.94848(14)
H29_5 H 0.9259 0.6925 0.9506
C30_5 C 0.96396(18) 0.82027(19) 0.93971(14)
H30_5 H 0.9946 0.8435 0.9351
C31_5 C 0.97156(16) 0.76317(19) 0.94274(12)
Ni12_3 Ni 0.62179(2) 0.95153(2) 0.79247(2)
H69_5 H 0.809731 0.63526 0.942894
C23_6 C 0.0244(2) 0.9166(3) 0.46139(15)
H23_6 H 0.0091 0.9263 0.4389
C24_4 C 0.0197(2) 0.9076(3) 0.52321(15)
H24_4 H 0.0009 0.9111 0.5453
C25_6 C 0.0786(2) 0.8981(3) 0.46311(14)
H25_6 H 0.0989 0.8963 0.4415
C26_4 C 0.0746(2) 0.8887(3) 0.52304(14)
H26_4 H 0.0913 0.8800 0.5453
Ni2_6 Ni 0.71238(2) 0.14670(2) 0.45785(2)
Ni3_4 Ni 0.70153(2) 0.12821(2) 0.54247(2)
Ni4_6 Ni 0.75181(2) 0.03461(2) 0.49392(2)
N2_6 N 0.62655(13) 0.17204(14) 0.54419(9)
N4_6 N 0.63524(14) 0.18712(15) 0.44939(10)
O1_6 O 0.83609(11) 0.21044(11) 0.46839(8)
O2_6 O 0.75720(11) 0.21245(11) 0.43368(7)
O3_6 O 0.76481(17) 0.32238(16) 0.48223(11)
O4_6 O 0.72864(18) 0.38113(16) 0.44194(12)
O5_4 O 0.81229(11) 0.07179(12) 0.32696(9)
O6_6 O 0.79303(12) 0.04747(12) 0.38379(9)
O7_4 O 0.92177(12) 0.01446(11) 0.33761(8)
O8_6 O 0.98433(15) 0.01464(14) 0.38268(9)
O9_6 O 0.78332(10) 0.09911(11) 0.46354(8)
H1_6 H 0.8071(16) 0.0922(19) 0.4468(10)
O10_6 O 0.73510(10) 0.18169(12) 0.50599(8)
H2_6 H 0.735(2) 0.2154(9) 0.5100(14)
O11_6 O 0.68263(11) 0.08657(11) 0.49399(8)
H3_6 H 0.6534(13) 0.0671(17) 0.4884(13)
O12_6 O 0.77645(11) 0.08723(11) 0.53494(8)
H4_6 H 0.7840(18) 0.0794(18) 0.5561(6)
O13_6 O 0.83350(13) 0.19698(14) 0.55177(10)
H5_6 H 0.8037(13) 0.1921(16) 0.5643(11)
H6_6 H 0.839(2) 0.2334(9) 0.5518(15)
O14_6 O 0.69862(15) 0.10554(18) 0.40825(10)
H7_6 H 0.7219(13) 0.0802(13) 0.4039(11)
H8_6 H 0.6669(14) 0.086(3) 0.401(3)
H9_6 H 0.690(3) 0.005(3) 0.441(3)
C1_6 C 0.80522(17) 0.22948(15) 0.44349(11)
C2_6 C 0.83020(18) 0.27661(16) 0.42122(12)
C3_6 C 0.8105(2) 0.33131(17) 0.42463(12)
C4_6 C 0.7637(2) 0.3452(2) 0.45227(16)
C5_6 C 0.8330(3) 0.37311(19) 0.40235(16)
H13_6 H 0.8183 0.4093 0.4032
C6_6 C 0.8758(3) 0.3613(2) 0.37947(16)
H14_6 H 0.8909 0.3900 0.3654
C7_6 C 0.8981(2) 0.3076(2) 0.37629(13)
H15_6 H 0.9287 0.3005 0.3611
C8_6 C 0.87308(19) 0.26414(17) 0.39684(12)
C9_6 C 0.89222(18) 0.20547(16) 0.39126(11)
C10_6 C 0.85282(17) 0.16550(17) 0.38074(11)
H16_6 H 0.8152 0.1759 0.3788
C11_6 C 0.86813(17) 0.11057(16) 0.37302(10)
C12_6 C 0.82145(16) 0.07238(17) 0.36004(13)
C13_6 C 0.92388(17) 0.09435(17) 0.37648(11)
C14_6 C 0.94444(18) 0.03661(18) 0.36526(13)
C15_6 C 0.96238(18) 0.13400(18) 0.38810(12)
H17_6 H 0.9998 0.1235 0.3911
C16_6 C 0.94711(19) 0.18754(18) 0.39515(12)
H18_6 H 0.9743 0.2131 0.4028
C27_6 C 0.62813(17) 0.24213(18) 0.45096(13)
H27_6 H 0.6599 0.2645 0.4539
C28_6 C 0.58854(17) 0.15711(18) 0.44353(14)
H28_6 H 0.5920 0.1182 0.4419
C29_6 C 0.57655(18) 0.26863(19) 0.44848(14)
H29_6 H 0.5741 0.3075 0.4506
C30_6 C 0.53604(18) 0.17973(19) 0.43971(14)
H30_6 H 0.5054 0.1565 0.4351
C31_6 C 0.52844(16) 0.23683(19) 0.44274(12)
C32_6 C 0.62658(17) 0.22769(18) 0.54485(12)
H31_6 H 0.6610 0.2462 0.5461
C33_6 C 0.57672(17) 0.14673(18) 0.54231(13)
H32_6 H 0.5758 0.1076 0.5423
C34_6 C 0.57814(17) 0.25968(18) 0.54385(11)
H33_6 H 0.5803 0.2987 0.5445
C35_6 C 0.52677(18) 0.17500(18) 0.54035(13)
H34_6 H 0.4932 0.1553 0.5380
C36_6 C 0.52660(16) 0.23333(18) 0.54191(11)
N5_6 N 0.37345(13) 0.32796(14) 0.54419(9)
C37_6 C 0.37342(17) 0.27231(18) 0.54485(12)
H35_6 H 0.3390 0.2538 0.5461
C38_6 C 0.42328(17) 0.35327(18) 0.54231(13)
H36_6 H 0.4242 0.3924 0.5423
C39_6 C 0.42186(17) 0.24032(18) 0.54385(11)
H37_6 H 0.4197 0.2013 0.5445
C40_6 C 0.47323(18) 0.32500(18) 0.54035(13)
H38_6 H 0.5068 0.3447 0.5380
C41_6 C 0.47340(16) 0.26667(18) 0.54191(11)
N6_6 N 0.36476(14) 0.31288(15) 0.44939(10)
C42_6 C 0.37187(17) 0.25787(18) 0.45096(13)
H39_6 H 0.3401 0.2355 0.4539
C43_6 C 0.41146(17) 0.34289(18) 0.44353(14)
H40_6 H 0.4080 0.3818 0.4419
C44_6 C 0.42345(18) 0.23137(19) 0.44848(14)
H41_6 H 0.4259 0.1925 0.4506
C45_6 C 0.46396(18) 0.32027(19) 0.43971(14)
H42_6 H 0.4946 0.3435 0.4351
C46_6 C 0.47156(16) 0.26317(19) 0.44274(12)
Ni6_6 Ni 0.28762(2) 0.35330(2) 0.45785(2)
Ni7_4 Ni 0.29847(2) 0.37179(2) 0.54247(2)
Ni8_6 Ni 0.24819(2) 0.46539(2) 0.49392(2)
N7_6 N 0.17441(14) 0.51233(14) 0.49232(11)
O17_6 O 0.16391(11) 0.28956(11) 0.46839(8)
O18_6 O 0.24280(11) 0.28755(11) 0.43368(7)
O19_5 O 0.23519(17) 0.17762(16) 0.48223(11)
O20_6 O 0.27136(18) 0.11887(16) 0.44194(12)
O21_4 O 0.18771(11) 0.42821(12) 0.32696(9)
O22_6 O 0.20697(12) 0.45253(12) 0.38379(9)
O23_4 O 0.07823(12) 0.48554(11) 0.33761(8)
O24_6 O 0.01567(15) 0.48536(14) 0.38268(9)
O25_6 O 0.21668(10) 0.40089(11) 0.46354(8)
H43_6 H 0.1929(16) 0.4078(19) 0.4468(10)
O26_6 O 0.26490(10) 0.31831(12) 0.50599(8)
H44_6 H 0.265(2) 0.2846(9) 0.5100(14)
O27_6 O 0.31737(11) 0.41343(11) 0.49399(8)
H45_6 H 0.3466(13) 0.4329(17) 0.4884(13)
O28_6 O 0.22355(11) 0.41277(11) 0.53494(8)
H46_6 H 0.2160(18) 0.4206(18) 0.5561(6)
O29_6 O 0.16650(13) 0.30302(14) 0.55177(10)
H47_6 H 0.1963(13) 0.3079(16) 0.5643(11)
H48_6 H 0.161(2) 0.2666(9) 0.5518(15)
O30_6 O 0.30138(15) 0.39446(18) 0.40825(10)
H49_6 H 0.2781(13) 0.4198(13) 0.4039(11)
H50_6 H 0.3331(14) 0.414(3) 0.401(3)
O31_6 O 0.27991(14) 0.51238(15) 0.44956(10)
H51_6 H 0.310(3) 0.495(3) 0.441(3)
H52_6 H 0.290(4) 0.5468(13) 0.447(3)
O32_6 O 0.29052(14) 0.51835(13) 0.52977(10)
H53_6 H 0.3033(19) 0.5049(14) 0.5486(8)
H54_6 H 0.2891(19) 0.5548(8) 0.5336(11)
C47_6 C 0.19478(17) 0.27052(15) 0.44349(11)
C48_5 C 0.16980(18) 0.22339(16) 0.42122(12)
C49_5 C 0.1895(2) 0.16869(17) 0.42463(12)
C50_5 C 0.2363(2) 0.1548(2) 0.45227(16)
C51_5 C 0.1670(3) 0.12689(19) 0.40235(16)
H55_5 H 0.1817 0.0907 0.4032
C52_5 C 0.1242(3) 0.1387(2) 0.37947(16)
H56_5 H 0.1091 0.1100 0.3654
C53_5 C 0.1019(2) 0.1924(2) 0.37629(13)
H57_5 H 0.0713 0.1995 0.3611
C54_5 C 0.12692(19) 0.23586(17) 0.39684(12)
C55_6 C 0.10778(18) 0.29453(16) 0.39126(11)
C56_6 C 0.14718(17) 0.33450(17) 0.38074(11)
H58_6 H 0.1848 0.3241 0.3788
C57_6 C 0.13187(17) 0.38943(16) 0.37302(10)
C58_6 C 0.17855(16) 0.42762(17) 0.36004(13)
C59_6 C 0.07612(17) 0.40565(17) 0.37648(11)
C60_6 C 0.05556(18) 0.46339(18) 0.36526(13)
C61_6 C 0.03762(18) 0.36600(18) 0.38810(12)
H59_6 H 0.0002 0.3765 0.3911
C62_6 C 0.05289(19) 0.31246(18) 0.39515(12)
H60_6 H 0.0257 0.2869 0.4028
C63_6 C 0.14609(19) 0.5201(2) 0.46146(14)
H61_6 H 0.1637 0.5112 0.4395
C64_6 C 0.1504(2) 0.5296(2) 0.52145(14)
H62_6 H 0.1707 0.5271 0.5431
C65_6 C 0.09255(19) 0.5405(2) 0.46041(14)
H63_6 H 0.0739 0.5430 0.4382
C66_6 C 0.09574(19) 0.5520(2) 0.52337(15)
H64_6 H 0.0804 0.5628 0.5456
C67_6 C 0.06586(15) 0.55744(16) 0.49185(12)
C68_6 C 0.00758(16) 0.57878(17) 0.49178(12)
Ni11_4 Ni 0.12179(2) 0.45153(2) 0.29247(2)
Ni12_4 Ni 0.87821(2) 0.04847(2) 0.29247(2)
O33_4 O 0.32179(12) 0.43771(11) 0.57696(9)
O34_4 O 0.67821(12) 0.06229(11) 0.57696(9)
O35_4 O 0.26446(11) 0.32823(12) 0.58761(8)
O36_4 O 0.73554(11) 0.17177(12) 0.58761(8)
H69_6 H 0.690269 0.36474 0.442894
H70_6 H 0.309731 0.13526 0.442894
C69_6 C 0.9756(2) 0.5834(3) 0.46139(15)
H65_6 H 0.9909 0.5737 0.4389
C70_6 C 0.9803(2) 0.5924(3) 0.52321(15)
H66_6 H 0.9991 0.5889 0.5453
C71_6 C 0.9214(2) 0.6019(3) 0.46311(14)
H67_6 H 0.9011 0.6037 0.4415
C72_6 C 0.9254(2) 0.6113(3) 0.52304(14)
H68_6 H 0.9087 0.6200 0.5453
Ni8_7 Ni 0.71539(2) 0.00181(2) 0.74392(2)
N7_7 N 0.76233(14) 0.07559(14) 0.74232(11)
O17_7 O 0.53956(11) 0.08609(11) 0.71839(8)
O18_7 O 0.53755(11) 0.00720(11) 0.68368(7)
O19_6 O 0.42762(16) 0.01481(17) 0.73223(11)
O22_7 O 0.70253(12) 0.04303(12) 0.63379(9)
O24_7 O 0.73536(14) 0.23433(15) 0.63268(9)
O25_7 O 0.65089(11) 0.03332(10) 0.71354(8)
H43_7 H 0.6578(19) 0.0571(16) 0.6968(10)
O28_7 O 0.66277(11) 0.02645(11) 0.78494(8)
H46_7 H 0.6706(18) 0.0340(18) 0.8061(6)
O29_7 O 0.55302(14) 0.08350(13) 0.80177(10)
H47_7 H 0.5579(16) 0.0537(13) 0.8143(11)
H48_7 H 0.5166(9) 0.089(2) 0.8018(15)
C47_7 C 0.52052(15) 0.05522(17) 0.69349(11)
C48_6 C 0.47339(16) 0.08020(18) 0.67122(12)
C49_6 C 0.41869(17) 0.0605(2) 0.67463(12)
C50_6 C 0.4048(2) 0.0137(2) 0.70227(16)
C51_6 C 0.37689(19) 0.0830(3) 0.65235(16)
H55_6 H 0.3407 0.0683 0.6532
C52_6 C 0.3887(2) 0.1258(3) 0.62947(16)
H56_6 H 0.3600 0.1409 0.6154
C53_6 C 0.4424(2) 0.1481(2) 0.62629(13)
H57_6 H 0.4495 0.1787 0.6111
C54_6 C 0.48586(17) 0.12308(19) 0.64684(12)
C55_7 C 0.54453(16) 0.14222(18) 0.64126(11)
C56_7 C 0.58450(17) 0.10282(17) 0.63074(11)
H58_7 H 0.5741 0.0652 0.6288
C57_7 C 0.63943(16) 0.11813(17) 0.62302(10)
C58_7 C 0.67762(17) 0.07145(16) 0.61004(13)
C59_7 C 0.65565(17) 0.17388(17) 0.62648(11)
C60_7 C 0.71339(18) 0.19444(18) 0.61526(13)
C61_7 C 0.61600(18) 0.21238(18) 0.63810(12)
H59_7 H 0.6265 0.2498 0.6411
C62_7 C 0.56246(18) 0.19711(19) 0.64515(12)
H60_7 H 0.5369 0.2243 0.6528
C63_7 C 0.7701(2) 0.10391(19) 0.71146(14)
H61_7 H 0.7612 0.0863 0.6895
C64_7 C 0.7796(2) 0.0996(2) 0.77145(14)
H62_7 H 0.7771 0.0793 0.7931
C65_7 C 0.7905(2) 0.15745(19) 0.71041(14)
H63_7 H 0.7930 0.1761 0.6882
C66_7 C 0.8020(2) 0.15426(19) 0.77337(15)
H64_7 H 0.8128 0.1696 0.7956
C67_7 C 0.80744(16) 0.18414(15) 0.74185(12)
C68_7 C 0.82878(17) 0.24242(16) 0.74178(12)
C69_7 C 0.8334(3) 0.2744(2) 0.71139(15)
H65_7 H 0.8237 0.2591 0.6889
C70_7 C 0.8424(3) 0.2697(2) 0.77321(15)
H66_7 H 0.8389 0.2509 0.7953
C71_7 C 0.8519(3) 0.3286(2) 0.71311(14)
H67_7 H 0.8537 0.3489 0.6915
C72_7 C 0.8613(3) 0.3246(2) 0.77304(14)
H68_7 H 0.8700 0.3413 0.7953
Ni2_7 Ni 0.39670(2) 0.53762(2) 0.70785(2)
Ni4_7 Ni 0.28461(2) 0.49819(2) 0.74392(2)
N1_5 N 0.23767(14) 0.42441(14) 0.74232(11)
N2_7 N 0.42204(14) 0.62345(13) 0.79419(9)
N4_7 N 0.43712(15) 0.61476(14) 0.69939(10)
O1_7 O 0.46044(11) 0.41391(11) 0.71839(8)
O2_7 O 0.46245(11) 0.49280(11) 0.68368(7)
O3_7 O 0.57238(16) 0.48519(17) 0.73223(11)
O4_7 O 0.63113(16) 0.52136(18) 0.69194(12)
O6_7 O 0.29747(12) 0.45697(12) 0.63379(9)
O8_7 O 0.26464(14) 0.26567(15) 0.63268(9)
O9_7 O 0.34911(11) 0.46668(10) 0.71354(8)
H1_7 H 0.3422(19) 0.4429(16) 0.6968(10)
O10_7 O 0.43169(12) 0.51490(10) 0.75599(8)
H2_7 H 0.4654(9) 0.515(2) 0.7600(14)
O11_7 O 0.33657(11) 0.56737(11) 0.74399(8)
H3_7 H 0.3171(17) 0.5966(13) 0.7384(13)
O12_7 O 0.33723(11) 0.47355(11) 0.78494(8)
H4_7 H 0.3294(18) 0.4660(18) 0.8061(6)
O13_7 O 0.44698(14) 0.41650(13) 0.80177(10)
H5_7 H 0.4421(16) 0.4463(13) 0.8143(11)
H6_7 H 0.4834(9) 0.411(2) 0.8018(15)
O14_7 O 0.35554(18) 0.55138(15) 0.65825(10)
H7_7 H 0.3302(13) 0.5281(13) 0.6539(11)
H8_7 H 0.336(3) 0.5831(14) 0.651(3)
O15_5 O 0.23762(15) 0.52991(14) 0.69956(10)
H9_7 H 0.255(3) 0.560(3) 0.691(3)
H10_5 H 0.2032(13) 0.540(4) 0.697(3)
O16_3 O 0.23165(13) 0.54052(14) 0.77977(10)
H11_3 H 0.2451(14) 0.5533(19) 0.7986(8)
H12_3 H 0.1952(8) 0.5391(19) 0.7836(11)
C1_7 C 0.47948(15) 0.44478(17) 0.69349(11)
C2_7 C 0.52661(16) 0.41980(18) 0.67122(12)
C3_7 C 0.58131(17) 0.4395(2) 0.67463(12)
C4_7 C 0.5952(2) 0.4863(2) 0.70227(16)
C5_7 C 0.62311(19) 0.4170(3) 0.65235(16)
H13_7 H 0.6593 0.4317 0.6532
C6_7 C 0.6113(2) 0.3742(3) 0.62947(16)
H14_7 H 0.6400 0.3591 0.6154
C7_7 C 0.5576(2) 0.3519(2) 0.62629(13)
H15_7 H 0.5505 0.3213 0.6111
C8_7 C 0.51414(17) 0.37692(19) 0.64684(12)
C9_7 C 0.45547(16) 0.35778(18) 0.64126(11)
C10_7 C 0.41550(17) 0.39718(17) 0.63074(11)
H16_7 H 0.4259 0.4348 0.6288
C11_7 C 0.36057(16) 0.38187(17) 0.62302(10)
C12_7 C 0.32238(17) 0.42855(16) 0.61004(13)
C13_7 C 0.34435(17) 0.32612(17) 0.62648(11)
C14_7 C 0.28661(18) 0.30556(18) 0.61526(13)
C15_7 C 0.38400(18) 0.28762(18) 0.63810(12)
H17_7 H 0.3735 0.2502 0.6411
C16_7 C 0.43754(18) 0.30289(19) 0.64515(12)
H18_7 H 0.4631 0.2757 0.6528
C17_5 C 0.2299(2) 0.39609(19) 0.71146(14)
H19_5 H 0.2388 0.4137 0.6895
C18_3 C 0.2204(2) 0.4004(2) 0.77145(14)
H20_3 H 0.2229 0.4207 0.7931
C19_5 C 0.2095(2) 0.34255(19) 0.71041(14)
H21_5 H 0.2070 0.3239 0.6882
C20_3 C 0.1980(2) 0.34574(19) 0.77337(15)
H22_3 H 0.1872 0.3304 0.7956
C21_5 C 0.19256(16) 0.31586(15) 0.74185(12)
C22_5 C 0.17122(17) 0.25758(16) 0.74178(12)
C23_7 C 0.1666(3) 0.2256(2) 0.71139(15)
H23_7 H 0.1763 0.2409 0.6889
C24_5 C 0.1576(3) 0.2303(2) 0.77321(15)
H24_5 H 0.1611 0.2491 0.7953
C25_7 C 0.1481(3) 0.1714(2) 0.71311(14)
H25_7 H 0.1463 0.1511 0.6915
C26_5 C 0.1387(3) 0.1754(2) 0.77304(14)
H26_5 H 0.1300 0.1587 0.7953
C27_7 C 0.49213(18) 0.62187(17) 0.70096(13)
H27_7 H 0.5145 0.5901 0.7039
C28_7 C 0.40711(18) 0.66146(17) 0.69353(14)
H28_7 H 0.3682 0.6580 0.6919
C29_7 C 0.51863(19) 0.67345(18) 0.69848(14)
H29_7 H 0.5575 0.6759 0.7006
C30_7 C 0.42973(19) 0.71396(18) 0.68971(14)
H30_7 H 0.4065 0.7446 0.6851
C31_7 C 0.48683(19) 0.72156(16) 0.69274(12)
C32_7 C 0.47769(18) 0.62342(17) 0.79485(12)
H31_7 H 0.4962 0.5890 0.7961
C33_7 C 0.39673(18) 0.67328(17) 0.79231(13)
H32_7 H 0.3576 0.6742 0.7923
C34_7 C 0.50968(18) 0.67186(17) 0.79385(11)
H33_7 H 0.5487 0.6697 0.7945
C35_7 C 0.42500(18) 0.72323(18) 0.79035(13)
H34_7 H 0.4053 0.7568 0.7880
C36_7 C 0.48333(18) 0.72340(16) 0.79191(11)
N5_7 N 0.57796(14) 0.87655(13) 0.79419(9)
C37_7 C 0.52231(18) 0.87658(17) 0.79485(12)
H35_7 H 0.5038 0.9110 0.7961
C38_7 C 0.60327(18) 0.82672(17) 0.79231(13)
H36_7 H 0.6424 0.8258 0.7923
C39_7 C 0.49032(18) 0.82814(17) 0.79385(11)
H37_7 H 0.4513 0.8303 0.7945
C40_7 C 0.57500(18) 0.77677(18) 0.79035(13)
H38_7 H 0.5947 0.7432 0.7880
C41_7 C 0.51667(18) 0.77660(16) 0.79191(11)
N6_7 N 0.56288(15) 0.88524(14) 0.69939(10)
C42_7 C 0.50787(18) 0.87813(17) 0.70096(13)
H39_7 H 0.4855 0.9099 0.7039
C43_7 C 0.59289(18) 0.83854(17) 0.69353(14)
H40_7 H 0.6318 0.8420 0.6919
C44_7 C 0.48137(19) 0.82655(18) 0.69848(14)
H41_7 H 0.4425 0.8241 0.7006
C45_7 C 0.57027(19) 0.78604(18) 0.68971(14)
H42_7 H 0.5935 0.7554 0.6851
C46_7 C 0.51317(19) 0.77844(16) 0.69274(12)
Ni6_7 Ni 0.60330(2) 0.96238(2) 0.70785(2)
O20_7 O 0.36887(16) 0.97864(18) 0.69194(12)
O26_7 O 0.56831(12) 0.98510(10) 0.75599(8)
H44_7 H 0.5346(9) 0.985(2) 0.7600(14)
O27_7 O 0.66343(11) 0.93263(11) 0.74399(8)
H45_7 H 0.6829(17) 0.9034(13) 0.7384(13)
O30_7 O 0.64446(18) 0.94862(15) 0.65825(10)
H49_7 H 0.6698(13) 0.9719(13) 0.6539(11)
H50_7 H 0.664(3) 0.9169(14) 0.651(3)
O31_7 O 0.76238(15) 0.97009(14) 0.69956(10)
H51_7 H 0.745(3) 0.940(3) 0.691(3)
H52_7 H 0.7968(13) 0.960(4) 0.697(3)
O32_7 O 0.76835(13) 0.95948(14) 0.77977(10)
H53_7 H 0.7549(14) 0.9467(19) 0.7986(8)
H54_7 H 0.8048(8) 0.9609(19) 0.7836(11)
H69_7 H 0.61474 0.559731 0.692894
H70_7 H 0.38526 0.940269 0.692894
Ni2_8 Ni 0.10330(2) 0.46238(2) 0.20785(2)
Ni4_8 Ni 0.21539(2) 0.50181(2) 0.24392(2)
N1_6 N 0.26233(14) 0.57559(14) 0.24232(11)
N2_8 N 0.07796(14) 0.37655(13) 0.29419(9)
N4_8 N 0.06288(15) 0.38524(14) 0.19939(10)
O1_8 O 0.03956(11) 0.58609(11) 0.21839(8)
O2_8 O 0.03755(11) 0.50720(11) 0.18368(7)
O6_8 O 0.20253(12) 0.54303(12) 0.13379(9)
O8_8 O 0.23536(14) 0.73433(15) 0.13268(9)
O9_8 O 0.15089(11) 0.53332(10) 0.21354(8)
H1_8 H 0.1578(19) 0.5571(16) 0.1968(10)
O10_8 O 0.06831(12) 0.48510(10) 0.25599(8)
H2_8 H 0.0346(9) 0.485(2) 0.2600(14)
O11_8 O 0.16343(11) 0.43263(11) 0.24399(8)
H3_8 H 0.1829(17) 0.4034(13) 0.2384(13)
O12_8 O 0.16277(11) 0.52645(11) 0.28494(8)
H4_8 H 0.1706(18) 0.5340(18) 0.3061(6)
O13_8 O 0.05302(14) 0.58350(13) 0.30177(10)
H5_8 H 0.0579(16) 0.5537(13) 0.3143(11)
H6_8 H 0.0166(9) 0.589(2) 0.3018(15)
O14_8 O 0.14446(18) 0.44862(15) 0.15825(10)
H7_8 H 0.1698(13) 0.4719(13) 0.1539(11)
H8_8 H 0.164(3) 0.4169(14) 0.151(3)
O15_6 O 0.26238(15) 0.47009(14) 0.19956(10)
H9_8 H 0.245(3) 0.440(3) 0.191(3)
H10_6 H 0.2968(13) 0.460(4) 0.197(3)
O16_4 O 0.26835(13) 0.45948(14) 0.27977(10)
H11_4 H 0.2549(14) 0.4467(19) 0.2986(8)
H12_4 H 0.3048(8) 0.4609(19) 0.2836(11)
C1_8 C 0.02052(15) 0.55522(17) 0.19349(11)
C9_8 C 0.04453(16) 0.64222(18) 0.14126(11)
C10_8 C 0.08450(17) 0.60282(17) 0.13074(11)
H16_8 H 0.0741 0.5652 0.1288
C11_8 C 0.13943(16) 0.61813(17) 0.12302(10)
C12_8 C 0.17762(17) 0.57145(16) 0.11004(13)
C13_8 C 0.15565(17) 0.67388(17) 0.12648(11)
C14_8 C 0.21339(18) 0.69444(18) 0.11526(13)
C15_8 C 0.11600(18) 0.71238(18) 0.13810(12)
H17_8 H 0.1265 0.7498 0.1411
C16_8 C 0.06246(18) 0.69711(19) 0.14515(12)
H18_8 H 0.0369 0.7243 0.1528
C17_6 C 0.2701(2) 0.60391(19) 0.21146(14)
H19_6 H 0.2612 0.5863 0.1895
C18_4 C 0.2796(2) 0.5996(2) 0.27145(14)
H20_4 H 0.2771 0.5793 0.2931
C19_6 C 0.2905(2) 0.65745(19) 0.21041(14)
H21_6 H 0.2930 0.6761 0.1882
C20_4 C 0.3020(2) 0.65426(19) 0.27337(15)
H22_4 H 0.3128 0.6696 0.2956
C21_6 C 0.30744(16) 0.68414(15) 0.24185(12)
C22_6 C 0.32878(17) 0.74242(16) 0.24178(12)
C23_8 C 0.3334(3) 0.7744(2) 0.21139(15)
H23_8 H 0.3237 0.7591 0.1889
C24_6 C 0.3424(3) 0.7697(2) 0.27321(15)
H24_6 H 0.3389 0.7509 0.2953
C25_8 C 0.3519(3) 0.8286(2) 0.21311(14)
H25_8 H 0.3537 0.8489 0.1915
C26_6 C 0.3613(3) 0.8246(2) 0.27304(14)
H26_6 H 0.3700 0.8413 0.2953
C27_8 C 0.00787(18) 0.37813(17) 0.20096(13)
C28_8 C 0.09289(18) 0.33854(17) 0.19353(14)
H28_8 H 0.1318 0.3420 0.1919
C30_8 C 0.07027(19) 0.28604(18) 0.18971(14)
H30_8 H 0.0935 0.2554 0.1851
C31_8 C 0.01317(19) 0.27844(16) 0.19274(12)
C32_8 C 0.02231(18) 0.37658(17) 0.29485(12)
H31_8 H 0.0038 0.4110 0.2961
C33_8 C 0.10327(18) 0.32672(17) 0.29231(13)
H32_8 H 0.1424 0.3258 0.2923
C35_8 C 0.07500(18) 0.27677(18) 0.29035(13)
H34_8 H 0.0947 0.2432 0.2880
C36_8 C 0.01667(18) 0.27660(16) 0.29191(11)
C39_8 C 0.00968(18) 0.17186(17) 0.29385(11)
H37_8 H 0.0487 0.1697 0.2945
H39_8 H 0.0145 0.0901 0.2039
C44_8 C 0.01863(19) 0.17345(18) 0.19848(14)
H41_8 H 0.0575 0.1759 0.2006
O20_8 O 0.13113(16) 0.02136(18) 0.19194(12)
H70_8 H 0.11474 0.0597311 0.192894
O3_8 O 0.92762(16) 0.51481(17) 0.23223(11)
O4_8 O 0.86887(16) 0.47864(18) 0.19194(12)
C2_8 C 0.97339(16) 0.58020(18) 0.17122(12)
C3_8 C 0.91869(17) 0.5605(2) 0.17463(12)
C4_8 C 0.9048(2) 0.5137(2) 0.20227(16)
C5_8 C 0.87689(19) 0.5830(3) 0.15235(16)
H13_8 H 0.8407 0.5683 0.1532
C6_8 C 0.8887(2) 0.6258(3) 0.12947(16)
H14_8 H 0.8600 0.6409 0.1154
C7_8 C 0.9424(2) 0.6481(2) 0.12629(13)
H15_8 H 0.9495 0.6787 0.1111
C8_8 C 0.98586(17) 0.62308(19) 0.14684(12)
H27_8 H 0.9855 0.4099 0.2039
C29_8 C 0.98137(19) 0.32655(18) 0.19848(14)
H29_8 H 0.9425 0.3241 0.2006
C34_8 C 0.99032(18) 0.32814(17) 0.29385(11)
H33_8 H 0.9513 0.3303 0.2945
N5_8 N 0.92204(14) 0.12345(13) 0.29419(9)
C37_8 C 0.97769(18) 0.12342(17) 0.29485(12)
H35_8 H 0.9962 0.0890 0.2961
C38_8 C 0.89673(18) 0.17328(17) 0.29231(13)
H36_8 H 0.8576 0.1742 0.2923
C40_8 C 0.92500(18) 0.22323(18) 0.29035(13)
H38_8 H 0.9053 0.2568 0.2880
C41_8 C 0.98333(18) 0.22340(16) 0.29191(11)
N6_8 N 0.93712(15) 0.11476(14) 0.19939(10)
C42_8 C 0.99213(18) 0.12187(17) 0.20096(13)
C43_8 C 0.90711(18) 0.16146(17) 0.19353(14)
H40_8 H 0.8682 0.1580 0.1919
C45_8 C 0.92973(19) 0.21396(18) 0.18971(14)
H42_8 H 0.9065 0.2446 0.1851
C46_8 C 0.98683(19) 0.22156(16) 0.19274(12)
Ni6_8 Ni 0.89670(2) 0.03762(2) 0.20785(2)
O26_8 O 0.93169(12) 0.01490(10) 0.25599(8)
H44_8 H 0.9654(9) 0.015(2) 0.2600(14)
O27_8 O 0.83657(11) 0.06737(11) 0.24399(8)
H45_8 H 0.8171(17) 0.0966(13) 0.2384(13)
O30_8 O 0.85554(18) 0.05138(15) 0.15825(10)
H49_8 H 0.8302(13) 0.0281(13) 0.1539(11)
H50_8 H 0.836(3) 0.0831(14) 0.151(3)
O31_8 O 0.73762(15) 0.02991(14) 0.19956(10)
H51_8 H 0.755(3) 0.060(3) 0.191(3)
H52_8 H 0.7032(13) 0.040(4) 0.197(3)
O32_8 O 0.73165(13) 0.04052(14) 0.27977(10)
H53_8 H 0.7451(14) 0.0533(19) 0.2986(8)
H54_8 H 0.6952(8) 0.0391(19) 0.2836(11)
H69_8 H 0.88526 0.440269 0.192894
Ni8_8 Ni 0.78461(2) 0.99819(2) 0.24392(2)
N7_8 N 0.73767(14) 0.92441(14) 0.24232(11)
O17_8 O 0.96044(11) 0.91391(11) 0.21839(8)
O18_8 O 0.96245(11) 0.99280(11) 0.18368(7)
O22_8 O 0.79747(12) 0.95697(12) 0.13379(9)
O24_8 O 0.76464(14) 0.76567(15) 0.13268(9)
O25_8 O 0.84911(11) 0.96668(10) 0.21354(8)
H43_8 H 0.8422(19) 0.9429(16) 0.1968(10)
O28_8 O 0.83723(11) 0.97355(11) 0.28494(8)
H46_8 H 0.8294(18) 0.9660(18) 0.3061(6)
O29_8 O 0.94698(14) 0.91650(13) 0.30177(10)
H47_8 H 0.9421(16) 0.9463(13) 0.3143(11)
H48_8 H 0.9834(9) 0.911(2) 0.3018(15)
C47_8 C 0.97948(15) 0.94478(17) 0.19349(11)
C55_8 C 0.95547(16) 0.85778(18) 0.14126(11)
C56_8 C 0.91550(17) 0.89718(17) 0.13074(11)
H58_8 H 0.9259 0.9348 0.1288
C57_8 C 0.86057(16) 0.88187(17) 0.12302(10)
C58_8 C 0.82238(17) 0.92855(16) 0.11004(13)
C59_8 C 0.84435(17) 0.82612(17) 0.12648(11)
C60_8 C 0.78661(18) 0.80556(18) 0.11526(13)
C61_8 C 0.88400(18) 0.78762(18) 0.13810(12)
H59_8 H 0.8735 0.7502 0.1411
C62_8 C 0.93754(18) 0.80289(19) 0.14515(12)
H60_8 H 0.9631 0.7757 0.1528
C63_8 C 0.7299(2) 0.89609(19) 0.21146(14)
H61_8 H 0.7388 0.9137 0.1895
C64_8 C 0.7204(2) 0.9004(2) 0.27145(14)
H62_8 H 0.7229 0.9207 0.2931
C65_8 C 0.7095(2) 0.84255(19) 0.21041(14)
H63_8 H 0.7070 0.8239 0.1882
C66_8 C 0.6980(2) 0.84574(19) 0.27337(15)
H64_8 H 0.6872 0.8304 0.2956
C67_8 C 0.69256(16) 0.81586(15) 0.24185(12)
C68_8 C 0.67122(17) 0.75758(16) 0.24178(12)
C69_8 C 0.6666(3) 0.7256(2) 0.21139(15)
H65_8 H 0.6763 0.7409 0.1889
C70_8 C 0.6576(3) 0.7303(2) 0.27321(15)
H66_8 H 0.6611 0.7491 0.2953
C71_8 C 0.6481(3) 0.6714(2) 0.21311(14)
H67_8 H 0.6463 0.6511 0.1915
C72_8 C 0.6387(3) 0.6754(2) 0.27304(14)
H68_8 H 0.6300 0.6587 0.2953
O16_5 O 0.20948(14) 0.98165(13) 0.97023(10)
H11_5 H 0.1967(19) 0.9951(14) 0.9514(8)
H12_5 H 0.2109(19) 0.9452(8) 0.9664(11)
C18_5 C 0.3496(2) 0.9704(2) 0.97855(14)
H20_5 H 0.3293 0.9729 0.9569
C20_5 C 0.40426(19) 0.9480(2) 0.97663(15)
H22_5 H 0.4196 0.9372 0.9544
C24_7 C 0.5197(2) 0.9076(3) 0.97679(15)
H24_7 H 0.5009 0.9111 0.9547
C26_7 C 0.5746(2) 0.8887(3) 0.97696(14)
H26_7 H 0.5913 0.8800 0.9547
N1_7 N 0.17441(14) 0.01233(14) 0.50768(11)
O15_7 O 0.27991(14) 0.01238(15) 0.55044(10)
H10_7 H 0.290(4) 0.0468(13) 0.553(3)
O16_6 O 0.29052(14) 0.01835(13) 0.47023(10)
H11_6 H 0.3033(19) 0.0049(14) 0.4514(8)
H12_6 H 0.2891(19) 0.0548(8) 0.4664(11)
C17_7 C 0.14609(19) 0.0201(2) 0.53854(14)
H19_7 H 0.1637 0.0112 0.5605
C18_6 C 0.1504(2) 0.0296(2) 0.47855(14)
H20_6 H 0.1707 0.0271 0.4569
C19_7 C 0.09255(19) 0.0405(2) 0.53959(14)
H21_7 H 0.0739 0.0430 0.5618
C20_6 C 0.09574(19) 0.0520(2) 0.47663(15)
H22_6 H 0.0804 0.0628 0.4544
C21_7 C 0.06586(15) 0.05744(16) 0.50815(12)
C22_7 C 0.00758(16) 0.07878(17) 0.50822(12)
O19_7 O 0.92762(16) 0.01481(17) 0.76777(11)
C48_7 C 0.97339(16) 0.08020(18) 0.82878(12)
C49_7 C 0.91869(17) 0.0605(2) 0.82537(12)
C50_7 C 0.9048(2) 0.0137(2) 0.79773(16)
C51_7 C 0.87689(19) 0.0830(3) 0.84765(16)
H55_7 H 0.8407 0.0683 0.8468
C52_7 C 0.8887(2) 0.1258(3) 0.87053(16)
H56_7 H 0.8600 0.1409 0.8846
C53_7 C 0.9424(2) 0.1481(2) 0.87371(13)
H57_7 H 0.9495 0.1787 0.8889
C54_7 C 0.98586(17) 0.12308(19) 0.85316(12)
O16_7 O 0.79052(14) 0.01835(13) 0.02977(10)
H11_7 H 0.8033(19) 0.0049(14) 0.0486(8)
H12_7 H 0.7891(19) 0.0548(8) 0.0336(11)
C18_7 C 0.6504(2) 0.0296(2) 0.02145(14)
H20_7 H 0.6707 0.0271 0.0431
C20_7 C 0.59574(19) 0.0520(2) 0.02337(15)
H22_7 H 0.5804 0.0628 0.0456
C24_8 C 0.4803(2) 0.0924(3) 0.02321(15)
H24_8 H 0.4991 0.0889 0.0453
C26_8 C 0.4254(2) 0.1113(3) 0.02304(14)
H26_8 H 0.4087 0.1200 0.0453
N1_8 N 0.82559(14) 0.98767(14) 0.49232(11)
O15_8 O 0.72009(14) 0.98762(15) 0.44956(10)
H10_8 H 0.710(4) 0.9532(13) 0.447(3)
O16_8 O 0.70948(14) 0.98165(13) 0.52977(10)
H11_8 H 0.6967(19) 0.9951(14) 0.5486(8)
H12_8 H 0.7109(19) 0.9452(8) 0.5336(11)
C17_8 C 0.85391(19) 0.9799(2) 0.46146(14)
H19_8 H 0.8363 0.9888 0.4395
C18_8 C 0.8496(2) 0.9704(2) 0.52145(14)
H20_8 H 0.8293 0.9729 0.5431
C19_8 C 0.90745(19) 0.9595(2) 0.46041(14)
H21_8 H 0.9261 0.9570 0.4382
C20_8 C 0.90426(19) 0.9480(2) 0.52337(15)
H22_8 H 0.9196 0.9372 0.5456
C21_8 C 0.93414(15) 0.94256(16) 0.49185(12)
C22_8 C 0.99242(16) 0.92122(17) 0.49178(12)
O19_8 O 0.07238(16) 0.98519(17) 0.23223(11)
C48_8 C 0.02661(16) 0.91980(18) 0.17122(12)
C49_8 C 0.08131(17) 0.9395(2) 0.17463(12)
C50_8 C 0.0952(2) 0.9863(2) 0.20227(16)
C51_8 C 0.12311(19) 0.9170(3) 0.15235(16)
H55_8 H 0.1593 0.9317 0.1532
C52_8 C 0.1113(2) 0.8742(3) 0.12947(16)
H56_8 H 0.1400 0.8591 0.1154
C53_8 C 0.0576(2) 0.8519(2) 0.12629(13)
H57_8 H 0.0505 0.8213 0.1111
C54_8 C 0.01414(17) 0.87692(19) 0.14684(12)
loop_
_geom_bond_atom_site_label_1
_geom_bond_atom_site_label_2
_geom_bond_site_symmetry_1
_geom_bond_site_symmetry_2
Ni2 N4 1_555 1_555
N4 C27 1_555 1_555
O1 C1 1_555 1_555
O2 Ni2 1_555 1_555
O3 C4 1_555 1_555
O4 C4 1_555 1_555
O5 C12 1_555 1_555
O6 C12 1_555 1_555
O7 C14 1_555 1_555
O8 C14 1_555 1_555
H1 O9 1_555 1_555
O11 Ni2 1_555 1_555
H3 O11 1_555 1_555
O14 Ni2 1_555 1_555
H7 O14 1_555 1_555
H8 O14 1_555 1_555
C1 O2 1_555 1_555
C2 C1 1_555 1_555
C3 C2 1_555 1_555
C4 C3 1_555 1_555
C5 C3 1_555 1_555
H13 C5 1_555 1_555
C6 C5 1_555 1_555
H14 C6 1_555 1_555
C7 C6 1_555 1_555
H15 C7 1_555 1_555
C8 C2 1_555 1_555
C9 C8 1_555 1_555
C10 C9 1_555 1_555
H16 C10 1_555 1_555
C11 C10 1_555 1_555
C12 C11 1_555 1_555
C13 C11 1_555 1_555
C14 C13 1_555 1_555
C15 C13 1_555 1_555
H17 C15 1_555 1_555
C16 C9 1_555 1_555
H18 C16 1_555 1_555
C27 H27 1_555 1_555
C28 N4 1_555 1_555
H28 C28 1_555 1_555
C29 C27 1_555 1_555
H29 C29 1_555 1_555
C30 C28 1_555 1_555
H30 C30 1_555 1_555
C31 C29 1_555 1_555
Ni12 O5 1_555 1_555
Ni2 O9 1_555 1_555
Ni4 O9 1_555 1_555
Ni4 O11 1_555 1_555
O7 Ni12 1_555 1_555
C7 C8 1_555 1_555
C15 C16 1_555 1_555
C30 C31 1_555 1_555
O4 H69 1_555 1_555
Ni3 N2 1_555 1_555
N2 C32 1_555 1_555
O10 Ni1 1_555 1_555
H2 O10 1_555 1_555
O12 Ni1 1_555 1_555
H4 O12 1_555 1_555
O13 Ni1 1_555 1_555
H5 O13 1_555 1_555
H6 O13 1_555 1_555
C32 H31 1_555 1_555
C33 N2 1_555 1_555
H32 C33 1_555 1_555
C34 C32 1_555 1_555
H33 C34 1_555 1_555
C35 C33 1_555 1_555
C36 C34 1_555 1_555
N9 Ni1 1_555 1_555
O34 Ni3 1_555 1_555
O36 Ni3 1_555 1_555
Ni3 O10 1_555 1_555
Ni3 O12 1_555 1_555
C35 C36 1_555 1_555
N1 C17 1_555 1_555
N3 C25 1_555 1_555
H10 O15 1_555 1_555
C17 H19 1_555 1_555
C19 C17 1_555 1_555
H21 C19 1_555 1_555
C21 C19 1_555 1_555
C22 C21 1_555 1_555
C23 C22 1_555 1_555
H23 C23 1_555 1_555
C25 C23 1_555 1_555
H25 C25 1_555 1_555
Ni9 N3 1_555 1_555
N6 C42 1_555 1_555
C42 H39 1_555 1_555
C43 N6 1_555 1_555
H40 C43 1_555 1_555
C44 C42 1_555 1_555
H41 C44 1_555 1_555
C45 C43 1_555 1_555
H42 C45 1_555 1_555
Ni6 N6 1_555 1_555
Ni8 N7 1_555 1_555
N7 C63 1_555 1_555
N8 C71 1_555 1_555
O17 C47 1_555 1_555
O18 Ni6 1_555 1_555
O19 C50 1_555 1_555
O20 C50 1_555 1_555
O21 C58 1_555 1_555
O22 C58 1_555 1_555
O23 C60 1_555 1_555
O24 C60 1_555 1_555
H43 O25 1_555 1_555
O27 Ni6 1_555 1_555
H45 O27 1_555 1_555
O30 Ni6 1_555 1_555
H49 O30 1_555 1_555
H50 O30 1_555 1_555
O31 Ni8 1_555 1_555
H51 O31 1_555 1_555
H52 O31 1_555 1_555
C47 O18 1_555 1_555
C48 C47 1_555 1_555
C49 C48 1_555 1_555
C50 C49 1_555 1_555
C51 C49 1_555 1_555
H55 C51 1_555 1_555
C52 C51 1_555 1_555
H56 C52 1_555 1_555
C53 C52 1_555 1_555
H57 C53 1_555 1_555
C54 C48 1_555 1_555
C55 C54 1_555 1_555
C56 C55 1_555 1_555
H58 C56 1_555 1_555
C57 C56 1_555 1_555
C58 C57 1_555 1_555
C59 C57 1_555 1_555
C60 C59 1_555 1_555
C61 C59 1_555 1_555
H59 C61 1_555 1_555
C62 C55 1_555 1_555
H60 C62 1_555 1_555
C63 H61 1_555 1_555
C65 C63 1_555 1_555
H63 C65 1_555 1_555
C67 C65 1_555 1_555
C68 C67 1_555 1_555
C69 C68 1_555 1_555
H65 C69 1_555 1_555
C71 C69 1_555 1_555
H67 C71 1_555 1_555
Ni10 N8 1_555 1_555
Ni11 O21 1_555 1_555
C44 C46 1_555 1_555
C45 C46 1_555 1_555
Ni6 O25 1_555 1_555
Ni8 O25 1_555 1_555
Ni8 O27 1_555 1_555
O23 Ni11 1_555 1_555
C53 C54 1_555 1_555
C61 C62 1_555 1_555
O20 H70 1_555 1_555
N5 C37 1_555 1_555
C37 H35 1_555 1_555
C38 N5 1_555 1_555
H36 C38 1_555 1_555
C39 C37 1_555 1_555
H37 C39 1_555 1_555
C40 C38 1_555 1_555
Ni7 N5 1_555 1_555
O26 Ni5 1_555 1_555
H44 O26 1_555 1_555
O28 Ni5 1_555 1_555
H46 O28 1_555 1_555
O29 Ni5 1_555 1_555
H47 O29 1_555 1_555
H48 O29 1_555 1_555
H53 O32 1_555 1_555
H54 O32 1_555 1_555
H62 C64 1_555 1_555
C66 C64 1_555 1_555
H64 C66 1_555 1_555
H66 C70 1_555 1_555
H68 C72 1_555 1_555
N10 Ni5 1_555 1_555
O33 Ni7 1_555 1_555
O35 Ni7 1_555 1_555
C39 C41 1_555 1_555
C40 C41 1_555 1_555
Ni7 O26 1_555 1_555
Ni7 O28 1_555 1_555
C70 C72 1_555 1_555
N8_2 C71_2 1_555 1_555
H65_2 C69_2 1_555 1_555
H66_2 C70_2 1_555 1_555
C71_2 C69_2 1_555 1_555
H67_2 C71_2 1_555 1_555
C72_2 N8_2 1_555 1_555
H68_2 C72_2 1_555 1_555
Ni10_2 N8_2 1_555 1_555
C70_2 C72_2 1_555 1_555
Ni1_2 O1_2 1_555 1_555
Ni2_2 N4_2 1_555 1_555
Ni3_2 N2_2 1_555 1_555
N2_2 C32_2 1_555 1_555
N4_2 C27_2 1_555 1_555
O1_2 C1_2 1_555 1_555
O2_2 Ni2_2 1_555 1_555
O3_2 C4_2 1_555 1_555
O4_2 C4_2 1_555 1_555
O5_2 C12_2 1_555 1_555
O6_2 C12_2 1_555 1_555
O7_2 C14_2 1_555 1_555
O8_2 C14_2 1_555 1_555
O9_2 Ni1_2 1_555 1_555
H1_2 O9_2 1_555 1_555
O10_2 Ni1_2 1_555 1_555
H2_2 O10_2 1_555 1_555
O11_2 Ni2_2 1_555 1_555
H3_2 O11_2 1_555 1_555
O12_2 Ni1_2 1_555 1_555
H4_2 O12_2 1_555 1_555
O13_2 Ni1_2 1_555 1_555
H5_2 O13_2 1_555 1_555
H6_2 O13_2 1_555 1_555
O14_2 Ni2_2 1_555 1_555
H7_2 O14_2 1_555 1_555
H8_2 O14_2 1_555 1_555
C1_2 O2_2 1_555 1_555
C2_2 C1_2 1_555 1_555
C3_2 C2_2 1_555 1_555
C4_2 C3_2 1_555 1_555
C5_2 C3_2 1_555 1_555
H13_2 C5_2 1_555 1_555
C6_2 C5_2 1_555 1_555
H14_2 C6_2 1_555 1_555
C7_2 C6_2 1_555 1_555
H15_2 C7_2 1_555 1_555
C8_2 C2_2 1_555 1_555
C9_2 C8_2 1_555 1_555
C10_2 C9_2 1_555 1_555
H16_2 C10_2 1_555 1_555
C11_2 C10_2 1_555 1_555
C12_2 C11_2 1_555 1_555
C13_2 C11_2 1_555 1_555
C14_2 C13_2 1_555 1_555
C15_2 C13_2 1_555 1_555
H17_2 C15_2 1_555 1_555
C16_2 C9_2 1_555 1_555
H18_2 C16_2 1_555 1_555
C27_2 H27_2 1_555 1_555
C28_2 N4_2 1_555 1_555
H28_2 C28_2 1_555 1_555
C29_2 C27_2 1_555 1_555
H29_2 C29_2 1_555 1_555
C30_2 C28_2 1_555 1_555
H30_2 C30_2 1_555 1_555
C31_2 C29_2 1_555 1_555
C32_2 H31_2 1_555 1_555
C33_2 N2_2 1_555 1_555
H32_2 C33_2 1_555 1_555
C34_2 C32_2 1_555 1_555
H33_2 C34_2 1_555 1_555
C35_2 C33_2 1_555 1_555
H34_2 C35_2 1_555 1_555
C36_2 C34_2 1_555 1_555
N5_2 C37_2 1_555 1_555
C37_2 H35_2 1_555 1_555
C38_2 N5_2 1_555 1_555
H36_2 C38_2 1_555 1_555
C39_2 C37_2 1_555 1_555
H37_2 C39_2 1_555 1_555
C40_2 C38_2 1_555 1_555
H38_2 C40_2 1_555 1_555
C41_2 C36_2 1_555 1_555
N6_2 C42_2 1_555 1_555
C42_2 H39_2 1_555 1_555
C43_2 N6_2 1_555 1_555
H40_2 C43_2 1_555 1_555
C44_2 C42_2 1_555 1_555
H41_2 C44_2 1_555 1_555
C45_2 C43_2 1_555 1_555
H42_2 C45_2 1_555 1_555
C46_2 C31_2 1_555 1_555
Ni5_2 O17_2 1_555 1_555
Ni6_2 N6_2 1_555 1_555
Ni7_2 N5_2 1_555 1_555
Ni8_2 N7_2 1_555 1_555
N7_2 C63_2 1_555 1_555
O17_2 C47_2 1_555 1_555
O18_2 Ni6_2 1_555 1_555
O19_2 C50_2 1_555 1_555
O20_2 C50_2 1_555 1_555
O21_2 C58_2 1_555 1_555
O22_2 C58_2 1_555 1_555
O23_2 C60_2 1_555 1_555
O24_2 C60_2 1_555 1_555
O25_2 Ni5_2 1_555 1_555
H43_2 O25_2 1_555 1_555
O26_2 Ni5_2 1_555 1_555
H44_2 O26_2 1_555 1_555
O27_2 Ni6_2 1_555 1_555
H45_2 O27_2 1_555 1_555
O28_2 Ni5_2 1_555 1_555
H46_2 O28_2 1_555 1_555
O29_2 Ni5_2 1_555 1_555
H47_2 O29_2 1_555 1_555
H48_2 O29_2 1_555 1_555
O30_2 Ni6_2 1_555 1_555
H49_2 O30_2 1_555 1_555
H50_2 O30_2 1_555 1_555
O31_2 Ni8_2 1_555 1_555
H51_2 O31_2 1_555 1_555
H52_2 O31_2 1_555 1_555
O32_2 Ni8_2 1_555 1_555
H53_2 O32_2 1_555 1_555
H54_2 O32_2 1_555 1_555
C47_2 O18_2 1_555 1_555
C48_2 C47_2 1_555 1_555
C49_2 C48_2 1_555 1_555
C50_2 C49_2 1_555 1_555
C51_2 C49_2 1_555 1_555
H55_2 C51_2 1_555 1_555
C52_2 C51_2 1_555 1_555
H56_2 C52_2 1_555 1_555
C53_2 C52_2 1_555 1_555
H57_2 C53_2 1_555 1_555
C54_2 C48_2 1_555 1_555
C55_2 C54_2 1_555 1_555
C56_2 C55_2 1_555 1_555
H58_2 C56_2 1_555 1_555
C57_2 C56_2 1_555 1_555
C58_2 C57_2 1_555 1_555
C59_2 C57_2 1_555 1_555
C60_2 C59_2 1_555 1_555
C61_2 C59_2 1_555 1_555
H59_2 C61_2 1_555 1_555
C62_2 C55_2 1_555 1_555
H60_2 C62_2 1_555 1_555
C63_2 H61_2 1_555 1_555
C64_2 N7_2 1_555 1_555
H62_2 C64_2 1_555 1_555
C65_2 C63_2 1_555 1_555
H63_2 C65_2 1_555 1_555
C66_2 C64_2 1_555 1_555
H64_2 C66_2 1_555 1_555
C67_2 C65_2 1_555 1_555
C68_2 C67_2 1_555 1_555
Ni11_2 O21_2 1_555 1_555
Ni12_2 O5_2 1_555 1_555
N9_2 Ni1_2 1_555 1_555
N10_2 Ni5_2 1_555 1_555
O33_2 Ni7_2 1_555 1_555
O34_2 Ni3_2 1_555 1_555
O35_2 Ni7_2 1_555 1_555
O36_2 Ni3_2 1_555 1_555
Ni2_2 O9_2 1_555 1_555
Ni2_2 O10_2 1_555 1_555
Ni3_2 O10_2 1_555 1_555
Ni3_2 O11_2 1_555 1_555
Ni3_2 O12_2 1_555 1_555
Ni4_2 O9_2 1_555 1_555
Ni4_2 O11_2 1_555 1_555
Ni4_2 O12_2 1_555 1_555
O7_2 Ni12_2 1_555 1_555
C7_2 C8_2 1_555 1_555
C15_2 C16_2 1_555 1_555
C30_2 C31_2 1_555 1_555
C35_2 C36_2 1_555 1_555
C39_2 C41_2 1_555 1_555
C40_2 C41_2 1_555 1_555
C44_2 C46_2 1_555 1_555
C45_2 C46_2 1_555 1_555
Ni6_2 O25_2 1_555 1_555
Ni6_2 O26_2 1_555 1_555
Ni7_2 O26_2 1_555 1_555
Ni7_2 O27_2 1_555 1_555
Ni7_2 O28_2 1_555 1_555
Ni8_2 O25_2 1_555 1_555
Ni8_2 O27_2 1_555 1_555
Ni8_2 O28_2 1_555 1_555
O23_2 Ni11_2 1_555 1_555
C53_2 C54_2 1_555 1_555
C61_2 C62_2 1_555 1_555
C66_2 C67_2 1_555 1_555
O4_2 H69_2 1_555 1_555
O20_2 H70_2 1_555 1_555
N3_2 C25_2 1_555 1_555
H23_2 C23_2 1_555 1_555
H24 C24 1_555 1_555
C25_2 C23_2 1_555 1_555
H25_2 C25_2 1_555 1_555
C26 N3_2 1_555 1_555
H26 C26 1_555 1_555
Ni9_2 N3_2 1_555 1_555
C24 C26 1_555 1_555
Ni1_3 O1_3 1_555 1_555
Ni2_3 N4_3 1_555 1_555
Ni11 N2_3 1_555 1_555
Ni4_3 N1_2 1_555 1_555
N1_2 C17_2 1_555 1_555
N2_3 C32_3 1_555 1_555
N3_3 C25_3 1_555 1_555
N4_3 C27_3 1_555 1_555
O1_3 C1_3 1_555 1_555
O2_3 Ni2_3 1_555 1_555
O3_3 C4_3 1_555 1_555
O4_3 C4_3 1_555 1_555
O33_2 C12_3 1_555 1_555
O6_3 C12_3 1_555 1_555
O35_2 C14_3 1_555 1_555
O8_3 C14_3 1_555 1_555
O9_3 Ni1_3 1_555 1_555
H1_3 O9_3 1_555 1_555
O10_3 Ni1_3 1_555 1_555
H2_3 O10_3 1_555 1_555
O11_3 Ni2_3 1_555 1_555
H3_3 O11_3 1_555 1_555
O12_3 Ni1_3 1_555 1_555
H4_3 O12_3 1_555 1_555
O13_3 Ni1_3 1_555 1_555
H5_3 O13_3 1_555 1_555
H6_3 O13_3 1_555 1_555
O14_3 Ni2_3 1_555 1_555
H7_3 O14_3 1_555 1_555
H8_3 O14_3 1_555 1_555
O15_2 Ni4_3 1_555 1_555
H9_3 O15_2 1_555 1_555
H10_2 O15_2 1_555 1_555
O16 Ni4_3 1_555 1_555
H11 O16 1_555 1_555
H12 O16 1_555 1_555
C1_3 O2_3 1_555 1_555
C2_3 C1_3 1_555 1_555
C3_3 C2_3 1_555 1_555
C4_3 C3_3 1_555 1_555
C5_3 C3_3 1_555 1_555
H13_3 C5_3 1_555 1_555
C6_3 C5_3 1_555 1_555
H14_3 C6_3 1_555 1_555
C7_3 C6_3 1_555 1_555
H15_3 C7_3 1_555 1_555
C8_3 C2_3 1_555 1_555
C9_3 C8_3 1_555 1_555
C10_3 C9_3 1_555 1_555
H16_3 C10_3 1_555 1_555
C11_3 C10_3 1_555 1_555
C12_3 C11_3 1_555 1_555
C13_3 C11_3 1_555 1_555
C14_3 C13_3 1_555 1_555
C15_3 C13_3 1_555 1_555
H17_3 C15_3 1_555 1_555
C16_3 C9_3 1_555 1_555
H18_3 C16_3 1_555 1_555
C17_2 H19_2 1_555 1_555
C18 N1_2 1_555 1_555
H20 C18 1_555 1_555
C19_2 C17_2 1_555 1_555
H21_2 C19_2 1_555 1_555
C20 C18 1_555 1_555
H22 C20 1_555 1_555
C21_2 C19_2 1_555 1_555
C22_2 C21_2 1_555 1_555
C23_3 C22_2 1_555 1_555
H23_3 C23_3 1_555 1_555
C24_2 C22_2 1_555 1_555
H24_2 C24_2 1_555 1_555
C25_3 C23_3 1_555 1_555
H25_3 C25_3 1_555 1_555
C26_2 N3_3 1_555 1_555
H26_2 C26_2 1_555 1_555
C27_3 H27_3 1_555 1_555
C28_3 N4_3 1_555 1_555
H28_3 C28_3 1_555 1_555
C29_3 C27_3 1_555 1_555
H29_3 C29_3 1_555 1_555
C30_3 C28_3 1_555 1_555
H30_3 C30_3 1_555 1_555
C31_3 C29_3 1_555 1_555
C32_3 H31_3 1_555 1_555
C33_3 N2_3 1_555 1_555
H32_3 C33_3 1_555 1_555
C34_3 C32_3 1_555 1_555
H33_3 C34_3 1_555 1_555
C35_3 C33_3 1_555 1_555
H34_3 C35_3 1_555 1_555
C36_3 C34_3 1_555 1_555
N5_3 C37_3 1_555 1_555
C37_3 H35_3 1_555 1_555
C38_3 N5_3 1_555 1_555
H36_3 C38_3 1_555 1_555
C39_3 C37_3 1_555 1_555
H37_3 C39_3 1_555 1_555
C40_3 C38_3 1_555 1_555
H38_3 C40_3 1_555 1_555
C41_3 C36_3 1_555 1_555
N6_3 C42_3 1_555 1_555
C42_3 H39_3 1_555 1_555
C43_3 N6_3 1_555 1_555
H40_3 C43_3 1_555 1_555
C44_3 C42_3 1_555 1_555
H41_3 C44_3 1_555 1_555
C45_3 C43_3 1_555 1_555
H42_3 C45_3 1_555 1_555
C46_3 C31_3 1_555 1_555
Ni6_3 N6_3 1_555 1_555
Ni12 N5_3 1_555 1_555
H44_3 O26_3 1_555 1_555
O27_3 Ni6_3 1_555 1_555
H45_3 O27_3 1_555 1_555
O30_3 Ni6_3 1_555 1_555
H49_3 O30_3 1_555 1_555
H50_3 O30_3 1_555 1_555
H51_3 O31_3 1_555 1_555
H52_3 O31_3 1_555 1_555
H53_3 O32_3 1_555 1_555
H54_3 O32_3 1_555 1_555
Ni9_3 N3_3 1_555 1_555
N9_3 Ni1_3 1_555 1_555
Ni2_3 O9_3 1_555 1_555
Ni2_3 O10_3 1_555 1_555
Ni11 O10_3 1_555 1_555
Ni11 O11_3 1_555 1_555
Ni11 O12_3 1_555 1_555
Ni4_3 O9_3 1_555 1_555
Ni4_3 O11_3 1_555 1_555
Ni4_3 O12_3 1_555 1_555
C7_3 C8_3 1_555 1_555
C15_3 C16_3 1_555 1_555
C20 C21_2 1_555 1_555
C24_2 C26_2 1_555 1_555
C30_3 C31_3 1_555 1_555
C35_3 C36_3 1_555 1_555
C39_3 C41_3 1_555 1_555
C40_3 C41_3 1_555 1_555
C44_3 C46_3 1_555 1_555
C45_3 C46_3 1_555 1_555
Ni6_3 O26_3 1_555 1_555
Ni12 O26_3 1_555 1_555
Ni12 O27_3 1_555 1_555
O4_3 H69_3 1_555 1_555
O20_3 H70_3 1_555 1_555
Ni5_3 O17_3 1_555 1_555
Ni8_3 N7_3 1_555 1_555
N7_3 C63_3 1_555 1_555
N8_3 C71_3 1_555 1_555
O17_3 C47_3 1_555 1_555
O19_3 C50_3 1_555 1_555
O34_2 C58_3 1_555 1_555
O22_3 C58_3 1_555 1_555
O36_2 C60_3 1_555 1_555
O24_3 C60_3 1_555 1_555
O25_3 Ni5_3 1_555 1_555
H43_3 O25_3 1_555 1_555
O28_3 Ni5_3 1_555 1_555
H46_3 O28_3 1_555 1_555
O29_3 Ni5_3 1_555 1_555
H47_3 O29_3 1_555 1_555
H48_3 O29_3 1_555 1_555
C47_3 O18_3 1_555 1_555
C48_3 C47_3 1_555 1_555
C49_3 C48_3 1_555 1_555
C50_3 C49_3 1_555 1_555
C51_3 C49_3 1_555 1_555
H55_3 C51_3 1_555 1_555
C52_3 C51_3 1_555 1_555
H56_3 C52_3 1_555 1_555
C53_3 C52_3 1_555 1_555
H57_3 C53_3 1_555 1_555
C54_3 C48_3 1_555 1_555
C55_3 C54_3 1_555 1_555
C56_3 C55_3 1_555 1_555
H58_3 C56_3 1_555 1_555
C57_3 C56_3 1_555 1_555
C58_3 C57_3 1_555 1_555
C59_3 C57_3 1_555 1_555
C60_3 C59_3 1_555 1_555
C61_3 C59_3 1_555 1_555
H59_3 C61_3 1_555 1_555
C62_3 C55_3 1_555 1_555
H60_3 C62_3 1_555 1_555
C63_3 H61_3 1_555 1_555
C64_3 N7_3 1_555 1_555
H62_3 C64_3 1_555 1_555
C65_3 C63_3 1_555 1_555
H63_3 C65_3 1_555 1_555
C66_3 C64_3 1_555 1_555
H64_3 C66_3 1_555 1_555
C67_3 C65_3 1_555 1_555
C68_3 C67_3 1_555 1_555
C69_3 C68_3 1_555 1_555
H65_3 C69_3 1_555 1_555
C70_3 C68_3 1_555 1_555
H66_3 C70_3 1_555 1_555
C71_3 C69_3 1_555 1_555
H67_3 C71_3 1_555 1_555
C72_3 N8_3 1_555 1_555
H68_3 C72_3 1_555 1_555
Ni10_3 N8_3 1_555 1_555
N10_3 Ni5_3 1_555 1_555
Ni8_3 O25_3 1_555 1_555
Ni8_3 O28_3 1_555 1_555
C53_3 C54_3 1_555 1_555
C61_3 C62_3 1_555 1_555
C66_3 C67_3 1_555 1_555
C70_3 C72_3 1_555 1_555
Ni5_4 O17_4 1_555 1_555
Ni8_4 N7_4 1_555 1_555
N7_4 C63_4 1_555 1_555
N8_4 C71_4 1_555 1_555
O17_4 C47_4 1_555 1_555
O34 C58_4 1_555 1_555
O22_4 C58_4 1_555 1_555
O36 C60_4 1_555 1_555
O24_4 C60_4 1_555 1_555
O25_4 Ni5_4 1_555 1_555
H43_4 O25_4 1_555 1_555
O28_4 Ni5_4 1_555 1_555
H46_4 O28_4 1_555 1_555
O29_4 Ni5_4 1_555 1_555
H47_4 O29_4 1_555 1_555
H48_4 O29_4 1_555 1_555
C47_4 O18_4 1_555 1_555
C56_4 C55_4 1_555 1_555
H58_4 C56_4 1_555 1_555
C57_4 C56_4 1_555 1_555
C58_4 C57_4 1_555 1_555
C59_4 C57_4 1_555 1_555
C60_4 C59_4 1_555 1_555
C61_4 C59_4 1_555 1_555
H59_4 C61_4 1_555 1_555
C62_4 C55_4 1_555 1_555
H60_4 C62_4 1_555 1_555
C63_4 H61_4 1_555 1_555
C64_4 N7_4 1_555 1_555
H62_4 C64_4 1_555 1_555
C65_4 C63_4 1_555 1_555
H63_4 C65_4 1_555 1_555
C66_4 C64_4 1_555 1_555
H64_4 C66_4 1_555 1_555
C67_4 C65_4 1_555 1_555
C68_4 C67_4 1_555 1_555
C69_4 C68_4 1_555 1_555
H65_4 C69_4 1_555 1_555
C70_4 C68_4 1_555 1_555
H66_4 C70_4 1_555 1_555
C71_4 C69_4 1_555 1_555
H67_4 C71_4 1_555 1_555
C72_4 N8_4 1_555 1_555
H68_4 C72_4 1_555 1_555
Ni10_4 N8_4 1_555 1_555
N10_4 Ni5_4 1_555 1_555
Ni8_4 O25_4 1_555 1_555
Ni8_4 O28_4 1_555 1_555
C61_4 C62_4 1_555 1_555
C66_4 C67_4 1_555 1_555
C70_4 C72_4 1_555 1_555
O3_4 C4_4 1_555 1_555
O4_4 C4_4 1_555 1_555
C3_4 C2_4 1_555 1_555
C4_4 C3_4 1_555 1_555
C5_4 C3_4 1_555 1_555
H13_4 C5_4 1_555 1_555
C6_4 C5_4 1_555 1_555
H14_4 C6_4 1_555 1_555
C7_4 C6_4 1_555 1_555
H15_4 C7_4 1_555 1_555
C8_4 C2_4 1_555 1_555
H29_4 C29_4 1_555 1_555
H33_4 C34_4 1_555 1_555
N5_4 C37_4 1_555 1_555
C37_4 H35_4 1_555 1_555
C38_4 N5_4 1_555 1_555
H36_4 C38_4 1_555 1_555
C40_4 C38_4 1_555 1_555
H38_4 C40_4 1_555 1_555
N6_4 C42_4 1_555 1_555
C43_4 N6_4 1_555 1_555
H40_4 C43_4 1_555 1_555
C45_4 C43_4 1_555 1_555
H42_4 C45_4 1_555 1_555
Ni6_4 N6_4 1_555 1_555
Ni12_2 N5_4 1_555 1_555
H44_4 O26_4 1_555 1_555
O27_4 Ni6_4 1_555 1_555
H45_4 O27_4 1_555 1_555
O30_4 Ni6_4 1_555 1_555
H49_4 O30_4 1_555 1_555
H50_4 O30_4 1_555 1_555
H51_4 O31_4 1_555 1_555
H52_4 O31_4 1_555 1_555
H53_4 O32_4 1_555 1_555
H54_4 O32_4 1_555 1_555
C7_4 C8_4 1_555 1_555
C40_4 C41_4 1_555 1_555
C45_4 C46_4 1_555 1_555
Ni6_4 O26_4 1_555 1_555
Ni12_2 O26_4 1_555 1_555
Ni12_2 O27_4 1_555 1_555
O4_4 H69_4 1_555 1_555
Ni1_4 O1_4 1_555 1_555
Ni2_4 N4_4 1_555 1_555
Ni11_2 N2_4 1_555 1_555
Ni4_4 N1_3 1_555 1_555
N1_3 C17_3 1_555 1_555
N2_4 C32_4 1_555 1_555
N3_4 C25_4 1_555 1_555
N4_4 C27_4 1_555 1_555
O1_4 C1_4 1_555 1_555
O2_4 Ni2_4 1_555 1_555
O33 C12_4 1_555 1_555
O6_4 C12_4 1_555 1_555
O35 C14_4 1_555 1_555
O8_4 C14_4 1_555 1_555
O9_4 Ni1_4 1_555 1_555
H1_4 O9_4 1_555 1_555
O10_4 Ni1_4 1_555 1_555
H2_4 O10_4 1_555 1_555
O11_4 Ni2_4 1_555 1_555
H3_4 O11_4 1_555 1_555
O12_4 Ni1_4 1_555 1_555
H4_4 O12_4 1_555 1_555
O13_4 Ni1_4 1_555 1_555
H5_4 O13_4 1_555 1_555
H6_4 O13_4 1_555 1_555
O14_4 Ni2_4 1_555 1_555
H7_4 O14_4 1_555 1_555
H8_4 O14_4 1_555 1_555
O15_3 Ni4_4 1_555 1_555
H9_4 O15_3 1_555 1_555
H10_3 O15_3 1_555 1_555
O16_2 Ni4_4 1_555 1_555
H11_2 O16_2 1_555 1_555
H12_2 O16_2 1_555 1_555
C1_4 O2_4 1_555 1_555
C10_4 C9_4 1_555 1_555
H16_4 C10_4 1_555 1_555
C11_4 C10_4 1_555 1_555
C12_4 C11_4 1_555 1_555
C13_4 C11_4 1_555 1_555
C14_4 C13_4 1_555 1_555
C15_4 C13_4 1_555 1_555
H17_4 C15_4 1_555 1_555
C16_4 C9_4 1_555 1_555
H18_4 C16_4 1_555 1_555
C17_3 H19_3 1_555 1_555
C18_2 N1_3 1_555 1_555
H20_2 C18_2 1_555 1_555
C19_3 C17_3 1_555 1_555
H21_3 C19_3 1_555 1_555
C20_2 C18_2 1_555 1_555
H22_2 C20_2 1_555 1_555
C21_3 C19_3 1_555 1_555
C22_3 C21_3 1_555 1_555
C23_4 C22_3 1_555 1_555
H23_4 C23_4 1_555 1_555
C24_3 C22_3 1_555 1_555
H24_3 C24_3 1_555 1_555
C25_4 C23_4 1_555 1_555
H25_4 C25_4 1_555 1_555
C26_3 N3_4 1_555 1_555
H26_3 C26_3 1_555 1_555
C28_4 N4_4 1_555 1_555
H28_4 C28_4 1_555 1_555
C30_4 C28_4 1_555 1_555
H30_4 C30_4 1_555 1_555
C32_4 H31_4 1_555 1_555
C33_4 N2_4 1_555 1_555
H32_4 C33_4 1_555 1_555
C35_4 C33_4 1_555 1_555
H34_4 C35_4 1_555 1_555
H37_4 C39_4 1_555 1_555
H41_4 C44_4 1_555 1_555
Ni9_4 N3_4 1_555 1_555
N9_4 Ni1_4 1_555 1_555
Ni2_4 O9_4 1_555 1_555
Ni2_4 O10_4 1_555 1_555
Ni11_2 O10_4 1_555 1_555
Ni11_2 O11_4 1_555 1_555
Ni11_2 O12_4 1_555 1_555
Ni4_4 O9_4 1_555 1_555
Ni4_4 O11_4 1_555 1_555
Ni4_4 O12_4 1_555 1_555
C15_4 C16_4 1_555 1_555
C20_2 C21_3 1_555 1_555
C24_3 C26_3 1_555 1_555
C30_4 C31_4 1_555 1_555
C35_4 C36_4 1_555 1_555
O20_4 H70_4 1_555 1_555
N5_5 C37_5 1_555 1_555
C37_5 H35_5 1_555 1_555
C38_5 N5_5 1_555 1_555
H36_5 C38_5 1_555 1_555
C39_5 C37_5 1_555 1_555
H37_5 C39_5 1_555 1_555
C40_5 C38_5 1_555 1_555
Ni7_3 N5_5 1_555 1_555
O26_5 Ni10 1_555 1_555
H44_5 O26_5 1_555 1_555
O28_5 Ni10 1_555 1_555
H46_5 O28_5 1_555 1_555
O29_5 Ni10 1_555 1_555
H47_5 O29_5 1_555 1_555
H48_5 O29_5 1_555 1_555
H53_5 O32_5 1_555 1_555
H54_5 O32_5 1_555 1_555
H62_5 C64_5 1_555 1_555
C66_5 C64_5 1_555 1_555
H64_5 C66_5 1_555 1_555
H66_5 C70_5 1_555 1_555
H68_5 C72_5 1_555 1_555
O33_3 Ni7_3 1_555 1_555
O35_3 Ni7_3 1_555 1_555
C39_5 C41_5 1_555 1_555
C40_5 C41_5 1_555 1_555
Ni7_3 O26_5 1_555 1_555
Ni7_3 O28_5 1_555 1_555
C70_5 C72_5 1_555 1_555
N6_5 C42_5 1_555 1_555
C42_5 H39_5 1_555 1_555
C43_5 N6_5 1_555 1_555
H40_5 C43_5 1_555 1_555
C44_5 C42_5 1_555 1_555
H41_5 C44_5 1_555 1_555
C45_5 C43_5 1_555 1_555
H42_5 C45_5 1_555 1_555
Ni6_5 N6_5 1_555 1_555
Ni8_5 N7_5 1_555 1_555
N7_5 C63_5 1_555 1_555
N10 C71_5 1_555 1_555
O17_5 C47_5 1_555 1_555
O18_5 Ni6_5 1_555 1_555
O19_4 C50_4 1_555 1_555
O20_5 C50_4 1_555 1_555
O21_3 C58_5 1_555 1_555
O22_5 C58_5 1_555 1_555
O23_3 C60_5 1_555 1_555
O24_5 C60_5 1_555 1_555
H43_5 O25_5 1_555 1_555
O27_5 Ni6_5 1_555 1_555
H45_5 O27_5 1_555 1_555
O30_5 Ni6_5 1_555 1_555
H49_5 O30_5 1_555 1_555
H50_5 O30_5 1_555 1_555
O31_5 Ni8_5 1_555 1_555
H51_5 O31_5 1_555 1_555
H52_5 O31_5 1_555 1_555
C47_5 O18_5 1_555 1_555
C48_4 C47_5 1_555 1_555
C49_4 C48_4 1_555 1_555
C50_4 C49_4 1_555 1_555
C51_4 C49_4 1_555 1_555
H55_4 C51_4 1_555 1_555
C52_4 C51_4 1_555 1_555
H56_4 C52_4 1_555 1_555
C53_4 C52_4 1_555 1_555
H57_4 C53_4 1_555 1_555
C54_4 C48_4 1_555 1_555
C55_5 C54_4 1_555 1_555
C56_5 C55_5 1_555 1_555
H58_5 C56_5 1_555 1_555
C57_5 C56_5 1_555 1_555
C58_5 C57_5 1_555 1_555
C59_5 C57_5 1_555 1_555
C60_5 C59_5 1_555 1_555
C61_5 C59_5 1_555 1_555
H59_5 C61_5 1_555 1_555
C62_5 C55_5 1_555 1_555
H60_5 C62_5 1_555 1_555
C63_5 H61_5 1_555 1_555
C65_5 C63_5 1_555 1_555
H63_5 C65_5 1_555 1_555
C67_5 C65_5 1_555 1_555
C68_5 C67_5 1_555 1_555
C69_5 C68_5 1_555 1_555
H65_5 C69_5 1_555 1_555
C71_5 C69_5 1_555 1_555
H67_5 C71_5 1_555 1_555
Ni11_3 O21_3 1_555 1_555
C44_5 C46_5 1_555 1_555
C45_5 C46_5 1_555 1_555
Ni6_5 O25_5 1_555 1_555
Ni8_5 O25_5 1_555 1_555
Ni8_5 O27_5 1_555 1_555
O23_3 Ni11_3 1_555 1_555
C53_4 C54_4 1_555 1_555
C61_5 C62_5 1_555 1_555
O20_5 H70_5 1_555 1_555
N1_4 C17_4 1_555 1_555
N9 C25_5 1_555 1_555
H10_4 O15_4 1_555 1_555
C17_4 H19_4 1_555 1_555
C19_4 C17_4 1_555 1_555
H21_4 C19_4 1_555 1_555
C21_4 C19_4 1_555 1_555
C22_4 C21_4 1_555 1_555
C23_5 C22_4 1_555 1_555
H23_5 C23_5 1_555 1_555
C25_5 C23_5 1_555 1_555
H25_5 C25_5 1_555 1_555
Ni3_3 N2_5 1_555 1_555
N2_5 C32_5 1_555 1_555
O10_5 Ni9 1_555 1_555
H2_5 O10_5 1_555 1_555
O12_5 Ni9 1_555 1_555
H4_5 O12_5 1_555 1_555
O13_5 Ni9 1_555 1_555
H5_5 O13_5 1_555 1_555
H6_5 O13_5 1_555 1_555
C32_5 H31_5 1_555 1_555
C33_5 N2_5 1_555 1_555
H32_5 C33_5 1_555 1_555
C34_5 C32_5 1_555 1_555
H33_5 C34_5 1_555 1_555
C35_5 C33_5 1_555 1_555
C36_5 C34_5 1_555 1_555
O34_3 Ni3_3 1_555 1_555
O36_3 Ni3_3 1_555 1_555
Ni3_3 O10_5 1_555 1_555
Ni3_3 O12_5 1_555 1_555
C35_5 C36_5 1_555 1_555
Ni2_5 N4_5 1_555 1_555
N4_5 C27_5 1_555 1_555
O1_5 C1_5 1_555 1_555
O2_5 Ni2_5 1_555 1_555
O3_5 C4_5 1_555 1_555
O4_5 C4_5 1_555 1_555
O5_3 C12_5 1_555 1_555
O6_5 C12_5 1_555 1_555
O7_3 C14_5 1_555 1_555
O8_5 C14_5 1_555 1_555
H1_5 O9_5 1_555 1_555
O11_5 Ni2_5 1_555 1_555
H3_5 O11_5 1_555 1_555
O14_5 Ni2_5 1_555 1_555
H7_5 O14_5 1_555 1_555
H8_5 O14_5 1_555 1_555
C1_5 O2_5 1_555 1_555
C2_5 C1_5 1_555 1_555
C3_5 C2_5 1_555 1_555
C4_5 C3_5 1_555 1_555
C5_5 C3_5 1_555 1_555
H13_5 C5_5 1_555 1_555
C6_5 C5_5 1_555 1_555
H14_5 C6_5 1_555 1_555
C7_5 C6_5 1_555 1_555
H15_5 C7_5 1_555 1_555
C8_5 C2_5 1_555 1_555
C9_5 C8_5 1_555 1_555
C10_5 C9_5 1_555 1_555
H16_5 C10_5 1_555 1_555
C11_5 C10_5 1_555 1_555
C12_5 C11_5 1_555 1_555
C13_5 C11_5 1_555 1_555
C14_5 C13_5 1_555 1_555
C15_5 C13_5 1_555 1_555
H17_5 C15_5 1_555 1_555
C16_5 C9_5 1_555 1_555
H18_5 C16_5 1_555 1_555
C27_5 H27_5 1_555 1_555
C28_5 N4_5 1_555 1_555
H28_5 C28_5 1_555 1_555
C29_5 C27_5 1_555 1_555
H29_5 C29_5 1_555 1_555
C30_5 C28_5 1_555 1_555
H30_5 C30_5 1_555 1_555
C31_5 C29_5 1_555 1_555
Ni12_3 O5_3 1_555 1_555
Ni2_5 O9_5 1_555 1_555
Ni4_5 O9_5 1_555 1_555
Ni4_5 O11_5 1_555 1_555
O7_3 Ni12_3 1_555 1_555
C7_5 C8_5 1_555 1_555
C15_5 C16_5 1_555 1_555
C30_5 C31_5 1_555 1_555
O4_5 H69_5 1_555 1_555
N9_2 C25_6 1_555 1_555
H23_6 C23_6 1_555 1_555
H24_4 C24_4 1_555 1_555
C25_6 C23_6 1_555 1_555
H25_6 C25_6 1_555 1_555
C26_4 N9_2 1_555 1_555
H26_4 C26_4 1_555 1_555
C24_4 C26_4 1_555 1_555
Ni9_2 O1_6 1_555 1_555
Ni2_6 N4_6 1_555 1_555
Ni3_4 N2_6 1_555 1_555
N2_6 C32_6 1_555 1_555
N4_6 C27_6 1_555 1_555
O1_6 C1_6 1_555 1_555
O2_6 Ni2_6 1_555 1_555
O3_6 C4_6 1_555 1_555
O4_6 C4_6 1_555 1_555
O5_4 C12_6 1_555 1_555
O6_6 C12_6 1_555 1_555
O7_4 C14_6 1_555 1_555
O8_6 C14_6 1_555 1_555
O9_6 Ni9_2 1_555 1_555
H1_6 O9_6 1_555 1_555
O10_6 Ni9_2 1_555 1_555
H2_6 O10_6 1_555 1_555
O11_6 Ni2_6 1_555 1_555
H3_6 O11_6 1_555 1_555
O12_6 Ni9_2 1_555 1_555
H4_6 O12_6 1_555 1_555
O13_6 Ni9_2 1_555 1_555
H5_6 O13_6 1_555 1_555
H6_6 O13_6 1_555 1_555
O14_6 Ni2_6 1_555 1_555
H7_6 O14_6 1_555 1_555
H8_6 O14_6 1_555 1_555
C1_6 O2_6 1_555 1_555
C2_6 C1_6 1_555 1_555
C3_6 C2_6 1_555 1_555
C4_6 C3_6 1_555 1_555
C5_6 C3_6 1_555 1_555
H13_6 C5_6 1_555 1_555
C6_6 C5_6 1_555 1_555
H14_6 C6_6 1_555 1_555
C7_6 C6_6 1_555 1_555
H15_6 C7_6 1_555 1_555
C8_6 C2_6 1_555 1_555
C9_6 C8_6 1_555 1_555
C10_6 C9_6 1_555 1_555
H16_6 C10_6 1_555 1_555
C11_6 C10_6 1_555 1_555
C12_6 C11_6 1_555 1_555
C13_6 C11_6 1_555 1_555
C14_6 C13_6 1_555 1_555
C15_6 C13_6 1_555 1_555
H17_6 C15_6 1_555 1_555
C16_6 C9_6 1_555 1_555
H18_6 C16_6 1_555 1_555
C27_6 H27_6 1_555 1_555
C28_6 N4_6 1_555 1_555
H28_6 C28_6 1_555 1_555
C29_6 C27_6 1_555 1_555
H29_6 C29_6 1_555 1_555
C30_6 C28_6 1_555 1_555
H30_6 C30_6 1_555 1_555
C31_6 C29_6 1_555 1_555
C32_6 H31_6 1_555 1_555
C33_6 N2_6 1_555 1_555
H32_6 C33_6 1_555 1_555
C34_6 C32_6 1_555 1_555
H33_6 C34_6 1_555 1_555
C35_6 C33_6 1_555 1_555
H34_6 C35_6 1_555 1_555
C36_6 C34_6 1_555 1_555
N5_6 C37_6 1_555 1_555
C37_6 H35_6 1_555 1_555
C38_6 N5_6 1_555 1_555
H36_6 C38_6 1_555 1_555
C39_6 C37_6 1_555 1_555
H37_6 C39_6 1_555 1_555
C40_6 C38_6 1_555 1_555
H38_6 C40_6 1_555 1_555
C41_6 C36_6 1_555 1_555
N6_6 C42_6 1_555 1_555
C42_6 H39_6 1_555 1_555
C43_6 N6_6 1_555 1_555
H40_6 C43_6 1_555 1_555
C44_6 C42_6 1_555 1_555
H41_6 C44_6 1_555 1_555
C45_6 C43_6 1_555 1_555
H42_6 C45_6 1_555 1_555
C46_6 C31_6 1_555 1_555
Ni10_2 O17_6 1_555 1_555
Ni6_6 N6_6 1_555 1_555
Ni7_4 N5_6 1_555 1_555
Ni8_6 N7_6 1_555 1_555
N7_6 C63_6 1_555 1_555
O17_6 C47_6 1_555 1_555
O18_6 Ni6_6 1_555 1_555
O19_5 C50_5 1_555 1_555
O20_6 C50_5 1_555 1_555
O21_4 C58_6 1_555 1_555
O22_6 C58_6 1_555 1_555
O23_4 C60_6 1_555 1_555
O24_6 C60_6 1_555 1_555
O25_6 Ni10_2 1_555 1_555
H43_6 O25_6 1_555 1_555
O26_6 Ni10_2 1_555 1_555
H44_6 O26_6 1_555 1_555
O27_6 Ni6_6 1_555 1_555
H45_6 O27_6 1_555 1_555
O28_6 Ni10_2 1_555 1_555
H46_6 O28_6 1_555 1_555
O29_6 Ni10_2 1_555 1_555
H47_6 O29_6 1_555 1_555
H48_6 O29_6 1_555 1_555
O30_6 Ni6_6 1_555 1_555
H49_6 O30_6 1_555 1_555
H50_6 O30_6 1_555 1_555
O31_6 Ni8_6 1_555 1_555
H51_6 O31_6 1_555 1_555
H52_6 O31_6 1_555 1_555
O32_6 Ni8_6 1_555 1_555
H53_6 O32_6 1_555 1_555
H54_6 O32_6 1_555 1_555
C47_6 O18_6 1_555 1_555
C48_5 C47_6 1_555 1_555
C49_5 C48_5 1_555 1_555
C50_5 C49_5 1_555 1_555
C51_5 C49_5 1_555 1_555
H55_5 C51_5 1_555 1_555
C52_5 C51_5 1_555 1_555
H56_5 C52_5 1_555 1_555
C53_5 C52_5 1_555 1_555
H57_5 C53_5 1_555 1_555
C54_5 C48_5 1_555 1_555
C55_6 C54_5 1_555 1_555
C56_6 C55_6 1_555 1_555
H58_6 C56_6 1_555 1_555
C57_6 C56_6 1_555 1_555
C58_6 C57_6 1_555 1_555
C59_6 C57_6 1_555 1_555
C60_6 C59_6 1_555 1_555
C61_6 C59_6 1_555 1_555
H59_6 C61_6 1_555 1_555
C62_6 C55_6 1_555 1_555
H60_6 C62_6 1_555 1_555
C63_6 H61_6 1_555 1_555
C64_6 N7_6 1_555 1_555
H62_6 C64_6 1_555 1_555
C65_6 C63_6 1_555 1_555
H63_6 C65_6 1_555 1_555
C66_6 C64_6 1_555 1_555
H64_6 C66_6 1_555 1_555
C67_6 C65_6 1_555 1_555
C68_6 C67_6 1_555 1_555
Ni11_4 O21_4 1_555 1_555
Ni12_4 O5_4 1_555 1_555
O33_4 Ni7_4 1_555 1_555
O34_4 Ni3_4 1_555 1_555
O35_4 Ni7_4 1_555 1_555
O36_4 Ni3_4 1_555 1_555
Ni2_6 O9_6 1_555 1_555
Ni2_6 O10_6 1_555 1_555
Ni3_4 O10_6 1_555 1_555
Ni3_4 O11_6 1_555 1_555
Ni3_4 O12_6 1_555 1_555
Ni4_6 O9_6 1_555 1_555
Ni4_6 O11_6 1_555 1_555
Ni4_6 O12_6 1_555 1_555
O7_4 Ni12_4 1_555 1_555
C7_6 C8_6 1_555 1_555
C15_6 C16_6 1_555 1_555
C30_6 C31_6 1_555 1_555
C35_6 C36_6 1_555 1_555
C39_6 C41_6 1_555 1_555
C40_6 C41_6 1_555 1_555
C44_6 C46_6 1_555 1_555
C45_6 C46_6 1_555 1_555
Ni6_6 O25_6 1_555 1_555
Ni6_6 O26_6 1_555 1_555
Ni7_4 O26_6 1_555 1_555
Ni7_4 O27_6 1_555 1_555
Ni7_4 O28_6 1_555 1_555
Ni8_6 O25_6 1_555 1_555
Ni8_6 O27_6 1_555 1_555
Ni8_6 O28_6 1_555 1_555
O23_4 Ni11_4 1_555 1_555
C53_5 C54_5 1_555 1_555
C61_6 C62_6 1_555 1_555
C66_6 C67_6 1_555 1_555
O4_6 H69_6 1_555 1_555
O20_6 H70_6 1_555 1_555
N10_2 C71_6 1_555 1_555
H65_6 C69_6 1_555 1_555
H66_6 C70_6 1_555 1_555
C71_6 C69_6 1_555 1_555
H67_6 C71_6 1_555 1_555
C72_6 N10_2 1_555 1_555
H68_6 C72_6 1_555 1_555
C70_6 C72_6 1_555 1_555
Ni9_4 O17_7 1_555 1_555
Ni8_7 N7_7 1_555 1_555
N7_7 C63_7 1_555 1_555
N9_4 C71_7 1_555 1_555
O17_7 C47_7 1_555 1_555
O19_6 C50_6 1_555 1_555
O34_4 C58_7 1_555 1_555
O22_7 C58_7 1_555 1_555
O36_4 C60_7 1_555 1_555
O24_7 C60_7 1_555 1_555
O25_7 Ni9_4 1_555 1_555
H43_7 O25_7 1_555 1_555
O28_7 Ni9_4 1_555 1_555
H46_7 O28_7 1_555 1_555
O29_7 Ni9_4 1_555 1_555
H47_7 O29_7 1_555 1_555
H48_7 O29_7 1_555 1_555
C47_7 O18_7 1_555 1_555
C48_6 C47_7 1_555 1_555
C49_6 C48_6 1_555 1_555
C50_6 C49_6 1_555 1_555
C51_6 C49_6 1_555 1_555
H55_6 C51_6 1_555 1_555
C52_6 C51_6 1_555 1_555
H56_6 C52_6 1_555 1_555
C53_6 C52_6 1_555 1_555
H57_6 C53_6 1_555 1_555
C54_6 C48_6 1_555 1_555
C55_7 C54_6 1_555 1_555
C56_7 C55_7 1_555 1_555
H58_7 C56_7 1_555 1_555
C57_7 C56_7 1_555 1_555
C58_7 C57_7 1_555 1_555
C59_7 C57_7 1_555 1_555
C60_7 C59_7 1_555 1_555
C61_7 C59_7 1_555 1_555
H59_7 C61_7 1_555 1_555
C62_7 C55_7 1_555 1_555
H60_7 C62_7 1_555 1_555
C63_7 H61_7 1_555 1_555
C64_7 N7_7 1_555 1_555
H62_7 C64_7 1_555 1_555
C65_7 C63_7 1_555 1_555
H63_7 C65_7 1_555 1_555
C66_7 C64_7 1_555 1_555
H64_7 C66_7 1_555 1_555
C67_7 C65_7 1_555 1_555
C68_7 C67_7 1_555 1_555
C69_7 C68_7 1_555 1_555
H65_7 C69_7 1_555 1_555
C70_7 C68_7 1_555 1_555
H66_7 C70_7 1_555 1_555
C71_7 C69_7 1_555 1_555
H67_7 C71_7 1_555 1_555
C72_7 N9_4 1_555 1_555
H68_7 C72_7 1_555 1_555
Ni8_7 O25_7 1_555 1_555
Ni8_7 O28_7 1_555 1_555
C53_6 C54_6 1_555 1_555
C61_7 C62_7 1_555 1_555
C66_7 C67_7 1_555 1_555
C70_7 C72_7 1_555 1_555
Ni10_4 O1_7 1_555 1_555
Ni2_7 N4_7 1_555 1_555
Ni11_3 N2_7 1_555 1_555
Ni4_7 N1_5 1_555 1_555
N1_5 C17_5 1_555 1_555
N2_7 C32_7 1_555 1_555
N10_4 C25_7 1_555 1_555
N4_7 C27_7 1_555 1_555
O1_7 C1_7 1_555 1_555
O2_7 Ni2_7 1_555 1_555
O3_7 C4_7 1_555 1_555
O4_7 C4_7 1_555 1_555
O33_4 C12_7 1_555 1_555
O6_7 C12_7 1_555 1_555
O35_4 C14_7 1_555 1_555
O8_7 C14_7 1_555 1_555
O9_7 Ni10_4 1_555 1_555
H1_7 O9_7 1_555 1_555
O10_7 Ni10_4 1_555 1_555
H2_7 O10_7 1_555 1_555
O11_7 Ni2_7 1_555 1_555
H3_7 O11_7 1_555 1_555
O12_7 Ni10_4 1_555 1_555
H4_7 O12_7 1_555 1_555
O13_7 Ni10_4 1_555 1_555
H5_7 O13_7 1_555 1_555
H6_7 O13_7 1_555 1_555
O14_7 Ni2_7 1_555 1_555
H7_7 O14_7 1_555 1_555
H8_7 O14_7 1_555 1_555
O15_5 Ni4_7 1_555 1_555
H9_7 O15_5 1_555 1_555
H10_5 O15_5 1_555 1_555
O16_3 Ni4_7 1_555 1_555
H11_3 O16_3 1_555 1_555
H12_3 O16_3 1_555 1_555
C1_7 O2_7 1_555 1_555
C2_7 C1_7 1_555 1_555
C3_7 C2_7 1_555 1_555
C4_7 C3_7 1_555 1_555
C5_7 C3_7 1_555 1_555
H13_7 C5_7 1_555 1_555
C6_7 C5_7 1_555 1_555
H14_7 C6_7 1_555 1_555
C7_7 C6_7 1_555 1_555
H15_7 C7_7 1_555 1_555
C8_7 C2_7 1_555 1_555
C9_7 C8_7 1_555 1_555
C10_7 C9_7 1_555 1_555
H16_7 C10_7 1_555 1_555
C11_7 C10_7 1_555 1_555
C12_7 C11_7 1_555 1_555
C13_7 C11_7 1_555 1_555
C14_7 C13_7 1_555 1_555
C15_7 C13_7 1_555 1_555
H17_7 C15_7 1_555 1_555
C16_7 C9_7 1_555 1_555
H18_7 C16_7 1_555 1_555
C17_5 H19_5 1_555 1_555
C18_3 N1_5 1_555 1_555
H20_3 C18_3 1_555 1_555
C19_5 C17_5 1_555 1_555
H21_5 C19_5 1_555 1_555
C20_3 C18_3 1_555 1_555
H22_3 C20_3 1_555 1_555
C21_5 C19_5 1_555 1_555
C22_5 C21_5 1_555 1_555
C23_7 C22_5 1_555 1_555
H23_7 C23_7 1_555 1_555
C24_5 C22_5 1_555 1_555
H24_5 C24_5 1_555 1_555
C25_7 C23_7 1_555 1_555
H25_7 C25_7 1_555 1_555
C26_5 N10_4 1_555 1_555
H26_5 C26_5 1_555 1_555
C27_7 H27_7 1_555 1_555
C28_7 N4_7 1_555 1_555
H28_7 C28_7 1_555 1_555
C29_7 C27_7 1_555 1_555
H29_7 C29_7 1_555 1_555
C30_7 C28_7 1_555 1_555
H30_7 C30_7 1_555 1_555
C31_7 C29_7 1_555 1_555
C32_7 H31_7 1_555 1_555
C33_7 N2_7 1_555 1_555
H32_7 C33_7 1_555 1_555
C34_7 C32_7 1_555 1_555
H33_7 C34_7 1_555 1_555
C35_7 C33_7 1_555 1_555
H34_7 C35_7 1_555 1_555
C36_7 C34_7 1_555 1_555
N5_7 C37_7 1_555 1_555
C37_7 H35_7 1_555 1_555
C38_7 N5_7 1_555 1_555
H36_7 C38_7 1_555 1_555
C39_7 C37_7 1_555 1_555
H37_7 C39_7 1_555 1_555
C40_7 C38_7 1_555 1_555
H38_7 C40_7 1_555 1_555
C41_7 C36_7 1_555 1_555
N6_7 C42_7 1_555 1_555
C42_7 H39_7 1_555 1_555
C43_7 N6_7 1_555 1_555
H40_7 C43_7 1_555 1_555
C44_7 C42_7 1_555 1_555
H41_7 C44_7 1_555 1_555
C45_7 C43_7 1_555 1_555
H42_7 C45_7 1_555 1_555
C46_7 C31_7 1_555 1_555
Ni6_7 N6_7 1_555 1_555
Ni12_3 N5_7 1_555 1_555
H44_7 O26_7 1_555 1_555
O27_7 Ni6_7 1_555 1_555
H45_7 O27_7 1_555 1_555
O30_7 Ni6_7 1_555 1_555
H49_7 O30_7 1_555 1_555
H50_7 O30_7 1_555 1_555
H51_7 O31_7 1_555 1_555
H52_7 O31_7 1_555 1_555
H53_7 O32_7 1_555 1_555
H54_7 O32_7 1_555 1_555
Ni2_7 O9_7 1_555 1_555
Ni2_7 O10_7 1_555 1_555
Ni11_3 O10_7 1_555 1_555
Ni11_3 O11_7 1_555 1_555
Ni11_3 O12_7 1_555 1_555
Ni4_7 O9_7 1_555 1_555
Ni4_7 O11_7 1_555 1_555
Ni4_7 O12_7 1_555 1_555
C7_7 C8_7 1_555 1_555
C15_7 C16_7 1_555 1_555
C20_3 C21_5 1_555 1_555
C24_5 C26_5 1_555 1_555
C30_7 C31_7 1_555 1_555
C35_7 C36_7 1_555 1_555
C39_7 C41_7 1_555 1_555
C40_7 C41_7 1_555 1_555
C44_7 C46_7 1_555 1_555
C45_7 C46_7 1_555 1_555
Ni6_7 O26_7 1_555 1_555
Ni12_3 O26_7 1_555 1_555
Ni12_3 O27_7 1_555 1_555
O4_7 H69_7 1_555 1_555
O20_7 H70_7 1_555 1_555
Ni10_3 O1_8 1_555 1_555
Ni2_8 N4_8 1_555 1_555
Ni11_4 N2_8 1_555 1_555
Ni4_8 N1_6 1_555 1_555
N1_6 C17_6 1_555 1_555
N2_8 C32_8 1_555 1_555
N10_3 C25_8 1_555 1_555
N4_8 C27_8 1_555 1_555
O1_8 C1_8 1_555 1_555
O2_8 Ni2_8 1_555 1_555
O33_3 C12_8 1_555 1_555
O6_8 C12_8 1_555 1_555
O35_3 C14_8 1_555 1_555
O8_8 C14_8 1_555 1_555
O9_8 Ni10_3 1_555 1_555
H1_8 O9_8 1_555 1_555
O10_8 Ni10_3 1_555 1_555
H2_8 O10_8 1_555 1_555
O11_8 Ni2_8 1_555 1_555
H3_8 O11_8 1_555 1_555
O12_8 Ni10_3 1_555 1_555
H4_8 O12_8 1_555 1_555
O13_8 Ni10_3 1_555 1_555
H5_8 O13_8 1_555 1_555
H6_8 O13_8 1_555 1_555
O14_8 Ni2_8 1_555 1_555
H7_8 O14_8 1_555 1_555
H8_8 O14_8 1_555 1_555
O15_6 Ni4_8 1_555 1_555
H9_8 O15_6 1_555 1_555
H10_6 O15_6 1_555 1_555
O16_4 Ni4_8 1_555 1_555
H11_4 O16_4 1_555 1_555
H12_4 O16_4 1_555 1_555
C1_8 O2_8 1_555 1_555
C10_8 C9_8 1_555 1_555
H16_8 C10_8 1_555 1_555
C11_8 C10_8 1_555 1_555
C12_8 C11_8 1_555 1_555
C13_8 C11_8 1_555 1_555
C14_8 C13_8 1_555 1_555
C15_8 C13_8 1_555 1_555
H17_8 C15_8 1_555 1_555
C16_8 C9_8 1_555 1_555
H18_8 C16_8 1_555 1_555
C17_6 H19_6 1_555 1_555
C18_4 N1_6 1_555 1_555
H20_4 C18_4 1_555 1_555
C19_6 C17_6 1_555 1_555
H21_6 C19_6 1_555 1_555
C20_4 C18_4 1_555 1_555
H22_4 C20_4 1_555 1_555
C21_6 C19_6 1_555 1_555
C22_6 C21_6 1_555 1_555
C23_8 C22_6 1_555 1_555
H23_8 C23_8 1_555 1_555
C24_6 C22_6 1_555 1_555
H24_6 C24_6 1_555 1_555
C25_8 C23_8 1_555 1_555
H25_8 C25_8 1_555 1_555
C26_6 N10_3 1_555 1_555
H26_6 C26_6 1_555 1_555
C28_8 N4_8 1_555 1_555
H28_8 C28_8 1_555 1_555
C30_8 C28_8 1_555 1_555
H30_8 C30_8 1_555 1_555
C32_8 H31_8 1_555 1_555
C33_8 N2_8 1_555 1_555
H32_8 C33_8 1_555 1_555
C35_8 C33_8 1_555 1_555
H34_8 C35_8 1_555 1_555
H37_8 C39_8 1_555 1_555
H41_8 C44_8 1_555 1_555
Ni2_8 O9_8 1_555 1_555
Ni2_8 O10_8 1_555 1_555
Ni11_4 O10_8 1_555 1_555
Ni11_4 O11_8 1_555 1_555
Ni11_4 O12_8 1_555 1_555
Ni4_8 O9_8 1_555 1_555
Ni4_8 O11_8 1_555 1_555
Ni4_8 O12_8 1_555 1_555
C15_8 C16_8 1_555 1_555
C20_4 C21_6 1_555 1_555
C24_6 C26_6 1_555 1_555
C30_8 C31_8 1_555 1_555
C35_8 C36_8 1_555 1_555
O20_8 H70_8 1_555 1_555
O3_8 C4_8 1_555 1_555
O4_8 C4_8 1_555 1_555
C3_8 C2_8 1_555 1_555
C4_8 C3_8 1_555 1_555
C5_8 C3_8 1_555 1_555
H13_8 C5_8 1_555 1_555
C6_8 C5_8 1_555 1_555
H14_8 C6_8 1_555 1_555
C7_8 C6_8 1_555 1_555
H15_8 C7_8 1_555 1_555
C8_8 C2_8 1_555 1_555
H29_8 C29_8 1_555 1_555
H33_8 C34_8 1_555 1_555
N5_8 C37_8 1_555 1_555
C37_8 H35_8 1_555 1_555
C38_8 N5_8 1_555 1_555
H36_8 C38_8 1_555 1_555
C40_8 C38_8 1_555 1_555
H38_8 C40_8 1_555 1_555
N6_8 C42_8 1_555 1_555
C43_8 N6_8 1_555 1_555
H40_8 C43_8 1_555 1_555
C45_8 C43_8 1_555 1_555
H42_8 C45_8 1_555 1_555
Ni6_8 N6_8 1_555 1_555
Ni12_4 N5_8 1_555 1_555
H44_8 O26_8 1_555 1_555
O27_8 Ni6_8 1_555 1_555
H45_8 O27_8 1_555 1_555
O30_8 Ni6_8 1_555 1_555
H49_8 O30_8 1_555 1_555
H50_8 O30_8 1_555 1_555
H51_8 O31_8 1_555 1_555
H52_8 O31_8 1_555 1_555
H53_8 O32_8 1_555 1_555
H54_8 O32_8 1_555 1_555
C7_8 C8_8 1_555 1_555
C40_8 C41_8 1_555 1_555
C45_8 C46_8 1_555 1_555
Ni6_8 O26_8 1_555 1_555
Ni12_4 O26_8 1_555 1_555
Ni12_4 O27_8 1_555 1_555
O4_8 H69_8 1_555 1_555
Ni9_3 O17_8 1_555 1_555
Ni8_8 N7_8 1_555 1_555
N7_8 C63_8 1_555 1_555
N9_3 C71_8 1_555 1_555
O17_8 C47_8 1_555 1_555
O34_3 C58_8 1_555 1_555
O22_8 C58_8 1_555 1_555
O36_3 C60_8 1_555 1_555
O24_8 C60_8 1_555 1_555
O25_8 Ni9_3 1_555 1_555
H43_8 O25_8 1_555 1_555
O28_8 Ni9_3 1_555 1_555
H46_8 O28_8 1_555 1_555
O29_8 Ni9_3 1_555 1_555
H47_8 O29_8 1_555 1_555
H48_8 O29_8 1_555 1_555
C47_8 O18_8 1_555 1_555
C56_8 C55_8 1_555 1_555
H58_8 C56_8 1_555 1_555
C57_8 C56_8 1_555 1_555
C58_8 C57_8 1_555 1_555
C59_8 C57_8 1_555 1_555
C60_8 C59_8 1_555 1_555
C61_8 C59_8 1_555 1_555
H59_8 C61_8 1_555 1_555
C62_8 C55_8 1_555 1_555
H60_8 C62_8 1_555 1_555
C63_8 H61_8 1_555 1_555
C64_8 N7_8 1_555 1_555
H62_8 C64_8 1_555 1_555
C65_8 C63_8 1_555 1_555
H63_8 C65_8 1_555 1_555
C66_8 C64_8 1_555 1_555
H64_8 C66_8 1_555 1_555
C67_8 C65_8 1_555 1_555
C68_8 C67_8 1_555 1_555
C69_8 C68_8 1_555 1_555
H65_8 C69_8 1_555 1_555
C70_8 C68_8 1_555 1_555
H66_8 C70_8 1_555 1_555
C71_8 C69_8 1_555 1_555
H67_8 C71_8 1_555 1_555
C72_8 N9_3 1_555 1_555
H68_8 C72_8 1_555 1_555
Ni8_8 O25_8 1_555 1_555
Ni8_8 O28_8 1_555 1_555
C61_8 C62_8 1_555 1_555
C66_8 C67_8 1_555 1_555
C70_8 C72_8 1_555 1_555
H11_5 O16_5 1_555 1_555
H12_5 O16_5 1_555 1_555
H20_5 C18_5 1_555 1_555
C20_5 C18_5 1_555 1_555
H22_5 C20_5 1_555 1_555
H24_7 C24_7 1_555 1_555
H26_7 C26_7 1_555 1_555
C24_7 C26_7 1_555 1_555
N1_7 C17_7 1_555 1_555
H10_7 O15_7 1_555 1_555
H11_6 O16_6 1_555 1_555
H12_6 O16_6 1_555 1_555
C17_7 H19_7 1_555 1_555
C18_6 N1_7 1_555 1_555
H20_6 C18_6 1_555 1_555
C19_7 C17_7 1_555 1_555
H21_7 C19_7 1_555 1_555
C20_6 C18_6 1_555 1_555
H22_6 C20_6 1_555 1_555
C21_7 C19_7 1_555 1_555
C22_7 C21_7 1_555 1_555
C20_6 C21_7 1_555 1_555
O19_7 C50_7 1_555 1_555
C49_7 C48_7 1_555 1_555
C50_7 C49_7 1_555 1_555
C51_7 C49_7 1_555 1_555
H55_7 C51_7 1_555 1_555
C52_7 C51_7 1_555 1_555
H56_7 C52_7 1_555 1_555
C53_7 C52_7 1_555 1_555
H57_7 C53_7 1_555 1_555
C54_7 C48_7 1_555 1_555
C53_7 C54_7 1_555 1_555
H11_7 O16_7 1_555 1_555
H12_7 O16_7 1_555 1_555
H20_7 C18_7 1_555 1_555
C20_7 C18_7 1_555 1_555
H22_7 C20_7 1_555 1_555
H24_8 C24_8 1_555 1_555
H26_8 C26_8 1_555 1_555
C24_8 C26_8 1_555 1_555
N1_8 C17_8 1_555 1_555
H10_8 O15_8 1_555 1_555
H11_8 O16_8 1_555 1_555
H12_8 O16_8 1_555 1_555
C17_8 H19_8 1_555 1_555
C18_8 N1_8 1_555 1_555
H20_8 C18_8 1_555 1_555
C19_8 C17_8 1_555 1_555
H21_8 C19_8 1_555 1_555
C20_8 C18_8 1_555 1_555
H22_8 C20_8 1_555 1_555
C21_8 C19_8 1_555 1_555
C22_8 C21_8 1_555 1_555
C20_8 C21_8 1_555 1_555
O19_8 C50_8 1_555 1_555
C49_8 C48_8 1_555 1_555
C50_8 C49_8 1_555 1_555
C51_8 C49_8 1_555 1_555
H55_8 C51_8 1_555 1_555
C52_8 C51_8 1_555 1_555
H56_8 C52_8 1_555 1_555
C53_8 C52_8 1_555 1_555
H57_8 C53_8 1_555 1_555
C54_8 C48_8 1_555 1_555
C53_8 C54_8 1_555 1_555

#END
