
###############################################################################
#
# This file contains modified crystal structure data generated from the
# MOF subset of the Cambridge Structural Database (CSD) v543 
# hosted by the Cambridge Crystallographic Data Centre (CCDC).
#
# This work is licensed under the Creative Commons
# Attribution-NonCommercial-ShareAlike 4.0 International License.
# To view a copy of this license, visit
# http://creativecommons.org/licenses/by-nc-sa/4.0/
# or send a letter to
# Creative Commons, PO Box 1866, Mountain View, CA 94042, USA.
#
# CIF created using the CSD Python API on 29 September 2022
# The structure has been converted into the P1 space group
# The structure has a 3D framework
# The original CSD entry CIDKUX is in the monoclinic crystal system
# The framework has been calculated to contain at least 10.0% void space
# The void calculation uses a probe of radius 1.32A, grid spacing 0.4
#
###############################################################################

data_CIDKUX
_chemical_formula_moiety         '(C112 H14 Cu16 F64 N64 O11)n'
_symmetry_cell_setting           triclinic
_symmetry_space_group_name_H-M   'P 1'
_symmetry_Int_Tables_number      1
_space_group_name_Hall           'P 1'
loop_
_symmetry_equiv_pos_site_id
_symmetry_equiv_pos_as_xyz
1 x,y,z
_cell_length_a                   15.8991(10)
_cell_length_b                   31.5712(18)
_cell_length_c                   13.8721(8)
_cell_angle_alpha                90
_cell_angle_beta                 115.357(3)
_cell_angle_gamma                90
_cell_volume                     6292.3
loop_
_atom_site_label
_atom_site_type_symbol
_atom_site_fract_x
_atom_site_fract_y
_atom_site_fract_z
Cu13 Cu 0.0000 0.5000 0.0000
Cu9 Cu 0.01577(5) 0.5000 0.75670(5)
Cu13_2 Cu 0.0000 0.5000 1.0000
C1 C 0.3618(3) 0.09995(13) 0.3154(3)
C2 C 0.3168(4) 0.14201(15) 0.2920(4)
C3 C 0.2518(4) 0.15358(16) 0.3278(4)
C4 C 0.2093(4) 0.19291(15) 0.3049(4)
C5 C 0.2348(5) 0.22229(19) 0.2475(5)
C6 C 0.2943(8) 0.2104(2) 0.2131(7)
C7 C 0.3401(7) 0.1721(2) 0.2355(7)
C8 C 0.1044(3) 0.39641(14) 0.1809(3)
C9 C 0.1340(4) 0.35255(14) 0.1978(4)
C10 C 0.1742(4) 0.33353(16) 0.2983(4)
C11 C 0.2007(4) 0.29249(19) 0.3137(4)
C12 C 0.1954(5) 0.26614(17) 0.2303(5)
C13 C 0.1557(6) 0.28440(19) 0.1313(5)
C14 C 0.1267(6) 0.32588(19) 0.1153(5)
N1 N 0.4321(3) 0.04569(11) 0.3935(3)
N2 N 0.4237(3) 0.04440(10) 0.2945(3)
N3 N 0.3809(3) 0.07808(10) 0.2426(3)
N4 N 0.3932(3) 0.08020(11) 0.4089(3)
N5 N 0.0469(2) 0.45433(10) 0.1990(3)
N6 N 0.0572(3) 0.45460(10) 0.1101(3)
N7 N 0.0929(3) 0.41925(11) 0.0954(3)
N8 N 0.0776(3) 0.41759(11) 0.2470(3)
O1 O 0.6041(3) 0.0000 0.4227(3)
O2 O 0.3790(3) 0.0000 0.0620(3)
F1 F 0.2232(2) 0.12615(9) 0.3797(3)
F2 F 0.1441(2) 0.20198(9) 0.3391(3)
F3 F 0.3290(6) 0.23929(13) 0.1615(6)
F4 F 0.4033(5) 0.16262(12) 0.1988(5)
F5 F 0.1848(2) 0.35695(8) 0.3847(2)
F6 F 0.2420(3) 0.27788(10) 0.4151(2)
F7 F 0.1466(6) 0.26096(13) 0.0485(3)
F8 F 0.0954(4) 0.34123(11) 0.0175(3)
Cu1 Cu 0.5000 0.0000 0.5000
Cu2 Cu 0.48423(5) 0.0000 0.24330(5)
Cu3 Cu 0.5000 0.0000 0.0000
H2 H 0.3469(12) 0.02215(8) 0.035(3)
H3 H 0.6395(8) 0.02208(8) 0.436(3)
N33 N 0.5679(3) 0.04569(11) 0.6065(3)
N38 N 0.5469(2) 0.04567(10) 0.1990(3)
N42 N 0.5572(3) 0.04540(10) 0.1101(3)
O5 O 0.3959(3) 0.0000 0.5773(3)
Cu13_3 Cu 1.0000 0.5000 0.0000
Cu3_2 Cu 0.5000 0.0000 1.0000
C15 C 0.6382(3) 0.09995(13) 0.6846(3)
C16 C 0.6832(4) 0.14201(15) 0.7080(4)
C17 C 0.7482(4) 0.15358(16) 0.6722(4)
C18 C 0.7907(4) 0.19291(15) 0.6951(4)
C19 C 0.7652(5) 0.22229(19) 0.7525(5)
C20 C 0.7057(8) 0.2104(2) 0.7869(7)
C21 C 0.6599(7) 0.1721(2) 0.7645(7)
C22 C 0.8956(3) 0.39641(14) 0.8191(3)
C23 C 0.8660(4) 0.35255(14) 0.8022(4)
C24 C 0.8258(4) 0.33353(16) 0.7017(4)
C25 C 0.7993(4) 0.29249(19) 0.6863(4)
C26 C 0.8046(5) 0.26614(17) 0.7697(5)
C27 C 0.8443(6) 0.28440(19) 0.8687(5)
C28 C 0.8733(6) 0.32588(19) 0.8847(5)
N10 N 0.5763(3) 0.04440(10) 0.7055(3)
N11 N 0.6191(3) 0.07808(10) 0.7574(3)
N12 N 0.6068(3) 0.08020(11) 0.5911(3)
N13 N 0.9531(2) 0.45433(10) 0.8010(3)
N14 N 0.9428(3) 0.45460(10) 0.8899(3)
N15 N 0.9071(3) 0.41925(11) 0.9046(3)
N16 N 0.9224(3) 0.41759(11) 0.7530(3)
O4 O 0.6210(3) 0.0000 0.9380(3)
F9 F 0.7768(2) 0.12615(9) 0.6203(3)
F10 F 0.8559(2) 0.20198(9) 0.6609(3)
F11 F 0.6710(6) 0.23929(13) 0.8385(6)
F12 F 0.5967(5) 0.16262(12) 0.8012(5)
F13 F 0.8152(2) 0.35695(8) 0.6153(2)
F14 F 0.7580(3) 0.27788(10) 0.5849(2)
F15 F 0.8534(6) 0.26096(13) 0.9515(3)
F16 F 0.9046(4) 0.34123(11) 0.9825(3)
Cu4 Cu 0.51577(5) 0.0000 0.75670(5)
H6 H 0.6531(12) 0.02215(8) 0.965(3)
H7 H 0.3605(8) 0.02208(8) 0.564(3)
N37 N 0.4531(2) 0.04567(10) 0.8010(3)
N41 N 0.4428(3) 0.04540(10) 0.8899(3)
Cu13_4 Cu 1.0000 0.5000 1.0000
O1_2 O 0.6041(3) 1.0000 0.4227(3)
O2_2 O 0.3790(3) 1.0000 0.0620(3)
Cu1_2 Cu 0.5000 1.0000 0.5000
Cu2_2 Cu 0.48423(5) 1.0000 0.24330(5)
Cu3_3 Cu 0.5000 1.0000 0.0000
H1 H 0.6395(8) 0.97792(8) 0.436(3)
H4 H 0.3469(12) 0.97785(8) 0.035(3)
C43 C 0.3618(3) 0.90005(13) 0.3154(3)
C44 C 0.3168(4) 0.85799(15) 0.2920(4)
C45 C 0.2518(4) 0.84642(16) 0.3278(4)
C46 C 0.2093(4) 0.80709(15) 0.3049(4)
C47 C 0.2348(5) 0.77771(19) 0.2475(5)
C48 C 0.2943(8) 0.7896(2) 0.2131(7)
C49 C 0.3401(7) 0.8279(2) 0.2355(7)
C50 C 0.1044(3) 0.60359(14) 0.1809(3)
C51 C 0.1340(4) 0.64745(14) 0.1978(4)
C52 C 0.1742(4) 0.66647(16) 0.2983(4)
C53 C 0.2007(4) 0.70751(19) 0.3137(4)
C54 C 0.1954(5) 0.73386(17) 0.2303(5)
C55 C 0.1557(6) 0.71560(19) 0.1313(5)
C56 C 0.1267(6) 0.67412(19) 0.1153(5)
N25 N 0.4321(3) 0.95431(11) 0.3935(3)
N26 N 0.4237(3) 0.95560(10) 0.2945(3)
N27 N 0.3809(3) 0.92192(10) 0.2426(3)
N28 N 0.3932(3) 0.91980(11) 0.4089(3)
N29 N 0.0469(2) 0.54567(10) 0.1990(3)
N30 N 0.0572(3) 0.54540(10) 0.1101(3)
N31 N 0.0929(3) 0.58075(11) 0.0954(3)
N32 N 0.0776(3) 0.58241(11) 0.2470(3)
F25 F 0.2232(2) 0.87385(9) 0.3797(3)
F26 F 0.1441(2) 0.79802(9) 0.3391(3)
F27 F 0.3290(6) 0.76071(13) 0.1615(6)
F28 F 0.4033(5) 0.83738(12) 0.1988(5)
F29 F 0.1848(2) 0.64305(8) 0.3847(2)
F30 F 0.2420(3) 0.72212(10) 0.4151(2)
F31 F 0.1466(6) 0.73904(13) 0.0485(3)
F32 F 0.0954(4) 0.65877(11) 0.0175(3)
N34 N 0.5679(3) 0.95431(11) 0.6065(3)
N35 N 0.5469(2) 0.95433(10) 0.1990(3)
N39 N 0.5572(3) 0.95460(10) 0.1101(3)
O5_2 O 0.3959(3) 1.0000 0.5773(3)
Cu3_4 Cu 0.5000 1.0000 1.0000
O4_2 O 0.6210(3) 1.0000 0.9380(3)
Cu4_2 Cu 0.51577(5) 1.0000 0.75670(5)
H5 H 0.3605(8) 0.97792(8) 0.564(3)
H8 H 0.6531(12) 0.97785(8) 0.965(3)
C29 C 0.6382(3) 0.90005(13) 0.6846(3)
C30 C 0.6832(4) 0.85799(15) 0.7080(4)
C31 C 0.7482(4) 0.84642(16) 0.6722(4)
C32 C 0.7907(4) 0.80709(15) 0.6951(4)
C33 C 0.7652(5) 0.77771(19) 0.7525(5)
C34 C 0.7057(8) 0.7896(2) 0.7869(7)
C35 C 0.6599(7) 0.8279(2) 0.7645(7)
C36 C 0.8956(3) 0.60359(14) 0.8191(3)
C37 C 0.8660(4) 0.64745(14) 0.8022(4)
C38 C 0.8258(4) 0.66647(16) 0.7017(4)
C39 C 0.7993(4) 0.70751(19) 0.6863(4)
C40 C 0.8046(5) 0.73386(17) 0.7697(5)
C41 C 0.8443(6) 0.71560(19) 0.8687(5)
C42 C 0.8733(6) 0.67412(19) 0.8847(5)
N18 N 0.5763(3) 0.95560(10) 0.7055(3)
N19 N 0.6191(3) 0.92192(10) 0.7574(3)
N20 N 0.6068(3) 0.91980(11) 0.5911(3)
N21 N 0.9531(2) 0.54567(10) 0.8010(3)
N22 N 0.9428(3) 0.54540(10) 0.8899(3)
N23 N 0.9071(3) 0.58075(11) 0.9046(3)
N24 N 0.9224(3) 0.58241(11) 0.7530(3)
F17 F 0.7768(2) 0.87385(9) 0.6203(3)
F18 F 0.8559(2) 0.79802(9) 0.6609(3)
F19 F 0.6710(6) 0.76071(13) 0.8385(6)
F20 F 0.5967(5) 0.83738(12) 0.8012(5)
F21 F 0.8152(2) 0.64305(8) 0.6153(2)
F22 F 0.7580(3) 0.72212(10) 0.5849(2)
F23 F 0.8534(6) 0.73904(13) 0.9515(3)
F24 F 0.9046(4) 0.65877(11) 0.9825(3)
N36 N 0.4531(2) 0.95433(10) 0.8010(3)
N40 N 0.4428(3) 0.95460(10) 0.8899(3)
Cu7 Cu 0.98423(5) 0.5000 0.24330(5)
O1_3 O 0.1041(3) 0.5000 0.4227(3)
Cu1_3 Cu -0.0000 0.5000 0.5000
H1_2 H 0.1395(8) 0.47792(8) 0.436(3)
H3_2 H 0.1395(8) 0.52208(8) 0.436(3)
N33_2 N 0.0679(3) 0.54569(11) 0.6065(3)
N34_2 N 0.0679(3) 0.45431(11) 0.6065(3)
C15_2 C 0.1382(3) 0.59995(13) 0.6846(3)
C16_2 C 0.1832(4) 0.64201(15) 0.7080(4)
C17_2 C 0.2482(4) 0.65358(16) 0.6722(4)
C18_2 C 0.2907(4) 0.69291(15) 0.6951(4)
C19_2 C 0.2652(5) 0.72229(19) 0.7525(5)
C20_2 C 0.2057(8) 0.7104(2) 0.7869(7)
C21_2 C 0.1599(7) 0.6721(2) 0.7645(7)
C22_2 C 0.3956(3) 0.89641(14) 0.8191(3)
C23_2 C 0.3660(4) 0.85255(14) 0.8022(4)
C24_2 C 0.3258(4) 0.83353(16) 0.7017(4)
C25_2 C 0.2993(4) 0.79249(19) 0.6863(4)
C26_2 C 0.3046(5) 0.76614(17) 0.7697(5)
C27_2 C 0.3443(6) 0.78440(19) 0.8687(5)
C28_2 C 0.3733(6) 0.82588(19) 0.8847(5)
N10_2 N 0.0763(3) 0.54440(10) 0.7055(3)
N11_2 N 0.1191(3) 0.57808(10) 0.7574(3)
N12_2 N 0.1068(3) 0.58020(11) 0.5911(3)
N15_2 N 0.4071(3) 0.91925(11) 0.9046(3)
N16_2 N 0.4224(3) 0.91759(11) 0.7530(3)
O4_3 O 0.1210(3) 0.5000 0.9380(3)
F9_2 F 0.2768(2) 0.62615(9) 0.6203(3)
F10_2 F 0.3559(2) 0.70198(9) 0.6609(3)
F11_2 F 0.1710(6) 0.73929(13) 0.8385(6)
F12_2 F 0.0967(5) 0.66262(12) 0.8012(5)
F13_2 F 0.3152(2) 0.85695(8) 0.6153(2)
F14_2 F 0.2580(3) 0.77788(10) 0.5849(2)
F15_2 F 0.3534(6) 0.76096(13) 0.9515(3)
F16_2 F 0.4046(4) 0.84123(11) 0.9825(3)
H6_2 H 0.1531(12) 0.52215(8) 0.965(3)
H8_2 H 0.1531(12) 0.47785(8) 0.965(3)
C29_2 C 0.1382(3) 0.40005(13) 0.6846(3)
C30_2 C 0.1832(4) 0.35799(15) 0.7080(4)
C31_2 C 0.2482(4) 0.34642(16) 0.6722(4)
C32_2 C 0.2907(4) 0.30709(15) 0.6951(4)
C33_2 C 0.2652(5) 0.27771(19) 0.7525(5)
C34_2 C 0.2057(8) 0.2896(2) 0.7869(7)
C35_2 C 0.1599(7) 0.3279(2) 0.7645(7)
C36_2 C 0.3956(3) 0.10359(14) 0.8191(3)
C37_2 C 0.3660(4) 0.14745(14) 0.8022(4)
C38_2 C 0.3258(4) 0.16647(16) 0.7017(4)
C39_2 C 0.2993(4) 0.20751(19) 0.6863(4)
C40_2 C 0.3046(5) 0.23386(17) 0.7697(5)
C41_2 C 0.3443(6) 0.21560(19) 0.8687(5)
C42_2 C 0.3733(6) 0.17412(19) 0.8847(5)
N18_2 N 0.0763(3) 0.45560(10) 0.7055(3)
N19_2 N 0.1191(3) 0.42192(10) 0.7574(3)
N20_2 N 0.1068(3) 0.41980(11) 0.5911(3)
N23_2 N 0.4071(3) 0.08075(11) 0.9046(3)
N24_2 N 0.4224(3) 0.08241(11) 0.7530(3)
F17_2 F 0.2768(2) 0.37385(9) 0.6203(3)
F18_2 F 0.3559(2) 0.29802(9) 0.6609(3)
F19_2 F 0.1710(6) 0.26071(13) 0.8385(6)
F20_2 F 0.0967(5) 0.33738(12) 0.8012(5)
F21_2 F 0.3152(2) 0.14305(8) 0.6153(2)
F22_2 F 0.2580(3) 0.22212(10) 0.5849(2)
F23_2 F 0.3534(6) 0.23904(13) 0.9515(3)
F24_2 F 0.4046(4) 0.15877(11) 0.9825(3)
C1_2 C 0.8618(3) 0.59995(13) 0.3154(3)
C2_2 C 0.8168(4) 0.64201(15) 0.2920(4)
C3_2 C 0.7518(4) 0.65358(16) 0.3278(4)
C4_2 C 0.7093(4) 0.69291(15) 0.3049(4)
C5_2 C 0.7348(5) 0.72229(19) 0.2475(5)
C6_2 C 0.7943(8) 0.7104(2) 0.2131(7)
C7_2 C 0.8401(7) 0.6721(2) 0.2355(7)
C8_2 C 0.6044(3) 0.89641(14) 0.1809(3)
C9_2 C 0.6340(4) 0.85255(14) 0.1978(4)
C10_2 C 0.6742(4) 0.83353(16) 0.2983(4)
C11_2 C 0.7007(4) 0.79249(19) 0.3137(4)
C12_2 C 0.6954(5) 0.76614(17) 0.2303(5)
C13_2 C 0.6557(6) 0.78440(19) 0.1313(5)
C14_2 C 0.6267(6) 0.82588(19) 0.1153(5)
N1_2 N 0.9321(3) 0.54569(11) 0.3935(3)
N2_2 N 0.9237(3) 0.54440(10) 0.2945(3)
N3_2 N 0.8809(3) 0.57808(10) 0.2426(3)
N4_2 N 0.8932(3) 0.58020(11) 0.4089(3)
N7_2 N 0.5929(3) 0.91925(11) 0.0954(3)
N8_2 N 0.5776(3) 0.91759(11) 0.2470(3)
O2_3 O 0.8790(3) 0.5000 0.0620(3)
F1_2 F 0.7232(2) 0.62615(9) 0.3797(3)
F2_2 F 0.6441(2) 0.70198(9) 0.3391(3)
F3_2 F 0.8290(6) 0.73929(13) 0.1615(6)
F4_2 F 0.9033(5) 0.66262(12) 0.1988(5)
F5_2 F 0.6848(2) 0.85695(8) 0.3847(2)
F6_2 F 0.7420(3) 0.77788(10) 0.4151(2)
F7_2 F 0.6466(6) 0.76096(13) 0.0485(3)
F8_2 F 0.5954(4) 0.84123(11) 0.0175(3)
Cu1_4 Cu 1.0000 0.5000 0.5000
H2_2 H 0.8469(12) 0.52215(8) 0.035(3)
H4_2 H 0.8469(12) 0.47785(8) 0.035(3)
C43_2 C 0.8618(3) 0.40005(13) 0.3154(3)
C44_2 C 0.8168(4) 0.35799(15) 0.2920(4)
C45_2 C 0.7518(4) 0.34642(16) 0.3278(4)
C46_2 C 0.7093(4) 0.30709(15) 0.3049(4)
C47_2 C 0.7348(5) 0.27771(19) 0.2475(5)
C48_2 C 0.7943(8) 0.2896(2) 0.2131(7)
C49_2 C 0.8401(7) 0.3279(2) 0.2355(7)
C50_2 C 0.6044(3) 0.10359(14) 0.1809(3)
C51_2 C 0.6340(4) 0.14745(14) 0.1978(4)
C52_2 C 0.6742(4) 0.16647(16) 0.2983(4)
C53_2 C 0.7007(4) 0.20751(19) 0.3137(4)
C54_2 C 0.6954(5) 0.23386(17) 0.2303(5)
C55_2 C 0.6557(6) 0.21560(19) 0.1313(5)
C56_2 C 0.6267(6) 0.17412(19) 0.1153(5)
N25_2 N 0.9321(3) 0.45431(11) 0.3935(3)
N26_2 N 0.9237(3) 0.45560(10) 0.2945(3)
N27_2 N 0.8809(3) 0.42192(10) 0.2426(3)
N28_2 N 0.8932(3) 0.41980(11) 0.4089(3)
N31_2 N 0.5929(3) 0.08075(11) 0.0954(3)
N32_2 N 0.5776(3) 0.08241(11) 0.2470(3)
F25_2 F 0.7232(2) 0.37385(9) 0.3797(3)
F26_2 F 0.6441(2) 0.29802(9) 0.3391(3)
F27_2 F 0.8290(6) 0.26071(13) 0.1615(6)
F28_2 F 0.9033(5) 0.33738(12) 0.1988(5)
F29_2 F 0.6848(2) 0.14305(8) 0.3847(2)
F30_2 F 0.7420(3) 0.22212(10) 0.4151(2)
F31_2 F 0.6466(6) 0.23904(13) 0.0485(3)
F32_2 F 0.5954(4) 0.15877(11) 0.0175(3)
O5_3 O 0.8959(3) 0.5000 0.5773(3)
H5_2 H 0.8605(8) 0.47792(8) 0.564(3)
H7_2 H 0.8605(8) 0.52208(8) 0.564(3)
loop_
_geom_bond_atom_site_label_1
_geom_bond_atom_site_label_2
_geom_bond_site_symmetry_1
_geom_bond_site_symmetry_2
C1 C2 1_555 1_555
C2 C3 1_555 1_555
C3 C4 1_555 1_555
C4 C5 1_555 1_555
C5 C6 1_555 1_555
C6 C7 1_555 1_555
C7 C2 1_555 1_555
C8 C9 1_555 1_555
C9 C10 1_555 1_555
C10 C11 1_555 1_555
C11 C12 1_555 1_555
C12 C5 1_555 1_555
C13 C12 1_555 1_555
C14 C9 1_555 1_555
N1 N2 1_555 1_555
N2 N3 1_555 1_555
N3 C1 1_555 1_555
N4 C1 1_555 1_555
N5 N6 1_555 1_555
N6 N7 1_555 1_555
N7 C8 1_555 1_555
N8 C8 1_555 1_555
O1 Cu1 1_555 1_555
O2 Cu2 1_555 1_555
F1 C3 1_555 1_555
F2 C4 1_555 1_555
F3 C6 1_555 1_555
F4 C7 1_555 1_555
F5 C10 1_555 1_555
F6 C11 1_555 1_555
F7 C13 1_555 1_555
F8 C14 1_555 1_555
Cu1 N1 1_555 1_555
Cu2 N2 1_555 1_555
Cu3 O2 1_555 1_555
H2 O2 1_555 1_555
H3 O1 1_555 1_555
N33 Cu1 1_555 1_555
N38 Cu2 1_555 1_555
N42 Cu3 1_555 1_555
O5 Cu1 1_555 1_555
Cu13 N6 1_555 1_555
C13 C14 1_555 1_555
N1 N4 1_555 1_555
N5 N8 1_555 1_555
O1 Cu2 1_555 1_555
N38 N42 1_555 1_555
C15 C16 1_555 1_555
C16 C17 1_555 1_555
C17 C18 1_555 1_555
C18 C19 1_555 1_555
C19 C20 1_555 1_555
C20 C21 1_555 1_555
C21 C16 1_555 1_555
C22 C23 1_555 1_555
C23 C24 1_555 1_555
C24 C25 1_555 1_555
C25 C26 1_555 1_555
C26 C19 1_555 1_555
C27 C26 1_555 1_555
C28 C23 1_555 1_555
N33 N10 1_555 1_555
N10 N11 1_555 1_555
N11 C15 1_555 1_555
N12 C15 1_555 1_555
N13 N14 1_555 1_555
N14 N15 1_555 1_555
N15 C22 1_555 1_555
N16 C22 1_555 1_555
O5 Cu4 1_555 1_555
O4 Cu3_2 1_555 1_555
F9 C17 1_555 1_555
F10 C18 1_555 1_555
F11 C20 1_555 1_555
F12 C21 1_555 1_555
F13 C24 1_555 1_555
F14 C25 1_555 1_555
F15 C27 1_555 1_555
F16 C28 1_555 1_555
Cu4 N10 1_555 1_555
H6 O4 1_555 1_555
H7 O5 1_555 1_555
N37 Cu4 1_555 1_555
N41 Cu3_2 1_555 1_555
Cu13_4 N14 1_555 1_555
C27 C28 1_555 1_555
N33 N12 1_555 1_555
N13 N16 1_555 1_555
O4 Cu4 1_555 1_555
N37 N41 1_555 1_555
O1_2 Cu1_2 1_555 1_555
O2_2 Cu2_2 1_555 1_555
Cu3_3 O2_2 1_555 1_555
H1 O1_2 1_555 1_555
H4 O2_2 1_555 1_555
C43 C44 1_555 1_555
C44 C45 1_555 1_555
C45 C46 1_555 1_555
C46 C47 1_555 1_555
C47 C48 1_555 1_555
C48 C49 1_555 1_555
C49 C44 1_555 1_555
C50 C51 1_555 1_555
C51 C52 1_555 1_555
C52 C53 1_555 1_555
C53 C54 1_555 1_555
C54 C47 1_555 1_555
C55 C54 1_555 1_555
C56 C51 1_555 1_555
N25 Cu1_2 1_555 1_555
N26 Cu2_2 1_555 1_555
N27 C43 1_555 1_555
N28 C43 1_555 1_555
N29 N30 1_555 1_555
N30 N31 1_555 1_555
N31 C50 1_555 1_555
N32 C50 1_555 1_555
F25 C45 1_555 1_555
F26 C46 1_555 1_555
F27 C48 1_555 1_555
F28 C49 1_555 1_555
F29 C52 1_555 1_555
F30 C53 1_555 1_555
F31 C55 1_555 1_555
F32 C56 1_555 1_555
N34 Cu1_2 1_555 1_555
N35 Cu2_2 1_555 1_555
N39 Cu3_3 1_555 1_555
O5_2 Cu1_2 1_555 1_555
Cu13 N30 1_555 1_555
O1_2 Cu2_2 1_555 1_555
C55 C56 1_555 1_555
N25 N26 1_555 1_555
N25 N28 1_555 1_555
N26 N27 1_555 1_555
N29 N32 1_555 1_555
N35 N39 1_555 1_555
O5_2 Cu4_2 1_555 1_555
O4_2 Cu3_4 1_555 1_555
H5 O5_2 1_555 1_555
H8 O4_2 1_555 1_555
C29 C30 1_555 1_555
C30 C31 1_555 1_555
C31 C32 1_555 1_555
C32 C33 1_555 1_555
C33 C34 1_555 1_555
C34 C35 1_555 1_555
C35 C30 1_555 1_555
C36 C37 1_555 1_555
C37 C38 1_555 1_555
C38 C39 1_555 1_555
C39 C40 1_555 1_555
C40 C33 1_555 1_555
C41 C40 1_555 1_555
C42 C37 1_555 1_555
N34 N18 1_555 1_555
N18 Cu4_2 1_555 1_555
N19 C29 1_555 1_555
N20 C29 1_555 1_555
N21 N22 1_555 1_555
N22 N23 1_555 1_555
N23 C36 1_555 1_555
N24 C36 1_555 1_555
F17 C31 1_555 1_555
F18 C32 1_555 1_555
F19 C34 1_555 1_555
F20 C35 1_555 1_555
F21 C38 1_555 1_555
F22 C39 1_555 1_555
F23 C41 1_555 1_555
F24 C42 1_555 1_555
N36 Cu4_2 1_555 1_555
N40 Cu3_4 1_555 1_555
Cu13_4 N22 1_555 1_555
O4_2 Cu4_2 1_555 1_555
C41 C42 1_555 1_555
N34 N20 1_555 1_555
N18 N19 1_555 1_555
N21 N24 1_555 1_555
N36 N40 1_555 1_555
O1_3 Cu1_3 1_555 1_555
H1_2 O1_3 1_555 1_555
H3_2 O1_3 1_555 1_555
N33_2 Cu1_3 1_555 1_555
N34_2 Cu1_3 1_555 1_555
C15_2 C16_2 1_555 1_555
C16_2 C17_2 1_555 1_555
C17_2 C18_2 1_555 1_555
C18_2 C19_2 1_555 1_555
C19_2 C20_2 1_555 1_555
C20_2 C21_2 1_555 1_555
C21_2 C16_2 1_555 1_555
C22_2 C23_2 1_555 1_555
C23_2 C24_2 1_555 1_555
C24_2 C25_2 1_555 1_555
C25_2 C26_2 1_555 1_555
C26_2 C19_2 1_555 1_555
C27_2 C26_2 1_555 1_555
C28_2 C23_2 1_555 1_555
N33_2 N10_2 1_555 1_555
N10_2 N11_2 1_555 1_555
N11_2 C15_2 1_555 1_555
N12_2 C15_2 1_555 1_555
N40 N15_2 1_555 1_555
N15_2 C22_2 1_555 1_555
N16_2 C22_2 1_555 1_555
O4_3 Cu13_2 1_555 1_555
F9_2 C17_2 1_555 1_555
F10_2 C18_2 1_555 1_555
F11_2 C20_2 1_555 1_555
F12_2 C21_2 1_555 1_555
F13_2 C24_2 1_555 1_555
F14_2 C25_2 1_555 1_555
F15_2 C27_2 1_555 1_555
F16_2 C28_2 1_555 1_555
Cu9 N10_2 1_555 1_555
H6_2 O4_3 1_555 1_555
H8_2 O4_3 1_555 1_555
C29_2 C30_2 1_555 1_555
C30_2 C31_2 1_555 1_555
C31_2 C32_2 1_555 1_555
C32_2 C33_2 1_555 1_555
C33_2 C34_2 1_555 1_555
C34_2 C35_2 1_555 1_555
C35_2 C30_2 1_555 1_555
C36_2 C37_2 1_555 1_555
C37_2 C38_2 1_555 1_555
C38_2 C39_2 1_555 1_555
C39_2 C40_2 1_555 1_555
C40_2 C33_2 1_555 1_555
C41_2 C40_2 1_555 1_555
C42_2 C37_2 1_555 1_555
N34_2 N18_2 1_555 1_555
N18_2 Cu9 1_555 1_555
N19_2 C29_2 1_555 1_555
N20_2 C29_2 1_555 1_555
N41 N23_2 1_555 1_555
N23_2 C36_2 1_555 1_555
N24_2 C36_2 1_555 1_555
F17_2 C31_2 1_555 1_555
F18_2 C32_2 1_555 1_555
F19_2 C34_2 1_555 1_555
F20_2 C35_2 1_555 1_555
F21_2 C38_2 1_555 1_555
F22_2 C39_2 1_555 1_555
F23_2 C41_2 1_555 1_555
F24_2 C42_2 1_555 1_555
C27_2 C28_2 1_555 1_555
N33_2 N12_2 1_555 1_555
N36 N16_2 1_555 1_555
O4_3 Cu9 1_555 1_555
C41_2 C42_2 1_555 1_555
N34_2 N20_2 1_555 1_555
N18_2 N19_2 1_555 1_555
N37 N24_2 1_555 1_555
C1_2 C2_2 1_555 1_555
C2_2 C3_2 1_555 1_555
C3_2 C4_2 1_555 1_555
C4_2 C5_2 1_555 1_555
C5_2 C6_2 1_555 1_555
C6_2 C7_2 1_555 1_555
C7_2 C2_2 1_555 1_555
C8_2 C9_2 1_555 1_555
C9_2 C10_2 1_555 1_555
C10_2 C11_2 1_555 1_555
C11_2 C12_2 1_555 1_555
C12_2 C5_2 1_555 1_555
C13_2 C12_2 1_555 1_555
C14_2 C9_2 1_555 1_555
N1_2 N2_2 1_555 1_555
N2_2 N3_2 1_555 1_555
N3_2 C1_2 1_555 1_555
N4_2 C1_2 1_555 1_555
N39 N7_2 1_555 1_555
N7_2 C8_2 1_555 1_555
N8_2 C8_2 1_555 1_555
O2_3 Cu7 1_555 1_555
F1_2 C3_2 1_555 1_555
F2_2 C4_2 1_555 1_555
F3_2 C6_2 1_555 1_555
F4_2 C7_2 1_555 1_555
F5_2 C10_2 1_555 1_555
F6_2 C11_2 1_555 1_555
F7_2 C13_2 1_555 1_555
F8_2 C14_2 1_555 1_555
Cu1_4 N1_2 1_555 1_555
Cu7 N2_2 1_555 1_555
Cu13_3 O2_3 1_555 1_555
H2_2 O2_3 1_555 1_555
H4_2 O2_3 1_555 1_555
C43_2 C44_2 1_555 1_555
C44_2 C45_2 1_555 1_555
C45_2 C46_2 1_555 1_555
C46_2 C47_2 1_555 1_555
C47_2 C48_2 1_555 1_555
C48_2 C49_2 1_555 1_555
C49_2 C44_2 1_555 1_555
C50_2 C51_2 1_555 1_555
C51_2 C52_2 1_555 1_555
C52_2 C53_2 1_555 1_555
C53_2 C54_2 1_555 1_555
C54_2 C47_2 1_555 1_555
C55_2 C54_2 1_555 1_555
C56_2 C51_2 1_555 1_555
N25_2 Cu1_4 1_555 1_555
N26_2 Cu7 1_555 1_555
N27_2 C43_2 1_555 1_555
N28_2 C43_2 1_555 1_555
N42 N31_2 1_555 1_555
N31_2 C50_2 1_555 1_555
N32_2 C50_2 1_555 1_555
F25_2 C45_2 1_555 1_555
F26_2 C46_2 1_555 1_555
F27_2 C48_2 1_555 1_555
F28_2 C49_2 1_555 1_555
F29_2 C52_2 1_555 1_555
F30_2 C53_2 1_555 1_555
F31_2 C55_2 1_555 1_555
F32_2 C56_2 1_555 1_555
O5_3 Cu1_4 1_555 1_555
C13_2 C14_2 1_555 1_555
N1_2 N4_2 1_555 1_555
N35 N8_2 1_555 1_555
C55_2 C56_2 1_555 1_555
N25_2 N26_2 1_555 1_555
N25_2 N28_2 1_555 1_555
N26_2 N27_2 1_555 1_555
N38 N32_2 1_555 1_555
H5_2 O5_3 1_555 1_555
H7_2 O5_3 1_555 1_555

#END
