
###############################################################################
#
# This file contains modified crystal structure data generated from the
# MOF subset of the Cambridge Structural Database (CSD) v543 
# hosted by the Cambridge Crystallographic Data Centre (CCDC).
#
# This work is licensed under the Creative Commons
# Attribution-NonCommercial-ShareAlike 4.0 International License.
# To view a copy of this license, visit
# http://creativecommons.org/licenses/by-nc-sa/4.0/
# or send a letter to
# Creative Commons, PO Box 1866, Mountain View, CA 94042, USA.
#
# CIF created using the CSD Python API on 29 September 2022
# The structure has been converted into the P1 space group
# The structure has a 3D framework
# The original CSD entry CIDNIM is in the tetragonal crystal system
# The original CSD entry CIDNIM is in a Sohncke space group
# The framework has been calculated to contain at least 10.0% void space
# The void calculation uses a probe of radius 1.32A, grid spacing 0.4
# The framework is charged, counterions have been retained in the structure
# H atom positions have been added when not included in the experimental data
#
###############################################################################

data_CIDNIM
_chemical_formula_moiety         '(C112 H184 Cu8 N48 O32)n'
_symmetry_cell_setting           triclinic
_symmetry_space_group_name_H-M   'P 1'
_symmetry_Int_Tables_number      1
_space_group_name_Hall           'P 1'
loop_
_symmetry_equiv_pos_site_id
_symmetry_equiv_pos_as_xyz
1 x,y,z
_cell_length_a                   14.937(4)
_cell_length_b                   14.937(4)
_cell_length_c                   25.903(9)
_cell_angle_alpha                90
_cell_angle_beta                 90
_cell_angle_gamma                90
_cell_volume                     5779.32
loop_
_atom_site_label
_atom_site_type_symbol
_atom_site_fract_x
_atom_site_fract_y
_atom_site_fract_z
Cu1 Cu 0.26140 0.13470 0.04310
N1 N 0.35370 0.22640 0.05410
C1 C 0.39070 0.22110 0.10960
C2 C 0.33010 0.16440 0.14400
O1 O 0.34310 0.16250 0.19170
N2 N 0.26490 0.11920 0.12210
C3 C 0.19990 0.06490 0.15220
C4 C 0.11180 0.06110 0.12360
C5 C 0.11480 0.01520 0.07190
N3 N 0.17940 0.04000 0.03420
O6 O 0.16030 0.26540 0.03130
H3 H 0.326572 0.287868 0.0482402
H4 H 0.404487 0.216492 0.0287012
H5 H 0.395009 0.288445 0.125512
H6 H 0.45718 0.191218 0.108642
H7 H 0.0888816 0.129513 0.117559
H8 H 0.0638771 0.0255645 0.147764
H9 H 0.189109 0.0969081 0.189457
O5 O 0.26540 0.16030 0.96870
N4 N 0.10420 0.92500 0.00800
C7 C 0.07100 0.94080 0.05620
C8 C 0.23640 0.97190 0.16110
O2 O 0.19520 0.91890 0.19460
N5 N 0.30730 0.94310 0.13370
C9 C 0.33620 0.84980 0.13910
C10 C 0.40520 0.82500 0.09680
C11 C 0.35570 0.82430 0.04520
C12 C 0.42780 0.78860 0.00160
C14 C 0.37370 0.83090 0.19460
O3 O 0.43200 0.88180 0.20900
O4 O 0.33970 0.76540 0.21870
Cu2 Cu 0.36530 0.76140 0.29310
Cu3 Cu 0.23860 0.63470 0.20690
H1 H 0.340296 0.985379 0.109637
H2 H 0.277617 0.807472 0.133578
H12 H 0.0208361 0.902391 0.0771799
H13 H 0.332948 0.891523 0.0355727
H14 H 0.298384 0.779364 0.0471044
H18 H 0.447091 0.719376 0.00869235
H19 H 0.487432 0.83051 0.000616523
H20 H 0.433295 0.759085 0.104564
H21 H 0.45879 0.874407 0.0959109
N1_2 N 0.27360 0.85370 0.30410
C1_2 C 0.27890 0.89070 0.35960
C2_2 C 0.33560 0.83010 0.39400
O1_2 O 0.33750 0.84310 0.44170
N2_2 N 0.38080 0.76490 0.37210
C3_2 C 0.43510 0.69990 0.40220
C4_2 C 0.43890 0.61180 0.37360
C5_2 C 0.48480 0.61480 0.32190
N3_2 N 0.46000 0.67940 0.28420
C6 C 0.51700 0.66800 0.24640
N4_2 N 0.57500 0.60420 0.25800
C7_2 C 0.55920 0.57100 0.30620
C8_2 C 0.52810 0.73640 0.41110
O2_2 O 0.58110 0.69520 0.44460
N5_2 N 0.55690 0.80730 0.38370
C9_2 C 0.65020 0.83620 0.38910
C10_2 C 0.67500 0.90520 0.34680
C11_2 C 0.67570 0.85570 0.29520
C12_2 C 0.71140 0.92780 0.25160
C13 C 0.70250 0.87300 0.20130
N6 N 0.65000 0.92710 0.16370
C14_2 C 0.66910 0.87370 0.44460
O3_2 O 0.61820 0.93200 0.45900
O4_2 O 0.73460 0.83970 0.46870
Cu2_2 Cu 0.73860 0.86530 0.54310
Cu3_2 Cu 0.86530 0.73860 0.45690
O6_2 O 0.23460 0.66030 0.28130
H1_2 H 0.514621 0.840296 0.359637
H2_2 H 0.692528 0.777617 0.383578
H3_2 H 0.212132 0.826572 0.29824
H4_2 H 0.283508 0.904487 0.278701
H5_2 H 0.211555 0.895009 0.375512
H6_2 H 0.308782 0.95718 0.358642
H7_2 H 0.370487 0.588882 0.367559
H8_2 H 0.474435 0.563877 0.397764
H9_2 H 0.403092 0.689109 0.439457
H10 H 0.516713 0.705755 0.210435
H11 H 0.624606 0.582814 0.234229
H12_2 H 0.597609 0.520836 0.32718
H13_2 H 0.608477 0.832948 0.285573
H14_2 H 0.720636 0.798384 0.297104
H15 H 0.682424 0.985551 0.156645
H16 H 0.643255 0.892366 0.130247
H17 H 0.588528 0.940267 0.178575
H18_2 H 0.780624 0.947091 0.258692
H19_2 H 0.66949 0.987432 0.250617
H20_2 H 0.740915 0.933295 0.354564
H21_2 H 0.625593 0.95879 0.345911
H22 H 0.667913 0.810281 0.209151
H23 H 0.768655 0.858866 0.185623
C6_2 C 0.83200 0.01700 0.49640
N4_3 N 0.89580 0.07500 0.50800
C7_3 C 0.92900 0.05920 0.55620
C8_3 C 0.76360 0.02810 0.66110
O2_3 O 0.80480 0.08110 0.69460
N5_3 N 0.69270 0.05690 0.63370
C9_3 C 0.66380 0.15020 0.63910
C10_3 C 0.59480 0.17500 0.59680
C11_3 C 0.64430 0.17570 0.54520
C12_3 C 0.57220 0.21140 0.50160
C13_2 C 0.62700 0.20250 0.45130
N6_2 N 0.57290 0.15000 0.41370
C14_3 C 0.62630 0.16910 0.69460
O3_3 O 0.56800 0.11820 0.70900
O4_3 O 0.66030 0.23460 0.71870
Cu2_3 Cu 0.63470 0.23860 0.79310
Cu3_3 Cu 0.76140 0.36530 0.70690
H1_3 H 0.659704 0.0146215 0.609637
H2_3 H 0.722383 0.192528 0.633578
H10_2 H 0.794245 0.0167132 0.460435
H11_2 H 0.917186 0.124606 0.484229
H12_3 H 0.979164 0.0976086 0.57718
H13_3 H 0.667052 0.108477 0.535573
H14_3 H 0.701616 0.220636 0.547104
H15_2 H 0.514449 0.182424 0.406645
H16_2 H 0.607634 0.143255 0.380247
H17_2 H 0.559733 0.0885284 0.428575
H18_3 H 0.552909 0.280624 0.508692
H19_3 H 0.512568 0.16949 0.500617
H20_3 H 0.566705 0.240915 0.604564
H21_3 H 0.54121 0.125593 0.595911
H22_2 H 0.689719 0.167913 0.459151
H23_2 H 0.641134 0.268655 0.435623
N1_3 N 0.64630 0.77360 0.55410
C1_3 C 0.60930 0.77890 0.60960
C2_3 C 0.66990 0.83560 0.64400
O1_3 O 0.65690 0.83750 0.69170
N2_3 N 0.73510 0.88080 0.62210
C3_3 C 0.80010 0.93510 0.65220
C4_3 C 0.88820 0.93890 0.62360
C5_3 C 0.88520 0.98480 0.57190
N3_3 N 0.82060 0.96000 0.53420
O6_3 O 0.83970 0.73460 0.53130
H3_3 H 0.673428 0.712132 0.54824
H4_3 H 0.595513 0.783508 0.528701
H5_3 H 0.604991 0.711555 0.625512
H6_3 H 0.54282 0.808782 0.608642
H7_3 H 0.911118 0.870487 0.617559
H8_3 H 0.936123 0.974435 0.647764
H9_3 H 0.810891 0.903092 0.689457
N1_4 N 0.72640 0.14630 0.80410
C1_4 C 0.72110 0.10930 0.85960
C2_4 C 0.66440 0.16990 0.89400
O1_4 O 0.66250 0.15690 0.94170
N2_4 N 0.61920 0.23510 0.87210
C3_4 C 0.56490 0.30010 0.90220
C4_4 C 0.56110 0.38820 0.87360
C5_4 C 0.51520 0.38520 0.82190
N3_4 N 0.54000 0.32060 0.78420
C6_3 C 0.48300 0.33200 0.74640
N4_4 N 0.42500 0.39580 0.75800
C7_4 C 0.44080 0.42900 0.80620
C8_4 C 0.47190 0.26360 0.91110
O2_4 O 0.41890 0.30480 0.94460
N5_4 N 0.44310 0.19270 0.88370
C9_4 C 0.34980 0.16380 0.88910
C10_4 C 0.32500 0.09480 0.84680
C11_4 C 0.32430 0.14430 0.79520
C12_4 C 0.28860 0.07220 0.75160
C13_3 C 0.29750 0.12700 0.70130
N6_3 N 0.35000 0.07290 0.66370
C14_4 C 0.33090 0.12630 0.94460
O3_4 O 0.38180 0.06800 0.95900
Cu3_4 Cu 0.13470 0.26140 0.95690
O6_4 O 0.76540 0.33970 0.78130
H1_4 H 0.485379 0.159704 0.859637
H2_4 H 0.307472 0.222383 0.883578
H3_4 H 0.787868 0.173428 0.79824
H4_4 H 0.716492 0.0955129 0.778701
H5_4 H 0.788445 0.104991 0.875512
H6_4 H 0.691218 0.0428198 0.858642
H7_4 H 0.629513 0.411118 0.867559
H8_4 H 0.525565 0.436123 0.897764
H9_4 H 0.596908 0.310891 0.939457
H10_3 H 0.483287 0.294245 0.710435
H11_3 H 0.375394 0.417186 0.734229
H12_4 H 0.402391 0.479164 0.82718
H13_4 H 0.391523 0.167052 0.785573
H14_4 H 0.279364 0.201616 0.797104
H15_3 H 0.317576 0.0144495 0.656645
H16_3 H 0.356745 0.107634 0.630247
H17_3 H 0.411472 0.0597333 0.678575
H18_4 H 0.219376 0.052909 0.758692
H19_4 H 0.33051 0.0125681 0.750617
H20_4 H 0.259085 0.0667054 0.854564
H21_4 H 0.374407 0.0412096 0.845911
H22_3 H 0.332087 0.189719 0.709151
H23_3 H 0.231345 0.141134 0.685623
N1_5 N 0.22640 0.35370 0.94590
C1_5 C 0.22110 0.39070 0.89040
C2_5 C 0.16440 0.33010 0.85600
O1_5 O 0.16250 0.34310 0.80830
N2_5 N 0.11920 0.26490 0.87790
C3_5 C 0.06490 0.19990 0.84780
C4_5 C 0.06110 0.11180 0.87640
C5_5 C 0.01520 0.11480 0.92810
N3_5 N 0.04000 0.17940 0.96580
H3_5 H 0.287868 0.326572 0.95176
H4_5 H 0.216492 0.404487 0.971299
H5_5 H 0.288445 0.395009 0.874488
H6_5 H 0.191218 0.45718 0.891358
H7_5 H 0.129513 0.0888816 0.882441
H8_5 H 0.0255645 0.0638771 0.852236
H9_5 H 0.0969081 0.189109 0.810543
N4_5 N 0.92500 0.10420 0.99200
C7_5 C 0.94080 0.07100 0.94380
C8_5 C 0.97190 0.23640 0.83890
O2_5 O 0.91890 0.19520 0.80540
N5_5 N 0.94310 0.30730 0.86630
C9_5 C 0.84980 0.33620 0.86090
C10_5 C 0.82500 0.40520 0.90320
C11_5 C 0.82430 0.35570 0.95480
C12_5 C 0.78860 0.42780 0.99840
C14_5 C 0.83090 0.37370 0.80540
O3_5 O 0.88180 0.43200 0.79100
H1_5 H 0.985379 0.340296 0.890363
H2_5 H 0.807472 0.277617 0.866422
H12_5 H 0.902391 0.0208361 0.92282
H13_5 H 0.891523 0.332948 0.964427
H14_5 H 0.779364 0.298384 0.952896
H18_5 H 0.719376 0.447091 0.991308
H19_5 H 0.83051 0.487432 0.999383
H20_5 H 0.759085 0.433295 0.895436
H21_5 H 0.874407 0.45879 0.904089
N1_6 N 0.85370 0.27360 0.69590
C1_6 C 0.89070 0.27890 0.64040
C2_6 C 0.83010 0.33560 0.60600
O1_6 O 0.84310 0.33750 0.55830
N2_6 N 0.76490 0.38080 0.62790
C3_6 C 0.69990 0.43510 0.59780
C4_6 C 0.61180 0.43890 0.62640
C5_6 C 0.61480 0.48480 0.67810
N3_6 N 0.67940 0.46000 0.71580
C6_4 C 0.66800 0.51700 0.75360
N4_6 N 0.60420 0.57500 0.74200
C7_6 C 0.57100 0.55920 0.69380
C8_6 C 0.73640 0.52810 0.58890
O2_6 O 0.69520 0.58110 0.55540
N5_6 N 0.80730 0.55690 0.61630
C9_6 C 0.83620 0.65020 0.61090
C10_6 C 0.90520 0.67500 0.65320
C11_6 C 0.85570 0.67570 0.70480
C12_6 C 0.92780 0.71140 0.74840
C13_4 C 0.87300 0.70250 0.79870
N6_4 N 0.92710 0.65000 0.83630
C14_6 C 0.87370 0.66910 0.55540
O3_6 O 0.93200 0.61820 0.54100
H1_6 H 0.840296 0.514621 0.640363
H2_6 H 0.777617 0.692528 0.616422
H3_6 H 0.826572 0.212132 0.70176
H4_6 H 0.904487 0.283508 0.721299
H5_6 H 0.895009 0.211555 0.624488
H6_6 H 0.95718 0.308782 0.641358
H7_6 H 0.588882 0.370487 0.632441
H8_6 H 0.563877 0.474435 0.602236
H9_6 H 0.689109 0.403092 0.560543
H10_4 H 0.705755 0.516713 0.789565
H11_4 H 0.582814 0.624606 0.765771
H12_6 H 0.520836 0.597609 0.67282
H13_6 H 0.832948 0.608477 0.714427
H14_6 H 0.798384 0.720636 0.702896
H15_4 H 0.985551 0.682424 0.843355
H16_4 H 0.892366 0.643255 0.869753
H17_4 H 0.940267 0.588528 0.821425
H18_6 H 0.947091 0.780624 0.741308
H19_6 H 0.987432 0.66949 0.749383
H20_6 H 0.933295 0.740915 0.645436
H21_6 H 0.95879 0.625593 0.654089
H22_4 H 0.810281 0.667913 0.790849
H23_4 H 0.858866 0.768655 0.814377
C6_5 C 0.01700 0.83200 0.50360
N4_7 N 0.07500 0.89580 0.49200
C7_7 C 0.05920 0.92900 0.44380
C8_7 C 0.02810 0.76360 0.33890
O2_7 O 0.08110 0.80480 0.30540
N5_7 N 0.05690 0.69270 0.36630
C9_7 C 0.15020 0.66380 0.36090
C10_7 C 0.17500 0.59480 0.40320
C11_7 C 0.17570 0.64430 0.45480
C12_7 C 0.21140 0.57220 0.49840
C13_5 C 0.20250 0.62700 0.54870
N6_5 N 0.15000 0.57290 0.58630
C14_7 C 0.16910 0.62630 0.30540
O3_7 O 0.11820 0.56800 0.29100
H1_7 H 0.0146215 0.659704 0.390363
H2_7 H 0.192528 0.722383 0.366422
H10_5 H 0.0167132 0.794245 0.539565
H11_5 H 0.124606 0.917186 0.515771
H12_7 H 0.0976086 0.979164 0.42282
H13_7 H 0.108477 0.667052 0.464427
H14_7 H 0.220636 0.701616 0.452896
H15_5 H 0.182424 0.514449 0.593355
H16_5 H 0.143255 0.607634 0.619753
H17_5 H 0.0885284 0.559733 0.571425
H18_7 H 0.280624 0.552909 0.491308
H19_7 H 0.16949 0.512568 0.499383
H20_7 H 0.240915 0.566705 0.395436
H21_7 H 0.125593 0.54121 0.404089
H22_5 H 0.167913 0.689719 0.540849
H23_5 H 0.268655 0.641134 0.564377
N1_7 N 0.77360 0.64630 0.44590
C1_7 C 0.77890 0.60930 0.39040
C2_7 C 0.83560 0.66990 0.35600
O1_7 O 0.83750 0.65690 0.30830
N2_7 N 0.88080 0.73510 0.37790
C3_7 C 0.93510 0.80010 0.34780
C4_7 C 0.93890 0.88820 0.37640
C5_7 C 0.98480 0.88520 0.42810
N3_7 N 0.96000 0.82060 0.46580
H3_7 H 0.712132 0.673428 0.45176
H4_7 H 0.783508 0.595513 0.471299
H5_7 H 0.711555 0.604991 0.374488
H6_7 H 0.808782 0.54282 0.391358
H7_7 H 0.870487 0.911118 0.382441
H8_7 H 0.974435 0.936123 0.352236
H9_7 H 0.903092 0.810891 0.310543
N1_8 N 0.14630 0.72640 0.19590
C1_8 C 0.10930 0.72110 0.14040
C2_8 C 0.16990 0.66440 0.10600
O1_8 O 0.15690 0.66250 0.05830
N2_8 N 0.23510 0.61920 0.12790
C3_8 C 0.30010 0.56490 0.09780
C4_8 C 0.38820 0.56110 0.12640
C5_8 C 0.38520 0.51520 0.17810
N3_8 N 0.32060 0.54000 0.21580
C6_6 C 0.33200 0.48300 0.25360
N4_8 N 0.39580 0.42500 0.24200
C7_8 C 0.42900 0.44080 0.19380
C8_8 C 0.26360 0.47190 0.08890
O2_8 O 0.30480 0.41890 0.05540
N5_8 N 0.19270 0.44310 0.11630
C9_8 C 0.16380 0.34980 0.11090
C10_8 C 0.09480 0.32500 0.15320
C11_8 C 0.14430 0.32430 0.20480
C12_8 C 0.07220 0.28860 0.24840
C13_6 C 0.12700 0.29750 0.29870
N6_6 N 0.07290 0.35000 0.33630
C14_8 C 0.12630 0.33090 0.05540
O3_8 O 0.06800 0.38180 0.04100
H1_8 H 0.159704 0.485379 0.140363
H2_8 H 0.222383 0.307472 0.116422
H3_8 H 0.173428 0.787868 0.20176
H4_8 H 0.0955129 0.716492 0.221299
H5_8 H 0.104991 0.788445 0.124488
H6_8 H 0.0428198 0.691218 0.141358
H7_8 H 0.411118 0.629513 0.132441
H8_8 H 0.436123 0.525565 0.102236
H9_8 H 0.310891 0.596908 0.060543
H10_6 H 0.294245 0.483287 0.289565
H11_6 H 0.417186 0.375394 0.265771
H12_8 H 0.479164 0.402391 0.17282
H13_8 H 0.167052 0.391523 0.214427
H14_8 H 0.201616 0.279364 0.202896
H15_6 H 0.0144495 0.317576 0.343355
H16_6 H 0.107634 0.356745 0.369753
H17_6 H 0.0597333 0.411472 0.321425
H18_8 H 0.052909 0.219376 0.241308
H19_8 H 0.0125681 0.33051 0.249383
H20_8 H 0.0667054 0.259085 0.145436
H21_8 H 0.0412096 0.374407 0.154089
H22_6 H 0.189719 0.332087 0.290849
H23_6 H 0.141134 0.231345 0.314377
C6_7 C 0.16800 0.98300 0.99640
C13_7 C 0.37300 0.79750 0.95130
N6_7 N 0.42710 0.85000 0.91370
H10_7 H 0.205755 0.983287 0.960435
H11_7 H 0.0828137 0.875394 0.984229
H15_7 H 0.485551 0.817576 0.906645
H16_7 H 0.392366 0.856745 0.880247
H17_7 H 0.440267 0.911472 0.928575
H22_7 H 0.310281 0.832087 0.959151
H23_7 H 0.358866 0.731345 0.935623
C6_8 C 0.98300 0.16800 0.00360
C13_8 C 0.79750 0.37300 0.04870
N6_8 N 0.85000 0.42710 0.08630
H10_8 H 0.983287 0.205755 0.0395646
H11_8 H 0.875394 0.0828137 0.0157711
H15_8 H 0.817576 0.485551 0.0933552
H16_8 H 0.856745 0.392366 0.119753
H17_8 H 0.911472 0.440267 0.0714254
H22_8 H 0.832087 0.310281 0.0408487
H23_8 H 0.731345 0.358866 0.0643772
loop_
_geom_bond_atom_site_label_1
_geom_bond_atom_site_label_2
_geom_bond_site_symmetry_1
_geom_bond_site_symmetry_2
Cu1 N1 1_555 1_555
N1 C1 1_555 1_555
C1 C2 1_555 1_555
C2 O1 1_555 1_555
N2 Cu1 1_555 1_555
C3 N2 1_555 1_555
C4 C3 1_555 1_555
C5 C4 1_555 1_555
N3 Cu1 1_555 1_555
O6 Cu1 1_555 1_555
C2 N2 1_555 1_555
C5 N3 1_555 1_555
N1 H3 1_555 1_555
N1 H4 1_555 1_555
C1 H5 1_555 1_555
C1 H6 1_555 1_555
C4 H7 1_555 1_555
C4 H8 1_555 1_555
C3 H9 1_555 1_555
O2 C8 1_555 1_555
N5 C8 1_555 1_555
C9 N5 1_555 1_555
C10 C9 1_555 1_555
C11 C10 1_555 1_555
C12 C11 1_555 1_555
C14 C9 1_555 1_555
O3 C14 1_555 1_555
O4 C14 1_555 1_555
Cu2 O4 1_555 1_555
Cu3 O4 1_555 1_555
N4 C7 1_555 1_555
N5 H1 1_555 1_555
C9 H2 1_555 1_555
C7 H12 1_555 1_555
C11 H13 1_555 1_555
C11 H14 1_555 1_555
C12 H18 1_555 1_555
C12 H19 1_555 1_555
C10 H20 1_555 1_555
C10 H21 1_555 1_555
Cu2 N1_2 1_555 1_555
N1_2 C1_2 1_555 1_555
C1_2 C2_2 1_555 1_555
C2_2 O1_2 1_555 1_555
N2_2 Cu2 1_555 1_555
C3_2 N2_2 1_555 1_555
C4_2 C3_2 1_555 1_555
C5_2 C4_2 1_555 1_555
N3_2 Cu2 1_555 1_555
C6 N3_2 1_555 1_555
N4_2 C6 1_555 1_555
C7_2 C5_2 1_555 1_555
C8_2 C3_2 1_555 1_555
O2_2 C8_2 1_555 1_555
N5_2 C8_2 1_555 1_555
C9_2 N5_2 1_555 1_555
C10_2 C9_2 1_555 1_555
C11_2 C10_2 1_555 1_555
C12_2 C11_2 1_555 1_555
C13 C12_2 1_555 1_555
N6 C13 1_555 1_555
C14_2 C9_2 1_555 1_555
O3_2 C14_2 1_555 1_555
O4_2 C14_2 1_555 1_555
Cu2_2 O4_2 1_555 1_555
Cu3_2 O4_2 1_555 1_555
O6_2 Cu2 1_555 1_555
C2_2 N2_2 1_555 1_555
C5_2 N3_2 1_555 1_555
N4_2 C7_2 1_555 1_555
N5_2 H1_2 1_555 1_555
C9_2 H2_2 1_555 1_555
N1_2 H3_2 1_555 1_555
N1_2 H4_2 1_555 1_555
C1_2 H5_2 1_555 1_555
C1_2 H6_2 1_555 1_555
C4_2 H7_2 1_555 1_555
C4_2 H8_2 1_555 1_555
C3_2 H9_2 1_555 1_555
C6 H10 1_555 1_555
N4_2 H11 1_555 1_555
C7_2 H12_2 1_555 1_555
C11_2 H13_2 1_555 1_555
C11_2 H14_2 1_555 1_555
N6 H15 1_555 1_555
N6 H16 1_555 1_555
N6 H17 1_555 1_555
C12_2 H18_2 1_555 1_555
C12_2 H19_2 1_555 1_555
C10_2 H20_2 1_555 1_555
C10_2 H21_2 1_555 1_555
C13 H22 1_555 1_555
C13 H23 1_555 1_555
N4_3 C6_2 1_555 1_555
O2_3 C8_3 1_555 1_555
N5_3 C8_3 1_555 1_555
C9_3 N5_3 1_555 1_555
C10_3 C9_3 1_555 1_555
C11_3 C10_3 1_555 1_555
C12_3 C11_3 1_555 1_555
C13_2 C12_3 1_555 1_555
N6_2 C13_2 1_555 1_555
C14_3 C9_3 1_555 1_555
O3_3 C14_3 1_555 1_555
O4_3 C14_3 1_555 1_555
Cu2_3 O4_3 1_555 1_555
Cu3_3 O4_3 1_555 1_555
N4_3 C7_3 1_555 1_555
N5_3 H1_3 1_555 1_555
C9_3 H2_3 1_555 1_555
C6_2 H10_2 1_555 1_555
N4_3 H11_2 1_555 1_555
C7_3 H12_3 1_555 1_555
C11_3 H13_3 1_555 1_555
C11_3 H14_3 1_555 1_555
N6_2 H15_2 1_555 1_555
N6_2 H16_2 1_555 1_555
N6_2 H17_2 1_555 1_555
C12_3 H18_3 1_555 1_555
C12_3 H19_3 1_555 1_555
C10_3 H20_3 1_555 1_555
C10_3 H21_3 1_555 1_555
C13_2 H22_2 1_555 1_555
C13_2 H23_2 1_555 1_555
Cu2_2 N1_3 1_555 1_555
N1_3 C1_3 1_555 1_555
C1_3 C2_3 1_555 1_555
C2_3 O1_3 1_555 1_555
N2_3 Cu2_2 1_555 1_555
C3_3 N2_3 1_555 1_555
C4_3 C3_3 1_555 1_555
C5_3 C4_3 1_555 1_555
N3_3 Cu2_2 1_555 1_555
O6_3 Cu2_2 1_555 1_555
C2_3 N2_3 1_555 1_555
C5_3 N3_3 1_555 1_555
N1_3 H3_3 1_555 1_555
N1_3 H4_3 1_555 1_555
C1_3 H5_3 1_555 1_555
C1_3 H6_3 1_555 1_555
C4_3 H7_3 1_555 1_555
C4_3 H8_3 1_555 1_555
C3_3 H9_3 1_555 1_555
Cu2_3 N1_4 1_555 1_555
N1_4 C1_4 1_555 1_555
C1_4 C2_4 1_555 1_555
C2_4 O1_4 1_555 1_555
N2_4 Cu2_3 1_555 1_555
C3_4 N2_4 1_555 1_555
C4_4 C3_4 1_555 1_555
C5_4 C4_4 1_555 1_555
N3_4 Cu2_3 1_555 1_555
C6_3 N3_4 1_555 1_555
N4_4 C6_3 1_555 1_555
C7_4 C5_4 1_555 1_555
C8_4 C3_4 1_555 1_555
O2_4 C8_4 1_555 1_555
N5_4 C8_4 1_555 1_555
C9_4 N5_4 1_555 1_555
C10_4 C9_4 1_555 1_555
C11_4 C10_4 1_555 1_555
C12_4 C11_4 1_555 1_555
C13_3 C12_4 1_555 1_555
N6_3 C13_3 1_555 1_555
C14_4 C9_4 1_555 1_555
O3_4 C14_4 1_555 1_555
O5 C14_4 1_555 1_555
Cu3_4 O5 1_555 1_555
O6_4 Cu2_3 1_555 1_555
C2_4 N2_4 1_555 1_555
C5_4 N3_4 1_555 1_555
N4_4 C7_4 1_555 1_555
N5_4 H1_4 1_555 1_555
C9_4 H2_4 1_555 1_555
N1_4 H3_4 1_555 1_555
N1_4 H4_4 1_555 1_555
C1_4 H5_4 1_555 1_555
C1_4 H6_4 1_555 1_555
C4_4 H7_4 1_555 1_555
C4_4 H8_4 1_555 1_555
C3_4 H9_4 1_555 1_555
C6_3 H10_3 1_555 1_555
N4_4 H11_3 1_555 1_555
C7_4 H12_4 1_555 1_555
C11_4 H13_4 1_555 1_555
C11_4 H14_4 1_555 1_555
N6_3 H15_3 1_555 1_555
N6_3 H16_3 1_555 1_555
N6_3 H17_3 1_555 1_555
C12_4 H18_4 1_555 1_555
C12_4 H19_4 1_555 1_555
C10_4 H20_4 1_555 1_555
C10_4 H21_4 1_555 1_555
C13_3 H22_3 1_555 1_555
C13_3 H23_3 1_555 1_555
Cu3_4 N1_5 1_555 1_555
N1_5 C1_5 1_555 1_555
C1_5 C2_5 1_555 1_555
C2_5 O1_5 1_555 1_555
N2_5 Cu3_4 1_555 1_555
C3_5 N2_5 1_555 1_555
C4_5 C3_5 1_555 1_555
C5_5 C4_5 1_555 1_555
N3_5 Cu3_4 1_555 1_555
C2_5 N2_5 1_555 1_555
C5_5 N3_5 1_555 1_555
N1_5 H3_5 1_555 1_555
N1_5 H4_5 1_555 1_555
C1_5 H5_5 1_555 1_555
C1_5 H6_5 1_555 1_555
C4_5 H7_5 1_555 1_555
C4_5 H8_5 1_555 1_555
C3_5 H9_5 1_555 1_555
O2_5 C8_5 1_555 1_555
N5_5 C8_5 1_555 1_555
C9_5 N5_5 1_555 1_555
C10_5 C9_5 1_555 1_555
C11_5 C10_5 1_555 1_555
C12_5 C11_5 1_555 1_555
C14_5 C9_5 1_555 1_555
O3_5 C14_5 1_555 1_555
O6_4 C14_5 1_555 1_555
Cu3_3 O6_4 1_555 1_555
N4_5 C7_5 1_555 1_555
N5_5 H1_5 1_555 1_555
C9_5 H2_5 1_555 1_555
C7_5 H12_5 1_555 1_555
C11_5 H13_5 1_555 1_555
C11_5 H14_5 1_555 1_555
C12_5 H18_5 1_555 1_555
C12_5 H19_5 1_555 1_555
C10_5 H20_5 1_555 1_555
C10_5 H21_5 1_555 1_555
Cu3_3 N1_6 1_555 1_555
N1_6 C1_6 1_555 1_555
C1_6 C2_6 1_555 1_555
C2_6 O1_6 1_555 1_555
N2_6 Cu3_3 1_555 1_555
C3_6 N2_6 1_555 1_555
C4_6 C3_6 1_555 1_555
C5_6 C4_6 1_555 1_555
N3_6 Cu3_3 1_555 1_555
C6_4 N3_6 1_555 1_555
N4_6 C6_4 1_555 1_555
C7_6 C5_6 1_555 1_555
C8_6 C3_6 1_555 1_555
O2_6 C8_6 1_555 1_555
N5_6 C8_6 1_555 1_555
C9_6 N5_6 1_555 1_555
C10_6 C9_6 1_555 1_555
C11_6 C10_6 1_555 1_555
C12_6 C11_6 1_555 1_555
C13_4 C12_6 1_555 1_555
N6_4 C13_4 1_555 1_555
C14_6 C9_6 1_555 1_555
O3_6 C14_6 1_555 1_555
O6_3 C14_6 1_555 1_555
Cu3_2 O6_3 1_555 1_555
C2_6 N2_6 1_555 1_555
C5_6 N3_6 1_555 1_555
N4_6 C7_6 1_555 1_555
N5_6 H1_6 1_555 1_555
C9_6 H2_6 1_555 1_555
N1_6 H3_6 1_555 1_555
N1_6 H4_6 1_555 1_555
C1_6 H5_6 1_555 1_555
C1_6 H6_6 1_555 1_555
C4_6 H7_6 1_555 1_555
C4_6 H8_6 1_555 1_555
C3_6 H9_6 1_555 1_555
C6_4 H10_4 1_555 1_555
N4_6 H11_4 1_555 1_555
C7_6 H12_6 1_555 1_555
C11_6 H13_6 1_555 1_555
C11_6 H14_6 1_555 1_555
N6_4 H15_4 1_555 1_555
N6_4 H16_4 1_555 1_555
N6_4 H17_4 1_555 1_555
C12_6 H18_6 1_555 1_555
C12_6 H19_6 1_555 1_555
C10_6 H20_6 1_555 1_555
C10_6 H21_6 1_555 1_555
C13_4 H22_4 1_555 1_555
C13_4 H23_4 1_555 1_555
N4_7 C6_5 1_555 1_555
O2_7 C8_7 1_555 1_555
N5_7 C8_7 1_555 1_555
C9_7 N5_7 1_555 1_555
C10_7 C9_7 1_555 1_555
C11_7 C10_7 1_555 1_555
C12_7 C11_7 1_555 1_555
C13_5 C12_7 1_555 1_555
N6_5 C13_5 1_555 1_555
C14_7 C9_7 1_555 1_555
O3_7 C14_7 1_555 1_555
O6_2 C14_7 1_555 1_555
Cu3 O6_2 1_555 1_555
N4_7 C7_7 1_555 1_555
N5_7 H1_7 1_555 1_555
C9_7 H2_7 1_555 1_555
C6_5 H10_5 1_555 1_555
N4_7 H11_5 1_555 1_555
C7_7 H12_7 1_555 1_555
C11_7 H13_7 1_555 1_555
C11_7 H14_7 1_555 1_555
N6_5 H15_5 1_555 1_555
N6_5 H16_5 1_555 1_555
N6_5 H17_5 1_555 1_555
C12_7 H18_7 1_555 1_555
C12_7 H19_7 1_555 1_555
C10_7 H20_7 1_555 1_555
C10_7 H21_7 1_555 1_555
C13_5 H22_5 1_555 1_555
C13_5 H23_5 1_555 1_555
Cu3_2 N1_7 1_555 1_555
N1_7 C1_7 1_555 1_555
C1_7 C2_7 1_555 1_555
C2_7 O1_7 1_555 1_555
N2_7 Cu3_2 1_555 1_555
C3_7 N2_7 1_555 1_555
C4_7 C3_7 1_555 1_555
C5_7 C4_7 1_555 1_555
N3_7 Cu3_2 1_555 1_555
C2_7 N2_7 1_555 1_555
C5_7 N3_7 1_555 1_555
N1_7 H3_7 1_555 1_555
N1_7 H4_7 1_555 1_555
C1_7 H5_7 1_555 1_555
C1_7 H6_7 1_555 1_555
C4_7 H7_7 1_555 1_555
C4_7 H8_7 1_555 1_555
C3_7 H9_7 1_555 1_555
Cu3 N1_8 1_555 1_555
N1_8 C1_8 1_555 1_555
C1_8 C2_8 1_555 1_555
C2_8 O1_8 1_555 1_555
N2_8 Cu3 1_555 1_555
C3_8 N2_8 1_555 1_555
C4_8 C3_8 1_555 1_555
C5_8 C4_8 1_555 1_555
N3_8 Cu3 1_555 1_555
C6_6 N3_8 1_555 1_555
N4_8 C6_6 1_555 1_555
C7_8 C5_8 1_555 1_555
C8_8 C3_8 1_555 1_555
O2_8 C8_8 1_555 1_555
N5_8 C8_8 1_555 1_555
C9_8 N5_8 1_555 1_555
C10_8 C9_8 1_555 1_555
C11_8 C10_8 1_555 1_555
C12_8 C11_8 1_555 1_555
C13_6 C12_8 1_555 1_555
N6_6 C13_6 1_555 1_555
C14_8 C9_8 1_555 1_555
O3_8 C14_8 1_555 1_555
O6 C14_8 1_555 1_555
C2_8 N2_8 1_555 1_555
C5_8 N3_8 1_555 1_555
N4_8 C7_8 1_555 1_555
N5_8 H1_8 1_555 1_555
C9_8 H2_8 1_555 1_555
N1_8 H3_8 1_555 1_555
N1_8 H4_8 1_555 1_555
C1_8 H5_8 1_555 1_555
C1_8 H6_8 1_555 1_555
C4_8 H7_8 1_555 1_555
C4_8 H8_8 1_555 1_555
C3_8 H9_8 1_555 1_555
C6_6 H10_6 1_555 1_555
N4_8 H11_6 1_555 1_555
C7_8 H12_8 1_555 1_555
C11_8 H13_8 1_555 1_555
C11_8 H14_8 1_555 1_555
N6_6 H15_6 1_555 1_555
N6_6 H16_6 1_555 1_555
N6_6 H17_6 1_555 1_555
C12_8 H18_8 1_555 1_555
C12_8 H19_8 1_555 1_555
C10_8 H20_8 1_555 1_555
C10_8 H21_8 1_555 1_555
C13_6 H22_6 1_555 1_555
C13_6 H23_6 1_555 1_555
N6_7 C13_7 1_555 1_555
C6_7 H10_7 1_555 1_555
N6_7 H15_7 1_555 1_555
N6_7 H16_7 1_555 1_555
N6_7 H17_7 1_555 1_555
C13_7 H22_7 1_555 1_555
C13_7 H23_7 1_555 1_555
N6_8 C13_8 1_555 1_555
C6_8 H10_8 1_555 1_555
N6_8 H15_8 1_555 1_555
N6_8 H16_8 1_555 1_555
N6_8 H17_8 1_555 1_555
C13_8 H22_8 1_555 1_555
C13_8 H23_8 1_555 1_555

#END
