
###############################################################################
#
# This file contains modified crystal structure data generated from the
# MOF subset of the Cambridge Structural Database (CSD) v543 
# hosted by the Cambridge Crystallographic Data Centre (CCDC).
#
# This work is licensed under the Creative Commons
# Attribution-NonCommercial-ShareAlike 4.0 International License.
# To view a copy of this license, visit
# http://creativecommons.org/licenses/by-nc-sa/4.0/
# or send a letter to
# Creative Commons, PO Box 1866, Mountain View, CA 94042, USA.
#
# CIF created using the CSD Python API on 29 September 2022
# The structure has been converted into the P1 space group
# The structure has a 3D framework
# The original CSD entry CIFLAH is in the rhombohedral crystal system
# The framework has been calculated to contain at least 10.0% void space
# The void calculation uses a probe of radius 1.32A, grid spacing 0.4
# The framework is charged, counterions have been retained in the structure
# H atom positions have been added when not included in the experimental data
#
###############################################################################

data_CIFLAH
_chemical_formula_moiety         '(C1656 H1080 In34 N54 O300 16-)n'
_symmetry_cell_setting           triclinic
_symmetry_space_group_name_H-M   'P 1'
_symmetry_Int_Tables_number      1
_space_group_name_Hall           'P 1'
loop_
_symmetry_equiv_pos_site_id
_symmetry_equiv_pos_as_xyz
1 x,y,z
_cell_length_a                   45.0162(8)
_cell_length_b                   45.0162(8)
_cell_length_c                   41.8896(9)
_cell_angle_alpha                90
_cell_angle_beta                 90
_cell_angle_gamma                120
_cell_volume                     73514.8
loop_
_atom_site_label
_atom_site_type_symbol
_atom_site_fract_x
_atom_site_fract_y
_atom_site_fract_z
H1 H 0.7925 0.1641 0.0089
O1 O 0.8380(2) 0.1385(4) 0.0992(2)
N1 N 0.7844(3) 0.1150(4) 0.1518(2)
C2 C 0.8009(2) 0.1271(4) 0.0979(4)
C3 C 0.7918(4) 0.1257(4) 0.0660(3)
H4 H 0.8085 0.1320 0.0500
C4 C 0.7580(4) 0.1150(4) 0.0578(2)
C5 C 0.7333(3) 0.1056(4) 0.0815(3)
H5 H 0.7104 0.0983 0.0760
C6 C 0.7424(3) 0.1070(4) 0.1134(3)
H6 H 0.7257 0.1006 0.1295
C7 C 0.7762(3) 0.1177(4) 0.1216(2)
N2 N 0.7496(4) 0.1091(5) 0.0268(2)
C8 C 0.8201(3) 0.1235(4) 0.1587(4)
C9 C 0.8316(3) 0.1250(4) 0.1897(3)
C10 C 0.8662(4) 0.1369(4) 0.1954(3)
C11 C 0.8892(3) 0.1473(5) 0.1701(5)
C12 C 0.8776(4) 0.1458(5) 0.1390(4)
H7 H 0.8932 0.1529 0.1219
C13 C 0.8430(5) 0.1339(5) 0.1333(2)
C14 C 0.8734(9) 0.1318(9) 0.2266(4)
H8 H 0.8969 0.1394 0.2290
C15 C 0.8562(7) 0.1190(9) 0.2554(7)
H9 H 0.8657 0.1171 0.2747
C16 C 0.8222(8) 0.1096(11) 0.2495(9)
H10 H 0.8058 0.1017 0.2660
C17 C 0.8138(11) 0.1125(17) 0.2182(6)
H11 H 0.7901 0.1039 0.2156
N3 N 0.9272(3) 0.1667(6) 0.1701(7)
H12 H 0.9383 0.1733 0.1880
H13 H 0.9383 0.1715 0.1521
C19 C 0.7038(7) 0.0634(5) 0.0032(6)
C20 C 0.7160(4) 0.1014(5) 0.0102(5)
H16 H 0.7004 0.1043 0.0244
H111 H 0.700966 0.0498939 0.0255631
C1 C 0.7911(6) 0.1519(5) 0.9894(6)
H2 H 0.7811 0.1590 0.9726
H3 H 0.8139 0.1570 0.9830
C18 C 0.7684(6) 0.1130(5) 0.9950(4)
H14 H 0.7825 0.1021 0.9963
H15 H 0.7519 0.1024 0.9775
H17 H 0.7199 0.1149 0.9907
H112 H 0.679212 0.0518453 0.990889
H113 H 0.7226 0.0616049 0.988201
H1_2 H 0.8359 0.6284 0.0089
O1_2 O 0.8615(4) 0.6995(4) 0.0992(2)
N1_2 N 0.8850(4) 0.6694(5) 0.1518(2)
C2_2 C 0.8729(4) 0.6738(4) 0.0979(4)
C3_2 C 0.8743(4) 0.6661(6) 0.0660(3)
H4_2 H 0.8680 0.6765 0.0500
C4_2 C 0.8850(4) 0.6430(6) 0.0578(2)
C5_2 C 0.8944(4) 0.6277(5) 0.0815(3)
H5_2 H 0.9017 0.6121 0.0760
C6_2 C 0.8930(4) 0.6354(5) 0.1134(3)
H6_2 H 0.8994 0.6251 0.1295
C7_2 C 0.8823(4) 0.6585(5) 0.1216(2)
N2_2 N 0.8909(5) 0.6405(6) 0.0268(2)
C8_2 C 0.8765(4) 0.6966(5) 0.1587(4)
C9_2 C 0.8750(4) 0.7066(5) 0.1897(3)
C10_2 C 0.8631(4) 0.7293(6) 0.1954(3)
C11_2 C 0.8527(5) 0.7419(6) 0.1701(5)
C12_2 C 0.8542(5) 0.7318(6) 0.1390(4)
H7_2 H 0.8471 0.7403 0.1219
C13_2 C 0.8661(5) 0.7091(7) 0.1333(2)
C14_2 C 0.8682(9) 0.7416(13) 0.2266(4)
H8_2 H 0.8606 0.7575 0.2290
C15_2 C 0.8810(9) 0.7372(11) 0.2554(7)
H9_2 H 0.8829 0.7486 0.2747
C16_2 C 0.8904(11) 0.7126(14) 0.2495(9)
H10_2 H 0.8983 0.7041 0.2660
C17_2 C 0.8875(17) 0.7013(20) 0.2182(6)
H11_2 H 0.8961 0.6862 0.2156
N3_2 N 0.8333(6) 0.7605(7) 0.1701(7)
H12_2 H 0.8267 0.7650 0.1880
H13_2 H 0.8285 0.7668 0.1521
C19_2 C 0.9366(5) 0.6404(9) 0.0032(6)
C20_2 C 0.8986(5) 0.6146(6) 0.0102(5)
H16_2 H 0.8957 0.5961 0.0244
H111_2 H 0.950106 0.651072 0.0255631
C1_2 C 0.8481(5) 0.6392(8) 0.9894(6)
H2_2 H 0.8410 0.6221 0.9726
H3_2 H 0.8430 0.6569 0.9830
C18_2 C 0.8870(5) 0.6554(8) 0.9950(4)
H14_2 H 0.8979 0.6804 0.9963
H15_2 H 0.8976 0.6495 0.9775
H17_2 H 0.8851 0.6050 0.9907
H112_2 H 0.948155 0.627367 0.990889
H113_2 H 0.938395 0.660995 0.988201
H1_3 H 0.3716 0.2075 0.0089
O1_3 O 0.3005(4) 0.1620(2) 0.0992(2)
N1_3 N 0.3306(5) 0.2156(3) 0.1518(2)
C2_3 C 0.3262(4) 0.1991(2) 0.0979(4)
C3_3 C 0.3339(6) 0.2082(4) 0.0660(3)
H4_3 H 0.3235 0.1915 0.0500
C4_3 C 0.3570(6) 0.2420(4) 0.0578(2)
C5_3 C 0.3723(5) 0.2667(3) 0.0815(3)
H5_3 H 0.3879 0.2896 0.0760
C6_3 C 0.3646(5) 0.2576(3) 0.1134(3)
H6_3 H 0.3749 0.2743 0.1295
C7_3 C 0.3415(5) 0.2238(3) 0.1216(2)
N2_3 N 0.3595(6) 0.2504(4) 0.0268(2)
C8_3 C 0.3034(5) 0.1799(3) 0.1587(4)
C9_3 C 0.2934(5) 0.1684(3) 0.1897(3)
C10_3 C 0.2707(6) 0.1338(4) 0.1954(3)
C11_3 C 0.2581(6) 0.1108(3) 0.1701(5)
C12_3 C 0.2682(6) 0.1224(4) 0.1390(4)
H7_3 H 0.2597 0.1068 0.1219
C13_3 C 0.2909(7) 0.1570(5) 0.1333(2)
C14_3 C 0.2584(13) 0.1266(9) 0.2266(4)
H8_3 H 0.2425 0.1031 0.2290
C15_3 C 0.2628(11) 0.1438(7) 0.2554(7)
H9_3 H 0.2514 0.1343 0.2747
C16_3 C 0.2874(14) 0.1778(8) 0.2495(9)
H10_3 H 0.2959 0.1942 0.2660
C17_3 C 0.2987(20) 0.1862(11) 0.2182(6)
H11_3 H 0.3138 0.2099 0.2156
N3_3 N 0.2395(7) 0.0728(3) 0.1701(7)
H12_3 H 0.2350 0.0617 0.1880
H13_3 H 0.2332 0.0617 0.1521
C19_3 C 0.3596(9) 0.2962(7) 0.0032(6)
C20_3 C 0.3854(6) 0.2840(4) 0.0102(5)
H16_3 H 0.4039 0.2996 0.0244
H111_3 H 0.348928 0.299034 0.0255631
C1_3 C 0.3608(8) 0.2089(6) 0.9894(6)
H2_3 H 0.3779 0.2189 0.9726
H3_3 H 0.3431 0.1861 0.9830
C18_3 C 0.3446(8) 0.2316(6) 0.9950(4)
H14_3 H 0.3196 0.2175 0.9963
H15_3 H 0.3505 0.2481 0.9775
H17_3 H 0.3950 0.2801 0.9907
H112_3 H 0.372633 0.320788 0.990889
H113_3 H 0.339005 0.2774 0.988201
C1_4 C 0.4578(6) 0.4852(5) 0.3227(6)
H1_4 H 0.4592 0.4974 0.3422
H2_4 H 0.4478 0.4923 0.3059
H3_4 H 0.4806 0.4903 0.3163
O1_4 O 0.5047(2) 0.4718(4) 0.4325(2)
N1_4 N 0.4511(3) 0.4483(4) 0.4851(2)
C2_4 C 0.4676(2) 0.4604(4) 0.4312(4)
C3_4 C 0.4585(4) 0.4590(4) 0.3993(3)
H4_4 H 0.4752 0.4653 0.3833
C4_4 C 0.4247(4) 0.4483(4) 0.3911(2)
C5_4 C 0.4000(3) 0.4389(4) 0.4148(3)
H5_4 H 0.3771 0.4316 0.4093
C6_4 C 0.4091(3) 0.4403(4) 0.4467(3)
H6_4 H 0.3924 0.4339 0.4628
C7_4 C 0.4429(3) 0.4510(4) 0.4549(2)
N2_4 N 0.4163(4) 0.4424(5) 0.3601(2)
C8_4 C 0.4868(3) 0.4568(4) 0.4920(4)
C9_4 C 0.4983(3) 0.4583(4) 0.5230(3)
C10_4 C 0.5329(4) 0.4702(4) 0.5287(3)
C11_4 C 0.5559(3) 0.4806(5) 0.5034(5)
C12_4 C 0.5443(4) 0.4791(5) 0.4723(4)
H7_4 H 0.5599 0.4862 0.4552
C13_4 C 0.5097(5) 0.4672(5) 0.4666(2)
C14_4 C 0.5401(9) 0.4651(9) 0.5599(4)
H8_4 H 0.5636 0.4727 0.5623
C15_4 C 0.5229(7) 0.4523(9) 0.5887(7)
H9_4 H 0.5324 0.4504 0.6080
C16_4 C 0.4889(8) 0.4429(11) 0.5828(9)
H10_4 H 0.4725 0.4350 0.5993
C17_4 C 0.4805(11) 0.4458(17) 0.5515(6)
H11_4 H 0.4568 0.4372 0.5489
N3_4 N 0.5939(3) 0.5000(6) 0.5034(7)
H12_4 H 0.6050 0.5066 0.5213
H13_4 H 0.6050 0.5048 0.4854
C18_4 C 0.4351(6) 0.4463(5) 0.3283(4)
H14_4 H 0.4492 0.4354 0.3296
H15_4 H 0.4186 0.4357 0.3108
C19_4 C 0.3705(7) 0.3967(5) 0.3365(6)
C20_4 C 0.3827(4) 0.4347(5) 0.3435(5)
H16_4 H 0.3671 0.4376 0.3577
H17_4 H 0.3866 0.4482 0.3240
H111_4 H 0.367632 0.383227 0.358896
H112_4 H 0.345879 0.385179 0.324222
H113_4 H 0.389267 0.394938 0.321534
O1_5 O 0.5282(4) 0.0328(4) 0.4325(2)
N1_5 N 0.5517(4) 0.0027(5) 0.4851(2)
C2_5 C 0.5396(4) 0.0071(4) 0.4312(4)
H4_5 H 0.5347 0.0098 0.3833
C8_5 C 0.5432(4) 0.0299(5) 0.4920(4)
C9_5 C 0.5417(4) 0.0399(5) 0.5230(3)
C10_5 C 0.5298(4) 0.0626(6) 0.5287(3)
C11_5 C 0.5194(5) 0.0752(6) 0.5034(5)
C12_5 C 0.5209(5) 0.0651(6) 0.4723(4)
H7_5 H 0.5138 0.0736 0.4552
C13_5 C 0.5328(5) 0.0424(7) 0.4666(2)
C14_5 C 0.5349(9) 0.0749(13) 0.5599(4)
H8_5 H 0.5273 0.0908 0.5623
C15_5 C 0.5477(9) 0.0705(11) 0.5887(7)
H9_5 H 0.5496 0.0819 0.6080
C16_5 C 0.5571(11) 0.0459(14) 0.5828(9)
H10_5 H 0.5650 0.0374 0.5993
C17_5 C 0.5542(17) 0.0346(20) 0.5515(6)
H11_5 H 0.5628 0.0195 0.5489
N3_5 N 0.5000(6) 0.0938(7) 0.5034(7)
H12_5 H 0.4934 0.0983 0.5213
H13_5 H 0.4952 0.1001 0.4854
H14_5 H 0.5646 0.0137 0.3296
C1_5 C 0.5148(5) 0.9725(8) 0.3227(6)
H1_5 H 0.5026 0.9617 0.3422
H2_5 H 0.5077 0.9554 0.3059
H3_5 H 0.5097 0.9902 0.3163
C3_5 C 0.5410(4) 0.9994(6) 0.3993(3)
C4_5 C 0.5517(4) 0.9763(6) 0.3911(2)
C5_5 C 0.5611(4) 0.9610(5) 0.4148(3)
H5_5 H 0.5684 0.9454 0.4093
C6_5 C 0.5597(4) 0.9687(5) 0.4467(3)
H6_5 H 0.5661 0.9584 0.4628
C7_5 C 0.5490(4) 0.9918(5) 0.4549(2)
N2_5 N 0.5576(5) 0.9738(6) 0.3601(2)
C18_5 C 0.5537(5) 0.9887(8) 0.3283(4)
H15_5 H 0.5643 0.9828 0.3108
C19_5 C 0.6033(5) 0.9737(9) 0.3365(6)
C20_5 C 0.5653(5) 0.9479(6) 0.3435(5)
H16_5 H 0.5624 0.9294 0.3577
H17_5 H 0.5518 0.9383 0.3240
H111_5 H 0.616773 0.984405 0.358896
H112_5 H 0.614821 0.9607 0.324222
H113_5 H 0.605062 0.994329 0.321534
C1_6 C 0.0275(8) 0.5422(6) 0.3227(6)
H1_6 H 0.0383 0.5408 0.3422
H2_6 H 0.0446 0.5522 0.3059
H3_6 H 0.0098 0.5194 0.3163
C3_6 C 0.0006(6) 0.5415(4) 0.3993(3)
C4_6 C 0.0237(6) 0.5753(4) 0.3911(2)
C5_6 C 0.0390(5) 0.6000(3) 0.4148(3)
H5_6 H 0.0546 0.6229 0.4093
C6_6 C 0.0313(5) 0.5909(3) 0.4467(3)
H6_6 H 0.0416 0.6076 0.4628
C7_6 C 0.0082(5) 0.5571(3) 0.4549(2)
N2_6 N 0.0262(6) 0.5837(4) 0.3601(2)
C18_6 C 0.0113(8) 0.5649(6) 0.3283(4)
H15_6 H 0.0172 0.5814 0.3108
C19_6 C 0.0263(9) 0.6295(7) 0.3365(6)
C20_6 C 0.0521(6) 0.6173(4) 0.3435(5)
H16_6 H 0.0706 0.6329 0.3577
H17_6 H 0.0617 0.6134 0.3240
H111_6 H 0.0155948 0.632368 0.358896
H112_6 H 0.0393 0.654121 0.324222
H113_6 H 0.00567148 0.610733 0.321534
O1_6 O 0.9672(4) 0.4953(2) 0.4325(2)
N1_6 N 0.9973(5) 0.5489(3) 0.4851(2)
C2_6 C 0.9929(4) 0.5324(2) 0.4312(4)
H4_6 H 0.9902 0.5248 0.3833
C8_6 C 0.9701(5) 0.5132(3) 0.4920(4)
C9_6 C 0.9601(5) 0.5017(3) 0.5230(3)
C10_6 C 0.9374(6) 0.4671(4) 0.5287(3)
C11_6 C 0.9248(6) 0.4441(3) 0.5034(5)
C12_6 C 0.9349(6) 0.4557(4) 0.4723(4)
H7_6 H 0.9264 0.4401 0.4552
C13_6 C 0.9576(7) 0.4903(5) 0.4666(2)
C14_6 C 0.9251(13) 0.4599(9) 0.5599(4)
H8_6 H 0.9092 0.4364 0.5623
C15_6 C 0.9295(11) 0.4771(7) 0.5887(7)
H9_6 H 0.9181 0.4676 0.6080
C16_6 C 0.9541(14) 0.5111(8) 0.5828(9)
H10_6 H 0.9626 0.5275 0.5993
C17_6 C 0.9654(20) 0.5195(11) 0.5515(6)
H11_6 H 0.9805 0.5432 0.5489
N3_6 N 0.9062(7) 0.4061(3) 0.5034(7)
H12_6 H 0.9017 0.3950 0.5213
H13_6 H 0.8999 0.3950 0.4854
H14_6 H 0.9863 0.5508 0.3296
C1_7 C 0.1244(6) 0.8186(5) 0.6561(6)
H1_7 H 0.1258 0.8308 0.6756
H2_7 H 0.1144 0.8257 0.6393
H3_7 H 0.1472 0.8237 0.6497
O1_7 O 0.1713(2) 0.8052(4) 0.7659(2)
N1_7 N 0.1177(3) 0.7817(4) 0.8185(2)
C2_7 C 0.1342(2) 0.7938(4) 0.7646(4)
C3_7 C 0.1251(4) 0.7924(4) 0.7327(3)
H4_7 H 0.1418 0.7987 0.7167
C4_7 C 0.0913(4) 0.7817(4) 0.7245(2)
C5_7 C 0.0666(3) 0.7723(4) 0.7482(3)
H5_7 H 0.0437 0.7650 0.7427
C6_7 C 0.0757(3) 0.7737(4) 0.7801(3)
H6_7 H 0.0590 0.7673 0.7962
C7_7 C 0.1095(3) 0.7844(4) 0.7883(2)
N2_7 N 0.0829(4) 0.7758(5) 0.6935(2)
C8_7 C 0.1534(3) 0.7902(4) 0.8254(4)
C9_7 C 0.1649(3) 0.7917(4) 0.8564(3)
C10_7 C 0.1995(4) 0.8036(4) 0.8621(3)
C11_7 C 0.2225(3) 0.8140(5) 0.8368(5)
C12_7 C 0.2109(4) 0.8125(5) 0.8057(4)
H7_7 H 0.2265 0.8196 0.7886
C13_7 C 0.1763(5) 0.8006(5) 0.8000(2)
C14_7 C 0.2067(9) 0.7985(9) 0.8933(4)
H8_7 H 0.2302 0.8061 0.8957
C15_7 C 0.1895(7) 0.7857(9) 0.9221(7)
H9_7 H 0.1990 0.7838 0.9414
C16_7 C 0.1555(8) 0.7763(11) 0.9162(9)
H10_7 H 0.1391 0.7684 0.9327
C17_7 C 0.1471(11) 0.7792(17) 0.8849(6)
H11_7 H 0.1234 0.7706 0.8823
N3_7 N 0.2605(3) 0.8334(6) 0.8368(7)
H12_7 H 0.2716 0.8400 0.8547
H13_7 H 0.2716 0.8382 0.8188
C18_7 C 0.1017(6) 0.7797(5) 0.6617(4)
H14_7 H 0.1158 0.7688 0.6630
H15_7 H 0.0852 0.7691 0.6442
C19_7 C 0.0371(7) 0.7301(5) 0.6699(6)
C20_7 C 0.0493(4) 0.7681(5) 0.6769(5)
H16_7 H 0.0337 0.7710 0.6911
H17_7 H 0.0532 0.7816 0.6574
H111_7 H 0.0342991 0.716561 0.69223
H112_7 H 0.0125453 0.718512 0.657555
H113_7 H 0.0559334 0.728272 0.654868
C1_8 C 0.1814(5) 0.3059(8) 0.6561(6)
H1_8 H 0.1692 0.2951 0.6756
H2_8 H 0.1743 0.2888 0.6393
H3_8 H 0.1763 0.3236 0.6497
O1_8 O 0.1948(4) 0.3662(4) 0.7659(2)
N1_8 N 0.2183(4) 0.3361(5) 0.8185(2)
C2_8 C 0.2062(4) 0.3405(4) 0.7646(4)
C3_8 C 0.2076(4) 0.3328(6) 0.7327(3)
H4_8 H 0.2013 0.3432 0.7167
C4_8 C 0.2183(4) 0.3097(6) 0.7245(2)
C5_8 C 0.2277(4) 0.2944(5) 0.7482(3)
H5_8 H 0.2350 0.2788 0.7427
C6_8 C 0.2263(4) 0.3021(5) 0.7801(3)
H6_8 H 0.2327 0.2918 0.7962
C7_8 C 0.2156(4) 0.3252(5) 0.7883(2)
N2_8 N 0.2242(5) 0.3072(6) 0.6935(2)
C8_8 C 0.2098(4) 0.3633(5) 0.8254(4)
C9_8 C 0.2083(4) 0.3733(5) 0.8564(3)
C10_8 C 0.1964(4) 0.3960(6) 0.8621(3)
C11_8 C 0.1860(5) 0.4086(6) 0.8368(5)
C12_8 C 0.1875(5) 0.3985(6) 0.8057(4)
H7_8 H 0.1804 0.4070 0.7886
C13_8 C 0.1994(5) 0.3758(7) 0.8000(2)
C14_8 C 0.2015(9) 0.4083(13) 0.8933(4)
H8_8 H 0.1939 0.4242 0.8957
C15_8 C 0.2143(9) 0.4039(11) 0.9221(7)
H9_8 H 0.2162 0.4153 0.9414
C16_8 C 0.2237(11) 0.3793(14) 0.9162(9)
H10_8 H 0.2316 0.3708 0.9327
C17_8 C 0.2208(17) 0.3680(20) 0.8849(6)
H11_8 H 0.2294 0.3529 0.8823
N3_8 N 0.1666(6) 0.4272(7) 0.8368(7)
H12_8 H 0.1600 0.4317 0.8547
H13_8 H 0.1618 0.4335 0.8188
C18_8 C 0.2203(5) 0.3221(8) 0.6617(4)
H14_8 H 0.2312 0.3471 0.6630
H15_8 H 0.2309 0.3162 0.6442
C19_8 C 0.2699(5) 0.3071(9) 0.6699(6)
C20_8 C 0.2319(5) 0.2813(6) 0.6769(5)
H16_8 H 0.2290 0.2628 0.6911
H17_8 H 0.2184 0.2717 0.6574
H111_8 H 0.283439 0.317739 0.69223
H112_8 H 0.281488 0.294033 0.657555
H113_8 H 0.271728 0.327662 0.654868
C1_9 C 0.6941(8) 0.8756(6) 0.6561(6)
H1_9 H 0.7049 0.8742 0.6756
H2_9 H 0.7112 0.8856 0.6393
H3_9 H 0.6764 0.8528 0.6497
O1_9 O 0.6338(4) 0.8287(2) 0.7659(2)
N1_9 N 0.6639(5) 0.8823(3) 0.8185(2)
C2_9 C 0.6595(4) 0.8658(2) 0.7646(4)
C3_9 C 0.6672(6) 0.8749(4) 0.7327(3)
H4_9 H 0.6568 0.8582 0.7167
C4_9 C 0.6903(6) 0.9087(4) 0.7245(2)
C5_9 C 0.7056(5) 0.9334(3) 0.7482(3)
H5_9 H 0.7212 0.9563 0.7427
C6_9 C 0.6979(5) 0.9243(3) 0.7801(3)
H6_9 H 0.7082 0.9410 0.7962
C7_9 C 0.6748(5) 0.8905(3) 0.7883(2)
N2_9 N 0.6928(6) 0.9171(4) 0.6935(2)
C8_9 C 0.6367(5) 0.8466(3) 0.8254(4)
C9_9 C 0.6267(5) 0.8351(3) 0.8564(3)
C10_9 C 0.6040(6) 0.8005(4) 0.8621(3)
C11_9 C 0.5914(6) 0.7775(3) 0.8368(5)
C12_9 C 0.6015(6) 0.7891(4) 0.8057(4)
H7_9 H 0.5930 0.7735 0.7886
C13_9 C 0.6242(7) 0.8237(5) 0.8000(2)
C14_9 C 0.5917(13) 0.7933(9) 0.8933(4)
H8_9 H 0.5758 0.7698 0.8957
C15_9 C 0.5961(11) 0.8105(7) 0.9221(7)
H9_9 H 0.5847 0.8010 0.9414
C16_9 C 0.6207(14) 0.8445(8) 0.9162(9)
H10_9 H 0.6292 0.8609 0.9327
C17_9 C 0.6320(20) 0.8529(11) 0.8849(6)
H11_9 H 0.6471 0.8766 0.8823
N3_9 N 0.5728(7) 0.7395(3) 0.8368(7)
H12_9 H 0.5683 0.7284 0.8547
H13_9 H 0.5665 0.7284 0.8188
C18_9 C 0.6779(8) 0.8983(6) 0.6617(4)
H14_9 H 0.6529 0.8842 0.6630
H15_9 H 0.6838 0.9148 0.6442
C19_9 C 0.6929(9) 0.9629(7) 0.6699(6)
C20_9 C 0.7187(6) 0.9507(4) 0.6769(5)
H16_9 H 0.7372 0.9663 0.6911
H17_9 H 0.7283 0.9468 0.6574
H111_9 H 0.682261 0.965701 0.69223
H112_9 H 0.705967 0.987455 0.657555
H113_9 H 0.672338 0.944067 0.654868
C1_10 C 0.2089(6) 0.8481(5) 0.0106(6)
H2_10 H 0.2189 0.8410 0.0274
H3_10 H 0.1861 0.8430 0.0170
C18_10 C 0.2316(6) 0.8870(5) 0.0050(4)
H14_10 H 0.2175 0.8979 0.0037
H15_10 H 0.2481 0.8976 0.0225
H17_10 H 0.2801 0.8851 0.0093
H112_10 H 0.320788 0.948155 0.00911122
H113_10 H 0.2774 0.938395 0.011799
H1_10 H 0.2075 0.8359 0.9911
O1_10 O 0.1620(2) 0.8615(4) 0.9008(2)
N1_10 N 0.2156(3) 0.8850(4) 0.8482(2)
C2_10 C 0.1991(2) 0.8729(4) 0.9021(4)
C3_10 C 0.2082(4) 0.8743(4) 0.9340(3)
H4_10 H 0.1915 0.8680 0.9500
C4_10 C 0.2420(4) 0.8850(4) 0.9422(2)
C5_10 C 0.2667(3) 0.8944(4) 0.9185(3)
H5_10 H 0.2896 0.9017 0.9240
C6_10 C 0.2576(3) 0.8930(4) 0.8866(3)
H6_10 H 0.2743 0.8994 0.8705
C7_10 C 0.2238(3) 0.8823(4) 0.8784(2)
N2_10 N 0.2504(4) 0.8909(5) 0.9732(2)
C8_10 C 0.1799(3) 0.8765(4) 0.8413(4)
C9_10 C 0.1684(3) 0.8750(4) 0.8103(3)
C10_10 C 0.1338(4) 0.8631(4) 0.8046(3)
C11_10 C 0.1108(3) 0.8527(5) 0.8299(5)
C12_10 C 0.1224(4) 0.8542(5) 0.8610(4)
H7_10 H 0.1068 0.8471 0.8781
C13_10 C 0.1570(5) 0.8661(5) 0.8667(2)
C14_10 C 0.1266(9) 0.8682(9) 0.7734(4)
H8_10 H 0.1031 0.8606 0.7710
C15_10 C 0.1438(7) 0.8810(9) 0.7446(7)
H9_10 H 0.1343 0.8829 0.7253
C16_10 C 0.1778(8) 0.8904(11) 0.7505(9)
H10_10 H 0.1942 0.8983 0.7340
C17_10 C 0.1862(11) 0.8875(17) 0.7818(6)
H11_10 H 0.2099 0.8961 0.7844
N3_10 N 0.0728(3) 0.8333(6) 0.8299(7)
H12_10 H 0.0617 0.8267 0.8120
H13_10 H 0.0617 0.8285 0.8479
C19_10 C 0.2962(7) 0.9366(5) 0.9968(6)
C20_10 C 0.2840(4) 0.8986(5) 0.9898(5)
H16_10 H 0.2996 0.8957 0.9756
H111_10 H 0.299034 0.950106 0.974437
C1_11 C 0.1519(5) 0.3608(8) 0.0106(6)
H2_11 H 0.1590 0.3779 0.0274
H3_11 H 0.1570 0.3431 0.0170
C18_11 C 0.1130(5) 0.3446(8) 0.0050(4)
H14_11 H 0.1021 0.3196 0.0037
H15_11 H 0.1024 0.3505 0.0225
H17_11 H 0.1149 0.3950 0.0093
H112_11 H 0.0518453 0.372633 0.00911122
H113_11 H 0.0616049 0.339005 0.011799
H1_11 H 0.1641 0.3716 0.9911
O1_11 O 0.1385(4) 0.3005(4) 0.9008(2)
N1_11 N 0.1150(4) 0.3306(5) 0.8482(2)
C2_11 C 0.1271(4) 0.3262(4) 0.9021(4)
C3_11 C 0.1257(4) 0.3339(6) 0.9340(3)
H4_11 H 0.1320 0.3235 0.9500
C4_11 C 0.1150(4) 0.3570(6) 0.9422(2)
C5_11 C 0.1056(4) 0.3723(5) 0.9185(3)
H5_11 H 0.0983 0.3879 0.9240
C6_11 C 0.1070(4) 0.3646(5) 0.8866(3)
H6_11 H 0.1006 0.3749 0.8705
C7_11 C 0.1177(4) 0.3415(5) 0.8784(2)
N2_11 N 0.1091(5) 0.3595(6) 0.9732(2)
C8_11 C 0.1235(4) 0.3034(5) 0.8413(4)
C9_11 C 0.1250(4) 0.2934(5) 0.8103(3)
C10_11 C 0.1369(4) 0.2707(6) 0.8046(3)
C11_11 C 0.1473(5) 0.2581(6) 0.8299(5)
C12_11 C 0.1458(5) 0.2682(6) 0.8610(4)
H7_11 H 0.1529 0.2597 0.8781
C13_11 C 0.1339(5) 0.2909(7) 0.8667(2)
C14_11 C 0.1318(9) 0.2584(13) 0.7734(4)
H8_11 H 0.1394 0.2425 0.7710
C15_11 C 0.1190(9) 0.2628(11) 0.7446(7)
H9_11 H 0.1171 0.2514 0.7253
C16_11 C 0.1096(11) 0.2874(14) 0.7505(9)
H10_11 H 0.1017 0.2959 0.7340
C17_11 C 0.1125(17) 0.2987(20) 0.7818(6)
H11_11 H 0.1039 0.3138 0.7844
N3_11 N 0.1667(6) 0.2395(7) 0.8299(7)
H12_11 H 0.1733 0.2350 0.8120
H13_11 H 0.1715 0.2332 0.8479
C19_11 C 0.0634(5) 0.3596(9) 0.9968(6)
C20_11 C 0.1014(5) 0.3854(6) 0.9898(5)
H16_11 H 0.1043 0.4039 0.9756
H111_11 H 0.0498939 0.348928 0.974437
C1_12 C 0.6392(8) 0.7911(6) 0.0106(6)
H2_12 H 0.6221 0.7811 0.0274
H3_12 H 0.6569 0.8139 0.0170
C18_12 C 0.6554(8) 0.7684(6) 0.0050(4)
H14_12 H 0.6804 0.7825 0.0037
H15_12 H 0.6495 0.7519 0.0225
H17_12 H 0.6050 0.7199 0.0093
H112_12 H 0.627367 0.679212 0.00911122
H113_12 H 0.660995 0.7226 0.011799
H1_12 H 0.6284 0.7925 0.9911
O1_12 O 0.6995(4) 0.8380(2) 0.9008(2)
N1_12 N 0.6694(5) 0.7844(3) 0.8482(2)
C2_12 C 0.6738(4) 0.8009(2) 0.9021(4)
C3_12 C 0.6661(6) 0.7918(4) 0.9340(3)
H4_12 H 0.6765 0.8085 0.9500
C4_12 C 0.6430(6) 0.7580(4) 0.9422(2)
C5_12 C 0.6277(5) 0.7333(3) 0.9185(3)
H5_12 H 0.6121 0.7104 0.9240
C6_12 C 0.6354(5) 0.7424(3) 0.8866(3)
H6_12 H 0.6251 0.7257 0.8705
C7_12 C 0.6585(5) 0.7762(3) 0.8784(2)
N2_12 N 0.6405(6) 0.7496(4) 0.9732(2)
C8_12 C 0.6966(5) 0.8201(3) 0.8413(4)
C9_12 C 0.7066(5) 0.8316(3) 0.8103(3)
C10_12 C 0.7293(6) 0.8662(4) 0.8046(3)
C11_12 C 0.7419(6) 0.8892(3) 0.8299(5)
C12_12 C 0.7318(6) 0.8776(4) 0.8610(4)
H7_12 H 0.7403 0.8932 0.8781
C13_12 C 0.7091(7) 0.8430(5) 0.8667(2)
C14_12 C 0.7416(13) 0.8734(9) 0.7734(4)
H8_12 H 0.7575 0.8969 0.7710
C15_12 C 0.7372(11) 0.8562(7) 0.7446(7)
H9_12 H 0.7486 0.8657 0.7253
C16_12 C 0.7126(14) 0.8222(8) 0.7505(9)
H10_12 H 0.7041 0.8058 0.7340
C17_12 C 0.7013(20) 0.8138(11) 0.7818(6)
H11_12 H 0.6862 0.7901 0.7844
N3_12 N 0.7605(7) 0.9272(3) 0.8299(7)
H12_12 H 0.7650 0.9383 0.8120
H13_12 H 0.7668 0.9383 0.8479
C19_12 C 0.6404(9) 0.7038(7) 0.9968(6)
C20_12 C 0.6146(6) 0.7160(4) 0.9898(5)
H16_12 H 0.5961 0.7004 0.9756
H111_12 H 0.651072 0.700966 0.974437
C1_13 C 0.5422(6) 0.5148(5) 0.6773(6)
H1_13 H 0.5408 0.5026 0.6578
H2_13 H 0.5522 0.5077 0.6941
H3_13 H 0.5194 0.5097 0.6837
O1_13 O 0.4953(2) 0.5282(4) 0.5675(2)
N1_13 N 0.5489(3) 0.5517(4) 0.5149(2)
C2_13 C 0.5324(2) 0.5396(4) 0.5688(4)
C3_13 C 0.5415(4) 0.5410(4) 0.6007(3)
H4_13 H 0.5248 0.5347 0.6167
C4_13 C 0.5753(4) 0.5517(4) 0.6089(2)
C5_13 C 0.6000(3) 0.5611(4) 0.5852(3)
H5_13 H 0.6229 0.5684 0.5907
C6_13 C 0.5909(3) 0.5597(4) 0.5533(3)
H6_13 H 0.6076 0.5661 0.5372
C7_13 C 0.5571(3) 0.5490(4) 0.5451(2)
N2_13 N 0.5837(4) 0.5576(5) 0.6399(2)
C8_13 C 0.5132(3) 0.5432(4) 0.5080(4)
C9_13 C 0.5017(3) 0.5417(4) 0.4770(3)
C10_13 C 0.4671(4) 0.5298(4) 0.4713(3)
C11_13 C 0.4441(3) 0.5194(5) 0.4966(5)
C12_13 C 0.4557(4) 0.5209(5) 0.5277(4)
H7_13 H 0.4401 0.5138 0.5448
C13_13 C 0.4903(5) 0.5328(5) 0.5334(2)
C14_13 C 0.4599(9) 0.5349(9) 0.4401(4)
H8_13 H 0.4364 0.5273 0.4377
C15_13 C 0.4771(7) 0.5477(9) 0.4113(7)
H9_13 H 0.4676 0.5496 0.3920
C16_13 C 0.5111(8) 0.5571(11) 0.4172(9)
H10_13 H 0.5275 0.5650 0.4007
C17_13 C 0.5195(11) 0.5542(17) 0.4485(6)
H11_13 H 0.5432 0.5628 0.4511
N3_13 N 0.4061(3) 0.5000(6) 0.4966(7)
H12_13 H 0.3950 0.4934 0.4787
H13_13 H 0.3950 0.4952 0.5146
C18_13 C 0.5649(6) 0.5537(5) 0.6717(4)
H14_13 H 0.5508 0.5646 0.6704
H15_13 H 0.5814 0.5643 0.6892
C19_13 C 0.6295(7) 0.6033(5) 0.6635(6)
C20_13 C 0.6173(4) 0.5653(5) 0.6565(5)
H16_13 H 0.6329 0.5624 0.6423
H17_13 H 0.6134 0.5518 0.6760
H111_13 H 0.632368 0.616773 0.641104
H112_13 H 0.654121 0.614821 0.675778
H113_13 H 0.610733 0.605062 0.678466
C1_14 C 0.4852(5) 0.0275(8) 0.6773(6)
H1_14 H 0.4974 0.0383 0.6578
H2_14 H 0.4923 0.0446 0.6941
H3_14 H 0.4903 0.0098 0.6837
C3_14 C 0.4590(4) 0.0006(6) 0.6007(3)
C4_14 C 0.4483(4) 0.0237(6) 0.6089(2)
C5_14 C 0.4389(4) 0.0390(5) 0.5852(3)
H5_14 H 0.4316 0.0546 0.5907
C6_14 C 0.4403(4) 0.0313(5) 0.5533(3)
H6_14 H 0.4339 0.0416 0.5372
C7_14 C 0.4510(4) 0.0082(5) 0.5451(2)
N2_14 N 0.4424(5) 0.0262(6) 0.6399(2)
C18_14 C 0.4463(5) 0.0113(8) 0.6717(4)
H15_14 H 0.4357 0.0172 0.6892
C19_14 C 0.3967(5) 0.0263(9) 0.6635(6)
C20_14 C 0.4347(5) 0.0521(6) 0.6565(5)
H16_14 H 0.4376 0.0706 0.6423
H17_14 H 0.4482 0.0617 0.6760
H111_14 H 0.383227 0.0155948 0.641104
H112_14 H 0.385179 0.0393 0.675778
H113_14 H 0.394938 0.00567148 0.678466
O1_14 O 0.4718(4) 0.9672(4) 0.5675(2)
N1_14 N 0.4483(4) 0.9973(5) 0.5149(2)
C2_14 C 0.4604(4) 0.9929(4) 0.5688(4)
H4_14 H 0.4653 0.9902 0.6167
C8_14 C 0.4568(4) 0.9701(5) 0.5080(4)
C9_14 C 0.4583(4) 0.9601(5) 0.4770(3)
C10_14 C 0.4702(4) 0.9374(6) 0.4713(3)
C11_14 C 0.4806(5) 0.9248(6) 0.4966(5)
C12_14 C 0.4791(5) 0.9349(6) 0.5277(4)
H7_14 H 0.4862 0.9264 0.5448
C13_14 C 0.4672(5) 0.9576(7) 0.5334(2)
C14_14 C 0.4651(9) 0.9251(13) 0.4401(4)
H8_14 H 0.4727 0.9092 0.4377
C15_14 C 0.4523(9) 0.9295(11) 0.4113(7)
H9_14 H 0.4504 0.9181 0.3920
C16_14 C 0.4429(11) 0.9541(14) 0.4172(9)
H10_14 H 0.4350 0.9626 0.4007
C17_14 C 0.4458(17) 0.9654(20) 0.4485(6)
H11_14 H 0.4372 0.9805 0.4511
N3_14 N 0.5000(6) 0.9062(7) 0.4966(7)
H12_14 H 0.5066 0.9017 0.4787
H13_14 H 0.5048 0.8999 0.5146
H14_14 H 0.4354 0.9863 0.6704
O1_15 O 0.0328(4) 0.5047(2) 0.5675(2)
N1_15 N 0.0027(5) 0.4511(3) 0.5149(2)
C2_15 C 0.0071(4) 0.4676(2) 0.5688(4)
H4_15 H 0.0098 0.4752 0.6167
C8_15 C 0.0299(5) 0.4868(3) 0.5080(4)
C9_15 C 0.0399(5) 0.4983(3) 0.4770(3)
C10_15 C 0.0626(6) 0.5329(4) 0.4713(3)
C11_15 C 0.0752(6) 0.5559(3) 0.4966(5)
C12_15 C 0.0651(6) 0.5443(4) 0.5277(4)
H7_15 H 0.0736 0.5599 0.5448
C13_15 C 0.0424(7) 0.5097(5) 0.5334(2)
C14_15 C 0.0749(13) 0.5401(9) 0.4401(4)
H8_15 H 0.0908 0.5636 0.4377
C15_15 C 0.0705(11) 0.5229(7) 0.4113(7)
H9_15 H 0.0819 0.5324 0.3920
C16_15 C 0.0459(14) 0.4889(8) 0.4172(9)
H10_15 H 0.0374 0.4725 0.4007
C17_15 C 0.0346(20) 0.4805(11) 0.4485(6)
H11_15 H 0.0195 0.4568 0.4511
N3_15 N 0.0938(7) 0.5939(3) 0.4966(7)
H12_15 H 0.0983 0.6050 0.4787
H13_15 H 0.1001 0.6050 0.5146
H14_15 H 0.0137 0.4492 0.6704
C1_15 C 0.9725(8) 0.4578(6) 0.6773(6)
H1_15 H 0.9617 0.4592 0.6578
H2_15 H 0.9554 0.4478 0.6941
H3_15 H 0.9902 0.4806 0.6837
C3_15 C 0.9994(6) 0.4585(4) 0.6007(3)
C4_15 C 0.9763(6) 0.4247(4) 0.6089(2)
C5_15 C 0.9610(5) 0.4000(3) 0.5852(3)
H5_15 H 0.9454 0.3771 0.5907
C6_15 C 0.9687(5) 0.4091(3) 0.5533(3)
H6_15 H 0.9584 0.3924 0.5372
C7_15 C 0.9918(5) 0.4429(3) 0.5451(2)
N2_15 N 0.9738(6) 0.4163(4) 0.6399(2)
C18_15 C 0.9887(8) 0.4351(6) 0.6717(4)
H15_15 H 0.9828 0.4186 0.6892
C19_15 C 0.9737(9) 0.3705(7) 0.6635(6)
C20_15 C 0.9479(6) 0.3827(4) 0.6565(5)
H16_15 H 0.9294 0.3671 0.6423
H17_15 H 0.9383 0.3866 0.6760
H111_15 H 0.984405 0.367632 0.641104
H112_15 H 0.9607 0.345879 0.675778
H113_15 H 0.994329 0.389267 0.678466
C1_16 C 0.8756(6) 0.1814(5) 0.3439(6)
H1_16 H 0.8742 0.1692 0.3244
H2_16 H 0.8856 0.1743 0.3607
H3_16 H 0.8528 0.1763 0.3503
O1_16 O 0.8287(2) 0.1948(4) 0.2341(2)
N1_16 N 0.8823(3) 0.2183(4) 0.1815(2)
C2_16 C 0.8658(2) 0.2062(4) 0.2354(4)
C3_16 C 0.8749(4) 0.2076(4) 0.2673(3)
H4_16 H 0.8582 0.2013 0.2833
C4_16 C 0.9087(4) 0.2183(4) 0.2755(2)
C5_16 C 0.9334(3) 0.2277(4) 0.2518(3)
H5_16 H 0.9563 0.2350 0.2573
C6_16 C 0.9243(3) 0.2263(4) 0.2199(3)
H6_16 H 0.9410 0.2327 0.2038
C7_16 C 0.8905(3) 0.2156(4) 0.2117(2)
N2_16 N 0.9171(4) 0.2242(5) 0.3065(2)
C8_16 C 0.8466(3) 0.2098(4) 0.1746(4)
C9_16 C 0.8351(3) 0.2083(4) 0.1436(3)
C10_16 C 0.8005(4) 0.1964(4) 0.1379(3)
C11_16 C 0.7775(3) 0.1860(5) 0.1632(5)
C12_16 C 0.7891(4) 0.1875(5) 0.1943(4)
H7_16 H 0.7735 0.1804 0.2114
C13_16 C 0.8237(5) 0.1994(5) 0.2000(2)
C14_16 C 0.7933(9) 0.2015(9) 0.1067(4)
H8_16 H 0.7698 0.1939 0.1043
C15_16 C 0.8105(7) 0.2143(9) 0.0779(7)
H9_16 H 0.8010 0.2162 0.0586
C16_16 C 0.8445(8) 0.2237(11) 0.0838(9)
H10_16 H 0.8609 0.2316 0.0673
C17_16 C 0.8529(11) 0.2208(17) 0.1151(6)
H11_16 H 0.8766 0.2294 0.1177
N3_16 N 0.7395(3) 0.1666(6) 0.1632(7)
H12_16 H 0.7284 0.1600 0.1453
H13_16 H 0.7284 0.1618 0.1812
C18_16 C 0.8983(6) 0.2203(5) 0.3383(4)
H14_16 H 0.8842 0.2312 0.3370
H15_16 H 0.9148 0.2309 0.3558
C19_16 C 0.9629(7) 0.2699(5) 0.3301(6)
C20_16 C 0.9507(4) 0.2319(5) 0.3231(5)
H16_16 H 0.9663 0.2290 0.3089
H17_16 H 0.9468 0.2184 0.3426
H111_16 H 0.965701 0.283439 0.30777
H112_16 H 0.987455 0.281488 0.342445
H113_16 H 0.944067 0.271728 0.345132
C1_17 C 0.8186(5) 0.6941(8) 0.3439(6)
H1_17 H 0.8308 0.7049 0.3244
H2_17 H 0.8257 0.7112 0.3607
H3_17 H 0.8237 0.6764 0.3503
O1_17 O 0.8052(4) 0.6338(4) 0.2341(2)
N1_17 N 0.7817(4) 0.6639(5) 0.1815(2)
C2_17 C 0.7938(4) 0.6595(4) 0.2354(4)
C3_17 C 0.7924(4) 0.6672(6) 0.2673(3)
H4_17 H 0.7987 0.6568 0.2833
C4_17 C 0.7817(4) 0.6903(6) 0.2755(2)
C5_17 C 0.7723(4) 0.7056(5) 0.2518(3)
H5_17 H 0.7650 0.7212 0.2573
C6_17 C 0.7737(4) 0.6979(5) 0.2199(3)
H6_17 H 0.7673 0.7082 0.2038
C7_17 C 0.7844(4) 0.6748(5) 0.2117(2)
N2_17 N 0.7758(5) 0.6928(6) 0.3065(2)
C8_17 C 0.7902(4) 0.6367(5) 0.1746(4)
C9_17 C 0.7917(4) 0.6267(5) 0.1436(3)
C10_17 C 0.8036(4) 0.6040(6) 0.1379(3)
C11_17 C 0.8140(5) 0.5914(6) 0.1632(5)
C12_17 C 0.8125(5) 0.6015(6) 0.1943(4)
H7_17 H 0.8196 0.5930 0.2114
C13_17 C 0.8006(5) 0.6242(7) 0.2000(2)
C14_17 C 0.7985(9) 0.5917(13) 0.1067(4)
H8_17 H 0.8061 0.5758 0.1043
C15_17 C 0.7857(9) 0.5961(11) 0.0779(7)
H9_17 H 0.7838 0.5847 0.0586
C16_17 C 0.7763(11) 0.6207(14) 0.0838(9)
H10_17 H 0.7684 0.6292 0.0673
C17_17 C 0.7792(17) 0.6320(20) 0.1151(6)
H11_17 H 0.7706 0.6471 0.1177
N3_17 N 0.8334(6) 0.5728(7) 0.1632(7)
H12_17 H 0.8400 0.5683 0.1453
H13_17 H 0.8382 0.5665 0.1812
C18_17 C 0.7797(5) 0.6779(8) 0.3383(4)
H14_17 H 0.7688 0.6529 0.3370
H15_17 H 0.7691 0.6838 0.3558
C19_17 C 0.7301(5) 0.6929(9) 0.3301(6)
C20_17 C 0.7681(5) 0.7187(6) 0.3231(5)
H16_17 H 0.7710 0.7372 0.3089
H17_17 H 0.7816 0.7283 0.3426
H111_17 H 0.716561 0.682261 0.30777
H112_17 H 0.718512 0.705967 0.342445
H113_17 H 0.728272 0.672338 0.345132
C1_18 C 0.3059(8) 0.1244(6) 0.3439(6)
H1_18 H 0.2951 0.1258 0.3244
H2_18 H 0.2888 0.1144 0.3607
H3_18 H 0.3236 0.1472 0.3503
O1_18 O 0.3662(4) 0.1713(2) 0.2341(2)
N1_18 N 0.3361(5) 0.1177(3) 0.1815(2)
C2_18 C 0.3405(4) 0.1342(2) 0.2354(4)
C3_18 C 0.3328(6) 0.1251(4) 0.2673(3)
H4_18 H 0.3432 0.1418 0.2833
C4_18 C 0.3097(6) 0.0913(4) 0.2755(2)
C5_18 C 0.2944(5) 0.0666(3) 0.2518(3)
H5_18 H 0.2788 0.0437 0.2573
C6_18 C 0.3021(5) 0.0757(3) 0.2199(3)
H6_18 H 0.2918 0.0590 0.2038
C7_18 C 0.3252(5) 0.1095(3) 0.2117(2)
N2_18 N 0.3072(6) 0.0829(4) 0.3065(2)
C8_18 C 0.3633(5) 0.1534(3) 0.1746(4)
C9_18 C 0.3733(5) 0.1649(3) 0.1436(3)
C10_18 C 0.3960(6) 0.1995(4) 0.1379(3)
C11_18 C 0.4086(6) 0.2225(3) 0.1632(5)
C12_18 C 0.3985(6) 0.2109(4) 0.1943(4)
H7_18 H 0.4070 0.2265 0.2114
C13_18 C 0.3758(7) 0.1763(5) 0.2000(2)
C14_18 C 0.4083(13) 0.2067(9) 0.1067(4)
H8_18 H 0.4242 0.2302 0.1043
C15_18 C 0.4039(11) 0.1895(7) 0.0779(7)
H9_18 H 0.4153 0.1990 0.0586
C16_18 C 0.3793(14) 0.1555(8) 0.0838(9)
H10_18 H 0.3708 0.1391 0.0673
C17_18 C 0.3680(20) 0.1471(11) 0.1151(6)
H11_18 H 0.3529 0.1234 0.1177
N3_18 N 0.4272(7) 0.2605(3) 0.1632(7)
H12_18 H 0.4317 0.2716 0.1453
H13_18 H 0.4335 0.2716 0.1812
C18_18 C 0.3221(8) 0.1017(6) 0.3383(4)
H14_18 H 0.3471 0.1158 0.3370
H15_18 H 0.3162 0.0852 0.3558
C19_18 C 0.3071(9) 0.0371(7) 0.3301(6)
C20_18 C 0.2813(6) 0.0493(4) 0.3231(5)
H16_18 H 0.2628 0.0337 0.3089
H17_18 H 0.2717 0.0532 0.3426
H111_18 H 0.317739 0.0342991 0.30777
H112_18 H 0.294033 0.0125453 0.342445
H113_18 H 0.327662 0.0559334 0.345132
C49 C 0.00776(11) 0.03390(11) 0.95729(10)
H34 H 0.0131 0.0569 0.9570
C60 C 0.00127(17) 0.3364(2) 0.90366(18)
C68 C 0.0255(2) 0.3661(2) 0.9190(2)
C76 C 0.02460(18) 0.39528(11) 0.91777(10)
C80 C 0.04923(16) 0.42656(11) 0.93544(12)
O10 O 0.07881(25) 0.43318(19) 0.94250(18)
O11 O 0.0412(3) 0.4365(2) 0.96008(16)
In2 In 0.09395(3) 0.48326(2) 0.96529(2)
C94 C 0.03482(15) 0.02664(10) 0.95749(10)
C96 C 0.07111(9) 0.05507(6) 0.95839(7)
C99 C 0.08063(9) 0.08627(7) 0.94371(7)
C100 C 0.09557(9) 0.05018(6) 0.97401(7)
C103 C 0.11461(9) 0.11257(6) 0.94465(7)
H51 H 0.0641 0.0896 0.9331
H52 H 0.0892 0.0291 0.9839
C104 C 0.12955(10) 0.07647(8) 0.97495(7)
C107 C 0.13907(10) 0.10767(6) 0.96028(7)
H55 H 0.1211 0.1337 0.9347
H56 H 0.1461 0.0732 0.9855
C109 C 0.17593(19) 0.13633(13) 0.95974(13)
O20 O 0.18426(12) 0.16250(8) 0.94282(8)
O21 O 0.19791(12) 0.13409(8) 0.97653(8)
In6 In 0.23954(3) 0.18846(2) 0.95776(2)
H114 H 0.0459079 0.365554 0.932478
H116 H 0.00241399 0.312869 0.90561
C97 C 0.02614(16) 0.99224(11) 0.95729(10)
H50 H 0.0438 0.9869 0.9570
C101 C 0.00564(6) 0.91937(9) 0.94371(7)
H53 H 0.0255 0.9359 0.9331
H57 H 0.0126 0.8789 0.9347
C121 C 0.02129(9) 0.73340(11) 0.88780(8)
H61 H 0.0277 0.7564 0.8842
C127 C 0.03801(8) 0.71892(11) 0.87177(7)
C128 C 0.00225(9) 0.66520(11) 0.89845(7)
H65 H 0.0557 0.7321 0.8573
C131 C 0.02849(8) 0.68482(10) 0.87709(7)
C134 C 0.04683(8) 0.66895(10) 0.85999(7)
C140 C 0.05810(9) 0.67787(11) 0.82870(7)
C141 C 0.05176(8) 0.64465(11) 0.87588(5)
H71 H 0.0548 0.6943 0.8180
C148 C 0.07429(8) 0.66248(11) 0.81331(5)
C149 C 0.06796(9) 0.62927(11) 0.86049(7)
H72 H 0.0441 0.6386 0.8970
C159 C 0.07922(8) 0.63818(10) 0.82920(7)
C160 C 0.08552(12) 0.67119(17) 0.77949(11)
C161 C 0.07279(13) 0.60226(18) 0.87781(10)
H75 H 0.0902 0.6278 0.8188
C174 C 0.09919(16) 0.70412(21) 0.76794(12)
C175 C 0.08415(13) 0.64707(18) 0.75883(12)
C176 C 0.0496(2) 0.5817(4) 0.9011(2)
C177 C 0.09272(16) 0.58991(21) 0.86570(12)
H84 H 0.1009 0.7213 0.7818
C190 C 0.11044(15) 0.71288(26) 0.73679(13)
H85 H 0.0757 0.6245 0.7661
C191 C 0.09500(13) 0.65512(23) 0.72704(12)
C192 C 0.06797(26) 0.56994(31) 0.9276(2)
H86 H 0.1034 0.5979 0.8458
C193 C 0.09757(19) 0.56577(23) 0.88223(12)
C200 C 0.10848(12) 0.68842(22) 0.71608(11)
H95 H 0.1194 0.7356 0.7299
H96 H 0.0931 0.6378 0.7132
C201 C 0.08186(18) 0.55322(22) 0.91066(12)
H97 H 0.1119 0.5582 0.8736
C208 C 0.12112(13) 0.69792(25) 0.68332(12)
C209 C 0.08665(22) 0.52740(28) 0.92876(15)
O50 O 0.11820(9) 0.67564(16) 0.66296(8)
O51 O 0.13564(9) 0.72913(16) 0.67460(8)
O52 O 0.07243(15) 0.51761(18) 0.95558(11)
O53 O 0.10435(14) 0.51595(17) 0.91773(9)
In13 In 0.14487(2) 0.71775(2) 0.62443(2)
H127 H 0.0226097 0.574427 0.901513
H134 H 0.0691621 0.574246 0.953265
O9 O 0.80231(9) 0.06246(16) 0.00793(8)
O67 O 0.26015(18) 0.19769(9) 0.00793(8)
In1 In 0.81154(2) 0.05108(2) 0.95776(2)
O2 O 0.83472(8) 0.10850(8) 0.95741(8)
O3 O 0.83591(9) 0.08446(9) 0.91249(8)
O4 O 0.77329(8) 0.01215(9) 0.92343(8)
O5 O 0.75953(8) 0.04738(10) 0.94555(8)
O6 O 0.83750(8) 0.02176(9) 0.94282(8)
O7 O 0.86591(8) 0.06382(9) 0.97653(8)
O8 O 0.78487(9) 0.00897(16) 0.99629(8)
C21 C 0.84225(12) 0.11094(13) 0.92853(13)
C22 C 0.75228(12) 0.02262(15) 0.92754(12)
C23 C 0.86367(13) 0.03960(14) 0.95974(13)
C24 C 0.85976(8) 0.14590(6) 0.91257(7)
C25 C 0.71872(6) 0.00494(8) 0.90915(7)
C26 C 0.89233(6) 0.03140(8) 0.96028(7)
C27 C 0.87057(8) 0.17499(8) 0.93132(5)
C28 C 0.86459(8) 0.14907(7) 0.87970(7)
C30 C 0.69414(8) 0.01446(7) 0.91448(7)
C31 C 0.88743(6) 0.00204(7) 0.94465(7)
C32 C 0.92353(8) 0.05308(6) 0.97495(7)
H18 H 0.8673 0.1728 0.9535
C33 C 0.88621(9) 0.20726(7) 0.91721(7)
C34 C 0.88024(8) 0.18134(8) 0.86559(5)
H19 H 0.8573 0.1294 0.8670
H21 H 0.6986 0.0322 0.9289
C38 C 0.94982(6) 0.04539(7) 0.97401(7)
H23 H 0.9268 0.0729 0.9855
H24 H 0.8935 0.2269 0.9299
C39 C 0.89104(8) 0.21043(6) 0.88435(7)
H25 H 0.8835 0.1835 0.8434
H27 H 0.6463 0.0042 0.9020
C41 C 0.94493(6) 0.01604(7) 0.95839(7)
H29 H 0.9709 0.0601 0.9839
C42 C 0.90752(8) 0.24519(6) 0.86823(7)
C44 C 0.97336(10) 0.00818(11) 0.95749(10)
C45 C 0.93278(8) 0.27408(8) 0.88382(5)
C46 C 0.89753(7) 0.24803(6) 0.83751(7)
H30 H 0.9395 0.2722 0.9046
C50 C 0.94805(7) 0.30581(6) 0.86870(7)
C51 C 0.91281(8) 0.27976(8) 0.82238(5)
H31 H 0.8804 0.2285 0.8270
C54 C 0.93807(8) 0.30865(6) 0.83798(7)
C55 C 0.97557(12) 0.33703(12) 0.88581(10)
C56 C 0.90424(10) 0.28231(9) 0.78774(6)
H35 H 0.9484 0.3301 0.8277
C61 C 0.9718(2) 0.36585(17) 0.8843(2)
C62 C 0.89059(13) 0.25303(7) 0.76883(9)
C63 C 0.90829(9) 0.31277(7) 0.77533(7)
C69 C 0.9954(2) 0.3954(2) 0.9003(2)
C70 C 0.88100(13) 0.25421(8) 0.73752(9)
C71 C 0.89870(9) 0.31394(8) 0.74402(8)
H37 H 0.9175 0.3326 0.7881
C77 C 0.88505(11) 0.28466(10) 0.72512(6)
H41 H 0.9014 0.3345 0.7356
C81 C 0.87188(13) 0.28404(12) 0.69146(12)
O12 O 0.8632(2) 0.25845(17) 0.67406(19)
O13 O 0.87906(9) 0.31177(10) 0.67844(8)
O16 O 0.80191(9) 0.27250(10) 0.65279(9)
O17 O 0.83376(9) 0.31705(9) 0.62305(9)
C84 C 0.80615(15) 0.29927(15) 0.63789(13)
C85 C 0.77815(8) 0.30768(10) 0.63907(9)
C86 C 0.74729(10) 0.28562(8) 0.65409(9)
C87 C 0.78210(8) 0.33652(9) 0.62315(9)
H45 H 0.7446 0.2661 0.6649
C88 C 0.72038(8) 0.29240(9) 0.65318(10)
C89 C 0.75519(10) 0.34331(8) 0.62224(9)
H46 H 0.8030 0.3514 0.6130
H47 H 0.6995 0.2775 0.6633
C90 C 0.72433(8) 0.32125(10) 0.63725(10)
H48 H 0.7579 0.3628 0.6115
C91 C 0.69394(11) 0.32723(12) 0.63606(15)
C92 C 0.66082(16) 0.3001(2) 0.6409(3)
In3 In 0.85007(2) 0.27736(4) 0.63196(2)
O24 O 0.81572(18) 0.22149(10) 0.62225(11)
O25 O 0.81738(17) 0.25507(10) 0.58440(9)
O26 O 0.90015(19) 0.31230(31) 0.60917(18)
O27 O 0.8968(2) 0.2714(4) 0.62675(16)
C117 C 0.4000(3) 0.0046(2) 0.9003(2)
C123 C 0.39405(26) 0.0282(2) 0.8843(2)
C129 C 0.36146(17) 0.02443(12) 0.88581(10)
C132 C 0.35776(9) 0.05195(7) 0.86870(7)
C135 C 0.6999(2) 0.36072(26) 0.6409(3)
C136 C 0.34130(11) 0.06722(8) 0.88382(5)
C137 C 0.37058(10) 0.06193(8) 0.83798(7)
C142 C 0.63329(16) 0.30606(11) 0.63606(15)
C143 C 0.67277(12) 0.36671(16) 0.63606(15)
C144 C 0.33767(10) 0.09248(8) 0.86823(7)
H67 H 0.3327 0.0605 0.9046
H68 H 0.3817 0.0516 0.8277
C145 C 0.36695(11) 0.08719(8) 0.82238(5)
C150 C 0.59692(13) 0.27567(8) 0.63725(10)
C151 C 0.63928(26) 0.33918(16) 0.6409(3)
C152 C 0.67875(10) 0.40308(13) 0.63725(10)
C153 C 0.31939(10) 0.10896(8) 0.88435(7)
C154 C 0.35050(9) 0.10247(7) 0.83751(7)
C155 C 0.37807(13) 0.09576(10) 0.78774(6)
C162 C 0.57202(12) 0.27962(8) 0.65318(10)
C163 C 0.58812(13) 0.24481(10) 0.62224(9)
C164 C 0.70760(9) 0.42798(12) 0.65318(10)
C165 C 0.65669(8) 0.41188(13) 0.62224(9)
C166 C 0.32105(11) 0.11379(9) 0.91721(7)
C167 C 0.30110(11) 0.11976(8) 0.86559(5)
H73 H 0.3481 0.1196 0.8270
C168 C 0.36244(15) 0.10941(13) 0.76883(9)
C169 C 0.40448(11) 0.09171(9) 0.77533(7)
C178 C 0.53833(13) 0.25271(10) 0.65409(9)
H76 H 0.5780 0.3005 0.6633
H77 H 0.6049 0.2421 0.6115
C179 C 0.55442(12) 0.21790(8) 0.62315(9)
C180 C 0.71438(8) 0.46167(13) 0.65409(9)
H78 H 0.7225 0.4220 0.6633
H79 H 0.6372 0.3951 0.6115
C181 C 0.66348(9) 0.44558(12) 0.62315(9)
C182 C 0.30442(11) 0.12943(8) 0.93132(5)
H80 H 0.3334 0.1065 0.9299
H81 H 0.3000 0.1165 0.8434
C183 C 0.28448(11) 0.13541(8) 0.87970(7)
C184 C 0.37321(15) 0.11900(13) 0.73752(9)
C185 C 0.41524(12) 0.10130(9) 0.74402(8)
H82 H 0.4151 0.0825 0.7881
C194 C 0.52953(13) 0.22185(8) 0.63907(9)
H87 H 0.5215 0.2554 0.6649
H88 H 0.5484 0.1970 0.6130
C195 C 0.69232(10) 0.47047(13) 0.63907(9)
H89 H 0.7339 0.4785 0.6649
H90 H 0.6486 0.4516 0.6130
C196 C 0.28614(10) 0.14024(8) 0.91257(7)
H91 H 0.3055 0.1327 0.9535
H92 H 0.2721 0.1427 0.8670
C197 C 0.39961(15) 0.11495(11) 0.72512(6)
H93 H 0.4331 0.0986 0.7356
C202 C 0.49312(21) 0.19385(15) 0.63789(13)
C203 C 0.70073(15) 0.50688(21) 0.63789(13)
C204 C 0.26869(18) 0.15775(12) 0.92853(13)
C205 C 0.41216(18) 0.12812(13) 0.69146(12)
O36 O 0.47059(13) 0.19809(9) 0.65279(9)
O37 O 0.48329(13) 0.16624(9) 0.62305(9)
O38 O 0.72750(10) 0.52941(13) 0.65279(9)
O39 O 0.68295(9) 0.51671(13) 0.62305(9)
O42 O 0.27378(11) 0.16528(8) 0.95741(8)
O43 O 0.24855(13) 0.16409(9) 0.91249(8)
O44 O 0.39525(26) 0.1368(2) 0.67406(19)
O45 O 0.43271(13) 0.12094(9) 0.67844(8)
In8 In 0.42728(3) 0.14993(2) 0.63196(2)
In9 In 0.72264(4) 0.57272(3) 0.63196(2)
O54 O 0.40576(15) 0.18428(18) 0.62225(11)
O55 O 0.43768(14) 0.18262(17) 0.58440(9)
O56 O 0.41214(25) 0.09985(19) 0.60917(18)
O57 O 0.3745(3) 0.1032(2) 0.62675(16)
O62 O 0.23886(12) 0.22671(8) 0.92343(8)
O63 O 0.28785(13) 0.24047(8) 0.94555(8)
O66 O 0.22410(18) 0.21513(9) 0.99629(8)
C210 C 0.27034(19) 0.24772(12) 0.92754(12)
C211 C 0.28622(10) 0.28128(6) 0.90915(7)
C212 C 0.26660(11) 0.28789(7) 0.88780(8)
C213 C 0.32032(11) 0.30586(8) 0.91448(7)
H98 H 0.2436 0.2713 0.8842
C214 C 0.28108(11) 0.31909(8) 0.87177(7)
C215 C 0.33480(11) 0.33705(7) 0.89845(7)
H99 H 0.3336 0.3014 0.9289
H100 H 0.2679 0.3236 0.8573
C216 C 0.31518(10) 0.34367(6) 0.87709(7)
H101 H 0.3579 0.3537 0.9020
C217 C 0.33105(10) 0.37788(6) 0.85999(7)
C218 C 0.32213(11) 0.38023(6) 0.82870(7)
C219 C 0.35535(11) 0.40711(8) 0.87588(5)
H102 H 0.3057 0.3605 0.8180
C220 C 0.33752(11) 0.41181(8) 0.81331(5)
C221 C 0.37073(11) 0.43869(6) 0.86049(7)
H103 H 0.3614 0.4055 0.8970
C222 C 0.36182(10) 0.44104(6) 0.82920(7)
C223 C 0.32881(17) 0.41433(12) 0.77949(11)
C224 C 0.39774(18) 0.47053(12) 0.87781(10)
H104 H 0.3722 0.4624 0.8188
C225 C 0.29588(21) 0.39507(14) 0.76794(12)
C226 C 0.35293(18) 0.43708(12) 0.75883(12)
C227 C 0.4183(4) 0.4679(3) 0.9011(2)
C228 C 0.41009(21) 0.50281(13) 0.86570(12)
H105 H 0.2787 0.3796 0.7818
C229 C 0.28712(26) 0.39756(21) 0.73679(13)
H106 H 0.3755 0.4512 0.7661
C230 C 0.34488(23) 0.43988(19) 0.72704(12)
C231 C 0.43006(31) 0.49803(17) 0.9276(2)
H107 H 0.4021 0.5055 0.8458
C232 C 0.43423(23) 0.53180(13) 0.88223(12)
C233 C 0.31158(22) 0.42006(18) 0.71608(11)
H108 H 0.2644 0.3838 0.7299
H109 H 0.3622 0.4553 0.7132
C234 C 0.44678(22) 0.52864(12) 0.91066(12)
H110 H 0.4418 0.5537 0.8736
C235 C 0.30208(25) 0.42320(21) 0.68332(12)
C236 C 0.47260(28) 0.55925(17) 0.92876(15)
O68 O 0.32436(16) 0.44257(18) 0.66296(8)
O69 O 0.27087(16) 0.40652(18) 0.67460(8)
O70 O 0.48239(18) 0.55482(10) 0.95558(11)
O71 O 0.48405(17) 0.58840(10) 0.91773(9)
In15 In 0.28225(2) 0.42713(3) 0.62443(2)
In16 In 0.51674(2) 0.61069(4) 0.96529(2)
H115 H 0.870312 0.231274 0.722704
H117 H 0.88741 0.229171 0.778544
H118 H 0.992824 0.4182 0.900205
H121 H 0.950807 0.365279 0.87087
H122 H 0.656316 0.274967 0.648224
H123 H 0.414471 0.0491927 0.87087
H125 H 0.425376 0.00717556 0.900205
H129 H 0.725033 0.381349 0.648224
H130 H 0.341761 0.11259 0.778544
H131 H 0.618651 0.343684 0.648224
H138 H 0.360962 0.129688 0.722704
H139 H 0.425573 0.448183 0.901513
H140 H 0.425754 0.494916 0.953265
O35 O 0.93754(16) 0.73985(18) 0.00793(8)
C29 C 0.71211(7) 0.97871(9) 0.88780(8)
H20 H 0.7287 0.9723 0.8842
C35 C 0.68091(8) 0.96199(8) 0.87177(7)
C36 C 0.66295(7) 0.99775(9) 0.89845(7)
H22 H 0.8663 0.9874 0.9347
C37 C 0.91373(7) 0.99436(6) 0.94371(7)
H26 H 0.6764 0.9443 0.8573
C40 C 0.65633(6) 0.97151(8) 0.87709(7)
H28 H 0.9104 0.9745 0.9331
C43 C 0.62212(6) 0.95317(8) 0.85999(7)
C47 C 0.61977(6) 0.94190(9) 0.82870(7)
C48 C 0.59289(8) 0.94824(8) 0.87588(5)
H32 H 0.6395 0.9452 0.8180
C52 C 0.58819(8) 0.92571(8) 0.81331(5)
C53 C 0.56131(6) 0.93204(9) 0.86049(7)
H33 H 0.5945 0.9559 0.8970
C57 C 0.55896(6) 0.92078(8) 0.82920(7)
C58 C 0.58567(12) 0.91448(12) 0.77949(11)
C59 C 0.52947(12) 0.92721(13) 0.87781(10)
H36 H 0.5376 0.9098 0.8188
C64 C 0.60493(14) 0.90081(16) 0.76794(12)
C65 C 0.56292(12) 0.91585(13) 0.75883(12)
C66 C 0.5321(3) 0.9504(2) 0.9011(2)
C67 C 0.49719(13) 0.90728(16) 0.86570(12)
H38 H 0.6204 0.8991 0.7818
C72 C 0.60244(21) 0.88956(15) 0.73679(13)
H39 H 0.5488 0.9243 0.7661
C73 C 0.56012(19) 0.90500(13) 0.72704(12)
C74 C 0.50197(17) 0.93203(26) 0.9276(2)
H40 H 0.4945 0.8966 0.8458
C75 C 0.46820(13) 0.90243(19) 0.88223(12)
C78 C 0.57994(18) 0.89152(12) 0.71608(11)
H42 H 0.6162 0.8806 0.7299
H43 H 0.5447 0.9069 0.7132
C79 C 0.47136(12) 0.91814(18) 0.91066(12)
H44 H 0.4463 0.8881 0.8736
C82 C 0.57680(21) 0.87888(13) 0.68332(12)
C83 C 0.44075(17) 0.91335(22) 0.92876(15)
O14 O 0.44518(10) 0.92757(15) 0.95558(11)
O15 O 0.41160(10) 0.89565(14) 0.91773(9)
C93 C 0.96610(11) 0.97386(16) 0.95729(10)
C95 C 0.99182(11) 0.96518(15) 0.95749(10)
H49 H 0.9431 0.9562 0.9570
C98 C 0.98396(7) 0.92889(9) 0.95839(7)
C102 C 0.95461(7) 0.90443(9) 0.97401(7)
C105 C 0.99796(7) 0.88539(9) 0.94465(7)
H54 H 0.9399 0.9108 0.9839
C106 C 0.94692(6) 0.87045(10) 0.97495(7)
C108 C 0.96860(8) 0.86093(10) 0.96028(7)
H58 H 0.9271 0.8539 0.9855
C110 C 0.96040(14) 0.82407(19) 0.95974(13)
O18 O 0.55743(18) 0.88180(9) 0.66296(8)
O19 O 0.59348(18) 0.86436(9) 0.67460(8)
O22 O 0.97824(9) 0.81574(12) 0.94282(8)
O23 O 0.93618(9) 0.80209(12) 0.97653(8)
In4 In 0.57287(3) 0.85513(2) 0.62443(2)
In5 In 0.38931(4) 0.90605(3) 0.96529(2)
In7 In 0.94892(2) 0.76046(3) 0.95776(2)
O28 O 0.35437(31) 0.92119(25) 0.94250(18)
O29 O 0.3953(4) 0.9588(3) 0.96008(16)
O30 O 0.89150(8) 0.72622(11) 0.95741(8)
O31 O 0.91554(9) 0.75145(13) 0.91249(8)
O32 O 0.98785(9) 0.76114(12) 0.92343(8)
O33 O 0.95262(10) 0.71215(13) 0.94555(8)
O34 O 0.99103(16) 0.77590(18) 0.99629(8)
C111 C 0.37733(19) 0.95077(16) 0.93544(12)
C112 C 0.88906(13) 0.73131(18) 0.92853(13)
C113 C 0.97738(15) 0.72966(19) 0.92754(12)
C114 C 0.37068(21) 0.97540(18) 0.91777(10)
C115 C 0.85410(6) 0.71386(10) 0.91257(7)
C116 C 0.99506(8) 0.71378(10) 0.90915(7)
C118 C 0.3406(3) 0.9745(2) 0.9190(2)
C119 C 0.82501(8) 0.69558(11) 0.93132(5)
C120 C 0.85093(7) 0.71552(11) 0.87970(7)
C122 C 0.98554(7) 0.67968(11) 0.91448(7)
C124 C 0.33513(26) 0.99873(17) 0.90366(18)
H59 H 0.8272 0.6945 0.9535
C125 C 0.79274(7) 0.67895(11) 0.91721(7)
C126 C 0.81866(8) 0.69890(11) 0.86559(5)
H60 H 0.8706 0.7279 0.8670
H62 H 0.9678 0.6664 0.9289
H63 H 0.7731 0.6666 0.9299
C130 C 0.78957(6) 0.68061(10) 0.88435(7)
H64 H 0.8165 0.7000 0.8434
H66 H 0.9958 0.6421 0.9020
C133 C 0.75481(6) 0.66233(10) 0.86823(7)
C138 C 0.72592(8) 0.65870(11) 0.88382(5)
C139 C 0.75197(6) 0.64950(9) 0.83751(7)
H69 H 0.7278 0.6673 0.9046
C146 C 0.69419(6) 0.64224(9) 0.86870(7)
C147 C 0.72024(8) 0.63305(11) 0.82238(5)
H70 H 0.7715 0.6519 0.8270
C156 C 0.69135(6) 0.62942(10) 0.83798(7)
C157 C 0.66297(12) 0.63854(17) 0.88581(10)
C158 C 0.71769(9) 0.62193(13) 0.78774(6)
H74 H 0.6699 0.6183 0.8277
C170 C 0.6636(2) 0.66487(26) 0.90366(18)
C171 C 0.63415(17) 0.60595(26) 0.8843(2)
C172 C 0.74697(7) 0.63756(15) 0.76883(9)
C173 C 0.68723(7) 0.59552(11) 0.77533(7)
C186 C 0.6339(2) 0.6594(3) 0.9190(2)
C187 C 0.6046(2) 0.6000(3) 0.9003(2)
C188 C 0.74579(8) 0.62679(15) 0.73752(9)
C189 C 0.68606(8) 0.58476(12) 0.74402(8)
H83 H 0.6674 0.5849 0.7881
C198 C 0.60472(11) 0.62932(21) 0.91777(10)
C199 C 0.71534(10) 0.60039(15) 0.72512(6)
H94 H 0.6655 0.5669 0.7356
C206 C 0.57344(11) 0.62267(19) 0.93544(12)
C207 C 0.71596(12) 0.58784(18) 0.69146(12)
O40 O 0.68770(31) 0.58786(25) 0.60917(18)
O41 O 0.7286(4) 0.6255(3) 0.62675(16)
O46 O 0.56682(19) 0.64563(31) 0.94250(18)
O47 O 0.5635(2) 0.6047(4) 0.96008(16)
O48 O 0.74155(17) 0.60475(26) 0.67406(19)
O49 O 0.68823(10) 0.56729(13) 0.67844(8)
O60 O 0.77851(10) 0.59424(15) 0.62225(11)
O61 O 0.74493(10) 0.56232(14) 0.58440(9)
H119 H 0.505084 0.930838 0.953265
H120 H 0.551817 0.97739 0.901513
H124 H 0.310455 0.997586 0.90561
H126 H 0.319646 0.954092 0.932478
H128 H 0.634721 0.585529 0.87087
H132 H 0.687131 0.689545 0.90561
H133 H 0.770829 0.658239 0.778544
H135 H 0.768726 0.639038 0.722704
H136 H 0.5818 0.574624 0.900205
H137 H 0.634446 0.680354 0.932478
In1_2 In 0.47821(2) 0.38441(2) 0.29109(2)
O2_2 O 0.50139(8) 0.44183(8) 0.29074(8)
O3_2 O 0.50258(9) 0.41779(9) 0.24582(8)
O4_2 O 0.43996(8) 0.34548(9) 0.25676(8)
O5_2 O 0.42620(8) 0.38071(10) 0.27888(8)
O6_2 O 0.50417(8) 0.35509(9) 0.27615(8)
O7_2 O 0.53258(8) 0.39715(9) 0.30986(8)
O8_2 O 0.45154(9) 0.34230(16) 0.32962(8)
O9_2 O 0.46898(9) 0.39579(16) 0.34126(8)
C21_2 C 0.50892(12) 0.44427(13) 0.26186(13)
C22_2 C 0.41895(12) 0.35595(15) 0.26087(12)
C23_2 C 0.53034(13) 0.37293(14) 0.29307(13)
C24_2 C 0.52643(8) 0.47923(6) 0.24590(7)
C25_2 C 0.38539(6) 0.33827(8) 0.24248(7)
C26_2 C 0.55900(6) 0.36473(8) 0.29361(7)
C27_2 C 0.53724(8) 0.50832(8) 0.26465(5)
C28_2 C 0.53126(8) 0.48240(7) 0.21303(7)
C29_2 C 0.37878(7) 0.31204(9) 0.22113(8)
C30_2 C 0.36081(8) 0.34779(7) 0.24781(7)
C31_2 C 0.55410(6) 0.33537(7) 0.27798(7)
C32_2 C 0.59020(8) 0.38641(6) 0.30828(7)
H18_2 H 0.5340 0.5061 0.2868
C33_2 C 0.55288(9) 0.54059(7) 0.25054(7)
C34_2 C 0.54691(8) 0.51467(8) 0.19892(5)
H19_2 H 0.5240 0.4627 0.2003
H20_2 H 0.3954 0.3056 0.2175
C35_2 C 0.34758(8) 0.29532(8) 0.20510(7)
C36_2 C 0.32962(7) 0.33108(9) 0.23178(7)
H21_2 H 0.3653 0.3655 0.2622
H22_2 H 0.5330 0.3207 0.2680
C37_2 C 0.58040(7) 0.32769(6) 0.27704(7)
C38_2 C 0.61649(6) 0.37872(7) 0.30734(7)
H23_2 H 0.5935 0.4062 0.3188
H24_2 H 0.5602 0.5602 0.2632
C39_2 C 0.55771(8) 0.54376(6) 0.21768(7)
H25_2 H 0.5502 0.5168 0.1767
H26_2 H 0.3431 0.2776 0.1906
C40_2 C 0.32300(6) 0.30484(8) 0.21042(7)
H27_2 H 0.3130 0.3375 0.2353
H28_2 H 0.5771 0.3078 0.2664
C41_2 C 0.61160(6) 0.34937(7) 0.29172(7)
H29_2 H 0.6376 0.3934 0.3172
C42_2 C 0.57419(8) 0.57852(6) 0.20156(7)
C43_2 C 0.28879(6) 0.28650(8) 0.19332(7)
C44_2 C 0.64003(10) 0.34151(11) 0.29082(10)
C45_2 C 0.59945(8) 0.60741(8) 0.21715(5)
C46_2 C 0.56420(7) 0.58136(6) 0.17084(7)
C47_2 C 0.28644(6) 0.27523(9) 0.16203(7)
C48_2 C 0.25956(8) 0.28157(8) 0.20921(5)
C49_2 C 0.67443(11) 0.36723(11) 0.29062(10)
H30_2 H 0.6062 0.6055 0.2379
C50_2 C 0.61472(7) 0.63914(6) 0.20203(7)
C51_2 C 0.57948(8) 0.61309(8) 0.15571(5)
H31_2 H 0.5471 0.5618 0.1603
H32_2 H 0.3062 0.2785 0.1513
C52_2 C 0.25486(8) 0.25904(8) 0.14664(5)
C53_2 C 0.22798(6) 0.26537(9) 0.19382(7)
H33_2 H 0.2612 0.2892 0.2303
H34_2 H 0.6798 0.3902 0.2903
C54_2 C 0.60474(8) 0.64198(6) 0.17131(7)
C55_2 C 0.64224(12) 0.67036(12) 0.21914(10)
C56_2 C 0.57091(10) 0.61564(9) 0.12107(6)
C57_2 C 0.22563(6) 0.25411(8) 0.16253(7)
C58_2 C 0.25234(12) 0.24781(12) 0.11282(11)
C59_2 C 0.19614(12) 0.26054(13) 0.21114(10)
H35_2 H 0.6151 0.6634 0.1610
C60_2 C 0.66794(17) 0.6697(2) 0.23699(18)
C61_2 C 0.6385(2) 0.69918(17) 0.2176(2)
C62_2 C 0.55726(13) 0.58636(7) 0.10216(9)
C63_2 C 0.57496(9) 0.64610(7) 0.10866(7)
H36_2 H 0.2043 0.2431 0.1521
C64_2 C 0.27160(14) 0.23414(16) 0.10127(12)
C65_2 C 0.22959(12) 0.24918(13) 0.09216(12)
C66_2 C 0.1988(3) 0.2837(2) 0.2344(2)
C67_2 C 0.16386(13) 0.24061(16) 0.19903(12)
C68_2 C 0.6922(2) 0.6994(2) 0.2523(2)
C69_2 C 0.6621(2) 0.7287(2) 0.2336(2)
C70_2 C 0.54767(13) 0.58754(8) 0.07085(9)
C71_2 C 0.56537(9) 0.64727(8) 0.07735(8)
H37_2 H 0.5842 0.6659 0.1214
H38_2 H 0.2871 0.2324 0.1151
C72_2 C 0.26911(21) 0.22289(15) 0.07012(13)
H39_2 H 0.2155 0.2576 0.0994
C73_2 C 0.22679(19) 0.23833(13) 0.06037(12)
C74_2 C 0.16864(17) 0.26536(26) 0.2609(2)
H40_2 H 0.1612 0.2299 0.1791
C75_2 C 0.13487(13) 0.23576(19) 0.21556(12)
C76_2 C 0.69127(18) 0.72861(11) 0.25110(10)
C77_2 C 0.55172(11) 0.61799(10) 0.05845(6)
H41_2 H 0.5681 0.6678 0.0689
C78_2 C 0.24661(18) 0.22485(12) 0.04941(11)
H42_2 H 0.2829 0.2139 0.0632
H43_2 H 0.2114 0.2402 0.0465
C79_2 C 0.13803(12) 0.25147(18) 0.24399(12)
H44_2 H 0.1130 0.2214 0.2069
C80_2 C 0.71590(16) 0.75989(11) 0.26877(12)
C81_2 C 0.53855(13) 0.61737(12) 0.02479(12)
C82_2 C 0.24347(21) 0.21221(13) 0.01665(12)
C83_2 C 0.10742(17) 0.24668(22) 0.26209(15)
O10_2 O 0.74548(25) 0.76651(19) 0.27583(18)
O11_2 O 0.7079(3) 0.7698(2) 0.29341(16)
O12_2 O 0.5299(2) 0.59178(17) 0.00739(19)
O13_2 O 0.54573(9) 0.64510(10) 0.01177(8)
O14_2 O 0.11185(10) 0.26090(15) 0.28891(11)
O15_2 O 0.07827(10) 0.22898(14) 0.25106(9)
In2_2 In 0.76062(3) 0.81659(2) 0.29862(2)
C93_2 C 0.63277(11) 0.30719(16) 0.29062(10)
C94_2 C 0.70149(15) 0.35997(10) 0.29082(10)
C95_2 C 0.65849(11) 0.29851(15) 0.29082(10)
H49_2 H 0.6098 0.2895 0.2903
C96_2 C 0.73778(9) 0.38840(6) 0.29172(7)
C97_2 C 0.69281(16) 0.32557(11) 0.29062(10)
C98_2 C 0.65063(7) 0.26222(9) 0.29172(7)
C99_2 C 0.74730(9) 0.41960(7) 0.27704(7)
C100_2 C 0.76224(9) 0.38351(6) 0.30734(7)
H50_2 H 0.7105 0.3202 0.2903
C101_2 C 0.67231(6) 0.25270(9) 0.27704(7)
C102_2 C 0.62128(7) 0.23776(9) 0.30734(7)
C103_2 C 0.78128(9) 0.44590(6) 0.27798(7)
H51_2 H 0.7308 0.4229 0.2664
H52_2 H 0.7559 0.3624 0.3172
C104_2 C 0.79622(10) 0.40980(8) 0.30828(7)
C105_2 C 0.66463(7) 0.21872(9) 0.27798(7)
H53_2 H 0.6922 0.2692 0.2664
H54_2 H 0.6066 0.2441 0.3172
C106_2 C 0.61359(6) 0.20378(10) 0.30828(7)
C107_2 C 0.80574(10) 0.44100(6) 0.29361(7)
H55_2 H 0.7878 0.4670 0.2680
H56_2 H 0.8128 0.4065 0.3188
C108_2 C 0.63527(8) 0.19426(10) 0.29361(7)
H57_2 H 0.6793 0.2122 0.2680
H58_2 H 0.5938 0.1872 0.3188
C109_2 C 0.84260(19) 0.46966(13) 0.29307(13)
C110_2 C 0.62707(14) 0.15740(19) 0.29307(13)
O20_2 O 0.85093(12) 0.49583(8) 0.27615(8)
O21_2 O 0.86458(12) 0.46742(8) 0.30986(8)
O22_2 O 0.64491(9) 0.14907(12) 0.27615(8)
O23_2 O 0.60285(9) 0.13542(12) 0.30986(8)
In5_2 In 0.05598(4) 0.23938(3) 0.29862(2)
In6_2 In 0.90621(3) 0.52179(2) 0.29109(2)
In7_2 In 0.61559(2) 0.09379(3) 0.29109(2)
O28_2 O 0.02104(31) 0.25452(25) 0.27583(18)
O29_2 O 0.0620(4) 0.2921(3) 0.29341(16)
O30_2 O 0.55817(8) 0.05955(11) 0.29074(8)
O31_2 O 0.58221(9) 0.08478(13) 0.24582(8)
O32_2 O 0.65452(9) 0.09447(12) 0.25676(8)
O33_2 O 0.61929(10) 0.04548(13) 0.27888(8)
O34_2 O 0.65770(16) 0.10923(18) 0.32962(8)
O35_2 O 0.60421(16) 0.07318(18) 0.34126(8)
C111_2 C 0.04400(19) 0.28410(16) 0.26877(12)
C112_2 C 0.55573(13) 0.06464(18) 0.26186(13)
C113_2 C 0.64405(15) 0.06299(19) 0.26087(12)
C114_2 C 0.03735(21) 0.30873(18) 0.25110(10)
C115_2 C 0.52077(6) 0.04719(10) 0.24590(7)
C116_2 C 0.66173(8) 0.04711(10) 0.24248(7)
C117_2 C 0.0667(3) 0.3379(2) 0.2336(2)
C118_2 C 0.0073(3) 0.3078(2) 0.2523(2)
C119_2 C 0.49168(8) 0.02891(11) 0.26465(5)
C120_2 C 0.51760(7) 0.04885(11) 0.21303(7)
C121_2 C 0.68796(9) 0.06673(11) 0.22113(8)
C122_2 C 0.65221(7) 0.01301(11) 0.24781(7)
C123_2 C 0.06072(26) 0.3615(2) 0.2176(2)
C124_2 C 0.00180(26) 0.33206(17) 0.23699(18)
H59_2 H 0.4939 0.0278 0.2868
C125_2 C 0.45941(7) 0.01228(11) 0.25054(7)
C126_2 C 0.48533(8) 0.03223(11) 0.19892(5)
H60_2 H 0.5373 0.0612 0.2003
H61_2 H 0.6944 0.0897 0.2175
C127_2 C 0.70468(8) 0.05225(11) 0.20510(7)
C129_2 C 0.02813(17) 0.35776(12) 0.21914(10)
C130_2 C 0.45624(6) 0.01394(10) 0.21768(7)
H64_2 H 0.4832 0.0333 0.1767
H65_2 H 0.7224 0.0654 0.1906
C131_2 C 0.69516(8) 0.01815(10) 0.21042(7)
C132_2 C 0.02443(9) 0.38528(7) 0.20203(7)
C134_2 C 0.71350(8) 0.00228(10) 0.19332(7)
C136_2 C 0.00797(11) 0.40055(8) 0.21715(5)
C137_2 C 0.03725(10) 0.39526(8) 0.17131(7)
C140_2 C 0.72477(9) 0.01120(11) 0.16203(7)
C144_2 C 0.00434(10) 0.42581(8) 0.20156(7)
H68_2 H 0.0484 0.3849 0.1610
C145_2 C 0.03362(11) 0.42052(8) 0.15571(5)
H69_2 H 0.3945 0.0006 0.2379
H71_2 H 0.7215 0.0276 0.1513
C154_2 C 0.01717(9) 0.43580(7) 0.17084(7)
C155_2 C 0.04474(13) 0.42909(10) 0.12107(6)
C160_2 C 0.75219(12) 0.00452(17) 0.11282(11)
H73_2 H 0.0148 0.4529 0.1603
C168_2 C 0.02911(15) 0.44274(13) 0.10216(9)
C169_2 C 0.07115(11) 0.42504(9) 0.10866(7)
C174_2 C 0.76586(16) 0.03745(21) 0.10127(12)
H80_2 H 0.0001 0.4398 0.2632
C184_2 C 0.03988(15) 0.45233(13) 0.07085(9)
C185_2 C 0.08191(12) 0.43463(9) 0.07735(8)
H82_2 H 0.0818 0.4158 0.1214
H84_2 H 0.7676 0.0546 0.1151
C190_2 C 0.77711(15) 0.04621(26) 0.07012(13)
C197_2 C 0.06628(15) 0.44828(11) 0.05845(6)
H93_2 H 0.0998 0.4319 0.0689
C200_2 C 0.77515(12) 0.02175(22) 0.04941(11)
H95_2 H 0.7861 0.0689 0.0632
C205_2 C 0.07883(18) 0.46145(13) 0.02479(12)
C208_2 C 0.78779(13) 0.03125(25) 0.01665(12)
O44_2 O 0.06192(26) 0.4701(2) 0.00739(19)
O45_2 O 0.09938(13) 0.45427(9) 0.01177(8)
C215_2 C 0.00147(11) 0.67038(7) 0.23178(7)
H99_2 H 0.0003 0.6347 0.2622
H101_2 H 0.0246 0.6870 0.2353
C219_2 C 0.02202(11) 0.74044(8) 0.20921(5)
C220_2 C 0.00419(11) 0.74514(8) 0.14664(5)
C221_2 C 0.03740(11) 0.77202(6) 0.19382(7)
H103_2 H 0.0281 0.7388 0.2303
C222_2 C 0.02849(10) 0.77437(6) 0.16253(7)
C224_2 C 0.06441(18) 0.80386(12) 0.21114(10)
H104_2 H 0.0389 0.7957 0.1521
C226_2 C 0.01960(18) 0.77041(12) 0.09216(12)
C227_2 C 0.0850(4) 0.8012(3) 0.2344(2)
C228_2 C 0.07676(21) 0.83614(13) 0.19903(12)
H106_2 H 0.0422 0.7845 0.0994
C230_2 C 0.01155(23) 0.77321(19) 0.06037(12)
C231_2 C 0.09673(31) 0.83136(17) 0.2609(2)
H107_2 H 0.0688 0.8388 0.1791
C232_2 C 0.10090(23) 0.86513(13) 0.21556(12)
H109_2 H 0.0289 0.7886 0.0465
C234_2 C 0.11345(22) 0.86197(12) 0.24399(12)
H110_2 H 0.1085 0.8870 0.2069
C236_2 C 0.13927(28) 0.89258(17) 0.26209(15)
O70_2 O 0.14906(18) 0.88815(10) 0.28891(11)
O71_2 O 0.15072(17) 0.92173(10) 0.25106(9)
In16_2 In 0.18341(2) 0.94402(4) 0.29862(2)
H114_2 H 0.712575 0.698887 0.265811
H115_2 H 0.536979 0.564608 0.0560373
H116_2 H 0.669081 0.646203 0.238943
H117_2 H 0.554077 0.562504 0.111877
H118_2 H 0.659491 0.751534 0.233538
H119_2 H 0.171751 0.264171 0.286599
H120_2 H 0.218484 0.310724 0.234846
H121_2 H 0.617474 0.698612 0.204203
H123_2 H 0.0811381 0.382526 0.204203
H125_2 H 0.0920425 0.340509 0.233538
H130_2 H 0.00842718 0.445923 0.111877
H132_2 H 0.353797 0.0228781 0.238943
H137_2 H 0.301113 0.0136876 0.265811
H138_2 H 0.0276287 0.463021 0.0560373
H139_2 H 0.0922398 0.781516 0.234846
H140_2 H 0.0924206 0.828249 0.286599
O16_2 O 0.46858(9) 0.60583(10) 0.98612(9)
O17_2 O 0.50043(9) 0.65038(9) 0.95638(9)
C84_2 C 0.47282(15) 0.63260(15) 0.97122(13)
C85_2 C 0.44482(8) 0.64101(10) 0.97240(9)
C86_2 C 0.41396(10) 0.61895(8) 0.98742(9)
C87_2 C 0.44877(8) 0.66985(9) 0.95648(9)
H45_2 H 0.4113 0.5994 0.9982
C88_2 C 0.38705(8) 0.62573(9) 0.98651(10)
C89_2 C 0.42186(10) 0.67664(8) 0.95557(9)
H46_2 H 0.4697 0.6847 0.9463
H47_2 H 0.3662 0.6108 0.9966
C90_2 C 0.39100(8) 0.65458(10) 0.97058(10)
H48_2 H 0.4246 0.6961 0.9448
C91_2 C 0.36061(11) 0.66056(12) 0.96939(15)
C92_2 C 0.32749(16) 0.6334(2) 0.9742(3)
C135_2 C 0.3666(2) 0.69405(26) 0.9742(3)
C142_2 C 0.29996(16) 0.63939(11) 0.96939(15)
C143_2 C 0.33944(12) 0.70004(16) 0.96939(15)
C150_2 C 0.26359(13) 0.60900(8) 0.97058(10)
C151_2 C 0.30595(26) 0.67251(16) 0.9742(3)
C152_2 C 0.34542(10) 0.73641(13) 0.97058(10)
C162_2 C 0.23869(12) 0.61295(8) 0.98651(10)
C163_2 C 0.25479(13) 0.57814(10) 0.95557(9)
C164_2 C 0.37427(9) 0.76131(12) 0.98651(10)
C165_2 C 0.32336(8) 0.74521(13) 0.95557(9)
C178_2 C 0.20500(13) 0.58604(10) 0.98742(9)
H76_2 H 0.2447 0.6338 0.9966
H77_2 H 0.2716 0.5754 0.9448
C179_2 C 0.22109(12) 0.55123(8) 0.95648(9)
C180_2 C 0.38105(8) 0.79500(13) 0.98742(9)
H78_2 H 0.3892 0.7553 0.9966
H79_2 H 0.3039 0.7284 0.9448
C181_2 C 0.33015(9) 0.77891(12) 0.95648(9)
C194_2 C 0.19620(13) 0.55518(8) 0.97240(9)
H87_2 H 0.1882 0.5887 0.9982
H88_2 H 0.2151 0.5303 0.9463
C195_2 C 0.35899(10) 0.80380(13) 0.97240(9)
H89_2 H 0.4006 0.8118 0.9982
H90_2 H 0.3153 0.7849 0.9463
C202_2 C 0.15979(21) 0.52718(15) 0.97122(13)
C203_2 C 0.36740(15) 0.84021(21) 0.97122(13)
O36_2 O 0.13726(13) 0.53142(9) 0.98612(9)
O37_2 O 0.14996(13) 0.49957(9) 0.95638(9)
O38_2 O 0.39417(10) 0.86274(13) 0.98612(9)
O39_2 O 0.34962(9) 0.85004(13) 0.95638(9)
H122_2 H 0.322983 0.6083 0.981558
H129_2 H 0.3917 0.714683 0.981558
H131_2 H 0.285317 0.677017 0.981558
C128_2 C 0.66892(9) 0.99853(11) 0.23178(7)
H62_2 H 0.6345 0.9997 0.2622
H63_2 H 0.4398 0.9999 0.2632
H66_2 H 0.6625 0.9754 0.2353
C133_2 C 0.42148(6) 0.99566(10) 0.20156(7)
C138_2 C 0.39259(8) 0.99203(11) 0.21715(5)
C139_2 C 0.41864(6) 0.98283(9) 0.17084(7)
C141_2 C 0.71843(8) 0.97798(11) 0.20921(5)
C146_2 C 0.36086(6) 0.97557(9) 0.20203(7)
C147_2 C 0.38691(8) 0.96638(11) 0.15571(5)
H70_2 H 0.4382 0.9852 0.1603
C148_2 C 0.74096(8) 0.99581(11) 0.14664(5)
C149_2 C 0.73463(9) 0.96260(11) 0.19382(7)
H72_2 H 0.7108 0.9719 0.2303
C156_2 C 0.35802(6) 0.96275(10) 0.17131(7)
C157_2 C 0.32964(12) 0.97187(17) 0.21914(10)
C158_2 C 0.38436(9) 0.95526(13) 0.12107(6)
C159_2 C 0.74589(8) 0.97151(10) 0.16253(7)
C161_2 C 0.73946(13) 0.93559(18) 0.21114(10)
H74_2 H 0.3366 0.9516 0.1610
C170_2 C 0.3303(2) 0.99820(26) 0.23699(18)
C171_2 C 0.30082(17) 0.93928(26) 0.2176(2)
C172_2 C 0.41364(7) 0.97089(15) 0.10216(9)
C173_2 C 0.35390(7) 0.92885(11) 0.10866(7)
H75_2 H 0.7569 0.9611 0.1521
C175_2 C 0.75082(13) 0.98040(18) 0.09216(12)
C176_2 C 0.7163(2) 0.9150(4) 0.2344(2)
C177_2 C 0.75939(16) 0.92324(21) 0.19903(12)
C186_2 C 0.3006(2) 0.9927(3) 0.2523(2)
C187_2 C 0.2713(2) 0.9333(3) 0.2336(2)
C188_2 C 0.41246(8) 0.96012(15) 0.07085(9)
C189_2 C 0.35273(8) 0.91809(12) 0.07735(8)
H83_2 H 0.3341 0.9182 0.1214
H85_2 H 0.7424 0.9578 0.0994
C191_2 C 0.76167(13) 0.98845(23) 0.06037(12)
C192_2 C 0.73464(26) 0.90327(31) 0.2609(2)
H86_2 H 0.7701 0.9312 0.1791
C193_2 C 0.76424(19) 0.89910(23) 0.21556(12)
C198_2 C 0.27139(11) 0.96265(21) 0.25110(10)
C199_2 C 0.38201(10) 0.93372(15) 0.05845(6)
H94_2 H 0.3322 0.9002 0.0689
H96_2 H 0.7598 0.9711 0.0465
C201_2 C 0.74853(18) 0.88655(22) 0.24399(12)
H97_2 H 0.7786 0.8915 0.2069
C206_2 C 0.24011(11) 0.95600(19) 0.26877(12)
C207_2 C 0.38263(12) 0.92117(18) 0.02479(12)
C209_2 C 0.75332(22) 0.86073(28) 0.26209(15)
O46_2 O 0.23349(19) 0.97896(31) 0.27583(18)
O47_2 O 0.2302(2) 0.9380(4) 0.29341(16)
O48_2 O 0.40822(17) 0.93808(26) 0.00739(19)
O49_2 O 0.35490(10) 0.90062(13) 0.01177(8)
O52_2 O 0.73910(15) 0.85094(18) 0.28891(11)
O53_2 O 0.77102(14) 0.84928(17) 0.25106(9)
H127_2 H 0.689276 0.90776 0.234846
H128_2 H 0.301388 0.918862 0.204203
H133_2 H 0.437496 0.991573 0.111877
H134_2 H 0.735829 0.907579 0.286599
H135_2 H 0.435392 0.972371 0.0560373
H136_2 H 0.248466 0.907957 0.233538
H67_2 H 0.9994 0.3938 0.2379
C153_2 C 0.98606(10) 0.44229(8) 0.21768(7)
C166_2 C 0.98772(11) 0.44712(9) 0.25054(7)
C167_2 C 0.96777(11) 0.45309(8) 0.19892(5)
C182_2 C 0.97109(11) 0.46276(8) 0.26465(5)
H81_2 H 0.9667 0.4498 0.1767
C183_2 C 0.95115(11) 0.46874(8) 0.21303(7)
C196_2 C 0.95281(10) 0.47357(8) 0.24590(7)
H91_2 H 0.9722 0.4660 0.2868
H92_2 H 0.9388 0.4760 0.2003
C204_2 C 0.93536(18) 0.49108(12) 0.26186(13)
O42_2 O 0.94045(11) 0.49861(8) 0.29074(8)
O43_2 O 0.91522(13) 0.49742(9) 0.24582(8)
O62_2 O 0.90553(12) 0.56004(8) 0.25676(8)
O63_2 O 0.95452(13) 0.57380(8) 0.27888(8)
O66_2 O 0.89077(18) 0.54846(9) 0.32962(8)
O67_2 O 0.92682(18) 0.53102(9) 0.34126(8)
C210_2 C 0.93701(19) 0.58105(12) 0.26087(12)
C211_2 C 0.95289(10) 0.61461(6) 0.24248(7)
C212_2 C 0.93327(11) 0.62122(7) 0.22113(8)
C213_2 C 0.98699(11) 0.63919(8) 0.24781(7)
H98_2 H 0.9103 0.6046 0.2175
C214_2 C 0.94775(11) 0.65242(8) 0.20510(7)
H100_2 H 0.9346 0.6569 0.1906
C216_2 C 0.98185(10) 0.67700(6) 0.21042(7)
C217_2 C 0.99772(10) 0.71121(6) 0.19332(7)
C218_2 C 0.98880(11) 0.71356(6) 0.16203(7)
H102_2 H 0.9724 0.6938 0.1513
C223_2 C 0.99548(17) 0.74766(12) 0.11282(11)
C225_2 C 0.96255(21) 0.72840(14) 0.10127(12)
H105_2 H 0.9454 0.7129 0.1151
C229_2 C 0.95379(26) 0.73089(21) 0.07012(13)
C233_2 C 0.97825(22) 0.75339(18) 0.04941(11)
H108_2 H 0.9311 0.7171 0.0632
C235_2 C 0.96875(25) 0.75653(21) 0.01665(12)
H124_2 H 0.977122 0.330919 0.238943
H126_2 H 0.986312 0.287425 0.265811
C55_3 C 0.30890(12) 0.00370(12) 0.55248(10)
C60_3 C 0.33460(17) 0.0031(2) 0.57033(18)
C61_3 C 0.3051(2) 0.03252(17) 0.5510(2)
C68_3 C 0.3588(2) 0.0328(2) 0.5857(2)
C69_3 C 0.3287(2) 0.0621(2) 0.5670(2)
C76_3 C 0.35793(18) 0.06195(11) 0.58444(10)
H41_3 H 0.2347 0.0012 0.4023
C80_3 C 0.38256(16) 0.09323(11) 0.60211(12)
C87_3 C 0.11543(8) 0.00319(9) 0.28982(9)
C89_3 C 0.08852(10) 0.00998(8) 0.28891(9)
H46_3 H 0.1363 0.0181 0.2797
H48_3 H 0.0912 0.0295 0.2782
C135_3 C 0.0332(2) 0.02739(26) 0.3076(3)
C143_3 C 0.00610(12) 0.03338(16) 0.30273(15)
C152_3 C 0.01208(10) 0.06975(13) 0.30392(10)
C164_3 C 0.04093(9) 0.09465(12) 0.31985(10)
C180_3 C 0.04771(8) 0.12834(13) 0.32076(9)
H78_3 H 0.0558 0.0887 0.3300
C195_3 C 0.02565(10) 0.13714(13) 0.30574(9)
H89_3 H 0.0672 0.1452 0.3316
C203_3 C 0.03406(15) 0.17355(21) 0.30456(13)
O38_3 O 0.06083(10) 0.19608(13) 0.31946(9)
O39_3 O 0.01628(9) 0.18338(13) 0.28972(9)
H114_3 H 0.379241 0.0322203 0.599144
H118_3 H 0.326158 0.084867 0.566871
H121_3 H 0.284141 0.0319454 0.537536
H129_3 H 0.0583665 0.0480161 0.314891
O2_3 O 0.16805(8) 0.77517(8) 0.62408(8)
O3_3 O 0.16924(9) 0.75113(9) 0.57916(8)
O4_3 O 0.10662(8) 0.67882(9) 0.59010(8)
O5_3 O 0.09286(8) 0.71405(10) 0.61222(8)
O6_3 O 0.17083(8) 0.68843(9) 0.60949(8)
O7_3 O 0.19924(8) 0.73049(9) 0.64320(8)
C21_3 C 0.17558(12) 0.77761(13) 0.59520(13)
C22_3 C 0.08561(12) 0.68929(15) 0.59421(12)
C23_3 C 0.19700(13) 0.70627(14) 0.62641(13)
C24_3 C 0.19309(8) 0.81257(6) 0.57924(7)
C25_3 C 0.05205(6) 0.67161(8) 0.57582(7)
C26_3 C 0.22566(6) 0.69807(8) 0.62695(7)
C27_3 C 0.20390(8) 0.84166(8) 0.59799(5)
C28_3 C 0.19792(8) 0.81574(7) 0.54637(7)
C29_3 C 0.04544(7) 0.64538(9) 0.55447(8)
C30_3 C 0.02747(8) 0.68113(7) 0.58115(7)
C31_3 C 0.22076(6) 0.66871(7) 0.61132(7)
C32_3 C 0.25686(8) 0.71975(6) 0.64162(7)
H18_3 H 0.2006 0.8395 0.6202
C33_3 C 0.21954(9) 0.87393(7) 0.58388(7)
C34_3 C 0.21357(8) 0.84801(8) 0.53226(5)
H19_3 H 0.1906 0.7961 0.5337
H20_3 H 0.0620 0.6390 0.5509
C35_3 C 0.01424(8) 0.62866(8) 0.53844(7)
H21_3 H 0.0319 0.6989 0.5956
H22_3 H 0.1996 0.6541 0.6014
C37_3 C 0.24706(7) 0.66103(6) 0.61038(7)
C38_3 C 0.28315(6) 0.71206(7) 0.64068(7)
H23_3 H 0.2601 0.7396 0.6522
H24_3 H 0.2268 0.8936 0.5966
C39_3 C 0.22437(8) 0.87710(6) 0.55102(7)
H25_3 H 0.2168 0.8502 0.5101
H26_3 H 0.0097 0.6110 0.5240
H28_3 H 0.2437 0.6412 0.5998
C41_3 C 0.27826(6) 0.68271(7) 0.62506(7)
H29_3 H 0.3042 0.7268 0.6506
C42_3 C 0.24085(8) 0.91186(6) 0.53490(7)
C44_3 C 0.30669(10) 0.67485(11) 0.62416(10)
C45_3 C 0.26611(8) 0.94075(8) 0.55049(5)
C46_3 C 0.23086(7) 0.91470(6) 0.50418(7)
C49_3 C 0.34109(11) 0.70057(11) 0.62396(10)
H30_3 H 0.2728 0.9389 0.5713
C50_3 C 0.28138(7) 0.97248(6) 0.53537(7)
C51_3 C 0.24614(8) 0.94643(8) 0.48905(5)
H31_3 H 0.2137 0.8952 0.4937
H34_3 H 0.3464 0.7236 0.6237
C54_3 C 0.27140(8) 0.97532(6) 0.50465(7)
C56_3 C 0.23757(10) 0.94898(9) 0.45441(6)
H35_3 H 0.2817 0.9968 0.4944
C62_3 C 0.22392(13) 0.91970(7) 0.43550(9)
C63_3 C 0.24162(9) 0.97944(7) 0.44200(7)
C70_3 C 0.21433(13) 0.92088(8) 0.40419(9)
C71_3 C 0.23203(9) 0.98061(8) 0.41069(8)
H37_3 H 0.2508 0.9993 0.4548
C77_3 C 0.21838(11) 0.95133(10) 0.39179(6)
C81_3 C 0.20521(13) 0.95071(12) 0.35813(12)
O12_3 O 0.1965(2) 0.92512(17) 0.34073(19)
O13_3 O 0.21239(9) 0.97844(10) 0.34511(8)
O16_3 O 0.13524(9) 0.93917(10) 0.31946(9)
O17_3 O 0.16709(9) 0.98372(9) 0.28972(9)
C84_3 C 0.13948(15) 0.96594(15) 0.30456(13)
C85_3 C 0.11148(8) 0.97435(10) 0.30574(9)
C86_3 C 0.08062(10) 0.95229(8) 0.32076(9)
H45_3 H 0.0779 0.9328 0.3316
C88_3 C 0.05371(8) 0.95907(9) 0.31985(10)
H47_3 H 0.0328 0.9442 0.3300
C90_3 C 0.05766(8) 0.98792(10) 0.30392(10)
C91_3 C 0.02727(11) 0.99390(12) 0.30273(15)
C93_3 C 0.29943(11) 0.64053(16) 0.62396(10)
C94_3 C 0.36815(15) 0.69331(10) 0.62416(10)
C95_3 C 0.32515(11) 0.63185(15) 0.62416(10)
H49_3 H 0.2764 0.6229 0.6237
C96_3 C 0.40444(9) 0.72174(6) 0.62506(7)
C97_3 C 0.35947(16) 0.65891(11) 0.62396(10)
C98_3 C 0.31729(7) 0.59556(9) 0.62506(7)
C99_3 C 0.41396(9) 0.75294(7) 0.61038(7)
C100_3 C 0.42890(9) 0.71685(6) 0.64068(7)
H50_3 H 0.3771 0.6536 0.6237
C101_3 C 0.33897(6) 0.58604(9) 0.61038(7)
C102_3 C 0.28794(7) 0.57110(9) 0.64068(7)
C103_3 C 0.44794(9) 0.77924(6) 0.61132(7)
H51_3 H 0.3974 0.7563 0.5998
H52_3 H 0.4225 0.6958 0.6506
C104_3 C 0.46288(10) 0.74314(8) 0.64162(7)
C105_3 C 0.33129(7) 0.55206(9) 0.61132(7)
H53_3 H 0.3588 0.6026 0.5998
H54_3 H 0.2732 0.5775 0.6506
C106_3 C 0.28025(6) 0.53712(10) 0.64162(7)
C107_3 C 0.47240(10) 0.77434(6) 0.62695(7)
H55_3 H 0.4544 0.8004 0.6014
H56_3 H 0.4794 0.7399 0.6522
C108_3 C 0.30193(8) 0.52760(10) 0.62695(7)
H57_3 H 0.3459 0.5456 0.6014
H58_3 H 0.2604 0.5206 0.6522
C109_3 C 0.50926(19) 0.80300(13) 0.62641(13)
C110_3 C 0.29373(14) 0.49074(19) 0.62641(13)
O20_3 O 0.51759(12) 0.82917(8) 0.60949(8)
O21_3 O 0.53124(12) 0.80076(8) 0.64320(8)
O22_3 O 0.31157(9) 0.48241(12) 0.60949(8)
O23_3 O 0.26951(9) 0.46876(12) 0.64320(8)
O30_3 O 0.22483(8) 0.39289(11) 0.62408(8)
O31_3 O 0.24887(9) 0.41812(13) 0.57916(8)
O32_3 O 0.32118(9) 0.42781(12) 0.59010(8)
O33_3 O 0.28595(10) 0.37882(13) 0.61222(8)
C112_3 C 0.22239(13) 0.39798(18) 0.59520(13)
C113_3 C 0.31071(15) 0.39633(19) 0.59421(12)
C115_3 C 0.18743(6) 0.38053(10) 0.57924(7)
C116_3 C 0.32839(8) 0.38045(10) 0.57582(7)
C119_3 C 0.15834(8) 0.36225(11) 0.59799(5)
C120_3 C 0.18426(7) 0.38219(11) 0.54637(7)
C121_3 C 0.35462(9) 0.40007(11) 0.55447(8)
C122_3 C 0.31887(7) 0.34635(11) 0.58115(7)
H59_3 H 0.1605 0.3612 0.6202
C125_3 C 0.12607(7) 0.34562(11) 0.58388(7)
C126_3 C 0.15199(8) 0.36557(11) 0.53226(5)
H60_3 H 0.2039 0.3946 0.5337
H61_3 H 0.3610 0.4231 0.5509
C127_3 C 0.37134(8) 0.38559(11) 0.53844(7)
C128_3 C 0.33558(9) 0.33187(11) 0.56512(7)
H62_3 H 0.3011 0.3331 0.5956
H63_3 H 0.1064 0.3333 0.5966
C130_3 C 0.12290(6) 0.34728(10) 0.55102(7)
H64_3 H 0.1498 0.3667 0.5101
H65_3 H 0.3890 0.3988 0.5240
C131_3 C 0.36182(8) 0.35149(10) 0.54376(7)
H66_3 H 0.3291 0.3088 0.5687
C133_3 C 0.08814(6) 0.32900(10) 0.53490(7)
C134_3 C 0.38016(8) 0.33562(10) 0.52666(7)
C138_3 C 0.05925(8) 0.32537(11) 0.55049(5)
C139_3 C 0.08530(6) 0.31617(9) 0.50418(7)
C140_3 C 0.39143(9) 0.34454(11) 0.49537(7)
C141_3 C 0.38509(8) 0.31132(11) 0.54255(5)
H69_3 H 0.0611 0.3340 0.5713
C146_3 C 0.02752(6) 0.30891(9) 0.53537(7)
C147_3 C 0.05357(8) 0.29972(11) 0.48905(5)
H70_3 H 0.1048 0.3186 0.4937
H71_3 H 0.3881 0.3610 0.4847
C148_3 C 0.40762(8) 0.32915(11) 0.47998(5)
C149_3 C 0.40129(9) 0.29594(11) 0.52716(7)
H72_3 H 0.3774 0.3053 0.5637
C156_3 C 0.02468(6) 0.29609(10) 0.50465(7)
C158_3 C 0.05102(9) 0.28860(13) 0.45441(6)
C159_3 C 0.41255(8) 0.30485(10) 0.49587(7)
C160_3 C 0.41885(12) 0.33786(17) 0.44616(11)
C161_3 C 0.40612(13) 0.26893(18) 0.54448(10)
H74_3 H 0.0032 0.2850 0.4944
C172_3 C 0.08030(7) 0.30423(15) 0.43550(9)
C173_3 C 0.02056(7) 0.26219(11) 0.44200(7)
H75_3 H 0.4235 0.2945 0.4855
C174_3 C 0.43252(16) 0.37079(21) 0.43461(12)
C175_3 C 0.41748(13) 0.31374(18) 0.42550(12)
C176_3 C 0.3829(2) 0.2484(4) 0.5678(2)
C177_3 C 0.42605(16) 0.25658(21) 0.53237(12)
C188_3 C 0.07912(8) 0.29346(15) 0.40419(9)
C189_3 C 0.01939(8) 0.25143(12) 0.41069(8)
H83_3 H 0.0007 0.2516 0.4548
H84_3 H 0.4342 0.3880 0.4485
C190_3 C 0.44377(15) 0.37955(26) 0.40346(13)
H85_3 H 0.4090 0.2912 0.4328
C191_3 C 0.42833(13) 0.32179(23) 0.39371(12)
C192_3 C 0.40130(26) 0.23661(31) 0.5943(2)
H86_3 H 0.4367 0.2646 0.5125
C193_3 C 0.43090(19) 0.23244(23) 0.54890(12)
C199_3 C 0.04867(10) 0.26706(15) 0.39179(6)
C200_3 C 0.44181(12) 0.35509(22) 0.38275(11)
H95_3 H 0.4527 0.4023 0.3966
H96_3 H 0.4264 0.3045 0.3799
C201_3 C 0.41519(18) 0.21989(22) 0.57733(12)
H97_3 H 0.4452 0.2249 0.5403
C207_3 C 0.04929(12) 0.25451(18) 0.35813(12)
C208_3 C 0.45445(13) 0.36459(25) 0.34999(12)
C209_3 C 0.41998(22) 0.19407(28) 0.59543(15)
O48_3 O 0.07488(17) 0.27142(26) 0.34073(19)
O49_3 O 0.02156(10) 0.23396(13) 0.34511(8)
H115_3 H 0.203646 0.897941 0.389371
H116_3 H 0.335747 0.979536 0.572276
H117_3 H 0.220743 0.895837 0.44521
H127_3 H 0.355943 0.241094 0.568179
H132_3 H 0.0204641 0.356211 0.572276
H133_3 H 0.104163 0.324906 0.44521
H134_3 H 0.402495 0.240913 0.619932
H135_3 H 0.102059 0.305705 0.389371
C151_3 C 0.97261(26) 0.00585(16) 0.3076(3)
C165_3 C 0.99002(8) 0.07855(13) 0.28891(9)
H79_3 H 0.9705 0.0618 0.2782
C181_3 C 0.99681(9) 0.11225(12) 0.28982(9)
H90_3 H 0.9819 0.1183 0.2797
C215_3 C 0.66813(11) 0.00372(7) 0.56512(7)
C216_3 C 0.64851(10) 0.01034(6) 0.54376(7)
H101_3 H 0.6912 0.0204 0.5687
C217_3 C 0.66438(10) 0.04455(6) 0.52666(7)
C218_3 C 0.65546(11) 0.04690(6) 0.49537(7)
C219_3 C 0.68868(11) 0.07378(8) 0.54255(5)
H102_3 H 0.6390 0.0272 0.4847
C220_3 C 0.67085(11) 0.07848(8) 0.47998(5)
C221_3 C 0.70406(11) 0.10536(6) 0.52716(7)
H103_3 H 0.6947 0.0722 0.5637
C222_3 C 0.69515(10) 0.10771(6) 0.49587(7)
C223_3 C 0.66214(17) 0.08100(12) 0.44616(11)
C224_3 C 0.73107(18) 0.13720(12) 0.54448(10)
H104_3 H 0.7055 0.1291 0.4855
C225_3 C 0.62921(21) 0.06174(14) 0.43461(12)
C226_3 C 0.68626(18) 0.10375(12) 0.42550(12)
C227_3 C 0.7516(4) 0.1346(3) 0.5678(2)
C228_3 C 0.74342(21) 0.16948(13) 0.53237(12)
H105_3 H 0.6120 0.0463 0.4485
C229_3 C 0.62045(26) 0.06423(21) 0.40346(13)
H106_3 H 0.7088 0.1179 0.4328
C230_3 C 0.67821(23) 0.10655(19) 0.39371(12)
C231_3 C 0.76339(31) 0.16470(17) 0.5943(2)
H107_3 H 0.7354 0.1722 0.5125
C232_3 C 0.76756(23) 0.19847(13) 0.54890(12)
C233_3 C 0.64491(22) 0.08673(18) 0.38275(11)
H108_3 H 0.5977 0.0505 0.3966
H109_3 H 0.6955 0.1220 0.3799
C234_3 C 0.78011(22) 0.19531(12) 0.57733(12)
H110_3 H 0.7751 0.2204 0.5403
C235_3 C 0.63541(25) 0.08987(21) 0.34999(12)
C236_3 C 0.80593(28) 0.22592(17) 0.59543(15)
H131_3 H 0.951984 0.0103503 0.314891
H139_3 H 0.758906 0.114849 0.568179
H140_3 H 0.759087 0.161583 0.619932
C36_3 C 0.99628(7) 0.66442(9) 0.56512(7)
C40_3 C 0.98966(6) 0.63818(8) 0.54376(7)
H27_3 H 0.9796 0.6709 0.5687
C43_3 C 0.95545(6) 0.61984(8) 0.52666(7)
C47_3 C 0.95310(6) 0.60857(9) 0.49537(7)
C48_3 C 0.92622(8) 0.61491(8) 0.54255(5)
H32_3 H 0.9728 0.6119 0.4847
C52_3 C 0.92152(8) 0.59238(8) 0.47998(5)
C53_3 C 0.89464(6) 0.59871(9) 0.52716(7)
H33_3 H 0.9278 0.6226 0.5637
C57_3 C 0.89229(6) 0.58745(8) 0.49587(7)
C58_3 C 0.91900(12) 0.58115(12) 0.44616(11)
C59_3 C 0.86280(12) 0.59388(13) 0.54448(10)
H36_3 H 0.8709 0.5765 0.4855
C64_3 C 0.93826(14) 0.56748(16) 0.43461(12)
C65_3 C 0.89625(12) 0.58252(13) 0.42550(12)
C66_3 C 0.8654(3) 0.6171(2) 0.5678(2)
C67_3 C 0.83052(13) 0.57395(16) 0.53237(12)
H38_3 H 0.9537 0.5658 0.4485
C72_3 C 0.93577(21) 0.55623(15) 0.40346(13)
H39_3 H 0.8821 0.5910 0.4328
C73_3 C 0.89345(19) 0.57167(13) 0.39371(12)
C74_3 C 0.83530(17) 0.59870(26) 0.5943(2)
H40_3 H 0.8278 0.5633 0.5125
C75_3 C 0.80153(13) 0.56910(19) 0.54890(12)
C78_3 C 0.91327(18) 0.55819(12) 0.38275(11)
H42_3 H 0.9495 0.5473 0.3966
H43_3 H 0.8780 0.5736 0.3799
C79_3 C 0.80469(12) 0.58481(18) 0.57733(12)
H44_3 H 0.7796 0.5548 0.5403
C82_3 C 0.91013(21) 0.54555(13) 0.34999(12)
C83_3 C 0.77408(17) 0.58002(22) 0.59543(15)
C92_3 C 0.99415(16) 0.9668(2) 0.3076(3)
C111_3 C 0.71066(19) 0.61744(16) 0.60211(12)
C114_3 C 0.70401(21) 0.64207(18) 0.58444(10)
C117_3 C 0.7333(3) 0.6713(2) 0.5670(2)
C118_3 C 0.6739(3) 0.6412(2) 0.5857(2)
C123_3 C 0.72738(26) 0.6949(2) 0.5510(2)
C124_3 C 0.66846(26) 0.66540(17) 0.57033(18)
C129_3 C 0.69479(17) 0.69110(12) 0.55248(10)
C132_3 C 0.69109(9) 0.71862(7) 0.53537(7)
C136_3 C 0.67463(11) 0.73389(8) 0.55049(5)
C137_3 C 0.70391(10) 0.72860(8) 0.50465(7)
C142_3 C 0.96662(16) 0.97273(11) 0.30273(15)
C144_3 C 0.67100(10) 0.75915(8) 0.53490(7)
H67_3 H 0.6660 0.7272 0.5713
H68_3 H 0.7150 0.7183 0.4944
C145_3 C 0.70028(11) 0.75386(8) 0.48905(5)
C150_3 C 0.93025(13) 0.94234(8) 0.30392(10)
C153_3 C 0.65272(10) 0.77563(8) 0.55102(7)
C154_3 C 0.68383(9) 0.76914(7) 0.50418(7)
C155_3 C 0.71140(13) 0.76243(10) 0.45441(6)
C157_3 C 0.99630(12) 0.30521(17) 0.55248(10)
C162_3 C 0.90535(12) 0.94629(8) 0.31985(10)
C163_3 C 0.92145(13) 0.91148(10) 0.28891(9)
C166_3 C 0.65438(11) 0.78046(9) 0.58388(7)
C167_3 C 0.63443(11) 0.78643(8) 0.53226(5)
H73_3 H 0.6814 0.7863 0.4937
C168_3 C 0.69577(15) 0.77608(13) 0.43550(9)
C169_3 C 0.73781(11) 0.75838(9) 0.44200(7)
C170_3 C 0.9969(2) 0.33154(26) 0.57033(18)
C171_3 C 0.96748(17) 0.27262(26) 0.5510(2)
C178_3 C 0.87166(13) 0.91938(10) 0.32076(9)
H76_3 H 0.9113 0.9672 0.3300
H77_3 H 0.9382 0.9088 0.2782
C179_3 C 0.88775(12) 0.88457(8) 0.28982(9)
C182_3 C 0.63775(11) 0.79610(8) 0.59799(5)
H80_3 H 0.6667 0.7732 0.5966
H81_3 H 0.6333 0.7832 0.5101
C183_3 C 0.61781(11) 0.80208(8) 0.54637(7)
C184_3 C 0.70654(15) 0.78567(13) 0.40419(9)
C185_3 C 0.74857(12) 0.76797(9) 0.41069(8)
H82_3 H 0.7484 0.7492 0.4548
C186_3 C 0.9672(2) 0.3261(3) 0.5857(2)
C187_3 C 0.9379(2) 0.2667(3) 0.5670(2)
C194_3 C 0.86286(13) 0.88852(8) 0.30574(9)
H87_3 H 0.8548 0.9221 0.3316
H88_3 H 0.8817 0.8637 0.2797
C196_3 C 0.61947(10) 0.80691(8) 0.57924(7)
H91_3 H 0.6388 0.7994 0.6202
H92_3 H 0.6054 0.8094 0.5337
C197_3 C 0.73294(15) 0.78162(11) 0.39179(6)
H93_3 H 0.7664 0.7653 0.4023
C198_3 C 0.93805(11) 0.29599(21) 0.58444(10)
H94_3 H 0.9988 0.2336 0.4023
C202_3 C 0.82645(21) 0.86052(15) 0.30456(13)
C204_3 C 0.60202(18) 0.82442(12) 0.59520(13)
C205_3 C 0.74549(18) 0.79479(13) 0.35813(12)
C206_3 C 0.90677(11) 0.28934(19) 0.60211(12)
O36_3 O 0.80392(13) 0.86476(9) 0.31946(9)
O37_3 O 0.81662(13) 0.83291(9) 0.28972(9)
O42_3 O 0.60711(11) 0.83195(8) 0.62408(8)
O43_3 O 0.58188(13) 0.83076(9) 0.57916(8)
O44_3 O 0.72858(26) 0.8035(2) 0.34073(19)
O45_3 O 0.76604(13) 0.78761(9) 0.34511(8)
O62_3 O 0.57219(12) 0.89338(8) 0.59010(8)
O63_3 O 0.62118(13) 0.90714(8) 0.61222(8)
C210_3 C 0.60367(19) 0.91439(12) 0.59421(12)
C211_3 C 0.61955(10) 0.94795(6) 0.57582(7)
C212_3 C 0.59993(11) 0.95456(7) 0.55447(8)
C213_3 C 0.65365(11) 0.97253(8) 0.58115(7)
H98_3 H 0.5769 0.9380 0.5509
C214_3 C 0.61441(11) 0.98576(8) 0.53844(7)
H99_3 H 0.6669 0.9681 0.5956
H100_3 H 0.6012 0.9903 0.5240
H119_3 H 0.838417 0.597505 0.619932
H120_3 H 0.885151 0.644057 0.568179
H122_3 H 0.98965 0.941634 0.314891
H123_3 H 0.747805 0.715859 0.537536
H124_3 H 0.643789 0.664253 0.572276
H125_3 H 0.758709 0.673842 0.566871
H126_3 H 0.652979 0.620759 0.599144
H128_3 H 0.968055 0.252195 0.537536
H130_3 H 0.675094 0.779257 0.44521
H136_3 H 0.915133 0.241291 0.566871
H137_3 H 0.96778 0.347021 0.599144
H138_3 H 0.694295 0.796354 0.389371
C29_4 C 0.28789(7) 0.02129(9) 0.11220(8)
H20_4 H 0.2713 0.0277 0.1158
C35_4 C 0.31909(8) 0.03801(8) 0.12823(7)
C36_4 C 0.33705(7) 0.00225(9) 0.10155(7)
H22_4 H 0.1337 0.0126 0.0653
C37_4 C 0.08627(7) 0.00564(6) 0.05629(7)
H26_4 H 0.3236 0.0557 0.1427
C40_4 C 0.34367(6) 0.02849(8) 0.12291(7)
H28_4 H 0.0896 0.0255 0.0669
C43_4 C 0.37788(6) 0.04683(8) 0.14001(7)
C47_4 C 0.38023(6) 0.05810(9) 0.17130(7)
C48_4 C 0.40711(8) 0.05176(8) 0.12412(5)
H32_4 H 0.3605 0.0548 0.1820
C52_4 C 0.41181(8) 0.07429(8) 0.18669(5)
C53_4 C 0.43869(6) 0.06796(9) 0.13951(7)
H33_4 H 0.4055 0.0441 0.1030
C57_4 C 0.44104(6) 0.07922(8) 0.17080(7)
C58_4 C 0.41433(12) 0.08552(12) 0.22051(11)
C59_4 C 0.47053(12) 0.07279(13) 0.12219(10)
H36_4 H 0.4624 0.0902 0.1812
C64_4 C 0.39507(14) 0.09919(16) 0.23206(12)
C65_4 C 0.43708(12) 0.08415(13) 0.24117(12)
C66_4 C 0.4679(3) 0.0496(2) 0.0989(2)
C67_4 C 0.50281(13) 0.09272(16) 0.13430(12)
H38_4 H 0.3796 0.1009 0.2182
C72_4 C 0.39756(21) 0.11044(15) 0.26321(13)
H39_4 H 0.4512 0.0757 0.2339
C73_4 C 0.43988(19) 0.09500(13) 0.27296(12)
C74_4 C 0.49803(17) 0.06797(26) 0.0724(2)
H40_4 H 0.5055 0.1034 0.1542
C75_4 C 0.53180(13) 0.09757(19) 0.11777(12)
C78_4 C 0.42006(18) 0.10848(12) 0.28392(11)
H42_4 H 0.3838 0.1194 0.2701
H43_4 H 0.4553 0.0931 0.2868
C79_4 C 0.52864(12) 0.08186(18) 0.08934(12)
H44_4 H 0.5537 0.1119 0.1264
C82_4 C 0.42320(21) 0.12112(13) 0.31668(12)
C83_4 C 0.55925(17) 0.08665(22) 0.07124(15)
O14_3 O 0.55482(10) 0.07243(15) 0.04442(11)
O15_3 O 0.58840(10) 0.10435(14) 0.08227(9)
C93_4 C 0.03390(11) 0.02614(16) 0.04271(10)
C95_4 C 0.00818(11) 0.03482(15) 0.04251(10)
H49_4 H 0.0569 0.0438 0.0430
C98_4 C 0.01604(7) 0.07111(9) 0.04161(7)
C102_4 C 0.04539(7) 0.09557(9) 0.02599(7)
C105_4 C 0.00204(7) 0.11461(9) 0.05535(7)
H54_4 H 0.0601 0.0892 0.0161
C106_4 C 0.05308(6) 0.12955(10) 0.02505(7)
C108_4 C 0.03140(8) 0.13907(10) 0.03972(7)
H58_4 H 0.0729 0.1461 0.0145
C110_4 C 0.03960(14) 0.17593(19) 0.04026(13)
O18_2 O 0.44257(18) 0.11820(9) 0.33704(8)
O19_2 O 0.40652(18) 0.13564(9) 0.32540(8)
O22_4 O 0.02176(9) 0.18426(12) 0.05718(8)
O23_4 O 0.06382(9) 0.19791(12) 0.02347(8)
In4_2 In 0.42713(3) 0.14487(2) 0.37557(2)
In5_3 In 0.61069(4) 0.09395(3) 0.03471(2)
In7_3 In 0.05108(2) 0.23954(3) 0.04224(2)
O28_3 O 0.64563(31) 0.07881(25) 0.05750(18)
O29_3 O 0.6047(4) 0.0412(3) 0.03992(16)
O30_4 O 0.10850(8) 0.27378(11) 0.04259(8)
O31_4 O 0.08446(9) 0.24855(13) 0.08751(8)
O32_4 O 0.01215(9) 0.23886(12) 0.07657(8)
O33_4 O 0.04738(10) 0.28785(13) 0.05445(8)
O34_3 O 0.00897(16) 0.22410(18) 0.00371(8)
C111_4 C 0.62267(19) 0.04923(16) 0.06456(12)
C112_4 C 0.11094(13) 0.26869(18) 0.07147(13)
C113_4 C 0.02262(15) 0.27034(19) 0.07246(12)
C114_4 C 0.62932(21) 0.02460(18) 0.08223(10)
C115_4 C 0.14590(6) 0.28614(10) 0.08743(7)
C116_4 C 0.00494(8) 0.28622(10) 0.09085(7)
C118_4 C 0.6594(3) 0.0255(2) 0.0810(2)
C119_4 C 0.17499(8) 0.30442(11) 0.06868(5)
C120_4 C 0.14907(7) 0.28448(11) 0.12030(7)
C122_4 C 0.01446(7) 0.32032(11) 0.08552(7)
C124_4 C 0.66487(26) 0.00127(17) 0.09634(18)
H59_4 H 0.1728 0.3055 0.0465
C125_4 C 0.20726(7) 0.32105(11) 0.08279(7)
C126_4 C 0.18134(8) 0.30110(11) 0.13441(5)
H60_4 H 0.1294 0.2721 0.1330
H62_4 H 0.0322 0.3336 0.0711
H63_4 H 0.2269 0.3334 0.0701
C130_4 C 0.21043(6) 0.31939(10) 0.11565(7)
H64_4 H 0.1835 0.3000 0.1566
H66_4 H 0.0042 0.3579 0.0980
C133_4 C 0.24519(6) 0.33767(10) 0.13177(7)
C138_4 C 0.27408(8) 0.34130(11) 0.11618(5)
C139_4 C 0.24803(6) 0.35050(9) 0.16249(7)
H69_4 H 0.2722 0.3327 0.0954
C146_4 C 0.30581(6) 0.35776(9) 0.13130(7)
C147_4 C 0.27976(8) 0.36695(11) 0.17762(5)
H70_4 H 0.2285 0.3481 0.1730
C156_4 C 0.30865(6) 0.37058(10) 0.16202(7)
C157_4 C 0.33703(12) 0.36146(17) 0.11419(10)
C158_4 C 0.28231(9) 0.37807(13) 0.21226(6)
H74_4 H 0.3301 0.3817 0.1723
C170_4 C 0.3364(2) 0.33513(26) 0.09634(18)
C171_4 C 0.36585(17) 0.39405(26) 0.1157(2)
C172_4 C 0.25303(7) 0.36244(15) 0.23117(9)
C173_4 C 0.31277(7) 0.40448(11) 0.22467(7)
C186_4 C 0.3661(2) 0.3406(3) 0.0810(2)
C187_4 C 0.3954(2) 0.4000(3) 0.0997(2)
C188_4 C 0.25421(8) 0.37321(15) 0.26248(9)
C189_4 C 0.31394(8) 0.41524(12) 0.25598(8)
H83_4 H 0.3326 0.4151 0.2119
C198_4 C 0.39528(11) 0.37068(21) 0.08223(10)
C199_4 C 0.28466(10) 0.39961(15) 0.27488(6)
H94_4 H 0.3345 0.4331 0.2644
C206_4 C 0.42656(11) 0.37733(19) 0.06456(12)
C207_4 C 0.28404(12) 0.41216(18) 0.30854(12)
O40_2 O 0.31230(31) 0.41214(25) 0.39083(18)
O41_2 O 0.2714(4) 0.3745(3) 0.37325(16)
O46_3 O 0.43318(19) 0.35437(31) 0.05750(18)
O47_3 O 0.4365(2) 0.3953(4) 0.03992(16)
O48_4 O 0.25845(17) 0.39525(26) 0.32594(19)
O49_4 O 0.31177(10) 0.43271(13) 0.32156(8)
In10 In 0.27736(4) 0.42728(3) 0.36804(2)
In12 In 0.48326(2) 0.38931(4) 0.03471(2)
O58 O 0.27250(10) 0.47059(13) 0.34721(9)
O59 O 0.31705(9) 0.48329(13) 0.37695(9)
O60_2 O 0.22149(10) 0.40576(15) 0.37775(11)
O61_2 O 0.25507(10) 0.43768(14) 0.41560(9)
H119_4 H 0.494916 0.0691621 0.0467346
H120_4 H 0.448183 0.0226097 0.0984875
H124_4 H 0.689545 0.00241399 0.0943902
H126_4 H 0.680354 0.0459079 0.0675225
H128_4 H 0.365279 0.414471 0.12913
H132_4 H 0.312869 0.310455 0.0943902
H133_4 H 0.229171 0.341761 0.221456
H135_4 H 0.231274 0.360962 0.277296
H136_4 H 0.4182 0.425376 0.0997955
H137_4 H 0.365554 0.319646 0.0675225
O35_3 O 0.06246(16) 0.26015(18) 0.99207(8)
In1_3 In 0.18846(2) 0.94892(2) 0.04224(2)
O2_4 O 0.16528(8) 0.89150(8) 0.04259(8)
O3_4 O 0.16409(9) 0.91554(9) 0.08751(8)
O4_4 O 0.22671(8) 0.98785(9) 0.07657(8)
O5_4 O 0.24047(8) 0.95262(10) 0.05445(8)
O6_4 O 0.16250(8) 0.97824(9) 0.05718(8)
O7_4 O 0.13409(8) 0.93618(9) 0.02347(8)
O8_3 O 0.21513(9) 0.99103(16) 0.00371(8)
C21_4 C 0.15775(12) 0.88906(13) 0.07147(13)
C22_4 C 0.24772(12) 0.97738(15) 0.07246(12)
C23_4 C 0.13633(13) 0.96040(14) 0.04026(13)
C24_4 C 0.14024(8) 0.85410(6) 0.08743(7)
C25_4 C 0.28128(6) 0.99506(8) 0.09085(7)
C26_4 C 0.10767(6) 0.96860(8) 0.03972(7)
C27_4 C 0.12943(8) 0.82501(8) 0.06868(5)
C28_4 C 0.13541(8) 0.85093(7) 0.12030(7)
C30_4 C 0.30586(8) 0.98554(7) 0.08552(7)
C31_4 C 0.11257(6) 0.99796(7) 0.05535(7)
C32_4 C 0.07647(8) 0.94692(6) 0.02505(7)
H18_4 H 0.1327 0.8272 0.0465
C33_4 C 0.11379(9) 0.79274(7) 0.08279(7)
C34_4 C 0.11976(8) 0.81866(8) 0.13441(5)
H19_4 H 0.1427 0.8706 0.1330
H21_4 H 0.3014 0.9678 0.0711
C38_4 C 0.05018(6) 0.95461(7) 0.02599(7)
H23_4 H 0.0732 0.9271 0.0145
H24_4 H 0.1065 0.7731 0.0701
C39_4 C 0.10896(8) 0.78957(6) 0.11565(7)
H25_4 H 0.1165 0.8165 0.1566
H27_4 H 0.3537 0.9958 0.0980
C41_4 C 0.05507(6) 0.98396(7) 0.04161(7)
H29_4 H 0.0291 0.9399 0.0161
C42_4 C 0.09248(8) 0.75481(6) 0.13177(7)
C44_4 C 0.02664(10) 0.99182(11) 0.04251(10)
C45_4 C 0.06722(8) 0.72592(8) 0.11618(5)
C46_4 C 0.10247(7) 0.75197(6) 0.16249(7)
H30_4 H 0.0605 0.7278 0.0954
C50_4 C 0.05195(7) 0.69419(6) 0.13130(7)
C51_4 C 0.08719(8) 0.72024(8) 0.17762(5)
H31_4 H 0.1196 0.7715 0.1730
C54_4 C 0.06193(8) 0.69135(6) 0.16202(7)
C55_4 C 0.02443(12) 0.66297(12) 0.11419(10)
C56_4 C 0.09576(10) 0.71769(9) 0.21226(6)
H35_4 H 0.0516 0.6699 0.1723
C61_4 C 0.0282(2) 0.63415(17) 0.1157(2)
C62_4 C 0.10941(13) 0.74697(7) 0.23117(9)
C63_4 C 0.09171(9) 0.68723(7) 0.22467(7)
C69_4 C 0.0046(2) 0.6046(2) 0.0997(2)
C70_4 C 0.11900(13) 0.74579(8) 0.26248(9)
C71_4 C 0.10130(9) 0.68606(8) 0.25598(8)
H37_4 H 0.0825 0.6674 0.2119
C77_4 C 0.11495(11) 0.71534(10) 0.27488(6)
H41_4 H 0.0986 0.6655 0.2644
C81_4 C 0.12812(13) 0.71596(12) 0.30854(12)
O12_4 O 0.1368(2) 0.74155(17) 0.32594(19)
O13_4 O 0.12094(9) 0.68823(10) 0.32156(8)
O16_4 O 0.19809(9) 0.72750(10) 0.34721(9)
O17_4 O 0.16624(9) 0.68295(9) 0.37695(9)
C84_4 C 0.19385(15) 0.70073(15) 0.36211(13)
C85_4 C 0.22185(8) 0.69232(10) 0.36093(9)
C86_4 C 0.25271(10) 0.71438(8) 0.34591(9)
C87_4 C 0.21790(8) 0.66348(9) 0.37685(9)
H45_4 H 0.2554 0.7339 0.3351
C88_4 C 0.27962(8) 0.70760(9) 0.34682(10)
C89_4 C 0.24481(10) 0.65669(8) 0.37776(9)
H46_4 H 0.1970 0.6486 0.3870
H47_4 H 0.3005 0.7225 0.3367
C90_4 C 0.27567(8) 0.67875(10) 0.36275(10)
H48_4 H 0.2421 0.6372 0.3885
C91_4 C 0.30606(11) 0.67277(12) 0.36394(15)
C92_4 C 0.33918(16) 0.6999(2) 0.3591(3)
In3_2 In 0.14993(2) 0.72264(4) 0.36804(2)
O24_2 O 0.18428(18) 0.77851(10) 0.37775(11)
O25_2 O 0.18262(17) 0.74493(10) 0.41560(9)
O26_2 O 0.09985(19) 0.68770(31) 0.39083(18)
O27_2 O 0.1032(2) 0.7286(4) 0.37325(16)
C117_4 C 0.6000(3) 0.9954(2) 0.0997(2)
C123_4 C 0.60595(26) 0.9718(2) 0.1157(2)
C129_4 C 0.63854(17) 0.97557(12) 0.11419(10)
C132_4 C 0.64224(9) 0.94805(7) 0.13130(7)
C135_4 C 0.3001(2) 0.63928(26) 0.3591(3)
C136_4 C 0.65870(11) 0.93278(8) 0.11618(5)
C137_4 C 0.62942(10) 0.93807(8) 0.16202(7)
C142_4 C 0.36671(16) 0.69394(11) 0.36394(15)
C143_4 C 0.32723(12) 0.63329(16) 0.36394(15)
C144_4 C 0.66233(10) 0.90752(8) 0.13177(7)
H67_4 H 0.6673 0.9395 0.0954
H68_4 H 0.6183 0.9484 0.1723
C145_4 C 0.63305(11) 0.91281(8) 0.17762(5)
C150_4 C 0.40308(13) 0.72433(8) 0.36275(10)
C151_4 C 0.36072(26) 0.66082(16) 0.3591(3)
C152_4 C 0.32125(10) 0.59692(13) 0.36275(10)
C153_4 C 0.68061(10) 0.89104(8) 0.11565(7)
C154_4 C 0.64950(9) 0.89753(7) 0.16249(7)
C155_4 C 0.62193(13) 0.90424(10) 0.21226(6)
C162_4 C 0.42798(12) 0.72038(8) 0.34682(10)
C163_4 C 0.41188(13) 0.75519(10) 0.37776(9)
C164_4 C 0.29240(9) 0.57202(12) 0.34682(10)
C165_4 C 0.34331(8) 0.58812(13) 0.37776(9)
C166_4 C 0.67895(11) 0.88621(9) 0.08279(7)
C167_4 C 0.69890(11) 0.88024(8) 0.13441(5)
H73_4 H 0.6519 0.8804 0.1730
C168_4 C 0.63756(15) 0.89059(13) 0.23117(9)
C169_4 C 0.59552(11) 0.90829(9) 0.22467(7)
C178_4 C 0.46167(13) 0.74729(10) 0.34591(9)
H76_4 H 0.4220 0.6995 0.3367
H77_4 H 0.3951 0.7579 0.3885
C179_4 C 0.44558(12) 0.78210(8) 0.37685(9)
C180_4 C 0.28562(8) 0.53833(13) 0.34591(9)
H78_4 H 0.2775 0.5780 0.3367
H79_4 H 0.3628 0.6049 0.3885
C181_4 C 0.33652(9) 0.55442(12) 0.37685(9)
C182_4 C 0.69558(11) 0.87057(8) 0.06868(5)
H80_4 H 0.6666 0.8935 0.0701
H81_4 H 0.7000 0.8835 0.1566
C183_4 C 0.71552(11) 0.86459(8) 0.12030(7)
C184_4 C 0.62679(15) 0.88100(13) 0.26248(9)
C185_4 C 0.58476(12) 0.89870(9) 0.25598(8)
H82_4 H 0.5849 0.9175 0.2119
C194_4 C 0.47047(13) 0.77815(8) 0.36093(9)
H87_4 H 0.4785 0.7446 0.3351
H88_4 H 0.4516 0.8030 0.3870
C195_4 C 0.30768(10) 0.52953(13) 0.36093(9)
H89_4 H 0.2661 0.5215 0.3351
H90_4 H 0.3514 0.5484 0.3870
C196_4 C 0.71386(10) 0.85976(8) 0.08743(7)
H91_4 H 0.6945 0.8673 0.0465
H92_4 H 0.7279 0.8573 0.1330
C197_4 C 0.60039(15) 0.88505(11) 0.27488(6)
H93_4 H 0.5669 0.9014 0.2644
C202_4 C 0.50688(21) 0.80615(15) 0.36211(13)
C203_4 C 0.29927(15) 0.49312(21) 0.36211(13)
C204_4 C 0.73131(18) 0.84225(12) 0.07147(13)
C205_4 C 0.58784(18) 0.87188(13) 0.30854(12)
O36_4 O 0.52941(13) 0.80191(9) 0.34721(9)
O37_4 O 0.51671(13) 0.83376(9) 0.37695(9)
O42_4 O 0.72622(11) 0.83472(8) 0.04259(8)
O43_4 O 0.75145(13) 0.83591(9) 0.08751(8)
O44_4 O 0.60475(26) 0.8632(2) 0.32594(19)
O45_4 O 0.56729(13) 0.87906(9) 0.32156(8)
In8_2 In 0.57272(3) 0.85007(2) 0.36804(2)
In11 In 0.76046(3) 0.81154(2) 0.04224(2)
O54_2 O 0.59424(15) 0.81572(18) 0.37775(11)
O55_2 O 0.56232(14) 0.81738(17) 0.41560(9)
O56_2 O 0.58786(25) 0.90015(19) 0.39083(18)
O57_2 O 0.6255(3) 0.8968(2) 0.37325(16)
O62_4 O 0.76114(12) 0.77329(8) 0.07657(8)
O63_4 O 0.71215(13) 0.75953(8) 0.05445(8)
O64 O 0.81574(12) 0.83750(8) 0.05718(8)
O65 O 0.80209(12) 0.86591(8) 0.02347(8)
O66_3 O 0.77590(18) 0.78487(9) 0.00371(8)
C210_4 C 0.72966(19) 0.75228(12) 0.07246(12)
C211_4 C 0.71378(10) 0.71872(6) 0.09085(7)
C212_4 C 0.73340(11) 0.71211(7) 0.11220(8)
C213_4 C 0.67968(11) 0.69414(8) 0.08552(7)
H98_4 H 0.7564 0.7287 0.1158
C214_4 C 0.71892(11) 0.68091(8) 0.12823(7)
C215_4 C 0.66520(11) 0.66295(7) 0.10155(7)
H99_4 H 0.6664 0.6986 0.0711
H100_4 H 0.7321 0.6764 0.1427
C216_4 C 0.68482(10) 0.65633(6) 0.12291(7)
H101_4 H 0.6421 0.6463 0.0980
C217_4 C 0.66895(10) 0.62212(6) 0.14001(7)
C218_4 C 0.67787(11) 0.61977(6) 0.17130(7)
C219_4 C 0.64465(11) 0.59289(8) 0.12412(5)
H102_4 H 0.6943 0.6395 0.1820
C220_4 C 0.66248(11) 0.58819(8) 0.18669(5)
C221_4 C 0.62927(11) 0.56131(6) 0.13951(7)
H103_4 H 0.6386 0.5945 0.1030
C222_4 C 0.63818(10) 0.55896(6) 0.17080(7)
C223_4 C 0.67119(17) 0.58567(12) 0.22051(11)
C224_4 C 0.60226(18) 0.52947(12) 0.12219(10)
H104_4 H 0.6278 0.5376 0.1812
C225_4 C 0.70412(21) 0.60493(14) 0.23206(12)
C226_4 C 0.64707(18) 0.56292(12) 0.24117(12)
C227_4 C 0.5817(4) 0.5321(3) 0.0989(2)
C228_4 C 0.58991(21) 0.49719(13) 0.13430(12)
H105_4 H 0.7213 0.6204 0.2182
C229_4 C 0.71288(26) 0.60244(21) 0.26321(13)
H106_4 H 0.6245 0.5488 0.2339
C230_4 C 0.65512(23) 0.56012(19) 0.27296(12)
C231_4 C 0.56994(31) 0.50197(17) 0.0724(2)
H107_4 H 0.5979 0.4945 0.1542
C232_4 C 0.56577(23) 0.46820(13) 0.11777(12)
C233_4 C 0.68842(22) 0.57994(18) 0.28392(11)
H108_4 H 0.7356 0.6162 0.2701
H109_4 H 0.6378 0.5447 0.2868
C234_4 C 0.55322(22) 0.47136(12) 0.08934(12)
H110_4 H 0.5582 0.4463 0.1264
C235_4 C 0.69792(25) 0.57680(21) 0.31668(12)
C236_4 C 0.52740(28) 0.44075(17) 0.07124(15)
O68_2 O 0.67564(16) 0.55743(18) 0.33704(8)
O69_2 O 0.72913(16) 0.59348(18) 0.32540(8)
O70_3 O 0.51761(18) 0.44518(10) 0.04442(11)
O71_3 O 0.51595(17) 0.41160(10) 0.08227(9)
In15_2 In 0.71775(2) 0.57287(3) 0.37557(2)
H115_4 H 0.129688 0.768726 0.277296
H117_4 H 0.11259 0.770829 0.221456
H118_4 H 0.00717556 0.5818 0.0997955
H121_4 H 0.0491927 0.634721 0.12913
H122_4 H 0.343684 0.725033 0.351776
H123_4 H 0.585529 0.950807 0.12913
H125_4 H 0.574624 0.992824 0.0997955
H129_4 H 0.274967 0.618651 0.351776
H130_4 H 0.658239 0.88741 0.221456
H131_4 H 0.381349 0.656316 0.351776
H138_4 H 0.639038 0.870312 0.277296
H139_4 H 0.574427 0.551817 0.0984875
H140_4 H 0.574246 0.505084 0.0467346
O9_3 O 0.19769(9) 0.93754(16) 0.99207(8)
O67_3 O 0.73985(18) 0.80231(9) 0.99207(8)
C97_4 C 0.97386(16) 0.00776(11) 0.04271(10)
H50_4 H 0.9562 0.0131 0.0430
C101_4 C 0.99436(6) 0.08063(9) 0.05629(7)
H53_4 H 0.9745 0.0641 0.0669
H57_4 H 0.9874 0.1211 0.0653
C121_4 C 0.97871(9) 0.26660(11) 0.11220(8)
H61_4 H 0.9723 0.2436 0.1158
C127_4 C 0.96199(8) 0.28108(11) 0.12823(7)
C128_4 C 0.99775(9) 0.33480(11) 0.10155(7)
H65_4 H 0.9443 0.2679 0.1427
C131_4 C 0.97151(8) 0.31518(10) 0.12291(7)
C134_4 C 0.95317(8) 0.33105(10) 0.14001(7)
C140_4 C 0.94190(9) 0.32213(11) 0.17130(7)
C141_4 C 0.94824(8) 0.35535(11) 0.12412(5)
H71_4 H 0.9452 0.3057 0.1820
C148_4 C 0.92571(8) 0.33752(11) 0.18669(5)
C149_4 C 0.93204(9) 0.37073(11) 0.13951(7)
H72_4 H 0.9559 0.3614 0.1030
C159_4 C 0.92078(8) 0.36182(10) 0.17080(7)
C160_4 C 0.91448(12) 0.32881(17) 0.22051(11)
C161_4 C 0.92721(13) 0.39774(18) 0.12219(10)
H75_4 H 0.9098 0.3722 0.1812
C174_4 C 0.90081(16) 0.29588(21) 0.23206(12)
C175_4 C 0.91585(13) 0.35293(18) 0.24117(12)
C176_4 C 0.9504(2) 0.4183(4) 0.0989(2)
C177_4 C 0.90728(16) 0.41009(21) 0.13430(12)
H84_4 H 0.8991 0.2787 0.2182
C190_4 C 0.88956(15) 0.28712(26) 0.26321(13)
H85_4 H 0.9243 0.3755 0.2339
C191_4 C 0.90500(13) 0.34488(23) 0.27296(12)
C192_4 C 0.93203(26) 0.43006(31) 0.0724(2)
H86_4 H 0.8966 0.4021 0.1542
C193_4 C 0.90243(19) 0.43423(23) 0.11777(12)
C200_4 C 0.89152(12) 0.31158(22) 0.28392(11)
H95_4 H 0.8806 0.2644 0.2701
H96_4 H 0.9069 0.3622 0.2868
C201_4 C 0.91814(18) 0.44678(22) 0.08934(12)
H97_4 H 0.8881 0.4418 0.1264
C208_4 C 0.87888(13) 0.30208(25) 0.31668(12)
C209_4 C 0.91335(22) 0.47260(28) 0.07124(15)
O50_2 O 0.88180(9) 0.32436(16) 0.33704(8)
O51_2 O 0.86436(9) 0.27087(16) 0.32540(8)
O52_3 O 0.92757(15) 0.48239(18) 0.04442(11)
O53_3 O 0.89565(14) 0.48405(17) 0.08227(9)
In13_2 In 0.85513(2) 0.28225(2) 0.37557(2)
In14 In 0.90605(3) 0.51674(2) 0.03471(2)
H127_4 H 0.97739 0.425573 0.0984875
H134_4 H 0.930838 0.425754 0.0467346
C49_4 C 0.99224(11) 0.96610(11) 0.04271(10)
H34_4 H 0.9869 0.9431 0.0430
C60_4 C 0.99873(17) 0.6636(2) 0.09634(18)
C68_4 C 0.9745(2) 0.6339(2) 0.0810(2)
C76_4 C 0.97540(18) 0.60472(11) 0.08223(10)
C80_4 C 0.95077(16) 0.57344(11) 0.06456(12)
O10_3 O 0.92119(25) 0.56682(19) 0.05750(18)
O11_3 O 0.9588(3) 0.5635(2) 0.03992(16)
C94_4 C 0.96518(15) 0.97336(10) 0.04251(10)
C96_4 C 0.92889(9) 0.94493(6) 0.04161(7)
C99_4 C 0.91937(9) 0.91373(7) 0.05629(7)
C100_4 C 0.90443(9) 0.94982(6) 0.02599(7)
C103_4 C 0.88539(9) 0.88743(6) 0.05535(7)
H51_4 H 0.9359 0.9104 0.0669
H52_4 H 0.9108 0.9709 0.0161
C104_4 C 0.87045(10) 0.92353(8) 0.02505(7)
C107_4 C 0.86093(10) 0.89233(6) 0.03972(7)
H55_4 H 0.8789 0.8663 0.0653
H56_4 H 0.8539 0.9268 0.0145
C109_4 C 0.82407(19) 0.86367(13) 0.04026(13)
H114_4 H 0.954092 0.634446 0.0675225
H116_4 H 0.997586 0.687131 0.0943902
H67_5 H 0.0006 0.6062 0.7621
C153_5 C 0.01394(10) 0.55771(8) 0.78232(7)
C166_5 C 0.01228(11) 0.55288(9) 0.74946(7)
C167_5 C 0.03223(11) 0.54691(8) 0.80108(5)
C182_5 C 0.02891(11) 0.53724(8) 0.73535(5)
H81_5 H 0.0333 0.5502 0.8233
C183_5 C 0.04885(11) 0.53126(8) 0.78697(7)
C196_5 C 0.04719(10) 0.52643(8) 0.75410(7)
H91_5 H 0.0278 0.5340 0.7132
H92_5 H 0.0612 0.5240 0.7997
C204_5 C 0.06464(18) 0.50892(12) 0.73814(13)
O42_5 O 0.05955(11) 0.50139(8) 0.70926(8)
O43_5 O 0.08478(13) 0.50258(9) 0.75418(8)
In11_2 In 0.09379(3) 0.47821(2) 0.70891(2)
O62_5 O 0.09447(12) 0.43996(8) 0.74324(8)
O63_5 O 0.04548(13) 0.42620(8) 0.72112(8)
O64_2 O 0.14907(12) 0.50417(8) 0.72385(8)
O65_2 O 0.13542(12) 0.53258(8) 0.69014(8)
O66_4 O 0.10923(18) 0.45154(9) 0.67038(8)
O67_4 O 0.07318(18) 0.46898(9) 0.65874(8)
C210_5 C 0.06299(19) 0.41895(12) 0.73913(12)
C211_5 C 0.04711(10) 0.38539(6) 0.75752(7)
C212_5 C 0.06673(11) 0.37878(7) 0.77887(8)
C213_5 C 0.01301(11) 0.36081(8) 0.75219(7)
H98_5 H 0.0897 0.3954 0.7825
C214_5 C 0.05225(11) 0.34758(8) 0.79490(7)
H100_5 H 0.0654 0.3431 0.8094
C216_5 C 0.01815(10) 0.32300(6) 0.78958(7)
C217_5 C 0.00228(10) 0.28879(6) 0.80668(7)
C218_5 C 0.01120(11) 0.28644(6) 0.83797(7)
H102_5 H 0.0276 0.3062 0.8487
C223_5 C 0.00452(17) 0.25234(12) 0.88718(11)
C225_5 C 0.03745(21) 0.27160(14) 0.89873(12)
H105_5 H 0.0546 0.2871 0.8849
C229_5 C 0.04621(26) 0.26911(21) 0.92988(13)
C233_5 C 0.02175(22) 0.24661(18) 0.95059(11)
H108_5 H 0.0689 0.2829 0.9368
C235_5 C 0.03125(25) 0.24347(21) 0.98335(12)
H124_5 H 0.0228781 0.669081 0.761057
H126_5 H 0.0136876 0.712575 0.734189
O58_2 O 0.60583(10) 0.13726(13) 0.01388(9)
O59_2 O 0.65038(9) 0.14996(13) 0.04362(9)
C128_5 C 0.33108(9) 0.00147(11) 0.76822(7)
H62_5 H 0.3655 0.0003 0.7378
H63_5 H 0.5602 0.0001 0.7368
H66_5 H 0.3375 0.0246 0.7647
C133_5 C 0.57852(6) 0.00434(10) 0.79844(7)
C138_5 C 0.60741(8) 0.00797(11) 0.78285(5)
C139_5 C 0.58136(6) 0.01717(9) 0.82916(7)
C141_5 C 0.28157(8) 0.02202(11) 0.79079(5)
C146_5 C 0.63914(6) 0.02443(9) 0.79797(7)
C147_5 C 0.61309(8) 0.03362(11) 0.84429(5)
H70_5 H 0.5618 0.0148 0.8397
C148_5 C 0.25904(8) 0.00419(11) 0.85336(5)
C149_5 C 0.26537(9) 0.03740(11) 0.80618(7)
H72_5 H 0.2892 0.0281 0.7697
C156_5 C 0.64198(6) 0.03725(10) 0.82869(7)
C157_5 C 0.67036(12) 0.02813(17) 0.78086(10)
C158_5 C 0.61564(9) 0.04474(13) 0.87893(6)
C159_5 C 0.25411(8) 0.02849(10) 0.83747(7)
C161_5 C 0.26054(13) 0.06441(18) 0.78886(10)
H74_5 H 0.6634 0.0484 0.8390
C170_5 C 0.6697(2) 0.00180(26) 0.76301(18)
C171_5 C 0.69918(17) 0.06072(26) 0.7824(2)
C172_5 C 0.58636(7) 0.02911(15) 0.89784(9)
C173_5 C 0.64610(7) 0.07115(11) 0.89134(7)
H75_5 H 0.2431 0.0389 0.8479
C175_5 C 0.24918(13) 0.01960(18) 0.90784(12)
C176_5 C 0.2837(2) 0.0850(4) 0.7656(2)
C177_5 C 0.24061(16) 0.07676(21) 0.80097(12)
C186_5 C 0.6994(2) 0.0073(3) 0.7477(2)
C187_5 C 0.7287(2) 0.0667(3) 0.7664(2)
C188_5 C 0.58754(8) 0.03988(15) 0.92915(9)
C189_5 C 0.64727(8) 0.08191(12) 0.92265(8)
H83_5 H 0.6659 0.0818 0.8786
H85_5 H 0.2576 0.0422 0.9006
C191_5 C 0.23833(13) 0.01155(23) 0.93963(12)
C192_5 C 0.26536(26) 0.09673(31) 0.7391(2)
H86_5 H 0.2299 0.0688 0.8209
C193_5 C 0.23576(19) 0.10090(23) 0.78444(12)
C198_5 C 0.72861(11) 0.03735(21) 0.74890(10)
C199_5 C 0.61799(10) 0.06628(15) 0.94155(6)
H94_5 H 0.6678 0.0998 0.9311
H96_5 H 0.2402 0.0289 0.9535
C201_5 C 0.25147(18) 0.11345(22) 0.75601(12)
H97_5 H 0.2214 0.1085 0.7931
C206_5 C 0.75989(11) 0.04400(19) 0.73123(12)
C207_5 C 0.61737(12) 0.07883(18) 0.97521(12)
C209_5 C 0.24668(22) 0.13927(28) 0.73791(15)
O46_4 O 0.76651(19) 0.02104(31) 0.72417(18)
O47_4 O 0.7698(2) 0.0620(4) 0.70659(16)
O48_5 O 0.59178(17) 0.06192(26) 0.99261(19)
O49_5 O 0.64510(10) 0.09938(13) 0.98823(8)
O52_4 O 0.26090(15) 0.14906(18) 0.71109(11)
O53_4 O 0.22898(14) 0.15072(17) 0.74894(9)
In12_2 In 0.81659(2) 0.05598(4) 0.70138(2)
In14_2 In 0.23938(3) 0.18341(2) 0.70138(2)
H127_5 H 0.310724 0.0922398 0.765154
H128_5 H 0.698612 0.0811381 0.795797
H133_5 H 0.562504 0.00842718 0.888123
H134_5 H 0.264171 0.0924206 0.713401
H135_5 H 0.564608 0.0276287 0.943963
H136_5 H 0.751534 0.0920425 0.766462
O16_5 O 0.53142(9) 0.39417(10) 0.01388(9)
O17_5 O 0.49957(9) 0.34962(9) 0.04362(9)
C84_5 C 0.52718(15) 0.36740(15) 0.02878(13)
C85_5 C 0.55518(8) 0.35899(10) 0.02760(9)
C86_5 C 0.58604(10) 0.38105(8) 0.01258(9)
C87_5 C 0.55123(8) 0.33015(9) 0.04352(9)
H45_5 H 0.5887 0.4006 0.0018
C88_5 C 0.61295(8) 0.37427(9) 0.01349(10)
C89_5 C 0.57814(10) 0.32336(8) 0.04443(9)
H46_5 H 0.5303 0.3153 0.0537
H47_5 H 0.6338 0.3892 0.0034
C90_5 C 0.60900(8) 0.34542(10) 0.02942(10)
H48_5 H 0.5754 0.3039 0.0552
C91_5 C 0.63939(11) 0.33944(12) 0.03061(15)
C92_5 C 0.67251(16) 0.3666(2) 0.0258(3)
C135_5 C 0.6334(2) 0.30595(26) 0.0258(3)
C142_5 C 0.70004(16) 0.36061(11) 0.03061(15)
C143_5 C 0.66056(12) 0.29996(16) 0.03061(15)
C150_5 C 0.73641(13) 0.39100(8) 0.02942(10)
C151_5 C 0.69405(26) 0.32749(16) 0.0258(3)
C152_5 C 0.65458(10) 0.26359(13) 0.02942(10)
C162_5 C 0.76131(12) 0.38705(8) 0.01349(10)
C163_5 C 0.74521(13) 0.42186(10) 0.04443(9)
C164_5 C 0.62573(9) 0.23869(12) 0.01349(10)
C165_5 C 0.67664(8) 0.25479(13) 0.04443(9)
C178_5 C 0.79500(13) 0.41396(10) 0.01258(9)
H76_5 H 0.7553 0.3662 0.0034
H77_5 H 0.7284 0.4246 0.0552
C179_5 C 0.77891(12) 0.44877(8) 0.04352(9)
C180_5 C 0.61895(8) 0.20500(13) 0.01258(9)
H78_5 H 0.6108 0.2447 0.0034
H79_5 H 0.6961 0.2716 0.0552
C181_5 C 0.66985(9) 0.22109(12) 0.04352(9)
C194_5 C 0.80380(13) 0.44482(8) 0.02760(9)
H87_5 H 0.8118 0.4113 0.0018
H88_5 H 0.7849 0.4697 0.0537
C195_5 C 0.64101(10) 0.19620(13) 0.02760(9)
H89_5 H 0.5994 0.1882 0.0018
H90_5 H 0.6847 0.2151 0.0537
C202_5 C 0.84021(21) 0.47282(15) 0.02878(13)
C203_5 C 0.63260(15) 0.15979(21) 0.02878(13)
O36_5 O 0.86274(13) 0.46858(9) 0.01388(9)
O37_5 O 0.85004(13) 0.50043(9) 0.04362(9)
H122_5 H 0.677017 0.3917 0.0184423
H129_5 H 0.6083 0.285317 0.0184423
H131_5 H 0.714683 0.322983 0.0184423
In1_4 In 0.52179(2) 0.61559(2) 0.70891(2)
O2_5 O 0.49861(8) 0.55817(8) 0.70926(8)
O3_5 O 0.49742(9) 0.58221(9) 0.75418(8)
O4_5 O 0.56004(8) 0.65452(9) 0.74324(8)
O5_5 O 0.57380(8) 0.61929(10) 0.72112(8)
O6_5 O 0.49583(8) 0.64491(9) 0.72385(8)
O7_5 O 0.46742(8) 0.60285(9) 0.69014(8)
O8_4 O 0.54846(9) 0.65770(16) 0.67038(8)
O9_4 O 0.53102(9) 0.60421(16) 0.65874(8)
C21_5 C 0.49108(12) 0.55573(13) 0.73814(13)
C22_5 C 0.58105(12) 0.64405(15) 0.73913(12)
C23_5 C 0.46966(13) 0.62707(14) 0.70693(13)
C24_5 C 0.47357(8) 0.52077(6) 0.75410(7)
C25_5 C 0.61461(6) 0.66173(8) 0.75752(7)
C26_5 C 0.44100(6) 0.63527(8) 0.70639(7)
C27_5 C 0.46276(8) 0.49168(8) 0.73535(5)
C28_5 C 0.46874(8) 0.51760(7) 0.78697(7)
C29_5 C 0.62122(7) 0.68796(9) 0.77887(8)
C30_5 C 0.63919(8) 0.65221(7) 0.75219(7)
C31_5 C 0.44590(6) 0.66463(7) 0.72202(7)
C32_5 C 0.40980(8) 0.61359(6) 0.69172(7)
H18_5 H 0.4660 0.4939 0.7132
C33_5 C 0.44712(9) 0.45941(7) 0.74946(7)
C34_5 C 0.45309(8) 0.48533(8) 0.80108(5)
H19_5 H 0.4760 0.5373 0.7997
H20_5 H 0.6046 0.6944 0.7825
C35_5 C 0.65242(8) 0.70468(8) 0.79490(7)
C36_5 C 0.67038(7) 0.66892(9) 0.76822(7)
H21_5 H 0.6347 0.6345 0.7378
H22_5 H 0.4670 0.6793 0.7320
C37_5 C 0.41960(7) 0.67231(6) 0.72296(7)
C38_5 C 0.38351(6) 0.62128(7) 0.69266(7)
H23_5 H 0.4065 0.5938 0.6812
H24_5 H 0.4398 0.4398 0.7368
C39_5 C 0.44229(8) 0.45624(6) 0.78232(7)
H25_5 H 0.4498 0.4832 0.8233
H26_5 H 0.6569 0.7224 0.8094
C40_5 C 0.67700(6) 0.69516(8) 0.78958(7)
H27_5 H 0.6870 0.6625 0.7647
H28_5 H 0.4229 0.6922 0.7336
C41_5 C 0.38840(6) 0.65063(7) 0.70828(7)
H29_5 H 0.3624 0.6066 0.6828
C42_5 C 0.42581(8) 0.42148(6) 0.79844(7)
C43_5 C 0.71121(6) 0.71350(8) 0.80668(7)
C44_5 C 0.35997(10) 0.65849(11) 0.70918(10)
C45_5 C 0.40055(8) 0.39259(8) 0.78285(5)
C46_5 C 0.43580(7) 0.41864(6) 0.82916(7)
C47_5 C 0.71356(6) 0.72477(9) 0.83797(7)
C48_5 C 0.74044(8) 0.71843(8) 0.79079(5)
C49_5 C 0.32557(11) 0.63277(11) 0.70938(10)
H30_5 H 0.3938 0.3945 0.7621
C50_5 C 0.38528(7) 0.36086(6) 0.79797(7)
C51_5 C 0.42052(8) 0.38691(8) 0.84429(5)
H31_5 H 0.4529 0.4382 0.8397
H32_5 H 0.6938 0.7215 0.8487
C52_5 C 0.74514(8) 0.74096(8) 0.85336(5)
C53_5 C 0.77202(6) 0.73463(9) 0.80618(7)
H33_5 H 0.7388 0.7108 0.7697
H34_5 H 0.3202 0.6098 0.7097
C54_5 C 0.39526(8) 0.35802(6) 0.82869(7)
C55_5 C 0.35776(12) 0.32964(12) 0.78086(10)
C56_5 C 0.42909(10) 0.38436(9) 0.87893(6)
C57_5 C 0.77437(6) 0.74589(8) 0.83747(7)
C58_5 C 0.74766(12) 0.75219(12) 0.88718(11)
C59_5 C 0.80386(12) 0.73946(13) 0.78886(10)
H35_5 H 0.3849 0.3366 0.8390
C60_5 C 0.33206(17) 0.3303(2) 0.76301(18)
C61_5 C 0.3615(2) 0.30082(17) 0.7824(2)
C62_5 C 0.44274(13) 0.41364(7) 0.89784(9)
C63_5 C 0.42504(9) 0.35390(7) 0.89134(7)
H36_5 H 0.7957 0.7569 0.8479
C64_5 C 0.72840(14) 0.76586(16) 0.89873(12)
C65_5 C 0.77041(12) 0.75082(13) 0.90784(12)
C66_5 C 0.8012(3) 0.7163(2) 0.7656(2)
C67_5 C 0.83614(13) 0.75939(16) 0.80097(12)
C68_5 C 0.3078(2) 0.3006(2) 0.7477(2)
C69_5 C 0.3379(2) 0.2713(2) 0.7664(2)
C70_5 C 0.45233(13) 0.41246(8) 0.92915(9)
C71_5 C 0.43463(9) 0.35273(8) 0.92265(8)
H37_5 H 0.4158 0.3341 0.8786
H38_5 H 0.7129 0.7676 0.8849
C72_5 C 0.73089(21) 0.77711(15) 0.92988(13)
H39_5 H 0.7845 0.7424 0.9006
C73_5 C 0.77321(19) 0.76167(13) 0.93963(12)
C74_5 C 0.83136(17) 0.73464(26) 0.7391(2)
H40_5 H 0.8388 0.7701 0.8209
C75_5 C 0.86513(13) 0.76424(19) 0.78444(12)
C76_5 C 0.30873(18) 0.27139(11) 0.74890(10)
C77_5 C 0.44828(11) 0.38201(10) 0.94155(6)
H41_5 H 0.4319 0.3322 0.9311
C78_5 C 0.75339(18) 0.77515(12) 0.95059(11)
H42_5 H 0.7171 0.7861 0.9368
H43_5 H 0.7886 0.7598 0.9535
C79_5 C 0.86197(12) 0.74853(18) 0.75601(12)
H44_5 H 0.8870 0.7786 0.7931
C80_5 C 0.28410(16) 0.24011(11) 0.73123(12)
C81_5 C 0.46145(13) 0.38263(12) 0.97521(12)
C82_5 C 0.75653(21) 0.78779(13) 0.98335(12)
C83_5 C 0.89258(17) 0.75332(22) 0.73791(15)
O10_4 O 0.25452(25) 0.23349(19) 0.72417(18)
O11_4 O 0.2921(3) 0.2302(2) 0.70659(16)
O12_5 O 0.4701(2) 0.40822(17) 0.99261(19)
O13_5 O 0.45427(9) 0.35490(10) 0.98823(8)
O14_4 O 0.88815(10) 0.73910(15) 0.71109(11)
O15_4 O 0.92173(10) 0.77102(14) 0.74894(9)
C93_5 C 0.36723(11) 0.69281(16) 0.70938(10)
C94_5 C 0.29851(15) 0.64003(10) 0.70918(10)
C95_5 C 0.34151(11) 0.70149(15) 0.70918(10)
H49_5 H 0.3902 0.7105 0.7097
C96_5 C 0.26222(9) 0.61160(6) 0.70828(7)
C97_5 C 0.30719(16) 0.67443(11) 0.70938(10)
C98_5 C 0.34937(7) 0.73778(9) 0.70828(7)
C99_5 C 0.25270(9) 0.58040(7) 0.72296(7)
C100_5 C 0.23776(9) 0.61649(6) 0.69266(7)
H50_5 H 0.2895 0.6798 0.7097
C101_5 C 0.32769(6) 0.74730(9) 0.72296(7)
C102_5 C 0.37872(7) 0.76224(9) 0.69266(7)
C103_5 C 0.21872(9) 0.55410(6) 0.72202(7)
H51_5 H 0.2692 0.5771 0.7336
H52_5 H 0.2441 0.6376 0.6828
C104_5 C 0.20378(10) 0.59020(8) 0.69172(7)
C105_5 C 0.33537(7) 0.78128(9) 0.72202(7)
H53_5 H 0.3078 0.7308 0.7336
H54_5 H 0.3934 0.7559 0.6828
C106_5 C 0.38641(6) 0.79622(10) 0.69172(7)
C107_5 C 0.19426(10) 0.55900(6) 0.70639(7)
H55_5 H 0.2122 0.5330 0.7320
H56_5 H 0.1872 0.5935 0.6812
C108_5 C 0.36473(8) 0.80574(10) 0.70639(7)
H57_5 H 0.3207 0.7878 0.7320
H58_5 H 0.4062 0.8128 0.6812
C109_5 C 0.15740(19) 0.53034(13) 0.70693(13)
C110_5 C 0.37293(14) 0.84260(19) 0.70693(13)
O22_5 O 0.35509(9) 0.85093(12) 0.72385(8)
O23_5 O 0.39715(9) 0.86458(12) 0.69014(8)
In5_4 In 0.94402(4) 0.76062(3) 0.70138(2)
In7_4 In 0.38441(2) 0.90621(3) 0.70891(2)
O28_4 O 0.97896(31) 0.74548(25) 0.72417(18)
O29_4 O 0.9380(4) 0.7079(3) 0.70659(16)
O30_5 O 0.44183(8) 0.94045(11) 0.70926(8)
O31_5 O 0.41779(9) 0.91522(13) 0.75418(8)
O32_5 O 0.34548(9) 0.90553(12) 0.74324(8)
O33_5 O 0.38071(10) 0.95452(13) 0.72112(8)
O34_4 O 0.34230(16) 0.89077(18) 0.67038(8)
O35_4 O 0.39579(16) 0.92682(18) 0.65874(8)
C111_5 C 0.95600(19) 0.71590(16) 0.73123(12)
C112_5 C 0.44427(13) 0.93536(18) 0.73814(13)
C113_5 C 0.35595(15) 0.93701(19) 0.73913(12)
C114_5 C 0.96265(21) 0.69127(18) 0.74890(10)
C115_5 C 0.47923(6) 0.95281(10) 0.75410(7)
C116_5 C 0.33827(8) 0.95289(10) 0.75752(7)
C117_5 C 0.9333(3) 0.6621(2) 0.7664(2)
C118_5 C 0.9927(3) 0.6922(2) 0.7477(2)
C119_5 C 0.50832(8) 0.97109(11) 0.73535(5)
C120_5 C 0.48240(7) 0.95115(11) 0.78697(7)
C121_5 C 0.31204(9) 0.93327(11) 0.77887(8)
C122_5 C 0.34779(7) 0.98699(11) 0.75219(7)
C123_5 C 0.93928(26) 0.6385(2) 0.7824(2)
C124_5 C 0.99820(26) 0.66794(17) 0.76301(18)
H59_5 H 0.5061 0.9722 0.7132
C125_5 C 0.54059(7) 0.98772(11) 0.74946(7)
C126_5 C 0.51467(8) 0.96777(11) 0.80108(5)
H60_5 H 0.4627 0.9388 0.7997
H61_5 H 0.3056 0.9103 0.7825
C127_5 C 0.29532(8) 0.94775(11) 0.79490(7)
C129_5 C 0.97187(17) 0.64224(12) 0.78086(10)
C130_5 C 0.54376(6) 0.98606(10) 0.78232(7)
H64_5 H 0.5168 0.9667 0.8233
H65_5 H 0.2776 0.9346 0.8094
C131_5 C 0.30484(8) 0.98185(10) 0.78958(7)
C132_5 C 0.97557(9) 0.61472(7) 0.79797(7)
C134_5 C 0.28650(8) 0.99772(10) 0.80668(7)
C136_5 C 0.99203(11) 0.59945(8) 0.78285(5)
C137_5 C 0.96275(10) 0.60474(8) 0.82869(7)
C140_5 C 0.27523(9) 0.98880(11) 0.83797(7)
C144_5 C 0.99566(10) 0.57419(8) 0.79844(7)
H68_5 H 0.9516 0.6151 0.8390
C145_5 C 0.96638(11) 0.57948(8) 0.84429(5)
H69_5 H 0.6055 0.9994 0.7621
H71_5 H 0.2785 0.9724 0.8487
C154_5 C 0.98283(9) 0.56420(7) 0.82916(7)
C155_5 C 0.95526(13) 0.57091(10) 0.87893(6)
C160_5 C 0.24781(12) 0.99548(17) 0.88718(11)
H73_5 H 0.9852 0.5471 0.8397
C168_5 C 0.97089(15) 0.55726(13) 0.89784(9)
C169_5 C 0.92885(11) 0.57496(9) 0.89134(7)
C174_5 C 0.23414(16) 0.96255(21) 0.89873(12)
H80_5 H 0.9999 0.5602 0.7368
C184_5 C 0.96012(15) 0.54767(13) 0.92915(9)
C185_5 C 0.91809(12) 0.56537(9) 0.92265(8)
H82_5 H 0.9182 0.5842 0.8786
H84_5 H 0.2324 0.9454 0.8849
C190_5 C 0.22289(15) 0.95379(26) 0.92988(13)
C197_5 C 0.93372(15) 0.55172(11) 0.94155(6)
H93_5 H 0.9002 0.5681 0.9311
C200_5 C 0.22485(12) 0.97825(22) 0.95059(11)
H95_5 H 0.2139 0.9311 0.9368
C205_5 C 0.92117(18) 0.53855(13) 0.97521(12)
C208_5 C 0.21221(13) 0.96875(25) 0.98335(12)
O44_5 O 0.93808(26) 0.5299(2) 0.99261(19)
O45_5 O 0.90062(13) 0.54573(9) 0.98823(8)
C215_5 C 0.99853(11) 0.32962(7) 0.76822(7)
H99_5 H 0.9997 0.3653 0.7378
H101_5 H 0.9754 0.3130 0.7647
C219_5 C 0.97798(11) 0.25956(8) 0.79079(5)
C220_5 C 0.99581(11) 0.25486(8) 0.85336(5)
C221_5 C 0.96260(11) 0.22798(6) 0.80618(7)
H103_5 H 0.9719 0.2612 0.7697
C222_5 C 0.97151(10) 0.22563(6) 0.83747(7)
C224_5 C 0.93559(18) 0.19614(12) 0.78886(10)
H104_5 H 0.9611 0.2043 0.8479
C226_5 C 0.98040(18) 0.22959(12) 0.90784(12)
C227_5 C 0.9150(4) 0.1988(3) 0.7656(2)
C228_5 C 0.92324(21) 0.16386(13) 0.80097(12)
H106_5 H 0.9578 0.2155 0.9006
C230_5 C 0.98845(23) 0.22679(19) 0.93963(12)
C231_5 C 0.90327(31) 0.16864(17) 0.7391(2)
H107_5 H 0.9312 0.1612 0.8209
C232_5 C 0.89910(23) 0.13487(13) 0.78444(12)
H109_5 H 0.9711 0.2114 0.9535
C234_5 C 0.88655(22) 0.13803(12) 0.75601(12)
H110_5 H 0.8915 0.1130 0.7931
C236_5 C 0.86073(28) 0.10742(17) 0.73791(15)
O70_4 O 0.85094(18) 0.11185(10) 0.71109(11)
O71_4 O 0.84928(17) 0.07827(10) 0.74894(9)
H114_5 H 0.287425 0.301113 0.734189
H115_5 H 0.463021 0.435392 0.943963
H116_5 H 0.330919 0.353797 0.761057
H117_5 H 0.445923 0.437496 0.888123
H118_5 H 0.340509 0.248466 0.766462
H119_5 H 0.828249 0.735829 0.713401
H120_5 H 0.781516 0.689276 0.765154
H121_5 H 0.382526 0.301388 0.795797
H123_5 H 0.918862 0.617474 0.795797
H125_5 H 0.907957 0.659491 0.766462
H130_5 H 0.991573 0.554077 0.888123
H132_5 H 0.646203 0.977122 0.761057
H137_5 H 0.698887 0.986312 0.734189
H138_5 H 0.972371 0.536979 0.943963
H139_5 H 0.90776 0.218484 0.765154
H140_5 H 0.907579 0.171751 0.713401
C36_6 C 0.00372(7) 0.33558(9) 0.43488(7)
C40_6 C 0.01034(6) 0.36182(8) 0.45624(7)
H27_6 H 0.0204 0.3291 0.4313
C43_6 C 0.04455(6) 0.38016(8) 0.47334(7)
C47_6 C 0.04690(6) 0.39143(9) 0.50463(7)
C48_6 C 0.07378(8) 0.38509(8) 0.45745(5)
H32_6 H 0.0272 0.3881 0.5153
C52_6 C 0.07848(8) 0.40762(8) 0.52002(5)
C53_6 C 0.10536(6) 0.40129(9) 0.47284(7)
H33_6 H 0.0722 0.3774 0.4363
C57_6 C 0.10771(6) 0.41255(8) 0.50413(7)
C58_6 C 0.08100(12) 0.41885(12) 0.55384(11)
C59_6 C 0.13720(12) 0.40612(13) 0.45552(10)
H36_6 H 0.1291 0.4235 0.5145
C64_6 C 0.06174(14) 0.43252(16) 0.56539(12)
C65_6 C 0.10375(12) 0.41748(13) 0.57450(12)
C66_6 C 0.1346(3) 0.3829(2) 0.4322(2)
C67_6 C 0.16948(13) 0.42605(16) 0.46763(12)
H38_6 H 0.0463 0.4342 0.5515
C72_6 C 0.06423(21) 0.44377(15) 0.59654(13)
H39_6 H 0.1179 0.4090 0.5672
C73_6 C 0.10655(19) 0.42833(13) 0.60629(12)
C74_6 C 0.16470(17) 0.40130(26) 0.4057(2)
H40_6 H 0.1722 0.4367 0.4875
C75_6 C 0.19847(13) 0.43090(19) 0.45110(12)
C78_6 C 0.08673(18) 0.44181(12) 0.61725(11)
H42_6 H 0.0505 0.4527 0.6034
H43_6 H 0.1220 0.4264 0.6201
C79_6 C 0.19531(12) 0.41519(18) 0.42267(12)
H44_6 H 0.2204 0.4452 0.4597
C82_6 C 0.08987(21) 0.45445(13) 0.65001(12)
C83_6 C 0.22592(17) 0.41998(22) 0.40457(15)
C92_6 C 0.00585(16) 0.0332(2) 0.6924(3)
C111_6 C 0.28934(19) 0.38256(16) 0.39789(12)
C114_6 C 0.29599(21) 0.35793(18) 0.41556(10)
C117_6 C 0.2667(3) 0.3287(2) 0.4330(2)
C118_6 C 0.3261(3) 0.3588(2) 0.4143(2)
C123_6 C 0.27262(26) 0.3051(2) 0.4490(2)
C124_6 C 0.33154(26) 0.33460(17) 0.42967(18)
C129_6 C 0.30521(17) 0.30890(12) 0.44752(10)
C132_6 C 0.30891(9) 0.28138(7) 0.46463(7)
C136_6 C 0.32537(11) 0.26611(8) 0.44951(5)
C137_6 C 0.29609(10) 0.27140(8) 0.49535(7)
C142_6 C 0.03338(16) 0.02727(11) 0.69727(15)
C144_6 C 0.32900(10) 0.24085(8) 0.46510(7)
H67_6 H 0.3340 0.2728 0.4287
H68_6 H 0.2850 0.2817 0.5056
C145_6 C 0.29972(11) 0.24614(8) 0.51095(5)
C150_6 C 0.06975(13) 0.05766(8) 0.69608(10)
C153_6 C 0.34728(10) 0.22437(8) 0.44898(7)
C154_6 C 0.31617(9) 0.23086(7) 0.49582(7)
C155_6 C 0.28860(13) 0.23757(10) 0.54559(6)
C157_6 C 0.00370(12) 0.69479(17) 0.44752(10)
C162_6 C 0.09465(12) 0.05371(8) 0.68015(10)
C163_6 C 0.07855(13) 0.08852(10) 0.71109(9)
C166_6 C 0.34562(11) 0.21954(9) 0.41612(7)
C167_6 C 0.36557(11) 0.21357(8) 0.46774(5)
H73_6 H 0.3186 0.2137 0.5063
C168_6 C 0.30423(15) 0.22392(13) 0.56450(9)
C169_6 C 0.26219(11) 0.24162(9) 0.55800(7)
C170_6 C 0.0031(2) 0.66846(26) 0.42967(18)
C171_6 C 0.03252(17) 0.72738(26) 0.4490(2)
C178_6 C 0.12834(13) 0.08062(10) 0.67924(9)
H76_6 H 0.0887 0.0328 0.6700
H77_6 H 0.0618 0.0912 0.7218
C179_6 C 0.11225(12) 0.11543(8) 0.71018(9)
C182_6 C 0.36225(11) 0.20390(8) 0.40201(5)
H80_6 H 0.3333 0.2268 0.4034
H81_6 H 0.3667 0.2168 0.4899
C183_6 C 0.38219(11) 0.19792(8) 0.45363(7)
C184_6 C 0.29346(15) 0.21433(13) 0.59581(9)
C185_6 C 0.25143(12) 0.23203(9) 0.58931(8)
H82_6 H 0.2516 0.2508 0.5452
C186_6 C 0.0328(2) 0.6739(3) 0.4143(2)
C187_6 C 0.0621(2) 0.7333(3) 0.4330(2)
C194_6 C 0.13714(13) 0.11148(8) 0.69426(9)
H87_6 H 0.1452 0.0779 0.6684
H88_6 H 0.1183 0.1363 0.7203
C196_6 C 0.38053(10) 0.19309(8) 0.42076(7)
H91_6 H 0.3612 0.2006 0.3798
H92_6 H 0.3946 0.1906 0.4663
C197_6 C 0.26706(15) 0.21838(11) 0.60821(6)
H93_6 H 0.2336 0.2347 0.5977
C198_6 C 0.06195(11) 0.70401(21) 0.41556(10)
H94_6 H 0.0012 0.7664 0.5977
C202_6 C 0.17355(21) 0.13948(15) 0.69544(13)
C204_6 C 0.39798(18) 0.17558(12) 0.40480(13)
C205_6 C 0.25451(18) 0.20521(13) 0.64187(12)
C206_6 C 0.09323(11) 0.71066(19) 0.39789(12)
O36_6 O 0.19608(13) 0.13524(9) 0.68054(9)
O37_6 O 0.18338(13) 0.16709(9) 0.71028(9)
O42_6 O 0.39289(11) 0.16805(8) 0.37592(8)
O43_6 O 0.41812(13) 0.16924(9) 0.42084(8)
O44_6 O 0.27142(26) 0.1965(2) 0.65927(19)
O45_6 O 0.23396(13) 0.21239(9) 0.65489(8)
O62_6 O 0.42781(12) 0.10662(8) 0.40990(8)
O63_6 O 0.37882(13) 0.09286(8) 0.38778(8)
O64_3 O 0.48241(12) 0.17083(8) 0.39051(8)
O65_3 O 0.46876(12) 0.19924(8) 0.35680(8)
C210_6 C 0.39633(19) 0.08561(12) 0.40579(12)
C211_6 C 0.38045(10) 0.05205(6) 0.42418(7)
C212_6 C 0.40007(11) 0.04544(7) 0.44553(8)
C213_6 C 0.34635(11) 0.02747(8) 0.41885(7)
H98_6 H 0.4231 0.0620 0.4491
C214_6 C 0.38559(11) 0.01424(8) 0.46156(7)
H99_6 H 0.3331 0.0319 0.4044
H100_6 H 0.3988 0.0097 0.4760
H119_6 H 0.161583 0.402495 0.380068
H120_6 H 0.114849 0.355943 0.431821
H122_6 H 0.0103503 0.0583665 0.685109
H123_6 H 0.252195 0.284141 0.462464
H124_6 H 0.356211 0.335747 0.427724
H125_6 H 0.241291 0.326158 0.433129
H126_6 H 0.347021 0.379241 0.400856
H128_6 H 0.0319454 0.747805 0.462464
H130_6 H 0.324906 0.220743 0.55479
H136_6 H 0.084867 0.758709 0.433129
H137_6 H 0.0322203 0.652979 0.400856
H138_6 H 0.305705 0.203646 0.610629
C151_6 C 0.02739(26) 0.99415(16) 0.6924(3)
C165_6 C 0.00998(8) 0.92145(13) 0.71109(9)
H79_6 H 0.0295 0.9382 0.7218
C181_6 C 0.00319(9) 0.88775(12) 0.71018(9)
H90_6 H 0.0181 0.8817 0.7203
C215_6 C 0.33187(11) 0.99628(7) 0.43488(7)
C216_6 C 0.35149(10) 0.98966(6) 0.45624(7)
H101_6 H 0.3088 0.9796 0.4313
C217_6 C 0.33562(10) 0.95545(6) 0.47334(7)
C218_6 C 0.34454(11) 0.95310(6) 0.50463(7)
C219_6 C 0.31132(11) 0.92622(8) 0.45745(5)
H102_6 H 0.3610 0.9728 0.5153
C220_6 C 0.32915(11) 0.92152(8) 0.52002(5)
C221_6 C 0.29594(11) 0.89464(6) 0.47284(7)
H103_6 H 0.3053 0.9278 0.4363
C222_6 C 0.30485(10) 0.89229(6) 0.50413(7)
C223_6 C 0.33786(17) 0.91900(12) 0.55384(11)
C224_6 C 0.26893(18) 0.86280(12) 0.45552(10)
H104_6 H 0.2945 0.8709 0.5145
C225_6 C 0.37079(21) 0.93826(14) 0.56539(12)
C226_6 C 0.31374(18) 0.89625(12) 0.57450(12)
C227_6 C 0.2484(4) 0.8654(3) 0.4322(2)
C228_6 C 0.25658(21) 0.83052(13) 0.46763(12)
H105_6 H 0.3880 0.9537 0.5515
C229_6 C 0.37955(26) 0.93577(21) 0.59654(13)
H106_6 H 0.2912 0.8821 0.5672
C230_6 C 0.32179(23) 0.89345(19) 0.60629(12)
C231_6 C 0.23661(31) 0.83530(17) 0.4057(2)
H107_6 H 0.2646 0.8278 0.4875
C232_6 C 0.23244(23) 0.80153(13) 0.45110(12)
C233_6 C 0.35509(22) 0.91327(18) 0.61725(11)
H108_6 H 0.4023 0.9495 0.6034
H109_6 H 0.3045 0.8780 0.6201
C234_6 C 0.21989(22) 0.80469(12) 0.42267(12)
H110_6 H 0.2249 0.7796 0.4597
C235_6 C 0.36459(25) 0.91013(21) 0.65001(12)
C236_6 C 0.19407(28) 0.77408(17) 0.40457(15)
H131_6 H 0.0480161 0.98965 0.685109
H139_6 H 0.241094 0.885151 0.431821
H140_6 H 0.240913 0.838417 0.380068
O2_6 O 0.83195(8) 0.22483(8) 0.37592(8)
O3_6 O 0.83076(9) 0.24887(9) 0.42084(8)
O4_6 O 0.89338(8) 0.32118(9) 0.40990(8)
O5_6 O 0.90714(8) 0.28595(10) 0.38778(8)
O6_6 O 0.82917(8) 0.31157(9) 0.39051(8)
O7_6 O 0.80076(8) 0.26951(9) 0.35680(8)
C21_6 C 0.82442(12) 0.22239(13) 0.40480(13)
C22_6 C 0.91439(12) 0.31071(15) 0.40579(12)
C23_6 C 0.80300(13) 0.29373(14) 0.37359(13)
C24_6 C 0.80691(8) 0.18743(6) 0.42076(7)
C25_6 C 0.94795(6) 0.32839(8) 0.42418(7)
C26_6 C 0.77434(6) 0.30193(8) 0.37305(7)
C27_6 C 0.79610(8) 0.15834(8) 0.40201(5)
C28_6 C 0.80208(8) 0.18426(7) 0.45363(7)
C29_6 C 0.95456(7) 0.35462(9) 0.44553(8)
C30_6 C 0.97253(8) 0.31887(7) 0.41885(7)
C31_6 C 0.77924(6) 0.33129(7) 0.38868(7)
C32_6 C 0.74314(8) 0.28025(6) 0.35838(7)
H18_6 H 0.7994 0.1605 0.3798
C33_6 C 0.78046(9) 0.12607(7) 0.41612(7)
C34_6 C 0.78643(8) 0.15199(8) 0.46774(5)
H19_6 H 0.8094 0.2039 0.4663
H20_6 H 0.9380 0.3610 0.4491
C35_6 C 0.98576(8) 0.37134(8) 0.46156(7)
H21_6 H 0.9681 0.3011 0.4044
H22_6 H 0.8004 0.3459 0.3986
C37_6 C 0.75294(7) 0.33897(6) 0.38962(7)
C38_6 C 0.71685(6) 0.28794(7) 0.35932(7)
H23_6 H 0.7399 0.2604 0.3478
H24_6 H 0.7732 0.1064 0.4034
C39_6 C 0.77563(8) 0.12290(6) 0.44898(7)
H25_6 H 0.7832 0.1498 0.4899
H26_6 H 0.9903 0.3890 0.4760
H28_6 H 0.7563 0.3588 0.4002
C41_6 C 0.72174(6) 0.31729(7) 0.37494(7)
H29_6 H 0.6958 0.2732 0.3494
C42_6 C 0.75915(8) 0.08814(6) 0.46510(7)
C44_6 C 0.69331(10) 0.32515(11) 0.37584(10)
C45_6 C 0.73389(8) 0.05925(8) 0.44951(5)
C46_6 C 0.76914(7) 0.08530(6) 0.49582(7)
C49_6 C 0.65891(11) 0.29943(11) 0.37604(10)
H30_6 H 0.7272 0.0611 0.4287
C50_6 C 0.71862(7) 0.02752(6) 0.46463(7)
C51_6 C 0.75386(8) 0.05357(8) 0.51095(5)
H31_6 H 0.7863 0.1048 0.5063
H34_6 H 0.6536 0.2764 0.3763
C54_6 C 0.72860(8) 0.02468(6) 0.49535(7)
C56_6 C 0.76243(10) 0.05102(9) 0.54559(6)
H35_6 H 0.7183 0.0032 0.5056
C62_6 C 0.77608(13) 0.08030(7) 0.56450(9)
C63_6 C 0.75838(9) 0.02056(7) 0.55800(7)
C70_6 C 0.78567(13) 0.07912(8) 0.59581(9)
C71_6 C 0.76797(9) 0.01939(8) 0.58931(8)
H37_6 H 0.7492 0.0007 0.5452
C77_6 C 0.78162(11) 0.04867(10) 0.60821(6)
C81_6 C 0.79479(13) 0.04929(12) 0.64187(12)
O12_6 O 0.8035(2) 0.07488(17) 0.65927(19)
O13_6 O 0.78761(9) 0.02156(10) 0.65489(8)
O16_6 O 0.86476(9) 0.06083(10) 0.68054(9)
O17_6 O 0.83291(9) 0.01628(9) 0.71028(9)
C84_6 C 0.86052(15) 0.03406(15) 0.69544(13)
C85_6 C 0.88852(8) 0.02565(10) 0.69426(9)
C86_6 C 0.91938(10) 0.04771(8) 0.67924(9)
H45_6 H 0.9221 0.0672 0.6684
C88_6 C 0.94629(8) 0.04093(9) 0.68015(10)
H47_6 H 0.9672 0.0558 0.6700
C90_6 C 0.94234(8) 0.01208(10) 0.69608(10)
C91_6 C 0.97273(11) 0.00610(12) 0.69727(15)
C93_6 C 0.70057(11) 0.35947(16) 0.37604(10)
C94_6 C 0.63185(15) 0.30669(10) 0.37584(10)
C95_6 C 0.67485(11) 0.36815(15) 0.37584(10)
H49_6 H 0.7236 0.3771 0.3763
C96_6 C 0.59556(9) 0.27826(6) 0.37494(7)
C97_6 C 0.64053(16) 0.34109(11) 0.37604(10)
C98_6 C 0.68271(7) 0.40444(9) 0.37494(7)
C99_6 C 0.58604(9) 0.24706(7) 0.38962(7)
C100_6 C 0.57110(9) 0.28315(6) 0.35932(7)
H50_6 H 0.6229 0.3464 0.3763
C101_6 C 0.66103(6) 0.41396(9) 0.38962(7)
C102_6 C 0.71206(7) 0.42890(9) 0.35932(7)
C103_6 C 0.55206(9) 0.22076(6) 0.38868(7)
H51_6 H 0.6026 0.2437 0.4002
H52_6 H 0.5775 0.3042 0.3494
C104_6 C 0.53712(10) 0.25686(8) 0.35838(7)
C105_6 C 0.66871(7) 0.44794(9) 0.38868(7)
H53_6 H 0.6412 0.3974 0.4002
H54_6 H 0.7268 0.4225 0.3494
C106_6 C 0.71975(6) 0.46288(10) 0.35838(7)
C107_6 C 0.52760(10) 0.22566(6) 0.37305(7)
H55_6 H 0.5456 0.1996 0.3986
H56_6 H 0.5206 0.2601 0.3478
C108_6 C 0.69807(8) 0.47240(10) 0.37305(7)
H57_6 H 0.6541 0.4544 0.3986
H58_6 H 0.7396 0.4794 0.3478
C109_6 C 0.49074(19) 0.19700(13) 0.37359(13)
C110_6 C 0.70627(14) 0.50926(19) 0.37359(13)
O22_6 O 0.68843(9) 0.51759(12) 0.39051(8)
O23_6 O 0.73049(9) 0.53124(12) 0.35680(8)
O30_6 O 0.77517(8) 0.60711(11) 0.37592(8)
O31_6 O 0.75113(9) 0.58188(13) 0.42084(8)
O32_6 O 0.67882(9) 0.57219(12) 0.40990(8)
O33_6 O 0.71405(10) 0.62118(13) 0.38778(8)
C112_6 C 0.77761(13) 0.60202(18) 0.40480(13)
C113_6 C 0.68929(15) 0.60367(19) 0.40579(12)
C115_6 C 0.81257(6) 0.61947(10) 0.42076(7)
C116_6 C 0.67161(8) 0.61955(10) 0.42418(7)
C119_6 C 0.84166(8) 0.63775(11) 0.40201(5)
C120_6 C 0.81574(7) 0.61781(11) 0.45363(7)
C121_6 C 0.64538(9) 0.59993(11) 0.44553(8)
C122_6 C 0.68113(7) 0.65365(11) 0.41885(7)
H59_6 H 0.8395 0.6388 0.3798
C125_6 C 0.87393(7) 0.65438(11) 0.41612(7)
C126_6 C 0.84801(8) 0.63443(11) 0.46774(5)
H60_6 H 0.7961 0.6054 0.4663
H61_6 H 0.6390 0.5769 0.4491
C127_6 C 0.62866(8) 0.61441(11) 0.46156(7)
C128_6 C 0.66442(9) 0.66813(11) 0.43488(7)
H62_6 H 0.6989 0.6669 0.4044
H63_6 H 0.8936 0.6667 0.4034
C130_6 C 0.87710(6) 0.65272(10) 0.44898(7)
H64_6 H 0.8502 0.6333 0.4899
H65_6 H 0.6110 0.6012 0.4760
C131_6 C 0.63818(8) 0.64851(10) 0.45624(7)
H66_6 H 0.6709 0.6912 0.4313
C133_6 C 0.91186(6) 0.67100(10) 0.46510(7)
C134_6 C 0.61984(8) 0.66438(10) 0.47334(7)
C138_6 C 0.94075(8) 0.67463(11) 0.44951(5)
C139_6 C 0.91470(6) 0.68383(9) 0.49582(7)
C140_6 C 0.60857(9) 0.65546(11) 0.50463(7)
C141_6 C 0.61491(8) 0.68868(11) 0.45745(5)
H69_6 H 0.9389 0.6660 0.4287
C146_6 C 0.97248(6) 0.69109(9) 0.46463(7)
C147_6 C 0.94643(8) 0.70028(11) 0.51095(5)
H70_6 H 0.8952 0.6814 0.5063
H71_6 H 0.6119 0.6390 0.5153
C148_6 C 0.59238(8) 0.67085(11) 0.52002(5)
C149_6 C 0.59871(9) 0.70406(11) 0.47284(7)
H72_6 H 0.6226 0.6947 0.4363
C156_6 C 0.97532(6) 0.70391(10) 0.49535(7)
C158_6 C 0.94898(9) 0.71140(13) 0.54559(6)
C159_6 C 0.58745(8) 0.69515(10) 0.50413(7)
C160_6 C 0.58115(12) 0.66214(17) 0.55384(11)
C161_6 C 0.59388(13) 0.73107(18) 0.45552(10)
H74_6 H 0.9968 0.7150 0.5056
C172_6 C 0.91970(7) 0.69577(15) 0.56450(9)
C173_6 C 0.97944(7) 0.73781(11) 0.55800(7)
H75_6 H 0.5765 0.7055 0.5145
C174_6 C 0.56748(16) 0.62921(21) 0.56539(12)
C175_6 C 0.58252(13) 0.68626(18) 0.57450(12)
C176_6 C 0.6171(2) 0.7516(4) 0.4322(2)
C177_6 C 0.57395(16) 0.74342(21) 0.46763(12)
C188_6 C 0.92088(8) 0.70654(15) 0.59581(9)
C189_6 C 0.98061(8) 0.74857(12) 0.58931(8)
H83_6 H 0.9993 0.7484 0.5452
H84_6 H 0.5658 0.6120 0.5515
C190_6 C 0.55623(15) 0.62045(26) 0.59654(13)
H85_6 H 0.5910 0.7088 0.5672
C191_6 C 0.57167(13) 0.67821(23) 0.60629(12)
C192_6 C 0.59870(26) 0.76339(31) 0.4057(2)
H86_6 H 0.5633 0.7354 0.4875
C193_6 C 0.56910(19) 0.76756(23) 0.45110(12)
C199_6 C 0.95133(10) 0.73294(15) 0.60821(6)
C200_6 C 0.55819(12) 0.64491(22) 0.61725(11)
H95_6 H 0.5473 0.5977 0.6034
H96_6 H 0.5736 0.6955 0.6201
C201_6 C 0.58481(18) 0.78011(22) 0.42267(12)
H97_6 H 0.5548 0.7751 0.4597
C207_6 C 0.95071(12) 0.74549(18) 0.64187(12)
C208_6 C 0.54555(13) 0.63541(25) 0.65001(12)
C209_6 C 0.58002(22) 0.80593(28) 0.40457(15)
O48_6 O 0.92512(17) 0.72858(26) 0.65927(19)
O49_6 O 0.97844(10) 0.76604(13) 0.65489(8)
O58_3 O 0.93917(10) 0.80392(13) 0.68054(9)
O59_3 O 0.98372(9) 0.81662(13) 0.71028(9)
H115_6 H 0.796354 0.102059 0.610629
H116_6 H 0.664253 0.0204641 0.427724
H117_6 H 0.779257 0.104163 0.55479
H127_6 H 0.644057 0.758906 0.431821
H132_6 H 0.979536 0.643789 0.427724
H133_6 H 0.895837 0.675094 0.55479
H134_6 H 0.597505 0.759087 0.380068
H135_6 H 0.897941 0.694295 0.610629
C55_6 C 0.69110(12) 0.99630(12) 0.44752(10)
C60_6 C 0.66540(17) 0.9969(2) 0.42967(18)
C61_6 C 0.6949(2) 0.96748(17) 0.4490(2)
C68_6 C 0.6412(2) 0.9672(2) 0.4143(2)
C69_6 C 0.6713(2) 0.9379(2) 0.4330(2)
C76_6 C 0.64207(18) 0.93805(11) 0.41556(10)
H41_6 H 0.7653 0.9988 0.5977
C80_6 C 0.61744(16) 0.90677(11) 0.39789(12)
C87_6 C 0.88457(8) 0.99681(9) 0.71018(9)
C89_6 C 0.91148(10) 0.99002(8) 0.71109(9)
H46_6 H 0.8637 0.9819 0.7203
H48_6 H 0.9088 0.9705 0.7218
C135_6 C 0.9668(2) 0.97261(26) 0.6924(3)
C143_6 C 0.99390(12) 0.96662(16) 0.69727(15)
C152_6 C 0.98792(10) 0.93025(13) 0.69608(10)
C164_6 C 0.95907(9) 0.90535(12) 0.68015(10)
C180_6 C 0.95229(8) 0.87166(13) 0.67924(9)
H78_6 H 0.9442 0.9113 0.6700
C195_6 C 0.97435(10) 0.86286(13) 0.69426(9)
H89_6 H 0.9328 0.8548 0.6684
C203_6 C 0.96594(15) 0.82645(21) 0.69544(13)
H114_6 H 0.620759 0.96778 0.400856
H118_6 H 0.673842 0.915133 0.433129
H121_6 H 0.715859 0.968055 0.462464
H129_6 H 0.941634 0.951984 0.685109
loop_
_geom_bond_atom_site_label_1
_geom_bond_atom_site_label_2
_geom_bond_site_symmetry_1
_geom_bond_site_symmetry_2
O1 C2 1_555 1_555
N1 C7 1_555 1_555
C2 C3 1_555 1_555
C3 H4 1_555 1_555
C4 C3 1_555 1_555
C5 C4 1_555 1_555
H5 C5 1_555 1_555
C6 C5 1_555 1_555
H6 C6 1_555 1_555
C7 C2 1_555 1_555
N2 C4 1_555 1_555
C8 N1 1_555 1_555
C9 C8 1_555 1_555
C10 C9 1_555 1_555
C11 C10 1_555 1_555
C12 C11 1_555 1_555
H7 C12 1_555 1_555
C13 O1 1_555 1_555
C14 C10 1_555 1_555
H8 C14 1_555 1_555
C15 C14 1_555 1_555
H9 C15 1_555 1_555
C16 C15 1_555 1_555
H10 C16 1_555 1_555
C17 C9 1_555 1_555
H11 C17 1_555 1_555
N3 C11 1_555 1_555
H12 N3 1_555 1_555
H13 N3 1_555 1_555
C19 C20 1_555 1_555
C20 N2 1_555 1_555
H16 C20 1_555 1_555
C6 C7 1_555 1_555
C8 C13 1_555 1_555
C12 C13 1_555 1_555
C16 C17 1_555 1_555
C19 H111 1_555 1_555
H2 C1 1_555 1_555
H3 C1 1_555 1_555
C18 C1 1_555 1_555
H14 C18 1_555 1_555
H15 C18 1_555 1_555
O1_2 C2_2 1_555 1_555
N1_2 C7_2 1_555 1_555
C2_2 C3_2 1_555 1_555
C3_2 H4_2 1_555 1_555
C4_2 C3_2 1_555 1_555
C5_2 C4_2 1_555 1_555
H5_2 C5_2 1_555 1_555
C6_2 C5_2 1_555 1_555
H6_2 C6_2 1_555 1_555
C7_2 C2_2 1_555 1_555
N2_2 C4_2 1_555 1_555
C8_2 N1_2 1_555 1_555
C9_2 C8_2 1_555 1_555
C10_2 C9_2 1_555 1_555
C11_2 C10_2 1_555 1_555
C12_2 C11_2 1_555 1_555
H7_2 C12_2 1_555 1_555
C13_2 O1_2 1_555 1_555
C14_2 C10_2 1_555 1_555
H8_2 C14_2 1_555 1_555
C15_2 C14_2 1_555 1_555
H9_2 C15_2 1_555 1_555
C16_2 C15_2 1_555 1_555
H10_2 C16_2 1_555 1_555
C17_2 C9_2 1_555 1_555
H11_2 C17_2 1_555 1_555
N3_2 C11_2 1_555 1_555
H12_2 N3_2 1_555 1_555
H13_2 N3_2 1_555 1_555
C19_2 C20_2 1_555 1_555
C20_2 N2_2 1_555 1_555
H16_2 C20_2 1_555 1_555
C6_2 C7_2 1_555 1_555
C8_2 C13_2 1_555 1_555
C12_2 C13_2 1_555 1_555
C16_2 C17_2 1_555 1_555
C19_2 H111_2 1_555 1_555
H2_2 C1_2 1_555 1_555
H3_2 C1_2 1_555 1_555
C18_2 C1_2 1_555 1_555
H14_2 C18_2 1_555 1_555
H15_2 C18_2 1_555 1_555
O1_3 C2_3 1_555 1_555
N1_3 C7_3 1_555 1_555
C2_3 C3_3 1_555 1_555
C3_3 H4_3 1_555 1_555
C4_3 C3_3 1_555 1_555
C5_3 C4_3 1_555 1_555
H5_3 C5_3 1_555 1_555
C6_3 C5_3 1_555 1_555
H6_3 C6_3 1_555 1_555
C7_3 C2_3 1_555 1_555
N2_3 C4_3 1_555 1_555
C8_3 N1_3 1_555 1_555
C9_3 C8_3 1_555 1_555
C10_3 C9_3 1_555 1_555
C11_3 C10_3 1_555 1_555
C12_3 C11_3 1_555 1_555
H7_3 C12_3 1_555 1_555
C13_3 O1_3 1_555 1_555
C14_3 C10_3 1_555 1_555
H8_3 C14_3 1_555 1_555
C15_3 C14_3 1_555 1_555
H9_3 C15_3 1_555 1_555
C16_3 C15_3 1_555 1_555
H10_3 C16_3 1_555 1_555
C17_3 C9_3 1_555 1_555
H11_3 C17_3 1_555 1_555
N3_3 C11_3 1_555 1_555
H12_3 N3_3 1_555 1_555
H13_3 N3_3 1_555 1_555
C19_3 C20_3 1_555 1_555
C20_3 N2_3 1_555 1_555
H16_3 C20_3 1_555 1_555
C6_3 C7_3 1_555 1_555
C8_3 C13_3 1_555 1_555
C12_3 C13_3 1_555 1_555
C16_3 C17_3 1_555 1_555
C19_3 H111_3 1_555 1_555
H2_3 C1_3 1_555 1_555
H3_3 C1_3 1_555 1_555
C18_3 C1_3 1_555 1_555
H14_3 C18_3 1_555 1_555
H15_3 C18_3 1_555 1_555
C1_4 H1_4 1_555 1_555
H2_4 C1_4 1_555 1_555
H3_4 C1_4 1_555 1_555
O1_4 C2_4 1_555 1_555
N1_4 C7_4 1_555 1_555
C2_4 C3_4 1_555 1_555
C3_4 H4_4 1_555 1_555
C4_4 C3_4 1_555 1_555
C5_4 C4_4 1_555 1_555
H5_4 C5_4 1_555 1_555
C6_4 C5_4 1_555 1_555
H6_4 C6_4 1_555 1_555
C7_4 C2_4 1_555 1_555
N2_4 C4_4 1_555 1_555
C8_4 N1_4 1_555 1_555
C9_4 C8_4 1_555 1_555
C10_4 C9_4 1_555 1_555
C11_4 C10_4 1_555 1_555
C12_4 C11_4 1_555 1_555
H7_4 C12_4 1_555 1_555
C13_4 O1_4 1_555 1_555
C14_4 C10_4 1_555 1_555
H8_4 C14_4 1_555 1_555
C15_4 C14_4 1_555 1_555
H9_4 C15_4 1_555 1_555
C16_4 C15_4 1_555 1_555
H10_4 C16_4 1_555 1_555
C17_4 C9_4 1_555 1_555
H11_4 C17_4 1_555 1_555
N3_4 C11_4 1_555 1_555
H12_4 N3_4 1_555 1_555
H13_4 N3_4 1_555 1_555
C18_4 C1_4 1_555 1_555
H14_4 C18_4 1_555 1_555
H15_4 C18_4 1_555 1_555
C19_4 C20_4 1_555 1_555
C20_4 N2_4 1_555 1_555
H16_4 C20_4 1_555 1_555
H17_4 C20_4 1_555 1_555
C6_4 C7_4 1_555 1_555
N2_4 C18_4 1_555 1_555
C8_4 C13_4 1_555 1_555
C12_4 C13_4 1_555 1_555
C16_4 C17_4 1_555 1_555
C19_4 H111_4 1_555 1_555
C19_4 H112_4 1_555 1_555
C19_4 H113_4 1_555 1_555
O1_5 C2_5 1_555 1_555
C8_5 N1_5 1_555 1_555
C9_5 C8_5 1_555 1_555
C10_5 C9_5 1_555 1_555
C11_5 C10_5 1_555 1_555
C12_5 C11_5 1_555 1_555
H7_5 C12_5 1_555 1_555
C13_5 O1_5 1_555 1_555
C14_5 C10_5 1_555 1_555
H8_5 C14_5 1_555 1_555
C15_5 C14_5 1_555 1_555
H9_5 C15_5 1_555 1_555
C16_5 C15_5 1_555 1_555
H10_5 C16_5 1_555 1_555
C17_5 C9_5 1_555 1_555
H11_5 C17_5 1_555 1_555
N3_5 C11_5 1_555 1_555
H12_5 N3_5 1_555 1_555
H13_5 N3_5 1_555 1_555
C8_5 C13_5 1_555 1_555
C12_5 C13_5 1_555 1_555
C16_5 C17_5 1_555 1_555
C1_5 H1_5 1_555 1_555
H2_5 C1_5 1_555 1_555
H3_5 C1_5 1_555 1_555
C4_5 C3_5 1_555 1_555
C5_5 C4_5 1_555 1_555
H5_5 C5_5 1_555 1_555
C6_5 C5_5 1_555 1_555
H6_5 C6_5 1_555 1_555
N2_5 C4_5 1_555 1_555
C18_5 C1_5 1_555 1_555
H15_5 C18_5 1_555 1_555
C19_5 C20_5 1_555 1_555
C20_5 N2_5 1_555 1_555
H16_5 C20_5 1_555 1_555
H17_5 C20_5 1_555 1_555
C6_5 C7_5 1_555 1_555
N2_5 C18_5 1_555 1_555
C19_5 H111_5 1_555 1_555
C19_5 H112_5 1_555 1_555
C19_5 H113_5 1_555 1_555
C1_6 H1_6 1_555 1_555
H2_6 C1_6 1_555 1_555
H3_6 C1_6 1_555 1_555
C4_6 C3_6 1_555 1_555
C5_6 C4_6 1_555 1_555
H5_6 C5_6 1_555 1_555
C6_6 C5_6 1_555 1_555
H6_6 C6_6 1_555 1_555
N2_6 C4_6 1_555 1_555
C18_6 C1_6 1_555 1_555
H15_6 C18_6 1_555 1_555
C19_6 C20_6 1_555 1_555
C20_6 N2_6 1_555 1_555
H16_6 C20_6 1_555 1_555
H17_6 C20_6 1_555 1_555
C6_6 C7_6 1_555 1_555
N2_6 C18_6 1_555 1_555
C19_6 H111_6 1_555 1_555
C19_6 H112_6 1_555 1_555
C19_6 H113_6 1_555 1_555
O1_6 C2_6 1_555 1_555
C8_6 N1_6 1_555 1_555
C9_6 C8_6 1_555 1_555
C10_6 C9_6 1_555 1_555
C11_6 C10_6 1_555 1_555
C12_6 C11_6 1_555 1_555
H7_6 C12_6 1_555 1_555
C13_6 O1_6 1_555 1_555
C14_6 C10_6 1_555 1_555
H8_6 C14_6 1_555 1_555
C15_6 C14_6 1_555 1_555
H9_6 C15_6 1_555 1_555
C16_6 C15_6 1_555 1_555
H10_6 C16_6 1_555 1_555
C17_6 C9_6 1_555 1_555
H11_6 C17_6 1_555 1_555
N3_6 C11_6 1_555 1_555
H12_6 N3_6 1_555 1_555
H13_6 N3_6 1_555 1_555
C8_6 C13_6 1_555 1_555
C12_6 C13_6 1_555 1_555
C16_6 C17_6 1_555 1_555
C1_7 H1_7 1_555 1_555
H2_7 C1_7 1_555 1_555
H3_7 C1_7 1_555 1_555
O1_7 C2_7 1_555 1_555
N1_7 C7_7 1_555 1_555
C2_7 C3_7 1_555 1_555
C3_7 H4_7 1_555 1_555
C4_7 C3_7 1_555 1_555
C5_7 C4_7 1_555 1_555
H5_7 C5_7 1_555 1_555
C6_7 C5_7 1_555 1_555
H6_7 C6_7 1_555 1_555
C7_7 C2_7 1_555 1_555
N2_7 C4_7 1_555 1_555
C8_7 N1_7 1_555 1_555
C9_7 C8_7 1_555 1_555
C10_7 C9_7 1_555 1_555
C11_7 C10_7 1_555 1_555
C12_7 C11_7 1_555 1_555
H7_7 C12_7 1_555 1_555
C13_7 O1_7 1_555 1_555
C14_7 C10_7 1_555 1_555
H8_7 C14_7 1_555 1_555
C15_7 C14_7 1_555 1_555
H9_7 C15_7 1_555 1_555
C16_7 C15_7 1_555 1_555
H10_7 C16_7 1_555 1_555
C17_7 C9_7 1_555 1_555
H11_7 C17_7 1_555 1_555
N3_7 C11_7 1_555 1_555
H12_7 N3_7 1_555 1_555
H13_7 N3_7 1_555 1_555
C18_7 C1_7 1_555 1_555
H14_7 C18_7 1_555 1_555
H15_7 C18_7 1_555 1_555
C19_7 C20_7 1_555 1_555
C20_7 N2_7 1_555 1_555
H16_7 C20_7 1_555 1_555
H17_7 C20_7 1_555 1_555
C6_7 C7_7 1_555 1_555
N2_7 C18_7 1_555 1_555
C8_7 C13_7 1_555 1_555
C12_7 C13_7 1_555 1_555
C16_7 C17_7 1_555 1_555
C19_7 H111_7 1_555 1_555
C19_7 H112_7 1_555 1_555
C19_7 H113_7 1_555 1_555
C1_8 H1_8 1_555 1_555
H2_8 C1_8 1_555 1_555
H3_8 C1_8 1_555 1_555
O1_8 C2_8 1_555 1_555
N1_8 C7_8 1_555 1_555
C2_8 C3_8 1_555 1_555
C3_8 H4_8 1_555 1_555
C4_8 C3_8 1_555 1_555
C5_8 C4_8 1_555 1_555
H5_8 C5_8 1_555 1_555
C6_8 C5_8 1_555 1_555
H6_8 C6_8 1_555 1_555
C7_8 C2_8 1_555 1_555
N2_8 C4_8 1_555 1_555
C8_8 N1_8 1_555 1_555
C9_8 C8_8 1_555 1_555
C10_8 C9_8 1_555 1_555
C11_8 C10_8 1_555 1_555
C12_8 C11_8 1_555 1_555
H7_8 C12_8 1_555 1_555
C13_8 O1_8 1_555 1_555
C14_8 C10_8 1_555 1_555
H8_8 C14_8 1_555 1_555
C15_8 C14_8 1_555 1_555
H9_8 C15_8 1_555 1_555
C16_8 C15_8 1_555 1_555
H10_8 C16_8 1_555 1_555
C17_8 C9_8 1_555 1_555
H11_8 C17_8 1_555 1_555
N3_8 C11_8 1_555 1_555
H12_8 N3_8 1_555 1_555
H13_8 N3_8 1_555 1_555
C18_8 C1_8 1_555 1_555
H14_8 C18_8 1_555 1_555
H15_8 C18_8 1_555 1_555
C19_8 C20_8 1_555 1_555
C20_8 N2_8 1_555 1_555
H16_8 C20_8 1_555 1_555
H17_8 C20_8 1_555 1_555
C6_8 C7_8 1_555 1_555
N2_8 C18_8 1_555 1_555
C8_8 C13_8 1_555 1_555
C12_8 C13_8 1_555 1_555
C16_8 C17_8 1_555 1_555
C19_8 H111_8 1_555 1_555
C19_8 H112_8 1_555 1_555
C19_8 H113_8 1_555 1_555
C1_9 H1_9 1_555 1_555
H2_9 C1_9 1_555 1_555
H3_9 C1_9 1_555 1_555
O1_9 C2_9 1_555 1_555
N1_9 C7_9 1_555 1_555
C2_9 C3_9 1_555 1_555
C3_9 H4_9 1_555 1_555
C4_9 C3_9 1_555 1_555
C5_9 C4_9 1_555 1_555
H5_9 C5_9 1_555 1_555
C6_9 C5_9 1_555 1_555
H6_9 C6_9 1_555 1_555
C7_9 C2_9 1_555 1_555
N2_9 C4_9 1_555 1_555
C8_9 N1_9 1_555 1_555
C9_9 C8_9 1_555 1_555
C10_9 C9_9 1_555 1_555
C11_9 C10_9 1_555 1_555
C12_9 C11_9 1_555 1_555
H7_9 C12_9 1_555 1_555
C13_9 O1_9 1_555 1_555
C14_9 C10_9 1_555 1_555
H8_9 C14_9 1_555 1_555
C15_9 C14_9 1_555 1_555
H9_9 C15_9 1_555 1_555
C16_9 C15_9 1_555 1_555
H10_9 C16_9 1_555 1_555
C17_9 C9_9 1_555 1_555
H11_9 C17_9 1_555 1_555
N3_9 C11_9 1_555 1_555
H12_9 N3_9 1_555 1_555
H13_9 N3_9 1_555 1_555
C18_9 C1_9 1_555 1_555
H14_9 C18_9 1_555 1_555
H15_9 C18_9 1_555 1_555
C19_9 C20_9 1_555 1_555
C20_9 N2_9 1_555 1_555
H16_9 C20_9 1_555 1_555
H17_9 C20_9 1_555 1_555
C6_9 C7_9 1_555 1_555
N2_9 C18_9 1_555 1_555
C8_9 C13_9 1_555 1_555
C12_9 C13_9 1_555 1_555
C16_9 C17_9 1_555 1_555
C19_9 H111_9 1_555 1_555
C19_9 H112_9 1_555 1_555
C19_9 H113_9 1_555 1_555
H2_10 C1_10 1_555 1_555
H3_10 C1_10 1_555 1_555
C18_10 C1_10 1_555 1_555
H14_10 C18_10 1_555 1_555
H15_10 C18_10 1_555 1_555
O1_10 C2_10 1_555 1_555
N1_10 C7_10 1_555 1_555
C2_10 C3_10 1_555 1_555
C3_10 H4_10 1_555 1_555
C4_10 C3_10 1_555 1_555
C5_10 C4_10 1_555 1_555
H5_10 C5_10 1_555 1_555
C6_10 C5_10 1_555 1_555
H6_10 C6_10 1_555 1_555
C7_10 C2_10 1_555 1_555
N2_10 C4_10 1_555 1_555
C8_10 N1_10 1_555 1_555
C9_10 C8_10 1_555 1_555
C10_10 C9_10 1_555 1_555
C11_10 C10_10 1_555 1_555
C12_10 C11_10 1_555 1_555
H7_10 C12_10 1_555 1_555
C13_10 O1_10 1_555 1_555
C14_10 C10_10 1_555 1_555
H8_10 C14_10 1_555 1_555
C15_10 C14_10 1_555 1_555
H9_10 C15_10 1_555 1_555
C16_10 C15_10 1_555 1_555
H10_10 C16_10 1_555 1_555
C17_10 C9_10 1_555 1_555
H11_10 C17_10 1_555 1_555
N3_10 C11_10 1_555 1_555
H12_10 N3_10 1_555 1_555
H13_10 N3_10 1_555 1_555
C19_10 C20_10 1_555 1_555
C20_10 N2_10 1_555 1_555
H16_10 C20_10 1_555 1_555
C6_10 C7_10 1_555 1_555
C8_10 C13_10 1_555 1_555
C12_10 C13_10 1_555 1_555
C16_10 C17_10 1_555 1_555
C19_10 H111_10 1_555 1_555
H2_11 C1_11 1_555 1_555
H3_11 C1_11 1_555 1_555
C18_11 C1_11 1_555 1_555
H14_11 C18_11 1_555 1_555
H15_11 C18_11 1_555 1_555
O1_11 C2_11 1_555 1_555
N1_11 C7_11 1_555 1_555
C2_11 C3_11 1_555 1_555
C3_11 H4_11 1_555 1_555
C4_11 C3_11 1_555 1_555
C5_11 C4_11 1_555 1_555
H5_11 C5_11 1_555 1_555
C6_11 C5_11 1_555 1_555
H6_11 C6_11 1_555 1_555
C7_11 C2_11 1_555 1_555
N2_11 C4_11 1_555 1_555
C8_11 N1_11 1_555 1_555
C9_11 C8_11 1_555 1_555
C10_11 C9_11 1_555 1_555
C11_11 C10_11 1_555 1_555
C12_11 C11_11 1_555 1_555
H7_11 C12_11 1_555 1_555
C13_11 O1_11 1_555 1_555
C14_11 C10_11 1_555 1_555
H8_11 C14_11 1_555 1_555
C15_11 C14_11 1_555 1_555
H9_11 C15_11 1_555 1_555
C16_11 C15_11 1_555 1_555
H10_11 C16_11 1_555 1_555
C17_11 C9_11 1_555 1_555
H11_11 C17_11 1_555 1_555
N3_11 C11_11 1_555 1_555
H12_11 N3_11 1_555 1_555
H13_11 N3_11 1_555 1_555
C19_11 C20_11 1_555 1_555
C20_11 N2_11 1_555 1_555
H16_11 C20_11 1_555 1_555
C6_11 C7_11 1_555 1_555
C8_11 C13_11 1_555 1_555
C12_11 C13_11 1_555 1_555
C16_11 C17_11 1_555 1_555
C19_11 H111_11 1_555 1_555
H2_12 C1_12 1_555 1_555
H3_12 C1_12 1_555 1_555
C18_12 C1_12 1_555 1_555
H14_12 C18_12 1_555 1_555
H15_12 C18_12 1_555 1_555
O1_12 C2_12 1_555 1_555
N1_12 C7_12 1_555 1_555
C2_12 C3_12 1_555 1_555
C3_12 H4_12 1_555 1_555
C4_12 C3_12 1_555 1_555
C5_12 C4_12 1_555 1_555
H5_12 C5_12 1_555 1_555
C6_12 C5_12 1_555 1_555
H6_12 C6_12 1_555 1_555
C7_12 C2_12 1_555 1_555
N2_12 C4_12 1_555 1_555
C8_12 N1_12 1_555 1_555
C9_12 C8_12 1_555 1_555
C10_12 C9_12 1_555 1_555
C11_12 C10_12 1_555 1_555
C12_12 C11_12 1_555 1_555
H7_12 C12_12 1_555 1_555
C13_12 O1_12 1_555 1_555
C14_12 C10_12 1_555 1_555
H8_12 C14_12 1_555 1_555
C15_12 C14_12 1_555 1_555
H9_12 C15_12 1_555 1_555
C16_12 C15_12 1_555 1_555
H10_12 C16_12 1_555 1_555
C17_12 C9_12 1_555 1_555
H11_12 C17_12 1_555 1_555
N3_12 C11_12 1_555 1_555
H12_12 N3_12 1_555 1_555
H13_12 N3_12 1_555 1_555
C19_12 C20_12 1_555 1_555
C20_12 N2_12 1_555 1_555
H16_12 C20_12 1_555 1_555
C6_12 C7_12 1_555 1_555
C8_12 C13_12 1_555 1_555
C12_12 C13_12 1_555 1_555
C16_12 C17_12 1_555 1_555
C19_12 H111_12 1_555 1_555
C1_13 H1_13 1_555 1_555
H2_13 C1_13 1_555 1_555
H3_13 C1_13 1_555 1_555
O1_13 C2_13 1_555 1_555
N1_13 C7_13 1_555 1_555
C2_13 C3_13 1_555 1_555
C3_13 H4_13 1_555 1_555
C4_13 C3_13 1_555 1_555
C5_13 C4_13 1_555 1_555
H5_13 C5_13 1_555 1_555
C6_13 C5_13 1_555 1_555
H6_13 C6_13 1_555 1_555
C7_13 C2_13 1_555 1_555
N2_13 C4_13 1_555 1_555
C8_13 N1_13 1_555 1_555
C9_13 C8_13 1_555 1_555
C10_13 C9_13 1_555 1_555
C11_13 C10_13 1_555 1_555
C12_13 C11_13 1_555 1_555
H7_13 C12_13 1_555 1_555
C13_13 O1_13 1_555 1_555
C14_13 C10_13 1_555 1_555
H8_13 C14_13 1_555 1_555
C15_13 C14_13 1_555 1_555
H9_13 C15_13 1_555 1_555
C16_13 C15_13 1_555 1_555
H10_13 C16_13 1_555 1_555
C17_13 C9_13 1_555 1_555
H11_13 C17_13 1_555 1_555
N3_13 C11_13 1_555 1_555
H12_13 N3_13 1_555 1_555
H13_13 N3_13 1_555 1_555
C18_13 C1_13 1_555 1_555
H14_13 C18_13 1_555 1_555
H15_13 C18_13 1_555 1_555
C19_13 C20_13 1_555 1_555
C20_13 N2_13 1_555 1_555
H16_13 C20_13 1_555 1_555
H17_13 C20_13 1_555 1_555
C6_13 C7_13 1_555 1_555
N2_13 C18_13 1_555 1_555
C8_13 C13_13 1_555 1_555
C12_13 C13_13 1_555 1_555
C16_13 C17_13 1_555 1_555
C19_13 H111_13 1_555 1_555
C19_13 H112_13 1_555 1_555
C19_13 H113_13 1_555 1_555
C1_14 H1_14 1_555 1_555
H2_14 C1_14 1_555 1_555
H3_14 C1_14 1_555 1_555
C4_14 C3_14 1_555 1_555
C5_14 C4_14 1_555 1_555
H5_14 C5_14 1_555 1_555
C6_14 C5_14 1_555 1_555
H6_14 C6_14 1_555 1_555
N2_14 C4_14 1_555 1_555
C18_14 C1_14 1_555 1_555
H15_14 C18_14 1_555 1_555
C19_14 C20_14 1_555 1_555
C20_14 N2_14 1_555 1_555
H16_14 C20_14 1_555 1_555
H17_14 C20_14 1_555 1_555
C6_14 C7_14 1_555 1_555
N2_14 C18_14 1_555 1_555
C19_14 H111_14 1_555 1_555
C19_14 H112_14 1_555 1_555
C19_14 H113_14 1_555 1_555
O1_14 C2_14 1_555 1_555
C8_14 N1_14 1_555 1_555
C9_14 C8_14 1_555 1_555
C10_14 C9_14 1_555 1_555
C11_14 C10_14 1_555 1_555
C12_14 C11_14 1_555 1_555
H7_14 C12_14 1_555 1_555
C13_14 O1_14 1_555 1_555
C14_14 C10_14 1_555 1_555
H8_14 C14_14 1_555 1_555
C15_14 C14_14 1_555 1_555
H9_14 C15_14 1_555 1_555
C16_14 C15_14 1_555 1_555
H10_14 C16_14 1_555 1_555
C17_14 C9_14 1_555 1_555
H11_14 C17_14 1_555 1_555
N3_14 C11_14 1_555 1_555
H12_14 N3_14 1_555 1_555
H13_14 N3_14 1_555 1_555
C8_14 C13_14 1_555 1_555
C12_14 C13_14 1_555 1_555
C16_14 C17_14 1_555 1_555
O1_15 C2_15 1_555 1_555
C8_15 N1_15 1_555 1_555
C9_15 C8_15 1_555 1_555
C10_15 C9_15 1_555 1_555
C11_15 C10_15 1_555 1_555
C12_15 C11_15 1_555 1_555
H7_15 C12_15 1_555 1_555
C13_15 O1_15 1_555 1_555
C14_15 C10_15 1_555 1_555
H8_15 C14_15 1_555 1_555
C15_15 C14_15 1_555 1_555
H9_15 C15_15 1_555 1_555
C16_15 C15_15 1_555 1_555
H10_15 C16_15 1_555 1_555
C17_15 C9_15 1_555 1_555
H11_15 C17_15 1_555 1_555
N3_15 C11_15 1_555 1_555
H12_15 N3_15 1_555 1_555
H13_15 N3_15 1_555 1_555
C8_15 C13_15 1_555 1_555
C12_15 C13_15 1_555 1_555
C16_15 C17_15 1_555 1_555
C1_15 H1_15 1_555 1_555
H2_15 C1_15 1_555 1_555
H3_15 C1_15 1_555 1_555
C4_15 C3_15 1_555 1_555
C5_15 C4_15 1_555 1_555
H5_15 C5_15 1_555 1_555
C6_15 C5_15 1_555 1_555
H6_15 C6_15 1_555 1_555
N2_15 C4_15 1_555 1_555
C18_15 C1_15 1_555 1_555
H15_15 C18_15 1_555 1_555
C19_15 C20_15 1_555 1_555
C20_15 N2_15 1_555 1_555
H16_15 C20_15 1_555 1_555
H17_15 C20_15 1_555 1_555
C6_15 C7_15 1_555 1_555
N2_15 C18_15 1_555 1_555
C19_15 H111_15 1_555 1_555
C19_15 H112_15 1_555 1_555
C19_15 H113_15 1_555 1_555
C1_16 H1_16 1_555 1_555
H2_16 C1_16 1_555 1_555
H3_16 C1_16 1_555 1_555
O1_16 C2_16 1_555 1_555
N1_16 C7_16 1_555 1_555
C2_16 C3_16 1_555 1_555
C3_16 H4_16 1_555 1_555
C4_16 C3_16 1_555 1_555
C5_16 C4_16 1_555 1_555
H5_16 C5_16 1_555 1_555
C6_16 C5_16 1_555 1_555
H6_16 C6_16 1_555 1_555
C7_16 C2_16 1_555 1_555
N2_16 C4_16 1_555 1_555
C8_16 N1_16 1_555 1_555
C9_16 C8_16 1_555 1_555
C10_16 C9_16 1_555 1_555
C11_16 C10_16 1_555 1_555
C12_16 C11_16 1_555 1_555
H7_16 C12_16 1_555 1_555
C13_16 O1_16 1_555 1_555
C14_16 C10_16 1_555 1_555
H8_16 C14_16 1_555 1_555
C15_16 C14_16 1_555 1_555
H9_16 C15_16 1_555 1_555
C16_16 C15_16 1_555 1_555
H10_16 C16_16 1_555 1_555
C17_16 C9_16 1_555 1_555
H11_16 C17_16 1_555 1_555
N3_16 C11_16 1_555 1_555
H12_16 N3_16 1_555 1_555
H13_16 N3_16 1_555 1_555
C18_16 C1_16 1_555 1_555
H14_16 C18_16 1_555 1_555
H15_16 C18_16 1_555 1_555
C19_16 C20_16 1_555 1_555
C20_16 N2_16 1_555 1_555
H16_16 C20_16 1_555 1_555
H17_16 C20_16 1_555 1_555
C6_16 C7_16 1_555 1_555
N2_16 C18_16 1_555 1_555
C8_16 C13_16 1_555 1_555
C12_16 C13_16 1_555 1_555
C16_16 C17_16 1_555 1_555
C19_16 H111_16 1_555 1_555
C19_16 H112_16 1_555 1_555
C19_16 H113_16 1_555 1_555
C1_17 H1_17 1_555 1_555
H2_17 C1_17 1_555 1_555
H3_17 C1_17 1_555 1_555
O1_17 C2_17 1_555 1_555
N1_17 C7_17 1_555 1_555
C2_17 C3_17 1_555 1_555
C3_17 H4_17 1_555 1_555
C4_17 C3_17 1_555 1_555
C5_17 C4_17 1_555 1_555
H5_17 C5_17 1_555 1_555
C6_17 C5_17 1_555 1_555
H6_17 C6_17 1_555 1_555
C7_17 C2_17 1_555 1_555
N2_17 C4_17 1_555 1_555
C8_17 N1_17 1_555 1_555
C9_17 C8_17 1_555 1_555
C10_17 C9_17 1_555 1_555
C11_17 C10_17 1_555 1_555
C12_17 C11_17 1_555 1_555
H7_17 C12_17 1_555 1_555
C13_17 O1_17 1_555 1_555
C14_17 C10_17 1_555 1_555
H8_17 C14_17 1_555 1_555
C15_17 C14_17 1_555 1_555
H9_17 C15_17 1_555 1_555
C16_17 C15_17 1_555 1_555
H10_17 C16_17 1_555 1_555
C17_17 C9_17 1_555 1_555
H11_17 C17_17 1_555 1_555
N3_17 C11_17 1_555 1_555
H12_17 N3_17 1_555 1_555
H13_17 N3_17 1_555 1_555
C18_17 C1_17 1_555 1_555
H14_17 C18_17 1_555 1_555
H15_17 C18_17 1_555 1_555
C19_17 C20_17 1_555 1_555
C20_17 N2_17 1_555 1_555
H16_17 C20_17 1_555 1_555
H17_17 C20_17 1_555 1_555
C6_17 C7_17 1_555 1_555
N2_17 C18_17 1_555 1_555
C8_17 C13_17 1_555 1_555
C12_17 C13_17 1_555 1_555
C16_17 C17_17 1_555 1_555
C19_17 H111_17 1_555 1_555
C19_17 H112_17 1_555 1_555
C19_17 H113_17 1_555 1_555
C1_18 H1_18 1_555 1_555
H2_18 C1_18 1_555 1_555
H3_18 C1_18 1_555 1_555
O1_18 C2_18 1_555 1_555
N1_18 C7_18 1_555 1_555
C2_18 C3_18 1_555 1_555
C3_18 H4_18 1_555 1_555
C4_18 C3_18 1_555 1_555
C5_18 C4_18 1_555 1_555
H5_18 C5_18 1_555 1_555
C6_18 C5_18 1_555 1_555
H6_18 C6_18 1_555 1_555
C7_18 C2_18 1_555 1_555
N2_18 C4_18 1_555 1_555
C8_18 N1_18 1_555 1_555
C9_18 C8_18 1_555 1_555
C10_18 C9_18 1_555 1_555
C11_18 C10_18 1_555 1_555
C12_18 C11_18 1_555 1_555
H7_18 C12_18 1_555 1_555
C13_18 O1_18 1_555 1_555
C14_18 C10_18 1_555 1_555
H8_18 C14_18 1_555 1_555
C15_18 C14_18 1_555 1_555
H9_18 C15_18 1_555 1_555
C16_18 C15_18 1_555 1_555
H10_18 C16_18 1_555 1_555
C17_18 C9_18 1_555 1_555
H11_18 C17_18 1_555 1_555
N3_18 C11_18 1_555 1_555
H12_18 N3_18 1_555 1_555
H13_18 N3_18 1_555 1_555
C18_18 C1_18 1_555 1_555
H14_18 C18_18 1_555 1_555
H15_18 C18_18 1_555 1_555
C19_18 C20_18 1_555 1_555
C20_18 N2_18 1_555 1_555
H16_18 C20_18 1_555 1_555
H17_18 C20_18 1_555 1_555
C6_18 C7_18 1_555 1_555
N2_18 C18_18 1_555 1_555
C8_18 C13_18 1_555 1_555
C12_18 C13_18 1_555 1_555
C16_18 C17_18 1_555 1_555
C19_18 H111_18 1_555 1_555
C19_18 H112_18 1_555 1_555
C19_18 H113_18 1_555 1_555
H34 C49 1_555 1_555
C68 C60 1_555 1_555
C76 C68 1_555 1_555
C80 C76 1_555 1_555
O10 C80 1_555 1_555
O11 C80 1_555 1_555
In2 O10 1_555 1_555
C94 C49 1_555 1_555
C96 C94 1_555 1_555
C99 C96 1_555 1_555
C100 C96 1_555 1_555
C103 C99 1_555 1_555
H51 C99 1_555 1_555
H52 C100 1_555 1_555
C104 C100 1_555 1_555
C107 C103 1_555 1_555
H55 C103 1_555 1_555
H56 C104 1_555 1_555
C109 C107 1_555 1_555
O20 C109 1_555 1_555
O21 C109 1_555 1_555
In6 O20 1_555 1_555
O11 In2 1_555 1_555
C104 C107 1_555 1_555
O21 In6 1_555 1_555
C68 H114 1_555 1_555
C60 H116 1_555 1_555
H50 C97 1_555 1_555
H53 C101 1_555 1_555
H61 C121 1_555 1_555
C127 C121 1_555 1_555
H65 C127 1_555 1_555
C131 C127 1_555 1_555
C134 C131 1_555 1_555
C140 C134 1_555 1_555
C141 C134 1_555 1_555
H71 C140 1_555 1_555
C148 C140 1_555 1_555
C149 C141 1_555 1_555
H72 C141 1_555 1_555
C159 C148 1_555 1_555
C160 C148 1_555 1_555
C161 C149 1_555 1_555
H75 C159 1_555 1_555
C174 C160 1_555 1_555
C175 C160 1_555 1_555
C176 C161 1_555 1_555
C177 C161 1_555 1_555
H84 C174 1_555 1_555
C190 C174 1_555 1_555
H85 C175 1_555 1_555
C191 C175 1_555 1_555
C192 C176 1_555 1_555
H86 C177 1_555 1_555
C193 C177 1_555 1_555
C200 C190 1_555 1_555
H95 C190 1_555 1_555
H96 C191 1_555 1_555
C201 C192 1_555 1_555
H97 C193 1_555 1_555
C208 C200 1_555 1_555
C209 C201 1_555 1_555
O50 C208 1_555 1_555
O51 C208 1_555 1_555
O52 C209 1_555 1_555
O53 C209 1_555 1_555
In13 O50 1_555 1_555
In2 O52 1_555 1_555
C128 C131 1_555 1_555
C149 C159 1_555 1_555
C191 C200 1_555 1_555
C193 C201 1_555 1_555
O51 In13 1_555 1_555
O53 In2 1_555 1_555
C176 H127 1_555 1_555
C192 H134 1_555 1_555
In1 O2 1_555 1_555
O2 C21 1_555 1_555
O3 In1 1_555 1_555
O4 In1 1_555 1_555
O5 In1 1_555 1_555
O6 In1 1_555 1_555
O7 In1 1_555 1_555
O8 In1 1_555 1_555
C21 O3 1_555 1_555
C22 O4 1_555 1_555
C23 O6 1_555 1_555
C24 C21 1_555 1_555
C25 C22 1_555 1_555
C26 C23 1_555 1_555
C27 C24 1_555 1_555
C28 C24 1_555 1_555
C30 C25 1_555 1_555
C31 C26 1_555 1_555
C32 C26 1_555 1_555
H18 C27 1_555 1_555
C33 C27 1_555 1_555
C34 C28 1_555 1_555
H19 C28 1_555 1_555
H21 C30 1_555 1_555
C38 C32 1_555 1_555
H23 C32 1_555 1_555
H24 C33 1_555 1_555
C39 C33 1_555 1_555
H25 C34 1_555 1_555
H29 C38 1_555 1_555
C42 C39 1_555 1_555
C44 C41 1_555 1_555
C45 C42 1_555 1_555
C46 C42 1_555 1_555
H30 C45 1_555 1_555
C50 C45 1_555 1_555
C51 C46 1_555 1_555
H31 C46 1_555 1_555
C54 C50 1_555 1_555
C55 C50 1_555 1_555
C56 C51 1_555 1_555
H35 C54 1_555 1_555
C61 C55 1_555 1_555
C62 C56 1_555 1_555
C63 C56 1_555 1_555
C69 C61 1_555 1_555
C70 C62 1_555 1_555
C71 C63 1_555 1_555
H37 C63 1_555 1_555
C77 C70 1_555 1_555
H41 C71 1_555 1_555
C81 C77 1_555 1_555
O12 C81 1_555 1_555
O13 C81 1_555 1_555
O16 C84 1_555 1_555
O17 C84 1_555 1_555
C84 C85 1_555 1_555
C85 C86 1_555 1_555
C86 H45 1_555 1_555
C87 C85 1_555 1_555
C88 C86 1_555 1_555
C89 C87 1_555 1_555
H46 C87 1_555 1_555
H47 C88 1_555 1_555
C90 C88 1_555 1_555
H48 C89 1_555 1_555
C91 C90 1_555 1_555
C92 C91 1_555 1_555
In3 O12 1_555 1_555
O24 In3 1_555 1_555
O25 In3 1_555 1_555
O26 In3 1_555 1_555
O27 In3 1_555 1_555
C123 C117 1_555 1_555
C129 C123 1_555 1_555
C132 C129 1_555 1_555
C135 C91 1_555 1_555
C136 C132 1_555 1_555
C137 C132 1_555 1_555
C142 C92 1_555 1_555
C143 C135 1_555 1_555
C144 C136 1_555 1_555
H67 C136 1_555 1_555
H68 C137 1_555 1_555
C145 C137 1_555 1_555
C150 C142 1_555 1_555
C151 C142 1_555 1_555
C152 C143 1_555 1_555
C153 C144 1_555 1_555
C154 C144 1_555 1_555
C155 C145 1_555 1_555
C162 C150 1_555 1_555
C163 C150 1_555 1_555
C164 C152 1_555 1_555
C165 C152 1_555 1_555
C166 C153 1_555 1_555
C167 C153 1_555 1_555
H73 C154 1_555 1_555
C168 C155 1_555 1_555
C169 C155 1_555 1_555
C178 C162 1_555 1_555
H76 C162 1_555 1_555
H77 C163 1_555 1_555
C179 C163 1_555 1_555
C180 C164 1_555 1_555
H78 C164 1_555 1_555
H79 C165 1_555 1_555
C181 C165 1_555 1_555
C182 C166 1_555 1_555
H80 C166 1_555 1_555
H81 C167 1_555 1_555
C183 C167 1_555 1_555
C184 C168 1_555 1_555
C185 C169 1_555 1_555
H82 C169 1_555 1_555
C194 C178 1_555 1_555
H87 C178 1_555 1_555
H88 C179 1_555 1_555
C195 C180 1_555 1_555
H89 C180 1_555 1_555
H90 C181 1_555 1_555
C196 C182 1_555 1_555
H91 C182 1_555 1_555
H92 C183 1_555 1_555
C197 C184 1_555 1_555
H93 C185 1_555 1_555
C202 C194 1_555 1_555
C203 C195 1_555 1_555
C204 C196 1_555 1_555
C205 C197 1_555 1_555
O36 C202 1_555 1_555
O37 C202 1_555 1_555
O38 C203 1_555 1_555
O39 C203 1_555 1_555
O42 C204 1_555 1_555
O43 C204 1_555 1_555
O44 C205 1_555 1_555
O45 C205 1_555 1_555
In8 O36 1_555 1_555
In9 O38 1_555 1_555
In6 O42 1_555 1_555
O54 In8 1_555 1_555
O55 In8 1_555 1_555
O56 In8 1_555 1_555
O57 In8 1_555 1_555
O62 In6 1_555 1_555
O63 In6 1_555 1_555
O66 In6 1_555 1_555
C210 O62 1_555 1_555
C211 C210 1_555 1_555
C212 C211 1_555 1_555
C213 C211 1_555 1_555
H98 C212 1_555 1_555
C214 C212 1_555 1_555
C215 C213 1_555 1_555
H99 C213 1_555 1_555
H100 C214 1_555 1_555
C216 C214 1_555 1_555
H101 C215 1_555 1_555
C217 C216 1_555 1_555
C218 C217 1_555 1_555
C219 C217 1_555 1_555
H102 C218 1_555 1_555
C220 C218 1_555 1_555
C221 C219 1_555 1_555
H103 C219 1_555 1_555
C222 C220 1_555 1_555
C223 C220 1_555 1_555
C224 C221 1_555 1_555
H104 C222 1_555 1_555
C225 C223 1_555 1_555
C226 C223 1_555 1_555
C227 C224 1_555 1_555
C228 C224 1_555 1_555
H105 C225 1_555 1_555
C229 C225 1_555 1_555
H106 C226 1_555 1_555
C230 C226 1_555 1_555
C231 C227 1_555 1_555
H107 C228 1_555 1_555
C232 C228 1_555 1_555
C233 C229 1_555 1_555
H108 C229 1_555 1_555
H109 C230 1_555 1_555
C234 C231 1_555 1_555
H110 C232 1_555 1_555
C235 C233 1_555 1_555
C236 C234 1_555 1_555
O68 C235 1_555 1_555
O69 C235 1_555 1_555
O70 C236 1_555 1_555
O71 C236 1_555 1_555
In15 O68 1_555 1_555
In16 O70 1_555 1_555
O5 C22 1_555 1_555
O7 C23 1_555 1_555
C34 C39 1_555 1_555
C38 C41 1_555 1_555
C51 C54 1_555 1_555
C71 C77 1_555 1_555
O13 In3 1_555 1_555
O16 In3 1_555 1_555
O17 In3 1_555 1_555
C89 C90 1_555 1_555
C143 C151 1_555 1_555
C145 C154 1_555 1_555
C179 C194 1_555 1_555
C181 C195 1_555 1_555
C183 C196 1_555 1_555
C185 C197 1_555 1_555
O37 In8 1_555 1_555
O39 In9 1_555 1_555
O43 In6 1_555 1_555
O44 In8 1_555 1_555
O45 In8 1_555 1_555
O63 C210 1_555 1_555
C215 C216 1_555 1_555
C221 C222 1_555 1_555
C230 C233 1_555 1_555
C232 C234 1_555 1_555
O69 In15 1_555 1_555
O71 In16 1_555 1_555
C70 H115 1_555 1_555
C62 H117 1_555 1_555
C69 H118 1_555 1_555
C61 H121 1_555 1_555
C92 H122 1_555 1_555
C123 H123 1_555 1_555
C117 H125 1_555 1_555
C135 H129 1_555 1_555
C168 H130 1_555 1_555
C151 H131 1_555 1_555
C184 H138 1_555 1_555
C227 H139 1_555 1_555
C231 H140 1_555 1_555
H20 C29 1_555 1_555
C35 C29 1_555 1_555
H26 C35 1_555 1_555
C40 C35 1_555 1_555
H28 C37 1_555 1_555
C43 C40 1_555 1_555
C47 C43 1_555 1_555
C48 C43 1_555 1_555
H32 C47 1_555 1_555
C52 C47 1_555 1_555
C53 C48 1_555 1_555
H33 C48 1_555 1_555
C57 C52 1_555 1_555
C58 C52 1_555 1_555
C59 C53 1_555 1_555
H36 C57 1_555 1_555
C64 C58 1_555 1_555
C65 C58 1_555 1_555
C66 C59 1_555 1_555
C67 C59 1_555 1_555
H38 C64 1_555 1_555
C72 C64 1_555 1_555
H39 C65 1_555 1_555
C73 C65 1_555 1_555
C74 C66 1_555 1_555
H40 C67 1_555 1_555
C75 C67 1_555 1_555
C78 C72 1_555 1_555
H42 C72 1_555 1_555
H43 C73 1_555 1_555
C79 C74 1_555 1_555
H44 C75 1_555 1_555
C82 C78 1_555 1_555
C83 C79 1_555 1_555
O14 C83 1_555 1_555
O15 C83 1_555 1_555
C95 C93 1_555 1_555
H49 C93 1_555 1_555
C98 C95 1_555 1_555
C102 C98 1_555 1_555
H54 C102 1_555 1_555
C106 C102 1_555 1_555
C108 C105 1_555 1_555
H58 C106 1_555 1_555
C110 C108 1_555 1_555
O18 C82 1_555 1_555
O19 C82 1_555 1_555
O22 C110 1_555 1_555
O23 C110 1_555 1_555
In4 O18 1_555 1_555
In5 O14 1_555 1_555
In7 O22 1_555 1_555
O28 In5 1_555 1_555
O29 In5 1_555 1_555
O30 In7 1_555 1_555
O31 In7 1_555 1_555
O32 In7 1_555 1_555
O33 In7 1_555 1_555
O34 In7 1_555 1_555
C111 O28 1_555 1_555
C112 O30 1_555 1_555
C113 O32 1_555 1_555
C114 C111 1_555 1_555
C115 C112 1_555 1_555
C116 C113 1_555 1_555
C118 C114 1_555 1_555
C119 C115 1_555 1_555
C120 C115 1_555 1_555
C122 C116 1_555 1_555
C124 C118 1_555 1_555
H59 C119 1_555 1_555
C125 C119 1_555 1_555
C126 C120 1_555 1_555
H60 C120 1_555 1_555
H62 C122 1_555 1_555
H63 C125 1_555 1_555
C130 C125 1_555 1_555
H64 C126 1_555 1_555
C133 C130 1_555 1_555
C138 C133 1_555 1_555
C139 C133 1_555 1_555
H69 C138 1_555 1_555
C146 C138 1_555 1_555
C147 C139 1_555 1_555
H70 C139 1_555 1_555
C156 C146 1_555 1_555
C157 C146 1_555 1_555
C158 C147 1_555 1_555
H74 C156 1_555 1_555
C170 C157 1_555 1_555
C171 C157 1_555 1_555
C172 C158 1_555 1_555
C173 C158 1_555 1_555
C186 C170 1_555 1_555
C187 C171 1_555 1_555
C188 C172 1_555 1_555
C189 C173 1_555 1_555
H83 C173 1_555 1_555
C198 C186 1_555 1_555
C199 C188 1_555 1_555
H94 C189 1_555 1_555
C206 C198 1_555 1_555
C207 C199 1_555 1_555
O40 In9 1_555 1_555
O41 In9 1_555 1_555
O46 C206 1_555 1_555
O47 C206 1_555 1_555
O48 C207 1_555 1_555
O49 C207 1_555 1_555
In9 O48 1_555 1_555
In16 O46 1_555 1_555
O60 In9 1_555 1_555
O61 In9 1_555 1_555
C36 C40 1_555 1_555
C53 C57 1_555 1_555
C73 C78 1_555 1_555
C75 C79 1_555 1_555
O15 In5 1_555 1_555
C106 C108 1_555 1_555
O19 In4 1_555 1_555
O23 In7 1_555 1_555
O29 C111 1_555 1_555
O31 C112 1_555 1_555
O33 C113 1_555 1_555
C126 C130 1_555 1_555
C147 C156 1_555 1_555
C187 C198 1_555 1_555
C189 C199 1_555 1_555
O47 In16 1_555 1_555
O49 In9 1_555 1_555
C74 H119 1_555 1_555
C66 H120 1_555 1_555
C124 H124 1_555 1_555
C118 H126 1_555 1_555
C171 H128 1_555 1_555
C170 H132 1_555 1_555
C172 H133 1_555 1_555
C188 H135 1_555 1_555
C187 H136 1_555 1_555
C186 H137 1_555 1_555
In1_2 O2_2 1_555 1_555
O2_2 C21_2 1_555 1_555
O3_2 In1_2 1_555 1_555
O4_2 In1_2 1_555 1_555
O5_2 In1_2 1_555 1_555
O6_2 In1_2 1_555 1_555
O7_2 In1_2 1_555 1_555
O8_2 In1_2 1_555 1_555
O9_2 In1_2 1_555 1_555
C21_2 O3_2 1_555 1_555
C22_2 O4_2 1_555 1_555
C23_2 O6_2 1_555 1_555
C24_2 C21_2 1_555 1_555
C25_2 C22_2 1_555 1_555
C26_2 C23_2 1_555 1_555
C27_2 C24_2 1_555 1_555
C28_2 C24_2 1_555 1_555
C29_2 C25_2 1_555 1_555
C30_2 C25_2 1_555 1_555
C31_2 C26_2 1_555 1_555
C32_2 C26_2 1_555 1_555
H18_2 C27_2 1_555 1_555
C33_2 C27_2 1_555 1_555
C34_2 C28_2 1_555 1_555
H19_2 C28_2 1_555 1_555
H20_2 C29_2 1_555 1_555
C35_2 C29_2 1_555 1_555
C36_2 C30_2 1_555 1_555
H21_2 C30_2 1_555 1_555
H22_2 C31_2 1_555 1_555
C37_2 C31_2 1_555 1_555
C38_2 C32_2 1_555 1_555
H23_2 C32_2 1_555 1_555
H24_2 C33_2 1_555 1_555
C39_2 C33_2 1_555 1_555
H25_2 C34_2 1_555 1_555
H26_2 C35_2 1_555 1_555
C40_2 C35_2 1_555 1_555
H27_2 C36_2 1_555 1_555
H28_2 C37_2 1_555 1_555
C41_2 C37_2 1_555 1_555
H29_2 C38_2 1_555 1_555
C42_2 C39_2 1_555 1_555
C43_2 C40_2 1_555 1_555
C44_2 C41_2 1_555 1_555
C45_2 C42_2 1_555 1_555
C46_2 C42_2 1_555 1_555
C47_2 C43_2 1_555 1_555
C48_2 C43_2 1_555 1_555
C49_2 C44_2 1_555 1_555
H30_2 C45_2 1_555 1_555
C50_2 C45_2 1_555 1_555
C51_2 C46_2 1_555 1_555
H31_2 C46_2 1_555 1_555
H32_2 C47_2 1_555 1_555
C52_2 C47_2 1_555 1_555
C53_2 C48_2 1_555 1_555
H33_2 C48_2 1_555 1_555
H34_2 C49_2 1_555 1_555
C54_2 C50_2 1_555 1_555
C55_2 C50_2 1_555 1_555
C56_2 C51_2 1_555 1_555
C57_2 C52_2 1_555 1_555
C58_2 C52_2 1_555 1_555
C59_2 C53_2 1_555 1_555
H35_2 C54_2 1_555 1_555
C60_2 C55_2 1_555 1_555
C61_2 C55_2 1_555 1_555
C62_2 C56_2 1_555 1_555
C63_2 C56_2 1_555 1_555
H36_2 C57_2 1_555 1_555
C64_2 C58_2 1_555 1_555
C65_2 C58_2 1_555 1_555
C66_2 C59_2 1_555 1_555
C67_2 C59_2 1_555 1_555
C68_2 C60_2 1_555 1_555
C69_2 C61_2 1_555 1_555
C70_2 C62_2 1_555 1_555
C71_2 C63_2 1_555 1_555
H37_2 C63_2 1_555 1_555
H38_2 C64_2 1_555 1_555
C72_2 C64_2 1_555 1_555
H39_2 C65_2 1_555 1_555
C73_2 C65_2 1_555 1_555
C74_2 C66_2 1_555 1_555
H40_2 C67_2 1_555 1_555
C75_2 C67_2 1_555 1_555
C76_2 C68_2 1_555 1_555
C77_2 C70_2 1_555 1_555
H41_2 C71_2 1_555 1_555
C78_2 C72_2 1_555 1_555
H42_2 C72_2 1_555 1_555
H43_2 C73_2 1_555 1_555
C79_2 C74_2 1_555 1_555
H44_2 C75_2 1_555 1_555
C80_2 C76_2 1_555 1_555
C81_2 C77_2 1_555 1_555
C82_2 C78_2 1_555 1_555
C83_2 C79_2 1_555 1_555
O10_2 C80_2 1_555 1_555
O11_2 C80_2 1_555 1_555
O12_2 C81_2 1_555 1_555
O13_2 C81_2 1_555 1_555
O14_2 C83_2 1_555 1_555
O15_2 C83_2 1_555 1_555
In2_2 O10_2 1_555 1_555
C93_2 C44_2 1_555 1_555
C94_2 C49_2 1_555 1_555
C95_2 C93_2 1_555 1_555
H49_2 C93_2 1_555 1_555
C96_2 C94_2 1_555 1_555
C97_2 C94_2 1_555 1_555
C98_2 C95_2 1_555 1_555
C99_2 C96_2 1_555 1_555
C100_2 C96_2 1_555 1_555
H50_2 C97_2 1_555 1_555
C101_2 C98_2 1_555 1_555
C102_2 C98_2 1_555 1_555
C103_2 C99_2 1_555 1_555
H51_2 C99_2 1_555 1_555
H52_2 C100_2 1_555 1_555
C104_2 C100_2 1_555 1_555
C105_2 C101_2 1_555 1_555
H53_2 C101_2 1_555 1_555
H54_2 C102_2 1_555 1_555
C106_2 C102_2 1_555 1_555
C107_2 C103_2 1_555 1_555
H55_2 C103_2 1_555 1_555
H56_2 C104_2 1_555 1_555
C108_2 C105_2 1_555 1_555
H57_2 C105_2 1_555 1_555
H58_2 C106_2 1_555 1_555
C109_2 C107_2 1_555 1_555
C110_2 C108_2 1_555 1_555
O67 C82_2 1_555 1_555
O20_2 C109_2 1_555 1_555
O21_2 C109_2 1_555 1_555
O22_2 C110_2 1_555 1_555
O23_2 C110_2 1_555 1_555
In5_2 O14_2 1_555 1_555
In6_2 O20_2 1_555 1_555
In7_2 O22_2 1_555 1_555
O28_2 In5_2 1_555 1_555
O29_2 In5_2 1_555 1_555
O30_2 In7_2 1_555 1_555
O31_2 In7_2 1_555 1_555
O32_2 In7_2 1_555 1_555
O33_2 In7_2 1_555 1_555
O34_2 In7_2 1_555 1_555
O35_2 In7_2 1_555 1_555
C111_2 O28_2 1_555 1_555
C112_2 O30_2 1_555 1_555
C113_2 O32_2 1_555 1_555
C114_2 C111_2 1_555 1_555
C115_2 C112_2 1_555 1_555
C116_2 C113_2 1_555 1_555
C117_2 C114_2 1_555 1_555
C118_2 C114_2 1_555 1_555
C119_2 C115_2 1_555 1_555
C120_2 C115_2 1_555 1_555
C121_2 C116_2 1_555 1_555
C122_2 C116_2 1_555 1_555
C123_2 C117_2 1_555 1_555
C124_2 C118_2 1_555 1_555
H59_2 C119_2 1_555 1_555
C125_2 C119_2 1_555 1_555
C126_2 C120_2 1_555 1_555
H60_2 C120_2 1_555 1_555
H61_2 C121_2 1_555 1_555
C127_2 C121_2 1_555 1_555
C129_2 C123_2 1_555 1_555
C130_2 C125_2 1_555 1_555
H64_2 C126_2 1_555 1_555
H65_2 C127_2 1_555 1_555
C131_2 C127_2 1_555 1_555
C132_2 C129_2 1_555 1_555
C134_2 C131_2 1_555 1_555
C136_2 C132_2 1_555 1_555
C137_2 C132_2 1_555 1_555
C140_2 C134_2 1_555 1_555
C144_2 C136_2 1_555 1_555
H68_2 C137_2 1_555 1_555
C145_2 C137_2 1_555 1_555
H71_2 C140_2 1_555 1_555
C154_2 C144_2 1_555 1_555
C155_2 C145_2 1_555 1_555
H73_2 C154_2 1_555 1_555
C168_2 C155_2 1_555 1_555
C169_2 C155_2 1_555 1_555
C174_2 C160_2 1_555 1_555
C184_2 C168_2 1_555 1_555
C185_2 C169_2 1_555 1_555
H82_2 C169_2 1_555 1_555
H84_2 C174_2 1_555 1_555
C190_2 C174_2 1_555 1_555
C197_2 C184_2 1_555 1_555
H93_2 C185_2 1_555 1_555
C200_2 C190_2 1_555 1_555
H95_2 C190_2 1_555 1_555
C205_2 C197_2 1_555 1_555
C208_2 C200_2 1_555 1_555
O44_2 C205_2 1_555 1_555
O45_2 C205_2 1_555 1_555
O9 C208_2 1_555 1_555
H101_2 C215_2 1_555 1_555
C221_2 C219_2 1_555 1_555
H103_2 C219_2 1_555 1_555
C222_2 C220_2 1_555 1_555
C224_2 C221_2 1_555 1_555
H104_2 C222_2 1_555 1_555
C227_2 C224_2 1_555 1_555
C228_2 C224_2 1_555 1_555
H106_2 C226_2 1_555 1_555
C230_2 C226_2 1_555 1_555
C231_2 C227_2 1_555 1_555
H107_2 C228_2 1_555 1_555
C232_2 C228_2 1_555 1_555
H109_2 C230_2 1_555 1_555
C234_2 C231_2 1_555 1_555
H110_2 C232_2 1_555 1_555
C236_2 C234_2 1_555 1_555
O70_2 C236_2 1_555 1_555
O71_2 C236_2 1_555 1_555
In16_2 O70_2 1_555 1_555
O5_2 C22_2 1_555 1_555
O7_2 C23_2 1_555 1_555
C34_2 C39_2 1_555 1_555
C36_2 C40_2 1_555 1_555
C38_2 C41_2 1_555 1_555
C51_2 C54_2 1_555 1_555
C53_2 C57_2 1_555 1_555
C69_2 C76_2 1_555 1_555
C71_2 C77_2 1_555 1_555
C73_2 C78_2 1_555 1_555
C75_2 C79_2 1_555 1_555
O11_2 In2_2 1_555 1_555
O15_2 In5_2 1_555 1_555
C95_2 C97_2 1_555 1_555
C104_2 C107_2 1_555 1_555
C106_2 C108_2 1_555 1_555
O21_2 In6_2 1_555 1_555
O23_2 In7_2 1_555 1_555
O29_2 C111_2 1_555 1_555
O31_2 C112_2 1_555 1_555
O33_2 C113_2 1_555 1_555
C124_2 C129_2 1_555 1_555
C126_2 C130_2 1_555 1_555
C145_2 C154_2 1_555 1_555
C185_2 C197_2 1_555 1_555
C221_2 C222_2 1_555 1_555
C232_2 C234_2 1_555 1_555
O71_2 In16_2 1_555 1_555
C68_2 H114_2 1_555 1_555
C70_2 H115_2 1_555 1_555
C60_2 H116_2 1_555 1_555
C62_2 H117_2 1_555 1_555
C69_2 H118_2 1_555 1_555
C74_2 H119_2 1_555 1_555
C66_2 H120_2 1_555 1_555
C61_2 H121_2 1_555 1_555
C123_2 H123_2 1_555 1_555
C117_2 H125_2 1_555 1_555
C168_2 H130_2 1_555 1_555
C184_2 H138_2 1_555 1_555
C227_2 H139_2 1_555 1_555
C231_2 H140_2 1_555 1_555
O16_2 C84_2 1_555 1_555
O17_2 C84_2 1_555 1_555
C84_2 C85_2 1_555 1_555
C85_2 C86_2 1_555 1_555
C86_2 H45_2 1_555 1_555
C87_2 C85_2 1_555 1_555
C88_2 C86_2 1_555 1_555
C89_2 C87_2 1_555 1_555
H46_2 C87_2 1_555 1_555
H47_2 C88_2 1_555 1_555
C90_2 C88_2 1_555 1_555
H48_2 C89_2 1_555 1_555
C91_2 C90_2 1_555 1_555
C92_2 C91_2 1_555 1_555
C135_2 C91_2 1_555 1_555
C142_2 C92_2 1_555 1_555
C143_2 C135_2 1_555 1_555
C150_2 C142_2 1_555 1_555
C151_2 C142_2 1_555 1_555
C152_2 C143_2 1_555 1_555
C162_2 C150_2 1_555 1_555
C163_2 C150_2 1_555 1_555
C164_2 C152_2 1_555 1_555
C165_2 C152_2 1_555 1_555
C178_2 C162_2 1_555 1_555
H76_2 C162_2 1_555 1_555
H77_2 C163_2 1_555 1_555
C179_2 C163_2 1_555 1_555
C180_2 C164_2 1_555 1_555
H78_2 C164_2 1_555 1_555
H79_2 C165_2 1_555 1_555
C181_2 C165_2 1_555 1_555
C194_2 C178_2 1_555 1_555
H87_2 C178_2 1_555 1_555
H88_2 C179_2 1_555 1_555
C195_2 C180_2 1_555 1_555
H89_2 C180_2 1_555 1_555
H90_2 C181_2 1_555 1_555
C202_2 C194_2 1_555 1_555
C203_2 C195_2 1_555 1_555
O36_2 C202_2 1_555 1_555
O37_2 C202_2 1_555 1_555
O38_2 C203_2 1_555 1_555
O39_2 C203_2 1_555 1_555
In2 O36_2 1_555 1_555
In5 O38_2 1_555 1_555
O16_2 In16 1_555 1_555
O17_2 In16 1_555 1_555
C89_2 C90_2 1_555 1_555
C143_2 C151_2 1_555 1_555
C179_2 C194_2 1_555 1_555
C181_2 C195_2 1_555 1_555
O37_2 In2 1_555 1_555
O39_2 In5 1_555 1_555
C92_2 H122_2 1_555 1_555
C135_2 H129_2 1_555 1_555
C151_2 H131_2 1_555 1_555
H66_2 C128_2 1_555 1_555
C138_2 C133_2 1_555 1_555
C139_2 C133_2 1_555 1_555
C146_2 C138_2 1_555 1_555
C147_2 C139_2 1_555 1_555
H70_2 C139_2 1_555 1_555
C149_2 C141_2 1_555 1_555
H72_2 C141_2 1_555 1_555
C156_2 C146_2 1_555 1_555
C157_2 C146_2 1_555 1_555
C158_2 C147_2 1_555 1_555
C159_2 C148_2 1_555 1_555
C161_2 C149_2 1_555 1_555
H74_2 C156_2 1_555 1_555
C170_2 C157_2 1_555 1_555
C171_2 C157_2 1_555 1_555
C172_2 C158_2 1_555 1_555
C173_2 C158_2 1_555 1_555
H75_2 C159_2 1_555 1_555
C176_2 C161_2 1_555 1_555
C177_2 C161_2 1_555 1_555
C186_2 C170_2 1_555 1_555
C187_2 C171_2 1_555 1_555
C188_2 C172_2 1_555 1_555
C189_2 C173_2 1_555 1_555
H83_2 C173_2 1_555 1_555
H85_2 C175_2 1_555 1_555
C191_2 C175_2 1_555 1_555
C192_2 C176_2 1_555 1_555
H86_2 C177_2 1_555 1_555
C193_2 C177_2 1_555 1_555
C198_2 C186_2 1_555 1_555
C199_2 C188_2 1_555 1_555
H94_2 C189_2 1_555 1_555
H96_2 C191_2 1_555 1_555
C201_2 C192_2 1_555 1_555
H97_2 C193_2 1_555 1_555
C206_2 C198_2 1_555 1_555
C207_2 C199_2 1_555 1_555
C209_2 C201_2 1_555 1_555
O46_2 C206_2 1_555 1_555
O47_2 C206_2 1_555 1_555
O48_2 C207_2 1_555 1_555
O49_2 C207_2 1_555 1_555
O52_2 C209_2 1_555 1_555
O53_2 C209_2 1_555 1_555
In16_2 O46_2 1_555 1_555
In2_2 O52_2 1_555 1_555
C147_2 C156_2 1_555 1_555
C149_2 C159_2 1_555 1_555
C187_2 C198_2 1_555 1_555
C189_2 C199_2 1_555 1_555
C193_2 C201_2 1_555 1_555
O47_2 In16_2 1_555 1_555
O53_2 In2_2 1_555 1_555
C176_2 H127_2 1_555 1_555
C171_2 H128_2 1_555 1_555
C172_2 H133_2 1_555 1_555
C192_2 H134_2 1_555 1_555
C188_2 H135_2 1_555 1_555
C187_2 H136_2 1_555 1_555
C166_2 C153_2 1_555 1_555
C167_2 C153_2 1_555 1_555
C182_2 C166_2 1_555 1_555
H81_2 C167_2 1_555 1_555
C183_2 C167_2 1_555 1_555
C196_2 C182_2 1_555 1_555
H91_2 C182_2 1_555 1_555
H92_2 C183_2 1_555 1_555
C204_2 C196_2 1_555 1_555
O42_2 C204_2 1_555 1_555
O43_2 C204_2 1_555 1_555
In6_2 O42_2 1_555 1_555
O62_2 In6_2 1_555 1_555
O63_2 In6_2 1_555 1_555
O66_2 In6_2 1_555 1_555
O67_2 In6_2 1_555 1_555
C210_2 O62_2 1_555 1_555
C211_2 C210_2 1_555 1_555
C212_2 C211_2 1_555 1_555
C213_2 C211_2 1_555 1_555
H98_2 C212_2 1_555 1_555
C214_2 C212_2 1_555 1_555
H100_2 C214_2 1_555 1_555
C216_2 C214_2 1_555 1_555
C217_2 C216_2 1_555 1_555
C218_2 C217_2 1_555 1_555
H102_2 C218_2 1_555 1_555
C225_2 C223_2 1_555 1_555
H105_2 C225_2 1_555 1_555
C229_2 C225_2 1_555 1_555
C233_2 C229_2 1_555 1_555
H108_2 C229_2 1_555 1_555
C235_2 C233_2 1_555 1_555
O35 C235_2 1_555 1_555
C183_2 C196_2 1_555 1_555
O43_2 In6_2 1_555 1_555
O63_2 C210_2 1_555 1_555
C60_3 C55_3 1_555 1_555
C61_3 C55_3 1_555 1_555
C68_3 C60_3 1_555 1_555
C69_3 C61_3 1_555 1_555
C76_3 C68_3 1_555 1_555
C80_3 C76_3 1_555 1_555
O56 C80_3 1_555 1_555
O57 C80_3 1_555 1_555
C89_3 C87_3 1_555 1_555
H46_3 C87_3 1_555 1_555
H48_3 C89_3 1_555 1_555
C143_3 C135_3 1_555 1_555
C152_3 C143_3 1_555 1_555
C164_3 C152_3 1_555 1_555
C180_3 C164_3 1_555 1_555
H78_3 C164_3 1_555 1_555
C195_3 C180_3 1_555 1_555
H89_3 C180_3 1_555 1_555
C203_3 C195_3 1_555 1_555
O38_3 C203_3 1_555 1_555
O39_3 C203_3 1_555 1_555
In5_2 O38_3 1_555 1_555
C69_3 C76_3 1_555 1_555
O39_3 In5_2 1_555 1_555
C68_3 H114_3 1_555 1_555
C69_3 H118_3 1_555 1_555
C61_3 H121_3 1_555 1_555
C135_3 H129_3 1_555 1_555
In13 O2_3 1_555 1_555
O2_3 C21_3 1_555 1_555
O3_3 In13 1_555 1_555
O4_3 In13 1_555 1_555
O5_3 In13 1_555 1_555
O6_3 In13 1_555 1_555
O7_3 In13 1_555 1_555
C21_3 O3_3 1_555 1_555
C22_3 O4_3 1_555 1_555
C23_3 O6_3 1_555 1_555
C24_3 C21_3 1_555 1_555
C25_3 C22_3 1_555 1_555
C26_3 C23_3 1_555 1_555
C27_3 C24_3 1_555 1_555
C28_3 C24_3 1_555 1_555
C29_3 C25_3 1_555 1_555
C30_3 C25_3 1_555 1_555
C31_3 C26_3 1_555 1_555
C32_3 C26_3 1_555 1_555
H18_3 C27_3 1_555 1_555
C33_3 C27_3 1_555 1_555
C34_3 C28_3 1_555 1_555
H19_3 C28_3 1_555 1_555
H20_3 C29_3 1_555 1_555
C35_3 C29_3 1_555 1_555
H21_3 C30_3 1_555 1_555
H22_3 C31_3 1_555 1_555
C37_3 C31_3 1_555 1_555
C38_3 C32_3 1_555 1_555
H23_3 C32_3 1_555 1_555
H24_3 C33_3 1_555 1_555
C39_3 C33_3 1_555 1_555
H25_3 C34_3 1_555 1_555
H26_3 C35_3 1_555 1_555
H28_3 C37_3 1_555 1_555
C41_3 C37_3 1_555 1_555
H29_3 C38_3 1_555 1_555
C42_3 C39_3 1_555 1_555
C44_3 C41_3 1_555 1_555
C45_3 C42_3 1_555 1_555
C46_3 C42_3 1_555 1_555
C49_3 C44_3 1_555 1_555
H30_3 C45_3 1_555 1_555
C50_3 C45_3 1_555 1_555
C51_3 C46_3 1_555 1_555
H31_3 C46_3 1_555 1_555
H34_3 C49_3 1_555 1_555
C54_3 C50_3 1_555 1_555
C56_3 C51_3 1_555 1_555
H35_3 C54_3 1_555 1_555
C62_3 C56_3 1_555 1_555
C63_3 C56_3 1_555 1_555
C70_3 C62_3 1_555 1_555
C71_3 C63_3 1_555 1_555
H37_3 C63_3 1_555 1_555
C77_3 C70_3 1_555 1_555
C81_3 C77_3 1_555 1_555
O12_3 C81_3 1_555 1_555
O13_3 C81_3 1_555 1_555
O16_3 C84_3 1_555 1_555
O17_3 C84_3 1_555 1_555
C84_3 C85_3 1_555 1_555
C85_3 C86_3 1_555 1_555
C86_3 H45_3 1_555 1_555
C88_3 C86_3 1_555 1_555
H47_3 C88_3 1_555 1_555
C90_3 C88_3 1_555 1_555
C91_3 C90_3 1_555 1_555
C93_3 C44_3 1_555 1_555
C94_3 C49_3 1_555 1_555
C95_3 C93_3 1_555 1_555
H49_3 C93_3 1_555 1_555
C96_3 C94_3 1_555 1_555
C97_3 C94_3 1_555 1_555
C98_3 C95_3 1_555 1_555
C99_3 C96_3 1_555 1_555
C100_3 C96_3 1_555 1_555
H50_3 C97_3 1_555 1_555
C101_3 C98_3 1_555 1_555
C102_3 C98_3 1_555 1_555
C103_3 C99_3 1_555 1_555
H51_3 C99_3 1_555 1_555
H52_3 C100_3 1_555 1_555
C104_3 C100_3 1_555 1_555
C105_3 C101_3 1_555 1_555
H53_3 C101_3 1_555 1_555
H54_3 C102_3 1_555 1_555
C106_3 C102_3 1_555 1_555
C107_3 C103_3 1_555 1_555
H55_3 C103_3 1_555 1_555
H56_3 C104_3 1_555 1_555
C108_3 C105_3 1_555 1_555
H57_3 C105_3 1_555 1_555
H58_3 C106_3 1_555 1_555
C109_3 C107_3 1_555 1_555
C110_3 C108_3 1_555 1_555
O20_3 C109_3 1_555 1_555
O21_3 C109_3 1_555 1_555
O22_3 C110_3 1_555 1_555
O23_3 C110_3 1_555 1_555
In16_2 O12_3 1_555 1_555
In4 O20_3 1_555 1_555
In15 O22_3 1_555 1_555
O30_3 In15 1_555 1_555
O31_3 In15 1_555 1_555
O32_3 In15 1_555 1_555
O33_3 In15 1_555 1_555
C112_3 O30_3 1_555 1_555
C113_3 O32_3 1_555 1_555
C115_3 C112_3 1_555 1_555
C116_3 C113_3 1_555 1_555
C119_3 C115_3 1_555 1_555
C120_3 C115_3 1_555 1_555
C121_3 C116_3 1_555 1_555
C122_3 C116_3 1_555 1_555
H59_3 C119_3 1_555 1_555
C125_3 C119_3 1_555 1_555
C126_3 C120_3 1_555 1_555
H60_3 C120_3 1_555 1_555
H61_3 C121_3 1_555 1_555
C127_3 C121_3 1_555 1_555
C128_3 C122_3 1_555 1_555
H62_3 C122_3 1_555 1_555
H63_3 C125_3 1_555 1_555
C130_3 C125_3 1_555 1_555
H64_3 C126_3 1_555 1_555
H65_3 C127_3 1_555 1_555
C131_3 C127_3 1_555 1_555
H66_3 C128_3 1_555 1_555
C133_3 C130_3 1_555 1_555
C134_3 C131_3 1_555 1_555
C138_3 C133_3 1_555 1_555
C139_3 C133_3 1_555 1_555
C140_3 C134_3 1_555 1_555
C141_3 C134_3 1_555 1_555
H69_3 C138_3 1_555 1_555
C146_3 C138_3 1_555 1_555
C147_3 C139_3 1_555 1_555
H70_3 C139_3 1_555 1_555
H71_3 C140_3 1_555 1_555
C148_3 C140_3 1_555 1_555
C149_3 C141_3 1_555 1_555
H72_3 C141_3 1_555 1_555
C156_3 C146_3 1_555 1_555
C158_3 C147_3 1_555 1_555
C159_3 C148_3 1_555 1_555
C160_3 C148_3 1_555 1_555
C161_3 C149_3 1_555 1_555
H74_3 C156_3 1_555 1_555
C172_3 C158_3 1_555 1_555
C173_3 C158_3 1_555 1_555
H75_3 C159_3 1_555 1_555
C174_3 C160_3 1_555 1_555
C175_3 C160_3 1_555 1_555
C176_3 C161_3 1_555 1_555
C177_3 C161_3 1_555 1_555
C188_3 C172_3 1_555 1_555
C189_3 C173_3 1_555 1_555
H83_3 C173_3 1_555 1_555
H84_3 C174_3 1_555 1_555
C190_3 C174_3 1_555 1_555
H85_3 C175_3 1_555 1_555
C191_3 C175_3 1_555 1_555
C192_3 C176_3 1_555 1_555
H86_3 C177_3 1_555 1_555
C193_3 C177_3 1_555 1_555
C199_3 C188_3 1_555 1_555
C200_3 C190_3 1_555 1_555
H95_3 C190_3 1_555 1_555
H96_3 C191_3 1_555 1_555
C201_3 C192_3 1_555 1_555
H97_3 C193_3 1_555 1_555
C207_3 C199_3 1_555 1_555
C208_3 C200_3 1_555 1_555
C209_3 C201_3 1_555 1_555
O48_3 C207_3 1_555 1_555
O49_3 C207_3 1_555 1_555
O8_2 C208_3 1_555 1_555
O9_2 C208_3 1_555 1_555
O54 C209_3 1_555 1_555
O55 C209_3 1_555 1_555
In5_2 O48_3 1_555 1_555
O5_3 C22_3 1_555 1_555
O7_3 C23_3 1_555 1_555
C34_3 C39_3 1_555 1_555
C38_3 C41_3 1_555 1_555
C51_3 C54_3 1_555 1_555
C71_3 C77_3 1_555 1_555
O13_3 In16_2 1_555 1_555
O16_3 In16_2 1_555 1_555
O17_3 In16_2 1_555 1_555
C95_3 C97_3 1_555 1_555
C104_3 C107_3 1_555 1_555
C106_3 C108_3 1_555 1_555
O21_3 In4 1_555 1_555
O23_3 In15 1_555 1_555
O31_3 C112_3 1_555 1_555
O33_3 C113_3 1_555 1_555
C126_3 C130_3 1_555 1_555
C128_3 C131_3 1_555 1_555
C147_3 C156_3 1_555 1_555
C149_3 C159_3 1_555 1_555
C189_3 C199_3 1_555 1_555
C191_3 C200_3 1_555 1_555
C193_3 C201_3 1_555 1_555
O49_3 In5_2 1_555 1_555
C70_3 H115_3 1_555 1_555
C62_3 H117_3 1_555 1_555
C176_3 H127_3 1_555 1_555
C172_3 H133_3 1_555 1_555
C192_3 H134_3 1_555 1_555
C188_3 H135_3 1_555 1_555
H79_3 C165_3 1_555 1_555
C181_3 C165_3 1_555 1_555
H90_3 C181_3 1_555 1_555
H101_3 C215_3 1_555 1_555
C217_3 C216_3 1_555 1_555
C218_3 C217_3 1_555 1_555
C219_3 C217_3 1_555 1_555
H102_3 C218_3 1_555 1_555
C220_3 C218_3 1_555 1_555
C221_3 C219_3 1_555 1_555
H103_3 C219_3 1_555 1_555
C222_3 C220_3 1_555 1_555
C223_3 C220_3 1_555 1_555
C224_3 C221_3 1_555 1_555
H104_3 C222_3 1_555 1_555
C225_3 C223_3 1_555 1_555
C226_3 C223_3 1_555 1_555
C227_3 C224_3 1_555 1_555
C228_3 C224_3 1_555 1_555
H105_3 C225_3 1_555 1_555
C229_3 C225_3 1_555 1_555
H106_3 C226_3 1_555 1_555
C230_3 C226_3 1_555 1_555
C231_3 C227_3 1_555 1_555
H107_3 C228_3 1_555 1_555
C232_3 C228_3 1_555 1_555
C233_3 C229_3 1_555 1_555
H108_3 C229_3 1_555 1_555
H109_3 C230_3 1_555 1_555
C234_3 C231_3 1_555 1_555
H110_3 C232_3 1_555 1_555
C235_3 C233_3 1_555 1_555
C236_3 C234_3 1_555 1_555
O34_2 C235_3 1_555 1_555
O35_2 C235_3 1_555 1_555
O24 C236_3 1_555 1_555
O25 C236_3 1_555 1_555
C215_3 C216_3 1_555 1_555
C221_3 C222_3 1_555 1_555
C230_3 C233_3 1_555 1_555
C232_3 C234_3 1_555 1_555
C151_3 H131_3 1_555 1_555
C227_3 H139_3 1_555 1_555
C231_3 H140_3 1_555 1_555
H27_3 C36_3 1_555 1_555
C43_3 C40_3 1_555 1_555
C47_3 C43_3 1_555 1_555
C48_3 C43_3 1_555 1_555
H32_3 C47_3 1_555 1_555
C52_3 C47_3 1_555 1_555
C53_3 C48_3 1_555 1_555
H33_3 C48_3 1_555 1_555
C57_3 C52_3 1_555 1_555
C58_3 C52_3 1_555 1_555
C59_3 C53_3 1_555 1_555
H36_3 C57_3 1_555 1_555
C64_3 C58_3 1_555 1_555
C65_3 C58_3 1_555 1_555
C66_3 C59_3 1_555 1_555
C67_3 C59_3 1_555 1_555
H38_3 C64_3 1_555 1_555
C72_3 C64_3 1_555 1_555
H39_3 C65_3 1_555 1_555
C73_3 C65_3 1_555 1_555
C74_3 C66_3 1_555 1_555
H40_3 C67_3 1_555 1_555
C75_3 C67_3 1_555 1_555
C78_3 C72_3 1_555 1_555
H42_3 C72_3 1_555 1_555
H43_3 C73_3 1_555 1_555
C79_3 C74_3 1_555 1_555
H44_3 C75_3 1_555 1_555
C82_3 C78_3 1_555 1_555
C83_3 C79_3 1_555 1_555
O60 C83_3 1_555 1_555
O61 C83_3 1_555 1_555
O66_2 C82_3 1_555 1_555
O67_2 C82_3 1_555 1_555
C111_3 O40 1_555 1_555
C114_3 C111_3 1_555 1_555
C117_3 C114_3 1_555 1_555
C118_3 C114_3 1_555 1_555
C123_3 C117_3 1_555 1_555
C124_3 C118_3 1_555 1_555
C129_3 C123_3 1_555 1_555
C132_3 C129_3 1_555 1_555
C136_3 C132_3 1_555 1_555
C137_3 C132_3 1_555 1_555
C142_3 C92_3 1_555 1_555
C144_3 C136_3 1_555 1_555
H67_3 C136_3 1_555 1_555
H68_3 C137_3 1_555 1_555
C145_3 C137_3 1_555 1_555
C150_3 C142_3 1_555 1_555
C153_3 C144_3 1_555 1_555
C154_3 C144_3 1_555 1_555
C155_3 C145_3 1_555 1_555
C162_3 C150_3 1_555 1_555
C163_3 C150_3 1_555 1_555
C166_3 C153_3 1_555 1_555
C167_3 C153_3 1_555 1_555
H73_3 C154_3 1_555 1_555
C168_3 C155_3 1_555 1_555
C169_3 C155_3 1_555 1_555
C170_3 C157_3 1_555 1_555
C171_3 C157_3 1_555 1_555
C178_3 C162_3 1_555 1_555
H76_3 C162_3 1_555 1_555
H77_3 C163_3 1_555 1_555
C179_3 C163_3 1_555 1_555
C182_3 C166_3 1_555 1_555
H80_3 C166_3 1_555 1_555
H81_3 C167_3 1_555 1_555
C183_3 C167_3 1_555 1_555
C184_3 C168_3 1_555 1_555
C185_3 C169_3 1_555 1_555
H82_3 C169_3 1_555 1_555
C186_3 C170_3 1_555 1_555
C187_3 C171_3 1_555 1_555
C194_3 C178_3 1_555 1_555
H87_3 C178_3 1_555 1_555
H88_3 C179_3 1_555 1_555
C196_3 C182_3 1_555 1_555
H91_3 C182_3 1_555 1_555
H92_3 C183_3 1_555 1_555
C197_3 C184_3 1_555 1_555
H93_3 C185_3 1_555 1_555
C198_3 C186_3 1_555 1_555
C202_3 C194_3 1_555 1_555
C204_3 C196_3 1_555 1_555
C205_3 C197_3 1_555 1_555
C206_3 C198_3 1_555 1_555
O36_3 C202_3 1_555 1_555
O37_3 C202_3 1_555 1_555
O42_3 C204_3 1_555 1_555
O43_3 C204_3 1_555 1_555
O44_3 C205_3 1_555 1_555
O45_3 C205_3 1_555 1_555
O26 C206_3 1_555 1_555
O27 C206_3 1_555 1_555
In2_2 O36_3 1_555 1_555
In4 O42_3 1_555 1_555
O62_3 In4 1_555 1_555
O63_3 In4 1_555 1_555
C210_3 O62_3 1_555 1_555
C211_3 C210_3 1_555 1_555
C212_3 C211_3 1_555 1_555
C213_3 C211_3 1_555 1_555
H98_3 C212_3 1_555 1_555
C214_3 C212_3 1_555 1_555
H99_3 C213_3 1_555 1_555
H100_3 C214_3 1_555 1_555
C36_3 C40_3 1_555 1_555
C53_3 C57_3 1_555 1_555
C73_3 C78_3 1_555 1_555
C75_3 C79_3 1_555 1_555
O41 C111_3 1_555 1_555
C124_3 C129_3 1_555 1_555
C145_3 C154_3 1_555 1_555
C179_3 C194_3 1_555 1_555
C183_3 C196_3 1_555 1_555
C185_3 C197_3 1_555 1_555
C187_3 C198_3 1_555 1_555
O37_3 In2_2 1_555 1_555
O43_3 In4 1_555 1_555
O44_3 In2_2 1_555 1_555
O45_3 In2_2 1_555 1_555
O63_3 C210_3 1_555 1_555
C74_3 H119_3 1_555 1_555
C66_3 H120_3 1_555 1_555
C92_3 H122_3 1_555 1_555
C123_3 H123_3 1_555 1_555
C124_3 H124_3 1_555 1_555
C117_3 H125_3 1_555 1_555
C118_3 H126_3 1_555 1_555
C171_3 H128_3 1_555 1_555
C168_3 H130_3 1_555 1_555
C187_3 H136_3 1_555 1_555
C186_3 H137_3 1_555 1_555
C184_3 H138_3 1_555 1_555
H20_4 C29_4 1_555 1_555
C35_4 C29_4 1_555 1_555
H26_4 C35_4 1_555 1_555
C40_4 C35_4 1_555 1_555
H28_4 C37_4 1_555 1_555
C43_4 C40_4 1_555 1_555
C47_4 C43_4 1_555 1_555
C48_4 C43_4 1_555 1_555
H32_4 C47_4 1_555 1_555
C52_4 C47_4 1_555 1_555
C53_4 C48_4 1_555 1_555
H33_4 C48_4 1_555 1_555
C57_4 C52_4 1_555 1_555
C58_4 C52_4 1_555 1_555
C59_4 C53_4 1_555 1_555
H36_4 C57_4 1_555 1_555
C64_4 C58_4 1_555 1_555
C65_4 C58_4 1_555 1_555
C66_4 C59_4 1_555 1_555
C67_4 C59_4 1_555 1_555
H38_4 C64_4 1_555 1_555
C72_4 C64_4 1_555 1_555
H39_4 C65_4 1_555 1_555
C73_4 C65_4 1_555 1_555
C74_4 C66_4 1_555 1_555
H40_4 C67_4 1_555 1_555
C75_4 C67_4 1_555 1_555
C78_4 C72_4 1_555 1_555
H42_4 C72_4 1_555 1_555
H43_4 C73_4 1_555 1_555
C79_4 C74_4 1_555 1_555
H44_4 C75_4 1_555 1_555
C82_4 C78_4 1_555 1_555
C83_4 C79_4 1_555 1_555
O14_3 C83_4 1_555 1_555
O15_3 C83_4 1_555 1_555
C95_4 C93_4 1_555 1_555
H49_4 C93_4 1_555 1_555
C98_4 C95_4 1_555 1_555
C102_4 C98_4 1_555 1_555
H54_4 C102_4 1_555 1_555
C106_4 C102_4 1_555 1_555
C108_4 C105_4 1_555 1_555
H58_4 C106_4 1_555 1_555
C110_4 C108_4 1_555 1_555
O18_2 C82_4 1_555 1_555
O19_2 C82_4 1_555 1_555
O22_4 C110_4 1_555 1_555
O23_4 C110_4 1_555 1_555
In4_2 O18_2 1_555 1_555
In5_3 O14_3 1_555 1_555
In7_3 O22_4 1_555 1_555
O28_3 In5_3 1_555 1_555
O29_3 In5_3 1_555 1_555
O30_4 In7_3 1_555 1_555
O31_4 In7_3 1_555 1_555
O32_4 In7_3 1_555 1_555
O33_4 In7_3 1_555 1_555
O34_3 In7_3 1_555 1_555
C111_4 O28_3 1_555 1_555
C112_4 O30_4 1_555 1_555
C113_4 O32_4 1_555 1_555
C114_4 C111_4 1_555 1_555
C115_4 C112_4 1_555 1_555
C116_4 C113_4 1_555 1_555
C118_4 C114_4 1_555 1_555
C119_4 C115_4 1_555 1_555
C120_4 C115_4 1_555 1_555
C122_4 C116_4 1_555 1_555
C124_4 C118_4 1_555 1_555
H59_4 C119_4 1_555 1_555
C125_4 C119_4 1_555 1_555
C126_4 C120_4 1_555 1_555
H60_4 C120_4 1_555 1_555
H62_4 C122_4 1_555 1_555
H63_4 C125_4 1_555 1_555
C130_4 C125_4 1_555 1_555
H64_4 C126_4 1_555 1_555
C133_4 C130_4 1_555 1_555
C138_4 C133_4 1_555 1_555
C139_4 C133_4 1_555 1_555
H69_4 C138_4 1_555 1_555
C146_4 C138_4 1_555 1_555
C147_4 C139_4 1_555 1_555
H70_4 C139_4 1_555 1_555
C156_4 C146_4 1_555 1_555
C157_4 C146_4 1_555 1_555
C158_4 C147_4 1_555 1_555
H74_4 C156_4 1_555 1_555
C170_4 C157_4 1_555 1_555
C171_4 C157_4 1_555 1_555
C172_4 C158_4 1_555 1_555
C173_4 C158_4 1_555 1_555
C186_4 C170_4 1_555 1_555
C187_4 C171_4 1_555 1_555
C188_4 C172_4 1_555 1_555
C189_4 C173_4 1_555 1_555
H83_4 C173_4 1_555 1_555
C198_4 C186_4 1_555 1_555
C199_4 C188_4 1_555 1_555
H94_4 C189_4 1_555 1_555
C206_4 C198_4 1_555 1_555
C207_4 C199_4 1_555 1_555
O40_2 In10 1_555 1_555
O41_2 In10 1_555 1_555
O46_3 C206_4 1_555 1_555
O47_3 C206_4 1_555 1_555
O48_4 C207_4 1_555 1_555
O49_4 C207_4 1_555 1_555
In10 O48_4 1_555 1_555
In12 O46_3 1_555 1_555
O58 In10 1_555 1_555
O59 In10 1_555 1_555
O60_2 In10 1_555 1_555
O61_2 In10 1_555 1_555
C36_4 C40_4 1_555 1_555
C53_4 C57_4 1_555 1_555
C73_4 C78_4 1_555 1_555
C75_4 C79_4 1_555 1_555
O15_3 In5_3 1_555 1_555
C106_4 C108_4 1_555 1_555
O19_2 In4_2 1_555 1_555
O23_4 In7_3 1_555 1_555
O29_3 C111_4 1_555 1_555
O31_4 C112_4 1_555 1_555
O33_4 C113_4 1_555 1_555
C126_4 C130_4 1_555 1_555
C147_4 C156_4 1_555 1_555
C187_4 C198_4 1_555 1_555
C189_4 C199_4 1_555 1_555
O47_3 In12 1_555 1_555
O49_4 In10 1_555 1_555
C74_4 H119_4 1_555 1_555
C66_4 H120_4 1_555 1_555
C124_4 H124_4 1_555 1_555
C118_4 H126_4 1_555 1_555
C171_4 H128_4 1_555 1_555
C170_4 H132_4 1_555 1_555
C172_4 H133_4 1_555 1_555
C188_4 H135_4 1_555 1_555
C187_4 H136_4 1_555 1_555
C186_4 H137_4 1_555 1_555
In1_3 O2_4 1_555 1_555
O2_4 C21_4 1_555 1_555
O3_4 In1_3 1_555 1_555
O4_4 In1_3 1_555 1_555
O5_4 In1_3 1_555 1_555
O6_4 In1_3 1_555 1_555
O7_4 In1_3 1_555 1_555
O8_3 In1_3 1_555 1_555
C21_4 O3_4 1_555 1_555
C22_4 O4_4 1_555 1_555
C23_4 O6_4 1_555 1_555
C24_4 C21_4 1_555 1_555
C25_4 C22_4 1_555 1_555
C26_4 C23_4 1_555 1_555
C27_4 C24_4 1_555 1_555
C28_4 C24_4 1_555 1_555
C30_4 C25_4 1_555 1_555
C31_4 C26_4 1_555 1_555
C32_4 C26_4 1_555 1_555
H18_4 C27_4 1_555 1_555
C33_4 C27_4 1_555 1_555
C34_4 C28_4 1_555 1_555
H19_4 C28_4 1_555 1_555
H21_4 C30_4 1_555 1_555
C38_4 C32_4 1_555 1_555
H23_4 C32_4 1_555 1_555
H24_4 C33_4 1_555 1_555
C39_4 C33_4 1_555 1_555
H25_4 C34_4 1_555 1_555
H29_4 C38_4 1_555 1_555
C42_4 C39_4 1_555 1_555
C44_4 C41_4 1_555 1_555
C45_4 C42_4 1_555 1_555
C46_4 C42_4 1_555 1_555
H30_4 C45_4 1_555 1_555
C50_4 C45_4 1_555 1_555
C51_4 C46_4 1_555 1_555
H31_4 C46_4 1_555 1_555
C54_4 C50_4 1_555 1_555
C55_4 C50_4 1_555 1_555
C56_4 C51_4 1_555 1_555
H35_4 C54_4 1_555 1_555
C61_4 C55_4 1_555 1_555
C62_4 C56_4 1_555 1_555
C63_4 C56_4 1_555 1_555
C69_4 C61_4 1_555 1_555
C70_4 C62_4 1_555 1_555
C71_4 C63_4 1_555 1_555
H37_4 C63_4 1_555 1_555
C77_4 C70_4 1_555 1_555
H41_4 C71_4 1_555 1_555
C81_4 C77_4 1_555 1_555
O12_4 C81_4 1_555 1_555
O13_4 C81_4 1_555 1_555
O16_4 C84_4 1_555 1_555
O17_4 C84_4 1_555 1_555
C84_4 C85_4 1_555 1_555
C85_4 C86_4 1_555 1_555
C86_4 H45_4 1_555 1_555
C87_4 C85_4 1_555 1_555
C88_4 C86_4 1_555 1_555
C89_4 C87_4 1_555 1_555
H46_4 C87_4 1_555 1_555
H47_4 C88_4 1_555 1_555
C90_4 C88_4 1_555 1_555
H48_4 C89_4 1_555 1_555
C91_4 C90_4 1_555 1_555
C92_4 C91_4 1_555 1_555
In3_2 O12_4 1_555 1_555
O24_2 In3_2 1_555 1_555
O25_2 In3_2 1_555 1_555
O26_2 In3_2 1_555 1_555
O27_2 In3_2 1_555 1_555
C123_4 C117_4 1_555 1_555
C129_4 C123_4 1_555 1_555
C132_4 C129_4 1_555 1_555
C135_4 C91_4 1_555 1_555
C136_4 C132_4 1_555 1_555
C137_4 C132_4 1_555 1_555
C142_4 C92_4 1_555 1_555
C143_4 C135_4 1_555 1_555
C144_4 C136_4 1_555 1_555
H67_4 C136_4 1_555 1_555
H68_4 C137_4 1_555 1_555
C145_4 C137_4 1_555 1_555
C150_4 C142_4 1_555 1_555
C151_4 C142_4 1_555 1_555
C152_4 C143_4 1_555 1_555
C153_4 C144_4 1_555 1_555
C154_4 C144_4 1_555 1_555
C155_4 C145_4 1_555 1_555
C162_4 C150_4 1_555 1_555
C163_4 C150_4 1_555 1_555
C164_4 C152_4 1_555 1_555
C165_4 C152_4 1_555 1_555
C166_4 C153_4 1_555 1_555
C167_4 C153_4 1_555 1_555
H73_4 C154_4 1_555 1_555
C168_4 C155_4 1_555 1_555
C169_4 C155_4 1_555 1_555
C178_4 C162_4 1_555 1_555
H76_4 C162_4 1_555 1_555
H77_4 C163_4 1_555 1_555
C179_4 C163_4 1_555 1_555
C180_4 C164_4 1_555 1_555
H78_4 C164_4 1_555 1_555
H79_4 C165_4 1_555 1_555
C181_4 C165_4 1_555 1_555
C182_4 C166_4 1_555 1_555
H80_4 C166_4 1_555 1_555
H81_4 C167_4 1_555 1_555
C183_4 C167_4 1_555 1_555
C184_4 C168_4 1_555 1_555
C185_4 C169_4 1_555 1_555
H82_4 C169_4 1_555 1_555
C194_4 C178_4 1_555 1_555
H87_4 C178_4 1_555 1_555
H88_4 C179_4 1_555 1_555
C195_4 C180_4 1_555 1_555
H89_4 C180_4 1_555 1_555
H90_4 C181_4 1_555 1_555
C196_4 C182_4 1_555 1_555
H91_4 C182_4 1_555 1_555
H92_4 C183_4 1_555 1_555
C197_4 C184_4 1_555 1_555
H93_4 C185_4 1_555 1_555
C202_4 C194_4 1_555 1_555
C203_4 C195_4 1_555 1_555
C204_4 C196_4 1_555 1_555
C205_4 C197_4 1_555 1_555
O36_4 C202_4 1_555 1_555
O37_4 C202_4 1_555 1_555
O58 C203_4 1_555 1_555
O59 C203_4 1_555 1_555
O42_4 C204_4 1_555 1_555
O43_4 C204_4 1_555 1_555
O44_4 C205_4 1_555 1_555
O45_4 C205_4 1_555 1_555
In8_2 O36_4 1_555 1_555
In11 O42_4 1_555 1_555
O54_2 In8_2 1_555 1_555
O55_2 In8_2 1_555 1_555
O56_2 In8_2 1_555 1_555
O57_2 In8_2 1_555 1_555
O62_4 In11 1_555 1_555
O63_4 In11 1_555 1_555
O64 In11 1_555 1_555
O65 In11 1_555 1_555
O66_3 In11 1_555 1_555
C210_4 O62_4 1_555 1_555
C211_4 C210_4 1_555 1_555
C212_4 C211_4 1_555 1_555
C213_4 C211_4 1_555 1_555
H98_4 C212_4 1_555 1_555
C214_4 C212_4 1_555 1_555
C215_4 C213_4 1_555 1_555
H99_4 C213_4 1_555 1_555
H100_4 C214_4 1_555 1_555
C216_4 C214_4 1_555 1_555
H101_4 C215_4 1_555 1_555
C217_4 C216_4 1_555 1_555
C218_4 C217_4 1_555 1_555
C219_4 C217_4 1_555 1_555
H102_4 C218_4 1_555 1_555
C220_4 C218_4 1_555 1_555
C221_4 C219_4 1_555 1_555
H103_4 C219_4 1_555 1_555
C222_4 C220_4 1_555 1_555
C223_4 C220_4 1_555 1_555
C224_4 C221_4 1_555 1_555
H104_4 C222_4 1_555 1_555
C225_4 C223_4 1_555 1_555
C226_4 C223_4 1_555 1_555
C227_4 C224_4 1_555 1_555
C228_4 C224_4 1_555 1_555
H105_4 C225_4 1_555 1_555
C229_4 C225_4 1_555 1_555
H106_4 C226_4 1_555 1_555
C230_4 C226_4 1_555 1_555
C231_4 C227_4 1_555 1_555
H107_4 C228_4 1_555 1_555
C232_4 C228_4 1_555 1_555
C233_4 C229_4 1_555 1_555
H108_4 C229_4 1_555 1_555
H109_4 C230_4 1_555 1_555
C234_4 C231_4 1_555 1_555
H110_4 C232_4 1_555 1_555
C235_4 C233_4 1_555 1_555
C236_4 C234_4 1_555 1_555
O68_2 C235_4 1_555 1_555
O69_2 C235_4 1_555 1_555
O70_3 C236_4 1_555 1_555
O71_3 C236_4 1_555 1_555
In15_2 O68_2 1_555 1_555
In12 O70_3 1_555 1_555
O5_4 C22_4 1_555 1_555
O7_4 C23_4 1_555 1_555
C34_4 C39_4 1_555 1_555
C38_4 C41_4 1_555 1_555
C51_4 C54_4 1_555 1_555
C71_4 C77_4 1_555 1_555
O13_4 In3_2 1_555 1_555
O16_4 In3_2 1_555 1_555
O17_4 In3_2 1_555 1_555
C89_4 C90_4 1_555 1_555
C143_4 C151_4 1_555 1_555
C145_4 C154_4 1_555 1_555
C179_4 C194_4 1_555 1_555
C181_4 C195_4 1_555 1_555
C183_4 C196_4 1_555 1_555
C185_4 C197_4 1_555 1_555
O37_4 In8_2 1_555 1_555
O43_4 In11 1_555 1_555
O44_4 In8_2 1_555 1_555
O45_4 In8_2 1_555 1_555
O63_4 C210_4 1_555 1_555
C215_4 C216_4 1_555 1_555
C221_4 C222_4 1_555 1_555
C230_4 C233_4 1_555 1_555
C232_4 C234_4 1_555 1_555
O69_2 In15_2 1_555 1_555
O71_3 In12 1_555 1_555
C70_4 H115_4 1_555 1_555
C62_4 H117_4 1_555 1_555
C69_4 H118_4 1_555 1_555
C61_4 H121_4 1_555 1_555
C92_4 H122_4 1_555 1_555
C123_4 H123_4 1_555 1_555
C117_4 H125_4 1_555 1_555
C135_4 H129_4 1_555 1_555
C168_4 H130_4 1_555 1_555
C151_4 H131_4 1_555 1_555
C184_4 H138_4 1_555 1_555
C227_4 H139_4 1_555 1_555
C231_4 H140_4 1_555 1_555
H50_4 C97_4 1_555 1_555
H53_4 C101_4 1_555 1_555
H61_4 C121_4 1_555 1_555
C127_4 C121_4 1_555 1_555
H65_4 C127_4 1_555 1_555
C131_4 C127_4 1_555 1_555
C134_4 C131_4 1_555 1_555
C140_4 C134_4 1_555 1_555
C141_4 C134_4 1_555 1_555
H71_4 C140_4 1_555 1_555
C148_4 C140_4 1_555 1_555
C149_4 C141_4 1_555 1_555
H72_4 C141_4 1_555 1_555
C159_4 C148_4 1_555 1_555
C160_4 C148_4 1_555 1_555
C161_4 C149_4 1_555 1_555
H75_4 C159_4 1_555 1_555
C174_4 C160_4 1_555 1_555
C175_4 C160_4 1_555 1_555
C176_4 C161_4 1_555 1_555
C177_4 C161_4 1_555 1_555
H84_4 C174_4 1_555 1_555
C190_4 C174_4 1_555 1_555
H85_4 C175_4 1_555 1_555
C191_4 C175_4 1_555 1_555
C192_4 C176_4 1_555 1_555
H86_4 C177_4 1_555 1_555
C193_4 C177_4 1_555 1_555
C200_4 C190_4 1_555 1_555
H95_4 C190_4 1_555 1_555
H96_4 C191_4 1_555 1_555
C201_4 C192_4 1_555 1_555
H97_4 C193_4 1_555 1_555
C208_4 C200_4 1_555 1_555
C209_4 C201_4 1_555 1_555
O50_2 C208_4 1_555 1_555
O51_2 C208_4 1_555 1_555
O52_3 C209_4 1_555 1_555
O53_3 C209_4 1_555 1_555
In13_2 O50_2 1_555 1_555
In14 O52_3 1_555 1_555
C128_4 C131_4 1_555 1_555
C149_4 C159_4 1_555 1_555
C191_4 C200_4 1_555 1_555
C193_4 C201_4 1_555 1_555
O51_2 In13_2 1_555 1_555
O53_3 In14 1_555 1_555
C176_4 H127_4 1_555 1_555
C192_4 H134_4 1_555 1_555
H34_4 C49_4 1_555 1_555
C68_4 C60_4 1_555 1_555
C76_4 C68_4 1_555 1_555
C80_4 C76_4 1_555 1_555
O10_3 C80_4 1_555 1_555
O11_3 C80_4 1_555 1_555
In14 O10_3 1_555 1_555
C94_4 C49_4 1_555 1_555
C96_4 C94_4 1_555 1_555
C99_4 C96_4 1_555 1_555
C100_4 C96_4 1_555 1_555
C103_4 C99_4 1_555 1_555
H51_4 C99_4 1_555 1_555
H52_4 C100_4 1_555 1_555
C104_4 C100_4 1_555 1_555
C107_4 C103_4 1_555 1_555
H55_4 C103_4 1_555 1_555
H56_4 C104_4 1_555 1_555
C109_4 C107_4 1_555 1_555
O64 C109_4 1_555 1_555
O65 C109_4 1_555 1_555
O11_3 In14 1_555 1_555
C104_4 C107_4 1_555 1_555
C68_4 H114_4 1_555 1_555
C60_4 H116_4 1_555 1_555
C166_5 C153_5 1_555 1_555
C167_5 C153_5 1_555 1_555
C182_5 C166_5 1_555 1_555
H81_5 C167_5 1_555 1_555
C183_5 C167_5 1_555 1_555
C196_5 C182_5 1_555 1_555
H91_5 C182_5 1_555 1_555
H92_5 C183_5 1_555 1_555
C204_5 C196_5 1_555 1_555
O42_5 C204_5 1_555 1_555
O43_5 C204_5 1_555 1_555
In11_2 O42_5 1_555 1_555
O62_5 In11_2 1_555 1_555
O63_5 In11_2 1_555 1_555
O64_2 In11_2 1_555 1_555
O65_2 In11_2 1_555 1_555
O66_4 In11_2 1_555 1_555
O67_4 In11_2 1_555 1_555
C210_5 O62_5 1_555 1_555
C211_5 C210_5 1_555 1_555
C212_5 C211_5 1_555 1_555
C213_5 C211_5 1_555 1_555
H98_5 C212_5 1_555 1_555
C214_5 C212_5 1_555 1_555
H100_5 C214_5 1_555 1_555
C216_5 C214_5 1_555 1_555
C217_5 C216_5 1_555 1_555
C218_5 C217_5 1_555 1_555
H102_5 C218_5 1_555 1_555
C225_5 C223_5 1_555 1_555
H105_5 C225_5 1_555 1_555
C229_5 C225_5 1_555 1_555
C233_5 C229_5 1_555 1_555
H108_5 C229_5 1_555 1_555
C235_5 C233_5 1_555 1_555
O35_3 C235_5 1_555 1_555
C183_5 C196_5 1_555 1_555
O43_5 In11_2 1_555 1_555
O63_5 C210_5 1_555 1_555
O58_2 In5_3 1_555 1_555
O59_2 In5_3 1_555 1_555
H66_5 C128_5 1_555 1_555
C138_5 C133_5 1_555 1_555
C139_5 C133_5 1_555 1_555
C146_5 C138_5 1_555 1_555
C147_5 C139_5 1_555 1_555
H70_5 C139_5 1_555 1_555
C149_5 C141_5 1_555 1_555
H72_5 C141_5 1_555 1_555
C156_5 C146_5 1_555 1_555
C157_5 C146_5 1_555 1_555
C158_5 C147_5 1_555 1_555
C159_5 C148_5 1_555 1_555
C161_5 C149_5 1_555 1_555
H74_5 C156_5 1_555 1_555
C170_5 C157_5 1_555 1_555
C171_5 C157_5 1_555 1_555
C172_5 C158_5 1_555 1_555
C173_5 C158_5 1_555 1_555
H75_5 C159_5 1_555 1_555
C176_5 C161_5 1_555 1_555
C177_5 C161_5 1_555 1_555
C186_5 C170_5 1_555 1_555
C187_5 C171_5 1_555 1_555
C188_5 C172_5 1_555 1_555
C189_5 C173_5 1_555 1_555
H83_5 C173_5 1_555 1_555
H85_5 C175_5 1_555 1_555
C191_5 C175_5 1_555 1_555
C192_5 C176_5 1_555 1_555
H86_5 C177_5 1_555 1_555
C193_5 C177_5 1_555 1_555
C198_5 C186_5 1_555 1_555
C199_5 C188_5 1_555 1_555
H94_5 C189_5 1_555 1_555
H96_5 C191_5 1_555 1_555
C201_5 C192_5 1_555 1_555
H97_5 C193_5 1_555 1_555
C206_5 C198_5 1_555 1_555
C207_5 C199_5 1_555 1_555
C209_5 C201_5 1_555 1_555
O46_4 C206_5 1_555 1_555
O47_4 C206_5 1_555 1_555
O48_5 C207_5 1_555 1_555
O49_5 C207_5 1_555 1_555
O52_4 C209_5 1_555 1_555
O53_4 C209_5 1_555 1_555
In12_2 O46_4 1_555 1_555
In14_2 O52_4 1_555 1_555
C147_5 C156_5 1_555 1_555
C149_5 C159_5 1_555 1_555
C187_5 C198_5 1_555 1_555
C189_5 C199_5 1_555 1_555
C193_5 C201_5 1_555 1_555
O47_4 In12_2 1_555 1_555
O53_4 In14_2 1_555 1_555
C176_5 H127_5 1_555 1_555
C171_5 H128_5 1_555 1_555
C172_5 H133_5 1_555 1_555
C192_5 H134_5 1_555 1_555
C188_5 H135_5 1_555 1_555
C187_5 H136_5 1_555 1_555
O16_5 C84_5 1_555 1_555
O17_5 C84_5 1_555 1_555
C84_5 C85_5 1_555 1_555
C85_5 C86_5 1_555 1_555
C86_5 H45_5 1_555 1_555
C87_5 C85_5 1_555 1_555
C88_5 C86_5 1_555 1_555
C89_5 C87_5 1_555 1_555
H46_5 C87_5 1_555 1_555
H47_5 C88_5 1_555 1_555
C90_5 C88_5 1_555 1_555
H48_5 C89_5 1_555 1_555
C91_5 C90_5 1_555 1_555
C92_5 C91_5 1_555 1_555
C135_5 C91_5 1_555 1_555
C142_5 C92_5 1_555 1_555
C143_5 C135_5 1_555 1_555
C150_5 C142_5 1_555 1_555
C151_5 C142_5 1_555 1_555
C152_5 C143_5 1_555 1_555
C162_5 C150_5 1_555 1_555
C163_5 C150_5 1_555 1_555
C164_5 C152_5 1_555 1_555
C165_5 C152_5 1_555 1_555
C178_5 C162_5 1_555 1_555
H76_5 C162_5 1_555 1_555
H77_5 C163_5 1_555 1_555
C179_5 C163_5 1_555 1_555
C180_5 C164_5 1_555 1_555
H78_5 C164_5 1_555 1_555
H79_5 C165_5 1_555 1_555
C181_5 C165_5 1_555 1_555
C194_5 C178_5 1_555 1_555
H87_5 C178_5 1_555 1_555
H88_5 C179_5 1_555 1_555
C195_5 C180_5 1_555 1_555
H89_5 C180_5 1_555 1_555
H90_5 C181_5 1_555 1_555
C202_5 C194_5 1_555 1_555
C203_5 C195_5 1_555 1_555
O36_5 C202_5 1_555 1_555
O37_5 C202_5 1_555 1_555
O58_2 C203_5 1_555 1_555
O59_2 C203_5 1_555 1_555
In14 O36_5 1_555 1_555
O16_5 In12 1_555 1_555
O17_5 In12 1_555 1_555
C89_5 C90_5 1_555 1_555
C143_5 C151_5 1_555 1_555
C179_5 C194_5 1_555 1_555
C181_5 C195_5 1_555 1_555
O37_5 In14 1_555 1_555
C92_5 H122_5 1_555 1_555
C135_5 H129_5 1_555 1_555
C151_5 H131_5 1_555 1_555
In1_4 O2_5 1_555 1_555
O2_5 C21_5 1_555 1_555
O3_5 In1_4 1_555 1_555
O4_5 In1_4 1_555 1_555
O5_5 In1_4 1_555 1_555
O6_5 In1_4 1_555 1_555
O7_5 In1_4 1_555 1_555
O8_4 In1_4 1_555 1_555
O9_4 In1_4 1_555 1_555
C21_5 O3_5 1_555 1_555
C22_5 O4_5 1_555 1_555
C23_5 O6_5 1_555 1_555
C24_5 C21_5 1_555 1_555
C25_5 C22_5 1_555 1_555
C26_5 C23_5 1_555 1_555
C27_5 C24_5 1_555 1_555
C28_5 C24_5 1_555 1_555
C29_5 C25_5 1_555 1_555
C30_5 C25_5 1_555 1_555
C31_5 C26_5 1_555 1_555
C32_5 C26_5 1_555 1_555
H18_5 C27_5 1_555 1_555
C33_5 C27_5 1_555 1_555
C34_5 C28_5 1_555 1_555
H19_5 C28_5 1_555 1_555
H20_5 C29_5 1_555 1_555
C35_5 C29_5 1_555 1_555
C36_5 C30_5 1_555 1_555
H21_5 C30_5 1_555 1_555
H22_5 C31_5 1_555 1_555
C37_5 C31_5 1_555 1_555
C38_5 C32_5 1_555 1_555
H23_5 C32_5 1_555 1_555
H24_5 C33_5 1_555 1_555
C39_5 C33_5 1_555 1_555
H25_5 C34_5 1_555 1_555
H26_5 C35_5 1_555 1_555
C40_5 C35_5 1_555 1_555
H27_5 C36_5 1_555 1_555
H28_5 C37_5 1_555 1_555
C41_5 C37_5 1_555 1_555
H29_5 C38_5 1_555 1_555
C42_5 C39_5 1_555 1_555
C43_5 C40_5 1_555 1_555
C44_5 C41_5 1_555 1_555
C45_5 C42_5 1_555 1_555
C46_5 C42_5 1_555 1_555
C47_5 C43_5 1_555 1_555
C48_5 C43_5 1_555 1_555
C49_5 C44_5 1_555 1_555
H30_5 C45_5 1_555 1_555
C50_5 C45_5 1_555 1_555
C51_5 C46_5 1_555 1_555
H31_5 C46_5 1_555 1_555
H32_5 C47_5 1_555 1_555
C52_5 C47_5 1_555 1_555
C53_5 C48_5 1_555 1_555
H33_5 C48_5 1_555 1_555
H34_5 C49_5 1_555 1_555
C54_5 C50_5 1_555 1_555
C55_5 C50_5 1_555 1_555
C56_5 C51_5 1_555 1_555
C57_5 C52_5 1_555 1_555
C58_5 C52_5 1_555 1_555
C59_5 C53_5 1_555 1_555
H35_5 C54_5 1_555 1_555
C60_5 C55_5 1_555 1_555
C61_5 C55_5 1_555 1_555
C62_5 C56_5 1_555 1_555
C63_5 C56_5 1_555 1_555
H36_5 C57_5 1_555 1_555
C64_5 C58_5 1_555 1_555
C65_5 C58_5 1_555 1_555
C66_5 C59_5 1_555 1_555
C67_5 C59_5 1_555 1_555
C68_5 C60_5 1_555 1_555
C69_5 C61_5 1_555 1_555
C70_5 C62_5 1_555 1_555
C71_5 C63_5 1_555 1_555
H37_5 C63_5 1_555 1_555
H38_5 C64_5 1_555 1_555
C72_5 C64_5 1_555 1_555
H39_5 C65_5 1_555 1_555
C73_5 C65_5 1_555 1_555
C74_5 C66_5 1_555 1_555
H40_5 C67_5 1_555 1_555
C75_5 C67_5 1_555 1_555
C76_5 C68_5 1_555 1_555
C77_5 C70_5 1_555 1_555
H41_5 C71_5 1_555 1_555
C78_5 C72_5 1_555 1_555
H42_5 C72_5 1_555 1_555
H43_5 C73_5 1_555 1_555
C79_5 C74_5 1_555 1_555
H44_5 C75_5 1_555 1_555
C80_5 C76_5 1_555 1_555
C81_5 C77_5 1_555 1_555
C82_5 C78_5 1_555 1_555
C83_5 C79_5 1_555 1_555
O10_4 C80_5 1_555 1_555
O11_4 C80_5 1_555 1_555
O12_5 C81_5 1_555 1_555
O13_5 C81_5 1_555 1_555
O14_4 C83_5 1_555 1_555
O15_4 C83_5 1_555 1_555
In14_2 O10_4 1_555 1_555
C93_5 C44_5 1_555 1_555
C94_5 C49_5 1_555 1_555
C95_5 C93_5 1_555 1_555
H49_5 C93_5 1_555 1_555
C96_5 C94_5 1_555 1_555
C97_5 C94_5 1_555 1_555
C98_5 C95_5 1_555 1_555
C99_5 C96_5 1_555 1_555
C100_5 C96_5 1_555 1_555
H50_5 C97_5 1_555 1_555
C101_5 C98_5 1_555 1_555
C102_5 C98_5 1_555 1_555
C103_5 C99_5 1_555 1_555
H51_5 C99_5 1_555 1_555
H52_5 C100_5 1_555 1_555
C104_5 C100_5 1_555 1_555
C105_5 C101_5 1_555 1_555
H53_5 C101_5 1_555 1_555
H54_5 C102_5 1_555 1_555
C106_5 C102_5 1_555 1_555
C107_5 C103_5 1_555 1_555
H55_5 C103_5 1_555 1_555
H56_5 C104_5 1_555 1_555
C108_5 C105_5 1_555 1_555
H57_5 C105_5 1_555 1_555
H58_5 C106_5 1_555 1_555
C109_5 C107_5 1_555 1_555
C110_5 C108_5 1_555 1_555
O67_3 C82_5 1_555 1_555
O64_2 C109_5 1_555 1_555
O65_2 C109_5 1_555 1_555
O22_5 C110_5 1_555 1_555
O23_5 C110_5 1_555 1_555
In5_4 O14_4 1_555 1_555
In7_4 O22_5 1_555 1_555
O28_4 In5_4 1_555 1_555
O29_4 In5_4 1_555 1_555
O30_5 In7_4 1_555 1_555
O31_5 In7_4 1_555 1_555
O32_5 In7_4 1_555 1_555
O33_5 In7_4 1_555 1_555
O34_4 In7_4 1_555 1_555
O35_4 In7_4 1_555 1_555
C111_5 O28_4 1_555 1_555
C112_5 O30_5 1_555 1_555
C113_5 O32_5 1_555 1_555
C114_5 C111_5 1_555 1_555
C115_5 C112_5 1_555 1_555
C116_5 C113_5 1_555 1_555
C117_5 C114_5 1_555 1_555
C118_5 C114_5 1_555 1_555
C119_5 C115_5 1_555 1_555
C120_5 C115_5 1_555 1_555
C121_5 C116_5 1_555 1_555
C122_5 C116_5 1_555 1_555
C123_5 C117_5 1_555 1_555
C124_5 C118_5 1_555 1_555
H59_5 C119_5 1_555 1_555
C125_5 C119_5 1_555 1_555
C126_5 C120_5 1_555 1_555
H60_5 C120_5 1_555 1_555
H61_5 C121_5 1_555 1_555
C127_5 C121_5 1_555 1_555
C129_5 C123_5 1_555 1_555
C130_5 C125_5 1_555 1_555
H64_5 C126_5 1_555 1_555
H65_5 C127_5 1_555 1_555
C131_5 C127_5 1_555 1_555
C132_5 C129_5 1_555 1_555
C134_5 C131_5 1_555 1_555
C136_5 C132_5 1_555 1_555
C137_5 C132_5 1_555 1_555
C140_5 C134_5 1_555 1_555
C144_5 C136_5 1_555 1_555
H68_5 C137_5 1_555 1_555
C145_5 C137_5 1_555 1_555
H71_5 C140_5 1_555 1_555
C154_5 C144_5 1_555 1_555
C155_5 C145_5 1_555 1_555
H73_5 C154_5 1_555 1_555
C168_5 C155_5 1_555 1_555
C169_5 C155_5 1_555 1_555
C174_5 C160_5 1_555 1_555
C184_5 C168_5 1_555 1_555
C185_5 C169_5 1_555 1_555
H82_5 C169_5 1_555 1_555
H84_5 C174_5 1_555 1_555
C190_5 C174_5 1_555 1_555
C197_5 C184_5 1_555 1_555
H93_5 C185_5 1_555 1_555
C200_5 C190_5 1_555 1_555
H95_5 C190_5 1_555 1_555
C205_5 C197_5 1_555 1_555
C208_5 C200_5 1_555 1_555
O44_5 C205_5 1_555 1_555
O45_5 C205_5 1_555 1_555
O9_3 C208_5 1_555 1_555
H101_5 C215_5 1_555 1_555
C221_5 C219_5 1_555 1_555
H103_5 C219_5 1_555 1_555
C222_5 C220_5 1_555 1_555
C224_5 C221_5 1_555 1_555
H104_5 C222_5 1_555 1_555
C227_5 C224_5 1_555 1_555
C228_5 C224_5 1_555 1_555
H106_5 C226_5 1_555 1_555
C230_5 C226_5 1_555 1_555
C231_5 C227_5 1_555 1_555
H107_5 C228_5 1_555 1_555
C232_5 C228_5 1_555 1_555
H109_5 C230_5 1_555 1_555
C234_5 C231_5 1_555 1_555
H110_5 C232_5 1_555 1_555
C236_5 C234_5 1_555 1_555
O70_4 C236_5 1_555 1_555
O71_4 C236_5 1_555 1_555
In12_2 O70_4 1_555 1_555
O5_5 C22_5 1_555 1_555
O7_5 C23_5 1_555 1_555
C34_5 C39_5 1_555 1_555
C36_5 C40_5 1_555 1_555
C38_5 C41_5 1_555 1_555
C51_5 C54_5 1_555 1_555
C53_5 C57_5 1_555 1_555
C69_5 C76_5 1_555 1_555
C71_5 C77_5 1_555 1_555
C73_5 C78_5 1_555 1_555
C75_5 C79_5 1_555 1_555
O11_4 In14_2 1_555 1_555
O15_4 In5_4 1_555 1_555
C95_5 C97_5 1_555 1_555
C104_5 C107_5 1_555 1_555
C106_5 C108_5 1_555 1_555
O23_5 In7_4 1_555 1_555
O29_4 C111_5 1_555 1_555
O31_5 C112_5 1_555 1_555
O33_5 C113_5 1_555 1_555
C124_5 C129_5 1_555 1_555
C126_5 C130_5 1_555 1_555
C145_5 C154_5 1_555 1_555
C185_5 C197_5 1_555 1_555
C221_5 C222_5 1_555 1_555
C232_5 C234_5 1_555 1_555
O71_4 In12_2 1_555 1_555
C68_5 H114_5 1_555 1_555
C70_5 H115_5 1_555 1_555
C60_5 H116_5 1_555 1_555
C62_5 H117_5 1_555 1_555
C69_5 H118_5 1_555 1_555
C74_5 H119_5 1_555 1_555
C66_5 H120_5 1_555 1_555
C61_5 H121_5 1_555 1_555
C123_5 H123_5 1_555 1_555
C117_5 H125_5 1_555 1_555
C168_5 H130_5 1_555 1_555
C184_5 H138_5 1_555 1_555
C227_5 H139_5 1_555 1_555
C231_5 H140_5 1_555 1_555
H27_6 C36_6 1_555 1_555
C43_6 C40_6 1_555 1_555
C47_6 C43_6 1_555 1_555
C48_6 C43_6 1_555 1_555
H32_6 C47_6 1_555 1_555
C52_6 C47_6 1_555 1_555
C53_6 C48_6 1_555 1_555
H33_6 C48_6 1_555 1_555
C57_6 C52_6 1_555 1_555
C58_6 C52_6 1_555 1_555
C59_6 C53_6 1_555 1_555
H36_6 C57_6 1_555 1_555
C64_6 C58_6 1_555 1_555
C65_6 C58_6 1_555 1_555
C66_6 C59_6 1_555 1_555
C67_6 C59_6 1_555 1_555
H38_6 C64_6 1_555 1_555
C72_6 C64_6 1_555 1_555
H39_6 C65_6 1_555 1_555
C73_6 C65_6 1_555 1_555
C74_6 C66_6 1_555 1_555
H40_6 C67_6 1_555 1_555
C75_6 C67_6 1_555 1_555
C78_6 C72_6 1_555 1_555
H42_6 C72_6 1_555 1_555
H43_6 C73_6 1_555 1_555
C79_6 C74_6 1_555 1_555
H44_6 C75_6 1_555 1_555
C82_6 C78_6 1_555 1_555
C83_6 C79_6 1_555 1_555
O60_2 C83_6 1_555 1_555
O61_2 C83_6 1_555 1_555
O66_4 C82_6 1_555 1_555
O67_4 C82_6 1_555 1_555
C111_6 O40_2 1_555 1_555
C114_6 C111_6 1_555 1_555
C117_6 C114_6 1_555 1_555
C118_6 C114_6 1_555 1_555
C123_6 C117_6 1_555 1_555
C124_6 C118_6 1_555 1_555
C129_6 C123_6 1_555 1_555
C132_6 C129_6 1_555 1_555
C136_6 C132_6 1_555 1_555
C137_6 C132_6 1_555 1_555
C142_6 C92_6 1_555 1_555
C144_6 C136_6 1_555 1_555
H67_6 C136_6 1_555 1_555
H68_6 C137_6 1_555 1_555
C145_6 C137_6 1_555 1_555
C150_6 C142_6 1_555 1_555
C153_6 C144_6 1_555 1_555
C154_6 C144_6 1_555 1_555
C155_6 C145_6 1_555 1_555
C162_6 C150_6 1_555 1_555
C163_6 C150_6 1_555 1_555
C166_6 C153_6 1_555 1_555
C167_6 C153_6 1_555 1_555
H73_6 C154_6 1_555 1_555
C168_6 C155_6 1_555 1_555
C169_6 C155_6 1_555 1_555
C170_6 C157_6 1_555 1_555
C171_6 C157_6 1_555 1_555
C178_6 C162_6 1_555 1_555
H76_6 C162_6 1_555 1_555
H77_6 C163_6 1_555 1_555
C179_6 C163_6 1_555 1_555
C182_6 C166_6 1_555 1_555
H80_6 C166_6 1_555 1_555
H81_6 C167_6 1_555 1_555
C183_6 C167_6 1_555 1_555
C184_6 C168_6 1_555 1_555
C185_6 C169_6 1_555 1_555
H82_6 C169_6 1_555 1_555
C186_6 C170_6 1_555 1_555
C187_6 C171_6 1_555 1_555
C194_6 C178_6 1_555 1_555
H87_6 C178_6 1_555 1_555
H88_6 C179_6 1_555 1_555
C196_6 C182_6 1_555 1_555
H91_6 C182_6 1_555 1_555
H92_6 C183_6 1_555 1_555
C197_6 C184_6 1_555 1_555
H93_6 C185_6 1_555 1_555
C198_6 C186_6 1_555 1_555
C202_6 C194_6 1_555 1_555
C204_6 C196_6 1_555 1_555
C205_6 C197_6 1_555 1_555
C206_6 C198_6 1_555 1_555
O36_6 C202_6 1_555 1_555
O37_6 C202_6 1_555 1_555
O42_6 C204_6 1_555 1_555
O43_6 C204_6 1_555 1_555
O44_6 C205_6 1_555 1_555
O45_6 C205_6 1_555 1_555
O26_2 C206_6 1_555 1_555
O27_2 C206_6 1_555 1_555
In14_2 O36_6 1_555 1_555
In4_2 O42_6 1_555 1_555
O62_6 In4_2 1_555 1_555
O63_6 In4_2 1_555 1_555
O64_3 In4_2 1_555 1_555
O65_3 In4_2 1_555 1_555
C210_6 O62_6 1_555 1_555
C211_6 C210_6 1_555 1_555
C212_6 C211_6 1_555 1_555
C213_6 C211_6 1_555 1_555
H98_6 C212_6 1_555 1_555
C214_6 C212_6 1_555 1_555
H99_6 C213_6 1_555 1_555
H100_6 C214_6 1_555 1_555
C36_6 C40_6 1_555 1_555
C53_6 C57_6 1_555 1_555
C73_6 C78_6 1_555 1_555
C75_6 C79_6 1_555 1_555
O41_2 C111_6 1_555 1_555
C124_6 C129_6 1_555 1_555
C145_6 C154_6 1_555 1_555
C179_6 C194_6 1_555 1_555
C183_6 C196_6 1_555 1_555
C185_6 C197_6 1_555 1_555
C187_6 C198_6 1_555 1_555
O37_6 In14_2 1_555 1_555
O43_6 In4_2 1_555 1_555
O44_6 In14_2 1_555 1_555
O45_6 In14_2 1_555 1_555
O63_6 C210_6 1_555 1_555
C74_6 H119_6 1_555 1_555
C66_6 H120_6 1_555 1_555
C92_6 H122_6 1_555 1_555
C123_6 H123_6 1_555 1_555
C124_6 H124_6 1_555 1_555
C117_6 H125_6 1_555 1_555
C118_6 H126_6 1_555 1_555
C171_6 H128_6 1_555 1_555
C168_6 H130_6 1_555 1_555
C187_6 H136_6 1_555 1_555
C186_6 H137_6 1_555 1_555
C184_6 H138_6 1_555 1_555
H79_6 C165_6 1_555 1_555
C181_6 C165_6 1_555 1_555
H90_6 C181_6 1_555 1_555
H101_6 C215_6 1_555 1_555
C217_6 C216_6 1_555 1_555
C218_6 C217_6 1_555 1_555
C219_6 C217_6 1_555 1_555
H102_6 C218_6 1_555 1_555
C220_6 C218_6 1_555 1_555
C221_6 C219_6 1_555 1_555
H103_6 C219_6 1_555 1_555
C222_6 C220_6 1_555 1_555
C223_6 C220_6 1_555 1_555
C224_6 C221_6 1_555 1_555
H104_6 C222_6 1_555 1_555
C225_6 C223_6 1_555 1_555
C226_6 C223_6 1_555 1_555
C227_6 C224_6 1_555 1_555
C228_6 C224_6 1_555 1_555
H105_6 C225_6 1_555 1_555
C229_6 C225_6 1_555 1_555
H106_6 C226_6 1_555 1_555
C230_6 C226_6 1_555 1_555
C231_6 C227_6 1_555 1_555
H107_6 C228_6 1_555 1_555
C232_6 C228_6 1_555 1_555
C233_6 C229_6 1_555 1_555
H108_6 C229_6 1_555 1_555
H109_6 C230_6 1_555 1_555
C234_6 C231_6 1_555 1_555
H110_6 C232_6 1_555 1_555
C235_6 C233_6 1_555 1_555
C236_6 C234_6 1_555 1_555
O34_4 C235_6 1_555 1_555
O35_4 C235_6 1_555 1_555
O24_2 C236_6 1_555 1_555
O25_2 C236_6 1_555 1_555
C215_6 C216_6 1_555 1_555
C221_6 C222_6 1_555 1_555
C230_6 C233_6 1_555 1_555
C232_6 C234_6 1_555 1_555
C151_6 H131_6 1_555 1_555
C227_6 H139_6 1_555 1_555
C231_6 H140_6 1_555 1_555
In13_2 O2_6 1_555 1_555
O2_6 C21_6 1_555 1_555
O3_6 In13_2 1_555 1_555
O4_6 In13_2 1_555 1_555
O5_6 In13_2 1_555 1_555
O6_6 In13_2 1_555 1_555
O7_6 In13_2 1_555 1_555
C21_6 O3_6 1_555 1_555
C22_6 O4_6 1_555 1_555
C23_6 O6_6 1_555 1_555
C24_6 C21_6 1_555 1_555
C25_6 C22_6 1_555 1_555
C26_6 C23_6 1_555 1_555
C27_6 C24_6 1_555 1_555
C28_6 C24_6 1_555 1_555
C29_6 C25_6 1_555 1_555
C30_6 C25_6 1_555 1_555
C31_6 C26_6 1_555 1_555
C32_6 C26_6 1_555 1_555
H18_6 C27_6 1_555 1_555
C33_6 C27_6 1_555 1_555
C34_6 C28_6 1_555 1_555
H19_6 C28_6 1_555 1_555
H20_6 C29_6 1_555 1_555
C35_6 C29_6 1_555 1_555
H21_6 C30_6 1_555 1_555
H22_6 C31_6 1_555 1_555
C37_6 C31_6 1_555 1_555
C38_6 C32_6 1_555 1_555
H23_6 C32_6 1_555 1_555
H24_6 C33_6 1_555 1_555
C39_6 C33_6 1_555 1_555
H25_6 C34_6 1_555 1_555
H26_6 C35_6 1_555 1_555
H28_6 C37_6 1_555 1_555
C41_6 C37_6 1_555 1_555
H29_6 C38_6 1_555 1_555
C42_6 C39_6 1_555 1_555
C44_6 C41_6 1_555 1_555
C45_6 C42_6 1_555 1_555
C46_6 C42_6 1_555 1_555
C49_6 C44_6 1_555 1_555
H30_6 C45_6 1_555 1_555
C50_6 C45_6 1_555 1_555
C51_6 C46_6 1_555 1_555
H31_6 C46_6 1_555 1_555
H34_6 C49_6 1_555 1_555
C54_6 C50_6 1_555 1_555
C56_6 C51_6 1_555 1_555
H35_6 C54_6 1_555 1_555
C62_6 C56_6 1_555 1_555
C63_6 C56_6 1_555 1_555
C70_6 C62_6 1_555 1_555
C71_6 C63_6 1_555 1_555
H37_6 C63_6 1_555 1_555
C77_6 C70_6 1_555 1_555
C81_6 C77_6 1_555 1_555
O12_6 C81_6 1_555 1_555
O13_6 C81_6 1_555 1_555
O16_6 C84_6 1_555 1_555
O17_6 C84_6 1_555 1_555
C84_6 C85_6 1_555 1_555
C85_6 C86_6 1_555 1_555
C86_6 H45_6 1_555 1_555
C88_6 C86_6 1_555 1_555
H47_6 C88_6 1_555 1_555
C90_6 C88_6 1_555 1_555
C91_6 C90_6 1_555 1_555
C93_6 C44_6 1_555 1_555
C94_6 C49_6 1_555 1_555
C95_6 C93_6 1_555 1_555
H49_6 C93_6 1_555 1_555
C96_6 C94_6 1_555 1_555
C97_6 C94_6 1_555 1_555
C98_6 C95_6 1_555 1_555
C99_6 C96_6 1_555 1_555
C100_6 C96_6 1_555 1_555
H50_6 C97_6 1_555 1_555
C101_6 C98_6 1_555 1_555
C102_6 C98_6 1_555 1_555
C103_6 C99_6 1_555 1_555
H51_6 C99_6 1_555 1_555
H52_6 C100_6 1_555 1_555
C104_6 C100_6 1_555 1_555
C105_6 C101_6 1_555 1_555
H53_6 C101_6 1_555 1_555
H54_6 C102_6 1_555 1_555
C106_6 C102_6 1_555 1_555
C107_6 C103_6 1_555 1_555
H55_6 C103_6 1_555 1_555
H56_6 C104_6 1_555 1_555
C108_6 C105_6 1_555 1_555
H57_6 C105_6 1_555 1_555
H58_6 C106_6 1_555 1_555
C109_6 C107_6 1_555 1_555
C110_6 C108_6 1_555 1_555
O64_3 C109_6 1_555 1_555
O65_3 C109_6 1_555 1_555
O22_6 C110_6 1_555 1_555
O23_6 C110_6 1_555 1_555
In12_2 O12_6 1_555 1_555
In15_2 O22_6 1_555 1_555
O30_6 In15_2 1_555 1_555
O31_6 In15_2 1_555 1_555
O32_6 In15_2 1_555 1_555
O33_6 In15_2 1_555 1_555
C112_6 O30_6 1_555 1_555
C113_6 O32_6 1_555 1_555
C115_6 C112_6 1_555 1_555
C116_6 C113_6 1_555 1_555
C119_6 C115_6 1_555 1_555
C120_6 C115_6 1_555 1_555
C121_6 C116_6 1_555 1_555
C122_6 C116_6 1_555 1_555
H59_6 C119_6 1_555 1_555
C125_6 C119_6 1_555 1_555
C126_6 C120_6 1_555 1_555
H60_6 C120_6 1_555 1_555
H61_6 C121_6 1_555 1_555
C127_6 C121_6 1_555 1_555
C128_6 C122_6 1_555 1_555
H62_6 C122_6 1_555 1_555
H63_6 C125_6 1_555 1_555
C130_6 C125_6 1_555 1_555
H64_6 C126_6 1_555 1_555
H65_6 C127_6 1_555 1_555
C131_6 C127_6 1_555 1_555
H66_6 C128_6 1_555 1_555
C133_6 C130_6 1_555 1_555
C134_6 C131_6 1_555 1_555
C138_6 C133_6 1_555 1_555
C139_6 C133_6 1_555 1_555
C140_6 C134_6 1_555 1_555
C141_6 C134_6 1_555 1_555
H69_6 C138_6 1_555 1_555
C146_6 C138_6 1_555 1_555
C147_6 C139_6 1_555 1_555
H70_6 C139_6 1_555 1_555
H71_6 C140_6 1_555 1_555
C148_6 C140_6 1_555 1_555
C149_6 C141_6 1_555 1_555
H72_6 C141_6 1_555 1_555
C156_6 C146_6 1_555 1_555
C158_6 C147_6 1_555 1_555
C159_6 C148_6 1_555 1_555
C160_6 C148_6 1_555 1_555
C161_6 C149_6 1_555 1_555
H74_6 C156_6 1_555 1_555
C172_6 C158_6 1_555 1_555
C173_6 C158_6 1_555 1_555
H75_6 C159_6 1_555 1_555
C174_6 C160_6 1_555 1_555
C175_6 C160_6 1_555 1_555
C176_6 C161_6 1_555 1_555
C177_6 C161_6 1_555 1_555
C188_6 C172_6 1_555 1_555
C189_6 C173_6 1_555 1_555
H83_6 C173_6 1_555 1_555
H84_6 C174_6 1_555 1_555
C190_6 C174_6 1_555 1_555
H85_6 C175_6 1_555 1_555
C191_6 C175_6 1_555 1_555
C192_6 C176_6 1_555 1_555
H86_6 C177_6 1_555 1_555
C193_6 C177_6 1_555 1_555
C199_6 C188_6 1_555 1_555
C200_6 C190_6 1_555 1_555
H95_6 C190_6 1_555 1_555
H96_6 C191_6 1_555 1_555
C201_6 C192_6 1_555 1_555
H97_6 C193_6 1_555 1_555
C207_6 C199_6 1_555 1_555
C208_6 C200_6 1_555 1_555
C209_6 C201_6 1_555 1_555
O48_6 C207_6 1_555 1_555
O49_6 C207_6 1_555 1_555
O8_4 C208_6 1_555 1_555
O9_4 C208_6 1_555 1_555
O54_2 C209_6 1_555 1_555
O55_2 C209_6 1_555 1_555
In5_4 O48_6 1_555 1_555
O58_3 In5_4 1_555 1_555
O59_3 In5_4 1_555 1_555
O5_6 C22_6 1_555 1_555
O7_6 C23_6 1_555 1_555
C34_6 C39_6 1_555 1_555
C38_6 C41_6 1_555 1_555
C51_6 C54_6 1_555 1_555
C71_6 C77_6 1_555 1_555
O13_6 In12_2 1_555 1_555
O16_6 In12_2 1_555 1_555
O17_6 In12_2 1_555 1_555
C95_6 C97_6 1_555 1_555
C104_6 C107_6 1_555 1_555
C106_6 C108_6 1_555 1_555
O23_6 In15_2 1_555 1_555
O31_6 C112_6 1_555 1_555
O33_6 C113_6 1_555 1_555
C126_6 C130_6 1_555 1_555
C128_6 C131_6 1_555 1_555
C147_6 C156_6 1_555 1_555
C149_6 C159_6 1_555 1_555
C189_6 C199_6 1_555 1_555
C191_6 C200_6 1_555 1_555
C193_6 C201_6 1_555 1_555
O49_6 In5_4 1_555 1_555
C70_6 H115_6 1_555 1_555
C62_6 H117_6 1_555 1_555
C176_6 H127_6 1_555 1_555
C172_6 H133_6 1_555 1_555
C192_6 H134_6 1_555 1_555
C188_6 H135_6 1_555 1_555
C60_6 C55_6 1_555 1_555
C61_6 C55_6 1_555 1_555
C68_6 C60_6 1_555 1_555
C69_6 C61_6 1_555 1_555
C76_6 C68_6 1_555 1_555
C80_6 C76_6 1_555 1_555
O56_2 C80_6 1_555 1_555
O57_2 C80_6 1_555 1_555
C89_6 C87_6 1_555 1_555
H46_6 C87_6 1_555 1_555
H48_6 C89_6 1_555 1_555
C143_6 C135_6 1_555 1_555
C152_6 C143_6 1_555 1_555
C164_6 C152_6 1_555 1_555
C180_6 C164_6 1_555 1_555
H78_6 C164_6 1_555 1_555
C195_6 C180_6 1_555 1_555
H89_6 C180_6 1_555 1_555
C203_6 C195_6 1_555 1_555
O58_3 C203_6 1_555 1_555
O59_3 C203_6 1_555 1_555
C69_6 C76_6 1_555 1_555
C68_6 H114_6 1_555 1_555
C69_6 H118_6 1_555 1_555
C61_6 H121_6 1_555 1_555
C135_6 H129_6 1_555 1_555

#END
