
###############################################################################
#
# This file contains modified crystal structure data generated from the
# MOF subset of the Cambridge Structural Database (CSD) v543 
# hosted by the Cambridge Crystallographic Data Centre (CCDC).
#
# This work is licensed under the Creative Commons
# Attribution-NonCommercial-ShareAlike 4.0 International License.
# To view a copy of this license, visit
# http://creativecommons.org/licenses/by-nc-sa/4.0/
# or send a letter to
# Creative Commons, PO Box 1866, Mountain View, CA 94042, USA.
#
# CIF created using the CSD Python API on 29 September 2022
# The structure has been converted into the P1 space group
# The structure has a 3D framework
# The original CSD entry CIFMIP is in the orthorhombic crystal system
# The framework has been calculated to contain at least 10.0% void space
# The void calculation uses a probe of radius 1.32A, grid spacing 0.4
#
###############################################################################

data_CIFMIP
_chemical_formula_moiety         '(C168 H136 Co24 N8 O120)n'
_symmetry_cell_setting           triclinic
_symmetry_space_group_name_H-M   'P 1'
_symmetry_Int_Tables_number      1
_space_group_name_Hall           'P 1'
loop_
_symmetry_equiv_pos_site_id
_symmetry_equiv_pos_as_xyz
1 x,y,z
_cell_length_a                   19.695(4)
_cell_length_b                   21.188(4)
_cell_length_c                   17.820(4)
_cell_angle_alpha                90
_cell_angle_beta                 90
_cell_angle_gamma                90
_cell_volume                     7436.24
loop_
_atom_site_label
_atom_site_type_symbol
_atom_site_fract_x
_atom_site_fract_y
_atom_site_fract_z
O10 O 0.3327(8) 0.0475(6) 0.3087(10)
O13 O 0.2567(9) 0.0207(8) 0.2228(8)
C17 C 0.2877(11) 0.0096(12) 0.2818(9)
Co6 Co 0.33147(12) 0.14409(12) 0.31045(13)
Co9 Co 0.23790(12) 0.10001(12) 0.15875(15)
O1 O 0.2866(8) 0.9415(7) 0.5544(7)
O2 O 0.2334(10) 0.8498(7) 0.5561(8)
C1 C 0.2616(13) 0.8961(12) 0.5200(14)
C2 C 0.2623(9) 0.8936(9) 0.4366(9)
C3 C 0.2351(14) 0.8410(12) 0.3966(11)
H1 H 0.2220 0.8049 0.4227
C4 C 0.2716(11) 0.9502(9) 0.3173(12)
C5 C 0.2460(12) 0.8997(11) 0.2798(12)
H2 H 0.2399 0.9012 0.2281
C6 C 0.2282(11) 0.8432(9) 0.3217(10)
C7 C 0.1986(9) 0.7860(10) 0.2802(13)
O3 O 0.1795(10) 0.7418(7) 0.3203(7)
O4 O 0.1916(8) 0.7916(8) 0.2127(7)
Co1 Co 0.13432(12) 0.72464(12) 0.16173(14)
Co2 Co 0.16853(12) 0.64409(12) 0.31045(13)
Co3 Co 0.26210(12) 0.60001(12) 0.15875(15)
O5 O 0.3629(7) 0.7454(7) 0.5563(7)
O6 O 0.4360(9) 0.8250(8) 0.5456(8)
H3 H 0.4748 0.8126 0.5538
O7 O 0.3212(6) 0.6588(9) 0.2191(7)
O8 O 0.2725(8) 0.6427(9) 0.3274(8)
O9 O 0.5608(6) 0.8418(7) 0.3059(8)
O11 O 0.1546(10) 0.6378(10) 0.4288(10)
O12 O 0.1718(6) 0.6451(7) 0.1938(7)
O14 O 0.3466(10) 0.5513(12) 0.1222(12)
O15 O 0.5458(8) 0.7675(8) 0.2171(7)
C8 C 0.2859(8) 0.9468(11) 0.3986(10)
H4 H 0.3095 0.9786 0.4232
C9 C 0.4095(8) 0.7632(10) 0.4360(9)
C10 C 0.3638(10) 0.7236(10) 0.4008(9)
H5 H 0.3275 0.7076 0.4282
C11 C 0.3704(12) 0.7069(11) 0.3262(8)
C12 C 0.4215(11) 0.7314(11) 0.2851(12)
H6 H 0.4243 0.7223 0.2342
C13 C 0.4731(9) 0.7725(9) 0.3203(9)
C14 C 0.4598(11) 0.7899(11) 0.3951(10)
H7 H 0.4865 0.8210 0.4173
C15 C 0.4041(11) 0.7840(15) 0.5196(14)
C16 C 0.3197(9) 0.6643(12) 0.2857(10)
C18 C 0.5303(10) 0.7955(11) 0.2772(15)
C19 C 0.160(3) 0.673(2) 0.481(2)
H8 H 0.2030 0.6911 0.4789
N1 N 0.129(3) 0.698(2) 0.542(2)
C20 C 0.083(4) 0.751(4) 0.531(4)
H9 H 0.0471 0.7485 0.5673
H10 H 0.0642 0.7490 0.4814
H11 H 0.1074 0.7896 0.5373
C21 C 0.172(2) 0.707(2) 0.605(2)
H12 H 0.1735 0.7505 0.6182
H13 H 0.2173 0.6924 0.5930
H14 H 0.1551 0.6826 0.6466
H15 H 0.341(3) 0.510(7) 0.101(17)
H16 H 0.386(4) 0.556(12) 0.150(11)
H17 H 0.194(7) 0.665(8) 0.161(11)
O16 O 0.2134(8) 0.5585(7) 0.0544(7)
O17 O 0.2666(10) 0.6502(7) 0.0561(8)
Co4 Co 0.36568(12) 0.77536(12) 0.66173(14)
Co5 Co 0.63432(12) 0.77536(12) 0.16173(14)
Co7 Co 0.66853(12) 0.85591(12) 0.31045(13)
Co8 Co 0.23790(12) 0.89999(12) 0.65875(15)
O18 O 0.1371(7) 0.7546(7) 0.0563(7)
O19 O 0.0608(6) 0.6582(7) 0.3059(8)
O20 O 0.1673(8) 0.5475(6) 0.3087(10)
O21 O 0.2433(9) 0.5207(8) 0.2228(8)
O22 O 0.0458(8) 0.7325(8) 0.2171(7)
O1_2 O 0.7134(8) 0.0585(7) 0.5544(7)
O2_2 O 0.7666(10) 0.1502(7) 0.5561(8)
C1_2 C 0.7384(13) 0.1039(12) 0.5200(14)
C2_2 C 0.7377(9) 0.1064(9) 0.4366(9)
C3_2 C 0.7649(14) 0.1590(12) 0.3966(11)
H1_2 H 0.7780 0.1951 0.4227
C4_2 C 0.7284(11) 0.0498(9) 0.3173(12)
C5_2 C 0.7540(12) 0.1003(11) 0.2798(12)
H2_2 H 0.7601 0.0988 0.2281
C6_2 C 0.7718(11) 0.1568(9) 0.3217(10)
C7_2 C 0.8014(9) 0.2140(10) 0.2802(13)
O3_2 O 0.8205(10) 0.2582(7) 0.3203(7)
O4_2 O 0.8084(8) 0.2084(8) 0.2127(7)
Co1_2 Co 0.86568(12) 0.27536(12) 0.16173(14)
Co2_2 Co 0.83147(12) 0.35591(12) 0.31045(13)
Co3_2 Co 0.73790(12) 0.39999(12) 0.15875(15)
O5_2 O 0.6371(7) 0.2546(7) 0.5563(7)
O6_2 O 0.5640(9) 0.1750(8) 0.5456(8)
H3_2 H 0.5252 0.1874 0.5538
O7_2 O 0.6788(6) 0.3412(9) 0.2191(7)
O8_2 O 0.7275(8) 0.3573(9) 0.3274(8)
O9_2 O 0.4392(6) 0.1582(7) 0.3059(8)
O11_2 O 0.8454(10) 0.3622(10) 0.4288(10)
O12_2 O 0.8282(6) 0.3549(7) 0.1938(7)
O14_2 O 0.6534(10) 0.4487(12) 0.1222(12)
O15_2 O 0.4542(8) 0.2325(8) 0.2171(7)
C8_2 C 0.7141(8) 0.0532(11) 0.3986(10)
H4_2 H 0.6905 0.0214 0.4232
C9_2 C 0.5905(8) 0.2368(10) 0.4360(9)
C10_2 C 0.6362(10) 0.2764(10) 0.4008(9)
H5_2 H 0.6725 0.2924 0.4282
C11_2 C 0.6296(12) 0.2931(11) 0.3262(8)
C12_2 C 0.5785(11) 0.2686(11) 0.2851(12)
H6_2 H 0.5757 0.2777 0.2342
C13_2 C 0.5269(9) 0.2275(9) 0.3203(9)
C14_2 C 0.5402(11) 0.2101(11) 0.3951(10)
H7_2 H 0.5135 0.1790 0.4173
C15_2 C 0.5959(11) 0.2160(15) 0.5196(14)
C16_2 C 0.6803(9) 0.3357(12) 0.2857(10)
C18_2 C 0.4697(10) 0.2045(11) 0.2772(15)
C19_2 C 0.840(3) 0.327(2) 0.481(2)
H8_2 H 0.7970 0.3089 0.4789
N1_2 N 0.871(3) 0.302(2) 0.542(2)
C20_2 C 0.917(4) 0.249(4) 0.531(4)
H9_2 H 0.9529 0.2515 0.5673
H10_2 H 0.9358 0.2510 0.4814
H11_2 H 0.8926 0.2104 0.5373
C21_2 C 0.828(2) 0.293(2) 0.605(2)
H12_2 H 0.8265 0.2495 0.6182
H13_2 H 0.7827 0.3076 0.5930
H14_2 H 0.8449 0.3174 0.6466
H15_2 H 0.659(3) 0.490(7) 0.101(17)
H16_2 H 0.614(4) 0.444(12) 0.150(11)
H17_2 H 0.806(7) 0.335(8) 0.161(11)
O16_2 O 0.7866(8) 0.4415(7) 0.0544(7)
O17_2 O 0.7334(10) 0.3498(7) 0.0561(8)
Co4_2 Co 0.63432(12) 0.22464(12) 0.66173(14)
Co5_2 Co 0.36568(12) 0.22464(12) 0.16173(14)
Co8_2 Co 0.76210(12) 0.10001(12) 0.65875(15)
O18_2 O 0.8629(7) 0.2454(7) 0.0563(7)
O19_2 O 0.9392(6) 0.3418(7) 0.3059(8)
O20_2 O 0.8327(8) 0.4525(6) 0.3087(10)
O21_2 O 0.7567(9) 0.4793(8) 0.2228(8)
O22_2 O 0.9542(8) 0.2675(8) 0.2171(7)
O10_2 O 0.6673(8) 0.9525(6) 0.3087(10)
O13_2 O 0.7433(9) 0.9793(8) 0.2228(8)
C17_2 C 0.7123(11) 0.9904(12) 0.2818(9)
Co9_2 Co 0.76210(12) 0.89999(12) 0.15875(15)
O10_3 O 0.6673(8) 0.0475(6) 0.8087(10)
O13_3 O 0.7433(9) 0.0207(8) 0.7228(8)
C17_3 C 0.7123(11) 0.0096(12) 0.7818(9)
Co6_2 Co 0.66853(12) 0.14409(12) 0.81045(13)
O1_3 O 0.7134(8) 0.9415(7) 0.0544(7)
O2_3 O 0.7666(10) 0.8498(7) 0.0561(8)
C1_3 C 0.7384(13) 0.8961(12) 0.0200(14)
O5_3 O 0.6371(7) 0.7454(7) 0.0563(7)
O6_3 O 0.5640(9) 0.8250(8) 0.0456(8)
H3_3 H 0.5252 0.8126 0.0538
C15_3 C 0.5959(11) 0.7840(15) 0.0196(14)
N1_3 N 0.871(3) 0.698(2) 0.042(2)
C20_3 C 0.917(4) 0.751(4) 0.031(4)
H9_3 H 0.9529 0.7485 0.0673
H11_3 H 0.8926 0.7896 0.0373
C21_3 C 0.828(2) 0.707(2) 0.105(2)
H12_3 H 0.8265 0.7505 0.1182
H13_3 H 0.7827 0.6924 0.0930
H14_3 H 0.8449 0.6826 0.1466
C2_3 C 0.7377(9) 0.8936(9) 0.9366(9)
C3_3 C 0.7649(14) 0.8410(12) 0.8966(11)
H1_3 H 0.7780 0.8049 0.9227
C4_3 C 0.7284(11) 0.9502(9) 0.8173(12)
C5_3 C 0.7540(12) 0.8997(11) 0.7798(12)
H2_3 H 0.7601 0.9012 0.7281
C6_3 C 0.7718(11) 0.8432(9) 0.8217(10)
C7_3 C 0.8014(9) 0.7860(10) 0.7802(13)
O3_3 O 0.8205(10) 0.7418(7) 0.8203(7)
O4_3 O 0.8084(8) 0.7916(8) 0.7127(7)
Co1_3 Co 0.86568(12) 0.72464(12) 0.66173(14)
Co2_3 Co 0.83147(12) 0.64409(12) 0.81045(13)
Co3_3 Co 0.73790(12) 0.60001(12) 0.65875(15)
O7_3 O 0.6788(6) 0.6588(9) 0.7191(7)
O8_3 O 0.7275(8) 0.6427(9) 0.8274(8)
O9_3 O 0.4392(6) 0.8418(7) 0.8059(8)
O11_3 O 0.8454(10) 0.6378(10) 0.9288(10)
O12_3 O 0.8282(6) 0.6451(7) 0.6938(7)
O14_3 O 0.6534(10) 0.5513(12) 0.6222(12)
O15_3 O 0.4542(8) 0.7675(8) 0.7171(7)
C8_3 C 0.7141(8) 0.9468(11) 0.8986(10)
H4_3 H 0.6905 0.9786 0.9232
C9_3 C 0.5905(8) 0.7632(10) 0.9360(9)
C10_3 C 0.6362(10) 0.7236(10) 0.9008(9)
H5_3 H 0.6725 0.7076 0.9282
C11_3 C 0.6296(12) 0.7069(11) 0.8262(8)
C12_3 C 0.5785(11) 0.7314(11) 0.7851(12)
H6_3 H 0.5757 0.7223 0.7342
C13_3 C 0.5269(9) 0.7725(9) 0.8203(9)
C14_3 C 0.5402(11) 0.7899(11) 0.8951(10)
H7_3 H 0.5135 0.8210 0.9173
C16_3 C 0.6803(9) 0.6643(12) 0.7857(10)
C18_3 C 0.4697(10) 0.7955(11) 0.7772(15)
C19_3 C 0.840(3) 0.673(2) 0.981(2)
H8_3 H 0.7970 0.6911 0.9789
H10_3 H 0.9358 0.7490 0.9814
H15_3 H 0.659(3) 0.510(7) 0.601(17)
H16_3 H 0.614(4) 0.556(12) 0.650(11)
H17_3 H 0.806(7) 0.665(8) 0.661(11)
O16_3 O 0.7866(8) 0.5585(7) 0.5544(7)
O17_3 O 0.7334(10) 0.6502(7) 0.5561(8)
Co7_2 Co 0.33147(12) 0.85591(12) 0.81045(13)
O18_3 O 0.8629(7) 0.7546(7) 0.5563(7)
O19_3 O 0.9392(6) 0.6582(7) 0.8059(8)
O20_3 O 0.8327(8) 0.5475(6) 0.8087(10)
O21_3 O 0.7567(9) 0.5207(8) 0.7228(8)
O22_3 O 0.9542(8) 0.7325(8) 0.7171(7)
O1_4 O 0.2866(8) 0.0585(7) 0.0544(7)
O2_4 O 0.2334(10) 0.1502(7) 0.0561(8)
C1_4 C 0.2616(13) 0.1039(12) 0.0200(14)
O5_4 O 0.3629(7) 0.2546(7) 0.0563(7)
O6_4 O 0.4360(9) 0.1750(8) 0.0456(8)
H3_4 H 0.4748 0.1874 0.0538
C15_4 C 0.4041(11) 0.2160(15) 0.0196(14)
N1_4 N 0.129(3) 0.302(2) 0.042(2)
C20_4 C 0.083(4) 0.249(4) 0.031(4)
H9_4 H 0.0471 0.2515 0.0673
H11_4 H 0.1074 0.2104 0.0373
C21_4 C 0.172(2) 0.293(2) 0.105(2)
H12_4 H 0.1735 0.2495 0.1182
H13_4 H 0.2173 0.3076 0.0930
H14_4 H 0.1551 0.3174 0.1466
C2_4 C 0.2623(9) 0.1064(9) 0.9366(9)
C3_4 C 0.2351(14) 0.1590(12) 0.8966(11)
H1_4 H 0.2220 0.1951 0.9227
C4_4 C 0.2716(11) 0.0498(9) 0.8173(12)
C5_4 C 0.2460(12) 0.1003(11) 0.7798(12)
H2_4 H 0.2399 0.0988 0.7281
C6_4 C 0.2282(11) 0.1568(9) 0.8217(10)
C7_4 C 0.1986(9) 0.2140(10) 0.7802(13)
O3_4 O 0.1795(10) 0.2582(7) 0.8203(7)
O4_4 O 0.1916(8) 0.2084(8) 0.7127(7)
Co1_4 Co 0.13432(12) 0.27536(12) 0.66173(14)
Co2_4 Co 0.16853(12) 0.35591(12) 0.81045(13)
Co3_4 Co 0.26210(12) 0.39999(12) 0.65875(15)
O7_4 O 0.3212(6) 0.3412(9) 0.7191(7)
O8_4 O 0.2725(8) 0.3573(9) 0.8274(8)
O9_4 O 0.5608(6) 0.1582(7) 0.8059(8)
O11_4 O 0.1546(10) 0.3622(10) 0.9288(10)
O12_4 O 0.1718(6) 0.3549(7) 0.6938(7)
O14_4 O 0.3466(10) 0.4487(12) 0.6222(12)
O15_4 O 0.5458(8) 0.2325(8) 0.7171(7)
C8_4 C 0.2859(8) 0.0532(11) 0.8986(10)
H4_4 H 0.3095 0.0214 0.9232
C9_4 C 0.4095(8) 0.2368(10) 0.9360(9)
C10_4 C 0.3638(10) 0.2764(10) 0.9008(9)
H5_4 H 0.3275 0.2924 0.9282
C11_4 C 0.3704(12) 0.2931(11) 0.8262(8)
C12_4 C 0.4215(11) 0.2686(11) 0.7851(12)
H6_4 H 0.4243 0.2777 0.7342
C13_4 C 0.4731(9) 0.2275(9) 0.8203(9)
C14_4 C 0.4598(11) 0.2101(11) 0.8951(10)
H7_4 H 0.4865 0.1790 0.9173
C16_4 C 0.3197(9) 0.3357(12) 0.7857(10)
C18_4 C 0.5303(10) 0.2045(11) 0.7772(15)
C19_4 C 0.160(3) 0.327(2) 0.981(2)
H8_4 H 0.2030 0.3089 0.9789
H10_4 H 0.0642 0.2510 0.9814
H15_4 H 0.341(3) 0.490(7) 0.601(17)
H16_4 H 0.386(4) 0.444(12) 0.650(11)
H17_4 H 0.194(7) 0.335(8) 0.661(11)
O16_4 O 0.2134(8) 0.4415(7) 0.5544(7)
O17_4 O 0.2666(10) 0.3498(7) 0.5561(8)
O18_4 O 0.1371(7) 0.2454(7) 0.5563(7)
O19_4 O 0.0608(6) 0.3418(7) 0.8059(8)
O20_4 O 0.1673(8) 0.4525(6) 0.8087(10)
O21_4 O 0.2433(9) 0.4793(8) 0.7228(8)
O22_4 O 0.0458(8) 0.2675(8) 0.7171(7)
O10_4 O 0.3327(8) 0.9525(6) 0.8087(10)
O13_4 O 0.2567(9) 0.9793(8) 0.7228(8)
C17_4 C 0.2877(11) 0.9904(12) 0.7818(9)
C18_5 C 0.0303(10) 0.2955(11) 0.7772(15)
C1_5 C 0.7616(13) 0.3961(12) 0.0200(14)
O6_5 O 0.9360(9) 0.3250(8) 0.0456(8)
H3_5 H 0.9748 0.3126 0.0538
C15_5 C 0.9041(11) 0.2840(15) 0.0196(14)
N1_5 N 0.629(3) 0.198(2) 0.042(2)
C20_5 C 0.583(4) 0.251(4) 0.031(4)
H9_5 H 0.5471 0.2485 0.0673
H11_5 H 0.6074 0.2896 0.0373
C21_5 C 0.672(2) 0.207(2) 0.105(2)
H12_5 H 0.6735 0.2505 0.1182
H13_5 H 0.7173 0.1924 0.0930
H14_5 H 0.6551 0.1826 0.1466
C2_5 C 0.7623(9) 0.3936(9) 0.9366(9)
C3_5 C 0.7351(14) 0.3410(12) 0.8966(11)
H1_5 H 0.7220 0.3049 0.9227
C4_5 C 0.7716(11) 0.4502(9) 0.8173(12)
C5_5 C 0.7460(12) 0.3997(11) 0.7798(12)
H2_5 H 0.7399 0.4012 0.7281
C6_5 C 0.7282(11) 0.3432(9) 0.8217(10)
C7_5 C 0.6986(9) 0.2860(10) 0.7802(13)
O3_5 O 0.6795(10) 0.2418(7) 0.8203(7)
O4_5 O 0.6916(8) 0.2916(8) 0.7127(7)
O7_5 O 0.8212(6) 0.1588(9) 0.7191(7)
O8_5 O 0.7725(8) 0.1427(9) 0.8274(8)
O11_5 O 0.6546(10) 0.1378(10) 0.9288(10)
O12_5 O 0.6718(6) 0.1451(7) 0.6938(7)
O14_5 O 0.8466(10) 0.0513(12) 0.6222(12)
C8_5 C 0.7859(8) 0.4468(11) 0.8986(10)
H4_5 H 0.8095 0.4786 0.9232
C9_5 C 0.9095(8) 0.2632(10) 0.9360(9)
C10_5 C 0.8638(10) 0.2236(10) 0.9008(9)
H5_5 H 0.8275 0.2076 0.9282
C11_5 C 0.8704(12) 0.2069(11) 0.8262(8)
C12_5 C 0.9215(11) 0.2314(11) 0.7851(12)
H6_5 H 0.9243 0.2223 0.7342
C13_5 C 0.9731(9) 0.2725(9) 0.8203(9)
C14_5 C 0.9598(11) 0.2899(11) 0.8951(10)
H7_5 H 0.9865 0.3210 0.9173
C16_5 C 0.8197(9) 0.1643(12) 0.7857(10)
C17_5 C 0.7877(11) 0.5096(12) 0.7818(9)
C19_5 C 0.660(3) 0.173(2) 0.981(2)
H8_5 H 0.7030 0.1911 0.9789
H10_5 H 0.5642 0.2490 0.9814
H15_5 H 0.841(3) 0.010(7) 0.601(17)
H16_5 H 0.886(4) 0.056(12) 0.650(11)
H17_5 H 0.694(7) 0.165(8) 0.661(11)
C1_6 C 0.2384(13) 0.6039(12) 0.0200(14)
O6_6 O 0.0640(9) 0.6750(8) 0.0456(8)
H3_6 H 0.0252 0.6874 0.0538
C15_6 C 0.0959(11) 0.7160(15) 0.0196(14)
N1_6 N 0.371(3) 0.802(2) 0.042(2)
C20_6 C 0.417(4) 0.749(4) 0.031(4)
H9_6 H 0.4529 0.7515 0.0673
H11_6 H 0.3926 0.7104 0.0373
C21_6 C 0.328(2) 0.793(2) 0.105(2)
H12_6 H 0.3265 0.7495 0.1182
H13_6 H 0.2827 0.8076 0.0930
H14_6 H 0.3449 0.8174 0.1466
C2_6 C 0.2377(9) 0.6064(9) 0.9366(9)
C3_6 C 0.2649(14) 0.6590(12) 0.8966(11)
H1_6 H 0.2780 0.6951 0.9227
C4_6 C 0.2284(11) 0.5498(9) 0.8173(12)
C5_6 C 0.2540(12) 0.6003(11) 0.7798(12)
H2_6 H 0.2601 0.5988 0.7281
C6_6 C 0.2718(11) 0.6568(9) 0.8217(10)
C7_6 C 0.3014(9) 0.7140(10) 0.7802(13)
O3_6 O 0.3205(10) 0.7582(7) 0.8203(7)
O4_6 O 0.3084(8) 0.7084(8) 0.7127(7)
O7_6 O 0.1788(6) 0.8412(9) 0.7191(7)
O8_6 O 0.2275(8) 0.8573(9) 0.8274(8)
O11_6 O 0.3454(10) 0.8622(10) 0.9288(10)
O12_6 O 0.3282(6) 0.8549(7) 0.6938(7)
O14_6 O 0.1534(10) 0.9487(12) 0.6222(12)
C8_6 C 0.2141(8) 0.5532(11) 0.8986(10)
H4_6 H 0.1905 0.5214 0.9232
C9_6 C 0.0905(8) 0.7368(10) 0.9360(9)
C10_6 C 0.1362(10) 0.7764(10) 0.9008(9)
H5_6 H 0.1725 0.7924 0.9282
C11_6 C 0.1296(12) 0.7931(11) 0.8262(8)
C12_6 C 0.0785(11) 0.7686(11) 0.7851(12)
H6_6 H 0.0757 0.7777 0.7342
C13_6 C 0.0269(9) 0.7275(9) 0.8203(9)
C14_6 C 0.0402(11) 0.7101(11) 0.8951(10)
H7_6 H 0.0135 0.6790 0.9173
C16_6 C 0.1803(9) 0.8357(12) 0.7857(10)
C17_6 C 0.2123(11) 0.4904(12) 0.7818(9)
C19_6 C 0.340(3) 0.827(2) 0.981(2)
H8_6 H 0.2970 0.8089 0.9789
H10_6 H 0.4358 0.7510 0.9814
H15_6 H 0.159(3) 0.990(7) 0.601(17)
H16_6 H 0.114(4) 0.944(12) 0.650(11)
H17_6 H 0.306(7) 0.835(8) 0.661(11)
C18_6 C 0.9697(10) 0.7045(11) 0.7772(15)
C1_7 C 0.2384(13) 0.3961(12) 0.5200(14)
C2_7 C 0.2377(9) 0.3936(9) 0.4366(9)
C3_7 C 0.2649(14) 0.3410(12) 0.3966(11)
H1_7 H 0.2780 0.3049 0.4227
C4_7 C 0.2284(11) 0.4502(9) 0.3173(12)
C5_7 C 0.2540(12) 0.3997(11) 0.2798(12)
H2_7 H 0.2601 0.4012 0.2281
C6_7 C 0.2718(11) 0.3432(9) 0.3217(10)
C7_7 C 0.3014(9) 0.2860(10) 0.2802(13)
O3_7 O 0.3205(10) 0.2418(7) 0.3203(7)
O4_7 O 0.3084(8) 0.2916(8) 0.2127(7)
O6_7 O 0.0640(9) 0.3250(8) 0.5456(8)
H3_7 H 0.0252 0.3126 0.5538
O7_7 O 0.1788(6) 0.1588(9) 0.2191(7)
O8_7 O 0.2275(8) 0.1427(9) 0.3274(8)
O11_7 O 0.3454(10) 0.1378(10) 0.4288(10)
O12_7 O 0.3282(6) 0.1451(7) 0.1938(7)
O14_7 O 0.1534(10) 0.0513(12) 0.1222(12)
C8_7 C 0.2141(8) 0.4468(11) 0.3986(10)
H4_7 H 0.1905 0.4786 0.4232
C9_7 C 0.0905(8) 0.2632(10) 0.4360(9)
C10_7 C 0.1362(10) 0.2236(10) 0.4008(9)
H5_7 H 0.1725 0.2076 0.4282
C11_7 C 0.1296(12) 0.2069(11) 0.3262(8)
C12_7 C 0.0785(11) 0.2314(11) 0.2851(12)
H6_7 H 0.0757 0.2223 0.2342
C13_7 C 0.0269(9) 0.2725(9) 0.3203(9)
C14_7 C 0.0402(11) 0.2899(11) 0.3951(10)
H7_7 H 0.0135 0.3210 0.4173
C15_7 C 0.0959(11) 0.2840(15) 0.5196(14)
C16_7 C 0.1803(9) 0.1643(12) 0.2857(10)
C17_7 C 0.2123(11) 0.5096(12) 0.2818(9)
C19_7 C 0.340(3) 0.173(2) 0.481(2)
H8_7 H 0.2970 0.1911 0.4789
N1_7 N 0.371(3) 0.198(2) 0.542(2)
C20_7 C 0.417(4) 0.251(4) 0.531(4)
H9_7 H 0.4529 0.2485 0.5673
H10_7 H 0.4358 0.2490 0.4814
H11_7 H 0.3926 0.2896 0.5373
C21_7 C 0.328(2) 0.207(2) 0.605(2)
H12_7 H 0.3265 0.2505 0.6182
H13_7 H 0.2827 0.1924 0.5930
H14_7 H 0.3449 0.1826 0.6466
H15_7 H 0.159(3) 0.010(7) 0.101(17)
H16_7 H 0.114(4) 0.056(12) 0.150(11)
H17_7 H 0.306(7) 0.165(8) 0.161(11)
C18_7 C 0.9697(10) 0.2955(11) 0.2772(15)
C18_8 C 0.0303(10) 0.7045(11) 0.2772(15)
C1_8 C 0.7616(13) 0.6039(12) 0.5200(14)
C2_8 C 0.7623(9) 0.6064(9) 0.4366(9)
C3_8 C 0.7351(14) 0.6590(12) 0.3966(11)
H1_8 H 0.7220 0.6951 0.4227
C4_8 C 0.7716(11) 0.5498(9) 0.3173(12)
C5_8 C 0.7460(12) 0.6003(11) 0.2798(12)
H2_8 H 0.7399 0.5988 0.2281
C6_8 C 0.7282(11) 0.6568(9) 0.3217(10)
C7_8 C 0.6986(9) 0.7140(10) 0.2802(13)
O3_8 O 0.6795(10) 0.7582(7) 0.3203(7)
O4_8 O 0.6916(8) 0.7084(8) 0.2127(7)
O6_8 O 0.9360(9) 0.6750(8) 0.5456(8)
H3_8 H 0.9748 0.6874 0.5538
O7_8 O 0.8212(6) 0.8412(9) 0.2191(7)
O8_8 O 0.7725(8) 0.8573(9) 0.3274(8)
O11_8 O 0.6546(10) 0.8622(10) 0.4288(10)
O12_8 O 0.6718(6) 0.8549(7) 0.1938(7)
O14_8 O 0.8466(10) 0.9487(12) 0.1222(12)
C8_8 C 0.7859(8) 0.5532(11) 0.3986(10)
H4_8 H 0.8095 0.5214 0.4232
C9_8 C 0.9095(8) 0.7368(10) 0.4360(9)
C10_8 C 0.8638(10) 0.7764(10) 0.4008(9)
H5_8 H 0.8275 0.7924 0.4282
C11_8 C 0.8704(12) 0.7931(11) 0.3262(8)
C12_8 C 0.9215(11) 0.7686(11) 0.2851(12)
H6_8 H 0.9243 0.7777 0.2342
C13_8 C 0.9731(9) 0.7275(9) 0.3203(9)
C14_8 C 0.9598(11) 0.7101(11) 0.3951(10)
H7_8 H 0.9865 0.6790 0.4173
C15_8 C 0.9041(11) 0.7160(15) 0.5196(14)
C16_8 C 0.8197(9) 0.8357(12) 0.2857(10)
C17_8 C 0.7877(11) 0.4904(12) 0.2818(9)
C19_8 C 0.660(3) 0.827(2) 0.481(2)
H8_8 H 0.7030 0.8089 0.4789
N1_8 N 0.629(3) 0.802(2) 0.542(2)
C20_8 C 0.583(4) 0.749(4) 0.531(4)
H9_8 H 0.5471 0.7515 0.5673
H10_8 H 0.5642 0.7510 0.4814
H11_8 H 0.6074 0.7104 0.5373
C21_8 C 0.672(2) 0.793(2) 0.605(2)
H12_8 H 0.6735 0.7495 0.6182
H13_8 H 0.7173 0.8076 0.5930
H14_8 H 0.6551 0.8174 0.6466
H15_8 H 0.841(3) 0.990(7) 0.101(17)
H16_8 H 0.886(4) 0.944(12) 0.150(11)
H17_8 H 0.694(7) 0.835(8) 0.161(11)
loop_
_geom_bond_atom_site_label_1
_geom_bond_atom_site_label_2
_geom_bond_site_symmetry_1
_geom_bond_site_symmetry_2
O10 C17 1_555 1_555
O13 C17 1_555 1_555
Co6 O10 1_555 1_555
Co9 O13 1_555 1_555
O1 C1 1_555 1_555
O2 C1 1_555 1_555
C1 C2 1_555 1_555
C2 C3 1_555 1_555
C3 H1 1_555 1_555
C4 C5 1_555 1_555
C5 H2 1_555 1_555
C6 C3 1_555 1_555
C7 C6 1_555 1_555
O3 C7 1_555 1_555
O4 C7 1_555 1_555
Co1 O4 1_555 1_555
Co2 O3 1_555 1_555
Co3 O7 1_555 1_555
O5 C15 1_555 1_555
O6 H3 1_555 1_555
O7 C16 1_555 1_555
O8 Co2 1_555 1_555
O9 C18 1_555 1_555
O11 Co2 1_555 1_555
O12 Co1 1_555 1_555
O14 Co3 1_555 1_555
O15 C18 1_555 1_555
C8 C2 1_555 1_555
H4 C8 1_555 1_555
C9 C10 1_555 1_555
C10 H5 1_555 1_555
C11 C10 1_555 1_555
C12 C11 1_555 1_555
H6 C12 1_555 1_555
C13 C12 1_555 1_555
C14 C9 1_555 1_555
H7 C14 1_555 1_555
C15 O6 1_555 1_555
C16 O8 1_555 1_555
C18 C13 1_555 1_555
C19 O11 1_555 1_555
H8 C19 1_555 1_555
N1 C19 1_555 1_555
C20 N1 1_555 1_555
H9 C20 1_555 1_555
H10 C20 1_555 1_555
H11 C20 1_555 1_555
C21 N1 1_555 1_555
H12 C21 1_555 1_555
H13 C21 1_555 1_555
H14 C21 1_555 1_555
H15 O14 1_555 1_555
H16 O14 1_555 1_555
H17 O12 1_555 1_555
O16 Co3 1_555 1_555
O17 Co3 1_555 1_555
Co4 O5 1_555 1_555
Co5 O15 1_555 1_555
Co7 O9 1_555 1_555
Co8 O1 1_555 1_555
O18 Co1 1_555 1_555
O19 Co2 1_555 1_555
O20 Co2 1_555 1_555
O21 Co3 1_555 1_555
O22 Co1 1_555 1_555
O2 Co8 1_555 1_555
C4 C8 1_555 1_555
C5 C6 1_555 1_555
Co2 O12 1_555 1_555
Co3 O12 1_555 1_555
C9 C15 1_555 1_555
C11 C16 1_555 1_555
C13 C14 1_555 1_555
O1_2 C1_2 1_555 1_555
O2_2 C1_2 1_555 1_555
C1_2 C2_2 1_555 1_555
C2_2 C3_2 1_555 1_555
C3_2 H1_2 1_555 1_555
C4_2 C5_2 1_555 1_555
C5_2 H2_2 1_555 1_555
C6_2 C3_2 1_555 1_555
C7_2 C6_2 1_555 1_555
O3_2 C7_2 1_555 1_555
O4_2 C7_2 1_555 1_555
Co1_2 O4_2 1_555 1_555
Co2_2 O3_2 1_555 1_555
Co3_2 O7_2 1_555 1_555
O5_2 C15_2 1_555 1_555
O6_2 H3_2 1_555 1_555
O7_2 C16_2 1_555 1_555
O8_2 Co2_2 1_555 1_555
O9_2 C18_2 1_555 1_555
O11_2 Co2_2 1_555 1_555
O12_2 Co1_2 1_555 1_555
O14_2 Co3_2 1_555 1_555
O15_2 C18_2 1_555 1_555
C8_2 C2_2 1_555 1_555
H4_2 C8_2 1_555 1_555
C9_2 C10_2 1_555 1_555
C10_2 H5_2 1_555 1_555
C11_2 C10_2 1_555 1_555
C12_2 C11_2 1_555 1_555
H6_2 C12_2 1_555 1_555
C13_2 C12_2 1_555 1_555
C14_2 C9_2 1_555 1_555
H7_2 C14_2 1_555 1_555
C15_2 O6_2 1_555 1_555
C16_2 O8_2 1_555 1_555
C18_2 C13_2 1_555 1_555
C19_2 O11_2 1_555 1_555
H8_2 C19_2 1_555 1_555
N1_2 C19_2 1_555 1_555
C20_2 N1_2 1_555 1_555
H9_2 C20_2 1_555 1_555
H10_2 C20_2 1_555 1_555
H11_2 C20_2 1_555 1_555
C21_2 N1_2 1_555 1_555
H12_2 C21_2 1_555 1_555
H13_2 C21_2 1_555 1_555
H14_2 C21_2 1_555 1_555
H15_2 O14_2 1_555 1_555
H16_2 O14_2 1_555 1_555
H17_2 O12_2 1_555 1_555
O16_2 Co3_2 1_555 1_555
O17_2 Co3_2 1_555 1_555
Co4_2 O5_2 1_555 1_555
Co5_2 O15_2 1_555 1_555
Co6 O9_2 1_555 1_555
Co8_2 O1_2 1_555 1_555
O18_2 Co1_2 1_555 1_555
O19_2 Co2_2 1_555 1_555
O20_2 Co2_2 1_555 1_555
O21_2 Co3_2 1_555 1_555
O22_2 Co1_2 1_555 1_555
O2_2 Co8_2 1_555 1_555
C4_2 C8_2 1_555 1_555
C5_2 C6_2 1_555 1_555
Co2_2 O12_2 1_555 1_555
Co3_2 O12_2 1_555 1_555
C9_2 C15_2 1_555 1_555
C11_2 C16_2 1_555 1_555
C13_2 C14_2 1_555 1_555
O10_2 C17_2 1_555 1_555
O13_2 C17_2 1_555 1_555
Co7 O10_2 1_555 1_555
Co9_2 O13_2 1_555 1_555
O10_3 C17_3 1_555 1_555
O13_3 C17_3 1_555 1_555
Co6_2 O10_3 1_555 1_555
Co8_2 O13_3 1_555 1_555
O1_3 C1_3 1_555 1_555
O2_3 C1_3 1_555 1_555
O5_3 C15_3 1_555 1_555
O6_3 H3_3 1_555 1_555
C15_3 O6_3 1_555 1_555
C20_3 N1_3 1_555 1_555
H9_3 C20_3 1_555 1_555
H11_3 C20_3 1_555 1_555
C21_3 N1_3 1_555 1_555
H12_3 C21_3 1_555 1_555
H13_3 C21_3 1_555 1_555
H14_3 C21_3 1_555 1_555
Co5 O5_3 1_555 1_555
Co9_2 O1_3 1_555 1_555
O2_3 Co9_2 1_555 1_555
C2_3 C3_3 1_555 1_555
C3_3 H1_3 1_555 1_555
C4_3 C5_3 1_555 1_555
C5_3 H2_3 1_555 1_555
C6_3 C3_3 1_555 1_555
C7_3 C6_3 1_555 1_555
O3_3 C7_3 1_555 1_555
O4_3 C7_3 1_555 1_555
Co1_3 O4_3 1_555 1_555
Co2_3 O3_3 1_555 1_555
Co3_3 O7_3 1_555 1_555
O7_3 C16_3 1_555 1_555
O8_3 Co2_3 1_555 1_555
O9_3 C18_3 1_555 1_555
O11_3 Co2_3 1_555 1_555
O12_3 Co1_3 1_555 1_555
O14_3 Co3_3 1_555 1_555
O15_3 C18_3 1_555 1_555
C8_3 C2_3 1_555 1_555
H4_3 C8_3 1_555 1_555
C9_3 C10_3 1_555 1_555
C10_3 H5_3 1_555 1_555
C11_3 C10_3 1_555 1_555
C12_3 C11_3 1_555 1_555
H6_3 C12_3 1_555 1_555
C13_3 C12_3 1_555 1_555
C14_3 C9_3 1_555 1_555
H7_3 C14_3 1_555 1_555
C16_3 O8_3 1_555 1_555
C18_3 C13_3 1_555 1_555
C19_3 O11_3 1_555 1_555
H8_3 C19_3 1_555 1_555
H15_3 O14_3 1_555 1_555
H16_3 O14_3 1_555 1_555
H17_3 O12_3 1_555 1_555
O16_3 Co3_3 1_555 1_555
O17_3 Co3_3 1_555 1_555
Co4 O15_3 1_555 1_555
Co7_2 O9_3 1_555 1_555
O18_3 Co1_3 1_555 1_555
O19_3 Co2_3 1_555 1_555
O20_3 Co2_3 1_555 1_555
O21_3 Co3_3 1_555 1_555
O22_3 Co1_3 1_555 1_555
C4_3 C8_3 1_555 1_555
C5_3 C6_3 1_555 1_555
Co2_3 O12_3 1_555 1_555
Co3_3 O12_3 1_555 1_555
C11_3 C16_3 1_555 1_555
C13_3 C14_3 1_555 1_555
O1_4 C1_4 1_555 1_555
O2_4 C1_4 1_555 1_555
O5_4 C15_4 1_555 1_555
O6_4 H3_4 1_555 1_555
C15_4 O6_4 1_555 1_555
C20_4 N1_4 1_555 1_555
H9_4 C20_4 1_555 1_555
H11_4 C20_4 1_555 1_555
C21_4 N1_4 1_555 1_555
H12_4 C21_4 1_555 1_555
H13_4 C21_4 1_555 1_555
H14_4 C21_4 1_555 1_555
Co5_2 O5_4 1_555 1_555
Co9 O1_4 1_555 1_555
O2_4 Co9 1_555 1_555
C2_4 C3_4 1_555 1_555
C3_4 H1_4 1_555 1_555
C4_4 C5_4 1_555 1_555
C5_4 H2_4 1_555 1_555
C6_4 C3_4 1_555 1_555
C7_4 C6_4 1_555 1_555
O3_4 C7_4 1_555 1_555
O4_4 C7_4 1_555 1_555
Co1_4 O4_4 1_555 1_555
Co2_4 O3_4 1_555 1_555
Co3_4 O7_4 1_555 1_555
O7_4 C16_4 1_555 1_555
O8_4 Co2_4 1_555 1_555
O9_4 C18_4 1_555 1_555
O11_4 Co2_4 1_555 1_555
O12_4 Co1_4 1_555 1_555
O14_4 Co3_4 1_555 1_555
O15_4 C18_4 1_555 1_555
C8_4 C2_4 1_555 1_555
H4_4 C8_4 1_555 1_555
C9_4 C10_4 1_555 1_555
C10_4 H5_4 1_555 1_555
C11_4 C10_4 1_555 1_555
C12_4 C11_4 1_555 1_555
H6_4 C12_4 1_555 1_555
C13_4 C12_4 1_555 1_555
C14_4 C9_4 1_555 1_555
H7_4 C14_4 1_555 1_555
C16_4 O8_4 1_555 1_555
C18_4 C13_4 1_555 1_555
C19_4 O11_4 1_555 1_555
H8_4 C19_4 1_555 1_555
H15_4 O14_4 1_555 1_555
H16_4 O14_4 1_555 1_555
H17_4 O12_4 1_555 1_555
O16_4 Co3_4 1_555 1_555
O17_4 Co3_4 1_555 1_555
Co4_2 O15_4 1_555 1_555
Co6_2 O9_4 1_555 1_555
O18_4 Co1_4 1_555 1_555
O19_4 Co2_4 1_555 1_555
O20_4 Co2_4 1_555 1_555
O21_4 Co3_4 1_555 1_555
O22_4 Co1_4 1_555 1_555
C4_4 C8_4 1_555 1_555
C5_4 C6_4 1_555 1_555
Co2_4 O12_4 1_555 1_555
Co3_4 O12_4 1_555 1_555
C11_4 C16_4 1_555 1_555
C13_4 C14_4 1_555 1_555
O10_4 C17_4 1_555 1_555
O13_4 C17_4 1_555 1_555
Co7_2 O10_4 1_555 1_555
Co8 O13_4 1_555 1_555
O19_4 C18_5 1_555 1_555
O22_4 C18_5 1_555 1_555
O16_2 C1_5 1_555 1_555
O17_2 C1_5 1_555 1_555
O18_2 C15_5 1_555 1_555
O6_5 H3_5 1_555 1_555
C15_5 O6_5 1_555 1_555
C20_5 N1_5 1_555 1_555
H9_5 C20_5 1_555 1_555
H11_5 C20_5 1_555 1_555
C21_5 N1_5 1_555 1_555
H12_5 C21_5 1_555 1_555
H13_5 C21_5 1_555 1_555
H14_5 C21_5 1_555 1_555
C2_5 C3_5 1_555 1_555
C3_5 H1_5 1_555 1_555
C4_5 C5_5 1_555 1_555
C5_5 H2_5 1_555 1_555
C6_5 C3_5 1_555 1_555
C7_5 C6_5 1_555 1_555
O3_5 C7_5 1_555 1_555
O4_5 C7_5 1_555 1_555
Co4_2 O4_5 1_555 1_555
Co6_2 O3_5 1_555 1_555
Co8_2 O7_5 1_555 1_555
O7_5 C16_5 1_555 1_555
O8_5 Co6_2 1_555 1_555
O20_3 C17_5 1_555 1_555
O11_5 Co6_2 1_555 1_555
O12_5 Co4_2 1_555 1_555
O21_3 C17_5 1_555 1_555
O14_5 Co8_2 1_555 1_555
C8_5 C2_5 1_555 1_555
H4_5 C8_5 1_555 1_555
C9_5 C10_5 1_555 1_555
C10_5 H5_5 1_555 1_555
C11_5 C10_5 1_555 1_555
C12_5 C11_5 1_555 1_555
H6_5 C12_5 1_555 1_555
C13_5 C12_5 1_555 1_555
C14_5 C9_5 1_555 1_555
H7_5 C14_5 1_555 1_555
C16_5 O8_5 1_555 1_555
C17_5 C4_5 1_555 1_555
C19_5 O11_5 1_555 1_555
H8_5 C19_5 1_555 1_555
H15_5 O14_5 1_555 1_555
H16_5 O14_5 1_555 1_555
H17_5 O12_5 1_555 1_555
C4_5 C8_5 1_555 1_555
C5_5 C6_5 1_555 1_555
Co6_2 O12_5 1_555 1_555
Co8_2 O12_5 1_555 1_555
C11_5 C16_5 1_555 1_555
C13_5 C14_5 1_555 1_555
O16 C1_6 1_555 1_555
O17 C1_6 1_555 1_555
O18 C15_6 1_555 1_555
O6_6 H3_6 1_555 1_555
C15_6 O6_6 1_555 1_555
C20_6 N1_6 1_555 1_555
H9_6 C20_6 1_555 1_555
H11_6 C20_6 1_555 1_555
C21_6 N1_6 1_555 1_555
H12_6 C21_6 1_555 1_555
H13_6 C21_6 1_555 1_555
H14_6 C21_6 1_555 1_555
C2_6 C3_6 1_555 1_555
C3_6 H1_6 1_555 1_555
C4_6 C5_6 1_555 1_555
C5_6 H2_6 1_555 1_555
C6_6 C3_6 1_555 1_555
C7_6 C6_6 1_555 1_555
O3_6 C7_6 1_555 1_555
O4_6 C7_6 1_555 1_555
Co4 O4_6 1_555 1_555
Co7_2 O3_6 1_555 1_555
Co8 O7_6 1_555 1_555
O7_6 C16_6 1_555 1_555
O8_6 Co7_2 1_555 1_555
O20_4 C17_6 1_555 1_555
O11_6 Co7_2 1_555 1_555
O12_6 Co4 1_555 1_555
O21_4 C17_6 1_555 1_555
O14_6 Co8 1_555 1_555
C8_6 C2_6 1_555 1_555
H4_6 C8_6 1_555 1_555
C9_6 C10_6 1_555 1_555
C10_6 H5_6 1_555 1_555
C11_6 C10_6 1_555 1_555
C12_6 C11_6 1_555 1_555
H6_6 C12_6 1_555 1_555
C13_6 C12_6 1_555 1_555
C14_6 C9_6 1_555 1_555
H7_6 C14_6 1_555 1_555
C16_6 O8_6 1_555 1_555
C17_6 C4_6 1_555 1_555
C19_6 O11_6 1_555 1_555
H8_6 C19_6 1_555 1_555
H15_6 O14_6 1_555 1_555
H16_6 O14_6 1_555 1_555
H17_6 O12_6 1_555 1_555
C4_6 C8_6 1_555 1_555
C5_6 C6_6 1_555 1_555
Co7_2 O12_6 1_555 1_555
Co8 O12_6 1_555 1_555
C11_6 C16_6 1_555 1_555
C13_6 C14_6 1_555 1_555
O19_3 C18_6 1_555 1_555
O22_3 C18_6 1_555 1_555
O16_4 C1_7 1_555 1_555
O17_4 C1_7 1_555 1_555
C1_7 C2_7 1_555 1_555
C2_7 C3_7 1_555 1_555
C3_7 H1_7 1_555 1_555
C4_7 C5_7 1_555 1_555
C5_7 H2_7 1_555 1_555
C6_7 C3_7 1_555 1_555
C7_7 C6_7 1_555 1_555
O3_7 C7_7 1_555 1_555
O4_7 C7_7 1_555 1_555
Co5_2 O4_7 1_555 1_555
Co6 O3_7 1_555 1_555
Co9 O7_7 1_555 1_555
O18_4 C15_7 1_555 1_555
O6_7 H3_7 1_555 1_555
O7_7 C16_7 1_555 1_555
O8_7 Co6 1_555 1_555
O20 C17_7 1_555 1_555
O11_7 Co6 1_555 1_555
O12_7 Co5_2 1_555 1_555
O21 C17_7 1_555 1_555
O14_7 Co9 1_555 1_555
C8_7 C2_7 1_555 1_555
H4_7 C8_7 1_555 1_555
C9_7 C10_7 1_555 1_555
C10_7 H5_7 1_555 1_555
C11_7 C10_7 1_555 1_555
C12_7 C11_7 1_555 1_555
H6_7 C12_7 1_555 1_555
C13_7 C12_7 1_555 1_555
C14_7 C9_7 1_555 1_555
H7_7 C14_7 1_555 1_555
C15_7 O6_7 1_555 1_555
C16_7 O8_7 1_555 1_555
C17_7 C4_7 1_555 1_555
C19_7 O11_7 1_555 1_555
H8_7 C19_7 1_555 1_555
N1_7 C19_7 1_555 1_555
C20_7 N1_7 1_555 1_555
H9_7 C20_7 1_555 1_555
H10_7 C20_7 1_555 1_555
H11_7 C20_7 1_555 1_555
C21_7 N1_7 1_555 1_555
H12_7 C21_7 1_555 1_555
H13_7 C21_7 1_555 1_555
H14_7 C21_7 1_555 1_555
H15_7 O14_7 1_555 1_555
H16_7 O14_7 1_555 1_555
H17_7 O12_7 1_555 1_555
C4_7 C8_7 1_555 1_555
C5_7 C6_7 1_555 1_555
Co6 O12_7 1_555 1_555
Co9 O12_7 1_555 1_555
C9_7 C15_7 1_555 1_555
C11_7 C16_7 1_555 1_555
C13_7 C14_7 1_555 1_555
O19_2 C18_7 1_555 1_555
O22_2 C18_7 1_555 1_555
O19 C18_8 1_555 1_555
O22 C18_8 1_555 1_555
O16_3 C1_8 1_555 1_555
O17_3 C1_8 1_555 1_555
C1_8 C2_8 1_555 1_555
C2_8 C3_8 1_555 1_555
C3_8 H1_8 1_555 1_555
C4_8 C5_8 1_555 1_555
C5_8 H2_8 1_555 1_555
C6_8 C3_8 1_555 1_555
C7_8 C6_8 1_555 1_555
O3_8 C7_8 1_555 1_555
O4_8 C7_8 1_555 1_555
Co5 O4_8 1_555 1_555
Co7 O3_8 1_555 1_555
Co9_2 O7_8 1_555 1_555
O18_3 C15_8 1_555 1_555
O6_8 H3_8 1_555 1_555
O7_8 C16_8 1_555 1_555
O8_8 Co7 1_555 1_555
O20_2 C17_8 1_555 1_555
O11_8 Co7 1_555 1_555
O12_8 Co5 1_555 1_555
O21_2 C17_8 1_555 1_555
O14_8 Co9_2 1_555 1_555
C8_8 C2_8 1_555 1_555
H4_8 C8_8 1_555 1_555
C9_8 C10_8 1_555 1_555
C10_8 H5_8 1_555 1_555
C11_8 C10_8 1_555 1_555
C12_8 C11_8 1_555 1_555
H6_8 C12_8 1_555 1_555
C13_8 C12_8 1_555 1_555
C14_8 C9_8 1_555 1_555
H7_8 C14_8 1_555 1_555
C15_8 O6_8 1_555 1_555
C16_8 O8_8 1_555 1_555
C17_8 C4_8 1_555 1_555
C19_8 O11_8 1_555 1_555
H8_8 C19_8 1_555 1_555
N1_8 C19_8 1_555 1_555
C20_8 N1_8 1_555 1_555
H9_8 C20_8 1_555 1_555
H10_8 C20_8 1_555 1_555
H11_8 C20_8 1_555 1_555
C21_8 N1_8 1_555 1_555
H12_8 C21_8 1_555 1_555
H13_8 C21_8 1_555 1_555
H14_8 C21_8 1_555 1_555
H15_8 O14_8 1_555 1_555
H16_8 O14_8 1_555 1_555
H17_8 O12_8 1_555 1_555
C4_8 C8_8 1_555 1_555
C5_8 C6_8 1_555 1_555
Co7 O12_8 1_555 1_555
Co9_2 O12_8 1_555 1_555
C9_8 C15_8 1_555 1_555
C11_8 C16_8 1_555 1_555
C13_8 C14_8 1_555 1_555

#END
