
###############################################################################
#
# This file contains modified crystal structure data generated from the
# MOF subset of the Cambridge Structural Database (CSD) v543 
# hosted by the Cambridge Crystallographic Data Centre (CCDC).
#
# This work is licensed under the Creative Commons
# Attribution-NonCommercial-ShareAlike 4.0 International License.
# To view a copy of this license, visit
# http://creativecommons.org/licenses/by-nc-sa/4.0/
# or send a letter to
# Creative Commons, PO Box 1866, Mountain View, CA 94042, USA.
#
# CIF created using the CSD Python API on 29 September 2022
# The structure has been converted into the P1 space group
# The structure has a 3D framework
# The original CSD entry CIGYAU is in the tetragonal crystal system
# The framework has been calculated to contain at least 10.0% void space
# The void calculation uses a probe of radius 1.32A, grid spacing 0.4
#
###############################################################################

data_CIGYAU
_chemical_formula_moiety         '(C58 H48 Cu8 N12 O8 S8)n'
_symmetry_cell_setting           triclinic
_symmetry_space_group_name_H-M   'P 1'
_symmetry_Int_Tables_number      1
_space_group_name_Hall           'P 1'
loop_
_symmetry_equiv_pos_site_id
_symmetry_equiv_pos_as_xyz
1 x,y,z
_cell_length_a                   13.4481(7)
_cell_length_b                   13.4481(7)
_cell_length_c                   10.7237(11)
_cell_angle_alpha                90
_cell_angle_beta                 90
_cell_angle_gamma                90
_cell_volume                     1939.4
loop_
_atom_site_label
_atom_site_type_symbol
_atom_site_fract_x
_atom_site_fract_y
_atom_site_fract_z
C15 C 0.2903(4) 0.0081(4) 0.0618(5)
C16 C 0.3338(4) 0.0879(4) 0.0019(5)
C17 C 0.4237(6) 0.1215(6) 0.0439(8)
H14 H 0.4560 0.1743 0.0052
C18 C 0.4648(7) 0.0744(6) 0.1454(8)
H15 H 0.5267 0.0946 0.1749
C21 C 0.2097(4) 0.4919(4) 0.0618(5)
H19 H 0.2694 0.5164 0.0306
C22 C 0.1662(4) 0.4121(4) 0.0019(5)
C23 C 0.0763(6) 0.3785(6) 0.0439(8)
H20 H 0.0440 0.3257 0.0052
C24 C 0.0352(7) 0.4256(6) 0.1454(8)
C25 C 0.0841(6) 0.5014(6) 0.2034(8)
H22 H 0.0560 0.5300 0.2741
N5 N 0.1706(4) 0.5355(3) 0.1618(4)
C29 C 0.3754(3) 0.7117(3) 0.0421(5)
Cu4 Cu 0.22878(6) 0.65289(5) 0.25711(6)
S4 S 0.38706(10) 0.70832(10) 0.19656(11)
Cu11 Cu 0.27122(6) 0.84711(5) 0.25711(6)
N12 N 0.2149(3) 0.6307(3) 0.4356(4)
S7 S 0.11294(10) 0.79168(10) 0.19656(11)
C1 C 0.7117(3) 0.1246(3) 0.4579(5)
C2 C 0.4919(4) 0.2903(4) 0.4382(5)
H1 H 0.5164 0.2306 0.4694
C3 C 0.4121(4) 0.3338(4) 0.4981(5)
C4 C 0.3785(6) 0.4237(6) 0.4561(8)
H2 H 0.3257 0.4560 0.4948
C5 C 0.4256(6) 0.4648(7) 0.3546(8)
H3 H 0.4054 0.5267 0.3251
C6 C 0.5014(6) 0.4159(6) 0.2966(8)
H4 H 0.5300 0.4440 0.2259
C7 C 0.2985(4) 0.3295(4) 0.6692(5)
H5 H 0.2493 0.3603 0.6156
H6 H 0.3279 0.3807 0.7213
C8 C 0.2500 0.2500 0.7500
Cu1 Cu 0.65289(5) 0.27122(6) 0.24289(6)
N1 N 0.7149(3) 0.1307(3) 0.5644(4)
N2 N 0.5355(3) 0.3294(4) 0.3382(4)
O1 O 0.3736(3) 0.2825(3) 0.5957(3)
S1 S 0.70832(10) 0.11294(10) 0.30344(11)
C9 C 0.0081(4) 0.2097(4) 0.4382(5)
C10 C 0.0879(4) 0.1662(4) 0.4981(5)
C11 C 0.1215(6) 0.0763(6) 0.4561(8)
H8 H 0.1743 0.0440 0.4948
C12 C 0.0744(6) 0.0352(7) 0.3546(8)
C14 C 0.2015(4) 0.1705(4) 0.6692(5)
H11 H 0.2507 0.1397 0.6156
H12 H 0.1721 0.1193 0.7213
O2 O 0.1264(3) 0.2175(3) 0.5957(3)
C20 C 0.3295(4) 0.2015(4) 0.8308(5)
H17 H 0.3603 0.2507 0.8844
H18 H 0.3807 0.1721 0.7787
O3 O 0.2825(3) 0.1264(3) 0.9043(3)
C26 C 0.1705(4) 0.2985(4) 0.8308(5)
H23 H 0.1397 0.2493 0.8844
H24 H 0.1193 0.3279 0.7787
O4 O 0.2175(3) 0.3736(3) 0.9043(3)
N8 N 0.3693(3) 0.7149(3) 0.9356(4)
Cu6 Cu 0.84711(5) 0.22878(6) 0.24289(6)
Cu7 Cu 0.72878(6) 0.15289(5) 0.74289(6)
Cu9 Cu 0.34711(5) 0.72878(6) 0.75711(6)
N10 N 0.6307(3) 0.2851(3) 0.0644(4)
S6 S 0.79168(10) 0.38706(10) 0.30344(11)
H13 H 0.2306 0.9836 0.0306
C19 C 0.4159(6) 0.9986(6) 0.2034(8)
H16 H 0.4440 0.9700 0.2741
N4 N 0.3294(4) 0.9645(3) 0.1618(4)
C28 C 0.1246(3) 0.7883(3) 0.0421(5)
N11 N 0.2851(3) 0.8693(3) 0.4356(4)
H9 H 0.0946 0.9733 0.3251
N7 N 0.1307(3) 0.7851(3) 0.9356(4)
Cu10 Cu 0.15289(5) 0.77122(6) 0.75711(6)
H7 H 0.9836 0.2694 0.4694
C13 C 0.9986(6) 0.0841(6) 0.2966(8)
H10 H 0.9700 0.0560 0.2259
N3 N 0.9645(3) 0.1706(4) 0.3382(4)
C27 C 0.7883(3) 0.3754(3) 0.4579(5)
N6 N 0.7851(3) 0.3693(3) 0.5644(4)
Cu8 Cu 0.77122(6) 0.34711(5) 0.74289(6)
N9 N 0.8693(3) 0.2149(3) 0.0644(4)
H13_2 H 0.0164 0.7306 0.5306
C19_2 C 0.0014(6) 0.9159(6) 0.7034(8)
H16_2 H 0.0300 0.9440 0.7741
N4_2 N 0.0355(3) 0.8294(4) 0.6618(4)
C28_2 C 0.2117(3) 0.6246(3) 0.5421(5)
S3 S 0.20832(10) 0.61294(10) 0.69656(11)
S8 S 0.29168(10) 0.88706(10) 0.69656(11)
H15_2 H 0.9054 0.0267 0.6749
C1_2 C 0.8754(3) 0.2117(3) 0.9579(5)
H1_2 H 0.7694 0.0164 0.9694
C6_2 C 0.5841(6) 0.0014(6) 0.7966(8)
H4_2 H 0.5560 0.0300 0.7259
N2_2 N 0.6706(4) 0.0355(3) 0.8382(4)
S1_2 S 0.88706(10) 0.20832(10) 0.80344(11)
S6_2 S 0.61294(10) 0.29168(10) 0.80344(11)
C7_2 C 0.6705(4) 0.7985(4) 0.1692(5)
H5_2 H 0.6397 0.7493 0.1156
H6_2 H 0.6193 0.8279 0.2213
C8_2 C 0.7500 0.7500 0.2500
O1_2 O 0.7175(3) 0.8736(3) 0.0957(3)
C14_2 C 0.8295(4) 0.7015(4) 0.1692(5)
H11_2 H 0.8603 0.7507 0.1156
H12_2 H 0.8807 0.6721 0.2213
O2_2 O 0.7825(3) 0.6264(3) 0.0957(3)
C15_2 C 0.9919(4) 0.7903(4) 0.5618(5)
C16_2 C 0.9121(4) 0.8338(4) 0.5019(5)
C17_2 C 0.8785(6) 0.9237(6) 0.5439(8)
H14_2 H 0.8257 0.9560 0.5052
C18_2 C 0.9256(6) 0.9648(7) 0.6454(8)
C20_2 C 0.7985(4) 0.8295(4) 0.3308(5)
H17_2 H 0.7493 0.8603 0.3844
H18_2 H 0.8279 0.8807 0.2787
O3_2 O 0.8736(3) 0.7825(3) 0.4043(3)
C21_2 C 0.5081(4) 0.7097(4) 0.5618(5)
H19_2 H 0.4836 0.7694 0.5306
C22_2 C 0.5879(4) 0.6662(4) 0.5019(5)
C23_2 C 0.6215(6) 0.5763(6) 0.5439(8)
H20_2 H 0.6743 0.5440 0.5052
C24_2 C 0.5744(6) 0.5352(7) 0.6454(8)
H21 H 0.5946 0.4733 0.6749
C25_2 C 0.4986(6) 0.5841(6) 0.7034(8)
H22_2 H 0.4700 0.5560 0.7741
C26_2 C 0.7015(4) 0.6705(4) 0.3308(5)
H23_2 H 0.7507 0.6397 0.3844
H24_2 H 0.6721 0.6193 0.2787
N5_2 N 0.4645(3) 0.6706(4) 0.6618(4)
O4_2 O 0.6264(3) 0.7175(3) 0.4043(3)
C29_2 C 0.2883(3) 0.8754(3) 0.5421(5)
C2_2 C 0.7097(4) 0.9919(4) 0.9382(5)
C3_2 C 0.6662(4) 0.9121(4) 0.9981(5)
C4_2 C 0.5763(6) 0.8785(6) 0.9561(8)
H2_2 H 0.5440 0.8257 0.9948
C5_2 C 0.5352(7) 0.9256(6) 0.8546(8)
H3_2 H 0.4733 0.9054 0.8251
C9_2 C 0.7903(4) 0.5081(4) 0.9382(5)
H7_2 H 0.7306 0.4836 0.9694
C10_2 C 0.8338(4) 0.5879(4) 0.9981(5)
C11_2 C 0.9237(6) 0.6215(6) 0.9561(8)
H8_2 H 0.9560 0.6743 0.9948
C12_2 C 0.9648(7) 0.5744(6) 0.8546(8)
C13_2 C 0.9159(6) 0.4986(6) 0.7966(8)
H10_2 H 0.9440 0.4700 0.7259
N3_2 N 0.8294(4) 0.4645(3) 0.8382(4)
C27_2 C 0.6246(3) 0.2883(3) 0.9579(5)
H21_2 H 0.9733 0.4054 0.1749
H9_2 H 0.0267 0.5946 0.8251
loop_
_geom_bond_atom_site_label_1
_geom_bond_atom_site_label_2
_geom_bond_site_symmetry_1
_geom_bond_site_symmetry_2
C16 C15 1_555 1_555
C17 C16 1_555 1_555
H14 C17 1_555 1_555
C18 C17 1_555 1_555
H15 C18 1_555 1_555
C21 H19 1_555 1_555
C22 C21 1_555 1_555
C23 C22 1_555 1_555
H20 C23 1_555 1_555
C24 C23 1_555 1_555
C25 C24 1_555 1_555
H22 C25 1_555 1_555
N5 C21 1_555 1_555
Cu4 N5 1_555 1_555
S4 C29 1_555 1_555
Cu11 S4 1_555 1_555
N12 Cu4 1_555 1_555
S7 Cu4 1_555 1_555
C25 N5 1_555 1_555
Cu4 S4 1_555 1_555
Cu11 S7 1_555 1_555
C1 N1 1_555 1_555
C2 H1 1_555 1_555
C3 C2 1_555 1_555
C4 C3 1_555 1_555
H2 C4 1_555 1_555
C5 C4 1_555 1_555
H3 C5 1_555 1_555
C6 C5 1_555 1_555
H4 C6 1_555 1_555
C7 H5 1_555 1_555
H6 C7 1_555 1_555
C8 C7 1_555 1_555
Cu1 N2 1_555 1_555
N1 Cu7 1_555 1_555
N2 C2 1_555 1_555
O1 C3 1_555 1_555
S1 C1 1_555 1_555
C10 C9 1_555 1_555
C11 C10 1_555 1_555
H8 C11 1_555 1_555
C12 C11 1_555 1_555
C14 C8 1_555 1_555
H11 C14 1_555 1_555
H12 C14 1_555 1_555
O2 C10 1_555 1_555
C20 C8 1_555 1_555
H17 C20 1_555 1_555
H18 C20 1_555 1_555
C26 C8 1_555 1_555
H23 C26 1_555 1_555
H24 C26 1_555 1_555
N8 Cu9 1_555 1_555
Cu6 S1 1_555 1_555
N10 Cu1 1_555 1_555
S6 Cu1 1_555 1_555
C6 N2 1_555 1_555
C7 O1 1_555 1_555
Cu1 S1 1_555 1_555
C14 O2 1_555 1_555
C20 O3 1_555 1_555
C26 O4 1_555 1_555
Cu6 S6 1_555 1_555
H16 C19 1_555 1_555
Cu11 N4 1_555 1_555
S7 C28 1_555 1_555
N11 Cu11 1_555 1_555
C19 N4 1_555 1_555
N7 Cu10 1_555 1_555
H10 C13 1_555 1_555
C27 N6 1_555 1_555
Cu6 N3 1_555 1_555
N6 Cu8 1_555 1_555
S6 C27 1_555 1_555
N9 Cu6 1_555 1_555
C13 N3 1_555 1_555
H16_2 C19_2 1_555 1_555
C28_2 N12 1_555 1_555
Cu10 N4_2 1_555 1_555
S3 C28_2 1_555 1_555
Cu9 S3 1_555 1_555
S8 Cu10 1_555 1_555
C19_2 N4_2 1_555 1_555
Cu10 S3 1_555 1_555
Cu9 S8 1_555 1_555
H4_2 C6_2 1_555 1_555
Cu7 N2_2 1_555 1_555
S1_2 C1_2 1_555 1_555
Cu8 S1_2 1_555 1_555
S6_2 Cu7 1_555 1_555
C6_2 N2_2 1_555 1_555
Cu7 S1_2 1_555 1_555
Cu8 S6_2 1_555 1_555
C7_2 H5_2 1_555 1_555
H6_2 C7_2 1_555 1_555
C8_2 C7_2 1_555 1_555
C14_2 C8_2 1_555 1_555
H11_2 C14_2 1_555 1_555
H12_2 C14_2 1_555 1_555
C16_2 C15_2 1_555 1_555
C17_2 C16_2 1_555 1_555
H14_2 C17_2 1_555 1_555
C18_2 C17_2 1_555 1_555
C20_2 C8_2 1_555 1_555
H17_2 C20_2 1_555 1_555
H18_2 C20_2 1_555 1_555
O3_2 C16_2 1_555 1_555
C21_2 H19_2 1_555 1_555
C22_2 C21_2 1_555 1_555
C23_2 C22_2 1_555 1_555
H20_2 C23_2 1_555 1_555
C24_2 C23_2 1_555 1_555
H21 C24_2 1_555 1_555
C25_2 C24_2 1_555 1_555
H22_2 C25_2 1_555 1_555
C26_2 C8_2 1_555 1_555
H23_2 C26_2 1_555 1_555
H24_2 C26_2 1_555 1_555
N5_2 C21_2 1_555 1_555
O4_2 C22_2 1_555 1_555
C29_2 N11 1_555 1_555
Cu9 N5_2 1_555 1_555
S8 C29_2 1_555 1_555
C7_2 O1_2 1_555 1_555
C14_2 O2_2 1_555 1_555
C20_2 O3_2 1_555 1_555
C25_2 N5_2 1_555 1_555
C26_2 O4_2 1_555 1_555
C3_2 C2_2 1_555 1_555
C4_2 C3_2 1_555 1_555
H2_2 C4_2 1_555 1_555
C5_2 C4_2 1_555 1_555
H3_2 C5_2 1_555 1_555
C9_2 H7_2 1_555 1_555
C10_2 C9_2 1_555 1_555
C11_2 C10_2 1_555 1_555
H8_2 C11_2 1_555 1_555
C12_2 C11_2 1_555 1_555
C13_2 C12_2 1_555 1_555
H10_2 C13_2 1_555 1_555
N3_2 C9_2 1_555 1_555
Cu8 N3_2 1_555 1_555
S6_2 C27_2 1_555 1_555
C13_2 N3_2 1_555 1_555

#END
