
###############################################################################
#
# This file contains modified crystal structure data generated from the
# MOF subset of the Cambridge Structural Database (CSD) v543 
# hosted by the Cambridge Crystallographic Data Centre (CCDC).
#
# This work is licensed under the Creative Commons
# Attribution-NonCommercial-ShareAlike 4.0 International License.
# To view a copy of this license, visit
# http://creativecommons.org/licenses/by-nc-sa/4.0/
# or send a letter to
# Creative Commons, PO Box 1866, Mountain View, CA 94042, USA.
#
# CIF created using the CSD Python API on 29 September 2022
# The structure has been converted into the P1 space group
# The structure has a 3D framework
# The original CSD entry CIJBAB is in the monoclinic crystal system
# The framework has been calculated to contain at least 10.0% void space
# The void calculation uses a probe of radius 1.32A, grid spacing 0.4
# H atom positions have been added when not included in the experimental data
#
###############################################################################

data_CIJBAB
_chemical_formula_moiety         '(C176 H184 La8 N16 O72)n'
_symmetry_cell_setting           triclinic
_symmetry_space_group_name_H-M   'P 1'
_symmetry_Int_Tables_number      1
_space_group_name_Hall           'P 1'
loop_
_symmetry_equiv_pos_site_id
_symmetry_equiv_pos_as_xyz
1 x,y,z
_cell_length_a                   28.492(5)
_cell_length_b                   14.539(5)
_cell_length_c                   13.492(5)
_cell_angle_alpha                90
_cell_angle_beta                 101.870(5)
_cell_angle_gamma                90
_cell_volume                     5469.49
loop_
_atom_site_label
_atom_site_type_symbol
_atom_site_fract_x
_atom_site_fract_y
_atom_site_fract_z
H12 H 0.317466 0.189335 0.023935
H13 H 0.343051 0.281266 0.005193
C1 C 0.27830(13) 0.1753(3) 0.3271(3)
C2 C 0.29550(13) 0.1124(3) 0.2528(3)
C3 C 0.26349(13) 0.0516(3) 0.1948(3)
H1 H 0.231221 0.052893 0.198114
C6 C 0.35923(13) 0.0529(3) 0.1784(3)
C7 C 0.34322(13) 0.1130(3) 0.2448(3)
H3 H 0.364609 0.153597 0.283774
C8 C 0.41078(14) 0.0540(3) 0.1662(3)
C9 C 0.46125(15) 0.1614(3) 0.1011(4)
C10 C 0.49476(14) 0.0951(3) 0.0926(3)
H4 H 0.490603 0.034660 0.111574
C11 C 0.53481(13) 0.1202(3) 0.0553(3)
H5 H 0.557385 0.075546 0.049128
C12 C 0.54212(13) 0.2088(3) 0.0274(3)
C13 C 0.50836(17) 0.2746(3) 0.0369(5)
H6 H 0.512911 0.335250 0.018916
C14 C 0.46802(19) 0.2514(4) 0.0726(6)
H7 H 0.445280 0.296077 0.077749
C16 C 0.3398(2) 0.2464(4) 0.8105(3)
H8 H 0.335478 0.309428 0.816078
C17 C 0.3430(4) 0.0968(5) 0.8865(5)
H9 H 0.337373 0.070170 0.948131
H10 H 0.321778 0.069414 0.829726
H11 H 0.375650 0.085771 0.881325
C18 C 0.3197(3) 0.2363(7) 0.9752(4)
H14 H 0.289079 0.265509 0.953974
C19 C 0.3740(4) 0.4840(5) 0.6953(6)
H15 H 0.406597 0.470853 0.712851
C20 C 0.3202(5) 0.5994(10) 0.6908(11)
H16 H 0.319519 0.662236 0.712310
H17 H 0.309502 0.595991 0.618648
H18 H 0.299348 0.563208 0.722922
C21 C 0.3987(7) 0.6351(8) 0.7661(9)
H19 H 0.379127 0.688152 0.769803
H20 H 0.414371 0.617009 0.833263
H21 H 0.422457 0.649646 0.727301
N1 N 0.33439(17) 0.1949(4) 0.8872(3)
N2 N 0.3701(2) 0.5632(3) 0.7198(4)
O1 O 0.30827(9) 0.22764(19) 0.37977(19)
O2 O 0.23474(9) 0.1694(2) 0.3309(2)
O7 O 0.35655(13) 0.4193(2) 0.6613(2)
O8 O 0.35023(13) 0.2180(2) 0.7316(2)
O9 O 0.41966(11) 0.1454(2) 0.1342(3)
La1 La 0.32117(2) 0.28644(2) 0.55727(2)
O10 O 0.26526(9) 0.3306(2) 0.6691(2)
O11 O 0.38954(9) 0.17225(19) 0.5405(2)
O12 O 0.40338(9) 0.31861(19) 0.5162(2)
O13 O 0.23498(9) 0.34658(17) 0.45596(19)
O14 O 0.26502(9) 0.15342(17) 0.54404(19)
O15 O 0.29769(9) 0.43117(19) 0.4443(2)
La5 La 0.17883(2) 0.21356(2) 0.44273(2)
H22 H 0.416019 0.00406186 0.1093
H23 H 0.43476 0.0380868 0.237975
C15 C 0.58585(13) 0.2346(3) 0.9876(3)
O3 O 0.61046(9) 0.17225(19) 0.9595(2)
O4 O 0.59662(9) 0.31861(19) 0.9838(2)
La2 La 0.67883(2) 0.28644(2) 0.94273(2)
C4 C 0.27979(13) 0.9886(3) 0.1315(3)
C5 C 0.32784(13) 0.9904(3) 0.1237(3)
H2 H 0.338825 0.949003 0.081164
C22 C 0.24661(13) 0.9184(3) 0.0742(3)
O5 O 0.26502(9) 0.84658(17) 0.04404(19)
O6 O 0.20231(9) 0.93117(19) 0.0557(2)
La4 La 0.32117(2) 0.71356(2) 0.05727(2)
La3 La 0.17883(2) 0.78644(2) 0.94273(2)
C1_2 C 0.72170(13) 0.1753(3) 0.1729(3)
C2_2 C 0.70450(13) 0.1124(3) 0.2472(3)
C3_2 C 0.73651(13) 0.0516(3) 0.3052(3)
H1_2 H 0.768779 0.052893 0.301886
C6_2 C 0.64077(13) 0.0529(3) 0.3216(3)
C7_2 C 0.65678(13) 0.1130(3) 0.2552(3)
H3_2 H 0.635391 0.153597 0.216226
C8_2 C 0.58922(14) 0.0540(3) 0.3338(3)
C9_2 C 0.53875(15) 0.1614(3) 0.3989(4)
C10_2 C 0.50524(14) 0.0951(3) 0.4074(3)
H4_2 H 0.509397 0.034660 0.388426
C11_2 C 0.46519(13) 0.1202(3) 0.4447(3)
H5_2 H 0.442615 0.075546 0.450872
C12_2 C 0.45788(13) 0.2088(3) 0.4726(3)
C13_2 C 0.49164(17) 0.2746(3) 0.4631(5)
H6_2 H 0.487089 0.335250 0.481084
C14_2 C 0.53198(19) 0.2514(4) 0.4274(6)
H7_2 H 0.554720 0.296077 0.422251
C15_2 C 0.41415(13) 0.2346(3) 0.5124(3)
O1_2 O 0.69173(9) 0.22764(19) 0.12023(19)
O2_2 O 0.76526(9) 0.1694(2) 0.1691(2)
O9_2 O 0.58034(11) 0.1454(2) 0.3658(3)
O13_2 O 0.76502(9) 0.34658(17) 0.04404(19)
O15_2 O 0.70231(9) 0.43117(19) 0.0557(2)
La5_2 La 0.82117(2) 0.21356(2) 0.05727(2)
H22_2 H 0.583981 0.00406186 0.3907
H23_2 H 0.56524 0.0380868 0.262025
C16_2 C 0.6602(2) 0.2464(4) 0.6895(3)
H8_2 H 0.664522 0.309428 0.683922
C17_2 C 0.6570(4) 0.0968(5) 0.6135(5)
H9_2 H 0.662627 0.070170 0.551869
H10_2 H 0.678222 0.069414 0.670274
H11_2 H 0.624350 0.085771 0.618675
C18_2 C 0.6803(3) 0.2363(7) 0.5248(4)
H12_2 H 0.682534 0.189335 0.476065
H13_2 H 0.656949 0.281266 0.494807
H14_2 H 0.710921 0.265509 0.546026
C19_2 C 0.6260(4) 0.4840(5) 0.8047(6)
H15_2 H 0.593403 0.470853 0.787149
C20_2 C 0.6798(5) 0.5994(10) 0.8092(11)
H16_2 H 0.680481 0.662236 0.787690
H17_2 H 0.690498 0.595991 0.881352
H18_2 H 0.700652 0.563208 0.777078
C21_2 C 0.6013(7) 0.6351(8) 0.7339(9)
H19_2 H 0.620873 0.688152 0.730197
H20_2 H 0.585629 0.617009 0.666737
H21_2 H 0.577543 0.649646 0.772699
N1_2 N 0.66561(17) 0.1949(4) 0.6128(3)
N2_2 N 0.6299(2) 0.5632(3) 0.7802(4)
O7_2 O 0.64345(13) 0.4193(2) 0.8387(2)
O8_2 O 0.64977(13) 0.2180(2) 0.7684(2)
O10_2 O 0.73474(9) 0.3306(2) 0.8309(2)
O14_2 O 0.73498(9) 0.15342(17) 0.95596(19)
C4_2 C 0.72021(13) 0.9886(3) 0.3685(3)
C5_2 C 0.67216(13) 0.9904(3) 0.3763(3)
H2_2 H 0.661175 0.949003 0.418836
C22_2 C 0.75339(13) 0.9184(3) 0.4258(3)
O5_2 O 0.73498(9) 0.84658(17) 0.45596(19)
O6_2 O 0.79769(9) 0.93117(19) 0.4443(2)
La3_2 La 0.82117(2) 0.78644(2) 0.55727(2)
La4_2 La 0.67883(2) 0.71356(2) 0.44273(2)
C15_3 C 0.08585(13) 0.7346(3) 0.9876(3)
O3_2 O 0.11046(9) 0.67225(19) 0.9595(2)
O4_2 O 0.09662(9) 0.81861(19) 0.9838(2)
C1_3 C 0.77830(13) 0.6753(3) 0.3271(3)
C2_3 C 0.79550(13) 0.6124(3) 0.2528(3)
C3_3 C 0.76349(13) 0.5516(3) 0.1948(3)
H1_3 H 0.731221 0.552893 0.198114
C4_3 C 0.77979(13) 0.4886(3) 0.1315(3)
C5_3 C 0.82784(13) 0.4904(3) 0.1237(3)
H2_3 H 0.838825 0.449003 0.081164
C6_3 C 0.85923(13) 0.5529(3) 0.1784(3)
C7_3 C 0.84322(13) 0.6130(3) 0.2448(3)
H3_3 H 0.864609 0.653597 0.283774
C8_3 C 0.91078(14) 0.5540(3) 0.1662(3)
C9_3 C 0.96125(15) 0.6614(3) 0.1011(4)
C10_3 C 0.99476(14) 0.5951(3) 0.0926(3)
H4_3 H 0.990603 0.534660 0.111574
C14_3 C 0.96802(19) 0.7514(4) 0.0726(6)
H7_3 H 0.945280 0.796077 0.077749
C16_3 C 0.8398(2) 0.7464(4) 0.8105(3)
H8_3 H 0.835478 0.809428 0.816078
C17_3 C 0.8430(4) 0.5968(5) 0.8865(5)
H9_3 H 0.837373 0.570170 0.948131
H10_3 H 0.821778 0.569414 0.829726
H11_3 H 0.875650 0.585771 0.881325
C18_3 C 0.8197(3) 0.7363(7) 0.9752(4)
H14_3 H 0.789079 0.765509 0.953974
C19_3 C 0.8740(4) 0.9840(5) 0.6953(6)
H15_3 H 0.906597 0.970853 0.712851
C22_3 C 0.74661(13) 0.4184(3) 0.0742(3)
N1_3 N 0.83439(17) 0.6949(4) 0.8872(3)
O1_3 O 0.80827(9) 0.72764(19) 0.37977(19)
O2_3 O 0.73474(9) 0.6694(2) 0.3309(2)
O7_3 O 0.85655(13) 0.9193(2) 0.6613(2)
O8_3 O 0.85023(13) 0.7180(2) 0.7316(2)
O9_3 O 0.91966(11) 0.6454(2) 0.1342(3)
O10_3 O 0.76526(9) 0.8306(2) 0.6691(2)
O11_2 O 0.88954(9) 0.67225(19) 0.5405(2)
O12_2 O 0.90338(9) 0.81861(19) 0.5162(2)
O14_3 O 0.76502(9) 0.65342(17) 0.54404(19)
H22_3 H 0.916019 0.504062 0.1093
H23_3 H 0.93476 0.538087 0.237975
C1_4 C 0.22170(13) 0.6753(3) 0.1729(3)
C2_4 C 0.20450(13) 0.6124(3) 0.2472(3)
C3_4 C 0.23651(13) 0.5516(3) 0.3052(3)
H1_4 H 0.268779 0.552893 0.301886
C4_4 C 0.22021(13) 0.4886(3) 0.3685(3)
C5_4 C 0.17216(13) 0.4904(3) 0.3763(3)
H2_4 H 0.161175 0.449003 0.418836
C6_4 C 0.14077(13) 0.5529(3) 0.3216(3)
C7_4 C 0.15678(13) 0.6130(3) 0.2552(3)
H3_4 H 0.135391 0.653597 0.216226
C8_4 C 0.08922(14) 0.5540(3) 0.3338(3)
C9_4 C 0.03875(15) 0.6614(3) 0.3989(4)
C10_4 C 0.00524(14) 0.5951(3) 0.4074(3)
H4_4 H 0.009397 0.534660 0.388426
C14_4 C 0.03198(19) 0.7514(4) 0.4274(6)
H7_4 H 0.054720 0.796077 0.422251
C22_4 C 0.25339(13) 0.4184(3) 0.4258(3)
O1_4 O 0.19173(9) 0.72764(19) 0.12023(19)
O2_4 O 0.26526(9) 0.6694(2) 0.1691(2)
O9_4 O 0.08034(11) 0.6454(2) 0.3658(3)
H22_4 H 0.0839812 0.504062 0.3907
H23_4 H 0.0652404 0.538087 0.262025
C16_4 C 0.1602(2) 0.7464(4) 0.6895(3)
H8_4 H 0.164522 0.809428 0.683922
C17_4 C 0.1570(4) 0.5968(5) 0.6135(5)
H9_4 H 0.162627 0.570170 0.551869
H10_4 H 0.178222 0.569414 0.670274
H11_4 H 0.124350 0.585771 0.618675
C18_4 C 0.1803(3) 0.7363(7) 0.5248(4)
H12_3 H 0.182534 0.689335 0.476065
H13_3 H 0.156949 0.781266 0.494807
H14_4 H 0.210921 0.765509 0.546026
C19_4 C 0.1260(4) 0.9840(5) 0.8047(6)
H15_4 H 0.093403 0.970853 0.787149
N1_4 N 0.16561(17) 0.6949(4) 0.6128(3)
O7_4 O 0.14345(13) 0.9193(2) 0.8387(2)
O8_4 O 0.14977(13) 0.7180(2) 0.7684(2)
O10_4 O 0.23474(9) 0.8306(2) 0.8309(2)
O14_4 O 0.23498(9) 0.65342(17) 0.95596(19)
C11_3 C 0.96519(13) 0.6202(3) 0.4447(3)
H5_3 H 0.942615 0.575546 0.450872
C12_3 C 0.95788(13) 0.7088(3) 0.4726(3)
C13_3 C 0.99164(17) 0.7746(3) 0.4631(5)
H6_3 H 0.987089 0.835250 0.481084
C15_4 C 0.91415(13) 0.7346(3) 0.5124(3)
C4_5 C 0.72021(13) 0.0114(3) 0.8685(3)
C5_5 C 0.67216(13) 0.0096(3) 0.8763(3)
H2_5 H 0.661175 0.050997 0.918836
C22_5 C 0.75339(13) 0.0816(3) 0.9258(3)
O6_3 O 0.79769(9) 0.06883(19) 0.9443(2)
C15_5 C 0.41415(13) 0.7654(3) 0.0124(3)
O3_3 O 0.38954(9) 0.82775(19) 0.0405(2)
O4_3 O 0.40338(9) 0.68139(19) 0.0162(2)
C1_5 C 0.72170(13) 0.8247(3) 0.6729(3)
C2_5 C 0.70450(13) 0.8876(3) 0.7472(3)
C3_5 C 0.73651(13) 0.9484(3) 0.8052(3)
H1_5 H 0.768779 0.947107 0.801886
C6_5 C 0.64077(13) 0.9471(3) 0.8216(3)
C7_5 C 0.65678(13) 0.8870(3) 0.7552(3)
H3_5 H 0.635391 0.846403 0.716226
C8_5 C 0.58922(14) 0.9460(3) 0.8338(3)
C9_5 C 0.53875(15) 0.8386(3) 0.8989(4)
C10_5 C 0.50524(14) 0.9049(3) 0.9074(3)
H4_5 H 0.509397 0.965340 0.888426
C11_4 C 0.46519(13) 0.8798(3) 0.9447(3)
H5_4 H 0.442615 0.924454 0.950872
C12_4 C 0.45788(13) 0.7912(3) 0.9726(3)
C13_4 C 0.49164(17) 0.7254(3) 0.9631(5)
H6_4 H 0.487089 0.664750 0.981084
C14_5 C 0.53198(19) 0.7486(4) 0.9274(6)
H7_5 H 0.554720 0.703923 0.922251
C16_5 C 0.6602(2) 0.7536(4) 0.1895(3)
H8_5 H 0.664522 0.690572 0.183922
C17_5 C 0.6570(4) 0.9032(5) 0.1135(5)
H9_5 H 0.662627 0.929830 0.051869
H10_5 H 0.678222 0.930586 0.170274
H11_5 H 0.624350 0.914229 0.118675
C18_5 C 0.6803(3) 0.7637(7) 0.0248(4)
H14_5 H 0.710921 0.734491 0.046026
C19_5 C 0.6260(4) 0.5160(5) 0.3047(6)
H15_5 H 0.593403 0.529147 0.287149
C20_3 C 0.6798(5) 0.4006(10) 0.3092(11)
H16_3 H 0.680481 0.337764 0.287690
H17_3 H 0.690498 0.404009 0.381352
H18_3 H 0.700652 0.436792 0.277078
C21_3 C 0.6013(7) 0.3649(8) 0.2339(9)
H19_3 H 0.620873 0.311848 0.230197
H20_3 H 0.585629 0.382991 0.166737
H21_3 H 0.577543 0.350354 0.272699
N1_5 N 0.66561(17) 0.8051(4) 0.1128(3)
N2_3 N 0.6299(2) 0.4368(3) 0.2802(4)
O1_5 O 0.69173(9) 0.77236(19) 0.62023(19)
O7_5 O 0.64345(13) 0.5807(2) 0.3387(2)
O8_5 O 0.64977(13) 0.7820(2) 0.2684(2)
O9_5 O 0.58034(11) 0.8546(2) 0.8658(3)
O11_3 O 0.61046(9) 0.82775(19) 0.4595(2)
O12_3 O 0.59662(9) 0.68139(19) 0.4838(2)
O15_3 O 0.70231(9) 0.56883(19) 0.5557(2)
H22_5 H 0.583981 0.995938 0.8907
H23_5 H 0.56524 0.961913 0.762025
C4_6 C 0.27979(13) 0.0114(3) 0.6315(3)
C5_6 C 0.32784(13) 0.0096(3) 0.6237(3)
H2_6 H 0.338825 0.050997 0.581164
C22_6 C 0.24661(13) 0.0816(3) 0.5742(3)
O6_4 O 0.20231(9) 0.06883(19) 0.5557(2)
C16_6 C 0.3398(2) 0.7536(4) 0.3105(3)
H8_6 H 0.335478 0.690572 0.316078
C17_6 C 0.3430(4) 0.9032(5) 0.3865(5)
H9_6 H 0.337373 0.929830 0.448131
H10_6 H 0.321778 0.930586 0.329726
H11_6 H 0.375650 0.914229 0.381325
C18_6 C 0.3197(3) 0.7637(7) 0.4752(4)
H12_4 H 0.317466 0.810665 0.523935
H13_4 H 0.343051 0.718734 0.505193
H14_6 H 0.289079 0.734491 0.453974
C19_6 C 0.3740(4) 0.5160(5) 0.1953(6)
H15_6 H 0.406597 0.529147 0.212851
C20_4 C 0.3202(5) 0.4006(10) 0.1908(11)
H16_4 H 0.319519 0.337764 0.212310
H17_4 H 0.309502 0.404009 0.118648
H18_4 H 0.299348 0.436792 0.222922
C21_4 C 0.3987(7) 0.3649(8) 0.2661(9)
H19_4 H 0.379127 0.311848 0.269803
H20_4 H 0.414371 0.382991 0.333263
H21_4 H 0.422457 0.350354 0.227301
N1_6 N 0.33439(17) 0.8051(4) 0.3872(3)
N2_4 N 0.3701(2) 0.4368(3) 0.2198(4)
O7_6 O 0.35655(13) 0.5807(2) 0.1613(2)
O8_6 O 0.35023(13) 0.7820(2) 0.2316(2)
C1_6 C 0.27830(13) 0.8247(3) 0.8271(3)
C2_6 C 0.29550(13) 0.8876(3) 0.7528(3)
C3_6 C 0.26349(13) 0.9484(3) 0.6948(3)
H1_6 H 0.231221 0.947107 0.698114
C6_6 C 0.35923(13) 0.9471(3) 0.6784(3)
C7_6 C 0.34322(13) 0.8870(3) 0.7448(3)
H3_6 H 0.364609 0.846403 0.783774
C8_6 C 0.41078(14) 0.9460(3) 0.6662(3)
C9_6 C 0.46125(15) 0.8386(3) 0.6011(4)
C10_6 C 0.49476(14) 0.9049(3) 0.5926(3)
H4_6 H 0.490603 0.965340 0.611574
C11_5 C 0.53481(13) 0.8798(3) 0.5553(3)
H5_5 H 0.557385 0.924454 0.549128
C12_5 C 0.54212(13) 0.7912(3) 0.5274(3)
C13_5 C 0.50836(17) 0.7254(3) 0.5369(5)
H6_5 H 0.512911 0.664750 0.518916
C14_6 C 0.46802(19) 0.7486(4) 0.5726(6)
H7_6 H 0.445280 0.703923 0.577749
C15_6 C 0.58585(13) 0.7654(3) 0.4876(3)
O1_6 O 0.30827(9) 0.77236(19) 0.87977(19)
O9_6 O 0.41966(11) 0.8546(2) 0.6342(3)
O15_4 O 0.29769(9) 0.56883(19) 0.9443(2)
H22_6 H 0.416019 0.995938 0.6093
H23_6 H 0.43476 0.961913 0.737975
C1_7 C 0.22170(13) 0.3247(3) 0.6729(3)
C2_7 C 0.20450(13) 0.3876(3) 0.7472(3)
C3_7 C 0.23651(13) 0.4484(3) 0.8052(3)
H1_7 H 0.268779 0.447107 0.801886
C4_7 C 0.22021(13) 0.5114(3) 0.8685(3)
C5_7 C 0.17216(13) 0.5096(3) 0.8763(3)
H2_7 H 0.161175 0.550997 0.918836
C6_7 C 0.14077(13) 0.4471(3) 0.8216(3)
C7_7 C 0.15678(13) 0.3870(3) 0.7552(3)
H3_7 H 0.135391 0.346403 0.716226
C8_7 C 0.08922(14) 0.4460(3) 0.8338(3)
C9_7 C 0.03875(15) 0.3386(3) 0.8989(4)
C10_7 C 0.00524(14) 0.4049(3) 0.9074(3)
H4_7 H 0.009397 0.465340 0.888426
C14_7 C 0.03198(19) 0.2486(4) 0.9274(6)
H7_7 H 0.054720 0.203923 0.922251
C16_7 C 0.1602(2) 0.2536(4) 0.1895(3)
H8_7 H 0.164522 0.190572 0.183922
C17_7 C 0.1570(4) 0.4032(5) 0.1135(5)
H9_7 H 0.162627 0.429830 0.051869
H10_7 H 0.178222 0.430586 0.170274
H11_7 H 0.124350 0.414229 0.118675
C18_7 C 0.1803(3) 0.2637(7) 0.0248(4)
H14_7 H 0.210921 0.234491 0.046026
C19_7 C 0.1260(4) 0.0160(5) 0.3047(6)
H15_7 H 0.093403 0.029147 0.287149
C22_7 C 0.25339(13) 0.5816(3) 0.9258(3)
N1_7 N 0.16561(17) 0.3051(4) 0.1128(3)
O1_7 O 0.19173(9) 0.27236(19) 0.62023(19)
O7_7 O 0.14345(13) 0.0807(2) 0.3387(2)
O8_7 O 0.14977(13) 0.2820(2) 0.2684(2)
O9_7 O 0.08034(11) 0.3546(2) 0.8658(3)
O11_4 O 0.11046(9) 0.32775(19) 0.4595(2)
O12_4 O 0.09662(9) 0.18139(19) 0.4838(2)
H22_7 H 0.0839812 0.495938 0.8907
H23_7 H 0.0652404 0.461913 0.762025
C15_7 C 0.91415(13) 0.2654(3) 0.0124(3)
O3_4 O 0.88954(9) 0.32775(19) 0.0405(2)
O4_4 O 0.90338(9) 0.18139(19) 0.0162(2)
C11_6 C 0.03481(13) 0.3798(3) 0.5553(3)
H5_6 H 0.057385 0.424454 0.549128
C12_6 C 0.04212(13) 0.2912(3) 0.5274(3)
C13_6 C 0.00836(17) 0.2254(3) 0.5369(5)
H6_6 H 0.012911 0.164750 0.518916
C15_8 C 0.08585(13) 0.2654(3) 0.4876(3)
C16_8 C 0.8398(2) 0.2536(4) 0.3105(3)
H8_8 H 0.835478 0.190572 0.316078
C17_8 C 0.8430(4) 0.4032(5) 0.3865(5)
H9_8 H 0.837373 0.429830 0.448131
H10_8 H 0.821778 0.430586 0.329726
H11_8 H 0.875650 0.414229 0.381325
C18_8 C 0.8197(3) 0.2637(7) 0.4752(4)
H12_5 H 0.817466 0.310665 0.523935
H13_5 H 0.843051 0.218734 0.505193
H14_8 H 0.789079 0.234491 0.453974
C19_8 C 0.8740(4) 0.0160(5) 0.1953(6)
H15_8 H 0.906597 0.029147 0.212851
N1_8 N 0.83439(17) 0.3051(4) 0.3872(3)
O7_8 O 0.85655(13) 0.0807(2) 0.1613(2)
O8_8 O 0.85023(13) 0.2820(2) 0.2316(2)
C1_8 C 0.77830(13) 0.3247(3) 0.8271(3)
C2_8 C 0.79550(13) 0.3876(3) 0.7528(3)
C3_8 C 0.76349(13) 0.4484(3) 0.6948(3)
H1_8 H 0.731221 0.447107 0.698114
C4_8 C 0.77979(13) 0.5114(3) 0.6315(3)
C5_8 C 0.82784(13) 0.5096(3) 0.6237(3)
H2_8 H 0.838825 0.550997 0.581164
C6_8 C 0.85923(13) 0.4471(3) 0.6784(3)
C7_8 C 0.84322(13) 0.3870(3) 0.7448(3)
H3_8 H 0.864609 0.346403 0.783774
C8_8 C 0.91078(14) 0.4460(3) 0.6662(3)
C9_8 C 0.96125(15) 0.3386(3) 0.6011(4)
C10_8 C 0.99476(14) 0.4049(3) 0.5926(3)
H4_8 H 0.990603 0.465340 0.611574
C14_8 C 0.96802(19) 0.2486(4) 0.5726(6)
H7_8 H 0.945280 0.203923 0.577749
C22_8 C 0.74661(13) 0.5816(3) 0.5742(3)
O1_8 O 0.80827(9) 0.27236(19) 0.87977(19)
O9_8 O 0.91966(11) 0.3546(2) 0.6342(3)
H22_8 H 0.916019 0.495938 0.6093
H23_8 H 0.93476 0.461913 0.737975
C11_7 C 0.03481(13) 0.6202(3) 0.0553(3)
H5_7 H 0.057385 0.575546 0.049128
C12_7 C 0.04212(13) 0.7088(3) 0.0274(3)
C13_7 C 0.00836(17) 0.7746(3) 0.0369(5)
H6_7 H 0.012911 0.835250 0.018916
C20_5 C 0.8202(5) 0.0994(10) 0.6908(11)
H16_5 H 0.819519 0.162236 0.712310
H17_5 H 0.809502 0.095991 0.618648
H18_5 H 0.799348 0.063208 0.722922
C21_5 C 0.8987(7) 0.1351(8) 0.7661(9)
H19_5 H 0.879127 0.188152 0.769803
H20_5 H 0.914371 0.117009 0.833263
H21_5 H 0.922457 0.149646 0.727301
N2_5 N 0.8701(2) 0.0632(3) 0.7198(4)
H12_6 H 0.817466 0.689335 0.023935
H13_6 H 0.843051 0.781266 0.005193
C20_6 C 0.1798(5) 0.0994(10) 0.8092(11)
H16_6 H 0.180481 0.162236 0.787690
H17_6 H 0.190498 0.095991 0.881352
H18_6 H 0.200652 0.063208 0.777078
C21_6 C 0.1013(7) 0.1351(8) 0.7339(9)
H19_6 H 0.120873 0.188152 0.730197
H20_6 H 0.085629 0.117009 0.666737
H21_6 H 0.077543 0.149646 0.772699
N2_6 N 0.1299(2) 0.0632(3) 0.7802(4)
H12_7 H 0.682534 0.810665 0.976065
H13_7 H 0.656949 0.718734 0.994807
H12_8 H 0.182534 0.310665 0.976065
H13_8 H 0.156949 0.218734 0.994807
C20_7 C 0.1798(5) 0.9006(10) 0.3092(11)
H16_7 H 0.180481 0.837764 0.287690
H17_7 H 0.190498 0.904009 0.381352
H18_7 H 0.200652 0.936792 0.277078
C21_7 C 0.1013(7) 0.8649(8) 0.2339(9)
H19_7 H 0.120873 0.811848 0.230197
H20_7 H 0.085629 0.882991 0.166737
H21_7 H 0.077543 0.850354 0.272699
N2_7 N 0.1299(2) 0.9368(3) 0.2802(4)
C11_8 C 0.96519(13) 0.3798(3) 0.9447(3)
H5_8 H 0.942615 0.424454 0.950872
C12_8 C 0.95788(13) 0.2912(3) 0.9726(3)
C13_8 C 0.99164(17) 0.2254(3) 0.9631(5)
H6_8 H 0.987089 0.164750 0.981084
C20_8 C 0.8202(5) 0.9006(10) 0.1908(11)
H16_8 H 0.819519 0.837764 0.212310
H17_8 H 0.809502 0.904009 0.118648
H18_8 H 0.799348 0.936792 0.222922
C21_8 C 0.8987(7) 0.8649(8) 0.2661(9)
H19_8 H 0.879127 0.811848 0.269803
H20_8 H 0.914371 0.882991 0.333263
H21_8 H 0.922457 0.850354 0.227301
N2_8 N 0.8701(2) 0.9368(3) 0.2198(4)
loop_
_geom_bond_atom_site_label_1
_geom_bond_atom_site_label_2
_geom_bond_site_symmetry_1
_geom_bond_site_symmetry_2
C1 C2 1_555 1_555
C2 C3 1_555 1_555
C3 H1 1_555 1_555
C7 C2 1_555 1_555
H3 C7 1_555 1_555
C8 C6 1_555 1_555
C9 C10 1_555 1_555
C10 H4 1_555 1_555
C11 C10 1_555 1_555
H5 C11 1_555 1_555
C12 C11 1_555 1_555
C13 C12 1_555 1_555
H6 C13 1_555 1_555
C14 C9 1_555 1_555
H7 C14 1_555 1_555
C16 H8 1_555 1_555
C17 H9 1_555 1_555
H10 C17 1_555 1_555
H11 C17 1_555 1_555
H14 C18 1_555 1_555
C19 H15 1_555 1_555
C20 H16 1_555 1_555
H17 C20 1_555 1_555
H18 C20 1_555 1_555
C21 H19 1_555 1_555
H20 C21 1_555 1_555
H21 C21 1_555 1_555
N1 C16 1_555 1_555
N2 C19 1_555 1_555
O1 C1 1_555 1_555
O2 C1 1_555 1_555
O7 C19 1_555 1_555
O8 C16 1_555 1_555
O9 C8 1_555 1_555
La1 O1 1_555 1_555
O10 La1 1_555 1_555
O11 La1 1_555 1_555
O12 La1 1_555 1_555
O13 La1 1_555 1_555
O14 La1 1_555 1_555
O15 La1 1_555 1_555
La5 O2 1_555 1_555
C6 C7 1_555 1_555
C9 O9 1_555 1_555
C13 C14 1_555 1_555
C17 N1 1_555 1_555
C18 N1 1_555 1_555
C20 N2 1_555 1_555
C21 N2 1_555 1_555
O7 La1 1_555 1_555
O8 La1 1_555 1_555
O13 La5 1_555 1_555
O14 La5 1_555 1_555
C8 H22 1_555 1_555
C8 H23 1_555 1_555
O3 C15 1_555 1_555
O4 C15 1_555 1_555
La2 O3 1_555 1_555
O4 La2 1_555 1_555
C5 C4 1_555 1_555
H2 C5 1_555 1_555
C22 C4 1_555 1_555
O5 C22 1_555 1_555
O6 C22 1_555 1_555
La4 O5 1_555 1_555
C1_2 C2_2 1_555 1_555
C2_2 C3_2 1_555 1_555
C3_2 H1_2 1_555 1_555
C7_2 C2_2 1_555 1_555
H3_2 C7_2 1_555 1_555
C8_2 C6_2 1_555 1_555
C9_2 C10_2 1_555 1_555
C10_2 H4_2 1_555 1_555
C11_2 C10_2 1_555 1_555
H5_2 C11_2 1_555 1_555
C12_2 C11_2 1_555 1_555
C13_2 C12_2 1_555 1_555
H6_2 C13_2 1_555 1_555
C14_2 C9_2 1_555 1_555
H7_2 C14_2 1_555 1_555
C15_2 C12_2 1_555 1_555
O1_2 C1_2 1_555 1_555
O2_2 C1_2 1_555 1_555
O11 C15_2 1_555 1_555
O12 C15_2 1_555 1_555
O9_2 C8_2 1_555 1_555
La5_2 O2_2 1_555 1_555
C6_2 C7_2 1_555 1_555
C9_2 O9_2 1_555 1_555
C13_2 C14_2 1_555 1_555
O13_2 La5_2 1_555 1_555
C8_2 H22_2 1_555 1_555
C8_2 H23_2 1_555 1_555
C16_2 H8_2 1_555 1_555
C17_2 H9_2 1_555 1_555
H10_2 C17_2 1_555 1_555
H11_2 C17_2 1_555 1_555
C18_2 H12_2 1_555 1_555
H13_2 C18_2 1_555 1_555
H14_2 C18_2 1_555 1_555
C19_2 H15_2 1_555 1_555
C20_2 H16_2 1_555 1_555
H17_2 C20_2 1_555 1_555
H18_2 C20_2 1_555 1_555
C21_2 H19_2 1_555 1_555
H20_2 C21_2 1_555 1_555
H21_2 C21_2 1_555 1_555
N1_2 C16_2 1_555 1_555
N2_2 C19_2 1_555 1_555
O7_2 C19_2 1_555 1_555
O8_2 C16_2 1_555 1_555
O10_2 La2 1_555 1_555
O14_2 La2 1_555 1_555
C17_2 N1_2 1_555 1_555
C18_2 N1_2 1_555 1_555
C20_2 N2_2 1_555 1_555
C21_2 N2_2 1_555 1_555
O7_2 La2 1_555 1_555
O8_2 La2 1_555 1_555
C5_2 C4_2 1_555 1_555
H2_2 C5_2 1_555 1_555
C22_2 C4_2 1_555 1_555
O5_2 C22_2 1_555 1_555
O6_2 C22_2 1_555 1_555
La3_2 O5_2 1_555 1_555
La4_2 O5_2 1_555 1_555
O6_2 La3_2 1_555 1_555
O3_2 C15_3 1_555 1_555
O4_2 C15_3 1_555 1_555
La3 O3_2 1_555 1_555
O4_2 La3 1_555 1_555
C1_3 C2_3 1_555 1_555
C2_3 C3_3 1_555 1_555
C3_3 H1_3 1_555 1_555
C4_3 C3_3 1_555 1_555
C5_3 C4_3 1_555 1_555
H2_3 C5_3 1_555 1_555
C6_3 C5_3 1_555 1_555
C7_3 C2_3 1_555 1_555
H3_3 C7_3 1_555 1_555
C8_3 C6_3 1_555 1_555
C9_3 C10_3 1_555 1_555
C10_3 H4_3 1_555 1_555
C14_3 C9_3 1_555 1_555
H7_3 C14_3 1_555 1_555
C16_3 H8_3 1_555 1_555
C17_3 H9_3 1_555 1_555
H10_3 C17_3 1_555 1_555
H11_3 C17_3 1_555 1_555
H14_3 C18_3 1_555 1_555
C19_3 H15_3 1_555 1_555
C22_3 C4_3 1_555 1_555
N1_3 C16_3 1_555 1_555
O1_3 C1_3 1_555 1_555
O2_3 C1_3 1_555 1_555
O13_2 C22_3 1_555 1_555
O15_2 C22_3 1_555 1_555
O7_3 C19_3 1_555 1_555
O8_3 C16_3 1_555 1_555
O9_3 C8_3 1_555 1_555
La3_2 O1_3 1_555 1_555
O10_3 La3_2 1_555 1_555
O11_2 La3_2 1_555 1_555
O12_2 La3_2 1_555 1_555
O14_3 La3_2 1_555 1_555
La4_2 O2_3 1_555 1_555
C6_3 C7_3 1_555 1_555
C9_3 O9_3 1_555 1_555
C17_3 N1_3 1_555 1_555
C18_3 N1_3 1_555 1_555
O7_3 La3_2 1_555 1_555
O8_3 La3_2 1_555 1_555
O14_3 La4_2 1_555 1_555
C8_3 H22_3 1_555 1_555
C8_3 H23_3 1_555 1_555
C1_4 C2_4 1_555 1_555
C2_4 C3_4 1_555 1_555
C3_4 H1_4 1_555 1_555
C4_4 C3_4 1_555 1_555
C5_4 C4_4 1_555 1_555
H2_4 C5_4 1_555 1_555
C6_4 C5_4 1_555 1_555
C7_4 C2_4 1_555 1_555
H3_4 C7_4 1_555 1_555
C8_4 C6_4 1_555 1_555
C9_4 C10_4 1_555 1_555
C10_4 H4_4 1_555 1_555
C14_4 C9_4 1_555 1_555
H7_4 C14_4 1_555 1_555
C22_4 C4_4 1_555 1_555
O1_4 C1_4 1_555 1_555
O2_4 C1_4 1_555 1_555
O13 C22_4 1_555 1_555
O15 C22_4 1_555 1_555
O9_4 C8_4 1_555 1_555
La4 O2_4 1_555 1_555
C6_4 C7_4 1_555 1_555
C9_4 O9_4 1_555 1_555
C8_4 H22_4 1_555 1_555
C8_4 H23_4 1_555 1_555
C16_4 H8_4 1_555 1_555
C17_4 H9_4 1_555 1_555
H10_4 C17_4 1_555 1_555
H11_4 C17_4 1_555 1_555
C18_4 H12_3 1_555 1_555
H13_3 C18_4 1_555 1_555
H14_4 C18_4 1_555 1_555
C19_4 H15_4 1_555 1_555
N1_4 C16_4 1_555 1_555
O7_4 C19_4 1_555 1_555
O8_4 C16_4 1_555 1_555
O10_4 La3 1_555 1_555
O14_4 La3 1_555 1_555
C17_4 N1_4 1_555 1_555
C18_4 N1_4 1_555 1_555
O7_4 La3 1_555 1_555
O8_4 La3 1_555 1_555
H5_3 C11_3 1_555 1_555
C12_3 C11_3 1_555 1_555
C13_3 C12_3 1_555 1_555
H6_3 C13_3 1_555 1_555
C15_4 C12_3 1_555 1_555
O11_2 C15_4 1_555 1_555
O12_2 C15_4 1_555 1_555
C5_5 C4_5 1_555 1_555
H2_5 C5_5 1_555 1_555
C22_5 C4_5 1_555 1_555
O14_2 C22_5 1_555 1_555
O6_3 C22_5 1_555 1_555
O3_3 C15_5 1_555 1_555
O4_3 C15_5 1_555 1_555
La4 O3_3 1_555 1_555
O4_3 La4 1_555 1_555
C1_5 C2_5 1_555 1_555
C2_5 C3_5 1_555 1_555
C3_5 H1_5 1_555 1_555
C7_5 C2_5 1_555 1_555
H3_5 C7_5 1_555 1_555
C8_5 C6_5 1_555 1_555
C9_5 C10_5 1_555 1_555
C10_5 H4_5 1_555 1_555
C11_4 C10_5 1_555 1_555
H5_4 C11_4 1_555 1_555
C12_4 C11_4 1_555 1_555
C13_4 C12_4 1_555 1_555
H6_4 C13_4 1_555 1_555
C14_5 C9_5 1_555 1_555
H7_5 C14_5 1_555 1_555
C16_5 H8_5 1_555 1_555
C17_5 H9_5 1_555 1_555
H10_5 C17_5 1_555 1_555
H11_5 C17_5 1_555 1_555
H14_5 C18_5 1_555 1_555
C19_5 H15_5 1_555 1_555
C20_3 H16_3 1_555 1_555
H17_3 C20_3 1_555 1_555
H18_3 C20_3 1_555 1_555
C21_3 H19_3 1_555 1_555
H20_3 C21_3 1_555 1_555
H21_3 C21_3 1_555 1_555
N1_5 C16_5 1_555 1_555
N2_3 C19_5 1_555 1_555
O1_5 C1_5 1_555 1_555
O10_3 C1_5 1_555 1_555
O7_5 C19_5 1_555 1_555
O8_5 C16_5 1_555 1_555
O9_5 C8_5 1_555 1_555
La4_2 O1_5 1_555 1_555
O11_3 La4_2 1_555 1_555
O12_3 La4_2 1_555 1_555
O15_3 La4_2 1_555 1_555
C6_5 C7_5 1_555 1_555
C9_5 O9_5 1_555 1_555
C13_4 C14_5 1_555 1_555
C17_5 N1_5 1_555 1_555
C18_5 N1_5 1_555 1_555
C20_3 N2_3 1_555 1_555
C21_3 N2_3 1_555 1_555
O7_5 La4_2 1_555 1_555
O8_5 La4_2 1_555 1_555
C8_5 H22_5 1_555 1_555
C8_5 H23_5 1_555 1_555
C5_6 C4_6 1_555 1_555
H2_6 C5_6 1_555 1_555
C22_6 C4_6 1_555 1_555
O14 C22_6 1_555 1_555
O6_4 C22_6 1_555 1_555
O6_4 La5 1_555 1_555
C16_6 H8_6 1_555 1_555
C17_6 H9_6 1_555 1_555
H10_6 C17_6 1_555 1_555
H11_6 C17_6 1_555 1_555
C18_6 H12_4 1_555 1_555
H13_4 C18_6 1_555 1_555
H14_6 C18_6 1_555 1_555
C19_6 H15_6 1_555 1_555
C20_4 H16_4 1_555 1_555
H17_4 C20_4 1_555 1_555
H18_4 C20_4 1_555 1_555
C21_4 H19_4 1_555 1_555
H20_4 C21_4 1_555 1_555
H21_4 C21_4 1_555 1_555
N1_6 C16_6 1_555 1_555
N2_4 C19_6 1_555 1_555
O7_6 C19_6 1_555 1_555
O8_6 C16_6 1_555 1_555
C17_6 N1_6 1_555 1_555
C18_6 N1_6 1_555 1_555
C20_4 N2_4 1_555 1_555
C21_4 N2_4 1_555 1_555
O7_6 La4 1_555 1_555
O8_6 La4 1_555 1_555
C1_6 C2_6 1_555 1_555
C2_6 C3_6 1_555 1_555
C3_6 H1_6 1_555 1_555
C7_6 C2_6 1_555 1_555
H3_6 C7_6 1_555 1_555
C8_6 C6_6 1_555 1_555
C9_6 C10_6 1_555 1_555
C10_6 H4_6 1_555 1_555
C11_5 C10_6 1_555 1_555
H5_5 C11_5 1_555 1_555
C12_5 C11_5 1_555 1_555
C13_5 C12_5 1_555 1_555
H6_5 C13_5 1_555 1_555
C14_6 C9_6 1_555 1_555
H7_6 C14_6 1_555 1_555
C15_6 C12_5 1_555 1_555
O1_6 C1_6 1_555 1_555
O10_4 C1_6 1_555 1_555
O11_3 C15_6 1_555 1_555
O12_3 C15_6 1_555 1_555
O9_6 C8_6 1_555 1_555
C6_6 C7_6 1_555 1_555
C9_6 O9_6 1_555 1_555
C13_5 C14_6 1_555 1_555
C8_6 H22_6 1_555 1_555
C8_6 H23_6 1_555 1_555
C1_7 C2_7 1_555 1_555
C2_7 C3_7 1_555 1_555
C3_7 H1_7 1_555 1_555
C4_7 C3_7 1_555 1_555
C5_7 C4_7 1_555 1_555
H2_7 C5_7 1_555 1_555
C6_7 C5_7 1_555 1_555
C7_7 C2_7 1_555 1_555
H3_7 C7_7 1_555 1_555
C8_7 C6_7 1_555 1_555
C9_7 C10_7 1_555 1_555
C10_7 H4_7 1_555 1_555
C14_7 C9_7 1_555 1_555
H7_7 C14_7 1_555 1_555
C16_7 H8_7 1_555 1_555
C17_7 H9_7 1_555 1_555
H10_7 C17_7 1_555 1_555
H11_7 C17_7 1_555 1_555
H14_7 C18_7 1_555 1_555
C19_7 H15_7 1_555 1_555
C22_7 C4_7 1_555 1_555
N1_7 C16_7 1_555 1_555
O1_7 C1_7 1_555 1_555
O10 C1_7 1_555 1_555
O14_4 C22_7 1_555 1_555
O15_4 C22_7 1_555 1_555
O7_7 C19_7 1_555 1_555
O8_7 C16_7 1_555 1_555
O9_7 C8_7 1_555 1_555
La5 O1_7 1_555 1_555
O11_4 La5 1_555 1_555
O12_4 La5 1_555 1_555
C6_7 C7_7 1_555 1_555
C9_7 O9_7 1_555 1_555
C17_7 N1_7 1_555 1_555
C18_7 N1_7 1_555 1_555
O7_7 La5 1_555 1_555
O8_7 La5 1_555 1_555
C8_7 H22_7 1_555 1_555
C8_7 H23_7 1_555 1_555
O3_4 C15_7 1_555 1_555
O4_4 C15_7 1_555 1_555
La5_2 O3_4 1_555 1_555
O4_4 La5_2 1_555 1_555
H5_6 C11_6 1_555 1_555
C12_6 C11_6 1_555 1_555
C13_6 C12_6 1_555 1_555
H6_6 C13_6 1_555 1_555
C15_8 C12_6 1_555 1_555
O11_4 C15_8 1_555 1_555
O12_4 C15_8 1_555 1_555
C16_8 H8_8 1_555 1_555
C17_8 H9_8 1_555 1_555
H10_8 C17_8 1_555 1_555
H11_8 C17_8 1_555 1_555
C18_8 H12_5 1_555 1_555
H13_5 C18_8 1_555 1_555
H14_8 C18_8 1_555 1_555
C19_8 H15_8 1_555 1_555
N1_8 C16_8 1_555 1_555
O7_8 C19_8 1_555 1_555
O8_8 C16_8 1_555 1_555
C17_8 N1_8 1_555 1_555
C18_8 N1_8 1_555 1_555
O7_8 La5_2 1_555 1_555
O8_8 La5_2 1_555 1_555
C1_8 C2_8 1_555 1_555
C2_8 C3_8 1_555 1_555
C3_8 H1_8 1_555 1_555
C4_8 C3_8 1_555 1_555
C5_8 C4_8 1_555 1_555
H2_8 C5_8 1_555 1_555
C6_8 C5_8 1_555 1_555
C7_8 C2_8 1_555 1_555
H3_8 C7_8 1_555 1_555
C8_8 C6_8 1_555 1_555
C9_8 C10_8 1_555 1_555
C10_8 H4_8 1_555 1_555
C14_8 C9_8 1_555 1_555
H7_8 C14_8 1_555 1_555
C22_8 C4_8 1_555 1_555
O1_8 C1_8 1_555 1_555
O10_2 C1_8 1_555 1_555
O14_3 C22_8 1_555 1_555
O15_3 C22_8 1_555 1_555
O9_8 C8_8 1_555 1_555
C6_8 C7_8 1_555 1_555
C9_8 O9_8 1_555 1_555
C8_8 H22_8 1_555 1_555
C8_8 H23_8 1_555 1_555
H5_7 C11_7 1_555 1_555
C12_7 C11_7 1_555 1_555
C13_7 C12_7 1_555 1_555
H6_7 C13_7 1_555 1_555
C20_5 H16_5 1_555 1_555
H17_5 C20_5 1_555 1_555
H18_5 C20_5 1_555 1_555
C21_5 H19_5 1_555 1_555
H20_5 C21_5 1_555 1_555
H21_5 C21_5 1_555 1_555
C20_5 N2_5 1_555 1_555
C21_5 N2_5 1_555 1_555
C20_6 H16_6 1_555 1_555
H17_6 C20_6 1_555 1_555
H18_6 C20_6 1_555 1_555
C21_6 H19_6 1_555 1_555
H20_6 C21_6 1_555 1_555
H21_6 C21_6 1_555 1_555
C20_6 N2_6 1_555 1_555
C21_6 N2_6 1_555 1_555
C20_7 H16_7 1_555 1_555
H17_7 C20_7 1_555 1_555
H18_7 C20_7 1_555 1_555
C21_7 H19_7 1_555 1_555
H20_7 C21_7 1_555 1_555
H21_7 C21_7 1_555 1_555
C20_7 N2_7 1_555 1_555
C21_7 N2_7 1_555 1_555
H5_8 C11_8 1_555 1_555
C12_8 C11_8 1_555 1_555
C13_8 C12_8 1_555 1_555
H6_8 C13_8 1_555 1_555
C20_8 H16_8 1_555 1_555
H17_8 C20_8 1_555 1_555
H18_8 C20_8 1_555 1_555
C21_8 H19_8 1_555 1_555
H20_8 C21_8 1_555 1_555
H21_8 C21_8 1_555 1_555
C20_8 N2_8 1_555 1_555
C21_8 N2_8 1_555 1_555

#END
