
###############################################################################
#
# This file contains modified crystal structure data generated from the
# MOF subset of the Cambridge Structural Database (CSD) v543 
# hosted by the Cambridge Crystallographic Data Centre (CCDC).
#
# This work is licensed under the Creative Commons
# Attribution-NonCommercial-ShareAlike 4.0 International License.
# To view a copy of this license, visit
# http://creativecommons.org/licenses/by-nc-sa/4.0/
# or send a letter to
# Creative Commons, PO Box 1866, Mountain View, CA 94042, USA.
#
# CIF created using the CSD Python API on 29 September 2022
# The structure has been converted into the P1 space group
# The structure has a 3D framework
# The original CSD entry CIJBEF is in the monoclinic crystal system
# The framework has been calculated to contain at least 10.0% void space
# The void calculation uses a probe of radius 1.32A, grid spacing 0.4
#
###############################################################################

data_CIJBEF
_chemical_formula_moiety         '(C176 H184 Eu8 N16 O68)n'
_symmetry_cell_setting           triclinic
_symmetry_space_group_name_H-M   'P 1'
_symmetry_Int_Tables_number      1
_space_group_name_Hall           'P 1'
loop_
_symmetry_equiv_pos_site_id
_symmetry_equiv_pos_as_xyz
1 x,y,z
_cell_length_a                   28.220(5)
_cell_length_b                   14.540(5)
_cell_length_c                   13.394(5)
_cell_angle_alpha                90
_cell_angle_beta                 100.684(5)
_cell_angle_gamma                90
_cell_volume                     5400.54
loop_
_atom_site_label
_atom_site_type_symbol
_atom_site_fract_x
_atom_site_fract_y
_atom_site_fract_z
H15 H 0.347084 0.230222 0.030595
C1 C 0.2766(2) 0.1656(4) 0.3355(5)
C2 C 0.2946(2) 0.1047(4) 0.2590(5)
C3 C 0.2639(2) 0.0418(4) 0.2027(5)
H1 H 0.231577 0.040156 0.208673
C6 C 0.3595(2) 0.0504(4) 0.1804(5)
C7 C 0.3426(2) 0.1084(4) 0.2480(5)
H3 H 0.363483 0.150054 0.286266
C8 C 0.4111(2) 0.0530(4) 0.1658(6)
H4 H 0.432381 0.031364 0.226580
H5 H 0.415256 0.013788 0.109448
C9 C 0.4646(3) 0.1624(5) 0.1131(7)
C10 C 0.4964(2) 0.0953(5) 0.0940(6)
H6 H 0.490456 0.033629 0.105087
C11 C 0.5376(2) 0.1216(5) 0.0580(5)
H7 H 0.559319 0.076682 0.046005
C12 C 0.5470(2) 0.2117(4) 0.0396(6)
C13 C 0.5147(3) 0.2783(5) 0.0591(9)
H8 H 0.520445 0.339850 0.046685
C14 C 0.4742(3) 0.2541(6) 0.0967(10)
H9 H 0.453176 0.299391 0.111145
C15 C 0.5913(2) 0.2385(5) 0.0006(5)
C16 C 0.3361(4) 0.2492(9) 0.7983(8)
H10 H 0.325879 0.309701 0.802115
C17 C 0.3583(8) 0.1066(9) 0.8870(12)
H11 H 0.373233 0.097210 0.828957
H12 H 0.333248 0.061795 0.886601
H13 H 0.381999 0.099996 0.947968
C18 C 0.3236(8) 0.243(2) 0.9704(10)
H14 H 0.321643 0.307645 0.958523
H16 H 0.292735 0.219796 0.979208
C19 C 0.3453(5) 0.4905(6) 0.6561(8)
H17 H 0.316343 0.506861 0.614646
C20 C 0.3499(6) 0.6441(7) 0.7262(10)
H18 H 0.368094 0.686347 0.693091
H19 H 0.353256 0.660292 0.796635
H20 H 0.316488 0.647084 0.694532
C21 C 0.4151(6) 0.5337(15) 0.7793(15)
H21 H 0.411266 0.499532 0.838526
H22 H 0.431927 0.590081 0.799618
H23 H 0.433381 0.497950 0.739463
N1 N 0.3381(4) 0.1965(9) 0.8831(6)
N2 N 0.3671(4) 0.5548(6) 0.7178(8)
O1 O 0.30564(16) 0.2230(3) 0.3834(4)
O2 O 0.23367(16) 0.1538(3) 0.3462(3)
O4 O 0.60476(17) 0.3219(3) 0.0064(4)
O7 O 0.3590(2) 0.4134(4) 0.6479(4)
O8 O 0.3465(2) 0.2245(4) 0.7172(4)
O9 O 0.42207(18) 0.1456(3) 0.1454(5)
Eu1 Eu 0.31922(2) 0.28815(2) 0.54872(2)
O10 O 0.26633(16) 0.3462(3) 0.6538(3)
O11 O 0.38522(16) 0.1776(3) 0.5363(4)
O12 O 0.39524(17) 0.3219(3) 0.4936(4)
O13 O 0.23309(15) 0.3378(3) 0.4478(3)
O14 O 0.26691(15) 0.1622(3) 0.5522(3)
O15 O 0.29611(16) 0.4241(3) 0.4423(4)
Eu5 Eu 0.18078(2) 0.21185(2) 0.45128(2)
O3 O 0.61478(16) 0.1776(3) 0.9637(4)
Eu2 Eu 0.68078(2) 0.28815(2) 0.95128(2)
C4 C 0.2809(2) 0.9809(4) 0.1373(5)
C5 C 0.3284(2) 0.9857(4) 0.1261(5)
H2 H 0.339794 0.945561 0.081903
C22 C 0.2484(2) 0.9101(4) 0.0802(5)
O5 O 0.26691(15) 0.8378(3) 0.0522(3)
O6 O 0.20389(16) 0.9241(3) 0.0577(4)
Eu4 Eu 0.31922(2) 0.71185(2) 0.04872(2)
Eu3 Eu 0.18078(2) 0.78815(2) 0.95128(2)
C1_2 C 0.7234(2) 0.1656(4) 0.1645(5)
C2_2 C 0.7054(2) 0.1047(4) 0.2410(5)
C3_2 C 0.7361(2) 0.0418(4) 0.2973(5)
H1_2 H 0.768423 0.040156 0.291327
C6_2 C 0.6405(2) 0.0504(4) 0.3196(5)
C7_2 C 0.6574(2) 0.1084(4) 0.2520(5)
H3_2 H 0.636517 0.150054 0.213734
C8_2 C 0.5889(2) 0.0530(4) 0.3342(6)
H4_2 H 0.567619 0.031364 0.273420
H5_2 H 0.584744 0.013788 0.390552
C9_2 C 0.5354(3) 0.1624(5) 0.3869(7)
C10_2 C 0.5036(2) 0.0953(5) 0.4060(6)
H6_2 H 0.509544 0.033629 0.394913
C11_2 C 0.4624(2) 0.1216(5) 0.4420(5)
H7_2 H 0.440681 0.076682 0.453995
C12_2 C 0.4530(2) 0.2117(4) 0.4604(6)
C13_2 C 0.4853(3) 0.2783(5) 0.4409(9)
H8_2 H 0.479555 0.339850 0.453315
C14_2 C 0.5258(3) 0.2541(6) 0.4033(10)
H9_2 H 0.546824 0.299391 0.388855
C15_2 C 0.4087(2) 0.2385(5) 0.4994(5)
O1_2 O 0.69436(16) 0.2230(3) 0.1166(4)
O2_2 O 0.76633(16) 0.1538(3) 0.1538(3)
O9_2 O 0.57793(18) 0.1456(3) 0.3546(5)
O13_2 O 0.76691(15) 0.3378(3) 0.0522(3)
O15_2 O 0.70389(16) 0.4241(3) 0.0577(4)
Eu5_2 Eu 0.81922(2) 0.21185(2) 0.04872(2)
C16_2 C 0.6639(4) 0.2492(9) 0.7017(8)
H10_2 H 0.674121 0.309701 0.697885
C17_2 C 0.6417(8) 0.1066(9) 0.6130(12)
H11_2 H 0.626767 0.097210 0.671043
H12_2 H 0.666752 0.061795 0.613399
H13_2 H 0.618001 0.099996 0.552032
C18_2 C 0.6764(8) 0.243(2) 0.5296(10)
H14_2 H 0.678357 0.307645 0.541477
H15_2 H 0.652916 0.230222 0.469405
H16_2 H 0.707265 0.219796 0.520792
C19_2 C 0.6547(5) 0.4905(6) 0.8439(8)
H17_2 H 0.683657 0.506861 0.885354
C20_2 C 0.6501(6) 0.6441(7) 0.7738(10)
H18_2 H 0.631906 0.686347 0.806909
H19_2 H 0.646744 0.660292 0.703365
H20_2 H 0.683512 0.647084 0.805468
C21_2 C 0.5849(6) 0.5337(15) 0.7207(15)
H21_2 H 0.588734 0.499532 0.661474
H22_2 H 0.568073 0.590081 0.700382
H23_2 H 0.566619 0.497950 0.760537
N1_2 N 0.6619(4) 0.1965(9) 0.6169(6)
N2_2 N 0.6329(4) 0.5548(6) 0.7822(8)
O7_2 O 0.6410(2) 0.4134(4) 0.8521(4)
O8_2 O 0.6535(2) 0.2245(4) 0.7828(4)
O10_2 O 0.73367(16) 0.3462(3) 0.8462(3)
O14_2 O 0.73309(15) 0.1622(3) 0.9478(3)
C4_2 C 0.7191(2) 0.9809(4) 0.3627(5)
C5_2 C 0.6716(2) 0.9857(4) 0.3739(5)
H2_2 H 0.660206 0.945561 0.418097
C22_2 C 0.7516(2) 0.9101(4) 0.4198(5)
O5_2 O 0.73309(15) 0.8378(3) 0.4478(3)
O6_2 O 0.79611(16) 0.9241(3) 0.4423(4)
Eu3_2 Eu 0.81922(2) 0.78815(2) 0.54872(2)
Eu4_2 Eu 0.68078(2) 0.71185(2) 0.45128(2)
C11_3 C 0.0376(2) 0.6216(5) 0.0580(5)
H7_3 H 0.059319 0.576682 0.046005
C12_3 C 0.0470(2) 0.7117(4) 0.0396(6)
C13_3 C 0.0147(3) 0.7783(5) 0.0591(9)
H8_3 H 0.020445 0.839850 0.046685
C15_3 C 0.0913(2) 0.7385(5) 0.0006(5)
O4_2 O 0.10476(17) 0.8219(3) 0.0064(4)
O3_2 O 0.11478(16) 0.6776(3) 0.9637(4)
C1_3 C 0.7766(2) 0.6656(4) 0.3355(5)
C2_3 C 0.7946(2) 0.6047(4) 0.2590(5)
C3_3 C 0.7639(2) 0.5418(4) 0.2027(5)
H1_3 H 0.731577 0.540156 0.208673
C4_3 C 0.7809(2) 0.4809(4) 0.1373(5)
C5_3 C 0.8284(2) 0.4857(4) 0.1261(5)
H2_3 H 0.839794 0.445561 0.081903
C6_3 C 0.8595(2) 0.5504(4) 0.1804(5)
C7_3 C 0.8426(2) 0.6084(4) 0.2480(5)
H3_3 H 0.863483 0.650054 0.286266
C8_3 C 0.9111(2) 0.5530(4) 0.1658(6)
H4_3 H 0.932381 0.531364 0.226580
H5_3 H 0.915256 0.513788 0.109448
C9_3 C 0.9646(3) 0.6624(5) 0.1131(7)
C10_3 C 0.9964(2) 0.5953(5) 0.0940(6)
H6_3 H 0.990456 0.533629 0.105087
C14_3 C 0.9742(3) 0.7541(6) 0.0967(10)
H9_3 H 0.953176 0.799391 0.111145
C16_3 C 0.8361(4) 0.7492(9) 0.7983(8)
H10_3 H 0.825879 0.809701 0.802115
C17_3 C 0.8583(8) 0.6066(9) 0.8870(12)
H11_3 H 0.873233 0.597210 0.828957
H12_3 H 0.833248 0.561795 0.886601
H13_3 H 0.881999 0.599996 0.947968
C18_3 C 0.8236(8) 0.743(2) 0.9704(10)
H14_3 H 0.821643 0.807645 0.958523
H16_3 H 0.792735 0.719796 0.979208
C19_3 C 0.8453(5) 0.9905(6) 0.6561(8)
H21_3 H 0.911266 0.999532 0.838526
H23_3 H 0.933381 0.997950 0.739463
C22_3 C 0.7484(2) 0.4101(4) 0.0802(5)
N1_3 N 0.8381(4) 0.6965(9) 0.8831(6)
O1_3 O 0.80564(16) 0.7230(3) 0.3834(4)
O2_3 O 0.73367(16) 0.6538(3) 0.3462(3)
O7_3 O 0.8590(2) 0.9134(4) 0.6479(4)
O8_3 O 0.8465(2) 0.7245(4) 0.7172(4)
O9_3 O 0.92207(18) 0.6456(3) 0.1454(5)
O10_3 O 0.76633(16) 0.8462(3) 0.6538(3)
O11_2 O 0.88522(16) 0.6776(3) 0.5363(4)
O12_2 O 0.89524(17) 0.8219(3) 0.4936(4)
O14_3 O 0.76691(15) 0.6622(3) 0.5522(3)
C1_4 C 0.2234(2) 0.6656(4) 0.1645(5)
C2_4 C 0.2054(2) 0.6047(4) 0.2410(5)
C3_4 C 0.2361(2) 0.5418(4) 0.2973(5)
H1_4 H 0.268423 0.540156 0.291327
C4_4 C 0.2191(2) 0.4809(4) 0.3627(5)
C5_4 C 0.1716(2) 0.4857(4) 0.3739(5)
H2_4 H 0.160206 0.445561 0.418097
C6_4 C 0.1405(2) 0.5504(4) 0.3196(5)
C7_4 C 0.1574(2) 0.6084(4) 0.2520(5)
H3_4 H 0.136517 0.650054 0.213734
C8_4 C 0.0889(2) 0.5530(4) 0.3342(6)
H4_4 H 0.067619 0.531364 0.273420
H5_4 H 0.084744 0.513788 0.390552
C9_4 C 0.0354(3) 0.6624(5) 0.3869(7)
C10_4 C 0.0036(2) 0.5953(5) 0.4060(6)
H6_4 H 0.009544 0.533629 0.394913
C14_4 C 0.0258(3) 0.7541(6) 0.4033(10)
H9_4 H 0.046824 0.799391 0.388855
C22_4 C 0.2516(2) 0.4101(4) 0.4198(5)
O1_4 O 0.19436(16) 0.7230(3) 0.1166(4)
O2_4 O 0.26633(16) 0.6538(3) 0.1538(3)
O9_4 O 0.07793(18) 0.6456(3) 0.3546(5)
C16_4 C 0.1639(4) 0.7492(9) 0.7017(8)
H10_4 H 0.174121 0.809701 0.697885
C17_4 C 0.1417(8) 0.6066(9) 0.6130(12)
H11_4 H 0.126767 0.597210 0.671043
H12_4 H 0.166752 0.561795 0.613399
H13_4 H 0.118001 0.599996 0.552032
C18_4 C 0.1764(8) 0.743(2) 0.5296(10)
H14_4 H 0.178357 0.807645 0.541477
H15_3 H 0.152916 0.730222 0.469405
H16_4 H 0.207265 0.719796 0.520792
C19_4 C 0.1547(5) 0.9905(6) 0.8439(8)
H21_4 H 0.088734 0.999532 0.661474
H23_4 H 0.066619 0.997950 0.760537
N1_4 N 0.1619(4) 0.6965(9) 0.6169(6)
O7_4 O 0.1410(2) 0.9134(4) 0.8521(4)
O8_4 O 0.1535(2) 0.7245(4) 0.7828(4)
O10_4 O 0.23367(16) 0.8462(3) 0.8462(3)
O14_4 O 0.23309(15) 0.6622(3) 0.9478(3)
C11_4 C 0.9624(2) 0.6216(5) 0.4420(5)
H7_4 H 0.940681 0.576682 0.453995
C12_4 C 0.9530(2) 0.7117(4) 0.4604(6)
C13_4 C 0.9853(3) 0.7783(5) 0.4409(9)
H8_4 H 0.979555 0.839850 0.453315
C15_4 C 0.9087(2) 0.7385(5) 0.4994(5)
C4_5 C 0.7191(2) 0.0191(4) 0.8627(5)
C5_5 C 0.6716(2) 0.0143(4) 0.8739(5)
H2_5 H 0.660206 0.054439 0.918097
C22_5 C 0.7516(2) 0.0899(4) 0.9198(5)
O6_3 O 0.79611(16) 0.0759(3) 0.9423(4)
O3_3 O 0.38522(16) 0.8224(3) 0.0363(4)
C1_5 C 0.7234(2) 0.8344(4) 0.6645(5)
C2_5 C 0.7054(2) 0.8953(4) 0.7410(5)
C3_5 C 0.7361(2) 0.9582(4) 0.7973(5)
H1_5 H 0.768423 0.959844 0.791327
C6_5 C 0.6405(2) 0.9496(4) 0.8196(5)
C7_5 C 0.6574(2) 0.8916(4) 0.7520(5)
H3_5 H 0.636517 0.849946 0.713734
C8_5 C 0.5889(2) 0.9470(4) 0.8342(6)
H4_5 H 0.567619 0.968636 0.773420
H5_5 H 0.584744 0.986212 0.890552
C9_5 C 0.5354(3) 0.8376(5) 0.8869(7)
C10_5 C 0.5036(2) 0.9047(5) 0.9060(6)
H6_5 H 0.509544 0.966371 0.894913
C11_5 C 0.4624(2) 0.8784(5) 0.9420(5)
H7_5 H 0.440681 0.923318 0.953995
C12_5 C 0.4530(2) 0.7883(4) 0.9604(6)
C13_5 C 0.4853(3) 0.7217(5) 0.9409(9)
H8_5 H 0.479555 0.660150 0.953315
C14_5 C 0.5258(3) 0.7459(6) 0.9033(10)
H9_5 H 0.546824 0.700609 0.888855
C15_5 C 0.4087(2) 0.7615(5) 0.9994(5)
C16_5 C 0.6639(4) 0.7508(9) 0.2017(8)
H10_5 H 0.674121 0.690299 0.197885
C17_5 C 0.6417(8) 0.8934(9) 0.1130(12)
H11_5 H 0.626767 0.902790 0.171043
H12_5 H 0.666752 0.938205 0.113399
H13_5 H 0.618001 0.900004 0.052032
C18_5 C 0.6764(8) 0.757(2) 0.0296(10)
H14_5 H 0.678357 0.692355 0.041477
H16_5 H 0.707265 0.780204 0.020792
C19_5 C 0.6547(5) 0.5095(6) 0.3439(8)
H17_3 H 0.683657 0.493139 0.385354
C20_3 C 0.6501(6) 0.3559(7) 0.2738(10)
H18_3 H 0.631906 0.313653 0.306909
H19_3 H 0.646744 0.339708 0.203365
H20_3 H 0.683512 0.352916 0.305468
C21_3 C 0.5849(6) 0.4663(15) 0.2207(15)
H21_5 H 0.588734 0.500468 0.161474
H22_3 H 0.568073 0.409919 0.200382
H23_5 H 0.566619 0.502050 0.260537
N1_5 N 0.6619(4) 0.8035(9) 0.1169(6)
N2_3 N 0.6329(4) 0.4452(6) 0.2822(8)
O1_5 O 0.69436(16) 0.7770(3) 0.6166(4)
O4_3 O 0.39524(17) 0.6781(3) 0.9936(4)
O7_5 O 0.6410(2) 0.5866(4) 0.3521(4)
O8_5 O 0.6535(2) 0.7755(4) 0.2828(4)
O9_5 O 0.57793(18) 0.8544(3) 0.8546(5)
O11_3 O 0.61478(16) 0.8224(3) 0.4637(4)
O12_3 O 0.60476(17) 0.6781(3) 0.5064(4)
O15_3 O 0.70389(16) 0.5759(3) 0.5577(4)
C4_6 C 0.2809(2) 0.0191(4) 0.6373(5)
C5_6 C 0.3284(2) 0.0143(4) 0.6261(5)
H2_6 H 0.339794 0.054439 0.581903
C22_6 C 0.2484(2) 0.0899(4) 0.5802(5)
O6_4 O 0.20389(16) 0.0759(3) 0.5577(4)
C16_6 C 0.3361(4) 0.7508(9) 0.2983(8)
H10_6 H 0.325879 0.690299 0.302115
C17_6 C 0.3583(8) 0.8934(9) 0.3870(12)
H11_6 H 0.373233 0.902790 0.328957
H12_6 H 0.333248 0.938205 0.386601
H13_6 H 0.381999 0.900004 0.447968
C18_6 C 0.3236(8) 0.757(2) 0.4704(10)
H14_6 H 0.321643 0.692355 0.458523
H15_4 H 0.347084 0.769778 0.530595
H16_6 H 0.292735 0.780204 0.479208
C19_6 C 0.3453(5) 0.5095(6) 0.1561(8)
H17_4 H 0.316343 0.493139 0.114646
C20_4 C 0.3499(6) 0.3559(7) 0.2262(10)
H18_4 H 0.368094 0.313653 0.193091
H19_4 H 0.353256 0.339708 0.296635
H20_4 H 0.316488 0.352916 0.194532
C21_4 C 0.4151(6) 0.4663(15) 0.2793(15)
H21_6 H 0.411266 0.500468 0.338526
H22_4 H 0.431927 0.409919 0.299618
H23_6 H 0.433381 0.502050 0.239463
N1_6 N 0.3381(4) 0.8035(9) 0.3831(6)
N2_4 N 0.3671(4) 0.4452(6) 0.2178(8)
O7_6 O 0.3590(2) 0.5866(4) 0.1479(4)
O8_6 O 0.3465(2) 0.7755(4) 0.2172(4)
C1_6 C 0.2766(2) 0.8344(4) 0.8355(5)
C2_6 C 0.2946(2) 0.8953(4) 0.7590(5)
C3_6 C 0.2639(2) 0.9582(4) 0.7027(5)
H1_6 H 0.231577 0.959844 0.708673
C6_6 C 0.3595(2) 0.9496(4) 0.6804(5)
C7_6 C 0.3426(2) 0.8916(4) 0.7480(5)
H3_6 H 0.363483 0.849946 0.786266
C8_6 C 0.4111(2) 0.9470(4) 0.6658(6)
H4_6 H 0.432381 0.968636 0.726580
H5_6 H 0.415256 0.986212 0.609448
C9_6 C 0.4646(3) 0.8376(5) 0.6131(7)
C10_6 C 0.4964(2) 0.9047(5) 0.5940(6)
H6_6 H 0.490456 0.966371 0.605087
C11_6 C 0.5376(2) 0.8784(5) 0.5580(5)
H7_6 H 0.559319 0.923318 0.546005
C12_6 C 0.5470(2) 0.7883(4) 0.5396(6)
C13_6 C 0.5147(3) 0.7217(5) 0.5591(9)
H8_6 H 0.520445 0.660150 0.546685
C14_6 C 0.4742(3) 0.7459(6) 0.5967(10)
H9_6 H 0.453176 0.700609 0.611145
C15_6 C 0.5913(2) 0.7615(5) 0.5006(5)
O1_6 O 0.30564(16) 0.7770(3) 0.8834(4)
O9_6 O 0.42207(18) 0.8544(3) 0.6454(5)
O15_4 O 0.29611(16) 0.5759(3) 0.9423(4)
C1_7 C 0.2234(2) 0.3344(4) 0.6645(5)
C2_7 C 0.2054(2) 0.3953(4) 0.7410(5)
C3_7 C 0.2361(2) 0.4582(4) 0.7973(5)
H1_7 H 0.268423 0.459844 0.791327
C4_7 C 0.2191(2) 0.5191(4) 0.8627(5)
C5_7 C 0.1716(2) 0.5143(4) 0.8739(5)
H2_7 H 0.160206 0.554439 0.918097
C6_7 C 0.1405(2) 0.4496(4) 0.8196(5)
C7_7 C 0.1574(2) 0.3916(4) 0.7520(5)
H3_7 H 0.136517 0.349946 0.713734
C8_7 C 0.0889(2) 0.4470(4) 0.8342(6)
H4_7 H 0.067619 0.468636 0.773420
H5_7 H 0.084744 0.486212 0.890552
C9_7 C 0.0354(3) 0.3376(5) 0.8869(7)
C10_7 C 0.0036(2) 0.4047(5) 0.9060(6)
H6_7 H 0.009544 0.466371 0.894913
C14_7 C 0.0258(3) 0.2459(6) 0.9033(10)
H9_7 H 0.046824 0.200609 0.888855
C16_7 C 0.1639(4) 0.2508(9) 0.2017(8)
H10_7 H 0.174121 0.190299 0.197885
C17_7 C 0.1417(8) 0.3934(9) 0.1130(12)
H11_7 H 0.126767 0.402790 0.171043
H12_7 H 0.166752 0.438205 0.113399
H13_7 H 0.118001 0.400004 0.052032
C18_7 C 0.1764(8) 0.257(2) 0.0296(10)
H14_7 H 0.178357 0.192355 0.041477
H16_7 H 0.207265 0.280204 0.020792
C19_7 C 0.1547(5) 0.0095(6) 0.3439(8)
H21_7 H 0.088734 0.000468 0.161474
H23_7 H 0.066619 0.002050 0.260537
C22_7 C 0.2516(2) 0.5899(4) 0.9198(5)
N1_7 N 0.1619(4) 0.3035(9) 0.1169(6)
O1_7 O 0.19436(16) 0.2770(3) 0.6166(4)
O7_7 O 0.1410(2) 0.0866(4) 0.3521(4)
O8_7 O 0.1535(2) 0.2755(4) 0.2828(4)
O9_7 O 0.07793(18) 0.3544(3) 0.8546(5)
O11_4 O 0.11478(16) 0.3224(3) 0.4637(4)
O12_4 O 0.10476(17) 0.1781(3) 0.5064(4)
O3_4 O 0.88522(16) 0.3224(3) 0.0363(4)
C11_7 C 0.9624(2) 0.3784(5) 0.9420(5)
H7_7 H 0.940681 0.423318 0.953995
C12_7 C 0.9530(2) 0.2883(4) 0.9604(6)
C13_7 C 0.9853(3) 0.2217(5) 0.9409(9)
H8_7 H 0.979555 0.160150 0.953315
C15_7 C 0.9087(2) 0.2615(5) 0.9994(5)
O4_4 O 0.89524(17) 0.1781(3) 0.9936(4)
C11_8 C 0.0376(2) 0.3784(5) 0.5580(5)
H7_8 H 0.059319 0.423318 0.546005
C12_8 C 0.0470(2) 0.2883(4) 0.5396(6)
C13_8 C 0.0147(3) 0.2217(5) 0.5591(9)
H8_8 H 0.020445 0.160150 0.546685
C15_8 C 0.0913(2) 0.2615(5) 0.5006(5)
C16_8 C 0.8361(4) 0.2508(9) 0.2983(8)
H10_8 H 0.825879 0.190299 0.302115
C17_8 C 0.8583(8) 0.3934(9) 0.3870(12)
H11_8 H 0.873233 0.402790 0.328957
H12_8 H 0.833248 0.438205 0.386601
H13_8 H 0.881999 0.400004 0.447968
C18_8 C 0.8236(8) 0.257(2) 0.4704(10)
H14_8 H 0.821643 0.192355 0.458523
H15_5 H 0.847084 0.269778 0.530595
H16_8 H 0.792735 0.280204 0.479208
C19_8 C 0.8453(5) 0.0095(6) 0.1561(8)
H21_8 H 0.911266 0.000468 0.338526
H23_8 H 0.933381 0.002050 0.239463
N1_8 N 0.8381(4) 0.3035(9) 0.3831(6)
O7_8 O 0.8590(2) 0.0866(4) 0.1479(4)
O8_8 O 0.8465(2) 0.2755(4) 0.2172(4)
C1_8 C 0.7766(2) 0.3344(4) 0.8355(5)
C2_8 C 0.7946(2) 0.3953(4) 0.7590(5)
C3_8 C 0.7639(2) 0.4582(4) 0.7027(5)
H1_8 H 0.731577 0.459844 0.708673
C4_8 C 0.7809(2) 0.5191(4) 0.6373(5)
C5_8 C 0.8284(2) 0.5143(4) 0.6261(5)
H2_8 H 0.839794 0.554439 0.581903
C6_8 C 0.8595(2) 0.4496(4) 0.6804(5)
C7_8 C 0.8426(2) 0.3916(4) 0.7480(5)
H3_8 H 0.863483 0.349946 0.786266
C8_8 C 0.9111(2) 0.4470(4) 0.6658(6)
H4_8 H 0.932381 0.468636 0.726580
H5_8 H 0.915256 0.486212 0.609448
C9_8 C 0.9646(3) 0.3376(5) 0.6131(7)
C10_8 C 0.9964(2) 0.4047(5) 0.5940(6)
H6_8 H 0.990456 0.466371 0.605087
C14_8 C 0.9742(3) 0.2459(6) 0.5967(10)
H9_8 H 0.953176 0.200609 0.611145
C22_8 C 0.7484(2) 0.5899(4) 0.5802(5)
O1_8 O 0.80564(16) 0.2770(3) 0.8834(4)
O9_8 O 0.92207(18) 0.3544(3) 0.6454(5)
H17_5 H 0.816343 0.006861 0.614646
C20_5 C 0.8499(6) 0.1441(7) 0.7262(10)
H18_5 H 0.868094 0.186347 0.693091
H19_5 H 0.853256 0.160292 0.796635
H20_5 H 0.816488 0.147084 0.694532
C21_5 C 0.9151(6) 0.0337(15) 0.7793(15)
H22_5 H 0.931927 0.090081 0.799618
N2_5 N 0.8671(4) 0.0548(6) 0.7178(8)
H15_6 H 0.847084 0.730222 0.030595
H17_6 H 0.183657 0.006861 0.885354
C20_6 C 0.1501(6) 0.1441(7) 0.7738(10)
H18_6 H 0.131906 0.186347 0.806909
H19_6 H 0.146744 0.160292 0.703365
H20_6 H 0.183512 0.147084 0.805468
C21_6 C 0.0849(6) 0.0337(15) 0.7207(15)
H22_6 H 0.068073 0.090081 0.700382
N2_6 N 0.1329(4) 0.0548(6) 0.7822(8)
H15_7 H 0.652916 0.769778 0.969405
H15_8 H 0.152916 0.269778 0.969405
H17_7 H 0.183657 0.993139 0.385354
C20_7 C 0.1501(6) 0.8559(7) 0.2738(10)
H18_7 H 0.131906 0.813653 0.306909
H19_7 H 0.146744 0.839708 0.203365
H20_7 H 0.183512 0.852916 0.305468
C21_7 C 0.0849(6) 0.9663(15) 0.2207(15)
H22_7 H 0.068073 0.909919 0.200382
N2_7 N 0.1329(4) 0.9452(6) 0.2822(8)
H17_8 H 0.816343 0.993139 0.114646
C20_8 C 0.8499(6) 0.8559(7) 0.2262(10)
H18_8 H 0.868094 0.813653 0.193091
H19_8 H 0.853256 0.839708 0.296635
H20_8 H 0.816488 0.852916 0.194532
C21_8 C 0.9151(6) 0.9663(15) 0.2793(15)
H22_8 H 0.931927 0.909919 0.299618
N2_8 N 0.8671(4) 0.9452(6) 0.2178(8)
loop_
_geom_bond_atom_site_label_1
_geom_bond_atom_site_label_2
_geom_bond_site_symmetry_1
_geom_bond_site_symmetry_2
C1 C2 1_555 1_555
C2 C3 1_555 1_555
C3 H1 1_555 1_555
C7 C2 1_555 1_555
H3 C7 1_555 1_555
C8 C6 1_555 1_555
H4 C8 1_555 1_555
H5 C8 1_555 1_555
C9 C10 1_555 1_555
C10 H6 1_555 1_555
C11 C10 1_555 1_555
H7 C11 1_555 1_555
C12 C11 1_555 1_555
C13 C12 1_555 1_555
H8 C13 1_555 1_555
C14 C9 1_555 1_555
H9 C14 1_555 1_555
C15 C12 1_555 1_555
C16 H10 1_555 1_555
C17 H11 1_555 1_555
H12 C17 1_555 1_555
H13 C17 1_555 1_555
C18 H14 1_555 1_555
H16 C18 1_555 1_555
C19 H17 1_555 1_555
C20 H18 1_555 1_555
H19 C20 1_555 1_555
H20 C20 1_555 1_555
C21 H21 1_555 1_555
H22 C21 1_555 1_555
H23 C21 1_555 1_555
N1 C16 1_555 1_555
N2 C19 1_555 1_555
O1 C1 1_555 1_555
O2 C1 1_555 1_555
O4 C15 1_555 1_555
O7 C19 1_555 1_555
O8 C16 1_555 1_555
O9 C8 1_555 1_555
Eu1 O1 1_555 1_555
O10 Eu1 1_555 1_555
O11 Eu1 1_555 1_555
O12 Eu1 1_555 1_555
O13 Eu1 1_555 1_555
O14 Eu1 1_555 1_555
O15 Eu1 1_555 1_555
Eu5 O2 1_555 1_555
C6 C7 1_555 1_555
C9 O9 1_555 1_555
C13 C14 1_555 1_555
C17 N1 1_555 1_555
C18 N1 1_555 1_555
C20 N2 1_555 1_555
C21 N2 1_555 1_555
O7 Eu1 1_555 1_555
O8 Eu1 1_555 1_555
O13 Eu5 1_555 1_555
O14 Eu5 1_555 1_555
Eu2 O3 1_555 1_555
C5 C4 1_555 1_555
H2 C5 1_555 1_555
C22 C4 1_555 1_555
O5 C22 1_555 1_555
O6 C22 1_555 1_555
Eu4 O5 1_555 1_555
C1_2 C2_2 1_555 1_555
C2_2 C3_2 1_555 1_555
C3_2 H1_2 1_555 1_555
C7_2 C2_2 1_555 1_555
H3_2 C7_2 1_555 1_555
C8_2 C6_2 1_555 1_555
H4_2 C8_2 1_555 1_555
H5_2 C8_2 1_555 1_555
C9_2 C10_2 1_555 1_555
C10_2 H6_2 1_555 1_555
C11_2 C10_2 1_555 1_555
H7_2 C11_2 1_555 1_555
C12_2 C11_2 1_555 1_555
C13_2 C12_2 1_555 1_555
H8_2 C13_2 1_555 1_555
C14_2 C9_2 1_555 1_555
H9_2 C14_2 1_555 1_555
C15_2 C12_2 1_555 1_555
O1_2 C1_2 1_555 1_555
O2_2 C1_2 1_555 1_555
O11 C15_2 1_555 1_555
O12 C15_2 1_555 1_555
O9_2 C8_2 1_555 1_555
Eu5_2 O2_2 1_555 1_555
C6_2 C7_2 1_555 1_555
C9_2 O9_2 1_555 1_555
C13_2 C14_2 1_555 1_555
O13_2 Eu5_2 1_555 1_555
C16_2 H10_2 1_555 1_555
C17_2 H11_2 1_555 1_555
H12_2 C17_2 1_555 1_555
H13_2 C17_2 1_555 1_555
C18_2 H14_2 1_555 1_555
H15_2 C18_2 1_555 1_555
H16_2 C18_2 1_555 1_555
C19_2 H17_2 1_555 1_555
C20_2 H18_2 1_555 1_555
H19_2 C20_2 1_555 1_555
H20_2 C20_2 1_555 1_555
C21_2 H21_2 1_555 1_555
H22_2 C21_2 1_555 1_555
H23_2 C21_2 1_555 1_555
N1_2 C16_2 1_555 1_555
N2_2 C19_2 1_555 1_555
O7_2 C19_2 1_555 1_555
O8_2 C16_2 1_555 1_555
O10_2 Eu2 1_555 1_555
O14_2 Eu2 1_555 1_555
C17_2 N1_2 1_555 1_555
C18_2 N1_2 1_555 1_555
C20_2 N2_2 1_555 1_555
C21_2 N2_2 1_555 1_555
O7_2 Eu2 1_555 1_555
O8_2 Eu2 1_555 1_555
C5_2 C4_2 1_555 1_555
H2_2 C5_2 1_555 1_555
C22_2 C4_2 1_555 1_555
O5_2 C22_2 1_555 1_555
O6_2 C22_2 1_555 1_555
Eu3_2 O5_2 1_555 1_555
Eu4_2 O5_2 1_555 1_555
O6_2 Eu3_2 1_555 1_555
H7_3 C11_3 1_555 1_555
C12_3 C11_3 1_555 1_555
C13_3 C12_3 1_555 1_555
H8_3 C13_3 1_555 1_555
C15_3 C12_3 1_555 1_555
O4_2 C15_3 1_555 1_555
Eu3 O3_2 1_555 1_555
C1_3 C2_3 1_555 1_555
C2_3 C3_3 1_555 1_555
C3_3 H1_3 1_555 1_555
C4_3 C3_3 1_555 1_555
C5_3 C4_3 1_555 1_555
H2_3 C5_3 1_555 1_555
C6_3 C5_3 1_555 1_555
C7_3 C2_3 1_555 1_555
H3_3 C7_3 1_555 1_555
C8_3 C6_3 1_555 1_555
H4_3 C8_3 1_555 1_555
H5_3 C8_3 1_555 1_555
C9_3 C10_3 1_555 1_555
C10_3 H6_3 1_555 1_555
C14_3 C9_3 1_555 1_555
H9_3 C14_3 1_555 1_555
C16_3 H10_3 1_555 1_555
C17_3 H11_3 1_555 1_555
H12_3 C17_3 1_555 1_555
H13_3 C17_3 1_555 1_555
C18_3 H14_3 1_555 1_555
H16_3 C18_3 1_555 1_555
C22_3 C4_3 1_555 1_555
N1_3 C16_3 1_555 1_555
O1_3 C1_3 1_555 1_555
O2_3 C1_3 1_555 1_555
O13_2 C22_3 1_555 1_555
O15_2 C22_3 1_555 1_555
O7_3 C19_3 1_555 1_555
O8_3 C16_3 1_555 1_555
O9_3 C8_3 1_555 1_555
Eu3_2 O1_3 1_555 1_555
O10_3 Eu3_2 1_555 1_555
O11_2 Eu3_2 1_555 1_555
O12_2 Eu3_2 1_555 1_555
O14_3 Eu3_2 1_555 1_555
Eu4_2 O2_3 1_555 1_555
C6_3 C7_3 1_555 1_555
C9_3 O9_3 1_555 1_555
C17_3 N1_3 1_555 1_555
C18_3 N1_3 1_555 1_555
O7_3 Eu3_2 1_555 1_555
O8_3 Eu3_2 1_555 1_555
O14_3 Eu4_2 1_555 1_555
C1_4 C2_4 1_555 1_555
C2_4 C3_4 1_555 1_555
C3_4 H1_4 1_555 1_555
C4_4 C3_4 1_555 1_555
C5_4 C4_4 1_555 1_555
H2_4 C5_4 1_555 1_555
C6_4 C5_4 1_555 1_555
C7_4 C2_4 1_555 1_555
H3_4 C7_4 1_555 1_555
C8_4 C6_4 1_555 1_555
H4_4 C8_4 1_555 1_555
H5_4 C8_4 1_555 1_555
C9_4 C10_4 1_555 1_555
C10_4 H6_4 1_555 1_555
C14_4 C9_4 1_555 1_555
H9_4 C14_4 1_555 1_555
C22_4 C4_4 1_555 1_555
O1_4 C1_4 1_555 1_555
O2_4 C1_4 1_555 1_555
O13 C22_4 1_555 1_555
O15 C22_4 1_555 1_555
O9_4 C8_4 1_555 1_555
Eu4 O2_4 1_555 1_555
C6_4 C7_4 1_555 1_555
C9_4 O9_4 1_555 1_555
C16_4 H10_4 1_555 1_555
C17_4 H11_4 1_555 1_555
H12_4 C17_4 1_555 1_555
H13_4 C17_4 1_555 1_555
C18_4 H14_4 1_555 1_555
H15_3 C18_4 1_555 1_555
H16_4 C18_4 1_555 1_555
N1_4 C16_4 1_555 1_555
O7_4 C19_4 1_555 1_555
O8_4 C16_4 1_555 1_555
O10_4 Eu3 1_555 1_555
O14_4 Eu3 1_555 1_555
C17_4 N1_4 1_555 1_555
C18_4 N1_4 1_555 1_555
O7_4 Eu3 1_555 1_555
O8_4 Eu3 1_555 1_555
H7_4 C11_4 1_555 1_555
C12_4 C11_4 1_555 1_555
C13_4 C12_4 1_555 1_555
H8_4 C13_4 1_555 1_555
C15_4 C12_4 1_555 1_555
O11_2 C15_4 1_555 1_555
O12_2 C15_4 1_555 1_555
C5_5 C4_5 1_555 1_555
H2_5 C5_5 1_555 1_555
C22_5 C4_5 1_555 1_555
O14_2 C22_5 1_555 1_555
O6_3 C22_5 1_555 1_555
Eu4 O3_3 1_555 1_555
C1_5 C2_5 1_555 1_555
C2_5 C3_5 1_555 1_555
C3_5 H1_5 1_555 1_555
C7_5 C2_5 1_555 1_555
H3_5 C7_5 1_555 1_555
C8_5 C6_5 1_555 1_555
H4_5 C8_5 1_555 1_555
H5_5 C8_5 1_555 1_555
C9_5 C10_5 1_555 1_555
C10_5 H6_5 1_555 1_555
C11_5 C10_5 1_555 1_555
H7_5 C11_5 1_555 1_555
C12_5 C11_5 1_555 1_555
C13_5 C12_5 1_555 1_555
H8_5 C13_5 1_555 1_555
C14_5 C9_5 1_555 1_555
H9_5 C14_5 1_555 1_555
C15_5 C12_5 1_555 1_555
C16_5 H10_5 1_555 1_555
C17_5 H11_5 1_555 1_555
H12_5 C17_5 1_555 1_555
H13_5 C17_5 1_555 1_555
C18_5 H14_5 1_555 1_555
H16_5 C18_5 1_555 1_555
C19_5 H17_3 1_555 1_555
C20_3 H18_3 1_555 1_555
H19_3 C20_3 1_555 1_555
H20_3 C20_3 1_555 1_555
C21_3 H21_5 1_555 1_555
H22_3 C21_3 1_555 1_555
H23_5 C21_3 1_555 1_555
N1_5 C16_5 1_555 1_555
N2_3 C19_5 1_555 1_555
O1_5 C1_5 1_555 1_555
O10_3 C1_5 1_555 1_555
O4_3 C15_5 1_555 1_555
O7_5 C19_5 1_555 1_555
O8_5 C16_5 1_555 1_555
O9_5 C8_5 1_555 1_555
Eu4_2 O1_5 1_555 1_555
O11_3 Eu4_2 1_555 1_555
O12_3 Eu4_2 1_555 1_555
O15_3 Eu4_2 1_555 1_555
C6_5 C7_5 1_555 1_555
C9_5 O9_5 1_555 1_555
C13_5 C14_5 1_555 1_555
C17_5 N1_5 1_555 1_555
C18_5 N1_5 1_555 1_555
C20_3 N2_3 1_555 1_555
C21_3 N2_3 1_555 1_555
O7_5 Eu4_2 1_555 1_555
O8_5 Eu4_2 1_555 1_555
C5_6 C4_6 1_555 1_555
H2_6 C5_6 1_555 1_555
C22_6 C4_6 1_555 1_555
O14 C22_6 1_555 1_555
O6_4 C22_6 1_555 1_555
O6_4 Eu5 1_555 1_555
C16_6 H10_6 1_555 1_555
C17_6 H11_6 1_555 1_555
H12_6 C17_6 1_555 1_555
H13_6 C17_6 1_555 1_555
C18_6 H14_6 1_555 1_555
H15_4 C18_6 1_555 1_555
H16_6 C18_6 1_555 1_555
C19_6 H17_4 1_555 1_555
C20_4 H18_4 1_555 1_555
H19_4 C20_4 1_555 1_555
H20_4 C20_4 1_555 1_555
C21_4 H21_6 1_555 1_555
H22_4 C21_4 1_555 1_555
H23_6 C21_4 1_555 1_555
N1_6 C16_6 1_555 1_555
N2_4 C19_6 1_555 1_555
O7_6 C19_6 1_555 1_555
O8_6 C16_6 1_555 1_555
C17_6 N1_6 1_555 1_555
C18_6 N1_6 1_555 1_555
C20_4 N2_4 1_555 1_555
C21_4 N2_4 1_555 1_555
O7_6 Eu4 1_555 1_555
O8_6 Eu4 1_555 1_555
C1_6 C2_6 1_555 1_555
C2_6 C3_6 1_555 1_555
C3_6 H1_6 1_555 1_555
C7_6 C2_6 1_555 1_555
H3_6 C7_6 1_555 1_555
C8_6 C6_6 1_555 1_555
H4_6 C8_6 1_555 1_555
H5_6 C8_6 1_555 1_555
C9_6 C10_6 1_555 1_555
C10_6 H6_6 1_555 1_555
C11_6 C10_6 1_555 1_555
H7_6 C11_6 1_555 1_555
C12_6 C11_6 1_555 1_555
C13_6 C12_6 1_555 1_555
H8_6 C13_6 1_555 1_555
C14_6 C9_6 1_555 1_555
H9_6 C14_6 1_555 1_555
C15_6 C12_6 1_555 1_555
O1_6 C1_6 1_555 1_555
O10_4 C1_6 1_555 1_555
O11_3 C15_6 1_555 1_555
O12_3 C15_6 1_555 1_555
O9_6 C8_6 1_555 1_555
C6_6 C7_6 1_555 1_555
C9_6 O9_6 1_555 1_555
C13_6 C14_6 1_555 1_555
C1_7 C2_7 1_555 1_555
C2_7 C3_7 1_555 1_555
C3_7 H1_7 1_555 1_555
C4_7 C3_7 1_555 1_555
C5_7 C4_7 1_555 1_555
H2_7 C5_7 1_555 1_555
C6_7 C5_7 1_555 1_555
C7_7 C2_7 1_555 1_555
H3_7 C7_7 1_555 1_555
C8_7 C6_7 1_555 1_555
H4_7 C8_7 1_555 1_555
H5_7 C8_7 1_555 1_555
C9_7 C10_7 1_555 1_555
C10_7 H6_7 1_555 1_555
C14_7 C9_7 1_555 1_555
H9_7 C14_7 1_555 1_555
C16_7 H10_7 1_555 1_555
C17_7 H11_7 1_555 1_555
H12_7 C17_7 1_555 1_555
H13_7 C17_7 1_555 1_555
C18_7 H14_7 1_555 1_555
H16_7 C18_7 1_555 1_555
C22_7 C4_7 1_555 1_555
N1_7 C16_7 1_555 1_555
O1_7 C1_7 1_555 1_555
O10 C1_7 1_555 1_555
O14_4 C22_7 1_555 1_555
O15_4 C22_7 1_555 1_555
O7_7 C19_7 1_555 1_555
O8_7 C16_7 1_555 1_555
O9_7 C8_7 1_555 1_555
Eu5 O1_7 1_555 1_555
O11_4 Eu5 1_555 1_555
O12_4 Eu5 1_555 1_555
C6_7 C7_7 1_555 1_555
C9_7 O9_7 1_555 1_555
C17_7 N1_7 1_555 1_555
C18_7 N1_7 1_555 1_555
O7_7 Eu5 1_555 1_555
O8_7 Eu5 1_555 1_555
Eu5_2 O3_4 1_555 1_555
H7_7 C11_7 1_555 1_555
C12_7 C11_7 1_555 1_555
C13_7 C12_7 1_555 1_555
H8_7 C13_7 1_555 1_555
C15_7 C12_7 1_555 1_555
O4_4 C15_7 1_555 1_555
H7_8 C11_8 1_555 1_555
C12_8 C11_8 1_555 1_555
C13_8 C12_8 1_555 1_555
H8_8 C13_8 1_555 1_555
C15_8 C12_8 1_555 1_555
O11_4 C15_8 1_555 1_555
O12_4 C15_8 1_555 1_555
C16_8 H10_8 1_555 1_555
C17_8 H11_8 1_555 1_555
H12_8 C17_8 1_555 1_555
H13_8 C17_8 1_555 1_555
C18_8 H14_8 1_555 1_555
H15_5 C18_8 1_555 1_555
H16_8 C18_8 1_555 1_555
N1_8 C16_8 1_555 1_555
O7_8 C19_8 1_555 1_555
O8_8 C16_8 1_555 1_555
C17_8 N1_8 1_555 1_555
C18_8 N1_8 1_555 1_555
O7_8 Eu5_2 1_555 1_555
O8_8 Eu5_2 1_555 1_555
C1_8 C2_8 1_555 1_555
C2_8 C3_8 1_555 1_555
C3_8 H1_8 1_555 1_555
C4_8 C3_8 1_555 1_555
C5_8 C4_8 1_555 1_555
H2_8 C5_8 1_555 1_555
C6_8 C5_8 1_555 1_555
C7_8 C2_8 1_555 1_555
H3_8 C7_8 1_555 1_555
C8_8 C6_8 1_555 1_555
H4_8 C8_8 1_555 1_555
H5_8 C8_8 1_555 1_555
C9_8 C10_8 1_555 1_555
C10_8 H6_8 1_555 1_555
C14_8 C9_8 1_555 1_555
H9_8 C14_8 1_555 1_555
C22_8 C4_8 1_555 1_555
O1_8 C1_8 1_555 1_555
O10_2 C1_8 1_555 1_555
O14_3 C22_8 1_555 1_555
O15_3 C22_8 1_555 1_555
O9_8 C8_8 1_555 1_555
C6_8 C7_8 1_555 1_555
C9_8 O9_8 1_555 1_555
C20_5 H18_5 1_555 1_555
H19_5 C20_5 1_555 1_555
H20_5 C20_5 1_555 1_555
H22_5 C21_5 1_555 1_555
C20_5 N2_5 1_555 1_555
C21_5 N2_5 1_555 1_555
C20_6 H18_6 1_555 1_555
H19_6 C20_6 1_555 1_555
H20_6 C20_6 1_555 1_555
H22_6 C21_6 1_555 1_555
C20_6 N2_6 1_555 1_555
C21_6 N2_6 1_555 1_555
C20_7 H18_7 1_555 1_555
H19_7 C20_7 1_555 1_555
H20_7 C20_7 1_555 1_555
H22_7 C21_7 1_555 1_555
C20_7 N2_7 1_555 1_555
C21_7 N2_7 1_555 1_555
C20_8 H18_8 1_555 1_555
H19_8 C20_8 1_555 1_555
H20_8 C20_8 1_555 1_555
H22_8 C21_8 1_555 1_555
C20_8 N2_8 1_555 1_555
C21_8 N2_8 1_555 1_555

#END
