
###############################################################################
#
# This file contains modified crystal structure data generated from the
# MOF subset of the Cambridge Structural Database (CSD) v543 
# hosted by the Cambridge Crystallographic Data Centre (CCDC).
#
# This work is licensed under the Creative Commons
# Attribution-NonCommercial-ShareAlike 4.0 International License.
# To view a copy of this license, visit
# http://creativecommons.org/licenses/by-nc-sa/4.0/
# or send a letter to
# Creative Commons, PO Box 1866, Mountain View, CA 94042, USA.
#
# CIF created using the CSD Python API on 29 September 2022
# The structure has been converted into the P1 space group
# The structure has a 3D framework
# The original CSD entry CIJBEE is in the orthorhombic crystal system
# The original CSD entry CIJBEE is in a Sohncke space group
# The framework has been calculated to contain at least 10.0% void space
# The void calculation uses a probe of radius 1.32A, grid spacing 0.4
#
###############################################################################

data_CIJBEE
_chemical_formula_moiety         '(C120 H96 Co24 N16 O85)n'
_symmetry_cell_setting           triclinic
_symmetry_space_group_name_H-M   'P 1'
_symmetry_Int_Tables_number      1
_space_group_name_Hall           'P 1'
loop_
_symmetry_equiv_pos_site_id
_symmetry_equiv_pos_as_xyz
1 x,y,z
_cell_length_a                   15.0911(14)
_cell_length_b                   16.7006(16)
_cell_length_c                   24.236(2)
_cell_angle_alpha                90
_cell_angle_beta                 90
_cell_angle_gamma                90
_cell_volume                     6108.21
loop_
_atom_site_label
_atom_site_type_symbol
_atom_site_fract_x
_atom_site_fract_y
_atom_site_fract_z
Co14 Co 0.20021(4) 0.00327(4) 0.82927(2)
C7 C 0.2108(4) 0.5069(3) 0.0019(2)
H5 H 0.2600 0.5402 0.0045
C8 C 0.1521(3) 0.5061(3) 0.0454(2)
H6 H 0.1611 0.5395 0.0756
C9 C 0.0811(3) 0.4563(3) 0.0439(2)
C12 C 0.0157(3) 0.4511(3) 0.0908(2)
C29 C 0.0462(3) 0.6332(3) 0.2099(2)
H21 H 0.0342 0.6424 0.1728
Co2 Co 0.16536(4) 0.67268(3) 0.30570(3)
O2 O 0.12537(17) 0.55606(15) 0.32251(12)
H24 H 0.1495 0.5228 0.2928
O5 O 0.0060(2) 0.50988(18) 0.12103(13)
O16 O 0.0597(2) 0.74033(17) 0.33679(13)
O19 O 0.1085(2) 0.67141(18) 0.22945(13)
O21 O 0.0037(3) 0.42418(19) 0.29357(14)
Co9 Co 0.20651(4) 0.53711(4) 0.39071(2)
Co16 Co 0.12495(4) 0.84796(4) 0.35478(3)
O27 O 0.2086(2) 0.66727(16) 0.38846(12)
O28 O 0.2141(2) 0.79263(17) 0.30104(12)
O33 O 0.2854(2) 0.63357(18) 0.27427(13)
C1 C 0.3642(3) 0.6317(3) 0.8821(2)
H1 H 0.4172 0.6043 0.8871
C2 C 0.3667(3) 0.7142(3) 0.8718(2)
H2 H 0.4208 0.7404 0.8682
C3 C 0.2886(3) 0.7561(3) 0.86725(19)
C4 C 0.2098(4) 0.7138(3) 0.8724(2)
H3 H 0.1558 0.7404 0.8702
C5 C 0.2120(3) 0.6334(3) 0.8806(2)
H4 H 0.1585 0.6061 0.8834
C6 C 0.2929(3) 0.8445(3) 0.85555(18)
C10 C 0.0703(3) 0.4099(3) 0.9982(2)
H7 H 0.0231 0.3743 0.9959
C11 C 0.1298(3) 0.4161(3) 0.9552(2)
H8 H 0.1198 0.3861 0.9235
Co1 Co 0.29349(4) 0.46289(4) 0.89071(2)
N1 N 0.2880(3) 0.5908(2) 0.88494(16)
N2 N 0.2017(3) 0.4638(2) 0.95726(15)
O3 O 0.3678(2) 0.87332(18) 0.85088(14)
O4 O 0.2197(2) 0.88141(17) 0.85061(13)
Co15 Co 0.40663(4) 0.97927(3) 0.81807(3)
O23 O 0.37463(17) 0.44394(15) 0.82251(12)
O26 O 0.2914(2) 0.33273(16) 0.88846(12)
O30 O 0.3948(2) 0.4578(2) 0.94777(12)
O32 O 0.18328(19) 0.46095(18) 0.83762(12)
C13 C 0.7966(4) 0.2173(3) 0.0726(2)
H9 H 0.7821 0.1991 0.0374
C14 C 0.7100(4) 0.3150(3) 0.2112(2)
H10 H 0.6763 0.2789 0.2316
C15 C 0.5498(4) 0.4454(4) 0.0918(2)
H11 H 0.5298 0.4169 0.1223
C16 C 0.4994(4) 0.4413(4) 0.0437(2)
H12 H 0.4467 0.4124 0.0435
C18 C 0.6032(4) 0.5209(4) 0.0018(2)
C19 C 0.6482(4) 0.5225(4) 0.0520(2)
H14 H 0.7007 0.5516 0.0538
C21 C 0.5336(3) 0.5935(3) 0.2026(2)
H15 H 0.5554 0.6281 0.1758
C22 C 0.4514(3) 0.6103(3) 0.2256(2)
H16 H 0.4171 0.6520 0.2118
C23 C 0.4215(3) 0.5652(3) 0.2686(2)
C24 C 0.4738(3) 0.5034(3) 0.2862(2)
H17 H 0.4566 0.4725 0.3163
C25 C 0.5538(3) 0.4867(3) 0.2585(2)
H18 H 0.5873 0.4432 0.2703
C26 C 0.7918(3) 0.5162(3) 0.2869(2)
H19 H 0.7359 0.5081 0.3020
C27 C 0.9836(3) 0.7194(3) 0.3534(2)
H20 H 0.9500 0.7585 0.3709
C28 C 0.3335(3) 0.5799(3) 0.2965(2)
C30 C 0.9737(3) 0.3839(3) 0.2550(2)
H22 H 0.9782 0.3286 0.2589
Co3 Co 0.98946(4) 0.54278(4) 0.31912(3)
Co4 Co 0.70021(4) 0.49673(4) 0.17073(2)
Co5 Co 0.90663(4) 0.52073(3) 0.18193(3)
Co6 Co 0.87505(4) 0.34796(4) 0.14522(3)
N3 N 0.6215(2) 0.4854(2) 0.09704(16)
N4 N 0.5836(2) 0.5295(2) 0.21678(15)
O1 O 0.81459(16) 0.45749(16) 0.13435(11)
H23 H 0.8173 0.4742 0.0956
O6 O 0.9752(2) 0.38441(19) 0.09366(13)
O7 O 0.8196(2) 0.28986(18) 0.07693(13)
O8 O 0.7914(2) 0.16727(16) 0.11154(12)
O9 O 0.7859(2) 0.29263(17) 0.19896(12)
O10 O 0.6733(2) 0.37946(19) 0.19963(15)
O13 O 0.79503(19) 0.52065(19) 0.23572(12)
O14 O 0.8523(2) 0.5212(2) 0.31925(13)
O15 O 0.9496(2) 0.6536(2) 0.34908(14)
O17 O 0.31672(19) 0.53905(18) 0.33762(12)
O20 O 0.9954(2) 0.58180(18) 0.23417(12)
O22 O 0.9384(2) 0.40806(18) 0.21183(13)
Co10 Co 0.79349(4) 0.03711(4) 0.10929(2)
Co12 Co 0.83464(4) 0.17268(3) 0.19430(3)
O24 O 0.8678(2) 0.62668(18) 0.14912(14)
O25 O 0.7197(2) 0.61859(17) 0.14939(13)
O29 O 0.98122(19) 0.5060(2) 0.40197(12)
O31 O 0.9403(2) 0.24033(17) 0.16321(13)
C17 C 0.5259(4) 0.4780(5) 0.9984(2)
H13 H 0.6250 0.5482 0.9713
C20 C 0.4759(3) 0.4762(3) 0.94450(19)
O11 O 0.51878(19) 0.4940(2) 0.90197(12)
Co13 Co 0.51054(4) 0.45722(4) 0.81912(3)
C16_2 C 0.0006(4) 0.5587(4) 0.5437(2)
H12_2 H 0.0533 0.5876 0.5435
C20_2 C 0.0241(3) 0.5238(3) 0.44450(19)
C22_2 C 0.0486(3) 0.3897(3) 0.7256(2)
H16_2 H 0.0829 0.3480 0.7118
C23_2 C 0.0785(3) 0.4348(3) 0.7686(2)
C24_2 C 0.0262(3) 0.4966(3) 0.7862(2)
H17_2 H 0.0434 0.5275 0.8163
C28_2 C 0.1665(3) 0.4201(3) 0.7965(2)
O12 O 0.1052(2) 0.5422(2) 0.44777(12)
O18 O 0.2146(2) 0.36643(18) 0.77427(13)
Co11 Co 0.33464(4) 0.32732(3) 0.80570(3)
C1_2 C 0.1358(3) 0.3683(3) 0.3821(2)
H1_2 H 0.0828 0.3957 0.3871
C2_2 C 0.1333(3) 0.2858(3) 0.3718(2)
H2_2 H 0.0792 0.2596 0.3682
C3_2 C 0.2114(3) 0.2439(3) 0.36725(19)
C4_2 C 0.2902(4) 0.2862(3) 0.3724(2)
H3_2 H 0.3442 0.2596 0.3702
C5_2 C 0.2880(3) 0.3666(3) 0.3806(2)
H4_2 H 0.3415 0.3939 0.3834
C6_2 C 0.2071(3) 0.1555(3) 0.35555(18)
C7_2 C 0.2892(4) 0.4931(3) 0.5019(2)
H5_2 H 0.2400 0.4598 0.5045
C8_2 C 0.3479(3) 0.4939(3) 0.5454(2)
H6_2 H 0.3389 0.4605 0.5756
C9_2 C 0.4189(3) 0.5437(3) 0.5439(2)
C10_2 C 0.4297(3) 0.5901(3) 0.4982(2)
H7_2 H 0.4769 0.6257 0.4959
C11_2 C 0.3702(3) 0.5839(3) 0.4552(2)
H8_2 H 0.3802 0.6139 0.4235
C12_2 C 0.4843(3) 0.5489(3) 0.5908(2)
C13_2 C 0.7034(4) 0.7827(3) 0.5726(2)
H9_2 H 0.7179 0.8009 0.5374
C14_2 C 0.7900(4) 0.6850(3) 0.7112(2)
H10_2 H 0.8237 0.7211 0.7316
C15_2 C 0.9502(4) 0.5546(4) 0.5918(2)
H11_2 H 0.9702 0.5831 0.6223
C17_2 C 0.9741(4) 0.5220(5) 0.4984(2)
C18_2 C 0.8968(4) 0.4791(4) 0.5018(2)
H13_2 H 0.8750 0.4518 0.4713
C19_2 C 0.8518(4) 0.4775(4) 0.5520(2)
H14_2 H 0.7993 0.4484 0.5538
C21_2 C 0.9664(3) 0.4065(3) 0.7026(2)
H15_2 H 0.9446 0.3719 0.6758
C25_2 C 0.9462(3) 0.5133(3) 0.7585(2)
H18_2 H 0.9127 0.5568 0.7703
C26_2 C 0.7082(3) 0.4838(3) 0.7869(2)
H19_2 H 0.7641 0.4919 0.8020
C27_2 C 0.5164(3) 0.2806(3) 0.8534(2)
H20_2 H 0.5500 0.2415 0.8709
C29_2 C 0.4538(3) 0.3668(3) 0.7099(2)
H21_2 H 0.4658 0.3576 0.6728
C30_2 C 0.5263(3) 0.6161(3) 0.7550(2)
H22_2 H 0.5218 0.6714 0.7589
Co4_2 Co 0.79979(4) 0.50327(4) 0.67073(2)
Co5_2 Co 0.59337(4) 0.47927(3) 0.68193(3)
Co6_2 Co 0.62495(4) 0.65204(4) 0.64522(3)
N1_2 N 0.2120(3) 0.4092(2) 0.38494(16)
N2_2 N 0.2983(3) 0.5362(2) 0.45726(15)
N3_2 N 0.8785(2) 0.5146(2) 0.59704(16)
N4_2 N 0.9164(2) 0.4705(2) 0.71678(15)
O1_2 O 0.68541(16) 0.54251(16) 0.63435(11)
H23_2 H 0.6827 0.5258 0.5956
H24_2 H 0.3505 0.4772 0.7928
O3_2 O 0.1322(2) 0.12668(18) 0.35088(14)
O4_2 O 0.2803(2) 0.11859(17) 0.35061(13)
O5_2 O 0.4940(2) 0.49012(18) 0.62103(13)
O6_2 O 0.5248(2) 0.61559(19) 0.59366(13)
O7_2 O 0.6804(2) 0.71014(18) 0.57693(13)
O8_2 O 0.7086(2) 0.83273(16) 0.61154(12)
O9_2 O 0.7141(2) 0.70737(17) 0.69896(12)
O10_2 O 0.8267(2) 0.62054(19) 0.69963(15)
O13_2 O 0.70497(19) 0.47935(19) 0.73572(12)
O14_2 O 0.6477(2) 0.4788(2) 0.81925(13)
O15_2 O 0.5504(2) 0.3464(2) 0.84908(14)
O16_2 O 0.4403(2) 0.25967(17) 0.83679(13)
O19_2 O 0.3915(2) 0.32859(18) 0.72945(13)
O20_2 O 0.5046(2) 0.41820(18) 0.73417(12)
O21_2 O 0.4963(3) 0.57582(19) 0.79357(14)
O22_2 O 0.5616(2) 0.59194(18) 0.71183(13)
Co10_2 Co 0.70651(4) 0.96289(4) 0.60929(2)
Co12_2 Co 0.66536(4) 0.82732(3) 0.69430(3)
Co15_2 Co 0.09337(4) 0.02073(3) 0.31807(3)
Co16_2 Co 0.37505(4) 0.15204(4) 0.85478(3)
O24_2 O 0.6322(2) 0.37332(18) 0.64912(14)
O25_2 O 0.7803(2) 0.38141(17) 0.64939(13)
O28_2 O 0.2859(2) 0.20737(17) 0.80104(12)
O31_2 O 0.5597(2) 0.75967(17) 0.66321(13)
Co14_2 Co 0.29979(4) 0.99673(4) 0.32927(2)
C10_3 C 0.5703(3) 0.0901(3) 0.0018(2)
H7_3 H 0.5231 0.1257 0.0041
C11_3 C 0.6298(3) 0.0839(3) 0.0448(2)
H8_3 H 0.6198 0.1139 0.0765
C17_3 C 0.0259(4) 0.0220(5) 0.0016(2)
N2_3 N 0.7017(3) 0.0362(2) 0.04274(15)
O11_2 O 0.01878(19) 0.0060(2) 0.09803(12)
Co13_2 Co 0.01054(4) 0.04278(4) 0.18088(3)
O23_2 O 0.87463(17) 0.05606(15) 0.17749(12)
O30_2 O 0.8948(2) 0.0422(2) 0.05223(12)
O32_2 O 0.68328(19) 0.03905(18) 0.16238(12)
C9_3 C 0.5811(3) 0.0437(3) 0.9561(2)
C12_3 C 0.5157(3) 0.0489(3) 0.9092(2)
C13_3 C 0.2966(4) 0.2827(3) 0.9274(2)
H9_3 H 0.2821 0.3009 0.9626
C14_3 C 0.2100(4) 0.1850(3) 0.7888(2)
H10_3 H 0.1763 0.2211 0.7684
C15_3 C 0.0498(4) 0.0546(4) 0.9082(2)
H11_3 H 0.0298 0.0831 0.8777
C25_3 C 0.0538(3) 0.0133(3) 0.7415(2)
H18_3 H 0.0873 0.0568 0.7297
C30_3 C 0.4737(3) 0.1161(3) 0.7450(2)
H22_3 H 0.4782 0.1714 0.7411
N3_3 N 0.1215(2) 0.0146(2) 0.90296(16)
O1_3 O 0.31459(16) 0.04251(16) 0.86565(11)
H23_3 H 0.3173 0.0258 0.9044
O6_3 O 0.4752(2) 0.11559(19) 0.90634(13)
O7_3 O 0.3196(2) 0.21014(18) 0.92307(13)
O10_3 O 0.1733(2) 0.12054(19) 0.80037(15)
O21_3 O 0.5037(3) 0.07582(19) 0.70643(14)
O22_3 O 0.4384(2) 0.09194(18) 0.78817(13)
C1_3 C 0.8642(3) 0.8683(3) 0.1179(2)
H1_3 H 0.9172 0.8957 0.1129
C2_3 C 0.8667(3) 0.7858(3) 0.1282(2)
H2_3 H 0.9208 0.7596 0.1318
C3_3 C 0.7886(3) 0.7439(3) 0.13275(19)
C4_3 C 0.7098(4) 0.7862(3) 0.1276(2)
H3_3 H 0.6558 0.7596 0.1298
C5_3 C 0.7120(3) 0.8666(3) 0.1194(2)
H4_3 H 0.6585 0.8939 0.1166
C6_3 C 0.7929(3) 0.6555(3) 0.14445(18)
H13_3 H 0.1250 0.9518 0.0287
N1_3 N 0.7880(3) 0.9092(2) 0.11506(16)
C7_3 C 0.7108(4) 0.9931(3) 0.9981(2)
H5_3 H 0.7600 0.9598 0.9955
C8_3 C 0.6521(3) 0.9939(3) 0.9546(2)
H6_3 H 0.6611 0.9605 0.9244
C18_3 C 0.1032(4) 0.9791(4) 0.9982(2)
C19_3 C 0.1482(4) 0.9775(4) 0.9480(2)
H14_3 H 0.2007 0.9484 0.9462
C21_3 C 0.0336(3) 0.9065(3) 0.7974(2)
H15_3 H 0.0554 0.8719 0.8242
C26_3 C 0.2918(3) 0.9838(3) 0.7131(2)
H19_3 H 0.2359 0.9919 0.6980
C27_3 C 0.4836(3) 0.7806(3) 0.6466(2)
H20_3 H 0.4500 0.7415 0.6291
C29_3 C 0.5462(3) 0.8668(3) 0.7901(2)
H21_3 H 0.5342 0.8576 0.8272
Co3_2 Co 0.48946(4) 0.95722(4) 0.68088(3)
N4_3 N 0.0836(2) 0.9705(2) 0.78322(15)
O2_2 O 0.62537(17) 0.94394(15) 0.67749(12)
H24_3 H 0.6495 0.9772 0.7072
O5_3 O 0.5060(2) 0.99012(18) 0.87897(13)
O13_3 O 0.29503(19) 0.97935(19) 0.76428(12)
O14_3 O 0.3523(2) 0.9788(2) 0.68075(13)
O15_3 O 0.4496(2) 0.8464(2) 0.65092(14)
O19_3 O 0.6085(2) 0.82859(18) 0.77055(13)
O20_3 O 0.4954(2) 0.91820(18) 0.76583(12)
O29_2 O 0.48122(19) 0.9940(2) 0.59803(12)
O33_2 O 0.7854(2) 0.86643(18) 0.72573(13)
C20_3 C 0.9759(3) 0.0238(3) 0.05550(19)
C22_3 C 0.9514(3) 0.8897(3) 0.7744(2)
H16_3 H 0.9171 0.8480 0.7882
C23_3 C 0.9215(3) 0.9348(3) 0.7314(2)
C24_3 C 0.9738(3) 0.9966(3) 0.7138(2)
C28_3 C 0.8335(3) 0.9201(3) 0.7035(2)
O17_2 O 0.81672(19) 0.96095(18) 0.66238(12)
C18_4 C 0.3968(4) 0.0209(4) 0.4982(2)
H13_4 H 0.3750 0.0482 0.5287
C19_4 C 0.3518(4) 0.0225(4) 0.4480(2)
H14_4 H 0.2993 0.0516 0.4462
C21_4 C 0.4664(3) 0.0935(3) 0.2974(2)
H15_4 H 0.4446 0.1281 0.3242
C22_4 C 0.5486(3) 0.1103(3) 0.2744(2)
H16_4 H 0.5829 0.1520 0.2882
C23_4 C 0.5785(3) 0.0652(3) 0.2314(2)
C24_4 C 0.5262(3) 0.0034(3) 0.2138(2)
C26_4 C 0.2082(3) 0.0162(3) 0.2131(2)
H19_4 H 0.2641 0.0081 0.1980
C27_4 C 0.0164(3) 0.2194(3) 0.1466(2)
H20_4 H 0.0500 0.2585 0.1291
C28_4 C 0.6665(3) 0.0799(3) 0.2035(2)
N4_4 N 0.4164(2) 0.0295(2) 0.28322(15)
O13_4 O 0.20497(19) 0.02065(19) 0.26428(12)
O14_4 O 0.1477(2) 0.0212(2) 0.18075(13)
O15_4 O 0.0504(2) 0.1536(2) 0.15092(14)
O18_2 O 0.7146(2) 0.13357(18) 0.22573(13)
O20_4 O 0.0046(2) 0.08180(18) 0.26583(12)
C13_4 C 0.2034(4) 0.7173(3) 0.4274(2)
H9_4 H 0.2179 0.6991 0.4626
C14_4 C 0.2900(4) 0.8150(3) 0.2888(2)
H10_4 H 0.3237 0.7789 0.2684
C15_4 C 0.4502(4) 0.9454(4) 0.4082(2)
H11_4 H 0.4702 0.9169 0.3777
C16_3 C 0.5006(4) 0.9413(4) 0.4563(2)
H12_3 H 0.5533 0.9124 0.4565
C17_4 C 0.4741(4) 0.9780(5) 0.5016(2)
C20_4 C 0.5241(3) 0.9762(3) 0.55550(19)
H17_3 H 0.5434 0.9725 0.1837
C25_4 C 0.4462(3) 0.9867(3) 0.2415(2)
H18_4 H 0.4127 0.9432 0.2297
C30_4 C 0.0263(3) 0.8839(3) 0.2450(2)
H22_4 H 0.0218 0.8286 0.2411
N3_4 N 0.3785(2) 0.9854(2) 0.40296(16)
O1_4 O 0.18541(16) 0.95749(16) 0.36565(11)
H23_4 H 0.1827 0.9742 0.4044
O6_4 O 0.0248(2) 0.88441(19) 0.40634(13)
O7_4 O 0.1804(2) 0.78986(18) 0.42307(13)
O10_4 O 0.3267(2) 0.87946(19) 0.30037(15)
O12_2 O 0.6052(2) 0.9578(2) 0.55223(12)
O22_4 O 0.0616(2) 0.90806(18) 0.28817(13)
C1_4 C 0.6358(3) 0.1317(3) 0.6179(2)
H1_4 H 0.5828 0.1043 0.6129
C2_4 C 0.6333(3) 0.2142(3) 0.6282(2)
H2_4 H 0.5792 0.2404 0.6318
C3_4 C 0.7114(3) 0.2561(3) 0.63275(19)
C4_4 C 0.7902(4) 0.2138(3) 0.6276(2)
H3_4 H 0.8442 0.2404 0.6298
C5_4 C 0.7880(3) 0.1334(3) 0.6194(2)
H4_4 H 0.8415 0.1061 0.6166
C6_4 C 0.7071(3) 0.3445(3) 0.64445(18)
C7_4 C 0.7892(4) 0.0069(3) 0.4981(2)
H5_4 H 0.7400 0.0402 0.4955
C8_4 C 0.8479(3) 0.0061(3) 0.4546(2)
H6_4 H 0.8389 0.0395 0.4244
C29_4 C 0.9538(3) 0.1332(3) 0.2901(2)
H21_4 H 0.9658 0.1424 0.3272
N1_4 N 0.7120(3) 0.0908(2) 0.61506(16)
H24_4 H 0.8505 0.0228 0.2072
O5_4 O 0.9940(2) 0.00988(18) 0.37897(13)
O19_4 O 0.8915(2) 0.17141(18) 0.27055(13)
C9_4 C 0.9189(3) 0.9563(3) 0.4561(2)
C10_4 C 0.9297(3) 0.9099(3) 0.5018(2)
H7_4 H 0.9769 0.8743 0.5041
C11_4 C 0.8702(3) 0.9161(3) 0.5448(2)
H8_4 H 0.8802 0.8861 0.5765
C12_4 C 0.9843(3) 0.9511(3) 0.4092(2)
N2_4 N 0.7983(3) 0.9638(2) 0.54274(15)
O21_4 O 0.9963(3) 0.92418(19) 0.20643(14)
C16_4 C 0.9994(4) 0.0587(4) 0.9563(2)
H12_4 H 0.9467 0.0876 0.9565
H17_4 H 0.9566 0.0275 0.6837
loop_
_geom_bond_atom_site_label_1
_geom_bond_atom_site_label_2
_geom_bond_site_symmetry_1
_geom_bond_site_symmetry_2
C7 H5 1_555 1_555
C8 C7 1_555 1_555
H6 C8 1_555 1_555
C9 C8 1_555 1_555
C12 C9 1_555 1_555
C29 H21 1_555 1_555
Co2 O2 1_555 1_555
O2 H24 1_555 1_555
O5 C12 1_555 1_555
O19 C29 1_555 1_555
Co9 O2 1_555 1_555
Co16 O16 1_555 1_555
O27 Co2 1_555 1_555
O28 Co2 1_555 1_555
O33 Co2 1_555 1_555
Co2 O16 1_555 1_555
Co2 O19 1_555 1_555
Co9 O27 1_555 1_555
Co16 O28 1_555 1_555
C1 H1 1_555 1_555
C2 C1 1_555 1_555
H2 C2 1_555 1_555
C3 C2 1_555 1_555
C4 C3 1_555 1_555
H3 C4 1_555 1_555
C5 C4 1_555 1_555
H4 C5 1_555 1_555
C6 C3 1_555 1_555
H7 C10 1_555 1_555
C11 C10 1_555 1_555
H8 C11 1_555 1_555
Co1 N1 1_555 1_555
N1 C1 1_555 1_555
O3 C6 1_555 1_555
O4 C6 1_555 1_555
Co15 O3 1_555 1_555
O23 Co1 1_555 1_555
O26 Co1 1_555 1_555
O30 Co1 1_555 1_555
O32 Co1 1_555 1_555
C5 N1 1_555 1_555
C11 N2 1_555 1_555
Co1 N2 1_555 1_555
C13 H9 1_555 1_555
C14 H10 1_555 1_555
C15 H11 1_555 1_555
C16 C15 1_555 1_555
H12 C16 1_555 1_555
C19 C18 1_555 1_555
H14 C19 1_555 1_555
C21 H15 1_555 1_555
C22 C21 1_555 1_555
H16 C22 1_555 1_555
C23 C22 1_555 1_555
C24 C23 1_555 1_555
H17 C24 1_555 1_555
C25 C24 1_555 1_555
H18 C25 1_555 1_555
C26 H19 1_555 1_555
C27 H20 1_555 1_555
C28 C23 1_555 1_555
C30 H22 1_555 1_555
Co4 N3 1_555 1_555
Co5 O1 1_555 1_555
Co6 O1 1_555 1_555
N3 C15 1_555 1_555
N4 C21 1_555 1_555
O1 Co4 1_555 1_555
H23 O1 1_555 1_555
O7 C13 1_555 1_555
O8 C13 1_555 1_555
O9 C14 1_555 1_555
O10 C14 1_555 1_555
O13 C26 1_555 1_555
O14 C26 1_555 1_555
O15 C27 1_555 1_555
O17 C28 1_555 1_555
O33 C28 1_555 1_555
O22 C30 1_555 1_555
Co9 O17 1_555 1_555
Co10 O8 1_555 1_555
Co12 O8 1_555 1_555
O24 Co5 1_555 1_555
O25 Co4 1_555 1_555
O29 Co3 1_555 1_555
O31 Co6 1_555 1_555
C19 N3 1_555 1_555
C25 N4 1_555 1_555
Co3 O14 1_555 1_555
Co3 O15 1_555 1_555
Co3 O20 1_555 1_555
Co4 N4 1_555 1_555
Co4 O10 1_555 1_555
Co4 O13 1_555 1_555
Co5 O13 1_555 1_555
Co5 O20 1_555 1_555
Co5 O22 1_555 1_555
Co6 O6 1_555 1_555
Co6 O7 1_555 1_555
Co6 O9 1_555 1_555
Co6 O22 1_555 1_555
O9 Co12 1_555 1_555
Co12 O31 1_555 1_555
C20 C17 1_555 1_555
O11 C20 1_555 1_555
O30 C20 1_555 1_555
Co13 O11 1_555 1_555
H12_2 C16_2 1_555 1_555
H16_2 C22_2 1_555 1_555
C23_2 C22_2 1_555 1_555
C24_2 C23_2 1_555 1_555
H17_2 C24_2 1_555 1_555
C28_2 C23_2 1_555 1_555
O12 C20_2 1_555 1_555
O32 C28_2 1_555 1_555
O18 C28_2 1_555 1_555
Co9 O12 1_555 1_555
Co11 O18 1_555 1_555
C1_2 H1_2 1_555 1_555
C2_2 C1_2 1_555 1_555
H2_2 C2_2 1_555 1_555
C3_2 C2_2 1_555 1_555
C4_2 C3_2 1_555 1_555
H3_2 C4_2 1_555 1_555
C5_2 C4_2 1_555 1_555
H4_2 C5_2 1_555 1_555
C6_2 C3_2 1_555 1_555
C7_2 H5_2 1_555 1_555
C8_2 C7_2 1_555 1_555
H6_2 C8_2 1_555 1_555
C9_2 C8_2 1_555 1_555
C10_2 C9_2 1_555 1_555
H7_2 C10_2 1_555 1_555
C11_2 C10_2 1_555 1_555
H8_2 C11_2 1_555 1_555
C12_2 C9_2 1_555 1_555
C13_2 H9_2 1_555 1_555
C14_2 H10_2 1_555 1_555
C15_2 H11_2 1_555 1_555
C18_2 C17_2 1_555 1_555
H13_2 C18_2 1_555 1_555
C19_2 C18_2 1_555 1_555
H14_2 C19_2 1_555 1_555
C21_2 H15_2 1_555 1_555
H18_2 C25_2 1_555 1_555
C26_2 H19_2 1_555 1_555
C27_2 H20_2 1_555 1_555
C29_2 H21_2 1_555 1_555
C30_2 H22_2 1_555 1_555
Co9 N1_2 1_555 1_555
Co11 O23 1_555 1_555
Co13 O23 1_555 1_555
Co4_2 N3_2 1_555 1_555
Co5_2 O1_2 1_555 1_555
Co6_2 O1_2 1_555 1_555
N1_2 C1_2 1_555 1_555
N2_2 C7_2 1_555 1_555
N3_2 C15_2 1_555 1_555
N4_2 C21_2 1_555 1_555
O1_2 Co4_2 1_555 1_555
H23_2 O1_2 1_555 1_555
O23 H24_2 1_555 1_555
O3_2 C6_2 1_555 1_555
O4_2 C6_2 1_555 1_555
O5_2 C12_2 1_555 1_555
O6_2 C12_2 1_555 1_555
O7_2 C13_2 1_555 1_555
O8_2 C13_2 1_555 1_555
O9_2 C14_2 1_555 1_555
O10_2 C14_2 1_555 1_555
O13_2 C26_2 1_555 1_555
O14_2 C26_2 1_555 1_555
O15_2 C27_2 1_555 1_555
O16_2 C27_2 1_555 1_555
O19_2 C29_2 1_555 1_555
O20_2 C29_2 1_555 1_555
O21_2 C30_2 1_555 1_555
O22_2 C30_2 1_555 1_555
Co10_2 O8_2 1_555 1_555
Co12_2 O8_2 1_555 1_555
Co15_2 O3_2 1_555 1_555
Co16_2 O16_2 1_555 1_555
O24_2 Co5_2 1_555 1_555
O25_2 Co4_2 1_555 1_555
O26 Co11 1_555 1_555
O28_2 Co11 1_555 1_555
O31_2 Co6_2 1_555 1_555
C5_2 N1_2 1_555 1_555
C11_2 N2_2 1_555 1_555
C19_2 N3_2 1_555 1_555
C25_2 N4_2 1_555 1_555
Co9 N2_2 1_555 1_555
Co11 O16_2 1_555 1_555
Co11 O19_2 1_555 1_555
Co13 O14_2 1_555 1_555
Co13 O15_2 1_555 1_555
Co13 O20_2 1_555 1_555
Co13 O21_2 1_555 1_555
Co4_2 N4_2 1_555 1_555
Co4_2 O10_2 1_555 1_555
Co4_2 O13_2 1_555 1_555
Co5_2 O5_2 1_555 1_555
Co5_2 O13_2 1_555 1_555
Co5_2 O20_2 1_555 1_555
Co5_2 O22_2 1_555 1_555
Co6_2 O6_2 1_555 1_555
Co6_2 O7_2 1_555 1_555
Co6_2 O9_2 1_555 1_555
Co6_2 O22_2 1_555 1_555
O9_2 Co12_2 1_555 1_555
Co12_2 O31_2 1_555 1_555
Co16_2 O28_2 1_555 1_555
H7_3 C10_3 1_555 1_555
C11_3 C10_3 1_555 1_555
H8_3 C11_3 1_555 1_555
Co13_2 O11_2 1_555 1_555
O23_2 Co10 1_555 1_555
O30_2 Co10 1_555 1_555
O32_2 Co10 1_555 1_555
C11_3 N2_3 1_555 1_555
Co10 N2_3 1_555 1_555
C12_3 C9_3 1_555 1_555
C13_3 H9_3 1_555 1_555
C14_3 H10_3 1_555 1_555
C15_3 H11_3 1_555 1_555
H18_3 C25_3 1_555 1_555
C30_3 H22_3 1_555 1_555
Co14 N3_3 1_555 1_555
Co16_2 O1_3 1_555 1_555
N3_3 C15_3 1_555 1_555
O1_3 Co14 1_555 1_555
H23_3 O1_3 1_555 1_555
O6_3 C12_3 1_555 1_555
O7_3 C13_3 1_555 1_555
O26 C13_3 1_555 1_555
O28_2 C14_3 1_555 1_555
O10_3 C14_3 1_555 1_555
O21_3 C30_3 1_555 1_555
O22_3 C30_3 1_555 1_555
Co14 O10_3 1_555 1_555
Co16_2 O6_3 1_555 1_555
Co16_2 O7_3 1_555 1_555
Co16_2 O22_3 1_555 1_555
C1_3 H1_3 1_555 1_555
C2_3 C1_3 1_555 1_555
H2_3 C2_3 1_555 1_555
C3_3 C2_3 1_555 1_555
C4_3 C3_3 1_555 1_555
H3_3 C4_3 1_555 1_555
C5_3 C4_3 1_555 1_555
H4_3 C5_3 1_555 1_555
C6_3 C3_3 1_555 1_555
N1_3 C1_3 1_555 1_555
O24 C6_3 1_555 1_555
O25 C6_3 1_555 1_555
C5_3 N1_3 1_555 1_555
C7_3 H5_3 1_555 1_555
C8_3 C7_3 1_555 1_555
H6_3 C8_3 1_555 1_555
C19_3 C18_3 1_555 1_555
H14_3 C19_3 1_555 1_555
C21_3 H15_3 1_555 1_555
C26_3 H19_3 1_555 1_555
C27_3 H20_3 1_555 1_555
C29_3 H21_3 1_555 1_555
Co12_2 O2_2 1_555 1_555
Co3_2 O2_2 1_555 1_555
N4_3 C21_3 1_555 1_555
O2_2 H24_3 1_555 1_555
O13_3 C26_3 1_555 1_555
O14_3 C26_3 1_555 1_555
O15_3 C27_3 1_555 1_555
O31_2 C27_3 1_555 1_555
O19_3 C29_3 1_555 1_555
O20_3 C29_3 1_555 1_555
Co10_2 O2_2 1_555 1_555
O29_2 Co3_2 1_555 1_555
O33_2 Co12_2 1_555 1_555
Co12_2 O19_3 1_555 1_555
Co3_2 O14_3 1_555 1_555
Co3_2 O15_3 1_555 1_555
Co3_2 O20_3 1_555 1_555
Co15 O5_3 1_555 1_555
Co15 O13_3 1_555 1_555
Co15 O20_3 1_555 1_555
O30_2 C20_3 1_555 1_555
H16_3 C22_3 1_555 1_555
C23_3 C22_3 1_555 1_555
C24_3 C23_3 1_555 1_555
C28_3 C23_3 1_555 1_555
O17_2 C28_3 1_555 1_555
O33_2 C28_3 1_555 1_555
Co10_2 O17_2 1_555 1_555
H13_4 C18_4 1_555 1_555
C19_4 C18_4 1_555 1_555
H14_4 C19_4 1_555 1_555
C21_4 H15_4 1_555 1_555
C22_4 C21_4 1_555 1_555
H16_4 C22_4 1_555 1_555
C23_4 C22_4 1_555 1_555
C24_4 C23_4 1_555 1_555
C26_4 H19_4 1_555 1_555
C27_4 H20_4 1_555 1_555
C28_4 C23_4 1_555 1_555
N4_4 C21_4 1_555 1_555
O13_4 C26_4 1_555 1_555
O14_4 C26_4 1_555 1_555
O15_4 C27_4 1_555 1_555
O32_2 C28_4 1_555 1_555
O18_2 C28_4 1_555 1_555
Co12 O18_2 1_555 1_555
Co13_2 O14_4 1_555 1_555
Co13_2 O15_4 1_555 1_555
Co13_2 O20_4 1_555 1_555
Co15_2 O13_4 1_555 1_555
Co15_2 O20_4 1_555 1_555
C13_4 H9_4 1_555 1_555
C14_4 H10_4 1_555 1_555
C15_4 H11_4 1_555 1_555
C16_3 C15_4 1_555 1_555
H12_3 C16_3 1_555 1_555
C17_4 C16_3 1_555 1_555
C20_4 C17_4 1_555 1_555
H18_4 C25_4 1_555 1_555
C30_4 H22_4 1_555 1_555
Co14_2 N3_4 1_555 1_555
Co16 O1_4 1_555 1_555
N3_4 C15_4 1_555 1_555
O1_4 Co14_2 1_555 1_555
H23_4 O1_4 1_555 1_555
O7_4 C13_4 1_555 1_555
O27 C13_4 1_555 1_555
O28 C14_4 1_555 1_555
O10_4 C14_4 1_555 1_555
O29_2 C20_4 1_555 1_555
O12_2 C20_4 1_555 1_555
O22_4 C30_4 1_555 1_555
Co10_2 O12_2 1_555 1_555
Co14_2 O10_4 1_555 1_555
Co16 O6_4 1_555 1_555
Co16 O7_4 1_555 1_555
Co16 O22_4 1_555 1_555
C1_4 H1_4 1_555 1_555
C2_4 C1_4 1_555 1_555
H2_4 C2_4 1_555 1_555
C3_4 C2_4 1_555 1_555
C4_4 C3_4 1_555 1_555
H3_4 C4_4 1_555 1_555
C5_4 C4_4 1_555 1_555
H4_4 C5_4 1_555 1_555
C6_4 C3_4 1_555 1_555
C7_4 H5_4 1_555 1_555
C8_4 C7_4 1_555 1_555
H6_4 C8_4 1_555 1_555
C29_4 H21_4 1_555 1_555
Co12 O23_2 1_555 1_555
N1_4 C1_4 1_555 1_555
O23_2 H24_4 1_555 1_555
O24_2 C6_4 1_555 1_555
O25_2 C6_4 1_555 1_555
O19_4 C29_4 1_555 1_555
C5_4 N1_4 1_555 1_555
Co12 O19_4 1_555 1_555
C10_4 C9_4 1_555 1_555
H7_4 C10_4 1_555 1_555
C11_4 C10_4 1_555 1_555
H8_4 C11_4 1_555 1_555
C12_4 C9_4 1_555 1_555
C11_4 N2_4 1_555 1_555
Co10_2 N2_4 1_555 1_555
H12_4 C16_4 1_555 1_555

#END
