
###############################################################################
#
# This file contains modified crystal structure data generated from the
# MOF subset of the Cambridge Structural Database (CSD) v543 
# hosted by the Cambridge Crystallographic Data Centre (CCDC).
#
# This work is licensed under the Creative Commons
# Attribution-NonCommercial-ShareAlike 4.0 International License.
# To view a copy of this license, visit
# http://creativecommons.org/licenses/by-nc-sa/4.0/
# or send a letter to
# Creative Commons, PO Box 1866, Mountain View, CA 94042, USA.
#
# CIF created using the CSD Python API on 29 September 2022
# The structure has been converted into the P1 space group
# The structure has a 3D framework
# The original CSD entry CIJBIJ is in the monoclinic crystal system
# The framework has been calculated to contain at least 10.0% void space
# The void calculation uses a probe of radius 1.32A, grid spacing 0.4
#
###############################################################################

data_CIJBIJ
_chemical_formula_moiety         '(C176 H184 N16 O68 Tb8)n'
_symmetry_cell_setting           triclinic
_symmetry_space_group_name_H-M   'P 1'
_symmetry_Int_Tables_number      1
_space_group_name_Hall           'P 1'
loop_
_symmetry_equiv_pos_site_id
_symmetry_equiv_pos_as_xyz
1 x,y,z
_cell_length_a                   28.614(5)
_cell_length_b                   14.383(5)
_cell_length_c                   13.644(5)
_cell_angle_alpha                90
_cell_angle_beta                 97.284(5)
_cell_angle_gamma                90
_cell_volume                     5569.94
loop_
_atom_site_label
_atom_site_type_symbol
_atom_site_fract_x
_atom_site_fract_y
_atom_site_fract_z
H15 H 0.369999 0.259521 0.004837
C1 C 0.27530(13) 0.1623(3) 0.3374(3)
C2 C 0.29417(13) 0.1013(3) 0.2615(3)
C3 C 0.26410(13) 0.0387(3) 0.2075(3)
H1 H 0.232402 0.036630 0.216118
C6 C 0.35857(14) 0.0473(3) 0.1792(3)
C7 C 0.34120(14) 0.1050(3) 0.2471(3)
H3 H 0.361291 0.146689 0.283561
C8 C 0.40954(15) 0.0495(3) 0.1633(4)
H4 H 0.428850 0.023113 0.220039
H5 H 0.414190 0.013109 0.105458
C9 C 0.46614(16) 0.1598(3) 0.1220(4)
C10 C 0.49724(15) 0.0925(3) 0.1005(4)
H6 H 0.490134 0.029897 0.107207
C11 C 0.53947(15) 0.1189(3) 0.0684(3)
H7 H 0.560360 0.073260 0.052958
C12 C 0.55111(16) 0.2110(3) 0.0590(4)
C13 C 0.5200(2) 0.2770(3) 0.0850(5)
H8 H 0.527689 0.339677 0.081766
C14 C 0.4780(2) 0.2523(4) 0.1152(5)
H9 H 0.457335 0.298019 0.131293
C15 C 0.59612(14) 0.2377(3) 0.0210(3)
C16 C 0.3387(4) 0.2531(10) 0.7772(7)
H10 H 0.324141 0.310646 0.780335
C17 C 0.3718(7) 0.1281(9) 0.8759(9)
H11 H 0.372083 0.098143 0.813127
H12 H 0.357865 0.087360 0.919789
H13 H 0.403489 0.142591 0.903563
C18 C 0.3437(8) 0.2727(13) 0.9560(10)
H14 H 0.344713 0.336760 0.936430
H16 H 0.314876 0.261094 0.983148
C19 C 0.3420(3) 0.4968(5) 0.6331(5)
H17 H 0.316570 0.514915 0.587835
C20 C 0.3395(5) 0.6497(6) 0.7057(8)
H18 H 0.360549 0.694131 0.682298
H19 H 0.336080 0.662868 0.773386
H20 H 0.309287 0.653612 0.666262
C21 C 0.3952(5) 0.5329(11) 0.7781(10)
H21 H 0.383197 0.486960 0.819412
H22 H 0.405287 0.586550 0.817023
H23 H 0.421462 0.507581 0.749633
N1 N 0.3459(4) 0.2087(9) 0.8634(5)
N2 N 0.3578(3) 0.5600(5) 0.6985(6)
O1 O 0.30320(10) 0.22238(18) 0.3788(2)
O2 O 0.23401(9) 0.1487(2) 0.3535(2)
O4 O 0.60990(10) 0.3212(2) 0.0301(2)
O7 O 0.35565(13) 0.4202(3) 0.6238(3)
O8 O 0.34683(15) 0.2337(3) 0.7008(3)
O9 O 0.42266(11) 0.1428(2) 0.1499(3)
Tb1 Tb 0.31717(2) 0.29059(2) 0.53681(2)
O10 O 0.26599(9) 0.3513(2) 0.6465(2)
O11 O 0.38111(10) 0.1782(2) 0.5194(2)
O12 O 0.39010(10) 0.3212(2) 0.4699(2)
O13 O 0.23136(10) 0.33711(18) 0.44758(19)
O14 O 0.26864(10) 0.16289(18) 0.55242(19)
O15 O 0.29301(9) 0.42371(19) 0.4324(2)
Tb5 Tb 0.18283(2) 0.20941(2) 0.46319(2)
O3 O 0.61889(10) 0.1782(2) 0.9806(2)
Tb2 Tb 0.68283(2) 0.29059(2) 0.96319(2)
C4 C 0.28169(13) 0.9789(3) 0.1401(3)
C5 C 0.32868(14) 0.9836(3) 0.1266(3)
H2 H 0.340400 0.943751 0.081874
C22 C 0.25000(14) 0.9096(3) 0.0838(3)
O5 O 0.26864(10) 0.83711(18) 0.05242(19)
O6 O 0.20699(9) 0.92371(19) 0.0676(2)
Tb4 Tb 0.31717(2) 0.70941(2) 0.03681(2)
Tb3 Tb 0.18283(2) 0.79059(2) 0.96319(2)
C1_2 C 0.72470(13) 0.1623(3) 0.1626(3)
C2_2 C 0.70583(13) 0.1013(3) 0.2385(3)
C3_2 C 0.73590(13) 0.0387(3) 0.2925(3)
H1_2 H 0.767598 0.036630 0.283882
C6_2 C 0.64143(14) 0.0473(3) 0.3208(3)
C7_2 C 0.65880(14) 0.1050(3) 0.2529(3)
H3_2 H 0.638709 0.146689 0.216439
C8_2 C 0.59046(15) 0.0495(3) 0.3367(4)
H4_2 H 0.571150 0.023113 0.279961
H5_2 H 0.585810 0.013109 0.394542
C9_2 C 0.53386(16) 0.1598(3) 0.3780(4)
C10_2 C 0.50276(15) 0.0925(3) 0.3995(4)
H6_2 H 0.509866 0.029897 0.392793
C11_2 C 0.46053(15) 0.1189(3) 0.4316(3)
H7_2 H 0.439640 0.073260 0.447042
C12_2 C 0.44889(16) 0.2110(3) 0.4410(4)
C13_2 C 0.4800(2) 0.2770(3) 0.4150(5)
H8_2 H 0.472311 0.339677 0.418234
C14_2 C 0.5220(2) 0.2523(4) 0.3848(5)
H9_2 H 0.542665 0.298019 0.368707
C15_2 C 0.40388(14) 0.2377(3) 0.4790(3)
O1_2 O 0.69680(10) 0.22238(18) 0.1212(2)
O2_2 O 0.76599(9) 0.1487(2) 0.1465(2)
O9_2 O 0.57734(11) 0.1428(2) 0.3501(3)
O13_2 O 0.76864(10) 0.33711(18) 0.05242(19)
O15_2 O 0.70699(9) 0.42371(19) 0.0676(2)
Tb5_2 Tb 0.81717(2) 0.20941(2) 0.03681(2)
C16_2 C 0.6613(4) 0.2531(10) 0.7228(7)
H10_2 H 0.675859 0.310646 0.719665
C17_2 C 0.6282(7) 0.1281(9) 0.6241(9)
H11_2 H 0.627917 0.098143 0.686873
H12_2 H 0.642135 0.087360 0.580211
H13_2 H 0.596511 0.142591 0.596437
C18_2 C 0.6563(8) 0.2727(13) 0.5440(10)
H14_2 H 0.655287 0.336760 0.563570
H15_2 H 0.630001 0.259521 0.495163
H16_2 H 0.685124 0.261094 0.516852
C19_2 C 0.6580(3) 0.4968(5) 0.8669(5)
H17_2 H 0.683430 0.514915 0.912165
C20_2 C 0.6605(5) 0.6497(6) 0.7943(8)
H18_2 H 0.639451 0.694131 0.817702
H19_2 H 0.663920 0.662868 0.726614
H20_2 H 0.690713 0.653612 0.833738
C21_2 C 0.6048(5) 0.5329(11) 0.7219(10)
H21_2 H 0.616803 0.486960 0.680588
H22_2 H 0.594713 0.586550 0.682977
H23_2 H 0.578538 0.507581 0.750367
N1_2 N 0.6541(4) 0.2087(9) 0.6366(5)
N2_2 N 0.6422(3) 0.5600(5) 0.8015(6)
O7_2 O 0.64435(13) 0.4202(3) 0.8762(3)
O8_2 O 0.65317(15) 0.2337(3) 0.7992(3)
O10_2 O 0.73401(9) 0.3513(2) 0.8535(2)
O14_2 O 0.73136(10) 0.16289(18) 0.94758(19)
C4_2 C 0.71831(13) 0.9789(3) 0.3599(3)
C5_2 C 0.67132(14) 0.9836(3) 0.3734(3)
H2_2 H 0.659600 0.943751 0.418126
C22_2 C 0.75000(14) 0.9096(3) 0.4162(3)
O5_2 O 0.73136(10) 0.83711(18) 0.44758(19)
O6_2 O 0.79301(9) 0.92371(19) 0.4324(2)
Tb3_2 Tb 0.81717(2) 0.79059(2) 0.53681(2)
Tb4_2 Tb 0.68283(2) 0.70941(2) 0.46319(2)
C11_3 C 0.03947(15) 0.6189(3) 0.0684(3)
H7_3 H 0.060360 0.573260 0.052958
C12_3 C 0.05111(16) 0.7110(3) 0.0590(4)
C13_3 C 0.0200(2) 0.7770(3) 0.0850(5)
H8_3 H 0.027689 0.839677 0.081766
C15_3 C 0.09612(14) 0.7377(3) 0.0210(3)
O4_2 O 0.10990(10) 0.8212(2) 0.0301(2)
O3_2 O 0.11889(10) 0.6782(2) 0.9806(2)
C1_3 C 0.77530(13) 0.6623(3) 0.3374(3)
C2_3 C 0.79417(13) 0.6013(3) 0.2615(3)
C3_3 C 0.76410(13) 0.5387(3) 0.2075(3)
H1_3 H 0.732402 0.536630 0.216118
C4_3 C 0.78169(13) 0.4789(3) 0.1401(3)
C5_3 C 0.82868(14) 0.4836(3) 0.1266(3)
H2_3 H 0.840400 0.443751 0.081874
C6_3 C 0.85857(14) 0.5473(3) 0.1792(3)
C7_3 C 0.84120(14) 0.6050(3) 0.2471(3)
H3_3 H 0.861291 0.646689 0.283561
C8_3 C 0.90954(15) 0.5495(3) 0.1633(4)
H4_3 H 0.928850 0.523113 0.220039
H5_3 H 0.914190 0.513109 0.105458
C9_3 C 0.96614(16) 0.6598(3) 0.1220(4)
C10_3 C 0.99724(15) 0.5925(3) 0.1005(4)
H6_3 H 0.990134 0.529897 0.107207
C14_3 C 0.9780(2) 0.7523(4) 0.1152(5)
H9_3 H 0.957335 0.798019 0.131293
C16_3 C 0.8387(4) 0.7531(10) 0.7772(7)
H10_3 H 0.824141 0.810646 0.780335
C17_3 C 0.8718(7) 0.6281(9) 0.8759(9)
H11_3 H 0.872083 0.598143 0.813127
H12_3 H 0.857865 0.587360 0.919789
H13_3 H 0.903489 0.642591 0.903563
C18_3 C 0.8437(8) 0.7727(13) 0.9560(10)
H14_3 H 0.844713 0.836760 0.936430
H16_3 H 0.814876 0.761094 0.983148
C19_3 C 0.8420(3) 0.9968(5) 0.6331(5)
H21_3 H 0.883197 0.986960 0.819412
C22_3 C 0.75000(14) 0.4096(3) 0.0838(3)
N1_3 N 0.8459(4) 0.7087(9) 0.8634(5)
O1_3 O 0.80320(10) 0.72238(18) 0.3788(2)
O2_3 O 0.73401(9) 0.6487(2) 0.3535(2)
O7_3 O 0.85565(13) 0.9202(3) 0.6238(3)
O8_3 O 0.84683(15) 0.7337(3) 0.7008(3)
O9_3 O 0.92266(11) 0.6428(2) 0.1499(3)
O10_3 O 0.76599(9) 0.8513(2) 0.6465(2)
O11_2 O 0.88111(10) 0.6782(2) 0.5194(2)
O12_2 O 0.89010(10) 0.8212(2) 0.4699(2)
O14_3 O 0.76864(10) 0.66289(18) 0.55242(19)
C1_4 C 0.22470(13) 0.6623(3) 0.1626(3)
C2_4 C 0.20583(13) 0.6013(3) 0.2385(3)
C3_4 C 0.23590(13) 0.5387(3) 0.2925(3)
H1_4 H 0.267598 0.536630 0.283882
C4_4 C 0.21831(13) 0.4789(3) 0.3599(3)
C5_4 C 0.17132(14) 0.4836(3) 0.3734(3)
H2_4 H 0.159600 0.443751 0.418126
C6_4 C 0.14143(14) 0.5473(3) 0.3208(3)
C7_4 C 0.15880(14) 0.6050(3) 0.2529(3)
H3_4 H 0.138709 0.646689 0.216439
C8_4 C 0.09046(15) 0.5495(3) 0.3367(4)
H4_4 H 0.071150 0.523113 0.279961
H5_4 H 0.085810 0.513109 0.394542
C9_4 C 0.03386(16) 0.6598(3) 0.3780(4)
C10_4 C 0.00276(15) 0.5925(3) 0.3995(4)
H6_4 H 0.009866 0.529897 0.392793
C14_4 C 0.0220(2) 0.7523(4) 0.3848(5)
H9_4 H 0.042665 0.798019 0.368707
C22_4 C 0.25000(14) 0.4096(3) 0.4162(3)
O1_4 O 0.19680(10) 0.72238(18) 0.1212(2)
O2_4 O 0.26599(9) 0.6487(2) 0.1465(2)
O9_4 O 0.07734(11) 0.6428(2) 0.3501(3)
C16_4 C 0.1613(4) 0.7531(10) 0.7228(7)
H10_4 H 0.175859 0.810646 0.719665
C17_4 C 0.1282(7) 0.6281(9) 0.6241(9)
H11_4 H 0.127917 0.598143 0.686873
H12_4 H 0.142135 0.587360 0.580211
H13_4 H 0.096511 0.642591 0.596437
C18_4 C 0.1563(8) 0.7727(13) 0.5440(10)
H14_4 H 0.155287 0.836760 0.563570
H15_3 H 0.130001 0.759521 0.495163
H16_4 H 0.185124 0.761094 0.516852
C19_4 C 0.1580(3) 0.9968(5) 0.8669(5)
H21_4 H 0.116803 0.986960 0.680588
N1_4 N 0.1541(4) 0.7087(9) 0.6366(5)
O7_4 O 0.14435(13) 0.9202(3) 0.8762(3)
O8_4 O 0.15317(15) 0.7337(3) 0.7992(3)
O10_4 O 0.23401(9) 0.8513(2) 0.8535(2)
O14_4 O 0.23136(10) 0.66289(18) 0.94758(19)
C11_4 C 0.96053(15) 0.6189(3) 0.4316(3)
H7_4 H 0.939640 0.573260 0.447042
C12_4 C 0.94889(16) 0.7110(3) 0.4410(4)
C13_4 C 0.9800(2) 0.7770(3) 0.4150(5)
H8_4 H 0.972311 0.839677 0.418234
C15_4 C 0.90388(14) 0.7377(3) 0.4790(3)
C4_5 C 0.71831(13) 0.0211(3) 0.8599(3)
C5_5 C 0.67132(14) 0.0164(3) 0.8734(3)
H2_5 H 0.659600 0.056249 0.918126
C22_5 C 0.75000(14) 0.0904(3) 0.9162(3)
O6_3 O 0.79301(9) 0.07629(19) 0.9324(2)
O3_3 O 0.38111(10) 0.8218(2) 0.0194(2)
C1_5 C 0.72470(13) 0.8377(3) 0.6626(3)
C2_5 C 0.70583(13) 0.8987(3) 0.7385(3)
C3_5 C 0.73590(13) 0.9613(3) 0.7925(3)
H1_5 H 0.767598 0.963370 0.783882
C6_5 C 0.64143(14) 0.9527(3) 0.8208(3)
C7_5 C 0.65880(14) 0.8950(3) 0.7529(3)
H3_5 H 0.638709 0.853311 0.716439
C8_5 C 0.59046(15) 0.9505(3) 0.8367(4)
H4_5 H 0.571150 0.976887 0.779961
H5_5 H 0.585810 0.986891 0.894542
C9_5 C 0.53386(16) 0.8402(3) 0.8780(4)
C10_5 C 0.50276(15) 0.9075(3) 0.8995(4)
H6_5 H 0.509866 0.970103 0.892793
C11_5 C 0.46053(15) 0.8811(3) 0.9316(3)
H7_5 H 0.439640 0.926740 0.947042
C12_5 C 0.44889(16) 0.7890(3) 0.9410(4)
C13_5 C 0.4800(2) 0.7230(3) 0.9150(5)
H8_5 H 0.472311 0.660323 0.918234
C14_5 C 0.5220(2) 0.7477(4) 0.8848(5)
H9_5 H 0.542665 0.701981 0.868707
C15_5 C 0.40388(14) 0.7623(3) 0.9790(3)
C16_5 C 0.6613(4) 0.7469(10) 0.2228(7)
H10_5 H 0.675859 0.689354 0.219665
C17_5 C 0.6282(7) 0.8719(9) 0.1241(9)
H11_5 H 0.627917 0.901857 0.186873
H12_5 H 0.642135 0.912640 0.080211
H13_5 H 0.596511 0.857409 0.096437
C18_5 C 0.6563(8) 0.7273(13) 0.0440(10)
H14_5 H 0.655287 0.663240 0.063570
H16_5 H 0.685124 0.738906 0.016852
C19_5 C 0.6580(3) 0.5032(5) 0.3669(5)
H17_3 H 0.683430 0.485085 0.412165
C20_3 C 0.6605(5) 0.3503(6) 0.2943(8)
H18_3 H 0.639451 0.305869 0.317702
H19_3 H 0.663920 0.337132 0.226614
H20_3 H 0.690713 0.346388 0.333738
C21_3 C 0.6048(5) 0.4671(11) 0.2219(10)
H21_5 H 0.616803 0.513040 0.180588
H22_3 H 0.594713 0.413450 0.182977
H23_3 H 0.578538 0.492419 0.250367
N1_5 N 0.6541(4) 0.7913(9) 0.1366(5)
N2_3 N 0.6422(3) 0.4400(5) 0.3015(6)
O1_5 O 0.69680(10) 0.77762(18) 0.6212(2)
O4_3 O 0.39010(10) 0.6788(2) 0.9699(2)
O7_5 O 0.64435(13) 0.5798(3) 0.3762(3)
O8_5 O 0.65317(15) 0.7663(3) 0.2992(3)
O9_5 O 0.57734(11) 0.8572(2) 0.8501(3)
O11_3 O 0.61889(10) 0.8218(2) 0.4806(2)
O12_3 O 0.60990(10) 0.6788(2) 0.5301(2)
O15_3 O 0.70699(9) 0.57629(19) 0.5676(2)
C4_6 C 0.28169(13) 0.0211(3) 0.6401(3)
C5_6 C 0.32868(14) 0.0164(3) 0.6266(3)
H2_6 H 0.340400 0.056249 0.581874
C22_6 C 0.25000(14) 0.0904(3) 0.5838(3)
O6_4 O 0.20699(9) 0.07629(19) 0.5676(2)
C16_6 C 0.3387(4) 0.7469(10) 0.2772(7)
H10_6 H 0.324141 0.689354 0.280335
C17_6 C 0.3718(7) 0.8719(9) 0.3759(9)
H11_6 H 0.372083 0.901857 0.313127
H12_6 H 0.357865 0.912640 0.419789
H13_6 H 0.403489 0.857409 0.403563
C18_6 C 0.3437(8) 0.7273(13) 0.4560(10)
H14_6 H 0.344713 0.663240 0.436430
H15_4 H 0.369999 0.740479 0.504837
H16_6 H 0.314876 0.738906 0.483148
C19_6 C 0.3420(3) 0.5032(5) 0.1331(5)
H17_4 H 0.316570 0.485085 0.087835
C20_4 C 0.3395(5) 0.3503(6) 0.2057(8)
H18_4 H 0.360549 0.305869 0.182298
H19_4 H 0.336080 0.337132 0.273386
H20_4 H 0.309287 0.346388 0.166262
C21_4 C 0.3952(5) 0.4671(11) 0.2781(10)
H21_6 H 0.383197 0.513040 0.319412
H22_4 H 0.405287 0.413450 0.317023
H23_4 H 0.421462 0.492419 0.249633
N1_6 N 0.3459(4) 0.7913(9) 0.3634(5)
N2_4 N 0.3578(3) 0.4400(5) 0.1985(6)
O7_6 O 0.35565(13) 0.5798(3) 0.1238(3)
O8_6 O 0.34683(15) 0.7663(3) 0.2008(3)
C1_6 C 0.27530(13) 0.8377(3) 0.8374(3)
C2_6 C 0.29417(13) 0.8987(3) 0.7615(3)
C3_6 C 0.26410(13) 0.9613(3) 0.7075(3)
H1_6 H 0.232402 0.963370 0.716118
C6_6 C 0.35857(14) 0.9527(3) 0.6792(3)
C7_6 C 0.34120(14) 0.8950(3) 0.7471(3)
H3_6 H 0.361291 0.853311 0.783561
C8_6 C 0.40954(15) 0.9505(3) 0.6633(4)
H4_6 H 0.428850 0.976887 0.720039
H5_6 H 0.414190 0.986891 0.605458
C9_6 C 0.46614(16) 0.8402(3) 0.6220(4)
C10_6 C 0.49724(15) 0.9075(3) 0.6005(4)
H6_6 H 0.490134 0.970103 0.607207
C11_6 C 0.53947(15) 0.8811(3) 0.5684(3)
H7_6 H 0.560360 0.926740 0.552958
C12_6 C 0.55111(16) 0.7890(3) 0.5590(4)
C13_6 C 0.5200(2) 0.7230(3) 0.5850(5)
H8_6 H 0.527689 0.660323 0.581766
C14_6 C 0.4780(2) 0.7477(4) 0.6152(5)
H9_6 H 0.457335 0.701981 0.631293
C15_6 C 0.59612(14) 0.7623(3) 0.5210(3)
O1_6 O 0.30320(10) 0.77762(18) 0.8788(2)
O9_6 O 0.42266(11) 0.8572(2) 0.6499(3)
O15_4 O 0.29301(9) 0.57629(19) 0.9324(2)
C1_7 C 0.22470(13) 0.3377(3) 0.6626(3)
C2_7 C 0.20583(13) 0.3987(3) 0.7385(3)
C3_7 C 0.23590(13) 0.4613(3) 0.7925(3)
H1_7 H 0.267598 0.463370 0.783882
C4_7 C 0.21831(13) 0.5211(3) 0.8599(3)
C5_7 C 0.17132(14) 0.5164(3) 0.8734(3)
H2_7 H 0.159600 0.556249 0.918126
C6_7 C 0.14143(14) 0.4527(3) 0.8208(3)
C7_7 C 0.15880(14) 0.3950(3) 0.7529(3)
H3_7 H 0.138709 0.353311 0.716439
C8_7 C 0.09046(15) 0.4505(3) 0.8367(4)
H4_7 H 0.071150 0.476887 0.779961
H5_7 H 0.085810 0.486891 0.894542
C9_7 C 0.03386(16) 0.3402(3) 0.8780(4)
C10_7 C 0.00276(15) 0.4075(3) 0.8995(4)
H6_7 H 0.009866 0.470103 0.892793
C14_7 C 0.0220(2) 0.2477(4) 0.8848(5)
H9_7 H 0.042665 0.201981 0.868707
C16_7 C 0.1613(4) 0.2469(10) 0.2228(7)
H10_7 H 0.175859 0.189354 0.219665
C17_7 C 0.1282(7) 0.3719(9) 0.1241(9)
H11_7 H 0.127917 0.401857 0.186873
H12_7 H 0.142135 0.412640 0.080211
H13_7 H 0.096511 0.357409 0.096437
C18_7 C 0.1563(8) 0.2273(13) 0.0440(10)
H14_7 H 0.155287 0.163240 0.063570
H16_7 H 0.185124 0.238906 0.016852
C19_7 C 0.1580(3) 0.0032(5) 0.3669(5)
H21_7 H 0.116803 0.013040 0.180588
C22_7 C 0.25000(14) 0.5904(3) 0.9162(3)
N1_7 N 0.1541(4) 0.2913(9) 0.1366(5)
O1_7 O 0.19680(10) 0.27762(18) 0.6212(2)
O7_7 O 0.14435(13) 0.0798(3) 0.3762(3)
O8_7 O 0.15317(15) 0.2663(3) 0.2992(3)
O9_7 O 0.07734(11) 0.3572(2) 0.8501(3)
O11_4 O 0.11889(10) 0.3218(2) 0.4806(2)
O12_4 O 0.10990(10) 0.1788(2) 0.5301(2)
O3_4 O 0.88111(10) 0.3218(2) 0.0194(2)
C11_7 C 0.96053(15) 0.3811(3) 0.9316(3)
H7_7 H 0.939640 0.426740 0.947042
C12_7 C 0.94889(16) 0.2890(3) 0.9410(4)
C13_7 C 0.9800(2) 0.2230(3) 0.9150(5)
H8_7 H 0.972311 0.160323 0.918234
C15_7 C 0.90388(14) 0.2623(3) 0.9790(3)
O4_4 O 0.89010(10) 0.1788(2) 0.9699(2)
C11_8 C 0.03947(15) 0.3811(3) 0.5684(3)
H7_8 H 0.060360 0.426740 0.552958
C12_8 C 0.05111(16) 0.2890(3) 0.5590(4)
C13_8 C 0.0200(2) 0.2230(3) 0.5850(5)
H8_8 H 0.027689 0.160323 0.581766
C15_8 C 0.09612(14) 0.2623(3) 0.5210(3)
C16_8 C 0.8387(4) 0.2469(10) 0.2772(7)
H10_8 H 0.824141 0.189354 0.280335
C17_8 C 0.8718(7) 0.3719(9) 0.3759(9)
H11_8 H 0.872083 0.401857 0.313127
H12_8 H 0.857865 0.412640 0.419789
H13_8 H 0.903489 0.357409 0.403563
C18_8 C 0.8437(8) 0.2273(13) 0.4560(10)
H14_8 H 0.844713 0.163240 0.436430
H15_5 H 0.869999 0.240479 0.504837
H16_8 H 0.814876 0.238906 0.483148
C19_8 C 0.8420(3) 0.0032(5) 0.1331(5)
H21_8 H 0.883197 0.013040 0.319412
N1_8 N 0.8459(4) 0.2913(9) 0.3634(5)
O7_8 O 0.85565(13) 0.0798(3) 0.1238(3)
O8_8 O 0.84683(15) 0.2663(3) 0.2008(3)
C1_8 C 0.77530(13) 0.3377(3) 0.8374(3)
C2_8 C 0.79417(13) 0.3987(3) 0.7615(3)
C3_8 C 0.76410(13) 0.4613(3) 0.7075(3)
H1_8 H 0.732402 0.463370 0.716118
C4_8 C 0.78169(13) 0.5211(3) 0.6401(3)
C5_8 C 0.82868(14) 0.5164(3) 0.6266(3)
H2_8 H 0.840400 0.556249 0.581874
C6_8 C 0.85857(14) 0.4527(3) 0.6792(3)
C7_8 C 0.84120(14) 0.3950(3) 0.7471(3)
H3_8 H 0.861291 0.353311 0.783561
C8_8 C 0.90954(15) 0.4505(3) 0.6633(4)
H4_8 H 0.928850 0.476887 0.720039
H5_8 H 0.914190 0.486891 0.605458
C9_8 C 0.96614(16) 0.3402(3) 0.6220(4)
C10_8 C 0.99724(15) 0.4075(3) 0.6005(4)
H6_8 H 0.990134 0.470103 0.607207
C14_8 C 0.9780(2) 0.2477(4) 0.6152(5)
H9_8 H 0.957335 0.201981 0.631293
C22_8 C 0.75000(14) 0.5904(3) 0.5838(3)
O1_8 O 0.80320(10) 0.27762(18) 0.8788(2)
O9_8 O 0.92266(11) 0.3572(2) 0.6499(3)
H17_5 H 0.816570 0.014915 0.587835
C20_5 C 0.8395(5) 0.1497(6) 0.7057(8)
H18_5 H 0.860549 0.194131 0.682298
H19_5 H 0.836080 0.162868 0.773386
H20_5 H 0.809287 0.153612 0.666262
C21_5 C 0.8952(5) 0.0329(11) 0.7781(10)
H22_5 H 0.905287 0.086550 0.817023
H23_5 H 0.921462 0.007581 0.749633
N2_5 N 0.8578(3) 0.0600(5) 0.6985(6)
H15_6 H 0.869999 0.759521 0.004837
H17_6 H 0.183430 0.014915 0.912165
C20_6 C 0.1605(5) 0.1497(6) 0.7943(8)
H18_6 H 0.139451 0.194131 0.817702
H19_6 H 0.163920 0.162868 0.726614
H20_6 H 0.190713 0.153612 0.833738
C21_6 C 0.1048(5) 0.0329(11) 0.7219(10)
H22_6 H 0.094713 0.086550 0.682977
H23_6 H 0.078538 0.007581 0.750367
N2_6 N 0.1422(3) 0.0600(5) 0.8015(6)
H15_7 H 0.630001 0.740479 0.995163
H15_8 H 0.130001 0.240479 0.995163
H17_7 H 0.183430 0.985085 0.412165
C20_7 C 0.1605(5) 0.8503(6) 0.2943(8)
H18_7 H 0.139451 0.805869 0.317702
H19_7 H 0.163920 0.837132 0.226614
H20_7 H 0.190713 0.846388 0.333738
C21_7 C 0.1048(5) 0.9671(11) 0.2219(10)
H22_7 H 0.094713 0.913450 0.182977
H23_7 H 0.078538 0.992419 0.250367
N2_7 N 0.1422(3) 0.9400(5) 0.3015(6)
H17_8 H 0.816570 0.985085 0.087835
C20_8 C 0.8395(5) 0.8503(6) 0.2057(8)
H18_8 H 0.860549 0.805869 0.182298
H19_8 H 0.836080 0.837132 0.273386
H20_8 H 0.809287 0.846388 0.166262
C21_8 C 0.8952(5) 0.9671(11) 0.2781(10)
H22_8 H 0.905287 0.913450 0.317023
H23_8 H 0.921462 0.992419 0.249633
N2_8 N 0.8578(3) 0.9400(5) 0.1985(6)
loop_
_geom_bond_atom_site_label_1
_geom_bond_atom_site_label_2
_geom_bond_site_symmetry_1
_geom_bond_site_symmetry_2
C1 C2 1_555 1_555
C2 C3 1_555 1_555
C3 H1 1_555 1_555
C7 C2 1_555 1_555
H3 C7 1_555 1_555
C8 C6 1_555 1_555
H4 C8 1_555 1_555
H5 C8 1_555 1_555
C9 C10 1_555 1_555
C10 H6 1_555 1_555
C11 C10 1_555 1_555
H7 C11 1_555 1_555
C12 C11 1_555 1_555
C13 C12 1_555 1_555
H8 C13 1_555 1_555
C14 C9 1_555 1_555
H9 C14 1_555 1_555
C15 C12 1_555 1_555
C16 H10 1_555 1_555
C17 H11 1_555 1_555
H12 C17 1_555 1_555
H13 C17 1_555 1_555
C18 H14 1_555 1_555
H16 C18 1_555 1_555
C19 H17 1_555 1_555
C20 H18 1_555 1_555
H19 C20 1_555 1_555
H20 C20 1_555 1_555
C21 H21 1_555 1_555
H22 C21 1_555 1_555
H23 C21 1_555 1_555
N1 C16 1_555 1_555
N2 C19 1_555 1_555
O1 C1 1_555 1_555
O2 C1 1_555 1_555
O4 C15 1_555 1_555
O7 C19 1_555 1_555
O8 C16 1_555 1_555
O9 C8 1_555 1_555
Tb1 O1 1_555 1_555
O10 Tb1 1_555 1_555
O11 Tb1 1_555 1_555
O12 Tb1 1_555 1_555
O13 Tb1 1_555 1_555
O14 Tb1 1_555 1_555
O15 Tb1 1_555 1_555
Tb5 O2 1_555 1_555
C6 C7 1_555 1_555
C9 O9 1_555 1_555
C13 C14 1_555 1_555
C17 N1 1_555 1_555
C18 N1 1_555 1_555
C20 N2 1_555 1_555
C21 N2 1_555 1_555
O7 Tb1 1_555 1_555
O8 Tb1 1_555 1_555
O13 Tb5 1_555 1_555
O14 Tb5 1_555 1_555
Tb2 O3 1_555 1_555
C5 C4 1_555 1_555
H2 C5 1_555 1_555
C22 C4 1_555 1_555
O5 C22 1_555 1_555
O6 C22 1_555 1_555
Tb4 O5 1_555 1_555
C1_2 C2_2 1_555 1_555
C2_2 C3_2 1_555 1_555
C3_2 H1_2 1_555 1_555
C7_2 C2_2 1_555 1_555
H3_2 C7_2 1_555 1_555
C8_2 C6_2 1_555 1_555
H4_2 C8_2 1_555 1_555
H5_2 C8_2 1_555 1_555
C9_2 C10_2 1_555 1_555
C10_2 H6_2 1_555 1_555
C11_2 C10_2 1_555 1_555
H7_2 C11_2 1_555 1_555
C12_2 C11_2 1_555 1_555
C13_2 C12_2 1_555 1_555
H8_2 C13_2 1_555 1_555
C14_2 C9_2 1_555 1_555
H9_2 C14_2 1_555 1_555
C15_2 C12_2 1_555 1_555
O1_2 C1_2 1_555 1_555
O2_2 C1_2 1_555 1_555
O11 C15_2 1_555 1_555
O12 C15_2 1_555 1_555
O9_2 C8_2 1_555 1_555
Tb5_2 O2_2 1_555 1_555
C6_2 C7_2 1_555 1_555
C9_2 O9_2 1_555 1_555
C13_2 C14_2 1_555 1_555
O13_2 Tb5_2 1_555 1_555
C16_2 H10_2 1_555 1_555
C17_2 H11_2 1_555 1_555
H12_2 C17_2 1_555 1_555
H13_2 C17_2 1_555 1_555
C18_2 H14_2 1_555 1_555
H15_2 C18_2 1_555 1_555
H16_2 C18_2 1_555 1_555
C19_2 H17_2 1_555 1_555
C20_2 H18_2 1_555 1_555
H19_2 C20_2 1_555 1_555
H20_2 C20_2 1_555 1_555
C21_2 H21_2 1_555 1_555
H22_2 C21_2 1_555 1_555
H23_2 C21_2 1_555 1_555
N1_2 C16_2 1_555 1_555
N2_2 C19_2 1_555 1_555
O7_2 C19_2 1_555 1_555
O8_2 C16_2 1_555 1_555
O10_2 Tb2 1_555 1_555
O14_2 Tb2 1_555 1_555
C17_2 N1_2 1_555 1_555
C18_2 N1_2 1_555 1_555
C20_2 N2_2 1_555 1_555
C21_2 N2_2 1_555 1_555
O7_2 Tb2 1_555 1_555
O8_2 Tb2 1_555 1_555
C5_2 C4_2 1_555 1_555
H2_2 C5_2 1_555 1_555
C22_2 C4_2 1_555 1_555
O5_2 C22_2 1_555 1_555
O6_2 C22_2 1_555 1_555
Tb3_2 O5_2 1_555 1_555
Tb4_2 O5_2 1_555 1_555
O6_2 Tb3_2 1_555 1_555
H7_3 C11_3 1_555 1_555
C12_3 C11_3 1_555 1_555
C13_3 C12_3 1_555 1_555
H8_3 C13_3 1_555 1_555
C15_3 C12_3 1_555 1_555
O4_2 C15_3 1_555 1_555
Tb3 O3_2 1_555 1_555
C1_3 C2_3 1_555 1_555
C2_3 C3_3 1_555 1_555
C3_3 H1_3 1_555 1_555
C4_3 C3_3 1_555 1_555
C5_3 C4_3 1_555 1_555
H2_3 C5_3 1_555 1_555
C6_3 C5_3 1_555 1_555
C7_3 C2_3 1_555 1_555
H3_3 C7_3 1_555 1_555
C8_3 C6_3 1_555 1_555
H4_3 C8_3 1_555 1_555
H5_3 C8_3 1_555 1_555
C9_3 C10_3 1_555 1_555
C10_3 H6_3 1_555 1_555
C14_3 C9_3 1_555 1_555
H9_3 C14_3 1_555 1_555
C16_3 H10_3 1_555 1_555
C17_3 H11_3 1_555 1_555
H12_3 C17_3 1_555 1_555
H13_3 C17_3 1_555 1_555
C18_3 H14_3 1_555 1_555
H16_3 C18_3 1_555 1_555
C22_3 C4_3 1_555 1_555
N1_3 C16_3 1_555 1_555
O1_3 C1_3 1_555 1_555
O2_3 C1_3 1_555 1_555
O13_2 C22_3 1_555 1_555
O15_2 C22_3 1_555 1_555
O7_3 C19_3 1_555 1_555
O8_3 C16_3 1_555 1_555
O9_3 C8_3 1_555 1_555
Tb3_2 O1_3 1_555 1_555
O10_3 Tb3_2 1_555 1_555
O11_2 Tb3_2 1_555 1_555
O12_2 Tb3_2 1_555 1_555
O14_3 Tb3_2 1_555 1_555
Tb4_2 O2_3 1_555 1_555
C6_3 C7_3 1_555 1_555
C9_3 O9_3 1_555 1_555
C17_3 N1_3 1_555 1_555
C18_3 N1_3 1_555 1_555
O7_3 Tb3_2 1_555 1_555
O8_3 Tb3_2 1_555 1_555
O14_3 Tb4_2 1_555 1_555
C1_4 C2_4 1_555 1_555
C2_4 C3_4 1_555 1_555
C3_4 H1_4 1_555 1_555
C4_4 C3_4 1_555 1_555
C5_4 C4_4 1_555 1_555
H2_4 C5_4 1_555 1_555
C6_4 C5_4 1_555 1_555
C7_4 C2_4 1_555 1_555
H3_4 C7_4 1_555 1_555
C8_4 C6_4 1_555 1_555
H4_4 C8_4 1_555 1_555
H5_4 C8_4 1_555 1_555
C9_4 C10_4 1_555 1_555
C10_4 H6_4 1_555 1_555
C14_4 C9_4 1_555 1_555
H9_4 C14_4 1_555 1_555
C22_4 C4_4 1_555 1_555
O1_4 C1_4 1_555 1_555
O2_4 C1_4 1_555 1_555
O13 C22_4 1_555 1_555
O15 C22_4 1_555 1_555
O9_4 C8_4 1_555 1_555
Tb4 O2_4 1_555 1_555
C6_4 C7_4 1_555 1_555
C9_4 O9_4 1_555 1_555
C16_4 H10_4 1_555 1_555
C17_4 H11_4 1_555 1_555
H12_4 C17_4 1_555 1_555
H13_4 C17_4 1_555 1_555
C18_4 H14_4 1_555 1_555
H15_3 C18_4 1_555 1_555
H16_4 C18_4 1_555 1_555
N1_4 C16_4 1_555 1_555
O7_4 C19_4 1_555 1_555
O8_4 C16_4 1_555 1_555
O10_4 Tb3 1_555 1_555
O14_4 Tb3 1_555 1_555
C17_4 N1_4 1_555 1_555
C18_4 N1_4 1_555 1_555
O7_4 Tb3 1_555 1_555
O8_4 Tb3 1_555 1_555
H7_4 C11_4 1_555 1_555
C12_4 C11_4 1_555 1_555
C13_4 C12_4 1_555 1_555
H8_4 C13_4 1_555 1_555
C15_4 C12_4 1_555 1_555
O11_2 C15_4 1_555 1_555
O12_2 C15_4 1_555 1_555
C5_5 C4_5 1_555 1_555
H2_5 C5_5 1_555 1_555
C22_5 C4_5 1_555 1_555
O14_2 C22_5 1_555 1_555
O6_3 C22_5 1_555 1_555
Tb4 O3_3 1_555 1_555
C1_5 C2_5 1_555 1_555
C2_5 C3_5 1_555 1_555
C3_5 H1_5 1_555 1_555
C7_5 C2_5 1_555 1_555
H3_5 C7_5 1_555 1_555
C8_5 C6_5 1_555 1_555
H4_5 C8_5 1_555 1_555
H5_5 C8_5 1_555 1_555
C9_5 C10_5 1_555 1_555
C10_5 H6_5 1_555 1_555
C11_5 C10_5 1_555 1_555
H7_5 C11_5 1_555 1_555
C12_5 C11_5 1_555 1_555
C13_5 C12_5 1_555 1_555
H8_5 C13_5 1_555 1_555
C14_5 C9_5 1_555 1_555
H9_5 C14_5 1_555 1_555
C15_5 C12_5 1_555 1_555
C16_5 H10_5 1_555 1_555
C17_5 H11_5 1_555 1_555
H12_5 C17_5 1_555 1_555
H13_5 C17_5 1_555 1_555
C18_5 H14_5 1_555 1_555
H16_5 C18_5 1_555 1_555
C19_5 H17_3 1_555 1_555
C20_3 H18_3 1_555 1_555
H19_3 C20_3 1_555 1_555
H20_3 C20_3 1_555 1_555
C21_3 H21_5 1_555 1_555
H22_3 C21_3 1_555 1_555
H23_3 C21_3 1_555 1_555
N1_5 C16_5 1_555 1_555
N2_3 C19_5 1_555 1_555
O1_5 C1_5 1_555 1_555
O10_3 C1_5 1_555 1_555
O4_3 C15_5 1_555 1_555
O7_5 C19_5 1_555 1_555
O8_5 C16_5 1_555 1_555
O9_5 C8_5 1_555 1_555
Tb4_2 O1_5 1_555 1_555
O11_3 Tb4_2 1_555 1_555
O12_3 Tb4_2 1_555 1_555
O15_3 Tb4_2 1_555 1_555
C6_5 C7_5 1_555 1_555
C9_5 O9_5 1_555 1_555
C13_5 C14_5 1_555 1_555
C17_5 N1_5 1_555 1_555
C18_5 N1_5 1_555 1_555
C20_3 N2_3 1_555 1_555
C21_3 N2_3 1_555 1_555
O7_5 Tb4_2 1_555 1_555
O8_5 Tb4_2 1_555 1_555
C5_6 C4_6 1_555 1_555
H2_6 C5_6 1_555 1_555
C22_6 C4_6 1_555 1_555
O14 C22_6 1_555 1_555
O6_4 C22_6 1_555 1_555
O6_4 Tb5 1_555 1_555
C16_6 H10_6 1_555 1_555
C17_6 H11_6 1_555 1_555
H12_6 C17_6 1_555 1_555
H13_6 C17_6 1_555 1_555
C18_6 H14_6 1_555 1_555
H15_4 C18_6 1_555 1_555
H16_6 C18_6 1_555 1_555
C19_6 H17_4 1_555 1_555
C20_4 H18_4 1_555 1_555
H19_4 C20_4 1_555 1_555
H20_4 C20_4 1_555 1_555
C21_4 H21_6 1_555 1_555
H22_4 C21_4 1_555 1_555
H23_4 C21_4 1_555 1_555
N1_6 C16_6 1_555 1_555
N2_4 C19_6 1_555 1_555
O7_6 C19_6 1_555 1_555
O8_6 C16_6 1_555 1_555
C17_6 N1_6 1_555 1_555
C18_6 N1_6 1_555 1_555
C20_4 N2_4 1_555 1_555
C21_4 N2_4 1_555 1_555
O7_6 Tb4 1_555 1_555
O8_6 Tb4 1_555 1_555
C1_6 C2_6 1_555 1_555
C2_6 C3_6 1_555 1_555
C3_6 H1_6 1_555 1_555
C7_6 C2_6 1_555 1_555
H3_6 C7_6 1_555 1_555
C8_6 C6_6 1_555 1_555
H4_6 C8_6 1_555 1_555
H5_6 C8_6 1_555 1_555
C9_6 C10_6 1_555 1_555
C10_6 H6_6 1_555 1_555
C11_6 C10_6 1_555 1_555
H7_6 C11_6 1_555 1_555
C12_6 C11_6 1_555 1_555
C13_6 C12_6 1_555 1_555
H8_6 C13_6 1_555 1_555
C14_6 C9_6 1_555 1_555
H9_6 C14_6 1_555 1_555
C15_6 C12_6 1_555 1_555
O1_6 C1_6 1_555 1_555
O10_4 C1_6 1_555 1_555
O11_3 C15_6 1_555 1_555
O12_3 C15_6 1_555 1_555
O9_6 C8_6 1_555 1_555
C6_6 C7_6 1_555 1_555
C9_6 O9_6 1_555 1_555
C13_6 C14_6 1_555 1_555
C1_7 C2_7 1_555 1_555
C2_7 C3_7 1_555 1_555
C3_7 H1_7 1_555 1_555
C4_7 C3_7 1_555 1_555
C5_7 C4_7 1_555 1_555
H2_7 C5_7 1_555 1_555
C6_7 C5_7 1_555 1_555
C7_7 C2_7 1_555 1_555
H3_7 C7_7 1_555 1_555
C8_7 C6_7 1_555 1_555
H4_7 C8_7 1_555 1_555
H5_7 C8_7 1_555 1_555
C9_7 C10_7 1_555 1_555
C10_7 H6_7 1_555 1_555
C14_7 C9_7 1_555 1_555
H9_7 C14_7 1_555 1_555
C16_7 H10_7 1_555 1_555
C17_7 H11_7 1_555 1_555
H12_7 C17_7 1_555 1_555
H13_7 C17_7 1_555 1_555
C18_7 H14_7 1_555 1_555
H16_7 C18_7 1_555 1_555
C22_7 C4_7 1_555 1_555
N1_7 C16_7 1_555 1_555
O1_7 C1_7 1_555 1_555
O10 C1_7 1_555 1_555
O14_4 C22_7 1_555 1_555
O15_4 C22_7 1_555 1_555
O7_7 C19_7 1_555 1_555
O8_7 C16_7 1_555 1_555
O9_7 C8_7 1_555 1_555
Tb5 O1_7 1_555 1_555
O11_4 Tb5 1_555 1_555
O12_4 Tb5 1_555 1_555
C6_7 C7_7 1_555 1_555
C9_7 O9_7 1_555 1_555
C17_7 N1_7 1_555 1_555
C18_7 N1_7 1_555 1_555
O7_7 Tb5 1_555 1_555
O8_7 Tb5 1_555 1_555
Tb5_2 O3_4 1_555 1_555
H7_7 C11_7 1_555 1_555
C12_7 C11_7 1_555 1_555
C13_7 C12_7 1_555 1_555
H8_7 C13_7 1_555 1_555
C15_7 C12_7 1_555 1_555
O4_4 C15_7 1_555 1_555
H7_8 C11_8 1_555 1_555
C12_8 C11_8 1_555 1_555
C13_8 C12_8 1_555 1_555
H8_8 C13_8 1_555 1_555
C15_8 C12_8 1_555 1_555
O11_4 C15_8 1_555 1_555
O12_4 C15_8 1_555 1_555
C16_8 H10_8 1_555 1_555
C17_8 H11_8 1_555 1_555
H12_8 C17_8 1_555 1_555
H13_8 C17_8 1_555 1_555
C18_8 H14_8 1_555 1_555
H15_5 C18_8 1_555 1_555
H16_8 C18_8 1_555 1_555
N1_8 C16_8 1_555 1_555
O7_8 C19_8 1_555 1_555
O8_8 C16_8 1_555 1_555
C17_8 N1_8 1_555 1_555
C18_8 N1_8 1_555 1_555
O7_8 Tb5_2 1_555 1_555
O8_8 Tb5_2 1_555 1_555
C1_8 C2_8 1_555 1_555
C2_8 C3_8 1_555 1_555
C3_8 H1_8 1_555 1_555
C4_8 C3_8 1_555 1_555
C5_8 C4_8 1_555 1_555
H2_8 C5_8 1_555 1_555
C6_8 C5_8 1_555 1_555
C7_8 C2_8 1_555 1_555
H3_8 C7_8 1_555 1_555
C8_8 C6_8 1_555 1_555
H4_8 C8_8 1_555 1_555
H5_8 C8_8 1_555 1_555
C9_8 C10_8 1_555 1_555
C10_8 H6_8 1_555 1_555
C14_8 C9_8 1_555 1_555
H9_8 C14_8 1_555 1_555
C22_8 C4_8 1_555 1_555
O1_8 C1_8 1_555 1_555
O10_2 C1_8 1_555 1_555
O14_3 C22_8 1_555 1_555
O15_3 C22_8 1_555 1_555
O9_8 C8_8 1_555 1_555
C6_8 C7_8 1_555 1_555
C9_8 O9_8 1_555 1_555
C20_5 H18_5 1_555 1_555
H19_5 C20_5 1_555 1_555
H20_5 C20_5 1_555 1_555
H22_5 C21_5 1_555 1_555
H23_5 C21_5 1_555 1_555
C20_5 N2_5 1_555 1_555
C21_5 N2_5 1_555 1_555
C20_6 H18_6 1_555 1_555
H19_6 C20_6 1_555 1_555
H20_6 C20_6 1_555 1_555
H22_6 C21_6 1_555 1_555
H23_6 C21_6 1_555 1_555
C20_6 N2_6 1_555 1_555
C21_6 N2_6 1_555 1_555
C20_7 H18_7 1_555 1_555
H19_7 C20_7 1_555 1_555
H20_7 C20_7 1_555 1_555
H22_7 C21_7 1_555 1_555
H23_7 C21_7 1_555 1_555
C20_7 N2_7 1_555 1_555
C21_7 N2_7 1_555 1_555
C20_8 H18_8 1_555 1_555
H19_8 C20_8 1_555 1_555
H20_8 C20_8 1_555 1_555
H22_8 C21_8 1_555 1_555
H23_8 C21_8 1_555 1_555
C20_8 N2_8 1_555 1_555
C21_8 N2_8 1_555 1_555

#END
