
###############################################################################
#
# This file contains modified crystal structure data generated from the
# MOF subset of the Cambridge Structural Database (CSD) v543 
# hosted by the Cambridge Crystallographic Data Centre (CCDC).
#
# This work is licensed under the Creative Commons
# Attribution-NonCommercial-ShareAlike 4.0 International License.
# To view a copy of this license, visit
# http://creativecommons.org/licenses/by-nc-sa/4.0/
# or send a letter to
# Creative Commons, PO Box 1866, Mountain View, CA 94042, USA.
#
# CIF created using the CSD Python API on 29 September 2022
# The structure has been converted into the P1 space group
# The structure has a 3D framework
# The original CSD entry CIJLIT is in the orthorhombic crystal system
# The original CSD entry CIJLIT is in a Sohncke space group
# The framework has been calculated to contain at least 10.0% void space
# The void calculation uses a probe of radius 1.32A, grid spacing 0.4
# The framework is charged, counterions have been retained in the structure
# H atom positions have been added when not included in the experimental data
#
###############################################################################

data_CIJLIT
_chemical_formula_moiety         '(C180 H108 N8 O104 Zn14 4-)n'
_symmetry_cell_setting           triclinic
_symmetry_space_group_name_H-M   'P 1'
_symmetry_Int_Tables_number      1
_space_group_name_Hall           'P 1'
loop_
_symmetry_equiv_pos_site_id
_symmetry_equiv_pos_as_xyz
1 x,y,z
_cell_length_a                   17.4270(2)
_cell_length_b                   22.7852(8)
_cell_length_c                   25.2350(7)
_cell_angle_alpha                90
_cell_angle_beta                 90
_cell_angle_gamma                90
_cell_volume                     10020.3
loop_
_atom_site_label
_atom_site_type_symbol
_atom_site_fract_x
_atom_site_fract_y
_atom_site_fract_z
H4 H 0.424994 0.258159 0.022846
Zn10 Zn 0.08680(3) 0.25629(3) 0.01134(3)
O28 O 0.25518(17) 0.21521(19) 0.06836(15)
O29 O 0.5813(2) 0.32552(18) 0.02350(15)
O30 O 0.25624(19) 0.32935(19) 0.02815(17)
O31 O 0.5871(2) 0.20673(19) 0.06165(15)
Zn1 Zn 0.25399(2) 0.25017(4) 0.99524(3)
Zn2 Zn 0.58680(3) 0.24371(3) 0.98866(3)
O1 O 0.48081(15) 0.23182(19) 0.96437(14)
O6 O 0.0871(2) 0.29327(19) 0.93835(15)
O7 O 0.35684(16) 0.2359(2) 0.96764(15)
O9 O 0.2142(2) 0.2898(2) 0.92841(18)
O15 O 0.33401(19) 0.3554(3) 0.7627(3)
C8 C 0.4218(2) 0.2435(2) 0.9885(2)
C15 C 0.1471(3) 0.3008(3) 0.9120(3)
C17 C 0.1411(3) 0.3280(3) 0.8590(3)
C22 C 0.0649(2) 0.3767(4) 0.7903(3)
C23 C 0.0720(3) 0.3493(3) 0.8401(2)
H9 H 0.028476 0.345465 0.861106
O19 O 0.2614(3) 0.3604(4) 0.6905(3)
C28 C 0.2064(3) 0.3359(4) 0.8281(3)
H12 H 0.254528 0.327529 0.842159
C37 C 0.2723(4) 0.3595(6) 0.7398(4)
H16 H 0.039634 0.478485 0.741850
C42 C 0.1309(3) 0.3816(5) 0.7604(3)
H18 H 0.129237 0.402415 0.728688
C43 C 0.2002(3) 0.3563(6) 0.7764(4)
Zn13 Zn 0.41777(5) 0.37211(7) 0.71332(4)
O27 O 0.62697(18) 0.2820(2) 0.92205(16)
O32 O 0.2087(2) 0.1715(2) 0.96993(18)
O33 O 0.62885(18) 0.1661(2) 0.95977(17)
Zn6 Zn 0.75399(2) 0.24983(4) 0.00476(3)
Zn3 Zn 0.58536(5) 0.45148(5) 0.64625(5)
O3 O 0.75518(17) 0.28479(19) 0.93164(15)
O5 O 0.24376(19) 0.67065(19) 0.52815(17)
O10 O 0.37115(18) 0.6661(2) 0.54023(17)
O11 O 0.5101(2) 0.3571(3) 0.7587(2)
O12 O 0.9893(3) 0.5661(3) 0.6997(3)
C1 C 0.7718(3) 0.3509(3) 0.8372(3)
H1 H 0.815059 0.346680 0.858419
O13 O 0.5829(2) 0.3842(3) 0.6921(2)
C2 C 0.7001(3) 0.3266(3) 0.8543(3)
C3 C 0.7773(3) 0.3799(3) 0.7907(3)
C4 C 0.3565(3) 0.5019(4) 0.6125(4)
C7 C 0.0759(3) 0.5022(3) 0.5938(2)
H3 H 0.077718 0.542827 0.590196
N1 N 0.9280(4) 0.5427(3) 0.7140(3)
C9 C 0.3623(3) 0.5559(4) 0.5920(4)
H5 H 0.409858 0.574482 0.591567
C11 C 0.2965(3) 0.5857(3) 0.5707(3)
C13 C 0.0047(3) 0.4736(3) 0.5939(3)
C14 C 0.8519(3) 0.4074(4) 0.7737(3)
C16 C 0.6352(3) 0.3343(3) 0.8225(3)
H6 H 0.587998 0.319751 0.833685
C19 C 0.2200(3) 0.5032(3) 0.5962(3)
O17 O 0.4878(2) 0.4959(3) 0.6289(3)
C20 C 0.3037(3) 0.6448(3) 0.5446(3)
C21 C 0.2855(3) 0.4757(4) 0.6165(4)
H8 H 0.281002 0.439273 0.632898
O18 O 0.5770(3) 0.4003(4) 0.5842(3)
C24 C 0.6932(2) 0.2961(3) 0.9064(3)
C25 C 0.9210(3) 0.3796(3) 0.7868(2)
H10 H 0.919941 0.343184 0.803465
C26 C 0.2268(3) 0.5577(3) 0.5744(3)
H11 H 0.183076 0.576433 0.561648
C27 C 0.9904(3) 0.4054(4) 0.7754(3)
C30 C 0.7123(3) 0.3859(3) 0.7570(3)
H14 H 0.716784 0.404140 0.724124
C32 C 0.9237(4) 0.4858(3) 0.7371(3)
O20 O 0.8678(5) 0.5725(3) 0.7068(3)
C33 C 0.6408(3) 0.3637(5) 0.7743(3)
C34 C 0.1443(3) 0.4708(4) 0.5991(3)
C35 C 0.5746(3) 0.3709(5) 0.7397(3)
C36 C 0.8543(3) 0.4596(4) 0.7498(3)
H15 H 0.808688 0.478690 0.741624
O21 O 0.5902(3) 0.4983(3) 0.7183(3)
O22 O 0.4170(3) 0.4233(4) 0.6556(4)
C38 C 0.4235(4) 0.4728(5) 0.6357(5)
C40 C 0.9933(3) 0.4603(4) 0.7498(3)
C41 C 0.1410(4) 0.4116(4) 0.6074(5)
H17 H 0.185024 0.390000 0.614639
O23 O 0.4189(6) 0.2960(4) 0.6721(4)
C44 C 0.0034(4) 0.4134(4) 0.5946(6)
C45 C 0.0715(5) 0.3856(5) 0.6047(7)
N2 N 0.0730(8) 0.3200(5) 0.6127(12)
O24 O 0.0091(7) 0.2984(5) 0.6301(12)
O25 O 0.1327(6) 0.2912(4) 0.6011(9)
O26 O 0.4224(6) 0.4673(5) 0.7518(4)
Zn5 Zn 0.24601(2) 0.74983(4) 0.49524(3)
Zn11 Zn 0.41320(3) 0.74371(3) 0.51134(3)
O34 O 0.7272(3) 0.4275(4) 0.6363(3)
O36 O 0.6590(2) 0.5093(4) 0.6121(2)
H20 H 0.528594 0.377425 0.586292
H21 H 0.576804 0.424551 0.551505
H22 H 0.472273 0.486086 0.743169
H23 H 0.379871 0.491556 0.737441
H24 H 0.636702 0.486393 0.738338
H25 H 0.592414 0.541049 0.710802
H26 H 0.413755 0.262478 0.696993
H27 H 0.375457 0.295596 0.64664
O4 O 0.9187(2) 0.67448(18) 0.52350(15)
O8 O 0.7913(2) 0.6715(2) 0.53007(18)
C5 C 0.7930(3) 0.5642(4) 0.5759(3)
H2 H 0.746690 0.584065 0.572749
C6 C 0.8596(3) 0.5904(3) 0.5587(2)
C10 C 0.8571(3) 0.6509(3) 0.5364(2)
C12 C 0.9314(3) 0.5041(3) 0.5863(3)
C18 C 0.9285(3) 0.5613(3) 0.5648(2)
H7 H 0.973824 0.579703 0.554648
C29 C 0.8627(3) 0.4800(4) 0.6057(3)
H13 H 0.863545 0.444538 0.623900
C31 C 0.7941(3) 0.5089(4) 0.5977(3)
C39 C 0.7229(3) 0.4762(4) 0.6191(3)
H19 H 0.958381 0.392453 0.588639
Zn7 Zn 0.74601(2) 0.75017(4) 0.50476(3)
Zn9 Zn 0.91320(3) 0.75629(3) 0.48866(3)
Zn4 Zn 0.08223(5) 0.62789(7) 0.21332(4)
O8_2 O 0.7087(2) 0.3285(2) 0.03007(18)
O10_2 O 0.12885(18) 0.3339(2) 0.04023(17)
O14 O 0.7728(3) 0.5725(4) 0.1363(3)
C4_2 C 0.1435(3) 0.4981(4) 0.1125(4)
C5_2 C 0.7070(3) 0.4358(4) 0.0759(3)
H2_2 H 0.753310 0.415935 0.072749
C6_2 C 0.6404(3) 0.4096(3) 0.0587(2)
C7_2 C 0.4241(3) 0.4978(3) 0.0938(2)
H3_2 H 0.422282 0.457173 0.090196
C9_2 C 0.1377(3) 0.4441(4) 0.0920(4)
H5_2 H 0.090142 0.425518 0.091567
C10_2 C 0.6429(3) 0.3491(3) 0.0364(2)
C11_2 C 0.2035(3) 0.4143(3) 0.0707(3)
C12_2 C 0.5686(3) 0.4959(3) 0.0863(3)
C13_2 C 0.4953(3) 0.5264(3) 0.0939(3)
O16 O 0.8410(2) 0.4907(4) 0.1121(2)
C18_2 C 0.5715(3) 0.4387(3) 0.0648(2)
H7_2 H 0.526176 0.420297 0.054648
C19_2 C 0.2800(3) 0.4968(3) 0.0962(3)
O17_2 O 0.0122(2) 0.5041(3) 0.1289(3)
C20_2 C 0.1963(3) 0.3552(3) 0.0446(3)
C21_2 C 0.2145(3) 0.5243(4) 0.1165(4)
H8_2 H 0.218998 0.560727 0.132898
C26_2 C 0.2732(3) 0.4423(3) 0.0744(3)
H11_2 H 0.316924 0.423567 0.061648
C29_2 C 0.6373(3) 0.5200(4) 0.1057(3)
H13_2 H 0.636455 0.555462 0.123900
C31_2 C 0.7059(3) 0.4911(4) 0.0977(3)
C34_2 C 0.3557(3) 0.5292(4) 0.0991(3)
O22_2 O 0.0830(3) 0.5767(4) 0.1556(4)
C38_2 C 0.0765(4) 0.5272(5) 0.1357(5)
C39_2 C 0.7771(3) 0.5238(4) 0.1191(3)
C41_2 C 0.3590(4) 0.5884(4) 0.1074(5)
H17_2 H 0.314976 0.610000 0.114639
O23_2 O 0.0811(6) 0.7040(4) 0.1721(4)
C44_2 C 0.4966(4) 0.5866(4) 0.0946(6)
H19_2 H 0.541619 0.607547 0.088639
C45_2 C 0.4285(5) 0.6144(5) 0.1047(7)
N2_2 N 0.4270(8) 0.6800(5) 0.1127(12)
O24_2 O 0.4909(7) 0.7016(5) 0.1301(12)
O25_2 O 0.3673(6) 0.7088(4) 0.1011(9)
O26_2 O 0.0776(6) 0.5327(5) 0.2518(4)
Zn12 Zn 0.91464(5) 0.54852(5) 0.14625(5)
O35 O 0.16599(19) 0.6446(3) 0.2627(3)
H22_2 H 0.0277271 0.513914 0.243169
H23_2 H 0.120129 0.508444 0.237441
H26_2 H 0.0862449 0.737522 0.196993
H27_2 H 0.124543 0.704404 0.14664
O1_2 O 0.01919(15) 0.76818(19) 0.46437(14)
O2 O 0.87303(18) 0.7180(2) 0.42205(16)
O3_2 O 0.74482(17) 0.71521(19) 0.43164(15)
O6_2 O 0.4129(2) 0.70673(19) 0.43835(15)
O7_2 O 0.14316(16) 0.7641(2) 0.46764(15)
O9_2 O 0.2858(2) 0.7102(2) 0.42841(18)
O11_2 O 0.9899(2) 0.6429(3) 0.2587(2)
O12_2 O 0.5107(3) 0.4339(3) 0.1997(3)
C1_2 C 0.7282(3) 0.6491(3) 0.3372(3)
H1_2 H 0.684941 0.653320 0.358419
O13_2 O 0.9171(2) 0.6158(3) 0.1921(2)
C2_2 C 0.7999(3) 0.6734(3) 0.3543(3)
C3_2 C 0.7227(3) 0.6201(3) 0.2907(3)
N1_2 N 0.5720(4) 0.4573(3) 0.2140(3)
C8_2 C 0.0782(2) 0.7565(2) 0.4885(2)
H4_2 H 0.075006 0.741841 0.522846
C14_2 C 0.6481(3) 0.5926(4) 0.2737(3)
C15_2 C 0.3529(3) 0.6992(3) 0.4120(3)
C16_2 C 0.8648(3) 0.6657(3) 0.3225(3)
H6_2 H 0.912002 0.680249 0.333685
C17_2 C 0.3589(3) 0.6720(3) 0.3590(3)
C22_2 C 0.4351(2) 0.6233(4) 0.2903(3)
O18_2 O 0.9230(3) 0.5997(4) 0.0842(3)
C23_2 C 0.4280(3) 0.6507(3) 0.3401(2)
H9_2 H 0.471524 0.654535 0.361106
C24_2 C 0.8068(2) 0.7039(3) 0.4064(3)
C25_2 C 0.5790(3) 0.6204(3) 0.2868(2)
H10_2 H 0.580059 0.656816 0.303465
O19_2 O 0.2386(3) 0.6396(4) 0.1905(3)
C27_2 C 0.5096(3) 0.5946(4) 0.2754(3)
C28_2 C 0.2936(3) 0.6641(4) 0.3281(3)
H12_2 H 0.245472 0.672471 0.342159
C30_2 C 0.7877(3) 0.6141(3) 0.2570(3)
H14_2 H 0.783216 0.595860 0.224124
C32_2 C 0.5763(4) 0.5142(3) 0.2371(3)
O20_2 O 0.6322(5) 0.4275(3) 0.2068(3)
C33_2 C 0.8592(3) 0.6363(5) 0.2743(3)
C35_2 C 0.9254(3) 0.6291(5) 0.2397(3)
C36_2 C 0.6457(3) 0.5404(4) 0.2498(3)
H15_2 H 0.691312 0.521310 0.241624
O21_2 O 0.9098(3) 0.5017(3) 0.2183(3)
C37_2 C 0.2277(4) 0.6405(6) 0.2398(4)
C40_2 C 0.5067(3) 0.5397(4) 0.2498(3)
H16_2 H 0.460366 0.521515 0.241850
C42_2 C 0.3691(3) 0.6184(5) 0.2604(3)
H18_2 H 0.370763 0.597585 0.228688
C43_2 C 0.2998(3) 0.6437(6) 0.2764(4)
O28_2 O 0.24482(17) 0.78479(19) 0.56836(15)
O32_2 O 0.2913(2) 0.8285(2) 0.46993(18)
H20_2 H 0.971406 0.622575 0.0862923
H21_2 H 0.923196 0.575449 0.0515051
H24_2 H 0.863298 0.513607 0.238338
H25_2 H 0.907586 0.458951 0.210802
O31_2 O 0.9129(2) 0.79327(19) 0.56165(15)
O33_2 O 0.87115(18) 0.8339(2) 0.45977(17)
O27_2 O 0.12697(18) 0.2180(2) 0.07795(16)
O29_2 O 0.0813(2) 0.17448(18) 0.97650(15)
Zn3_2 Zn 0.08536(5) 0.04852(5) 0.35375(5)
O1_3 O 0.98081(15) 0.26818(19) 0.03563(14)
O7_3 O 0.85684(16) 0.2641(2) 0.03236(15)
O9_3 O 0.7142(2) 0.2102(2) 0.07159(18)
O11_3 O 0.0101(2) 0.1429(3) 0.2413(2)
C1_3 C 0.2718(3) 0.1491(3) 0.1628(3)
H1_3 H 0.315059 0.153320 0.141581
O13_3 O 0.0829(2) 0.1158(3) 0.3079(2)
O15_2 O 0.83401(19) 0.1446(3) 0.2373(3)
C2_3 C 0.2001(3) 0.1734(3) 0.1457(3)
C3_3 C 0.2773(3) 0.1201(3) 0.2093(3)
C8_3 C 0.9218(2) 0.2565(2) 0.0115(2)
C14_3 C 0.3519(3) 0.0926(4) 0.2263(3)
C15_3 C 0.6471(3) 0.1992(3) 0.0880(3)
C16_3 C 0.1352(3) 0.1657(3) 0.1775(3)
H6_3 H 0.087998 0.180249 0.166315
C17_3 C 0.6411(3) 0.1720(3) 0.1410(3)
C22_3 C 0.5649(2) 0.1233(4) 0.2097(3)
O18_3 O 0.0770(3) 0.0997(4) 0.4158(3)
C23_3 C 0.5720(3) 0.1507(3) 0.1599(2)
H9_3 H 0.528476 0.154535 0.138894
C24_3 C 0.1932(2) 0.2039(3) 0.0936(3)
C25_3 C 0.4210(3) 0.1204(3) 0.2132(2)
H10_3 H 0.419941 0.156816 0.196535
O19_3 O 0.7614(3) 0.1396(4) 0.3095(3)
C27_3 C 0.4904(3) 0.0946(4) 0.2246(3)
C28_3 C 0.7064(3) 0.1641(4) 0.1719(3)
H12_3 H 0.754528 0.172471 0.157841
C30_3 C 0.2123(3) 0.1141(3) 0.2430(3)
H14_3 H 0.216784 0.095860 0.275876
C32_3 C 0.4237(4) 0.0142(3) 0.2629(3)
C33_3 C 0.1408(3) 0.1363(5) 0.2257(3)
C35_3 C 0.0746(3) 0.1291(5) 0.2603(3)
C36_3 C 0.3543(3) 0.0404(4) 0.2502(3)
H15_3 H 0.308688 0.021310 0.258376
O21_3 O 0.0902(3) 0.0017(3) 0.2817(3)
C37_3 C 0.7723(4) 0.1405(6) 0.2602(4)
C40_3 C 0.4933(3) 0.0397(4) 0.2502(3)
H16_3 H 0.539634 0.021515 0.258150
C42_3 C 0.6309(3) 0.1184(5) 0.2396(3)
H18_3 H 0.629237 0.097585 0.271312
C43_3 C 0.7002(3) 0.1437(6) 0.2236(4)
Zn13_2 Zn 0.91777(5) 0.12789(7) 0.28668(4)
O34_2 O 0.2272(3) 0.0725(4) 0.3637(3)
H20_3 H 0.0285943 0.122575 0.413708
H21_3 H 0.0768043 0.0754492 0.448495
H24_3 H 0.136702 0.0136073 0.261662
H4_3 H 0.924994 0.241841 0.977154
O30_2 O 0.75624(19) 0.17065(19) 0.97185(17)
O12_3 O 0.4893(3) 0.9339(3) 0.3003(3)
N1_3 N 0.4280(4) 0.9573(3) 0.2860(3)
O20_3 O 0.3678(5) 0.9275(3) 0.2932(3)
O36_2 O 0.1590(2) 0.9907(4) 0.3879(2)
H25_3 H 0.092414 0.958951 0.289198
C13_3 C 0.5047(3) 0.0264(3) 0.4061(3)
O17_3 O 0.9878(2) 0.0041(3) 0.3711(3)
C21_3 C 0.7855(3) 0.0243(4) 0.3835(4)
H8_3 H 0.781002 0.060727 0.367102
C29_3 C 0.3627(3) 0.0200(4) 0.3943(3)
H13_3 H 0.363545 0.055462 0.376100
C34_3 C 0.6443(3) 0.0292(4) 0.4009(3)
O22_3 O 0.9170(3) 0.0767(4) 0.3444(4)
C38_3 C 0.9235(4) 0.0272(5) 0.3643(5)
C39_3 C 0.2229(3) 0.0238(4) 0.3809(3)
C41_3 C 0.6410(4) 0.0884(4) 0.3926(5)
H17_3 H 0.685024 0.110000 0.385361
O23_3 O 0.9189(6) 0.2040(4) 0.3279(4)
C44_3 C 0.5034(4) 0.0866(4) 0.4054(6)
H19_3 H 0.458381 0.107547 0.411361
C45_3 C 0.5715(5) 0.1144(5) 0.3953(7)
N2_3 N 0.5730(8) 0.1800(5) 0.3873(12)
O24_3 O 0.5091(7) 0.2016(5) 0.3699(12)
O25_3 O 0.6327(6) 0.2088(4) 0.3989(9)
O26_3 O 0.9224(6) 0.0327(5) 0.2482(4)
H22_3 H 0.972273 0.0139141 0.256831
H23_3 H 0.879871 0.00844447 0.262559
H26_3 H 0.913755 0.237522 0.303007
H27_3 H 0.875457 0.204404 0.35336
O4_2 O 0.4187(2) 0.82552(18) 0.47650(15)
O5_2 O 0.74376(19) 0.82935(19) 0.47185(17)
C4_3 C 0.8565(3) 0.9981(4) 0.3875(4)
C5_3 C 0.2930(3) 0.9358(4) 0.4241(3)
H2_3 H 0.246690 0.915935 0.427251
C6_3 C 0.3596(3) 0.9096(3) 0.4413(2)
C7_3 C 0.5759(3) 0.9978(3) 0.4062(2)
H3_3 H 0.577718 0.957173 0.409804
C9_3 C 0.8623(3) 0.9441(4) 0.4080(4)
H5_3 H 0.909858 0.925518 0.408433
C10_3 C 0.3571(3) 0.8491(3) 0.4636(2)
C11_3 C 0.7965(3) 0.9143(3) 0.4293(3)
C12_3 C 0.4314(3) 0.9959(3) 0.4137(3)
C18_3 C 0.4285(3) 0.9387(3) 0.4352(2)
H7_3 H 0.473824 0.920297 0.445352
C19_3 C 0.7200(3) 0.9968(3) 0.4038(3)
C20_3 C 0.8037(3) 0.8552(3) 0.4554(3)
C26_3 C 0.7268(3) 0.9423(3) 0.4256(3)
H11_3 H 0.683076 0.923567 0.438352
C31_3 C 0.2941(3) 0.9911(4) 0.4023(3)
C5_4 C 0.2070(3) 0.0642(4) 0.9241(3)
H2_4 H 0.253310 0.084065 0.927251
C6_4 C 0.1404(3) 0.0904(3) 0.9413(2)
C10_4 C 0.1429(3) 0.1509(3) 0.9636(2)
C12_4 C 0.0686(3) 0.0041(3) 0.9137(3)
O16_2 O 0.3410(2) 0.0093(4) 0.8879(2)
C18_4 C 0.0715(3) 0.0613(3) 0.9352(2)
H7_4 H 0.026176 0.079703 0.945352
C31_4 C 0.2059(3) 0.0089(4) 0.9023(3)
O14_2 O 0.2728(3) 0.9275(4) 0.8637(3)
C29_4 C 0.1373(3) 0.9800(4) 0.8943(3)
H13_4 H 0.136455 0.944538 0.876100
C39_4 C 0.2771(3) 0.9762(4) 0.8809(3)
H19_4 H 0.041619 0.892453 0.911361
Zn12_2 Zn 0.41464(5) 0.95148(5) 0.85375(5)
O12_4 O 0.0107(3) 0.0661(3) 0.8003(3)
C4_4 C 0.6435(3) 0.0019(4) 0.8875(4)
C7_4 C 0.9241(3) 0.0022(3) 0.9062(2)
H3_4 H 0.922282 0.042827 0.909804
N1_4 N 0.0720(4) 0.0427(3) 0.7860(3)
C9_4 C 0.6377(3) 0.0559(4) 0.9080(4)
H5_4 H 0.590142 0.074482 0.908433
C11_4 C 0.7035(3) 0.0857(3) 0.9293(3)
C19_4 C 0.7800(3) 0.0032(3) 0.9038(3)
C20_4 C 0.6963(3) 0.1448(3) 0.9554(3)
C26_4 C 0.7732(3) 0.0577(3) 0.9256(3)
H11_4 H 0.816924 0.076433 0.938352
O20_4 O 0.1322(5) 0.0725(3) 0.7932(3)
H25_4 H 0.407586 0.0410488 0.789198
Zn4_2 Zn 0.58223(5) 0.87211(7) 0.78668(4)
O2_2 O 0.37303(18) 0.7820(2) 0.57795(16)
O11_4 O 0.4899(2) 0.8571(3) 0.7413(2)
C1_4 C 0.2282(3) 0.8509(3) 0.6628(3)
H1_4 H 0.184941 0.846680 0.641581
O13_4 O 0.4171(2) 0.8842(3) 0.8079(2)
C2_4 C 0.2999(3) 0.8266(3) 0.6457(3)
C3_4 C 0.2227(3) 0.8799(3) 0.7093(3)
C13_4 C 0.9953(3) 0.9736(3) 0.9061(3)
C14_4 C 0.1481(3) 0.9074(4) 0.7263(3)
C16_4 C 0.3648(3) 0.8343(3) 0.6775(3)
H6_4 H 0.412002 0.819751 0.666315
O17_4 O 0.5122(2) 0.9959(3) 0.8711(3)
C21_4 C 0.7145(3) 0.9757(4) 0.8835(4)
H8_4 H 0.718998 0.939273 0.867102
O18_4 O 0.4230(3) 0.9003(4) 0.9158(3)
C24_4 C 0.3068(2) 0.7961(3) 0.5936(3)
C25_4 C 0.0790(3) 0.8796(3) 0.7132(2)
H10_4 H 0.080059 0.843184 0.696535
C27_4 C 0.0096(3) 0.9054(4) 0.7246(3)
C30_4 C 0.2877(3) 0.8859(3) 0.7430(3)
H14_4 H 0.283216 0.904140 0.775876
C32_4 C 0.0763(4) 0.9858(3) 0.7629(3)
C33_4 C 0.3592(3) 0.8637(5) 0.7257(3)
C34_4 C 0.8557(3) 0.9708(4) 0.9009(3)
C35_4 C 0.4254(3) 0.8709(5) 0.7603(3)
C36_4 C 0.1457(3) 0.9596(4) 0.7502(3)
H15_4 H 0.191312 0.978690 0.758376
O21_4 O 0.4098(3) 0.9983(3) 0.7817(3)
O22_4 O 0.5830(3) 0.9233(4) 0.8444(4)
C38_4 C 0.5765(4) 0.9728(5) 0.8643(5)
C40_4 C 0.0067(3) 0.9603(4) 0.7502(3)
C41_4 C 0.8590(4) 0.9116(4) 0.8926(5)
H17_4 H 0.814976 0.890000 0.885361
O23_4 O 0.5811(6) 0.7960(4) 0.8279(4)
C44_4 C 0.9966(4) 0.9134(4) 0.9054(6)
C45_4 C 0.9285(5) 0.8856(5) 0.8953(7)
N2_4 N 0.9270(8) 0.8200(5) 0.8873(12)
O24_4 O 0.9909(7) 0.7984(5) 0.8699(12)
O25_4 O 0.8673(6) 0.7912(4) 0.8989(9)
O26_4 O 0.5776(6) 0.9673(5) 0.7482(4)
O35_2 O 0.66599(19) 0.8554(3) 0.7373(3)
H20_4 H 0.471406 0.877425 0.913708
H21_4 H 0.423196 0.924551 0.948495
H22_4 H 0.527727 0.986086 0.756831
H23_4 H 0.620129 0.991556 0.762559
H24_4 H 0.363298 0.986393 0.761662
H26_4 H 0.586245 0.762478 0.803007
H27_4 H 0.624543 0.795596 0.85336
O1_4 O 0.51919(15) 0.73182(19) 0.53563(14)
O7_4 O 0.64316(16) 0.7359(2) 0.53236(15)
O9_4 O 0.7858(2) 0.7898(2) 0.57159(18)
C8_4 C 0.5782(2) 0.7435(2) 0.5115(2)
H4_4 H 0.575006 0.758159 0.477154
C15_4 C 0.8529(3) 0.8008(3) 0.5880(3)
C17_4 C 0.8589(3) 0.8280(3) 0.6410(3)
C22_4 C 0.9351(2) 0.8767(4) 0.7097(3)
C23_4 C 0.9280(3) 0.8493(3) 0.6599(2)
H9_4 H 0.971524 0.845465 0.638894
O19_4 O 0.7386(3) 0.8604(4) 0.8095(3)
C28_4 C 0.7936(3) 0.8359(4) 0.6719(3)
H12_4 H 0.745472 0.827529 0.657841
C37_4 C 0.7277(4) 0.8595(6) 0.7602(4)
H16_4 H 0.960366 0.978485 0.758150
C42_4 C 0.8691(3) 0.8816(5) 0.7396(3)
H18_4 H 0.870763 0.902415 0.771312
C43_4 C 0.7998(3) 0.8563(6) 0.7236(4)
loop_
_geom_bond_atom_site_label_1
_geom_bond_atom_site_label_2
_geom_bond_site_symmetry_1
_geom_bond_site_symmetry_2
Zn1 O7 1_555 1_555
Zn2 O1 1_555 1_555
O1 C8 1_555 1_555
O6 C15 1_555 1_555
O7 C8 1_555 1_555
O9 Zn1 1_555 1_555
O15 C37 1_555 1_555
C15 O9 1_555 1_555
C17 C15 1_555 1_555
C22 C23 1_555 1_555
C23 C17 1_555 1_555
H9 C23 1_555 1_555
O19 C37 1_555 1_555
C28 C17 1_555 1_555
H12 C28 1_555 1_555
C37 C43 1_555 1_555
C42 C22 1_555 1_555
H18 C42 1_555 1_555
C43 C28 1_555 1_555
Zn13 O15 1_555 1_555
O27 Zn2 1_555 1_555
O32 Zn1 1_555 1_555
O33 Zn2 1_555 1_555
C42 C43 1_555 1_555
Zn3 O13 1_555 1_555
Zn13 O11 1_555 1_555
O27 C24 1_555 1_555
O3 C24 1_555 1_555
O5 C20 1_555 1_555
O10 C20 1_555 1_555
O11 C35 1_555 1_555
O12 N1 1_555 1_555
C1 H1 1_555 1_555
O13 C35 1_555 1_555
C2 C1 1_555 1_555
C3 C1 1_555 1_555
C4 C9 1_555 1_555
C7 H3 1_555 1_555
N1 C32 1_555 1_555
C9 H5 1_555 1_555
C11 C9 1_555 1_555
C13 C7 1_555 1_555
C14 C3 1_555 1_555
C16 C2 1_555 1_555
H6 C16 1_555 1_555
C19 C21 1_555 1_555
O17 Zn3 1_555 1_555
C20 C11 1_555 1_555
C21 C4 1_555 1_555
H8 C21 1_555 1_555
O18 Zn3 1_555 1_555
C24 C2 1_555 1_555
C25 C14 1_555 1_555
H10 C25 1_555 1_555
C26 C11 1_555 1_555
H11 C26 1_555 1_555
C30 C3 1_555 1_555
H14 C30 1_555 1_555
C32 C36 1_555 1_555
O20 N1 1_555 1_555
C33 C16 1_555 1_555
C34 C7 1_555 1_555
C35 C33 1_555 1_555
C36 C14 1_555 1_555
H15 C36 1_555 1_555
O21 Zn3 1_555 1_555
O22 Zn13 1_555 1_555
C38 C4 1_555 1_555
C40 C27 1_555 1_555
C41 C34 1_555 1_555
H17 C41 1_555 1_555
O23 Zn13 1_555 1_555
C44 C13 1_555 1_555
C45 C41 1_555 1_555
N2 C45 1_555 1_555
O24 N2 1_555 1_555
O25 N2 1_555 1_555
O26 Zn13 1_555 1_555
Zn5 O5 1_555 1_555
Zn11 O10 1_555 1_555
O34 Zn3 1_555 1_555
O36 Zn3 1_555 1_555
C19 C26 1_555 1_555
C19 C34 1_555 1_555
O17 C38 1_555 1_555
C25 C27 1_555 1_555
C30 C33 1_555 1_555
C32 C40 1_555 1_555
O22 C38 1_555 1_555
C44 C45 1_555 1_555
O18 H20 1_555 1_555
O18 H21 1_555 1_555
O26 H22 1_555 1_555
O26 H23 1_555 1_555
O21 H24 1_555 1_555
O21 H25 1_555 1_555
O23 H26 1_555 1_555
O23 H27 1_555 1_555
O4 C10 1_555 1_555
O8 C10 1_555 1_555
O34 C39 1_555 1_555
C5 H2 1_555 1_555
C6 C5 1_555 1_555
C10 C6 1_555 1_555
O36 C39 1_555 1_555
C18 C6 1_555 1_555
H7 C18 1_555 1_555
C29 C12 1_555 1_555
H13 C29 1_555 1_555
C31 C5 1_555 1_555
C39 C31 1_555 1_555
Zn7 O8 1_555 1_555
Zn9 O4 1_555 1_555
C12 C18 1_555 1_555
C29 C31 1_555 1_555
O29 C10_2 1_555 1_555
O30 C20_2 1_555 1_555
O8_2 C10_2 1_555 1_555
O10_2 C20_2 1_555 1_555
O14 C39_2 1_555 1_555
C4_2 C9_2 1_555 1_555
C5_2 H2_2 1_555 1_555
C6_2 C5_2 1_555 1_555
C7_2 H3_2 1_555 1_555
C9_2 H5_2 1_555 1_555
C10_2 C6_2 1_555 1_555
C11_2 C9_2 1_555 1_555
C12_2 C13_2 1_555 1_555
C13_2 C7_2 1_555 1_555
O16 C39_2 1_555 1_555
C18_2 C6_2 1_555 1_555
H7_2 C18_2 1_555 1_555
C19_2 C21_2 1_555 1_555
C20_2 C11_2 1_555 1_555
C21_2 C4_2 1_555 1_555
H8_2 C21_2 1_555 1_555
C26_2 C11_2 1_555 1_555
H11_2 C26_2 1_555 1_555
C29_2 C12_2 1_555 1_555
H13_2 C29_2 1_555 1_555
C31_2 C5_2 1_555 1_555
C34_2 C7_2 1_555 1_555
O22_2 Zn4 1_555 1_555
C38_2 C4_2 1_555 1_555
C39_2 C31_2 1_555 1_555
C41_2 C34_2 1_555 1_555
H17_2 C41_2 1_555 1_555
O23_2 Zn4 1_555 1_555
C44_2 C13_2 1_555 1_555
H19_2 C44_2 1_555 1_555
C45_2 C41_2 1_555 1_555
N2_2 C45_2 1_555 1_555
O24_2 N2_2 1_555 1_555
O25_2 N2_2 1_555 1_555
O26_2 Zn4 1_555 1_555
Zn6 O8_2 1_555 1_555
Zn10 O10_2 1_555 1_555
Zn12 O14 1_555 1_555
O35 Zn4 1_555 1_555
C12_2 C18_2 1_555 1_555
O16 Zn12 1_555 1_555
C19_2 C26_2 1_555 1_555
C19_2 C34_2 1_555 1_555
O17_2 C38_2 1_555 1_555
C29_2 C31_2 1_555 1_555
O22_2 C38_2 1_555 1_555
C44_2 C45_2 1_555 1_555
O26_2 H22_2 1_555 1_555
O26_2 H23_2 1_555 1_555
O23_2 H26_2 1_555 1_555
O23_2 H27_2 1_555 1_555
Zn5 O7_2 1_555 1_555
Zn12 O13_2 1_555 1_555
O1_2 C8_2 1_555 1_555
O2 C24_2 1_555 1_555
O3_2 C24_2 1_555 1_555
O6_2 C15_2 1_555 1_555
O7_2 C8_2 1_555 1_555
O9_2 Zn5 1_555 1_555
O11_2 C35_2 1_555 1_555
O12_2 N1_2 1_555 1_555
C1_2 H1_2 1_555 1_555
O13_2 C35_2 1_555 1_555
O35 C37_2 1_555 1_555
C2_2 C1_2 1_555 1_555
C3_2 C1_2 1_555 1_555
N1_2 C32_2 1_555 1_555
C8_2 H4_2 1_555 1_555
C14_2 C3_2 1_555 1_555
C15_2 O9_2 1_555 1_555
C16_2 C2_2 1_555 1_555
H6_2 C16_2 1_555 1_555
C17_2 C15_2 1_555 1_555
C22_2 C23_2 1_555 1_555
O18_2 Zn12 1_555 1_555
C23_2 C17_2 1_555 1_555
H9_2 C23_2 1_555 1_555
C24_2 C2_2 1_555 1_555
C25_2 C14_2 1_555 1_555
H10_2 C25_2 1_555 1_555
O19_2 C37_2 1_555 1_555
C27_2 C22_2 1_555 1_555
C28_2 C17_2 1_555 1_555
H12_2 C28_2 1_555 1_555
C30_2 C3_2 1_555 1_555
H14_2 C30_2 1_555 1_555
C32_2 C36_2 1_555 1_555
O20_2 N1_2 1_555 1_555
C33_2 C16_2 1_555 1_555
C35_2 C33_2 1_555 1_555
C36_2 C14_2 1_555 1_555
H15_2 C36_2 1_555 1_555
O21_2 Zn12 1_555 1_555
C37_2 C43_2 1_555 1_555
C40_2 C27_2 1_555 1_555
H16_2 C40_2 1_555 1_555
C42_2 C22_2 1_555 1_555
H18_2 C42_2 1_555 1_555
C43_2 C28_2 1_555 1_555
Zn7 O3_2 1_555 1_555
Zn9 O2 1_555 1_555
Zn11 O6_2 1_555 1_555
O28_2 Zn5 1_555 1_555
O32_2 Zn5 1_555 1_555
C25_2 C27_2 1_555 1_555
C30_2 C33_2 1_555 1_555
C32_2 C40_2 1_555 1_555
C42_2 C43_2 1_555 1_555
O18_2 H20_2 1_555 1_555
O18_2 H21_2 1_555 1_555
O21_2 H24_2 1_555 1_555
O21_2 H25_2 1_555 1_555
O31_2 Zn9 1_555 1_555
O33_2 Zn9 1_555 1_555
O27_2 Zn10 1_555 1_555
Zn6 O7_3 1_555 1_555
Zn3_2 O13_3 1_555 1_555
O1_3 C8_3 1_555 1_555
O27_2 C24_3 1_555 1_555
O28 C24_3 1_555 1_555
O31 C15_3 1_555 1_555
O7_3 C8_3 1_555 1_555
O9_3 Zn6 1_555 1_555
O11_3 C35_3 1_555 1_555
C1_3 H1_3 1_555 1_555
O13_3 C35_3 1_555 1_555
O15_2 C37_3 1_555 1_555
C2_3 C1_3 1_555 1_555
C3_3 C1_3 1_555 1_555
C14_3 C3_3 1_555 1_555
C15_3 O9_3 1_555 1_555
C16_3 C2_3 1_555 1_555
H6_3 C16_3 1_555 1_555
C17_3 C15_3 1_555 1_555
C22_3 C23_3 1_555 1_555
O18_3 Zn3_2 1_555 1_555
C23_3 C17_3 1_555 1_555
H9_3 C23_3 1_555 1_555
C24_3 C2_3 1_555 1_555
C25_3 C14_3 1_555 1_555
H10_3 C25_3 1_555 1_555
O19_3 C37_3 1_555 1_555
C27_3 C22_3 1_555 1_555
C28_3 C17_3 1_555 1_555
H12_3 C28_3 1_555 1_555
C30_3 C3_3 1_555 1_555
H14_3 C30_3 1_555 1_555
C32_3 C36_3 1_555 1_555
C33_3 C16_3 1_555 1_555
C35_3 C33_3 1_555 1_555
C36_3 C14_3 1_555 1_555
H15_3 C36_3 1_555 1_555
O21_3 Zn3_2 1_555 1_555
C37_3 C43_3 1_555 1_555
C40_3 C27_3 1_555 1_555
H16_3 C40_3 1_555 1_555
C42_3 C22_3 1_555 1_555
H18_3 C42_3 1_555 1_555
C43_3 C28_3 1_555 1_555
Zn13_2 O15_2 1_555 1_555
O34_2 Zn3_2 1_555 1_555
C25_3 C27_3 1_555 1_555
C30_3 C33_3 1_555 1_555
C32_3 C40_3 1_555 1_555
C42_3 C43_3 1_555 1_555
O18_3 H20_3 1_555 1_555
O18_3 H21_3 1_555 1_555
O21_3 H24_3 1_555 1_555
O12_3 N1_3 1_555 1_555
O20_3 N1_3 1_555 1_555
O34_2 C39_3 1_555 1_555
H8_3 C21_3 1_555 1_555
H13_3 C29_3 1_555 1_555
O22_3 Zn13_2 1_555 1_555
C41_3 C34_3 1_555 1_555
H17_3 C41_3 1_555 1_555
O23_3 Zn13_2 1_555 1_555
C44_3 C13_3 1_555 1_555
H19_3 C44_3 1_555 1_555
C45_3 C41_3 1_555 1_555
N2_3 C45_3 1_555 1_555
O24_3 N2_3 1_555 1_555
O25_3 N2_3 1_555 1_555
O26_3 Zn13_2 1_555 1_555
O17_3 C38_3 1_555 1_555
O22_3 C38_3 1_555 1_555
C44_3 C45_3 1_555 1_555
O26_3 H22_3 1_555 1_555
O26_3 H23_3 1_555 1_555
O23_3 H26_3 1_555 1_555
O23_3 H27_3 1_555 1_555
O4_2 C10_3 1_555 1_555
O5_2 C20_3 1_555 1_555
O32_2 C10_3 1_555 1_555
O33_2 C20_3 1_555 1_555
C4_3 C9_3 1_555 1_555
C5_3 H2_3 1_555 1_555
C6_3 C5_3 1_555 1_555
C7_3 H3_3 1_555 1_555
C9_3 H5_3 1_555 1_555
C10_3 C6_3 1_555 1_555
C11_3 C9_3 1_555 1_555
C18_3 C6_3 1_555 1_555
H7_3 C18_3 1_555 1_555
C20_3 C11_3 1_555 1_555
C26_3 C11_3 1_555 1_555
H11_3 C26_3 1_555 1_555
C31_3 C5_3 1_555 1_555
Zn7 O5_2 1_555 1_555
Zn11 O4_2 1_555 1_555
C12_3 C18_3 1_555 1_555
C19_3 C26_3 1_555 1_555
O29_2 C10_4 1_555 1_555
O32 C10_4 1_555 1_555
C5_4 H2_4 1_555 1_555
C6_4 C5_4 1_555 1_555
C10_4 C6_4 1_555 1_555
C18_4 C6_4 1_555 1_555
H7_4 C18_4 1_555 1_555
C31_4 C5_4 1_555 1_555
C12_4 C18_4 1_555 1_555
O14_2 C39_4 1_555 1_555
H13_4 C29_4 1_555 1_555
Zn12_2 O14_2 1_555 1_555
O30_2 C20_4 1_555 1_555
O33 C20_4 1_555 1_555
O12_4 N1_4 1_555 1_555
C4_4 C9_4 1_555 1_555
C7_4 H3_4 1_555 1_555
C9_4 H5_4 1_555 1_555
C11_4 C9_4 1_555 1_555
C20_4 C11_4 1_555 1_555
C26_4 C11_4 1_555 1_555
H11_4 C26_4 1_555 1_555
O20_4 N1_4 1_555 1_555
C19_4 C26_4 1_555 1_555
Zn12_2 O13_4 1_555 1_555
Zn4_2 O11_4 1_555 1_555
O2_2 C24_4 1_555 1_555
O28_2 C24_4 1_555 1_555
O11_4 C35_4 1_555 1_555
C1_4 H1_4 1_555 1_555
O13_4 C35_4 1_555 1_555
C2_4 C1_4 1_555 1_555
C3_4 C1_4 1_555 1_555
C14_4 C3_4 1_555 1_555
C16_4 C2_4 1_555 1_555
H6_4 C16_4 1_555 1_555
O17_4 Zn12_2 1_555 1_555
H8_4 C21_4 1_555 1_555
O18_4 Zn12_2 1_555 1_555
C24_4 C2_4 1_555 1_555
C25_4 C14_4 1_555 1_555
H10_4 C25_4 1_555 1_555
C30_4 C3_4 1_555 1_555
H14_4 C30_4 1_555 1_555
C32_4 C36_4 1_555 1_555
C33_4 C16_4 1_555 1_555
C35_4 C33_4 1_555 1_555
C36_4 C14_4 1_555 1_555
H15_4 C36_4 1_555 1_555
O21_4 Zn12_2 1_555 1_555
O22_4 Zn4_2 1_555 1_555
C40_4 C27_4 1_555 1_555
C41_4 C34_4 1_555 1_555
H17_4 C41_4 1_555 1_555
O23_4 Zn4_2 1_555 1_555
C44_4 C13_4 1_555 1_555
C45_4 C41_4 1_555 1_555
N2_4 C45_4 1_555 1_555
O24_4 N2_4 1_555 1_555
O25_4 N2_4 1_555 1_555
O26_4 Zn4_2 1_555 1_555
Zn11 O2_2 1_555 1_555
O35_2 Zn4_2 1_555 1_555
O17_4 C38_4 1_555 1_555
C25_4 C27_4 1_555 1_555
C30_4 C33_4 1_555 1_555
C32_4 C40_4 1_555 1_555
O22_4 C38_4 1_555 1_555
C44_4 C45_4 1_555 1_555
O18_4 H20_4 1_555 1_555
O18_4 H21_4 1_555 1_555
O26_4 H22_4 1_555 1_555
O26_4 H23_4 1_555 1_555
O21_4 H24_4 1_555 1_555
O23_4 H26_4 1_555 1_555
O23_4 H27_4 1_555 1_555
Zn7 O7_4 1_555 1_555
Zn11 O1_4 1_555 1_555
O1_4 C8_4 1_555 1_555
O31_2 C15_4 1_555 1_555
O7_4 C8_4 1_555 1_555
O9_4 Zn7 1_555 1_555
O35_2 C37_4 1_555 1_555
C8_4 H4_4 1_555 1_555
C15_4 O9_4 1_555 1_555
C17_4 C15_4 1_555 1_555
C22_4 C23_4 1_555 1_555
C23_4 C17_4 1_555 1_555
H9_4 C23_4 1_555 1_555
O19_4 C37_4 1_555 1_555
C28_4 C17_4 1_555 1_555
H12_4 C28_4 1_555 1_555
C37_4 C43_4 1_555 1_555
C42_4 C22_4 1_555 1_555
H18_4 C42_4 1_555 1_555
C43_4 C28_4 1_555 1_555
C42_4 C43_4 1_555 1_555

#END
