
###############################################################################
#
# This file contains modified crystal structure data generated from the
# MOF subset of the Cambridge Structural Database (CSD) v543 
# hosted by the Cambridge Crystallographic Data Centre (CCDC).
#
# This work is licensed under the Creative Commons
# Attribution-NonCommercial-ShareAlike 4.0 International License.
# To view a copy of this license, visit
# http://creativecommons.org/licenses/by-nc-sa/4.0/
# or send a letter to
# Creative Commons, PO Box 1866, Mountain View, CA 94042, USA.
#
# CIF created using the CSD Python API on 29 September 2022
# The structure has been converted into the P1 space group
# The structure has a 3D framework
# The original CSD entry CIKHAG is in the orthorhombic crystal system
# The original CSD entry CIKHAG is in a Sohncke space group
# The framework has been calculated to contain at least 10.0% void space
# The void calculation uses a probe of radius 1.32A, grid spacing 0.4
#
###############################################################################

data_CIKHAG
_chemical_formula_moiety         '(C168 H224 Co8 N72 O16 S8 Se4)n'
_symmetry_cell_setting           triclinic
_symmetry_space_group_name_H-M   'P 1'
_symmetry_Int_Tables_number      1
_space_group_name_Hall           'P 1'
loop_
_symmetry_equiv_pos_site_id
_symmetry_equiv_pos_as_xyz
1 x,y,z
_cell_length_a                   13.721(2)
_cell_length_b                   21.539(3)
_cell_length_c                   22.417(3)
_cell_angle_alpha                90
_cell_angle_beta                 90
_cell_angle_gamma                90
_cell_volume                     6625.04
loop_
_atom_site_label
_atom_site_type_symbol
_atom_site_fract_x
_atom_site_fract_y
_atom_site_fract_z
N13 N 0.5960(2) 0.10861(15) 0.18166(14)
N14 N 0.5212(2) 0.1448(2) 0.20033(15)
H7 H 0.5260(2) 0.1861(2) 0.20564(15)
H21 H 0.1001(3) 0.0364(2) 0.1676(2)
H22 H 0.1076(3) 0.0038(2) 0.1052(2)
C31 C 0.4394(3) 0.1120(2) 0.2104(2)
C32 C 0.4622(3) 0.0502(2) 0.1977(2)
C33 C 0.5610(3) 0.0509(2) 0.1802(2)
H45 H 0.6516(3) 0.0004(2) 0.1271(2)
C35 C 0.3467(4) 0.1416(3) 0.2286(3)
H48 H 0.3556(4) 0.1594(3) 0.2676(3)
H49 H 0.2948(4) 0.1118(3) 0.2307(3)
H50 H 0.3286(4) 0.1742(3) 0.2016(3)
H55 H 0.2855(5) 0.0264(3) 0.3143(2)
H56 H 0.3977(5) 0.0142(3) 0.3227(2)
Co6 Co 0.71386(4) 0.15041(2) 0.13098(2)
Co1 Co 0.21795(4) 0.84413(2) 0.12977(2)
Co2 Co 0.28614(4) 0.65041(2) 0.36902(2)
Se1 Se 0.20881(2) 0.73019(2) 0.237212(14)
S2 S 0.3930(2) 0.54383(11) 0.54549(8)
O1 O 0.2449(2) 0.79730(12) 0.21097(11)
O2 O 0.2702(2) 0.71968(12) 0.29987(10)
O3 O 0.2341(2) 0.67551(13) 0.18999(12)
O4 O 0.0925(2) 0.7331(2) 0.25216(13)
N1 N 0.3424(2) 0.7948(2) 0.09468(14)
N2 N 0.4211(2) 0.7894(2) 0.13041(15)
H1 H 0.4189(2) 0.7934(2) 0.17035(15)
N5 N 0.0978(2) 0.8889(2) 0.17378(15)
N6 N 0.0267(2) 0.8543(2) 0.1998(2)
H3 H 0.0319(2) 0.8133(2) 0.2066(2)
N9 N 0.3825(2) 0.7225(2) 0.40635(13)
N10 N 0.3403(2) 0.7791(2) 0.41718(14)
H5 H 0.2888(2) 0.7939(2) 0.39678(14)
N11 N 0.5792(2) 0.7991(2) 0.62297(14)
H6 H 0.5799(2) 0.8024(2) 0.66299(14)
N12 N 0.6593(2) 0.80718(15) 0.58793(13)
N15 N 0.2985(2) 0.92288(15) 0.22997(13)
H8 H 0.2600(2) 0.89944(15) 0.25342(13)
N16 N 0.3148(2) 0.91056(15) 0.17134(14)
N17 N 0.2019(3) 0.8970(2) 0.05501(14)
N18 N 0.3180(2) 0.5948(2) 0.44126(15)
C1 C 0.5028(3) 0.7777(2) 0.1000(2)
C2 C 0.4781(3) 0.7762(2) 0.0401(2)
C3 C 0.3762(3) 0.7867(2) 0.0397(2)
C5 C 0.5993(3) 0.7676(3) 0.1303(2)
H12 H 0.5916(3) 0.7713(3) 0.1727(2)
H13 H 0.6228(3) 0.7268(3) 0.1207(2)
H14 H 0.6452(3) 0.7981(3) 0.1165(2)
H15 H 0.7042(5) 0.8700(3) 0.0084(3)
H16 H 0.5939(5) 0.8875(3) 0.0174(3)
C13 C 0.0610(3) 0.9464(2) 0.1713(2)
C14 C 0.1192(3) 0.9991(2) 0.1472(2)
H23 H 0.1876(3) 0.9921(2) 0.1532(2)
C21 C 0.4581(3) 0.7195(2) 0.4445(2)
C22 C 0.4615(3) 0.7737(2) 0.4802(2)
C23 C 0.3851(3) 0.8098(2) 0.4608(2)
C24 C 0.3527(4) 0.8721(2) 0.4815(3)
H33 H 0.2829(4) 0.8752(2) 0.4821(3)
H34 H 0.3815(4) 0.9026(2) 0.4558(3)
H35 H 0.3803(4) 0.8782(2) 0.5204(3)
C25 C 0.5269(3) 0.6668(2) 0.4461(2)
H36 H 0.5897(3) 0.6809(2) 0.4331(2)
H37 H 0.5053(3) 0.6341(2) 0.4203(2)
H38 H 0.5325(3) 0.6507(2) 0.4859(2)
C26 C 0.4982(3) 0.7856(2) 0.5905(2)
C27 C 0.5266(3) 0.7859(2) 0.5319(2)
C28 C 0.6271(3) 0.7996(2) 0.5317(2)
C29 C 0.6939(3) 0.8049(3) 0.4789(2)
H39 H 0.7605(3) 0.7993(3) 0.4909(2)
H40 H 0.6858(3) 0.8450(3) 0.4609(2)
H41 H 0.6764(3) 0.7740(3) 0.4500(2)
C30 C 0.4045(3) 0.7736(3) 0.6195(2)
H42 H 0.3883(3) 0.7309(3) 0.6122(2)
H43 H 0.3536(3) 0.7992(3) 0.6034(2)
H44 H 0.4081(3) 0.7801(3) 0.6618(2)
C34 C 0.6223(3) 0.9956(2) 0.1658(2)
H46 H 0.5817(3) 0.9594(2) 0.1671(2)
H47 H 0.6712(3) 0.9910(2) 0.1961(2)
C36 C 0.3451(3) 0.9741(2) 0.2488(2)
C37 C 0.3967(3) 0.9964(2) 0.1997(2)
C38 C 0.3759(3) 0.9548(2) 0.1530(2)
C39 C 0.4112(4) 0.9582(3) 0.0896(2)
H51 H 0.4017(4) 0.9191(3) 0.0699(2)
H52 H 0.4788(4) 0.9697(3) 0.0897(2)
H53 H 0.3761(4) 0.9908(3) 0.0698(2)
C40 C 0.3366(5) 0.9961(3) 0.3113(2)
H54 H 0.3211(5) 0.9620(3) 0.3372(2)
C41 C 0.1943(4) 0.9201(2) 0.0096(2)
C42 C 0.3483(3) 0.5734(2) 0.4839(2)
Co5 Co 0.78614(4) 0.84959(2) 0.63098(2)
N19 N 0.1166(2) 0.7749(2) 0.09192(14)
N20 N 0.1889(2) 0.58580(15) 0.32707(13)
N21 N 0.1593(2) 0.69282(15) 0.41207(13)
N22 N 0.4040(2) 0.60861(15) 0.31834(14)
S1 S 0.1815(2) 0.95215(11) 0.94416(7)
N3 N 0.6540(2) 0.78239(15) 0.92039(14)
H2 H 0.7018(2) 0.80050(15) 0.89906(14)
N4 N 0.6166(2) 0.7251(2) 0.90808(14)
C4 C 0.3117(3) 0.7878(2) 0.9858(2)
H9 H 0.2456(3) 0.7802(2) 0.9977(2)
H10 H 0.3309(3) 0.7567(2) 0.9575(2)
H11 H 0.3154(3) 0.8278(2) 0.9671(2)
C6 C 0.5479(3) 0.7164(2) 0.9502(2)
C7 C 0.5428(3) 0.7675(2) 0.9886(2)
C8 C 0.6120(3) 0.8086(2) 0.9678(2)
C9 C 0.6414(5) 0.8722(3) 0.9896(3)
H17 H 0.6435(5) 0.9002(3) 0.9564(3)
C10 C 0.4853(3) 0.6594(2) 0.9522(2)
H18 H 0.4334(3) 0.6627(2) 0.9808(2)
H19 H 0.5284(3) 0.6254(2) 0.9608(2)
H20 H 0.4617(3) 0.6528(2) 0.9124(2)
Co3 Co 0.71795(4) 0.65587(2) 0.87023(2)
N7 N 0.8052(2) 0.07446(14) 0.23234(13)
H4 H 0.7697(2) 0.09760(14) 0.25775(13)
N8 N 0.8111(2) 0.08580(15) 0.17293(13)
C16 C 0.8698(3) 0.0408(2) 0.1515(2)
C17 C 0.9013(3) 0.0016(2) 0.1984(2)
C18 C 0.8574(3) 0.0259(2) 0.2490(2)
C19 C 0.8656(4) 0.0069(3) 0.3138(2)
H29 H 0.8703(4) 0.0421(3) 0.3398(2)
C20 C 0.8935(3) 0.0362(2) 0.0865(2)
H30 H 0.9491(3) 0.0099(2) 0.0805(2)
H31 H 0.9058(3) 0.0769(2) 0.0709(2)
H32 H 0.8377(3) 0.0196(2) 0.0662(2)
Co1_2 Co 0.28205(4) 0.15587(2) 0.62977(2)
Co2_2 Co 0.21386(4) 0.34959(2) 0.86902(2)
Se1_2 Se 0.29119(2) 0.26981(2) 0.737212(14)
S1_2 S 0.3185(2) 0.04785(11) 0.44416(7)
O1_2 O 0.2551(2) 0.20270(12) 0.71097(11)
O2_2 O 0.2298(2) 0.28032(12) 0.79987(10)
O3_2 O 0.2659(2) 0.32449(13) 0.68999(12)
O4_2 O 0.4075(2) 0.2669(2) 0.75216(13)
N1_2 N 0.1576(2) 0.2052(2) 0.59468(14)
N2_2 N 0.0789(2) 0.2106(2) 0.63041(15)
H1_2 H 0.0811(2) 0.2066(2) 0.67035(15)
N5_2 N 0.4022(2) 0.1111(2) 0.67378(15)
N6_2 N 0.4733(2) 0.1457(2) 0.6998(2)
H3_2 H 0.4681(2) 0.1867(2) 0.7066(2)
N9_2 N 0.1175(2) 0.2775(2) 0.90635(13)
N10_2 N 0.1597(2) 0.2209(2) 0.91718(14)
H5_2 H 0.2112(2) 0.2061(2) 0.89678(14)
N15_2 N 0.2015(2) 0.07712(15) 0.72997(13)
H8_2 H 0.2400(2) 0.10056(15) 0.75342(13)
N16_2 N 0.1852(2) 0.08944(15) 0.67134(14)
N17_2 N 0.2981(3) 0.1030(2) 0.55501(14)
N18_2 N 0.1820(2) 0.4052(2) 0.94126(15)
C2_2 C 0.0219(3) 0.2238(2) 0.5401(2)
C3_2 C 0.1238(3) 0.2133(2) 0.5397(2)
C4_2 C 0.1883(3) 0.2122(2) 0.4858(2)
H9_2 H 0.2544(3) 0.2198(2) 0.4977(2)
H10_2 H 0.1691(3) 0.2433(2) 0.4575(2)
H11_2 H 0.1846(3) 0.1722(2) 0.4671(2)
C10_2 C 0.0147(3) 0.3406(2) 0.4522(2)
H18_2 H 0.0666(3) 0.3373(2) 0.4808(2)
H20_2 H 0.0383(3) 0.3472(2) 0.4124(2)
C11 C 0.5533(3) 0.1120(2) 0.7124(2)
C12 C 0.5343(3) 0.0519(2) 0.6941(2)
C13_2 C 0.4390(3) 0.0536(2) 0.6713(2)
C14_2 C 0.3808(3) 0.0009(2) 0.6472(2)
H23_2 H 0.3124(3) 0.0079(2) 0.6532(2)
C15 C 0.6411(4) 0.1405(2) 0.7422(3)
H24 H 0.6983(4) 0.1175(2) 0.7312(3)
H25 H 0.6330(4) 0.1402(2) 0.7848(3)
H26 H 0.6471(4) 0.1829(2) 0.7297(3)
H27 H 0.5757(4) 0.0169(3) 0.8181(2)
H28 H 0.6878(4) 0.0190(3) 0.8261(2)
C21_2 C 0.0419(3) 0.2805(2) 0.9445(2)
C22_2 C 0.0385(3) 0.2263(2) 0.9802(2)
C23_2 C 0.1149(3) 0.1902(2) 0.9608(2)
C24_2 C 0.1473(4) 0.1279(2) 0.9815(3)
H33_2 H 0.2171(4) 0.1248(2) 0.9821(3)
H34_2 H 0.1185(4) 0.0974(2) 0.9558(3)
C36_2 C 0.1549(3) 0.0259(2) 0.7488(2)
C37_2 C 0.1033(3) 0.0036(2) 0.6997(2)
C38_2 C 0.1241(3) 0.0452(2) 0.6530(2)
C39_2 C 0.0888(4) 0.0418(3) 0.5896(2)
H51_2 H 0.0983(4) 0.0809(3) 0.5699(2)
H52_2 H 0.0212(4) 0.0303(3) 0.5897(2)
H53_2 H 0.1239(4) 0.0092(3) 0.5698(2)
C40_2 C 0.1634(5) 0.0039(3) 0.8113(2)
H54_2 H 0.1789(5) 0.0380(3) 0.8372(2)
C41_2 C 0.3057(4) 0.0799(2) 0.5096(2)
C42_2 C 0.1517(3) 0.4266(2) 0.9839(2)
N19_2 N 0.3834(2) 0.2251(2) 0.59192(14)
N20_2 N 0.3111(2) 0.41420(15) 0.82707(13)
N21_2 N 0.3407(2) 0.30718(15) 0.91207(13)
N22_2 N 0.0960(2) 0.39139(15) 0.81834(14)
N7_2 N 0.6948(2) 0.92554(14) 0.73234(13)
H4_2 H 0.7303(2) 0.90240(14) 0.75775(13)
N8_2 N 0.6889(2) 0.91420(15) 0.67293(13)
H21_2 H 0.3999(3) 0.9636(2) 0.6676(2)
H22_2 H 0.3924(3) 0.9962(2) 0.6052(2)
C16_2 C 0.6302(3) 0.9592(2) 0.6515(2)
C17_2 C 0.5987(3) 0.9984(2) 0.6984(2)
C18_2 C 0.6426(3) 0.9741(2) 0.7490(2)
C19_2 C 0.6344(4) 0.9931(3) 0.8138(2)
H29_2 H 0.6297(4) 0.9579(3) 0.8398(2)
C20_2 C 0.6065(3) 0.9638(2) 0.5865(2)
H30_2 H 0.5509(3) 0.9901(2) 0.5805(2)
H31_2 H 0.5942(3) 0.9231(2) 0.5709(2)
H32_2 H 0.6623(3) 0.9804(2) 0.5662(2)
C31_2 C 0.0606(3) 0.8880(2) 0.7104(2)
C32_2 C 0.0378(3) 0.9498(2) 0.6977(2)
C35_2 C 0.1533(4) 0.8584(3) 0.7286(3)
H48_2 H 0.1444(4) 0.8406(3) 0.7676(3)
H49_2 H 0.2052(4) 0.8882(3) 0.7307(3)
H50_2 H 0.1714(4) 0.8258(3) 0.7016(3)
H55_2 H 0.2145(5) 0.9736(3) 0.8143(2)
H56_2 H 0.1023(5) 0.9858(3) 0.8227(2)
N11_2 N 0.9208(2) 0.2009(2) 0.12297(14)
H6_2 H 0.9201(2) 0.1976(2) 0.16299(14)
N12_2 N 0.8407(2) 0.19282(15) 0.08793(13)
C27_2 C 0.9734(3) 0.2141(2) 0.0319(2)
C28_2 C 0.8729(3) 0.2004(2) 0.0317(2)
N3_2 N 0.8460(2) 0.21761(15) 0.42039(14)
H2_2 H 0.7982(2) 0.19950(15) 0.39906(14)
N4_2 N 0.8834(2) 0.2749(2) 0.40808(14)
C1_2 C 0.9972(3) 0.2223(2) 0.6000(2)
C5_2 C 0.9007(3) 0.2324(3) 0.6303(2)
H12_2 H 0.9084(3) 0.2287(3) 0.6727(2)
H13_2 H 0.8772(3) 0.2732(3) 0.6207(2)
H14_2 H 0.8548(3) 0.2019(3) 0.6165(2)
C6_2 C 0.9521(3) 0.2836(2) 0.4502(2)
C7_2 C 0.9572(3) 0.2325(2) 0.4886(2)
C8_2 C 0.8880(3) 0.1914(2) 0.4678(2)
C9_2 C 0.8586(5) 0.1278(3) 0.4896(3)
H15_2 H 0.7958(5) 0.1300(3) 0.5084(3)
H16_2 H 0.9061(5) 0.1125(3) 0.5174(3)
H17_2 H 0.8565(5) 0.0998(3) 0.4564(3)
H19_2 H 0.9716(3) 0.3746(2) 0.4608(2)
C25_2 C 0.9731(3) 0.3332(2) 0.9461(2)
H36_2 H 0.9103(3) 0.3191(2) 0.9331(2)
H37_2 H 0.9947(3) 0.3659(2) 0.9203(2)
H38_2 H 0.9675(3) 0.3493(2) 0.9859(2)
C29_2 C 0.8061(3) 0.1951(3) 0.9789(2)
H39_2 H 0.7395(3) 0.2007(3) 0.9909(2)
H40_2 H 0.8142(3) 0.1550(3) 0.9609(2)
H41_2 H 0.8236(3) 0.2260(3) 0.9500(2)
C34_2 C 0.8777(3) 0.0044(2) 0.6658(2)
H46_2 H 0.9183(3) 0.0406(2) 0.6671(2)
H47_2 H 0.8288(3) 0.0090(2) 0.6961(2)
Co3_2 Co 0.78205(4) 0.34413(2) 0.37023(2)
N13_2 N 0.9040(2) 0.89139(15) 0.68166(14)
N14_2 N 0.9788(2) 0.8552(2) 0.70033(15)
H7_2 H 0.9740(2) 0.8139(2) 0.70564(15)
C33_2 C 0.9390(3) 0.9491(2) 0.6802(2)
H45_2 H 0.8484(3) 0.9996(2) 0.6271(2)
N7_3 N 0.1948(2) 0.57446(14) 0.26766(13)
H4_3 H 0.2303(2) 0.59760(14) 0.24225(13)
C11_2 C 0.0533(3) 0.3880(2) 0.2876(2)
C12_2 C 0.0343(3) 0.4481(2) 0.3059(2)
C15_2 C 0.1411(4) 0.3595(2) 0.2578(3)
H24_2 H 0.1983(4) 0.3825(2) 0.2688(3)
H25_2 H 0.1330(4) 0.3598(2) 0.2152(3)
H26_2 H 0.1471(4) 0.3171(2) 0.2703(3)
C16_3 C 0.1302(3) 0.5408(2) 0.3485(2)
C17_3 C 0.0987(3) 0.5016(2) 0.3016(2)
C18_3 C 0.1426(3) 0.5259(2) 0.2510(2)
C19_3 C 0.1344(4) 0.5069(3) 0.1862(2)
H27_2 H 0.0757(4) 0.4831(3) 0.1819(2)
H28_2 H 0.1878(4) 0.4810(3) 0.1739(2)
H29_3 H 0.1297(4) 0.5421(3) 0.1602(2)
C20_3 C 0.1065(3) 0.5362(2) 0.4135(2)
H30_3 H 0.0509(3) 0.5099(2) 0.4195(2)
H31_3 H 0.0942(3) 0.5769(2) 0.4291(2)
H32_3 H 0.1623(3) 0.5196(2) 0.4338(2)
Se1_3 Se 0.79119(2) 0.23019(2) 0.262788(14)
S1_3 S 0.8185(2) 0.45215(11) 0.55584(7)
O1_3 O 0.7551(2) 0.29730(12) 0.28903(11)
O2_3 O 0.7298(2) 0.21968(12) 0.20013(10)
O3_3 O 0.7659(2) 0.17551(13) 0.31001(12)
O4_3 O 0.9075(2) 0.2331(2) 0.24784(13)
N1_3 N 0.6576(2) 0.2948(2) 0.40532(14)
N2_3 N 0.5789(2) 0.2894(2) 0.36959(15)
H1_3 H 0.5811(2) 0.2934(2) 0.32965(15)
N3_3 N 0.3460(2) 0.28239(15) 0.57961(14)
H2_3 H 0.2982(2) 0.30050(15) 0.60094(14)
N5_3 N 0.9022(2) 0.3889(2) 0.32622(15)
N6_3 N 0.9733(2) 0.3543(2) 0.3002(2)
H3_3 H 0.9681(2) 0.3133(2) 0.2934(2)
N9_3 N 0.6175(2) 0.2225(2) 0.09365(13)
N10_3 N 0.6597(2) 0.2791(2) 0.08282(14)
H5_3 H 0.7112(2) 0.2939(2) 0.10322(14)
N14_3 N 0.4788(2) 0.6448(2) 0.29967(15)
H7_3 H 0.4740(2) 0.6861(2) 0.29436(15)
N15_3 N 0.7015(2) 0.42288(15) 0.27003(13)
H8_3 H 0.7400(2) 0.39944(15) 0.24658(13)
N16_3 N 0.6852(2) 0.41056(15) 0.32866(14)
N17_3 N 0.7981(3) 0.3970(2) 0.44499(14)
N18_3 N 0.6820(2) 0.0948(2) 0.05874(15)
C1_3 C 0.4972(3) 0.2777(2) 0.4000(2)
C2_3 C 0.5219(3) 0.2762(2) 0.4599(2)
C3_3 C 0.6238(3) 0.2867(2) 0.4603(2)
C4_3 C 0.6883(3) 0.2878(2) 0.5142(2)
H9_3 H 0.7544(3) 0.2802(2) 0.5023(2)
H10_3 H 0.6691(3) 0.2567(2) 0.5425(2)
H11_3 H 0.6846(3) 0.3278(2) 0.5329(2)
C5_3 C 0.4007(3) 0.2676(3) 0.3697(2)
H12_3 H 0.4084(3) 0.2713(3) 0.3273(2)
H13_3 H 0.3772(3) 0.2268(3) 0.3793(2)
H14_3 H 0.3548(3) 0.2981(3) 0.3835(2)
C6_3 C 0.4521(3) 0.2164(2) 0.5498(2)
C7_3 C 0.4572(3) 0.2675(2) 0.5114(2)
C8_3 C 0.3880(3) 0.3086(2) 0.5322(2)
C9_3 C 0.3586(5) 0.3722(3) 0.5104(3)
H15_3 H 0.2958(5) 0.3700(3) 0.4916(3)
H16_3 H 0.4061(5) 0.3875(3) 0.4826(3)
H17_3 H 0.3565(5) 0.4002(3) 0.5436(3)
C10_3 C 0.5147(3) 0.1594(2) 0.5478(2)
H18_3 H 0.5666(3) 0.1627(2) 0.5192(2)
H19_3 H 0.4716(3) 0.1254(2) 0.5392(2)
H20_3 H 0.5383(3) 0.1528(2) 0.5876(2)
C13_3 C 0.9390(3) 0.4464(2) 0.3287(2)
C14_3 C 0.8808(3) 0.4991(2) 0.3528(2)
H21_3 H 0.8999(3) 0.5364(2) 0.3324(2)
H22_3 H 0.8924(3) 0.5038(2) 0.3948(2)
H23_3 H 0.8124(3) 0.4921(2) 0.3468(2)
C21_3 C 0.5419(3) 0.2195(2) 0.0555(2)
C22_3 C 0.5385(3) 0.2737(2) 0.0198(2)
C23_3 C 0.6149(3) 0.3098(2) 0.0392(2)
C24_3 C 0.6473(4) 0.3721(2) 0.0185(3)
H33_3 H 0.7171(4) 0.3752(2) 0.0179(3)
H34_3 H 0.6185(4) 0.4026(2) 0.0442(3)
C25_3 C 0.4731(3) 0.1668(2) 0.0539(2)
H36_3 H 0.4103(3) 0.1809(2) 0.0669(2)
H37_3 H 0.4947(3) 0.1341(2) 0.0797(2)
H38_3 H 0.4675(3) 0.1507(2) 0.0141(2)
C29_3 C 0.3061(3) 0.3049(3) 0.0211(2)
H39_3 H 0.2395(3) 0.2993(3) 0.0091(2)
H40_3 H 0.3142(3) 0.3450(3) 0.0391(2)
H41_3 H 0.3236(3) 0.2740(3) 0.0500(2)
C31_3 C 0.5606(3) 0.6120(2) 0.2896(2)
C32_3 C 0.5378(3) 0.5502(2) 0.3023(2)
C33_3 C 0.4390(3) 0.5509(2) 0.3198(2)
C34_3 C 0.3777(3) 0.4956(2) 0.3342(2)
H45_3 H 0.3484(3) 0.5004(2) 0.3729(2)
H46_3 H 0.4183(3) 0.4594(2) 0.3329(2)
H47_3 H 0.3288(3) 0.4910(2) 0.3039(2)
C35_3 C 0.6533(4) 0.6416(3) 0.2714(3)
H48_3 H 0.6444(4) 0.6594(3) 0.2324(3)
H49_3 H 0.7052(4) 0.6118(3) 0.2693(3)
H50_3 H 0.6714(4) 0.6742(3) 0.2984(3)
C36_3 C 0.6549(3) 0.4741(2) 0.2512(2)
C37_3 C 0.6033(3) 0.4964(2) 0.3003(2)
C38_3 C 0.6241(3) 0.4548(2) 0.3470(2)
C39_3 C 0.5888(4) 0.4582(3) 0.4104(2)
H51_3 H 0.5983(4) 0.4191(3) 0.4301(2)
H52_3 H 0.5212(4) 0.4697(3) 0.4103(2)
H53_3 H 0.6239(4) 0.4908(3) 0.4302(2)
C40_3 C 0.6634(5) 0.4961(3) 0.1887(2)
H54_3 H 0.6789(5) 0.4620(3) 0.1628(2)
H55_3 H 0.7145(5) 0.5264(3) 0.1857(2)
H56_3 H 0.6023(5) 0.5142(3) 0.1773(2)
C41_3 C 0.8057(4) 0.4201(2) 0.4904(2)
C42_3 C 0.6517(3) 0.0734(2) 0.0161(2)
S2_2 S 0.6070(2) 0.04383(11) 0.95451(8)
N11_3 N 0.4208(2) 0.2991(2) 0.87703(14)
H6_3 H 0.4201(2) 0.3024(2) 0.83701(14)
H35_2 H 0.6197(4) 0.3782(2) 0.9796(3)
C26_2 C 0.5018(3) 0.2856(2) 0.9095(2)
C27_3 C 0.4734(3) 0.2859(2) 0.9681(2)
C28_3 C 0.3729(3) 0.2996(2) 0.9683(2)
C30_2 C 0.5955(3) 0.2736(3) 0.8805(2)
H42_2 H 0.6117(3) 0.2309(3) 0.8878(2)
H43_2 H 0.6464(3) 0.2992(3) 0.8966(2)
H44_2 H 0.5919(3) 0.2801(3) 0.8382(2)
N3_4 N 0.1540(2) 0.71761(15) 0.07961(14)
H2_4 H 0.2018(2) 0.69950(15) 0.10094(14)
C6_4 C 0.0479(3) 0.7836(2) 0.0498(2)
C7_4 C 0.0428(3) 0.7325(2) 0.0114(2)
C8_4 C 0.1120(3) 0.6914(2) 0.0322(2)
C9_4 C 0.1414(5) 0.6278(3) 0.0104(3)
H17_4 H 0.1435(5) 0.5998(3) 0.0436(3)
H19_4 H 0.0284(3) 0.8746(2) 0.0392(2)
N11_4 N 0.0792(2) 0.7009(2) 0.37703(14)
H6_4 H 0.0799(2) 0.6976(2) 0.33701(14)
N14_4 N 0.0212(2) 0.3552(2) 0.79967(15)
H7_4 H 0.0260(2) 0.3139(2) 0.79436(15)
C1_4 C 0.0028(3) 0.7223(2) 0.9000(2)
C5_4 C 0.0993(3) 0.7324(3) 0.8697(2)
H12_4 H 0.0916(3) 0.7287(3) 0.8273(2)
H13_4 H 0.1228(3) 0.7732(3) 0.8793(2)
H14_4 H 0.1452(3) 0.7019(3) 0.8835(2)
H15_4 H 0.2042(5) 0.6300(3) 0.9916(3)
H16_4 H 0.0939(5) 0.6125(3) 0.9826(3)
C25_4 C 0.0269(3) 0.8332(2) 0.5539(2)
H36_4 H 0.0897(3) 0.8191(2) 0.5669(2)
H37_4 H 0.0053(3) 0.8659(2) 0.5797(2)
H38_4 H 0.0325(3) 0.8493(2) 0.5141(2)
C27_4 C 0.0266(3) 0.7141(2) 0.4681(2)
C28_4 C 0.1271(3) 0.7004(2) 0.4683(2)
C29_4 C 0.1939(3) 0.6951(3) 0.5211(2)
H39_4 H 0.2605(3) 0.7007(3) 0.5091(2)
H40_4 H 0.1858(3) 0.6550(3) 0.5391(2)
H41_4 H 0.1764(3) 0.7260(3) 0.5500(2)
C33_4 C 0.0610(3) 0.4491(2) 0.8198(2)
C34_4 C 0.1223(3) 0.5044(2) 0.8342(2)
H45_4 H 0.1516(3) 0.4996(2) 0.8729(2)
H46_4 H 0.0817(3) 0.5406(2) 0.8329(2)
H47_4 H 0.1712(3) 0.5090(2) 0.8039(2)
Se1_4 Se 0.70881(2) 0.76981(2) 0.762788(14)
S2_3 S 0.8930(2) 0.95617(11) 0.45451(8)
O1_4 O 0.7449(2) 0.70270(12) 0.78903(11)
O2_4 O 0.7702(2) 0.78032(12) 0.70013(10)
O3_4 O 0.7341(2) 0.82449(13) 0.81001(12)
O4_4 O 0.5925(2) 0.7669(2) 0.74784(13)
N1_4 N 0.8424(2) 0.7052(2) 0.90532(14)
N2_4 N 0.9211(2) 0.7106(2) 0.86959(15)
H1_4 H 0.9189(2) 0.7066(2) 0.82965(15)
N5_4 N 0.5978(2) 0.6111(2) 0.82622(15)
N6_4 N 0.5267(2) 0.6457(2) 0.8002(2)
H3_4 H 0.5319(2) 0.6867(2) 0.7934(2)
N7_4 N 0.3052(2) 0.42554(14) 0.76766(13)
H4_4 H 0.2697(2) 0.40240(14) 0.74225(13)
N9_4 N 0.8825(2) 0.7775(2) 0.59365(13)
N10_4 N 0.8403(2) 0.7209(2) 0.58282(14)
H5_4 H 0.7888(2) 0.7061(2) 0.60322(14)
N15_4 N 0.7985(2) 0.57712(15) 0.77003(13)
H8_4 H 0.7600(2) 0.60056(15) 0.74658(13)
N16_4 N 0.8148(2) 0.58944(15) 0.82866(14)
N17_4 N 0.7019(3) 0.6030(2) 0.94499(14)
N18_4 N 0.8180(2) 0.9052(2) 0.55874(15)
C2_4 C 0.9781(3) 0.7238(2) 0.9599(2)
C3_4 C 0.8762(3) 0.7133(2) 0.9603(2)
C11_3 C 0.4467(3) 0.6120(2) 0.7876(2)
C12_3 C 0.4657(3) 0.5519(2) 0.8059(2)
C13_4 C 0.5610(3) 0.5536(2) 0.8287(2)
C14_4 C 0.6192(3) 0.5009(2) 0.8528(2)
H21_4 H 0.6001(3) 0.4636(2) 0.8324(2)
H22_4 H 0.6076(3) 0.4962(2) 0.8948(2)
H23_4 H 0.6876(3) 0.5079(2) 0.8468(2)
C15_3 C 0.3589(4) 0.6405(2) 0.7578(3)
H24_3 H 0.3017(4) 0.6175(2) 0.7688(3)
H25_3 H 0.3670(4) 0.6402(2) 0.7152(3)
H26_3 H 0.3529(4) 0.6829(2) 0.7703(3)
C16_4 C 0.3698(3) 0.4592(2) 0.8485(2)
C17_4 C 0.4013(3) 0.4984(2) 0.8016(2)
C18_4 C 0.3574(3) 0.4741(2) 0.7510(2)
C19_4 C 0.3656(4) 0.4931(3) 0.6862(2)
H27_3 H 0.4243(4) 0.5169(3) 0.6819(2)
H28_3 H 0.3122(4) 0.5190(3) 0.6739(2)
H29_4 H 0.3703(4) 0.4579(3) 0.6602(2)
C20_4 C 0.3935(3) 0.4638(2) 0.9135(2)
H30_4 H 0.4491(3) 0.4901(2) 0.9195(2)
H31_4 H 0.4058(3) 0.4231(2) 0.9291(2)
H32_4 H 0.3377(3) 0.4804(2) 0.9338(2)
C21_4 C 0.9581(3) 0.7805(2) 0.5555(2)
C22_4 C 0.9615(3) 0.7263(2) 0.5198(2)
C23_4 C 0.8851(3) 0.6902(2) 0.5392(2)
C24_4 C 0.8527(4) 0.6279(2) 0.5185(3)
H33_4 H 0.7829(4) 0.6248(2) 0.5179(3)
H34_4 H 0.8815(4) 0.5974(2) 0.5442(3)
H35_3 H 0.8803(4) 0.6218(2) 0.4796(3)
C26_3 C 0.9982(3) 0.7144(2) 0.4095(2)
C30_3 C 0.9045(3) 0.7264(3) 0.3805(2)
H42_3 H 0.8883(3) 0.7691(3) 0.3878(2)
H43_3 H 0.8536(3) 0.7008(3) 0.3966(2)
H44_3 H 0.9081(3) 0.7199(3) 0.3382(2)
C31_4 C 0.9394(3) 0.3880(2) 0.7896(2)
C32_4 C 0.9622(3) 0.4498(2) 0.8023(2)
C35_4 C 0.8467(4) 0.3584(3) 0.7714(3)
H48_4 H 0.8556(4) 0.3406(3) 0.7324(3)
H49_4 H 0.7948(4) 0.3882(3) 0.7693(3)
H50_4 H 0.8286(4) 0.3258(3) 0.7984(3)
C36_4 C 0.8451(3) 0.5259(2) 0.7512(2)
C37_4 C 0.8967(3) 0.5036(2) 0.8003(2)
C38_4 C 0.8759(3) 0.5452(2) 0.8470(2)
C39_4 C 0.9112(4) 0.5418(3) 0.9104(2)
H51_4 H 0.9017(4) 0.5809(3) 0.9301(2)
H52_4 H 0.9788(4) 0.5303(3) 0.9103(2)
H53_4 H 0.8761(4) 0.5092(3) 0.9302(2)
C40_4 C 0.8366(5) 0.5039(3) 0.6887(2)
H54_4 H 0.8211(5) 0.5380(3) 0.6628(2)
H55_4 H 0.7855(5) 0.4736(3) 0.6857(2)
H56_4 H 0.8977(5) 0.4858(3) 0.6773(2)
C41_4 C 0.6943(4) 0.5799(2) 0.9904(2)
C42_4 C 0.8483(3) 0.9266(2) 0.5161(2)
C11_4 C 0.9467(3) 0.8880(2) 0.2124(2)
C12_4 C 0.9657(3) 0.9481(2) 0.1941(2)
C15_4 C 0.8589(4) 0.8595(2) 0.2422(3)
H24_4 H 0.8017(4) 0.8825(2) 0.2312(3)
H25_4 H 0.8670(4) 0.8598(2) 0.2848(3)
H26_4 H 0.8529(4) 0.8171(2) 0.2297(3)
H27_4 H 0.9243(4) 0.9831(3) 0.3181(2)
H28_4 H 0.8122(4) 0.9810(3) 0.3261(2)
S2_4 S 0.1070(2) 0.45617(11) 0.04549(8)
H35_4 H 0.1197(4) 0.1218(2) 0.0204(3)
C26_4 C 0.0018(3) 0.2144(2) 0.0905(2)
C30_4 C 0.0955(3) 0.2264(3) 0.1195(2)
H42_4 H 0.1117(3) 0.2691(3) 0.1122(2)
H43_4 H 0.1464(3) 0.2008(3) 0.1034(2)
H44_4 H 0.0919(3) 0.2199(3) 0.1618(2)
S1_4 S 0.6815(2) 0.54785(11) 0.05584(7)
C4_4 C 0.8117(3) 0.7122(2) 0.0142(2)
H9_4 H 0.7456(3) 0.7198(2) 0.0023(2)
H10_4 H 0.8309(3) 0.7433(2) 0.0425(2)
H11_4 H 0.8154(3) 0.6722(2) 0.0329(2)
C10_4 C 0.9853(3) 0.8406(2) 0.0478(2)
H18_4 H 0.9334(3) 0.8373(2) 0.0192(2)
H20_4 H 0.9617(3) 0.8472(2) 0.0876(2)
loop_
_geom_bond_atom_site_label_1
_geom_bond_atom_site_label_2
_geom_bond_site_symmetry_1
_geom_bond_site_symmetry_2
N13 N14 1_555 1_555
N14 H7 1_555 1_555
C31 N14 1_555 1_555
C32 C31 1_555 1_555
C33 N13 1_555 1_555
C35 C31 1_555 1_555
H48 C35 1_555 1_555
H49 C35 1_555 1_555
H50 C35 1_555 1_555
Co6 N13 1_555 1_555
C32 C33 1_555 1_555
Co1 O1 1_555 1_555
Co2 O2 1_555 1_555
Se1 O1 1_555 1_555
S2 C42 1_555 1_555
O2 Se1 1_555 1_555
O3 Se1 1_555 1_555
O4 Se1 1_555 1_555
N1 Co1 1_555 1_555
N2 N1 1_555 1_555
H1 N2 1_555 1_555
N5 Co1 1_555 1_555
N6 N5 1_555 1_555
H3 N6 1_555 1_555
N9 Co2 1_555 1_555
N10 N9 1_555 1_555
H5 N10 1_555 1_555
N11 H6 1_555 1_555
N12 N11 1_555 1_555
N15 H8 1_555 1_555
N16 Co1 1_555 1_555
N17 Co1 1_555 1_555
N18 Co2 1_555 1_555
C1 N2 1_555 1_555
C2 C1 1_555 1_555
C3 N1 1_555 1_555
C5 C1 1_555 1_555
H12 C5 1_555 1_555
H13 C5 1_555 1_555
H14 C5 1_555 1_555
C13 N5 1_555 1_555
C14 C13 1_555 1_555
H23 C14 1_555 1_555
C21 N9 1_555 1_555
C22 C21 1_555 1_555
C23 N10 1_555 1_555
C24 C23 1_555 1_555
H33 C24 1_555 1_555
H34 C24 1_555 1_555
H35 C24 1_555 1_555
C25 C21 1_555 1_555
H36 C25 1_555 1_555
H37 C25 1_555 1_555
H38 C25 1_555 1_555
C26 N11 1_555 1_555
C27 C22 1_555 1_555
C28 N12 1_555 1_555
C29 C28 1_555 1_555
H39 C29 1_555 1_555
H40 C29 1_555 1_555
H41 C29 1_555 1_555
C30 C26 1_555 1_555
H42 C30 1_555 1_555
H43 C30 1_555 1_555
H44 C30 1_555 1_555
H46 C34 1_555 1_555
H47 C34 1_555 1_555
C36 N15 1_555 1_555
C38 N16 1_555 1_555
C39 C38 1_555 1_555
H51 C39 1_555 1_555
H52 C39 1_555 1_555
H53 C39 1_555 1_555
C40 C36 1_555 1_555
H54 C40 1_555 1_555
C41 N17 1_555 1_555
C42 N18 1_555 1_555
Co5 N12 1_555 1_555
N19 Co1 1_555 1_555
N20 Co2 1_555 1_555
N21 Co2 1_555 1_555
N22 Co2 1_555 1_555
N15 N16 1_555 1_555
C2 C3 1_555 1_555
C22 C23 1_555 1_555
C26 C27 1_555 1_555
C27 C28 1_555 1_555
C36 C37 1_555 1_555
C37 C38 1_555 1_555
N3 H2 1_555 1_555
N4 N3 1_555 1_555
H9 C4 1_555 1_555
H10 C4 1_555 1_555
H11 C4 1_555 1_555
C6 N4 1_555 1_555
C8 N3 1_555 1_555
C9 C8 1_555 1_555
H17 C9 1_555 1_555
C10 C6 1_555 1_555
H18 C10 1_555 1_555
H19 C10 1_555 1_555
H20 C10 1_555 1_555
Co3 N4 1_555 1_555
C6 C7 1_555 1_555
C7 C8 1_555 1_555
N7 H4 1_555 1_555
N8 N7 1_555 1_555
C16 N8 1_555 1_555
C18 N7 1_555 1_555
C19 C18 1_555 1_555
H29 C19 1_555 1_555
C20 C16 1_555 1_555
H30 C20 1_555 1_555
H31 C20 1_555 1_555
H32 C20 1_555 1_555
Co6 N8 1_555 1_555
C16 C17 1_555 1_555
C17 C18 1_555 1_555
Co1_2 O1_2 1_555 1_555
Co2_2 O2_2 1_555 1_555
Se1_2 O1_2 1_555 1_555
S1_2 C41_2 1_555 1_555
O2_2 Se1_2 1_555 1_555
O3_2 Se1_2 1_555 1_555
O4_2 Se1_2 1_555 1_555
N1_2 Co1_2 1_555 1_555
N2_2 N1_2 1_555 1_555
H1_2 N2_2 1_555 1_555
N5_2 Co1_2 1_555 1_555
N6_2 N5_2 1_555 1_555
H3_2 N6_2 1_555 1_555
N9_2 Co2_2 1_555 1_555
N10_2 N9_2 1_555 1_555
H5_2 N10_2 1_555 1_555
N15_2 H8_2 1_555 1_555
N16_2 Co1_2 1_555 1_555
N17_2 Co1_2 1_555 1_555
N18_2 Co2_2 1_555 1_555
C3_2 N1_2 1_555 1_555
C4_2 C3_2 1_555 1_555
H9_2 C4_2 1_555 1_555
H10_2 C4_2 1_555 1_555
H11_2 C4_2 1_555 1_555
H18_2 C10_2 1_555 1_555
H20_2 C10_2 1_555 1_555
C11 N6_2 1_555 1_555
C12 C11 1_555 1_555
C13_2 N5_2 1_555 1_555
C14_2 C13_2 1_555 1_555
H23_2 C14_2 1_555 1_555
C15 C11 1_555 1_555
H24 C15 1_555 1_555
H25 C15 1_555 1_555
H26 C15 1_555 1_555
C21_2 N9_2 1_555 1_555
C22_2 C21_2 1_555 1_555
C23_2 N10_2 1_555 1_555
C24_2 C23_2 1_555 1_555
H33_2 C24_2 1_555 1_555
H34_2 C24_2 1_555 1_555
C36_2 N15_2 1_555 1_555
C38_2 N16_2 1_555 1_555
C39_2 C38_2 1_555 1_555
H51_2 C39_2 1_555 1_555
H52_2 C39_2 1_555 1_555
H53_2 C39_2 1_555 1_555
C40_2 C36_2 1_555 1_555
H54_2 C40_2 1_555 1_555
C41_2 N17_2 1_555 1_555
C42_2 N18_2 1_555 1_555
N19_2 Co1_2 1_555 1_555
N20_2 Co2_2 1_555 1_555
N21_2 Co2_2 1_555 1_555
N22_2 Co2_2 1_555 1_555
N15_2 N16_2 1_555 1_555
C2_2 C3_2 1_555 1_555
C12 C13_2 1_555 1_555
C22_2 C23_2 1_555 1_555
C36_2 C37_2 1_555 1_555
C37_2 C38_2 1_555 1_555
N7_2 H4_2 1_555 1_555
N8_2 N7_2 1_555 1_555
C16_2 N8_2 1_555 1_555
C18_2 N7_2 1_555 1_555
C19_2 C18_2 1_555 1_555
H29_2 C19_2 1_555 1_555
C20_2 C16_2 1_555 1_555
H30_2 C20_2 1_555 1_555
H31_2 C20_2 1_555 1_555
H32_2 C20_2 1_555 1_555
C32_2 C31_2 1_555 1_555
C35_2 C31_2 1_555 1_555
H48_2 C35_2 1_555 1_555
H49_2 C35_2 1_555 1_555
H50_2 C35_2 1_555 1_555
Co5 N8_2 1_555 1_555
C16_2 C17_2 1_555 1_555
C17_2 C18_2 1_555 1_555
N11_2 H6_2 1_555 1_555
N12_2 N11_2 1_555 1_555
C28_2 N12_2 1_555 1_555
Co6 N12_2 1_555 1_555
C27_2 C28_2 1_555 1_555
N3_2 H2_2 1_555 1_555
N4_2 N3_2 1_555 1_555
C5_2 C1_2 1_555 1_555
H12_2 C5_2 1_555 1_555
H13_2 C5_2 1_555 1_555
H14_2 C5_2 1_555 1_555
C6_2 N4_2 1_555 1_555
C8_2 N3_2 1_555 1_555
C9_2 C8_2 1_555 1_555
H15_2 C9_2 1_555 1_555
H16_2 C9_2 1_555 1_555
H17_2 C9_2 1_555 1_555
H36_2 C25_2 1_555 1_555
H37_2 C25_2 1_555 1_555
H38_2 C25_2 1_555 1_555
H39_2 C29_2 1_555 1_555
H40_2 C29_2 1_555 1_555
H41_2 C29_2 1_555 1_555
H46_2 C34_2 1_555 1_555
H47_2 C34_2 1_555 1_555
Co3_2 N4_2 1_555 1_555
C6_2 C7_2 1_555 1_555
C7_2 C8_2 1_555 1_555
N13_2 N14_2 1_555 1_555
N14_2 H7_2 1_555 1_555
C33_2 N13_2 1_555 1_555
Co5 N13_2 1_555 1_555
N7_3 H4_3 1_555 1_555
N20 N7_3 1_555 1_555
C12_2 C11_2 1_555 1_555
C15_2 C11_2 1_555 1_555
H24_2 C15_2 1_555 1_555
H25_2 C15_2 1_555 1_555
H26_2 C15_2 1_555 1_555
C16_3 N20 1_555 1_555
C17_3 C12_2 1_555 1_555
C18_3 N7_3 1_555 1_555
C19_3 C18_3 1_555 1_555
H27_2 C19_3 1_555 1_555
H28_2 C19_3 1_555 1_555
H29_3 C19_3 1_555 1_555
C20_3 C16_3 1_555 1_555
H30_3 C20_3 1_555 1_555
H31_3 C20_3 1_555 1_555
H32_3 C20_3 1_555 1_555
C16_3 C17_3 1_555 1_555
C17_3 C18_3 1_555 1_555
Co3_2 O1_3 1_555 1_555
Co6 O2_3 1_555 1_555
Se1_3 O1_3 1_555 1_555
S1_3 C41_3 1_555 1_555
O2_3 Se1_3 1_555 1_555
O3_3 Se1_3 1_555 1_555
O4_3 Se1_3 1_555 1_555
N1_3 Co3_2 1_555 1_555
N2_3 N1_3 1_555 1_555
H1_3 N2_3 1_555 1_555
N3_3 H2_3 1_555 1_555
N19_2 N3_3 1_555 1_555
N5_3 Co3_2 1_555 1_555
N6_3 N5_3 1_555 1_555
H3_3 N6_3 1_555 1_555
N9_3 Co6 1_555 1_555
N10_3 N9_3 1_555 1_555
H5_3 N10_3 1_555 1_555
N22 N14_3 1_555 1_555
N14_3 H7_3 1_555 1_555
N15_3 H8_3 1_555 1_555
N16_3 Co3_2 1_555 1_555
N17_3 Co3_2 1_555 1_555
N18_3 Co6 1_555 1_555
C1_3 N2_3 1_555 1_555
C2_3 C1_3 1_555 1_555
C3_3 N1_3 1_555 1_555
C4_3 C3_3 1_555 1_555
H9_3 C4_3 1_555 1_555
H10_3 C4_3 1_555 1_555
H11_3 C4_3 1_555 1_555
C5_3 C1_3 1_555 1_555
H12_3 C5_3 1_555 1_555
H13_3 C5_3 1_555 1_555
H14_3 C5_3 1_555 1_555
C6_3 N19_2 1_555 1_555
C7_3 C2_3 1_555 1_555
C8_3 N3_3 1_555 1_555
C9_3 C8_3 1_555 1_555
H15_3 C9_3 1_555 1_555
H16_3 C9_3 1_555 1_555
H17_3 C9_3 1_555 1_555
C10_3 C6_3 1_555 1_555
H18_3 C10_3 1_555 1_555
H19_3 C10_3 1_555 1_555
H20_3 C10_3 1_555 1_555
C13_3 N5_3 1_555 1_555
C14_3 C13_3 1_555 1_555
H21_3 C14_3 1_555 1_555
H22_3 C14_3 1_555 1_555
H23_3 C14_3 1_555 1_555
C21_3 N9_3 1_555 1_555
C22_3 C21_3 1_555 1_555
C23_3 N10_3 1_555 1_555
C24_3 C23_3 1_555 1_555
H33_3 C24_3 1_555 1_555
H34_3 C24_3 1_555 1_555
C25_3 C21_3 1_555 1_555
H36_3 C25_3 1_555 1_555
H37_3 C25_3 1_555 1_555
H38_3 C25_3 1_555 1_555
H39_3 C29_3 1_555 1_555
H40_3 C29_3 1_555 1_555
H41_3 C29_3 1_555 1_555
C31_3 N14_3 1_555 1_555
C32_3 C31_3 1_555 1_555
C33_3 N22 1_555 1_555
C34_3 C33_3 1_555 1_555
H45_3 C34_3 1_555 1_555
H46_3 C34_3 1_555 1_555
H47_3 C34_3 1_555 1_555
C35_3 C31_3 1_555 1_555
H48_3 C35_3 1_555 1_555
H49_3 C35_3 1_555 1_555
H50_3 C35_3 1_555 1_555
C36_3 N15_3 1_555 1_555
C37_3 C32_3 1_555 1_555
C38_3 N16_3 1_555 1_555
C39_3 C38_3 1_555 1_555
H51_3 C39_3 1_555 1_555
H52_3 C39_3 1_555 1_555
H53_3 C39_3 1_555 1_555
C40_3 C36_3 1_555 1_555
H54_3 C40_3 1_555 1_555
H55_3 C40_3 1_555 1_555
H56_3 C40_3 1_555 1_555
C41_3 N17_3 1_555 1_555
C42_3 N18_3 1_555 1_555
N15_3 N16_3 1_555 1_555
C2_3 C3_3 1_555 1_555
C6_3 C7_3 1_555 1_555
C7_3 C8_3 1_555 1_555
C22_3 C23_3 1_555 1_555
C32_3 C33_3 1_555 1_555
C36_3 C37_3 1_555 1_555
C37_3 C38_3 1_555 1_555
N11_3 H6_3 1_555 1_555
N21_2 N11_3 1_555 1_555
C26_2 N11_3 1_555 1_555
C28_3 N21_2 1_555 1_555
C30_2 C26_2 1_555 1_555
H42_2 C30_2 1_555 1_555
H43_2 C30_2 1_555 1_555
H44_2 C30_2 1_555 1_555
C26_2 C27_3 1_555 1_555
C27_3 C28_3 1_555 1_555
N3_4 H2_4 1_555 1_555
N19 N3_4 1_555 1_555
C6_4 N19 1_555 1_555
C8_4 N3_4 1_555 1_555
C9_4 C8_4 1_555 1_555
H17_4 C9_4 1_555 1_555
C6_4 C7_4 1_555 1_555
C7_4 C8_4 1_555 1_555
N11_4 H6_4 1_555 1_555
N21 N11_4 1_555 1_555
N22_2 N14_4 1_555 1_555
N14_4 H7_4 1_555 1_555
C5_4 C1_4 1_555 1_555
H12_4 C5_4 1_555 1_555
H13_4 C5_4 1_555 1_555
H14_4 C5_4 1_555 1_555
H36_4 C25_4 1_555 1_555
H37_4 C25_4 1_555 1_555
H38_4 C25_4 1_555 1_555
C28_4 N21 1_555 1_555
C29_4 C28_4 1_555 1_555
H39_4 C29_4 1_555 1_555
H40_4 C29_4 1_555 1_555
H41_4 C29_4 1_555 1_555
C33_4 N22_2 1_555 1_555
C34_4 C33_4 1_555 1_555
H45_4 C34_4 1_555 1_555
H46_4 C34_4 1_555 1_555
H47_4 C34_4 1_555 1_555
C27_4 C28_4 1_555 1_555
Co3 O1_4 1_555 1_555
Co5 O2_4 1_555 1_555
Se1_4 O1_4 1_555 1_555
S2_3 C42_4 1_555 1_555
O2_4 Se1_4 1_555 1_555
O3_4 Se1_4 1_555 1_555
O4_4 Se1_4 1_555 1_555
N1_4 Co3 1_555 1_555
N2_4 N1_4 1_555 1_555
H1_4 N2_4 1_555 1_555
N5_4 Co3 1_555 1_555
N6_4 N5_4 1_555 1_555
H3_4 N6_4 1_555 1_555
N7_4 H4_4 1_555 1_555
N20_2 N7_4 1_555 1_555
N9_4 Co5 1_555 1_555
N10_4 N9_4 1_555 1_555
H5_4 N10_4 1_555 1_555
N15_4 H8_4 1_555 1_555
N16_4 Co3 1_555 1_555
N17_4 Co3 1_555 1_555
N18_4 Co5 1_555 1_555
C3_4 N1_4 1_555 1_555
C11_3 N6_4 1_555 1_555
C12_3 C11_3 1_555 1_555
C13_4 N5_4 1_555 1_555
C14_4 C13_4 1_555 1_555
H21_4 C14_4 1_555 1_555
H22_4 C14_4 1_555 1_555
H23_4 C14_4 1_555 1_555
C15_3 C11_3 1_555 1_555
H24_3 C15_3 1_555 1_555
H25_3 C15_3 1_555 1_555
H26_3 C15_3 1_555 1_555
C16_4 N20_2 1_555 1_555
C17_4 C12_3 1_555 1_555
C18_4 N7_4 1_555 1_555
C19_4 C18_4 1_555 1_555
H27_3 C19_4 1_555 1_555
H28_3 C19_4 1_555 1_555
H29_4 C19_4 1_555 1_555
C20_4 C16_4 1_555 1_555
H30_4 C20_4 1_555 1_555
H31_4 C20_4 1_555 1_555
H32_4 C20_4 1_555 1_555
C21_4 N9_4 1_555 1_555
C22_4 C21_4 1_555 1_555
C23_4 N10_4 1_555 1_555
C24_4 C23_4 1_555 1_555
H33_4 C24_4 1_555 1_555
H34_4 C24_4 1_555 1_555
H35_3 C24_4 1_555 1_555
C30_3 C26_3 1_555 1_555
H42_3 C30_3 1_555 1_555
H43_3 C30_3 1_555 1_555
H44_3 C30_3 1_555 1_555
C32_4 C31_4 1_555 1_555
C35_4 C31_4 1_555 1_555
H48_4 C35_4 1_555 1_555
H49_4 C35_4 1_555 1_555
H50_4 C35_4 1_555 1_555
C36_4 N15_4 1_555 1_555
C37_4 C32_4 1_555 1_555
C38_4 N16_4 1_555 1_555
C39_4 C38_4 1_555 1_555
H51_4 C39_4 1_555 1_555
H52_4 C39_4 1_555 1_555
H53_4 C39_4 1_555 1_555
C40_4 C36_4 1_555 1_555
H54_4 C40_4 1_555 1_555
H55_4 C40_4 1_555 1_555
H56_4 C40_4 1_555 1_555
C41_4 N17_4 1_555 1_555
C42_4 N18_4 1_555 1_555
N15_4 N16_4 1_555 1_555
C2_4 C3_4 1_555 1_555
C12_3 C13_4 1_555 1_555
C16_4 C17_4 1_555 1_555
C17_4 C18_4 1_555 1_555
C22_4 C23_4 1_555 1_555
C36_4 C37_4 1_555 1_555
C37_4 C38_4 1_555 1_555
C12_4 C11_4 1_555 1_555
C15_4 C11_4 1_555 1_555
H24_4 C15_4 1_555 1_555
H25_4 C15_4 1_555 1_555
H26_4 C15_4 1_555 1_555
C30_4 C26_4 1_555 1_555
H42_4 C30_4 1_555 1_555
H43_4 C30_4 1_555 1_555
H44_4 C30_4 1_555 1_555
H9_4 C4_4 1_555 1_555
H10_4 C4_4 1_555 1_555
H11_4 C4_4 1_555 1_555
H18_4 C10_4 1_555 1_555
H20_4 C10_4 1_555 1_555

#END
