
###############################################################################
#
# This file contains modified crystal structure data generated from the
# MOF subset of the Cambridge Structural Database (CSD) v543 
# hosted by the Cambridge Crystallographic Data Centre (CCDC).
#
# This work is licensed under the Creative Commons
# Attribution-NonCommercial-ShareAlike 4.0 International License.
# To view a copy of this license, visit
# http://creativecommons.org/licenses/by-nc-sa/4.0/
# or send a letter to
# Creative Commons, PO Box 1866, Mountain View, CA 94042, USA.
#
# CIF created using the CSD Python API on 29 September 2022
# The structure has been converted into the P1 space group
# The structure has a 3D framework
# The original CSD entry CILXIH is in the monoclinic crystal system
# The framework has been calculated to contain at least 10.0% void space
# The void calculation uses a probe of radius 1.32A, grid spacing 0.4
# H atom positions have been added when not included in the experimental data
# Generated hydrogen atom positions removed from atoms on special positions
#
###############################################################################

data_CILXIH
_chemical_formula_moiety         '(C152 H120 N24 Ni20 O56)n'
_symmetry_cell_setting           triclinic
_symmetry_space_group_name_H-M   'P 1'
_symmetry_Int_Tables_number      1
_space_group_name_Hall           'P 1'
loop_
_symmetry_equiv_pos_site_id
_symmetry_equiv_pos_as_xyz
1 x,y,z
_cell_length_a                   28.835(2)
_cell_length_b                   10.0088(6)
_cell_length_c                   21.924(3)
_cell_angle_alpha                90
_cell_angle_beta                 128.843(2)
_cell_angle_gamma                90
_cell_volume                     4928.17
loop_
_atom_site_label
_atom_site_type_symbol
_atom_site_fract_x
_atom_site_fract_y
_atom_site_fract_z
H15 H 0.6464 0.1446 0.0049
Ni4 Ni 0.650821(10) 0.40227(3) 0.078888(13)
N7 N 0.87252(8) 0.1682(2) 0.02585(10)
H27 H 0.959653 0.171796 0.00934173
H28 H 0.957535 0.00997183 0.00475604
Ni2 Ni 0.5000 0.0000 0.5000
O1 O 0.33842(6) 0.22230(16) 0.37096(8)
O2 O 0.42832(6) 0.13048(16) 0.44678(8)
H7 H 0.4399 0.0162 0.2283
C10 C 0.46473(11) 0.0033(3) 0.33758(13)
H10 H 0.4721 0.0942 0.3479
C13 C 0.30783(8) 0.0078(2) 0.26278(11)
H11 H 0.2992 0.0904 0.2384
C19 C 0.37339(8) 0.1266(2) 0.39097(11)
Ni3 Ni 0.849179(10) 0.09773(3) 0.921112(13)
O10 O 0.62425(7) 0.10755(19) 0.49609(9)
O11 O 0.54769(6) 0.15067(16) 0.49428(8)
O12 O 0.64694(7) 0.38662(17) 0.56263(9)
O13 O 0.66684(6) 0.47515(16) 0.66754(8)
O14 O 0.93952(7) 0.0936(2) 0.97398(11)
N4 N 0.62748(8) 0.3318(2) 0.97415(10)
N5 N 0.52661(7) 0.0747(2) 0.60728(9)
N6 N 0.75623(8) 0.10215(19) 0.86563(10)
H13 H 0.7492 0.1737 0.8836
H14 H 0.7474 0.0288 0.8803
C20 C 0.63018(12) 0.2026(3) 0.96288(13)
C21 C 0.60466(12) 0.4133(3) 0.91312(14)
H16 H 0.6029 0.5043 0.9199
C22 C 0.58363(12) 0.3675(3) 0.84033(14)
H17 H 0.5672 0.4273 0.7990
C23 C 0.61021(12) 0.1499(3) 0.89189(13)
H18 H 0.6125 0.0583 0.8869
C24 C 0.58694(9) 0.2327(3) 0.82854(12)
C25 C 0.56597(9) 0.1794(3) 0.75171(11)
C26 C 0.55469(11) 0.0429(3) 0.73491(12)
C27 C 0.55643(10) 0.2604(3) 0.69370(12)
H20 H 0.5631 0.3519 0.7020
C28 C 0.53712(10) 0.2056(3) 0.62357(12)
H21 H 0.5311 0.2624 0.5856
C30 C 0.60221(8) 0.1276(2) 0.52901(11)
C31 C 0.65970(8) 0.3733(2) 0.62883(11)
C33 C 0.64346(8) 0.1222(2) 0.61787(11)
C34 C 0.65456(8) 0.0002(2) 0.65571(11)
C35 C 0.70484(8) 0.2305(2) 0.74462(11)
H24 H 0.7211 0.3083 0.7742
C36 C 0.66912(8) 0.2375(2) 0.66414(11)
C37 C 0.71685(8) 0.1076(2) 0.78212(11)
Ni6 Ni 0.349179(10) 0.40227(3) 0.421112(13)
Ni9 Ni 0.650821(10) 0.59773(3) 0.578888(13)
O16 O 0.83842(6) 0.27770(16) 0.87096(8)
O17 O 0.14694(7) 0.11338(17) 0.06263(9)
O19 O 0.16684(6) 0.02485(16) 0.16754(8)
Ni1 Ni 0.150821(10) 0.90227(3) 0.078888(13)
Ni2_2 Ni 0.5000 1.0000 0.5000
O3 O 0.37575(7) 0.89245(19) 0.50391(9)
O4 O 0.45231(6) 0.84933(16) 0.50572(8)
O5 O 0.35306(7) 0.61338(17) 0.43737(9)
O6 O 0.33316(6) 0.52485(16) 0.33246(8)
O7 O 0.06048(7) 0.9064(2) 0.02602(11)
N1 N 0.37252(8) 0.6682(2) 0.02585(10)
N2 N 0.47339(7) 0.9253(2) 0.39272(9)
N3 N 0.24377(8) 0.89785(19) 0.13437(10)
H1 H 0.2508 0.8263 0.1164
H2 H 0.2526 0.9712 0.1197
C1 C 0.36982(12) 0.7974(3) 0.03712(13)
C2 C 0.39534(12) 0.5867(3) 0.08688(14)
H4 H 0.3971 0.4957 0.0801
C3 C 0.41637(12) 0.6325(3) 0.15967(14)
H5 H 0.4328 0.5727 0.2010
C4 C 0.38979(12) 0.8501(3) 0.10811(13)
H6 H 0.3875 0.9417 0.1131
C5 C 0.41306(9) 0.7673(3) 0.17146(12)
C6 C 0.43403(9) 0.8206(3) 0.24829(11)
C7 C 0.44531(11) 0.9571(3) 0.26509(12)
C8 C 0.44357(10) 0.7396(3) 0.30630(12)
H8 H 0.4369 0.6481 0.2980
C9 C 0.46288(10) 0.7944(3) 0.37643(12)
H9 H 0.4689 0.7376 0.4144
C11 C 0.39779(8) 0.8724(2) 0.47099(11)
C12 C 0.34030(8) 0.6267(2) 0.37117(11)
C14 C 0.35654(8) 0.8778(2) 0.38213(11)
C15 C 0.34544(8) 0.9998(2) 0.34429(11)
C16 C 0.29516(8) 0.7695(2) 0.25538(11)
H12 H 0.2789 0.6917 0.2258
C17 C 0.33088(8) 0.7625(2) 0.33586(11)
C18 C 0.28315(8) 0.8924(2) 0.21788(11)
O8 O 0.66158(6) 0.77770(16) 0.62904(8)
O9 O 0.57168(6) 0.86952(16) 0.55322(8)
H19 H 0.5601 0.9838 0.7717
C29 C 0.53527(11) 0.9967(3) 0.66242(13)
H22 H 0.5279 0.9058 0.6521
C32 C 0.69217(8) 0.9922(2) 0.73722(11)
H23 H 0.7008 0.9096 0.7616
C38 C 0.62661(8) 0.8734(2) 0.60903(11)
O15 O 0.16158(6) 0.72230(16) 0.12904(8)
O18 O 0.85306(7) 0.88662(17) 0.93737(9)
O20 O 0.83316(6) 0.97515(16) 0.83246(8)
H25 H 0.0555848 0.902936 0.0669686
H3 H 0.3536 0.8554 0.9951
Ni7 Ni 0.349179(10) 0.59773(3) 0.921112(13)
N8 N 0.12748(8) 0.8318(2) 0.97415(10)
H26 H 0.0424648 0.990028 0.995244
Ni2_3 Ni 0.5000 0.0000 0.0000
O1_2 O 0.66158(6) 0.22230(16) 0.12904(8)
O2_2 O 0.57168(6) 0.13048(16) 0.05322(8)
H7_2 H 0.5601 0.0162 0.2717
C10_2 C 0.53527(11) 0.0033(3) 0.16242(13)
H10_2 H 0.5279 0.0942 0.1521
C13_2 C 0.69217(8) 0.0078(2) 0.23722(11)
H11_2 H 0.7008 0.0904 0.2616
C19_2 C 0.62661(8) 0.1266(2) 0.10903(11)
O10_2 O 0.37575(7) 0.10755(19) 0.00391(9)
O11_2 O 0.45231(6) 0.15067(16) 0.00572(8)
O17_2 O 0.85306(7) 0.11338(17) 0.43737(9)
O19_2 O 0.83316(6) 0.02485(16) 0.33246(8)
Ni2_4 Ni 0.5000 0.0000 1.0000
Ni3_2 Ni 0.150821(10) 0.09773(3) 0.578888(13)
O12_2 O 0.35306(7) 0.38662(17) 0.93737(9)
O13_2 O 0.33316(6) 0.47515(16) 0.83246(8)
O14_2 O 0.06048(7) 0.0936(2) 0.52602(11)
N4_2 N 0.37252(8) 0.3318(2) 0.52585(10)
N5_2 N 0.47339(7) 0.0747(2) 0.89272(9)
N6_2 N 0.24377(8) 0.10215(19) 0.63437(10)
H13_2 H 0.2508 0.1737 0.6164
H14_2 H 0.2526 0.0288 0.6197
C20_2 C 0.36982(12) 0.2026(3) 0.53712(13)
H15_2 H 0.3536 0.1446 0.4951
C21_2 C 0.39534(12) 0.4133(3) 0.58688(14)
H16_2 H 0.3971 0.5043 0.5801
C22_2 C 0.41637(12) 0.3675(3) 0.65967(14)
H17_2 H 0.4328 0.4273 0.7010
C23_2 C 0.38979(12) 0.1499(3) 0.60811(13)
H18_2 H 0.3875 0.0583 0.6131
C24_2 C 0.41306(9) 0.2327(3) 0.67146(12)
C25_2 C 0.43403(9) 0.1794(3) 0.74829(11)
C26_2 C 0.44531(11) 0.0429(3) 0.76509(12)
C27_2 C 0.44357(10) 0.2604(3) 0.80630(12)
H20_2 H 0.4369 0.3519 0.7980
C28_2 C 0.46288(10) 0.2056(3) 0.87643(12)
H21_2 H 0.4689 0.2624 0.9144
C30_2 C 0.39779(8) 0.1276(2) 0.97099(11)
C31_2 C 0.34030(8) 0.3733(2) 0.87117(11)
C33_2 C 0.35654(8) 0.1222(2) 0.88213(11)
C34_2 C 0.34544(8) 0.0002(2) 0.84429(11)
C35_2 C 0.29516(8) 0.2305(2) 0.75538(11)
H24_2 H 0.2789 0.3083 0.7258
C36_2 C 0.33088(8) 0.2375(2) 0.83586(11)
C37_2 C 0.28315(8) 0.1076(2) 0.71788(11)
O16_2 O 0.16158(6) 0.27770(16) 0.62904(8)
N7_2 N 0.12748(8) 0.1682(2) 0.47415(10)
Ni1_2 Ni 0.849179(10) 0.90227(3) 0.421112(13)
Ni2_5 Ni 0.5000 1.0000 0.0000
O5_2 O 0.64694(7) 0.61338(17) 0.06263(9)
O6_2 O 0.66684(6) 0.52485(16) 0.16754(8)
O7_2 O 0.93952(7) 0.9064(2) 0.47398(11)
N1_2 N 0.62748(8) 0.6682(2) 0.47415(10)
N2_2 N 0.52661(7) 0.9253(2) 0.10728(9)
N3_2 N 0.75623(8) 0.89785(19) 0.36563(10)
H1_2 H 0.7492 0.8263 0.3836
H2_2 H 0.7474 0.9712 0.3803
C1_2 C 0.63018(12) 0.7974(3) 0.46288(13)
H3_2 H 0.6464 0.8554 0.5049
C2_2 C 0.60466(12) 0.5867(3) 0.41312(14)
H4_2 H 0.6029 0.4957 0.4199
C3_2 C 0.58363(12) 0.6325(3) 0.34033(14)
H5_2 H 0.5672 0.5727 0.2990
C4_2 C 0.61021(12) 0.8501(3) 0.39189(13)
H6_2 H 0.6125 0.9417 0.3869
C5_2 C 0.58694(9) 0.7673(3) 0.32854(12)
C6_2 C 0.56597(9) 0.8206(3) 0.25171(11)
C7_2 C 0.55469(11) 0.9571(3) 0.23491(12)
C8_2 C 0.55643(10) 0.7396(3) 0.19370(12)
H8_2 H 0.5631 0.6481 0.2020
C9_2 C 0.53712(10) 0.7944(3) 0.12357(12)
H9_2 H 0.5311 0.7376 0.0856
C11_2 C 0.60221(8) 0.8724(2) 0.02901(11)
C12_2 C 0.65970(8) 0.6267(2) 0.12883(11)
C14_2 C 0.64346(8) 0.8778(2) 0.11787(11)
C15_2 C 0.65456(8) 0.9998(2) 0.15571(11)
C16_2 C 0.70484(8) 0.7695(2) 0.24462(11)
H12_2 H 0.7211 0.6917 0.2742
C17_2 C 0.66912(8) 0.7625(2) 0.16414(11)
C18_2 C 0.71685(8) 0.8924(2) 0.28212(11)
O15_2 O 0.83842(6) 0.72230(16) 0.37096(8)
N8_2 N 0.87252(8) 0.8318(2) 0.52585(10)
Ni2_6 Ni 0.5000 1.0000 1.0000
O3_2 O 0.62425(7) 0.89245(19) 0.99609(9)
O4_2 O 0.54769(6) 0.84933(16) 0.99428(8)
O8_2 O 0.33842(6) 0.77770(16) 0.87096(8)
O9_2 O 0.42832(6) 0.86952(16) 0.94678(8)
H19_2 H 0.4399 0.9838 0.7283
C29_2 C 0.46473(11) 0.9967(3) 0.83758(13)
H22_2 H 0.4721 0.9058 0.8479
C32_2 C 0.30783(8) 0.9922(2) 0.76278(11)
H23_2 H 0.2992 0.9096 0.7384
C38_2 C 0.37339(8) 0.8734(2) 0.89097(11)
O18_2 O 0.14694(7) 0.88662(17) 0.56263(9)
O20_2 O 0.16684(6) 0.97515(16) 0.66754(8)
H16_3 H 0.1029 0.0043 0.9199
H15_3 H 0.1464 0.6446 0.0049
H27_2 H 0.459653 0.671796 0.00934173
H28_2 H 0.457535 0.509972 0.00475604
Ni2_7 Ni 0.0000 0.5000 0.5000
O9_3 O 0.07168(6) 0.36952(16) 0.55322(8)
O10_3 O 0.12425(7) 0.60755(19) 0.49609(9)
O11_3 O 0.04769(6) 0.65067(16) 0.49428(8)
O14_3 O 0.43952(7) 0.5936(2) 0.97398(11)
N5_3 N 0.02661(7) 0.5747(2) 0.60728(9)
N6_3 N 0.25623(8) 0.60215(19) 0.86563(10)
H13_3 H 0.2492 0.6737 0.8836
H14_3 H 0.2474 0.5288 0.8803
C20_3 C 0.13018(12) 0.7026(3) 0.96288(13)
C21_3 C 0.10466(12) 0.9133(3) 0.91312(14)
C22_3 C 0.08363(12) 0.8675(3) 0.84033(14)
H17_3 H 0.0672 0.9273 0.7990
C23_3 C 0.11021(12) 0.6499(3) 0.89189(13)
H18_3 H 0.1125 0.5583 0.8869
C24_3 C 0.08694(9) 0.7327(3) 0.82854(12)
C25_3 C 0.06597(9) 0.6794(3) 0.75171(11)
C26_3 C 0.05469(11) 0.5429(3) 0.73491(12)
H19_3 H 0.0601 0.4838 0.7717
C27_3 C 0.05643(10) 0.7604(3) 0.69370(12)
H20_3 H 0.0631 0.8519 0.7020
C28_3 C 0.03712(10) 0.7056(3) 0.62357(12)
H21_3 H 0.0311 0.7624 0.5856
C29_3 C 0.03527(11) 0.4967(3) 0.66242(13)
H22_3 H 0.0279 0.4058 0.6521
C30_3 C 0.10221(8) 0.6276(2) 0.52901(11)
C31_3 C 0.15970(8) 0.8733(2) 0.62883(11)
C32_3 C 0.19217(8) 0.4922(2) 0.73722(11)
H23_3 H 0.2008 0.4096 0.7616
C33_3 C 0.14346(8) 0.6222(2) 0.61787(11)
C34_3 C 0.15456(8) 0.5002(2) 0.65571(11)
C35_3 C 0.20484(8) 0.7305(2) 0.74462(11)
H24_3 H 0.2211 0.8083 0.7742
C36_3 C 0.16912(8) 0.7375(2) 0.66414(11)
C37_3 C 0.21685(8) 0.6076(2) 0.78212(11)
C38_3 C 0.12661(8) 0.3734(2) 0.60903(11)
Ni2_8 Ni 1.0000 0.5000 0.5000
O2_3 O 0.92832(6) 0.63048(16) 0.44678(8)
O3_3 O 0.87575(7) 0.39245(19) 0.50391(9)
O4_3 O 0.95231(6) 0.34933(16) 0.50572(8)
O7_3 O 0.56048(7) 0.4064(2) 0.02602(11)
N2_3 N 0.97339(7) 0.4253(2) 0.39272(9)
N3_3 N 0.74377(8) 0.39785(19) 0.13437(10)
H1_3 H 0.7508 0.3263 0.1164
H2_3 H 0.7526 0.4712 0.1197
C1_3 C 0.86982(12) 0.2974(3) 0.03712(13)
C2_3 C 0.89534(12) 0.0867(3) 0.08688(14)
C3_3 C 0.91637(12) 0.1325(3) 0.15967(14)
H5_3 H 0.9328 0.0727 0.2010
C4_3 C 0.88979(12) 0.3501(3) 0.10811(13)
H6_3 H 0.8875 0.4417 0.1131
C5_3 C 0.91306(9) 0.2673(3) 0.17146(12)
C6_3 C 0.93403(9) 0.3206(3) 0.24829(11)
C7_3 C 0.94531(11) 0.4571(3) 0.26509(12)
H7_3 H 0.9399 0.5162 0.2283
C8_3 C 0.94357(10) 0.2396(3) 0.30630(12)
H8_3 H 0.9369 0.1481 0.2980
C9_3 C 0.96288(10) 0.2944(3) 0.37643(12)
H9_3 H 0.9689 0.2376 0.4144
C10_3 C 0.96473(11) 0.5033(3) 0.33758(13)
H10_3 H 0.9721 0.5942 0.3479
C11_3 C 0.89779(8) 0.3724(2) 0.47099(11)
C12_3 C 0.84030(8) 0.1267(2) 0.37117(11)
C13_3 C 0.80783(8) 0.5078(2) 0.26278(11)
H11_3 H 0.7992 0.5904 0.2384
C14_3 C 0.85654(8) 0.3778(2) 0.38213(11)
C15_3 C 0.84544(8) 0.4998(2) 0.34429(11)
C16_3 C 0.79516(8) 0.2695(2) 0.25538(11)
H12_3 H 0.7789 0.1917 0.2258
C17_3 C 0.83088(8) 0.2625(2) 0.33586(11)
C18_3 C 0.78315(8) 0.3924(2) 0.21788(11)
C19_3 C 0.87339(8) 0.6266(2) 0.39097(11)
H25_2 H 0.555585 0.402936 0.0669686
H3_3 H 0.8536 0.3554 0.9951
H26_2 H 0.542465 0.490028 0.995244
H4_3 H 0.8971 0.9957 0.0801
Ni2_9 Ni 0.0000 0.5000 0.0000
O2_4 O 0.07168(6) 0.63048(16) 0.05322(8)
O7_4 O 0.43952(7) 0.4064(2) 0.47398(11)
N2_4 N 0.02661(7) 0.4253(2) 0.10728(9)
N3_4 N 0.25623(8) 0.39785(19) 0.36563(10)
H1_4 H 0.2492 0.3263 0.3836
H2_4 H 0.2474 0.4712 0.3803
C1_4 C 0.13018(12) 0.2974(3) 0.46288(13)
H3_4 H 0.1464 0.3554 0.5049
C2_4 C 0.10466(12) 0.0867(3) 0.41312(14)
C3_4 C 0.08363(12) 0.1325(3) 0.34033(14)
H5_4 H 0.0672 0.0727 0.2990
C4_4 C 0.11021(12) 0.3501(3) 0.39189(13)
H6_4 H 0.1125 0.4417 0.3869
C5_4 C 0.08694(9) 0.2673(3) 0.32854(12)
C6_4 C 0.06597(9) 0.3206(3) 0.25171(11)
C7_4 C 0.05469(11) 0.4571(3) 0.23491(12)
H7_4 H 0.0601 0.5162 0.2717
C8_4 C 0.05643(10) 0.2396(3) 0.19370(12)
H8_4 H 0.0631 0.1481 0.2020
C9_4 C 0.03712(10) 0.2944(3) 0.12357(12)
H9_4 H 0.0311 0.2376 0.0856
C10_4 C 0.03527(11) 0.5033(3) 0.16242(13)
H10_4 H 0.0279 0.5942 0.1521
C11_4 C 0.10221(8) 0.3724(2) 0.02901(11)
C12_4 C 0.15970(8) 0.1267(2) 0.12883(11)
C13_4 C 0.19217(8) 0.5078(2) 0.23722(11)
H11_4 H 0.2008 0.5904 0.2616
C14_4 C 0.14346(8) 0.3778(2) 0.11787(11)
C15_4 C 0.15456(8) 0.4998(2) 0.15571(11)
C16_4 C 0.20484(8) 0.2695(2) 0.24462(11)
H12_4 H 0.2211 0.1917 0.2742
C17_4 C 0.16912(8) 0.2625(2) 0.16414(11)
C18_4 C 0.21685(8) 0.3924(2) 0.28212(11)
C19_4 C 0.12661(8) 0.6266(2) 0.10903(11)
H4_4 H 0.1029 0.9957 0.4199
H16_4 H 0.8971 0.0043 0.5801
Ni2_10 Ni 1.0000 0.5000 1.0000
O9_4 O 0.92832(6) 0.36952(16) 0.94678(8)
O14_4 O 0.56048(7) 0.5936(2) 0.52602(11)
N5_4 N 0.97339(7) 0.5747(2) 0.89272(9)
N6_4 N 0.74377(8) 0.60215(19) 0.63437(10)
H13_4 H 0.7508 0.6737 0.6164
H14_4 H 0.7526 0.5288 0.6197
C20_4 C 0.86982(12) 0.7026(3) 0.53712(13)
H15_4 H 0.8536 0.6446 0.4951
C21_4 C 0.89534(12) 0.9133(3) 0.58688(14)
C22_4 C 0.91637(12) 0.8675(3) 0.65967(14)
H17_4 H 0.9328 0.9273 0.7010
C23_4 C 0.88979(12) 0.6499(3) 0.60811(13)
H18_4 H 0.8875 0.5583 0.6131
C24_4 C 0.91306(9) 0.7327(3) 0.67146(12)
C25_4 C 0.93403(9) 0.6794(3) 0.74829(11)
C26_4 C 0.94531(11) 0.5429(3) 0.76509(12)
H19_4 H 0.9399 0.4838 0.7283
C27_4 C 0.94357(10) 0.7604(3) 0.80630(12)
H20_4 H 0.9369 0.8519 0.7980
C28_4 C 0.96288(10) 0.7056(3) 0.87643(12)
H21_4 H 0.9689 0.7624 0.9144
C29_4 C 0.96473(11) 0.4967(3) 0.83758(13)
H22_4 H 0.9721 0.4058 0.8479
C30_4 C 0.89779(8) 0.6276(2) 0.97099(11)
C31_4 C 0.84030(8) 0.8733(2) 0.87117(11)
C32_4 C 0.80783(8) 0.4922(2) 0.76278(11)
H23_4 H 0.7992 0.4096 0.7384
C33_4 C 0.85654(8) 0.6222(2) 0.88213(11)
C34_4 C 0.84544(8) 0.5002(2) 0.84429(11)
C35_4 C 0.79516(8) 0.7305(2) 0.75538(11)
H24_4 H 0.7789 0.8083 0.7258
C36_4 C 0.83088(8) 0.7375(2) 0.83586(11)
C37_4 C 0.78315(8) 0.6076(2) 0.71788(11)
C38_4 C 0.87339(8) 0.3734(2) 0.89097(11)
H25_3 H 0.944415 0.0970641 0.933031
H27_3 H 0.0403471 0.828204 0.990658
H25_4 H 0.444415 0.597064 0.933031
H27_4 H 0.540347 0.328204 0.990658
Ni2_11 Ni 0.0000 0.5000 1.0000
O3_4 O 0.12425(7) 0.39245(19) 0.99609(9)
O4_4 O 0.04769(6) 0.34933(16) 0.99428(8)
Ni2_12 Ni 1.0000 0.5000 0.0000
O10_4 O 0.87575(7) 0.60755(19) 0.00391(9)
O11_4 O 0.95231(6) 0.65067(16) 0.00572(8)
loop_
_geom_bond_atom_site_label_1
_geom_bond_atom_site_label_2
_geom_bond_site_symmetry_1
_geom_bond_site_symmetry_2
Ni2 O2 1_555 1_555
O1 C19 1_555 1_555
O2 C19 1_555 1_555
H10 C10 1_555 1_555
C13 H11 1_555 1_555
Ni3 O14 1_555 1_555
O10 C30 1_555 1_555
O11 Ni2 1_555 1_555
O12 C31 1_555 1_555
O13 C31 1_555 1_555
N4 C20 1_555 1_555
N5 Ni2 1_555 1_555
N6 Ni3 1_555 1_555
H13 N6 1_555 1_555
H14 N6 1_555 1_555
C21 N4 1_555 1_555
H16 C21 1_555 1_555
C22 C21 1_555 1_555
H17 C22 1_555 1_555
C23 C20 1_555 1_555
H18 C23 1_555 1_555
C24 C22 1_555 1_555
C25 C24 1_555 1_555
C26 C25 1_555 1_555
C27 C25 1_555 1_555
H20 C27 1_555 1_555
C28 N5 1_555 1_555
H21 C28 1_555 1_555
C30 O11 1_555 1_555
C31 C36 1_555 1_555
C33 C30 1_555 1_555
C35 H24 1_555 1_555
C36 C33 1_555 1_555
C37 N6 1_555 1_555
Ni6 O1 1_555 1_555
Ni9 O12 1_555 1_555
O16 Ni3 1_555 1_555
O13 Ni9 1_555 1_555
C23 C24 1_555 1_555
C27 C28 1_555 1_555
C33 C34 1_555 1_555
C35 C36 1_555 1_555
C35 C37 1_555 1_555
Ni1 O7 1_555 1_555
O3 C11 1_555 1_555
O4 Ni2_2 1_555 1_555
O5 C12 1_555 1_555
O6 C12 1_555 1_555
N1 C1 1_555 1_555
N2 Ni2_2 1_555 1_555
N3 Ni1 1_555 1_555
H1 N3 1_555 1_555
H2 N3 1_555 1_555
C2 N1 1_555 1_555
H4 C2 1_555 1_555
C3 C2 1_555 1_555
H5 C3 1_555 1_555
C4 C1 1_555 1_555
H6 C4 1_555 1_555
C5 C3 1_555 1_555
C6 C5 1_555 1_555
C7 C6 1_555 1_555
C8 C6 1_555 1_555
H8 C8 1_555 1_555
C9 N2 1_555 1_555
H9 C9 1_555 1_555
C11 O4 1_555 1_555
C12 C17 1_555 1_555
C14 C11 1_555 1_555
C16 H12 1_555 1_555
C17 C14 1_555 1_555
C18 N3 1_555 1_555
O8 C38 1_555 1_555
O9 Ni2_2 1_555 1_555
H22 C29 1_555 1_555
C32 H23 1_555 1_555
C38 O9 1_555 1_555
Ni6 O5 1_555 1_555
Ni9 O8 1_555 1_555
O15 Ni1 1_555 1_555
O6 Ni6 1_555 1_555
C4 C5 1_555 1_555
C8 C9 1_555 1_555
C14 C15 1_555 1_555
C16 C17 1_555 1_555
C16 C18 1_555 1_555
O7 H25 1_555 1_555
Ni2_3 O2_2 1_555 1_555
O1_2 C19_2 1_555 1_555
O2_2 C19_2 1_555 1_555
H10_2 C10_2 1_555 1_555
C13_2 H11_2 1_555 1_555
O11_2 Ni2_3 1_555 1_555
Ni4 O1_2 1_555 1_555
Ni3_2 O14_2 1_555 1_555
O12_2 C31_2 1_555 1_555
O13_2 C31_2 1_555 1_555
N4_2 C20_2 1_555 1_555
N5_2 Ni2_4 1_555 1_555
N6_2 Ni3_2 1_555 1_555
H13_2 N6_2 1_555 1_555
H14_2 N6_2 1_555 1_555
C20_2 H15_2 1_555 1_555
C21_2 N4_2 1_555 1_555
H16_2 C21_2 1_555 1_555
C22_2 C21_2 1_555 1_555
H17_2 C22_2 1_555 1_555
C23_2 C20_2 1_555 1_555
H18_2 C23_2 1_555 1_555
C24_2 C22_2 1_555 1_555
C25_2 C24_2 1_555 1_555
C26_2 C25_2 1_555 1_555
C27_2 C25_2 1_555 1_555
H20_2 C27_2 1_555 1_555
C28_2 N5_2 1_555 1_555
H21_2 C28_2 1_555 1_555
C31_2 C36_2 1_555 1_555
C33_2 C30_2 1_555 1_555
C35_2 H24_2 1_555 1_555
C36_2 C33_2 1_555 1_555
C37_2 N6_2 1_555 1_555
Ni6 N4_2 1_555 1_555
Ni7 O12_2 1_555 1_555
O16_2 Ni3_2 1_555 1_555
N7_2 Ni3_2 1_555 1_555
O13_2 Ni7 1_555 1_555
C23_2 C24_2 1_555 1_555
C27_2 C28_2 1_555 1_555
C33_2 C34_2 1_555 1_555
C35_2 C36_2 1_555 1_555
C35_2 C37_2 1_555 1_555
Ni1_2 O7_2 1_555 1_555
O5_2 C12_2 1_555 1_555
O6_2 C12_2 1_555 1_555
N1_2 C1_2 1_555 1_555
N2_2 Ni2_5 1_555 1_555
N3_2 Ni1_2 1_555 1_555
H1_2 N3_2 1_555 1_555
H2_2 N3_2 1_555 1_555
C1_2 H3_2 1_555 1_555
C2_2 N1_2 1_555 1_555
H4_2 C2_2 1_555 1_555
C3_2 C2_2 1_555 1_555
H5_2 C3_2 1_555 1_555
C4_2 C1_2 1_555 1_555
H6_2 C4_2 1_555 1_555
C5_2 C3_2 1_555 1_555
C6_2 C5_2 1_555 1_555
C7_2 C6_2 1_555 1_555
C8_2 C6_2 1_555 1_555
H8_2 C8_2 1_555 1_555
C9_2 N2_2 1_555 1_555
H9_2 C9_2 1_555 1_555
C12_2 C17_2 1_555 1_555
C14_2 C11_2 1_555 1_555
C16_2 H12_2 1_555 1_555
C17_2 C14_2 1_555 1_555
C18_2 N3_2 1_555 1_555
Ni4 O5_2 1_555 1_555
Ni9 N1_2 1_555 1_555
O15_2 Ni1_2 1_555 1_555
N8_2 Ni1_2 1_555 1_555
O6_2 Ni4 1_555 1_555
C4_2 C5_2 1_555 1_555
C8_2 C9_2 1_555 1_555
C14_2 C15_2 1_555 1_555
C16_2 C17_2 1_555 1_555
C16_2 C18_2 1_555 1_555
O4_2 Ni2_6 1_555 1_555
O8_2 C38_2 1_555 1_555
O9_2 Ni2_6 1_555 1_555
H22_2 C29_2 1_555 1_555
C32_2 H23_2 1_555 1_555
C38_2 O9_2 1_555 1_555
Ni7 O8_2 1_555 1_555
Ni7 O14_3 1_555 1_555
O16_2 C38_3 1_555 1_555
O9_3 Ni2_7 1_555 1_555
O10_3 C30_3 1_555 1_555
O11_3 Ni2_7 1_555 1_555
O18_2 C31_3 1_555 1_555
O20_2 C31_3 1_555 1_555
N8 C20_3 1_555 1_555
N5_3 Ni2_7 1_555 1_555
N6_3 Ni7 1_555 1_555
H13_3 N6_3 1_555 1_555
H14_3 N6_3 1_555 1_555
C21_3 N8 1_555 1_555
C22_3 C21_3 1_555 1_555
H17_3 C22_3 1_555 1_555
C23_3 C20_3 1_555 1_555
H18_3 C23_3 1_555 1_555
C24_3 C22_3 1_555 1_555
C25_3 C24_3 1_555 1_555
C26_3 C25_3 1_555 1_555
H19_3 C26_3 1_555 1_555
C27_3 C25_3 1_555 1_555
H20_3 C27_3 1_555 1_555
C28_3 N5_3 1_555 1_555
H21_3 C28_3 1_555 1_555
C29_3 N5_3 1_555 1_555
H22_3 C29_3 1_555 1_555
C30_3 O11_3 1_555 1_555
C31_3 C36_3 1_555 1_555
C32_3 H23_3 1_555 1_555
C33_3 C30_3 1_555 1_555
C34_3 C32_3 1_555 1_555
C35_3 H24_3 1_555 1_555
C36_3 C33_3 1_555 1_555
C37_3 N6_3 1_555 1_555
C38_3 O9_3 1_555 1_555
C23_3 C24_3 1_555 1_555
C26_3 C29_3 1_555 1_555
C27_3 C28_3 1_555 1_555
C32_3 C37_3 1_555 1_555
C33_3 C34_3 1_555 1_555
C34_3 C38_3 1_555 1_555
C35_3 C36_3 1_555 1_555
C35_3 C37_3 1_555 1_555
Ni4 O7_3 1_555 1_555
Ni2_8 O2_3 1_555 1_555
O15_2 C19_3 1_555 1_555
O2_3 C19_3 1_555 1_555
O3_3 C11_3 1_555 1_555
O4_3 Ni2_8 1_555 1_555
O17_2 C12_3 1_555 1_555
O19_2 C12_3 1_555 1_555
N7 C1_3 1_555 1_555
N2_3 Ni2_8 1_555 1_555
N3_3 Ni4 1_555 1_555
H1_3 N3_3 1_555 1_555
H2_3 N3_3 1_555 1_555
C2_3 N7 1_555 1_555
C3_3 C2_3 1_555 1_555
H5_3 C3_3 1_555 1_555
C4_3 C1_3 1_555 1_555
H6_3 C4_3 1_555 1_555
C5_3 C3_3 1_555 1_555
C6_3 C5_3 1_555 1_555
C7_3 C6_3 1_555 1_555
H7_3 C7_3 1_555 1_555
C8_3 C6_3 1_555 1_555
H8_3 C8_3 1_555 1_555
C9_3 N2_3 1_555 1_555
H9_3 C9_3 1_555 1_555
C10_3 N2_3 1_555 1_555
H10_3 C10_3 1_555 1_555
C11_3 O4_3 1_555 1_555
C12_3 C17_3 1_555 1_555
C13_3 H11_3 1_555 1_555
C14_3 C11_3 1_555 1_555
C15_3 C13_3 1_555 1_555
C16_3 H12_3 1_555 1_555
C17_3 C14_3 1_555 1_555
C18_3 N3_3 1_555 1_555
C19_3 C15_3 1_555 1_555
C4_3 C5_3 1_555 1_555
C7_3 C10_3 1_555 1_555
C8_3 C9_3 1_555 1_555
C13_3 C18_3 1_555 1_555
C14_3 C15_3 1_555 1_555
C16_3 C17_3 1_555 1_555
C16_3 C18_3 1_555 1_555
O7_3 H25_2 1_555 1_555
Ni6 O7_4 1_555 1_555
Ni2_9 O2_4 1_555 1_555
O15 C19_4 1_555 1_555
O2_4 C19_4 1_555 1_555
O17 C12_4 1_555 1_555
O19 C12_4 1_555 1_555
N7_2 C1_4 1_555 1_555
N2_4 Ni2_9 1_555 1_555
N3_4 Ni6 1_555 1_555
H1_4 N3_4 1_555 1_555
H2_4 N3_4 1_555 1_555
C1_4 H3_4 1_555 1_555
C2_4 N7_2 1_555 1_555
C3_4 C2_4 1_555 1_555
H5_4 C3_4 1_555 1_555
C4_4 C1_4 1_555 1_555
H6_4 C4_4 1_555 1_555
C5_4 C3_4 1_555 1_555
C6_4 C5_4 1_555 1_555
C7_4 C6_4 1_555 1_555
H7_4 C7_4 1_555 1_555
C8_4 C6_4 1_555 1_555
H8_4 C8_4 1_555 1_555
C9_4 N2_4 1_555 1_555
H9_4 C9_4 1_555 1_555
C10_4 N2_4 1_555 1_555
H10_4 C10_4 1_555 1_555
C12_4 C17_4 1_555 1_555
C13_4 H11_4 1_555 1_555
C14_4 C11_4 1_555 1_555
C15_4 C13_4 1_555 1_555
C16_4 H12_4 1_555 1_555
C17_4 C14_4 1_555 1_555
C18_4 N3_4 1_555 1_555
C19_4 C15_4 1_555 1_555
C4_4 C5_4 1_555 1_555
C7_4 C10_4 1_555 1_555
C8_4 C9_4 1_555 1_555
C13_4 C18_4 1_555 1_555
C14_4 C15_4 1_555 1_555
C16_4 C17_4 1_555 1_555
C16_4 C18_4 1_555 1_555
Ni9 O14_4 1_555 1_555
O16 C38_4 1_555 1_555
O9_4 Ni2_10 1_555 1_555
O18 C31_4 1_555 1_555
O20 C31_4 1_555 1_555
N8_2 C20_4 1_555 1_555
N5_4 Ni2_10 1_555 1_555
N6_4 Ni9 1_555 1_555
H13_4 N6_4 1_555 1_555
H14_4 N6_4 1_555 1_555
C20_4 H15_4 1_555 1_555
C21_4 N8_2 1_555 1_555
C22_4 C21_4 1_555 1_555
H17_4 C22_4 1_555 1_555
C23_4 C20_4 1_555 1_555
H18_4 C23_4 1_555 1_555
C24_4 C22_4 1_555 1_555
C25_4 C24_4 1_555 1_555
C26_4 C25_4 1_555 1_555
H19_4 C26_4 1_555 1_555
C27_4 C25_4 1_555 1_555
H20_4 C27_4 1_555 1_555
C28_4 N5_4 1_555 1_555
H21_4 C28_4 1_555 1_555
C29_4 N5_4 1_555 1_555
H22_4 C29_4 1_555 1_555
C31_4 C36_4 1_555 1_555
C32_4 H23_4 1_555 1_555
C33_4 C30_4 1_555 1_555
C34_4 C32_4 1_555 1_555
C35_4 H24_4 1_555 1_555
C36_4 C33_4 1_555 1_555
C37_4 N6_4 1_555 1_555
C38_4 O9_4 1_555 1_555
C23_4 C24_4 1_555 1_555
C26_4 C29_4 1_555 1_555
C27_4 C28_4 1_555 1_555
C32_4 C37_4 1_555 1_555
C33_4 C34_4 1_555 1_555
C34_4 C38_4 1_555 1_555
C35_4 C36_4 1_555 1_555
C35_4 C37_4 1_555 1_555
O14 H25_3 1_555 1_555
O14_3 H25_4 1_555 1_555
O4_4 Ni2_11 1_555 1_555
O11_4 Ni2_12 1_555 1_555

#END
