
###############################################################################
#
# This file contains modified crystal structure data generated from the
# MOF subset of the Cambridge Structural Database (CSD) v543 
# hosted by the Cambridge Crystallographic Data Centre (CCDC).
#
# This work is licensed under the Creative Commons
# Attribution-NonCommercial-ShareAlike 4.0 International License.
# To view a copy of this license, visit
# http://creativecommons.org/licenses/by-nc-sa/4.0/
# or send a letter to
# Creative Commons, PO Box 1866, Mountain View, CA 94042, USA.
#
# CIF created using the CSD Python API on 29 September 2022
# The structure has been converted into the P1 space group
# The structure has a 3D framework
# The original CSD entry CILXIH01 is in the monoclinic crystal system
# The framework has been calculated to contain at least 10.0% void space
# The void calculation uses a probe of radius 1.32A, grid spacing 0.4
#
###############################################################################

data_CILXIH01
_chemical_formula_moiety         '(C152 H112 N24 Ni10 O52)n'
_symmetry_cell_setting           triclinic
_symmetry_space_group_name_H-M   'P 1'
_symmetry_Int_Tables_number      1
_space_group_name_Hall           'P 1'
loop_
_symmetry_equiv_pos_site_id
_symmetry_equiv_pos_as_xyz
1 x,y,z
_cell_length_a                   28.710(11)
_cell_length_b                   10.017(3)
_cell_length_c                   22.795(6)
_cell_angle_alpha                90
_cell_angle_beta                 131.263(12)
_cell_angle_gamma                90
_cell_volume                     4927.76
loop_
_atom_site_label
_atom_site_type_symbol
_atom_site_fract_x
_atom_site_fract_y
_atom_site_fract_z
Ni1 Ni 0.7500 0.2500 0.5000
O1 O 0.73142(12) 0.1192(2) 0.55331(14)
O2 O 0.69574(11) 0.4006(2) 0.49397(13)
O3 O 0.75045(11) 0.7256(2) 0.66729(14)
O4 O 0.66489(13) 0.6363(2) 0.56277(15)
O5 O 0.71692(12) 0.0272(2) 0.62896(14)
O6 O 0.62104(12) 0.3570(3) 0.49708(16)
N1 N 0.33065(13) 0.1744(3) 0.10685(16)
N3 N 0.85987(14) 0.3527(3) 0.86499(16)
H3 H 0.8848 0.4244 0.8827
H4 H 0.8836 0.2797 0.8796
C1 C 0.67596(15) 0.3771(3) 0.52931(18)
C2 C 0.72432(14) 0.3722(3) 0.61797(18)
C3 C 0.74444(14) 0.4875(3) 0.66389(18)
C4 C 0.71860(16) 0.6229(3) 0.62894(19)
C5 C 0.79020(15) 0.4805(3) 0.74471(18)
H5 H 0.8040 0.5582 0.7743
C6 C 0.81562(15) 0.3578(3) 0.78178(19)
C7 C 0.79544(16) 0.2427(3) 0.73709(19)
H6 H 0.8115 0.1602 0.7614
C8 C 0.75104(15) 0.2499(3) 0.65564(18)
C9 C 0.73215(14) 0.1229(3) 0.60888(18)
C10 C 0.5820(2) 0.0467(4) 0.4631(2)
H7 H 0.6079 0.1047 0.5050
C11 C 0.5309(2) 0.0994(4) 0.3917(2)
H8 H 0.5237 0.1909 0.3865
C12 C 0.49087(16) 0.0167(3) 0.3284(2)
C13 C 0.43555(15) 0.0699(3) 0.25160(19)
C15 C 0.33633(16) 0.0441(3) 0.1229(2)
C16 C 0.37742(18) 0.2534(3) 0.1625(2)
H11 H 0.3746 0.3442 0.1522
C17 C 0.42997(17) 0.2067(4) 0.2349(2)
H12 H 0.4611 0.2656 0.2720
O9 O 0.30426(11) 0.4006(2) 0.00603(13)
O13 O 0.37896(12) 0.3570(3) 0.00292(16)
N4 N 0.66935(13) 0.1744(3) 0.39315(16)
C29 C 0.4180(2) 0.0467(4) 0.0369(2)
C30 C 0.4691(2) 0.0994(4) 0.1083(2)
H22 H 0.4763 0.1909 0.1135
C31 C 0.50913(16) 0.0167(3) 0.1716(2)
C32 C 0.56445(15) 0.0699(3) 0.24840(19)
C34 C 0.66367(16) 0.0441(3) 0.3771(2)
C35 C 0.62258(18) 0.2534(3) 0.3375(2)
H25 H 0.6254 0.3442 0.3478
C36 C 0.57003(17) 0.2067(4) 0.2651(2)
H26 H 0.5389 0.2656 0.2280
Ni4 Ni 0.2500 0.2500 0.0000
Ni5 Ni 0.677404(19) 0.84751(4) 0.57886(2)
Ni8 Ni 0.822596(19) 0.34751(4) 0.92114(2)
O15 O 0.76858(12) 0.3808(2) 0.44669(14)
O16 O 0.80426(11) 0.0994(2) 0.50603(13)
N7 N 0.83065(13) 0.3256(3) 0.60685(16)
O8 O 0.26858(12) 0.1192(2) 0.94669(14)
O10 O 0.24955(11) 0.7256(2) 0.83271(14)
O11 O 0.33511(13) 0.6363(2) 0.93723(15)
O12 O 0.28308(12) 0.0272(2) 0.87104(14)
N6 N 0.14013(14) 0.3527(3) 0.63501(16)
H17 H 0.1152 0.4244 0.6173
H18 H 0.1164 0.2797 0.6204
C20 C 0.32404(15) 0.3771(3) 0.97069(18)
C21 C 0.27568(14) 0.3722(3) 0.88203(18)
C22 C 0.25556(14) 0.4875(3) 0.83611(18)
C23 C 0.28140(16) 0.6229(3) 0.87106(19)
C24 C 0.20980(15) 0.4805(3) 0.75529(18)
H19 H 0.1960 0.5582 0.7257
C25 C 0.18438(15) 0.3578(3) 0.71822(19)
C26 C 0.20456(16) 0.2427(3) 0.76291(19)
H20 H 0.1885 0.1602 0.7386
C27 C 0.24896(15) 0.2499(3) 0.84436(18)
C28 C 0.26785(14) 0.1229(3) 0.89112(18)
H21 H 0.3921 0.1047 0.9950
Ni4_2 Ni 0.2500 0.2500 1.0000
Ni6 Ni 0.322596(19) 0.84751(4) 0.92114(2)
Ni7 Ni 0.177404(19) 0.34751(4) 0.57886(2)
O7 O 0.71429(17) 0.8431(3) 0.5255(2)
H1 H 0.6980 0.7791 0.4930
H2 H 0.7526 0.8235 0.5591
N2 N 0.59563(14) 0.9173(3) 0.47448(16)
C14 C 0.38751(17) 0.9886(4) 0.1937(2)
H9 H 0.3893 0.8971 0.2018
H10 H 0.3045 0.9874 0.0849
C18 C 0.5063(2) 0.8818(4) 0.3404(2)
H13 H 0.4817 0.8217 0.2993
C19 C 0.5581(2) 0.8365(4) 0.4133(2)
H14 H 0.5672 0.7458 0.4199
H15 H 0.3020 0.7791 0.0070
N5 N 0.40437(14) 0.9173(3) 0.02552(16)
C33 C 0.61249(17) 0.9886(4) 0.3063(2)
H23 H 0.6107 0.8971 0.2982
H24 H 0.6955 0.9874 0.4151
C37 C 0.4937(2) 0.8818(4) 0.1596(2)
H27 H 0.5183 0.8217 0.2007
C38 C 0.4419(2) 0.8365(4) 0.0867(2)
H28 H 0.4328 0.7458 0.0801
N9 N 0.64013(14) 0.8527(3) 0.63501(16)
O14 O 0.28571(17) 0.8431(3) 0.9745(2)
H16 H 0.2474 0.8235 0.9409
N8 N 0.35987(14) 0.8527(3) 0.86499(16)
O15_2 O 0.23142(12) 0.3808(2) 0.05331(14)
O16_2 O 0.19574(11) 0.0994(2) 0.99397(13)
N7_2 N 0.16935(13) 0.3256(3) 0.89315(16)
O3_2 O 0.25045(11) 0.2256(2) 0.66729(14)
O4_2 O 0.16489(13) 0.1363(2) 0.56277(15)
C4_2 C 0.21860(16) 0.1229(3) 0.62894(19)
H5_2 H 0.3040 0.0582 0.7743
Ni1_2 Ni 0.2500 0.7500 0.5000
O1_2 O 0.23142(12) 0.6192(2) 0.55331(14)
O2_2 O 0.19574(11) 0.9006(2) 0.49397(13)
O5_2 O 0.21692(12) 0.5272(2) 0.62896(14)
O6_2 O 0.12104(12) 0.8570(3) 0.49708(16)
O7_2 O 0.21429(17) 0.3431(3) 0.5255(2)
H1_2 H 0.1980 0.2791 0.4930
H2_2 H 0.2526 0.3235 0.5591
N2_2 N 0.09563(14) 0.4173(3) 0.47448(16)
H3_2 H 0.3848 0.9244 0.8827
H4_2 H 0.3836 0.7797 0.8796
C1_2 C 0.17596(15) 0.8771(3) 0.52931(18)
C2_2 C 0.22432(14) 0.8722(3) 0.61797(18)
C3_2 C 0.24444(14) 0.9875(3) 0.66389(18)
C5_2 C 0.29020(15) 0.9805(3) 0.74471(18)
C6_2 C 0.31562(15) 0.8578(3) 0.78178(19)
C7_2 C 0.29544(16) 0.7427(3) 0.73709(19)
H6_2 H 0.3115 0.6602 0.7614
C8_2 C 0.25104(15) 0.7499(3) 0.65564(18)
C9_2 C 0.23215(14) 0.6229(3) 0.60888(18)
C10_2 C 0.0820(2) 0.5467(4) 0.4631(2)
H7_2 H 0.1079 0.6047 0.5050
C11_2 C 0.0309(2) 0.5994(4) 0.3917(2)
H8_2 H 0.0237 0.6909 0.3865
C18_2 C 0.0063(2) 0.3818(4) 0.3404(2)
C19_2 C 0.0581(2) 0.3365(4) 0.4133(2)
H14_2 H 0.0672 0.2458 0.4199
N4_2 N 0.16935(13) 0.6744(3) 0.39315(16)
C31_2 C 0.00913(16) 0.5167(3) 0.1716(2)
C32_2 C 0.06445(15) 0.5699(3) 0.24840(19)
C33_2 C 0.11249(17) 0.4886(4) 0.3063(2)
H23_2 H 0.1107 0.3971 0.2982
C34_2 C 0.16367(16) 0.5441(3) 0.3771(2)
H24_2 H 0.1955 0.4874 0.4151
C35_2 C 0.12258(18) 0.7534(3) 0.3375(2)
H25_2 H 0.1254 0.8442 0.3478
C36_2 C 0.07003(17) 0.7067(4) 0.2651(2)
H26_2 H 0.0389 0.7656 0.2280
H27_2 H 0.0183 0.3217 0.2007
O15_3 O 0.26858(12) 0.8808(2) 0.44669(14)
O16_3 O 0.30426(11) 0.5994(2) 0.50603(13)
N7_3 N 0.33065(13) 0.8256(3) 0.60685(16)
O10_2 O 0.74955(11) 0.2256(2) 0.83271(14)
O11_2 O 0.83511(13) 0.1363(2) 0.93723(15)
C23_2 C 0.78140(16) 0.1229(3) 0.87106(19)
H19_2 H 0.6960 0.0582 0.7257
N1_2 N 0.83065(13) 0.6744(3) 0.10685(16)
C12_2 C 0.99087(16) 0.5167(3) 0.3284(2)
C13_2 C 0.93555(15) 0.5699(3) 0.25160(19)
C14_2 C 0.88751(17) 0.4886(4) 0.1937(2)
H9_2 H 0.8893 0.3971 0.2018
C15_2 C 0.83633(16) 0.5441(3) 0.1229(2)
H10_2 H 0.8045 0.4874 0.0849
C16_2 C 0.87742(18) 0.7534(3) 0.1625(2)
H11_2 H 0.8746 0.8442 0.1522
C17_2 C 0.92997(17) 0.7067(4) 0.2349(2)
H12_2 H 0.9611 0.7656 0.2720
H13_2 H 0.9817 0.3217 0.2993
O9_2 O 0.80426(11) 0.9006(2) 0.00603(13)
O13_2 O 0.87896(12) 0.8570(3) 0.00292(16)
H15_2 H 0.8020 0.2791 0.0070
N5_2 N 0.90437(14) 0.4173(3) 0.02552(16)
C29_2 C 0.9180(2) 0.5467(4) 0.0369(2)
C30_2 C 0.9691(2) 0.5994(4) 0.1083(2)
H22_2 H 0.9763 0.6909 0.1135
C37_2 C 0.9937(2) 0.3818(4) 0.1596(2)
C38_2 C 0.9419(2) 0.3365(4) 0.0867(2)
H28_2 H 0.9328 0.2458 0.0801
Ni4_3 Ni 0.7500 0.7500 0.0000
O8_2 O 0.76858(12) 0.6192(2) 0.94669(14)
O12_2 O 0.78308(12) 0.5272(2) 0.87104(14)
O14_2 O 0.78571(17) 0.3431(3) 0.9745(2)
H16_2 H 0.7474 0.3235 0.9409
H17_2 H 0.6152 0.9244 0.6173
H18_2 H 0.6164 0.7797 0.6204
C20_2 C 0.82404(15) 0.8771(3) 0.97069(18)
C21_2 C 0.77568(14) 0.8722(3) 0.88203(18)
C22_2 C 0.75556(14) 0.9875(3) 0.83611(18)
C24_2 C 0.70980(15) 0.9805(3) 0.75529(18)
C25_2 C 0.68438(15) 0.8578(3) 0.71822(19)
C26_2 C 0.70456(16) 0.7427(3) 0.76291(19)
H20_2 H 0.6885 0.6602 0.7386
C27_2 C 0.74896(15) 0.7499(3) 0.84436(18)
C28_2 C 0.76785(14) 0.6229(3) 0.89112(18)
H21_2 H 0.8921 0.6047 0.9950
Ni4_4 Ni 0.7500 0.7500 1.0000
O15_4 O 0.73142(12) 0.8808(2) 0.05331(14)
O16_4 O 0.69574(11) 0.5994(2) 0.99397(13)
N7_4 N 0.66935(13) 0.8256(3) 0.89315(16)
Ni3 Ni 0.677404(19) 0.15249(4) 0.07886(2)
O14_3 O 0.71429(17) 0.1569(3) 0.0255(2)
H16_3 H 0.7526 0.1765 0.0591
O18 O 0.75045(11) 0.2744(2) 0.16729(14)
O20 O 0.66489(13) 0.3637(2) 0.06277(15)
N8_2 N 0.64013(14) 0.1473(3) 0.13501(16)
Ni2 Ni 0.322596(19) 0.15249(4) 0.42114(2)
O7_3 O 0.28571(17) 0.1569(3) 0.4745(2)
H1_3 H 0.3020 0.2209 0.5070
H2_3 H 0.2474 0.1765 0.4409
N2_3 N 0.40437(14) 0.0827(3) 0.52552(16)
C14_3 C 0.61249(17) 0.0114(4) 0.8063(2)
H9_3 H 0.6107 0.1029 0.7982
H10_3 H 0.6955 0.0126 0.9151
C18_3 C 0.4937(2) 0.1182(4) 0.6596(2)
H13_3 H 0.5183 0.1783 0.7007
C19_3 C 0.4419(2) 0.1635(4) 0.5867(2)
H14_3 H 0.4328 0.2542 0.5801
H15_3 H 0.6980 0.2209 0.9930
N5_3 N 0.59563(14) 0.0827(3) 0.97448(16)
C33_3 C 0.38751(17) 0.0114(4) 0.6937(2)
H23_3 H 0.3893 0.1029 0.7018
H24_3 H 0.3045 0.0126 0.5849
C37_3 C 0.5063(2) 0.1182(4) 0.8404(2)
H27_3 H 0.4817 0.1783 0.7993
C38_3 C 0.5581(2) 0.1635(4) 0.9133(2)
H28_3 H 0.5672 0.2542 0.9199
O17 O 0.24955(11) 0.2744(2) 0.33271(14)
O19 O 0.33511(13) 0.3637(2) 0.43723(15)
N9_2 N 0.35987(14) 0.1473(3) 0.36499(16)
O12_3 O 0.71692(12) 0.9728(2) 0.12896(14)
N6_2 N 0.85987(14) 0.6473(3) 0.36499(16)
H17_3 H 0.8848 0.5756 0.3827
H18_3 H 0.8836 0.7203 0.3796
C20_3 C 0.67596(15) 0.6229(3) 0.02931(18)
C21_3 C 0.72432(14) 0.6278(3) 0.11797(18)
C22_3 C 0.74444(14) 0.5125(3) 0.16389(18)
C23_3 C 0.71860(16) 0.3771(3) 0.12894(19)
C24_3 C 0.79020(15) 0.5195(3) 0.24471(18)
H19_3 H 0.8040 0.4418 0.2743
C25_3 C 0.81562(15) 0.6422(3) 0.28178(19)
C26_3 C 0.79544(16) 0.7573(3) 0.23709(19)
H20_3 H 0.8115 0.8398 0.2614
C27_3 C 0.75104(15) 0.7501(3) 0.15564(18)
C28_3 C 0.73215(14) 0.8771(3) 0.10888(18)
H21_3 H 0.6079 0.8953 0.0050
Ni7_2 Ni 0.822596(19) 0.65249(4) 0.42114(2)
O5_3 O 0.28308(12) 0.9728(2) 0.37104(14)
O6_3 O 0.37896(12) 0.6430(3) 0.50292(16)
N3_2 N 0.14013(14) 0.6473(3) 0.13501(16)
H3_3 H 0.1152 0.5756 0.1173
H4_3 H 0.1164 0.7203 0.1204
C1_3 C 0.32404(15) 0.6229(3) 0.47069(18)
C2_3 C 0.27568(14) 0.6278(3) 0.38203(18)
C3_3 C 0.25556(14) 0.5125(3) 0.33611(18)
C4_3 C 0.28140(16) 0.3771(3) 0.37106(19)
C5_3 C 0.20980(15) 0.5195(3) 0.25529(18)
H5_3 H 0.1960 0.4418 0.2257
C6_3 C 0.18438(15) 0.6422(3) 0.21822(19)
C7_3 C 0.20456(16) 0.7573(3) 0.26291(19)
H6_3 H 0.1885 0.8398 0.2386
C8_3 C 0.24896(15) 0.7501(3) 0.34436(18)
C9_3 C 0.26785(14) 0.8771(3) 0.39112(18)
C10_3 C 0.4180(2) 0.9533(4) 0.5369(2)
H7_3 H 0.3921 0.8953 0.4950
C11_3 C 0.4691(2) 0.9006(4) 0.6083(2)
H8_3 H 0.4763 0.8091 0.6135
C12_3 C 0.50913(16) 0.9833(3) 0.6716(2)
C13_3 C 0.56445(15) 0.9301(3) 0.74840(19)
C15_3 C 0.66367(16) 0.9559(3) 0.8771(2)
C16_3 C 0.62258(18) 0.7466(3) 0.8375(2)
H11_3 H 0.6254 0.6558 0.8478
C17_3 C 0.57003(17) 0.7933(4) 0.7651(2)
H12_3 H 0.5389 0.7344 0.7280
O13_3 O 0.62104(12) 0.6430(3) 0.99708(16)
C29_3 C 0.5820(2) 0.9533(4) 0.9631(2)
C30_3 C 0.5309(2) 0.9006(4) 0.8917(2)
H22_3 H 0.5237 0.8091 0.8865
C31_3 C 0.49087(16) 0.9833(3) 0.8284(2)
C32_3 C 0.43555(15) 0.9301(3) 0.75160(19)
C34_3 C 0.33633(16) 0.9559(3) 0.6229(2)
C35_3 C 0.37742(18) 0.7466(3) 0.6625(2)
H25_3 H 0.3746 0.6558 0.6522
C36_3 C 0.42997(17) 0.7933(4) 0.7349(2)
H26_3 H 0.4611 0.7344 0.7720
Ni8_2 Ni 0.177404(19) 0.65249(4) 0.07886(2)
O12_4 O 0.21692(12) 0.4728(2) 0.12896(14)
O14_4 O 0.21429(17) 0.6569(3) 0.0255(2)
H16_4 H 0.2526 0.6765 0.0591
H17_4 H 0.3848 0.0756 0.3827
H18_4 H 0.3836 0.2203 0.3796
C20_4 C 0.17596(15) 0.1229(3) 0.02931(18)
C21_4 C 0.22432(14) 0.1278(3) 0.11797(18)
C22_4 C 0.24444(14) 0.0125(3) 0.16389(18)
C24_4 C 0.29020(15) 0.0195(3) 0.24471(18)
C25_4 C 0.31562(15) 0.1422(3) 0.28178(19)
C26_4 C 0.29544(16) 0.2573(3) 0.23709(19)
H20_4 H 0.3115 0.3398 0.2614
C27_4 C 0.25104(15) 0.2501(3) 0.15564(18)
C28_4 C 0.23215(14) 0.3771(3) 0.10888(18)
H21_4 H 0.1079 0.3953 0.0050
O18_2 O 0.25045(11) 0.7744(2) 0.16729(14)
O20_2 O 0.16489(13) 0.8637(2) 0.06277(15)
C12_4 C 0.00913(16) 0.4833(3) 0.6716(2)
C13_4 C 0.06445(15) 0.4301(3) 0.74840(19)
C14_4 C 0.11249(17) 0.5114(4) 0.8063(2)
H9_4 H 0.1107 0.6029 0.7982
C15_4 C 0.16367(16) 0.4559(3) 0.8771(2)
H10_4 H 0.1955 0.5126 0.9151
C16_4 C 0.12258(18) 0.2466(3) 0.8375(2)
H11_4 H 0.1254 0.1558 0.8478
C17_4 C 0.07003(17) 0.2933(4) 0.7651(2)
H12_4 H 0.0389 0.2344 0.7280
H13_4 H 0.0183 0.6783 0.7007
O13_4 O 0.12104(12) 0.1430(3) 0.99708(16)
H15_4 H 0.1980 0.7209 0.9930
N5_4 N 0.09563(14) 0.5827(3) 0.97448(16)
C29_4 C 0.0820(2) 0.4533(4) 0.9631(2)
C30_4 C 0.0309(2) 0.4006(4) 0.8917(2)
H22_4 H 0.0237 0.3091 0.8865
C37_4 C 0.0063(2) 0.6182(4) 0.8404(2)
C38_4 C 0.0581(2) 0.6635(4) 0.9133(2)
H28_4 H 0.0672 0.7542 0.9199
C23_4 C 0.21860(16) 0.8771(3) 0.12894(19)
H19_4 H 0.3040 0.9418 0.2743
O5_4 O 0.78308(12) 0.4728(2) 0.37104(14)
O6_4 O 0.87896(12) 0.1430(3) 0.50292(16)
O7_4 O 0.78571(17) 0.6569(3) 0.4745(2)
H1_4 H 0.8020 0.7209 0.5070
H2_4 H 0.7474 0.6765 0.4409
N2_4 N 0.90437(14) 0.5827(3) 0.52552(16)
H3_4 H 0.6152 0.0756 0.1173
H4_4 H 0.6164 0.2203 0.1204
C1_4 C 0.82404(15) 0.1229(3) 0.47069(18)
C2_4 C 0.77568(14) 0.1278(3) 0.38203(18)
C3_4 C 0.75556(14) 0.0125(3) 0.33611(18)
C5_4 C 0.70980(15) 0.0195(3) 0.25529(18)
C6_4 C 0.68438(15) 0.1422(3) 0.21822(19)
C7_4 C 0.70456(16) 0.2573(3) 0.26291(19)
H6_4 H 0.6885 0.3398 0.2386
C8_4 C 0.74896(15) 0.2501(3) 0.34436(18)
C9_4 C 0.76785(14) 0.3771(3) 0.39112(18)
C10_4 C 0.9180(2) 0.4533(4) 0.5369(2)
H7_4 H 0.8921 0.3953 0.4950
C11_4 C 0.9691(2) 0.4006(4) 0.6083(2)
H8_4 H 0.9763 0.3091 0.6135
C18_4 C 0.9937(2) 0.6182(4) 0.6596(2)
C19_4 C 0.9419(2) 0.6635(4) 0.5867(2)
H14_4 H 0.9328 0.7542 0.5801
C31_4 C 0.99087(16) 0.4833(3) 0.8284(2)
C32_4 C 0.93555(15) 0.4301(3) 0.75160(19)
C33_4 C 0.88751(17) 0.5114(4) 0.6937(2)
H23_4 H 0.8893 0.6029 0.7018
C34_4 C 0.83633(16) 0.4559(3) 0.6229(2)
H24_4 H 0.8045 0.5126 0.5849
C35_4 C 0.87742(18) 0.2466(3) 0.6625(2)
H25_4 H 0.8746 0.1558 0.6522
C36_4 C 0.92997(17) 0.2933(4) 0.7349(2)
H26_4 H 0.9611 0.2344 0.7720
H27_4 H 0.9817 0.6783 0.7993
O17_2 O 0.74955(11) 0.7744(2) 0.33271(14)
O19_2 O 0.83511(13) 0.8637(2) 0.43723(15)
C4_4 C 0.78140(16) 0.8771(3) 0.37106(19)
H5_4 H 0.6960 0.9418 0.2257
loop_
_geom_bond_atom_site_label_1
_geom_bond_atom_site_label_2
_geom_bond_site_symmetry_1
_geom_bond_site_symmetry_2
Ni1 O1 1_555 1_555
O1 C9 1_555 1_555
O2 Ni1 1_555 1_555
O3 C4 1_555 1_555
O4 C4 1_555 1_555
O5 C9 1_555 1_555
O6 C1 1_555 1_555
N1 C15 1_555 1_555
N3 H3 1_555 1_555
H4 N3 1_555 1_555
C1 O2 1_555 1_555
C2 C1 1_555 1_555
C3 C2 1_555 1_555
C4 C3 1_555 1_555
C5 C3 1_555 1_555
H5 C5 1_555 1_555
C6 N3 1_555 1_555
C7 C6 1_555 1_555
H6 C7 1_555 1_555
C8 C2 1_555 1_555
C9 C8 1_555 1_555
H7 C10 1_555 1_555
C11 C10 1_555 1_555
H8 C11 1_555 1_555
C12 C11 1_555 1_555
C13 C12 1_555 1_555
C16 N1 1_555 1_555
H11 C16 1_555 1_555
C17 C13 1_555 1_555
H12 C17 1_555 1_555
N4 Ni1 1_555 1_555
C30 C29 1_555 1_555
H22 C30 1_555 1_555
C31 C30 1_555 1_555
C32 C31 1_555 1_555
C34 N4 1_555 1_555
C35 N4 1_555 1_555
H25 C35 1_555 1_555
C36 C32 1_555 1_555
H26 C36 1_555 1_555
Ni4 N1 1_555 1_555
Ni5 O3 1_555 1_555
Ni8 N3 1_555 1_555
O15 Ni1 1_555 1_555
O16 Ni1 1_555 1_555
N7 Ni1 1_555 1_555
O4 Ni5 1_555 1_555
C5 C6 1_555 1_555
C7 C8 1_555 1_555
C16 C17 1_555 1_555
O9 Ni4 1_555 1_555
C35 C36 1_555 1_555
O8 C28 1_555 1_555
O10 C23 1_555 1_555
O11 C23 1_555 1_555
O12 C28 1_555 1_555
N6 H17 1_555 1_555
H18 N6 1_555 1_555
C20 C21 1_555 1_555
C21 C22 1_555 1_555
C22 C23 1_555 1_555
C24 C22 1_555 1_555
H19 C24 1_555 1_555
C25 N6 1_555 1_555
C26 C25 1_555 1_555
H20 C26 1_555 1_555
C27 C21 1_555 1_555
C28 C27 1_555 1_555
Ni6 O10 1_555 1_555
Ni7 N6 1_555 1_555
O8 Ni4_2 1_555 1_555
O11 Ni6 1_555 1_555
C24 C25 1_555 1_555
C26 C27 1_555 1_555
O7 Ni5 1_555 1_555
H1 O7 1_555 1_555
H2 O7 1_555 1_555
N2 Ni5 1_555 1_555
H9 C14 1_555 1_555
H13 C18 1_555 1_555
C19 N2 1_555 1_555
H14 C19 1_555 1_555
H23 C33 1_555 1_555
H27 C37 1_555 1_555
C38 N5 1_555 1_555
H28 C38 1_555 1_555
N9 Ni5 1_555 1_555
C18 C19 1_555 1_555
C37 C38 1_555 1_555
O14 Ni6 1_555 1_555
H16 O14 1_555 1_555
N8 Ni6 1_555 1_555
O15_2 Ni4 1_555 1_555
O16_2 Ni4_2 1_555 1_555
N7_2 Ni4_2 1_555 1_555
O3_2 C4_2 1_555 1_555
O4_2 C4_2 1_555 1_555
Ni7 O3_2 1_555 1_555
O4_2 Ni7 1_555 1_555
Ni1_2 O1_2 1_555 1_555
Ni7 O5_2 1_555 1_555
O1_2 C9_2 1_555 1_555
O2_2 Ni1_2 1_555 1_555
O5_2 C9_2 1_555 1_555
O6_2 C1_2 1_555 1_555
O7_2 Ni7 1_555 1_555
H1_2 O7_2 1_555 1_555
H2_2 O7_2 1_555 1_555
N2_2 Ni7 1_555 1_555
N8 H3_2 1_555 1_555
H4_2 N8 1_555 1_555
C1_2 O2_2 1_555 1_555
C2_2 C1_2 1_555 1_555
C3_2 C2_2 1_555 1_555
C5_2 C3_2 1_555 1_555
C6_2 N8 1_555 1_555
C7_2 C6_2 1_555 1_555
H6_2 C7_2 1_555 1_555
C8_2 C2_2 1_555 1_555
C9_2 C8_2 1_555 1_555
C10_2 N2_2 1_555 1_555
H7_2 C10_2 1_555 1_555
C11_2 C10_2 1_555 1_555
H8_2 C11_2 1_555 1_555
C19_2 N2_2 1_555 1_555
H14_2 C19_2 1_555 1_555
N4_2 Ni1_2 1_555 1_555
C32_2 C31_2 1_555 1_555
C33_2 C32_2 1_555 1_555
H23_2 C33_2 1_555 1_555
C34_2 N4_2 1_555 1_555
H24_2 C34_2 1_555 1_555
C35_2 N4_2 1_555 1_555
H25_2 C35_2 1_555 1_555
C36_2 C32_2 1_555 1_555
H26_2 C36_2 1_555 1_555
O15_3 Ni1_2 1_555 1_555
O16_3 Ni1_2 1_555 1_555
N7_3 Ni1_2 1_555 1_555
C5_2 C6_2 1_555 1_555
C7_2 C8_2 1_555 1_555
C18_2 C19_2 1_555 1_555
C33_2 C34_2 1_555 1_555
C35_2 C36_2 1_555 1_555
O10_2 C23_2 1_555 1_555
O11_2 C23_2 1_555 1_555
Ni8 O10_2 1_555 1_555
O11_2 Ni8 1_555 1_555
N1_2 C15_2 1_555 1_555
C13_2 C12_2 1_555 1_555
C14_2 C13_2 1_555 1_555
H9_2 C14_2 1_555 1_555
C15_2 C14_2 1_555 1_555
H10_2 C15_2 1_555 1_555
C16_2 N1_2 1_555 1_555
H11_2 C16_2 1_555 1_555
C17_2 C13_2 1_555 1_555
H12_2 C17_2 1_555 1_555
C29_2 N5_2 1_555 1_555
C30_2 C29_2 1_555 1_555
H22_2 C30_2 1_555 1_555
C38_2 N5_2 1_555 1_555
H28_2 C38_2 1_555 1_555
Ni4_3 N1_2 1_555 1_555
C16_2 C17_2 1_555 1_555
O9_2 Ni4_3 1_555 1_555
C37_2 C38_2 1_555 1_555
Ni8 O12_2 1_555 1_555
O8_2 C28_2 1_555 1_555
O12_2 C28_2 1_555 1_555
O14_2 Ni8 1_555 1_555
H16_2 O14_2 1_555 1_555
N9 H17_2 1_555 1_555
H18_2 N9 1_555 1_555
C20_2 C21_2 1_555 1_555
C21_2 C22_2 1_555 1_555
C24_2 C22_2 1_555 1_555
C25_2 N9 1_555 1_555
C26_2 C25_2 1_555 1_555
H20_2 C26_2 1_555 1_555
C27_2 C21_2 1_555 1_555
C28_2 C27_2 1_555 1_555
O8_2 Ni4_4 1_555 1_555
C24_2 C25_2 1_555 1_555
C26_2 C27_2 1_555 1_555
O15_4 Ni4_3 1_555 1_555
O16_4 Ni4_4 1_555 1_555
N7_4 Ni4_4 1_555 1_555
O14_3 Ni3 1_555 1_555
H16_3 O14_3 1_555 1_555
O18 Ni3 1_555 1_555
O20 Ni3 1_555 1_555
N8_2 Ni3 1_555 1_555
O7_3 Ni2 1_555 1_555
H1_3 O7_3 1_555 1_555
H2_3 O7_3 1_555 1_555
N2_3 Ni2 1_555 1_555
H9_3 C14_3 1_555 1_555
H13_3 C18_3 1_555 1_555
C19_3 N2_3 1_555 1_555
H14_3 C19_3 1_555 1_555
H23_3 C33_3 1_555 1_555
H27_3 C37_3 1_555 1_555
C38_3 N5_3 1_555 1_555
H28_3 C38_3 1_555 1_555
O17 Ni2 1_555 1_555
O19 Ni2 1_555 1_555
N9_2 Ni2 1_555 1_555
C18_3 C19_3 1_555 1_555
C37_3 C38_3 1_555 1_555
O15_4 C28_3 1_555 1_555
O18 C23_3 1_555 1_555
O20 C23_3 1_555 1_555
O12_3 C28_3 1_555 1_555
N6_2 H17_3 1_555 1_555
H18_3 N6_2 1_555 1_555
C20_3 C21_3 1_555 1_555
C21_3 C22_3 1_555 1_555
C22_3 C23_3 1_555 1_555
C24_3 C22_3 1_555 1_555
H19_3 C24_3 1_555 1_555
C25_3 N6_2 1_555 1_555
C26_3 C25_3 1_555 1_555
H20_3 C26_3 1_555 1_555
C27_3 C21_3 1_555 1_555
C28_3 C27_3 1_555 1_555
Ni7_2 N6_2 1_555 1_555
C24_3 C25_3 1_555 1_555
C26_3 C27_3 1_555 1_555
O15_3 C9_3 1_555 1_555
O17 C4_3 1_555 1_555
O19 C4_3 1_555 1_555
O5_3 C9_3 1_555 1_555
O6_3 C1_3 1_555 1_555
N7_4 C15_3 1_555 1_555
N3_2 H3_3 1_555 1_555
H4_3 N3_2 1_555 1_555
C1_3 O16_3 1_555 1_555
C2_3 C1_3 1_555 1_555
C3_3 C2_3 1_555 1_555
C4_3 C3_3 1_555 1_555
C5_3 C3_3 1_555 1_555
H5_3 C5_3 1_555 1_555
C6_3 N3_2 1_555 1_555
C7_3 C6_3 1_555 1_555
H6_3 C7_3 1_555 1_555
C8_3 C2_3 1_555 1_555
C9_3 C8_3 1_555 1_555
H7_3 C10_3 1_555 1_555
C11_3 C10_3 1_555 1_555
H8_3 C11_3 1_555 1_555
C12_3 C11_3 1_555 1_555
C13_3 C12_3 1_555 1_555
C16_3 N7_4 1_555 1_555
H11_3 C16_3 1_555 1_555
C17_3 C13_3 1_555 1_555
H12_3 C17_3 1_555 1_555
C30_3 C29_3 1_555 1_555
H22_3 C30_3 1_555 1_555
C31_3 C30_3 1_555 1_555
C32_3 C31_3 1_555 1_555
C34_3 N7_3 1_555 1_555
C35_3 N7_3 1_555 1_555
H25_3 C35_3 1_555 1_555
C36_3 C32_3 1_555 1_555
H26_3 C36_3 1_555 1_555
Ni8_2 N3_2 1_555 1_555
C5_3 C6_3 1_555 1_555
C7_3 C8_3 1_555 1_555
C16_3 C17_3 1_555 1_555
C35_3 C36_3 1_555 1_555
Ni8_2 O12_4 1_555 1_555
O15_2 C28_4 1_555 1_555
O12_4 C28_4 1_555 1_555
O14_4 Ni8_2 1_555 1_555
H16_4 O14_4 1_555 1_555
N9_2 H17_4 1_555 1_555
H18_4 N9_2 1_555 1_555
C20_4 C21_4 1_555 1_555
C21_4 C22_4 1_555 1_555
C24_4 C22_4 1_555 1_555
C25_4 N9_2 1_555 1_555
C26_4 C25_4 1_555 1_555
H20_4 C26_4 1_555 1_555
C27_4 C21_4 1_555 1_555
C28_4 C27_4 1_555 1_555
O18_2 Ni8_2 1_555 1_555
O20_2 Ni8_2 1_555 1_555
C24_4 C25_4 1_555 1_555
C26_4 C27_4 1_555 1_555
N7_2 C15_4 1_555 1_555
C13_4 C12_4 1_555 1_555
C14_4 C13_4 1_555 1_555
H9_4 C14_4 1_555 1_555
C15_4 C14_4 1_555 1_555
H10_4 C15_4 1_555 1_555
C16_4 N7_2 1_555 1_555
H11_4 C16_4 1_555 1_555
C17_4 C13_4 1_555 1_555
H12_4 C17_4 1_555 1_555
C29_4 N5_4 1_555 1_555
C30_4 C29_4 1_555 1_555
H22_4 C30_4 1_555 1_555
C38_4 N5_4 1_555 1_555
H28_4 C38_4 1_555 1_555
C16_4 C17_4 1_555 1_555
C37_4 C38_4 1_555 1_555
O18_2 C23_4 1_555 1_555
O20_2 C23_4 1_555 1_555
Ni7_2 O5_4 1_555 1_555
O15 C9_4 1_555 1_555
O5_4 C9_4 1_555 1_555
O6_4 C1_4 1_555 1_555
O7_4 Ni7_2 1_555 1_555
H1_4 O7_4 1_555 1_555
H2_4 O7_4 1_555 1_555
N2_4 Ni7_2 1_555 1_555
N8_2 H3_4 1_555 1_555
H4_4 N8_2 1_555 1_555
C1_4 O16 1_555 1_555
C2_4 C1_4 1_555 1_555
C3_4 C2_4 1_555 1_555
C5_4 C3_4 1_555 1_555
C6_4 N8_2 1_555 1_555
C7_4 C6_4 1_555 1_555
H6_4 C7_4 1_555 1_555
C8_4 C2_4 1_555 1_555
C9_4 C8_4 1_555 1_555
C10_4 N2_4 1_555 1_555
H7_4 C10_4 1_555 1_555
C11_4 C10_4 1_555 1_555
H8_4 C11_4 1_555 1_555
C19_4 N2_4 1_555 1_555
H14_4 C19_4 1_555 1_555
C32_4 C31_4 1_555 1_555
C33_4 C32_4 1_555 1_555
H23_4 C33_4 1_555 1_555
C34_4 N7 1_555 1_555
H24_4 C34_4 1_555 1_555
C35_4 N7 1_555 1_555
H25_4 C35_4 1_555 1_555
C36_4 C32_4 1_555 1_555
H26_4 C36_4 1_555 1_555
O17_2 Ni7_2 1_555 1_555
O19_2 Ni7_2 1_555 1_555
C5_4 C6_4 1_555 1_555
C7_4 C8_4 1_555 1_555
C18_4 C19_4 1_555 1_555
C33_4 C34_4 1_555 1_555
C35_4 C36_4 1_555 1_555
O17_2 C4_4 1_555 1_555
O19_2 C4_4 1_555 1_555

#END
