
###############################################################################
#
# This file contains modified crystal structure data generated from the
# MOF subset of the Cambridge Structural Database (CSD) v543 
# hosted by the Cambridge Crystallographic Data Centre (CCDC).
#
# This work is licensed under the Creative Commons
# Attribution-NonCommercial-ShareAlike 4.0 International License.
# To view a copy of this license, visit
# http://creativecommons.org/licenses/by-nc-sa/4.0/
# or send a letter to
# Creative Commons, PO Box 1866, Mountain View, CA 94042, USA.
#
# CIF created using the CSD Python API on 29 September 2022
# The structure has been converted into the P1 space group
# The structure has a 3D framework
# The original CSD entry CILXED is in the monoclinic crystal system
# The framework has been calculated to contain at least 10.0% void space
# The void calculation uses a probe of radius 1.32A, grid spacing 0.4
# H atom positions have been added when not included in the experimental data
# Generated hydrogen atom positions removed from atoms on special positions
#
###############################################################################

data_CILXED
_chemical_formula_moiety         '(C152 H120 N40 Ni12 O56)n'
_symmetry_cell_setting           triclinic
_symmetry_space_group_name_H-M   'P 1'
_symmetry_Int_Tables_number      1
_space_group_name_Hall           'P 1'
loop_
_symmetry_equiv_pos_site_id
_symmetry_equiv_pos_as_xyz
1 x,y,z
_cell_length_a                   30.3450(13)
_cell_length_b                   10.0088(4)
_cell_length_c                   22.7507(9)
_cell_angle_alpha                90
_cell_angle_beta                 124.3130(10)
_cell_angle_gamma                90
_cell_volume                     5707.27
loop_
_atom_site_label
_atom_site_type_symbol
_atom_site_fract_x
_atom_site_fract_y
_atom_site_fract_z
O2 O 0.24358(9) 0.2315(2) 0.32855(12)
O3 O 0.31543(10) 0.1425(2) 0.42093(13)
H8 H 0.1267 0.0966 0.0111
H12 H 0.1984 0.0575 0.2322
C19 C 0.27028(12) 0.1292(3) 0.36264(15)
N7 N 0.02469(15) 0.0137(4) 0.19428(19)
H17 H 0.1133 0.0622 0.3084
Ni5 Ni 0.309389(15) 0.35013(3) 0.406346(18)
O21 O 0.21890(10) 0.0336(2) 0.13401(11)
Ni1 Ni 0.190611(15) 0.85013(3) 0.093654(18)
Ni2 Ni 0.2500 0.7500 0.5000
O1 O 0.22356(11) 0.8617(2) 0.03386(13)
O4 O 0.35749(10) 0.8682(3) 0.48180(14)
O5 O 0.29071(9) 0.9124(2) 0.49295(10)
O6 O 0.27134(9) 0.62641(19) 0.44674(11)
O7 O 0.28110(10) 0.5336(2) 0.36599(11)
N1 N 0.11829(11) 0.9020(3) 0.00159(13)
N5 N 0.15647(11) 0.8448(2) 0.15380(13)
H1 H 0.1327 0.9117 0.1388
H2 H 0.1385 0.7675 0.1442
C11 C 0.21310(12) 0.7426(3) 0.27151(15)
H11 H 0.2015 0.6585 0.2510
C12 C 0.19339(12) 0.8559(3) 0.22926(15)
C13 C 0.21183(12) 0.9812(3) 0.26029(14)
C14 C 0.25013(11) 0.9931(3) 0.33306(14)
C15 C 0.26997(11) 0.8795(3) 0.37660(14)
C16 C 0.25036(12) 0.7544(2) 0.34495(15)
C17 C 0.31040(11) 0.8880(3) 0.45694(14)
C18 C 0.26880(11) 0.6297(3) 0.38925(14)
N8 N 0.03457(15) 0.8987(4) 0.21013(18)
N9 N 0.17789(10) 0.8047(3) 0.40465(12)
C20 C 0.14255(14) 0.7119(4) 0.36187(18)
H15 H 0.1500 0.6228 0.3757
C21 C 0.09532(17) 0.7425(4) 0.2977(2)
H16 H 0.0716 0.6754 0.2690
C22 C 0.12023(14) 0.9725(4) 0.32095(18)
C23 C 0.16669(13) 0.9326(3) 0.38363(16)
H18 H 0.1914 0.9977 0.4127
C24 C 0.08429(14) 0.8739(4) 0.27751(19)
O15 O 0.25642(9) 0.7315(2) 0.17145(12)
O17 O 0.18457(10) 0.6425(2) 0.07907(13)
O19 O 0.20929(9) 0.5876(2) 0.50705(10)
O20 O 0.22866(9) 0.87359(19) 0.55326(11)
N11 N 0.32211(10) 0.6953(3) 0.59535(12)
H25 H 0.218744 0.95348 0.0145352
H26 H 0.26221 0.840307 0.0647737
N3 N 0.96543(15) 0.1013(4) 0.78987(18)
N4 N 0.82211(10) 0.1953(3) 0.59535(12)
C1 C 0.85745(14) 0.2881(4) 0.63813(18)
H3 H 0.8500 0.3772 0.6243
C2 C 0.90468(17) 0.2575(4) 0.7023(2)
H4 H 0.9284 0.3246 0.7310
C3 C 0.87977(14) 0.0275(4) 0.67905(18)
C4 C 0.83331(13) 0.0674(3) 0.61637(16)
H6 H 0.8086 0.0023 0.5873
C5 C 0.91571(14) 0.1261(4) 0.72249(19)
Ni3 Ni 0.809389(15) 0.14987(3) 0.906346(18)
O8 O 0.77644(11) 0.1383(2) 0.96614(13)
O11 O 0.64251(10) 0.1318(3) 0.51820(14)
O12 O 0.70929(9) 0.0876(2) 0.50705(10)
O13 O 0.72866(9) 0.37359(19) 0.55326(11)
O14 O 0.71890(10) 0.4664(2) 0.63401(11)
N6 N 0.88171(11) 0.0980(3) 0.99841(13)
N10 N 0.84353(11) 0.1552(2) 0.84620(13)
H13 H 0.8673 0.0883 0.8612
H14 H 0.8615 0.2325 0.8558
C30 C 0.78690(12) 0.2574(3) 0.72849(15)
H23 H 0.7985 0.3415 0.7490
C31 C 0.80661(12) 0.1441(3) 0.77074(15)
C32 C 0.78817(12) 0.0188(3) 0.73971(14)
C33 C 0.74987(11) 0.0069(3) 0.66694(14)
C34 C 0.73003(11) 0.1205(3) 0.62340(14)
C35 C 0.74964(12) 0.2456(2) 0.65505(15)
C36 C 0.68960(11) 0.1120(3) 0.54306(14)
C37 C 0.73120(11) 0.3703(3) 0.61075(14)
Ni7 Ni 0.690611(15) 0.64987(3) 0.593654(18)
Ni8 Ni 0.7500 0.2500 0.5000
O16 O 0.74358(9) 0.2685(2) 0.82855(12)
O18 O 0.81543(10) 0.3575(2) 0.92093(13)
H28 H 0.73779 0.159693 0.935226
N2 N 0.97531(15) 0.9863(4) 0.80572(19)
H5 H 0.8867 0.9378 0.6916
O9 O 0.75642(9) 0.7685(2) 0.67145(12)
O10 O 0.68457(10) 0.8575(2) 0.57907(13)
H20 H 0.8733 0.9034 0.9889
H24 H 0.8016 0.9425 0.7678
C38 C 0.72972(12) 0.8708(3) 0.63736(15)
O22 O 0.78110(10) 0.9664(2) 0.86599(11)
Ni8_2 Ni 0.2500 0.2500 0.0000
N3_2 N 0.03457(15) 0.1013(4) 0.71013(18)
N4_2 N 0.17789(10) 0.1953(3) 0.90465(12)
C1_2 C 0.14255(14) 0.2881(4) 0.86187(18)
H3_2 H 0.1500 0.3772 0.8757
C2_2 C 0.09532(17) 0.2575(4) 0.7977(2)
H4_2 H 0.0716 0.3246 0.7690
C3_2 C 0.12023(14) 0.0275(4) 0.82095(18)
C4_2 C 0.16669(13) 0.0674(3) 0.88363(16)
H6_2 H 0.1914 0.0023 0.9127
C5_2 C 0.08429(14) 0.1261(4) 0.77751(19)
Ni3_2 Ni 0.190611(15) 0.14987(3) 0.593654(18)
O8_2 O 0.22356(11) 0.1383(2) 0.53386(13)
O11_2 O 0.35749(10) 0.1318(3) 0.98180(14)
O12_2 O 0.29071(9) 0.0876(2) 0.99295(10)
O13_2 O 0.27134(9) 0.37359(19) 0.94674(11)
O14_2 O 0.28110(10) 0.4664(2) 0.86599(11)
N6_2 N 0.11829(11) 0.0980(3) 0.50159(13)
N10_2 N 0.15647(11) 0.1552(2) 0.65380(13)
H13_2 H 0.1327 0.0883 0.6388
H14_2 H 0.1385 0.2325 0.6442
C25 C 0.02462(14) 0.0371(4) 0.37314(19)
C28 C 0.08588(15) 0.1945(4) 0.4577(2)
H21 H 0.0955 0.2832 0.4709
C29 C 0.03864(18) 0.1670(5) 0.3934(2)
H22 H 0.0166 0.2361 0.3642
C30_2 C 0.21310(12) 0.2574(3) 0.77151(15)
H23_2 H 0.2015 0.3415 0.7510
C31_2 C 0.19339(12) 0.1441(3) 0.72926(15)
C32_2 C 0.21183(12) 0.0188(3) 0.76029(14)
C33_2 C 0.25013(11) 0.0069(3) 0.83306(14)
C34_2 C 0.26997(11) 0.1205(3) 0.87660(14)
C35_2 C 0.25036(12) 0.2456(2) 0.84495(15)
C36_2 C 0.31040(11) 0.1120(3) 0.95694(14)
C37_2 C 0.26880(11) 0.3703(3) 0.88925(14)
Ni7_2 Ni 0.309389(15) 0.64987(3) 0.906346(18)
Ni8_3 Ni 0.2500 0.2500 1.0000
O16_2 O 0.25642(9) 0.2685(2) 0.67145(12)
O18_2 O 0.18457(10) 0.3575(2) 0.57907(13)
N2_2 N 0.02469(15) 0.9863(4) 0.69428(19)
H5_2 H 0.1133 0.9378 0.8084
O9_2 O 0.24358(9) 0.7685(2) 0.82855(12)
O10_2 O 0.31543(10) 0.8575(2) 0.92093(13)
C26 C 0.05778(15) 0.9358(4) 0.4173(2)
H19 H 0.0491 0.8466 0.4045
C27 C 0.10419(14) 0.9710(4) 0.48107(19)
H20_2 H 0.1267 0.9034 0.5111
H24_2 H 0.1984 0.9425 0.7322
C38_2 C 0.27028(12) 0.8708(3) 0.86264(15)
O22_2 O 0.21890(10) 0.9664(2) 0.63401(11)
O2_2 O 0.75642(9) 0.2315(2) 0.17145(12)
O3_2 O 0.68457(10) 0.1425(2) 0.07907(13)
C7 C 0.94222(15) 0.0642(4) 0.5827(2)
H7 H 0.9509 0.1534 0.5955
C8 C 0.89581(14) 0.0290(4) 0.51893(19)
H8_2 H 0.8733 0.0966 0.4889
H12_2 H 0.8016 0.0575 0.2678
C19_2 C 0.72972(12) 0.1292(3) 0.13736(15)
N7_2 N 0.97531(15) 0.0137(4) 0.30572(19)
H17_2 H 0.8867 0.0622 0.1916
Ni5_2 Ni 0.690611(15) 0.35013(3) 0.093654(18)
O21_2 O 0.78110(10) 0.0336(2) 0.36599(11)
Ni1_2 Ni 0.809389(15) 0.85013(3) 0.406346(18)
Ni2_2 Ni 0.7500 0.7500 -0.0000
O1_2 O 0.77644(11) 0.8617(2) 0.46614(13)
O4_2 O 0.64251(10) 0.8682(3) 0.01820(14)
O5_2 O 0.70929(9) 0.9124(2) 0.00705(10)
O6_2 O 0.72866(9) 0.62641(19) 0.05326(11)
O7_2 O 0.71890(10) 0.5336(2) 0.13401(11)
N1_2 N 0.88171(11) 0.9020(3) 0.49841(13)
N5_2 N 0.84353(11) 0.8448(2) 0.34620(13)
H1_2 H 0.8673 0.9117 0.3612
H2_2 H 0.8615 0.7675 0.3558
C6 C 0.97538(14) 0.9629(4) 0.62686(19)
C9 C 0.91412(15) 0.8055(4) 0.5423(2)
H9 H 0.9045 0.7168 0.5291
C10 C 0.96136(18) 0.8330(5) 0.6066(2)
H10 H 0.9834 0.7639 0.6358
C11_2 C 0.78690(12) 0.7426(3) 0.22849(15)
H11_2 H 0.7985 0.6585 0.2490
C12_2 C 0.80661(12) 0.8559(3) 0.27074(15)
C13_2 C 0.78817(12) 0.9812(3) 0.23971(14)
C14_2 C 0.74987(11) 0.9931(3) 0.16694(14)
C15_2 C 0.73003(11) 0.8795(3) 0.12340(14)
C16_2 C 0.74964(12) 0.7544(2) 0.15505(15)
C17_2 C 0.68960(11) 0.8880(3) 0.04306(14)
C18_2 C 0.73120(11) 0.6297(3) 0.11075(14)
N8_2 N 0.96543(15) 0.8987(4) 0.28987(18)
N9_2 N 0.82211(10) 0.8047(3) 0.09535(12)
C20_2 C 0.85745(14) 0.7119(4) 0.13813(18)
H15_2 H 0.8500 0.6228 0.1243
C21_2 C 0.90468(17) 0.7425(4) 0.2023(2)
H16_2 H 0.9284 0.6754 0.2310
C22_2 C 0.87977(14) 0.9725(4) 0.17905(18)
C23_2 C 0.83331(13) 0.9326(3) 0.11637(16)
H18_2 H 0.8086 0.9977 0.0873
C24_2 C 0.91571(14) 0.8739(4) 0.22249(19)
O15_2 O 0.74358(9) 0.7315(2) 0.32855(12)
O17_2 O 0.81543(10) 0.6425(2) 0.42093(13)
Ni2_3 Ni 0.7500 0.7500 1.0000
O19_2 O 0.79071(9) 0.5876(2) 0.99295(10)
O20_2 O 0.77134(9) 0.87359(19) 0.94674(11)
N11_2 N 0.67789(10) 0.6953(3) 0.90465(12)
O1_3 O 0.72356(11) 0.3617(2) 0.03386(13)
O4_3 O 0.85749(10) 0.3682(3) 0.48180(14)
O5_3 O 0.79071(9) 0.4124(2) 0.49295(10)
O6_3 O 0.77134(9) 0.12641(19) 0.44674(11)
N1_3 N 0.61829(11) 0.4020(3) 0.00159(13)
N5_3 N 0.65647(11) 0.3448(2) 0.15380(13)
H1_3 H 0.6327 0.4117 0.1388
H2_3 H 0.6385 0.2675 0.1442
H8_3 H 0.6267 0.5966 0.0111
C11_3 C 0.71310(12) 0.2426(3) 0.27151(15)
H11_3 H 0.7015 0.1585 0.2510
C12_3 C 0.69339(12) 0.3559(3) 0.22926(15)
C13_3 C 0.71183(12) 0.4812(3) 0.26029(14)
H12_3 H 0.6984 0.5575 0.2322
C14_3 C 0.75013(11) 0.4931(3) 0.33306(14)
C15_3 C 0.76997(11) 0.3795(3) 0.37660(14)
C16_3 C 0.75036(12) 0.2544(2) 0.34495(15)
C17_3 C 0.81040(11) 0.3880(3) 0.45694(14)
C18_3 C 0.76880(11) 0.1297(3) 0.38925(14)
C19_3 C 0.77028(12) 0.6292(3) 0.36264(15)
N7_3 N 0.52469(15) 0.5137(4) 0.19428(19)
N8_3 N 0.53457(15) 0.3987(4) 0.21013(18)
N9_3 N 0.67789(10) 0.3047(3) 0.40465(12)
C20_3 C 0.64255(14) 0.2119(4) 0.36187(18)
H15_3 H 0.6500 0.1228 0.3757
C21_3 C 0.59532(17) 0.2425(4) 0.2977(2)
H16_3 H 0.5716 0.1754 0.2690
C22_3 C 0.62023(14) 0.4725(4) 0.32095(18)
H17_3 H 0.6133 0.5622 0.3084
C23_3 C 0.66669(13) 0.4326(3) 0.38363(16)
H18_3 H 0.6914 0.4977 0.4127
C24_3 C 0.58429(14) 0.3739(4) 0.27751(19)
C25_2 C 0.47538(14) 0.5371(4) 0.12686(19)
C26_2 C 0.44222(15) 0.4358(4) 0.0827(2)
H19_2 H 0.4509 0.3466 0.0955
C27_2 C 0.39581(14) 0.4710(4) 0.01893(19)
C28_2 C 0.41412(15) 0.6945(4) 0.0423(2)
H21_2 H 0.4045 0.7832 0.0291
C29_2 C 0.46136(18) 0.6670(5) 0.1066(2)
H22_2 H 0.4834 0.7361 0.1358
H25_2 H 0.718744 0.45348 0.0145352
H26_2 H 0.76221 0.340307 0.0647737
H27 H 0.294671 0.703208 0.0060443
N2_3 N 0.47531(15) 0.4863(4) 0.80572(19)
N3_3 N 0.46543(15) 0.6013(4) 0.78987(18)
C1_3 C 0.35745(14) 0.7881(4) 0.63813(18)
H3_3 H 0.3500 0.8772 0.6243
C2_3 C 0.40468(17) 0.7575(4) 0.7023(2)
H4_3 H 0.4284 0.8246 0.7310
C3_3 C 0.37977(14) 0.5275(4) 0.67905(18)
H5_3 H 0.3867 0.4378 0.6916
C4_3 C 0.33331(13) 0.5674(3) 0.61637(16)
H6_3 H 0.3086 0.5023 0.5873
C5_3 C 0.41571(14) 0.6261(4) 0.72249(19)
C6_2 C 0.52462(14) 0.4629(4) 0.87314(19)
C7_2 C 0.55778(15) 0.5642(4) 0.9173(2)
H7_2 H 0.5491 0.6534 0.9045
C8_2 C 0.60419(14) 0.5290(4) 0.98107(19)
C9_2 C 0.58588(15) 0.3055(4) 0.9577(2)
H9_2 H 0.5955 0.2168 0.9709
C10_2 C 0.53864(18) 0.3330(5) 0.8934(2)
H10_2 H 0.5166 0.2639 0.8642
O8_3 O 0.27644(11) 0.6383(2) 0.96614(13)
O11_3 O 0.14251(10) 0.6318(3) 0.51820(14)
N6_3 N 0.38171(11) 0.5980(3) 0.99841(13)
N10_3 N 0.34353(11) 0.6552(2) 0.84620(13)
H13_3 H 0.3673 0.5883 0.8612
H14_3 H 0.3615 0.7325 0.8558
H20_3 H 0.3733 0.4034 0.9889
C30_3 C 0.28690(12) 0.7574(3) 0.72849(15)
H23_3 H 0.2985 0.8415 0.7490
C31_3 C 0.30661(12) 0.6441(3) 0.77074(15)
C32_3 C 0.28817(12) 0.5188(3) 0.73971(14)
H24_3 H 0.3016 0.4425 0.7678
C33_3 C 0.24987(11) 0.5069(3) 0.66694(14)
C34_3 C 0.23003(11) 0.6205(3) 0.62340(14)
C35_3 C 0.24964(12) 0.7456(2) 0.65505(15)
C36_3 C 0.18960(11) 0.6120(3) 0.54306(14)
C37_3 C 0.23120(11) 0.8703(3) 0.61075(14)
C38_3 C 0.22972(12) 0.3708(3) 0.63736(15)
H28_2 H 0.23779 0.659693 0.935226
O1_4 O 0.27644(11) 0.3617(2) 0.46614(13)
O4_4 O 0.14251(10) 0.3682(3) 0.01820(14)
O5_4 O 0.20929(9) 0.4124(2) 0.00705(10)
O6_4 O 0.22866(9) 0.12641(19) 0.05326(11)
N1_4 N 0.38171(11) 0.4020(3) 0.49841(13)
N2_4 N 0.52469(15) 0.4863(4) 0.69428(19)
N3_4 N 0.53457(15) 0.6013(4) 0.71013(18)
N5_4 N 0.34353(11) 0.3448(2) 0.34620(13)
H1_4 H 0.3673 0.4117 0.3612
H2_4 H 0.3615 0.2675 0.3558
C1_4 C 0.64255(14) 0.7881(4) 0.86187(18)
H3_4 H 0.6500 0.8772 0.8757
C2_4 C 0.59532(17) 0.7575(4) 0.7977(2)
H4_4 H 0.5716 0.8246 0.7690
C3_4 C 0.62023(14) 0.5275(4) 0.82095(18)
H5_4 H 0.6133 0.4378 0.8084
C4_4 C 0.66669(13) 0.5674(3) 0.88363(16)
H6_4 H 0.6914 0.5023 0.9127
C5_4 C 0.58429(14) 0.6261(4) 0.77751(19)
C6_3 C 0.47538(14) 0.4629(4) 0.62686(19)
C7_3 C 0.44222(15) 0.5642(4) 0.5827(2)
H7_3 H 0.4509 0.6534 0.5955
C8_3 C 0.39581(14) 0.5290(4) 0.51893(19)
H8_4 H 0.3733 0.5966 0.4889
C9_3 C 0.41412(15) 0.3055(4) 0.5423(2)
H9_3 H 0.4045 0.2168 0.5291
C10_3 C 0.46136(18) 0.3330(5) 0.6066(2)
H10_3 H 0.4834 0.2639 0.6358
C11_4 C 0.28690(12) 0.2426(3) 0.22849(15)
H11_4 H 0.2985 0.1585 0.2490
C12_4 C 0.30661(12) 0.3559(3) 0.27074(15)
C13_4 C 0.28817(12) 0.4812(3) 0.23971(14)
H12_4 H 0.3016 0.5575 0.2678
C14_4 C 0.24987(11) 0.4931(3) 0.16694(14)
C15_4 C 0.23003(11) 0.3795(3) 0.12340(14)
C16_4 C 0.24964(12) 0.2544(2) 0.15505(15)
C17_4 C 0.18960(11) 0.3880(3) 0.04306(14)
C18_4 C 0.23120(11) 0.1297(3) 0.11075(14)
C19_4 C 0.22972(12) 0.6292(3) 0.13736(15)
O8_4 O 0.72356(11) 0.6383(2) 0.53386(13)
O11_4 O 0.85749(10) 0.6318(3) 0.98180(14)
N6_4 N 0.61829(11) 0.5980(3) 0.50159(13)
N7_4 N 0.47531(15) 0.5137(4) 0.30572(19)
N8_4 N 0.46543(15) 0.3987(4) 0.28987(18)
N9_4 N 0.32211(10) 0.3047(3) 0.09535(12)
N10_4 N 0.65647(11) 0.6552(2) 0.65380(13)
H13_4 H 0.6327 0.5883 0.6388
H14_4 H 0.6385 0.7325 0.6442
C20_4 C 0.35745(14) 0.2119(4) 0.13813(18)
H15_4 H 0.3500 0.1228 0.1243
C21_4 C 0.40468(17) 0.2425(4) 0.2023(2)
H16_4 H 0.4284 0.1754 0.2310
C22_4 C 0.37977(14) 0.4725(4) 0.17905(18)
H17_4 H 0.3867 0.5622 0.1916
C23_4 C 0.33331(13) 0.4326(3) 0.11637(16)
H18_4 H 0.3086 0.4977 0.0873
C24_4 C 0.41571(14) 0.3739(4) 0.22249(19)
C25_3 C 0.52462(14) 0.5371(4) 0.37314(19)
C26_3 C 0.55778(15) 0.4358(4) 0.4173(2)
H19_3 H 0.5491 0.3466 0.4045
C27_3 C 0.60419(14) 0.4710(4) 0.48107(19)
H20_4 H 0.6267 0.4034 0.5111
C28_3 C 0.58588(15) 0.6945(4) 0.4577(2)
H21_3 H 0.5955 0.7832 0.4709
C29_3 C 0.53864(18) 0.6670(5) 0.3934(2)
H22_3 H 0.5166 0.7361 0.3642
C30_4 C 0.71310(12) 0.7574(3) 0.77151(15)
H23_4 H 0.7015 0.8415 0.7510
C31_4 C 0.69339(12) 0.6441(3) 0.72926(15)
C32_4 C 0.71183(12) 0.5188(3) 0.76029(14)
H24_4 H 0.6984 0.4425 0.7322
C33_4 C 0.75013(11) 0.5069(3) 0.83306(14)
C34_4 C 0.76997(11) 0.6205(3) 0.87660(14)
C35_4 C 0.75036(12) 0.7456(2) 0.84495(15)
C36_4 C 0.81040(11) 0.6120(3) 0.95694(14)
C37_4 C 0.76880(11) 0.8703(3) 0.88925(14)
C38_4 C 0.77028(12) 0.3708(3) 0.86264(15)
H25_3 H 0.781256 0.0465203 0.985465
H25_4 H 0.281256 0.54652 0.985465
H27_2 H 0.705329 0.296792 0.993956
C7_4 C 0.05778(15) 0.0642(4) 0.9173(2)
H7_4 H 0.0491 0.1534 0.9045
C8_4 C 0.10419(14) 0.0290(4) 0.98107(19)
C6_4 C 0.02462(14) 0.9629(4) 0.87314(19)
C9_4 C 0.08588(15) 0.8055(4) 0.9577(2)
H9_4 H 0.0955 0.7168 0.9709
C10_4 C 0.03864(18) 0.8330(5) 0.8934(2)
H10_4 H 0.0166 0.7639 0.8642
H27_3 H 0.205329 0.796792 0.993956
C25_4 C 0.97538(14) 0.0371(4) 0.12686(19)
C28_4 C 0.91412(15) 0.1945(4) 0.0423(2)
H21_4 H 0.9045 0.2832 0.0291
C29_4 C 0.96136(18) 0.1670(5) 0.1066(2)
H22_4 H 0.9834 0.2361 0.1358
H27_4 H 0.794671 0.203208 0.0060443
C26_4 C 0.94222(15) 0.9358(4) 0.0827(2)
H19_4 H 0.9509 0.8466 0.0955
C27_4 C 0.89581(14) 0.9710(4) 0.01893(19)
loop_
_geom_bond_atom_site_label_1
_geom_bond_atom_site_label_2
_geom_bond_site_symmetry_1
_geom_bond_site_symmetry_2
O2 C19 1_555 1_555
O3 C19 1_555 1_555
Ni5 O2 1_555 1_555
O3 Ni5 1_555 1_555
Ni1 O1 1_555 1_555
Ni2 O5 1_555 1_555
O4 C17 1_555 1_555
O5 C17 1_555 1_555
O6 Ni2 1_555 1_555
O7 C18 1_555 1_555
N1 Ni1 1_555 1_555
N5 Ni1 1_555 1_555
H1 N5 1_555 1_555
H2 N5 1_555 1_555
C11 H11 1_555 1_555
C12 N5 1_555 1_555
C13 C12 1_555 1_555
C14 C13 1_555 1_555
C15 C14 1_555 1_555
C16 C11 1_555 1_555
C17 C15 1_555 1_555
C18 O6 1_555 1_555
N8 C24 1_555 1_555
N9 Ni2 1_555 1_555
C20 N9 1_555 1_555
H15 C20 1_555 1_555
C21 C20 1_555 1_555
H16 C21 1_555 1_555
C23 N9 1_555 1_555
H18 C23 1_555 1_555
C24 C21 1_555 1_555
Ni5 O7 1_555 1_555
O15 Ni1 1_555 1_555
O17 Ni1 1_555 1_555
O19 Ni2 1_555 1_555
O20 Ni2 1_555 1_555
N11 Ni2 1_555 1_555
C11 C12 1_555 1_555
C15 C16 1_555 1_555
C16 C18 1_555 1_555
C22 C23 1_555 1_555
C22 C24 1_555 1_555
O1 H25 1_555 1_555
O1 H26 1_555 1_555
N3 C5 1_555 1_555
N4 C1 1_555 1_555
C1 H3 1_555 1_555
C2 C1 1_555 1_555
H4 C2 1_555 1_555
C4 N4 1_555 1_555
H6 C4 1_555 1_555
C5 C2 1_555 1_555
Ni3 O8 1_555 1_555
O11 C36 1_555 1_555
O12 C36 1_555 1_555
O13 C37 1_555 1_555
O14 C37 1_555 1_555
N6 Ni3 1_555 1_555
N10 Ni3 1_555 1_555
H13 N10 1_555 1_555
H14 N10 1_555 1_555
C30 H23 1_555 1_555
C31 N10 1_555 1_555
C32 C31 1_555 1_555
C33 C32 1_555 1_555
C34 C33 1_555 1_555
C35 C30 1_555 1_555
C36 C34 1_555 1_555
C37 C35 1_555 1_555
Ni7 O14 1_555 1_555
Ni8 N4 1_555 1_555
O16 Ni3 1_555 1_555
O18 Ni3 1_555 1_555
C3 C4 1_555 1_555
C3 C5 1_555 1_555
O12 Ni8 1_555 1_555
O13 Ni8 1_555 1_555
C30 C31 1_555 1_555
C34 C35 1_555 1_555
O8 H28 1_555 1_555
O9 C38 1_555 1_555
O10 C38 1_555 1_555
Ni7 O9 1_555 1_555
O10 Ni7 1_555 1_555
N3_2 C5_2 1_555 1_555
N4_2 C1_2 1_555 1_555
C1_2 H3_2 1_555 1_555
C2_2 C1_2 1_555 1_555
H4_2 C2_2 1_555 1_555
C4_2 N4_2 1_555 1_555
H6_2 C4_2 1_555 1_555
C5_2 C2_2 1_555 1_555
Ni3_2 O8_2 1_555 1_555
O11_2 C36_2 1_555 1_555
O12_2 C36_2 1_555 1_555
O13_2 C37_2 1_555 1_555
O14_2 C37_2 1_555 1_555
N6_2 Ni3_2 1_555 1_555
N10_2 Ni3_2 1_555 1_555
H13_2 N10_2 1_555 1_555
H14_2 N10_2 1_555 1_555
C28 N6_2 1_555 1_555
H21 C28 1_555 1_555
C29 C25 1_555 1_555
H22 C29 1_555 1_555
C30_2 H23_2 1_555 1_555
C31_2 N10_2 1_555 1_555
C32_2 C31_2 1_555 1_555
C33_2 C32_2 1_555 1_555
C34_2 C33_2 1_555 1_555
C35_2 C30_2 1_555 1_555
C36_2 C34_2 1_555 1_555
C37_2 C35_2 1_555 1_555
Ni7_2 O14_2 1_555 1_555
Ni8_3 N4_2 1_555 1_555
O16_2 Ni3_2 1_555 1_555
O18_2 Ni3_2 1_555 1_555
C3_2 C4_2 1_555 1_555
C3_2 C5_2 1_555 1_555
O12_2 Ni8_3 1_555 1_555
O13_2 Ni8_3 1_555 1_555
C28 C29 1_555 1_555
C30_2 C31_2 1_555 1_555
C34_2 C35_2 1_555 1_555
O9_2 C38_2 1_555 1_555
O10_2 C38_2 1_555 1_555
H19 C26 1_555 1_555
H20_2 C27 1_555 1_555
Ni7_2 O9_2 1_555 1_555
O10_2 Ni7_2 1_555 1_555
C26 C27 1_555 1_555
O2_2 C19_2 1_555 1_555
O3_2 C19_2 1_555 1_555
H7 C7 1_555 1_555
H8_2 C8 1_555 1_555
Ni5_2 O2_2 1_555 1_555
O3_2 Ni5_2 1_555 1_555
C7 C8 1_555 1_555
Ni1_2 O1_2 1_555 1_555
Ni2_2 O5_2 1_555 1_555
O4_2 C17_2 1_555 1_555
O5_2 C17_2 1_555 1_555
O6_2 Ni2_2 1_555 1_555
O7_2 C18_2 1_555 1_555
N1_2 Ni1_2 1_555 1_555
N5_2 Ni1_2 1_555 1_555
H1_2 N5_2 1_555 1_555
H2_2 N5_2 1_555 1_555
C9 N1_2 1_555 1_555
H9 C9 1_555 1_555
C10 C6 1_555 1_555
H10 C10 1_555 1_555
C11_2 H11_2 1_555 1_555
C12_2 N5_2 1_555 1_555
C13_2 C12_2 1_555 1_555
C14_2 C13_2 1_555 1_555
C15_2 C14_2 1_555 1_555
C16_2 C11_2 1_555 1_555
C17_2 C15_2 1_555 1_555
C18_2 O6_2 1_555 1_555
N8_2 C24_2 1_555 1_555
N9_2 Ni2_2 1_555 1_555
C20_2 N9_2 1_555 1_555
H15_2 C20_2 1_555 1_555
C21_2 C20_2 1_555 1_555
H16_2 C21_2 1_555 1_555
C23_2 N9_2 1_555 1_555
H18_2 C23_2 1_555 1_555
C24_2 C21_2 1_555 1_555
Ni5_2 O7_2 1_555 1_555
O15_2 Ni1_2 1_555 1_555
O17_2 Ni1_2 1_555 1_555
C9 C10 1_555 1_555
C11_2 C12_2 1_555 1_555
C15_2 C16_2 1_555 1_555
C16_2 C18_2 1_555 1_555
C22_2 C23_2 1_555 1_555
C22_2 C24_2 1_555 1_555
O19_2 Ni2_3 1_555 1_555
O20_2 Ni2_3 1_555 1_555
N11_2 Ni2_3 1_555 1_555
Ni5_2 O1_3 1_555 1_555
Ni8 O5_3 1_555 1_555
O15_2 C19_3 1_555 1_555
O17_2 C19_3 1_555 1_555
O4_3 C17_3 1_555 1_555
O5_3 C17_3 1_555 1_555
O6_3 Ni8 1_555 1_555
O21_2 C18_3 1_555 1_555
N1_3 Ni5_2 1_555 1_555
N5_3 Ni5_2 1_555 1_555
H1_3 N5_3 1_555 1_555
H2_3 N5_3 1_555 1_555
C11_3 H11_3 1_555 1_555
C12_3 N5_3 1_555 1_555
C13_3 C12_3 1_555 1_555
H12_3 C13_3 1_555 1_555
C14_3 C13_3 1_555 1_555
C15_3 C14_3 1_555 1_555
C16_3 C11_3 1_555 1_555
C17_3 C15_3 1_555 1_555
C18_3 O6_3 1_555 1_555
C19_3 C14_3 1_555 1_555
N7_3 N8_3 1_555 1_555
N8_3 C24_3 1_555 1_555
N9_3 Ni8 1_555 1_555
C20_3 N9_3 1_555 1_555
H15_3 C20_3 1_555 1_555
C21_3 C20_3 1_555 1_555
H16_3 C21_3 1_555 1_555
C22_3 H17_3 1_555 1_555
C23_3 N9_3 1_555 1_555
H18_3 C23_3 1_555 1_555
C24_3 C21_3 1_555 1_555
C25_2 N7_3 1_555 1_555
C26_2 C25_2 1_555 1_555
H19_2 C26_2 1_555 1_555
H21_2 C28_2 1_555 1_555
C29_2 C25_2 1_555 1_555
H22_2 C29_2 1_555 1_555
C11_3 C12_3 1_555 1_555
C15_3 C16_3 1_555 1_555
C16_3 C18_3 1_555 1_555
C22_3 C23_3 1_555 1_555
C22_3 C24_3 1_555 1_555
C26_2 C27_2 1_555 1_555
C28_2 C29_2 1_555 1_555
O1_3 H25_2 1_555 1_555
O1_3 H26_2 1_555 1_555
N2_3 N3_3 1_555 1_555
N3_3 C5_3 1_555 1_555
N11 C1_3 1_555 1_555
C1_3 H3_3 1_555 1_555
C2_3 C1_3 1_555 1_555
H4_3 C2_3 1_555 1_555
C3_3 H5_3 1_555 1_555
C4_3 N11 1_555 1_555
H6_3 C4_3 1_555 1_555
C5_3 C2_3 1_555 1_555
C6_2 N2_3 1_555 1_555
C7_2 C6_2 1_555 1_555
H7_2 C7_2 1_555 1_555
H9_2 C9_2 1_555 1_555
C10_2 C6_2 1_555 1_555
H10_2 C10_2 1_555 1_555
Ni7_2 O8_3 1_555 1_555
O16_2 C38_3 1_555 1_555
O18_2 C38_3 1_555 1_555
O11_3 C36_3 1_555 1_555
O19 C36_3 1_555 1_555
O20 C37_3 1_555 1_555
O22_2 C37_3 1_555 1_555
N6_3 Ni7_2 1_555 1_555
N10_3 Ni7_2 1_555 1_555
H13_3 N10_3 1_555 1_555
H14_3 N10_3 1_555 1_555
C30_3 H23_3 1_555 1_555
C31_3 N10_3 1_555 1_555
C32_3 C31_3 1_555 1_555
H24_3 C32_3 1_555 1_555
C33_3 C32_3 1_555 1_555
C34_3 C33_3 1_555 1_555
C35_3 C30_3 1_555 1_555
C36_3 C34_3 1_555 1_555
C37_3 C35_3 1_555 1_555
C38_3 C33_3 1_555 1_555
C3_3 C4_3 1_555 1_555
C3_3 C5_3 1_555 1_555
C7_2 C8_2 1_555 1_555
C9_2 C10_2 1_555 1_555
C30_3 C31_3 1_555 1_555
C34_3 C35_3 1_555 1_555
O8_3 H28_2 1_555 1_555
Ni5 O1_4 1_555 1_555
Ni8_2 O5_4 1_555 1_555
O15 C19_4 1_555 1_555
O17 C19_4 1_555 1_555
O4_4 C17_4 1_555 1_555
O5_4 C17_4 1_555 1_555
O6_4 Ni8_2 1_555 1_555
O21 C18_4 1_555 1_555
N1_4 Ni5 1_555 1_555
N2_4 N3_4 1_555 1_555
N3_4 C5_4 1_555 1_555
N11_2 C1_4 1_555 1_555
N5_4 Ni5 1_555 1_555
H1_4 N5_4 1_555 1_555
H2_4 N5_4 1_555 1_555
C1_4 H3_4 1_555 1_555
C2_4 C1_4 1_555 1_555
H4_4 C2_4 1_555 1_555
C3_4 H5_4 1_555 1_555
C4_4 N11_2 1_555 1_555
H6_4 C4_4 1_555 1_555
C5_4 C2_4 1_555 1_555
C6_3 N2_4 1_555 1_555
C7_3 C6_3 1_555 1_555
H7_3 C7_3 1_555 1_555
C8_3 N1_4 1_555 1_555
H8_4 C8_3 1_555 1_555
C9_3 N1_4 1_555 1_555
H9_3 C9_3 1_555 1_555
C10_3 C6_3 1_555 1_555
H10_3 C10_3 1_555 1_555
C11_4 H11_4 1_555 1_555
C12_4 N5_4 1_555 1_555
C13_4 C12_4 1_555 1_555
H12_4 C13_4 1_555 1_555
C14_4 C13_4 1_555 1_555
C15_4 C14_4 1_555 1_555
C16_4 C11_4 1_555 1_555
C17_4 C15_4 1_555 1_555
C18_4 O6_4 1_555 1_555
C19_4 C14_4 1_555 1_555
Ni7 O8_4 1_555 1_555
O16 C38_4 1_555 1_555
O18 C38_4 1_555 1_555
O11_4 C36_4 1_555 1_555
O19_2 C36_4 1_555 1_555
O20_2 C37_4 1_555 1_555
O22 C37_4 1_555 1_555
N6_4 Ni7 1_555 1_555
N7_4 N8_4 1_555 1_555
N8_4 C24_4 1_555 1_555
N9_4 Ni8_2 1_555 1_555
N10_4 Ni7 1_555 1_555
H13_4 N10_4 1_555 1_555
H14_4 N10_4 1_555 1_555
C20_4 N9_4 1_555 1_555
H15_4 C20_4 1_555 1_555
C21_4 C20_4 1_555 1_555
H16_4 C21_4 1_555 1_555
C22_4 H17_4 1_555 1_555
C23_4 N9_4 1_555 1_555
H18_4 C23_4 1_555 1_555
C24_4 C21_4 1_555 1_555
C25_3 N7_4 1_555 1_555
C26_3 C25_3 1_555 1_555
H19_3 C26_3 1_555 1_555
C27_3 N6_4 1_555 1_555
H20_4 C27_3 1_555 1_555
C28_3 N6_4 1_555 1_555
H21_3 C28_3 1_555 1_555
C29_3 C25_3 1_555 1_555
H22_3 C29_3 1_555 1_555
C30_4 H23_4 1_555 1_555
C31_4 N10_4 1_555 1_555
C32_4 C31_4 1_555 1_555
H24_4 C32_4 1_555 1_555
C33_4 C32_4 1_555 1_555
C34_4 C33_4 1_555 1_555
C35_4 C30_4 1_555 1_555
C36_4 C34_4 1_555 1_555
C37_4 C35_4 1_555 1_555
C38_4 C33_4 1_555 1_555
C3_4 C4_4 1_555 1_555
C3_4 C5_4 1_555 1_555
C7_3 C8_3 1_555 1_555
C9_3 C10_3 1_555 1_555
C11_4 C12_4 1_555 1_555
C15_4 C16_4 1_555 1_555
C16_4 C18_4 1_555 1_555
C22_4 C23_4 1_555 1_555
C22_4 C24_4 1_555 1_555
C26_3 C27_3 1_555 1_555
C28_3 C29_3 1_555 1_555
C30_4 C31_4 1_555 1_555
C34_4 C35_4 1_555 1_555
O8 H25_3 1_555 1_555
O8_3 H25_4 1_555 1_555
H7_4 C7_4 1_555 1_555
C7_4 C8_4 1_555 1_555
H9_4 C9_4 1_555 1_555
C10_4 C6_4 1_555 1_555
H10_4 C10_4 1_555 1_555
C9_4 C10_4 1_555 1_555
H21_4 C28_4 1_555 1_555
C29_4 C25_4 1_555 1_555
H22_4 C29_4 1_555 1_555
C28_4 C29_4 1_555 1_555
H19_4 C26_4 1_555 1_555
C26_4 C27_4 1_555 1_555

#END
