
###############################################################################
#
# This file contains modified crystal structure data generated from the
# MOF subset of the Cambridge Structural Database (CSD) v543 
# hosted by the Cambridge Crystallographic Data Centre (CCDC).
#
# This work is licensed under the Creative Commons
# Attribution-NonCommercial-ShareAlike 4.0 International License.
# To view a copy of this license, visit
# http://creativecommons.org/licenses/by-nc-sa/4.0/
# or send a letter to
# Creative Commons, PO Box 1866, Mountain View, CA 94042, USA.
#
# CIF created using the CSD Python API on 29 September 2022
# The structure has been converted into the P1 space group
# The structure has a 3D framework
# The original CSD entry CILXON is in the monoclinic crystal system
# The framework has been calculated to contain at least 10.0% void space
# The void calculation uses a probe of radius 1.32A, grid spacing 0.4
# H atom positions have been added when not included in the experimental data
#
###############################################################################

data_CILXON
_chemical_formula_moiety         '(C168 H128 N24 Ni12 O56)n'
_symmetry_cell_setting           triclinic
_symmetry_space_group_name_H-M   'P 1'
_symmetry_Int_Tables_number      1
_space_group_name_Hall           'P 1'
loop_
_symmetry_equiv_pos_site_id
_symmetry_equiv_pos_as_xyz
1 x,y,z
_cell_length_a                   30.577(2)
_cell_length_b                   10.0190(8)
_cell_length_c                   22.7524(17)
_cell_angle_alpha                90
_cell_angle_beta                 123.297(2)
_cell_angle_gamma                90
_cell_volume                     5825.96
loop_
_atom_site_label
_atom_site_type_symbol
_atom_site_fract_x
_atom_site_fract_y
_atom_site_fract_z
Ni2 Ni 0.2500 0.2500 0.0000
O1 O 0.7286(6) 0.1252(13) 0.5535(7)
O2 O 0.7189(6) 0.0313(13) 0.6342(7)
O4 O 0.6441(6) 0.3680(17) 0.5215(9)
O5 O 0.7104(5) 0.4147(13) 0.5086(7)
O6 O 0.6872(6) 0.6405(14) 0.5814(8)
O7 O 0.7573(6) 0.7292(13) 0.6714(7)
N1 N 0.3199(6) 0.1968(17) 0.0932(8)
N3 N 0.8410(7) 0.3403(16) 0.8436(8)
H1 H 0.8647 0.4065 0.8581
H2 H 0.8583 0.2626 0.8525
C1 C 0.3316(8) 0.070(2) 0.1142(11)
H3 H 0.3081 0.0040 0.0852
C2 C 0.3766(9) 0.030(2) 0.1762(12)
C3 C 0.4119(9) 0.128(2) 0.2205(12)
C4 C 0.3993(10) 0.260(2) 0.1994(13)
H5 H 0.4216 0.3285 0.2279
C5 C 0.3539(9) 0.291(2) 0.1363(11)
H6 H 0.3464 0.3796 0.1229
C6 C 0.4604(9) 0.098(3) 0.2873(12)
H7 H 0.4802 0.1704 0.3150
C11 C 0.6072(9) 0.020(2) 0.4826(12)
H11 H 0.6295 0.0887 0.5102
C12 C 0.5617(10) 0.052(3) 0.4205(13)
H12 H 0.5535 0.1411 0.4069
C13 C 0.6905(8) 0.3871(18) 0.5448(10)
C14 C 0.7309(7) 0.1280(18) 0.6109(10)
C15 C 0.7312(8) 0.6268(19) 0.6382(10)
C16 C 0.7503(7) 0.4903(18) 0.6672(9)
C17 C 0.7302(7) 0.3777(18) 0.6240(9)
C18 C 0.7490(8) 0.2523(17) 0.6548(10)
C19 C 0.7852(8) 0.2392(18) 0.7268(10)
H13 H 0.7961 0.1548 0.7467
C20 C 0.8051(8) 0.3521(18) 0.7692(10)
C21 C 0.7877(8) 0.4780(18) 0.7388(10)
H14 H 0.8013 0.5540 0.7666
N4 N 0.6801(6) 0.1968(17) 0.4068(8)
C22 C 0.6684(8) 0.070(2) 0.3858(11)
H17 H 0.6919 0.0040 0.4148
C23 C 0.6234(9) 0.030(2) 0.3238(12)
C24 C 0.5881(9) 0.128(2) 0.2795(12)
C25 C 0.6007(10) 0.260(2) 0.3006(13)
H19 H 0.5784 0.3285 0.2721
C26 C 0.6461(9) 0.291(2) 0.3637(11)
H20 H 0.6536 0.3796 0.3771
C27 C 0.5396(9) 0.098(3) 0.2127(12)
H21 H 0.5198 0.1704 0.1850
C32 C 0.3928(9) 0.020(2) 0.0174(12)
C33 C 0.4383(10) 0.052(3) 0.0795(13)
H26 H 0.4465 0.1411 0.0931
Ni4 Ni 0.69233(10) 0.8470(2) 0.59526(12)
Ni7 Ni 0.80767(10) 0.3470(2) 0.90474(12)
Ni8 Ni 0.7500 0.2500 0.5000
O15 O 0.2286(6) 0.3748(13) 0.0535(7)
O16 O 0.2104(5) 0.0853(13) 0.0086(7)
Ni2_2 Ni 0.2500 0.2500 1.0000
O8 O 0.2714(6) 0.1252(13) 0.9465(7)
O9 O 0.2811(6) 0.0313(13) 0.8658(7)
O11 O 0.3559(6) 0.3680(17) 0.9785(9)
O12 O 0.2896(5) 0.4147(13) 0.9914(7)
O13 O 0.3128(6) 0.6405(14) 0.9186(8)
O14 O 0.2427(6) 0.7292(13) 0.8286(7)
N6 N 0.1590(7) 0.3403(16) 0.6564(8)
H15 H 0.1353 0.4065 0.6419
H16 H 0.1417 0.2626 0.6475
H25 H 0.3705 0.0887 0.9898
C34 C 0.3095(8) 0.3871(18) 0.9552(10)
C35 C 0.2691(7) 0.1280(18) 0.8891(10)
C36 C 0.2688(8) 0.6268(19) 0.8618(10)
C37 C 0.2497(7) 0.4903(18) 0.8328(9)
C38 C 0.2698(7) 0.3777(18) 0.8760(9)
C39 C 0.2510(8) 0.2523(17) 0.8452(10)
C40 C 0.2148(8) 0.2392(18) 0.7732(10)
H27 H 0.2039 0.1548 0.7533
C41 C 0.1949(8) 0.3521(18) 0.7308(10)
C42 C 0.2123(8) 0.4780(18) 0.7612(10)
H28 H 0.1987 0.5540 0.7334
Ni5 Ni 0.30767(10) 0.8470(2) 0.90474(12)
Ni6 Ni 0.19233(10) 0.3470(2) 0.59526(12)
N7 N 0.1801(6) 0.3032(17) 0.9068(8)
O3 O 0.7252(6) 0.8621(14) 0.5346(8)
N2 N 0.6214(7) 0.8940(18) 0.5055(9)
H4 H 0.3832 0.9406 0.1882
C7 C 0.4784(10) 0.979(3) 0.3114(13)
H8 H 0.4585 0.9062 0.2844
C8 C 0.5278(9) 0.951(3) 0.3781(12)
C9 C 0.5422(10) 0.821(3) 0.4014(14)
H9 H 0.5205 0.7505 0.3748
C10 C 0.5889(10) 0.796(2) 0.4645(13)
H10 H 0.5982 0.7085 0.4791
H18 H 0.6168 0.9406 0.3118
C28 C 0.5216(10) 0.979(3) 0.1886(13)
H22 H 0.5415 0.9062 0.2156
C29 C 0.4722(9) 0.951(3) 0.1219(12)
C30 C 0.4578(10) 0.821(3) 0.0986(14)
H23 H 0.4795 0.7505 0.1252
C31 C 0.4111(10) 0.796(2) 0.0355(13)
H24 H 0.4018 0.7085 0.0209
N9 N 0.6590(7) 0.8403(16) 0.6564(8)
H29 H 0.763595 0.875303 0.566231
H30 H 0.718012 0.778879 0.507011
O10 O 0.2748(6) 0.8621(14) 0.9654(8)
N5 N 0.3786(7) 0.8940(18) 0.9945(9)
N8 N 0.3410(7) 0.8403(16) 0.8436(8)
H31 H 0.236405 0.875303 0.933769
H32 H 0.281988 0.778879 0.992989
O15_2 O 0.7714(6) 0.3748(13) 0.4465(7)
O16_2 O 0.7896(5) 0.0853(13) 0.4914(7)
N7_2 N 0.8199(6) 0.3032(17) 0.5932(8)
O6_2 O 0.1872(6) 0.1405(14) 0.5814(8)
O7_2 O 0.2573(6) 0.2292(13) 0.6714(7)
C15_2 C 0.2312(8) 0.1268(19) 0.6382(10)
H14_2 H 0.3013 0.0540 0.7666
O1_2 O 0.2286(6) 0.6252(13) 0.5535(7)
O2_2 O 0.2189(6) 0.5313(13) 0.6342(7)
O3_2 O 0.2252(6) 0.3621(14) 0.5346(8)
O4_2 O 0.1441(6) 0.8680(17) 0.5215(9)
O5_2 O 0.2104(5) 0.9147(13) 0.5086(7)
N2_2 N 0.1214(7) 0.3940(18) 0.5055(9)
H1_2 H 0.3647 0.9065 0.8581
H2_2 H 0.3583 0.7626 0.8525
C8_2 C 0.0278(9) 0.451(3) 0.3781(12)
C9_2 C 0.0422(10) 0.321(3) 0.4014(14)
H9_2 H 0.0205 0.2505 0.3748
C10_2 C 0.0889(10) 0.296(2) 0.4645(13)
H10_2 H 0.0982 0.2085 0.4791
C11_2 C 0.1072(9) 0.520(2) 0.4826(12)
H11_2 H 0.1295 0.5887 0.5102
C12_2 C 0.0617(10) 0.552(3) 0.4205(13)
H12_2 H 0.0535 0.6411 0.4069
C13_2 C 0.1905(8) 0.8871(18) 0.5448(10)
C14_2 C 0.2309(7) 0.6280(18) 0.6109(10)
C16_2 C 0.2503(7) 0.9903(18) 0.6672(9)
C17_2 C 0.2302(7) 0.8777(18) 0.6240(9)
C18_2 C 0.2490(8) 0.7523(17) 0.6548(10)
C19_2 C 0.2852(8) 0.7392(18) 0.7268(10)
H13_2 H 0.2961 0.6548 0.7467
C20_2 C 0.3051(8) 0.8521(18) 0.7692(10)
C21_2 C 0.2877(8) 0.9780(18) 0.7388(10)
N4_2 N 0.1801(6) 0.6968(17) 0.4068(8)
C22_2 C 0.1684(8) 0.570(2) 0.3858(11)
H17_2 H 0.1919 0.5040 0.4148
C23_2 C 0.1234(9) 0.530(2) 0.3238(12)
H18_2 H 0.1168 0.4406 0.3118
C24_2 C 0.0881(9) 0.628(2) 0.2795(12)
C25_2 C 0.1007(10) 0.760(2) 0.3006(13)
H19_2 H 0.0784 0.8285 0.2721
C26_2 C 0.1461(9) 0.791(2) 0.3637(11)
H20_2 H 0.1536 0.8796 0.3771
C27_2 C 0.0396(9) 0.598(3) 0.2127(12)
H21_2 H 0.0198 0.6704 0.1850
C28_2 C 0.0216(10) 0.479(3) 0.1886(13)
H22_2 H 0.0415 0.4062 0.2156
Ni8_2 Ni 0.2500 0.7500 0.5000
H29_2 H 0.263595 0.375303 0.566231
H30_2 H 0.218012 0.278879 0.507011
O13_2 O 0.8128(6) 0.1405(14) 0.9186(8)
O14_2 O 0.7427(6) 0.2292(13) 0.8286(7)
C36_2 C 0.7688(8) 0.1268(19) 0.8618(10)
H28_2 H 0.6987 0.0540 0.7334
Ni2_3 Ni 0.7500 0.7500 0.0000
N1_2 N 0.8199(6) 0.6968(17) 0.0932(8)
C1_2 C 0.8316(8) 0.570(2) 0.1142(11)
H3_2 H 0.8081 0.5040 0.0852
C2_2 C 0.8766(9) 0.530(2) 0.1762(12)
H4_2 H 0.8832 0.4406 0.1882
C3_2 C 0.9119(9) 0.628(2) 0.2205(12)
C4_2 C 0.8993(10) 0.760(2) 0.1994(13)
H5_2 H 0.9216 0.8285 0.2279
C5_2 C 0.8539(9) 0.791(2) 0.1363(11)
H6_2 H 0.8464 0.8796 0.1229
C6_2 C 0.9604(9) 0.598(3) 0.2873(12)
H7_2 H 0.9802 0.6704 0.3150
C7_2 C 0.9784(10) 0.479(3) 0.3114(13)
H8_2 H 0.9585 0.4062 0.2844
C29_2 C 0.9722(9) 0.451(3) 0.1219(12)
C30_2 C 0.9578(10) 0.321(3) 0.0986(14)
H23_2 H 0.9795 0.2505 0.1252
C31_2 C 0.9111(10) 0.296(2) 0.0355(13)
H24_2 H 0.9018 0.2085 0.0209
C32_2 C 0.8928(9) 0.520(2) 0.0174(12)
C33_2 C 0.9383(10) 0.552(3) 0.0795(13)
H26_2 H 0.9465 0.6411 0.0931
O15_3 O 0.7286(6) 0.8748(13) 0.0535(7)
O16_3 O 0.7104(5) 0.5853(13) 0.0086(7)
Ni2_4 Ni 0.7500 0.7500 1.0000
O8_2 O 0.7714(6) 0.6252(13) 0.9465(7)
O9_2 O 0.7811(6) 0.5313(13) 0.8658(7)
O10_2 O 0.7748(6) 0.3621(14) 0.9654(8)
O11_2 O 0.8559(6) 0.8680(17) 0.9785(9)
O12_2 O 0.7896(5) 0.9147(13) 0.9914(7)
N5_2 N 0.8786(7) 0.3940(18) 0.9945(9)
H15_2 H 0.6353 0.9065 0.6419
H16_2 H 0.6417 0.7626 0.6475
H25_2 H 0.8705 0.5887 0.9898
C34_2 C 0.8095(8) 0.8871(18) 0.9552(10)
C35_2 C 0.7691(7) 0.6280(18) 0.8891(10)
C37_2 C 0.7497(7) 0.9903(18) 0.8328(9)
C38_2 C 0.7698(7) 0.8777(18) 0.8760(9)
C39_2 C 0.7510(8) 0.7523(17) 0.8452(10)
C40_2 C 0.7148(8) 0.7392(18) 0.7732(10)
H27_2 H 0.7039 0.6548 0.7533
C41_2 C 0.6949(8) 0.8521(18) 0.7308(10)
C42_2 C 0.7123(8) 0.9780(18) 0.7612(10)
N7_3 N 0.6801(6) 0.8032(17) 0.9068(8)
H31_2 H 0.736405 0.375303 0.933769
H32_2 H 0.781988 0.278879 0.992989
O15_4 O 0.2714(6) 0.8748(13) 0.4465(7)
O16_4 O 0.2896(5) 0.5853(13) 0.4914(7)
N7_4 N 0.3199(6) 0.8032(17) 0.5932(8)
Ni3 Ni 0.69233(10) 0.1530(2) 0.09526(12)
O10_3 O 0.7252(6) 0.1379(14) 0.0346(8)
N5_3 N 0.6214(7) 0.1060(18) 0.0055(9)
O18 O 0.6872(6) 0.3595(14) 0.0814(8)
O20 O 0.7573(6) 0.2708(13) 0.1714(7)
N8_2 N 0.6590(7) 0.1597(16) 0.1564(8)
H31_3 H 0.763595 0.124697 0.0662313
H32_3 H 0.718012 0.221121 0.00701138
Ni1 Ni 0.30767(10) 0.1530(2) 0.40474(12)
O3_3 O 0.2748(6) 0.1379(14) 0.4654(8)
N2_3 N 0.3786(7) 0.1060(18) 0.4945(9)
H4_3 H 0.6168 0.0594 0.8118
C7_3 C 0.5216(10) 0.021(3) 0.6886(13)
H8_3 H 0.5415 0.0938 0.7156
C8_3 C 0.4722(9) 0.049(3) 0.6219(12)
C9_3 C 0.4578(10) 0.179(3) 0.5986(14)
H9_3 H 0.4795 0.2495 0.6252
C10_3 C 0.4111(10) 0.204(2) 0.5355(13)
H10_3 H 0.4018 0.2915 0.5209
H18_3 H 0.3832 0.0594 0.6882
C28_3 C 0.4784(10) 0.021(3) 0.8114(13)
H22_3 H 0.4585 0.0938 0.7844
C29_3 C 0.5278(9) 0.049(3) 0.8781(12)
C30_3 C 0.5422(10) 0.179(3) 0.9014(14)
H23_3 H 0.5205 0.2495 0.8748
C31_3 C 0.5889(10) 0.204(2) 0.9645(13)
H24_3 H 0.5982 0.2915 0.9791
O17 O 0.3128(6) 0.3595(14) 0.4186(8)
O19 O 0.2427(6) 0.2708(13) 0.3286(7)
N9_2 N 0.3410(7) 0.1597(16) 0.3436(8)
H29_3 H 0.236405 0.124697 0.433769
H30_3 H 0.281988 0.221121 0.492989
O9_3 O 0.7189(6) 0.9687(13) 0.1342(7)
O11_3 O 0.6441(6) 0.6320(17) 0.0215(9)
N6_2 N 0.8410(7) 0.6597(16) 0.3436(8)
H15_3 H 0.8647 0.5935 0.3581
H16_3 H 0.8583 0.7374 0.3525
H25_3 H 0.6295 0.9113 0.0102
C34_3 C 0.6905(8) 0.6129(18) 0.0448(10)
C35_3 C 0.7309(7) 0.8720(18) 0.1109(10)
C36_3 C 0.7312(8) 0.3732(19) 0.1382(10)
C37_3 C 0.7503(7) 0.5097(18) 0.1672(9)
C38_3 C 0.7302(7) 0.6223(18) 0.1240(9)
C39_3 C 0.7490(8) 0.7477(17) 0.1548(10)
C40_3 C 0.7852(8) 0.7608(18) 0.2268(10)
H27_3 H 0.7961 0.8452 0.2467
C41_3 C 0.8051(8) 0.6479(18) 0.2692(10)
C42_3 C 0.7877(8) 0.5220(18) 0.2388(10)
H28_3 H 0.8013 0.4460 0.2666
Ni6_2 Ni 0.80767(10) 0.6530(2) 0.40474(12)
O2_3 O 0.2811(6) 0.9687(13) 0.3658(7)
O4_3 O 0.3559(6) 0.6320(17) 0.4785(9)
N3_2 N 0.1590(7) 0.6597(16) 0.1564(8)
H1_3 H 0.1353 0.5935 0.1419
H2_3 H 0.1417 0.7374 0.1475
C1_3 C 0.6684(8) 0.930(2) 0.8858(11)
H3_3 H 0.6919 0.9960 0.9148
C2_3 C 0.6234(9) 0.970(2) 0.8238(12)
C3_3 C 0.5881(9) 0.872(2) 0.7795(12)
C4_3 C 0.6007(10) 0.740(2) 0.8006(13)
H5_3 H 0.5784 0.6715 0.7721
C5_3 C 0.6461(9) 0.709(2) 0.8637(11)
H6_3 H 0.6536 0.6204 0.8771
C6_3 C 0.5396(9) 0.902(3) 0.7127(12)
H7_3 H 0.5198 0.8296 0.6850
C11_3 C 0.3928(9) 0.980(2) 0.5174(12)
H11_3 H 0.3705 0.9113 0.4898
C12_3 C 0.4383(10) 0.948(3) 0.5795(13)
H12_3 H 0.4465 0.8589 0.5931
C13_3 C 0.3095(8) 0.6129(18) 0.4552(10)
C14_3 C 0.2691(7) 0.8720(18) 0.3891(10)
C15_3 C 0.2688(8) 0.3732(19) 0.3618(10)
C16_3 C 0.2497(7) 0.5097(18) 0.3328(9)
C17_3 C 0.2698(7) 0.6223(18) 0.3760(9)
C18_3 C 0.2510(8) 0.7477(17) 0.3452(10)
C19_3 C 0.2148(8) 0.7608(18) 0.2732(10)
H13_3 H 0.2039 0.8452 0.2533
C20_3 C 0.1949(8) 0.6479(18) 0.2308(10)
C21_3 C 0.2123(8) 0.5220(18) 0.2612(10)
H14_3 H 0.1987 0.4460 0.2334
C22_3 C 0.3316(8) 0.930(2) 0.6142(11)
H17_3 H 0.3081 0.9960 0.5852
C23_3 C 0.3766(9) 0.970(2) 0.6762(12)
C24_3 C 0.4119(9) 0.872(2) 0.7205(12)
C25_3 C 0.3993(10) 0.740(2) 0.6994(13)
H19_3 H 0.4216 0.6715 0.7279
C26_3 C 0.3539(9) 0.709(2) 0.6363(11)
H20_3 H 0.3464 0.6204 0.6229
C27_3 C 0.4604(9) 0.902(3) 0.7873(12)
H21_3 H 0.4802 0.8296 0.8150
C32_3 C 0.6072(9) 0.980(2) 0.9826(12)
C33_3 C 0.5617(10) 0.948(3) 0.9205(13)
H26_3 H 0.5535 0.8589 0.9069
Ni7_2 Ni 0.19233(10) 0.6530(2) 0.09526(12)
O9_4 O 0.2189(6) 0.4687(13) 0.1342(7)
O10_4 O 0.2252(6) 0.6379(14) 0.0346(8)
O11_4 O 0.1441(6) 0.1320(17) 0.0215(9)
N5_4 N 0.1214(7) 0.6060(18) 0.0055(9)
H15_4 H 0.3647 0.0935 0.3581
H16_4 H 0.3583 0.2374 0.3525
H25_4 H 0.1295 0.4113 0.0102
C34_4 C 0.1905(8) 0.1129(18) 0.0448(10)
C35_4 C 0.2309(7) 0.3720(18) 0.1109(10)
C37_4 C 0.2503(7) 0.0097(18) 0.1672(9)
C38_4 C 0.2302(7) 0.1223(18) 0.1240(9)
C39_4 C 0.2490(8) 0.2477(17) 0.1548(10)
C40_4 C 0.2852(8) 0.2608(18) 0.2268(10)
H27_4 H 0.2961 0.3452 0.2467
C41_4 C 0.3051(8) 0.1479(18) 0.2692(10)
C42_4 C 0.2877(8) 0.0220(18) 0.2388(10)
O18_2 O 0.1872(6) 0.8595(14) 0.0814(8)
O20_2 O 0.2573(6) 0.7708(13) 0.1714(7)
H31_4 H 0.263595 0.624697 0.0662313
H32_4 H 0.218012 0.721121 0.00701138
C1_4 C 0.1684(8) 0.430(2) 0.8858(11)
H3_4 H 0.1919 0.4960 0.9148
C2_4 C 0.1234(9) 0.470(2) 0.8238(12)
H4_4 H 0.1168 0.5594 0.8118
C3_4 C 0.0881(9) 0.372(2) 0.7795(12)
C4_4 C 0.1007(10) 0.240(2) 0.8006(13)
H5_4 H 0.0784 0.1715 0.7721
C5_4 C 0.1461(9) 0.209(2) 0.8637(11)
H6_4 H 0.1536 0.1204 0.8771
C6_4 C 0.0396(9) 0.402(3) 0.7127(12)
H7_4 H 0.0198 0.3296 0.6850
C7_4 C 0.0216(10) 0.521(3) 0.6886(13)
H8_4 H 0.0415 0.5938 0.7156
C29_4 C 0.0278(9) 0.549(3) 0.8781(12)
C30_4 C 0.0422(10) 0.679(3) 0.9014(14)
H23_4 H 0.0205 0.7495 0.8748
C31_4 C 0.0889(10) 0.704(2) 0.9645(13)
H24_4 H 0.0982 0.7915 0.9791
C32_4 C 0.1072(9) 0.480(2) 0.9826(12)
C33_4 C 0.0617(10) 0.448(3) 0.9205(13)
H26_4 H 0.0535 0.3589 0.9069
C36_4 C 0.2312(8) 0.8732(19) 0.1382(10)
H28_4 H 0.3013 0.9460 0.2666
O2_4 O 0.7811(6) 0.4687(13) 0.3658(7)
O3_4 O 0.7748(6) 0.6379(14) 0.4654(8)
O4_4 O 0.8559(6) 0.1320(17) 0.4785(9)
N2_4 N 0.8786(7) 0.6060(18) 0.4945(9)
H1_4 H 0.6353 0.0935 0.1419
H2_4 H 0.6417 0.2374 0.1475
C8_4 C 0.9722(9) 0.549(3) 0.6219(12)
C9_4 C 0.9578(10) 0.679(3) 0.5986(14)
H9_4 H 0.9795 0.7495 0.6252
C10_4 C 0.9111(10) 0.704(2) 0.5355(13)
H10_4 H 0.9018 0.7915 0.5209
C11_4 C 0.8928(9) 0.480(2) 0.5174(12)
H11_4 H 0.8705 0.4113 0.4898
C12_4 C 0.9383(10) 0.448(3) 0.5795(13)
H12_4 H 0.9465 0.3589 0.5931
C13_4 C 0.8095(8) 0.1129(18) 0.4552(10)
C14_4 C 0.7691(7) 0.3720(18) 0.3891(10)
C16_4 C 0.7497(7) 0.0097(18) 0.3328(9)
C17_4 C 0.7698(7) 0.1223(18) 0.3760(9)
C18_4 C 0.7510(8) 0.2477(17) 0.3452(10)
C19_4 C 0.7148(8) 0.2608(18) 0.2732(10)
H13_4 H 0.7039 0.3452 0.2533
C20_4 C 0.6949(8) 0.1479(18) 0.2308(10)
C21_4 C 0.7123(8) 0.0220(18) 0.2612(10)
C22_4 C 0.8316(8) 0.430(2) 0.6142(11)
H17_4 H 0.8081 0.4960 0.5852
C23_4 C 0.8766(9) 0.470(2) 0.6762(12)
H18_4 H 0.8832 0.5594 0.6882
C24_4 C 0.9119(9) 0.372(2) 0.7205(12)
C25_4 C 0.8993(10) 0.240(2) 0.6994(13)
H19_4 H 0.9216 0.1715 0.7279
C26_4 C 0.8539(9) 0.209(2) 0.6363(11)
H20_4 H 0.8464 0.1204 0.6229
C27_4 C 0.9604(9) 0.402(3) 0.7873(12)
H21_4 H 0.9802 0.3296 0.8150
C28_4 C 0.9784(10) 0.521(3) 0.8114(13)
H22_4 H 0.9585 0.5938 0.7844
O17_2 O 0.8128(6) 0.8595(14) 0.4186(8)
O19_2 O 0.7427(6) 0.7708(13) 0.3286(7)
H29_4 H 0.736405 0.624697 0.433769
H30_4 H 0.781988 0.721121 0.492989
C15_4 C 0.7688(8) 0.8732(19) 0.3618(10)
H14_4 H 0.6987 0.9460 0.2334
loop_
_geom_bond_atom_site_label_1
_geom_bond_atom_site_label_2
_geom_bond_site_symmetry_1
_geom_bond_site_symmetry_2
Ni2 N1 1_555 1_555
O1 C14 1_555 1_555
O2 C14 1_555 1_555
O4 C13 1_555 1_555
O5 C13 1_555 1_555
O6 C15 1_555 1_555
O7 C15 1_555 1_555
N1 C1 1_555 1_555
N3 H1 1_555 1_555
H2 N3 1_555 1_555
C1 H3 1_555 1_555
C2 C1 1_555 1_555
C3 C2 1_555 1_555
C4 C3 1_555 1_555
H5 C4 1_555 1_555
C5 N1 1_555 1_555
H6 C5 1_555 1_555
C6 C3 1_555 1_555
H7 C6 1_555 1_555
H11 C11 1_555 1_555
H12 C12 1_555 1_555
C13 C17 1_555 1_555
C14 C18 1_555 1_555
C15 C16 1_555 1_555
C16 C17 1_555 1_555
C17 C18 1_555 1_555
C18 C19 1_555 1_555
C19 H13 1_555 1_555
C20 N3 1_555 1_555
C21 C16 1_555 1_555
H14 C21 1_555 1_555
N4 C22 1_555 1_555
C22 H17 1_555 1_555
C23 C22 1_555 1_555
C24 C23 1_555 1_555
C25 C24 1_555 1_555
H19 C25 1_555 1_555
C26 N4 1_555 1_555
H20 C26 1_555 1_555
C27 C24 1_555 1_555
H21 C27 1_555 1_555
H26 C33 1_555 1_555
Ni4 O6 1_555 1_555
Ni7 N3 1_555 1_555
Ni8 O1 1_555 1_555
O15 Ni2 1_555 1_555
O16 Ni2 1_555 1_555
O5 Ni8 1_555 1_555
O7 Ni4 1_555 1_555
C4 C5 1_555 1_555
C11 C12 1_555 1_555
C19 C20 1_555 1_555
C20 C21 1_555 1_555
N4 Ni8 1_555 1_555
C25 C26 1_555 1_555
C32 C33 1_555 1_555
O8 Ni2_2 1_555 1_555
O9 C35 1_555 1_555
O11 C34 1_555 1_555
O12 Ni2_2 1_555 1_555
O13 C36 1_555 1_555
O14 C36 1_555 1_555
N6 H15 1_555 1_555
H16 N6 1_555 1_555
C34 O12 1_555 1_555
C35 O8 1_555 1_555
C36 C37 1_555 1_555
C37 C38 1_555 1_555
C38 C34 1_555 1_555
C39 C35 1_555 1_555
C40 C39 1_555 1_555
H27 C40 1_555 1_555
C41 N6 1_555 1_555
C42 C37 1_555 1_555
H28 C42 1_555 1_555
Ni5 O13 1_555 1_555
Ni6 N6 1_555 1_555
N7 Ni2_2 1_555 1_555
O14 Ni5 1_555 1_555
C38 C39 1_555 1_555
C40 C41 1_555 1_555
C41 C42 1_555 1_555
O3 Ni4 1_555 1_555
N2 Ni4 1_555 1_555
H8 C7 1_555 1_555
C8 C7 1_555 1_555
C9 C8 1_555 1_555
H9 C9 1_555 1_555
C10 N2 1_555 1_555
H10 C10 1_555 1_555
H22 C28 1_555 1_555
C29 C28 1_555 1_555
C30 C29 1_555 1_555
H23 C30 1_555 1_555
H24 C31 1_555 1_555
N9 Ni4 1_555 1_555
C9 C10 1_555 1_555
C30 C31 1_555 1_555
O3 H29 1_555 1_555
O3 H30 1_555 1_555
O10 Ni5 1_555 1_555
N5 Ni5 1_555 1_555
N8 Ni5 1_555 1_555
O10 H31 1_555 1_555
O10 H32 1_555 1_555
O15_2 Ni8 1_555 1_555
O16_2 Ni8 1_555 1_555
N7_2 Ni8 1_555 1_555
O6_2 C15_2 1_555 1_555
O7_2 C15_2 1_555 1_555
Ni6 O6_2 1_555 1_555
O7_2 Ni6 1_555 1_555
Ni6 O2_2 1_555 1_555
O1_2 C14_2 1_555 1_555
O2_2 C14_2 1_555 1_555
O3_2 Ni6 1_555 1_555
O4_2 C13_2 1_555 1_555
O5_2 C13_2 1_555 1_555
N2_2 Ni6 1_555 1_555
N8 H1_2 1_555 1_555
H2_2 N8 1_555 1_555
C9_2 C8_2 1_555 1_555
H9_2 C9_2 1_555 1_555
C10_2 N2_2 1_555 1_555
H10_2 C10_2 1_555 1_555
C11_2 N2_2 1_555 1_555
H11_2 C11_2 1_555 1_555
C12_2 C8_2 1_555 1_555
H12_2 C12_2 1_555 1_555
C13_2 C17_2 1_555 1_555
C14_2 C18_2 1_555 1_555
C16_2 C17_2 1_555 1_555
C17_2 C18_2 1_555 1_555
C18_2 C19_2 1_555 1_555
C19_2 H13_2 1_555 1_555
C20_2 N8 1_555 1_555
C21_2 C16_2 1_555 1_555
N4_2 C22_2 1_555 1_555
C22_2 H17_2 1_555 1_555
C23_2 C22_2 1_555 1_555
H18_2 C23_2 1_555 1_555
C24_2 C23_2 1_555 1_555
C25_2 C24_2 1_555 1_555
H19_2 C25_2 1_555 1_555
C26_2 N4_2 1_555 1_555
H20_2 C26_2 1_555 1_555
C27_2 C24_2 1_555 1_555
H21_2 C27_2 1_555 1_555
C28_2 C27_2 1_555 1_555
H22_2 C28_2 1_555 1_555
Ni8_2 O1_2 1_555 1_555
O5_2 Ni8_2 1_555 1_555
C9_2 C10_2 1_555 1_555
C11_2 C12_2 1_555 1_555
C19_2 C20_2 1_555 1_555
C20_2 C21_2 1_555 1_555
N4_2 Ni8_2 1_555 1_555
C25_2 C26_2 1_555 1_555
O3_2 H29_2 1_555 1_555
O3_2 H30_2 1_555 1_555
O13_2 C36_2 1_555 1_555
O14_2 C36_2 1_555 1_555
Ni7 O13_2 1_555 1_555
O14_2 Ni7 1_555 1_555
Ni2_3 N1_2 1_555 1_555
N1_2 C1_2 1_555 1_555
C1_2 H3_2 1_555 1_555
C2_2 C1_2 1_555 1_555
H4_2 C2_2 1_555 1_555
C3_2 C2_2 1_555 1_555
C4_2 C3_2 1_555 1_555
H5_2 C4_2 1_555 1_555
C5_2 N1_2 1_555 1_555
H6_2 C5_2 1_555 1_555
C6_2 C3_2 1_555 1_555
H7_2 C6_2 1_555 1_555
C7_2 C6_2 1_555 1_555
H8_2 C7_2 1_555 1_555
C30_2 C29_2 1_555 1_555
H23_2 C30_2 1_555 1_555
H24_2 C31_2 1_555 1_555
C33_2 C29_2 1_555 1_555
H26_2 C33_2 1_555 1_555
O15_3 Ni2_3 1_555 1_555
O16_3 Ni2_3 1_555 1_555
C4_2 C5_2 1_555 1_555
C30_2 C31_2 1_555 1_555
C32_2 C33_2 1_555 1_555
Ni7 O9_2 1_555 1_555
O8_2 Ni2_4 1_555 1_555
O9_2 C35_2 1_555 1_555
O10_2 Ni7 1_555 1_555
O11_2 C34_2 1_555 1_555
O12_2 Ni2_4 1_555 1_555
N5_2 Ni7 1_555 1_555
N9 H15_2 1_555 1_555
H16_2 N9 1_555 1_555
C34_2 O12_2 1_555 1_555
C35_2 O8_2 1_555 1_555
C37_2 C38_2 1_555 1_555
C38_2 C34_2 1_555 1_555
C39_2 C35_2 1_555 1_555
C40_2 C39_2 1_555 1_555
H27_2 C40_2 1_555 1_555
C41_2 N9 1_555 1_555
C42_2 C37_2 1_555 1_555
N7_3 Ni2_4 1_555 1_555
C38_2 C39_2 1_555 1_555
C40_2 C41_2 1_555 1_555
C41_2 C42_2 1_555 1_555
O10_2 H31_2 1_555 1_555
O10_2 H32_2 1_555 1_555
O15_4 Ni8_2 1_555 1_555
O16_4 Ni8_2 1_555 1_555
N7_4 Ni8_2 1_555 1_555
O10_3 Ni3 1_555 1_555
N5_3 Ni3 1_555 1_555
O18 Ni3 1_555 1_555
O20 Ni3 1_555 1_555
N8_2 Ni3 1_555 1_555
O10_3 H31_3 1_555 1_555
O10_3 H32_3 1_555 1_555
O3_3 Ni1 1_555 1_555
N2_3 Ni1 1_555 1_555
H8_3 C7_3 1_555 1_555
C8_3 C7_3 1_555 1_555
C9_3 C8_3 1_555 1_555
H9_3 C9_3 1_555 1_555
C10_3 N2_3 1_555 1_555
H10_3 C10_3 1_555 1_555
H22_3 C28_3 1_555 1_555
C29_3 C28_3 1_555 1_555
C30_3 C29_3 1_555 1_555
H23_3 C30_3 1_555 1_555
H24_3 C31_3 1_555 1_555
O17 Ni1 1_555 1_555
O19 Ni1 1_555 1_555
N9_2 Ni1 1_555 1_555
C9_3 C10_3 1_555 1_555
C30_3 C31_3 1_555 1_555
O3_3 H29_3 1_555 1_555
O3_3 H30_3 1_555 1_555
O9_3 C35_3 1_555 1_555
O11_3 C34_3 1_555 1_555
O18 C36_3 1_555 1_555
O20 C36_3 1_555 1_555
N6_2 H15_3 1_555 1_555
H16_3 N6_2 1_555 1_555
C34_3 O16_3 1_555 1_555
C35_3 O15_3 1_555 1_555
C36_3 C37_3 1_555 1_555
C37_3 C38_3 1_555 1_555
C38_3 C34_3 1_555 1_555
C39_3 C35_3 1_555 1_555
C40_3 C39_3 1_555 1_555
H27_3 C40_3 1_555 1_555
C41_3 N6_2 1_555 1_555
C42_3 C37_3 1_555 1_555
H28_3 C42_3 1_555 1_555
Ni6_2 N6_2 1_555 1_555
C38_3 C39_3 1_555 1_555
C40_3 C41_3 1_555 1_555
C41_3 C42_3 1_555 1_555
O15_4 C14_3 1_555 1_555
O2_3 C14_3 1_555 1_555
O4_3 C13_3 1_555 1_555
O16_4 C13_3 1_555 1_555
O17 C15_3 1_555 1_555
O19 C15_3 1_555 1_555
N7_3 C1_3 1_555 1_555
N3_2 H1_3 1_555 1_555
H2_3 N3_2 1_555 1_555
C1_3 H3_3 1_555 1_555
C2_3 C1_3 1_555 1_555
C3_3 C2_3 1_555 1_555
C4_3 C3_3 1_555 1_555
H5_3 C4_3 1_555 1_555
C5_3 N7_3 1_555 1_555
H6_3 C5_3 1_555 1_555
C6_3 C3_3 1_555 1_555
H7_3 C6_3 1_555 1_555
H11_3 C11_3 1_555 1_555
H12_3 C12_3 1_555 1_555
C13_3 C17_3 1_555 1_555
C14_3 C18_3 1_555 1_555
C15_3 C16_3 1_555 1_555
C16_3 C17_3 1_555 1_555
C17_3 C18_3 1_555 1_555
C18_3 C19_3 1_555 1_555
C19_3 H13_3 1_555 1_555
C20_3 N3_2 1_555 1_555
C21_3 C16_3 1_555 1_555
H14_3 C21_3 1_555 1_555
N7_4 C22_3 1_555 1_555
C22_3 H17_3 1_555 1_555
C23_3 C22_3 1_555 1_555
C24_3 C23_3 1_555 1_555
C25_3 C24_3 1_555 1_555
H19_3 C25_3 1_555 1_555
C26_3 N7_4 1_555 1_555
H20_3 C26_3 1_555 1_555
C27_3 C24_3 1_555 1_555
H21_3 C27_3 1_555 1_555
H26_3 C33_3 1_555 1_555
Ni7_2 N3_2 1_555 1_555
C4_3 C5_3 1_555 1_555
C11_3 C12_3 1_555 1_555
C19_3 C20_3 1_555 1_555
C20_3 C21_3 1_555 1_555
C25_3 C26_3 1_555 1_555
C32_3 C33_3 1_555 1_555
Ni7_2 O9_4 1_555 1_555
O9_4 C35_4 1_555 1_555
O10_4 Ni7_2 1_555 1_555
O11_4 C34_4 1_555 1_555
N5_4 Ni7_2 1_555 1_555
N9_2 H15_4 1_555 1_555
H16_4 N9_2 1_555 1_555
C34_4 O16 1_555 1_555
C35_4 O15 1_555 1_555
C37_4 C38_4 1_555 1_555
C38_4 C34_4 1_555 1_555
C39_4 C35_4 1_555 1_555
C40_4 C39_4 1_555 1_555
H27_4 C40_4 1_555 1_555
C41_4 N9_2 1_555 1_555
C42_4 C37_4 1_555 1_555
O18_2 Ni7_2 1_555 1_555
O20_2 Ni7_2 1_555 1_555
C38_4 C39_4 1_555 1_555
C40_4 C41_4 1_555 1_555
C41_4 C42_4 1_555 1_555
O10_4 H31_4 1_555 1_555
O10_4 H32_4 1_555 1_555
N7 C1_4 1_555 1_555
C1_4 H3_4 1_555 1_555
C2_4 C1_4 1_555 1_555
H4_4 C2_4 1_555 1_555
C3_4 C2_4 1_555 1_555
C4_4 C3_4 1_555 1_555
H5_4 C4_4 1_555 1_555
C5_4 N7 1_555 1_555
H6_4 C5_4 1_555 1_555
C6_4 C3_4 1_555 1_555
H7_4 C6_4 1_555 1_555
C7_4 C6_4 1_555 1_555
H8_4 C7_4 1_555 1_555
C30_4 C29_4 1_555 1_555
H23_4 C30_4 1_555 1_555
H24_4 C31_4 1_555 1_555
C33_4 C29_4 1_555 1_555
H26_4 C33_4 1_555 1_555
C4_4 C5_4 1_555 1_555
C30_4 C31_4 1_555 1_555
C32_4 C33_4 1_555 1_555
O18_2 C36_4 1_555 1_555
O20_2 C36_4 1_555 1_555
Ni6_2 O2_4 1_555 1_555
O15_2 C14_4 1_555 1_555
O2_4 C14_4 1_555 1_555
O3_4 Ni6_2 1_555 1_555
O4_4 C13_4 1_555 1_555
O16_2 C13_4 1_555 1_555
N2_4 Ni6_2 1_555 1_555
N8_2 H1_4 1_555 1_555
H2_4 N8_2 1_555 1_555
C9_4 C8_4 1_555 1_555
H9_4 C9_4 1_555 1_555
C10_4 N2_4 1_555 1_555
H10_4 C10_4 1_555 1_555
C11_4 N2_4 1_555 1_555
H11_4 C11_4 1_555 1_555
C12_4 C8_4 1_555 1_555
H12_4 C12_4 1_555 1_555
C13_4 C17_4 1_555 1_555
C14_4 C18_4 1_555 1_555
C16_4 C17_4 1_555 1_555
C17_4 C18_4 1_555 1_555
C18_4 C19_4 1_555 1_555
C19_4 H13_4 1_555 1_555
C20_4 N8_2 1_555 1_555
C21_4 C16_4 1_555 1_555
N7_2 C22_4 1_555 1_555
C22_4 H17_4 1_555 1_555
C23_4 C22_4 1_555 1_555
H18_4 C23_4 1_555 1_555
C24_4 C23_4 1_555 1_555
C25_4 C24_4 1_555 1_555
H19_4 C25_4 1_555 1_555
C26_4 N7_2 1_555 1_555
H20_4 C26_4 1_555 1_555
C27_4 C24_4 1_555 1_555
H21_4 C27_4 1_555 1_555
C28_4 C27_4 1_555 1_555
H22_4 C28_4 1_555 1_555
O17_2 Ni6_2 1_555 1_555
O19_2 Ni6_2 1_555 1_555
C9_4 C10_4 1_555 1_555
C11_4 C12_4 1_555 1_555
C19_4 C20_4 1_555 1_555
C20_4 C21_4 1_555 1_555
C25_4 C26_4 1_555 1_555
O3_4 H29_4 1_555 1_555
O3_4 H30_4 1_555 1_555
O17_2 C15_4 1_555 1_555
O19_2 C15_4 1_555 1_555

#END
