
###############################################################################
#
# This file contains modified crystal structure data generated from the
# MOF subset of the Cambridge Structural Database (CSD) v543 
# hosted by the Cambridge Crystallographic Data Centre (CCDC).
#
# This work is licensed under the Creative Commons
# Attribution-NonCommercial-ShareAlike 4.0 International License.
# To view a copy of this license, visit
# http://creativecommons.org/licenses/by-nc-sa/4.0/
# or send a letter to
# Creative Commons, PO Box 1866, Mountain View, CA 94042, USA.
#
# CIF created using the CSD Python API on 29 September 2022
# The structure has been converted into the P1 space group
# The structure has a 3D framework
# The original CSD entry CILXED01 is in the monoclinic crystal system
# The framework has been calculated to contain at least 10.0% void space
# The void calculation uses a probe of radius 1.32A, grid spacing 0.4
#
###############################################################################

data_CILXED01
_chemical_formula_moiety         '(C152 H112 N40 Ni10 O56)n'
_symmetry_cell_setting           triclinic
_symmetry_space_group_name_H-M   'P 1'
_symmetry_Int_Tables_number      1
_space_group_name_Hall           'P 1'
loop_
_symmetry_equiv_pos_site_id
_symmetry_equiv_pos_as_xyz
1 x,y,z
_cell_length_a                   30.290(9)
_cell_length_b                   10.010(2)
_cell_length_c                   22.716(6)
_cell_angle_alpha                90
_cell_angle_beta                 124.309(7)
_cell_angle_gamma                90
_cell_volume                     5689.19
loop_
_atom_site_label
_atom_site_type_symbol
_atom_site_fract_x
_atom_site_fract_y
_atom_site_fract_z
Ni3 Ni 0.690666(16) 0.15002(3) 0.093677(19)
O13 O 0.72388(11) 0.1388(2) 0.03450(14)
H16 H 0.7252 0.0575 0.0247
N8 N 0.61832(11) 0.0980(3) 0.00173(14)
O18 O 0.68464(10) 0.3575(2) 0.07920(13)
O20 O 0.75651(9) 0.2687(2) 0.17146(12)
N12 N 0.65647(11) 0.1555(3) 0.15390(13)
Ni2 Ni 0.309334(16) 0.15002(3) 0.406323(19)
O6 O 0.27612(11) 0.1388(2) 0.46550(14)
H1 H 0.2970 0.1756 0.5058
H2 H 0.2748 0.0575 0.4753
N3 N 0.38168(11) 0.0980(3) 0.49827(14)
C12 C 0.47534(15) 0.0368(4) 0.62671(19)
C13 C 0.46109(18) 0.1664(5) 0.6065(2)
H9 H 0.4830 0.2354 0.6360
C14 C 0.41412(16) 0.1946(4) 0.5423(2)
H10 H 0.4046 0.2834 0.5291
N4 N 0.52463(15) 0.0134(4) 0.69424(19)
H14 H 0.6136 0.0620 0.8083
H15 H 0.7030 0.1756 0.9942
C31 C 0.52466(15) 0.0368(4) 0.87329(19)
C32 C 0.53891(18) 0.1664(5) 0.8935(2)
H23 H 0.5170 0.2354 0.8640
C33 C 0.58588(16) 0.1946(4) 0.9577(2)
H24 H 0.5954 0.2834 0.9709
N9 N 0.47537(15) 0.0134(4) 0.80576(19)
H28 H 0.3864 0.0620 0.6917
O17 O 0.31536(10) 0.3575(2) 0.42080(13)
O19 O 0.24349(9) 0.2687(2) 0.32854(12)
N13 N 0.34353(11) 0.1555(3) 0.34610(13)
O8 O 0.72884(9) 0.8736(2) 0.05341(11)
O9 O 0.70931(9) 0.5877(2) 0.00721(11)
O12 O 0.71888(10) 0.9665(2) 0.13413(12)
O14 O 0.64257(10) 0.6320(3) 0.01854(14)
N7 N 0.84353(11) 0.6555(3) 0.34610(13)
H17 H 0.8615 0.7328 0.3556
H18 H 0.8674 0.5886 0.3611
C20 C 0.68961(12) 0.6120(3) 0.04321(15)
C21 C 0.72998(12) 0.6206(3) 0.12338(15)
C22 C 0.74990(12) 0.5073(3) 0.16689(14)
C23 C 0.72971(13) 0.3709(3) 0.13731(15)
C24 C 0.78831(12) 0.5189(3) 0.23977(15)
H19 H 0.8018 0.4426 0.2679
C25 C 0.80658(12) 0.6442(3) 0.27077(15)
C26 C 0.78701(13) 0.7571(3) 0.22857(16)
H20 H 0.7988 0.8410 0.2492
C27 C 0.74962(12) 0.7458(3) 0.15504(15)
C28 C 0.73115(12) 0.8704(3) 0.11074(15)
H21 H 0.6265 0.9030 0.0113
Ni4 Ni 0.7500 0.7500 0.0000
Ni7 Ni 0.809334(16) 0.65002(3) 0.406323(19)
Ni1 Ni 0.2500 0.7500 0.5000
O1 O 0.27116(9) 0.8736(2) 0.44659(11)
O2 O 0.29069(9) 0.5877(2) 0.49279(11)
N1 N 0.67786(10) 0.8048(3) 0.90474(13)
O5 O 0.28112(10) 0.9665(2) 0.36587(12)
O7 O 0.35743(10) 0.6320(3) 0.48146(14)
N2 N 0.15647(11) 0.6555(3) 0.15390(13)
H3 H 0.1385 0.7328 0.1444
H4 H 0.1326 0.5886 0.1389
C1 C 0.31039(12) 0.6120(3) 0.45679(15)
C2 C 0.27002(12) 0.6206(3) 0.37662(15)
C3 C 0.25010(12) 0.5073(3) 0.33311(14)
C4 C 0.27029(13) 0.3709(3) 0.36269(15)
C5 C 0.21169(12) 0.5189(3) 0.26023(15)
H5 H 0.1982 0.4426 0.2321
C6 C 0.19342(12) 0.6442(3) 0.22923(15)
C7 C 0.21299(13) 0.7571(3) 0.27143(16)
H6 H 0.2012 0.8410 0.2508
C8 C 0.25038(12) 0.7458(3) 0.34496(15)
C9 C 0.26885(12) 0.8704(3) 0.38926(15)
C10 C 0.39590(15) 0.9708(4) 0.5188(2)
H7 H 0.3735 0.9030 0.4887
C11 C 0.44231(16) 0.9364(4) 0.5828(2)
H8 H 0.4510 0.8473 0.5958
N5 N 0.53465(15) 0.8993(4) 0.71012(19)
C15 C 0.58449(15) 0.8746(4) 0.77788(19)
C16 C 0.59577(18) 0.7425(4) 0.7978(2)
H11 H 0.5723 0.6754 0.7687
C17 C 0.64247(15) 0.7120(4) 0.86169(18)
H12 H 0.6498 0.6229 0.8756
C18 C 0.66642(13) 0.9327(3) 0.88354(17)
H13 H 0.6910 0.9980 0.9127
C19 C 0.62036(15) 0.9723(4) 0.82105(19)
N6 N 0.32214(10) 0.8048(3) 0.59526(13)
C29 C 0.60410(15) 0.9708(4) 0.9812(2)
C30 C 0.55769(16) 0.9364(4) 0.9172(2)
H22 H 0.5490 0.8473 0.9042
N10 N 0.46535(15) 0.8993(4) 0.78988(19)
C34 C 0.41551(15) 0.8746(4) 0.72212(19)
C35 C 0.40423(18) 0.7425(4) 0.7022(2)
H25 H 0.4277 0.6754 0.7313
C36 C 0.35753(15) 0.7120(4) 0.63831(18)
H26 H 0.3502 0.6229 0.6244
C37 C 0.33358(13) 0.9327(3) 0.61646(17)
H27 H 0.3090 0.9980 0.5873
C38 C 0.37964(15) 0.9723(4) 0.67895(19)
Ni4_2 Ni 0.7500 0.7500 1.0000
Ni8 Ni 0.190666(16) 0.65002(3) 0.093677(19)
O15 O 0.22884(9) 0.6264(2) 0.55341(11)
O16 O 0.20931(9) 0.9123(2) 0.50721(11)
N11 N 0.17786(10) 0.6952(3) 0.40474(13)
N11_2 N 0.82214(10) 0.6952(3) 0.09526(13)
O15_2 O 0.77116(9) 0.6264(2) 0.94659(11)
O16_2 O 0.79069(9) 0.9123(2) 0.99279(11)
O8_2 O 0.22884(9) 0.3736(2) 0.05341(11)
O9_2 O 0.20931(9) 0.0877(2) 0.00721(11)
O12_2 O 0.21888(10) 0.4665(2) 0.13413(12)
O13_2 O 0.22388(11) 0.6388(2) 0.03450(14)
H16_2 H 0.2252 0.5575 0.0247
O14_2 O 0.14257(10) 0.1320(3) 0.01854(14)
H17_2 H 0.3615 0.2328 0.3556
H18_2 H 0.3674 0.0886 0.3611
N8_2 N 0.11832(11) 0.5980(3) 0.00173(14)
C20_2 C 0.18961(12) 0.1120(3) 0.04321(15)
C21_2 C 0.22998(12) 0.1206(3) 0.12338(15)
C22_2 C 0.24990(12) 0.0073(3) 0.16689(14)
C24_2 C 0.28831(12) 0.0189(3) 0.23977(15)
C25_2 C 0.30658(12) 0.1442(3) 0.27077(15)
C26_2 C 0.28701(13) 0.2571(3) 0.22857(16)
H20_2 H 0.2988 0.3410 0.2492
C27_2 C 0.24962(12) 0.2458(3) 0.15504(15)
C28_2 C 0.23115(12) 0.3704(3) 0.11074(15)
H21_2 H 0.1265 0.4030 0.0113
Ni4_3 Ni 0.2500 0.2500 0.0000
O18_2 O 0.18464(10) 0.8575(2) 0.07920(13)
O20_2 O 0.25651(9) 0.7687(2) 0.17146(12)
N1_2 N 0.17786(10) 0.3048(3) 0.90474(13)
N4_2 N 0.02463(15) 0.5134(4) 0.69424(19)
N5_2 N 0.03465(15) 0.3993(4) 0.71012(19)
C15_2 C 0.08449(15) 0.3746(4) 0.77788(19)
C16_2 C 0.09577(18) 0.2425(4) 0.7978(2)
H11_2 H 0.0723 0.1754 0.7687
C17_2 C 0.14247(15) 0.2120(4) 0.86169(18)
H12_2 H 0.1498 0.1229 0.8756
C18_2 C 0.16642(13) 0.4327(3) 0.88354(17)
H13_2 H 0.1910 0.4980 0.9127
C19_2 C 0.12036(15) 0.4723(4) 0.82105(19)
H14_2 H 0.1136 0.5620 0.8083
H15_2 H 0.2030 0.6756 0.9942
C29_2 C 0.10410(15) 0.4708(4) 0.9812(2)
C30_2 C 0.05769(16) 0.4364(4) 0.9172(2)
H22_2 H 0.0490 0.3473 0.9042
C31_2 C 0.02466(15) 0.5368(4) 0.87329(19)
C32_2 C 0.03891(18) 0.6664(5) 0.8935(2)
H23_2 H 0.0170 0.7354 0.8640
C33_2 C 0.08588(16) 0.6946(4) 0.9577(2)
H24_2 H 0.0954 0.7834 0.9709
Ni4_4 Ni 0.2500 0.2500 1.0000
C23_2 C 0.22971(13) 0.8709(3) 0.13731(15)
H19_2 H 0.3018 0.9426 0.2679
Ni1_2 Ni 0.7500 0.2500 0.5000
O1_2 O 0.77116(9) 0.3736(2) 0.44659(11)
O2_2 O 0.79069(9) 0.0877(2) 0.49279(11)
O5_2 O 0.78112(10) 0.4665(2) 0.36587(12)
O6_2 O 0.77612(11) 0.6388(2) 0.46550(14)
H1_2 H 0.7970 0.6756 0.5058
H2_2 H 0.7748 0.5575 0.4753
O7_2 O 0.85743(10) 0.1320(3) 0.48146(14)
H3_2 H 0.6385 0.2328 0.1444
H4_2 H 0.6326 0.0886 0.1389
N3_2 N 0.88168(11) 0.5980(3) 0.49827(14)
C1_2 C 0.81039(12) 0.1120(3) 0.45679(15)
C2_2 C 0.77002(12) 0.1206(3) 0.37662(15)
C3_2 C 0.75010(12) 0.0073(3) 0.33311(14)
C5_2 C 0.71169(12) 0.0189(3) 0.26023(15)
C6_2 C 0.69342(12) 0.1442(3) 0.22923(15)
C7_2 C 0.71299(13) 0.2571(3) 0.27143(16)
H6_2 H 0.7012 0.3410 0.2508
C8_2 C 0.75038(12) 0.2458(3) 0.34496(15)
C9_2 C 0.76885(12) 0.3704(3) 0.38926(15)
C10_2 C 0.89590(15) 0.4708(4) 0.5188(2)
H7_2 H 0.8735 0.4030 0.4887
C11_2 C 0.94231(16) 0.4364(4) 0.5828(2)
H8_2 H 0.9510 0.3473 0.5958
C12_2 C 0.97534(15) 0.5368(4) 0.62671(19)
C13_2 C 0.96109(18) 0.6664(5) 0.6065(2)
H9_2 H 0.9830 0.7354 0.6360
C14_2 C 0.91412(16) 0.6946(4) 0.5423(2)
H10_2 H 0.9046 0.7834 0.5291
N6_2 N 0.82214(10) 0.3048(3) 0.59526(13)
N9_2 N 0.97537(15) 0.5134(4) 0.80576(19)
N10_2 N 0.96535(15) 0.3993(4) 0.78988(19)
C34_2 C 0.91551(15) 0.3746(4) 0.72212(19)
C35_2 C 0.90423(18) 0.2425(4) 0.7022(2)
H25_2 H 0.9277 0.1754 0.7313
C36_2 C 0.85753(15) 0.2120(4) 0.63831(18)
H26_2 H 0.8502 0.1229 0.6244
C37_2 C 0.83358(13) 0.4327(3) 0.61646(17)
H27_2 H 0.8090 0.4980 0.5873
C38_2 C 0.87964(15) 0.4723(4) 0.67895(19)
H28_2 H 0.8864 0.5620 0.6917
O15_3 O 0.72884(9) 0.1264(2) 0.55341(11)
O16_3 O 0.70931(9) 0.4123(2) 0.50721(11)
N11_3 N 0.67786(10) 0.1952(3) 0.40474(13)
O17_2 O 0.81536(10) 0.8575(2) 0.42080(13)
O19_2 O 0.74349(9) 0.7687(2) 0.32854(12)
C4_2 C 0.77029(13) 0.8709(3) 0.36269(15)
H5_2 H 0.6982 0.9426 0.2321
N11_4 N 0.32214(10) 0.1952(3) 0.09526(13)
O15_4 O 0.27116(9) 0.1264(2) 0.94659(11)
O16_4 O 0.29069(9) 0.4123(2) 0.99279(11)
O3 O 0.68464(10) 0.6425(2) 0.57920(13)
O4 O 0.75651(9) 0.7313(2) 0.67146(12)
O5_3 O 0.71888(10) 0.0335(2) 0.63413(12)
O7_3 O 0.64257(10) 0.3680(3) 0.51854(14)
N2_2 N 0.84353(11) 0.3445(3) 0.84610(13)
H3_3 H 0.8615 0.2672 0.8556
H4_3 H 0.8674 0.4114 0.8611
C1_3 C 0.68961(12) 0.3880(3) 0.54321(15)
C2_3 C 0.72998(12) 0.3794(3) 0.62338(15)
C3_3 C 0.74990(12) 0.4927(3) 0.66689(14)
C4_3 C 0.72971(13) 0.6291(3) 0.63731(15)
C5_3 C 0.78831(12) 0.4811(3) 0.73977(15)
H5_3 H 0.8018 0.5574 0.7679
C6_3 C 0.80658(12) 0.3558(3) 0.77077(15)
C7_3 C 0.78701(13) 0.2429(3) 0.72857(16)
H6_3 H 0.7988 0.1590 0.7492
C8_3 C 0.74962(12) 0.2542(3) 0.65504(15)
C9_3 C 0.73115(12) 0.1296(3) 0.61074(15)
C10_3 C 0.60410(15) 0.0292(4) 0.4812(2)
H7_3 H 0.6265 0.0970 0.5113
C11_3 C 0.55769(16) 0.0636(4) 0.4172(2)
H8_3 H 0.5490 0.1527 0.4042
N5_3 N 0.46535(15) 0.1007(4) 0.28988(19)
C15_3 C 0.41551(15) 0.1254(4) 0.22212(19)
C16_3 C 0.40423(18) 0.2575(4) 0.2022(2)
H11_3 H 0.4277 0.3246 0.2313
C17_3 C 0.35753(15) 0.2880(4) 0.13831(18)
H12_3 H 0.3502 0.3771 0.1244
C18_3 C 0.33358(13) 0.0673(3) 0.11646(17)
H13_3 H 0.3090 0.0020 0.0873
C19_3 C 0.37964(15) 0.0277(4) 0.17895(19)
C29_3 C 0.39590(15) 0.0292(4) 0.0188(2)
C30_3 C 0.44231(16) 0.0636(4) 0.0828(2)
H22_3 H 0.4510 0.1527 0.0958
N10_3 N 0.53465(15) 0.1007(4) 0.21012(19)
C34_3 C 0.58449(15) 0.1254(4) 0.27788(19)
C35_3 C 0.59577(18) 0.2575(4) 0.2978(2)
H25_3 H 0.5723 0.3246 0.2687
C36_3 C 0.64247(15) 0.2880(4) 0.36169(18)
H26_3 H 0.6498 0.3771 0.3756
C37_3 C 0.66642(13) 0.0673(3) 0.38354(17)
H27_3 H 0.6910 0.0020 0.4127
C38_3 C 0.62036(15) 0.0277(4) 0.32105(19)
Ni5 Ni 0.690666(16) 0.84998(3) 0.593677(19)
Ni8_2 Ni 0.809334(16) 0.34998(3) 0.906323(19)
O10 O 0.31536(10) 0.6425(2) 0.92080(13)
O11 O 0.24349(9) 0.7313(2) 0.82854(12)
O12_3 O 0.28112(10) 0.0335(2) 0.86587(12)
O14_3 O 0.35743(10) 0.3680(3) 0.98146(14)
N7_2 N 0.15647(11) 0.3445(3) 0.65390(13)
H17_3 H 0.1385 0.2672 0.6444
H18_3 H 0.1326 0.4114 0.6389
C20_3 C 0.31039(12) 0.3880(3) 0.95679(15)
C21_3 C 0.27002(12) 0.3794(3) 0.87662(15)
C22_3 C 0.25010(12) 0.4927(3) 0.83311(14)
C23_3 C 0.27029(13) 0.6291(3) 0.86269(15)
C24_3 C 0.21169(12) 0.4811(3) 0.76023(15)
H19_3 H 0.1982 0.5574 0.7321
C25_3 C 0.19342(12) 0.3558(3) 0.72923(15)
C26_3 C 0.21299(13) 0.2429(3) 0.77143(16)
H20_3 H 0.2012 0.1590 0.7508
C27_3 C 0.25038(12) 0.2542(3) 0.84496(15)
C28_3 C 0.26885(12) 0.1296(3) 0.88926(15)
H21_3 H 0.3735 0.0970 0.9887
Ni6 Ni 0.309334(16) 0.84998(3) 0.906323(19)
Ni7_2 Ni 0.190666(16) 0.34998(3) 0.593677(19)
O6_3 O 0.72388(11) 0.8612(2) 0.53450(14)
H1_3 H 0.7030 0.8244 0.4942
H2_3 H 0.7252 0.9425 0.5247
N3_3 N 0.61832(11) 0.9020(3) 0.50173(14)
C12_3 C 0.52466(15) 0.9632(4) 0.37329(19)
C13_3 C 0.53891(18) 0.8336(5) 0.3935(2)
H9_3 H 0.5170 0.7646 0.3640
C14_3 C 0.58588(16) 0.8054(4) 0.4577(2)
H10_3 H 0.5954 0.7166 0.4709
N4_3 N 0.47537(15) 0.9866(4) 0.30576(19)
H14_3 H 0.3864 0.9380 0.1917
H15_3 H 0.2970 0.8244 0.0058
C31_3 C 0.47534(15) 0.9632(4) 0.12671(19)
C32_3 C 0.46109(18) 0.8336(5) 0.1065(2)
H23_3 H 0.4830 0.7646 0.1360
C33_3 C 0.41412(16) 0.8054(4) 0.0423(2)
H24_3 H 0.4046 0.7166 0.0291
N9_3 N 0.52463(15) 0.9866(4) 0.19424(19)
H28_3 H 0.6136 0.9380 0.3083
N13_2 N 0.65647(11) 0.8445(3) 0.65390(13)
O13_3 O 0.27612(11) 0.8612(2) 0.96550(14)
H16_3 H 0.2748 0.9425 0.9753
N8_3 N 0.38168(11) 0.9020(3) 0.99827(14)
N12_2 N 0.34353(11) 0.8445(3) 0.84610(13)
O3_2 O 0.18464(10) 0.1425(2) 0.57920(13)
O4_2 O 0.25651(9) 0.2313(2) 0.67146(12)
C4_4 C 0.22971(13) 0.1291(3) 0.63731(15)
H5_4 H 0.3018 0.0574 0.7679
O5_4 O 0.21888(10) 0.5335(2) 0.63413(12)
O6_4 O 0.22388(11) 0.3612(2) 0.53450(14)
H1_4 H 0.2030 0.3244 0.4942
H2_4 H 0.2252 0.4425 0.5247
O7_4 O 0.14257(10) 0.8680(3) 0.51854(14)
H3_4 H 0.3615 0.7672 0.8556
H4_4 H 0.3674 0.9114 0.8611
N3_4 N 0.11832(11) 0.4020(3) 0.50173(14)
C1_4 C 0.18961(12) 0.8880(3) 0.54321(15)
C2_4 C 0.22998(12) 0.8794(3) 0.62338(15)
C3_4 C 0.24990(12) 0.9927(3) 0.66689(14)
C5_4 C 0.28831(12) 0.9811(3) 0.73977(15)
C6_4 C 0.30658(12) 0.8558(3) 0.77077(15)
C7_4 C 0.28701(13) 0.7429(3) 0.72857(16)
H6_4 H 0.2988 0.6590 0.7492
C8_4 C 0.24962(12) 0.7542(3) 0.65504(15)
C9_4 C 0.23115(12) 0.6296(3) 0.61074(15)
C10_4 C 0.10410(15) 0.5292(4) 0.4812(2)
H7_4 H 0.1265 0.5970 0.5113
C11_4 C 0.05769(16) 0.5636(4) 0.4172(2)
H8_4 H 0.0490 0.6527 0.4042
C12_4 C 0.02466(15) 0.4632(4) 0.37329(19)
C13_4 C 0.03891(18) 0.3336(5) 0.3935(2)
H9_4 H 0.0170 0.2646 0.3640
C14_4 C 0.08588(16) 0.3054(4) 0.4577(2)
H10_4 H 0.0954 0.2166 0.4709
N9_4 N 0.02463(15) 0.4866(4) 0.19424(19)
N10_4 N 0.03465(15) 0.6007(4) 0.21012(19)
C34_4 C 0.08449(15) 0.6254(4) 0.27788(19)
C35_4 C 0.09577(18) 0.7575(4) 0.2978(2)
H25_4 H 0.0723 0.8246 0.2687
C36_4 C 0.14247(15) 0.7880(4) 0.36169(18)
H26_4 H 0.1498 0.8771 0.3756
C37_4 C 0.16642(13) 0.5673(3) 0.38354(17)
H27_4 H 0.1910 0.5020 0.4127
C38_4 C 0.12036(15) 0.5277(4) 0.32105(19)
H28_4 H 0.1136 0.4380 0.3083
O10_2 O 0.81536(10) 0.1425(2) 0.92080(13)
O11_2 O 0.74349(9) 0.2313(2) 0.82854(12)
C23_4 C 0.77029(13) 0.1291(3) 0.86269(15)
H19_4 H 0.6982 0.0574 0.7321
N4_4 N 0.97537(15) 0.4866(4) 0.30576(19)
N5_4 N 0.96535(15) 0.6007(4) 0.28988(19)
C15_4 C 0.91551(15) 0.6254(4) 0.22212(19)
C16_4 C 0.90423(18) 0.7575(4) 0.2022(2)
H11_4 H 0.9277 0.8246 0.2313
C17_4 C 0.85753(15) 0.7880(4) 0.13831(18)
H12_4 H 0.8502 0.8771 0.1244
C18_4 C 0.83358(13) 0.5673(3) 0.11646(17)
H13_4 H 0.8090 0.5020 0.0873
C19_4 C 0.87964(15) 0.5277(4) 0.17895(19)
H14_4 H 0.8864 0.4380 0.1917
H15_4 H 0.7970 0.3244 0.0058
C29_4 C 0.89590(15) 0.5292(4) 0.0188(2)
C30_4 C 0.94231(16) 0.5636(4) 0.0828(2)
H22_4 H 0.9510 0.6527 0.0958
C31_4 C 0.97534(15) 0.4632(4) 0.12671(19)
C32_4 C 0.96109(18) 0.3336(5) 0.1065(2)
H23_4 H 0.9830 0.2646 0.1360
C33_4 C 0.91412(16) 0.3054(4) 0.0423(2)
H24_4 H 0.9046 0.2166 0.0291
O12_4 O 0.78112(10) 0.5335(2) 0.86587(12)
O13_4 O 0.77612(11) 0.3612(2) 0.96550(14)
H16_4 H 0.7748 0.4425 0.9753
O14_4 O 0.85743(10) 0.8680(3) 0.98146(14)
H17_4 H 0.6385 0.7672 0.6444
H18_4 H 0.6326 0.9114 0.6389
N8_4 N 0.88168(11) 0.4020(3) 0.99827(14)
C20_4 C 0.81039(12) 0.8880(3) 0.95679(15)
C21_4 C 0.77002(12) 0.8794(3) 0.87662(15)
C22_4 C 0.75010(12) 0.9927(3) 0.83311(14)
C24_4 C 0.71169(12) 0.9811(3) 0.76023(15)
C25_4 C 0.69342(12) 0.8558(3) 0.72923(15)
C26_4 C 0.71299(13) 0.7429(3) 0.77143(16)
H20_4 H 0.7012 0.6590 0.7508
C27_4 C 0.75038(12) 0.7542(3) 0.84496(15)
C28_4 C 0.76885(12) 0.6296(3) 0.88926(15)
H21_4 H 0.8735 0.5970 0.9887
loop_
_geom_bond_atom_site_label_1
_geom_bond_atom_site_label_2
_geom_bond_site_symmetry_1
_geom_bond_site_symmetry_2
O13 Ni3 1_555 1_555
H16 O13 1_555 1_555
N8 Ni3 1_555 1_555
O18 Ni3 1_555 1_555
O20 Ni3 1_555 1_555
N12 Ni3 1_555 1_555
O6 Ni2 1_555 1_555
H1 O6 1_555 1_555
H2 O6 1_555 1_555
N3 Ni2 1_555 1_555
C13 C12 1_555 1_555
H9 C13 1_555 1_555
C14 N3 1_555 1_555
H10 C14 1_555 1_555
N4 C12 1_555 1_555
C32 C31 1_555 1_555
H23 C32 1_555 1_555
H24 C33 1_555 1_555
N9 C31 1_555 1_555
O17 Ni2 1_555 1_555
O19 Ni2 1_555 1_555
N13 Ni2 1_555 1_555
C13 C14 1_555 1_555
C32 C33 1_555 1_555
O8 C28 1_555 1_555
O9 C20 1_555 1_555
O18 C23 1_555 1_555
O20 C23 1_555 1_555
O12 C28 1_555 1_555
O14 C20 1_555 1_555
N7 H17 1_555 1_555
H18 N7 1_555 1_555
C20 C21 1_555 1_555
C21 C22 1_555 1_555
C22 C23 1_555 1_555
C24 C22 1_555 1_555
H19 C24 1_555 1_555
C25 N7 1_555 1_555
C26 C25 1_555 1_555
H20 C26 1_555 1_555
C27 C21 1_555 1_555
C28 C27 1_555 1_555
Ni7 N7 1_555 1_555
O8 Ni4 1_555 1_555
O9 Ni4 1_555 1_555
C24 C25 1_555 1_555
C26 C27 1_555 1_555
Ni1 O1 1_555 1_555
O1 C9 1_555 1_555
O2 Ni1 1_555 1_555
N1 C17 1_555 1_555
O17 C4 1_555 1_555
O19 C4 1_555 1_555
O5 C9 1_555 1_555
O7 C1 1_555 1_555
N2 H3 1_555 1_555
H4 N2 1_555 1_555
C1 O2 1_555 1_555
C2 C1 1_555 1_555
C3 C2 1_555 1_555
C4 C3 1_555 1_555
C5 C3 1_555 1_555
H5 C5 1_555 1_555
C6 N2 1_555 1_555
C7 C6 1_555 1_555
H6 C7 1_555 1_555
C8 C2 1_555 1_555
C9 C8 1_555 1_555
H7 C10 1_555 1_555
C11 C10 1_555 1_555
H8 C11 1_555 1_555
C15 N5 1_555 1_555
C16 C15 1_555 1_555
H11 C16 1_555 1_555
C17 C16 1_555 1_555
H12 C17 1_555 1_555
C18 N1 1_555 1_555
H13 C18 1_555 1_555
C19 C15 1_555 1_555
N6 Ni1 1_555 1_555
C30 C29 1_555 1_555
H22 C30 1_555 1_555
C34 N10 1_555 1_555
C35 C34 1_555 1_555
H25 C35 1_555 1_555
C36 N6 1_555 1_555
H26 C36 1_555 1_555
C37 N6 1_555 1_555
H27 C37 1_555 1_555
C38 C34 1_555 1_555
Ni4_2 N1 1_555 1_555
Ni8 N2 1_555 1_555
O15 Ni1 1_555 1_555
O16 Ni1 1_555 1_555
N11 Ni1 1_555 1_555
C5 C6 1_555 1_555
C7 C8 1_555 1_555
C18 C19 1_555 1_555
C35 C36 1_555 1_555
C37 C38 1_555 1_555
N11_2 Ni4 1_555 1_555
O15_2 Ni4_2 1_555 1_555
O16_2 Ni4_2 1_555 1_555
Ni8 O12_2 1_555 1_555
O8_2 C28_2 1_555 1_555
O9_2 C20_2 1_555 1_555
O12_2 C28_2 1_555 1_555
O13_2 Ni8 1_555 1_555
H16_2 O13_2 1_555 1_555
O14_2 C20_2 1_555 1_555
N13 H17_2 1_555 1_555
H18_2 N13 1_555 1_555
N8_2 Ni8 1_555 1_555
C20_2 C21_2 1_555 1_555
C21_2 C22_2 1_555 1_555
C24_2 C22_2 1_555 1_555
C25_2 N13 1_555 1_555
C26_2 C25_2 1_555 1_555
H20_2 C26_2 1_555 1_555
C27_2 C21_2 1_555 1_555
C28_2 C27_2 1_555 1_555
O18_2 Ni8 1_555 1_555
O20_2 Ni8 1_555 1_555
O8_2 Ni4_3 1_555 1_555
O9_2 Ni4_3 1_555 1_555
C24_2 C25_2 1_555 1_555
C26_2 C27_2 1_555 1_555
N1_2 C17_2 1_555 1_555
N5_2 N4_2 1_555 1_555
C15_2 N5_2 1_555 1_555
C16_2 C15_2 1_555 1_555
H11_2 C16_2 1_555 1_555
C17_2 C16_2 1_555 1_555
H12_2 C17_2 1_555 1_555
C18_2 N1_2 1_555 1_555
H13_2 C18_2 1_555 1_555
C19_2 C15_2 1_555 1_555
H14_2 C19_2 1_555 1_555
C30_2 C29_2 1_555 1_555
H22_2 C30_2 1_555 1_555
C31_2 C30_2 1_555 1_555
C32_2 C31_2 1_555 1_555
H23_2 C32_2 1_555 1_555
H24_2 C33_2 1_555 1_555
Ni4_4 N1_2 1_555 1_555
C18_2 C19_2 1_555 1_555
C32_2 C33_2 1_555 1_555
O18_2 C23_2 1_555 1_555
O20_2 C23_2 1_555 1_555
Ni1_2 O1_2 1_555 1_555
Ni7 O5_2 1_555 1_555
O1_2 C9_2 1_555 1_555
O2_2 Ni1_2 1_555 1_555
O5_2 C9_2 1_555 1_555
O6_2 Ni7 1_555 1_555
H1_2 O6_2 1_555 1_555
H2_2 O6_2 1_555 1_555
O7_2 C1_2 1_555 1_555
N12 H3_2 1_555 1_555
H4_2 N12 1_555 1_555
N3_2 Ni7 1_555 1_555
C1_2 O2_2 1_555 1_555
C2_2 C1_2 1_555 1_555
C3_2 C2_2 1_555 1_555
C5_2 C3_2 1_555 1_555
C6_2 N12 1_555 1_555
C7_2 C6_2 1_555 1_555
H6_2 C7_2 1_555 1_555
C8_2 C2_2 1_555 1_555
C9_2 C8_2 1_555 1_555
C10_2 N3_2 1_555 1_555
H7_2 C10_2 1_555 1_555
C11_2 C10_2 1_555 1_555
H8_2 C11_2 1_555 1_555
C12_2 C11_2 1_555 1_555
C13_2 C12_2 1_555 1_555
H9_2 C13_2 1_555 1_555
C14_2 N3_2 1_555 1_555
H10_2 C14_2 1_555 1_555
N6_2 Ni1_2 1_555 1_555
N10_2 N9_2 1_555 1_555
C34_2 N10_2 1_555 1_555
C35_2 C34_2 1_555 1_555
H25_2 C35_2 1_555 1_555
C36_2 N6_2 1_555 1_555
H26_2 C36_2 1_555 1_555
C37_2 N6_2 1_555 1_555
H27_2 C37_2 1_555 1_555
C38_2 C34_2 1_555 1_555
H28_2 C38_2 1_555 1_555
O15_3 Ni1_2 1_555 1_555
O16_3 Ni1_2 1_555 1_555
N11_3 Ni1_2 1_555 1_555
O17_2 Ni7 1_555 1_555
O19_2 Ni7 1_555 1_555
C5_2 C6_2 1_555 1_555
C7_2 C8_2 1_555 1_555
C13_2 C14_2 1_555 1_555
C35_2 C36_2 1_555 1_555
C37_2 C38_2 1_555 1_555
O17_2 C4_2 1_555 1_555
O19_2 C4_2 1_555 1_555
N11_4 Ni4_3 1_555 1_555
O15_4 Ni4_4 1_555 1_555
O16_4 Ni4_4 1_555 1_555
O15_3 C9_3 1_555 1_555
N11_4 C17_3 1_555 1_555
O3 C4_3 1_555 1_555
O4 C4_3 1_555 1_555
O5_3 C9_3 1_555 1_555
O7_3 C1_3 1_555 1_555
N2_2 H3_3 1_555 1_555
H4_3 N2_2 1_555 1_555
C1_3 O16_3 1_555 1_555
C2_3 C1_3 1_555 1_555
C3_3 C2_3 1_555 1_555
C4_3 C3_3 1_555 1_555
C5_3 C3_3 1_555 1_555
H5_3 C5_3 1_555 1_555
C6_3 N2_2 1_555 1_555
C7_3 C6_3 1_555 1_555
H6_3 C7_3 1_555 1_555
C8_3 C2_3 1_555 1_555
C9_3 C8_3 1_555 1_555
H7_3 C10_3 1_555 1_555
C11_3 C10_3 1_555 1_555
H8_3 C11_3 1_555 1_555
C15_3 N5_3 1_555 1_555
C16_3 C15_3 1_555 1_555
H11_3 C16_3 1_555 1_555
C17_3 C16_3 1_555 1_555
H12_3 C17_3 1_555 1_555
C18_3 N11_4 1_555 1_555
H13_3 C18_3 1_555 1_555
C19_3 C15_3 1_555 1_555
C30_3 C29_3 1_555 1_555
H22_3 C30_3 1_555 1_555
C34_3 N10_3 1_555 1_555
C35_3 C34_3 1_555 1_555
H25_3 C35_3 1_555 1_555
C36_3 N11_3 1_555 1_555
H26_3 C36_3 1_555 1_555
C37_3 N11_3 1_555 1_555
H27_3 C37_3 1_555 1_555
C38_3 C34_3 1_555 1_555
Ni5 O3 1_555 1_555
Ni8_2 N2_2 1_555 1_555
O4 Ni5 1_555 1_555
C5_3 C6_3 1_555 1_555
C7_3 C8_3 1_555 1_555
C18_3 C19_3 1_555 1_555
C35_3 C36_3 1_555 1_555
C37_3 C38_3 1_555 1_555
O15_4 C28_3 1_555 1_555
O16_4 C20_3 1_555 1_555
O10 C23_3 1_555 1_555
O11 C23_3 1_555 1_555
O12_3 C28_3 1_555 1_555
O14_3 C20_3 1_555 1_555
N7_2 H17_3 1_555 1_555
H18_3 N7_2 1_555 1_555
C20_3 C21_3 1_555 1_555
C21_3 C22_3 1_555 1_555
C22_3 C23_3 1_555 1_555
C24_3 C22_3 1_555 1_555
H19_3 C24_3 1_555 1_555
C25_3 N7_2 1_555 1_555
C26_3 C25_3 1_555 1_555
H20_3 C26_3 1_555 1_555
C27_3 C21_3 1_555 1_555
C28_3 C27_3 1_555 1_555
Ni6 O10 1_555 1_555
Ni7_2 N7_2 1_555 1_555
O11 Ni6 1_555 1_555
C24_3 C25_3 1_555 1_555
C26_3 C27_3 1_555 1_555
O6_3 Ni5 1_555 1_555
H1_3 O6_3 1_555 1_555
H2_3 O6_3 1_555 1_555
N3_3 Ni5 1_555 1_555
C13_3 C12_3 1_555 1_555
H9_3 C13_3 1_555 1_555
C14_3 N3_3 1_555 1_555
H10_3 C14_3 1_555 1_555
N4_3 C12_3 1_555 1_555
C32_3 C31_3 1_555 1_555
H23_3 C32_3 1_555 1_555
H24_3 C33_3 1_555 1_555
N9_3 C31_3 1_555 1_555
N13_2 Ni5 1_555 1_555
C13_3 C14_3 1_555 1_555
C32_3 C33_3 1_555 1_555
O13_3 Ni6 1_555 1_555
H16_3 O13_3 1_555 1_555
N8_3 Ni6 1_555 1_555
N12_2 Ni6 1_555 1_555
O3_2 C4_4 1_555 1_555
O4_2 C4_4 1_555 1_555
Ni7_2 O3_2 1_555 1_555
O4_2 Ni7_2 1_555 1_555
Ni7_2 O5_4 1_555 1_555
O15 C9_4 1_555 1_555
O5_4 C9_4 1_555 1_555
O6_4 Ni7_2 1_555 1_555
H1_4 O6_4 1_555 1_555
H2_4 O6_4 1_555 1_555
O7_4 C1_4 1_555 1_555
N12_2 H3_4 1_555 1_555
H4_4 N12_2 1_555 1_555
N3_4 Ni7_2 1_555 1_555
C1_4 O16 1_555 1_555
C2_4 C1_4 1_555 1_555
C3_4 C2_4 1_555 1_555
C5_4 C3_4 1_555 1_555
C6_4 N12_2 1_555 1_555
C7_4 C6_4 1_555 1_555
H6_4 C7_4 1_555 1_555
C8_4 C2_4 1_555 1_555
C9_4 C8_4 1_555 1_555
C10_4 N3_4 1_555 1_555
H7_4 C10_4 1_555 1_555
C11_4 C10_4 1_555 1_555
H8_4 C11_4 1_555 1_555
C12_4 C11_4 1_555 1_555
C13_4 C12_4 1_555 1_555
H9_4 C13_4 1_555 1_555
C14_4 N3_4 1_555 1_555
H10_4 C14_4 1_555 1_555
N10_4 N9_4 1_555 1_555
C34_4 N10_4 1_555 1_555
C35_4 C34_4 1_555 1_555
H25_4 C35_4 1_555 1_555
C36_4 N11 1_555 1_555
H26_4 C36_4 1_555 1_555
C37_4 N11 1_555 1_555
H27_4 C37_4 1_555 1_555
C38_4 C34_4 1_555 1_555
H28_4 C38_4 1_555 1_555
C5_4 C6_4 1_555 1_555
C7_4 C8_4 1_555 1_555
C13_4 C14_4 1_555 1_555
C35_4 C36_4 1_555 1_555
C37_4 C38_4 1_555 1_555
O10_2 C23_4 1_555 1_555
O11_2 C23_4 1_555 1_555
Ni8_2 O10_2 1_555 1_555
O11_2 Ni8_2 1_555 1_555
N11_2 C17_4 1_555 1_555
N5_4 N4_4 1_555 1_555
C15_4 N5_4 1_555 1_555
C16_4 C15_4 1_555 1_555
H11_4 C16_4 1_555 1_555
C17_4 C16_4 1_555 1_555
H12_4 C17_4 1_555 1_555
C18_4 N11_2 1_555 1_555
H13_4 C18_4 1_555 1_555
C19_4 C15_4 1_555 1_555
H14_4 C19_4 1_555 1_555
C30_4 C29_4 1_555 1_555
H22_4 C30_4 1_555 1_555
C31_4 C30_4 1_555 1_555
C32_4 C31_4 1_555 1_555
H23_4 C32_4 1_555 1_555
H24_4 C33_4 1_555 1_555
C18_4 C19_4 1_555 1_555
C32_4 C33_4 1_555 1_555
Ni8_2 O12_4 1_555 1_555
O15_2 C28_4 1_555 1_555
O16_2 C20_4 1_555 1_555
O12_4 C28_4 1_555 1_555
O13_4 Ni8_2 1_555 1_555
H16_4 O13_4 1_555 1_555
O14_4 C20_4 1_555 1_555
N13_2 H17_4 1_555 1_555
H18_4 N13_2 1_555 1_555
N8_4 Ni8_2 1_555 1_555
C20_4 C21_4 1_555 1_555
C21_4 C22_4 1_555 1_555
C24_4 C22_4 1_555 1_555
C25_4 N13_2 1_555 1_555
C26_4 C25_4 1_555 1_555
H20_4 C26_4 1_555 1_555
C27_4 C21_4 1_555 1_555
C28_4 C27_4 1_555 1_555
C24_4 C25_4 1_555 1_555
C26_4 C27_4 1_555 1_555

#END
