
###############################################################################
#
# This file contains modified crystal structure data generated from the
# MOF subset of the Cambridge Structural Database (CSD) v543 
# hosted by the Cambridge Crystallographic Data Centre (CCDC).
#
# This work is licensed under the Creative Commons
# Attribution-NonCommercial-ShareAlike 4.0 International License.
# To view a copy of this license, visit
# http://creativecommons.org/licenses/by-nc-sa/4.0/
# or send a letter to
# Creative Commons, PO Box 1866, Mountain View, CA 94042, USA.
#
# CIF created using the CSD Python API on 29 September 2022
# The structure has been converted into the P1 space group
# The structure has a 3D framework
# The original CSD entry CIMTAV is in the orthorhombic crystal system
# The framework has been calculated to contain at least 10.0% void space
# The void calculation uses a probe of radius 1.32A, grid spacing 0.4
# The framework is charged, counterions have been retained in the structure
# H atom positions have been added when not included in the experimental data
# Generated hydrogen atom positions removed from atoms on special positions
#
###############################################################################

data_CIMTAV
_chemical_formula_moiety         '(C596 H784 B16 La16 N24 O132 2+)n'
_symmetry_cell_setting           triclinic
_symmetry_space_group_name_H-M   'P 1'
_symmetry_Int_Tables_number      1
_space_group_name_Hall           'P 1'
loop_
_symmetry_equiv_pos_site_id
_symmetry_equiv_pos_as_xyz
1 x,y,z
_cell_length_a                   37.927(3)
_cell_length_b                   27.1472(19)
_cell_length_c                   18.4835(12)
_cell_angle_alpha                90
_cell_angle_beta                 90
_cell_angle_gamma                90
_cell_volume                     19030.8
loop_
_atom_site_label
_atom_site_type_symbol
_atom_site_fract_x
_atom_site_fract_y
_atom_site_fract_z
H136 H 0.0491 0.0002 0.2094
H137 H 0.0282 0.0056 0.1367
C125 C 0.03053(16) 0.1011(2) 0.2001(4)
H138 H 0.0275 0.1356 0.2092
H139 H 0.0317 0.0954 0.1489
H140 H 0.0520 0.0900 0.2224
La1 La 0.023392(16) 0.74087(2) 0.62619(3)
C8 C 0.0110(2) 0.7082(2) 0.3983(4)
H1 H 0.0072 0.7234 0.4446
H2 H 0.0042 0.7306 0.3606
H3 H 0.0355 0.7000 0.3932
C9 C 0.01859(19) 0.6458(3) 0.2747(4)
H4 H 0.0307 0.6750 0.2903
H5 H 0.0079 0.6516 0.2284
H6 H 0.0351 0.6191 0.2709
C18 C 0.02702(18) 0.5060(2) 0.3144(4)
H13 H 0.0224 0.5408 0.3144
H14 H 0.0491 0.4998 0.2906
H15 H 0.0282 0.4944 0.3633
C19 C 0.03053(16) 0.3989(2) 0.2999(4)
H16 H 0.0275 0.3644 0.2908
H17 H 0.0317 0.4046 0.3511
H18 H 0.0520 0.4100 0.2776
C29 C 0.01484(19) 0.5427(2) 0.1136(3)
H25 H 0.0124 0.5243 0.1576
H26 H 0.0381 0.5567 0.1111
H27 H 0.0112 0.5212 0.0730
C70 C 0.0355(6) 0.5530(8) 0.5172(13)
H73 H 0.0403 0.5344 0.4742
H74 H 0.0110 0.5622 0.5181
H75 H 0.0408 0.5334 0.5590
C71 C 0.0758(6) 0.6106(8) 0.4584(12)
H76 H 0.0756 0.5849 0.4227
H77 H 0.0996 0.6173 0.4728
H78 H 0.0655 0.6398 0.4382
C72 C 0.0529(5) 0.6293(8) 0.5795(10)
H79 H 0.0404 0.6190 0.6201
O13 O 0.0661(3) 0.6712(5) 0.5786(7)
N1 N 0.0565(4) 0.5959(6) 0.5177(8)
C114 C 0.0110(2) 0.7918(2) 0.1017(4)
H123 H 0.0072 0.7766 0.0554
H124 H 0.0042 0.7694 0.1394
H125 H 0.0355 0.8000 0.1068
C115 C 0.01859(19) 0.8542(3) 0.2253(4)
H126 H 0.0307 0.8250 0.2097
H127 H 0.0079 0.8484 0.2716
H128 H 0.0351 0.8809 0.2291
C124 C 0.02702(18) 0.9940(2) 0.1856(4)
H135 H 0.0224 0.9592 0.1856
C135 C 0.01484(19) 0.9573(2) 0.3864(3)
H147 H 0.0124 0.9757 0.3424
H148 H 0.0381 0.9433 0.3889
H149 H 0.0112 0.9788 0.4270
C136 C 0.00844(14) 0.8989(2) 0.5172(3)
H150 H 0.0053 0.8738 0.5533
H151 H 0.0003 0.9299 0.5357
H152 H 0.0330 0.9014 0.5050
H159 H 0.0403 0.9656 0.0258
C141 C 0.0758(6) 0.8894(8) 0.0416(12)
H162 H 0.0756 0.9151 0.0773
H163 H 0.0996 0.8827 0.0272
H164 H 0.0655 0.8602 0.0618
La5 La 0.023392(16) 0.75913(2) 0.87381(3)
O34 O 0.0276(3) 0.6782(3) 0.7192(6)
O37 O 0.0208(3) 0.8277(3) 0.6631(6)
O39 O 0.0823(2) 0.7601(3) 0.6917(4)
O42 O 0.0690(3) 0.7692(5) 0.5327(5)
C30 C 0.00844(14) 0.6011(2) 0.9828(3)
H28 H 0.0053 0.6262 0.9467
H29 H 0.0003 0.5701 0.9643
H30 H 0.0330 0.5986 0.9950
C140 C 0.0355(6) 0.9470(8) 0.9828(13)
H160 H 0.0110 0.9378 0.9819
H161 H 0.0408 0.9666 0.9410
C142 C 0.0529(5) 0.8707(8) 0.9205(10)
H165 H 0.0404 0.8810 0.8799
O31 O 0.0661(3) 0.8288(5) 0.9214(7)
N3 N 0.0565(4) 0.9041(6) 0.9823(8)
O35 O 0.0276(3) 0.8218(3) 0.7808(6)
O36 O 0.0208(3) 0.6723(3) 0.8369(6)
O38 O 0.0823(2) 0.7399(3) 0.8083(4)
O41 O 0.0690(3) 0.7308(5) 0.9673(5)
C119 C 0.99691(13) 0.02128(16) 0.2265(3)
C120 C 0.99888(12) 0.07225(16) 0.2323(3)
C121 C 0.97337(13) 0.09784(14) 0.2710(3)
C122 C 0.94589(12) 0.07245(16) 0.3040(3)
C123 C 0.94392(13) 0.02147(16) 0.2982(3)
C126 C 0.91727(16) 0.1012(2) 0.3461(4)
H141 H 0.9226 0.1358 0.3448
H142 H 0.9168 0.0901 0.3954
H143 H 0.8947 0.0956 0.3241
H144 H 0.8978 0.0190 0.3582
C128 C 0.97498(19) 0.15372(14) 0.2760(5)
O27 O 0.9724(3) 0.1782(3) 0.2192(6)
O28 O 0.9792(3) 0.1723(3) 0.3369(6)
La7 La 0.976608(16) 0.25913(2) 0.37381(3)
La10 La 0.976608(16) 0.24087(2) 0.12619(3)
C66 C 0.6553(2) 0.7978(3) 0.0153(4)
H64 H 0.6747 0.8188 0.0028
H65 H 0.6617 0.7775 0.0558
H66 H 0.6353 0.8176 0.0279
C69 C 0.6000(2) 0.7244(4) 0.0256(3)
O11 O 0.6209(3) 0.7111(5) 0.0812(6)
O12 O 0.5690(3) 0.7308(5) 0.0327(5)
La12 La 0.523392(16) 0.75913(2) 0.12619(3)
La2 La 0.900568(17) 0.74851(3) 0.61948(4)
C1 C 0.9634(3) 0.6775(4) 0.5166(6)
C2 C 0.96486(15) 0.64738(19) 0.4475(3)
C3 C 0.98831(13) 0.66029(17) 0.3929(3)
C4 C 0.98994(13) 0.63246(18) 0.3299(3)
C5 C 0.96812(15) 0.59172(18) 0.3214(3)
C6 C 0.94467(13) 0.57881(16) 0.3760(3)
C7 C 0.94304(13) 0.60664(18) 0.4391(3)
C10 C 0.91702(19) 0.5382(2) 0.3644(4)
H7 H 0.9213 0.5221 0.3190
H8 H 0.8939 0.5526 0.3640
H9 H 0.9186 0.5146 0.4030
C11 C 0.9190(2) 0.5902(3) 0.5029(3)
H10 H 0.9056 0.5617 0.4887
H11 H 0.9031 0.6165 0.5152
H12 H 0.9333 0.5822 0.5441
C12 C 0.96943(15) 0.50411(14) 0.2406(3)
C13 C 0.99691(13) 0.47872(16) 0.2735(3)
C14 C 0.99888(12) 0.42775(16) 0.2677(3)
C15 C 0.97337(13) 0.40216(14) 0.2290(3)
C16 C 0.94589(12) 0.42755(16) 0.1960(3)
C17 C 0.94392(13) 0.47853(16) 0.2018(3)
C20 C 0.91727(16) 0.3988(2) 0.1539(4)
H19 H 0.9226 0.3642 0.1552
H20 H 0.9168 0.4099 0.1046
H21 H 0.8947 0.4044 0.1759
C21 C 0.91232(17) 0.5049(2) 0.1659(4)
H22 H 0.8978 0.4810 0.1418
H23 H 0.9208 0.5284 0.1313
H24 H 0.8987 0.5215 0.2023
C22 C 0.97498(19) 0.34628(14) 0.2240(5)
C23 C 0.96579(13) 0.59561(15) 0.1708(2)
C24 C 0.98713(13) 0.58447(16) 0.1119(2)
C25 C 0.98703(11) 0.61485(15) 0.0514(2)
C26 C 0.96560(12) 0.65637(15) 0.0498(2)
C27 C 0.94426(11) 0.66751(14) 0.1087(2)
C28 C 0.94436(11) 0.63713(14) 0.1692(2)
C31 C 0.92296(16) 0.71599(18) 0.1103(3)
H31 H 0.9255 0.7327 0.0649
H32 H 0.9316 0.7366 0.1485
H33 H 0.8985 0.7087 0.1185
C32 C 0.91649(12) 0.64764(19) 0.2278(2)
H34 H 0.9191 0.6245 0.2667
H35 H 0.8933 0.6445 0.2073
H36 H 0.9196 0.6805 0.2460
C34 C 0.8444(3) 0.7380(4) 0.5070(4)
C35 C 0.81811(9) 0.7341(2) 0.4463(2)
C36 C 0.82675(10) 0.7081(2) 0.3841(2)
C37 C 0.80515(11) 0.7109(2) 0.3235(2)
C38 C 0.77492(10) 0.73982(18) 0.3251(2)
C39 C 0.76628(10) 0.76590(16) 0.3873(2)
C40 C 0.78787(9) 0.76306(16) 0.4480(2)
C41 C 0.86110(12) 0.6767(3) 0.3804(3)
H37 H 0.8731 0.6783 0.4261
H38 H 0.8762 0.6894 0.3431
H39 H 0.8552 0.6431 0.3698
C42 C 0.81388(14) 0.6774(2) 0.2573(2)
H40 H 0.7970 0.6831 0.2196
H41 H 0.8130 0.6435 0.2717
H42 H 0.8371 0.6850 0.2398
C43 C 0.73338(12) 0.80142(17) 0.3917(2)
H43 H 0.7206 0.8002 0.3469
H44 H 0.7413 0.8345 0.4004
H45 H 0.7182 0.7912 0.4305
C44 C 0.77751(11) 0.78679(16) 0.5204(2)
H46 H 0.7563 0.8056 0.5142
H47 H 0.7962 0.8081 0.5365
H48 H 0.7736 0.7615 0.5558
C45 C 0.71137(12) 0.7500(2) 0.2500(2)
C46 C 0.69280(13) 0.7912(3) 0.2250(2)
C47 C 0.65615(13) 0.7921(3) 0.2258(3)
C48 C 0.63833(12) 0.7500(3) 0.2500(3)
C49 C 0.7135(4) 0.8371(6) 0.2002(9)
H49 H 0.6972 0.8621 0.1849
H50 H 0.7287 0.8284 0.1607
H51 H 0.7274 0.8493 0.2397
C50 C 0.6340(3) 0.8370(5) 0.2034(8)
H52 H 0.6494 0.8631 0.1881
H53 H 0.6201 0.8479 0.2438
H54 H 0.6187 0.8281 0.1642
C51 C 0.59785(12) 0.7500(4) 0.2500(3)
C52 C 0.83068(14) 0.7500(3) 0.7500(2)
C53 C 0.79076(14) 0.7500(2) 0.7500(2)
C54 C 0.77261(14) 0.7090(3) 0.7745(2)
C55 C 0.73560(14) 0.7093(3) 0.7766(2)
C56 C 0.71682(14) 0.7500(3) 0.7500(2)
C57 C 0.79335(16) 0.6625(3) 0.7978(2)
H55 H 0.8182 0.6686 0.7931
H56 H 0.7868 0.6353 0.7676
H57 H 0.7880 0.6549 0.8473
C58 C 0.71733(16) 0.6640(3) 0.8083(2)
H58 H 0.7348 0.6405 0.8234
H59 H 0.7024 0.6494 0.7723
H60 H 0.7033 0.6736 0.8492
C59 C 0.65463(17) 0.7425(3) 0.8255(3)
C60 C 0.66404(15) 0.7706(3) 0.8854(3)
C61 C 0.64599(16) 0.7648(2) 0.9503(3)
C62 C 0.61853(16) 0.7311(2) 0.9553(3)
C63 C 0.60912(16) 0.7031(2) 0.8954(3)
C64 C 0.62717(17) 0.7088(3) 0.8305(3)
C65 C 0.6918(2) 0.8118(4) 0.8820(5)
H61 H 0.7025 0.8122 0.8349
H62 H 0.7096 0.8060 0.9180
H63 H 0.6807 0.8429 0.8910
C67 C 0.5781(2) 0.6642(4) 0.9019(5)
H67 H 0.5686 0.6650 0.9500
H68 H 0.5870 0.6318 0.8918
H69 H 0.5599 0.6722 0.8677
C68 C 0.6157(3) 0.6756(4) 0.7665(4)
H70 H 0.5964 0.6551 0.7813
H71 H 0.6352 0.6552 0.7519
H72 H 0.6085 0.6958 0.7266
C73 C 0.9505(4) 0.7500 0.7500
O1 O 0.9906(2) 0.6793(3) 0.5552(5)
O2 O 0.9347(2) 0.6986(3) 0.5321(5)
O3 O 0.9724(3) 0.3218(3) 0.2808(6)
O4 O 0.9792(3) 0.3277(3) 0.1631(6)
O7 O 0.8528(3) 0.7001(4) 0.5419(5)
O8 O 0.8582(3) 0.7791(4) 0.5219(6)
O9 O 0.5823(2) 0.7399(3) 0.1917(4)
O10 O 0.8452(2) 0.7493(4) 0.6900(5)
O14 O 0.8910(3) 0.8393(4) 0.6644(6)
O15 O 0.9165(3) 0.7500 0.7500
O16 O 0.9657(2) 0.7461(3) 0.6890(4)
O17 O 0.8937(3) 0.6600(4) 0.6748(6)
B1 B 0.9675(4) 0.5634(5) 0.2442(8)
B2 B 0.7532(6) 0.7500 0.2500
B3 B 0.6750(6) 0.7500 0.7500
C74 C 0.8721(11) 0.8947(17) 0.540(3)
H80 H 0.8622 0.9205 0.5113
H81 H 0.8534 0.8754 0.5610
H82 H 0.8867 0.8740 0.5110
C75 C 0.9205(11) 0.9536(16) 0.573(3)
H83 H 0.9342 0.9665 0.6121
H84 H 0.9084 0.9801 0.5490
H85 H 0.9358 0.9375 0.5388
N2 N 0.8942(13) 0.9173(13) 0.6013(19)
C76 C 0.9103(9) 0.8770(12) 0.648(3)
H86 H 0.9336 0.8792 0.6634
C78 C 0.81811(9) 0.7659(2) 0.0537(2)
C79 C 0.82675(10) 0.7919(2) 0.1159(2)
C80 C 0.80515(11) 0.7891(2) 0.1765(2)
C81 C 0.77492(10) 0.76018(18) 0.1749(2)
C82 C 0.76628(10) 0.73410(16) 0.1127(2)
C83 C 0.78787(9) 0.73694(16) 0.0520(2)
C84 C 0.86110(12) 0.8233(3) 0.1196(3)
H87 H 0.8731 0.8217 0.0739
H88 H 0.8762 0.8106 0.1569
H89 H 0.8552 0.8569 0.1302
C85 C 0.81388(14) 0.8226(2) 0.2427(2)
H90 H 0.7970 0.8169 0.2804
H91 H 0.8130 0.8565 0.2283
H92 H 0.8371 0.8150 0.2602
C86 C 0.73338(12) 0.69858(17) 0.1083(2)
H93 H 0.7206 0.6998 0.1531
H94 H 0.7413 0.6655 0.0996
H95 H 0.7182 0.7088 0.0695
C88 C 0.69280(13) 0.7088(3) 0.2750(2)
C89 C 0.65615(13) 0.7079(3) 0.2742(3)
C90 C 0.7135(4) 0.6629(6) 0.2998(9)
H99 H 0.6972 0.6379 0.3151
H100 H 0.7287 0.6716 0.3393
H101 H 0.7274 0.6507 0.2603
C91 C 0.6340(3) 0.6630(5) 0.2966(8)
H102 H 0.6494 0.6369 0.3119
H103 H 0.6201 0.6521 0.2562
H104 H 0.6187 0.6719 0.3358
O20 O 0.5823(2) 0.7601(3) 0.3083(4)
C92 C 0.77261(14) 0.7910(3) 0.7255(2)
C93 C 0.73560(14) 0.7907(3) 0.7234(2)
C94 C 0.79335(16) 0.8375(3) 0.7022(2)
H105 H 0.8182 0.8314 0.7069
H106 H 0.7868 0.8647 0.7324
H107 H 0.7880 0.8451 0.6527
C95 C 0.71733(16) 0.8360(3) 0.6917(2)
H108 H 0.7348 0.8595 0.6766
H109 H 0.7024 0.8506 0.7277
H110 H 0.7033 0.8264 0.6508
C96 C 0.65463(17) 0.7575(3) 0.6745(3)
C97 C 0.66404(15) 0.7294(3) 0.6146(3)
C98 C 0.64599(16) 0.7352(2) 0.5497(3)
C99 C 0.61853(16) 0.7689(2) 0.5447(3)
C100 C 0.60912(16) 0.7969(2) 0.6046(3)
C101 C 0.62717(17) 0.7912(3) 0.6695(3)
C102 C 0.6918(2) 0.6882(4) 0.6180(5)
H111 H 0.7025 0.6878 0.6651
H112 H 0.7096 0.6940 0.5820
H113 H 0.6807 0.6571 0.6090
C103 C 0.6553(2) 0.7022(3) 0.4847(4)
H114 H 0.6747 0.6812 0.4972
H115 H 0.6617 0.7225 0.4442
H116 H 0.6353 0.6824 0.4721
C104 C 0.5781(2) 0.8358(4) 0.5981(5)
H117 H 0.5686 0.8350 0.5500
H118 H 0.5870 0.8682 0.6082
H119 H 0.5599 0.8278 0.6323
C105 C 0.6157(3) 0.8244(4) 0.7335(4)
H120 H 0.5964 0.8449 0.7187
H121 H 0.6352 0.8448 0.7481
H122 H 0.6085 0.8042 0.7734
C106 C 0.6000(2) 0.7756(4) 0.4744(3)
O21 O 0.8452(2) 0.7507(4) 0.8100(5)
O22 O 0.6209(3) 0.7889(5) 0.4188(6)
O23 O 0.5690(3) 0.7692(5) 0.4673(5)
O24 O 0.9657(2) 0.7539(3) 0.8110(4)
C108 C 0.96486(15) 0.85262(19) 0.0525(3)
C109 C 0.98831(13) 0.83971(17) 0.1071(3)
C110 C 0.98994(13) 0.86754(18) 0.1701(3)
C111 C 0.96812(15) 0.90828(18) 0.1786(3)
C112 C 0.94467(13) 0.92119(16) 0.1240(3)
C113 C 0.94304(13) 0.89336(18) 0.0609(3)
C116 C 0.91702(19) 0.9618(2) 0.1356(4)
H129 H 0.9213 0.9779 0.1810
H130 H 0.8939 0.9474 0.1360
H131 H 0.9186 0.9854 0.0970
H132 H 0.9056 0.9383 0.0113
C118 C 0.96943(15) 0.99589(14) 0.2594(3)
C127 C 0.91232(17) 0.9951(2) 0.3341(4)
H145 H 0.9208 0.9716 0.3687
H146 H 0.8987 0.9785 0.2977
C129 C 0.96579(13) 0.90439(15) 0.3292(2)
C130 C 0.98713(13) 0.91553(16) 0.3881(2)
C131 C 0.98703(11) 0.88515(15) 0.4486(2)
C132 C 0.96560(12) 0.84363(15) 0.4502(2)
C133 C 0.94426(11) 0.83249(14) 0.3913(2)
C134 C 0.94436(11) 0.86287(14) 0.3308(2)
C137 C 0.92296(16) 0.78401(18) 0.3897(3)
H153 H 0.9255 0.7673 0.4351
H154 H 0.9316 0.7634 0.3515
H155 H 0.8985 0.7913 0.3815
C138 C 0.91649(12) 0.85236(19) 0.2722(2)
H156 H 0.9191 0.8755 0.2333
H157 H 0.8933 0.8555 0.2927
H158 H 0.9196 0.8195 0.2540
C139 C 0.96521(18) 0.8101(2) 0.5160(2)
O29 O 0.9370(2) 0.8083(3) 0.5514(5)
O30 O 0.9931(2) 0.7872(3) 0.5312(4)
B4 B 0.9675(4) 0.9366(5) 0.2558(8)
La8 La 0.523392(16) 0.74087(2) 0.37381(3)
La13 La 0.900568(17) 0.75149(3) 0.88052(4)
C33 C 0.96521(18) 0.6899(2) 0.9840(2)
O5 O 0.9370(2) 0.6917(3) 0.9486(5)
O6 O 0.9931(2) 0.7128(3) 0.9688(4)
C77 C 0.8444(3) 0.7620(4) 0.9930(4)
C87 C 0.77751(11) 0.71321(16) 0.9796(2)
H96 H 0.7563 0.6944 0.9858
H97 H 0.7962 0.6919 0.9635
H98 H 0.7736 0.7385 0.9442
O18 O 0.8528(3) 0.7999(4) 0.9581(5)
O19 O 0.8582(3) 0.7209(4) 0.9781(6)
C107 C 0.9634(3) 0.8225(4) 0.9834(6)
C117 C 0.9190(2) 0.9098(3) 0.9971(3)
H133 H 0.9031 0.8835 0.9848
H134 H 0.9333 0.9178 0.9559
O25 O 0.9906(2) 0.8207(3) 0.9448(5)
O26 O 0.9347(2) 0.8014(3) 0.9679(5)
O32 O 0.8910(3) 0.6607(4) 0.8356(6)
O33 O 0.8937(3) 0.8400(4) 0.8252(6)
C143 C 0.8721(11) 0.6053(17) 0.960(3)
H166 H 0.8622 0.5795 0.9887
H167 H 0.8534 0.6246 0.9390
H168 H 0.8867 0.6260 0.9890
C144 C 0.9205(11) 0.5464(16) 0.927(3)
H169 H 0.9342 0.5335 0.8879
H170 H 0.9084 0.5199 0.9510
H171 H 0.9358 0.5625 0.9612
N4 N 0.8942(13) 0.5827(13) 0.8987(19)
C145 C 0.9103(9) 0.6230(12) 0.852(3)
H172 H 0.9336 0.6208 0.8366
C66_2 C 0.8447(2) 0.2022(3) 0.0153(4)
H64_2 H 0.8253 0.1812 0.0028
H65_2 H 0.8383 0.2225 0.0558
H66_2 H 0.8647 0.1824 0.0279
C69_2 C 0.9000(2) 0.2756(4) 0.0256(3)
O11_2 O 0.8791(3) 0.2889(5) 0.0812(6)
O12_2 O 0.9310(3) 0.2692(5) 0.0327(5)
La1_2 La 0.476608(16) 0.25913(2) 0.62619(3)
La2_2 La 0.599432(17) 0.25149(3) 0.61948(4)
C1_2 C 0.5366(3) 0.3225(4) 0.5166(6)
C2_2 C 0.53514(15) 0.35262(19) 0.4475(3)
C3_2 C 0.51169(13) 0.33971(17) 0.3929(3)
C4_2 C 0.51006(13) 0.36754(18) 0.3299(3)
C5_2 C 0.53188(15) 0.40828(18) 0.3214(3)
C6_2 C 0.55533(13) 0.42119(16) 0.3760(3)
C7_2 C 0.55696(13) 0.39336(18) 0.4391(3)
C8_2 C 0.4890(2) 0.2918(2) 0.3983(4)
H1_2 H 0.4928 0.2766 0.4446
H2_2 H 0.4958 0.2694 0.3606
H3_2 H 0.4645 0.3000 0.3932
C9_2 C 0.48141(19) 0.3542(3) 0.2747(4)
H4_2 H 0.4693 0.3250 0.2903
H5_2 H 0.4921 0.3484 0.2284
H6_2 H 0.4649 0.3809 0.2709
C10_2 C 0.58298(19) 0.4618(2) 0.3644(4)
H7_2 H 0.5787 0.4779 0.3190
H8_2 H 0.6061 0.4474 0.3640
H9_2 H 0.5814 0.4854 0.4030
C11_2 C 0.5810(2) 0.4098(3) 0.5029(3)
H10_2 H 0.5944 0.4383 0.4887
H11_2 H 0.5969 0.3835 0.5152
H12_2 H 0.5667 0.4178 0.5441
C12_2 C 0.53057(15) 0.49589(14) 0.2406(3)
C13_2 C 0.50309(13) 0.52128(16) 0.2735(3)
C14_2 C 0.50112(12) 0.57225(16) 0.2677(3)
C15_2 C 0.52663(13) 0.59784(14) 0.2290(3)
C16_2 C 0.55411(12) 0.57245(16) 0.1960(3)
C17_2 C 0.55608(13) 0.52147(16) 0.2018(3)
C18_2 C 0.47298(18) 0.4940(2) 0.3144(4)
H13_2 H 0.4776 0.4592 0.3144
H14_2 H 0.4509 0.5002 0.2906
H15_2 H 0.4718 0.5056 0.3633
C19_2 C 0.46947(16) 0.6011(2) 0.2999(4)
H16_2 H 0.4725 0.6356 0.2908
H17_2 H 0.4683 0.5954 0.3511
H18_2 H 0.4480 0.5900 0.2776
C20_2 C 0.58273(16) 0.6012(2) 0.1539(4)
H19_2 H 0.5774 0.6358 0.1552
H20_2 H 0.5832 0.5901 0.1046
H21_2 H 0.6053 0.5956 0.1759
C21_2 C 0.58768(17) 0.4951(2) 0.1659(4)
H22_2 H 0.6022 0.5190 0.1418
H23_2 H 0.5792 0.4716 0.1313
H24_2 H 0.6013 0.4785 0.2023
C22_2 C 0.52502(19) 0.65372(14) 0.2240(5)
C23_2 C 0.53421(13) 0.40439(15) 0.1708(2)
C24_2 C 0.51287(13) 0.41553(16) 0.1119(2)
C25_2 C 0.51297(11) 0.38515(15) 0.0514(2)
C26_2 C 0.53440(12) 0.34363(15) 0.0498(2)
C27_2 C 0.55574(11) 0.33249(14) 0.1087(2)
C28_2 C 0.55564(11) 0.36287(14) 0.1692(2)
C29_2 C 0.48516(19) 0.4573(2) 0.1136(3)
H25_2 H 0.4876 0.4757 0.1576
H26_2 H 0.4619 0.4433 0.1111
H27_2 H 0.4888 0.4788 0.0730
C31_2 C 0.57704(16) 0.28401(18) 0.1103(3)
H31_2 H 0.5745 0.2673 0.0649
H32_2 H 0.5684 0.2634 0.1485
H33_2 H 0.6015 0.2913 0.1185
C32_2 C 0.58351(12) 0.35236(19) 0.2278(2)
H34_2 H 0.5809 0.3755 0.2667
H35_2 H 0.6067 0.3555 0.2073
H36_2 H 0.5804 0.3195 0.2460
C34_2 C 0.6556(3) 0.2620(4) 0.5070(4)
C35_2 C 0.68189(9) 0.2659(2) 0.4463(2)
C36_2 C 0.67325(10) 0.2919(2) 0.3841(2)
C37_2 C 0.69485(11) 0.2891(2) 0.3235(2)
C38_2 C 0.72508(10) 0.26018(18) 0.3251(2)
C39_2 C 0.73372(10) 0.23410(16) 0.3873(2)
C40_2 C 0.71213(9) 0.23694(16) 0.4480(2)
C41_2 C 0.63890(12) 0.3233(3) 0.3804(3)
H37_2 H 0.6269 0.3217 0.4261
H38_2 H 0.6238 0.3106 0.3431
H39_2 H 0.6448 0.3569 0.3698
C42_2 C 0.68612(14) 0.3226(2) 0.2573(2)
H40_2 H 0.7030 0.3169 0.2196
H41_2 H 0.6870 0.3565 0.2717
H42_2 H 0.6629 0.3150 0.2398
C43_2 C 0.76662(12) 0.19858(17) 0.3917(2)
H43_2 H 0.7794 0.1998 0.3469
H44_2 H 0.7587 0.1655 0.4004
H45_2 H 0.7818 0.2088 0.4305
C44_2 C 0.72249(11) 0.21321(16) 0.5204(2)
H46_2 H 0.7437 0.1944 0.5142
H47_2 H 0.7038 0.1919 0.5365
H48_2 H 0.7264 0.2385 0.5558
C45_2 C 0.78863(12) 0.2500(2) 0.2500(2)
C46_2 C 0.80720(13) 0.2088(3) 0.2250(2)
C47_2 C 0.84385(13) 0.2079(3) 0.2258(3)
C48_2 C 0.86167(12) 0.2500(3) 0.2500(3)
C49_2 C 0.7865(4) 0.1629(6) 0.2002(9)
H49_2 H 0.8028 0.1379 0.1849
H50_2 H 0.7713 0.1716 0.1607
H51_2 H 0.7726 0.1507 0.2397
C50_2 C 0.8660(3) 0.1630(5) 0.2034(8)
H52_2 H 0.8506 0.1369 0.1881
H53_2 H 0.8799 0.1521 0.2438
H54_2 H 0.8813 0.1719 0.1642
C51_2 C 0.90215(12) 0.2500(4) 0.2500(3)
C52_2 C 0.66932(14) 0.2500(3) 0.7500(2)
C53_2 C 0.70924(14) 0.2500(2) 0.7500(2)
C54_2 C 0.72739(14) 0.2910(3) 0.7745(2)
C55_2 C 0.76440(14) 0.2907(3) 0.7766(2)
C56_2 C 0.78318(14) 0.2500(3) 0.7500(2)
C57_2 C 0.70665(16) 0.3375(3) 0.7978(2)
H55_2 H 0.6818 0.3314 0.7931
H56_2 H 0.7132 0.3647 0.7676
H57_2 H 0.7120 0.3451 0.8473
C58_2 C 0.78267(16) 0.3360(3) 0.8083(2)
H58_2 H 0.7652 0.3595 0.8234
H59_2 H 0.7976 0.3506 0.7723
H60_2 H 0.7967 0.3264 0.8492
C59_2 C 0.84537(17) 0.2575(3) 0.8255(3)
C60_2 C 0.83596(15) 0.2294(3) 0.8854(3)
C61_2 C 0.85401(16) 0.2352(2) 0.9503(3)
C62_2 C 0.88147(16) 0.2689(2) 0.9553(3)
C63_2 C 0.89088(16) 0.2969(2) 0.8954(3)
C64_2 C 0.87283(17) 0.2912(3) 0.8305(3)
C65_2 C 0.8082(2) 0.1882(4) 0.8820(5)
H61_2 H 0.7975 0.1878 0.8349
H62_2 H 0.7904 0.1940 0.9180
H63_2 H 0.8193 0.1571 0.8910
C67_2 C 0.9219(2) 0.3358(4) 0.9019(5)
H67_2 H 0.9314 0.3350 0.9500
H68_2 H 0.9130 0.3682 0.8918
H69_2 H 0.9401 0.3278 0.8677
C68_2 C 0.8843(3) 0.3244(4) 0.7665(4)
H70_2 H 0.9036 0.3449 0.7813
H71_2 H 0.8648 0.3448 0.7519
H72_2 H 0.8915 0.3042 0.7266
C70_2 C 0.4645(6) 0.4470(8) 0.5172(13)
H73_2 H 0.4597 0.4656 0.4742
H74_2 H 0.4890 0.4378 0.5181
H75_2 H 0.4592 0.4666 0.5590
C71_2 C 0.4242(6) 0.3894(8) 0.4584(12)
H76_2 H 0.4244 0.4151 0.4227
H77_2 H 0.4004 0.3827 0.4728
H78_2 H 0.4345 0.3602 0.4382
C72_2 C 0.4471(5) 0.3707(8) 0.5795(10)
H79_2 H 0.4596 0.3810 0.6201
C73_2 C 0.5495(4) 0.2500 0.7500
O1_2 O 0.5094(2) 0.3207(3) 0.5552(5)
O2_2 O 0.5653(2) 0.3014(3) 0.5321(5)
O3_2 O 0.5276(3) 0.6782(3) 0.2808(6)
O4_2 O 0.5208(3) 0.6723(3) 0.1631(6)
O7_2 O 0.6472(3) 0.2999(4) 0.5419(5)
O8_2 O 0.6418(3) 0.2209(4) 0.5219(6)
O9_2 O 0.9177(2) 0.2601(3) 0.1917(4)
O10_2 O 0.6548(2) 0.2507(4) 0.6900(5)
O13_2 O 0.4339(3) 0.3288(5) 0.5786(7)
O14_2 O 0.6090(3) 0.1607(4) 0.6644(6)
O15_2 O 0.5835(3) 0.2500 0.7500
O16_2 O 0.5343(2) 0.2539(3) 0.6890(4)
O17_2 O 0.6063(3) 0.3400(4) 0.6748(6)
N1_2 N 0.4435(4) 0.4041(6) 0.5177(8)
B1_2 B 0.5325(4) 0.4366(5) 0.2442(8)
B2_2 B 0.7468(6) 0.2500 0.2500
B3_2 B 0.8250(6) 0.2500 0.7500
C74_2 C 0.6279(11) 0.1053(17) 0.540(3)
H80_2 H 0.6378 0.0795 0.5113
H81_2 H 0.6466 0.1246 0.5610
H82_2 H 0.6133 0.1260 0.5110
C75_2 C 0.5795(11) 0.0464(16) 0.573(3)
H83_2 H 0.5658 0.0335 0.6121
H84_2 H 0.5916 0.0199 0.5490
H85_2 H 0.5642 0.0625 0.5388
N2_2 N 0.6058(13) 0.0827(13) 0.6013(19)
C76_2 C 0.5897(9) 0.1230(12) 0.648(3)
H86_2 H 0.5664 0.1208 0.6634
C78_2 C 0.68189(9) 0.2341(2) 0.0537(2)
C79_2 C 0.67325(10) 0.2081(2) 0.1159(2)
C80_2 C 0.69485(11) 0.2109(2) 0.1765(2)
C81_2 C 0.72508(10) 0.23982(18) 0.1749(2)
C82_2 C 0.73372(10) 0.26590(16) 0.1127(2)
C83_2 C 0.71213(9) 0.26306(16) 0.0520(2)
C84_2 C 0.63890(12) 0.1767(3) 0.1196(3)
H87_2 H 0.6269 0.1783 0.0739
H88_2 H 0.6238 0.1894 0.1569
H89_2 H 0.6448 0.1431 0.1302
C85_2 C 0.68612(14) 0.1774(2) 0.2427(2)
H90_2 H 0.7030 0.1831 0.2804
H91_2 H 0.6870 0.1435 0.2283
H92_2 H 0.6629 0.1850 0.2602
C86_2 C 0.76662(12) 0.30142(17) 0.1083(2)
H93_2 H 0.7794 0.3002 0.1531
H94_2 H 0.7587 0.3345 0.0996
H95_2 H 0.7818 0.2912 0.0695
C88_2 C 0.80720(13) 0.2912(3) 0.2750(2)
C89_2 C 0.84385(13) 0.2921(3) 0.2742(3)
C90_2 C 0.7865(4) 0.3371(6) 0.2998(9)
H99_2 H 0.8028 0.3621 0.3151
H100_2 H 0.7713 0.3284 0.3393
H101_2 H 0.7726 0.3493 0.2603
C91_2 C 0.8660(3) 0.3370(5) 0.2966(8)
H102_2 H 0.8506 0.3631 0.3119
H103_2 H 0.8799 0.3479 0.2562
H104_2 H 0.8813 0.3281 0.3358
O20_2 O 0.9177(2) 0.2399(3) 0.3083(4)
C92_2 C 0.72739(14) 0.2090(3) 0.7255(2)
C93_2 C 0.76440(14) 0.2093(3) 0.7234(2)
C94_2 C 0.70665(16) 0.1625(3) 0.7022(2)
H105_2 H 0.6818 0.1686 0.7069
H106_2 H 0.7132 0.1353 0.7324
H107_2 H 0.7120 0.1549 0.6527
C95_2 C 0.78267(16) 0.1640(3) 0.6917(2)
H108_2 H 0.7652 0.1405 0.6766
H109_2 H 0.7976 0.1494 0.7277
H110_2 H 0.7967 0.1736 0.6508
C96_2 C 0.84537(17) 0.2425(3) 0.6745(3)
C97_2 C 0.83596(15) 0.2706(3) 0.6146(3)
C98_2 C 0.85401(16) 0.2648(2) 0.5497(3)
C99_2 C 0.88147(16) 0.2311(2) 0.5447(3)
C100_2 C 0.89088(16) 0.2031(2) 0.6046(3)
C101_2 C 0.87283(17) 0.2088(3) 0.6695(3)
C102_2 C 0.8082(2) 0.3118(4) 0.6180(5)
H111_2 H 0.7975 0.3122 0.6651
H112_2 H 0.7904 0.3060 0.5820
H113_2 H 0.8193 0.3429 0.6090
C103_2 C 0.8447(2) 0.2978(3) 0.4847(4)
H114_2 H 0.8253 0.3188 0.4972
H115_2 H 0.8383 0.2775 0.4442
H116_2 H 0.8647 0.3176 0.4721
C104_2 C 0.9219(2) 0.1642(4) 0.5981(5)
H117_2 H 0.9314 0.1650 0.5500
H118_2 H 0.9130 0.1318 0.6082
H119_2 H 0.9401 0.1722 0.6323
C105_2 C 0.8843(3) 0.1756(4) 0.7335(4)
H120_2 H 0.9036 0.1551 0.7187
H121_2 H 0.8648 0.1552 0.7481
H122_2 H 0.8915 0.1958 0.7734
C106_2 C 0.9000(2) 0.2244(4) 0.4744(3)
O21_2 O 0.6548(2) 0.2493(4) 0.8100(5)
O22_2 O 0.8791(3) 0.2111(5) 0.4188(6)
O23_2 O 0.9310(3) 0.2308(5) 0.4673(5)
O24_2 O 0.5343(2) 0.2461(3) 0.8110(4)
C108_2 C 0.53514(15) 0.14738(19) 0.0525(3)
C109_2 C 0.51169(13) 0.16029(17) 0.1071(3)
C110_2 C 0.51006(13) 0.13246(18) 0.1701(3)
C111_2 C 0.53188(15) 0.09172(18) 0.1786(3)
C112_2 C 0.55533(13) 0.07881(16) 0.1240(3)
C113_2 C 0.55696(13) 0.10664(18) 0.0609(3)
C114_2 C 0.4890(2) 0.2082(2) 0.1017(4)
H123_2 H 0.4928 0.2234 0.0554
H124_2 H 0.4958 0.2306 0.1394
H125_2 H 0.4645 0.2000 0.1068
C115_2 C 0.48141(19) 0.1458(3) 0.2253(4)
H126_2 H 0.4693 0.1750 0.2097
H127_2 H 0.4921 0.1516 0.2716
H128_2 H 0.4649 0.1191 0.2291
C116_2 C 0.58298(19) 0.0382(2) 0.1356(4)
H129_2 H 0.5787 0.0221 0.1810
H130_2 H 0.6061 0.0526 0.1360
H131_2 H 0.5814 0.0146 0.0970
H132_2 H 0.5944 0.0617 0.0113
C118_2 C 0.53057(15) 0.00411(14) 0.2594(3)
C124_2 C 0.47298(18) 0.0060(2) 0.1856(4)
H135_2 H 0.4776 0.0408 0.1856
C127_2 C 0.58768(17) 0.0049(2) 0.3341(4)
H145_2 H 0.5792 0.0284 0.3687
H146_2 H 0.6013 0.0215 0.2977
C129_2 C 0.53421(13) 0.09561(15) 0.3292(2)
C130_2 C 0.51287(13) 0.08447(16) 0.3881(2)
C131_2 C 0.51297(11) 0.11485(15) 0.4486(2)
C132_2 C 0.53440(12) 0.15637(15) 0.4502(2)
C133_2 C 0.55574(11) 0.16751(14) 0.3913(2)
C134_2 C 0.55564(11) 0.13713(14) 0.3308(2)
C135_2 C 0.48516(19) 0.0427(2) 0.3864(3)
H147_2 H 0.4876 0.0243 0.3424
H148_2 H 0.4619 0.0567 0.3889
H149_2 H 0.4888 0.0212 0.4270
C136_2 C 0.49156(14) 0.1011(2) 0.5172(3)
H150_2 H 0.4947 0.1262 0.5533
H151_2 H 0.4997 0.0701 0.5357
H152_2 H 0.4670 0.0986 0.5050
C137_2 C 0.57704(16) 0.21599(18) 0.3897(3)
H153_2 H 0.5745 0.2327 0.4351
H154_2 H 0.5684 0.2366 0.3515
H155_2 H 0.6015 0.2087 0.3815
C138_2 C 0.58351(12) 0.14764(19) 0.2722(2)
H156_2 H 0.5809 0.1245 0.2333
H157_2 H 0.6067 0.1445 0.2927
H158_2 H 0.5804 0.1805 0.2540
C139_2 C 0.53479(18) 0.1899(2) 0.5160(2)
H159_2 H 0.4597 0.0344 0.0258
C141_2 C 0.4242(6) 0.1106(8) 0.0416(12)
H162_2 H 0.4244 0.0849 0.0773
H163_2 H 0.4004 0.1173 0.0272
H164_2 H 0.4345 0.1398 0.0618
O29_2 O 0.5630(2) 0.1917(3) 0.5514(5)
O30_2 O 0.5069(2) 0.2128(3) 0.5312(4)
B4_2 B 0.5325(4) 0.0634(5) 0.2558(8)
La5_2 La 0.476608(16) 0.24087(2) 0.87381(3)
La13_2 La 0.599432(17) 0.24851(3) 0.88052(4)
O34_2 O 0.4724(3) 0.3218(3) 0.7192(6)
O37_2 O 0.4792(3) 0.1723(3) 0.6631(6)
O39_2 O 0.4177(2) 0.2399(3) 0.6917(4)
O42_2 O 0.4310(3) 0.2308(5) 0.5327(5)
C30_2 C 0.49156(14) 0.3989(2) 0.9828(3)
H28_2 H 0.4947 0.3738 0.9467
H29_2 H 0.4997 0.4299 0.9643
H30_2 H 0.4670 0.4014 0.9950
C33_2 C 0.53479(18) 0.3101(2) 0.9840(2)
O5_2 O 0.5630(2) 0.3083(3) 0.9486(5)
O6_2 O 0.5069(2) 0.2872(3) 0.9688(4)
C77_2 C 0.6556(3) 0.2380(4) 0.9930(4)
C87_2 C 0.72249(11) 0.28679(16) 0.9796(2)
H96_2 H 0.7437 0.3056 0.9858
H97_2 H 0.7038 0.3081 0.9635
H98_2 H 0.7264 0.2615 0.9442
O18_2 O 0.6472(3) 0.2001(4) 0.9581(5)
O19_2 O 0.6418(3) 0.2791(4) 0.9781(6)
C107_2 C 0.5366(3) 0.1775(4) 0.9834(6)
C117_2 C 0.5810(2) 0.0902(3) 0.9971(3)
H133_2 H 0.5969 0.1165 0.9848
H134_2 H 0.5667 0.0822 0.9559
C140_2 C 0.4645(6) 0.0530(8) 0.9828(13)
H160_2 H 0.4890 0.0622 0.9819
H161_2 H 0.4592 0.0334 0.9410
C142_2 C 0.4471(5) 0.1293(8) 0.9205(10)
H165_2 H 0.4596 0.1190 0.8799
O25_2 O 0.5094(2) 0.1793(3) 0.9448(5)
O26_2 O 0.5653(2) 0.1986(3) 0.9679(5)
O31_2 O 0.4339(3) 0.1712(5) 0.9214(7)
O32_2 O 0.6090(3) 0.3393(4) 0.8356(6)
O33_2 O 0.6063(3) 0.1600(4) 0.8252(6)
N3_2 N 0.4435(4) 0.0959(6) 0.9823(8)
C143_2 C 0.6279(11) 0.3947(17) 0.960(3)
H166_2 H 0.6378 0.4205 0.9887
H167_2 H 0.6466 0.3754 0.9390
H168_2 H 0.6133 0.3740 0.9890
C144_2 C 0.5795(11) 0.4536(16) 0.927(3)
H169_2 H 0.5658 0.4665 0.8879
H170_2 H 0.5916 0.4801 0.9510
H171_2 H 0.5642 0.4375 0.9612
N4_2 N 0.6058(13) 0.4173(13) 0.8987(19)
C145_2 C 0.5897(9) 0.3770(12) 0.852(3)
H172_2 H 0.5664 0.3792 0.8366
O35_2 O 0.4724(3) 0.1782(3) 0.7808(6)
O36_2 O 0.4792(3) 0.3277(3) 0.8369(6)
O38_2 O 0.4177(2) 0.2601(3) 0.8083(4)
O41_2 O 0.4310(3) 0.2692(5) 0.9673(5)
C119_2 C 0.50309(13) 0.97872(16) 0.2265(3)
C120_2 C 0.50112(12) 0.92775(16) 0.2323(3)
C121_2 C 0.52663(13) 0.90216(14) 0.2710(3)
C122_2 C 0.55411(12) 0.92755(16) 0.3040(3)
C123_2 C 0.55608(13) 0.97853(16) 0.2982(3)
H136_2 H 0.4509 0.9998 0.2094
H137_2 H 0.4718 0.9944 0.1367
C125_2 C 0.46947(16) 0.8989(2) 0.2001(4)
H138_2 H 0.4725 0.8644 0.2092
H139_2 H 0.4683 0.9046 0.1489
H140_2 H 0.4480 0.9100 0.2224
C126_2 C 0.58273(16) 0.8988(2) 0.3461(4)
H141_2 H 0.5774 0.8642 0.3448
H142_2 H 0.5832 0.9099 0.3954
H143_2 H 0.6053 0.9044 0.3241
H144_2 H 0.6022 0.9810 0.3582
C128_2 C 0.52502(19) 0.84628(14) 0.2760(5)
O27_2 O 0.5276(3) 0.8218(3) 0.2192(6)
O28_2 O 0.5208(3) 0.8277(3) 0.3369(6)
C33_3 C 0.03479(18) 0.3101(2) 0.0160(2)
O5_3 O 0.0630(2) 0.3083(3) 0.0514(5)
O6_3 O 0.0069(2) 0.2872(3) 0.0312(4)
C77_3 C 0.1556(3) 0.2380(4) 0.0070(4)
C87_3 C 0.22249(11) 0.28679(16) 0.0204(2)
H96_3 H 0.2437 0.3056 0.0142
H97_3 H 0.2038 0.3081 0.0365
H98_3 H 0.2264 0.2615 0.0558
O18_3 O 0.1472(3) 0.2001(4) 0.0419(5)
O19_3 O 0.1418(3) 0.2791(4) 0.0219(6)
La4 La 0.099432(17) 0.24851(3) 0.11948(4)
C107_3 C 0.0366(3) 0.1775(4) 0.0166(6)
C117_3 C 0.0810(2) 0.0902(3) 0.0029(3)
H133_3 H 0.0969 0.1165 0.0152
H134_3 H 0.0667 0.0822 0.0441
O25_3 O 0.0094(2) 0.1793(3) 0.0552(5)
O26_3 O 0.0653(2) 0.1986(3) 0.0321(5)
O32_3 O 0.1090(3) 0.3393(4) 0.1644(6)
O33_3 O 0.1063(3) 0.1600(4) 0.1748(6)
C143_3 C 0.1279(11) 0.3947(17) 0.040(3)
H166_3 H 0.1378 0.4205 0.0113
H167_3 H 0.1466 0.3754 0.0610
H168_3 H 0.1133 0.3740 0.0110
C144_3 C 0.0795(11) 0.4536(16) 0.073(3)
H169_3 H 0.0658 0.4665 0.1121
H170_3 H 0.0916 0.4801 0.0490
H171_3 H 0.0642 0.4375 0.0388
N4_3 N 0.1058(13) 0.4173(13) 0.1013(19)
C145_3 C 0.0897(9) 0.3770(12) 0.148(3)
H172_3 H 0.0664 0.3792 0.1634
O40 O 0.1548(2) 0.2493(4) 0.1900(5)
O43 O 0.0835(3) 0.2500 0.2500
O44 O 0.0343(2) 0.2461(3) 0.1890(4)
La2_3 La 0.099432(17) 0.25149(3) 0.38052(4)
C1_3 C 0.0366(3) 0.3225(4) 0.4834(6)
C2_3 C 0.03514(15) 0.35262(19) 0.5525(3)
C3_3 C 0.01169(13) 0.33971(17) 0.6071(3)
C4_3 C 0.01006(13) 0.36754(18) 0.6701(3)
C5_3 C 0.03188(15) 0.40828(18) 0.6786(3)
C6_3 C 0.05533(13) 0.42119(16) 0.6240(3)
C7_3 C 0.05696(13) 0.39336(18) 0.5609(3)
C10_3 C 0.08298(19) 0.4618(2) 0.6356(4)
H7_3 H 0.0787 0.4779 0.6810
H8_3 H 0.1061 0.4474 0.6360
H9_3 H 0.0814 0.4854 0.5970
C11_3 C 0.0810(2) 0.4098(3) 0.4971(3)
H10_3 H 0.0944 0.4383 0.5113
H11_3 H 0.0969 0.3835 0.4848
H12_3 H 0.0667 0.4178 0.4559
C12_3 C 0.03057(15) 0.49589(14) 0.7594(3)
C13_3 C 0.00309(13) 0.52128(16) 0.7265(3)
C14_3 C 0.00112(12) 0.57225(16) 0.7323(3)
C15_3 C 0.02663(13) 0.59784(14) 0.7710(3)
C16_3 C 0.05411(12) 0.57245(16) 0.8040(3)
C17_3 C 0.05608(13) 0.52147(16) 0.7982(3)
C20_3 C 0.08273(16) 0.6012(2) 0.8461(4)
H19_3 H 0.0774 0.6358 0.8448
H20_3 H 0.0832 0.5901 0.8954
H21_3 H 0.1053 0.5956 0.8241
C21_3 C 0.08768(17) 0.4951(2) 0.8341(4)
H22_3 H 0.1022 0.5190 0.8582
H23_3 H 0.0792 0.4716 0.8687
H24_3 H 0.1013 0.4785 0.7977
C22_3 C 0.02502(19) 0.65372(14) 0.7760(5)
C23_3 C 0.03421(13) 0.40439(15) 0.8292(2)
C24_3 C 0.01287(13) 0.41553(16) 0.8881(2)
C25_3 C 0.01297(11) 0.38515(15) 0.9486(2)
C26_3 C 0.03440(12) 0.34363(15) 0.9502(2)
C27_3 C 0.05574(11) 0.33249(14) 0.8913(2)
C28_3 C 0.05564(11) 0.36287(14) 0.8308(2)
C31_3 C 0.07704(16) 0.28401(18) 0.8897(3)
H31_3 H 0.0745 0.2673 0.9351
H32_3 H 0.0684 0.2634 0.8515
H33_3 H 0.1015 0.2913 0.8815
C32_3 C 0.08351(12) 0.35236(19) 0.7722(2)
H34_3 H 0.0809 0.3755 0.7333
H35_3 H 0.1067 0.3555 0.7927
H36_3 H 0.0804 0.3195 0.7540
C34_3 C 0.1556(3) 0.2620(4) 0.4930(4)
C35_3 C 0.18189(9) 0.2659(2) 0.5537(2)
C36_3 C 0.17325(10) 0.2919(2) 0.6159(2)
C37_3 C 0.19485(11) 0.2891(2) 0.6765(2)
C38_3 C 0.22508(10) 0.26018(18) 0.6749(2)
C39_3 C 0.23372(10) 0.23410(16) 0.6127(2)
C40_3 C 0.21213(9) 0.23694(16) 0.5520(2)
C41_3 C 0.13890(12) 0.3233(3) 0.6196(3)
H37_3 H 0.1269 0.3217 0.5739
H38_3 H 0.1238 0.3106 0.6569
H39_3 H 0.1448 0.3569 0.6302
C42_3 C 0.18612(14) 0.3226(2) 0.7427(2)
H40_3 H 0.2030 0.3169 0.7804
H41_3 H 0.1870 0.3565 0.7283
H42_3 H 0.1629 0.3150 0.7602
C43_3 C 0.26662(12) 0.19858(17) 0.6083(2)
H43_3 H 0.2794 0.1998 0.6531
H44_3 H 0.2587 0.1655 0.5996
H45_3 H 0.2818 0.2088 0.5695
C44_3 C 0.22249(11) 0.21321(16) 0.4796(2)
H46_3 H 0.2437 0.1944 0.4858
H47_3 H 0.2038 0.1919 0.4635
H48_3 H 0.2264 0.2385 0.4442
C45_3 C 0.28863(12) 0.2500(2) 0.7500(2)
C46_3 C 0.30720(13) 0.2088(3) 0.7750(2)
C47_3 C 0.34385(13) 0.2079(3) 0.7742(3)
C48_3 C 0.36167(12) 0.2500(3) 0.7500(3)
C49_3 C 0.2865(4) 0.1629(6) 0.7998(9)
H49_3 H 0.3028 0.1379 0.8151
H50_3 H 0.2713 0.1716 0.8393
H51_3 H 0.2726 0.1507 0.7603
C50_3 C 0.3660(3) 0.1630(5) 0.7966(8)
H52_3 H 0.3506 0.1369 0.8119
H53_3 H 0.3799 0.1521 0.7562
H54_3 H 0.3813 0.1719 0.8358
C51_3 C 0.40215(12) 0.2500(4) 0.7500(3)
C52_3 C 0.16932(14) 0.2500(3) 0.2500(2)
C53_3 C 0.20924(14) 0.2500(2) 0.2500(2)
C54_3 C 0.22739(14) 0.2910(3) 0.2255(2)
C55_3 C 0.26440(14) 0.2907(3) 0.2234(2)
C56_3 C 0.28318(14) 0.2500(3) 0.2500(2)
C57_3 C 0.20665(16) 0.3375(3) 0.2022(2)
H55_3 H 0.1818 0.3314 0.2069
H56_3 H 0.2132 0.3647 0.2324
H57_3 H 0.2120 0.3451 0.1527
C58_3 C 0.28267(16) 0.3360(3) 0.1917(2)
H58_3 H 0.2652 0.3595 0.1766
H59_3 H 0.2976 0.3506 0.2277
H60_3 H 0.2967 0.3264 0.1508
C59_3 C 0.34537(17) 0.2575(3) 0.1745(3)
C60_3 C 0.33596(15) 0.2294(3) 0.1146(3)
C61_3 C 0.35401(16) 0.2352(2) 0.0497(3)
C62_3 C 0.38147(16) 0.2689(2) 0.0447(3)
C63_3 C 0.39088(16) 0.2969(2) 0.1046(3)
C64_3 C 0.37283(17) 0.2912(3) 0.1695(3)
C65_3 C 0.3082(2) 0.1882(4) 0.1180(5)
H61_3 H 0.2975 0.1878 0.1651
H62_3 H 0.2904 0.1940 0.0820
H63_3 H 0.3193 0.1571 0.1090
C67_3 C 0.4219(2) 0.3358(4) 0.0981(5)
H67_3 H 0.4314 0.3350 0.0500
H68_3 H 0.4130 0.3682 0.1082
H69_3 H 0.4401 0.3278 0.1323
C68_3 C 0.3843(3) 0.3244(4) 0.2335(4)
H70_3 H 0.4036 0.3449 0.2187
H71_3 H 0.3648 0.3448 0.2481
H72_3 H 0.3915 0.3042 0.2734
C73_3 C 0.0495(4) 0.2500 0.2500
O1_3 O 0.0094(2) 0.3207(3) 0.4448(5)
O2_3 O 0.0653(2) 0.3014(3) 0.4679(5)
O7_3 O 0.1472(3) 0.2999(4) 0.4581(5)
O8_3 O 0.1418(3) 0.2209(4) 0.4781(6)
O10_3 O 0.1548(2) 0.2507(4) 0.3100(5)
O14_3 O 0.1090(3) 0.1607(4) 0.3356(6)
O16_3 O 0.0343(2) 0.2539(3) 0.3110(4)
O17_3 O 0.1063(3) 0.3400(4) 0.3252(6)
B1_3 B 0.0325(4) 0.4366(5) 0.7558(8)
B2_3 B 0.2468(6) 0.2500 0.7500
B3_3 B 0.3250(6) 0.2500 0.2500
C74_3 C 0.1279(11) 0.1053(17) 0.460(3)
H80_3 H 0.1378 0.0795 0.4887
H81_3 H 0.1466 0.1246 0.4390
H82_3 H 0.1133 0.1260 0.4890
C75_3 C 0.0795(11) 0.0464(16) 0.427(3)
H83_3 H 0.0658 0.0335 0.3879
H84_3 H 0.0916 0.0199 0.4510
H85_3 H 0.0642 0.0625 0.4612
N2_3 N 0.1058(13) 0.0827(13) 0.3987(19)
C76_3 C 0.0897(9) 0.1230(12) 0.352(3)
H86_3 H 0.0664 0.1208 0.3366
C78_3 C 0.18189(9) 0.2341(2) 0.9463(2)
C79_3 C 0.17325(10) 0.2081(2) 0.8841(2)
C80_3 C 0.19485(11) 0.2109(2) 0.8235(2)
C81_3 C 0.22508(10) 0.23982(18) 0.8251(2)
C82_3 C 0.23372(10) 0.26590(16) 0.8873(2)
C83_3 C 0.21213(9) 0.26306(16) 0.9480(2)
C84_3 C 0.13890(12) 0.1767(3) 0.8804(3)
H87_3 H 0.1269 0.1783 0.9261
H88_3 H 0.1238 0.1894 0.8431
H89_3 H 0.1448 0.1431 0.8698
C85_3 C 0.18612(14) 0.1774(2) 0.7573(2)
H90_3 H 0.2030 0.1831 0.7196
H91_3 H 0.1870 0.1435 0.7717
H92_3 H 0.1629 0.1850 0.7398
C86_3 C 0.26662(12) 0.30142(17) 0.8917(2)
H93_3 H 0.2794 0.3002 0.8469
H94_3 H 0.2587 0.3345 0.9004
H95_3 H 0.2818 0.2912 0.9305
C88_3 C 0.30720(13) 0.2912(3) 0.7250(2)
C89_3 C 0.34385(13) 0.2921(3) 0.7258(3)
C90_3 C 0.2865(4) 0.3371(6) 0.7002(9)
H99_3 H 0.3028 0.3621 0.6849
H100_3 H 0.2713 0.3284 0.6607
H101_3 H 0.2726 0.3493 0.7397
C91_3 C 0.3660(3) 0.3370(5) 0.7034(8)
H102_3 H 0.3506 0.3631 0.6881
H103_3 H 0.3799 0.3479 0.7438
H104_3 H 0.3813 0.3281 0.6642
C92_3 C 0.22739(14) 0.2090(3) 0.2745(2)
C93_3 C 0.26440(14) 0.2093(3) 0.2766(2)
C94_3 C 0.20665(16) 0.1625(3) 0.2978(2)
H105_3 H 0.1818 0.1686 0.2931
H106_3 H 0.2132 0.1353 0.2676
H107_3 H 0.2120 0.1549 0.3473
C95_3 C 0.28267(16) 0.1640(3) 0.3083(2)
H108_3 H 0.2652 0.1405 0.3234
H109_3 H 0.2976 0.1494 0.2723
H110_3 H 0.2967 0.1736 0.3492
C96_3 C 0.34537(17) 0.2425(3) 0.3255(3)
C97_3 C 0.33596(15) 0.2706(3) 0.3854(3)
C98_3 C 0.35401(16) 0.2648(2) 0.4503(3)
C99_3 C 0.38147(16) 0.2311(2) 0.4553(3)
C100_3 C 0.39088(16) 0.2031(2) 0.3954(3)
C101_3 C 0.37283(17) 0.2088(3) 0.3305(3)
C102_3 C 0.3082(2) 0.3118(4) 0.3820(5)
H111_3 H 0.2975 0.3122 0.3349
H112_3 H 0.2904 0.3060 0.4180
H113_3 H 0.3193 0.3429 0.3910
C103_3 C 0.3447(2) 0.2978(3) 0.5153(4)
H114_3 H 0.3253 0.3188 0.5028
H115_3 H 0.3383 0.2775 0.5558
H116_3 H 0.3647 0.3176 0.5279
C104_3 C 0.4219(2) 0.1642(4) 0.4019(5)
H117_3 H 0.4314 0.1650 0.4500
H118_3 H 0.4130 0.1318 0.3918
H119_3 H 0.4401 0.1722 0.3677
C105_3 C 0.3843(3) 0.1756(4) 0.2665(4)
H120_3 H 0.4036 0.1551 0.2813
H121_3 H 0.3648 0.1552 0.2519
H122_3 H 0.3915 0.1958 0.2266
C106_3 C 0.4000(2) 0.2244(4) 0.5256(3)
O22_3 O 0.3791(3) 0.2111(5) 0.5812(6)
C108_3 C 0.03514(15) 0.14738(19) 0.9475(3)
C109_3 C 0.01169(13) 0.16029(17) 0.8929(3)
C110_3 C 0.01006(13) 0.13246(18) 0.8299(3)
C111_3 C 0.03188(15) 0.09172(18) 0.8214(3)
C112_3 C 0.05533(13) 0.07881(16) 0.8760(3)
C113_3 C 0.05696(13) 0.10664(18) 0.9391(3)
C116_3 C 0.08298(19) 0.0382(2) 0.8644(4)
H129_3 H 0.0787 0.0221 0.8190
H130_3 H 0.1061 0.0526 0.8640
H131_3 H 0.0814 0.0146 0.9030
H132_3 H 0.0944 0.0617 0.9887
C118_3 C 0.03057(15) 0.00411(14) 0.7406(3)
C127_3 C 0.08768(17) 0.0049(2) 0.6659(4)
H145_3 H 0.0792 0.0284 0.6313
H146_3 H 0.1013 0.0215 0.7023
C129_3 C 0.03421(13) 0.09561(15) 0.6708(2)
C130_3 C 0.01287(13) 0.08447(16) 0.6119(2)
C131_3 C 0.01297(11) 0.11485(15) 0.5514(2)
C132_3 C 0.03440(12) 0.15637(15) 0.5498(2)
C133_3 C 0.05574(11) 0.16751(14) 0.6087(2)
C134_3 C 0.05564(11) 0.13713(14) 0.6692(2)
C137_3 C 0.07704(16) 0.21599(18) 0.6103(3)
H153_3 H 0.0745 0.2327 0.5649
H154_3 H 0.0684 0.2366 0.6485
H155_3 H 0.1015 0.2087 0.6185
C138_3 C 0.08351(12) 0.14764(19) 0.7278(2)
H156_3 H 0.0809 0.1245 0.7667
H157_3 H 0.1067 0.1445 0.7073
H158_3 H 0.0804 0.1805 0.7460
C139_3 C 0.03479(18) 0.1899(2) 0.4840(2)
O29_3 O 0.0630(2) 0.1917(3) 0.4486(5)
O30_3 O 0.0069(2) 0.2128(3) 0.4688(4)
B4_3 B 0.0325(4) 0.0634(5) 0.7442(8)
C66_3 C 0.3447(2) 0.2022(3) 0.9847(4)
H64_3 H 0.3253 0.1812 0.9972
H65_3 H 0.3383 0.2225 0.9442
H66_3 H 0.3647 0.1824 0.9721
C69_3 C 0.4000(2) 0.2756(4) 0.9744(3)
O11_3 O 0.3791(3) 0.2889(5) 0.9188(6)
C119_3 C 0.00309(13) 0.97872(16) 0.7735(3)
C120_3 C 0.00112(12) 0.92775(16) 0.7677(3)
C121_3 C 0.02663(13) 0.90216(14) 0.7290(3)
C122_3 C 0.05411(12) 0.92755(16) 0.6960(3)
C123_3 C 0.05608(13) 0.97853(16) 0.7018(3)
C126_3 C 0.08273(16) 0.8988(2) 0.6539(4)
H141_3 H 0.0774 0.8642 0.6552
H142_3 H 0.0832 0.9099 0.6046
H143_3 H 0.1053 0.9044 0.6759
H144_3 H 0.1022 0.9810 0.6418
C128_3 C 0.02502(19) 0.84628(14) 0.7240(5)
C30_3 C 0.99156(14) 0.3989(2) 0.0172(3)
H28_3 H 0.9947 0.3738 0.0533
H29_3 H 0.9997 0.4299 0.0357
H30_3 H 0.9670 0.4014 0.0050
C140_3 C 0.9645(6) 0.0530(8) 0.0172(13)
H160_3 H 0.9890 0.0622 0.0181
H161_3 H 0.9592 0.0334 0.0590
C142_3 C 0.9471(5) 0.1293(8) 0.0795(10)
H165_3 H 0.9596 0.1190 0.1201
O31_3 O 0.9339(3) 0.1712(5) 0.0786(7)
N3_3 N 0.9435(4) 0.0959(6) 0.0177(8)
C8_3 C 0.9890(2) 0.2918(2) 0.6017(4)
H1_3 H 0.9928 0.2766 0.5554
H2_3 H 0.9958 0.2694 0.6394
H3_3 H 0.9645 0.3000 0.6068
C9_3 C 0.98141(19) 0.3542(3) 0.7253(4)
H4_3 H 0.9693 0.3250 0.7097
H5_3 H 0.9921 0.3484 0.7716
H6_3 H 0.9649 0.3809 0.7291
C18_3 C 0.97298(18) 0.4940(2) 0.6856(4)
H13_3 H 0.9776 0.4592 0.6856
H14_3 H 0.9509 0.5002 0.7094
H15_3 H 0.9718 0.5056 0.6367
C19_3 C 0.96947(16) 0.6011(2) 0.7001(4)
H16_3 H 0.9725 0.6356 0.7092
H17_3 H 0.9683 0.5954 0.6489
H18_3 H 0.9480 0.5900 0.7224
C29_3 C 0.98516(19) 0.4573(2) 0.8864(3)
H25_3 H 0.9876 0.4757 0.8424
H26_3 H 0.9619 0.4433 0.8889
H27_3 H 0.9888 0.4788 0.9270
C70_3 C 0.9645(6) 0.4470(8) 0.4828(13)
H73_3 H 0.9597 0.4656 0.5258
H74_3 H 0.9890 0.4378 0.4819
H75_3 H 0.9592 0.4666 0.4410
C71_3 C 0.9242(6) 0.3894(8) 0.5416(12)
H76_3 H 0.9244 0.4151 0.5773
H77_3 H 0.9004 0.3827 0.5272
H78_3 H 0.9345 0.3602 0.5618
C72_3 C 0.9471(5) 0.3707(8) 0.4205(10)
H79_3 H 0.9596 0.3810 0.3799
O13_3 O 0.9339(3) 0.3288(5) 0.4214(7)
N1_3 N 0.9435(4) 0.4041(6) 0.4823(8)
C114_3 C 0.9890(2) 0.2082(2) 0.8983(4)
H123_3 H 0.9928 0.2234 0.9446
H124_3 H 0.9958 0.2306 0.8606
H125_3 H 0.9645 0.2000 0.8932
C115_3 C 0.98141(19) 0.1458(3) 0.7747(4)
H126_3 H 0.9693 0.1750 0.7903
H127_3 H 0.9921 0.1516 0.7284
H128_3 H 0.9649 0.1191 0.7709
C124_3 C 0.97298(18) 0.0060(2) 0.8144(4)
H135_3 H 0.9776 0.0408 0.8144
C135_3 C 0.98516(19) 0.0427(2) 0.6136(3)
H147_3 H 0.9876 0.0243 0.6576
H148_3 H 0.9619 0.0567 0.6111
H149_3 H 0.9888 0.0212 0.5730
C136_3 C 0.99156(14) 0.1011(2) 0.4828(3)
H150_3 H 0.9947 0.1262 0.4467
H151_3 H 0.9997 0.0701 0.4643
H152_3 H 0.9670 0.0986 0.4950
H159_3 H 0.9597 0.0344 0.9742
C141_3 C 0.9242(6) 0.1106(8) 0.9584(12)
H162_3 H 0.9244 0.0849 0.9227
H163_3 H 0.9004 0.1173 0.9728
H164_3 H 0.9345 0.1398 0.9382
C119_4 C 0.49691(13) 0.02128(16) 0.7735(3)
C120_4 C 0.49888(12) 0.07225(16) 0.7677(3)
C121_4 C 0.47337(13) 0.09784(14) 0.7290(3)
C122_4 C 0.44589(12) 0.07245(16) 0.6960(3)
C123_4 C 0.44392(13) 0.02147(16) 0.7018(3)
H136_3 H 0.5491 0.0002 0.7906
H137_3 H 0.5282 0.0056 0.8633
C125_3 C 0.53053(16) 0.1011(2) 0.7999(4)
H138_3 H 0.5275 0.1356 0.7908
H139_3 H 0.5317 0.0954 0.8511
H140_3 H 0.5520 0.0900 0.7776
C126_4 C 0.41727(16) 0.1012(2) 0.6539(4)
H141_4 H 0.4226 0.1358 0.6552
H142_4 H 0.4168 0.0901 0.6046
H143_4 H 0.3947 0.0956 0.6759
H144_4 H 0.3978 0.0190 0.6418
C128_4 C 0.47498(19) 0.15372(14) 0.7240(5)
C30_4 C 0.50844(14) 0.6011(2) 0.0172(3)
H28_4 H 0.5053 0.6262 0.0533
H29_4 H 0.5003 0.5701 0.0357
H30_4 H 0.5330 0.5986 0.0050
C33_4 C 0.46521(18) 0.6899(2) 0.0160(2)
O5_4 O 0.4370(2) 0.6917(3) 0.0514(5)
O6_4 O 0.4931(2) 0.7128(3) 0.0312(4)
C77_4 C 0.3444(3) 0.7620(4) 0.0070(4)
C87_4 C 0.27751(11) 0.71321(16) 0.0204(2)
H96_4 H 0.2563 0.6944 0.0142
H97_4 H 0.2962 0.6919 0.0365
H98_4 H 0.2736 0.7385 0.0558
O18_4 O 0.3528(3) 0.7999(4) 0.0419(5)
O19_4 O 0.3582(3) 0.7209(4) 0.0219(6)
La4_2 La 0.400568(17) 0.75149(3) 0.11948(4)
C107_4 C 0.4634(3) 0.8225(4) 0.0166(6)
C117_4 C 0.4190(2) 0.9098(3) 0.0029(3)
H133_4 H 0.4031 0.8835 0.0152
H134_4 H 0.4333 0.9178 0.0441
C140_4 C 0.5355(6) 0.9470(8) 0.0172(13)
H160_4 H 0.5110 0.9378 0.0181
H161_4 H 0.5408 0.9666 0.0590
C142_4 C 0.5529(5) 0.8707(8) 0.0795(10)
H165_4 H 0.5404 0.8810 0.1201
O25_4 O 0.4906(2) 0.8207(3) 0.0552(5)
O26_4 O 0.4347(2) 0.8014(3) 0.0321(5)
O31_4 O 0.5661(3) 0.8288(5) 0.0786(7)
O32_4 O 0.3910(3) 0.6607(4) 0.1644(6)
O33_4 O 0.3937(3) 0.8400(4) 0.1748(6)
N3_4 N 0.5565(4) 0.9041(6) 0.0177(8)
C143_4 C 0.3721(11) 0.6053(17) 0.040(3)
H166_4 H 0.3622 0.5795 0.0113
H167_4 H 0.3534 0.6246 0.0610
H168_4 H 0.3867 0.6260 0.0110
C144_4 C 0.4205(11) 0.5464(16) 0.073(3)
H169_4 H 0.4342 0.5335 0.1121
H170_4 H 0.4084 0.5199 0.0490
H171_4 H 0.4358 0.5625 0.0388
N4_4 N 0.3942(13) 0.5827(13) 0.1013(19)
C145_4 C 0.4103(9) 0.6230(12) 0.148(3)
H172_4 H 0.4336 0.6208 0.1634
O40_2 O 0.3452(2) 0.7507(4) 0.1900(5)
O43_2 O 0.4165(3) 0.7500 0.2500
O44_2 O 0.4657(2) 0.7539(3) 0.1890(4)
La2_4 La 0.400568(17) 0.74851(3) 0.38052(4)
C1_4 C 0.4634(3) 0.6775(4) 0.4834(6)
C2_4 C 0.46486(15) 0.64738(19) 0.5525(3)
C3_4 C 0.48831(13) 0.66029(17) 0.6071(3)
C4_4 C 0.48994(13) 0.63246(18) 0.6701(3)
C5_4 C 0.46812(15) 0.59172(18) 0.6786(3)
C6_4 C 0.44467(13) 0.57881(16) 0.6240(3)
C7_4 C 0.44304(13) 0.60664(18) 0.5609(3)
C8_4 C 0.5110(2) 0.7082(2) 0.6017(4)
H1_4 H 0.5072 0.7234 0.5554
H2_4 H 0.5042 0.7306 0.6394
H3_4 H 0.5355 0.7000 0.6068
C9_4 C 0.51859(19) 0.6458(3) 0.7253(4)
H4_4 H 0.5307 0.6750 0.7097
H5_4 H 0.5079 0.6516 0.7716
H6_4 H 0.5351 0.6191 0.7291
C10_4 C 0.41702(19) 0.5382(2) 0.6356(4)
H7_4 H 0.4213 0.5221 0.6810
H8_4 H 0.3939 0.5526 0.6360
H9_4 H 0.4186 0.5146 0.5970
C11_4 C 0.4190(2) 0.5902(3) 0.4971(3)
H10_4 H 0.4056 0.5617 0.5113
H11_4 H 0.4031 0.6165 0.4848
H12_4 H 0.4333 0.5822 0.4559
C12_4 C 0.46943(15) 0.50411(14) 0.7594(3)
C13_4 C 0.49691(13) 0.47872(16) 0.7265(3)
C14_4 C 0.49888(12) 0.42775(16) 0.7323(3)
C15_4 C 0.47337(13) 0.40216(14) 0.7710(3)
C16_4 C 0.44589(12) 0.42755(16) 0.8040(3)
C17_4 C 0.44392(13) 0.47853(16) 0.7982(3)
C18_4 C 0.52702(18) 0.5060(2) 0.6856(4)
H13_4 H 0.5224 0.5408 0.6856
H14_4 H 0.5491 0.4998 0.7094
H15_4 H 0.5282 0.4944 0.6367
C19_4 C 0.53053(16) 0.3989(2) 0.7001(4)
H16_4 H 0.5275 0.3644 0.7092
H17_4 H 0.5317 0.4046 0.6489
H18_4 H 0.5520 0.4100 0.7224
C20_4 C 0.41727(16) 0.3988(2) 0.8461(4)
H19_4 H 0.4226 0.3642 0.8448
H20_4 H 0.4168 0.4099 0.8954
H21_4 H 0.3947 0.4044 0.8241
C21_4 C 0.41232(17) 0.5049(2) 0.8341(4)
H22_4 H 0.3978 0.4810 0.8582
H23_4 H 0.4208 0.5284 0.8687
H24_4 H 0.3987 0.5215 0.7977
C22_4 C 0.47498(19) 0.34628(14) 0.7760(5)
C23_4 C 0.46579(13) 0.59561(15) 0.8292(2)
C24_4 C 0.48713(13) 0.58447(16) 0.8881(2)
C25_4 C 0.48703(11) 0.61485(15) 0.9486(2)
C26_4 C 0.46560(12) 0.65637(15) 0.9502(2)
C27_4 C 0.44426(11) 0.66751(14) 0.8913(2)
C28_4 C 0.44436(11) 0.63713(14) 0.8308(2)
C29_4 C 0.51484(19) 0.5427(2) 0.8864(3)
H25_4 H 0.5124 0.5243 0.8424
H26_4 H 0.5381 0.5567 0.8889
H27_4 H 0.5112 0.5212 0.9270
C31_4 C 0.42296(16) 0.71599(18) 0.8897(3)
H31_4 H 0.4255 0.7327 0.9351
H32_4 H 0.4316 0.7366 0.8515
H33_4 H 0.3985 0.7087 0.8815
C32_4 C 0.41649(12) 0.64764(19) 0.7722(2)
H34_4 H 0.4191 0.6245 0.7333
H35_4 H 0.3933 0.6445 0.7927
H36_4 H 0.4196 0.6805 0.7540
C34_4 C 0.3444(3) 0.7380(4) 0.4930(4)
C35_4 C 0.31811(9) 0.7341(2) 0.5537(2)
C36_4 C 0.32675(10) 0.7081(2) 0.6159(2)
C37_4 C 0.30515(11) 0.7109(2) 0.6765(2)
C38_4 C 0.27492(10) 0.73982(18) 0.6749(2)
C39_4 C 0.26628(10) 0.76590(16) 0.6127(2)
C40_4 C 0.28787(9) 0.76306(16) 0.5520(2)
C41_4 C 0.36110(12) 0.6767(3) 0.6196(3)
H37_4 H 0.3731 0.6783 0.5739
H38_4 H 0.3762 0.6894 0.6569
H39_4 H 0.3552 0.6431 0.6302
C42_4 C 0.31388(14) 0.6774(2) 0.7427(2)
H40_4 H 0.2970 0.6831 0.7804
H41_4 H 0.3130 0.6435 0.7283
H42_4 H 0.3371 0.6850 0.7602
C43_4 C 0.23338(12) 0.80142(17) 0.6083(2)
H43_4 H 0.2206 0.8002 0.6531
H44_4 H 0.2413 0.8345 0.5996
H45_4 H 0.2182 0.7912 0.5695
C44_4 C 0.27751(11) 0.78679(16) 0.4796(2)
H46_4 H 0.2563 0.8056 0.4858
H47_4 H 0.2962 0.8081 0.4635
H48_4 H 0.2736 0.7615 0.4442
C45_4 C 0.21137(12) 0.7500(2) 0.7500(2)
C46_4 C 0.19280(13) 0.7912(3) 0.7750(2)
C47_4 C 0.15615(13) 0.7921(3) 0.7742(3)
C48_4 C 0.13833(12) 0.7500(3) 0.7500(3)
C49_4 C 0.2135(4) 0.8371(6) 0.7998(9)
H49_4 H 0.1972 0.8621 0.8151
H50_4 H 0.2287 0.8284 0.8393
H51_4 H 0.2274 0.8493 0.7603
C50_4 C 0.1340(3) 0.8370(5) 0.7966(8)
H52_4 H 0.1494 0.8631 0.8119
H53_4 H 0.1201 0.8479 0.7562
H54_4 H 0.1187 0.8281 0.8358
C51_4 C 0.09785(12) 0.7500(4) 0.7500(3)
C52_4 C 0.33068(14) 0.7500(3) 0.2500(2)
C53_4 C 0.29076(14) 0.7500(2) 0.2500(2)
C54_4 C 0.27261(14) 0.7090(3) 0.2255(2)
C55_4 C 0.23560(14) 0.7093(3) 0.2234(2)
C56_4 C 0.21682(14) 0.7500(3) 0.2500(2)
C57_4 C 0.29335(16) 0.6625(3) 0.2022(2)
H55_4 H 0.3182 0.6686 0.2069
H56_4 H 0.2868 0.6353 0.2324
H57_4 H 0.2880 0.6549 0.1527
C58_4 C 0.21733(16) 0.6640(3) 0.1917(2)
H58_4 H 0.2348 0.6405 0.1766
H59_4 H 0.2024 0.6494 0.2277
H60_4 H 0.2033 0.6736 0.1508
C59_4 C 0.15463(17) 0.7425(3) 0.1745(3)
C60_4 C 0.16404(15) 0.7706(3) 0.1146(3)
C61_4 C 0.14599(16) 0.7648(2) 0.0497(3)
C62_4 C 0.11853(16) 0.7311(2) 0.0447(3)
C63_4 C 0.10912(16) 0.7031(2) 0.1046(3)
C64_4 C 0.12717(17) 0.7088(3) 0.1695(3)
C65_4 C 0.1918(2) 0.8118(4) 0.1180(5)
H61_4 H 0.2025 0.8122 0.1651
H62_4 H 0.2096 0.8060 0.0820
H63_4 H 0.1807 0.8429 0.1090
C67_4 C 0.0781(2) 0.6642(4) 0.0981(5)
H67_4 H 0.0686 0.6650 0.0500
H68_4 H 0.0870 0.6318 0.1082
H69_4 H 0.0599 0.6722 0.1323
C68_4 C 0.1157(3) 0.6756(4) 0.2335(4)
H70_4 H 0.0964 0.6551 0.2187
H71_4 H 0.1352 0.6552 0.2481
H72_4 H 0.1085 0.6958 0.2734
C70_4 C 0.5355(6) 0.5530(8) 0.4828(13)
H73_4 H 0.5403 0.5344 0.5258
H74_4 H 0.5110 0.5622 0.4819
H75_4 H 0.5408 0.5334 0.4410
C71_4 C 0.5758(6) 0.6106(8) 0.5416(12)
H76_4 H 0.5756 0.5849 0.5773
H77_4 H 0.5996 0.6173 0.5272
H78_4 H 0.5655 0.6398 0.5618
C72_4 C 0.5529(5) 0.6293(8) 0.4205(10)
H79_4 H 0.5404 0.6190 0.3799
C73_4 C 0.4505(4) 0.7500 0.2500
O1_4 O 0.4906(2) 0.6793(3) 0.4448(5)
O2_4 O 0.4347(2) 0.6986(3) 0.4679(5)
O7_4 O 0.3528(3) 0.7001(4) 0.4581(5)
O8_4 O 0.3582(3) 0.7791(4) 0.4781(6)
O10_4 O 0.3452(2) 0.7493(4) 0.3100(5)
O13_4 O 0.5661(3) 0.6712(5) 0.4214(7)
O14_4 O 0.3910(3) 0.8393(4) 0.3356(6)
O16_4 O 0.4657(2) 0.7461(3) 0.3110(4)
O17_4 O 0.3937(3) 0.6600(4) 0.3252(6)
N1_4 N 0.5565(4) 0.5959(6) 0.4823(8)
B1_4 B 0.4675(4) 0.5634(5) 0.7558(8)
B2_4 B 0.2532(6) 0.7500 0.7500
B3_4 B 0.1750(6) 0.7500 0.2500
C74_4 C 0.3721(11) 0.8947(17) 0.460(3)
H80_4 H 0.3622 0.9205 0.4887
H81_4 H 0.3534 0.8754 0.4390
H82_4 H 0.3867 0.8740 0.4890
C75_4 C 0.4205(11) 0.9536(16) 0.427(3)
H83_4 H 0.4342 0.9665 0.3879
H84_4 H 0.4084 0.9801 0.4510
H85_4 H 0.4358 0.9375 0.4612
N2_4 N 0.3942(13) 0.9173(13) 0.3987(19)
C76_4 C 0.4103(9) 0.8770(12) 0.352(3)
H86_4 H 0.4336 0.8792 0.3366
C78_4 C 0.31811(9) 0.7659(2) 0.9463(2)
C79_4 C 0.32675(10) 0.7919(2) 0.8841(2)
C80_4 C 0.30515(11) 0.7891(2) 0.8235(2)
C81_4 C 0.27492(10) 0.76018(18) 0.8251(2)
C82_4 C 0.26628(10) 0.73410(16) 0.8873(2)
C83_4 C 0.28787(9) 0.73694(16) 0.9480(2)
C84_4 C 0.36110(12) 0.8233(3) 0.8804(3)
H87_4 H 0.3731 0.8217 0.9261
H88_4 H 0.3762 0.8106 0.8431
H89_4 H 0.3552 0.8569 0.8698
C85_4 C 0.31388(14) 0.8226(2) 0.7573(2)
H90_4 H 0.2970 0.8169 0.7196
H91_4 H 0.3130 0.8565 0.7717
H92_4 H 0.3371 0.8150 0.7398
C86_4 C 0.23338(12) 0.69858(17) 0.8917(2)
H93_4 H 0.2206 0.6998 0.8469
H94_4 H 0.2413 0.6655 0.9004
H95_4 H 0.2182 0.7088 0.9305
C88_4 C 0.19280(13) 0.7088(3) 0.7250(2)
C89_4 C 0.15615(13) 0.7079(3) 0.7258(3)
C90_4 C 0.2135(4) 0.6629(6) 0.7002(9)
H99_4 H 0.1972 0.6379 0.6849
H100_4 H 0.2287 0.6716 0.6607
H101_4 H 0.2274 0.6507 0.7397
C91_4 C 0.1340(3) 0.6630(5) 0.7034(8)
H102_4 H 0.1494 0.6369 0.6881
H103_4 H 0.1201 0.6521 0.7438
H104_4 H 0.1187 0.6719 0.6642
C92_4 C 0.27261(14) 0.7910(3) 0.2745(2)
C93_4 C 0.23560(14) 0.7907(3) 0.2766(2)
C94_4 C 0.29335(16) 0.8375(3) 0.2978(2)
H105_4 H 0.3182 0.8314 0.2931
H106_4 H 0.2868 0.8647 0.2676
H107_4 H 0.2880 0.8451 0.3473
C95_4 C 0.21733(16) 0.8360(3) 0.3083(2)
H108_4 H 0.2348 0.8595 0.3234
H109_4 H 0.2024 0.8506 0.2723
H110_4 H 0.2033 0.8264 0.3492
C96_4 C 0.15463(17) 0.7575(3) 0.3255(3)
C97_4 C 0.16404(15) 0.7294(3) 0.3854(3)
C98_4 C 0.14599(16) 0.7352(2) 0.4503(3)
C99_4 C 0.11853(16) 0.7689(2) 0.4553(3)
C100_4 C 0.10912(16) 0.7969(2) 0.3954(3)
C101_4 C 0.12717(17) 0.7912(3) 0.3305(3)
C102_4 C 0.1918(2) 0.6882(4) 0.3820(5)
H111_4 H 0.2025 0.6878 0.3349
H112_4 H 0.2096 0.6940 0.4180
H113_4 H 0.1807 0.6571 0.3910
C103_4 C 0.1553(2) 0.7022(3) 0.5153(4)
H114_4 H 0.1747 0.6812 0.5028
H115_4 H 0.1617 0.7225 0.5558
H116_4 H 0.1353 0.6824 0.5279
C104_4 C 0.0781(2) 0.8358(4) 0.4019(5)
H117_4 H 0.0686 0.8350 0.4500
H118_4 H 0.0870 0.8682 0.3918
H119_4 H 0.0599 0.8278 0.3677
C105_4 C 0.1157(3) 0.8244(4) 0.2665(4)
H120_4 H 0.0964 0.8449 0.2813
H121_4 H 0.1352 0.8448 0.2519
H122_4 H 0.1085 0.8042 0.2266
C106_4 C 0.1000(2) 0.7756(4) 0.5256(3)
O22_4 O 0.1209(3) 0.7889(5) 0.5812(6)
C108_4 C 0.46486(15) 0.85262(19) 0.9475(3)
C109_4 C 0.48831(13) 0.83971(17) 0.8929(3)
C110_4 C 0.48994(13) 0.86754(18) 0.8299(3)
C111_4 C 0.46812(15) 0.90828(18) 0.8214(3)
C112_4 C 0.44467(13) 0.92119(16) 0.8760(3)
C113_4 C 0.44304(13) 0.89336(18) 0.9391(3)
C114_4 C 0.5110(2) 0.7918(2) 0.8983(4)
H123_4 H 0.5072 0.7766 0.9446
H124_4 H 0.5042 0.7694 0.8606
H125_4 H 0.5355 0.8000 0.8932
C115_4 C 0.51859(19) 0.8542(3) 0.7747(4)
H126_4 H 0.5307 0.8250 0.7903
H127_4 H 0.5079 0.8484 0.7284
H128_4 H 0.5351 0.8809 0.7709
C116_4 C 0.41702(19) 0.9618(2) 0.8644(4)
H129_4 H 0.4213 0.9779 0.8190
H130_4 H 0.3939 0.9474 0.8640
H131_4 H 0.4186 0.9854 0.9030
H132_4 H 0.4056 0.9383 0.9887
C118_4 C 0.46943(15) 0.99589(14) 0.7406(3)
C124_4 C 0.52702(18) 0.9940(2) 0.8144(4)
H135_4 H 0.5224 0.9592 0.8144
C127_4 C 0.41232(17) 0.9951(2) 0.6659(4)
H145_4 H 0.4208 0.9716 0.6313
H146_4 H 0.3987 0.9785 0.7023
C129_4 C 0.46579(13) 0.90439(15) 0.6708(2)
C130_4 C 0.48713(13) 0.91553(16) 0.6119(2)
C131_4 C 0.48703(11) 0.88515(15) 0.5514(2)
C132_4 C 0.46560(12) 0.84363(15) 0.5498(2)
C133_4 C 0.44426(11) 0.83249(14) 0.6087(2)
C134_4 C 0.44436(11) 0.86287(14) 0.6692(2)
C135_4 C 0.51484(19) 0.9573(2) 0.6136(3)
H147_4 H 0.5124 0.9757 0.6576
H148_4 H 0.5381 0.9433 0.6111
H149_4 H 0.5112 0.9788 0.5730
C136_4 C 0.50844(14) 0.8989(2) 0.4828(3)
H150_4 H 0.5053 0.8738 0.4467
H151_4 H 0.5003 0.9299 0.4643
H152_4 H 0.5330 0.9014 0.4950
C137_4 C 0.42296(16) 0.78401(18) 0.6103(3)
H153_4 H 0.4255 0.7673 0.5649
H154_4 H 0.4316 0.7634 0.6485
H155_4 H 0.3985 0.7913 0.6185
C138_4 C 0.41649(12) 0.85236(19) 0.7278(2)
H156_4 H 0.4191 0.8755 0.7667
H157_4 H 0.3933 0.8555 0.7073
H158_4 H 0.4196 0.8195 0.7460
C139_4 C 0.46521(18) 0.8101(2) 0.4840(2)
H159_4 H 0.5403 0.9656 0.9742
C141_4 C 0.5758(6) 0.8894(8) 0.9584(12)
H162_4 H 0.5756 0.9151 0.9227
H163_4 H 0.5996 0.8827 0.9728
H164_4 H 0.5655 0.8602 0.9382
O29_4 O 0.4370(2) 0.8083(3) 0.4486(5)
O30_4 O 0.4931(2) 0.7872(3) 0.4688(4)
B4_4 B 0.4675(4) 0.9366(5) 0.7442(8)
C66_4 C 0.1553(2) 0.7978(3) 0.9847(4)
H64_4 H 0.1747 0.8188 0.9972
H65_4 H 0.1617 0.7775 0.9442
H66_4 H 0.1353 0.8176 0.9721
C69_4 C 0.1000(2) 0.7244(4) 0.9744(3)
O11_4 O 0.1209(3) 0.7111(5) 0.9188(6)
H136_4 H 0.9509 0.9998 0.7906
H137_4 H 0.9718 0.9944 0.8633
C125_4 C 0.96947(16) 0.8989(2) 0.7999(4)
H138_4 H 0.9725 0.8644 0.7908
H139_4 H 0.9683 0.9046 0.8511
H140_4 H 0.9480 0.9100 0.7776
N5 N 0.7964(10) 0.6246(13) 0.592(2)
C146 C 0.8344(11) 0.6066(17) 0.602(2)
H173 H 0.8423 0.6145 0.6497
H174 H 0.8493 0.6224 0.5669
H175 H 0.8352 0.5716 0.5949
C147 C 0.7799(11) 0.6139(19) 0.519(2)
H176 H 0.7561 0.6261 0.5180
H177 H 0.7798 0.5791 0.5103
H178 H 0.7933 0.6300 0.4815
H181 H 0.796187 0.661644 0.599425
H182 H 0.781295 0.608277 0.630472
N5_2 N 0.7036(10) 0.3754(13) 0.592(2)
C146_2 C 0.6656(11) 0.3934(17) 0.602(2)
H173_2 H 0.6577 0.3855 0.6497
H174_2 H 0.6507 0.3776 0.5669
H175_2 H 0.6648 0.4284 0.5949
C147_2 C 0.7201(11) 0.3861(19) 0.519(2)
H176_2 H 0.7439 0.3739 0.5180
H177_2 H 0.7202 0.4209 0.5103
H178_2 H 0.7067 0.3700 0.4815
H181_2 H 0.703813 0.338356 0.599425
H182_2 H 0.718705 0.391723 0.630472
H178_3 H 0.7933 0.8700 0.0185
N5_3 N 0.7964(10) 0.8754(13) 0.908(2)
C146_3 C 0.8344(11) 0.8934(17) 0.898(2)
H173_3 H 0.8423 0.8855 0.8503
H174_3 H 0.8493 0.8776 0.9331
H175_3 H 0.8352 0.9284 0.9051
C147_3 C 0.7799(11) 0.8861(19) 0.981(2)
H176_3 H 0.7561 0.8739 0.9820
H177_3 H 0.7798 0.9209 0.9897
H181_3 H 0.796187 0.838356 0.900575
H182_3 H 0.781295 0.891723 0.869528
H178_4 H 0.7067 0.1300 0.0185
N5_4 N 0.7036(10) 0.1246(13) 0.908(2)
C146_4 C 0.6656(11) 0.1066(17) 0.898(2)
H173_4 H 0.6577 0.1145 0.8503
H174_4 H 0.6507 0.1224 0.9331
H175_4 H 0.6648 0.0716 0.9051
C147_4 C 0.7201(11) 0.1139(19) 0.981(2)
H176_4 H 0.7439 0.1261 0.9820
H177_4 H 0.7202 0.0791 0.9897
H181_4 H 0.703813 0.161644 0.900575
H182_4 H 0.718705 0.108277 0.869528
N5_5 N 0.2036(10) 0.3754(13) 0.408(2)
C146_5 C 0.1656(11) 0.3934(17) 0.398(2)
H173_5 H 0.1577 0.3855 0.3503
H174_5 H 0.1507 0.3776 0.4331
H175_5 H 0.1648 0.4284 0.4051
C147_5 C 0.2201(11) 0.3861(19) 0.481(2)
H176_5 H 0.2439 0.3739 0.4820
H177_5 H 0.2202 0.4209 0.4897
H178_5 H 0.2067 0.3700 0.5185
H181_5 H 0.203813 0.338356 0.400575
H182_5 H 0.218705 0.391723 0.369528
N5_6 N 0.2964(10) 0.6246(13) 0.408(2)
C146_6 C 0.3344(11) 0.6066(17) 0.398(2)
H173_6 H 0.3423 0.6145 0.3503
H174_6 H 0.3493 0.6224 0.4331
H175_6 H 0.3352 0.5716 0.4051
C147_6 C 0.2799(11) 0.6139(19) 0.481(2)
H176_6 H 0.2561 0.6261 0.4820
H177_6 H 0.2798 0.5791 0.4897
H178_6 H 0.2933 0.6300 0.5185
H181_6 H 0.296187 0.661644 0.400575
H182_6 H 0.281295 0.608277 0.369528
N5_7 N 0.2036(10) 0.1246(13) 0.092(2)
C146_7 C 0.1656(11) 0.1066(17) 0.102(2)
H173_7 H 0.1577 0.1145 0.1497
H174_7 H 0.1507 0.1224 0.0669
H175_7 H 0.1648 0.0716 0.0949
C147_7 C 0.2201(11) 0.1139(19) 0.019(2)
H176_7 H 0.2439 0.1261 0.0180
H177_7 H 0.2202 0.0791 0.0103
H181_7 H 0.203813 0.161644 0.0994252
H182_7 H 0.218705 0.108277 0.130472
H178_7 H 0.2067 0.1300 0.9815
N5_8 N 0.2964(10) 0.8754(13) 0.092(2)
C146_8 C 0.3344(11) 0.8934(17) 0.102(2)
H173_8 H 0.3423 0.8855 0.1497
H174_8 H 0.3493 0.8776 0.0669
H175_8 H 0.3352 0.9284 0.0949
C147_8 C 0.2799(11) 0.8861(19) 0.019(2)
H176_8 H 0.2561 0.8739 0.0180
H177_8 H 0.2798 0.9209 0.0103
H181_8 H 0.296187 0.838356 0.0994252
H182_8 H 0.281295 0.891723 0.130472
H178_8 H 0.2933 0.8700 0.9815
loop_
_geom_bond_atom_site_label_1
_geom_bond_atom_site_label_2
_geom_bond_site_symmetry_1
_geom_bond_site_symmetry_2
H138 C125 1_555 1_555
H139 C125 1_555 1_555
H140 C125 1_555 1_555
H1 C8 1_555 1_555
H2 C8 1_555 1_555
H3 C8 1_555 1_555
H4 C9 1_555 1_555
H5 C9 1_555 1_555
H6 C9 1_555 1_555
H13 C18 1_555 1_555
H14 C18 1_555 1_555
H15 C18 1_555 1_555
H16 C19 1_555 1_555
H17 C19 1_555 1_555
H18 C19 1_555 1_555
H25 C29 1_555 1_555
H26 C29 1_555 1_555
H27 C29 1_555 1_555
C70 H73 1_555 1_555
H74 C70 1_555 1_555
H75 C70 1_555 1_555
C71 H76 1_555 1_555
H77 C71 1_555 1_555
H78 C71 1_555 1_555
C72 H79 1_555 1_555
O13 La1 1_555 1_555
N1 C70 1_555 1_555
H123 C114 1_555 1_555
H124 C114 1_555 1_555
H125 C114 1_555 1_555
H126 C115 1_555 1_555
H127 C115 1_555 1_555
H128 C115 1_555 1_555
H135 C124 1_555 1_555
H147 C135 1_555 1_555
H148 C135 1_555 1_555
H149 C135 1_555 1_555
H150 C136 1_555 1_555
H151 C136 1_555 1_555
H152 C136 1_555 1_555
C141 H162 1_555 1_555
H163 C141 1_555 1_555
H164 C141 1_555 1_555
O34 La1 1_555 1_555
O37 La1 1_555 1_555
O39 La1 1_555 1_555
O42 La1 1_555 1_555
C71 N1 1_555 1_555
C72 O13 1_555 1_555
C72 N1 1_555 1_555
H28 C30 1_555 1_555
H29 C30 1_555 1_555
H30 C30 1_555 1_555
H160 C140 1_555 1_555
H161 C140 1_555 1_555
C142 H165 1_555 1_555
O31 La5 1_555 1_555
N3 C140 1_555 1_555
O35 La5 1_555 1_555
O36 La5 1_555 1_555
O38 La5 1_555 1_555
O41 La5 1_555 1_555
C142 O31 1_555 1_555
C142 N3 1_555 1_555
C119 C120 1_555 1_555
C120 C121 1_555 1_555
C121 C122 1_555 1_555
C122 C123 1_555 1_555
C126 C122 1_555 1_555
H141 C126 1_555 1_555
H142 C126 1_555 1_555
H143 C126 1_555 1_555
C128 C121 1_555 1_555
O27 C128 1_555 1_555
O28 C128 1_555 1_555
La7 O28 1_555 1_555
La10 O27 1_555 1_555
H64 C66 1_555 1_555
H65 C66 1_555 1_555
H66 C66 1_555 1_555
O11 C69 1_555 1_555
O12 C69 1_555 1_555
La12 O12 1_555 1_555
La2 O2 1_555 1_555
C1 C2 1_555 1_555
C2 C3 1_555 1_555
C3 C4 1_555 1_555
C4 C5 1_555 1_555
C5 C6 1_555 1_555
C6 C7 1_555 1_555
C7 C2 1_555 1_555
C10 C6 1_555 1_555
H7 C10 1_555 1_555
H8 C10 1_555 1_555
H9 C10 1_555 1_555
C11 C7 1_555 1_555
H10 C11 1_555 1_555
H11 C11 1_555 1_555
H12 C11 1_555 1_555
C12 C13 1_555 1_555
C13 C14 1_555 1_555
C14 C15 1_555 1_555
C15 C16 1_555 1_555
C16 C17 1_555 1_555
C17 C12 1_555 1_555
C20 C16 1_555 1_555
H19 C20 1_555 1_555
H20 C20 1_555 1_555
H21 C20 1_555 1_555
C21 C17 1_555 1_555
H22 C21 1_555 1_555
H23 C21 1_555 1_555
H24 C21 1_555 1_555
C22 C15 1_555 1_555
C23 C24 1_555 1_555
C24 C25 1_555 1_555
C25 C26 1_555 1_555
C26 C27 1_555 1_555
C27 C28 1_555 1_555
C28 C23 1_555 1_555
C31 C27 1_555 1_555
H31 C31 1_555 1_555
H32 C31 1_555 1_555
H33 C31 1_555 1_555
C32 C28 1_555 1_555
H34 C32 1_555 1_555
H35 C32 1_555 1_555
H36 C32 1_555 1_555
C34 C35 1_555 1_555
C35 C36 1_555 1_555
C36 C37 1_555 1_555
C37 C38 1_555 1_555
C38 C39 1_555 1_555
C39 C40 1_555 1_555
C40 C35 1_555 1_555
C41 C36 1_555 1_555
H37 C41 1_555 1_555
H38 C41 1_555 1_555
H39 C41 1_555 1_555
C42 C37 1_555 1_555
H40 C42 1_555 1_555
H41 C42 1_555 1_555
H42 C42 1_555 1_555
C43 C39 1_555 1_555
H43 C43 1_555 1_555
H44 C43 1_555 1_555
H45 C43 1_555 1_555
C44 C40 1_555 1_555
H46 C44 1_555 1_555
H47 C44 1_555 1_555
H48 C44 1_555 1_555
C45 C46 1_555 1_555
C46 C47 1_555 1_555
C47 C48 1_555 1_555
C48 C51 1_555 1_555
C49 C46 1_555 1_555
H49 C49 1_555 1_555
H50 C49 1_555 1_555
H51 C49 1_555 1_555
C50 C47 1_555 1_555
H52 C50 1_555 1_555
H53 C50 1_555 1_555
H54 C50 1_555 1_555
C51 O9 1_555 1_555
C52 C53 1_555 1_555
C53 C54 1_555 1_555
C54 C55 1_555 1_555
C55 C56 1_555 1_555
C56 B3 1_555 1_555
C57 C54 1_555 1_555
H55 C57 1_555 1_555
H56 C57 1_555 1_555
H57 C57 1_555 1_555
C58 C55 1_555 1_555
H58 C58 1_555 1_555
H59 C58 1_555 1_555
H60 C58 1_555 1_555
C59 C60 1_555 1_555
C60 C61 1_555 1_555
C61 C62 1_555 1_555
C62 C63 1_555 1_555
C63 C64 1_555 1_555
C64 C59 1_555 1_555
C65 C60 1_555 1_555
H61 C65 1_555 1_555
H62 C65 1_555 1_555
H63 C65 1_555 1_555
C67 C63 1_555 1_555
H67 C67 1_555 1_555
H68 C67 1_555 1_555
H69 C67 1_555 1_555
C68 C64 1_555 1_555
H70 C68 1_555 1_555
H71 C68 1_555 1_555
H72 C68 1_555 1_555
C73 O15 1_555 1_555
O1 C1 1_555 1_555
O2 C1 1_555 1_555
O3 C22 1_555 1_555
O4 C22 1_555 1_555
O7 La2 1_555 1_555
O8 La2 1_555 1_555
O9 La12 1_555 1_555
O10 La2 1_555 1_555
O14 La2 1_555 1_555
O15 La2 1_555 1_555
O17 La2 1_555 1_555
B1 C5 1_555 1_555
B2 C38 1_555 1_555
B3 C59 1_555 1_555
C74 H80 1_555 1_555
H81 C74 1_555 1_555
H82 C74 1_555 1_555
C75 H83 1_555 1_555
H84 C75 1_555 1_555
H85 C75 1_555 1_555
N2 C74 1_555 1_555
C76 O14 1_555 1_555
H86 C76 1_555 1_555
C78 C79 1_555 1_555
C79 C80 1_555 1_555
C80 C81 1_555 1_555
C81 B2 1_555 1_555
C82 C81 1_555 1_555
C83 C78 1_555 1_555
C84 C79 1_555 1_555
H87 C84 1_555 1_555
H88 C84 1_555 1_555
H89 C84 1_555 1_555
C85 C80 1_555 1_555
H90 C85 1_555 1_555
H91 C85 1_555 1_555
H92 C85 1_555 1_555
C86 C82 1_555 1_555
H93 C86 1_555 1_555
H94 C86 1_555 1_555
H95 C86 1_555 1_555
C88 C45 1_555 1_555
C89 C48 1_555 1_555
C90 C88 1_555 1_555
H99 C90 1_555 1_555
H100 C90 1_555 1_555
H101 C90 1_555 1_555
C91 C89 1_555 1_555
H102 C91 1_555 1_555
H103 C91 1_555 1_555
H104 C91 1_555 1_555
O20 C51 1_555 1_555
C92 C53 1_555 1_555
C93 C56 1_555 1_555
C94 C92 1_555 1_555
H105 C94 1_555 1_555
H106 C94 1_555 1_555
H107 C94 1_555 1_555
C95 C93 1_555 1_555
H108 C95 1_555 1_555
H109 C95 1_555 1_555
H110 C95 1_555 1_555
C96 B3 1_555 1_555
C97 C96 1_555 1_555
C98 C97 1_555 1_555
C99 C98 1_555 1_555
C100 C99 1_555 1_555
C101 C96 1_555 1_555
C102 C97 1_555 1_555
H111 C102 1_555 1_555
H112 C102 1_555 1_555
H113 C102 1_555 1_555
C103 C98 1_555 1_555
H114 C103 1_555 1_555
H115 C103 1_555 1_555
H116 C103 1_555 1_555
C104 C100 1_555 1_555
H117 C104 1_555 1_555
H118 C104 1_555 1_555
H119 C104 1_555 1_555
C105 C101 1_555 1_555
H120 C105 1_555 1_555
H121 C105 1_555 1_555
H122 C105 1_555 1_555
C106 C99 1_555 1_555
O21 C52 1_555 1_555
O22 C106 1_555 1_555
O23 C106 1_555 1_555
O24 C73 1_555 1_555
C108 C109 1_555 1_555
C109 C110 1_555 1_555
C110 C111 1_555 1_555
C111 C112 1_555 1_555
C112 C113 1_555 1_555
C113 C108 1_555 1_555
C116 C112 1_555 1_555
H129 C116 1_555 1_555
H130 C116 1_555 1_555
H131 C116 1_555 1_555
H145 C127 1_555 1_555
H146 C127 1_555 1_555
C129 C130 1_555 1_555
C130 C131 1_555 1_555
C131 C132 1_555 1_555
C132 C133 1_555 1_555
C133 C134 1_555 1_555
C134 C129 1_555 1_555
C137 C133 1_555 1_555
H153 C137 1_555 1_555
H154 C137 1_555 1_555
H155 C137 1_555 1_555
C138 C134 1_555 1_555
H156 C138 1_555 1_555
H157 C138 1_555 1_555
H158 C138 1_555 1_555
C139 C132 1_555 1_555
O29 La2 1_555 1_555
B4 C111 1_555 1_555
La7 O3 1_555 1_555
La8 O20 1_555 1_555
La10 O4 1_555 1_555
La13 O15 1_555 1_555
La2 O16 1_555 1_555
C12 B1 1_555 1_555
C23 B1 1_555 1_555
C34 O7 1_555 1_555
C34 O8 1_555 1_555
C45 B2 1_555 1_555
C52 O10 1_555 1_555
C73 O16 1_555 1_555
C75 N2 1_555 1_555
N2 C76 1_555 1_555
C82 C83 1_555 1_555
C88 C89 1_555 1_555
C92 C93 1_555 1_555
C100 C101 1_555 1_555
O21 La13 1_555 1_555
O23 La8 1_555 1_555
O24 La13 1_555 1_555
C118 B4 1_555 1_555
C129 B4 1_555 1_555
C139 O29 1_555 1_555
C139 O30 1_555 1_555
O5 C33 1_555 1_555
O6 C33 1_555 1_555
H96 C87 1_555 1_555
H97 C87 1_555 1_555
H98 C87 1_555 1_555
O18 C77 1_555 1_555
O19 C77 1_555 1_555
La13 O5 1_555 1_555
H133 C117 1_555 1_555
H134 C117 1_555 1_555
O26 La13 1_555 1_555
O32 La13 1_555 1_555
O33 La13 1_555 1_555
C143 H166 1_555 1_555
H167 C143 1_555 1_555
H168 C143 1_555 1_555
C144 H169 1_555 1_555
H170 C144 1_555 1_555
H171 C144 1_555 1_555
N4 C143 1_555 1_555
C145 O32 1_555 1_555
H172 C145 1_555 1_555
O18 La13 1_555 1_555
O19 La13 1_555 1_555
C107 O25 1_555 1_555
C107 O26 1_555 1_555
C144 N4 1_555 1_555
N4 C145 1_555 1_555
H64_2 C66_2 1_555 1_555
H65_2 C66_2 1_555 1_555
H66_2 C66_2 1_555 1_555
O11_2 C69_2 1_555 1_555
O12_2 C69_2 1_555 1_555
La10 O12_2 1_555 1_555
La1_2 O1_2 1_555 1_555
La2_2 O2_2 1_555 1_555
C1_2 C2_2 1_555 1_555
C2_2 C3_2 1_555 1_555
C3_2 C4_2 1_555 1_555
C4_2 C5_2 1_555 1_555
C5_2 C6_2 1_555 1_555
C6_2 C7_2 1_555 1_555
C7_2 C2_2 1_555 1_555
C8_2 C3_2 1_555 1_555
H1_2 C8_2 1_555 1_555
H2_2 C8_2 1_555 1_555
H3_2 C8_2 1_555 1_555
C9_2 C4_2 1_555 1_555
H4_2 C9_2 1_555 1_555
H5_2 C9_2 1_555 1_555
H6_2 C9_2 1_555 1_555
C10_2 C6_2 1_555 1_555
H7_2 C10_2 1_555 1_555
H8_2 C10_2 1_555 1_555
H9_2 C10_2 1_555 1_555
C11_2 C7_2 1_555 1_555
H10_2 C11_2 1_555 1_555
H11_2 C11_2 1_555 1_555
H12_2 C11_2 1_555 1_555
C12_2 C13_2 1_555 1_555
C13_2 C14_2 1_555 1_555
C14_2 C15_2 1_555 1_555
C15_2 C16_2 1_555 1_555
C16_2 C17_2 1_555 1_555
C17_2 C12_2 1_555 1_555
C18_2 C13_2 1_555 1_555
H13_2 C18_2 1_555 1_555
H14_2 C18_2 1_555 1_555
H15_2 C18_2 1_555 1_555
C19_2 C14_2 1_555 1_555
H16_2 C19_2 1_555 1_555
H17_2 C19_2 1_555 1_555
H18_2 C19_2 1_555 1_555
C20_2 C16_2 1_555 1_555
H19_2 C20_2 1_555 1_555
H20_2 C20_2 1_555 1_555
H21_2 C20_2 1_555 1_555
C21_2 C17_2 1_555 1_555
H22_2 C21_2 1_555 1_555
H23_2 C21_2 1_555 1_555
H24_2 C21_2 1_555 1_555
C22_2 C15_2 1_555 1_555
C23_2 C24_2 1_555 1_555
C24_2 C25_2 1_555 1_555
C25_2 C26_2 1_555 1_555
C26_2 C27_2 1_555 1_555
C27_2 C28_2 1_555 1_555
C28_2 C23_2 1_555 1_555
C29_2 C24_2 1_555 1_555
H25_2 C29_2 1_555 1_555
H26_2 C29_2 1_555 1_555
H27_2 C29_2 1_555 1_555
C31_2 C27_2 1_555 1_555
H31_2 C31_2 1_555 1_555
H32_2 C31_2 1_555 1_555
H33_2 C31_2 1_555 1_555
C32_2 C28_2 1_555 1_555
H34_2 C32_2 1_555 1_555
H35_2 C32_2 1_555 1_555
H36_2 C32_2 1_555 1_555
C34_2 C35_2 1_555 1_555
C35_2 C36_2 1_555 1_555
C36_2 C37_2 1_555 1_555
C37_2 C38_2 1_555 1_555
C38_2 C39_2 1_555 1_555
C39_2 C40_2 1_555 1_555
C40_2 C35_2 1_555 1_555
C41_2 C36_2 1_555 1_555
H37_2 C41_2 1_555 1_555
H38_2 C41_2 1_555 1_555
H39_2 C41_2 1_555 1_555
C42_2 C37_2 1_555 1_555
H40_2 C42_2 1_555 1_555
H41_2 C42_2 1_555 1_555
H42_2 C42_2 1_555 1_555
C43_2 C39_2 1_555 1_555
H43_2 C43_2 1_555 1_555
H44_2 C43_2 1_555 1_555
H45_2 C43_2 1_555 1_555
C44_2 C40_2 1_555 1_555
H46_2 C44_2 1_555 1_555
H47_2 C44_2 1_555 1_555
H48_2 C44_2 1_555 1_555
C45_2 C46_2 1_555 1_555
C46_2 C47_2 1_555 1_555
C47_2 C48_2 1_555 1_555
C48_2 C51_2 1_555 1_555
C49_2 C46_2 1_555 1_555
H49_2 C49_2 1_555 1_555
H50_2 C49_2 1_555 1_555
H51_2 C49_2 1_555 1_555
C50_2 C47_2 1_555 1_555
H52_2 C50_2 1_555 1_555
H53_2 C50_2 1_555 1_555
H54_2 C50_2 1_555 1_555
C51_2 O9_2 1_555 1_555
C52_2 C53_2 1_555 1_555
C53_2 C54_2 1_555 1_555
C54_2 C55_2 1_555 1_555
C55_2 C56_2 1_555 1_555
C56_2 B3_2 1_555 1_555
C57_2 C54_2 1_555 1_555
H55_2 C57_2 1_555 1_555
H56_2 C57_2 1_555 1_555
H57_2 C57_2 1_555 1_555
C58_2 C55_2 1_555 1_555
H58_2 C58_2 1_555 1_555
H59_2 C58_2 1_555 1_555
H60_2 C58_2 1_555 1_555
C59_2 C60_2 1_555 1_555
C60_2 C61_2 1_555 1_555
C61_2 C62_2 1_555 1_555
C62_2 C63_2 1_555 1_555
C63_2 C64_2 1_555 1_555
C64_2 C59_2 1_555 1_555
C65_2 C60_2 1_555 1_555
H61_2 C65_2 1_555 1_555
H62_2 C65_2 1_555 1_555
H63_2 C65_2 1_555 1_555
C67_2 C63_2 1_555 1_555
H67_2 C67_2 1_555 1_555
H68_2 C67_2 1_555 1_555
H69_2 C67_2 1_555 1_555
C68_2 C64_2 1_555 1_555
H70_2 C68_2 1_555 1_555
H71_2 C68_2 1_555 1_555
H72_2 C68_2 1_555 1_555
C70_2 H73_2 1_555 1_555
H74_2 C70_2 1_555 1_555
H75_2 C70_2 1_555 1_555
C71_2 H76_2 1_555 1_555
H77_2 C71_2 1_555 1_555
H78_2 C71_2 1_555 1_555
C72_2 H79_2 1_555 1_555
C73_2 O15_2 1_555 1_555
O1_2 C1_2 1_555 1_555
O2_2 C1_2 1_555 1_555
O3_2 C22_2 1_555 1_555
O4_2 C22_2 1_555 1_555
O7_2 La2_2 1_555 1_555
O8_2 La2_2 1_555 1_555
O9_2 La10 1_555 1_555
O10_2 La2_2 1_555 1_555
O13_2 La1_2 1_555 1_555
O14_2 La2_2 1_555 1_555
O15_2 La2_2 1_555 1_555
O16_2 La1_2 1_555 1_555
O17_2 La2_2 1_555 1_555
N1_2 C70_2 1_555 1_555
B1_2 C5_2 1_555 1_555
B2_2 C38_2 1_555 1_555
B3_2 C59_2 1_555 1_555
C74_2 H80_2 1_555 1_555
H81_2 C74_2 1_555 1_555
H82_2 C74_2 1_555 1_555
C75_2 H83_2 1_555 1_555
H84_2 C75_2 1_555 1_555
H85_2 C75_2 1_555 1_555
N2_2 C74_2 1_555 1_555
C76_2 O14_2 1_555 1_555
H86_2 C76_2 1_555 1_555
C78_2 C79_2 1_555 1_555
C79_2 C80_2 1_555 1_555
C80_2 C81_2 1_555 1_555
C81_2 B2_2 1_555 1_555
C82_2 C81_2 1_555 1_555
C83_2 C78_2 1_555 1_555
C84_2 C79_2 1_555 1_555
H87_2 C84_2 1_555 1_555
H88_2 C84_2 1_555 1_555
H89_2 C84_2 1_555 1_555
C85_2 C80_2 1_555 1_555
H90_2 C85_2 1_555 1_555
H91_2 C85_2 1_555 1_555
H92_2 C85_2 1_555 1_555
C86_2 C82_2 1_555 1_555
H93_2 C86_2 1_555 1_555
H94_2 C86_2 1_555 1_555
H95_2 C86_2 1_555 1_555
C88_2 C45_2 1_555 1_555
C89_2 C48_2 1_555 1_555
C90_2 C88_2 1_555 1_555
H99_2 C90_2 1_555 1_555
H100_2 C90_2 1_555 1_555
H101_2 C90_2 1_555 1_555
C91_2 C89_2 1_555 1_555
H102_2 C91_2 1_555 1_555
H103_2 C91_2 1_555 1_555
H104_2 C91_2 1_555 1_555
O20_2 C51_2 1_555 1_555
C92_2 C53_2 1_555 1_555
C93_2 C56_2 1_555 1_555
C94_2 C92_2 1_555 1_555
H105_2 C94_2 1_555 1_555
H106_2 C94_2 1_555 1_555
H107_2 C94_2 1_555 1_555
C95_2 C93_2 1_555 1_555
H108_2 C95_2 1_555 1_555
H109_2 C95_2 1_555 1_555
H110_2 C95_2 1_555 1_555
C96_2 B3_2 1_555 1_555
C97_2 C96_2 1_555 1_555
C98_2 C97_2 1_555 1_555
C99_2 C98_2 1_555 1_555
C100_2 C99_2 1_555 1_555
C101_2 C96_2 1_555 1_555
C102_2 C97_2 1_555 1_555
H111_2 C102_2 1_555 1_555
H112_2 C102_2 1_555 1_555
H113_2 C102_2 1_555 1_555
C103_2 C98_2 1_555 1_555
H114_2 C103_2 1_555 1_555
H115_2 C103_2 1_555 1_555
H116_2 C103_2 1_555 1_555
C104_2 C100_2 1_555 1_555
H117_2 C104_2 1_555 1_555
H118_2 C104_2 1_555 1_555
H119_2 C104_2 1_555 1_555
C105_2 C101_2 1_555 1_555
H120_2 C105_2 1_555 1_555
H121_2 C105_2 1_555 1_555
H122_2 C105_2 1_555 1_555
C106_2 C99_2 1_555 1_555
O21_2 C52_2 1_555 1_555
O22_2 C106_2 1_555 1_555
O23_2 C106_2 1_555 1_555
O24_2 C73_2 1_555 1_555
C108_2 C109_2 1_555 1_555
C109_2 C110_2 1_555 1_555
C110_2 C111_2 1_555 1_555
C111_2 C112_2 1_555 1_555
C112_2 C113_2 1_555 1_555
C113_2 C108_2 1_555 1_555
C114_2 C109_2 1_555 1_555
H123_2 C114_2 1_555 1_555
H124_2 C114_2 1_555 1_555
H125_2 C114_2 1_555 1_555
C115_2 C110_2 1_555 1_555
H126_2 C115_2 1_555 1_555
H127_2 C115_2 1_555 1_555
H128_2 C115_2 1_555 1_555
C116_2 C112_2 1_555 1_555
H129_2 C116_2 1_555 1_555
H130_2 C116_2 1_555 1_555
H131_2 C116_2 1_555 1_555
H135_2 C124_2 1_555 1_555
H145_2 C127_2 1_555 1_555
H146_2 C127_2 1_555 1_555
C129_2 C130_2 1_555 1_555
C130_2 C131_2 1_555 1_555
C131_2 C132_2 1_555 1_555
C132_2 C133_2 1_555 1_555
C133_2 C134_2 1_555 1_555
C134_2 C129_2 1_555 1_555
C135_2 C130_2 1_555 1_555
H147_2 C135_2 1_555 1_555
H148_2 C135_2 1_555 1_555
H149_2 C135_2 1_555 1_555
C136_2 C131_2 1_555 1_555
H150_2 C136_2 1_555 1_555
H151_2 C136_2 1_555 1_555
H152_2 C136_2 1_555 1_555
C137_2 C133_2 1_555 1_555
H153_2 C137_2 1_555 1_555
H154_2 C137_2 1_555 1_555
H155_2 C137_2 1_555 1_555
C138_2 C134_2 1_555 1_555
H156_2 C138_2 1_555 1_555
H157_2 C138_2 1_555 1_555
H158_2 C138_2 1_555 1_555
C139_2 C132_2 1_555 1_555
C141_2 H162_2 1_555 1_555
H163_2 C141_2 1_555 1_555
H164_2 C141_2 1_555 1_555
O29_2 La2_2 1_555 1_555
O30_2 La1_2 1_555 1_555
B4_2 C111_2 1_555 1_555
La5_2 O24_2 1_555 1_555
La8 O3_2 1_555 1_555
La7 O20_2 1_555 1_555
La12 O4_2 1_555 1_555
La13_2 O15_2 1_555 1_555
O34_2 La1_2 1_555 1_555
O37_2 La1_2 1_555 1_555
O39_2 La1_2 1_555 1_555
O42_2 La1_2 1_555 1_555
La2_2 O16_2 1_555 1_555
C12_2 B1_2 1_555 1_555
C23_2 B1_2 1_555 1_555
C34_2 O7_2 1_555 1_555
C34_2 O8_2 1_555 1_555
C45_2 B2_2 1_555 1_555
C52_2 O10_2 1_555 1_555
C71_2 N1_2 1_555 1_555
C72_2 O13_2 1_555 1_555
C72_2 N1_2 1_555 1_555
C73_2 O16_2 1_555 1_555
C75_2 N2_2 1_555 1_555
N2_2 C76_2 1_555 1_555
C82_2 C83_2 1_555 1_555
C88_2 C89_2 1_555 1_555
C92_2 C93_2 1_555 1_555
C100_2 C101_2 1_555 1_555
O21_2 La13_2 1_555 1_555
O23_2 La7 1_555 1_555
O24_2 La13_2 1_555 1_555
C118_2 B4_2 1_555 1_555
C129_2 B4_2 1_555 1_555
C139_2 O29_2 1_555 1_555
C139_2 O30_2 1_555 1_555
H28_2 C30_2 1_555 1_555
H29_2 C30_2 1_555 1_555
H30_2 C30_2 1_555 1_555
O5_2 C33_2 1_555 1_555
O6_2 C33_2 1_555 1_555
H96_2 C87_2 1_555 1_555
H97_2 C87_2 1_555 1_555
H98_2 C87_2 1_555 1_555
O18_2 C77_2 1_555 1_555
O19_2 C77_2 1_555 1_555
La5_2 O6_2 1_555 1_555
La13_2 O5_2 1_555 1_555
H133_2 C117_2 1_555 1_555
H134_2 C117_2 1_555 1_555
H160_2 C140_2 1_555 1_555
H161_2 C140_2 1_555 1_555
C142_2 H165_2 1_555 1_555
O25_2 La5_2 1_555 1_555
O26_2 La13_2 1_555 1_555
O31_2 La5_2 1_555 1_555
O32_2 La13_2 1_555 1_555
O33_2 La13_2 1_555 1_555
N3_2 C140_2 1_555 1_555
C143_2 H166_2 1_555 1_555
H167_2 C143_2 1_555 1_555
H168_2 C143_2 1_555 1_555
C144_2 H169_2 1_555 1_555
H170_2 C144_2 1_555 1_555
H171_2 C144_2 1_555 1_555
N4_2 C143_2 1_555 1_555
C145_2 O32_2 1_555 1_555
H172_2 C145_2 1_555 1_555
O35_2 La5_2 1_555 1_555
O36_2 La5_2 1_555 1_555
O38_2 La5_2 1_555 1_555
O41_2 La5_2 1_555 1_555
O18_2 La13_2 1_555 1_555
O19_2 La13_2 1_555 1_555
C107_2 O25_2 1_555 1_555
C107_2 O26_2 1_555 1_555
C142_2 O31_2 1_555 1_555
C142_2 N3_2 1_555 1_555
C144_2 N4_2 1_555 1_555
N4_2 C145_2 1_555 1_555
C119_2 C120_2 1_555 1_555
C120_2 C121_2 1_555 1_555
C121_2 C122_2 1_555 1_555
C122_2 C123_2 1_555 1_555
C125_2 C120_2 1_555 1_555
H138_2 C125_2 1_555 1_555
H139_2 C125_2 1_555 1_555
H140_2 C125_2 1_555 1_555
C126_2 C122_2 1_555 1_555
H141_2 C126_2 1_555 1_555
H142_2 C126_2 1_555 1_555
H143_2 C126_2 1_555 1_555
C128_2 C121_2 1_555 1_555
O27_2 C128_2 1_555 1_555
O28_2 C128_2 1_555 1_555
La8 O28_2 1_555 1_555
La12 O27_2 1_555 1_555
O5_3 C33_3 1_555 1_555
O6_3 C33_3 1_555 1_555
H96_3 C87_3 1_555 1_555
H97_3 C87_3 1_555 1_555
H98_3 C87_3 1_555 1_555
O18_3 C77_3 1_555 1_555
O19_3 C77_3 1_555 1_555
La4 O5_3 1_555 1_555
H133_3 C117_3 1_555 1_555
H134_3 C117_3 1_555 1_555
O26_3 La4 1_555 1_555
O32_3 La4 1_555 1_555
O33_3 La4 1_555 1_555
C143_3 H166_3 1_555 1_555
H167_3 C143_3 1_555 1_555
H168_3 C143_3 1_555 1_555
C144_3 H169_3 1_555 1_555
H170_3 C144_3 1_555 1_555
H171_3 C144_3 1_555 1_555
N4_3 C143_3 1_555 1_555
C145_3 O32_3 1_555 1_555
H172_3 C145_3 1_555 1_555
O40 La4 1_555 1_555
O43 La4 1_555 1_555
O18_3 La4 1_555 1_555
O19_3 La4 1_555 1_555
La4 O44 1_555 1_555
C107_3 O25_3 1_555 1_555
C107_3 O26_3 1_555 1_555
C144_3 N4_3 1_555 1_555
N4_3 C145_3 1_555 1_555
La2_3 O2_3 1_555 1_555
C1_3 C2_3 1_555 1_555
C2_3 C3_3 1_555 1_555
C3_3 C4_3 1_555 1_555
C4_3 C5_3 1_555 1_555
C5_3 C6_3 1_555 1_555
C6_3 C7_3 1_555 1_555
C7_3 C2_3 1_555 1_555
C10_3 C6_3 1_555 1_555
H7_3 C10_3 1_555 1_555
H8_3 C10_3 1_555 1_555
H9_3 C10_3 1_555 1_555
C11_3 C7_3 1_555 1_555
H10_3 C11_3 1_555 1_555
H11_3 C11_3 1_555 1_555
H12_3 C11_3 1_555 1_555
C12_3 C13_3 1_555 1_555
C13_3 C14_3 1_555 1_555
C14_3 C15_3 1_555 1_555
C15_3 C16_3 1_555 1_555
C16_3 C17_3 1_555 1_555
C17_3 C12_3 1_555 1_555
C20_3 C16_3 1_555 1_555
H19_3 C20_3 1_555 1_555
H20_3 C20_3 1_555 1_555
H21_3 C20_3 1_555 1_555
C21_3 C17_3 1_555 1_555
H22_3 C21_3 1_555 1_555
H23_3 C21_3 1_555 1_555
H24_3 C21_3 1_555 1_555
C22_3 C15_3 1_555 1_555
C23_3 C24_3 1_555 1_555
C24_3 C25_3 1_555 1_555
C25_3 C26_3 1_555 1_555
C26_3 C27_3 1_555 1_555
C27_3 C28_3 1_555 1_555
C28_3 C23_3 1_555 1_555
C31_3 C27_3 1_555 1_555
H31_3 C31_3 1_555 1_555
H32_3 C31_3 1_555 1_555
H33_3 C31_3 1_555 1_555
C32_3 C28_3 1_555 1_555
H34_3 C32_3 1_555 1_555
H35_3 C32_3 1_555 1_555
H36_3 C32_3 1_555 1_555
C34_3 C35_3 1_555 1_555
C35_3 C36_3 1_555 1_555
C36_3 C37_3 1_555 1_555
C37_3 C38_3 1_555 1_555
C38_3 C39_3 1_555 1_555
C39_3 C40_3 1_555 1_555
C40_3 C35_3 1_555 1_555
C41_3 C36_3 1_555 1_555
H37_3 C41_3 1_555 1_555
H38_3 C41_3 1_555 1_555
H39_3 C41_3 1_555 1_555
C42_3 C37_3 1_555 1_555
H40_3 C42_3 1_555 1_555
H41_3 C42_3 1_555 1_555
H42_3 C42_3 1_555 1_555
C43_3 C39_3 1_555 1_555
H43_3 C43_3 1_555 1_555
H44_3 C43_3 1_555 1_555
H45_3 C43_3 1_555 1_555
C44_3 C40_3 1_555 1_555
H46_3 C44_3 1_555 1_555
H47_3 C44_3 1_555 1_555
H48_3 C44_3 1_555 1_555
C45_3 C46_3 1_555 1_555
C46_3 C47_3 1_555 1_555
C47_3 C48_3 1_555 1_555
C48_3 C51_3 1_555 1_555
C49_3 C46_3 1_555 1_555
H49_3 C49_3 1_555 1_555
H50_3 C49_3 1_555 1_555
H51_3 C49_3 1_555 1_555
C50_3 C47_3 1_555 1_555
H52_3 C50_3 1_555 1_555
H53_3 C50_3 1_555 1_555
H54_3 C50_3 1_555 1_555
C51_3 O38_2 1_555 1_555
C52_3 C53_3 1_555 1_555
C53_3 C54_3 1_555 1_555
C54_3 C55_3 1_555 1_555
C55_3 C56_3 1_555 1_555
C56_3 B3_3 1_555 1_555
C57_3 C54_3 1_555 1_555
H55_3 C57_3 1_555 1_555
H56_3 C57_3 1_555 1_555
H57_3 C57_3 1_555 1_555
C58_3 C55_3 1_555 1_555
H58_3 C58_3 1_555 1_555
H59_3 C58_3 1_555 1_555
H60_3 C58_3 1_555 1_555
C59_3 C60_3 1_555 1_555
C60_3 C61_3 1_555 1_555
C61_3 C62_3 1_555 1_555
C62_3 C63_3 1_555 1_555
C63_3 C64_3 1_555 1_555
C64_3 C59_3 1_555 1_555
C65_3 C60_3 1_555 1_555
H61_3 C65_3 1_555 1_555
H62_3 C65_3 1_555 1_555
H63_3 C65_3 1_555 1_555
C67_3 C63_3 1_555 1_555
H67_3 C67_3 1_555 1_555
H68_3 C67_3 1_555 1_555
H69_3 C67_3 1_555 1_555
C68_3 C64_3 1_555 1_555
H70_3 C68_3 1_555 1_555
H71_3 C68_3 1_555 1_555
H72_3 C68_3 1_555 1_555
C73_3 O43 1_555 1_555
O1_3 C1_3 1_555 1_555
O2_3 C1_3 1_555 1_555
O34 C22_3 1_555 1_555
O36 C22_3 1_555 1_555
O7_3 La2_3 1_555 1_555
O8_3 La2_3 1_555 1_555
O10_3 La2_3 1_555 1_555
O14_3 La2_3 1_555 1_555
O43 La2_3 1_555 1_555
O17_3 La2_3 1_555 1_555
B1_3 C5_3 1_555 1_555
B2_3 C38_3 1_555 1_555
B3_3 C59_3 1_555 1_555
C74_3 H80_3 1_555 1_555
H81_3 C74_3 1_555 1_555
H82_3 C74_3 1_555 1_555
C75_3 H83_3 1_555 1_555
H84_3 C75_3 1_555 1_555
H85_3 C75_3 1_555 1_555
N2_3 C74_3 1_555 1_555
C76_3 O14_3 1_555 1_555
H86_3 C76_3 1_555 1_555
C78_3 C79_3 1_555 1_555
C79_3 C80_3 1_555 1_555
C80_3 C81_3 1_555 1_555
C81_3 B2_3 1_555 1_555
C82_3 C81_3 1_555 1_555
C83_3 C78_3 1_555 1_555
C84_3 C79_3 1_555 1_555
H87_3 C84_3 1_555 1_555
H88_3 C84_3 1_555 1_555
H89_3 C84_3 1_555 1_555
C85_3 C80_3 1_555 1_555
H90_3 C85_3 1_555 1_555
H91_3 C85_3 1_555 1_555
H92_3 C85_3 1_555 1_555
C86_3 C82_3 1_555 1_555
H93_3 C86_3 1_555 1_555
H94_3 C86_3 1_555 1_555
H95_3 C86_3 1_555 1_555
C88_3 C45_3 1_555 1_555
C89_3 C48_3 1_555 1_555
C90_3 C88_3 1_555 1_555
H99_3 C90_3 1_555 1_555
H100_3 C90_3 1_555 1_555
H101_3 C90_3 1_555 1_555
C91_3 C89_3 1_555 1_555
H102_3 C91_3 1_555 1_555
H103_3 C91_3 1_555 1_555
H104_3 C91_3 1_555 1_555
O39_2 C51_3 1_555 1_555
C92_3 C53_3 1_555 1_555
C93_3 C56_3 1_555 1_555
C94_3 C92_3 1_555 1_555
H105_3 C94_3 1_555 1_555
H106_3 C94_3 1_555 1_555
H107_3 C94_3 1_555 1_555
C95_3 C93_3 1_555 1_555
H108_3 C95_3 1_555 1_555
H109_3 C95_3 1_555 1_555
H110_3 C95_3 1_555 1_555
C96_3 B3_3 1_555 1_555
C97_3 C96_3 1_555 1_555
C98_3 C97_3 1_555 1_555
C99_3 C98_3 1_555 1_555
C100_3 C99_3 1_555 1_555
C101_3 C96_3 1_555 1_555
C102_3 C97_3 1_555 1_555
H111_3 C102_3 1_555 1_555
H112_3 C102_3 1_555 1_555
H113_3 C102_3 1_555 1_555
C103_3 C98_3 1_555 1_555
H114_3 C103_3 1_555 1_555
H115_3 C103_3 1_555 1_555
H116_3 C103_3 1_555 1_555
C104_3 C100_3 1_555 1_555
H117_3 C104_3 1_555 1_555
H118_3 C104_3 1_555 1_555
H119_3 C104_3 1_555 1_555
C105_3 C101_3 1_555 1_555
H120_3 C105_3 1_555 1_555
H121_3 C105_3 1_555 1_555
H122_3 C105_3 1_555 1_555
C106_3 C99_3 1_555 1_555
O40 C52_3 1_555 1_555
O22_3 C106_3 1_555 1_555
O42_2 C106_3 1_555 1_555
O44 C73_3 1_555 1_555
C108_3 C109_3 1_555 1_555
C109_3 C110_3 1_555 1_555
C110_3 C111_3 1_555 1_555
C111_3 C112_3 1_555 1_555
C112_3 C113_3 1_555 1_555
C113_3 C108_3 1_555 1_555
C116_3 C112_3 1_555 1_555
H129_3 C116_3 1_555 1_555
H130_3 C116_3 1_555 1_555
H131_3 C116_3 1_555 1_555
H145_3 C127_3 1_555 1_555
H146_3 C127_3 1_555 1_555
C129_3 C130_3 1_555 1_555
C130_3 C131_3 1_555 1_555
C131_3 C132_3 1_555 1_555
C132_3 C133_3 1_555 1_555
C133_3 C134_3 1_555 1_555
C134_3 C129_3 1_555 1_555
C137_3 C133_3 1_555 1_555
H153_3 C137_3 1_555 1_555
H154_3 C137_3 1_555 1_555
H155_3 C137_3 1_555 1_555
C138_3 C134_3 1_555 1_555
H156_3 C138_3 1_555 1_555
H157_3 C138_3 1_555 1_555
H158_3 C138_3 1_555 1_555
C139_3 C132_3 1_555 1_555
O29_3 La2_3 1_555 1_555
B4_3 C111_3 1_555 1_555
La2_3 O16_3 1_555 1_555
C12_3 B1_3 1_555 1_555
C23_3 B1_3 1_555 1_555
C34_3 O7_3 1_555 1_555
C34_3 O8_3 1_555 1_555
C45_3 B2_3 1_555 1_555
C52_3 O10_3 1_555 1_555
C73_3 O16_3 1_555 1_555
C75_3 N2_3 1_555 1_555
N2_3 C76_3 1_555 1_555
C82_3 C83_3 1_555 1_555
C88_3 C89_3 1_555 1_555
C92_3 C93_3 1_555 1_555
C100_3 C101_3 1_555 1_555
C118_3 B4_3 1_555 1_555
C129_3 B4_3 1_555 1_555
C139_3 O29_3 1_555 1_555
C139_3 O30_3 1_555 1_555
H64_3 C66_3 1_555 1_555
H65_3 C66_3 1_555 1_555
H66_3 C66_3 1_555 1_555
O11_3 C69_3 1_555 1_555
O41_2 C69_3 1_555 1_555
C119_3 C120_3 1_555 1_555
C120_3 C121_3 1_555 1_555
C121_3 C122_3 1_555 1_555
C122_3 C123_3 1_555 1_555
C126_3 C122_3 1_555 1_555
H141_3 C126_3 1_555 1_555
H142_3 C126_3 1_555 1_555
H143_3 C126_3 1_555 1_555
C128_3 C121_3 1_555 1_555
O35 C128_3 1_555 1_555
O37 C128_3 1_555 1_555
H28_3 C30_3 1_555 1_555
H29_3 C30_3 1_555 1_555
H30_3 C30_3 1_555 1_555
H160_3 C140_3 1_555 1_555
H161_3 C140_3 1_555 1_555
C142_3 H165_3 1_555 1_555
O31_3 La10 1_555 1_555
N3_3 C140_3 1_555 1_555
C142_3 O31_3 1_555 1_555
C142_3 N3_3 1_555 1_555
H1_3 C8_3 1_555 1_555
H2_3 C8_3 1_555 1_555
H3_3 C8_3 1_555 1_555
H4_3 C9_3 1_555 1_555
H5_3 C9_3 1_555 1_555
H6_3 C9_3 1_555 1_555
H13_3 C18_3 1_555 1_555
H14_3 C18_3 1_555 1_555
H15_3 C18_3 1_555 1_555
H16_3 C19_3 1_555 1_555
H17_3 C19_3 1_555 1_555
H18_3 C19_3 1_555 1_555
H25_3 C29_3 1_555 1_555
H26_3 C29_3 1_555 1_555
H27_3 C29_3 1_555 1_555
C70_3 H73_3 1_555 1_555
H74_3 C70_3 1_555 1_555
H75_3 C70_3 1_555 1_555
C71_3 H76_3 1_555 1_555
H77_3 C71_3 1_555 1_555
H78_3 C71_3 1_555 1_555
C72_3 H79_3 1_555 1_555
O13_3 La7 1_555 1_555
N1_3 C70_3 1_555 1_555
H123_3 C114_3 1_555 1_555
H124_3 C114_3 1_555 1_555
H125_3 C114_3 1_555 1_555
H126_3 C115_3 1_555 1_555
H127_3 C115_3 1_555 1_555
H128_3 C115_3 1_555 1_555
H135_3 C124_3 1_555 1_555
H147_3 C135_3 1_555 1_555
H148_3 C135_3 1_555 1_555
H149_3 C135_3 1_555 1_555
H150_3 C136_3 1_555 1_555
H151_3 C136_3 1_555 1_555
H152_3 C136_3 1_555 1_555
C141_3 H162_3 1_555 1_555
H163_3 C141_3 1_555 1_555
H164_3 C141_3 1_555 1_555
C71_3 N1_3 1_555 1_555
C72_3 O13_3 1_555 1_555
C72_3 N1_3 1_555 1_555
C119_4 C120_4 1_555 1_555
C120_4 C121_4 1_555 1_555
C121_4 C122_4 1_555 1_555
C122_4 C123_4 1_555 1_555
C125_3 C120_4 1_555 1_555
H138_3 C125_3 1_555 1_555
H139_3 C125_3 1_555 1_555
H140_3 C125_3 1_555 1_555
C126_4 C122_4 1_555 1_555
H141_4 C126_4 1_555 1_555
H142_4 C126_4 1_555 1_555
H143_4 C126_4 1_555 1_555
C128_4 C121_4 1_555 1_555
O35_2 C128_4 1_555 1_555
O37_2 C128_4 1_555 1_555
H28_4 C30_4 1_555 1_555
H29_4 C30_4 1_555 1_555
H30_4 C30_4 1_555 1_555
O5_4 C33_4 1_555 1_555
O6_4 C33_4 1_555 1_555
H96_4 C87_4 1_555 1_555
H97_4 C87_4 1_555 1_555
H98_4 C87_4 1_555 1_555
O18_4 C77_4 1_555 1_555
O19_4 C77_4 1_555 1_555
La12 O6_4 1_555 1_555
La4_2 O5_4 1_555 1_555
H133_4 C117_4 1_555 1_555
H134_4 C117_4 1_555 1_555
H160_4 C140_4 1_555 1_555
H161_4 C140_4 1_555 1_555
C142_4 H165_4 1_555 1_555
O25_4 La12 1_555 1_555
O26_4 La4_2 1_555 1_555
O31_4 La12 1_555 1_555
O32_4 La4_2 1_555 1_555
O33_4 La4_2 1_555 1_555
N3_4 C140_4 1_555 1_555
C143_4 H166_4 1_555 1_555
H167_4 C143_4 1_555 1_555
H168_4 C143_4 1_555 1_555
C144_4 H169_4 1_555 1_555
H170_4 C144_4 1_555 1_555
H171_4 C144_4 1_555 1_555
N4_4 C143_4 1_555 1_555
C145_4 O32_4 1_555 1_555
H172_4 C145_4 1_555 1_555
O40_2 La4_2 1_555 1_555
O43_2 La4_2 1_555 1_555
O44_2 La12 1_555 1_555
O18_4 La4_2 1_555 1_555
O19_4 La4_2 1_555 1_555
La4_2 O44_2 1_555 1_555
C107_4 O25_4 1_555 1_555
C107_4 O26_4 1_555 1_555
C142_4 O31_4 1_555 1_555
C142_4 N3_4 1_555 1_555
C144_4 N4_4 1_555 1_555
N4_4 C145_4 1_555 1_555
La8 O1_4 1_555 1_555
La2_4 O2_4 1_555 1_555
C1_4 C2_4 1_555 1_555
C2_4 C3_4 1_555 1_555
C3_4 C4_4 1_555 1_555
C4_4 C5_4 1_555 1_555
C5_4 C6_4 1_555 1_555
C6_4 C7_4 1_555 1_555
C7_4 C2_4 1_555 1_555
C8_4 C3_4 1_555 1_555
H1_4 C8_4 1_555 1_555
H2_4 C8_4 1_555 1_555
H3_4 C8_4 1_555 1_555
C9_4 C4_4 1_555 1_555
H4_4 C9_4 1_555 1_555
H5_4 C9_4 1_555 1_555
H6_4 C9_4 1_555 1_555
C10_4 C6_4 1_555 1_555
H7_4 C10_4 1_555 1_555
H8_4 C10_4 1_555 1_555
H9_4 C10_4 1_555 1_555
C11_4 C7_4 1_555 1_555
H10_4 C11_4 1_555 1_555
H11_4 C11_4 1_555 1_555
H12_4 C11_4 1_555 1_555
C12_4 C13_4 1_555 1_555
C13_4 C14_4 1_555 1_555
C14_4 C15_4 1_555 1_555
C15_4 C16_4 1_555 1_555
C16_4 C17_4 1_555 1_555
C17_4 C12_4 1_555 1_555
C18_4 C13_4 1_555 1_555
H13_4 C18_4 1_555 1_555
H14_4 C18_4 1_555 1_555
H15_4 C18_4 1_555 1_555
C19_4 C14_4 1_555 1_555
H16_4 C19_4 1_555 1_555
H17_4 C19_4 1_555 1_555
H18_4 C19_4 1_555 1_555
C20_4 C16_4 1_555 1_555
H19_4 C20_4 1_555 1_555
H20_4 C20_4 1_555 1_555
H21_4 C20_4 1_555 1_555
C21_4 C17_4 1_555 1_555
H22_4 C21_4 1_555 1_555
H23_4 C21_4 1_555 1_555
H24_4 C21_4 1_555 1_555
C22_4 C15_4 1_555 1_555
C23_4 C24_4 1_555 1_555
C24_4 C25_4 1_555 1_555
C25_4 C26_4 1_555 1_555
C26_4 C27_4 1_555 1_555
C27_4 C28_4 1_555 1_555
C28_4 C23_4 1_555 1_555
C29_4 C24_4 1_555 1_555
H25_4 C29_4 1_555 1_555
H26_4 C29_4 1_555 1_555
H27_4 C29_4 1_555 1_555
C31_4 C27_4 1_555 1_555
H31_4 C31_4 1_555 1_555
H32_4 C31_4 1_555 1_555
H33_4 C31_4 1_555 1_555
C32_4 C28_4 1_555 1_555
H34_4 C32_4 1_555 1_555
H35_4 C32_4 1_555 1_555
H36_4 C32_4 1_555 1_555
C34_4 C35_4 1_555 1_555
C35_4 C36_4 1_555 1_555
C36_4 C37_4 1_555 1_555
C37_4 C38_4 1_555 1_555
C38_4 C39_4 1_555 1_555
C39_4 C40_4 1_555 1_555
C40_4 C35_4 1_555 1_555
C41_4 C36_4 1_555 1_555
H37_4 C41_4 1_555 1_555
H38_4 C41_4 1_555 1_555
H39_4 C41_4 1_555 1_555
C42_4 C37_4 1_555 1_555
H40_4 C42_4 1_555 1_555
H41_4 C42_4 1_555 1_555
H42_4 C42_4 1_555 1_555
C43_4 C39_4 1_555 1_555
H43_4 C43_4 1_555 1_555
H44_4 C43_4 1_555 1_555
H45_4 C43_4 1_555 1_555
C44_4 C40_4 1_555 1_555
H46_4 C44_4 1_555 1_555
H47_4 C44_4 1_555 1_555
H48_4 C44_4 1_555 1_555
C45_4 C46_4 1_555 1_555
C46_4 C47_4 1_555 1_555
C47_4 C48_4 1_555 1_555
C48_4 C51_4 1_555 1_555
C49_4 C46_4 1_555 1_555
H49_4 C49_4 1_555 1_555
H50_4 C49_4 1_555 1_555
H51_4 C49_4 1_555 1_555
C50_4 C47_4 1_555 1_555
H52_4 C50_4 1_555 1_555
H53_4 C50_4 1_555 1_555
H54_4 C50_4 1_555 1_555
C51_4 O38 1_555 1_555
C52_4 C53_4 1_555 1_555
C53_4 C54_4 1_555 1_555
C54_4 C55_4 1_555 1_555
C55_4 C56_4 1_555 1_555
C56_4 B3_4 1_555 1_555
C57_4 C54_4 1_555 1_555
H55_4 C57_4 1_555 1_555
H56_4 C57_4 1_555 1_555
H57_4 C57_4 1_555 1_555
C58_4 C55_4 1_555 1_555
H58_4 C58_4 1_555 1_555
H59_4 C58_4 1_555 1_555
H60_4 C58_4 1_555 1_555
C59_4 C60_4 1_555 1_555
C60_4 C61_4 1_555 1_555
C61_4 C62_4 1_555 1_555
C62_4 C63_4 1_555 1_555
C63_4 C64_4 1_555 1_555
C64_4 C59_4 1_555 1_555
C65_4 C60_4 1_555 1_555
H61_4 C65_4 1_555 1_555
H62_4 C65_4 1_555 1_555
H63_4 C65_4 1_555 1_555
C67_4 C63_4 1_555 1_555
H67_4 C67_4 1_555 1_555
H68_4 C67_4 1_555 1_555
H69_4 C67_4 1_555 1_555
C68_4 C64_4 1_555 1_555
H70_4 C68_4 1_555 1_555
H71_4 C68_4 1_555 1_555
H72_4 C68_4 1_555 1_555
C70_4 H73_4 1_555 1_555
H74_4 C70_4 1_555 1_555
H75_4 C70_4 1_555 1_555
C71_4 H76_4 1_555 1_555
H77_4 C71_4 1_555 1_555
H78_4 C71_4 1_555 1_555
C72_4 H79_4 1_555 1_555
C73_4 O43_2 1_555 1_555
O1_4 C1_4 1_555 1_555
O2_4 C1_4 1_555 1_555
O34_2 C22_4 1_555 1_555
O36_2 C22_4 1_555 1_555
O7_4 La2_4 1_555 1_555
O8_4 La2_4 1_555 1_555
O10_4 La2_4 1_555 1_555
O13_4 La8 1_555 1_555
O14_4 La2_4 1_555 1_555
O43_2 La2_4 1_555 1_555
O16_4 La8 1_555 1_555
O17_4 La2_4 1_555 1_555
N1_4 C70_4 1_555 1_555
B1_4 C5_4 1_555 1_555
B2_4 C38_4 1_555 1_555
B3_4 C59_4 1_555 1_555
C74_4 H80_4 1_555 1_555
H81_4 C74_4 1_555 1_555
H82_4 C74_4 1_555 1_555
C75_4 H83_4 1_555 1_555
H84_4 C75_4 1_555 1_555
H85_4 C75_4 1_555 1_555
N2_4 C74_4 1_555 1_555
C76_4 O14_4 1_555 1_555
H86_4 C76_4 1_555 1_555
C78_4 C79_4 1_555 1_555
C79_4 C80_4 1_555 1_555
C80_4 C81_4 1_555 1_555
C81_4 B2_4 1_555 1_555
C82_4 C81_4 1_555 1_555
C83_4 C78_4 1_555 1_555
C84_4 C79_4 1_555 1_555
H87_4 C84_4 1_555 1_555
H88_4 C84_4 1_555 1_555
H89_4 C84_4 1_555 1_555
C85_4 C80_4 1_555 1_555
H90_4 C85_4 1_555 1_555
H91_4 C85_4 1_555 1_555
H92_4 C85_4 1_555 1_555
C86_4 C82_4 1_555 1_555
H93_4 C86_4 1_555 1_555
H94_4 C86_4 1_555 1_555
H95_4 C86_4 1_555 1_555
C88_4 C45_4 1_555 1_555
C89_4 C48_4 1_555 1_555
C90_4 C88_4 1_555 1_555
H99_4 C90_4 1_555 1_555
H100_4 C90_4 1_555 1_555
H101_4 C90_4 1_555 1_555
C91_4 C89_4 1_555 1_555
H102_4 C91_4 1_555 1_555
H103_4 C91_4 1_555 1_555
H104_4 C91_4 1_555 1_555
O39 C51_4 1_555 1_555
C92_4 C53_4 1_555 1_555
C93_4 C56_4 1_555 1_555
C94_4 C92_4 1_555 1_555
H105_4 C94_4 1_555 1_555
H106_4 C94_4 1_555 1_555
H107_4 C94_4 1_555 1_555
C95_4 C93_4 1_555 1_555
H108_4 C95_4 1_555 1_555
H109_4 C95_4 1_555 1_555
H110_4 C95_4 1_555 1_555
C96_4 B3_4 1_555 1_555
C97_4 C96_4 1_555 1_555
C98_4 C97_4 1_555 1_555
C99_4 C98_4 1_555 1_555
C100_4 C99_4 1_555 1_555
C101_4 C96_4 1_555 1_555
C102_4 C97_4 1_555 1_555
H111_4 C102_4 1_555 1_555
H112_4 C102_4 1_555 1_555
H113_4 C102_4 1_555 1_555
C103_4 C98_4 1_555 1_555
H114_4 C103_4 1_555 1_555
H115_4 C103_4 1_555 1_555
H116_4 C103_4 1_555 1_555
C104_4 C100_4 1_555 1_555
H117_4 C104_4 1_555 1_555
H118_4 C104_4 1_555 1_555
H119_4 C104_4 1_555 1_555
C105_4 C101_4 1_555 1_555
H120_4 C105_4 1_555 1_555
H121_4 C105_4 1_555 1_555
H122_4 C105_4 1_555 1_555
C106_4 C99_4 1_555 1_555
O40_2 C52_4 1_555 1_555
O22_4 C106_4 1_555 1_555
O42 C106_4 1_555 1_555
O44_2 C73_4 1_555 1_555
C108_4 C109_4 1_555 1_555
C109_4 C110_4 1_555 1_555
C110_4 C111_4 1_555 1_555
C111_4 C112_4 1_555 1_555
C112_4 C113_4 1_555 1_555
C113_4 C108_4 1_555 1_555
C114_4 C109_4 1_555 1_555
H123_4 C114_4 1_555 1_555
H124_4 C114_4 1_555 1_555
H125_4 C114_4 1_555 1_555
C115_4 C110_4 1_555 1_555
H126_4 C115_4 1_555 1_555
H127_4 C115_4 1_555 1_555
H128_4 C115_4 1_555 1_555
C116_4 C112_4 1_555 1_555
H129_4 C116_4 1_555 1_555
H130_4 C116_4 1_555 1_555
H131_4 C116_4 1_555 1_555
H135_4 C124_4 1_555 1_555
H145_4 C127_4 1_555 1_555
H146_4 C127_4 1_555 1_555
C129_4 C130_4 1_555 1_555
C130_4 C131_4 1_555 1_555
C131_4 C132_4 1_555 1_555
C132_4 C133_4 1_555 1_555
C133_4 C134_4 1_555 1_555
C134_4 C129_4 1_555 1_555
C135_4 C130_4 1_555 1_555
H147_4 C135_4 1_555 1_555
H148_4 C135_4 1_555 1_555
H149_4 C135_4 1_555 1_555
C136_4 C131_4 1_555 1_555
H150_4 C136_4 1_555 1_555
H151_4 C136_4 1_555 1_555
H152_4 C136_4 1_555 1_555
C137_4 C133_4 1_555 1_555
H153_4 C137_4 1_555 1_555
H154_4 C137_4 1_555 1_555
H155_4 C137_4 1_555 1_555
C138_4 C134_4 1_555 1_555
H156_4 C138_4 1_555 1_555
H157_4 C138_4 1_555 1_555
H158_4 C138_4 1_555 1_555
C139_4 C132_4 1_555 1_555
C141_4 H162_4 1_555 1_555
H163_4 C141_4 1_555 1_555
H164_4 C141_4 1_555 1_555
O29_4 La2_4 1_555 1_555
O30_4 La8 1_555 1_555
B4_4 C111_4 1_555 1_555
La2_4 O16_4 1_555 1_555
C12_4 B1_4 1_555 1_555
C23_4 B1_4 1_555 1_555
C34_4 O7_4 1_555 1_555
C34_4 O8_4 1_555 1_555
C45_4 B2_4 1_555 1_555
C52_4 O10_4 1_555 1_555
C71_4 N1_4 1_555 1_555
C72_4 O13_4 1_555 1_555
C72_4 N1_4 1_555 1_555
C73_4 O16_4 1_555 1_555
C75_4 N2_4 1_555 1_555
N2_4 C76_4 1_555 1_555
C82_4 C83_4 1_555 1_555
C88_4 C89_4 1_555 1_555
C92_4 C93_4 1_555 1_555
C100_4 C101_4 1_555 1_555
C118_4 B4_4 1_555 1_555
C129_4 B4_4 1_555 1_555
C139_4 O29_4 1_555 1_555
C139_4 O30_4 1_555 1_555
H64_4 C66_4 1_555 1_555
H65_4 C66_4 1_555 1_555
H66_4 C66_4 1_555 1_555
O11_4 C69_4 1_555 1_555
O41 C69_4 1_555 1_555
H138_4 C125_4 1_555 1_555
H139_4 C125_4 1_555 1_555
H140_4 C125_4 1_555 1_555
N5 C146 1_555 1_555
C146 H173 1_555 1_555
H174 C146 1_555 1_555
H175 C146 1_555 1_555
C147 N5 1_555 1_555
H176 C147 1_555 1_555
H177 C147 1_555 1_555
H178 C147 1_555 1_555
N5 H181 1_555 1_555
N5 H182 1_555 1_555
N5_2 C146_2 1_555 1_555
C146_2 H173_2 1_555 1_555
H174_2 C146_2 1_555 1_555
H175_2 C146_2 1_555 1_555
C147_2 N5_2 1_555 1_555
H176_2 C147_2 1_555 1_555
H177_2 C147_2 1_555 1_555
H178_2 C147_2 1_555 1_555
N5_2 H181_2 1_555 1_555
N5_2 H182_2 1_555 1_555
N5_3 C146_3 1_555 1_555
C146_3 H173_3 1_555 1_555
H174_3 C146_3 1_555 1_555
H175_3 C146_3 1_555 1_555
C147_3 N5_3 1_555 1_555
H176_3 C147_3 1_555 1_555
H177_3 C147_3 1_555 1_555
N5_3 H181_3 1_555 1_555
N5_3 H182_3 1_555 1_555
N5_4 C146_4 1_555 1_555
C146_4 H173_4 1_555 1_555
H174_4 C146_4 1_555 1_555
H175_4 C146_4 1_555 1_555
C147_4 N5_4 1_555 1_555
H176_4 C147_4 1_555 1_555
H177_4 C147_4 1_555 1_555
N5_4 H181_4 1_555 1_555
N5_4 H182_4 1_555 1_555
N5_5 C146_5 1_555 1_555
C146_5 H173_5 1_555 1_555
H174_5 C146_5 1_555 1_555
H175_5 C146_5 1_555 1_555
C147_5 N5_5 1_555 1_555
H176_5 C147_5 1_555 1_555
H177_5 C147_5 1_555 1_555
H178_5 C147_5 1_555 1_555
N5_5 H181_5 1_555 1_555
N5_5 H182_5 1_555 1_555
N5_6 C146_6 1_555 1_555
C146_6 H173_6 1_555 1_555
H174_6 C146_6 1_555 1_555
H175_6 C146_6 1_555 1_555
C147_6 N5_6 1_555 1_555
H176_6 C147_6 1_555 1_555
H177_6 C147_6 1_555 1_555
H178_6 C147_6 1_555 1_555
N5_6 H181_6 1_555 1_555
N5_6 H182_6 1_555 1_555
N5_7 C146_7 1_555 1_555
C146_7 H173_7 1_555 1_555
H174_7 C146_7 1_555 1_555
H175_7 C146_7 1_555 1_555
C147_7 N5_7 1_555 1_555
H176_7 C147_7 1_555 1_555
H177_7 C147_7 1_555 1_555
N5_7 H181_7 1_555 1_555
N5_7 H182_7 1_555 1_555
N5_8 C146_8 1_555 1_555
C146_8 H173_8 1_555 1_555
H174_8 C146_8 1_555 1_555
H175_8 C146_8 1_555 1_555
C147_8 N5_8 1_555 1_555
H176_8 C147_8 1_555 1_555
H177_8 C147_8 1_555 1_555
N5_8 H181_8 1_555 1_555
N5_8 H182_8 1_555 1_555

#END
