
###############################################################################
#
# This file contains modified crystal structure data generated from the
# MOF subset of the Cambridge Structural Database (CSD) v543 
# hosted by the Cambridge Crystallographic Data Centre (CCDC).
#
# This work is licensed under the Creative Commons
# Attribution-NonCommercial-ShareAlike 4.0 International License.
# To view a copy of this license, visit
# http://creativecommons.org/licenses/by-nc-sa/4.0/
# or send a letter to
# Creative Commons, PO Box 1866, Mountain View, CA 94042, USA.
#
# CIF created using the CSD Python API on 29 September 2022
# The structure has been converted into the P1 space group
# The structure has a 3D framework
# The original CSD entry CIMTEZ is in the orthorhombic crystal system
# The framework has been calculated to contain at least 10.0% void space
# The void calculation uses a probe of radius 1.32A, grid spacing 0.4
# The framework is charged, counterions have been retained in the structure
# H atom positions have been added when not included in the experimental data
# Generated hydrogen atom positions removed from atoms on special positions
#
###############################################################################

data_CIMTEZ
_chemical_formula_moiety         '(C572 H728 B16 N16 Nd16 O124)n'
_symmetry_cell_setting           triclinic
_symmetry_space_group_name_H-M   'P 1'
_symmetry_Int_Tables_number      1
_space_group_name_Hall           'P 1'
loop_
_symmetry_equiv_pos_site_id
_symmetry_equiv_pos_as_xyz
1 x,y,z
_cell_length_a                   37.6140(15)
_cell_length_b                   27.2860(11)
_cell_length_c                   18.2151(7)
_cell_angle_alpha                90
_cell_angle_beta                 90
_cell_angle_gamma                90
_cell_volume                     18694.8
loop_
_atom_site_label
_atom_site_type_symbol
_atom_site_fract_x
_atom_site_fract_y
_atom_site_fract_z
Nd2 Nd 0.026707(13) 0.255431(18) 0.12616(3)
B3 B 0.2555(5) 0.2500 0.2500
C33 C 0.0888(5) 0.2373(7) 0.0128(10)
C41 C 0.1545(5) 0.2939(6) 0.0223(8)
H37 H 0.1756 0.3130 0.0144
H38 H 0.1589 0.2698 0.0596
H39 H 0.1355 0.3150 0.0376
C52 C 0.0997(4) 0.2500 0.2500
C53 C 0.1393(3) 0.2500 0.2500
C54 C 0.1574(2) 0.2078(4) 0.2732(5)
C55 C 0.1947(2) 0.2088(4) 0.2745(5)
C56 C 0.2136(3) 0.2500 0.2500
C57 C 0.2157(3) 0.1628(4) 0.3001(7)
H55 H 0.2408 0.1694 0.2978
H56 H 0.2102 0.1356 0.2686
H57 H 0.2093 0.1549 0.3497
C58 C 0.1354(3) 0.1644(4) 0.2961(6)
H58 H 0.1106 0.1720 0.2906
H59 H 0.1402 0.1566 0.3465
H60 H 0.1412 0.1367 0.2658
C59 C 0.3502(4) 0.2388(6) 0.5116(6)
C60 C 0.32182(18) 0.2340(3) 0.4474(3)
C61 C 0.32991(15) 0.2079(3) 0.3840(4)
C62 C 0.30759(18) 0.2107(3) 0.3233(3)
C63 C 0.27719(16) 0.2396(3) 0.3260(3)
C64 C 0.26911(16) 0.2657(3) 0.3894(4)
C65 C 0.2914(2) 0.2629(3) 0.4500(3)
C66 C 0.2826(4) 0.2863(7) 0.5262(6)
H61 H 0.2613 0.3055 0.5222
H62 H 0.3019 0.3070 0.5412
H63 H 0.2792 0.2609 0.5618
C67 C 0.2364(4) 0.3005(6) 0.3918(7)
H64 H 0.2347 0.3154 0.4394
H65 H 0.2151 0.2820 0.3822
H66 H 0.2390 0.3255 0.3552
C68 C 0.3161(3) 0.1781(6) 0.2591(7)
H67 H 0.2990 0.1833 0.2209
H68 H 0.3154 0.1445 0.2744
H69 H 0.3394 0.1858 0.2410
C69 C 0.3637(3) 0.1773(6) 0.3825(7)
H70 H 0.3658 0.1615 0.3356
H71 H 0.3626 0.1529 0.4204
H72 H 0.3839 0.1982 0.3905
O7 O 0.0728(3) 0.2777(6) 0.0322(6)
O8 O 0.0724(3) 0.2043(6) 0.0423(6)
O10 O 0.08398(17) 0.2419(3) 0.1910(4)
O11 O 0.3572(2) 0.2007(4) 0.5444(5)
O12 O 0.3628(2) 0.2797(4) 0.5250(5)
C89 C 0.1574(2) 0.2922(4) 0.2268(5)
C90 C 0.1947(2) 0.2912(4) 0.2255(5)
C91 C 0.2157(3) 0.3372(4) 0.1999(7)
H98 H 0.2408 0.3306 0.2022
H99 H 0.2102 0.3644 0.2314
H100 H 0.2093 0.3451 0.1503
C92 C 0.1354(3) 0.3356(4) 0.2039(6)
H101 H 0.1106 0.3280 0.2094
H102 H 0.1402 0.3434 0.1535
H103 H 0.1412 0.3633 0.2342
C94 C 0.32182(18) 0.2660(3) 0.0526(3)
C95 C 0.32991(15) 0.2921(3) 0.1160(4)
C96 C 0.30759(18) 0.2893(3) 0.1767(3)
C97 C 0.27719(16) 0.2604(3) 0.1740(3)
C98 C 0.26911(16) 0.2343(3) 0.1106(4)
C99 C 0.2914(2) 0.2371(3) 0.0500(3)
C101 C 0.2364(4) 0.1995(6) 0.1082(7)
H107 H 0.2347 0.1846 0.0606
H108 H 0.2151 0.2180 0.1178
H109 H 0.2390 0.1745 0.1448
C102 C 0.3161(3) 0.3219(6) 0.2409(7)
H110 H 0.2990 0.3167 0.2791
H111 H 0.3154 0.3555 0.2256
H112 H 0.3394 0.3142 0.2590
C103 C 0.3637(3) 0.3227(6) 0.1175(7)
H113 H 0.3658 0.3385 0.1644
H114 H 0.3626 0.3471 0.0796
H115 H 0.3839 0.3018 0.1095
O20 O 0.08398(17) 0.2581(3) 0.3090(4)
C136 C 0.0114(3) 0.1023(4) 0.0206(5)
H149 H 0.0251 0.0732 0.0123
H151 H 0.0271 0.1291 0.0312
Nd8 Nd 0.404358(14) 0.24840(2) 0.62156(3)
Nd9 Nd 0.026707(13) 0.244569(18) 0.37384(3)
O32 O 0.0332(2) 0.3251(3) 0.2046(5)
O35 O 0.0221(2) 0.1741(2) 0.1750(5)
B2 B 0.1774(5) 0.2500 0.7500
C8 C 0.0121(3) 0.2926(4) 0.8946(6)
H1 H 0.0266 0.2902 0.8514
H3 H 0.0270 0.2932 0.9374
C9 C 0.0194(3) 0.3563(4) 0.7707(6)
H4 H 0.0170 0.3786 0.7302
H5 H 0.0162 0.3233 0.7535
H6 H 0.0426 0.3596 0.7920
C19 C 0.0278(3) 0.6011(4) 0.8120(8)
H13 H 0.0432 0.5782 0.8362
H14 H 0.0182 0.6235 0.8474
H15 H 0.0410 0.6190 0.7757
C20 C 0.0262(3) 0.4952(4) 0.8167(7)
H16 H 0.0423 0.5186 0.8380
H17 H 0.0388 0.4751 0.7821
H18 H 0.0165 0.4749 0.8547
C32 C 0.0153(3) 0.4599(4) 0.6148(6)
H31 H 0.0115 0.4775 0.6598
H32 H 0.0117 0.4815 0.5739
H33 H 0.0392 0.4474 0.6137
C34 C 0.0114(3) 0.3977(4) 0.4794(5)
H34 H 0.0251 0.4268 0.4877
H36 H 0.0271 0.3709 0.4688
C35 C 0.1140(2) 0.2380(3) 0.9511(3)
C36 C 0.10543(19) 0.2099(3) 0.8900(4)
C37 C 0.1268(2) 0.2116(3) 0.8278(3)
C38 C 0.15681(18) 0.2413(3) 0.8268(3)
C39 C 0.16541(18) 0.2695(3) 0.8879(4)
C40 C 0.1440(2) 0.2678(3) 0.9501(3)
C42 C 0.1957(4) 0.3068(6) 0.8879(9)
H40 H 0.2086 0.3044 0.8425
H41 H 0.2114 0.3001 0.9282
H42 H 0.1861 0.3392 0.8929
C43 C 0.1174(3) 0.1785(6) 0.7644(6)
H43 H 0.0959 0.1612 0.7754
H44 H 0.1363 0.1555 0.7565
H45 H 0.1141 0.1979 0.7209
C44 C 0.0707(5) 0.1781(8) 0.8904(10)
H46 H 0.0591 0.1812 0.9371
H47 H 0.0767 0.1444 0.8820
H48 H 0.0550 0.1892 0.8523
C45 C 0.3334(4) 0.2500 0.7500
C46 C 0.2938(4) 0.2500 0.7500
C47 C 0.2757(3) 0.2919(4) 0.7267(6)
C48 C 0.2383(3) 0.2917(4) 0.7252(6)
C49 C 0.2198(4) 0.2500 0.7500
C50 C 0.2193(3) 0.3373(5) 0.6981(8)
H49 H 0.1940 0.3321 0.7000
H50 H 0.2263 0.3440 0.6485
H51 H 0.2255 0.3646 0.7288
C51 C 0.2962(3) 0.3374(4) 0.7041(7)
H52 H 0.3212 0.3312 0.7083
H53 H 0.2897 0.3642 0.7355
H54 H 0.2905 0.3455 0.6542
O9 O 0.34890(18) 0.2504(3) 0.8104(4)
C74 C 0.0888(5) 0.2627(7) 0.4872(10)
C75 C 0.1140(2) 0.2620(3) 0.5489(3)
C76 C 0.10543(19) 0.2901(3) 0.6100(4)
C77 C 0.1268(2) 0.2884(3) 0.6722(3)
C78 C 0.15681(18) 0.2587(3) 0.6732(3)
C79 C 0.16541(18) 0.2305(3) 0.6121(4)
C80 C 0.1440(2) 0.2322(3) 0.5499(3)
C81 C 0.1545(5) 0.2061(6) 0.4777(8)
H80 H 0.1756 0.1870 0.4856
H81 H 0.1589 0.2302 0.4404
H82 H 0.1355 0.1850 0.4624
C82 C 0.1957(4) 0.1932(6) 0.6121(9)
H83 H 0.2086 0.1956 0.6575
H84 H 0.2114 0.1999 0.5718
H85 H 0.1861 0.1608 0.6071
C83 C 0.1174(3) 0.3215(6) 0.7356(6)
H86 H 0.0959 0.3388 0.7246
H87 H 0.1363 0.3445 0.7435
H88 H 0.1141 0.3021 0.7791
C84 C 0.0707(5) 0.3219(8) 0.6096(10)
H89 H 0.0591 0.3188 0.5629
H90 H 0.0767 0.3556 0.6180
H91 H 0.0550 0.3108 0.6477
C85 C 0.2757(3) 0.2081(4) 0.7733(6)
C86 C 0.2383(3) 0.2083(4) 0.7748(6)
C87 C 0.2193(3) 0.1627(5) 0.8019(8)
H92 H 0.1940 0.1679 0.8000
H93 H 0.2263 0.1560 0.8515
H94 H 0.2255 0.1354 0.7712
C88 C 0.2962(3) 0.1626(4) 0.7959(7)
H95 H 0.3212 0.1688 0.7917
H96 H 0.2897 0.1358 0.7645
H97 H 0.2905 0.1545 0.8458
O17 O 0.0728(3) 0.2223(6) 0.4678(6)
O18 O 0.0724(3) 0.2957(6) 0.4577(6)
O19 O 0.34890(18) 0.2496(3) 0.6896(4)
C93 C 0.3502(4) 0.2612(6) 0.9884(6)
C100 C 0.2826(4) 0.2137(7) 0.9738(6)
H104 H 0.2613 0.1945 0.9778
H105 H 0.3019 0.1930 0.9588
H106 H 0.2792 0.2391 0.9382
O21 O 0.3572(2) 0.2993(4) 0.9556(5)
O22 O 0.3628(2) 0.2203(4) 0.9750(5)
C111 C 0.0121(3) 0.2074(4) 0.6054(6)
H116 H 0.0266 0.2098 0.6486
H118 H 0.0270 0.2068 0.5626
C112 C 0.0194(3) 0.1437(4) 0.7293(6)
H119 H 0.0170 0.1214 0.7698
H120 H 0.0162 0.1767 0.7465
H121 H 0.0426 0.1404 0.7080
C123 C 0.0262(3) 0.0048(4) 0.6833(7)
H132 H 0.0388 0.0249 0.7179
H133 H 0.0165 0.0251 0.6453
C135 C 0.0153(3) 0.0401(4) 0.8852(6)
H146 H 0.0115 0.0225 0.8402
H147 H 0.0117 0.0185 0.9261
H148 H 0.0392 0.0526 0.8863
Nd6 Nd 0.404358(14) 0.25160(2) 0.87844(3)
O33 O 0.0332(2) 0.1749(3) 0.2954(5)
O34 O 0.0221(2) 0.3259(2) 0.3250(5)
Nd1 Nd 0.904358(14) 0.25160(2) 0.12156(3)
C1 C 0.9673(3) 0.3211(3) 0.0184(6)
C11 C 0.9205(3) 0.4060(4) 0.0091(5)
H10 H 0.9233 0.3822 0.0474
H12 H 0.9274 0.4377 0.0270
C70 C 0.9551(4) 0.2500 0.2500
O1 O 0.9950(2) 0.3177(2) 0.0533(4)
O2 O 0.9384(2) 0.3006(3) 0.0353(4)
O13 O 0.96896(16) 0.2555(2) 0.1888(4)
O14 O 0.9200(3) 0.2500 0.2500
O15 O 0.8965(2) 0.3370(3) 0.1753(5)
O16 O 0.8954(3) 0.1645(3) 0.1650(5)
N1 N 0.9067(5) 0.0908(6) 0.1040(11)
C71 C 0.8876(13) 0.1370(13) 0.112(2)
H73 H 0.8699 0.1458 0.0793
C72 C 0.9042(14) 0.0607(15) 0.036(2)
H74 H 0.8888 0.0767 0.0016
H75 H 0.8947 0.0290 0.0481
H76 H 0.9274 0.0570 0.0151
C73 C 0.9309(13) 0.0731(17) 0.165(2)
H77 H 0.9294 0.0953 0.2057
H78 H 0.9549 0.0720 0.1472
H79 H 0.9237 0.0410 0.1801
O23 O 0.96896(16) 0.2445(2) 0.3112(4)
C126 C 0.9675(3) 0.1893(3) 0.0174(6)
H150 H 0.9957 0.0972 0.0613
O28 O 0.9395(2) 0.1937(3) 0.0533(4)
O29 O 0.99629(19) 0.2111(2) 0.0319(3)
Nd5 Nd 0.904358(14) 0.24840(2) 0.37844(3)
O36 O 0.84890(18) 0.2504(3) 0.1896(4)
O40 O 0.8572(2) 0.2993(4) 0.0444(5)
O42 O 0.8628(2) 0.2203(4) 0.0250(5)
B1 B 0.9680(3) 0.4375(4) 0.7443(6)
C2 C 0.96697(16) 0.35117(19) 0.9480(3)
C3 C 0.94466(15) 0.3915(2) 0.9414(3)
C4 C 0.94566(15) 0.42008(18) 0.8782(3)
C5 C 0.96897(17) 0.4082(2) 0.8217(3)
C6 C 0.99127(15) 0.3679(2) 0.8283(3)
C7 C 0.99027(15) 0.33933(18) 0.8915(3)
H2 H 0.9965 0.2648 0.8971
C10 C 0.9181(3) 0.4616(4) 0.8662(6)
H7 H 0.9040 0.4655 0.9098
H8 H 0.9029 0.4533 0.8257
H9 H 0.9302 0.4918 0.8557
H11 H 0.8961 0.4070 0.9940
C12 C 0.9723(3) 0.6537(4) 0.7344(7)
C13 C 0.97135(16) 0.59872(14) 0.7358(3)
C14 C 0.94443(14) 0.57338(19) 0.6998(3)
C15 C 0.94339(14) 0.52249(19) 0.7027(3)
C16 C 0.96926(17) 0.49695(14) 0.7415(3)
C17 C 0.99618(15) 0.52229(19) 0.7774(3)
C18 C 0.99722(15) 0.57318(19) 0.7746(3)
C21 C 0.9131(3) 0.4962(4) 0.6638(7)
H19 H 0.9157 0.4614 0.6703
H20 H 0.9138 0.5038 0.6123
H21 H 0.8908 0.5067 0.6841
C22 C 0.9164(3) 0.6013(4) 0.6565(6)
H22 H 0.9209 0.6359 0.6601
H23 H 0.8932 0.5942 0.6762
H24 H 0.9172 0.5915 0.6060
C23 C 0.9675(3) 0.3107(3) 0.4826(6)
C24 C 0.96761(16) 0.34437(19) 0.5476(3)
C25 C 0.98923(15) 0.3857(2) 0.5494(3)
C26 C 0.98860(16) 0.41651(18) 0.6102(3)
C27 C 0.96636(17) 0.40606(19) 0.6690(3)
C28 C 0.94474(16) 0.3648(2) 0.6672(3)
C29 C 0.94536(16) 0.33392(18) 0.6065(3)
C30 C 0.9243(3) 0.2858(4) 0.6086(6)
H25 H 0.9104 0.2845 0.6528
H26 H 0.9405 0.2586 0.6076
H27 H 0.9088 0.2842 0.5668
C31 C 0.9166(3) 0.3545(5) 0.7262(6)
H28 H 0.9047 0.3243 0.7151
H29 H 0.8997 0.3807 0.7272
H30 H 0.9280 0.3519 0.7733
H35 H 0.9957 0.4028 0.4387
O3 O 0.9668(2) 0.6749(3) 0.7954(5)
O4 O 0.9779(2) 0.6741(2) 0.6750(5)
O5 O 0.9395(2) 0.3063(3) 0.4467(4)
O6 O 0.99629(19) 0.2889(2) 0.4681(3)
B4 B 0.9680(3) 0.0625(4) 0.7557(6)
C104 C 0.9673(3) 0.1789(3) 0.4816(6)
C105 C 0.96697(16) 0.14883(19) 0.5520(3)
C106 C 0.94466(15) 0.1085(2) 0.5586(3)
C107 C 0.94566(15) 0.07992(18) 0.6218(3)
C108 C 0.96897(17) 0.0918(2) 0.6783(3)
C109 C 0.99127(15) 0.1321(2) 0.6717(3)
C110 C 0.99027(15) 0.16067(18) 0.6085(3)
H117 H 0.9965 0.2352 0.6029
C113 C 0.9181(3) 0.0384(4) 0.6338(6)
H122 H 0.9040 0.0345 0.5902
H123 H 0.9029 0.0467 0.6743
H124 H 0.9302 0.0082 0.6443
C114 C 0.9205(3) 0.0940(4) 0.4909(5)
H125 H 0.9233 0.1178 0.4526
H126 H 0.8961 0.0930 0.5060
H127 H 0.9274 0.0623 0.4730
C119 C 0.96926(17) 0.00305(14) 0.7585(3)
C124 C 0.9131(3) 0.0038(4) 0.8362(7)
H134 H 0.9157 0.0386 0.8297
C127 C 0.96761(16) 0.15563(19) 0.9524(3)
C128 C 0.98923(15) 0.1143(2) 0.9506(3)
C129 C 0.98860(16) 0.08349(18) 0.8898(3)
C130 C 0.96636(17) 0.09394(19) 0.8310(3)
C131 C 0.94474(16) 0.1352(2) 0.8328(3)
C132 C 0.94536(16) 0.16608(18) 0.8935(3)
C133 C 0.9243(3) 0.2142(4) 0.8914(6)
H140 H 0.9104 0.2155 0.8472
H141 H 0.9405 0.2414 0.8924
H142 H 0.9088 0.2158 0.9332
C134 C 0.9166(3) 0.1455(5) 0.7738(6)
H143 H 0.9047 0.1757 0.7849
H144 H 0.8997 0.1193 0.7728
H145 H 0.9280 0.1481 0.7267
O24 O 0.9950(2) 0.1823(2) 0.4467(4)
O25 O 0.9384(2) 0.1994(3) 0.4647(4)
O30 O 0.8965(2) 0.1630(3) 0.3247(5)
O31 O 0.8954(3) 0.3355(3) 0.3350(5)
N2 N 0.9067(5) 0.4092(6) 0.3960(11)
C137 C 0.8876(13) 0.3630(13) 0.388(2)
H152 H 0.8699 0.3542 0.4207
C138 C 0.9042(14) 0.4393(15) 0.464(2)
H153 H 0.8888 0.4233 0.4984
H154 H 0.8947 0.4710 0.4519
H155 H 0.9274 0.4430 0.4849
C139 C 0.9309(13) 0.4269(17) 0.335(2)
H156 H 0.9294 0.4047 0.2943
H157 H 0.9549 0.4280 0.3528
H158 H 0.9237 0.4590 0.3199
Nd11 Nd 0.973293(13) 0.744569(18) 0.87384(3)
Nd13 Nd 0.973293(13) 0.755431(18) 0.62616(3)
O37 O 0.84890(18) 0.2496(3) 0.3104(4)
O39 O 0.8572(2) 0.2007(4) 0.4556(5)
O41 O 0.8628(2) 0.2797(4) 0.4750(5)
C115 C 0.9723(3) 0.8463(4) 0.7656(7)
C116 C 0.97135(16) 0.90128(14) 0.7642(3)
C117 C 0.94443(14) 0.92662(19) 0.8002(3)
C118 C 0.94339(14) 0.97751(19) 0.7973(3)
C120 C 0.99618(15) 0.97771(19) 0.7226(3)
C121 C 0.99722(15) 0.92682(19) 0.7254(3)
H135 H 0.9138 0.9962 0.8877
H136 H 0.8908 0.9933 0.8159
C125 C 0.9164(3) 0.8987(4) 0.8435(6)
H137 H 0.9209 0.8641 0.8399
H138 H 0.8932 0.9058 0.8238
H139 H 0.9172 0.9085 0.8940
O26 O 0.9668(2) 0.8251(3) 0.7046(5)
O27 O 0.9779(2) 0.8259(2) 0.8250(5)
C115_2 C 0.5277(3) 0.1537(4) 0.7656(7)
C116_2 C 0.52865(16) 0.09872(14) 0.7642(3)
C117_2 C 0.55557(14) 0.07338(19) 0.8002(3)
C118_2 C 0.55661(14) 0.02249(19) 0.7973(3)
C120_2 C 0.50382(15) 0.02229(19) 0.7226(3)
C121_2 C 0.50278(15) 0.07318(19) 0.7254(3)
C122 C 0.4722(3) 0.1011(4) 0.6880(8)
H128 H 0.4568 0.0782 0.6638
H129 H 0.4818 0.1235 0.6526
H130 H 0.4590 0.1190 0.7243
H131 H 0.4577 0.0186 0.6620
H135_2 H 0.5862 0.0038 0.8877
H136_2 H 0.6092 0.0067 0.8159
C125_2 C 0.5836(3) 0.1013(4) 0.8435(6)
H137_2 H 0.5791 0.1359 0.8399
H138_2 H 0.6068 0.0942 0.8238
H139_2 H 0.5828 0.0915 0.8940
O26_2 O 0.5332(2) 0.1749(3) 0.7046(5)
O27_2 O 0.5221(2) 0.1741(2) 0.8250(5)
Nd10 Nd 0.526707(13) 0.255431(18) 0.87384(3)
Nd12 Nd 0.526707(13) 0.244569(18) 0.62616(3)
Nd1_2 Nd 0.595642(14) 0.74840(2) 0.12156(3)
Nd2_2 Nd 0.473293(13) 0.744569(18) 0.12616(3)
B3_2 B 0.2445(5) 0.7500 0.2500
C1_2 C 0.5327(3) 0.6789(3) 0.0184(6)
C11_2 C 0.5795(3) 0.5940(4) 0.0091(5)
H10_2 H 0.5767 0.6178 0.0474
H12_2 H 0.5726 0.5623 0.0270
C33_2 C 0.4112(5) 0.7627(7) 0.0128(10)
C41_2 C 0.3455(5) 0.7061(6) 0.0223(8)
H37_2 H 0.3244 0.6870 0.0144
H38_2 H 0.3411 0.7302 0.0596
H39_2 H 0.3645 0.6850 0.0376
C52_2 C 0.4003(4) 0.7500 0.2500
C53_2 C 0.3607(3) 0.7500 0.2500
C54_2 C 0.3426(2) 0.7922(4) 0.2732(5)
C55_2 C 0.3053(2) 0.7912(4) 0.2745(5)
C56_2 C 0.2864(3) 0.7500 0.2500
C57_2 C 0.2843(3) 0.8372(4) 0.3001(7)
H55_2 H 0.2592 0.8306 0.2978
H56_2 H 0.2898 0.8644 0.2686
H57_2 H 0.2907 0.8451 0.3497
C58_2 C 0.3646(3) 0.8356(4) 0.2961(6)
H58_2 H 0.3894 0.8280 0.2906
H59_2 H 0.3598 0.8434 0.3465
H60_2 H 0.3588 0.8633 0.2658
C59_2 C 0.1498(4) 0.7612(6) 0.5116(6)
C60_2 C 0.17818(18) 0.7660(3) 0.4474(3)
C61_2 C 0.17009(15) 0.7921(3) 0.3840(4)
C62_2 C 0.19241(18) 0.7893(3) 0.3233(3)
C63_2 C 0.22281(16) 0.7604(3) 0.3260(3)
C64_2 C 0.23089(16) 0.7343(3) 0.3894(4)
C65_2 C 0.2086(2) 0.7371(3) 0.4500(3)
C66_2 C 0.2174(4) 0.7137(7) 0.5262(6)
H61_2 H 0.2387 0.6945 0.5222
H62_2 H 0.1981 0.6930 0.5412
H63_2 H 0.2208 0.7391 0.5618
C67_2 C 0.2636(4) 0.6995(6) 0.3918(7)
H64_2 H 0.2653 0.6846 0.4394
H65_2 H 0.2849 0.7180 0.3822
H66_2 H 0.2610 0.6745 0.3552
C68_2 C 0.1839(3) 0.8219(6) 0.2591(7)
H67_2 H 0.2010 0.8167 0.2209
H68_2 H 0.1846 0.8555 0.2744
H69_2 H 0.1606 0.8142 0.2410
C69_2 C 0.1363(3) 0.8227(6) 0.3825(7)
H70_2 H 0.1342 0.8385 0.3356
H71_2 H 0.1374 0.8471 0.4204
H72_2 H 0.1161 0.8018 0.3905
C70_2 C 0.5449(4) 0.7500 0.2500
O1_2 O 0.5050(2) 0.6823(2) 0.0533(4)
O2_2 O 0.5616(2) 0.6994(3) 0.0353(4)
O7_2 O 0.4272(3) 0.7223(6) 0.0322(6)
O8_2 O 0.4276(3) 0.7957(6) 0.0423(6)
O10_2 O 0.41602(17) 0.7581(3) 0.1910(4)
O11_2 O 0.1428(2) 0.7993(4) 0.5444(5)
O12_2 O 0.1372(2) 0.7203(4) 0.5250(5)
O13_2 O 0.53104(16) 0.7445(2) 0.1888(4)
O14_2 O 0.5800(3) 0.7500 0.2500
O15_2 O 0.6035(2) 0.6630(3) 0.1753(5)
O16_2 O 0.6046(3) 0.8355(3) 0.1650(5)
N1_2 N 0.5933(5) 0.9092(6) 0.1040(11)
C71_2 C 0.6124(13) 0.8630(13) 0.112(2)
H73_2 H 0.6301 0.8542 0.0793
C72_2 C 0.5958(14) 0.9393(15) 0.036(2)
H74_2 H 0.6112 0.9233 0.0016
H75_2 H 0.6053 0.9710 0.0481
H76_2 H 0.5726 0.9430 0.0151
C73_2 C 0.5691(13) 0.9269(17) 0.165(2)
H77_2 H 0.5706 0.9047 0.2057
H78_2 H 0.5451 0.9280 0.1472
H79_2 H 0.5763 0.9590 0.1801
C89_2 C 0.3426(2) 0.7078(4) 0.2268(5)
C90_2 C 0.3053(2) 0.7088(4) 0.2255(5)
C91_2 C 0.2843(3) 0.6628(4) 0.1999(7)
H98_2 H 0.2592 0.6694 0.2022
H99_2 H 0.2898 0.6356 0.2314
H100_2 H 0.2907 0.6549 0.1503
C92_2 C 0.3646(3) 0.6644(4) 0.2039(6)
H101_2 H 0.3894 0.6720 0.2094
H102_2 H 0.3598 0.6566 0.1535
H103_2 H 0.3588 0.6367 0.2342
C94_2 C 0.17818(18) 0.7340(3) 0.0526(3)
C95_2 C 0.17009(15) 0.7079(3) 0.1160(4)
C96_2 C 0.19241(18) 0.7107(3) 0.1767(3)
C97_2 C 0.22281(16) 0.7396(3) 0.1740(3)
C98_2 C 0.23089(16) 0.7657(3) 0.1106(4)
C99_2 C 0.2086(2) 0.7629(3) 0.0500(3)
C101_2 C 0.2636(4) 0.8005(6) 0.1082(7)
H107_2 H 0.2653 0.8154 0.0606
H108_2 H 0.2849 0.7820 0.1178
H109_2 H 0.2610 0.8255 0.1448
C102_2 C 0.1839(3) 0.6781(6) 0.2409(7)
H110_2 H 0.2010 0.6833 0.2791
H111_2 H 0.1846 0.6445 0.2256
H112_2 H 0.1606 0.6858 0.2590
C103_2 C 0.1363(3) 0.6773(6) 0.1175(7)
H113_2 H 0.1342 0.6615 0.1644
H114_2 H 0.1374 0.6529 0.0796
H115_2 H 0.1161 0.6982 0.1095
O20_2 O 0.41602(17) 0.7419(3) 0.3090(4)
O23_2 O 0.53104(16) 0.7555(2) 0.3112(4)
C126_2 C 0.5325(3) 0.8107(3) 0.0174(6)
C136_2 C 0.4886(3) 0.8977(4) 0.0206(5)
H149_2 H 0.4749 0.9268 0.0123
H150_2 H 0.5043 0.9028 0.0613
H151_2 H 0.4729 0.8709 0.0312
O28_2 O 0.5605(2) 0.8063(3) 0.0533(4)
O29_2 O 0.50371(19) 0.7889(2) 0.0319(3)
Nd5_2 Nd 0.595642(14) 0.75160(2) 0.37844(3)
Nd8_2 Nd 0.095642(14) 0.75160(2) 0.62156(3)
Nd9_2 Nd 0.473293(13) 0.755431(18) 0.37384(3)
O32_2 O 0.4668(2) 0.6749(3) 0.2046(5)
O35_2 O 0.4779(2) 0.8259(2) 0.1750(5)
O36_2 O 0.65110(18) 0.7496(3) 0.1896(4)
O40_2 O 0.6428(2) 0.7007(4) 0.0444(5)
O42_2 O 0.6372(2) 0.7797(4) 0.0250(5)
B1_2 B 0.5320(3) 0.5625(4) 0.7443(6)
B2_2 B 0.3226(5) 0.7500 0.7500
C2_2 C 0.53303(16) 0.64883(19) 0.9480(3)
C3_2 C 0.55534(15) 0.6085(2) 0.9414(3)
C4_2 C 0.55434(15) 0.57992(18) 0.8782(3)
C5_2 C 0.53103(17) 0.5918(2) 0.8217(3)
C6_2 C 0.50873(15) 0.6321(2) 0.8283(3)
C7_2 C 0.50973(15) 0.66067(18) 0.8915(3)
C8_2 C 0.4879(3) 0.7074(4) 0.8946(6)
H1_2 H 0.4734 0.7098 0.8514
H2_2 H 0.5035 0.7352 0.8971
H3_2 H 0.4730 0.7068 0.9374
C9_2 C 0.4806(3) 0.6437(4) 0.7707(6)
H4_2 H 0.4830 0.6214 0.7302
H5_2 H 0.4838 0.6767 0.7535
H6_2 H 0.4574 0.6404 0.7920
C10_2 C 0.5819(3) 0.5384(4) 0.8662(6)
H7_2 H 0.5960 0.5345 0.9098
H8_2 H 0.5971 0.5467 0.8257
H9_2 H 0.5698 0.5082 0.8557
H11_2 H 0.6039 0.5930 0.9940
C12_2 C 0.5277(3) 0.3463(4) 0.7344(7)
C13_2 C 0.52865(16) 0.40128(14) 0.7358(3)
C14_2 C 0.55557(14) 0.42662(19) 0.6998(3)
C15_2 C 0.55661(14) 0.47751(19) 0.7027(3)
C16_2 C 0.53074(17) 0.50305(14) 0.7415(3)
C17_2 C 0.50382(15) 0.47771(19) 0.7774(3)
C18_2 C 0.50278(15) 0.42682(19) 0.7746(3)
C19_2 C 0.4722(3) 0.3989(4) 0.8120(8)
H13_2 H 0.4568 0.4218 0.8362
H14_2 H 0.4818 0.3765 0.8474
H15_2 H 0.4590 0.3810 0.7757
C20_2 C 0.4738(3) 0.5048(4) 0.8167(7)
H16_2 H 0.4577 0.4814 0.8380
H17_2 H 0.4612 0.5249 0.7821
H18_2 H 0.4835 0.5251 0.8547
C21_2 C 0.5869(3) 0.5038(4) 0.6638(7)
H19_2 H 0.5843 0.5386 0.6703
H20_2 H 0.5862 0.4962 0.6123
H21_2 H 0.6092 0.4933 0.6841
C22_2 C 0.5836(3) 0.3987(4) 0.6565(6)
H22_2 H 0.5791 0.3641 0.6601
H23_2 H 0.6068 0.4058 0.6762
H24_2 H 0.5828 0.4085 0.6060
C23_2 C 0.5325(3) 0.6893(3) 0.4826(6)
C24_2 C 0.53239(16) 0.65563(19) 0.5476(3)
C25_2 C 0.51077(15) 0.6143(2) 0.5494(3)
C26_2 C 0.51140(16) 0.58349(18) 0.6102(3)
C27_2 C 0.53364(17) 0.59394(19) 0.6690(3)
C28_2 C 0.55526(16) 0.6352(2) 0.6672(3)
C29_2 C 0.55464(16) 0.66608(18) 0.6065(3)
C30_2 C 0.5757(3) 0.7142(4) 0.6086(6)
H25_2 H 0.5896 0.7155 0.6528
H26_2 H 0.5595 0.7414 0.6076
H27_2 H 0.5912 0.7158 0.5668
C31_2 C 0.5834(3) 0.6455(5) 0.7262(6)
H28_2 H 0.5953 0.6757 0.7151
H29_2 H 0.6003 0.6193 0.7272
H30_2 H 0.5720 0.6481 0.7733
C32_2 C 0.4847(3) 0.5401(4) 0.6148(6)
H31_2 H 0.4885 0.5225 0.6598
H32_2 H 0.4883 0.5185 0.5739
H33_2 H 0.4608 0.5526 0.6137
C34_2 C 0.4886(3) 0.6023(4) 0.4794(5)
H34_2 H 0.4749 0.5732 0.4877
H35_2 H 0.5043 0.5972 0.4387
H36_2 H 0.4729 0.6291 0.4688
C35_2 C 0.3860(2) 0.7620(3) 0.9511(3)
C36_2 C 0.39457(19) 0.7901(3) 0.8900(4)
C37_2 C 0.3732(2) 0.7884(3) 0.8278(3)
C38_2 C 0.34319(18) 0.7587(3) 0.8268(3)
C39_2 C 0.33459(18) 0.7305(3) 0.8879(4)
C40_2 C 0.3560(2) 0.7322(3) 0.9501(3)
C42_2 C 0.3043(4) 0.6932(6) 0.8879(9)
H40_2 H 0.2914 0.6956 0.8425
H41_2 H 0.2886 0.6999 0.9282
H42_2 H 0.3139 0.6608 0.8929
C43_2 C 0.3826(3) 0.8215(6) 0.7644(6)
H43_2 H 0.4041 0.8388 0.7754
H44_2 H 0.3637 0.8445 0.7565
H45_2 H 0.3859 0.8021 0.7209
C44_2 C 0.4293(5) 0.8219(8) 0.8904(10)
H46_2 H 0.4409 0.8188 0.9371
H47_2 H 0.4233 0.8556 0.8820
H48_2 H 0.4450 0.8108 0.8523
C45_2 C 0.1666(4) 0.7500 0.7500
C46_2 C 0.2062(4) 0.7500 0.7500
C47_2 C 0.2243(3) 0.7081(4) 0.7267(6)
C48_2 C 0.2617(3) 0.7083(4) 0.7252(6)
C49_2 C 0.2802(4) 0.7500 0.7500
C50_2 C 0.2807(3) 0.6627(5) 0.6981(8)
H49_2 H 0.3060 0.6679 0.7000
H50_2 H 0.2737 0.6560 0.6485
H51_2 H 0.2745 0.6354 0.7288
C51_2 C 0.2038(3) 0.6626(4) 0.7041(7)
H52_2 H 0.1788 0.6688 0.7083
H53_2 H 0.2103 0.6358 0.7355
H54_2 H 0.2095 0.6545 0.6542
O3_2 O 0.5332(2) 0.3251(3) 0.7954(5)
O4_2 O 0.5221(2) 0.3259(2) 0.6750(5)
O5_2 O 0.5605(2) 0.6937(3) 0.4467(4)
O6_2 O 0.50371(19) 0.7111(2) 0.4681(3)
O9_2 O 0.15110(18) 0.7496(3) 0.8104(4)
C74_2 C 0.4112(5) 0.7373(7) 0.4872(10)
C75_2 C 0.3860(2) 0.7380(3) 0.5489(3)
C76_2 C 0.39457(19) 0.7099(3) 0.6100(4)
C77_2 C 0.3732(2) 0.7116(3) 0.6722(3)
C78_2 C 0.34319(18) 0.7413(3) 0.6732(3)
C79_2 C 0.33459(18) 0.7695(3) 0.6121(4)
C80_2 C 0.3560(2) 0.7678(3) 0.5499(3)
C81_2 C 0.3455(5) 0.7939(6) 0.4777(8)
H80_2 H 0.3244 0.8130 0.4856
H81_2 H 0.3411 0.7698 0.4404
H82_2 H 0.3645 0.8150 0.4624
C82_2 C 0.3043(4) 0.8068(6) 0.6121(9)
H83_2 H 0.2914 0.8044 0.6575
H84_2 H 0.2886 0.8001 0.5718
H85_2 H 0.3139 0.8392 0.6071
C83_2 C 0.3826(3) 0.6785(6) 0.7356(6)
H86_2 H 0.4041 0.6612 0.7246
H87_2 H 0.3637 0.6555 0.7435
H88_2 H 0.3859 0.6979 0.7791
C84_2 C 0.4293(5) 0.6781(8) 0.6096(10)
H89_2 H 0.4409 0.6812 0.5629
H90_2 H 0.4233 0.6444 0.6180
H91_2 H 0.4450 0.6892 0.6477
C85_2 C 0.2243(3) 0.7919(4) 0.7733(6)
C86_2 C 0.2617(3) 0.7917(4) 0.7748(6)
C87_2 C 0.2807(3) 0.8373(5) 0.8019(8)
H92_2 H 0.3060 0.8321 0.8000
H93_2 H 0.2737 0.8440 0.8515
H94_2 H 0.2745 0.8646 0.7712
C88_2 C 0.2038(3) 0.8374(4) 0.7959(7)
H95_2 H 0.1788 0.8312 0.7917
H96_2 H 0.2103 0.8642 0.7645
H97_2 H 0.2095 0.8455 0.8458
O17_2 O 0.4272(3) 0.7777(6) 0.4678(6)
O18_2 O 0.4276(3) 0.7043(6) 0.4577(6)
O19_2 O 0.15110(18) 0.7504(3) 0.6896(4)
C93_2 C 0.1498(4) 0.7388(6) 0.9884(6)
C100_2 C 0.2174(4) 0.7863(7) 0.9738(6)
H104_2 H 0.2387 0.8055 0.9778
H105_2 H 0.1981 0.8070 0.9588
H106_2 H 0.2208 0.7609 0.9382
O21_2 O 0.1428(2) 0.7007(4) 0.9556(5)
O22_2 O 0.1372(2) 0.7797(4) 0.9750(5)
B4_2 B 0.5320(3) 0.9375(4) 0.7557(6)
C104_2 C 0.5327(3) 0.8211(3) 0.4816(6)
C105_2 C 0.53303(16) 0.85117(19) 0.5520(3)
C106_2 C 0.55534(15) 0.8915(2) 0.5586(3)
C107_2 C 0.55434(15) 0.92008(18) 0.6218(3)
C108_2 C 0.53103(17) 0.9082(2) 0.6783(3)
C109_2 C 0.50873(15) 0.8679(2) 0.6717(3)
C110_2 C 0.50973(15) 0.83933(18) 0.6085(3)
C111_2 C 0.4879(3) 0.7926(4) 0.6054(6)
H116_2 H 0.4734 0.7902 0.6486
H117_2 H 0.5035 0.7648 0.6029
H118_2 H 0.4730 0.7932 0.5626
C112_2 C 0.4806(3) 0.8563(4) 0.7293(6)
H119_2 H 0.4830 0.8786 0.7698
H120_2 H 0.4838 0.8233 0.7465
H121_2 H 0.4574 0.8596 0.7080
C113_2 C 0.5819(3) 0.9616(4) 0.6338(6)
H122_2 H 0.5960 0.9655 0.5902
H123_2 H 0.5971 0.9533 0.6743
H124_2 H 0.5698 0.9918 0.6443
C114_2 C 0.5795(3) 0.9060(4) 0.4909(5)
H125_2 H 0.5767 0.8822 0.4526
H126_2 H 0.6039 0.9070 0.5060
H127_2 H 0.5726 0.9377 0.4730
C119_2 C 0.53074(17) 0.99695(14) 0.7585(3)
C123_2 C 0.4738(3) 0.9952(4) 0.6833(7)
H132_2 H 0.4612 0.9751 0.7179
H133_2 H 0.4835 0.9749 0.6453
C124_2 C 0.5869(3) 0.9962(4) 0.8362(7)
H134_2 H 0.5843 0.9614 0.8297
C127_2 C 0.53239(16) 0.84437(19) 0.9524(3)
C128_2 C 0.51077(15) 0.8857(2) 0.9506(3)
C129_2 C 0.51140(16) 0.91651(18) 0.8898(3)
C130_2 C 0.53364(17) 0.90606(19) 0.8310(3)
C131_2 C 0.55526(16) 0.8648(2) 0.8328(3)
C132_2 C 0.55464(16) 0.83392(18) 0.8935(3)
C133_2 C 0.5757(3) 0.7858(4) 0.8914(6)
H140_2 H 0.5896 0.7845 0.8472
H141_2 H 0.5595 0.7586 0.8924
H142_2 H 0.5912 0.7842 0.9332
C134_2 C 0.5834(3) 0.8545(5) 0.7738(6)
H143_2 H 0.5953 0.8243 0.7849
H144_2 H 0.6003 0.8807 0.7728
H145_2 H 0.5720 0.8519 0.7267
C135_2 C 0.4847(3) 0.9599(4) 0.8852(6)
H146_2 H 0.4885 0.9775 0.8402
H147_2 H 0.4883 0.9815 0.9261
H148_2 H 0.4608 0.9474 0.8863
O24_2 O 0.5050(2) 0.8177(2) 0.4467(4)
O25_2 O 0.5616(2) 0.8006(3) 0.4647(4)
O30_2 O 0.6035(2) 0.8370(3) 0.3247(5)
O31_2 O 0.6046(3) 0.6645(3) 0.3350(5)
N2_2 N 0.5933(5) 0.5908(6) 0.3960(11)
C137_2 C 0.6124(13) 0.6370(13) 0.388(2)
H152_2 H 0.6301 0.6458 0.4207
C138_2 C 0.5958(14) 0.5607(15) 0.464(2)
H153_2 H 0.6112 0.5767 0.4984
H154_2 H 0.6053 0.5290 0.4519
H155_2 H 0.5726 0.5570 0.4849
C139_2 C 0.5691(13) 0.5731(17) 0.335(2)
H156_2 H 0.5706 0.5953 0.2943
H157_2 H 0.5451 0.5720 0.3528
H158_2 H 0.5763 0.5410 0.3199
Nd6_2 Nd 0.095642(14) 0.74840(2) 0.87844(3)
O33_2 O 0.4668(2) 0.8251(3) 0.2954(5)
O34_2 O 0.4779(2) 0.6741(2) 0.3250(5)
O37_2 O 0.65110(18) 0.7504(3) 0.3104(4)
O39_2 O 0.6428(2) 0.7993(4) 0.4556(5)
O41_2 O 0.6372(2) 0.7203(4) 0.4750(5)
C115_3 C 0.0277(3) 0.1537(4) 0.2344(7)
C116_3 C 0.02865(16) 0.09872(14) 0.2358(3)
C117_3 C 0.05557(14) 0.07338(19) 0.1998(3)
C118_3 C 0.05661(14) 0.02249(19) 0.2027(3)
C120_3 C 0.00382(15) 0.02229(19) 0.2774(3)
C121_3 C 0.00278(15) 0.07318(19) 0.2746(3)
H135_3 H 0.0862 0.0038 0.1123
H136_3 H 0.1092 0.0067 0.1841
C125_3 C 0.0836(3) 0.1013(4) 0.1565(6)
H137_3 H 0.0791 0.1359 0.1601
H138_3 H 0.1068 0.0942 0.1762
H139_3 H 0.0828 0.0915 0.1060
B1_3 B 0.0320(3) 0.5625(4) 0.2557(6)
C2_3 C 0.03303(16) 0.64883(19) 0.0520(3)
C3_3 C 0.05534(15) 0.6085(2) 0.0586(3)
C4_3 C 0.05434(15) 0.57992(18) 0.1218(3)
C5_3 C 0.03103(17) 0.5918(2) 0.1783(3)
C6_3 C 0.00873(15) 0.6321(2) 0.1717(3)
C7_3 C 0.00973(15) 0.66067(18) 0.1085(3)
H2_3 H 0.0035 0.7352 0.1029
C10_3 C 0.0819(3) 0.5384(4) 0.1338(6)
H7_3 H 0.0960 0.5345 0.0902
H8_3 H 0.0971 0.5467 0.1743
H9_3 H 0.0698 0.5082 0.1443
H11_3 H 0.1039 0.5930 0.0060
C12_3 C 0.0277(3) 0.3463(4) 0.2656(7)
C13_3 C 0.02865(16) 0.40128(14) 0.2642(3)
C14_3 C 0.05557(14) 0.42662(19) 0.3002(3)
C15_3 C 0.05661(14) 0.47751(19) 0.2973(3)
C16_3 C 0.03074(17) 0.50305(14) 0.2585(3)
C17_3 C 0.00382(15) 0.47771(19) 0.2226(3)
C18_3 C 0.00278(15) 0.42682(19) 0.2254(3)
C21_3 C 0.0869(3) 0.5038(4) 0.3362(7)
H19_3 H 0.0843 0.5386 0.3297
H20_3 H 0.0862 0.4962 0.3877
H21_3 H 0.1092 0.4933 0.3159
C22_3 C 0.0836(3) 0.3987(4) 0.3435(6)
H22_3 H 0.0791 0.3641 0.3399
H23_3 H 0.1068 0.4058 0.3238
H24_3 H 0.0828 0.4085 0.3940
C23_3 C 0.0325(3) 0.6893(3) 0.5174(6)
C24_3 C 0.03239(16) 0.65563(19) 0.4524(3)
C25_3 C 0.01077(15) 0.6143(2) 0.4506(3)
C26_3 C 0.01140(16) 0.58349(18) 0.3898(3)
C27_3 C 0.03364(17) 0.59394(19) 0.3310(3)
C28_3 C 0.05526(16) 0.6352(2) 0.3328(3)
C29_3 C 0.05464(16) 0.66608(18) 0.3935(3)
C30_3 C 0.0757(3) 0.7142(4) 0.3914(6)
H25_3 H 0.0896 0.7155 0.3472
H26_3 H 0.0595 0.7414 0.3924
H27_3 H 0.0912 0.7158 0.4332
C31_3 C 0.0834(3) 0.6455(5) 0.2738(6)
H28_3 H 0.0953 0.6757 0.2849
H29_3 H 0.1003 0.6193 0.2728
H30_3 H 0.0720 0.6481 0.2267
H35_3 H 0.0043 0.5972 0.5613
O5_3 O 0.0605(2) 0.6937(3) 0.5533(4)
O6_3 O 0.00371(19) 0.7111(2) 0.5319(3)
B4_3 B 0.0320(3) 0.9375(4) 0.2443(6)
C104_3 C 0.0327(3) 0.8211(3) 0.5184(6)
C105_3 C 0.03303(16) 0.85117(19) 0.4480(3)
C106_3 C 0.05534(15) 0.8915(2) 0.4414(3)
C107_3 C 0.05434(15) 0.92008(18) 0.3782(3)
C108_3 C 0.03103(17) 0.9082(2) 0.3217(3)
C109_3 C 0.00873(15) 0.8679(2) 0.3283(3)
C110_3 C 0.00973(15) 0.83933(18) 0.3915(3)
H117_3 H 0.0035 0.7648 0.3971
C113_3 C 0.0819(3) 0.9616(4) 0.3662(6)
H122_3 H 0.0960 0.9655 0.4098
H123_3 H 0.0971 0.9533 0.3257
H124_3 H 0.0698 0.9918 0.3557
C114_3 C 0.0795(3) 0.9060(4) 0.5091(5)
H125_3 H 0.0767 0.8822 0.5474
H126_3 H 0.1039 0.9070 0.4940
H127_3 H 0.0726 0.9377 0.5270
C119_3 C 0.03074(17) 0.99695(14) 0.2415(3)
C124_3 C 0.0869(3) 0.9962(4) 0.1638(7)
H134_3 H 0.0843 0.9614 0.1703
C127_3 C 0.03239(16) 0.84437(19) 0.0476(3)
C128_3 C 0.01077(15) 0.8857(2) 0.0494(3)
C129_3 C 0.01140(16) 0.91651(18) 0.1102(3)
C130_3 C 0.03364(17) 0.90606(19) 0.1690(3)
C131_3 C 0.05526(16) 0.8648(2) 0.1672(3)
C132_3 C 0.05464(16) 0.83392(18) 0.1065(3)
C133_3 C 0.0757(3) 0.7858(4) 0.1086(6)
H140_3 H 0.0896 0.7845 0.1528
H141_3 H 0.0595 0.7586 0.1076
H142_3 H 0.0912 0.7842 0.0668
C134_3 C 0.0834(3) 0.8545(5) 0.2262(6)
H143_3 H 0.0953 0.8243 0.2151
H144_3 H 0.1003 0.8807 0.2272
H145_3 H 0.0720 0.8519 0.2733
O24_3 O 0.0050(2) 0.8177(2) 0.5533(4)
O25_3 O 0.0616(2) 0.8006(3) 0.5353(4)
O30_3 O 0.1035(2) 0.8370(3) 0.6753(5)
O31_3 O 0.1046(3) 0.6645(3) 0.6650(5)
N2_3 N 0.0933(5) 0.5908(6) 0.6040(11)
C137_3 C 0.1124(13) 0.6370(13) 0.612(2)
H152_3 H 0.1301 0.6458 0.5793
C138_3 C 0.0958(14) 0.5607(15) 0.536(2)
H153_3 H 0.1112 0.5767 0.5016
H154_3 H 0.1053 0.5290 0.5481
H155_3 H 0.0726 0.5570 0.5151
C139_3 C 0.0691(13) 0.5731(17) 0.665(2)
H156_3 H 0.0706 0.5953 0.7057
H157_3 H 0.0451 0.5720 0.6472
H158_3 H 0.0763 0.5410 0.6801
O43 O 0.03104(16) 0.7555(2) 0.6888(4)
O44 O 0.0800(3) 0.7500 0.7500
C1_3 C 0.0327(3) 0.6789(3) 0.9816(6)
C11_3 C 0.0795(3) 0.5940(4) 0.9909(5)
H10_3 H 0.0767 0.6178 0.9526
H12_3 H 0.0726 0.5623 0.9730
C70_3 C 0.0449(4) 0.7500 0.7500
O1_3 O 0.0050(2) 0.6823(2) 0.9467(4)
O2_3 O 0.0616(2) 0.6994(3) 0.9647(4)
O13_3 O 0.03104(16) 0.7445(2) 0.8112(4)
O15_3 O 0.1035(2) 0.6630(3) 0.8247(5)
O16_3 O 0.1046(3) 0.8355(3) 0.8350(5)
N1_3 N 0.0933(5) 0.9092(6) 0.8960(11)
C71_3 C 0.1124(13) 0.8630(13) 0.888(2)
H73_3 H 0.1301 0.8542 0.9207
C72_3 C 0.0958(14) 0.9393(15) 0.964(2)
H74_3 H 0.1112 0.9233 0.9984
H75_3 H 0.1053 0.9710 0.9519
H76_3 H 0.0726 0.9430 0.9849
C73_3 C 0.0691(13) 0.9269(17) 0.835(2)
H77_3 H 0.0706 0.9047 0.7943
H78_3 H 0.0451 0.9280 0.8528
H79_3 H 0.0763 0.9590 0.8199
C126_3 C 0.0325(3) 0.8107(3) 0.9826(6)
H150_3 H 0.0043 0.9028 0.9387
O28_3 O 0.0605(2) 0.8063(3) 0.9467(4)
O29_3 O 0.00371(19) 0.7889(2) 0.9681(3)
B2_3 B 0.8226(5) 0.7500 0.2500
C8_3 C 0.9879(3) 0.7074(4) 0.1054(6)
H1_3 H 0.9734 0.7098 0.1486
H3_3 H 0.9730 0.7068 0.0626
C9_3 C 0.9806(3) 0.6437(4) 0.2293(6)
H4_3 H 0.9830 0.6214 0.2698
H5_3 H 0.9838 0.6767 0.2465
H6_3 H 0.9574 0.6404 0.2080
C19_3 C 0.9722(3) 0.3989(4) 0.1880(8)
H13_3 H 0.9568 0.4218 0.1638
H14_3 H 0.9818 0.3765 0.1526
H15_3 H 0.9590 0.3810 0.2243
C20_3 C 0.9738(3) 0.5048(4) 0.1833(7)
H16_3 H 0.9577 0.4814 0.1620
H17_3 H 0.9612 0.5249 0.2179
H18_3 H 0.9835 0.5251 0.1453
C32_3 C 0.9847(3) 0.5401(4) 0.3852(6)
H31_3 H 0.9885 0.5225 0.3402
H32_3 H 0.9883 0.5185 0.4261
H33_3 H 0.9608 0.5526 0.3863
C34_3 C 0.9886(3) 0.6023(4) 0.5206(5)
H34_3 H 0.9749 0.5732 0.5123
H36_3 H 0.9729 0.6291 0.5312
C35_3 C 0.8860(2) 0.7620(3) 0.0489(3)
C36_3 C 0.89457(19) 0.7901(3) 0.1100(4)
C37_3 C 0.8732(2) 0.7884(3) 0.1722(3)
C38_3 C 0.84319(18) 0.7587(3) 0.1732(3)
C39_3 C 0.83459(18) 0.7305(3) 0.1121(4)
C40_3 C 0.8560(2) 0.7322(3) 0.0499(3)
C42_3 C 0.8043(4) 0.6932(6) 0.1121(9)
H40_3 H 0.7914 0.6956 0.1575
H41_3 H 0.7886 0.6999 0.0718
H42_3 H 0.8139 0.6608 0.1071
C43_3 C 0.8826(3) 0.8215(6) 0.2356(6)
H43_3 H 0.9041 0.8388 0.2246
H44_3 H 0.8637 0.8445 0.2435
H45_3 H 0.8859 0.8021 0.2791
C44_3 C 0.9293(5) 0.8219(8) 0.1096(10)
H46_3 H 0.9409 0.8188 0.0629
H47_3 H 0.9233 0.8556 0.1180
H48_3 H 0.9450 0.8108 0.1477
C45_3 C 0.6666(4) 0.7500 0.2500
C46_3 C 0.7062(4) 0.7500 0.2500
C47_3 C 0.7243(3) 0.7081(4) 0.2733(6)
C48_3 C 0.7617(3) 0.7083(4) 0.2748(6)
C49_3 C 0.7802(4) 0.7500 0.2500
C50_3 C 0.7807(3) 0.6627(5) 0.3019(8)
H49_3 H 0.8060 0.6679 0.3000
H50_3 H 0.7737 0.6560 0.3515
H51_3 H 0.7745 0.6354 0.2712
C51_3 C 0.7038(3) 0.6626(4) 0.2959(7)
H52_3 H 0.6788 0.6688 0.2917
H53_3 H 0.7103 0.6358 0.2645
H54_3 H 0.7095 0.6545 0.3458
C74_3 C 0.9112(5) 0.7373(7) 0.5128(10)
C75_3 C 0.8860(2) 0.7380(3) 0.4511(3)
C76_3 C 0.89457(19) 0.7099(3) 0.3900(4)
C77_3 C 0.8732(2) 0.7116(3) 0.3278(3)
C78_3 C 0.84319(18) 0.7413(3) 0.3268(3)
C79_3 C 0.83459(18) 0.7695(3) 0.3879(4)
C80_3 C 0.8560(2) 0.7678(3) 0.4501(3)
C81_3 C 0.8455(5) 0.7939(6) 0.5223(8)
H80_3 H 0.8244 0.8130 0.5144
H81_3 H 0.8411 0.7698 0.5596
H82_3 H 0.8645 0.8150 0.5376
C82_3 C 0.8043(4) 0.8068(6) 0.3879(9)
H83_3 H 0.7914 0.8044 0.3425
H84_3 H 0.7886 0.8001 0.4282
H85_3 H 0.8139 0.8392 0.3929
C83_3 C 0.8826(3) 0.6785(6) 0.2644(6)
H86_3 H 0.9041 0.6612 0.2754
H87_3 H 0.8637 0.6555 0.2565
H88_3 H 0.8859 0.6979 0.2209
C84_3 C 0.9293(5) 0.6781(8) 0.3904(10)
H89_3 H 0.9409 0.6812 0.4371
H90_3 H 0.9233 0.6444 0.3820
H91_3 H 0.9450 0.6892 0.3523
C85_3 C 0.7243(3) 0.7919(4) 0.2267(6)
C86_3 C 0.7617(3) 0.7917(4) 0.2252(6)
C87_3 C 0.7807(3) 0.8373(5) 0.1981(8)
H92_3 H 0.8060 0.8321 0.2000
H93_3 H 0.7737 0.8440 0.1485
H94_3 H 0.7745 0.8646 0.2288
C88_3 C 0.7038(3) 0.8374(4) 0.2041(7)
H95_3 H 0.6788 0.8312 0.2083
H96_3 H 0.7103 0.8642 0.2355
H97_3 H 0.7095 0.8455 0.1542
O17_3 O 0.9272(3) 0.7777(6) 0.5322(6)
O18_3 O 0.9276(3) 0.7043(6) 0.5423(6)
C93_3 C 0.6498(4) 0.7388(6) 0.0116(6)
C100_3 C 0.7174(4) 0.7863(7) 0.0262(6)
H104_3 H 0.7387 0.8055 0.0222
H105_3 H 0.6981 0.8070 0.0412
H106_3 H 0.7208 0.7609 0.0618
C111_3 C 0.9879(3) 0.7926(4) 0.3946(6)
H116_3 H 0.9734 0.7902 0.3514
H118_3 H 0.9730 0.7932 0.4374
C112_3 C 0.9806(3) 0.8563(4) 0.2707(6)
H119_3 H 0.9830 0.8786 0.2302
H120_3 H 0.9838 0.8233 0.2535
H121_3 H 0.9574 0.8596 0.2920
C123_3 C 0.9738(3) 0.9952(4) 0.3167(7)
H132_3 H 0.9612 0.9751 0.2821
H133_3 H 0.9835 0.9749 0.3547
C135_3 C 0.9847(3) 0.9599(4) 0.1148(6)
H146_3 H 0.9885 0.9775 0.1598
H147_3 H 0.9883 0.9815 0.0739
H148_3 H 0.9608 0.9474 0.1137
O38 O 0.91602(17) 0.7419(3) 0.6910(4)
B3_3 B 0.7445(5) 0.7500 0.7500
C33_3 C 0.9112(5) 0.7627(7) 0.9872(10)
C41_3 C 0.8455(5) 0.7061(6) 0.9777(8)
H37_3 H 0.8244 0.6870 0.9856
H38_3 H 0.8411 0.7302 0.9404
H39_3 H 0.8645 0.6850 0.9624
C52_3 C 0.9003(4) 0.7500 0.7500
C53_3 C 0.8607(3) 0.7500 0.7500
C54_3 C 0.8426(2) 0.7922(4) 0.7268(5)
C55_3 C 0.8053(2) 0.7912(4) 0.7255(5)
C56_3 C 0.7864(3) 0.7500 0.7500
C57_3 C 0.7843(3) 0.8372(4) 0.6999(7)
H55_3 H 0.7592 0.8306 0.7022
H56_3 H 0.7898 0.8644 0.7314
H57_3 H 0.7907 0.8451 0.6503
C58_3 C 0.8646(3) 0.8356(4) 0.7039(6)
H58_3 H 0.8894 0.8280 0.7094
H59_3 H 0.8598 0.8434 0.6535
H60_3 H 0.8588 0.8633 0.7342
C59_3 C 0.6498(4) 0.7612(6) 0.4884(6)
C60_3 C 0.67818(18) 0.7660(3) 0.5526(3)
C61_3 C 0.67009(15) 0.7921(3) 0.6160(4)
C62_3 C 0.69241(18) 0.7893(3) 0.6767(3)
C63_3 C 0.72281(16) 0.7604(3) 0.6740(3)
C64_3 C 0.73089(16) 0.7343(3) 0.6106(4)
C65_3 C 0.7086(2) 0.7371(3) 0.5500(3)
C66_3 C 0.7174(4) 0.7137(7) 0.4738(6)
H61_3 H 0.7387 0.6945 0.4778
H62_3 H 0.6981 0.6930 0.4588
H63_3 H 0.7208 0.7391 0.4382
C67_3 C 0.7636(4) 0.6995(6) 0.6082(7)
H64_3 H 0.7653 0.6846 0.5606
H65_3 H 0.7849 0.7180 0.6178
H66_3 H 0.7610 0.6745 0.6448
C68_3 C 0.6839(3) 0.8219(6) 0.7409(7)
H67_3 H 0.7010 0.8167 0.7791
H68_3 H 0.6846 0.8555 0.7256
H69_3 H 0.6606 0.8142 0.7590
C69_3 C 0.6363(3) 0.8227(6) 0.6175(7)
H70_3 H 0.6342 0.8385 0.6644
H71_3 H 0.6374 0.8471 0.5796
H72_3 H 0.6161 0.8018 0.6095
O7_3 O 0.9272(3) 0.7223(6) 0.9678(6)
O8_3 O 0.9276(3) 0.7957(6) 0.9577(6)
O10_3 O 0.91602(17) 0.7581(3) 0.8090(4)
C89_3 C 0.8426(2) 0.7078(4) 0.7732(5)
C90_3 C 0.8053(2) 0.7088(4) 0.7745(5)
C91_3 C 0.7843(3) 0.6628(4) 0.8001(7)
H98_3 H 0.7592 0.6694 0.7978
H99_3 H 0.7898 0.6356 0.7686
H100_3 H 0.7907 0.6549 0.8497
C92_3 C 0.8646(3) 0.6644(4) 0.7961(6)
H101_3 H 0.8894 0.6720 0.7906
H102_3 H 0.8598 0.6566 0.8465
H103_3 H 0.8588 0.6367 0.7658
C94_3 C 0.67818(18) 0.7340(3) 0.9474(3)
C95_3 C 0.67009(15) 0.7079(3) 0.8840(4)
C96_3 C 0.69241(18) 0.7107(3) 0.8233(3)
C97_3 C 0.72281(16) 0.7396(3) 0.8260(3)
C98_3 C 0.73089(16) 0.7657(3) 0.8894(4)
C99_3 C 0.7086(2) 0.7629(3) 0.9500(3)
C101_3 C 0.7636(4) 0.8005(6) 0.8918(7)
H107_3 H 0.7653 0.8154 0.9394
H108_3 H 0.7849 0.7820 0.8822
H109_3 H 0.7610 0.8255 0.8552
C102_3 C 0.6839(3) 0.6781(6) 0.7591(7)
H110_3 H 0.7010 0.6833 0.7209
H111_3 H 0.6846 0.6445 0.7744
H112_3 H 0.6606 0.6858 0.7410
C103_3 C 0.6363(3) 0.6773(6) 0.8825(7)
H113_3 H 0.6342 0.6615 0.8356
H114_3 H 0.6374 0.6529 0.9204
H115_3 H 0.6161 0.6982 0.8905
C136_3 C 0.9886(3) 0.8977(4) 0.9794(5)
H149_3 H 0.9749 0.9268 0.9877
H151_3 H 0.9729 0.8709 0.9688
B1_4 B 0.4680(3) 0.4375(4) 0.2557(6)
B2_4 B 0.6774(5) 0.2500 0.2500
C2_4 C 0.46697(16) 0.35117(19) 0.0520(3)
C3_4 C 0.44466(15) 0.3915(2) 0.0586(3)
C4_4 C 0.44566(15) 0.42008(18) 0.1218(3)
C5_4 C 0.46897(17) 0.4082(2) 0.1783(3)
C6_4 C 0.49127(15) 0.3679(2) 0.1717(3)
C7_4 C 0.49027(15) 0.33933(18) 0.1085(3)
C8_4 C 0.5121(3) 0.2926(4) 0.1054(6)
H1_4 H 0.5266 0.2902 0.1486
H2_4 H 0.4965 0.2648 0.1029
H3_4 H 0.5270 0.2932 0.0626
C9_4 C 0.5194(3) 0.3563(4) 0.2293(6)
H4_4 H 0.5170 0.3786 0.2698
H5_4 H 0.5162 0.3233 0.2465
H6_4 H 0.5426 0.3596 0.2080
C10_4 C 0.4181(3) 0.4616(4) 0.1338(6)
H7_4 H 0.4040 0.4655 0.0902
H8_4 H 0.4029 0.4533 0.1743
H9_4 H 0.4302 0.4918 0.1443
H11_4 H 0.3961 0.4070 0.0060
C12_4 C 0.4723(3) 0.6537(4) 0.2656(7)
C13_4 C 0.47135(16) 0.59872(14) 0.2642(3)
C14_4 C 0.44443(14) 0.57338(19) 0.3002(3)
C15_4 C 0.44339(14) 0.52249(19) 0.2973(3)
C16_4 C 0.46926(17) 0.49695(14) 0.2585(3)
C17_4 C 0.49618(15) 0.52229(19) 0.2226(3)
C18_4 C 0.49722(15) 0.57318(19) 0.2254(3)
C19_4 C 0.5278(3) 0.6011(4) 0.1880(8)
H13_4 H 0.5432 0.5782 0.1638
H14_4 H 0.5182 0.6235 0.1526
H15_4 H 0.5410 0.6190 0.2243
C20_4 C 0.5262(3) 0.4952(4) 0.1833(7)
H16_4 H 0.5423 0.5186 0.1620
H17_4 H 0.5388 0.4751 0.2179
H18_4 H 0.5165 0.4749 0.1453
C21_4 C 0.4131(3) 0.4962(4) 0.3362(7)
H19_4 H 0.4157 0.4614 0.3297
H20_4 H 0.4138 0.5038 0.3877
H21_4 H 0.3908 0.5067 0.3159
C22_4 C 0.4164(3) 0.6013(4) 0.3435(6)
H22_4 H 0.4209 0.6359 0.3399
H23_4 H 0.3932 0.5942 0.3238
H24_4 H 0.4172 0.5915 0.3940
C23_4 C 0.4675(3) 0.3107(3) 0.5174(6)
C24_4 C 0.46761(16) 0.34437(19) 0.4524(3)
C25_4 C 0.48923(15) 0.3857(2) 0.4506(3)
C26_4 C 0.48860(16) 0.41651(18) 0.3898(3)
C27_4 C 0.46636(17) 0.40606(19) 0.3310(3)
C28_4 C 0.44474(16) 0.3648(2) 0.3328(3)
C29_4 C 0.44536(16) 0.33392(18) 0.3935(3)
C30_4 C 0.4243(3) 0.2858(4) 0.3914(6)
H25_4 H 0.4104 0.2845 0.3472
H26_4 H 0.4405 0.2586 0.3924
H27_4 H 0.4088 0.2842 0.4332
C31_4 C 0.4166(3) 0.3545(5) 0.2738(6)
H28_4 H 0.4047 0.3243 0.2849
H29_4 H 0.3997 0.3807 0.2728
H30_4 H 0.4280 0.3519 0.2267
C32_4 C 0.5153(3) 0.4599(4) 0.3852(6)
H31_4 H 0.5115 0.4775 0.3402
H32_4 H 0.5117 0.4815 0.4261
H33_4 H 0.5392 0.4474 0.3863
C34_4 C 0.5114(3) 0.3977(4) 0.5206(5)
H34_4 H 0.5251 0.4268 0.5123
H35_4 H 0.4957 0.4028 0.5613
H36_4 H 0.5271 0.3709 0.5312
C35_4 C 0.6140(2) 0.2380(3) 0.0489(3)
C36_4 C 0.60543(19) 0.2099(3) 0.1100(4)
C37_4 C 0.6268(2) 0.2116(3) 0.1722(3)
C38_4 C 0.65681(18) 0.2413(3) 0.1732(3)
C39_4 C 0.66541(18) 0.2695(3) 0.1121(4)
C40_4 C 0.6440(2) 0.2678(3) 0.0499(3)
C42_4 C 0.6957(4) 0.3068(6) 0.1121(9)
H40_4 H 0.7086 0.3044 0.1575
H41_4 H 0.7114 0.3001 0.0718
H42_4 H 0.6861 0.3392 0.1071
C43_4 C 0.6174(3) 0.1785(6) 0.2356(6)
H43_4 H 0.5959 0.1612 0.2246
H44_4 H 0.6363 0.1555 0.2435
H45_4 H 0.6141 0.1979 0.2791
C44_4 C 0.5707(5) 0.1781(8) 0.1096(10)
H46_4 H 0.5591 0.1812 0.0629
H47_4 H 0.5767 0.1444 0.1180
H48_4 H 0.5550 0.1892 0.1477
C45_4 C 0.8334(4) 0.2500 0.2500
C46_4 C 0.7938(4) 0.2500 0.2500
C47_4 C 0.7757(3) 0.2919(4) 0.2733(6)
C48_4 C 0.7383(3) 0.2917(4) 0.2748(6)
C49_4 C 0.7198(4) 0.2500 0.2500
C50_4 C 0.7193(3) 0.3373(5) 0.3019(8)
H49_4 H 0.6940 0.3321 0.3000
H50_4 H 0.7263 0.3440 0.3515
H51_4 H 0.7255 0.3646 0.2712
C51_4 C 0.7962(3) 0.3374(4) 0.2959(7)
H52_4 H 0.8212 0.3312 0.2917
H53_4 H 0.7897 0.3642 0.2645
H54_4 H 0.7905 0.3455 0.3458
O5_4 O 0.4395(2) 0.3063(3) 0.5533(4)
O6_4 O 0.49629(19) 0.2889(2) 0.5319(3)
C74_4 C 0.5888(5) 0.2627(7) 0.5128(10)
C75_4 C 0.6140(2) 0.2620(3) 0.4511(3)
C76_4 C 0.60543(19) 0.2901(3) 0.3900(4)
C77_4 C 0.6268(2) 0.2884(3) 0.3278(3)
C78_4 C 0.65681(18) 0.2587(3) 0.3268(3)
C79_4 C 0.66541(18) 0.2305(3) 0.3879(4)
C80_4 C 0.6440(2) 0.2322(3) 0.4501(3)
C81_4 C 0.6545(5) 0.2061(6) 0.5223(8)
H80_4 H 0.6756 0.1870 0.5144
H81_4 H 0.6589 0.2302 0.5596
H82_4 H 0.6355 0.1850 0.5376
C82_4 C 0.6957(4) 0.1932(6) 0.3879(9)
H83_4 H 0.7086 0.1956 0.3425
H84_4 H 0.7114 0.1999 0.4282
H85_4 H 0.6861 0.1608 0.3929
C83_4 C 0.6174(3) 0.3215(6) 0.2644(6)
H86_4 H 0.5959 0.3388 0.2754
H87_4 H 0.6363 0.3445 0.2565
H88_4 H 0.6141 0.3021 0.2209
C84_4 C 0.5707(5) 0.3219(8) 0.3904(10)
H89_4 H 0.5591 0.3188 0.4371
H90_4 H 0.5767 0.3556 0.3820
H91_4 H 0.5550 0.3108 0.3523
C85_4 C 0.7757(3) 0.2081(4) 0.2267(6)
C86_4 C 0.7383(3) 0.2083(4) 0.2252(6)
C87_4 C 0.7193(3) 0.1627(5) 0.1981(8)
H92_4 H 0.6940 0.1679 0.2000
H93_4 H 0.7263 0.1560 0.1485
H94_4 H 0.7255 0.1354 0.2288
C88_4 C 0.7962(3) 0.1626(4) 0.2041(7)
H95_4 H 0.8212 0.1688 0.2083
H96_4 H 0.7897 0.1358 0.2355
H97_4 H 0.7905 0.1545 0.1542
O17_4 O 0.5728(3) 0.2223(6) 0.5322(6)
O18_4 O 0.5724(3) 0.2957(6) 0.5423(6)
C93_4 C 0.8502(4) 0.2612(6) 0.0116(6)
C100_4 C 0.7826(4) 0.2137(7) 0.0262(6)
H104_4 H 0.7613 0.1945 0.0222
H105_4 H 0.8019 0.1930 0.0412
H106_4 H 0.7792 0.2391 0.0618
B4_4 B 0.4680(3) 0.0625(4) 0.2443(6)
C104_4 C 0.4673(3) 0.1789(3) 0.5184(6)
C105_4 C 0.46697(16) 0.14883(19) 0.4480(3)
C106_4 C 0.44466(15) 0.1085(2) 0.4414(3)
C107_4 C 0.44566(15) 0.07992(18) 0.3782(3)
C108_4 C 0.46897(17) 0.0918(2) 0.3217(3)
C109_4 C 0.49127(15) 0.1321(2) 0.3283(3)
C110_4 C 0.49027(15) 0.16067(18) 0.3915(3)
C111_4 C 0.5121(3) 0.2074(4) 0.3946(6)
H116_4 H 0.5266 0.2098 0.3514
H117_4 H 0.4965 0.2352 0.3971
H118_4 H 0.5270 0.2068 0.4374
C112_4 C 0.5194(3) 0.1437(4) 0.2707(6)
H119_4 H 0.5170 0.1214 0.2302
H120_4 H 0.5162 0.1767 0.2535
H121_4 H 0.5426 0.1404 0.2920
C113_4 C 0.4181(3) 0.0384(4) 0.3662(6)
H122_4 H 0.4040 0.0345 0.4098
H123_4 H 0.4029 0.0467 0.3257
H124_4 H 0.4302 0.0082 0.3557
C114_4 C 0.4205(3) 0.0940(4) 0.5091(5)
H125_4 H 0.4233 0.1178 0.5474
H126_4 H 0.3961 0.0930 0.4940
H127_4 H 0.4274 0.0623 0.5270
C119_4 C 0.46926(17) 0.00305(14) 0.2415(3)
C123_4 C 0.5262(3) 0.0048(4) 0.3167(7)
H132_4 H 0.5388 0.0249 0.2821
H133_4 H 0.5165 0.0251 0.3547
C124_4 C 0.4131(3) 0.0038(4) 0.1638(7)
H134_4 H 0.4157 0.0386 0.1703
C127_4 C 0.46761(16) 0.15563(19) 0.0476(3)
C128_4 C 0.48923(15) 0.1143(2) 0.0494(3)
C129_4 C 0.48860(16) 0.08349(18) 0.1102(3)
C130_4 C 0.46636(17) 0.09394(19) 0.1690(3)
C131_4 C 0.44474(16) 0.1352(2) 0.1672(3)
C132_4 C 0.44536(16) 0.16608(18) 0.1065(3)
C133_4 C 0.4243(3) 0.2142(4) 0.1086(6)
H140_4 H 0.4104 0.2155 0.1528
H141_4 H 0.4405 0.2414 0.1076
H142_4 H 0.4088 0.2158 0.0668
C134_4 C 0.4166(3) 0.1455(5) 0.2262(6)
H143_4 H 0.4047 0.1757 0.2151
H144_4 H 0.3997 0.1193 0.2272
H145_4 H 0.4280 0.1481 0.2733
C135_4 C 0.5153(3) 0.0401(4) 0.1148(6)
H146_4 H 0.5115 0.0225 0.1598
H147_4 H 0.5117 0.0185 0.0739
H148_4 H 0.5392 0.0526 0.1137
O24_4 O 0.4950(2) 0.1823(2) 0.5533(4)
O25_4 O 0.4384(2) 0.1994(3) 0.5353(4)
O30_4 O 0.3965(2) 0.1630(3) 0.6753(5)
O31_4 O 0.3954(3) 0.3355(3) 0.6650(5)
N2_4 N 0.4067(5) 0.4092(6) 0.6040(11)
C137_4 C 0.3876(13) 0.3630(13) 0.612(2)
H152_4 H 0.3699 0.3542 0.5793
C138_4 C 0.4042(14) 0.4393(15) 0.536(2)
H153_4 H 0.3888 0.4233 0.5016
H154_4 H 0.3947 0.4710 0.5481
H155_4 H 0.4274 0.4430 0.5151
C139_4 C 0.4309(13) 0.4269(17) 0.665(2)
H156_4 H 0.4294 0.4047 0.7057
H157_4 H 0.4549 0.4280 0.6472
H158_4 H 0.4237 0.4590 0.6801
O38_2 O 0.58398(17) 0.2581(3) 0.6910(4)
O43_2 O 0.46896(16) 0.2445(2) 0.6888(4)
O44_2 O 0.4200(3) 0.2500 0.7500
B3_4 B 0.7555(5) 0.2500 0.7500
C1_4 C 0.4673(3) 0.3211(3) 0.9816(6)
C11_4 C 0.4205(3) 0.4060(4) 0.9909(5)
H10_4 H 0.4233 0.3822 0.9526
H12_4 H 0.4274 0.4377 0.9730
C33_4 C 0.5888(5) 0.2373(7) 0.9872(10)
C41_4 C 0.6545(5) 0.2939(6) 0.9777(8)
H37_4 H 0.6756 0.3130 0.9856
H38_4 H 0.6589 0.2698 0.9404
H39_4 H 0.6355 0.3150 0.9624
C52_4 C 0.5997(4) 0.2500 0.7500
C53_4 C 0.6393(3) 0.2500 0.7500
C54_4 C 0.6574(2) 0.2078(4) 0.7268(5)
C55_4 C 0.6947(2) 0.2088(4) 0.7255(5)
C56_4 C 0.7136(3) 0.2500 0.7500
C57_4 C 0.7157(3) 0.1628(4) 0.6999(7)
H55_4 H 0.7408 0.1694 0.7022
H56_4 H 0.7102 0.1356 0.7314
H57_4 H 0.7093 0.1549 0.6503
C58_4 C 0.6354(3) 0.1644(4) 0.7039(6)
H58_4 H 0.6106 0.1720 0.7094
H59_4 H 0.6402 0.1566 0.6535
H60_4 H 0.6412 0.1367 0.7342
C59_4 C 0.8502(4) 0.2388(6) 0.4884(6)
C60_4 C 0.82182(18) 0.2340(3) 0.5526(3)
C61_4 C 0.82991(15) 0.2079(3) 0.6160(4)
C62_4 C 0.80759(18) 0.2107(3) 0.6767(3)
C63_4 C 0.77719(16) 0.2396(3) 0.6740(3)
C64_4 C 0.76911(16) 0.2657(3) 0.6106(4)
C65_4 C 0.7914(2) 0.2629(3) 0.5500(3)
C66_4 C 0.7826(4) 0.2863(7) 0.4738(6)
H61_4 H 0.7613 0.3055 0.4778
H62_4 H 0.8019 0.3070 0.4588
H63_4 H 0.7792 0.2609 0.4382
C67_4 C 0.7364(4) 0.3005(6) 0.6082(7)
H64_4 H 0.7347 0.3154 0.5606
H65_4 H 0.7151 0.2820 0.6178
H66_4 H 0.7390 0.3255 0.6448
C68_4 C 0.8161(3) 0.1781(6) 0.7409(7)
H67_4 H 0.7990 0.1833 0.7791
H68_4 H 0.8154 0.1445 0.7256
H69_4 H 0.8394 0.1858 0.7590
C69_4 C 0.8637(3) 0.1773(6) 0.6175(7)
H70_4 H 0.8658 0.1615 0.6644
H71_4 H 0.8626 0.1529 0.5796
H72_4 H 0.8839 0.1982 0.6095
C70_4 C 0.4551(4) 0.2500 0.7500
O1_4 O 0.4950(2) 0.3177(2) 0.9467(4)
O2_4 O 0.4384(2) 0.3006(3) 0.9647(4)
O7_4 O 0.5728(3) 0.2777(6) 0.9678(6)
O8_4 O 0.5724(3) 0.2043(6) 0.9577(6)
O10_4 O 0.58398(17) 0.2419(3) 0.8090(4)
O13_4 O 0.46896(16) 0.2555(2) 0.8112(4)
O15_4 O 0.3965(2) 0.3370(3) 0.8247(5)
O16_4 O 0.3954(3) 0.1645(3) 0.8350(5)
N1_4 N 0.4067(5) 0.0908(6) 0.8960(11)
C71_4 C 0.3876(13) 0.1370(13) 0.888(2)
H73_4 H 0.3699 0.1458 0.9207
C72_4 C 0.4042(14) 0.0607(15) 0.964(2)
H74_4 H 0.3888 0.0767 0.9984
H75_4 H 0.3947 0.0290 0.9519
H76_4 H 0.4274 0.0570 0.9849
C73_4 C 0.4309(13) 0.0731(17) 0.835(2)
H77_4 H 0.4294 0.0953 0.7943
H78_4 H 0.4549 0.0720 0.8528
H79_4 H 0.4237 0.0410 0.8199
C89_4 C 0.6574(2) 0.2922(4) 0.7732(5)
C90_4 C 0.6947(2) 0.2912(4) 0.7745(5)
C91_4 C 0.7157(3) 0.3372(4) 0.8001(7)
H98_4 H 0.7408 0.3306 0.7978
H99_4 H 0.7102 0.3644 0.7686
H100_4 H 0.7093 0.3451 0.8497
C92_4 C 0.6354(3) 0.3356(4) 0.7961(6)
H101_4 H 0.6106 0.3280 0.7906
H102_4 H 0.6402 0.3434 0.8465
H103_4 H 0.6412 0.3633 0.7658
C94_4 C 0.82182(18) 0.2660(3) 0.9474(3)
C95_4 C 0.82991(15) 0.2921(3) 0.8840(4)
C96_4 C 0.80759(18) 0.2893(3) 0.8233(3)
C97_4 C 0.77719(16) 0.2604(3) 0.8260(3)
C98_4 C 0.76911(16) 0.2343(3) 0.8894(4)
C99_4 C 0.7914(2) 0.2371(3) 0.9500(3)
C101_4 C 0.7364(4) 0.1995(6) 0.8918(7)
H107_4 H 0.7347 0.1846 0.9394
H108_4 H 0.7151 0.2180 0.8822
H109_4 H 0.7390 0.1745 0.8552
C102_4 C 0.8161(3) 0.3219(6) 0.7591(7)
H110_4 H 0.7990 0.3167 0.7209
H111_4 H 0.8154 0.3555 0.7744
H112_4 H 0.8394 0.3142 0.7410
C103_4 C 0.8637(3) 0.3227(6) 0.8825(7)
H113_4 H 0.8658 0.3385 0.8356
H114_4 H 0.8626 0.3471 0.9204
H115_4 H 0.8839 0.3018 0.8905
C126_4 C 0.4675(3) 0.1893(3) 0.9826(6)
C136_4 C 0.5114(3) 0.1023(4) 0.9794(5)
H149_4 H 0.5251 0.0732 0.9877
H150_4 H 0.4957 0.0972 0.9387
H151_4 H 0.5271 0.1291 0.9688
O28_4 O 0.4395(2) 0.1937(3) 0.9467(4)
O29_4 O 0.49629(19) 0.2111(2) 0.9681(3)
C115_4 C 0.4723(3) 0.8463(4) 0.2344(7)
C116_4 C 0.47135(16) 0.90128(14) 0.2358(3)
C117_4 C 0.44443(14) 0.92662(19) 0.1998(3)
C118_4 C 0.44339(14) 0.97751(19) 0.2027(3)
C120_4 C 0.49618(15) 0.97771(19) 0.2774(3)
C121_4 C 0.49722(15) 0.92682(19) 0.2746(3)
C122_2 C 0.5278(3) 0.8989(4) 0.3120(8)
H128_2 H 0.5432 0.9218 0.3362
H129_2 H 0.5182 0.8765 0.3474
H130_2 H 0.5410 0.8810 0.2757
H131_2 H 0.5423 0.9814 0.3380
H135_4 H 0.4138 0.9962 0.1123
H136_4 H 0.3908 0.9933 0.1841
C125_4 C 0.4164(3) 0.8987(4) 0.1565(6)
H137_4 H 0.4209 0.8641 0.1601
H138_4 H 0.3932 0.9058 0.1762
H139_4 H 0.4172 0.9085 0.1060
C122_3 C 0.0278(3) 0.8989(4) 0.6880(8)
H128_3 H 0.0432 0.9218 0.6638
H129_3 H 0.0182 0.8765 0.6526
H130_3 H 0.0410 0.8810 0.7243
H131_3 H 0.0423 0.9814 0.6620
C122_4 C 0.9722(3) 0.1011(4) 0.3120(8)
H128_4 H 0.9568 0.0782 0.3362
H129_4 H 0.9818 0.1235 0.3474
H130_4 H 0.9590 0.1190 0.2757
H131_4 H 0.9577 0.0186 0.3380
N3 N 0.0544(5) 0.3947(7) 0.0199(12)
C140 C 0.0326(6) 0.4408(8) 0.0122(15)
C141 C 0.0751(10) 0.3932(15) 0.0884(18)
H162 H 0.0377432 0.365441 0.0189718
H163 H 0.057115 0.395074 0.135167
H164 H 0.0902091 0.359192 0.0907588
H165 H 0.0932971 0.424224 0.0899752
H166 H 0.0501455 0.472546 0.0125949
H168 H 0.0139633 0.443396 0.0577866
H161 H 0.0714667 0.39261 0.976851
H167 H 0.0179492 0.439748 0.960658
N3_2 N 0.4456(5) 0.6053(7) 0.0199(12)
C140_2 C 0.4674(6) 0.5592(8) 0.0122(15)
C141_2 C 0.4249(10) 0.6068(15) 0.0884(18)
H162_2 H 0.462257 0.634559 0.0189718
H163_2 H 0.442885 0.604926 0.135167
H164_2 H 0.409791 0.640808 0.0907588
H165_2 H 0.406703 0.575776 0.0899752
H166_2 H 0.449855 0.527454 0.0125949
H168_2 H 0.486037 0.556604 0.0577866
H161_2 H 0.428533 0.60739 0.976851
H167_2 H 0.482051 0.560252 0.960658
N3_3 N 0.0544(5) 0.1053(7) 0.4801(12)
C140_3 C 0.0326(6) 0.0592(8) 0.4878(15)
C141_3 C 0.0751(10) 0.1068(15) 0.4116(18)
H161_3 H 0.0714667 0.10739 0.523149
H162_3 H 0.0377432 0.134559 0.481028
H163_3 H 0.057115 0.104926 0.364833
H164_3 H 0.0902091 0.140808 0.409241
H165_3 H 0.0932971 0.0757759 0.410025
H166_3 H 0.0501455 0.0274543 0.487405
H167_3 H 0.0179492 0.0602522 0.539342
H168_3 H 0.0139633 0.0566044 0.442213
N3_4 N 0.4456(5) 0.8947(7) 0.4801(12)
C140_4 C 0.4674(6) 0.9408(8) 0.4878(15)
C141_4 C 0.4249(10) 0.8932(15) 0.4116(18)
H161_4 H 0.428533 0.89261 0.523149
H162_4 H 0.462257 0.865441 0.481028
H163_4 H 0.442885 0.895074 0.364833
H164_4 H 0.409791 0.859192 0.409241
H165_4 H 0.406703 0.924224 0.410025
H166_4 H 0.449855 0.972546 0.487405
H167_4 H 0.482051 0.939748 0.539342
H168_4 H 0.486037 0.943396 0.442213
H161_5 H 0.928533 0.60739 0.023149
H167_5 H 0.982051 0.560252 0.0393417
N3_5 N 0.9456(5) 0.6053(7) 0.9801(12)
C140_5 C 0.9674(6) 0.5592(8) 0.9878(15)
C141_5 C 0.9249(10) 0.6068(15) 0.9116(18)
H162_5 H 0.962257 0.634559 0.981028
H163_5 H 0.942885 0.604926 0.864833
H164_5 H 0.909791 0.640808 0.909241
H165_5 H 0.906703 0.575776 0.910025
H166_5 H 0.949855 0.527454 0.987405
H168_5 H 0.986037 0.556604 0.942213
H161_6 H 0.571467 0.39261 0.023149
H167_6 H 0.517949 0.439748 0.0393417
N3_6 N 0.5544(5) 0.3947(7) 0.9801(12)
C140_6 C 0.5326(6) 0.4408(8) 0.9878(15)
C141_6 C 0.5751(10) 0.3932(15) 0.9116(18)
H162_6 H 0.537743 0.365441 0.981028
H163_6 H 0.557115 0.395074 0.864833
H164_6 H 0.590209 0.359192 0.909241
H165_6 H 0.593297 0.424224 0.910025
H166_6 H 0.550145 0.472546 0.987405
H168_6 H 0.513963 0.443396 0.942213
N3_7 N 0.9456(5) 0.8947(7) 0.5199(12)
C140_7 C 0.9674(6) 0.9408(8) 0.5122(15)
C141_7 C 0.9249(10) 0.8932(15) 0.5884(18)
H161_7 H 0.928533 0.89261 0.476851
H162_7 H 0.962257 0.865441 0.518972
H163_7 H 0.942885 0.895074 0.635167
H164_7 H 0.909791 0.859192 0.590759
H165_7 H 0.906703 0.924224 0.589975
H166_7 H 0.949855 0.972546 0.512595
H167_7 H 0.982051 0.939748 0.460658
H168_7 H 0.986037 0.943396 0.557787
N3_8 N 0.5544(5) 0.1053(7) 0.5199(12)
C140_8 C 0.5326(6) 0.0592(8) 0.5122(15)
C141_8 C 0.5751(10) 0.1068(15) 0.5884(18)
H161_8 H 0.571467 0.10739 0.476851
H162_8 H 0.537743 0.134559 0.518972
H163_8 H 0.557115 0.104926 0.635167
H164_8 H 0.590209 0.140808 0.590759
H165_8 H 0.593297 0.0757759 0.589975
H166_8 H 0.550145 0.0274543 0.512595
H167_8 H 0.517949 0.0602522 0.460658
H168_8 H 0.513963 0.0566044 0.557787
loop_
_geom_bond_atom_site_label_1
_geom_bond_atom_site_label_2
_geom_bond_site_symmetry_1
_geom_bond_site_symmetry_2
B3 C56 1_555 1_555
H37 C41 1_555 1_555
H38 C41 1_555 1_555
H39 C41 1_555 1_555
C52 C53 1_555 1_555
C53 C54 1_555 1_555
C54 C55 1_555 1_555
C55 C56 1_555 1_555
C56 C90 1_555 1_555
C57 C55 1_555 1_555
H55 C57 1_555 1_555
H56 C57 1_555 1_555
H57 C57 1_555 1_555
C58 C54 1_555 1_555
H58 C58 1_555 1_555
H59 C58 1_555 1_555
H60 C58 1_555 1_555
C59 C60 1_555 1_555
C60 C61 1_555 1_555
C61 C62 1_555 1_555
C62 C63 1_555 1_555
C63 B3 1_555 1_555
C64 C63 1_555 1_555
C65 C60 1_555 1_555
C66 C65 1_555 1_555
H61 C66 1_555 1_555
H62 C66 1_555 1_555
H63 C66 1_555 1_555
C67 C64 1_555 1_555
H64 C67 1_555 1_555
H65 C67 1_555 1_555
H66 C67 1_555 1_555
C68 C62 1_555 1_555
H67 C68 1_555 1_555
H68 C68 1_555 1_555
H69 C68 1_555 1_555
C69 C61 1_555 1_555
H70 C69 1_555 1_555
H71 C69 1_555 1_555
H72 C69 1_555 1_555
O7 Nd2 1_555 1_555
O8 Nd2 1_555 1_555
O10 Nd2 1_555 1_555
O11 C59 1_555 1_555
O12 C59 1_555 1_555
C89 C53 1_555 1_555
C90 C89 1_555 1_555
C91 C90 1_555 1_555
H98 C91 1_555 1_555
H99 C91 1_555 1_555
H100 C91 1_555 1_555
C92 C89 1_555 1_555
H101 C92 1_555 1_555
H102 C92 1_555 1_555
H103 C92 1_555 1_555
C94 C95 1_555 1_555
C95 C96 1_555 1_555
C96 C97 1_555 1_555
C97 B3 1_555 1_555
C98 C97 1_555 1_555
C99 C94 1_555 1_555
C101 C98 1_555 1_555
H107 C101 1_555 1_555
H108 C101 1_555 1_555
H109 C101 1_555 1_555
C102 C96 1_555 1_555
H110 C102 1_555 1_555
H111 C102 1_555 1_555
H112 C102 1_555 1_555
C103 C95 1_555 1_555
H113 C103 1_555 1_555
H114 C103 1_555 1_555
H115 C103 1_555 1_555
O20 C52 1_555 1_555
H149 C136 1_555 1_555
H151 C136 1_555 1_555
Nd8 O11 1_555 1_555
Nd9 O20 1_555 1_555
O32 Nd2 1_555 1_555
O35 Nd2 1_555 1_555
C33 O7 1_555 1_555
C33 O8 1_555 1_555
C52 O10 1_555 1_555
C64 C65 1_555 1_555
O12 Nd8 1_555 1_555
C98 C99 1_555 1_555
B2 C38 1_555 1_555
H1 C8 1_555 1_555
H3 C8 1_555 1_555
H4 C9 1_555 1_555
H5 C9 1_555 1_555
H6 C9 1_555 1_555
H13 C19 1_555 1_555
H14 C19 1_555 1_555
H15 C19 1_555 1_555
H16 C20 1_555 1_555
H17 C20 1_555 1_555
H18 C20 1_555 1_555
H31 C32 1_555 1_555
H32 C32 1_555 1_555
H33 C32 1_555 1_555
H34 C34 1_555 1_555
H36 C34 1_555 1_555
C35 C36 1_555 1_555
C36 C37 1_555 1_555
C37 C38 1_555 1_555
C38 C39 1_555 1_555
C39 C40 1_555 1_555
C40 C35 1_555 1_555
C42 C39 1_555 1_555
H40 C42 1_555 1_555
H41 C42 1_555 1_555
H42 C42 1_555 1_555
C43 C37 1_555 1_555
H43 C43 1_555 1_555
H44 C43 1_555 1_555
H45 C43 1_555 1_555
C44 C36 1_555 1_555
H46 C44 1_555 1_555
H47 C44 1_555 1_555
H48 C44 1_555 1_555
C45 C46 1_555 1_555
C46 C47 1_555 1_555
C47 C48 1_555 1_555
C48 C49 1_555 1_555
C49 B2 1_555 1_555
C50 C48 1_555 1_555
H49 C50 1_555 1_555
H50 C50 1_555 1_555
H51 C50 1_555 1_555
C51 C47 1_555 1_555
H52 C51 1_555 1_555
H53 C51 1_555 1_555
H54 C51 1_555 1_555
O9 C45 1_555 1_555
C74 C75 1_555 1_555
C75 C76 1_555 1_555
C76 C77 1_555 1_555
C77 C78 1_555 1_555
C78 B2 1_555 1_555
C79 C78 1_555 1_555
C80 C75 1_555 1_555
C81 C80 1_555 1_555
H80 C81 1_555 1_555
H81 C81 1_555 1_555
H82 C81 1_555 1_555
C82 C79 1_555 1_555
H83 C82 1_555 1_555
H84 C82 1_555 1_555
H85 C82 1_555 1_555
C83 C77 1_555 1_555
H86 C83 1_555 1_555
H87 C83 1_555 1_555
H88 C83 1_555 1_555
C84 C76 1_555 1_555
H89 C84 1_555 1_555
H90 C84 1_555 1_555
H91 C84 1_555 1_555
C85 C46 1_555 1_555
C86 C49 1_555 1_555
C87 C86 1_555 1_555
H92 C87 1_555 1_555
H93 C87 1_555 1_555
H94 C87 1_555 1_555
C88 C85 1_555 1_555
H95 C88 1_555 1_555
H96 C88 1_555 1_555
H97 C88 1_555 1_555
O17 C74 1_555 1_555
O18 C74 1_555 1_555
O19 C45 1_555 1_555
H104 C100 1_555 1_555
H105 C100 1_555 1_555
H106 C100 1_555 1_555
O21 C93 1_555 1_555
O22 C93 1_555 1_555
H116 C111 1_555 1_555
H118 C111 1_555 1_555
H119 C112 1_555 1_555
H120 C112 1_555 1_555
H121 C112 1_555 1_555
H132 C123 1_555 1_555
H133 C123 1_555 1_555
H146 C135 1_555 1_555
H147 C135 1_555 1_555
H148 C135 1_555 1_555
Nd6 O9 1_555 1_555
Nd8 O19 1_555 1_555
O33 Nd9 1_555 1_555
O34 Nd9 1_555 1_555
C79 C80 1_555 1_555
C85 C86 1_555 1_555
O17 Nd9 1_555 1_555
O18 Nd9 1_555 1_555
O21 Nd6 1_555 1_555
O22 Nd6 1_555 1_555
Nd1 O2 1_555 1_555
H10 C11 1_555 1_555
H12 C11 1_555 1_555
C70 O13 1_555 1_555
O1 C1 1_555 1_555
O2 C1 1_555 1_555
O13 Nd1 1_555 1_555
O14 Nd1 1_555 1_555
O15 Nd1 1_555 1_555
O16 Nd1 1_555 1_555
N1 C71 1_555 1_555
C71 O16 1_555 1_555
H73 C71 1_555 1_555
C72 N1 1_555 1_555
H74 C72 1_555 1_555
H75 C72 1_555 1_555
H76 C72 1_555 1_555
C73 N1 1_555 1_555
H77 C73 1_555 1_555
H78 C73 1_555 1_555
H79 C73 1_555 1_555
O23 C70 1_555 1_555
O28 Nd1 1_555 1_555
Nd5 O14 1_555 1_555
O36 Nd1 1_555 1_555
O40 Nd1 1_555 1_555
O42 Nd1 1_555 1_555
C70 O14 1_555 1_555
O23 Nd5 1_555 1_555
C126 O28 1_555 1_555
C126 O29 1_555 1_555
B1 C5 1_555 1_555
C2 C3 1_555 1_555
C3 C4 1_555 1_555
C4 C5 1_555 1_555
C5 C6 1_555 1_555
C6 C7 1_555 1_555
C7 C2 1_555 1_555
C10 C4 1_555 1_555
H7 C10 1_555 1_555
H8 C10 1_555 1_555
H9 C10 1_555 1_555
C12 C13 1_555 1_555
C13 C14 1_555 1_555
C14 C15 1_555 1_555
C15 C16 1_555 1_555
C16 B1 1_555 1_555
C17 C16 1_555 1_555
C18 C13 1_555 1_555
C21 C15 1_555 1_555
H19 C21 1_555 1_555
H20 C21 1_555 1_555
H21 C21 1_555 1_555
C22 C14 1_555 1_555
H22 C22 1_555 1_555
H23 C22 1_555 1_555
H24 C22 1_555 1_555
C23 C24 1_555 1_555
C24 C25 1_555 1_555
C25 C26 1_555 1_555
C26 C27 1_555 1_555
C27 B1 1_555 1_555
C28 C27 1_555 1_555
C29 C24 1_555 1_555
C30 C29 1_555 1_555
H25 C30 1_555 1_555
H26 C30 1_555 1_555
H27 C30 1_555 1_555
C31 C28 1_555 1_555
H28 C31 1_555 1_555
H29 C31 1_555 1_555
H30 C31 1_555 1_555
O3 C12 1_555 1_555
O4 C12 1_555 1_555
O5 C23 1_555 1_555
O6 C23 1_555 1_555
Nd5 O5 1_555 1_555
B4 C108 1_555 1_555
C104 C105 1_555 1_555
C105 C106 1_555 1_555
C106 C107 1_555 1_555
C107 C108 1_555 1_555
C108 C109 1_555 1_555
C109 C110 1_555 1_555
C110 C105 1_555 1_555
C113 C107 1_555 1_555
H122 C113 1_555 1_555
H123 C113 1_555 1_555
H124 C113 1_555 1_555
C114 C106 1_555 1_555
H125 C114 1_555 1_555
H126 C114 1_555 1_555
H127 C114 1_555 1_555
C119 B4 1_555 1_555
H134 C124 1_555 1_555
C127 C128 1_555 1_555
C128 C129 1_555 1_555
C129 C130 1_555 1_555
C130 B4 1_555 1_555
C131 C130 1_555 1_555
C132 C127 1_555 1_555
C133 C132 1_555 1_555
H140 C133 1_555 1_555
H141 C133 1_555 1_555
H142 C133 1_555 1_555
C134 C131 1_555 1_555
H143 C134 1_555 1_555
H144 C134 1_555 1_555
H145 C134 1_555 1_555
O25 Nd5 1_555 1_555
O30 Nd5 1_555 1_555
O31 Nd5 1_555 1_555
N2 C137 1_555 1_555
C137 O31 1_555 1_555
H152 C137 1_555 1_555
C138 N2 1_555 1_555
H153 C138 1_555 1_555
H154 C138 1_555 1_555
H155 C138 1_555 1_555
C139 N2 1_555 1_555
H156 C139 1_555 1_555
H157 C139 1_555 1_555
H158 C139 1_555 1_555
Nd11 O3 1_555 1_555
Nd13 O4 1_555 1_555
O37 Nd5 1_555 1_555
O39 Nd5 1_555 1_555
O41 Nd5 1_555 1_555
C17 C18 1_555 1_555
C28 C29 1_555 1_555
C104 O24 1_555 1_555
C104 O25 1_555 1_555
C131 C132 1_555 1_555
C115 C116 1_555 1_555
C116 C117 1_555 1_555
C117 C118 1_555 1_555
C121 C116 1_555 1_555
C125 C117 1_555 1_555
H137 C125 1_555 1_555
H138 C125 1_555 1_555
H139 C125 1_555 1_555
O26 C115 1_555 1_555
O27 C115 1_555 1_555
Nd11 O27 1_555 1_555
Nd13 O26 1_555 1_555
C120 C121 1_555 1_555
C115_2 C116_2 1_555 1_555
C116_2 C117_2 1_555 1_555
C117_2 C118_2 1_555 1_555
C121_2 C116_2 1_555 1_555
C122 C121_2 1_555 1_555
H128 C122 1_555 1_555
H129 C122 1_555 1_555
H130 C122 1_555 1_555
C125_2 C117_2 1_555 1_555
H137_2 C125_2 1_555 1_555
H138_2 C125_2 1_555 1_555
H139_2 C125_2 1_555 1_555
O26_2 C115_2 1_555 1_555
O27_2 C115_2 1_555 1_555
Nd10 O27_2 1_555 1_555
Nd12 O26_2 1_555 1_555
C120_2 C121_2 1_555 1_555
Nd1_2 O2_2 1_555 1_555
Nd2_2 O1_2 1_555 1_555
B3_2 C56_2 1_555 1_555
H10_2 C11_2 1_555 1_555
H12_2 C11_2 1_555 1_555
H37_2 C41_2 1_555 1_555
H38_2 C41_2 1_555 1_555
H39_2 C41_2 1_555 1_555
C52_2 C53_2 1_555 1_555
C53_2 C54_2 1_555 1_555
C54_2 C55_2 1_555 1_555
C55_2 C56_2 1_555 1_555
C56_2 C90_2 1_555 1_555
C57_2 C55_2 1_555 1_555
H55_2 C57_2 1_555 1_555
H56_2 C57_2 1_555 1_555
H57_2 C57_2 1_555 1_555
C58_2 C54_2 1_555 1_555
H58_2 C58_2 1_555 1_555
H59_2 C58_2 1_555 1_555
H60_2 C58_2 1_555 1_555
C59_2 C60_2 1_555 1_555
C60_2 C61_2 1_555 1_555
C61_2 C62_2 1_555 1_555
C62_2 C63_2 1_555 1_555
C63_2 B3_2 1_555 1_555
C64_2 C63_2 1_555 1_555
C65_2 C60_2 1_555 1_555
C66_2 C65_2 1_555 1_555
H61_2 C66_2 1_555 1_555
H62_2 C66_2 1_555 1_555
H63_2 C66_2 1_555 1_555
C67_2 C64_2 1_555 1_555
H64_2 C67_2 1_555 1_555
H65_2 C67_2 1_555 1_555
H66_2 C67_2 1_555 1_555
C68_2 C62_2 1_555 1_555
H67_2 C68_2 1_555 1_555
H68_2 C68_2 1_555 1_555
H69_2 C68_2 1_555 1_555
C69_2 C61_2 1_555 1_555
H70_2 C69_2 1_555 1_555
H71_2 C69_2 1_555 1_555
H72_2 C69_2 1_555 1_555
C70_2 O13_2 1_555 1_555
O1_2 C1_2 1_555 1_555
O2_2 C1_2 1_555 1_555
O7_2 Nd2_2 1_555 1_555
O8_2 Nd2_2 1_555 1_555
O10_2 Nd2_2 1_555 1_555
O11_2 C59_2 1_555 1_555
O12_2 C59_2 1_555 1_555
O13_2 Nd1_2 1_555 1_555
O14_2 Nd1_2 1_555 1_555
O15_2 Nd1_2 1_555 1_555
O16_2 Nd1_2 1_555 1_555
N1_2 C71_2 1_555 1_555
C71_2 O16_2 1_555 1_555
H73_2 C71_2 1_555 1_555
C72_2 N1_2 1_555 1_555
H74_2 C72_2 1_555 1_555
H75_2 C72_2 1_555 1_555
H76_2 C72_2 1_555 1_555
C73_2 N1_2 1_555 1_555
H77_2 C73_2 1_555 1_555
H78_2 C73_2 1_555 1_555
H79_2 C73_2 1_555 1_555
C89_2 C53_2 1_555 1_555
C90_2 C89_2 1_555 1_555
C91_2 C90_2 1_555 1_555
H98_2 C91_2 1_555 1_555
H99_2 C91_2 1_555 1_555
H100_2 C91_2 1_555 1_555
C92_2 C89_2 1_555 1_555
H101_2 C92_2 1_555 1_555
H102_2 C92_2 1_555 1_555
H103_2 C92_2 1_555 1_555
C94_2 C95_2 1_555 1_555
C95_2 C96_2 1_555 1_555
C96_2 C97_2 1_555 1_555
C97_2 B3_2 1_555 1_555
C98_2 C97_2 1_555 1_555
C99_2 C94_2 1_555 1_555
C101_2 C98_2 1_555 1_555
H107_2 C101_2 1_555 1_555
H108_2 C101_2 1_555 1_555
H109_2 C101_2 1_555 1_555
C102_2 C96_2 1_555 1_555
H110_2 C102_2 1_555 1_555
H111_2 C102_2 1_555 1_555
H112_2 C102_2 1_555 1_555
C103_2 C95_2 1_555 1_555
H113_2 C103_2 1_555 1_555
H114_2 C103_2 1_555 1_555
H115_2 C103_2 1_555 1_555
O20_2 C52_2 1_555 1_555
O23_2 C70_2 1_555 1_555
H149_2 C136_2 1_555 1_555
H150_2 C136_2 1_555 1_555
H151_2 C136_2 1_555 1_555
O28_2 Nd1_2 1_555 1_555
O29_2 Nd2_2 1_555 1_555
Nd5_2 O14_2 1_555 1_555
Nd8_2 O11_2 1_555 1_555
Nd9_2 O20_2 1_555 1_555
O32_2 Nd2_2 1_555 1_555
O35_2 Nd2_2 1_555 1_555
O36_2 Nd1_2 1_555 1_555
O40_2 Nd1_2 1_555 1_555
O42_2 Nd1_2 1_555 1_555
Nd2_2 O13_2 1_555 1_555
C33_2 O7_2 1_555 1_555
C33_2 O8_2 1_555 1_555
C52_2 O10_2 1_555 1_555
C64_2 C65_2 1_555 1_555
C70_2 O14_2 1_555 1_555
O12_2 Nd8_2 1_555 1_555
C98_2 C99_2 1_555 1_555
O23_2 Nd5_2 1_555 1_555
O23_2 Nd9_2 1_555 1_555
C126_2 O28_2 1_555 1_555
C126_2 O29_2 1_555 1_555
B1_2 C5_2 1_555 1_555
B2_2 C38_2 1_555 1_555
C2_2 C3_2 1_555 1_555
C3_2 C4_2 1_555 1_555
C4_2 C5_2 1_555 1_555
C5_2 C6_2 1_555 1_555
C6_2 C7_2 1_555 1_555
C7_2 C2_2 1_555 1_555
C8_2 C7_2 1_555 1_555
H1_2 C8_2 1_555 1_555
H2_2 C8_2 1_555 1_555
H3_2 C8_2 1_555 1_555
C9_2 C6_2 1_555 1_555
H4_2 C9_2 1_555 1_555
H5_2 C9_2 1_555 1_555
H6_2 C9_2 1_555 1_555
C10_2 C4_2 1_555 1_555
H7_2 C10_2 1_555 1_555
H8_2 C10_2 1_555 1_555
H9_2 C10_2 1_555 1_555
C12_2 C13_2 1_555 1_555
C13_2 C14_2 1_555 1_555
C14_2 C15_2 1_555 1_555
C15_2 C16_2 1_555 1_555
C16_2 B1_2 1_555 1_555
C17_2 C16_2 1_555 1_555
C18_2 C13_2 1_555 1_555
C19_2 C18_2 1_555 1_555
H13_2 C19_2 1_555 1_555
H14_2 C19_2 1_555 1_555
H15_2 C19_2 1_555 1_555
C20_2 C17_2 1_555 1_555
H16_2 C20_2 1_555 1_555
H17_2 C20_2 1_555 1_555
H18_2 C20_2 1_555 1_555
C21_2 C15_2 1_555 1_555
H19_2 C21_2 1_555 1_555
H20_2 C21_2 1_555 1_555
H21_2 C21_2 1_555 1_555
C22_2 C14_2 1_555 1_555
H22_2 C22_2 1_555 1_555
H23_2 C22_2 1_555 1_555
H24_2 C22_2 1_555 1_555
C23_2 C24_2 1_555 1_555
C24_2 C25_2 1_555 1_555
C25_2 C26_2 1_555 1_555
C26_2 C27_2 1_555 1_555
C27_2 B1_2 1_555 1_555
C28_2 C27_2 1_555 1_555
C29_2 C24_2 1_555 1_555
C30_2 C29_2 1_555 1_555
H25_2 C30_2 1_555 1_555
H26_2 C30_2 1_555 1_555
H27_2 C30_2 1_555 1_555
C31_2 C28_2 1_555 1_555
H28_2 C31_2 1_555 1_555
H29_2 C31_2 1_555 1_555
H30_2 C31_2 1_555 1_555
C32_2 C26_2 1_555 1_555
H31_2 C32_2 1_555 1_555
H32_2 C32_2 1_555 1_555
H33_2 C32_2 1_555 1_555
C34_2 C25_2 1_555 1_555
H34_2 C34_2 1_555 1_555
H35_2 C34_2 1_555 1_555
H36_2 C34_2 1_555 1_555
C35_2 C36_2 1_555 1_555
C36_2 C37_2 1_555 1_555
C37_2 C38_2 1_555 1_555
C38_2 C39_2 1_555 1_555
C39_2 C40_2 1_555 1_555
C40_2 C35_2 1_555 1_555
C42_2 C39_2 1_555 1_555
H40_2 C42_2 1_555 1_555
H41_2 C42_2 1_555 1_555
H42_2 C42_2 1_555 1_555
C43_2 C37_2 1_555 1_555
H43_2 C43_2 1_555 1_555
H44_2 C43_2 1_555 1_555
H45_2 C43_2 1_555 1_555
C44_2 C36_2 1_555 1_555
H46_2 C44_2 1_555 1_555
H47_2 C44_2 1_555 1_555
H48_2 C44_2 1_555 1_555
C45_2 C46_2 1_555 1_555
C46_2 C47_2 1_555 1_555
C47_2 C48_2 1_555 1_555
C48_2 C49_2 1_555 1_555
C49_2 B2_2 1_555 1_555
C50_2 C48_2 1_555 1_555
H49_2 C50_2 1_555 1_555
H50_2 C50_2 1_555 1_555
H51_2 C50_2 1_555 1_555
C51_2 C47_2 1_555 1_555
H52_2 C51_2 1_555 1_555
H53_2 C51_2 1_555 1_555
H54_2 C51_2 1_555 1_555
O3_2 C12_2 1_555 1_555
O4_2 C12_2 1_555 1_555
O5_2 C23_2 1_555 1_555
O6_2 C23_2 1_555 1_555
O9_2 C45_2 1_555 1_555
C74_2 C75_2 1_555 1_555
C75_2 C76_2 1_555 1_555
C76_2 C77_2 1_555 1_555
C77_2 C78_2 1_555 1_555
C78_2 B2_2 1_555 1_555
C79_2 C78_2 1_555 1_555
C80_2 C75_2 1_555 1_555
C81_2 C80_2 1_555 1_555
H80_2 C81_2 1_555 1_555
H81_2 C81_2 1_555 1_555
H82_2 C81_2 1_555 1_555
C82_2 C79_2 1_555 1_555
H83_2 C82_2 1_555 1_555
H84_2 C82_2 1_555 1_555
H85_2 C82_2 1_555 1_555
C83_2 C77_2 1_555 1_555
H86_2 C83_2 1_555 1_555
H87_2 C83_2 1_555 1_555
H88_2 C83_2 1_555 1_555
C84_2 C76_2 1_555 1_555
H89_2 C84_2 1_555 1_555
H90_2 C84_2 1_555 1_555
H91_2 C84_2 1_555 1_555
C85_2 C46_2 1_555 1_555
C86_2 C49_2 1_555 1_555
C87_2 C86_2 1_555 1_555
H92_2 C87_2 1_555 1_555
H93_2 C87_2 1_555 1_555
H94_2 C87_2 1_555 1_555
C88_2 C85_2 1_555 1_555
H95_2 C88_2 1_555 1_555
H96_2 C88_2 1_555 1_555
H97_2 C88_2 1_555 1_555
O17_2 C74_2 1_555 1_555
O18_2 C74_2 1_555 1_555
O19_2 C45_2 1_555 1_555
H104_2 C100_2 1_555 1_555
H105_2 C100_2 1_555 1_555
H106_2 C100_2 1_555 1_555
O21_2 C93_2 1_555 1_555
O22_2 C93_2 1_555 1_555
Nd5_2 O5_2 1_555 1_555
Nd9_2 O6_2 1_555 1_555
B4_2 C108_2 1_555 1_555
C104_2 C105_2 1_555 1_555
C105_2 C106_2 1_555 1_555
C106_2 C107_2 1_555 1_555
C107_2 C108_2 1_555 1_555
C108_2 C109_2 1_555 1_555
C109_2 C110_2 1_555 1_555
C110_2 C105_2 1_555 1_555
C111_2 C110_2 1_555 1_555
H116_2 C111_2 1_555 1_555
H117_2 C111_2 1_555 1_555
H118_2 C111_2 1_555 1_555
C112_2 C109_2 1_555 1_555
H119_2 C112_2 1_555 1_555
H120_2 C112_2 1_555 1_555
H121_2 C112_2 1_555 1_555
C113_2 C107_2 1_555 1_555
H122_2 C113_2 1_555 1_555
H123_2 C113_2 1_555 1_555
H124_2 C113_2 1_555 1_555
C114_2 C106_2 1_555 1_555
H125_2 C114_2 1_555 1_555
H126_2 C114_2 1_555 1_555
H127_2 C114_2 1_555 1_555
C119_2 B4_2 1_555 1_555
H132_2 C123_2 1_555 1_555
H133_2 C123_2 1_555 1_555
H134_2 C124_2 1_555 1_555
C127_2 C128_2 1_555 1_555
C128_2 C129_2 1_555 1_555
C129_2 C130_2 1_555 1_555
C130_2 B4_2 1_555 1_555
C131_2 C130_2 1_555 1_555
C132_2 C127_2 1_555 1_555
C133_2 C132_2 1_555 1_555
H140_2 C133_2 1_555 1_555
H141_2 C133_2 1_555 1_555
H142_2 C133_2 1_555 1_555
C134_2 C131_2 1_555 1_555
H143_2 C134_2 1_555 1_555
H144_2 C134_2 1_555 1_555
H145_2 C134_2 1_555 1_555
C135_2 C129_2 1_555 1_555
H146_2 C135_2 1_555 1_555
H147_2 C135_2 1_555 1_555
H148_2 C135_2 1_555 1_555
O24_2 Nd9_2 1_555 1_555
O25_2 Nd5_2 1_555 1_555
O30_2 Nd5_2 1_555 1_555
O31_2 Nd5_2 1_555 1_555
N2_2 C137_2 1_555 1_555
C137_2 O31_2 1_555 1_555
H152_2 C137_2 1_555 1_555
C138_2 N2_2 1_555 1_555
H153_2 C138_2 1_555 1_555
H154_2 C138_2 1_555 1_555
H155_2 C138_2 1_555 1_555
C139_2 N2_2 1_555 1_555
H156_2 C139_2 1_555 1_555
H157_2 C139_2 1_555 1_555
H158_2 C139_2 1_555 1_555
Nd6_2 O9_2 1_555 1_555
Nd8_2 O19_2 1_555 1_555
Nd10 O3_2 1_555 1_555
Nd12 O4_2 1_555 1_555
O33_2 Nd9_2 1_555 1_555
O34_2 Nd9_2 1_555 1_555
O37_2 Nd5_2 1_555 1_555
O39_2 Nd5_2 1_555 1_555
O41_2 Nd5_2 1_555 1_555
C17_2 C18_2 1_555 1_555
C28_2 C29_2 1_555 1_555
C79_2 C80_2 1_555 1_555
C85_2 C86_2 1_555 1_555
O17_2 Nd9_2 1_555 1_555
O18_2 Nd9_2 1_555 1_555
O21_2 Nd6_2 1_555 1_555
O22_2 Nd6_2 1_555 1_555
C104_2 O24_2 1_555 1_555
C104_2 O25_2 1_555 1_555
C131_2 C132_2 1_555 1_555
C115_3 C116_3 1_555 1_555
C116_3 C117_3 1_555 1_555
C117_3 C118_3 1_555 1_555
C121_3 C116_3 1_555 1_555
C125_3 C117_3 1_555 1_555
H137_3 C125_3 1_555 1_555
H138_3 C125_3 1_555 1_555
H139_3 C125_3 1_555 1_555
O33 C115_3 1_555 1_555
O35 C115_3 1_555 1_555
C120_3 C121_3 1_555 1_555
B1_3 C5_3 1_555 1_555
C2_3 C3_3 1_555 1_555
C3_3 C4_3 1_555 1_555
C4_3 C5_3 1_555 1_555
C5_3 C6_3 1_555 1_555
C6_3 C7_3 1_555 1_555
C7_3 C2_3 1_555 1_555
C10_3 C4_3 1_555 1_555
H7_3 C10_3 1_555 1_555
H8_3 C10_3 1_555 1_555
H9_3 C10_3 1_555 1_555
C12_3 C13_3 1_555 1_555
C13_3 C14_3 1_555 1_555
C14_3 C15_3 1_555 1_555
C15_3 C16_3 1_555 1_555
C16_3 B1_3 1_555 1_555
C17_3 C16_3 1_555 1_555
C18_3 C13_3 1_555 1_555
C21_3 C15_3 1_555 1_555
H19_3 C21_3 1_555 1_555
H20_3 C21_3 1_555 1_555
H21_3 C21_3 1_555 1_555
C22_3 C14_3 1_555 1_555
H22_3 C22_3 1_555 1_555
H23_3 C22_3 1_555 1_555
H24_3 C22_3 1_555 1_555
C23_3 C24_3 1_555 1_555
C24_3 C25_3 1_555 1_555
C25_3 C26_3 1_555 1_555
C26_3 C27_3 1_555 1_555
C27_3 B1_3 1_555 1_555
C28_3 C27_3 1_555 1_555
C29_3 C24_3 1_555 1_555
C30_3 C29_3 1_555 1_555
H25_3 C30_3 1_555 1_555
H26_3 C30_3 1_555 1_555
H27_3 C30_3 1_555 1_555
C31_3 C28_3 1_555 1_555
H28_3 C31_3 1_555 1_555
H29_3 C31_3 1_555 1_555
H30_3 C31_3 1_555 1_555
O32 C12_3 1_555 1_555
O34 C12_3 1_555 1_555
O5_3 C23_3 1_555 1_555
O6_3 C23_3 1_555 1_555
Nd8_2 O5_3 1_555 1_555
B4_3 C108_3 1_555 1_555
C104_3 C105_3 1_555 1_555
C105_3 C106_3 1_555 1_555
C106_3 C107_3 1_555 1_555
C107_3 C108_3 1_555 1_555
C108_3 C109_3 1_555 1_555
C109_3 C110_3 1_555 1_555
C110_3 C105_3 1_555 1_555
C113_3 C107_3 1_555 1_555
H122_3 C113_3 1_555 1_555
H123_3 C113_3 1_555 1_555
H124_3 C113_3 1_555 1_555
C114_3 C106_3 1_555 1_555
H125_3 C114_3 1_555 1_555
H126_3 C114_3 1_555 1_555
H127_3 C114_3 1_555 1_555
C119_3 B4_3 1_555 1_555
H134_3 C124_3 1_555 1_555
C127_3 C128_3 1_555 1_555
C128_3 C129_3 1_555 1_555
C129_3 C130_3 1_555 1_555
C130_3 B4_3 1_555 1_555
C131_3 C130_3 1_555 1_555
C132_3 C127_3 1_555 1_555
C133_3 C132_3 1_555 1_555
H140_3 C133_3 1_555 1_555
H141_3 C133_3 1_555 1_555
H142_3 C133_3 1_555 1_555
C134_3 C131_3 1_555 1_555
H143_3 C134_3 1_555 1_555
H144_3 C134_3 1_555 1_555
H145_3 C134_3 1_555 1_555
O25_3 Nd8_2 1_555 1_555
O30_3 Nd8_2 1_555 1_555
O31_3 Nd8_2 1_555 1_555
N2_3 C137_3 1_555 1_555
C137_3 O31_3 1_555 1_555
H152_3 C137_3 1_555 1_555
C138_3 N2_3 1_555 1_555
H153_3 C138_3 1_555 1_555
H154_3 C138_3 1_555 1_555
H155_3 C138_3 1_555 1_555
C139_3 N2_3 1_555 1_555
H156_3 C139_3 1_555 1_555
H157_3 C139_3 1_555 1_555
H158_3 C139_3 1_555 1_555
O43 Nd8_2 1_555 1_555
O44 Nd8_2 1_555 1_555
C17_3 C18_3 1_555 1_555
C28_3 C29_3 1_555 1_555
C104_3 O24_3 1_555 1_555
C104_3 O25_3 1_555 1_555
C131_3 C132_3 1_555 1_555
Nd6_2 O2_3 1_555 1_555
H10_3 C11_3 1_555 1_555
H12_3 C11_3 1_555 1_555
C70_3 O13_3 1_555 1_555
O1_3 C1_3 1_555 1_555
O2_3 C1_3 1_555 1_555
O13_3 Nd6_2 1_555 1_555
O44 Nd6_2 1_555 1_555
O15_3 Nd6_2 1_555 1_555
O16_3 Nd6_2 1_555 1_555
N1_3 C71_3 1_555 1_555
C71_3 O16_3 1_555 1_555
H73_3 C71_3 1_555 1_555
C72_3 N1_3 1_555 1_555
H74_3 C72_3 1_555 1_555
H75_3 C72_3 1_555 1_555
H76_3 C72_3 1_555 1_555
C73_3 N1_3 1_555 1_555
H77_3 C73_3 1_555 1_555
H78_3 C73_3 1_555 1_555
H79_3 C73_3 1_555 1_555
O43 C70_3 1_555 1_555
O28_3 Nd6_2 1_555 1_555
C70_3 O44 1_555 1_555
C126_3 O28_3 1_555 1_555
C126_3 O29_3 1_555 1_555
B2_3 C38_3 1_555 1_555
H1_3 C8_3 1_555 1_555
H3_3 C8_3 1_555 1_555
H4_3 C9_3 1_555 1_555
H5_3 C9_3 1_555 1_555
H6_3 C9_3 1_555 1_555
H13_3 C19_3 1_555 1_555
H14_3 C19_3 1_555 1_555
H15_3 C19_3 1_555 1_555
H16_3 C20_3 1_555 1_555
H17_3 C20_3 1_555 1_555
H18_3 C20_3 1_555 1_555
H31_3 C32_3 1_555 1_555
H32_3 C32_3 1_555 1_555
H33_3 C32_3 1_555 1_555
H34_3 C34_3 1_555 1_555
H36_3 C34_3 1_555 1_555
C35_3 C36_3 1_555 1_555
C36_3 C37_3 1_555 1_555
C37_3 C38_3 1_555 1_555
C38_3 C39_3 1_555 1_555
C39_3 C40_3 1_555 1_555
C40_3 C35_3 1_555 1_555
C42_3 C39_3 1_555 1_555
H40_3 C42_3 1_555 1_555
H41_3 C42_3 1_555 1_555
H42_3 C42_3 1_555 1_555
C43_3 C37_3 1_555 1_555
H43_3 C43_3 1_555 1_555
H44_3 C43_3 1_555 1_555
H45_3 C43_3 1_555 1_555
C44_3 C36_3 1_555 1_555
H46_3 C44_3 1_555 1_555
H47_3 C44_3 1_555 1_555
H48_3 C44_3 1_555 1_555
C45_3 C46_3 1_555 1_555
C46_3 C47_3 1_555 1_555
C47_3 C48_3 1_555 1_555
C48_3 C49_3 1_555 1_555
C49_3 B2_3 1_555 1_555
C50_3 C48_3 1_555 1_555
H49_3 C50_3 1_555 1_555
H50_3 C50_3 1_555 1_555
H51_3 C50_3 1_555 1_555
C51_3 C47_3 1_555 1_555
H52_3 C51_3 1_555 1_555
H53_3 C51_3 1_555 1_555
H54_3 C51_3 1_555 1_555
O36_2 C45_3 1_555 1_555
C74_3 C75_3 1_555 1_555
C75_3 C76_3 1_555 1_555
C76_3 C77_3 1_555 1_555
C77_3 C78_3 1_555 1_555
C78_3 B2_3 1_555 1_555
C79_3 C78_3 1_555 1_555
C80_3 C75_3 1_555 1_555
C81_3 C80_3 1_555 1_555
H80_3 C81_3 1_555 1_555
H81_3 C81_3 1_555 1_555
H82_3 C81_3 1_555 1_555
C82_3 C79_3 1_555 1_555
H83_3 C82_3 1_555 1_555
H84_3 C82_3 1_555 1_555
H85_3 C82_3 1_555 1_555
C83_3 C77_3 1_555 1_555
H86_3 C83_3 1_555 1_555
H87_3 C83_3 1_555 1_555
H88_3 C83_3 1_555 1_555
C84_3 C76_3 1_555 1_555
H89_3 C84_3 1_555 1_555
H90_3 C84_3 1_555 1_555
H91_3 C84_3 1_555 1_555
C85_3 C46_3 1_555 1_555
C86_3 C49_3 1_555 1_555
C87_3 C86_3 1_555 1_555
H92_3 C87_3 1_555 1_555
H93_3 C87_3 1_555 1_555
H94_3 C87_3 1_555 1_555
C88_3 C85_3 1_555 1_555
H95_3 C88_3 1_555 1_555
H96_3 C88_3 1_555 1_555
H97_3 C88_3 1_555 1_555
O17_3 C74_3 1_555 1_555
O18_3 C74_3 1_555 1_555
O37_2 C45_3 1_555 1_555
H104_3 C100_3 1_555 1_555
H105_3 C100_3 1_555 1_555
H106_3 C100_3 1_555 1_555
O40_2 C93_3 1_555 1_555
O42_2 C93_3 1_555 1_555
H116_3 C111_3 1_555 1_555
H118_3 C111_3 1_555 1_555
H119_3 C112_3 1_555 1_555
H120_3 C112_3 1_555 1_555
H121_3 C112_3 1_555 1_555
H132_3 C123_3 1_555 1_555
H133_3 C123_3 1_555 1_555
H146_3 C135_3 1_555 1_555
H147_3 C135_3 1_555 1_555
H148_3 C135_3 1_555 1_555
O38 Nd13 1_555 1_555
C79_3 C80_3 1_555 1_555
C85_3 C86_3 1_555 1_555
O17_3 Nd13 1_555 1_555
O18_3 Nd13 1_555 1_555
B3_3 C56_3 1_555 1_555
H37_3 C41_3 1_555 1_555
H38_3 C41_3 1_555 1_555
H39_3 C41_3 1_555 1_555
C52_3 C53_3 1_555 1_555
C53_3 C54_3 1_555 1_555
C54_3 C55_3 1_555 1_555
C55_3 C56_3 1_555 1_555
C56_3 C90_3 1_555 1_555
C57_3 C55_3 1_555 1_555
H55_3 C57_3 1_555 1_555
H56_3 C57_3 1_555 1_555
H57_3 C57_3 1_555 1_555
C58_3 C54_3 1_555 1_555
H58_3 C58_3 1_555 1_555
H59_3 C58_3 1_555 1_555
H60_3 C58_3 1_555 1_555
C59_3 C60_3 1_555 1_555
C60_3 C61_3 1_555 1_555
C61_3 C62_3 1_555 1_555
C62_3 C63_3 1_555 1_555
C63_3 B3_3 1_555 1_555
C64_3 C63_3 1_555 1_555
C65_3 C60_3 1_555 1_555
C66_3 C65_3 1_555 1_555
H61_3 C66_3 1_555 1_555
H62_3 C66_3 1_555 1_555
H63_3 C66_3 1_555 1_555
C67_3 C64_3 1_555 1_555
H64_3 C67_3 1_555 1_555
H65_3 C67_3 1_555 1_555
H66_3 C67_3 1_555 1_555
C68_3 C62_3 1_555 1_555
H67_3 C68_3 1_555 1_555
H68_3 C68_3 1_555 1_555
H69_3 C68_3 1_555 1_555
C69_3 C61_3 1_555 1_555
H70_3 C69_3 1_555 1_555
H71_3 C69_3 1_555 1_555
H72_3 C69_3 1_555 1_555
O7_3 Nd11 1_555 1_555
O8_3 Nd11 1_555 1_555
O10_3 Nd11 1_555 1_555
O39_2 C59_3 1_555 1_555
O41_2 C59_3 1_555 1_555
C89_3 C53_3 1_555 1_555
C90_3 C89_3 1_555 1_555
C91_3 C90_3 1_555 1_555
H98_3 C91_3 1_555 1_555
H99_3 C91_3 1_555 1_555
H100_3 C91_3 1_555 1_555
C92_3 C89_3 1_555 1_555
H101_3 C92_3 1_555 1_555
H102_3 C92_3 1_555 1_555
H103_3 C92_3 1_555 1_555
C94_3 C95_3 1_555 1_555
C95_3 C96_3 1_555 1_555
C96_3 C97_3 1_555 1_555
C97_3 B3_3 1_555 1_555
C98_3 C97_3 1_555 1_555
C99_3 C94_3 1_555 1_555
C101_3 C98_3 1_555 1_555
H107_3 C101_3 1_555 1_555
H108_3 C101_3 1_555 1_555
H109_3 C101_3 1_555 1_555
C102_3 C96_3 1_555 1_555
H110_3 C102_3 1_555 1_555
H111_3 C102_3 1_555 1_555
H112_3 C102_3 1_555 1_555
C103_3 C95_3 1_555 1_555
H113_3 C103_3 1_555 1_555
H114_3 C103_3 1_555 1_555
H115_3 C103_3 1_555 1_555
O38 C52_3 1_555 1_555
H149_3 C136_3 1_555 1_555
H151_3 C136_3 1_555 1_555
C33_3 O7_3 1_555 1_555
C33_3 O8_3 1_555 1_555
C52_3 O10_3 1_555 1_555
C64_3 C65_3 1_555 1_555
C98_3 C99_3 1_555 1_555
B1_4 C5_4 1_555 1_555
B2_4 C38_4 1_555 1_555
C2_4 C3_4 1_555 1_555
C3_4 C4_4 1_555 1_555
C4_4 C5_4 1_555 1_555
C5_4 C6_4 1_555 1_555
C6_4 C7_4 1_555 1_555
C7_4 C2_4 1_555 1_555
C8_4 C7_4 1_555 1_555
H1_4 C8_4 1_555 1_555
H2_4 C8_4 1_555 1_555
H3_4 C8_4 1_555 1_555
C9_4 C6_4 1_555 1_555
H4_4 C9_4 1_555 1_555
H5_4 C9_4 1_555 1_555
H6_4 C9_4 1_555 1_555
C10_4 C4_4 1_555 1_555
H7_4 C10_4 1_555 1_555
H8_4 C10_4 1_555 1_555
H9_4 C10_4 1_555 1_555
C12_4 C13_4 1_555 1_555
C13_4 C14_4 1_555 1_555
C14_4 C15_4 1_555 1_555
C15_4 C16_4 1_555 1_555
C16_4 B1_4 1_555 1_555
C17_4 C16_4 1_555 1_555
C18_4 C13_4 1_555 1_555
C19_4 C18_4 1_555 1_555
H13_4 C19_4 1_555 1_555
H14_4 C19_4 1_555 1_555
H15_4 C19_4 1_555 1_555
C20_4 C17_4 1_555 1_555
H16_4 C20_4 1_555 1_555
H17_4 C20_4 1_555 1_555
H18_4 C20_4 1_555 1_555
C21_4 C15_4 1_555 1_555
H19_4 C21_4 1_555 1_555
H20_4 C21_4 1_555 1_555
H21_4 C21_4 1_555 1_555
C22_4 C14_4 1_555 1_555
H22_4 C22_4 1_555 1_555
H23_4 C22_4 1_555 1_555
H24_4 C22_4 1_555 1_555
C23_4 C24_4 1_555 1_555
C24_4 C25_4 1_555 1_555
C25_4 C26_4 1_555 1_555
C26_4 C27_4 1_555 1_555
C27_4 B1_4 1_555 1_555
C28_4 C27_4 1_555 1_555
C29_4 C24_4 1_555 1_555
C30_4 C29_4 1_555 1_555
H25_4 C30_4 1_555 1_555
H26_4 C30_4 1_555 1_555
H27_4 C30_4 1_555 1_555
C31_4 C28_4 1_555 1_555
H28_4 C31_4 1_555 1_555
H29_4 C31_4 1_555 1_555
H30_4 C31_4 1_555 1_555
C32_4 C26_4 1_555 1_555
H31_4 C32_4 1_555 1_555
H32_4 C32_4 1_555 1_555
H33_4 C32_4 1_555 1_555
C34_4 C25_4 1_555 1_555
H34_4 C34_4 1_555 1_555
H35_4 C34_4 1_555 1_555
H36_4 C34_4 1_555 1_555
C35_4 C36_4 1_555 1_555
C36_4 C37_4 1_555 1_555
C37_4 C38_4 1_555 1_555
C38_4 C39_4 1_555 1_555
C39_4 C40_4 1_555 1_555
C40_4 C35_4 1_555 1_555
C42_4 C39_4 1_555 1_555
H40_4 C42_4 1_555 1_555
H41_4 C42_4 1_555 1_555
H42_4 C42_4 1_555 1_555
C43_4 C37_4 1_555 1_555
H43_4 C43_4 1_555 1_555
H44_4 C43_4 1_555 1_555
H45_4 C43_4 1_555 1_555
C44_4 C36_4 1_555 1_555
H46_4 C44_4 1_555 1_555
H47_4 C44_4 1_555 1_555
H48_4 C44_4 1_555 1_555
C45_4 C46_4 1_555 1_555
C46_4 C47_4 1_555 1_555
C47_4 C48_4 1_555 1_555
C48_4 C49_4 1_555 1_555
C49_4 B2_4 1_555 1_555
C50_4 C48_4 1_555 1_555
H49_4 C50_4 1_555 1_555
H50_4 C50_4 1_555 1_555
H51_4 C50_4 1_555 1_555
C51_4 C47_4 1_555 1_555
H52_4 C51_4 1_555 1_555
H53_4 C51_4 1_555 1_555
H54_4 C51_4 1_555 1_555
O32_2 C12_4 1_555 1_555
O34_2 C12_4 1_555 1_555
O5_4 C23_4 1_555 1_555
O6_4 C23_4 1_555 1_555
O36 C45_4 1_555 1_555
C74_4 C75_4 1_555 1_555
C75_4 C76_4 1_555 1_555
C76_4 C77_4 1_555 1_555
C77_4 C78_4 1_555 1_555
C78_4 B2_4 1_555 1_555
C79_4 C78_4 1_555 1_555
C80_4 C75_4 1_555 1_555
C81_4 C80_4 1_555 1_555
H80_4 C81_4 1_555 1_555
H81_4 C81_4 1_555 1_555
H82_4 C81_4 1_555 1_555
C82_4 C79_4 1_555 1_555
H83_4 C82_4 1_555 1_555
H84_4 C82_4 1_555 1_555
H85_4 C82_4 1_555 1_555
C83_4 C77_4 1_555 1_555
H86_4 C83_4 1_555 1_555
H87_4 C83_4 1_555 1_555
H88_4 C83_4 1_555 1_555
C84_4 C76_4 1_555 1_555
H89_4 C84_4 1_555 1_555
H90_4 C84_4 1_555 1_555
H91_4 C84_4 1_555 1_555
C85_4 C46_4 1_555 1_555
C86_4 C49_4 1_555 1_555
C87_4 C86_4 1_555 1_555
H92_4 C87_4 1_555 1_555
H93_4 C87_4 1_555 1_555
H94_4 C87_4 1_555 1_555
C88_4 C85_4 1_555 1_555
H95_4 C88_4 1_555 1_555
H96_4 C88_4 1_555 1_555
H97_4 C88_4 1_555 1_555
O17_4 C74_4 1_555 1_555
O18_4 C74_4 1_555 1_555
O37 C45_4 1_555 1_555
H104_4 C100_4 1_555 1_555
H105_4 C100_4 1_555 1_555
H106_4 C100_4 1_555 1_555
O40 C93_4 1_555 1_555
O42 C93_4 1_555 1_555
Nd8 O5_4 1_555 1_555
Nd12 O6_4 1_555 1_555
B4_4 C108_4 1_555 1_555
C104_4 C105_4 1_555 1_555
C105_4 C106_4 1_555 1_555
C106_4 C107_4 1_555 1_555
C107_4 C108_4 1_555 1_555
C108_4 C109_4 1_555 1_555
C109_4 C110_4 1_555 1_555
C110_4 C105_4 1_555 1_555
C111_4 C110_4 1_555 1_555
H116_4 C111_4 1_555 1_555
H117_4 C111_4 1_555 1_555
H118_4 C111_4 1_555 1_555
C112_4 C109_4 1_555 1_555
H119_4 C112_4 1_555 1_555
H120_4 C112_4 1_555 1_555
H121_4 C112_4 1_555 1_555
C113_4 C107_4 1_555 1_555
H122_4 C113_4 1_555 1_555
H123_4 C113_4 1_555 1_555
H124_4 C113_4 1_555 1_555
C114_4 C106_4 1_555 1_555
H125_4 C114_4 1_555 1_555
H126_4 C114_4 1_555 1_555
H127_4 C114_4 1_555 1_555
C119_4 B4_4 1_555 1_555
H132_4 C123_4 1_555 1_555
H133_4 C123_4 1_555 1_555
H134_4 C124_4 1_555 1_555
C127_4 C128_4 1_555 1_555
C128_4 C129_4 1_555 1_555
C129_4 C130_4 1_555 1_555
C130_4 B4_4 1_555 1_555
C131_4 C130_4 1_555 1_555
C132_4 C127_4 1_555 1_555
C133_4 C132_4 1_555 1_555
H140_4 C133_4 1_555 1_555
H141_4 C133_4 1_555 1_555
H142_4 C133_4 1_555 1_555
C134_4 C131_4 1_555 1_555
H143_4 C134_4 1_555 1_555
H144_4 C134_4 1_555 1_555
H145_4 C134_4 1_555 1_555
C135_4 C129_4 1_555 1_555
H146_4 C135_4 1_555 1_555
H147_4 C135_4 1_555 1_555
H148_4 C135_4 1_555 1_555
O24_4 Nd12 1_555 1_555
O25_4 Nd8 1_555 1_555
O30_4 Nd8 1_555 1_555
O31_4 Nd8 1_555 1_555
N2_4 C137_4 1_555 1_555
C137_4 O31_4 1_555 1_555
H152_4 C137_4 1_555 1_555
C138_4 N2_4 1_555 1_555
H153_4 C138_4 1_555 1_555
H154_4 C138_4 1_555 1_555
H155_4 C138_4 1_555 1_555
C139_4 N2_4 1_555 1_555
H156_4 C139_4 1_555 1_555
H157_4 C139_4 1_555 1_555
H158_4 C139_4 1_555 1_555
O38_2 Nd12 1_555 1_555
O43_2 Nd8 1_555 1_555
O44_2 Nd8 1_555 1_555
C17_4 C18_4 1_555 1_555
C28_4 C29_4 1_555 1_555
C79_4 C80_4 1_555 1_555
C85_4 C86_4 1_555 1_555
O17_4 Nd12 1_555 1_555
O18_4 Nd12 1_555 1_555
Nd12 O43_2 1_555 1_555
C104_4 O24_4 1_555 1_555
C104_4 O25_4 1_555 1_555
C131_4 C132_4 1_555 1_555
Nd6 O2_4 1_555 1_555
Nd10 O1_4 1_555 1_555
B3_4 C56_4 1_555 1_555
H10_4 C11_4 1_555 1_555
H12_4 C11_4 1_555 1_555
H37_4 C41_4 1_555 1_555
H38_4 C41_4 1_555 1_555
H39_4 C41_4 1_555 1_555
C52_4 C53_4 1_555 1_555
C53_4 C54_4 1_555 1_555
C54_4 C55_4 1_555 1_555
C55_4 C56_4 1_555 1_555
C56_4 C90_4 1_555 1_555
C57_4 C55_4 1_555 1_555
H55_4 C57_4 1_555 1_555
H56_4 C57_4 1_555 1_555
H57_4 C57_4 1_555 1_555
C58_4 C54_4 1_555 1_555
H58_4 C58_4 1_555 1_555
H59_4 C58_4 1_555 1_555
H60_4 C58_4 1_555 1_555
C59_4 C60_4 1_555 1_555
C60_4 C61_4 1_555 1_555
C61_4 C62_4 1_555 1_555
C62_4 C63_4 1_555 1_555
C63_4 B3_4 1_555 1_555
C64_4 C63_4 1_555 1_555
C65_4 C60_4 1_555 1_555
C66_4 C65_4 1_555 1_555
H61_4 C66_4 1_555 1_555
H62_4 C66_4 1_555 1_555
H63_4 C66_4 1_555 1_555
C67_4 C64_4 1_555 1_555
H64_4 C67_4 1_555 1_555
H65_4 C67_4 1_555 1_555
H66_4 C67_4 1_555 1_555
C68_4 C62_4 1_555 1_555
H67_4 C68_4 1_555 1_555
H68_4 C68_4 1_555 1_555
H69_4 C68_4 1_555 1_555
C69_4 C61_4 1_555 1_555
H70_4 C69_4 1_555 1_555
H71_4 C69_4 1_555 1_555
H72_4 C69_4 1_555 1_555
C70_4 O13_4 1_555 1_555
O1_4 C1_4 1_555 1_555
O2_4 C1_4 1_555 1_555
O7_4 Nd10 1_555 1_555
O8_4 Nd10 1_555 1_555
O10_4 Nd10 1_555 1_555
O39 C59_4 1_555 1_555
O41 C59_4 1_555 1_555
O13_4 Nd6 1_555 1_555
O44_2 Nd6 1_555 1_555
O15_4 Nd6 1_555 1_555
O16_4 Nd6 1_555 1_555
N1_4 C71_4 1_555 1_555
C71_4 O16_4 1_555 1_555
H73_4 C71_4 1_555 1_555
C72_4 N1_4 1_555 1_555
H74_4 C72_4 1_555 1_555
H75_4 C72_4 1_555 1_555
H76_4 C72_4 1_555 1_555
C73_4 N1_4 1_555 1_555
H77_4 C73_4 1_555 1_555
H78_4 C73_4 1_555 1_555
H79_4 C73_4 1_555 1_555
C89_4 C53_4 1_555 1_555
C90_4 C89_4 1_555 1_555
C91_4 C90_4 1_555 1_555
H98_4 C91_4 1_555 1_555
H99_4 C91_4 1_555 1_555
H100_4 C91_4 1_555 1_555
C92_4 C89_4 1_555 1_555
H101_4 C92_4 1_555 1_555
H102_4 C92_4 1_555 1_555
H103_4 C92_4 1_555 1_555
C94_4 C95_4 1_555 1_555
C95_4 C96_4 1_555 1_555
C96_4 C97_4 1_555 1_555
C97_4 B3_4 1_555 1_555
C98_4 C97_4 1_555 1_555
C99_4 C94_4 1_555 1_555
C101_4 C98_4 1_555 1_555
H107_4 C101_4 1_555 1_555
H108_4 C101_4 1_555 1_555
H109_4 C101_4 1_555 1_555
C102_4 C96_4 1_555 1_555
H110_4 C102_4 1_555 1_555
H111_4 C102_4 1_555 1_555
H112_4 C102_4 1_555 1_555
C103_4 C95_4 1_555 1_555
H113_4 C103_4 1_555 1_555
H114_4 C103_4 1_555 1_555
H115_4 C103_4 1_555 1_555
O38_2 C52_4 1_555 1_555
O43_2 C70_4 1_555 1_555
H149_4 C136_4 1_555 1_555
H150_4 C136_4 1_555 1_555
H151_4 C136_4 1_555 1_555
O28_4 Nd6 1_555 1_555
O29_4 Nd10 1_555 1_555
Nd10 O13_4 1_555 1_555
C33_4 O7_4 1_555 1_555
C33_4 O8_4 1_555 1_555
C52_4 O10_4 1_555 1_555
C64_4 C65_4 1_555 1_555
C70_4 O44_2 1_555 1_555
C98_4 C99_4 1_555 1_555
C126_4 O28_4 1_555 1_555
C126_4 O29_4 1_555 1_555
C115_4 C116_4 1_555 1_555
C116_4 C117_4 1_555 1_555
C117_4 C118_4 1_555 1_555
C121_4 C116_4 1_555 1_555
C122_2 C121_4 1_555 1_555
H128_2 C122_2 1_555 1_555
H129_2 C122_2 1_555 1_555
H130_2 C122_2 1_555 1_555
C125_4 C117_4 1_555 1_555
H137_4 C125_4 1_555 1_555
H138_4 C125_4 1_555 1_555
H139_4 C125_4 1_555 1_555
O33_2 C115_4 1_555 1_555
O35_2 C115_4 1_555 1_555
C120_4 C121_4 1_555 1_555
H128_3 C122_3 1_555 1_555
H129_3 C122_3 1_555 1_555
H130_3 C122_3 1_555 1_555
H128_4 C122_4 1_555 1_555
H129_4 C122_4 1_555 1_555
H130_4 C122_4 1_555 1_555
N3 C140 1_555 1_555
C141 N3 1_555 1_555
N3 H162 1_555 1_555
C141 H163 1_555 1_555
C141 H164 1_555 1_555
C141 H165 1_555 1_555
C140 H166 1_555 1_555
C140 H168 1_555 1_555
N3_2 C140_2 1_555 1_555
C141_2 N3_2 1_555 1_555
N3_2 H162_2 1_555 1_555
C141_2 H163_2 1_555 1_555
C141_2 H164_2 1_555 1_555
C141_2 H165_2 1_555 1_555
C140_2 H166_2 1_555 1_555
C140_2 H168_2 1_555 1_555
N3_3 C140_3 1_555 1_555
C141_3 N3_3 1_555 1_555
N3_3 H161_3 1_555 1_555
N3_3 H162_3 1_555 1_555
C141_3 H163_3 1_555 1_555
C141_3 H164_3 1_555 1_555
C141_3 H165_3 1_555 1_555
C140_3 H166_3 1_555 1_555
C140_3 H167_3 1_555 1_555
C140_3 H168_3 1_555 1_555
N3_4 C140_4 1_555 1_555
C141_4 N3_4 1_555 1_555
N3_4 H161_4 1_555 1_555
N3_4 H162_4 1_555 1_555
C141_4 H163_4 1_555 1_555
C141_4 H164_4 1_555 1_555
C141_4 H165_4 1_555 1_555
C140_4 H166_4 1_555 1_555
C140_4 H167_4 1_555 1_555
C140_4 H168_4 1_555 1_555
N3_5 C140_5 1_555 1_555
C141_5 N3_5 1_555 1_555
N3_5 H162_5 1_555 1_555
C141_5 H163_5 1_555 1_555
C141_5 H164_5 1_555 1_555
C141_5 H165_5 1_555 1_555
C140_5 H166_5 1_555 1_555
C140_5 H168_5 1_555 1_555
N3_6 C140_6 1_555 1_555
C141_6 N3_6 1_555 1_555
N3_6 H162_6 1_555 1_555
C141_6 H163_6 1_555 1_555
C141_6 H164_6 1_555 1_555
C141_6 H165_6 1_555 1_555
C140_6 H166_6 1_555 1_555
C140_6 H168_6 1_555 1_555
N3_7 C140_7 1_555 1_555
C141_7 N3_7 1_555 1_555
N3_7 H161_7 1_555 1_555
N3_7 H162_7 1_555 1_555
C141_7 H163_7 1_555 1_555
C141_7 H164_7 1_555 1_555
C141_7 H165_7 1_555 1_555
C140_7 H166_7 1_555 1_555
C140_7 H167_7 1_555 1_555
C140_7 H168_7 1_555 1_555
N3_8 C140_8 1_555 1_555
C141_8 N3_8 1_555 1_555
N3_8 H161_8 1_555 1_555
N3_8 H162_8 1_555 1_555
C141_8 H163_8 1_555 1_555
C141_8 H164_8 1_555 1_555
C141_8 H165_8 1_555 1_555
C140_8 H166_8 1_555 1_555
C140_8 H167_8 1_555 1_555
C140_8 H168_8 1_555 1_555

#END
