
###############################################################################
#
# This file contains modified crystal structure data generated from the
# MOF subset of the Cambridge Structural Database (CSD) v543 
# hosted by the Cambridge Crystallographic Data Centre (CCDC).
#
# This work is licensed under the Creative Commons
# Attribution-NonCommercial-ShareAlike 4.0 International License.
# To view a copy of this license, visit
# http://creativecommons.org/licenses/by-nc-sa/4.0/
# or send a letter to
# Creative Commons, PO Box 1866, Mountain View, CA 94042, USA.
#
# CIF created using the CSD Python API on 29 September 2022
# The structure has been converted into the P1 space group
# The structure has a 3D framework
# The original CSD entry CIPREZ is in the orthorhombic crystal system
# The framework has been calculated to contain at least 10.0% void space
# The void calculation uses a probe of radius 1.32A, grid spacing 0.4
# The framework is charged, counterions have been retained in the structure
# H atom positions have been added when not included in the experimental data
# Generated hydrogen atom positions removed from atoms on special positions
#
###############################################################################

data_CIPREZ
_chemical_formula_moiety         '(C80 H176 Cu8 La4 N24 O80 S8 4+)n'
_symmetry_cell_setting           triclinic
_symmetry_space_group_name_H-M   'P 1'
_symmetry_Int_Tables_number      1
_space_group_name_Hall           'P 1'
loop_
_symmetry_equiv_pos_site_id
_symmetry_equiv_pos_as_xyz
1 x,y,z
_cell_length_a                   15.912(2)
_cell_length_b                   16.689(2)
_cell_length_c                   14.5060(18)
_cell_angle_alpha                90
_cell_angle_beta                 90
_cell_angle_gamma                90
_cell_volume                     3852.15
loop_
_atom_site_label
_atom_site_type_symbol
_atom_site_fract_x
_atom_site_fract_y
_atom_site_fract_z
O1 O 0.023(2) 0.589(2) 0.029(3)
H36 H 0.0854057 0.589 0.029
H37 H 0.00219809 0.637582 0.99673
H38 H 0.00219809 0.540418 0.99673
O1_2 O 0.477(2) 0.911(2) 0.029(3)
H36_2 H 0.414594 0.911 0.029
H37_2 H 0.497802 0.862418 0.99673
H38_2 H 0.497802 0.959582 0.99673
O1_3 O 0.977(2) 0.089(2) 0.471(3)
O1_4 O 0.523(2) 0.411(2) 0.471(3)
H37_3 H 0.997802 0.362418 0.00326973
H38_3 H 0.997802 0.459582 0.00326973
O1_5 O 0.977(2) 0.411(2) 0.971(3)
H36_3 H 0.914594 0.411 0.971
H37_4 H 0.502198 0.137582 0.00326973
H38_4 H 0.502198 0.0404182 0.00326973
O1_6 O 0.523(2) 0.089(2) 0.971(3)
H36_4 H 0.585406 0.089 0.971
O1_7 O 0.023(2) 0.911(2) 0.529(3)
O1_8 O 0.477(2) 0.589(2) 0.529(3)
O16 O 0.3418(4) 0.2230(4) 0.0314(5)
O17 O 0.1582(4) 0.2770(4) 0.0314(5)
La1 La 0.2500 0.2500 0.89294(4)
Cu1 Cu 0.43722(6) 0.11394(6) 0.71232(7)
O2 O 0.3876(3) 0.1911(3) 0.8206(4)
O3 O 0.4151(4) 0.3092(4) 0.8838(4)
O4 O 0.3577(4) 0.1649(4) 0.6124(4)
O5 O 0.3418(4) 0.2770(4) 0.5314(5)
O6 O 0.5343(5) 0.0657(4) 0.8004(5)
O8 O 0.2659(5) 0.3941(3) 0.9538(6)
H1 H 0.2679 0.4274 0.9078
H2 H 0.2299 0.4050 0.9965
O9 O 0.2806(4) 0.3322(3) 0.7452(4)
H3 H 0.2408 0.3333 0.7056
H4 H 0.3064 0.3754 0.7577
N1 N 0.5063(4) 0.2150(4) 0.6904(5)
N2 N 0.5220(5) 0.0592(4) 0.6115(5)
C1 C 0.4355(5) 0.2527(4) 0.8336(6)
C2 C 0.5174(5) 0.2527(5) 0.7830(6)
H5 H 0.5373 0.3072 0.7758
H6 H 0.5590 0.2230 0.8180
C3 C 0.4597(6) 0.2704(5) 0.6271(7)
H7 H 0.4963 0.2852 0.5765
H8 H 0.4457 0.3190 0.6606
C4 C 0.3794(5) 0.2346(5) 0.5880(5)
C5 C 0.5858(5) 0.1897(5) 0.6491(6)
H9 H 0.6217 0.1667 0.6962
H10 H 0.6144 0.2359 0.6233
C6 C 0.5703(6) 0.1289(5) 0.5746(6)
H11 H 0.5390 0.1536 0.5247
H12 H 0.6236 0.1104 0.5501
C7 C 0.5774(6) 0.0024(6) 0.6610(7)
H13 H 0.6344 0.0092 0.6387
C8 C 0.5771(6) 0.0125(5) 0.7641(7)
C9 C 0.4726(6) 0.0183(5) 0.5373(7)
H15 H 0.4349 0.0569 0.5092
N3 N 0.3690(6) 0.0259(4) 0.7366(7)
La2 La 0.2500 0.2500 0.39294(4)
O11 O 0.1124(3) 0.3089(3) 0.8206(4)
O13 O 0.0849(4) 0.1908(4) 0.8838(4)
O19 O 0.3787(4) 0.0383(4) 0.1932(4)
O20 O 0.2341(5) 0.1059(3) 0.9538(6)
H17 H 0.2321 0.0726 0.9078
H18 H 0.2701 0.0950 0.9965
O21 O 0.2194(4) 0.1678(3) 0.7452(4)
H19 H 0.2592 0.1667 0.7056
H20 H 0.1936 0.1246 0.7577
H30 H 0.4400 0.0518 0.3537
H32 H 0.5614 0.0235 0.4351
C20 C 0.6571(16) 0.0260(11) 0.2271(19)
S2 S 0.7021(5) 0.1141(4) 0.1836(9)
O7 O 0.6213(4) 0.9617(4) 0.8068(4)
H14 H 0.5600 0.9482 0.6463
H16 H 0.4386 0.9765 0.5649
C10 C 0.3429(16) 0.9740(11) 0.7729(19)
S1 S 0.2979(5) 0.8859(4) 0.8164(9)
La3 La 0.7500 0.7500 0.10706(4)
La4 La 0.7500 0.7500 0.60706(4)
Cu2 Cu 0.56278(6) 0.88606(6) 0.28768(7)
O10 O 0.6124(3) 0.8089(3) 0.1794(4)
O12 O 0.5849(4) 0.6908(4) 0.1162(4)
O14 O 0.6423(4) 0.8351(4) 0.3876(4)
O15 O 0.6582(4) 0.7230(4) 0.4686(5)
O18 O 0.4657(5) 0.9343(4) 0.1996(5)
N4 N 0.4937(4) 0.7850(4) 0.3096(5)
N5 N 0.4780(5) 0.9408(4) 0.3885(5)
C11 C 0.5645(5) 0.7473(4) 0.1664(6)
C12 C 0.4826(5) 0.7473(5) 0.2170(6)
H21 H 0.4627 0.6928 0.2242
H22 H 0.4410 0.7770 0.1820
C13 C 0.5403(6) 0.7296(5) 0.3729(7)
H23 H 0.5037 0.7148 0.4235
H24 H 0.5543 0.6810 0.3394
C14 C 0.6206(5) 0.7654(5) 0.4120(5)
C15 C 0.4142(5) 0.8103(5) 0.3509(6)
H25 H 0.3783 0.8333 0.3038
H26 H 0.3856 0.7641 0.3767
C16 C 0.4297(6) 0.8711(5) 0.4254(6)
H27 H 0.4610 0.8464 0.4753
H28 H 0.3764 0.8896 0.4499
C17 C 0.4226(6) 0.9976(6) 0.3390(7)
H29 H 0.3656 0.9908 0.3613
C18 C 0.4229(6) 0.9875(5) 0.2359(7)
C19 C 0.5274(6) 0.9817(5) 0.4627(7)
H31 H 0.5651 0.9431 0.4908
N6 N 0.6310(6) 0.9741(4) 0.2634(7)
Cu1_2 Cu 0.06278(6) 0.38606(6) 0.71232(7)
O4_2 O 0.1423(4) 0.3351(4) 0.6124(4)
O5_2 O 0.1582(4) 0.2230(4) 0.5314(5)
C1_2 C 0.0645(5) 0.2473(4) 0.8336(6)
C3_2 C 0.0403(6) 0.2296(5) 0.6271(7)
H7_2 H 0.0037 0.2148 0.5765
H8_2 H 0.0543 0.1810 0.6606
C4_2 C 0.1206(5) 0.2654(5) 0.5880(5)
C9_2 C 0.0274(6) 0.4817(5) 0.5373(7)
H15_2 H 0.0651 0.4431 0.5092
H16_2 H 0.0614 0.5235 0.5649
N3_2 N 0.1310(6) 0.4741(4) 0.7366(7)
C10_2 C 0.1571(16) 0.5260(11) 0.7729(19)
S1_2 S 0.2021(5) 0.6141(4) 0.8164(9)
O18_2 O 0.0343(5) 0.5657(4) 0.1996(5)
O19_2 O 0.1213(4) 0.4617(4) 0.1932(4)
N4_2 N 0.0063(4) 0.7150(4) 0.3096(5)
N5_2 N 0.0220(5) 0.5592(4) 0.3885(5)
C12_2 C 0.0174(5) 0.7527(5) 0.2170(6)
H21_2 H 0.0373 0.8072 0.2242
H22_2 H 0.0590 0.7230 0.1820
C15_2 C 0.0858(5) 0.6897(5) 0.3509(6)
H25_2 H 0.1217 0.6667 0.3038
H26_2 H 0.1144 0.7359 0.3767
C16_2 C 0.0703(6) 0.6289(5) 0.4254(6)
H27_2 H 0.0390 0.6536 0.4753
H28_2 H 0.1236 0.6104 0.4499
C17_2 C 0.0774(6) 0.5024(6) 0.3390(7)
H29_2 H 0.1344 0.5092 0.3613
H30_2 H 0.0600 0.4482 0.3537
C18_2 C 0.0771(6) 0.5125(5) 0.2359(7)
O6_2 O 0.9657(5) 0.4343(4) 0.8004(5)
O7_2 O 0.8787(4) 0.5383(4) 0.8068(4)
N1_2 N 0.9937(4) 0.2850(4) 0.6904(5)
N2_2 N 0.9780(5) 0.4408(4) 0.6115(5)
C2_2 C 0.9826(5) 0.2473(5) 0.7830(6)
H5_2 H 0.9627 0.1928 0.7758
H6_2 H 0.9410 0.2770 0.8180
C5_2 C 0.9142(5) 0.3103(5) 0.6491(6)
H9_2 H 0.8783 0.3333 0.6962
H10_2 H 0.8856 0.2641 0.6233
C6_2 C 0.9297(6) 0.3711(5) 0.5746(6)
H11_2 H 0.9610 0.3464 0.5247
H12_2 H 0.8764 0.3896 0.5501
C7_2 C 0.9226(6) 0.4976(6) 0.6610(7)
H13_2 H 0.8656 0.4908 0.6387
H14_2 H 0.9400 0.5518 0.6463
C8_2 C 0.9229(6) 0.4875(5) 0.7641(7)
Cu2_2 Cu 0.93722(6) 0.61394(6) 0.28768(7)
O10_2 O 0.8876(3) 0.6911(3) 0.1794(4)
O12_2 O 0.9151(4) 0.8092(4) 0.1162(4)
O14_2 O 0.8577(4) 0.6649(4) 0.3876(4)
O15_2 O 0.8418(4) 0.7770(4) 0.4686(5)
C11_2 C 0.9355(5) 0.7527(4) 0.1664(6)
C13_2 C 0.9597(6) 0.7704(5) 0.3729(7)
H23_2 H 0.9963 0.7852 0.4235
H24_2 H 0.9457 0.8190 0.3394
C14_2 C 0.8794(5) 0.7346(5) 0.4120(5)
C19_2 C 0.9726(6) 0.5183(5) 0.4627(7)
H31_2 H 0.9349 0.5569 0.4908
H32_2 H 0.9386 0.4765 0.4351
N6_2 N 0.8690(6) 0.5259(4) 0.2634(7)
C20_2 C 0.8429(16) 0.4740(11) 0.2271(19)
S2_2 S 0.7979(5) 0.3859(4) 0.1836(9)
Cu2_3 Cu 0.43722(6) 0.38606(6) 0.21232(7)
O10_3 O 0.3876(3) 0.3089(3) 0.3206(4)
O12_3 O 0.4151(4) 0.1908(4) 0.3838(4)
O14_3 O 0.3577(4) 0.3351(4) 0.1124(4)
O18_3 O 0.5343(5) 0.4343(4) 0.3004(5)
O19_3 O 0.6213(4) 0.5383(4) 0.3068(4)
N4_3 N 0.5063(4) 0.2850(4) 0.1904(5)
N5_3 N 0.5220(5) 0.4408(4) 0.1115(5)
C11_3 C 0.4355(5) 0.2473(4) 0.3336(6)
C12_3 C 0.5174(5) 0.2473(5) 0.2830(6)
H21_3 H 0.5373 0.1928 0.2758
H22_3 H 0.5590 0.2770 0.3180
C13_3 C 0.4597(6) 0.2296(5) 0.1271(7)
H23_3 H 0.4963 0.2148 0.0765
H24_3 H 0.4457 0.1810 0.1606
C14_3 C 0.3794(5) 0.2654(5) 0.0880(5)
C15_3 C 0.5858(5) 0.3103(5) 0.1491(6)
H25_3 H 0.6217 0.3333 0.1962
H26_3 H 0.6144 0.2641 0.1233
C16_3 C 0.5703(6) 0.3711(5) 0.0746(6)
H27_3 H 0.5390 0.3464 0.0247
H28_3 H 0.6236 0.3896 0.0501
C17_3 C 0.5774(6) 0.4976(6) 0.1610(7)
H29_3 H 0.6344 0.4908 0.1387
H30_3 H 0.5600 0.5518 0.1463
C18_3 C 0.5771(6) 0.4875(5) 0.2641(7)
C19_3 C 0.4726(6) 0.4817(5) 0.0373(7)
H31_3 H 0.4349 0.4431 0.0092
H32_3 H 0.4386 0.5235 0.0649
N6_3 N 0.3690(6) 0.4741(4) 0.2366(7)
C20_3 C 0.3429(16) 0.5260(11) 0.2729(19)
S2_3 S 0.2979(5) 0.6141(4) 0.3164(9)
Cu1_3 Cu 0.56278(6) 0.61394(6) 0.78768(7)
O2_2 O 0.6124(3) 0.6911(3) 0.6794(4)
O3_2 O 0.5849(4) 0.8092(4) 0.6162(4)
O4_3 O 0.6423(4) 0.6649(4) 0.8876(4)
O5_3 O 0.6582(4) 0.7770(4) 0.9686(5)
O6_3 O 0.4657(5) 0.5657(4) 0.6996(5)
O7_3 O 0.3787(4) 0.4617(4) 0.6932(4)
O8_2 O 0.7341(5) 0.8941(3) 0.5462(6)
H1_2 H 0.7321 0.9274 0.5922
H2_2 H 0.7701 0.9050 0.5035
O9_2 O 0.7194(4) 0.8322(3) 0.7548(4)
H3_2 H 0.7592 0.8333 0.7944
H4_2 H 0.6936 0.8754 0.7423
N1_3 N 0.4937(4) 0.7150(4) 0.8096(5)
N2_3 N 0.4780(5) 0.5592(4) 0.8885(5)
C1_3 C 0.5645(5) 0.7527(4) 0.6664(6)
C2_3 C 0.4826(5) 0.7527(5) 0.7170(6)
H5_3 H 0.4627 0.8072 0.7242
H6_3 H 0.4410 0.7230 0.6820
C3_3 C 0.5403(6) 0.7704(5) 0.8729(7)
H7_3 H 0.5037 0.7852 0.9235
H8_3 H 0.5543 0.8190 0.8394
C4_3 C 0.6206(5) 0.7346(5) 0.9120(5)
C5_3 C 0.4142(5) 0.6897(5) 0.8509(6)
H9_3 H 0.3783 0.6667 0.8038
H10_3 H 0.3856 0.7359 0.8767
C6_3 C 0.4297(6) 0.6289(5) 0.9254(6)
H11_3 H 0.4610 0.6536 0.9753
H12_3 H 0.3764 0.6104 0.9499
C7_3 C 0.4226(6) 0.5024(6) 0.8390(7)
H13_3 H 0.3656 0.5092 0.8613
H14_3 H 0.4400 0.4482 0.8537
C8_3 C 0.4229(6) 0.5125(5) 0.7359(7)
C9_3 C 0.5274(6) 0.5183(5) 0.9627(7)
H15_3 H 0.5651 0.5569 0.9908
H16_3 H 0.5614 0.4765 0.9351
N3_3 N 0.6310(6) 0.5259(4) 0.7634(7)
C10_3 C 0.6571(16) 0.4740(11) 0.7271(19)
S1_3 S 0.7021(5) 0.3859(4) 0.6836(9)
O11_2 O 0.8876(3) 0.8089(3) 0.6794(4)
O13_2 O 0.9151(4) 0.6908(4) 0.6162(4)
O20_2 O 0.7659(5) 0.6059(3) 0.5462(6)
H17_2 H 0.7679 0.5726 0.5922
H18_2 H 0.7299 0.5950 0.5035
O21_2 O 0.7806(4) 0.6678(3) 0.7548(4)
H19_2 H 0.7408 0.6667 0.7944
H20_2 H 0.8064 0.6246 0.7423
Cu2_4 Cu 0.06278(6) 0.11394(6) 0.21232(7)
O10_4 O 0.1124(3) 0.1911(3) 0.3206(4)
O12_4 O 0.0849(4) 0.3092(4) 0.3838(4)
O14_4 O 0.1423(4) 0.1649(4) 0.1124(4)
C11_4 C 0.0645(5) 0.2527(4) 0.3336(6)
C13_4 C 0.0403(6) 0.2704(5) 0.1271(7)
H23_4 H 0.0037 0.2852 0.0765
H24_4 H 0.0543 0.3190 0.1606
C14_4 C 0.1206(5) 0.2346(5) 0.0880(5)
C19_4 C 0.0274(6) 0.0183(5) 0.0373(7)
H31_4 H 0.0651 0.0569 0.0092
N6_4 N 0.1310(6) 0.0259(4) 0.2366(7)
O7_4 O 0.1213(4) 0.0383(4) 0.6932(4)
H14_4 H 0.0600 0.0518 0.8537
O19_4 O 0.8787(4) 0.9617(4) 0.3068(4)
H30_4 H 0.9400 0.9482 0.1463
Cu1_4 Cu 0.93722(6) 0.88606(6) 0.78768(7)
O4_4 O 0.8577(4) 0.8351(4) 0.8876(4)
O5_4 O 0.8418(4) 0.7230(4) 0.9686(5)
C1_4 C 0.9355(5) 0.7473(4) 0.6664(6)
C3_4 C 0.9597(6) 0.7296(5) 0.8729(7)
H7_4 H 0.9963 0.7148 0.9235
H8_4 H 0.9457 0.6810 0.8394
C4_4 C 0.8794(5) 0.7654(5) 0.9120(5)
C9_4 C 0.9726(6) 0.9817(5) 0.9627(7)
H15_4 H 0.9349 0.9431 0.9908
N3_4 N 0.8690(6) 0.9741(4) 0.7634(7)
O8_3 O 0.7341(5) 0.6059(3) 0.0462(6)
H1_3 H 0.7321 0.5726 0.0922
H2_3 H 0.7701 0.5950 0.0035
O9_3 O 0.7194(4) 0.6678(3) 0.2548(4)
H3_3 H 0.7592 0.6667 0.2944
H4_3 H 0.6936 0.6246 0.2423
O20_3 O 0.7659(5) 0.8941(3) 0.0462(6)
H17_3 H 0.7679 0.9274 0.0922
H18_3 H 0.7299 0.9050 0.0035
O21_3 O 0.7806(4) 0.8322(3) 0.2548(4)
H19_3 H 0.7408 0.8333 0.2944
H20_3 H 0.8064 0.8754 0.2423
O8_4 O 0.2659(5) 0.1059(3) 0.4538(6)
H1_4 H 0.2679 0.0726 0.4078
H2_4 H 0.2299 0.0950 0.4965
O9_4 O 0.2806(4) 0.1678(3) 0.2452(4)
H3_4 H 0.2408 0.1667 0.2056
H4_4 H 0.3064 0.1246 0.2577
O20_4 O 0.2341(5) 0.3941(3) 0.4538(6)
H17_4 H 0.2321 0.4274 0.4078
H18_4 H 0.2701 0.4050 0.4965
O21_4 O 0.2194(4) 0.3322(3) 0.2452(4)
H19_4 H 0.2592 0.3333 0.2056
H20_4 H 0.1936 0.3754 0.2577
H32_4 H 0.0614 0.9765 0.0649
C20_4 C 0.1571(16) 0.9740(11) 0.2729(19)
S2_4 S 0.2021(5) 0.8859(4) 0.3164(9)
O6_4 O 0.0343(5) 0.9343(4) 0.6996(5)
N1_4 N 0.0063(4) 0.7850(4) 0.8096(5)
N2_4 N 0.0220(5) 0.9408(4) 0.8885(5)
C2_4 C 0.0174(5) 0.7473(5) 0.7170(6)
H5_4 H 0.0373 0.6928 0.7242
H6_4 H 0.0590 0.7770 0.6820
C5_4 C 0.0858(5) 0.8103(5) 0.8509(6)
H9_4 H 0.1217 0.8333 0.8038
H10_4 H 0.1144 0.7641 0.8767
C6_4 C 0.0703(6) 0.8711(5) 0.9254(6)
H11_4 H 0.0390 0.8464 0.9753
H12_4 H 0.1236 0.8896 0.9499
C7_4 C 0.0774(6) 0.9976(6) 0.8390(7)
H13_4 H 0.1344 0.9908 0.8613
C8_4 C 0.0771(6) 0.9875(5) 0.7359(7)
O18_4 O 0.9657(5) 0.0657(4) 0.3004(5)
N4_4 N 0.9937(4) 0.2150(4) 0.1904(5)
N5_4 N 0.9780(5) 0.0592(4) 0.1115(5)
C12_4 C 0.9826(5) 0.2527(5) 0.2830(6)
H21_4 H 0.9627 0.3072 0.2758
H22_4 H 0.9410 0.2230 0.3180
C15_4 C 0.9142(5) 0.1897(5) 0.1491(6)
H25_4 H 0.8783 0.1667 0.1962
H26_4 H 0.8856 0.2359 0.1233
C16_4 C 0.9297(6) 0.1289(5) 0.0746(6)
H27_4 H 0.9610 0.1536 0.0247
H28_4 H 0.8764 0.1104 0.0501
C17_4 C 0.9226(6) 0.0024(6) 0.1610(7)
H29_4 H 0.8656 0.0092 0.1387
C18_4 C 0.9229(6) 0.0125(5) 0.2641(7)
H16_4 H 0.9386 0.0235 0.9351
C10_4 C 0.8429(16) 0.0260(11) 0.7271(19)
S1_4 S 0.7979(5) 0.1141(4) 0.6836(9)
O22 O 0.1190(10) 0.4722(9) 0.0061(11)
H33 H 0.181406 0.4722 0.0061
H34 H 0.0981981 0.520782 0.97383
H35 H 0.0981981 0.423618 0.97383
O22_2 O 0.3810(10) 0.0278(9) 0.0061(11)
H33_2 H 0.318594 0.0278 0.0061
H35_2 H 0.401802 0.0763818 0.97383
H34_2 H 0.401802 0.979218 0.97383
H34_3 H 0.901802 0.0207818 0.52617
O22_3 O 0.8810(10) 0.9722(9) 0.4939(11)
H33_3 H 0.818594 0.9722 0.4939
H35_3 H 0.901802 0.923618 0.52617
O22_4 O 0.6190(10) 0.5278(9) 0.4939(11)
H34_4 H 0.901802 0.479218 0.0261697
H35_4 H 0.901802 0.576382 0.0261697
O22_5 O 0.8810(10) 0.5278(9) 0.9939(11)
H33_4 H 0.818594 0.5278 0.9939
H34_5 H 0.598198 0.0207818 0.0261697
H35_5 H 0.598198 0.923618 0.0261697
O22_6 O 0.6190(10) 0.9722(9) 0.9939(11)
H33_5 H 0.681406 0.9722 0.9939
O22_7 O 0.1190(10) 0.0278(9) 0.5061(11)
H33_6 H 0.181406 0.0278 0.5061
H35_6 H 0.0981981 0.0763818 0.47383
H34_6 H 0.0981981 0.979218 0.47383
O22_8 O 0.3810(10) 0.4722(9) 0.5061(11)
loop_
_geom_bond_atom_site_label_1
_geom_bond_atom_site_label_2
_geom_bond_site_symmetry_1
_geom_bond_site_symmetry_2
O1 H36 1_555 1_555
O1_2 H36_2 1_555 1_555
O1_5 H36_3 1_555 1_555
O1_6 H36_4 1_555 1_555
La1 O2 1_555 1_555
Cu1 O2 1_555 1_555
O2 C1 1_555 1_555
O3 La1 1_555 1_555
O4 Cu1 1_555 1_555
O5 C4 1_555 1_555
O6 Cu1 1_555 1_555
O8 La1 1_555 1_555
H1 O8 1_555 1_555
H2 O8 1_555 1_555
O9 La1 1_555 1_555
H3 O9 1_555 1_555
H4 O9 1_555 1_555
N1 Cu1 1_555 1_555
N2 Cu1 1_555 1_555
C1 O3 1_555 1_555
C2 N1 1_555 1_555
H5 C2 1_555 1_555
H6 C2 1_555 1_555
C3 N1 1_555 1_555
H7 C3 1_555 1_555
H8 C3 1_555 1_555
C4 O4 1_555 1_555
C5 N1 1_555 1_555
H9 C5 1_555 1_555
H10 C5 1_555 1_555
C6 N2 1_555 1_555
H11 C6 1_555 1_555
H12 C6 1_555 1_555
C7 N2 1_555 1_555
H13 C7 1_555 1_555
C8 O6 1_555 1_555
C9 N2 1_555 1_555
H15 C9 1_555 1_555
N3 Cu1 1_555 1_555
La2 O5 1_555 1_555
O11 La1 1_555 1_555
O13 La1 1_555 1_555
O20 La1 1_555 1_555
H17 O20 1_555 1_555
H18 O20 1_555 1_555
O21 La1 1_555 1_555
H19 O21 1_555 1_555
H20 O21 1_555 1_555
S2 C20 1_555 1_555
C1 C2 1_555 1_555
C3 C4 1_555 1_555
C5 C6 1_555 1_555
C7 C8 1_555 1_555
S1 C10 1_555 1_555
La3 O10 1_555 1_555
La4 O15 1_555 1_555
Cu2 O10 1_555 1_555
O10 C11 1_555 1_555
O12 La3 1_555 1_555
O14 Cu2 1_555 1_555
O15 C14 1_555 1_555
O18 Cu2 1_555 1_555
N4 Cu2 1_555 1_555
N5 Cu2 1_555 1_555
C11 O12 1_555 1_555
C12 N4 1_555 1_555
H21 C12 1_555 1_555
H22 C12 1_555 1_555
C13 N4 1_555 1_555
H23 C13 1_555 1_555
H24 C13 1_555 1_555
C14 O14 1_555 1_555
C15 N4 1_555 1_555
H25 C15 1_555 1_555
H26 C15 1_555 1_555
C16 N5 1_555 1_555
H27 C16 1_555 1_555
H28 C16 1_555 1_555
C17 N5 1_555 1_555
H29 C17 1_555 1_555
C18 O18 1_555 1_555
H31 C19 1_555 1_555
N6 Cu2 1_555 1_555
N5 C19 1_555 1_555
C11 C12 1_555 1_555
C13 C14 1_555 1_555
C15 C16 1_555 1_555
C17 C18 1_555 1_555
Cu1_2 O11 1_555 1_555
O11 C1_2 1_555 1_555
O4_2 Cu1_2 1_555 1_555
O5_2 C4_2 1_555 1_555
C1_2 O13 1_555 1_555
H7_2 C3_2 1_555 1_555
H8_2 C3_2 1_555 1_555
C4_2 O4_2 1_555 1_555
H15_2 C9_2 1_555 1_555
H16_2 C9_2 1_555 1_555
N3_2 Cu1_2 1_555 1_555
C10_2 N3_2 1_555 1_555
S1_2 C10_2 1_555 1_555
La2 O5_2 1_555 1_555
O19_2 C18_2 1_555 1_555
C12_2 N4_2 1_555 1_555
H21_2 C12_2 1_555 1_555
H22_2 C12_2 1_555 1_555
C15_2 N4_2 1_555 1_555
H25_2 C15_2 1_555 1_555
H26_2 C15_2 1_555 1_555
C16_2 N5_2 1_555 1_555
H27_2 C16_2 1_555 1_555
H28_2 C16_2 1_555 1_555
C17_2 N5_2 1_555 1_555
H29_2 C17_2 1_555 1_555
H30_2 C17_2 1_555 1_555
C18_2 O18_2 1_555 1_555
C3_2 C4_2 1_555 1_555
C15_2 C16_2 1_555 1_555
C17_2 C18_2 1_555 1_555
O7_2 C8_2 1_555 1_555
C2_2 N1_2 1_555 1_555
H5_2 C2_2 1_555 1_555
H6_2 C2_2 1_555 1_555
C5_2 N1_2 1_555 1_555
H9_2 C5_2 1_555 1_555
H10_2 C5_2 1_555 1_555
C6_2 N2_2 1_555 1_555
H11_2 C6_2 1_555 1_555
H12_2 C6_2 1_555 1_555
C7_2 N2_2 1_555 1_555
H13_2 C7_2 1_555 1_555
H14_2 C7_2 1_555 1_555
C8_2 O6_2 1_555 1_555
La3 O10_2 1_555 1_555
La4 O15_2 1_555 1_555
Cu2_2 O10_2 1_555 1_555
O10_2 C11_2 1_555 1_555
O12_2 La3 1_555 1_555
O14_2 Cu2_2 1_555 1_555
O15_2 C14_2 1_555 1_555
C11_2 O12_2 1_555 1_555
H23_2 C13_2 1_555 1_555
H24_2 C13_2 1_555 1_555
C14_2 O14_2 1_555 1_555
H31_2 C19_2 1_555 1_555
H32_2 C19_2 1_555 1_555
N6_2 Cu2_2 1_555 1_555
C20_2 N6_2 1_555 1_555
S2_2 C20_2 1_555 1_555
C5_2 C6_2 1_555 1_555
C7_2 C8_2 1_555 1_555
C13_2 C14_2 1_555 1_555
La2 O10_3 1_555 1_555
Cu2_3 O10_3 1_555 1_555
O10_3 C11_3 1_555 1_555
O12_3 La2 1_555 1_555
O14_3 Cu2_3 1_555 1_555
O16 C14_3 1_555 1_555
O18_3 Cu2_3 1_555 1_555
O19_3 C18_3 1_555 1_555
N4_3 Cu2_3 1_555 1_555
N5_3 Cu2_3 1_555 1_555
C11_3 O12_3 1_555 1_555
C12_3 N4_3 1_555 1_555
H21_3 C12_3 1_555 1_555
H22_3 C12_3 1_555 1_555
C13_3 N4_3 1_555 1_555
H23_3 C13_3 1_555 1_555
H24_3 C13_3 1_555 1_555
C14_3 O14_3 1_555 1_555
C15_3 N4_3 1_555 1_555
H25_3 C15_3 1_555 1_555
H26_3 C15_3 1_555 1_555
C16_3 N5_3 1_555 1_555
H27_3 C16_3 1_555 1_555
H28_3 C16_3 1_555 1_555
C17_3 N5_3 1_555 1_555
H29_3 C17_3 1_555 1_555
H30_3 C17_3 1_555 1_555
C18_3 O18_3 1_555 1_555
H31_3 C19_3 1_555 1_555
H32_3 C19_3 1_555 1_555
N6_3 Cu2_3 1_555 1_555
C20_3 N6_3 1_555 1_555
S2_3 C20_3 1_555 1_555
N5_3 C19_3 1_555 1_555
C11_3 C12_3 1_555 1_555
C13_3 C14_3 1_555 1_555
C15_3 C16_3 1_555 1_555
C17_3 C18_3 1_555 1_555
La4 O2_2 1_555 1_555
Cu1_3 O2_2 1_555 1_555
O2_2 C1_3 1_555 1_555
O3_2 La4 1_555 1_555
O4_3 Cu1_3 1_555 1_555
O5_3 C4_3 1_555 1_555
O6_3 Cu1_3 1_555 1_555
O7_3 C8_3 1_555 1_555
O8_2 La4 1_555 1_555
H1_2 O8_2 1_555 1_555
H2_2 O8_2 1_555 1_555
O9_2 La4 1_555 1_555
H3_2 O9_2 1_555 1_555
H4_2 O9_2 1_555 1_555
N1_3 Cu1_3 1_555 1_555
N2_3 Cu1_3 1_555 1_555
C1_3 O3_2 1_555 1_555
C2_3 N1_3 1_555 1_555
H5_3 C2_3 1_555 1_555
H6_3 C2_3 1_555 1_555
C3_3 N1_3 1_555 1_555
H7_3 C3_3 1_555 1_555
H8_3 C3_3 1_555 1_555
C4_3 O4_3 1_555 1_555
C5_3 N1_3 1_555 1_555
H9_3 C5_3 1_555 1_555
H10_3 C5_3 1_555 1_555
C6_3 N2_3 1_555 1_555
H11_3 C6_3 1_555 1_555
H12_3 C6_3 1_555 1_555
C7_3 N2_3 1_555 1_555
H13_3 C7_3 1_555 1_555
H14_3 C7_3 1_555 1_555
C8_3 O6_3 1_555 1_555
C9_3 N2_3 1_555 1_555
H15_3 C9_3 1_555 1_555
H16_3 C9_3 1_555 1_555
N3_3 Cu1_3 1_555 1_555
C10_3 N3_3 1_555 1_555
S1_3 C10_3 1_555 1_555
O11_2 La4 1_555 1_555
O13_2 La4 1_555 1_555
O20_2 La4 1_555 1_555
H17_2 O20_2 1_555 1_555
H18_2 O20_2 1_555 1_555
O21_2 La4 1_555 1_555
H19_2 O21_2 1_555 1_555
H20_2 O21_2 1_555 1_555
C1_3 C2_3 1_555 1_555
C3_3 C4_3 1_555 1_555
C5_3 C6_3 1_555 1_555
C7_3 C8_3 1_555 1_555
La2 O10_4 1_555 1_555
Cu2_4 O10_4 1_555 1_555
O10_4 C11_4 1_555 1_555
O12_4 La2 1_555 1_555
O14_4 Cu2_4 1_555 1_555
O17 C14_4 1_555 1_555
C11_4 O12_4 1_555 1_555
H23_4 C13_4 1_555 1_555
H24_4 C13_4 1_555 1_555
C14_4 O14_4 1_555 1_555
H31_4 C19_4 1_555 1_555
N6_4 Cu2_4 1_555 1_555
C13_4 C14_4 1_555 1_555
Cu1_4 O11_2 1_555 1_555
O11_2 C1_4 1_555 1_555
O4_4 Cu1_4 1_555 1_555
O5_4 C4_4 1_555 1_555
C1_4 O13_2 1_555 1_555
H7_4 C3_4 1_555 1_555
H8_4 C3_4 1_555 1_555
C4_4 O4_4 1_555 1_555
H15_4 C9_4 1_555 1_555
N3_4 Cu1_4 1_555 1_555
C3_4 C4_4 1_555 1_555
O8_3 La3 1_555 1_555
H1_3 O8_3 1_555 1_555
H2_3 O8_3 1_555 1_555
O9_3 La3 1_555 1_555
H3_3 O9_3 1_555 1_555
H4_3 O9_3 1_555 1_555
O20_3 La3 1_555 1_555
H17_3 O20_3 1_555 1_555
H18_3 O20_3 1_555 1_555
O21_3 La3 1_555 1_555
H19_3 O21_3 1_555 1_555
H20_3 O21_3 1_555 1_555
O8_4 La2 1_555 1_555
H1_4 O8_4 1_555 1_555
H2_4 O8_4 1_555 1_555
O9_4 La2 1_555 1_555
H3_4 O9_4 1_555 1_555
H4_4 O9_4 1_555 1_555
O20_4 La2 1_555 1_555
H17_4 O20_4 1_555 1_555
H18_4 O20_4 1_555 1_555
O21_4 La2 1_555 1_555
H19_4 O21_4 1_555 1_555
H20_4 O21_4 1_555 1_555
S2_4 C20_4 1_555 1_555
C2_4 N1_4 1_555 1_555
H5_4 C2_4 1_555 1_555
H6_4 C2_4 1_555 1_555
C5_4 N1_4 1_555 1_555
H9_4 C5_4 1_555 1_555
H10_4 C5_4 1_555 1_555
C6_4 N2_4 1_555 1_555
H11_4 C6_4 1_555 1_555
H12_4 C6_4 1_555 1_555
C7_4 N2_4 1_555 1_555
H13_4 C7_4 1_555 1_555
C8_4 O6_4 1_555 1_555
C5_4 C6_4 1_555 1_555
C7_4 C8_4 1_555 1_555
C12_4 N4_4 1_555 1_555
H21_4 C12_4 1_555 1_555
H22_4 C12_4 1_555 1_555
C15_4 N4_4 1_555 1_555
H25_4 C15_4 1_555 1_555
H26_4 C15_4 1_555 1_555
C16_4 N5_4 1_555 1_555
H27_4 C16_4 1_555 1_555
H28_4 C16_4 1_555 1_555
C17_4 N5_4 1_555 1_555
H29_4 C17_4 1_555 1_555
C18_4 O18_4 1_555 1_555
C15_4 C16_4 1_555 1_555
C17_4 C18_4 1_555 1_555
S1_4 C10_4 1_555 1_555
O22 H33 1_555 1_555
O22_2 H33_2 1_555 1_555
O22_3 H33_3 1_555 1_555
O22_3 H35_3 1_555 1_555
O22_5 H33_4 1_555 1_555
O22_6 H33_5 1_555 1_555
O22_7 H33_6 1_555 1_555
O22_7 H35_6 1_555 1_555

#END
