
###############################################################################
#
# This file contains modified crystal structure data generated from the
# MOF subset of the Cambridge Structural Database (CSD) v543 
# hosted by the Cambridge Crystallographic Data Centre (CCDC).
#
# This work is licensed under the Creative Commons
# Attribution-NonCommercial-ShareAlike 4.0 International License.
# To view a copy of this license, visit
# http://creativecommons.org/licenses/by-nc-sa/4.0/
# or send a letter to
# Creative Commons, PO Box 1866, Mountain View, CA 94042, USA.
#
# CIF created using the CSD Python API on 29 September 2022
# The structure has been converted into the P1 space group
# The structure has a 3D framework
# The original CSD entry CIQHIW is in the orthorhombic crystal system
# The framework has been calculated to contain at least 10.0% void space
# The void calculation uses a probe of radius 1.32A, grid spacing 0.4
#
###############################################################################

data_CIQHIW
_chemical_formula_moiety         '(C192 H96 Cd8 N32 O64)n'
_symmetry_cell_setting           triclinic
_symmetry_space_group_name_H-M   'P 1'
_symmetry_Int_Tables_number      1
_space_group_name_Hall           'P 1'
loop_
_symmetry_equiv_pos_site_id
_symmetry_equiv_pos_as_xyz
1 x,y,z
_cell_length_a                   17.4483(5)
_cell_length_b                   19.4148(6)
_cell_length_c                   23.8529(7)
_cell_angle_alpha                90
_cell_angle_beta                 90
_cell_angle_gamma                90
_cell_volume                     8080.3
loop_
_atom_site_label
_atom_site_type_symbol
_atom_site_fract_x
_atom_site_fract_y
_atom_site_fract_z
Cd1 Cd 0.27339(2) 0.3750 0.3750
O1 O 0.41520(14) 0.45050(14) 0.44197(10)
N1 N 0.41007(15) 0.58234(15) 0.58014(11)
O2 O 0.28736(14) 0.45603(15) 0.43685(11)
C1 C 0.41172(19) 0.54186(19) 0.53490(14)
H1 H 0.4593 0.5280 0.5214
C2 C 0.3469(2) 0.5192(2) 0.50686(16)
C3 C 0.2768(3) 0.5422(3) 0.5271(2)
H2 H 0.2316 0.5286 0.5096
C4 C 0.2744(3) 0.5846(3) 0.5726(3)
H3 H 0.2276 0.6010 0.5858
C5 C 0.3421(2) 0.6031(3) 0.59912(19)
C6 C 0.3512(2) 0.47130(19) 0.45757(14)
O3 O 0.41520(14) 0.79950(14) 0.80803(10)
N2 N 0.41007(15) 0.66766(15) 0.66986(11)
O4 O 0.28736(14) 0.79397(15) 0.81315(11)
C7 C 0.41172(19) 0.70814(19) 0.71510(14)
H4 H 0.4593 0.7220 0.7286
C8 C 0.3469(2) 0.7308(2) 0.74314(16)
C9 C 0.2768(3) 0.7078(3) 0.7229(2)
H5 H 0.2316 0.7214 0.7404
C10 C 0.2744(3) 0.6654(3) 0.6774(3)
H6 H 0.2276 0.6490 0.6642
C11 C 0.3421(2) 0.6469(3) 0.65088(19)
C12 C 0.3512(2) 0.77870(19) 0.79243(14)
Cd2 Cd 0.47661(2) 0.3750 0.3750
Cd3 Cd 0.27339(2) 0.8750 0.8750
Cd4 Cd 0.47661(2) 0.8750 0.8750
Cd5 Cd 0.52339(2) 0.6250 0.6250
O5 O 0.33480(14) 0.29950(14) 0.44197(10)
O6 O 0.33480(14) 0.45050(14) 0.30803(10)
N3 N 0.16007(15) 0.41766(15) 0.33014(11)
N4 N 0.16007(15) 0.33234(15) 0.41986(11)
O7 O 0.28736(14) 0.29397(15) 0.31315(11)
N1_2 N 0.33993(15) 0.16766(15) 0.58014(11)
O2_2 O 0.46264(14) 0.29397(15) 0.43685(11)
C1_2 C 0.33828(19) 0.20814(19) 0.53490(14)
H1_2 H 0.2907 0.2220 0.5214
C2_2 C 0.4031(2) 0.2308(2) 0.50686(16)
C3_2 C 0.4732(3) 0.2078(3) 0.5271(2)
H2_2 H 0.5184 0.2214 0.5096
C4_2 C 0.4756(3) 0.1654(3) 0.5726(3)
H3_2 H 0.5224 0.1490 0.5858
C5_2 C 0.4079(2) 0.1469(3) 0.59912(19)
C6_2 C 0.3988(2) 0.27870(19) 0.45757(14)
N2_2 N 0.33993(15) 0.08234(15) 0.66986(11)
C7_2 C 0.33828(19) 0.04186(19) 0.71510(14)
H4_2 H 0.2907 0.0280 0.7286
C8_2 C 0.4031(2) 0.0192(2) 0.74314(16)
C9_2 C 0.4732(3) 0.0422(3) 0.7229(2)
H5_2 H 0.5184 0.0286 0.7404
C10_2 C 0.4756(3) 0.0846(3) 0.6774(3)
H6_2 H 0.5224 0.1010 0.6642
C11_2 C 0.4079(2) 0.1031(3) 0.65088(19)
Cd5_2 Cd 0.22661(2) 0.1250 0.6250
O6_2 O 0.41520(14) 0.29950(14) 0.30803(10)
N3_2 N 0.58993(15) 0.33234(15) 0.33014(11)
N4_2 N 0.58993(15) 0.41766(15) 0.41986(11)
O7_2 O 0.46264(14) 0.45603(15) 0.31315(11)
O3_2 O 0.33480(14) 0.95050(14) 0.80803(10)
O4_2 O 0.46264(14) 0.95603(15) 0.81315(11)
C12_2 C 0.3988(2) 0.97130(19) 0.79243(14)
N1_3 N 0.33993(15) 0.58234(15) 0.16986(11)
C1_3 C 0.33828(19) 0.54186(19) 0.21510(14)
H1_3 H 0.2907 0.5280 0.2286
C2_3 C 0.4031(2) 0.5192(2) 0.24314(16)
C3_3 C 0.4732(3) 0.5422(3) 0.2229(2)
H2_3 H 0.5184 0.5286 0.2404
C4_3 C 0.4756(3) 0.5846(3) 0.1774(3)
H3_3 H 0.5224 0.6010 0.1642
C5_3 C 0.4079(2) 0.6031(3) 0.15088(19)
C6_3 C 0.3988(2) 0.47130(19) 0.29243(14)
N2_3 N 0.33993(15) 0.66766(15) 0.08014(11)
C7_3 C 0.33828(19) 0.70814(19) 0.03490(14)
H4_3 H 0.2907 0.7220 0.0214
C8_3 C 0.4031(2) 0.7308(2) 0.00686(16)
C9_3 C 0.4732(3) 0.7078(3) 0.0271(2)
H5_3 H 0.5184 0.7214 0.0096
C10_3 C 0.4756(3) 0.6654(3) 0.0726(3)
H6_3 H 0.5224 0.6490 0.0858
C11_3 C 0.4079(2) 0.6469(3) 0.09912(19)
Cd5_3 Cd 0.22661(2) 0.6250 0.1250
O3_3 O 0.33480(14) 0.79950(14) 0.94197(10)
O4_3 O 0.46264(14) 0.79397(15) 0.93685(11)
C12_3 C 0.3988(2) 0.77870(19) 0.95757(14)
N1_4 N 0.41007(15) 0.16766(15) 0.16986(11)
C1_4 C 0.41172(19) 0.20814(19) 0.21510(14)
H1_4 H 0.4593 0.2220 0.2286
C2_4 C 0.3469(2) 0.2308(2) 0.24314(16)
C3_4 C 0.2768(3) 0.2078(3) 0.2229(2)
H2_4 H 0.2316 0.2214 0.2404
C4_4 C 0.2744(3) 0.1654(3) 0.1774(3)
H3_4 H 0.2276 0.1490 0.1642
C5_4 C 0.3421(2) 0.1469(3) 0.15088(19)
C6_4 C 0.3512(2) 0.27870(19) 0.29243(14)
N2_4 N 0.41007(15) 0.08234(15) 0.08014(11)
C7_4 C 0.41172(19) 0.04186(19) 0.03490(14)
H4_4 H 0.4593 0.0280 0.0214
C8_4 C 0.3469(2) 0.0192(2) 0.00686(16)
C9_4 C 0.2768(3) 0.0422(3) 0.0271(2)
H5_4 H 0.2316 0.0286 0.0096
C10_4 C 0.2744(3) 0.0846(3) 0.0726(3)
H6_4 H 0.2276 0.1010 0.0858
C11_4 C 0.3421(2) 0.1031(3) 0.09912(19)
Cd5_4 Cd 0.52339(2) 0.1250 0.1250
O3_4 O 0.41520(14) 0.95050(14) 0.94197(10)
O4_4 O 0.28736(14) 0.95603(15) 0.93685(11)
C12_4 C 0.3512(2) 0.97130(19) 0.95757(14)
N3_3 N 0.16007(15) 0.91766(15) 0.83014(11)
N4_3 N 0.16007(15) 0.83234(15) 0.91986(11)
N3_4 N 0.58993(15) 0.83234(15) 0.83014(11)
N4_4 N 0.58993(15) 0.91766(15) 0.91986(11)
Cd5_5 Cd 0.02339(2) 0.6250 0.1250
N1_5 N 0.91007(15) 0.58234(15) 0.08014(11)
C1_5 C 0.91172(19) 0.54186(19) 0.03490(14)
H1_5 H 0.9593 0.5280 0.0214
C2_5 C 0.8469(2) 0.5192(2) 0.00686(16)
C3_5 C 0.7768(3) 0.5422(3) 0.0271(2)
H2_5 H 0.7316 0.5286 0.0096
C4_5 C 0.7744(3) 0.5846(3) 0.0726(3)
H3_5 H 0.7276 0.6010 0.0858
C5_5 C 0.8421(2) 0.6031(3) 0.09912(19)
O3_5 O 0.91520(14) 0.79950(14) 0.30803(10)
N2_5 N 0.91007(15) 0.66766(15) 0.16986(11)
O4_5 O 0.78736(14) 0.79397(15) 0.31315(11)
C7_5 C 0.91172(19) 0.70814(19) 0.21510(14)
H4_5 H 0.9593 0.7220 0.2286
C8_5 C 0.8469(2) 0.7308(2) 0.24314(16)
C9_5 C 0.7768(3) 0.7078(3) 0.2229(2)
H5_5 H 0.7316 0.7214 0.2404
C10_5 C 0.7744(3) 0.6654(3) 0.1774(3)
H6_5 H 0.7276 0.6490 0.1642
C11_5 C 0.8421(2) 0.6469(3) 0.15088(19)
C12_5 C 0.8512(2) 0.77870(19) 0.29243(14)
Cd3_2 Cd 0.77339(2) 0.8750 0.3750
Cd4_2 Cd 0.97661(2) 0.8750 0.3750
Cd1_2 Cd 0.77339(2) 0.3750 0.8750
O1_2 O 0.91520(14) 0.45050(14) 0.94197(10)
O2_3 O 0.78736(14) 0.45603(15) 0.93685(11)
C6_5 C 0.8512(2) 0.47130(19) 0.95757(14)
Cd2_2 Cd 0.97661(2) 0.3750 0.8750
O5_2 O 0.83480(14) 0.29950(14) 0.94197(10)
O6_3 O 0.83480(14) 0.45050(14) 0.80803(10)
N3_5 N 0.66007(15) 0.41766(15) 0.83014(11)
N4_5 N 0.66007(15) 0.33234(15) 0.91986(11)
O7_3 O 0.78736(14) 0.29397(15) 0.81315(11)
N3_6 N 0.08993(15) 0.33234(15) 0.83014(11)
N4_6 N 0.08993(15) 0.41766(15) 0.91986(11)
N1_6 N 0.83993(15) 0.16766(15) 0.08014(11)
C1_6 C 0.83828(19) 0.20814(19) 0.03490(14)
H1_6 H 0.7907 0.2220 0.0214
C2_6 C 0.9031(2) 0.2308(2) 0.00686(16)
C3_6 C 0.9732(3) 0.2078(3) 0.0271(2)
C4_6 C 0.9756(3) 0.1654(3) 0.0726(3)
C5_6 C 0.9079(2) 0.1469(3) 0.09912(19)
N2_6 N 0.83993(15) 0.08234(15) 0.16986(11)
C7_6 C 0.83828(19) 0.04186(19) 0.21510(14)
H4_6 H 0.7907 0.0280 0.2286
C8_6 C 0.9031(2) 0.0192(2) 0.24314(16)
C9_6 C 0.9732(3) 0.0422(3) 0.2229(2)
C10_6 C 0.9756(3) 0.0846(3) 0.1774(3)
C11_6 C 0.9079(2) 0.1031(3) 0.15088(19)
Cd5_6 Cd 0.72661(2) 0.1250 0.1250
O2_4 O 0.96264(14) 0.29397(15) 0.93685(11)
C6_6 C 0.8988(2) 0.27870(19) 0.95757(14)
O6_4 O 0.91520(14) 0.29950(14) 0.80803(10)
O7_4 O 0.96264(14) 0.45603(15) 0.81315(11)
O3_6 O 0.83480(14) 0.95050(14) 0.30803(10)
O4_6 O 0.96264(14) 0.95603(15) 0.31315(11)
C12_6 C 0.8988(2) 0.97130(19) 0.29243(14)
H2_6 H 0.0184 0.5286 0.7404
H3_6 H 0.0224 0.6010 0.6642
H5_6 H 0.0184 0.7214 0.5096
H6_6 H 0.0224 0.6490 0.5858
N1_7 N 0.83993(15) 0.58234(15) 0.66986(11)
C1_7 C 0.83828(19) 0.54186(19) 0.71510(14)
H1_7 H 0.7907 0.5280 0.7286
C2_7 C 0.9031(2) 0.5192(2) 0.74314(16)
C3_7 C 0.9732(3) 0.5422(3) 0.7229(2)
C4_7 C 0.9756(3) 0.5846(3) 0.6774(3)
C5_7 C 0.9079(2) 0.6031(3) 0.65088(19)
C6_7 C 0.8988(2) 0.47130(19) 0.79243(14)
O3_7 O 0.83480(14) 0.79950(14) 0.44197(10)
N2_7 N 0.83993(15) 0.66766(15) 0.58014(11)
O4_7 O 0.96264(14) 0.79397(15) 0.43685(11)
C7_7 C 0.83828(19) 0.70814(19) 0.53490(14)
H4_7 H 0.7907 0.7220 0.5214
C8_7 C 0.9031(2) 0.7308(2) 0.50686(16)
C9_7 C 0.9732(3) 0.7078(3) 0.5271(2)
C10_7 C 0.9756(3) 0.6654(3) 0.5726(3)
C11_7 C 0.9079(2) 0.6469(3) 0.59912(19)
C12_7 C 0.8988(2) 0.77870(19) 0.45757(14)
Cd5_7 Cd 0.72661(2) 0.6250 0.6250
Cd5_8 Cd 0.02339(2) 0.1250 0.6250
N1_8 N 0.91007(15) 0.16766(15) 0.66986(11)
C1_8 C 0.91172(19) 0.20814(19) 0.71510(14)
H1_8 H 0.9593 0.2220 0.7286
C2_8 C 0.8469(2) 0.2308(2) 0.74314(16)
C3_8 C 0.7768(3) 0.2078(3) 0.7229(2)
H2_7 H 0.7316 0.2214 0.7404
C4_8 C 0.7744(3) 0.1654(3) 0.6774(3)
H3_7 H 0.7276 0.1490 0.6642
C5_8 C 0.8421(2) 0.1469(3) 0.65088(19)
C6_8 C 0.8512(2) 0.27870(19) 0.79243(14)
N2_8 N 0.91007(15) 0.08234(15) 0.58014(11)
C7_8 C 0.91172(19) 0.04186(19) 0.53490(14)
H4_8 H 0.9593 0.0280 0.5214
C8_8 C 0.8469(2) 0.0192(2) 0.50686(16)
C9_8 C 0.7768(3) 0.0422(3) 0.5271(2)
H5_7 H 0.7316 0.0286 0.5096
C10_8 C 0.7744(3) 0.0846(3) 0.5726(3)
H6_7 H 0.7276 0.1010 0.5858
C11_8 C 0.8421(2) 0.1031(3) 0.59912(19)
O3_8 O 0.91520(14) 0.95050(14) 0.44197(10)
O4_8 O 0.78736(14) 0.95603(15) 0.43685(11)
C12_8 C 0.8512(2) 0.97130(19) 0.45757(14)
N3_7 N 0.66007(15) 0.91766(15) 0.33014(11)
N4_7 N 0.66007(15) 0.83234(15) 0.41986(11)
N3_8 N 0.08993(15) 0.83234(15) 0.33014(11)
N4_8 N 0.08993(15) 0.91766(15) 0.41986(11)
O1_3 O 0.58480(14) 0.54950(14) 0.55803(10)
O2_5 O 0.71264(14) 0.54397(15) 0.56315(11)
C1_9 C 0.58828(19) 0.45814(19) 0.46510(14)
H1_9 H 0.5407 0.4720 0.4786
C2_9 C 0.6531(2) 0.4808(2) 0.49314(16)
C3_9 C 0.7232(3) 0.4578(3) 0.4729(2)
H2_8 H 0.7684 0.4714 0.4904
C4_9 C 0.7256(3) 0.4154(3) 0.4274(3)
H3_8 H 0.7724 0.3990 0.4142
C5_9 C 0.6579(2) 0.3969(3) 0.40088(19)
C6_9 C 0.6488(2) 0.52870(19) 0.54243(14)
O3_9 O 0.58480(14) 0.20050(14) 0.19197(10)
O4_9 O 0.71264(14) 0.20603(15) 0.18685(11)
C7_9 C 0.58828(19) 0.29186(19) 0.28490(14)
H4_9 H 0.5407 0.2780 0.2714
C8_9 C 0.6531(2) 0.2692(2) 0.25686(16)
C9_9 C 0.7232(3) 0.2922(3) 0.2771(2)
H5_8 H 0.7684 0.2786 0.2596
C10_9 C 0.7256(3) 0.3346(3) 0.3226(3)
H6_8 H 0.7724 0.3510 0.3358
C11_9 C 0.6579(2) 0.3531(3) 0.34912(19)
C12_9 C 0.6488(2) 0.22130(19) 0.20757(14)
O5_3 O 0.66520(14) 0.70050(14) 0.55803(10)
O6_5 O 0.66520(14) 0.54950(14) 0.69197(10)
O7_5 O 0.71264(14) 0.70603(15) 0.68685(11)
O3_10 O 0.66520(14) 0.04950(14) 0.19197(10)
O4_10 O 0.53736(14) 0.04397(15) 0.18685(11)
C12_10 C 0.6012(2) 0.02870(19) 0.20757(14)
O2_6 O 0.53736(14) 0.70603(15) 0.56315(11)
C1_10 C 0.66172(19) 0.79186(19) 0.46510(14)
H1_10 H 0.7093 0.7780 0.4786
C2_10 C 0.5969(2) 0.7692(2) 0.49314(16)
C3_10 C 0.5268(3) 0.7922(3) 0.4729(2)
H2_9 H 0.4816 0.7786 0.4904
C4_10 C 0.5244(3) 0.8346(3) 0.4274(3)
H3_9 H 0.4776 0.8510 0.4142
C5_10 C 0.5921(2) 0.8531(3) 0.40088(19)
C6_10 C 0.6012(2) 0.72130(19) 0.54243(14)
C7_10 C 0.66172(19) 0.95814(19) 0.28490(14)
H4_10 H 0.7093 0.9720 0.2714
C8_10 C 0.5969(2) 0.9808(2) 0.25686(16)
C9_10 C 0.5268(3) 0.9578(3) 0.2771(2)
H5_9 H 0.4816 0.9714 0.2596
C10_10 C 0.5244(3) 0.9154(3) 0.3226(3)
H6_9 H 0.4776 0.8990 0.3358
C11_10 C 0.5921(2) 0.8969(3) 0.34912(19)
O6_6 O 0.58480(14) 0.70050(14) 0.69197(10)
O7_6 O 0.53736(14) 0.54397(15) 0.68685(11)
O3_11 O 0.66520(14) 0.20050(14) 0.05803(10)
O4_11 O 0.53736(14) 0.20603(15) 0.06315(11)
C12_11 C 0.6012(2) 0.22130(19) 0.04243(14)
C1_11 C 0.66172(19) 0.45814(19) 0.78490(14)
H1_11 H 0.7093 0.4720 0.7714
C2_11 C 0.5969(2) 0.4808(2) 0.75686(16)
C3_11 C 0.5268(3) 0.4578(3) 0.7771(2)
H2_10 H 0.4816 0.4714 0.7596
C4_11 C 0.5244(3) 0.4154(3) 0.8226(3)
H3_10 H 0.4776 0.3990 0.8358
C5_11 C 0.5921(2) 0.3969(3) 0.84912(19)
C6_11 C 0.6012(2) 0.52870(19) 0.70757(14)
C7_11 C 0.66172(19) 0.29186(19) 0.96510(14)
H4_11 H 0.7093 0.2780 0.9786
C8_11 C 0.5969(2) 0.2692(2) 0.99314(16)
C9_11 C 0.5268(3) 0.2922(3) 0.9729(2)
H5_10 H 0.4816 0.2786 0.9904
C10_11 C 0.5244(3) 0.3346(3) 0.9274(3)
H6_10 H 0.4776 0.3510 0.9142
C11_11 C 0.5921(2) 0.3531(3) 0.90088(19)
O3_12 O 0.58480(14) 0.04950(14) 0.05803(10)
O4_12 O 0.71264(14) 0.04397(15) 0.06315(11)
C12_12 C 0.6488(2) 0.02870(19) 0.04243(14)
C1_12 C 0.58828(19) 0.79186(19) 0.78490(14)
H1_12 H 0.5407 0.7780 0.7714
C2_12 C 0.6531(2) 0.7692(2) 0.75686(16)
C3_12 C 0.7232(3) 0.7922(3) 0.7771(2)
H2_11 H 0.7684 0.7786 0.7596
C4_12 C 0.7256(3) 0.8346(3) 0.8226(3)
H3_11 H 0.7724 0.8510 0.8358
C5_12 C 0.6579(2) 0.8531(3) 0.84912(19)
C6_12 C 0.6488(2) 0.72130(19) 0.70757(14)
C7_12 C 0.58828(19) 0.95814(19) 0.96510(14)
H4_12 H 0.5407 0.9720 0.9786
C8_12 C 0.6531(2) 0.9808(2) 0.99314(16)
C9_12 C 0.7232(3) 0.9578(3) 0.9729(2)
H5_11 H 0.7684 0.9714 0.9904
C10_12 C 0.7256(3) 0.9154(3) 0.9274(3)
H6_11 H 0.7724 0.8990 0.9142
C11_12 C 0.6579(2) 0.8969(3) 0.90088(19)
O1_4 O 0.08480(14) 0.54950(14) 0.05803(10)
O2_7 O 0.21264(14) 0.54397(15) 0.06315(11)
C6_13 C 0.1488(2) 0.52870(19) 0.04243(14)
O5_4 O 0.16520(14) 0.70050(14) 0.05803(10)
O6_7 O 0.16520(14) 0.54950(14) 0.19197(10)
O7_7 O 0.21264(14) 0.70603(15) 0.18685(11)
C1_13 C 0.08828(19) 0.45814(19) 0.96510(14)
H1_13 H 0.0407 0.4720 0.9786
C2_13 C 0.1531(2) 0.4808(2) 0.99314(16)
C3_13 C 0.2232(3) 0.4578(3) 0.9729(2)
H2_12 H 0.2684 0.4714 0.9904
C4_13 C 0.2256(3) 0.4154(3) 0.9274(3)
H3_12 H 0.2724 0.3990 0.9142
C5_13 C 0.1579(2) 0.3969(3) 0.90088(19)
O3_13 O 0.08480(14) 0.20050(14) 0.69197(10)
O4_13 O 0.21264(14) 0.20603(15) 0.68685(11)
C7_13 C 0.08828(19) 0.29186(19) 0.78490(14)
H4_13 H 0.0407 0.2780 0.7714
C8_13 C 0.1531(2) 0.2692(2) 0.75686(16)
C9_13 C 0.2232(3) 0.2922(3) 0.7771(2)
H5_12 H 0.2684 0.2786 0.7596
C10_13 C 0.2256(3) 0.3346(3) 0.8226(3)
H6_12 H 0.2724 0.3510 0.8358
C11_13 C 0.1579(2) 0.3531(3) 0.84912(19)
C12_13 C 0.1488(2) 0.22130(19) 0.70757(14)
O3_14 O 0.16520(14) 0.04950(14) 0.69197(10)
O4_14 O 0.03736(14) 0.04397(15) 0.68685(11)
C12_14 C 0.1012(2) 0.02870(19) 0.70757(14)
O2_8 O 0.03736(14) 0.70603(15) 0.06315(11)
C6_14 C 0.1012(2) 0.72130(19) 0.04243(14)
O6_8 O 0.08480(14) 0.70050(14) 0.19197(10)
O7_8 O 0.03736(14) 0.54397(15) 0.18685(11)
C1_14 C 0.16172(19) 0.79186(19) 0.96510(14)
H1_14 H 0.2093 0.7780 0.9786
C2_14 C 0.0969(2) 0.7692(2) 0.99314(16)
C3_14 C 0.0268(3) 0.7922(3) 0.9729(2)
C4_14 C 0.0244(3) 0.8346(3) 0.9274(3)
C5_14 C 0.0921(2) 0.8531(3) 0.90088(19)
C7_14 C 0.16172(19) 0.95814(19) 0.78490(14)
H4_14 H 0.2093 0.9720 0.7714
C8_14 C 0.0969(2) 0.9808(2) 0.75686(16)
C9_14 C 0.0268(3) 0.9578(3) 0.7771(2)
C10_14 C 0.0244(3) 0.9154(3) 0.8226(3)
C11_14 C 0.0921(2) 0.8969(3) 0.84912(19)
C1_15 C 0.16172(19) 0.45814(19) 0.28490(14)
H1_15 H 0.2093 0.4720 0.2714
C2_15 C 0.0969(2) 0.4808(2) 0.25686(16)
C3_15 C 0.0268(3) 0.4578(3) 0.2771(2)
C4_15 C 0.0244(3) 0.4154(3) 0.3226(3)
C5_15 C 0.0921(2) 0.3969(3) 0.34912(19)
C6_15 C 0.1012(2) 0.52870(19) 0.20757(14)
O3_15 O 0.16520(14) 0.20050(14) 0.55803(10)
O4_15 O 0.03736(14) 0.20603(15) 0.56315(11)
C7_15 C 0.16172(19) 0.29186(19) 0.46510(14)
H4_15 H 0.2093 0.2780 0.4786
C8_15 C 0.0969(2) 0.2692(2) 0.49314(16)
C9_15 C 0.0268(3) 0.2922(3) 0.4729(2)
C10_15 C 0.0244(3) 0.3346(3) 0.4274(3)
C11_15 C 0.0921(2) 0.3531(3) 0.40088(19)
C12_15 C 0.1012(2) 0.22130(19) 0.54243(14)
H2_13 H 0.9816 0.4714 0.2596
H3_13 H 0.9776 0.3990 0.3358
H5_13 H 0.9816 0.2786 0.4904
H6_13 H 0.9776 0.3510 0.4142
O3_16 O 0.08480(14) 0.04950(14) 0.55803(10)
O4_16 O 0.21264(14) 0.04397(15) 0.56315(11)
C12_16 C 0.1488(2) 0.02870(19) 0.54243(14)
C1_16 C 0.08828(19) 0.79186(19) 0.28490(14)
H1_16 H 0.0407 0.7780 0.2714
C2_16 C 0.1531(2) 0.7692(2) 0.25686(16)
C3_16 C 0.2232(3) 0.7922(3) 0.2771(2)
H2_14 H 0.2684 0.7786 0.2596
C4_16 C 0.2256(3) 0.8346(3) 0.3226(3)
H3_14 H 0.2724 0.8510 0.3358
C5_16 C 0.1579(2) 0.8531(3) 0.34912(19)
C6_16 C 0.1488(2) 0.72130(19) 0.20757(14)
C7_16 C 0.08828(19) 0.95814(19) 0.46510(14)
H4_16 H 0.0407 0.9720 0.4786
C8_16 C 0.1531(2) 0.9808(2) 0.49314(16)
C9_16 C 0.2232(3) 0.9578(3) 0.4729(2)
H5_14 H 0.2684 0.9714 0.4904
C10_16 C 0.2256(3) 0.9154(3) 0.4274(3)
H6_14 H 0.2724 0.8990 0.4142
C11_16 C 0.1579(2) 0.8969(3) 0.40088(19)
H2_15 H 0.0184 0.2214 0.0096
H3_15 H 0.0224 0.1490 0.0858
H5_15 H 0.0184 0.0286 0.2404
H6_15 H 0.0224 0.1010 0.1642
H2_16 H 0.9816 0.7786 0.9904
H3_16 H 0.9776 0.8510 0.9142
H5_16 H 0.9816 0.9714 0.7596
H6_16 H 0.9776 0.8990 0.8358
loop_
_geom_bond_atom_site_label_1
_geom_bond_atom_site_label_2
_geom_bond_site_symmetry_1
_geom_bond_site_symmetry_2
Cd1 O2 1_555 1_555
O1 C6 1_555 1_555
N1 C1 1_555 1_555
O2 C6 1_555 1_555
C1 H1 1_555 1_555
C2 C1 1_555 1_555
C3 C2 1_555 1_555
H2 C3 1_555 1_555
C4 C3 1_555 1_555
H3 C4 1_555 1_555
C5 N1 1_555 1_555
C6 C2 1_555 1_555
O3 C12 1_555 1_555
N2 C7 1_555 1_555
O4 C12 1_555 1_555
C7 H4 1_555 1_555
C8 C7 1_555 1_555
C9 C8 1_555 1_555
H5 C9 1_555 1_555
C10 C9 1_555 1_555
H6 C10 1_555 1_555
C11 C5 1_555 1_555
C12 C8 1_555 1_555
Cd2 O1 1_555 1_555
Cd3 O4 1_555 1_555
Cd4 O3 1_555 1_555
Cd5 N1 1_555 1_555
O5 Cd1 1_555 1_555
O6 Cd1 1_555 1_555
N3 Cd1 1_555 1_555
N4 Cd1 1_555 1_555
O7 Cd1 1_555 1_555
C4 C5 1_555 1_555
N2 C11 1_555 1_555
N2 Cd5 1_555 1_555
C10 C11 1_555 1_555
Cd2 O2_2 1_555 1_555
O5 C6_2 1_555 1_555
N1_2 C1_2 1_555 1_555
O2_2 C6_2 1_555 1_555
C1_2 H1_2 1_555 1_555
C2_2 C1_2 1_555 1_555
C3_2 C2_2 1_555 1_555
H2_2 C3_2 1_555 1_555
C4_2 C3_2 1_555 1_555
H3_2 C4_2 1_555 1_555
C5_2 N1_2 1_555 1_555
C6_2 C2_2 1_555 1_555
N2_2 C7_2 1_555 1_555
C7_2 H4_2 1_555 1_555
C8_2 C7_2 1_555 1_555
C9_2 C8_2 1_555 1_555
H5_2 C9_2 1_555 1_555
C10_2 C9_2 1_555 1_555
H6_2 C10_2 1_555 1_555
C11_2 C5_2 1_555 1_555
Cd5_2 N1_2 1_555 1_555
O6_2 Cd2 1_555 1_555
N3_2 Cd2 1_555 1_555
N4_2 Cd2 1_555 1_555
O7_2 Cd2 1_555 1_555
C4_2 C5_2 1_555 1_555
N2_2 C11_2 1_555 1_555
N2_2 Cd5_2 1_555 1_555
C10_2 C11_2 1_555 1_555
O3_2 C12_2 1_555 1_555
O4_2 C12_2 1_555 1_555
Cd4 O4_2 1_555 1_555
Cd3 O3_2 1_555 1_555
O6 C6_3 1_555 1_555
N1_3 C1_3 1_555 1_555
O7_2 C6_3 1_555 1_555
C1_3 H1_3 1_555 1_555
C2_3 C1_3 1_555 1_555
C3_3 C2_3 1_555 1_555
H2_3 C3_3 1_555 1_555
C4_3 C3_3 1_555 1_555
H3_3 C4_3 1_555 1_555
C5_3 N1_3 1_555 1_555
C6_3 C2_3 1_555 1_555
N2_3 C7_3 1_555 1_555
C7_3 H4_3 1_555 1_555
C8_3 C7_3 1_555 1_555
C9_3 C8_3 1_555 1_555
H5_3 C9_3 1_555 1_555
C10_3 C9_3 1_555 1_555
H6_3 C10_3 1_555 1_555
C11_3 C5_3 1_555 1_555
Cd5_3 N1_3 1_555 1_555
C4_3 C5_3 1_555 1_555
N2_3 C11_3 1_555 1_555
N2_3 Cd5_3 1_555 1_555
C10_3 C11_3 1_555 1_555
O3_3 C12_3 1_555 1_555
O4_3 C12_3 1_555 1_555
Cd4 O4_3 1_555 1_555
Cd3 O3_3 1_555 1_555
O6_2 C6_4 1_555 1_555
N1_4 C1_4 1_555 1_555
O7 C6_4 1_555 1_555
C1_4 H1_4 1_555 1_555
C2_4 C1_4 1_555 1_555
C3_4 C2_4 1_555 1_555
H2_4 C3_4 1_555 1_555
C4_4 C3_4 1_555 1_555
H3_4 C4_4 1_555 1_555
C5_4 N1_4 1_555 1_555
C6_4 C2_4 1_555 1_555
N2_4 C7_4 1_555 1_555
C7_4 H4_4 1_555 1_555
C8_4 C7_4 1_555 1_555
C9_4 C8_4 1_555 1_555
H5_4 C9_4 1_555 1_555
C10_4 C9_4 1_555 1_555
H6_4 C10_4 1_555 1_555
C11_4 C5_4 1_555 1_555
Cd5_4 N1_4 1_555 1_555
C4_4 C5_4 1_555 1_555
N2_4 C11_4 1_555 1_555
N2_4 Cd5_4 1_555 1_555
C10_4 C11_4 1_555 1_555
O3_4 C12_4 1_555 1_555
O4_4 C12_4 1_555 1_555
Cd3 O4_4 1_555 1_555
Cd4 O3_4 1_555 1_555
N3_3 Cd3 1_555 1_555
N4_3 Cd3 1_555 1_555
N3_4 Cd4 1_555 1_555
N4_4 Cd4 1_555 1_555
N1_5 C1_5 1_555 1_555
C1_5 H1_5 1_555 1_555
C2_5 C1_5 1_555 1_555
C3_5 C2_5 1_555 1_555
H2_5 C3_5 1_555 1_555
C4_5 C3_5 1_555 1_555
H3_5 C4_5 1_555 1_555
C5_5 N1_5 1_555 1_555
O3_5 C12_5 1_555 1_555
N2_5 C7_5 1_555 1_555
O4_5 C12_5 1_555 1_555
C7_5 H4_5 1_555 1_555
C8_5 C7_5 1_555 1_555
C9_5 C8_5 1_555 1_555
H5_5 C9_5 1_555 1_555
C10_5 C9_5 1_555 1_555
H6_5 C10_5 1_555 1_555
C11_5 C5_5 1_555 1_555
C12_5 C8_5 1_555 1_555
Cd3_2 O4_5 1_555 1_555
Cd4_2 O3_5 1_555 1_555
C4_5 C5_5 1_555 1_555
N2_5 C11_5 1_555 1_555
C10_5 C11_5 1_555 1_555
Cd1_2 O2_3 1_555 1_555
O1_2 C6_5 1_555 1_555
O2_3 C6_5 1_555 1_555
Cd2_2 O1_2 1_555 1_555
O5_2 Cd1_2 1_555 1_555
O6_3 Cd1_2 1_555 1_555
N3_5 Cd1_2 1_555 1_555
N4_5 Cd1_2 1_555 1_555
O7_3 Cd1_2 1_555 1_555
N1_6 C1_6 1_555 1_555
C1_6 H1_6 1_555 1_555
C2_6 C1_6 1_555 1_555
C3_6 C2_6 1_555 1_555
C4_6 C3_6 1_555 1_555
C5_6 N1_6 1_555 1_555
N2_6 C7_6 1_555 1_555
C7_6 H4_6 1_555 1_555
C8_6 C7_6 1_555 1_555
C9_6 C8_6 1_555 1_555
C10_6 C9_6 1_555 1_555
C11_6 C5_6 1_555 1_555
Cd5_6 N1_6 1_555 1_555
C4_6 C5_6 1_555 1_555
N2_6 C11_6 1_555 1_555
N2_6 Cd5_6 1_555 1_555
C10_6 C11_6 1_555 1_555
Cd2_2 O2_4 1_555 1_555
O5_2 C6_6 1_555 1_555
O2_4 C6_6 1_555 1_555
O6_4 Cd2_2 1_555 1_555
O7_4 Cd2_2 1_555 1_555
O3_6 C12_6 1_555 1_555
O4_6 C12_6 1_555 1_555
Cd4_2 O4_6 1_555 1_555
Cd3_2 O3_6 1_555 1_555
O6_3 C6_7 1_555 1_555
N1_7 C1_7 1_555 1_555
O7_4 C6_7 1_555 1_555
C1_7 H1_7 1_555 1_555
C2_7 C1_7 1_555 1_555
C3_7 C2_7 1_555 1_555
C4_7 C3_7 1_555 1_555
C5_7 N1_7 1_555 1_555
C6_7 C2_7 1_555 1_555
O3_7 C12_7 1_555 1_555
N2_7 C7_7 1_555 1_555
O4_7 C12_7 1_555 1_555
C7_7 H4_7 1_555 1_555
C8_7 C7_7 1_555 1_555
C9_7 C8_7 1_555 1_555
C10_7 C9_7 1_555 1_555
C11_7 C5_7 1_555 1_555
C12_7 C8_7 1_555 1_555
Cd4_2 O4_7 1_555 1_555
Cd3_2 O3_7 1_555 1_555
Cd5_7 N1_7 1_555 1_555
C4_7 C5_7 1_555 1_555
N2_7 C11_7 1_555 1_555
N2_7 Cd5_7 1_555 1_555
C10_7 C11_7 1_555 1_555
O6_4 C6_8 1_555 1_555
N1_8 C1_8 1_555 1_555
O7_3 C6_8 1_555 1_555
C1_8 H1_8 1_555 1_555
C2_8 C1_8 1_555 1_555
C3_8 C2_8 1_555 1_555
H2_7 C3_8 1_555 1_555
C4_8 C3_8 1_555 1_555
H3_7 C4_8 1_555 1_555
C5_8 N1_8 1_555 1_555
C6_8 C2_8 1_555 1_555
N2_8 C7_8 1_555 1_555
C7_8 H4_8 1_555 1_555
C8_8 C7_8 1_555 1_555
C9_8 C8_8 1_555 1_555
H5_7 C9_8 1_555 1_555
C10_8 C9_8 1_555 1_555
H6_7 C10_8 1_555 1_555
C11_8 C5_8 1_555 1_555
C4_8 C5_8 1_555 1_555
N2_8 C11_8 1_555 1_555
C10_8 C11_8 1_555 1_555
O3_8 C12_8 1_555 1_555
O4_8 C12_8 1_555 1_555
Cd3_2 O4_8 1_555 1_555
Cd4_2 O3_8 1_555 1_555
N3_7 Cd3_2 1_555 1_555
N4_7 Cd3_2 1_555 1_555
Cd5_7 O2_5 1_555 1_555
O1_3 C6_9 1_555 1_555
N4_2 C1_9 1_555 1_555
O2_5 C6_9 1_555 1_555
C1_9 H1_9 1_555 1_555
C2_9 C1_9 1_555 1_555
C3_9 C2_9 1_555 1_555
H2_8 C3_9 1_555 1_555
C4_9 C3_9 1_555 1_555
H3_8 C4_9 1_555 1_555
C5_9 N4_2 1_555 1_555
C6_9 C2_9 1_555 1_555
O3_9 C12_9 1_555 1_555
N3_2 C7_9 1_555 1_555
O4_9 C12_9 1_555 1_555
C7_9 H4_9 1_555 1_555
C8_9 C7_9 1_555 1_555
C9_9 C8_9 1_555 1_555
H5_8 C9_9 1_555 1_555
C10_9 C9_9 1_555 1_555
H6_8 C10_9 1_555 1_555
C11_9 C5_9 1_555 1_555
C12_9 C8_9 1_555 1_555
Cd5 O1_3 1_555 1_555
Cd5_6 O4_9 1_555 1_555
Cd5_4 O3_9 1_555 1_555
O5_3 Cd5_7 1_555 1_555
O6_5 Cd5_7 1_555 1_555
O7_5 Cd5_7 1_555 1_555
C4_9 C5_9 1_555 1_555
N3_2 C11_9 1_555 1_555
C10_9 C11_9 1_555 1_555
O3_10 C12_10 1_555 1_555
O4_10 C12_10 1_555 1_555
Cd5_4 O4_10 1_555 1_555
Cd5_6 O3_10 1_555 1_555
Cd5 O2_6 1_555 1_555
O5_3 C6_10 1_555 1_555
N4_7 C1_10 1_555 1_555
O2_6 C6_10 1_555 1_555
C1_10 H1_10 1_555 1_555
C2_10 C1_10 1_555 1_555
C3_10 C2_10 1_555 1_555
H2_9 C3_10 1_555 1_555
C4_10 C3_10 1_555 1_555
H3_9 C4_10 1_555 1_555
C5_10 N4_7 1_555 1_555
C6_10 C2_10 1_555 1_555
N3_7 C7_10 1_555 1_555
C7_10 H4_10 1_555 1_555
C8_10 C7_10 1_555 1_555
C9_10 C8_10 1_555 1_555
H5_9 C9_10 1_555 1_555
C10_10 C9_10 1_555 1_555
H6_9 C10_10 1_555 1_555
C11_10 C5_10 1_555 1_555
O6_6 Cd5 1_555 1_555
O7_6 Cd5 1_555 1_555
C4_10 C5_10 1_555 1_555
N3_7 C11_10 1_555 1_555
C10_10 C11_10 1_555 1_555
O3_11 C12_11 1_555 1_555
O4_11 C12_11 1_555 1_555
Cd5_4 O4_11 1_555 1_555
Cd5_6 O3_11 1_555 1_555
O6_5 C6_11 1_555 1_555
N3_5 C1_11 1_555 1_555
O7_6 C6_11 1_555 1_555
C1_11 H1_11 1_555 1_555
C2_11 C1_11 1_555 1_555
C3_11 C2_11 1_555 1_555
H2_10 C3_11 1_555 1_555
C4_11 C3_11 1_555 1_555
H3_10 C4_11 1_555 1_555
C5_11 N3_5 1_555 1_555
C6_11 C2_11 1_555 1_555
N4_5 C7_11 1_555 1_555
C7_11 H4_11 1_555 1_555
C8_11 C7_11 1_555 1_555
C9_11 C8_11 1_555 1_555
H5_10 C9_11 1_555 1_555
C10_11 C9_11 1_555 1_555
H6_10 C10_11 1_555 1_555
C11_11 C5_11 1_555 1_555
C4_11 C5_11 1_555 1_555
N4_5 C11_11 1_555 1_555
C10_11 C11_11 1_555 1_555
O3_12 C12_12 1_555 1_555
O4_12 C12_12 1_555 1_555
Cd5_6 O4_12 1_555 1_555
Cd5_4 O3_12 1_555 1_555
O6_6 C6_12 1_555 1_555
N3_4 C1_12 1_555 1_555
O7_5 C6_12 1_555 1_555
C1_12 H1_12 1_555 1_555
C2_12 C1_12 1_555 1_555
C3_12 C2_12 1_555 1_555
H2_11 C3_12 1_555 1_555
C4_12 C3_12 1_555 1_555
H3_11 C4_12 1_555 1_555
C5_12 N3_4 1_555 1_555
C6_12 C2_12 1_555 1_555
N4_4 C7_12 1_555 1_555
C7_12 H4_12 1_555 1_555
C8_12 C7_12 1_555 1_555
C9_12 C8_12 1_555 1_555
H5_11 C9_12 1_555 1_555
C10_12 C9_12 1_555 1_555
H6_11 C10_12 1_555 1_555
C11_12 C5_12 1_555 1_555
C4_12 C5_12 1_555 1_555
N4_4 C11_12 1_555 1_555
C10_12 C11_12 1_555 1_555
Cd5_3 O2_7 1_555 1_555
O1_4 C6_13 1_555 1_555
O2_7 C6_13 1_555 1_555
Cd5_5 O1_4 1_555 1_555
O5_4 Cd5_3 1_555 1_555
O6_7 Cd5_3 1_555 1_555
O7_7 Cd5_3 1_555 1_555
N4_6 C1_13 1_555 1_555
C1_13 H1_13 1_555 1_555
C2_13 C1_13 1_555 1_555
C3_13 C2_13 1_555 1_555
H2_12 C3_13 1_555 1_555
C4_13 C3_13 1_555 1_555
H3_12 C4_13 1_555 1_555
C5_13 N4_6 1_555 1_555
O3_13 C12_13 1_555 1_555
N3_6 C7_13 1_555 1_555
O4_13 C12_13 1_555 1_555
C7_13 H4_13 1_555 1_555
C8_13 C7_13 1_555 1_555
C9_13 C8_13 1_555 1_555
H5_12 C9_13 1_555 1_555
C10_13 C9_13 1_555 1_555
H6_12 C10_13 1_555 1_555
C11_13 C5_13 1_555 1_555
C12_13 C8_13 1_555 1_555
Cd5_2 O4_13 1_555 1_555
Cd5_8 O3_13 1_555 1_555
C4_13 C5_13 1_555 1_555
N3_6 C11_13 1_555 1_555
C10_13 C11_13 1_555 1_555
O3_14 C12_14 1_555 1_555
O4_14 C12_14 1_555 1_555
Cd5_8 O4_14 1_555 1_555
Cd5_2 O3_14 1_555 1_555
Cd5_5 O2_8 1_555 1_555
O5_4 C6_14 1_555 1_555
O2_8 C6_14 1_555 1_555
O6_8 Cd5_5 1_555 1_555
O7_8 Cd5_5 1_555 1_555
N4_3 C1_14 1_555 1_555
C1_14 H1_14 1_555 1_555
C2_14 C1_14 1_555 1_555
C3_14 C2_14 1_555 1_555
C4_14 C3_14 1_555 1_555
C5_14 N4_3 1_555 1_555
N3_3 C7_14 1_555 1_555
C7_14 H4_14 1_555 1_555
C8_14 C7_14 1_555 1_555
C9_14 C8_14 1_555 1_555
C10_14 C9_14 1_555 1_555
C11_14 C5_14 1_555 1_555
C4_14 C5_14 1_555 1_555
N3_3 C11_14 1_555 1_555
C10_14 C11_14 1_555 1_555
O6_7 C6_15 1_555 1_555
N3 C1_15 1_555 1_555
O7_8 C6_15 1_555 1_555
C1_15 H1_15 1_555 1_555
C2_15 C1_15 1_555 1_555
C3_15 C2_15 1_555 1_555
C4_15 C3_15 1_555 1_555
C5_15 N3 1_555 1_555
C6_15 C2_15 1_555 1_555
O3_15 C12_15 1_555 1_555
N4 C7_15 1_555 1_555
O4_15 C12_15 1_555 1_555
C7_15 H4_15 1_555 1_555
C8_15 C7_15 1_555 1_555
C9_15 C8_15 1_555 1_555
C10_15 C9_15 1_555 1_555
C11_15 C5_15 1_555 1_555
C12_15 C8_15 1_555 1_555
Cd5_8 O4_15 1_555 1_555
Cd5_2 O3_15 1_555 1_555
C4_15 C5_15 1_555 1_555
N4 C11_15 1_555 1_555
C10_15 C11_15 1_555 1_555
O3_16 C12_16 1_555 1_555
O4_16 C12_16 1_555 1_555
Cd5_2 O4_16 1_555 1_555
Cd5_8 O3_16 1_555 1_555
O6_8 C6_16 1_555 1_555
N3_8 C1_16 1_555 1_555
O7_7 C6_16 1_555 1_555
C1_16 H1_16 1_555 1_555
C2_16 C1_16 1_555 1_555
C3_16 C2_16 1_555 1_555
H2_14 C3_16 1_555 1_555
C4_16 C3_16 1_555 1_555
H3_14 C4_16 1_555 1_555
C5_16 N3_8 1_555 1_555
C6_16 C2_16 1_555 1_555
N4_8 C7_16 1_555 1_555
C7_16 H4_16 1_555 1_555
C8_16 C7_16 1_555 1_555
C9_16 C8_16 1_555 1_555
H5_14 C9_16 1_555 1_555
C10_16 C9_16 1_555 1_555
H6_14 C10_16 1_555 1_555
C11_16 C5_16 1_555 1_555
C4_16 C5_16 1_555 1_555
N4_8 C11_16 1_555 1_555
C10_16 C11_16 1_555 1_555

#END
