
###############################################################################
#
# This file contains modified crystal structure data generated from the
# MOF subset of the Cambridge Structural Database (CSD) v543 
# hosted by the Cambridge Crystallographic Data Centre (CCDC).
#
# This work is licensed under the Creative Commons
# Attribution-NonCommercial-ShareAlike 4.0 International License.
# To view a copy of this license, visit
# http://creativecommons.org/licenses/by-nc-sa/4.0/
# or send a letter to
# Creative Commons, PO Box 1866, Mountain View, CA 94042, USA.
#
# CIF created using the CSD Python API on 29 September 2022
# The structure has been converted into the P1 space group
# The structure has a 3D framework
# The original CSD entry CIQHOC is in the orthorhombic crystal system
# The framework has been calculated to contain at least 10.0% void space
# The void calculation uses a probe of radius 1.32A, grid spacing 0.4
#
###############################################################################

data_CIQHOC
_chemical_formula_moiety         '(C192 H96 N32 O64 Zn12)n'
_symmetry_cell_setting           triclinic
_symmetry_space_group_name_H-M   'P 1'
_symmetry_Int_Tables_number      1
_space_group_name_Hall           'P 1'
loop_
_symmetry_equiv_pos_site_id
_symmetry_equiv_pos_as_xyz
1 x,y,z
_cell_length_a                   15.930(7)
_cell_length_b                   19.280(8)
_cell_length_c                   23.109(9)
_cell_angle_alpha                90
_cell_angle_beta                 90
_cell_angle_gamma                90
_cell_volume                     7097.48
loop_
_atom_site_label
_atom_site_type_symbol
_atom_site_fract_x
_atom_site_fract_y
_atom_site_fract_z
H2 H 0.0499 0.0937 0.1632
H3 H 0.0413 0.0189 0.2410
H5 H 0.0499 0.1563 0.0868
H6 H 0.0413 0.2311 0.0090
Zn1 Zn 0.74016(5) 0.1250 0.1250
N1 N 0.8506(2) 0.0815(2) 0.16979(18)
C1 C 0.9160(3) 0.0152(3) 0.2451(2)
C2 C 0.8471(3) 0.0400(3) 0.2159(2)
H1 H 0.7944 0.0269 0.2293
C3 C 0.9256(3) 0.1018(4) 0.1502(3)
C4 C 0.9978(5) 0.0793(5) 0.1768(4)
C5 C 0.9925(4) 0.0352(5) 0.2237(4)
N2 N 0.8506(2) 0.1685(2) 0.08021(18)
C7 C 0.9160(3) 0.2348(3) 0.0049(2)
C8 C 0.8471(3) 0.2100(3) 0.0341(2)
H4 H 0.7944 0.2231 0.0207
C9 C 0.9256(3) 0.1482(4) 0.0998(3)
C10 C 0.9978(5) 0.1707(5) 0.0732(4)
C11 C 0.9925(4) 0.2148(5) 0.0263(4)
O5 O 0.7269(2) 0.19798(18) 0.18249(16)
O6 O 0.7269(2) 0.05202(18) 0.06751(16)
O7 O 0.6632(2) 0.05220(18) 0.18930(15)
O8 O 0.6632(2) 0.19780(18) 0.06070(15)
O3 O 0.9769(2) 0.30202(18) 0.93249(16)
O4 O 0.8368(2) 0.30220(18) 0.93930(15)
C12 C 0.9081(3) 0.2840(3) 0.9548(2)
Zn2 Zn 0.99016(5) 0.3750 0.8750
Zn5 Zn 0.75984(5) 0.3750 0.8750
O1 O 0.9769(2) 0.94798(18) 0.31751(16)
O2 O 0.8368(2) 0.94780(18) 0.31070(15)
C6 C 0.9081(3) 0.9660(3) 0.2952(2)
Zn3 Zn 0.99016(5) 0.8750 0.3750
Zn4 Zn 0.75984(5) 0.8750 0.3750
Zn1_2 Zn 0.00984(5) 0.6250 0.1250
O5_2 O 0.0231(2) 0.55202(18) 0.18249(16)
O6_2 O 0.0231(2) 0.69798(18) 0.06751(16)
O7_2 O 0.0868(2) 0.69780(18) 0.18930(15)
O8_2 O 0.0868(2) 0.55220(18) 0.06070(15)
N1_2 N 0.8994(2) 0.6685(2) 0.16979(18)
O1_2 O 0.7731(2) 0.80202(18) 0.31751(16)
O2_2 O 0.9132(2) 0.80220(18) 0.31070(15)
C1_2 C 0.8340(3) 0.7348(3) 0.2451(2)
C2_2 C 0.9029(3) 0.7100(3) 0.2159(2)
H1_2 H 0.9556 0.7231 0.2293
C3_2 C 0.8244(3) 0.6482(4) 0.1502(3)
C4_2 C 0.7522(5) 0.6707(5) 0.1768(4)
H2_2 H 0.7001 0.6563 0.1632
C5_2 C 0.7575(4) 0.7148(5) 0.2237(4)
H3_2 H 0.7087 0.7311 0.2410
C6_2 C 0.8419(3) 0.7840(3) 0.2952(2)
N2_2 N 0.8994(2) 0.5815(2) 0.08021(18)
C7_2 C 0.8340(3) 0.5152(3) 0.0049(2)
C8_2 C 0.9029(3) 0.5400(3) 0.0341(2)
H4_2 H 0.9556 0.5269 0.0207
C9_2 C 0.8244(3) 0.6018(4) 0.0998(3)
C10_2 C 0.7522(5) 0.5793(5) 0.0732(4)
H5_2 H 0.7001 0.5937 0.0868
C11_2 C 0.7575(4) 0.5352(5) 0.0263(4)
H6_2 H 0.7087 0.5189 0.0090
O3_2 O 0.7731(2) 0.44798(18) 0.93249(16)
O4_2 O 0.9132(2) 0.44780(18) 0.93930(15)
C12_2 C 0.8419(3) 0.4660(3) 0.9548(2)
Zn1_3 Zn 0.00984(5) 0.1250 0.6250
O5_3 O 0.0231(2) 0.19798(18) 0.56751(16)
O6_3 O 0.0231(2) 0.05202(18) 0.68249(16)
O7_3 O 0.0868(2) 0.05220(18) 0.56070(15)
O8_3 O 0.0868(2) 0.19780(18) 0.68930(15)
N1_3 N 0.8994(2) 0.0815(2) 0.58021(18)
C1_3 C 0.8340(3) 0.0152(3) 0.5049(2)
C2_3 C 0.9029(3) 0.0400(3) 0.5341(2)
H1_3 H 0.9556 0.0269 0.5207
C3_3 C 0.8244(3) 0.1018(4) 0.5998(3)
C4_3 C 0.7522(5) 0.0793(5) 0.5732(4)
H2_3 H 0.7001 0.0937 0.5868
C5_3 C 0.7575(4) 0.0352(5) 0.5263(4)
H3_3 H 0.7087 0.0189 0.5090
N2_3 N 0.8994(2) 0.1685(2) 0.66979(18)
O3_3 O 0.7731(2) 0.30202(18) 0.81751(16)
O4_3 O 0.9132(2) 0.30220(18) 0.81070(15)
C7_3 C 0.8340(3) 0.2348(3) 0.7451(2)
C8_3 C 0.9029(3) 0.2100(3) 0.7159(2)
H4_3 H 0.9556 0.2231 0.7293
C9_3 C 0.8244(3) 0.1482(4) 0.6502(3)
C10_3 C 0.7522(5) 0.1707(5) 0.6768(4)
H5_3 H 0.7001 0.1563 0.6632
C11_3 C 0.7575(4) 0.2148(5) 0.7237(4)
H6_3 H 0.7087 0.2311 0.7410
C12_3 C 0.8419(3) 0.2840(3) 0.7952(2)
O1_3 O 0.7731(2) 0.94798(18) 0.43249(16)
O2_3 O 0.9132(2) 0.94780(18) 0.43930(15)
C6_3 C 0.8419(3) 0.9660(3) 0.4548(2)
Zn1_4 Zn 0.74016(5) 0.6250 0.6250
N1_4 N 0.8506(2) 0.6685(2) 0.58021(18)
O1_4 O 0.9769(2) 0.80202(18) 0.43249(16)
O2_4 O 0.8368(2) 0.80220(18) 0.43930(15)
C1_4 C 0.9160(3) 0.7348(3) 0.5049(2)
C2_4 C 0.8471(3) 0.7100(3) 0.5341(2)
H1_4 H 0.7944 0.7231 0.5207
C3_4 C 0.9256(3) 0.6482(4) 0.5998(3)
C4_4 C 0.9978(5) 0.6707(5) 0.5732(4)
C5_4 C 0.9925(4) 0.7148(5) 0.5263(4)
C6_4 C 0.9081(3) 0.7840(3) 0.4548(2)
N2_4 N 0.8506(2) 0.5815(2) 0.66979(18)
O3_4 O 0.9769(2) 0.44798(18) 0.81751(16)
O4_4 O 0.8368(2) 0.44780(18) 0.81070(15)
C7_4 C 0.9160(3) 0.5152(3) 0.7451(2)
C8_4 C 0.8471(3) 0.5400(3) 0.7159(2)
H4_4 H 0.7944 0.5269 0.7293
C9_4 C 0.9256(3) 0.6018(4) 0.6502(3)
C10_4 C 0.9978(5) 0.5793(5) 0.6768(4)
C11_4 C 0.9925(4) 0.5352(5) 0.7237(4)
C12_4 C 0.9081(3) 0.4660(3) 0.7952(2)
O5_4 O 0.7269(2) 0.55202(18) 0.56751(16)
O6_4 O 0.7269(2) 0.69798(18) 0.68249(16)
O7_4 O 0.6632(2) 0.69780(18) 0.56070(15)
O8_4 O 0.6632(2) 0.55220(18) 0.68930(15)
Zn1_5 Zn 0.24016(5) 0.1250 0.6250
N1_5 N 0.3506(2) 0.0815(2) 0.66979(18)
C1_5 C 0.4160(3) 0.0152(3) 0.7451(2)
C2_5 C 0.3471(3) 0.0400(3) 0.7159(2)
H1_5 H 0.2944 0.0269 0.7293
C3_5 C 0.4256(3) 0.1018(4) 0.6502(3)
C4_5 C 0.4978(5) 0.0793(5) 0.6768(4)
H2_4 H 0.5499 0.0937 0.6632
C5_5 C 0.4925(4) 0.0352(5) 0.7237(4)
H3_4 H 0.5413 0.0189 0.7410
N2_5 N 0.3506(2) 0.1685(2) 0.58021(18)
O3_5 O 0.4769(2) 0.30202(18) 0.43249(16)
O4_5 O 0.3368(2) 0.30220(18) 0.43930(15)
C7_5 C 0.4160(3) 0.2348(3) 0.5049(2)
C8_5 C 0.3471(3) 0.2100(3) 0.5341(2)
H4_5 H 0.2944 0.2231 0.5207
C9_5 C 0.4256(3) 0.1482(4) 0.5998(3)
C10_5 C 0.4978(5) 0.1707(5) 0.5732(4)
H5_4 H 0.5499 0.1563 0.5868
C11_5 C 0.4925(4) 0.2148(5) 0.5263(4)
H6_4 H 0.5413 0.2311 0.5090
C12_5 C 0.4081(3) 0.2840(3) 0.4548(2)
Zn2_2 Zn 0.49016(5) 0.3750 0.3750
Zn5_2 Zn 0.25984(5) 0.3750 0.3750
O5_5 O 0.2269(2) 0.19798(18) 0.68249(16)
O6_5 O 0.2269(2) 0.05202(18) 0.56751(16)
O7_5 O 0.1632(2) 0.05220(18) 0.68930(15)
O8_5 O 0.1632(2) 0.19780(18) 0.56070(15)
O1_5 O 0.4769(2) 0.94798(18) 0.81751(16)
O2_5 O 0.3368(2) 0.94780(18) 0.81070(15)
C6_5 C 0.4081(3) 0.9660(3) 0.7952(2)
Zn3_2 Zn 0.49016(5) 0.8750 0.8750
Zn4_2 Zn 0.25984(5) 0.8750 0.8750
Zn1_6 Zn 0.50984(5) 0.6250 0.6250
N1_6 N 0.3994(2) 0.6685(2) 0.66979(18)
O1_6 O 0.2731(2) 0.80202(18) 0.81751(16)
O2_6 O 0.4132(2) 0.80220(18) 0.81070(15)
C1_6 C 0.3340(3) 0.7348(3) 0.7451(2)
C2_6 C 0.4029(3) 0.7100(3) 0.7159(2)
H1_6 H 0.4556 0.7231 0.7293
C3_6 C 0.3244(3) 0.6482(4) 0.6502(3)
C4_6 C 0.2522(5) 0.6707(5) 0.6768(4)
H2_5 H 0.2001 0.6563 0.6632
C5_6 C 0.2575(4) 0.7148(5) 0.7237(4)
H3_5 H 0.2087 0.7311 0.7410
C6_6 C 0.3419(3) 0.7840(3) 0.7952(2)
N2_6 N 0.3994(2) 0.5815(2) 0.58021(18)
O3_6 O 0.2731(2) 0.44798(18) 0.43249(16)
O4_6 O 0.4132(2) 0.44780(18) 0.43930(15)
C7_6 C 0.3340(3) 0.5152(3) 0.5049(2)
C8_6 C 0.4029(3) 0.5400(3) 0.5341(2)
H4_6 H 0.4556 0.5269 0.5207
C9_6 C 0.3244(3) 0.6018(4) 0.5998(3)
C10_6 C 0.2522(5) 0.5793(5) 0.5732(4)
H5_5 H 0.2001 0.5937 0.5868
C11_6 C 0.2575(4) 0.5352(5) 0.5263(4)
H6_5 H 0.2087 0.5189 0.5090
C12_6 C 0.3419(3) 0.4660(3) 0.4548(2)
O5_6 O 0.5231(2) 0.55202(18) 0.68249(16)
O6_6 O 0.5231(2) 0.69798(18) 0.56751(16)
O7_6 O 0.5868(2) 0.69780(18) 0.68930(15)
O8_6 O 0.5868(2) 0.55220(18) 0.56070(15)
Zn1_7 Zn 0.50984(5) 0.1250 0.1250
N1_7 N 0.3994(2) 0.0815(2) 0.08021(18)
C1_7 C 0.3340(3) 0.0152(3) 0.0049(2)
C2_7 C 0.4029(3) 0.0400(3) 0.0341(2)
H1_7 H 0.4556 0.0269 0.0207
C3_7 C 0.3244(3) 0.1018(4) 0.0998(3)
C4_7 C 0.2522(5) 0.0793(5) 0.0732(4)
H2_6 H 0.2001 0.0937 0.0868
C5_7 C 0.2575(4) 0.0352(5) 0.0263(4)
H3_6 H 0.2087 0.0189 0.0090
N2_7 N 0.3994(2) 0.1685(2) 0.16979(18)
O3_7 O 0.2731(2) 0.30202(18) 0.31751(16)
O4_7 O 0.4132(2) 0.30220(18) 0.31070(15)
C7_7 C 0.3340(3) 0.2348(3) 0.2451(2)
C8_7 C 0.4029(3) 0.2100(3) 0.2159(2)
H4_7 H 0.4556 0.2231 0.2293
C9_7 C 0.3244(3) 0.1482(4) 0.1502(3)
C10_7 C 0.2522(5) 0.1707(5) 0.1768(4)
H5_6 H 0.2001 0.1563 0.1632
C11_7 C 0.2575(4) 0.2148(5) 0.2237(4)
H6_6 H 0.2087 0.2311 0.2410
C12_7 C 0.3419(3) 0.2840(3) 0.2952(2)
O5_7 O 0.5231(2) 0.19798(18) 0.06751(16)
O6_7 O 0.5231(2) 0.05202(18) 0.18249(16)
O7_7 O 0.5868(2) 0.05220(18) 0.06070(15)
O8_7 O 0.5868(2) 0.19780(18) 0.18930(15)
O1_7 O 0.2731(2) 0.94798(18) 0.93249(16)
O2_7 O 0.4132(2) 0.94780(18) 0.93930(15)
C6_7 C 0.3419(3) 0.9660(3) 0.9548(2)
Zn1_8 Zn 0.24016(5) 0.6250 0.1250
N1_8 N 0.3506(2) 0.6685(2) 0.08021(18)
C1_8 C 0.4160(3) 0.7348(3) 0.0049(2)
C2_8 C 0.3471(3) 0.7100(3) 0.0341(2)
H1_8 H 0.2944 0.7231 0.0207
C3_8 C 0.4256(3) 0.6482(4) 0.0998(3)
C4_8 C 0.4978(5) 0.6707(5) 0.0732(4)
H2_7 H 0.5499 0.6563 0.0868
C5_8 C 0.4925(4) 0.7148(5) 0.0263(4)
H3_7 H 0.5413 0.7311 0.0090
N2_8 N 0.3506(2) 0.5815(2) 0.16979(18)
O3_8 O 0.4769(2) 0.44798(18) 0.31751(16)
O4_8 O 0.3368(2) 0.44780(18) 0.31070(15)
C7_8 C 0.4160(3) 0.5152(3) 0.2451(2)
C8_8 C 0.3471(3) 0.5400(3) 0.2159(2)
H4_8 H 0.2944 0.5269 0.2293
C9_8 C 0.4256(3) 0.6018(4) 0.1502(3)
C10_8 C 0.4978(5) 0.5793(5) 0.1768(4)
H5_7 H 0.5499 0.5937 0.1632
C11_8 C 0.4925(4) 0.5352(5) 0.2237(4)
H6_7 H 0.5413 0.5189 0.2410
C12_8 C 0.4081(3) 0.4660(3) 0.2952(2)
O5_8 O 0.2269(2) 0.55202(18) 0.06751(16)
O6_8 O 0.2269(2) 0.69798(18) 0.18249(16)
O7_8 O 0.1632(2) 0.69780(18) 0.06070(15)
O8_8 O 0.1632(2) 0.55220(18) 0.18930(15)
O1_8 O 0.4769(2) 0.80202(18) 0.93249(16)
O2_8 O 0.3368(2) 0.80220(18) 0.93930(15)
C6_8 C 0.4081(3) 0.7840(3) 0.9548(2)
C6_9 C 0.0919(3) 0.0340(3) 0.7048(2)
C12_9 C 0.0919(3) 0.7160(3) 0.0452(2)
N1_9 N 0.1494(2) 0.9185(2) 0.83021(18)
C1_9 C 0.0840(3) 0.9848(3) 0.7549(2)
C2_9 C 0.1529(3) 0.9600(3) 0.7841(2)
H1_9 H 0.2056 0.9731 0.7707
C3_9 C 0.0744(3) 0.8982(4) 0.8498(3)
C4_9 C 0.0022(5) 0.9207(5) 0.8232(4)
C5_9 C 0.0075(4) 0.9648(5) 0.7763(4)
N2_9 N 0.1494(2) 0.8315(2) 0.91979(18)
C7_9 C 0.0840(3) 0.7652(3) 0.9951(2)
C8_9 C 0.1529(3) 0.7900(3) 0.9659(2)
H4_9 H 0.2056 0.7769 0.9793
C9_9 C 0.0744(3) 0.8518(4) 0.9002(3)
C10_9 C 0.0022(5) 0.8293(5) 0.9268(4)
C11_9 C 0.0075(4) 0.7852(5) 0.9737(4)
C12_10 C 0.1581(3) 0.5340(3) 0.0452(2)
N1_10 N 0.1006(2) 0.3315(2) 0.83021(18)
C1_10 C 0.1660(3) 0.2652(3) 0.7549(2)
C2_10 C 0.0971(3) 0.2900(3) 0.7841(2)
H1_10 H 0.0444 0.2769 0.7707
C3_10 C 0.1756(3) 0.3518(4) 0.8498(3)
C4_10 C 0.2478(5) 0.3293(5) 0.8232(4)
H2_8 H 0.2999 0.3437 0.8368
C5_10 C 0.2425(4) 0.2852(5) 0.7763(4)
H3_8 H 0.2913 0.2689 0.7590
C6_10 C 0.1581(3) 0.2160(3) 0.7048(2)
N2_10 N 0.1006(2) 0.4185(2) 0.91979(18)
C7_10 C 0.1660(3) 0.4848(3) 0.9951(2)
C8_10 C 0.0971(3) 0.4600(3) 0.9659(2)
H4_10 H 0.0444 0.4731 0.9793
C9_10 C 0.1756(3) 0.3982(4) 0.9002(3)
C10_10 C 0.2478(5) 0.4207(5) 0.9268(4)
H5_8 H 0.2999 0.4063 0.9132
C11_10 C 0.2425(4) 0.4648(5) 0.9737(4)
H6_8 H 0.2913 0.4811 0.9910
C6_11 C 0.1581(3) 0.0340(3) 0.5452(2)
N1_11 N 0.1006(2) 0.9185(2) 0.41979(18)
C1_11 C 0.1660(3) 0.9848(3) 0.4951(2)
C2_11 C 0.0971(3) 0.9600(3) 0.4659(2)
H1_11 H 0.0444 0.9731 0.4793
C3_11 C 0.1756(3) 0.8982(4) 0.4002(3)
C4_11 C 0.2478(5) 0.9207(5) 0.4268(4)
H2_9 H 0.2999 0.9063 0.4132
C5_11 C 0.2425(4) 0.9648(5) 0.4737(4)
H3_9 H 0.2913 0.9811 0.4910
N2_11 N 0.1006(2) 0.8315(2) 0.33021(18)
C7_11 C 0.1660(3) 0.7652(3) 0.2549(2)
C8_11 C 0.0971(3) 0.7900(3) 0.2841(2)
H4_11 H 0.0444 0.7769 0.2707
C9_11 C 0.1756(3) 0.8518(4) 0.3498(3)
C10_11 C 0.2478(5) 0.8293(5) 0.3232(4)
H5_9 H 0.2999 0.8437 0.3368
C11_11 C 0.2425(4) 0.7852(5) 0.2763(4)
H6_9 H 0.2913 0.7689 0.2590
C12_11 C 0.1581(3) 0.7160(3) 0.2048(2)
N1_12 N 0.1494(2) 0.3315(2) 0.41979(18)
C1_12 C 0.0840(3) 0.2652(3) 0.4951(2)
C2_12 C 0.1529(3) 0.2900(3) 0.4659(2)
H1_12 H 0.2056 0.2769 0.4793
C3_12 C 0.0744(3) 0.3518(4) 0.4002(3)
C4_12 C 0.0022(5) 0.3293(5) 0.4268(4)
C5_12 C 0.0075(4) 0.2852(5) 0.4737(4)
C6_12 C 0.0919(3) 0.2160(3) 0.5452(2)
N2_12 N 0.1494(2) 0.4185(2) 0.33021(18)
C7_12 C 0.0840(3) 0.4848(3) 0.2549(2)
C8_12 C 0.1529(3) 0.4600(3) 0.2841(2)
H4_12 H 0.2056 0.4731 0.2707
C9_12 C 0.0744(3) 0.3982(4) 0.3498(3)
C10_12 C 0.0022(5) 0.4207(5) 0.3232(4)
C11_12 C 0.0075(4) 0.4648(5) 0.2763(4)
C12_12 C 0.0919(3) 0.5340(3) 0.2048(2)
C6_13 C 0.5919(3) 0.0340(3) 0.2048(2)
N1_13 N 0.6494(2) 0.9185(2) 0.33021(18)
C1_13 C 0.5840(3) 0.9848(3) 0.2549(2)
C2_13 C 0.6529(3) 0.9600(3) 0.2841(2)
H1_13 H 0.7056 0.9731 0.2707
C3_13 C 0.5744(3) 0.8982(4) 0.3498(3)
C4_13 C 0.5022(5) 0.9207(5) 0.3232(4)
H2_10 H 0.4501 0.9063 0.3368
C5_13 C 0.5075(4) 0.9648(5) 0.2763(4)
H3_10 H 0.4587 0.9811 0.2590
N2_13 N 0.6494(2) 0.8315(2) 0.41979(18)
C7_13 C 0.5840(3) 0.7652(3) 0.4951(2)
C8_13 C 0.6529(3) 0.7900(3) 0.4659(2)
H4_13 H 0.7056 0.7769 0.4793
C9_13 C 0.5744(3) 0.8518(4) 0.4002(3)
C10_13 C 0.5022(5) 0.8293(5) 0.4268(4)
H5_10 H 0.4501 0.8437 0.4132
C11_13 C 0.5075(4) 0.7852(5) 0.4737(4)
H6_10 H 0.4587 0.7689 0.4910
C12_13 C 0.5919(3) 0.7160(3) 0.5452(2)
N1_14 N 0.6006(2) 0.3315(2) 0.33021(18)
C1_14 C 0.6660(3) 0.2652(3) 0.2549(2)
C2_14 C 0.5971(3) 0.2900(3) 0.2841(2)
H1_14 H 0.5444 0.2769 0.2707
C3_14 C 0.6756(3) 0.3518(4) 0.3498(3)
C4_14 C 0.7478(5) 0.3293(5) 0.3232(4)
H2_11 H 0.7999 0.3437 0.3368
C5_14 C 0.7425(4) 0.2852(5) 0.2763(4)
H3_11 H 0.7913 0.2689 0.2590
C6_14 C 0.6581(3) 0.2160(3) 0.2048(2)
N2_14 N 0.6006(2) 0.4185(2) 0.41979(18)
C7_14 C 0.6660(3) 0.4848(3) 0.4951(2)
C8_14 C 0.5971(3) 0.4600(3) 0.4659(2)
H4_14 H 0.5444 0.4731 0.4793
C9_14 C 0.6756(3) 0.3982(4) 0.4002(3)
C10_14 C 0.7478(5) 0.4207(5) 0.4268(4)
H5_11 H 0.7999 0.4063 0.4132
C11_14 C 0.7425(4) 0.4648(5) 0.4737(4)
H6_11 H 0.7913 0.4811 0.4910
C12_14 C 0.6581(3) 0.5340(3) 0.5452(2)
C6_15 C 0.6581(3) 0.0340(3) 0.0452(2)
N1_15 N 0.6006(2) 0.9185(2) 0.91979(18)
C1_15 C 0.6660(3) 0.9848(3) 0.9951(2)
C2_15 C 0.5971(3) 0.9600(3) 0.9659(2)
H1_15 H 0.5444 0.9731 0.9793
C3_15 C 0.6756(3) 0.8982(4) 0.9002(3)
C4_15 C 0.7478(5) 0.9207(5) 0.9268(4)
H2_12 H 0.7999 0.9063 0.9132
C5_15 C 0.7425(4) 0.9648(5) 0.9737(4)
H3_12 H 0.7913 0.9811 0.9910
N2_15 N 0.6006(2) 0.8315(2) 0.83021(18)
C7_15 C 0.6660(3) 0.7652(3) 0.7549(2)
C8_15 C 0.5971(3) 0.7900(3) 0.7841(2)
H4_15 H 0.5444 0.7769 0.7707
C9_15 C 0.6756(3) 0.8518(4) 0.8498(3)
C10_15 C 0.7478(5) 0.8293(5) 0.8232(4)
H5_12 H 0.7999 0.8437 0.8368
C11_15 C 0.7425(4) 0.7852(5) 0.7763(4)
H6_12 H 0.7913 0.7689 0.7590
C12_15 C 0.6581(3) 0.7160(3) 0.7048(2)
C6_16 C 0.5919(3) 0.2160(3) 0.0452(2)
N1_16 N 0.6494(2) 0.3315(2) 0.91979(18)
C1_16 C 0.5840(3) 0.2652(3) 0.9951(2)
C2_16 C 0.6529(3) 0.2900(3) 0.9659(2)
H1_16 H 0.7056 0.2769 0.9793
C3_16 C 0.5744(3) 0.3518(4) 0.9002(3)
C4_16 C 0.5022(5) 0.3293(5) 0.9268(4)
H2_13 H 0.4501 0.3437 0.9132
C5_16 C 0.5075(4) 0.2852(5) 0.9737(4)
H3_13 H 0.4587 0.2689 0.9910
N2_16 N 0.6494(2) 0.4185(2) 0.83021(18)
C7_16 C 0.5840(3) 0.4848(3) 0.7549(2)
C8_16 C 0.6529(3) 0.4600(3) 0.7841(2)
H4_16 H 0.7056 0.4731 0.7707
C9_16 C 0.5744(3) 0.3982(4) 0.8498(3)
C10_16 C 0.5022(5) 0.4207(5) 0.8232(4)
H5_13 H 0.4501 0.4063 0.8368
C11_16 C 0.5075(4) 0.4648(5) 0.7763(4)
H6_13 H 0.4587 0.4811 0.7590
C12_16 C 0.5919(3) 0.5340(3) 0.7048(2)
H2_14 H 0.0499 0.6563 0.5868
H3_14 H 0.0413 0.7311 0.5090
H5_14 H 0.0499 0.5937 0.6632
H6_14 H 0.0413 0.5189 0.7410
H2_15 H 0.9501 0.9063 0.8368
H3_15 H 0.9587 0.9811 0.7590
H5_15 H 0.9501 0.8437 0.9132
H6_15 H 0.9587 0.7689 0.9910
H2_16 H 0.9501 0.3437 0.4132
H3_16 H 0.9587 0.2689 0.4910
H5_16 H 0.9501 0.4063 0.3368
H6_16 H 0.9587 0.4811 0.2590
loop_
_geom_bond_atom_site_label_1
_geom_bond_atom_site_label_2
_geom_bond_site_symmetry_1
_geom_bond_site_symmetry_2
Zn1 N1 1_555 1_555
N1 C2 1_555 1_555
C1 C2 1_555 1_555
C2 H1 1_555 1_555
C3 N1 1_555 1_555
C4 C3 1_555 1_555
C5 C1 1_555 1_555
N2 Zn1 1_555 1_555
C7 C8 1_555 1_555
C8 N2 1_555 1_555
H4 C8 1_555 1_555
C9 C3 1_555 1_555
C10 C9 1_555 1_555
C11 C7 1_555 1_555
O5 Zn1 1_555 1_555
O6 Zn1 1_555 1_555
O7 Zn1 1_555 1_555
O8 Zn1 1_555 1_555
C4 C5 1_555 1_555
N2 C9 1_555 1_555
C10 C11 1_555 1_555
O3 C12 1_555 1_555
O4 C12 1_555 1_555
Zn2 O3 1_555 1_555
Zn5 O4 1_555 1_555
O1 C6 1_555 1_555
O2 C6 1_555 1_555
Zn3 O1 1_555 1_555
Zn4 O2 1_555 1_555
O5_2 Zn1_2 1_555 1_555
O6_2 Zn1_2 1_555 1_555
O7_2 Zn1_2 1_555 1_555
O8_2 Zn1_2 1_555 1_555
N1_2 C2_2 1_555 1_555
O1_2 C6_2 1_555 1_555
O2_2 C6_2 1_555 1_555
C1_2 C2_2 1_555 1_555
C2_2 H1_2 1_555 1_555
C3_2 N1_2 1_555 1_555
C4_2 C3_2 1_555 1_555
H2_2 C4_2 1_555 1_555
C5_2 C1_2 1_555 1_555
H3_2 C5_2 1_555 1_555
C6_2 C1_2 1_555 1_555
C7_2 C8_2 1_555 1_555
C8_2 N2_2 1_555 1_555
H4_2 C8_2 1_555 1_555
C9_2 C3_2 1_555 1_555
C10_2 C9_2 1_555 1_555
H5_2 C10_2 1_555 1_555
C11_2 C7_2 1_555 1_555
H6_2 C11_2 1_555 1_555
Zn4 O1_2 1_555 1_555
Zn3 O2_2 1_555 1_555
C4_2 C5_2 1_555 1_555
N2_2 C9_2 1_555 1_555
C10_2 C11_2 1_555 1_555
O3_2 C12_2 1_555 1_555
O4_2 C12_2 1_555 1_555
Zn5 O3_2 1_555 1_555
Zn2 O4_2 1_555 1_555
O5_3 Zn1_3 1_555 1_555
O6_3 Zn1_3 1_555 1_555
O7_3 Zn1_3 1_555 1_555
O8_3 Zn1_3 1_555 1_555
N1_3 C2_3 1_555 1_555
C1_3 C2_3 1_555 1_555
C2_3 H1_3 1_555 1_555
C3_3 N1_3 1_555 1_555
C4_3 C3_3 1_555 1_555
H2_3 C4_3 1_555 1_555
C5_3 C1_3 1_555 1_555
H3_3 C5_3 1_555 1_555
O3_3 C12_3 1_555 1_555
O4_3 C12_3 1_555 1_555
C7_3 C8_3 1_555 1_555
C8_3 N2_3 1_555 1_555
H4_3 C8_3 1_555 1_555
C9_3 C3_3 1_555 1_555
C10_3 C9_3 1_555 1_555
H5_3 C10_3 1_555 1_555
C11_3 C7_3 1_555 1_555
H6_3 C11_3 1_555 1_555
C12_3 C7_3 1_555 1_555
Zn5 O3_3 1_555 1_555
Zn2 O4_3 1_555 1_555
C4_3 C5_3 1_555 1_555
N2_3 C9_3 1_555 1_555
C10_3 C11_3 1_555 1_555
O1_3 C6_3 1_555 1_555
O2_3 C6_3 1_555 1_555
Zn4 O1_3 1_555 1_555
Zn3 O2_3 1_555 1_555
Zn1_4 N1_4 1_555 1_555
N1_4 C2_4 1_555 1_555
O1_4 C6_4 1_555 1_555
O2_4 C6_4 1_555 1_555
C1_4 C2_4 1_555 1_555
C2_4 H1_4 1_555 1_555
C3_4 N1_4 1_555 1_555
C4_4 C3_4 1_555 1_555
C5_4 C1_4 1_555 1_555
C6_4 C1_4 1_555 1_555
N2_4 Zn1_4 1_555 1_555
O3_4 C12_4 1_555 1_555
O4_4 C12_4 1_555 1_555
C7_4 C8_4 1_555 1_555
C8_4 N2_4 1_555 1_555
H4_4 C8_4 1_555 1_555
C9_4 C3_4 1_555 1_555
C10_4 C9_4 1_555 1_555
C11_4 C7_4 1_555 1_555
C12_4 C7_4 1_555 1_555
Zn2 O3_4 1_555 1_555
Zn3 O1_4 1_555 1_555
Zn4 O2_4 1_555 1_555
Zn5 O4_4 1_555 1_555
O5_4 Zn1_4 1_555 1_555
O6_4 Zn1_4 1_555 1_555
O7_4 Zn1_4 1_555 1_555
O8_4 Zn1_4 1_555 1_555
C4_4 C5_4 1_555 1_555
N2_4 C9_4 1_555 1_555
C10_4 C11_4 1_555 1_555
Zn1_5 N1_5 1_555 1_555
N1_5 C2_5 1_555 1_555
C1_5 C2_5 1_555 1_555
C2_5 H1_5 1_555 1_555
C3_5 N1_5 1_555 1_555
C4_5 C3_5 1_555 1_555
H2_4 C4_5 1_555 1_555
C5_5 C1_5 1_555 1_555
H3_4 C5_5 1_555 1_555
N2_5 Zn1_5 1_555 1_555
O3_5 C12_5 1_555 1_555
O4_5 C12_5 1_555 1_555
C7_5 C8_5 1_555 1_555
C8_5 N2_5 1_555 1_555
H4_5 C8_5 1_555 1_555
C9_5 C3_5 1_555 1_555
C10_5 C9_5 1_555 1_555
H5_4 C10_5 1_555 1_555
C11_5 C7_5 1_555 1_555
H6_4 C11_5 1_555 1_555
C12_5 C7_5 1_555 1_555
Zn2_2 O3_5 1_555 1_555
Zn5_2 O4_5 1_555 1_555
O5_5 Zn1_5 1_555 1_555
O6_5 Zn1_5 1_555 1_555
O7_5 Zn1_5 1_555 1_555
O8_5 Zn1_5 1_555 1_555
C4_5 C5_5 1_555 1_555
N2_5 C9_5 1_555 1_555
C10_5 C11_5 1_555 1_555
O1_5 C6_5 1_555 1_555
O2_5 C6_5 1_555 1_555
Zn3_2 O1_5 1_555 1_555
Zn4_2 O2_5 1_555 1_555
Zn1_6 N1_6 1_555 1_555
N1_6 C2_6 1_555 1_555
O1_6 C6_6 1_555 1_555
O2_6 C6_6 1_555 1_555
C1_6 C2_6 1_555 1_555
C2_6 H1_6 1_555 1_555
C3_6 N1_6 1_555 1_555
C4_6 C3_6 1_555 1_555
H2_5 C4_6 1_555 1_555
C5_6 C1_6 1_555 1_555
H3_5 C5_6 1_555 1_555
C6_6 C1_6 1_555 1_555
N2_6 Zn1_6 1_555 1_555
O3_6 C12_6 1_555 1_555
O4_6 C12_6 1_555 1_555
C7_6 C8_6 1_555 1_555
C8_6 N2_6 1_555 1_555
H4_6 C8_6 1_555 1_555
C9_6 C3_6 1_555 1_555
C10_6 C9_6 1_555 1_555
H5_5 C10_6 1_555 1_555
C11_6 C7_6 1_555 1_555
H6_5 C11_6 1_555 1_555
C12_6 C7_6 1_555 1_555
Zn5_2 O3_6 1_555 1_555
Zn4_2 O1_6 1_555 1_555
Zn3_2 O2_6 1_555 1_555
Zn2_2 O4_6 1_555 1_555
O5_6 Zn1_6 1_555 1_555
O6_6 Zn1_6 1_555 1_555
O7_6 Zn1_6 1_555 1_555
O8_6 Zn1_6 1_555 1_555
C4_6 C5_6 1_555 1_555
N2_6 C9_6 1_555 1_555
C10_6 C11_6 1_555 1_555
Zn1_7 N1_7 1_555 1_555
N1_7 C2_7 1_555 1_555
C1_7 C2_7 1_555 1_555
C2_7 H1_7 1_555 1_555
C3_7 N1_7 1_555 1_555
C4_7 C3_7 1_555 1_555
H2_6 C4_7 1_555 1_555
C5_7 C1_7 1_555 1_555
H3_6 C5_7 1_555 1_555
N2_7 Zn1_7 1_555 1_555
O3_7 C12_7 1_555 1_555
O4_7 C12_7 1_555 1_555
C7_7 C8_7 1_555 1_555
C8_7 N2_7 1_555 1_555
H4_7 C8_7 1_555 1_555
C9_7 C3_7 1_555 1_555
C10_7 C9_7 1_555 1_555
H5_6 C10_7 1_555 1_555
C11_7 C7_7 1_555 1_555
H6_6 C11_7 1_555 1_555
C12_7 C7_7 1_555 1_555
Zn5_2 O3_7 1_555 1_555
Zn2_2 O4_7 1_555 1_555
O5_7 Zn1_7 1_555 1_555
O6_7 Zn1_7 1_555 1_555
O7_7 Zn1_7 1_555 1_555
O8_7 Zn1_7 1_555 1_555
C4_7 C5_7 1_555 1_555
N2_7 C9_7 1_555 1_555
C10_7 C11_7 1_555 1_555
O1_7 C6_7 1_555 1_555
O2_7 C6_7 1_555 1_555
Zn4_2 O1_7 1_555 1_555
Zn3_2 O2_7 1_555 1_555
Zn1_8 N1_8 1_555 1_555
N1_8 C2_8 1_555 1_555
C1_8 C2_8 1_555 1_555
C2_8 H1_8 1_555 1_555
C3_8 N1_8 1_555 1_555
C4_8 C3_8 1_555 1_555
H2_7 C4_8 1_555 1_555
C5_8 C1_8 1_555 1_555
H3_7 C5_8 1_555 1_555
N2_8 Zn1_8 1_555 1_555
O3_8 C12_8 1_555 1_555
O4_8 C12_8 1_555 1_555
C7_8 C8_8 1_555 1_555
C8_8 N2_8 1_555 1_555
H4_8 C8_8 1_555 1_555
C9_8 C3_8 1_555 1_555
C10_8 C9_8 1_555 1_555
H5_7 C10_8 1_555 1_555
C11_8 C7_8 1_555 1_555
H6_7 C11_8 1_555 1_555
C12_8 C7_8 1_555 1_555
Zn2_2 O3_8 1_555 1_555
Zn5_2 O4_8 1_555 1_555
O5_8 Zn1_8 1_555 1_555
O6_8 Zn1_8 1_555 1_555
O7_8 Zn1_8 1_555 1_555
O8_8 Zn1_8 1_555 1_555
C4_8 C5_8 1_555 1_555
N2_8 C9_8 1_555 1_555
C10_8 C11_8 1_555 1_555
O1_8 C6_8 1_555 1_555
O2_8 C6_8 1_555 1_555
Zn3_2 O1_8 1_555 1_555
Zn4_2 O2_8 1_555 1_555
O6_3 C6_9 1_555 1_555
O7_5 C6_9 1_555 1_555
O6_2 C12_9 1_555 1_555
O7_8 C12_9 1_555 1_555
Zn4_2 N1_9 1_555 1_555
N1_9 C2_9 1_555 1_555
C1_9 C2_9 1_555 1_555
C2_9 H1_9 1_555 1_555
C3_9 N1_9 1_555 1_555
C4_9 C3_9 1_555 1_555
C5_9 C1_9 1_555 1_555
N2_9 Zn4_2 1_555 1_555
C7_9 C8_9 1_555 1_555
C8_9 N2_9 1_555 1_555
H4_9 C8_9 1_555 1_555
C9_9 C3_9 1_555 1_555
C10_9 C9_9 1_555 1_555
C11_9 C7_9 1_555 1_555
C4_9 C5_9 1_555 1_555
N2_9 C9_9 1_555 1_555
C10_9 C11_9 1_555 1_555
O5_8 C12_10 1_555 1_555
O8_2 C12_10 1_555 1_555
N1_10 C2_10 1_555 1_555
O5_5 C6_10 1_555 1_555
O8_3 C6_10 1_555 1_555
C1_10 C2_10 1_555 1_555
C2_10 H1_10 1_555 1_555
C3_10 N1_10 1_555 1_555
C4_10 C3_10 1_555 1_555
H2_8 C4_10 1_555 1_555
C5_10 C1_10 1_555 1_555
H3_8 C5_10 1_555 1_555
C6_10 C1_10 1_555 1_555
C7_10 C8_10 1_555 1_555
C8_10 N2_10 1_555 1_555
H4_10 C8_10 1_555 1_555
C9_10 C3_10 1_555 1_555
C10_10 C9_10 1_555 1_555
H5_8 C10_10 1_555 1_555
C11_10 C7_10 1_555 1_555
H6_8 C11_10 1_555 1_555
C4_10 C5_10 1_555 1_555
N2_10 C9_10 1_555 1_555
C10_10 C11_10 1_555 1_555
O6_5 C6_11 1_555 1_555
O7_3 C6_11 1_555 1_555
N1_11 C2_11 1_555 1_555
C1_11 C2_11 1_555 1_555
C2_11 H1_11 1_555 1_555
C3_11 N1_11 1_555 1_555
C4_11 C3_11 1_555 1_555
H2_9 C4_11 1_555 1_555
C5_11 C1_11 1_555 1_555
H3_9 C5_11 1_555 1_555
O6_8 C12_11 1_555 1_555
O7_2 C12_11 1_555 1_555
C7_11 C8_11 1_555 1_555
C8_11 N2_11 1_555 1_555
H4_11 C8_11 1_555 1_555
C9_11 C3_11 1_555 1_555
C10_11 C9_11 1_555 1_555
H5_9 C10_11 1_555 1_555
C11_11 C7_11 1_555 1_555
H6_9 C11_11 1_555 1_555
C12_11 C7_11 1_555 1_555
C4_11 C5_11 1_555 1_555
N2_11 C9_11 1_555 1_555
C10_11 C11_11 1_555 1_555
Zn5_2 N1_12 1_555 1_555
N1_12 C2_12 1_555 1_555
O5_3 C6_12 1_555 1_555
O8_5 C6_12 1_555 1_555
C1_12 C2_12 1_555 1_555
C2_12 H1_12 1_555 1_555
C3_12 N1_12 1_555 1_555
C4_12 C3_12 1_555 1_555
C5_12 C1_12 1_555 1_555
C6_12 C1_12 1_555 1_555
N2_12 Zn5_2 1_555 1_555
O5_2 C12_12 1_555 1_555
O8_8 C12_12 1_555 1_555
C7_12 C8_12 1_555 1_555
C8_12 N2_12 1_555 1_555
H4_12 C8_12 1_555 1_555
C9_12 C3_12 1_555 1_555
C10_12 C9_12 1_555 1_555
C11_12 C7_12 1_555 1_555
C12_12 C7_12 1_555 1_555
C4_12 C5_12 1_555 1_555
N2_12 C9_12 1_555 1_555
C10_12 C11_12 1_555 1_555
O6_7 C6_13 1_555 1_555
O7 C6_13 1_555 1_555
Zn4 N1_13 1_555 1_555
N1_13 C2_13 1_555 1_555
C1_13 C2_13 1_555 1_555
C2_13 H1_13 1_555 1_555
C3_13 N1_13 1_555 1_555
C4_13 C3_13 1_555 1_555
H2_10 C4_13 1_555 1_555
C5_13 C1_13 1_555 1_555
H3_10 C5_13 1_555 1_555
N2_13 Zn4 1_555 1_555
O6_6 C12_13 1_555 1_555
O7_4 C12_13 1_555 1_555
C7_13 C8_13 1_555 1_555
C8_13 N2_13 1_555 1_555
H4_13 C8_13 1_555 1_555
C9_13 C3_13 1_555 1_555
C10_13 C9_13 1_555 1_555
H5_10 C10_13 1_555 1_555
C11_13 C7_13 1_555 1_555
H6_10 C11_13 1_555 1_555
C12_13 C7_13 1_555 1_555
C4_13 C5_13 1_555 1_555
N2_13 C9_13 1_555 1_555
C10_13 C11_13 1_555 1_555
Zn2_2 N1_14 1_555 1_555
N1_14 C2_14 1_555 1_555
O5 C6_14 1_555 1_555
O8_7 C6_14 1_555 1_555
C1_14 C2_14 1_555 1_555
C2_14 H1_14 1_555 1_555
C3_14 N1_14 1_555 1_555
C4_14 C3_14 1_555 1_555
H2_11 C4_14 1_555 1_555
C5_14 C1_14 1_555 1_555
H3_11 C5_14 1_555 1_555
C6_14 C1_14 1_555 1_555
N2_14 Zn2_2 1_555 1_555
O5_4 C12_14 1_555 1_555
O8_6 C12_14 1_555 1_555
C7_14 C8_14 1_555 1_555
C8_14 N2_14 1_555 1_555
H4_14 C8_14 1_555 1_555
C9_14 C3_14 1_555 1_555
C10_14 C9_14 1_555 1_555
H5_11 C10_14 1_555 1_555
C11_14 C7_14 1_555 1_555
H6_11 C11_14 1_555 1_555
C12_14 C7_14 1_555 1_555
C4_14 C5_14 1_555 1_555
N2_14 C9_14 1_555 1_555
C10_14 C11_14 1_555 1_555
O6 C6_15 1_555 1_555
O7_7 C6_15 1_555 1_555
Zn3_2 N1_15 1_555 1_555
N1_15 C2_15 1_555 1_555
C1_15 C2_15 1_555 1_555
C2_15 H1_15 1_555 1_555
C3_15 N1_15 1_555 1_555
C4_15 C3_15 1_555 1_555
H2_12 C4_15 1_555 1_555
C5_15 C1_15 1_555 1_555
H3_12 C5_15 1_555 1_555
N2_15 Zn3_2 1_555 1_555
O6_4 C12_15 1_555 1_555
O7_6 C12_15 1_555 1_555
C7_15 C8_15 1_555 1_555
C8_15 N2_15 1_555 1_555
H4_15 C8_15 1_555 1_555
C9_15 C3_15 1_555 1_555
C10_15 C9_15 1_555 1_555
H5_12 C10_15 1_555 1_555
C11_15 C7_15 1_555 1_555
H6_12 C11_15 1_555 1_555
C12_15 C7_15 1_555 1_555
C4_15 C5_15 1_555 1_555
N2_15 C9_15 1_555 1_555
C10_15 C11_15 1_555 1_555
O5_7 C6_16 1_555 1_555
O8 C6_16 1_555 1_555
Zn5 N1_16 1_555 1_555
N1_16 C2_16 1_555 1_555
C1_16 C2_16 1_555 1_555
C2_16 H1_16 1_555 1_555
C3_16 N1_16 1_555 1_555
C4_16 C3_16 1_555 1_555
H2_13 C4_16 1_555 1_555
C5_16 C1_16 1_555 1_555
H3_13 C5_16 1_555 1_555
N2_16 Zn5 1_555 1_555
O5_6 C12_16 1_555 1_555
O8_4 C12_16 1_555 1_555
C7_16 C8_16 1_555 1_555
C8_16 N2_16 1_555 1_555
H4_16 C8_16 1_555 1_555
C9_16 C3_16 1_555 1_555
C10_16 C9_16 1_555 1_555
H5_13 C10_16 1_555 1_555
C11_16 C7_16 1_555 1_555
H6_13 C11_16 1_555 1_555
C12_16 C7_16 1_555 1_555
C4_16 C5_16 1_555 1_555
N2_16 C9_16 1_555 1_555
C10_16 C11_16 1_555 1_555

#END
