
###############################################################################
#
# This file contains modified crystal structure data generated from the
# MOF subset of the Cambridge Structural Database (CSD) v543 
# hosted by the Cambridge Crystallographic Data Centre (CCDC).
#
# This work is licensed under the Creative Commons
# Attribution-NonCommercial-ShareAlike 4.0 International License.
# To view a copy of this license, visit
# http://creativecommons.org/licenses/by-nc-sa/4.0/
# or send a letter to
# Creative Commons, PO Box 1866, Mountain View, CA 94042, USA.
#
# CIF created using the CSD Python API on 29 September 2022
# The structure has been converted into the P1 space group
# The structure has a 3D framework
# The original CSD entry CIQVIK is in the monoclinic crystal system
# The framework has been calculated to contain at least 10.0% void space
# The void calculation uses a probe of radius 1.32A, grid spacing 0.4
#
###############################################################################

data_CIQVIK
_chemical_formula_moiety         '(C360 H336 N96 Ni24)n'
_symmetry_cell_setting           triclinic
_symmetry_space_group_name_H-M   'P 1'
_symmetry_Int_Tables_number      1
_space_group_name_Hall           'P 1'
loop_
_symmetry_equiv_pos_site_id
_symmetry_equiv_pos_as_xyz
1 x,y,z
_cell_length_a                   23.421(5)
_cell_length_b                   12.739(3)
_cell_length_c                   40.238(8)
_cell_angle_alpha                90
_cell_angle_beta                 93.01(3)
_cell_angle_gamma                90
_cell_volume                     11988.9
loop_
_atom_site_label
_atom_site_type_symbol
_atom_site_fract_x
_atom_site_fract_y
_atom_site_fract_z
N6 N 0.54636(13) 0.16062(19) 0.29806(6)
N10 N 0.33561(8) 0.20030(16) 0.48921(5)
N12 N 0.91940(8) 0.11750(15) 0.19739(5)
C6 C 0.52833(12) 0.0990(2) 0.27927(6)
C21 C 0.57667(10) 0.05850(19) 0.38383(6)
H16 H 0.5687 0.1268 0.3754
C22 C 0.59289(9) 0.04501(19) 0.41730(6)
C25 C 0.59770(10) 0.1381(2) 0.44042(6)
H19 H 0.6189 0.1950 0.4297
H20 H 0.6198 0.1176 0.4611
C26 C 0.53860(10) 0.17934(19) 0.44941(6)
H21 H 0.5432 0.2481 0.4607
H22 H 0.5144 0.1899 0.4288
C27 C 0.50900(11) 0.1027(2) 0.47220(7)
H23 H 0.5083 0.0320 0.4620
H24 H 0.5313 0.0981 0.4937
C28 C 0.44868(10) 0.1358(2) 0.47835(6)
C29 C 0.43738(11) 0.2301(2) 0.49410(8)
H25 H 0.4680 0.2744 0.5017
C30 C 0.38134(11) 0.2593(2) 0.49875(7)
H26 H 0.3748 0.3247 0.5093
C31 C 0.34674(10) 0.10868(19) 0.47417(6)
H27 H 0.3154 0.0652 0.4671
C32 C 0.40179(11) 0.0745(2) 0.46847(6)
H28 H 0.4073 0.0090 0.4578
C42 C 0.91241(12) 0.0511(2) 0.25270(6)
H39 H 0.9068 0.0657 0.2755
C43 C 0.91073(12) 0.1321(2) 0.22982(6)
H40 H 0.9031 0.2012 0.2374
C44 C 0.92887(11) 0.01871(19) 0.18769(6)
H41 H 0.9353 0.0065 0.1649
N18 N 0.45364(13) 0.16062(19) 0.20194(6)
N22 N 0.66439(8) 0.20030(16) 0.01079(5)
N24 N 0.08060(8) 0.11750(15) 0.30261(5)
C51 C 0.47167(12) 0.0990(2) 0.22073(6)
C66 C 0.42333(10) 0.05850(19) 0.11617(6)
H58 H 0.4313 0.1268 0.1246
C67 C 0.40711(9) 0.04501(19) 0.08270(6)
C70 C 0.40230(10) 0.1381(2) 0.05958(6)
H61 H 0.3811 0.1950 0.0703
H62 H 0.3802 0.1176 0.0389
C71 C 0.46140(10) 0.17934(19) 0.05059(6)
H63 H 0.4568 0.2481 0.0393
H64 H 0.4856 0.1899 0.0712
C72 C 0.49100(11) 0.1027(2) 0.02780(7)
H65 H 0.4917 0.0320 0.0380
H66 H 0.4687 0.0981 0.0063
C73 C 0.55132(10) 0.1358(2) 0.02165(6)
C74 C 0.56262(11) 0.2301(2) 0.00590(8)
C75 C 0.61866(11) 0.2593(2) 0.00125(7)
C76 C 0.65326(10) 0.10868(19) 0.02583(6)
H69 H 0.6846 0.0652 0.0329
C77 C 0.59821(11) 0.0745(2) 0.03153(6)
H70 H 0.5927 0.0090 0.0422
C87 C 0.08759(12) 0.0511(2) 0.24730(6)
H81 H 0.0932 0.0657 0.2245
C88 C 0.08927(12) 0.1321(2) 0.27018(6)
H82 H 0.0969 0.2012 0.2626
C89 C 0.07113(11) 0.01871(19) 0.31231(6)
H83 H 0.0647 0.0065 0.3351
Ni7 Ni 0.08225(2) 0.24453(2) 0.33719(2)
Ni8 Ni 0.91775(2) 0.24453(2) 0.16281(2)
Ni11 Ni 0.2500 0.2500 0.5000
Ni13 Ni 0.7500 0.2500 0.0000
H67 H 0.5320 0.2744 0.9983
H68 H 0.6252 0.3247 0.9907
Ni13_2 Ni 0.7500 0.2500 1.0000
Ni1 Ni 0.68570(2) 0.48474(2) 0.41321(2)
Ni2 Ni 0.58225(2) 0.74453(2) 0.33719(2)
Ni3 Ni 0.7500 0.7500 0.5000
Ni4 Ni 0.5000 0.99620(3) 0.2500
N1 N 0.61837(8) 0.64524(16) 0.37277(5)
N2 N 0.65831(14) 0.3225(2) 0.36038(7)
N3 N 0.76828(18) 0.3398(3) 0.45038(9)
N4 N 0.71685(8) 0.64529(16) 0.46568(5)
N5 N 0.54659(8) 0.83917(15) 0.30005(5)
N7 N 0.49983(8) 0.70605(16) 0.35194(5)
N8 N 0.25245(8) 0.36707(16) 0.46191(5)
N9 N 0.58478(8) 0.87369(15) 0.37262(5)
N11 N 0.66477(8) 0.78732(16) 0.32287(5)
C1 C 0.64227(10) 0.58295(18) 0.38884(6)
C2 C 0.66864(12) 0.3836(2) 0.38071(7)
C3 C 0.73549(15) 0.3922(2) 0.43587(7)
C4 C 0.70345(10) 0.58468(19) 0.44565(6)
C5 C 0.52827(10) 0.89571(18) 0.28009(6)
C7 C 0.45483(10) 0.6996(2) 0.33015(6)
H1 H 0.4611 0.7058 0.3071
C8 C 0.39941(11) 0.6843(2) 0.33980(8)
H2 H 0.3688 0.6769 0.3235
C9 C 0.38890(12) 0.6798(2) 0.37426(7)
C10 C 0.43621(12) 0.6843(3) 0.39641(7)
H3 H 0.4317 0.6797 0.4197
C11 C 0.48975(11) 0.6955(2) 0.38443(7)
H4 H 0.5216 0.6958 0.4000
C12 C 0.32973(13) 0.6704(3) 0.38737(8)
H5 H 0.3327 0.6327 0.4089
H6 H 0.3151 0.7418 0.3917
C13 C 0.28684(12) 0.6140(2) 0.36440(7)
H7 H 0.3031 0.5463 0.3574
H8 H 0.2784 0.6570 0.3442
C14 C 0.23128(10) 0.5940(2) 0.38232(7)
H9 H 0.2174 0.6612 0.3913
H10 H 0.2016 0.5672 0.3661
C15 C 0.24000(10) 0.5163(2) 0.41028(6)
C16 C 0.24122(11) 0.5456(2) 0.44349(6)
H11 H 0.2379 0.6175 0.4493
C17 C 0.24733(11) 0.47000(19) 0.46815(6)
H12 H 0.2479 0.4922 0.4907
C18 C 0.25340(10) 0.33918(19) 0.42960(6)
H13 H 0.2584 0.2671 0.4244
C19 C 0.24755(10) 0.4099(2) 0.40366(6)
H14 H 0.2487 0.3862 0.3813
C20 C 0.57217(11) 0.97254(19) 0.36289(6)
H15 H 0.5595 0.9838 0.3404
C23 C 0.60451(10) 0.94282(19) 0.42779(6)
H17 H 0.6150 0.9291 0.4505
C24 C 0.60077(10) 0.86092(19) 0.40505(6)
H18 H 0.6100 0.7922 0.4127
C33 C 0.70726(11) 0.7178(2) 0.32274(7)
H29 H 0.6994 0.6468 0.3280
C34 C 0.76279(11) 0.7448(2) 0.31518(8)
H30 H 0.7919 0.6928 0.3155
C35 C 0.77557(11) 0.8483(2) 0.30717(6)
C36 C 0.73121(10) 0.9199(2) 0.30710(6)
H31 H 0.7378 0.9914 0.3018
C37 C 0.67712(10) 0.88708(19) 0.31483(6)
H32 H 0.6472 0.9375 0.3144
C38 C 0.83496(11) 0.8833(2) 0.29939(7)
H33 H 0.8594 0.8825 0.3202
H34 H 0.8330 0.9567 0.2913
C39 C 0.86320(11) 0.8163(2) 0.27356(6)
H35 H 0.8389 0.8164 0.2527
H36 H 0.8661 0.7430 0.2817
C40 C 0.92335(10) 0.8564(2) 0.26630(6)
H37 H 0.9435 0.8775 0.2875
H38 H 0.9453 0.7985 0.2567
C41 C 0.92224(9) 0.94823(19) 0.24268(6)
C45 C 0.92985(10) 0.93363(19) 0.20899(6)
H42 H 0.9357 0.8650 0.2006
Ni5 Ni 0.31430(2) 0.48474(2) 0.08679(2)
Ni6 Ni 0.41775(2) 0.74453(2) 0.16281(2)
N13 N 0.38163(8) 0.64524(16) 0.12723(5)
N14 N 0.34169(14) 0.3225(2) 0.13962(7)
N15 N 0.23172(18) 0.3398(3) 0.04962(9)
N16 N 0.28315(8) 0.64529(16) 0.03432(5)
N17 N 0.45341(8) 0.83917(15) 0.19995(5)
N19 N 0.50017(8) 0.70605(16) 0.14806(5)
N20 N 0.74755(8) 0.36707(16) 0.03809(5)
N21 N 0.41522(8) 0.87369(15) 0.12738(5)
N23 N 0.33523(8) 0.78732(16) 0.17713(5)
C46 C 0.35773(10) 0.58295(18) 0.11116(6)
C47 C 0.33136(12) 0.3836(2) 0.11929(7)
C48 C 0.26451(15) 0.3922(2) 0.06413(7)
C49 C 0.29655(10) 0.58468(19) 0.05435(6)
C50 C 0.47173(10) 0.89571(18) 0.21991(6)
C52 C 0.54517(10) 0.6996(2) 0.16985(6)
H43 H 0.5389 0.7058 0.1929
C53 C 0.60059(11) 0.6843(2) 0.16020(8)
H44 H 0.6312 0.6769 0.1765
C54 C 0.61110(12) 0.6798(2) 0.12574(7)
C55 C 0.56379(12) 0.6843(3) 0.10359(7)
H45 H 0.5683 0.6797 0.0803
C56 C 0.51025(11) 0.6955(2) 0.11557(7)
H46 H 0.4784 0.6958 0.1000
C57 C 0.67027(13) 0.6704(3) 0.11263(8)
H47 H 0.6673 0.6327 0.0911
H48 H 0.6849 0.7418 0.1083
C58 C 0.71316(12) 0.6140(2) 0.13560(7)
H49 H 0.6969 0.5463 0.1426
H50 H 0.7216 0.6570 0.1558
C59 C 0.76872(10) 0.5940(2) 0.11768(7)
H51 H 0.7826 0.6612 0.1087
H52 H 0.7984 0.5672 0.1339
C60 C 0.76000(10) 0.5163(2) 0.08972(6)
C61 C 0.75878(11) 0.5456(2) 0.05651(6)
H53 H 0.7621 0.6175 0.0507
C62 C 0.75267(11) 0.47000(19) 0.03185(6)
H54 H 0.7521 0.4922 0.0093
C63 C 0.74660(10) 0.33918(19) 0.07040(6)
H55 H 0.7416 0.2671 0.0756
C64 C 0.75245(10) 0.4099(2) 0.09634(6)
H56 H 0.7513 0.3862 0.1187
C65 C 0.42783(11) 0.97254(19) 0.13711(6)
H57 H 0.4405 0.9838 0.1596
C68 C 0.39549(10) 0.94282(19) 0.07221(6)
H59 H 0.3850 0.9291 0.0495
C69 C 0.39923(10) 0.86092(19) 0.09495(6)
H60 H 0.3900 0.7922 0.0873
C78 C 0.29274(11) 0.7178(2) 0.17726(7)
H71 H 0.3006 0.6468 0.1720
C79 C 0.23721(11) 0.7448(2) 0.18482(8)
H72 H 0.2081 0.6928 0.1845
C80 C 0.22443(11) 0.8483(2) 0.19283(6)
C81 C 0.26879(10) 0.9199(2) 0.19290(6)
H73 H 0.2622 0.9914 0.1982
C82 C 0.32288(10) 0.88708(19) 0.18517(6)
H74 H 0.3528 0.9375 0.1856
C83 C 0.16504(11) 0.8833(2) 0.20061(7)
H75 H 0.1406 0.8825 0.1798
H76 H 0.1670 0.9567 0.2087
C84 C 0.13680(11) 0.8163(2) 0.22644(6)
H77 H 0.1611 0.8164 0.2473
H78 H 0.1339 0.7430 0.2183
C85 C 0.07665(10) 0.8564(2) 0.23370(6)
H79 H 0.0565 0.8775 0.2125
H80 H 0.0547 0.7985 0.2433
C86 C 0.07776(9) 0.94823(19) 0.25732(6)
C90 C 0.07015(10) 0.93363(19) 0.29101(6)
H84 H 0.0643 0.8650 0.2994
Ni9 Ni 0.2500 0.7500 0.0000
N25 N 0.78315(8) 0.85471(16) 0.53432(5)
N26 N 0.75245(8) 0.86707(16) 0.46191(5)
N27 N 0.74755(8) 0.63293(16) 0.53809(5)
N28 N 0.83561(8) 0.70030(16) 0.48921(5)
N29 N 0.66439(8) 0.79970(16) 0.51079(5)
N30 N 0.41940(8) 0.61750(15) 0.19739(5)
N31 N 0.58060(8) 0.61750(15) 0.30261(5)
Ni9_2 Ni 0.2500 0.7500 1.0000
N26_2 N 0.24755(8) 0.86707(16) 0.03809(5)
N28_2 N 0.16439(8) 0.70030(16) 0.01079(5)
N25_2 N 0.21685(8) 0.85471(16) 0.96568(5)
N27_2 N 0.25245(8) 0.63293(16) 0.96191(5)
N29_2 N 0.33561(8) 0.79970(16) 0.98921(5)
Ni4_2 Ni -0.0000 0.49620(3) 0.2500
N1_2 N 0.11837(8) 0.14524(16) 0.37277(5)
N4_2 N 0.21685(8) 0.14529(16) 0.46568(5)
N5_2 N 0.04659(8) 0.33917(15) 0.30005(5)
N6_2 N 0.04636(13) 0.66062(19) 0.29806(6)
N9_2 N 0.08478(8) 0.37369(15) 0.37262(5)
N11_2 N 0.16477(8) 0.28732(16) 0.32287(5)
C1_2 C 0.14227(10) 0.08295(18) 0.38884(6)
C4_2 C 0.20345(10) 0.08468(19) 0.44565(6)
C5_2 C 0.02827(10) 0.39571(18) 0.28009(6)
C6_2 C 0.02833(12) 0.5990(2) 0.27927(6)
H4_2 H 0.0216 0.1958 0.4000
C20_2 C 0.07217(11) 0.47254(19) 0.36289(6)
H15_2 H 0.0595 0.4838 0.3404
C21_2 C 0.07667(10) 0.55850(19) 0.38383(6)
H16_2 H 0.0687 0.6268 0.3754
C22_2 C 0.09289(9) 0.54501(19) 0.41730(6)
C23_2 C 0.10451(10) 0.44282(19) 0.42779(6)
H17_2 H 0.1150 0.4291 0.4505
C24_2 C 0.10077(10) 0.36092(19) 0.40505(6)
H18_2 H 0.1100 0.2922 0.4127
C25_2 C 0.09770(10) 0.6381(2) 0.44042(6)
H19_2 H 0.1189 0.6950 0.4297
H20_2 H 0.1198 0.6176 0.4611
C26_2 C 0.03860(10) 0.67934(19) 0.44941(6)
H21_2 H 0.0432 0.7481 0.4607
H22_2 H 0.0144 0.6899 0.4288
C27_2 C 0.00900(11) 0.6027(2) 0.47220(7)
H23_2 H 0.0083 0.5320 0.4620
H24_2 H 0.0313 0.5981 0.4937
C33_2 C 0.20726(11) 0.2178(2) 0.32274(7)
H29_2 H 0.1994 0.1468 0.3280
C34_2 C 0.26279(11) 0.2448(2) 0.31518(8)
H30_2 H 0.2919 0.1928 0.3155
C35_2 C 0.27557(11) 0.3483(2) 0.30717(6)
C36_2 C 0.23121(10) 0.4199(2) 0.30710(6)
H31_2 H 0.2378 0.4914 0.3018
C37_2 C 0.17712(10) 0.38708(19) 0.31483(6)
H32_2 H 0.1472 0.4375 0.3144
C38_2 C 0.33496(11) 0.3833(2) 0.29939(7)
H33_2 H 0.3594 0.3825 0.3202
H34_2 H 0.3330 0.4567 0.2913
C39_2 C 0.36320(11) 0.3163(2) 0.27356(6)
H35_2 H 0.3389 0.3164 0.2527
H36_2 H 0.3661 0.2430 0.2817
C40_2 C 0.42335(10) 0.3564(2) 0.26630(6)
H37_2 H 0.4435 0.3775 0.2875
H38_2 H 0.4453 0.2985 0.2567
C41_2 C 0.42224(9) 0.44823(19) 0.24268(6)
C42_2 C 0.41241(12) 0.5511(2) 0.25270(6)
H39_2 H 0.4068 0.5657 0.2755
C43_2 C 0.41073(12) 0.6321(2) 0.22982(6)
H40_2 H 0.4031 0.7012 0.2374
C44_2 C 0.42887(11) 0.51871(19) 0.18769(6)
H41_2 H 0.4353 0.5065 0.1649
C45_2 C 0.42985(10) 0.43363(19) 0.20899(6)
H42_2 H 0.4357 0.3650 0.2006
N19_2 N 0.00017(8) 0.20605(16) 0.14806(5)
C52_2 C 0.04517(10) 0.1996(2) 0.16985(6)
H43_2 H 0.0389 0.2058 0.1929
C53_2 C 0.10059(11) 0.1843(2) 0.16020(8)
H44_2 H 0.1312 0.1769 0.1765
C54_2 C 0.11110(12) 0.1798(2) 0.12574(7)
C55_2 C 0.06379(12) 0.1843(3) 0.10359(7)
H45_2 H 0.0683 0.1797 0.0803
C56_2 C 0.01025(11) 0.1955(2) 0.11557(7)
C57_2 C 0.17027(13) 0.1704(3) 0.11263(8)
H47_2 H 0.1673 0.1327 0.0911
H48_2 H 0.1849 0.2418 0.1083
C58_2 C 0.21316(12) 0.1140(2) 0.13560(7)
H49_2 H 0.1969 0.0463 0.1426
H50_2 H 0.2216 0.1570 0.1558
C59_2 C 0.26872(10) 0.0940(2) 0.11768(7)
H51_2 H 0.2826 0.1612 0.1087
H52_2 H 0.2984 0.0672 0.1339
C60_2 C 0.26000(10) 0.0163(2) 0.08972(6)
C61_2 C 0.25878(11) 0.0456(2) 0.05651(6)
H53_2 H 0.2621 0.1175 0.0507
C73_2 C 0.05132(10) 0.6358(2) 0.02165(6)
C74_2 C 0.06262(11) 0.7301(2) 0.00590(8)
C75_2 C 0.11866(11) 0.7593(2) 0.00125(7)
C76_2 C 0.15326(10) 0.60868(19) 0.02583(6)
H69_2 H 0.1846 0.5652 0.0329
C77_2 C 0.09821(11) 0.5745(2) 0.03153(6)
H70_2 H 0.0927 0.5090 0.0422
N25_3 N 0.28315(8) 0.35471(16) 0.53432(5)
N27_3 N 0.24755(8) 0.13293(16) 0.53809(5)
N29_3 N 0.16439(8) 0.29970(16) 0.51079(5)
H67_2 H 0.0320 0.7744 0.9983
H68_2 H 0.1252 0.8247 0.9907
Ni1_2 Ni 0.18570(2) 0.98474(2) 0.41321(2)
N2_2 N 0.15831(14) 0.8225(2) 0.36038(7)
N3_2 N 0.26828(18) 0.8398(3) 0.45038(9)
C2_2 C 0.16864(12) 0.8836(2) 0.38071(7)
C3_2 C 0.23549(15) 0.8922(2) 0.43587(7)
C62_2 C 0.25267(11) 0.97000(19) 0.03185(6)
H54_2 H 0.2521 0.9922 0.0093
C63_2 C 0.24660(10) 0.83918(19) 0.07040(6)
H55_2 H 0.2416 0.7671 0.0756
C64_2 C 0.25245(10) 0.9099(2) 0.09634(6)
H56_2 H 0.2513 0.8862 0.1187
Ni4_3 Ni 1.0000 0.49620(3) 0.2500
N7_2 N 0.99983(8) 0.20605(16) 0.35194(5)
C7_2 C 0.95483(10) 0.1996(2) 0.33015(6)
H1_2 H 0.9611 0.2058 0.3071
C8_2 C 0.89941(11) 0.1843(2) 0.33980(8)
H2_2 H 0.8688 0.1769 0.3235
C9_2 C 0.88890(12) 0.1798(2) 0.37426(7)
C10_2 C 0.93621(12) 0.1843(3) 0.39641(7)
H3_2 H 0.9317 0.1797 0.4197
C11_2 C 0.98975(11) 0.1955(2) 0.38443(7)
C12_2 C 0.82973(13) 0.1704(3) 0.38737(8)
H5_2 H 0.8327 0.1327 0.4089
H6_2 H 0.8151 0.2418 0.3917
C13_2 C 0.78684(12) 0.1140(2) 0.36440(7)
H7_2 H 0.8031 0.0463 0.3574
H8_2 H 0.7784 0.1570 0.3442
C14_2 C 0.73128(10) 0.0940(2) 0.38232(7)
H9_2 H 0.7174 0.1612 0.3913
H10_2 H 0.7016 0.0672 0.3661
C15_2 C 0.74000(10) 0.0163(2) 0.41028(6)
C16_2 C 0.74122(11) 0.0456(2) 0.44349(6)
H11_2 H 0.7379 0.1175 0.4493
C28_2 C 0.94868(10) 0.6358(2) 0.47835(6)
C29_2 C 0.93738(11) 0.7301(2) 0.49410(8)
H25_2 H 0.9680 0.7744 0.5017
C30_2 C 0.88134(11) 0.7593(2) 0.49875(7)
H26_2 H 0.8748 0.8247 0.5093
C31_2 C 0.84674(10) 0.60868(19) 0.47417(6)
H27_2 H 0.8154 0.5652 0.4671
C32_2 C 0.90179(11) 0.5745(2) 0.46847(6)
H28_2 H 0.9073 0.5090 0.4578
N13_2 N 0.88163(8) 0.14524(16) 0.12723(5)
N16_2 N 0.78315(8) 0.14529(16) 0.03432(5)
N17_2 N 0.95341(8) 0.33917(15) 0.19995(5)
N18_2 N 0.95364(13) 0.66062(19) 0.20194(6)
N21_2 N 0.91522(8) 0.37369(15) 0.12738(5)
N23_2 N 0.83523(8) 0.28732(16) 0.17713(5)
C46_2 C 0.85773(10) 0.08295(18) 0.11116(6)
C49_2 C 0.79655(10) 0.08468(19) 0.05435(6)
C50_2 C 0.97173(10) 0.39571(18) 0.21991(6)
C51_2 C 0.97167(12) 0.5990(2) 0.22073(6)
H46_2 H 0.9784 0.1958 0.1000
C65_2 C 0.92783(11) 0.47254(19) 0.13711(6)
H57_2 H 0.9405 0.4838 0.1596
C66_2 C 0.92333(10) 0.55850(19) 0.11617(6)
H58_2 H 0.9313 0.6268 0.1246
C67_2 C 0.90711(9) 0.54501(19) 0.08270(6)
C68_2 C 0.89549(10) 0.44282(19) 0.07221(6)
H59_2 H 0.8850 0.4291 0.0495
C69_2 C 0.89923(10) 0.36092(19) 0.09495(6)
H60_2 H 0.8900 0.2922 0.0873
C70_2 C 0.90230(10) 0.6381(2) 0.05958(6)
H61_2 H 0.8811 0.6950 0.0703
H62_2 H 0.8802 0.6176 0.0389
C71_2 C 0.96140(10) 0.67934(19) 0.05059(6)
H63_2 H 0.9568 0.7481 0.0393
H64_2 H 0.9856 0.6899 0.0712
C72_2 C 0.99100(11) 0.6027(2) 0.02780(7)
H65_2 H 0.9917 0.5320 0.0380
H66_2 H 0.9687 0.5981 0.0063
C78_2 C 0.79274(11) 0.2178(2) 0.17726(7)
H71_2 H 0.8006 0.1468 0.1720
C79_2 C 0.73721(11) 0.2448(2) 0.18482(8)
H72_2 H 0.7081 0.1928 0.1845
C80_2 C 0.72443(11) 0.3483(2) 0.19283(6)
C81_2 C 0.76879(10) 0.4199(2) 0.19290(6)
H73_2 H 0.7622 0.4914 0.1982
C82_2 C 0.82288(10) 0.38708(19) 0.18517(6)
H74_2 H 0.8528 0.4375 0.1856
C83_2 C 0.66504(11) 0.3833(2) 0.20061(7)
H75_2 H 0.6406 0.3825 0.1798
H76_2 H 0.6670 0.4567 0.2087
C84_2 C 0.63680(11) 0.3163(2) 0.22644(6)
H77_2 H 0.6611 0.3164 0.2473
H78_2 H 0.6339 0.2430 0.2183
C85_2 C 0.57665(10) 0.3564(2) 0.23370(6)
H79_2 H 0.5565 0.3775 0.2125
H80_2 H 0.5547 0.2985 0.2433
C86_2 C 0.57776(9) 0.44823(19) 0.25732(6)
C87_2 C 0.58759(12) 0.5511(2) 0.24730(6)
H81_2 H 0.5932 0.5657 0.2245
C88_2 C 0.58927(12) 0.6321(2) 0.27018(6)
H82_2 H 0.5969 0.7012 0.2626
C89_2 C 0.57113(11) 0.51871(19) 0.31231(6)
H83_2 H 0.5647 0.5065 0.3351
C90_2 C 0.57015(10) 0.43363(19) 0.29101(6)
H84_2 H 0.5643 0.3650 0.2994
C17_2 C 0.74733(11) 0.97000(19) 0.46815(6)
H12_2 H 0.7479 0.9922 0.4907
C18_2 C 0.75340(10) 0.83918(19) 0.42960(6)
H13_2 H 0.7584 0.7671 0.4244
C19_2 C 0.74755(10) 0.9099(2) 0.40366(6)
H14_2 H 0.7487 0.8862 0.3813
Ni5_2 Ni 0.81430(2) 0.98474(2) 0.08679(2)
N14_2 N 0.84169(14) 0.8225(2) 0.13962(7)
N15_2 N 0.73172(18) 0.8398(3) 0.04962(9)
C47_2 C 0.83136(12) 0.8836(2) 0.11929(7)
C48_2 C 0.76451(15) 0.8922(2) 0.06413(7)
N25_4 N 0.71685(8) 0.35471(16) 0.96568(5)
N27_4 N 0.75245(8) 0.13293(16) 0.96191(5)
N29_4 N 0.83561(8) 0.29970(16) 0.98921(5)
Ni1_3 Ni 0.31430(2) 0.51526(2) 0.58679(2)
Ni2_2 Ni 0.41775(2) 0.25547(2) 0.66281(2)
Ni4_4 Ni 0.5000 0.00380(3) 0.7500
N1_3 N 0.38163(8) 0.35476(16) 0.62723(5)
N2_3 N 0.34169(14) 0.6775(2) 0.63962(7)
N3_3 N 0.23172(18) 0.6602(3) 0.54962(9)
N5_3 N 0.45341(8) 0.16083(15) 0.69995(5)
N7_3 N 0.50017(8) 0.29395(16) 0.64806(5)
N9_3 N 0.41522(8) 0.12631(15) 0.62738(5)
N11_3 N 0.33523(8) 0.21268(16) 0.67713(5)
C1_3 C 0.35773(10) 0.41705(18) 0.61116(6)
C2_3 C 0.33136(12) 0.6164(2) 0.61929(7)
C3_3 C 0.26451(15) 0.6078(2) 0.56413(7)
C4_3 C 0.29655(10) 0.41532(19) 0.55435(6)
C5_3 C 0.47173(10) 0.10429(18) 0.71991(6)
C7_3 C 0.54517(10) 0.3004(2) 0.66985(6)
H1_3 H 0.5389 0.2942 0.6929
C8_3 C 0.60059(11) 0.3157(2) 0.66020(8)
H2_3 H 0.6312 0.3231 0.6765
C9_3 C 0.61110(12) 0.3202(2) 0.62574(7)
C10_3 C 0.56379(12) 0.3157(3) 0.60359(7)
H3_3 H 0.5683 0.3203 0.5803
C11_3 C 0.51025(11) 0.3045(2) 0.61557(7)
H4_3 H 0.4784 0.3042 0.6000
C12_3 C 0.67027(13) 0.3296(3) 0.61263(8)
H5_3 H 0.6673 0.3673 0.5911
H6_3 H 0.6849 0.2582 0.6083
C13_3 C 0.71316(12) 0.3860(2) 0.63560(7)
H7_3 H 0.6969 0.4537 0.6426
H8_3 H 0.7216 0.3430 0.6558
C14_3 C 0.76872(10) 0.4060(2) 0.61768(7)
H9_3 H 0.7826 0.3388 0.6087
H10_3 H 0.7984 0.4328 0.6339
C15_3 C 0.76000(10) 0.4837(2) 0.58972(6)
C16_3 C 0.75878(11) 0.4544(2) 0.55651(6)
H11_3 H 0.7621 0.3825 0.5507
C17_3 C 0.75267(11) 0.53000(19) 0.53185(6)
H12_3 H 0.7521 0.5078 0.5093
C18_3 C 0.74660(10) 0.66082(19) 0.57040(6)
H13_3 H 0.7416 0.7329 0.5756
C19_3 C 0.75245(10) 0.5901(2) 0.59634(6)
H14_3 H 0.7513 0.6138 0.6187
C20_3 C 0.42783(11) 0.02746(19) 0.63711(6)
H15_3 H 0.4405 0.0162 0.6596
C23_3 C 0.39549(10) 0.05718(19) 0.57221(6)
H17_3 H 0.3850 0.0709 0.5495
C24_3 C 0.39923(10) 0.13908(19) 0.59495(6)
H18_3 H 0.3900 0.2078 0.5873
C33_3 C 0.29274(11) 0.2822(2) 0.67726(7)
H29_3 H 0.3006 0.3532 0.6720
C34_3 C 0.23721(11) 0.2552(2) 0.68482(8)
H30_3 H 0.2081 0.3072 0.6845
C35_3 C 0.22443(11) 0.1517(2) 0.69283(6)
C36_3 C 0.26879(10) 0.0801(2) 0.69290(6)
H31_3 H 0.2622 0.0086 0.6982
C37_3 C 0.32288(10) 0.11292(19) 0.68517(6)
H32_3 H 0.3528 0.0625 0.6856
C38_3 C 0.16504(11) 0.1167(2) 0.70061(7)
H33_3 H 0.1406 0.1175 0.6798
H34_3 H 0.1670 0.0433 0.7087
C39_3 C 0.13680(11) 0.1837(2) 0.72644(6)
H35_3 H 0.1611 0.1836 0.7473
H36_3 H 0.1339 0.2570 0.7183
C40_3 C 0.07665(10) 0.1436(2) 0.73370(6)
H37_3 H 0.0565 0.1225 0.7125
H38_3 H 0.0547 0.2015 0.7433
C41_3 C 0.07776(9) 0.05177(19) 0.75732(6)
C45_3 C 0.07015(10) 0.06637(19) 0.79101(6)
H42_3 H 0.0643 0.1350 0.7994
Ni5_3 Ni 0.68570(2) 0.51526(2) 0.91321(2)
Ni6_2 Ni 0.58225(2) 0.25547(2) 0.83719(2)
N13_3 N 0.61837(8) 0.35476(16) 0.87277(5)
N14_3 N 0.65831(14) 0.6775(2) 0.86038(7)
N15_3 N 0.76828(18) 0.6602(3) 0.95038(9)
N17_3 N 0.54659(8) 0.16083(15) 0.80005(5)
N19_3 N 0.49983(8) 0.29395(16) 0.85194(5)
N21_3 N 0.58478(8) 0.12631(15) 0.87262(5)
N23_3 N 0.66477(8) 0.21268(16) 0.82287(5)
C46_3 C 0.64227(10) 0.41705(18) 0.88884(6)
C47_3 C 0.66864(12) 0.6164(2) 0.88071(7)
C48_3 C 0.73549(15) 0.6078(2) 0.93587(7)
C49_3 C 0.70345(10) 0.41532(19) 0.94565(6)
C50_3 C 0.52827(10) 0.10429(18) 0.78009(6)
C52_3 C 0.45483(10) 0.3004(2) 0.83015(6)
H43_3 H 0.4611 0.2942 0.8071
C53_3 C 0.39941(11) 0.3157(2) 0.83980(8)
H44_3 H 0.3688 0.3231 0.8235
C54_3 C 0.38890(12) 0.3202(2) 0.87426(7)
C55_3 C 0.43621(12) 0.3157(3) 0.89641(7)
H45_3 H 0.4317 0.3203 0.9197
C56_3 C 0.48975(11) 0.3045(2) 0.88443(7)
H46_3 H 0.5216 0.3042 0.9000
C57_3 C 0.32973(13) 0.3296(3) 0.88737(8)
H47_3 H 0.3327 0.3673 0.9089
H48_3 H 0.3151 0.2582 0.8917
C58_3 C 0.28684(12) 0.3860(2) 0.86440(7)
H49_3 H 0.3031 0.4537 0.8574
H50_3 H 0.2784 0.3430 0.8442
C59_3 C 0.23128(10) 0.4060(2) 0.88232(7)
H51_3 H 0.2174 0.3388 0.8913
H52_3 H 0.2016 0.4328 0.8661
C60_3 C 0.24000(10) 0.4837(2) 0.91028(6)
C61_3 C 0.24122(11) 0.4544(2) 0.94349(6)
H53_3 H 0.2379 0.3825 0.9493
C62_3 C 0.24733(11) 0.53000(19) 0.96815(6)
H54_3 H 0.2479 0.5078 0.9907
C63_3 C 0.25340(10) 0.66082(19) 0.92960(6)
H55_3 H 0.2584 0.7329 0.9244
C64_3 C 0.24755(10) 0.5901(2) 0.90366(6)
H56_3 H 0.2487 0.6138 0.8813
C65_3 C 0.57217(11) 0.02746(19) 0.86289(6)
H57_3 H 0.5595 0.0162 0.8404
C68_3 C 0.60451(10) 0.05718(19) 0.92779(6)
H59_3 H 0.6150 0.0709 0.9505
C69_3 C 0.60077(10) 0.13908(19) 0.90505(6)
H60_3 H 0.6100 0.2078 0.9127
C78_3 C 0.70726(11) 0.2822(2) 0.82274(7)
H71_3 H 0.6994 0.3532 0.8280
C79_3 C 0.76279(11) 0.2552(2) 0.81518(8)
H72_3 H 0.7919 0.3072 0.8155
C80_3 C 0.77557(11) 0.1517(2) 0.80717(6)
C81_3 C 0.73121(10) 0.0801(2) 0.80710(6)
H73_3 H 0.7378 0.0086 0.8018
C82_3 C 0.67712(10) 0.11292(19) 0.81483(6)
H74_3 H 0.6472 0.0625 0.8144
C83_3 C 0.83496(11) 0.1167(2) 0.79939(7)
H75_3 H 0.8594 0.1175 0.8202
H76_3 H 0.8330 0.0433 0.7913
C84_3 C 0.86320(11) 0.1837(2) 0.77356(6)
H77_3 H 0.8389 0.1836 0.7527
H78_3 H 0.8661 0.2570 0.7817
C85_3 C 0.92335(10) 0.1436(2) 0.76630(6)
H79_3 H 0.9435 0.1225 0.7875
H80_3 H 0.9453 0.2015 0.7567
C86_3 C 0.92224(9) 0.05177(19) 0.74268(6)
C90_3 C 0.92985(10) 0.06637(19) 0.70899(6)
H84_3 H 0.9357 0.1350 0.7006
N30_2 N 0.58060(8) 0.38250(15) 0.80261(5)
N31_2 N 0.41940(8) 0.38250(15) 0.69739(5)
H67_3 H 0.4680 0.7256 0.0017
H68_3 H 0.3748 0.6753 0.0093
N6_3 N 0.45364(13) 0.83938(19) 0.70194(6)
N12_2 N 0.08060(8) 0.88250(15) 0.80261(5)
C6_3 C 0.47167(12) 0.9010(2) 0.72073(6)
C21_3 C 0.42333(10) 0.94150(19) 0.61617(6)
H16_3 H 0.4313 0.8732 0.6246
C22_3 C 0.40711(9) 0.95499(19) 0.58270(6)
C25_3 C 0.40230(10) 0.8619(2) 0.55958(6)
H19_3 H 0.3811 0.8050 0.5703
H20_3 H 0.3802 0.8824 0.5389
C26_3 C 0.46140(10) 0.82066(19) 0.55059(6)
H21_3 H 0.4568 0.7519 0.5393
H22_3 H 0.4856 0.8101 0.5712
C27_3 C 0.49100(11) 0.8973(2) 0.52780(7)
H23_3 H 0.4917 0.9680 0.5380
H24_3 H 0.4687 0.9019 0.5063
C28_3 C 0.55132(10) 0.8642(2) 0.52165(6)
C29_3 C 0.56262(11) 0.7699(2) 0.50590(8)
H25_3 H 0.5320 0.7256 0.4983
C30_3 C 0.61866(11) 0.7407(2) 0.50125(7)
H26_3 H 0.6252 0.6753 0.4907
C31_3 C 0.65326(10) 0.89132(19) 0.52583(6)
H27_3 H 0.6846 0.9348 0.5329
C32_3 C 0.59821(11) 0.9255(2) 0.53153(6)
H28_3 H 0.5927 0.9910 0.5422
C42_3 C 0.08759(12) 0.9489(2) 0.74730(6)
H39_3 H 0.0932 0.9343 0.7245
C43_3 C 0.08927(12) 0.8679(2) 0.77018(6)
H40_3 H 0.0969 0.7988 0.7626
C44_3 C 0.07113(11) 0.98129(19) 0.81231(6)
H41_3 H 0.0647 0.9935 0.8351
N18_3 N 0.54636(13) 0.83938(19) 0.79806(6)
N24_2 N 0.91940(8) 0.88250(15) 0.69739(5)
C51_3 C 0.52833(12) 0.9010(2) 0.77927(6)
C66_3 C 0.57667(10) 0.94150(19) 0.88383(6)
H58_3 H 0.5687 0.8732 0.8754
C67_3 C 0.59289(9) 0.95499(19) 0.91730(6)
C70_3 C 0.59770(10) 0.8619(2) 0.94042(6)
H61_3 H 0.6189 0.8050 0.9297
H62_3 H 0.6198 0.8824 0.9611
C71_3 C 0.53860(10) 0.82066(19) 0.94941(6)
H63_3 H 0.5432 0.7519 0.9607
H64_3 H 0.5144 0.8101 0.9288
C72_3 C 0.50900(11) 0.8973(2) 0.97220(7)
H65_3 H 0.5083 0.9680 0.9620
H66_3 H 0.5313 0.9019 0.9937
C73_3 C 0.44868(10) 0.8642(2) 0.97835(6)
C74_3 C 0.43738(11) 0.7699(2) 0.99410(8)
C75_3 C 0.38134(11) 0.7407(2) 0.99875(7)
C76_3 C 0.34674(10) 0.89132(19) 0.97417(6)
H69_3 H 0.3154 0.9348 0.9671
C77_3 C 0.40179(11) 0.9255(2) 0.96847(6)
H70_3 H 0.4073 0.9910 0.9578
C87_3 C 0.91241(12) 0.9489(2) 0.75270(6)
H81_3 H 0.9068 0.9343 0.7755
C88_3 C 0.91073(12) 0.8679(2) 0.72982(6)
H82_3 H 0.9031 0.7988 0.7374
C89_3 C 0.92887(11) 0.98129(19) 0.68769(6)
H83_3 H 0.9353 0.9935 0.6649
Ni7_2 Ni 0.91775(2) 0.75547(2) 0.66281(2)
Ni8_2 Ni 0.08225(2) 0.75547(2) 0.83719(2)
C17_4 C 0.25267(11) 0.03000(19) 0.53185(6)
H12_4 H 0.2521 0.0078 0.5093
C18_4 C 0.24660(10) 0.16082(19) 0.57040(6)
H13_4 H 0.2416 0.2329 0.5756
C19_4 C 0.25245(10) 0.0901(2) 0.59634(6)
H14_4 H 0.2513 0.1138 0.6187
Ni5_4 Ni 0.18570(2) 0.01526(2) 0.91321(2)
N14_4 N 0.15831(14) 0.1775(2) 0.86038(7)
N15_4 N 0.26828(18) 0.1602(3) 0.95038(9)
C47_4 C 0.16864(12) 0.1164(2) 0.88071(7)
C48_4 C 0.23549(15) 0.1078(2) 0.93587(7)
Ni4_5 Ni 0.0000 0.50380(3) 0.7500
N7_4 N 0.00017(8) 0.79395(16) 0.64806(5)
C7_4 C 0.04517(10) 0.8004(2) 0.66985(6)
H1_4 H 0.0389 0.7942 0.6929
C8_4 C 0.10059(11) 0.8157(2) 0.66020(8)
H2_4 H 0.1312 0.8231 0.6765
C9_4 C 0.11110(12) 0.8202(2) 0.62574(7)
C10_4 C 0.06379(12) 0.8157(3) 0.60359(7)
H3_4 H 0.0683 0.8203 0.5803
C11_4 C 0.01025(11) 0.8045(2) 0.61557(7)
C12_4 C 0.17027(13) 0.8296(3) 0.61263(8)
H5_4 H 0.1673 0.8673 0.5911
H6_4 H 0.1849 0.7582 0.6083
C13_4 C 0.21316(12) 0.8860(2) 0.63560(7)
H7_4 H 0.1969 0.9537 0.6426
H8_4 H 0.2216 0.8430 0.6558
C14_4 C 0.26872(10) 0.9060(2) 0.61768(7)
H9_4 H 0.2826 0.8388 0.6087
H10_4 H 0.2984 0.9328 0.6339
C15_4 C 0.26000(10) 0.9837(2) 0.58972(6)
C16_4 C 0.25878(11) 0.9544(2) 0.55651(6)
H11_4 H 0.2621 0.8825 0.5507
C28_4 C 0.05132(10) 0.3642(2) 0.52165(6)
C29_4 C 0.06262(11) 0.2699(2) 0.50590(8)
H25_4 H 0.0320 0.2256 0.4983
C30_4 C 0.11866(11) 0.2407(2) 0.50125(7)
H26_4 H 0.1252 0.1753 0.4907
C31_4 C 0.15326(10) 0.39132(19) 0.52583(6)
H27_4 H 0.1846 0.4348 0.5329
C32_4 C 0.09821(11) 0.4255(2) 0.53153(6)
H28_4 H 0.0927 0.4910 0.5422
N13_4 N 0.11837(8) 0.85476(16) 0.87277(5)
N17_4 N 0.04659(8) 0.66083(15) 0.80005(5)
N18_4 N 0.04636(13) 0.33938(19) 0.79806(6)
N21_4 N 0.08478(8) 0.62631(15) 0.87262(5)
N23_4 N 0.16477(8) 0.71268(16) 0.82287(5)
C46_4 C 0.14227(10) 0.91705(18) 0.88884(6)
C49_4 C 0.20345(10) 0.91532(19) 0.94565(6)
C50_4 C 0.02827(10) 0.60429(18) 0.78009(6)
C51_4 C 0.02833(12) 0.4010(2) 0.77927(6)
H46_4 H 0.0216 0.8042 0.9000
C65_4 C 0.07217(11) 0.52746(19) 0.86289(6)
H57_4 H 0.0595 0.5162 0.8404
C66_4 C 0.07667(10) 0.44150(19) 0.88383(6)
H58_4 H 0.0687 0.3732 0.8754
C67_4 C 0.09289(9) 0.45499(19) 0.91730(6)
C68_4 C 0.10451(10) 0.55718(19) 0.92779(6)
H59_4 H 0.1150 0.5709 0.9505
C69_4 C 0.10077(10) 0.63908(19) 0.90505(6)
H60_4 H 0.1100 0.7078 0.9127
C70_4 C 0.09770(10) 0.3619(2) 0.94042(6)
H61_4 H 0.1189 0.3050 0.9297
H62_4 H 0.1198 0.3824 0.9611
C71_4 C 0.03860(10) 0.32066(19) 0.94941(6)
H63_4 H 0.0432 0.2519 0.9607
H64_4 H 0.0144 0.3101 0.9288
C72_4 C 0.00900(11) 0.3973(2) 0.97220(7)
H65_4 H 0.0083 0.4680 0.9620
H66_4 H 0.0313 0.4019 0.9937
C78_4 C 0.20726(11) 0.7822(2) 0.82274(7)
H71_4 H 0.1994 0.8532 0.8280
C79_4 C 0.26279(11) 0.7552(2) 0.81518(8)
H72_4 H 0.2919 0.8072 0.8155
C80_4 C 0.27557(11) 0.6517(2) 0.80717(6)
C81_4 C 0.23121(10) 0.5801(2) 0.80710(6)
H73_4 H 0.2378 0.5086 0.8018
C82_4 C 0.17712(10) 0.61292(19) 0.81483(6)
H74_4 H 0.1472 0.5625 0.8144
C83_4 C 0.33496(11) 0.6167(2) 0.79939(7)
H75_4 H 0.3594 0.6175 0.8202
H76_4 H 0.3330 0.5433 0.7913
C84_4 C 0.36320(11) 0.6837(2) 0.77356(6)
H77_4 H 0.3389 0.6836 0.7527
H78_4 H 0.3661 0.7570 0.7817
C85_4 C 0.42335(10) 0.6436(2) 0.76630(6)
H79_4 H 0.4435 0.6225 0.7875
H80_4 H 0.4453 0.7015 0.7567
C86_4 C 0.42224(9) 0.55177(19) 0.74268(6)
C87_4 C 0.41241(12) 0.4489(2) 0.75270(6)
H81_4 H 0.4068 0.4343 0.7755
C88_4 C 0.41073(12) 0.3679(2) 0.72982(6)
H82_4 H 0.4031 0.2988 0.7374
C89_4 C 0.42887(11) 0.48129(19) 0.68769(6)
H83_4 H 0.4353 0.4935 0.6649
C90_4 C 0.42985(10) 0.56637(19) 0.70899(6)
H84_4 H 0.4357 0.6350 0.7006
Ni1_4 Ni 0.81430(2) 0.01526(2) 0.58679(2)
N2_4 N 0.84169(14) 0.1775(2) 0.63962(7)
N3_4 N 0.73172(18) 0.1602(3) 0.54962(9)
C2_4 C 0.83136(12) 0.1164(2) 0.61929(7)
C3_4 C 0.76451(15) 0.1078(2) 0.56413(7)
C62_4 C 0.74733(11) 0.03000(19) 0.96815(6)
H54_4 H 0.7479 0.0078 0.9907
C63_4 C 0.75340(10) 0.16082(19) 0.92960(6)
H55_4 H 0.7584 0.2329 0.9244
C64_4 C 0.74755(10) 0.0901(2) 0.90366(6)
H56_4 H 0.7487 0.1138 0.8813
H67_4 H 0.9680 0.2256 0.0017
H68_4 H 0.8748 0.1753 0.0093
Ni4_6 Ni 1.0000 0.50380(3) 0.7500
N1_4 N 0.88163(8) 0.85476(16) 0.62723(5)
N5_4 N 0.95341(8) 0.66083(15) 0.69995(5)
N6_4 N 0.95364(13) 0.33938(19) 0.70194(6)
N9_4 N 0.91522(8) 0.62631(15) 0.62738(5)
N11_4 N 0.83523(8) 0.71268(16) 0.67713(5)
C1_4 C 0.85773(10) 0.91705(18) 0.61116(6)
C4_4 C 0.79655(10) 0.91532(19) 0.55435(6)
C5_4 C 0.97173(10) 0.60429(18) 0.71991(6)
C6_4 C 0.97167(12) 0.4010(2) 0.72073(6)
H4_4 H 0.9784 0.8042 0.6000
C20_4 C 0.92783(11) 0.52746(19) 0.63711(6)
H15_4 H 0.9405 0.5162 0.6596
C21_4 C 0.92333(10) 0.44150(19) 0.61617(6)
H16_4 H 0.9313 0.3732 0.6246
C22_4 C 0.90711(9) 0.45499(19) 0.58270(6)
C23_4 C 0.89549(10) 0.55718(19) 0.57221(6)
H17_4 H 0.8850 0.5709 0.5495
C24_4 C 0.89923(10) 0.63908(19) 0.59495(6)
H18_4 H 0.8900 0.7078 0.5873
C25_4 C 0.90230(10) 0.3619(2) 0.55958(6)
H19_4 H 0.8811 0.3050 0.5703
H20_4 H 0.8802 0.3824 0.5389
C26_4 C 0.96140(10) 0.32066(19) 0.55059(6)
H21_4 H 0.9568 0.2519 0.5393
H22_4 H 0.9856 0.3101 0.5712
C27_4 C 0.99100(11) 0.3973(2) 0.52780(7)
H23_4 H 0.9917 0.4680 0.5380
H24_4 H 0.9687 0.4019 0.5063
C33_4 C 0.79274(11) 0.7822(2) 0.67726(7)
H29_4 H 0.8006 0.8532 0.6720
C34_4 C 0.73721(11) 0.7552(2) 0.68482(8)
H30_4 H 0.7081 0.8072 0.6845
C35_4 C 0.72443(11) 0.6517(2) 0.69283(6)
C36_4 C 0.76879(10) 0.5801(2) 0.69290(6)
H31_4 H 0.7622 0.5086 0.6982
C37_4 C 0.82288(10) 0.61292(19) 0.68517(6)
H32_4 H 0.8528 0.5625 0.6856
C38_4 C 0.66504(11) 0.6167(2) 0.70061(7)
H33_4 H 0.6406 0.6175 0.6798
H34_4 H 0.6670 0.5433 0.7087
C39_4 C 0.63680(11) 0.6837(2) 0.72644(6)
H35_4 H 0.6611 0.6836 0.7473
H36_4 H 0.6339 0.7570 0.7183
C40_4 C 0.57665(10) 0.6436(2) 0.73370(6)
H37_4 H 0.5565 0.6225 0.7125
H38_4 H 0.5547 0.7015 0.7433
C41_4 C 0.57776(9) 0.55177(19) 0.75732(6)
C42_4 C 0.58759(12) 0.4489(2) 0.74730(6)
H39_4 H 0.5932 0.4343 0.7245
C43_4 C 0.58927(12) 0.3679(2) 0.77018(6)
H40_4 H 0.5969 0.2988 0.7626
C44_4 C 0.57113(11) 0.48129(19) 0.81231(6)
H41_4 H 0.5647 0.4935 0.8351
C45_4 C 0.57015(10) 0.56637(19) 0.79101(6)
H42_4 H 0.5643 0.6350 0.7994
N19_4 N 0.99983(8) 0.79395(16) 0.85194(5)
C52_4 C 0.95483(10) 0.8004(2) 0.83015(6)
H43_4 H 0.9611 0.7942 0.8071
C53_4 C 0.89941(11) 0.8157(2) 0.83980(8)
H44_4 H 0.8688 0.8231 0.8235
C54_4 C 0.88890(12) 0.8202(2) 0.87426(7)
C55_4 C 0.93621(12) 0.8157(3) 0.89641(7)
H45_4 H 0.9317 0.8203 0.9197
C56_4 C 0.98975(11) 0.8045(2) 0.88443(7)
C57_4 C 0.82973(13) 0.8296(3) 0.88737(8)
H47_4 H 0.8327 0.8673 0.9089
H48_4 H 0.8151 0.7582 0.8917
C58_4 C 0.78684(12) 0.8860(2) 0.86440(7)
H49_4 H 0.8031 0.9537 0.8574
H50_4 H 0.7784 0.8430 0.8442
C59_4 C 0.73128(10) 0.9060(2) 0.88232(7)
H51_4 H 0.7174 0.8388 0.8913
H52_4 H 0.7016 0.9328 0.8661
C60_4 C 0.74000(10) 0.9837(2) 0.91028(6)
C61_4 C 0.74122(11) 0.9544(2) 0.94349(6)
H53_4 H 0.7379 0.8825 0.9493
C73_4 C 0.94868(10) 0.3642(2) 0.97835(6)
C74_4 C 0.93738(11) 0.2699(2) 0.99410(8)
C75_4 C 0.88134(11) 0.2407(2) 0.99875(7)
C76_4 C 0.84674(10) 0.39132(19) 0.97417(6)
H69_4 H 0.8154 0.4348 0.9671
C77_4 C 0.90179(11) 0.4255(2) 0.96847(6)
H70_4 H 0.9073 0.4910 0.9578
loop_
_geom_bond_atom_site_label_1
_geom_bond_atom_site_label_2
_geom_bond_site_symmetry_1
_geom_bond_site_symmetry_2
N6 C6 1_555 1_555
N10 C30 1_555 1_555
N12 C43 1_555 1_555
H16 C21 1_555 1_555
C22 C21 1_555 1_555
C25 C22 1_555 1_555
H19 C25 1_555 1_555
H20 C25 1_555 1_555
C26 C25 1_555 1_555
H21 C26 1_555 1_555
H22 C26 1_555 1_555
C27 C26 1_555 1_555
H23 C27 1_555 1_555
H24 C27 1_555 1_555
C28 C27 1_555 1_555
C29 C28 1_555 1_555
H25 C29 1_555 1_555
C30 C29 1_555 1_555
H26 C30 1_555 1_555
C31 N10 1_555 1_555
H27 C31 1_555 1_555
C32 C28 1_555 1_555
H28 C32 1_555 1_555
H39 C42 1_555 1_555
C43 C42 1_555 1_555
H40 C43 1_555 1_555
C44 N12 1_555 1_555
H41 C44 1_555 1_555
N18 C51 1_555 1_555
N22 C75 1_555 1_555
N24 C88 1_555 1_555
H58 C66 1_555 1_555
C67 C66 1_555 1_555
C70 C67 1_555 1_555
H61 C70 1_555 1_555
H62 C70 1_555 1_555
C71 C70 1_555 1_555
H63 C71 1_555 1_555
H64 C71 1_555 1_555
C72 C71 1_555 1_555
H65 C72 1_555 1_555
H66 C72 1_555 1_555
C73 C72 1_555 1_555
C74 C73 1_555 1_555
C75 C74 1_555 1_555
C76 N22 1_555 1_555
H69 C76 1_555 1_555
C77 C73 1_555 1_555
H70 C77 1_555 1_555
H81 C87 1_555 1_555
C88 C87 1_555 1_555
H82 C88 1_555 1_555
C89 N24 1_555 1_555
H83 C89 1_555 1_555
Ni7 N24 1_555 1_555
Ni8 N12 1_555 1_555
Ni11 N10 1_555 1_555
Ni13 N22 1_555 1_555
C31 C32 1_555 1_555
C76 C77 1_555 1_555
Ni1 C1 1_555 1_555
Ni2 N1 1_555 1_555
Ni3 N4 1_555 1_555
Ni4 C5 1_555 1_555
N1 C1 1_555 1_555
N2 C2 1_555 1_555
N3 C3 1_555 1_555
N4 C4 1_555 1_555
N5 Ni2 1_555 1_555
N7 Ni2 1_555 1_555
N8 C17 1_555 1_555
N9 Ni2 1_555 1_555
N11 Ni2 1_555 1_555
C2 Ni1 1_555 1_555
C3 Ni1 1_555 1_555
C4 Ni1 1_555 1_555
C5 N5 1_555 1_555
C7 N7 1_555 1_555
H1 C7 1_555 1_555
C8 C7 1_555 1_555
H2 C8 1_555 1_555
C9 C8 1_555 1_555
C10 C9 1_555 1_555
H3 C10 1_555 1_555
C11 N7 1_555 1_555
H4 C11 1_555 1_555
C12 C9 1_555 1_555
H5 C12 1_555 1_555
H6 C12 1_555 1_555
C13 C12 1_555 1_555
H7 C13 1_555 1_555
H8 C13 1_555 1_555
C14 C13 1_555 1_555
H9 C14 1_555 1_555
H10 C14 1_555 1_555
C15 C14 1_555 1_555
C16 C15 1_555 1_555
H11 C16 1_555 1_555
C17 C16 1_555 1_555
H12 C17 1_555 1_555
C18 N8 1_555 1_555
H13 C18 1_555 1_555
C19 C15 1_555 1_555
H14 C19 1_555 1_555
C20 N9 1_555 1_555
H15 C20 1_555 1_555
H17 C23 1_555 1_555
C24 N9 1_555 1_555
H18 C24 1_555 1_555
C33 N11 1_555 1_555
H29 C33 1_555 1_555
C34 C33 1_555 1_555
H30 C34 1_555 1_555
C35 C34 1_555 1_555
C36 C35 1_555 1_555
H31 C36 1_555 1_555
C37 N11 1_555 1_555
H32 C37 1_555 1_555
C38 C35 1_555 1_555
H33 C38 1_555 1_555
H34 C38 1_555 1_555
C39 C38 1_555 1_555
H35 C39 1_555 1_555
H36 C39 1_555 1_555
C40 C39 1_555 1_555
H37 C40 1_555 1_555
H38 C40 1_555 1_555
C41 C40 1_555 1_555
C45 C41 1_555 1_555
H42 C45 1_555 1_555
Ni5 C46 1_555 1_555
Ni6 N13 1_555 1_555
N13 C46 1_555 1_555
N14 C47 1_555 1_555
N15 C48 1_555 1_555
N16 C49 1_555 1_555
N17 Ni6 1_555 1_555
N19 Ni6 1_555 1_555
N20 C62 1_555 1_555
N21 Ni6 1_555 1_555
N23 Ni6 1_555 1_555
C47 Ni5 1_555 1_555
C48 Ni5 1_555 1_555
C49 Ni5 1_555 1_555
C50 Ni4 1_555 1_555
C52 N19 1_555 1_555
H43 C52 1_555 1_555
C53 C52 1_555 1_555
H44 C53 1_555 1_555
C54 C53 1_555 1_555
C55 C54 1_555 1_555
H45 C55 1_555 1_555
C56 N19 1_555 1_555
H46 C56 1_555 1_555
C57 C54 1_555 1_555
H47 C57 1_555 1_555
H48 C57 1_555 1_555
C58 C57 1_555 1_555
H49 C58 1_555 1_555
H50 C58 1_555 1_555
C59 C58 1_555 1_555
H51 C59 1_555 1_555
H52 C59 1_555 1_555
C60 C59 1_555 1_555
C61 C60 1_555 1_555
H53 C61 1_555 1_555
C62 C61 1_555 1_555
H54 C62 1_555 1_555
C63 N20 1_555 1_555
H55 C63 1_555 1_555
C64 C60 1_555 1_555
H56 C64 1_555 1_555
C65 N21 1_555 1_555
H57 C65 1_555 1_555
H59 C68 1_555 1_555
C69 N21 1_555 1_555
H60 C69 1_555 1_555
C78 N23 1_555 1_555
H71 C78 1_555 1_555
C79 C78 1_555 1_555
H72 C79 1_555 1_555
C80 C79 1_555 1_555
C81 C80 1_555 1_555
H73 C81 1_555 1_555
C82 N23 1_555 1_555
H74 C82 1_555 1_555
C83 C80 1_555 1_555
H75 C83 1_555 1_555
H76 C83 1_555 1_555
C84 C83 1_555 1_555
H77 C84 1_555 1_555
H78 C84 1_555 1_555
C85 C84 1_555 1_555
H79 C85 1_555 1_555
H80 C85 1_555 1_555
C86 C85 1_555 1_555
C90 C86 1_555 1_555
H84 C90 1_555 1_555
Ni9 N16 1_555 1_555
Ni11 N8 1_555 1_555
Ni13 N20 1_555 1_555
N25 Ni3 1_555 1_555
N26 Ni3 1_555 1_555
N27 Ni3 1_555 1_555
N28 Ni3 1_555 1_555
N29 Ni3 1_555 1_555
N30 Ni6 1_555 1_555
N31 Ni2 1_555 1_555
C10 C11 1_555 1_555
C18 C19 1_555 1_555
C23 C24 1_555 1_555
C36 C37 1_555 1_555
N17 C50 1_555 1_555
C55 C56 1_555 1_555
C63 C64 1_555 1_555
C68 C69 1_555 1_555
C81 C82 1_555 1_555
N26_2 Ni9 1_555 1_555
N28_2 Ni9 1_555 1_555
N25_2 Ni9_2 1_555 1_555
N27_2 Ni9_2 1_555 1_555
N29_2 Ni9_2 1_555 1_555
Ni7 N1_2 1_555 1_555
Ni11 N4_2 1_555 1_555
Ni4_2 C5_2 1_555 1_555
N1_2 C1_2 1_555 1_555
N4_2 C4_2 1_555 1_555
N5_2 Ni7 1_555 1_555
N6_2 C6_2 1_555 1_555
N9_2 Ni7 1_555 1_555
N11_2 Ni7 1_555 1_555
N30 C43_2 1_555 1_555
C5_2 N5_2 1_555 1_555
C6_2 Ni4_2 1_555 1_555
C20_2 N9_2 1_555 1_555
H15_2 C20_2 1_555 1_555
C21_2 C20_2 1_555 1_555
H16_2 C21_2 1_555 1_555
C22_2 C21_2 1_555 1_555
C23_2 C22_2 1_555 1_555
H17_2 C23_2 1_555 1_555
C24_2 N9_2 1_555 1_555
H18_2 C24_2 1_555 1_555
C25_2 C22_2 1_555 1_555
H19_2 C25_2 1_555 1_555
H20_2 C25_2 1_555 1_555
C26_2 C25_2 1_555 1_555
H21_2 C26_2 1_555 1_555
H22_2 C26_2 1_555 1_555
C27_2 C26_2 1_555 1_555
H23_2 C27_2 1_555 1_555
H24_2 C27_2 1_555 1_555
C33_2 N11_2 1_555 1_555
H29_2 C33_2 1_555 1_555
C34_2 C33_2 1_555 1_555
H30_2 C34_2 1_555 1_555
C35_2 C34_2 1_555 1_555
C36_2 C35_2 1_555 1_555
H31_2 C36_2 1_555 1_555
C37_2 N11_2 1_555 1_555
H32_2 C37_2 1_555 1_555
C38_2 C35_2 1_555 1_555
H33_2 C38_2 1_555 1_555
H34_2 C38_2 1_555 1_555
C39_2 C38_2 1_555 1_555
H35_2 C39_2 1_555 1_555
H36_2 C39_2 1_555 1_555
C40_2 C39_2 1_555 1_555
H37_2 C40_2 1_555 1_555
H38_2 C40_2 1_555 1_555
C41_2 C40_2 1_555 1_555
C42_2 C41_2 1_555 1_555
H39_2 C42_2 1_555 1_555
C43_2 C42_2 1_555 1_555
H40_2 C43_2 1_555 1_555
C44_2 N30 1_555 1_555
H41_2 C44_2 1_555 1_555
C45_2 C41_2 1_555 1_555
H42_2 C45_2 1_555 1_555
N28_2 C75_2 1_555 1_555
C52_2 N19_2 1_555 1_555
H43_2 C52_2 1_555 1_555
C53_2 C52_2 1_555 1_555
H44_2 C53_2 1_555 1_555
C54_2 C53_2 1_555 1_555
C55_2 C54_2 1_555 1_555
H45_2 C55_2 1_555 1_555
C56_2 N19_2 1_555 1_555
C57_2 C54_2 1_555 1_555
H47_2 C57_2 1_555 1_555
H48_2 C57_2 1_555 1_555
C58_2 C57_2 1_555 1_555
H49_2 C58_2 1_555 1_555
H50_2 C58_2 1_555 1_555
C59_2 C58_2 1_555 1_555
H51_2 C59_2 1_555 1_555
H52_2 C59_2 1_555 1_555
C60_2 C59_2 1_555 1_555
C61_2 C60_2 1_555 1_555
H53_2 C61_2 1_555 1_555
C74_2 C73_2 1_555 1_555
C75_2 C74_2 1_555 1_555
C76_2 N28_2 1_555 1_555
H69_2 C76_2 1_555 1_555
C77_2 C73_2 1_555 1_555
H70_2 C77_2 1_555 1_555
N25_3 Ni11 1_555 1_555
N27_3 Ni11 1_555 1_555
N29_3 Ni11 1_555 1_555
C23_2 C24_2 1_555 1_555
C36_2 C37_2 1_555 1_555
C44_2 C45_2 1_555 1_555
C55_2 C56_2 1_555 1_555
C76_2 C77_2 1_555 1_555
N2_2 C2_2 1_555 1_555
N3_2 C3_2 1_555 1_555
C2_2 Ni1_2 1_555 1_555
C3_2 Ni1_2 1_555 1_555
N26_2 C62_2 1_555 1_555
H54_2 C62_2 1_555 1_555
C63_2 N26_2 1_555 1_555
H55_2 C63_2 1_555 1_555
H56_2 C64_2 1_555 1_555
C63_2 C64_2 1_555 1_555
N28 C30_2 1_555 1_555
C7_2 N7_2 1_555 1_555
H1_2 C7_2 1_555 1_555
C8_2 C7_2 1_555 1_555
H2_2 C8_2 1_555 1_555
C9_2 C8_2 1_555 1_555
C10_2 C9_2 1_555 1_555
H3_2 C10_2 1_555 1_555
C11_2 N7_2 1_555 1_555
C12_2 C9_2 1_555 1_555
H5_2 C12_2 1_555 1_555
H6_2 C12_2 1_555 1_555
C13_2 C12_2 1_555 1_555
H7_2 C13_2 1_555 1_555
H8_2 C13_2 1_555 1_555
C14_2 C13_2 1_555 1_555
H9_2 C14_2 1_555 1_555
H10_2 C14_2 1_555 1_555
C15_2 C14_2 1_555 1_555
C16_2 C15_2 1_555 1_555
H11_2 C16_2 1_555 1_555
C29_2 C28_2 1_555 1_555
H25_2 C29_2 1_555 1_555
C30_2 C29_2 1_555 1_555
H26_2 C30_2 1_555 1_555
C31_2 N28 1_555 1_555
H27_2 C31_2 1_555 1_555
C32_2 C28_2 1_555 1_555
H28_2 C32_2 1_555 1_555
Ni8 N13_2 1_555 1_555
N13_2 C46_2 1_555 1_555
N16_2 C49_2 1_555 1_555
N17_2 Ni8 1_555 1_555
N18_2 C51_2 1_555 1_555
N21_2 Ni8 1_555 1_555
N23_2 Ni8 1_555 1_555
N31 C88_2 1_555 1_555
C50_2 Ni4_3 1_555 1_555
C51_2 Ni4_3 1_555 1_555
C65_2 N21_2 1_555 1_555
H57_2 C65_2 1_555 1_555
C66_2 C65_2 1_555 1_555
H58_2 C66_2 1_555 1_555
C67_2 C66_2 1_555 1_555
C68_2 C67_2 1_555 1_555
H59_2 C68_2 1_555 1_555
C69_2 N21_2 1_555 1_555
H60_2 C69_2 1_555 1_555
C70_2 C67_2 1_555 1_555
H61_2 C70_2 1_555 1_555
H62_2 C70_2 1_555 1_555
C71_2 C70_2 1_555 1_555
H63_2 C71_2 1_555 1_555
H64_2 C71_2 1_555 1_555
C72_2 C71_2 1_555 1_555
H65_2 C72_2 1_555 1_555
H66_2 C72_2 1_555 1_555
C78_2 N23_2 1_555 1_555
H71_2 C78_2 1_555 1_555
C79_2 C78_2 1_555 1_555
H72_2 C79_2 1_555 1_555
C80_2 C79_2 1_555 1_555
C81_2 C80_2 1_555 1_555
H73_2 C81_2 1_555 1_555
C82_2 N23_2 1_555 1_555
H74_2 C82_2 1_555 1_555
C83_2 C80_2 1_555 1_555
H75_2 C83_2 1_555 1_555
H76_2 C83_2 1_555 1_555
C84_2 C83_2 1_555 1_555
H77_2 C84_2 1_555 1_555
H78_2 C84_2 1_555 1_555
C85_2 C84_2 1_555 1_555
H79_2 C85_2 1_555 1_555
H80_2 C85_2 1_555 1_555
C86_2 C85_2 1_555 1_555
C87_2 C86_2 1_555 1_555
H81_2 C87_2 1_555 1_555
C88_2 C87_2 1_555 1_555
H82_2 C88_2 1_555 1_555
C89_2 N31 1_555 1_555
H83_2 C89_2 1_555 1_555
C90_2 C86_2 1_555 1_555
H84_2 C90_2 1_555 1_555
Ni13 N16_2 1_555 1_555
C10_2 C11_2 1_555 1_555
C31_2 C32_2 1_555 1_555
N17_2 C50_2 1_555 1_555
C68_2 C69_2 1_555 1_555
C81_2 C82_2 1_555 1_555
C89_2 C90_2 1_555 1_555
N26 C17_2 1_555 1_555
H12_2 C17_2 1_555 1_555
C18_2 N26 1_555 1_555
H13_2 C18_2 1_555 1_555
H14_2 C19_2 1_555 1_555
N14_2 C47_2 1_555 1_555
N15_2 C48_2 1_555 1_555
C47_2 Ni5_2 1_555 1_555
C48_2 Ni5_2 1_555 1_555
C18_2 C19_2 1_555 1_555
N25_4 Ni13_2 1_555 1_555
N27_4 Ni13_2 1_555 1_555
N29_4 Ni13_2 1_555 1_555
Ni1_3 C1_3 1_555 1_555
Ni2_2 N1_3 1_555 1_555
Ni4_4 C5_3 1_555 1_555
N1_3 C1_3 1_555 1_555
N2_3 C2_3 1_555 1_555
N3_3 C3_3 1_555 1_555
N25_3 C4_3 1_555 1_555
N5_3 Ni2_2 1_555 1_555
N7_3 Ni2_2 1_555 1_555
N27 C17_3 1_555 1_555
N9_3 Ni2_2 1_555 1_555
N11_3 Ni2_2 1_555 1_555
C2_3 Ni1_3 1_555 1_555
C3_3 Ni1_3 1_555 1_555
C4_3 Ni1_3 1_555 1_555
C5_3 N5_3 1_555 1_555
C7_3 N7_3 1_555 1_555
H1_3 C7_3 1_555 1_555
C8_3 C7_3 1_555 1_555
H2_3 C8_3 1_555 1_555
C9_3 C8_3 1_555 1_555
C10_3 C9_3 1_555 1_555
H3_3 C10_3 1_555 1_555
C11_3 N7_3 1_555 1_555
H4_3 C11_3 1_555 1_555
C12_3 C9_3 1_555 1_555
H5_3 C12_3 1_555 1_555
H6_3 C12_3 1_555 1_555
C13_3 C12_3 1_555 1_555
H7_3 C13_3 1_555 1_555
H8_3 C13_3 1_555 1_555
C14_3 C13_3 1_555 1_555
H9_3 C14_3 1_555 1_555
H10_3 C14_3 1_555 1_555
C15_3 C14_3 1_555 1_555
C16_3 C15_3 1_555 1_555
H11_3 C16_3 1_555 1_555
C17_3 C16_3 1_555 1_555
H12_3 C17_3 1_555 1_555
C18_3 N27 1_555 1_555
H13_3 C18_3 1_555 1_555
C19_3 C15_3 1_555 1_555
H14_3 C19_3 1_555 1_555
C20_3 N9_3 1_555 1_555
H15_3 C20_3 1_555 1_555
H17_3 C23_3 1_555 1_555
C24_3 N9_3 1_555 1_555
H18_3 C24_3 1_555 1_555
C33_3 N11_3 1_555 1_555
H29_3 C33_3 1_555 1_555
C34_3 C33_3 1_555 1_555
H30_3 C34_3 1_555 1_555
C35_3 C34_3 1_555 1_555
C36_3 C35_3 1_555 1_555
H31_3 C36_3 1_555 1_555
C37_3 N11_3 1_555 1_555
H32_3 C37_3 1_555 1_555
C38_3 C35_3 1_555 1_555
H33_3 C38_3 1_555 1_555
H34_3 C38_3 1_555 1_555
C39_3 C38_3 1_555 1_555
H35_3 C39_3 1_555 1_555
H36_3 C39_3 1_555 1_555
C40_3 C39_3 1_555 1_555
H37_3 C40_3 1_555 1_555
H38_3 C40_3 1_555 1_555
C41_3 C40_3 1_555 1_555
C45_3 C41_3 1_555 1_555
H42_3 C45_3 1_555 1_555
Ni5_3 C46_3 1_555 1_555
Ni6_2 N13_3 1_555 1_555
N13_3 C46_3 1_555 1_555
N14_3 C47_3 1_555 1_555
N15_3 C48_3 1_555 1_555
N25_4 C49_3 1_555 1_555
N17_3 Ni6_2 1_555 1_555
N19_3 Ni6_2 1_555 1_555
N27_2 C62_3 1_555 1_555
N21_3 Ni6_2 1_555 1_555
N23_3 Ni6_2 1_555 1_555
C47_3 Ni5_3 1_555 1_555
C48_3 Ni5_3 1_555 1_555
C49_3 Ni5_3 1_555 1_555
C50_3 Ni4_4 1_555 1_555
C52_3 N19_3 1_555 1_555
H43_3 C52_3 1_555 1_555
C53_3 C52_3 1_555 1_555
H44_3 C53_3 1_555 1_555
C54_3 C53_3 1_555 1_555
C55_3 C54_3 1_555 1_555
H45_3 C55_3 1_555 1_555
C56_3 N19_3 1_555 1_555
H46_3 C56_3 1_555 1_555
C57_3 C54_3 1_555 1_555
H47_3 C57_3 1_555 1_555
H48_3 C57_3 1_555 1_555
C58_3 C57_3 1_555 1_555
H49_3 C58_3 1_555 1_555
H50_3 C58_3 1_555 1_555
C59_3 C58_3 1_555 1_555
H51_3 C59_3 1_555 1_555
H52_3 C59_3 1_555 1_555
C60_3 C59_3 1_555 1_555
C61_3 C60_3 1_555 1_555
H53_3 C61_3 1_555 1_555
C62_3 C61_3 1_555 1_555
H54_3 C62_3 1_555 1_555
C63_3 N27_2 1_555 1_555
H55_3 C63_3 1_555 1_555
C64_3 C60_3 1_555 1_555
H56_3 C64_3 1_555 1_555
C65_3 N21_3 1_555 1_555
H57_3 C65_3 1_555 1_555
H59_3 C68_3 1_555 1_555
C69_3 N21_3 1_555 1_555
H60_3 C69_3 1_555 1_555
C78_3 N23_3 1_555 1_555
H71_3 C78_3 1_555 1_555
C79_3 C78_3 1_555 1_555
H72_3 C79_3 1_555 1_555
C80_3 C79_3 1_555 1_555
C81_3 C80_3 1_555 1_555
H73_3 C81_3 1_555 1_555
C82_3 N23_3 1_555 1_555
H74_3 C82_3 1_555 1_555
C83_3 C80_3 1_555 1_555
H75_3 C83_3 1_555 1_555
H76_3 C83_3 1_555 1_555
C84_3 C83_3 1_555 1_555
H77_3 C84_3 1_555 1_555
H78_3 C84_3 1_555 1_555
C85_3 C84_3 1_555 1_555
H79_3 C85_3 1_555 1_555
H80_3 C85_3 1_555 1_555
C86_3 C85_3 1_555 1_555
C90_3 C86_3 1_555 1_555
H84_3 C90_3 1_555 1_555
N30_2 Ni6_2 1_555 1_555
N31_2 Ni2_2 1_555 1_555
C10_3 C11_3 1_555 1_555
C18_3 C19_3 1_555 1_555
C23_3 C24_3 1_555 1_555
C36_3 C37_3 1_555 1_555
N17_3 C50_3 1_555 1_555
C55_3 C56_3 1_555 1_555
C63_3 C64_3 1_555 1_555
C68_3 C69_3 1_555 1_555
C81_3 C82_3 1_555 1_555
N6_3 C6_3 1_555 1_555
N29 C30_3 1_555 1_555
N12_2 C43_3 1_555 1_555
H16_3 C21_3 1_555 1_555
C22_3 C21_3 1_555 1_555
C25_3 C22_3 1_555 1_555
H19_3 C25_3 1_555 1_555
H20_3 C25_3 1_555 1_555
C26_3 C25_3 1_555 1_555
H21_3 C26_3 1_555 1_555
H22_3 C26_3 1_555 1_555
C27_3 C26_3 1_555 1_555
H23_3 C27_3 1_555 1_555
H24_3 C27_3 1_555 1_555
C28_3 C27_3 1_555 1_555
C29_3 C28_3 1_555 1_555
H25_3 C29_3 1_555 1_555
C30_3 C29_3 1_555 1_555
H26_3 C30_3 1_555 1_555
C31_3 N29 1_555 1_555
H27_3 C31_3 1_555 1_555
C32_3 C28_3 1_555 1_555
H28_3 C32_3 1_555 1_555
H39_3 C42_3 1_555 1_555
C43_3 C42_3 1_555 1_555
H40_3 C43_3 1_555 1_555
C44_3 N12_2 1_555 1_555
H41_3 C44_3 1_555 1_555
N18_3 C51_3 1_555 1_555
N29_2 C75_3 1_555 1_555
N24_2 C88_3 1_555 1_555
H58_3 C66_3 1_555 1_555
C67_3 C66_3 1_555 1_555
C70_3 C67_3 1_555 1_555
H61_3 C70_3 1_555 1_555
H62_3 C70_3 1_555 1_555
C71_3 C70_3 1_555 1_555
H63_3 C71_3 1_555 1_555
H64_3 C71_3 1_555 1_555
C72_3 C71_3 1_555 1_555
H65_3 C72_3 1_555 1_555
H66_3 C72_3 1_555 1_555
C73_3 C72_3 1_555 1_555
C74_3 C73_3 1_555 1_555
C75_3 C74_3 1_555 1_555
C76_3 N29_2 1_555 1_555
H69_3 C76_3 1_555 1_555
C77_3 C73_3 1_555 1_555
H70_3 C77_3 1_555 1_555
H81_3 C87_3 1_555 1_555
C88_3 C87_3 1_555 1_555
H82_3 C88_3 1_555 1_555
C89_3 N24_2 1_555 1_555
H83_3 C89_3 1_555 1_555
Ni7_2 N24_2 1_555 1_555
Ni8_2 N12_2 1_555 1_555
C31_3 C32_3 1_555 1_555
C76_3 C77_3 1_555 1_555
N27_3 C17_4 1_555 1_555
H12_4 C17_4 1_555 1_555
C18_4 N27_3 1_555 1_555
H13_4 C18_4 1_555 1_555
H14_4 C19_4 1_555 1_555
N14_4 C47_4 1_555 1_555
N15_4 C48_4 1_555 1_555
C47_4 Ni5_4 1_555 1_555
C48_4 Ni5_4 1_555 1_555
C18_4 C19_4 1_555 1_555
N29_3 C30_4 1_555 1_555
C7_4 N7_4 1_555 1_555
H1_4 C7_4 1_555 1_555
C8_4 C7_4 1_555 1_555
H2_4 C8_4 1_555 1_555
C9_4 C8_4 1_555 1_555
C10_4 C9_4 1_555 1_555
H3_4 C10_4 1_555 1_555
C11_4 N7_4 1_555 1_555
C12_4 C9_4 1_555 1_555
H5_4 C12_4 1_555 1_555
H6_4 C12_4 1_555 1_555
C13_4 C12_4 1_555 1_555
H7_4 C13_4 1_555 1_555
H8_4 C13_4 1_555 1_555
C14_4 C13_4 1_555 1_555
H9_4 C14_4 1_555 1_555
H10_4 C14_4 1_555 1_555
C15_4 C14_4 1_555 1_555
C16_4 C15_4 1_555 1_555
H11_4 C16_4 1_555 1_555
C29_4 C28_4 1_555 1_555
H25_4 C29_4 1_555 1_555
C30_4 C29_4 1_555 1_555
H26_4 C30_4 1_555 1_555
C31_4 N29_3 1_555 1_555
H27_4 C31_4 1_555 1_555
C32_4 C28_4 1_555 1_555
H28_4 C32_4 1_555 1_555
Ni8_2 N13_4 1_555 1_555
N13_4 C46_4 1_555 1_555
N25_2 C49_4 1_555 1_555
N17_4 Ni8_2 1_555 1_555
N18_4 C51_4 1_555 1_555
N21_4 Ni8_2 1_555 1_555
N23_4 Ni8_2 1_555 1_555
N31_2 C88_4 1_555 1_555
C50_4 Ni4_5 1_555 1_555
C51_4 Ni4_5 1_555 1_555
C65_4 N21_4 1_555 1_555
H57_4 C65_4 1_555 1_555
C66_4 C65_4 1_555 1_555
H58_4 C66_4 1_555 1_555
C67_4 C66_4 1_555 1_555
C68_4 C67_4 1_555 1_555
H59_4 C68_4 1_555 1_555
C69_4 N21_4 1_555 1_555
H60_4 C69_4 1_555 1_555
C70_4 C67_4 1_555 1_555
H61_4 C70_4 1_555 1_555
H62_4 C70_4 1_555 1_555
C71_4 C70_4 1_555 1_555
H63_4 C71_4 1_555 1_555
H64_4 C71_4 1_555 1_555
C72_4 C71_4 1_555 1_555
H65_4 C72_4 1_555 1_555
H66_4 C72_4 1_555 1_555
C78_4 N23_4 1_555 1_555
H71_4 C78_4 1_555 1_555
C79_4 C78_4 1_555 1_555
H72_4 C79_4 1_555 1_555
C80_4 C79_4 1_555 1_555
C81_4 C80_4 1_555 1_555
H73_4 C81_4 1_555 1_555
C82_4 N23_4 1_555 1_555
H74_4 C82_4 1_555 1_555
C83_4 C80_4 1_555 1_555
H75_4 C83_4 1_555 1_555
H76_4 C83_4 1_555 1_555
C84_4 C83_4 1_555 1_555
H77_4 C84_4 1_555 1_555
H78_4 C84_4 1_555 1_555
C85_4 C84_4 1_555 1_555
H79_4 C85_4 1_555 1_555
H80_4 C85_4 1_555 1_555
C86_4 C85_4 1_555 1_555
C87_4 C86_4 1_555 1_555
H81_4 C87_4 1_555 1_555
C88_4 C87_4 1_555 1_555
H82_4 C88_4 1_555 1_555
C89_4 N31_2 1_555 1_555
H83_4 C89_4 1_555 1_555
C90_4 C86_4 1_555 1_555
H84_4 C90_4 1_555 1_555
C10_4 C11_4 1_555 1_555
C31_4 C32_4 1_555 1_555
N17_4 C50_4 1_555 1_555
C68_4 C69_4 1_555 1_555
C81_4 C82_4 1_555 1_555
C89_4 C90_4 1_555 1_555
N2_4 C2_4 1_555 1_555
N3_4 C3_4 1_555 1_555
C2_4 Ni1_4 1_555 1_555
C3_4 Ni1_4 1_555 1_555
N27_4 C62_4 1_555 1_555
H54_4 C62_4 1_555 1_555
C63_4 N27_4 1_555 1_555
H55_4 C63_4 1_555 1_555
H56_4 C64_4 1_555 1_555
C63_4 C64_4 1_555 1_555
Ni7_2 N1_4 1_555 1_555
Ni4_6 C5_4 1_555 1_555
N1_4 C1_4 1_555 1_555
N25 C4_4 1_555 1_555
N5_4 Ni7_2 1_555 1_555
N6_4 C6_4 1_555 1_555
N9_4 Ni7_2 1_555 1_555
N11_4 Ni7_2 1_555 1_555
N30_2 C43_4 1_555 1_555
C5_4 N5_4 1_555 1_555
C6_4 Ni4_6 1_555 1_555
C20_4 N9_4 1_555 1_555
H15_4 C20_4 1_555 1_555
C21_4 C20_4 1_555 1_555
H16_4 C21_4 1_555 1_555
C22_4 C21_4 1_555 1_555
C23_4 C22_4 1_555 1_555
H17_4 C23_4 1_555 1_555
C24_4 N9_4 1_555 1_555
H18_4 C24_4 1_555 1_555
C25_4 C22_4 1_555 1_555
H19_4 C25_4 1_555 1_555
H20_4 C25_4 1_555 1_555
C26_4 C25_4 1_555 1_555
H21_4 C26_4 1_555 1_555
H22_4 C26_4 1_555 1_555
C27_4 C26_4 1_555 1_555
H23_4 C27_4 1_555 1_555
H24_4 C27_4 1_555 1_555
C33_4 N11_4 1_555 1_555
H29_4 C33_4 1_555 1_555
C34_4 C33_4 1_555 1_555
H30_4 C34_4 1_555 1_555
C35_4 C34_4 1_555 1_555
C36_4 C35_4 1_555 1_555
H31_4 C36_4 1_555 1_555
C37_4 N11_4 1_555 1_555
H32_4 C37_4 1_555 1_555
C38_4 C35_4 1_555 1_555
H33_4 C38_4 1_555 1_555
H34_4 C38_4 1_555 1_555
C39_4 C38_4 1_555 1_555
H35_4 C39_4 1_555 1_555
H36_4 C39_4 1_555 1_555
C40_4 C39_4 1_555 1_555
H37_4 C40_4 1_555 1_555
H38_4 C40_4 1_555 1_555
C41_4 C40_4 1_555 1_555
C42_4 C41_4 1_555 1_555
H39_4 C42_4 1_555 1_555
C43_4 C42_4 1_555 1_555
H40_4 C43_4 1_555 1_555
C44_4 N30_2 1_555 1_555
H41_4 C44_4 1_555 1_555
C45_4 C41_4 1_555 1_555
H42_4 C45_4 1_555 1_555
N29_4 C75_4 1_555 1_555
C52_4 N19_4 1_555 1_555
H43_4 C52_4 1_555 1_555
C53_4 C52_4 1_555 1_555
H44_4 C53_4 1_555 1_555
C54_4 C53_4 1_555 1_555
C55_4 C54_4 1_555 1_555
H45_4 C55_4 1_555 1_555
C56_4 N19_4 1_555 1_555
C57_4 C54_4 1_555 1_555
H47_4 C57_4 1_555 1_555
H48_4 C57_4 1_555 1_555
C58_4 C57_4 1_555 1_555
H49_4 C58_4 1_555 1_555
H50_4 C58_4 1_555 1_555
C59_4 C58_4 1_555 1_555
H51_4 C59_4 1_555 1_555
H52_4 C59_4 1_555 1_555
C60_4 C59_4 1_555 1_555
C61_4 C60_4 1_555 1_555
H53_4 C61_4 1_555 1_555
C74_4 C73_4 1_555 1_555
C75_4 C74_4 1_555 1_555
C76_4 N29_4 1_555 1_555
H69_4 C76_4 1_555 1_555
C77_4 C73_4 1_555 1_555
H70_4 C77_4 1_555 1_555
C23_4 C24_4 1_555 1_555
C36_4 C37_4 1_555 1_555
C44_4 C45_4 1_555 1_555
C55_4 C56_4 1_555 1_555
C76_4 C77_4 1_555 1_555

#END
