
###############################################################################
#
# This file contains modified crystal structure data generated from the
# MOF subset of the Cambridge Structural Database (CSD) v543 
# hosted by the Cambridge Crystallographic Data Centre (CCDC).
#
# This work is licensed under the Creative Commons
# Attribution-NonCommercial-ShareAlike 4.0 International License.
# To view a copy of this license, visit
# http://creativecommons.org/licenses/by-nc-sa/4.0/
# or send a letter to
# Creative Commons, PO Box 1866, Mountain View, CA 94042, USA.
#
# CIF created using the CSD Python API on 29 September 2022
# The structure has been converted into the P1 space group
# The structure has a 3D framework
# The original CSD entry CIQYUX is in the tetragonal crystal system
# The framework has been calculated to contain at least 10.0% void space
# The void calculation uses a probe of radius 1.32A, grid spacing 0.4
#
###############################################################################

data_CIQYUX
_chemical_formula_moiety         '(C128 H199 Co51 O133)n'
_symmetry_cell_setting           triclinic
_symmetry_space_group_name_H-M   'P 1'
_symmetry_Int_Tables_number      1
_space_group_name_Hall           'P 1'
loop_
_symmetry_equiv_pos_site_id
_symmetry_equiv_pos_as_xyz
1 x,y,z
_cell_length_a                   23.705(3)
_cell_length_b                   23.705(3)
_cell_length_c                   11.409(2)
_cell_angle_alpha                90
_cell_angle_beta                 90
_cell_angle_gamma                90
_cell_volume                     6411.03
loop_
_atom_site_label
_atom_site_type_symbol
_atom_site_fract_x
_atom_site_fract_y
_atom_site_fract_z
Co3 Co 0.0000 0.5000 0.0000
H11 H 0.0132 0.6565 0.2088
Co7 Co 0.19691(4) 0.47226(4) 0.23001(9)
Co10 Co 0.12755(4) 0.46107(4) 0.00585(9)
O15 O 0.2947(2) 0.5373(2) 0.0768(5)
O20 O 0.05941(19) 0.4677(2) 0.1253(5)
O23 O 0.1119(2) 0.4697(2) 0.2882(5)
O25 O 0.2197(2) 0.6381(2) 0.0382(5)
O31 O 0.16855(18) 0.52199(18) 0.0982(4)
H15 H 0.1425 0.5510 0.1269
C13 C 0.0660(3) 0.4739(3) 0.2382(7)
C14 C 0.0145(4) 0.4865(5) 0.3097(9)
H23 H 0.0122 0.4603 0.3739
H24 H 0.0169 0.5242 0.3397
Co3_2 Co -0.0000 0.5000 1.0000
H10 H 0.0185 0.5171 0.7385
Co4 Co 0.22226(4) 0.55309(4) 0.98001(9)
Co8 Co 0.21107(4) 0.62245(4) 0.75585(9)
O12 O 0.20407(19) 0.47079(18) 0.9090(4)
O13 O 0.22079(18) 0.54593(19) 0.6590(4)
O16 O 0.15190(19) 0.57770(18) 0.8665(4)
O17 O 0.07941(19) 0.5261(2) 0.9224(5)
O19 O 0.2761(2) 0.67059(19) 0.6724(5)
O22 O 0.2177(2) 0.69059(19) 0.8753(5)
O26 O 0.0929(2) 0.4016(2) 0.9037(5)
O28 O 0.1516(2) 0.6571(2) 0.6537(5)
O29 O 0.0022(2) 0.4273(3) 0.9073(6)
O32 O 0.27199(18) 0.58145(18) 0.8482(4)
H16 H 0.3010 0.6075 0.8769
C11 C 0.1001(3) 0.5715(3) 0.8827(7)
C12 C 0.0608(3) 0.6204(4) 0.8544(9)
H20 H 0.0695 0.6349 0.7779
H21 H 0.0224 0.6075 0.8560
H22 H 0.0658 0.6498 0.9115
C15 C 0.0416(4) 0.3949(4) 0.8777(9)
C16 C 0.0268(6) 0.3445(7) 0.8038(19)
H27 H 0.0459 0.3471 0.7297
H28 H 0.0384 0.3107 0.8434
Co1 Co 0.77774(4) 0.44691(4) 0.01999(9)
Co2 Co 0.78893(4) 0.37755(4) 0.24415(9)
Co3_3 Co 1.0000 0.5000 0.0000
O1 O 0.79593(19) 0.52921(18) 0.0910(4)
O2 O 0.7127(2) 0.5447(2) 0.1732(5)
O3 O 0.84810(19) 0.42230(18) 0.1335(4)
O4 O 0.92059(19) 0.4739(2) 0.0776(5)
O7 O 0.9071(2) 0.5984(2) 0.0963(5)
O8 O 0.9978(2) 0.5727(3) 0.0927(6)
C1 C 0.7604(3) 0.5615(3) 0.1415(7)
C2 C 0.7753(5) 0.6219(4) 0.1618(10)
H2 H 0.7696 0.6311 0.2428
H3 H 0.7518 0.6455 0.1139
H4 H 0.8142 0.6279 0.1416
C3 C 0.8999(3) 0.4285(3) 0.1173(7)
C4 C 0.9392(3) 0.3796(4) 0.1456(9)
H5 H 0.9305 0.3651 0.2221
H6 H 0.9776 0.3925 0.1440
H7 H 0.9342 0.3502 0.0885
C7 C 0.9584(4) 0.6051(4) 0.1223(9)
C8 C 0.9732(6) 0.6555(7) 0.1962(19)
H12 H 0.9541 0.6529 0.2703
H13 H 0.9616 0.6893 0.1566
Co5 Co 0.69691(4) 0.47226(4) 0.26999(9)
O11 O 0.77921(18) 0.45407(19) 0.3410(4)
O18 O 0.7239(2) 0.32941(19) 0.3276(5)
O21 O 0.7823(2) 0.30941(19) 0.1247(5)
O27 O 0.8484(2) 0.3429(2) 0.3463(5)
O30 O 0.72801(18) 0.41855(18) 0.1518(4)
H14 H 0.6990 0.3925 0.1231
H25 H 0.9815 0.4829 0.2615
Co3_4 Co 1.0000 0.5000 1.0000
O5 O 0.94059(19) 0.5323(2) 0.8747(5)
O6 O 0.8881(2) 0.5303(2) 0.7118(5)
O9 O 0.83145(18) 0.47801(18) 0.9018(4)
H1 H 0.8575 0.4490 0.8731
C5 C 0.9340(3) 0.5261(3) 0.7618(7)
C6 C 0.9855(4) 0.5135(5) 0.6903(9)
H8 H 0.9878 0.5397 0.6261
H9 H 0.9831 0.4758 0.6603
Co6 Co 0.80309(4) 0.52774(4) 0.76999(9)
Co9 Co 0.87245(4) 0.53893(4) 0.99415(9)
Co11 Co 0.71107(4) 0.62245(4) 0.74415(9)
O10 O 0.72079(18) 0.54593(19) 0.8410(4)
O14 O 0.7053(2) 0.4627(2) 0.9232(5)
O24 O 0.7803(2) 0.3619(2) 0.9618(5)
C9 C 0.6885(3) 0.5104(3) 0.8915(7)
C10 C 0.6281(4) 0.5253(5) 0.9118(10)
H17 H 0.6189 0.5196 0.9928
H18 H 0.6045 0.5018 0.8639
H19 H 0.6221 0.5642 0.8916
H26 H 0.9868 0.3435 0.7912
Co1_2 Co 0.30309(4) 0.02774(4) 0.26999(9)
Co2_2 Co 0.37245(4) 0.03893(4) 0.49415(9)
Co3_5 Co 0.2500 0.2500 0.2500
O1_2 O 0.22079(18) 0.04593(19) 0.3410(4)
O3_2 O 0.32770(18) 0.09810(19) 0.3835(4)
O4_2 O 0.2761(2) 0.17059(19) 0.3276(5)
O5_2 O 0.2177(2) 0.19059(19) 0.1247(5)
O7_2 O 0.1516(2) 0.1571(2) 0.3463(5)
O8_2 O 0.1773(3) 0.2478(2) 0.3427(6)
O9_2 O 0.27199(18) 0.08145(18) 0.1518(4)
H1_2 H 0.3010 0.1075 0.1231
C1_2 C 0.1885(3) 0.0104(3) 0.3915(7)
C2_2 C 0.1281(4) 0.0253(5) 0.4118(10)
H2_2 H 0.1189 0.0196 0.4928
H3_2 H 0.1045 0.0018 0.3639
H4_2 H 0.1221 0.0642 0.3916
C3_2 C 0.3215(3) 0.1499(3) 0.3673(7)
C4_2 C 0.3704(4) 0.1892(3) 0.3956(9)
H5_2 H 0.3849 0.1805 0.4721
H6_2 H 0.3575 0.2276 0.3940
H7_2 H 0.3998 0.1842 0.3385
C5_2 C 0.2239(3) 0.1840(3) 0.0118(7)
C7_2 C 0.1449(4) 0.2084(4) 0.3723(9)
C8_2 C 0.0945(7) 0.2232(6) 0.4462(19)
H11_2 H 0.0935 0.2632 0.4588
H12_2 H 0.0971 0.2041 0.5203
H13_2 H 0.0607 0.2116 0.4066
Co6_2 Co 0.22226(4) 0.05309(4) 0.01999(9)
Co7_2 Co 0.27774(4) 0.44691(4) 0.48001(9)
Co9_2 Co 0.21107(4) 0.12245(4) 0.24415(9)
Co10_2 Co 0.28893(4) 0.37755(4) 0.25585(9)
O11_2 O 0.29593(19) 0.02921(18) 0.5910(4)
O12_2 O 0.27921(18) 0.45407(19) 0.1590(4)
O15_2 O 0.2127(2) 0.5447(2) 0.3268(5)
O16_2 O 0.17230(18) 0.40190(19) 0.1165(4)
O17_2 O 0.2239(2) 0.32941(19) 0.1724(5)
O20_2 O 0.2823(2) 0.30941(19) 0.3753(5)
O21_2 O 0.44059(19) 0.0323(2) 0.3747(5)
O23_2 O 0.2803(2) 0.3619(2) 0.5382(5)
O24_2 O 0.3881(2) 0.0303(2) 0.2118(5)
O26_2 O 0.3484(2) 0.3429(2) 0.1537(5)
O27_2 O 0.4071(2) 0.0984(2) 0.5963(5)
O29_2 O 0.3227(3) 0.2522(2) 0.1573(6)
O31_2 O 0.22801(18) 0.41855(18) 0.3482(4)
H15_2 H 0.1990 0.3925 0.3769
C11_2 C 0.1785(3) 0.3501(3) 0.1327(7)
C12_2 C 0.1296(4) 0.3108(3) 0.1044(9)
H20_2 H 0.1151 0.3195 0.0279
H21_2 H 0.1425 0.2724 0.1060
H22_2 H 0.1002 0.3158 0.1615
C13_2 C 0.2761(3) 0.3160(3) 0.4882(7)
C14_2 C 0.2635(5) 0.2645(4) 0.5597(9)
H23_2 H 0.2897 0.2622 0.6239
H24_2 H 0.2258 0.2669 0.5897
H25_2 H 0.2671 0.2315 0.5115
C15_2 C 0.3551(4) 0.2916(4) 0.1277(9)
C16_2 C 0.4055(7) 0.2768(6) 0.0538(19)
H26_2 H 0.4065 0.2368 0.0412
H28_2 H 0.4393 0.2884 0.0934
O6_2 O 0.2197(2) 0.1381(2) 0.9618(5)
C6_2 C 0.2365(5) 0.2355(4) 0.9403(9)
H8_2 H 0.2103 0.2378 0.8761
H9_2 H 0.2742 0.2331 0.9103
H10_2 H 0.2329 0.2685 0.9885
H27_2 H 0.4029 0.2959 0.9797
O2_2 O 0.2053(2) 0.9627(2) 0.4232(5)
Co5_2 Co 0.27774(4) 0.94691(4) 0.51999(9)
O10_2 O 0.20407(19) 0.97079(18) 0.0910(4)
O14_2 O 0.2873(2) 0.9553(2) 0.1732(5)
O18_2 O 0.42059(19) 0.9739(2) 0.5776(5)
O30_2 O 0.33145(18) 0.97801(18) 0.4018(4)
H14_2 H 0.3575 0.9490 0.3731
C9_2 C 0.2396(3) 0.9385(3) 0.1415(7)
C10_2 C 0.2247(5) 0.8781(4) 0.1618(10)
H17_2 H 0.2304 0.8689 0.2428
H18_2 H 0.2482 0.8545 0.1139
H19_2 H 0.1858 0.8721 0.1416
Co11_2 Co 0.12755(4) 0.96107(4) 0.99415(9)
Co3_6 Co 0.5000 -0.0000 0.5000
O2_3 O 0.2127(2) 0.0447(2) 0.6732(5)
O8_3 O 0.4978(2) 0.0727(3) 0.5927(6)
C1_3 C 0.2604(3) 0.0615(3) 0.6415(7)
C2_3 C 0.2753(5) 0.1219(4) 0.6618(10)
H2_3 H 0.2696 0.1311 0.7428
H3_3 H 0.2518 0.1455 0.6139
H4_3 H 0.3142 0.1279 0.6416
C5_3 C 0.4340(3) 0.0261(3) 0.2618(7)
C6_3 C 0.4855(4) 0.0135(5) 0.1903(9)
H8_3 H 0.4878 0.0397 0.1261
H10_3 H 0.5185 0.0171 0.2385
C7_3 C 0.4584(4) 0.1051(4) 0.6223(9)
C8_3 C 0.4732(6) 0.1555(7) 0.6962(19)
H11_3 H 0.5132 0.1565 0.7088
H12_3 H 0.4541 0.1529 0.7703
H13_3 H 0.4616 0.1893 0.6566
Co4_2 Co 0.72226(4) 0.05309(4) 0.48001(9)
Co8_2 Co 0.71107(4) 0.12245(4) 0.25585(9)
O13_2 O 0.72079(18) 0.04593(19) 0.1590(4)
O15_3 O 0.7947(2) 0.0373(2) 0.5768(5)
O16_3 O 0.65190(19) 0.07770(18) 0.3665(4)
O17_3 O 0.57941(19) 0.0261(2) 0.4224(5)
O19_2 O 0.7761(2) 0.17059(19) 0.1724(5)
O22_2 O 0.7177(2) 0.19059(19) 0.3753(5)
O25_2 O 0.7197(2) 0.1381(2) 0.5382(5)
O28_2 O 0.6516(2) 0.1571(2) 0.1537(5)
O31_3 O 0.66855(18) 0.02199(18) 0.5982(4)
O32_2 O 0.77199(18) 0.08145(18) 0.3482(4)
H15_3 H 0.6425 0.0510 0.6269
H16_2 H 0.8010 0.1075 0.3769
C11_3 C 0.6001(3) 0.0715(3) 0.3827(7)
C12_3 C 0.5608(3) 0.1204(4) 0.3544(9)
H20_3 H 0.5695 0.1349 0.2779
H21_3 H 0.5224 0.1075 0.3560
H22_3 H 0.5658 0.1498 0.4115
H24_3 H 0.5169 0.0242 0.8397
Co2_3 Co 0.28893(4) 0.87755(4) 0.74415(9)
Co3_7 Co 0.5000 1.0000 0.5000
O3_3 O 0.34810(19) 0.92230(18) 0.6335(4)
C3_3 C 0.3999(3) 0.9285(3) 0.6173(7)
C4_3 C 0.4392(3) 0.8796(4) 0.6456(9)
H5_3 H 0.4305 0.8651 0.7221
H6_3 H 0.4776 0.8925 0.6440
H7_3 H 0.4342 0.8502 0.5885
H9_3 H 0.4831 0.9758 0.1603
Co5_3 Co 0.19691(4) 0.97226(4) 0.76999(9)
Co7_3 Co 0.69691(4) 0.97226(4) 0.73001(9)
Co10_3 Co 0.62755(4) 0.96107(4) 0.50585(9)
O11_3 O 0.27921(18) 0.95407(19) 0.8410(4)
O12_3 O 0.70407(19) 0.97079(18) 0.4090(4)
O18_3 O 0.2239(2) 0.82941(19) 0.8276(5)
O20_3 O 0.55941(19) 0.9677(2) 0.6253(5)
O21_3 O 0.2823(2) 0.80941(19) 0.6247(5)
O23_3 O 0.6119(2) 0.9697(2) 0.7882(5)
O24_3 O 0.2803(2) 0.8619(2) 0.4618(5)
O26_3 O 0.5929(2) 0.9016(2) 0.4037(5)
O27_3 O 0.3484(2) 0.8429(2) 0.8463(5)
O29_3 O 0.5022(2) 0.9273(3) 0.4073(6)
O30_3 O 0.22801(18) 0.91855(18) 0.6518(4)
H14_3 H 0.1990 0.8925 0.6231
C13_3 C 0.5660(3) 0.9739(3) 0.7382(7)
C14_3 C 0.5145(4) 0.9865(5) 0.8097(9)
H23_3 H 0.5122 0.9603 0.8739
H25_3 H 0.4815 0.9829 0.7615
C15_3 C 0.5416(4) 0.8949(4) 0.3777(9)
C16_3 C 0.5268(6) 0.8445(7) 0.3038(19)
H26_3 H 0.4868 0.8435 0.2912
H27_3 H 0.5459 0.8471 0.2297
H28_3 H 0.5384 0.8107 0.3434
O15_4 O 0.7127(2) 0.0447(2) 0.8268(5)
H12_4 H 0.5971 0.7041 0.0203
O23_4 O 0.7803(2) 0.8619(2) 0.0382(5)
C14_4 C 0.7635(5) 0.7645(4) 0.0597(9)
H23_4 H 0.7897 0.7622 0.1239
H24_4 H 0.7258 0.7669 0.0897
H25_4 H 0.7671 0.7315 0.0115
Co3_8 Co 0.7500 0.7500 0.7500
O3_4 O 0.82770(18) 0.59810(19) 0.8835(4)
O4_3 O 0.7761(2) 0.67059(19) 0.8276(5)
O5_3 O 0.7177(2) 0.69059(19) 0.6247(5)
O6_3 O 0.7197(2) 0.6381(2) 0.4618(5)
O7_3 O 0.6516(2) 0.6571(2) 0.8463(5)
O8_4 O 0.6773(3) 0.7478(2) 0.8427(6)
O9_3 O 0.77199(18) 0.58145(18) 0.6518(4)
H1_3 H 0.8010 0.6075 0.6231
C3_4 C 0.8215(3) 0.6499(3) 0.8673(7)
C4_4 C 0.8704(4) 0.6892(3) 0.8956(9)
H5_4 H 0.8849 0.6805 0.9721
H6_4 H 0.8575 0.7276 0.8940
H7_4 H 0.8998 0.6842 0.8385
C5_4 C 0.7239(3) 0.6840(3) 0.5118(7)
C6_4 C 0.7365(5) 0.7355(4) 0.4403(9)
H8_4 H 0.7103 0.7378 0.3761
H9_4 H 0.7742 0.7331 0.4103
H10_4 H 0.7329 0.7685 0.4885
C7_4 C 0.6449(4) 0.7084(4) 0.8723(9)
C8_4 C 0.5945(7) 0.7232(6) 0.9462(19)
H11_4 H 0.5935 0.7632 0.9588
H13_4 H 0.5607 0.7116 0.9066
Co6_3 Co 0.72226(4) 0.55309(4) 0.51999(9)
Co7_4 Co 0.77774(4) 0.94691(4) 0.98001(9)
Co10_4 Co 0.78893(4) 0.87755(4) 0.75585(9)
Co11_3 Co 0.62755(4) 0.46107(4) 0.49415(9)
O10_3 O 0.70407(19) 0.47079(18) 0.5910(4)
O12_4 O 0.77921(18) 0.95407(19) 0.6590(4)
O14_3 O 0.7873(2) 0.4553(2) 0.6732(5)
O16_4 O 0.67230(18) 0.90190(19) 0.6165(4)
O17_4 O 0.7239(2) 0.82941(19) 0.6724(5)
O20_4 O 0.7823(2) 0.80941(19) 0.8753(5)
O26_4 O 0.8484(2) 0.8429(2) 0.6537(5)
O29_4 O 0.8227(3) 0.7522(2) 0.6573(6)
O31_4 O 0.72801(18) 0.91855(18) 0.8482(4)
H15_4 H 0.6990 0.8925 0.8769
C9_3 C 0.7396(3) 0.4385(3) 0.6415(7)
C10_3 C 0.7247(5) 0.3781(4) 0.6618(10)
H17_3 H 0.7304 0.3689 0.7428
H18_3 H 0.7482 0.3545 0.6139
H19_3 H 0.6858 0.3721 0.6416
C11_4 C 0.6785(3) 0.8501(3) 0.6327(7)
C12_4 C 0.6296(4) 0.8108(3) 0.6044(9)
H20_4 H 0.6151 0.8195 0.5279
H21_4 H 0.6425 0.7724 0.6060
H22_4 H 0.6002 0.8158 0.6615
C13_4 C 0.7761(3) 0.8160(3) 0.9882(7)
C15_4 C 0.8551(4) 0.7916(4) 0.6277(9)
C16_4 C 0.9055(7) 0.7768(6) 0.5538(19)
H26_4 H 0.9065 0.7368 0.5412
H27_4 H 0.9029 0.7959 0.4797
H28_4 H 0.9393 0.7884 0.5934
Co3_9 Co 0.7500 0.2500 0.2500
O2_4 O 0.7947(2) 0.5373(2) 0.4232(5)
O3_5 O 0.67230(18) 0.40190(19) 0.3835(4)
O8_5 O 0.8227(3) 0.2522(2) 0.3427(6)
C1_4 C 0.8115(3) 0.4896(3) 0.3915(7)
C2_4 C 0.8719(4) 0.4747(5) 0.4118(10)
H2_4 H 0.8811 0.4804 0.4928
H3_4 H 0.8955 0.4982 0.3639
H4_4 H 0.8779 0.4358 0.3916
C3_5 C 0.6785(3) 0.3501(3) 0.3673(7)
C4_5 C 0.6296(4) 0.3108(3) 0.3956(9)
H5_5 H 0.6151 0.3195 0.4721
H6_5 H 0.6425 0.2724 0.3940
H7_5 H 0.6002 0.3158 0.3385
C5_5 C 0.7761(3) 0.3160(3) 0.0118(7)
C7_5 C 0.8551(4) 0.2916(4) 0.3723(9)
C8_5 C 0.9055(7) 0.2768(6) 0.4462(19)
H11_5 H 0.9065 0.2368 0.4588
H12_5 H 0.9029 0.2959 0.5203
H13_5 H 0.9393 0.2884 0.4066
Co4_3 Co 0.80309(4) 0.02774(4) 0.23001(9)
Co8_3 Co 0.87245(4) 0.03893(4) 0.00585(9)
O16_5 O 0.82770(18) 0.09810(19) 0.1165(4)
O18_4 O 0.57941(19) 0.5261(2) 0.5776(5)
O21_4 O 0.55941(19) 0.4677(2) 0.3747(5)
O22_3 O 0.94059(19) 0.0323(2) 0.1253(5)
O24_4 O 0.6119(2) 0.4697(2) 0.2118(5)
O25_3 O 0.8881(2) 0.0303(2) 0.2882(5)
O27_4 O 0.5929(2) 0.4016(2) 0.5963(5)
O29_5 O 0.6773(3) 0.2478(2) 0.1573(6)
O30_4 O 0.66855(18) 0.52199(18) 0.4018(4)
H14_4 H 0.6425 0.5510 0.3731
C11_5 C 0.8215(3) 0.1499(3) 0.1327(7)
C12_5 C 0.8704(4) 0.1892(3) 0.1044(9)
H20_5 H 0.8849 0.1805 0.0279
H21_5 H 0.8575 0.2276 0.1060
H22_5 H 0.8998 0.1842 0.1615
C13_5 C 0.7239(3) 0.1840(3) 0.4882(7)
C14_5 C 0.7365(5) 0.2355(4) 0.5597(9)
H23_5 H 0.7103 0.2378 0.6239
H24_5 H 0.7742 0.2331 0.5897
H25_5 H 0.7329 0.2685 0.5115
C15_5 C 0.6449(4) 0.2084(4) 0.1277(9)
C16_5 C 0.5945(7) 0.2232(6) 0.0538(19)
H26_5 H 0.5935 0.2632 0.0412
H28_5 H 0.5607 0.2116 0.0934
C6_5 C 0.7635(5) 0.2645(4) 0.9403(9)
H8_5 H 0.7897 0.2622 0.8761
H9_5 H 0.7258 0.2669 0.9103
H10_5 H 0.7671 0.2315 0.9885
O13_3 O 0.79593(19) 0.02921(18) 0.9090(4)
O28_3 O 0.9071(2) 0.0984(2) 0.9037(5)
H27_5 H 0.5971 0.2041 0.9797
O15_5 O 0.7873(2) 0.9553(2) 0.3268(5)
O32_3 O 0.83145(18) 0.97801(18) 0.0982(4)
H16_3 H 0.8575 0.9490 0.1269
O19_3 O 0.92059(19) 0.9739(2) 0.9224(5)
Co3_10 Co 0.5000 0.5000 0.5000
O3_6 O 0.65190(19) 0.57770(18) 0.6335(4)
O8_6 O 0.5022(2) 0.4273(3) 0.5927(6)
C3_6 C 0.6001(3) 0.5715(3) 0.6173(7)
C4_6 C 0.5608(3) 0.6204(4) 0.6456(9)
H5_6 H 0.5695 0.6349 0.7221
H6_6 H 0.5224 0.6075 0.6440
H7_6 H 0.5658 0.6498 0.5885
C5_6 C 0.5660(3) 0.4739(3) 0.2618(7)
C6_6 C 0.5145(4) 0.4865(5) 0.1903(9)
H8_6 H 0.5122 0.4603 0.1261
H9_6 H 0.5169 0.5242 0.1603
H10_6 H 0.4815 0.4829 0.2385
C7_6 C 0.5416(4) 0.3949(4) 0.6223(9)
C8_6 C 0.5268(6) 0.3445(7) 0.6962(19)
H11_6 H 0.4868 0.3435 0.7088
H12_6 H 0.5459 0.3471 0.7703
H13_6 H 0.5384 0.3107 0.6566
Co7_5 Co 0.30309(4) 0.52774(4) 0.73001(9)
Co10_5 Co 0.37245(4) 0.53893(4) 0.50585(9)
O12_5 O 0.29593(19) 0.52921(18) 0.4090(4)
O15_6 O 0.2053(2) 0.4627(2) 0.5768(5)
O16_6 O 0.34810(19) 0.42230(18) 0.3665(4)
O17_5 O 0.42059(19) 0.4739(2) 0.4224(5)
O20_5 O 0.44059(19) 0.5323(2) 0.6253(5)
O23_5 O 0.3881(2) 0.5303(2) 0.7882(5)
O26_5 O 0.4071(2) 0.5984(2) 0.4037(5)
O29_6 O 0.4978(2) 0.5727(3) 0.4073(6)
O31_5 O 0.33145(18) 0.47801(18) 0.5982(4)
H15_5 H 0.3575 0.4490 0.6269
C11_6 C 0.3999(3) 0.4285(3) 0.3827(7)
C12_6 C 0.4392(3) 0.3796(4) 0.3544(9)
H20_6 H 0.4305 0.3651 0.2779
H21_6 H 0.4776 0.3925 0.3560
H22_6 H 0.4342 0.3502 0.4115
C13_6 C 0.4340(3) 0.5261(3) 0.7382(7)
C14_6 C 0.4855(4) 0.5135(5) 0.8097(9)
H23_6 H 0.4878 0.5397 0.8739
H24_6 H 0.4831 0.4758 0.8397
H25_6 H 0.5185 0.5171 0.7615
C15_6 C 0.4584(4) 0.6051(4) 0.3777(9)
C16_6 C 0.4732(6) 0.6555(7) 0.3038(19)
H26_6 H 0.5132 0.6565 0.2912
H27_6 H 0.4541 0.6529 0.2297
H28_6 H 0.4616 0.6893 0.3434
O18_5 O 0.07941(19) 0.0261(2) 0.0776(5)
O2_5 O 0.2947(2) 0.0373(2) 0.9232(5)
O30_5 O 0.16855(18) 0.02199(18) 0.9018(4)
H14_5 H 0.1425 0.0510 0.8731
H12_7 H 0.4029 0.7959 0.0203
O27_5 O 0.0929(2) 0.9016(2) 0.0963(5)
C14_7 C 0.2365(5) 0.7355(4) 0.0597(9)
H23_7 H 0.2103 0.7378 0.1239
H24_7 H 0.2742 0.7331 0.0897
H25_7 H 0.2329 0.7685 0.0115
Co3_11 Co 0.2500 0.7500 0.7500
O3_7 O 0.17230(18) 0.90190(19) 0.8835(4)
O8_7 O 0.3227(3) 0.7522(2) 0.8427(6)
C1_5 C 0.3115(3) 0.9896(3) 0.8915(7)
C2_5 C 0.3719(4) 0.9747(5) 0.9118(10)
H2_5 H 0.3811 0.9804 0.9928
H3_5 H 0.3955 0.9982 0.8639
H4_5 H 0.3779 0.9358 0.8916
C3_7 C 0.1785(3) 0.8501(3) 0.8673(7)
C4_7 C 0.1296(4) 0.8108(3) 0.8956(9)
H5_7 H 0.1151 0.8195 0.9721
H6_7 H 0.1425 0.7724 0.8940
H7_7 H 0.1002 0.8158 0.8385
C5_7 C 0.2761(3) 0.8160(3) 0.5118(7)
C6_7 C 0.2635(5) 0.7645(4) 0.4403(9)
H8_7 H 0.2897 0.7622 0.3761
H9_7 H 0.2258 0.7669 0.4103
H10_7 H 0.2671 0.7315 0.4885
C7_7 C 0.3551(4) 0.7916(4) 0.8723(9)
C8_7 C 0.4055(7) 0.7768(6) 0.9462(19)
H11_7 H 0.4065 0.7368 0.9588
H13_7 H 0.4393 0.7884 0.9066
O15_7 O 0.2873(2) 0.4553(2) 0.8268(5)
O16_7 O 0.32770(18) 0.59810(19) 0.6165(4)
O21_5 O 0.05941(19) 0.9677(2) 0.8747(5)
O24_5 O 0.1119(2) 0.9697(2) 0.7118(5)
O29_7 O 0.1773(3) 0.7478(2) 0.6573(6)
C11_7 C 0.3215(3) 0.6499(3) 0.6327(7)
C12_7 C 0.3704(4) 0.6892(3) 0.6044(9)
H20_7 H 0.3849 0.6805 0.5279
H21_7 H 0.3575 0.7276 0.6060
H22_7 H 0.3998 0.6842 0.6615
C13_7 C 0.2239(3) 0.6840(3) 0.9882(7)
C15_7 C 0.1449(4) 0.7084(4) 0.6277(9)
C16_7 C 0.0945(7) 0.7232(6) 0.5538(19)
H26_7 H 0.0935 0.7632 0.5412
H27_7 H 0.0971 0.7041 0.4797
H28_7 H 0.0607 0.7116 0.5934
Co3_12 Co 0.0000 0.0000 0.0000
O3_8 O 0.15190(19) 0.07770(18) 0.1335(4)
C3_8 C 0.1001(3) 0.0715(3) 0.1173(7)
C4_8 C 0.0608(3) 0.1204(4) 0.1456(9)
H5_8 H 0.0695 0.1349 0.2221
H6_8 H 0.0224 0.1075 0.1440
H7_8 H 0.0658 0.1498 0.0885
H25_8 H 0.0185 0.0171 0.2615
Co3_13 Co -0.0000 -0.0000 1.0000
H9_8 H 0.0169 0.0242 0.6603
H26_8 H 0.0132 0.1565 0.7912
Co3_14 Co 0.0000 1.0000 0.0000
O8_8 O 0.0022(2) 0.9273(3) 0.0927(6)
C7_8 C 0.0416(4) 0.8949(4) 0.1223(9)
C8_8 C 0.0268(6) 0.8445(7) 0.1962(19)
H12_8 H 0.0459 0.8471 0.2703
H13_8 H 0.0384 0.8107 0.1566
Co3_15 Co -0.0000 1.0000 1.0000
C5_8 C 0.0660(3) 0.9739(3) 0.7618(7)
C6_8 C 0.0145(4) 0.9865(5) 0.6903(9)
H8_8 H 0.0122 0.9603 0.6261
Co3_16 Co 1.0000 0.0000 0.0000
C13_8 C 0.9340(3) 0.0261(3) 0.2382(7)
C14_8 C 0.9855(4) 0.0135(5) 0.3097(9)
H23_8 H 0.9878 0.0397 0.3739
Co3_17 Co 1.0000 -0.0000 1.0000
O29_8 O 0.9978(2) 0.0727(3) 0.9073(6)
C15_8 C 0.9584(4) 0.1051(4) 0.8777(9)
C16_8 C 0.9732(6) 0.1555(7) 0.8038(19)
H27_8 H 0.9541 0.1529 0.7297
H28_8 H 0.9616 0.1893 0.8434
Co3_18 Co 1.0000 1.0000 0.0000
H11_8 H 0.9868 0.8435 0.2088
O15_8 O 0.7053(2) 0.9627(2) 0.0768(5)
H24_8 H 0.9831 0.9758 0.3397
Co3_19 Co 1.0000 1.0000 1.0000
H10_8 H 0.9815 0.9829 0.7385
O16_8 O 0.84810(19) 0.92230(18) 0.8665(4)
C11_8 C 0.8999(3) 0.9285(3) 0.8827(7)
C12_8 C 0.9392(3) 0.8796(4) 0.8544(9)
H20_8 H 0.9305 0.8651 0.7779
H21_8 H 0.9776 0.8925 0.8560
H22_8 H 0.9342 0.8502 0.9115
C9_4 C 0.3115(3) 0.4896(3) 0.1085(7)
C10_4 C 0.3719(4) 0.4747(5) 0.0882(10)
H17_4 H 0.3811 0.4804 0.0072
H18_4 H 0.3955 0.4982 0.1361
H19_4 H 0.3779 0.4358 0.1084
C1_6 C 0.2396(3) 0.4385(3) 0.8585(7)
C2_6 C 0.2247(5) 0.3781(4) 0.8382(10)
H2_6 H 0.2304 0.3689 0.7572
H3_6 H 0.2482 0.3545 0.8861
H4_6 H 0.1858 0.3721 0.8584
C9_5 C 0.7604(3) 0.0615(3) 0.8585(7)
C10_5 C 0.7753(5) 0.1219(4) 0.8382(10)
H17_5 H 0.7696 0.1311 0.7572
H18_5 H 0.7518 0.1455 0.8861
H19_5 H 0.8142 0.1279 0.8584
C1_7 C 0.8115(3) 0.9896(3) 0.6085(7)
C2_7 C 0.8719(4) 0.9747(5) 0.5882(10)
H2_7 H 0.8811 0.9804 0.5072
H3_7 H 0.8955 0.9982 0.6361
H4_7 H 0.8779 0.9358 0.6084
C1_8 C 0.7396(3) 0.9385(3) 0.3585(7)
C2_8 C 0.7247(5) 0.8781(4) 0.3382(10)
H2_8 H 0.7304 0.8689 0.2572
H3_8 H 0.7482 0.8545 0.3861
H4_8 H 0.6858 0.8721 0.3584
C9_6 C 0.2604(3) 0.5615(3) 0.3585(7)
C10_6 C 0.2753(5) 0.6219(4) 0.3382(10)
H17_6 H 0.2696 0.6311 0.2572
H18_6 H 0.2518 0.6455 0.3861
H19_6 H 0.3142 0.6279 0.3584
C1_9 C 0.1885(3) 0.5104(3) 0.6085(7)
C2_9 C 0.1281(4) 0.5253(5) 0.5882(10)
H2_9 H 0.1189 0.5196 0.5072
H3_9 H 0.1045 0.5018 0.6361
H4_9 H 0.1221 0.5642 0.6084
C1_10 C 0.6885(3) 0.0104(3) 0.1085(7)
C2_10 C 0.6281(4) 0.0253(5) 0.0882(10)
H2_10 H 0.6189 0.0196 0.0072
H3_10 H 0.6045 0.0018 0.1361
H4_10 H 0.6221 0.0642 0.1084
loop_
_geom_bond_atom_site_label_1
_geom_bond_atom_site_label_2
_geom_bond_site_symmetry_1
_geom_bond_site_symmetry_2
Co7 O23 1_555 1_555
O20 Co3 1_555 1_555
O23 C13 1_555 1_555
H15 O31 1_555 1_555
C13 O20 1_555 1_555
C14 C13 1_555 1_555
H23 C14 1_555 1_555
H24 C14 1_555 1_555
Co7 O31 1_555 1_555
Co10 O20 1_555 1_555
Co10 O31 1_555 1_555
Co4 O12 1_555 1_555
Co8 O13 1_555 1_555
O16 Co4 1_555 1_555
O17 Co3_2 1_555 1_555
O19 Co8 1_555 1_555
O22 Co8 1_555 1_555
O28 Co8 1_555 1_555
O29 Co3_2 1_555 1_555
O32 Co4 1_555 1_555
H16 O32 1_555 1_555
C11 O16 1_555 1_555
C12 C11 1_555 1_555
H20 C12 1_555 1_555
H21 C12 1_555 1_555
H22 C12 1_555 1_555
C15 O26 1_555 1_555
C16 C15 1_555 1_555
H27 C16 1_555 1_555
H28 C16 1_555 1_555
Co8 O16 1_555 1_555
Co8 O32 1_555 1_555
O17 C11 1_555 1_555
O29 C15 1_555 1_555
Co1 O1 1_555 1_555
Co2 O3 1_555 1_555
Co3_3 O4 1_555 1_555
O1 C1 1_555 1_555
O2 C1 1_555 1_555
O3 Co1 1_555 1_555
O4 C3 1_555 1_555
O7 C7 1_555 1_555
O8 Co3_3 1_555 1_555
C1 C2 1_555 1_555
C2 H2 1_555 1_555
H3 C2 1_555 1_555
H4 C2 1_555 1_555
C3 O3 1_555 1_555
C4 C3 1_555 1_555
H5 C4 1_555 1_555
H6 C4 1_555 1_555
H7 C4 1_555 1_555
C7 O8 1_555 1_555
C8 C7 1_555 1_555
H12 C8 1_555 1_555
H13 C8 1_555 1_555
Co5 O2 1_555 1_555
O11 Co2 1_555 1_555
O18 Co2 1_555 1_555
O21 Co2 1_555 1_555
O27 Co2 1_555 1_555
O30 Co1 1_555 1_555
H14 O30 1_555 1_555
Co2 O30 1_555 1_555
Co5 O11 1_555 1_555
Co5 O30 1_555 1_555
O5 Co3_4 1_555 1_555
O6 C5 1_555 1_555
H1 O9 1_555 1_555
C5 O5 1_555 1_555
C6 C5 1_555 1_555
H8 C6 1_555 1_555
H9 C6 1_555 1_555
Co6 O6 1_555 1_555
Co11 O10 1_555 1_555
O10 Co6 1_555 1_555
C9 O10 1_555 1_555
C10 C9 1_555 1_555
H17 C10 1_555 1_555
H18 C10 1_555 1_555
H19 C10 1_555 1_555
O5 Co9 1_555 1_555
O9 Co6 1_555 1_555
O9 Co9 1_555 1_555
O14 C9 1_555 1_555
Co1_2 O1_2 1_555 1_555
Co2_2 O3_2 1_555 1_555
Co3_5 O4_2 1_555 1_555
O1_2 C1_2 1_555 1_555
O3_2 Co1_2 1_555 1_555
O4_2 C3_2 1_555 1_555
O5_2 Co3_5 1_555 1_555
O7_2 C7_2 1_555 1_555
O8_2 Co3_5 1_555 1_555
O9_2 Co1_2 1_555 1_555
H1_2 O9_2 1_555 1_555
C1_2 C2_2 1_555 1_555
C2_2 H2_2 1_555 1_555
H3_2 C2_2 1_555 1_555
H4_2 C2_2 1_555 1_555
C3_2 O3_2 1_555 1_555
C4_2 C3_2 1_555 1_555
H5_2 C4_2 1_555 1_555
H6_2 C4_2 1_555 1_555
H7_2 C4_2 1_555 1_555
C5_2 O5_2 1_555 1_555
C7_2 O8_2 1_555 1_555
C8_2 C7_2 1_555 1_555
H11_2 C8_2 1_555 1_555
H12_2 C8_2 1_555 1_555
H13_2 C8_2 1_555 1_555
Co7 O12_2 1_555 1_555
Co7_2 O23_2 1_555 1_555
Co9_2 O1_2 1_555 1_555
Co10_2 O12_2 1_555 1_555
O11_2 Co2_2 1_555 1_555
O15_2 Co7 1_555 1_555
O16_2 Co7 1_555 1_555
O17_2 Co3_5 1_555 1_555
O20_2 Co3_5 1_555 1_555
O21_2 Co2_2 1_555 1_555
O23_2 C13_2 1_555 1_555
O24_2 Co1_2 1_555 1_555
O26_2 Co10_2 1_555 1_555
O27_2 Co2_2 1_555 1_555
O29_2 Co3_5 1_555 1_555
O31_2 Co7 1_555 1_555
H15_2 O31_2 1_555 1_555
C11_2 O16_2 1_555 1_555
C12_2 C11_2 1_555 1_555
H20_2 C12_2 1_555 1_555
H21_2 C12_2 1_555 1_555
H22_2 C12_2 1_555 1_555
C13_2 O20_2 1_555 1_555
C14_2 C13_2 1_555 1_555
H23_2 C14_2 1_555 1_555
H24_2 C14_2 1_555 1_555
H25_2 C14_2 1_555 1_555
C15_2 O26_2 1_555 1_555
C16_2 C15_2 1_555 1_555
H26_2 C16_2 1_555 1_555
H28_2 C16_2 1_555 1_555
O4_2 Co9_2 1_555 1_555
O5_2 Co9_2 1_555 1_555
O7_2 Co9_2 1_555 1_555
O9_2 Co6_2 1_555 1_555
O9_2 Co9_2 1_555 1_555
Co7_2 O31_2 1_555 1_555
Co10 O16_2 1_555 1_555
Co10_2 O17_2 1_555 1_555
Co10_2 O20_2 1_555 1_555
Co10_2 O31_2 1_555 1_555
O17_2 C11_2 1_555 1_555
O29_2 C15_2 1_555 1_555
H8_2 C6_2 1_555 1_555
H9_2 C6_2 1_555 1_555
H10_2 C6_2 1_555 1_555
Co5_2 O2_2 1_555 1_555
H14_2 O30_2 1_555 1_555
C9_2 O10_2 1_555 1_555
C10_2 C9_2 1_555 1_555
H17_2 C10_2 1_555 1_555
H18_2 C10_2 1_555 1_555
H19_2 C10_2 1_555 1_555
Co5_2 O30_2 1_555 1_555
O14_2 C9_2 1_555 1_555
O11_2 C1_3 1_555 1_555
O2_3 C1_3 1_555 1_555
O21_2 Co3_6 1_555 1_555
O24_2 C5_3 1_555 1_555
O27_2 C7_3 1_555 1_555
O8_3 Co3_6 1_555 1_555
C1_3 C2_3 1_555 1_555
C2_3 H2_3 1_555 1_555
H3_3 C2_3 1_555 1_555
H4_3 C2_3 1_555 1_555
C5_3 O21_2 1_555 1_555
C6_3 C5_3 1_555 1_555
H8_3 C6_3 1_555 1_555
H10_3 C6_3 1_555 1_555
C7_3 O8_3 1_555 1_555
C8_3 C7_3 1_555 1_555
H11_3 C8_3 1_555 1_555
H12_3 C8_3 1_555 1_555
H13_3 C8_3 1_555 1_555
Co8_2 O13_2 1_555 1_555
O15_3 Co4_2 1_555 1_555
O16_3 Co4_2 1_555 1_555
O17_3 Co3_6 1_555 1_555
O19_2 Co8_2 1_555 1_555
O22_2 Co8_2 1_555 1_555
O25_2 Co4_2 1_555 1_555
O28_2 Co8_2 1_555 1_555
O31_3 Co4_2 1_555 1_555
O32_2 Co4_2 1_555 1_555
H15_3 O31_3 1_555 1_555
H16_2 O32_2 1_555 1_555
C11_3 O16_3 1_555 1_555
C12_3 C11_3 1_555 1_555
H20_3 C12_3 1_555 1_555
H21_3 C12_3 1_555 1_555
H22_3 C12_3 1_555 1_555
Co8_2 O16_3 1_555 1_555
Co8_2 O32_2 1_555 1_555
O17_3 C11_3 1_555 1_555
Co2_3 O3_3 1_555 1_555
Co3_7 O18_2 1_555 1_555
O3_3 Co5_2 1_555 1_555
O18_2 C3_3 1_555 1_555
C3_3 O3_3 1_555 1_555
C4_3 C3_3 1_555 1_555
H5_3 C4_3 1_555 1_555
H6_3 C4_3 1_555 1_555
H7_3 C4_3 1_555 1_555
Co7_3 O23_3 1_555 1_555
Co10_3 O12_3 1_555 1_555
O11_3 Co2_3 1_555 1_555
O18_3 Co2_3 1_555 1_555
O20_3 Co3_7 1_555 1_555
O21_3 Co2_3 1_555 1_555
O23_3 C13_3 1_555 1_555
O24_3 Co5_2 1_555 1_555
O26_3 Co10_3 1_555 1_555
O27_3 Co2_3 1_555 1_555
O29_3 Co3_7 1_555 1_555
O30_3 Co5_2 1_555 1_555
H14_3 O30_3 1_555 1_555
C13_3 O20_3 1_555 1_555
C14_3 C13_3 1_555 1_555
H23_3 C14_3 1_555 1_555
H25_3 C14_3 1_555 1_555
C15_3 O26_3 1_555 1_555
C16_3 C15_3 1_555 1_555
H26_3 C16_3 1_555 1_555
H27_3 C16_3 1_555 1_555
H28_3 C16_3 1_555 1_555
Co2_3 O30_3 1_555 1_555
Co5_3 O11_3 1_555 1_555
Co5_3 O30_3 1_555 1_555
Co10_3 O20_3 1_555 1_555
O29_3 C15_3 1_555 1_555
H23_4 C14_4 1_555 1_555
H24_4 C14_4 1_555 1_555
H25_4 C14_4 1_555 1_555
Co9 O3_4 1_555 1_555
Co3_8 O4_3 1_555 1_555
O3_4 Co6 1_555 1_555
O4_3 C3_4 1_555 1_555
O5_3 Co3_8 1_555 1_555
O6_3 C5_4 1_555 1_555
O7_3 C7_4 1_555 1_555
O8_4 Co3_8 1_555 1_555
O9_3 Co6 1_555 1_555
H1_3 O9_3 1_555 1_555
C3_4 O3_4 1_555 1_555
C4_4 C3_4 1_555 1_555
H5_4 C4_4 1_555 1_555
H6_4 C4_4 1_555 1_555
H7_4 C4_4 1_555 1_555
C5_4 O5_3 1_555 1_555
C6_4 C5_4 1_555 1_555
H8_4 C6_4 1_555 1_555
H9_4 C6_4 1_555 1_555
H10_4 C6_4 1_555 1_555
C7_4 O8_4 1_555 1_555
C8_4 C7_4 1_555 1_555
H11_4 C8_4 1_555 1_555
H13_4 C8_4 1_555 1_555
Co7_3 O12_4 1_555 1_555
Co6_3 O6_3 1_555 1_555
Co10_4 O12_4 1_555 1_555
Co11_3 O10_3 1_555 1_555
O10_3 Co6_3 1_555 1_555
O14_3 Co6 1_555 1_555
O16_4 Co7_3 1_555 1_555
O17_4 Co3_8 1_555 1_555
O20_4 Co3_8 1_555 1_555
O26_4 Co10_4 1_555 1_555
O29_4 Co3_8 1_555 1_555
O31_4 Co7_3 1_555 1_555
H15_4 O31_4 1_555 1_555
C9_3 O10_3 1_555 1_555
C10_3 C9_3 1_555 1_555
H17_3 C10_3 1_555 1_555
H18_3 C10_3 1_555 1_555
H19_3 C10_3 1_555 1_555
C11_4 O16_4 1_555 1_555
C12_4 C11_4 1_555 1_555
H20_4 C12_4 1_555 1_555
H21_4 C12_4 1_555 1_555
H22_4 C12_4 1_555 1_555
C13_4 O20_4 1_555 1_555
C15_4 O26_4 1_555 1_555
C16_4 C15_4 1_555 1_555
H26_4 C16_4 1_555 1_555
H27_4 C16_4 1_555 1_555
H28_4 C16_4 1_555 1_555
O4_3 Co11 1_555 1_555
O5_3 Co11 1_555 1_555
O7_3 Co11 1_555 1_555
O9_3 Co6_3 1_555 1_555
O9_3 Co11 1_555 1_555
Co7_4 O31_4 1_555 1_555
Co10_3 O16_4 1_555 1_555
Co10_4 O17_4 1_555 1_555
Co10_4 O20_4 1_555 1_555
Co10_4 O31_4 1_555 1_555
O14_3 C9_3 1_555 1_555
O17_4 C11_4 1_555 1_555
O29_4 C15_4 1_555 1_555
Co11_3 O3_5 1_555 1_555
Co3_9 O18 1_555 1_555
O11 C1_4 1_555 1_555
O2_4 C1_4 1_555 1_555
O3_5 Co5 1_555 1_555
O18 C3_5 1_555 1_555
O21 Co3_9 1_555 1_555
O27 C7_5 1_555 1_555
O8_5 Co3_9 1_555 1_555
C1_4 C2_4 1_555 1_555
C2_4 H2_4 1_555 1_555
H3_4 C2_4 1_555 1_555
H4_4 C2_4 1_555 1_555
C3_5 O3_5 1_555 1_555
C4_5 C3_5 1_555 1_555
H5_5 C4_5 1_555 1_555
H6_5 C4_5 1_555 1_555
H7_5 C4_5 1_555 1_555
C5_5 O21 1_555 1_555
C7_5 O8_5 1_555 1_555
C8_5 C7_5 1_555 1_555
H11_5 C8_5 1_555 1_555
H12_5 C8_5 1_555 1_555
H13_5 C8_5 1_555 1_555
Co4_3 O13_2 1_555 1_555
Co6_3 O2_4 1_555 1_555
O16_5 Co4_3 1_555 1_555
O19_2 Co3_9 1_555 1_555
O18_4 Co11_3 1_555 1_555
O22_2 Co3_9 1_555 1_555
O21_4 Co11_3 1_555 1_555
O22_3 Co8_3 1_555 1_555
O25_2 C13_5 1_555 1_555
O24_4 Co5 1_555 1_555
O25_3 Co4_3 1_555 1_555
O27_4 Co11_3 1_555 1_555
O29_5 Co3_9 1_555 1_555
O30_4 Co5 1_555 1_555
O32_2 Co4_3 1_555 1_555
H14_4 O30_4 1_555 1_555
C11_5 O16_5 1_555 1_555
C12_5 C11_5 1_555 1_555
H20_5 C12_5 1_555 1_555
H21_5 C12_5 1_555 1_555
H22_5 C12_5 1_555 1_555
C13_5 O22_2 1_555 1_555
C14_5 C13_5 1_555 1_555
H23_5 C14_5 1_555 1_555
H24_5 C14_5 1_555 1_555
H25_5 C14_5 1_555 1_555
C15_5 O28_2 1_555 1_555
C16_5 C15_5 1_555 1_555
H26_5 C16_5 1_555 1_555
H28_5 C16_5 1_555 1_555
Co11_3 O30_4 1_555 1_555
Co6_3 O30_4 1_555 1_555
Co8_3 O16_5 1_555 1_555
O19_2 C11_5 1_555 1_555
O29_5 C15_5 1_555 1_555
H8_5 C6_5 1_555 1_555
H9_5 C6_5 1_555 1_555
H10_5 C6_5 1_555 1_555
H16_3 O32_3 1_555 1_555
Co11 O3_6 1_555 1_555
Co3_10 O18_4 1_555 1_555
O3_6 Co6_3 1_555 1_555
O18_4 C3_6 1_555 1_555
O21_4 Co3_10 1_555 1_555
O24_4 C5_6 1_555 1_555
O27_4 C7_6 1_555 1_555
O8_6 Co3_10 1_555 1_555
C3_6 O3_6 1_555 1_555
C4_6 C3_6 1_555 1_555
H5_6 C4_6 1_555 1_555
H6_6 C4_6 1_555 1_555
H7_6 C4_6 1_555 1_555
C5_6 O21_4 1_555 1_555
C6_6 C5_6 1_555 1_555
H8_6 C6_6 1_555 1_555
H9_6 C6_6 1_555 1_555
H10_6 C6_6 1_555 1_555
C7_6 O8_6 1_555 1_555
C8_6 C7_6 1_555 1_555
H11_6 C8_6 1_555 1_555
H12_6 C8_6 1_555 1_555
H13_6 C8_6 1_555 1_555
Co7_2 O12_5 1_555 1_555
Co7_5 O23_5 1_555 1_555
Co10_5 O12_5 1_555 1_555
O15_6 Co7_2 1_555 1_555
O16_6 Co7_2 1_555 1_555
O17_5 Co3_10 1_555 1_555
O20_5 Co3_10 1_555 1_555
O23_5 C13_6 1_555 1_555
O26_5 Co10_5 1_555 1_555
O29_6 Co3_10 1_555 1_555
O31_5 Co7_2 1_555 1_555
H15_5 O31_5 1_555 1_555
C11_6 O16_6 1_555 1_555
C12_6 C11_6 1_555 1_555
H20_6 C12_6 1_555 1_555
H21_6 C12_6 1_555 1_555
H22_6 C12_6 1_555 1_555
C13_6 O20_5 1_555 1_555
C14_6 C13_6 1_555 1_555
H23_6 C14_6 1_555 1_555
H24_6 C14_6 1_555 1_555
H25_6 C14_6 1_555 1_555
C15_6 O26_5 1_555 1_555
C16_6 C15_6 1_555 1_555
H26_6 C16_6 1_555 1_555
H27_6 C16_6 1_555 1_555
H28_6 C16_6 1_555 1_555
Co7_5 O31_5 1_555 1_555
Co10_2 O16_6 1_555 1_555
Co10_5 O17_5 1_555 1_555
Co10_5 O20_5 1_555 1_555
Co10_5 O31_5 1_555 1_555
O17_5 C11_6 1_555 1_555
O29_6 C15_6 1_555 1_555
H14_5 O30_5 1_555 1_555
H23_7 C14_7 1_555 1_555
H24_7 C14_7 1_555 1_555
H25_7 C14_7 1_555 1_555
Co11_2 O3_7 1_555 1_555
Co3_11 O18_3 1_555 1_555
O11_3 C1_5 1_555 1_555
O3_7 Co5_3 1_555 1_555
O18_3 C3_7 1_555 1_555
O21_3 Co3_11 1_555 1_555
O24_3 C5_7 1_555 1_555
O27_3 C7_7 1_555 1_555
O8_7 Co3_11 1_555 1_555
C1_5 C2_5 1_555 1_555
C2_5 H2_5 1_555 1_555
H3_5 C2_5 1_555 1_555
H4_5 C2_5 1_555 1_555
C3_7 O3_7 1_555 1_555
C4_7 C3_7 1_555 1_555
H5_7 C4_7 1_555 1_555
H6_7 C4_7 1_555 1_555
H7_7 C4_7 1_555 1_555
C5_7 O21_3 1_555 1_555
C6_7 C5_7 1_555 1_555
H8_7 C6_7 1_555 1_555
H9_7 C6_7 1_555 1_555
H10_7 C6_7 1_555 1_555
C7_7 O8_7 1_555 1_555
C8_7 C7_7 1_555 1_555
H11_7 C8_7 1_555 1_555
H13_7 C8_7 1_555 1_555
Co7_5 O13 1_555 1_555
O15_7 Co7_5 1_555 1_555
O16_7 Co7_5 1_555 1_555
O19 Co3_11 1_555 1_555
O22 Co3_11 1_555 1_555
O21_5 Co11_2 1_555 1_555
O24_5 Co5_3 1_555 1_555
O29_7 Co3_11 1_555 1_555
O32 Co7_5 1_555 1_555
C11_7 O16_7 1_555 1_555
C12_7 C11_7 1_555 1_555
H20_7 C12_7 1_555 1_555
H21_7 C12_7 1_555 1_555
H22_7 C12_7 1_555 1_555
C13_7 O22 1_555 1_555
C15_7 O28 1_555 1_555
C16_7 C15_7 1_555 1_555
H26_7 C16_7 1_555 1_555
H27_7 C16_7 1_555 1_555
H28_7 C16_7 1_555 1_555
Co10_5 O16_7 1_555 1_555
O19 C11_7 1_555 1_555
O29_7 C15_7 1_555 1_555
Co9_2 O3_8 1_555 1_555
Co3_12 O18_5 1_555 1_555
O3_8 Co6_2 1_555 1_555
O18_5 C3_8 1_555 1_555
C3_8 O3_8 1_555 1_555
C4_8 C3_8 1_555 1_555
H5_8 C4_8 1_555 1_555
H6_8 C4_8 1_555 1_555
H7_8 C4_8 1_555 1_555
O27_5 C7_8 1_555 1_555
O8_8 Co3_14 1_555 1_555
C7_8 O8_8 1_555 1_555
C8_8 C7_8 1_555 1_555
H12_8 C8_8 1_555 1_555
H13_8 C8_8 1_555 1_555
O21_5 Co3_15 1_555 1_555
O24_5 C5_8 1_555 1_555
C5_8 O21_5 1_555 1_555
C6_8 C5_8 1_555 1_555
H8_8 C6_8 1_555 1_555
O22_3 Co3_16 1_555 1_555
O25_3 C13_8 1_555 1_555
C13_8 O22_3 1_555 1_555
C14_8 C13_8 1_555 1_555
H23_8 C14_8 1_555 1_555
O29_8 Co3_17 1_555 1_555
C15_8 O28_3 1_555 1_555
C16_8 C15_8 1_555 1_555
H27_8 C16_8 1_555 1_555
H28_8 C16_8 1_555 1_555
O29_8 C15_8 1_555 1_555
O16_8 Co7_4 1_555 1_555
O19_3 Co3_19 1_555 1_555
C11_8 O16_8 1_555 1_555
C12_8 C11_8 1_555 1_555
H20_8 C12_8 1_555 1_555
H21_8 C12_8 1_555 1_555
H22_8 C12_8 1_555 1_555
Co10_4 O16_8 1_555 1_555
O19_3 C11_8 1_555 1_555
C9_4 O12_2 1_555 1_555
C10_4 C9_4 1_555 1_555
H17_4 C10_4 1_555 1_555
H18_4 C10_4 1_555 1_555
H19_4 C10_4 1_555 1_555
O15 C9_4 1_555 1_555
O12 C1_6 1_555 1_555
O15_7 C1_6 1_555 1_555
C1_6 C2_6 1_555 1_555
C2_6 H2_6 1_555 1_555
H3_6 C2_6 1_555 1_555
H4_6 C2_6 1_555 1_555
C9_5 O13_3 1_555 1_555
C10_5 C9_5 1_555 1_555
H17_5 C10_5 1_555 1_555
H18_5 C10_5 1_555 1_555
H19_5 C10_5 1_555 1_555
O15_4 C9_5 1_555 1_555
O12_4 C1_7 1_555 1_555
C1_7 C2_7 1_555 1_555
C2_7 H2_7 1_555 1_555
H3_7 C2_7 1_555 1_555
H4_7 C2_7 1_555 1_555
O12_3 C1_8 1_555 1_555
O15_5 C1_8 1_555 1_555
C1_8 C2_8 1_555 1_555
C2_8 H2_8 1_555 1_555
H3_8 C2_8 1_555 1_555
H4_8 C2_8 1_555 1_555
C9_6 O12_5 1_555 1_555
C10_6 C9_6 1_555 1_555
H17_6 C10_6 1_555 1_555
H18_6 C10_6 1_555 1_555
H19_6 C10_6 1_555 1_555
O15_2 C9_6 1_555 1_555
O13 C1_9 1_555 1_555
O15_6 C1_9 1_555 1_555
C1_9 C2_9 1_555 1_555
C2_9 H2_9 1_555 1_555
H3_9 C2_9 1_555 1_555
H4_9 C2_9 1_555 1_555
O13_2 C1_10 1_555 1_555
C1_10 C2_10 1_555 1_555
C2_10 H2_10 1_555 1_555
H3_10 C2_10 1_555 1_555
H4_10 C2_10 1_555 1_555

#END
