
###############################################################################
#
# This file contains modified crystal structure data generated from the
# MOF subset of the Cambridge Structural Database (CSD) v543 
# hosted by the Cambridge Crystallographic Data Centre (CCDC).
#
# This work is licensed under the Creative Commons
# Attribution-NonCommercial-ShareAlike 4.0 International License.
# To view a copy of this license, visit
# http://creativecommons.org/licenses/by-nc-sa/4.0/
# or send a letter to
# Creative Commons, PO Box 1866, Mountain View, CA 94042, USA.
#
# CIF created using the CSD Python API on 29 September 2022
# The structure has been converted into the P1 space group
# The structure has a 3D framework
# The original CSD entry CIRRED is in the orthorhombic crystal system
# The framework has been calculated to contain at least 10.0% void space
# The void calculation uses a probe of radius 1.32A, grid spacing 0.4
#
###############################################################################

data_CIRRED
_chemical_formula_moiety         '(C688 H336 Co40 N32 O216)n'
_symmetry_cell_setting           triclinic
_symmetry_space_group_name_H-M   'P 1'
_symmetry_Int_Tables_number      1
_space_group_name_Hall           'P 1'
loop_
_symmetry_equiv_pos_site_id
_symmetry_equiv_pos_as_xyz
1 x,y,z
_cell_length_a                   21.3993(3)
_cell_length_b                   33.9767(10)
_cell_length_c                   49.9951(8)
_cell_angle_alpha                90
_cell_angle_beta                 90
_cell_angle_gamma                90
_cell_volume                     36350.3
loop_
_atom_site_label
_atom_site_type_symbol
_atom_site_fract_x
_atom_site_fract_y
_atom_site_fract_z
O9 O 0.20816(9) 0.38541(8) 0.11125(4)
O10 O 0.28415(10) 0.35484(9) 0.08884(5)
C23 C 0.22825(15) 0.36032(13) 0.09408(6)
C25 C 0.11838(14) 0.33690(13) 0.08663(6)
H12 H 0.1045 0.3514 0.1013
C26 C 0.18159(14) 0.33711(13) 0.07948(7)
N2 N 0.04828(15) 0.27490(18) 0.03695(8)
C29 C 0.07658(16) 0.31476(15) 0.07151(8)
C31 C 0.00911(17) 0.30761(15) 0.07320(8)
C32 C 0.20105(16) 0.31544(16) 0.05685(9)
H14 H 0.2430 0.3161 0.0520
C34 C 0.09872(18) 0.29346(18) 0.04919(9)
C41 C 0.16075(19) 0.29342(19) 0.04168(9)
H20 H 0.1746 0.2791 0.0270
C42 C 0.05168(16) 0.2539(2) 0.01215(10)
C43 C 0.0940(2) 0.2232(2) 0.00919(10)
H21 H 0.1197 0.2158 0.0233
Co4 Co 0.25097(2) 0.43574(2) 0.11533(2)
Co10 Co 0.3750 0.3750 0.09282(2)
Co3 Co 0.00097(2) 0.18574(2) 0.88467(2)
O12 O 0.02120(13) 0.20374(11) 0.92037(5)
O14 O 0.10280(12) 0.16667(10) 0.93559(5)
C30 C 0.06175(15) 0.19241(15) 0.93809(8)
C35 C 0.01540(18) 0.24358(18) 0.96824(10)
C36 C 0.05822(16) 0.21343(16) 0.96400(9)
C37 C 0.09744(19) 0.2035(2) 0.98465(9)
H17 H 0.1266 0.1835 0.9823
C40 C 0.01257(19) 0.26296(19) 0.99212(11)
Co8 Co 0.1250 0.1250 0.90718(2)
O21 O 0.04817(11) 0.19809(10) 0.85239(5)
O11 O 0.86381(13) 0.33408(11) 0.12656(6)
O13 O 0.79817(11) 0.30191(10) 0.10239(5)
C24 C 0.85216(16) 0.31534(12) 0.10634(7)
C27 C 0.90198(16) 0.30625(14) 0.08664(7)
C28 C 0.96246(16) 0.31898(15) 0.09079(7)
H13 H 0.9718 0.3351 0.1053
C33 C 0.88853(18) 0.28162(18) 0.06520(9)
H15 H 0.8478 0.2725 0.0632
C38 C 0.99413(16) 0.2839(2) 0.05119(9)
C39 C 0.93291(19) 0.2701(2) 0.04681(11)
H18 H 0.9230 0.2541 0.0323
Co7 Co 0.75097(2) 0.31426(2) 0.13467(2)
Co9 Co 0.8750 0.3750 0.15718(2)
Co1 Co 0.74903(2) 0.18574(2) 0.86533(2)
Co2 Co 0.6250 0.1250 0.84282(2)
O1 O 0.54184(9) 0.38541(8) 0.63875(4)
O2 O 0.46585(10) 0.35484(9) 0.66116(5)
O3 O 0.88619(13) 0.33408(11) 0.62344(6)
O4 O 0.82418(11) 0.21965(9) 0.87177(6)
O5 O 0.72880(13) 0.20374(11) 0.82963(5)
O6 O 0.95183(11) 0.30191(10) 0.64761(5)
O7 O 0.64720(12) 0.16667(10) 0.81441(5)
C1 C 0.52175(15) 0.36032(13) 0.65592(6)
C2 C 0.89784(16) 0.31534(12) 0.64366(7)
C3 C 0.63162(14) 0.33690(13) 0.66337(6)
H1 H 0.6455 0.3514 0.6487
C4 C 0.56841(14) 0.33711(13) 0.67052(7)
C5 C 0.84802(16) 0.30625(14) 0.66336(7)
C6 C 0.78754(16) 0.31898(15) 0.65921(7)
H2 H 0.7782 0.3351 0.6447
N1 N 0.70172(15) 0.27490(18) 0.71305(8)
C7 C 0.67342(16) 0.31476(15) 0.67849(8)
C8 C 0.68825(15) 0.19241(15) 0.81191(8)
C9 C 0.8750 0.2033(2) 0.8750
H3 H 0.8750 0.1759 0.8750
C10 C 0.74089(17) 0.30761(15) 0.67680(8)
C11 C 0.54895(16) 0.31544(16) 0.69315(9)
H4 H 0.5070 0.3161 0.6980
C12 C 0.86147(18) 0.28162(18) 0.68480(9)
H5 H 0.9022 0.2725 0.6868
C13 C 0.65128(18) 0.29346(18) 0.70081(9)
C14 C 0.73460(18) 0.24358(18) 0.78176(10)
H6 H 0.7618 0.2507 0.7954
C15 C 0.69178(16) 0.21343(16) 0.78600(9)
C16 C 0.65256(19) 0.2035(2) 0.76535(9)
H7 H 0.6234 0.1835 0.7677
C17 C 0.75587(16) 0.2839(2) 0.69881(9)
C18 C 0.81709(19) 0.2701(2) 0.70319(11)
H8 H 0.8270 0.2541 0.7177
C19 C 0.73743(19) 0.26296(19) 0.75788(11)
H9 H 0.7669 0.2828 0.7555
C20 C 0.58925(19) 0.29342(19) 0.70832(9)
H10 H 0.5754 0.2791 0.7230
C21 C 0.69832(16) 0.2539(2) 0.73785(10)
C22 C 0.6560(2) 0.2232(2) 0.74081(10)
H11 H 0.6303 0.2158 0.7267
O8 O 0.92582(11) 0.21965(9) 0.87823(6)
H16 H 0.9882 0.2507 0.9546
H19 H 0.9831 0.2828 0.9945
Co5 Co 0.99903(2) 0.31426(2) 0.61533(2)
Co6 Co 0.49903(2) 0.43574(2) 0.63467(2)
Co11 Co 0.3750 0.3750 0.65718(2)
Co12 Co 0.8750 0.3750 0.59282(2)
O15 O 0.79184(9) 0.13541(8) 0.86125(4)
O16 O 0.95816(9) 0.13541(8) 0.88875(4)
O17 O 0.53415(10) 0.14516(9) 0.83884(5)
O18 O 0.71585(10) 0.10484(9) 0.83884(5)
O19 O 0.63619(13) 0.16592(11) 0.87344(6)
O20 O 0.61381(13) 0.08408(11) 0.87344(6)
O22 O 0.70183(11) 0.19809(10) 0.89761(5)
O23 O 0.60280(12) 0.08333(10) 0.81441(5)
Co1_2 Co 0.00097(2) 0.56426(2) 0.86533(2)
Co2_2 Co 0.1250 0.6250 0.84282(2)
O1_2 O 0.20816(9) 0.36459(8) 0.63875(4)
O2_2 O 0.28415(10) 0.39516(9) 0.66116(5)
O5_2 O 0.02120(13) 0.54626(11) 0.82963(5)
O7_2 O 0.10280(12) 0.58333(10) 0.81441(5)
C1_2 C 0.22825(15) 0.38968(13) 0.65592(6)
C3_2 C 0.11838(14) 0.41310(13) 0.66337(6)
H1_2 H 0.1045 0.3986 0.6487
C4_2 C 0.18159(14) 0.41289(13) 0.67052(7)
N1_2 N 0.04828(15) 0.47510(18) 0.71305(8)
C7_2 C 0.07658(16) 0.43524(15) 0.67849(8)
C8_2 C 0.06175(15) 0.55759(15) 0.81191(8)
C10_2 C 0.00911(17) 0.44239(15) 0.67680(8)
C11_2 C 0.20105(16) 0.43456(16) 0.69315(9)
H4_2 H 0.2430 0.4339 0.6980
C13_2 C 0.09872(18) 0.45654(18) 0.70081(9)
C14_2 C 0.01540(18) 0.50642(18) 0.78176(10)
C15_2 C 0.05822(16) 0.53657(16) 0.78600(9)
C16_2 C 0.09744(19) 0.5465(2) 0.76535(9)
H7_2 H 0.1266 0.5665 0.7677
C19_2 C 0.01257(19) 0.48704(19) 0.75788(11)
C20_2 C 0.16075(19) 0.45658(19) 0.70832(9)
H10_2 H 0.1746 0.4709 0.7230
C21_2 C 0.05168(16) 0.4961(2) 0.73785(10)
C22_2 C 0.0940(2) 0.5268(2) 0.74081(10)
H11_2 H 0.1197 0.5342 0.7267
Co6_2 Co 0.25097(2) 0.31426(2) 0.63467(2)
O17_2 O 0.21585(10) 0.60484(9) 0.83884(5)
O18_2 O 0.03415(10) 0.64516(9) 0.83884(5)
O19_2 O 0.11381(13) 0.58408(11) 0.87344(6)
O20_2 O 0.13619(13) 0.66592(11) 0.87344(6)
O22_2 O 0.04817(11) 0.55191(10) 0.89761(5)
O23_2 O 0.14720(12) 0.66667(10) 0.81441(5)
O9_2 O 0.54184(9) 0.36459(8) 0.11125(4)
O10_2 O 0.46585(10) 0.39516(9) 0.08884(5)
O11_2 O 0.88619(13) 0.41592(11) 0.12656(6)
O13_2 O 0.95183(11) 0.44809(10) 0.10239(5)
C23_2 C 0.52175(15) 0.38968(13) 0.09408(6)
C24_2 C 0.89784(16) 0.43466(12) 0.10634(7)
C25_2 C 0.63162(14) 0.41310(13) 0.08663(6)
H12_2 H 0.6455 0.3986 0.1013
C26_2 C 0.56841(14) 0.41289(13) 0.07948(7)
C27_2 C 0.84802(16) 0.44375(14) 0.08664(7)
C28_2 C 0.78754(16) 0.43102(15) 0.09079(7)
H13_2 H 0.7782 0.4149 0.1053
N2_2 N 0.70172(15) 0.47510(18) 0.03695(8)
C29_2 C 0.67342(16) 0.43524(15) 0.07151(8)
C31_2 C 0.74089(17) 0.44239(15) 0.07320(8)
C32_2 C 0.54895(16) 0.43456(16) 0.05685(9)
H14_2 H 0.5070 0.4339 0.0520
C33_2 C 0.86147(18) 0.46838(18) 0.06520(9)
H15_2 H 0.9022 0.4775 0.0632
C34_2 C 0.65128(18) 0.45654(18) 0.04919(9)
C38_2 C 0.75587(16) 0.4661(2) 0.05119(9)
C39_2 C 0.81709(19) 0.4799(2) 0.04681(11)
H18_2 H 0.8270 0.4959 0.0323
C41_2 C 0.58925(19) 0.45658(19) 0.04168(9)
H20_2 H 0.5754 0.4709 0.0270
C42_2 C 0.69832(16) 0.4961(2) 0.01215(10)
C43_2 C 0.6560(2) 0.5268(2) 0.00919(10)
H21_2 H 0.6303 0.5342 0.0233
Co4_2 Co 0.49903(2) 0.31426(2) 0.11533(2)
Co7_2 Co 0.99903(2) 0.43574(2) 0.13467(2)
O3_2 O 0.86381(13) 0.41592(11) 0.62344(6)
O4_2 O 0.92582(11) 0.53035(9) 0.87177(6)
O6_2 O 0.79817(11) 0.44809(10) 0.64761(5)
C2_2 C 0.85216(16) 0.43466(12) 0.64366(7)
C5_2 C 0.90198(16) 0.44375(14) 0.66336(7)
C6_2 C 0.96246(16) 0.43102(15) 0.65921(7)
H2_2 H 0.9718 0.4149 0.6447
C9_2 C 0.8750 0.5467(2) 0.8750
H3_2 H 0.8750 0.5741 0.8750
C12_2 C 0.88853(18) 0.46838(18) 0.68480(9)
H5_2 H 0.8478 0.4775 0.6868
H6_2 H 0.9882 0.4993 0.7954
C17_2 C 0.99413(16) 0.4661(2) 0.69881(9)
C18_2 C 0.93291(19) 0.4799(2) 0.70319(11)
H8_2 H 0.9230 0.4959 0.7177
H9_2 H 0.9831 0.4672 0.7555
O8_2 O 0.82418(11) 0.53035(9) 0.87823(6)
Co3_2 Co 0.74903(2) 0.56426(2) 0.88467(2)
O12_2 O 0.72880(13) 0.54626(11) 0.92037(5)
O14_2 O 0.64720(12) 0.58333(10) 0.93559(5)
C30_2 C 0.68825(15) 0.55759(15) 0.93809(8)
C35_2 C 0.73460(18) 0.50642(18) 0.96824(10)
H16_2 H 0.7618 0.4993 0.9546
C36_2 C 0.69178(16) 0.53657(16) 0.96400(9)
C37_2 C 0.65256(19) 0.5465(2) 0.98465(9)
H17_2 H 0.6234 0.5665 0.9823
C40_2 C 0.73743(19) 0.48704(19) 0.99212(11)
H19_2 H 0.7669 0.4672 0.9945
Co5_2 Co 0.75097(2) 0.43574(2) 0.61533(2)
Co8_2 Co 0.6250 0.6250 0.90718(2)
O15_2 O 0.95816(9) 0.61459(8) 0.86125(4)
O16_2 O 0.79184(9) 0.61459(8) 0.88875(4)
O21_2 O 0.70183(11) 0.55191(10) 0.85239(5)
O17_3 O 0.21585(10) 0.14516(9) 0.91116(5)
O18_3 O 0.03415(10) 0.10484(9) 0.91116(5)
O19_3 O 0.11381(13) 0.16592(11) 0.87656(6)
O20_3 O 0.13619(13) 0.08408(11) 0.87656(6)
O23_3 O 0.14720(12) 0.08333(10) 0.93559(5)
O17_4 O 0.53415(10) 0.60484(9) 0.91116(5)
O18_4 O 0.71585(10) 0.64516(9) 0.91116(5)
O19_4 O 0.63619(13) 0.58408(11) 0.87656(6)
O20_4 O 0.61381(13) 0.66592(11) 0.87656(6)
O23_4 O 0.60280(12) 0.66667(10) 0.93559(5)
Co3_3 Co 0.00097(2) 0.68574(2) 0.38467(2)
O9_3 O 0.20816(9) 0.88541(8) 0.61125(4)
O10_3 O 0.28415(10) 0.85484(9) 0.58884(5)
O12_3 O 0.02120(13) 0.70374(11) 0.42037(5)
O14_3 O 0.10280(12) 0.66667(10) 0.43559(5)
C23_3 C 0.22825(15) 0.86032(13) 0.59408(6)
C25_3 C 0.11838(14) 0.83690(13) 0.58663(6)
H12_3 H 0.1045 0.8514 0.6013
C26_3 C 0.18159(14) 0.83711(13) 0.57948(7)
N2_3 N 0.04828(15) 0.77490(18) 0.53695(8)
C29_3 C 0.07658(16) 0.81476(15) 0.57151(8)
C30_3 C 0.06175(15) 0.69241(15) 0.43809(8)
C31_3 C 0.00911(17) 0.80761(15) 0.57320(8)
C32_3 C 0.20105(16) 0.81544(16) 0.55685(9)
H14_3 H 0.2430 0.8161 0.5520
C34_3 C 0.09872(18) 0.79346(18) 0.54919(9)
C35_3 C 0.01540(18) 0.74358(18) 0.46824(10)
C36_3 C 0.05822(16) 0.71343(16) 0.46400(9)
C37_3 C 0.09744(19) 0.7035(2) 0.48465(9)
H17_3 H 0.1266 0.6835 0.4823
C40_3 C 0.01257(19) 0.76296(19) 0.49212(11)
C41_3 C 0.16075(19) 0.79342(19) 0.54168(9)
H20_3 H 0.1746 0.7791 0.5270
C42_3 C 0.05168(16) 0.7539(2) 0.51215(10)
C43_3 C 0.0940(2) 0.7232(2) 0.50919(10)
H21_3 H 0.1197 0.7158 0.5233
Co4_3 Co 0.25097(2) 0.93574(2) 0.61533(2)
Co8_3 Co 0.1250 0.6250 0.40718(2)
Co10_2 Co 0.3750 0.8750 0.59282(2)
O21_3 O 0.04817(11) 0.69809(10) 0.35239(5)
Co1_3 Co 0.74903(2) 0.68574(2) 0.36533(2)
Co2_3 Co 0.6250 0.6250 0.34282(2)
O1_3 O 0.54184(9) 0.88541(8) 0.13875(4)
O2_3 O 0.46585(10) 0.85484(9) 0.16116(5)
O3_3 O 0.88619(13) 0.83408(11) 0.12344(6)
O4_3 O 0.82418(11) 0.71965(9) 0.37177(6)
O5_3 O 0.72880(13) 0.70374(11) 0.32963(5)
O6_3 O 0.95183(11) 0.80191(10) 0.14761(5)
O7_3 O 0.64720(12) 0.66667(10) 0.31441(5)
C1_3 C 0.52175(15) 0.86032(13) 0.15592(6)
C2_3 C 0.89784(16) 0.81534(12) 0.14366(7)
C3_3 C 0.63162(14) 0.83690(13) 0.16337(6)
H1_3 H 0.6455 0.8514 0.1487
C4_3 C 0.56841(14) 0.83711(13) 0.17052(7)
C5_3 C 0.84802(16) 0.80625(14) 0.16336(7)
C6_3 C 0.78754(16) 0.81898(15) 0.15921(7)
H2_3 H 0.7782 0.8351 0.1447
N1_3 N 0.70172(15) 0.77490(18) 0.21305(8)
C7_3 C 0.67342(16) 0.81476(15) 0.17849(8)
C8_3 C 0.68825(15) 0.69241(15) 0.31191(8)
C9_3 C 0.8750 0.7033(2) 0.3750
H3_3 H 0.8750 0.6759 0.3750
C10_3 C 0.74089(17) 0.80761(15) 0.17680(8)
C11_3 C 0.54895(16) 0.81544(16) 0.19315(9)
H4_3 H 0.5070 0.8161 0.1980
C12_3 C 0.86147(18) 0.78162(18) 0.18480(9)
H5_3 H 0.9022 0.7725 0.1868
C13_3 C 0.65128(18) 0.79346(18) 0.20081(9)
C14_3 C 0.73460(18) 0.74358(18) 0.28176(10)
H6_3 H 0.7618 0.7507 0.2954
C15_3 C 0.69178(16) 0.71343(16) 0.28600(9)
C16_3 C 0.65256(19) 0.7035(2) 0.26535(9)
H7_3 H 0.6234 0.6835 0.2677
C17_3 C 0.75587(16) 0.7839(2) 0.19881(9)
C18_3 C 0.81709(19) 0.7701(2) 0.20319(11)
H8_3 H 0.8270 0.7541 0.2177
C19_3 C 0.73743(19) 0.76296(19) 0.25788(11)
H9_3 H 0.7669 0.7828 0.2555
C20_3 C 0.58925(19) 0.79342(19) 0.20832(9)
H10_3 H 0.5754 0.7791 0.2230
C21_3 C 0.69832(16) 0.7539(2) 0.23785(10)
C22_3 C 0.6560(2) 0.7232(2) 0.24081(10)
H11_3 H 0.6303 0.7158 0.2267
O8_3 O 0.92582(11) 0.71965(9) 0.37823(6)
O11_3 O 0.86381(13) 0.83408(11) 0.62656(6)
O13_3 O 0.79817(11) 0.80191(10) 0.60239(5)
C24_3 C 0.85216(16) 0.81534(12) 0.60634(7)
C27_3 C 0.90198(16) 0.80625(14) 0.58664(7)
C28_3 C 0.96246(16) 0.81898(15) 0.59079(7)
H13_3 H 0.9718 0.8351 0.6053
C33_3 C 0.88853(18) 0.78162(18) 0.56520(9)
H15_3 H 0.8478 0.7725 0.5632
H16_3 H 0.9882 0.7507 0.4546
C38_3 C 0.99413(16) 0.7839(2) 0.55119(9)
C39_3 C 0.93291(19) 0.7701(2) 0.54681(11)
H18_3 H 0.9230 0.7541 0.5323
H19_3 H 0.9831 0.7828 0.4945
Co5_3 Co 0.99903(2) 0.81426(2) 0.11533(2)
Co6_3 Co 0.49903(2) 0.93574(2) 0.13467(2)
Co7_3 Co 0.75097(2) 0.81426(2) 0.63467(2)
Co9_2 Co 0.8750 0.8750 0.65718(2)
Co11_2 Co 0.3750 0.8750 0.15718(2)
Co12_2 Co 0.8750 0.8750 0.09282(2)
O15_3 O 0.79184(9) 0.63541(8) 0.36125(4)
O16_3 O 0.95816(9) 0.63541(8) 0.38875(4)
O17_5 O 0.53415(10) 0.64516(9) 0.33884(5)
O18_5 O 0.71585(10) 0.60484(9) 0.33884(5)
O19_5 O 0.63619(13) 0.66592(11) 0.37344(6)
O20_5 O 0.61381(13) 0.58408(11) 0.37344(6)
O22_3 O 0.70183(11) 0.69809(10) 0.39761(5)
O23_5 O 0.60280(12) 0.58333(10) 0.31441(5)
Co1_4 Co 0.00097(2) 0.06426(2) 0.36533(2)
Co2_4 Co 0.1250 0.1250 0.34282(2)
O5_4 O 0.02120(13) 0.04626(11) 0.32963(5)
O7_4 O 0.10280(12) 0.08333(10) 0.31441(5)
C8_4 C 0.06175(15) 0.05759(15) 0.31191(8)
C14_4 C 0.01540(18) 0.00642(18) 0.28176(10)
C15_4 C 0.05822(16) 0.03657(16) 0.28600(9)
C16_4 C 0.09744(19) 0.0465(2) 0.26535(9)
H7_4 H 0.1266 0.0665 0.2677
C22_4 C 0.0940(2) 0.0268(2) 0.24081(10)
H11_4 H 0.1197 0.0342 0.2267
O17_6 O 0.21585(10) 0.10484(9) 0.33884(5)
O18_6 O 0.03415(10) 0.14516(9) 0.33884(5)
O19_6 O 0.11381(13) 0.08408(11) 0.37344(6)
O20_6 O 0.13619(13) 0.16592(11) 0.37344(6)
O22_4 O 0.04817(11) 0.05191(10) 0.39761(5)
O23_6 O 0.14720(12) 0.16667(10) 0.31441(5)
O1_4 O 0.20816(9) 0.86459(8) 0.13875(4)
O2_4 O 0.28415(10) 0.89516(9) 0.16116(5)
C1_4 C 0.22825(15) 0.88968(13) 0.15592(6)
C3_4 C 0.11838(14) 0.91310(13) 0.16337(6)
H1_4 H 0.1045 0.8986 0.1487
C4_4 C 0.18159(14) 0.91289(13) 0.17052(7)
N1_4 N 0.04828(15) 0.97510(18) 0.21305(8)
C7_4 C 0.07658(16) 0.93524(15) 0.17849(8)
C10_4 C 0.00911(17) 0.94239(15) 0.17680(8)
C11_4 C 0.20105(16) 0.93456(16) 0.19315(9)
H4_4 H 0.2430 0.9339 0.1980
C13_4 C 0.09872(18) 0.95654(18) 0.20081(9)
C19_4 C 0.01257(19) 0.98704(19) 0.25788(11)
C20_4 C 0.16075(19) 0.95658(19) 0.20832(9)
H10_4 H 0.1746 0.9709 0.2230
C21_4 C 0.05168(16) 0.9961(2) 0.23785(10)
Co6_4 Co 0.25097(2) 0.81426(2) 0.13467(2)
O4_4 O 0.92582(11) 0.03035(9) 0.37177(6)
C9_4 C 0.8750 0.0467(2) 0.3750
H3_4 H 0.8750 0.0741 0.3750
O8_4 O 0.82418(11) 0.03035(9) 0.37823(6)
Co3_4 Co 0.74903(2) 0.06426(2) 0.38467(2)
O12_4 O 0.72880(13) 0.04626(11) 0.42037(5)
O14_4 O 0.64720(12) 0.08333(10) 0.43559(5)
C30_4 C 0.68825(15) 0.05759(15) 0.43809(8)
C35_4 C 0.73460(18) 0.00642(18) 0.46824(10)
C36_4 C 0.69178(16) 0.03657(16) 0.46400(9)
C37_4 C 0.65256(19) 0.0465(2) 0.48465(9)
H17_4 H 0.6234 0.0665 0.4823
C43_4 C 0.6560(2) 0.0268(2) 0.50919(10)
H21_4 H 0.6303 0.0342 0.5233
Co8_4 Co 0.6250 0.1250 0.40718(2)
O15_4 O 0.95816(9) 0.11459(8) 0.36125(4)
O16_4 O 0.79184(9) 0.11459(8) 0.38875(4)
O21_4 O 0.70183(11) 0.05191(10) 0.35239(5)
O3_4 O 0.86381(13) 0.91592(11) 0.12344(6)
O6_4 O 0.79817(11) 0.94809(10) 0.14761(5)
C2_4 C 0.85216(16) 0.93466(12) 0.14366(7)
C5_4 C 0.90198(16) 0.94375(14) 0.16336(7)
C6_4 C 0.96246(16) 0.93102(15) 0.15921(7)
H2_4 H 0.9718 0.9149 0.1447
C12_4 C 0.88853(18) 0.96838(18) 0.18480(9)
H5_4 H 0.8478 0.9775 0.1868
H6_4 H 0.9882 0.9993 0.2954
C17_4 C 0.99413(16) 0.9661(2) 0.19881(9)
C18_4 C 0.93291(19) 0.9799(2) 0.20319(11)
H8_4 H 0.9230 0.9959 0.2177
H9_4 H 0.9831 0.9672 0.2555
O9_4 O 0.54184(9) 0.86459(8) 0.61125(4)
O10_4 O 0.46585(10) 0.89516(9) 0.58884(5)
O11_4 O 0.88619(13) 0.91592(11) 0.62656(6)
O13_4 O 0.95183(11) 0.94809(10) 0.60239(5)
C23_4 C 0.52175(15) 0.88968(13) 0.59408(6)
C24_4 C 0.89784(16) 0.93466(12) 0.60634(7)
C25_4 C 0.63162(14) 0.91310(13) 0.58663(6)
H12_4 H 0.6455 0.8986 0.6013
C26_4 C 0.56841(14) 0.91289(13) 0.57948(7)
C27_4 C 0.84802(16) 0.94375(14) 0.58664(7)
C28_4 C 0.78754(16) 0.93102(15) 0.59079(7)
H13_4 H 0.7782 0.9149 0.6053
N2_4 N 0.70172(15) 0.97510(18) 0.53695(8)
C29_4 C 0.67342(16) 0.93524(15) 0.57151(8)
C31_4 C 0.74089(17) 0.94239(15) 0.57320(8)
C32_4 C 0.54895(16) 0.93456(16) 0.55685(9)
H14_4 H 0.5070 0.9339 0.5520
C33_4 C 0.86147(18) 0.96838(18) 0.56520(9)
H15_4 H 0.9022 0.9775 0.5632
C34_4 C 0.65128(18) 0.95654(18) 0.54919(9)
H16_4 H 0.7618 0.9993 0.4546
C38_4 C 0.75587(16) 0.9661(2) 0.55119(9)
C39_4 C 0.81709(19) 0.9799(2) 0.54681(11)
H18_4 H 0.8270 0.9959 0.5323
C40_4 C 0.73743(19) 0.98704(19) 0.49212(11)
H19_4 H 0.7669 0.9672 0.4945
C41_4 C 0.58925(19) 0.95658(19) 0.54168(9)
H20_4 H 0.5754 0.9709 0.5270
C42_4 C 0.69832(16) 0.9961(2) 0.51215(10)
Co4_4 Co 0.49903(2) 0.81426(2) 0.61533(2)
Co5_4 Co 0.75097(2) 0.93574(2) 0.11533(2)
Co7_4 Co 0.99903(2) 0.93574(2) 0.63467(2)
O17_7 O 0.21585(10) 0.64516(9) 0.41116(5)
O18_7 O 0.03415(10) 0.60484(9) 0.41116(5)
O19_7 O 0.11381(13) 0.66592(11) 0.37656(6)
O20_7 O 0.13619(13) 0.58408(11) 0.37656(6)
O23_7 O 0.14720(12) 0.58333(10) 0.43559(5)
O17_8 O 0.53415(10) 0.10484(9) 0.41116(5)
O18_8 O 0.71585(10) 0.14516(9) 0.41116(5)
O19_8 O 0.63619(13) 0.08408(11) 0.37656(6)
O20_8 O 0.61381(13) 0.16592(11) 0.37656(6)
O23_8 O 0.60280(12) 0.16667(10) 0.43559(5)
Co1_5 Co 0.24903(2) 0.18574(2) 0.36533(2)
O1_5 O 0.04184(9) 0.38541(8) 0.13875(4)
O3_5 O 0.38619(13) 0.33408(11) 0.12344(6)
O4_5 O 0.32418(11) 0.21965(9) 0.37177(6)
O5_5 O 0.22880(13) 0.20374(11) 0.32963(5)
O6_5 O 0.45183(11) 0.30191(10) 0.14761(5)
C1_5 C 0.02175(15) 0.36032(13) 0.15592(6)
C2_5 C 0.39784(16) 0.31534(12) 0.14366(7)
C3_5 C 0.13162(14) 0.33690(13) 0.16337(6)
H1_5 H 0.1455 0.3514 0.1487
C4_5 C 0.06841(14) 0.33711(13) 0.17052(7)
C5_5 C 0.34802(16) 0.30625(14) 0.16336(7)
C6_5 C 0.28754(16) 0.31898(15) 0.15921(7)
H2_5 H 0.2782 0.3351 0.1447
N1_5 N 0.20172(15) 0.27490(18) 0.21305(8)
C7_5 C 0.17342(16) 0.31476(15) 0.17849(8)
C8_5 C 0.18825(15) 0.19241(15) 0.31191(8)
C9_5 C 0.3750 0.2033(2) 0.3750
H3_5 H 0.3750 0.1759 0.3750
C10_5 C 0.24089(17) 0.30761(15) 0.17680(8)
C11_5 C 0.04895(16) 0.31544(16) 0.19315(9)
H4_5 H 0.0070 0.3161 0.1980
C12_5 C 0.36147(18) 0.28162(18) 0.18480(9)
H5_5 H 0.4022 0.2725 0.1868
C13_5 C 0.15128(18) 0.29346(18) 0.20081(9)
C14_5 C 0.23460(18) 0.24358(18) 0.28176(10)
H6_5 H 0.2618 0.2507 0.2954
C15_5 C 0.19178(16) 0.21343(16) 0.28600(9)
C16_5 C 0.15256(19) 0.2035(2) 0.26535(9)
H7_5 H 0.1234 0.1835 0.2677
C17_5 C 0.25587(16) 0.2839(2) 0.19881(9)
C18_5 C 0.31709(19) 0.2701(2) 0.20319(11)
H8_5 H 0.3270 0.2541 0.2177
C19_5 C 0.23743(19) 0.26296(19) 0.25788(11)
H9_5 H 0.2669 0.2828 0.2555
C20_5 C 0.08925(19) 0.29342(19) 0.20832(9)
H10_5 H 0.0754 0.2791 0.2230
C21_5 C 0.19832(16) 0.2539(2) 0.23785(10)
C22_5 C 0.1560(2) 0.2232(2) 0.24081(10)
H11_5 H 0.1303 0.2158 0.2267
O8_5 O 0.42582(11) 0.21965(9) 0.37823(6)
Co3_5 Co 0.50097(2) 0.18574(2) 0.38467(2)
O9_5 O 0.70816(9) 0.38541(8) 0.61125(4)
O10_5 O 0.78415(10) 0.35484(9) 0.58884(5)
O11_5 O 0.36381(13) 0.33408(11) 0.62656(6)
O12_5 O 0.52120(13) 0.20374(11) 0.42037(5)
O13_5 O 0.29817(11) 0.30191(10) 0.60239(5)
C23_5 C 0.72825(15) 0.36032(13) 0.59408(6)
C24_5 C 0.35216(16) 0.31534(12) 0.60634(7)
C25_5 C 0.61838(14) 0.33690(13) 0.58663(6)
H12_5 H 0.6045 0.3514 0.6013
C26_5 C 0.68159(14) 0.33711(13) 0.57948(7)
C27_5 C 0.40198(16) 0.30625(14) 0.58664(7)
C28_5 C 0.46246(16) 0.31898(15) 0.59079(7)
H13_5 H 0.4718 0.3351 0.6053
N2_5 N 0.54828(15) 0.27490(18) 0.53695(8)
C29_5 C 0.57658(16) 0.31476(15) 0.57151(8)
C30_5 C 0.56175(15) 0.19241(15) 0.43809(8)
C31_5 C 0.50911(17) 0.30761(15) 0.57320(8)
C32_5 C 0.70105(16) 0.31544(16) 0.55685(9)
H14_5 H 0.7430 0.3161 0.5520
C33_5 C 0.38853(18) 0.28162(18) 0.56520(9)
H15_5 H 0.3478 0.2725 0.5632
C34_5 C 0.59872(18) 0.29346(18) 0.54919(9)
C35_5 C 0.51540(18) 0.24358(18) 0.46824(10)
H16_5 H 0.4882 0.2507 0.4546
C36_5 C 0.55822(16) 0.21343(16) 0.46400(9)
C37_5 C 0.59744(19) 0.2035(2) 0.48465(9)
H17_5 H 0.6266 0.1835 0.4823
C38_5 C 0.49413(16) 0.2839(2) 0.55119(9)
C39_5 C 0.43291(19) 0.2701(2) 0.54681(11)
H18_5 H 0.4230 0.2541 0.5323
C40_5 C 0.51257(19) 0.26296(19) 0.49212(11)
H19_5 H 0.4831 0.2828 0.4945
C41_5 C 0.66075(19) 0.29342(19) 0.54168(9)
H20_5 H 0.6746 0.2791 0.5270
C42_5 C 0.55168(16) 0.2539(2) 0.51215(10)
C43_5 C 0.5940(2) 0.2232(2) 0.50919(10)
H21_5 H 0.6197 0.2158 0.5233
O15_5 O 0.29184(9) 0.13541(8) 0.36125(4)
O16_5 O 0.45816(9) 0.13541(8) 0.38875(4)
O21_5 O 0.54817(11) 0.19809(10) 0.35239(5)
O22_5 O 0.20183(11) 0.19809(10) 0.39761(5)
O2_5 O 0.96585(10) 0.35484(9) 0.16116(5)
Co1_6 Co 0.50097(2) 0.56426(2) 0.36533(2)
O1_6 O 0.70816(9) 0.36459(8) 0.13875(4)
O2_6 O 0.78415(10) 0.39516(9) 0.16116(5)
O3_6 O 0.36381(13) 0.41592(11) 0.12344(6)
O4_6 O 0.42582(11) 0.53035(9) 0.37177(6)
O5_6 O 0.52120(13) 0.54626(11) 0.32963(5)
O6_6 O 0.29817(11) 0.44809(10) 0.14761(5)
C1_6 C 0.72825(15) 0.38968(13) 0.15592(6)
C2_6 C 0.35216(16) 0.43466(12) 0.14366(7)
C3_6 C 0.61838(14) 0.41310(13) 0.16337(6)
H1_6 H 0.6045 0.3986 0.1487
C4_6 C 0.68159(14) 0.41289(13) 0.17052(7)
C5_6 C 0.40198(16) 0.44375(14) 0.16336(7)
C6_6 C 0.46246(16) 0.43102(15) 0.15921(7)
H2_6 H 0.4718 0.4149 0.1447
N1_6 N 0.54828(15) 0.47510(18) 0.21305(8)
C7_6 C 0.57658(16) 0.43524(15) 0.17849(8)
C8_6 C 0.56175(15) 0.55759(15) 0.31191(8)
C9_6 C 0.3750 0.5467(2) 0.3750
H3_6 H 0.3750 0.5741 0.3750
C10_6 C 0.50911(17) 0.44239(15) 0.17680(8)
C11_6 C 0.70105(16) 0.43456(16) 0.19315(9)
H4_6 H 0.7430 0.4339 0.1980
C12_6 C 0.38853(18) 0.46838(18) 0.18480(9)
H5_6 H 0.3478 0.4775 0.1868
C13_6 C 0.59872(18) 0.45654(18) 0.20081(9)
C14_6 C 0.51540(18) 0.50642(18) 0.28176(10)
H6_6 H 0.4882 0.4993 0.2954
C15_6 C 0.55822(16) 0.53657(16) 0.28600(9)
C16_6 C 0.59744(19) 0.5465(2) 0.26535(9)
H7_6 H 0.6266 0.5665 0.2677
C17_6 C 0.49413(16) 0.4661(2) 0.19881(9)
C18_6 C 0.43291(19) 0.4799(2) 0.20319(11)
H8_6 H 0.4230 0.4959 0.2177
C19_6 C 0.51257(19) 0.48704(19) 0.25788(11)
H9_6 H 0.4831 0.4672 0.2555
C20_6 C 0.66075(19) 0.45658(19) 0.20832(9)
H10_6 H 0.6746 0.4709 0.2230
C21_6 C 0.55168(16) 0.4961(2) 0.23785(10)
C22_6 C 0.5940(2) 0.5268(2) 0.24081(10)
H11_6 H 0.6197 0.5342 0.2267
O8_6 O 0.32418(11) 0.53035(9) 0.37823(6)
Co3_6 Co 0.24903(2) 0.56426(2) 0.38467(2)
O9_6 O 0.04184(9) 0.36459(8) 0.61125(4)
O11_6 O 0.38619(13) 0.41592(11) 0.62656(6)
O12_6 O 0.22880(13) 0.54626(11) 0.42037(5)
O13_6 O 0.45183(11) 0.44809(10) 0.60239(5)
C23_6 C 0.02175(15) 0.38968(13) 0.59408(6)
C24_6 C 0.39784(16) 0.43466(12) 0.60634(7)
C25_6 C 0.13162(14) 0.41310(13) 0.58663(6)
H12_6 H 0.1455 0.3986 0.6013
C26_6 C 0.06841(14) 0.41289(13) 0.57948(7)
C27_6 C 0.34802(16) 0.44375(14) 0.58664(7)
C28_6 C 0.28754(16) 0.43102(15) 0.59079(7)
H13_6 H 0.2782 0.4149 0.6053
N2_6 N 0.20172(15) 0.47510(18) 0.53695(8)
C29_6 C 0.17342(16) 0.43524(15) 0.57151(8)
C30_6 C 0.18825(15) 0.55759(15) 0.43809(8)
C31_6 C 0.24089(17) 0.44239(15) 0.57320(8)
C32_6 C 0.04895(16) 0.43456(16) 0.55685(9)
H14_6 H 0.0070 0.4339 0.5520
C33_6 C 0.36147(18) 0.46838(18) 0.56520(9)
H15_6 H 0.4022 0.4775 0.5632
C34_6 C 0.15128(18) 0.45654(18) 0.54919(9)
C35_6 C 0.23460(18) 0.50642(18) 0.46824(10)
H16_6 H 0.2618 0.4993 0.4546
C36_6 C 0.19178(16) 0.53657(16) 0.46400(9)
C37_6 C 0.15256(19) 0.5465(2) 0.48465(9)
H17_6 H 0.1234 0.5665 0.4823
C38_6 C 0.25587(16) 0.4661(2) 0.55119(9)
C39_6 C 0.31709(19) 0.4799(2) 0.54681(11)
H18_6 H 0.3270 0.4959 0.5323
C40_6 C 0.23743(19) 0.48704(19) 0.49212(11)
H19_6 H 0.2669 0.4672 0.4945
C41_6 C 0.08925(19) 0.45658(19) 0.54168(9)
H20_6 H 0.0754 0.4709 0.5270
C42_6 C 0.19832(16) 0.4961(2) 0.51215(10)
C43_6 C 0.1560(2) 0.5268(2) 0.50919(10)
H21_6 H 0.1303 0.5342 0.5233
O15_6 O 0.45816(9) 0.61459(8) 0.36125(4)
O16_6 O 0.29184(9) 0.61459(8) 0.38875(4)
O21_6 O 0.20183(11) 0.55191(10) 0.35239(5)
O22_6 O 0.54817(11) 0.55191(10) 0.39761(5)
O10_6 O 0.96585(10) 0.39516(9) 0.58884(5)
O9_7 O 0.70816(9) 0.88541(8) 0.11125(4)
O10_7 O 0.78415(10) 0.85484(9) 0.08884(5)
O11_7 O 0.36381(13) 0.83408(11) 0.12656(6)
O13_7 O 0.29817(11) 0.80191(10) 0.10239(5)
C23_7 C 0.72825(15) 0.86032(13) 0.09408(6)
C24_7 C 0.35216(16) 0.81534(12) 0.10634(7)
C25_7 C 0.61838(14) 0.83690(13) 0.08663(6)
H12_7 H 0.6045 0.8514 0.1013
C26_7 C 0.68159(14) 0.83711(13) 0.07948(7)
C27_7 C 0.40198(16) 0.80625(14) 0.08664(7)
C28_7 C 0.46246(16) 0.81898(15) 0.09079(7)
H13_7 H 0.4718 0.8351 0.1053
N2_7 N 0.54828(15) 0.77490(18) 0.03695(8)
C29_7 C 0.57658(16) 0.81476(15) 0.07151(8)
C31_7 C 0.50911(17) 0.80761(15) 0.07320(8)
C32_7 C 0.70105(16) 0.81544(16) 0.05685(9)
H14_7 H 0.7430 0.8161 0.0520
C33_7 C 0.38853(18) 0.78162(18) 0.06520(9)
H15_7 H 0.3478 0.7725 0.0632
C34_7 C 0.59872(18) 0.79346(18) 0.04919(9)
C38_7 C 0.49413(16) 0.7839(2) 0.05119(9)
C39_7 C 0.43291(19) 0.7701(2) 0.04681(11)
H18_7 H 0.4230 0.7541 0.0323
C41_7 C 0.66075(19) 0.79342(19) 0.04168(9)
H20_7 H 0.6746 0.7791 0.0270
C42_7 C 0.55168(16) 0.7539(2) 0.01215(10)
C43_7 C 0.5940(2) 0.7232(2) 0.00919(10)
H21_7 H 0.6197 0.7158 0.0233
Co1_7 Co 0.24903(2) 0.68574(2) 0.86533(2)
O1_7 O 0.04184(9) 0.88541(8) 0.63875(4)
O3_7 O 0.38619(13) 0.83408(11) 0.62344(6)
O4_7 O 0.32418(11) 0.71965(9) 0.87177(6)
O5_7 O 0.22880(13) 0.70374(11) 0.82963(5)
O6_7 O 0.45183(11) 0.80191(10) 0.64761(5)
C1_7 C 0.02175(15) 0.86032(13) 0.65592(6)
C2_7 C 0.39784(16) 0.81534(12) 0.64366(7)
C3_7 C 0.13162(14) 0.83690(13) 0.66337(6)
H1_7 H 0.1455 0.8514 0.6487
C4_7 C 0.06841(14) 0.83711(13) 0.67052(7)
C5_7 C 0.34802(16) 0.80625(14) 0.66336(7)
C6_7 C 0.28754(16) 0.81898(15) 0.65921(7)
H2_7 H 0.2782 0.8351 0.6447
N1_7 N 0.20172(15) 0.77490(18) 0.71305(8)
C7_7 C 0.17342(16) 0.81476(15) 0.67849(8)
C8_7 C 0.18825(15) 0.69241(15) 0.81191(8)
C9_7 C 0.3750 0.7033(2) 0.8750
H3_7 H 0.3750 0.6759 0.8750
C10_7 C 0.24089(17) 0.80761(15) 0.67680(8)
C11_7 C 0.04895(16) 0.81544(16) 0.69315(9)
H4_7 H 0.0070 0.8161 0.6980
C12_7 C 0.36147(18) 0.78162(18) 0.68480(9)
H5_7 H 0.4022 0.7725 0.6868
C13_7 C 0.15128(18) 0.79346(18) 0.70081(9)
C14_7 C 0.23460(18) 0.74358(18) 0.78176(10)
H6_7 H 0.2618 0.7507 0.7954
C15_7 C 0.19178(16) 0.71343(16) 0.78600(9)
C16_7 C 0.15256(19) 0.7035(2) 0.76535(9)
H7_7 H 0.1234 0.6835 0.7677
C17_7 C 0.25587(16) 0.7839(2) 0.69881(9)
C18_7 C 0.31709(19) 0.7701(2) 0.70319(11)
H8_7 H 0.3270 0.7541 0.7177
C19_7 C 0.23743(19) 0.76296(19) 0.75788(11)
H9_7 H 0.2669 0.7828 0.7555
C20_7 C 0.08925(19) 0.79342(19) 0.70832(9)
H10_7 H 0.0754 0.7791 0.7230
C21_7 C 0.19832(16) 0.7539(2) 0.73785(10)
C22_7 C 0.1560(2) 0.7232(2) 0.74081(10)
H11_7 H 0.1303 0.7158 0.7267
O8_7 O 0.42582(11) 0.71965(9) 0.87823(6)
Co3_7 Co 0.50097(2) 0.68574(2) 0.88467(2)
O12_7 O 0.52120(13) 0.70374(11) 0.92037(5)
C30_7 C 0.56175(15) 0.69241(15) 0.93809(8)
C35_7 C 0.51540(18) 0.74358(18) 0.96824(10)
H16_7 H 0.4882 0.7507 0.9546
C36_7 C 0.55822(16) 0.71343(16) 0.96400(9)
C37_7 C 0.59744(19) 0.7035(2) 0.98465(9)
H17_7 H 0.6266 0.6835 0.9823
C40_7 C 0.51257(19) 0.76296(19) 0.99212(11)
H19_7 H 0.4831 0.7828 0.9945
O15_7 O 0.29184(9) 0.63541(8) 0.86125(4)
O16_7 O 0.45816(9) 0.63541(8) 0.88875(4)
O21_7 O 0.54817(11) 0.69809(10) 0.85239(5)
O22_7 O 0.20183(11) 0.69809(10) 0.89761(5)
O2_7 O 0.96585(10) 0.85484(9) 0.66116(5)
Co1_8 Co 0.50097(2) 0.06426(2) 0.86533(2)
O4_8 O 0.42582(11) 0.03035(9) 0.87177(6)
O5_8 O 0.52120(13) 0.04626(11) 0.82963(5)
C8_8 C 0.56175(15) 0.05759(15) 0.81191(8)
C9_8 C 0.3750 0.0467(2) 0.8750
H3_8 H 0.3750 0.0741 0.8750
C14_8 C 0.51540(18) 0.00642(18) 0.78176(10)
C15_8 C 0.55822(16) 0.03657(16) 0.78600(9)
C16_8 C 0.59744(19) 0.0465(2) 0.76535(9)
H7_8 H 0.6266 0.0665 0.7677
C22_8 C 0.5940(2) 0.0268(2) 0.74081(10)
H11_8 H 0.6197 0.0342 0.7267
O8_8 O 0.32418(11) 0.03035(9) 0.87823(6)
Co3_8 Co 0.24903(2) 0.06426(2) 0.88467(2)
O12_8 O 0.22880(13) 0.04626(11) 0.92037(5)
C30_8 C 0.18825(15) 0.05759(15) 0.93809(8)
C35_8 C 0.23460(18) 0.00642(18) 0.96824(10)
C36_8 C 0.19178(16) 0.03657(16) 0.96400(9)
C37_8 C 0.15256(19) 0.0465(2) 0.98465(9)
H17_8 H 0.1234 0.0665 0.9823
O15_8 O 0.45816(9) 0.11459(8) 0.86125(4)
O16_8 O 0.29184(9) 0.11459(8) 0.88875(4)
O21_8 O 0.20183(11) 0.05191(10) 0.85239(5)
O22_8 O 0.54817(11) 0.05191(10) 0.89761(5)
O9_8 O 0.04184(9) 0.86459(8) 0.11125(4)
O11_8 O 0.38619(13) 0.91592(11) 0.12656(6)
O13_8 O 0.45183(11) 0.94809(10) 0.10239(5)
C23_8 C 0.02175(15) 0.88968(13) 0.09408(6)
C24_8 C 0.39784(16) 0.93466(12) 0.10634(7)
C25_8 C 0.13162(14) 0.91310(13) 0.08663(6)
H12_8 H 0.1455 0.8986 0.1013
C26_8 C 0.06841(14) 0.91289(13) 0.07948(7)
C27_8 C 0.34802(16) 0.94375(14) 0.08664(7)
C28_8 C 0.28754(16) 0.93102(15) 0.09079(7)
H13_8 H 0.2782 0.9149 0.1053
N2_8 N 0.20172(15) 0.97510(18) 0.03695(8)
C29_8 C 0.17342(16) 0.93524(15) 0.07151(8)
C31_8 C 0.24089(17) 0.94239(15) 0.07320(8)
C32_8 C 0.04895(16) 0.93456(16) 0.05685(9)
H14_8 H 0.0070 0.9339 0.0520
C33_8 C 0.36147(18) 0.96838(18) 0.06520(9)
H15_8 H 0.4022 0.9775 0.0632
C34_8 C 0.15128(18) 0.95654(18) 0.04919(9)
C38_8 C 0.25587(16) 0.9661(2) 0.05119(9)
C39_8 C 0.31709(19) 0.9799(2) 0.04681(11)
H18_8 H 0.3270 0.9959 0.0323
C41_8 C 0.08925(19) 0.95658(19) 0.04168(9)
H20_8 H 0.0754 0.9709 0.0270
C42_8 C 0.19832(16) 0.9961(2) 0.01215(10)
O1_8 O 0.70816(9) 0.86459(8) 0.63875(4)
O2_8 O 0.78415(10) 0.89516(9) 0.66116(5)
O3_8 O 0.36381(13) 0.91592(11) 0.62344(6)
O6_8 O 0.29817(11) 0.94809(10) 0.64761(5)
C1_8 C 0.72825(15) 0.88968(13) 0.65592(6)
C2_8 C 0.35216(16) 0.93466(12) 0.64366(7)
C3_8 C 0.61838(14) 0.91310(13) 0.66337(6)
H1_8 H 0.6045 0.8986 0.6487
C4_8 C 0.68159(14) 0.91289(13) 0.67052(7)
C5_8 C 0.40198(16) 0.94375(14) 0.66336(7)
C6_8 C 0.46246(16) 0.93102(15) 0.65921(7)
H2_8 H 0.4718 0.9149 0.6447
N1_8 N 0.54828(15) 0.97510(18) 0.71305(8)
C7_8 C 0.57658(16) 0.93524(15) 0.67849(8)
C10_8 C 0.50911(17) 0.94239(15) 0.67680(8)
C11_8 C 0.70105(16) 0.93456(16) 0.69315(9)
H4_8 H 0.7430 0.9339 0.6980
C12_8 C 0.38853(18) 0.96838(18) 0.68480(9)
H5_8 H 0.3478 0.9775 0.6868
C13_8 C 0.59872(18) 0.95654(18) 0.70081(9)
H6_8 H 0.4882 0.9993 0.7954
C17_8 C 0.49413(16) 0.9661(2) 0.69881(9)
C18_8 C 0.43291(19) 0.9799(2) 0.70319(11)
H8_8 H 0.4230 0.9959 0.7177
C19_8 C 0.51257(19) 0.98704(19) 0.75788(11)
H9_8 H 0.4831 0.9672 0.7555
C20_8 C 0.66075(19) 0.95658(19) 0.70832(9)
H10_8 H 0.6746 0.9709 0.7230
C21_8 C 0.55168(16) 0.9961(2) 0.73785(10)
H16_8 H 0.2618 0.9993 0.9546
C40_8 C 0.23743(19) 0.98704(19) 0.99212(11)
H19_8 H 0.2669 0.9672 0.9945
O10_8 O 0.96585(10) 0.89516(9) 0.08884(5)
O4_9 O 0.17582(11) 0.78035(9) 0.12823(6)
O5_9 O 0.27120(13) 0.79626(11) 0.17037(5)
O7_5 O 0.35280(12) 0.83333(10) 0.18559(5)
C1_9 C 0.47825(15) 0.63968(13) 0.34408(6)
C2_9 C 0.10216(16) 0.68466(12) 0.35634(7)
C3_9 C 0.36838(14) 0.66310(13) 0.33663(6)
H1_9 H 0.3545 0.6486 0.3513
C4_9 C 0.43159(14) 0.66289(13) 0.32948(7)
C5_9 C 0.15198(16) 0.69375(14) 0.33664(7)
C6_9 C 0.21246(16) 0.68102(15) 0.34079(7)
H2_9 H 0.2218 0.6649 0.3553
N1_9 N 0.29828(15) 0.72510(18) 0.28695(8)
C7_9 C 0.32658(16) 0.68524(15) 0.32151(8)
C8_9 C 0.31175(15) 0.80759(15) 0.18809(8)
C9_9 C 0.1250 0.7967(2) 0.1250
H3_9 H 0.1250 0.8241 0.1250
C10_9 C 0.25911(17) 0.69239(15) 0.32320(8)
C11_9 C 0.45105(16) 0.68456(16) 0.30685(9)
H4_9 H 0.4930 0.6839 0.3020
C12_9 C 0.13853(18) 0.71838(18) 0.31520(9)
H5_9 H 0.0978 0.7275 0.3132
C13_9 C 0.34872(18) 0.70654(18) 0.29919(9)
C14_9 C 0.26540(18) 0.75642(18) 0.21824(10)
H6_9 H 0.2382 0.7493 0.2046
C15_9 C 0.30822(16) 0.78657(16) 0.21400(9)
C16_9 C 0.34744(19) 0.7965(2) 0.23465(9)
H7_9 H 0.3766 0.8165 0.2323
C17_9 C 0.24413(16) 0.7161(2) 0.30119(9)
C18_9 C 0.18291(19) 0.7299(2) 0.29681(11)
H8_9 H 0.1730 0.7459 0.2823
C19_9 C 0.26257(19) 0.73704(19) 0.24212(11)
H9_9 H 0.2331 0.7172 0.2445
C20_9 C 0.41075(19) 0.70658(19) 0.29168(9)
H10_9 H 0.4246 0.7209 0.2770
C21_9 C 0.30168(16) 0.7461(2) 0.26215(10)
C22_9 C 0.3440(2) 0.7768(2) 0.25919(10)
H11_9 H 0.3697 0.7842 0.2733
O8_9 O 0.07418(11) 0.78035(9) 0.12177(6)
H16_9 H 0.0118 0.7493 0.0454
H19_9 H 0.0169 0.7172 0.0055
O23_9 O 0.39720(12) 0.91667(10) 0.18559(5)
C24_9 C 0.14784(16) 0.68466(12) 0.89366(7)
C27_9 C 0.09802(16) 0.69375(14) 0.91336(7)
C28_9 C 0.03754(16) 0.68102(15) 0.90921(7)
H13_9 H 0.0282 0.6649 0.8947
C33_9 C 0.11147(18) 0.71838(18) 0.93480(9)
H15_9 H 0.1522 0.7275 0.9368
C38_9 C 0.00587(16) 0.7161(2) 0.94881(9)
C39_9 C 0.06709(19) 0.7299(2) 0.95319(11)
H18_9 H 0.0770 0.7459 0.9677
O12_9 O 0.97880(13) 0.79626(11) 0.07963(5)
O14_5 O 0.89720(12) 0.83333(10) 0.06441(5)
C30_9 C 0.93825(15) 0.80759(15) 0.06191(8)
C35_9 C 0.98460(18) 0.75642(18) 0.03176(10)
C36_9 C 0.94178(16) 0.78657(16) 0.03600(9)
C37_9 C 0.90256(19) 0.7965(2) 0.01535(9)
H17_9 H 0.8734 0.8165 0.0177
C40_9 C 0.98743(19) 0.73704(19) 0.00788(11)
C23_9 C 0.77175(15) 0.63968(13) 0.90592(6)
C25_9 C 0.88162(14) 0.66310(13) 0.91337(6)
H12_9 H 0.8955 0.6486 0.8987
C26_9 C 0.81841(14) 0.66289(13) 0.92052(7)
N2_9 N 0.95172(15) 0.72510(18) 0.96305(8)
C29_9 C 0.92342(16) 0.68524(15) 0.92849(8)
C31_9 C 0.99089(17) 0.69239(15) 0.92680(8)
C32_9 C 0.79895(16) 0.68456(16) 0.94315(9)
H14_9 H 0.7570 0.6839 0.9480
C34_9 C 0.90128(18) 0.70654(18) 0.95081(9)
C41_9 C 0.83925(19) 0.70658(19) 0.95832(9)
H20_9 H 0.8254 0.7209 0.9730
C42_9 C 0.94832(16) 0.7461(2) 0.98785(10)
C43_8 C 0.9060(2) 0.7768(2) 0.99081(10)
H21_8 H 0.8803 0.7842 0.9767
O4_10 O 0.07418(11) 0.46965(9) 0.12823(6)
C2_10 C 0.14784(16) 0.56534(12) 0.35634(7)
C5_10 C 0.09802(16) 0.55625(14) 0.33664(7)
C6_10 C 0.03754(16) 0.56898(15) 0.34079(7)
H2_10 H 0.0282 0.5851 0.3553
C9_10 C 0.1250 0.4533(2) 0.1250
H3_10 H 0.1250 0.4259 0.1250
C12_10 C 0.11147(18) 0.53162(18) 0.31520(9)
H5_10 H 0.1522 0.5225 0.3132
H6_10 H 0.0118 0.5007 0.2046
C17_10 C 0.00587(16) 0.5339(2) 0.30119(9)
C18_10 C 0.06709(19) 0.5201(2) 0.29681(11)
H8_10 H 0.0770 0.5041 0.2823
H9_10 H 0.0169 0.5328 0.2445
O8_10 O 0.17582(11) 0.46965(9) 0.12177(6)
O12_10 O 0.27120(13) 0.45374(11) 0.07963(5)
O14_6 O 0.35280(12) 0.41667(10) 0.06441(5)
C30_10 C 0.31175(15) 0.44241(15) 0.06191(8)
C35_10 C 0.26540(18) 0.49358(18) 0.03176(10)
H16_10 H 0.2382 0.5007 0.0454
C36_10 C 0.30822(16) 0.46343(16) 0.03600(9)
C37_10 C 0.34744(19) 0.4535(2) 0.01535(9)
H17_10 H 0.3766 0.4335 0.0177
C40_10 C 0.26257(19) 0.51296(19) 0.00788(11)
H19_10 H 0.2331 0.5328 0.0055
C23_10 C 0.47825(15) 0.61032(13) 0.90592(6)
C24_10 C 0.10216(16) 0.56534(12) 0.89366(7)
C25_10 C 0.36838(14) 0.58690(13) 0.91337(6)
H12_10 H 0.3545 0.6014 0.8987
C26_10 C 0.43159(14) 0.58711(13) 0.92052(7)
C27_10 C 0.15198(16) 0.55625(14) 0.91336(7)
C28_10 C 0.21246(16) 0.56898(15) 0.90921(7)
H13_10 H 0.2218 0.5851 0.8947
N2_10 N 0.29828(15) 0.52490(18) 0.96305(8)
C29_10 C 0.32658(16) 0.56476(15) 0.92849(8)
C31_10 C 0.25911(17) 0.55761(15) 0.92680(8)
C32_10 C 0.45105(16) 0.56544(16) 0.94315(9)
H14_10 H 0.4930 0.5661 0.9480
C33_10 C 0.13853(18) 0.53162(18) 0.93480(9)
H15_10 H 0.0978 0.5225 0.9368
C34_10 C 0.34872(18) 0.54346(18) 0.95081(9)
C38_10 C 0.24413(16) 0.5339(2) 0.94881(9)
C39_10 C 0.18291(19) 0.5201(2) 0.95319(11)
H18_10 H 0.1730 0.5041 0.9677
C41_10 C 0.41075(19) 0.54342(19) 0.95832(9)
H20_10 H 0.4246 0.5291 0.9730
C42_10 C 0.30168(16) 0.5039(2) 0.98785(10)
C43_9 C 0.3440(2) 0.4732(2) 0.99081(10)
H21_9 H 0.3697 0.4658 0.9767
O5_10 O 0.97880(13) 0.45374(11) 0.17037(5)
O7_6 O 0.89720(12) 0.41667(10) 0.18559(5)
C1_10 C 0.77175(15) 0.61032(13) 0.34408(6)
C3_10 C 0.88162(14) 0.58690(13) 0.33663(6)
H1_10 H 0.8955 0.6014 0.3513
C4_10 C 0.81841(14) 0.58711(13) 0.32948(7)
N1_10 N 0.95172(15) 0.52490(18) 0.28695(8)
C7_10 C 0.92342(16) 0.56476(15) 0.32151(8)
C8_10 C 0.93825(15) 0.44241(15) 0.18809(8)
C10_10 C 0.99089(17) 0.55761(15) 0.32320(8)
C11_10 C 0.79895(16) 0.56544(16) 0.30685(9)
H4_10 H 0.7570 0.5661 0.3020
C13_10 C 0.90128(18) 0.54346(18) 0.29919(9)
C14_10 C 0.98460(18) 0.49358(18) 0.21824(10)
C15_10 C 0.94178(16) 0.46343(16) 0.21400(9)
C16_10 C 0.90256(19) 0.4535(2) 0.23465(9)
H7_10 H 0.8734 0.4335 0.2323
C19_10 C 0.98743(19) 0.51296(19) 0.24212(11)
C20_10 C 0.83925(19) 0.54342(19) 0.29168(9)
H10_10 H 0.8254 0.5291 0.2770
C21_10 C 0.94832(16) 0.5039(2) 0.26215(10)
C22_10 C 0.9060(2) 0.4732(2) 0.25919(10)
H11_10 H 0.8803 0.4658 0.2733
O23_10 O 0.85280(12) 0.33333(10) 0.18559(5)
O23_11 O 0.85280(12) 0.91667(10) 0.06441(5)
O23_12 O 0.39720(12) 0.33333(10) 0.06441(5)
O4_11 O 0.17582(11) 0.28035(9) 0.62823(6)
O5_11 O 0.27120(13) 0.29626(11) 0.67037(5)
O7_7 O 0.35280(12) 0.33333(10) 0.68559(5)
C1_11 C 0.47825(15) 0.13968(13) 0.84408(6)
C2_11 C 0.10216(16) 0.18466(12) 0.85634(7)
C3_11 C 0.36838(14) 0.16310(13) 0.83663(6)
H1_11 H 0.3545 0.1486 0.8513
C4_11 C 0.43159(14) 0.16289(13) 0.82948(7)
C5_11 C 0.15198(16) 0.19375(14) 0.83664(7)
C6_11 C 0.21246(16) 0.18102(15) 0.84079(7)
H2_11 H 0.2218 0.1649 0.8553
N1_11 N 0.29828(15) 0.22510(18) 0.78695(8)
C7_11 C 0.32658(16) 0.18524(15) 0.82151(8)
C8_11 C 0.31175(15) 0.30759(15) 0.68809(8)
C9_11 C 0.1250 0.2967(2) 0.6250
H3_11 H 0.1250 0.3241 0.6250
C10_11 C 0.25911(17) 0.19239(15) 0.82320(8)
C11_11 C 0.45105(16) 0.18456(16) 0.80685(9)
H4_11 H 0.4930 0.1839 0.8020
C12_11 C 0.13853(18) 0.21838(18) 0.81520(9)
H5_11 H 0.0978 0.2275 0.8132
C13_11 C 0.34872(18) 0.20654(18) 0.79919(9)
C14_11 C 0.26540(18) 0.25642(18) 0.71824(10)
H6_11 H 0.2382 0.2493 0.7046
C15_11 C 0.30822(16) 0.28657(16) 0.71400(9)
C16_11 C 0.34744(19) 0.2965(2) 0.73465(9)
H7_11 H 0.3766 0.3165 0.7323
C17_11 C 0.24413(16) 0.2161(2) 0.80119(9)
C18_11 C 0.18291(19) 0.2299(2) 0.79681(11)
H8_11 H 0.1730 0.2459 0.7823
C19_11 C 0.26257(19) 0.23704(19) 0.74212(11)
H9_11 H 0.2331 0.2172 0.7445
C20_11 C 0.41075(19) 0.20658(19) 0.79168(9)
H10_11 H 0.4246 0.2209 0.7770
C21_11 C 0.30168(16) 0.2461(2) 0.76215(10)
C22_11 C 0.3440(2) 0.2768(2) 0.75919(10)
H11_11 H 0.3697 0.2842 0.7733
O8_11 O 0.07418(11) 0.28035(9) 0.62177(6)
C24_11 C 0.14784(16) 0.18466(12) 0.39366(7)
C27_11 C 0.09802(16) 0.19375(14) 0.41336(7)
C28_11 C 0.03754(16) 0.18102(15) 0.40921(7)
H13_11 H 0.0282 0.1649 0.3947
C33_11 C 0.11147(18) 0.21838(18) 0.43480(9)
H15_11 H 0.1522 0.2275 0.4368
H16_11 H 0.0118 0.2493 0.5454
C38_11 C 0.00587(16) 0.2161(2) 0.44881(9)
C39_11 C 0.06709(19) 0.2299(2) 0.45319(11)
H18_11 H 0.0770 0.2459 0.4677
H19_11 H 0.0169 0.2172 0.5055
O23_13 O 0.39720(12) 0.41667(10) 0.68559(5)
O12_11 O 0.97880(13) 0.29626(11) 0.57963(5)
O14_7 O 0.89720(12) 0.33333(10) 0.56441(5)
C23_11 C 0.77175(15) 0.13968(13) 0.40592(6)
C25_11 C 0.88162(14) 0.16310(13) 0.41337(6)
H12_11 H 0.8955 0.1486 0.3987
C26_11 C 0.81841(14) 0.16289(13) 0.42052(7)
N2_11 N 0.95172(15) 0.22510(18) 0.46305(8)
C29_11 C 0.92342(16) 0.18524(15) 0.42849(8)
C30_11 C 0.93825(15) 0.30759(15) 0.56191(8)
C31_11 C 0.99089(17) 0.19239(15) 0.42680(8)
C32_11 C 0.79895(16) 0.18456(16) 0.44315(9)
H14_11 H 0.7570 0.1839 0.4480
C34_11 C 0.90128(18) 0.20654(18) 0.45081(9)
C35_11 C 0.98460(18) 0.25642(18) 0.53176(10)
C36_11 C 0.94178(16) 0.28657(16) 0.53600(9)
C37_11 C 0.90256(19) 0.2965(2) 0.51535(9)
H17_11 H 0.8734 0.3165 0.5177
C40_11 C 0.98743(19) 0.23704(19) 0.50788(11)
C41_11 C 0.83925(19) 0.20658(19) 0.45832(9)
H20_11 H 0.8254 0.2209 0.4730
C42_11 C 0.94832(16) 0.2461(2) 0.48785(10)
C43_10 C 0.9060(2) 0.2768(2) 0.49081(10)
H21_10 H 0.8803 0.2842 0.4767
C2_12 C 0.14784(16) 0.06534(12) 0.85634(7)
C5_12 C 0.09802(16) 0.05625(14) 0.83664(7)
C6_12 C 0.03754(16) 0.06898(15) 0.84079(7)
H2_12 H 0.0282 0.0851 0.8553
C12_12 C 0.11147(18) 0.03162(18) 0.81520(9)
H5_12 H 0.1522 0.0225 0.8132
H6_12 H 0.0118 0.0007 0.7046
C17_12 C 0.00587(16) 0.0339(2) 0.80119(9)
C18_12 C 0.06709(19) 0.0201(2) 0.79681(11)
H8_12 H 0.0770 0.0041 0.7823
H9_12 H 0.0169 0.0328 0.7445
C23_12 C 0.47825(15) 0.11032(13) 0.40592(6)
C24_12 C 0.10216(16) 0.06534(12) 0.39366(7)
C25_12 C 0.36838(14) 0.08690(13) 0.41337(6)
H12_12 H 0.3545 0.1014 0.3987
C26_12 C 0.43159(14) 0.08711(13) 0.42052(7)
C27_12 C 0.15198(16) 0.05625(14) 0.41336(7)
C28_12 C 0.21246(16) 0.06898(15) 0.40921(7)
H13_12 H 0.2218 0.0851 0.3947
N2_12 N 0.29828(15) 0.02490(18) 0.46305(8)
C29_12 C 0.32658(16) 0.06476(15) 0.42849(8)
C31_12 C 0.25911(17) 0.05761(15) 0.42680(8)
C32_12 C 0.45105(16) 0.06544(16) 0.44315(9)
H14_12 H 0.4930 0.0661 0.4480
C33_12 C 0.13853(18) 0.03162(18) 0.43480(9)
H15_12 H 0.0978 0.0225 0.4368
C34_12 C 0.34872(18) 0.04346(18) 0.45081(9)
H16_12 H 0.2382 0.0007 0.5454
C38_12 C 0.24413(16) 0.0339(2) 0.44881(9)
C39_12 C 0.18291(19) 0.0201(2) 0.45319(11)
H18_12 H 0.1730 0.0041 0.4677
C40_12 C 0.26257(19) 0.01296(19) 0.50788(11)
H19_12 H 0.2331 0.0328 0.5055
C41_12 C 0.41075(19) 0.04342(19) 0.45832(9)
H20_12 H 0.4246 0.0291 0.4730
C42_12 C 0.30168(16) 0.0039(2) 0.48785(10)
O4_12 O 0.07418(11) 0.96965(9) 0.62823(6)
C9_12 C 0.1250 0.9533(2) 0.6250
H3_12 H 0.1250 0.9259 0.6250
O8_12 O 0.17582(11) 0.96965(9) 0.62177(6)
O12_12 O 0.27120(13) 0.95374(11) 0.57963(5)
O14_8 O 0.35280(12) 0.91667(10) 0.56441(5)
C30_12 C 0.31175(15) 0.94241(15) 0.56191(8)
C35_12 C 0.26540(18) 0.99358(18) 0.53176(10)
C36_12 C 0.30822(16) 0.96343(16) 0.53600(9)
C37_12 C 0.34744(19) 0.9535(2) 0.51535(9)
H17_12 H 0.3766 0.9335 0.5177
C43_11 C 0.3440(2) 0.9732(2) 0.49081(10)
H21_11 H 0.3697 0.9658 0.4767
C1_12 C 0.77175(15) 0.11032(13) 0.84408(6)
C3_12 C 0.88162(14) 0.08690(13) 0.83663(6)
H1_12 H 0.8955 0.1014 0.8513
C4_12 C 0.81841(14) 0.08711(13) 0.82948(7)
N1_12 N 0.95172(15) 0.02490(18) 0.78695(8)
C7_12 C 0.92342(16) 0.06476(15) 0.82151(8)
C10_12 C 0.99089(17) 0.05761(15) 0.82320(8)
C11_12 C 0.79895(16) 0.06544(16) 0.80685(9)
H4_12 H 0.7570 0.0661 0.8020
C13_12 C 0.90128(18) 0.04346(18) 0.79919(9)
C19_12 C 0.98743(19) 0.01296(19) 0.74212(11)
C20_12 C 0.83925(19) 0.04342(19) 0.79168(9)
H10_12 H 0.8254 0.0291 0.7770
C21_12 C 0.94832(16) 0.0039(2) 0.76215(10)
O5_12 O 0.97880(13) 0.95374(11) 0.67037(5)
O7_8 O 0.89720(12) 0.91667(10) 0.68559(5)
C8_12 C 0.93825(15) 0.94241(15) 0.68809(8)
C14_12 C 0.98460(18) 0.99358(18) 0.71824(10)
C15_12 C 0.94178(16) 0.96343(16) 0.71400(9)
C16_12 C 0.90256(19) 0.9535(2) 0.73465(9)
H7_12 H 0.8734 0.9335 0.7323
C22_12 C 0.9060(2) 0.9732(2) 0.75919(10)
H11_12 H 0.8803 0.9658 0.7733
O23_14 O 0.85280(12) 0.83333(10) 0.68559(5)
O23_15 O 0.85280(12) 0.41667(10) 0.56441(5)
O23_16 O 0.39720(12) 0.83333(10) 0.56441(5)
O4_13 O 0.67582(11) 0.78035(9) 0.62823(6)
O5_13 O 0.77120(13) 0.79626(11) 0.67037(5)
C1_13 C 0.97825(15) 0.63968(13) 0.84408(6)
C2_13 C 0.60216(16) 0.68466(12) 0.85634(7)
C3_13 C 0.86838(14) 0.66310(13) 0.83663(6)
H1_13 H 0.8545 0.6486 0.8513
C4_13 C 0.93159(14) 0.66289(13) 0.82948(7)
C5_13 C 0.65198(16) 0.69375(14) 0.83664(7)
C6_13 C 0.71246(16) 0.68102(15) 0.84079(7)
H2_13 H 0.7218 0.6649 0.8553
N1_13 N 0.79828(15) 0.72510(18) 0.78695(8)
C7_13 C 0.82658(16) 0.68524(15) 0.82151(8)
C8_13 C 0.81175(15) 0.80759(15) 0.68809(8)
C9_13 C 0.6250 0.7967(2) 0.6250
H3_13 H 0.6250 0.8241 0.6250
C10_13 C 0.75911(17) 0.69239(15) 0.82320(8)
C11_13 C 0.95105(16) 0.68456(16) 0.80685(9)
H4_13 H 0.9930 0.6839 0.8020
C12_13 C 0.63853(18) 0.71838(18) 0.81520(9)
H5_13 H 0.5978 0.7275 0.8132
C13_13 C 0.84872(18) 0.70654(18) 0.79919(9)
C14_13 C 0.76540(18) 0.75642(18) 0.71824(10)
H6_13 H 0.7382 0.7493 0.7046
C15_13 C 0.80822(16) 0.78657(16) 0.71400(9)
C16_13 C 0.84744(19) 0.7965(2) 0.73465(9)
H7_13 H 0.8766 0.8165 0.7323
C17_13 C 0.74413(16) 0.7161(2) 0.80119(9)
C18_13 C 0.68291(19) 0.7299(2) 0.79681(11)
H8_13 H 0.6730 0.7459 0.7823
C19_13 C 0.76257(19) 0.73704(19) 0.74212(11)
H9_13 H 0.7331 0.7172 0.7445
C20_13 C 0.91075(19) 0.70658(19) 0.79168(9)
H10_13 H 0.9246 0.7209 0.7770
C21_13 C 0.80168(16) 0.7461(2) 0.76215(10)
C22_13 C 0.8440(2) 0.7768(2) 0.75919(10)
H11_13 H 0.8697 0.7842 0.7733
O8_13 O 0.57418(11) 0.78035(9) 0.62177(6)
O12_13 O 0.47880(13) 0.79626(11) 0.57963(5)
C23_13 C 0.27175(15) 0.63968(13) 0.40592(6)
C24_13 C 0.64784(16) 0.68466(12) 0.39366(7)
C25_13 C 0.38162(14) 0.66310(13) 0.41337(6)
H12_13 H 0.3955 0.6486 0.3987
C26_13 C 0.31841(14) 0.66289(13) 0.42052(7)
C27_13 C 0.59802(16) 0.69375(14) 0.41336(7)
C28_13 C 0.53754(16) 0.68102(15) 0.40921(7)
H13_13 H 0.5282 0.6649 0.3947
N2_13 N 0.45172(15) 0.72510(18) 0.46305(8)
C29_13 C 0.42342(16) 0.68524(15) 0.42849(8)
C30_13 C 0.43825(15) 0.80759(15) 0.56191(8)
C31_13 C 0.49089(17) 0.69239(15) 0.42680(8)
C32_13 C 0.29895(16) 0.68456(16) 0.44315(9)
H14_13 H 0.2570 0.6839 0.4480
C33_13 C 0.61147(18) 0.71838(18) 0.43480(9)
H15_13 H 0.6522 0.7275 0.4368
C34_13 C 0.40128(18) 0.70654(18) 0.45081(9)
C35_13 C 0.48460(18) 0.75642(18) 0.53176(10)
H16_13 H 0.5118 0.7493 0.5454
C36_13 C 0.44178(16) 0.78657(16) 0.53600(9)
C37_13 C 0.40256(19) 0.7965(2) 0.51535(9)
H17_13 H 0.3734 0.8165 0.5177
C38_13 C 0.50587(16) 0.7161(2) 0.44881(9)
C39_13 C 0.56709(19) 0.7299(2) 0.45319(11)
H18_13 H 0.5770 0.7459 0.4677
C40_13 C 0.48743(19) 0.73704(19) 0.50788(11)
H19_13 H 0.5169 0.7172 0.5055
C41_13 C 0.33925(19) 0.70658(19) 0.45832(9)
H20_13 H 0.3254 0.7209 0.4730
C42_13 C 0.44832(16) 0.7461(2) 0.48785(10)
C43_12 C 0.4060(2) 0.7768(2) 0.49081(10)
H21_12 H 0.3803 0.7842 0.4767
O4_14 O 0.57418(11) 0.46965(9) 0.62823(6)
O5_14 O 0.47880(13) 0.45374(11) 0.67037(5)
C1_14 C 0.27175(15) 0.61032(13) 0.84408(6)
C2_14 C 0.64784(16) 0.56534(12) 0.85634(7)
C3_14 C 0.38162(14) 0.58690(13) 0.83663(6)
H1_14 H 0.3955 0.6014 0.8513
C4_14 C 0.31841(14) 0.58711(13) 0.82948(7)
C5_14 C 0.59802(16) 0.55625(14) 0.83664(7)
C6_14 C 0.53754(16) 0.56898(15) 0.84079(7)
H2_14 H 0.5282 0.5851 0.8553
N1_14 N 0.45172(15) 0.52490(18) 0.78695(8)
C7_14 C 0.42342(16) 0.56476(15) 0.82151(8)
C8_14 C 0.43825(15) 0.44241(15) 0.68809(8)
C9_14 C 0.6250 0.4533(2) 0.6250
H3_14 H 0.6250 0.4259 0.6250
C10_14 C 0.49089(17) 0.55761(15) 0.82320(8)
C11_14 C 0.29895(16) 0.56544(16) 0.80685(9)
H4_14 H 0.2570 0.5661 0.8020
C12_14 C 0.61147(18) 0.53162(18) 0.81520(9)
H5_14 H 0.6522 0.5225 0.8132
C13_14 C 0.40128(18) 0.54346(18) 0.79919(9)
C14_14 C 0.48460(18) 0.49358(18) 0.71824(10)
H6_14 H 0.5118 0.5007 0.7046
C15_14 C 0.44178(16) 0.46343(16) 0.71400(9)
C16_14 C 0.40256(19) 0.4535(2) 0.73465(9)
H7_14 H 0.3734 0.4335 0.7323
C17_14 C 0.50587(16) 0.5339(2) 0.80119(9)
C18_14 C 0.56709(19) 0.5201(2) 0.79681(11)
H8_14 H 0.5770 0.5041 0.7823
C19_14 C 0.48743(19) 0.51296(19) 0.74212(11)
H9_14 H 0.5169 0.5328 0.7445
C20_14 C 0.33925(19) 0.54342(19) 0.79168(9)
H10_14 H 0.3254 0.5291 0.7770
C21_14 C 0.44832(16) 0.5039(2) 0.76215(10)
C22_14 C 0.4060(2) 0.4732(2) 0.75919(10)
H11_14 H 0.3803 0.4658 0.7733
O8_14 O 0.67582(11) 0.46965(9) 0.62177(6)
O12_14 O 0.77120(13) 0.45374(11) 0.57963(5)
C23_14 C 0.97825(15) 0.61032(13) 0.40592(6)
C24_14 C 0.60216(16) 0.56534(12) 0.39366(7)
C25_14 C 0.86838(14) 0.58690(13) 0.41337(6)
H12_14 H 0.8545 0.6014 0.3987
C26_14 C 0.93159(14) 0.58711(13) 0.42052(7)
C27_14 C 0.65198(16) 0.55625(14) 0.41336(7)
C28_14 C 0.71246(16) 0.56898(15) 0.40921(7)
H13_14 H 0.7218 0.5851 0.3947
N2_14 N 0.79828(15) 0.52490(18) 0.46305(8)
C29_14 C 0.82658(16) 0.56476(15) 0.42849(8)
C30_14 C 0.81175(15) 0.44241(15) 0.56191(8)
C31_14 C 0.75911(17) 0.55761(15) 0.42680(8)
C32_14 C 0.95105(16) 0.56544(16) 0.44315(9)
H14_14 H 0.9930 0.5661 0.4480
C33_14 C 0.63853(18) 0.53162(18) 0.43480(9)
H15_14 H 0.5978 0.5225 0.4368
C34_14 C 0.84872(18) 0.54346(18) 0.45081(9)
C35_14 C 0.76540(18) 0.49358(18) 0.53176(10)
H16_14 H 0.7382 0.5007 0.5454
C36_14 C 0.80822(16) 0.46343(16) 0.53600(9)
C37_14 C 0.84744(19) 0.4535(2) 0.51535(9)
H17_14 H 0.8766 0.4335 0.5177
C38_14 C 0.74413(16) 0.5339(2) 0.44881(9)
C39_14 C 0.68291(19) 0.5201(2) 0.45319(11)
H18_14 H 0.6730 0.5041 0.4677
C40_14 C 0.76257(19) 0.51296(19) 0.50788(11)
H19_14 H 0.7331 0.5328 0.5055
C41_14 C 0.91075(19) 0.54342(19) 0.45832(9)
H20_14 H 0.9246 0.5291 0.4730
C42_14 C 0.80168(16) 0.5039(2) 0.48785(10)
C43_13 C 0.8440(2) 0.4732(2) 0.49081(10)
H21_13 H 0.8697 0.4658 0.4767
O4_15 O 0.67582(11) 0.28035(9) 0.12823(6)
O5_15 O 0.77120(13) 0.29626(11) 0.17037(5)
C1_15 C 0.97825(15) 0.13968(13) 0.34408(6)
C2_15 C 0.60216(16) 0.18466(12) 0.35634(7)
C3_15 C 0.86838(14) 0.16310(13) 0.33663(6)
H1_15 H 0.8545 0.1486 0.3513
C4_15 C 0.93159(14) 0.16289(13) 0.32948(7)
C5_15 C 0.65198(16) 0.19375(14) 0.33664(7)
C6_15 C 0.71246(16) 0.18102(15) 0.34079(7)
H2_15 H 0.7218 0.1649 0.3553
N1_15 N 0.79828(15) 0.22510(18) 0.28695(8)
C7_15 C 0.82658(16) 0.18524(15) 0.32151(8)
C8_15 C 0.81175(15) 0.30759(15) 0.18809(8)
C9_15 C 0.6250 0.2967(2) 0.1250
H3_15 H 0.6250 0.3241 0.1250
C10_15 C 0.75911(17) 0.19239(15) 0.32320(8)
C11_15 C 0.95105(16) 0.18456(16) 0.30685(9)
H4_15 H 0.9930 0.1839 0.3020
C12_15 C 0.63853(18) 0.21838(18) 0.31520(9)
H5_15 H 0.5978 0.2275 0.3132
C13_15 C 0.84872(18) 0.20654(18) 0.29919(9)
C14_15 C 0.76540(18) 0.25642(18) 0.21824(10)
H6_15 H 0.7382 0.2493 0.2046
C15_15 C 0.80822(16) 0.28657(16) 0.21400(9)
C16_15 C 0.84744(19) 0.2965(2) 0.23465(9)
H7_15 H 0.8766 0.3165 0.2323
C17_15 C 0.74413(16) 0.2161(2) 0.30119(9)
C18_15 C 0.68291(19) 0.2299(2) 0.29681(11)
H8_15 H 0.6730 0.2459 0.2823
C19_15 C 0.76257(19) 0.23704(19) 0.24212(11)
H9_15 H 0.7331 0.2172 0.2445
C20_15 C 0.91075(19) 0.20658(19) 0.29168(9)
H10_15 H 0.9246 0.2209 0.2770
C21_15 C 0.80168(16) 0.2461(2) 0.26215(10)
C22_15 C 0.8440(2) 0.2768(2) 0.25919(10)
H11_15 H 0.8697 0.2842 0.2733
O8_15 O 0.57418(11) 0.28035(9) 0.12177(6)
O12_15 O 0.47880(13) 0.29626(11) 0.07963(5)
C30_15 C 0.43825(15) 0.30759(15) 0.06191(8)
C35_15 C 0.48460(18) 0.25642(18) 0.03176(10)
H16_15 H 0.5118 0.2493 0.0454
C36_15 C 0.44178(16) 0.28657(16) 0.03600(9)
C37_15 C 0.40256(19) 0.2965(2) 0.01535(9)
H17_15 H 0.3734 0.3165 0.0177
C40_15 C 0.48743(19) 0.23704(19) 0.00788(11)
H19_15 H 0.5169 0.2172 0.0055
C23_15 C 0.27175(15) 0.13968(13) 0.90592(6)
C24_15 C 0.64784(16) 0.18466(12) 0.89366(7)
C25_15 C 0.38162(14) 0.16310(13) 0.91337(6)
H12_15 H 0.3955 0.1486 0.8987
C26_15 C 0.31841(14) 0.16289(13) 0.92052(7)
C27_15 C 0.59802(16) 0.19375(14) 0.91336(7)
C28_15 C 0.53754(16) 0.18102(15) 0.90921(7)
H13_15 H 0.5282 0.1649 0.8947
N2_15 N 0.45172(15) 0.22510(18) 0.96305(8)
C29_15 C 0.42342(16) 0.18524(15) 0.92849(8)
C31_15 C 0.49089(17) 0.19239(15) 0.92680(8)
C32_15 C 0.29895(16) 0.18456(16) 0.94315(9)
H14_15 H 0.2570 0.1839 0.9480
C33_15 C 0.61147(18) 0.21838(18) 0.93480(9)
H15_15 H 0.6522 0.2275 0.9368
C34_15 C 0.40128(18) 0.20654(18) 0.95081(9)
C38_15 C 0.50587(16) 0.2161(2) 0.94881(9)
C39_15 C 0.56709(19) 0.2299(2) 0.95319(11)
H18_15 H 0.5770 0.2459 0.9677
C41_15 C 0.33925(19) 0.20658(19) 0.95832(9)
H20_15 H 0.3254 0.2209 0.9730
C42_15 C 0.44832(16) 0.2461(2) 0.98785(10)
C43_14 C 0.4060(2) 0.2768(2) 0.99081(10)
H21_14 H 0.3803 0.2842 0.9767
C1_16 C 0.27175(15) 0.11032(13) 0.34408(6)
C2_16 C 0.64784(16) 0.06534(12) 0.35634(7)
C3_16 C 0.38162(14) 0.08690(13) 0.33663(6)
H1_16 H 0.3955 0.1014 0.3513
C4_16 C 0.31841(14) 0.08711(13) 0.32948(7)
C5_16 C 0.59802(16) 0.05625(14) 0.33664(7)
C6_16 C 0.53754(16) 0.06898(15) 0.34079(7)
H2_16 H 0.5282 0.0851 0.3553
N1_16 N 0.45172(15) 0.02490(18) 0.28695(8)
C7_16 C 0.42342(16) 0.06476(15) 0.32151(8)
C10_16 C 0.49089(17) 0.05761(15) 0.32320(8)
C11_16 C 0.29895(16) 0.06544(16) 0.30685(9)
H4_16 H 0.2570 0.0661 0.3020
C12_16 C 0.61147(18) 0.03162(18) 0.31520(9)
H5_16 H 0.6522 0.0225 0.3132
C13_16 C 0.40128(18) 0.04346(18) 0.29919(9)
H6_16 H 0.5118 0.0007 0.2046
C17_16 C 0.50587(16) 0.0339(2) 0.30119(9)
C18_16 C 0.56709(19) 0.0201(2) 0.29681(11)
H8_16 H 0.5770 0.0041 0.2823
C19_16 C 0.48743(19) 0.01296(19) 0.24212(11)
H9_16 H 0.5169 0.0328 0.2445
C20_16 C 0.33925(19) 0.04342(19) 0.29168(9)
H10_16 H 0.3254 0.0291 0.2770
C21_16 C 0.44832(16) 0.0039(2) 0.26215(10)
H16_16 H 0.7382 0.0007 0.0454
C40_16 C 0.76257(19) 0.01296(19) 0.00788(11)
H19_16 H 0.7331 0.0328 0.0055
C23_16 C 0.97825(15) 0.11032(13) 0.90592(6)
C24_16 C 0.60216(16) 0.06534(12) 0.89366(7)
C25_16 C 0.86838(14) 0.08690(13) 0.91337(6)
H12_16 H 0.8545 0.1014 0.8987
C26_16 C 0.93159(14) 0.08711(13) 0.92052(7)
C27_16 C 0.65198(16) 0.05625(14) 0.91336(7)
C28_16 C 0.71246(16) 0.06898(15) 0.90921(7)
H13_16 H 0.7218 0.0851 0.8947
N2_16 N 0.79828(15) 0.02490(18) 0.96305(8)
C29_16 C 0.82658(16) 0.06476(15) 0.92849(8)
C31_16 C 0.75911(17) 0.05761(15) 0.92680(8)
C32_16 C 0.95105(16) 0.06544(16) 0.94315(9)
H14_16 H 0.9930 0.0661 0.9480
C33_16 C 0.63853(18) 0.03162(18) 0.93480(9)
H15_16 H 0.5978 0.0225 0.9368
C34_16 C 0.84872(18) 0.04346(18) 0.95081(9)
C38_16 C 0.74413(16) 0.0339(2) 0.94881(9)
C39_16 C 0.68291(19) 0.0201(2) 0.95319(11)
H18_16 H 0.6730 0.0041 0.9677
C41_16 C 0.91075(19) 0.04342(19) 0.95832(9)
H20_16 H 0.9246 0.0291 0.9730
C42_16 C 0.80168(16) 0.0039(2) 0.98785(10)
O4_16 O 0.57418(11) 0.96965(9) 0.12823(6)
O5_16 O 0.47880(13) 0.95374(11) 0.17037(5)
C8_16 C 0.43825(15) 0.94241(15) 0.18809(8)
C9_16 C 0.6250 0.9533(2) 0.1250
H3_16 H 0.6250 0.9259 0.1250
C14_16 C 0.48460(18) 0.99358(18) 0.21824(10)
C15_16 C 0.44178(16) 0.96343(16) 0.21400(9)
C16_16 C 0.40256(19) 0.9535(2) 0.23465(9)
H7_16 H 0.3734 0.9335 0.2323
C22_16 C 0.4060(2) 0.9732(2) 0.25919(10)
H11_16 H 0.3803 0.9658 0.2733
O8_16 O 0.67582(11) 0.96965(9) 0.12177(6)
O12_16 O 0.77120(13) 0.95374(11) 0.07963(5)
C30_16 C 0.81175(15) 0.94241(15) 0.06191(8)
C35_16 C 0.76540(18) 0.99358(18) 0.03176(10)
C36_16 C 0.80822(16) 0.96343(16) 0.03600(9)
C37_16 C 0.84744(19) 0.9535(2) 0.01535(9)
H17_16 H 0.8766 0.9335 0.0177
C43_15 C 0.1560(2) 0.0268(2) 0.00919(10)
H21_15 H 0.1303 0.0342 0.0233
C43_16 C 0.8440(2) 0.9732(2) 0.99081(10)
H21_16 H 0.8697 0.9658 0.9767
loop_
_geom_bond_atom_site_label_1
_geom_bond_atom_site_label_2
_geom_bond_site_symmetry_1
_geom_bond_site_symmetry_2
O9 C23 1_555 1_555
O10 C23 1_555 1_555
C23 C26 1_555 1_555
C25 H12 1_555 1_555
C26 C25 1_555 1_555
N2 C34 1_555 1_555
C29 C25 1_555 1_555
C32 C26 1_555 1_555
H14 C32 1_555 1_555
C34 C29 1_555 1_555
C41 C32 1_555 1_555
H20 C41 1_555 1_555
C42 N2 1_555 1_555
H21 C43 1_555 1_555
Co4 O9 1_555 1_555
Co10 O10 1_555 1_555
C29 C31 1_555 1_555
C34 C41 1_555 1_555
C42 C43 1_555 1_555
O12 Co3 1_555 1_555
O14 C30 1_555 1_555
C30 O12 1_555 1_555
C36 C30 1_555 1_555
C37 C36 1_555 1_555
H17 C37 1_555 1_555
C40 C35 1_555 1_555
Co8 O14 1_555 1_555
O21 Co3 1_555 1_555
C35 C36 1_555 1_555
O11 C24 1_555 1_555
O13 C24 1_555 1_555
C24 C27 1_555 1_555
C27 C28 1_555 1_555
C28 H13 1_555 1_555
C33 C27 1_555 1_555
H15 C33 1_555 1_555
C39 C33 1_555 1_555
H18 C39 1_555 1_555
Co7 O13 1_555 1_555
Co9 O11 1_555 1_555
C38 C39 1_555 1_555
Co1 O4 1_555 1_555
Co2 O7 1_555 1_555
O1 C1 1_555 1_555
O2 C1 1_555 1_555
O3 C2 1_555 1_555
O4 C9 1_555 1_555
O5 Co1 1_555 1_555
O6 C2 1_555 1_555
O7 C8 1_555 1_555
C1 C4 1_555 1_555
C2 C5 1_555 1_555
C3 H1 1_555 1_555
C4 C3 1_555 1_555
C5 C6 1_555 1_555
C6 H2 1_555 1_555
N1 C13 1_555 1_555
C7 C3 1_555 1_555
C8 O5 1_555 1_555
C9 H3 1_555 1_555
C10 C6 1_555 1_555
C11 C4 1_555 1_555
H4 C11 1_555 1_555
C12 C5 1_555 1_555
H5 C12 1_555 1_555
C13 C7 1_555 1_555
C14 H6 1_555 1_555
C15 C8 1_555 1_555
C16 C15 1_555 1_555
H7 C16 1_555 1_555
C17 N1 1_555 1_555
C18 C12 1_555 1_555
H8 C18 1_555 1_555
C19 C14 1_555 1_555
H9 C19 1_555 1_555
C20 C11 1_555 1_555
H10 C20 1_555 1_555
C21 N1 1_555 1_555
C22 C16 1_555 1_555
H11 C22 1_555 1_555
O8 C9 1_555 1_555
Co5 O6 1_555 1_555
Co6 O1 1_555 1_555
Co11 O2 1_555 1_555
Co12 O3 1_555 1_555
O15 Co1 1_555 1_555
O17 Co2 1_555 1_555
O18 Co2 1_555 1_555
O19 Co2 1_555 1_555
O20 Co2 1_555 1_555
O22 Co1 1_555 1_555
O23 Co2 1_555 1_555
C7 C10 1_555 1_555
C10 C17 1_555 1_555
C13 C20 1_555 1_555
C14 C15 1_555 1_555
C17 C18 1_555 1_555
C19 C21 1_555 1_555
C21 C22 1_555 1_555
Co2_2 O7_2 1_555 1_555
O1_2 C1_2 1_555 1_555
O2_2 C1_2 1_555 1_555
O5_2 Co1_2 1_555 1_555
O7_2 C8_2 1_555 1_555
C1_2 C4_2 1_555 1_555
C3_2 H1_2 1_555 1_555
C4_2 C3_2 1_555 1_555
N1_2 C13_2 1_555 1_555
C7_2 C3_2 1_555 1_555
C8_2 O5_2 1_555 1_555
C11_2 C4_2 1_555 1_555
H4_2 C11_2 1_555 1_555
C13_2 C7_2 1_555 1_555
C15_2 C8_2 1_555 1_555
C16_2 C15_2 1_555 1_555
H7_2 C16_2 1_555 1_555
C19_2 C14_2 1_555 1_555
C20_2 C11_2 1_555 1_555
H10_2 C20_2 1_555 1_555
C21_2 N1_2 1_555 1_555
C22_2 C16_2 1_555 1_555
H11_2 C22_2 1_555 1_555
Co6_2 O1_2 1_555 1_555
Co11 O2_2 1_555 1_555
O17_2 Co2_2 1_555 1_555
O18_2 Co2_2 1_555 1_555
O19_2 Co2_2 1_555 1_555
O20_2 Co2_2 1_555 1_555
O22_2 Co1_2 1_555 1_555
O23_2 Co2_2 1_555 1_555
C7_2 C10_2 1_555 1_555
C13_2 C20_2 1_555 1_555
C14_2 C15_2 1_555 1_555
C19_2 C21_2 1_555 1_555
C21_2 C22_2 1_555 1_555
O9_2 C23_2 1_555 1_555
O10_2 C23_2 1_555 1_555
O11_2 C24_2 1_555 1_555
O13_2 C24_2 1_555 1_555
C23_2 C26_2 1_555 1_555
C24_2 C27_2 1_555 1_555
C25_2 H12_2 1_555 1_555
C26_2 C25_2 1_555 1_555
C27_2 C28_2 1_555 1_555
C28_2 H13_2 1_555 1_555
N2_2 C34_2 1_555 1_555
C29_2 C25_2 1_555 1_555
C31_2 C28_2 1_555 1_555
C32_2 C26_2 1_555 1_555
H14_2 C32_2 1_555 1_555
C33_2 C27_2 1_555 1_555
H15_2 C33_2 1_555 1_555
C34_2 C29_2 1_555 1_555
C38_2 N2_2 1_555 1_555
C39_2 C33_2 1_555 1_555
H18_2 C39_2 1_555 1_555
C41_2 C32_2 1_555 1_555
H20_2 C41_2 1_555 1_555
C42_2 N2_2 1_555 1_555
H21_2 C43_2 1_555 1_555
Co4_2 O9_2 1_555 1_555
Co7_2 O13_2 1_555 1_555
Co9 O11_2 1_555 1_555
Co10 O10_2 1_555 1_555
C29_2 C31_2 1_555 1_555
C31_2 C38_2 1_555 1_555
C34_2 C41_2 1_555 1_555
C38_2 C39_2 1_555 1_555
C42_2 C43_2 1_555 1_555
O3_2 C2_2 1_555 1_555
O4_2 C9_2 1_555 1_555
O6_2 C2_2 1_555 1_555
C2_2 C5_2 1_555 1_555
C5_2 C6_2 1_555 1_555
C6_2 H2_2 1_555 1_555
C9_2 H3_2 1_555 1_555
C12_2 C5_2 1_555 1_555
H5_2 C12_2 1_555 1_555
C18_2 C12_2 1_555 1_555
H8_2 C18_2 1_555 1_555
O8_2 C9_2 1_555 1_555
Co3_2 O8_2 1_555 1_555
O12_2 Co3_2 1_555 1_555
O14_2 C30_2 1_555 1_555
C30_2 O12_2 1_555 1_555
C35_2 H16_2 1_555 1_555
C36_2 C30_2 1_555 1_555
C37_2 C36_2 1_555 1_555
H17_2 C37_2 1_555 1_555
C40_2 C35_2 1_555 1_555
H19_2 C40_2 1_555 1_555
Co5_2 O6_2 1_555 1_555
Co8_2 O14_2 1_555 1_555
Co12 O3_2 1_555 1_555
O16_2 Co3_2 1_555 1_555
O21_2 Co3_2 1_555 1_555
C17_2 C18_2 1_555 1_555
C35_2 C36_2 1_555 1_555
O17_3 Co8 1_555 1_555
O18_3 Co8 1_555 1_555
O19_3 Co8 1_555 1_555
O20_3 Co8 1_555 1_555
O23_3 Co8 1_555 1_555
O17_4 Co8_2 1_555 1_555
O18_4 Co8_2 1_555 1_555
O19_4 Co8_2 1_555 1_555
O20_4 Co8_2 1_555 1_555
O23_4 Co8_2 1_555 1_555
O9_3 C23_3 1_555 1_555
O10_3 C23_3 1_555 1_555
O12_3 Co3_3 1_555 1_555
O14_3 C30_3 1_555 1_555
C23_3 C26_3 1_555 1_555
C25_3 H12_3 1_555 1_555
C26_3 C25_3 1_555 1_555
N2_3 C34_3 1_555 1_555
C29_3 C25_3 1_555 1_555
C30_3 O12_3 1_555 1_555
C32_3 C26_3 1_555 1_555
H14_3 C32_3 1_555 1_555
C34_3 C29_3 1_555 1_555
C36_3 C30_3 1_555 1_555
C37_3 C36_3 1_555 1_555
H17_3 C37_3 1_555 1_555
C40_3 C35_3 1_555 1_555
C41_3 C32_3 1_555 1_555
H20_3 C41_3 1_555 1_555
C42_3 N2_3 1_555 1_555
C43_3 C37_3 1_555 1_555
H21_3 C43_3 1_555 1_555
Co4_3 O9_3 1_555 1_555
Co8_3 O14_3 1_555 1_555
Co10_2 O10_3 1_555 1_555
O21_3 Co3_3 1_555 1_555
C29_3 C31_3 1_555 1_555
C34_3 C41_3 1_555 1_555
C35_3 C36_3 1_555 1_555
C40_3 C42_3 1_555 1_555
C42_3 C43_3 1_555 1_555
Co1_3 O4_3 1_555 1_555
Co2_3 O7_3 1_555 1_555
O1_3 C1_3 1_555 1_555
O2_3 C1_3 1_555 1_555
O3_3 C2_3 1_555 1_555
O4_3 C9_3 1_555 1_555
O5_3 Co1_3 1_555 1_555
O6_3 C2_3 1_555 1_555
O7_3 C8_3 1_555 1_555
C1_3 C4_3 1_555 1_555
C2_3 C5_3 1_555 1_555
C3_3 H1_3 1_555 1_555
C4_3 C3_3 1_555 1_555
C5_3 C6_3 1_555 1_555
C6_3 H2_3 1_555 1_555
N1_3 C13_3 1_555 1_555
C7_3 C3_3 1_555 1_555
C8_3 O5_3 1_555 1_555
C9_3 H3_3 1_555 1_555
C10_3 C6_3 1_555 1_555
C11_3 C4_3 1_555 1_555
H4_3 C11_3 1_555 1_555
C12_3 C5_3 1_555 1_555
H5_3 C12_3 1_555 1_555
C13_3 C7_3 1_555 1_555
C14_3 H6_3 1_555 1_555
C15_3 C8_3 1_555 1_555
C16_3 C15_3 1_555 1_555
H7_3 C16_3 1_555 1_555
C17_3 N1_3 1_555 1_555
C18_3 C12_3 1_555 1_555
H8_3 C18_3 1_555 1_555
C19_3 C14_3 1_555 1_555
H9_3 C19_3 1_555 1_555
C20_3 C11_3 1_555 1_555
H10_3 C20_3 1_555 1_555
C21_3 N1_3 1_555 1_555
C22_3 C16_3 1_555 1_555
H11_3 C22_3 1_555 1_555
O8_3 C9_3 1_555 1_555
O11_3 C24_3 1_555 1_555
O13_3 C24_3 1_555 1_555
C24_3 C27_3 1_555 1_555
C27_3 C28_3 1_555 1_555
C28_3 H13_3 1_555 1_555
C33_3 C27_3 1_555 1_555
H15_3 C33_3 1_555 1_555
C39_3 C33_3 1_555 1_555
H18_3 C39_3 1_555 1_555
Co5_3 O6_3 1_555 1_555
Co6_3 O1_3 1_555 1_555
Co7_3 O13_3 1_555 1_555
Co9_2 O11_3 1_555 1_555
Co11_2 O2_3 1_555 1_555
Co12_2 O3_3 1_555 1_555
O15_3 Co1_3 1_555 1_555
O17_5 Co2_3 1_555 1_555
O18_5 Co2_3 1_555 1_555
O19_5 Co2_3 1_555 1_555
O20_5 Co2_3 1_555 1_555
O22_3 Co1_3 1_555 1_555
O23_5 Co2_3 1_555 1_555
C7_3 C10_3 1_555 1_555
C10_3 C17_3 1_555 1_555
C13_3 C20_3 1_555 1_555
C14_3 C15_3 1_555 1_555
C17_3 C18_3 1_555 1_555
C19_3 C21_3 1_555 1_555
C21_3 C22_3 1_555 1_555
C38_3 C39_3 1_555 1_555
Co2_4 O7_4 1_555 1_555
O5_4 Co1_4 1_555 1_555
O7_4 C8_4 1_555 1_555
C8_4 O5_4 1_555 1_555
C15_4 C8_4 1_555 1_555
C16_4 C15_4 1_555 1_555
H7_4 C16_4 1_555 1_555
C22_4 C16_4 1_555 1_555
H11_4 C22_4 1_555 1_555
O17_6 Co2_4 1_555 1_555
O18_6 Co2_4 1_555 1_555
O19_6 Co2_4 1_555 1_555
O20_6 Co2_4 1_555 1_555
O22_4 Co1_4 1_555 1_555
O23_6 Co2_4 1_555 1_555
C14_4 C15_4 1_555 1_555
O1_4 C1_4 1_555 1_555
O2_4 C1_4 1_555 1_555
C1_4 C4_4 1_555 1_555
C3_4 H1_4 1_555 1_555
C4_4 C3_4 1_555 1_555
N1_4 C13_4 1_555 1_555
C7_4 C3_4 1_555 1_555
C11_4 C4_4 1_555 1_555
H4_4 C11_4 1_555 1_555
C13_4 C7_4 1_555 1_555
C20_4 C11_4 1_555 1_555
H10_4 C20_4 1_555 1_555
C21_4 N1_4 1_555 1_555
Co6_4 O1_4 1_555 1_555
Co11_2 O2_4 1_555 1_555
C7_4 C10_4 1_555 1_555
C13_4 C20_4 1_555 1_555
C19_4 C21_4 1_555 1_555
O4_4 C9_4 1_555 1_555
C9_4 H3_4 1_555 1_555
O8_4 C9_4 1_555 1_555
Co3_4 O8_4 1_555 1_555
O12_4 Co3_4 1_555 1_555
O14_4 C30_4 1_555 1_555
C30_4 O12_4 1_555 1_555
C36_4 C30_4 1_555 1_555
C37_4 C36_4 1_555 1_555
H17_4 C37_4 1_555 1_555
C43_4 C37_4 1_555 1_555
H21_4 C43_4 1_555 1_555
Co8_4 O14_4 1_555 1_555
O16_4 Co3_4 1_555 1_555
O21_4 Co3_4 1_555 1_555
C35_4 C36_4 1_555 1_555
O3_4 C2_4 1_555 1_555
O6_4 C2_4 1_555 1_555
C2_4 C5_4 1_555 1_555
C5_4 C6_4 1_555 1_555
C6_4 H2_4 1_555 1_555
C12_4 C5_4 1_555 1_555
H5_4 C12_4 1_555 1_555
C18_4 C12_4 1_555 1_555
H8_4 C18_4 1_555 1_555
O9_4 C23_4 1_555 1_555
O10_4 C23_4 1_555 1_555
O11_4 C24_4 1_555 1_555
O13_4 C24_4 1_555 1_555
C23_4 C26_4 1_555 1_555
C24_4 C27_4 1_555 1_555
C25_4 H12_4 1_555 1_555
C26_4 C25_4 1_555 1_555
C27_4 C28_4 1_555 1_555
C28_4 H13_4 1_555 1_555
N2_4 C34_4 1_555 1_555
C29_4 C25_4 1_555 1_555
C31_4 C28_4 1_555 1_555
C32_4 C26_4 1_555 1_555
H14_4 C32_4 1_555 1_555
C33_4 C27_4 1_555 1_555
H15_4 C33_4 1_555 1_555
C34_4 C29_4 1_555 1_555
C38_4 N2_4 1_555 1_555
C39_4 C33_4 1_555 1_555
H18_4 C39_4 1_555 1_555
H19_4 C40_4 1_555 1_555
C41_4 C32_4 1_555 1_555
H20_4 C41_4 1_555 1_555
C42_4 N2_4 1_555 1_555
Co4_4 O9_4 1_555 1_555
Co5_4 O6_4 1_555 1_555
Co7_4 O13_4 1_555 1_555
Co9_2 O11_4 1_555 1_555
Co10_2 O10_4 1_555 1_555
Co12_2 O3_4 1_555 1_555
C17_4 C18_4 1_555 1_555
C29_4 C31_4 1_555 1_555
C31_4 C38_4 1_555 1_555
C34_4 C41_4 1_555 1_555
C38_4 C39_4 1_555 1_555
C40_4 C42_4 1_555 1_555
O17_7 Co8_3 1_555 1_555
O18_7 Co8_3 1_555 1_555
O19_7 Co8_3 1_555 1_555
O20_7 Co8_3 1_555 1_555
O23_7 Co8_3 1_555 1_555
O17_8 Co8_4 1_555 1_555
O18_8 Co8_4 1_555 1_555
O19_8 Co8_4 1_555 1_555
O20_8 Co8_4 1_555 1_555
O23_8 Co8_4 1_555 1_555
Co1_5 O4_5 1_555 1_555
O1_5 C1_5 1_555 1_555
O3_5 C2_5 1_555 1_555
O4_5 C9_5 1_555 1_555
O5_5 Co1_5 1_555 1_555
O6_5 C2_5 1_555 1_555
O23_6 C8_5 1_555 1_555
C1_5 C4_5 1_555 1_555
C2_5 C5_5 1_555 1_555
C3_5 H1_5 1_555 1_555
C4_5 C3_5 1_555 1_555
C5_5 C6_5 1_555 1_555
C6_5 H2_5 1_555 1_555
N1_5 C13_5 1_555 1_555
C7_5 C3_5 1_555 1_555
C8_5 O5_5 1_555 1_555
C9_5 H3_5 1_555 1_555
C10_5 C6_5 1_555 1_555
C11_5 C4_5 1_555 1_555
H4_5 C11_5 1_555 1_555
C12_5 C5_5 1_555 1_555
H5_5 C12_5 1_555 1_555
C13_5 C7_5 1_555 1_555
C14_5 H6_5 1_555 1_555
C15_5 C8_5 1_555 1_555
C16_5 C15_5 1_555 1_555
H7_5 C16_5 1_555 1_555
C17_5 N1_5 1_555 1_555
C18_5 C12_5 1_555 1_555
H8_5 C18_5 1_555 1_555
C19_5 C14_5 1_555 1_555
H9_5 C19_5 1_555 1_555
C20_5 C11_5 1_555 1_555
H10_5 C20_5 1_555 1_555
C21_5 N1_5 1_555 1_555
C22_5 C16_5 1_555 1_555
H11_5 C22_5 1_555 1_555
O8_5 C9_5 1_555 1_555
Co3_5 O8_5 1_555 1_555
O9_5 C23_5 1_555 1_555
O10_5 C23_5 1_555 1_555
O11_5 C24_5 1_555 1_555
O12_5 Co3_5 1_555 1_555
O13_5 C24_5 1_555 1_555
O23_8 C30_5 1_555 1_555
C23_5 C26_5 1_555 1_555
C24_5 C27_5 1_555 1_555
C25_5 H12_5 1_555 1_555
C26_5 C25_5 1_555 1_555
C27_5 C28_5 1_555 1_555
C28_5 H13_5 1_555 1_555
N2_5 C34_5 1_555 1_555
C29_5 C25_5 1_555 1_555
C30_5 O12_5 1_555 1_555
C31_5 C28_5 1_555 1_555
C32_5 C26_5 1_555 1_555
H14_5 C32_5 1_555 1_555
C33_5 C27_5 1_555 1_555
H15_5 C33_5 1_555 1_555
C34_5 C29_5 1_555 1_555
C35_5 H16_5 1_555 1_555
C36_5 C30_5 1_555 1_555
C37_5 C36_5 1_555 1_555
H17_5 C37_5 1_555 1_555
C38_5 N2_5 1_555 1_555
C39_5 C33_5 1_555 1_555
H18_5 C39_5 1_555 1_555
C40_5 C35_5 1_555 1_555
H19_5 C40_5 1_555 1_555
C41_5 C32_5 1_555 1_555
H20_5 C41_5 1_555 1_555
C42_5 N2_5 1_555 1_555
C43_5 C37_5 1_555 1_555
H21_5 C43_5 1_555 1_555
Co5_2 O9_5 1_555 1_555
Co4_2 O6_5 1_555 1_555
Co6_2 O13_5 1_555 1_555
Co11 O11_5 1_555 1_555
Co12 O10_5 1_555 1_555
Co10 O3_5 1_555 1_555
O15_5 Co1_5 1_555 1_555
O16_5 Co3_5 1_555 1_555
O21_5 Co3_5 1_555 1_555
O22_5 Co1_5 1_555 1_555
C7_5 C10_5 1_555 1_555
C10_5 C17_5 1_555 1_555
C13_5 C20_5 1_555 1_555
C14_5 C15_5 1_555 1_555
C17_5 C18_5 1_555 1_555
C19_5 C21_5 1_555 1_555
C21_5 C22_5 1_555 1_555
C29_5 C31_5 1_555 1_555
C31_5 C38_5 1_555 1_555
C34_5 C41_5 1_555 1_555
C35_5 C36_5 1_555 1_555
C38_5 C39_5 1_555 1_555
C40_5 C42_5 1_555 1_555
C42_5 C43_5 1_555 1_555
Co9 O2_5 1_555 1_555
Co1_6 O4_6 1_555 1_555
O1_6 C1_6 1_555 1_555
O2_6 C1_6 1_555 1_555
O3_6 C2_6 1_555 1_555
O4_6 C9_6 1_555 1_555
O5_6 Co1_6 1_555 1_555
O6_6 C2_6 1_555 1_555
O23_5 C8_6 1_555 1_555
C1_6 C4_6 1_555 1_555
C2_6 C5_6 1_555 1_555
C3_6 H1_6 1_555 1_555
C4_6 C3_6 1_555 1_555
C5_6 C6_6 1_555 1_555
C6_6 H2_6 1_555 1_555
N1_6 C13_6 1_555 1_555
C7_6 C3_6 1_555 1_555
C8_6 O5_6 1_555 1_555
C9_6 H3_6 1_555 1_555
C10_6 C6_6 1_555 1_555
C11_6 C4_6 1_555 1_555
H4_6 C11_6 1_555 1_555
C12_6 C5_6 1_555 1_555
H5_6 C12_6 1_555 1_555
C13_6 C7_6 1_555 1_555
C14_6 H6_6 1_555 1_555
C15_6 C8_6 1_555 1_555
C16_6 C15_6 1_555 1_555
H7_6 C16_6 1_555 1_555
C17_6 N1_6 1_555 1_555
C18_6 C12_6 1_555 1_555
H8_6 C18_6 1_555 1_555
C19_6 C14_6 1_555 1_555
H9_6 C19_6 1_555 1_555
C20_6 C11_6 1_555 1_555
H10_6 C20_6 1_555 1_555
C21_6 N1_6 1_555 1_555
C22_6 C16_6 1_555 1_555
H11_6 C22_6 1_555 1_555
O8_6 C9_6 1_555 1_555
Co3_6 O8_6 1_555 1_555
O9_6 C23_6 1_555 1_555
O11_6 C24_6 1_555 1_555
O12_6 Co3_6 1_555 1_555
O13_6 C24_6 1_555 1_555
O23_7 C30_6 1_555 1_555
C23_6 C26_6 1_555 1_555
C24_6 C27_6 1_555 1_555
C25_6 H12_6 1_555 1_555
C26_6 C25_6 1_555 1_555
C27_6 C28_6 1_555 1_555
C28_6 H13_6 1_555 1_555
N2_6 C34_6 1_555 1_555
C29_6 C25_6 1_555 1_555
C30_6 O12_6 1_555 1_555
C31_6 C28_6 1_555 1_555
C32_6 C26_6 1_555 1_555
H14_6 C32_6 1_555 1_555
C33_6 C27_6 1_555 1_555
H15_6 C33_6 1_555 1_555
C34_6 C29_6 1_555 1_555
C35_6 H16_6 1_555 1_555
C36_6 C30_6 1_555 1_555
C37_6 C36_6 1_555 1_555
H17_6 C37_6 1_555 1_555
C38_6 N2_6 1_555 1_555
C39_6 C33_6 1_555 1_555
H18_6 C39_6 1_555 1_555
C40_6 C35_6 1_555 1_555
H19_6 C40_6 1_555 1_555
C41_6 C32_6 1_555 1_555
H20_6 C41_6 1_555 1_555
C42_6 N2_6 1_555 1_555
C43_6 C37_6 1_555 1_555
H21_6 C43_6 1_555 1_555
Co4 O6_6 1_555 1_555
Co7 O1_6 1_555 1_555
Co6 O13_6 1_555 1_555
Co11 O11_6 1_555 1_555
Co9 O2_6 1_555 1_555
Co10 O3_6 1_555 1_555
O15_6 Co1_6 1_555 1_555
O16_6 Co3_6 1_555 1_555
O21_6 Co3_6 1_555 1_555
O22_6 Co1_6 1_555 1_555
C7_6 C10_6 1_555 1_555
C10_6 C17_6 1_555 1_555
C13_6 C20_6 1_555 1_555
C14_6 C15_6 1_555 1_555
C17_6 C18_6 1_555 1_555
C19_6 C21_6 1_555 1_555
C21_6 C22_6 1_555 1_555
C29_6 C31_6 1_555 1_555
C31_6 C38_6 1_555 1_555
C34_6 C41_6 1_555 1_555
C35_6 C36_6 1_555 1_555
C38_6 C39_6 1_555 1_555
C40_6 C42_6 1_555 1_555
C42_6 C43_6 1_555 1_555
Co12 O10_6 1_555 1_555
O9_7 C23_7 1_555 1_555
O10_7 C23_7 1_555 1_555
O11_7 C24_7 1_555 1_555
O13_7 C24_7 1_555 1_555
C23_7 C26_7 1_555 1_555
C24_7 C27_7 1_555 1_555
C25_7 H12_7 1_555 1_555
C26_7 C25_7 1_555 1_555
C27_7 C28_7 1_555 1_555
C28_7 H13_7 1_555 1_555
N2_7 C34_7 1_555 1_555
C29_7 C25_7 1_555 1_555
C31_7 C28_7 1_555 1_555
C32_7 C26_7 1_555 1_555
H14_7 C32_7 1_555 1_555
C33_7 C27_7 1_555 1_555
H15_7 C33_7 1_555 1_555
C34_7 C29_7 1_555 1_555
C38_7 N2_7 1_555 1_555
C39_7 C33_7 1_555 1_555
H18_7 C39_7 1_555 1_555
C41_7 C32_7 1_555 1_555
H20_7 C41_7 1_555 1_555
C42_7 N2_7 1_555 1_555
H21_7 C43_7 1_555 1_555
Co5_4 O9_7 1_555 1_555
Co6_4 O13_7 1_555 1_555
Co11_2 O11_7 1_555 1_555
Co12_2 O10_7 1_555 1_555
C29_7 C31_7 1_555 1_555
C31_7 C38_7 1_555 1_555
C34_7 C41_7 1_555 1_555
C38_7 C39_7 1_555 1_555
C42_7 C43_7 1_555 1_555
Co1_7 O4_7 1_555 1_555
O1_7 C1_7 1_555 1_555
O3_7 C2_7 1_555 1_555
O4_7 C9_7 1_555 1_555
O5_7 Co1_7 1_555 1_555
O6_7 C2_7 1_555 1_555
O23_2 C8_7 1_555 1_555
C1_7 C4_7 1_555 1_555
C2_7 C5_7 1_555 1_555
C3_7 H1_7 1_555 1_555
C4_7 C3_7 1_555 1_555
C5_7 C6_7 1_555 1_555
C6_7 H2_7 1_555 1_555
N1_7 C13_7 1_555 1_555
C7_7 C3_7 1_555 1_555
C8_7 O5_7 1_555 1_555
C9_7 H3_7 1_555 1_555
C10_7 C6_7 1_555 1_555
C11_7 C4_7 1_555 1_555
H4_7 C11_7 1_555 1_555
C12_7 C5_7 1_555 1_555
H5_7 C12_7 1_555 1_555
C13_7 C7_7 1_555 1_555
C14_7 H6_7 1_555 1_555
C15_7 C8_7 1_555 1_555
C16_7 C15_7 1_555 1_555
H7_7 C16_7 1_555 1_555
C17_7 N1_7 1_555 1_555
C18_7 C12_7 1_555 1_555
H8_7 C18_7 1_555 1_555
C19_7 C14_7 1_555 1_555
H9_7 C19_7 1_555 1_555
C20_7 C11_7 1_555 1_555
H10_7 C20_7 1_555 1_555
C21_7 N1_7 1_555 1_555
C22_7 C16_7 1_555 1_555
H11_7 C22_7 1_555 1_555
O8_7 C9_7 1_555 1_555
Co3_7 O8_7 1_555 1_555
O12_7 Co3_7 1_555 1_555
O23_4 C30_7 1_555 1_555
C30_7 O12_7 1_555 1_555
C35_7 H16_7 1_555 1_555
C36_7 C30_7 1_555 1_555
C37_7 C36_7 1_555 1_555
H17_7 C37_7 1_555 1_555
C40_7 C35_7 1_555 1_555
H19_7 C40_7 1_555 1_555
Co4_4 O6_7 1_555 1_555
Co10_2 O3_7 1_555 1_555
O15_7 Co1_7 1_555 1_555
O16_7 Co3_7 1_555 1_555
O21_7 Co3_7 1_555 1_555
O22_7 Co1_7 1_555 1_555
C7_7 C10_7 1_555 1_555
C10_7 C17_7 1_555 1_555
C13_7 C20_7 1_555 1_555
C14_7 C15_7 1_555 1_555
C17_7 C18_7 1_555 1_555
C19_7 C21_7 1_555 1_555
C21_7 C22_7 1_555 1_555
C35_7 C36_7 1_555 1_555
Co9_2 O2_7 1_555 1_555
Co1_8 O4_8 1_555 1_555
O4_8 C9_8 1_555 1_555
O5_8 Co1_8 1_555 1_555
O23 C8_8 1_555 1_555
C8_8 O5_8 1_555 1_555
C9_8 H3_8 1_555 1_555
C15_8 C8_8 1_555 1_555
C16_8 C15_8 1_555 1_555
H7_8 C16_8 1_555 1_555
C22_8 C16_8 1_555 1_555
H11_8 C22_8 1_555 1_555
O8_8 C9_8 1_555 1_555
Co3_8 O8_8 1_555 1_555
O12_8 Co3_8 1_555 1_555
O23_3 C30_8 1_555 1_555
C30_8 O12_8 1_555 1_555
C36_8 C30_8 1_555 1_555
C37_8 C36_8 1_555 1_555
H17_8 C37_8 1_555 1_555
O15_8 Co1_8 1_555 1_555
O16_8 Co3_8 1_555 1_555
O21_8 Co3_8 1_555 1_555
O22_8 Co1_8 1_555 1_555
C14_8 C15_8 1_555 1_555
C35_8 C36_8 1_555 1_555
O9_8 C23_8 1_555 1_555
O11_8 C24_8 1_555 1_555
O13_8 C24_8 1_555 1_555
C23_8 C26_8 1_555 1_555
C24_8 C27_8 1_555 1_555
C25_8 H12_8 1_555 1_555
C26_8 C25_8 1_555 1_555
C27_8 C28_8 1_555 1_555
C28_8 H13_8 1_555 1_555
N2_8 C34_8 1_555 1_555
C29_8 C25_8 1_555 1_555
C31_8 C28_8 1_555 1_555
C32_8 C26_8 1_555 1_555
H14_8 C32_8 1_555 1_555
C33_8 C27_8 1_555 1_555
H15_8 C33_8 1_555 1_555
C34_8 C29_8 1_555 1_555
C38_8 N2_8 1_555 1_555
C39_8 C33_8 1_555 1_555
H18_8 C39_8 1_555 1_555
C41_8 C32_8 1_555 1_555
H20_8 C41_8 1_555 1_555
C42_8 N2_8 1_555 1_555
Co6_3 O13_8 1_555 1_555
Co11_2 O11_8 1_555 1_555
C29_8 C31_8 1_555 1_555
C31_8 C38_8 1_555 1_555
C34_8 C41_8 1_555 1_555
C38_8 C39_8 1_555 1_555
O1_8 C1_8 1_555 1_555
O2_8 C1_8 1_555 1_555
O3_8 C2_8 1_555 1_555
O6_8 C2_8 1_555 1_555
C1_8 C4_8 1_555 1_555
C2_8 C5_8 1_555 1_555
C3_8 H1_8 1_555 1_555
C4_8 C3_8 1_555 1_555
C5_8 C6_8 1_555 1_555
C6_8 H2_8 1_555 1_555
N1_8 C13_8 1_555 1_555
C7_8 C3_8 1_555 1_555
C10_8 C6_8 1_555 1_555
C11_8 C4_8 1_555 1_555
H4_8 C11_8 1_555 1_555
C12_8 C5_8 1_555 1_555
H5_8 C12_8 1_555 1_555
C13_8 C7_8 1_555 1_555
C17_8 N1_8 1_555 1_555
C18_8 C12_8 1_555 1_555
H8_8 C18_8 1_555 1_555
H9_8 C19_8 1_555 1_555
C20_8 C11_8 1_555 1_555
H10_8 C20_8 1_555 1_555
C21_8 N1_8 1_555 1_555
H19_8 C40_8 1_555 1_555
Co4_3 O6_8 1_555 1_555
Co7_3 O1_8 1_555 1_555
Co9_2 O2_8 1_555 1_555
Co10_2 O3_8 1_555 1_555
C7_8 C10_8 1_555 1_555
C10_8 C17_8 1_555 1_555
C13_8 C20_8 1_555 1_555
C17_8 C18_8 1_555 1_555
C19_8 C21_8 1_555 1_555
Co12_2 O10_8 1_555 1_555
Co6_4 O4_9 1_555 1_555
Co11_2 O7_5 1_555 1_555
O15_6 C1_9 1_555 1_555
O17_5 C1_9 1_555 1_555
O19_7 C2_9 1_555 1_555
O4_9 C9_9 1_555 1_555
O5_9 Co6_4 1_555 1_555
O21_3 C2_9 1_555 1_555
O7_5 C8_9 1_555 1_555
C1_9 C4_9 1_555 1_555
C2_9 C5_9 1_555 1_555
C3_9 H1_9 1_555 1_555
C4_9 C3_9 1_555 1_555
C5_9 C6_9 1_555 1_555
C6_9 H2_9 1_555 1_555
N1_9 C13_9 1_555 1_555
C7_9 C3_9 1_555 1_555
C8_9 O5_9 1_555 1_555
C9_9 H3_9 1_555 1_555
C10_9 C6_9 1_555 1_555
C11_9 C4_9 1_555 1_555
H4_9 C11_9 1_555 1_555
C12_9 C5_9 1_555 1_555
H5_9 C12_9 1_555 1_555
C13_9 C7_9 1_555 1_555
C14_9 H6_9 1_555 1_555
C15_9 C8_9 1_555 1_555
C16_9 C15_9 1_555 1_555
H7_9 C16_9 1_555 1_555
C17_9 N1_9 1_555 1_555
C18_9 C12_9 1_555 1_555
H8_9 C18_9 1_555 1_555
C19_9 C14_9 1_555 1_555
H9_9 C19_9 1_555 1_555
C20_9 C11_9 1_555 1_555
H10_9 C20_9 1_555 1_555
C21_9 N1_9 1_555 1_555
C22_9 C16_9 1_555 1_555
H11_9 C22_9 1_555 1_555
O8_9 C9_9 1_555 1_555
O23_9 Co11_2 1_555 1_555
C7_9 C10_9 1_555 1_555
C10_9 C17_9 1_555 1_555
C13_9 C20_9 1_555 1_555
C14_9 C15_9 1_555 1_555
C17_9 C18_9 1_555 1_555
C19_9 C21_9 1_555 1_555
C21_9 C22_9 1_555 1_555
O20_2 C24_9 1_555 1_555
O22_7 C24_9 1_555 1_555
C24_9 C27_9 1_555 1_555
C27_9 C28_9 1_555 1_555
C28_9 H13_9 1_555 1_555
C33_9 C27_9 1_555 1_555
H15_9 C33_9 1_555 1_555
C39_9 C33_9 1_555 1_555
H18_9 C39_9 1_555 1_555
C38_9 C39_9 1_555 1_555
O12_9 Co5_3 1_555 1_555
O14_5 C30_9 1_555 1_555
C30_9 O12_9 1_555 1_555
C36_9 C30_9 1_555 1_555
C37_9 C36_9 1_555 1_555
H17_9 C37_9 1_555 1_555
C40_9 C35_9 1_555 1_555
Co12_2 O14_5 1_555 1_555
C35_9 C36_9 1_555 1_555
O16_2 C23_9 1_555 1_555
O18_4 C23_9 1_555 1_555
C23_9 C26_9 1_555 1_555
C25_9 H12_9 1_555 1_555
C26_9 C25_9 1_555 1_555
N2_9 C34_9 1_555 1_555
C29_9 C25_9 1_555 1_555
C32_9 C26_9 1_555 1_555
H14_9 C32_9 1_555 1_555
C34_9 C29_9 1_555 1_555
C41_9 C32_9 1_555 1_555
H20_9 C41_9 1_555 1_555
C42_9 N2_9 1_555 1_555
H21_8 C43_8 1_555 1_555
C29_9 C31_9 1_555 1_555
C34_9 C41_9 1_555 1_555
C42_9 C43_8 1_555 1_555
O20_7 C2_10 1_555 1_555
O4_10 C9_10 1_555 1_555
O21_6 C2_10 1_555 1_555
C2_10 C5_10 1_555 1_555
C5_10 C6_10 1_555 1_555
C6_10 H2_10 1_555 1_555
C9_10 H3_10 1_555 1_555
C12_10 C5_10 1_555 1_555
H5_10 C12_10 1_555 1_555
C18_10 C12_10 1_555 1_555
H8_10 C18_10 1_555 1_555
O8_10 C9_10 1_555 1_555
Co4 O8_10 1_555 1_555
O12_10 Co4 1_555 1_555
O14_6 C30_10 1_555 1_555
C30_10 O12_10 1_555 1_555
C35_10 H16_10 1_555 1_555
C36_10 C30_10 1_555 1_555
C37_10 C36_10 1_555 1_555
H17_10 C37_10 1_555 1_555
C40_10 C35_10 1_555 1_555
H19_10 C40_10 1_555 1_555
Co10 O14_6 1_555 1_555
C17_10 C18_10 1_555 1_555
C35_10 C36_10 1_555 1_555
O16_7 C23_10 1_555 1_555
O17_4 C23_10 1_555 1_555
O19_2 C24_10 1_555 1_555
O22_2 C24_10 1_555 1_555
C23_10 C26_10 1_555 1_555
C24_10 C27_10 1_555 1_555
C25_10 H12_10 1_555 1_555
C26_10 C25_10 1_555 1_555
C27_10 C28_10 1_555 1_555
C28_10 H13_10 1_555 1_555
N2_10 C34_10 1_555 1_555
C29_10 C25_10 1_555 1_555
C31_10 C28_10 1_555 1_555
C32_10 C26_10 1_555 1_555
H14_10 C32_10 1_555 1_555
C33_10 C27_10 1_555 1_555
H15_10 C33_10 1_555 1_555
C34_10 C29_10 1_555 1_555
C38_10 N2_10 1_555 1_555
C39_10 C33_10 1_555 1_555
H18_10 C39_10 1_555 1_555
C41_10 C32_10 1_555 1_555
H20_10 C41_10 1_555 1_555
C42_10 N2_10 1_555 1_555
H21_9 C43_9 1_555 1_555
C29_10 C31_10 1_555 1_555
C31_10 C38_10 1_555 1_555
C34_10 C41_10 1_555 1_555
C38_10 C39_10 1_555 1_555
C42_10 C43_9 1_555 1_555
Co9 O7_6 1_555 1_555
O15_3 C1_10 1_555 1_555
O18_5 C1_10 1_555 1_555
O5_10 Co7_2 1_555 1_555
O7_6 C8_10 1_555 1_555
C1_10 C4_10 1_555 1_555
C3_10 H1_10 1_555 1_555
C4_10 C3_10 1_555 1_555
N1_10 C13_10 1_555 1_555
C7_10 C3_10 1_555 1_555
C8_10 O5_10 1_555 1_555
C11_10 C4_10 1_555 1_555
H4_10 C11_10 1_555 1_555
C13_10 C7_10 1_555 1_555
C15_10 C8_10 1_555 1_555
C16_10 C15_10 1_555 1_555
H7_10 C16_10 1_555 1_555
C19_10 C14_10 1_555 1_555
C20_10 C11_10 1_555 1_555
H10_10 C20_10 1_555 1_555
C21_10 N1_10 1_555 1_555
C22_10 C16_10 1_555 1_555
H11_10 C22_10 1_555 1_555
O23_10 Co9 1_555 1_555
C7_10 C10_10 1_555 1_555
C13_10 C20_10 1_555 1_555
C14_10 C15_10 1_555 1_555
C19_10 C21_10 1_555 1_555
C21_10 C22_10 1_555 1_555
O23_11 Co12_2 1_555 1_555
O23_12 Co10 1_555 1_555
Co6_2 O4_11 1_555 1_555
Co11 O7_7 1_555 1_555
O15_8 C1_11 1_555 1_555
O17 C1_11 1_555 1_555
O19_3 C2_11 1_555 1_555
O4_11 C9_11 1_555 1_555
O5_11 Co6_2 1_555 1_555
O21 C2_11 1_555 1_555
O7_7 C8_11 1_555 1_555
C1_11 C4_11 1_555 1_555
C2_11 C5_11 1_555 1_555
C3_11 H1_11 1_555 1_555
C4_11 C3_11 1_555 1_555
C5_11 C6_11 1_555 1_555
C6_11 H2_11 1_555 1_555
N1_11 C13_11 1_555 1_555
C7_11 C3_11 1_555 1_555
C8_11 O5_11 1_555 1_555
C9_11 H3_11 1_555 1_555
C10_11 C6_11 1_555 1_555
C11_11 C4_11 1_555 1_555
H4_11 C11_11 1_555 1_555
C12_11 C5_11 1_555 1_555
H5_11 C12_11 1_555 1_555
C13_11 C7_11 1_555 1_555
C14_11 H6_11 1_555 1_555
C15_11 C8_11 1_555 1_555
C16_11 C15_11 1_555 1_555
H7_11 C16_11 1_555 1_555
C17_11 N1_11 1_555 1_555
C18_11 C12_11 1_555 1_555
H8_11 C18_11 1_555 1_555
C19_11 C14_11 1_555 1_555
H9_11 C19_11 1_555 1_555
C20_11 C11_11 1_555 1_555
H10_11 C20_11 1_555 1_555
C21_11 N1_11 1_555 1_555
C22_11 C16_11 1_555 1_555
H11_11 C22_11 1_555 1_555
O8_11 C9_11 1_555 1_555
O20_6 C24_11 1_555 1_555
O22_5 C24_11 1_555 1_555
C24_11 C27_11 1_555 1_555
C27_11 C28_11 1_555 1_555
C28_11 H13_11 1_555 1_555
C33_11 C27_11 1_555 1_555
H15_11 C33_11 1_555 1_555
C39_11 C33_11 1_555 1_555
H18_11 C39_11 1_555 1_555
O23_13 Co11 1_555 1_555
C7_11 C10_11 1_555 1_555
C10_11 C17_11 1_555 1_555
C13_11 C20_11 1_555 1_555
C14_11 C15_11 1_555 1_555
C17_11 C18_11 1_555 1_555
C19_11 C21_11 1_555 1_555
C21_11 C22_11 1_555 1_555
C38_11 C39_11 1_555 1_555
O16_4 C23_11 1_555 1_555
O18_8 C23_11 1_555 1_555
O12_11 Co5 1_555 1_555
O14_7 C30_11 1_555 1_555
C23_11 C26_11 1_555 1_555
C25_11 H12_11 1_555 1_555
C26_11 C25_11 1_555 1_555
N2_11 C34_11 1_555 1_555
C29_11 C25_11 1_555 1_555
C30_11 O12_11 1_555 1_555
C32_11 C26_11 1_555 1_555
H14_11 C32_11 1_555 1_555
C34_11 C29_11 1_555 1_555
C36_11 C30_11 1_555 1_555
C37_11 C36_11 1_555 1_555
H17_11 C37_11 1_555 1_555
C40_11 C35_11 1_555 1_555
C41_11 C32_11 1_555 1_555
H20_11 C41_11 1_555 1_555
C42_11 N2_11 1_555 1_555
C43_10 C37_11 1_555 1_555
H21_10 C43_10 1_555 1_555
Co12 O14_7 1_555 1_555
C29_11 C31_11 1_555 1_555
C34_11 C41_11 1_555 1_555
C35_11 C36_11 1_555 1_555
C40_11 C42_11 1_555 1_555
C42_11 C43_10 1_555 1_555
O20_3 C2_12 1_555 1_555
O21_8 C2_12 1_555 1_555
C2_12 C5_12 1_555 1_555
C5_12 C6_12 1_555 1_555
C6_12 H2_12 1_555 1_555
C12_12 C5_12 1_555 1_555
H5_12 C12_12 1_555 1_555
C18_12 C12_12 1_555 1_555
H8_12 C18_12 1_555 1_555
O16_5 C23_12 1_555 1_555
O17_8 C23_12 1_555 1_555
O19_6 C24_12 1_555 1_555
O22_4 C24_12 1_555 1_555
C23_12 C26_12 1_555 1_555
C24_12 C27_12 1_555 1_555
C25_12 H12_12 1_555 1_555
C26_12 C25_12 1_555 1_555
C27_12 C28_12 1_555 1_555
C28_12 H13_12 1_555 1_555
N2_12 C34_12 1_555 1_555
C29_12 C25_12 1_555 1_555
C31_12 C28_12 1_555 1_555
C32_12 C26_12 1_555 1_555
H14_12 C32_12 1_555 1_555
C33_12 C27_12 1_555 1_555
H15_12 C33_12 1_555 1_555
C34_12 C29_12 1_555 1_555
C38_12 N2_12 1_555 1_555
C39_12 C33_12 1_555 1_555
H18_12 C39_12 1_555 1_555
H19_12 C40_12 1_555 1_555
C41_12 C32_12 1_555 1_555
H20_12 C41_12 1_555 1_555
C42_12 N2_12 1_555 1_555
C17_12 C18_12 1_555 1_555
C29_12 C31_12 1_555 1_555
C31_12 C38_12 1_555 1_555
C34_12 C41_12 1_555 1_555
C38_12 C39_12 1_555 1_555
C40_12 C42_12 1_555 1_555
O4_12 C9_12 1_555 1_555
C9_12 H3_12 1_555 1_555
O8_12 C9_12 1_555 1_555
Co4_3 O8_12 1_555 1_555
O12_12 Co4_3 1_555 1_555
O14_8 C30_12 1_555 1_555
C30_12 O12_12 1_555 1_555
C36_12 C30_12 1_555 1_555
C37_12 C36_12 1_555 1_555
H17_12 C37_12 1_555 1_555
C43_11 C37_12 1_555 1_555
H21_11 C43_11 1_555 1_555
Co10_2 O14_8 1_555 1_555
C35_12 C36_12 1_555 1_555
O15 C1_12 1_555 1_555
O18 C1_12 1_555 1_555
C1_12 C4_12 1_555 1_555
C3_12 H1_12 1_555 1_555
C4_12 C3_12 1_555 1_555
N1_12 C13_12 1_555 1_555
C7_12 C3_12 1_555 1_555
C11_12 C4_12 1_555 1_555
H4_12 C11_12 1_555 1_555
C13_12 C7_12 1_555 1_555
C20_12 C11_12 1_555 1_555
H10_12 C20_12 1_555 1_555
C21_12 N1_12 1_555 1_555
C7_12 C10_12 1_555 1_555
C13_12 C20_12 1_555 1_555
C19_12 C21_12 1_555 1_555
Co9_2 O7_8 1_555 1_555
O5_12 Co7_4 1_555 1_555
O7_8 C8_12 1_555 1_555
C8_12 O5_12 1_555 1_555
C15_12 C8_12 1_555 1_555
C16_12 C15_12 1_555 1_555
H7_12 C16_12 1_555 1_555
C22_12 C16_12 1_555 1_555
H11_12 C22_12 1_555 1_555
O23_14 Co9_2 1_555 1_555
C14_12 C15_12 1_555 1_555
O23_15 Co12 1_555 1_555
O23_16 Co10_2 1_555 1_555
Co7_3 O4_13 1_555 1_555
O15_2 C1_13 1_555 1_555
O20_4 C2_13 1_555 1_555
O4_13 C9_13 1_555 1_555
O5_13 Co7_3 1_555 1_555
O21_7 C2_13 1_555 1_555
O23_14 C8_13 1_555 1_555
C1_13 C4_13 1_555 1_555
C2_13 C5_13 1_555 1_555
C3_13 H1_13 1_555 1_555
C4_13 C3_13 1_555 1_555
C5_13 C6_13 1_555 1_555
C6_13 H2_13 1_555 1_555
N1_13 C13_13 1_555 1_555
C7_13 C3_13 1_555 1_555
C8_13 O5_13 1_555 1_555
C9_13 H3_13 1_555 1_555
C10_13 C6_13 1_555 1_555
C11_13 C4_13 1_555 1_555
H4_13 C11_13 1_555 1_555
C12_13 C5_13 1_555 1_555
H5_13 C12_13 1_555 1_555
C13_13 C7_13 1_555 1_555
C14_13 H6_13 1_555 1_555
C15_13 C8_13 1_555 1_555
C16_13 C15_13 1_555 1_555
H7_13 C16_13 1_555 1_555
C17_13 N1_13 1_555 1_555
C18_13 C12_13 1_555 1_555
H8_13 C18_13 1_555 1_555
C19_13 C14_13 1_555 1_555
H9_13 C19_13 1_555 1_555
C20_13 C11_13 1_555 1_555
H10_13 C20_13 1_555 1_555
C21_13 N1_13 1_555 1_555
C22_13 C16_13 1_555 1_555
H11_13 C22_13 1_555 1_555
O8_13 C9_13 1_555 1_555
Co4_4 O8_13 1_555 1_555
O16_6 C23_13 1_555 1_555
O17_7 C23_13 1_555 1_555
O19_5 C24_13 1_555 1_555
O12_13 Co4_4 1_555 1_555
O22_3 C24_13 1_555 1_555
O23_16 C30_13 1_555 1_555
C23_13 C26_13 1_555 1_555
C24_13 C27_13 1_555 1_555
C25_13 H12_13 1_555 1_555
C26_13 C25_13 1_555 1_555
C27_13 C28_13 1_555 1_555
C28_13 H13_13 1_555 1_555
N2_13 C34_13 1_555 1_555
C29_13 C25_13 1_555 1_555
C30_13 O12_13 1_555 1_555
C31_13 C28_13 1_555 1_555
C32_13 C26_13 1_555 1_555
H14_13 C32_13 1_555 1_555
C33_13 C27_13 1_555 1_555
H15_13 C33_13 1_555 1_555
C34_13 C29_13 1_555 1_555
C35_13 H16_13 1_555 1_555
C36_13 C30_13 1_555 1_555
C37_13 C36_13 1_555 1_555
H17_13 C37_13 1_555 1_555
C38_13 N2_13 1_555 1_555
C39_13 C33_13 1_555 1_555
H18_13 C39_13 1_555 1_555
C40_13 C35_13 1_555 1_555
H19_13 C40_13 1_555 1_555
C41_13 C32_13 1_555 1_555
H20_13 C41_13 1_555 1_555
C42_13 N2_13 1_555 1_555
C43_12 C37_13 1_555 1_555
H21_12 C43_12 1_555 1_555
C7_13 C10_13 1_555 1_555
C10_13 C17_13 1_555 1_555
C13_13 C20_13 1_555 1_555
C14_13 C15_13 1_555 1_555
C17_13 C18_13 1_555 1_555
C19_13 C21_13 1_555 1_555
C21_13 C22_13 1_555 1_555
C29_13 C31_13 1_555 1_555
C31_13 C38_13 1_555 1_555
C34_13 C41_13 1_555 1_555
C35_13 C36_13 1_555 1_555
C38_13 C39_13 1_555 1_555
C40_13 C42_13 1_555 1_555
C42_13 C43_12 1_555 1_555
Co6 O4_14 1_555 1_555
O15_7 C1_14 1_555 1_555
O17_2 C1_14 1_555 1_555
O19_4 C2_14 1_555 1_555
O4_14 C9_14 1_555 1_555
O5_14 Co6 1_555 1_555
O21_2 C2_14 1_555 1_555
O23_13 C8_14 1_555 1_555
C1_14 C4_14 1_555 1_555
C2_14 C5_14 1_555 1_555
C3_14 H1_14 1_555 1_555
C4_14 C3_14 1_555 1_555
C5_14 C6_14 1_555 1_555
C6_14 H2_14 1_555 1_555
N1_14 C13_14 1_555 1_555
C7_14 C3_14 1_555 1_555
C8_14 O5_14 1_555 1_555
C9_14 H3_14 1_555 1_555
C10_14 C6_14 1_555 1_555
C11_14 C4_14 1_555 1_555
H4_14 C11_14 1_555 1_555
C12_14 C5_14 1_555 1_555
H5_14 C12_14 1_555 1_555
C13_14 C7_14 1_555 1_555
C14_14 H6_14 1_555 1_555
C15_14 C8_14 1_555 1_555
C16_14 C15_14 1_555 1_555
H7_14 C16_14 1_555 1_555
C17_14 N1_14 1_555 1_555
C18_14 C12_14 1_555 1_555
H8_14 C18_14 1_555 1_555
C19_14 C14_14 1_555 1_555
H9_14 C19_14 1_555 1_555
C20_14 C11_14 1_555 1_555
H10_14 C20_14 1_555 1_555
C21_14 N1_14 1_555 1_555
C22_14 C16_14 1_555 1_555
H11_14 C22_14 1_555 1_555
O8_14 C9_14 1_555 1_555
Co5_2 O8_14 1_555 1_555
O16_3 C23_14 1_555 1_555
O20_5 C24_14 1_555 1_555
O12_14 Co5_2 1_555 1_555
O22_6 C24_14 1_555 1_555
O23_15 C30_14 1_555 1_555
C23_14 C26_14 1_555 1_555
C24_14 C27_14 1_555 1_555
C25_14 H12_14 1_555 1_555
C26_14 C25_14 1_555 1_555
C27_14 C28_14 1_555 1_555
C28_14 H13_14 1_555 1_555
N2_14 C34_14 1_555 1_555
C29_14 C25_14 1_555 1_555
C30_14 O12_14 1_555 1_555
C31_14 C28_14 1_555 1_555
C32_14 C26_14 1_555 1_555
H14_14 C32_14 1_555 1_555
C33_14 C27_14 1_555 1_555
H15_14 C33_14 1_555 1_555
C34_14 C29_14 1_555 1_555
C35_14 H16_14 1_555 1_555
C36_14 C30_14 1_555 1_555
C37_14 C36_14 1_555 1_555
H17_14 C37_14 1_555 1_555
C38_14 N2_14 1_555 1_555
C39_14 C33_14 1_555 1_555
H18_14 C39_14 1_555 1_555
C40_14 C35_14 1_555 1_555
H19_14 C40_14 1_555 1_555
C41_14 C32_14 1_555 1_555
H20_14 C41_14 1_555 1_555
C42_14 N2_14 1_555 1_555
C43_13 C37_14 1_555 1_555
H21_13 C43_13 1_555 1_555
C7_14 C10_14 1_555 1_555
C10_14 C17_14 1_555 1_555
C13_14 C20_14 1_555 1_555
C14_14 C15_14 1_555 1_555
C17_14 C18_14 1_555 1_555
C19_14 C21_14 1_555 1_555
C21_14 C22_14 1_555 1_555
C29_14 C31_14 1_555 1_555
C31_14 C38_14 1_555 1_555
C34_14 C41_14 1_555 1_555
C35_14 C36_14 1_555 1_555
C38_14 C39_14 1_555 1_555
C40_14 C42_14 1_555 1_555
C42_14 C43_13 1_555 1_555
Co7 O4_15 1_555 1_555
O15_4 C1_15 1_555 1_555
O20_8 C2_15 1_555 1_555
O4_15 C9_15 1_555 1_555
O5_15 Co7 1_555 1_555
O21_5 C2_15 1_555 1_555
O23_10 C8_15 1_555 1_555
C1_15 C4_15 1_555 1_555
C2_15 C5_15 1_555 1_555
C3_15 H1_15 1_555 1_555
C4_15 C3_15 1_555 1_555
C5_15 C6_15 1_555 1_555
C6_15 H2_15 1_555 1_555
N1_15 C13_15 1_555 1_555
C7_15 C3_15 1_555 1_555
C8_15 O5_15 1_555 1_555
C9_15 H3_15 1_555 1_555
C10_15 C6_15 1_555 1_555
C11_15 C4_15 1_555 1_555
H4_15 C11_15 1_555 1_555
C12_15 C5_15 1_555 1_555
H5_15 C12_15 1_555 1_555
C13_15 C7_15 1_555 1_555
C14_15 H6_15 1_555 1_555
C15_15 C8_15 1_555 1_555
C16_15 C15_15 1_555 1_555
H7_15 C16_15 1_555 1_555
C17_15 N1_15 1_555 1_555
C18_15 C12_15 1_555 1_555
H8_15 C18_15 1_555 1_555
C19_15 C14_15 1_555 1_555
H9_15 C19_15 1_555 1_555
C20_15 C11_15 1_555 1_555
H10_15 C20_15 1_555 1_555
C21_15 N1_15 1_555 1_555
C22_15 C16_15 1_555 1_555
H11_15 C22_15 1_555 1_555
O8_15 C9_15 1_555 1_555
Co4_2 O8_15 1_555 1_555
O12_15 Co4_2 1_555 1_555
O23_12 C30_15 1_555 1_555
C30_15 O12_15 1_555 1_555
C35_15 H16_15 1_555 1_555
C36_15 C30_15 1_555 1_555
C37_15 C36_15 1_555 1_555
H17_15 C37_15 1_555 1_555
C40_15 C35_15 1_555 1_555
H19_15 C40_15 1_555 1_555
C7_15 C10_15 1_555 1_555
C10_15 C17_15 1_555 1_555
C13_15 C20_15 1_555 1_555
C14_15 C15_15 1_555 1_555
C17_15 C18_15 1_555 1_555
C19_15 C21_15 1_555 1_555
C21_15 C22_15 1_555 1_555
C35_15 C36_15 1_555 1_555
O16_8 C23_15 1_555 1_555
O17_3 C23_15 1_555 1_555
O19 C24_15 1_555 1_555
O22 C24_15 1_555 1_555
C23_15 C26_15 1_555 1_555
C24_15 C27_15 1_555 1_555
C25_15 H12_15 1_555 1_555
C26_15 C25_15 1_555 1_555
C27_15 C28_15 1_555 1_555
C28_15 H13_15 1_555 1_555
N2_15 C34_15 1_555 1_555
C29_15 C25_15 1_555 1_555
C31_15 C28_15 1_555 1_555
C32_15 C26_15 1_555 1_555
H14_15 C32_15 1_555 1_555
C33_15 C27_15 1_555 1_555
H15_15 C33_15 1_555 1_555
C34_15 C29_15 1_555 1_555
C38_15 N2_15 1_555 1_555
C39_15 C33_15 1_555 1_555
H18_15 C39_15 1_555 1_555
C41_15 C32_15 1_555 1_555
H20_15 C41_15 1_555 1_555
C42_15 N2_15 1_555 1_555
H21_14 C43_14 1_555 1_555
C29_15 C31_15 1_555 1_555
C31_15 C38_15 1_555 1_555
C34_15 C41_15 1_555 1_555
C38_15 C39_15 1_555 1_555
C42_15 C43_14 1_555 1_555
O15_5 C1_16 1_555 1_555
O17_6 C1_16 1_555 1_555
O19_8 C2_16 1_555 1_555
O21_4 C2_16 1_555 1_555
C1_16 C4_16 1_555 1_555
C2_16 C5_16 1_555 1_555
C3_16 H1_16 1_555 1_555
C4_16 C3_16 1_555 1_555
C5_16 C6_16 1_555 1_555
C6_16 H2_16 1_555 1_555
N1_16 C13_16 1_555 1_555
C7_16 C3_16 1_555 1_555
C10_16 C6_16 1_555 1_555
C11_16 C4_16 1_555 1_555
H4_16 C11_16 1_555 1_555
C12_16 C5_16 1_555 1_555
H5_16 C12_16 1_555 1_555
C13_16 C7_16 1_555 1_555
C17_16 N1_16 1_555 1_555
C18_16 C12_16 1_555 1_555
H8_16 C18_16 1_555 1_555
H9_16 C19_16 1_555 1_555
C20_16 C11_16 1_555 1_555
H10_16 C20_16 1_555 1_555
C21_16 N1_16 1_555 1_555
H19_16 C40_16 1_555 1_555
C7_16 C10_16 1_555 1_555
C10_16 C17_16 1_555 1_555
C13_16 C20_16 1_555 1_555
C17_16 C18_16 1_555 1_555
C19_16 C21_16 1_555 1_555
O16 C23_16 1_555 1_555
O20 C24_16 1_555 1_555
O22_8 C24_16 1_555 1_555
C23_16 C26_16 1_555 1_555
C24_16 C27_16 1_555 1_555
C25_16 H12_16 1_555 1_555
C26_16 C25_16 1_555 1_555
C27_16 C28_16 1_555 1_555
C28_16 H13_16 1_555 1_555
N2_16 C34_16 1_555 1_555
C29_16 C25_16 1_555 1_555
C31_16 C28_16 1_555 1_555
C32_16 C26_16 1_555 1_555
H14_16 C32_16 1_555 1_555
C33_16 C27_16 1_555 1_555
H15_16 C33_16 1_555 1_555
C34_16 C29_16 1_555 1_555
C38_16 N2_16 1_555 1_555
C39_16 C33_16 1_555 1_555
H18_16 C39_16 1_555 1_555
C41_16 C32_16 1_555 1_555
H20_16 C41_16 1_555 1_555
C42_16 N2_16 1_555 1_555
C29_16 C31_16 1_555 1_555
C31_16 C38_16 1_555 1_555
C34_16 C41_16 1_555 1_555
C38_16 C39_16 1_555 1_555
Co6_3 O4_16 1_555 1_555
O4_16 C9_16 1_555 1_555
O5_16 Co6_3 1_555 1_555
O23_9 C8_16 1_555 1_555
C8_16 O5_16 1_555 1_555
C9_16 H3_16 1_555 1_555
C15_16 C8_16 1_555 1_555
C16_16 C15_16 1_555 1_555
H7_16 C16_16 1_555 1_555
C22_16 C16_16 1_555 1_555
H11_16 C22_16 1_555 1_555
O8_16 C9_16 1_555 1_555
Co5_4 O8_16 1_555 1_555
O12_16 Co5_4 1_555 1_555
O23_11 C30_16 1_555 1_555
C30_16 O12_16 1_555 1_555
C36_16 C30_16 1_555 1_555
C37_16 C36_16 1_555 1_555
H17_16 C37_16 1_555 1_555
C14_16 C15_16 1_555 1_555
C35_16 C36_16 1_555 1_555
H21_15 C43_15 1_555 1_555
H21_16 C43_16 1_555 1_555

#END
