
###############################################################################
#
# This file contains modified crystal structure data generated from the
# MOF subset of the Cambridge Structural Database (CSD) v543 
# hosted by the Cambridge Crystallographic Data Centre (CCDC).
#
# This work is licensed under the Creative Commons
# Attribution-NonCommercial-ShareAlike 4.0 International License.
# To view a copy of this license, visit
# http://creativecommons.org/licenses/by-nc-sa/4.0/
# or send a letter to
# Creative Commons, PO Box 1866, Mountain View, CA 94042, USA.
#
# CIF created using the CSD Python API on 29 September 2022
# The structure has been converted into the P1 space group
# The structure has a 3D framework
# The original CSD entry CISKIA is in the monoclinic crystal system
# The framework has been calculated to contain at least 10.0% void space
# The void calculation uses a probe of radius 1.32A, grid spacing 0.4
# H atom positions have been added when not included in the experimental data
#
###############################################################################

data_CISKIA
_chemical_formula_moiety         '(C28 H40 K4 O60 S4 U12)n'
_symmetry_cell_setting           triclinic
_symmetry_space_group_name_H-M   'P 1'
_symmetry_Int_Tables_number      1
_space_group_name_Hall           'P 1'
loop_
_symmetry_equiv_pos_site_id
_symmetry_equiv_pos_as_xyz
1 x,y,z
_cell_length_a                   14.1561(7)
_cell_length_b                   12.3533(4)
_cell_length_c                   13.5163(7)
_cell_angle_alpha                90
_cell_angle_beta                 109.193(3)
_cell_angle_gamma                90
_cell_volume                     2232.28
loop_
_atom_site_label
_atom_site_type_symbol
_atom_site_fract_x
_atom_site_fract_y
_atom_site_fract_z
K2 K 0.1524(3) 0.5254(3) 0.0061(3)
O18 O 0.0395(7) 0.4330(9) 0.1366(8)
U3 U 0.08094(4) 0.39609(5) 0.68524(4)
O5 O 0.1451(9) 0.4412(9) 0.8159(8)
O6 O 0.0212(7) 0.3585(9) 0.5513(8)
O13 O 0.0359(7) 0.5866(9) 0.6627(8)
H2 H 0.0234 0.6031 0.5999
O15 O 0.0246(7) 0.2567(9) 0.7518(8)
U4 U 0.11322(4) 0.10491(5) 0.76773(4)
U6 U 0.13044(4) 0.75090(5) 0.74410(4)
O22 O 0.2048(8) 0.4680(9) 0.6161(9)
O24 O 0.1961(7) 0.2500(9) 0.7110(8)
O19 O 0.8288(7) 0.3144(9) 0.1316(8)
O20 O 0.8549(9) 0.5588(9) 0.1841(8)
U1 U 0.88678(4) 0.60491(5) 0.73227(4)
U2 U 0.86956(4) 0.25090(5) 0.75590(4)
K1 K 0.8476(3) 0.4746(3) 0.9939(3)
S1 S 0.2593(3) 0.5687(3) 0.6157(3)
O1 O 0.9605(7) 0.5670(9) 0.8634(8)
O2 O 0.8095(8) 0.6325(9) 0.6003(8)
O3 O 0.9016(7) 0.3154(9) 0.8806(8)
O4 O 0.8288(7) 0.1856(9) 0.6316(8)
O7 O 0.7553(8) 0.5096(10) 0.7675(8)
O8 O 0.7124(8) 0.3469(10) 0.6973(8)
O9 O 0.2565(8) 0.6424(10) 0.7010(9)
O11 O 0.2280(9) 0.6213(11) 0.5147(9)
O12 O 0.9052(7) 0.4209(8) 0.6805(8)
H1 H 0.8707 0.4154 0.6238
O14 O 0.8039(7) 0.7500(9) 0.7890(8)
H3 H 0.7460 0.7656 0.7343
O16 O 0.7589(9) 0.6794(11) 0.9598(10)
O17 O 0.669(3) 0.348(3) 0.927(2)
C1 C 0.6933(13) 0.4425(17) 0.7205(17)
C2 C 0.5829(13) 0.4725(17) 0.6908(17)
C3 C 0.5121(13) 0.4063(18) 0.6342(18)
H4 H 0.5292 0.3404 0.6114
C4 C 0.4108(13) 0.4363(17) 0.6087(18)
H5 H 0.3607 0.3918 0.5664
C5 C 0.3871(12) 0.5297(17) 0.6459(17)
C6 C 0.4596(13) 0.6036(18) 0.6934(18)
H6 H 0.4434 0.6721 0.7115
C7 C 0.5597(15) 0.5719(18) 0.7140(18)
H7 H 0.6107 0.6212 0.7443
U8 U 0.91906(4) 0.89609(5) 0.81476(4)
K3 K 0.8476(3) 0.0254(3) 0.4939(3)
O21 O 0.7435(8) 0.1424(10) 0.7990(9)
O23 O 0.9641(7) 0.0866(9) 0.8373(8)
O25 O 0.9754(7) 0.7567(9) 0.7482(8)
H8 H 0.681246 0.280814 0.892744
H9 H 0.648895 0.3288 0.98859
H10 H 0.726197 0.691052 0.883443
H11 H 0.708053 0.684313 0.995657
S1_2 S 0.7407(3) 0.0687(3) 0.8843(3)
O1_2 O 0.0395(7) 0.0670(9) 0.6366(8)
O2_2 O 0.1905(8) 0.1325(9) 0.8997(8)
O7_2 O 0.2447(8) 0.0096(10) 0.7325(8)
O11_2 O 0.7720(9) 0.1213(11) 0.9853(9)
H3_2 H 0.2540 0.2656 0.7657
O16_2 O 0.2411(9) 0.1794(11) 0.5402(10)
C5_2 C 0.6129(12) 0.0297(17) 0.8541(17)
C6_2 C 0.5404(13) 0.1036(18) 0.8066(18)
H6_2 H 0.5566 0.1721 0.7885
C7_2 C 0.4403(15) 0.0719(18) 0.7860(18)
H7_2 H 0.3893 0.1212 0.7557
O20_2 O 0.1451(9) 0.0588(9) 0.3159(8)
H10_2 H 0.273803 0.191052 0.616557
H11_2 H 0.291947 0.184313 0.504343
K1_2 K 0.1524(3) 0.9746(3) 0.5061(3)
O3_2 O 0.0984(7) 0.8154(9) 0.6194(8)
O4_2 O 0.1712(7) 0.6856(9) 0.8684(8)
O8_2 O 0.2876(8) 0.8469(10) 0.8027(8)
O10 O 0.7952(8) 0.9680(9) 0.8839(9)
O12_2 O 0.0948(7) 0.9209(8) 0.8195(8)
H1_2 H 0.1293 0.9154 0.8762
O17_2 O 0.331(3) 0.848(3) 0.573(2)
C1_2 C 0.3067(13) 0.9425(17) 0.7795(17)
C2_2 C 0.4171(13) 0.9725(17) 0.8092(17)
C3_2 C 0.4879(13) 0.9063(18) 0.8658(18)
H4_2 H 0.4708 0.8404 0.8886
C4_2 C 0.5892(13) 0.9363(17) 0.8913(18)
H5_2 H 0.6393 0.8918 0.9336
O19_2 O 0.1712(7) 0.8144(9) 0.3684(8)
H8_2 H 0.318754 0.780814 0.607256
H9_2 H 0.351105 0.8288 0.51141
H2_2 H 0.9766 0.1031 0.9001
O5_2 O 0.8549(9) 0.9412(9) 0.6841(8)
O6_2 O 0.9788(7) 0.8585(9) 0.9487(8)
O18_2 O 0.9605(7) 0.9330(9) 0.3634(8)
U1_2 U 0.11322(4) 0.39509(5) 0.26773(4)
U2_2 U 0.13044(4) 0.74910(5) 0.24410(4)
S1_3 S 0.7407(3) 0.4313(3) 0.3843(3)
O2_3 O 0.1905(8) 0.3675(9) 0.3997(8)
O3_3 O 0.0984(7) 0.6846(9) 0.1194(8)
O7_3 O 0.2447(8) 0.4904(10) 0.2325(8)
O8_3 O 0.2876(8) 0.6531(10) 0.3027(8)
O9_2 O 0.7435(8) 0.3576(10) 0.2990(9)
O10_2 O 0.7952(8) 0.5320(9) 0.3839(9)
O11_3 O 0.7720(9) 0.3787(11) 0.4853(9)
O12_3 O 0.0948(7) 0.5791(8) 0.3195(8)
H1_3 H 0.1293 0.5846 0.3762
O14_2 O 0.1961(7) 0.2500(9) 0.2110(8)
H3_3 H 0.2540 0.2344 0.2657
O16_3 O 0.2411(9) 0.3206(11) 0.0402(10)
O17_3 O 0.331(3) 0.652(3) 0.073(2)
C1_3 C 0.3067(13) 0.5575(17) 0.2795(17)
C2_3 C 0.4171(13) 0.5275(17) 0.3092(17)
C3_3 C 0.4879(13) 0.5937(18) 0.3658(18)
H4_3 H 0.4708 0.6596 0.3886
C4_3 C 0.5892(13) 0.5637(17) 0.3913(18)
H5_3 H 0.6393 0.6082 0.4336
C5_3 C 0.6129(12) 0.4703(17) 0.3541(17)
C6_3 C 0.5404(13) 0.3964(18) 0.3066(18)
H6_3 H 0.5566 0.3279 0.2885
C7_3 C 0.4403(15) 0.4281(18) 0.2860(18)
H7_3 H 0.3893 0.3788 0.2557
U5 U 0.86956(4) 0.24910(5) 0.25590(4)
U7 U 0.91906(4) 0.60391(5) 0.31476(4)
U8_2 U 0.08094(4) 0.10391(5) 0.18524(4)
O21_2 O 0.2565(8) 0.8576(10) 0.2010(9)
O23_2 O 0.0359(7) 0.9134(9) 0.1627(8)
O25_2 O 0.0246(7) 0.2433(9) 0.2518(8)
H8_3 H 0.318754 0.719186 0.107256
H9_3 H 0.351105 0.6712 0.01141
H10_3 H 0.273803 0.308948 0.116557
H11_3 H 0.291947 0.315687 0.00434307
O6_3 O 0.9788(7) 0.6415(9) 0.4487(8)
O13_2 O 0.9641(7) 0.4134(9) 0.3373(8)
H2_3 H 0.9766 0.3969 0.4001
O15_2 O 0.9754(7) 0.7433(9) 0.2482(8)
U4_2 U 0.88678(4) 0.89509(5) 0.23227(4)
O24_2 O 0.8039(7) 0.7500(9) 0.2890(8)
O6_4 O 0.0212(7) 0.1415(9) 0.0513(8)
O22_2 O 0.2048(8) 0.0320(9) 0.1161(9)
H2_4 H 0.0234 0.8969 0.0999
O3_4 O 0.9016(7) 0.1846(9) 0.3806(8)
O8_4 O 0.7124(8) 0.1531(10) 0.1973(8)
O12_4 O 0.9052(7) 0.0791(8) 0.1805(8)
H1_4 H 0.8707 0.0846 0.1238
O17_4 O 0.669(3) 0.152(3) 0.427(2)
C1_4 C 0.6933(13) 0.0575(17) 0.2205(17)
C2_4 C 0.5829(13) 0.0275(17) 0.1908(17)
C3_4 C 0.5121(13) 0.0937(18) 0.1342(18)
H4_4 H 0.5292 0.1596 0.1114
C4_4 C 0.4108(13) 0.0637(17) 0.1087(18)
H5_4 H 0.3607 0.1082 0.0664
H8_4 H 0.681246 0.219186 0.392744
H9_4 H 0.648895 0.1712 0.48859
S1_4 S 0.2593(3) 0.9313(3) 0.1157(3)
O2_4 O 0.8095(8) 0.8675(9) 0.1003(8)
O7_4 O 0.7553(8) 0.9904(10) 0.2675(8)
O11_4 O 0.2280(9) 0.8787(11) 0.0147(9)
H3_4 H 0.7460 0.7344 0.2343
O16_4 O 0.7589(9) 0.8206(11) 0.4598(10)
C5_4 C 0.3871(12) 0.9703(17) 0.1459(17)
C6_4 C 0.4596(13) 0.8964(18) 0.1934(18)
H6_4 H 0.4434 0.8279 0.2115
C7_4 C 0.5597(15) 0.9281(18) 0.2140(18)
H7_4 H 0.6107 0.8788 0.2443
H10_4 H 0.726197 0.808948 0.383443
H11_4 H 0.708053 0.815687 0.495657
loop_
_geom_bond_atom_site_label_1
_geom_bond_atom_site_label_2
_geom_bond_site_symmetry_1
_geom_bond_site_symmetry_2
K2 O18 1_555 1_555
U3 O5 1_555 1_555
O6 U3 1_555 1_555
H2 O13 1_555 1_555
U4 O15 1_555 1_555
U6 O13 1_555 1_555
O22 U3 1_555 1_555
O24 U3 1_555 1_555
U3 O13 1_555 1_555
U3 O15 1_555 1_555
U4 O24 1_555 1_555
U1 O1 1_555 1_555
U2 O3 1_555 1_555
K1 O1 1_555 1_555
S1 O9 1_555 1_555
O2 U1 1_555 1_555
O3 K1 1_555 1_555
O4 U2 1_555 1_555
O7 U1 1_555 1_555
O8 U2 1_555 1_555
O9 U6 1_555 1_555
O22 S1 1_555 1_555
O11 S1 1_555 1_555
O12 U1 1_555 1_555
H1 O12 1_555 1_555
O14 U1 1_555 1_555
H3 O14 1_555 1_555
O16 K1 1_555 1_555
O17 K1 1_555 1_555
C1 O7 1_555 1_555
C2 C1 1_555 1_555
C3 C2 1_555 1_555
H4 C3 1_555 1_555
C4 C3 1_555 1_555
H5 C4 1_555 1_555
C5 S1 1_555 1_555
C6 C5 1_555 1_555
H6 C6 1_555 1_555
C7 C2 1_555 1_555
H7 C7 1_555 1_555
U8 O14 1_555 1_555
K3 O4 1_555 1_555
O21 U2 1_555 1_555
O23 U2 1_555 1_555
O25 U1 1_555 1_555
U2 O12 1_555 1_555
K1 O7 1_555 1_555
O8 C1 1_555 1_555
C4 C5 1_555 1_555
C6 C7 1_555 1_555
U8 O25 1_555 1_555
O17 H8 1_555 1_555
O17 H9 1_555 1_555
O16 H10 1_555 1_555
O16 H11 1_555 1_555
U4 O1_2 1_555 1_555
S1_2 O21 1_555 1_555
O2_2 U4 1_555 1_555
O7_2 U4 1_555 1_555
O11_2 S1_2 1_555 1_555
H3_2 O24 1_555 1_555
C5_2 S1_2 1_555 1_555
C6_2 C5_2 1_555 1_555
H6_2 C6_2 1_555 1_555
H7_2 C7_2 1_555 1_555
C6_2 C7_2 1_555 1_555
O16_2 H10_2 1_555 1_555
O16_2 H11_2 1_555 1_555
U6 O3_2 1_555 1_555
O3_2 K1_2 1_555 1_555
O4_2 U6 1_555 1_555
O8_2 U6 1_555 1_555
H1_2 O12_2 1_555 1_555
O17_2 K1_2 1_555 1_555
C2_2 C1_2 1_555 1_555
C3_2 C2_2 1_555 1_555
H4_2 C3_2 1_555 1_555
C4_2 C3_2 1_555 1_555
H5_2 C4_2 1_555 1_555
U8 O10 1_555 1_555
O19_2 K1_2 1_555 1_555
U6 O12_2 1_555 1_555
O8_2 C1_2 1_555 1_555
O17_2 H8_2 1_555 1_555
O17_2 H9_2 1_555 1_555
H2_2 O23 1_555 1_555
U8 O5_2 1_555 1_555
O6_2 U8 1_555 1_555
U1_2 O18 1_555 1_555
U2_2 O3_3 1_555 1_555
S1_3 O9_2 1_555 1_555
O2_3 U1_2 1_555 1_555
O3_3 K2 1_555 1_555
O19_2 U2_2 1_555 1_555
O7_3 U1_2 1_555 1_555
O8_3 U2_2 1_555 1_555
O9_2 U5 1_555 1_555
O10_2 S1_3 1_555 1_555
O11_3 S1_3 1_555 1_555
O12_3 U1_2 1_555 1_555
H1_3 O12_3 1_555 1_555
O14_2 U1_2 1_555 1_555
H3_3 O14_2 1_555 1_555
O16_3 K2 1_555 1_555
O17_3 K2 1_555 1_555
C1_3 O7_3 1_555 1_555
C2_3 C1_3 1_555 1_555
C3_3 C2_3 1_555 1_555
H4_3 C3_3 1_555 1_555
C4_3 C3_3 1_555 1_555
H5_3 C4_3 1_555 1_555
C5_3 S1_3 1_555 1_555
C6_3 C5_3 1_555 1_555
H6_3 C6_3 1_555 1_555
C7_3 C2_3 1_555 1_555
H7_3 C7_3 1_555 1_555
U7 O10_2 1_555 1_555
U8_2 O14_2 1_555 1_555
O21_2 U2_2 1_555 1_555
O23_2 U2_2 1_555 1_555
O25_2 U1_2 1_555 1_555
U2_2 O12_3 1_555 1_555
K2 O7_3 1_555 1_555
O8_3 C1_3 1_555 1_555
C4_3 C5_3 1_555 1_555
C6_3 C7_3 1_555 1_555
U8_2 O25_2 1_555 1_555
O17_3 H8_3 1_555 1_555
O17_3 H9_3 1_555 1_555
O16_3 H10_3 1_555 1_555
O16_3 H11_3 1_555 1_555
U7 O20 1_555 1_555
O6_3 U7 1_555 1_555
H2_3 O13_2 1_555 1_555
U4_2 O15_2 1_555 1_555
U5 O13_2 1_555 1_555
O24_2 U7 1_555 1_555
U7 O13_2 1_555 1_555
U7 O15_2 1_555 1_555
U4_2 O24_2 1_555 1_555
U8_2 O20_2 1_555 1_555
O6_4 U8_2 1_555 1_555
O22_2 U8_2 1_555 1_555
H2_4 O23_2 1_555 1_555
U5 O3_4 1_555 1_555
O3_4 K3 1_555 1_555
O19 U5 1_555 1_555
O8_4 U5 1_555 1_555
H1_4 O12_4 1_555 1_555
O17_4 K3 1_555 1_555
C2_4 C1_4 1_555 1_555
C3_4 C2_4 1_555 1_555
H4_4 C3_4 1_555 1_555
C4_4 C3_4 1_555 1_555
H5_4 C4_4 1_555 1_555
U5 O12_4 1_555 1_555
O8_4 C1_4 1_555 1_555
O17_4 H8_4 1_555 1_555
O17_4 H9_4 1_555 1_555
U4_2 O18_2 1_555 1_555
S1_4 O21_2 1_555 1_555
O2_4 U4_2 1_555 1_555
O7_4 U4_2 1_555 1_555
O11_4 S1_4 1_555 1_555
H3_4 O24_2 1_555 1_555
C5_4 S1_4 1_555 1_555
C6_4 C5_4 1_555 1_555
H6_4 C6_4 1_555 1_555
H7_4 C7_4 1_555 1_555
C6_4 C7_4 1_555 1_555
O16_4 H10_4 1_555 1_555
O16_4 H11_4 1_555 1_555

#END
