
###############################################################################
#
# This file contains modified crystal structure data generated from the
# MOF subset of the Cambridge Structural Database (CSD) v543 
# hosted by the Cambridge Crystallographic Data Centre (CCDC).
#
# This work is licensed under the Creative Commons
# Attribution-NonCommercial-ShareAlike 4.0 International License.
# To view a copy of this license, visit
# http://creativecommons.org/licenses/by-nc-sa/4.0/
# or send a letter to
# Creative Commons, PO Box 1866, Mountain View, CA 94042, USA.
#
# CIF created using the CSD Python API on 29 September 2022
# The structure has been converted into the P1 space group
# The structure has a 3D framework
# The original CSD entry CISLUN is in the monoclinic crystal system
# The framework has been calculated to contain at least 10.0% void space
# The void calculation uses a probe of radius 1.32A, grid spacing 0.4
#
###############################################################################

data_CISLUN
_chemical_formula_moiety         '(C60 H60 Cu8 N56 O4)n'
_symmetry_cell_setting           triclinic
_symmetry_space_group_name_H-M   'P 1'
_symmetry_Int_Tables_number      1
_space_group_name_Hall           'P 1'
loop_
_symmetry_equiv_pos_site_id
_symmetry_equiv_pos_as_xyz
1 x,y,z
_cell_length_a                   12.9517(17)
_cell_length_b                   14.733(2)
_cell_length_c                   20.052(3)
_cell_angle_alpha                90
_cell_angle_beta                 129.256(8)
_cell_angle_gamma                90
_cell_volume                     2962.78
loop_
_atom_site_label
_atom_site_type_symbol
_atom_site_fract_x
_atom_site_fract_y
_atom_site_fract_z
N12 N 0.2255(3) 0.7876(2) 0.8496(2)
C6 C 0.0018(4) 0.8992(3) 0.7616(3)
C7 C 0.1128(4) 0.9182(3) 0.8452(3)
H3 H 0.1139 0.9689 0.8733
C10 C 0.0041(4) 0.8216(3) 0.7225(3)
C11 C 0.1158(4) 0.7671(3) 0.7682(3)
H7 H 0.1160 0.7147 0.7424
C12 C 0.2218(4) 0.8616(3) 0.8868(3)
H8 H 0.2961 0.8754 0.9430
Cu5 Cu 0.38656(5) 0.70816(3) 0.90237(3)
Cu1 Cu 0.5000 0.0000 0.5000
Cu2 Cu 0.61344(5) 0.20816(3) 0.59763(3)
O1 O 0.4623(4) 0.3401(3) 0.5022(2)
N1 N 0.5541(3) 0.0958(2) 0.4561(2)
N2 N 0.6047(3) 0.1751(2) 0.4960(2)
N3 N 0.6284(3) 0.2265(2) 0.4538(2)
N4 N 0.5444(3) 0.0927(2) 0.3864(2)
N5 N 0.6096(3) 0.2552(2) 0.1928(2)
N6 N 0.7505(3) 0.0675(2) 0.6686(2)
N9 N 0.8740(3) 0.0412(2) 0.7325(2)
N10 N 0.4613(3) 0.1264(2) 0.5503(2)
N11 N 0.3709(5) 0.1433(3) 0.5482(3)
N13 N 0.2818(7) 0.1579(6) 0.5454(6)
N14 N 0.3335(5) 0.3603(4) 0.3572(3)
C1 C 0.5901(4) 0.1740(3) 0.3871(3)
C2 C 0.5969(4) 0.2012(3) 0.3190(3)
C3 C 0.6381(5) 0.2894(3) 0.3186(3)
H1 H 0.6628 0.3308 0.3615
C4 C 0.5666(5) 0.1713(3) 0.1908(3)
H2 H 0.5407 0.1319 0.1463
C8 C 0.6410(5) 0.3132(3) 0.2537(3)
H4 H 0.6657 0.3720 0.2523
C9 C 0.5604(5) 0.1426(3) 0.2542(3)
H5 H 0.5318 0.0841 0.2527
C13 C 0.3928(9) 0.4431(5) 0.3604(6)
H9 H 0.4140 0.4794 0.4074
H10 H 0.3315 0.4756 0.3074
H11 H 0.4728 0.4303 0.3686
C14 C 0.2402(9) 0.3204(9) 0.2724(5)
H12 H 0.2289 0.2571 0.2780
H13 H 0.2739 0.3267 0.2417
H14 H 0.1558 0.3508 0.2414
C15 C 0.3772(6) 0.3122(5) 0.4279(5)
H15 H 0.3413 0.2548 0.4203
N21 N 0.3139(3) 0.0022(2) 0.3863(2)
N22 N 0.2334(3) 0.0733(2) 0.3603(2)
C20 C 0.1174(4) 0.0438(3) 0.2872(3)
H21 H 0.0690 0.1931 0.3338
Cu7 Cu 0.61344(5) 0.29184(3) 0.09763(3)
N30 N 0.6096(3) 0.2448(2) 0.6928(2)
N31 N 0.7745(3) 0.2876(2) 0.6504(2)
Cu1_2 Cu 0.5000 1.0000 0.5000
N7 N 0.6861(3) 0.9978(2) 0.6137(2)
N8 N 0.7666(3) 0.9267(2) 0.6397(2)
C5 C 0.8826(4) 0.9562(3) 0.7128(3)
H6 H 0.9310 0.8069 0.6662
Cu3 Cu 0.38656(5) 0.79184(3) 0.40237(3)
O2 O 0.5377(4) 0.6599(3) 0.4978(2)
N15 N 0.4459(3) 0.9042(2) 0.5439(2)
N16 N 0.3953(3) 0.8249(2) 0.5040(2)
N17 N 0.3716(3) 0.7735(2) 0.5462(2)
N18 N 0.4556(3) 0.9073(2) 0.6136(2)
N19 N 0.3904(3) 0.7448(2) 0.8072(2)
N20 N 0.2495(3) 0.9325(2) 0.3314(2)
N23 N 0.1260(3) 0.9588(2) 0.2675(2)
N24 N 0.5387(3) 0.8736(2) 0.4497(2)
N25 N 0.6291(5) 0.8567(3) 0.4518(3)
N27 N 0.7182(7) 0.8421(6) 0.4546(6)
N28 N 0.6665(5) 0.6397(4) 0.6428(3)
C16 C 0.4099(4) 0.8260(3) 0.6129(3)
C17 C 0.4031(4) 0.7988(3) 0.6810(3)
C18 C 0.3619(5) 0.7106(3) 0.6814(3)
H16 H 0.3372 0.6692 0.6385
C19 C 0.4334(5) 0.8287(3) 0.8092(3)
H17 H 0.4593 0.8681 0.8537
C23 C 0.3590(5) 0.6868(3) 0.7463(3)
H19 H 0.3343 0.6280 0.7477
C24 C 0.4396(5) 0.8574(3) 0.7458(3)
H20 H 0.4682 0.9159 0.7473
C28 C 0.6072(9) 0.5569(5) 0.6396(6)
H24 H 0.5860 0.5206 0.5926
H25 H 0.6685 0.5244 0.6926
H26 H 0.5272 0.5697 0.6314
C29 C 0.7598(9) 0.6796(9) 0.7276(5)
H27 H 0.7711 0.7429 0.7220
H28 H 0.7261 0.6733 0.7583
H29 H 0.8442 0.6492 0.7586
C30 C 0.6228(6) 0.6878(5) 0.5721(5)
H30 H 0.6587 0.7452 0.5797
N29 N 0.3904(3) 0.7552(2) 0.3072(2)
N32 N 0.2255(3) 0.7124(2) 0.3496(2)
N26 N 0.7745(3) 0.2124(2) 0.1504(2)
C21 C 0.9982(4) 0.1008(3) 0.2384(3)
C22 C 0.8872(4) 0.0818(3) 0.1548(3)
H18 H 0.8861 0.0311 0.1267
C25 C 0.9959(4) 0.1784(3) 0.2775(3)
C26 C 0.8842(4) 0.2329(3) 0.2318(3)
H22 H 0.8840 0.2853 0.2576
C27 C 0.7782(4) 0.1384(3) 0.1132(3)
H23 H 0.7039 0.1246 0.0570
C21_2 C 0.0018(4) 0.6008(3) 0.2616(3)
C22_2 C 0.1128(4) 0.5818(3) 0.3452(3)
H18_2 H 0.1139 0.5311 0.3733
C25_2 C 0.0041(4) 0.6784(3) 0.2225(3)
C26_2 C 0.1158(4) 0.7329(3) 0.2682(3)
H22_2 H 0.1160 0.7853 0.2424
C27_2 C 0.2218(4) 0.6384(3) 0.3868(3)
H23_2 H 0.2961 0.6246 0.4430
Cu1_3 Cu 0.5000 0.5000 0.0000
N1_2 N 0.4459(3) 0.5958(2) 0.0439(2)
N2_2 N 0.3953(3) 0.6751(2) 0.0040(2)
N3_2 N 0.3716(3) 0.7265(2) 0.0462(2)
N4_2 N 0.4556(3) 0.5927(2) 0.1136(2)
N14_2 N 0.6665(5) 0.8603(4) 0.1428(3)
C1_2 C 0.4099(4) 0.6740(3) 0.1129(3)
C2_2 C 0.4031(4) 0.7012(3) 0.1810(3)
C3_2 C 0.3619(5) 0.7894(3) 0.1814(3)
H1_2 H 0.3372 0.8308 0.1385
C4_2 C 0.4334(5) 0.6713(3) 0.3092(3)
H2_2 H 0.4593 0.6319 0.3537
C8_2 C 0.3590(5) 0.8132(3) 0.2463(3)
H4_2 H 0.3343 0.8720 0.2477
C9_2 C 0.4396(5) 0.6426(3) 0.2458(3)
H5_2 H 0.4682 0.5841 0.2473
C13_2 C 0.6072(9) 0.9431(5) 0.1396(6)
H9_2 H 0.5860 0.9794 0.0926
H10_2 H 0.6685 0.9756 0.1926
H11_2 H 0.5272 0.9303 0.1314
C14_2 C 0.7598(9) 0.8204(9) 0.2276(5)
H12_2 H 0.7711 0.7571 0.2220
H13_2 H 0.7261 0.8267 0.2583
H14_2 H 0.8442 0.8508 0.2586
C15_2 C 0.6228(6) 0.8122(5) 0.0721(5)
H15_2 H 0.6587 0.7548 0.0797
O2_2 O 0.4623(4) 0.1599(3) 0.0022(2)
N20_2 N 0.7505(3) 0.4325(2) 0.1686(2)
N21_2 N 0.6861(3) 0.5022(2) 0.1137(2)
N22_2 N 0.7666(3) 0.5733(2) 0.1397(2)
N23_2 N 0.8740(3) 0.4588(2) 0.2325(2)
N24_2 N 0.4613(3) 0.3736(2) 0.0503(2)
N25_2 N 0.3709(5) 0.3567(3) 0.0482(3)
N27_2 N 0.2818(7) 0.3421(6) 0.0454(6)
C20_2 C 0.8826(4) 0.5438(3) 0.2128(3)
H21_2 H 0.9310 0.6931 0.1662
Cu1_4 Cu 0.5000 0.5000 1.0000
O1_2 O 0.5377(4) 0.8401(3) 0.9978(2)
N6_2 N 0.2495(3) 0.5675(2) 0.8314(2)
N7_2 N 0.3139(3) 0.4978(2) 0.8863(2)
N8_2 N 0.2334(3) 0.4267(2) 0.8603(2)
N9_2 N 0.1260(3) 0.5412(2) 0.7675(2)
N10_2 N 0.5387(3) 0.6264(2) 0.9497(2)
N11_2 N 0.6291(5) 0.6433(3) 0.9518(3)
N13_2 N 0.7182(7) 0.6579(6) 0.9546(6)
C5_2 C 0.1174(4) 0.4562(3) 0.7872(3)
H6_2 H 0.0690 0.3069 0.8338
N15_2 N 0.5541(3) 0.4042(2) 0.9561(2)
N16_2 N 0.6047(3) 0.3249(2) 0.9960(2)
N17_2 N 0.6284(3) 0.2735(2) 0.9538(2)
N18_2 N 0.5444(3) 0.4073(2) 0.8864(2)
N28_2 N 0.3335(5) 0.1397(4) 0.8572(3)
C16_2 C 0.5901(4) 0.3260(3) 0.8871(3)
C17_2 C 0.5969(4) 0.2988(3) 0.8190(3)
C18_2 C 0.6381(5) 0.2106(3) 0.8186(3)
H16_2 H 0.6628 0.1692 0.8615
C19_2 C 0.5666(5) 0.3287(3) 0.6908(3)
H17_2 H 0.5407 0.3681 0.6463
C23_2 C 0.6410(5) 0.1868(3) 0.7537(3)
H19_2 H 0.6657 0.1280 0.7523
C24_2 C 0.5604(5) 0.3574(3) 0.7542(3)
H20_2 H 0.5318 0.4159 0.7527
C28_2 C 0.3928(9) 0.0569(5) 0.8604(6)
H24_2 H 0.4140 0.0206 0.9074
H25_2 H 0.3315 0.0244 0.8074
H26_2 H 0.4728 0.0697 0.8686
C29_2 C 0.2402(9) 0.1796(9) 0.7724(5)
H27_2 H 0.2289 0.2429 0.7780
H28_2 H 0.2739 0.1733 0.7417
H29_2 H 0.1558 0.1492 0.7414
C30_2 C 0.3772(6) 0.1878(5) 0.9279(5)
H30_2 H 0.3413 0.2452 0.9203
C6_2 C 0.9982(4) 0.3992(3) 0.7384(3)
C7_2 C 0.8872(4) 0.4182(3) 0.6548(3)
H3_2 H 0.8861 0.4689 0.6267
C10_2 C 0.9959(4) 0.3216(3) 0.7775(3)
C11_2 C 0.8842(4) 0.2671(3) 0.7318(3)
H7_2 H 0.8840 0.2147 0.7576
C12_2 C 0.7782(4) 0.3616(3) 0.6132(3)
H8_2 H 0.7039 0.3754 0.5570
loop_
_geom_bond_atom_site_label_1
_geom_bond_atom_site_label_2
_geom_bond_site_symmetry_1
_geom_bond_site_symmetry_2
N12 C11 1_555 1_555
C7 C6 1_555 1_555
H3 C7 1_555 1_555
C10 C6 1_555 1_555
C11 C10 1_555 1_555
H7 C11 1_555 1_555
C12 N12 1_555 1_555
H8 C12 1_555 1_555
Cu5 N12 1_555 1_555
C7 C12 1_555 1_555
Cu1 N1 1_555 1_555
Cu2 O1 1_555 1_555
O1 C15 1_555 1_555
N1 N2 1_555 1_555
N2 Cu2 1_555 1_555
N3 N2 1_555 1_555
N4 N1 1_555 1_555
N5 C4 1_555 1_555
N6 Cu2 1_555 1_555
N9 N6 1_555 1_555
N10 Cu1 1_555 1_555
N11 N10 1_555 1_555
N13 N11 1_555 1_555
N14 C13 1_555 1_555
C1 N3 1_555 1_555
C2 C1 1_555 1_555
C3 C2 1_555 1_555
H1 C3 1_555 1_555
C4 H2 1_555 1_555
C8 N5 1_555 1_555
H4 C8 1_555 1_555
C9 C2 1_555 1_555
H5 C9 1_555 1_555
C13 H9 1_555 1_555
H10 C13 1_555 1_555
H11 C13 1_555 1_555
C14 N14 1_555 1_555
H12 C14 1_555 1_555
H13 C14 1_555 1_555
H14 C14 1_555 1_555
C15 N14 1_555 1_555
H15 C15 1_555 1_555
N21 Cu1 1_555 1_555
N22 N21 1_555 1_555
C20 N22 1_555 1_555
Cu7 N5 1_555 1_555
N30 Cu2 1_555 1_555
N31 Cu2 1_555 1_555
Cu2 N10 1_555 1_555
N4 C1 1_555 1_555
C3 C8 1_555 1_555
C4 C9 1_555 1_555
N7 Cu1_2 1_555 1_555
N8 N7 1_555 1_555
C5 N8 1_555 1_555
Cu3 O2 1_555 1_555
O2 C30 1_555 1_555
N15 Cu1_2 1_555 1_555
N16 Cu3 1_555 1_555
N17 N16 1_555 1_555
N18 N15 1_555 1_555
N19 C19 1_555 1_555
N20 Cu3 1_555 1_555
N23 N20 1_555 1_555
N24 Cu1_2 1_555 1_555
N25 N24 1_555 1_555
N27 N25 1_555 1_555
N28 C28 1_555 1_555
C16 N17 1_555 1_555
C17 C16 1_555 1_555
C18 C17 1_555 1_555
H16 C18 1_555 1_555
C19 H17 1_555 1_555
C23 N19 1_555 1_555
H19 C23 1_555 1_555
C24 C17 1_555 1_555
H20 C24 1_555 1_555
C28 H24 1_555 1_555
H25 C28 1_555 1_555
H26 C28 1_555 1_555
C29 N28 1_555 1_555
H27 C29 1_555 1_555
H28 C29 1_555 1_555
H29 C29 1_555 1_555
C30 N28 1_555 1_555
H30 C30 1_555 1_555
Cu5 N19 1_555 1_555
N29 Cu3 1_555 1_555
N32 Cu3 1_555 1_555
Cu3 N24 1_555 1_555
N15 N16 1_555 1_555
N18 C16 1_555 1_555
C18 C23 1_555 1_555
C19 C24 1_555 1_555
N26 C26 1_555 1_555
C22 C21 1_555 1_555
H18 C22 1_555 1_555
C25 C21 1_555 1_555
C26 C25 1_555 1_555
H22 C26 1_555 1_555
C27 N26 1_555 1_555
H23 C27 1_555 1_555
Cu7 N26 1_555 1_555
C22 C27 1_555 1_555
N32 C26_2 1_555 1_555
C22_2 C21_2 1_555 1_555
H18_2 C22_2 1_555 1_555
C25_2 C21_2 1_555 1_555
C26_2 C25_2 1_555 1_555
H22_2 C26_2 1_555 1_555
C27_2 N32 1_555 1_555
H23_2 C27_2 1_555 1_555
C22_2 C27_2 1_555 1_555
Cu1_3 N1_2 1_555 1_555
N1_2 N2_2 1_555 1_555
N3_2 N2_2 1_555 1_555
N4_2 N1_2 1_555 1_555
N29 C4_2 1_555 1_555
N14_2 C13_2 1_555 1_555
C1_2 N3_2 1_555 1_555
C2_2 C1_2 1_555 1_555
C3_2 C2_2 1_555 1_555
H1_2 C3_2 1_555 1_555
C4_2 H2_2 1_555 1_555
C8_2 N29 1_555 1_555
H4_2 C8_2 1_555 1_555
C9_2 C2_2 1_555 1_555
H5_2 C9_2 1_555 1_555
C13_2 H9_2 1_555 1_555
H10_2 C13_2 1_555 1_555
H11_2 C13_2 1_555 1_555
C14_2 N14_2 1_555 1_555
H12_2 C14_2 1_555 1_555
H13_2 C14_2 1_555 1_555
H14_2 C14_2 1_555 1_555
C15_2 N14_2 1_555 1_555
H15_2 C15_2 1_555 1_555
Cu7 O2_2 1_555 1_555
N20_2 Cu7 1_555 1_555
N21_2 Cu1_3 1_555 1_555
N22_2 N21_2 1_555 1_555
N23_2 N20_2 1_555 1_555
N24_2 Cu1_3 1_555 1_555
N25_2 N24_2 1_555 1_555
N27_2 N25_2 1_555 1_555
C20_2 N22_2 1_555 1_555
N4_2 C1_2 1_555 1_555
C3_2 C8_2 1_555 1_555
C4_2 C9_2 1_555 1_555
Cu7 N24_2 1_555 1_555
N20_2 N21_2 1_555 1_555
N23_2 C20_2 1_555 1_555
Cu5 O1_2 1_555 1_555
N6_2 Cu5 1_555 1_555
N7_2 Cu1_4 1_555 1_555
N8_2 N7_2 1_555 1_555
N9_2 N6_2 1_555 1_555
N10_2 Cu1_4 1_555 1_555
N11_2 N10_2 1_555 1_555
N13_2 N11_2 1_555 1_555
C5_2 N8_2 1_555 1_555
N15_2 Cu1_4 1_555 1_555
N17_2 N16_2 1_555 1_555
N18_2 N15_2 1_555 1_555
N30 C19_2 1_555 1_555
N28_2 C28_2 1_555 1_555
C16_2 N17_2 1_555 1_555
C17_2 C16_2 1_555 1_555
C18_2 C17_2 1_555 1_555
H16_2 C18_2 1_555 1_555
C19_2 H17_2 1_555 1_555
C23_2 N30 1_555 1_555
H19_2 C23_2 1_555 1_555
C24_2 C17_2 1_555 1_555
H20_2 C24_2 1_555 1_555
C28_2 H24_2 1_555 1_555
H25_2 C28_2 1_555 1_555
H26_2 C28_2 1_555 1_555
C29_2 N28_2 1_555 1_555
H27_2 C29_2 1_555 1_555
H28_2 C29_2 1_555 1_555
H29_2 C29_2 1_555 1_555
C30_2 N28_2 1_555 1_555
H30_2 C30_2 1_555 1_555
Cu5 N10_2 1_555 1_555
N6_2 N7_2 1_555 1_555
N9_2 C5_2 1_555 1_555
N15_2 N16_2 1_555 1_555
N18_2 C16_2 1_555 1_555
C18_2 C23_2 1_555 1_555
C19_2 C24_2 1_555 1_555
N31 C11_2 1_555 1_555
C7_2 C6_2 1_555 1_555
H3_2 C7_2 1_555 1_555
C10_2 C6_2 1_555 1_555
C11_2 C10_2 1_555 1_555
H7_2 C11_2 1_555 1_555
C12_2 N31 1_555 1_555
H8_2 C12_2 1_555 1_555
C7_2 C12_2 1_555 1_555

#END
