
###############################################################################
#
# This file contains modified crystal structure data generated from the
# MOF subset of the Cambridge Structural Database (CSD) v543 
# hosted by the Cambridge Crystallographic Data Centre (CCDC).
#
# This work is licensed under the Creative Commons
# Attribution-NonCommercial-ShareAlike 4.0 International License.
# To view a copy of this license, visit
# http://creativecommons.org/licenses/by-nc-sa/4.0/
# or send a letter to
# Creative Commons, PO Box 1866, Mountain View, CA 94042, USA.
#
# CIF created using the CSD Python API on 29 September 2022
# The structure has been converted into the P1 space group
# The structure has a 3D framework
# The original CSD entry CISMIC is in the triclinic crystal system
# The framework has been calculated to contain at least 10.0% void space
# The void calculation uses a probe of radius 1.32A, grid spacing 0.4
# H atom positions have been added when not included in the experimental data
#
###############################################################################

data_CISMIC
_chemical_formula_moiety         '(C30 H18 Co4 N8 O14)n'
_symmetry_cell_setting           triclinic
_symmetry_space_group_name_H-M   'P 1'
_symmetry_Int_Tables_number      1
_space_group_name_Hall           'P 1'
loop_
_symmetry_equiv_pos_site_id
_symmetry_equiv_pos_as_xyz
1 x,y,z
_cell_length_a                   9.117(16)
_cell_length_b                   9.452(16)
_cell_length_c                   10.914(19)
_cell_angle_alpha                97.53(3)
_cell_angle_beta                 92.11(2)
_cell_angle_gamma                103.25(3)
_cell_volume                     905.39
loop_
_atom_site_label
_atom_site_type_symbol
_atom_site_fract_x
_atom_site_fract_y
_atom_site_fract_z
Co8 Co 0.02221(7) 0.50737(9) 0.85881(6)
O8 O 0.1245(4) 0.6193(4) 0.0285(3)
O9 O 0.1273(4) 0.5642(5) 0.2966(3)
C1 C 0.6906(6) 0.3161(7) 0.2322(5)
C2 C 0.6178(6) 0.3117(6) 0.3558(5)
C3 C 0.4580(6) 0.2674(6) 0.3554(5)
H1 H 0.3985 0.2335 0.2818
C4 C 0.3932(5) 0.2765(6) 0.4692(5)
C5 C 0.4798(6) 0.3268(6) 0.5809(5)
H2 H 0.4332 0.3334 0.6552
C6 C 0.6382(6) 0.3676(6) 0.5805(5)
C7 C 0.7076(6) 0.3627(6) 0.4682(5)
H3 H 0.8121 0.3927 0.4676
C8 C 0.7305(6) 0.4234(6) 0.7031(5)
C9 C 0.1397(6) 0.1293(7) 0.4047(5)
Co2 Co 0.97779(7) 0.49263(9) 0.14119(6)
O3 O 0.8340(4) 0.3652(5) 0.2408(4)
O4 O 0.6079(4) 0.2749(5) 0.1320(3)
O5 O 0.8727(4) 0.4358(5) 0.7034(3)
O6 O 0.6622(4) 0.4598(5) 0.7988(3)
O7 O 0.2363(4) 0.2488(5) 0.4787(4)
Co4 Co 0.64360(7) 0.36245(8) 0.96621(6)
N6 N 0.6880(5) 0.5791(5) 0.0730(4)
N7 N 0.8223(4) 0.6435(5) 0.1404(4)
O1 O 0.6127(5) 0.1441(5) 0.8570(4)
O2 O 0.8755(4) 0.3807(4) 0.9715(3)
N5 N 0.3988(4) 0.3274(5) 0.9223(4)
H8 H 0.656148 0.0799345 0.905677
H9 H 0.503233 0.100389 0.836866
C12 C 0.9251(6) 0.9008(6) 0.2623(5)
C15 C 0.8106(6) 0.7819(6) 0.1843(5)
N1 N 0.6750(5) 0.8023(5) 0.1472(4)
N2 N 0.6012(4) 0.6726(5) 0.0777(4)
Co5 Co 0.35640(7) 0.63755(8) 0.03379(6)
C12_2 C 0.0749(6) 0.0992(6) 0.7377(5)
C15_2 C 0.1894(6) 0.2181(6) 0.8157(5)
N1_2 N 0.3250(5) 0.1977(5) 0.8528(4)
N3 N 0.3120(5) 0.4209(5) 0.9270(4)
N4 N 0.1777(4) 0.3565(5) 0.8596(4)
O1_2 O 0.3873(5) 0.8559(5) 0.1430(4)
O10 O 0.3378(4) 0.5402(5) 0.2012(3)
H8_2 H 0.343852 0.920065 0.0943234
H9_2 H 0.496767 0.899611 0.163134
C1_2 C 0.3094(6) 0.6839(7) 0.7678(5)
C2_2 C 0.3822(6) 0.6883(6) 0.6442(5)
C3_2 C 0.5420(6) 0.7326(6) 0.6446(5)
H1_2 H 0.6015 0.7665 0.7182
C4_2 C 0.6068(5) 0.7235(6) 0.5308(5)
C5_2 C 0.5202(6) 0.6732(6) 0.4191(5)
H2_2 H 0.5668 0.6666 0.3448
C6_2 C 0.3618(6) 0.6324(6) 0.4195(5)
C7_2 C 0.2924(6) 0.6373(6) 0.5318(5)
H3_2 H 0.1879 0.6073 0.5324
C8_2 C 0.2695(6) 0.5766(6) 0.2969(5)
C9_2 C 0.8603(6) 0.8707(7) 0.5953(5)
O3_2 O 0.1660(4) 0.6348(5) 0.7592(4)
O4_2 O 0.3921(4) 0.7251(5) 0.8680(3)
O7_2 O 0.7637(4) 0.7512(5) 0.5213(4)
C10 C 0.1784(6) 0.9992(7) 0.3578(6)
H4 H 0.2757 0.9879 0.3737
C11 C 0.0724(6) 0.8875(7) 0.2879(6)
H5 H 0.0994 0.8012 0.2571
C13 C 0.8864(6) 0.0304(7) 0.3126(6)
H6 H 0.7884 0.0408 0.2984
C14 C 0.9937(6) 0.1451(7) 0.3843(6)
H7 H 0.9670 0.2306 0.4177
C13_2 C 0.1136(6) 0.9696(7) 0.6874(6)
H6_2 H 0.2116 0.9592 0.7016
C14_2 C 0.0063(6) 0.8549(7) 0.6157(6)
H7_2 H 0.0330 0.7694 0.5823
C10_2 C 0.8216(6) 0.0008(7) 0.6422(6)
H4_2 H 0.7243 0.0121 0.6263
C11_2 C 0.9276(6) 0.1125(7) 0.7121(6)
H5_2 H 0.9006 0.1988 0.7429
loop_
_geom_bond_atom_site_label_1
_geom_bond_atom_site_label_2
_geom_bond_site_symmetry_1
_geom_bond_site_symmetry_2
C1 C2 1_555 1_555
C2 C3 1_555 1_555
C3 H1 1_555 1_555
C4 C3 1_555 1_555
C5 C4 1_555 1_555
H2 C5 1_555 1_555
C6 C5 1_555 1_555
C7 C2 1_555 1_555
H3 C7 1_555 1_555
C8 C6 1_555 1_555
O3 C1 1_555 1_555
O4 C1 1_555 1_555
O5 C8 1_555 1_555
O6 C8 1_555 1_555
O7 C4 1_555 1_555
Co4 O6 1_555 1_555
N7 Co2 1_555 1_555
C6 C7 1_555 1_555
C9 O7 1_555 1_555
Co2 O3 1_555 1_555
N6 N7 1_555 1_555
Co4 O1 1_555 1_555
O2 Co4 1_555 1_555
N5 Co4 1_555 1_555
O1 H8 1_555 1_555
O1 H9 1_555 1_555
C15 C12 1_555 1_555
N1 C15 1_555 1_555
N2 N1 1_555 1_555
N6 N2 1_555 1_555
N7 C15 1_555 1_555
Co5 N2 1_555 1_555
C15_2 C12_2 1_555 1_555
N1_2 C15_2 1_555 1_555
N5 N1_2 1_555 1_555
N3 N5 1_555 1_555
N4 C15_2 1_555 1_555
Co8 N4 1_555 1_555
N3 N4 1_555 1_555
Co5 O1_2 1_555 1_555
O8 Co5 1_555 1_555
O10 Co5 1_555 1_555
O1_2 H8_2 1_555 1_555
O1_2 H9_2 1_555 1_555
C1_2 C2_2 1_555 1_555
C2_2 C3_2 1_555 1_555
C3_2 H1_2 1_555 1_555
C4_2 C3_2 1_555 1_555
C5_2 C4_2 1_555 1_555
H2_2 C5_2 1_555 1_555
C6_2 C5_2 1_555 1_555
C7_2 C2_2 1_555 1_555
H3_2 C7_2 1_555 1_555
C8_2 C6_2 1_555 1_555
O3_2 C1_2 1_555 1_555
O4_2 C1_2 1_555 1_555
O9 C8_2 1_555 1_555
O10 C8_2 1_555 1_555
O7_2 C4_2 1_555 1_555
C6_2 C7_2 1_555 1_555
C9_2 O7_2 1_555 1_555
Co8 O3_2 1_555 1_555
C10 H4 1_555 1_555
C11 C10 1_555 1_555
H5 C11 1_555 1_555
H6 C13 1_555 1_555
H7 C14 1_555 1_555
C13 C14 1_555 1_555
H6_2 C13_2 1_555 1_555
H7_2 C14_2 1_555 1_555
C13_2 C14_2 1_555 1_555
C10_2 H4_2 1_555 1_555
C11_2 C10_2 1_555 1_555
H5_2 C11_2 1_555 1_555

#END
