
###############################################################################
#
# This file contains modified crystal structure data generated from the
# MOF subset of the Cambridge Structural Database (CSD) v543 
# hosted by the Cambridge Crystallographic Data Centre (CCDC).
#
# This work is licensed under the Creative Commons
# Attribution-NonCommercial-ShareAlike 4.0 International License.
# To view a copy of this license, visit
# http://creativecommons.org/licenses/by-nc-sa/4.0/
# or send a letter to
# Creative Commons, PO Box 1866, Mountain View, CA 94042, USA.
#
# CIF created using the CSD Python API on 29 September 2022
# The structure has been converted into the P1 space group
# The structure has a 3D framework
# The original CSD entry CISMAT is in the monoclinic crystal system
# The framework has been calculated to contain at least 10.0% void space
# The void calculation uses a probe of radius 1.32A, grid spacing 0.4
# H atom positions have been added when not included in the experimental data
# Generated hydrogen atom positions removed from atoms on special positions
#
###############################################################################

data_CISMAT
_chemical_formula_moiety         '(C8 H32 Al9 F4 O13 P4)n'
_symmetry_cell_setting           triclinic
_symmetry_space_group_name_H-M   'P 1'
_symmetry_Int_Tables_number      1
_space_group_name_Hall           'P 1'
loop_
_symmetry_equiv_pos_site_id
_symmetry_equiv_pos_as_xyz
1 x,y,z
_cell_length_a                   4.961(2)
_cell_length_b                   11.930(5)
_cell_length_c                   10.727(5)
_cell_angle_alpha                90
_cell_angle_beta                 93.972(6)
_cell_angle_gamma                90
_cell_volume                     633.35
loop_
_atom_site_label
_atom_site_type_symbol
_atom_site_fract_x
_atom_site_fract_y
_atom_site_fract_z
Al5 Al -0.0000 0.5000 0.0000
O4 O 0.4906(11) 0.2500 0.0386(5)
Al5_2 Al -0.0000 0.5000 1.0000
O12 O 0.2272(8) 0.4803(3) 0.1474(4)
Al2 Al 0.2508(4) 0.2500 0.8883(2)
F1 F 0.0460(6) 0.3527(2) 0.9636(3)
F3 F 0.0460(6) 0.1473(2) 0.9636(3)
O7 O 0.2908(7) 0.5432(3) 0.9082(3)
O9 O 0.4451(7) 0.3593(3) 0.8173(3)
O10 O 0.4451(7) 0.1407(3) 0.8173(3)
H12 H 0.0234578 0.196977 0.687506
Al5_3 Al 1.0000 0.5000 0.0000
P1 P 0.5199(3) 0.51301(11) 0.17958(12)
O1 O 0.7092(7) 0.4568(3) 0.0918(3)
O2 O 0.5549(7) 0.6407(3) 0.1827(3)
C1 C 0.4438(13) 0.5158(5) 0.4346(5)
H1 H 0.4451 0.5984 0.4258
H2 H 0.2542 0.4901 0.4222
C2 C 0.6108(11) 0.4633(5) 0.3338(5)
H3 H 0.5872 0.3809 0.3353
H4 H 0.8044 0.4795 0.3546
Al5_4 Al 1.0000 0.5000 1.0000
Al6 Al 0.7492(4) 0.7500 0.1117(2)
P2 P 0.4801(3) 0.48699(11) 0.82042(12)
F2 F 0.9540(6) 0.6473(2) 0.0364(3)
O11 O 0.7728(8) 0.5197(3) 0.8526(4)
C3 C 0.5562(13) 0.4842(5) 0.5654(5)
H5 H 0.5549 0.4016 0.5742
H6 H 0.7458 0.5099 0.5778
C4 C 0.3892(11) 0.5367(5) 0.6662(5)
H7 H 0.4128 0.6191 0.6647
H8 H 0.1956 0.5205 0.6454
O5 O 0.9733(11) 0.2500 0.7534(5)
H11 H 0.954366 0.326613 0.71768
Al3 Al 0.0000 0.0000 0.0000
Al3_2 Al -0.0000 0.0000 1.0000
Al3_3 Al 0.0000 1.0000 0.0000
Al3_4 Al 0.0000 1.0000 1.0000
Al3_5 Al 1.0000 0.0000 0.0000
O13 O 0.2272(8) 0.0197(3) 0.1474(4)
P1_2 P 0.4801(3) 0.01301(11) 0.82042(12)
C1_2 C 0.5562(13) 0.0158(5) 0.5654(5)
H1_2 H 0.5549 0.0984 0.5742
Al3_6 Al 1.0000 0.0000 1.0000
O6 O 0.7092(7) 0.0432(3) 0.0918(3)
H6_2 H 0.2542 0.0099 0.4222
C4_2 C 0.6108(11) 0.0367(5) 0.3338(5)
H7_2 H 0.5872 0.1191 0.3353
H8_2 H 0.8044 0.0205 0.3546
O5_2 O 0.0267(11) 0.7500 0.2466(5)
Al3_7 Al 1.0000 1.0000 0.0000
H11_2 H 0.0456336 0.826613 0.28232
O1_2 O 0.2908(7) 0.9568(3) 0.9082(3)
O3 O 0.7728(8) 0.9803(3) 0.8526(4)
H2_2 H 0.7458 0.9901 0.5778
C2_2 C 0.3892(11) 0.9633(5) 0.6662(5)
H3_2 H 0.4128 0.8809 0.6647
H4_2 H 0.1956 0.9795 0.6454
Al3_8 Al 1.0000 1.0000 1.0000
P2_2 P 0.5199(3) 0.98699(11) 0.17958(12)
O8 O 0.5549(7) 0.8593(3) 0.1827(3)
C3_2 C 0.4438(13) 0.9842(5) 0.4346(5)
H5_2 H 0.4451 0.9016 0.4258
F1_2 F 0.9540(6) 0.8527(2) 0.0364(3)
H12_2 H 0.976542 0.696977 0.312494
O4_2 O 0.5094(11) 0.7500 0.9614(5)
H11_3 H 0.0456336 0.673387 0.28232
H12_3 H 0.976542 0.803023 0.312494
H12_4 H 0.0234578 0.303023 0.687506
H11_4 H 0.954366 0.173387 0.71768
loop_
_geom_bond_atom_site_label_1
_geom_bond_atom_site_label_2
_geom_bond_site_symmetry_1
_geom_bond_site_symmetry_2
O12 Al5 1_555 1_555
Al5_2 F1 1_555 1_555
Al2 F1 1_555 1_555
F3 Al2 1_555 1_555
O7 Al5_2 1_555 1_555
O9 Al2 1_555 1_555
O10 Al2 1_555 1_555
P1 O1 1_555 1_555
O1 Al5_3 1_555 1_555
O2 P1 1_555 1_555
O12 P1 1_555 1_555
C1 H1 1_555 1_555
H2 C1 1_555 1_555
C2 P1 1_555 1_555
H3 C2 1_555 1_555
H4 C2 1_555 1_555
Al5_4 O11 1_555 1_555
Al6 O2 1_555 1_555
P2 O7 1_555 1_555
F2 Al5_3 1_555 1_555
O9 P2 1_555 1_555
O11 P2 1_555 1_555
C3 C1 1_555 1_555
H5 C3 1_555 1_555
H6 C3 1_555 1_555
C4 P2 1_555 1_555
H7 C4 1_555 1_555
H8 C4 1_555 1_555
C1 C2 1_555 1_555
Al6 F2 1_555 1_555
C3 C4 1_555 1_555
O5 H11 1_555 1_555
O13 Al3 1_555 1_555
O10 P1_2 1_555 1_555
C1_2 H1_2 1_555 1_555
Al3_5 O6 1_555 1_555
F3 Al3_2 1_555 1_555
H7_2 C4_2 1_555 1_555
H8_2 C4_2 1_555 1_555
O5_2 H11_2 1_555 1_555
O1_2 Al3_4 1_555 1_555
H3_2 C2_2 1_555 1_555
H4_2 C2_2 1_555 1_555
Al3_8 O3 1_555 1_555
Al6 O8 1_555 1_555
O8 P2_2 1_555 1_555
H5_2 C3_2 1_555 1_555
Al3_7 F1_2 1_555 1_555
Al6 F1_2 1_555 1_555
O5_2 H11_3 1_555 1_555
O5 H11_4 1_555 1_555

#END
