
###############################################################################
#
# This file contains modified crystal structure data generated from the
# MOF subset of the Cambridge Structural Database (CSD) v543 
# hosted by the Cambridge Crystallographic Data Centre (CCDC).
#
# This work is licensed under the Creative Commons
# Attribution-NonCommercial-ShareAlike 4.0 International License.
# To view a copy of this license, visit
# http://creativecommons.org/licenses/by-nc-sa/4.0/
# or send a letter to
# Creative Commons, PO Box 1866, Mountain View, CA 94042, USA.
#
# CIF created using the CSD Python API on 29 September 2022
# The structure has been converted into the P1 space group
# The structure has a 3D framework
# The original CSD entry CISXEJ is in the monoclinic crystal system
# The original CSD entry CISXEJ is in a Sohncke space group
# The framework has been calculated to contain at least 10.0% void space
# The void calculation uses a probe of radius 1.32A, grid spacing 0.4
#
###############################################################################

data_CISXEJ
_chemical_formula_moiety         '(C372 H288 N8 Na4 O46 P12 Pb4)n'
_symmetry_cell_setting           triclinic
_symmetry_space_group_name_H-M   'P 1'
_symmetry_Int_Tables_number      1
_space_group_name_Hall           'P 1'
loop_
_symmetry_equiv_pos_site_id
_symmetry_equiv_pos_as_xyz
1 x,y,z
_cell_length_a                   11.2213(2)
_cell_length_b                   39.8468(7)
_cell_length_c                   22.4948(5)
_cell_angle_alpha                90
_cell_angle_beta                 104.135(2)
_cell_angle_gamma                90
_cell_volume                     9753.63
loop_
_atom_site_label
_atom_site_type_symbol
_atom_site_fract_x
_atom_site_fract_y
_atom_site_fract_z
O5 O 0.6723(4) 0.54310(12) 0.6161(2)
O6 O 0.5796(4) 0.50561(11) 0.6617(2)
H1 H 0.0417 0.4727 0.2182
C5 C 0.0015(7) 0.4685(2) 0.1271(4)
H2 H 0.0847 0.4672 0.1246
C15 C 0.0357(11) 0.5626(2) 0.3299(6)
H7 H 0.0178 0.5841 0.3118
C16 C 0.1347(9) 0.5584(2) 0.3825(5)
H8 H 0.1807 0.5775 0.3999
C17 C 0.1654(8) 0.52802(19) 0.4084(4)
C18 C 0.0981(7) 0.49934(17) 0.3825(3)
C19 C 0.1269(7) 0.46619(18) 0.4036(3)
H9 H 0.1944 0.4627 0.4379
C20 C 0.0625(6) 0.43935(17) 0.3770(3)
H10 H 0.0866 0.4175 0.3924
C28 C 0.2704(7) 0.52578(17) 0.4623(3)
C29 C 0.3830(7) 0.54082(19) 0.4594(4)
H15 H 0.3903 0.5512 0.4225
C30 C 0.4817(7) 0.54058(19) 0.5093(3)
H16 H 0.5559 0.5513 0.5068
C31 C 0.4747(6) 0.52465(16) 0.5641(3)
C32 C 0.3640(6) 0.50981(17) 0.5670(3)
H17 H 0.3572 0.4991 0.6038
C33 C 0.2640(7) 0.51040(18) 0.5172(3)
H18 H 0.1893 0.5001 0.5203
C34 C 0.5837(6) 0.52446(16) 0.6172(3)
H32 H 0.0159 0.3028 0.4026
C56 C 0.0451(10) 0.3719(2) 0.1397(5)
H36 H 0.0793 0.3651 0.107
C57 C 0.1195(8) 0.3731(2) 0.1987(4)
H37 H 0.2039 0.3672 0.2061
C58 C 0.0702(7) 0.38293(19) 0.2470(4)
H38 H 0.1205 0.3839 0.2876
H97 H 0.0223 0.7299 0.3053
C158 C 0.0654(8) 0.7754(2) 0.0732(5)
H100 H 0.0795 0.769 0.115
C159 C 0.1669(8) 0.7783(2) 0.0449(6)
H101 H 0.2481 0.7732 0.0674
Pb5 Pb 0.78599(2) 0.514874(5) 0.726979(11)
Na3 Na 0.4935(2) 0.49631(6) 0.74453(12)
Pb6 Pb 0.21401(2) 0.014874(5) 0.273021(11)
P1 P 0.66656(18) 0.49529(5) 0.32151(9)
P2 P 0.87259(16) 0.40591(4) 0.29365(8)
P5 P 0.81763(17) 0.78015(5) 0.07283(9)
O1 O 0.7488(5) 0.47938(14) 0.3761(2)
O2 O 0.7382(4) 0.41111(11) 0.2686(2)
O13 O 0.7612(5) 0.81360(12) 0.0747(3)
O17 O 0.3107(5) 0.96978(11) 0.2315(2)
O18 O 0.1581(6) 0.94478(11) 0.2608(3)
C1 C 0.7074(6) 0.48819(18) 0.2491(3)
C2 C 0.8253(6) 0.47997(16) 0.2465(3)
C3 C 0.8517(6) 0.47593(17) 0.1869(3)
C4 C 0.9765(7) 0.47235(19) 0.1822(4)
C6 C 0.9089(7) 0.4662(2) 0.0741(4)
H3 H 0.929 0.4627 0.036
C7 C 0.7878(7) 0.4691(2) 0.0760(3)
C8 C 0.7579(6) 0.47606(16) 0.1344(3)
C9 C 0.6378(6) 0.48416(19) 0.1382(3)
H4 H 0.5731 0.485 0.102
C10 C 0.6138(6) 0.49083(17) 0.1940(3)
H5 H 0.5333 0.4973 0.1958
C11 C 0.9582(6) 0.44316(17) 0.3260(3)
C12 C 0.9285(6) 0.47470(16) 0.3026(3)
C13 C 0.9967(7) 0.50356(18) 0.3302(3)
C14 C 0.9684(9) 0.5363(2) 0.3063(5)
H6 H 0.8995 0.5394 0.2726
C21 C 0.6856(7) 0.46549(17) 0.0193(3)
C26 C 0.5897(7) 0.44397(17) 0.0162(3)
H14 H 0.5893 0.4301 0.0506
C35 C 0.5102(6) 0.48088(18) 0.3066(3)
C36 C 0.4918(7) 0.44638(19) 0.2976(4)
H19 H 0.5601 0.4319 0.3
C37 C 0.3743(7) 0.4333(2) 0.2850(4)
H20 H 0.361 0.4099 0.2787
C38 C 0.2756(7) 0.4550(2) 0.2819(4)
H21 H 0.195 0.446 0.2749
C39 C 0.2914(7) 0.4889(2) 0.2884(4)
H22 H 0.2227 0.5034 0.2845
C40 C 0.4091(8) 0.5016(2) 0.3008(4)
H23 H 0.421 0.5252 0.3054
C41 C 0.6562(7) 0.53994(19) 0.3300(4)
C42 C 0.6508(12) 0.5625(2) 0.2833(5)
H24 H 0.6537 0.5547 0.2438
C43 C 0.6410(16) 0.5967(2) 0.2938(6)
H25 H 0.6414 0.6123 0.262
C44 C 0.6308(13) 0.6077(2) 0.3496(6)
H26 H 0.6228 0.6311 0.3561
C45 C 0.6319(10) 0.5860(2) 0.3961(5)
H27 H 0.6235 0.5939 0.4347
C46 C 0.6459(7) 0.5518(2) 0.3858(4)
H28 H 0.6483 0.5364 0.4183
C47 C 0.9069(6) 0.37648(15) 0.3558(3)
C48 C 0.8720(7) 0.38565(19) 0.4090(3)
H29 H 0.8351 0.407 0.4109
C49 C 0.8898(7) 0.36454(19) 0.4583(4)
H30 H 0.8657 0.3715 0.494
C50 C 0.9434(7) 0.3328(2) 0.4568(4)
H31 H 0.9549 0.3179 0.4908
C51 C 0.9783(8) 0.32397(19) 0.4045(4)
C52 C 0.9602(7) 0.34533(18) 0.3542(4)
H33 H 0.9845 0.3385 0.3185
C53 C 0.9458(7) 0.39132(17) 0.2350(3)
C54 C 0.8728(8) 0.3902(2) 0.1760(4)
H34 H 0.7882 0.396 0.1679
C55 C 0.9254(11) 0.3803(2) 0.1277(4)
H35 H 0.8764 0.3796 0.0868
C117 C 0.7170(6) 0.74909(15) 0.0285(3)
C118 C 0.5917(6) 0.75248(15) 0.0117(3)
C126 C 0.7719(6) 0.72007(15) 0.0088(3)
H81 H 0.8587 0.7177 0.0205
C128 C 0.5283(6) 0.78325(16) 0.0265(3)
C129 C 0.4968(6) 0.78533(15) 0.0838(3)
C130 C 0.5144(6) 0.75798(16) 0.1248(3)
H82 H 0.5513 0.7379 0.1149
C131 C 0.4789(8) 0.76007(17) 0.1785(4)
H83 H 0.4853 0.741 0.2045
C132 C 0.4326(8) 0.79081(18) 0.1953(4)
H84 H 0.4118 0.7923 0.2337
C133 C 0.4170(7) 0.81794(16) 0.1584(3)
C134 C 0.4457(6) 0.81615(16) 0.1011(3)
C135 C 0.4178(6) 0.84194(15) 0.0556(3)
H85 H 0.3808 0.8621 0.065
C136 C 0.4418(6) 0.83885(16) 0.0004(3)
C144 C 0.3715(7) 0.85033(16) 0.1797(3)
C145 C 0.2694(7) 0.85104(16) 0.2041(3)
H91 H 0.2261 0.8309 0.2073
C146 C 0.2302(8) 0.88146(17) 0.2238(3)
H92 H 0.1604 0.8817 0.2407
C147 C 0.2914(7) 0.91120(16) 0.2192(3)
C148 C 0.3966(7) 0.90961(16) 0.1956(3)
H93 H 0.4411 0.9295 0.1925
C149 C 0.4350(7) 0.87994(17) 0.1771(3)
H94 H 0.5071 0.8795 0.1621
C150 C 0.2486(7) 0.94393(16) 0.2383(3)
C151 C 0.8749(8) 0.7623(2) 0.1473(4)
C152 C 0.9013(14) 0.7300(3) 0.1584(5)
H95 H 0.8807 0.7145 0.1254
C153 C 0.9585(19) 0.7179(3) 0.2172(6)
H96 H 0.9768 0.6947 0.2226
C154 C 0.987(2) 0.7381(4) 0.2651(6)
C155 C 0.9630(19) 0.7730(4) 0.2533(6)
H98 H 0.9842 0.7885 0.2863
C156 C 0.9095(12) 0.7849(3) 0.1951(5)
H99 H 0.8967 0.8083 0.1881
C157 C 0.9485(7) 0.78191(16) 0.0398(4)
Na5 Na 0.5065(2) 0.99631(6) 0.25547(12)
Na6 Na 0.0822(3) 0.93089(6) 0.34360(13)
Pb1 Pb 0.18604(2) 0.485703(5) 0.754420(11)
P3 P 0.13570(18) 0.20108(4) 0.49647(9)
P4 P 0.24429(17) 0.25938(4) 0.32488(9)
P6 P 0.53380(17) 0.80812(4) 0.90918(9)
O3 O 0.3860(4) 0.48433(13) 0.8187(2)
O4 O 0.2883(5) 0.44612(13) 0.8615(2)
O7 O 0.1607(5) 0.18822(12) 0.5609(2)
O8 O 0.1415(5) 0.26914(12) 0.3526(2)
O9 O 0.3104(5) 0.45447(12) 0.7009(3)
O10 O 0.1184(5) 0.44427(12) 0.6497(2)
O11 O 0.8831(5) 0.03776(14) 0.3320(3)
O12 O 0.6965(4) 0.02602(12) 0.2792(2)
O14 O 0.6396(5) 0.78643(13) 0.9057(2)
O15 O 0.6435(4) 0.53984(11) 0.7858(2)
O16 O 0.7548(5) 0.57852(11) 0.7541(3)
C22 C 0.6895(6) 0.4844(2) 0.9669(3)
H11 H 0.7587 0.4982 0.9671
C23 C 0.5939(6) 0.4830(2) 0.9156(3)
H12 H 0.5958 0.4964 0.8809
C24 C 0.4935(7) 0.46183(17) 0.9143(3)
C25 C 0.4939(7) 0.44163(18) 0.9651(3)
H13 H 0.4284 0.4264 0.9643
C27 C 0.3810(7) 0.46371(17) 0.8617(3)
C59 C 0.2199(6) 0.23938(15) 0.4930(3)
C60 C 0.3166(6) 0.24549(16) 0.4676(3)
C61 C 0.3870(6) 0.27688(15) 0.4822(3)
C62 C 0.4986(7) 0.28208(17) 0.4654(3)
H39 H 0.5301 0.2649 0.4442
C63 C 0.5616(7) 0.31110(17) 0.4789(4)
H40 H 0.6373 0.314 0.4677
C64 C 0.5159(7) 0.33706(18) 0.5093(4)
H41 H 0.5609 0.3574 0.5184
C65 C 0.4067(7) 0.33340(16) 0.5263(4)
C66 C 0.3408(6) 0.30220(16) 0.5156(3)
C67 C 0.2364(6) 0.29514(16) 0.5367(3)
H42 H 0.2042 0.3122 0.5579
C68 C 0.1795(7) 0.26522(17) 0.5281(3)
H43 H 0.1117 0.2611 0.5454
C69 C 0.3402(6) 0.22539(15) 0.3652(3)
C70 C 0.3633(6) 0.22109(15) 0.4275(3)
C71 C 0.4388(6) 0.19352(15) 0.4564(3)
C72 C 0.4675(7) 0.18870(17) 0.5204(3)
H44 H 0.4388 0.2044 0.5456
C73 C 0.5358(7) 0.16188(17) 0.5466(3)
H45 H 0.5536 0.1589 0.5898
C74 C 0.5800(7) 0.13870(17) 0.5107(4)
H46 H 0.626 0.1199 0.5299
C75 C 0.5589(6) 0.14230(16) 0.4490(3)
C76 C 0.4852(6) 0.17030(15) 0.4195(3)
C77 C 0.4638(6) 0.17667(15) 0.3559(3)
H47 H 0.4992 0.1624 0.331
C78 C 0.3927(6) 0.20313(15) 0.3299(3)
H48 H 0.3781 0.2067 0.287
C79 C 0.3629(7) 0.36176(17) 0.5595(3)
C80 C 0.2431(7) 0.37447(17) 0.5387(4)
H49 H 0.1904 0.3658 0.5023
C81 C 0.2018(6) 0.39941(16) 0.5707(3)
H50 H 0.1198 0.4073 0.5569
C82 C 0.2780(6) 0.41328(16) 0.6231(3)
C83 C 0.3986(7) 0.40195(18) 0.6414(4)
H51 H 0.4532 0.4123 0.6754
C84 C 0.4404(7) 0.37625(18) 0.6116(4)
H52 H 0.522 0.3682 0.6263
C85 C 0.2300(6) 0.43948(16) 0.6593(3)
C86 C 0.6121(7) 0.11805(15) 0.4124(3)
C87 C 0.7391(7) 0.11188(17) 0.4299(4)
H53 H 0.7893 0.1238 0.4634
C88 C 0.7915(7) 0.08839(17) 0.3985(3)
H54 H 0.8776 0.0845 0.4104
C89 C 0.7186(7) 0.07034(16) 0.3494(3)
C90 C 0.5927(6) 0.07749(15) 0.3318(3)
H55 H 0.5422 0.0659 0.298
C91 C 0.5410(6) 0.10096(15) 0.3624(3)
H56 H 0.4556 0.1056 0.3493
C92 C 0.7717(7) 0.04291(16) 0.3195(3)
H61 H 0.0022 0.2439 0.3995
C99 C 0.1634(6) 0.16842(16) 0.4458(3)
C100 C 0.1321(7) 0.17238(18) 0.3828(4)
H62 H 0.0965 0.1928 0.3653
C101 C 0.1524(7) 0.14663(17) 0.3452(4)
H63 H 0.1307 0.1493 0.3019
C102 C 0.2049(7) 0.11678(17) 0.3714(4)
H64 H 0.2198 0.0991 0.3458
C103 C 0.2354(7) 0.11273(17) 0.4337(4)
H65 H 0.2707 0.0923 0.4513
C104 C 0.2142(7) 0.13878(17) 0.4711(4)
H66 H 0.235 0.136 0.5143
C105 C 0.3489(7) 0.29408(16) 0.3231(3)
C106 C 0.4584(7) 0.28991(17) 0.3050(4)
H67 H 0.4783 0.2687 0.2907
C107 C 0.5388(8) 0.31696(19) 0.3078(4)
H68 H 0.6131 0.3143 0.2952
C108 C 0.5092(10) 0.3475(2) 0.3289(4)
H69 H 0.5645 0.3658 0.3321
C109 C 0.3972(10) 0.35162(19) 0.3459(5)
H70 H 0.3755 0.3729 0.3591
C110 C 0.3195(7) 0.32469(17) 0.3433(4)
H71 H 0.2448 0.3273 0.3555
C111 C 0.1872(6) 0.24346(16) 0.2482(3)
C112 C 0.2328(7) 0.25287(18) 0.1982(3)
H72 H 0.2951 0.2695 0.2028
C113 C 0.1867(8) 0.2379(2) 0.1423(4)
H73 H 0.2206 0.2437 0.1089
C114 C 0.0931(7) 0.2147(2) 0.1332(4)
H74 H 0.0612 0.2048 0.0941
C115 C 0.0472(7) 0.2065(2) 0.1833(4)
C116 C 0.0921(7) 0.2205(2) 0.2386(4)
H76 H 0.0577 0.2145 0.2718
C119 C 0.5152(7) 0.72619(17) 0.9775(3)
C120 C 0.3879(7) 0.72737(19) 0.9661(4)
H77 H 0.3499 0.7458 0.981
C121 C 0.3168(7) 0.7027(2) 0.9342(4)
H78 H 0.2301 0.7034 0.9283
C122 C 0.3728(8) 0.6758(2) 0.9096(4)
H79 H 0.3226 0.6589 0.8863
C123 C 0.4960(7) 0.67386(17) 0.9187(4)
C124 C 0.5732(6) 0.69803(16) 0.9570(3)
C125 C 0.7022(6) 0.69546(16) 0.9732(3)
H80 H 0.7414 0.6768 0.9597
C127 C 0.5010(6) 0.80940(16) 0.9847(3)
H86 H 0.4192 0.8564 0.9712
C137 C 0.5493(7) 0.64593(18) 0.8873(4)
C138 C 0.5227(7) 0.61264(18) 0.8961(4)
H87 H 0.4756 0.6067 0.9244
C139 C 0.5671(7) 0.58758(17) 0.8623(4)
H88 H 0.5498 0.5646 0.8679
C140 C 0.6340(6) 0.59617(15) 0.8218(3)
C141 C 0.6587(8) 0.63016(17) 0.8134(4)
H89 H 0.7035 0.6365 0.7844
C142 C 0.6184(7) 0.65370(17) 0.8467(4)
H90 H 0.6386 0.6765 0.8419
C143 C 0.6795(7) 0.56956(18) 0.7842(3)
C162 C 0.9276(8) 0.79210(19) 0.9793(4)
H104 H 0.8467 0.7971 0.9563
C163 C 0.5623(6) 0.85170(17) 0.8949(3)
C164 C 0.6603(7) 0.86659(18) 0.9350(4)
H105 H 0.708 0.854 0.9683
C165 C 0.6898(8) 0.8994(2) 0.9273(4)
H106 H 0.7595 0.909 0.9545
C166 C 0.6193(8) 0.9187(2) 0.8802(4)
H107 H 0.64 0.9415 0.8752
C167 C 0.5175(8) 0.9040(2) 0.8404(4)
H108 H 0.4664 0.9168 0.8086
C168 C 0.4918(7) 0.87047(18) 0.8478(4)
H109 H 0.4243 0.8602 0.8199
C169 C 0.3943(7) 0.79491(19) 0.8570(3)
C170 C 0.2826(7) 0.8105(2) 0.8507(4)
H110 H 0.2764 0.8294 0.8755
C171 C 0.1778(8) 0.7989(2) 0.8081(4)
H111 H 0.1015 0.8104 0.8022
C172 C 0.1888(10) 0.7703(3) 0.7750(5)
H112 H 0.118 0.7619 0.7467
C173 C 0.2923(11) 0.7543(3) 0.7813(4)
H113 H 0.2955 0.7346 0.7578
C174 C 0.3977(9) 0.7658(2) 0.8217(4)
H114 H 0.4729 0.754 0.8259
O19 O 0.1738(6) 0.53886(15) 0.8308(3)
N1 N 0.1644(7) 0.59185(18) 0.7875(4)
C175 C 0.0341(9) 0.5918(3) 0.7655(7)
H115 H 0.0069 0.6137 0.7471
H117 H 0.0097 0.5742 0.7345
C176 C 0.2302(12) 0.6196(2) 0.7713(6)
H118 H 0.1719 0.637 0.752
H119 H 0.2776 0.6121 0.7425
H120 H 0.2862 0.6286 0.8082
C177 C 0.2237(9) 0.56519(19) 0.8157(4)
H121 H 0.3109 0.5658 0.8255
N3 N 0.1836(7) 0.35689(17) 0.7266(4)
C181 C 0.2143(11) 0.3789(3) 0.7801(5)
H129 H 0.2957 0.3729 0.8054
H130 H 0.1529 0.3762 0.8041
H131 H 0.2149 0.4022 0.7666
C182 C 0.2788(9) 0.3331(3) 0.7209(6)
H132 H 0.349 0.3352 0.7565
H133 H 0.3055 0.3378 0.6834
H134 H 0.246 0.3102 0.719
C183 C 0.0798(9) 0.3589(2) 0.6854(5)
H135 H 0.0681 0.3443 0.651
O23 O 0.9368(5) 0.51810(15) 0.8443(3)
H143 H 0.9435 0.4974 0.8691
O26 O 0.1169(5) 0.53776(14) 0.6680(3)
O27 O 0.3035(4) 0.52602(12) 0.7208(2)
O28 O 0.6893(5) 0.46978(11) 0.7685(2)
O30 O 0.8419(6) 0.44478(11) 0.7392(3)
O31 O 0.8733(5) 0.48654(13) 0.6265(2)
Pb3 Pb 0.81396(2) 0.985703(5) 0.245580(11)
Na2 Na 0.9178(3) 0.43089(6) 0.65640(13)
C93 C 0.9770(6) 0.21307(17) 0.4659(4)
C94 C 0.8905(7) 0.19969(19) 0.4947(4)
H57 H 0.9149 0.1858 0.5299
C95 C 0.7666(8) 0.2075(2) 0.4698(5)
H58 H 0.7053 0.1987 0.488
C96 C 0.7333(7) 0.2279(2) 0.4192(4)
H59 H 0.6488 0.2325 0.402
C97 C 0.8196(7) 0.24163(19) 0.3934(4)
H60 H 0.7958 0.2562 0.3592
C98 C 0.9417(7) 0.23419(19) 0.4172(4)
H75 H 0.9826 0.1905 0.1784
H116 H 0.9961 0.5875 0.7996
O20 O 0.7491(7) 0.41413(16) 0.5791(3)
N2 N 0.5782(6) 0.43005(15) 0.5078(3)
C178 C 0.6241(8) 0.4183(2) 0.4589(4)
H122 H 0.5635 0.4224 0.4202
H123 H 0.6402 0.3941 0.4638
H124 H 0.7007 0.43 0.4587
C179 C 0.4563(9) 0.4436(3) 0.4960(6)
H125 H 0.4203 0.444 0.4517
H126 H 0.4596 0.4665 0.5123
H127 H 0.4057 0.4295 0.5159
C180 C 0.6461(9) 0.4273(2) 0.5647(5)
H128 H 0.6136 0.4361 0.5967
O21 O 0.9947(6) 0.37855(15) 0.6877(3)
N4 N 0.9091(6) 0.50542(15) 0.5378(3)
C184 C 0.9252(8) 0.47170(18) 0.5135(4)
H136 H 0.9414 0.4739 0.4728
H137 H 0.8503 0.4585 0.5104
H138 H 0.9946 0.4604 0.5411
C185 C 0.9283(8) 0.5336(2) 0.5009(4)
H139 H 0.9436 0.5255 0.4624
H140 H 0.9992 0.5467 0.5233
H141 H 0.855 0.5479 0.492
C186 C 0.8878(6) 0.50911(18) 0.5922(3)
H142 H 0.8833 0.5314 0.6062
H116_2 H 0.0039 0.0875 0.2004
N4_2 N 0.0909(6) 0.00542(15) 0.4622(3)
C185_2 C 0.0717(8) 0.0336(2) 0.4991(4)
H139_2 H 0.0564 0.0255 0.5376
H140_2 H 0.0008 0.0467 0.4767
H141_2 H 0.145 0.0479 0.508
C186_2 C 0.1122(6) 0.00911(18) 0.4078(3)
H142_2 H 0.1167 0.0314 0.3938
C93_2 C 0.0230(6) 0.71307(17) 0.5341(4)
C94_2 C 0.1095(7) 0.69969(19) 0.5053(4)
H57_2 H 0.0851 0.6858 0.4701
C95_2 C 0.2334(8) 0.7075(2) 0.5302(5)
H58_2 H 0.2947 0.6987 0.512
C96_2 C 0.2667(7) 0.7279(2) 0.5808(4)
H59_2 H 0.3512 0.7325 0.598
C97_2 C 0.1804(7) 0.74163(19) 0.6066(4)
H60_2 H 0.2042 0.7562 0.6408
C98_2 C 0.0583(7) 0.73419(19) 0.5828(4)
H75_2 H 0.0174 0.6905 0.8216
O20_2 O 0.2509(7) 0.91413(16) 0.4209(3)
N2_2 N 0.4218(6) 0.93005(15) 0.4922(3)
C178_2 C 0.3759(8) 0.9183(2) 0.5411(4)
H122_2 H 0.4365 0.9224 0.5798
H123_2 H 0.3598 0.8941 0.5362
H124_2 H 0.2993 0.93 0.5413
C179_2 C 0.5437(9) 0.9436(3) 0.5040(6)
H125_2 H 0.5797 0.944 0.5483
H126_2 H 0.5404 0.9665 0.4877
H127_2 H 0.5943 0.9295 0.4841
C180_2 C 0.3539(9) 0.9273(2) 0.4353(5)
H128_2 H 0.3864 0.9361 0.4033
O21_2 O 0.0053(6) 0.87855(15) 0.3123(3)
O22 O 0.1267(5) 0.98654(13) 0.3735(2)
C184_2 C 0.0748(8) 0.97170(18) 0.4865(4)
H136_2 H 0.0586 0.9739 0.5272
H137_2 H 0.1497 0.9585 0.4896
H138_2 H 0.0054 0.9604 0.4589
P6_2 P 0.46620(17) 0.30812(4) 0.09082(9)
O14_2 O 0.3604(5) 0.28643(13) 0.0943(2)
O15_2 O 0.3565(4) 0.03984(11) 0.2142(2)
O16_2 O 0.2452(5) 0.07852(11) 0.2459(3)
C119_2 C 0.4848(7) 0.22619(17) 0.0225(3)
C120_2 C 0.6121(7) 0.22737(19) 0.0339(4)
H77_2 H 0.6501 0.2458 0.019
C121_2 C 0.6832(7) 0.2027(2) 0.0658(4)
H78_2 H 0.7699 0.2034 0.0717
C122_2 C 0.6272(8) 0.1758(2) 0.0904(4)
H79_2 H 0.6774 0.1589 0.1137
C123_2 C 0.5040(7) 0.17386(17) 0.0813(4)
C124_2 C 0.4268(6) 0.19803(16) 0.0430(3)
C125_2 C 0.2978(6) 0.19546(16) 0.0268(3)
H80_2 H 0.2586 0.1768 0.0403
C127_2 C 0.4990(6) 0.30940(16) 0.0153(3)
H86_2 H 0.5808 0.3564 0.0288
C137_2 C 0.4507(7) 0.14593(18) 0.1127(4)
C138_2 C 0.4773(7) 0.11264(18) 0.1039(4)
H87_2 H 0.5244 0.1067 0.0756
C139_2 C 0.4329(7) 0.08758(17) 0.1377(4)
H88_2 H 0.4502 0.0646 0.1321
C140_2 C 0.3660(6) 0.09617(15) 0.1782(3)
C141_2 C 0.3413(8) 0.13016(17) 0.1866(4)
H89_2 H 0.2965 0.1365 0.2156
C142_2 C 0.3816(7) 0.15370(17) 0.1533(4)
H90_2 H 0.3614 0.1765 0.1581
C143_2 C 0.3205(7) 0.06956(18) 0.2158(3)
C162_2 C 0.0724(8) 0.29210(19) 0.0207(4)
H104_2 H 0.1533 0.2971 0.0437
C163_2 C 0.4377(6) 0.35170(17) 0.1051(3)
C164_2 C 0.3397(7) 0.36659(18) 0.0650(4)
H105_2 H 0.292 0.354 0.0317
C165_2 C 0.3102(8) 0.3994(2) 0.0727(4)
H106_2 H 0.2405 0.409 0.0455
C166_2 C 0.3807(8) 0.4187(2) 0.1198(4)
H107_2 H 0.36 0.4415 0.1248
C167_2 C 0.4825(8) 0.4040(2) 0.1596(4)
H108_2 H 0.5336 0.4168 0.1914
C168_2 C 0.5082(7) 0.37047(18) 0.1522(4)
H109_2 H 0.5757 0.3602 0.1801
C169_2 C 0.6057(7) 0.29491(19) 0.1430(3)
C170_2 C 0.7174(7) 0.3105(2) 0.1493(4)
H110_2 H 0.7236 0.3294 0.1245
C171_2 C 0.8222(8) 0.2989(2) 0.1919(4)
H111_2 H 0.8985 0.3104 0.1978
C172_2 C 0.8112(10) 0.2703(3) 0.2250(5)
H112_2 H 0.882 0.2619 0.2533
C173_2 C 0.7077(11) 0.2543(3) 0.2187(4)
H113_2 H 0.7045 0.2346 0.2422
C174_2 C 0.6023(9) 0.2658(2) 0.1783(4)
H114_2 H 0.5271 0.254 0.1741
O19_2 O 0.8262(6) 0.03886(15) 0.1692(3)
N1_2 N 0.8356(7) 0.09185(18) 0.2125(4)
C175_2 C 0.9659(9) 0.0918(3) 0.2345(7)
H115_2 H 0.9931 0.1137 0.2529
H117_2 H 0.9903 0.0742 0.2655
C176_2 C 0.7698(12) 0.1196(2) 0.2287(6)
H118_2 H 0.8281 0.137 0.248
H119_2 H 0.7224 0.1121 0.2575
H120_2 H 0.7138 0.1286 0.1918
C177_2 C 0.7763(9) 0.06519(19) 0.1843(4)
H121_2 H 0.6891 0.0658 0.1745
O23_2 O 0.0632(5) 0.01810(15) 0.1557(3)
O24 O 0.3277(4) 0.04310(12) 0.3839(2)
O25 O 0.4204(4) 0.00561(11) 0.3383(2)
P5_2 P 0.18237(17) 0.28015(5) 0.92717(9)
O13_2 O 0.2388(5) 0.31360(12) 0.9253(3)
C13_2 C 0.0033(7) 0.00356(18) 0.6698(3)
C14_2 C 0.0316(9) 0.0363(2) 0.6937(5)
H6_2 H 0.1005 0.0394 0.7274
H22_2 H 0.7773 0.0034 0.7155
C40_2 C 0.5909(8) 0.0016(2) 0.6992(4)
H23_2 H 0.579 0.0252 0.6946
C41_2 C 0.3438(7) 0.03994(19) 0.6700(4)
C42_2 C 0.3492(12) 0.0625(2) 0.7167(5)
H24_2 H 0.3463 0.0547 0.7562
C43_2 C 0.3590(16) 0.0967(2) 0.7062(6)
H25_2 H 0.3586 0.1123 0.738
C44_2 C 0.3692(13) 0.1077(2) 0.6504(6)
H26_2 H 0.3772 0.1311 0.6439
C45_2 C 0.3681(10) 0.0860(2) 0.6039(5)
H27_2 H 0.3765 0.0939 0.5653
C46_2 C 0.3541(7) 0.0518(2) 0.6142(4)
H28_2 H 0.3517 0.0364 0.5817
C117_2 C 0.2830(6) 0.24909(15) 0.9715(3)
C118_2 C 0.4083(6) 0.25248(15) 0.9883(3)
C126_2 C 0.2281(6) 0.22007(15) 0.9912(3)
H81_2 H 0.1413 0.2177 0.9795
C128_2 C 0.4717(6) 0.28325(16) 0.9735(3)
C129_2 C 0.5032(6) 0.28533(15) 0.9162(3)
C130_2 C 0.4856(6) 0.25798(16) 0.8752(3)
H82_2 H 0.4487 0.2379 0.8851
C131_2 C 0.5211(8) 0.26007(17) 0.8215(4)
H83_2 H 0.5147 0.241 0.7955
C132_2 C 0.5674(8) 0.29081(18) 0.8047(4)
H84_2 H 0.5882 0.2923 0.7663
C133_2 C 0.5830(7) 0.31794(16) 0.8416(3)
C134_2 C 0.5543(6) 0.31615(16) 0.8989(3)
C135_2 C 0.5822(6) 0.34194(15) 0.9444(3)
H85_2 H 0.6192 0.3621 0.935
C136_2 C 0.5582(6) 0.33885(16) 0.9996(3)
C144_2 C 0.6285(7) 0.35033(16) 0.8203(3)
C145_2 C 0.7306(7) 0.35104(16) 0.7959(3)
H91_2 H 0.7739 0.3309 0.7927
C146_2 C 0.7698(8) 0.38146(17) 0.7762(3)
H92_2 H 0.8396 0.3817 0.7593
C147_2 C 0.7086(7) 0.41120(16) 0.7808(3)
C148_2 C 0.6034(7) 0.40961(16) 0.8044(3)
H93_2 H 0.5589 0.4295 0.8075
C149_2 C 0.5650(7) 0.37994(17) 0.8229(3)
H94_2 H 0.4929 0.3795 0.8379
C150_2 C 0.7514(7) 0.44393(16) 0.7617(3)
C151_2 C 0.1251(8) 0.2623(2) 0.8527(4)
C152_2 C 0.0987(14) 0.2300(3) 0.8416(5)
H95_2 H 0.1193 0.2145 0.8746
C153_2 C 0.0415(19) 0.2179(3) 0.7828(6)
H96_2 H 0.0232 0.1947 0.7774
C154_2 C 0.013(2) 0.2381(4) 0.7349(6)
C155_2 C 0.0370(19) 0.2730(4) 0.7467(6)
H98_2 H 0.0158 0.2885 0.7137
C156_2 C 0.0905(12) 0.2849(3) 0.8049(5)
H99_2 H 0.1033 0.3083 0.8119
C157_2 C 0.0515(7) 0.28191(16) 0.9602(4)
P3_2 P 0.86430(18) 0.70108(4) 0.50353(9)
P4_2 P 0.75571(17) 0.75938(4) 0.67512(9)
O3_2 O 0.6140(4) 0.98433(13) 0.1813(2)
O4_2 O 0.7117(5) 0.94612(13) 0.1385(2)
O7_2 O 0.8393(5) 0.68822(12) 0.4391(2)
O8_2 O 0.8585(5) 0.76914(12) 0.6474(2)
O9_2 O 0.6896(5) 0.95447(12) 0.2991(3)
O10_2 O 0.8816(5) 0.94427(12) 0.3503(2)
C22_2 C 0.3105(6) 0.9844(2) 0.0331(3)
H11_2 H 0.2413 0.9982 0.0329
C23_2 C 0.4061(6) 0.9830(2) 0.0844(3)
H12_2 H 0.4042 0.9964 0.1191
C24_2 C 0.5065(7) 0.96183(17) 0.0857(3)
C25_2 C 0.5061(7) 0.94163(18) 0.0349(3)
H13_2 H 0.5716 0.9264 0.0357
C27_2 C 0.6190(7) 0.96371(17) 0.1383(3)
C59_2 C 0.7801(6) 0.73938(15) 0.5070(3)
C60_2 C 0.6834(6) 0.74549(16) 0.5324(3)
C61_2 C 0.6130(6) 0.77688(15) 0.5178(3)
C62_2 C 0.5014(7) 0.78208(17) 0.5346(3)
H39_2 H 0.4699 0.7649 0.5558
C63_2 C 0.4384(7) 0.81110(17) 0.5211(4)
H40_2 H 0.3627 0.814 0.5323
C64_2 C 0.4841(7) 0.83706(18) 0.4907(4)
H41_2 H 0.4391 0.8574 0.4816
C65_2 C 0.5933(7) 0.83340(16) 0.4737(4)
C66_2 C 0.6592(6) 0.80220(16) 0.4844(3)
C67_2 C 0.7636(6) 0.79514(16) 0.4633(3)
H42_2 H 0.7958 0.8122 0.4421
C68_2 C 0.8205(7) 0.76522(17) 0.4719(3)
H43_2 H 0.8883 0.7611 0.4546
C69_2 C 0.6598(6) 0.72539(15) 0.6348(3)
C70_2 C 0.6367(6) 0.72109(15) 0.5725(3)
C71_2 C 0.5612(6) 0.69352(15) 0.5436(3)
C72_2 C 0.5325(7) 0.68870(17) 0.4796(3)
H44_2 H 0.5612 0.7044 0.4544
C73_2 C 0.4642(7) 0.66188(17) 0.4534(3)
H45_2 H 0.4464 0.6589 0.4102
C74_2 C 0.4200(7) 0.63870(17) 0.4893(4)
H46_2 H 0.374 0.6199 0.4701
C75_2 C 0.4411(6) 0.64230(16) 0.5510(3)
C76_2 C 0.5148(6) 0.67030(15) 0.5805(3)
C77_2 C 0.5362(6) 0.67667(15) 0.6441(3)
H47_2 H 0.5008 0.6624 0.669
C78_2 C 0.6073(6) 0.70313(15) 0.6701(3)
H48_2 H 0.6219 0.7067 0.713
C79_2 C 0.6371(7) 0.86176(17) 0.4405(3)
C80_2 C 0.7569(7) 0.87447(17) 0.4613(4)
H49_2 H 0.8096 0.8658 0.4977
C81_2 C 0.7982(6) 0.89941(16) 0.4293(3)
H50_2 H 0.8802 0.9073 0.4431
C82_2 C 0.7220(6) 0.91328(16) 0.3769(3)
C83_2 C 0.6014(7) 0.90195(18) 0.3586(4)
H51_2 H 0.5468 0.9123 0.3246
C84_2 C 0.5596(7) 0.87625(18) 0.3884(4)
H52_2 H 0.478 0.8682 0.3737
C85_2 C 0.7700(6) 0.93948(16) 0.3407(3)
C86_2 C 0.3879(7) 0.61805(15) 0.5876(3)
C87_2 C 0.2609(7) 0.61188(17) 0.5701(4)
H53_2 H 0.2107 0.6238 0.5366
C88_2 C 0.2085(7) 0.58839(17) 0.6015(3)
H54_2 H 0.1224 0.5845 0.5896
C89_2 C 0.2814(7) 0.57034(16) 0.6506(3)
C90_2 C 0.4073(6) 0.57749(15) 0.6682(3)
H55_2 H 0.4578 0.5659 0.702
C91_2 C 0.4590(6) 0.60096(15) 0.6376(3)
H56_2 H 0.5444 0.6056 0.6507
C92_2 C 0.2283(7) 0.54291(16) 0.6805(3)
H61_2 H 0.9978 0.7439 0.6005
C99_2 C 0.8366(6) 0.66842(16) 0.5542(3)
C100_2 C 0.8679(7) 0.67238(18) 0.6172(4)
H62_2 H 0.9035 0.6928 0.6347
C101_2 C 0.8476(7) 0.64663(17) 0.6548(4)
H63_2 H 0.8693 0.6493 0.6981
C102_2 C 0.7951(7) 0.61678(17) 0.6286(4)
H64_2 H 0.7802 0.5991 0.6542
C103_2 C 0.7646(7) 0.61273(17) 0.5663(4)
H65_2 H 0.7293 0.5923 0.5487
C104_2 C 0.7858(7) 0.63878(17) 0.5289(4)
H66_2 H 0.765 0.636 0.4857
C105_2 C 0.6511(7) 0.79408(16) 0.6769(3)
C106_2 C 0.5416(7) 0.78991(17) 0.6950(4)
H67_2 H 0.5217 0.7687 0.7093
C107_2 C 0.4612(8) 0.81696(19) 0.6922(4)
H68_2 H 0.3869 0.8143 0.7048
C108_2 C 0.4908(10) 0.8475(2) 0.6711(4)
H69_2 H 0.4355 0.8658 0.6679
C109_2 C 0.6028(10) 0.85162(19) 0.6541(5)
H70_2 H 0.6245 0.8729 0.6409
C110_2 C 0.6805(7) 0.82469(17) 0.6567(4)
H71_2 H 0.7552 0.8273 0.6445
C111_2 C 0.8128(6) 0.74346(16) 0.7518(3)
C112_2 C 0.7672(7) 0.75287(18) 0.8018(3)
H72_2 H 0.7049 0.7695 0.7972
C113_2 C 0.8133(8) 0.7379(2) 0.8577(4)
H73_2 H 0.7794 0.7437 0.8911
C114_2 C 0.9069(7) 0.7147(2) 0.8668(4)
H74_2 H 0.9388 0.7048 0.9059
C115_2 C 0.9528(7) 0.7065(2) 0.8167(4)
C116_2 C 0.9079(7) 0.7205(2) 0.7614(4)
H76_2 H 0.9423 0.7145 0.7282
N3_2 N 0.8164(7) 0.85689(17) 0.2734(4)
C181_2 C 0.7857(11) 0.8789(3) 0.2199(5)
H129_2 H 0.7043 0.8729 0.1946
H130_2 H 0.8471 0.8762 0.1959
H131_2 H 0.7851 0.9022 0.2334
C182_2 C 0.7212(9) 0.8331(3) 0.2791(6)
H132_2 H 0.651 0.8352 0.2435
H133_2 H 0.6945 0.8378 0.3166
H134_2 H 0.754 0.8102 0.281
C183_2 C 0.9202(9) 0.8589(2) 0.3146(5)
H135_2 H 0.9319 0.8443 0.349
H143_2 H 0.0565 0.9974 0.1309
C15_2 C 0.9643(11) 0.0626(2) 0.6701(6)
H7_2 H 0.9822 0.0841 0.6882
C16_2 C 0.8653(9) 0.0584(2) 0.6175(5)
H8_2 H 0.8193 0.0775 0.6001
C17_2 C 0.8346(8) 0.02802(19) 0.5916(4)
C28_2 C 0.7296(7) 0.02578(17) 0.5377(3)
C29_2 C 0.6170(7) 0.04082(19) 0.5406(4)
H15_2 H 0.6097 0.0512 0.5775
C30_2 C 0.5183(7) 0.04058(19) 0.4907(3)
H16_2 H 0.4441 0.0513 0.4932
C31_2 C 0.5253(6) 0.02465(16) 0.4359(3)
C32_2 C 0.6360(6) 0.00981(17) 0.4330(3)
C33_2 C 0.7360(7) 0.01040(18) 0.4828(3)
H18_2 H 0.8107 0.0001 0.4797
C34_2 C 0.4163(6) 0.02446(16) 0.3828(3)
H97_2 H 0.9777 0.2299 0.6947
C158_2 C 0.9346(8) 0.2754(2) 0.9268(5)
H100_2 H 0.9205 0.269 0.885
C159_2 C 0.8331(8) 0.2783(2) 0.9551(6)
H101_2 H 0.7519 0.2732 0.9326
H1_2 H 0.9583 0.9727 0.7818
C5_2 C 0.9985(7) 0.9685(2) 0.8729(4)
H2_2 H 0.9153 0.9672 0.8754
C18_2 C 0.9019(7) 0.99934(17) 0.6175(3)
C19_2 C 0.8731(7) 0.96619(18) 0.5964(3)
H9_2 H 0.8056 0.9627 0.5621
C20_2 C 0.9375(6) 0.93935(17) 0.6230(3)
H10_2 H 0.9134 0.9175 0.6076
H17_2 H 0.6428 0.9991 0.3962
H32_2 H 0.9841 0.8028 0.5974
C56_2 C 0.9549(10) 0.8719(2) 0.8603(5)
H36_2 H 0.9207 0.8651 0.893
C57_2 C 0.8805(8) 0.8731(2) 0.8013(4)
H37_2 H 0.7961 0.8672 0.7939
C58_2 C 0.9298(7) 0.88293(19) 0.7530(4)
H38_2 H 0.8795 0.8839 0.7124
C160 C 0.1445(9) 0.7887(2) 0.9850(6)
H102 H 0.2112 0.7915 0.9663
C161 C 0.0282(9) 0.7950(2) 0.9522(5)
H103 H 0.0142 0.8015 0.9104
H144 H 0.02 0.5245 0.8407
P1_2 P 0.33344(18) 0.99529(5) 0.67849(9)
P2_2 P 0.12741(16) 0.90591(4) 0.70635(8)
O1_2 O 0.2512(5) 0.97938(14) 0.6239(2)
O2_2 O 0.2618(4) 0.91111(11) 0.7314(2)
C1_2 C 0.2926(6) 0.98819(18) 0.7509(3)
C2_2 C 0.1747(6) 0.97997(16) 0.7535(3)
C3_2 C 0.1483(6) 0.97593(17) 0.8131(3)
C4_2 C 0.0235(7) 0.97235(19) 0.8178(4)
C6_2 C 0.0911(7) 0.9662(2) 0.9259(4)
H3_2 H 0.071 0.9627 0.964
C7_2 C 0.2122(7) 0.9691(2) 0.9240(3)
C8_2 C 0.2421(6) 0.97606(16) 0.8656(3)
C9_2 C 0.3622(6) 0.98416(19) 0.8618(3)
H4_2 H 0.4269 0.985 0.898
C10_2 C 0.3862(6) 0.99083(17) 0.8060(3)
H5_2 H 0.4667 0.9973 0.8042
C11_2 C 0.0418(6) 0.94316(17) 0.6740(3)
C12_2 C 0.0715(6) 0.97470(16) 0.6974(3)
C21_2 C 0.3144(7) 0.96549(17) 0.9807(3)
C26_2 C 0.4103(7) 0.94397(17) 0.9838(3)
H14_2 H 0.4107 0.9301 0.9494
C35_2 C 0.4898(6) 0.98088(18) 0.6934(3)
C36_2 C 0.5082(7) 0.94638(19) 0.7024(4)
H19_2 H 0.4399 0.9319 0.7
C37_2 C 0.6257(7) 0.9333(2) 0.7150(4)
H20_2 H 0.639 0.9099 0.7213
C38_2 C 0.7244(7) 0.9550(2) 0.7181(4)
H21_2 H 0.805 0.946 0.7251
C39_2 C 0.7086(7) 0.9889(2) 0.7116(4)
C47_2 C 0.0931(6) 0.87648(15) 0.6442(3)
C48_2 C 0.1280(7) 0.88565(19) 0.5910(3)
H29_2 H 0.1649 0.907 0.5891
C49_2 C 0.1102(7) 0.86454(19) 0.5417(4)
H30_2 H 0.1343 0.8715 0.506
C50_2 C 0.0566(7) 0.8328(2) 0.5432(4)
H31_2 H 0.0451 0.8179 0.5092
C51_2 C 0.0217(8) 0.82397(19) 0.5955(4)
C52_2 C 0.0398(7) 0.84533(18) 0.6458(4)
H33_2 H 0.0155 0.8385 0.6815
C53_2 C 0.0542(7) 0.89132(17) 0.7650(3)
C54_2 C 0.1272(8) 0.8902(2) 0.8240(4)
H34_2 H 0.2118 0.896 0.8321
C55_2 C 0.0746(11) 0.8803(2) 0.8723(4)
H35_2 H 0.1236 0.8796 0.9132
C160_2 C 0.8555(9) 0.2887(2) 0.0150(6)
H102_2 H 0.7888 0.2915 0.0337
C161_2 C 0.9718(9) 0.2950(2) 0.0478(5)
H103_2 H 0.9858 0.3015 0.0896
H144_2 H 0.98 0.0245 0.1593
loop_
_geom_bond_atom_site_label_1
_geom_bond_atom_site_label_2
_geom_bond_site_symmetry_1
_geom_bond_site_symmetry_2
O5 C34 1_555 1_555
O6 C34 1_555 1_555
H2 C5 1_555 1_555
H7 C15 1_555 1_555
C16 C15 1_555 1_555
H8 C16 1_555 1_555
C17 C16 1_555 1_555
C19 C18 1_555 1_555
H9 C19 1_555 1_555
H10 C20 1_555 1_555
C28 C17 1_555 1_555
C29 C28 1_555 1_555
H15 C29 1_555 1_555
C30 C29 1_555 1_555
H16 C30 1_555 1_555
C31 C30 1_555 1_555
C32 C31 1_555 1_555
H17 C32 1_555 1_555
C33 C28 1_555 1_555
H18 C33 1_555 1_555
C34 C31 1_555 1_555
H36 C56 1_555 1_555
C57 C56 1_555 1_555
H37 C57 1_555 1_555
H38 C58 1_555 1_555
H100 C158 1_555 1_555
C159 C158 1_555 1_555
H101 C159 1_555 1_555
Pb5 O5 1_555 1_555
Na3 O6 1_555 1_555
O6 Pb5 1_555 1_555
C17 C18 1_555 1_555
C19 C20 1_555 1_555
C32 C33 1_555 1_555
C57 C58 1_555 1_555
P1 O1 1_555 1_555
P2 O2 1_555 1_555
P5 O13 1_555 1_555
O17 C150 1_555 1_555
O18 C150 1_555 1_555
C1 P1 1_555 1_555
C2 C1 1_555 1_555
C3 C2 1_555 1_555
C4 C3 1_555 1_555
H3 C6 1_555 1_555
C7 C6 1_555 1_555
C8 C3 1_555 1_555
C9 C8 1_555 1_555
H4 C9 1_555 1_555
C10 C1 1_555 1_555
H5 C10 1_555 1_555
C11 P2 1_555 1_555
C12 C2 1_555 1_555
C13 C12 1_555 1_555
C14 C13 1_555 1_555
H6 C14 1_555 1_555
C21 C7 1_555 1_555
C26 C21 1_555 1_555
H14 C26 1_555 1_555
C35 P1 1_555 1_555
C36 C35 1_555 1_555
H19 C36 1_555 1_555
C37 C36 1_555 1_555
H20 C37 1_555 1_555
C38 C37 1_555 1_555
H21 C38 1_555 1_555
C39 C38 1_555 1_555
H22 C39 1_555 1_555
C40 C35 1_555 1_555
H23 C40 1_555 1_555
C41 P1 1_555 1_555
C42 C41 1_555 1_555
H24 C42 1_555 1_555
C43 C42 1_555 1_555
H25 C43 1_555 1_555
C44 C43 1_555 1_555
H26 C44 1_555 1_555
C45 C44 1_555 1_555
H27 C45 1_555 1_555
C46 C41 1_555 1_555
H28 C46 1_555 1_555
C47 P2 1_555 1_555
C48 C47 1_555 1_555
H29 C48 1_555 1_555
C49 C48 1_555 1_555
H30 C49 1_555 1_555
C50 C49 1_555 1_555
H31 C50 1_555 1_555
C51 C50 1_555 1_555
C52 C47 1_555 1_555
H33 C52 1_555 1_555
C53 P2 1_555 1_555
C54 C53 1_555 1_555
H34 C54 1_555 1_555
C55 C54 1_555 1_555
H35 C55 1_555 1_555
C117 P5 1_555 1_555
C118 C117 1_555 1_555
C126 C117 1_555 1_555
H81 C126 1_555 1_555
C128 C118 1_555 1_555
C129 C128 1_555 1_555
C130 C129 1_555 1_555
H82 C130 1_555 1_555
C131 C130 1_555 1_555
H83 C131 1_555 1_555
C132 C131 1_555 1_555
H84 C132 1_555 1_555
C133 C132 1_555 1_555
C134 C129 1_555 1_555
C135 C134 1_555 1_555
H85 C135 1_555 1_555
C144 C133 1_555 1_555
C145 C144 1_555 1_555
H91 C145 1_555 1_555
C146 C145 1_555 1_555
H92 C146 1_555 1_555
C147 C146 1_555 1_555
C148 C147 1_555 1_555
H93 C148 1_555 1_555
C149 C144 1_555 1_555
H94 C149 1_555 1_555
C150 C147 1_555 1_555
C151 P5 1_555 1_555
C152 C151 1_555 1_555
H95 C152 1_555 1_555
C153 C152 1_555 1_555
H96 C153 1_555 1_555
C154 C153 1_555 1_555
C155 C154 1_555 1_555
H98 C155 1_555 1_555
C156 C151 1_555 1_555
H99 C156 1_555 1_555
C157 P5 1_555 1_555
Na5 O17 1_555 1_555
Na6 O18 1_555 1_555
C7 C8 1_555 1_555
C9 C10 1_555 1_555
C11 C12 1_555 1_555
C39 C40 1_555 1_555
C45 C46 1_555 1_555
C51 C52 1_555 1_555
C133 C134 1_555 1_555
C135 C136 1_555 1_555
C148 C149 1_555 1_555
C155 C156 1_555 1_555
Pb1 O3 1_555 1_555
Pb5 O15 1_555 1_555
P3 O7 1_555 1_555
P4 O8 1_555 1_555
P6 O14 1_555 1_555
Na3 O3 1_555 1_555
O3 C27 1_555 1_555
O4 Pb1 1_555 1_555
O9 Pb1 1_555 1_555
O10 Pb1 1_555 1_555
O11 C92 1_555 1_555
O12 C92 1_555 1_555
O15 Na3 1_555 1_555
O16 Pb5 1_555 1_555
H11 C22 1_555 1_555
C23 C22 1_555 1_555
H12 C23 1_555 1_555
C24 C23 1_555 1_555
C25 C24 1_555 1_555
H13 C25 1_555 1_555
C27 O4 1_555 1_555
C59 P3 1_555 1_555
C60 C59 1_555 1_555
C61 C60 1_555 1_555
C62 C61 1_555 1_555
H39 C62 1_555 1_555
C63 C62 1_555 1_555
H40 C63 1_555 1_555
C64 C63 1_555 1_555
H41 C64 1_555 1_555
C65 C64 1_555 1_555
C66 C61 1_555 1_555
C67 C66 1_555 1_555
H42 C67 1_555 1_555
C68 C59 1_555 1_555
H43 C68 1_555 1_555
C69 P4 1_555 1_555
C70 C60 1_555 1_555
C71 C70 1_555 1_555
C72 C71 1_555 1_555
H44 C72 1_555 1_555
C73 C72 1_555 1_555
H45 C73 1_555 1_555
C74 C73 1_555 1_555
H46 C74 1_555 1_555
C75 C74 1_555 1_555
C76 C71 1_555 1_555
C77 C76 1_555 1_555
H47 C77 1_555 1_555
C78 C69 1_555 1_555
H48 C78 1_555 1_555
C79 C65 1_555 1_555
C80 C79 1_555 1_555
H49 C80 1_555 1_555
C81 C80 1_555 1_555
H50 C81 1_555 1_555
C82 C81 1_555 1_555
C83 C82 1_555 1_555
H51 C83 1_555 1_555
C84 C79 1_555 1_555
H52 C84 1_555 1_555
C85 O9 1_555 1_555
C86 C75 1_555 1_555
C87 C86 1_555 1_555
H53 C87 1_555 1_555
C88 C87 1_555 1_555
H54 C88 1_555 1_555
C89 C88 1_555 1_555
C90 C89 1_555 1_555
H55 C90 1_555 1_555
C91 C86 1_555 1_555
H56 C91 1_555 1_555
C92 C89 1_555 1_555
C99 P3 1_555 1_555
C100 C99 1_555 1_555
H62 C100 1_555 1_555
C101 C100 1_555 1_555
H63 C101 1_555 1_555
C102 C101 1_555 1_555
H64 C102 1_555 1_555
C103 C102 1_555 1_555
H65 C103 1_555 1_555
C104 C99 1_555 1_555
H66 C104 1_555 1_555
C105 P4 1_555 1_555
C106 C105 1_555 1_555
H67 C106 1_555 1_555
C107 C106 1_555 1_555
H68 C107 1_555 1_555
C108 C107 1_555 1_555
H69 C108 1_555 1_555
C109 C108 1_555 1_555
H70 C109 1_555 1_555
C110 C105 1_555 1_555
H71 C110 1_555 1_555
C111 P4 1_555 1_555
C112 C111 1_555 1_555
H72 C112 1_555 1_555
C113 C112 1_555 1_555
H73 C113 1_555 1_555
C114 C113 1_555 1_555
H74 C114 1_555 1_555
C115 C114 1_555 1_555
C116 C111 1_555 1_555
H76 C116 1_555 1_555
C120 C119 1_555 1_555
H77 C120 1_555 1_555
C121 C120 1_555 1_555
H78 C121 1_555 1_555
C122 C121 1_555 1_555
H79 C122 1_555 1_555
C123 C122 1_555 1_555
C124 C119 1_555 1_555
C125 C124 1_555 1_555
H80 C125 1_555 1_555
C127 P6 1_555 1_555
C137 C123 1_555 1_555
C138 C137 1_555 1_555
H87 C138 1_555 1_555
C139 C138 1_555 1_555
H88 C139 1_555 1_555
C140 C139 1_555 1_555
C141 C140 1_555 1_555
H89 C141 1_555 1_555
C142 C137 1_555 1_555
H90 C142 1_555 1_555
C143 O15 1_555 1_555
H104 C162 1_555 1_555
C163 P6 1_555 1_555
C164 C163 1_555 1_555
H105 C164 1_555 1_555
C165 C164 1_555 1_555
H106 C165 1_555 1_555
C166 C165 1_555 1_555
H107 C166 1_555 1_555
C167 C166 1_555 1_555
H108 C167 1_555 1_555
C168 C163 1_555 1_555
H109 C168 1_555 1_555
C169 P6 1_555 1_555
C170 C169 1_555 1_555
H110 C170 1_555 1_555
C171 C170 1_555 1_555
H111 C171 1_555 1_555
C172 C171 1_555 1_555
H112 C172 1_555 1_555
C173 C172 1_555 1_555
H113 C173 1_555 1_555
C174 C169 1_555 1_555
H114 C174 1_555 1_555
O19 Pb1 1_555 1_555
N1 C175 1_555 1_555
C175 H115 1_555 1_555
H117 C175 1_555 1_555
C176 N1 1_555 1_555
H118 C176 1_555 1_555
H119 C176 1_555 1_555
H120 C176 1_555 1_555
C177 O19 1_555 1_555
H121 C177 1_555 1_555
N3 C181 1_555 1_555
C181 H129 1_555 1_555
H130 C181 1_555 1_555
H131 C181 1_555 1_555
C182 N3 1_555 1_555
H132 C182 1_555 1_555
H133 C182 1_555 1_555
H134 C182 1_555 1_555
H135 C183 1_555 1_555
O23 Pb5 1_555 1_555
H143 O23 1_555 1_555
O26 Pb1 1_555 1_555
O27 Pb1 1_555 1_555
O28 Pb5 1_555 1_555
O30 Pb5 1_555 1_555
O31 Pb5 1_555 1_555
Na3 O9 1_555 1_555
Na3 O27 1_555 1_555
Na3 O28 1_555 1_555
O10 C85 1_555 1_555
O16 C143 1_555 1_555
C24 C27 1_555 1_555
C65 C66 1_555 1_555
C67 C68 1_555 1_555
C69 C70 1_555 1_555
C75 C76 1_555 1_555
C77 C78 1_555 1_555
C82 C85 1_555 1_555
C83 C84 1_555 1_555
C90 C91 1_555 1_555
C103 C104 1_555 1_555
C109 C110 1_555 1_555
C115 C116 1_555 1_555
C123 C124 1_555 1_555
C140 C143 1_555 1_555
C141 C142 1_555 1_555
C167 C168 1_555 1_555
C173 C174 1_555 1_555
N1 C177 1_555 1_555
N3 C183 1_555 1_555
C94 C93 1_555 1_555
H57 C94 1_555 1_555
C95 C94 1_555 1_555
H58 C95 1_555 1_555
C96 C95 1_555 1_555
H59 C96 1_555 1_555
C97 C96 1_555 1_555
H60 C97 1_555 1_555
C98 C93 1_555 1_555
O20 Na2 1_555 1_555
N2 C178 1_555 1_555
C178 H122 1_555 1_555
H123 C178 1_555 1_555
H124 C178 1_555 1_555
C179 N2 1_555 1_555
H125 C179 1_555 1_555
H126 C179 1_555 1_555
H127 C179 1_555 1_555
C180 O20 1_555 1_555
H128 C180 1_555 1_555
O21 Na2 1_555 1_555
O31 Na2 1_555 1_555
N4 C184 1_555 1_555
C184 H136 1_555 1_555
H137 C184 1_555 1_555
H138 C184 1_555 1_555
C185 N4 1_555 1_555
H139 C185 1_555 1_555
H140 C185 1_555 1_555
H141 C185 1_555 1_555
C186 O31 1_555 1_555
H142 C186 1_555 1_555
O30 Na2 1_555 1_555
C97 C98 1_555 1_555
N2 C180 1_555 1_555
N4 C186 1_555 1_555
C185_2 N4_2 1_555 1_555
H139_2 C185_2 1_555 1_555
H140_2 C185_2 1_555 1_555
H141_2 C185_2 1_555 1_555
H142_2 C186_2 1_555 1_555
N4_2 C186_2 1_555 1_555
C94_2 C93_2 1_555 1_555
H57_2 C94_2 1_555 1_555
C95_2 C94_2 1_555 1_555
H58_2 C95_2 1_555 1_555
C96_2 C95_2 1_555 1_555
H59_2 C96_2 1_555 1_555
C97_2 C96_2 1_555 1_555
H60_2 C97_2 1_555 1_555
C98_2 C93_2 1_555 1_555
O20_2 Na6 1_555 1_555
N2_2 C178_2 1_555 1_555
C178_2 H122_2 1_555 1_555
H123_2 C178_2 1_555 1_555
H124_2 C178_2 1_555 1_555
C179_2 N2_2 1_555 1_555
H125_2 C179_2 1_555 1_555
H126_2 C179_2 1_555 1_555
H127_2 C179_2 1_555 1_555
C180_2 O20_2 1_555 1_555
H128_2 C180_2 1_555 1_555
O21_2 Na6 1_555 1_555
O22 Na6 1_555 1_555
C184_2 H136_2 1_555 1_555
H137_2 C184_2 1_555 1_555
H138_2 C184_2 1_555 1_555
C97_2 C98_2 1_555 1_555
N2_2 C180_2 1_555 1_555
Pb6 O15_2 1_555 1_555
P6_2 O14_2 1_555 1_555
O16_2 Pb6 1_555 1_555
C120_2 C119_2 1_555 1_555
H77_2 C120_2 1_555 1_555
C121_2 C120_2 1_555 1_555
H78_2 C121_2 1_555 1_555
C122_2 C121_2 1_555 1_555
H79_2 C122_2 1_555 1_555
C123_2 C122_2 1_555 1_555
C124_2 C119_2 1_555 1_555
C125_2 C124_2 1_555 1_555
H80_2 C125_2 1_555 1_555
C127_2 P6_2 1_555 1_555
C137_2 C123_2 1_555 1_555
C138_2 C137_2 1_555 1_555
H87_2 C138_2 1_555 1_555
C139_2 C138_2 1_555 1_555
H88_2 C139_2 1_555 1_555
C140_2 C139_2 1_555 1_555
C141_2 C140_2 1_555 1_555
H89_2 C141_2 1_555 1_555
C142_2 C137_2 1_555 1_555
H90_2 C142_2 1_555 1_555
C143_2 O15_2 1_555 1_555
H104_2 C162_2 1_555 1_555
C163_2 P6_2 1_555 1_555
C164_2 C163_2 1_555 1_555
H105_2 C164_2 1_555 1_555
C165_2 C164_2 1_555 1_555
H106_2 C165_2 1_555 1_555
C166_2 C165_2 1_555 1_555
H107_2 C166_2 1_555 1_555
C167_2 C166_2 1_555 1_555
H108_2 C167_2 1_555 1_555
C168_2 C163_2 1_555 1_555
H109_2 C168_2 1_555 1_555
C169_2 P6_2 1_555 1_555
C170_2 C169_2 1_555 1_555
H110_2 C170_2 1_555 1_555
C171_2 C170_2 1_555 1_555
H111_2 C171_2 1_555 1_555
C172_2 C171_2 1_555 1_555
H112_2 C172_2 1_555 1_555
C173_2 C172_2 1_555 1_555
H113_2 C173_2 1_555 1_555
C174_2 C169_2 1_555 1_555
H114_2 C174_2 1_555 1_555
N1_2 C175_2 1_555 1_555
C175_2 H115_2 1_555 1_555
H117_2 C175_2 1_555 1_555
C176_2 N1_2 1_555 1_555
H118_2 C176_2 1_555 1_555
H119_2 C176_2 1_555 1_555
H120_2 C176_2 1_555 1_555
C177_2 O19_2 1_555 1_555
H121_2 C177_2 1_555 1_555
O23_2 Pb6 1_555 1_555
O24 Pb6 1_555 1_555
O25 Pb6 1_555 1_555
O16_2 C143_2 1_555 1_555
C123_2 C124_2 1_555 1_555
C140_2 C143_2 1_555 1_555
C141_2 C142_2 1_555 1_555
C167_2 C168_2 1_555 1_555
C173_2 C174_2 1_555 1_555
N1_2 C177_2 1_555 1_555
P5_2 O13_2 1_555 1_555
O28 C150_2 1_555 1_555
O30 C150_2 1_555 1_555
C14_2 C13_2 1_555 1_555
H6_2 C14_2 1_555 1_555
H23_2 C40_2 1_555 1_555
C42_2 C41_2 1_555 1_555
H24_2 C42_2 1_555 1_555
C43_2 C42_2 1_555 1_555
H25_2 C43_2 1_555 1_555
C44_2 C43_2 1_555 1_555
H26_2 C44_2 1_555 1_555
C45_2 C44_2 1_555 1_555
H27_2 C45_2 1_555 1_555
C46_2 C41_2 1_555 1_555
H28_2 C46_2 1_555 1_555
C117_2 P5_2 1_555 1_555
C118_2 C117_2 1_555 1_555
C126_2 C117_2 1_555 1_555
H81_2 C126_2 1_555 1_555
C128_2 C118_2 1_555 1_555
C129_2 C128_2 1_555 1_555
C130_2 C129_2 1_555 1_555
H82_2 C130_2 1_555 1_555
C131_2 C130_2 1_555 1_555
H83_2 C131_2 1_555 1_555
C132_2 C131_2 1_555 1_555
H84_2 C132_2 1_555 1_555
C133_2 C132_2 1_555 1_555
C134_2 C129_2 1_555 1_555
C135_2 C134_2 1_555 1_555
H85_2 C135_2 1_555 1_555
C144_2 C133_2 1_555 1_555
C145_2 C144_2 1_555 1_555
H91_2 C145_2 1_555 1_555
C146_2 C145_2 1_555 1_555
H92_2 C146_2 1_555 1_555
C147_2 C146_2 1_555 1_555
C148_2 C147_2 1_555 1_555
H93_2 C148_2 1_555 1_555
C149_2 C144_2 1_555 1_555
H94_2 C149_2 1_555 1_555
C150_2 C147_2 1_555 1_555
C151_2 P5_2 1_555 1_555
C152_2 C151_2 1_555 1_555
H95_2 C152_2 1_555 1_555
C153_2 C152_2 1_555 1_555
H96_2 C153_2 1_555 1_555
C154_2 C153_2 1_555 1_555
C155_2 C154_2 1_555 1_555
H98_2 C155_2 1_555 1_555
C156_2 C151_2 1_555 1_555
H99_2 C156_2 1_555 1_555
C157_2 P5_2 1_555 1_555
C45_2 C46_2 1_555 1_555
C133_2 C134_2 1_555 1_555
C135_2 C136_2 1_555 1_555
C148_2 C149_2 1_555 1_555
C155_2 C156_2 1_555 1_555
Pb3 O3_2 1_555 1_555
P3_2 O7_2 1_555 1_555
P4_2 O8_2 1_555 1_555
Na5 O3_2 1_555 1_555
O3_2 C27_2 1_555 1_555
O4_2 Pb3 1_555 1_555
O9_2 Pb3 1_555 1_555
O10_2 Pb3 1_555 1_555
O26 C92_2 1_555 1_555
O27 C92_2 1_555 1_555
H11_2 C22_2 1_555 1_555
C23_2 C22_2 1_555 1_555
H12_2 C23_2 1_555 1_555
C24_2 C23_2 1_555 1_555
C25_2 C24_2 1_555 1_555
H13_2 C25_2 1_555 1_555
C27_2 O4_2 1_555 1_555
C59_2 P3_2 1_555 1_555
C60_2 C59_2 1_555 1_555
C61_2 C60_2 1_555 1_555
C62_2 C61_2 1_555 1_555
H39_2 C62_2 1_555 1_555
C63_2 C62_2 1_555 1_555
H40_2 C63_2 1_555 1_555
C64_2 C63_2 1_555 1_555
H41_2 C64_2 1_555 1_555
C65_2 C64_2 1_555 1_555
C66_2 C61_2 1_555 1_555
C67_2 C66_2 1_555 1_555
H42_2 C67_2 1_555 1_555
C68_2 C59_2 1_555 1_555
H43_2 C68_2 1_555 1_555
C69_2 P4_2 1_555 1_555
C70_2 C60_2 1_555 1_555
C71_2 C70_2 1_555 1_555
C72_2 C71_2 1_555 1_555
H44_2 C72_2 1_555 1_555
C73_2 C72_2 1_555 1_555
H45_2 C73_2 1_555 1_555
C74_2 C73_2 1_555 1_555
H46_2 C74_2 1_555 1_555
C75_2 C74_2 1_555 1_555
C76_2 C71_2 1_555 1_555
C77_2 C76_2 1_555 1_555
H47_2 C77_2 1_555 1_555
C78_2 C69_2 1_555 1_555
H48_2 C78_2 1_555 1_555
C79_2 C65_2 1_555 1_555
C80_2 C79_2 1_555 1_555
H49_2 C80_2 1_555 1_555
C81_2 C80_2 1_555 1_555
H50_2 C81_2 1_555 1_555
C82_2 C81_2 1_555 1_555
C83_2 C82_2 1_555 1_555
H51_2 C83_2 1_555 1_555
C84_2 C79_2 1_555 1_555
H52_2 C84_2 1_555 1_555
C85_2 O9_2 1_555 1_555
C86_2 C75_2 1_555 1_555
C87_2 C86_2 1_555 1_555
H53_2 C87_2 1_555 1_555
C88_2 C87_2 1_555 1_555
H54_2 C88_2 1_555 1_555
C89_2 C88_2 1_555 1_555
C90_2 C89_2 1_555 1_555
H55_2 C90_2 1_555 1_555
C91_2 C86_2 1_555 1_555
H56_2 C91_2 1_555 1_555
C92_2 C89_2 1_555 1_555
C99_2 P3_2 1_555 1_555
C100_2 C99_2 1_555 1_555
H62_2 C100_2 1_555 1_555
C101_2 C100_2 1_555 1_555
H63_2 C101_2 1_555 1_555
C102_2 C101_2 1_555 1_555
H64_2 C102_2 1_555 1_555
C103_2 C102_2 1_555 1_555
H65_2 C103_2 1_555 1_555
C104_2 C99_2 1_555 1_555
H66_2 C104_2 1_555 1_555
C105_2 P4_2 1_555 1_555
C106_2 C105_2 1_555 1_555
H67_2 C106_2 1_555 1_555
C107_2 C106_2 1_555 1_555
H68_2 C107_2 1_555 1_555
C108_2 C107_2 1_555 1_555
H69_2 C108_2 1_555 1_555
C109_2 C108_2 1_555 1_555
H70_2 C109_2 1_555 1_555
C110_2 C105_2 1_555 1_555
H71_2 C110_2 1_555 1_555
C111_2 P4_2 1_555 1_555
C112_2 C111_2 1_555 1_555
H72_2 C112_2 1_555 1_555
C113_2 C112_2 1_555 1_555
H73_2 C113_2 1_555 1_555
C114_2 C113_2 1_555 1_555
H74_2 C114_2 1_555 1_555
C115_2 C114_2 1_555 1_555
C116_2 C111_2 1_555 1_555
H76_2 C116_2 1_555 1_555
N3_2 C181_2 1_555 1_555
C181_2 H129_2 1_555 1_555
H130_2 C181_2 1_555 1_555
H131_2 C181_2 1_555 1_555
C182_2 N3_2 1_555 1_555
H132_2 C182_2 1_555 1_555
H133_2 C182_2 1_555 1_555
H134_2 C182_2 1_555 1_555
H135_2 C183_2 1_555 1_555
Na5 O9_2 1_555 1_555
O10_2 C85_2 1_555 1_555
C24_2 C27_2 1_555 1_555
C65_2 C66_2 1_555 1_555
C67_2 C68_2 1_555 1_555
C69_2 C70_2 1_555 1_555
C75_2 C76_2 1_555 1_555
C77_2 C78_2 1_555 1_555
C82_2 C85_2 1_555 1_555
C83_2 C84_2 1_555 1_555
C90_2 C91_2 1_555 1_555
C103_2 C104_2 1_555 1_555
C109_2 C110_2 1_555 1_555
C115_2 C116_2 1_555 1_555
N3_2 C183_2 1_555 1_555
O24 C34_2 1_555 1_555
O25 C34_2 1_555 1_555
H7_2 C15_2 1_555 1_555
C16_2 C15_2 1_555 1_555
H8_2 C16_2 1_555 1_555
C17_2 C16_2 1_555 1_555
C28_2 C17_2 1_555 1_555
C29_2 C28_2 1_555 1_555
H15_2 C29_2 1_555 1_555
C30_2 C29_2 1_555 1_555
H16_2 C30_2 1_555 1_555
C31_2 C30_2 1_555 1_555
C32_2 C31_2 1_555 1_555
C33_2 C28_2 1_555 1_555
H18_2 C33_2 1_555 1_555
C34_2 C31_2 1_555 1_555
H100_2 C158_2 1_555 1_555
C159_2 C158_2 1_555 1_555
H101_2 C159_2 1_555 1_555
C32_2 C33_2 1_555 1_555
H2_2 C5_2 1_555 1_555
C19_2 C18_2 1_555 1_555
H9_2 C19_2 1_555 1_555
H10_2 C20_2 1_555 1_555
H36_2 C56_2 1_555 1_555
C57_2 C56_2 1_555 1_555
H37_2 C57_2 1_555 1_555
H38_2 C58_2 1_555 1_555
C19_2 C20_2 1_555 1_555
C57_2 C58_2 1_555 1_555
H102 C160 1_555 1_555
C161 C160 1_555 1_555
H103 C161 1_555 1_555
P1_2 O1_2 1_555 1_555
P2_2 O2_2 1_555 1_555
C1_2 P1_2 1_555 1_555
C2_2 C1_2 1_555 1_555
C3_2 C2_2 1_555 1_555
C4_2 C3_2 1_555 1_555
H3_2 C6_2 1_555 1_555
C7_2 C6_2 1_555 1_555
C8_2 C3_2 1_555 1_555
C9_2 C8_2 1_555 1_555
H4_2 C9_2 1_555 1_555
C10_2 C1_2 1_555 1_555
H5_2 C10_2 1_555 1_555
C11_2 P2_2 1_555 1_555
C12_2 C2_2 1_555 1_555
C21_2 C7_2 1_555 1_555
C26_2 C21_2 1_555 1_555
H14_2 C26_2 1_555 1_555
C35_2 P1_2 1_555 1_555
C36_2 C35_2 1_555 1_555
H19_2 C36_2 1_555 1_555
C37_2 C36_2 1_555 1_555
H20_2 C37_2 1_555 1_555
C38_2 C37_2 1_555 1_555
H21_2 C38_2 1_555 1_555
C39_2 C38_2 1_555 1_555
C47_2 P2_2 1_555 1_555
C48_2 C47_2 1_555 1_555
H29_2 C48_2 1_555 1_555
C49_2 C48_2 1_555 1_555
H30_2 C49_2 1_555 1_555
C50_2 C49_2 1_555 1_555
H31_2 C50_2 1_555 1_555
C51_2 C50_2 1_555 1_555
C52_2 C47_2 1_555 1_555
H33_2 C52_2 1_555 1_555
C53_2 P2_2 1_555 1_555
C54_2 C53_2 1_555 1_555
H34_2 C54_2 1_555 1_555
C55_2 C54_2 1_555 1_555
H35_2 C55_2 1_555 1_555
C7_2 C8_2 1_555 1_555
C9_2 C10_2 1_555 1_555
C11_2 C12_2 1_555 1_555
C51_2 C52_2 1_555 1_555
H102_2 C160_2 1_555 1_555
C161_2 C160_2 1_555 1_555
H103_2 C161_2 1_555 1_555

#END
