
###############################################################################
#
# This file contains modified crystal structure data generated from the
# MOF subset of the Cambridge Structural Database (CSD) v543 
# hosted by the Cambridge Crystallographic Data Centre (CCDC).
#
# This work is licensed under the Creative Commons
# Attribution-NonCommercial-ShareAlike 4.0 International License.
# To view a copy of this license, visit
# http://creativecommons.org/licenses/by-nc-sa/4.0/
# or send a letter to
# Creative Commons, PO Box 1866, Mountain View, CA 94042, USA.
#
# CIF created using the CSD Python API on 29 September 2022
# The structure has been converted into the P1 space group
# The structure has a 3D framework
# The original CSD entry CITXUZ is in the orthorhombic crystal system
# The framework has been calculated to contain at least 10.0% void space
# The void calculation uses a probe of radius 1.32A, grid spacing 0.4
# H atom positions have been added when not included in the experimental data
#
###############################################################################

data_CITXUZ
_chemical_formula_moiety         '(C188 H172 Cu24 N28 O76)n'
_symmetry_cell_setting           triclinic
_symmetry_space_group_name_H-M   'P 1'
_symmetry_Int_Tables_number      1
_space_group_name_Hall           'P 1'
loop_
_symmetry_equiv_pos_site_id
_symmetry_equiv_pos_as_xyz
1 x,y,z
_cell_length_a                   14.669(7)
_cell_length_b                   16.833(8)
_cell_length_c                   24.743(11)
_cell_angle_alpha                90
_cell_angle_beta                 90
_cell_angle_gamma                90
_cell_volume                     6109.62
loop_
_atom_site_label
_atom_site_type_symbol
_atom_site_fract_x
_atom_site_fract_y
_atom_site_fract_z
O1 O 0.3872(3) 0.7073(3) 0.7100(2)
C1 C 0.3514(6) 0.6611(6) 0.6773(4)
O2 O 0.1170(4) 0.5261(3) 0.5548(2)
Cu1 Cu 0.07280(8) 0.45242(8) 0.5000
Cu2 Cu 0.5000 0.69400(9) 0.7500
N1 N 0.0756(4) 0.8293(4) 0.6822(2)
H1 H 0.1166 0.8674 0.6901
H2 H 0.0384 0.8485 0.6564
O4 O 0.3910(5) 0.6017(5) 0.6590(4)
C2 C 0.1221(5) 0.6409(5) 0.6090(3)
C3 C 0.0794(5) 0.7092(5) 0.6275(3)
H3 H 0.0200 0.7198 0.6166
C4 C 0.1226(5) 0.7615(5) 0.6615(3)
C5 C 0.2118(5) 0.7474(5) 0.6768(3)
H4 H 0.2422 0.7838 0.6986
C6 C 0.2561(5) 0.6790(5) 0.6595(3)
C7 C 0.2113(5) 0.6256(5) 0.6249(3)
H5 H 0.2412 0.5803 0.6127
C8 C 0.0756(5) 0.5855(5) 0.5703(3)
N2 N 0.1865(7) 0.3739(6) 0.5000
C9 C 0.2716(10) 0.4019(11) 0.5000
H6 H 0.2802 0.4566 0.5000
C10 C 0.3462(13) 0.3541(15) 0.5000
H7 H 0.4048 0.3752 0.5000
C11 C 0.3315(14) 0.2715(16) 0.5000
H8 H 0.3811 0.2370 0.5000
C12 C 0.2512(16) 0.2436(12) 0.5000
H9 H 0.2410 0.1890 0.5000
C13 C 0.1777(11) 0.2977(11) 0.5000
H10 H 0.1189 0.2770 0.5000
O5 O 0.5000 0.8313(6) 0.7500
H11 H 0.4529 0.8589 0.7333
H12 H 0.5471 0.8589 0.7667
O6 O 0.3872(3) 0.7073(3) 0.2900(2)
O9 O 0.6128(3) 0.7073(3) 0.7900(2)
O10 O 0.6128(3) 0.7073(3) 0.2100(2)
C14 C 0.3514(6) 0.6611(6) 0.3227(4)
O11 O 0.1170(4) 0.5261(3) 0.4452(2)
Cu4 Cu 0.5000 0.69400(9) 0.2500
Cu5 Cu -0.0000 0.80600(9) 0.7500
Cu6 Cu -0.0000 0.80600(9) 0.2500
Cu8 Cu -0.0000 0.19400(9) 0.2500
Cu10 Cu -0.0000 0.19400(9) 0.7500
N3 N 0.0756(4) 0.8293(4) 0.3178(2)
N6 N 0.5756(4) 0.6707(4) 0.6822(2)
N7 N 0.4244(4) 0.6707(4) 0.8178(2)
N8 N 0.5756(4) 0.6707(4) 0.3178(2)
N9 N 0.4244(4) 0.6707(4) 0.1822(2)
H13 H 0.1166 0.8674 0.3099
H16 H 0.6166 0.6326 0.6901
H17 H 0.3834 0.6326 0.8099
H18 H 0.6166 0.6326 0.3099
H19 H 0.3834 0.6326 0.1901
H20 H 0.0384 0.8485 0.3436
H23 H 0.5384 0.6515 0.6564
H24 H 0.4616 0.6515 0.8436
H25 H 0.5384 0.6515 0.3436
H26 H 0.4616 0.6515 0.1564
O15 O 0.0030(4) 0.3949(3) 0.4446(2)
O16 O 0.0030(4) 0.3949(3) 0.5554(2)
O17 O 0.3910(5) 0.6017(5) 0.3410(4)
C17 C 0.1221(5) 0.6409(5) 0.3910(3)
C20 C 0.0794(5) 0.7092(5) 0.3725(3)
H27 H 0.0200 0.7198 0.3834
C23 C 0.1226(5) 0.7615(5) 0.3385(3)
C26 C 0.2118(5) 0.7474(5) 0.3232(3)
H30 H 0.2422 0.7838 0.3014
C29 C 0.2561(5) 0.6790(5) 0.3405(3)
C32 C 0.2113(5) 0.6256(5) 0.3751(3)
H33 H 0.2412 0.5803 0.3873
C35 C 0.0756(5) 0.5855(5) 0.4297(3)
O20 O 0.5000 0.8313(6) 0.2500
H41 H 0.4529 0.8589 0.2667
H42 H 0.5471 0.8589 0.2333
H43 H 0.607484 0.720658 0.330851
H44 H 0.607484 0.720658 0.669149
H45 H 0.392516 0.720658 0.169149
H46 H 0.392516 0.720658 0.830851
O3 O 0.9970(4) 0.6051(3) 0.5554(2)
O7 O 0.6128(3) 0.2927(3) 0.2900(2)
O8 O 0.6128(3) 0.2927(3) 0.7100(2)
C15 C 0.6486(6) 0.3389(6) 0.3227(4)
C16 C 0.6486(6) 0.3389(6) 0.6773(4)
O12 O 0.8830(4) 0.4739(3) 0.4452(2)
O13 O 0.8830(4) 0.4739(3) 0.5548(2)
Cu3 Cu 0.92720(8) 0.54758(8) 0.5000
Cu5_2 Cu 1.0000 0.80600(9) 0.7500
Cu6_2 Cu 1.0000 0.80600(9) 0.2500
Cu7 Cu 0.5000 0.30600(9) 0.2500
Cu8_2 Cu 1.0000 0.19400(9) 0.2500
Cu9 Cu 0.5000 0.30600(9) 0.7500
Cu10_2 Cu 1.0000 0.19400(9) 0.7500
N4 N 0.9244(4) 0.1707(4) 0.3178(2)
N5 N 0.9244(4) 0.1707(4) 0.6822(2)
H14 H 0.8834 0.1326 0.3099
H15 H 0.8834 0.1326 0.6901
H21 H 0.9616 0.1515 0.3436
H22 H 0.9616 0.1515 0.6564
O14 O 0.9970(4) 0.6051(3) 0.4446(2)
O18 O 0.6090(5) 0.3983(5) 0.3410(4)
O19 O 0.6090(5) 0.3983(5) 0.6590(4)
C18 C 0.8779(5) 0.3591(5) 0.3910(3)
C19 C 0.8779(5) 0.3591(5) 0.6090(3)
C21 C 0.9206(5) 0.2908(5) 0.3725(3)
C22 C 0.9206(5) 0.2908(5) 0.6275(3)
H28 H 0.9800 0.2802 0.3834
H29 H 0.9800 0.2802 0.6166
C24 C 0.8774(5) 0.2385(5) 0.3385(3)
C25 C 0.8774(5) 0.2385(5) 0.6615(3)
C27 C 0.7882(5) 0.2526(5) 0.3232(3)
C28 C 0.7882(5) 0.2526(5) 0.6768(3)
H31 H 0.7578 0.2162 0.3014
H32 H 0.7578 0.2162 0.6986
C30 C 0.7439(5) 0.3210(5) 0.3405(3)
C31 C 0.7439(5) 0.3210(5) 0.6595(3)
C33 C 0.7887(5) 0.3744(5) 0.3751(3)
C34 C 0.7887(5) 0.3744(5) 0.6249(3)
H34 H 0.7588 0.4197 0.3873
H35 H 0.7588 0.4197 0.6127
C36 C 0.9244(5) 0.4145(5) 0.4297(3)
C37 C 0.9244(5) 0.4145(5) 0.5703(3)
N10 N 0.8135(7) 0.6261(6) 0.5000
C38 C 0.7284(10) 0.5981(11) 0.5000
H36 H 0.7198 0.5434 0.5000
C39 C 0.6538(13) 0.6459(15) 0.5000
H37 H 0.5952 0.6248 0.5000
C40 C 0.6685(14) 0.7285(16) 0.5000
H38 H 0.6189 0.7630 0.5000
C41 C 0.7488(16) 0.7564(12) 0.5000
H39 H 0.7590 0.8110 0.5000
C42 C 0.8223(11) 0.7023(11) 0.5000
H40 H 0.8811 0.7230 0.5000
O5_2 O -0.0000 0.3313(6) 0.2500
H12_2 H 0.0471 0.3589 0.2667
O9_2 O 0.1128(3) 0.2073(3) 0.2900(2)
N6_2 N 0.0756(4) 0.1707(4) 0.1822(2)
H16_2 H 0.1166 0.1326 0.1901
H23_2 H 0.0384 0.1515 0.1564
H44_2 H 0.107484 0.220658 0.169149
O10_2 O 0.1128(3) 0.2073(3) 0.7100(2)
N8_2 N 0.0756(4) 0.1707(4) 0.8178(2)
H18_2 H 0.1166 0.1326 0.8099
H25_2 H 0.0384 0.1515 0.8436
O20_2 O -0.0000 0.3313(6) 0.7500
H42_2 H 0.0471 0.3589 0.7333
H43_2 H 0.107484 0.220658 0.830851
O1_2 O 0.8872(3) 0.2073(3) 0.2100(2)
C1_2 C 0.8514(6) 0.1611(6) 0.1773(4)
O2_2 O 0.6170(4) 0.0261(3) 0.0548(2)
N1_2 N 0.5756(4) 0.3293(4) 0.1822(2)
H1_2 H 0.6166 0.3674 0.1901
H2_2 H 0.5384 0.3485 0.1564
O3_2 O 0.4970(4) 0.1051(3) 0.0554(2)
O4_2 O 0.8910(5) 0.1017(5) 0.1590(4)
C2_2 C 0.6221(5) 0.1409(5) 0.1090(3)
C3_2 C 0.5794(5) 0.2092(5) 0.1275(3)
H3_2 H 0.5200 0.2198 0.1166
C4_2 C 0.6226(5) 0.2615(5) 0.1615(3)
C5_2 C 0.7118(5) 0.2474(5) 0.1768(3)
H4_2 H 0.7422 0.2838 0.1986
C6_2 C 0.7561(5) 0.1790(5) 0.1595(3)
C7_2 C 0.7113(5) 0.1256(5) 0.1249(3)
H5_2 H 0.7412 0.0803 0.1127
C8_2 C 0.5756(5) 0.0855(5) 0.0703(3)
O5_3 O 1.0000 0.3313(6) 0.2500
H11_2 H 0.9529 0.3589 0.2333
Cu3_2 Cu 0.42720(8) 0.04758(8) 0.0000
N10_2 N 0.3135(7) 0.1261(6) 0.0000
C38_2 C 0.2284(10) 0.0981(11) 0.0000
H36_2 H 0.2198 0.0434 0.0000
C39_2 C 0.1538(13) 0.1459(15) 0.0000
H37_2 H 0.0952 0.1248 0.0000
C40_2 C 0.1685(14) 0.2285(16) 0.0000
H38_2 H 0.1189 0.2630 0.0000
C41_2 C 0.2488(16) 0.2564(12) 0.0000
H39_2 H 0.2590 0.3110 0.0000
C42_2 C 0.3223(11) 0.2023(11) 0.0000
H40_2 H 0.3811 0.2230 0.0000
H46_2 H 0.892516 0.220658 0.330851
O6_2 O 0.8872(3) 0.2073(3) 0.7900(2)
C14_2 C 0.8514(6) 0.1611(6) 0.8227(4)
O11_2 O 0.6170(4) 0.0261(3) 0.9452(2)
Cu3_3 Cu 0.42720(8) 0.04758(8) 1.0000
N3_2 N 0.5756(4) 0.3293(4) 0.8178(2)
H13_2 H 0.6166 0.3674 0.8099
H20_2 H 0.5384 0.3485 0.8436
O14_2 O 0.4970(4) 0.1051(3) 0.9446(2)
O17_2 O 0.8910(5) 0.1017(5) 0.8410(4)
C17_2 C 0.6221(5) 0.1409(5) 0.8910(3)
C20_2 C 0.5794(5) 0.2092(5) 0.8725(3)
H27_2 H 0.5200 0.2198 0.8834
C23_2 C 0.6226(5) 0.2615(5) 0.8385(3)
C26_2 C 0.7118(5) 0.2474(5) 0.8232(3)
H30_2 H 0.7422 0.2838 0.8014
C29_2 C 0.7561(5) 0.1790(5) 0.8405(3)
C32_2 C 0.7113(5) 0.1256(5) 0.8751(3)
H33_2 H 0.7412 0.0803 0.8873
C35_2 C 0.5756(5) 0.0855(5) 0.9297(3)
N10_3 N 0.3135(7) 0.1261(6) 1.0000
C38_3 C 0.2284(10) 0.0981(11) 1.0000
H36_3 H 0.2198 0.0434 1.0000
C39_3 C 0.1538(13) 0.1459(15) 1.0000
H37_3 H 0.0952 0.1248 1.0000
C40_3 C 0.1685(14) 0.2285(16) 1.0000
H38_3 H 0.1189 0.2630 1.0000
C41_3 C 0.2488(16) 0.2564(12) 1.0000
H39_3 H 0.2590 0.3110 1.0000
C42_3 C 0.3223(11) 0.2023(11) 1.0000
H40_3 H 0.3811 0.2230 1.0000
O20_3 O 1.0000 0.3313(6) 0.7500
H41_2 H 0.9529 0.3589 0.7667
H45_2 H 0.892516 0.220658 0.669149
Cu1_2 Cu 0.57280(8) 0.95242(8) 0.0000
N2_2 N 0.6865(7) 0.8739(6) 0.0000
C9_2 C 0.7716(10) 0.9019(11) 0.0000
H6_2 H 0.7802 0.9566 0.0000
C10_2 C 0.8462(13) 0.8541(15) 0.0000
H7_2 H 0.9048 0.8752 0.0000
C11_2 C 0.8315(14) 0.7715(16) 0.0000
H8_2 H 0.8811 0.7370 0.0000
C12_2 C 0.7512(16) 0.7436(12) 0.0000
H9_2 H 0.7410 0.6890 0.0000
C13_2 C 0.6777(11) 0.7977(11) 0.0000
H10_2 H 0.6189 0.7770 0.0000
O8_2 O 0.1128(3) 0.7927(3) 0.2100(2)
C16_2 C 0.1486(6) 0.8389(6) 0.1773(4)
O13_2 O 0.3830(4) 0.9739(3) 0.0548(2)
O16_2 O 0.5030(4) 0.8949(3) 0.0554(2)
O19_2 O 0.1090(5) 0.8983(5) 0.1590(4)
C19_2 C 0.3779(5) 0.8591(5) 0.1090(3)
C22_2 C 0.4206(5) 0.7908(5) 0.1275(3)
H29_2 H 0.4800 0.7802 0.1166
C25_2 C 0.3774(5) 0.7385(5) 0.1615(3)
C28_2 C 0.2882(5) 0.7526(5) 0.1768(3)
H32_2 H 0.2578 0.7162 0.1986
C31_2 C 0.2439(5) 0.8210(5) 0.1595(3)
C34_2 C 0.2887(5) 0.8744(5) 0.1249(3)
H35_2 H 0.2588 0.9197 0.1127
C37_2 C 0.4244(5) 0.9145(5) 0.0703(3)
Cu1_3 Cu 0.57280(8) 0.95242(8) 1.0000
N2_3 N 0.6865(7) 0.8739(6) 1.0000
C9_3 C 0.7716(10) 0.9019(11) 1.0000
H6_3 H 0.7802 0.9566 1.0000
C10_3 C 0.8462(13) 0.8541(15) 1.0000
H7_3 H 0.9048 0.8752 1.0000
C11_3 C 0.8315(14) 0.7715(16) 1.0000
H8_3 H 0.8811 0.7370 1.0000
C12_3 C 0.7512(16) 0.7436(12) 1.0000
H9_3 H 0.7410 0.6890 1.0000
C13_3 C 0.6777(11) 0.7977(11) 1.0000
H10_3 H 0.6189 0.7770 1.0000
O7_2 O 0.1128(3) 0.7927(3) 0.7900(2)
C15_2 C 0.1486(6) 0.8389(6) 0.8227(4)
O12_2 O 0.3830(4) 0.9739(3) 0.9452(2)
O15_2 O 0.5030(4) 0.8949(3) 0.9446(2)
O18_2 O 0.1090(5) 0.8983(5) 0.8410(4)
C18_2 C 0.3779(5) 0.8591(5) 0.8910(3)
C21_2 C 0.4206(5) 0.7908(5) 0.8725(3)
H28_2 H 0.4800 0.7802 0.8834
C24_2 C 0.3774(5) 0.7385(5) 0.8385(3)
C27_2 C 0.2882(5) 0.7526(5) 0.8232(3)
H31_2 H 0.2578 0.7162 0.8014
C30_2 C 0.2439(5) 0.8210(5) 0.8405(3)
C33_2 C 0.2887(5) 0.8744(5) 0.8751(3)
H34_2 H 0.2588 0.9197 0.8873
C36_2 C 0.4244(5) 0.9145(5) 0.9297(3)
O5_4 O 0.5000 0.1687(6) 0.7500
H11_3 H 0.5471 0.1411 0.7333
H12_3 H 0.4529 0.1411 0.7667
O9_3 O 0.3872(3) 0.2927(3) 0.7900(2)
O10_3 O 0.3872(3) 0.2927(3) 0.2100(2)
N6_3 N 0.4244(4) 0.3293(4) 0.6822(2)
N8_3 N 0.4244(4) 0.3293(4) 0.3178(2)
H16_3 H 0.3834 0.3674 0.6901
H18_3 H 0.3834 0.3674 0.3099
H23_3 H 0.4616 0.3485 0.6564
H25_3 H 0.4616 0.3485 0.3436
O20_4 O 0.5000 0.1687(6) 0.2500
H41_3 H 0.5471 0.1411 0.2667
H42_3 H 0.4529 0.1411 0.2333
H43_3 H 0.392516 0.279342 0.330851
H44_3 H 0.392516 0.279342 0.669149
H45_3 H 0.607484 0.279342 0.169149
H46_3 H 0.607484 0.279342 0.830851
C1_3 C 0.1486(6) 0.1611(6) 0.3227(4)
O2_3 O 0.3830(4) 0.0261(3) 0.4452(2)
O3_3 O 0.5030(4) 0.1051(3) 0.4446(2)
O4_3 O 0.1090(5) 0.1017(5) 0.3410(4)
C2_3 C 0.3779(5) 0.1409(5) 0.3910(3)
C3_3 C 0.4206(5) 0.2092(5) 0.3725(3)
H3_3 H 0.4800 0.2198 0.3834
C4_3 C 0.3774(5) 0.2615(5) 0.3385(3)
C5_3 C 0.2882(5) 0.2474(5) 0.3232(3)
H4_3 H 0.2578 0.2838 0.3014
C6_3 C 0.2439(5) 0.1790(5) 0.3405(3)
C7_3 C 0.2887(5) 0.1256(5) 0.3751(3)
H5_3 H 0.2588 0.0803 0.3873
C8_3 C 0.4244(5) 0.0855(5) 0.4297(3)
C14_3 C 0.1486(6) 0.1611(6) 0.6773(4)
O11_3 O 0.3830(4) 0.0261(3) 0.5548(2)
Cu3_4 Cu 0.57280(8) 0.04758(8) 0.5000
O14_3 O 0.5030(4) 0.1051(3) 0.5554(2)
O17_3 O 0.1090(5) 0.1017(5) 0.6590(4)
C17_3 C 0.3779(5) 0.1409(5) 0.6090(3)
C20_3 C 0.4206(5) 0.2092(5) 0.6275(3)
H27_3 H 0.4800 0.2198 0.6166
C23_3 C 0.3774(5) 0.2615(5) 0.6615(3)
C26_3 C 0.2882(5) 0.2474(5) 0.6768(3)
H30_3 H 0.2578 0.2838 0.6986
C29_3 C 0.2439(5) 0.1790(5) 0.6595(3)
C32_3 C 0.2887(5) 0.1256(5) 0.6249(3)
H33_3 H 0.2588 0.0803 0.6127
C35_3 C 0.4244(5) 0.0855(5) 0.5703(3)
N10_4 N 0.6865(7) 0.1261(6) 0.5000
C38_4 C 0.7716(10) 0.0981(11) 0.5000
H36_4 H 0.7802 0.0434 0.5000
C39_4 C 0.8462(13) 0.1459(15) 0.5000
H37_4 H 0.9048 0.1248 0.5000
C40_4 C 0.8315(14) 0.2285(16) 0.5000
H38_4 H 0.8811 0.2630 0.5000
C41_4 C 0.7512(16) 0.2564(12) 0.5000
H39_4 H 0.7410 0.3110 0.5000
C42_4 C 0.6777(11) 0.2023(11) 0.5000
H40_4 H 0.6189 0.2230 0.5000
Cu1_4 Cu 0.42720(8) 0.95242(8) 0.5000
N2_4 N 0.3135(7) 0.8739(6) 0.5000
C9_4 C 0.2284(10) 0.9019(11) 0.5000
H6_4 H 0.2198 0.9566 0.5000
C10_4 C 0.1538(13) 0.8541(15) 0.5000
H7_4 H 0.0952 0.8752 0.5000
C11_4 C 0.1685(14) 0.7715(16) 0.5000
H8_4 H 0.1189 0.7370 0.5000
C12_4 C 0.2488(16) 0.7436(12) 0.5000
H9_4 H 0.2590 0.6890 0.5000
C13_4 C 0.3223(11) 0.7977(11) 0.5000
H10_4 H 0.3811 0.7770 0.5000
O7_3 O 0.8872(3) 0.7927(3) 0.7100(2)
O8_3 O 0.8872(3) 0.7927(3) 0.2900(2)
C15_3 C 0.8514(6) 0.8389(6) 0.6773(4)
C16_3 C 0.8514(6) 0.8389(6) 0.3227(4)
O12_3 O 0.6170(4) 0.9739(3) 0.5548(2)
O13_3 O 0.6170(4) 0.9739(3) 0.4452(2)
O15_3 O 0.4970(4) 0.8949(3) 0.5554(2)
O16_3 O 0.4970(4) 0.8949(3) 0.4446(2)
O18_3 O 0.8910(5) 0.8983(5) 0.6590(4)
O19_3 O 0.8910(5) 0.8983(5) 0.3410(4)
C18_3 C 0.6221(5) 0.8591(5) 0.6090(3)
C19_3 C 0.6221(5) 0.8591(5) 0.3910(3)
C21_3 C 0.5794(5) 0.7908(5) 0.6275(3)
C22_3 C 0.5794(5) 0.7908(5) 0.3725(3)
H28_3 H 0.5200 0.7802 0.6166
H29_3 H 0.5200 0.7802 0.3834
C24_3 C 0.6226(5) 0.7385(5) 0.6615(3)
C25_3 C 0.6226(5) 0.7385(5) 0.3385(3)
C27_3 C 0.7118(5) 0.7526(5) 0.6768(3)
C28_3 C 0.7118(5) 0.7526(5) 0.3232(3)
H31_3 H 0.7422 0.7162 0.6986
H32_3 H 0.7422 0.7162 0.3014
C30_3 C 0.7561(5) 0.8210(5) 0.6595(3)
C31_3 C 0.7561(5) 0.8210(5) 0.3405(3)
C33_3 C 0.7113(5) 0.8744(5) 0.6249(3)
C34_3 C 0.7113(5) 0.8744(5) 0.3751(3)
H34_3 H 0.7412 0.9197 0.6127
H35_3 H 0.7412 0.9197 0.3873
C36_3 C 0.5756(5) 0.9145(5) 0.5703(3)
C37_3 C 0.5756(5) 0.9145(5) 0.4297(3)
O5_5 O -0.0000 0.6687(6) 0.2500
H12_4 H 0.0471 0.6411 0.2333
O20_5 O -0.0000 0.6687(6) 0.7500
H42_4 H 0.0471 0.6411 0.7667
H43_4 H 0.107484 0.779342 0.669149
H44_4 H 0.107484 0.779342 0.330851
O5_6 O 1.0000 0.6687(6) 0.2500
H11_4 H 0.9529 0.6411 0.2667
N7_2 N 0.9244(4) 0.8293(4) 0.1822(2)
N9_2 N 0.9244(4) 0.8293(4) 0.8178(2)
H17_2 H 0.8834 0.8674 0.1901
H19_2 H 0.8834 0.8674 0.8099
H24_2 H 0.9616 0.8485 0.1564
H26_2 H 0.9616 0.8485 0.8436
O20_6 O 1.0000 0.6687(6) 0.7500
H41_4 H 0.9529 0.6411 0.7333
H45_4 H 0.892516 0.779342 0.830851
H46_4 H 0.892516 0.779342 0.169149
C15_4 C 0.3514(6) 0.3389(6) 0.1773(4)
O12_4 O 0.1170(4) 0.4739(3) 0.0548(2)
Cu3_5 Cu 0.07280(8) 0.54758(8) -0.0000
O14_4 O 0.0030(4) 0.6051(3) 0.0554(2)
O18_4 O 0.3910(5) 0.3983(5) 0.1590(4)
C18_4 C 0.1221(5) 0.3591(5) 0.1090(3)
C21_4 C 0.0794(5) 0.2908(5) 0.1275(3)
H28_4 H 0.0200 0.2802 0.1166
C24_4 C 0.1226(5) 0.2385(5) 0.1615(3)
C27_4 C 0.2118(5) 0.2526(5) 0.1768(3)
H31_4 H 0.2422 0.2162 0.1986
C30_4 C 0.2561(5) 0.3210(5) 0.1595(3)
C33_4 C 0.2113(5) 0.3744(5) 0.1249(3)
H34_4 H 0.2412 0.4197 0.1127
C36_4 C 0.0756(5) 0.4145(5) 0.0703(3)
N10_5 N 0.1865(7) 0.6261(6) -0.0000
C38_5 C 0.2716(10) 0.5981(11) -0.0000
H36_5 H 0.2802 0.5434 -0.0000
C39_5 C 0.3462(13) 0.6459(15) -0.0000
H37_5 H 0.4048 0.6248 -0.0000
C40_5 C 0.3315(14) 0.7285(16) -0.0000
H38_5 H 0.3811 0.7630 -0.0000
C41_5 C 0.2512(16) 0.7564(12) -0.0000
H39_5 H 0.2410 0.8110 -0.0000
C42_5 C 0.1777(11) 0.7023(11) -0.0000
H40_5 H 0.1189 0.7230 -0.0000
O3_4 O 0.0030(4) 0.6051(3) 0.9446(2)
C16_4 C 0.3514(6) 0.3389(6) 0.8227(4)
O13_4 O 0.1170(4) 0.4739(3) 0.9452(2)
Cu3_6 Cu 0.07280(8) 0.54758(8) 1.0000
O19_4 O 0.3910(5) 0.3983(5) 0.8410(4)
C19_4 C 0.1221(5) 0.3591(5) 0.8910(3)
C22_4 C 0.0794(5) 0.2908(5) 0.8725(3)
H29_4 H 0.0200 0.2802 0.8834
C25_4 C 0.1226(5) 0.2385(5) 0.8385(3)
C28_4 C 0.2118(5) 0.2526(5) 0.8232(3)
H32_4 H 0.2422 0.2162 0.8014
C31_4 C 0.2561(5) 0.3210(5) 0.8405(3)
C34_4 C 0.2113(5) 0.3744(5) 0.8751(3)
H35_4 H 0.2412 0.4197 0.8873
C37_4 C 0.0756(5) 0.4145(5) 0.9297(3)
N10_6 N 0.1865(7) 0.6261(6) 1.0000
C38_6 C 0.2716(10) 0.5981(11) 1.0000
H36_6 H 0.2802 0.5434 1.0000
C39_6 C 0.3462(13) 0.6459(15) 1.0000
H37_6 H 0.4048 0.6248 1.0000
C40_6 C 0.3315(14) 0.7285(16) 1.0000
H38_6 H 0.3811 0.7630 1.0000
C41_6 C 0.2512(16) 0.7564(12) 1.0000
H39_6 H 0.2410 0.8110 1.0000
C42_6 C 0.1777(11) 0.7023(11) 1.0000
H40_6 H 0.1189 0.7230 1.0000
Cu1_5 Cu 0.92720(8) 0.45242(8) -0.0000
N2_5 N 0.8135(7) 0.3739(6) -0.0000
C9_5 C 0.7284(10) 0.4019(11) -0.0000
H6_5 H 0.7198 0.4566 -0.0000
C10_5 C 0.6538(13) 0.3541(15) -0.0000
H7_5 H 0.5952 0.3752 -0.0000
C11_5 C 0.6685(14) 0.2715(16) -0.0000
H8_5 H 0.6189 0.2370 -0.0000
C12_5 C 0.7488(16) 0.2436(12) -0.0000
H9_5 H 0.7590 0.1890 -0.0000
C13_5 C 0.8223(11) 0.2977(11) -0.0000
H10_5 H 0.8811 0.2770 -0.0000
C14_4 C 0.6486(6) 0.6611(6) 0.1773(4)
O11_4 O 0.8830(4) 0.5261(3) 0.0548(2)
O15_4 O 0.9970(4) 0.3949(3) 0.0554(2)
O17_4 O 0.6090(5) 0.6017(5) 0.1590(4)
C17_4 C 0.8779(5) 0.6409(5) 0.1090(3)
C20_4 C 0.9206(5) 0.7092(5) 0.1275(3)
H27_4 H 0.9800 0.7198 0.1166
C23_4 C 0.8774(5) 0.7615(5) 0.1615(3)
C26_4 C 0.7882(5) 0.7474(5) 0.1768(3)
H30_4 H 0.7578 0.7838 0.1986
C29_4 C 0.7439(5) 0.6790(5) 0.1595(3)
C32_4 C 0.7887(5) 0.6256(5) 0.1249(3)
H33_4 H 0.7588 0.5803 0.1127
C35_4 C 0.9244(5) 0.5855(5) 0.0703(3)
C1_4 C 0.6486(6) 0.6611(6) 0.8227(4)
O2_4 O 0.8830(4) 0.5261(3) 0.9452(2)
Cu1_6 Cu 0.92720(8) 0.45242(8) 1.0000
O4_4 O 0.6090(5) 0.6017(5) 0.8410(4)
C2_4 C 0.8779(5) 0.6409(5) 0.8910(3)
C3_4 C 0.9206(5) 0.7092(5) 0.8725(3)
H3_4 H 0.9800 0.7198 0.8834
C4_4 C 0.8774(5) 0.7615(5) 0.8385(3)
C5_4 C 0.7882(5) 0.7474(5) 0.8232(3)
H4_4 H 0.7578 0.7838 0.8014
C6_4 C 0.7439(5) 0.6790(5) 0.8405(3)
C7_4 C 0.7887(5) 0.6256(5) 0.8751(3)
H5_4 H 0.7588 0.5803 0.8873
C8_4 C 0.9244(5) 0.5855(5) 0.9297(3)
N2_6 N 0.8135(7) 0.3739(6) 1.0000
C9_6 C 0.7284(10) 0.4019(11) 1.0000
H6_6 H 0.7198 0.4566 1.0000
C10_6 C 0.6538(13) 0.3541(15) 1.0000
H7_6 H 0.5952 0.3752 1.0000
C11_6 C 0.6685(14) 0.2715(16) 1.0000
H8_6 H 0.6189 0.2370 1.0000
C12_6 C 0.7488(16) 0.2436(12) 1.0000
H9_6 H 0.7590 0.1890 1.0000
C13_6 C 0.8223(11) 0.2977(11) 1.0000
H10_6 H 0.8811 0.2770 1.0000
O16_4 O 0.9970(4) 0.3949(3) 0.9446(2)
loop_
_geom_bond_atom_site_label_1
_geom_bond_atom_site_label_2
_geom_bond_site_symmetry_1
_geom_bond_site_symmetry_2
O1 C1 1_555 1_555
C1 O4 1_555 1_555
O2 Cu1 1_555 1_555
Cu1 N2 1_555 1_555
Cu2 O1 1_555 1_555
N1 H1 1_555 1_555
H2 N1 1_555 1_555
C2 C3 1_555 1_555
C3 H3 1_555 1_555
C4 N1 1_555 1_555
C5 C4 1_555 1_555
H4 C5 1_555 1_555
C6 C1 1_555 1_555
C7 C2 1_555 1_555
H5 C7 1_555 1_555
C8 O2 1_555 1_555
N2 C9 1_555 1_555
C9 H6 1_555 1_555
C10 C9 1_555 1_555
H7 C10 1_555 1_555
C11 C10 1_555 1_555
H8 C11 1_555 1_555
C12 C11 1_555 1_555
H9 C12 1_555 1_555
C13 N2 1_555 1_555
H10 C13 1_555 1_555
O5 Cu2 1_555 1_555
H11 O5 1_555 1_555
H12 O5 1_555 1_555
O6 C14 1_555 1_555
O9 Cu2 1_555 1_555
O10 Cu4 1_555 1_555
C14 O17 1_555 1_555
O11 Cu1 1_555 1_555
Cu4 O6 1_555 1_555
Cu5 N1 1_555 1_555
Cu6 N3 1_555 1_555
N3 H13 1_555 1_555
N6 Cu2 1_555 1_555
N7 Cu2 1_555 1_555
N8 Cu4 1_555 1_555
N9 Cu4 1_555 1_555
H16 N6 1_555 1_555
H17 N7 1_555 1_555
H18 N8 1_555 1_555
H19 N9 1_555 1_555
H20 N3 1_555 1_555
H23 N6 1_555 1_555
H24 N7 1_555 1_555
H25 N8 1_555 1_555
H26 N9 1_555 1_555
O15 Cu1 1_555 1_555
O16 Cu1 1_555 1_555
C17 C20 1_555 1_555
C20 H27 1_555 1_555
C23 N3 1_555 1_555
C26 C23 1_555 1_555
H30 C26 1_555 1_555
C29 C14 1_555 1_555
C32 C17 1_555 1_555
H33 C32 1_555 1_555
C35 O11 1_555 1_555
O20 Cu4 1_555 1_555
H41 O20 1_555 1_555
H42 O20 1_555 1_555
C2 C8 1_555 1_555
C3 C4 1_555 1_555
C5 C6 1_555 1_555
C6 C7 1_555 1_555
C12 C13 1_555 1_555
C17 C35 1_555 1_555
C20 C23 1_555 1_555
C26 C29 1_555 1_555
C29 C32 1_555 1_555
N8 H43 1_555 1_555
N6 H44 1_555 1_555
N9 H45 1_555 1_555
N7 H46 1_555 1_555
O7 C15 1_555 1_555
O8 C16 1_555 1_555
C15 O18 1_555 1_555
C16 O19 1_555 1_555
O12 Cu3 1_555 1_555
O13 Cu3 1_555 1_555
Cu7 O7 1_555 1_555
Cu8_2 N4 1_555 1_555
Cu9 O8 1_555 1_555
Cu10_2 N5 1_555 1_555
N4 H14 1_555 1_555
N5 H15 1_555 1_555
H21 N4 1_555 1_555
H22 N5 1_555 1_555
O14 Cu3 1_555 1_555
C18 C21 1_555 1_555
C19 C22 1_555 1_555
C21 H28 1_555 1_555
C22 H29 1_555 1_555
C24 N4 1_555 1_555
C25 N5 1_555 1_555
C27 C24 1_555 1_555
C28 C25 1_555 1_555
H31 C27 1_555 1_555
H32 C28 1_555 1_555
C30 C15 1_555 1_555
C31 C16 1_555 1_555
C33 C18 1_555 1_555
C34 C19 1_555 1_555
H34 C33 1_555 1_555
H35 C34 1_555 1_555
C36 O12 1_555 1_555
C37 O13 1_555 1_555
N10 Cu3 1_555 1_555
C38 N10 1_555 1_555
H36 C38 1_555 1_555
C39 C38 1_555 1_555
H37 C39 1_555 1_555
C40 C39 1_555 1_555
H38 C40 1_555 1_555
C41 C40 1_555 1_555
H39 C41 1_555 1_555
C42 N10 1_555 1_555
H40 C42 1_555 1_555
O3 Cu3 1_555 1_555
C18 C36 1_555 1_555
C19 C37 1_555 1_555
C21 C24 1_555 1_555
C22 C25 1_555 1_555
C27 C30 1_555 1_555
C28 C31 1_555 1_555
C30 C33 1_555 1_555
C31 C34 1_555 1_555
C41 C42 1_555 1_555
O5_2 Cu8 1_555 1_555
H12_2 O5_2 1_555 1_555
O9_2 Cu8 1_555 1_555
N6_2 Cu8 1_555 1_555
H16_2 N6_2 1_555 1_555
H23_2 N6_2 1_555 1_555
N6_2 H44_2 1_555 1_555
O10_2 Cu10 1_555 1_555
N8_2 Cu10 1_555 1_555
H18_2 N8_2 1_555 1_555
H25_2 N8_2 1_555 1_555
O20_2 Cu10 1_555 1_555
H42_2 O20_2 1_555 1_555
N8_2 H43_2 1_555 1_555
O1_2 C1_2 1_555 1_555
C1_2 O4_2 1_555 1_555
Cu8_2 O1_2 1_555 1_555
N1_2 H1_2 1_555 1_555
H2_2 N1_2 1_555 1_555
O3_2 C8_2 1_555 1_555
C2_2 C3_2 1_555 1_555
C3_2 H3_2 1_555 1_555
C4_2 N1_2 1_555 1_555
C5_2 C4_2 1_555 1_555
H4_2 C5_2 1_555 1_555
C6_2 C1_2 1_555 1_555
C7_2 C2_2 1_555 1_555
H5_2 C7_2 1_555 1_555
C8_2 O2_2 1_555 1_555
O5_3 Cu8_2 1_555 1_555
H11_2 O5_3 1_555 1_555
Cu7 N1_2 1_555 1_555
N10_2 Cu3_2 1_555 1_555
C38_2 N10_2 1_555 1_555
H36_2 C38_2 1_555 1_555
C39_2 C38_2 1_555 1_555
H37_2 C39_2 1_555 1_555
C40_2 C39_2 1_555 1_555
H38_2 C40_2 1_555 1_555
C41_2 C40_2 1_555 1_555
H39_2 C41_2 1_555 1_555
C42_2 N10_2 1_555 1_555
H40_2 C42_2 1_555 1_555
O3_2 Cu3_2 1_555 1_555
C2_2 C8_2 1_555 1_555
C3_2 C4_2 1_555 1_555
C5_2 C6_2 1_555 1_555
C6_2 C7_2 1_555 1_555
C41_2 C42_2 1_555 1_555
N4 H46_2 1_555 1_555
O6_2 C14_2 1_555 1_555
C14_2 O17_2 1_555 1_555
Cu10_2 O6_2 1_555 1_555
Cu9 N3_2 1_555 1_555
N3_2 H13_2 1_555 1_555
H20_2 N3_2 1_555 1_555
O14_2 Cu3_3 1_555 1_555
C17_2 C20_2 1_555 1_555
C20_2 H27_2 1_555 1_555
C23_2 N3_2 1_555 1_555
C26_2 C23_2 1_555 1_555
H30_2 C26_2 1_555 1_555
C29_2 C14_2 1_555 1_555
C32_2 C17_2 1_555 1_555
H33_2 C32_2 1_555 1_555
C35_2 O11_2 1_555 1_555
N10_3 Cu3_3 1_555 1_555
C38_3 N10_3 1_555 1_555
H36_3 C38_3 1_555 1_555
C39_3 C38_3 1_555 1_555
H37_3 C39_3 1_555 1_555
C40_3 C39_3 1_555 1_555
H38_3 C40_3 1_555 1_555
C41_3 C40_3 1_555 1_555
H39_3 C41_3 1_555 1_555
C42_3 N10_3 1_555 1_555
H40_3 C42_3 1_555 1_555
O20_3 Cu10_2 1_555 1_555
H41_2 O20_3 1_555 1_555
O14_2 C35_2 1_555 1_555
C17_2 C35_2 1_555 1_555
C20_2 C23_2 1_555 1_555
C26_2 C29_2 1_555 1_555
C29_2 C32_2 1_555 1_555
C41_3 C42_3 1_555 1_555
N5 H45_2 1_555 1_555
Cu1_2 N2_2 1_555 1_555
N2_2 C9_2 1_555 1_555
C9_2 H6_2 1_555 1_555
C10_2 C9_2 1_555 1_555
H7_2 C10_2 1_555 1_555
C11_2 C10_2 1_555 1_555
H8_2 C11_2 1_555 1_555
C12_2 C11_2 1_555 1_555
H9_2 C12_2 1_555 1_555
C13_2 N2_2 1_555 1_555
H10_2 C13_2 1_555 1_555
O8_2 C16_2 1_555 1_555
C16_2 O19_2 1_555 1_555
Cu6 O8_2 1_555 1_555
O16_2 Cu1_2 1_555 1_555
C19_2 C22_2 1_555 1_555
C22_2 H29_2 1_555 1_555
C25_2 N9 1_555 1_555
C28_2 C25_2 1_555 1_555
H32_2 C28_2 1_555 1_555
C31_2 C16_2 1_555 1_555
C34_2 C19_2 1_555 1_555
H35_2 C34_2 1_555 1_555
C37_2 O13_2 1_555 1_555
C12_2 C13_2 1_555 1_555
O16_2 C37_2 1_555 1_555
C19_2 C37_2 1_555 1_555
C22_2 C25_2 1_555 1_555
C28_2 C31_2 1_555 1_555
C31_2 C34_2 1_555 1_555
Cu1_3 N2_3 1_555 1_555
N2_3 C9_3 1_555 1_555
C9_3 H6_3 1_555 1_555
C10_3 C9_3 1_555 1_555
H7_3 C10_3 1_555 1_555
C11_3 C10_3 1_555 1_555
H8_3 C11_3 1_555 1_555
C12_3 C11_3 1_555 1_555
H9_3 C12_3 1_555 1_555
C13_3 N2_3 1_555 1_555
H10_3 C13_3 1_555 1_555
O7_2 C15_2 1_555 1_555
C15_2 O18_2 1_555 1_555
Cu5 O7_2 1_555 1_555
O15_2 Cu1_3 1_555 1_555
C18_2 C21_2 1_555 1_555
C21_2 H28_2 1_555 1_555
C24_2 N7 1_555 1_555
C27_2 C24_2 1_555 1_555
H31_2 C27_2 1_555 1_555
C30_2 C15_2 1_555 1_555
C33_2 C18_2 1_555 1_555
H34_2 C33_2 1_555 1_555
C36_2 O12_2 1_555 1_555
C12_3 C13_3 1_555 1_555
O15_2 C36_2 1_555 1_555
C18_2 C36_2 1_555 1_555
C21_2 C24_2 1_555 1_555
C27_2 C30_2 1_555 1_555
C30_2 C33_2 1_555 1_555
O5_4 Cu9 1_555 1_555
H11_3 O5_4 1_555 1_555
H12_3 O5_4 1_555 1_555
O9_3 Cu9 1_555 1_555
O10_3 Cu7 1_555 1_555
N6_3 Cu9 1_555 1_555
N8_3 Cu7 1_555 1_555
H16_3 N6_3 1_555 1_555
H18_3 N8_3 1_555 1_555
H23_3 N6_3 1_555 1_555
H25_3 N8_3 1_555 1_555
O20_4 Cu7 1_555 1_555
H41_3 O20_4 1_555 1_555
H42_3 O20_4 1_555 1_555
N8_3 H43_3 1_555 1_555
N6_3 H44_3 1_555 1_555
N1_2 H45_3 1_555 1_555
N3_2 H46_3 1_555 1_555
O9_2 C1_3 1_555 1_555
C1_3 O4_3 1_555 1_555
O3_3 C8_3 1_555 1_555
C2_3 C3_3 1_555 1_555
C3_3 H3_3 1_555 1_555
C4_3 N8_3 1_555 1_555
C5_3 C4_3 1_555 1_555
H4_3 C5_3 1_555 1_555
C6_3 C1_3 1_555 1_555
C7_3 C2_3 1_555 1_555
H5_3 C7_3 1_555 1_555
C8_3 O2_3 1_555 1_555
O10_2 C14_3 1_555 1_555
C14_3 O17_3 1_555 1_555
O14_3 Cu3_4 1_555 1_555
C17_3 C20_3 1_555 1_555
C20_3 H27_3 1_555 1_555
C23_3 N6_3 1_555 1_555
C26_3 C23_3 1_555 1_555
H30_3 C26_3 1_555 1_555
C29_3 C14_3 1_555 1_555
C32_3 C17_3 1_555 1_555
H33_3 C32_3 1_555 1_555
C35_3 O11_3 1_555 1_555
N10_4 Cu3_4 1_555 1_555
C38_4 N10_4 1_555 1_555
H36_4 C38_4 1_555 1_555
C39_4 C38_4 1_555 1_555
H37_4 C39_4 1_555 1_555
C40_4 C39_4 1_555 1_555
H38_4 C40_4 1_555 1_555
C41_4 C40_4 1_555 1_555
H39_4 C41_4 1_555 1_555
C42_4 N10_4 1_555 1_555
H40_4 C42_4 1_555 1_555
O3_3 Cu3_4 1_555 1_555
C2_3 C8_3 1_555 1_555
C3_3 C4_3 1_555 1_555
C5_3 C6_3 1_555 1_555
C6_3 C7_3 1_555 1_555
O14_3 C35_3 1_555 1_555
C17_3 C35_3 1_555 1_555
C20_3 C23_3 1_555 1_555
C26_3 C29_3 1_555 1_555
C29_3 C32_3 1_555 1_555
C41_4 C42_4 1_555 1_555
Cu1_4 N2_4 1_555 1_555
N2_4 C9_4 1_555 1_555
C9_4 H6_4 1_555 1_555
C10_4 C9_4 1_555 1_555
H7_4 C10_4 1_555 1_555
C11_4 C10_4 1_555 1_555
H8_4 C11_4 1_555 1_555
C12_4 C11_4 1_555 1_555
H9_4 C12_4 1_555 1_555
C13_4 N2_4 1_555 1_555
H10_4 C13_4 1_555 1_555
O7_3 C15_3 1_555 1_555
O8_3 C16_3 1_555 1_555
C15_3 O18_3 1_555 1_555
C16_3 O19_3 1_555 1_555
Cu5_2 O7_3 1_555 1_555
Cu6_2 O8_3 1_555 1_555
O15_3 Cu1_4 1_555 1_555
O16_3 Cu1_4 1_555 1_555
C18_3 C21_3 1_555 1_555
C19_3 C22_3 1_555 1_555
C21_3 H28_3 1_555 1_555
C22_3 H29_3 1_555 1_555
C24_3 N6 1_555 1_555
C25_3 N8 1_555 1_555
C27_3 C24_3 1_555 1_555
C28_3 C25_3 1_555 1_555
H31_3 C27_3 1_555 1_555
H32_3 C28_3 1_555 1_555
C30_3 C15_3 1_555 1_555
C31_3 C16_3 1_555 1_555
C33_3 C18_3 1_555 1_555
C34_3 C19_3 1_555 1_555
H34_3 C33_3 1_555 1_555
H35_3 C34_3 1_555 1_555
C36_3 O12_3 1_555 1_555
C37_3 O13_3 1_555 1_555
C12_4 C13_4 1_555 1_555
O15_3 C36_3 1_555 1_555
O16_3 C37_3 1_555 1_555
C18_3 C36_3 1_555 1_555
C19_3 C37_3 1_555 1_555
C21_3 C24_3 1_555 1_555
C22_3 C25_3 1_555 1_555
C27_3 C30_3 1_555 1_555
C28_3 C31_3 1_555 1_555
C30_3 C33_3 1_555 1_555
C31_3 C34_3 1_555 1_555
O5_5 Cu6 1_555 1_555
H12_4 O5_5 1_555 1_555
O20_5 Cu5 1_555 1_555
H42_4 O20_5 1_555 1_555
N1 H43_4 1_555 1_555
N3 H44_4 1_555 1_555
O5_6 Cu6_2 1_555 1_555
H11_4 O5_6 1_555 1_555
N7_2 Cu6_2 1_555 1_555
N9_2 Cu5_2 1_555 1_555
H17_2 N7_2 1_555 1_555
H19_2 N9_2 1_555 1_555
H24_2 N7_2 1_555 1_555
H26_2 N9_2 1_555 1_555
O20_6 Cu5_2 1_555 1_555
H41_4 O20_6 1_555 1_555
N9_2 H45_4 1_555 1_555
N7_2 H46_4 1_555 1_555
O10_3 C15_4 1_555 1_555
C15_4 O18_4 1_555 1_555
O12_4 Cu3_5 1_555 1_555
O14_4 Cu3_5 1_555 1_555
C18_4 C21_4 1_555 1_555
C21_4 H28_4 1_555 1_555
C24_4 N6_2 1_555 1_555
C27_4 C24_4 1_555 1_555
H31_4 C27_4 1_555 1_555
C30_4 C15_4 1_555 1_555
C33_4 C18_4 1_555 1_555
H34_4 C33_4 1_555 1_555
C36_4 O12_4 1_555 1_555
N10_5 Cu3_5 1_555 1_555
C38_5 N10_5 1_555 1_555
H36_5 C38_5 1_555 1_555
C39_5 C38_5 1_555 1_555
H37_5 C39_5 1_555 1_555
C40_5 C39_5 1_555 1_555
H38_5 C40_5 1_555 1_555
C41_5 C40_5 1_555 1_555
H39_5 C41_5 1_555 1_555
C42_5 N10_5 1_555 1_555
H40_5 C42_5 1_555 1_555
C18_4 C36_4 1_555 1_555
C21_4 C24_4 1_555 1_555
C27_4 C30_4 1_555 1_555
C30_4 C33_4 1_555 1_555
C41_5 C42_5 1_555 1_555
O9_3 C16_4 1_555 1_555
C16_4 O19_4 1_555 1_555
O13_4 Cu3_6 1_555 1_555
C19_4 C22_4 1_555 1_555
C22_4 H29_4 1_555 1_555
C25_4 N8_2 1_555 1_555
C28_4 C25_4 1_555 1_555
H32_4 C28_4 1_555 1_555
C31_4 C16_4 1_555 1_555
C34_4 C19_4 1_555 1_555
H35_4 C34_4 1_555 1_555
C37_4 O13_4 1_555 1_555
N10_6 Cu3_6 1_555 1_555
C38_6 N10_6 1_555 1_555
H36_6 C38_6 1_555 1_555
C39_6 C38_6 1_555 1_555
H37_6 C39_6 1_555 1_555
C40_6 C39_6 1_555 1_555
H38_6 C40_6 1_555 1_555
C41_6 C40_6 1_555 1_555
H39_6 C41_6 1_555 1_555
C42_6 N10_6 1_555 1_555
H40_6 C42_6 1_555 1_555
O3_4 Cu3_6 1_555 1_555
C19_4 C37_4 1_555 1_555
C22_4 C25_4 1_555 1_555
C28_4 C31_4 1_555 1_555
C31_4 C34_4 1_555 1_555
C41_6 C42_6 1_555 1_555
Cu1_5 N2_5 1_555 1_555
N2_5 C9_5 1_555 1_555
C9_5 H6_5 1_555 1_555
C10_5 C9_5 1_555 1_555
H7_5 C10_5 1_555 1_555
C11_5 C10_5 1_555 1_555
H8_5 C11_5 1_555 1_555
C12_5 C11_5 1_555 1_555
H9_5 C12_5 1_555 1_555
C13_5 N2_5 1_555 1_555
H10_5 C13_5 1_555 1_555
O10 C14_4 1_555 1_555
C14_4 O17_4 1_555 1_555
O11_4 Cu1_5 1_555 1_555
O15_4 Cu1_5 1_555 1_555
C17_4 C20_4 1_555 1_555
C20_4 H27_4 1_555 1_555
C23_4 N7_2 1_555 1_555
C26_4 C23_4 1_555 1_555
H30_4 C26_4 1_555 1_555
C29_4 C14_4 1_555 1_555
C32_4 C17_4 1_555 1_555
H33_4 C32_4 1_555 1_555
C35_4 O11_4 1_555 1_555
C12_5 C13_5 1_555 1_555
C17_4 C35_4 1_555 1_555
C20_4 C23_4 1_555 1_555
C26_4 C29_4 1_555 1_555
C29_4 C32_4 1_555 1_555
O9 C1_4 1_555 1_555
C1_4 O4_4 1_555 1_555
O2_4 Cu1_6 1_555 1_555
Cu1_6 N2_6 1_555 1_555
C2_4 C3_4 1_555 1_555
C3_4 H3_4 1_555 1_555
C4_4 N9_2 1_555 1_555
C5_4 C4_4 1_555 1_555
H4_4 C5_4 1_555 1_555
C6_4 C1_4 1_555 1_555
C7_4 C2_4 1_555 1_555
H5_4 C7_4 1_555 1_555
C8_4 O2_4 1_555 1_555
N2_6 C9_6 1_555 1_555
C9_6 H6_6 1_555 1_555
C10_6 C9_6 1_555 1_555
H7_6 C10_6 1_555 1_555
C11_6 C10_6 1_555 1_555
H8_6 C11_6 1_555 1_555
C12_6 C11_6 1_555 1_555
H9_6 C12_6 1_555 1_555
C13_6 N2_6 1_555 1_555
H10_6 C13_6 1_555 1_555
O16_4 Cu1_6 1_555 1_555
C2_4 C8_4 1_555 1_555
C3_4 C4_4 1_555 1_555
C5_4 C6_4 1_555 1_555
C6_4 C7_4 1_555 1_555
C12_6 C13_6 1_555 1_555

#END
