
###############################################################################
#
# This file contains modified crystal structure data generated from the
# MOF subset of the Cambridge Structural Database (CSD) v543 
# hosted by the Cambridge Crystallographic Data Centre (CCDC).
#
# This work is licensed under the Creative Commons
# Attribution-NonCommercial-ShareAlike 4.0 International License.
# To view a copy of this license, visit
# http://creativecommons.org/licenses/by-nc-sa/4.0/
# or send a letter to
# Creative Commons, PO Box 1866, Mountain View, CA 94042, USA.
#
# CIF created using the CSD Python API on 29 September 2022
# The structure has been converted into the P1 space group
# The structure has a 3D framework
# The original CSD entry CITZIP is in the monoclinic crystal system
# The framework has been calculated to contain at least 10.0% void space
# The void calculation uses a probe of radius 1.32A, grid spacing 0.4
#
###############################################################################

data_CITZIP
_chemical_formula_moiety         '(C56 H24 Co10 N8 O40)n'
_symmetry_cell_setting           triclinic
_symmetry_space_group_name_H-M   'P 1'
_symmetry_Int_Tables_number      1
_space_group_name_Hall           'P 1'
loop_
_symmetry_equiv_pos_site_id
_symmetry_equiv_pos_as_xyz
1 x,y,z
_cell_length_a                   17.5151(5)
_cell_length_b                   13.7564(2)
_cell_length_c                   10.8123(4)
_cell_angle_alpha                90
_cell_angle_beta                 105.532(2)
_cell_angle_gamma                90
_cell_volume                     2510.03
loop_
_atom_site_label
_atom_site_type_symbol
_atom_site_fract_x
_atom_site_fract_y
_atom_site_fract_z
O2 O 0.0809(3) 0.0127(4) 0.2317(6)
O3 O 0.1377(4) 0.0916(5) 0.4108(6)
N1 N 0.1878(4) 0.0677(5) 0.1162(7)
O4 O 0.4177(4) 0.2934(5) 0.2284(7)
C1 C 0.2971(6) 0.1672(7) 0.1042(9)
H1 H 0.3331 0.1853 0.0589
C2 C 0.2405(5) 0.0959(7) 0.0556(9)
C3 C 0.2995(5) 0.2108(6) 0.2195(8)
O5 O 0.3423(4) 0.3479(5) 0.3494(7)
C4 C 0.2455(5) 0.1790(7) 0.2863(8)
H3 H 0.2461 0.2055 0.3656
C5 C 0.3582(5) 0.2909(7) 0.2711(9)
C6 C 0.1918(5) 0.1077(7) 0.2320(8)
C7 C 0.1324(5) 0.0692(6) 0.2973(9)
Co3 Co 0.5000 0.40413(12) 0.2500
Co7 Co 0.09052(6) 0.03040(9) 0.54928(11)
Co8 Co 0.40948(6) 0.46960(9) 0.45072(11)
H2 H 0.2398 0.0669 0.9775
O7 O 0.0211(3) 0.0842(4) 0.9486(5)
Co1 Co 0.0000 0.90413(12) 0.2500
Co2 Co 0.09052(6) 0.96960(9) 0.04928(11)
O6 O 0.0211(3) 0.9158(4) 0.4486(5)
O15 O 0.0823(4) 0.7934(5) 0.2716(7)
O17 O 0.1577(4) 0.8479(5) 0.1506(7)
O11 O 0.1377(4) 0.9084(5) 0.9108(6)
Co9 Co 0.59052(6) 0.46960(9) 0.04928(11)
O8 O 0.9789(3) 0.0842(4) 0.5514(5)
O9 O 0.9191(3) 0.0127(4) 0.2683(6)
O10 O 0.8623(4) 0.0916(5) 0.0892(6)
N2 N 0.8122(4) 0.0677(5) 0.3838(7)
O13 O 0.5823(4) 0.2934(5) 0.2716(7)
C8 C 0.7029(6) 0.1672(7) 0.3958(9)
H4 H 0.6669 0.1853 0.4411
C9 C 0.7595(5) 0.0959(7) 0.4444(9)
H5 H 0.7602 0.0669 0.5225
C10 C 0.7005(5) 0.2108(6) 0.2805(8)
O16 O 0.6577(4) 0.3479(5) 0.1506(7)
C11 C 0.7545(5) 0.1790(7) 0.2137(8)
H6 H 0.7539 0.2055 0.1344
C12 C 0.6418(5) 0.2909(7) 0.2289(9)
C13 C 0.8082(5) 0.1077(7) 0.2680(8)
C14 C 0.8676(5) 0.0692(6) 0.2027(9)
Co6 Co 0.90948(6) 0.03040(9) 0.95072(11)
Co1_2 Co 1.0000 0.90413(12) 0.2500
O1 O 0.9789(3) 0.9158(4) 0.0514(5)
Co5 Co 0.90948(6) 0.96960(9) 0.45072(11)
O12 O 0.8623(4) 0.9084(5) 0.5892(6)
O14 O 0.9177(4) 0.7934(5) 0.2284(7)
O18 O 0.8423(4) 0.8479(5) 0.3494(7)
O1_2 O 0.4789(3) 0.4158(4) 0.0514(5)
O2_2 O 0.5809(3) 0.5127(4) 0.2317(6)
O3_2 O 0.6377(4) 0.5916(5) 0.4108(6)
N1_2 N 0.6878(4) 0.5677(5) 0.1162(7)
C1_2 C 0.7971(6) 0.6672(7) 0.1042(9)
H1_2 H 0.8331 0.6853 0.0589
C2_2 C 0.7405(5) 0.5959(7) 0.0556(9)
C3_2 C 0.7995(5) 0.7108(6) 0.2195(8)
C4_2 C 0.7455(5) 0.6790(7) 0.2863(8)
H3_2 H 0.7461 0.7055 0.3656
C5_2 C 0.8582(5) 0.7909(7) 0.2711(9)
C6_2 C 0.6918(5) 0.6077(7) 0.2320(8)
C7_2 C 0.6324(5) 0.5692(6) 0.2973(9)
Co7_2 Co 0.59052(6) 0.53040(9) 0.54928(11)
O6_2 O 0.5211(3) 0.4158(4) 0.4486(5)
O8_2 O 0.4789(3) 0.5842(4) 0.5514(5)
O9_2 O 0.4191(3) 0.5127(4) 0.2683(6)
O10_2 O 0.3623(4) 0.5916(5) 0.0892(6)
O12_2 O 0.3623(4) 0.4084(5) 0.5892(6)
N2_2 N 0.3122(4) 0.5677(5) 0.3838(7)
C8_2 C 0.2029(6) 0.6672(7) 0.3958(9)
H4_2 H 0.1669 0.6853 0.4411
C9_2 C 0.2595(5) 0.5959(7) 0.4444(9)
H5_2 H 0.2602 0.5669 0.5225
C10_2 C 0.2005(5) 0.7108(6) 0.2805(8)
C11_2 C 0.2545(5) 0.6790(7) 0.2137(8)
H6_2 H 0.2539 0.7055 0.1344
C12_2 C 0.1418(5) 0.7909(7) 0.2289(9)
C13_2 C 0.3082(5) 0.6077(7) 0.2680(8)
C14_2 C 0.3676(5) 0.5692(6) 0.2027(9)
H2_2 H 0.7398 0.5669 0.9775
Co6_2 Co 0.40948(6) 0.53040(9) 0.95072(11)
O7_2 O 0.5211(3) 0.5842(4) 0.9486(5)
O11_2 O 0.6377(4) 0.4084(5) 0.9108(6)
Co1_3 Co -0.0000 0.09587(12) 0.7500
O14_2 O 0.0823(4) 0.2066(5) 0.7716(7)
O18_2 O 0.1577(4) 0.1521(5) 0.6506(7)
Co4 Co 0.5000 0.59587(12) 0.7500
O9_3 O 0.0809(3) 0.9873(4) 0.7317(6)
N2_3 N 0.1878(4) 0.9323(5) 0.6162(7)
O13_2 O 0.4177(4) 0.7066(5) 0.7284(7)
C8_3 C 0.2971(6) 0.8328(7) 0.6042(9)
H4_3 H 0.3331 0.8147 0.5589
C9_3 C 0.2405(5) 0.9041(7) 0.5556(9)
H5_3 H 0.2398 0.9331 0.4775
C10_3 C 0.2995(5) 0.7892(6) 0.7195(8)
O16_2 O 0.3423(4) 0.6521(5) 0.8494(7)
C11_3 C 0.2455(5) 0.8210(7) 0.7863(8)
H6_3 H 0.2461 0.7945 0.8656
C12_3 C 0.3582(5) 0.7091(7) 0.7711(9)
C13_3 C 0.1918(5) 0.8923(7) 0.7320(8)
C14_3 C 0.1324(5) 0.9308(6) 0.7973(9)
Co1_4 Co 1.0000 0.09587(12) 0.7500
O15_2 O 0.9177(4) 0.2066(5) 0.7284(7)
O17_2 O 0.8423(4) 0.1521(5) 0.8494(7)
H2_3 H 0.7602 0.9331 0.0225
O2_3 O 0.9191(3) 0.9873(4) 0.7683(6)
N1_3 N 0.8122(4) 0.9323(5) 0.8838(7)
O4_2 O 0.5823(4) 0.7066(5) 0.7716(7)
C1_3 C 0.7029(6) 0.8328(7) 0.8958(9)
H1_3 H 0.6669 0.8147 0.9411
C2_3 C 0.7595(5) 0.9041(7) 0.9444(9)
C3_3 C 0.7005(5) 0.7892(6) 0.7805(8)
O5_2 O 0.6577(4) 0.6521(5) 0.6506(7)
C4_3 C 0.7545(5) 0.8210(7) 0.7137(8)
H3_3 H 0.7539 0.7945 0.6344
C5_3 C 0.6418(5) 0.7091(7) 0.7289(9)
C6_3 C 0.8082(5) 0.8923(7) 0.7680(8)
C7_3 C 0.8676(5) 0.9308(6) 0.7027(9)
H2_4 H 0.2602 0.4331 0.0225
O2_4 O 0.4191(3) 0.4873(4) 0.7683(6)
N1_4 N 0.3122(4) 0.4323(5) 0.8838(7)
C1_4 C 0.2029(6) 0.3328(7) 0.8958(9)
H1_4 H 0.1669 0.3147 0.9411
C2_4 C 0.2595(5) 0.4041(7) 0.9444(9)
C3_4 C 0.2005(5) 0.2892(6) 0.7805(8)
C4_4 C 0.2545(5) 0.3210(7) 0.7137(8)
H3_4 H 0.2539 0.2945 0.6344
C5_4 C 0.1418(5) 0.2091(7) 0.7289(9)
C6_4 C 0.3082(5) 0.3923(7) 0.7680(8)
C7_4 C 0.3676(5) 0.4308(6) 0.7027(9)
O9_4 O 0.5809(3) 0.4873(4) 0.7317(6)
N2_4 N 0.6878(4) 0.4323(5) 0.6162(7)
C8_4 C 0.7971(6) 0.3328(7) 0.6042(9)
H4_4 H 0.8331 0.3147 0.5589
C9_4 C 0.7405(5) 0.4041(7) 0.5556(9)
H5_4 H 0.7398 0.4331 0.4775
C10_4 C 0.7995(5) 0.2892(6) 0.7195(8)
C11_4 C 0.7455(5) 0.3210(7) 0.7863(8)
H6_4 H 0.7461 0.2945 0.8656
C12_4 C 0.8582(5) 0.2091(7) 0.7711(9)
C13_4 C 0.6918(5) 0.3923(7) 0.7320(8)
C14_4 C 0.6324(5) 0.4308(6) 0.7973(9)
loop_
_geom_bond_atom_site_label_1
_geom_bond_atom_site_label_2
_geom_bond_site_symmetry_1
_geom_bond_site_symmetry_2
O3 C7 1_555 1_555
O4 C5 1_555 1_555
C1 H1 1_555 1_555
C2 N1 1_555 1_555
C3 C1 1_555 1_555
O5 C5 1_555 1_555
C4 C3 1_555 1_555
H3 C4 1_555 1_555
C5 C3 1_555 1_555
C6 N1 1_555 1_555
C7 O2 1_555 1_555
Co3 O4 1_555 1_555
Co7 O3 1_555 1_555
Co8 O5 1_555 1_555
C1 C2 1_555 1_555
C4 C6 1_555 1_555
C6 C7 1_555 1_555
O6 Co1 1_555 1_555
O15 Co1 1_555 1_555
O17 Co2 1_555 1_555
Co3 O13 1_555 1_555
Co9 O16 1_555 1_555
O13 C12 1_555 1_555
C8 H4 1_555 1_555
C9 N2 1_555 1_555
H5 C9 1_555 1_555
C10 C8 1_555 1_555
O16 C12 1_555 1_555
C11 C10 1_555 1_555
H6 C11 1_555 1_555
C12 C10 1_555 1_555
C13 N2 1_555 1_555
C14 O9 1_555 1_555
O10 C14 1_555 1_555
C8 C9 1_555 1_555
C11 C13 1_555 1_555
C13 C14 1_555 1_555
Co1_2 O1 1_555 1_555
O12 Co5 1_555 1_555
O14 Co1_2 1_555 1_555
O18 Co5 1_555 1_555
Co3 O1_2 1_555 1_555
Co9 O1_2 1_555 1_555
O2_2 Co3 1_555 1_555
O3_2 C7_2 1_555 1_555
N1_2 Co9 1_555 1_555
O14 C5_2 1_555 1_555
C1_2 H1_2 1_555 1_555
C2_2 N1_2 1_555 1_555
C3_2 C1_2 1_555 1_555
O18 C5_2 1_555 1_555
C4_2 C3_2 1_555 1_555
H3_2 C4_2 1_555 1_555
C5_2 C3_2 1_555 1_555
C6_2 N1_2 1_555 1_555
C7_2 O2_2 1_555 1_555
Co8 O6_2 1_555 1_555
Co7_2 O3_2 1_555 1_555
O6_2 Co3 1_555 1_555
O8_2 Co8 1_555 1_555
O9_2 Co3 1_555 1_555
O12_2 Co8 1_555 1_555
N2_2 Co8 1_555 1_555
O15 C12_2 1_555 1_555
C8_2 H4_2 1_555 1_555
C9_2 N2_2 1_555 1_555
H5_2 C9_2 1_555 1_555
C10_2 C8_2 1_555 1_555
O17 C12_2 1_555 1_555
C11_2 C10_2 1_555 1_555
H6_2 C11_2 1_555 1_555
C12_2 C10_2 1_555 1_555
C13_2 N2_2 1_555 1_555
C14_2 O9_2 1_555 1_555
Co9 O2_2 1_555 1_555
C1_2 C2_2 1_555 1_555
C4_2 C6_2 1_555 1_555
C6_2 C7_2 1_555 1_555
Co8 O9_2 1_555 1_555
Co7_2 O6_2 1_555 1_555
Co7_2 O8_2 1_555 1_555
O10_2 C14_2 1_555 1_555
C8_2 C9_2 1_555 1_555
C11_2 C13_2 1_555 1_555
C13_2 C14_2 1_555 1_555
Co6_2 O7_2 1_555 1_555
Co1_3 O7 1_555 1_555
O14_2 Co1_3 1_555 1_555
O18_2 Co7 1_555 1_555
Co4 O13_2 1_555 1_555
Co6_2 O16_2 1_555 1_555
O13_2 C12_3 1_555 1_555
C8_3 H4_3 1_555 1_555
C9_3 N2_3 1_555 1_555
H5_3 C9_3 1_555 1_555
C10_3 C8_3 1_555 1_555
O16_2 C12_3 1_555 1_555
C11_3 C10_3 1_555 1_555
H6_3 C11_3 1_555 1_555
C12_3 C10_3 1_555 1_555
C13_3 N2_3 1_555 1_555
C14_3 O9_3 1_555 1_555
O11 C14_3 1_555 1_555
C8_3 C9_3 1_555 1_555
C11_3 C13_3 1_555 1_555
C13_3 C14_3 1_555 1_555
O8 Co1_4 1_555 1_555
O15_2 Co1_4 1_555 1_555
O17_2 Co6 1_555 1_555
O12 C7_3 1_555 1_555
O4_2 C5_3 1_555 1_555
C1_3 H1_3 1_555 1_555
C2_3 N1_3 1_555 1_555
C3_3 C1_3 1_555 1_555
O5_2 C5_3 1_555 1_555
C4_3 C3_3 1_555 1_555
H3_3 C4_3 1_555 1_555
C5_3 C3_3 1_555 1_555
C6_3 N1_3 1_555 1_555
C7_3 O2_3 1_555 1_555
Co4 O4_2 1_555 1_555
Co7_2 O5_2 1_555 1_555
C1_3 C2_3 1_555 1_555
C4_3 C6_3 1_555 1_555
C6_3 C7_3 1_555 1_555
Co4 O7_2 1_555 1_555
O2_4 Co4 1_555 1_555
O12_2 C7_4 1_555 1_555
N1_4 Co6_2 1_555 1_555
O14_2 C5_4 1_555 1_555
C1_4 H1_4 1_555 1_555
C2_4 N1_4 1_555 1_555
C3_4 C1_4 1_555 1_555
O18_2 C5_4 1_555 1_555
C4_4 C3_4 1_555 1_555
H3_4 C4_4 1_555 1_555
C5_4 C3_4 1_555 1_555
C6_4 N1_4 1_555 1_555
C7_4 O2_4 1_555 1_555
O8_2 Co4 1_555 1_555
O9_4 Co4 1_555 1_555
N2_4 Co7_2 1_555 1_555
O15_2 C12_4 1_555 1_555
C8_4 H4_4 1_555 1_555
C9_4 N2_4 1_555 1_555
H5_4 C9_4 1_555 1_555
C10_4 C8_4 1_555 1_555
O17_2 C12_4 1_555 1_555
C11_4 C10_4 1_555 1_555
H6_4 C11_4 1_555 1_555
C12_4 C10_4 1_555 1_555
C13_4 N2_4 1_555 1_555
C14_4 O9_4 1_555 1_555
Co6_2 O2_4 1_555 1_555
C1_4 C2_4 1_555 1_555
C4_4 C6_4 1_555 1_555
C6_4 C7_4 1_555 1_555
Co7_2 O9_4 1_555 1_555
O11_2 C14_4 1_555 1_555
C8_4 C9_4 1_555 1_555
C11_4 C13_4 1_555 1_555
C13_4 C14_4 1_555 1_555

#END
