
###############################################################################
#
# This file contains modified crystal structure data generated from the
# MOF subset of the Cambridge Structural Database (CSD) v543 
# hosted by the Cambridge Crystallographic Data Centre (CCDC).
#
# This work is licensed under the Creative Commons
# Attribution-NonCommercial-ShareAlike 4.0 International License.
# To view a copy of this license, visit
# http://creativecommons.org/licenses/by-nc-sa/4.0/
# or send a letter to
# Creative Commons, PO Box 1866, Mountain View, CA 94042, USA.
#
# CIF created using the CSD Python API on 29 September 2022
# The structure has been converted into the P1 space group
# The structure has a 3D framework
# The original CSD entry CIVTEH is in the monoclinic crystal system
# The framework has been calculated to contain at least 10.0% void space
# The void calculation uses a probe of radius 1.32A, grid spacing 0.4
#
###############################################################################

data_CIVTEH
_chemical_formula_moiety         '(C192 H96 Cu8 N48 O40)n'
_symmetry_cell_setting           triclinic
_symmetry_space_group_name_H-M   'P 1'
_symmetry_Int_Tables_number      1
_space_group_name_Hall           'P 1'
loop_
_symmetry_equiv_pos_site_id
_symmetry_equiv_pos_as_xyz
1 x,y,z
_cell_length_a                   12.2342(11)
_cell_length_b                   25.093(2)
_cell_length_c                   19.6064(18)
_cell_angle_alpha                90
_cell_angle_beta                 104.225(2)
_cell_angle_gamma                90
_cell_volume                     5834.47
loop_
_atom_site_label
_atom_site_type_symbol
_atom_site_fract_x
_atom_site_fract_y
_atom_site_fract_z
H11 H 0.6024 0.2042 0.0489
Cu4 Cu 0.41877(5) 0.27802(2) 0.03777(3)
N1 N 0.6573(3) 0.14311(15) 0.79298(19)
C8 C 0.6567(4) 0.0342(2) 0.8261(3)
C9 C 0.7043(4) 0.05300(18) 0.7734(2)
C10 C 0.7034(4) 0.1074(2) 0.7585(2)
C11 C 0.6140(4) 0.12614(19) 0.8454(2)
C12 C 0.6084(4) 0.0719(2) 0.8610(2)
C13 C 0.5354(6) 0.0551(3) 0.9049(4)
N2 N 0.4836(6) 0.0459(4) 0.9443(4)
C14 C 0.7343(6) 0.0126(3) 0.7280(4)
N4 N 0.8535(3) 0.18281(15) 0.60773(19)
C15 C 0.7571(4) 0.13162(19) 0.7043(2)
C16 C 0.8196(4) 0.1775(2) 0.7229(3)
H5 H 0.8306 0.1917 0.7690
C17 C 0.8667(5) 0.2029(2) 0.6736(3)
H6 H 0.9086 0.2348 0.6863
C18 C 0.7950(4) 0.13767(19) 0.5915(3)
H7 H 0.7857 0.1233 0.5456
C19 C 0.7479(5) 0.11112(19) 0.6384(3)
H8 H 0.7089 0.0785 0.6251
N5 N 0.4906(3) 0.23824(16) 0.9715(2)
C20 C 0.5734(4) 0.1677(2) 0.8873(2)
C21 C 0.4925(4) 0.2043(2) 0.8579(3)
H9 H 0.4630 0.2060 0.8084
C22 C 0.4548(4) 0.2389(2) 0.9028(2)
H10 H 0.3995 0.2646 0.8823
C23 C 0.5727(5) 0.2039(3) 0.9994(3)
C24 C 0.6164(5) 0.1683(3) 0.9601(3)
H12 H 0.6750 0.1446 0.9820
Cu3 Cu 0.91877(5) 0.22198(2) 0.53777(3)
Cu2 Cu 0.91877(5) 0.77802(2) 0.03777(3)
O6 O 0.7260(3) 0.70351(13) 0.05085(17)
N8 N 0.5094(3) 0.76176(16) 0.0285(2)
Cu1 Cu 0.58123(5) 0.72198(2) 0.96223(3)
O1 O 0.5877(3) 0.79103(12) 0.91576(17)
O2 O 0.7740(3) 0.79649(13) 0.94915(17)
C1 C 0.6807(4) 0.81517(18) 0.9218(2)
C2 C 0.6724(4) 0.87153(19) 0.8934(2)
C3 C 0.5676(5) 0.8969(2) 0.8710(3)
H1 H 0.5003 0.8783 0.8719
C4 C 0.5629(5) 0.9489(2) 0.8476(3)
H2 H 0.4917 0.9658 0.8316
C5 C 0.6602(4) 0.97683(19) 0.8470(3)
C6 C 0.7641(4) 0.9516(2) 0.8682(2)
H3 H 0.8313 0.9699 0.8664
C7 C 0.7690(4) 0.8990(2) 0.8924(3)
H4 H 0.8401 0.8821 0.9083
N3 N 0.7618(7) 0.9817(3) 0.6933(4)
O3 O 0.5111(3) 0.65241(13) 0.98411(17)
O4 O 0.3552(4) 0.60978(18) 0.9384(3)
O5 O 0.3870(3) 0.68789(16) 0.8982(2)
N6 N 0.4147(4) 0.64998(18) 0.9390(2)
N7 N 0.6465(3) 0.68281(15) 0.89227(19)
H11_2 H 0.1024 0.7042 0.0489
O6_2 O 0.2260(3) 0.20351(13) 0.05085(17)
N8_2 N 0.0094(3) 0.26176(16) 0.0285(2)
Cu1_2 Cu 0.08123(5) 0.22198(2) 0.96223(3)
O1_2 O 0.0877(3) 0.29103(12) 0.91576(17)
O2_2 O 0.2740(3) 0.29649(13) 0.94915(17)
C1_2 C 0.1807(4) 0.31517(18) 0.9218(2)
C2_2 C 0.1724(4) 0.37153(19) 0.8934(2)
C3_2 C 0.0676(5) 0.3969(2) 0.8710(3)
H1_2 H 0.0003 0.3783 0.8719
C4_2 C 0.0629(5) 0.4489(2) 0.8476(3)
C5_2 C 0.1602(4) 0.47683(19) 0.8470(3)
C6_2 C 0.2641(4) 0.4516(2) 0.8682(2)
H3_2 H 0.3313 0.4699 0.8664
C7_2 C 0.2690(4) 0.3990(2) 0.8924(3)
H4_2 H 0.3401 0.3821 0.9083
N1_2 N 0.1573(3) 0.64311(15) 0.79298(19)
C8_2 C 0.1567(4) 0.5342(2) 0.8261(3)
C9_2 C 0.2043(4) 0.55300(18) 0.7734(2)
C10_2 C 0.2034(4) 0.6074(2) 0.7585(2)
C11_2 C 0.1140(4) 0.62614(19) 0.8454(2)
C12_2 C 0.1084(4) 0.5719(2) 0.8610(2)
C13_2 C 0.0354(6) 0.5551(3) 0.9049(4)
C14_2 C 0.2343(6) 0.5126(3) 0.7280(4)
N3_2 N 0.2618(7) 0.4817(3) 0.6933(4)
N4_2 N 0.3535(3) 0.68281(15) 0.60773(19)
C15_2 C 0.2571(4) 0.63162(19) 0.7043(2)
C16_2 C 0.3196(4) 0.6775(2) 0.7229(3)
H5_2 H 0.3306 0.6917 0.7690
C17_2 C 0.3667(5) 0.7029(2) 0.6736(3)
H6_2 H 0.4086 0.7348 0.6863
C18_2 C 0.2950(4) 0.63767(19) 0.5915(3)
H7_2 H 0.2857 0.6233 0.5456
C19_2 C 0.2479(5) 0.61112(19) 0.6384(3)
H8_2 H 0.2089 0.5785 0.6251
C20_2 C 0.0734(4) 0.6677(2) 0.8873(2)
C23_2 C 0.0727(5) 0.7039(3) 0.9994(3)
C24_2 C 0.1164(5) 0.6683(3) 0.9601(3)
H12_2 H 0.1750 0.6446 0.9820
O3_2 O 0.0111(3) 0.15241(13) 0.98411(17)
Cu3_2 Cu 0.41877(5) 0.72198(2) 0.53777(3)
N7_2 N 0.1465(3) 0.18281(15) 0.89227(19)
H2_2 H 0.9917 0.4658 0.8316
N2_2 N 0.9836(6) 0.5459(4) 0.9443(4)
N5_2 N 0.9906(3) 0.73824(16) 0.9715(2)
C21_2 C 0.9925(4) 0.7043(2) 0.8579(3)
H9_2 H 0.9630 0.7060 0.8084
C22_2 C 0.9548(4) 0.7389(2) 0.9028(2)
H10_2 H 0.8995 0.7646 0.8823
O4_2 O 0.8552(4) 0.10978(18) 0.9384(3)
O5_2 O 0.8870(3) 0.18789(16) 0.8982(2)
N6_2 N 0.9147(4) 0.14998(18) 0.9390(2)
N1_3 N 0.3427(3) 0.14311(15) 0.70702(19)
C8_3 C 0.3433(4) 0.0342(2) 0.6739(3)
C9_3 C 0.2957(4) 0.05300(18) 0.7266(2)
C10_3 C 0.2966(4) 0.1074(2) 0.7415(2)
C11_3 C 0.3860(4) 0.12614(19) 0.6546(2)
C12_3 C 0.3916(4) 0.0719(2) 0.6390(2)
C13_3 C 0.4646(6) 0.0551(3) 0.5951(4)
N2_3 N 0.5164(6) 0.0459(4) 0.5557(4)
C14_3 C 0.2657(6) 0.0126(3) 0.7720(4)
C15_3 C 0.2429(4) 0.13162(19) 0.7957(2)
C16_3 C 0.1804(4) 0.1775(2) 0.7771(3)
H5_3 H 0.1694 0.1917 0.7310
C17_3 C 0.1333(5) 0.2029(2) 0.8264(3)
H6_3 H 0.0914 0.2348 0.8137
C18_3 C 0.2050(4) 0.13767(19) 0.9085(3)
H7_3 H 0.2143 0.1233 0.9544
C19_3 C 0.2521(5) 0.11112(19) 0.8616(3)
H8_3 H 0.2911 0.0785 0.8749
N5_3 N 0.5094(3) 0.23824(16) 0.5285(2)
C20_3 C 0.4266(4) 0.1677(2) 0.6127(2)
C21_3 C 0.5075(4) 0.2043(2) 0.6421(3)
H9_3 H 0.5370 0.2060 0.6916
C22_3 C 0.5452(4) 0.2389(2) 0.5972(2)
H10_3 H 0.6005 0.2646 0.6177
C23_3 C 0.4273(5) 0.2039(3) 0.5006(3)
H11_3 H 0.3976 0.2042 0.4511
C24_3 C 0.3836(5) 0.1683(3) 0.5399(3)
H12_3 H 0.3250 0.1446 0.5180
Cu4_2 Cu 0.58123(5) 0.27802(2) 0.46223(3)
O1_3 O 0.4123(3) 0.79103(12) 0.58424(17)
O2_3 O 0.2260(3) 0.79649(13) 0.55085(17)
C1_3 C 0.3193(4) 0.81517(18) 0.5782(2)
C2_3 C 0.3276(4) 0.87153(19) 0.6066(2)
C3_3 C 0.4324(5) 0.8969(2) 0.6290(3)
H1_3 H 0.4997 0.8783 0.6281
C4_3 C 0.4371(5) 0.9489(2) 0.6524(3)
H2_3 H 0.5083 0.9658 0.6684
C5_3 C 0.3398(4) 0.97683(19) 0.6530(3)
C6_3 C 0.2359(4) 0.9516(2) 0.6318(2)
H3_3 H 0.1687 0.9699 0.6336
C7_3 C 0.2310(4) 0.8990(2) 0.6076(3)
H4_3 H 0.1599 0.8821 0.5917
N3_3 N 0.2382(7) 0.9817(3) 0.8067(4)
O3_3 O 0.4889(3) 0.65241(13) 0.51589(17)
O4_3 O 0.6448(4) 0.60978(18) 0.5616(3)
O5_3 O 0.6130(3) 0.68789(16) 0.6018(2)
N6_3 N 0.5853(4) 0.64998(18) 0.5610(2)
Cu2_2 Cu 0.08123(5) 0.77802(2) 0.46223(3)
O6_3 O 0.2740(3) 0.70351(13) 0.44915(17)
N8_3 N 0.4906(3) 0.76176(16) 0.4715(2)
H2_4 H 0.0083 0.4658 0.6684
N2_4 N 0.0164(6) 0.5459(4) 0.5557(4)
N5_4 N 0.0094(3) 0.73824(16) 0.5285(2)
C21_4 C 0.0075(4) 0.7043(2) 0.6421(3)
H9_4 H 0.0370 0.7060 0.6916
C22_4 C 0.0452(4) 0.7389(2) 0.5972(2)
H10_4 H 0.1005 0.7646 0.6177
O4_4 O 0.1448(4) 0.10978(18) 0.5616(3)
O5_4 O 0.1130(3) 0.18789(16) 0.6018(2)
N6_4 N 0.0853(4) 0.14998(18) 0.5610(2)
O1_4 O 0.9123(3) 0.29103(12) 0.58424(17)
O2_4 O 0.7260(3) 0.29649(13) 0.55085(17)
C1_4 C 0.8193(4) 0.31517(18) 0.5782(2)
C2_4 C 0.8276(4) 0.37153(19) 0.6066(2)
C3_4 C 0.9324(5) 0.3969(2) 0.6290(3)
H1_4 H 0.9997 0.3783 0.6281
C4_4 C 0.9371(5) 0.4489(2) 0.6524(3)
C5_4 C 0.8398(4) 0.47683(19) 0.6530(3)
C6_4 C 0.7359(4) 0.4516(2) 0.6318(2)
H3_4 H 0.6687 0.4699 0.6336
C7_4 C 0.7310(4) 0.3990(2) 0.6076(3)
H4_4 H 0.6599 0.3821 0.5917
N1_4 N 0.8427(3) 0.64311(15) 0.70702(19)
C8_4 C 0.8433(4) 0.5342(2) 0.6739(3)
C9_4 C 0.7957(4) 0.55300(18) 0.7266(2)
C10_4 C 0.7966(4) 0.6074(2) 0.7415(2)
C11_4 C 0.8860(4) 0.62614(19) 0.6546(2)
C12_4 C 0.8916(4) 0.5719(2) 0.6390(2)
C13_4 C 0.9646(6) 0.5551(3) 0.5951(4)
C14_4 C 0.7657(6) 0.5126(3) 0.7720(4)
N3_4 N 0.7382(7) 0.4817(3) 0.8067(4)
C15_4 C 0.7429(4) 0.63162(19) 0.7957(2)
C16_4 C 0.6804(4) 0.6775(2) 0.7771(3)
H5_4 H 0.6694 0.6917 0.7310
C17_4 C 0.6333(5) 0.7029(2) 0.8264(3)
H6_4 H 0.5914 0.7348 0.8137
C18_4 C 0.7050(4) 0.63767(19) 0.9085(3)
H7_4 H 0.7143 0.6233 0.9544
C19_4 C 0.7521(5) 0.61112(19) 0.8616(3)
H8_4 H 0.7911 0.5785 0.8749
C20_4 C 0.9266(4) 0.6677(2) 0.6127(2)
C23_4 C 0.9273(5) 0.7039(3) 0.5006(3)
H11_4 H 0.8976 0.7042 0.4511
C24_4 C 0.8836(5) 0.6683(3) 0.5399(3)
H12_4 H 0.8250 0.6446 0.5180
O3_4 O 0.9889(3) 0.15241(13) 0.51589(17)
O6_4 O 0.7740(3) 0.20351(13) 0.44915(17)
N8_4 N 0.9906(3) 0.26176(16) 0.4715(2)
O1_5 O 0.4123(3) 0.20897(12) 0.08424(17)
C1_5 C 0.3193(4) 0.18483(18) 0.0782(2)
C2_5 C 0.3276(4) 0.12847(19) 0.1066(2)
C3_5 C 0.4324(5) 0.1031(2) 0.1290(3)
H1_5 H 0.4997 0.1217 0.1281
C4_5 C 0.4371(5) 0.0511(2) 0.1524(3)
H2_5 H 0.5083 0.0342 0.1684
C5_5 C 0.3398(4) 0.02317(19) 0.1530(3)
C6_5 C 0.2359(4) 0.0484(2) 0.1318(2)
H3_5 H 0.1687 0.0301 0.1336
C7_5 C 0.2310(4) 0.1010(2) 0.1076(3)
H4_5 H 0.1599 0.1179 0.0917
N3_5 N 0.2382(7) 0.0183(3) 0.3067(4)
O3_5 O 0.4889(3) 0.34759(13) 0.01589(17)
O4_5 O 0.6448(4) 0.39022(18) 0.0616(3)
O5_5 O 0.6130(3) 0.31211(16) 0.1018(2)
N6_5 N 0.5853(4) 0.35002(18) 0.0610(2)
N7_3 N 0.3535(3) 0.31719(15) 0.10773(19)
N1_5 N 0.3427(3) 0.85689(15) 0.20702(19)
C8_5 C 0.3433(4) 0.9658(2) 0.1739(3)
C9_5 C 0.2957(4) 0.94700(18) 0.2266(2)
C10_5 C 0.2966(4) 0.8926(2) 0.2415(2)
C11_5 C 0.3860(4) 0.87386(19) 0.1546(2)
C12_5 C 0.3916(4) 0.9281(2) 0.1390(2)
C13_5 C 0.4646(6) 0.9449(3) 0.0951(4)
N2_5 N 0.5164(6) 0.9541(4) 0.0557(4)
C14_5 C 0.2657(6) 0.9874(3) 0.2720(4)
N4_3 N 0.1465(3) 0.81719(15) 0.39227(19)
C15_5 C 0.2429(4) 0.86838(19) 0.2957(2)
C16_5 C 0.1804(4) 0.8225(2) 0.2771(3)
H5_5 H 0.1694 0.8083 0.2310
C17_5 C 0.1333(5) 0.7971(2) 0.3264(3)
H6_5 H 0.0914 0.7652 0.3137
C18_5 C 0.2050(4) 0.86233(19) 0.4085(3)
H7_5 H 0.2143 0.8767 0.4544
C19_5 C 0.2521(5) 0.88888(19) 0.3616(3)
H8_5 H 0.2911 0.9215 0.3749
C20_5 C 0.4266(4) 0.8323(2) 0.1127(2)
C21_5 C 0.5075(4) 0.7957(2) 0.1421(3)
H9_5 H 0.5370 0.7940 0.1916
C22_5 C 0.5452(4) 0.7611(2) 0.0972(2)
H10_5 H 0.6005 0.7354 0.1177
C23_5 C 0.4273(5) 0.7961(3) 0.0006(3)
C24_5 C 0.3836(5) 0.8317(3) 0.0399(3)
H12_5 H 0.3250 0.8554 0.0180
H11_5 H 0.3976 0.7958 0.9511
H2_6 H 0.0083 0.5342 0.1684
N2_6 N 0.0164(6) 0.4541(4) 0.0557(4)
C21_6 C 0.0075(4) 0.2957(2) 0.1421(3)
H9_6 H 0.0370 0.2940 0.1916
C22_6 C 0.0452(4) 0.2611(2) 0.0972(2)
H10_6 H 0.1005 0.2354 0.1177
O4_6 O 0.1448(4) 0.89022(18) 0.0616(3)
O5_6 O 0.1130(3) 0.81211(16) 0.1018(2)
N6_6 N 0.0853(4) 0.85002(18) 0.0610(2)
O1_6 O 0.9123(3) 0.70897(12) 0.08424(17)
C1_6 C 0.8193(4) 0.68483(18) 0.0782(2)
C2_6 C 0.8276(4) 0.62847(19) 0.1066(2)
C3_6 C 0.9324(5) 0.6031(2) 0.1290(3)
H1_6 H 0.9997 0.6217 0.1281
C4_6 C 0.9371(5) 0.5511(2) 0.1524(3)
C5_6 C 0.8398(4) 0.52317(19) 0.1530(3)
C6_6 C 0.7359(4) 0.5484(2) 0.1318(2)
H3_6 H 0.6687 0.5301 0.1336
C7_6 C 0.7310(4) 0.6010(2) 0.1076(3)
H4_6 H 0.6599 0.6179 0.0917
N1_6 N 0.8427(3) 0.35689(15) 0.20702(19)
C8_6 C 0.8433(4) 0.4658(2) 0.1739(3)
C9_6 C 0.7957(4) 0.44700(18) 0.2266(2)
C10_6 C 0.7966(4) 0.3926(2) 0.2415(2)
C11_6 C 0.8860(4) 0.37386(19) 0.1546(2)
C12_6 C 0.8916(4) 0.4281(2) 0.1390(2)
C13_6 C 0.9646(6) 0.4449(3) 0.0951(4)
C14_6 C 0.7657(6) 0.4874(3) 0.2720(4)
N3_6 N 0.7382(7) 0.5183(3) 0.3067(4)
N4_4 N 0.6465(3) 0.31719(15) 0.39227(19)
C15_6 C 0.7429(4) 0.36838(19) 0.2957(2)
C16_6 C 0.6804(4) 0.3225(2) 0.2771(3)
H5_6 H 0.6694 0.3083 0.2310
C17_6 C 0.6333(5) 0.2971(2) 0.3264(3)
H6_6 H 0.5914 0.2652 0.3137
C18_6 C 0.7050(4) 0.36233(19) 0.4085(3)
H7_6 H 0.7143 0.3767 0.4544
C19_6 C 0.7521(5) 0.38888(19) 0.3616(3)
H8_6 H 0.7911 0.4215 0.3749
C20_6 C 0.9266(4) 0.3323(2) 0.1127(2)
C23_6 C 0.9273(5) 0.2961(3) 0.0006(3)
C24_6 C 0.8836(5) 0.3317(3) 0.0399(3)
H12_6 H 0.8250 0.3554 0.0180
O3_6 O 0.9889(3) 0.84759(13) 0.01589(17)
N7_4 N 0.8535(3) 0.81719(15) 0.10773(19)
H11_6 H 0.8976 0.2958 0.9511
O1_7 O 0.5877(3) 0.20897(12) 0.41576(17)
C1_7 C 0.6807(4) 0.18483(18) 0.4218(2)
C2_7 C 0.6724(4) 0.12847(19) 0.3934(2)
C3_7 C 0.5676(5) 0.1031(2) 0.3710(3)
H1_7 H 0.5003 0.1217 0.3719
C4_7 C 0.5629(5) 0.0511(2) 0.3476(3)
H2_7 H 0.4917 0.0342 0.3316
C5_7 C 0.6602(4) 0.02317(19) 0.3470(3)
C6_7 C 0.7641(4) 0.0484(2) 0.3682(2)
H3_7 H 0.8313 0.0301 0.3664
C7_7 C 0.7690(4) 0.1010(2) 0.3924(3)
H4_7 H 0.8401 0.1179 0.4083
N3_7 N 0.7618(7) 0.0183(3) 0.1933(4)
O3_7 O 0.5111(3) 0.34759(13) 0.48411(17)
O4_7 O 0.3552(4) 0.39022(18) 0.4384(3)
O5_7 O 0.3870(3) 0.31211(16) 0.3982(2)
N6_7 N 0.4147(4) 0.35002(18) 0.4390(2)
N1_7 N 0.6573(3) 0.85689(15) 0.29298(19)
C8_7 C 0.6567(4) 0.9658(2) 0.3261(3)
C9_7 C 0.7043(4) 0.94700(18) 0.2734(2)
C10_7 C 0.7034(4) 0.8926(2) 0.2585(2)
C11_7 C 0.6140(4) 0.87386(19) 0.3454(2)
C12_7 C 0.6084(4) 0.9281(2) 0.3610(2)
C13_7 C 0.5354(6) 0.9449(3) 0.4049(4)
N2_7 N 0.4836(6) 0.9541(4) 0.4443(4)
C14_7 C 0.7343(6) 0.9874(3) 0.2280(4)
C15_7 C 0.7571(4) 0.86838(19) 0.2043(2)
C16_7 C 0.8196(4) 0.8225(2) 0.2229(3)
H5_7 H 0.8306 0.8083 0.2690
C17_7 C 0.8667(5) 0.7971(2) 0.1736(3)
H6_7 H 0.9086 0.7652 0.1863
C18_7 C 0.7950(4) 0.86233(19) 0.0915(3)
H7_7 H 0.7857 0.8767 0.0456
C19_7 C 0.7479(5) 0.88888(19) 0.1384(3)
H8_7 H 0.7089 0.9215 0.1251
C20_7 C 0.5734(4) 0.8323(2) 0.3873(2)
C21_7 C 0.4925(4) 0.7957(2) 0.3579(3)
H9_7 H 0.4630 0.7940 0.3084
C22_7 C 0.4548(4) 0.7611(2) 0.4028(2)
H10_7 H 0.3995 0.7354 0.3823
C23_7 C 0.5727(5) 0.7961(3) 0.4994(3)
H11_7 H 0.6024 0.7958 0.5489
C24_7 C 0.6164(5) 0.8317(3) 0.4601(3)
H12_7 H 0.6750 0.8554 0.4820
O1_8 O 0.0877(3) 0.70897(12) 0.41576(17)
C1_8 C 0.1807(4) 0.68483(18) 0.4218(2)
C2_8 C 0.1724(4) 0.62847(19) 0.3934(2)
C3_8 C 0.0676(5) 0.6031(2) 0.3710(3)
H1_8 H 0.0003 0.6217 0.3719
C4_8 C 0.0629(5) 0.5511(2) 0.3476(3)
C5_8 C 0.1602(4) 0.52317(19) 0.3470(3)
C6_8 C 0.2641(4) 0.5484(2) 0.3682(2)
H3_8 H 0.3313 0.5301 0.3664
C7_8 C 0.2690(4) 0.6010(2) 0.3924(3)
H4_8 H 0.3401 0.6179 0.4083
N1_8 N 0.1573(3) 0.35689(15) 0.29298(19)
C8_8 C 0.1567(4) 0.4658(2) 0.3261(3)
C9_8 C 0.2043(4) 0.44700(18) 0.2734(2)
C10_8 C 0.2034(4) 0.3926(2) 0.2585(2)
C11_8 C 0.1140(4) 0.37386(19) 0.3454(2)
C12_8 C 0.1084(4) 0.4281(2) 0.3610(2)
C13_8 C 0.0354(6) 0.4449(3) 0.4049(4)
C14_8 C 0.2343(6) 0.4874(3) 0.2280(4)
N3_8 N 0.2618(7) 0.5183(3) 0.1933(4)
C15_8 C 0.2571(4) 0.36838(19) 0.2043(2)
C16_8 C 0.3196(4) 0.3225(2) 0.2229(3)
H5_8 H 0.3306 0.3083 0.2690
C17_8 C 0.3667(5) 0.2971(2) 0.1736(3)
H6_8 H 0.4086 0.2652 0.1863
C18_8 C 0.2950(4) 0.36233(19) 0.0915(3)
H7_8 H 0.2857 0.3767 0.0456
C19_8 C 0.2479(5) 0.38888(19) 0.1384(3)
H8_8 H 0.2089 0.4215 0.1251
C20_8 C 0.0734(4) 0.3323(2) 0.3873(2)
C23_8 C 0.0727(5) 0.2961(3) 0.4994(3)
H11_8 H 0.1024 0.2958 0.5489
C24_8 C 0.1164(5) 0.3317(3) 0.4601(3)
H12_8 H 0.1750 0.3554 0.4820
O3_8 O 0.0111(3) 0.84759(13) 0.48411(17)
H2_8 H 0.9917 0.5342 0.3316
N2_8 N 0.9836(6) 0.4541(4) 0.4443(4)
C21_8 C 0.9925(4) 0.2957(2) 0.3579(3)
H9_8 H 0.9630 0.2940 0.3084
C22_8 C 0.9548(4) 0.2611(2) 0.4028(2)
H10_8 H 0.8995 0.2354 0.3823
O4_8 O 0.8552(4) 0.89022(18) 0.4384(3)
O5_8 O 0.8870(3) 0.81211(16) 0.3982(2)
N6_8 N 0.9147(4) 0.85002(18) 0.4390(2)
loop_
_geom_bond_atom_site_label_1
_geom_bond_atom_site_label_2
_geom_bond_site_symmetry_1
_geom_bond_site_symmetry_2
N1 C10 1_555 1_555
C9 C8 1_555 1_555
C10 C9 1_555 1_555
C11 N1 1_555 1_555
C12 C8 1_555 1_555
C13 C12 1_555 1_555
N2 C13 1_555 1_555
C14 C9 1_555 1_555
N4 C17 1_555 1_555
C15 C10 1_555 1_555
C16 C15 1_555 1_555
H5 C16 1_555 1_555
C17 C16 1_555 1_555
H6 C17 1_555 1_555
C18 N4 1_555 1_555
H7 C18 1_555 1_555
C19 C15 1_555 1_555
H8 C19 1_555 1_555
N5 C22 1_555 1_555
C20 C11 1_555 1_555
C21 C20 1_555 1_555
H9 C21 1_555 1_555
C22 C21 1_555 1_555
H10 C22 1_555 1_555
C23 N5 1_555 1_555
C24 C20 1_555 1_555
H12 C24 1_555 1_555
Cu3 N4 1_555 1_555
C11 C12 1_555 1_555
C18 C19 1_555 1_555
C23 C24 1_555 1_555
Cu1 O1 1_555 1_555
O1 C1 1_555 1_555
O2 C1 1_555 1_555
C1 C2 1_555 1_555
C2 C3 1_555 1_555
C3 H1 1_555 1_555
C4 C3 1_555 1_555
H2 C4 1_555 1_555
C5 C4 1_555 1_555
C6 C5 1_555 1_555
H3 C6 1_555 1_555
C7 C2 1_555 1_555
H4 C7 1_555 1_555
O3 Cu1 1_555 1_555
O4 N6 1_555 1_555
O5 Cu1 1_555 1_555
N6 O3 1_555 1_555
N7 Cu1 1_555 1_555
C6 C7 1_555 1_555
O5 N6 1_555 1_555
Cu1_2 O1_2 1_555 1_555
O1_2 C1_2 1_555 1_555
O2_2 C1_2 1_555 1_555
C1_2 C2_2 1_555 1_555
C2_2 C3_2 1_555 1_555
C3_2 H1_2 1_555 1_555
C4_2 C3_2 1_555 1_555
C5_2 C4_2 1_555 1_555
C6_2 C5_2 1_555 1_555
H3_2 C6_2 1_555 1_555
C7_2 C2_2 1_555 1_555
H4_2 C7_2 1_555 1_555
N1_2 C10_2 1_555 1_555
C8_2 C5_2 1_555 1_555
C9_2 C8_2 1_555 1_555
C10_2 C9_2 1_555 1_555
C11_2 N1_2 1_555 1_555
C12_2 C8_2 1_555 1_555
C13_2 C12_2 1_555 1_555
C14_2 C9_2 1_555 1_555
N3_2 C14_2 1_555 1_555
N4_2 C17_2 1_555 1_555
C15_2 C10_2 1_555 1_555
C16_2 C15_2 1_555 1_555
H5_2 C16_2 1_555 1_555
C17_2 C16_2 1_555 1_555
H6_2 C17_2 1_555 1_555
C18_2 N4_2 1_555 1_555
H7_2 C18_2 1_555 1_555
C19_2 C15_2 1_555 1_555
H8_2 C19_2 1_555 1_555
C20_2 C11_2 1_555 1_555
C24_2 C20_2 1_555 1_555
H12_2 C24_2 1_555 1_555
O3_2 Cu1_2 1_555 1_555
Cu3_2 N4_2 1_555 1_555
N7_2 Cu1_2 1_555 1_555
C6_2 C7_2 1_555 1_555
C11_2 C12_2 1_555 1_555
C18_2 C19_2 1_555 1_555
C23_2 C24_2 1_555 1_555
N5_2 C22_2 1_555 1_555
H9_2 C21_2 1_555 1_555
C22_2 C21_2 1_555 1_555
H10_2 C22_2 1_555 1_555
O4_2 N6_2 1_555 1_555
O5_2 N6_2 1_555 1_555
N1_3 C10_3 1_555 1_555
C9_3 C8_3 1_555 1_555
C10_3 C9_3 1_555 1_555
C11_3 N1_3 1_555 1_555
C12_3 C8_3 1_555 1_555
C13_3 C12_3 1_555 1_555
N2_3 C13_3 1_555 1_555
C14_3 C9_3 1_555 1_555
N7_2 C17_3 1_555 1_555
C15_3 C10_3 1_555 1_555
C16_3 C15_3 1_555 1_555
H5_3 C16_3 1_555 1_555
C17_3 C16_3 1_555 1_555
H6_3 C17_3 1_555 1_555
C18_3 N7_2 1_555 1_555
H7_3 C18_3 1_555 1_555
C19_3 C15_3 1_555 1_555
H8_3 C19_3 1_555 1_555
N5_3 C22_3 1_555 1_555
C20_3 C11_3 1_555 1_555
C21_3 C20_3 1_555 1_555
H9_3 C21_3 1_555 1_555
C22_3 C21_3 1_555 1_555
H10_3 C22_3 1_555 1_555
C23_3 N5_3 1_555 1_555
H11_3 C23_3 1_555 1_555
C24_3 C20_3 1_555 1_555
H12_3 C24_3 1_555 1_555
Cu4_2 N5_3 1_555 1_555
C11_3 C12_3 1_555 1_555
C18_3 C19_3 1_555 1_555
C23_3 C24_3 1_555 1_555
Cu3_2 O1_3 1_555 1_555
O1_3 C1_3 1_555 1_555
O2_3 C1_3 1_555 1_555
C1_3 C2_3 1_555 1_555
C2_3 C3_3 1_555 1_555
C3_3 H1_3 1_555 1_555
C4_3 C3_3 1_555 1_555
H2_3 C4_3 1_555 1_555
C5_3 C4_3 1_555 1_555
C6_3 C5_3 1_555 1_555
H3_3 C6_3 1_555 1_555
C7_3 C2_3 1_555 1_555
H4_3 C7_3 1_555 1_555
O3_3 Cu3_2 1_555 1_555
O4_3 N6_3 1_555 1_555
O5_3 Cu3_2 1_555 1_555
N6_3 O3_3 1_555 1_555
Cu2_2 O2_3 1_555 1_555
O6_3 Cu3_2 1_555 1_555
N8_3 Cu3_2 1_555 1_555
C6_3 C7_3 1_555 1_555
O5_3 N6_3 1_555 1_555
N5_4 C22_4 1_555 1_555
H9_4 C21_4 1_555 1_555
C22_4 C21_4 1_555 1_555
H10_4 C22_4 1_555 1_555
O4_4 N6_4 1_555 1_555
Cu2_2 N5_4 1_555 1_555
O5_4 N6_4 1_555 1_555
Cu3 O1_4 1_555 1_555
O1_4 C1_4 1_555 1_555
O2_4 C1_4 1_555 1_555
C1_4 C2_4 1_555 1_555
C2_4 C3_4 1_555 1_555
C3_4 H1_4 1_555 1_555
C4_4 C3_4 1_555 1_555
C5_4 C4_4 1_555 1_555
C6_4 C5_4 1_555 1_555
H3_4 C6_4 1_555 1_555
C7_4 C2_4 1_555 1_555
H4_4 C7_4 1_555 1_555
N1_4 C10_4 1_555 1_555
C8_4 C5_4 1_555 1_555
C9_4 C8_4 1_555 1_555
C10_4 C9_4 1_555 1_555
C11_4 N1_4 1_555 1_555
C12_4 C8_4 1_555 1_555
C13_4 C12_4 1_555 1_555
C14_4 C9_4 1_555 1_555
N3_4 C14_4 1_555 1_555
N7 C17_4 1_555 1_555
C15_4 C10_4 1_555 1_555
C16_4 C15_4 1_555 1_555
H5_4 C16_4 1_555 1_555
C17_4 C16_4 1_555 1_555
H6_4 C17_4 1_555 1_555
C18_4 N7 1_555 1_555
H7_4 C18_4 1_555 1_555
C19_4 C15_4 1_555 1_555
H8_4 C19_4 1_555 1_555
C20_4 C11_4 1_555 1_555
H11_4 C23_4 1_555 1_555
C24_4 C20_4 1_555 1_555
H12_4 C24_4 1_555 1_555
O3_4 Cu3 1_555 1_555
Cu4_2 O2_4 1_555 1_555
O6_4 Cu3 1_555 1_555
N8_4 Cu3 1_555 1_555
C6_4 C7_4 1_555 1_555
C11_4 C12_4 1_555 1_555
C18_4 C19_4 1_555 1_555
C23_4 C24_4 1_555 1_555
Cu4 O1_5 1_555 1_555
O1_5 C1_5 1_555 1_555
O6_2 C1_5 1_555 1_555
C1_5 C2_5 1_555 1_555
C2_5 C3_5 1_555 1_555
C3_5 H1_5 1_555 1_555
C4_5 C3_5 1_555 1_555
H2_5 C4_5 1_555 1_555
C5_5 C4_5 1_555 1_555
C6_5 C5_5 1_555 1_555
H3_5 C6_5 1_555 1_555
C7_5 C2_5 1_555 1_555
H4_5 C7_5 1_555 1_555
O3_5 Cu4 1_555 1_555
O4_5 N6_5 1_555 1_555
O5_5 Cu4 1_555 1_555
N6_5 O3_5 1_555 1_555
N7_3 Cu4 1_555 1_555
C6_5 C7_5 1_555 1_555
O5_5 N6_5 1_555 1_555
N1_5 C10_5 1_555 1_555
C9_5 C8_5 1_555 1_555
C10_5 C9_5 1_555 1_555
C11_5 N1_5 1_555 1_555
C12_5 C8_5 1_555 1_555
C13_5 C12_5 1_555 1_555
N2_5 C13_5 1_555 1_555
C14_5 C9_5 1_555 1_555
N4_3 C17_5 1_555 1_555
C15_5 C10_5 1_555 1_555
C16_5 C15_5 1_555 1_555
H5_5 C16_5 1_555 1_555
C17_5 C16_5 1_555 1_555
H6_5 C17_5 1_555 1_555
C18_5 N4_3 1_555 1_555
H7_5 C18_5 1_555 1_555
C19_5 C15_5 1_555 1_555
H8_5 C19_5 1_555 1_555
N8 C22_5 1_555 1_555
C20_5 C11_5 1_555 1_555
C21_5 C20_5 1_555 1_555
H9_5 C21_5 1_555 1_555
C22_5 C21_5 1_555 1_555
H10_5 C22_5 1_555 1_555
C23_5 N8 1_555 1_555
C24_5 C20_5 1_555 1_555
H12_5 C24_5 1_555 1_555
Cu2_2 N4_3 1_555 1_555
C11_5 C12_5 1_555 1_555
C18_5 C19_5 1_555 1_555
C23_5 C24_5 1_555 1_555
N8_2 C22_6 1_555 1_555
H9_6 C21_6 1_555 1_555
C22_6 C21_6 1_555 1_555
H10_6 C22_6 1_555 1_555
O4_6 N6_6 1_555 1_555
O5_6 N6_6 1_555 1_555
Cu2 O1_6 1_555 1_555
O1_6 C1_6 1_555 1_555
O6 C1_6 1_555 1_555
C1_6 C2_6 1_555 1_555
C2_6 C3_6 1_555 1_555
C3_6 H1_6 1_555 1_555
C4_6 C3_6 1_555 1_555
C5_6 C4_6 1_555 1_555
C6_6 C5_6 1_555 1_555
H3_6 C6_6 1_555 1_555
C7_6 C2_6 1_555 1_555
H4_6 C7_6 1_555 1_555
N1_6 C10_6 1_555 1_555
C8_6 C5_6 1_555 1_555
C9_6 C8_6 1_555 1_555
C10_6 C9_6 1_555 1_555
C11_6 N1_6 1_555 1_555
C12_6 C8_6 1_555 1_555
C13_6 C12_6 1_555 1_555
C14_6 C9_6 1_555 1_555
N3_6 C14_6 1_555 1_555
N4_4 C17_6 1_555 1_555
C15_6 C10_6 1_555 1_555
C16_6 C15_6 1_555 1_555
H5_6 C16_6 1_555 1_555
C17_6 C16_6 1_555 1_555
H6_6 C17_6 1_555 1_555
C18_6 N4_4 1_555 1_555
H7_6 C18_6 1_555 1_555
C19_6 C15_6 1_555 1_555
H8_6 C19_6 1_555 1_555
C20_6 C11_6 1_555 1_555
C24_6 C20_6 1_555 1_555
H12_6 C24_6 1_555 1_555
O3_6 Cu2 1_555 1_555
Cu4_2 N4_4 1_555 1_555
N7_4 Cu2 1_555 1_555
C6_6 C7_6 1_555 1_555
C11_6 C12_6 1_555 1_555
C18_6 C19_6 1_555 1_555
C23_6 C24_6 1_555 1_555
Cu4_2 O1_7 1_555 1_555
O1_7 C1_7 1_555 1_555
O6_4 C1_7 1_555 1_555
C1_7 C2_7 1_555 1_555
C2_7 C3_7 1_555 1_555
C3_7 H1_7 1_555 1_555
C4_7 C3_7 1_555 1_555
H2_7 C4_7 1_555 1_555
C5_7 C4_7 1_555 1_555
C6_7 C5_7 1_555 1_555
H3_7 C6_7 1_555 1_555
C7_7 C2_7 1_555 1_555
H4_7 C7_7 1_555 1_555
O3_7 Cu4_2 1_555 1_555
O4_7 N6_7 1_555 1_555
O5_7 Cu4_2 1_555 1_555
N6_7 O3_7 1_555 1_555
C6_7 C7_7 1_555 1_555
O5_7 N6_7 1_555 1_555
N1_7 C10_7 1_555 1_555
C9_7 C8_7 1_555 1_555
C10_7 C9_7 1_555 1_555
C11_7 N1_7 1_555 1_555
C12_7 C8_7 1_555 1_555
C13_7 C12_7 1_555 1_555
N2_7 C13_7 1_555 1_555
C14_7 C9_7 1_555 1_555
N7_4 C17_7 1_555 1_555
C15_7 C10_7 1_555 1_555
C16_7 C15_7 1_555 1_555
H5_7 C16_7 1_555 1_555
C17_7 C16_7 1_555 1_555
H6_7 C17_7 1_555 1_555
C18_7 N7_4 1_555 1_555
H7_7 C18_7 1_555 1_555
C19_7 C15_7 1_555 1_555
H8_7 C19_7 1_555 1_555
N8_3 C22_7 1_555 1_555
C20_7 C11_7 1_555 1_555
C21_7 C20_7 1_555 1_555
H9_7 C21_7 1_555 1_555
C22_7 C21_7 1_555 1_555
H10_7 C22_7 1_555 1_555
C23_7 N8_3 1_555 1_555
H11_7 C23_7 1_555 1_555
C24_7 C20_7 1_555 1_555
H12_7 C24_7 1_555 1_555
C11_7 C12_7 1_555 1_555
C18_7 C19_7 1_555 1_555
C23_7 C24_7 1_555 1_555
Cu2_2 O1_8 1_555 1_555
O1_8 C1_8 1_555 1_555
O6_3 C1_8 1_555 1_555
C1_8 C2_8 1_555 1_555
C2_8 C3_8 1_555 1_555
C3_8 H1_8 1_555 1_555
C4_8 C3_8 1_555 1_555
C5_8 C4_8 1_555 1_555
C6_8 C5_8 1_555 1_555
H3_8 C6_8 1_555 1_555
C7_8 C2_8 1_555 1_555
H4_8 C7_8 1_555 1_555
N1_8 C10_8 1_555 1_555
C8_8 C5_8 1_555 1_555
C9_8 C8_8 1_555 1_555
C10_8 C9_8 1_555 1_555
C11_8 N1_8 1_555 1_555
C12_8 C8_8 1_555 1_555
C13_8 C12_8 1_555 1_555
C14_8 C9_8 1_555 1_555
N3_8 C14_8 1_555 1_555
N7_3 C17_8 1_555 1_555
C15_8 C10_8 1_555 1_555
C16_8 C15_8 1_555 1_555
H5_8 C16_8 1_555 1_555
C17_8 C16_8 1_555 1_555
H6_8 C17_8 1_555 1_555
C18_8 N7_3 1_555 1_555
H7_8 C18_8 1_555 1_555
C19_8 C15_8 1_555 1_555
H8_8 C19_8 1_555 1_555
C20_8 C11_8 1_555 1_555
H11_8 C23_8 1_555 1_555
C24_8 C20_8 1_555 1_555
H12_8 C24_8 1_555 1_555
O3_8 Cu2_2 1_555 1_555
C6_8 C7_8 1_555 1_555
C11_8 C12_8 1_555 1_555
C18_8 C19_8 1_555 1_555
C23_8 C24_8 1_555 1_555
N8_4 C22_8 1_555 1_555
H9_8 C21_8 1_555 1_555
C22_8 C21_8 1_555 1_555
H10_8 C22_8 1_555 1_555
O4_8 N6_8 1_555 1_555
O5_8 N6_8 1_555 1_555

#END
