
###############################################################################
#
# This file contains modified crystal structure data generated from the
# MOF subset of the Cambridge Structural Database (CSD) v543 
# hosted by the Cambridge Crystallographic Data Centre (CCDC).
#
# This work is licensed under the Creative Commons
# Attribution-NonCommercial-ShareAlike 4.0 International License.
# To view a copy of this license, visit
# http://creativecommons.org/licenses/by-nc-sa/4.0/
# or send a letter to
# Creative Commons, PO Box 1866, Mountain View, CA 94042, USA.
#
# CIF created using the CSD Python API on 29 September 2022
# The structure has been converted into the P1 space group
# The structure has a 3D framework
# The original CSD entry CIWDIY is in the monoclinic crystal system
# The framework has been calculated to contain at least 10.0% void space
# The void calculation uses a probe of radius 1.32A, grid spacing 0.4
#
###############################################################################

data_CIWDIY
_chemical_formula_moiety         '(C200 H176 N32 O40 Zn8)n'
_symmetry_cell_setting           triclinic
_symmetry_space_group_name_H-M   'P 1'
_symmetry_Int_Tables_number      1
_space_group_name_Hall           'P 1'
loop_
_symmetry_equiv_pos_site_id
_symmetry_equiv_pos_as_xyz
1 x,y,z
_cell_length_a                   25.6046(19)
_cell_length_b                   13.3254(9)
_cell_length_c                   19.1687(11)
_cell_angle_alpha                90
_cell_angle_beta                 127.342(4)
_cell_angle_gamma                90
_cell_volume                     5199.65
loop_
_atom_site_label
_atom_site_type_symbol
_atom_site_fract_x
_atom_site_fract_y
_atom_site_fract_z
C23 C 0.15541(19) 0.4829(3) 0.1136(2)
H20 H 0.1634 0.5426 0.0963
C24 C 0.16591(19) 0.3565(3) 0.1914(3)
H21 H 0.1829 0.3132 0.2387
C25 C 0.10840(18) 0.3447(3) 0.1114(2)
H22 H 0.0790 0.2918 0.0930
N2 N 0.10132(13) 0.4258(2) 0.06178(18)
N3 N 0.19539(15) 0.4426(2) 0.1921(2)
Zn2 Zn 0.28373(2) 0.49779(3) 0.29365(3)
C7 C 0.80017(19) 0.1615(3) 0.4112(2)
H9 H 0.8369 0.1304 0.4601
C8 C 0.71768(18) 0.1945(3) 0.2801(2)
H10 H 0.6860 0.1892 0.2197
C9 C 0.72221(17) 0.2698(3) 0.3281(2)
H11 H 0.6949 0.3257 0.3084
C10 C 0.80339(16) 0.3128(3) 0.4886(2)
C11 C 0.77283(19) 0.3991(3) 0.4831(2)
H12 H 0.7323 0.4154 0.4310
C12 C 0.8015(2) 0.4625(3) 0.5541(2)
H13 H 0.7803 0.5216 0.5495
C13 C 0.86197(17) 0.4389(3) 0.6327(2)
C14 C 0.89156(17) 0.3505(3) 0.6375(2)
H14 H 0.9316 0.3332 0.6899
C15 C 0.86322(17) 0.2869(3) 0.5666(2)
H15 H 0.8839 0.2273 0.5710
C16 C 0.8944(2) 0.5148(3) 0.7043(3)
C17 C 0.94773(18) 0.4866(3) 0.7967(2)
C18 C 0.95102(18) 0.3953(3) 0.8343(2)
H16 H 0.9189 0.3471 0.8001
C22 C 0.99580(19) 0.5575(3) 0.8499(3)
H19 H 0.9941 0.6197 0.8265
N1 N 0.77554(13) 0.2491(2) 0.41347(17)
N4 N 0.76608(15) 0.1251(2) 0.33147(19)
O5 O 0.87905(16) 0.6030(2) 0.68630(19)
O6 O 0.84904(18) 0.0191(3) 0.2739(2)
Zn3 Zn 0.78373(2) 0.00221(3) 0.79365(3)
C1 C 0.3576(3) 0.3896(3) 0.4509(3)
C2 C 0.3750(3) 0.2964(4) 0.5046(3)
H1 H 0.4073 0.2592 0.5040
H2 H 0.3361 0.2549 0.4767
C3 C 0.4020(3) 0.3136(4) 0.5990(3)
H3 H 0.4386 0.3601 0.6259
H4 H 0.4187 0.2505 0.6306
C4 C 0.3511(2) 0.3550(4) 0.6083(3)
H5 H 0.3325 0.4158 0.5737
H6 H 0.3159 0.3065 0.5848
C5 C 0.3790(2) 0.3780(4) 0.7017(3)
H7 H 0.4136 0.4275 0.7246
H8 H 0.3987 0.3174 0.7364
C6 C 0.3291(2) 0.4168(3) 0.7129(3)
C7_2 C 0.30017(19) 0.6615(3) 0.4112(2)
H9_2 H 0.3369 0.6304 0.4601
C8_2 C 0.21768(18) 0.6945(3) 0.2801(2)
H10_2 H 0.1860 0.6892 0.2197
C9_2 C 0.22221(17) 0.7698(3) 0.3281(2)
H11_2 H 0.1949 0.8257 0.3084
C10_2 C 0.30339(16) 0.8128(3) 0.4886(2)
C11_2 C 0.27283(19) 0.8991(3) 0.4831(2)
H12_2 H 0.2323 0.9154 0.4310
C12_2 C 0.3015(2) 0.9625(3) 0.5541(2)
C13_2 C 0.36197(17) 0.9389(3) 0.6327(2)
C14_2 C 0.39156(17) 0.8505(3) 0.6375(2)
H14_2 H 0.4316 0.8332 0.6899
C15_2 C 0.36322(17) 0.7869(3) 0.5666(2)
H15_2 H 0.3839 0.7273 0.5710
C17_2 C 0.44773(18) 0.9866(3) 0.7967(2)
C18_2 C 0.45102(18) 0.8953(3) 0.8343(2)
H16_2 H 0.4189 0.8471 0.8001
C19 C 0.50099(17) 0.8748(3) 0.9213(2)
H17 H 0.5025 0.8133 0.9453
C20 C 0.54891(16) 0.9465(3) 0.9726(2)
N1_2 N 0.27554(13) 0.7491(2) 0.41347(17)
N4_2 N 0.26608(15) 0.6251(2) 0.33147(19)
O1 O 0.30999(18) 0.3849(3) 0.3721(2)
O2 O 0.3920(2) 0.4663(3) 0.4844(3)
O3 O 0.27266(17) 0.3850(3) 0.6675(2)
O4 O 0.34904(18) 0.4809(3) 0.7739(2)
O6_2 O 0.34904(18) 0.5191(3) 0.2739(2)
Zn3_2 Zn 0.28373(2) 0.50221(3) 0.79365(3)
C19_2 C 0.00099(17) 0.6252(3) 0.4213(2)
H17_2 H 0.0025 0.6867 0.4453
C20_2 C 0.04891(16) 0.5535(3) 0.4726(2)
C21 C 0.0454(2) 0.4621(3) 0.4357(3)
H18 H 0.0772 0.4135 0.4699
C23_2 C 0.15541(19) 0.5171(3) 0.6136(2)
H20_2 H 0.1634 0.4574 0.5963
C24_2 C 0.16591(19) 0.6435(3) 0.6914(3)
H21_2 H 0.1829 0.6868 0.7387
C25_2 C 0.10840(18) 0.6553(3) 0.6114(2)
H22_2 H 0.0790 0.7082 0.5930
N2_2 N 0.10132(13) 0.5742(2) 0.56178(18)
N3_2 N 0.19539(15) 0.5574(2) 0.6921(2)
C2_2 C 0.8750(3) 0.2036(4) 0.0046(3)
H1_2 H 0.9073 0.2408 0.0040
C3_2 C 0.9020(3) 0.1864(4) 0.0990(3)
H3_2 H 0.9386 0.1399 0.1259
H4_2 H 0.9187 0.2495 0.1306
C4_2 C 0.8511(2) 0.1450(4) 0.1083(3)
H5_2 H 0.8325 0.0842 0.0737
H6_2 H 0.8159 0.1935 0.0848
C5_2 C 0.8790(2) 0.1220(4) 0.2017(3)
H7_2 H 0.9136 0.0725 0.2246
H8_2 H 0.8987 0.1826 0.2364
C6_2 C 0.8291(2) 0.0832(3) 0.2129(3)
O3_2 O 0.77266(17) 0.1150(3) 0.1675(2)
C1_2 C 0.8576(3) 0.1104(3) 0.9509(3)
H2_2 H 0.8361 0.2451 0.9767
O1_2 O 0.80999(18) 0.1151(3) 0.8721(2)
O2_2 O 0.8920(2) 0.0337(3) 0.9844(3)
N5 N 0.69539(15) 0.0574(2) 0.6921(2)
C2_3 C 0.3750(3) 0.7036(4) 0.0046(3)
H1_3 H 0.4073 0.7408 0.0040
C3_3 C 0.4020(3) 0.6864(4) 0.0990(3)
H3_3 H 0.4386 0.6399 0.1259
H4_3 H 0.4187 0.7495 0.1306
C4_3 C 0.3511(2) 0.6450(4) 0.1083(3)
H5_3 H 0.3325 0.5842 0.0737
H6_3 H 0.3159 0.6935 0.0848
C5_3 C 0.3790(2) 0.6220(4) 0.2017(3)
H7_3 H 0.4136 0.5725 0.2246
H8_3 H 0.3987 0.6826 0.2364
C6_3 C 0.3291(2) 0.5832(3) 0.2129(3)
C12_3 C 0.3015(2) 0.0375(3) 0.0541(2)
C13_3 C 0.36197(17) 0.0611(3) 0.1327(2)
C14_3 C 0.39156(17) 0.1495(3) 0.1375(2)
H14_3 H 0.4316 0.1668 0.1899
C15_3 C 0.36322(17) 0.2131(3) 0.0666(2)
H15_3 H 0.3839 0.2727 0.0710
C17_3 C 0.44773(18) 0.0134(3) 0.2967(2)
C18_3 C 0.45102(18) 0.1047(3) 0.3343(2)
H16_3 H 0.4189 0.1529 0.3001
C19_3 C 0.50099(17) 0.1252(3) 0.4213(2)
H17_3 H 0.5025 0.1867 0.4453
C20_3 C 0.54891(16) 0.0535(3) 0.4726(2)
C23_3 C 0.65541(19) 0.0171(3) 0.6136(2)
C24_3 C 0.66591(19) 0.1435(3) 0.6914(3)
H21_3 H 0.6829 0.1868 0.7387
C25_3 C 0.60840(18) 0.1553(3) 0.6114(2)
H22_3 H 0.5790 0.2082 0.5930
N2_3 N 0.60132(13) 0.0742(2) 0.56178(18)
O3_3 O 0.27266(17) 0.6150(3) 0.1675(2)
C1_3 C 0.3576(3) 0.6104(3) 0.9509(3)
H2_3 H 0.3361 0.7451 0.9767
C7_3 C 0.30017(19) 0.3385(3) 0.9112(2)
H9_3 H 0.3369 0.3696 0.9601
C8_3 C 0.21768(18) 0.3055(3) 0.7801(2)
H10_3 H 0.1860 0.3108 0.7197
C9_3 C 0.22221(17) 0.2302(3) 0.8281(2)
H11_3 H 0.1949 0.1743 0.8084
C10_3 C 0.30339(16) 0.1872(3) 0.9886(2)
C11_3 C 0.27283(19) 0.1009(3) 0.9831(2)
H12_3 H 0.2323 0.0846 0.9310
N1_3 N 0.27554(13) 0.2509(2) 0.91347(17)
N4_3 N 0.26608(15) 0.3749(2) 0.83147(19)
O1_3 O 0.30999(18) 0.6151(3) 0.8721(2)
O2_3 O 0.3920(2) 0.5337(3) 0.9844(3)
C19_4 C 0.00099(17) 0.3748(3) 0.9213(2)
H17_4 H 0.0025 0.3133 0.9453
C20_4 C 0.04891(16) 0.4465(3) 0.9726(2)
C21_2 C 0.0454(2) 0.5379(3) 0.9357(3)
H18_2 H 0.0772 0.5865 0.9699
C1_4 C 0.8576(3) 0.8896(3) 0.4509(3)
C2_4 C 0.8750(3) 0.7964(4) 0.5046(3)
H1_4 H 0.9073 0.7592 0.5040
H2_4 H 0.8361 0.7549 0.4767
C3_4 C 0.9020(3) 0.8136(4) 0.5990(3)
H3_4 H 0.9386 0.8601 0.6259
H4_4 H 0.9187 0.7505 0.6306
C4_4 C 0.8511(2) 0.8550(4) 0.6083(3)
H5_4 H 0.8325 0.9158 0.5737
H6_4 H 0.8159 0.8065 0.5848
C5_4 C 0.8790(2) 0.8780(4) 0.7017(3)
H7_4 H 0.9136 0.9275 0.7246
H8_4 H 0.8987 0.8174 0.7364
C6_4 C 0.8291(2) 0.9168(3) 0.7129(3)
O1_4 O 0.80999(18) 0.8849(3) 0.3721(2)
O2_4 O 0.8920(2) 0.9663(3) 0.4844(3)
O3_4 O 0.77266(17) 0.8850(3) 0.6675(2)
O4_2 O 0.84904(18) 0.9809(3) 0.7739(2)
Zn1 Zn 0.78373(2) 0.99779(3) 0.29365(3)
N5_2 N 0.69539(15) 0.9426(2) 0.1921(2)
C23_4 C 0.65541(19) 0.9829(3) 0.1136(2)
C24_4 C 0.66591(19) 0.8565(3) 0.1914(3)
H21_4 H 0.6829 0.8132 0.2387
C25_4 C 0.60840(18) 0.8447(3) 0.1114(2)
H22_4 H 0.5790 0.7918 0.0930
N2_4 N 0.60132(13) 0.9258(2) 0.06178(18)
C12_4 C 0.8015(2) 0.5375(3) 0.0541(2)
H13_2 H 0.7803 0.4784 0.0495
C13_4 C 0.86197(17) 0.5611(3) 0.1327(2)
C14_4 C 0.89156(17) 0.6495(3) 0.1375(2)
H14_4 H 0.9316 0.6668 0.1899
C15_4 C 0.86322(17) 0.7131(3) 0.0666(2)
H15_4 H 0.8839 0.7727 0.0710
C16_2 C 0.8944(2) 0.4852(3) 0.2043(3)
C17_4 C 0.94773(18) 0.5134(3) 0.2967(2)
C18_4 C 0.95102(18) 0.6047(3) 0.3343(2)
H16_4 H 0.9189 0.6529 0.3001
C22_2 C 0.99580(19) 0.4425(3) 0.3499(3)
H19_2 H 0.9941 0.3803 0.3265
O5_2 O 0.87905(16) 0.3970(2) 0.18630(19)
C7_4 C 0.80017(19) 0.8385(3) 0.9112(2)
H9_4 H 0.8369 0.8696 0.9601
C8_4 C 0.71768(18) 0.8055(3) 0.7801(2)
H10_4 H 0.6860 0.8108 0.7197
C9_4 C 0.72221(17) 0.7302(3) 0.8281(2)
H11_4 H 0.6949 0.6743 0.8084
C10_4 C 0.80339(16) 0.6872(3) 0.9886(2)
C11_4 C 0.77283(19) 0.6009(3) 0.9831(2)
H12_4 H 0.7323 0.5846 0.9310
N1_4 N 0.77554(13) 0.7509(2) 0.91347(17)
N4_4 N 0.76608(15) 0.8749(2) 0.83147(19)
C7_5 C 0.19983(19) 0.1615(3) 0.0888(2)
H9_5 H 0.1631 0.1304 0.0399
C8_5 C 0.28232(18) 0.1945(3) 0.2199(2)
H10_5 H 0.3140 0.1892 0.2803
C9_5 C 0.27779(17) 0.2698(3) 0.1719(2)
H11_5 H 0.3051 0.3257 0.1916
C10_5 C 0.19661(16) 0.3128(3) 0.0114(2)
C11_5 C 0.22717(19) 0.3991(3) 0.0169(2)
H12_5 H 0.2677 0.4154 0.0690
N1_5 N 0.22446(13) 0.2491(2) 0.08653(17)
N4_5 N 0.23392(15) 0.1251(2) 0.16853(19)
O6_3 O 0.15096(18) 0.0191(3) 0.2261(2)
C12_5 C 0.1985(2) 0.4625(3) 0.9459(2)
H13_3 H 0.2197 0.5216 0.9505
C13_5 C 0.13803(17) 0.4389(3) 0.8673(2)
C14_5 C 0.10844(17) 0.3505(3) 0.8625(2)
H14_5 H 0.0684 0.3332 0.8101
C15_5 C 0.13678(17) 0.2869(3) 0.9334(2)
H15_5 H 0.1161 0.2273 0.9290
C16_3 C 0.1056(2) 0.5148(3) 0.7957(3)
C17_5 C 0.05227(18) 0.4866(3) 0.7033(2)
C18_5 C 0.04898(18) 0.3953(3) 0.6657(2)
H16_5 H 0.0811 0.3471 0.6999
C22_3 C 0.00420(19) 0.5575(3) 0.6501(3)
H19_3 H 0.0059 0.6197 0.6735
O5_3 O 0.12095(16) 0.6030(2) 0.81370(19)
Zn3_3 Zn 0.21627(2) 0.00221(3) 0.70635(3)
C1_5 C 0.1424(3) 0.1104(3) 0.5491(3)
C2_5 C 0.1250(3) 0.2036(4) 0.4954(3)
H1_5 H 0.0927 0.2408 0.4960
H2_5 H 0.1639 0.2451 0.5233
C3_5 C 0.0980(3) 0.1864(4) 0.4010(3)
H3_5 H 0.0614 0.1399 0.3741
H4_5 H 0.0813 0.2495 0.3694
C4_5 C 0.1489(2) 0.1450(4) 0.3917(3)
H5_5 H 0.1675 0.0842 0.4263
H6_5 H 0.1841 0.1935 0.4152
C5_5 C 0.1210(2) 0.1220(4) 0.2983(3)
H7_5 H 0.0864 0.0725 0.2754
H8_5 H 0.1013 0.1826 0.2636
C6_5 C 0.1709(2) 0.0832(3) 0.2871(3)
O1_5 O 0.19001(18) 0.1151(3) 0.6279(2)
O2_5 O 0.1080(2) 0.0337(3) 0.5156(3)
O3_5 O 0.22734(17) 0.1150(3) 0.3325(2)
N5_3 N 0.30461(15) 0.0574(2) 0.8079(2)
C23_5 C 0.34459(19) 0.0171(3) 0.8864(2)
C24_5 C 0.33409(19) 0.1435(3) 0.8086(3)
H21_5 H 0.3171 0.1868 0.7613
C25_5 C 0.39160(18) 0.1553(3) 0.8886(2)
H22_5 H 0.4210 0.2082 0.9070
N2_5 N 0.39868(13) 0.0742(2) 0.93822(18)
C1_6 C 0.1424(3) 0.8896(3) 0.0491(3)
H2_6 H 0.1639 0.7549 0.0233
O1_6 O 0.19001(18) 0.8849(3) 0.1279(2)
O2_6 O 0.1080(2) 0.9663(3) 0.0156(3)
Zn1_2 Zn 0.21627(2) 0.99779(3) 0.20635(3)
N5_4 N 0.30461(15) 0.9426(2) 0.3079(2)
C2_6 C 0.1250(3) 0.7964(4) 0.9954(3)
H1_6 H 0.0927 0.7592 0.9960
C3_6 C 0.0980(3) 0.8136(4) 0.9010(3)
H3_6 H 0.0614 0.8601 0.8741
H4_6 H 0.0813 0.7505 0.8694
C4_6 C 0.1489(2) 0.8550(4) 0.8917(3)
H5_6 H 0.1675 0.9158 0.9263
H6_6 H 0.1841 0.8065 0.9152
C5_6 C 0.1210(2) 0.8780(4) 0.7983(3)
H7_6 H 0.0864 0.9275 0.7754
H8_6 H 0.1013 0.8174 0.7636
C6_6 C 0.1709(2) 0.9168(3) 0.7871(3)
O3_6 O 0.22734(17) 0.8850(3) 0.8325(2)
O4_3 O 0.15096(18) 0.9809(3) 0.7261(2)
C19_5 C 0.99901(17) 0.3748(3) 0.5787(2)
H17_5 H 0.9975 0.3133 0.5547
C20_5 C 0.95109(16) 0.4465(3) 0.5274(2)
C21_3 C 0.9546(2) 0.5379(3) 0.5643(3)
H18_3 H 0.9228 0.5865 0.5301
C23_6 C 0.84459(19) 0.4829(3) 0.3864(2)
H20_3 H 0.8366 0.5426 0.4037
C24_6 C 0.83409(19) 0.3565(3) 0.3086(3)
H21_6 H 0.8171 0.3132 0.2613
C25_6 C 0.89160(18) 0.3447(3) 0.3886(2)
H22_6 H 0.9210 0.2918 0.4070
N2_6 N 0.89868(13) 0.4258(2) 0.43822(18)
N3_3 N 0.80461(15) 0.4426(2) 0.3079(2)
Zn2_2 Zn 0.71627(2) 0.49779(3) 0.20635(3)
C1_7 C 0.6424(3) 0.3896(3) 0.0491(3)
H2_7 H 0.6639 0.2549 0.0233
C7_6 C 0.69983(19) 0.6615(3) 0.0888(2)
H9_6 H 0.6631 0.6304 0.0399
C8_6 C 0.78232(18) 0.6945(3) 0.2199(2)
H10_6 H 0.8140 0.6892 0.2803
C9_6 C 0.77779(17) 0.7698(3) 0.1719(2)
H11_6 H 0.8051 0.8257 0.1916
C10_6 C 0.69661(16) 0.8128(3) 0.0114(2)
C11_6 C 0.72717(19) 0.8991(3) 0.0169(2)
H12_6 H 0.7677 0.9154 0.0690
N1_6 N 0.72446(13) 0.7491(2) 0.08653(17)
N4_6 N 0.73392(15) 0.6251(2) 0.16853(19)
O1_7 O 0.69001(18) 0.3849(3) 0.1279(2)
O2_7 O 0.6080(2) 0.4663(3) 0.0156(3)
O6_4 O 0.65096(18) 0.5191(3) 0.2261(2)
C2_7 C 0.6250(3) 0.2964(4) 0.9954(3)
H1_7 H 0.5927 0.2592 0.9960
C3_7 C 0.5980(3) 0.3136(4) 0.9010(3)
H3_7 H 0.5614 0.3601 0.8741
H4_7 H 0.5813 0.2505 0.8694
C4_7 C 0.6489(2) 0.3550(4) 0.8917(3)
H5_7 H 0.6675 0.4158 0.9263
H6_7 H 0.6841 0.3065 0.9152
C5_7 C 0.6210(2) 0.3780(4) 0.7983(3)
H7_7 H 0.5864 0.4275 0.7754
H8_7 H 0.6013 0.3174 0.7636
C6_7 C 0.6709(2) 0.4168(3) 0.7871(3)
C12_6 C 0.6985(2) 0.9625(3) 0.9459(2)
C13_6 C 0.63803(17) 0.9389(3) 0.8673(2)
C14_6 C 0.60844(17) 0.8505(3) 0.8625(2)
H14_6 H 0.5684 0.8332 0.8101
C15_6 C 0.63678(17) 0.7869(3) 0.9334(2)
H15_6 H 0.6161 0.7273 0.9290
C17_6 C 0.55227(18) 0.9866(3) 0.7033(2)
C18_6 C 0.54898(18) 0.8953(3) 0.6657(2)
H16_6 H 0.5811 0.8471 0.6999
C19_6 C 0.49901(17) 0.8748(3) 0.5787(2)
H17_6 H 0.4975 0.8133 0.5547
C20_6 C 0.45109(16) 0.9465(3) 0.5274(2)
C23_7 C 0.34459(19) 0.9829(3) 0.3864(2)
C24_7 C 0.33409(19) 0.8565(3) 0.3086(3)
H21_7 H 0.3171 0.8132 0.2613
C25_7 C 0.39160(18) 0.8447(3) 0.3886(2)
H22_7 H 0.4210 0.7918 0.4070
N2_7 N 0.39868(13) 0.9258(2) 0.43822(18)
O3_7 O 0.72734(17) 0.3850(3) 0.8325(2)
O4_4 O 0.65096(18) 0.4809(3) 0.7261(2)
Zn3_4 Zn 0.71627(2) 0.50221(3) 0.70635(3)
C7_7 C 0.19983(19) 0.8385(3) 0.5888(2)
H9_7 H 0.1631 0.8696 0.5399
C8_7 C 0.28232(18) 0.8055(3) 0.7199(2)
H10_7 H 0.3140 0.8108 0.7803
C9_7 C 0.27779(17) 0.7302(3) 0.6719(2)
H11_7 H 0.3051 0.6743 0.6916
C10_7 C 0.19661(16) 0.6872(3) 0.5114(2)
C11_7 C 0.22717(19) 0.6009(3) 0.5169(2)
H12_7 H 0.2677 0.5846 0.5690
C12_7 C 0.1985(2) 0.5375(3) 0.4459(2)
H13_4 H 0.2197 0.4784 0.4505
C13_7 C 0.13803(17) 0.5611(3) 0.3673(2)
C14_7 C 0.10844(17) 0.6495(3) 0.3625(2)
H14_7 H 0.0684 0.6668 0.3101
C15_7 C 0.13678(17) 0.7131(3) 0.4334(2)
H15_7 H 0.1161 0.7727 0.4290
C16_4 C 0.1056(2) 0.4852(3) 0.2957(3)
C17_7 C 0.05227(18) 0.5134(3) 0.2033(2)
C18_7 C 0.04898(18) 0.6047(3) 0.1657(2)
H16_7 H 0.0811 0.6529 0.1999
C22_4 C 0.00420(19) 0.4425(3) 0.1501(3)
H19_4 H 0.0059 0.3803 0.1735
N1_7 N 0.22446(13) 0.7509(2) 0.58653(17)
N4_7 N 0.23392(15) 0.8749(2) 0.66853(19)
O5_4 O 0.12095(16) 0.3970(2) 0.31370(19)
C23_8 C 0.84459(19) 0.5171(3) 0.8864(2)
H20_4 H 0.8366 0.4574 0.9037
C24_8 C 0.83409(19) 0.6435(3) 0.8086(3)
H21_8 H 0.8171 0.6868 0.7613
C25_8 C 0.89160(18) 0.6553(3) 0.8886(2)
H22_8 H 0.9210 0.7082 0.9070
N2_8 N 0.89868(13) 0.5742(2) 0.93822(18)
N3_4 N 0.80461(15) 0.5574(2) 0.8079(2)
C1_8 C 0.6424(3) 0.6104(3) 0.5491(3)
C2_8 C 0.6250(3) 0.7036(4) 0.4954(3)
H1_8 H 0.5927 0.7408 0.4960
H2_8 H 0.6639 0.7451 0.5233
C3_8 C 0.5980(3) 0.6864(4) 0.4010(3)
H3_8 H 0.5614 0.6399 0.3741
H4_8 H 0.5813 0.7495 0.3694
C4_8 C 0.6489(2) 0.6450(4) 0.3917(3)
H5_8 H 0.6675 0.5842 0.4263
H6_8 H 0.6841 0.6935 0.4152
C5_8 C 0.6210(2) 0.6220(4) 0.2983(3)
H7_8 H 0.5864 0.5725 0.2754
H8_8 H 0.6013 0.6826 0.2636
C6_8 C 0.6709(2) 0.5832(3) 0.2871(3)
C7_8 C 0.69983(19) 0.3385(3) 0.5888(2)
H9_8 H 0.6631 0.3696 0.5399
C8_8 C 0.78232(18) 0.3055(3) 0.7199(2)
H10_8 H 0.8140 0.3108 0.7803
C9_8 C 0.77779(17) 0.2302(3) 0.6719(2)
H11_8 H 0.8051 0.1743 0.6916
C10_8 C 0.69661(16) 0.1872(3) 0.5114(2)
C11_8 C 0.72717(19) 0.1009(3) 0.5169(2)
H12_8 H 0.7677 0.0846 0.5690
C12_8 C 0.6985(2) 0.0375(3) 0.4459(2)
C13_8 C 0.63803(17) 0.0611(3) 0.3673(2)
C14_8 C 0.60844(17) 0.1495(3) 0.3625(2)
H14_8 H 0.5684 0.1668 0.3101
C15_8 C 0.63678(17) 0.2131(3) 0.4334(2)
H15_8 H 0.6161 0.2727 0.4290
C17_8 C 0.55227(18) 0.0134(3) 0.2033(2)
C18_8 C 0.54898(18) 0.1047(3) 0.1657(2)
H16_8 H 0.5811 0.1529 0.1999
C19_7 C 0.49901(17) 0.1252(3) 0.0787(2)
H17_7 H 0.4975 0.1867 0.0547
C20_7 C 0.45109(16) 0.0535(3) 0.0274(2)
N1_8 N 0.72446(13) 0.2509(2) 0.58653(17)
N4_8 N 0.73392(15) 0.3749(2) 0.66853(19)
O1_8 O 0.69001(18) 0.6151(3) 0.6279(2)
O2_8 O 0.6080(2) 0.5337(3) 0.5156(3)
O3_8 O 0.72734(17) 0.6150(3) 0.3325(2)
H20_5 H 0.6634 0.0426 0.0963
H13_5 H 0.2803 0.0216 0.5495
C16_5 C 0.3944(2) 0.0148(3) 0.7043(3)
C21_4 C 0.5454(2) 0.0379(3) 0.9357(3)
H18_4 H 0.5772 0.0865 0.9699
C22_5 C 0.49580(19) 0.0575(3) 0.8499(3)
H19_5 H 0.4941 0.1197 0.8265
O5_5 O 0.37905(16) 0.1030(2) 0.68630(19)
H13_6 H 0.7197 0.0216 0.9505
C16_6 C 0.6056(2) 0.0148(3) 0.7957(3)
C21_5 C 0.4546(2) 0.0379(3) 0.5643(3)
H18_5 H 0.4228 0.0865 0.5301
C22_6 C 0.50420(19) 0.0575(3) 0.6501(3)
H19_6 H 0.5059 0.1197 0.6735
H20_6 H 0.3366 0.0426 0.4037
O5_6 O 0.62095(16) 0.1030(2) 0.81370(19)
C19_8 C 0.99901(17) 0.6252(3) 0.0787(2)
H17_8 H 0.9975 0.6867 0.0547
C20_8 C 0.95109(16) 0.5535(3) 0.0274(2)
C21_6 C 0.9546(2) 0.4621(3) 0.0643(3)
H18_6 H 0.9228 0.4135 0.0301
H13_7 H 0.7197 0.9784 0.4505
C16_7 C 0.6056(2) 0.9852(3) 0.2957(3)
C21_7 C 0.4546(2) 0.9621(3) 0.0643(3)
H18_7 H 0.4228 0.9135 0.0301
C22_7 C 0.50420(19) 0.9425(3) 0.1501(3)
H19_7 H 0.5059 0.8803 0.1735
O5_7 O 0.62095(16) 0.8970(2) 0.31370(19)
H20_7 H 0.3366 0.9574 0.9037
H13_8 H 0.2803 0.9784 0.0495
C16_8 C 0.3944(2) 0.9852(3) 0.2043(3)
C21_8 C 0.5454(2) 0.9621(3) 0.4357(3)
H18_8 H 0.5772 0.9135 0.4699
C22_8 C 0.49580(19) 0.9425(3) 0.3499(3)
H19_8 H 0.4941 0.8803 0.3265
H20_8 H 0.6634 0.9574 0.5963
O5_8 O 0.37905(16) 0.8970(2) 0.18630(19)
loop_
_geom_bond_atom_site_label_1
_geom_bond_atom_site_label_2
_geom_bond_site_symmetry_1
_geom_bond_site_symmetry_2
C23 H20 1_555 1_555
C24 H21 1_555 1_555
C25 C24 1_555 1_555
H22 C25 1_555 1_555
N3 C23 1_555 1_555
Zn2 N3 1_555 1_555
C23 N2 1_555 1_555
C24 N3 1_555 1_555
C25 N2 1_555 1_555
C7 H9 1_555 1_555
C8 H10 1_555 1_555
C9 C8 1_555 1_555
H11 C9 1_555 1_555
C10 C11 1_555 1_555
C11 H12 1_555 1_555
C12 C11 1_555 1_555
H13 C12 1_555 1_555
C13 C12 1_555 1_555
C14 C13 1_555 1_555
H14 C14 1_555 1_555
C15 C10 1_555 1_555
H15 C15 1_555 1_555
C16 C13 1_555 1_555
C17 C16 1_555 1_555
C18 C17 1_555 1_555
H16 C18 1_555 1_555
C22 C17 1_555 1_555
H19 C22 1_555 1_555
N1 C7 1_555 1_555
N4 C7 1_555 1_555
O5 C16 1_555 1_555
C8 N4 1_555 1_555
C9 N1 1_555 1_555
C10 N1 1_555 1_555
C14 C15 1_555 1_555
C1 C2 1_555 1_555
C2 H1 1_555 1_555
H2 C2 1_555 1_555
C3 C2 1_555 1_555
H3 C3 1_555 1_555
H4 C3 1_555 1_555
C4 C3 1_555 1_555
H5 C4 1_555 1_555
H6 C4 1_555 1_555
C5 C4 1_555 1_555
H7 C5 1_555 1_555
H8 C5 1_555 1_555
C6 C5 1_555 1_555
C7_2 H9_2 1_555 1_555
C8_2 H10_2 1_555 1_555
C9_2 C8_2 1_555 1_555
H11_2 C9_2 1_555 1_555
C10_2 C11_2 1_555 1_555
C11_2 H12_2 1_555 1_555
C12_2 C11_2 1_555 1_555
C13_2 C12_2 1_555 1_555
C14_2 C13_2 1_555 1_555
H14_2 C14_2 1_555 1_555
C15_2 C10_2 1_555 1_555
H15_2 C15_2 1_555 1_555
C18_2 C17_2 1_555 1_555
H16_2 C18_2 1_555 1_555
C19 C18_2 1_555 1_555
H17 C19 1_555 1_555
C20 C19 1_555 1_555
N1_2 C7_2 1_555 1_555
N4_2 C7_2 1_555 1_555
O1 C1 1_555 1_555
O2 C1 1_555 1_555
O3 C6 1_555 1_555
O4 C6 1_555 1_555
Zn2 N4_2 1_555 1_555
O6_2 Zn2 1_555 1_555
Zn3_2 O4 1_555 1_555
C8_2 N4_2 1_555 1_555
C9_2 N1_2 1_555 1_555
C10_2 N1_2 1_555 1_555
C14_2 C15_2 1_555 1_555
O1 Zn2 1_555 1_555
H17_2 C19_2 1_555 1_555
C20_2 C19_2 1_555 1_555
C21 C20_2 1_555 1_555
H18 C21 1_555 1_555
C23_2 H20_2 1_555 1_555
C24_2 H21_2 1_555 1_555
C25_2 C24_2 1_555 1_555
H22_2 C25_2 1_555 1_555
N2_2 C20_2 1_555 1_555
N3_2 C23_2 1_555 1_555
Zn3_2 N3_2 1_555 1_555
C23_2 N2_2 1_555 1_555
C24_2 N3_2 1_555 1_555
C25_2 N2_2 1_555 1_555
C2_2 H1_2 1_555 1_555
C3_2 C2_2 1_555 1_555
H3_2 C3_2 1_555 1_555
H4_2 C3_2 1_555 1_555
C4_2 C3_2 1_555 1_555
H5_2 C4_2 1_555 1_555
H6_2 C4_2 1_555 1_555
C5_2 C4_2 1_555 1_555
H7_2 C5_2 1_555 1_555
H8_2 C5_2 1_555 1_555
C6_2 C5_2 1_555 1_555
O3_2 C6_2 1_555 1_555
O6 C6_2 1_555 1_555
O1_2 C1_2 1_555 1_555
O2_2 C1_2 1_555 1_555
N5 Zn3 1_555 1_555
O1_2 Zn3 1_555 1_555
C2_3 H1_3 1_555 1_555
C3_3 C2_3 1_555 1_555
H3_3 C3_3 1_555 1_555
H4_3 C3_3 1_555 1_555
C4_3 C3_3 1_555 1_555
H5_3 C4_3 1_555 1_555
H6_3 C4_3 1_555 1_555
C5_3 C4_3 1_555 1_555
H7_3 C5_3 1_555 1_555
H8_3 C5_3 1_555 1_555
C6_3 C5_3 1_555 1_555
C13_3 C12_3 1_555 1_555
C14_3 C13_3 1_555 1_555
H14_3 C14_3 1_555 1_555
H15_3 C15_3 1_555 1_555
C18_3 C17_3 1_555 1_555
H16_3 C18_3 1_555 1_555
C19_3 C18_3 1_555 1_555
H17_3 C19_3 1_555 1_555
C20_3 C19_3 1_555 1_555
C24_3 H21_3 1_555 1_555
C25_3 C24_3 1_555 1_555
H22_3 C25_3 1_555 1_555
N2_3 C20_3 1_555 1_555
N5 C23_3 1_555 1_555
O3_3 C6_3 1_555 1_555
O6_2 C6_3 1_555 1_555
C14_3 C15_3 1_555 1_555
C23_3 N2_3 1_555 1_555
C24_3 N5 1_555 1_555
C25_3 N2_3 1_555 1_555
C7_3 H9_3 1_555 1_555
C8_3 H10_3 1_555 1_555
C9_3 C8_3 1_555 1_555
H11_3 C9_3 1_555 1_555
C10_3 C11_3 1_555 1_555
C11_3 H12_3 1_555 1_555
N1_3 C7_3 1_555 1_555
N4_3 C7_3 1_555 1_555
O1_3 C1_3 1_555 1_555
O2_3 C1_3 1_555 1_555
Zn3_2 N4_3 1_555 1_555
C8_3 N4_3 1_555 1_555
C9_3 N1_3 1_555 1_555
C10_3 N1_3 1_555 1_555
O1_3 Zn3_2 1_555 1_555
H17_4 C19_4 1_555 1_555
C20_4 C19_4 1_555 1_555
C21_2 C20_4 1_555 1_555
H18_2 C21_2 1_555 1_555
C1_4 C2_4 1_555 1_555
C2_4 H1_4 1_555 1_555
H2_4 C2_4 1_555 1_555
C3_4 C2_4 1_555 1_555
H3_4 C3_4 1_555 1_555
H4_4 C3_4 1_555 1_555
C4_4 C3_4 1_555 1_555
H5_4 C4_4 1_555 1_555
H6_4 C4_4 1_555 1_555
C5_4 C4_4 1_555 1_555
H7_4 C5_4 1_555 1_555
H8_4 C5_4 1_555 1_555
C6_4 C5_4 1_555 1_555
O1_4 C1_4 1_555 1_555
O2_4 C1_4 1_555 1_555
O3_4 C6_4 1_555 1_555
O4_2 C6_4 1_555 1_555
N5_2 Zn1 1_555 1_555
O1_4 Zn1 1_555 1_555
C24_4 H21_4 1_555 1_555
C25_4 C24_4 1_555 1_555
H22_4 C25_4 1_555 1_555
N5_2 C23_4 1_555 1_555
C23_4 N2_4 1_555 1_555
C24_4 N5_2 1_555 1_555
C25_4 N2_4 1_555 1_555
H13_2 C12_4 1_555 1_555
C13_4 C12_4 1_555 1_555
C14_4 C13_4 1_555 1_555
H14_4 C14_4 1_555 1_555
H15_4 C15_4 1_555 1_555
C16_2 C13_4 1_555 1_555
C17_4 C16_2 1_555 1_555
C18_4 C17_4 1_555 1_555
H16_4 C18_4 1_555 1_555
C22_2 C17_4 1_555 1_555
H19_2 C22_2 1_555 1_555
O5_2 C16_2 1_555 1_555
C14_4 C15_4 1_555 1_555
C7_4 H9_4 1_555 1_555
C8_4 H10_4 1_555 1_555
C9_4 C8_4 1_555 1_555
H11_4 C9_4 1_555 1_555
C10_4 C11_4 1_555 1_555
C11_4 H12_4 1_555 1_555
N1_4 C7_4 1_555 1_555
N4_4 C7_4 1_555 1_555
C8_4 N4_4 1_555 1_555
C9_4 N1_4 1_555 1_555
C10_4 N1_4 1_555 1_555
C7_5 H9_5 1_555 1_555
C8_5 H10_5 1_555 1_555
C9_5 C8_5 1_555 1_555
H11_5 C9_5 1_555 1_555
C10_5 C11_5 1_555 1_555
C11_5 H12_5 1_555 1_555
N1_5 C7_5 1_555 1_555
N4_5 C7_5 1_555 1_555
C8_5 N4_5 1_555 1_555
C9_5 N1_5 1_555 1_555
C10_5 N1_5 1_555 1_555
H13_3 C12_5 1_555 1_555
C13_5 C12_5 1_555 1_555
C14_5 C13_5 1_555 1_555
H14_5 C14_5 1_555 1_555
H15_5 C15_5 1_555 1_555
C16_3 C13_5 1_555 1_555
C17_5 C16_3 1_555 1_555
C18_5 C17_5 1_555 1_555
H16_5 C18_5 1_555 1_555
C22_3 C17_5 1_555 1_555
H19_3 C22_3 1_555 1_555
O5_3 C16_3 1_555 1_555
C14_5 C15_5 1_555 1_555
C1_5 C2_5 1_555 1_555
C2_5 H1_5 1_555 1_555
H2_5 C2_5 1_555 1_555
C3_5 C2_5 1_555 1_555
H3_5 C3_5 1_555 1_555
H4_5 C3_5 1_555 1_555
C4_5 C3_5 1_555 1_555
H5_5 C4_5 1_555 1_555
H6_5 C4_5 1_555 1_555
C5_5 C4_5 1_555 1_555
H7_5 C5_5 1_555 1_555
H8_5 C5_5 1_555 1_555
C6_5 C5_5 1_555 1_555
O1_5 C1_5 1_555 1_555
O2_5 C1_5 1_555 1_555
O3_5 C6_5 1_555 1_555
O6_3 C6_5 1_555 1_555
N5_3 Zn3_3 1_555 1_555
O1_5 Zn3_3 1_555 1_555
C24_5 H21_5 1_555 1_555
C25_5 C24_5 1_555 1_555
H22_5 C25_5 1_555 1_555
N5_3 C23_5 1_555 1_555
C23_5 N2_5 1_555 1_555
C24_5 N5_3 1_555 1_555
C25_5 N2_5 1_555 1_555
O1_6 C1_6 1_555 1_555
O2_6 C1_6 1_555 1_555
N5_4 Zn1_2 1_555 1_555
O1_6 Zn1_2 1_555 1_555
C2_6 H1_6 1_555 1_555
C3_6 C2_6 1_555 1_555
H3_6 C3_6 1_555 1_555
H4_6 C3_6 1_555 1_555
C4_6 C3_6 1_555 1_555
H5_6 C4_6 1_555 1_555
H6_6 C4_6 1_555 1_555
C5_6 C4_6 1_555 1_555
H7_6 C5_6 1_555 1_555
H8_6 C5_6 1_555 1_555
C6_6 C5_6 1_555 1_555
O3_6 C6_6 1_555 1_555
O4_3 C6_6 1_555 1_555
H17_5 C19_5 1_555 1_555
C20_5 C19_5 1_555 1_555
C21_3 C20_5 1_555 1_555
H18_3 C21_3 1_555 1_555
C23_6 H20_3 1_555 1_555
C24_6 H21_6 1_555 1_555
C25_6 C24_6 1_555 1_555
H22_6 C25_6 1_555 1_555
N2_6 C20_5 1_555 1_555
N3_3 C23_6 1_555 1_555
Zn2_2 N3_3 1_555 1_555
C23_6 N2_6 1_555 1_555
C24_6 N3_3 1_555 1_555
C25_6 N2_6 1_555 1_555
C7_6 H9_6 1_555 1_555
C8_6 H10_6 1_555 1_555
C9_6 C8_6 1_555 1_555
H11_6 C9_6 1_555 1_555
C10_6 C11_6 1_555 1_555
C11_6 H12_6 1_555 1_555
N1_6 C7_6 1_555 1_555
N4_6 C7_6 1_555 1_555
O1_7 C1_7 1_555 1_555
O2_7 C1_7 1_555 1_555
Zn2_2 N4_6 1_555 1_555
O6_4 Zn2_2 1_555 1_555
C8_6 N4_6 1_555 1_555
C9_6 N1_6 1_555 1_555
C10_6 N1_6 1_555 1_555
O1_7 Zn2_2 1_555 1_555
C2_7 H1_7 1_555 1_555
C3_7 C2_7 1_555 1_555
H3_7 C3_7 1_555 1_555
H4_7 C3_7 1_555 1_555
C4_7 C3_7 1_555 1_555
H5_7 C4_7 1_555 1_555
H6_7 C4_7 1_555 1_555
C5_7 C4_7 1_555 1_555
H7_7 C5_7 1_555 1_555
H8_7 C5_7 1_555 1_555
C6_7 C5_7 1_555 1_555
C13_6 C12_6 1_555 1_555
C14_6 C13_6 1_555 1_555
H14_6 C14_6 1_555 1_555
H15_6 C15_6 1_555 1_555
C18_6 C17_6 1_555 1_555
H16_6 C18_6 1_555 1_555
C19_6 C18_6 1_555 1_555
H17_6 C19_6 1_555 1_555
C20_6 C19_6 1_555 1_555
C24_7 H21_7 1_555 1_555
C25_7 C24_7 1_555 1_555
H22_7 C25_7 1_555 1_555
N2_7 C20_6 1_555 1_555
N5_4 C23_7 1_555 1_555
O3_7 C6_7 1_555 1_555
O4_4 C6_7 1_555 1_555
Zn3_4 O4_4 1_555 1_555
C14_6 C15_6 1_555 1_555
C23_7 N2_7 1_555 1_555
C24_7 N5_4 1_555 1_555
C25_7 N2_7 1_555 1_555
C7_7 H9_7 1_555 1_555
C8_7 H10_7 1_555 1_555
C9_7 C8_7 1_555 1_555
H11_7 C9_7 1_555 1_555
C10_7 C11_7 1_555 1_555
C11_7 H12_7 1_555 1_555
C12_7 C11_7 1_555 1_555
H13_4 C12_7 1_555 1_555
C13_7 C12_7 1_555 1_555
C14_7 C13_7 1_555 1_555
H14_7 C14_7 1_555 1_555
C15_7 C10_7 1_555 1_555
H15_7 C15_7 1_555 1_555
C16_4 C13_7 1_555 1_555
C17_7 C16_4 1_555 1_555
C18_7 C17_7 1_555 1_555
H16_7 C18_7 1_555 1_555
C22_4 C17_7 1_555 1_555
H19_4 C22_4 1_555 1_555
N1_7 C7_7 1_555 1_555
N4_7 C7_7 1_555 1_555
O5_4 C16_4 1_555 1_555
C8_7 N4_7 1_555 1_555
C9_7 N1_7 1_555 1_555
C10_7 N1_7 1_555 1_555
C14_7 C15_7 1_555 1_555
C23_8 H20_4 1_555 1_555
C24_8 H21_8 1_555 1_555
C25_8 C24_8 1_555 1_555
H22_8 C25_8 1_555 1_555
N3_4 C23_8 1_555 1_555
Zn3_4 N3_4 1_555 1_555
C23_8 N2_8 1_555 1_555
C24_8 N3_4 1_555 1_555
C25_8 N2_8 1_555 1_555
C1_8 C2_8 1_555 1_555
C2_8 H1_8 1_555 1_555
H2_8 C2_8 1_555 1_555
C3_8 C2_8 1_555 1_555
H3_8 C3_8 1_555 1_555
H4_8 C3_8 1_555 1_555
C4_8 C3_8 1_555 1_555
H5_8 C4_8 1_555 1_555
H6_8 C4_8 1_555 1_555
C5_8 C4_8 1_555 1_555
H7_8 C5_8 1_555 1_555
H8_8 C5_8 1_555 1_555
C6_8 C5_8 1_555 1_555
C7_8 H9_8 1_555 1_555
C8_8 H10_8 1_555 1_555
C9_8 C8_8 1_555 1_555
H11_8 C9_8 1_555 1_555
C10_8 C11_8 1_555 1_555
C11_8 H12_8 1_555 1_555
C12_8 C11_8 1_555 1_555
C13_8 C12_8 1_555 1_555
C14_8 C13_8 1_555 1_555
H14_8 C14_8 1_555 1_555
C15_8 C10_8 1_555 1_555
H15_8 C15_8 1_555 1_555
C18_8 C17_8 1_555 1_555
H16_8 C18_8 1_555 1_555
C19_7 C18_8 1_555 1_555
H17_7 C19_7 1_555 1_555
C20_7 C19_7 1_555 1_555
N1_8 C7_8 1_555 1_555
N4_8 C7_8 1_555 1_555
O1_8 C1_8 1_555 1_555
O2_8 C1_8 1_555 1_555
O3_8 C6_8 1_555 1_555
O6_4 C6_8 1_555 1_555
Zn3_4 N4_8 1_555 1_555
C8_8 N4_8 1_555 1_555
C9_8 N1_8 1_555 1_555
C10_8 N1_8 1_555 1_555
C14_8 C15_8 1_555 1_555
O1_8 Zn3_4 1_555 1_555
H18_4 C21_4 1_555 1_555
H19_5 C22_5 1_555 1_555
O5_5 C16_5 1_555 1_555
C21_4 C22_5 1_555 1_555
H18_5 C21_5 1_555 1_555
H19_6 C22_6 1_555 1_555
O5_6 C16_6 1_555 1_555
C21_5 C22_6 1_555 1_555
H17_8 C19_8 1_555 1_555
C20_8 C19_8 1_555 1_555
C21_6 C20_8 1_555 1_555
H18_6 C21_6 1_555 1_555
H18_7 C21_7 1_555 1_555
H19_7 C22_7 1_555 1_555
O5_7 C16_7 1_555 1_555
C21_7 C22_7 1_555 1_555
H18_8 C21_8 1_555 1_555
H19_8 C22_8 1_555 1_555
O5_8 C16_8 1_555 1_555
C21_8 C22_8 1_555 1_555

#END
