
###############################################################################
#
# This file contains modified crystal structure data generated from the
# MOF subset of the Cambridge Structural Database (CSD) v543 
# hosted by the Cambridge Crystallographic Data Centre (CCDC).
#
# This work is licensed under the Creative Commons
# Attribution-NonCommercial-ShareAlike 4.0 International License.
# To view a copy of this license, visit
# http://creativecommons.org/licenses/by-nc-sa/4.0/
# or send a letter to
# Creative Commons, PO Box 1866, Mountain View, CA 94042, USA.
#
# CIF created using the CSD Python API on 29 September 2022
# The structure has been converted into the P1 space group
# The structure has a 3D framework
# The original CSD entry CIWRIK is in the orthorhombic crystal system
# The framework has been calculated to contain at least 10.0% void space
# The void calculation uses a probe of radius 1.32A, grid spacing 0.4
#
###############################################################################

data_CIWRIK
_chemical_formula_moiety         '(C288 H192 I48 N96 Zn24)n'
_symmetry_cell_setting           triclinic
_symmetry_space_group_name_H-M   'P 1'
_symmetry_Int_Tables_number      1
_space_group_name_Hall           'P 1'
loop_
_symmetry_equiv_pos_site_id
_symmetry_equiv_pos_as_xyz
1 x,y,z
_cell_length_a                   27.122(4)
_cell_length_b                   13.692(2)
_cell_length_c                   45.963(7)
_cell_angle_alpha                90
_cell_angle_beta                 90
_cell_angle_gamma                90
_cell_volume                     17068.6
loop_
_atom_site_label
_atom_site_type_symbol
_atom_site_fract_x
_atom_site_fract_y
_atom_site_fract_z
Zn3 Zn 0.46719(3) 0.15011(6) 0.907290(17)
I5 I 0.42038(2) 0.22888(4) 0.865890(13)
I6 I 0.479760(19) 0.23275(4) 0.956240(11)
H7 H 0.4312 0.0255 0.9574
N2 N 0.4370(2) 0.0142(4) 0.91521(12)
N14 N 0.53459(19) 0.1124(4) 0.88963(11)
Zn1 Zn 0.95069(3) 0.13889(6) 0.931415(15)
I2 I 0.954684(19) 0.32122(3) 0.942396(11)
C15 C 0.9037(3) 0.1105(5) 0.98908(14)
H11 H 0.8946 0.1770 0.9865
C19 C 0.8429(2) 0.1257(5) 0.91904(14)
H13 H 0.8404 0.1452 0.9388
C20 C 0.8001(2) 0.1108(5) 0.90367(13)
H14 H 0.7689 0.1193 0.9127
C21 C 0.8905(2) 0.0877(5) 0.87949(13)
H15 H 0.9222 0.0796 0.8710
C22 C 0.8496(2) 0.0720(5) 0.86259(14)
H16 H 0.8530 0.0537 0.8428
C23 C 0.8034(2) 0.0833(4) 0.87469(13)
C24 C 0.7585(2) 0.0684(4) 0.85722(12)
H18 H 0.8035 0.0163 0.7808
C29 C 0.7291(2) 0.0014(4) 0.78360(13)
C30 C 0.7237(2) 0.0314(4) 0.81431(12)
C31 C 0.5401(2) 0.0987(5) 0.86105(15)
H21 H 0.5118 0.1016 0.8489
C32 C 0.5854(2) 0.0806(5) 0.84845(15)
H22 H 0.5879 0.0689 0.8281
C33 C 0.5745(2) 0.1080(5) 0.90628(14)
H23 H 0.5708 0.1162 0.9267
C34 C 0.6209(2) 0.0921(5) 0.89538(13)
H24 H 0.6486 0.0898 0.9080
C35 C 0.6269(2) 0.0796(4) 0.86570(13)
C36 C 0.6762(2) 0.0663(4) 0.85291(13)
N3 N 0.93274(19) 0.0677(4) 0.96951(11)
N7 N 0.88765(19) 0.1140(4) 0.90758(11)
N10 N 0.76518(19) 0.0450(4) 0.82924(10)
N11 N 0.67829(19) 0.0413(4) 0.82462(11)
N12 N 0.71493(18) 0.0793(4) 0.86997(10)
Zn1_2 Zn 0.45069(3) 0.36111(6) 0.068585(15)
I1 I 0.517538(16) 0.45682(4) 0.094575(10)
I2_2 I 0.454684(19) 0.17878(3) 0.057604(11)
C13 C 0.4460(2) 0.5258(5) 0.02599(13)
H9 H 0.4671 0.5562 0.0398
C14 C 0.4307(2) 0.5789(5) 0.00277(13)
H10 H 0.4411 0.6447 0.0004
C15_2 C 0.4037(3) 0.3895(5) 0.01092(14)
H11_2 H 0.3946 0.3230 0.0135
C19_2 C 0.3429(2) 0.3743(5) 0.08096(14)
H13_2 H 0.3404 0.3548 0.0612
C20_2 C 0.3001(2) 0.3892(5) 0.09633(13)
H14_2 H 0.2689 0.3807 0.0873
C21_2 C 0.3905(2) 0.4123(5) 0.12051(13)
H15_2 H 0.4222 0.4204 0.1290
C22_2 C 0.3496(2) 0.4280(5) 0.13741(14)
H16_2 H 0.3530 0.4463 0.1572
C23_2 C 0.3034(2) 0.4167(4) 0.12531(13)
C24_2 C 0.2585(2) 0.4316(4) 0.14278(12)
C25 C 0.2787(3) 0.5391(5) 0.25739(13)
H17 H 0.3103 0.5420 0.2662
C26 C 0.2748(3) 0.5040(5) 0.22942(13)
H18_2 H 0.3035 0.4837 0.2192
C27 C 0.1957(3) 0.5610(6) 0.26040(14)
H19 H 0.1676 0.5802 0.2713
C28 C 0.1884(3) 0.5259(5) 0.23256(15)
H20 H 0.1562 0.5205 0.2247
C29_2 C 0.2291(2) 0.4986(4) 0.21640(13)
C30_2 C 0.2237(2) 0.4686(4) 0.18569(12)
C31_2 C 0.0401(2) 0.4013(5) 0.13895(15)
H21_2 H 0.0118 0.3984 0.1511
C32_2 C 0.0854(2) 0.4194(5) 0.15155(15)
H22_2 H 0.0879 0.4311 0.1719
C33_2 C 0.0745(2) 0.3920(5) 0.09372(14)
H23_2 H 0.0708 0.3838 0.0733
C34_2 C 0.1209(2) 0.4079(5) 0.10462(13)
H24_2 H 0.1486 0.4102 0.0920
C35_2 C 0.1269(2) 0.4204(4) 0.13430(13)
C36_2 C 0.1762(2) 0.4337(4) 0.14709(13)
N3_2 N 0.43274(19) 0.4323(4) 0.03049(11)
N7_2 N 0.38765(19) 0.3860(4) 0.09242(11)
N8 N 0.2395(2) 0.5694(4) 0.27262(11)
N9 N 0.03459(19) 0.3876(4) 0.11037(11)
N10_2 N 0.26518(19) 0.4550(4) 0.17076(10)
N11_2 N 0.17829(19) 0.4587(4) 0.17538(11)
N12_2 N 0.21493(18) 0.4207(4) 0.13003(10)
Zn4 Zn 0.24746(3) 0.64923(6) 0.309850(16)
Zn2 Zn 0.25254(3) 0.35077(6) 0.809850(16)
I3 I 0.16129(2) 0.33833(5) 0.822070(11)
I4 I 0.30394(2) 0.19588(4) 0.802550(11)
C1 C 0.3078(3) 0.3829(5) 0.86408(14)
H1 H 0.3080 0.3135 0.8643
C2 C 0.3283(2) 0.4323(5) 0.88699(14)
H2 H 0.3423 0.3973 0.9028
C3 C 0.2877(3) 0.5259(6) 0.84169(15)
H3 H 0.2731 0.5592 0.8258
C4 C 0.3078(3) 0.5803(5) 0.86367(14)
H4 H 0.3074 0.6497 0.8629
C5 C 0.3286(2) 0.5322(5) 0.88693(13)
C6 C 0.3513(2) 0.5874(5) 0.91134(13)
C7 C 0.4288(3) 0.9540(5) 0.89305(16)
H5 H 0.4357 0.9765 0.8739
C8 C 0.4110(3) 0.8612(5) 0.89642(16)
H6 H 0.4051 0.8209 0.8800
C9 C 0.4267(3) 0.9824(5) 0.94143(15)
C10 C 0.4096(3) 0.8901(5) 0.94690(14)
H8 H 0.4034 0.8699 0.9663
C11 C 0.4015(2) 0.8270(5) 0.92424(14)
C12 C 0.3853(2) 0.7249(5) 0.92872(14)
C16 C 0.3862(3) 0.4401(5) 0.98672(13)
H12 H 0.3651 0.4085 0.9732
C17 C 0.3996(2) 0.5357(5) 0.98241(13)
C18 C 0.3832(2) 0.5901(5) 0.95630(13)
N1 N 0.2875(2) 0.4284(4) 0.84148(11)
N4 N 0.36330(18) 0.6807(4) 0.90641(11)
N5 N 0.39548(19) 0.6840(4) 0.95436(11)
N6 N 0.36001(19) 0.5382(4) 0.93597(11)
N13 N 0.2605(2) 0.4306(4) 0.77262(11)
Zn1_3 Zn 0.04931(3) 0.63889(6) 0.568585(15)
I2_3 I 0.045316(19) 0.82122(3) 0.557604(11)
I3_2 I 0.33871(2) 0.66167(5) 0.322070(11)
I4_2 I 0.19606(2) 0.80412(4) 0.302550(11)
C1_2 C 0.1922(3) 0.6171(5) 0.36408(14)
H1_2 H 0.1920 0.6865 0.3643
C2_2 C 0.1717(2) 0.5677(5) 0.38699(14)
H2_2 H 0.1577 0.6027 0.4028
C3_2 C 0.2123(3) 0.4741(6) 0.34169(15)
H3_2 H 0.2269 0.4408 0.3258
C4_2 C 0.1922(3) 0.4197(5) 0.36367(14)
H4_2 H 0.1926 0.3503 0.3629
C5_2 C 0.1714(2) 0.4678(5) 0.38693(13)
C6_2 C 0.1487(2) 0.4126(5) 0.41134(13)
C7_2 C 0.0712(3) 0.0460(5) 0.39305(16)
H5_2 H 0.0643 0.0235 0.3739
C8_2 C 0.0890(3) 0.1388(5) 0.39642(16)
H6_2 H 0.0949 0.1791 0.3800
C9_2 C 0.0733(3) 0.0176(5) 0.44143(15)
C10_2 C 0.0904(3) 0.1099(5) 0.44690(14)
H8_2 H 0.0966 0.1301 0.4663
C11_2 C 0.0985(2) 0.1730(5) 0.42424(14)
C12_2 C 0.1147(2) 0.2751(5) 0.42872(14)
C13_2 C 0.0540(2) 0.4742(5) 0.52599(13)
H9_2 H 0.0329 0.4438 0.5398
C14_2 C 0.0693(2) 0.4211(5) 0.50277(13)
H10_2 H 0.0589 0.3553 0.5004
C15_3 C 0.0963(3) 0.6105(5) 0.51092(14)
H11_3 H 0.1054 0.6770 0.5135
C16_2 C 0.1138(3) 0.5599(5) 0.48672(13)
H12_2 H 0.1349 0.5915 0.4732
C17_2 C 0.1004(2) 0.4643(5) 0.48241(13)
C18_2 C 0.1168(2) 0.4099(5) 0.45630(13)
C19_3 C 0.1571(2) 0.6257(5) 0.58096(14)
H13_3 H 0.1596 0.6452 0.5612
C20_3 C 0.1999(2) 0.6108(5) 0.59633(13)
H14_3 H 0.2311 0.6193 0.5873
C21_3 C 0.1095(2) 0.5877(5) 0.62051(13)
H15_3 H 0.0778 0.5796 0.6290
C22_3 C 0.1504(2) 0.5720(5) 0.63741(14)
H16_3 H 0.1470 0.5537 0.6572
C23_3 C 0.1966(2) 0.5833(4) 0.62531(13)
C24_3 C 0.2415(2) 0.5684(4) 0.64278(12)
C25_2 C 0.2213(3) 0.4609(5) 0.75739(13)
H17_2 H 0.1897 0.4580 0.7662
C26_2 C 0.2252(3) 0.4960(5) 0.72942(13)
H18_3 H 0.1965 0.5163 0.7192
C27_2 C 0.3043(3) 0.4390(6) 0.76040(14)
H19_2 H 0.3324 0.4198 0.7713
C28_2 C 0.3116(3) 0.4741(5) 0.73256(15)
H20_2 H 0.3438 0.4795 0.7247
C29_3 C 0.2709(2) 0.5014(4) 0.71640(13)
C30_3 C 0.2763(2) 0.5314(4) 0.68569(12)
C31_3 C 0.4599(2) 0.5987(5) 0.63895(15)
H21_3 H 0.4882 0.6016 0.6511
C32_3 C 0.4146(2) 0.5806(5) 0.65155(15)
H22_3 H 0.4121 0.5689 0.6719
C33_3 C 0.4255(2) 0.6080(5) 0.59372(14)
H23_3 H 0.4292 0.6162 0.5733
C34_3 C 0.3791(2) 0.5921(5) 0.60462(13)
H24_3 H 0.3514 0.5898 0.5920
C35_3 C 0.3731(2) 0.5796(4) 0.63430(13)
C36_3 C 0.3238(2) 0.5663(4) 0.64709(13)
N1_2 N 0.2125(2) 0.5716(4) 0.34148(11)
N3_3 N 0.06726(19) 0.5677(4) 0.53049(11)
N4_2 N 0.13670(18) 0.3193(4) 0.40641(11)
N5_2 N 0.10452(19) 0.3160(4) 0.45436(11)
N6_2 N 0.13999(19) 0.4618(4) 0.43597(11)
N7_3 N 0.11235(19) 0.6140(4) 0.59242(11)
N9_2 N 0.46541(19) 0.6124(4) 0.61037(11)
N10_3 N 0.23482(19) 0.5450(4) 0.67076(10)
N11_3 N 0.32171(19) 0.5413(4) 0.67538(11)
N12_3 N 0.28507(18) 0.5793(4) 0.63003(10)
Zn5 Zn 0.53281(3) 0.65011(6) 0.592710(17)
I5_2 I 0.57962(2) 0.72888(4) 0.634110(13)
I6_2 I 0.520240(19) 0.73275(4) 0.543760(11)
C3_3 C 0.7123(3) 0.0259(6) 0.65831(15)
H3_3 H 0.7269 0.0592 0.6742
C4_3 C 0.6922(3) 0.0803(5) 0.63633(14)
H4_3 H 0.6926 0.1497 0.6371
C5_3 C 0.6714(2) 0.0322(5) 0.61307(13)
C6_3 C 0.6487(2) 0.0874(5) 0.58866(13)
C7_3 C 0.5712(3) 0.4540(5) 0.60695(16)
H5_3 H 0.5643 0.4765 0.6261
C8_3 C 0.5890(3) 0.3612(5) 0.60358(16)
H6_3 H 0.5949 0.3209 0.6200
C9_3 C 0.5733(3) 0.4824(5) 0.55857(15)
H7_2 H 0.5688 0.5255 0.5426
C10_3 C 0.5904(3) 0.3901(5) 0.55310(14)
H8_3 H 0.5966 0.3699 0.5337
C11_3 C 0.5985(2) 0.3270(5) 0.57576(14)
C12_3 C 0.6147(2) 0.2249(5) 0.57128(14)
C13_3 C 0.5540(2) 0.0258(5) 0.47401(13)
H9_3 H 0.5329 0.0562 0.4602
C14_3 C 0.5693(2) 0.0789(5) 0.49723(13)
H10_3 H 0.5589 0.1447 0.4996
C17_3 C 0.6004(2) 0.0357(5) 0.51759(13)
C18_3 C 0.6168(2) 0.0901(5) 0.54370(13)
C25_3 C 0.7213(3) 0.0391(5) 0.24261(13)
H17_3 H 0.6897 0.0420 0.2338
C26_3 C 0.7252(3) 0.0040(5) 0.27058(13)
C27_3 C 0.8043(3) 0.0610(6) 0.23960(14)
H19_3 H 0.8324 0.0802 0.2287
C28_3 C 0.8116(3) 0.0259(5) 0.26744(15)
H20_3 H 0.8438 0.0205 0.2753
N2_2 N 0.5630(2) 0.5142(4) 0.58479(12)
N4_3 N 0.63670(18) 0.1807(4) 0.59359(11)
N5_3 N 0.60452(19) 0.1840(4) 0.54564(11)
N6_3 N 0.63999(19) 0.0382(4) 0.56403(11)
N8_2 N 0.7605(2) 0.0694(4) 0.22738(11)
Zn4_2 Zn 0.75254(3) 0.14923(6) 0.190150(16)
I3_3 I 0.66129(2) 0.16167(5) 0.177930(11)
I4_3 I 0.80394(2) 0.30412(4) 0.197450(11)
C1_3 C 0.8078(3) 0.1171(5) 0.13592(14)
H1_3 H 0.8080 0.1865 0.1357
C2_3 C 0.8283(2) 0.0677(5) 0.11301(14)
H2_3 H 0.8423 0.1027 0.0972
C16_3 C 0.8862(3) 0.0599(5) 0.01328(13)
H12_3 H 0.8651 0.0915 0.0268
N1_3 N 0.7875(2) 0.0716(4) 0.15852(11)
Zn5_2 Zn 0.96719(3) 0.34989(6) 0.092710(17)
I5_3 I 0.92038(2) 0.27112(4) 0.134110(13)
I6_3 I 0.979760(19) 0.26725(4) 0.043760(11)
C3_4 C 0.7877(3) 0.9741(6) 0.15831(15)
H3_4 H 0.7731 0.9408 0.1742
C4_4 C 0.8078(3) 0.9197(5) 0.13633(14)
H4_4 H 0.8074 0.8503 0.1371
C5_4 C 0.8286(2) 0.9678(5) 0.11307(13)
C6_4 C 0.8513(2) 0.9126(5) 0.08866(13)
C7_4 C 0.9288(3) 0.5460(5) 0.10695(16)
H5_4 H 0.9357 0.5235 0.1261
C8_4 C 0.9110(3) 0.6388(5) 0.10358(16)
H6_4 H 0.9051 0.6791 0.1200
C9_4 C 0.9267(3) 0.5176(5) 0.05857(15)
H7_3 H 0.9312 0.4745 0.0426
C10_4 C 0.9096(3) 0.6099(5) 0.05310(14)
H8_4 H 0.9034 0.6301 0.0337
C11_4 C 0.9015(2) 0.6730(5) 0.07576(14)
C12_4 C 0.8853(2) 0.7751(5) 0.07128(14)
C17_4 C 0.8996(2) 0.9643(5) 0.01759(13)
C18_4 C 0.8832(2) 0.9099(5) 0.04370(13)
N2_3 N 0.9370(2) 0.4858(4) 0.08479(12)
N4_4 N 0.86330(18) 0.8193(4) 0.09359(11)
N5_4 N 0.89548(19) 0.8160(4) 0.04564(11)
N6_4 N 0.86001(19) 0.9618(4) 0.06403(11)
Zn3_2 Zn 0.03281(3) 0.84989(6) 0.407290(17)
I5_4 I 0.07962(2) 0.77112(4) 0.365890(13)
I6_4 I 0.020240(19) 0.76725(4) 0.456240(11)
H7_4 H 0.0688 0.9745 0.4574
N2_4 N 0.0630(2) 0.9858(4) 0.41521(12)
I1_2 I 0.982462(16) 0.54318(4) 0.594575(10)
N14_2 N 0.96541(19) 0.8876(4) 0.38963(11)
Zn1_4 Zn 0.54931(3) 0.86111(6) 0.431415(15)
Zn2_2 Zn 0.74746(3) 0.85077(6) 0.690150(16)
I1_3 I 0.482462(16) 0.95682(4) 0.405425(10)
I2_4 I 0.545316(19) 0.67878(3) 0.442396(11)
I3_4 I 0.83871(2) 0.83833(5) 0.677930(11)
I4_4 I 0.69606(2) 0.69588(4) 0.697450(11)
C1_4 C 0.6922(3) 0.8829(5) 0.63592(14)
H1_4 H 0.6920 0.8135 0.6357
C2_4 C 0.6717(2) 0.9323(5) 0.61301(14)
H2_4 H 0.6577 0.8973 0.5972
C15_4 C 0.5963(3) 0.8895(5) 0.48908(14)
H11_4 H 0.6054 0.8230 0.4865
C16_4 C 0.6138(3) 0.9401(5) 0.51328(13)
H12_4 H 0.6349 0.9085 0.5268
C19_4 C 0.6571(2) 0.8743(5) 0.41904(14)
H13_4 H 0.6596 0.8548 0.4388
C20_4 C 0.6999(2) 0.8892(5) 0.40367(13)
H14_4 H 0.7311 0.8807 0.4127
C21_4 C 0.6095(2) 0.9123(5) 0.37949(13)
H15_4 H 0.5778 0.9204 0.3710
C22_4 C 0.6504(2) 0.9280(5) 0.36259(14)
H16_4 H 0.6470 0.9463 0.3428
C23_4 C 0.6966(2) 0.9167(4) 0.37469(13)
C24_4 C 0.7415(2) 0.9316(4) 0.35722(12)
H18_4 H 0.6965 0.9837 0.2808
C29_4 C 0.7709(2) 0.9986(4) 0.28360(13)
C30_4 C 0.7763(2) 0.9686(4) 0.31431(12)
C31_4 C 0.9599(2) 0.9013(5) 0.36105(15)
H21_4 H 0.9882 0.8984 0.3489
C32_4 C 0.9146(2) 0.9194(5) 0.34845(15)
H22_4 H 0.9121 0.9311 0.3281
C33_4 C 0.9255(2) 0.8920(5) 0.40628(14)
H23_4 H 0.9292 0.8838 0.4267
C34_4 C 0.8791(2) 0.9079(5) 0.39538(13)
H24_4 H 0.8514 0.9102 0.4080
C35_4 C 0.8731(2) 0.9204(4) 0.36570(13)
C36_4 C 0.8238(2) 0.9337(4) 0.35291(13)
N1_4 N 0.7125(2) 0.9284(4) 0.65852(11)
N3_4 N 0.56726(19) 0.9323(4) 0.46951(11)
N7_4 N 0.61235(19) 0.8860(4) 0.40758(11)
N10_4 N 0.73482(19) 0.9550(4) 0.32924(10)
N11_4 N 0.82171(19) 0.9587(4) 0.32462(11)
N12_4 N 0.78507(18) 0.9207(4) 0.36997(10)
N13_2 N 0.7395(2) 0.9306(4) 0.72738(11)
C13_4 C 0.9460(2) 0.9742(5) 0.97401(13)
H9_4 H 0.9671 0.9438 0.9602
C14_4 C 0.9307(2) 0.9211(5) 0.99723(13)
H10_4 H 0.9411 0.8553 0.9996
C25_4 C 0.7787(3) 0.9609(5) 0.74261(13)
H17_4 H 0.8103 0.9580 0.7338
C26_4 C 0.7748(3) 0.9960(5) 0.77058(13)
C27_4 C 0.6957(3) 0.9390(6) 0.73960(14)
H19_4 H 0.6676 0.9198 0.7287
C28_4 C 0.6884(3) 0.9741(5) 0.76744(15)
H20_4 H 0.6562 0.9795 0.7753
I1_4 I 0.017538(16) 0.04318(4) 0.905425(10)
Zn5_3 Zn 0.03281(3) 0.65011(6) 0.907290(17)
I5_5 I 0.07962(2) 0.72888(4) 0.865890(13)
I6_5 I 0.020240(19) 0.73275(4) 0.956240(11)
C3_5 C 0.2123(3) 0.0259(6) 0.84169(15)
H3_5 H 0.2269 0.0592 0.8258
C4_5 C 0.1922(3) 0.0803(5) 0.86367(14)
H4_5 H 0.1926 0.1497 0.8629
C5_5 C 0.1714(2) 0.0322(5) 0.88693(13)
C6_5 C 0.1487(2) 0.0874(5) 0.91134(13)
C7_5 C 0.0712(3) 0.4540(5) 0.89305(16)
H5_5 H 0.0643 0.4765 0.8739
C8_5 C 0.0890(3) 0.3612(5) 0.89642(16)
H6_5 H 0.0949 0.3209 0.8800
C9_5 C 0.0733(3) 0.4824(5) 0.94143(15)
H7_5 H 0.0688 0.5255 0.9574
C10_5 C 0.0904(3) 0.3901(5) 0.94690(14)
H8_5 H 0.0966 0.3699 0.9663
C11_5 C 0.0985(2) 0.3270(5) 0.92424(14)
C12_5 C 0.1147(2) 0.2249(5) 0.92872(14)
C17_5 C 0.1004(2) 0.0357(5) 0.98241(13)
C18_5 C 0.1168(2) 0.0901(5) 0.95630(13)
N2_5 N 0.0630(2) 0.5142(4) 0.91521(12)
N4_5 N 0.13670(18) 0.1807(4) 0.90641(11)
N5_5 N 0.10452(19) 0.1840(4) 0.95436(11)
N6_5 N 0.13999(19) 0.0382(4) 0.93597(11)
Zn2_3 Zn 0.74746(3) 0.64923(6) 0.190150(16)
I3_5 I 0.83871(2) 0.66167(5) 0.177930(11)
I4_5 I 0.69606(2) 0.80412(4) 0.197450(11)
C1_5 C 0.6922(3) 0.6171(5) 0.13592(14)
H1_5 H 0.6920 0.6865 0.1357
C2_5 C 0.6717(2) 0.5677(5) 0.11301(14)
H2_5 H 0.6577 0.6027 0.0972
C3_6 C 0.7123(3) 0.4741(6) 0.15831(15)
H3_6 H 0.7269 0.4408 0.1742
C4_6 C 0.6922(3) 0.4197(5) 0.13633(14)
H4_6 H 0.6926 0.3503 0.1371
C5_6 C 0.6714(2) 0.4678(5) 0.11307(13)
C6_6 C 0.6487(2) 0.4126(5) 0.08866(13)
C7_6 C 0.5712(3) 0.0460(5) 0.10695(16)
H5_6 H 0.5643 0.0235 0.1261
C8_6 C 0.5890(3) 0.1388(5) 0.10358(16)
H6_6 H 0.5949 0.1791 0.1200
C9_6 C 0.5733(3) 0.0176(5) 0.05857(15)
C10_6 C 0.5904(3) 0.1099(5) 0.05310(14)
H8_6 H 0.5966 0.1301 0.0337
C11_6 C 0.5985(2) 0.1730(5) 0.07576(14)
C12_6 C 0.6147(2) 0.2751(5) 0.07128(14)
C16_5 C 0.6138(3) 0.5599(5) 0.01328(13)
H12_5 H 0.6349 0.5915 0.0268
C17_6 C 0.6004(2) 0.4643(5) 0.01759(13)
C18_6 C 0.6168(2) 0.4099(5) 0.04370(13)
N1_5 N 0.7125(2) 0.5716(4) 0.15852(11)
N4_6 N 0.63670(18) 0.3193(4) 0.09359(11)
N5_6 N 0.60452(19) 0.3160(4) 0.04564(11)
N6_6 N 0.63999(19) 0.4618(4) 0.06403(11)
N13_3 N 0.7395(2) 0.5694(4) 0.22738(11)
Zn1_5 Zn 0.54931(3) 0.63889(6) 0.931415(15)
I1_5 I 0.482462(16) 0.54318(4) 0.905425(10)
I2_5 I 0.545316(19) 0.82122(3) 0.942396(11)
C13_5 C 0.5540(2) 0.4742(5) 0.97401(13)
H9_5 H 0.5329 0.4438 0.9602
C14_5 C 0.5693(2) 0.4211(5) 0.99723(13)
H10_5 H 0.5589 0.3553 0.9996
C15_5 C 0.5963(3) 0.6105(5) 0.98908(14)
H11_5 H 0.6054 0.6770 0.9865
C19_5 C 0.6571(2) 0.6257(5) 0.91904(14)
H13_5 H 0.6596 0.6452 0.9388
C20_5 C 0.6999(2) 0.6108(5) 0.90367(13)
H14_5 H 0.7311 0.6193 0.9127
C21_5 C 0.6095(2) 0.5877(5) 0.87949(13)
H15_5 H 0.5778 0.5796 0.8710
C22_5 C 0.6504(2) 0.5720(5) 0.86259(14)
H16_5 H 0.6470 0.5537 0.8428
C23_5 C 0.6966(2) 0.5833(4) 0.87469(13)
C24_5 C 0.7415(2) 0.5684(4) 0.85722(12)
C25_5 C 0.7213(3) 0.4609(5) 0.74261(13)
H17_5 H 0.6897 0.4580 0.7338
C26_5 C 0.7252(3) 0.4960(5) 0.77058(13)
H18_5 H 0.6965 0.5163 0.7808
C27_5 C 0.8043(3) 0.4390(6) 0.73960(14)
H19_5 H 0.8324 0.4198 0.7287
C28_5 C 0.8116(3) 0.4741(5) 0.76744(15)
H20_5 H 0.8438 0.4795 0.7753
C29_5 C 0.7709(2) 0.5014(4) 0.78360(13)
C30_5 C 0.7763(2) 0.5314(4) 0.81431(12)
C31_5 C 0.9599(2) 0.5987(5) 0.86105(15)
H21_5 H 0.9882 0.6016 0.8489
C32_5 C 0.9146(2) 0.5806(5) 0.84845(15)
H22_5 H 0.9121 0.5689 0.8281
C33_5 C 0.9255(2) 0.6080(5) 0.90628(14)
H23_5 H 0.9292 0.6162 0.9267
C34_5 C 0.8791(2) 0.5921(5) 0.89538(13)
H24_5 H 0.8514 0.5898 0.9080
C35_5 C 0.8731(2) 0.5796(4) 0.86570(13)
C36_5 C 0.8238(2) 0.5663(4) 0.85291(13)
N3_5 N 0.56726(19) 0.5677(4) 0.96951(11)
N7_5 N 0.61235(19) 0.6140(4) 0.90758(11)
N8_3 N 0.7605(2) 0.4306(4) 0.72738(11)
N9_3 N 0.96541(19) 0.6124(4) 0.88963(11)
N10_5 N 0.73482(19) 0.5450(4) 0.82924(10)
N11_5 N 0.82171(19) 0.5413(4) 0.82462(11)
N12_5 N 0.78507(18) 0.5793(4) 0.86997(10)
Zn4_3 Zn 0.75254(3) 0.35077(6) 0.690150(16)
Zn1_6 Zn 0.95069(3) 0.36111(6) 0.431415(15)
I2_6 I 0.954684(19) 0.17878(3) 0.442396(11)
I3_6 I 0.66129(2) 0.33833(5) 0.677930(11)
I4_6 I 0.80394(2) 0.19588(4) 0.697450(11)
C1_6 C 0.8078(3) 0.3829(5) 0.63592(14)
H1_6 H 0.8080 0.3135 0.6357
C2_6 C 0.8283(2) 0.4323(5) 0.61301(14)
H2_6 H 0.8423 0.3973 0.5972
C3_7 C 0.7877(3) 0.5259(6) 0.65831(15)
H3_7 H 0.7731 0.5592 0.6742
C4_7 C 0.8078(3) 0.5803(5) 0.63633(14)
H4_7 H 0.8074 0.6497 0.6371
C5_7 C 0.8286(2) 0.5322(5) 0.61307(13)
C6_7 C 0.8513(2) 0.5874(5) 0.58866(13)
C7_7 C 0.9288(3) 0.9540(5) 0.60695(16)
H5_7 H 0.9357 0.9765 0.6261
C8_7 C 0.9110(3) 0.8612(5) 0.60358(16)
H6_7 H 0.9051 0.8209 0.6200
C9_7 C 0.9267(3) 0.9824(5) 0.55857(15)
C10_7 C 0.9096(3) 0.8901(5) 0.55310(14)
H8_7 H 0.9034 0.8699 0.5337
C11_7 C 0.9015(2) 0.8270(5) 0.57576(14)
C12_7 C 0.8853(2) 0.7249(5) 0.57128(14)
C13_6 C 0.9460(2) 0.5258(5) 0.47401(13)
H9_6 H 0.9671 0.5562 0.4602
C14_6 C 0.9307(2) 0.5789(5) 0.49723(13)
H10_6 H 0.9411 0.6447 0.4996
C15_6 C 0.9037(3) 0.3895(5) 0.48908(14)
H11_6 H 0.8946 0.3230 0.4865
C16_6 C 0.8862(3) 0.4401(5) 0.51328(13)
H12_6 H 0.8651 0.4085 0.5268
C17_7 C 0.8996(2) 0.5357(5) 0.51759(13)
C18_7 C 0.8832(2) 0.5901(5) 0.54370(13)
C19_6 C 0.8429(2) 0.3743(5) 0.41904(14)
H13_6 H 0.8404 0.3548 0.4388
C20_6 C 0.8001(2) 0.3892(5) 0.40367(13)
H14_6 H 0.7689 0.3807 0.4127
C21_6 C 0.8905(2) 0.4123(5) 0.37949(13)
H15_6 H 0.9222 0.4204 0.3710
C22_6 C 0.8496(2) 0.4280(5) 0.36259(14)
H16_6 H 0.8530 0.4463 0.3428
C23_6 C 0.8034(2) 0.4167(4) 0.37469(13)
C24_6 C 0.7585(2) 0.4316(4) 0.35722(12)
C25_6 C 0.7787(3) 0.5391(5) 0.24261(13)
H17_6 H 0.8103 0.5420 0.2338
C26_6 C 0.7748(3) 0.5040(5) 0.27058(13)
H18_6 H 0.8035 0.4837 0.2808
C27_6 C 0.6957(3) 0.5610(6) 0.23960(14)
H19_6 H 0.6676 0.5802 0.2287
C28_6 C 0.6884(3) 0.5259(5) 0.26744(15)
H20_6 H 0.6562 0.5205 0.2753
C29_6 C 0.7291(2) 0.4986(4) 0.28360(13)
C30_6 C 0.7237(2) 0.4686(4) 0.31431(12)
C31_6 C 0.5401(2) 0.4013(5) 0.36105(15)
H21_6 H 0.5118 0.3984 0.3489
C32_6 C 0.5854(2) 0.4194(5) 0.34845(15)
H22_6 H 0.5879 0.4311 0.3281
C33_6 C 0.5745(2) 0.3920(5) 0.40628(14)
H23_6 H 0.5708 0.3838 0.4267
C34_6 C 0.6209(2) 0.4079(5) 0.39538(13)
H24_6 H 0.6486 0.4102 0.4080
C35_6 C 0.6269(2) 0.4204(4) 0.36570(13)
C36_6 C 0.6762(2) 0.4337(4) 0.35291(13)
N1_6 N 0.7875(2) 0.4284(4) 0.65852(11)
N3_6 N 0.93274(19) 0.4323(4) 0.46951(11)
N4_7 N 0.86330(18) 0.6807(4) 0.59359(11)
N5_7 N 0.89548(19) 0.6840(4) 0.54564(11)
N6_7 N 0.86001(19) 0.5382(4) 0.56403(11)
N7_6 N 0.88765(19) 0.3860(4) 0.40758(11)
N9_4 N 0.53459(19) 0.3876(4) 0.38963(11)
N10_6 N 0.76518(19) 0.4550(4) 0.32924(10)
N11_6 N 0.67829(19) 0.4587(4) 0.32462(11)
N12_6 N 0.71493(18) 0.4207(4) 0.36997(10)
Zn5_4 Zn 0.46719(3) 0.34989(6) 0.407290(17)
I5_6 I 0.42038(2) 0.27112(4) 0.365890(13)
I6_6 I 0.479760(19) 0.26725(4) 0.456240(11)
C3_8 C 0.2877(3) 0.9741(6) 0.34169(15)
H3_8 H 0.2731 0.9408 0.3258
C4_8 C 0.3078(3) 0.9197(5) 0.36367(14)
H4_8 H 0.3074 0.8503 0.3629
C5_8 C 0.3286(2) 0.9678(5) 0.38693(13)
C6_8 C 0.3513(2) 0.9126(5) 0.41134(13)
C7_8 C 0.4288(3) 0.5460(5) 0.39305(16)
H5_8 H 0.4357 0.5235 0.3739
C8_8 C 0.4110(3) 0.6388(5) 0.39642(16)
H6_8 H 0.4051 0.6791 0.3800
C9_8 C 0.4267(3) 0.5176(5) 0.44143(15)
H7_6 H 0.4312 0.4745 0.4574
C10_8 C 0.4096(3) 0.6099(5) 0.44690(14)
H8_8 H 0.4034 0.6301 0.4663
C11_8 C 0.4015(2) 0.6730(5) 0.42424(14)
C12_8 C 0.3853(2) 0.7751(5) 0.42872(14)
C13_7 C 0.4460(2) 0.9742(5) 0.52599(13)
H9_7 H 0.4671 0.9438 0.5398
C14_7 C 0.4307(2) 0.9211(5) 0.50277(13)
H10_7 H 0.4411 0.8553 0.5004
C17_8 C 0.3996(2) 0.9643(5) 0.48241(13)
C18_8 C 0.3832(2) 0.9099(5) 0.45630(13)
C25_7 C 0.2787(3) 0.9609(5) 0.75739(13)
H17_7 H 0.3103 0.9580 0.7662
C26_7 C 0.2748(3) 0.9960(5) 0.72942(13)
C27_7 C 0.1957(3) 0.9390(6) 0.76040(14)
H19_7 H 0.1676 0.9198 0.7713
C28_7 C 0.1884(3) 0.9741(5) 0.73256(15)
H20_7 H 0.1562 0.9795 0.7247
N2_6 N 0.4370(2) 0.4858(4) 0.41521(12)
N4_8 N 0.36330(18) 0.8193(4) 0.40641(11)
N5_8 N 0.39548(19) 0.8160(4) 0.45436(11)
N6_8 N 0.36001(19) 0.9618(4) 0.43597(11)
N8_4 N 0.2395(2) 0.9306(4) 0.77262(11)
Zn4_4 Zn 0.24746(3) 0.85077(6) 0.809850(16)
I3_7 I 0.33871(2) 0.83833(5) 0.822070(11)
I4_7 I 0.19606(2) 0.69588(4) 0.802550(11)
C1_7 C 0.1922(3) 0.8829(5) 0.86408(14)
H1_7 H 0.1920 0.8135 0.8643
C2_7 C 0.1717(2) 0.9323(5) 0.88699(14)
H2_7 H 0.1577 0.8973 0.9028
C16_7 C 0.1138(3) 0.9401(5) 0.98672(13)
H12_7 H 0.1349 0.9085 0.9732
N1_7 N 0.2125(2) 0.9284(4) 0.84148(11)
Zn3_3 Zn 0.53281(3) 0.84989(6) 0.092710(17)
I5_7 I 0.57962(2) 0.77112(4) 0.134110(13)
I6_7 I 0.520240(19) 0.76725(4) 0.043760(11)
H7_7 H 0.5688 0.9745 0.0426
N2_7 N 0.5630(2) 0.9858(4) 0.08479(12)
N14_3 N 0.46541(19) 0.8876(4) 0.11037(11)
Zn1_7 Zn 0.04931(3) 0.86111(6) 0.068585(15)
I2_7 I 0.045316(19) 0.67878(3) 0.057604(11)
C15_7 C 0.0963(3) 0.8895(5) 0.01092(14)
H11_7 H 0.1054 0.8230 0.0135
C19_7 C 0.1571(2) 0.8743(5) 0.08096(14)
H13_7 H 0.1596 0.8548 0.0612
C20_7 C 0.1999(2) 0.8892(5) 0.09633(13)
H14_7 H 0.2311 0.8807 0.0873
C21_7 C 0.1095(2) 0.9123(5) 0.12051(13)
H15_7 H 0.0778 0.9204 0.1290
C22_7 C 0.1504(2) 0.9280(5) 0.13741(14)
H16_7 H 0.1470 0.9463 0.1572
C23_7 C 0.1966(2) 0.9167(4) 0.12531(13)
C24_7 C 0.2415(2) 0.9316(4) 0.14278(12)
H18_7 H 0.1965 0.9837 0.2192
C29_7 C 0.2709(2) 0.9986(4) 0.21640(13)
C30_7 C 0.2763(2) 0.9686(4) 0.18569(12)
C31_7 C 0.4599(2) 0.9013(5) 0.13895(15)
H21_7 H 0.4882 0.8984 0.1511
C32_7 C 0.4146(2) 0.9194(5) 0.15155(15)
H22_7 H 0.4121 0.9311 0.1719
C33_7 C 0.4255(2) 0.8920(5) 0.09372(14)
H23_7 H 0.4292 0.8838 0.0733
C34_7 C 0.3791(2) 0.9079(5) 0.10462(13)
H24_7 H 0.3514 0.9102 0.0920
C35_7 C 0.3731(2) 0.9204(4) 0.13430(13)
C36_7 C 0.3238(2) 0.9337(4) 0.14709(13)
N3_7 N 0.06726(19) 0.9323(4) 0.03049(11)
N7_7 N 0.11235(19) 0.8860(4) 0.09242(11)
N10_7 N 0.23482(19) 0.9550(4) 0.17076(10)
N11_7 N 0.32171(19) 0.9587(4) 0.17538(11)
N12_7 N 0.28507(18) 0.9207(4) 0.13003(10)
N14_4 N 0.03459(19) 0.1124(4) 0.61037(11)
Zn1_8 Zn 0.45069(3) 0.13889(6) 0.568585(15)
Zn2_4 Zn 0.25254(3) 0.14923(6) 0.309850(16)
I1_6 I 0.517538(16) 0.04318(4) 0.594575(10)
I2_8 I 0.454684(19) 0.32122(3) 0.557604(11)
I3_8 I 0.16129(2) 0.16167(5) 0.322070(11)
I4_8 I 0.30394(2) 0.30412(4) 0.302550(11)
C1_8 C 0.3078(3) 0.1171(5) 0.36408(14)
H1_8 H 0.3080 0.1865 0.3643
C2_8 C 0.3283(2) 0.0677(5) 0.38699(14)
H2_8 H 0.3423 0.1027 0.4028
C15_8 C 0.4037(3) 0.1105(5) 0.51092(14)
H11_8 H 0.3946 0.1770 0.5135
C16_8 C 0.3862(3) 0.0599(5) 0.48672(13)
H12_8 H 0.3651 0.0915 0.4732
C19_8 C 0.3429(2) 0.1257(5) 0.58096(14)
H13_8 H 0.3404 0.1452 0.5612
C20_8 C 0.3001(2) 0.1108(5) 0.59633(13)
H14_8 H 0.2689 0.1193 0.5873
C21_8 C 0.3905(2) 0.0877(5) 0.62051(13)
H15_8 H 0.4222 0.0796 0.6290
C22_8 C 0.3496(2) 0.0720(5) 0.63741(14)
H16_8 H 0.3530 0.0537 0.6572
C23_8 C 0.3034(2) 0.0833(4) 0.62531(13)
C24_8 C 0.2585(2) 0.0684(4) 0.64278(12)
H18_8 H 0.3035 0.0163 0.7192
C29_8 C 0.2291(2) 0.0014(4) 0.71640(13)
C30_8 C 0.2237(2) 0.0314(4) 0.68569(12)
C31_8 C 0.0401(2) 0.0987(5) 0.63895(15)
H21_8 H 0.0118 0.1016 0.6511
C32_8 C 0.0854(2) 0.0806(5) 0.65155(15)
H22_8 H 0.0879 0.0689 0.6719
C33_8 C 0.0745(2) 0.1080(5) 0.59372(14)
H23_8 H 0.0708 0.1162 0.5733
C34_8 C 0.1209(2) 0.0921(5) 0.60462(13)
H24_8 H 0.1486 0.0898 0.5920
C35_8 C 0.1269(2) 0.0796(4) 0.63430(13)
C36_8 C 0.1762(2) 0.0663(4) 0.64709(13)
N1_8 N 0.2875(2) 0.0716(4) 0.34148(11)
N3_8 N 0.43274(19) 0.0677(4) 0.53049(11)
N7_8 N 0.38765(19) 0.1140(4) 0.59242(11)
N10_8 N 0.26518(19) 0.0450(4) 0.67076(10)
N11_8 N 0.17829(19) 0.0413(4) 0.67538(11)
N12_8 N 0.21493(18) 0.0793(4) 0.63003(10)
N13_4 N 0.2605(2) 0.0694(4) 0.27262(11)
C13_8 C 0.0540(2) 0.0258(5) 0.02599(13)
H9_8 H 0.0329 0.0562 0.0398
C14_8 C 0.0693(2) 0.0789(5) 0.00277(13)
H10_8 H 0.0589 0.1447 0.0004
C25_8 C 0.2213(3) 0.0391(5) 0.25739(13)
H17_8 H 0.1897 0.0420 0.2662
C26_8 C 0.2252(3) 0.0040(5) 0.22942(13)
C27_8 C 0.3043(3) 0.0610(6) 0.26040(14)
H19_8 H 0.3324 0.0802 0.2713
C28_8 C 0.3116(3) 0.0259(5) 0.23256(15)
H20_8 H 0.3438 0.0205 0.2247
I1_7 I 0.017538(16) 0.45682(4) 0.405425(10)
Zn3_4 Zn 0.96719(3) 0.15011(6) 0.592710(17)
I5_8 I 0.92038(2) 0.22888(4) 0.634110(13)
I6_8 I 0.979760(19) 0.23275(4) 0.543760(11)
H7_8 H 0.9312 0.0255 0.5426
N2_8 N 0.9370(2) 0.0142(4) 0.58479(12)
I1_8 I 0.982462(16) 0.95682(4) 0.094575(10)
loop_
_geom_bond_atom_site_label_1
_geom_bond_atom_site_label_2
_geom_bond_site_symmetry_1
_geom_bond_site_symmetry_2
Zn3 I5 1_555 1_555
I6 Zn3 1_555 1_555
N2 Zn3 1_555 1_555
N14 Zn3 1_555 1_555
I2 Zn1 1_555 1_555
C15 H11 1_555 1_555
C19 H13 1_555 1_555
C20 C19 1_555 1_555
H14 C20 1_555 1_555
C21 H15 1_555 1_555
C22 C21 1_555 1_555
H16 C22 1_555 1_555
C23 C20 1_555 1_555
C24 C23 1_555 1_555
C30 C29 1_555 1_555
C31 H21 1_555 1_555
C32 C31 1_555 1_555
H22 C32 1_555 1_555
C33 H23 1_555 1_555
C34 C33 1_555 1_555
H24 C34 1_555 1_555
C35 C32 1_555 1_555
C36 C35 1_555 1_555
N3 Zn1 1_555 1_555
N7 Zn1 1_555 1_555
N14 C31 1_555 1_555
N10 C24 1_555 1_555
N11 C30 1_555 1_555
N12 C24 1_555 1_555
C15 N3 1_555 1_555
C19 N7 1_555 1_555
C21 N7 1_555 1_555
C22 C23 1_555 1_555
C30 N10 1_555 1_555
C33 N14 1_555 1_555
C34 C35 1_555 1_555
C36 N11 1_555 1_555
C36 N12 1_555 1_555
Zn1_2 I1 1_555 1_555
I2_2 Zn1_2 1_555 1_555
C13 H9 1_555 1_555
C14 C13 1_555 1_555
H10 C14 1_555 1_555
C15_2 H11_2 1_555 1_555
C19_2 H13_2 1_555 1_555
C20_2 C19_2 1_555 1_555
H14_2 C20_2 1_555 1_555
C21_2 H15_2 1_555 1_555
C22_2 C21_2 1_555 1_555
H16_2 C22_2 1_555 1_555
C23_2 C20_2 1_555 1_555
C24_2 C23_2 1_555 1_555
C25 H17 1_555 1_555
C26 C25 1_555 1_555
H18_2 C26 1_555 1_555
C27 H19 1_555 1_555
C28 C27 1_555 1_555
H20 C28 1_555 1_555
C29_2 C26 1_555 1_555
C30_2 C29_2 1_555 1_555
C31_2 H21_2 1_555 1_555
C32_2 C31_2 1_555 1_555
H22_2 C32_2 1_555 1_555
C33_2 H23_2 1_555 1_555
C34_2 C33_2 1_555 1_555
H24_2 C34_2 1_555 1_555
C35_2 C32_2 1_555 1_555
C36_2 C35_2 1_555 1_555
N3_2 Zn1_2 1_555 1_555
N7_2 Zn1_2 1_555 1_555
N8 C25 1_555 1_555
N9 C31_2 1_555 1_555
N10_2 C24_2 1_555 1_555
N11_2 C30_2 1_555 1_555
N12_2 C24_2 1_555 1_555
Zn4 N8 1_555 1_555
C13 N3_2 1_555 1_555
C15_2 N3_2 1_555 1_555
C19_2 N7_2 1_555 1_555
C21_2 N7_2 1_555 1_555
C22_2 C23_2 1_555 1_555
C27 N8 1_555 1_555
C28 C29_2 1_555 1_555
C30_2 N10_2 1_555 1_555
C33_2 N9 1_555 1_555
C34_2 C35_2 1_555 1_555
C36_2 N11_2 1_555 1_555
C36_2 N12_2 1_555 1_555
Zn2 I3 1_555 1_555
I4 Zn2 1_555 1_555
C1 H1 1_555 1_555
C2 C1 1_555 1_555
H2 C2 1_555 1_555
C3 H3 1_555 1_555
C4 C3 1_555 1_555
H4 C4 1_555 1_555
C5 C2 1_555 1_555
C6 C5 1_555 1_555
C7 H5 1_555 1_555
C8 C7 1_555 1_555
H6 C8 1_555 1_555
C10 C9 1_555 1_555
H8 C10 1_555 1_555
C11 C8 1_555 1_555
C12 C11 1_555 1_555
H12 C16 1_555 1_555
C18 C17 1_555 1_555
N1 Zn2 1_555 1_555
N4 C6 1_555 1_555
N5 C12 1_555 1_555
N6 C6 1_555 1_555
N13 Zn2 1_555 1_555
C1 N1 1_555 1_555
C3 N1 1_555 1_555
C4 C5 1_555 1_555
C10 C11 1_555 1_555
C12 N4 1_555 1_555
C16 C17 1_555 1_555
C18 N5 1_555 1_555
C18 N6 1_555 1_555
Zn4 I3_2 1_555 1_555
I2_3 Zn1_3 1_555 1_555
I4_2 Zn4 1_555 1_555
C1_2 H1_2 1_555 1_555
C2_2 C1_2 1_555 1_555
H2_2 C2_2 1_555 1_555
C3_2 H3_2 1_555 1_555
C4_2 C3_2 1_555 1_555
H4_2 C4_2 1_555 1_555
C5_2 C2_2 1_555 1_555
C6_2 C5_2 1_555 1_555
C7_2 H5_2 1_555 1_555
C8_2 C7_2 1_555 1_555
H6_2 C8_2 1_555 1_555
C10_2 C9_2 1_555 1_555
H8_2 C10_2 1_555 1_555
C11_2 C8_2 1_555 1_555
C12_2 C11_2 1_555 1_555
C13_2 H9_2 1_555 1_555
C14_2 C13_2 1_555 1_555
H10_2 C14_2 1_555 1_555
C15_3 H11_3 1_555 1_555
C16_2 C15_3 1_555 1_555
H12_2 C16_2 1_555 1_555
C17_2 C14_2 1_555 1_555
C18_2 C17_2 1_555 1_555
C19_3 H13_3 1_555 1_555
C20_3 C19_3 1_555 1_555
H14_3 C20_3 1_555 1_555
C21_3 H15_3 1_555 1_555
C22_3 C21_3 1_555 1_555
H16_3 C22_3 1_555 1_555
C23_3 C20_3 1_555 1_555
C24_3 C23_3 1_555 1_555
C25_2 H17_2 1_555 1_555
C26_2 C25_2 1_555 1_555
H18_3 C26_2 1_555 1_555
C27_2 H19_2 1_555 1_555
C28_2 C27_2 1_555 1_555
H20_2 C28_2 1_555 1_555
C29_3 C26_2 1_555 1_555
C30_3 C29_3 1_555 1_555
C31_3 H21_3 1_555 1_555
C32_3 C31_3 1_555 1_555
H22_3 C32_3 1_555 1_555
C33_3 H23_3 1_555 1_555
C34_3 C33_3 1_555 1_555
H24_3 C34_3 1_555 1_555
C35_3 C32_3 1_555 1_555
C36_3 C35_3 1_555 1_555
N1_2 Zn4 1_555 1_555
N3_3 Zn1_3 1_555 1_555
N4_2 C6_2 1_555 1_555
N5_2 C12_2 1_555 1_555
N6_2 C6_2 1_555 1_555
N7_3 Zn1_3 1_555 1_555
N13 C25_2 1_555 1_555
N9_2 C31_3 1_555 1_555
N10_3 C24_3 1_555 1_555
N11_3 C30_3 1_555 1_555
N12_3 C24_3 1_555 1_555
Zn5 N9_2 1_555 1_555
C1_2 N1_2 1_555 1_555
C3_2 N1_2 1_555 1_555
C4_2 C5_2 1_555 1_555
C10_2 C11_2 1_555 1_555
C12_2 N4_2 1_555 1_555
C13_2 N3_3 1_555 1_555
C15_3 N3_3 1_555 1_555
C16_2 C17_2 1_555 1_555
C18_2 N5_2 1_555 1_555
C18_2 N6_2 1_555 1_555
C19_3 N7_3 1_555 1_555
C21_3 N7_3 1_555 1_555
C22_3 C23_3 1_555 1_555
C27_2 N13 1_555 1_555
C28_2 C29_3 1_555 1_555
C30_3 N10_3 1_555 1_555
C33_3 N9_2 1_555 1_555
C34_3 C35_3 1_555 1_555
C36_3 N11_3 1_555 1_555
C36_3 N12_3 1_555 1_555
Zn5 I5_2 1_555 1_555
I6_2 Zn5 1_555 1_555
C3_3 H3_3 1_555 1_555
C4_3 C3_3 1_555 1_555
H4_3 C4_3 1_555 1_555
C6_3 C5_3 1_555 1_555
C7_3 H5_3 1_555 1_555
C8_3 C7_3 1_555 1_555
H6_3 C8_3 1_555 1_555
C9_3 H7_2 1_555 1_555
C10_3 C9_3 1_555 1_555
H8_3 C10_3 1_555 1_555
C11_3 C8_3 1_555 1_555
C12_3 C11_3 1_555 1_555
C13_3 H9_3 1_555 1_555
C14_3 C13_3 1_555 1_555
H10_3 C14_3 1_555 1_555
C17_3 C14_3 1_555 1_555
C18_3 C17_3 1_555 1_555
C25_3 H17_3 1_555 1_555
C26_3 C25_3 1_555 1_555
C27_3 H19_3 1_555 1_555
C28_3 C27_3 1_555 1_555
H20_3 C28_3 1_555 1_555
N2_2 Zn5 1_555 1_555
N4_3 C6_3 1_555 1_555
N5_3 C12_3 1_555 1_555
N6_3 C6_3 1_555 1_555
N8_2 C25_3 1_555 1_555
Zn4_2 N8_2 1_555 1_555
C4_3 C5_3 1_555 1_555
C7_3 N2_2 1_555 1_555
C9_3 N2_2 1_555 1_555
C10_3 C11_3 1_555 1_555
C12_3 N4_3 1_555 1_555
C18_3 N5_3 1_555 1_555
C18_3 N6_3 1_555 1_555
C27_3 N8_2 1_555 1_555
Zn4_2 I3_3 1_555 1_555
I4_3 Zn4_2 1_555 1_555
C1_3 H1_3 1_555 1_555
C2_3 C1_3 1_555 1_555
H2_3 C2_3 1_555 1_555
H12_3 C16_3 1_555 1_555
N1_3 Zn4_2 1_555 1_555
C1_3 N1_3 1_555 1_555
Zn5_2 I5_3 1_555 1_555
I6_3 Zn5_2 1_555 1_555
C3_4 H3_4 1_555 1_555
C4_4 C3_4 1_555 1_555
H4_4 C4_4 1_555 1_555
C6_4 C5_4 1_555 1_555
C7_4 H5_4 1_555 1_555
C8_4 C7_4 1_555 1_555
H6_4 C8_4 1_555 1_555
C9_4 H7_3 1_555 1_555
C10_4 C9_4 1_555 1_555
H8_4 C10_4 1_555 1_555
C11_4 C8_4 1_555 1_555
C12_4 C11_4 1_555 1_555
C18_4 C17_4 1_555 1_555
N2_3 Zn5_2 1_555 1_555
N4_4 C6_4 1_555 1_555
N5_4 C12_4 1_555 1_555
N6_4 C6_4 1_555 1_555
C4_4 C5_4 1_555 1_555
C7_4 N2_3 1_555 1_555
C9_4 N2_3 1_555 1_555
C10_4 C11_4 1_555 1_555
C12_4 N4_4 1_555 1_555
C18_4 N5_4 1_555 1_555
C18_4 N6_4 1_555 1_555
Zn3_2 I5_4 1_555 1_555
I6_4 Zn3_2 1_555 1_555
N2_4 Zn3_2 1_555 1_555
Zn1_4 I1_3 1_555 1_555
Zn2_2 I3_4 1_555 1_555
I2_4 Zn1_4 1_555 1_555
I4_4 Zn2_2 1_555 1_555
C1_4 H1_4 1_555 1_555
C2_4 C1_4 1_555 1_555
H2_4 C2_4 1_555 1_555
C15_4 H11_4 1_555 1_555
C16_4 C15_4 1_555 1_555
H12_4 C16_4 1_555 1_555
C19_4 H13_4 1_555 1_555
C20_4 C19_4 1_555 1_555
H14_4 C20_4 1_555 1_555
C21_4 H15_4 1_555 1_555
C22_4 C21_4 1_555 1_555
H16_4 C22_4 1_555 1_555
C23_4 C20_4 1_555 1_555
C24_4 C23_4 1_555 1_555
C30_4 C29_4 1_555 1_555
C31_4 H21_4 1_555 1_555
C32_4 C31_4 1_555 1_555
H22_4 C32_4 1_555 1_555
C33_4 H23_4 1_555 1_555
C34_4 C33_4 1_555 1_555
H24_4 C34_4 1_555 1_555
C35_4 C32_4 1_555 1_555
C36_4 C35_4 1_555 1_555
N1_4 Zn2_2 1_555 1_555
N3_4 Zn1_4 1_555 1_555
N7_4 Zn1_4 1_555 1_555
N14_2 C31_4 1_555 1_555
N10_4 C24_4 1_555 1_555
N11_4 C30_4 1_555 1_555
N12_4 C24_4 1_555 1_555
N13_2 Zn2_2 1_555 1_555
C1_4 N1_4 1_555 1_555
C15_4 N3_4 1_555 1_555
C19_4 N7_4 1_555 1_555
C21_4 N7_4 1_555 1_555
C22_4 C23_4 1_555 1_555
C30_4 N10_4 1_555 1_555
C33_4 N14_2 1_555 1_555
C34_4 C35_4 1_555 1_555
C36_4 N11_4 1_555 1_555
C36_4 N12_4 1_555 1_555
C13_4 H9_4 1_555 1_555
C14_4 C13_4 1_555 1_555
H10_4 C14_4 1_555 1_555
C25_4 H17_4 1_555 1_555
C26_4 C25_4 1_555 1_555
C27_4 H19_4 1_555 1_555
C28_4 C27_4 1_555 1_555
H20_4 C28_4 1_555 1_555
N13_2 C25_4 1_555 1_555
C27_4 N13_2 1_555 1_555
Zn5_3 I5_5 1_555 1_555
I6_5 Zn5_3 1_555 1_555
C3_5 H3_5 1_555 1_555
C4_5 C3_5 1_555 1_555
H4_5 C4_5 1_555 1_555
C6_5 C5_5 1_555 1_555
C7_5 H5_5 1_555 1_555
C8_5 C7_5 1_555 1_555
H6_5 C8_5 1_555 1_555
C9_5 H7_5 1_555 1_555
C10_5 C9_5 1_555 1_555
H8_5 C10_5 1_555 1_555
C11_5 C8_5 1_555 1_555
C12_5 C11_5 1_555 1_555
C18_5 C17_5 1_555 1_555
N2_5 Zn5_3 1_555 1_555
N4_5 C6_5 1_555 1_555
N5_5 C12_5 1_555 1_555
N6_5 C6_5 1_555 1_555
C4_5 C5_5 1_555 1_555
C7_5 N2_5 1_555 1_555
C9_5 N2_5 1_555 1_555
C10_5 C11_5 1_555 1_555
C12_5 N4_5 1_555 1_555
C18_5 N5_5 1_555 1_555
C18_5 N6_5 1_555 1_555
Zn2_3 I3_5 1_555 1_555
I4_5 Zn2_3 1_555 1_555
C1_5 H1_5 1_555 1_555
C2_5 C1_5 1_555 1_555
H2_5 C2_5 1_555 1_555
C3_6 H3_6 1_555 1_555
C4_6 C3_6 1_555 1_555
H4_6 C4_6 1_555 1_555
C5_6 C2_5 1_555 1_555
C6_6 C5_6 1_555 1_555
C7_6 H5_6 1_555 1_555
C8_6 C7_6 1_555 1_555
H6_6 C8_6 1_555 1_555
C10_6 C9_6 1_555 1_555
H8_6 C10_6 1_555 1_555
C11_6 C8_6 1_555 1_555
C12_6 C11_6 1_555 1_555
H12_5 C16_5 1_555 1_555
C18_6 C17_6 1_555 1_555
N1_5 Zn2_3 1_555 1_555
N4_6 C6_6 1_555 1_555
N5_6 C12_6 1_555 1_555
N6_6 C6_6 1_555 1_555
N13_3 Zn2_3 1_555 1_555
C1_5 N1_5 1_555 1_555
C3_6 N1_5 1_555 1_555
C4_6 C5_6 1_555 1_555
C10_6 C11_6 1_555 1_555
C12_6 N4_6 1_555 1_555
C16_5 C17_6 1_555 1_555
C18_6 N5_6 1_555 1_555
C18_6 N6_6 1_555 1_555
Zn1_5 I1_5 1_555 1_555
I2_5 Zn1_5 1_555 1_555
C13_5 H9_5 1_555 1_555
C14_5 C13_5 1_555 1_555
H10_5 C14_5 1_555 1_555
C15_5 H11_5 1_555 1_555
C19_5 H13_5 1_555 1_555
C20_5 C19_5 1_555 1_555
H14_5 C20_5 1_555 1_555
C21_5 H15_5 1_555 1_555
C22_5 C21_5 1_555 1_555
H16_5 C22_5 1_555 1_555
C23_5 C20_5 1_555 1_555
C24_5 C23_5 1_555 1_555
C25_5 H17_5 1_555 1_555
C26_5 C25_5 1_555 1_555
H18_5 C26_5 1_555 1_555
C27_5 H19_5 1_555 1_555
C28_5 C27_5 1_555 1_555
H20_5 C28_5 1_555 1_555
C29_5 C26_5 1_555 1_555
C30_5 C29_5 1_555 1_555
C31_5 H21_5 1_555 1_555
C32_5 C31_5 1_555 1_555
H22_5 C32_5 1_555 1_555
C33_5 H23_5 1_555 1_555
C34_5 C33_5 1_555 1_555
H24_5 C34_5 1_555 1_555
C35_5 C32_5 1_555 1_555
C36_5 C35_5 1_555 1_555
N3_5 Zn1_5 1_555 1_555
N7_5 Zn1_5 1_555 1_555
N8_3 C25_5 1_555 1_555
N9_3 C31_5 1_555 1_555
N10_5 C24_5 1_555 1_555
N11_5 C30_5 1_555 1_555
N12_5 C24_5 1_555 1_555
Zn4_3 N8_3 1_555 1_555
C13_5 N3_5 1_555 1_555
C15_5 N3_5 1_555 1_555
C19_5 N7_5 1_555 1_555
C21_5 N7_5 1_555 1_555
C22_5 C23_5 1_555 1_555
C27_5 N8_3 1_555 1_555
C28_5 C29_5 1_555 1_555
C30_5 N10_5 1_555 1_555
C33_5 N9_3 1_555 1_555
C34_5 C35_5 1_555 1_555
C36_5 N11_5 1_555 1_555
C36_5 N12_5 1_555 1_555
Zn4_3 I3_6 1_555 1_555
I2_6 Zn1_6 1_555 1_555
I4_6 Zn4_3 1_555 1_555
C1_6 H1_6 1_555 1_555
C2_6 C1_6 1_555 1_555
H2_6 C2_6 1_555 1_555
C3_7 H3_7 1_555 1_555
C4_7 C3_7 1_555 1_555
H4_7 C4_7 1_555 1_555
C5_7 C2_6 1_555 1_555
C6_7 C5_7 1_555 1_555
C7_7 H5_7 1_555 1_555
C8_7 C7_7 1_555 1_555
H6_7 C8_7 1_555 1_555
C10_7 C9_7 1_555 1_555
H8_7 C10_7 1_555 1_555
C11_7 C8_7 1_555 1_555
C12_7 C11_7 1_555 1_555
C13_6 H9_6 1_555 1_555
C14_6 C13_6 1_555 1_555
H10_6 C14_6 1_555 1_555
C15_6 H11_6 1_555 1_555
C16_6 C15_6 1_555 1_555
H12_6 C16_6 1_555 1_555
C17_7 C14_6 1_555 1_555
C18_7 C17_7 1_555 1_555
C19_6 H13_6 1_555 1_555
C20_6 C19_6 1_555 1_555
H14_6 C20_6 1_555 1_555
C21_6 H15_6 1_555 1_555
C22_6 C21_6 1_555 1_555
H16_6 C22_6 1_555 1_555
C23_6 C20_6 1_555 1_555
C24_6 C23_6 1_555 1_555
C25_6 H17_6 1_555 1_555
C26_6 C25_6 1_555 1_555
H18_6 C26_6 1_555 1_555
C27_6 H19_6 1_555 1_555
C28_6 C27_6 1_555 1_555
H20_6 C28_6 1_555 1_555
C29_6 C26_6 1_555 1_555
C30_6 C29_6 1_555 1_555
C31_6 H21_6 1_555 1_555
C32_6 C31_6 1_555 1_555
H22_6 C32_6 1_555 1_555
C33_6 H23_6 1_555 1_555
C34_6 C33_6 1_555 1_555
H24_6 C34_6 1_555 1_555
C35_6 C32_6 1_555 1_555
C36_6 C35_6 1_555 1_555
N1_6 Zn4_3 1_555 1_555
N3_6 Zn1_6 1_555 1_555
N4_7 C6_7 1_555 1_555
N5_7 C12_7 1_555 1_555
N6_7 C6_7 1_555 1_555
N7_6 Zn1_6 1_555 1_555
N13_3 C25_6 1_555 1_555
N9_4 C31_6 1_555 1_555
N10_6 C24_6 1_555 1_555
N11_6 C30_6 1_555 1_555
N12_6 C24_6 1_555 1_555
Zn5_4 N9_4 1_555 1_555
C1_6 N1_6 1_555 1_555
C3_7 N1_6 1_555 1_555
C4_7 C5_7 1_555 1_555
C10_7 C11_7 1_555 1_555
C12_7 N4_7 1_555 1_555
C13_6 N3_6 1_555 1_555
C15_6 N3_6 1_555 1_555
C16_6 C17_7 1_555 1_555
C18_7 N5_7 1_555 1_555
C18_7 N6_7 1_555 1_555
C19_6 N7_6 1_555 1_555
C21_6 N7_6 1_555 1_555
C22_6 C23_6 1_555 1_555
C27_6 N13_3 1_555 1_555
C28_6 C29_6 1_555 1_555
C30_6 N10_6 1_555 1_555
C33_6 N9_4 1_555 1_555
C34_6 C35_6 1_555 1_555
C36_6 N11_6 1_555 1_555
C36_6 N12_6 1_555 1_555
Zn5_4 I5_6 1_555 1_555
I6_6 Zn5_4 1_555 1_555
C3_8 H3_8 1_555 1_555
C4_8 C3_8 1_555 1_555
H4_8 C4_8 1_555 1_555
C6_8 C5_8 1_555 1_555
C7_8 H5_8 1_555 1_555
C8_8 C7_8 1_555 1_555
H6_8 C8_8 1_555 1_555
C9_8 H7_6 1_555 1_555
C10_8 C9_8 1_555 1_555
H8_8 C10_8 1_555 1_555
C11_8 C8_8 1_555 1_555
C12_8 C11_8 1_555 1_555
C13_7 H9_7 1_555 1_555
C14_7 C13_7 1_555 1_555
H10_7 C14_7 1_555 1_555
C17_8 C14_7 1_555 1_555
C18_8 C17_8 1_555 1_555
C25_7 H17_7 1_555 1_555
C26_7 C25_7 1_555 1_555
C27_7 H19_7 1_555 1_555
C28_7 C27_7 1_555 1_555
H20_7 C28_7 1_555 1_555
N2_6 Zn5_4 1_555 1_555
N4_8 C6_8 1_555 1_555
N5_8 C12_8 1_555 1_555
N6_8 C6_8 1_555 1_555
N8_4 C25_7 1_555 1_555
Zn4_4 N8_4 1_555 1_555
C4_8 C5_8 1_555 1_555
C7_8 N2_6 1_555 1_555
C9_8 N2_6 1_555 1_555
C10_8 C11_8 1_555 1_555
C12_8 N4_8 1_555 1_555
C18_8 N5_8 1_555 1_555
C18_8 N6_8 1_555 1_555
C27_7 N8_4 1_555 1_555
Zn4_4 I3_7 1_555 1_555
I4_7 Zn4_4 1_555 1_555
C1_7 H1_7 1_555 1_555
C2_7 C1_7 1_555 1_555
H2_7 C2_7 1_555 1_555
H12_7 C16_7 1_555 1_555
N1_7 Zn4_4 1_555 1_555
C1_7 N1_7 1_555 1_555
Zn3_3 I5_7 1_555 1_555
I6_7 Zn3_3 1_555 1_555
N2_7 Zn3_3 1_555 1_555
N14_3 Zn3_3 1_555 1_555
I2_7 Zn1_7 1_555 1_555
C15_7 H11_7 1_555 1_555
C19_7 H13_7 1_555 1_555
C20_7 C19_7 1_555 1_555
H14_7 C20_7 1_555 1_555
C21_7 H15_7 1_555 1_555
C22_7 C21_7 1_555 1_555
H16_7 C22_7 1_555 1_555
C23_7 C20_7 1_555 1_555
C24_7 C23_7 1_555 1_555
C30_7 C29_7 1_555 1_555
C31_7 H21_7 1_555 1_555
C32_7 C31_7 1_555 1_555
H22_7 C32_7 1_555 1_555
C33_7 H23_7 1_555 1_555
C34_7 C33_7 1_555 1_555
H24_7 C34_7 1_555 1_555
C35_7 C32_7 1_555 1_555
C36_7 C35_7 1_555 1_555
N3_7 Zn1_7 1_555 1_555
N7_7 Zn1_7 1_555 1_555
N14_3 C31_7 1_555 1_555
N10_7 C24_7 1_555 1_555
N11_7 C30_7 1_555 1_555
N12_7 C24_7 1_555 1_555
C15_7 N3_7 1_555 1_555
C19_7 N7_7 1_555 1_555
C21_7 N7_7 1_555 1_555
C22_7 C23_7 1_555 1_555
C30_7 N10_7 1_555 1_555
C33_7 N14_3 1_555 1_555
C34_7 C35_7 1_555 1_555
C36_7 N11_7 1_555 1_555
C36_7 N12_7 1_555 1_555
Zn1_8 I1_6 1_555 1_555
Zn2_4 I3_8 1_555 1_555
I2_8 Zn1_8 1_555 1_555
I4_8 Zn2_4 1_555 1_555
C1_8 H1_8 1_555 1_555
C2_8 C1_8 1_555 1_555
H2_8 C2_8 1_555 1_555
C15_8 H11_8 1_555 1_555
C16_8 C15_8 1_555 1_555
H12_8 C16_8 1_555 1_555
C19_8 H13_8 1_555 1_555
C20_8 C19_8 1_555 1_555
H14_8 C20_8 1_555 1_555
C21_8 H15_8 1_555 1_555
C22_8 C21_8 1_555 1_555
H16_8 C22_8 1_555 1_555
C23_8 C20_8 1_555 1_555
C24_8 C23_8 1_555 1_555
C30_8 C29_8 1_555 1_555
C31_8 H21_8 1_555 1_555
C32_8 C31_8 1_555 1_555
H22_8 C32_8 1_555 1_555
C33_8 H23_8 1_555 1_555
C34_8 C33_8 1_555 1_555
H24_8 C34_8 1_555 1_555
C35_8 C32_8 1_555 1_555
C36_8 C35_8 1_555 1_555
N1_8 Zn2_4 1_555 1_555
N3_8 Zn1_8 1_555 1_555
N7_8 Zn1_8 1_555 1_555
N14_4 C31_8 1_555 1_555
N10_8 C24_8 1_555 1_555
N11_8 C30_8 1_555 1_555
N12_8 C24_8 1_555 1_555
N13_4 Zn2_4 1_555 1_555
C1_8 N1_8 1_555 1_555
C15_8 N3_8 1_555 1_555
C19_8 N7_8 1_555 1_555
C21_8 N7_8 1_555 1_555
C22_8 C23_8 1_555 1_555
C30_8 N10_8 1_555 1_555
C33_8 N14_4 1_555 1_555
C34_8 C35_8 1_555 1_555
C36_8 N11_8 1_555 1_555
C36_8 N12_8 1_555 1_555
C13_8 H9_8 1_555 1_555
C14_8 C13_8 1_555 1_555
H10_8 C14_8 1_555 1_555
C25_8 H17_8 1_555 1_555
C26_8 C25_8 1_555 1_555
C27_8 H19_8 1_555 1_555
C28_8 C27_8 1_555 1_555
H20_8 C28_8 1_555 1_555
N13_4 C25_8 1_555 1_555
C27_8 N13_4 1_555 1_555
Zn3_4 I5_8 1_555 1_555
I6_8 Zn3_4 1_555 1_555
N2_8 Zn3_4 1_555 1_555

#END
