
###############################################################################
#
# This file contains modified crystal structure data generated from the
# MOF subset of the Cambridge Structural Database (CSD) v543 
# hosted by the Cambridge Crystallographic Data Centre (CCDC).
#
# This work is licensed under the Creative Commons
# Attribution-NonCommercial-ShareAlike 4.0 International License.
# To view a copy of this license, visit
# http://creativecommons.org/licenses/by-nc-sa/4.0/
# or send a letter to
# Creative Commons, PO Box 1866, Mountain View, CA 94042, USA.
#
# CIF created using the CSD Python API on 29 September 2022
# The structure has been converted into the P1 space group
# The structure has a 3D framework
# The original CSD entry CIWRUW is in the orthorhombic crystal system
# The framework has been calculated to contain at least 10.0% void space
# The void calculation uses a probe of radius 1.32A, grid spacing 0.4
#
###############################################################################

data_CIWRUW
_chemical_formula_moiety         '(C288 H192 I48 N96 Zn24)n'
_symmetry_cell_setting           triclinic
_symmetry_space_group_name_H-M   'P 1'
_symmetry_Int_Tables_number      1
_space_group_name_Hall           'P 1'
loop_
_symmetry_equiv_pos_site_id
_symmetry_equiv_pos_as_xyz
1 x,y,z
_cell_length_a                   27.449(4)
_cell_length_b                   13.707(2)
_cell_length_c                   45.248(7)
_cell_angle_alpha                90
_cell_angle_beta                 90
_cell_angle_gamma                90
_cell_volume                     17024.3
loop_
_atom_site_label
_atom_site_type_symbol
_atom_site_fract_x
_atom_site_fract_y
_atom_site_fract_z
Zn1 Zn 0.74364(3) 0.65483(6) 0.185308(17)
I1 I 0.83332(2) 0.65735(6) 0.172129(14)
I2 I 0.69889(2) 0.81523(4) 0.192808(13)
C1 C 0.5826(3) 0.0461(5) 0.09747(15)
H1 H 0.5875 0.0147 0.1160
C2 C 0.6008(3) 0.1378(6) 0.09372(17)
H2 H 0.6180 0.1690 0.1093
C3 C 0.5521(3) 0.0439(5) 0.05012(15)
H3 H 0.5354 0.0108 0.0347
C4 C 0.5691(3) 0.1365(5) 0.04491(15)
H4 H 0.5638 0.1668 0.0263
C5 C 0.5939(3) 0.1853(5) 0.06683(15)
C6 C 0.6092(3) 0.2875(5) 0.06377(15)
C10 C 0.6006(3) 0.5833(5) 0.01014(15)
H8 H 0.6159 0.6164 0.0261
C11 C 0.5915(3) 0.4844(5) 0.01158(14)
C12 C 0.6062(3) 0.4285(5) 0.03826(15)
C13 C 0.6883(4) 0.6221(6) 0.13117(18)
H9 H 0.6895 0.6914 0.1308
C14 C 0.6677(4) 0.5756(6) 0.10790(18)
H10 H 0.6559 0.6118 0.0915
C15 C 0.7023(4) 0.4795(6) 0.15469(18)
H11 H 0.7151 0.4446 0.1711
C16 C 0.6800(4) 0.4281(6) 0.13253(18)
H12 H 0.6758 0.3595 0.1341
C17 C 0.6639(3) 0.4768(5) 0.10817(15)
C18 C 0.6415(3) 0.4247(5) 0.08293(15)
C19 C 0.7705(3) 0.5394(5) 0.23807(14)
H13 H 0.8016 0.5383 0.2288
C20 C 0.7662(3) 0.5027(5) 0.26622(14)
H14 H 0.7939 0.4783 0.2764
C21 C 0.6894(3) 0.5729(5) 0.23583(16)
H15 H 0.6622 0.5973 0.2251
C22 C 0.6817(3) 0.5362(5) 0.26340(16)
H16 H 0.6497 0.5341 0.2715
C23 C 0.7210(3) 0.5020(4) 0.27945(14)
C24 C 0.7167(3) 0.4712(4) 0.31084(14)
C25 C 0.5382(3) 0.4162(7) 0.36607(19)
H17 H 0.5083 0.4214 0.3556
C26 C 0.5807(3) 0.4314(7) 0.35079(17)
H18 H 0.5799 0.4464 0.3303
C27 C 0.5782(3) 0.3900(5) 0.40914(15)
H19 H 0.5775 0.3765 0.4297
C28 C 0.6225(3) 0.4039(5) 0.39570(16)
H20 H 0.6517 0.3994 0.4069
C29 C 0.6245(2) 0.4245(4) 0.36567(15)
C30 C 0.6719(2) 0.4363(4) 0.35092(14)
C31 C 0.8402(3) 0.3676(5) 0.41384(15)
H21 H 0.8390 0.3457 0.4338
C32 C 0.7975(3) 0.3842(5) 0.39950(14)
H22 H 0.7673 0.3736 0.4092
C33 C 0.8853(2) 0.4133(5) 0.37334(14)
H23 H 0.9161 0.4240 0.3644
C34 C 0.8439(2) 0.4321(5) 0.35721(14)
H24 H 0.8461 0.4549 0.3374
C35 C 0.7985(2) 0.4168(4) 0.37046(13)
C36 C 0.7534(2) 0.4342(4) 0.35316(13)
N3 N 0.7068(2) 0.5764(4) 0.15430(13)
N4 N 0.5951(2) 0.3342(4) 0.03910(12)
N5 N 0.6288(2) 0.4774(4) 0.05943(13)
N6 N 0.6332(2) 0.3283(4) 0.08596(13)
N7 N 0.7330(2) 0.5763(4) 0.22326(12)
N8 N 0.5365(2) 0.3946(4) 0.39458(13)
N9 N 0.8837(2) 0.3805(4) 0.40132(11)
N10 N 0.6723(2) 0.4607(4) 0.32203(12)
N11 N 0.7113(2) 0.4227(4) 0.36738(12)
N12 N 0.7583(2) 0.4581(4) 0.32517(11)
Zn4 Zn 0.47171(3) 0.36423(6) 0.415830(19)
Zn5 Zn 0.94610(3) 0.33709(6) 0.422970(18)
Zn3 Zn 0.55390(3) 0.66291(6) 0.922970(18)
I5 I 0.56685(3) 0.84449(4) 0.931280(14)
I6 I 0.48436(2) 0.58165(6) 0.895610(15)
C7 C 0.5552(3) 0.4957(6) 0.96392(16)
H5 H 0.5393 0.4645 0.9478
C8 C 0.5676(3) 0.4406(6) 0.98859(17)
H6 H 0.5595 0.3733 0.9895
C9 C 0.5869(3) 0.6327(5) 0.98505(16)
H7 H 0.5936 0.7006 0.9840
N2 N 0.5648(2) 0.5904(4) 0.96208(12)
N14 N 0.6163(2) 0.6195(4) 0.90132(11)
Zn2 Zn 0.52829(3) 0.86423(6) 0.084170(19)
I3 I 0.58000(2) 0.78030(5) 0.122600(17)
I4 I 0.50837(2) 0.78835(4) 0.034190(13)
N1 N 0.5582(2) 0.9982(4) 0.07618(12)
N13 N 0.4635(2) 0.8946(4) 0.10542(13)
Zn2_2 Zn 0.97171(3) 0.13577(6) 0.584170(19)
I3_2 I 0.92000(2) 0.21970(5) 0.622600(17)
I4_2 I 0.99163(2) 0.21165(4) 0.534190(13)
N1_2 N 0.9418(2) 0.0018(4) 0.57618(12)
Zn1_2 Zn 0.75636(3) 0.34517(6) 0.685308(17)
I1_2 I 0.66668(2) 0.34265(6) 0.672129(14)
I2_2 I 0.80111(2) 0.18477(4) 0.692808(13)
I5_2 I 0.93315(3) 0.15551(4) 0.431280(14)
C1_2 C 0.9174(3) 0.9539(5) 0.59747(15)
H1_2 H 0.9125 0.9853 0.6160
C2_2 C 0.8992(3) 0.8622(6) 0.59372(17)
H2_2 H 0.8820 0.8310 0.6093
C3_2 C 0.9479(3) 0.9561(5) 0.55012(15)
H3_2 H 0.9646 0.9892 0.5347
C4_2 C 0.9309(3) 0.8635(5) 0.54491(15)
H4_2 H 0.9362 0.8332 0.5263
C5_2 C 0.9061(3) 0.8147(5) 0.56683(15)
C6_2 C 0.8908(3) 0.7125(5) 0.56377(15)
C7_2 C 0.9448(3) 0.5043(6) 0.46392(16)
H5_2 H 0.9607 0.5355 0.4478
C8_2 C 0.9324(3) 0.5594(6) 0.48859(17)
H6_2 H 0.9405 0.6267 0.4895
C9_2 C 0.9131(3) 0.3673(5) 0.48505(16)
H7_2 H 0.9064 0.2994 0.4840
C10_2 C 0.8994(3) 0.4167(5) 0.51014(15)
H8_2 H 0.8841 0.3836 0.5261
C11_2 C 0.9085(3) 0.5156(5) 0.51158(14)
C12_2 C 0.8938(3) 0.5715(5) 0.53826(15)
C13_2 C 0.8117(4) 0.3779(6) 0.63117(18)
H9_2 H 0.8105 0.3086 0.6308
C14_2 C 0.8323(4) 0.4244(6) 0.60790(18)
H10_2 H 0.8441 0.3882 0.5915
C15_2 C 0.7977(4) 0.5205(6) 0.65469(18)
H11_2 H 0.7849 0.5554 0.6711
C16_2 C 0.8200(4) 0.5719(6) 0.63253(18)
H12_2 H 0.8242 0.6405 0.6341
C17_2 C 0.8361(3) 0.5232(5) 0.60817(15)
C18_2 C 0.8585(3) 0.5753(5) 0.58293(15)
C19_2 C 0.7295(3) 0.4606(5) 0.73807(14)
H13_2 H 0.6984 0.4617 0.7288
C20_2 C 0.7338(3) 0.4973(5) 0.76622(14)
H14_2 H 0.7061 0.5217 0.7764
C21_2 C 0.8106(3) 0.4271(5) 0.73583(16)
H15_2 H 0.8378 0.4027 0.7251
C22_2 C 0.8183(3) 0.4638(5) 0.76340(16)
H16_2 H 0.8503 0.4659 0.7715
C23_2 C 0.7790(3) 0.4980(4) 0.77945(14)
C24_2 C 0.7833(3) 0.5288(4) 0.81084(14)
C25_2 C 0.9618(3) 0.5838(7) 0.86607(19)
H17_2 H 0.9917 0.5786 0.8556
C26_2 C 0.9193(3) 0.5686(7) 0.85079(17)
H18_2 H 0.9201 0.5536 0.8303
C27_2 C 0.9218(3) 0.6100(5) 0.90914(15)
H19_2 H 0.9225 0.6235 0.9297
C28_2 C 0.8775(3) 0.5961(5) 0.89570(16)
H20_2 H 0.8483 0.6006 0.9069
C29_2 C 0.8755(2) 0.5755(4) 0.86567(15)
C30_2 C 0.8281(2) 0.5637(4) 0.85092(14)
C31_2 C 0.6598(3) 0.6324(5) 0.91384(15)
H21_2 H 0.6610 0.6543 0.9338
C32_2 C 0.7025(3) 0.6158(5) 0.89950(14)
H22_2 H 0.7327 0.6264 0.9092
C33_2 C 0.6147(2) 0.5867(5) 0.87334(14)
H23_2 H 0.5839 0.5760 0.8644
C34_2 C 0.6561(2) 0.5679(5) 0.85721(14)
H24_2 H 0.6539 0.5451 0.8374
C35_2 C 0.7015(2) 0.5832(4) 0.87046(13)
C36_2 C 0.7466(2) 0.5658(4) 0.85316(13)
N2_2 N 0.9352(2) 0.4096(4) 0.46208(12)
N3_2 N 0.7932(2) 0.4236(4) 0.65430(13)
N4_2 N 0.9049(2) 0.6658(4) 0.53910(12)
N5_2 N 0.8712(2) 0.5226(4) 0.55943(13)
N6_2 N 0.8668(2) 0.6717(4) 0.58596(13)
N7_2 N 0.7670(2) 0.4237(4) 0.72326(12)
N8_2 N 0.9635(2) 0.6054(4) 0.89458(13)
N10_2 N 0.8277(2) 0.5393(4) 0.82203(12)
N11_2 N 0.7887(2) 0.5773(4) 0.86738(12)
N12_2 N 0.7417(2) 0.5419(4) 0.82517(11)
I3_3 I 0.42000(2) 0.28030(5) 0.377400(17)
I4_3 I 0.49163(2) 0.28835(4) 0.465810(13)
C1_3 C 0.4174(3) 0.5461(5) 0.40253(15)
H1_3 H 0.4125 0.5147 0.3840
C2_3 C 0.3992(3) 0.6378(6) 0.40628(17)
H2_3 H 0.3820 0.6690 0.3907
C3_3 C 0.4479(3) 0.5439(5) 0.44988(15)
H3_3 H 0.4646 0.5108 0.4653
C4_3 C 0.4309(3) 0.6365(5) 0.45509(15)
H4_3 H 0.4362 0.6668 0.4737
C5_3 C 0.4061(3) 0.6853(5) 0.43317(15)
C6_3 C 0.3908(3) 0.7875(5) 0.43623(15)
C7_3 C 0.4448(3) 0.9957(6) 0.53608(16)
H5_3 H 0.4607 0.9645 0.5522
C8_3 C 0.4324(3) 0.9406(6) 0.51141(17)
H6_3 H 0.4405 0.8733 0.5105
C11_3 C 0.4085(3) 0.9844(5) 0.48842(14)
C12_3 C 0.3938(3) 0.9285(5) 0.46174(15)
C15_3 C 0.2977(4) 0.9795(6) 0.34531(18)
H11_3 H 0.2849 0.9446 0.3289
C16_3 C 0.3200(4) 0.9281(6) 0.36747(18)
H12_3 H 0.3242 0.8595 0.3659
C17_3 C 0.3361(3) 0.9768(5) 0.39183(15)
C18_3 C 0.3585(3) 0.9247(5) 0.41707(15)
H14_3 H 0.2061 0.9783 0.2236
C24_3 C 0.2833(3) 0.9712(4) 0.18916(14)
C25_3 C 0.4618(3) 0.9162(7) 0.13393(19)
H17_3 H 0.4917 0.9214 0.1444
C26_3 C 0.4193(3) 0.9314(7) 0.14921(17)
H18_3 H 0.4201 0.9464 0.1697
C27_3 C 0.4218(3) 0.8900(5) 0.09086(15)
H19_3 H 0.4225 0.8765 0.0703
C28_3 C 0.3775(3) 0.9039(5) 0.10430(16)
H20_3 H 0.3483 0.8994 0.0931
C29_3 C 0.3755(2) 0.9245(4) 0.13433(15)
C30_3 C 0.3281(2) 0.9363(4) 0.14908(14)
C31_3 C 0.1598(3) 0.8676(5) 0.08616(15)
H21_3 H 0.1610 0.8457 0.0662
C32_3 C 0.2025(3) 0.8842(5) 0.10050(14)
H22_3 H 0.2327 0.8736 0.0908
C33_3 C 0.1147(2) 0.9133(5) 0.12666(14)
H23_3 H 0.0839 0.9240 0.1356
C34_3 C 0.1561(2) 0.9321(5) 0.14279(14)
H24_3 H 0.1539 0.9549 0.1626
C35_3 C 0.2015(2) 0.9168(4) 0.12954(13)
C36_3 C 0.2466(2) 0.9342(4) 0.14684(13)
N1_3 N 0.4418(2) 0.4982(4) 0.42382(12)
N4_3 N 0.4049(2) 0.8342(4) 0.46090(12)
N5_3 N 0.3712(2) 0.9774(4) 0.44057(13)
N6_3 N 0.3668(2) 0.8283(4) 0.41404(13)
N9_2 N 0.1163(2) 0.8805(4) 0.09868(11)
N10_3 N 0.3277(2) 0.9607(4) 0.17797(12)
N11_3 N 0.2887(2) 0.9227(4) 0.13262(12)
N12_3 N 0.2417(2) 0.9581(4) 0.17483(11)
Zn5_2 Zn 0.05390(3) 0.83709(6) 0.077030(18)
I5_3 I 0.06685(3) 0.65551(4) 0.068720(14)
C9_3 C 0.0869(3) 0.8673(5) 0.01495(16)
H7_3 H 0.0936 0.7994 0.0160
N2_3 N 0.0648(2) 0.9096(4) 0.03792(12)
N13_2 N 0.0365(2) 0.1054(4) 0.60542(13)
I6_2 I 0.01564(2) 0.41835(6) 0.395610(15)
Zn4_2 Zn 0.02829(3) 0.63577(6) 0.915830(19)
Zn1_3 Zn 0.25636(3) 0.15483(6) 0.314692(17)
Zn3_2 Zn 0.44610(3) 0.16291(6) 0.577030(18)
I1_3 I 0.16668(2) 0.15735(6) 0.327871(14)
I2_3 I 0.30111(2) 0.31523(4) 0.307192(13)
I5_4 I 0.43315(3) 0.34449(4) 0.568720(14)
I6_3 I 0.51564(2) 0.08165(6) 0.604390(15)
C9_4 C 0.4131(3) 0.1327(5) 0.51495(16)
H7_4 H 0.4064 0.2006 0.5160
C10_3 C 0.3994(3) 0.0833(5) 0.48986(15)
H8_3 H 0.3841 0.1164 0.4739
C13_3 C 0.3117(4) 0.1221(6) 0.36883(18)
H9_3 H 0.3105 0.1914 0.3692
C14_3 C 0.3323(4) 0.0756(6) 0.39210(18)
H10_3 H 0.3441 0.1118 0.4085
C19_3 C 0.2295(3) 0.0394(5) 0.26193(14)
H13_3 H 0.1984 0.0383 0.2712
C20_3 C 0.2338(3) 0.0027(5) 0.23378(14)
C21_3 C 0.3106(3) 0.0729(5) 0.26417(16)
H15_3 H 0.3378 0.0973 0.2749
C22_3 C 0.3183(3) 0.0362(5) 0.23660(16)
H16_3 H 0.3503 0.0341 0.2285
C23_3 C 0.2790(3) 0.0020(4) 0.22055(14)
N2_4 N 0.4352(2) 0.0904(4) 0.53792(12)
N3_3 N 0.2932(2) 0.0764(4) 0.34570(13)
N7_3 N 0.2670(2) 0.0763(4) 0.27674(12)
N14_2 N 0.3837(2) 0.1195(4) 0.59868(11)
I3_4 I 0.08000(2) 0.71970(5) 0.877400(17)
I4_4 I 0.00837(2) 0.71165(4) 0.965810(13)
C1_4 C 0.0826(3) 0.4539(5) 0.90253(15)
H1_4 H 0.0875 0.4853 0.8840
C2_4 C 0.1008(3) 0.3622(6) 0.90628(17)
H2_4 H 0.1180 0.3310 0.8907
C3_4 C 0.0521(3) 0.4561(5) 0.94988(15)
H3_4 H 0.0354 0.4892 0.9653
C4_4 C 0.0691(3) 0.3635(5) 0.95509(15)
H4_4 H 0.0638 0.3332 0.9737
C5_4 C 0.0939(3) 0.3147(5) 0.93317(15)
C6_4 C 0.1092(3) 0.2125(5) 0.93623(15)
C11_4 C 0.0915(3) 0.0156(5) 0.98842(14)
C12_4 C 0.1062(3) 0.0715(5) 0.96174(15)
C15_4 C 0.2023(4) 0.0205(6) 0.84531(18)
H11_4 H 0.2151 0.0554 0.8289
C16_4 C 0.1800(4) 0.0719(6) 0.86747(18)
H12_4 H 0.1758 0.1405 0.8659
C17_4 C 0.1639(3) 0.0232(5) 0.89183(15)
C18_4 C 0.1415(3) 0.0753(5) 0.91707(15)
H14_4 H 0.2939 0.0217 0.7236
C24_4 C 0.2167(3) 0.0288(4) 0.68916(14)
C25_4 C 0.0382(3) 0.0838(7) 0.63393(19)
H17_4 H 0.0083 0.0786 0.6444
C26_4 C 0.0807(3) 0.0686(7) 0.64921(17)
H18_4 H 0.0799 0.0536 0.6697
C27_4 C 0.0782(3) 0.1100(5) 0.59086(15)
H19_4 H 0.0775 0.1235 0.5703
C28_4 C 0.1225(3) 0.0961(5) 0.60430(16)
H20_4 H 0.1517 0.1006 0.5931
C29_4 C 0.1245(2) 0.0755(4) 0.63433(15)
C30_4 C 0.1719(2) 0.0637(4) 0.64908(14)
C31_4 C 0.3402(3) 0.1324(5) 0.58616(15)
H21_4 H 0.3390 0.1543 0.5662
C32_4 C 0.2975(3) 0.1158(5) 0.60050(14)
H22_4 H 0.2673 0.1264 0.5908
C33_4 C 0.3853(2) 0.0867(5) 0.62666(14)
H23_4 H 0.4161 0.0760 0.6356
C34_4 C 0.3439(2) 0.0679(5) 0.64279(14)
H24_4 H 0.3461 0.0451 0.6626
C35_4 C 0.2985(2) 0.0832(4) 0.62954(13)
C36_4 C 0.2534(2) 0.0658(4) 0.64684(13)
N1_4 N 0.0582(2) 0.5018(4) 0.92382(12)
N4_4 N 0.0951(2) 0.1658(4) 0.96090(12)
N5_4 N 0.1288(2) 0.0226(4) 0.94057(13)
N6_4 N 0.1332(2) 0.1717(4) 0.91404(13)
N10_4 N 0.1723(2) 0.0393(4) 0.67797(12)
N11_4 N 0.2113(2) 0.0773(4) 0.63262(12)
N12_4 N 0.2583(2) 0.0419(4) 0.67483(11)
C7_4 C 0.0552(3) 0.0043(6) 0.03608(16)
H5_4 H 0.0393 0.0355 0.0522
C8_4 C 0.0676(3) 0.0594(6) 0.01141(17)
H6_4 H 0.0595 0.1267 0.0105
Zn1_4 Zn 0.24364(3) 0.84517(6) 0.814692(17)
I1_4 I 0.33332(2) 0.84265(6) 0.827871(14)
I2_4 I 0.19889(2) 0.68477(4) 0.807192(13)
C10_4 C 0.1006(3) 0.9167(5) 0.98986(15)
H8_4 H 0.1159 0.8836 0.9739
C13_4 C 0.1883(4) 0.8779(6) 0.86883(18)
H9_4 H 0.1895 0.8086 0.8692
C14_4 C 0.1677(4) 0.9244(6) 0.89210(18)
H10_4 H 0.1559 0.8882 0.9085
C19_4 C 0.2705(3) 0.9606(5) 0.76193(14)
H13_4 H 0.3016 0.9617 0.7712
C20_4 C 0.2662(3) 0.9973(5) 0.73378(14)
C21_4 C 0.1894(3) 0.9271(5) 0.76417(16)
H15_4 H 0.1622 0.9027 0.7749
C22_4 C 0.1817(3) 0.9638(5) 0.73660(16)
H16_4 H 0.1497 0.9659 0.7285
C23_4 C 0.2210(3) 0.9980(4) 0.72055(14)
N3_4 N 0.2068(2) 0.9236(4) 0.84570(13)
N7_4 N 0.2330(2) 0.9237(4) 0.77674(12)
I6_4 I 0.98436(2) 0.91835(6) 0.104390(15)
Zn2_3 Zn 0.47171(3) 0.13577(6) 0.915830(19)
I3_5 I 0.42000(2) 0.21970(5) 0.877400(17)
I4_5 I 0.49163(2) 0.21165(4) 0.965810(13)
N1_5 N 0.4418(2) 0.0018(4) 0.92382(12)
N13_3 N 0.5365(2) 0.1054(4) 0.89458(13)
Zn3_3 Zn 0.44610(3) 0.33709(6) 0.077030(18)
I5_5 I 0.43315(3) 0.15551(4) 0.068720(14)
I6_5 I 0.51564(2) 0.41835(6) 0.104390(15)
C7_5 C 0.4448(3) 0.5043(6) 0.03608(16)
H5_5 H 0.4607 0.5355 0.0522
C8_5 C 0.4324(3) 0.5594(6) 0.01141(17)
H6_5 H 0.4405 0.6267 0.0105
C9_5 C 0.4131(3) 0.3673(5) 0.01495(16)
H7_5 H 0.4064 0.2994 0.0160
N2_5 N 0.4352(2) 0.4096(4) 0.03792(12)
N14_3 N 0.3837(2) 0.3805(4) 0.09868(11)
Zn1_5 Zn 0.25636(3) 0.34517(6) 0.814692(17)
I1_5 I 0.16668(2) 0.34265(6) 0.827871(14)
I2_5 I 0.30111(2) 0.18477(4) 0.807192(13)
C1_5 C 0.4174(3) 0.9539(5) 0.90253(15)
H1_5 H 0.4125 0.9853 0.8840
C2_5 C 0.3992(3) 0.8622(6) 0.90628(17)
H2_5 H 0.3820 0.8310 0.8907
C3_5 C 0.4479(3) 0.9561(5) 0.94988(15)
H3_5 H 0.4646 0.9892 0.9653
C4_5 C 0.4309(3) 0.8635(5) 0.95509(15)
H4_5 H 0.4362 0.8332 0.9737
C5_5 C 0.4061(3) 0.8147(5) 0.93317(15)
C6_5 C 0.3908(3) 0.7125(5) 0.93623(15)
C10_5 C 0.3994(3) 0.4167(5) 0.98986(15)
H8_5 H 0.3841 0.3836 0.9739
C11_5 C 0.4085(3) 0.5156(5) 0.98842(14)
C12_5 C 0.3938(3) 0.5715(5) 0.96174(15)
C13_5 C 0.3117(4) 0.3779(6) 0.86883(18)
H9_5 H 0.3105 0.3086 0.8692
C14_5 C 0.3323(4) 0.4244(6) 0.89210(18)
H10_5 H 0.3441 0.3882 0.9085
C15_5 C 0.2977(4) 0.5205(6) 0.84531(18)
H11_5 H 0.2849 0.5554 0.8289
C16_5 C 0.3200(4) 0.5719(6) 0.86747(18)
H12_5 H 0.3242 0.6405 0.8659
C17_5 C 0.3361(3) 0.5232(5) 0.89183(15)
C18_5 C 0.3585(3) 0.5753(5) 0.91707(15)
C19_5 C 0.2295(3) 0.4606(5) 0.76193(14)
H13_5 H 0.1984 0.4617 0.7712
C20_5 C 0.2338(3) 0.4973(5) 0.73378(14)
H14_5 H 0.2061 0.5217 0.7236
C21_5 C 0.3106(3) 0.4271(5) 0.76417(16)
H15_5 H 0.3378 0.4027 0.7749
C22_5 C 0.3183(3) 0.4638(5) 0.73660(16)
H16_5 H 0.3503 0.4659 0.7285
C23_5 C 0.2790(3) 0.4980(4) 0.72055(14)
C24_5 C 0.2833(3) 0.5288(4) 0.68916(14)
C25_5 C 0.4618(3) 0.5838(7) 0.63393(19)
H17_5 H 0.4917 0.5786 0.6444
C26_5 C 0.4193(3) 0.5686(7) 0.64921(17)
H18_5 H 0.4201 0.5536 0.6697
C27_5 C 0.4218(3) 0.6100(5) 0.59086(15)
H19_5 H 0.4225 0.6235 0.5703
C28_5 C 0.3775(3) 0.5961(5) 0.60430(16)
H20_5 H 0.3483 0.6006 0.5931
C29_5 C 0.3755(2) 0.5755(4) 0.63433(15)
C30_5 C 0.3281(2) 0.5637(4) 0.64908(14)
C31_5 C 0.1598(3) 0.6324(5) 0.58616(15)
H21_5 H 0.1610 0.6543 0.5662
C32_5 C 0.2025(3) 0.6158(5) 0.60050(14)
H22_5 H 0.2327 0.6264 0.5908
C33_5 C 0.1147(2) 0.5867(5) 0.62666(14)
H23_5 H 0.0839 0.5760 0.6356
C34_5 C 0.1561(2) 0.5679(5) 0.64279(14)
H24_5 H 0.1539 0.5451 0.6626
C35_5 C 0.2015(2) 0.5832(4) 0.62954(13)
C36_5 C 0.2466(2) 0.5658(4) 0.64684(13)
N3_5 N 0.2932(2) 0.4236(4) 0.84570(13)
N4_5 N 0.4049(2) 0.6658(4) 0.96090(12)
N5_5 N 0.3712(2) 0.5226(4) 0.94057(13)
N6_5 N 0.3668(2) 0.6717(4) 0.91404(13)
N7_5 N 0.2670(2) 0.4237(4) 0.77674(12)
N8_3 N 0.4635(2) 0.6054(4) 0.60542(13)
N9_3 N 0.1163(2) 0.6195(4) 0.59868(11)
N10_5 N 0.3277(2) 0.5393(4) 0.67797(12)
N11_5 N 0.2887(2) 0.5773(4) 0.63262(12)
N12_5 N 0.2417(2) 0.5419(4) 0.67483(11)
Zn4_3 Zn 0.52829(3) 0.63577(6) 0.584170(19)
Zn5_3 Zn 0.05390(3) 0.66291(6) 0.577030(18)
Zn1_6 Zn 0.24364(3) 0.65483(6) 0.314692(17)
I1_6 I 0.33332(2) 0.65735(6) 0.327871(14)
I2_6 I 0.19889(2) 0.81523(4) 0.307192(13)
I5_6 I 0.06685(3) 0.84449(4) 0.568720(14)
C1_6 C 0.0826(3) 0.0461(5) 0.40253(15)
H1_6 H 0.0875 0.0147 0.3840
C2_6 C 0.1008(3) 0.1378(6) 0.40628(17)
H2_6 H 0.1180 0.1690 0.3907
C3_6 C 0.0521(3) 0.0439(5) 0.44988(15)
H3_6 H 0.0354 0.0108 0.4653
C4_6 C 0.0691(3) 0.1365(5) 0.45509(15)
H4_6 H 0.0638 0.1668 0.4737
C5_6 C 0.0939(3) 0.1853(5) 0.43317(15)
C6_6 C 0.1092(3) 0.2875(5) 0.43623(15)
C7_6 C 0.0552(3) 0.4957(6) 0.53608(16)
H5_6 H 0.0393 0.4645 0.5522
C8_6 C 0.0676(3) 0.4406(6) 0.51141(17)
H6_6 H 0.0595 0.3733 0.5105
C9_6 C 0.0869(3) 0.6327(5) 0.51495(16)
H7_6 H 0.0936 0.7006 0.5160
C10_6 C 0.1006(3) 0.5833(5) 0.48986(15)
H8_6 H 0.1159 0.6164 0.4739
C11_6 C 0.0915(3) 0.4844(5) 0.48842(14)
C12_6 C 0.1062(3) 0.4285(5) 0.46174(15)
C13_6 C 0.1883(4) 0.6221(6) 0.36883(18)
H9_6 H 0.1895 0.6914 0.3692
C14_6 C 0.1677(4) 0.5756(6) 0.39210(18)
H10_6 H 0.1559 0.6118 0.4085
C15_6 C 0.2023(4) 0.4795(6) 0.34531(18)
H11_6 H 0.2151 0.4446 0.3289
C16_6 C 0.1800(4) 0.4281(6) 0.36747(18)
H12_6 H 0.1758 0.3595 0.3659
C17_6 C 0.1639(3) 0.4768(5) 0.39183(15)
C18_6 C 0.1415(3) 0.4247(5) 0.41707(15)
C19_6 C 0.2705(3) 0.5394(5) 0.26193(14)
H13_6 H 0.3016 0.5383 0.2712
C20_6 C 0.2662(3) 0.5027(5) 0.23378(14)
H14_6 H 0.2939 0.4783 0.2236
C21_6 C 0.1894(3) 0.5729(5) 0.26417(16)
H15_6 H 0.1622 0.5973 0.2749
C22_6 C 0.1817(3) 0.5362(5) 0.23660(16)
H16_6 H 0.1497 0.5341 0.2285
C23_6 C 0.2210(3) 0.5020(4) 0.22055(14)
C24_6 C 0.2167(3) 0.4712(4) 0.18916(14)
C25_6 C 0.0382(3) 0.4162(7) 0.13393(19)
H17_6 H 0.0083 0.4214 0.1444
C26_6 C 0.0807(3) 0.4314(7) 0.14921(17)
H18_6 H 0.0799 0.4464 0.1697
C27_6 C 0.0782(3) 0.3900(5) 0.09086(15)
H19_6 H 0.0775 0.3765 0.0703
C28_6 C 0.1225(3) 0.4039(5) 0.10430(16)
H20_6 H 0.1517 0.3994 0.0931
C29_6 C 0.1245(2) 0.4245(4) 0.13433(15)
C30_6 C 0.1719(2) 0.4363(4) 0.14908(14)
C31_6 C 0.3402(3) 0.3676(5) 0.08616(15)
H21_6 H 0.3390 0.3457 0.0662
C32_6 C 0.2975(3) 0.3842(5) 0.10050(14)
H22_6 H 0.2673 0.3736 0.0908
C33_6 C 0.3853(2) 0.4133(5) 0.12666(14)
H23_6 H 0.4161 0.4240 0.1356
C34_6 C 0.3439(2) 0.4321(5) 0.14279(14)
H24_6 H 0.3461 0.4549 0.1626
C35_6 C 0.2985(2) 0.4168(4) 0.12954(13)
C36_6 C 0.2534(2) 0.4342(4) 0.14684(13)
N2_6 N 0.0648(2) 0.5904(4) 0.53792(12)
N3_6 N 0.2068(2) 0.5764(4) 0.34570(13)
N4_6 N 0.0951(2) 0.3342(4) 0.46090(12)
N5_6 N 0.1288(2) 0.4774(4) 0.44057(13)
N6_6 N 0.1332(2) 0.3283(4) 0.41404(13)
N7_6 N 0.2330(2) 0.5763(4) 0.27674(12)
N8_4 N 0.0365(2) 0.3946(4) 0.10542(13)
N10_6 N 0.1723(2) 0.4607(4) 0.17797(12)
N11_6 N 0.2113(2) 0.4227(4) 0.13262(12)
N12_6 N 0.2583(2) 0.4581(4) 0.17483(11)
Zn2_4 Zn 0.02829(3) 0.86423(6) 0.415830(19)
I3_6 I 0.08000(2) 0.78030(5) 0.377400(17)
I4_6 I 0.00837(2) 0.78835(4) 0.465810(13)
N1_6 N 0.0582(2) 0.9982(4) 0.42382(12)
I3_7 I 0.58000(2) 0.71970(5) 0.622600(17)
I4_7 I 0.50837(2) 0.71165(4) 0.534190(13)
C1_7 C 0.5826(3) 0.4539(5) 0.59747(15)
H1_7 H 0.5875 0.4853 0.6160
C2_7 C 0.6008(3) 0.3622(6) 0.59372(17)
H2_7 H 0.6180 0.3310 0.6093
C3_7 C 0.5521(3) 0.4561(5) 0.55012(15)
H3_7 H 0.5354 0.4892 0.5347
C4_7 C 0.5691(3) 0.3635(5) 0.54491(15)
H4_7 H 0.5638 0.3332 0.5263
C5_7 C 0.5939(3) 0.3147(5) 0.56683(15)
C6_7 C 0.6092(3) 0.2125(5) 0.56377(15)
C7_7 C 0.5552(3) 0.0043(6) 0.46392(16)
H5_7 H 0.5393 0.0355 0.4478
C8_7 C 0.5676(3) 0.0594(6) 0.48859(17)
H6_7 H 0.5595 0.1267 0.4895
C11_7 C 0.5915(3) 0.0156(5) 0.51158(14)
C12_7 C 0.6062(3) 0.0715(5) 0.53826(15)
C15_7 C 0.7023(4) 0.0205(6) 0.65469(18)
H11_7 H 0.7151 0.0554 0.6711
C16_7 C 0.6800(4) 0.0719(6) 0.63253(18)
H12_7 H 0.6758 0.1405 0.6341
C17_7 C 0.6639(3) 0.0232(5) 0.60817(15)
C18_7 C 0.6415(3) 0.0753(5) 0.58293(15)
H14_7 H 0.7939 0.0217 0.7764
C24_7 C 0.7167(3) 0.0288(4) 0.81084(14)
C25_7 C 0.5382(3) 0.0838(7) 0.86607(19)
H17_7 H 0.5083 0.0786 0.8556
C26_7 C 0.5807(3) 0.0686(7) 0.85079(17)
H18_7 H 0.5799 0.0536 0.8303
C27_7 C 0.5782(3) 0.1100(5) 0.90914(15)
H19_7 H 0.5775 0.1235 0.9297
C28_7 C 0.6225(3) 0.0961(5) 0.89570(16)
H20_7 H 0.6517 0.1006 0.9069
C29_7 C 0.6245(2) 0.0755(4) 0.86567(15)
C30_7 C 0.6719(2) 0.0637(4) 0.85092(14)
C31_7 C 0.8402(3) 0.1324(5) 0.91384(15)
H21_7 H 0.8390 0.1543 0.9338
C32_7 C 0.7975(3) 0.1158(5) 0.89950(14)
H22_7 H 0.7673 0.1264 0.9092
C33_7 C 0.8853(2) 0.0867(5) 0.87334(14)
H23_7 H 0.9161 0.0760 0.8644
C34_7 C 0.8439(2) 0.0679(5) 0.85721(14)
H24_7 H 0.8461 0.0451 0.8374
C35_7 C 0.7985(2) 0.0832(4) 0.87046(13)
C36_7 C 0.7534(2) 0.0658(4) 0.85316(13)
N1_7 N 0.5582(2) 0.5018(4) 0.57618(12)
N4_7 N 0.5951(2) 0.1658(4) 0.53910(12)
N5_7 N 0.6288(2) 0.0226(4) 0.55943(13)
N6_7 N 0.6332(2) 0.1717(4) 0.58596(13)
N9_4 N 0.8837(2) 0.1195(4) 0.90132(11)
N10_7 N 0.6723(2) 0.0393(4) 0.82203(12)
N11_7 N 0.7113(2) 0.0773(4) 0.86738(12)
N12_7 N 0.7583(2) 0.0419(4) 0.82517(11)
Zn5_4 Zn 0.94610(3) 0.16291(6) 0.922970(18)
I5_7 I 0.93315(3) 0.34449(4) 0.931280(14)
C9_7 C 0.9131(3) 0.1327(5) 0.98505(16)
H7_7 H 0.9064 0.2006 0.9840
N2_7 N 0.9352(2) 0.0904(4) 0.96208(12)
I6_6 I 0.98436(2) 0.58165(6) 0.604390(15)
Zn4_4 Zn 0.97171(3) 0.36423(6) 0.084170(19)
N13_4 N 0.9635(2) 0.8946(4) 0.39458(13)
Zn1_7 Zn 0.74364(3) 0.84517(6) 0.685308(17)
Zn3_4 Zn 0.55390(3) 0.83709(6) 0.422970(18)
I1_7 I 0.83332(2) 0.84265(6) 0.672129(14)
I2_7 I 0.69889(2) 0.68477(4) 0.692808(13)
I5_8 I 0.56685(3) 0.65551(4) 0.431280(14)
I6_7 I 0.48436(2) 0.91835(6) 0.395610(15)
C9_8 C 0.5869(3) 0.8673(5) 0.48505(16)
H7_8 H 0.5936 0.7994 0.4840
C10_7 C 0.6006(3) 0.9167(5) 0.51014(15)
H8_7 H 0.6159 0.8836 0.5261
C13_7 C 0.6883(4) 0.8779(6) 0.63117(18)
H9_7 H 0.6895 0.8086 0.6308
C14_7 C 0.6677(4) 0.9244(6) 0.60790(18)
H10_7 H 0.6559 0.8882 0.5915
C19_7 C 0.7705(3) 0.9606(5) 0.73807(14)
H13_7 H 0.8016 0.9617 0.7288
C20_7 C 0.7662(3) 0.9973(5) 0.76622(14)
C21_7 C 0.6894(3) 0.9271(5) 0.73583(16)
H15_7 H 0.6622 0.9027 0.7251
C22_7 C 0.6817(3) 0.9638(5) 0.76340(16)
H16_7 H 0.6497 0.9659 0.7715
C23_7 C 0.7210(3) 0.9980(4) 0.77945(14)
N2_8 N 0.5648(2) 0.9096(4) 0.46208(12)
N3_7 N 0.7068(2) 0.9236(4) 0.65430(13)
N7_7 N 0.7330(2) 0.9237(4) 0.72326(12)
N14_4 N 0.6163(2) 0.8805(4) 0.40132(11)
I3_8 I 0.92000(2) 0.28030(5) 0.122600(17)
I4_8 I 0.99163(2) 0.28835(4) 0.034190(13)
C1_8 C 0.9174(3) 0.5461(5) 0.09747(15)
H1_8 H 0.9125 0.5147 0.1160
C2_8 C 0.8992(3) 0.6378(6) 0.09372(17)
H2_8 H 0.8820 0.6690 0.1093
C3_8 C 0.9479(3) 0.5439(5) 0.05012(15)
H3_8 H 0.9646 0.5108 0.0347
C4_8 C 0.9309(3) 0.6365(5) 0.04491(15)
H4_8 H 0.9362 0.6668 0.0263
C5_8 C 0.9061(3) 0.6853(5) 0.06683(15)
C6_8 C 0.8908(3) 0.7875(5) 0.06377(15)
C11_8 C 0.9085(3) 0.9844(5) 0.01158(14)
C12_8 C 0.8938(3) 0.9285(5) 0.03826(15)
C15_8 C 0.7977(4) 0.9795(6) 0.15469(18)
H11_8 H 0.7849 0.9446 0.1711
C16_8 C 0.8200(4) 0.9281(6) 0.13253(18)
H12_8 H 0.8242 0.8595 0.1341
C17_8 C 0.8361(3) 0.9768(5) 0.10817(15)
C18_8 C 0.8585(3) 0.9247(5) 0.08293(15)
H14_8 H 0.7061 0.9783 0.2764
C24_8 C 0.7833(3) 0.9712(4) 0.31084(14)
C25_8 C 0.9618(3) 0.9162(7) 0.36607(19)
H17_8 H 0.9917 0.9214 0.3556
C26_8 C 0.9193(3) 0.9314(7) 0.35079(17)
H18_8 H 0.9201 0.9464 0.3303
C27_8 C 0.9218(3) 0.8900(5) 0.40914(15)
H19_8 H 0.9225 0.8765 0.4297
C28_8 C 0.8775(3) 0.9039(5) 0.39570(16)
H20_8 H 0.8483 0.8994 0.4069
C29_8 C 0.8755(2) 0.9245(4) 0.36567(15)
C30_8 C 0.8281(2) 0.9363(4) 0.35092(14)
C31_8 C 0.6598(3) 0.8676(5) 0.41384(15)
H21_8 H 0.6610 0.8457 0.4338
C32_8 C 0.7025(3) 0.8842(5) 0.39950(14)
H22_8 H 0.7327 0.8736 0.4092
C33_8 C 0.6147(2) 0.9133(5) 0.37334(14)
H23_8 H 0.5839 0.9240 0.3644
C34_8 C 0.6561(2) 0.9321(5) 0.35721(14)
H24_8 H 0.6539 0.9549 0.3374
C35_8 C 0.7015(2) 0.9168(4) 0.37046(13)
C36_8 C 0.7466(2) 0.9342(4) 0.35316(13)
N1_8 N 0.9418(2) 0.4982(4) 0.07618(12)
N4_8 N 0.9049(2) 0.8342(4) 0.03910(12)
N5_8 N 0.8712(2) 0.9774(4) 0.05943(13)
N6_8 N 0.8668(2) 0.8283(4) 0.08596(13)
N10_8 N 0.8277(2) 0.9607(4) 0.32203(12)
N11_8 N 0.7887(2) 0.9227(4) 0.36738(12)
N12_8 N 0.7417(2) 0.9581(4) 0.32517(11)
I6_8 I 0.01564(2) 0.08165(6) 0.895610(15)
Zn1_8 Zn 0.75636(3) 0.15483(6) 0.185308(17)
I1_8 I 0.66668(2) 0.15735(6) 0.172129(14)
I2_8 I 0.80111(2) 0.31523(4) 0.192808(13)
C10_8 C 0.8994(3) 0.0833(5) 0.01014(15)
H8_8 H 0.8841 0.1164 0.0261
C13_8 C 0.8117(4) 0.1221(6) 0.13117(18)
H9_8 H 0.8105 0.1914 0.1308
C14_8 C 0.8323(4) 0.0756(6) 0.10790(18)
H10_8 H 0.8441 0.1118 0.0915
C19_8 C 0.7295(3) 0.0394(5) 0.23807(14)
H13_8 H 0.6984 0.0383 0.2288
C20_8 C 0.7338(3) 0.0027(5) 0.26622(14)
C21_8 C 0.8106(3) 0.0729(5) 0.23583(16)
H15_8 H 0.8378 0.0973 0.2251
C22_8 C 0.8183(3) 0.0362(5) 0.26340(16)
H16_8 H 0.8503 0.0341 0.2715
C23_8 C 0.7790(3) 0.0020(4) 0.27945(14)
N3_8 N 0.7932(2) 0.0764(4) 0.15430(13)
N7_8 N 0.7670(2) 0.0763(4) 0.22326(12)
C7_8 C 0.9448(3) 0.9957(6) 0.96392(16)
H5_8 H 0.9607 0.9645 0.9478
C8_8 C 0.9324(3) 0.9406(6) 0.98859(17)
H6_8 H 0.9405 0.8733 0.9895
loop_
_geom_bond_atom_site_label_1
_geom_bond_atom_site_label_2
_geom_bond_site_symmetry_1
_geom_bond_site_symmetry_2
Zn1 I1 1_555 1_555
I2 Zn1 1_555 1_555
C1 H1 1_555 1_555
C2 C1 1_555 1_555
H2 C2 1_555 1_555
C3 H3 1_555 1_555
C4 C3 1_555 1_555
H4 C4 1_555 1_555
C5 C2 1_555 1_555
C6 C5 1_555 1_555
H8 C10 1_555 1_555
C12 C11 1_555 1_555
C13 H9 1_555 1_555
C14 C13 1_555 1_555
H10 C14 1_555 1_555
C15 H11 1_555 1_555
C16 C15 1_555 1_555
H12 C16 1_555 1_555
C17 C14 1_555 1_555
C18 C17 1_555 1_555
C19 H13 1_555 1_555
C20 C19 1_555 1_555
H14 C20 1_555 1_555
C21 H15 1_555 1_555
C22 C21 1_555 1_555
H16 C22 1_555 1_555
C23 C20 1_555 1_555
C24 C23 1_555 1_555
C25 H17 1_555 1_555
C26 C25 1_555 1_555
H18 C26 1_555 1_555
C27 H19 1_555 1_555
C28 C27 1_555 1_555
H20 C28 1_555 1_555
C29 C26 1_555 1_555
C30 C29 1_555 1_555
C31 H21 1_555 1_555
C32 C31 1_555 1_555
H22 C32 1_555 1_555
C33 H23 1_555 1_555
C34 C33 1_555 1_555
H24 C34 1_555 1_555
C35 C32 1_555 1_555
C36 C35 1_555 1_555
N3 Zn1 1_555 1_555
N4 C6 1_555 1_555
N5 C12 1_555 1_555
N6 C6 1_555 1_555
N7 Zn1 1_555 1_555
N8 C25 1_555 1_555
N9 C31 1_555 1_555
N10 C24 1_555 1_555
N11 C30 1_555 1_555
N12 C24 1_555 1_555
Zn4 N8 1_555 1_555
Zn5 N9 1_555 1_555
C4 C5 1_555 1_555
C10 C11 1_555 1_555
C12 N4 1_555 1_555
C13 N3 1_555 1_555
C15 N3 1_555 1_555
C16 C17 1_555 1_555
C18 N5 1_555 1_555
C18 N6 1_555 1_555
C19 N7 1_555 1_555
C21 N7 1_555 1_555
C22 C23 1_555 1_555
C27 N8 1_555 1_555
C28 C29 1_555 1_555
C30 N10 1_555 1_555
C33 N9 1_555 1_555
C34 C35 1_555 1_555
C36 N11 1_555 1_555
C36 N12 1_555 1_555
Zn3 I5 1_555 1_555
I6 Zn3 1_555 1_555
C7 H5 1_555 1_555
C8 C7 1_555 1_555
H6 C8 1_555 1_555
C9 H7 1_555 1_555
N2 Zn3 1_555 1_555
N14 Zn3 1_555 1_555
C7 N2 1_555 1_555
C9 N2 1_555 1_555
Zn2 I3 1_555 1_555
I4 Zn2 1_555 1_555
N1 Zn2 1_555 1_555
N13 Zn2 1_555 1_555
Zn2_2 I3_2 1_555 1_555
I4_2 Zn2_2 1_555 1_555
N1_2 Zn2_2 1_555 1_555
Zn1_2 I1_2 1_555 1_555
Zn5 I5_2 1_555 1_555
I2_2 Zn1_2 1_555 1_555
C1_2 H1_2 1_555 1_555
C2_2 C1_2 1_555 1_555
H2_2 C2_2 1_555 1_555
C3_2 H3_2 1_555 1_555
C4_2 C3_2 1_555 1_555
H4_2 C4_2 1_555 1_555
C5_2 C2_2 1_555 1_555
C6_2 C5_2 1_555 1_555
C7_2 H5_2 1_555 1_555
C8_2 C7_2 1_555 1_555
H6_2 C8_2 1_555 1_555
C9_2 H7_2 1_555 1_555
C10_2 C9_2 1_555 1_555
H8_2 C10_2 1_555 1_555
C11_2 C8_2 1_555 1_555
C12_2 C11_2 1_555 1_555
C13_2 H9_2 1_555 1_555
C14_2 C13_2 1_555 1_555
H10_2 C14_2 1_555 1_555
C15_2 H11_2 1_555 1_555
C16_2 C15_2 1_555 1_555
H12_2 C16_2 1_555 1_555
C17_2 C14_2 1_555 1_555
C18_2 C17_2 1_555 1_555
C19_2 H13_2 1_555 1_555
C20_2 C19_2 1_555 1_555
H14_2 C20_2 1_555 1_555
C21_2 H15_2 1_555 1_555
C22_2 C21_2 1_555 1_555
H16_2 C22_2 1_555 1_555
C23_2 C20_2 1_555 1_555
C24_2 C23_2 1_555 1_555
C25_2 H17_2 1_555 1_555
C26_2 C25_2 1_555 1_555
H18_2 C26_2 1_555 1_555
C27_2 H19_2 1_555 1_555
C28_2 C27_2 1_555 1_555
H20_2 C28_2 1_555 1_555
C29_2 C26_2 1_555 1_555
C30_2 C29_2 1_555 1_555
C31_2 H21_2 1_555 1_555
C32_2 C31_2 1_555 1_555
H22_2 C32_2 1_555 1_555
C33_2 H23_2 1_555 1_555
C34_2 C33_2 1_555 1_555
H24_2 C34_2 1_555 1_555
C35_2 C32_2 1_555 1_555
C36_2 C35_2 1_555 1_555
N2_2 Zn5 1_555 1_555
N3_2 Zn1_2 1_555 1_555
N4_2 C6_2 1_555 1_555
N5_2 C12_2 1_555 1_555
N6_2 C6_2 1_555 1_555
N7_2 Zn1_2 1_555 1_555
N8_2 C25_2 1_555 1_555
N14 C31_2 1_555 1_555
N10_2 C24_2 1_555 1_555
N11_2 C30_2 1_555 1_555
N12_2 C24_2 1_555 1_555
C4_2 C5_2 1_555 1_555
C7_2 N2_2 1_555 1_555
C9_2 N2_2 1_555 1_555
C10_2 C11_2 1_555 1_555
C12_2 N4_2 1_555 1_555
C13_2 N3_2 1_555 1_555
C15_2 N3_2 1_555 1_555
C16_2 C17_2 1_555 1_555
C18_2 N5_2 1_555 1_555
C18_2 N6_2 1_555 1_555
C19_2 N7_2 1_555 1_555
C21_2 N7_2 1_555 1_555
C22_2 C23_2 1_555 1_555
C27_2 N8_2 1_555 1_555
C28_2 C29_2 1_555 1_555
C30_2 N10_2 1_555 1_555
C33_2 N14 1_555 1_555
C34_2 C35_2 1_555 1_555
C36_2 N11_2 1_555 1_555
C36_2 N12_2 1_555 1_555
Zn4 I3_3 1_555 1_555
I4_3 Zn4 1_555 1_555
C1_3 H1_3 1_555 1_555
C2_3 C1_3 1_555 1_555
H2_3 C2_3 1_555 1_555
C3_3 H3_3 1_555 1_555
C4_3 C3_3 1_555 1_555
H4_3 C4_3 1_555 1_555
C5_3 C2_3 1_555 1_555
C6_3 C5_3 1_555 1_555
C7_3 H5_3 1_555 1_555
C8_3 C7_3 1_555 1_555
H6_3 C8_3 1_555 1_555
C11_3 C8_3 1_555 1_555
C12_3 C11_3 1_555 1_555
C15_3 H11_3 1_555 1_555
C16_3 C15_3 1_555 1_555
H12_3 C16_3 1_555 1_555
C18_3 C17_3 1_555 1_555
C25_3 H17_3 1_555 1_555
C26_3 C25_3 1_555 1_555
H18_3 C26_3 1_555 1_555
C27_3 H19_3 1_555 1_555
C28_3 C27_3 1_555 1_555
H20_3 C28_3 1_555 1_555
C29_3 C26_3 1_555 1_555
C30_3 C29_3 1_555 1_555
C31_3 H21_3 1_555 1_555
C32_3 C31_3 1_555 1_555
H22_3 C32_3 1_555 1_555
C33_3 H23_3 1_555 1_555
C34_3 C33_3 1_555 1_555
H24_3 C34_3 1_555 1_555
C35_3 C32_3 1_555 1_555
C36_3 C35_3 1_555 1_555
N1_3 Zn4 1_555 1_555
N4_3 C6_3 1_555 1_555
N5_3 C12_3 1_555 1_555
N6_3 C6_3 1_555 1_555
N13 C25_3 1_555 1_555
N9_2 C31_3 1_555 1_555
N10_3 C24_3 1_555 1_555
N11_3 C30_3 1_555 1_555
N12_3 C24_3 1_555 1_555
Zn5_2 N9_2 1_555 1_555
C1_3 N1_3 1_555 1_555
C3_3 N1_3 1_555 1_555
C4_3 C5_3 1_555 1_555
C12_3 N4_3 1_555 1_555
C16_3 C17_3 1_555 1_555
C18_3 N5_3 1_555 1_555
C18_3 N6_3 1_555 1_555
C27_3 N13 1_555 1_555
C28_3 C29_3 1_555 1_555
C30_3 N10_3 1_555 1_555
C33_3 N9_2 1_555 1_555
C34_3 C35_3 1_555 1_555
C36_3 N11_3 1_555 1_555
C36_3 N12_3 1_555 1_555
Zn5_2 I5_3 1_555 1_555
C9_3 H7_3 1_555 1_555
N2_3 Zn5_2 1_555 1_555
C9_3 N2_3 1_555 1_555
Zn1_3 I1_3 1_555 1_555
Zn3_2 I5_4 1_555 1_555
I2_3 Zn1_3 1_555 1_555
I6_3 Zn3_2 1_555 1_555
C9_4 H7_4 1_555 1_555
C10_3 C9_4 1_555 1_555
H8_3 C10_3 1_555 1_555
C13_3 H9_3 1_555 1_555
C14_3 C13_3 1_555 1_555
H10_3 C14_3 1_555 1_555
C19_3 H13_3 1_555 1_555
C20_3 C19_3 1_555 1_555
C21_3 H15_3 1_555 1_555
C22_3 C21_3 1_555 1_555
H16_3 C22_3 1_555 1_555
C23_3 C20_3 1_555 1_555
N2_4 Zn3_2 1_555 1_555
N3_3 Zn1_3 1_555 1_555
N7_3 Zn1_3 1_555 1_555
N14_2 Zn3_2 1_555 1_555
C9_4 N2_4 1_555 1_555
C13_3 N3_3 1_555 1_555
C19_3 N7_3 1_555 1_555
C21_3 N7_3 1_555 1_555
C22_3 C23_3 1_555 1_555
Zn4_2 I3_4 1_555 1_555
I4_4 Zn4_2 1_555 1_555
C1_4 H1_4 1_555 1_555
C2_4 C1_4 1_555 1_555
H2_4 C2_4 1_555 1_555
C3_4 H3_4 1_555 1_555
C4_4 C3_4 1_555 1_555
H4_4 C4_4 1_555 1_555
C5_4 C2_4 1_555 1_555
C6_4 C5_4 1_555 1_555
C12_4 C11_4 1_555 1_555
C15_4 H11_4 1_555 1_555
C16_4 C15_4 1_555 1_555
H12_4 C16_4 1_555 1_555
C18_4 C17_4 1_555 1_555
C25_4 H17_4 1_555 1_555
C26_4 C25_4 1_555 1_555
H18_4 C26_4 1_555 1_555
C27_4 H19_4 1_555 1_555
C28_4 C27_4 1_555 1_555
H20_4 C28_4 1_555 1_555
C29_4 C26_4 1_555 1_555
C30_4 C29_4 1_555 1_555
C31_4 H21_4 1_555 1_555
C32_4 C31_4 1_555 1_555
H22_4 C32_4 1_555 1_555
C33_4 H23_4 1_555 1_555
C34_4 C33_4 1_555 1_555
H24_4 C34_4 1_555 1_555
C35_4 C32_4 1_555 1_555
C36_4 C35_4 1_555 1_555
N1_4 Zn4_2 1_555 1_555
N4_4 C6_4 1_555 1_555
N5_4 C12_4 1_555 1_555
N6_4 C6_4 1_555 1_555
N13_2 C25_4 1_555 1_555
N14_2 C31_4 1_555 1_555
N10_4 C24_4 1_555 1_555
N11_4 C30_4 1_555 1_555
N12_4 C24_4 1_555 1_555
C1_4 N1_4 1_555 1_555
C3_4 N1_4 1_555 1_555
C4_4 C5_4 1_555 1_555
C12_4 N4_4 1_555 1_555
C16_4 C17_4 1_555 1_555
C18_4 N5_4 1_555 1_555
C18_4 N6_4 1_555 1_555
C27_4 N13_2 1_555 1_555
C28_4 C29_4 1_555 1_555
C30_4 N10_4 1_555 1_555
C33_4 N14_2 1_555 1_555
C34_4 C35_4 1_555 1_555
C36_4 N11_4 1_555 1_555
C36_4 N12_4 1_555 1_555
C7_4 H5_4 1_555 1_555
C8_4 C7_4 1_555 1_555
H6_4 C8_4 1_555 1_555
Zn1_4 I1_4 1_555 1_555
I2_4 Zn1_4 1_555 1_555
H8_4 C10_4 1_555 1_555
C13_4 H9_4 1_555 1_555
C14_4 C13_4 1_555 1_555
H10_4 C14_4 1_555 1_555
C19_4 H13_4 1_555 1_555
C20_4 C19_4 1_555 1_555
C21_4 H15_4 1_555 1_555
C22_4 C21_4 1_555 1_555
H16_4 C22_4 1_555 1_555
C23_4 C20_4 1_555 1_555
N3_4 Zn1_4 1_555 1_555
N7_4 Zn1_4 1_555 1_555
C13_4 N3_4 1_555 1_555
C19_4 N7_4 1_555 1_555
C21_4 N7_4 1_555 1_555
C22_4 C23_4 1_555 1_555
Zn2_3 I3_5 1_555 1_555
I4_5 Zn2_3 1_555 1_555
N1_5 Zn2_3 1_555 1_555
N13_3 Zn2_3 1_555 1_555
Zn3_3 I5_5 1_555 1_555
I6_5 Zn3_3 1_555 1_555
C7_5 H5_5 1_555 1_555
C8_5 C7_5 1_555 1_555
H6_5 C8_5 1_555 1_555
C9_5 H7_5 1_555 1_555
N2_5 Zn3_3 1_555 1_555
N14_3 Zn3_3 1_555 1_555
C7_5 N2_5 1_555 1_555
C9_5 N2_5 1_555 1_555
Zn1_5 I1_5 1_555 1_555
I2_5 Zn1_5 1_555 1_555
C1_5 H1_5 1_555 1_555
C2_5 C1_5 1_555 1_555
H2_5 C2_5 1_555 1_555
C3_5 H3_5 1_555 1_555
C4_5 C3_5 1_555 1_555
H4_5 C4_5 1_555 1_555
C5_5 C2_5 1_555 1_555
C6_5 C5_5 1_555 1_555
H8_5 C10_5 1_555 1_555
C12_5 C11_5 1_555 1_555
C13_5 H9_5 1_555 1_555
C14_5 C13_5 1_555 1_555
H10_5 C14_5 1_555 1_555
C15_5 H11_5 1_555 1_555
C16_5 C15_5 1_555 1_555
H12_5 C16_5 1_555 1_555
C17_5 C14_5 1_555 1_555
C18_5 C17_5 1_555 1_555
C19_5 H13_5 1_555 1_555
C20_5 C19_5 1_555 1_555
H14_5 C20_5 1_555 1_555
C21_5 H15_5 1_555 1_555
C22_5 C21_5 1_555 1_555
H16_5 C22_5 1_555 1_555
C23_5 C20_5 1_555 1_555
C24_5 C23_5 1_555 1_555
C25_5 H17_5 1_555 1_555
C26_5 C25_5 1_555 1_555
H18_5 C26_5 1_555 1_555
C27_5 H19_5 1_555 1_555
C28_5 C27_5 1_555 1_555
H20_5 C28_5 1_555 1_555
C29_5 C26_5 1_555 1_555
C30_5 C29_5 1_555 1_555
C31_5 H21_5 1_555 1_555
C32_5 C31_5 1_555 1_555
H22_5 C32_5 1_555 1_555
C33_5 H23_5 1_555 1_555
C34_5 C33_5 1_555 1_555
H24_5 C34_5 1_555 1_555
C35_5 C32_5 1_555 1_555
C36_5 C35_5 1_555 1_555
N3_5 Zn1_5 1_555 1_555
N4_5 C6_5 1_555 1_555
N5_5 C12_5 1_555 1_555
N6_5 C6_5 1_555 1_555
N7_5 Zn1_5 1_555 1_555
N8_3 C25_5 1_555 1_555
N9_3 C31_5 1_555 1_555
N10_5 C24_5 1_555 1_555
N11_5 C30_5 1_555 1_555
N12_5 C24_5 1_555 1_555
Zn4_3 N8_3 1_555 1_555
Zn5_3 N9_3 1_555 1_555
C4_5 C5_5 1_555 1_555
C10_5 C11_5 1_555 1_555
C12_5 N4_5 1_555 1_555
C13_5 N3_5 1_555 1_555
C15_5 N3_5 1_555 1_555
C16_5 C17_5 1_555 1_555
C18_5 N5_5 1_555 1_555
C18_5 N6_5 1_555 1_555
C19_5 N7_5 1_555 1_555
C21_5 N7_5 1_555 1_555
C22_5 C23_5 1_555 1_555
C27_5 N8_3 1_555 1_555
C28_5 C29_5 1_555 1_555
C30_5 N10_5 1_555 1_555
C33_5 N9_3 1_555 1_555
C34_5 C35_5 1_555 1_555
C36_5 N11_5 1_555 1_555
C36_5 N12_5 1_555 1_555
Zn1_6 I1_6 1_555 1_555
Zn5_3 I5_6 1_555 1_555
I2_6 Zn1_6 1_555 1_555
C1_6 H1_6 1_555 1_555
C2_6 C1_6 1_555 1_555
H2_6 C2_6 1_555 1_555
C3_6 H3_6 1_555 1_555
C4_6 C3_6 1_555 1_555
H4_6 C4_6 1_555 1_555
C5_6 C2_6 1_555 1_555
C6_6 C5_6 1_555 1_555
C7_6 H5_6 1_555 1_555
C8_6 C7_6 1_555 1_555
H6_6 C8_6 1_555 1_555
C9_6 H7_6 1_555 1_555
C10_6 C9_6 1_555 1_555
H8_6 C10_6 1_555 1_555
C11_6 C8_6 1_555 1_555
C12_6 C11_6 1_555 1_555
C13_6 H9_6 1_555 1_555
C14_6 C13_6 1_555 1_555
H10_6 C14_6 1_555 1_555
C15_6 H11_6 1_555 1_555
C16_6 C15_6 1_555 1_555
H12_6 C16_6 1_555 1_555
C17_6 C14_6 1_555 1_555
C18_6 C17_6 1_555 1_555
C19_6 H13_6 1_555 1_555
C20_6 C19_6 1_555 1_555
H14_6 C20_6 1_555 1_555
C21_6 H15_6 1_555 1_555
C22_6 C21_6 1_555 1_555
H16_6 C22_6 1_555 1_555
C23_6 C20_6 1_555 1_555
C24_6 C23_6 1_555 1_555
C25_6 H17_6 1_555 1_555
C26_6 C25_6 1_555 1_555
H18_6 C26_6 1_555 1_555
C27_6 H19_6 1_555 1_555
C28_6 C27_6 1_555 1_555
H20_6 C28_6 1_555 1_555
C29_6 C26_6 1_555 1_555
C30_6 C29_6 1_555 1_555
C31_6 H21_6 1_555 1_555
C32_6 C31_6 1_555 1_555
H22_6 C32_6 1_555 1_555
C33_6 H23_6 1_555 1_555
C34_6 C33_6 1_555 1_555
H24_6 C34_6 1_555 1_555
C35_6 C32_6 1_555 1_555
C36_6 C35_6 1_555 1_555
N2_6 Zn5_3 1_555 1_555
N3_6 Zn1_6 1_555 1_555
N4_6 C6_6 1_555 1_555
N5_6 C12_6 1_555 1_555
N6_6 C6_6 1_555 1_555
N7_6 Zn1_6 1_555 1_555
N8_4 C25_6 1_555 1_555
N14_3 C31_6 1_555 1_555
N10_6 C24_6 1_555 1_555
N11_6 C30_6 1_555 1_555
N12_6 C24_6 1_555 1_555
C4_6 C5_6 1_555 1_555
C7_6 N2_6 1_555 1_555
C9_6 N2_6 1_555 1_555
C10_6 C11_6 1_555 1_555
C12_6 N4_6 1_555 1_555
C13_6 N3_6 1_555 1_555
C15_6 N3_6 1_555 1_555
C16_6 C17_6 1_555 1_555
C18_6 N5_6 1_555 1_555
C18_6 N6_6 1_555 1_555
C19_6 N7_6 1_555 1_555
C21_6 N7_6 1_555 1_555
C22_6 C23_6 1_555 1_555
C27_6 N8_4 1_555 1_555
C28_6 C29_6 1_555 1_555
C30_6 N10_6 1_555 1_555
C33_6 N14_3 1_555 1_555
C34_6 C35_6 1_555 1_555
C36_6 N11_6 1_555 1_555
C36_6 N12_6 1_555 1_555
Zn2_4 I3_6 1_555 1_555
I4_6 Zn2_4 1_555 1_555
N1_6 Zn2_4 1_555 1_555
Zn4_3 I3_7 1_555 1_555
I4_7 Zn4_3 1_555 1_555
C1_7 H1_7 1_555 1_555
C2_7 C1_7 1_555 1_555
H2_7 C2_7 1_555 1_555
C3_7 H3_7 1_555 1_555
C4_7 C3_7 1_555 1_555
H4_7 C4_7 1_555 1_555
C5_7 C2_7 1_555 1_555
C6_7 C5_7 1_555 1_555
C7_7 H5_7 1_555 1_555
C8_7 C7_7 1_555 1_555
H6_7 C8_7 1_555 1_555
C11_7 C8_7 1_555 1_555
C12_7 C11_7 1_555 1_555
C15_7 H11_7 1_555 1_555
C16_7 C15_7 1_555 1_555
H12_7 C16_7 1_555 1_555
C18_7 C17_7 1_555 1_555
C25_7 H17_7 1_555 1_555
C26_7 C25_7 1_555 1_555
H18_7 C26_7 1_555 1_555
C27_7 H19_7 1_555 1_555
C28_7 C27_7 1_555 1_555
H20_7 C28_7 1_555 1_555
C29_7 C26_7 1_555 1_555
C30_7 C29_7 1_555 1_555
C31_7 H21_7 1_555 1_555
C32_7 C31_7 1_555 1_555
H22_7 C32_7 1_555 1_555
C33_7 H23_7 1_555 1_555
C34_7 C33_7 1_555 1_555
H24_7 C34_7 1_555 1_555
C35_7 C32_7 1_555 1_555
C36_7 C35_7 1_555 1_555
N1_7 Zn4_3 1_555 1_555
N4_7 C6_7 1_555 1_555
N5_7 C12_7 1_555 1_555
N6_7 C6_7 1_555 1_555
N13_3 C25_7 1_555 1_555
N9_4 C31_7 1_555 1_555
N10_7 C24_7 1_555 1_555
N11_7 C30_7 1_555 1_555
N12_7 C24_7 1_555 1_555
Zn5_4 N9_4 1_555 1_555
C1_7 N1_7 1_555 1_555
C3_7 N1_7 1_555 1_555
C4_7 C5_7 1_555 1_555
C12_7 N4_7 1_555 1_555
C16_7 C17_7 1_555 1_555
C18_7 N5_7 1_555 1_555
C18_7 N6_7 1_555 1_555
C27_7 N13_3 1_555 1_555
C28_7 C29_7 1_555 1_555
C30_7 N10_7 1_555 1_555
C33_7 N9_4 1_555 1_555
C34_7 C35_7 1_555 1_555
C36_7 N11_7 1_555 1_555
C36_7 N12_7 1_555 1_555
Zn5_4 I5_7 1_555 1_555
C9_7 H7_7 1_555 1_555
N2_7 Zn5_4 1_555 1_555
C9_7 N2_7 1_555 1_555
Zn1_7 I1_7 1_555 1_555
Zn3_4 I5_8 1_555 1_555
I2_7 Zn1_7 1_555 1_555
I6_7 Zn3_4 1_555 1_555
C9_8 H7_8 1_555 1_555
C10_7 C9_8 1_555 1_555
H8_7 C10_7 1_555 1_555
C13_7 H9_7 1_555 1_555
C14_7 C13_7 1_555 1_555
H10_7 C14_7 1_555 1_555
C19_7 H13_7 1_555 1_555
C20_7 C19_7 1_555 1_555
C21_7 H15_7 1_555 1_555
C22_7 C21_7 1_555 1_555
H16_7 C22_7 1_555 1_555
C23_7 C20_7 1_555 1_555
N2_8 Zn3_4 1_555 1_555
N3_7 Zn1_7 1_555 1_555
N7_7 Zn1_7 1_555 1_555
N14_4 Zn3_4 1_555 1_555
C9_8 N2_8 1_555 1_555
C13_7 N3_7 1_555 1_555
C19_7 N7_7 1_555 1_555
C21_7 N7_7 1_555 1_555
C22_7 C23_7 1_555 1_555
Zn4_4 I3_8 1_555 1_555
I4_8 Zn4_4 1_555 1_555
C1_8 H1_8 1_555 1_555
C2_8 C1_8 1_555 1_555
H2_8 C2_8 1_555 1_555
C3_8 H3_8 1_555 1_555
C4_8 C3_8 1_555 1_555
H4_8 C4_8 1_555 1_555
C5_8 C2_8 1_555 1_555
C6_8 C5_8 1_555 1_555
C12_8 C11_8 1_555 1_555
C15_8 H11_8 1_555 1_555
C16_8 C15_8 1_555 1_555
H12_8 C16_8 1_555 1_555
C18_8 C17_8 1_555 1_555
C25_8 H17_8 1_555 1_555
C26_8 C25_8 1_555 1_555
H18_8 C26_8 1_555 1_555
C27_8 H19_8 1_555 1_555
C28_8 C27_8 1_555 1_555
H20_8 C28_8 1_555 1_555
C29_8 C26_8 1_555 1_555
C30_8 C29_8 1_555 1_555
C31_8 H21_8 1_555 1_555
C32_8 C31_8 1_555 1_555
H22_8 C32_8 1_555 1_555
C33_8 H23_8 1_555 1_555
C34_8 C33_8 1_555 1_555
H24_8 C34_8 1_555 1_555
C35_8 C32_8 1_555 1_555
C36_8 C35_8 1_555 1_555
N1_8 Zn4_4 1_555 1_555
N4_8 C6_8 1_555 1_555
N5_8 C12_8 1_555 1_555
N6_8 C6_8 1_555 1_555
N13_4 C25_8 1_555 1_555
N14_4 C31_8 1_555 1_555
N10_8 C24_8 1_555 1_555
N11_8 C30_8 1_555 1_555
N12_8 C24_8 1_555 1_555
C1_8 N1_8 1_555 1_555
C3_8 N1_8 1_555 1_555
C4_8 C5_8 1_555 1_555
C12_8 N4_8 1_555 1_555
C16_8 C17_8 1_555 1_555
C18_8 N5_8 1_555 1_555
C18_8 N6_8 1_555 1_555
C27_8 N13_4 1_555 1_555
C28_8 C29_8 1_555 1_555
C30_8 N10_8 1_555 1_555
C33_8 N14_4 1_555 1_555
C34_8 C35_8 1_555 1_555
C36_8 N11_8 1_555 1_555
C36_8 N12_8 1_555 1_555
Zn1_8 I1_8 1_555 1_555
I2_8 Zn1_8 1_555 1_555
H8_8 C10_8 1_555 1_555
C13_8 H9_8 1_555 1_555
C14_8 C13_8 1_555 1_555
H10_8 C14_8 1_555 1_555
C19_8 H13_8 1_555 1_555
C20_8 C19_8 1_555 1_555
C21_8 H15_8 1_555 1_555
C22_8 C21_8 1_555 1_555
H16_8 C22_8 1_555 1_555
C23_8 C20_8 1_555 1_555
N3_8 Zn1_8 1_555 1_555
N7_8 Zn1_8 1_555 1_555
C13_8 N3_8 1_555 1_555
C19_8 N7_8 1_555 1_555
C21_8 N7_8 1_555 1_555
C22_8 C23_8 1_555 1_555
C7_8 H5_8 1_555 1_555
C8_8 C7_8 1_555 1_555
H6_8 C8_8 1_555 1_555

#END
