
###############################################################################
#
# This file contains modified crystal structure data generated from the
# MOF subset of the Cambridge Structural Database (CSD) v543 
# hosted by the Cambridge Crystallographic Data Centre (CCDC).
#
# This work is licensed under the Creative Commons
# Attribution-NonCommercial-ShareAlike 4.0 International License.
# To view a copy of this license, visit
# http://creativecommons.org/licenses/by-nc-sa/4.0/
# or send a letter to
# Creative Commons, PO Box 1866, Mountain View, CA 94042, USA.
#
# CIF created using the CSD Python API on 29 September 2022
# The structure has been converted into the P1 space group
# The structure has a 3D framework
# The original CSD entry CIWRAC is in the orthorhombic crystal system
# The framework has been calculated to contain at least 10.0% void space
# The void calculation uses a probe of radius 1.32A, grid spacing 0.4
#
###############################################################################

data_CIWRAC
_chemical_formula_moiety         '(C288 H192 I48 N96 Zn24)n'
_symmetry_cell_setting           triclinic
_symmetry_space_group_name_H-M   'P 1'
_symmetry_Int_Tables_number      1
_space_group_name_Hall           'P 1'
loop_
_symmetry_equiv_pos_site_id
_symmetry_equiv_pos_as_xyz
1 x,y,z
_cell_length_a                   27.596(6)
_cell_length_b                   13.690(3)
_cell_length_c                   45.419(9)
_cell_angle_alpha                90
_cell_angle_beta                 90
_cell_angle_gamma                90
_cell_volume                     17158.8
loop_
_atom_site_label
_atom_site_type_symbol
_atom_site_fract_x
_atom_site_fract_y
_atom_site_fract_z
Zn3 Zn 0.52762(2) 0.13734(4) 0.090490(17)
I5 I 0.512150(18) 0.22009(4) 0.041010(13)
I6 I 0.578520(17) 0.21608(3) 0.130760(15)
H3 H 0.5519 0.0076 0.0384
N1 N 0.55745(14) 0.0021(3) 0.08175(10)
N14 N 0.46149(14) 0.1070(3) 0.10972(10)
Zn1 Zn 0.74761(2) 0.34367(4) 0.185831(12)
I1 I 0.837667(13) 0.32721(3) 0.174466(8)
I2 I 0.696373(14) 0.19124(2) 0.195547(8)
C1 C 0.5715(2) 0.9449(4) 0.10400(13)
H1 H 0.5690 0.9689 0.1236
C2 C 0.5895(2) 0.8524(4) 0.09954(13)
H2 H 0.5994 0.8136 0.1158
C3 C 0.5613(2) 0.9675(4) 0.05447(14)
C4 C 0.5786(2) 0.8756(4) 0.04893(13)
H4 H 0.5807 0.8527 0.0292
C5 C 0.59289(17) 0.8170(3) 0.07145(12)
C6 C 0.61008(17) 0.7143(3) 0.06634(11)
C10 C 0.6001(2) 0.4228(4) 0.01063(12)
H8 H 0.6157 0.3882 0.0261
C11 C 0.59229(18) 0.5231(3) 0.01306(10)
C12 C 0.60857(17) 0.5766(3) 0.03970(11)
C13 C 0.69011(18) 0.3748(4) 0.13194(11)
H9 H 0.6888 0.3055 0.1326
C14 C 0.66785(19) 0.4226(3) 0.10878(12)
H10 H 0.6517 0.3868 0.0938
C15 C 0.7150(2) 0.5192(4) 0.15264(12)
H11 H 0.7317 0.5527 0.1679
C16 C 0.69317(18) 0.5729(4) 0.13031(12)
H12 H 0.6944 0.6423 0.1304
C17 C 0.66948(17) 0.5237(3) 0.10785(10)
C18 C 0.64498(17) 0.5769(3) 0.08362(11)
C19 C 0.69467(17) 0.4351(4) 0.23507(11)
H13 H 0.6673 0.4143 0.2240
C20 C 0.68756(17) 0.4708(4) 0.26311(11)
H14 H 0.6559 0.4755 0.2711
C21 C 0.77741(17) 0.4603(3) 0.23788(10)
H15 H 0.8085 0.4582 0.2289
C22 C 0.77348(17) 0.4962(3) 0.26637(10)
H16 H 0.8013 0.5178 0.2768
C23 C 0.72760(16) 0.4998(3) 0.27937(10)
C24 C 0.72248(16) 0.5309(3) 0.31067(10)
C25 C 0.88912(18) 0.5862(3) 0.37450(10)
H17 H 0.9198 0.5751 0.3656
C26 C 0.84783(16) 0.5692(3) 0.35801(11)
H18 H 0.8502 0.5477 0.3382
C27 C 0.84441(17) 0.6313(4) 0.41470(11)
H19 H 0.8433 0.6532 0.4345
C28 C 0.80116(17) 0.6152(3) 0.39987(10)
H20 H 0.7710 0.6255 0.4094
C29 C 0.80290(15) 0.5840(3) 0.37092(10)
C30 C 0.75796(16) 0.5677(3) 0.35384(10)
C31 C 0.57887(18) 0.6102(4) 0.40597(12)
H21 H 0.5766 0.6228 0.4265
C32 C 0.62415(17) 0.5960(4) 0.39373(11)
H22 H 0.6523 0.5987 0.4058
C33 C 0.54230(19) 0.5871(4) 0.36154(13)
H23 H 0.5135 0.5829 0.3501
C34 C 0.58678(18) 0.5722(4) 0.34759(13)
H24 H 0.5882 0.5585 0.3271
C35 C 0.62842(16) 0.5778(3) 0.36404(10)
C36 C 0.67649(16) 0.5642(3) 0.35015(10)
N3 N 0.71314(14) 0.4212(3) 0.15321(9)
N4 N 0.59673(16) 0.6713(3) 0.04120(9)
N5 N 0.63221(14) 0.5260(3) 0.05982(9)
N6 N 0.63490(15) 0.6725(3) 0.08816(10)
N7 N 0.73916(14) 0.4287(3) 0.22265(8)
N8 N 0.88788(13) 0.6171(3) 0.40201(9)
N9 N 0.53851(14) 0.6070(3) 0.39028(10)
N10 N 0.76358(13) 0.5439(3) 0.32565(8)
N11 N 0.71524(13) 0.5787(3) 0.36735(8)
N12 N 0.67799(13) 0.5408(3) 0.32158(8)
Zn4 Zn 0.95053(2) 0.65261(4) 0.424500(13)
Zn5 Zn 0.47238(2) 0.63734(4) 0.409510(17)
Zn2 Zn 0.54947(2) 0.34739(4) 0.924500(13)
I3 I 0.555020(16) 0.16356(3) 0.932590(10)
I4 I 0.481650(13) 0.43159(4) 0.896440(10)
C7 C 0.55321(19) 0.5155(4) 0.96645(12)
H5 H 0.5363 0.5485 0.9512
C8 C 0.56762(19) 0.5680(4) 0.99066(12)
H6 H 0.5605 0.6357 0.9919
C9 C 0.5852(2) 0.3746(4) 0.98579(11)
H7 H 0.5915 0.3066 0.9843
N2 N 0.56202(14) 0.4188(3) 0.96338(9)
N13 N 0.61212(13) 0.3829(3) 0.90201(9)
Zn1_2 Zn 0.75239(2) 0.65633(4) 0.685831(12)
I1_2 I 0.662333(13) 0.67279(3) 0.674466(8)
I2_2 I 0.803627(14) 0.80876(2) 0.695547(8)
I3_2 I 0.944980(16) 0.83644(3) 0.432590(10)
C1_2 C 0.9285(2) 0.0551(4) 0.60400(13)
H1_2 H 0.9310 0.0311 0.6236
C2_2 C 0.9105(2) 0.1476(4) 0.59954(13)
H2_2 H 0.9006 0.1864 0.6158
C3_2 C 0.9387(2) 0.0325(4) 0.55447(14)
C4_2 C 0.9214(2) 0.1244(4) 0.54893(13)
H4_2 H 0.9193 0.1473 0.5292
C5_2 C 0.90711(17) 0.1830(3) 0.57145(12)
C6_2 C 0.88992(17) 0.2857(3) 0.56634(11)
C7_2 C 0.94679(19) 0.4845(4) 0.46645(12)
H5_2 H 0.9637 0.4515 0.4512
C8_2 C 0.93238(19) 0.4320(4) 0.49066(12)
H6_2 H 0.9395 0.3643 0.4919
C9_2 C 0.9148(2) 0.6254(4) 0.48579(11)
H7_2 H 0.9085 0.6934 0.4843
C10_2 C 0.8999(2) 0.5772(4) 0.51063(12)
H8_2 H 0.8843 0.6118 0.5261
C11_2 C 0.90771(18) 0.4769(3) 0.51306(10)
C12_2 C 0.89143(17) 0.4234(3) 0.53970(11)
C13_2 C 0.80989(18) 0.6252(4) 0.63194(11)
H9_2 H 0.8112 0.6945 0.6326
C14_2 C 0.83215(19) 0.5774(3) 0.60878(12)
H10_2 H 0.8483 0.6132 0.5938
C15_2 C 0.7850(2) 0.4808(4) 0.65264(12)
H11_2 H 0.7683 0.4473 0.6679
C16_2 C 0.80683(18) 0.4271(4) 0.63031(12)
H12_2 H 0.8056 0.3577 0.6304
C17_2 C 0.83052(17) 0.4763(3) 0.60785(10)
C18_2 C 0.85502(17) 0.4231(3) 0.58362(11)
C19_2 C 0.80533(17) 0.5649(4) 0.73507(11)
H13_2 H 0.8327 0.5857 0.7240
C20_2 C 0.81244(17) 0.5292(4) 0.76311(11)
H14_2 H 0.8441 0.5245 0.7711
C21_2 C 0.72259(17) 0.5397(3) 0.73788(10)
H15_2 H 0.6915 0.5418 0.7289
C22_2 C 0.72652(17) 0.5038(3) 0.76637(10)
H16_2 H 0.6987 0.4822 0.7768
C23_2 C 0.77240(16) 0.5002(3) 0.77937(10)
C24_2 C 0.77752(16) 0.4691(3) 0.81067(10)
C25_2 C 0.61088(18) 0.4138(3) 0.87450(10)
H17_2 H 0.5802 0.4249 0.8656
C26_2 C 0.65217(16) 0.4308(3) 0.85801(11)
H18_2 H 0.6498 0.4523 0.8382
C27_2 C 0.65559(17) 0.3687(4) 0.91470(11)
H19_2 H 0.6567 0.3468 0.9345
C28_2 C 0.69884(17) 0.3848(3) 0.89987(10)
H20_2 H 0.7290 0.3745 0.9094
C29_2 C 0.69710(15) 0.4160(3) 0.87092(10)
C30_2 C 0.74204(16) 0.4323(3) 0.85384(10)
C31_2 C 0.92113(18) 0.3898(4) 0.90597(12)
H21_2 H 0.9234 0.3772 0.9265
C32_2 C 0.87585(17) 0.4040(4) 0.89373(11)
H22_2 H 0.8477 0.4013 0.9058
C33_2 C 0.95770(19) 0.4129(4) 0.86154(13)
H23_2 H 0.9865 0.4171 0.8501
C34_2 C 0.91322(18) 0.4278(4) 0.84759(13)
H24_2 H 0.9118 0.4415 0.8271
C35_2 C 0.87158(16) 0.4222(3) 0.86404(10)
C36_2 C 0.82351(16) 0.4358(3) 0.85015(10)
N2_2 N 0.93798(14) 0.5812(3) 0.46338(9)
N3_2 N 0.78686(14) 0.5788(3) 0.65321(9)
N4_2 N 0.90327(16) 0.3287(3) 0.54120(9)
N5_2 N 0.86779(14) 0.4740(3) 0.55982(9)
N6_2 N 0.86510(15) 0.3275(3) 0.58816(10)
N7_2 N 0.76084(14) 0.5713(3) 0.72265(8)
N9_2 N 0.96149(14) 0.3930(3) 0.89028(10)
N10_2 N 0.73642(13) 0.4561(3) 0.82565(8)
N11_2 N 0.78476(13) 0.4213(3) 0.86735(8)
N12_2 N 0.82201(13) 0.4592(3) 0.82158(8)
Zn3_2 Zn 0.97238(2) 0.86266(4) 0.590490(17)
I5_2 I 0.987850(18) 0.77991(4) 0.541010(13)
I6_2 I 0.921480(17) 0.78392(3) 0.630760(15)
H3_2 H 0.9481 0.9924 0.5384
N1_2 N 0.94255(14) 0.9979(3) 0.58175(10)
I5_3 I 0.487850(18) 0.72009(4) 0.458990(13)
I6_3 I 0.421480(17) 0.71608(3) 0.369240(15)
C1_3 C 0.4285(2) 0.4449(4) 0.39600(13)
H1_3 H 0.4310 0.4689 0.3764
C2_3 C 0.4105(2) 0.3524(4) 0.40046(13)
H2_3 H 0.4006 0.3136 0.3842
C3_3 C 0.4387(2) 0.4675(4) 0.44553(14)
H3_3 H 0.4481 0.5076 0.4616
C4_3 C 0.4214(2) 0.3756(4) 0.45107(13)
H4_3 H 0.4193 0.3527 0.4708
C5_3 C 0.40711(17) 0.3170(3) 0.42855(12)
C6_3 C 0.38992(17) 0.2143(3) 0.43366(11)
C7_3 C 0.44679(19) 0.0155(4) 0.53355(12)
H5_3 H 0.4637 0.0485 0.5488
C8_3 C 0.43238(19) 0.0680(4) 0.50934(12)
H6_3 H 0.4395 0.1357 0.5081
C11_3 C 0.40771(18) 0.0231(3) 0.48694(10)
C12_3 C 0.39143(17) 0.0766(3) 0.46030(11)
C15_3 C 0.2850(2) 0.0192(4) 0.34736(12)
H11_3 H 0.2683 0.0527 0.3321
C16_3 C 0.30683(18) 0.0729(4) 0.36969(12)
H12_3 H 0.3056 0.1423 0.3696
C17_3 C 0.33052(17) 0.0237(3) 0.39215(10)
C18_3 C 0.35502(17) 0.0769(3) 0.41638(11)
H16_3 H 0.1987 0.0178 0.2232
C24_3 C 0.27752(16) 0.0309(3) 0.18933(10)
C25_3 C 0.11088(18) 0.0862(3) 0.12550(10)
H17_3 H 0.0802 0.0751 0.1344
C26_3 C 0.15217(16) 0.0692(3) 0.14199(11)
H18_3 H 0.1498 0.0477 0.1618
C27_3 C 0.15559(17) 0.1313(4) 0.08530(11)
H19_3 H 0.1567 0.1532 0.0655
C28_3 C 0.19884(17) 0.1152(3) 0.10013(10)
H20_3 H 0.2290 0.1255 0.0906
C29_3 C 0.19710(15) 0.0840(3) 0.12908(10)
C30_3 C 0.24204(16) 0.0677(3) 0.14616(10)
C31_3 C 0.42113(18) 0.1102(4) 0.09403(12)
H21_3 H 0.4234 0.1228 0.0735
C32_3 C 0.37585(17) 0.0960(4) 0.10627(11)
H22_3 H 0.3477 0.0987 0.0942
C33_3 C 0.45770(19) 0.0871(4) 0.13846(13)
H23_3 H 0.4865 0.0829 0.1499
C34_3 C 0.41322(18) 0.0722(4) 0.15241(13)
H24_3 H 0.4118 0.0585 0.1729
C35_3 C 0.37158(16) 0.0778(3) 0.13596(10)
C36_3 C 0.32351(16) 0.0642(3) 0.14985(10)
N1_3 N 0.44255(14) 0.5021(3) 0.41825(10)
N4_3 N 0.40327(16) 0.1713(3) 0.45880(9)
N5_3 N 0.36779(14) 0.0260(3) 0.44018(9)
N6_3 N 0.36510(15) 0.1725(3) 0.41184(10)
N8_2 N 0.11212(13) 0.1171(3) 0.09799(9)
N10_3 N 0.23642(13) 0.0439(3) 0.17435(8)
N11_3 N 0.28476(13) 0.0787(3) 0.13265(8)
N12_3 N 0.32201(13) 0.0408(3) 0.17842(8)
Zn4_2 Zn 0.04947(2) 0.15261(4) 0.075500(13)
I3_3 I 0.055020(16) 0.33644(3) 0.067410(10)
C9_3 C 0.0852(2) 0.1254(4) 0.01421(11)
H7_3 H 0.0915 0.1934 0.0157
N2_3 N 0.06202(14) 0.0812(3) 0.03662(9)
I4_2 I 0.018350(13) 0.56841(4) 0.396440(10)
Zn5_2 Zn 0.02762(2) 0.36266(4) 0.909510(17)
N14_2 N 0.03851(14) 0.8930(3) 0.60972(10)
Zn1_3 Zn 0.25239(2) 0.84367(4) 0.314169(12)
Zn2_2 Zn 0.45053(2) 0.84739(4) 0.575500(13)
I1_3 I 0.162333(13) 0.82721(3) 0.325534(8)
I2_3 I 0.303627(14) 0.69124(2) 0.304453(8)
I3_4 I 0.444980(16) 0.66356(3) 0.567410(10)
I4_3 I 0.518350(13) 0.93159(4) 0.603560(10)
C9_4 C 0.4148(2) 0.8746(4) 0.51421(11)
H7_4 H 0.4085 0.8066 0.5157
C10_3 C 0.3999(2) 0.9228(4) 0.48937(12)
H8_3 H 0.3843 0.8882 0.4739
C13_3 C 0.30989(18) 0.8748(4) 0.36806(11)
H9_3 H 0.3112 0.8055 0.3674
C14_3 C 0.33215(19) 0.9226(3) 0.39122(12)
H10_3 H 0.3483 0.8868 0.4062
C19_3 C 0.30533(17) 0.9351(4) 0.26493(11)
H13_3 H 0.3327 0.9143 0.2760
C20_3 C 0.31244(17) 0.9708(4) 0.23689(11)
H14_3 H 0.3441 0.9755 0.2289
C21_3 C 0.22259(17) 0.9603(3) 0.26212(10)
H15_3 H 0.1915 0.9582 0.2711
C22_3 C 0.22652(17) 0.9962(3) 0.23363(10)
C23_3 C 0.27240(16) 0.9998(3) 0.22063(10)
N2_4 N 0.43798(14) 0.9188(3) 0.53662(9)
N3_3 N 0.28686(14) 0.9212(3) 0.34679(9)
N7_3 N 0.26084(14) 0.9287(3) 0.27735(8)
N13_2 N 0.38788(13) 0.8829(3) 0.59799(9)
I5_4 I 0.012150(18) 0.27991(4) 0.958990(13)
I6_4 I 0.078520(17) 0.28392(3) 0.869240(15)
C1_4 C 0.0715(2) 0.5551(4) 0.89600(13)
H1_4 H 0.0690 0.5311 0.8764
C2_4 C 0.0895(2) 0.6476(4) 0.90046(13)
H2_4 H 0.0994 0.6864 0.8842
C3_4 C 0.0613(2) 0.5325(4) 0.94553(14)
H3_4 H 0.0519 0.4924 0.9616
C4_4 C 0.0786(2) 0.6244(4) 0.95107(13)
H4_4 H 0.0807 0.6473 0.9708
C5_4 C 0.09289(17) 0.6830(3) 0.92855(12)
C6_4 C 0.11008(17) 0.7857(3) 0.93366(11)
C11_4 C 0.09229(18) 0.9769(3) 0.98694(10)
C12_4 C 0.10857(17) 0.9234(3) 0.96030(11)
C15_4 C 0.2150(2) 0.9808(4) 0.84736(12)
H11_4 H 0.2317 0.9473 0.8321
C16_4 C 0.19317(18) 0.9271(4) 0.86969(12)
H12_4 H 0.1944 0.8577 0.8696
C17_4 C 0.16948(17) 0.9763(3) 0.89215(10)
C18_4 C 0.14498(17) 0.9231(3) 0.91638(11)
H16_4 H 0.3013 0.9822 0.7232
C24_4 C 0.22248(16) 0.9691(3) 0.68933(10)
C25_4 C 0.38912(18) 0.9138(3) 0.62550(10)
H17_4 H 0.4198 0.9249 0.6344
C26_4 C 0.34783(16) 0.9308(3) 0.64199(11)
H18_4 H 0.3502 0.9523 0.6618
C27_4 C 0.34441(17) 0.8687(4) 0.58530(11)
H19_4 H 0.3433 0.8468 0.5655
C28_4 C 0.30116(17) 0.8848(3) 0.60013(10)
H20_4 H 0.2710 0.8745 0.5906
C29_4 C 0.30290(15) 0.9160(3) 0.62908(10)
C30_4 C 0.25796(16) 0.9323(3) 0.64616(10)
C31_4 C 0.07887(18) 0.8898(4) 0.59403(12)
H21_4 H 0.0766 0.8772 0.5735
C32_4 C 0.12415(17) 0.9040(4) 0.60627(11)
H22_4 H 0.1523 0.9013 0.5942
C33_4 C 0.04230(19) 0.9129(4) 0.63846(13)
H23_4 H 0.0135 0.9171 0.6499
C34_4 C 0.08678(18) 0.9278(4) 0.65241(13)
H24_4 H 0.0882 0.9415 0.6729
C35_4 C 0.12842(16) 0.9222(3) 0.63596(10)
C36_4 C 0.17649(16) 0.9358(3) 0.64985(10)
N1_4 N 0.05745(14) 0.4979(3) 0.91825(10)
N4_4 N 0.09673(16) 0.8287(3) 0.95880(9)
N5_4 N 0.13221(14) 0.9740(3) 0.94018(9)
N6_4 N 0.13490(15) 0.8275(3) 0.91184(10)
N10_4 N 0.26358(13) 0.9561(3) 0.67435(8)
N11_4 N 0.21524(13) 0.9213(3) 0.63265(8)
N12_4 N 0.17799(13) 0.9592(3) 0.67842(8)
Zn1_4 Zn 0.24761(2) 0.15633(4) 0.814169(12)
I1_4 I 0.337667(13) 0.17279(3) 0.825534(8)
I2_4 I 0.196373(14) 0.30876(2) 0.804453(8)
C10_4 C 0.1001(2) 0.0772(4) 0.98937(12)
H8_4 H 0.1157 0.1118 0.9739
C13_4 C 0.19011(18) 0.1252(4) 0.86806(11)
H9_4 H 0.1888 0.1945 0.8674
C14_4 C 0.16785(19) 0.0774(3) 0.89122(12)
H10_4 H 0.1517 0.1132 0.9062
C19_4 C 0.19467(17) 0.0649(4) 0.76493(11)
H13_4 H 0.1673 0.0857 0.7760
C20_4 C 0.18756(17) 0.0292(4) 0.73689(11)
H14_4 H 0.1559 0.0245 0.7289
C21_4 C 0.27741(17) 0.0397(3) 0.76212(10)
H15_4 H 0.3085 0.0418 0.7711
C22_4 C 0.27348(17) 0.0038(3) 0.73363(10)
C23_4 C 0.22760(16) 0.0002(3) 0.72063(10)
N3_4 N 0.21314(14) 0.0788(3) 0.84679(9)
N7_4 N 0.23916(14) 0.0713(3) 0.77735(8)
C7_4 C 0.05321(19) 0.9845(4) 0.03355(12)
H5_4 H 0.0363 0.9515 0.0488
C8_4 C 0.06762(19) 0.9320(4) 0.00934(12)
H6_4 H 0.0605 0.8643 0.0081
I4_4 I 0.981650(13) 0.06841(4) 0.103560(10)
Zn2_3 Zn 0.45053(2) 0.65261(4) 0.075500(13)
I3_5 I 0.444980(16) 0.83644(3) 0.067410(10)
I4_5 I 0.518350(13) 0.56841(4) 0.103560(10)
C7_5 C 0.44679(19) 0.4845(4) 0.03355(12)
H5_5 H 0.4637 0.4515 0.0488
C8_5 C 0.43238(19) 0.4320(4) 0.00934(12)
H6_5 H 0.4395 0.3643 0.0081
C9_5 C 0.4148(2) 0.6254(4) 0.01421(11)
H7_5 H 0.4085 0.6934 0.0157
N2_5 N 0.43798(14) 0.5812(3) 0.03662(9)
N13_3 N 0.38788(13) 0.6171(3) 0.09799(9)
Zn1_5 Zn 0.25239(2) 0.65633(4) 0.814169(12)
I1_5 I 0.162333(13) 0.67279(3) 0.825534(8)
I2_5 I 0.303627(14) 0.80876(2) 0.804453(8)
C1_5 C 0.4285(2) 0.0551(4) 0.89600(13)
H1_5 H 0.4310 0.0311 0.8764
C2_5 C 0.4105(2) 0.1476(4) 0.90046(13)
H2_5 H 0.4006 0.1864 0.8842
C3_5 C 0.4387(2) 0.0325(4) 0.94553(14)
C4_5 C 0.4214(2) 0.1244(4) 0.95107(13)
H4_5 H 0.4193 0.1473 0.9708
C5_5 C 0.40711(17) 0.1830(3) 0.92855(12)
C6_5 C 0.38992(17) 0.2857(3) 0.93366(11)
C10_5 C 0.3999(2) 0.5772(4) 0.98937(12)
H8_5 H 0.3843 0.6118 0.9739
C11_5 C 0.40771(18) 0.4769(3) 0.98694(10)
C12_5 C 0.39143(17) 0.4234(3) 0.96030(11)
C13_5 C 0.30989(18) 0.6252(4) 0.86806(11)
H9_5 H 0.3112 0.6945 0.8674
C14_5 C 0.33215(19) 0.5774(3) 0.89122(12)
H10_5 H 0.3483 0.6132 0.9062
C15_5 C 0.2850(2) 0.4808(4) 0.84736(12)
H11_5 H 0.2683 0.4473 0.8321
C16_5 C 0.30683(18) 0.4271(4) 0.86969(12)
H12_5 H 0.3056 0.3577 0.8696
C17_5 C 0.33052(17) 0.4763(3) 0.89215(10)
C18_5 C 0.35502(17) 0.4231(3) 0.91638(11)
C19_5 C 0.30533(17) 0.5649(4) 0.76493(11)
H13_5 H 0.3327 0.5857 0.7760
C20_5 C 0.31244(17) 0.5292(4) 0.73689(11)
H14_5 H 0.3441 0.5245 0.7289
C21_5 C 0.22259(17) 0.5397(3) 0.76212(10)
H15_5 H 0.1915 0.5418 0.7711
C22_5 C 0.22652(17) 0.5038(3) 0.73363(10)
H16_5 H 0.1987 0.4822 0.7232
C23_5 C 0.27240(16) 0.5002(3) 0.72063(10)
C24_5 C 0.27752(16) 0.4691(3) 0.68933(10)
C25_5 C 0.11088(18) 0.4138(3) 0.62550(10)
H17_5 H 0.0802 0.4249 0.6344
C26_5 C 0.15217(16) 0.4308(3) 0.64199(11)
H18_5 H 0.1498 0.4523 0.6618
C27_5 C 0.15559(17) 0.3687(4) 0.58530(11)
H19_5 H 0.1567 0.3468 0.5655
C28_5 C 0.19884(17) 0.3848(3) 0.60013(10)
H20_5 H 0.2290 0.3745 0.5906
C29_5 C 0.19710(15) 0.4160(3) 0.62908(10)
C30_5 C 0.24204(16) 0.4323(3) 0.64616(10)
C31_5 C 0.42113(18) 0.3898(4) 0.59403(12)
H21_5 H 0.4234 0.3772 0.5735
C32_5 C 0.37585(17) 0.4040(4) 0.60627(11)
H22_5 H 0.3477 0.4013 0.5942
C33_5 C 0.45770(19) 0.4129(4) 0.63846(13)
H23_5 H 0.4865 0.4171 0.6499
C34_5 C 0.41322(18) 0.4278(4) 0.65241(13)
H24_5 H 0.4118 0.4415 0.6729
C35_5 C 0.37158(16) 0.4222(3) 0.63596(10)
C36_5 C 0.32351(16) 0.4358(3) 0.64985(10)
N3_5 N 0.28686(14) 0.5788(3) 0.84679(9)
N4_5 N 0.40327(16) 0.3287(3) 0.95880(9)
N5_5 N 0.36779(14) 0.4740(3) 0.94018(9)
N6_5 N 0.36510(15) 0.3275(3) 0.91184(10)
N7_5 N 0.26084(14) 0.5713(3) 0.77735(8)
N8_3 N 0.11212(13) 0.3829(3) 0.59799(9)
N9_3 N 0.46149(14) 0.3930(3) 0.60972(10)
N10_5 N 0.23642(13) 0.4561(3) 0.67435(8)
N11_5 N 0.28476(13) 0.4213(3) 0.63265(8)
N12_5 N 0.32201(13) 0.4592(3) 0.67842(8)
Zn4_3 Zn 0.04947(2) 0.34739(4) 0.575500(13)
Zn5_3 Zn 0.52762(2) 0.36266(4) 0.590490(17)
Zn3_3 Zn 0.47238(2) 0.86266(4) 0.909510(17)
I5_5 I 0.487850(18) 0.77991(4) 0.958990(13)
I6_5 I 0.421480(17) 0.78392(3) 0.869240(15)
H3_5 H 0.4481 0.9924 0.9616
N1_5 N 0.44255(14) 0.9979(3) 0.91825(10)
N14_3 N 0.53851(14) 0.8930(3) 0.89028(10)
Zn3_4 Zn 0.02762(2) 0.13734(4) 0.409510(17)
I5_6 I 0.012150(18) 0.22009(4) 0.458990(13)
I6_6 I 0.078520(17) 0.21608(3) 0.369240(15)
H3_6 H 0.0519 0.0076 0.4616
N1_6 N 0.05745(14) 0.0021(3) 0.41825(10)
Zn1_6 Zn 0.24761(2) 0.34367(4) 0.314169(12)
I1_6 I 0.337667(13) 0.32721(3) 0.325534(8)
I2_6 I 0.196373(14) 0.19124(2) 0.304453(8)
I3_6 I 0.055020(16) 0.16356(3) 0.567410(10)
C1_6 C 0.0715(2) 0.9449(4) 0.39600(13)
H1_6 H 0.0690 0.9689 0.3764
C2_6 C 0.0895(2) 0.8524(4) 0.40046(13)
H2_6 H 0.0994 0.8136 0.3842
C3_6 C 0.0613(2) 0.9675(4) 0.44553(14)
C4_6 C 0.0786(2) 0.8756(4) 0.45107(13)
H4_6 H 0.0807 0.8527 0.4708
C5_6 C 0.09289(17) 0.8170(3) 0.42855(12)
C6_6 C 0.11008(17) 0.7143(3) 0.43366(11)
C7_6 C 0.05321(19) 0.5155(4) 0.53355(12)
H5_6 H 0.0363 0.5485 0.5488
C8_6 C 0.06762(19) 0.5680(4) 0.50934(12)
H6_6 H 0.0605 0.6357 0.5081
C9_6 C 0.0852(2) 0.3746(4) 0.51421(11)
H7_6 H 0.0915 0.3066 0.5157
C10_6 C 0.1001(2) 0.4228(4) 0.48937(12)
H8_6 H 0.1157 0.3882 0.4739
C11_6 C 0.09229(18) 0.5231(3) 0.48694(10)
C12_6 C 0.10857(17) 0.5766(3) 0.46030(11)
C13_6 C 0.19011(18) 0.3748(4) 0.36806(11)
H9_6 H 0.1888 0.3055 0.3674
C14_6 C 0.16785(19) 0.4226(3) 0.39122(12)
H10_6 H 0.1517 0.3868 0.4062
C15_6 C 0.2150(2) 0.5192(4) 0.34736(12)
H11_6 H 0.2317 0.5527 0.3321
C16_6 C 0.19317(18) 0.5729(4) 0.36969(12)
H12_6 H 0.1944 0.6423 0.3696
C17_6 C 0.16948(17) 0.5237(3) 0.39215(10)
C18_6 C 0.14498(17) 0.5769(3) 0.41638(11)
C19_6 C 0.19467(17) 0.4351(4) 0.26493(11)
H13_6 H 0.1673 0.4143 0.2760
C20_6 C 0.18756(17) 0.4708(4) 0.23689(11)
H14_6 H 0.1559 0.4755 0.2289
C21_6 C 0.27741(17) 0.4603(3) 0.26212(10)
H15_6 H 0.3085 0.4582 0.2711
C22_6 C 0.27348(17) 0.4962(3) 0.23363(10)
H16_6 H 0.3013 0.5178 0.2232
C23_6 C 0.22760(16) 0.4998(3) 0.22063(10)
C24_6 C 0.22248(16) 0.5309(3) 0.18933(10)
C25_6 C 0.38912(18) 0.5862(3) 0.12550(10)
H17_6 H 0.4198 0.5751 0.1344
C26_6 C 0.34783(16) 0.5692(3) 0.14199(11)
H18_6 H 0.3502 0.5477 0.1618
C27_6 C 0.34441(17) 0.6313(4) 0.08530(11)
H19_6 H 0.3433 0.6532 0.0655
C28_6 C 0.30116(17) 0.6152(3) 0.10013(10)
H20_6 H 0.2710 0.6255 0.0906
C29_6 C 0.30290(15) 0.5840(3) 0.12908(10)
C30_6 C 0.25796(16) 0.5677(3) 0.14616(10)
C31_6 C 0.07887(18) 0.6102(4) 0.09403(12)
H21_6 H 0.0766 0.6228 0.0735
C32_6 C 0.12415(17) 0.5960(4) 0.10627(11)
H22_6 H 0.1523 0.5987 0.0942
C33_6 C 0.04230(19) 0.5871(4) 0.13846(13)
H23_6 H 0.0135 0.5829 0.1499
C34_6 C 0.08678(18) 0.5722(4) 0.15241(13)
H24_6 H 0.0882 0.5585 0.1729
C35_6 C 0.12842(16) 0.5778(3) 0.13596(10)
C36_6 C 0.17649(16) 0.5642(3) 0.14985(10)
N2_6 N 0.06202(14) 0.4188(3) 0.53662(9)
N3_6 N 0.21314(14) 0.4212(3) 0.34679(9)
N4_6 N 0.09673(16) 0.6713(3) 0.45880(9)
N5_6 N 0.13221(14) 0.5260(3) 0.44018(9)
N6_6 N 0.13490(15) 0.6725(3) 0.41184(10)
N7_6 N 0.23916(14) 0.4287(3) 0.27735(8)
N9_4 N 0.03851(14) 0.6070(3) 0.10972(10)
N10_6 N 0.26358(13) 0.5439(3) 0.17435(8)
N11_6 N 0.21524(13) 0.5787(3) 0.13265(8)
N12_6 N 0.17799(13) 0.5408(3) 0.17842(8)
I5_7 I 0.512150(18) 0.27991(4) 0.541010(13)
I6_7 I 0.578520(17) 0.28392(3) 0.630760(15)
C1_7 C 0.5715(2) 0.5551(4) 0.60400(13)
H1_7 H 0.5690 0.5311 0.6236
C2_7 C 0.5895(2) 0.6476(4) 0.59954(13)
H2_7 H 0.5994 0.6864 0.6158
C3_7 C 0.5613(2) 0.5325(4) 0.55447(14)
H3_7 H 0.5519 0.4924 0.5384
C4_7 C 0.5786(2) 0.6244(4) 0.54893(13)
H4_7 H 0.5807 0.6473 0.5292
C5_7 C 0.59289(17) 0.6830(3) 0.57145(12)
C6_7 C 0.61008(17) 0.7857(3) 0.56634(11)
C7_7 C 0.55321(19) 0.9845(4) 0.46645(12)
H5_7 H 0.5363 0.9515 0.4512
C8_7 C 0.56762(19) 0.9320(4) 0.49066(12)
H6_7 H 0.5605 0.8643 0.4919
C11_7 C 0.59229(18) 0.9769(3) 0.51306(10)
C12_7 C 0.60857(17) 0.9234(3) 0.53970(11)
C15_7 C 0.7150(2) 0.9808(4) 0.65264(12)
H11_7 H 0.7317 0.9473 0.6679
C16_7 C 0.69317(18) 0.9271(4) 0.63031(12)
H12_7 H 0.6944 0.8577 0.6304
C17_7 C 0.66948(17) 0.9763(3) 0.60785(10)
C18_7 C 0.64498(17) 0.9231(3) 0.58362(11)
H16_7 H 0.8013 0.9822 0.7768
C24_7 C 0.72248(16) 0.9691(3) 0.81067(10)
C25_7 C 0.88912(18) 0.9138(3) 0.87450(10)
H17_7 H 0.9198 0.9249 0.8656
C26_7 C 0.84783(16) 0.9308(3) 0.85801(11)
H18_7 H 0.8502 0.9523 0.8382
C27_7 C 0.84441(17) 0.8687(4) 0.91470(11)
H19_7 H 0.8433 0.8468 0.9345
C28_7 C 0.80116(17) 0.8848(3) 0.89987(10)
H20_7 H 0.7710 0.8745 0.9094
C29_7 C 0.80290(15) 0.9160(3) 0.87092(10)
C30_7 C 0.75796(16) 0.9323(3) 0.85384(10)
C31_7 C 0.57887(18) 0.8898(4) 0.90597(12)
H21_7 H 0.5766 0.8772 0.9265
C32_7 C 0.62415(17) 0.9040(4) 0.89373(11)
H22_7 H 0.6523 0.9013 0.9058
C33_7 C 0.54230(19) 0.9129(4) 0.86154(13)
H23_7 H 0.5135 0.9171 0.8501
C34_7 C 0.58678(18) 0.9278(4) 0.84759(13)
H24_7 H 0.5882 0.9415 0.8271
C35_7 C 0.62842(16) 0.9222(3) 0.86404(10)
C36_7 C 0.67649(16) 0.9358(3) 0.85015(10)
N1_7 N 0.55745(14) 0.4979(3) 0.58175(10)
N4_7 N 0.59673(16) 0.8287(3) 0.54120(9)
N5_7 N 0.63221(14) 0.9740(3) 0.55982(9)
N6_7 N 0.63490(15) 0.8275(3) 0.58816(10)
N8_4 N 0.88788(13) 0.8829(3) 0.90201(9)
N10_7 N 0.76358(13) 0.9561(3) 0.82565(8)
N11_7 N 0.71524(13) 0.9213(3) 0.86735(8)
N12_7 N 0.67799(13) 0.9592(3) 0.82158(8)
Zn4_4 Zn 0.95053(2) 0.84739(4) 0.924500(13)
I3_7 I 0.944980(16) 0.66356(3) 0.932590(10)
C9_7 C 0.9148(2) 0.8746(4) 0.98579(11)
H7_7 H 0.9085 0.8066 0.9843
N2_7 N 0.93798(14) 0.9188(3) 0.96338(9)
N14_4 N 0.96149(14) 0.1070(3) 0.39028(10)
I4_6 I 0.981650(13) 0.43159(4) 0.603560(10)
Zn5_4 Zn 0.97238(2) 0.63734(4) 0.090490(17)
Zn1_7 Zn 0.74761(2) 0.15633(4) 0.685831(12)
Zn2_4 Zn 0.54947(2) 0.15261(4) 0.424500(13)
I1_7 I 0.837667(13) 0.17279(3) 0.674466(8)
I2_7 I 0.696373(14) 0.30876(2) 0.695547(8)
I3_8 I 0.555020(16) 0.33644(3) 0.432590(10)
I4_7 I 0.481650(13) 0.06841(4) 0.396440(10)
C9_8 C 0.5852(2) 0.1254(4) 0.48579(11)
H7_8 H 0.5915 0.1934 0.4843
C10_7 C 0.6001(2) 0.0772(4) 0.51063(12)
H8_7 H 0.6157 0.1118 0.5261
C13_7 C 0.69011(18) 0.1252(4) 0.63194(11)
H9_7 H 0.6888 0.1945 0.6326
C14_7 C 0.66785(19) 0.0774(3) 0.60878(12)
H10_7 H 0.6517 0.1132 0.5938
C19_7 C 0.69467(17) 0.0649(4) 0.73507(11)
H13_7 H 0.6673 0.0857 0.7240
C20_7 C 0.68756(17) 0.0292(4) 0.76311(11)
H14_7 H 0.6559 0.0245 0.7711
C21_7 C 0.77741(17) 0.0397(3) 0.73788(10)
H15_7 H 0.8085 0.0418 0.7289
C22_7 C 0.77348(17) 0.0038(3) 0.76637(10)
C23_7 C 0.72760(16) 0.0002(3) 0.77937(10)
N2_8 N 0.56202(14) 0.0812(3) 0.46338(9)
N3_7 N 0.71314(14) 0.0788(3) 0.65321(9)
N7_7 N 0.73916(14) 0.0713(3) 0.72265(8)
N13_4 N 0.61212(13) 0.1171(3) 0.40201(9)
I5_8 I 0.987850(18) 0.72009(4) 0.041010(13)
I6_8 I 0.921480(17) 0.71608(3) 0.130760(15)
C1_8 C 0.9285(2) 0.4449(4) 0.10400(13)
H1_8 H 0.9310 0.4689 0.1236
C2_8 C 0.9105(2) 0.3524(4) 0.09954(13)
H2_8 H 0.9006 0.3136 0.1158
C3_8 C 0.9387(2) 0.4675(4) 0.05447(14)
H3_8 H 0.9481 0.5076 0.0384
C4_8 C 0.9214(2) 0.3756(4) 0.04893(13)
H4_8 H 0.9193 0.3527 0.0292
C5_8 C 0.90711(17) 0.3170(3) 0.07145(12)
C6_8 C 0.88992(17) 0.2143(3) 0.06634(11)
C11_8 C 0.90771(18) 0.0231(3) 0.01306(10)
C12_8 C 0.89143(17) 0.0766(3) 0.03970(11)
C15_8 C 0.7850(2) 0.0192(4) 0.15264(12)
H11_8 H 0.7683 0.0527 0.1679
C16_8 C 0.80683(18) 0.0729(4) 0.13031(12)
H12_8 H 0.8056 0.1423 0.1304
C17_8 C 0.83052(17) 0.0237(3) 0.10785(10)
C18_8 C 0.85502(17) 0.0769(3) 0.08362(11)
H16_8 H 0.6987 0.0178 0.2768
C24_8 C 0.77752(16) 0.0309(3) 0.31067(10)
C25_8 C 0.61088(18) 0.0862(3) 0.37450(10)
H17_8 H 0.5802 0.0751 0.3656
C26_8 C 0.65217(16) 0.0692(3) 0.35801(11)
H18_8 H 0.6498 0.0477 0.3382
C27_8 C 0.65559(17) 0.1313(4) 0.41470(11)
H19_8 H 0.6567 0.1532 0.4345
C28_8 C 0.69884(17) 0.1152(3) 0.39987(10)
H20_8 H 0.7290 0.1255 0.4094
C29_8 C 0.69710(15) 0.0840(3) 0.37092(10)
C30_8 C 0.74204(16) 0.0677(3) 0.35384(10)
C31_8 C 0.92113(18) 0.1102(4) 0.40597(12)
H21_8 H 0.9234 0.1228 0.4265
C32_8 C 0.87585(17) 0.0960(4) 0.39373(11)
H22_8 H 0.8477 0.0987 0.4058
C33_8 C 0.95770(19) 0.0871(4) 0.36154(13)
H23_8 H 0.9865 0.0829 0.3501
C34_8 C 0.91322(18) 0.0722(4) 0.34759(13)
H24_8 H 0.9118 0.0585 0.3271
C35_8 C 0.87158(16) 0.0778(3) 0.36404(10)
C36_8 C 0.82351(16) 0.0642(3) 0.35015(10)
N1_8 N 0.94255(14) 0.5021(3) 0.08175(10)
N4_8 N 0.90327(16) 0.1713(3) 0.04120(9)
N5_8 N 0.86779(14) 0.0260(3) 0.05982(9)
N6_8 N 0.86510(15) 0.1725(3) 0.08816(10)
N10_8 N 0.73642(13) 0.0439(3) 0.32565(8)
N11_8 N 0.78476(13) 0.0787(3) 0.36735(8)
N12_8 N 0.82201(13) 0.0408(3) 0.32158(8)
I4_8 I 0.018350(13) 0.93159(4) 0.896440(10)
C7_8 C 0.94679(19) 0.0155(4) 0.96645(12)
H5_8 H 0.9637 0.0485 0.9512
C8_8 C 0.93238(19) 0.0680(4) 0.99066(12)
H6_8 H 0.9395 0.1357 0.9919
Zn1_8 Zn 0.75239(2) 0.84367(4) 0.185831(12)
I1_8 I 0.662333(13) 0.82721(3) 0.174466(8)
I2_8 I 0.803627(14) 0.69124(2) 0.195547(8)
C10_8 C 0.8999(2) 0.9228(4) 0.01063(12)
H8_8 H 0.8843 0.8882 0.0261
C13_8 C 0.80989(18) 0.8748(4) 0.13194(11)
H9_8 H 0.8112 0.8055 0.1326
C14_8 C 0.83215(19) 0.9226(3) 0.10878(12)
H10_8 H 0.8483 0.8868 0.0938
C19_8 C 0.80533(17) 0.9351(4) 0.23507(11)
H13_8 H 0.8327 0.9143 0.2240
C20_8 C 0.81244(17) 0.9708(4) 0.26311(11)
H14_8 H 0.8441 0.9755 0.2711
C21_8 C 0.72259(17) 0.9603(3) 0.23788(10)
H15_8 H 0.6915 0.9582 0.2289
C22_8 C 0.72652(17) 0.9962(3) 0.26637(10)
C23_8 C 0.77240(16) 0.9998(3) 0.27937(10)
N3_8 N 0.78686(14) 0.9212(3) 0.15321(9)
N7_8 N 0.76084(14) 0.9287(3) 0.22265(8)
loop_
_geom_bond_atom_site_label_1
_geom_bond_atom_site_label_2
_geom_bond_site_symmetry_1
_geom_bond_site_symmetry_2
Zn3 I5 1_555 1_555
I6 Zn3 1_555 1_555
N1 Zn3 1_555 1_555
N14 Zn3 1_555 1_555
Zn1 I1 1_555 1_555
I2 Zn1 1_555 1_555
C1 H1 1_555 1_555
C2 C1 1_555 1_555
H2 C2 1_555 1_555
C4 C3 1_555 1_555
H4 C4 1_555 1_555
C5 C2 1_555 1_555
C6 C5 1_555 1_555
H8 C10 1_555 1_555
C12 C11 1_555 1_555
C13 H9 1_555 1_555
C14 C13 1_555 1_555
H10 C14 1_555 1_555
C15 H11 1_555 1_555
C16 C15 1_555 1_555
H12 C16 1_555 1_555
C17 C14 1_555 1_555
C18 C17 1_555 1_555
C19 H13 1_555 1_555
C20 C19 1_555 1_555
H14 C20 1_555 1_555
C21 H15 1_555 1_555
C22 C21 1_555 1_555
H16 C22 1_555 1_555
C23 C20 1_555 1_555
C24 C23 1_555 1_555
C25 H17 1_555 1_555
C26 C25 1_555 1_555
H18 C26 1_555 1_555
C27 H19 1_555 1_555
C28 C27 1_555 1_555
H20 C28 1_555 1_555
C29 C26 1_555 1_555
C30 C29 1_555 1_555
C31 H21 1_555 1_555
C32 C31 1_555 1_555
H22 C32 1_555 1_555
C33 H23 1_555 1_555
C34 C33 1_555 1_555
H24 C34 1_555 1_555
C35 C32 1_555 1_555
C36 C35 1_555 1_555
N3 Zn1 1_555 1_555
N4 C6 1_555 1_555
N5 C12 1_555 1_555
N6 C6 1_555 1_555
N7 Zn1 1_555 1_555
N8 C25 1_555 1_555
N9 C31 1_555 1_555
N10 C24 1_555 1_555
N11 C30 1_555 1_555
N12 C24 1_555 1_555
Zn4 N8 1_555 1_555
Zn5 N9 1_555 1_555
C4 C5 1_555 1_555
C10 C11 1_555 1_555
C12 N4 1_555 1_555
C13 N3 1_555 1_555
C15 N3 1_555 1_555
C16 C17 1_555 1_555
C18 N5 1_555 1_555
C18 N6 1_555 1_555
C19 N7 1_555 1_555
C21 N7 1_555 1_555
C22 C23 1_555 1_555
C27 N8 1_555 1_555
C28 C29 1_555 1_555
C30 N10 1_555 1_555
C33 N9 1_555 1_555
C34 C35 1_555 1_555
C36 N11 1_555 1_555
C36 N12 1_555 1_555
Zn2 I3 1_555 1_555
I4 Zn2 1_555 1_555
C7 H5 1_555 1_555
C8 C7 1_555 1_555
H6 C8 1_555 1_555
C9 H7 1_555 1_555
N2 Zn2 1_555 1_555
N13 Zn2 1_555 1_555
C7 N2 1_555 1_555
C9 N2 1_555 1_555
Zn1_2 I1_2 1_555 1_555
Zn4 I3_2 1_555 1_555
I2_2 Zn1_2 1_555 1_555
C1_2 H1_2 1_555 1_555
C2_2 C1_2 1_555 1_555
H2_2 C2_2 1_555 1_555
C4_2 C3_2 1_555 1_555
H4_2 C4_2 1_555 1_555
C5_2 C2_2 1_555 1_555
C6_2 C5_2 1_555 1_555
C7_2 H5_2 1_555 1_555
C8_2 C7_2 1_555 1_555
H6_2 C8_2 1_555 1_555
C9_2 H7_2 1_555 1_555
C10_2 C9_2 1_555 1_555
H8_2 C10_2 1_555 1_555
C11_2 C8_2 1_555 1_555
C12_2 C11_2 1_555 1_555
C13_2 H9_2 1_555 1_555
C14_2 C13_2 1_555 1_555
H10_2 C14_2 1_555 1_555
C15_2 H11_2 1_555 1_555
C16_2 C15_2 1_555 1_555
H12_2 C16_2 1_555 1_555
C17_2 C14_2 1_555 1_555
C18_2 C17_2 1_555 1_555
C19_2 H13_2 1_555 1_555
C20_2 C19_2 1_555 1_555
H14_2 C20_2 1_555 1_555
C21_2 H15_2 1_555 1_555
C22_2 C21_2 1_555 1_555
H16_2 C22_2 1_555 1_555
C23_2 C20_2 1_555 1_555
C24_2 C23_2 1_555 1_555
C25_2 H17_2 1_555 1_555
C26_2 C25_2 1_555 1_555
H18_2 C26_2 1_555 1_555
C27_2 H19_2 1_555 1_555
C28_2 C27_2 1_555 1_555
H20_2 C28_2 1_555 1_555
C29_2 C26_2 1_555 1_555
C30_2 C29_2 1_555 1_555
C31_2 H21_2 1_555 1_555
C32_2 C31_2 1_555 1_555
H22_2 C32_2 1_555 1_555
C33_2 H23_2 1_555 1_555
C34_2 C33_2 1_555 1_555
H24_2 C34_2 1_555 1_555
C35_2 C32_2 1_555 1_555
C36_2 C35_2 1_555 1_555
N2_2 Zn4 1_555 1_555
N3_2 Zn1_2 1_555 1_555
N4_2 C6_2 1_555 1_555
N5_2 C12_2 1_555 1_555
N6_2 C6_2 1_555 1_555
N7_2 Zn1_2 1_555 1_555
N13 C25_2 1_555 1_555
N9_2 C31_2 1_555 1_555
N10_2 C24_2 1_555 1_555
N11_2 C30_2 1_555 1_555
N12_2 C24_2 1_555 1_555
C4_2 C5_2 1_555 1_555
C7_2 N2_2 1_555 1_555
C9_2 N2_2 1_555 1_555
C10_2 C11_2 1_555 1_555
C12_2 N4_2 1_555 1_555
C13_2 N3_2 1_555 1_555
C15_2 N3_2 1_555 1_555
C16_2 C17_2 1_555 1_555
C18_2 N5_2 1_555 1_555
C18_2 N6_2 1_555 1_555
C19_2 N7_2 1_555 1_555
C21_2 N7_2 1_555 1_555
C22_2 C23_2 1_555 1_555
C27_2 N13 1_555 1_555
C28_2 C29_2 1_555 1_555
C30_2 N10_2 1_555 1_555
C33_2 N9_2 1_555 1_555
C34_2 C35_2 1_555 1_555
C36_2 N11_2 1_555 1_555
C36_2 N12_2 1_555 1_555
Zn3_2 I5_2 1_555 1_555
I6_2 Zn3_2 1_555 1_555
N1_2 Zn3_2 1_555 1_555
Zn5 I5_3 1_555 1_555
I6_3 Zn5 1_555 1_555
C1_3 H1_3 1_555 1_555
C2_3 C1_3 1_555 1_555
H2_3 C2_3 1_555 1_555
C3_3 H3_3 1_555 1_555
C4_3 C3_3 1_555 1_555
H4_3 C4_3 1_555 1_555
C5_3 C2_3 1_555 1_555
C6_3 C5_3 1_555 1_555
C7_3 H5_3 1_555 1_555
C8_3 C7_3 1_555 1_555
H6_3 C8_3 1_555 1_555
C11_3 C8_3 1_555 1_555
C12_3 C11_3 1_555 1_555
C15_3 H11_3 1_555 1_555
C16_3 C15_3 1_555 1_555
H12_3 C16_3 1_555 1_555
C18_3 C17_3 1_555 1_555
C25_3 H17_3 1_555 1_555
C26_3 C25_3 1_555 1_555
H18_3 C26_3 1_555 1_555
C27_3 H19_3 1_555 1_555
C28_3 C27_3 1_555 1_555
H20_3 C28_3 1_555 1_555
C29_3 C26_3 1_555 1_555
C30_3 C29_3 1_555 1_555
C31_3 H21_3 1_555 1_555
C32_3 C31_3 1_555 1_555
H22_3 C32_3 1_555 1_555
C33_3 H23_3 1_555 1_555
C34_3 C33_3 1_555 1_555
H24_3 C34_3 1_555 1_555
C35_3 C32_3 1_555 1_555
C36_3 C35_3 1_555 1_555
N1_3 Zn5 1_555 1_555
N4_3 C6_3 1_555 1_555
N5_3 C12_3 1_555 1_555
N6_3 C6_3 1_555 1_555
N8_2 C25_3 1_555 1_555
N14 C31_3 1_555 1_555
N10_3 C24_3 1_555 1_555
N11_3 C30_3 1_555 1_555
N12_3 C24_3 1_555 1_555
Zn4_2 N8_2 1_555 1_555
C1_3 N1_3 1_555 1_555
C3_3 N1_3 1_555 1_555
C4_3 C5_3 1_555 1_555
C12_3 N4_3 1_555 1_555
C16_3 C17_3 1_555 1_555
C18_3 N5_3 1_555 1_555
C18_3 N6_3 1_555 1_555
C27_3 N8_2 1_555 1_555
C28_3 C29_3 1_555 1_555
C30_3 N10_3 1_555 1_555
C33_3 N14 1_555 1_555
C34_3 C35_3 1_555 1_555
C36_3 N11_3 1_555 1_555
C36_3 N12_3 1_555 1_555
Zn4_2 I3_3 1_555 1_555
C9_3 H7_3 1_555 1_555
N2_3 Zn4_2 1_555 1_555
C9_3 N2_3 1_555 1_555
Zn1_3 I1_3 1_555 1_555
Zn2_2 I3_4 1_555 1_555
I2_3 Zn1_3 1_555 1_555
I4_3 Zn2_2 1_555 1_555
C9_4 H7_4 1_555 1_555
C10_3 C9_4 1_555 1_555
H8_3 C10_3 1_555 1_555
C13_3 H9_3 1_555 1_555
C14_3 C13_3 1_555 1_555
H10_3 C14_3 1_555 1_555
C19_3 H13_3 1_555 1_555
C20_3 C19_3 1_555 1_555
H14_3 C20_3 1_555 1_555
C21_3 H15_3 1_555 1_555
C22_3 C21_3 1_555 1_555
C23_3 C20_3 1_555 1_555
N2_4 Zn2_2 1_555 1_555
N3_3 Zn1_3 1_555 1_555
N7_3 Zn1_3 1_555 1_555
N13_2 Zn2_2 1_555 1_555
C9_4 N2_4 1_555 1_555
C13_3 N3_3 1_555 1_555
C19_3 N7_3 1_555 1_555
C21_3 N7_3 1_555 1_555
C22_3 C23_3 1_555 1_555
Zn5_2 I5_4 1_555 1_555
I6_4 Zn5_2 1_555 1_555
C1_4 H1_4 1_555 1_555
C2_4 C1_4 1_555 1_555
H2_4 C2_4 1_555 1_555
C3_4 H3_4 1_555 1_555
C4_4 C3_4 1_555 1_555
H4_4 C4_4 1_555 1_555
C5_4 C2_4 1_555 1_555
C6_4 C5_4 1_555 1_555
C12_4 C11_4 1_555 1_555
C15_4 H11_4 1_555 1_555
C16_4 C15_4 1_555 1_555
H12_4 C16_4 1_555 1_555
C18_4 C17_4 1_555 1_555
C25_4 H17_4 1_555 1_555
C26_4 C25_4 1_555 1_555
H18_4 C26_4 1_555 1_555
C27_4 H19_4 1_555 1_555
C28_4 C27_4 1_555 1_555
H20_4 C28_4 1_555 1_555
C29_4 C26_4 1_555 1_555
C30_4 C29_4 1_555 1_555
C31_4 H21_4 1_555 1_555
C32_4 C31_4 1_555 1_555
H22_4 C32_4 1_555 1_555
C33_4 H23_4 1_555 1_555
C34_4 C33_4 1_555 1_555
H24_4 C34_4 1_555 1_555
C35_4 C32_4 1_555 1_555
C36_4 C35_4 1_555 1_555
N1_4 Zn5_2 1_555 1_555
N4_4 C6_4 1_555 1_555
N5_4 C12_4 1_555 1_555
N6_4 C6_4 1_555 1_555
N13_2 C25_4 1_555 1_555
N14_2 C31_4 1_555 1_555
N10_4 C24_4 1_555 1_555
N11_4 C30_4 1_555 1_555
N12_4 C24_4 1_555 1_555
C1_4 N1_4 1_555 1_555
C3_4 N1_4 1_555 1_555
C4_4 C5_4 1_555 1_555
C12_4 N4_4 1_555 1_555
C16_4 C17_4 1_555 1_555
C18_4 N5_4 1_555 1_555
C18_4 N6_4 1_555 1_555
C27_4 N13_2 1_555 1_555
C28_4 C29_4 1_555 1_555
C30_4 N10_4 1_555 1_555
C33_4 N14_2 1_555 1_555
C34_4 C35_4 1_555 1_555
C36_4 N11_4 1_555 1_555
C36_4 N12_4 1_555 1_555
Zn1_4 I1_4 1_555 1_555
I2_4 Zn1_4 1_555 1_555
H8_4 C10_4 1_555 1_555
C13_4 H9_4 1_555 1_555
C14_4 C13_4 1_555 1_555
H10_4 C14_4 1_555 1_555
C19_4 H13_4 1_555 1_555
C20_4 C19_4 1_555 1_555
H14_4 C20_4 1_555 1_555
C21_4 H15_4 1_555 1_555
C22_4 C21_4 1_555 1_555
C23_4 C20_4 1_555 1_555
N3_4 Zn1_4 1_555 1_555
N7_4 Zn1_4 1_555 1_555
C13_4 N3_4 1_555 1_555
C19_4 N7_4 1_555 1_555
C21_4 N7_4 1_555 1_555
C22_4 C23_4 1_555 1_555
C7_4 H5_4 1_555 1_555
C8_4 C7_4 1_555 1_555
H6_4 C8_4 1_555 1_555
Zn2_3 I3_5 1_555 1_555
I4_5 Zn2_3 1_555 1_555
C7_5 H5_5 1_555 1_555
C8_5 C7_5 1_555 1_555
H6_5 C8_5 1_555 1_555
C9_5 H7_5 1_555 1_555
N2_5 Zn2_3 1_555 1_555
N13_3 Zn2_3 1_555 1_555
C7_5 N2_5 1_555 1_555
C9_5 N2_5 1_555 1_555
Zn1_5 I1_5 1_555 1_555
I2_5 Zn1_5 1_555 1_555
C1_5 H1_5 1_555 1_555
C2_5 C1_5 1_555 1_555
H2_5 C2_5 1_555 1_555
C4_5 C3_5 1_555 1_555
H4_5 C4_5 1_555 1_555
C5_5 C2_5 1_555 1_555
C6_5 C5_5 1_555 1_555
H8_5 C10_5 1_555 1_555
C12_5 C11_5 1_555 1_555
C13_5 H9_5 1_555 1_555
C14_5 C13_5 1_555 1_555
H10_5 C14_5 1_555 1_555
C15_5 H11_5 1_555 1_555
C16_5 C15_5 1_555 1_555
H12_5 C16_5 1_555 1_555
C17_5 C14_5 1_555 1_555
C18_5 C17_5 1_555 1_555
C19_5 H13_5 1_555 1_555
C20_5 C19_5 1_555 1_555
H14_5 C20_5 1_555 1_555
C21_5 H15_5 1_555 1_555
C22_5 C21_5 1_555 1_555
H16_5 C22_5 1_555 1_555
C23_5 C20_5 1_555 1_555
C24_5 C23_5 1_555 1_555
C25_5 H17_5 1_555 1_555
C26_5 C25_5 1_555 1_555
H18_5 C26_5 1_555 1_555
C27_5 H19_5 1_555 1_555
C28_5 C27_5 1_555 1_555
H20_5 C28_5 1_555 1_555
C29_5 C26_5 1_555 1_555
C30_5 C29_5 1_555 1_555
C31_5 H21_5 1_555 1_555
C32_5 C31_5 1_555 1_555
H22_5 C32_5 1_555 1_555
C33_5 H23_5 1_555 1_555
C34_5 C33_5 1_555 1_555
H24_5 C34_5 1_555 1_555
C35_5 C32_5 1_555 1_555
C36_5 C35_5 1_555 1_555
N3_5 Zn1_5 1_555 1_555
N4_5 C6_5 1_555 1_555
N5_5 C12_5 1_555 1_555
N6_5 C6_5 1_555 1_555
N7_5 Zn1_5 1_555 1_555
N8_3 C25_5 1_555 1_555
N9_3 C31_5 1_555 1_555
N10_5 C24_5 1_555 1_555
N11_5 C30_5 1_555 1_555
N12_5 C24_5 1_555 1_555
Zn4_3 N8_3 1_555 1_555
Zn5_3 N9_3 1_555 1_555
C4_5 C5_5 1_555 1_555
C10_5 C11_5 1_555 1_555
C12_5 N4_5 1_555 1_555
C13_5 N3_5 1_555 1_555
C15_5 N3_5 1_555 1_555
C16_5 C17_5 1_555 1_555
C18_5 N5_5 1_555 1_555
C18_5 N6_5 1_555 1_555
C19_5 N7_5 1_555 1_555
C21_5 N7_5 1_555 1_555
C22_5 C23_5 1_555 1_555
C27_5 N8_3 1_555 1_555
C28_5 C29_5 1_555 1_555
C30_5 N10_5 1_555 1_555
C33_5 N9_3 1_555 1_555
C34_5 C35_5 1_555 1_555
C36_5 N11_5 1_555 1_555
C36_5 N12_5 1_555 1_555
Zn3_3 I5_5 1_555 1_555
I6_5 Zn3_3 1_555 1_555
N1_5 Zn3_3 1_555 1_555
N14_3 Zn3_3 1_555 1_555
Zn3_4 I5_6 1_555 1_555
I6_6 Zn3_4 1_555 1_555
N1_6 Zn3_4 1_555 1_555
Zn1_6 I1_6 1_555 1_555
Zn4_3 I3_6 1_555 1_555
I2_6 Zn1_6 1_555 1_555
C1_6 H1_6 1_555 1_555
C2_6 C1_6 1_555 1_555
H2_6 C2_6 1_555 1_555
C4_6 C3_6 1_555 1_555
H4_6 C4_6 1_555 1_555
C5_6 C2_6 1_555 1_555
C6_6 C5_6 1_555 1_555
C7_6 H5_6 1_555 1_555
C8_6 C7_6 1_555 1_555
H6_6 C8_6 1_555 1_555
C9_6 H7_6 1_555 1_555
C10_6 C9_6 1_555 1_555
H8_6 C10_6 1_555 1_555
C11_6 C8_6 1_555 1_555
C12_6 C11_6 1_555 1_555
C13_6 H9_6 1_555 1_555
C14_6 C13_6 1_555 1_555
H10_6 C14_6 1_555 1_555
C15_6 H11_6 1_555 1_555
C16_6 C15_6 1_555 1_555
H12_6 C16_6 1_555 1_555
C17_6 C14_6 1_555 1_555
C18_6 C17_6 1_555 1_555
C19_6 H13_6 1_555 1_555
C20_6 C19_6 1_555 1_555
H14_6 C20_6 1_555 1_555
C21_6 H15_6 1_555 1_555
C22_6 C21_6 1_555 1_555
H16_6 C22_6 1_555 1_555
C23_6 C20_6 1_555 1_555
C24_6 C23_6 1_555 1_555
C25_6 H17_6 1_555 1_555
C26_6 C25_6 1_555 1_555
H18_6 C26_6 1_555 1_555
C27_6 H19_6 1_555 1_555
C28_6 C27_6 1_555 1_555
H20_6 C28_6 1_555 1_555
C29_6 C26_6 1_555 1_555
C30_6 C29_6 1_555 1_555
C31_6 H21_6 1_555 1_555
C32_6 C31_6 1_555 1_555
H22_6 C32_6 1_555 1_555
C33_6 H23_6 1_555 1_555
C34_6 C33_6 1_555 1_555
H24_6 C34_6 1_555 1_555
C35_6 C32_6 1_555 1_555
C36_6 C35_6 1_555 1_555
N2_6 Zn4_3 1_555 1_555
N3_6 Zn1_6 1_555 1_555
N4_6 C6_6 1_555 1_555
N5_6 C12_6 1_555 1_555
N6_6 C6_6 1_555 1_555
N7_6 Zn1_6 1_555 1_555
N13_3 C25_6 1_555 1_555
N9_4 C31_6 1_555 1_555
N10_6 C24_6 1_555 1_555
N11_6 C30_6 1_555 1_555
N12_6 C24_6 1_555 1_555
C4_6 C5_6 1_555 1_555
C7_6 N2_6 1_555 1_555
C9_6 N2_6 1_555 1_555
C10_6 C11_6 1_555 1_555
C12_6 N4_6 1_555 1_555
C13_6 N3_6 1_555 1_555
C15_6 N3_6 1_555 1_555
C16_6 C17_6 1_555 1_555
C18_6 N5_6 1_555 1_555
C18_6 N6_6 1_555 1_555
C19_6 N7_6 1_555 1_555
C21_6 N7_6 1_555 1_555
C22_6 C23_6 1_555 1_555
C27_6 N13_3 1_555 1_555
C28_6 C29_6 1_555 1_555
C30_6 N10_6 1_555 1_555
C33_6 N9_4 1_555 1_555
C34_6 C35_6 1_555 1_555
C36_6 N11_6 1_555 1_555
C36_6 N12_6 1_555 1_555
Zn5_3 I5_7 1_555 1_555
I6_7 Zn5_3 1_555 1_555
C1_7 H1_7 1_555 1_555
C2_7 C1_7 1_555 1_555
H2_7 C2_7 1_555 1_555
C3_7 H3_7 1_555 1_555
C4_7 C3_7 1_555 1_555
H4_7 C4_7 1_555 1_555
C5_7 C2_7 1_555 1_555
C6_7 C5_7 1_555 1_555
C7_7 H5_7 1_555 1_555
C8_7 C7_7 1_555 1_555
H6_7 C8_7 1_555 1_555
C11_7 C8_7 1_555 1_555
C12_7 C11_7 1_555 1_555
C15_7 H11_7 1_555 1_555
C16_7 C15_7 1_555 1_555
H12_7 C16_7 1_555 1_555
C18_7 C17_7 1_555 1_555
C25_7 H17_7 1_555 1_555
C26_7 C25_7 1_555 1_555
H18_7 C26_7 1_555 1_555
C27_7 H19_7 1_555 1_555
C28_7 C27_7 1_555 1_555
H20_7 C28_7 1_555 1_555
C29_7 C26_7 1_555 1_555
C30_7 C29_7 1_555 1_555
C31_7 H21_7 1_555 1_555
C32_7 C31_7 1_555 1_555
H22_7 C32_7 1_555 1_555
C33_7 H23_7 1_555 1_555
C34_7 C33_7 1_555 1_555
H24_7 C34_7 1_555 1_555
C35_7 C32_7 1_555 1_555
C36_7 C35_7 1_555 1_555
N1_7 Zn5_3 1_555 1_555
N4_7 C6_7 1_555 1_555
N5_7 C12_7 1_555 1_555
N6_7 C6_7 1_555 1_555
N8_4 C25_7 1_555 1_555
N14_3 C31_7 1_555 1_555
N10_7 C24_7 1_555 1_555
N11_7 C30_7 1_555 1_555
N12_7 C24_7 1_555 1_555
Zn4_4 N8_4 1_555 1_555
C1_7 N1_7 1_555 1_555
C3_7 N1_7 1_555 1_555
C4_7 C5_7 1_555 1_555
C12_7 N4_7 1_555 1_555
C16_7 C17_7 1_555 1_555
C18_7 N5_7 1_555 1_555
C18_7 N6_7 1_555 1_555
C27_7 N8_4 1_555 1_555
C28_7 C29_7 1_555 1_555
C30_7 N10_7 1_555 1_555
C33_7 N14_3 1_555 1_555
C34_7 C35_7 1_555 1_555
C36_7 N11_7 1_555 1_555
C36_7 N12_7 1_555 1_555
Zn4_4 I3_7 1_555 1_555
C9_7 H7_7 1_555 1_555
N2_7 Zn4_4 1_555 1_555
C9_7 N2_7 1_555 1_555
Zn1_7 I1_7 1_555 1_555
Zn2_4 I3_8 1_555 1_555
I2_7 Zn1_7 1_555 1_555
I4_7 Zn2_4 1_555 1_555
C9_8 H7_8 1_555 1_555
C10_7 C9_8 1_555 1_555
H8_7 C10_7 1_555 1_555
C13_7 H9_7 1_555 1_555
C14_7 C13_7 1_555 1_555
H10_7 C14_7 1_555 1_555
C19_7 H13_7 1_555 1_555
C20_7 C19_7 1_555 1_555
H14_7 C20_7 1_555 1_555
C21_7 H15_7 1_555 1_555
C22_7 C21_7 1_555 1_555
C23_7 C20_7 1_555 1_555
N2_8 Zn2_4 1_555 1_555
N3_7 Zn1_7 1_555 1_555
N7_7 Zn1_7 1_555 1_555
N13_4 Zn2_4 1_555 1_555
C9_8 N2_8 1_555 1_555
C13_7 N3_7 1_555 1_555
C19_7 N7_7 1_555 1_555
C21_7 N7_7 1_555 1_555
C22_7 C23_7 1_555 1_555
Zn5_4 I5_8 1_555 1_555
I6_8 Zn5_4 1_555 1_555
C1_8 H1_8 1_555 1_555
C2_8 C1_8 1_555 1_555
H2_8 C2_8 1_555 1_555
C3_8 H3_8 1_555 1_555
C4_8 C3_8 1_555 1_555
H4_8 C4_8 1_555 1_555
C5_8 C2_8 1_555 1_555
C6_8 C5_8 1_555 1_555
C12_8 C11_8 1_555 1_555
C15_8 H11_8 1_555 1_555
C16_8 C15_8 1_555 1_555
H12_8 C16_8 1_555 1_555
C18_8 C17_8 1_555 1_555
C25_8 H17_8 1_555 1_555
C26_8 C25_8 1_555 1_555
H18_8 C26_8 1_555 1_555
C27_8 H19_8 1_555 1_555
C28_8 C27_8 1_555 1_555
H20_8 C28_8 1_555 1_555
C29_8 C26_8 1_555 1_555
C30_8 C29_8 1_555 1_555
C31_8 H21_8 1_555 1_555
C32_8 C31_8 1_555 1_555
H22_8 C32_8 1_555 1_555
C33_8 H23_8 1_555 1_555
C34_8 C33_8 1_555 1_555
H24_8 C34_8 1_555 1_555
C35_8 C32_8 1_555 1_555
C36_8 C35_8 1_555 1_555
N1_8 Zn5_4 1_555 1_555
N4_8 C6_8 1_555 1_555
N5_8 C12_8 1_555 1_555
N6_8 C6_8 1_555 1_555
N13_4 C25_8 1_555 1_555
N14_4 C31_8 1_555 1_555
N10_8 C24_8 1_555 1_555
N11_8 C30_8 1_555 1_555
N12_8 C24_8 1_555 1_555
C1_8 N1_8 1_555 1_555
C3_8 N1_8 1_555 1_555
C4_8 C5_8 1_555 1_555
C12_8 N4_8 1_555 1_555
C16_8 C17_8 1_555 1_555
C18_8 N5_8 1_555 1_555
C18_8 N6_8 1_555 1_555
C27_8 N13_4 1_555 1_555
C28_8 C29_8 1_555 1_555
C30_8 N10_8 1_555 1_555
C33_8 N14_4 1_555 1_555
C34_8 C35_8 1_555 1_555
C36_8 N11_8 1_555 1_555
C36_8 N12_8 1_555 1_555
C7_8 H5_8 1_555 1_555
C8_8 C7_8 1_555 1_555
H6_8 C8_8 1_555 1_555
Zn1_8 I1_8 1_555 1_555
I2_8 Zn1_8 1_555 1_555
H8_8 C10_8 1_555 1_555
C13_8 H9_8 1_555 1_555
C14_8 C13_8 1_555 1_555
H10_8 C14_8 1_555 1_555
C19_8 H13_8 1_555 1_555
C20_8 C19_8 1_555 1_555
H14_8 C20_8 1_555 1_555
C21_8 H15_8 1_555 1_555
C22_8 C21_8 1_555 1_555
C23_8 C20_8 1_555 1_555
N3_8 Zn1_8 1_555 1_555
N7_8 Zn1_8 1_555 1_555
C13_8 N3_8 1_555 1_555
C19_8 N7_8 1_555 1_555
C21_8 N7_8 1_555 1_555
C22_8 C23_8 1_555 1_555

#END
