
###############################################################################
#
# This file contains modified crystal structure data generated from the
# MOF subset of the Cambridge Structural Database (CSD) v543 
# hosted by the Cambridge Crystallographic Data Centre (CCDC).
#
# This work is licensed under the Creative Commons
# Attribution-NonCommercial-ShareAlike 4.0 International License.
# To view a copy of this license, visit
# http://creativecommons.org/licenses/by-nc-sa/4.0/
# or send a letter to
# Creative Commons, PO Box 1866, Mountain View, CA 94042, USA.
#
# CIF created using the CSD Python API on 29 September 2022
# The structure has been converted into the P1 space group
# The structure has a 3D framework
# The original CSD entry CIWREG is in the orthorhombic crystal system
# The framework has been calculated to contain at least 10.0% void space
# The void calculation uses a probe of radius 1.32A, grid spacing 0.4
#
###############################################################################

data_CIWREG
_chemical_formula_moiety         '(C288 H192 I48 N96 Zn24)n'
_symmetry_cell_setting           triclinic
_symmetry_space_group_name_H-M   'P 1'
_symmetry_Int_Tables_number      1
_space_group_name_Hall           'P 1'
loop_
_symmetry_equiv_pos_site_id
_symmetry_equiv_pos_as_xyz
1 x,y,z
_cell_length_a                   27.123(4)
_cell_length_b                   13.6817(18)
_cell_length_c                   45.995(6)
_cell_angle_alpha                90
_cell_angle_beta                 90
_cell_angle_gamma                90
_cell_volume                     17068.2
loop_
_atom_site_label
_atom_site_type_symbol
_atom_site_fract_x
_atom_site_fract_y
_atom_site_fract_z
Zn1 Zn 0.048203(15) 0.14066(3) 0.070361(9)
I2 I 0.047670(10) 0.324250(18) 0.061122(6)
C15 C 0.09461(15) 0.1131(3) 0.01222(8)
H11 H 0.1037 0.1795 0.0151
C19 C 0.10897(13) 0.0830(3) 0.12178(8)
H13 H 0.0774 0.0729 0.1302
C20 C 0.15009(13) 0.0683(3) 0.13861(8)
H14 H 0.1467 0.0501 0.1584
C21 C 0.15673(14) 0.1226(3) 0.08202(8)
H15 H 0.1590 0.1419 0.0622
C22 C 0.19951(13) 0.1075(3) 0.09739(8)
H16 H 0.2306 0.1158 0.0882
C23 C 0.19678(13) 0.0801(2) 0.12646(7)
C24 C 0.24150(13) 0.0644(2) 0.14406(7)
C25 C 0.42535(13) 0.1063(3) 0.09438(8)
H17 H 0.4289 0.1178 0.0741
C26 C 0.37881(14) 0.0907(3) 0.10535(8)
H18 H 0.3509 0.0919 0.0929
C27 C 0.46063(14) 0.0862(3) 0.13942(8)
H19 H 0.4893 0.0838 0.1512
C28 C 0.41575(14) 0.0693(3) 0.15210(8)
H20 H 0.4135 0.0552 0.1723
C29 C 0.37336(13) 0.0730(2) 0.13500(7)
C30 C 0.32400(13) 0.0609(2) 0.14810(7)
H24 H 0.1968 0.0147 0.2205
C36 C 0.27663(13) 0.0268(2) 0.18706(7)
N3 N 0.06514(11) 0.0702(2) 0.03187(6)
N7 N 0.11172(11) 0.1110(2) 0.09387(6)
N8 N 0.46583(11) 0.1061(2) 0.11110(7)
N10 N 0.28513(11) 0.0758(2) 0.13104(6)
N11 N 0.32203(11) 0.0361(2) 0.17656(6)
N12 N 0.23486(11) 0.0407(2) 0.17199(6)
Zn4 Zn 0.533280(15) 0.14566(3) 0.093700(9)
I3 I 0.521480(10) 0.23233(2) 0.045060(6)
I4 I 0.578800(11) 0.22460(2) 0.135790(7)
H7 H 0.5692 0.0230 0.0429
N2 N 0.56359(11) 0.0100(2) 0.08559(6)
Zn3 Zn 0.249100(16) 0.15597(3) 0.810980(9)
I5 I 0.195950(10) 0.308470(18) 0.803780(6)
I6 I 0.341100(10) 0.16849(2) 0.821670(6)
C1 C 0.19362(14) 0.1239(3) 0.86562(8)
H1 H 0.1935 0.1933 0.8659
C2 C 0.17244(14) 0.0745(3) 0.88842(8)
H2 H 0.1581 0.1095 0.9041
C16 C 0.11247(16) 0.0647(3) 0.98783(8)
H12 H 0.1336 0.0971 0.9744
N1 N 0.21457(11) 0.0777(2) 0.84294(6)
N14 N 0.24041(11) 0.0735(2) 0.77401(6)
N13 N 0.96583(11) 0.3939(2) 0.88890(7)
Zn2 Zn 0.466720(15) 0.64566(3) 0.406300(9)
I3_2 I 0.478520(10) 0.73233(2) 0.454940(6)
I4_2 I 0.421200(11) 0.72460(2) 0.364210(7)
C3 C 0.28609(15) 0.0206(3) 0.34272(8)
H3 H 0.2717 0.0539 0.3267
C4 C 0.30682(14) 0.0748(3) 0.36482(8)
H4 H 0.3067 0.1442 0.3640
C5 C 0.32783(13) 0.0269(3) 0.38834(8)
C6 C 0.35088(13) 0.0823(3) 0.41233(8)
C7 C 0.42875(14) 0.4488(3) 0.39213(8)
H5 H 0.4355 0.4707 0.3729
C8 C 0.41141(14) 0.3550(3) 0.39615(8)
H6 H 0.4061 0.3134 0.3799
C9 C 0.42631(14) 0.4791(3) 0.44131(8)
H7_2 H 0.4308 0.5230 0.4571
C10 C 0.40957(15) 0.3857(3) 0.44699(8)
H8 H 0.4034 0.3654 0.4664
C11 C 0.40183(13) 0.3220(3) 0.42411(8)
C12 C 0.38560(13) 0.2203(3) 0.42912(8)
C13 C 0.44839(14) 0.0230(3) 0.52718(8)
H9 H 0.4697 0.0536 0.5408
C14 C 0.43280(13) 0.0760(3) 0.50349(8)
H10 H 0.4434 0.1416 0.5008
C17 C 0.40112(13) 0.0317(3) 0.48348(8)
C18 C 0.38441(13) 0.0857(3) 0.45711(8)
C31 C 0.19543(14) 0.0667(3) 0.76186(8)
H21 H 0.1676 0.0865 0.7729
C32 C 0.18812(14) 0.0320(3) 0.73394(8)
H22 H 0.1559 0.0280 0.7260
C33 C 0.27911(14) 0.0417(3) 0.75876(8)
H23 H 0.3108 0.0432 0.7676
C34 C 0.27488(13) 0.0068(3) 0.73079(8)
C35 C 0.22884(13) 0.0033(2) 0.71783(7)
N2_2 N 0.43641(11) 0.5100(2) 0.41441(6)
N4 N 0.36302(11) 0.1752(2) 0.40713(7)
N5 N 0.39664(11) 0.1800(2) 0.45490(6)
N6 N 0.36055(11) 0.0336(2) 0.43704(6)
N13_2 N 0.53417(11) 0.6061(2) 0.38890(7)
Zn1_2 Zn 0.951797(15) 0.64066(3) 0.429639(9)
Zn3_2 Zn 0.750900(16) 0.65597(3) 0.689020(9)
I2_2 I 0.952330(10) 0.824250(18) 0.438878(6)
I5_2 I 0.804050(10) 0.808470(18) 0.696220(6)
I6_2 I 0.658900(10) 0.66849(2) 0.678330(6)
C1_2 C 0.80638(14) 0.6239(3) 0.63438(8)
H1_2 H 0.8065 0.6933 0.6341
C2_2 C 0.82756(14) 0.5745(3) 0.61158(8)
H2_2 H 0.8419 0.6095 0.5959
C3_2 C 0.78609(15) 0.4794(3) 0.65728(8)
H3_2 H 0.7717 0.4461 0.6733
C4_2 C 0.80682(14) 0.4252(3) 0.63518(8)
H4_2 H 0.8067 0.3558 0.6360
C5_2 C 0.82783(13) 0.4731(3) 0.61166(8)
C6_2 C 0.85088(13) 0.4177(3) 0.58767(8)
C7_2 C 0.92875(14) 0.0512(3) 0.60787(8)
H5_2 H 0.9355 0.0293 0.6271
C8_2 C 0.91141(14) 0.1450(3) 0.60385(8)
H6_2 H 0.9061 0.1866 0.6201
C9_2 C 0.92631(14) 0.0209(3) 0.55869(8)
C10_2 C 0.90957(15) 0.1143(3) 0.55301(8)
H8_2 H 0.9034 0.1346 0.5336
C11_2 C 0.90183(13) 0.1780(3) 0.57589(8)
C12_2 C 0.88560(13) 0.2797(3) 0.57088(8)
C13_2 C 0.94839(14) 0.4770(3) 0.47282(8)
H9_2 H 0.9697 0.4464 0.4592
C14_2 C 0.93280(13) 0.4240(3) 0.49651(8)
H10_2 H 0.9434 0.3584 0.4992
C15_2 C 0.90539(15) 0.6131(3) 0.48778(8)
H11_2 H 0.8963 0.6795 0.4849
C16_2 C 0.88753(16) 0.5647(3) 0.51217(8)
H12_2 H 0.8664 0.5971 0.5256
C17_2 C 0.90112(13) 0.4683(3) 0.51652(8)
C18_2 C 0.88441(13) 0.4143(3) 0.54289(8)
C19_2 C 0.89103(13) 0.5830(3) 0.37822(8)
H13_2 H 0.9226 0.5729 0.3698
C20_2 C 0.84991(13) 0.5683(3) 0.36139(8)
H14_2 H 0.8533 0.5501 0.3416
C21_2 C 0.84327(14) 0.6226(3) 0.41798(8)
H15_2 H 0.8410 0.6419 0.4378
C22_2 C 0.80049(13) 0.6075(3) 0.40261(8)
H16_2 H 0.7694 0.6158 0.4118
C23_2 C 0.80322(13) 0.5801(2) 0.37354(7)
C24_2 C 0.75850(13) 0.5644(2) 0.35594(7)
C25_2 C 0.57465(13) 0.6063(3) 0.40562(8)
H17_2 H 0.5711 0.6178 0.4259
C26_2 C 0.62119(14) 0.5907(3) 0.39465(8)
H18_2 H 0.6491 0.5919 0.4071
C27_2 C 0.53937(14) 0.5862(3) 0.36058(8)
H19_2 H 0.5107 0.5838 0.3488
C28_2 C 0.58425(14) 0.5693(3) 0.34790(8)
H20_2 H 0.5865 0.5552 0.3277
C29_2 C 0.62664(13) 0.5730(2) 0.36500(7)
C30_2 C 0.67600(13) 0.5609(2) 0.35190(7)
C31_2 C 0.69543(14) 0.4333(3) 0.23814(8)
H21_2 H 0.6676 0.4135 0.2271
C32_2 C 0.68812(14) 0.4680(3) 0.26606(8)
H22_2 H 0.6559 0.4720 0.2740
C33_2 C 0.77911(14) 0.4583(3) 0.24124(8)
H23_2 H 0.8108 0.4568 0.2324
C34_2 C 0.77488(13) 0.4932(3) 0.26921(8)
H24_2 H 0.8032 0.5147 0.2795
C35_2 C 0.72884(13) 0.4967(2) 0.28217(7)
C36_2 C 0.72337(13) 0.5268(2) 0.31294(7)
N1_2 N 0.78543(11) 0.5777(2) 0.65706(6)
N3_2 N 0.93486(11) 0.5702(2) 0.46813(6)
N4_2 N 0.86302(11) 0.3248(2) 0.59287(7)
N5_2 N 0.89664(11) 0.3200(2) 0.54510(6)
N6_2 N 0.86055(11) 0.4664(2) 0.56296(6)
N7_2 N 0.88828(11) 0.6110(2) 0.40613(6)
N9 N 0.74041(11) 0.4265(2) 0.22599(6)
N10_2 N 0.71487(11) 0.5758(2) 0.36896(6)
N11_2 N 0.67797(11) 0.5361(2) 0.32344(6)
N12_2 N 0.76514(11) 0.5407(2) 0.32801(6)
Zn5 Zn 0.749100(16) 0.34403(3) 0.189020(9)
N14_2 N 0.75959(11) 0.5735(2) 0.72599(6)
I5_3 I 0.695950(10) 0.191530(18) 0.196220(6)
I6_3 I 0.841100(10) 0.33151(2) 0.178330(6)
C1_3 C 0.69362(14) 0.3761(3) 0.13438(8)
H1_3 H 0.6935 0.3067 0.1341
C2_3 C 0.67244(14) 0.4255(3) 0.11158(8)
H2_3 H 0.6581 0.3905 0.0959
C3_3 C 0.71391(15) 0.5206(3) 0.15728(8)
H3_3 H 0.7283 0.5539 0.1733
C4_3 C 0.69318(14) 0.5748(3) 0.13518(8)
H4_3 H 0.6933 0.6442 0.1360
C5_3 C 0.67217(13) 0.5269(3) 0.11166(8)
C6_3 C 0.64912(13) 0.5823(3) 0.08767(8)
C7_3 C 0.57125(14) 0.9488(3) 0.10787(8)
H5_3 H 0.5645 0.9707 0.1271
C8_3 C 0.58859(14) 0.8550(3) 0.10385(8)
H6_3 H 0.5939 0.8134 0.1201
C9_3 C 0.57369(14) 0.9791(3) 0.05869(8)
C10_3 C 0.59043(15) 0.8857(3) 0.05301(8)
H8_3 H 0.5966 0.8654 0.0336
C11_3 C 0.59817(13) 0.8220(3) 0.07589(8)
C12_3 C 0.61440(13) 0.7203(3) 0.07088(8)
C16_3 C 0.61247(16) 0.4353(3) 0.01217(8)
H12_3 H 0.6336 0.4029 0.0256
C17_3 C 0.59888(13) 0.5317(3) 0.01652(8)
C18_3 C 0.61559(13) 0.5857(3) 0.04289(8)
N1_3 N 0.71457(11) 0.4223(2) 0.15706(6)
N4_3 N 0.63698(11) 0.6752(2) 0.09287(7)
N5_3 N 0.60336(11) 0.6800(2) 0.04510(6)
N6_3 N 0.63945(11) 0.5336(2) 0.06296(6)
Zn1_3 Zn 0.548203(15) 0.35934(3) 0.929639(9)
I1 I 0.481256(9) 0.45422(2) 0.903122(6)
I2_3 I 0.547670(10) 0.175750(18) 0.938878(6)
C13_3 C 0.55161(14) 0.5230(3) 0.97282(8)
H9_3 H 0.5303 0.5536 0.9592
C14_3 C 0.56720(13) 0.5760(3) 0.99651(8)
H10_3 H 0.5566 0.6416 0.9992
C15_3 C 0.59461(15) 0.3869(3) 0.98778(8)
H11_3 H 0.6037 0.3205 0.9849
C19_3 C 0.60897(13) 0.4170(3) 0.87822(8)
H13_3 H 0.5774 0.4271 0.8698
C20_3 C 0.65009(13) 0.4317(3) 0.86139(8)
H14_3 H 0.6467 0.4499 0.8416
C21_3 C 0.65673(14) 0.3774(3) 0.91798(8)
H15_3 H 0.6590 0.3581 0.9378
C22_3 C 0.69951(13) 0.3925(3) 0.90261(8)
H16_3 H 0.7306 0.3842 0.9118
C23_3 C 0.69678(13) 0.4199(2) 0.87354(7)
C24_3 C 0.74150(13) 0.4356(2) 0.85594(7)
C25_3 C 0.92535(13) 0.3937(3) 0.90562(8)
H17_3 H 0.9289 0.3822 0.9259
C26_3 C 0.87881(14) 0.4093(3) 0.89465(8)
H18_3 H 0.8509 0.4081 0.9071
C27_3 C 0.96063(14) 0.4138(3) 0.86058(8)
H19_3 H 0.9893 0.4162 0.8488
C28_3 C 0.91575(14) 0.4307(3) 0.84790(8)
H20_3 H 0.9135 0.4448 0.8277
C29_3 C 0.87336(13) 0.4270(2) 0.86500(7)
C30_3 C 0.82400(13) 0.4391(2) 0.85190(7)
C31_3 C 0.80457(14) 0.5667(3) 0.73814(8)
H21_3 H 0.8324 0.5865 0.7271
C32_3 C 0.81188(14) 0.5320(3) 0.76606(8)
H22_3 H 0.8441 0.5280 0.7740
C33_3 C 0.72089(14) 0.5417(3) 0.74124(8)
H23_3 H 0.6892 0.5432 0.7324
C34_3 C 0.72512(13) 0.5068(3) 0.76921(8)
H24_3 H 0.6968 0.4853 0.7795
C35_3 C 0.77116(13) 0.5033(2) 0.78217(7)
C36_3 C 0.77663(13) 0.4732(2) 0.81294(7)
N3_3 N 0.56514(11) 0.4298(2) 0.96813(6)
N7_3 N 0.61172(11) 0.3890(2) 0.90613(6)
N10_3 N 0.78513(11) 0.4242(2) 0.86896(6)
N11_3 N 0.82203(11) 0.4639(2) 0.82344(6)
N12_3 N 0.73486(11) 0.4593(2) 0.82801(6)
C13_4 C 0.05161(14) 0.9770(3) 0.02718(8)
H9_4 H 0.0303 0.9464 0.0408
C14_4 C 0.06720(13) 0.9240(3) 0.00349(8)
H10_4 H 0.0566 0.8584 0.0008
C31_4 C 0.30457(14) 0.9333(3) 0.26186(8)
H21_4 H 0.3324 0.9135 0.2729
C32_4 C 0.31188(14) 0.9680(3) 0.23394(8)
H22_4 H 0.3441 0.9720 0.2260
C33_4 C 0.22089(14) 0.9583(3) 0.25876(8)
H23_4 H 0.1892 0.9568 0.2676
C34_4 C 0.22512(13) 0.9932(3) 0.23079(8)
C35_4 C 0.27116(13) 0.9967(2) 0.21783(7)
N9_2 N 0.25959(11) 0.9265(2) 0.27401(6)
Zn5_2 Zn 0.250900(16) 0.84403(3) 0.310980(9)
Zn1_4 Zn 0.451797(15) 0.85934(3) 0.570361(9)
I1_2 I 0.518744(9) 0.95422(2) 0.596878(6)
I2_4 I 0.452330(10) 0.675750(18) 0.561122(6)
I5_4 I 0.304050(10) 0.691530(18) 0.303780(6)
I6_4 I 0.158900(10) 0.83151(2) 0.321670(6)
C1_4 C 0.30638(14) 0.8761(3) 0.36562(8)
H1_4 H 0.3065 0.8067 0.3659
C2_4 C 0.32756(14) 0.9255(3) 0.38842(8)
H2_4 H 0.3419 0.8905 0.4041
C15_4 C 0.40539(15) 0.8869(3) 0.51222(8)
H11_4 H 0.3963 0.8205 0.5151
C16_4 C 0.38753(16) 0.9353(3) 0.48783(8)
H12_4 H 0.3664 0.9029 0.4744
C19_4 C 0.39103(13) 0.9170(3) 0.62178(8)
H13_4 H 0.4226 0.9271 0.6302
C20_4 C 0.34991(13) 0.9317(3) 0.63861(8)
H14_4 H 0.3533 0.9499 0.6584
C21_4 C 0.34327(14) 0.8774(3) 0.58202(8)
H15_4 H 0.3410 0.8581 0.5622
C22_4 C 0.30049(13) 0.8925(3) 0.59739(8)
H16_4 H 0.2694 0.8842 0.5882
C23_4 C 0.30322(13) 0.9199(2) 0.62646(7)
C24_4 C 0.25850(13) 0.9356(2) 0.64406(7)
C25_4 C 0.07465(13) 0.8937(3) 0.59438(8)
H17_4 H 0.0711 0.8822 0.5741
C26_4 C 0.12119(14) 0.9093(3) 0.60535(8)
H18_4 H 0.1491 0.9081 0.5929
C27_4 C 0.03937(14) 0.9138(3) 0.63942(8)
H19_4 H 0.0107 0.9162 0.6512
C28_4 C 0.08425(14) 0.9307(3) 0.65210(8)
H20_4 H 0.0865 0.9448 0.6723
C29_4 C 0.12664(13) 0.9270(2) 0.63500(7)
C30_4 C 0.17600(13) 0.9391(2) 0.64810(7)
H24_4 H 0.3032 0.9853 0.7205
C36_4 C 0.22337(13) 0.9732(2) 0.68706(7)
N1_4 N 0.28543(11) 0.9223(2) 0.34294(6)
N3_4 N 0.43486(11) 0.9298(2) 0.53187(6)
N7_4 N 0.38828(11) 0.8890(2) 0.59387(6)
N8_2 N 0.03417(11) 0.8939(2) 0.61110(7)
N10_4 N 0.21487(11) 0.9242(2) 0.63104(6)
N11_4 N 0.17797(11) 0.9639(2) 0.67656(6)
N12_4 N 0.26514(11) 0.9593(2) 0.67199(6)
Zn2_2 Zn 0.033280(15) 0.35434(3) 0.906300(9)
I3_3 I 0.021480(10) 0.26767(2) 0.954940(6)
I4_3 I 0.078800(11) 0.27540(2) 0.864210(7)
C3_4 C 0.21391(15) 0.9794(3) 0.84272(8)
H3_4 H 0.2283 0.9461 0.8267
C4_4 C 0.19318(14) 0.9252(3) 0.86482(8)
H4_4 H 0.1933 0.8558 0.8640
C5_4 C 0.17217(13) 0.9731(3) 0.88834(8)
C6_4 C 0.14912(13) 0.9177(3) 0.91233(8)
C7_4 C 0.07125(14) 0.5512(3) 0.89213(8)
H5_4 H 0.0645 0.5293 0.8729
C8_4 C 0.08859(14) 0.6450(3) 0.89615(8)
H6_4 H 0.0939 0.6866 0.8799
C9_4 C 0.07369(14) 0.5209(3) 0.94131(8)
H7_3 H 0.0692 0.4770 0.9571
C10_4 C 0.09043(15) 0.6143(3) 0.94699(8)
H8_4 H 0.0966 0.6346 0.9664
C11_4 C 0.09817(13) 0.6780(3) 0.92411(8)
C12_4 C 0.11440(13) 0.7797(3) 0.92912(8)
C17_4 C 0.09888(13) 0.9683(3) 0.98348(8)
C18_4 C 0.11559(13) 0.9143(3) 0.95711(8)
N2_3 N 0.06359(11) 0.4900(2) 0.91441(6)
N4_4 N 0.13698(11) 0.8248(2) 0.90713(7)
N5_4 N 0.10336(11) 0.8200(2) 0.95490(6)
N6_4 N 0.13945(11) 0.9664(2) 0.93704(6)
I1_3 I 0.981256(9) 0.04578(2) 0.096878(6)
Zn4_2 Zn 0.966720(15) 0.85434(3) 0.593700(9)
I3_4 I 0.978520(10) 0.76767(2) 0.545060(6)
I4_4 I 0.921200(11) 0.77540(2) 0.635790(7)
H7_4 H 0.9308 0.9770 0.5429
N2_4 N 0.93641(11) 0.9900(2) 0.58559(6)
I1_4 I 0.018744(9) 0.54578(2) 0.403122(6)
N13_3 N 0.03417(11) 0.6061(2) 0.11110(7)
Zn3_3 Zn 0.750900(16) 0.84403(3) 0.189020(9)
I5_5 I 0.804050(10) 0.691530(18) 0.196220(6)
I6_5 I 0.658900(10) 0.83151(2) 0.178330(6)
C1_5 C 0.80638(14) 0.8761(3) 0.13438(8)
H1_5 H 0.8065 0.8067 0.1341
C2_5 C 0.82756(14) 0.9255(3) 0.11158(8)
H2_5 H 0.8419 0.8905 0.0959
C16_5 C 0.88753(16) 0.9353(3) 0.01217(8)
H12_5 H 0.8664 0.9029 0.0256
N1_5 N 0.78543(11) 0.9223(2) 0.15706(6)
N14_3 N 0.75959(11) 0.9265(2) 0.22599(6)
Zn2_3 Zn 0.533280(15) 0.35434(3) 0.593700(9)
I3_5 I 0.521480(10) 0.26767(2) 0.545060(6)
I4_5 I 0.578800(11) 0.27540(2) 0.635790(7)
C3_5 C 0.71391(15) 0.9794(3) 0.65728(8)
H3_5 H 0.7283 0.9461 0.6733
C4_5 C 0.69318(14) 0.9252(3) 0.63518(8)
H4_5 H 0.6933 0.8558 0.6360
C5_5 C 0.67217(13) 0.9731(3) 0.61166(8)
C6_5 C 0.64912(13) 0.9177(3) 0.58767(8)
C7_5 C 0.57125(14) 0.5512(3) 0.60787(8)
H5_5 H 0.5645 0.5293 0.6271
C8_5 C 0.58859(14) 0.6450(3) 0.60385(8)
H6_5 H 0.5939 0.6866 0.6201
C9_5 C 0.57369(14) 0.5209(3) 0.55869(8)
H7_5 H 0.5692 0.4770 0.5429
C10_5 C 0.59043(15) 0.6143(3) 0.55301(8)
H8_5 H 0.5966 0.6346 0.5336
C11_5 C 0.59817(13) 0.6780(3) 0.57589(8)
C12_5 C 0.61440(13) 0.7797(3) 0.57088(8)
C13_5 C 0.55161(14) 0.9770(3) 0.47282(8)
H9_5 H 0.5303 0.9464 0.4592
C14_5 C 0.56720(13) 0.9240(3) 0.49651(8)
H10_5 H 0.5566 0.8584 0.4992
C17_5 C 0.59888(13) 0.9683(3) 0.51652(8)
C18_5 C 0.61559(13) 0.9143(3) 0.54289(8)
C31_5 C 0.80457(14) 0.9333(3) 0.23814(8)
H21_5 H 0.8324 0.9135 0.2271
C32_5 C 0.81188(14) 0.9680(3) 0.26606(8)
H22_5 H 0.8441 0.9720 0.2740
C33_5 C 0.72089(14) 0.9583(3) 0.24124(8)
H23_5 H 0.6892 0.9568 0.2324
C34_5 C 0.72512(13) 0.9932(3) 0.26921(8)
C35_5 C 0.77116(13) 0.9967(2) 0.28217(7)
N2_5 N 0.56359(11) 0.4900(2) 0.58559(6)
N4_5 N 0.63698(11) 0.8248(2) 0.59287(7)
N5_5 N 0.60336(11) 0.8200(2) 0.54510(6)
N6_5 N 0.63945(11) 0.9664(2) 0.56296(6)
N13_4 N 0.46583(11) 0.3939(2) 0.61110(7)
Zn1_5 Zn 0.048203(15) 0.35934(3) 0.570361(9)
Zn3_4 Zn 0.249100(16) 0.34403(3) 0.310980(9)
I2_5 I 0.047670(10) 0.175750(18) 0.561122(6)
I5_6 I 0.195950(10) 0.191530(18) 0.303780(6)
I6_6 I 0.341100(10) 0.33151(2) 0.321670(6)
C1_6 C 0.19362(14) 0.3761(3) 0.36562(8)
H1_6 H 0.1935 0.3067 0.3659
C2_6 C 0.17244(14) 0.4255(3) 0.38842(8)
H2_6 H 0.1581 0.3905 0.4041
C3_6 C 0.21391(15) 0.5206(3) 0.34272(8)
H3_6 H 0.2283 0.5539 0.3267
C4_6 C 0.19318(14) 0.5748(3) 0.36482(8)
H4_6 H 0.1933 0.6442 0.3640
C5_6 C 0.17217(13) 0.5269(3) 0.38834(8)
C6_6 C 0.14912(13) 0.5823(3) 0.41233(8)
C7_6 C 0.07125(14) 0.9488(3) 0.39213(8)
H5_6 H 0.0645 0.9707 0.3729
C8_6 C 0.08859(14) 0.8550(3) 0.39615(8)
H6_6 H 0.0939 0.8134 0.3799
C9_6 C 0.07369(14) 0.9791(3) 0.44131(8)
C10_6 C 0.09043(15) 0.8857(3) 0.44699(8)
H8_6 H 0.0966 0.8654 0.4664
C11_6 C 0.09817(13) 0.8220(3) 0.42411(8)
C12_6 C 0.11440(13) 0.7203(3) 0.42912(8)
C13_6 C 0.05161(14) 0.5230(3) 0.52718(8)
H9_6 H 0.0303 0.5536 0.5408
C14_6 C 0.06720(13) 0.5760(3) 0.50349(8)
H10_6 H 0.0566 0.6416 0.5008
C15_5 C 0.09461(15) 0.3869(3) 0.51222(8)
H11_5 H 0.1037 0.3205 0.5151
C16_6 C 0.11247(16) 0.4353(3) 0.48783(8)
H12_6 H 0.1336 0.4029 0.4744
C17_6 C 0.09888(13) 0.5317(3) 0.48348(8)
C18_6 C 0.11559(13) 0.5857(3) 0.45711(8)
C19_5 C 0.10897(13) 0.4170(3) 0.62178(8)
H13_5 H 0.0774 0.4271 0.6302
C20_5 C 0.15009(13) 0.4317(3) 0.63861(8)
H14_5 H 0.1467 0.4499 0.6584
C21_5 C 0.15673(14) 0.3774(3) 0.58202(8)
H15_5 H 0.1590 0.3581 0.5622
C22_5 C 0.19951(13) 0.3925(3) 0.59739(8)
H16_5 H 0.2306 0.3842 0.5882
C23_5 C 0.19678(13) 0.4199(2) 0.62646(7)
C24_5 C 0.24150(13) 0.4356(2) 0.64406(7)
C25_5 C 0.42535(13) 0.3937(3) 0.59438(8)
H17_5 H 0.4289 0.3822 0.5741
C26_5 C 0.37881(14) 0.4093(3) 0.60535(8)
H18_5 H 0.3509 0.4081 0.5929
C27_5 C 0.46063(14) 0.4138(3) 0.63942(8)
H19_5 H 0.4893 0.4162 0.6512
C28_5 C 0.41575(14) 0.4307(3) 0.65210(8)
H20_5 H 0.4135 0.4448 0.6723
C29_5 C 0.37336(13) 0.4270(2) 0.63500(7)
C30_5 C 0.32400(13) 0.4391(2) 0.64810(7)
C31_6 C 0.30457(14) 0.5667(3) 0.76186(8)
H21_6 H 0.3324 0.5865 0.7729
C32_6 C 0.31188(14) 0.5320(3) 0.73394(8)
H22_6 H 0.3441 0.5280 0.7260
C33_6 C 0.22089(14) 0.5417(3) 0.75876(8)
H23_6 H 0.1892 0.5432 0.7676
C34_6 C 0.22512(13) 0.5068(3) 0.73079(8)
H24_5 H 0.1968 0.4853 0.7205
C35_6 C 0.27116(13) 0.5033(2) 0.71783(7)
C36_5 C 0.27663(13) 0.4732(2) 0.68706(7)
N1_6 N 0.21457(11) 0.4223(2) 0.34294(6)
N3_5 N 0.06514(11) 0.4298(2) 0.53187(6)
N4_6 N 0.13698(11) 0.6752(2) 0.40713(7)
N5_6 N 0.10336(11) 0.6800(2) 0.45490(6)
N6_6 N 0.13945(11) 0.5336(2) 0.43704(6)
N7_5 N 0.11172(11) 0.3890(2) 0.59387(6)
N9_3 N 0.25959(11) 0.5735(2) 0.77401(6)
N10_5 N 0.28513(11) 0.4242(2) 0.63104(6)
N11_5 N 0.32203(11) 0.4639(2) 0.67656(6)
N12_5 N 0.23486(11) 0.4593(2) 0.67199(6)
Zn5_3 Zn 0.250900(16) 0.65597(3) 0.810980(9)
N14_4 N 0.24041(11) 0.4265(2) 0.27401(6)
Zn1_6 Zn 0.451797(15) 0.64066(3) 0.070361(9)
I1_5 I 0.518744(9) 0.54578(2) 0.096878(6)
I2_6 I 0.452330(10) 0.824250(18) 0.061122(6)
C13_7 C 0.44839(14) 0.4770(3) 0.02718(8)
H9_7 H 0.4697 0.4464 0.0408
C14_7 C 0.43280(13) 0.4240(3) 0.00349(8)
H10_7 H 0.4434 0.3584 0.0008
C15_6 C 0.40539(15) 0.6131(3) 0.01222(8)
H11_6 H 0.3963 0.6795 0.0151
C19_6 C 0.39103(13) 0.5830(3) 0.12178(8)
H13_6 H 0.4226 0.5729 0.1302
C20_6 C 0.34991(13) 0.5683(3) 0.13861(8)
H14_6 H 0.3533 0.5501 0.1584
C21_6 C 0.34327(14) 0.6226(3) 0.08202(8)
H15_6 H 0.3410 0.6419 0.0622
C22_6 C 0.30049(13) 0.6075(3) 0.09739(8)
H16_6 H 0.2694 0.6158 0.0882
C23_6 C 0.30322(13) 0.5801(2) 0.12646(7)
C24_6 C 0.25850(13) 0.5644(2) 0.14406(7)
C25_6 C 0.07465(13) 0.6063(3) 0.09438(8)
H17_6 H 0.0711 0.6178 0.0741
C26_6 C 0.12119(14) 0.5907(3) 0.10535(8)
H18_6 H 0.1491 0.5919 0.0929
C27_6 C 0.03937(14) 0.5862(3) 0.13942(8)
H19_6 H 0.0107 0.5838 0.1512
C28_6 C 0.08425(14) 0.5693(3) 0.15210(8)
H20_6 H 0.0865 0.5552 0.1723
C29_6 C 0.12664(13) 0.5730(2) 0.13500(7)
C30_6 C 0.17600(13) 0.5609(2) 0.14810(7)
C31_7 C 0.19543(14) 0.4333(3) 0.26186(8)
H21_7 H 0.1676 0.4135 0.2729
C32_7 C 0.18812(14) 0.4680(3) 0.23394(8)
H22_7 H 0.1559 0.4720 0.2260
C33_7 C 0.27911(14) 0.4583(3) 0.25876(8)
H23_7 H 0.3108 0.4568 0.2676
C34_7 C 0.27488(13) 0.4932(3) 0.23079(8)
H24_6 H 0.3032 0.5147 0.2205
C35_7 C 0.22884(13) 0.4967(2) 0.21783(7)
C36_6 C 0.22337(13) 0.5268(2) 0.18706(7)
N3_6 N 0.43486(11) 0.5702(2) 0.03187(6)
N7_6 N 0.38828(11) 0.6110(2) 0.09387(6)
N10_6 N 0.21487(11) 0.5758(2) 0.13104(6)
N11_6 N 0.17797(11) 0.5361(2) 0.17656(6)
N12_6 N 0.26514(11) 0.5407(2) 0.17199(6)
I5_7 I 0.304050(10) 0.808470(18) 0.803780(6)
I6_7 I 0.158900(10) 0.66849(2) 0.821670(6)
C1_7 C 0.30638(14) 0.6239(3) 0.86562(8)
H1_7 H 0.3065 0.6933 0.8659
C2_7 C 0.32756(14) 0.5745(3) 0.88842(8)
H2_7 H 0.3419 0.6095 0.9041
C3_7 C 0.28609(15) 0.4794(3) 0.84272(8)
H3_7 H 0.2717 0.4461 0.8267
C4_7 C 0.30682(14) 0.4252(3) 0.86482(8)
H4_7 H 0.3067 0.3558 0.8640
C5_7 C 0.32783(13) 0.4731(3) 0.88834(8)
C6_7 C 0.35088(13) 0.4177(3) 0.91233(8)
C7_7 C 0.42875(14) 0.0512(3) 0.89213(8)
H5_7 H 0.4355 0.0293 0.8729
C8_7 C 0.41141(14) 0.1450(3) 0.89615(8)
H6_7 H 0.4061 0.1866 0.8799
C9_7 C 0.42631(14) 0.0209(3) 0.94131(8)
C10_7 C 0.40957(15) 0.1143(3) 0.94699(8)
H8_7 H 0.4034 0.1346 0.9664
C11_7 C 0.40183(13) 0.1780(3) 0.92411(8)
C12_7 C 0.38560(13) 0.2797(3) 0.92912(8)
C16_7 C 0.38753(16) 0.5647(3) 0.98783(8)
H12_7 H 0.3664 0.5971 0.9744
C17_7 C 0.40112(13) 0.4683(3) 0.98348(8)
C18_7 C 0.38441(13) 0.4143(3) 0.95711(8)
N1_7 N 0.28543(11) 0.5777(2) 0.84294(6)
N4_7 N 0.36302(11) 0.3248(2) 0.90713(7)
N5_7 N 0.39664(11) 0.3200(2) 0.95490(6)
N6_7 N 0.36055(11) 0.4664(2) 0.93704(6)
I1_6 I 0.018744(9) 0.95422(2) 0.903122(6)
Zn2_4 Zn 0.966720(15) 0.64566(3) 0.093700(9)
I3_6 I 0.978520(10) 0.73233(2) 0.045060(6)
I4_6 I 0.921200(11) 0.72460(2) 0.135790(7)
C3_8 C 0.78609(15) 0.0206(3) 0.15728(8)
H3_8 H 0.7717 0.0539 0.1733
C4_8 C 0.80682(14) 0.0748(3) 0.13518(8)
H4_8 H 0.8067 0.1442 0.1360
C5_8 C 0.82783(13) 0.0269(3) 0.11166(8)
C6_8 C 0.85088(13) 0.0823(3) 0.08767(8)
C7_8 C 0.92875(14) 0.4488(3) 0.10787(8)
H5_8 H 0.9355 0.4707 0.1271
C8_8 C 0.91141(14) 0.3550(3) 0.10385(8)
H6_8 H 0.9061 0.3134 0.1201
C9_8 C 0.92631(14) 0.4791(3) 0.05869(8)
H7_6 H 0.9308 0.5230 0.0429
C10_8 C 0.90957(15) 0.3857(3) 0.05301(8)
H8_8 H 0.9034 0.3654 0.0336
C11_8 C 0.90183(13) 0.3220(3) 0.07589(8)
C12_8 C 0.88560(13) 0.2203(3) 0.07088(8)
C17_8 C 0.90112(13) 0.0317(3) 0.01652(8)
C18_8 C 0.88441(13) 0.0857(3) 0.04289(8)
N2_6 N 0.93641(11) 0.5100(2) 0.08559(6)
N4_8 N 0.86302(11) 0.1752(2) 0.09287(7)
N5_8 N 0.89664(11) 0.1800(2) 0.04510(6)
N6_8 N 0.86055(11) 0.0336(2) 0.06296(6)
C13_8 C 0.94839(14) 0.0230(3) 0.97282(8)
H9_8 H 0.9697 0.0536 0.9592
C14_8 C 0.93280(13) 0.0760(3) 0.99651(8)
H10_8 H 0.9434 0.1416 0.9992
C31_8 C 0.69543(14) 0.0667(3) 0.73814(8)
H21_8 H 0.6676 0.0865 0.7271
C32_8 C 0.68812(14) 0.0320(3) 0.76606(8)
H22_8 H 0.6559 0.0280 0.7740
C33_8 C 0.77911(14) 0.0417(3) 0.74124(8)
H23_8 H 0.8108 0.0432 0.7324
C34_8 C 0.77488(13) 0.0068(3) 0.76921(8)
C35_8 C 0.72884(13) 0.0033(2) 0.78217(7)
N9_4 N 0.74041(11) 0.0735(2) 0.72599(6)
Zn5_4 Zn 0.749100(16) 0.15597(3) 0.689020(9)
Zn1_7 Zn 0.548203(15) 0.14066(3) 0.429639(9)
I1_7 I 0.481256(9) 0.04578(2) 0.403122(6)
I2_7 I 0.547670(10) 0.324250(18) 0.438878(6)
I5_8 I 0.695950(10) 0.308470(18) 0.696220(6)
I6_8 I 0.841100(10) 0.16849(2) 0.678330(6)
C1_8 C 0.69362(14) 0.1239(3) 0.63438(8)
H1_8 H 0.6935 0.1933 0.6341
C2_8 C 0.67244(14) 0.0745(3) 0.61158(8)
H2_8 H 0.6581 0.1095 0.5959
C15_7 C 0.59461(15) 0.1131(3) 0.48778(8)
H11_7 H 0.6037 0.1795 0.4849
C16_8 C 0.61247(16) 0.0647(3) 0.51217(8)
H12_8 H 0.6336 0.0971 0.5256
C19_7 C 0.60897(13) 0.0830(3) 0.37822(8)
H13_7 H 0.5774 0.0729 0.3698
C20_7 C 0.65009(13) 0.0683(3) 0.36139(8)
H14_7 H 0.6467 0.0501 0.3416
C21_7 C 0.65673(14) 0.1226(3) 0.41798(8)
H15_7 H 0.6590 0.1419 0.4378
C22_7 C 0.69951(13) 0.1075(3) 0.40261(8)
H16_7 H 0.7306 0.1158 0.4118
C23_7 C 0.69678(13) 0.0801(2) 0.37354(7)
C24_7 C 0.74150(13) 0.0644(2) 0.35594(7)
C25_7 C 0.92535(13) 0.1063(3) 0.40562(8)
H17_7 H 0.9289 0.1178 0.4259
C26_7 C 0.87881(14) 0.0907(3) 0.39465(8)
H18_7 H 0.8509 0.0919 0.4071
C27_7 C 0.96063(14) 0.0862(3) 0.36058(8)
H19_7 H 0.9893 0.0838 0.3488
C28_7 C 0.91575(14) 0.0693(3) 0.34790(8)
H20_7 H 0.9135 0.0552 0.3277
C29_7 C 0.87336(13) 0.0730(2) 0.36500(7)
C30_7 C 0.82400(13) 0.0609(2) 0.35190(7)
H24_7 H 0.6968 0.0147 0.2795
C36_7 C 0.77663(13) 0.0268(2) 0.31294(7)
N1_8 N 0.71457(11) 0.0777(2) 0.65706(6)
N3_7 N 0.56514(11) 0.0702(2) 0.46813(6)
N7_7 N 0.61172(11) 0.1110(2) 0.40613(6)
N8_3 N 0.96583(11) 0.1061(2) 0.38890(7)
N10_7 N 0.78513(11) 0.0758(2) 0.36896(6)
N11_7 N 0.82203(11) 0.0361(2) 0.32344(6)
N12_7 N 0.73486(11) 0.0407(2) 0.32801(6)
Zn1_8 Zn 0.951797(15) 0.85934(3) 0.929639(9)
I2_8 I 0.952330(10) 0.675750(18) 0.938878(6)
C15_8 C 0.90539(15) 0.8869(3) 0.98778(8)
H11_8 H 0.8963 0.8205 0.9849
C19_8 C 0.89103(13) 0.9170(3) 0.87822(8)
H13_8 H 0.9226 0.9271 0.8698
C20_8 C 0.84991(13) 0.9317(3) 0.86139(8)
H14_8 H 0.8533 0.9499 0.8416
C21_8 C 0.84327(14) 0.8774(3) 0.91798(8)
H15_8 H 0.8410 0.8581 0.9378
C22_8 C 0.80049(13) 0.8925(3) 0.90261(8)
H16_8 H 0.7694 0.8842 0.9118
C23_8 C 0.80322(13) 0.9199(2) 0.87354(7)
C24_8 C 0.75850(13) 0.9356(2) 0.85594(7)
C25_8 C 0.57465(13) 0.8937(3) 0.90562(8)
H17_8 H 0.5711 0.8822 0.9259
C26_8 C 0.62119(14) 0.9093(3) 0.89465(8)
H18_8 H 0.6491 0.9081 0.9071
C27_8 C 0.53937(14) 0.9138(3) 0.86058(8)
H19_8 H 0.5107 0.9162 0.8488
C28_8 C 0.58425(14) 0.9307(3) 0.84790(8)
H20_8 H 0.5865 0.9448 0.8277
C29_8 C 0.62664(13) 0.9270(2) 0.86500(7)
C30_8 C 0.67600(13) 0.9391(2) 0.85190(7)
H24_8 H 0.8032 0.9853 0.7795
C36_8 C 0.72337(13) 0.9732(2) 0.81294(7)
N3_8 N 0.93486(11) 0.9298(2) 0.96813(6)
N7_8 N 0.88828(11) 0.8890(2) 0.90613(6)
N8_4 N 0.53417(11) 0.8939(2) 0.88890(7)
N10_8 N 0.71487(11) 0.9242(2) 0.86896(6)
N11_8 N 0.67797(11) 0.9639(2) 0.82344(6)
N12_8 N 0.76514(11) 0.9593(2) 0.82801(6)
Zn4_3 Zn 0.466720(15) 0.85434(3) 0.906300(9)
I3_7 I 0.478520(10) 0.76767(2) 0.954940(6)
I4_7 I 0.421200(11) 0.77540(2) 0.864210(7)
H7_7 H 0.4308 0.9770 0.9571
N2_7 N 0.43641(11) 0.9900(2) 0.91441(6)
Zn4_4 Zn 0.033280(15) 0.14566(3) 0.406300(9)
I3_8 I 0.021480(10) 0.23233(2) 0.454940(6)
I4_8 I 0.078800(11) 0.22460(2) 0.364210(7)
H7_8 H 0.0692 0.0230 0.4571
N2_8 N 0.06359(11) 0.0100(2) 0.41441(6)
I1_8 I 0.981256(9) 0.45422(2) 0.596878(6)
loop_
_geom_bond_atom_site_label_1
_geom_bond_atom_site_label_2
_geom_bond_site_symmetry_1
_geom_bond_site_symmetry_2
I2 Zn1 1_555 1_555
C15 H11 1_555 1_555
C19 H13 1_555 1_555
C20 C19 1_555 1_555
H14 C20 1_555 1_555
C21 H15 1_555 1_555
C22 C21 1_555 1_555
H16 C22 1_555 1_555
C23 C20 1_555 1_555
C24 C23 1_555 1_555
C25 H17 1_555 1_555
C26 C25 1_555 1_555
H18 C26 1_555 1_555
C27 H19 1_555 1_555
C28 C27 1_555 1_555
H20 C28 1_555 1_555
C29 C26 1_555 1_555
C30 C29 1_555 1_555
N3 Zn1 1_555 1_555
N7 Zn1 1_555 1_555
N8 C25 1_555 1_555
N10 C24 1_555 1_555
N11 C30 1_555 1_555
N12 C24 1_555 1_555
Zn4 N8 1_555 1_555
C15 N3 1_555 1_555
C19 N7 1_555 1_555
C21 N7 1_555 1_555
C22 C23 1_555 1_555
C27 N8 1_555 1_555
C28 C29 1_555 1_555
C30 N10 1_555 1_555
C36 N11 1_555 1_555
C36 N12 1_555 1_555
Zn4 I3 1_555 1_555
I4 Zn4 1_555 1_555
N2 Zn4 1_555 1_555
Zn3 I5 1_555 1_555
I6 Zn3 1_555 1_555
C1 H1 1_555 1_555
C2 C1 1_555 1_555
H2 C2 1_555 1_555
H12 C16 1_555 1_555
N1 Zn3 1_555 1_555
N14 Zn3 1_555 1_555
C1 N1 1_555 1_555
Zn2 I3_2 1_555 1_555
I4_2 Zn2 1_555 1_555
C3 H3 1_555 1_555
C4 C3 1_555 1_555
H4 C4 1_555 1_555
C6 C5 1_555 1_555
C7 H5 1_555 1_555
C8 C7 1_555 1_555
H6 C8 1_555 1_555
C9 H7_2 1_555 1_555
C10 C9 1_555 1_555
H8 C10 1_555 1_555
C11 C8 1_555 1_555
C12 C11 1_555 1_555
C13 H9 1_555 1_555
C14 C13 1_555 1_555
H10 C14 1_555 1_555
C17 C14 1_555 1_555
C18 C17 1_555 1_555
C31 H21 1_555 1_555
C32 C31 1_555 1_555
H22 C32 1_555 1_555
C33 H23 1_555 1_555
C34 C33 1_555 1_555
C35 C32 1_555 1_555
N2_2 Zn2 1_555 1_555
N4 C6 1_555 1_555
N5 C12 1_555 1_555
N6 C6 1_555 1_555
N14 C31 1_555 1_555
N13_2 Zn2 1_555 1_555
C4 C5 1_555 1_555
C7 N2_2 1_555 1_555
C9 N2_2 1_555 1_555
C10 C11 1_555 1_555
C12 N4 1_555 1_555
C18 N5 1_555 1_555
C18 N6 1_555 1_555
C33 N14 1_555 1_555
C34 C35 1_555 1_555
Zn3_2 I5_2 1_555 1_555
I2_2 Zn1_2 1_555 1_555
I6_2 Zn3_2 1_555 1_555
C1_2 H1_2 1_555 1_555
C2_2 C1_2 1_555 1_555
H2_2 C2_2 1_555 1_555
C3_2 H3_2 1_555 1_555
C4_2 C3_2 1_555 1_555
H4_2 C4_2 1_555 1_555
C5_2 C2_2 1_555 1_555
C6_2 C5_2 1_555 1_555
C7_2 H5_2 1_555 1_555
C8_2 C7_2 1_555 1_555
H6_2 C8_2 1_555 1_555
C10_2 C9_2 1_555 1_555
H8_2 C10_2 1_555 1_555
C11_2 C8_2 1_555 1_555
C12_2 C11_2 1_555 1_555
C13_2 H9_2 1_555 1_555
C14_2 C13_2 1_555 1_555
H10_2 C14_2 1_555 1_555
C15_2 H11_2 1_555 1_555
C16_2 C15_2 1_555 1_555
H12_2 C16_2 1_555 1_555
C17_2 C14_2 1_555 1_555
C18_2 C17_2 1_555 1_555
C19_2 H13_2 1_555 1_555
C20_2 C19_2 1_555 1_555
H14_2 C20_2 1_555 1_555
C21_2 H15_2 1_555 1_555
C22_2 C21_2 1_555 1_555
H16_2 C22_2 1_555 1_555
C23_2 C20_2 1_555 1_555
C24_2 C23_2 1_555 1_555
C25_2 H17_2 1_555 1_555
C26_2 C25_2 1_555 1_555
H18_2 C26_2 1_555 1_555
C27_2 H19_2 1_555 1_555
C28_2 C27_2 1_555 1_555
H20_2 C28_2 1_555 1_555
C29_2 C26_2 1_555 1_555
C30_2 C29_2 1_555 1_555
C31_2 H21_2 1_555 1_555
C32_2 C31_2 1_555 1_555
H22_2 C32_2 1_555 1_555
C33_2 H23_2 1_555 1_555
C34_2 C33_2 1_555 1_555
H24_2 C34_2 1_555 1_555
C35_2 C32_2 1_555 1_555
C36_2 C35_2 1_555 1_555
N1_2 Zn3_2 1_555 1_555
N3_2 Zn1_2 1_555 1_555
N4_2 C6_2 1_555 1_555
N5_2 C12_2 1_555 1_555
N6_2 C6_2 1_555 1_555
N7_2 Zn1_2 1_555 1_555
N13_2 C25_2 1_555 1_555
N9 C31_2 1_555 1_555
N10_2 C24_2 1_555 1_555
N11_2 C30_2 1_555 1_555
N12_2 C24_2 1_555 1_555
Zn5 N9 1_555 1_555
N14_2 Zn3_2 1_555 1_555
C1_2 N1_2 1_555 1_555
C3_2 N1_2 1_555 1_555
C4_2 C5_2 1_555 1_555
C10_2 C11_2 1_555 1_555
C12_2 N4_2 1_555 1_555
C13_2 N3_2 1_555 1_555
C15_2 N3_2 1_555 1_555
C16_2 C17_2 1_555 1_555
C18_2 N5_2 1_555 1_555
C18_2 N6_2 1_555 1_555
C19_2 N7_2 1_555 1_555
C21_2 N7_2 1_555 1_555
C22_2 C23_2 1_555 1_555
C27_2 N13_2 1_555 1_555
C28_2 C29_2 1_555 1_555
C30_2 N10_2 1_555 1_555
C33_2 N9 1_555 1_555
C34_2 C35_2 1_555 1_555
C36_2 N11_2 1_555 1_555
C36_2 N12_2 1_555 1_555
Zn5 I5_3 1_555 1_555
I6_3 Zn5 1_555 1_555
C1_3 H1_3 1_555 1_555
C2_3 C1_3 1_555 1_555
H2_3 C2_3 1_555 1_555
C3_3 H3_3 1_555 1_555
C4_3 C3_3 1_555 1_555
H4_3 C4_3 1_555 1_555
C5_3 C2_3 1_555 1_555
C6_3 C5_3 1_555 1_555
C7_3 H5_3 1_555 1_555
C8_3 C7_3 1_555 1_555
H6_3 C8_3 1_555 1_555
C10_3 C9_3 1_555 1_555
H8_3 C10_3 1_555 1_555
C11_3 C8_3 1_555 1_555
C12_3 C11_3 1_555 1_555
H12_3 C16_3 1_555 1_555
C18_3 C17_3 1_555 1_555
N1_3 Zn5 1_555 1_555
N4_3 C6_3 1_555 1_555
N5_3 C12_3 1_555 1_555
N6_3 C6_3 1_555 1_555
C1_3 N1_3 1_555 1_555
C3_3 N1_3 1_555 1_555
C4_3 C5_3 1_555 1_555
C10_3 C11_3 1_555 1_555
C12_3 N4_3 1_555 1_555
C16_3 C17_3 1_555 1_555
C18_3 N5_3 1_555 1_555
C18_3 N6_3 1_555 1_555
Zn1_3 I1 1_555 1_555
I2_3 Zn1_3 1_555 1_555
C13_3 H9_3 1_555 1_555
C14_3 C13_3 1_555 1_555
H10_3 C14_3 1_555 1_555
C15_3 H11_3 1_555 1_555
C19_3 H13_3 1_555 1_555
C20_3 C19_3 1_555 1_555
H14_3 C20_3 1_555 1_555
C21_3 H15_3 1_555 1_555
C22_3 C21_3 1_555 1_555
H16_3 C22_3 1_555 1_555
C23_3 C20_3 1_555 1_555
C24_3 C23_3 1_555 1_555
C25_3 H17_3 1_555 1_555
C26_3 C25_3 1_555 1_555
H18_3 C26_3 1_555 1_555
C27_3 H19_3 1_555 1_555
C28_3 C27_3 1_555 1_555
H20_3 C28_3 1_555 1_555
C29_3 C26_3 1_555 1_555
C30_3 C29_3 1_555 1_555
C31_3 H21_3 1_555 1_555
C32_3 C31_3 1_555 1_555
H22_3 C32_3 1_555 1_555
C33_3 H23_3 1_555 1_555
C34_3 C33_3 1_555 1_555
H24_3 C34_3 1_555 1_555
C35_3 C32_3 1_555 1_555
C36_3 C35_3 1_555 1_555
N3_3 Zn1_3 1_555 1_555
N7_3 Zn1_3 1_555 1_555
N13 C25_3 1_555 1_555
N14_2 C31_3 1_555 1_555
N10_3 C24_3 1_555 1_555
N11_3 C30_3 1_555 1_555
N12_3 C24_3 1_555 1_555
C13_3 N3_3 1_555 1_555
C15_3 N3_3 1_555 1_555
C19_3 N7_3 1_555 1_555
C21_3 N7_3 1_555 1_555
C22_3 C23_3 1_555 1_555
C27_3 N13 1_555 1_555
C28_3 C29_3 1_555 1_555
C30_3 N10_3 1_555 1_555
C33_3 N14_2 1_555 1_555
C34_3 C35_3 1_555 1_555
C36_3 N11_3 1_555 1_555
C36_3 N12_3 1_555 1_555
C13_4 H9_4 1_555 1_555
C14_4 C13_4 1_555 1_555
H10_4 C14_4 1_555 1_555
C31_4 H21_4 1_555 1_555
C32_4 C31_4 1_555 1_555
H22_4 C32_4 1_555 1_555
C33_4 H23_4 1_555 1_555
C34_4 C33_4 1_555 1_555
C35_4 C32_4 1_555 1_555
N9_2 C31_4 1_555 1_555
Zn5_2 N9_2 1_555 1_555
C33_4 N9_2 1_555 1_555
C34_4 C35_4 1_555 1_555
Zn1_4 I1_2 1_555 1_555
Zn5_2 I5_4 1_555 1_555
I2_4 Zn1_4 1_555 1_555
I6_4 Zn5_2 1_555 1_555
C1_4 H1_4 1_555 1_555
C2_4 C1_4 1_555 1_555
H2_4 C2_4 1_555 1_555
C15_4 H11_4 1_555 1_555
C16_4 C15_4 1_555 1_555
H12_4 C16_4 1_555 1_555
C19_4 H13_4 1_555 1_555
C20_4 C19_4 1_555 1_555
H14_4 C20_4 1_555 1_555
C21_4 H15_4 1_555 1_555
C22_4 C21_4 1_555 1_555
H16_4 C22_4 1_555 1_555
C23_4 C20_4 1_555 1_555
C24_4 C23_4 1_555 1_555
C25_4 H17_4 1_555 1_555
C26_4 C25_4 1_555 1_555
H18_4 C26_4 1_555 1_555
C27_4 H19_4 1_555 1_555
C28_4 C27_4 1_555 1_555
H20_4 C28_4 1_555 1_555
C29_4 C26_4 1_555 1_555
C30_4 C29_4 1_555 1_555
N1_4 Zn5_2 1_555 1_555
N3_4 Zn1_4 1_555 1_555
N7_4 Zn1_4 1_555 1_555
N8_2 C25_4 1_555 1_555
N10_4 C24_4 1_555 1_555
N11_4 C30_4 1_555 1_555
N12_4 C24_4 1_555 1_555
C1_4 N1_4 1_555 1_555
C15_4 N3_4 1_555 1_555
C19_4 N7_4 1_555 1_555
C21_4 N7_4 1_555 1_555
C22_4 C23_4 1_555 1_555
C27_4 N8_2 1_555 1_555
C28_4 C29_4 1_555 1_555
C30_4 N10_4 1_555 1_555
C36_4 N11_4 1_555 1_555
C36_4 N12_4 1_555 1_555
Zn2_2 I3_3 1_555 1_555
I4_3 Zn2_2 1_555 1_555
C3_4 H3_4 1_555 1_555
C4_4 C3_4 1_555 1_555
H4_4 C4_4 1_555 1_555
C6_4 C5_4 1_555 1_555
C7_4 H5_4 1_555 1_555
C8_4 C7_4 1_555 1_555
H6_4 C8_4 1_555 1_555
C9_4 H7_3 1_555 1_555
C10_4 C9_4 1_555 1_555
H8_4 C10_4 1_555 1_555
C11_4 C8_4 1_555 1_555
C12_4 C11_4 1_555 1_555
C18_4 C17_4 1_555 1_555
N2_3 Zn2_2 1_555 1_555
N4_4 C6_4 1_555 1_555
N5_4 C12_4 1_555 1_555
N6_4 C6_4 1_555 1_555
C4_4 C5_4 1_555 1_555
C7_4 N2_3 1_555 1_555
C9_4 N2_3 1_555 1_555
C10_4 C11_4 1_555 1_555
C12_4 N4_4 1_555 1_555
C18_4 N5_4 1_555 1_555
C18_4 N6_4 1_555 1_555
Zn4_2 I3_4 1_555 1_555
I4_4 Zn4_2 1_555 1_555
N2_4 Zn4_2 1_555 1_555
Zn3_3 I5_5 1_555 1_555
I6_5 Zn3_3 1_555 1_555
C1_5 H1_5 1_555 1_555
C2_5 C1_5 1_555 1_555
H2_5 C2_5 1_555 1_555
H12_5 C16_5 1_555 1_555
N1_5 Zn3_3 1_555 1_555
N14_3 Zn3_3 1_555 1_555
C1_5 N1_5 1_555 1_555
Zn2_3 I3_5 1_555 1_555
I4_5 Zn2_3 1_555 1_555
C3_5 H3_5 1_555 1_555
C4_5 C3_5 1_555 1_555
H4_5 C4_5 1_555 1_555
C6_5 C5_5 1_555 1_555
C7_5 H5_5 1_555 1_555
C8_5 C7_5 1_555 1_555
H6_5 C8_5 1_555 1_555
C9_5 H7_5 1_555 1_555
C10_5 C9_5 1_555 1_555
H8_5 C10_5 1_555 1_555
C11_5 C8_5 1_555 1_555
C12_5 C11_5 1_555 1_555
C13_5 H9_5 1_555 1_555
C14_5 C13_5 1_555 1_555
H10_5 C14_5 1_555 1_555
C17_5 C14_5 1_555 1_555
C18_5 C17_5 1_555 1_555
C31_5 H21_5 1_555 1_555
C32_5 C31_5 1_555 1_555
H22_5 C32_5 1_555 1_555
C33_5 H23_5 1_555 1_555
C34_5 C33_5 1_555 1_555
C35_5 C32_5 1_555 1_555
N2_5 Zn2_3 1_555 1_555
N4_5 C6_5 1_555 1_555
N5_5 C12_5 1_555 1_555
N6_5 C6_5 1_555 1_555
N14_3 C31_5 1_555 1_555
N13_4 Zn2_3 1_555 1_555
C4_5 C5_5 1_555 1_555
C7_5 N2_5 1_555 1_555
C9_5 N2_5 1_555 1_555
C10_5 C11_5 1_555 1_555
C12_5 N4_5 1_555 1_555
C18_5 N5_5 1_555 1_555
C18_5 N6_5 1_555 1_555
C33_5 N14_3 1_555 1_555
C34_5 C35_5 1_555 1_555
Zn3_4 I5_6 1_555 1_555
I2_5 Zn1_5 1_555 1_555
I6_6 Zn3_4 1_555 1_555
C1_6 H1_6 1_555 1_555
C2_6 C1_6 1_555 1_555
H2_6 C2_6 1_555 1_555
C3_6 H3_6 1_555 1_555
C4_6 C3_6 1_555 1_555
H4_6 C4_6 1_555 1_555
C5_6 C2_6 1_555 1_555
C6_6 C5_6 1_555 1_555
C7_6 H5_6 1_555 1_555
C8_6 C7_6 1_555 1_555
H6_6 C8_6 1_555 1_555
C10_6 C9_6 1_555 1_555
H8_6 C10_6 1_555 1_555
C11_6 C8_6 1_555 1_555
C12_6 C11_6 1_555 1_555
C13_6 H9_6 1_555 1_555
C14_6 C13_6 1_555 1_555
H10_6 C14_6 1_555 1_555
C15_5 H11_5 1_555 1_555
C16_6 C15_5 1_555 1_555
H12_6 C16_6 1_555 1_555
C17_6 C14_6 1_555 1_555
C18_6 C17_6 1_555 1_555
C19_5 H13_5 1_555 1_555
C20_5 C19_5 1_555 1_555
H14_5 C20_5 1_555 1_555
C21_5 H15_5 1_555 1_555
C22_5 C21_5 1_555 1_555
H16_5 C22_5 1_555 1_555
C23_5 C20_5 1_555 1_555
C24_5 C23_5 1_555 1_555
C25_5 H17_5 1_555 1_555
C26_5 C25_5 1_555 1_555
H18_5 C26_5 1_555 1_555
C27_5 H19_5 1_555 1_555
C28_5 C27_5 1_555 1_555
H20_5 C28_5 1_555 1_555
C29_5 C26_5 1_555 1_555
C30_5 C29_5 1_555 1_555
C31_6 H21_6 1_555 1_555
C32_6 C31_6 1_555 1_555
H22_6 C32_6 1_555 1_555
C33_6 H23_6 1_555 1_555
C34_6 C33_6 1_555 1_555
H24_5 C34_6 1_555 1_555
C35_6 C32_6 1_555 1_555
C36_5 C35_6 1_555 1_555
N1_6 Zn3_4 1_555 1_555
N3_5 Zn1_5 1_555 1_555
N4_6 C6_6 1_555 1_555
N5_6 C12_6 1_555 1_555
N6_6 C6_6 1_555 1_555
N7_5 Zn1_5 1_555 1_555
N13_4 C25_5 1_555 1_555
N9_3 C31_6 1_555 1_555
N10_5 C24_5 1_555 1_555
N11_5 C30_5 1_555 1_555
N12_5 C24_5 1_555 1_555
Zn5_3 N9_3 1_555 1_555
N14_4 Zn3_4 1_555 1_555
C1_6 N1_6 1_555 1_555
C3_6 N1_6 1_555 1_555
C4_6 C5_6 1_555 1_555
C10_6 C11_6 1_555 1_555
C12_6 N4_6 1_555 1_555
C13_6 N3_5 1_555 1_555
C15_5 N3_5 1_555 1_555
C16_6 C17_6 1_555 1_555
C18_6 N5_6 1_555 1_555
C18_6 N6_6 1_555 1_555
C19_5 N7_5 1_555 1_555
C21_5 N7_5 1_555 1_555
C22_5 C23_5 1_555 1_555
C27_5 N13_4 1_555 1_555
C28_5 C29_5 1_555 1_555
C30_5 N10_5 1_555 1_555
C33_6 N9_3 1_555 1_555
C34_6 C35_6 1_555 1_555
C36_5 N11_5 1_555 1_555
C36_5 N12_5 1_555 1_555
Zn1_6 I1_5 1_555 1_555
I2_6 Zn1_6 1_555 1_555
C13_7 H9_7 1_555 1_555
C14_7 C13_7 1_555 1_555
H10_7 C14_7 1_555 1_555
C15_6 H11_6 1_555 1_555
C19_6 H13_6 1_555 1_555
C20_6 C19_6 1_555 1_555
H14_6 C20_6 1_555 1_555
C21_6 H15_6 1_555 1_555
C22_6 C21_6 1_555 1_555
H16_6 C22_6 1_555 1_555
C23_6 C20_6 1_555 1_555
C24_6 C23_6 1_555 1_555
C25_6 H17_6 1_555 1_555
C26_6 C25_6 1_555 1_555
H18_6 C26_6 1_555 1_555
C27_6 H19_6 1_555 1_555
C28_6 C27_6 1_555 1_555
H20_6 C28_6 1_555 1_555
C29_6 C26_6 1_555 1_555
C30_6 C29_6 1_555 1_555
C31_7 H21_7 1_555 1_555
C32_7 C31_7 1_555 1_555
H22_7 C32_7 1_555 1_555
C33_7 H23_7 1_555 1_555
C34_7 C33_7 1_555 1_555
H24_6 C34_7 1_555 1_555
C35_7 C32_7 1_555 1_555
C36_6 C35_7 1_555 1_555
N3_6 Zn1_6 1_555 1_555
N7_6 Zn1_6 1_555 1_555
N13_3 C25_6 1_555 1_555
N14_4 C31_7 1_555 1_555
N10_6 C24_6 1_555 1_555
N11_6 C30_6 1_555 1_555
N12_6 C24_6 1_555 1_555
C13_7 N3_6 1_555 1_555
C15_6 N3_6 1_555 1_555
C19_6 N7_6 1_555 1_555
C21_6 N7_6 1_555 1_555
C22_6 C23_6 1_555 1_555
C27_6 N13_3 1_555 1_555
C28_6 C29_6 1_555 1_555
C30_6 N10_6 1_555 1_555
C33_7 N14_4 1_555 1_555
C34_7 C35_7 1_555 1_555
C36_6 N11_6 1_555 1_555
C36_6 N12_6 1_555 1_555
Zn5_3 I5_7 1_555 1_555
I6_7 Zn5_3 1_555 1_555
C1_7 H1_7 1_555 1_555
C2_7 C1_7 1_555 1_555
H2_7 C2_7 1_555 1_555
C3_7 H3_7 1_555 1_555
C4_7 C3_7 1_555 1_555
H4_7 C4_7 1_555 1_555
C5_7 C2_7 1_555 1_555
C6_7 C5_7 1_555 1_555
C7_7 H5_7 1_555 1_555
C8_7 C7_7 1_555 1_555
H6_7 C8_7 1_555 1_555
C10_7 C9_7 1_555 1_555
H8_7 C10_7 1_555 1_555
C11_7 C8_7 1_555 1_555
C12_7 C11_7 1_555 1_555
H12_7 C16_7 1_555 1_555
C18_7 C17_7 1_555 1_555
N1_7 Zn5_3 1_555 1_555
N4_7 C6_7 1_555 1_555
N5_7 C12_7 1_555 1_555
N6_7 C6_7 1_555 1_555
C1_7 N1_7 1_555 1_555
C3_7 N1_7 1_555 1_555
C4_7 C5_7 1_555 1_555
C10_7 C11_7 1_555 1_555
C12_7 N4_7 1_555 1_555
C16_7 C17_7 1_555 1_555
C18_7 N5_7 1_555 1_555
C18_7 N6_7 1_555 1_555
Zn2_4 I3_6 1_555 1_555
I4_6 Zn2_4 1_555 1_555
C3_8 H3_8 1_555 1_555
C4_8 C3_8 1_555 1_555
H4_8 C4_8 1_555 1_555
C6_8 C5_8 1_555 1_555
C7_8 H5_8 1_555 1_555
C8_8 C7_8 1_555 1_555
H6_8 C8_8 1_555 1_555
C9_8 H7_6 1_555 1_555
C10_8 C9_8 1_555 1_555
H8_8 C10_8 1_555 1_555
C11_8 C8_8 1_555 1_555
C12_8 C11_8 1_555 1_555
C18_8 C17_8 1_555 1_555
N2_6 Zn2_4 1_555 1_555
N4_8 C6_8 1_555 1_555
N5_8 C12_8 1_555 1_555
N6_8 C6_8 1_555 1_555
C4_8 C5_8 1_555 1_555
C7_8 N2_6 1_555 1_555
C9_8 N2_6 1_555 1_555
C10_8 C11_8 1_555 1_555
C12_8 N4_8 1_555 1_555
C18_8 N5_8 1_555 1_555
C18_8 N6_8 1_555 1_555
C13_8 H9_8 1_555 1_555
C14_8 C13_8 1_555 1_555
H10_8 C14_8 1_555 1_555
C31_8 H21_8 1_555 1_555
C32_8 C31_8 1_555 1_555
H22_8 C32_8 1_555 1_555
C33_8 H23_8 1_555 1_555
C34_8 C33_8 1_555 1_555
C35_8 C32_8 1_555 1_555
N9_4 C31_8 1_555 1_555
Zn5_4 N9_4 1_555 1_555
C33_8 N9_4 1_555 1_555
C34_8 C35_8 1_555 1_555
Zn1_7 I1_7 1_555 1_555
Zn5_4 I5_8 1_555 1_555
I2_7 Zn1_7 1_555 1_555
I6_8 Zn5_4 1_555 1_555
C1_8 H1_8 1_555 1_555
C2_8 C1_8 1_555 1_555
H2_8 C2_8 1_555 1_555
C15_7 H11_7 1_555 1_555
C16_8 C15_7 1_555 1_555
H12_8 C16_8 1_555 1_555
C19_7 H13_7 1_555 1_555
C20_7 C19_7 1_555 1_555
H14_7 C20_7 1_555 1_555
C21_7 H15_7 1_555 1_555
C22_7 C21_7 1_555 1_555
H16_7 C22_7 1_555 1_555
C23_7 C20_7 1_555 1_555
C24_7 C23_7 1_555 1_555
C25_7 H17_7 1_555 1_555
C26_7 C25_7 1_555 1_555
H18_7 C26_7 1_555 1_555
C27_7 H19_7 1_555 1_555
C28_7 C27_7 1_555 1_555
H20_7 C28_7 1_555 1_555
C29_7 C26_7 1_555 1_555
C30_7 C29_7 1_555 1_555
N1_8 Zn5_4 1_555 1_555
N3_7 Zn1_7 1_555 1_555
N7_7 Zn1_7 1_555 1_555
N8_3 C25_7 1_555 1_555
N10_7 C24_7 1_555 1_555
N11_7 C30_7 1_555 1_555
N12_7 C24_7 1_555 1_555
C1_8 N1_8 1_555 1_555
C15_7 N3_7 1_555 1_555
C19_7 N7_7 1_555 1_555
C21_7 N7_7 1_555 1_555
C22_7 C23_7 1_555 1_555
C27_7 N8_3 1_555 1_555
C28_7 C29_7 1_555 1_555
C30_7 N10_7 1_555 1_555
C36_7 N11_7 1_555 1_555
C36_7 N12_7 1_555 1_555
I2_8 Zn1_8 1_555 1_555
C15_8 H11_8 1_555 1_555
C19_8 H13_8 1_555 1_555
C20_8 C19_8 1_555 1_555
H14_8 C20_8 1_555 1_555
C21_8 H15_8 1_555 1_555
C22_8 C21_8 1_555 1_555
H16_8 C22_8 1_555 1_555
C23_8 C20_8 1_555 1_555
C24_8 C23_8 1_555 1_555
C25_8 H17_8 1_555 1_555
C26_8 C25_8 1_555 1_555
H18_8 C26_8 1_555 1_555
C27_8 H19_8 1_555 1_555
C28_8 C27_8 1_555 1_555
H20_8 C28_8 1_555 1_555
C29_8 C26_8 1_555 1_555
C30_8 C29_8 1_555 1_555
N3_8 Zn1_8 1_555 1_555
N7_8 Zn1_8 1_555 1_555
N8_4 C25_8 1_555 1_555
N10_8 C24_8 1_555 1_555
N11_8 C30_8 1_555 1_555
N12_8 C24_8 1_555 1_555
Zn4_3 N8_4 1_555 1_555
C15_8 N3_8 1_555 1_555
C19_8 N7_8 1_555 1_555
C21_8 N7_8 1_555 1_555
C22_8 C23_8 1_555 1_555
C27_8 N8_4 1_555 1_555
C28_8 C29_8 1_555 1_555
C30_8 N10_8 1_555 1_555
C36_8 N11_8 1_555 1_555
C36_8 N12_8 1_555 1_555
Zn4_3 I3_7 1_555 1_555
I4_7 Zn4_3 1_555 1_555
N2_7 Zn4_3 1_555 1_555
Zn4_4 I3_8 1_555 1_555
I4_8 Zn4_4 1_555 1_555
N2_8 Zn4_4 1_555 1_555

#END
