
###############################################################################
#
# This file contains modified crystal structure data generated from the
# MOF subset of the Cambridge Structural Database (CSD) v543 
# hosted by the Cambridge Crystallographic Data Centre (CCDC).
#
# This work is licensed under the Creative Commons
# Attribution-NonCommercial-ShareAlike 4.0 International License.
# To view a copy of this license, visit
# http://creativecommons.org/licenses/by-nc-sa/4.0/
# or send a letter to
# Creative Commons, PO Box 1866, Mountain View, CA 94042, USA.
#
# CIF created using the CSD Python API on 29 September 2022
# The structure has been converted into the P1 space group
# The structure has a 3D framework
# The original CSD entry CIWZIT is in the monoclinic crystal system
# The framework has been calculated to contain at least 10.0% void space
# The void calculation uses a probe of radius 1.32A, grid spacing 0.4
#
###############################################################################

data_CIWZIT
_chemical_formula_moiety         '(C304 H352 N124 Ni16 W8)n'
_symmetry_cell_setting           triclinic
_symmetry_space_group_name_H-M   'P 1'
_symmetry_Int_Tables_number      1
_space_group_name_Hall           'P 1'
loop_
_symmetry_equiv_pos_site_id
_symmetry_equiv_pos_as_xyz
1 x,y,z
_cell_length_a                   26.2457(15)
_cell_length_b                   13.9671(8)
_cell_length_c                   29.8116(17)
_cell_angle_alpha                90
_cell_angle_beta                 95.3110(10)
_cell_angle_gamma                90
_cell_volume                     10881.3
loop_
_atom_site_label
_atom_site_type_symbol
_atom_site_fract_x
_atom_site_fract_y
_atom_site_fract_z
H6 H 0.5248 0.0057 0.2029
C26 C 0.1755(5) 0.0388(9) 0.0927(4)
H27 H 0.1559 0.0739 0.0710
C27 C 0.2247(5) 0.0666(8) 0.1033(3)
H28 H 0.2387 0.1190 0.0896
C28 C 0.2534(4) 0.0120(5) 0.1363(3)
C29 C 0.3075(4) 0.0282(6) 0.1550(3)
C30 C 0.3396(5) 0.0978(8) 0.1321(4)
H29 H 0.3745 0.0761 0.1347
H30 H 0.3379 0.1594 0.1461
H31 H 0.3272 0.1026 0.1009
H32 H 0.3865 0.0475 0.2105
H34 H 0.3497 0.0008 0.2752
N23 N 0.1987(4) 0.0001(6) 0.9299(3)
N32 N 0.1915(3) 0.0529(5) 0.8020(3)
Ni7 Ni 0.23311(4) 0.16626(7) 0.77665(4)
W1 W 0.321518(10) 0.539231(19) 0.157138(8)
Ni1 Ni 0.49901(4) 0.62811(7) 0.24625(4)
Ni2 Ni 0.26628(4) 0.88426(6) 0.21005(3)
N1 N 0.4221(2) 0.6297(5) 0.2174(3)
N2 N 0.2981(3) 0.7666(4) 0.1785(2)
N3 N 0.2885(3) 0.6375(5) 0.0583(2)
N4 N 0.4170(4) 0.5221(13) 0.0941(4)
N5 N 0.3897(3) 0.3589(5) 0.2049(3)
N6 N 0.2815(5) 0.3467(6) 0.0996(3)
N7 N 0.1949(3) 0.5446(7) 0.1438(3)
N8 N 0.5092(3) 0.7631(5) 0.2323(3)
N9 N 0.5253(3) 0.6223(7) 0.1821(3)
N10 N 0.4897(3) 0.4869(6) 0.2569(4)
H1 H 0.4568 0.4735 0.2464
N11 N 0.4811(3) 0.6899(10) 0.3050(3)
N13 N 0.2311(3) 0.9380(4) 0.1552(2)
N14 N 0.2011(3) 0.8063(5) 0.2070(2)
N15 N 0.3018(3) 0.8444(5) 0.2709(2)
H2 H 0.2908 0.8860 0.2914
N16 N 0.3211(3) 0.9811(5) 0.1899(3)
N17 N 0.2729(3) 0.4925(4) 0.2529(2)
N19 N 0.2639(3) 0.8102(5) 0.0052(2)
N20 N 0.1901(3) 0.6314(6) 0.0058(2)
C1 C 0.3861(3) 0.6013(5) 0.1977(3)
C2 C 0.3050(3) 0.6861(5) 0.1703(2)
C3 C 0.3011(3) 0.6037(5) 0.0923(2)
C4 C 0.3838(4) 0.5270(8) 0.1161(3)
C5 C 0.3655(3) 0.4194(5) 0.1877(3)
C6 C 0.2962(4) 0.4129(5) 0.1197(3)
C7 C 0.2387(3) 0.5442(6) 0.1485(2)
C8 C 0.2925(3) 0.5113(5) 0.2218(2)
C9 C 0.5022(4) 0.8261(8) 0.2638(5)
C10 C 0.5090(5) 0.9254(9) 0.2554(7)
H5 H 0.5060 0.9734 0.2766
C11 C 0.5209(7) 0.9420(13) 0.2110(10)
C12 C 0.5275(5) 0.8750(11) 0.1778(6)
H7 H 0.5346 0.8916 0.1489
C13 C 0.5229(4) 0.7853(8) 0.1911(4)
C14 C 0.5337(4) 0.7008(10) 0.1648(4)
C15 C 0.5556(7) 0.7177(15) 0.1203(5)
H8 H 0.5905 0.6964 0.1223
H9 H 0.5542 0.7849 0.1133
H10 H 0.5359 0.6828 0.0970
C16 C 0.5379(5) 0.5296(10) 0.1619(5)
H11 H 0.5283 0.5323 0.1297
H12 H 0.5746 0.5200 0.1664
C17 C 0.5125(5) 0.4472(9) 0.1806(6)
H13 H 0.5228 0.3904 0.1650
H14 H 0.4759 0.4547 0.1732
C18 C 0.5215(5) 0.4279(8) 0.2309(6)
H15 H 0.5144 0.3610 0.2365
H16 H 0.5571 0.4398 0.2408
C19 C 0.4932(5) 0.4670(11) 0.3042(5)
H17 H 0.5280 0.4788 0.3171
H18 H 0.4856 0.3999 0.3088
C20 C 0.4568(6) 0.5278(15) 0.3283(5)
H19 H 0.4499 0.4938 0.3555
H20 H 0.4248 0.5306 0.3093
C21 C 0.4718(5) 0.6343(14) 0.3425(5)
H21 H 0.4442 0.6629 0.3574
H22 H 0.5021 0.6335 0.3636
C22 C 0.4889(4) 0.7836(10) 0.3061(5)
C23 C 0.4879(6) 0.8376(13) 0.3482(5)
H23 H 0.4544 0.8336 0.3586
H24 H 0.4962 0.9034 0.3431
H25 H 0.5126 0.8111 0.3706
C24 C 0.1843(3) 0.9122(6) 0.1456(3)
C25 C 0.1533(4) 0.9635(9) 0.1117(4)
H26 H 0.1196 0.9460 0.1031
C31 C 0.3724(4) 0.9837(8) 0.2129(4)
H33 H 0.3942 0.9396 0.1983
C32 C 0.3727(4) 0.9574(8) 0.2617(4)
H35 H 0.4068 0.9695 0.2760
C33 C 0.3578(4) 0.8547(7) 0.2737(4)
H36 H 0.3718 0.8100 0.2532
H37 H 0.3722 0.8396 0.3040
C34 C 0.2849(5) 0.7479(6) 0.2843(3)
H38 H 0.2983 0.7004 0.2647
H39 H 0.2993 0.7347 0.3148
C35 C 0.2290(4) 0.7379(6) 0.2821(3)
H40 H 0.2162 0.7934 0.2970
H41 H 0.2220 0.6826 0.3002
C36 C 0.1963(4) 0.7271(7) 0.2367(4)
H42 H 0.2063 0.6689 0.2221
H43 H 0.1606 0.7205 0.2424
C37 C 0.1688(3) 0.8298(7) 0.1739(4)
C38 C 0.1198(4) 0.7773(10) 0.1610(5)
H44 H 0.1273 0.7129 0.1526
H45 H 0.1012 0.8092 0.1361
H46 H 0.0994 0.7763 0.1862
H53 H 0.2735 0.4188 0.0146
C48 C 0.1847(5) 0.5325(9) 0.0190(4)
H57 H 0.1489 0.5192 0.0219
H58 H 0.2034 0.5226 0.0483
C49 C 0.1709(4) 0.7045(9) 0.0354(4)
H59 H 0.1359 0.6889 0.0405
H60 H 0.1911 0.7019 0.0643
C50 C 0.1723(5) 0.8019(9) 0.0182(4)
H61 H 0.1464 0.8385 0.0318
C51 C 0.2224(5) 0.8577(8) 0.0251(3)
H63 H 0.2174 0.9208 0.0118
H64 H 0.2316 0.8659 0.0571
C53 C 0.3165(6) 0.9576(8) 0.0005(6)
H65 H 0.2906 0.9879 0.0162
H67 H 0.3493 0.9664 0.0171
Ni6 Ni 0.23372(4) 0.38426(6) 0.28995(3)
N33 N 0.5749(2) 0.6214(5) 0.2774(2)
N34 N 0.2271(3) 0.9925(4) 0.2471(2)
W2 W 0.178159(10) 0.84240(2) 0.848017(9)
Ni3 Ni 0.26218(4) 0.66557(7) 0.99187(3)
Ni4 Ni 0.26689(4) 0.66626(7) 0.72335(4)
N12 N 0.0749(2) 0.8786(5) 0.7774(2)
N18 N 0.3315(3) 0.6986(6) 0.9777(2)
H3 H 0.1705 0.6374 0.9791
N21 N 0.2901(4) 0.5317(5) 0.9774(2)
N22 N 0.2326(3) 0.6982(5) 0.9256(2)
N24 N 0.0831(4) 0.8315(9) 0.9128(3)
N25 N 0.3036(3) 0.8804(7) 0.8559(3)
N26 N 0.1247(4) 0.6282(6) 0.8308(3)
N27 N 0.2213(3) 0.7717(5) 0.7528(2)
N28 N 0.3284(4) 0.7383(7) 0.7380(4)
N29 N 0.2737(5) 0.7470(8) 0.6620(4)
N30 N 0.2822(5) 0.6168(8) 0.7844(4)
N31 N 0.2036(4) 0.5911(9) 0.6989(5)
H4 H 0.2165 0.5371 0.6871
C39 C 0.3452(4) 0.7885(8) 0.9802(3)
C40 C 0.3946(5) 0.8111(12) 0.9696(5)
H47 H 0.4062 0.8741 0.9706
C41 C 0.4245(6) 0.7405(18) 0.9580(6)
H48 H 0.4572 0.7562 0.9508
C42 C 0.4103(5) 0.6453(14) 0.9560(5)
H49 H 0.4321 0.5973 0.9476
C43 C 0.3615(4) 0.6264(8) 0.9672(3)
C44 C 0.3361(5) 0.5312(8) 0.9690(3)
C45 C 0.3670(7) 0.4422(10) 0.9612(6)
H50 H 0.3442 0.3909 0.9515
H51 H 0.3866 0.4245 0.9887
H52 H 0.3897 0.4549 0.9384
C46 C 0.2608(6) 0.4455(7) 0.9857(4)
H54 H 0.2663 0.3983 0.9627
C47 C 0.2043(6) 0.4633(9) 0.9857(4)
H55 H 0.1881 0.4019 0.9901
H56 H 0.1920 0.4853 0.9558
H62 H 0.1622 0.7996 0.9861
C52 C 0.3052(5) 0.8524(7) 0.9958(3)
H66 H 0.3169 0.9857 0.9711
C54 C 0.2133(3) 0.7469(5) 0.8985(2)
C55 C 0.1923(4) 0.9443(6) 0.9024(3)
C56 C 0.1165(3) 0.8368(7) 0.8906(3)
C57 C 0.2603(3) 0.8669(6) 0.8531(3)
C58 C 0.1442(3) 0.7021(6) 0.8356(3)
C59 C 0.1108(3) 0.8674(5) 0.8021(2)
C60 C 0.2063(3) 0.7947(5) 0.7860(3)
C61 C 0.3505(5) 0.7201(10) 0.7761(5)
C62 C 0.4000(6) 0.7672(11) 0.7913(6)
H68 H 0.4166 0.7626 0.8202
C63 C 0.4168(6) 0.8162(11) 0.7582(7)
H69 H 0.4479 0.8468 0.7657
C64 C 0.3962(6) 0.8314(11) 0.7125(6)
H70 H 0.4118 0.8650 0.6905
C65 C 0.3482(5) 0.7865(7) 0.7069(5)
C66 C 0.3109(7) 0.7858(13) 0.6662(6)
C67 C 0.3307(7) 0.8466(13) 0.6255(6)
H71 H 0.3355 0.8046 0.6007
H72 H 0.3625 0.8771 0.6354
H73 H 0.3057 0.8945 0.6159
C68 C 0.2322(8) 0.7385(18) 0.6270(6)
H74 H 0.2111 0.7950 0.6293
H75 H 0.2475 0.7441 0.5987
C69 C 0.1990(9) 0.6620(16) 0.6222(8)
H76 H 0.2179 0.6076 0.6122
H77 H 0.1729 0.6773 0.5981
C70 C 0.1717(7) 0.6298(13) 0.6631(6)
H78 H 0.1539 0.6844 0.6743
H79 H 0.1462 0.5823 0.6531
C71 C 0.1731(6) 0.5565(11) 0.7324(6)
H80 H 0.1473 0.5126 0.7192
H81 H 0.1559 0.6093 0.7459
C72 C 0.2084(7) 0.5055(10) 0.7679(7)
H82 H 0.2275 0.4597 0.7516
H83 H 0.1863 0.4682 0.7855
C73 C 0.2501(6) 0.5565(11) 0.8041(6)
H84 H 0.2321 0.5924 0.8256
H85 H 0.2701 0.5074 0.8206
C74 C 0.3253(5) 0.6551(9) 0.8074(5)
C75 C 0.3384(8) 0.6392(13) 0.8533(5)
H86 H 0.3433 0.6995 0.8685
H87 H 0.3694 0.6026 0.8572
H88 H 0.3114 0.6045 0.8657
C76 C 0.1850(3) 0.9795(5) 0.8172(3)
N35 N 0.3085(3) 0.5529(5) 0.6980(3)
Ni5 Ni 0.99901(4) 0.87189(7) 0.74625(4)
W1_2 W 0.178482(10) 0.039231(19) 0.342862(8)
W2_2 W 0.321841(10) 0.34240(2) 0.651983(9)
Ni1_2 Ni 0.00099(4) 0.12811(7) 0.25375(4)
Ni3_2 Ni 0.23782(4) 0.16557(7) 0.50813(3)
N1_2 N 0.0779(2) 0.1297(5) 0.2826(3)
N2_2 N 0.2019(3) 0.2666(4) 0.3215(2)
N3_2 N 0.2115(3) 0.1375(5) 0.4417(2)
N4_2 N 0.0830(4) 0.0221(13) 0.4059(4)
N7_2 N 0.3051(3) 0.0446(7) 0.3562(3)
N11_2 N 0.0189(3) 0.1899(10) 0.1950(3)
N12_2 N 0.4251(2) 0.3786(5) 0.7226(2)
N13_2 N 0.2689(3) 0.4380(4) 0.3448(2)
N14_2 N 0.2989(3) 0.3063(5) 0.2930(2)
N15_2 N 0.1982(3) 0.3444(5) 0.2291(2)
H2_2 H 0.2092 0.3860 0.2086
N16_2 N 0.1789(3) 0.4811(5) 0.3101(3)
N18_2 N 0.1685(3) 0.1986(6) 0.5223(2)
N19_2 N 0.2361(3) 0.3102(5) 0.4948(2)
N20_2 N 0.3099(3) 0.1314(6) 0.4942(2)
H3_2 H 0.3295 0.1374 0.5209
N21_2 N 0.2099(4) 0.0317(5) 0.5226(2)
N22_2 N 0.2674(3) 0.1982(5) 0.5744(2)
N23_2 N 0.3013(4) 0.5001(6) 0.5701(3)
N24_2 N 0.4169(4) 0.3315(9) 0.5872(3)
N25_2 N 0.1964(3) 0.3804(7) 0.6441(3)
N26_2 N 0.3753(4) 0.1282(6) 0.6692(3)
N27_2 N 0.2787(3) 0.2717(5) 0.7472(2)
N28_2 N 0.1716(4) 0.2383(7) 0.7620(4)
N29_2 N 0.2263(5) 0.2470(8) 0.8380(4)
N30_2 N 0.2178(5) 0.1168(8) 0.7156(4)
N31_2 N 0.2964(4) 0.0911(9) 0.8011(5)
H4_2 H 0.2835 0.0371 0.8129
C1_2 C 0.1139(3) 0.1013(5) 0.3023(3)
C2_2 C 0.1950(3) 0.1861(5) 0.3297(2)
C3_2 C 0.1989(3) 0.1037(5) 0.4077(2)
C4_2 C 0.1162(4) 0.0270(8) 0.3839(3)
C7_2 C 0.2613(3) 0.0442(6) 0.3515(2)
C8_2 C 0.2075(3) 0.0113(5) 0.2782(2)
C20_2 C 0.0432(6) 0.0278(15) 0.1717(5)
H20_2 H 0.0752 0.0306 0.1907
C21_2 C 0.0282(5) 0.1343(14) 0.1575(5)
H21_2 H 0.0558 0.1629 0.1426
C22_2 C 0.0111(4) 0.2836(10) 0.1939(5)
C23_2 C 0.0121(6) 0.3376(13) 0.1518(5)
H23_2 H 0.0456 0.3336 0.1414
H24_2 H 0.0038 0.4034 0.1569
C24_2 C 0.3157(3) 0.4122(6) 0.3544(3)
C25_2 C 0.3467(4) 0.4635(9) 0.3883(4)
H26_2 H 0.3804 0.4460 0.3969
C26_2 C 0.3245(5) 0.5388(9) 0.4073(4)
H27_2 H 0.3441 0.5739 0.4290
C27_2 C 0.2753(5) 0.5666(8) 0.3967(3)
H28_2 H 0.2613 0.6190 0.4104
C28_2 C 0.2466(4) 0.5120(5) 0.3637(3)
C29_2 C 0.1925(4) 0.5282(6) 0.3450(3)
C30_2 C 0.1604(5) 0.5978(8) 0.3679(4)
H29_2 H 0.1255 0.5761 0.3653
H30_2 H 0.1621 0.6594 0.3539
H31_2 H 0.1728 0.6026 0.3991
C31_2 C 0.1276(4) 0.4837(8) 0.2871(4)
H32_2 H 0.1135 0.5475 0.2895
H33_2 H 0.1058 0.4396 0.3017
C32_2 C 0.1273(4) 0.4574(8) 0.2383(4)
H34_2 H 0.1503 0.5008 0.2248
H35_2 H 0.0932 0.4695 0.2240
C33_2 C 0.1422(4) 0.3547(7) 0.2263(4)
H36_2 H 0.1282 0.3100 0.2468
H37_2 H 0.1278 0.3396 0.1960
C34_2 C 0.2151(5) 0.2479(6) 0.2157(3)
H38_2 H 0.2017 0.2004 0.2353
H39_2 H 0.2007 0.2347 0.1852
C35_2 C 0.2710(4) 0.2379(6) 0.2179(3)
H40_2 H 0.2838 0.2934 0.2030
H41_2 H 0.2780 0.1826 0.1998
C36_2 C 0.3037(4) 0.2271(7) 0.2633(4)
H42_2 H 0.2937 0.1689 0.2779
H43_2 H 0.3394 0.2205 0.2576
C37_2 C 0.3312(3) 0.3298(7) 0.3261(4)
C38_2 C 0.3802(4) 0.2773(10) 0.3390(5)
H44_2 H 0.3727 0.2129 0.3474
H45_2 H 0.3988 0.3092 0.3639
H46_2 H 0.4006 0.2763 0.3138
C39_2 C 0.1548(4) 0.2885(8) 0.5198(3)
C40_2 C 0.1054(5) 0.3111(12) 0.5304(5)
H47_2 H 0.0938 0.3741 0.5294
C41_2 C 0.0755(6) 0.2405(18) 0.5420(6)
H48_2 H 0.0428 0.2562 0.5492
C42_2 C 0.0897(5) 0.1453(14) 0.5440(5)
H49_2 H 0.0679 0.0973 0.5524
C43_2 C 0.1385(4) 0.1264(8) 0.5328(3)
C44_2 C 0.1639(5) 0.0312(8) 0.5310(3)
C48_2 C 0.3153(5) 0.0325(9) 0.4810(4)
H57_2 H 0.3511 0.0192 0.4781
H58_2 H 0.2966 0.0226 0.4517
C49_2 C 0.3291(4) 0.2045(9) 0.4646(4)
H59_2 H 0.3641 0.1889 0.4595
H60_2 H 0.3089 0.2019 0.4357
C50_2 C 0.3277(5) 0.3019(9) 0.4818(4)
H61_2 H 0.3536 0.3385 0.4682
H62_2 H 0.3378 0.2996 0.5139
C51_2 C 0.2776(5) 0.3577(8) 0.4749(3)
H63_2 H 0.2826 0.4208 0.4882
H64_2 H 0.2684 0.3659 0.4429
C52_2 C 0.1948(5) 0.3524(7) 0.5042(3)
C53_2 C 0.1835(6) 0.4576(8) 0.4995(6)
H65_2 H 0.2094 0.4879 0.4838
H66_2 H 0.1831 0.4857 0.5289
H67_2 H 0.1507 0.4664 0.4829
C54_2 C 0.2867(3) 0.2469(5) 0.6015(2)
C55_2 C 0.3077(4) 0.4443(6) 0.5976(3)
C56_2 C 0.3835(3) 0.3368(7) 0.6094(3)
C57_2 C 0.2397(3) 0.3669(6) 0.6469(3)
C58_2 C 0.3558(3) 0.2021(6) 0.6644(3)
C59_2 C 0.3892(3) 0.3674(5) 0.6979(2)
C60_2 C 0.2937(3) 0.2947(5) 0.7140(3)
C61_2 C 0.1495(5) 0.2201(10) 0.7239(5)
C62_2 C 0.1000(6) 0.2672(11) 0.7087(6)
H68_2 H 0.0834 0.2626 0.6798
C63_2 C 0.0832(6) 0.3162(11) 0.7418(7)
H69_2 H 0.0521 0.3468 0.7343
C64_2 C 0.1038(6) 0.3314(11) 0.7875(6)
H70_2 H 0.0882 0.3650 0.8095
C65_2 C 0.1518(5) 0.2865(7) 0.7931(5)
C66_2 C 0.1891(7) 0.2858(13) 0.8338(6)
C67_2 C 0.1693(7) 0.3466(13) 0.8745(6)
H71_2 H 0.1645 0.3046 0.8993
H72_2 H 0.1375 0.3771 0.8646
H73_2 H 0.1943 0.3945 0.8841
C68_2 C 0.2678(8) 0.2385(18) 0.8730(6)
H74_2 H 0.2889 0.2950 0.8707
H75_2 H 0.2525 0.2441 0.9013
C69_2 C 0.3010(9) 0.1620(16) 0.8778(8)
H76_2 H 0.2821 0.1076 0.8878
H77_2 H 0.3271 0.1773 0.9019
C70_2 C 0.3283(7) 0.1298(13) 0.8369(6)
H78_2 H 0.3461 0.1844 0.8257
H79_2 H 0.3538 0.0823 0.8469
C71_2 C 0.3269(6) 0.0565(11) 0.7676(6)
H80_2 H 0.3527 0.0126 0.7808
H81_2 H 0.3441 0.1093 0.7541
C72_2 C 0.2916(7) 0.0055(10) 0.7321(7)
C73_2 C 0.2499(6) 0.0565(11) 0.6959(6)
H84_2 H 0.2679 0.0924 0.6744
H85_2 H 0.2299 0.0074 0.6794
C74_2 C 0.1747(5) 0.1551(9) 0.6926(5)
C75_2 C 0.1616(8) 0.1392(13) 0.6467(5)
H86_2 H 0.1567 0.1995 0.6315
H87_2 H 0.1306 0.1026 0.6428
H88_2 H 0.1886 0.1045 0.6343
C76_2 C 0.3150(3) 0.4795(5) 0.6828(3)
Ni5_2 Ni 0.50099(4) 0.37189(7) 0.75375(4)
N5_2 N 0.1103(3) 0.8589(5) 0.2951(3)
N6_2 N 0.2185(5) 0.8467(6) 0.4004(3)
N10_2 N 0.0103(3) 0.9869(6) 0.2431(4)
H1_2 H 0.0432 0.9735 0.2536
C5_2 C 0.1345(3) 0.9194(5) 0.3123(3)
C6_2 C 0.2038(4) 0.9129(5) 0.3803(3)
H14_2 H 0.0241 0.9547 0.3268
C19_2 C 0.0068(5) 0.9670(11) 0.1958(5)
H18_2 H 0.0144 0.8999 0.1912
H19_2 H 0.0501 0.9938 0.1445
C45_2 C 0.1330(7) 0.9422(10) 0.5388(6)
H50_2 H 0.1558 0.8909 0.5485
H51_2 H 0.1134 0.9245 0.5113
H52_2 H 0.1103 0.9549 0.5616
C46_2 C 0.2392(6) 0.9455(7) 0.5143(4)
H53_2 H 0.2265 0.9188 0.4854
H54_2 H 0.2337 0.8983 0.5373
C47_2 C 0.2957(6) 0.9633(9) 0.5143(4)
H55_2 H 0.3119 0.9019 0.5099
H56_2 H 0.3080 0.9853 0.5442
H82_2 H 0.2725 0.9597 0.7484
H83_2 H 0.3137 0.9682 0.7145
N8_2 N 0.9908(3) 0.2631(5) 0.2677(3)
N9_2 N 0.9747(3) 0.1223(7) 0.3179(3)
C9_2 C 0.9978(4) 0.3261(8) 0.2362(5)
C10_2 C 0.9910(5) 0.4254(9) 0.2446(7)
H5_2 H 0.9940 0.4734 0.2234
C11_2 C 0.9791(7) 0.4420(13) 0.2890(10)
H6_2 H 0.9752 0.5057 0.2971
C12_2 C 0.9725(5) 0.3750(11) 0.3222(6)
H7_2 H 0.9654 0.3916 0.3511
C13_2 C 0.9771(4) 0.2853(8) 0.3089(4)
C14_2 C 0.9663(4) 0.2008(10) 0.3352(4)
C15_2 C 0.9444(7) 0.2177(15) 0.3797(5)
H8_2 H 0.9095 0.1964 0.3777
H9_2 H 0.9458 0.2849 0.3867
H10_2 H 0.9641 0.1828 0.4030
C16_2 C 0.9621(5) 0.0296(10) 0.3381(5)
H11_2 H 0.9717 0.0323 0.3703
H12_2 H 0.9254 0.0200 0.3336
H22_2 H 0.9979 0.1335 0.1364
H25_2 H 0.9874 0.3111 0.1294
N33_2 N 0.9251(2) 0.1214(5) 0.2226(2)
W2_3 W 0.821841(10) 0.15760(2) 0.151983(9)
Ni3_3 Ni 0.73782(4) 0.33443(7) 0.00813(3)
Ni4_2 Ni 0.73311(4) 0.33374(7) 0.27665(4)
N18_3 N 0.6685(3) 0.3014(6) 0.0223(2)
H3_3 H 0.8295 0.3626 0.0209
N21_3 N 0.7099(4) 0.4683(5) 0.0226(2)
N22_3 N 0.7674(3) 0.3018(5) 0.0744(2)
N24_3 N 0.9169(4) 0.1685(9) 0.0872(3)
N25_3 N 0.6964(3) 0.1196(7) 0.1441(3)
N26_3 N 0.8753(4) 0.3718(6) 0.1692(3)
N27_3 N 0.7787(3) 0.2283(5) 0.2472(2)
N28_3 N 0.6716(4) 0.2617(7) 0.2620(4)
N29_3 N 0.7263(5) 0.2530(8) 0.3380(4)
N30_3 N 0.7178(5) 0.3832(8) 0.2156(4)
N31_3 N 0.7964(4) 0.4089(9) 0.3011(5)
H4_3 H 0.7835 0.4629 0.3129
C39_3 C 0.6548(4) 0.2115(8) 0.0198(3)
C40_3 C 0.6054(5) 0.1889(12) 0.0304(5)
H47_3 H 0.5938 0.1259 0.0294
C41_3 C 0.5755(6) 0.2595(18) 0.0420(6)
H48_3 H 0.5428 0.2438 0.0492
C42_3 C 0.5897(5) 0.3547(14) 0.0440(5)
H49_3 H 0.5679 0.4027 0.0524
C43_3 C 0.6385(4) 0.3736(8) 0.0328(3)
C44_3 C 0.6639(5) 0.4688(8) 0.0310(3)
C45_3 C 0.6330(7) 0.5578(10) 0.0388(6)
H50_3 H 0.6558 0.6091 0.0485
H51_3 H 0.6134 0.5755 0.0113
H52_3 H 0.6103 0.5451 0.0616
C46_3 C 0.7392(6) 0.5545(7) 0.0143(4)
H54_3 H 0.7337 0.6017 0.0373
C47_3 C 0.7957(6) 0.5367(9) 0.0143(4)
H55_3 H 0.8119 0.5981 0.0099
H56_3 H 0.8080 0.5147 0.0442
H62_3 H 0.8378 0.2004 0.0139
C52_3 C 0.6948(5) 0.1476(7) 0.0042(3)
H66_3 H 0.6831 0.0143 0.0289
C54_3 C 0.7867(3) 0.2531(5) 0.1015(2)
C55_3 C 0.8077(4) 0.0557(6) 0.0976(3)
C56_3 C 0.8835(3) 0.1632(7) 0.1094(3)
C57_3 C 0.7397(3) 0.1331(6) 0.1469(3)
C58_3 C 0.8558(3) 0.2979(6) 0.1644(3)
C59_3 C 0.8892(3) 0.1326(5) 0.1979(2)
C60_3 C 0.7937(3) 0.2053(5) 0.2140(3)
C61_3 C 0.6495(5) 0.2799(10) 0.2239(5)
C62_3 C 0.6000(6) 0.2328(11) 0.2087(6)
H68_3 H 0.5834 0.2374 0.1798
C63_3 C 0.5832(6) 0.1838(11) 0.2418(7)
H69_3 H 0.5521 0.1532 0.2343
C64_3 C 0.6038(6) 0.1686(11) 0.2875(6)
H70_3 H 0.5882 0.1350 0.3095
C65_3 C 0.6518(5) 0.2135(7) 0.2931(5)
C66_3 C 0.6891(7) 0.2142(13) 0.3338(6)
C67_3 C 0.6693(7) 0.1534(13) 0.3745(6)
H71_3 H 0.6645 0.1954 0.3993
H72_3 H 0.6375 0.1229 0.3646
H73_3 H 0.6943 0.1055 0.3841
C68_3 C 0.7678(8) 0.2615(18) 0.3730(6)
H74_3 H 0.7889 0.2050 0.3707
H75_3 H 0.7525 0.2559 0.4013
C69_3 C 0.8010(9) 0.3380(16) 0.3778(8)
H76_3 H 0.7821 0.3924 0.3878
H77_3 H 0.8271 0.3227 0.4019
C70_3 C 0.8283(7) 0.3702(13) 0.3369(6)
H78_3 H 0.8461 0.3156 0.3257
H79_3 H 0.8538 0.4177 0.3469
C71_3 C 0.8269(6) 0.4435(11) 0.2676(6)
H80_3 H 0.8527 0.4874 0.2808
H81_3 H 0.8441 0.3907 0.2541
C72_3 C 0.7916(7) 0.4945(10) 0.2321(7)
H82_3 H 0.7725 0.5403 0.2484
H83_3 H 0.8137 0.5318 0.2145
C73_3 C 0.7499(6) 0.4435(11) 0.1959(6)
H84_3 H 0.7679 0.4076 0.1744
H85_3 H 0.7299 0.4926 0.1794
C74_3 C 0.6747(5) 0.3449(9) 0.1926(5)
C75_3 C 0.6616(8) 0.3608(13) 0.1467(5)
H86_3 H 0.6567 0.3005 0.1315
H87_3 H 0.6306 0.3974 0.1428
H88_3 H 0.6886 0.3955 0.1343
C76_3 C 0.8150(3) 0.0205(5) 0.1828(3)
N35_2 N 0.6915(3) 0.4471(5) 0.3020(3)
W1_3 W 0.678482(10) 0.460769(19) 0.842862(8)
Ni2_2 Ni 0.73372(4) 0.11574(6) 0.78995(3)
N1_3 N 0.5779(2) 0.3703(5) 0.7826(3)
N2_3 N 0.7019(3) 0.2334(4) 0.8215(2)
N3_3 N 0.7115(3) 0.3625(5) 0.9417(2)
N4_3 N 0.5830(4) 0.4779(13) 0.9059(4)
N5_3 N 0.6103(3) 0.6411(5) 0.7951(3)
N6_3 N 0.7185(5) 0.6533(6) 0.9004(3)
N7_3 N 0.8051(3) 0.4554(7) 0.8562(3)
N8_3 N 0.4908(3) 0.2369(5) 0.7677(3)
N9_3 N 0.4747(3) 0.3777(7) 0.8179(3)
N10_3 N 0.5103(3) 0.5131(6) 0.7431(4)
H1_3 H 0.5432 0.5265 0.7536
N11_3 N 0.5189(3) 0.3101(10) 0.6950(3)
N13_3 N 0.7689(3) 0.0620(4) 0.8448(2)
N14_3 N 0.7989(3) 0.1937(5) 0.7930(2)
N15_3 N 0.6982(3) 0.1556(5) 0.7291(2)
H2_3 H 0.7092 0.1140 0.7086
N16_3 N 0.6789(3) 0.0189(5) 0.8101(3)
N17_2 N 0.7271(3) 0.5075(4) 0.7471(2)
N19_3 N 0.7361(3) 0.1898(5) 0.9948(2)
N20_3 N 0.8099(3) 0.3686(6) 0.9942(2)
C1_3 C 0.6139(3) 0.3987(5) 0.8023(3)
C2_3 C 0.6950(3) 0.3139(5) 0.8297(2)
C3_3 C 0.6989(3) 0.3963(5) 0.9077(2)
C4_3 C 0.6162(4) 0.4730(8) 0.8839(3)
C5_3 C 0.6345(3) 0.5806(5) 0.8123(3)
C6_3 C 0.7038(4) 0.5871(5) 0.8803(3)
C7_3 C 0.7613(3) 0.4558(6) 0.8515(2)
C8_3 C 0.7075(3) 0.4887(5) 0.7782(2)
C9_3 C 0.4978(4) 0.1739(8) 0.7362(5)
C10_3 C 0.4910(5) 0.0746(9) 0.7446(7)
H5_3 H 0.4940 0.0266 0.7234
C11_3 C 0.4791(7) 0.0580(13) 0.7890(10)
C12_3 C 0.4725(5) 0.1250(11) 0.8222(6)
H7_3 H 0.4654 0.1084 0.8511
C13_3 C 0.4771(4) 0.2147(8) 0.8089(4)
C14_3 C 0.4663(4) 0.2992(10) 0.8352(4)
C15_3 C 0.4444(7) 0.2823(15) 0.8797(5)
H8_3 H 0.4095 0.3036 0.8777
H9_3 H 0.4458 0.2151 0.8867
H10_3 H 0.4641 0.3172 0.9030
C16_3 C 0.4621(5) 0.4704(10) 0.8381(5)
H11_3 H 0.4717 0.4677 0.8703
H12_3 H 0.4254 0.4800 0.8336
C17_2 C 0.4875(5) 0.5528(9) 0.8194(6)
H13_2 H 0.4772 0.6096 0.8350
H14_3 H 0.5241 0.5453 0.8268
C18_2 C 0.4785(5) 0.5721(8) 0.7691(6)
H15_2 H 0.4856 0.6390 0.7635
H16_2 H 0.4429 0.5602 0.7592
C19_3 C 0.5068(5) 0.5330(11) 0.6958(5)
H17_2 H 0.4720 0.5212 0.6829
H18_3 H 0.5144 0.6001 0.6912
C20_3 C 0.5432(6) 0.4722(15) 0.6717(5)
H19_3 H 0.5501 0.5062 0.6445
H20_3 H 0.5752 0.4694 0.6907
C21_3 C 0.5282(5) 0.3657(14) 0.6575(5)
H21_3 H 0.5558 0.3371 0.6426
H22_3 H 0.4979 0.3665 0.6364
C22_3 C 0.5111(4) 0.2164(10) 0.6939(5)
C23_3 C 0.5121(6) 0.1624(13) 0.6518(5)
H23_3 H 0.5456 0.1664 0.6414
H24_3 H 0.5038 0.0966 0.6569
H25_3 H 0.4874 0.1889 0.6294
C24_3 C 0.8157(3) 0.0878(6) 0.8544(3)
C25_3 C 0.8467(4) 0.0365(9) 0.8883(4)
H26_3 H 0.8804 0.0540 0.8969
C31_3 C 0.6276(4) 0.0163(8) 0.7871(4)
H33_3 H 0.6058 0.0604 0.8017
C32_3 C 0.6273(4) 0.0426(8) 0.7383(4)
H35_3 H 0.5932 0.0305 0.7240
C33_3 C 0.6422(4) 0.1453(7) 0.7263(4)
H36_3 H 0.6282 0.1900 0.7468
H37_3 H 0.6278 0.1604 0.6960
C34_3 C 0.7151(5) 0.2521(6) 0.7157(3)
H38_3 H 0.7017 0.2996 0.7353
H39_3 H 0.7007 0.2653 0.6852
C35_3 C 0.7710(4) 0.2621(6) 0.7179(3)
H40_3 H 0.7838 0.2066 0.7030
H41_3 H 0.7780 0.3174 0.6998
C36_3 C 0.8037(4) 0.2729(7) 0.7633(4)
H42_3 H 0.7937 0.3311 0.7779
H43_3 H 0.8394 0.2795 0.7576
C37_3 C 0.8312(3) 0.1702(7) 0.8261(4)
C38_3 C 0.8802(4) 0.2227(10) 0.8390(5)
H44_3 H 0.8727 0.2871 0.8474
H45_3 H 0.8988 0.1908 0.8639
H46_3 H 0.9006 0.2237 0.8138
H53_3 H 0.7265 0.5812 0.9854
C48_3 C 0.8153(5) 0.4675(9) 0.9810(4)
H57_3 H 0.8511 0.4808 0.9781
H58_3 H 0.7966 0.4774 0.9517
C49_3 C 0.8291(4) 0.2955(9) 0.9646(4)
H59_3 H 0.8641 0.3111 0.9595
H60_3 H 0.8089 0.2981 0.9357
C50_3 C 0.8277(5) 0.1981(9) 0.9818(4)
H61_3 H 0.8536 0.1615 0.9682
C51_3 C 0.7776(5) 0.1423(8) 0.9749(3)
H63_3 H 0.7826 0.0792 0.9882
H64_3 H 0.7684 0.1341 0.9429
C53_3 C 0.6835(6) 0.0424(8) 0.9995(6)
H65_3 H 0.7094 0.0121 0.9838
H67_3 H 0.6507 0.0336 0.9829
Ni6_2 Ni 0.76628(4) 0.61574(6) 0.71005(3)
N34_2 N 0.7729(3) 0.0075(4) 0.7529(2)
N23_3 N 0.8013(4) 0.9999(6) 0.0701(3)
N32_2 N 0.8085(3) 0.9471(5) 0.1980(3)
Ni7_2 Ni 0.76689(4) 0.83374(7) 0.22335(4)
N8_4 N 0.0092(3) 0.7369(5) 0.7323(3)
N9_4 N 0.0253(3) 0.8777(7) 0.6821(3)
C9_4 C 0.0022(4) 0.6739(8) 0.7638(5)
C10_4 C 0.0090(5) 0.5746(9) 0.7554(7)
H5_4 H 0.0060 0.5266 0.7766
C11_4 C 0.0209(7) 0.5580(13) 0.7110(10)
H6_3 H 0.0248 0.4943 0.7029
C12_4 C 0.0275(5) 0.6250(11) 0.6778(6)
H7_4 H 0.0346 0.6084 0.6489
C13_4 C 0.0229(4) 0.7147(8) 0.6911(4)
C14_4 C 0.0337(4) 0.7992(10) 0.6648(4)
C15_4 C 0.0556(7) 0.7823(15) 0.6203(5)
H8_4 H 0.0905 0.8036 0.6223
H9_4 H 0.0542 0.7151 0.6133
H10_4 H 0.0359 0.8172 0.5970
C16_4 C 0.0379(5) 0.9704(10) 0.6619(5)
H11_4 H 0.0283 0.9677 0.6297
H12_4 H 0.0746 0.9800 0.6664
H22_4 H 0.0021 0.8665 0.8636
H25_4 H 0.0126 0.6889 0.8706
N5_4 N 0.8897(3) 0.1411(5) 0.7049(3)
N6_4 N 0.7815(5) 0.1533(6) 0.5996(3)
N10_4 N 0.9897(3) 0.0131(6) 0.7569(4)
H1_4 H 0.9568 0.0265 0.7464
C5_4 C 0.8655(3) 0.0806(5) 0.6877(3)
C6_4 C 0.7962(4) 0.0871(5) 0.6197(3)
H14_4 H 0.9759 0.0453 0.6732
C19_4 C 0.9932(5) 0.0330(11) 0.8042(5)
H18_4 H 0.9856 0.1001 0.8088
H19_4 H 0.9499 0.0062 0.8555
C45_4 C 0.8670(7) 0.0578(10) 0.4612(6)
H50_4 H 0.8442 0.1091 0.4515
H51_4 H 0.8866 0.0755 0.4887
H52_4 H 0.8897 0.0451 0.4384
C46_4 C 0.7608(6) 0.0545(7) 0.4857(4)
H53_4 H 0.7735 0.0812 0.5146
H54_4 H 0.7663 0.1017 0.4627
C47_4 C 0.7043(6) 0.0367(9) 0.4857(4)
H55_4 H 0.6881 0.0981 0.4901
H56_4 H 0.6920 0.0147 0.4558
H82_4 H 0.7275 0.0403 0.2516
H83_4 H 0.6863 0.0318 0.2855
W1_4 W 0.821518(10) 0.960769(19) 0.657138(8)
W2_4 W 0.678159(10) 0.65760(2) 0.348017(9)
Ni3_4 Ni 0.76218(4) 0.83443(7) 0.49187(3)
N1_4 N 0.9221(2) 0.8703(5) 0.7174(3)
N2_4 N 0.7981(3) 0.7334(4) 0.6785(2)
N3_4 N 0.7885(3) 0.8625(5) 0.5583(2)
N4_4 N 0.9170(4) 0.9779(13) 0.5941(4)
N7_4 N 0.6949(3) 0.9554(7) 0.6438(3)
N11_4 N 0.9811(3) 0.8101(10) 0.8050(3)
N13_4 N 0.7311(3) 0.5620(4) 0.6552(2)
N14_4 N 0.7011(3) 0.6937(5) 0.7070(2)
N15_4 N 0.8018(3) 0.6556(5) 0.7709(2)
H2_4 H 0.7908 0.6140 0.7914
N16_4 N 0.8211(3) 0.5189(5) 0.6899(3)
N18_4 N 0.8315(3) 0.8014(6) 0.4777(2)
N19_4 N 0.7639(3) 0.6898(5) 0.5052(2)
N20_4 N 0.6901(3) 0.8686(6) 0.5058(2)
H3_4 H 0.6705 0.8626 0.4791
N21_4 N 0.7901(4) 0.9683(5) 0.4774(2)
N22_4 N 0.7326(3) 0.8018(5) 0.4256(2)
N23_4 N 0.6987(4) 0.4999(6) 0.4299(3)
N24_4 N 0.5831(4) 0.6685(9) 0.4128(3)
N25_4 N 0.8036(3) 0.6196(7) 0.3559(3)
N26_4 N 0.6247(4) 0.8718(6) 0.3308(3)
N27_4 N 0.7213(3) 0.7283(5) 0.2528(2)
N28_4 N 0.8284(4) 0.7617(7) 0.2380(4)
N29_4 N 0.7737(5) 0.7530(8) 0.1620(4)
N30_4 N 0.7822(5) 0.8832(8) 0.2844(4)
N31_4 N 0.7036(4) 0.9089(9) 0.1989(5)
H4_4 H 0.7165 0.9629 0.1871
C1_4 C 0.8861(3) 0.8987(5) 0.6977(3)
C2_4 C 0.8050(3) 0.8139(5) 0.6703(2)
C3_4 C 0.8011(3) 0.8963(5) 0.5923(2)
C4_4 C 0.8838(4) 0.9730(8) 0.6161(3)
C7_4 C 0.7387(3) 0.9558(6) 0.6485(2)
C8_4 C 0.7925(3) 0.9887(5) 0.7218(2)
C20_4 C 0.9568(6) 0.9722(15) 0.8283(5)
H20_4 H 0.9248 0.9694 0.8093
C21_4 C 0.9718(5) 0.8657(14) 0.8425(5)
H21_4 H 0.9442 0.8371 0.8574
C22_4 C 0.9889(4) 0.7164(10) 0.8061(5)
C23_4 C 0.9879(6) 0.6624(13) 0.8482(5)
H23_4 H 0.9544 0.6664 0.8586
H24_4 H 0.9962 0.5966 0.8431
C24_4 C 0.6843(3) 0.5878(6) 0.6456(3)
C25_4 C 0.6533(4) 0.5365(9) 0.6117(4)
H26_4 H 0.6196 0.5540 0.6031
C26_3 C 0.6755(5) 0.4612(9) 0.5927(4)
H27_3 H 0.6559 0.4261 0.5710
C27_3 C 0.7247(5) 0.4334(8) 0.6033(3)
H28_3 H 0.7387 0.3810 0.5896
C28_3 C 0.7534(4) 0.4880(5) 0.6363(3)
C29_3 C 0.8075(4) 0.4718(6) 0.6550(3)
C30_3 C 0.8396(5) 0.4022(8) 0.6321(4)
H29_3 H 0.8745 0.4239 0.6347
H30_3 H 0.8379 0.3406 0.6461
H31_3 H 0.8272 0.3974 0.6009
C31_4 C 0.8724(4) 0.5163(8) 0.7129(4)
H32_3 H 0.8865 0.4525 0.7105
H33_4 H 0.8942 0.5604 0.6983
C32_4 C 0.8727(4) 0.5426(8) 0.7617(4)
H34_3 H 0.8497 0.4992 0.7752
H35_4 H 0.9068 0.5305 0.7760
C33_4 C 0.8578(4) 0.6453(7) 0.7737(4)
H36_4 H 0.8718 0.6900 0.7532
H37_4 H 0.8722 0.6604 0.8040
C34_4 C 0.7849(5) 0.7521(6) 0.7843(3)
H38_4 H 0.7983 0.7996 0.7647
H39_4 H 0.7993 0.7653 0.8148
C35_4 C 0.7290(4) 0.7621(6) 0.7821(3)
H40_4 H 0.7162 0.7066 0.7970
H41_4 H 0.7220 0.8174 0.8002
C36_4 C 0.6963(4) 0.7729(7) 0.7367(4)
H42_4 H 0.7063 0.8311 0.7221
H43_4 H 0.6606 0.7795 0.7424
C37_4 C 0.6688(3) 0.6702(7) 0.6739(4)
C38_4 C 0.6198(4) 0.7227(10) 0.6610(5)
H44_4 H 0.6273 0.7871 0.6526
H45_4 H 0.6012 0.6908 0.6361
H46_4 H 0.5994 0.7237 0.6862
C39_4 C 0.8452(4) 0.7115(8) 0.4802(3)
C40_4 C 0.8946(5) 0.6889(12) 0.4696(5)
H47_4 H 0.9062 0.6259 0.4706
C41_4 C 0.9245(6) 0.7595(18) 0.4580(6)
H48_4 H 0.9572 0.7438 0.4508
C42_4 C 0.9103(5) 0.8547(14) 0.4560(5)
H49_4 H 0.9321 0.9027 0.4476
C43_4 C 0.8615(4) 0.8736(8) 0.4672(3)
C44_4 C 0.8361(5) 0.9688(8) 0.4690(3)
C48_4 C 0.6847(5) 0.9675(9) 0.5190(4)
H57_4 H 0.6489 0.9808 0.5219
H58_4 H 0.7034 0.9774 0.5483
C49_4 C 0.6709(4) 0.7955(9) 0.5354(4)
H59_4 H 0.6359 0.8111 0.5405
H60_4 H 0.6911 0.7981 0.5643
C50_4 C 0.6723(5) 0.6981(9) 0.5182(4)
H61_4 H 0.6464 0.6615 0.5318
H62_4 H 0.6622 0.7004 0.4861
C51_4 C 0.7224(5) 0.6423(8) 0.5251(3)
H63_4 H 0.7174 0.5792 0.5118
H64_4 H 0.7316 0.6341 0.5571
C52_4 C 0.8052(5) 0.6476(7) 0.4958(3)
C53_4 C 0.8165(6) 0.5424(8) 0.5005(6)
H65_4 H 0.7906 0.5121 0.5162
H66_4 H 0.8169 0.5143 0.4711
H67_4 H 0.8493 0.5336 0.5171
C54_4 C 0.7133(3) 0.7531(5) 0.3985(2)
C55_4 C 0.6923(4) 0.5557(6) 0.4024(3)
C56_4 C 0.6165(3) 0.6632(7) 0.3906(3)
C57_4 C 0.7603(3) 0.6331(6) 0.3531(3)
C58_4 C 0.6442(3) 0.7979(6) 0.3356(3)
C59_4 C 0.6108(3) 0.6326(5) 0.3021(2)
C60_4 C 0.7063(3) 0.7053(5) 0.2860(3)
C61_4 C 0.8505(5) 0.7799(10) 0.2761(5)
C62_4 C 0.9000(6) 0.7328(11) 0.2913(6)
H68_4 H 0.9166 0.7374 0.3202
C63_4 C 0.9168(6) 0.6838(11) 0.2582(7)
H69_4 H 0.9479 0.6532 0.2657
C64_4 C 0.8962(6) 0.6686(11) 0.2125(6)
H70_4 H 0.9118 0.6350 0.1905
C65_4 C 0.8482(5) 0.7135(7) 0.2069(5)
C66_4 C 0.8109(7) 0.7142(13) 0.1662(6)
C67_4 C 0.8307(7) 0.6534(13) 0.1255(6)
H71_4 H 0.8355 0.6954 0.1007
H72_4 H 0.8625 0.6229 0.1354
H73_4 H 0.8057 0.6055 0.1159
C68_4 C 0.7322(8) 0.7615(18) 0.1270(6)
H74_4 H 0.7111 0.7050 0.1293
H75_4 H 0.7475 0.7559 0.0987
C69_4 C 0.6990(9) 0.8380(16) 0.1222(8)
H76_4 H 0.7179 0.8924 0.1122
H77_4 H 0.6729 0.8227 0.0981
C70_4 C 0.6717(7) 0.8702(13) 0.1631(6)
H78_4 H 0.6539 0.8156 0.1743
H79_4 H 0.6462 0.9177 0.1531
C71_4 C 0.6731(6) 0.9435(11) 0.2324(6)
H80_4 H 0.6473 0.9874 0.2192
H81_4 H 0.6559 0.8907 0.2459
C72_4 C 0.7084(7) 0.9945(10) 0.2679(7)
C73_4 C 0.7501(6) 0.9435(11) 0.3041(6)
H84_4 H 0.7321 0.9076 0.3256
H85_4 H 0.7701 0.9926 0.3206
C74_4 C 0.8253(5) 0.8449(9) 0.3074(5)
C75_4 C 0.8384(8) 0.8608(13) 0.3533(5)
H86_4 H 0.8433 0.8005 0.3685
H87_4 H 0.8694 0.8974 0.3572
H88_4 H 0.8114 0.8955 0.3657
C76_4 C 0.6850(3) 0.5205(5) 0.3172(3)
C17_3 C 0.9875(5) 0.9472(9) 0.3194(6)
H13_3 H 0.9772 0.8904 0.3350
C18_3 C 0.9785(5) 0.9279(8) 0.2691(6)
H15_3 H 0.9856 0.8610 0.2635
H16_3 H 0.9429 0.9398 0.2592
H17_3 H 0.9720 0.9788 0.1829
H6_4 H 0.4752 0.9943 0.7971
C26_4 C 0.8245(5) 0.9612(9) 0.9073(4)
H27_4 H 0.8441 0.9261 0.9290
C27_4 C 0.7753(5) 0.9334(8) 0.8967(3)
H28_4 H 0.7613 0.8810 0.9104
C28_4 C 0.7466(4) 0.9880(5) 0.8637(3)
C29_4 C 0.6925(4) 0.9718(6) 0.8450(3)
C30_4 C 0.6604(5) 0.9022(8) 0.8679(4)
H29_4 H 0.6255 0.9239 0.8653
H30_4 H 0.6621 0.8406 0.8539
H31_4 H 0.6728 0.8974 0.8991
H32_4 H 0.6135 0.9525 0.7895
H34_4 H 0.6503 0.9992 0.7248
C17_4 C 0.0125(5) 0.0528(9) 0.6806(6)
H13_4 H 0.0228 0.1096 0.6650
C18_4 C 0.0215(5) 0.0721(8) 0.7309(6)
H15_4 H 0.0144 0.1390 0.7365
H16_4 H 0.0571 0.0602 0.7408
H17_4 H 0.0280 0.0212 0.8171
loop_
_geom_bond_atom_site_label_1
_geom_bond_atom_site_label_2
_geom_bond_site_symmetry_1
_geom_bond_site_symmetry_2
H27 C26 1_555 1_555
C27 C26 1_555 1_555
H28 C27 1_555 1_555
C30 C29 1_555 1_555
H29 C30 1_555 1_555
H30 C30 1_555 1_555
H31 C30 1_555 1_555
C27 C28 1_555 1_555
C28 C29 1_555 1_555
Ni7 N32 1_555 1_555
W1 C1 1_555 1_555
Ni1 N1 1_555 1_555
Ni2 N2 1_555 1_555
N1 C1 1_555 1_555
N2 C2 1_555 1_555
N3 C3 1_555 1_555
N4 C4 1_555 1_555
N5 C5 1_555 1_555
N6 C6 1_555 1_555
N7 C7 1_555 1_555
N8 Ni1 1_555 1_555
N9 Ni1 1_555 1_555
N10 Ni1 1_555 1_555
H1 N10 1_555 1_555
N11 Ni1 1_555 1_555
N13 Ni2 1_555 1_555
N14 Ni2 1_555 1_555
N15 Ni2 1_555 1_555
H2 N15 1_555 1_555
N16 Ni2 1_555 1_555
N17 C8 1_555 1_555
C2 W1 1_555 1_555
C3 W1 1_555 1_555
C4 W1 1_555 1_555
C5 W1 1_555 1_555
C6 W1 1_555 1_555
C7 W1 1_555 1_555
C8 W1 1_555 1_555
C9 N8 1_555 1_555
C10 C9 1_555 1_555
H5 C10 1_555 1_555
C11 C10 1_555 1_555
C12 C11 1_555 1_555
H7 C12 1_555 1_555
C13 N8 1_555 1_555
C14 N9 1_555 1_555
C15 C14 1_555 1_555
H8 C15 1_555 1_555
H9 C15 1_555 1_555
H10 C15 1_555 1_555
C16 N9 1_555 1_555
H11 C16 1_555 1_555
H12 C16 1_555 1_555
C17 C16 1_555 1_555
H13 C17 1_555 1_555
H14 C17 1_555 1_555
C18 N10 1_555 1_555
H15 C18 1_555 1_555
H16 C18 1_555 1_555
C19 N10 1_555 1_555
H17 C19 1_555 1_555
H18 C19 1_555 1_555
C20 C19 1_555 1_555
H19 C20 1_555 1_555
H20 C20 1_555 1_555
C21 N11 1_555 1_555
H21 C21 1_555 1_555
H22 C21 1_555 1_555
C22 N11 1_555 1_555
C23 C22 1_555 1_555
H23 C23 1_555 1_555
H24 C23 1_555 1_555
H25 C23 1_555 1_555
C24 N13 1_555 1_555
C25 C24 1_555 1_555
H26 C25 1_555 1_555
C31 N16 1_555 1_555
H33 C31 1_555 1_555
C32 C31 1_555 1_555
H35 C32 1_555 1_555
C33 N15 1_555 1_555
H36 C33 1_555 1_555
H37 C33 1_555 1_555
C34 N15 1_555 1_555
H38 C34 1_555 1_555
H39 C34 1_555 1_555
C35 C34 1_555 1_555
H40 C35 1_555 1_555
H41 C35 1_555 1_555
C36 N14 1_555 1_555
H42 C36 1_555 1_555
H43 C36 1_555 1_555
C37 N14 1_555 1_555
C38 C37 1_555 1_555
H44 C38 1_555 1_555
H45 C38 1_555 1_555
H46 C38 1_555 1_555
C48 N20 1_555 1_555
H57 C48 1_555 1_555
H58 C48 1_555 1_555
C49 N20 1_555 1_555
H59 C49 1_555 1_555
H60 C49 1_555 1_555
C50 C49 1_555 1_555
H61 C50 1_555 1_555
C51 N19 1_555 1_555
H63 C51 1_555 1_555
H64 C51 1_555 1_555
H65 C53 1_555 1_555
H67 C53 1_555 1_555
Ni6 N17 1_555 1_555
N33 Ni1 1_555 1_555
N34 Ni2 1_555 1_555
C9 C22 1_555 1_555
C12 C13 1_555 1_555
C13 C14 1_555 1_555
C17 C18 1_555 1_555
C20 C21 1_555 1_555
C24 C37 1_555 1_555
C32 C33 1_555 1_555
C35 C36 1_555 1_555
C50 C51 1_555 1_555
W2 C54 1_555 1_555
Ni4 N27 1_555 1_555
N12 C59 1_555 1_555
N18 Ni3 1_555 1_555
N21 Ni3 1_555 1_555
N22 Ni3 1_555 1_555
N24 C56 1_555 1_555
N25 C57 1_555 1_555
N26 C58 1_555 1_555
N27 C60 1_555 1_555
N28 Ni4 1_555 1_555
N29 Ni4 1_555 1_555
N30 Ni4 1_555 1_555
N31 Ni4 1_555 1_555
H4 N31 1_555 1_555
C39 N18 1_555 1_555
C40 C39 1_555 1_555
H47 C40 1_555 1_555
C41 C40 1_555 1_555
H48 C41 1_555 1_555
C42 C41 1_555 1_555
H49 C42 1_555 1_555
C43 N18 1_555 1_555
C44 N21 1_555 1_555
C45 C44 1_555 1_555
H50 C45 1_555 1_555
H51 C45 1_555 1_555
H52 C45 1_555 1_555
C46 N21 1_555 1_555
H54 C46 1_555 1_555
C47 C46 1_555 1_555
H55 C47 1_555 1_555
H56 C47 1_555 1_555
C54 N22 1_555 1_555
C55 W2 1_555 1_555
C56 W2 1_555 1_555
C57 W2 1_555 1_555
C58 W2 1_555 1_555
C59 W2 1_555 1_555
C60 W2 1_555 1_555
C61 N28 1_555 1_555
C62 C61 1_555 1_555
H68 C62 1_555 1_555
C63 C62 1_555 1_555
H69 C63 1_555 1_555
C64 C63 1_555 1_555
H70 C64 1_555 1_555
C65 N28 1_555 1_555
C66 N29 1_555 1_555
C67 C66 1_555 1_555
H71 C67 1_555 1_555
H72 C67 1_555 1_555
H73 C67 1_555 1_555
C68 N29 1_555 1_555
H74 C68 1_555 1_555
H75 C68 1_555 1_555
C69 C68 1_555 1_555
H76 C69 1_555 1_555
H77 C69 1_555 1_555
C70 N31 1_555 1_555
H78 C70 1_555 1_555
H79 C70 1_555 1_555
C71 N31 1_555 1_555
H80 C71 1_555 1_555
H81 C71 1_555 1_555
C72 C71 1_555 1_555
H82 C72 1_555 1_555
H83 C72 1_555 1_555
C73 N30 1_555 1_555
H84 C73 1_555 1_555
H85 C73 1_555 1_555
C74 N30 1_555 1_555
C75 C74 1_555 1_555
H86 C75 1_555 1_555
H87 C75 1_555 1_555
H88 C75 1_555 1_555
C76 W2 1_555 1_555
N35 Ni4 1_555 1_555
C39 C52 1_555 1_555
C42 C43 1_555 1_555
C43 C44 1_555 1_555
C61 C74 1_555 1_555
C64 C65 1_555 1_555
C65 C66 1_555 1_555
C69 C70 1_555 1_555
C72 C73 1_555 1_555
W1_2 C1_2 1_555 1_555
W2_2 C54_2 1_555 1_555
Ni1_2 N1_2 1_555 1_555
Ni6 N2_2 1_555 1_555
Ni3_2 N3_2 1_555 1_555
Ni7 N27_2 1_555 1_555
N1_2 C1_2 1_555 1_555
N2_2 C2_2 1_555 1_555
N3_2 C3_2 1_555 1_555
N4_2 C4_2 1_555 1_555
N7_2 C7_2 1_555 1_555
N11_2 Ni1_2 1_555 1_555
N12_2 C59_2 1_555 1_555
N13_2 Ni6 1_555 1_555
N14_2 Ni6 1_555 1_555
N15_2 Ni6 1_555 1_555
H2_2 N15_2 1_555 1_555
N16_2 Ni6 1_555 1_555
N18_2 Ni3_2 1_555 1_555
N19_2 Ni3_2 1_555 1_555
N20_2 Ni3_2 1_555 1_555
H3_2 N20_2 1_555 1_555
N21_2 Ni3_2 1_555 1_555
N22_2 Ni3_2 1_555 1_555
N23_2 C55_2 1_555 1_555
N24_2 C56_2 1_555 1_555
N25_2 C57_2 1_555 1_555
N26_2 C58_2 1_555 1_555
N27_2 C60_2 1_555 1_555
N28_2 Ni7 1_555 1_555
N29_2 Ni7 1_555 1_555
N30_2 Ni7 1_555 1_555
N31_2 Ni7 1_555 1_555
H4_2 N31_2 1_555 1_555
N35 C76_2 1_555 1_555
C2_2 W1_2 1_555 1_555
C3_2 W1_2 1_555 1_555
C4_2 W1_2 1_555 1_555
C7_2 W1_2 1_555 1_555
C8_2 W1_2 1_555 1_555
H20_2 C20_2 1_555 1_555
C21_2 N11_2 1_555 1_555
H21_2 C21_2 1_555 1_555
C22_2 N11_2 1_555 1_555
C23_2 C22_2 1_555 1_555
H23_2 C23_2 1_555 1_555
H24_2 C23_2 1_555 1_555
C24_2 N13_2 1_555 1_555
C25_2 C24_2 1_555 1_555
H26_2 C25_2 1_555 1_555
C26_2 C25_2 1_555 1_555
H27_2 C26_2 1_555 1_555
C27_2 C26_2 1_555 1_555
H28_2 C27_2 1_555 1_555
C28_2 N13_2 1_555 1_555
C29_2 N16_2 1_555 1_555
C30_2 C29_2 1_555 1_555
H29_2 C30_2 1_555 1_555
H30_2 C30_2 1_555 1_555
H31_2 C30_2 1_555 1_555
C31_2 N16_2 1_555 1_555
H32_2 C31_2 1_555 1_555
H33_2 C31_2 1_555 1_555
C32_2 C31_2 1_555 1_555
H34_2 C32_2 1_555 1_555
H35_2 C32_2 1_555 1_555
C33_2 N15_2 1_555 1_555
H36_2 C33_2 1_555 1_555
H37_2 C33_2 1_555 1_555
C34_2 N15_2 1_555 1_555
H38_2 C34_2 1_555 1_555
H39_2 C34_2 1_555 1_555
C35_2 C34_2 1_555 1_555
H40_2 C35_2 1_555 1_555
H41_2 C35_2 1_555 1_555
C36_2 N14_2 1_555 1_555
H42_2 C36_2 1_555 1_555
H43_2 C36_2 1_555 1_555
C37_2 N14_2 1_555 1_555
C38_2 C37_2 1_555 1_555
H44_2 C38_2 1_555 1_555
H45_2 C38_2 1_555 1_555
H46_2 C38_2 1_555 1_555
C39_2 N18_2 1_555 1_555
C40_2 C39_2 1_555 1_555
H47_2 C40_2 1_555 1_555
C41_2 C40_2 1_555 1_555
H48_2 C41_2 1_555 1_555
C42_2 C41_2 1_555 1_555
H49_2 C42_2 1_555 1_555
C43_2 N18_2 1_555 1_555
C44_2 N21_2 1_555 1_555
C48_2 N20_2 1_555 1_555
H57_2 C48_2 1_555 1_555
H58_2 C48_2 1_555 1_555
C49_2 N20_2 1_555 1_555
H59_2 C49_2 1_555 1_555
H60_2 C49_2 1_555 1_555
C50_2 C49_2 1_555 1_555
H61_2 C50_2 1_555 1_555
H62_2 C50_2 1_555 1_555
C51_2 N19_2 1_555 1_555
H63_2 C51_2 1_555 1_555
H64_2 C51_2 1_555 1_555
C52_2 N19_2 1_555 1_555
C53_2 C52_2 1_555 1_555
H65_2 C53_2 1_555 1_555
H66_2 C53_2 1_555 1_555
H67_2 C53_2 1_555 1_555
C54_2 N22_2 1_555 1_555
C55_2 W2_2 1_555 1_555
C56_2 W2_2 1_555 1_555
C57_2 W2_2 1_555 1_555
C58_2 W2_2 1_555 1_555
C59_2 W2_2 1_555 1_555
C60_2 W2_2 1_555 1_555
C61_2 N28_2 1_555 1_555
C62_2 C61_2 1_555 1_555
H68_2 C62_2 1_555 1_555
C63_2 C62_2 1_555 1_555
H69_2 C63_2 1_555 1_555
C64_2 C63_2 1_555 1_555
H70_2 C64_2 1_555 1_555
C65_2 N28_2 1_555 1_555
C66_2 N29_2 1_555 1_555
C67_2 C66_2 1_555 1_555
H71_2 C67_2 1_555 1_555
H72_2 C67_2 1_555 1_555
H73_2 C67_2 1_555 1_555
C68_2 N29_2 1_555 1_555
H74_2 C68_2 1_555 1_555
H75_2 C68_2 1_555 1_555
C69_2 C68_2 1_555 1_555
H76_2 C69_2 1_555 1_555
H77_2 C69_2 1_555 1_555
C70_2 N31_2 1_555 1_555
H78_2 C70_2 1_555 1_555
H79_2 C70_2 1_555 1_555
C71_2 N31_2 1_555 1_555
H80_2 C71_2 1_555 1_555
H81_2 C71_2 1_555 1_555
C72_2 C71_2 1_555 1_555
C73_2 N30_2 1_555 1_555
H84_2 C73_2 1_555 1_555
H85_2 C73_2 1_555 1_555
C74_2 N30_2 1_555 1_555
C75_2 C74_2 1_555 1_555
H86_2 C75_2 1_555 1_555
H87_2 C75_2 1_555 1_555
H88_2 C75_2 1_555 1_555
C76_2 W2_2 1_555 1_555
Ni5_2 N12_2 1_555 1_555
C20_2 C21_2 1_555 1_555
C24_2 C37_2 1_555 1_555
C27_2 C28_2 1_555 1_555
C28_2 C29_2 1_555 1_555
C32_2 C33_2 1_555 1_555
C35_2 C36_2 1_555 1_555
C39_2 C52_2 1_555 1_555
C42_2 C43_2 1_555 1_555
C43_2 C44_2 1_555 1_555
C50_2 C51_2 1_555 1_555
C61_2 C74_2 1_555 1_555
C64_2 C65_2 1_555 1_555
C65_2 C66_2 1_555 1_555
C69_2 C70_2 1_555 1_555
C72_2 C73_2 1_555 1_555
N5_2 C5_2 1_555 1_555
N6_2 C6_2 1_555 1_555
H1_2 N10_2 1_555 1_555
C19_2 N10_2 1_555 1_555
H18_2 C19_2 1_555 1_555
H50_2 C45_2 1_555 1_555
H51_2 C45_2 1_555 1_555
H52_2 C45_2 1_555 1_555
H53_2 C46_2 1_555 1_555
H54_2 C46_2 1_555 1_555
C47_2 C46_2 1_555 1_555
H55_2 C47_2 1_555 1_555
H56_2 C47_2 1_555 1_555
C9_2 N8_2 1_555 1_555
C10_2 C9_2 1_555 1_555
H5_2 C10_2 1_555 1_555
C11_2 C10_2 1_555 1_555
H6_2 C11_2 1_555 1_555
C12_2 C11_2 1_555 1_555
H7_2 C12_2 1_555 1_555
C13_2 N8_2 1_555 1_555
C14_2 N9_2 1_555 1_555
C15_2 C14_2 1_555 1_555
H8_2 C15_2 1_555 1_555
H9_2 C15_2 1_555 1_555
H10_2 C15_2 1_555 1_555
C16_2 N9_2 1_555 1_555
H11_2 C16_2 1_555 1_555
H12_2 C16_2 1_555 1_555
C12_2 C13_2 1_555 1_555
C13_2 C14_2 1_555 1_555
W2_3 C54_3 1_555 1_555
Ni4_2 N27_3 1_555 1_555
N33_2 C59_3 1_555 1_555
N18_3 Ni3_3 1_555 1_555
N21_3 Ni3_3 1_555 1_555
N22_3 Ni3_3 1_555 1_555
N24_3 C56_3 1_555 1_555
N25_3 C57_3 1_555 1_555
N26_3 C58_3 1_555 1_555
N27_3 C60_3 1_555 1_555
N28_3 Ni4_2 1_555 1_555
N29_3 Ni4_2 1_555 1_555
N30_3 Ni4_2 1_555 1_555
N31_3 Ni4_2 1_555 1_555
H4_3 N31_3 1_555 1_555
C39_3 N18_3 1_555 1_555
C40_3 C39_3 1_555 1_555
H47_3 C40_3 1_555 1_555
C41_3 C40_3 1_555 1_555
H48_3 C41_3 1_555 1_555
C42_3 C41_3 1_555 1_555
H49_3 C42_3 1_555 1_555
C43_3 N18_3 1_555 1_555
C44_3 N21_3 1_555 1_555
C45_3 C44_3 1_555 1_555
H50_3 C45_3 1_555 1_555
H51_3 C45_3 1_555 1_555
H52_3 C45_3 1_555 1_555
C46_3 N21_3 1_555 1_555
H54_3 C46_3 1_555 1_555
C47_3 C46_3 1_555 1_555
H55_3 C47_3 1_555 1_555
H56_3 C47_3 1_555 1_555
C54_3 N22_3 1_555 1_555
C55_3 W2_3 1_555 1_555
C56_3 W2_3 1_555 1_555
C57_3 W2_3 1_555 1_555
C58_3 W2_3 1_555 1_555
C59_3 W2_3 1_555 1_555
C60_3 W2_3 1_555 1_555
C61_3 N28_3 1_555 1_555
C62_3 C61_3 1_555 1_555
H68_3 C62_3 1_555 1_555
C63_3 C62_3 1_555 1_555
H69_3 C63_3 1_555 1_555
C64_3 C63_3 1_555 1_555
H70_3 C64_3 1_555 1_555
C65_3 N28_3 1_555 1_555
C66_3 N29_3 1_555 1_555
C67_3 C66_3 1_555 1_555
H71_3 C67_3 1_555 1_555
H72_3 C67_3 1_555 1_555
H73_3 C67_3 1_555 1_555
C68_3 N29_3 1_555 1_555
H74_3 C68_3 1_555 1_555
H75_3 C68_3 1_555 1_555
C69_3 C68_3 1_555 1_555
H76_3 C69_3 1_555 1_555
H77_3 C69_3 1_555 1_555
C70_3 N31_3 1_555 1_555
H78_3 C70_3 1_555 1_555
H79_3 C70_3 1_555 1_555
C71_3 N31_3 1_555 1_555
H80_3 C71_3 1_555 1_555
H81_3 C71_3 1_555 1_555
C72_3 C71_3 1_555 1_555
H82_3 C72_3 1_555 1_555
H83_3 C72_3 1_555 1_555
C73_3 N30_3 1_555 1_555
H84_3 C73_3 1_555 1_555
H85_3 C73_3 1_555 1_555
C74_3 N30_3 1_555 1_555
C75_3 C74_3 1_555 1_555
H86_3 C75_3 1_555 1_555
H87_3 C75_3 1_555 1_555
H88_3 C75_3 1_555 1_555
C76_3 W2_3 1_555 1_555
N35_2 Ni4_2 1_555 1_555
C39_3 C52_3 1_555 1_555
C42_3 C43_3 1_555 1_555
C43_3 C44_3 1_555 1_555
C61_3 C74_3 1_555 1_555
C64_3 C65_3 1_555 1_555
C65_3 C66_3 1_555 1_555
C69_3 C70_3 1_555 1_555
C72_3 C73_3 1_555 1_555
W1_3 C1_3 1_555 1_555
Ni5_2 N1_3 1_555 1_555
Ni2_2 N2_3 1_555 1_555
N1_3 C1_3 1_555 1_555
N2_3 C2_3 1_555 1_555
N3_3 C3_3 1_555 1_555
N4_3 C4_3 1_555 1_555
N5_3 C5_3 1_555 1_555
N6_3 C6_3 1_555 1_555
N7_3 C7_3 1_555 1_555
N8_3 Ni5_2 1_555 1_555
N9_3 Ni5_2 1_555 1_555
N10_3 Ni5_2 1_555 1_555
H1_3 N10_3 1_555 1_555
N11_3 Ni5_2 1_555 1_555
N13_3 Ni2_2 1_555 1_555
N14_3 Ni2_2 1_555 1_555
N15_3 Ni2_2 1_555 1_555
H2_3 N15_3 1_555 1_555
N16_3 Ni2_2 1_555 1_555
N17_2 C8_3 1_555 1_555
C2_3 W1_3 1_555 1_555
C3_3 W1_3 1_555 1_555
C4_3 W1_3 1_555 1_555
C5_3 W1_3 1_555 1_555
C6_3 W1_3 1_555 1_555
C7_3 W1_3 1_555 1_555
C8_3 W1_3 1_555 1_555
C9_3 N8_3 1_555 1_555
C10_3 C9_3 1_555 1_555
H5_3 C10_3 1_555 1_555
C11_3 C10_3 1_555 1_555
C12_3 C11_3 1_555 1_555
H7_3 C12_3 1_555 1_555
C13_3 N8_3 1_555 1_555
C14_3 N9_3 1_555 1_555
C15_3 C14_3 1_555 1_555
H8_3 C15_3 1_555 1_555
H9_3 C15_3 1_555 1_555
H10_3 C15_3 1_555 1_555
C16_3 N9_3 1_555 1_555
H11_3 C16_3 1_555 1_555
H12_3 C16_3 1_555 1_555
C17_2 C16_3 1_555 1_555
H13_2 C17_2 1_555 1_555
H14_3 C17_2 1_555 1_555
C18_2 N10_3 1_555 1_555
H15_2 C18_2 1_555 1_555
H16_2 C18_2 1_555 1_555
C19_3 N10_3 1_555 1_555
H17_2 C19_3 1_555 1_555
H18_3 C19_3 1_555 1_555
C20_3 C19_3 1_555 1_555
H19_3 C20_3 1_555 1_555
H20_3 C20_3 1_555 1_555
C21_3 N11_3 1_555 1_555
H21_3 C21_3 1_555 1_555
H22_3 C21_3 1_555 1_555
C22_3 N11_3 1_555 1_555
C23_3 C22_3 1_555 1_555
H23_3 C23_3 1_555 1_555
H24_3 C23_3 1_555 1_555
H25_3 C23_3 1_555 1_555
C24_3 N13_3 1_555 1_555
C25_3 C24_3 1_555 1_555
H26_3 C25_3 1_555 1_555
C31_3 N16_3 1_555 1_555
H33_3 C31_3 1_555 1_555
C32_3 C31_3 1_555 1_555
H35_3 C32_3 1_555 1_555
C33_3 N15_3 1_555 1_555
H36_3 C33_3 1_555 1_555
H37_3 C33_3 1_555 1_555
C34_3 N15_3 1_555 1_555
H38_3 C34_3 1_555 1_555
H39_3 C34_3 1_555 1_555
C35_3 C34_3 1_555 1_555
H40_3 C35_3 1_555 1_555
H41_3 C35_3 1_555 1_555
C36_3 N14_3 1_555 1_555
H42_3 C36_3 1_555 1_555
H43_3 C36_3 1_555 1_555
C37_3 N14_3 1_555 1_555
C38_3 C37_3 1_555 1_555
H44_3 C38_3 1_555 1_555
H45_3 C38_3 1_555 1_555
H46_3 C38_3 1_555 1_555
C48_3 N20_3 1_555 1_555
H57_3 C48_3 1_555 1_555
H58_3 C48_3 1_555 1_555
C49_3 N20_3 1_555 1_555
H59_3 C49_3 1_555 1_555
H60_3 C49_3 1_555 1_555
C50_3 C49_3 1_555 1_555
H61_3 C50_3 1_555 1_555
C51_3 N19_3 1_555 1_555
H63_3 C51_3 1_555 1_555
H64_3 C51_3 1_555 1_555
H65_3 C53_3 1_555 1_555
H67_3 C53_3 1_555 1_555
Ni6_2 N17_2 1_555 1_555
N34_2 Ni2_2 1_555 1_555
C9_3 C22_3 1_555 1_555
C12_3 C13_3 1_555 1_555
C13_3 C14_3 1_555 1_555
C17_2 C18_2 1_555 1_555
C20_3 C21_3 1_555 1_555
C24_3 C37_3 1_555 1_555
C32_3 C33_3 1_555 1_555
C35_3 C36_3 1_555 1_555
C50_3 C51_3 1_555 1_555
Ni7_2 N32_2 1_555 1_555
C9_4 N8_4 1_555 1_555
C10_4 C9_4 1_555 1_555
H5_4 C10_4 1_555 1_555
C11_4 C10_4 1_555 1_555
H6_3 C11_4 1_555 1_555
C12_4 C11_4 1_555 1_555
H7_4 C12_4 1_555 1_555
C13_4 N8_4 1_555 1_555
C14_4 N9_4 1_555 1_555
C15_4 C14_4 1_555 1_555
H8_4 C15_4 1_555 1_555
H9_4 C15_4 1_555 1_555
H10_4 C15_4 1_555 1_555
C16_4 N9_4 1_555 1_555
H11_4 C16_4 1_555 1_555
H12_4 C16_4 1_555 1_555
C12_4 C13_4 1_555 1_555
C13_4 C14_4 1_555 1_555
N5_4 C5_4 1_555 1_555
N6_4 C6_4 1_555 1_555
H1_4 N10_4 1_555 1_555
C19_4 N10_4 1_555 1_555
H18_4 C19_4 1_555 1_555
H50_4 C45_4 1_555 1_555
H51_4 C45_4 1_555 1_555
H52_4 C45_4 1_555 1_555
H53_4 C46_4 1_555 1_555
H54_4 C46_4 1_555 1_555
C47_4 C46_4 1_555 1_555
H55_4 C47_4 1_555 1_555
H56_4 C47_4 1_555 1_555
W1_4 C1_4 1_555 1_555
W2_4 C54_4 1_555 1_555
Ni5 N1_4 1_555 1_555
Ni6_2 N2_4 1_555 1_555
Ni3_4 N3_4 1_555 1_555
Ni7_2 N27_4 1_555 1_555
N1_4 C1_4 1_555 1_555
N2_4 C2_4 1_555 1_555
N3_4 C3_4 1_555 1_555
N4_4 C4_4 1_555 1_555
N7_4 C7_4 1_555 1_555
N11_4 Ni5 1_555 1_555
N33 C59_4 1_555 1_555
N13_4 Ni6_2 1_555 1_555
N14_4 Ni6_2 1_555 1_555
N15_4 Ni6_2 1_555 1_555
H2_4 N15_4 1_555 1_555
N16_4 Ni6_2 1_555 1_555
N18_4 Ni3_4 1_555 1_555
N19_4 Ni3_4 1_555 1_555
N20_4 Ni3_4 1_555 1_555
H3_4 N20_4 1_555 1_555
N21_4 Ni3_4 1_555 1_555
N22_4 Ni3_4 1_555 1_555
N23_4 C55_4 1_555 1_555
N24_4 C56_4 1_555 1_555
N25_4 C57_4 1_555 1_555
N26_4 C58_4 1_555 1_555
N27_4 C60_4 1_555 1_555
N28_4 Ni7_2 1_555 1_555
N29_4 Ni7_2 1_555 1_555
N30_4 Ni7_2 1_555 1_555
N31_4 Ni7_2 1_555 1_555
H4_4 N31_4 1_555 1_555
N35_2 C76_4 1_555 1_555
C2_4 W1_4 1_555 1_555
C3_4 W1_4 1_555 1_555
C4_4 W1_4 1_555 1_555
C7_4 W1_4 1_555 1_555
C8_4 W1_4 1_555 1_555
H20_4 C20_4 1_555 1_555
C21_4 N11_4 1_555 1_555
H21_4 C21_4 1_555 1_555
C22_4 N11_4 1_555 1_555
C23_4 C22_4 1_555 1_555
H23_4 C23_4 1_555 1_555
H24_4 C23_4 1_555 1_555
C24_4 N13_4 1_555 1_555
C25_4 C24_4 1_555 1_555
H26_4 C25_4 1_555 1_555
C26_3 C25_4 1_555 1_555
H27_3 C26_3 1_555 1_555
C27_3 C26_3 1_555 1_555
H28_3 C27_3 1_555 1_555
C28_3 N13_4 1_555 1_555
C29_3 N16_4 1_555 1_555
C30_3 C29_3 1_555 1_555
H29_3 C30_3 1_555 1_555
H30_3 C30_3 1_555 1_555
H31_3 C30_3 1_555 1_555
C31_4 N16_4 1_555 1_555
H32_3 C31_4 1_555 1_555
H33_4 C31_4 1_555 1_555
C32_4 C31_4 1_555 1_555
H34_3 C32_4 1_555 1_555
H35_4 C32_4 1_555 1_555
C33_4 N15_4 1_555 1_555
H36_4 C33_4 1_555 1_555
H37_4 C33_4 1_555 1_555
C34_4 N15_4 1_555 1_555
H38_4 C34_4 1_555 1_555
H39_4 C34_4 1_555 1_555
C35_4 C34_4 1_555 1_555
H40_4 C35_4 1_555 1_555
H41_4 C35_4 1_555 1_555
C36_4 N14_4 1_555 1_555
H42_4 C36_4 1_555 1_555
H43_4 C36_4 1_555 1_555
C37_4 N14_4 1_555 1_555
C38_4 C37_4 1_555 1_555
H44_4 C38_4 1_555 1_555
H45_4 C38_4 1_555 1_555
H46_4 C38_4 1_555 1_555
C39_4 N18_4 1_555 1_555
C40_4 C39_4 1_555 1_555
H47_4 C40_4 1_555 1_555
C41_4 C40_4 1_555 1_555
H48_4 C41_4 1_555 1_555
C42_4 C41_4 1_555 1_555
H49_4 C42_4 1_555 1_555
C43_4 N18_4 1_555 1_555
C44_4 N21_4 1_555 1_555
C48_4 N20_4 1_555 1_555
H57_4 C48_4 1_555 1_555
H58_4 C48_4 1_555 1_555
C49_4 N20_4 1_555 1_555
H59_4 C49_4 1_555 1_555
H60_4 C49_4 1_555 1_555
C50_4 C49_4 1_555 1_555
H61_4 C50_4 1_555 1_555
H62_4 C50_4 1_555 1_555
C51_4 N19_4 1_555 1_555
H63_4 C51_4 1_555 1_555
H64_4 C51_4 1_555 1_555
C52_4 N19_4 1_555 1_555
C53_4 C52_4 1_555 1_555
H65_4 C53_4 1_555 1_555
H66_4 C53_4 1_555 1_555
H67_4 C53_4 1_555 1_555
C54_4 N22_4 1_555 1_555
C55_4 W2_4 1_555 1_555
C56_4 W2_4 1_555 1_555
C57_4 W2_4 1_555 1_555
C58_4 W2_4 1_555 1_555
C59_4 W2_4 1_555 1_555
C60_4 W2_4 1_555 1_555
C61_4 N28_4 1_555 1_555
C62_4 C61_4 1_555 1_555
H68_4 C62_4 1_555 1_555
C63_4 C62_4 1_555 1_555
H69_4 C63_4 1_555 1_555
C64_4 C63_4 1_555 1_555
H70_4 C64_4 1_555 1_555
C65_4 N28_4 1_555 1_555
C66_4 N29_4 1_555 1_555
C67_4 C66_4 1_555 1_555
H71_4 C67_4 1_555 1_555
H72_4 C67_4 1_555 1_555
H73_4 C67_4 1_555 1_555
C68_4 N29_4 1_555 1_555
H74_4 C68_4 1_555 1_555
H75_4 C68_4 1_555 1_555
C69_4 C68_4 1_555 1_555
H76_4 C69_4 1_555 1_555
H77_4 C69_4 1_555 1_555
C70_4 N31_4 1_555 1_555
H78_4 C70_4 1_555 1_555
H79_4 C70_4 1_555 1_555
C71_4 N31_4 1_555 1_555
H80_4 C71_4 1_555 1_555
H81_4 C71_4 1_555 1_555
C72_4 C71_4 1_555 1_555
C73_4 N30_4 1_555 1_555
H84_4 C73_4 1_555 1_555
H85_4 C73_4 1_555 1_555
C74_4 N30_4 1_555 1_555
C75_4 C74_4 1_555 1_555
H86_4 C75_4 1_555 1_555
H87_4 C75_4 1_555 1_555
H88_4 C75_4 1_555 1_555
C76_4 W2_4 1_555 1_555
C20_4 C21_4 1_555 1_555
C24_4 C37_4 1_555 1_555
C27_3 C28_3 1_555 1_555
C28_3 C29_3 1_555 1_555
C32_4 C33_4 1_555 1_555
C35_4 C36_4 1_555 1_555
C39_4 C52_4 1_555 1_555
C42_4 C43_4 1_555 1_555
C43_4 C44_4 1_555 1_555
C50_4 C51_4 1_555 1_555
C61_4 C74_4 1_555 1_555
C64_4 C65_4 1_555 1_555
C65_4 C66_4 1_555 1_555
C69_4 C70_4 1_555 1_555
C72_4 C73_4 1_555 1_555
H13_3 C17_3 1_555 1_555
H15_3 C18_3 1_555 1_555
H16_3 C18_3 1_555 1_555
C17_3 C18_3 1_555 1_555
H27_4 C26_4 1_555 1_555
C27_4 C26_4 1_555 1_555
H28_4 C27_4 1_555 1_555
C30_4 C29_4 1_555 1_555
H29_4 C30_4 1_555 1_555
H30_4 C30_4 1_555 1_555
H31_4 C30_4 1_555 1_555
C27_4 C28_4 1_555 1_555
C28_4 C29_4 1_555 1_555
H13_4 C17_4 1_555 1_555
H15_4 C18_4 1_555 1_555
H16_4 C18_4 1_555 1_555
C17_4 C18_4 1_555 1_555

#END
