
###############################################################################
#
# This file contains modified crystal structure data generated from the
# MOF subset of the Cambridge Structural Database (CSD) v543 
# hosted by the Cambridge Crystallographic Data Centre (CCDC).
#
# This work is licensed under the Creative Commons
# Attribution-NonCommercial-ShareAlike 4.0 International License.
# To view a copy of this license, visit
# http://creativecommons.org/licenses/by-nc-sa/4.0/
# or send a letter to
# Creative Commons, PO Box 1866, Mountain View, CA 94042, USA.
#
# CIF created using the CSD Python API on 29 September 2022
# The structure has been converted into the P1 space group
# The structure has a 3D framework
# The original CSD entry CIWZEP is in the monoclinic crystal system
# The framework has been calculated to contain at least 10.0% void space
# The void calculation uses a probe of radius 1.32A, grid spacing 0.4
# H atom positions have been added when not included in the experimental data
#
###############################################################################

data_CIWZEP
_chemical_formula_moiety         '(C304 H352 Mo8 N126 Ni16)n'
_symmetry_cell_setting           triclinic
_symmetry_space_group_name_H-M   'P 1'
_symmetry_Int_Tables_number      1
_space_group_name_Hall           'P 1'
loop_
_symmetry_equiv_pos_site_id
_symmetry_equiv_pos_as_xyz
1 x,y,z
_cell_length_a                   26.11(5)
_cell_length_b                   13.91(3)
_cell_length_c                   29.55(6)
_cell_angle_alpha                90
_cell_angle_beta                 94.27(4)
_cell_angle_gamma                90
_cell_volume                     10702.5
loop_
_atom_site_label
_atom_site_type_symbol
_atom_site_fract_x
_atom_site_fract_y
_atom_site_fract_z
N23 N 0.8035(4) 0.0009(7) 0.0706(3)
N27 N 0.8097(3) 0.0526(6) 0.2005(3)
Ni6 Ni 0.76810(5) 0.16653(8) 0.22468(4)
Mo2 Mo 0.82432(3) 0.84383(5) 0.15316(2)
Ni1 Ni 0.74271(5) 0.66507(8) 0.00892(3)
Ni4 Ni 0.73190(5) 0.66653(8) 0.27532(4)
N9 N 0.6727(3) 0.6965(7) 0.0227(2)
H1 H 0.8331 0.6371 0.0235
N12 N 0.7154(4) 0.5298(6) 0.0231(2)
N21 N 0.7719(3) 0.6979(6) 0.0751(2)
N22 N 0.7778(3) 0.7713(5) 0.2466(3)
N24 N 0.9210(4) 0.8316(9) 0.0901(3)
N25 N 0.6989(3) 0.8830(7) 0.1418(4)
N26 N 0.8776(4) 0.6290(6) 0.1725(3)
N28 N 0.6715(5) 0.7371(9) 0.2605(7)
N29 N 0.7210(6) 0.7488(9) 0.3361(5)
N30 N 0.7945(5) 0.5924(9) 0.3015(5)
H4 H 0.7812 0.5399 0.3148
N31 N 0.7177(5) 0.6178(9) 0.2155(4)
C9 C 0.7001(5) 0.8502(7) 0.0060(4)
C10 C 0.6895(6) 0.9563(8) 0.0025(5)
H6 H 0.6772 0.9789 0.0304
C11 C 0.6593(5) 0.7862(9) 0.0212(4)
C12 C 0.6086(7) 0.8092(14) 0.0283(6)
H8 H 0.5972 0.8725 0.0261
C13 C 0.5779(6) 0.742(2) 0.0381(7)
H9 H 0.5447 0.7582 0.0447
C14 C 0.5922(6) 0.6443(16) 0.0392(6)
H10 H 0.5691 0.5956 0.0447
C15 C 0.6418(5) 0.6256(10) 0.0318(4)
C16 C 0.6670(5) 0.5310(10) 0.0303(3)
C17 C 0.6360(6) 0.4408(10) 0.0365(5)
H11 H 0.6530 0.4017 0.0598
H12 H 0.6328 0.4054 0.0085
H13 H 0.6024 0.4578 0.0451
C18 C 0.7466(7) 0.4458(8) 0.0140(4)
H15 H 0.7398 0.3962 0.0358
C19 C 0.8032(6) 0.4629(10) 0.0159(4)
H16 H 0.8145 0.4841 0.0462
H17 H 0.8201 0.4021 0.0107
H23 H 0.8415 0.7963 0.0166
C54 C 0.7909(3) 0.7488(6) 0.1028(3)
C55 C 0.7943(3) 0.7969(6) 0.2139(3)
C56 C 0.8115(4) 0.9452(7) 0.0994(3)
C57 C 0.8869(4) 0.8378(7) 0.1126(3)
C58 C 0.8586(4) 0.7034(7) 0.1671(3)
C59 C 0.7420(4) 0.8694(7) 0.1452(3)
C60 C 0.8171(3) 0.9795(6) 0.1841(3)
C62 C 0.6781(7) 0.6538(12) 0.1919(6)
C63 C 0.6689(8) 0.6356(14) 0.1452(7)
H67 H 0.6450 0.6820 0.1321
H68 H 0.6549 0.5722 0.1409
H69 H 0.7006 0.6401 0.1308
C64 C 0.6491(7) 0.7186(12) 0.2199(7)
C65 C 0.6002(7) 0.7673(15) 0.2015(8)
H70 H 0.5860 0.7650 0.1717
C66 C 0.5800(8) 0.8177(15) 0.2386(10)
H71 H 0.5481 0.8453 0.2310
C67 C 0.5988(6) 0.8350(11) 0.2856(8)
H72 H 0.5826 0.8685 0.3077
C68 C 0.6476(6) 0.7889(11) 0.2899(8)
C69 C 0.6839(8) 0.7873(13) 0.3308(8)
C70 C 0.6617(7) 0.8491(12) 0.3686(6)
H73 H 0.6552 0.8089 0.3939
H74 H 0.6301 0.8786 0.3569
H75 H 0.6859 0.8982 0.3782
C71 C 0.7639(7) 0.7408(16) 0.3751(7)
H76 H 0.7845 0.7989 0.3759
H77 H 0.7482 0.7362 0.4038
C72 C 0.7960(9) 0.6609(19) 0.3706(13)
H78 H 0.7734 0.6063 0.3735
H79 H 0.8185 0.6615 0.3983
C73 C 0.8304(8) 0.6301(15) 0.3350(7)
H80 H 0.8491 0.6841 0.3235
H81 H 0.8547 0.5814 0.3464
C74 C 0.8283(6) 0.5547(12) 0.2715(8)
H82 H 0.8511 0.5072 0.2862
H83 H 0.8486 0.6049 0.2587
C75 C 0.7918(9) 0.5099(15) 0.2360(8)
H84 H 0.8132 0.4708 0.2178
H85 H 0.7717 0.4650 0.2525
C76 C 0.7555(8) 0.5554(13) 0.2039(8)
H86 H 0.7756 0.5899 0.1829
H87 H 0.7382 0.5040 0.1867
N34 N 0.6903(3) 0.5526(6) 0.2995(3)
N35 N 0.8912(3) 0.8695(6) 0.2010(3)
Mo1 Mo 0.68058(2) 0.53804(5) 0.84463(2)
Ni2 Ni 0.76317(4) 0.38159(7) 0.71001(3)
Ni3 Ni 0.50109(4) 0.62845(8) 0.75850(4)
N1 N 0.7169(3) 0.6375(5) 0.9429(2)
N2 N 0.7253(3) 0.4895(5) 0.7473(2)
N3 N 0.5783(3) 0.6314(5) 0.7885(3)
N4 N 0.8084(3) 0.5412(7) 0.8556(3)
N5 N 0.7205(4) 0.3448(7) 0.9020(3)
N6 N 0.5869(4) 0.5195(10) 0.9107(3)
N7 N 0.6089(3) 0.3594(6) 0.7986(3)
N8 N 0.7052(3) 0.7649(5) 0.8222(2)
N10 N 0.7407(4) 0.8085(6) 0.9959(2)
N11 N 0.8144(3) 0.6311(6) 0.9964(3)
N13 N 0.7278(3) 0.4348(6) 0.6552(2)
N14 N 0.6980(3) 0.3026(5) 0.7082(3)
N15 N 0.8020(3) 0.3426(6) 0.7704(3)
H2 H 0.7912 0.3835 0.7917
N16 N 0.8176(3) 0.4800(6) 0.6890(3)
N17 N 0.4903(3) 0.7648(6) 0.7704(3)
N18 N 0.4740(3) 0.6258(7) 0.8220(3)
N19 N 0.5108(4) 0.4867(7) 0.7500(4)
H3 H 0.5433 0.4737 0.7615
N20 N 0.5203(3) 0.6878(10) 0.7009(4)
N32 N 0.3912(3) 0.6305(6) 0.7010(3)
C1 C 0.7035(3) 0.6037(6) 0.9089(3)
C2 C 0.7068(3) 0.5096(5) 0.7792(3)
C3 C 0.6149(3) 0.6014(6) 0.8069(3)
C4 C 0.7637(3) 0.5411(6) 0.8512(3)
C5 C 0.7069(4) 0.4120(7) 0.8819(3)
C6 C 0.6183(4) 0.5259(8) 0.8878(3)
C7 C 0.6345(3) 0.4189(6) 0.8159(3)
C8 C 0.6971(3) 0.6861(6) 0.8298(2)
H5 H 0.7205 0.9897 0.9967
H7 H 0.6639 0.9680 0.9780
H14 H 0.7355 0.4214 0.9841
C20 C 0.8209(6) 0.5343(9) 0.9830(4)
H18 H 0.8570 0.5232 0.9791
H19 H 0.8021 0.5243 0.9538
C21 C 0.8351(5) 0.7058(10) 0.9660(4)
H20 H 0.8706 0.6905 0.9613
H21 H 0.8157 0.7039 0.9368
C22 C 0.8327(5) 0.8004(10) 0.9842(4)
H22 H 0.8593 0.8383 0.9714
C23 C 0.7820(5) 0.8565(8) 0.9770(4)
H24 H 0.7863 0.9195 0.9907
H25 H 0.7737 0.8654 0.9447
C24 C 0.4655(4) 0.7058(11) 0.8377(5)
C25 C 0.4464(7) 0.7224(18) 0.8836(6)
H26 H 0.4096 0.7172 0.8816
H27 H 0.4563 0.7854 0.8941
H28 H 0.4609 0.6751 0.9044
C26 C 0.4764(4) 0.7880(9) 0.8106(5)
C27 C 0.4716(6) 0.8794(13) 0.8229(7)
H29 H 0.4630 0.8960 0.8518
C28 C 0.4792(7) 0.9432(16) 0.7931(10)
C29 C 0.4919(5) 0.9268(11) 0.7480(8)
H31 H 0.4951 0.9755 0.7269
C30 C 0.4993(4) 0.8245(9) 0.7383(6)
C31 C 0.5127(4) 0.7787(13) 0.6978(5)
C32 C 0.5148(6) 0.8326(14) 0.6533(5)
H32 H 0.5392 0.8020 0.6351
H33 H 0.5252 0.8978 0.6593
H34 H 0.4815 0.8319 0.6372
C33 C 0.5306(6) 0.6246(17) 0.6606(5)
H35 H 0.5585 0.6513 0.6447
H36 H 0.5002 0.6218 0.6396
C34 C 0.5451(7) 0.5214(19) 0.6781(6)
H37 H 0.5525 0.4834 0.6518
H38 H 0.5769 0.5269 0.6970
C35 C 0.5100(6) 0.4658(12) 0.7034(7)
H39 H 0.4754 0.4762 0.6900
H40 H 0.5179 0.3982 0.6999
C36 C 0.4781(5) 0.4280(9) 0.7750(6)
H41 H 0.4850 0.3607 0.7692
H42 H 0.4425 0.4409 0.7652
C37 C 0.4871(5) 0.4480(11) 0.8236(7)
H43 H 0.5238 0.4558 0.8303
H44 H 0.4768 0.3916 0.8400
C38 C 0.4608(6) 0.5344(11) 0.8428(5)
H45 H 0.4239 0.5253 0.8386
H46 H 0.4700 0.5378 0.8751
C39 C 0.6644(4) 0.3269(9) 0.6735(4)
C40 C 0.6161(5) 0.2692(10) 0.6640(6)
H47 H 0.6133 0.2226 0.6877
H48 H 0.6172 0.2370 0.6354
H49 H 0.5869 0.3114 0.6630
C41 C 0.6811(4) 0.4066(7) 0.6467(3)
C42 C 0.6487(5) 0.4579(11) 0.6122(4)
H50 H 0.6148 0.4412 0.6040
C43 C 0.6728(8) 0.5317(13) 0.5934(4)
H51 H 0.6539 0.5651 0.5706
C44 C 0.7217(7) 0.5632(10) 0.6038(4)
H52 H 0.7353 0.6168 0.5902
C45 C 0.7491(5) 0.5092(6) 0.6360(3)
C46 C 0.8031(6) 0.5265(8) 0.6549(4)
C47 C 0.8348(6) 0.5959(9) 0.6309(5)
H53 H 0.8433 0.6499 0.6502
H54 H 0.8159 0.6177 0.6037
H55 H 0.8659 0.5650 0.6231
C48 C 0.8688(4) 0.4836(9) 0.7117(5)
H56 H 0.8825 0.5479 0.7090
H57 H 0.8910 0.4397 0.6967
C49 C 0.8693(5) 0.4576(9) 0.7603(4)
H58 H 0.8771 0.5021 0.7833
C50 C 0.8566(4) 0.3568(9) 0.7701(4)
H59 H 0.8700 0.3155 0.7473
H60 H 0.8730 0.3388 0.7994
C51 C 0.7854(5) 0.2459(7) 0.7834(3)
H61 H 0.8001 0.2317 0.8138
H62 H 0.7987 0.1991 0.7629
C52 C 0.7271(5) 0.2353(7) 0.7823(4)
H63 H 0.7204 0.1803 0.8012
H64 H 0.7144 0.2913 0.7975
C53 C 0.6941(4) 0.2235(7) 0.7388(4)
H65 H 0.7039 0.1649 0.7239
H66 H 0.6585 0.2167 0.7458
C61 C 0.4263(3) 0.6195(6) 0.7263(3)
Mo3 Mo 0.32432(3) 0.65617(5) 0.65316(2)
Ni5 Ni 0.73683(4) 0.88159(7) 0.78999(3)
N33 N 0.7948(3) 0.2649(5) 0.6778(2)
H88 H 0.909763 0.438551 0.760395
N17_2 N 0.0097(3) 0.2648(6) 0.7296(3)
N18_2 N 0.0260(3) 0.1258(7) 0.6780(3)
N32_2 N 0.1088(3) 0.1305(6) 0.7990(3)
C24_2 C 0.0345(4) 0.2058(11) 0.6623(5)
C25_2 C 0.0536(7) 0.2224(18) 0.6164(6)
H26_2 H 0.0904 0.2172 0.6184
H27_2 H 0.0437 0.2854 0.6059
H28_2 H 0.0391 0.1751 0.5956
C26_2 C 0.0236(4) 0.2880(9) 0.6894(5)
C27_2 C 0.0284(6) 0.3794(13) 0.6771(7)
H29_2 H 0.0370 0.3960 0.6482
C28_2 C 0.0208(7) 0.4432(16) 0.7069(10)
H30 H 0.0238 0.5070 0.6981
C29_2 C 0.0081(5) 0.4268(11) 0.7520(8)
H31_2 H 0.0049 0.4755 0.7731
C30_2 C 0.0007(4) 0.3245(9) 0.7617(6)
H34_2 H 0.0185 0.3319 0.8628
C38_2 C 0.0392(6) 0.0344(11) 0.6572(5)
H45_2 H 0.0761 0.0253 0.6614
H46_2 H 0.0300 0.0378 0.6249
C61_2 C 0.0737(3) 0.1195(6) 0.7737(3)
Mo3_2 Mo 0.17568(3) 0.15617(5) 0.84684(2)
Mo1_2 Mo 0.81942(2) 0.03804(5) 0.65537(2)
Mo2_2 Mo 0.67568(3) 0.34383(5) 0.34684(2)
Ni1_2 Ni 0.75729(5) 0.16507(8) 0.49108(3)
Ni3_2 Ni 0.99891(4) 0.12845(8) 0.74150(4)
N1_2 N 0.7831(3) 0.1375(5) 0.5571(2)
N3_2 N 0.9217(3) 0.1314(5) 0.7115(3)
N4_2 N 0.6916(3) 0.0412(7) 0.6444(3)
N6_2 N 0.9131(4) 0.0195(10) 0.5893(3)
N9_2 N 0.8273(3) 0.1965(7) 0.4773(2)
N10_2 N 0.7593(4) 0.3085(6) 0.5041(2)
N11_2 N 0.6856(3) 0.1311(6) 0.5036(3)
H1_2 H 0.6669 0.1371 0.4765
N12_2 N 0.7846(4) 0.0298(6) 0.4769(2)
N20_2 N 0.9797(3) 0.1878(10) 0.7991(4)
N21_2 N 0.7281(3) 0.1979(6) 0.4249(2)
N22_2 N 0.7222(3) 0.2713(5) 0.2534(3)
N23_2 N 0.6965(4) 0.5009(7) 0.4294(3)
N24_2 N 0.5790(4) 0.3316(9) 0.4099(3)
N25_2 N 0.8011(3) 0.3830(7) 0.3582(4)
N26_2 N 0.6224(4) 0.1290(6) 0.3275(3)
N28_2 N 0.8285(5) 0.2371(9) 0.2395(7)
N29_2 N 0.7790(6) 0.2488(9) 0.1639(5)
N30_2 N 0.7055(5) 0.0924(9) 0.1985(5)
H4_2 H 0.7188 0.0399 0.1852
N31_2 N 0.7823(5) 0.1178(9) 0.2845(4)
C1_2 C 0.7965(3) 0.1037(6) 0.5911(3)
C2_2 C 0.7932(3) 0.0096(5) 0.7208(3)
C3_2 C 0.8851(3) 0.1014(6) 0.6931(3)
C4_2 C 0.7363(3) 0.0411(6) 0.6488(3)
C6_2 C 0.8817(4) 0.0259(8) 0.6122(3)
C8_2 C 0.8029(3) 0.1861(6) 0.6702(2)
C9_2 C 0.7999(5) 0.3502(7) 0.4940(4)
C10_2 C 0.8105(6) 0.4563(8) 0.4975(5)
H5_2 H 0.7795 0.4897 0.5033
H6_2 H 0.8228 0.4789 0.4696
H7_2 H 0.8361 0.4680 0.5220
C11_2 C 0.8407(5) 0.2862(9) 0.4788(4)
C12_2 C 0.8914(7) 0.3092(14) 0.4717(6)
H8_2 H 0.9028 0.3725 0.4739
C13_2 C 0.9221(6) 0.242(2) 0.4619(7)
H9_2 H 0.9553 0.2582 0.4553
C14_2 C 0.9078(6) 0.1443(16) 0.4608(6)
H10_2 H 0.9309 0.0956 0.4553
C15_2 C 0.8582(5) 0.1256(10) 0.4682(4)
C16_2 C 0.8330(5) 0.0310(10) 0.4697(3)
C20_2 C 0.6791(6) 0.0343(9) 0.5170(4)
H18_2 H 0.6430 0.0232 0.5209
H19_2 H 0.6979 0.0243 0.5462
C21_2 C 0.6649(5) 0.2058(10) 0.5340(4)
H20_2 H 0.6294 0.1905 0.5387
H21_2 H 0.6843 0.2039 0.5632
C22_2 C 0.6673(5) 0.3004(10) 0.5158(4)
H22_2 H 0.6407 0.3383 0.5286
H23_2 H 0.6585 0.2963 0.4834
C23_2 C 0.7180(5) 0.3565(8) 0.5230(4)
H24_2 H 0.7137 0.4195 0.5093
H25_2 H 0.7263 0.3654 0.5553
C31_2 C 0.9873(4) 0.2787(13) 0.8022(5)
C32_2 C 0.9852(6) 0.3326(14) 0.8467(5)
H32_2 H 0.9608 0.3020 0.8649
H33_2 H 0.9748 0.3978 0.8407
C33_2 C 0.9694(6) 0.1246(17) 0.8394(5)
H35_2 H 0.9415 0.1513 0.8553
H36_2 H 0.9998 0.1218 0.8604
C34_2 C 0.9549(7) 0.0214(19) 0.8219(6)
H38_2 H 0.9231 0.0269 0.8030
C43_2 C 0.8272(8) 0.0317(13) 0.9066(4)
H51_2 H 0.8461 0.0651 0.9294
C44_2 C 0.7783(7) 0.0632(10) 0.8962(4)
H52_2 H 0.7647 0.1168 0.9098
C45_2 C 0.7509(5) 0.0092(6) 0.8640(3)
C46_2 C 0.6969(6) 0.0265(8) 0.8451(4)
C47_2 C 0.6652(6) 0.0959(9) 0.8691(5)
H53_2 H 0.6567 0.1499 0.8498
H54_2 H 0.6841 0.1177 0.8963
H55_2 H 0.6341 0.0650 0.8769
H56_2 H 0.6175 0.0479 0.7910
H58_2 H 0.6229 0.0021 0.7167
C54_2 C 0.7091(3) 0.2488(6) 0.3972(3)
C55_2 C 0.7057(3) 0.2969(6) 0.2861(3)
C56_2 C 0.6885(4) 0.4452(7) 0.4006(3)
C57_2 C 0.6131(4) 0.3378(7) 0.3874(3)
C58_2 C 0.6414(4) 0.2034(7) 0.3329(3)
C59_2 C 0.7580(4) 0.3694(7) 0.3548(3)
C60_2 C 0.6829(3) 0.4795(6) 0.3159(3)
C62_2 C 0.8219(7) 0.1538(12) 0.3081(6)
C63_2 C 0.8311(8) 0.1356(14) 0.3548(7)
H67_2 H 0.8550 0.1820 0.3679
H68_2 H 0.8451 0.0722 0.3591
H69_2 H 0.7994 0.1401 0.3692
C64_2 C 0.8509(7) 0.2186(12) 0.2801(7)
C65_2 C 0.8998(7) 0.2673(15) 0.2985(8)
H70_2 H 0.9140 0.2650 0.3283
C66_2 C 0.9200(8) 0.3177(15) 0.2614(10)
H71_2 H 0.9519 0.3453 0.2690
C67_2 C 0.9012(6) 0.3350(11) 0.2144(8)
H72_2 H 0.9174 0.3685 0.1923
C68_2 C 0.8524(6) 0.2889(11) 0.2101(8)
C69_2 C 0.8161(8) 0.2873(13) 0.1692(8)
C70_2 C 0.8383(7) 0.3491(12) 0.1314(6)
H73_2 H 0.8448 0.3089 0.1061
H74_2 H 0.8699 0.3786 0.1431
H75_2 H 0.8141 0.3982 0.1218
C71_2 C 0.7361(7) 0.2408(16) 0.1249(7)
H76_2 H 0.7155 0.2989 0.1241
H77_2 H 0.7518 0.2362 0.0962
C72_2 C 0.7040(9) 0.1609(19) 0.1294(13)
H78_2 H 0.7266 0.1063 0.1265
H79_2 H 0.6815 0.1615 0.1017
C73_2 C 0.6696(8) 0.1301(15) 0.1650(7)
H80_2 H 0.6509 0.1841 0.1765
H81_2 H 0.6453 0.0814 0.1536
C74_2 C 0.6717(6) 0.0547(12) 0.2285(8)
H82_2 H 0.6489 0.0072 0.2138
H83_2 H 0.6514 0.1049 0.2413
C75_2 C 0.7082(9) 0.0099(15) 0.2640(8)
C76_2 C 0.7445(8) 0.0554(13) 0.2961(8)
H86_2 H 0.7244 0.0899 0.3171
H87_2 H 0.7618 0.0040 0.3133
N35_2 N 0.6088(3) 0.3695(6) 0.2990(3)
N2_2 N 0.7747(3) 0.9895(5) 0.7527(2)
N5_2 N 0.7795(4) 0.8448(7) 0.5980(3)
N7_2 N 0.8911(3) 0.8594(6) 0.7014(3)
N13_2 N 0.7722(3) 0.9348(6) 0.8448(2)
N14_2 N 0.8020(3) 0.8026(5) 0.7918(3)
N15_2 N 0.6980(3) 0.8426(6) 0.7296(3)
H2_2 H 0.7088 0.8835 0.7083
N16_2 N 0.6824(3) 0.9800(6) 0.8110(3)
N19_2 N 0.9892(4) 0.9867(7) 0.7500(4)
H3_2 H 0.9567 0.9737 0.7385
C5_2 C 0.7931(4) 0.9120(7) 0.6181(3)
C7_2 C 0.8655(3) 0.9189(6) 0.6841(3)
C17_2 C 0.8640(6) 0.9408(10) 0.4635(5)
H11_2 H 0.8470 0.9017 0.4402
H12_2 H 0.8672 0.9054 0.4915
H13_2 H 0.8976 0.9578 0.4549
C18_2 C 0.7534(7) 0.9458(8) 0.4860(4)
H14_2 H 0.7645 0.9214 0.5159
H15_2 H 0.7602 0.8962 0.4642
C19_2 C 0.6968(6) 0.9629(10) 0.4841(4)
H16_2 H 0.6855 0.9841 0.4538
H17_2 H 0.6799 0.9021 0.4893
H37_2 H 0.9475 0.9834 0.8482
C35_2 C 0.9900(6) 0.9658(12) 0.7966(7)
H40_2 H 0.9821 0.8982 0.8001
H43_2 H 0.9762 0.9558 0.6697
C39_2 C 0.8356(4) 0.8269(9) 0.8265(4)
C40_2 C 0.8839(5) 0.7692(10) 0.8360(6)
H47_2 H 0.8867 0.7226 0.8123
H48_2 H 0.8828 0.7370 0.8646
H49_2 H 0.9131 0.8114 0.8370
C41_2 C 0.8189(4) 0.9066(7) 0.8533(3)
C42_2 C 0.8513(5) 0.9579(11) 0.8878(4)
H50_2 H 0.8852 0.9412 0.8960
C48_2 C 0.6312(4) 0.9836(9) 0.7883(5)
H57_2 H 0.6090 0.9397 0.8033
C49_2 C 0.6307(5) 0.9576(9) 0.7397(4)
C50_2 C 0.6434(4) 0.8568(9) 0.7299(4)
H59_2 H 0.6300 0.8155 0.7527
H60_2 H 0.6270 0.8388 0.7006
C51_2 C 0.7146(5) 0.7459(7) 0.7166(3)
H61_2 H 0.6999 0.7317 0.6862
H62_2 H 0.7013 0.6991 0.7371
C52_2 C 0.7729(5) 0.7353(7) 0.7177(4)
H63_2 H 0.7796 0.6803 0.6988
H64_2 H 0.7856 0.7913 0.7025
C53_2 C 0.8059(4) 0.7235(7) 0.7612(4)
H65_2 H 0.7961 0.6649 0.7761
H66_2 H 0.8415 0.7167 0.7542
H84_2 H 0.6868 0.9708 0.2822
H85_2 H 0.7283 0.9650 0.2475
H88_2 H 0.590237 0.938551 0.739605
Mo1_3 Mo 0.31942(2) 0.46196(5) 0.15537(2)
Ni2_2 Ni 0.23683(4) 0.61841(7) 0.28999(3)
Ni3_3 Ni 0.49891(4) 0.37155(8) 0.24150(4)
N1_3 N 0.2831(3) 0.3625(5) 0.0571(2)
N2_3 N 0.2747(3) 0.5105(5) 0.2527(2)
N3_3 N 0.4217(3) 0.3686(5) 0.2115(3)
N4_3 N 0.1916(3) 0.4588(7) 0.1444(3)
N5_3 N 0.2795(4) 0.6552(7) 0.0980(3)
N6_3 N 0.4131(4) 0.4805(10) 0.0893(3)
N7_3 N 0.3911(3) 0.6406(6) 0.2014(3)
N8_2 N 0.2948(3) 0.2351(5) 0.1778(2)
N10_3 N 0.2593(4) 0.1915(6) 0.0041(2)
N11_3 N 0.1856(3) 0.3689(6) 0.0036(3)
N13_3 N 0.2722(3) 0.5652(6) 0.3448(2)
N14_3 N 0.3020(3) 0.6974(5) 0.2918(3)
N15_3 N 0.1980(3) 0.6574(6) 0.2296(3)
H2_3 H 0.2088 0.6165 0.2083
N16_3 N 0.1824(3) 0.5200(6) 0.3110(3)
N17_3 N 0.5097(3) 0.2352(6) 0.2296(3)
N18_3 N 0.5260(3) 0.3742(7) 0.1780(3)
N19_3 N 0.4892(4) 0.5133(7) 0.2500(4)
H3_3 H 0.4567 0.5263 0.2385
N20_3 N 0.4797(3) 0.3122(10) 0.2991(4)
C1_3 C 0.2965(3) 0.3963(6) 0.0911(3)
C2_3 C 0.2932(3) 0.4904(5) 0.2208(3)
C3_3 C 0.3851(3) 0.3986(6) 0.1931(3)
C4_3 C 0.2363(3) 0.4589(6) 0.1488(3)
C5_3 C 0.2931(4) 0.5880(7) 0.1181(3)
C6_3 C 0.3817(4) 0.4741(8) 0.1122(3)
C7_3 C 0.3655(3) 0.5811(6) 0.1841(3)
C8_3 C 0.3029(3) 0.3139(6) 0.1702(2)
H5_3 H 0.2795 0.0103 0.0033
H7_3 H 0.3361 0.0320 0.0220
H14_3 H 0.2645 0.5786 0.0159
C20_3 C 0.1791(6) 0.4657(9) 0.0170(4)
H18_3 H 0.1430 0.4768 0.0209
H19_3 H 0.1979 0.4757 0.0462
C21_3 C 0.1649(5) 0.2942(10) 0.0340(4)
H20_3 H 0.1294 0.3095 0.0387
H21_3 H 0.1843 0.2961 0.0632
C22_3 C 0.1673(5) 0.1996(10) 0.0158(4)
H22_3 H 0.1407 0.1617 0.0286
C23_3 C 0.2180(5) 0.1435(8) 0.0230(4)
H24_3 H 0.2137 0.0805 0.0093
H25_3 H 0.2263 0.1346 0.0553
C24_3 C 0.5345(4) 0.2942(11) 0.1623(5)
C25_3 C 0.5536(7) 0.2776(18) 0.1164(6)
H26_3 H 0.5904 0.2828 0.1184
H27_3 H 0.5437 0.2146 0.1059
H28_3 H 0.5391 0.3249 0.0956
C26_3 C 0.5236(4) 0.2120(9) 0.1894(5)
C27_3 C 0.5284(6) 0.1206(13) 0.1771(7)
H29_3 H 0.5370 0.1040 0.1482
C28_3 C 0.5208(7) 0.0568(16) 0.2069(10)
C29_3 C 0.5081(5) 0.0732(11) 0.2520(8)
H31_3 H 0.5049 0.0245 0.2731
C30_3 C 0.5007(4) 0.1755(9) 0.2617(6)
C31_3 C 0.4873(4) 0.2213(13) 0.3022(5)
C32_3 C 0.4852(6) 0.1674(14) 0.3467(5)
H32_3 H 0.4608 0.1980 0.3649
H33_3 H 0.4748 0.1022 0.3407
H34_3 H 0.5185 0.1681 0.3628
C33_3 C 0.4694(6) 0.3754(17) 0.3394(5)
H35_3 H 0.4415 0.3487 0.3553
H36_3 H 0.4998 0.3782 0.3604
C34_3 C 0.4549(7) 0.4786(19) 0.3219(6)
H37_3 H 0.4475 0.5166 0.3482
H38_3 H 0.4231 0.4731 0.3030
C35_3 C 0.4900(6) 0.5342(12) 0.2966(7)
H39_2 H 0.5246 0.5238 0.3100
H40_3 H 0.4821 0.6018 0.3001
C36_2 C 0.5219(5) 0.5720(9) 0.2250(6)
H41_2 H 0.5150 0.6393 0.2308
H42_2 H 0.5575 0.5591 0.2348
C37_2 C 0.5129(5) 0.5520(11) 0.1764(7)
H43_3 H 0.4762 0.5442 0.1697
H44_2 H 0.5232 0.6084 0.1600
C38_3 C 0.5392(6) 0.4656(11) 0.1572(5)
H45_3 H 0.5761 0.4747 0.1614
H46_3 H 0.5300 0.4622 0.1249
C39_3 C 0.3356(4) 0.6731(9) 0.3265(4)
C40_3 C 0.3839(5) 0.7308(10) 0.3360(6)
H47_3 H 0.3867 0.7774 0.3123
H48_3 H 0.3828 0.7630 0.3646
H49_3 H 0.4131 0.6886 0.3370
C41_3 C 0.3189(4) 0.5934(7) 0.3533(3)
C42_3 C 0.3513(5) 0.5421(11) 0.3878(4)
H50_3 H 0.3852 0.5588 0.3960
C43_3 C 0.3272(8) 0.4683(13) 0.4066(4)
H51_3 H 0.3461 0.4349 0.4294
C44_3 C 0.2783(7) 0.4368(10) 0.3962(4)
H52_3 H 0.2647 0.3832 0.4098
C45_3 C 0.2509(5) 0.4908(6) 0.3640(3)
C46_3 C 0.1969(6) 0.4735(8) 0.3451(4)
C47_3 C 0.1652(6) 0.4041(9) 0.3691(5)
H53_3 H 0.1567 0.3501 0.3498
H54_3 H 0.1841 0.3823 0.3963
H55_3 H 0.1341 0.4350 0.3769
C48_3 C 0.1312(4) 0.5164(9) 0.2883(5)
H56_3 H 0.1175 0.4521 0.2910
H57_3 H 0.1090 0.5603 0.3033
C49_3 C 0.1307(5) 0.5424(9) 0.2397(4)
H58_3 H 0.1229 0.4979 0.2167
C50_3 C 0.1434(4) 0.6432(9) 0.2299(4)
H59_3 H 0.1300 0.6845 0.2527
H60_3 H 0.1270 0.6612 0.2006
C51_3 C 0.2146(5) 0.7541(7) 0.2166(3)
H61_3 H 0.1999 0.7683 0.1862
H62_3 H 0.2013 0.8009 0.2371
C52_3 C 0.2729(5) 0.7647(7) 0.2177(4)
H63_3 H 0.2796 0.8197 0.1988
H64_3 H 0.2856 0.7087 0.2025
C53_3 C 0.3059(4) 0.7765(7) 0.2612(4)
H65_3 H 0.2961 0.8351 0.2761
H66_3 H 0.3415 0.7833 0.2542
C61_3 C 0.5737(3) 0.3805(6) 0.2737(3)
Ni5_2 Ni 0.26317(4) 0.11841(7) 0.21001(3)
N33_2 N 0.2052(3) 0.7351(5) 0.3222(2)
H88_3 H 0.0902374 0.561449 0.239605
Ni1_3 Ni 0.25729(5) 0.33493(8) 0.99108(3)
Ni4_2 Ni 0.26810(5) 0.33347(8) 0.72468(4)
N9_3 N 0.3273(3) 0.3035(7) 0.9773(2)
H1_3 H 0.1669 0.3629 0.9765
N12_3 N 0.2846(4) 0.4702(6) 0.9769(2)
N21_3 N 0.2281(3) 0.3021(6) 0.9249(2)
N22_3 N 0.2222(3) 0.2287(5) 0.7534(3)
N24_3 N 0.0790(4) 0.1684(9) 0.9099(3)
N25_3 N 0.3011(3) 0.1170(7) 0.8582(4)
N26_3 N 0.1224(4) 0.3710(6) 0.8275(3)
N28_3 N 0.3285(5) 0.2629(9) 0.7395(7)
N29_3 N 0.2790(6) 0.2512(9) 0.6639(5)
N30_3 N 0.2055(5) 0.4076(9) 0.6985(5)
H4_3 H 0.2188 0.4601 0.6852
N31_3 N 0.2823(5) 0.3822(9) 0.7845(4)
C9_3 C 0.2999(5) 0.1498(7) 0.9940(4)
C10_3 C 0.3105(6) 0.0437(8) 0.9975(5)
H6_3 H 0.3228 0.0211 0.9696
C11_3 C 0.3407(5) 0.2138(9) 0.9788(4)
C12_3 C 0.3914(7) 0.1908(14) 0.9717(6)
H8_3 H 0.4028 0.1275 0.9739
C13_3 C 0.4221(6) 0.258(2) 0.9619(7)
H9_3 H 0.4553 0.2418 0.9553
C14_3 C 0.4078(6) 0.3557(16) 0.9608(6)
H10_3 H 0.4309 0.4044 0.9553
C15_3 C 0.3582(5) 0.3744(10) 0.9682(4)
C16_3 C 0.3330(5) 0.4690(10) 0.9697(3)
C17_3 C 0.3640(6) 0.5592(10) 0.9635(5)
H11_3 H 0.3470 0.5983 0.9402
H12_3 H 0.3672 0.5946 0.9915
H13_3 H 0.3976 0.5422 0.9549
C18_3 C 0.2534(7) 0.5542(8) 0.9860(4)
H15_3 H 0.2602 0.6038 0.9642
C19_3 C 0.1968(6) 0.5371(10) 0.9841(4)
H16_3 H 0.1855 0.5159 0.9538
H17_3 H 0.1799 0.5979 0.9893
H23_3 H 0.1585 0.2037 0.9834
C54_3 C 0.2091(3) 0.2512(6) 0.8972(3)
C55_3 C 0.2057(3) 0.2031(6) 0.7861(3)
C56_3 C 0.1885(4) 0.0548(7) 0.9006(3)
C57_3 C 0.1131(4) 0.1622(7) 0.8874(3)
C58_3 C 0.1414(4) 0.2966(7) 0.8329(3)
C59_3 C 0.2580(4) 0.1306(7) 0.8548(3)
C60_3 C 0.1829(3) 0.0205(6) 0.8159(3)
C62_3 C 0.3219(7) 0.3462(12) 0.8081(6)
C63_3 C 0.3311(8) 0.3644(14) 0.8548(7)
H67_3 H 0.3550 0.3180 0.8679
H68_3 H 0.3451 0.4278 0.8591
H69_3 H 0.2994 0.3599 0.8692
C64_3 C 0.3509(7) 0.2814(12) 0.7801(7)
C65_3 C 0.3998(7) 0.2327(15) 0.7985(8)
H70_3 H 0.4140 0.2350 0.8283
C66_3 C 0.4200(8) 0.1823(15) 0.7614(10)
H71_3 H 0.4519 0.1547 0.7690
C67_3 C 0.4012(6) 0.1650(11) 0.7144(8)
H72_3 H 0.4174 0.1315 0.6923
C68_3 C 0.3524(6) 0.2111(11) 0.7101(8)
C69_3 C 0.3161(8) 0.2127(13) 0.6692(8)
C70_3 C 0.3383(7) 0.1509(12) 0.6314(6)
H73_3 H 0.3448 0.1911 0.6061
H74_3 H 0.3699 0.1214 0.6431
H75_3 H 0.3141 0.1018 0.6218
C71_3 C 0.2361(7) 0.2592(16) 0.6249(7)
H76_3 H 0.2155 0.2011 0.6241
H77_3 H 0.2518 0.2638 0.5962
C72_3 C 0.2040(9) 0.3391(19) 0.6294(13)
H78_3 H 0.2266 0.3937 0.6265
H79_3 H 0.1815 0.3385 0.6017
C73_3 C 0.1696(8) 0.3699(15) 0.6650(7)
H80_3 H 0.1509 0.3159 0.6765
H81_3 H 0.1453 0.4186 0.6536
C74_3 C 0.1717(6) 0.4453(12) 0.7285(8)
H82_3 H 0.1489 0.4928 0.7138
H83_3 H 0.1514 0.3951 0.7413
C75_3 C 0.2082(9) 0.4901(15) 0.7640(8)
H84_3 H 0.1868 0.5292 0.7822
H85_3 H 0.2283 0.5350 0.7475
C76_3 C 0.2445(8) 0.4446(13) 0.7961(8)
H86_3 H 0.2244 0.4101 0.8171
H87_3 H 0.2618 0.4960 0.8133
N34_2 N 0.3097(3) 0.4474(6) 0.7005(3)
N23_3 N 0.1965(4) 0.9991(7) 0.9294(3)
N27_2 N 0.1903(3) 0.9474(6) 0.7995(3)
Ni6_2 Ni 0.23190(5) 0.83347(8) 0.77532(4)
N2_4 N 0.2253(3) 0.0105(5) 0.2473(2)
N5_4 N 0.2205(4) 0.1552(7) 0.4020(3)
N7_4 N 0.1089(3) 0.1406(6) 0.2986(3)
N13_4 N 0.2278(3) 0.0652(6) 0.1552(2)
N14_4 N 0.1980(3) 0.1974(5) 0.2082(3)
N15_4 N 0.3020(3) 0.1574(6) 0.2704(3)
H2_4 H 0.2912 0.1165 0.2917
N16_4 N 0.3176(3) 0.0200(6) 0.1890(3)
N19_4 N 0.0108(4) 0.0133(7) 0.2500(4)
H3_4 H 0.0433 0.0263 0.2615
C5_4 C 0.2069(4) 0.0880(7) 0.3819(3)
C7_4 C 0.1345(3) 0.0811(6) 0.3159(3)
C17_4 C 0.1360(6) 0.0592(10) 0.5365(5)
H11_4 H 0.1530 0.0983 0.5598
H12_4 H 0.1328 0.0946 0.5085
H13_4 H 0.1024 0.0422 0.5451
C18_4 C 0.2466(7) 0.0542(8) 0.5140(4)
H14_4 H 0.2355 0.0786 0.4841
H15_4 H 0.2398 0.1038 0.5358
C19_4 C 0.3032(6) 0.0371(10) 0.5159(4)
H16_4 H 0.3145 0.0159 0.5462
H17_4 H 0.3201 0.0979 0.5107
H37_4 H 0.0525 0.0166 0.1518
C35_4 C 0.0100(6) 0.0342(12) 0.2034(7)
H40_4 H 0.0179 0.1018 0.1999
H43_4 H 0.0238 0.0442 0.3303
C39_4 C 0.1644(4) 0.1731(9) 0.1735(4)
C40_4 C 0.1161(5) 0.2308(10) 0.1640(6)
H47_4 H 0.1133 0.2774 0.1877
H48_4 H 0.1172 0.2630 0.1354
H49_4 H 0.0869 0.1886 0.1630
C41_4 C 0.1811(4) 0.0934(7) 0.1467(3)
C42_4 C 0.1487(5) 0.0421(11) 0.1122(4)
H50_4 H 0.1148 0.0588 0.1040
C48_4 C 0.3688(4) 0.0164(9) 0.2117(5)
H57_4 H 0.3910 0.0603 0.1967
C49_4 C 0.3693(5) 0.0424(9) 0.2603(4)
C50_4 C 0.3566(4) 0.1432(9) 0.2701(4)
H59_4 H 0.3700 0.1845 0.2473
H60_4 H 0.3730 0.1612 0.2994
C51_4 C 0.2854(5) 0.2541(7) 0.2834(3)
H61_4 H 0.3001 0.2683 0.3138
H62_4 H 0.2987 0.3009 0.2629
C52_4 C 0.2271(5) 0.2647(7) 0.2823(4)
H63_4 H 0.2204 0.3197 0.3012
H64_4 H 0.2144 0.2087 0.2975
C53_4 C 0.1941(4) 0.2765(7) 0.2388(4)
H65_4 H 0.2039 0.3351 0.2239
H66_4 H 0.1585 0.2833 0.2458
H84_4 H 0.3132 0.0292 0.7178
H85_4 H 0.2717 0.0350 0.7525
H88_4 H 0.409763 0.0614488 0.260395
Mo1_4 Mo 0.18058(2) 0.96196(5) 0.34463(2)
Ni1_4 Ni 0.24271(5) 0.83493(8) 0.50892(3)
Ni3_4 Ni 0.00109(4) 0.87155(8) 0.25850(4)
N1_4 N 0.2169(3) 0.8625(5) 0.4429(2)
N3_4 N 0.0783(3) 0.8686(5) 0.2885(3)
N4_4 N 0.3084(3) 0.9588(7) 0.3556(3)
N6_4 N 0.0869(4) 0.9805(10) 0.4107(3)
N9_4 N 0.1727(3) 0.8035(7) 0.5227(2)
N10_4 N 0.2407(4) 0.6915(6) 0.4959(2)
N11_4 N 0.3144(3) 0.8689(6) 0.4964(3)
H1_4 H 0.3331 0.8629 0.5235
N12_4 N 0.2154(4) 0.9702(6) 0.5231(2)
N20_4 N 0.0203(3) 0.8122(10) 0.2009(4)
N21_4 N 0.2719(3) 0.8021(6) 0.5751(2)
N22_4 N 0.2778(3) 0.7287(5) 0.7466(3)
N23_4 N 0.3035(4) 0.4991(7) 0.5706(3)
N24_4 N 0.4210(4) 0.6684(9) 0.5901(3)
N25_4 N 0.1989(3) 0.6170(7) 0.6418(4)
N26_4 N 0.3776(4) 0.8710(6) 0.6725(3)
N28_4 N 0.1715(5) 0.7629(9) 0.7605(7)
N29_4 N 0.2210(6) 0.7512(9) 0.8361(5)
N30_4 N 0.2945(5) 0.9076(9) 0.8015(5)
H4_4 H 0.2812 0.9601 0.8148
N31_4 N 0.2177(5) 0.8822(9) 0.7155(4)
C1_4 C 0.2035(3) 0.8963(6) 0.4089(3)
C2_4 C 0.2068(3) 0.9904(5) 0.2792(3)
C3_4 C 0.1149(3) 0.8986(6) 0.3069(3)
C4_4 C 0.2637(3) 0.9589(6) 0.3512(3)
C6_4 C 0.1183(4) 0.9741(8) 0.3878(3)
C8_4 C 0.1971(3) 0.8139(6) 0.3298(2)
C9_4 C 0.2001(5) 0.6498(7) 0.5060(4)
C10_4 C 0.1895(6) 0.5437(8) 0.5025(5)
H5_4 H 0.2205 0.5103 0.4967
H6_4 H 0.1772 0.5211 0.5304
H7_4 H 0.1639 0.5320 0.4780
C11_4 C 0.1593(5) 0.7138(9) 0.5212(4)
C12_4 C 0.1086(7) 0.6908(14) 0.5283(6)
H8_4 H 0.0972 0.6275 0.5261
C13_4 C 0.0779(6) 0.758(2) 0.5381(7)
H9_4 H 0.0447 0.7418 0.5447
C14_4 C 0.0922(6) 0.8557(16) 0.5392(6)
H10_4 H 0.0691 0.9044 0.5447
C15_4 C 0.1418(5) 0.8744(10) 0.5318(4)
C16_4 C 0.1670(5) 0.9690(10) 0.5303(3)
C20_4 C 0.3209(6) 0.9657(9) 0.4830(4)
H18_4 H 0.3570 0.9768 0.4791
H19_4 H 0.3021 0.9757 0.4538
C21_4 C 0.3351(5) 0.7942(10) 0.4660(4)
H20_4 H 0.3706 0.8095 0.4613
H21_4 H 0.3157 0.7961 0.4368
C22_4 C 0.3327(5) 0.6996(10) 0.4842(4)
H22_4 H 0.3593 0.6617 0.4714
H23_4 H 0.3415 0.7037 0.5166
C23_4 C 0.2820(5) 0.6435(8) 0.4770(4)
H24_4 H 0.2863 0.5805 0.4907
H25_4 H 0.2737 0.6346 0.4447
C31_4 C 0.0127(4) 0.7213(13) 0.1978(5)
C32_4 C 0.0148(6) 0.6674(14) 0.1533(5)
H32_4 H 0.0392 0.6980 0.1351
H33_4 H 0.0252 0.6022 0.1593
C33_4 C 0.0306(6) 0.8754(17) 0.1606(5)
H35_4 H 0.0585 0.8487 0.1447
H36_4 H 0.0002 0.8782 0.1396
C34_4 C 0.0451(7) 0.9786(19) 0.1781(6)
H38_4 H 0.0769 0.9731 0.1970
C43_4 C 0.1728(8) 0.9683(13) 0.0934(4)
H51_4 H 0.1539 0.9349 0.0706
C44_4 C 0.2217(7) 0.9368(10) 0.1038(4)
H52_4 H 0.2353 0.8832 0.0902
C45_4 C 0.2491(5) 0.9908(6) 0.1360(3)
C46_4 C 0.3031(6) 0.9735(8) 0.1549(4)
C47_4 C 0.3348(6) 0.9041(9) 0.1309(5)
H53_4 H 0.3433 0.8501 0.1502
H54_4 H 0.3159 0.8823 0.1037
H55_4 H 0.3659 0.9350 0.1231
H56_4 H 0.3825 0.9521 0.2090
H58_4 H 0.3771 0.9979 0.2833
C54_4 C 0.2909(3) 0.7512(6) 0.6028(3)
C55_4 C 0.2943(3) 0.7031(6) 0.7139(3)
C56_4 C 0.3115(4) 0.5548(7) 0.5994(3)
C57_4 C 0.3869(4) 0.6622(7) 0.6126(3)
C58_4 C 0.3586(4) 0.7966(7) 0.6671(3)
C59_4 C 0.2420(4) 0.6306(7) 0.6452(3)
C60_4 C 0.3171(3) 0.5205(6) 0.6841(3)
C62_4 C 0.1781(7) 0.8462(12) 0.6919(6)
C63_4 C 0.1689(8) 0.8644(14) 0.6452(7)
H67_4 H 0.1450 0.8180 0.6321
H68_4 H 0.1549 0.9278 0.6409
H69_4 H 0.2006 0.8599 0.6308
C64_4 C 0.1491(7) 0.7814(12) 0.7199(7)
C65_4 C 0.1002(7) 0.7327(15) 0.7015(8)
H70_4 H 0.0860 0.7350 0.6717
C66_4 C 0.0800(8) 0.6823(15) 0.7386(10)
H71_4 H 0.0481 0.6547 0.7310
C67_4 C 0.0988(6) 0.6650(11) 0.7856(8)
H72_4 H 0.0826 0.6315 0.8077
C68_4 C 0.1476(6) 0.7111(11) 0.7899(8)
C69_4 C 0.1839(8) 0.7127(13) 0.8308(8)
C70_4 C 0.1617(7) 0.6509(12) 0.8686(6)
H73_4 H 0.1552 0.6911 0.8939
H74_4 H 0.1301 0.6214 0.8569
H75_4 H 0.1859 0.6018 0.8782
C71_4 C 0.2639(7) 0.7592(16) 0.8751(7)
H76_4 H 0.2845 0.7011 0.8759
H77_4 H 0.2482 0.7638 0.9038
C72_4 C 0.2960(9) 0.8391(19) 0.8706(13)
H78_4 H 0.2734 0.8937 0.8735
H79_4 H 0.3185 0.8385 0.8983
C73_4 C 0.3304(8) 0.8699(15) 0.8350(7)
H80_4 H 0.3491 0.8159 0.8235
H81_4 H 0.3547 0.9186 0.8464
C74_4 C 0.3283(6) 0.9453(12) 0.7715(8)
H82_4 H 0.3511 0.9928 0.7862
H83_4 H 0.3486 0.8951 0.7587
C75_4 C 0.2918(9) 0.9901(15) 0.7360(8)
C76_4 C 0.2555(8) 0.9446(13) 0.7039(8)
H86_4 H 0.2756 0.9101 0.6829
H87_4 H 0.2382 0.9960 0.6867
N17_4 N 0.9903(3) 0.7352(6) 0.2704(3)
N18_4 N 0.9740(3) 0.8742(7) 0.3220(3)
C24_4 C 0.9655(4) 0.7942(11) 0.3377(5)
C25_4 C 0.9464(7) 0.7776(18) 0.3836(6)
H26_4 H 0.9096 0.7828 0.3816
H27_4 H 0.9563 0.7146 0.3941
H28_4 H 0.9609 0.8249 0.4044
C26_4 C 0.9764(4) 0.7120(9) 0.3106(5)
C27_4 C 0.9716(6) 0.6206(13) 0.3229(7)
H29_4 H 0.9630 0.6040 0.3518
C28_4 C 0.9792(7) 0.5568(16) 0.2931(10)
H30_2 H 0.9762 0.4930 0.3019
C29_4 C 0.9919(5) 0.5732(11) 0.2480(8)
H31_4 H 0.9951 0.5245 0.2269
C30_4 C 0.9993(4) 0.6755(9) 0.2383(6)
H34_4 H 0.9815 0.6681 0.1372
C38_4 C 0.9608(6) 0.9656(11) 0.3428(5)
H45_4 H 0.9239 0.9747 0.3386
H46_4 H 0.9700 0.9622 0.3751
C61_4 C 0.9263(3) 0.8805(6) 0.2263(3)
H30_3 H 0.4762 0.0070 0.8019
H39_3 H 0.0246 0.9762 0.8100
C36_3 C 0.0219(5) 0.9280(9) 0.7250(6)
H41_3 H 0.0150 0.8607 0.7308
H42_3 H 0.0575 0.9409 0.7348
C37_3 C 0.0129(5) 0.9480(11) 0.6764(7)
H44_3 H 0.0232 0.8916 0.6600
H30_4 H 0.5238 0.9930 0.1981
H39_4 H 0.9754 0.0238 0.1900
C36_4 C 0.9781(5) 0.0720(9) 0.2750(6)
H41_4 H 0.9850 0.1393 0.2692
H42_4 H 0.9425 0.0591 0.2652
C37_4 C 0.9871(5) 0.0520(11) 0.3236(7)
H44_4 H 0.9768 0.1084 0.3400
loop_
_geom_bond_atom_site_label_1
_geom_bond_atom_site_label_2
_geom_bond_site_symmetry_1
_geom_bond_site_symmetry_2
Ni6 N27 1_555 1_555
Mo2 C54 1_555 1_555
Ni4 N22 1_555 1_555
N9 Ni1 1_555 1_555
N12 Ni1 1_555 1_555
N21 Ni1 1_555 1_555
N22 C55 1_555 1_555
N24 C57 1_555 1_555
N25 C59 1_555 1_555
N26 C58 1_555 1_555
N28 Ni4 1_555 1_555
N29 Ni4 1_555 1_555
N30 Ni4 1_555 1_555
H4 N30 1_555 1_555
N31 Ni4 1_555 1_555
C10 C9 1_555 1_555
H6 C10 1_555 1_555
C11 N9 1_555 1_555
C12 C11 1_555 1_555
H8 C12 1_555 1_555
C13 C12 1_555 1_555
H9 C13 1_555 1_555
C14 C13 1_555 1_555
H10 C14 1_555 1_555
C15 N9 1_555 1_555
C16 N12 1_555 1_555
C17 C16 1_555 1_555
H11 C17 1_555 1_555
H12 C17 1_555 1_555
H13 C17 1_555 1_555
C18 N12 1_555 1_555
H15 C18 1_555 1_555
C19 C18 1_555 1_555
H16 C19 1_555 1_555
H17 C19 1_555 1_555
C54 N21 1_555 1_555
C55 Mo2 1_555 1_555
C56 Mo2 1_555 1_555
C57 Mo2 1_555 1_555
C58 Mo2 1_555 1_555
C59 Mo2 1_555 1_555
C60 Mo2 1_555 1_555
C62 N31 1_555 1_555
C63 C62 1_555 1_555
H67 C63 1_555 1_555
H68 C63 1_555 1_555
H69 C63 1_555 1_555
C64 N28 1_555 1_555
C65 C64 1_555 1_555
H70 C65 1_555 1_555
C66 C65 1_555 1_555
H71 C66 1_555 1_555
C67 C66 1_555 1_555
H72 C67 1_555 1_555
C68 N28 1_555 1_555
C69 N29 1_555 1_555
C70 C69 1_555 1_555
H73 C70 1_555 1_555
H74 C70 1_555 1_555
H75 C70 1_555 1_555
C71 N29 1_555 1_555
H76 C71 1_555 1_555
H77 C71 1_555 1_555
C72 C71 1_555 1_555
H78 C72 1_555 1_555
H79 C72 1_555 1_555
C73 N30 1_555 1_555
H80 C73 1_555 1_555
H81 C73 1_555 1_555
C74 N30 1_555 1_555
H82 C74 1_555 1_555
H83 C74 1_555 1_555
C75 C74 1_555 1_555
H84 C75 1_555 1_555
H85 C75 1_555 1_555
C76 N31 1_555 1_555
H86 C76 1_555 1_555
H87 C76 1_555 1_555
N34 Ni4 1_555 1_555
N35 Mo2 1_555 1_555
C9 C11 1_555 1_555
C14 C15 1_555 1_555
C15 C16 1_555 1_555
C62 C64 1_555 1_555
C67 C68 1_555 1_555
C68 C69 1_555 1_555
C72 C73 1_555 1_555
C75 C76 1_555 1_555
Mo1 C1 1_555 1_555
Ni2 N2 1_555 1_555
Ni3 N3 1_555 1_555
N1 C1 1_555 1_555
N2 C2 1_555 1_555
N3 C3 1_555 1_555
N4 C4 1_555 1_555
N5 C5 1_555 1_555
N6 C6 1_555 1_555
N7 C7 1_555 1_555
N8 C8 1_555 1_555
N13 Ni2 1_555 1_555
N14 Ni2 1_555 1_555
N15 Ni2 1_555 1_555
H2 N15 1_555 1_555
N16 Ni2 1_555 1_555
N17 Ni3 1_555 1_555
N18 Ni3 1_555 1_555
N19 Ni3 1_555 1_555
H3 N19 1_555 1_555
N20 Ni3 1_555 1_555
N32 C61 1_555 1_555
C2 Mo1 1_555 1_555
C3 Mo1 1_555 1_555
C4 Mo1 1_555 1_555
C5 Mo1 1_555 1_555
C6 Mo1 1_555 1_555
C7 Mo1 1_555 1_555
C8 Mo1 1_555 1_555
C20 N11 1_555 1_555
H18 C20 1_555 1_555
H19 C20 1_555 1_555
C21 N11 1_555 1_555
H20 C21 1_555 1_555
H21 C21 1_555 1_555
C22 C21 1_555 1_555
H22 C22 1_555 1_555
C23 N10 1_555 1_555
H24 C23 1_555 1_555
H25 C23 1_555 1_555
C24 N18 1_555 1_555
C25 C24 1_555 1_555
H26 C25 1_555 1_555
H27 C25 1_555 1_555
H28 C25 1_555 1_555
C26 N17 1_555 1_555
C27 C26 1_555 1_555
H29 C27 1_555 1_555
C28 C27 1_555 1_555
C29 C28 1_555 1_555
H31 C29 1_555 1_555
C30 N17 1_555 1_555
C31 N20 1_555 1_555
C32 C31 1_555 1_555
H32 C32 1_555 1_555
H33 C32 1_555 1_555
H34 C32 1_555 1_555
C33 N20 1_555 1_555
H35 C33 1_555 1_555
H36 C33 1_555 1_555
C34 C33 1_555 1_555
H37 C34 1_555 1_555
H38 C34 1_555 1_555
C35 N19 1_555 1_555
H39 C35 1_555 1_555
H40 C35 1_555 1_555
C36 N19 1_555 1_555
H41 C36 1_555 1_555
H42 C36 1_555 1_555
C37 C36 1_555 1_555
H43 C37 1_555 1_555
H44 C37 1_555 1_555
C38 N18 1_555 1_555
H45 C38 1_555 1_555
H46 C38 1_555 1_555
C39 N14 1_555 1_555
C40 C39 1_555 1_555
H47 C40 1_555 1_555
H48 C40 1_555 1_555
H49 C40 1_555 1_555
C41 N13 1_555 1_555
C42 C41 1_555 1_555
H50 C42 1_555 1_555
C43 C42 1_555 1_555
H51 C43 1_555 1_555
C44 C43 1_555 1_555
H52 C44 1_555 1_555
C45 N13 1_555 1_555
C46 N16 1_555 1_555
C47 C46 1_555 1_555
H53 C47 1_555 1_555
H54 C47 1_555 1_555
H55 C47 1_555 1_555
C48 N16 1_555 1_555
H56 C48 1_555 1_555
H57 C48 1_555 1_555
C49 C48 1_555 1_555
H58 C49 1_555 1_555
C50 N15 1_555 1_555
H59 C50 1_555 1_555
H60 C50 1_555 1_555
C51 N15 1_555 1_555
H61 C51 1_555 1_555
H62 C51 1_555 1_555
C52 C51 1_555 1_555
H63 C52 1_555 1_555
H64 C52 1_555 1_555
C53 N14 1_555 1_555
H65 C53 1_555 1_555
H66 C53 1_555 1_555
C61 Ni3 1_555 1_555
Mo3 N32 1_555 1_555
Ni5 N8 1_555 1_555
N33 Ni2 1_555 1_555
C22 C23 1_555 1_555
C24 C26 1_555 1_555
C29 C30 1_555 1_555
C30 C31 1_555 1_555
C34 C35 1_555 1_555
C37 C38 1_555 1_555
C39 C41 1_555 1_555
C44 C45 1_555 1_555
C45 C46 1_555 1_555
C49 C50 1_555 1_555
C52 C53 1_555 1_555
C49 H88 1_555 1_555
N32_2 C61_2 1_555 1_555
C24_2 N18_2 1_555 1_555
C25_2 C24_2 1_555 1_555
H26_2 C25_2 1_555 1_555
H27_2 C25_2 1_555 1_555
H28_2 C25_2 1_555 1_555
C26_2 N17_2 1_555 1_555
C27_2 C26_2 1_555 1_555
H29_2 C27_2 1_555 1_555
C28_2 C27_2 1_555 1_555
H30 C28_2 1_555 1_555
C29_2 C28_2 1_555 1_555
H31_2 C29_2 1_555 1_555
C30_2 N17_2 1_555 1_555
C38_2 N18_2 1_555 1_555
H45_2 C38_2 1_555 1_555
H46_2 C38_2 1_555 1_555
Mo3_2 N32_2 1_555 1_555
C24_2 C26_2 1_555 1_555
C29_2 C30_2 1_555 1_555
Mo1_2 C1_2 1_555 1_555
Mo2_2 C54_2 1_555 1_555
Ni1_2 N1_2 1_555 1_555
Ni3_2 N3_2 1_555 1_555
Ni6 N22_2 1_555 1_555
N1_2 C1_2 1_555 1_555
N3_2 C3_2 1_555 1_555
N4_2 C4_2 1_555 1_555
N6_2 C6_2 1_555 1_555
N33 C8_2 1_555 1_555
N9_2 Ni1_2 1_555 1_555
N10_2 Ni1_2 1_555 1_555
N11_2 Ni1_2 1_555 1_555
H1_2 N11_2 1_555 1_555
N12_2 Ni1_2 1_555 1_555
N20_2 Ni3_2 1_555 1_555
N21_2 Ni1_2 1_555 1_555
N22_2 C55_2 1_555 1_555
N23_2 C56_2 1_555 1_555
N24_2 C57_2 1_555 1_555
N25_2 C59_2 1_555 1_555
N26_2 C58_2 1_555 1_555
N34 C60_2 1_555 1_555
N28_2 Ni6 1_555 1_555
N29_2 Ni6 1_555 1_555
N30_2 Ni6 1_555 1_555
H4_2 N30_2 1_555 1_555
N31_2 Ni6 1_555 1_555
C2_2 Mo1_2 1_555 1_555
C3_2 Mo1_2 1_555 1_555
C4_2 Mo1_2 1_555 1_555
C6_2 Mo1_2 1_555 1_555
C8_2 Mo1_2 1_555 1_555
C9_2 N10_2 1_555 1_555
C10_2 C9_2 1_555 1_555
H5_2 C10_2 1_555 1_555
H6_2 C10_2 1_555 1_555
H7_2 C10_2 1_555 1_555
C11_2 N9_2 1_555 1_555
C12_2 C11_2 1_555 1_555
H8_2 C12_2 1_555 1_555
C13_2 C12_2 1_555 1_555
H9_2 C13_2 1_555 1_555
C14_2 C13_2 1_555 1_555
H10_2 C14_2 1_555 1_555
C15_2 N9_2 1_555 1_555
C16_2 N12_2 1_555 1_555
C20_2 N11_2 1_555 1_555
H18_2 C20_2 1_555 1_555
H19_2 C20_2 1_555 1_555
C21_2 N11_2 1_555 1_555
H20_2 C21_2 1_555 1_555
H21_2 C21_2 1_555 1_555
C22_2 C21_2 1_555 1_555
H22_2 C22_2 1_555 1_555
H23_2 C22_2 1_555 1_555
C23_2 N10_2 1_555 1_555
H24_2 C23_2 1_555 1_555
H25_2 C23_2 1_555 1_555
C31_2 N20_2 1_555 1_555
C32_2 C31_2 1_555 1_555
H32_2 C32_2 1_555 1_555
H33_2 C32_2 1_555 1_555
C33_2 N20_2 1_555 1_555
H35_2 C33_2 1_555 1_555
H36_2 C33_2 1_555 1_555
C34_2 C33_2 1_555 1_555
H38_2 C34_2 1_555 1_555
H51_2 C43_2 1_555 1_555
C44_2 C43_2 1_555 1_555
H52_2 C44_2 1_555 1_555
C47_2 C46_2 1_555 1_555
H53_2 C47_2 1_555 1_555
H54_2 C47_2 1_555 1_555
H55_2 C47_2 1_555 1_555
C54_2 N21_2 1_555 1_555
C55_2 Mo2_2 1_555 1_555
C56_2 Mo2_2 1_555 1_555
C57_2 Mo2_2 1_555 1_555
C58_2 Mo2_2 1_555 1_555
C59_2 Mo2_2 1_555 1_555
C60_2 Mo2_2 1_555 1_555
C62_2 N31_2 1_555 1_555
C63_2 C62_2 1_555 1_555
H67_2 C63_2 1_555 1_555
H68_2 C63_2 1_555 1_555
H69_2 C63_2 1_555 1_555
C64_2 N28_2 1_555 1_555
C65_2 C64_2 1_555 1_555
H70_2 C65_2 1_555 1_555
C66_2 C65_2 1_555 1_555
H71_2 C66_2 1_555 1_555
C67_2 C66_2 1_555 1_555
H72_2 C67_2 1_555 1_555
C68_2 N28_2 1_555 1_555
C69_2 N29_2 1_555 1_555
C70_2 C69_2 1_555 1_555
H73_2 C70_2 1_555 1_555
H74_2 C70_2 1_555 1_555
H75_2 C70_2 1_555 1_555
C71_2 N29_2 1_555 1_555
H76_2 C71_2 1_555 1_555
H77_2 C71_2 1_555 1_555
C72_2 C71_2 1_555 1_555
H78_2 C72_2 1_555 1_555
H79_2 C72_2 1_555 1_555
C73_2 N30_2 1_555 1_555
H80_2 C73_2 1_555 1_555
H81_2 C73_2 1_555 1_555
C74_2 N30_2 1_555 1_555
H82_2 C74_2 1_555 1_555
H83_2 C74_2 1_555 1_555
C75_2 C74_2 1_555 1_555
C76_2 N31_2 1_555 1_555
H86_2 C76_2 1_555 1_555
H87_2 C76_2 1_555 1_555
N35_2 Mo2_2 1_555 1_555
C9_2 C11_2 1_555 1_555
C14_2 C15_2 1_555 1_555
C15_2 C16_2 1_555 1_555
C22_2 C23_2 1_555 1_555
C44_2 C45_2 1_555 1_555
C45_2 C46_2 1_555 1_555
C62_2 C64_2 1_555 1_555
C67_2 C68_2 1_555 1_555
C68_2 C69_2 1_555 1_555
C72_2 C73_2 1_555 1_555
C75_2 C76_2 1_555 1_555
Ni5 N2_2 1_555 1_555
N5_2 C5_2 1_555 1_555
N7_2 C7_2 1_555 1_555
N13_2 Ni5 1_555 1_555
N14_2 Ni5 1_555 1_555
N15_2 Ni5 1_555 1_555
H2_2 N15_2 1_555 1_555
N16_2 Ni5 1_555 1_555
H3_2 N19_2 1_555 1_555
H11_2 C17_2 1_555 1_555
H12_2 C17_2 1_555 1_555
H13_2 C17_2 1_555 1_555
H14_2 C18_2 1_555 1_555
H15_2 C18_2 1_555 1_555
C19_2 C18_2 1_555 1_555
H16_2 C19_2 1_555 1_555
H17_2 C19_2 1_555 1_555
C35_2 N19_2 1_555 1_555
H40_2 C35_2 1_555 1_555
C39_2 N14_2 1_555 1_555
C40_2 C39_2 1_555 1_555
H47_2 C40_2 1_555 1_555
H48_2 C40_2 1_555 1_555
H49_2 C40_2 1_555 1_555
C41_2 N13_2 1_555 1_555
C42_2 C41_2 1_555 1_555
H50_2 C42_2 1_555 1_555
C48_2 N16_2 1_555 1_555
H57_2 C48_2 1_555 1_555
C49_2 C48_2 1_555 1_555
C50_2 N15_2 1_555 1_555
H59_2 C50_2 1_555 1_555
H60_2 C50_2 1_555 1_555
C51_2 N15_2 1_555 1_555
H61_2 C51_2 1_555 1_555
H62_2 C51_2 1_555 1_555
C52_2 C51_2 1_555 1_555
H63_2 C52_2 1_555 1_555
H64_2 C52_2 1_555 1_555
C53_2 N14_2 1_555 1_555
H65_2 C53_2 1_555 1_555
H66_2 C53_2 1_555 1_555
C39_2 C41_2 1_555 1_555
C49_2 C50_2 1_555 1_555
C52_2 C53_2 1_555 1_555
C49_2 H88_2 1_555 1_555
Mo1_3 C1_3 1_555 1_555
Ni2_2 N2_3 1_555 1_555
Ni3_3 N3_3 1_555 1_555
N1_3 C1_3 1_555 1_555
N2_3 C2_3 1_555 1_555
N3_3 C3_3 1_555 1_555
N4_3 C4_3 1_555 1_555
N5_3 C5_3 1_555 1_555
N6_3 C6_3 1_555 1_555
N7_3 C7_3 1_555 1_555
N8_2 C8_3 1_555 1_555
N13_3 Ni2_2 1_555 1_555
N14_3 Ni2_2 1_555 1_555
N15_3 Ni2_2 1_555 1_555
H2_3 N15_3 1_555 1_555
N16_3 Ni2_2 1_555 1_555
N17_3 Ni3_3 1_555 1_555
N18_3 Ni3_3 1_555 1_555
N19_3 Ni3_3 1_555 1_555
H3_3 N19_3 1_555 1_555
N20_3 Ni3_3 1_555 1_555
N35_2 C61_3 1_555 1_555
C2_3 Mo1_3 1_555 1_555
C3_3 Mo1_3 1_555 1_555
C4_3 Mo1_3 1_555 1_555
C5_3 Mo1_3 1_555 1_555
C6_3 Mo1_3 1_555 1_555
C7_3 Mo1_3 1_555 1_555
C8_3 Mo1_3 1_555 1_555
C20_3 N11_3 1_555 1_555
H18_3 C20_3 1_555 1_555
H19_3 C20_3 1_555 1_555
C21_3 N11_3 1_555 1_555
H20_3 C21_3 1_555 1_555
H21_3 C21_3 1_555 1_555
C22_3 C21_3 1_555 1_555
H22_3 C22_3 1_555 1_555
C23_3 N10_3 1_555 1_555
H24_3 C23_3 1_555 1_555
H25_3 C23_3 1_555 1_555
C24_3 N18_3 1_555 1_555
C25_3 C24_3 1_555 1_555
H26_3 C25_3 1_555 1_555
H27_3 C25_3 1_555 1_555
H28_3 C25_3 1_555 1_555
C26_3 N17_3 1_555 1_555
C27_3 C26_3 1_555 1_555
H29_3 C27_3 1_555 1_555
C28_3 C27_3 1_555 1_555
C29_3 C28_3 1_555 1_555
H31_3 C29_3 1_555 1_555
C30_3 N17_3 1_555 1_555
C31_3 N20_3 1_555 1_555
C32_3 C31_3 1_555 1_555
H32_3 C32_3 1_555 1_555
H33_3 C32_3 1_555 1_555
H34_3 C32_3 1_555 1_555
C33_3 N20_3 1_555 1_555
H35_3 C33_3 1_555 1_555
H36_3 C33_3 1_555 1_555
C34_3 C33_3 1_555 1_555
H37_3 C34_3 1_555 1_555
H38_3 C34_3 1_555 1_555
C35_3 N19_3 1_555 1_555
H39_2 C35_3 1_555 1_555
H40_3 C35_3 1_555 1_555
C36_2 N19_3 1_555 1_555
H41_2 C36_2 1_555 1_555
H42_2 C36_2 1_555 1_555
C37_2 C36_2 1_555 1_555
H43_3 C37_2 1_555 1_555
H44_2 C37_2 1_555 1_555
C38_3 N18_3 1_555 1_555
H45_3 C38_3 1_555 1_555
H46_3 C38_3 1_555 1_555
C39_3 N14_3 1_555 1_555
C40_3 C39_3 1_555 1_555
H47_3 C40_3 1_555 1_555
H48_3 C40_3 1_555 1_555
H49_3 C40_3 1_555 1_555
C41_3 N13_3 1_555 1_555
C42_3 C41_3 1_555 1_555
H50_3 C42_3 1_555 1_555
C43_3 C42_3 1_555 1_555
H51_3 C43_3 1_555 1_555
C44_3 C43_3 1_555 1_555
H52_3 C44_3 1_555 1_555
C45_3 N13_3 1_555 1_555
C46_3 N16_3 1_555 1_555
C47_3 C46_3 1_555 1_555
H53_3 C47_3 1_555 1_555
H54_3 C47_3 1_555 1_555
H55_3 C47_3 1_555 1_555
C48_3 N16_3 1_555 1_555
H56_3 C48_3 1_555 1_555
H57_3 C48_3 1_555 1_555
C49_3 C48_3 1_555 1_555
H58_3 C49_3 1_555 1_555
C50_3 N15_3 1_555 1_555
H59_3 C50_3 1_555 1_555
H60_3 C50_3 1_555 1_555
C51_3 N15_3 1_555 1_555
H61_3 C51_3 1_555 1_555
H62_3 C51_3 1_555 1_555
C52_3 C51_3 1_555 1_555
H63_3 C52_3 1_555 1_555
H64_3 C52_3 1_555 1_555
C53_3 N14_3 1_555 1_555
H65_3 C53_3 1_555 1_555
H66_3 C53_3 1_555 1_555
C61_3 Ni3_3 1_555 1_555
Ni5_2 N8_2 1_555 1_555
N33_2 Ni2_2 1_555 1_555
C22_3 C23_3 1_555 1_555
C24_3 C26_3 1_555 1_555
C29_3 C30_3 1_555 1_555
C30_3 C31_3 1_555 1_555
C34_3 C35_3 1_555 1_555
C37_2 C38_3 1_555 1_555
C39_3 C41_3 1_555 1_555
C44_3 C45_3 1_555 1_555
C45_3 C46_3 1_555 1_555
C49_3 C50_3 1_555 1_555
C52_3 C53_3 1_555 1_555
C49_3 H88_3 1_555 1_555
Mo3_2 C54_3 1_555 1_555
Ni4_2 N22_3 1_555 1_555
N9_3 Ni1_3 1_555 1_555
N12_3 Ni1_3 1_555 1_555
N21_3 Ni1_3 1_555 1_555
N22_3 C55_3 1_555 1_555
N24_3 C57_3 1_555 1_555
N25_3 C59_3 1_555 1_555
N26_3 C58_3 1_555 1_555
N28_3 Ni4_2 1_555 1_555
N29_3 Ni4_2 1_555 1_555
N30_3 Ni4_2 1_555 1_555
H4_3 N30_3 1_555 1_555
N31_3 Ni4_2 1_555 1_555
C10_3 C9_3 1_555 1_555
H6_3 C10_3 1_555 1_555
C11_3 N9_3 1_555 1_555
C12_3 C11_3 1_555 1_555
H8_3 C12_3 1_555 1_555
C13_3 C12_3 1_555 1_555
H9_3 C13_3 1_555 1_555
C14_3 C13_3 1_555 1_555
H10_3 C14_3 1_555 1_555
C15_3 N9_3 1_555 1_555
C16_3 N12_3 1_555 1_555
C17_3 C16_3 1_555 1_555
H11_3 C17_3 1_555 1_555
H12_3 C17_3 1_555 1_555
H13_3 C17_3 1_555 1_555
C18_3 N12_3 1_555 1_555
H15_3 C18_3 1_555 1_555
C19_3 C18_3 1_555 1_555
H16_3 C19_3 1_555 1_555
H17_3 C19_3 1_555 1_555
C54_3 N21_3 1_555 1_555
C55_3 Mo3_2 1_555 1_555
C56_3 Mo3_2 1_555 1_555
C57_3 Mo3_2 1_555 1_555
C58_3 Mo3_2 1_555 1_555
C59_3 Mo3_2 1_555 1_555
C60_3 Mo3_2 1_555 1_555
C62_3 N31_3 1_555 1_555
C63_3 C62_3 1_555 1_555
H67_3 C63_3 1_555 1_555
H68_3 C63_3 1_555 1_555
H69_3 C63_3 1_555 1_555
C64_3 N28_3 1_555 1_555
C65_3 C64_3 1_555 1_555
H70_3 C65_3 1_555 1_555
C66_3 C65_3 1_555 1_555
H71_3 C66_3 1_555 1_555
C67_3 C66_3 1_555 1_555
H72_3 C67_3 1_555 1_555
C68_3 N28_3 1_555 1_555
C69_3 N29_3 1_555 1_555
C70_3 C69_3 1_555 1_555
H73_3 C70_3 1_555 1_555
H74_3 C70_3 1_555 1_555
H75_3 C70_3 1_555 1_555
C71_3 N29_3 1_555 1_555
H76_3 C71_3 1_555 1_555
H77_3 C71_3 1_555 1_555
C72_3 C71_3 1_555 1_555
H78_3 C72_3 1_555 1_555
H79_3 C72_3 1_555 1_555
C73_3 N30_3 1_555 1_555
H80_3 C73_3 1_555 1_555
H81_3 C73_3 1_555 1_555
C74_3 N30_3 1_555 1_555
H82_3 C74_3 1_555 1_555
H83_3 C74_3 1_555 1_555
C75_3 C74_3 1_555 1_555
H84_3 C75_3 1_555 1_555
H85_3 C75_3 1_555 1_555
C76_3 N31_3 1_555 1_555
H86_3 C76_3 1_555 1_555
H87_3 C76_3 1_555 1_555
N34_2 Ni4_2 1_555 1_555
C9_3 C11_3 1_555 1_555
C14_3 C15_3 1_555 1_555
C15_3 C16_3 1_555 1_555
C62_3 C64_3 1_555 1_555
C67_3 C68_3 1_555 1_555
C68_3 C69_3 1_555 1_555
C72_3 C73_3 1_555 1_555
C75_3 C76_3 1_555 1_555
Ni6_2 N27_2 1_555 1_555
Ni5_2 N2_4 1_555 1_555
N5_4 C5_4 1_555 1_555
N7_4 C7_4 1_555 1_555
N13_4 Ni5_2 1_555 1_555
N14_4 Ni5_2 1_555 1_555
N15_4 Ni5_2 1_555 1_555
H2_4 N15_4 1_555 1_555
N16_4 Ni5_2 1_555 1_555
H3_4 N19_4 1_555 1_555
H11_4 C17_4 1_555 1_555
H12_4 C17_4 1_555 1_555
H13_4 C17_4 1_555 1_555
H14_4 C18_4 1_555 1_555
H15_4 C18_4 1_555 1_555
C19_4 C18_4 1_555 1_555
H16_4 C19_4 1_555 1_555
H17_4 C19_4 1_555 1_555
C35_4 N19_4 1_555 1_555
H40_4 C35_4 1_555 1_555
C39_4 N14_4 1_555 1_555
C40_4 C39_4 1_555 1_555
H47_4 C40_4 1_555 1_555
H48_4 C40_4 1_555 1_555
H49_4 C40_4 1_555 1_555
C41_4 N13_4 1_555 1_555
C42_4 C41_4 1_555 1_555
H50_4 C42_4 1_555 1_555
C48_4 N16_4 1_555 1_555
H57_4 C48_4 1_555 1_555
C49_4 C48_4 1_555 1_555
C50_4 N15_4 1_555 1_555
H59_4 C50_4 1_555 1_555
H60_4 C50_4 1_555 1_555
C51_4 N15_4 1_555 1_555
H61_4 C51_4 1_555 1_555
H62_4 C51_4 1_555 1_555
C52_4 C51_4 1_555 1_555
H63_4 C52_4 1_555 1_555
H64_4 C52_4 1_555 1_555
C53_4 N14_4 1_555 1_555
H65_4 C53_4 1_555 1_555
H66_4 C53_4 1_555 1_555
C39_4 C41_4 1_555 1_555
C49_4 C50_4 1_555 1_555
C52_4 C53_4 1_555 1_555
C49_4 H88_4 1_555 1_555
Mo1_4 C1_4 1_555 1_555
Mo3 C54_4 1_555 1_555
Ni1_4 N1_4 1_555 1_555
Ni3_4 N3_4 1_555 1_555
Ni6_2 N22_4 1_555 1_555
N1_4 C1_4 1_555 1_555
N3_4 C3_4 1_555 1_555
N4_4 C4_4 1_555 1_555
N6_4 C6_4 1_555 1_555
N33_2 C8_4 1_555 1_555
N9_4 Ni1_4 1_555 1_555
N10_4 Ni1_4 1_555 1_555
N11_4 Ni1_4 1_555 1_555
H1_4 N11_4 1_555 1_555
N12_4 Ni1_4 1_555 1_555
N20_4 Ni3_4 1_555 1_555
N21_4 Ni1_4 1_555 1_555
N22_4 C55_4 1_555 1_555
N23_4 C56_4 1_555 1_555
N24_4 C57_4 1_555 1_555
N25_4 C59_4 1_555 1_555
N26_4 C58_4 1_555 1_555
N34_2 C60_4 1_555 1_555
N28_4 Ni6_2 1_555 1_555
N29_4 Ni6_2 1_555 1_555
N30_4 Ni6_2 1_555 1_555
H4_4 N30_4 1_555 1_555
N31_4 Ni6_2 1_555 1_555
C2_4 Mo1_4 1_555 1_555
C3_4 Mo1_4 1_555 1_555
C4_4 Mo1_4 1_555 1_555
C6_4 Mo1_4 1_555 1_555
C8_4 Mo1_4 1_555 1_555
C9_4 N10_4 1_555 1_555
C10_4 C9_4 1_555 1_555
H5_4 C10_4 1_555 1_555
H6_4 C10_4 1_555 1_555
H7_4 C10_4 1_555 1_555
C11_4 N9_4 1_555 1_555
C12_4 C11_4 1_555 1_555
H8_4 C12_4 1_555 1_555
C13_4 C12_4 1_555 1_555
H9_4 C13_4 1_555 1_555
C14_4 C13_4 1_555 1_555
H10_4 C14_4 1_555 1_555
C15_4 N9_4 1_555 1_555
C16_4 N12_4 1_555 1_555
C20_4 N11_4 1_555 1_555
H18_4 C20_4 1_555 1_555
H19_4 C20_4 1_555 1_555
C21_4 N11_4 1_555 1_555
H20_4 C21_4 1_555 1_555
H21_4 C21_4 1_555 1_555
C22_4 C21_4 1_555 1_555
H22_4 C22_4 1_555 1_555
H23_4 C22_4 1_555 1_555
C23_4 N10_4 1_555 1_555
H24_4 C23_4 1_555 1_555
H25_4 C23_4 1_555 1_555
C31_4 N20_4 1_555 1_555
C32_4 C31_4 1_555 1_555
H32_4 C32_4 1_555 1_555
H33_4 C32_4 1_555 1_555
C33_4 N20_4 1_555 1_555
H35_4 C33_4 1_555 1_555
H36_4 C33_4 1_555 1_555
C34_4 C33_4 1_555 1_555
H38_4 C34_4 1_555 1_555
H51_4 C43_4 1_555 1_555
C44_4 C43_4 1_555 1_555
H52_4 C44_4 1_555 1_555
C47_4 C46_4 1_555 1_555
H53_4 C47_4 1_555 1_555
H54_4 C47_4 1_555 1_555
H55_4 C47_4 1_555 1_555
C54_4 N21_4 1_555 1_555
C55_4 Mo3 1_555 1_555
C56_4 Mo3 1_555 1_555
C57_4 Mo3 1_555 1_555
C58_4 Mo3 1_555 1_555
C59_4 Mo3 1_555 1_555
C60_4 Mo3 1_555 1_555
C62_4 N31_4 1_555 1_555
C63_4 C62_4 1_555 1_555
H67_4 C63_4 1_555 1_555
H68_4 C63_4 1_555 1_555
H69_4 C63_4 1_555 1_555
C64_4 N28_4 1_555 1_555
C65_4 C64_4 1_555 1_555
H70_4 C65_4 1_555 1_555
C66_4 C65_4 1_555 1_555
H71_4 C66_4 1_555 1_555
C67_4 C66_4 1_555 1_555
H72_4 C67_4 1_555 1_555
C68_4 N28_4 1_555 1_555
C69_4 N29_4 1_555 1_555
C70_4 C69_4 1_555 1_555
H73_4 C70_4 1_555 1_555
H74_4 C70_4 1_555 1_555
H75_4 C70_4 1_555 1_555
C71_4 N29_4 1_555 1_555
H76_4 C71_4 1_555 1_555
H77_4 C71_4 1_555 1_555
C72_4 C71_4 1_555 1_555
H78_4 C72_4 1_555 1_555
H79_4 C72_4 1_555 1_555
C73_4 N30_4 1_555 1_555
H80_4 C73_4 1_555 1_555
H81_4 C73_4 1_555 1_555
C74_4 N30_4 1_555 1_555
H82_4 C74_4 1_555 1_555
H83_4 C74_4 1_555 1_555
C75_4 C74_4 1_555 1_555
C76_4 N31_4 1_555 1_555
H86_4 C76_4 1_555 1_555
H87_4 C76_4 1_555 1_555
C9_4 C11_4 1_555 1_555
C14_4 C15_4 1_555 1_555
C15_4 C16_4 1_555 1_555
C22_4 C23_4 1_555 1_555
C44_4 C45_4 1_555 1_555
C45_4 C46_4 1_555 1_555
C62_4 C64_4 1_555 1_555
C67_4 C68_4 1_555 1_555
C68_4 C69_4 1_555 1_555
C72_4 C73_4 1_555 1_555
C75_4 C76_4 1_555 1_555
N35 C61_4 1_555 1_555
C24_4 N18_4 1_555 1_555
C25_4 C24_4 1_555 1_555
H26_4 C25_4 1_555 1_555
H27_4 C25_4 1_555 1_555
H28_4 C25_4 1_555 1_555
C26_4 N17_4 1_555 1_555
C27_4 C26_4 1_555 1_555
H29_4 C27_4 1_555 1_555
C28_4 C27_4 1_555 1_555
H30_2 C28_4 1_555 1_555
C29_4 C28_4 1_555 1_555
H31_4 C29_4 1_555 1_555
C30_4 N17_4 1_555 1_555
C38_4 N18_4 1_555 1_555
H45_4 C38_4 1_555 1_555
H46_4 C38_4 1_555 1_555
C24_4 C26_4 1_555 1_555
C29_4 C30_4 1_555 1_555
H41_3 C36_3 1_555 1_555
H42_3 C36_3 1_555 1_555
C37_3 C36_3 1_555 1_555
H44_3 C37_3 1_555 1_555
H41_4 C36_4 1_555 1_555
H42_4 C36_4 1_555 1_555
C37_4 C36_4 1_555 1_555
H44_4 C37_4 1_555 1_555

#END
