
###############################################################################
#
# This file contains modified crystal structure data generated from the
# MOF subset of the Cambridge Structural Database (CSD) v543 
# hosted by the Cambridge Crystallographic Data Centre (CCDC).
#
# This work is licensed under the Creative Commons
# Attribution-NonCommercial-ShareAlike 4.0 International License.
# To view a copy of this license, visit
# http://creativecommons.org/licenses/by-nc-sa/4.0/
# or send a letter to
# Creative Commons, PO Box 1866, Mountain View, CA 94042, USA.
#
# CIF created using the CSD Python API on 29 September 2022
# The structure has been converted into the P1 space group
# The structure has a 3D framework
# The original CSD entry CIXBUH is in the orthorhombic crystal system
# The framework has been calculated to contain at least 10.0% void space
# The void calculation uses a probe of radius 1.32A, grid spacing 0.4
#
###############################################################################

data_CIXBUH
_chemical_formula_moiety         '(C288 H192 I48 N96 Zn24)n'
_symmetry_cell_setting           triclinic
_symmetry_space_group_name_H-M   'P 1'
_symmetry_Int_Tables_number      1
_space_group_name_Hall           'P 1'
loop_
_symmetry_equiv_pos_site_id
_symmetry_equiv_pos_as_xyz
1 x,y,z
_cell_length_a                   27.286(3)
_cell_length_b                   13.6997(17)
_cell_length_c                   45.829(6)
_cell_angle_alpha                90
_cell_angle_beta                 90
_cell_angle_gamma                90
_cell_volume                     17131.3
loop_
_atom_site_label
_atom_site_type_symbol
_atom_site_fract_x
_atom_site_fract_y
_atom_site_fract_z
Zn2 Zn 0.03019(3) 0.64159(6) 0.40931(2)
I3 I 0.07770(2) 0.72549(5) 0.36902(2)
I4 I 0.01494(2) 0.72111(4) 0.458690(15)
C1 C 0.0725(3) 0.4503(5) 0.39393(17)
H1 H 0.0681 0.4751 0.3748
C2 C 0.0899(3) 0.3569(5) 0.39746(15)
H2 H 0.0970 0.3176 0.3809
C3 C 0.0689(3) 0.4737(6) 0.44364(17)
H3 H 0.0626 0.5152 0.4598
C4 C 0.0856(3) 0.3796(5) 0.44863(17)
H4 H 0.0891 0.3560 0.4680
C5 C 0.0970(2) 0.3205(4) 0.42520(14)
C6 C 0.1132(2) 0.2185(4) 0.43015(14)
C7 C 0.0521(3) 0.0227(5) 0.52865(15)
H5 H 0.0325 0.0549 0.5428
C8 C 0.0673(2) 0.0736(5) 0.50472(14)
H6 H 0.0581 0.1400 0.5024
C11 C 0.0961(2) 0.0288(5) 0.48373(14)
C12 C 0.1127(2) 0.0820(5) 0.45729(13)
C15 C 0.2126(3) 0.0197(5) 0.34345(15)
H11 H 0.2277 0.0530 0.3276
C16 C 0.1919(3) 0.0739(5) 0.36555(16)
H12 H 0.1925 0.1432 0.3648
C17 C 0.1704(2) 0.0266(5) 0.38878(13)
C18 C 0.1469(2) 0.0809(4) 0.41279(13)
H14 H 0.3018 0.0108 0.2204
C24 C 0.2225(2) 0.0256(4) 0.18712(12)
C25 C 0.0405(2) 0.0891(6) 0.13783(16)
H17 H 0.0118 0.0911 0.1496
C26 C 0.0852(3) 0.0714(6) 0.15126(16)
H18 H 0.0869 0.0594 0.1717
C27 C 0.0764(2) 0.1000(5) 0.09298(14)
H19 H 0.0733 0.1078 0.0725
C28 C 0.1225(2) 0.0858(5) 0.10462(13)
H20 H 0.1505 0.0858 0.0923
C29 C 0.1274(2) 0.0715(4) 0.13435(13)
C30 C 0.1759(2) 0.0592(4) 0.14802(12)
C31 C 0.3434(2) 0.1170(5) 0.08229(13)
H21 H 0.3415 0.1357 0.0624
C32 C 0.3006(2) 0.1012(5) 0.09723(13)
H22 H 0.2699 0.1079 0.0877
C33 C 0.3897(2) 0.0805(5) 0.12265(13)
H23 H 0.4209 0.0717 0.1314
C34 C 0.3486(2) 0.0652(4) 0.13932(13)
H24 H 0.3513 0.0479 0.1593
C35 C 0.3030(2) 0.0755(4) 0.12630(12)
C36 C 0.2578(2) 0.0607(4) 0.14382(12)
N1 N 0.06156(19) 0.5075(4) 0.41682(13)
N4 N 0.1011(2) 0.1769(4) 0.45537(12)
N5 N 0.1365(2) 0.0313(4) 0.43727(11)
N6 N 0.13583(19) 0.1741(4) 0.40826(12)
N8 N 0.03584(19) 0.1033(4) 0.10947(13)
N9 N 0.38773(18) 0.1076(4) 0.09434(10)
N10 N 0.17727(17) 0.0355(3) 0.17627(10)
N11 N 0.21491(18) 0.0718(3) 0.13059(10)
N12 N 0.26412(17) 0.0379(3) 0.17191(10)
Zn5 Zn 0.45118(3) 0.13970(6) 0.071990(16)
I5 I 0.45111(2) 0.32339(4) 0.064240(13)
I6 I 0.517680(16) 0.04456(5) 0.098310(12)
C9 C 0.4095(3) 0.1163(5) 0.01220(14)
H7 H 0.4022 0.1836 0.0146
N2 N 0.4361(2) 0.0714(4) 0.03280(11)
Zn1 Zn 0.24633(3) 0.84340(6) 0.311444(15)
Zn3 Zn 0.04882(3) 0.86030(6) 0.571990(16)
I1 I 0.337270(18) 0.82887(5) 0.322769(11)
I2 I 0.194744(19) 0.68953(3) 0.304062(11)
I5_2 I 0.04889(2) 0.67661(4) 0.564240(13)
C9_2 C 0.0905(3) 0.8837(5) 0.51220(14)
H7_2 H 0.0978 0.8164 0.5146
C10 C 0.1077(3) 0.9311(5) 0.48759(15)
H8 H 0.1271 0.8974 0.4736
C13 C 0.1908(3) 0.8761(5) 0.36574(14)
H9 H 0.1896 0.8068 0.3657
C14 C 0.1703(2) 0.9259(4) 0.38881(14)
H10 H 0.1561 0.8911 0.4046
C19 C 0.2771(2) 0.9553(4) 0.25895(13)
H13 H 0.3085 0.9533 0.2679
C20 C 0.2734(2) 0.9903(4) 0.23072(12)
C21 C 0.1940(2) 0.9329(5) 0.26227(14)
H15 H 0.1661 0.9144 0.2733
C22 C 0.1873(2) 0.9680(5) 0.23412(13)
H16 H 0.1552 0.9735 0.2262
C23 C 0.2276(2) 0.9948(4) 0.21788(12)
N2_2 N 0.0639(2) 0.9286(4) 0.53280(11)
N3 N 0.2124(2) 0.9224(4) 0.34329(11)
N7 N 0.23825(19) 0.9241(4) 0.27432(11)
N14 N 0.11227(18) 0.8924(4) 0.59434(10)
Zn4 Zn 0.96981(3) 0.14159(6) 0.09069(2)
N13 N 0.96416(19) 0.6033(4) 0.39053(13)
Zn2_2 Zn 0.46981(3) 0.35841(6) 0.90931(2)
I3_2 I 0.42230(2) 0.27451(5) 0.86902(2)
I4_2 I 0.48506(2) 0.27889(4) 0.958690(15)
C1_2 C 0.4275(3) 0.5497(5) 0.89393(17)
H1_2 H 0.4319 0.5249 0.8748
C2_2 C 0.4101(3) 0.6431(5) 0.89746(15)
H2_2 H 0.4030 0.6824 0.8809
C3_2 C 0.4311(3) 0.5263(6) 0.94364(17)
H3_2 H 0.4374 0.4848 0.9598
C4_2 C 0.4144(3) 0.6204(5) 0.94863(17)
H4_2 H 0.4109 0.6440 0.9680
C5_2 C 0.4030(2) 0.6795(4) 0.92520(14)
C6_2 C 0.3868(2) 0.7815(4) 0.93015(14)
C11_2 C 0.4039(2) 0.9712(5) 0.98373(14)
C12_2 C 0.3873(2) 0.9180(5) 0.95729(13)
C15_2 C 0.2874(3) 0.9803(5) 0.84345(15)
H11_2 H 0.2723 0.9470 0.8276
C16_2 C 0.3081(3) 0.9261(5) 0.86555(16)
H12_2 H 0.3075 0.8568 0.8648
C17_2 C 0.3296(2) 0.9734(5) 0.88878(13)
C18_2 C 0.3531(2) 0.9191(4) 0.91279(13)
H14_2 H 0.1982 0.9892 0.7204
C24_2 C 0.2775(2) 0.9744(4) 0.68712(12)
C25_2 C 0.4595(2) 0.9109(6) 0.63783(16)
H17_2 H 0.4882 0.9089 0.6496
C26_2 C 0.4148(3) 0.9286(6) 0.65126(16)
H18_2 H 0.4131 0.9406 0.6717
C27_2 C 0.4236(2) 0.9000(5) 0.59298(14)
H19_2 H 0.4267 0.8922 0.5725
C28_2 C 0.3775(2) 0.9142(5) 0.60462(13)
H20_2 H 0.3495 0.9142 0.5923
C29_2 C 0.3726(2) 0.9285(4) 0.63435(13)
C30_2 C 0.3241(2) 0.9408(4) 0.64802(12)
C31_2 C 0.1566(2) 0.8830(5) 0.58229(13)
H21_2 H 0.1585 0.8643 0.5624
C32_2 C 0.1994(2) 0.8988(5) 0.59723(13)
H22_2 H 0.2301 0.8921 0.5877
C33_2 C 0.1103(2) 0.9195(5) 0.62265(13)
H23_2 H 0.0791 0.9283 0.6314
C34_2 C 0.1514(2) 0.9348(4) 0.63932(13)
H24_2 H 0.1487 0.9521 0.6593
C35_2 C 0.1970(2) 0.9245(4) 0.62630(12)
C36_2 C 0.2422(2) 0.9393(4) 0.64382(12)
N1_2 N 0.43844(19) 0.4925(4) 0.91682(13)
N4_2 N 0.3989(2) 0.8231(4) 0.95537(12)
N5_2 N 0.3635(2) 0.9687(4) 0.93727(11)
N6_2 N 0.36417(19) 0.8259(4) 0.90826(12)
N8_2 N 0.46416(19) 0.8967(4) 0.60947(13)
N10_2 N 0.32273(17) 0.9645(3) 0.67627(10)
N11_2 N 0.28509(18) 0.9282(3) 0.63059(10)
N12_2 N 0.23588(17) 0.9621(3) 0.67191(10)
Zn4_2 Zn 0.53019(3) 0.85841(6) 0.59069(2)
N13_2 N 0.53584(19) 0.3967(4) 0.89053(13)
I3_3 I 0.92230(2) 0.22549(5) 0.13098(2)
I4_3 I 0.98506(2) 0.22111(4) 0.041310(15)
H3_3 H 0.9374 0.0152 0.0402
N1_3 N 0.93844(19) 0.0075(4) 0.08318(13)
Zn1_2 Zn 0.75367(3) 0.34340(6) 0.188556(15)
I1_2 I 0.662730(18) 0.32887(5) 0.177231(11)
I2_2 I 0.805256(19) 0.18953(3) 0.195938(11)
C1_3 C 0.9275(3) 0.9503(5) 0.10607(17)
H1_3 H 0.9319 0.9751 0.1252
C2_3 C 0.9101(3) 0.8569(5) 0.10254(15)
H2_3 H 0.9030 0.8176 0.1191
C3_3 C 0.9311(3) 0.9737(6) 0.05636(17)
C4_3 C 0.9144(3) 0.8796(5) 0.05137(17)
H4_3 H 0.9109 0.8560 0.0320
C5_3 C 0.9030(2) 0.8205(4) 0.07480(14)
C6_3 C 0.8868(2) 0.7185(4) 0.06985(14)
C10_2 C 0.8923(3) 0.4311(5) 0.01241(15)
H8_2 H 0.8729 0.3974 0.0264
C11_3 C 0.9039(2) 0.5288(5) 0.01627(14)
C12_3 C 0.8873(2) 0.5820(5) 0.04271(13)
C13_2 C 0.8092(3) 0.3761(5) 0.13426(14)
H9_2 H 0.8104 0.3068 0.1343
C14_2 C 0.8297(2) 0.4259(4) 0.11119(14)
H10_2 H 0.8439 0.3911 0.0954
C15_3 C 0.7874(3) 0.5197(5) 0.15655(15)
H11_3 H 0.7723 0.5530 0.1724
C16_3 C 0.8081(3) 0.5739(5) 0.13445(16)
H12_3 H 0.8075 0.6432 0.1352
C17_3 C 0.8296(2) 0.5266(5) 0.11122(13)
C18_3 C 0.8531(2) 0.5809(4) 0.08721(13)
C19_2 C 0.7229(2) 0.4553(4) 0.24105(13)
H13_2 H 0.6915 0.4533 0.2321
C20_2 C 0.7266(2) 0.4903(4) 0.26928(12)
H14_3 H 0.6982 0.5108 0.2796
C21_2 C 0.8060(2) 0.4329(5) 0.23773(14)
H15_2 H 0.8339 0.4144 0.2267
C22_2 C 0.8127(2) 0.4680(5) 0.26588(13)
H16_2 H 0.8448 0.4735 0.2738
C23_2 C 0.7724(2) 0.4948(4) 0.28212(12)
C24_3 C 0.7775(2) 0.5256(4) 0.31288(12)
C25_3 C 0.9595(2) 0.5891(6) 0.36217(16)
H17_3 H 0.9882 0.5911 0.3504
C26_3 C 0.9148(3) 0.5714(6) 0.34874(16)
H18_3 H 0.9131 0.5594 0.3283
C27_3 C 0.9236(2) 0.6000(5) 0.40702(14)
H19_3 H 0.9267 0.6078 0.4275
C28_3 C 0.8775(2) 0.5858(5) 0.39538(13)
H20_3 H 0.8495 0.5858 0.4077
C29_3 C 0.8726(2) 0.5715(4) 0.36565(13)
C30_3 C 0.8241(2) 0.5592(4) 0.35198(12)
C31_3 C 0.6566(2) 0.6170(5) 0.41771(13)
H21_3 H 0.6585 0.6357 0.4376
C32_3 C 0.6994(2) 0.6012(5) 0.40277(13)
H22_3 H 0.7301 0.6079 0.4123
C33_3 C 0.6103(2) 0.5805(5) 0.37735(13)
H23_3 H 0.5791 0.5717 0.3686
C34_3 C 0.6514(2) 0.5652(4) 0.36068(13)
H24_3 H 0.6487 0.5479 0.3407
C35_3 C 0.6970(2) 0.5755(4) 0.37370(12)
C36_3 C 0.7422(2) 0.5607(4) 0.35618(12)
N3_2 N 0.7876(2) 0.4224(4) 0.15671(11)
N4_3 N 0.8989(2) 0.6769(4) 0.04463(12)
N5_3 N 0.8635(2) 0.5313(4) 0.06273(11)
N6_3 N 0.86417(19) 0.6741(4) 0.09174(12)
N7_2 N 0.76175(19) 0.4241(4) 0.22568(11)
N9_2 N 0.61227(18) 0.6076(4) 0.40566(10)
N10_3 N 0.82273(17) 0.5355(3) 0.32373(10)
N11_3 N 0.78509(18) 0.5718(3) 0.36941(10)
N12_3 N 0.73588(17) 0.5379(3) 0.32809(10)
Zn5_2 Zn 0.54882(3) 0.63970(6) 0.428010(16)
Zn3_2 Zn 0.95118(3) 0.36030(6) 0.928010(16)
I5_3 I 0.95111(2) 0.17661(4) 0.935760(13)
C7_2 C 0.9479(3) 0.5227(5) 0.97135(15)
H5_2 H 0.9675 0.5549 0.9572
C8_2 C 0.9327(2) 0.5736(5) 0.99528(14)
H6_2 H 0.9419 0.6400 0.9976
C9_3 C 0.9095(3) 0.3837(5) 0.98780(14)
H7_3 H 0.9022 0.3164 0.9854
N2_3 N 0.9361(2) 0.4286(4) 0.96720(11)
N14_2 N 0.88773(18) 0.3924(4) 0.90566(10)
Zn1_3 Zn 0.74633(3) 0.65660(6) 0.688556(15)
I1_3 I 0.837270(18) 0.67113(5) 0.677231(11)
I2_3 I 0.694744(19) 0.81047(3) 0.695938(11)
I5_4 I 0.54889(2) 0.82339(4) 0.435760(13)
I6_2 I 0.482320(16) 0.54456(5) 0.401690(12)
C1_4 C 0.5725(3) 0.0497(5) 0.60607(17)
H1_4 H 0.5681 0.0249 0.6252
C2_4 C 0.5899(3) 0.1431(5) 0.60254(15)
H2_4 H 0.5970 0.1824 0.6191
C3_4 C 0.5689(3) 0.0263(6) 0.55636(17)
C4_4 C 0.5856(3) 0.1204(5) 0.55137(17)
H4_4 H 0.5891 0.1440 0.5320
C5_4 C 0.5970(2) 0.1795(4) 0.57480(14)
C6_4 C 0.6132(2) 0.2815(4) 0.56985(14)
C7_3 C 0.5521(3) 0.4773(5) 0.47135(15)
H5_3 H 0.5325 0.4451 0.4572
C8_3 C 0.5673(2) 0.4264(5) 0.49528(14)
H6_3 H 0.5581 0.3600 0.4976
C9_4 C 0.5905(3) 0.6163(5) 0.48780(14)
H7_4 H 0.5978 0.6836 0.4854
C10_3 C 0.6077(3) 0.5689(5) 0.51241(15)
H8_3 H 0.6271 0.6026 0.5264
C11_4 C 0.5961(2) 0.4712(5) 0.51627(14)
C12_4 C 0.6127(2) 0.4180(5) 0.54271(13)
C13_3 C 0.6908(3) 0.6239(5) 0.63426(14)
H9_3 H 0.6896 0.6932 0.6343
C14_3 C 0.6703(2) 0.5741(4) 0.61119(14)
H10_3 H 0.6561 0.6089 0.5954
C15_4 C 0.7126(3) 0.4803(5) 0.65655(15)
H11_4 H 0.7277 0.4470 0.6724
C16_4 C 0.6919(3) 0.4261(5) 0.63445(16)
H12_4 H 0.6925 0.3568 0.6352
C17_4 C 0.6704(2) 0.4734(5) 0.61122(13)
C18_4 C 0.6469(2) 0.4191(4) 0.58721(13)
C19_3 C 0.7771(2) 0.5447(4) 0.74105(13)
H13_3 H 0.8085 0.5467 0.7321
C20_3 C 0.7734(2) 0.5097(4) 0.76928(12)
H14_4 H 0.8018 0.4892 0.7796
C21_3 C 0.6940(2) 0.5671(5) 0.73773(14)
H15_3 H 0.6661 0.5856 0.7267
C22_3 C 0.6873(2) 0.5320(5) 0.76588(13)
H16_3 H 0.6552 0.5265 0.7738
C23_3 C 0.7276(2) 0.5052(4) 0.78212(12)
C24_4 C 0.7225(2) 0.4744(4) 0.81288(12)
C25_4 C 0.5405(2) 0.4109(6) 0.86217(16)
H17_4 H 0.5118 0.4089 0.8504
C26_4 C 0.5852(3) 0.4286(6) 0.84874(16)
H18_4 H 0.5869 0.4406 0.8283
C27_4 C 0.5764(2) 0.4000(5) 0.90702(14)
H19_4 H 0.5733 0.3922 0.9275
C28_4 C 0.6225(2) 0.4142(5) 0.89538(13)
H20_4 H 0.6505 0.4142 0.9077
C29_4 C 0.6274(2) 0.4285(4) 0.86565(13)
C30_4 C 0.6759(2) 0.4408(4) 0.85198(12)
C31_4 C 0.8434(2) 0.3830(5) 0.91771(13)
H21_4 H 0.8415 0.3643 0.9376
C32_4 C 0.8006(2) 0.3988(5) 0.90277(13)
H22_4 H 0.7699 0.3921 0.9123
C33_4 C 0.8897(2) 0.4195(5) 0.87735(13)
H23_4 H 0.9209 0.4283 0.8686
C34_4 C 0.8486(2) 0.4348(4) 0.86068(13)
H24_4 H 0.8513 0.4521 0.8407
C35_4 C 0.8030(2) 0.4245(4) 0.87370(12)
C36_4 C 0.7578(2) 0.4393(4) 0.85618(12)
N2_4 N 0.5639(2) 0.5714(4) 0.46720(11)
N3_3 N 0.7124(2) 0.5776(4) 0.65671(11)
N4_4 N 0.6011(2) 0.3231(4) 0.54463(12)
N5_4 N 0.6365(2) 0.4687(4) 0.56273(11)
N6_4 N 0.63583(19) 0.3259(4) 0.59174(12)
N7_3 N 0.73825(19) 0.5759(4) 0.72568(11)
N10_4 N 0.67727(17) 0.4645(3) 0.82373(10)
N11_4 N 0.71491(18) 0.4282(3) 0.86941(10)
N12_4 N 0.76412(17) 0.4621(3) 0.82809(10)
I3_4 I 0.57770(2) 0.77451(5) 0.63098(2)
I4_4 I 0.51494(2) 0.77889(4) 0.541310(15)
H3_4 H 0.5626 0.9848 0.5402
N1_4 N 0.56156(19) 0.9925(4) 0.58318(13)
I6_3 I 0.982320(16) 0.95544(5) 0.598310(12)
Zn1_4 Zn 0.25367(3) 0.15660(6) 0.811444(15)
I1_4 I 0.162730(18) 0.17113(5) 0.822769(11)
I2_4 I 0.305256(19) 0.31047(3) 0.804062(11)
C10_4 C 0.3923(3) 0.0689(5) 0.98759(15)
H8_4 H 0.3729 0.1026 0.9736
C13_4 C 0.3092(3) 0.1239(5) 0.86574(14)
H9_4 H 0.3104 0.1932 0.8657
C14_4 C 0.3297(2) 0.0741(4) 0.88881(14)
H10_4 H 0.3439 0.1089 0.9046
C19_4 C 0.2229(2) 0.0447(4) 0.75895(13)
H13_4 H 0.1915 0.0467 0.7679
C20_4 C 0.2266(2) 0.0097(4) 0.73072(12)
C21_4 C 0.3060(2) 0.0671(5) 0.76227(14)
H15_4 H 0.3339 0.0856 0.7733
C22_4 C 0.3127(2) 0.0320(5) 0.73412(13)
H16_4 H 0.3448 0.0265 0.7262
C23_4 C 0.2724(2) 0.0052(4) 0.71788(12)
N3_4 N 0.2876(2) 0.0776(4) 0.84329(11)
N7_4 N 0.26175(19) 0.0759(4) 0.77432(11)
C7_4 C 0.4479(3) 0.9773(5) 0.02865(15)
H5_4 H 0.4675 0.9451 0.0428
C8_4 C 0.4327(2) 0.9264(5) 0.00472(14)
H6_4 H 0.4419 0.8600 0.0024
I6_4 I 0.017680(16) 0.45544(5) 0.901690(12)
I6_5 I 0.017680(16) 0.04456(5) 0.401690(12)
Zn4_3 Zn 0.03019(3) 0.85841(6) 0.90931(2)
N13_3 N 0.03584(19) 0.3967(4) 0.60947(13)
Zn1_5 Zn 0.75367(3) 0.15660(6) 0.688556(15)
Zn3_3 Zn 0.95118(3) 0.13970(6) 0.428010(16)
I1_5 I 0.662730(18) 0.17113(5) 0.677231(11)
I2_5 I 0.805256(19) 0.31047(3) 0.695938(11)
I5_5 I 0.95111(2) 0.32339(4) 0.435760(13)
C9_5 C 0.9095(3) 0.1163(5) 0.48780(14)
H7_5 H 0.9022 0.1836 0.4854
C10_5 C 0.8923(3) 0.0689(5) 0.51241(15)
H8_5 H 0.8729 0.1026 0.5264
C13_5 C 0.8092(3) 0.1239(5) 0.63426(14)
H9_5 H 0.8104 0.1932 0.6343
C14_5 C 0.8297(2) 0.0741(4) 0.61119(14)
H10_5 H 0.8439 0.1089 0.5954
C19_5 C 0.7229(2) 0.0447(4) 0.74105(13)
H13_5 H 0.6915 0.0467 0.7321
C20_5 C 0.7266(2) 0.0097(4) 0.76928(12)
C21_5 C 0.8060(2) 0.0671(5) 0.73773(14)
H15_5 H 0.8339 0.0856 0.7267
C22_5 C 0.8127(2) 0.0320(5) 0.76588(13)
H16_5 H 0.8448 0.0265 0.7738
C23_5 C 0.7724(2) 0.0052(4) 0.78212(12)
N2_5 N 0.9361(2) 0.0714(4) 0.46720(11)
N3_5 N 0.7876(2) 0.0776(4) 0.65671(11)
N7_5 N 0.76175(19) 0.0759(4) 0.72568(11)
N14_3 N 0.88773(18) 0.1076(4) 0.40566(10)
Zn2_3 Zn 0.53019(3) 0.64159(6) 0.09069(2)
I3_5 I 0.57770(2) 0.72549(5) 0.13098(2)
I4_5 I 0.51494(2) 0.72111(4) 0.041310(15)
C1_5 C 0.5725(3) 0.4503(5) 0.10607(17)
H1_5 H 0.5681 0.4751 0.1252
C2_5 C 0.5899(3) 0.3569(5) 0.10254(15)
H2_5 H 0.5970 0.3176 0.1191
C3_5 C 0.5689(3) 0.4737(6) 0.05636(17)
H3_5 H 0.5626 0.5152 0.0402
C4_5 C 0.5856(3) 0.3796(5) 0.05137(17)
H4_5 H 0.5891 0.3560 0.0320
C5_5 C 0.5970(2) 0.3205(4) 0.07480(14)
C6_5 C 0.6132(2) 0.2185(4) 0.06985(14)
C11_5 C 0.5961(2) 0.0288(5) 0.01627(14)
C12_5 C 0.6127(2) 0.0820(5) 0.04271(13)
C15_5 C 0.7126(3) 0.0197(5) 0.15655(15)
H11_5 H 0.7277 0.0530 0.1724
C16_5 C 0.6919(3) 0.0739(5) 0.13445(16)
H12_5 H 0.6925 0.1432 0.1352
C17_5 C 0.6704(2) 0.0266(5) 0.11122(13)
C18_5 C 0.6469(2) 0.0809(4) 0.08721(13)
H14_5 H 0.8018 0.0108 0.2796
C24_5 C 0.7225(2) 0.0256(4) 0.31288(12)
C25_5 C 0.5405(2) 0.0891(6) 0.36217(16)
H17_5 H 0.5118 0.0911 0.3504
C26_5 C 0.5852(3) 0.0714(6) 0.34874(16)
H18_5 H 0.5869 0.0594 0.3283
C27_5 C 0.5764(2) 0.1000(5) 0.40702(14)
H19_5 H 0.5733 0.1078 0.4275
C28_5 C 0.6225(2) 0.0858(5) 0.39538(13)
H20_5 H 0.6505 0.0858 0.4077
C29_5 C 0.6274(2) 0.0715(4) 0.36565(13)
C30_5 C 0.6759(2) 0.0592(4) 0.35198(12)
C31_5 C 0.8434(2) 0.1170(5) 0.41771(13)
H21_5 H 0.8415 0.1357 0.4376
C32_5 C 0.8006(2) 0.1012(5) 0.40277(13)
H22_5 H 0.7699 0.1079 0.4123
C33_5 C 0.8897(2) 0.0805(5) 0.37735(13)
H23_5 H 0.9209 0.0717 0.3686
C34_5 C 0.8486(2) 0.0652(4) 0.36068(13)
H24_5 H 0.8513 0.0479 0.3407
C35_5 C 0.8030(2) 0.0755(4) 0.37370(12)
C36_5 C 0.7578(2) 0.0607(4) 0.35618(12)
N1_5 N 0.56156(19) 0.5075(4) 0.08318(13)
N4_5 N 0.6011(2) 0.1769(4) 0.04463(12)
N5_5 N 0.6365(2) 0.0313(4) 0.06273(11)
N6_5 N 0.63583(19) 0.1741(4) 0.09174(12)
N8_3 N 0.53584(19) 0.1033(4) 0.39053(13)
N10_5 N 0.67727(17) 0.0355(3) 0.32373(10)
N11_5 N 0.71491(18) 0.0718(3) 0.36941(10)
N12_5 N 0.76412(17) 0.0379(3) 0.32809(10)
Zn4_4 Zn 0.46981(3) 0.14159(6) 0.40931(2)
N13_4 N 0.46416(19) 0.6033(4) 0.10947(13)
Zn3_4 Zn 0.04882(3) 0.63970(6) 0.071990(16)
I5_6 I 0.04889(2) 0.82339(4) 0.064240(13)
C7_5 C 0.0521(3) 0.4773(5) 0.02865(15)
H5_5 H 0.0325 0.4451 0.0428
C8_5 C 0.0673(2) 0.4264(5) 0.00472(14)
H6_5 H 0.0581 0.3600 0.0024
C9_6 C 0.0905(3) 0.6163(5) 0.01220(14)
H7_6 H 0.0978 0.6836 0.0146
N2_6 N 0.0639(2) 0.5714(4) 0.03280(11)
N14_4 N 0.11227(18) 0.6076(4) 0.09434(10)
Zn1_6 Zn 0.24633(3) 0.65660(6) 0.811444(15)
I1_6 I 0.337270(18) 0.67113(5) 0.822769(11)
I2_6 I 0.194744(19) 0.81047(3) 0.804062(11)
C1_6 C 0.0725(3) 0.0497(5) 0.89393(17)
H1_6 H 0.0681 0.0249 0.8748
C2_6 C 0.0899(3) 0.1431(5) 0.89746(15)
H2_6 H 0.0970 0.1824 0.8809
C3_6 C 0.0689(3) 0.0263(6) 0.94364(17)
C4_6 C 0.0856(3) 0.1204(5) 0.94863(17)
H4_6 H 0.0891 0.1440 0.9680
C5_6 C 0.0970(2) 0.1795(4) 0.92520(14)
C6_6 C 0.1132(2) 0.2815(4) 0.93015(14)
C10_6 C 0.1077(3) 0.5689(5) 0.98759(15)
H8_6 H 0.1271 0.6026 0.9736
C11_6 C 0.0961(2) 0.4712(5) 0.98373(14)
C12_6 C 0.1127(2) 0.4180(5) 0.95729(13)
C13_6 C 0.1908(3) 0.6239(5) 0.86574(14)
H9_6 H 0.1896 0.6932 0.8657
C14_6 C 0.1703(2) 0.5741(4) 0.88881(14)
H10_6 H 0.1561 0.6089 0.9046
C15_6 C 0.2126(3) 0.4803(5) 0.84345(15)
H11_6 H 0.2277 0.4470 0.8276
C16_6 C 0.1919(3) 0.4261(5) 0.86555(16)
H12_6 H 0.1925 0.3568 0.8648
C17_6 C 0.1704(2) 0.4734(5) 0.88878(13)
C18_6 C 0.1469(2) 0.4191(4) 0.91279(13)
C19_6 C 0.2771(2) 0.5447(4) 0.75895(13)
H13_6 H 0.3085 0.5467 0.7679
C20_6 C 0.2734(2) 0.5097(4) 0.73072(12)
H14_6 H 0.3018 0.4892 0.7204
C21_6 C 0.1940(2) 0.5671(5) 0.76227(14)
H15_6 H 0.1661 0.5856 0.7733
C22_6 C 0.1873(2) 0.5320(5) 0.73412(13)
H16_6 H 0.1552 0.5265 0.7262
C23_6 C 0.2276(2) 0.5052(4) 0.71788(12)
C24_6 C 0.2225(2) 0.4744(4) 0.68712(12)
C25_6 C 0.0405(2) 0.4109(6) 0.63783(16)
H17_6 H 0.0118 0.4089 0.6496
C26_6 C 0.0852(3) 0.4286(6) 0.65126(16)
H18_6 H 0.0869 0.4406 0.6717
C27_6 C 0.0764(2) 0.4000(5) 0.59298(14)
H19_6 H 0.0733 0.3922 0.5725
C28_6 C 0.1225(2) 0.4142(5) 0.60462(13)
H20_6 H 0.1505 0.4142 0.5923
C29_6 C 0.1274(2) 0.4285(4) 0.63435(13)
C30_6 C 0.1759(2) 0.4408(4) 0.64802(12)
C31_6 C 0.3434(2) 0.3830(5) 0.58229(13)
H21_6 H 0.3415 0.3643 0.5624
C32_6 C 0.3006(2) 0.3988(5) 0.59723(13)
H22_6 H 0.2699 0.3921 0.5877
C33_6 C 0.3897(2) 0.4195(5) 0.62265(13)
H23_6 H 0.4209 0.4283 0.6314
C34_6 C 0.3486(2) 0.4348(4) 0.63932(13)
H24_6 H 0.3513 0.4521 0.6593
C35_6 C 0.3030(2) 0.4245(4) 0.62630(12)
C36_6 C 0.2578(2) 0.4393(4) 0.64382(12)
N3_6 N 0.2124(2) 0.5776(4) 0.84329(11)
N4_6 N 0.1011(2) 0.3231(4) 0.95537(12)
N5_6 N 0.1365(2) 0.4687(4) 0.93727(11)
N6_6 N 0.13583(19) 0.3259(4) 0.90826(12)
N7_6 N 0.23825(19) 0.5759(4) 0.77432(11)
N9_3 N 0.38773(18) 0.3924(4) 0.59434(10)
N10_6 N 0.17727(17) 0.4645(3) 0.67627(10)
N11_6 N 0.21491(18) 0.4282(3) 0.63059(10)
N12_6 N 0.26412(17) 0.4621(3) 0.67191(10)
Zn5_3 Zn 0.45118(3) 0.36030(6) 0.571990(16)
I3_6 I 0.07770(2) 0.77451(5) 0.86902(2)
I4_6 I 0.01494(2) 0.77889(4) 0.958690(15)
H3_6 H 0.0626 0.9848 0.9598
N1_6 N 0.06156(19) 0.9925(4) 0.91682(13)
I3_7 I 0.42230(2) 0.22549(5) 0.36902(2)
I4_7 I 0.48506(2) 0.22111(4) 0.458690(15)
H3_7 H 0.4374 0.0152 0.4598
N1_7 N 0.43844(19) 0.0075(4) 0.41682(13)
Zn1_7 Zn 0.25367(3) 0.34340(6) 0.311444(15)
I1_7 I 0.162730(18) 0.32887(5) 0.322769(11)
I2_7 I 0.305256(19) 0.18953(3) 0.304062(11)
I5_7 I 0.45111(2) 0.17661(4) 0.564240(13)
I6_6 I 0.517680(16) 0.45544(5) 0.598310(12)
C1_7 C 0.4275(3) 0.9503(5) 0.39393(17)
H1_7 H 0.4319 0.9751 0.3748
C2_7 C 0.4101(3) 0.8569(5) 0.39746(15)
H2_7 H 0.4030 0.8176 0.3809
C3_7 C 0.4311(3) 0.9737(6) 0.44364(17)
C4_7 C 0.4144(3) 0.8796(5) 0.44863(17)
H4_7 H 0.4109 0.8560 0.4680
C5_7 C 0.4030(2) 0.8205(4) 0.42520(14)
C6_7 C 0.3868(2) 0.7185(4) 0.43015(14)
C7_6 C 0.4479(3) 0.5227(5) 0.52865(15)
H5_6 H 0.4675 0.5549 0.5428
C8_6 C 0.4327(2) 0.5736(5) 0.50472(14)
H6_6 H 0.4419 0.6400 0.5024
C9_7 C 0.4095(3) 0.3837(5) 0.51220(14)
H7_7 H 0.4022 0.3164 0.5146
C10_7 C 0.3923(3) 0.4311(5) 0.48759(15)
H8_7 H 0.3729 0.3974 0.4736
C11_7 C 0.4039(2) 0.5288(5) 0.48373(14)
C12_7 C 0.3873(2) 0.5820(5) 0.45729(13)
C13_7 C 0.3092(3) 0.3761(5) 0.36574(14)
H9_7 H 0.3104 0.3068 0.3657
C14_7 C 0.3297(2) 0.4259(4) 0.38881(14)
H10_7 H 0.3439 0.3911 0.4046
C15_7 C 0.2874(3) 0.5197(5) 0.34345(15)
H11_7 H 0.2723 0.5530 0.3276
C16_7 C 0.3081(3) 0.5739(5) 0.36555(16)
H12_7 H 0.3075 0.6432 0.3648
C17_7 C 0.3296(2) 0.5266(5) 0.38878(13)
C18_7 C 0.3531(2) 0.5809(4) 0.41279(13)
C19_7 C 0.2229(2) 0.4553(4) 0.25895(13)
H13_7 H 0.1915 0.4533 0.2679
C20_7 C 0.2266(2) 0.4903(4) 0.23072(12)
H14_7 H 0.1982 0.5108 0.2204
C21_7 C 0.3060(2) 0.4329(5) 0.26227(14)
H15_7 H 0.3339 0.4144 0.2733
C22_7 C 0.3127(2) 0.4680(5) 0.23412(13)
H16_7 H 0.3448 0.4735 0.2262
C23_7 C 0.2724(2) 0.4948(4) 0.21788(12)
C24_7 C 0.2775(2) 0.5256(4) 0.18712(12)
C25_7 C 0.4595(2) 0.5891(6) 0.13783(16)
H17_7 H 0.4882 0.5911 0.1496
C26_7 C 0.4148(3) 0.5714(6) 0.15126(16)
H18_7 H 0.4131 0.5594 0.1717
C27_7 C 0.4236(2) 0.6000(5) 0.09298(14)
H19_7 H 0.4267 0.6078 0.0725
C28_7 C 0.3775(2) 0.5858(5) 0.10462(13)
H20_7 H 0.3495 0.5858 0.0923
C29_7 C 0.3726(2) 0.5715(4) 0.13435(13)
C30_7 C 0.3241(2) 0.5592(4) 0.14802(12)
C31_7 C 0.1566(2) 0.6170(5) 0.08229(13)
H21_7 H 0.1585 0.6357 0.0624
C32_7 C 0.1994(2) 0.6012(5) 0.09723(13)
H22_7 H 0.2301 0.6079 0.0877
C33_7 C 0.1103(2) 0.5805(5) 0.12265(13)
H23_7 H 0.0791 0.5717 0.1314
C34_7 C 0.1514(2) 0.5652(4) 0.13932(13)
H24_7 H 0.1487 0.5479 0.1593
C35_7 C 0.1970(2) 0.5755(4) 0.12630(12)
C36_7 C 0.2422(2) 0.5607(4) 0.14382(12)
N2_7 N 0.4361(2) 0.4286(4) 0.53280(11)
N3_7 N 0.2876(2) 0.4224(4) 0.34329(11)
N4_7 N 0.3989(2) 0.6769(4) 0.45537(12)
N5_7 N 0.3635(2) 0.5313(4) 0.43727(11)
N6_7 N 0.36417(19) 0.6741(4) 0.40826(12)
N7_7 N 0.26175(19) 0.4241(4) 0.27432(11)
N10_7 N 0.32273(17) 0.5355(3) 0.17627(10)
N11_7 N 0.28509(18) 0.5718(3) 0.13059(10)
N12_7 N 0.23588(17) 0.5379(3) 0.17191(10)
Zn2_4 Zn 0.96981(3) 0.35841(6) 0.59069(2)
I3_8 I 0.92230(2) 0.27451(5) 0.63098(2)
I4_8 I 0.98506(2) 0.27889(4) 0.541310(15)
C1_8 C 0.9275(3) 0.5497(5) 0.60607(17)
H1_8 H 0.9319 0.5249 0.6252
C2_8 C 0.9101(3) 0.6431(5) 0.60254(15)
H2_8 H 0.9030 0.6824 0.6191
C3_8 C 0.9311(3) 0.5263(6) 0.55636(17)
H3_8 H 0.9374 0.4848 0.5402
C4_8 C 0.9144(3) 0.6204(5) 0.55137(17)
H4_8 H 0.9109 0.6440 0.5320
C5_8 C 0.9030(2) 0.6795(4) 0.57480(14)
C6_8 C 0.8868(2) 0.7815(4) 0.56985(14)
C7_7 C 0.9479(3) 0.9773(5) 0.47135(15)
H5_7 H 0.9675 0.9451 0.4572
C8_7 C 0.9327(2) 0.9264(5) 0.49528(14)
H6_7 H 0.9419 0.8600 0.4976
C11_8 C 0.9039(2) 0.9712(5) 0.51627(14)
C12_8 C 0.8873(2) 0.9180(5) 0.54271(13)
C15_8 C 0.7874(3) 0.9803(5) 0.65655(15)
H11_8 H 0.7723 0.9470 0.6724
C16_8 C 0.8081(3) 0.9261(5) 0.63445(16)
H12_8 H 0.8075 0.8568 0.6352
C17_8 C 0.8296(2) 0.9734(5) 0.61122(13)
C18_8 C 0.8531(2) 0.9191(4) 0.58721(13)
H14_8 H 0.6982 0.9892 0.7796
C24_8 C 0.7775(2) 0.9744(4) 0.81288(12)
C25_8 C 0.9595(2) 0.9109(6) 0.86217(16)
H17_8 H 0.9882 0.9089 0.8504
C26_8 C 0.9148(3) 0.9286(6) 0.84874(16)
H18_8 H 0.9131 0.9406 0.8283
C27_8 C 0.9236(2) 0.9000(5) 0.90702(14)
H19_8 H 0.9267 0.8922 0.9275
C28_8 C 0.8775(2) 0.9142(5) 0.89538(13)
H20_8 H 0.8495 0.9142 0.9077
C29_8 C 0.8726(2) 0.9285(4) 0.86565(13)
C30_8 C 0.8241(2) 0.9408(4) 0.85198(12)
C31_8 C 0.6566(2) 0.8830(5) 0.91771(13)
H21_8 H 0.6585 0.8643 0.9376
C32_8 C 0.6994(2) 0.8988(5) 0.90277(13)
H22_8 H 0.7301 0.8921 0.9123
C33_8 C 0.6103(2) 0.9195(5) 0.87735(13)
H23_8 H 0.5791 0.9283 0.8686
C34_8 C 0.6514(2) 0.9348(4) 0.86068(13)
H24_8 H 0.6487 0.9521 0.8407
C35_8 C 0.6970(2) 0.9245(4) 0.87370(12)
C36_8 C 0.7422(2) 0.9393(4) 0.85618(12)
N1_8 N 0.93844(19) 0.4925(4) 0.58318(13)
N4_8 N 0.8989(2) 0.8231(4) 0.54463(12)
N5_8 N 0.8635(2) 0.9687(4) 0.56273(11)
N6_8 N 0.86417(19) 0.8259(4) 0.59174(12)
N8_4 N 0.96416(19) 0.8967(4) 0.89053(13)
N9_4 N 0.61227(18) 0.8924(4) 0.90566(10)
N10_8 N 0.82273(17) 0.9645(3) 0.82373(10)
N11_8 N 0.78509(18) 0.9282(3) 0.86941(10)
N12_8 N 0.73588(17) 0.9621(3) 0.82809(10)
Zn5_4 Zn 0.54882(3) 0.86030(6) 0.928010(16)
I5_8 I 0.54889(2) 0.67661(4) 0.935760(13)
I6_7 I 0.482320(16) 0.95544(5) 0.901690(12)
C9_8 C 0.5905(3) 0.8837(5) 0.98780(14)
H7_8 H 0.5978 0.8164 0.9854
N2_8 N 0.5639(2) 0.9286(4) 0.96720(11)
C7_8 C 0.5521(3) 0.0227(5) 0.97135(15)
H5_8 H 0.5325 0.0549 0.9572
C8_8 C 0.5673(2) 0.0736(5) 0.99528(14)
H6_8 H 0.5581 0.1400 0.9976
Zn1_8 Zn 0.74633(3) 0.84340(6) 0.188556(15)
I1_8 I 0.837270(18) 0.82887(5) 0.177231(11)
I2_8 I 0.694744(19) 0.68953(3) 0.195938(11)
C10_8 C 0.6077(3) 0.9311(5) 0.01241(15)
H8_8 H 0.6271 0.8974 0.0264
C13_8 C 0.6908(3) 0.8761(5) 0.13426(14)
H9_8 H 0.6896 0.8068 0.1343
C14_8 C 0.6703(2) 0.9259(4) 0.11119(14)
H10_8 H 0.6561 0.8911 0.0954
C19_8 C 0.7771(2) 0.9553(4) 0.24105(13)
H13_8 H 0.8085 0.9533 0.2321
C20_8 C 0.7734(2) 0.9903(4) 0.26928(12)
C21_8 C 0.6940(2) 0.9329(5) 0.23773(14)
H15_8 H 0.6661 0.9144 0.2267
C22_8 C 0.6873(2) 0.9680(5) 0.26588(13)
H16_8 H 0.6552 0.9735 0.2738
C23_8 C 0.7276(2) 0.9948(4) 0.28212(12)
N3_8 N 0.7124(2) 0.9224(4) 0.15671(11)
N7_8 N 0.73825(19) 0.9241(4) 0.22568(11)
I6_8 I 0.982320(16) 0.54456(5) 0.098310(12)
loop_
_geom_bond_atom_site_label_1
_geom_bond_atom_site_label_2
_geom_bond_site_symmetry_1
_geom_bond_site_symmetry_2
Zn2 I3 1_555 1_555
I4 Zn2 1_555 1_555
C1 H1 1_555 1_555
C2 C1 1_555 1_555
H2 C2 1_555 1_555
C3 H3 1_555 1_555
C4 C3 1_555 1_555
H4 C4 1_555 1_555
C5 C2 1_555 1_555
C6 C5 1_555 1_555
C7 H5 1_555 1_555
C8 C7 1_555 1_555
H6 C8 1_555 1_555
C11 C8 1_555 1_555
C12 C11 1_555 1_555
C15 H11 1_555 1_555
C16 C15 1_555 1_555
H12 C16 1_555 1_555
C18 C17 1_555 1_555
C25 H17 1_555 1_555
C26 C25 1_555 1_555
H18 C26 1_555 1_555
C27 H19 1_555 1_555
C28 C27 1_555 1_555
H20 C28 1_555 1_555
C29 C26 1_555 1_555
C30 C29 1_555 1_555
C31 H21 1_555 1_555
C32 C31 1_555 1_555
H22 C32 1_555 1_555
C33 H23 1_555 1_555
C34 C33 1_555 1_555
H24 C34 1_555 1_555
C35 C32 1_555 1_555
C36 C35 1_555 1_555
N1 Zn2 1_555 1_555
N4 C6 1_555 1_555
N5 C12 1_555 1_555
N6 C6 1_555 1_555
N8 C25 1_555 1_555
N9 C31 1_555 1_555
N10 C24 1_555 1_555
N11 C30 1_555 1_555
N12 C24 1_555 1_555
Zn5 N9 1_555 1_555
C1 N1 1_555 1_555
C3 N1 1_555 1_555
C4 C5 1_555 1_555
C12 N4 1_555 1_555
C16 C17 1_555 1_555
C18 N5 1_555 1_555
C18 N6 1_555 1_555
C27 N8 1_555 1_555
C28 C29 1_555 1_555
C30 N10 1_555 1_555
C33 N9 1_555 1_555
C34 C35 1_555 1_555
C36 N11 1_555 1_555
C36 N12 1_555 1_555
Zn5 I5 1_555 1_555
I6 Zn5 1_555 1_555
C9 H7 1_555 1_555
N2 Zn5 1_555 1_555
C9 N2 1_555 1_555
Zn1 I1 1_555 1_555
Zn3 I5_2 1_555 1_555
I2 Zn1 1_555 1_555
C9_2 H7_2 1_555 1_555
C10 C9_2 1_555 1_555
H8 C10 1_555 1_555
C13 H9 1_555 1_555
C14 C13 1_555 1_555
H10 C14 1_555 1_555
C19 H13 1_555 1_555
C20 C19 1_555 1_555
C21 H15 1_555 1_555
C22 C21 1_555 1_555
H16 C22 1_555 1_555
C23 C20 1_555 1_555
N2_2 Zn3 1_555 1_555
N3 Zn1 1_555 1_555
N7 Zn1 1_555 1_555
N14 Zn3 1_555 1_555
C9_2 N2_2 1_555 1_555
C13 N3 1_555 1_555
C19 N7 1_555 1_555
C21 N7 1_555 1_555
C22 C23 1_555 1_555
Zn2_2 I3_2 1_555 1_555
I4_2 Zn2_2 1_555 1_555
C1_2 H1_2 1_555 1_555
C2_2 C1_2 1_555 1_555
H2_2 C2_2 1_555 1_555
C3_2 H3_2 1_555 1_555
C4_2 C3_2 1_555 1_555
H4_2 C4_2 1_555 1_555
C5_2 C2_2 1_555 1_555
C6_2 C5_2 1_555 1_555
C12_2 C11_2 1_555 1_555
C15_2 H11_2 1_555 1_555
C16_2 C15_2 1_555 1_555
H12_2 C16_2 1_555 1_555
C18_2 C17_2 1_555 1_555
C25_2 H17_2 1_555 1_555
C26_2 C25_2 1_555 1_555
H18_2 C26_2 1_555 1_555
C27_2 H19_2 1_555 1_555
C28_2 C27_2 1_555 1_555
H20_2 C28_2 1_555 1_555
C29_2 C26_2 1_555 1_555
C30_2 C29_2 1_555 1_555
C31_2 H21_2 1_555 1_555
C32_2 C31_2 1_555 1_555
H22_2 C32_2 1_555 1_555
C33_2 H23_2 1_555 1_555
C34_2 C33_2 1_555 1_555
H24_2 C34_2 1_555 1_555
C35_2 C32_2 1_555 1_555
C36_2 C35_2 1_555 1_555
N1_2 Zn2_2 1_555 1_555
N4_2 C6_2 1_555 1_555
N5_2 C12_2 1_555 1_555
N6_2 C6_2 1_555 1_555
N8_2 C25_2 1_555 1_555
N14 C31_2 1_555 1_555
N10_2 C24_2 1_555 1_555
N11_2 C30_2 1_555 1_555
N12_2 C24_2 1_555 1_555
Zn4_2 N8_2 1_555 1_555
N13_2 Zn2_2 1_555 1_555
C1_2 N1_2 1_555 1_555
C3_2 N1_2 1_555 1_555
C4_2 C5_2 1_555 1_555
C12_2 N4_2 1_555 1_555
C16_2 C17_2 1_555 1_555
C18_2 N5_2 1_555 1_555
C18_2 N6_2 1_555 1_555
C27_2 N8_2 1_555 1_555
C28_2 C29_2 1_555 1_555
C30_2 N10_2 1_555 1_555
C33_2 N14 1_555 1_555
C34_2 C35_2 1_555 1_555
C36_2 N11_2 1_555 1_555
C36_2 N12_2 1_555 1_555
Zn4 I3_3 1_555 1_555
I4_3 Zn4 1_555 1_555
N1_3 Zn4 1_555 1_555
Zn1_2 I1_2 1_555 1_555
I2_2 Zn1_2 1_555 1_555
C1_3 H1_3 1_555 1_555
C2_3 C1_3 1_555 1_555
H2_3 C2_3 1_555 1_555
C4_3 C3_3 1_555 1_555
H4_3 C4_3 1_555 1_555
C5_3 C2_3 1_555 1_555
C6_3 C5_3 1_555 1_555
H8_2 C10_2 1_555 1_555
C12_3 C11_3 1_555 1_555
C13_2 H9_2 1_555 1_555
C14_2 C13_2 1_555 1_555
H10_2 C14_2 1_555 1_555
C15_3 H11_3 1_555 1_555
C16_3 C15_3 1_555 1_555
H12_3 C16_3 1_555 1_555
C17_3 C14_2 1_555 1_555
C18_3 C17_3 1_555 1_555
C19_2 H13_2 1_555 1_555
C20_2 C19_2 1_555 1_555
H14_3 C20_2 1_555 1_555
C21_2 H15_2 1_555 1_555
C22_2 C21_2 1_555 1_555
H16_2 C22_2 1_555 1_555
C23_2 C20_2 1_555 1_555
C24_3 C23_2 1_555 1_555
C25_3 H17_3 1_555 1_555
C26_3 C25_3 1_555 1_555
H18_3 C26_3 1_555 1_555
C27_3 H19_3 1_555 1_555
C28_3 C27_3 1_555 1_555
H20_3 C28_3 1_555 1_555
C29_3 C26_3 1_555 1_555
C30_3 C29_3 1_555 1_555
C31_3 H21_3 1_555 1_555
C32_3 C31_3 1_555 1_555
H22_3 C32_3 1_555 1_555
C33_3 H23_3 1_555 1_555
C34_3 C33_3 1_555 1_555
H24_3 C34_3 1_555 1_555
C35_3 C32_3 1_555 1_555
C36_3 C35_3 1_555 1_555
N3_2 Zn1_2 1_555 1_555
N4_3 C6_3 1_555 1_555
N5_3 C12_3 1_555 1_555
N6_3 C6_3 1_555 1_555
N7_2 Zn1_2 1_555 1_555
N13 C25_3 1_555 1_555
N9_2 C31_3 1_555 1_555
N10_3 C24_3 1_555 1_555
N11_3 C30_3 1_555 1_555
N12_3 C24_3 1_555 1_555
Zn5_2 N9_2 1_555 1_555
C4_3 C5_3 1_555 1_555
C10_2 C11_3 1_555 1_555
C12_3 N4_3 1_555 1_555
C13_2 N3_2 1_555 1_555
C15_3 N3_2 1_555 1_555
C16_3 C17_3 1_555 1_555
C18_3 N5_3 1_555 1_555
C18_3 N6_3 1_555 1_555
C19_2 N7_2 1_555 1_555
C21_2 N7_2 1_555 1_555
C22_2 C23_2 1_555 1_555
C27_3 N13 1_555 1_555
C28_3 C29_3 1_555 1_555
C30_3 N10_3 1_555 1_555
C33_3 N9_2 1_555 1_555
C34_3 C35_3 1_555 1_555
C36_3 N11_3 1_555 1_555
C36_3 N12_3 1_555 1_555
Zn3_2 I5_3 1_555 1_555
C7_2 H5_2 1_555 1_555
C8_2 C7_2 1_555 1_555
H6_2 C8_2 1_555 1_555
C9_3 H7_3 1_555 1_555
N2_3 Zn3_2 1_555 1_555
N14_2 Zn3_2 1_555 1_555
C7_2 N2_3 1_555 1_555
C9_3 N2_3 1_555 1_555
Zn1_3 I1_3 1_555 1_555
Zn5_2 I5_4 1_555 1_555
I2_3 Zn1_3 1_555 1_555
I6_2 Zn5_2 1_555 1_555
C1_4 H1_4 1_555 1_555
C2_4 C1_4 1_555 1_555
H2_4 C2_4 1_555 1_555
C4_4 C3_4 1_555 1_555
H4_4 C4_4 1_555 1_555
C5_4 C2_4 1_555 1_555
C6_4 C5_4 1_555 1_555
C7_3 H5_3 1_555 1_555
C8_3 C7_3 1_555 1_555
H6_3 C8_3 1_555 1_555
C9_4 H7_4 1_555 1_555
C10_3 C9_4 1_555 1_555
H8_3 C10_3 1_555 1_555
C11_4 C8_3 1_555 1_555
C12_4 C11_4 1_555 1_555
C13_3 H9_3 1_555 1_555
C14_3 C13_3 1_555 1_555
H10_3 C14_3 1_555 1_555
C15_4 H11_4 1_555 1_555
C16_4 C15_4 1_555 1_555
H12_4 C16_4 1_555 1_555
C17_4 C14_3 1_555 1_555
C18_4 C17_4 1_555 1_555
C19_3 H13_3 1_555 1_555
C20_3 C19_3 1_555 1_555
H14_4 C20_3 1_555 1_555
C21_3 H15_3 1_555 1_555
C22_3 C21_3 1_555 1_555
H16_3 C22_3 1_555 1_555
C23_3 C20_3 1_555 1_555
C24_4 C23_3 1_555 1_555
C25_4 H17_4 1_555 1_555
C26_4 C25_4 1_555 1_555
H18_4 C26_4 1_555 1_555
C27_4 H19_4 1_555 1_555
C28_4 C27_4 1_555 1_555
H20_4 C28_4 1_555 1_555
C29_4 C26_4 1_555 1_555
C30_4 C29_4 1_555 1_555
C31_4 H21_4 1_555 1_555
C32_4 C31_4 1_555 1_555
H22_4 C32_4 1_555 1_555
C33_4 H23_4 1_555 1_555
C34_4 C33_4 1_555 1_555
H24_4 C34_4 1_555 1_555
C35_4 C32_4 1_555 1_555
C36_4 C35_4 1_555 1_555
N2_4 Zn5_2 1_555 1_555
N3_3 Zn1_3 1_555 1_555
N4_4 C6_4 1_555 1_555
N5_4 C12_4 1_555 1_555
N6_4 C6_4 1_555 1_555
N7_3 Zn1_3 1_555 1_555
N13_2 C25_4 1_555 1_555
N14_2 C31_4 1_555 1_555
N10_4 C24_4 1_555 1_555
N11_4 C30_4 1_555 1_555
N12_4 C24_4 1_555 1_555
C4_4 C5_4 1_555 1_555
C7_3 N2_4 1_555 1_555
C9_4 N2_4 1_555 1_555
C10_3 C11_4 1_555 1_555
C12_4 N4_4 1_555 1_555
C13_3 N3_3 1_555 1_555
C15_4 N3_3 1_555 1_555
C16_4 C17_4 1_555 1_555
C18_4 N5_4 1_555 1_555
C18_4 N6_4 1_555 1_555
C19_3 N7_3 1_555 1_555
C21_3 N7_3 1_555 1_555
C22_3 C23_3 1_555 1_555
C27_4 N13_2 1_555 1_555
C28_4 C29_4 1_555 1_555
C30_4 N10_4 1_555 1_555
C33_4 N14_2 1_555 1_555
C34_4 C35_4 1_555 1_555
C36_4 N11_4 1_555 1_555
C36_4 N12_4 1_555 1_555
Zn4_2 I3_4 1_555 1_555
I4_4 Zn4_2 1_555 1_555
N1_4 Zn4_2 1_555 1_555
Zn1_4 I1_4 1_555 1_555
I2_4 Zn1_4 1_555 1_555
H8_4 C10_4 1_555 1_555
C13_4 H9_4 1_555 1_555
C14_4 C13_4 1_555 1_555
H10_4 C14_4 1_555 1_555
C19_4 H13_4 1_555 1_555
C20_4 C19_4 1_555 1_555
C21_4 H15_4 1_555 1_555
C22_4 C21_4 1_555 1_555
H16_4 C22_4 1_555 1_555
C23_4 C20_4 1_555 1_555
N3_4 Zn1_4 1_555 1_555
N7_4 Zn1_4 1_555 1_555
C13_4 N3_4 1_555 1_555
C19_4 N7_4 1_555 1_555
C21_4 N7_4 1_555 1_555
C22_4 C23_4 1_555 1_555
C7_4 H5_4 1_555 1_555
C8_4 C7_4 1_555 1_555
H6_4 C8_4 1_555 1_555
Zn1_5 I1_5 1_555 1_555
Zn3_3 I5_5 1_555 1_555
I2_5 Zn1_5 1_555 1_555
C9_5 H7_5 1_555 1_555
C10_5 C9_5 1_555 1_555
H8_5 C10_5 1_555 1_555
C13_5 H9_5 1_555 1_555
C14_5 C13_5 1_555 1_555
H10_5 C14_5 1_555 1_555
C19_5 H13_5 1_555 1_555
C20_5 C19_5 1_555 1_555
C21_5 H15_5 1_555 1_555
C22_5 C21_5 1_555 1_555
H16_5 C22_5 1_555 1_555
C23_5 C20_5 1_555 1_555
N2_5 Zn3_3 1_555 1_555
N3_5 Zn1_5 1_555 1_555
N7_5 Zn1_5 1_555 1_555
N14_3 Zn3_3 1_555 1_555
C9_5 N2_5 1_555 1_555
C13_5 N3_5 1_555 1_555
C19_5 N7_5 1_555 1_555
C21_5 N7_5 1_555 1_555
C22_5 C23_5 1_555 1_555
Zn2_3 I3_5 1_555 1_555
I4_5 Zn2_3 1_555 1_555
C1_5 H1_5 1_555 1_555
C2_5 C1_5 1_555 1_555
H2_5 C2_5 1_555 1_555
C3_5 H3_5 1_555 1_555
C4_5 C3_5 1_555 1_555
H4_5 C4_5 1_555 1_555
C5_5 C2_5 1_555 1_555
C6_5 C5_5 1_555 1_555
C12_5 C11_5 1_555 1_555
C15_5 H11_5 1_555 1_555
C16_5 C15_5 1_555 1_555
H12_5 C16_5 1_555 1_555
C18_5 C17_5 1_555 1_555
C25_5 H17_5 1_555 1_555
C26_5 C25_5 1_555 1_555
H18_5 C26_5 1_555 1_555
C27_5 H19_5 1_555 1_555
C28_5 C27_5 1_555 1_555
H20_5 C28_5 1_555 1_555
C29_5 C26_5 1_555 1_555
C30_5 C29_5 1_555 1_555
C31_5 H21_5 1_555 1_555
C32_5 C31_5 1_555 1_555
H22_5 C32_5 1_555 1_555
C33_5 H23_5 1_555 1_555
C34_5 C33_5 1_555 1_555
H24_5 C34_5 1_555 1_555
C35_5 C32_5 1_555 1_555
C36_5 C35_5 1_555 1_555
N1_5 Zn2_3 1_555 1_555
N4_5 C6_5 1_555 1_555
N5_5 C12_5 1_555 1_555
N6_5 C6_5 1_555 1_555
N8_3 C25_5 1_555 1_555
N14_3 C31_5 1_555 1_555
N10_5 C24_5 1_555 1_555
N11_5 C30_5 1_555 1_555
N12_5 C24_5 1_555 1_555
Zn4_4 N8_3 1_555 1_555
N13_4 Zn2_3 1_555 1_555
C1_5 N1_5 1_555 1_555
C3_5 N1_5 1_555 1_555
C4_5 C5_5 1_555 1_555
C12_5 N4_5 1_555 1_555
C16_5 C17_5 1_555 1_555
C18_5 N5_5 1_555 1_555
C18_5 N6_5 1_555 1_555
C27_5 N8_3 1_555 1_555
C28_5 C29_5 1_555 1_555
C30_5 N10_5 1_555 1_555
C33_5 N14_3 1_555 1_555
C34_5 C35_5 1_555 1_555
C36_5 N11_5 1_555 1_555
C36_5 N12_5 1_555 1_555
Zn3_4 I5_6 1_555 1_555
C7_5 H5_5 1_555 1_555
C8_5 C7_5 1_555 1_555
H6_5 C8_5 1_555 1_555
C9_6 H7_6 1_555 1_555
N2_6 Zn3_4 1_555 1_555
N14_4 Zn3_4 1_555 1_555
C7_5 N2_6 1_555 1_555
C9_6 N2_6 1_555 1_555
Zn1_6 I1_6 1_555 1_555
I2_6 Zn1_6 1_555 1_555
C1_6 H1_6 1_555 1_555
C2_6 C1_6 1_555 1_555
H2_6 C2_6 1_555 1_555
C4_6 C3_6 1_555 1_555
H4_6 C4_6 1_555 1_555
C5_6 C2_6 1_555 1_555
C6_6 C5_6 1_555 1_555
H8_6 C10_6 1_555 1_555
C12_6 C11_6 1_555 1_555
C13_6 H9_6 1_555 1_555
C14_6 C13_6 1_555 1_555
H10_6 C14_6 1_555 1_555
C15_6 H11_6 1_555 1_555
C16_6 C15_6 1_555 1_555
H12_6 C16_6 1_555 1_555
C17_6 C14_6 1_555 1_555
C18_6 C17_6 1_555 1_555
C19_6 H13_6 1_555 1_555
C20_6 C19_6 1_555 1_555
H14_6 C20_6 1_555 1_555
C21_6 H15_6 1_555 1_555
C22_6 C21_6 1_555 1_555
H16_6 C22_6 1_555 1_555
C23_6 C20_6 1_555 1_555
C24_6 C23_6 1_555 1_555
C25_6 H17_6 1_555 1_555
C26_6 C25_6 1_555 1_555
H18_6 C26_6 1_555 1_555
C27_6 H19_6 1_555 1_555
C28_6 C27_6 1_555 1_555
H20_6 C28_6 1_555 1_555
C29_6 C26_6 1_555 1_555
C30_6 C29_6 1_555 1_555
C31_6 H21_6 1_555 1_555
C32_6 C31_6 1_555 1_555
H22_6 C32_6 1_555 1_555
C33_6 H23_6 1_555 1_555
C34_6 C33_6 1_555 1_555
H24_6 C34_6 1_555 1_555
C35_6 C32_6 1_555 1_555
C36_6 C35_6 1_555 1_555
N3_6 Zn1_6 1_555 1_555
N4_6 C6_6 1_555 1_555
N5_6 C12_6 1_555 1_555
N6_6 C6_6 1_555 1_555
N7_6 Zn1_6 1_555 1_555
N13_3 C25_6 1_555 1_555
N9_3 C31_6 1_555 1_555
N10_6 C24_6 1_555 1_555
N11_6 C30_6 1_555 1_555
N12_6 C24_6 1_555 1_555
Zn5_3 N9_3 1_555 1_555
C4_6 C5_6 1_555 1_555
C10_6 C11_6 1_555 1_555
C12_6 N4_6 1_555 1_555
C13_6 N3_6 1_555 1_555
C15_6 N3_6 1_555 1_555
C16_6 C17_6 1_555 1_555
C18_6 N5_6 1_555 1_555
C18_6 N6_6 1_555 1_555
C19_6 N7_6 1_555 1_555
C21_6 N7_6 1_555 1_555
C22_6 C23_6 1_555 1_555
C27_6 N13_3 1_555 1_555
C28_6 C29_6 1_555 1_555
C30_6 N10_6 1_555 1_555
C33_6 N9_3 1_555 1_555
C34_6 C35_6 1_555 1_555
C36_6 N11_6 1_555 1_555
C36_6 N12_6 1_555 1_555
Zn4_3 I3_6 1_555 1_555
I4_6 Zn4_3 1_555 1_555
N1_6 Zn4_3 1_555 1_555
Zn4_4 I3_7 1_555 1_555
I4_7 Zn4_4 1_555 1_555
N1_7 Zn4_4 1_555 1_555
Zn1_7 I1_7 1_555 1_555
Zn5_3 I5_7 1_555 1_555
I2_7 Zn1_7 1_555 1_555
I6_6 Zn5_3 1_555 1_555
C1_7 H1_7 1_555 1_555
C2_7 C1_7 1_555 1_555
H2_7 C2_7 1_555 1_555
C4_7 C3_7 1_555 1_555
H4_7 C4_7 1_555 1_555
C5_7 C2_7 1_555 1_555
C6_7 C5_7 1_555 1_555
C7_6 H5_6 1_555 1_555
C8_6 C7_6 1_555 1_555
H6_6 C8_6 1_555 1_555
C9_7 H7_7 1_555 1_555
C10_7 C9_7 1_555 1_555
H8_7 C10_7 1_555 1_555
C11_7 C8_6 1_555 1_555
C12_7 C11_7 1_555 1_555
C13_7 H9_7 1_555 1_555
C14_7 C13_7 1_555 1_555
H10_7 C14_7 1_555 1_555
C15_7 H11_7 1_555 1_555
C16_7 C15_7 1_555 1_555
H12_7 C16_7 1_555 1_555
C17_7 C14_7 1_555 1_555
C18_7 C17_7 1_555 1_555
C19_7 H13_7 1_555 1_555
C20_7 C19_7 1_555 1_555
H14_7 C20_7 1_555 1_555
C21_7 H15_7 1_555 1_555
C22_7 C21_7 1_555 1_555
H16_7 C22_7 1_555 1_555
C23_7 C20_7 1_555 1_555
C24_7 C23_7 1_555 1_555
C25_7 H17_7 1_555 1_555
C26_7 C25_7 1_555 1_555
H18_7 C26_7 1_555 1_555
C27_7 H19_7 1_555 1_555
C28_7 C27_7 1_555 1_555
H20_7 C28_7 1_555 1_555
C29_7 C26_7 1_555 1_555
C30_7 C29_7 1_555 1_555
C31_7 H21_7 1_555 1_555
C32_7 C31_7 1_555 1_555
H22_7 C32_7 1_555 1_555
C33_7 H23_7 1_555 1_555
C34_7 C33_7 1_555 1_555
H24_7 C34_7 1_555 1_555
C35_7 C32_7 1_555 1_555
C36_7 C35_7 1_555 1_555
N2_7 Zn5_3 1_555 1_555
N3_7 Zn1_7 1_555 1_555
N4_7 C6_7 1_555 1_555
N5_7 C12_7 1_555 1_555
N6_7 C6_7 1_555 1_555
N7_7 Zn1_7 1_555 1_555
N13_4 C25_7 1_555 1_555
N14_4 C31_7 1_555 1_555
N10_7 C24_7 1_555 1_555
N11_7 C30_7 1_555 1_555
N12_7 C24_7 1_555 1_555
C4_7 C5_7 1_555 1_555
C7_6 N2_7 1_555 1_555
C9_7 N2_7 1_555 1_555
C10_7 C11_7 1_555 1_555
C12_7 N4_7 1_555 1_555
C13_7 N3_7 1_555 1_555
C15_7 N3_7 1_555 1_555
C16_7 C17_7 1_555 1_555
C18_7 N5_7 1_555 1_555
C18_7 N6_7 1_555 1_555
C19_7 N7_7 1_555 1_555
C21_7 N7_7 1_555 1_555
C22_7 C23_7 1_555 1_555
C27_7 N13_4 1_555 1_555
C28_7 C29_7 1_555 1_555
C30_7 N10_7 1_555 1_555
C33_7 N14_4 1_555 1_555
C34_7 C35_7 1_555 1_555
C36_7 N11_7 1_555 1_555
C36_7 N12_7 1_555 1_555
Zn2_4 I3_8 1_555 1_555
I4_8 Zn2_4 1_555 1_555
C1_8 H1_8 1_555 1_555
C2_8 C1_8 1_555 1_555
H2_8 C2_8 1_555 1_555
C3_8 H3_8 1_555 1_555
C4_8 C3_8 1_555 1_555
H4_8 C4_8 1_555 1_555
C5_8 C2_8 1_555 1_555
C6_8 C5_8 1_555 1_555
C7_7 H5_7 1_555 1_555
C8_7 C7_7 1_555 1_555
H6_7 C8_7 1_555 1_555
C11_8 C8_7 1_555 1_555
C12_8 C11_8 1_555 1_555
C15_8 H11_8 1_555 1_555
C16_8 C15_8 1_555 1_555
H12_8 C16_8 1_555 1_555
C18_8 C17_8 1_555 1_555
C25_8 H17_8 1_555 1_555
C26_8 C25_8 1_555 1_555
H18_8 C26_8 1_555 1_555
C27_8 H19_8 1_555 1_555
C28_8 C27_8 1_555 1_555
H20_8 C28_8 1_555 1_555
C29_8 C26_8 1_555 1_555
C30_8 C29_8 1_555 1_555
C31_8 H21_8 1_555 1_555
C32_8 C31_8 1_555 1_555
H22_8 C32_8 1_555 1_555
C33_8 H23_8 1_555 1_555
C34_8 C33_8 1_555 1_555
H24_8 C34_8 1_555 1_555
C35_8 C32_8 1_555 1_555
C36_8 C35_8 1_555 1_555
N1_8 Zn2_4 1_555 1_555
N4_8 C6_8 1_555 1_555
N5_8 C12_8 1_555 1_555
N6_8 C6_8 1_555 1_555
N8_4 C25_8 1_555 1_555
N9_4 C31_8 1_555 1_555
N10_8 C24_8 1_555 1_555
N11_8 C30_8 1_555 1_555
N12_8 C24_8 1_555 1_555
Zn5_4 N9_4 1_555 1_555
C1_8 N1_8 1_555 1_555
C3_8 N1_8 1_555 1_555
C4_8 C5_8 1_555 1_555
C12_8 N4_8 1_555 1_555
C16_8 C17_8 1_555 1_555
C18_8 N5_8 1_555 1_555
C18_8 N6_8 1_555 1_555
C27_8 N8_4 1_555 1_555
C28_8 C29_8 1_555 1_555
C30_8 N10_8 1_555 1_555
C33_8 N9_4 1_555 1_555
C34_8 C35_8 1_555 1_555
C36_8 N11_8 1_555 1_555
C36_8 N12_8 1_555 1_555
Zn5_4 I5_8 1_555 1_555
I6_7 Zn5_4 1_555 1_555
C9_8 H7_8 1_555 1_555
N2_8 Zn5_4 1_555 1_555
C9_8 N2_8 1_555 1_555
C7_8 H5_8 1_555 1_555
C8_8 C7_8 1_555 1_555
H6_8 C8_8 1_555 1_555
Zn1_8 I1_8 1_555 1_555
I2_8 Zn1_8 1_555 1_555
H8_8 C10_8 1_555 1_555
C13_8 H9_8 1_555 1_555
C14_8 C13_8 1_555 1_555
H10_8 C14_8 1_555 1_555
C19_8 H13_8 1_555 1_555
C20_8 C19_8 1_555 1_555
C21_8 H15_8 1_555 1_555
C22_8 C21_8 1_555 1_555
H16_8 C22_8 1_555 1_555
C23_8 C20_8 1_555 1_555
N3_8 Zn1_8 1_555 1_555
N7_8 Zn1_8 1_555 1_555
C13_8 N3_8 1_555 1_555
C19_8 N7_8 1_555 1_555
C21_8 N7_8 1_555 1_555
C22_8 C23_8 1_555 1_555

#END
