
###############################################################################
#
# This file contains modified crystal structure data generated from the
# MOF subset of the Cambridge Structural Database (CSD) v543 
# hosted by the Cambridge Crystallographic Data Centre (CCDC).
#
# This work is licensed under the Creative Commons
# Attribution-NonCommercial-ShareAlike 4.0 International License.
# To view a copy of this license, visit
# http://creativecommons.org/licenses/by-nc-sa/4.0/
# or send a letter to
# Creative Commons, PO Box 1866, Mountain View, CA 94042, USA.
#
# CIF created using the CSD Python API on 29 September 2022
# The structure has been converted into the P1 space group
# The structure has a 3D framework
# The original CSD entry CIXCAO is in the orthorhombic crystal system
# The framework has been calculated to contain at least 10.0% void space
# The void calculation uses a probe of radius 1.32A, grid spacing 0.4
#
###############################################################################

data_CIXCAO
_chemical_formula_moiety         '(C288 H196 I48 N96 Zn24)n'
_symmetry_cell_setting           triclinic
_symmetry_space_group_name_H-M   'P 1'
_symmetry_Int_Tables_number      1
_space_group_name_Hall           'P 1'
loop_
_symmetry_equiv_pos_site_id
_symmetry_equiv_pos_as_xyz
1 x,y,z
_cell_length_a                   27.881(6)
_cell_length_b                   13.675(3)
_cell_length_c                   45.714(9)
_cell_angle_alpha                90
_cell_angle_beta                 90
_cell_angle_gamma                90
_cell_volume                     17429.5
loop_
_atom_site_label
_atom_site_type_symbol
_atom_site_fract_x
_atom_site_fract_y
_atom_site_fract_z
C13 C 0.44375(19) 0.0100(4) 0.02951(11)
H9 H 0.4625 0.0384 0.0446
C14 C 0.43173(19) 0.0668(4) 0.00581(11)
H10 H 0.4422 0.1328 0.0046
Zn3 Zn 0.472230(19) 0.64969(4) 0.912800(13)
I5 I 0.489280(14) 0.72598(3) 0.962520(9)
I6 I 0.423510(15) 0.73398(3) 0.873090(11)
C3 C 0.2946(2) 0.0326(4) 0.84170(11)
H3 H 0.2814 0.0669 0.8255
C4 C 0.31577(19) 0.0857(3) 0.86399(11)
H4 H 0.3171 0.1550 0.8631
C5 C 0.33499(16) 0.0357(3) 0.88757(9)
C6 C 0.35780(16) 0.0884(3) 0.91238(10)
C7 C 0.4178(2) 0.4679(4) 0.89870(11)
H5 H 0.4130 0.5008 0.8806
C8 C 0.3998(2) 0.3753(4) 0.90193(11)
H6 H 0.3829 0.3450 0.8864
C9 C 0.44775(17) 0.4674(4) 0.94579(11)
H7 H 0.4643 0.5000 0.9611
C10 C 0.43060(18) 0.3745(4) 0.95071(11)
H8 H 0.4351 0.3436 0.9691
C11 C 0.40654(16) 0.3264(3) 0.92824(10)
C12 C 0.39062(15) 0.2234(3) 0.93172(10)
C17 C 0.40386(17) 0.0260(3) 0.98358(9)
C18 C 0.39019(16) 0.0838(3) 0.95732(9)
C19 C 0.16240(16) 0.1342(3) 0.58142(10)
H13 H 0.1643 0.1542 0.5615
C20 C 0.20439(16) 0.1172(3) 0.59643(9)
H14 H 0.2345 0.1233 0.5869
C21 C 0.11673(15) 0.0961(3) 0.62161(9)
H15 H 0.0861 0.0876 0.6303
C22 C 0.15688(16) 0.0795(3) 0.63843(9)
H16 H 0.1539 0.0605 0.6583
C23 C 0.20182(15) 0.0910(3) 0.62573(9)
C24 C 0.24604(15) 0.0761(3) 0.64322(9)
C26 C 0.23162(16) 0.0068(3) 0.73054(9)
H18 H 0.2042 0.0303 0.7204
C29 C 0.27621(16) 0.0082(3) 0.71732(9)
C30 C 0.28099(15) 0.0395(3) 0.68628(9)
C31 C 0.45905(19) 0.1040(5) 0.63554(12)
H21 H 0.4873 0.1070 0.6471
C32 C 0.41548(18) 0.0880(5) 0.64943(11)
H22 H 0.4142 0.0788 0.6700
C33 C 0.42263(17) 0.1107(4) 0.59060(10)
H23 H 0.4247 0.1175 0.5700
C34 C 0.37812(16) 0.0962(3) 0.60319(10)
H24 H 0.3503 0.0935 0.5912
C35 C 0.37406(16) 0.0858(3) 0.63285(9)
C36 C 0.32671(15) 0.0734(3) 0.64682(9)
N2 N 0.44205(13) 0.5141(3) 0.92009(9)
N4 N 0.36770(13) 0.1832(3) 0.90912(8)
N5 N 0.40209(14) 0.1781(3) 0.95659(8)
N6 N 0.36792(14) 0.0351(3) 0.93601(8)
N7 N 0.11901(13) 0.1239(3) 0.59350(8)
N9 N 0.46298(14) 0.1155(3) 0.60654(9)
N10 N 0.24018(13) 0.0522(3) 0.67148(7)
N11 N 0.32528(13) 0.0488(3) 0.67517(8)
N12 N 0.28808(13) 0.0873(3) 0.62983(8)
Zn4 Zn 0.057254(19) 0.16089(4) 0.570465(11)
Zn5 Zn 0.527770(19) 0.14969(4) 0.587200(13)
N14 N 0.53702(14) 0.6155(3) 0.89346(9)
Zn1 Zn 0.24404(2) 0.14480(4) 0.311058(11)
I1 I 0.196522(13) 0.30308(2) 0.304564(8)
I2 I 0.333022(13) 0.15294(3) 0.323161(8)
I3 I 0.066530(14) 0.34189(3) 0.558602(9)
C1 C 0.18830(19) 0.1130(3) 0.36430(10)
H1 H 0.1889 0.1824 0.3642
C2 C 0.16677(19) 0.0648(3) 0.38771(10)
H2 H 0.1535 0.1008 0.4035
C15 C 0.0951(2) 0.1237(4) 0.51048(10)
H11 H 0.1038 0.1908 0.5118
C16 C 0.1090(2) 0.0712(4) 0.48601(10)
H12 H 0.1272 0.1018 0.4710
C25 C 0.27256(16) 0.0294(3) 0.25873(9)
H17 H 0.3032 0.0295 0.2679
C27 C 0.19128(17) 0.0605(4) 0.26096(10)
H19 H 0.1643 0.0835 0.2716
C28 C 0.18453(17) 0.0240(3) 0.23299(10)
H20 H 0.1533 0.0213 0.2247
N1 N 0.20801(14) 0.0649(3) 0.34206(8)
N3 N 0.06985(14) 0.0837(3) 0.53227(8)
N8 N 0.23478(14) 0.0642(3) 0.27344(8)
Zn5_2 Zn 0.972230(19) 0.85031(4) 0.087200(13)
N14_2 N 0.96298(14) 0.3845(3) 0.39346(9)
I5_2 I 0.510720(14) 0.22598(3) 0.537480(9)
I6_2 I 0.576490(15) 0.23398(3) 0.626910(11)
H5_2 H 0.5870 0.0008 0.6194
H7_2 H 0.5357 0.0000 0.5389
N2_2 N 0.55795(13) 0.0141(3) 0.57991(9)
Zn1_2 Zn 0.74404(2) 0.35520(4) 0.688942(11)
Zn2 Zn 0.557254(19) 0.33911(4) 0.429535(11)
I1_2 I 0.696522(13) 0.19692(2) 0.695436(8)
I2_2 I 0.833022(13) 0.34706(3) 0.676839(8)
I3_2 I 0.566530(14) 0.15811(3) 0.441398(9)
I4 I 0.489298(12) 0.42098(3) 0.402036(7)
C1_2 C 0.68830(19) 0.3870(3) 0.63570(10)
H1_2 H 0.6889 0.3176 0.6358
C2_2 C 0.66677(19) 0.4352(3) 0.61229(10)
H2_2 H 0.6535 0.3992 0.5965
C3_2 C 0.7054(2) 0.5326(4) 0.65830(11)
H3_2 H 0.7186 0.5669 0.6745
C4_2 C 0.68423(19) 0.5857(3) 0.63601(11)
H4_2 H 0.6829 0.6550 0.6369
C5_2 C 0.66501(16) 0.5357(3) 0.61243(9)
C6_2 C 0.64220(16) 0.5884(3) 0.58762(10)
C7_2 C 0.5822(2) 0.9679(4) 0.60130(11)
C8_2 C 0.6002(2) 0.8753(4) 0.59807(11)
H6_2 H 0.6171 0.8450 0.6136
C9_2 C 0.55225(17) 0.9674(4) 0.55421(11)
H7_3 H 0.5357 1.0000 0.5389
C10_2 C 0.56940(18) 0.8745(4) 0.54929(11)
H8_2 H 0.5649 0.8436 0.5309
C11_2 C 0.59346(16) 0.8264(3) 0.57176(10)
C12_2 C 0.60938(15) 0.7234(3) 0.56828(10)
C13_2 C 0.55625(19) 0.5100(4) 0.47049(11)
H9_2 H 0.5375 0.5384 0.4554
C14_2 C 0.56827(19) 0.5668(4) 0.49419(11)
H10_2 H 0.5578 0.6328 0.4954
C15_2 C 0.5951(2) 0.3763(4) 0.48952(10)
H11_2 H 0.6038 0.3092 0.4882
C16_2 C 0.6090(2) 0.4288(4) 0.51399(10)
H12_2 H 0.6272 0.3982 0.5290
C17_2 C 0.59614(17) 0.5260(3) 0.51642(9)
C18_2 C 0.60981(16) 0.5838(3) 0.54268(9)
C19_2 C 0.83760(16) 0.6342(3) 0.91858(10)
H13_2 H 0.8357 0.6542 0.9385
C20_2 C 0.79561(16) 0.6172(3) 0.90357(9)
H14_2 H 0.7655 0.6233 0.9131
C21_2 C 0.88327(15) 0.5961(3) 0.87839(9)
H15_2 H 0.9139 0.5876 0.8697
C22_2 C 0.84312(16) 0.5795(3) 0.86157(9)
H16_2 H 0.8461 0.5605 0.8417
C23_2 C 0.79818(15) 0.5910(3) 0.87427(9)
C24_2 C 0.75396(15) 0.5761(3) 0.85678(9)
C25_2 C 0.77256(16) 0.4706(3) 0.74127(9)
H17_2 H 0.8032 0.4705 0.7321
C26_2 C 0.76838(16) 0.5068(3) 0.76946(9)
H18_2 H 0.7958 0.5303 0.7796
C27_2 C 0.69128(17) 0.4395(4) 0.73904(10)
H19_2 H 0.6643 0.4165 0.7284
C28_2 C 0.68453(17) 0.4760(3) 0.76701(10)
H20_2 H 0.6533 0.4787 0.7753
C29_2 C 0.72379(16) 0.5082(3) 0.78268(9)
C30_2 C 0.71901(15) 0.5395(3) 0.81372(9)
C31_2 C 0.54095(19) 0.6040(5) 0.86446(12)
H21_2 H 0.5127 0.6070 0.8529
C32_2 C 0.58452(18) 0.5880(5) 0.85057(11)
H22_2 H 0.5858 0.5788 0.8300
C33_2 C 0.57737(17) 0.6107(4) 0.90940(10)
H23_2 H 0.5753 0.6175 0.9300
C34_2 C 0.62188(16) 0.5962(3) 0.89681(10)
H24_2 H 0.6497 0.5935 0.9088
C35_2 C 0.62594(16) 0.5858(3) 0.86715(9)
C36_2 C 0.67329(15) 0.5734(3) 0.85318(9)
N1_2 N 0.70801(14) 0.4351(3) 0.65794(8)
N3_2 N 0.56985(14) 0.4163(3) 0.46773(8)
N4_2 N 0.63230(13) 0.6832(3) 0.59088(8)
N5_2 N 0.59791(14) 0.6781(3) 0.54341(8)
N6_2 N 0.63208(14) 0.5351(3) 0.56399(8)
N7_2 N 0.88099(13) 0.6239(3) 0.90650(8)
N8_2 N 0.73478(14) 0.4358(3) 0.72656(8)
N10_2 N 0.75982(13) 0.5522(3) 0.82852(7)
N11_2 N 0.67472(13) 0.5488(3) 0.82483(8)
N12_2 N 0.71192(13) 0.5873(3) 0.87017(8)
Zn4_2 Zn 0.942746(19) 0.66089(4) 0.929535(11)
N13 N 0.61901(13) 0.3761(3) 0.40650(8)
Zn1_3 Zn 0.75596(2) 0.64480(4) 0.188942(11)
I1_3 I 0.803478(13) 0.80308(2) 0.195436(8)
I2_3 I 0.666978(13) 0.65294(3) 0.176839(8)
C1_3 C 0.81170(19) 0.6130(3) 0.13570(10)
H1_3 H 0.8111 0.6824 0.1358
C2_3 C 0.83323(19) 0.5648(3) 0.11229(10)
H2_3 H 0.8465 0.6008 0.0965
C3_3 C 0.7946(2) 0.4674(4) 0.15830(11)
H3_3 H 0.7814 0.4331 0.1745
C4_3 C 0.81577(19) 0.4143(3) 0.13601(11)
H4_3 H 0.8171 0.3450 0.1369
C5_3 C 0.83499(16) 0.4643(3) 0.11243(9)
C6_3 C 0.85780(16) 0.4116(3) 0.08762(10)
C7_3 C 0.9178(2) 0.0321(4) 0.10130(11)
C8_3 C 0.8998(2) 0.1247(4) 0.09807(11)
H6_3 H 0.8829 0.1550 0.1136
C9_3 C 0.94775(17) 0.0326(4) 0.05421(11)
H7_4 H 0.9643 0.0000 0.0389
C10_3 C 0.93060(18) 0.1255(4) 0.04929(11)
H8_3 H 0.9351 0.1564 0.0309
C11_3 C 0.90654(16) 0.1736(3) 0.07176(10)
C12_3 C 0.89062(15) 0.2766(3) 0.06828(10)
C16_3 C 0.8910(2) 0.5712(4) 0.01399(10)
H12_3 H 0.8728 0.6018 0.0290
C17_3 C 0.90386(17) 0.4740(3) 0.01642(9)
C18_3 C 0.89019(16) 0.4162(3) 0.04268(9)
C19_3 C 0.66240(16) 0.3658(3) 0.41858(10)
H13_3 H 0.6643 0.3458 0.4385
C20_3 C 0.70439(16) 0.3828(3) 0.40357(9)
H14_3 H 0.7345 0.3767 0.4131
C21_3 C 0.61673(15) 0.4039(3) 0.37839(9)
H15_3 H 0.5861 0.4124 0.3697
C22_3 C 0.65688(16) 0.4205(3) 0.36157(9)
H16_3 H 0.6539 0.4395 0.3417
C23_3 C 0.70182(15) 0.4090(3) 0.37427(9)
C24_3 C 0.74604(15) 0.4239(3) 0.35678(9)
C25_3 C 0.72744(16) 0.5294(3) 0.24127(9)
H17_3 H 0.6968 0.5295 0.2321
C26_3 C 0.73162(16) 0.4932(3) 0.26946(9)
H18_3 H 0.7042 0.4697 0.2796
C27_3 C 0.80872(17) 0.5605(4) 0.23904(10)
H19_3 H 0.8357 0.5835 0.2284
C28_3 C 0.81547(17) 0.5240(3) 0.26701(10)
H20_3 H 0.8467 0.5213 0.2753
C29_3 C 0.77621(16) 0.4918(3) 0.28268(9)
C30_3 C 0.78099(15) 0.4605(3) 0.31372(9)
C31_3 C 0.95905(19) 0.3960(5) 0.36446(12)
H21_3 H 0.9873 0.3930 0.3529
C32_3 C 0.91548(18) 0.4120(5) 0.35057(11)
H22_3 H 0.9142 0.4212 0.3300
C33_3 C 0.92263(17) 0.3893(4) 0.40940(10)
H23_3 H 0.9247 0.3825 0.4300
C34_3 C 0.87812(16) 0.4038(3) 0.39681(10)
H24_3 H 0.8503 0.4065 0.4088
C35_3 C 0.87406(16) 0.4142(3) 0.36715(9)
C36_3 C 0.82671(15) 0.4266(3) 0.35318(9)
N1_3 N 0.79199(14) 0.5649(3) 0.15794(8)
N4_3 N 0.86770(13) 0.3168(3) 0.09088(8)
N5_3 N 0.90209(14) 0.3219(3) 0.04341(8)
N6_3 N 0.86792(14) 0.4649(3) 0.06399(8)
N8_3 N 0.76522(14) 0.5642(3) 0.22656(8)
N10_3 N 0.74018(13) 0.4478(3) 0.32852(7)
N11_3 N 0.82528(13) 0.4512(3) 0.32483(8)
N12_3 N 0.78808(13) 0.4127(3) 0.37017(8)
I3_3 I 0.933470(14) 0.84189(3) 0.941398(9)
C13_3 C 0.94375(19) 0.4900(4) 0.97049(11)
H9_3 H 0.9625 0.4616 0.9554
C14_3 C 0.93173(19) 0.4332(4) 0.99419(11)
H10_3 H 0.9422 0.3672 0.9954
C15_3 C 0.9049(2) 0.6237(4) 0.98952(10)
H11_3 H 0.8962 0.6908 0.9882
N3_3 N 0.93015(14) 0.5837(3) 0.96773(8)
I5_3 I 0.989280(14) 0.77402(3) 0.037480(9)
I6_3 I 0.923510(15) 0.76602(3) 0.126910(11)
H5_3 H 0.9130 0.9992 0.1194
H7_5 H 0.9643 1.0000 0.0389
N2_3 N 0.94205(13) 0.9859(3) 0.07991(9)
Zn2_2 Zn 0.442746(19) 0.83911(4) 0.070465(11)
I3_4 I 0.433470(14) 0.65811(3) 0.058602(9)
I4_2 I 0.510702(12) 0.92098(3) 0.097964(7)
C15_4 C 0.4049(2) 0.8763(4) 0.01048(10)
H11_4 H 0.3962 0.8092 0.0118
N3_4 N 0.43015(14) 0.9163(3) 0.03227(8)
N13_2 N 0.38099(13) 0.8761(3) 0.09350(8)
Zn3_2 Zn 0.027770(19) 0.35031(4) 0.412800(13)
I5_4 I 0.010720(14) 0.27402(3) 0.462520(9)
I6_4 I 0.076490(15) 0.26602(3) 0.373090(11)
C3_4 C 0.2054(2) 0.9674(4) 0.34170(11)
H3_4 H 0.2186 0.9331 0.3255
C4_4 C 0.18423(19) 0.9143(3) 0.36399(11)
H4_4 H 0.1829 0.8450 0.3631
C5_4 C 0.16501(16) 0.9643(3) 0.38757(9)
C6_4 C 0.14220(16) 0.9116(3) 0.41238(10)
C7_4 C 0.0822(2) 0.5321(4) 0.39870(11)
H5_4 H 0.0870 0.4992 0.3806
C8_4 C 0.1002(2) 0.6247(4) 0.40193(11)
H6_4 H 0.1171 0.6550 0.3864
C9_4 C 0.05225(17) 0.5326(4) 0.44579(11)
H7_6 H 0.0357 0.5000 0.4611
C10_4 C 0.06940(18) 0.6255(4) 0.45071(11)
H8_4 H 0.0649 0.6564 0.4691
C11_4 C 0.09346(16) 0.6736(3) 0.42824(10)
C12_4 C 0.10938(15) 0.7766(3) 0.43172(10)
C13_4 C 0.05625(19) 0.9900(4) 0.52951(11)
H9_4 H 0.0375 0.9616 0.5446
C14_4 C 0.06827(19) 0.9332(4) 0.50581(11)
H10_4 H 0.0578 0.8672 0.5046
C17_4 C 0.09614(17) 0.9740(3) 0.48358(9)
C18_4 C 0.10981(16) 0.9162(3) 0.45732(9)
C19_4 C 0.33760(16) 0.8658(3) 0.08142(10)
H13_4 H 0.3357 0.8458 0.0615
C20_4 C 0.29561(16) 0.8828(3) 0.09643(9)
H14_4 H 0.2655 0.8767 0.0869
C21_4 C 0.38327(15) 0.9039(3) 0.12161(9)
H15_4 H 0.4139 0.9124 0.1303
C22_4 C 0.34312(16) 0.9205(3) 0.13843(9)
H16_4 H 0.3461 0.9395 0.1583
C23_4 C 0.29818(15) 0.9090(3) 0.12573(9)
C24_4 C 0.25396(15) 0.9239(3) 0.14322(9)
C26_4 C 0.26838(16) 0.9932(3) 0.23054(9)
H18_4 H 0.2958 0.9697 0.2204
C29_4 C 0.22379(16) 0.9918(3) 0.21732(9)
C30_4 C 0.21901(15) 0.9605(3) 0.18628(9)
C31_4 C 0.04095(19) 0.8960(5) 0.13554(12)
H21_4 H 0.0127 0.8930 0.1471
C32_4 C 0.08452(18) 0.9120(5) 0.14943(11)
H22_4 H 0.0858 0.9212 0.1700
C33_4 C 0.07737(17) 0.8893(4) 0.09060(10)
H23_4 H 0.0753 0.8825 0.0700
C34_4 C 0.12188(16) 0.9038(3) 0.10319(10)
H24_4 H 0.1497 0.9065 0.0912
C35_4 C 0.12594(16) 0.9142(3) 0.13285(9)
C36_4 C 0.17329(15) 0.9266(3) 0.14682(9)
N2_4 N 0.05795(13) 0.4859(3) 0.42009(9)
N4_4 N 0.13230(13) 0.8168(3) 0.40912(8)
N5_4 N 0.09791(14) 0.8219(3) 0.45659(8)
N6_4 N 0.13208(14) 0.9649(3) 0.43601(8)
N9_2 N 0.03702(14) 0.8845(3) 0.10654(9)
N10_4 N 0.25982(13) 0.9478(3) 0.17148(7)
N11_4 N 0.17472(13) 0.9512(3) 0.17517(8)
N12_4 N 0.21192(13) 0.9127(3) 0.12983(8)
Zn1_4 Zn 0.25596(2) 0.85520(4) 0.811058(11)
I1_4 I 0.303478(13) 0.69692(2) 0.804564(8)
I2_4 I 0.166978(13) 0.84706(3) 0.823161(8)
C1_4 C 0.31170(19) 0.8870(3) 0.86430(10)
H1_4 H 0.3111 0.8176 0.8642
C2_4 C 0.33323(19) 0.9352(3) 0.88771(10)
H2_4 H 0.3465 0.8992 0.9035
C16_4 C 0.3910(2) 0.9288(4) 0.98601(10)
H12_4 H 0.3728 0.8982 0.9710
C25_4 C 0.22744(16) 0.9706(3) 0.75873(9)
H17_4 H 0.1968 0.9705 0.7679
C27_4 C 0.30872(17) 0.9395(4) 0.76096(10)
H19_4 H 0.3357 0.9165 0.7716
C28_4 C 0.31547(17) 0.9760(3) 0.73299(10)
H20_4 H 0.3467 0.9787 0.7247
N1_4 N 0.29199(14) 0.9351(3) 0.84206(8)
N8_4 N 0.26522(14) 0.9358(3) 0.77344(8)
I4_3 I 0.989298(12) 0.07902(3) 0.597964(7)
I4_4 I 0.010702(12) 0.57902(3) 0.902036(7)
Zn1_5 Zn 0.74404(2) 0.14480(4) 0.188942(11)
I1_5 I 0.696522(13) 0.30308(2) 0.195436(8)
I2_5 I 0.833022(13) 0.15294(3) 0.176839(8)
C1_5 C 0.68830(19) 0.1130(3) 0.13570(10)
H1_5 H 0.6889 0.1824 0.1358
C2_5 C 0.66677(19) 0.0648(3) 0.11229(10)
H2_5 H 0.6535 0.1008 0.0965
C16_5 C 0.6090(2) 0.0712(4) 0.01399(10)
H12_5 H 0.6272 0.1018 0.0290
C25_5 C 0.77256(16) 0.0294(3) 0.24127(9)
H17_5 H 0.8032 0.0295 0.2321
C27_5 C 0.69128(17) 0.0605(4) 0.23904(10)
H19_5 H 0.6643 0.0835 0.2284
C28_5 C 0.68453(17) 0.0240(3) 0.26701(10)
H20_5 H 0.6533 0.0213 0.2753
N1_5 N 0.70801(14) 0.0649(3) 0.15794(8)
N8_5 N 0.73478(14) 0.0642(3) 0.22656(8)
Zn2_3 Zn 0.557254(19) 0.16089(4) 0.929535(11)
I3_5 I 0.566530(14) 0.34189(3) 0.941398(9)
I4_5 I 0.489298(12) 0.07902(3) 0.902036(7)
C15_5 C 0.5951(2) 0.1237(4) 0.98952(10)
H11_5 H 0.6038 0.1908 0.9882
N3_5 N 0.56985(14) 0.0837(3) 0.96773(8)
N13_3 N 0.61901(13) 0.1239(3) 0.90650(8)
Zn3_3 Zn 0.972230(19) 0.64969(4) 0.587200(13)
I5_5 I 0.989280(14) 0.72598(3) 0.537480(9)
I6_5 I 0.923510(15) 0.73398(3) 0.626910(11)
C3_5 C 0.7946(2) 0.0326(4) 0.65830(11)
H3_5 H 0.7814 0.0669 0.6745
C4_5 C 0.81577(19) 0.0857(3) 0.63601(11)
H4_5 H 0.8171 0.1550 0.6369
C5_5 C 0.83499(16) 0.0357(3) 0.61243(9)
C6_5 C 0.85780(16) 0.0884(3) 0.58762(10)
C7_5 C 0.9178(2) 0.4679(4) 0.60130(11)
H5_5 H 0.9130 0.5008 0.6194
C8_5 C 0.8998(2) 0.3753(4) 0.59807(11)
H6_5 H 0.8829 0.3450 0.6136
C9_5 C 0.94775(17) 0.4674(4) 0.55421(11)
H7_7 H 0.9643 0.5000 0.5389
C10_5 C 0.93060(18) 0.3745(4) 0.54929(11)
H8_5 H 0.9351 0.3436 0.5309
C11_5 C 0.90654(16) 0.3264(3) 0.57176(10)
C12_5 C 0.89062(15) 0.2234(3) 0.56828(10)
C13_5 C 0.94375(19) 0.0100(4) 0.47049(11)
H9_5 H 0.9625 0.0384 0.4554
C14_5 C 0.93173(19) 0.0668(4) 0.49419(11)
H10_5 H 0.9422 0.1328 0.4954
C17_5 C 0.90386(17) 0.0260(3) 0.51642(9)
C18_5 C 0.89019(16) 0.0838(3) 0.54268(9)
C19_5 C 0.66240(16) 0.1342(3) 0.91858(10)
H13_5 H 0.6643 0.1542 0.9385
C20_5 C 0.70439(16) 0.1172(3) 0.90357(9)
H14_5 H 0.7345 0.1233 0.9131
C21_5 C 0.61673(15) 0.0961(3) 0.87839(9)
H15_5 H 0.5861 0.0876 0.8697
C22_5 C 0.65688(16) 0.0795(3) 0.86157(9)
H16_5 H 0.6539 0.0605 0.8417
C23_5 C 0.70182(15) 0.0910(3) 0.87427(9)
C24_5 C 0.74604(15) 0.0761(3) 0.85678(9)
C26_5 C 0.73162(16) 0.0068(3) 0.76946(9)
H18_5 H 0.7042 0.0303 0.7796
C29_5 C 0.77621(16) 0.0082(3) 0.78268(9)
C30_5 C 0.78099(15) 0.0395(3) 0.81372(9)
C31_5 C 0.95905(19) 0.1040(5) 0.86446(12)
H21_5 H 0.9873 0.1070 0.8529
C32_5 C 0.91548(18) 0.0880(5) 0.85057(11)
H22_5 H 0.9142 0.0788 0.8300
C33_5 C 0.92263(17) 0.1107(4) 0.90940(10)
H23_5 H 0.9247 0.1175 0.9300
C34_5 C 0.87812(16) 0.0962(3) 0.89681(10)
H24_5 H 0.8503 0.0935 0.9088
C35_5 C 0.87406(16) 0.0858(3) 0.86715(9)
C36_5 C 0.82671(15) 0.0734(3) 0.85318(9)
N2_5 N 0.94205(13) 0.5141(3) 0.57991(9)
N4_5 N 0.86770(13) 0.1832(3) 0.59088(8)
N5_5 N 0.90209(14) 0.1781(3) 0.54341(8)
N6_5 N 0.86792(14) 0.0351(3) 0.56399(8)
N9_3 N 0.96298(14) 0.1155(3) 0.89346(9)
N10_5 N 0.74018(13) 0.0522(3) 0.82852(7)
N11_5 N 0.82528(13) 0.0488(3) 0.82483(8)
N12_5 N 0.78808(13) 0.0873(3) 0.87017(8)
Zn3_4 Zn 0.527770(19) 0.35031(4) 0.087200(13)
I5_6 I 0.510720(14) 0.27402(3) 0.037480(9)
I6_6 I 0.576490(15) 0.26602(3) 0.126910(11)
C3_6 C 0.7054(2) 0.9674(4) 0.15830(11)
H3_6 H 0.7186 0.9331 0.1745
C4_6 C 0.68423(19) 0.9143(3) 0.13601(11)
H4_6 H 0.6829 0.8450 0.1369
C5_6 C 0.66501(16) 0.9643(3) 0.11243(9)
C6_6 C 0.64220(16) 0.9116(3) 0.08762(10)
C7_6 C 0.5822(2) 0.5321(4) 0.10130(11)
H5_6 H 0.5870 0.4992 0.1194
C8_6 C 0.6002(2) 0.6247(4) 0.09807(11)
H6_6 H 0.6171 0.6550 0.1136
C9_6 C 0.55225(17) 0.5326(4) 0.05421(11)
H7_8 H 0.5357 0.5000 0.0389
C10_6 C 0.56940(18) 0.6255(4) 0.04929(11)
H8_6 H 0.5649 0.6564 0.0309
C11_6 C 0.59346(16) 0.6736(3) 0.07176(10)
C12_6 C 0.60938(15) 0.7766(3) 0.06828(10)
C17_6 C 0.59614(17) 0.9740(3) 0.01642(9)
C18_6 C 0.60981(16) 0.9162(3) 0.04268(9)
C19_6 C 0.83760(16) 0.8658(3) 0.41858(10)
H13_6 H 0.8357 0.8458 0.4385
C20_6 C 0.79561(16) 0.8828(3) 0.40357(9)
H14_6 H 0.7655 0.8767 0.4131
C21_6 C 0.88327(15) 0.9039(3) 0.37839(9)
H15_6 H 0.9139 0.9124 0.3697
C22_6 C 0.84312(16) 0.9205(3) 0.36157(9)
H16_6 H 0.8461 0.9395 0.3417
C23_6 C 0.79818(15) 0.9090(3) 0.37427(9)
C24_6 C 0.75396(15) 0.9239(3) 0.35678(9)
C26_6 C 0.76838(16) 0.9932(3) 0.26946(9)
H18_6 H 0.7958 0.9697 0.2796
C29_6 C 0.72379(16) 0.9918(3) 0.28268(9)
C30_6 C 0.71901(15) 0.9605(3) 0.31372(9)
C31_6 C 0.54095(19) 0.8960(5) 0.36446(12)
H21_6 H 0.5127 0.8930 0.3529
C32_6 C 0.58452(18) 0.9120(5) 0.35057(11)
H22_6 H 0.5858 0.9212 0.3300
C33_6 C 0.57737(17) 0.8893(4) 0.40940(10)
H23_6 H 0.5753 0.8825 0.4300
C34_6 C 0.62188(16) 0.9038(3) 0.39681(10)
H24_6 H 0.6497 0.9065 0.4088
C35_6 C 0.62594(16) 0.9142(3) 0.36715(9)
C36_6 C 0.67329(15) 0.9266(3) 0.35318(9)
N2_6 N 0.55795(13) 0.4859(3) 0.07991(9)
N4_6 N 0.63230(13) 0.8168(3) 0.09088(8)
N5_6 N 0.59791(14) 0.8219(3) 0.04341(8)
N6_6 N 0.63208(14) 0.9649(3) 0.06399(8)
N7_3 N 0.88099(13) 0.8761(3) 0.40650(8)
N9_4 N 0.53702(14) 0.8845(3) 0.39346(9)
N10_6 N 0.75982(13) 0.9478(3) 0.32852(7)
N11_6 N 0.67472(13) 0.9512(3) 0.32483(8)
N12_6 N 0.71192(13) 0.9127(3) 0.37017(8)
Zn4_3 Zn 0.942746(19) 0.83911(4) 0.429535(11)
Zn5_3 Zn 0.472230(19) 0.85031(4) 0.412800(13)
N14_3 N 0.46298(14) 0.3845(3) 0.10654(9)
Zn5_4 Zn 0.027770(19) 0.14969(4) 0.912800(13)
N14_4 N 0.03702(14) 0.6155(3) 0.60654(9)
Zn1_6 Zn 0.75596(2) 0.85520(4) 0.688942(11)
I1_6 I 0.803478(13) 0.69692(2) 0.695436(8)
I2_6 I 0.666978(13) 0.84706(3) 0.676839(8)
I3_6 I 0.933470(14) 0.65811(3) 0.441398(9)
C1_6 C 0.81170(19) 0.8870(3) 0.63570(10)
H1_6 H 0.8111 0.8176 0.6358
C2_6 C 0.83323(19) 0.9352(3) 0.61229(10)
H2_6 H 0.8465 0.8992 0.5965
C15_6 C 0.9049(2) 0.8763(4) 0.48952(10)
H11_6 H 0.8962 0.8092 0.4882
C16_6 C 0.8910(2) 0.9288(4) 0.51399(10)
H12_6 H 0.8728 0.8982 0.5290
C25_6 C 0.72744(16) 0.9706(3) 0.74127(9)
H17_6 H 0.6968 0.9705 0.7321
C27_6 C 0.80872(17) 0.9395(4) 0.73904(10)
H19_6 H 0.8357 0.9165 0.7284
C28_6 C 0.81547(17) 0.9760(3) 0.76701(10)
H20_6 H 0.8467 0.9787 0.7753
N1_6 N 0.79199(14) 0.9351(3) 0.65794(8)
N3_6 N 0.93015(14) 0.9163(3) 0.46773(8)
N8_6 N 0.76522(14) 0.9358(3) 0.72656(8)
Zn1_7 Zn 0.25596(2) 0.64480(4) 0.311058(11)
Zn2_4 Zn 0.442746(19) 0.66089(4) 0.570465(11)
I1_7 I 0.303478(13) 0.80308(2) 0.304564(8)
I2_7 I 0.166978(13) 0.65294(3) 0.323161(8)
I3_7 I 0.433470(14) 0.84189(3) 0.558602(9)
I4_6 I 0.510702(12) 0.57902(3) 0.597964(7)
C1_7 C 0.31170(19) 0.6130(3) 0.36430(10)
H1_7 H 0.3111 0.6824 0.3642
C2_7 C 0.33323(19) 0.5648(3) 0.38771(10)
H2_7 H 0.3465 0.6008 0.4035
C3_7 C 0.2946(2) 0.4674(4) 0.34170(11)
H3_7 H 0.2814 0.4331 0.3255
C4_7 C 0.31577(19) 0.4143(3) 0.36399(11)
H4_7 H 0.3171 0.3450 0.3631
C5_7 C 0.33499(16) 0.4643(3) 0.38757(9)
C6_7 C 0.35780(16) 0.4116(3) 0.41238(10)
C7_7 C 0.4178(2) 0.0321(4) 0.39870(11)
C8_7 C 0.3998(2) 0.1247(4) 0.40193(11)
H6_7 H 0.3829 0.1550 0.3864
C9_7 C 0.44775(17) 0.0326(4) 0.44579(11)
H7_9 H 0.4643 0.0000 0.4611
C10_7 C 0.43060(18) 0.1255(4) 0.45071(11)
H8_7 H 0.4351 0.1564 0.4691
C11_7 C 0.40654(16) 0.1736(3) 0.42824(10)
C12_7 C 0.39062(15) 0.2766(3) 0.43172(10)
C13_6 C 0.44375(19) 0.4900(4) 0.52951(11)
H9_6 H 0.4625 0.4616 0.5446
C14_6 C 0.43173(19) 0.4332(4) 0.50581(11)
H10_6 H 0.4422 0.3672 0.5046
C15_7 C 0.4049(2) 0.6237(4) 0.51048(10)
H11_7 H 0.3962 0.6908 0.5118
C16_7 C 0.3910(2) 0.5712(4) 0.48601(10)
H12_7 H 0.3728 0.6018 0.4710
C17_7 C 0.40386(17) 0.4740(3) 0.48358(9)
C18_7 C 0.39019(16) 0.4162(3) 0.45732(9)
C19_7 C 0.16240(16) 0.3658(3) 0.08142(10)
H13_7 H 0.1643 0.3458 0.0615
C20_7 C 0.20439(16) 0.3828(3) 0.09643(9)
H14_7 H 0.2345 0.3767 0.0869
C21_7 C 0.11673(15) 0.4039(3) 0.12161(9)
H15_7 H 0.0861 0.4124 0.1303
C22_7 C 0.15688(16) 0.4205(3) 0.13843(9)
H16_7 H 0.1539 0.4395 0.1583
C23_7 C 0.20182(15) 0.4090(3) 0.12573(9)
C24_7 C 0.24604(15) 0.4239(3) 0.14322(9)
C25_7 C 0.22744(16) 0.5294(3) 0.25873(9)
H17_7 H 0.1968 0.5295 0.2679
C26_7 C 0.23162(16) 0.4932(3) 0.23054(9)
H18_7 H 0.2042 0.4697 0.2204
C27_7 C 0.30872(17) 0.5605(4) 0.26096(10)
H19_7 H 0.3357 0.5835 0.2716
C28_7 C 0.31547(17) 0.5240(3) 0.23299(10)
H20_7 H 0.3467 0.5213 0.2247
C29_7 C 0.27621(16) 0.4918(3) 0.21732(9)
C30_7 C 0.28099(15) 0.4605(3) 0.18628(9)
C31_7 C 0.45905(19) 0.3960(5) 0.13554(12)
H21_7 H 0.4873 0.3930 0.1471
C32_7 C 0.41548(18) 0.4120(5) 0.14943(11)
H22_7 H 0.4142 0.4212 0.1700
C33_7 C 0.42263(17) 0.3893(4) 0.09060(10)
H23_7 H 0.4247 0.3825 0.0700
C34_7 C 0.37812(16) 0.4038(3) 0.10319(10)
H24_7 H 0.3503 0.4065 0.0912
C35_7 C 0.37406(16) 0.4142(3) 0.13285(9)
C36_7 C 0.32671(15) 0.4266(3) 0.14682(9)
N1_7 N 0.29199(14) 0.5649(3) 0.34206(8)
N3_7 N 0.43015(14) 0.5837(3) 0.53227(8)
N4_7 N 0.36770(13) 0.3168(3) 0.40912(8)
N5_7 N 0.40209(14) 0.3219(3) 0.45659(8)
N6_7 N 0.36792(14) 0.4649(3) 0.43601(8)
N7_4 N 0.11901(13) 0.3761(3) 0.09350(8)
N8_7 N 0.26522(14) 0.5642(3) 0.27344(8)
N10_7 N 0.24018(13) 0.4478(3) 0.17148(7)
N11_7 N 0.32528(13) 0.4512(3) 0.17517(8)
N12_7 N 0.28808(13) 0.4127(3) 0.12983(8)
Zn4_4 Zn 0.057254(19) 0.33911(4) 0.070465(11)
N13_4 N 0.38099(13) 0.6239(3) 0.59350(8)
I5_7 I 0.489280(14) 0.77402(3) 0.462520(9)
I6_7 I 0.423510(15) 0.76602(3) 0.373090(11)
H5_7 H 0.4130 0.9992 0.3806
H7_10 H 0.4643 1.0000 0.4611
N2_7 N 0.44205(13) 0.9859(3) 0.42009(9)
I5_8 I 0.010720(14) 0.22598(3) 0.962520(9)
I6_8 I 0.076490(15) 0.23398(3) 0.873090(11)
H5_8 H 0.0870 0.0008 0.8806
H7_11 H 0.0357 0.0000 0.9611
N2_8 N 0.05795(13) 0.0141(3) 0.92009(9)
I3_8 I 0.066530(14) 0.15811(3) 0.058602(9)
C13_7 C 0.05625(19) 0.5100(4) 0.02951(11)
H9_7 H 0.0375 0.5384 0.0446
C14_7 C 0.06827(19) 0.5668(4) 0.00581(11)
H10_7 H 0.0578 0.6328 0.0046
C15_8 C 0.0951(2) 0.3763(4) 0.01048(10)
H11_8 H 0.1038 0.3092 0.0118
N3_8 N 0.06985(14) 0.4163(3) 0.03227(8)
Zn1_8 Zn 0.24404(2) 0.35520(4) 0.811058(11)
I1_8 I 0.196522(13) 0.19692(2) 0.804564(8)
I2_8 I 0.333022(13) 0.34706(3) 0.823161(8)
C1_8 C 0.18830(19) 0.3870(3) 0.86430(10)
H1_8 H 0.1889 0.3176 0.8642
C2_8 C 0.16677(19) 0.4352(3) 0.88771(10)
H2_8 H 0.1535 0.3992 0.9035
C3_8 C 0.2054(2) 0.5326(4) 0.84170(11)
H3_8 H 0.2186 0.5669 0.8255
C4_8 C 0.18423(19) 0.5857(3) 0.86399(11)
H4_8 H 0.1829 0.6550 0.8631
C5_8 C 0.16501(16) 0.5357(3) 0.88757(9)
C6_8 C 0.14220(16) 0.5884(3) 0.91238(10)
C7_8 C 0.0822(2) 0.9679(4) 0.89870(11)
C8_8 C 0.1002(2) 0.8753(4) 0.90193(11)
H6_8 H 0.1171 0.8450 0.8864
C9_8 C 0.05225(17) 0.9674(4) 0.94579(11)
H7_12 H 0.0357 1.0000 0.9611
C10_8 C 0.06940(18) 0.8745(4) 0.95071(11)
H8_8 H 0.0649 0.8436 0.9691
C11_8 C 0.09346(16) 0.8264(3) 0.92824(10)
C12_8 C 0.10938(15) 0.7234(3) 0.93172(10)
C16_8 C 0.1090(2) 0.4288(4) 0.98601(10)
H12_8 H 0.1272 0.3982 0.9710
C17_8 C 0.09614(17) 0.5260(3) 0.98358(9)
C18_8 C 0.10981(16) 0.5838(3) 0.95732(9)
C19_8 C 0.33760(16) 0.6342(3) 0.58142(10)
H13_8 H 0.3357 0.6542 0.5615
C20_8 C 0.29561(16) 0.6172(3) 0.59643(9)
H14_8 H 0.2655 0.6233 0.5869
C21_8 C 0.38327(15) 0.5961(3) 0.62161(9)
H15_8 H 0.4139 0.5876 0.6303
C22_8 C 0.34312(16) 0.5795(3) 0.63843(9)
H16_8 H 0.3461 0.5605 0.6583
C23_8 C 0.29818(15) 0.5910(3) 0.62573(9)
C24_8 C 0.25396(15) 0.5761(3) 0.64322(9)
C25_8 C 0.27256(16) 0.4706(3) 0.75873(9)
H17_8 H 0.3032 0.4705 0.7679
C26_8 C 0.26838(16) 0.5068(3) 0.73054(9)
H18_8 H 0.2958 0.5303 0.7204
C27_8 C 0.19128(17) 0.4395(4) 0.76096(10)
H19_8 H 0.1643 0.4165 0.7716
C28_8 C 0.18453(17) 0.4760(3) 0.73299(10)
H20_8 H 0.1533 0.4787 0.7247
C29_8 C 0.22379(16) 0.5082(3) 0.71732(9)
C30_8 C 0.21901(15) 0.5395(3) 0.68628(9)
C31_8 C 0.04095(19) 0.6040(5) 0.63554(12)
H21_8 H 0.0127 0.6070 0.6471
C32_8 C 0.08452(18) 0.5880(5) 0.64943(11)
H22_8 H 0.0858 0.5788 0.6700
C33_8 C 0.07737(17) 0.6107(4) 0.59060(10)
H23_8 H 0.0753 0.6175 0.5700
C34_8 C 0.12188(16) 0.5962(3) 0.60319(10)
H24_8 H 0.1497 0.5935 0.5912
C35_8 C 0.12594(16) 0.5858(3) 0.63285(9)
C36_8 C 0.17329(15) 0.5734(3) 0.64682(9)
N1_8 N 0.20801(14) 0.4351(3) 0.84206(8)
N4_8 N 0.13230(13) 0.6832(3) 0.90912(8)
N5_8 N 0.09791(14) 0.6781(3) 0.95659(8)
N6_8 N 0.13208(14) 0.5351(3) 0.93601(8)
N8_8 N 0.23478(14) 0.4358(3) 0.77344(8)
N10_8 N 0.25982(13) 0.5522(3) 0.67148(7)
N11_8 N 0.17472(13) 0.5488(3) 0.67517(8)
N12_8 N 0.21192(13) 0.5873(3) 0.62983(8)
C13_8 C 0.55625(19) 0.9900(4) 0.97049(11)
H9_8 H 0.5375 0.9616 0.9554
C14_8 C 0.56827(19) 0.9332(4) 0.99419(11)
H10_8 H 0.5578 0.8672 0.9954
I4_7 I 0.010702(12) 0.92098(3) 0.402036(7)
I4_8 I 0.989298(12) 0.42098(3) 0.097964(7)
loop_
_geom_bond_atom_site_label_1
_geom_bond_atom_site_label_2
_geom_bond_site_symmetry_1
_geom_bond_site_symmetry_2
C13 H9 1_555 1_555
C14 C13 1_555 1_555
H10 C14 1_555 1_555
Zn3 I5 1_555 1_555
I6 Zn3 1_555 1_555
C3 H3 1_555 1_555
C4 C3 1_555 1_555
H4 C4 1_555 1_555
C6 C5 1_555 1_555
C7 H5 1_555 1_555
C8 C7 1_555 1_555
H6 C8 1_555 1_555
C9 H7 1_555 1_555
C10 C9 1_555 1_555
H8 C10 1_555 1_555
C11 C8 1_555 1_555
C12 C11 1_555 1_555
C18 C17 1_555 1_555
C19 H13 1_555 1_555
C20 C19 1_555 1_555
H14 C20 1_555 1_555
C21 H15 1_555 1_555
C22 C21 1_555 1_555
H16 C22 1_555 1_555
C23 C20 1_555 1_555
C24 C23 1_555 1_555
H18 C26 1_555 1_555
C29 C26 1_555 1_555
C30 C29 1_555 1_555
C31 H21 1_555 1_555
C32 C31 1_555 1_555
H22 C32 1_555 1_555
C33 H23 1_555 1_555
C34 C33 1_555 1_555
H24 C34 1_555 1_555
C35 C32 1_555 1_555
C36 C35 1_555 1_555
N2 Zn3 1_555 1_555
N4 C6 1_555 1_555
N5 C12 1_555 1_555
N6 C6 1_555 1_555
N7 C19 1_555 1_555
N9 C31 1_555 1_555
N10 C24 1_555 1_555
N11 C30 1_555 1_555
N12 C24 1_555 1_555
Zn4 N7 1_555 1_555
Zn5 N9 1_555 1_555
N14 Zn3 1_555 1_555
C4 C5 1_555 1_555
C7 N2 1_555 1_555
C9 N2 1_555 1_555
C10 C11 1_555 1_555
C12 N4 1_555 1_555
C18 N5 1_555 1_555
C18 N6 1_555 1_555
C21 N7 1_555 1_555
C22 C23 1_555 1_555
C30 N10 1_555 1_555
C33 N9 1_555 1_555
C34 C35 1_555 1_555
C36 N11 1_555 1_555
C36 N12 1_555 1_555
Zn1 I1 1_555 1_555
Zn4 I3 1_555 1_555
I2 Zn1 1_555 1_555
C1 H1 1_555 1_555
C2 C1 1_555 1_555
H2 C2 1_555 1_555
C15 H11 1_555 1_555
C16 C15 1_555 1_555
H12 C16 1_555 1_555
C25 H17 1_555 1_555
C27 H19 1_555 1_555
C28 C27 1_555 1_555
H20 C28 1_555 1_555
N1 Zn1 1_555 1_555
N3 Zn4 1_555 1_555
N8 Zn1 1_555 1_555
C1 N1 1_555 1_555
C15 N3 1_555 1_555
C25 N8 1_555 1_555
C27 N8 1_555 1_555
Zn5 I5_2 1_555 1_555
I6_2 Zn5 1_555 1_555
N2_2 Zn5 1_555 1_555
Zn1_2 I1_2 1_555 1_555
Zn2 I3_2 1_555 1_555
I2_2 Zn1_2 1_555 1_555
I4 Zn2 1_555 1_555
C1_2 H1_2 1_555 1_555
C2_2 C1_2 1_555 1_555
H2_2 C2_2 1_555 1_555
C3_2 H3_2 1_555 1_555
C4_2 C3_2 1_555 1_555
H4_2 C4_2 1_555 1_555
C5_2 C2_2 1_555 1_555
C6_2 C5_2 1_555 1_555
C8_2 C7_2 1_555 1_555
H6_2 C8_2 1_555 1_555
C9_2 H7_3 1_555 1_555
C10_2 C9_2 1_555 1_555
H8_2 C10_2 1_555 1_555
C11_2 C8_2 1_555 1_555
C12_2 C11_2 1_555 1_555
C13_2 H9_2 1_555 1_555
C14_2 C13_2 1_555 1_555
H10_2 C14_2 1_555 1_555
C15_2 H11_2 1_555 1_555
C16_2 C15_2 1_555 1_555
H12_2 C16_2 1_555 1_555
C17_2 C14_2 1_555 1_555
C18_2 C17_2 1_555 1_555
C19_2 H13_2 1_555 1_555
C20_2 C19_2 1_555 1_555
H14_2 C20_2 1_555 1_555
C21_2 H15_2 1_555 1_555
C22_2 C21_2 1_555 1_555
H16_2 C22_2 1_555 1_555
C23_2 C20_2 1_555 1_555
C24_2 C23_2 1_555 1_555
C25_2 H17_2 1_555 1_555
C26_2 C25_2 1_555 1_555
H18_2 C26_2 1_555 1_555
C27_2 H19_2 1_555 1_555
C28_2 C27_2 1_555 1_555
H20_2 C28_2 1_555 1_555
C29_2 C26_2 1_555 1_555
C30_2 C29_2 1_555 1_555
C31_2 H21_2 1_555 1_555
C32_2 C31_2 1_555 1_555
H22_2 C32_2 1_555 1_555
C33_2 H23_2 1_555 1_555
C34_2 C33_2 1_555 1_555
H24_2 C34_2 1_555 1_555
C35_2 C32_2 1_555 1_555
C36_2 C35_2 1_555 1_555
N1_2 Zn1_2 1_555 1_555
N3_2 Zn2 1_555 1_555
N4_2 C6_2 1_555 1_555
N5_2 C12_2 1_555 1_555
N6_2 C6_2 1_555 1_555
N7_2 C19_2 1_555 1_555
N8_2 Zn1_2 1_555 1_555
N14 C31_2 1_555 1_555
N10_2 C24_2 1_555 1_555
N11_2 C30_2 1_555 1_555
N12_2 C24_2 1_555 1_555
Zn4_2 N7_2 1_555 1_555
N13 Zn2 1_555 1_555
C1_2 N1_2 1_555 1_555
C3_2 N1_2 1_555 1_555
C4_2 C5_2 1_555 1_555
C10_2 C11_2 1_555 1_555
C12_2 N4_2 1_555 1_555
C13_2 N3_2 1_555 1_555
C15_2 N3_2 1_555 1_555
C16_2 C17_2 1_555 1_555
C18_2 N5_2 1_555 1_555
C18_2 N6_2 1_555 1_555
C21_2 N7_2 1_555 1_555
C22_2 C23_2 1_555 1_555
C25_2 N8_2 1_555 1_555
C27_2 N8_2 1_555 1_555
C28_2 C29_2 1_555 1_555
C30_2 N10_2 1_555 1_555
C33_2 N14 1_555 1_555
C34_2 C35_2 1_555 1_555
C36_2 N11_2 1_555 1_555
C36_2 N12_2 1_555 1_555
Zn1_3 I1_3 1_555 1_555
I2_3 Zn1_3 1_555 1_555
C1_3 H1_3 1_555 1_555
C2_3 C1_3 1_555 1_555
H2_3 C2_3 1_555 1_555
C3_3 H3_3 1_555 1_555
C4_3 C3_3 1_555 1_555
H4_3 C4_3 1_555 1_555
C5_3 C2_3 1_555 1_555
C6_3 C5_3 1_555 1_555
C8_3 C7_3 1_555 1_555
H6_3 C8_3 1_555 1_555
C9_3 H7_4 1_555 1_555
C10_3 C9_3 1_555 1_555
H8_3 C10_3 1_555 1_555
C11_3 C8_3 1_555 1_555
C12_3 C11_3 1_555 1_555
H12_3 C16_3 1_555 1_555
C18_3 C17_3 1_555 1_555
C19_3 H13_3 1_555 1_555
C20_3 C19_3 1_555 1_555
H14_3 C20_3 1_555 1_555
C21_3 H15_3 1_555 1_555
C22_3 C21_3 1_555 1_555
H16_3 C22_3 1_555 1_555
C23_3 C20_3 1_555 1_555
C24_3 C23_3 1_555 1_555
C25_3 H17_3 1_555 1_555
C26_3 C25_3 1_555 1_555
H18_3 C26_3 1_555 1_555
C27_3 H19_3 1_555 1_555
C28_3 C27_3 1_555 1_555
H20_3 C28_3 1_555 1_555
C29_3 C26_3 1_555 1_555
C30_3 C29_3 1_555 1_555
C31_3 H21_3 1_555 1_555
C32_3 C31_3 1_555 1_555
H22_3 C32_3 1_555 1_555
C33_3 H23_3 1_555 1_555
C34_3 C33_3 1_555 1_555
H24_3 C34_3 1_555 1_555
C35_3 C32_3 1_555 1_555
C36_3 C35_3 1_555 1_555
N1_3 Zn1_3 1_555 1_555
N4_3 C6_3 1_555 1_555
N5_3 C12_3 1_555 1_555
N6_3 C6_3 1_555 1_555
N13 C19_3 1_555 1_555
N8_3 Zn1_3 1_555 1_555
N14_2 C31_3 1_555 1_555
N10_3 C24_3 1_555 1_555
N11_3 C30_3 1_555 1_555
N12_3 C24_3 1_555 1_555
C1_3 N1_3 1_555 1_555
C3_3 N1_3 1_555 1_555
C4_3 C5_3 1_555 1_555
C10_3 C11_3 1_555 1_555
C12_3 N4_3 1_555 1_555
C16_3 C17_3 1_555 1_555
C18_3 N5_3 1_555 1_555
C18_3 N6_3 1_555 1_555
C21_3 N13 1_555 1_555
C22_3 C23_3 1_555 1_555
C25_3 N8_3 1_555 1_555
C27_3 N8_3 1_555 1_555
C28_3 C29_3 1_555 1_555
C30_3 N10_3 1_555 1_555
C33_3 N14_2 1_555 1_555
C34_3 C35_3 1_555 1_555
C36_3 N11_3 1_555 1_555
C36_3 N12_3 1_555 1_555
Zn4_2 I3_3 1_555 1_555
C13_3 H9_3 1_555 1_555
C14_3 C13_3 1_555 1_555
H10_3 C14_3 1_555 1_555
C15_3 H11_3 1_555 1_555
N3_3 Zn4_2 1_555 1_555
C13_3 N3_3 1_555 1_555
C15_3 N3_3 1_555 1_555
Zn5_2 I5_3 1_555 1_555
I6_3 Zn5_2 1_555 1_555
N2_3 Zn5_2 1_555 1_555
Zn2_2 I3_4 1_555 1_555
I4_2 Zn2_2 1_555 1_555
C15_4 H11_4 1_555 1_555
N3_4 Zn2_2 1_555 1_555
N13_2 Zn2_2 1_555 1_555
C15_4 N3_4 1_555 1_555
Zn3_2 I5_4 1_555 1_555
I6_4 Zn3_2 1_555 1_555
C3_4 H3_4 1_555 1_555
C4_4 C3_4 1_555 1_555
H4_4 C4_4 1_555 1_555
C6_4 C5_4 1_555 1_555
C7_4 H5_4 1_555 1_555
C8_4 C7_4 1_555 1_555
H6_4 C8_4 1_555 1_555
C9_4 H7_6 1_555 1_555
C10_4 C9_4 1_555 1_555
H8_4 C10_4 1_555 1_555
C11_4 C8_4 1_555 1_555
C12_4 C11_4 1_555 1_555
C13_4 H9_4 1_555 1_555
C14_4 C13_4 1_555 1_555
H10_4 C14_4 1_555 1_555
C17_4 C14_4 1_555 1_555
C18_4 C17_4 1_555 1_555
C19_4 H13_4 1_555 1_555
C20_4 C19_4 1_555 1_555
H14_4 C20_4 1_555 1_555
C21_4 H15_4 1_555 1_555
C22_4 C21_4 1_555 1_555
H16_4 C22_4 1_555 1_555
C23_4 C20_4 1_555 1_555
C24_4 C23_4 1_555 1_555
H18_4 C26_4 1_555 1_555
C29_4 C26_4 1_555 1_555
C30_4 C29_4 1_555 1_555
C31_4 H21_4 1_555 1_555
C32_4 C31_4 1_555 1_555
H22_4 C32_4 1_555 1_555
C33_4 H23_4 1_555 1_555
C34_4 C33_4 1_555 1_555
H24_4 C34_4 1_555 1_555
C35_4 C32_4 1_555 1_555
C36_4 C35_4 1_555 1_555
N2_4 Zn3_2 1_555 1_555
N4_4 C6_4 1_555 1_555
N5_4 C12_4 1_555 1_555
N6_4 C6_4 1_555 1_555
N13_2 C19_4 1_555 1_555
N9_2 C31_4 1_555 1_555
N10_4 C24_4 1_555 1_555
N11_4 C30_4 1_555 1_555
N12_4 C24_4 1_555 1_555
C4_4 C5_4 1_555 1_555
C7_4 N2_4 1_555 1_555
C9_4 N2_4 1_555 1_555
C10_4 C11_4 1_555 1_555
C12_4 N4_4 1_555 1_555
C18_4 N5_4 1_555 1_555
C18_4 N6_4 1_555 1_555
C21_4 N13_2 1_555 1_555
C22_4 C23_4 1_555 1_555
C30_4 N10_4 1_555 1_555
C33_4 N9_2 1_555 1_555
C34_4 C35_4 1_555 1_555
C36_4 N11_4 1_555 1_555
C36_4 N12_4 1_555 1_555
Zn1_4 I1_4 1_555 1_555
I2_4 Zn1_4 1_555 1_555
C1_4 H1_4 1_555 1_555
C2_4 C1_4 1_555 1_555
H2_4 C2_4 1_555 1_555
H12_4 C16_4 1_555 1_555
C25_4 H17_4 1_555 1_555
C27_4 H19_4 1_555 1_555
C28_4 C27_4 1_555 1_555
H20_4 C28_4 1_555 1_555
N1_4 Zn1_4 1_555 1_555
N8_4 Zn1_4 1_555 1_555
C1_4 N1_4 1_555 1_555
C25_4 N8_4 1_555 1_555
C27_4 N8_4 1_555 1_555
Zn1_5 I1_5 1_555 1_555
I2_5 Zn1_5 1_555 1_555
C1_5 H1_5 1_555 1_555
C2_5 C1_5 1_555 1_555
H2_5 C2_5 1_555 1_555
H12_5 C16_5 1_555 1_555
C25_5 H17_5 1_555 1_555
C27_5 H19_5 1_555 1_555
C28_5 C27_5 1_555 1_555
H20_5 C28_5 1_555 1_555
N1_5 Zn1_5 1_555 1_555
N8_5 Zn1_5 1_555 1_555
C1_5 N1_5 1_555 1_555
C25_5 N8_5 1_555 1_555
C27_5 N8_5 1_555 1_555
Zn2_3 I3_5 1_555 1_555
I4_5 Zn2_3 1_555 1_555
C15_5 H11_5 1_555 1_555
N3_5 Zn2_3 1_555 1_555
N13_3 Zn2_3 1_555 1_555
C15_5 N3_5 1_555 1_555
Zn3_3 I5_5 1_555 1_555
I6_5 Zn3_3 1_555 1_555
C3_5 H3_5 1_555 1_555
C4_5 C3_5 1_555 1_555
H4_5 C4_5 1_555 1_555
C6_5 C5_5 1_555 1_555
C7_5 H5_5 1_555 1_555
C8_5 C7_5 1_555 1_555
H6_5 C8_5 1_555 1_555
C9_5 H7_7 1_555 1_555
C10_5 C9_5 1_555 1_555
H8_5 C10_5 1_555 1_555
C11_5 C8_5 1_555 1_555
C12_5 C11_5 1_555 1_555
C13_5 H9_5 1_555 1_555
C14_5 C13_5 1_555 1_555
H10_5 C14_5 1_555 1_555
C17_5 C14_5 1_555 1_555
C18_5 C17_5 1_555 1_555
C19_5 H13_5 1_555 1_555
C20_5 C19_5 1_555 1_555
H14_5 C20_5 1_555 1_555
C21_5 H15_5 1_555 1_555
C22_5 C21_5 1_555 1_555
H16_5 C22_5 1_555 1_555
C23_5 C20_5 1_555 1_555
C24_5 C23_5 1_555 1_555
H18_5 C26_5 1_555 1_555
C29_5 C26_5 1_555 1_555
C30_5 C29_5 1_555 1_555
C31_5 H21_5 1_555 1_555
C32_5 C31_5 1_555 1_555
H22_5 C32_5 1_555 1_555
C33_5 H23_5 1_555 1_555
C34_5 C33_5 1_555 1_555
H24_5 C34_5 1_555 1_555
C35_5 C32_5 1_555 1_555
C36_5 C35_5 1_555 1_555
N2_5 Zn3_3 1_555 1_555
N4_5 C6_5 1_555 1_555
N5_5 C12_5 1_555 1_555
N6_5 C6_5 1_555 1_555
N13_3 C19_5 1_555 1_555
N9_3 C31_5 1_555 1_555
N10_5 C24_5 1_555 1_555
N11_5 C30_5 1_555 1_555
N12_5 C24_5 1_555 1_555
C4_5 C5_5 1_555 1_555
C7_5 N2_5 1_555 1_555
C9_5 N2_5 1_555 1_555
C10_5 C11_5 1_555 1_555
C12_5 N4_5 1_555 1_555
C18_5 N5_5 1_555 1_555
C18_5 N6_5 1_555 1_555
C21_5 N13_3 1_555 1_555
C22_5 C23_5 1_555 1_555
C30_5 N10_5 1_555 1_555
C33_5 N9_3 1_555 1_555
C34_5 C35_5 1_555 1_555
C36_5 N11_5 1_555 1_555
C36_5 N12_5 1_555 1_555
Zn3_4 I5_6 1_555 1_555
I6_6 Zn3_4 1_555 1_555
C3_6 H3_6 1_555 1_555
C4_6 C3_6 1_555 1_555
H4_6 C4_6 1_555 1_555
C6_6 C5_6 1_555 1_555
C7_6 H5_6 1_555 1_555
C8_6 C7_6 1_555 1_555
H6_6 C8_6 1_555 1_555
C9_6 H7_8 1_555 1_555
C10_6 C9_6 1_555 1_555
H8_6 C10_6 1_555 1_555
C11_6 C8_6 1_555 1_555
C12_6 C11_6 1_555 1_555
C18_6 C17_6 1_555 1_555
C19_6 H13_6 1_555 1_555
C20_6 C19_6 1_555 1_555
H14_6 C20_6 1_555 1_555
C21_6 H15_6 1_555 1_555
C22_6 C21_6 1_555 1_555
H16_6 C22_6 1_555 1_555
C23_6 C20_6 1_555 1_555
C24_6 C23_6 1_555 1_555
H18_6 C26_6 1_555 1_555
C29_6 C26_6 1_555 1_555
C30_6 C29_6 1_555 1_555
C31_6 H21_6 1_555 1_555
C32_6 C31_6 1_555 1_555
H22_6 C32_6 1_555 1_555
C33_6 H23_6 1_555 1_555
C34_6 C33_6 1_555 1_555
H24_6 C34_6 1_555 1_555
C35_6 C32_6 1_555 1_555
C36_6 C35_6 1_555 1_555
N2_6 Zn3_4 1_555 1_555
N4_6 C6_6 1_555 1_555
N5_6 C12_6 1_555 1_555
N6_6 C6_6 1_555 1_555
N7_3 C19_6 1_555 1_555
N9_4 C31_6 1_555 1_555
N10_6 C24_6 1_555 1_555
N11_6 C30_6 1_555 1_555
N12_6 C24_6 1_555 1_555
Zn4_3 N7_3 1_555 1_555
Zn5_3 N9_4 1_555 1_555
N14_3 Zn3_4 1_555 1_555
C4_6 C5_6 1_555 1_555
C7_6 N2_6 1_555 1_555
C9_6 N2_6 1_555 1_555
C10_6 C11_6 1_555 1_555
C12_6 N4_6 1_555 1_555
C18_6 N5_6 1_555 1_555
C18_6 N6_6 1_555 1_555
C21_6 N7_3 1_555 1_555
C22_6 C23_6 1_555 1_555
C30_6 N10_6 1_555 1_555
C33_6 N9_4 1_555 1_555
C34_6 C35_6 1_555 1_555
C36_6 N11_6 1_555 1_555
C36_6 N12_6 1_555 1_555
Zn1_6 I1_6 1_555 1_555
Zn4_3 I3_6 1_555 1_555
I2_6 Zn1_6 1_555 1_555
C1_6 H1_6 1_555 1_555
C2_6 C1_6 1_555 1_555
H2_6 C2_6 1_555 1_555
C15_6 H11_6 1_555 1_555
C16_6 C15_6 1_555 1_555
H12_6 C16_6 1_555 1_555
C25_6 H17_6 1_555 1_555
C27_6 H19_6 1_555 1_555
C28_6 C27_6 1_555 1_555
H20_6 C28_6 1_555 1_555
N1_6 Zn1_6 1_555 1_555
N3_6 Zn4_3 1_555 1_555
N8_6 Zn1_6 1_555 1_555
C1_6 N1_6 1_555 1_555
C15_6 N3_6 1_555 1_555
C25_6 N8_6 1_555 1_555
C27_6 N8_6 1_555 1_555
Zn1_7 I1_7 1_555 1_555
Zn2_4 I3_7 1_555 1_555
I2_7 Zn1_7 1_555 1_555
I4_6 Zn2_4 1_555 1_555
C1_7 H1_7 1_555 1_555
C2_7 C1_7 1_555 1_555
H2_7 C2_7 1_555 1_555
C3_7 H3_7 1_555 1_555
C4_7 C3_7 1_555 1_555
H4_7 C4_7 1_555 1_555
C5_7 C2_7 1_555 1_555
C6_7 C5_7 1_555 1_555
C8_7 C7_7 1_555 1_555
H6_7 C8_7 1_555 1_555
C9_7 H7_9 1_555 1_555
C10_7 C9_7 1_555 1_555
H8_7 C10_7 1_555 1_555
C11_7 C8_7 1_555 1_555
C12_7 C11_7 1_555 1_555
C13_6 H9_6 1_555 1_555
C14_6 C13_6 1_555 1_555
H10_6 C14_6 1_555 1_555
C15_7 H11_7 1_555 1_555
C16_7 C15_7 1_555 1_555
H12_7 C16_7 1_555 1_555
C17_7 C14_6 1_555 1_555
C18_7 C17_7 1_555 1_555
C19_7 H13_7 1_555 1_555
C20_7 C19_7 1_555 1_555
H14_7 C20_7 1_555 1_555
C21_7 H15_7 1_555 1_555
C22_7 C21_7 1_555 1_555
H16_7 C22_7 1_555 1_555
C23_7 C20_7 1_555 1_555
C24_7 C23_7 1_555 1_555
C25_7 H17_7 1_555 1_555
C26_7 C25_7 1_555 1_555
H18_7 C26_7 1_555 1_555
C27_7 H19_7 1_555 1_555
C28_7 C27_7 1_555 1_555
H20_7 C28_7 1_555 1_555
C29_7 C26_7 1_555 1_555
C30_7 C29_7 1_555 1_555
C31_7 H21_7 1_555 1_555
C32_7 C31_7 1_555 1_555
H22_7 C32_7 1_555 1_555
C33_7 H23_7 1_555 1_555
C34_7 C33_7 1_555 1_555
H24_7 C34_7 1_555 1_555
C35_7 C32_7 1_555 1_555
C36_7 C35_7 1_555 1_555
N1_7 Zn1_7 1_555 1_555
N3_7 Zn2_4 1_555 1_555
N4_7 C6_7 1_555 1_555
N5_7 C12_7 1_555 1_555
N6_7 C6_7 1_555 1_555
N7_4 C19_7 1_555 1_555
N8_7 Zn1_7 1_555 1_555
N14_3 C31_7 1_555 1_555
N10_7 C24_7 1_555 1_555
N11_7 C30_7 1_555 1_555
N12_7 C24_7 1_555 1_555
Zn4_4 N7_4 1_555 1_555
N13_4 Zn2_4 1_555 1_555
C1_7 N1_7 1_555 1_555
C3_7 N1_7 1_555 1_555
C4_7 C5_7 1_555 1_555
C10_7 C11_7 1_555 1_555
C12_7 N4_7 1_555 1_555
C13_6 N3_7 1_555 1_555
C15_7 N3_7 1_555 1_555
C16_7 C17_7 1_555 1_555
C18_7 N5_7 1_555 1_555
C18_7 N6_7 1_555 1_555
C21_7 N7_4 1_555 1_555
C22_7 C23_7 1_555 1_555
C25_7 N8_7 1_555 1_555
C27_7 N8_7 1_555 1_555
C28_7 C29_7 1_555 1_555
C30_7 N10_7 1_555 1_555
C33_7 N14_3 1_555 1_555
C34_7 C35_7 1_555 1_555
C36_7 N11_7 1_555 1_555
C36_7 N12_7 1_555 1_555
Zn5_3 I5_7 1_555 1_555
I6_7 Zn5_3 1_555 1_555
N2_7 Zn5_3 1_555 1_555
Zn5_4 I5_8 1_555 1_555
I6_8 Zn5_4 1_555 1_555
N2_8 Zn5_4 1_555 1_555
Zn4_4 I3_8 1_555 1_555
C13_7 H9_7 1_555 1_555
C14_7 C13_7 1_555 1_555
H10_7 C14_7 1_555 1_555
C15_8 H11_8 1_555 1_555
N3_8 Zn4_4 1_555 1_555
C13_7 N3_8 1_555 1_555
C15_8 N3_8 1_555 1_555
Zn1_8 I1_8 1_555 1_555
I2_8 Zn1_8 1_555 1_555
C1_8 H1_8 1_555 1_555
C2_8 C1_8 1_555 1_555
H2_8 C2_8 1_555 1_555
C3_8 H3_8 1_555 1_555
C4_8 C3_8 1_555 1_555
H4_8 C4_8 1_555 1_555
C5_8 C2_8 1_555 1_555
C6_8 C5_8 1_555 1_555
C8_8 C7_8 1_555 1_555
H6_8 C8_8 1_555 1_555
C9_8 H7_12 1_555 1_555
C10_8 C9_8 1_555 1_555
H8_8 C10_8 1_555 1_555
C11_8 C8_8 1_555 1_555
C12_8 C11_8 1_555 1_555
H12_8 C16_8 1_555 1_555
C18_8 C17_8 1_555 1_555
C19_8 H13_8 1_555 1_555
C20_8 C19_8 1_555 1_555
H14_8 C20_8 1_555 1_555
C21_8 H15_8 1_555 1_555
C22_8 C21_8 1_555 1_555
H16_8 C22_8 1_555 1_555
C23_8 C20_8 1_555 1_555
C24_8 C23_8 1_555 1_555
C25_8 H17_8 1_555 1_555
C26_8 C25_8 1_555 1_555
H18_8 C26_8 1_555 1_555
C27_8 H19_8 1_555 1_555
C28_8 C27_8 1_555 1_555
H20_8 C28_8 1_555 1_555
C29_8 C26_8 1_555 1_555
C30_8 C29_8 1_555 1_555
C31_8 H21_8 1_555 1_555
C32_8 C31_8 1_555 1_555
H22_8 C32_8 1_555 1_555
C33_8 H23_8 1_555 1_555
C34_8 C33_8 1_555 1_555
H24_8 C34_8 1_555 1_555
C35_8 C32_8 1_555 1_555
C36_8 C35_8 1_555 1_555
N1_8 Zn1_8 1_555 1_555
N4_8 C6_8 1_555 1_555
N5_8 C12_8 1_555 1_555
N6_8 C6_8 1_555 1_555
N13_4 C19_8 1_555 1_555
N8_8 Zn1_8 1_555 1_555
N14_4 C31_8 1_555 1_555
N10_8 C24_8 1_555 1_555
N11_8 C30_8 1_555 1_555
N12_8 C24_8 1_555 1_555
C1_8 N1_8 1_555 1_555
C3_8 N1_8 1_555 1_555
C4_8 C5_8 1_555 1_555
C10_8 C11_8 1_555 1_555
C12_8 N4_8 1_555 1_555
C16_8 C17_8 1_555 1_555
C18_8 N5_8 1_555 1_555
C18_8 N6_8 1_555 1_555
C21_8 N13_4 1_555 1_555
C22_8 C23_8 1_555 1_555
C25_8 N8_8 1_555 1_555
C27_8 N8_8 1_555 1_555
C28_8 C29_8 1_555 1_555
C30_8 N10_8 1_555 1_555
C33_8 N14_4 1_555 1_555
C34_8 C35_8 1_555 1_555
C36_8 N11_8 1_555 1_555
C36_8 N12_8 1_555 1_555
C13_8 H9_8 1_555 1_555
C14_8 C13_8 1_555 1_555
H10_8 C14_8 1_555 1_555

#END
