
###############################################################################
#
# This file contains modified crystal structure data generated from the
# MOF subset of the Cambridge Structural Database (CSD) v543 
# hosted by the Cambridge Crystallographic Data Centre (CCDC).
#
# This work is licensed under the Creative Commons
# Attribution-NonCommercial-ShareAlike 4.0 International License.
# To view a copy of this license, visit
# http://creativecommons.org/licenses/by-nc-sa/4.0/
# or send a letter to
# Creative Commons, PO Box 1866, Mountain View, CA 94042, USA.
#
# CIF created using the CSD Python API on 29 September 2022
# The structure has been converted into the P1 space group
# The structure has a 3D framework
# The original CSD entry CIXDIZ is in the orthorhombic crystal system
# The framework has been calculated to contain at least 10.0% void space
# The void calculation uses a probe of radius 1.32A, grid spacing 0.4
#
###############################################################################

data_CIXDIZ
_chemical_formula_moiety         '(C48 H32 N76 Zn8)n'
_symmetry_cell_setting           triclinic
_symmetry_space_group_name_H-M   'P 1'
_symmetry_Int_Tables_number      1
_space_group_name_Hall           'P 1'
loop_
_symmetry_equiv_pos_site_id
_symmetry_equiv_pos_as_xyz
1 x,y,z
_cell_length_a                   8.9365(16)
_cell_length_b                   14.646(3)
_cell_length_c                   17.561(3)
_cell_angle_alpha                90
_cell_angle_beta                 90
_cell_angle_gamma                90
_cell_volume                     2298.45
loop_
_atom_site_label
_atom_site_type_symbol
_atom_site_fract_x
_atom_site_fract_y
_atom_site_fract_z
N2 N 0.0131(3) 0.14653(16) 0.79176(14)
Zn3 Zn 0.17285(3) 0.18233(2) 0.87477(2)
Zn1 Zn 0.67285(3) 0.18233(2) 0.62523(2)
N1 N 0.8468(3) 0.14246(16) 0.69832(14)
N3 N 0.9939(3) 0.05645(16) 0.77298(15)
N7 N 0.6792(3) 0.03854(16) 0.57993(15)
H1 H 0.5762 0.0202 0.5715
H2 H 0.7263 0.0413 0.5302
C1 C 0.9244(3) 0.19441(19) 0.74664(16)
H3 H 0.9169 0.2577 0.7484
C2 C 0.8944(3) 0.05755(18) 0.71731(15)
N11 N 0.5131(3) 0.14653(16) 0.70824(14)
N12 N 0.6818(3) 0.32946(15) 0.65343(15)
N13 N 0.8421(2) 0.23961(16) 0.54170(14)
N14 N 0.5064(3) 0.20295(16) 0.54070(14)
N4 N 0.8882(3) 0.89098(15) 0.70155(13)
N5 N 0.8182(3) 0.82946(15) 0.65343(15)
N6 N 0.7491(3) 0.96667(15) 0.62022(12)
N8 N 0.6579(2) 0.73961(16) 0.54170(14)
N9 N 0.4936(3) 0.79705(16) 0.45930(14)
N10 N 0.5506(3) 0.86954(15) 0.50001(14)
C3 C 0.8442(3) 0.97311(19) 0.68089(16)
C4 C 0.7358(3) 0.87617(18) 0.60523(15)
C5 C 0.6463(3) 0.83109(18) 0.54738(17)
C6 C 0.5594(3) 0.72259(18) 0.48586(16)
H4 H 0.5393 0.6643 0.4676
Zn2 Zn 0.32715(3) 0.81767(2) 0.37477(2)
Zn4 Zn 0.82715(3) 0.68233(2) 0.62523(2)
N9_2 N 0.0064(3) 0.20295(16) 0.95930(14)
N4_2 N 0.6118(3) 0.10902(15) 0.20155(13)
N5_2 N 0.6818(3) 0.17054(15) 0.15343(15)
N6_2 N 0.7509(3) 0.03333(15) 0.12022(12)
N8_2 N 0.8421(2) 0.26039(16) 0.04170(14)
N10_2 N 0.9494(3) 0.13046(15) 0.00001(14)
C3_2 C 0.6558(3) 0.02689(19) 0.18089(16)
C4_2 C 0.7642(3) 0.12383(18) 0.10523(15)
C5_2 C 0.8537(3) 0.16891(18) 0.04738(17)
Zn4_2 Zn 0.67285(3) 0.31767(2) 0.12523(2)
Zn1_2 Zn 0.82715(3) 0.81767(2) 0.12523(2)
N1_2 N 0.6532(3) 0.85754(16) 0.19832(14)
N2_2 N 0.4869(3) 0.85347(16) 0.29176(14)
N3_2 N 0.5061(3) 0.94355(16) 0.27298(15)
N7_2 N 0.8208(3) 0.96146(16) 0.07993(15)
H1_2 H 0.9238 0.9798 0.0715
H2_2 H 0.7737 0.9587 0.0302
C1_2 C 0.5756(3) 0.80559(19) 0.24664(16)
H3_2 H 0.5831 0.7423 0.2484
C2_2 C 0.6056(3) 0.94245(18) 0.21731(15)
N11_2 N 0.9869(3) 0.85347(16) 0.20824(14)
N12_2 N 0.8182(3) 0.67054(15) 0.15343(15)
N13_2 N 0.6579(2) 0.76039(16) 0.04170(14)
N14_2 N 0.9936(3) 0.79705(16) 0.04070(14)
Zn1_3 Zn 0.17285(3) 0.31767(2) 0.37477(2)
N1_3 N 0.3468(3) 0.35754(16) 0.30168(14)
N2_3 N 0.5131(3) 0.35347(16) 0.20824(14)
N3_3 N 0.4939(3) 0.44355(16) 0.22702(15)
N4_3 N 0.3882(3) 0.60902(15) 0.29845(13)
N5_3 N 0.3182(3) 0.67054(15) 0.34657(15)
N6_3 N 0.2491(3) 0.53333(15) 0.37978(12)
N7_3 N 0.1792(3) 0.46146(16) 0.42007(15)
H1_3 H 0.0762 0.4798 0.4285
H2_3 H 0.2263 0.4587 0.4698
N8_3 N 0.1579(2) 0.76039(16) 0.45830(14)
N10_3 N 0.0506(3) 0.63046(15) 0.49999(14)
C1_3 C 0.4244(3) 0.30559(19) 0.25336(16)
H3_3 H 0.4169 0.2423 0.2516
C2_3 C 0.3944(3) 0.44245(18) 0.28269(15)
C3_3 C 0.3442(3) 0.52689(19) 0.31911(16)
C4_3 C 0.2358(3) 0.62383(18) 0.39477(15)
C5_3 C 0.1463(3) 0.66891(18) 0.45262(17)
C6_2 C 0.0594(3) 0.77741(18) 0.51414(16)
H4_2 H 0.0393 0.8357 0.5324
N11_3 N 0.0131(3) 0.35347(16) 0.29176(14)
N12_3 N 0.1818(3) 0.17054(15) 0.34657(15)
N13_3 N 0.3421(2) 0.26039(16) 0.45830(14)
N14_3 N 0.0064(3) 0.29705(16) 0.45930(14)
N9_3 N 0.9936(3) 0.70295(16) 0.54070(14)
N9_4 N 0.5064(3) 0.29705(16) 0.04070(14)
N10_4 N 0.4494(3) 0.36954(15) -0.00001(14)
C6_3 C 0.4406(3) 0.22259(18) 0.01414(16)
H4_3 H 0.4607 0.1643 0.0324
Zn1_4 Zn 0.32715(3) 0.68233(2) 0.87477(2)
N1_4 N 0.1532(3) 0.64246(16) 0.80168(14)
N3_4 N 0.0061(3) 0.55645(16) 0.72702(15)
N4_4 N 0.1118(3) 0.39098(15) 0.79845(13)
N5_4 N 0.1818(3) 0.32946(15) 0.84657(15)
N6_4 N 0.2509(3) 0.46667(15) 0.87978(12)
N7_4 N 0.3208(3) 0.53854(16) 0.92007(15)
H1_4 H 0.4238 0.5202 0.9285
H2_4 H 0.2737 0.5413 0.9698
N8_4 N 0.3421(2) 0.23961(16) 0.95830(14)
N10_5 N 0.4494(3) 0.36954(15) 0.99999(14)
C1_4 C 0.0756(3) 0.69441(19) 0.75336(16)
H3_4 H 0.0831 0.7577 0.7516
C2_4 C 0.1056(3) 0.55755(18) 0.78269(15)
C3_4 C 0.1558(3) 0.47311(19) 0.81911(16)
C4_4 C 0.2642(3) 0.37617(18) 0.89477(15)
C5_4 C 0.3537(3) 0.33109(18) 0.95262(17)
N11_4 N 0.4869(3) 0.64653(16) 0.79176(14)
N12_4 N 0.3182(3) 0.82946(15) 0.84657(15)
N13_4 N 0.1579(2) 0.73961(16) 0.95830(14)
N14_4 N 0.4936(3) 0.70295(16) 0.95930(14)
N2_4 N 0.9869(3) 0.64653(16) 0.70824(14)
N4_5 N 0.1118(3) 0.10902(15) 0.29845(13)
N6_5 N 0.2509(3) 0.03333(15) 0.37978(12)
N10_6 N 0.4494(3) 0.13046(15) 0.49999(14)
C3_5 C 0.1558(3) 0.02689(19) 0.31911(16)
C4_5 C 0.2642(3) 0.12383(18) 0.39477(15)
C5_5 C 0.3537(3) 0.16891(18) 0.45262(17)
C6_4 C 0.4406(3) 0.27741(18) 0.51414(16)
H4_4 H 0.4607 0.3357 0.5324
N1_5 N 0.1532(3) 0.85754(16) 0.30168(14)
N3_5 N 0.0061(3) 0.94355(16) 0.22702(15)
N7_5 N 0.3208(3) 0.96146(16) 0.42007(15)
H1_5 H 0.4238 0.9798 0.4285
H2_5 H 0.2737 0.9587 0.4698
C1_5 C 0.0756(3) 0.80559(19) 0.25336(16)
H3_5 H 0.0831 0.7423 0.2516
C2_5 C 0.1056(3) 0.94245(18) 0.28269(15)
N1_6 N 0.3468(3) 0.14246(16) 0.80168(14)
N3_6 N 0.4939(3) 0.05645(16) 0.72702(15)
N7_6 N 0.1792(3) 0.03854(16) 0.92007(15)
H1_6 H 0.0762 0.0202 0.9285
H2_6 H 0.2263 0.0413 0.9698
C1_6 C 0.4244(3) 0.19441(19) 0.75336(16)
H3_6 H 0.4169 0.2577 0.7516
C2_6 C 0.3944(3) 0.05755(18) 0.78269(15)
N4_6 N 0.3882(3) 0.89098(15) 0.79845(13)
N6_6 N 0.2491(3) 0.96667(15) 0.87978(12)
N10_7 N 0.0506(3) 0.86954(15) 0.99999(14)
C3_6 C 0.3442(3) 0.97311(19) 0.81911(16)
C4_6 C 0.2358(3) 0.87617(18) 0.89477(15)
C5_6 C 0.1463(3) 0.83109(18) 0.95262(17)
N1_7 N 0.6532(3) 0.64246(16) 0.69832(14)
N3_7 N 0.5061(3) 0.55645(16) 0.77298(15)
N4_7 N 0.6118(3) 0.39098(15) 0.70155(13)
N6_7 N 0.7509(3) 0.46667(15) 0.62022(12)
N7_7 N 0.8208(3) 0.53854(16) 0.57993(15)
H1_7 H 0.9238 0.5202 0.5715
H2_7 H 0.7737 0.5413 0.5302
N10_8 N 0.9494(3) 0.36954(15) 0.50001(14)
C1_7 C 0.5756(3) 0.69441(19) 0.74664(16)
H3_7 H 0.5831 0.7577 0.7484
C2_7 C 0.6056(3) 0.55755(18) 0.71731(15)
C3_7 C 0.6558(3) 0.47311(19) 0.68089(16)
C4_7 C 0.7642(3) 0.37617(18) 0.60523(15)
C5_7 C 0.8537(3) 0.33109(18) 0.54738(17)
C6_5 C 0.9406(3) 0.22259(18) 0.48586(16)
H4_5 H 0.9607 0.1643 0.4676
N1_8 N 0.8468(3) 0.35754(16) 0.19832(14)
N3_8 N 0.9939(3) 0.44355(16) 0.27298(15)
N4_8 N 0.8882(3) 0.60902(15) 0.20155(13)
N6_8 N 0.7491(3) 0.53333(15) 0.12022(12)
N7_8 N 0.6792(3) 0.46146(16) 0.07993(15)
H1_8 H 0.5762 0.4798 0.0715
H2_8 H 0.7263 0.4587 0.0302
N10_9 N 0.5506(3) 0.63046(15) 0.00001(14)
C1_8 C 0.9244(3) 0.30559(19) 0.24664(16)
H3_8 H 0.9169 0.2423 0.2484
C2_8 C 0.8944(3) 0.44245(18) 0.21731(15)
C3_8 C 0.8442(3) 0.52689(19) 0.18089(16)
C4_8 C 0.7358(3) 0.62383(18) 0.10523(15)
C5_8 C 0.6463(3) 0.66891(18) 0.04738(17)
N10_10 N 0.5506(3) 0.63046(15) 1.00001(14)
C6_6 C 0.5594(3) 0.77741(18) 0.98586(16)
H4_6 H 0.5393 0.8357 0.9676
N10_11 N 0.9494(3) 0.13046(15) 1.00001(14)
C6_7 C 0.9406(3) 0.27741(18) 0.98586(16)
H4_7 H 0.9607 0.3357 0.9676
N10_12 N 0.0506(3) 0.86954(15) -0.00001(14)
C6_8 C 0.0594(3) 0.72259(18) 0.01414(16)
H4_8 H 0.0393 0.6643 0.0324
loop_
_geom_bond_atom_site_label_1
_geom_bond_atom_site_label_2
_geom_bond_site_symmetry_1
_geom_bond_site_symmetry_2
Zn3 N2 1_555 1_555
Zn1 N1 1_555 1_555
N1 C1 1_555 1_555
N3 C2 1_555 1_555
N7 Zn1 1_555 1_555
H1 N7 1_555 1_555
H2 N7 1_555 1_555
H3 C1 1_555 1_555
C2 N1 1_555 1_555
N11 Zn1 1_555 1_555
N12 Zn1 1_555 1_555
N13 Zn1 1_555 1_555
N14 Zn1 1_555 1_555
N4 N5 1_555 1_555
N5 C4 1_555 1_555
N8 C5 1_555 1_555
N9 N10 1_555 1_555
N10 C5 1_555 1_555
C3 N4 1_555 1_555
C4 N6 1_555 1_555
C5 C4 1_555 1_555
C6 N8 1_555 1_555
H4 C6 1_555 1_555
Zn2 N9 1_555 1_555
Zn4 N5 1_555 1_555
N6 C3 1_555 1_555
N8 Zn4 1_555 1_555
N9 C6 1_555 1_555
Zn3 N9_2 1_555 1_555
N4_2 N5_2 1_555 1_555
N5_2 C4_2 1_555 1_555
N8_2 C5_2 1_555 1_555
N10_2 C5_2 1_555 1_555
C3_2 N4_2 1_555 1_555
C4_2 N6_2 1_555 1_555
C5_2 C4_2 1_555 1_555
Zn4_2 N5_2 1_555 1_555
N6_2 C3_2 1_555 1_555
N8_2 Zn4_2 1_555 1_555
Zn1_2 N1_2 1_555 1_555
N1_2 C1_2 1_555 1_555
N2_2 N3_2 1_555 1_555
N3_2 C2_2 1_555 1_555
N7_2 Zn1_2 1_555 1_555
H1_2 N7_2 1_555 1_555
H2_2 N7_2 1_555 1_555
C1_2 N2_2 1_555 1_555
H3_2 C1_2 1_555 1_555
C2_2 N1_2 1_555 1_555
Zn2 N2_2 1_555 1_555
N11_2 Zn1_2 1_555 1_555
N12_2 Zn1_2 1_555 1_555
N13_2 Zn1_2 1_555 1_555
N14_2 Zn1_2 1_555 1_555
Zn1_3 N1_3 1_555 1_555
N1_3 C1_3 1_555 1_555
N2_3 N3_3 1_555 1_555
N3_3 C2_3 1_555 1_555
N4_3 N5_3 1_555 1_555
N5_3 C4_3 1_555 1_555
N6_3 N7_3 1_555 1_555
N7_3 Zn1_3 1_555 1_555
H1_3 N7_3 1_555 1_555
H2_3 N7_3 1_555 1_555
N8_3 C5_3 1_555 1_555
N10_3 C5_3 1_555 1_555
C1_3 N2_3 1_555 1_555
H3_3 C1_3 1_555 1_555
C2_3 N1_3 1_555 1_555
C3_3 N4_3 1_555 1_555
C4_3 N6_3 1_555 1_555
C5_3 C4_3 1_555 1_555
C6_2 N8_3 1_555 1_555
H4_2 C6_2 1_555 1_555
Zn4_2 N2_3 1_555 1_555
Zn2 N5_3 1_555 1_555
N11_3 Zn1_3 1_555 1_555
N12_3 Zn1_3 1_555 1_555
N13_3 Zn1_3 1_555 1_555
N14_3 Zn1_3 1_555 1_555
N6_3 C3_3 1_555 1_555
N8_3 Zn2 1_555 1_555
C2_3 C3_3 1_555 1_555
Zn4 N9_3 1_555 1_555
N9_4 N10_4 1_555 1_555
H4_3 C6_3 1_555 1_555
Zn4_2 N9_4 1_555 1_555
N9_4 C6_3 1_555 1_555
Zn1_4 N1_4 1_555 1_555
N1_4 C1_4 1_555 1_555
N3_4 C2_4 1_555 1_555
N4_4 N5_4 1_555 1_555
N5_4 C4_4 1_555 1_555
N6_4 N7_4 1_555 1_555
N7_4 Zn1_4 1_555 1_555
H1_4 N7_4 1_555 1_555
H2_4 N7_4 1_555 1_555
N8_4 C5_4 1_555 1_555
N10_5 C5_4 1_555 1_555
H3_4 C1_4 1_555 1_555
C2_4 N1_4 1_555 1_555
C3_4 N4_4 1_555 1_555
C4_4 N6_4 1_555 1_555
C5_4 C4_4 1_555 1_555
Zn3 N5_4 1_555 1_555
N11_4 Zn1_4 1_555 1_555
N12_4 Zn1_4 1_555 1_555
N13_4 Zn1_4 1_555 1_555
N14_4 Zn1_4 1_555 1_555
N6_4 C3_4 1_555 1_555
N8_4 Zn3 1_555 1_555
C2_4 C3_4 1_555 1_555
Zn4 N2_4 1_555 1_555
N4_5 N12_3 1_555 1_555
N12_3 C4_5 1_555 1_555
N13_3 C5_5 1_555 1_555
N14 N10_6 1_555 1_555
N10_6 C5_5 1_555 1_555
C3_5 N4_5 1_555 1_555
C4_5 N6_5 1_555 1_555
C5_5 C4_5 1_555 1_555
C6_4 N13_3 1_555 1_555
H4_4 C6_4 1_555 1_555
N6_5 C3_5 1_555 1_555
N14 C6_4 1_555 1_555
Zn2 N1_5 1_555 1_555
N1_5 C1_5 1_555 1_555
N3_5 C2_5 1_555 1_555
N7_5 Zn2 1_555 1_555
H1_5 N7_5 1_555 1_555
H2_5 N7_5 1_555 1_555
H3_5 C1_5 1_555 1_555
C2_5 N1_5 1_555 1_555
Zn3 N1_6 1_555 1_555
N1_6 C1_6 1_555 1_555
N11 N3_6 1_555 1_555
N3_6 C2_6 1_555 1_555
N7_6 Zn3 1_555 1_555
H1_6 N7_6 1_555 1_555
H2_6 N7_6 1_555 1_555
C1_6 N11 1_555 1_555
H3_6 C1_6 1_555 1_555
C2_6 N1_6 1_555 1_555
N4_6 N12_4 1_555 1_555
N12_4 C4_6 1_555 1_555
N13_4 C5_6 1_555 1_555
N10_7 C5_6 1_555 1_555
C3_6 N4_6 1_555 1_555
C4_6 N6_6 1_555 1_555
C5_6 C4_6 1_555 1_555
N6_6 C3_6 1_555 1_555
Zn4 N1_7 1_555 1_555
N1_7 C1_7 1_555 1_555
N11_4 N3_7 1_555 1_555
N3_7 C2_7 1_555 1_555
N4_7 N12 1_555 1_555
N12 C4_7 1_555 1_555
N6_7 N7_7 1_555 1_555
N7_7 Zn4 1_555 1_555
H1_7 N7_7 1_555 1_555
H2_7 N7_7 1_555 1_555
N13 C5_7 1_555 1_555
N10_8 C5_7 1_555 1_555
C1_7 N11_4 1_555 1_555
H3_7 C1_7 1_555 1_555
C2_7 N1_7 1_555 1_555
C3_7 N4_7 1_555 1_555
C4_7 N6_7 1_555 1_555
C5_7 C4_7 1_555 1_555
C6_5 N13 1_555 1_555
H4_5 C6_5 1_555 1_555
N6_7 C3_7 1_555 1_555
C2_7 C3_7 1_555 1_555
Zn4_2 N1_8 1_555 1_555
N1_8 C1_8 1_555 1_555
N3_8 C2_8 1_555 1_555
N4_8 N12_2 1_555 1_555
N12_2 C4_8 1_555 1_555
N6_8 N7_8 1_555 1_555
N7_8 Zn4_2 1_555 1_555
H1_8 N7_8 1_555 1_555
H2_8 N7_8 1_555 1_555
N13_2 C5_8 1_555 1_555
N10_9 C5_8 1_555 1_555
H3_8 C1_8 1_555 1_555
C2_8 N1_8 1_555 1_555
C3_8 N4_8 1_555 1_555
C4_8 N6_8 1_555 1_555
C5_8 C4_8 1_555 1_555
N6_8 C3_8 1_555 1_555
C2_8 C3_8 1_555 1_555
N14_4 N10_10 1_555 1_555
H4_6 C6_6 1_555 1_555
N14_4 C6_6 1_555 1_555
H4_7 C6_7 1_555 1_555
H4_8 C6_8 1_555 1_555

#END
