
###############################################################################
#
# This file contains modified crystal structure data generated from the
# MOF subset of the Cambridge Structural Database (CSD) v543 
# hosted by the Cambridge Crystallographic Data Centre (CCDC).
#
# This work is licensed under the Creative Commons
# Attribution-NonCommercial-ShareAlike 4.0 International License.
# To view a copy of this license, visit
# http://creativecommons.org/licenses/by-nc-sa/4.0/
# or send a letter to
# Creative Commons, PO Box 1866, Mountain View, CA 94042, USA.
#
# CIF created using the CSD Python API on 29 September 2022
# The structure has been converted into the P1 space group
# The structure has a 3D framework
# The original CSD entry CIYHOK is in the tetragonal crystal system
# The original CSD entry CIYHOK is in a Sohncke space group
# The framework has been calculated to contain at least 10.0% void space
# The void calculation uses a probe of radius 1.32A, grid spacing 0.4
# The framework is charged, counterions have been retained in the structure
#
###############################################################################

data_CIYHOK
_chemical_formula_moiety         '(C493 H517 N32 O80 Zn12 4+)n'
_symmetry_cell_setting           triclinic
_symmetry_space_group_name_H-M   'P 1'
_symmetry_Int_Tables_number      1
_space_group_name_Hall           'P 1'
loop_
_symmetry_equiv_pos_site_id
_symmetry_equiv_pos_as_xyz
1 x,y,z
_cell_length_a                   27.8771(4)
_cell_length_b                   27.8771(4)
_cell_length_c                   27.8048(12)
_cell_angle_alpha                90
_cell_angle_beta                 90
_cell_angle_gamma                90
_cell_volume                     21608
loop_
_atom_site_label
_atom_site_type_symbol
_atom_site_fract_x
_atom_site_fract_y
_atom_site_fract_z
Zn1 Zn 0.16304(2) 0.02420(2) 0.03634(2)
Zn2 Zn 0.12789(2) 0.12789(2) 0.000000
N1 N 0.01299(14) 0.00464(15) 0.46174(13)
C4 C 0.10750(13) 0.04516(14) 0.11658(13)
C10 C 0.05764(16) 0.06955(15) 0.24062(15)
H6 H 0.041087 0.094715 0.256600
C11 C 0.09457(14) 0.03882(13) 0.16890(13)
C17 C 0.06936(15) 0.07470(15) 0.19264(14)
H10 H 0.060137 0.102886 0.175800
C29 C 0.05572(16) 0.02230(17) 0.31763(15)
C33 C 0.06961(15) 0.02824(15) 0.26601(14)
C34 C 0.0006(2) 0.04022(19) 0.38291(18)
C35 C 0.02838(17) 0.02838(17) 0.500000
H21 H 0.052476 0.052477 0.499998
C36 C 0.01499(18) 0.04445(18) 0.33513(16)
C38 C 0.02868(19) 0.01143(18) 0.41228(15)
O2 O 0.13114(10) 0.01099(9) 0.09740(9)
O4 O 0.09413(10) 0.08191(9) 0.09532(9)
H65 H 0.134410 0.009886 0.466175
N4 N 0.00464(15) 0.01299(14) 0.53826(13)
C63 C 0.04516(14) 0.10750(13) 0.88342(13)
C65 C 0.06955(15) 0.05764(16) 0.75938(15)
H67 H 0.094715 0.041087 0.743400
C66 C 0.03882(13) 0.09457(14) 0.83110(13)
C68 C 0.07470(15) 0.06936(15) 0.80736(14)
H69 H 0.102886 0.060137 0.824200
C71 C 0.02230(17) 0.05572(16) 0.68237(15)
C72 C 0.02824(15) 0.06961(15) 0.73399(14)
C73 C 0.04022(19) 0.0006(2) 0.61709(18)
C74 C 0.04445(18) 0.01499(18) 0.66487(16)
C76 C 0.01143(18) 0.02868(19) 0.58772(15)
O8 O 0.01099(9) 0.13114(10) 0.90260(9)
O9 O 0.08191(9) 0.09413(10) 0.90468(9)
H86 H 0.009886 0.134410 0.533825
O11 O 0.06293(9) 0.14078(9) 0.01703(9)
Zn6 Zn 0.02420(2) 0.16304(2) 0.96366(2)
O16 O 0.21320(9) 0.07114(9) 0.05833(10)
O19 O 0.18025(9) 0.14334(9) 0.04620(11)
Zn2_2 Zn 0.12789(2) 0.12789(2) 1.000000
O3 O 0.14078(9) 0.06293(9) 0.98297(9)
O15 O 0.07114(9) 0.21320(9) 0.94167(10)
O18 O 0.14334(9) 0.18025(9) 0.95380(11)
C16 C 0.09531(16) 0.99287(16) 0.24196(15)
H9 H 0.104776 0.964682 0.258652
C22 C 0.10726(16) 0.99829(15) 0.19396(15)
H14 H 0.124541 0.973564 0.178065
C28 C 0.06913(18) 0.98724(19) 0.39666(16)
C37 C 0.08227(17) 0.99429(18) 0.34871(15)
H23 H 0.110548 0.979244 0.337056
C45 C 0.3184(3) 0.6517(3) 0.0102(3)
H29 H 0.347569 0.638375 0.024687
H30 H 0.292209 0.628404 0.013192
H31 H 0.309601 0.681376 0.026903
O6 O 0.19898(11) 0.96833(10) 0.01287(11)
C51 C 0.0991(2) 0.9551(2) 0.42911(17)
H45 H 0.079317 0.947882 0.458199
C57 C 0.11192(19) 0.9078(2) 0.40620(19)
H50 H 0.082491 0.890762 0.397199
H51 H 0.130203 0.888290 0.429108
H52 H 0.131372 0.913487 0.377406
C59 C 0.2806(3) 0.4944(2) 0.0033(3)
H54 H 0.259926 0.470705 0.018942
H56 H 0.306558 0.503596 0.025218
C62 C 0.1442(3) 0.9824(3) 0.4465(2)
H63 H 0.162447 0.993741 0.418630
H64 H 0.164245 0.960843 0.465763
H71 H 0.063238 0.996107 0.686177
C77 C 0.0658(2) 0.9545(2) 0.6005(2)
H73 H 0.065039 0.954070 0.564528
C78 C 0.0388(3) 0.9101(2) 0.6181(2)
H74 H 0.038469 0.909792 0.653391
H75 H 0.054915 0.881164 0.606306
H76 H 0.005818 0.910913 0.606064
C79 C 0.1175(3) 0.9538(4) 0.6155(4)
H77 H 0.119629 0.956905 0.650569
H78 H 0.134542 0.980496 0.600272
H79 H 0.132165 0.923382 0.605568
C1 C 0.16777(15) 0.94092(14) 0.99597(15)
C2 C 0.13899(14) 0.25987(13) 0.92536(15)
C3 C 0.15004(17) 0.85750(15) 0.96739(17)
H1 H 0.116921 0.864349 0.971594
C5 C 0.11073(15) 0.29846(15) 0.91228(16)
H2 H 0.076929 0.294821 0.909920
C6 C 0.18437(16) 0.89264(14) 0.97785(15)
C8 C 0.20187(18) 0.72917(15) 0.89548(18)
H4 H 0.174755 0.744455 0.881586
C9 C 0.23088(17) 0.88124(16) 0.97394(19)
H5 H 0.254415 0.904326 0.982599
C12 C 0.11604(14) 0.21414(13) 0.94138(14)
N2 N 0.26567(14) 0.61289(12) 0.89014(16)
C13 C 0.18827(15) 0.26564(15) 0.92612(18)
H7 H 0.208221 0.238973 0.933360
C14 C 0.18103(16) 0.34885(14) 0.90540(17)
C15 C 0.26886(18) 0.73154(15) 0.94819(19)
H8 H 0.287903 0.748736 0.970677
C18 C 0.21351(17) 0.80225(14) 0.94539(16)
C19 C 0.20887(16) 0.30973(15) 0.91649(19)
H11 H 0.242772 0.313006 0.917549
C20 C 0.24221(18) 0.57453(15) 0.9064(2)
H12 H 0.216806 0.574863 0.929128
C21 C 0.13175(17) 0.34253(15) 0.90259(18)
H13 H 0.112006 0.368902 0.893857
C23 C 0.2044(3) 0.6690(3) 0.7936(2)
H15 H 0.195847 0.701971 0.784779
H16 H 0.190773 0.646724 0.769990
H17 H 0.239385 0.665697 0.793979
C24 C 0.3273(2) 0.66218(18) 0.9581(2)
H18 H 0.332870 0.630883 0.941475
C25 C 0.22853(17) 0.75347(15) 0.92921(17)
C26 C 0.25389(18) 0.66200(15) 0.90304(19)
C27 C 0.20287(17) 0.39707(15) 0.89877(18)
C30 C 0.28249(19) 0.68529(16) 0.9355(2)
C31 C 0.16420(18) 0.81273(15) 0.95091(17)
H19 H 0.140798 0.789132 0.943349
C32 C 0.18476(19) 0.65780(18) 0.8425(2)
H20 H 0.188928 0.622506 0.847393
C39 C 0.24097(18) 0.41153(16) 0.9274(2)
H24 H 0.253780 0.389483 0.950086
C40 C 0.29943(19) 0.59777(16) 0.8569(2)
H25 H 0.321021 0.617514 0.839379
C41 C 0.24562(18) 0.83632(16) 0.9575(2)
H26 H 0.278926 0.829623 0.954742
C42 C 0.18433(19) 0.42848(16) 0.8649(2)
H27 H 0.158474 0.418603 0.844951
C44 C 0.21368(18) 0.68226(16) 0.88100(18)
C47 C 0.1316(2) 0.6677(2) 0.8453(3)
H35 H 0.120923 0.665005 0.878771
H36 H 0.114275 0.644321 0.825496
H37 H 0.125074 0.700142 0.833446
C48 C 0.3708(2) 0.6923(2) 0.9510(3)
H38 H 0.369038 0.720529 0.971912
H39 H 0.372545 0.702603 0.917347
H40 H 0.399435 0.673555 0.959033
O5 O 0.12416(11) 0.95090(10) 0.99676(12)
C50 C 0.3020(2) 0.47277(18) 0.9575(2)
H44 H 0.320953 0.498230 0.940696
N3 N 0.26028(15) 0.53578(12) 0.88537(17)
C52 C 0.24112(18) 0.48713(15) 0.8904(2)
C53 C 0.20368(19) 0.47525(16) 0.85972(19)
C54 C 0.26112(19) 0.45704(16) 0.9243(2)
C55 C 0.29579(19) 0.54997(16) 0.8542(2)
H46 H 0.314453 0.529499 0.834322
C56 C 0.3363(2) 0.4320(2) 0.9713(3)
H47 H 0.319808 0.409565 0.992782
H48 H 0.364419 0.445330 0.987650
H49 H 0.346562 0.415038 0.942155
C58 C 0.1811(2) 0.50952(19) 0.8241(2)
H53 H 0.200919 0.539405 0.824101
H55 H 0.261685 0.522862 0.994962
C60 C 0.1809(2) 0.4901(2) 0.7726(2)
H57 H 0.161341 0.460920 0.771204
H58 H 0.213803 0.482655 0.762765
H59 H 0.167388 0.514313 0.750948
C61 C 0.1311(3) 0.5235(3) 0.8390(3)
H60 H 0.109825 0.495678 0.836078
H61 H 0.119524 0.549335 0.818074
H62 H 0.131456 0.534603 0.872401
H22 H 0.996107 0.063238 0.313823
C43 C 0.9545(2) 0.0658(2) 0.3995(2)
H28 H 0.954070 0.065039 0.435472
C46 C 0.9101(2) 0.0388(3) 0.3819(2)
H32 H 0.909792 0.038469 0.346609
H33 H 0.881164 0.054915 0.393694
H34 H 0.910913 0.005818 0.393936
C49 C 0.9538(4) 0.1175(3) 0.3845(4)
H41 H 0.956905 0.119629 0.349431
H42 H 0.980496 0.134542 0.399728
H43 H 0.923382 0.132165 0.394432
C67 C 0.99287(16) 0.09531(16) 0.75804(15)
H68 H 0.964682 0.104776 0.741348
C69 C 0.99829(15) 0.10726(16) 0.80604(15)
H70 H 0.973564 0.124541 0.821935
C70 C 0.98724(19) 0.06913(18) 0.60334(16)
C75 C 0.99429(18) 0.08227(17) 0.65129(15)
H72 H 0.979244 0.110548 0.662944
C80 C 0.9551(2) 0.0991(2) 0.57089(17)
H80 H 0.947882 0.079317 0.541801
C81 C 0.9078(2) 0.11192(19) 0.59380(19)
H81 H 0.890762 0.082491 0.602801
H82 H 0.888290 0.130203 0.570892
H83 H 0.913487 0.131372 0.622594
C82 C 0.9824(3) 0.1442(3) 0.5535(2)
H84 H 0.993741 0.162447 0.581370
H85 H 0.960843 0.164245 0.534237
C83 C 0.94092(14) 0.16777(15) 0.00403(15)
C84 C 0.25987(13) 0.13899(14) 0.07464(15)
C85 C 0.85750(15) 0.15004(17) 0.03261(17)
H87 H 0.864349 0.116921 0.028406
C86 C 0.29846(15) 0.11073(15) 0.08772(16)
H88 H 0.294821 0.076929 0.090080
C87 C 0.89264(14) 0.18437(16) 0.02215(15)
C88 C 0.72917(15) 0.20187(18) 0.10452(18)
H89 H 0.744455 0.174755 0.118414
C89 C 0.88124(16) 0.23088(17) 0.02606(19)
H90 H 0.904326 0.254415 0.017401
C90 C 0.21414(13) 0.11604(14) 0.05862(14)
N5 N 0.61289(12) 0.26567(14) 0.10986(16)
C91 C 0.26564(15) 0.18827(15) 0.07388(18)
H91 H 0.238973 0.208221 0.066640
C92 C 0.34885(14) 0.18103(16) 0.09460(17)
C93 C 0.73154(15) 0.26886(18) 0.05181(19)
H92 H 0.748736 0.287903 0.029323
C94 C 0.80225(14) 0.21351(17) 0.05461(16)
C95 C 0.30973(15) 0.20887(16) 0.08351(19)
H93 H 0.313006 0.242772 0.082451
C96 C 0.57453(15) 0.24221(18) 0.0936(2)
H94 H 0.574863 0.216806 0.070872
C97 C 0.34253(15) 0.13175(17) 0.09741(18)
H95 H 0.368902 0.112006 0.106143
C98 C 0.6690(3) 0.2044(3) 0.2064(2)
H96 H 0.701971 0.195847 0.215221
H97 H 0.646724 0.190773 0.230010
H98 H 0.665697 0.239385 0.206021
C99 C 0.66218(18) 0.3273(2) 0.0419(2)
H99 H 0.630883 0.332870 0.058525
C100 C 0.75347(15) 0.22853(17) 0.07079(17)
C101 C 0.66200(15) 0.25389(18) 0.09696(19)
C102 C 0.39707(15) 0.20287(17) 0.10123(18)
C103 C 0.68529(16) 0.28249(19) 0.0645(2)
C104 C 0.81273(15) 0.16420(18) 0.04909(17)
H100 H 0.789132 0.140798 0.056651
C105 C 0.65780(18) 0.18476(19) 0.1575(2)
H101 H 0.622506 0.188928 0.152607
C106 C 0.41153(16) 0.24097(18) 0.0726(2)
H102 H 0.389483 0.253780 0.049914
C107 C 0.59777(16) 0.29943(19) 0.1431(2)
H103 H 0.617514 0.321021 0.160621
C108 C 0.83632(16) 0.24562(18) 0.0425(2)
H104 H 0.829623 0.278926 0.045258
C109 C 0.42848(16) 0.18433(19) 0.1351(2)
H105 H 0.418603 0.158474 0.155049
C110 C 0.68226(16) 0.21368(18) 0.11900(18)
C112 C 0.6677(2) 0.1316(2) 0.1547(3)
H109 H 0.665005 0.120923 0.121229
H110 H 0.644321 0.114275 0.174504
H111 H 0.700142 0.125074 0.166554
C113 C 0.6923(2) 0.3708(2) 0.0490(3)
H112 H 0.720529 0.369038 0.028088
H113 H 0.702603 0.372545 0.082653
H114 H 0.673555 0.399435 0.040967
O12 O 0.95090(10) 0.12416(11) 0.00324(12)
C114 C 0.47277(18) 0.3020(2) 0.0425(2)
H115 H 0.498230 0.320953 0.059304
N6 N 0.53578(12) 0.26028(15) 0.11463(17)
C115 C 0.48713(15) 0.24112(18) 0.1096(2)
C116 C 0.47525(16) 0.20368(19) 0.14028(19)
C117 C 0.45704(16) 0.26112(19) 0.0757(2)
C118 C 0.54997(16) 0.29579(19) 0.1458(2)
H116 H 0.529499 0.314453 0.165678
C119 C 0.4320(2) 0.3363(2) 0.0287(3)
H117 H 0.409565 0.319808 0.007218
H118 H 0.445330 0.364419 0.012350
H119 H 0.415038 0.346562 0.057845
C120 C 0.50952(19) 0.1811(2) 0.1759(2)
H120 H 0.539405 0.200919 0.175899
H122 H 0.522862 0.261685 0.005038
C122 C 0.4901(2) 0.1809(2) 0.2274(2)
H124 H 0.460920 0.161341 0.228796
H125 H 0.482655 0.213803 0.237235
H126 H 0.514313 0.167388 0.249052
C123 C 0.5235(3) 0.1311(3) 0.1610(3)
H127 H 0.495678 0.109825 0.163922
H128 H 0.549335 0.119524 0.181926
H129 H 0.534603 0.131456 0.127599
C111 C 0.6517(3) 0.3184(3) 0.9898(3)
H106 H 0.638375 0.347569 0.975313
H107 H 0.628404 0.292209 0.986808
H108 H 0.681376 0.309601 0.973097
O13 O 0.96833(10) 0.19898(11) 0.98713(11)
C121 C 0.4944(2) 0.2806(3) 0.9967(3)
H121 H 0.470705 0.259926 0.981058
H123 H 0.503596 0.306558 0.974782
C7 C 0.97804(15) 0.97304(15) 0.47629(13)
H3 H 0.960653 0.951600 0.456257
C64 C 0.97304(15) 0.97804(15) 0.52371(13)
H66 H 0.951600 0.960653 0.543743
C64_2 C 0.02696(15) 0.02196(15) 0.02371(13)
H66_2 H 0.048400 0.039347 0.043743
C7_2 C 0.02196(15) 0.02696(15) 0.97629(13)
H3_2 H 0.039347 0.048400 0.956257
C67_2 C 0.00713(16) 0.90469(16) 0.25804(15)
H68_2 H 0.035318 0.895224 0.241348
C69_2 C 0.00171(15) 0.89274(16) 0.30604(15)
H70_2 H 0.026436 0.875459 0.321935
C70_2 C 0.01276(19) 0.93087(18) 0.10334(16)
C75_2 C 0.00571(18) 0.91773(17) 0.15129(15)
H72_2 H 0.020756 0.889452 0.162944
C80_2 C 0.0449(2) 0.9009(2) 0.07089(17)
H80_2 H 0.052118 0.920683 0.041801
C81_2 C 0.0922(2) 0.88808(19) 0.09380(19)
H81_2 H 0.109238 0.917509 0.102801
H82_2 H 0.111710 0.869797 0.070892
H83_2 H 0.086513 0.868628 0.122594
C82_2 C 0.0176(3) 0.8558(3) 0.0535(2)
H84_2 H 0.006259 0.837553 0.081370
H85_2 H 0.039157 0.835755 0.034237
H22_2 H 0.003893 0.936762 0.813823
C43_2 C 0.0455(2) 0.9342(2) 0.8995(2)
H28_2 H 0.045930 0.934961 0.935472
C46_2 C 0.0899(2) 0.9612(3) 0.8819(2)
H32_2 H 0.090208 0.961531 0.846609
H33_2 H 0.118836 0.945085 0.893694
H34_2 H 0.089087 0.994182 0.893936
C49_2 C 0.0462(4) 0.8825(3) 0.8845(4)
H41_2 H 0.043095 0.880371 0.849431
H42_2 H 0.019504 0.865458 0.899728
H43_2 H 0.076618 0.867835 0.894432
C83_2 C 0.05908(14) 0.83223(15) 0.50403(15)
C84_2 C 0.74013(13) 0.86101(14) 0.57464(15)
C85_2 C 0.14250(15) 0.84996(17) 0.53261(17)
H87_2 H 0.135651 0.883079 0.528406
C86_2 C 0.70154(15) 0.88927(15) 0.58772(16)
H88_2 H 0.705179 0.923071 0.590080
C87_2 C 0.10736(14) 0.81563(16) 0.52215(15)
C88_2 C 0.27083(15) 0.79813(18) 0.60452(18)
H89_2 H 0.255545 0.825245 0.618414
C89_2 C 0.11876(16) 0.76912(17) 0.52606(19)
H90_2 H 0.095674 0.745585 0.517401
C90_2 C 0.78586(13) 0.88396(14) 0.55862(14)
N5_2 N 0.38711(12) 0.73433(14) 0.60986(16)
C91_2 C 0.73436(15) 0.81173(15) 0.57388(18)
H91_2 H 0.761027 0.791779 0.566640
C92_2 C 0.65115(14) 0.81897(16) 0.59460(17)
C93_2 C 0.26846(15) 0.73114(18) 0.55181(19)
H92_2 H 0.251264 0.712097 0.529323
C94_2 C 0.19775(14) 0.78649(17) 0.55461(16)
C95_2 C 0.69027(15) 0.79113(16) 0.58351(19)
H93_2 H 0.686994 0.757228 0.582451
C96_2 C 0.42547(15) 0.75779(18) 0.5936(2)
H94_2 H 0.425137 0.783194 0.570872
C97_2 C 0.65747(15) 0.86825(17) 0.59741(18)
H95_2 H 0.631098 0.887994 0.606143
C98_2 C 0.3310(3) 0.7956(3) 0.7064(2)
H96_2 H 0.298029 0.804153 0.715221
H97_2 H 0.353276 0.809227 0.730010
H98_2 H 0.334303 0.760615 0.706021
C99_2 C 0.33782(18) 0.6727(2) 0.5419(2)
H99_2 H 0.369117 0.667130 0.558525
C100_2 C 0.24653(15) 0.77147(17) 0.57079(17)
C101_2 C 0.33800(15) 0.74611(18) 0.59696(19)
C102_2 C 0.60293(15) 0.79713(17) 0.60123(18)
C103_2 C 0.31471(16) 0.71751(19) 0.5645(2)
C104_2 C 0.18727(15) 0.83580(18) 0.54909(17)
H100_2 H 0.210868 0.859202 0.556651
C105_2 C 0.34220(18) 0.81524(19) 0.6575(2)
H101_2 H 0.377494 0.811072 0.652607
C106_2 C 0.58847(16) 0.75903(18) 0.5726(2)
H102_2 H 0.610517 0.746220 0.549914
C107_2 C 0.40223(16) 0.70057(19) 0.6431(2)
H103_2 H 0.382486 0.678979 0.660621
C108_2 C 0.16368(16) 0.75438(18) 0.5425(2)
H104_2 H 0.170377 0.721074 0.545258
C109_2 C 0.57152(16) 0.81567(19) 0.6351(2)
H105_2 H 0.581397 0.841526 0.655049
C110_2 C 0.31774(16) 0.78632(18) 0.61900(18)
C111_2 C 0.3483(3) 0.6816(3) 0.4898(3)
H106_2 H 0.361625 0.652431 0.475313
H107_2 H 0.371596 0.707791 0.486808
H108_2 H 0.318624 0.690399 0.473097
C112_2 C 0.3323(2) 0.8684(2) 0.6547(3)
H109_2 H 0.334995 0.879077 0.621229
H110_2 H 0.355679 0.885725 0.674504
H111_2 H 0.299858 0.874926 0.666554
C113_2 C 0.3077(2) 0.6292(2) 0.5490(3)
H112_2 H 0.279471 0.630962 0.528088
H113_2 H 0.297397 0.627455 0.582653
H114_2 H 0.326445 0.600565 0.540967
O10 O 0.78680(9) 0.92886(9) 0.55833(10)
O12_2 O 0.04910(10) 0.87584(11) 0.50324(12)
O13_2 O 0.03167(10) 0.80102(11) 0.48713(11)
O14 O 0.81975(9) 0.85666(9) 0.54620(11)
C114_2 C 0.52723(18) 0.6980(2) 0.5425(2)
H115_2 H 0.501770 0.679047 0.559304
N6_2 N 0.46422(12) 0.73972(15) 0.61463(17)
C115_2 C 0.51287(15) 0.75888(18) 0.6096(2)
C116_2 C 0.52475(16) 0.79632(19) 0.64028(19)
C117_2 C 0.54296(16) 0.73888(19) 0.5757(2)
C118_2 C 0.45003(16) 0.70421(19) 0.6458(2)
H116_2 H 0.470501 0.685547 0.665678
C119_2 C 0.5680(2) 0.6637(2) 0.5287(3)
H117_2 H 0.590435 0.680192 0.507218
H118_2 H 0.554670 0.635581 0.512350
H119_2 H 0.584962 0.653438 0.557845
C120_2 C 0.49048(19) 0.8189(2) 0.6759(2)
H120_2 H 0.460595 0.799081 0.675899
C121_2 C 0.5056(2) 0.7194(3) 0.4967(3)
H121_2 H 0.529295 0.740074 0.481058
H122_2 H 0.477138 0.738315 0.505038
H123_2 H 0.496404 0.693442 0.474782
C122_2 C 0.5099(2) 0.8191(2) 0.7274(2)
H124_2 H 0.539080 0.838659 0.728796
H125_2 H 0.517345 0.786197 0.737235
H126_2 H 0.485687 0.832612 0.749052
C123_2 C 0.4765(3) 0.8689(3) 0.6610(3)
H127_2 H 0.504322 0.890175 0.663922
H128_2 H 0.450665 0.880476 0.681926
H129_2 H 0.465397 0.868544 0.627599
Zn4 Zn 0.83696(2) 0.97580(2) 0.53634(2)
Zn7 Zn 0.87211(2) 0.87211(2) 0.500000
H71_2 H 0.936762 0.003893 0.186177
C77_2 C 0.9342(2) 0.0455(2) 0.1005(2)
H73_2 H 0.934961 0.045930 0.064528
C78_2 C 0.9612(3) 0.0899(2) 0.1181(2)
H74_2 H 0.961531 0.090208 0.153391
H75_2 H 0.945085 0.118836 0.106306
H76_2 H 0.994182 0.089087 0.106064
C79_2 C 0.8825(3) 0.0462(4) 0.1155(4)
H77_2 H 0.880371 0.043095 0.150569
H78_2 H 0.865458 0.019504 0.100272
H79_2 H 0.867835 0.076618 0.105568
C1_2 C 0.83223(15) 0.05908(14) 0.49597(15)
C2_2 C 0.86101(14) 0.74013(13) 0.42536(15)
C3_2 C 0.84996(17) 0.14250(15) 0.46739(17)
H1_2 H 0.883079 0.135651 0.471594
C5_2 C 0.88927(15) 0.70154(15) 0.41228(16)
H2_2 H 0.923071 0.705179 0.409920
C6_2 C 0.81563(16) 0.10736(14) 0.47785(15)
C8_2 C 0.79813(18) 0.27083(15) 0.39548(18)
H4_2 H 0.825245 0.255545 0.381586
C9_2 C 0.76912(17) 0.11876(16) 0.47394(19)
H5_2 H 0.745585 0.095674 0.482599
C12_2 C 0.88396(14) 0.78586(13) 0.44138(14)
N2_2 N 0.73433(14) 0.38711(12) 0.39014(16)
C13_2 C 0.81173(15) 0.73436(15) 0.42612(18)
H7_2 H 0.791779 0.761027 0.433360
C14_2 C 0.81897(16) 0.65115(14) 0.40540(17)
C15_2 C 0.73114(18) 0.26846(15) 0.44819(19)
H8_2 H 0.712097 0.251264 0.470677
C16_2 C 0.90469(16) 0.00713(16) 0.74196(15)
H9_2 H 0.895224 0.035318 0.758652
C18_2 C 0.78649(17) 0.19775(14) 0.44539(16)
C19_2 C 0.79113(16) 0.69027(15) 0.41649(19)
H11_2 H 0.757228 0.686994 0.417549
C20_2 C 0.75779(18) 0.42547(15) 0.4064(2)
H12_2 H 0.783194 0.425137 0.429128
C21_2 C 0.86825(17) 0.65747(15) 0.40259(18)
H13_2 H 0.887994 0.631098 0.393857
C22_2 C 0.89274(16) 0.00171(15) 0.69396(15)
H14_2 H 0.875459 0.026436 0.678065
C23_2 C 0.7956(3) 0.3310(3) 0.2936(2)
H15_2 H 0.804153 0.298029 0.284779
H16_2 H 0.809227 0.353276 0.269990
H17_2 H 0.760615 0.334303 0.293979
C24_2 C 0.6727(2) 0.33782(18) 0.4581(2)
H18_2 H 0.667130 0.369117 0.441475
C25_2 C 0.77147(17) 0.24653(15) 0.42921(17)
C26_2 C 0.74611(18) 0.33800(15) 0.40304(19)
C27_2 C 0.79713(17) 0.60293(15) 0.39877(18)
C28_2 C 0.93087(18) 0.01276(19) 0.89666(16)
C30_2 C 0.71751(19) 0.31471(16) 0.4355(2)
C31_2 C 0.83580(18) 0.18727(15) 0.45091(17)
H19_2 H 0.859202 0.210868 0.443349
C32_2 C 0.81524(19) 0.34220(18) 0.3425(2)
H20_2 H 0.811072 0.377494 0.347393
C37_2 C 0.91773(17) 0.00571(18) 0.84871(15)
H23_2 H 0.889452 0.020756 0.837056
C39_2 C 0.75903(18) 0.58847(16) 0.4274(2)
H24_2 H 0.746220 0.610517 0.450086
C40_2 C 0.70057(19) 0.40223(16) 0.3569(2)
H25_2 H 0.678979 0.382486 0.339379
C41_2 C 0.75438(18) 0.16368(16) 0.4575(2)
H26_2 H 0.721074 0.170377 0.454742
C42_2 C 0.81567(19) 0.57152(16) 0.3649(2)
H27_2 H 0.841526 0.581397 0.344951
C44_2 C 0.78632(18) 0.31774(16) 0.38100(18)
C45_2 C 0.6816(3) 0.3483(3) 0.5102(3)
H29_2 H 0.652431 0.361625 0.524687
H30_2 H 0.707791 0.371596 0.513192
H31_2 H 0.690399 0.318624 0.526903
C47_2 C 0.8684(2) 0.3323(2) 0.3453(3)
H35_2 H 0.879077 0.334995 0.378771
H36_2 H 0.885725 0.355679 0.325496
H37_2 H 0.874926 0.299858 0.333446
C48_2 C 0.6292(2) 0.3077(2) 0.4510(3)
H38_2 H 0.630962 0.279471 0.471912
H39_2 H 0.627455 0.297397 0.417347
H40_2 H 0.600565 0.326445 0.459033
O1 O 0.92886(9) 0.78680(9) 0.44167(10)
O5_2 O 0.87584(11) 0.04910(10) 0.49676(12)
O6_2 O 0.80102(11) 0.03167(10) 0.51287(11)
O7 O 0.85666(9) 0.81975(9) 0.45380(11)
C50_2 C 0.6980(2) 0.52723(18) 0.4575(2)
H44_2 H 0.679047 0.501770 0.440696
N3_2 N 0.73972(15) 0.46422(12) 0.38537(17)
C51_2 C 0.9009(2) 0.0449(2) 0.92911(17)
H45_2 H 0.920683 0.052118 0.958199
C52_2 C 0.75888(18) 0.51287(15) 0.3904(2)
C53_2 C 0.79632(19) 0.52475(16) 0.35972(19)
C54_2 C 0.73888(19) 0.54296(16) 0.4243(2)
C55_2 C 0.70421(19) 0.45003(16) 0.3542(2)
H46_2 H 0.685547 0.470501 0.334322
C56_2 C 0.6637(2) 0.5680(2) 0.4713(3)
H47_2 H 0.680192 0.590435 0.492782
H48_2 H 0.635581 0.554670 0.487650
H49_2 H 0.653438 0.584962 0.442155
C57_2 C 0.88808(19) 0.0922(2) 0.90620(19)
H50_2 H 0.917509 0.109238 0.897199
H51_2 H 0.869797 0.111710 0.929108
H52_2 H 0.868628 0.086513 0.877406
C58_2 C 0.8189(2) 0.49048(19) 0.3241(2)
H53_2 H 0.799081 0.460595 0.324101
C59_2 C 0.7194(3) 0.5056(2) 0.5033(3)
H54_2 H 0.740074 0.529295 0.518942
H55_2 H 0.738315 0.477138 0.494962
H56_2 H 0.693442 0.496404 0.525218
C60_2 C 0.8191(2) 0.5099(2) 0.2726(2)
H57_2 H 0.838659 0.539080 0.271204
H58_2 H 0.786197 0.517345 0.262765
H59_2 H 0.832612 0.485687 0.250948
C61_2 C 0.8689(3) 0.4765(3) 0.3390(3)
H60_2 H 0.890175 0.504322 0.336078
H61_2 H 0.880476 0.450665 0.318074
H62_2 H 0.868544 0.465397 0.372401
C62_2 C 0.8558(3) 0.0176(3) 0.9465(2)
H63_2 H 0.837553 0.006259 0.918630
H64_2 H 0.835755 0.039157 0.965763
Zn5 Zn 0.97580(2) 0.83696(2) 0.46366(2)
C35_2 C 0.97162(17) 0.97162(17) -0.000000
H21_2 H 0.947524 0.947523 -0.000002
N4_2 N 0.99536(15) 0.98701(14) 0.03826(13)
C63_2 C 0.95484(14) 0.89250(13) 0.38342(13)
C65_2 C 0.93045(15) 0.94236(16) 0.25938(15)
H67_2 H 0.905285 0.958913 0.243400
C66_2 C 0.96118(13) 0.90543(14) 0.33110(13)
C68_2 C 0.92530(15) 0.93064(15) 0.30736(14)
H69_2 H 0.897114 0.939863 0.324200
C71_2 C 0.97770(17) 0.94428(16) 0.18237(15)
C72_2 C 0.97176(15) 0.93039(15) 0.23399(14)
C73_2 C 0.95978(19) 0.9994(2) 0.11709(18)
C74_2 C 0.95555(18) 0.98501(18) 0.16487(16)
C76_2 C 0.98857(18) 0.97132(19) 0.08772(15)
O8_2 O 0.98901(9) 0.86886(10) 0.40260(9)
O9_2 O 0.91809(9) 0.90587(10) 0.40468(9)
H86_2 H 0.990114 0.865590 0.033825
N1_2 N 0.98701(14) 0.99536(15) 0.96174(13)
C4_2 C 0.89250(13) 0.95484(14) 0.61658(13)
C10_2 C 0.94236(16) 0.93045(15) 0.74062(15)
H6_2 H 0.958913 0.905285 0.756600
C11_2 C 0.90543(14) 0.96118(13) 0.66890(13)
C17_2 C 0.93064(15) 0.92530(15) 0.69264(14)
H10_2 H 0.939863 0.897114 0.675800
C29_2 C 0.94428(16) 0.97770(17) 0.81763(15)
C33_2 C 0.93039(15) 0.97176(15) 0.76601(14)
C34_2 C 0.9994(2) 0.95978(19) 0.88291(18)
C35_3 C 0.97162(17) 0.97162(17) 1.000000
H21_3 H 0.947524 0.947523 0.999998
C36_2 C 0.98501(18) 0.95555(18) 0.83513(16)
C38_2 C 0.97132(19) 0.98857(18) 0.91228(15)
O2_2 O 0.86886(10) 0.98901(9) 0.59740(9)
O3_2 O 0.85922(9) 0.93707(9) 0.48297(9)
O4_2 O 0.90587(10) 0.91809(9) 0.59532(9)
H65_2 H 0.865590 0.990114 0.966175
O11_2 O 0.93707(9) 0.85922(9) 0.51703(9)
C2_3 C 0.24013(13) 0.63899(14) 0.67536(15)
C5_3 C 0.20154(15) 0.61073(15) 0.66228(16)
H2_3 H 0.205179 0.576929 0.659920
C12_3 C 0.28586(13) 0.61604(14) 0.69138(14)
C13_3 C 0.23436(15) 0.68827(15) 0.67612(18)
H7_3 H 0.261027 0.708221 0.683360
C14_3 C 0.15115(14) 0.68103(16) 0.65540(17)
C19_3 C 0.19027(15) 0.70887(16) 0.66649(19)
H11_3 H 0.186994 0.742772 0.667549
C21_3 C 0.15747(15) 0.63175(17) 0.65259(18)
H13_3 H 0.131098 0.612006 0.643857
C27_3 C 0.10293(15) 0.70287(17) 0.64877(18)
C39_3 C 0.08847(16) 0.74097(18) 0.6774(2)
H24_3 H 0.110517 0.753780 0.700086
C42_3 C 0.07152(16) 0.68433(19) 0.6149(2)
H27_3 H 0.081397 0.658474 0.594951
O1_2 O 0.28680(9) 0.57114(9) 0.69167(10)
O7_2 O 0.31975(9) 0.64334(9) 0.70380(11)
C50_3 C 0.02723(18) 0.8020(2) 0.7075(2)
H44_3 H 0.001770 0.820953 0.690696
C52_3 C 0.01287(15) 0.74112(18) 0.6404(2)
C53_3 C 0.02475(16) 0.70368(19) 0.60972(19)
C54_3 C 0.04296(16) 0.76112(19) 0.6743(2)
C56_3 C 0.0680(2) 0.8363(2) 0.7213(3)
H47_3 H 0.090435 0.819808 0.742782
H48_3 H 0.054670 0.864419 0.737650
H49_3 H 0.084962 0.846562 0.692155
C59_3 C 0.0056(2) 0.7806(3) 0.7533(3)
H54_3 H 0.029295 0.759926 0.768942
C60_3 C 0.0099(2) 0.6809(2) 0.5226(2)
H57_3 H 0.039080 0.661341 0.521204
H58_3 H 0.017345 0.713803 0.512765
H60_3 H 0.004322 0.609825 0.586078
Zn5_2 Zn 0.33696(2) 0.52420(2) 0.71366(2)
Zn8 Zn 0.37211(2) 0.62789(2) 0.750000
N1_3 N 0.49536(15) 0.51299(14) 0.21174(13)
C7_3 C 0.52696(15) 0.47804(15) 0.22629(13)
H3_3 H 0.548400 0.460653 0.206257
H6_3 H 0.405285 0.541087 0.006600
H9_3 H 0.535318 0.604776 0.008652
C28_3 C 0.51276(19) 0.56913(18) 0.14666(16)
C29_3 C 0.47770(17) 0.55572(16) 0.06763(15)
C33_3 C 0.47176(15) 0.56961(15) 0.01601(14)
C34_3 C 0.45978(19) 0.5006(2) 0.13291(18)
C35_4 C 0.47162(17) 0.52838(17) 0.250000
H21_4 H 0.447523 0.552476 0.249998
C36_3 C 0.45555(18) 0.51499(18) 0.08513(16)
H22_3 H 0.436762 0.496107 0.063823
C37_3 C 0.50571(18) 0.58227(17) 0.09871(15)
H23_3 H 0.520756 0.610548 0.087056
C38_3 C 0.48857(18) 0.52868(19) 0.16228(15)
C43_3 C 0.4342(2) 0.4545(2) 0.1495(2)
H28_3 H 0.434961 0.454070 0.185472
C46_3 C 0.4612(3) 0.4101(2) 0.1319(2)
H32_3 H 0.461531 0.409792 0.096609
H33_3 H 0.445085 0.381164 0.143694
H34_3 H 0.494182 0.410913 0.143936
C49_3 C 0.3825(3) 0.4538(4) 0.1345(4)
H41_3 H 0.380371 0.456905 0.099431
H42_3 H 0.365458 0.480496 0.149728
H43_3 H 0.367835 0.423382 0.144432
C51_3 C 0.5449(2) 0.5991(2) 0.17911(17)
H45_3 H 0.552118 0.579317 0.208199
C57_3 C 0.5922(2) 0.61192(19) 0.15620(19)
H50_3 H 0.609238 0.582491 0.147199
H51_3 H 0.611710 0.630203 0.179108
H52_3 H 0.586513 0.631372 0.127406
C62_3 C 0.5176(3) 0.6442(3) 0.1965(2)
H63_3 H 0.506259 0.662447 0.168630
H64_3 H 0.539157 0.664245 0.215763
H65_3 H 0.490114 0.634410 0.216175
N4_3 N 0.48701(14) 0.50464(15) 0.28826(13)
C63_3 C 0.39250(13) 0.54516(14) 0.63342(13)
C64_3 C 0.52196(15) 0.47304(15) 0.27371(13)
H66_3 H 0.539347 0.451600 0.293743
C65_3 C 0.44236(16) 0.56955(15) 0.50938(15)
H67_3 H 0.458913 0.594715 0.493400
C66_3 C 0.40543(14) 0.53882(13) 0.58110(13)
C67_3 C 0.40469(16) 0.49287(16) 0.50804(15)
H68_3 H 0.395224 0.464682 0.491348
C68_3 C 0.43064(15) 0.57470(15) 0.55736(14)
H69_3 H 0.439863 0.602886 0.574200
C69_3 C 0.39274(16) 0.49829(15) 0.55604(15)
H70_3 H 0.375459 0.473564 0.571935
C70_3 C 0.43087(18) 0.48724(19) 0.35334(16)
C71_3 C 0.44428(16) 0.52230(17) 0.43237(15)
C72_3 C 0.43039(15) 0.52824(15) 0.48399(14)
C73_3 C 0.4994(2) 0.54022(19) 0.36709(18)
C74_3 C 0.48501(18) 0.54445(18) 0.41487(16)
H71_3 H 0.503893 0.563238 0.436177
C75_3 C 0.41773(17) 0.49429(18) 0.40129(15)
H72_3 H 0.389452 0.479244 0.412944
C76_3 C 0.47132(19) 0.51143(18) 0.33772(15)
C77_3 C 0.5455(2) 0.5658(2) 0.3505(2)
H73_3 H 0.545930 0.565039 0.314528
C78_3 C 0.5899(2) 0.5388(3) 0.3681(2)
H74_3 H 0.590208 0.538469 0.403391
H75_3 H 0.618836 0.554915 0.356306
H76_3 H 0.589087 0.505818 0.356064
C79_3 C 0.5462(4) 0.6175(3) 0.3655(4)
H77_3 H 0.543095 0.619629 0.400569
H78_3 H 0.519504 0.634542 0.350272
H79_3 H 0.576618 0.632165 0.355568
O8_3 O 0.36886(10) 0.51099(9) 0.65260(9)
O9_3 O 0.40587(10) 0.58191(9) 0.65468(9)
C80_3 C 0.4009(2) 0.4551(2) 0.32089(17)
H80_3 H 0.420683 0.447882 0.291801
C81_3 C 0.38808(19) 0.4078(2) 0.34380(19)
H81_3 H 0.417509 0.390762 0.352801
H82_3 H 0.369797 0.388290 0.320892
H83_3 H 0.368628 0.413487 0.372594
C82_3 C 0.3558(3) 0.4824(3) 0.3035(2)
H84_3 H 0.337553 0.493741 0.331370
H85_3 H 0.335755 0.460843 0.284237
H86_3 H 0.365590 0.509886 0.283825
Zn1_2 Zn 0.47580(2) 0.66304(2) 0.78634(2)
C1_3 C 0.55908(14) 0.66777(15) 0.74597(15)
C3_3 C 0.64250(15) 0.65004(17) 0.71739(17)
H1_3 H 0.635651 0.616921 0.721594
C4_3 C 0.45484(14) 0.60750(13) 0.86658(13)
C6_3 C 0.60736(14) 0.68437(16) 0.72785(15)
C8_3 C 0.77083(15) 0.70187(18) 0.64548(18)
H4_3 H 0.755545 0.674755 0.631586
C9_3 C 0.61876(16) 0.73088(17) 0.72394(19)
H5_3 H 0.595674 0.754415 0.732599
C10_3 C 0.43045(15) 0.55764(16) 0.99062(15)
C11_3 C 0.46118(13) 0.59457(14) 0.91890(13)
N2_3 N 0.88711(12) 0.76567(14) 0.64014(16)
C15_3 C 0.76846(15) 0.76886(18) 0.69819(19)
H8_3 H 0.751264 0.787903 0.720677
C16_3 C 0.50713(16) 0.59531(16) 0.99196(15)
C17_3 C 0.42530(15) 0.56936(15) 0.94264(14)
H10_3 H 0.397114 0.560137 0.925800
C18_3 C 0.69775(14) 0.71351(17) 0.69539(16)
C20_3 C 0.92547(15) 0.74221(18) 0.6564(2)
H12_3 H 0.925137 0.716806 0.679128
C22_3 C 0.50171(15) 0.60726(16) 0.94396(15)
H14_3 H 0.526436 0.624541 0.928065
C23_3 C 0.8310(3) 0.7044(3) 0.5436(2)
H15_3 H 0.798029 0.695847 0.534779
H16_3 H 0.853276 0.690773 0.519990
H17_3 H 0.834303 0.739385 0.543979
C24_3 C 0.83782(18) 0.8273(2) 0.7081(2)
H18_3 H 0.869117 0.832870 0.691475
C25_3 C 0.74653(15) 0.72853(17) 0.67921(17)
C26_3 C 0.83800(15) 0.75389(18) 0.65304(19)
C30_3 C 0.81471(16) 0.78249(19) 0.6855(2)
C31_3 C 0.68727(15) 0.66420(18) 0.70091(17)
H19_3 H 0.710868 0.640798 0.693349
C32_3 C 0.84220(18) 0.68476(19) 0.5925(2)
H20_3 H 0.877494 0.688928 0.597393
C40_3 C 0.90223(16) 0.79943(19) 0.6069(2)
H25_3 H 0.882486 0.821021 0.589379
C41_3 C 0.66368(16) 0.74562(18) 0.7075(2)
H26_3 H 0.670377 0.778926 0.704742
C44_3 C 0.81774(16) 0.71368(18) 0.63100(18)
C45_3 C 0.8483(3) 0.8184(3) 0.7602(3)
H29_3 H 0.861625 0.847569 0.774687
H30_3 H 0.871596 0.792209 0.763192
H31_3 H 0.818624 0.809601 0.776903
C47_3 C 0.8323(2) 0.6316(2) 0.5953(3)
H35_3 H 0.834995 0.620923 0.628771
H36_3 H 0.855679 0.614275 0.575496
H37_3 H 0.799858 0.625074 0.583446
C48_3 C 0.8077(2) 0.8708(2) 0.7010(3)
H38_3 H 0.779471 0.869038 0.721912
H39_3 H 0.797397 0.872545 0.667347
H40_3 H 0.826445 0.899435 0.709033
O2_3 O 0.48901(9) 0.63114(10) 0.84740(9)
O3_3 O 0.43707(9) 0.64078(9) 0.73297(9)
O4_3 O 0.41809(9) 0.59413(10) 0.84532(9)
O5_3 O 0.54910(10) 0.62416(11) 0.74676(12)
O6_3 O 0.53167(10) 0.69898(11) 0.76287(11)
N3_3 N 0.96422(12) 0.76028(15) 0.63537(17)
C55_3 C 0.95003(16) 0.79579(19) 0.6042(2)
H46_3 H 0.970501 0.814453 0.584322
C58_3 C 0.99048(19) 0.6811(2) 0.5741(2)
H53_3 H 0.960595 0.700919 0.574101
H55_3 H 0.977138 0.761685 0.744962
H56_3 H 0.996404 0.806558 0.775218
H59_3 H 0.985687 0.667388 0.500948
C61_3 C 0.9765(3) 0.6311(3) 0.5890(3)
H61_3 H 0.950665 0.619524 0.568074
H62_3 H 0.965397 0.631456 0.622401
C83_3 C 0.33223(15) 0.44092(14) 0.75403(15)
C85_3 C 0.34996(17) 0.35750(15) 0.78261(17)
H87_3 H 0.383079 0.364349 0.778406
C87_3 C 0.31563(16) 0.39264(14) 0.77215(15)
C88_3 C 0.29813(18) 0.22917(15) 0.85452(18)
H89_3 H 0.325245 0.244455 0.868414
C89_3 C 0.26912(17) 0.38124(16) 0.77606(19)
H90_3 H 0.245585 0.404326 0.767401
N5_3 N 0.23433(14) 0.11289(12) 0.85986(16)
C93_3 C 0.23114(18) 0.23154(15) 0.80181(19)
H92_3 H 0.212097 0.248736 0.779323
C94_3 C 0.28649(17) 0.30225(14) 0.80461(16)
C96_3 C 0.25779(18) 0.07453(15) 0.8436(2)
H94_3 H 0.283194 0.074863 0.820872
C98_3 C 0.2956(3) 0.1690(3) 0.9564(2)
H96_3 H 0.304153 0.201971 0.965221
H97_3 H 0.309227 0.146724 0.980010
H98_3 H 0.260615 0.165697 0.956021
C99_3 C 0.1727(2) 0.16218(18) 0.7919(2)
H99_3 H 0.167130 0.130883 0.808525
C100_3 C 0.27147(17) 0.25347(15) 0.82079(17)
C101_3 C 0.24611(18) 0.16200(15) 0.84696(19)
C103_3 C 0.21751(19) 0.18529(16) 0.8145(2)
C104_3 C 0.33580(18) 0.31273(15) 0.79909(17)
H100_3 H 0.359202 0.289132 0.806651
C105_3 C 0.31524(19) 0.15780(18) 0.9075(2)
H101_3 H 0.311072 0.122506 0.902607
C107_3 C 0.20057(19) 0.09777(16) 0.8931(2)
H103_3 H 0.178979 0.117514 0.910621
C108_3 C 0.25438(18) 0.33632(16) 0.7925(2)
H104_3 H 0.221074 0.329623 0.795258
C110_3 C 0.28632(18) 0.18226(16) 0.86900(18)
C111_3 C 0.1816(3) 0.1517(3) 0.7398(3)
H106_3 H 0.152431 0.138375 0.725313
H107_3 H 0.207791 0.128404 0.736808
H108_3 H 0.190399 0.181376 0.723097
C112_3 C 0.3684(2) 0.1677(2) 0.9047(3)
H109_3 H 0.379077 0.165005 0.871229
H110_3 H 0.385725 0.144321 0.924504
H111_3 H 0.374926 0.200142 0.916554
C113_3 C 0.1292(2) 0.1923(2) 0.7990(3)
H112_3 H 0.130962 0.220529 0.778088
H113_3 H 0.127455 0.202603 0.832653
H114_3 H 0.100565 0.173555 0.790967
O11_3 O 0.35922(9) 0.56293(9) 0.76703(9)
O12_3 O 0.37584(11) 0.45090(10) 0.75324(12)
O13_3 O 0.30102(11) 0.46833(10) 0.73713(11)
N6_3 N 0.23972(15) 0.03578(12) 0.86463(17)
C118_3 C 0.20421(19) 0.04997(16) 0.8958(2)
H116_3 H 0.185547 0.029499 0.915678
C120_3 C 0.3189(2) 0.00952(19) 0.9259(2)
H120_3 H 0.299081 0.039405 0.925899
H122_3 H 0.238315 0.022862 0.755038
H123_3 H 0.193442 0.003596 0.724782
H126_3 H 0.332612 0.014313 0.999052
C123_3 C 0.3689(3) 0.0235(3) 0.9110(3)
H128_3 H 0.380476 0.049335 0.931926
H129_3 H 0.368544 0.034603 0.877599
O16_2 O 0.42886(9) 0.71320(9) 0.80833(10)
O19_2 O 0.35666(9) 0.68025(9) 0.79620(11)
C84_3 C 0.36101(14) 0.75987(13) 0.82464(15)
C86_3 C 0.38927(15) 0.79846(15) 0.83772(16)
H88_3 H 0.423071 0.794821 0.840080
C90_3 C 0.38396(14) 0.71414(13) 0.80862(14)
C91_3 C 0.31173(15) 0.76564(15) 0.82388(18)
H91_3 H 0.291779 0.738973 0.816640
C92_3 C 0.31897(16) 0.84885(14) 0.84460(17)
C95_3 C 0.29113(16) 0.80973(15) 0.83351(19)
H93_3 H 0.257228 0.813006 0.832451
C97_3 C 0.36825(17) 0.84253(15) 0.84741(18)
H95_3 H 0.387994 0.868902 0.856143
C102_3 C 0.29713(17) 0.89707(15) 0.85123(18)
C106_3 C 0.25903(18) 0.91153(16) 0.8226(2)
H102_3 H 0.246220 0.889483 0.799914
C109_3 C 0.31567(19) 0.92848(16) 0.8851(2)
H105_3 H 0.341526 0.918603 0.905049
C114_3 C 0.1980(2) 0.97277(18) 0.7925(2)
H115_3 H 0.179047 0.998230 0.809304
C115_3 C 0.25888(18) 0.98713(15) 0.8596(2)
C116_3 C 0.29632(19) 0.97525(16) 0.89028(19)
C117_3 C 0.23888(19) 0.95704(16) 0.8257(2)
C119_3 C 0.1637(2) 0.9320(2) 0.7787(3)
H117_3 H 0.180192 0.909565 0.757218
H118_3 H 0.135581 0.945330 0.762350
H119_3 H 0.153438 0.915038 0.807845
C121_3 C 0.2194(3) 0.9944(2) 0.7467(3)
H121_3 H 0.240074 0.970705 0.731058
C122_3 C 0.3191(2) 0.9901(2) 0.9774(2)
H124_3 H 0.338659 0.960920 0.978796
H125_3 H 0.286197 0.982655 0.987235
H127_3 H 0.390175 0.995678 0.913922
C84_4 C 0.63899(14) 0.24013(13) 0.32464(15)
C86_4 C 0.61073(15) 0.20154(15) 0.33772(16)
H88_4 H 0.576929 0.205179 0.340080
C90_4 C 0.61604(14) 0.28586(13) 0.30862(14)
C91_4 C 0.68827(15) 0.23436(15) 0.32388(18)
H91_4 H 0.708221 0.261027 0.316640
C92_4 C 0.68103(16) 0.15115(14) 0.34460(17)
C95_4 C 0.70887(16) 0.19027(15) 0.33351(19)
H93_4 H 0.742772 0.186994 0.332451
C97_4 C 0.63175(17) 0.15747(15) 0.34741(18)
H95_4 H 0.612006 0.131098 0.356143
C102_4 C 0.70287(17) 0.10293(15) 0.35123(18)
C106_4 C 0.74097(18) 0.08847(16) 0.3226(2)
H102_4 H 0.753780 0.110517 0.299914
C109_4 C 0.68433(19) 0.07152(16) 0.3851(2)
H105_4 H 0.658474 0.081397 0.405049
O10_2 O 0.57114(9) 0.28680(9) 0.30833(10)
O14_2 O 0.64334(9) 0.31975(9) 0.29620(11)
C114_4 C 0.8020(2) 0.02723(18) 0.2925(2)
H115_4 H 0.820953 0.001770 0.309304
C115_4 C 0.74112(18) 0.01287(15) 0.3596(2)
C116_4 C 0.70368(19) 0.02475(16) 0.39028(19)
C117_4 C 0.76112(19) 0.04296(16) 0.3257(2)
C119_4 C 0.8363(2) 0.0680(2) 0.2787(3)
H117_4 H 0.819808 0.090435 0.257218
H118_4 H 0.864419 0.054670 0.262350
H119_4 H 0.846562 0.084962 0.307845
C121_4 C 0.7806(3) 0.0056(2) 0.2467(3)
H121_4 H 0.759926 0.029295 0.231058
C122_4 C 0.6809(2) 0.0099(2) 0.4774(2)
H124_4 H 0.661341 0.039080 0.478796
H125_4 H 0.713803 0.017345 0.487235
H127_4 H 0.609825 0.004322 0.413922
Zn4_2 Zn 0.52420(2) 0.33696(2) 0.28634(2)
Zn7_2 Zn 0.62789(2) 0.37211(2) 0.250000
C63_4 C 0.60750(13) 0.45484(14) 0.13342(13)
C65_4 C 0.55764(16) 0.43045(15) 0.00938(15)
C66_4 C 0.59457(14) 0.46118(13) 0.08110(13)
C67_4 C 0.59531(16) 0.50713(16) 0.00804(15)
C68_4 C 0.56936(15) 0.42530(15) 0.05736(14)
H69_4 H 0.560137 0.397114 0.074200
C69_4 C 0.60726(16) 0.50171(15) 0.05604(15)
H70_4 H 0.624541 0.526436 0.071935
O8_4 O 0.63114(10) 0.48901(9) 0.15260(9)
O9_4 O 0.59413(10) 0.41809(9) 0.15468(9)
Zn6_2 Zn 0.66304(2) 0.47580(2) 0.21366(2)
C1_4 C 0.44092(14) 0.33223(15) 0.24597(15)
N1_4 N 0.50464(15) 0.48701(14) 0.71174(13)
C3_4 C 0.35750(15) 0.34996(17) 0.21739(17)
H1_4 H 0.364349 0.383079 0.221594
C4_4 C 0.54516(14) 0.39250(13) 0.36658(13)
C6_4 C 0.39264(14) 0.31563(16) 0.22785(15)
C7_4 C 0.47304(15) 0.52196(15) 0.72629(13)
H3_4 H 0.451600 0.539347 0.706257
C8_4 C 0.22917(15) 0.29813(18) 0.14548(18)
H4_4 H 0.244455 0.325245 0.131586
C9_4 C 0.38124(16) 0.26912(17) 0.22394(19)
H5_4 H 0.404326 0.245585 0.232599
C10_4 C 0.56955(15) 0.44236(16) 0.49062(15)
H6_4 H 0.594715 0.458913 0.506600
C11_4 C 0.53882(13) 0.40543(14) 0.41890(13)
N2_4 N 0.11289(12) 0.23433(14) 0.14014(16)
C15_4 C 0.23154(15) 0.23114(18) 0.19819(19)
H8_4 H 0.248736 0.212097 0.220677
C16_4 C 0.49287(16) 0.40469(16) 0.49196(15)
H9_4 H 0.464682 0.395224 0.508652
C17_4 C 0.57470(15) 0.43064(15) 0.44264(14)
H10_4 H 0.602886 0.439863 0.425800
C18_4 C 0.30225(14) 0.28649(17) 0.19539(16)
C20_4 C 0.07453(15) 0.25779(18) 0.1564(2)
H12_4 H 0.074863 0.283194 0.179128
C22_4 C 0.49829(15) 0.39274(16) 0.44396(15)
H14_4 H 0.473564 0.375459 0.428065
C23_4 C 0.1690(3) 0.2956(3) 0.0436(2)
H15_4 H 0.201971 0.304153 0.034779
H16_4 H 0.146724 0.309227 0.019990
H17_4 H 0.165697 0.260615 0.043979
C24_4 C 0.16218(18) 0.1727(2) 0.2081(2)
H18_4 H 0.130883 0.167130 0.191475
C25_4 C 0.25347(15) 0.27147(17) 0.17921(17)
C26_4 C 0.16200(15) 0.24611(18) 0.15304(19)
C28_4 C 0.48724(19) 0.43087(18) 0.64666(16)
C29_4 C 0.52230(17) 0.44428(16) 0.56763(15)
C30_4 C 0.18529(16) 0.21751(19) 0.1855(2)
C31_4 C 0.31273(15) 0.33580(18) 0.20091(17)
H19_4 H 0.289132 0.359202 0.193349
C32_4 C 0.15780(18) 0.31524(19) 0.0925(2)
H20_4 H 0.122506 0.311072 0.097393
C33_4 C 0.52824(15) 0.43039(15) 0.51601(14)
C34_4 C 0.54022(19) 0.4994(2) 0.63291(18)
C35_5 C 0.52838(17) 0.47162(17) 0.750000
H21_5 H 0.552477 0.447524 0.749998
C36_4 C 0.54445(18) 0.48501(18) 0.58513(16)
H22_4 H 0.563238 0.503893 0.563823
C37_4 C 0.49429(18) 0.41773(17) 0.59871(15)
H23_4 H 0.479244 0.389452 0.587056
C38_4 C 0.51143(18) 0.47132(19) 0.66228(15)
C40_4 C 0.09777(16) 0.20057(19) 0.1069(2)
H25_4 H 0.117514 0.178979 0.089379
C41_4 C 0.33632(16) 0.25438(18) 0.2075(2)
H26_4 H 0.329623 0.221074 0.204742
C43_4 C 0.5658(2) 0.5455(2) 0.6495(2)
H28_4 H 0.565039 0.545930 0.685472
C44_4 C 0.18226(16) 0.28632(18) 0.13100(18)
C45_4 C 0.1517(3) 0.1816(3) 0.2602(3)
H29_4 H 0.138375 0.152431 0.274687
H30_4 H 0.128404 0.207791 0.263192
H31_4 H 0.181376 0.190399 0.276903
C46_4 C 0.5388(3) 0.5899(2) 0.6319(2)
H32_4 H 0.538469 0.590208 0.596609
H33_4 H 0.554915 0.618836 0.643694
H34_4 H 0.505818 0.589087 0.643936
C47_4 C 0.1677(2) 0.3684(2) 0.0953(3)
H35_4 H 0.165005 0.379077 0.128771
H36_4 H 0.144321 0.385725 0.075496
H37_4 H 0.200142 0.374926 0.083446
C48_4 C 0.1923(2) 0.1292(2) 0.2010(3)
H38_4 H 0.220529 0.130962 0.221912
H39_4 H 0.202603 0.127455 0.167347
H40_4 H 0.173555 0.100565 0.209033
C49_4 C 0.6175(3) 0.5462(4) 0.6345(4)
H41_4 H 0.619629 0.543095 0.599431
H42_4 H 0.634542 0.519504 0.649728
H43_4 H 0.632165 0.576618 0.644432
O2_4 O 0.51099(9) 0.36886(10) 0.34740(9)
O3_4 O 0.56293(9) 0.35922(9) 0.23297(9)
O4_4 O 0.58191(9) 0.40587(10) 0.34532(9)
O5_4 O 0.45090(10) 0.37584(11) 0.24676(12)
O6_4 O 0.46833(10) 0.30102(11) 0.26287(11)
N3_4 N 0.03578(12) 0.23972(15) 0.13537(17)
C51_4 C 0.4551(2) 0.4009(2) 0.67911(17)
H45_4 H 0.447882 0.420683 0.708199
C55_4 C 0.04997(16) 0.20421(19) 0.1042(2)
H46_4 H 0.029499 0.185547 0.084322
C57_4 C 0.4078(2) 0.38808(19) 0.65620(19)
H50_4 H 0.390762 0.417509 0.647199
H51_4 H 0.388290 0.369797 0.679108
H52_4 H 0.413487 0.368628 0.627406
C58_4 C 0.00952(19) 0.3189(2) 0.0741(2)
H53_4 H 0.039405 0.299081 0.074101
H55_4 H 0.022862 0.238315 0.244962
H56_4 H 0.003596 0.193442 0.275218
H59_4 H 0.014313 0.332612 0.000948
C61_4 C 0.0235(3) 0.3689(3) 0.0890(3)
H61_4 H 0.049335 0.380476 0.068074
H62_4 H 0.034603 0.368544 0.122401
C62_4 C 0.4824(3) 0.3558(3) 0.6965(2)
H63_4 H 0.493741 0.337553 0.668630
H64_4 H 0.460843 0.335755 0.715763
H65_4 H 0.509886 0.365590 0.716175
N4_4 N 0.51299(14) 0.49536(15) 0.78826(13)
C64_4 C 0.47804(15) 0.52696(15) 0.77371(13)
H66_4 H 0.460653 0.548400 0.793743
H67_4 H 0.541087 0.405285 0.993400
H68_4 H 0.604776 0.535318 0.991348
C70_4 C 0.56913(18) 0.51276(19) 0.85334(16)
C71_4 C 0.55572(16) 0.47770(17) 0.93237(15)
C72_4 C 0.56961(15) 0.47176(15) 0.98399(14)
C73_4 C 0.5006(2) 0.45978(19) 0.86709(18)
C74_4 C 0.51499(18) 0.45555(18) 0.91487(16)
H71_4 H 0.496107 0.436762 0.936177
C75_4 C 0.58227(17) 0.50571(18) 0.90129(15)
H72_4 H 0.610548 0.520756 0.912944
C76_4 C 0.52868(19) 0.48857(18) 0.83772(15)
C77_4 C 0.4545(2) 0.4342(2) 0.8505(2)
H73_4 H 0.454070 0.434961 0.814528
C78_4 C 0.4101(2) 0.4612(3) 0.8681(2)
H74_4 H 0.409792 0.461531 0.903391
H75_4 H 0.381164 0.445085 0.856306
H76_4 H 0.410913 0.494182 0.856064
C79_4 C 0.4538(4) 0.3825(3) 0.8655(4)
H77_4 H 0.456905 0.380371 0.900569
H78_4 H 0.480496 0.365458 0.850272
H79_4 H 0.423382 0.367835 0.855568
C80_4 C 0.5991(2) 0.5449(2) 0.82089(17)
H80_4 H 0.579317 0.552118 0.791801
C81_4 C 0.61192(19) 0.5922(2) 0.84380(19)
H81_4 H 0.582491 0.609238 0.852801
H82_4 H 0.630203 0.611710 0.820892
H83_4 H 0.631372 0.586513 0.872594
C82_4 C 0.6442(3) 0.5176(3) 0.8035(2)
H84_4 H 0.662447 0.506259 0.831370
H85_4 H 0.664245 0.539157 0.784237
H86_4 H 0.634410 0.490114 0.783825
C83_4 C 0.66777(15) 0.55908(14) 0.25403(15)
C85_4 C 0.65004(17) 0.64250(15) 0.28261(17)
H87_4 H 0.616921 0.635651 0.278406
C87_4 C 0.68437(16) 0.60736(14) 0.27215(15)
C88_4 C 0.70187(18) 0.77083(15) 0.35452(18)
H89_4 H 0.674755 0.755545 0.368414
C89_4 C 0.73088(17) 0.61876(16) 0.27606(19)
H90_4 H 0.754415 0.595674 0.267401
N5_4 N 0.76567(14) 0.88711(12) 0.35986(16)
C93_4 C 0.76886(18) 0.76846(15) 0.30181(19)
H92_4 H 0.787903 0.751264 0.279323
C94_4 C 0.71351(17) 0.69775(14) 0.30461(16)
C96_4 C 0.74221(18) 0.92547(15) 0.3436(2)
H94_4 H 0.716806 0.925137 0.320872
C98_4 C 0.7044(3) 0.8310(3) 0.4564(2)
H96_4 H 0.695847 0.798029 0.465221
H97_4 H 0.690773 0.853276 0.480010
H98_4 H 0.739385 0.834303 0.456021
C99_4 C 0.8273(2) 0.83782(18) 0.2919(2)
H99_4 H 0.832870 0.869117 0.308525
C100_4 C 0.72853(17) 0.74653(15) 0.32079(17)
C101_4 C 0.75389(18) 0.83800(15) 0.34696(19)
C103_4 C 0.78249(19) 0.81471(16) 0.3145(2)
C104_4 C 0.66420(18) 0.68727(15) 0.29909(17)
H100_4 H 0.640798 0.710868 0.306651
C105_4 C 0.68476(19) 0.84220(18) 0.4075(2)
H101_4 H 0.688928 0.877494 0.402607
C107_4 C 0.79943(19) 0.90223(16) 0.3931(2)
H103_4 H 0.821021 0.882486 0.410621
C108_4 C 0.74562(18) 0.66368(16) 0.2925(2)
H104_4 H 0.778926 0.670377 0.295258
C110_4 C 0.71368(18) 0.81774(16) 0.36900(18)
C111_4 C 0.8184(3) 0.8483(3) 0.2398(3)
H106_4 H 0.847569 0.861625 0.225313
H107_4 H 0.792209 0.871596 0.236808
H108_4 H 0.809601 0.818624 0.223097
C112_4 C 0.6316(2) 0.8323(2) 0.4047(3)
H109_4 H 0.620923 0.834995 0.371229
H110_4 H 0.614275 0.855679 0.424504
H111_4 H 0.625074 0.799858 0.416554
C113_4 C 0.8708(2) 0.8077(2) 0.2990(3)
H112_4 H 0.869038 0.779471 0.278088
H113_4 H 0.872545 0.797397 0.332653
H114_4 H 0.899435 0.826445 0.290967
O11_4 O 0.64078(9) 0.43707(9) 0.26703(9)
O12_4 O 0.62416(11) 0.54910(10) 0.25324(12)
O13_4 O 0.69898(11) 0.53167(10) 0.23713(11)
N6_4 N 0.76028(15) 0.96422(12) 0.36463(17)
C118_4 C 0.79579(19) 0.95003(16) 0.3958(2)
H116_4 H 0.814453 0.970501 0.415678
C120_4 C 0.6811(2) 0.99048(19) 0.4259(2)
H120_4 H 0.700919 0.960595 0.425899
H122_4 H 0.761685 0.977138 0.255038
H123_4 H 0.806558 0.996404 0.224782
H126_4 H 0.667388 0.985687 0.499052
C123_4 C 0.6311(3) 0.9765(3) 0.4110(3)
H128_4 H 0.619524 0.950665 0.431926
H129_4 H 0.631456 0.965397 0.377599
O15_2 O 0.71320(9) 0.42886(9) 0.19167(10)
O18_2 O 0.68025(9) 0.35666(9) 0.20380(11)
C2_4 C 0.75987(13) 0.36101(14) 0.17536(15)
C5_4 C 0.79846(15) 0.38927(15) 0.16228(16)
H2_4 H 0.794821 0.423071 0.159920
C12_4 C 0.71414(13) 0.38396(14) 0.19138(14)
C13_4 C 0.76564(15) 0.31173(15) 0.17612(18)
H7_4 H 0.738973 0.291779 0.183360
C14_4 C 0.84885(14) 0.31897(16) 0.15540(17)
C19_4 C 0.80973(15) 0.29113(16) 0.16649(19)
H11_4 H 0.813006 0.257228 0.167549
C21_4 C 0.84253(15) 0.36825(17) 0.15259(18)
H13_4 H 0.868902 0.387994 0.143857
C27_4 C 0.89707(15) 0.29713(17) 0.14877(18)
C39_4 C 0.91153(16) 0.25903(18) 0.1774(2)
H24_4 H 0.889483 0.246220 0.200086
C42_4 C 0.92848(16) 0.31567(19) 0.1149(2)
H27_4 H 0.918603 0.341526 0.094951
C50_4 C 0.97277(18) 0.1980(2) 0.2075(2)
H44_4 H 0.998230 0.179047 0.190696
C52_4 C 0.98713(15) 0.25888(18) 0.1404(2)
C53_4 C 0.97525(16) 0.29632(19) 0.10972(19)
C54_4 C 0.95704(16) 0.23888(19) 0.1743(2)
C56_4 C 0.9320(2) 0.1637(2) 0.2213(3)
H47_4 H 0.909565 0.180192 0.242782
H48_4 H 0.945330 0.135581 0.237650
H49_4 H 0.915038 0.153438 0.192155
C59_4 C 0.9944(2) 0.2194(3) 0.2533(3)
H54_4 H 0.970705 0.240074 0.268942
C60_4 C 0.9901(2) 0.3191(2) 0.0226(2)
H57_4 H 0.960920 0.338659 0.021204
H58_4 H 0.982655 0.286197 0.012765
H60_4 H 0.995678 0.390175 0.086078
O20 O 0.3098(12) 0.3106(9) 0.0022(15)
N7 N 0.3004(4) 0.3314(4) 0.0404(5)
O21 O 0.3185(3) 0.3348(5) 0.0805(4)
O22 O 0.2700(4) 0.3610(5) 0.0332(6)
O20_2 O 0.6902(12) 0.6894(9) 0.5022(15)
N7_2 N 0.6996(4) 0.6686(4) 0.5404(5)
O21_2 O 0.6815(3) 0.6652(5) 0.5805(4)
O22_2 O 0.7300(4) 0.6390(5) 0.5332(6)
O20_3 O 0.1894(9) 0.8098(12) 0.7522(15)
N7_3 N 0.1686(4) 0.8004(4) 0.7904(5)
O21_3 O 0.1652(5) 0.8185(3) 0.8305(4)
O22_3 O 0.1390(5) 0.7700(4) 0.7832(6)
O20_4 O 0.8106(9) 0.1902(12) 0.2522(15)
N7_4 N 0.8314(4) 0.1996(4) 0.2904(5)
O21_4 O 0.8348(5) 0.1815(3) 0.3305(4)
O22_4 O 0.8610(5) 0.2300(4) 0.2832(6)
O20_5 O 0.1902(12) 0.8106(9) 0.7478(15)
N7_5 N 0.1996(4) 0.8314(4) 0.7096(5)
O21_5 O 0.1815(3) 0.8348(5) 0.6695(4)
O22_5 O 0.2300(4) 0.8610(5) 0.7168(6)
O20_6 O 0.8098(12) 0.1894(9) 0.2478(15)
N7_6 N 0.8004(4) 0.1686(4) 0.2096(5)
O21_6 O 0.8185(3) 0.1652(5) 0.1695(4)
O22_6 O 0.7700(4) 0.1390(5) 0.2168(6)
O20_7 O 0.3106(9) 0.3098(12) 0.9978(15)
N7_7 N 0.3314(4) 0.3004(4) 0.9596(5)
O21_7 O 0.3348(5) 0.3185(3) 0.9195(4)
O22_7 O 0.3610(5) 0.2700(4) 0.9668(6)
O20_8 O 0.6894(9) 0.6902(12) 0.4978(15)
N7_8 N 0.6686(4) 0.6996(4) 0.4596(5)
O21_8 O 0.6652(5) 0.6815(3) 0.4195(4)
O22_8 O 0.6390(5) 0.7300(4) 0.4668(6)
loop_
_geom_bond_atom_site_label_1
_geom_bond_atom_site_label_2
_geom_bond_site_symmetry_1
_geom_bond_site_symmetry_2
Zn1 O2 1_555 1_555
C4 C11 1_555 1_555
C10 H6 1_555 1_555
C11 C17 1_555 1_555
C17 C10 1_555 1_555
H10 C17 1_555 1_555
C29 C33 1_555 1_555
C33 C10 1_555 1_555
C34 C36 1_555 1_555
C35 N1 1_555 1_555
H21 C35 1_555 1_555
C36 C29 1_555 1_555
C38 N1 1_555 1_555
O2 C4 1_555 1_555
O4 C4 1_555 1_555
N4 C35 1_555 1_555
C63 C66 1_555 1_555
C65 H67 1_555 1_555
C66 C68 1_555 1_555
C68 C65 1_555 1_555
H69 C68 1_555 1_555
C71 C72 1_555 1_555
C72 C65 1_555 1_555
C73 C74 1_555 1_555
C74 C71 1_555 1_555
C76 N4 1_555 1_555
O8 C63 1_555 1_555
O9 C63 1_555 1_555
O11 Zn2 1_555 1_555
Zn6 O8 1_555 1_555
O16 Zn1 1_555 1_555
O19 Zn2 1_555 1_555
C34 C38 1_555 1_555
C73 C76 1_555 1_555
Zn2_2 O3 1_555 1_555
O15 Zn6 1_555 1_555
O18 Zn2_2 1_555 1_555
C16 H9 1_555 1_555
H14 C22 1_555 1_555
C28 C37 1_555 1_555
H23 C37 1_555 1_555
H29 C45 1_555 1_555
H30 C45 1_555 1_555
H31 C45 1_555 1_555
C51 C28 1_555 1_555
H45 C51 1_555 1_555
C57 C51 1_555 1_555
H50 C57 1_555 1_555
H51 C57 1_555 1_555
H52 C57 1_555 1_555
H54 C59 1_555 1_555
H56 C59 1_555 1_555
C62 C51 1_555 1_555
H63 C62 1_555 1_555
H64 C62 1_555 1_555
H73 C77 1_555 1_555
C78 C77 1_555 1_555
H74 C78 1_555 1_555
H75 C78 1_555 1_555
H76 C78 1_555 1_555
C79 C77 1_555 1_555
H77 C79 1_555 1_555
H78 C79 1_555 1_555
H79 C79 1_555 1_555
C16 C22 1_555 1_555
C1 C6 1_555 1_555
C2 C5 1_555 1_555
C3 H1 1_555 1_555
C5 H2 1_555 1_555
C6 C3 1_555 1_555
C8 H4 1_555 1_555
C9 C6 1_555 1_555
H5 C9 1_555 1_555
C12 C2 1_555 1_555
N2 C20 1_555 1_555
C13 C2 1_555 1_555
H7 C13 1_555 1_555
C14 C19 1_555 1_555
C15 H8 1_555 1_555
C18 C25 1_555 1_555
C19 C13 1_555 1_555
H11 C19 1_555 1_555
C20 H12 1_555 1_555
C21 C5 1_555 1_555
H13 C21 1_555 1_555
C23 H15 1_555 1_555
H16 C23 1_555 1_555
H17 C23 1_555 1_555
C24 H18 1_555 1_555
C25 C8 1_555 1_555
C26 N2 1_555 1_555
C27 C14 1_555 1_555
C30 C15 1_555 1_555
C31 C3 1_555 1_555
H19 C31 1_555 1_555
C32 C23 1_555 1_555
H20 C32 1_555 1_555
C39 C27 1_555 1_555
H24 C39 1_555 1_555
C40 N2 1_555 1_555
H25 C40 1_555 1_555
C41 C9 1_555 1_555
H26 C41 1_555 1_555
C42 C27 1_555 1_555
H27 C42 1_555 1_555
C44 C8 1_555 1_555
C47 C32 1_555 1_555
H35 C47 1_555 1_555
H36 C47 1_555 1_555
H37 C47 1_555 1_555
C48 C24 1_555 1_555
H38 C48 1_555 1_555
H39 C48 1_555 1_555
H40 C48 1_555 1_555
O15 C12 1_555 1_555
O18 C12 1_555 1_555
C50 H44 1_555 1_555
N3 C20 1_555 1_555
C52 N3 1_555 1_555
C53 C42 1_555 1_555
C54 C39 1_555 1_555
C55 C40 1_555 1_555
H46 C55 1_555 1_555
C56 C50 1_555 1_555
H47 C56 1_555 1_555
H48 C56 1_555 1_555
H49 C56 1_555 1_555
C58 C53 1_555 1_555
H53 C58 1_555 1_555
C60 C58 1_555 1_555
H57 C60 1_555 1_555
H58 C60 1_555 1_555
H59 C60 1_555 1_555
C61 C58 1_555 1_555
H60 C61 1_555 1_555
H61 C61 1_555 1_555
H62 C61 1_555 1_555
C1 O5 1_555 1_555
C14 C21 1_555 1_555
C15 C25 1_555 1_555
C18 C31 1_555 1_555
C18 C41 1_555 1_555
C24 C30 1_555 1_555
C26 C30 1_555 1_555
C26 C44 1_555 1_555
C32 C44 1_555 1_555
C50 C54 1_555 1_555
N3 C55 1_555 1_555
C52 C53 1_555 1_555
C52 C54 1_555 1_555
H28 C43 1_555 1_555
C46 C43 1_555 1_555
H32 C46 1_555 1_555
H33 C46 1_555 1_555
H34 C46 1_555 1_555
C49 C43 1_555 1_555
H41 C49 1_555 1_555
H42 C49 1_555 1_555
H43 C49 1_555 1_555
C67 H68 1_555 1_555
H70 C69 1_555 1_555
C70 C75 1_555 1_555
H72 C75 1_555 1_555
C80 C70 1_555 1_555
H80 C80 1_555 1_555
C81 C80 1_555 1_555
H81 C81 1_555 1_555
H82 C81 1_555 1_555
H83 C81 1_555 1_555
C82 C80 1_555 1_555
H84 C82 1_555 1_555
H85 C82 1_555 1_555
C83 C87 1_555 1_555
C84 C86 1_555 1_555
C85 H87 1_555 1_555
C86 H88 1_555 1_555
C87 C85 1_555 1_555
C88 H89 1_555 1_555
C89 C87 1_555 1_555
H90 C89 1_555 1_555
C90 C84 1_555 1_555
N5 C96 1_555 1_555
C91 C84 1_555 1_555
H91 C91 1_555 1_555
C92 C95 1_555 1_555
C93 H92 1_555 1_555
C94 C100 1_555 1_555
C95 C91 1_555 1_555
H93 C95 1_555 1_555
C96 H94 1_555 1_555
C97 C86 1_555 1_555
H95 C97 1_555 1_555
C98 H96 1_555 1_555
H97 C98 1_555 1_555
H98 C98 1_555 1_555
C99 H99 1_555 1_555
C100 C88 1_555 1_555
C101 N5 1_555 1_555
C102 C92 1_555 1_555
C103 C93 1_555 1_555
C104 C85 1_555 1_555
H100 C104 1_555 1_555
C105 C98 1_555 1_555
H101 C105 1_555 1_555
C106 C102 1_555 1_555
H102 C106 1_555 1_555
C107 N5 1_555 1_555
H103 C107 1_555 1_555
C108 C89 1_555 1_555
H104 C108 1_555 1_555
C109 C102 1_555 1_555
H105 C109 1_555 1_555
C110 C88 1_555 1_555
C112 C105 1_555 1_555
H109 C112 1_555 1_555
H110 C112 1_555 1_555
H111 C112 1_555 1_555
C113 C99 1_555 1_555
H112 C113 1_555 1_555
H113 C113 1_555 1_555
H114 C113 1_555 1_555
O16 C90 1_555 1_555
O19 C90 1_555 1_555
C114 H115 1_555 1_555
N6 C96 1_555 1_555
C115 N6 1_555 1_555
C116 C109 1_555 1_555
C117 C106 1_555 1_555
C118 C107 1_555 1_555
H116 C118 1_555 1_555
C119 C114 1_555 1_555
H117 C119 1_555 1_555
H118 C119 1_555 1_555
H119 C119 1_555 1_555
C120 C116 1_555 1_555
H120 C120 1_555 1_555
C122 C120 1_555 1_555
H124 C122 1_555 1_555
H125 C122 1_555 1_555
H126 C122 1_555 1_555
C123 C120 1_555 1_555
H127 C123 1_555 1_555
H128 C123 1_555 1_555
H129 C123 1_555 1_555
C67 C69 1_555 1_555
C83 O12 1_555 1_555
C92 C97 1_555 1_555
C93 C100 1_555 1_555
C94 C104 1_555 1_555
C94 C108 1_555 1_555
C99 C103 1_555 1_555
C101 C103 1_555 1_555
C101 C110 1_555 1_555
C105 C110 1_555 1_555
C114 C117 1_555 1_555
N6 C118 1_555 1_555
C115 C116 1_555 1_555
C115 C117 1_555 1_555
H106 C111 1_555 1_555
H107 C111 1_555 1_555
H108 C111 1_555 1_555
H121 C121 1_555 1_555
H123 C121 1_555 1_555
C7 H3 1_555 1_555
C64 C7 1_555 1_555
H66 C64 1_555 1_555
H66_2 C64_2 1_555 1_555
C7_2 H3_2 1_555 1_555
C67_2 H68_2 1_555 1_555
H70_2 C69_2 1_555 1_555
C70_2 C75_2 1_555 1_555
H72_2 C75_2 1_555 1_555
C80_2 C70_2 1_555 1_555
H80_2 C80_2 1_555 1_555
C81_2 C80_2 1_555 1_555
H81_2 C81_2 1_555 1_555
H82_2 C81_2 1_555 1_555
H83_2 C81_2 1_555 1_555
C82_2 C80_2 1_555 1_555
H84_2 C82_2 1_555 1_555
H85_2 C82_2 1_555 1_555
C67_2 C69_2 1_555 1_555
H28_2 C43_2 1_555 1_555
C46_2 C43_2 1_555 1_555
H32_2 C46_2 1_555 1_555
H33_2 C46_2 1_555 1_555
H34_2 C46_2 1_555 1_555
C49_2 C43_2 1_555 1_555
H41_2 C49_2 1_555 1_555
H42_2 C49_2 1_555 1_555
H43_2 C49_2 1_555 1_555
C83_2 C87_2 1_555 1_555
C84_2 C86_2 1_555 1_555
C85_2 H87_2 1_555 1_555
C86_2 H88_2 1_555 1_555
C87_2 C85_2 1_555 1_555
C88_2 H89_2 1_555 1_555
C89_2 C87_2 1_555 1_555
H90_2 C89_2 1_555 1_555
C90_2 C84_2 1_555 1_555
N5_2 C96_2 1_555 1_555
C91_2 C84_2 1_555 1_555
H91_2 C91_2 1_555 1_555
C92_2 C95_2 1_555 1_555
C93_2 H92_2 1_555 1_555
C94_2 C100_2 1_555 1_555
C95_2 C91_2 1_555 1_555
H93_2 C95_2 1_555 1_555
C96_2 H94_2 1_555 1_555
C97_2 C86_2 1_555 1_555
H95_2 C97_2 1_555 1_555
C98_2 H96_2 1_555 1_555
H97_2 C98_2 1_555 1_555
H98_2 C98_2 1_555 1_555
C99_2 H99_2 1_555 1_555
C100_2 C88_2 1_555 1_555
C101_2 N5_2 1_555 1_555
C102_2 C92_2 1_555 1_555
C103_2 C93_2 1_555 1_555
C104_2 C85_2 1_555 1_555
H100_2 C104_2 1_555 1_555
C105_2 C98_2 1_555 1_555
H101_2 C105_2 1_555 1_555
C106_2 C102_2 1_555 1_555
H102_2 C106_2 1_555 1_555
C107_2 N5_2 1_555 1_555
H103_2 C107_2 1_555 1_555
C108_2 C89_2 1_555 1_555
H104_2 C108_2 1_555 1_555
C109_2 C102_2 1_555 1_555
H105_2 C109_2 1_555 1_555
C110_2 C88_2 1_555 1_555
C111_2 C99_2 1_555 1_555
H106_2 C111_2 1_555 1_555
H107_2 C111_2 1_555 1_555
H108_2 C111_2 1_555 1_555
C112_2 C105_2 1_555 1_555
H109_2 C112_2 1_555 1_555
H110_2 C112_2 1_555 1_555
H111_2 C112_2 1_555 1_555
C113_2 C99_2 1_555 1_555
H112_2 C113_2 1_555 1_555
H113_2 C113_2 1_555 1_555
H114_2 C113_2 1_555 1_555
O10 C90_2 1_555 1_555
O14 C90_2 1_555 1_555
C114_2 H115_2 1_555 1_555
N6_2 C96_2 1_555 1_555
C115_2 N6_2 1_555 1_555
C116_2 C109_2 1_555 1_555
C117_2 C106_2 1_555 1_555
C118_2 C107_2 1_555 1_555
H116_2 C118_2 1_555 1_555
C119_2 C114_2 1_555 1_555
H117_2 C119_2 1_555 1_555
H118_2 C119_2 1_555 1_555
H119_2 C119_2 1_555 1_555
C120_2 C116_2 1_555 1_555
H120_2 C120_2 1_555 1_555
C121_2 C114_2 1_555 1_555
H121_2 C121_2 1_555 1_555
H122_2 C121_2 1_555 1_555
H123_2 C121_2 1_555 1_555
C122_2 C120_2 1_555 1_555
H124_2 C122_2 1_555 1_555
H125_2 C122_2 1_555 1_555
H126_2 C122_2 1_555 1_555
C123_2 C120_2 1_555 1_555
H127_2 C123_2 1_555 1_555
H128_2 C123_2 1_555 1_555
H129_2 C123_2 1_555 1_555
Zn4 O10 1_555 1_555
Zn7 O14 1_555 1_555
C83_2 O12_2 1_555 1_555
C83_2 O13_2 1_555 1_555
C92_2 C97_2 1_555 1_555
C93_2 C100_2 1_555 1_555
C94_2 C104_2 1_555 1_555
C94_2 C108_2 1_555 1_555
C99_2 C103_2 1_555 1_555
C101_2 C103_2 1_555 1_555
C101_2 C110_2 1_555 1_555
C105_2 C110_2 1_555 1_555
C114_2 C117_2 1_555 1_555
N6_2 C118_2 1_555 1_555
C115_2 C116_2 1_555 1_555
C115_2 C117_2 1_555 1_555
H73_2 C77_2 1_555 1_555
C78_2 C77_2 1_555 1_555
H74_2 C78_2 1_555 1_555
H75_2 C78_2 1_555 1_555
H76_2 C78_2 1_555 1_555
C79_2 C77_2 1_555 1_555
H77_2 C79_2 1_555 1_555
H78_2 C79_2 1_555 1_555
H79_2 C79_2 1_555 1_555
C1_2 C6_2 1_555 1_555
C2_2 C5_2 1_555 1_555
C3_2 H1_2 1_555 1_555
C5_2 H2_2 1_555 1_555
C6_2 C3_2 1_555 1_555
C8_2 H4_2 1_555 1_555
C9_2 C6_2 1_555 1_555
H5_2 C9_2 1_555 1_555
C12_2 C2_2 1_555 1_555
N2_2 C20_2 1_555 1_555
C13_2 C2_2 1_555 1_555
H7_2 C13_2 1_555 1_555
C14_2 C19_2 1_555 1_555
C15_2 H8_2 1_555 1_555
C16_2 H9_2 1_555 1_555
C18_2 C25_2 1_555 1_555
C19_2 C13_2 1_555 1_555
H11_2 C19_2 1_555 1_555
C20_2 H12_2 1_555 1_555
C21_2 C5_2 1_555 1_555
H13_2 C21_2 1_555 1_555
H14_2 C22_2 1_555 1_555
C23_2 H15_2 1_555 1_555
H16_2 C23_2 1_555 1_555
H17_2 C23_2 1_555 1_555
C24_2 H18_2 1_555 1_555
C25_2 C8_2 1_555 1_555
C26_2 N2_2 1_555 1_555
C27_2 C14_2 1_555 1_555
C28_2 C37_2 1_555 1_555
C30_2 C15_2 1_555 1_555
C31_2 C3_2 1_555 1_555
H19_2 C31_2 1_555 1_555
C32_2 C23_2 1_555 1_555
H20_2 C32_2 1_555 1_555
H23_2 C37_2 1_555 1_555
C39_2 C27_2 1_555 1_555
H24_2 C39_2 1_555 1_555
C40_2 N2_2 1_555 1_555
H25_2 C40_2 1_555 1_555
C41_2 C9_2 1_555 1_555
H26_2 C41_2 1_555 1_555
C42_2 C27_2 1_555 1_555
H27_2 C42_2 1_555 1_555
C44_2 C8_2 1_555 1_555
C45_2 C24_2 1_555 1_555
H29_2 C45_2 1_555 1_555
H30_2 C45_2 1_555 1_555
H31_2 C45_2 1_555 1_555
C47_2 C32_2 1_555 1_555
H35_2 C47_2 1_555 1_555
H36_2 C47_2 1_555 1_555
H37_2 C47_2 1_555 1_555
C48_2 C24_2 1_555 1_555
H38_2 C48_2 1_555 1_555
H39_2 C48_2 1_555 1_555
H40_2 C48_2 1_555 1_555
O1 C12_2 1_555 1_555
O7 C12_2 1_555 1_555
C50_2 H44_2 1_555 1_555
N3_2 C20_2 1_555 1_555
C51_2 C28_2 1_555 1_555
H45_2 C51_2 1_555 1_555
C52_2 N3_2 1_555 1_555
C53_2 C42_2 1_555 1_555
C54_2 C39_2 1_555 1_555
C55_2 C40_2 1_555 1_555
H46_2 C55_2 1_555 1_555
C56_2 C50_2 1_555 1_555
H47_2 C56_2 1_555 1_555
H48_2 C56_2 1_555 1_555
H49_2 C56_2 1_555 1_555
C57_2 C51_2 1_555 1_555
H50_2 C57_2 1_555 1_555
H51_2 C57_2 1_555 1_555
H52_2 C57_2 1_555 1_555
C58_2 C53_2 1_555 1_555
H53_2 C58_2 1_555 1_555
C59_2 C50_2 1_555 1_555
H54_2 C59_2 1_555 1_555
H55_2 C59_2 1_555 1_555
H56_2 C59_2 1_555 1_555
C60_2 C58_2 1_555 1_555
H57_2 C60_2 1_555 1_555
H58_2 C60_2 1_555 1_555
H59_2 C60_2 1_555 1_555
C61_2 C58_2 1_555 1_555
H60_2 C61_2 1_555 1_555
H61_2 C61_2 1_555 1_555
H62_2 C61_2 1_555 1_555
C62_2 C51_2 1_555 1_555
H63_2 C62_2 1_555 1_555
H64_2 C62_2 1_555 1_555
Zn5 O1 1_555 1_555
Zn7 O7 1_555 1_555
C1_2 O5_2 1_555 1_555
C1_2 O6_2 1_555 1_555
C14_2 C21_2 1_555 1_555
C15_2 C25_2 1_555 1_555
C16_2 C22_2 1_555 1_555
C18_2 C31_2 1_555 1_555
C18_2 C41_2 1_555 1_555
C24_2 C30_2 1_555 1_555
C26_2 C30_2 1_555 1_555
C26_2 C44_2 1_555 1_555
C32_2 C44_2 1_555 1_555
C50_2 C54_2 1_555 1_555
N3_2 C55_2 1_555 1_555
C52_2 C53_2 1_555 1_555
C52_2 C54_2 1_555 1_555
H21_2 C35_2 1_555 1_555
N4_2 C35_2 1_555 1_555
C63_2 C66_2 1_555 1_555
C65_2 H67_2 1_555 1_555
C66_2 C68_2 1_555 1_555
C68_2 C65_2 1_555 1_555
H69_2 C68_2 1_555 1_555
C71_2 C72_2 1_555 1_555
C72_2 C65_2 1_555 1_555
C73_2 C74_2 1_555 1_555
C74_2 C71_2 1_555 1_555
C76_2 N4_2 1_555 1_555
O8_2 C63_2 1_555 1_555
O9_2 C63_2 1_555 1_555
Zn5 O8_2 1_555 1_555
C73_2 C76_2 1_555 1_555
Zn4 O2_2 1_555 1_555
Zn7 O3_2 1_555 1_555
C4_2 C11_2 1_555 1_555
C10_2 H6_2 1_555 1_555
C11_2 C17_2 1_555 1_555
C17_2 C10_2 1_555 1_555
H10_2 C17_2 1_555 1_555
C29_2 C33_2 1_555 1_555
C33_2 C10_2 1_555 1_555
C34_2 C36_2 1_555 1_555
C35_3 N1_2 1_555 1_555
H21_3 C35_3 1_555 1_555
C36_2 C29_2 1_555 1_555
C38_2 N1_2 1_555 1_555
O2_2 C4_2 1_555 1_555
O3_2 Zn4 1_555 1_555
O4_2 C4_2 1_555 1_555
Zn5 O11_2 1_555 1_555
O11_2 Zn7 1_555 1_555
C34_2 C38_2 1_555 1_555
C2_3 C5_3 1_555 1_555
C5_3 H2_3 1_555 1_555
C12_3 C2_3 1_555 1_555
C13_3 C2_3 1_555 1_555
H7_3 C13_3 1_555 1_555
C14_3 C19_3 1_555 1_555
C19_3 C13_3 1_555 1_555
H11_3 C19_3 1_555 1_555
C21_3 C5_3 1_555 1_555
H13_3 C21_3 1_555 1_555
C27_3 C14_3 1_555 1_555
C39_3 C27_3 1_555 1_555
H24_3 C39_3 1_555 1_555
C42_3 C27_3 1_555 1_555
H27_3 C42_3 1_555 1_555
O1_2 C12_3 1_555 1_555
O7_2 C12_3 1_555 1_555
C50_3 H44_3 1_555 1_555
C53_3 C42_3 1_555 1_555
C54_3 C39_3 1_555 1_555
C56_3 C50_3 1_555 1_555
H47_3 C56_3 1_555 1_555
H48_3 C56_3 1_555 1_555
H49_3 C56_3 1_555 1_555
C59_3 C50_3 1_555 1_555
H54_3 C59_3 1_555 1_555
H57_3 C60_3 1_555 1_555
H58_3 C60_3 1_555 1_555
Zn5_2 O1_2 1_555 1_555
Zn8 O7_2 1_555 1_555
C14_3 C21_3 1_555 1_555
C50_3 C54_3 1_555 1_555
C52_3 C53_3 1_555 1_555
C52_3 C54_3 1_555 1_555
N1_3 C7_3 1_555 1_555
C7_3 H3_3 1_555 1_555
C28_3 C37_3 1_555 1_555
C29_3 C33_3 1_555 1_555
C34_3 C36_3 1_555 1_555
C35_4 N1_3 1_555 1_555
H21_4 C35_4 1_555 1_555
C36_3 C29_3 1_555 1_555
H22_3 C36_3 1_555 1_555
C37_3 C29_3 1_555 1_555
H23_3 C37_3 1_555 1_555
C38_3 N1_3 1_555 1_555
C43_3 C34_3 1_555 1_555
H28_3 C43_3 1_555 1_555
C46_3 C43_3 1_555 1_555
H32_3 C46_3 1_555 1_555
H33_3 C46_3 1_555 1_555
H34_3 C46_3 1_555 1_555
C49_3 C43_3 1_555 1_555
H41_3 C49_3 1_555 1_555
H42_3 C49_3 1_555 1_555
H43_3 C49_3 1_555 1_555
C51_3 C28_3 1_555 1_555
H45_3 C51_3 1_555 1_555
C57_3 C51_3 1_555 1_555
H50_3 C57_3 1_555 1_555
H51_3 C57_3 1_555 1_555
H52_3 C57_3 1_555 1_555
C62_3 C51_3 1_555 1_555
H63_3 C62_3 1_555 1_555
H64_3 C62_3 1_555 1_555
H65_3 C62_3 1_555 1_555
N4_3 C35_4 1_555 1_555
C63_3 C66_3 1_555 1_555
C64_3 C7_3 1_555 1_555
H66_3 C64_3 1_555 1_555
C65_3 H67_3 1_555 1_555
C66_3 C68_3 1_555 1_555
C67_3 H68_3 1_555 1_555
C68_3 C65_3 1_555 1_555
H69_3 C68_3 1_555 1_555
C69_3 C66_3 1_555 1_555
H70_3 C69_3 1_555 1_555
C70_3 C75_3 1_555 1_555
C71_3 C72_3 1_555 1_555
C72_3 C65_3 1_555 1_555
C73_3 C74_3 1_555 1_555
C74_3 C71_3 1_555 1_555
H71_3 C74_3 1_555 1_555
C75_3 C71_3 1_555 1_555
H72_3 C75_3 1_555 1_555
C76_3 N4_3 1_555 1_555
C77_3 C73_3 1_555 1_555
H73_3 C77_3 1_555 1_555
C78_3 C77_3 1_555 1_555
H74_3 C78_3 1_555 1_555
H75_3 C78_3 1_555 1_555
H76_3 C78_3 1_555 1_555
C79_3 C77_3 1_555 1_555
H77_3 C79_3 1_555 1_555
H78_3 C79_3 1_555 1_555
H79_3 C79_3 1_555 1_555
O8_3 C63_3 1_555 1_555
O9_3 C63_3 1_555 1_555
C80_3 C70_3 1_555 1_555
H80_3 C80_3 1_555 1_555
C81_3 C80_3 1_555 1_555
H81_3 C81_3 1_555 1_555
H82_3 C81_3 1_555 1_555
H83_3 C81_3 1_555 1_555
C82_3 C80_3 1_555 1_555
H84_3 C82_3 1_555 1_555
H85_3 C82_3 1_555 1_555
H86_3 C82_3 1_555 1_555
Zn5_2 O8_3 1_555 1_555
C28_3 C38_3 1_555 1_555
C34_3 C38_3 1_555 1_555
N4_3 C64_3 1_555 1_555
C67_3 C69_3 1_555 1_555
C67_3 C72_3 1_555 1_555
C70_3 C76_3 1_555 1_555
C73_3 C76_3 1_555 1_555
Zn1_2 O2_3 1_555 1_555
Zn8 O3_3 1_555 1_555
C1_3 C6_3 1_555 1_555
C3_3 H1_3 1_555 1_555
C4_3 C11_3 1_555 1_555
C6_3 C3_3 1_555 1_555
C8_3 H4_3 1_555 1_555
C9_3 C6_3 1_555 1_555
H5_3 C9_3 1_555 1_555
C11_3 C17_3 1_555 1_555
N2_3 C20_3 1_555 1_555
C15_3 H8_3 1_555 1_555
C17_3 C10_3 1_555 1_555
H10_3 C17_3 1_555 1_555
C18_3 C25_3 1_555 1_555
C20_3 H12_3 1_555 1_555
C22_3 C11_3 1_555 1_555
H14_3 C22_3 1_555 1_555
C23_3 H15_3 1_555 1_555
H16_3 C23_3 1_555 1_555
H17_3 C23_3 1_555 1_555
C24_3 H18_3 1_555 1_555
C25_3 C8_3 1_555 1_555
C26_3 N2_3 1_555 1_555
C30_3 C15_3 1_555 1_555
C31_3 C3_3 1_555 1_555
H19_3 C31_3 1_555 1_555
C32_3 C23_3 1_555 1_555
H20_3 C32_3 1_555 1_555
C40_3 N2_3 1_555 1_555
H25_3 C40_3 1_555 1_555
C41_3 C9_3 1_555 1_555
H26_3 C41_3 1_555 1_555
C44_3 C8_3 1_555 1_555
C45_3 C24_3 1_555 1_555
H29_3 C45_3 1_555 1_555
H30_3 C45_3 1_555 1_555
H31_3 C45_3 1_555 1_555
C47_3 C32_3 1_555 1_555
H35_3 C47_3 1_555 1_555
H36_3 C47_3 1_555 1_555
H37_3 C47_3 1_555 1_555
C48_3 C24_3 1_555 1_555
H38_3 C48_3 1_555 1_555
H39_3 C48_3 1_555 1_555
H40_3 C48_3 1_555 1_555
O2_3 C4_3 1_555 1_555
O3_3 Zn1_2 1_555 1_555
O4_3 C4_3 1_555 1_555
O5_3 Zn1_2 1_555 1_555
O6_3 Zn1_2 1_555 1_555
N3_3 C20_3 1_555 1_555
C55_3 C40_3 1_555 1_555
H46_3 C55_3 1_555 1_555
H53_3 C58_3 1_555 1_555
C61_3 C58_3 1_555 1_555
H61_3 C61_3 1_555 1_555
H62_3 C61_3 1_555 1_555
Zn5_2 O11_3 1_555 1_555
C83_3 C87_3 1_555 1_555
C85_3 H87_3 1_555 1_555
C87_3 C85_3 1_555 1_555
C88_3 H89_3 1_555 1_555
C89_3 C87_3 1_555 1_555
H90_3 C89_3 1_555 1_555
N5_3 C96_3 1_555 1_555
C93_3 H92_3 1_555 1_555
C94_3 C100_3 1_555 1_555
C96_3 H94_3 1_555 1_555
C98_3 H96_3 1_555 1_555
H97_3 C98_3 1_555 1_555
H98_3 C98_3 1_555 1_555
C99_3 H99_3 1_555 1_555
C100_3 C88_3 1_555 1_555
C101_3 N5_3 1_555 1_555
C103_3 C93_3 1_555 1_555
C104_3 C85_3 1_555 1_555
H100_3 C104_3 1_555 1_555
C105_3 C98_3 1_555 1_555
H101_3 C105_3 1_555 1_555
C107_3 N5_3 1_555 1_555
H103_3 C107_3 1_555 1_555
C108_3 C89_3 1_555 1_555
H104_3 C108_3 1_555 1_555
C110_3 C88_3 1_555 1_555
C111_3 C99_3 1_555 1_555
H106_3 C111_3 1_555 1_555
H107_3 C111_3 1_555 1_555
H108_3 C111_3 1_555 1_555
C112_3 C105_3 1_555 1_555
H109_3 C112_3 1_555 1_555
H110_3 C112_3 1_555 1_555
H111_3 C112_3 1_555 1_555
C113_3 C99_3 1_555 1_555
H112_3 C113_3 1_555 1_555
H113_3 C113_3 1_555 1_555
H114_3 C113_3 1_555 1_555
O11_3 Zn8 1_555 1_555
O12_3 Zn5_2 1_555 1_555
O13_3 Zn5_2 1_555 1_555
N6_3 C96_3 1_555 1_555
C118_3 C107_3 1_555 1_555
H116_3 C118_3 1_555 1_555
H120_3 C120_3 1_555 1_555
C123_3 C120_3 1_555 1_555
H128_3 C123_3 1_555 1_555
H129_3 C123_3 1_555 1_555
O16_2 Zn1_2 1_555 1_555
O19_2 Zn8 1_555 1_555
C1_3 O5_3 1_555 1_555
C1_3 O6_3 1_555 1_555
C15_3 C25_3 1_555 1_555
C16_3 C22_3 1_555 1_555
C18_3 C31_3 1_555 1_555
C18_3 C41_3 1_555 1_555
C24_3 C30_3 1_555 1_555
C26_3 C30_3 1_555 1_555
C26_3 C44_3 1_555 1_555
C32_3 C44_3 1_555 1_555
N3_3 C55_3 1_555 1_555
C83_3 O12_3 1_555 1_555
C83_3 O13_3 1_555 1_555
C93_3 C100_3 1_555 1_555
C94_3 C104_3 1_555 1_555
C94_3 C108_3 1_555 1_555
C99_3 C103_3 1_555 1_555
C101_3 C103_3 1_555 1_555
C101_3 C110_3 1_555 1_555
C105_3 C110_3 1_555 1_555
N6_3 C118_3 1_555 1_555
C84_3 C86_3 1_555 1_555
C86_3 H88_3 1_555 1_555
C90_3 C84_3 1_555 1_555
C91_3 C84_3 1_555 1_555
H91_3 C91_3 1_555 1_555
C92_3 C95_3 1_555 1_555
C95_3 C91_3 1_555 1_555
H93_3 C95_3 1_555 1_555
C97_3 C86_3 1_555 1_555
H95_3 C97_3 1_555 1_555
C102_3 C92_3 1_555 1_555
C106_3 C102_3 1_555 1_555
H102_3 C106_3 1_555 1_555
C109_3 C102_3 1_555 1_555
H105_3 C109_3 1_555 1_555
O16_2 C90_3 1_555 1_555
O19_2 C90_3 1_555 1_555
C114_3 H115_3 1_555 1_555
C116_3 C109_3 1_555 1_555
C117_3 C106_3 1_555 1_555
C119_3 C114_3 1_555 1_555
H117_3 C119_3 1_555 1_555
H118_3 C119_3 1_555 1_555
H119_3 C119_3 1_555 1_555
C121_3 C114_3 1_555 1_555
H121_3 C121_3 1_555 1_555
H124_3 C122_3 1_555 1_555
H125_3 C122_3 1_555 1_555
C92_3 C97_3 1_555 1_555
C114_3 C117_3 1_555 1_555
C115_3 C116_3 1_555 1_555
C115_3 C117_3 1_555 1_555
C84_4 C86_4 1_555 1_555
C86_4 H88_4 1_555 1_555
C90_4 C84_4 1_555 1_555
C91_4 C84_4 1_555 1_555
H91_4 C91_4 1_555 1_555
C92_4 C95_4 1_555 1_555
C95_4 C91_4 1_555 1_555
H93_4 C95_4 1_555 1_555
C97_4 C86_4 1_555 1_555
H95_4 C97_4 1_555 1_555
C102_4 C92_4 1_555 1_555
C106_4 C102_4 1_555 1_555
H102_4 C106_4 1_555 1_555
C109_4 C102_4 1_555 1_555
H105_4 C109_4 1_555 1_555
O10_2 C90_4 1_555 1_555
O14_2 C90_4 1_555 1_555
C114_4 H115_4 1_555 1_555
C116_4 C109_4 1_555 1_555
C117_4 C106_4 1_555 1_555
C119_4 C114_4 1_555 1_555
H117_4 C119_4 1_555 1_555
H118_4 C119_4 1_555 1_555
H119_4 C119_4 1_555 1_555
C121_4 C114_4 1_555 1_555
H121_4 C121_4 1_555 1_555
H124_4 C122_4 1_555 1_555
H125_4 C122_4 1_555 1_555
Zn4_2 O10_2 1_555 1_555
Zn7_2 O14_2 1_555 1_555
C92_4 C97_4 1_555 1_555
C114_4 C117_4 1_555 1_555
C115_4 C116_4 1_555 1_555
C115_4 C117_4 1_555 1_555
C63_4 C66_4 1_555 1_555
C66_4 C68_4 1_555 1_555
C68_4 C65_4 1_555 1_555
H69_4 C68_4 1_555 1_555
C69_4 C66_4 1_555 1_555
H70_4 C69_4 1_555 1_555
O8_4 C63_4 1_555 1_555
O9_4 C63_4 1_555 1_555
Zn6_2 O8_4 1_555 1_555
C67_4 C69_4 1_555 1_555
Zn4_2 O2_4 1_555 1_555
Zn7_2 O3_4 1_555 1_555
C1_4 C6_4 1_555 1_555
N1_4 C7_4 1_555 1_555
C3_4 H1_4 1_555 1_555
C4_4 C11_4 1_555 1_555
C6_4 C3_4 1_555 1_555
C7_4 H3_4 1_555 1_555
C8_4 H4_4 1_555 1_555
C9_4 C6_4 1_555 1_555
H5_4 C9_4 1_555 1_555
C10_4 H6_4 1_555 1_555
C11_4 C17_4 1_555 1_555
N2_4 C20_4 1_555 1_555
C15_4 H8_4 1_555 1_555
C16_4 H9_4 1_555 1_555
C17_4 C10_4 1_555 1_555
H10_4 C17_4 1_555 1_555
C18_4 C25_4 1_555 1_555
C20_4 H12_4 1_555 1_555
C22_4 C11_4 1_555 1_555
H14_4 C22_4 1_555 1_555
C23_4 H15_4 1_555 1_555
H16_4 C23_4 1_555 1_555
H17_4 C23_4 1_555 1_555
C24_4 H18_4 1_555 1_555
C25_4 C8_4 1_555 1_555
C26_4 N2_4 1_555 1_555
C28_4 C37_4 1_555 1_555
C29_4 C33_4 1_555 1_555
C30_4 C15_4 1_555 1_555
C31_4 C3_4 1_555 1_555
H19_4 C31_4 1_555 1_555
C32_4 C23_4 1_555 1_555
H20_4 C32_4 1_555 1_555
C33_4 C10_4 1_555 1_555
C34_4 C36_4 1_555 1_555
C35_5 N1_4 1_555 1_555
H21_5 C35_5 1_555 1_555
C36_4 C29_4 1_555 1_555
H22_4 C36_4 1_555 1_555
C37_4 C29_4 1_555 1_555
H23_4 C37_4 1_555 1_555
C38_4 N1_4 1_555 1_555
C40_4 N2_4 1_555 1_555
H25_4 C40_4 1_555 1_555
C41_4 C9_4 1_555 1_555
H26_4 C41_4 1_555 1_555
C43_4 C34_4 1_555 1_555
H28_4 C43_4 1_555 1_555
C44_4 C8_4 1_555 1_555
C45_4 C24_4 1_555 1_555
H29_4 C45_4 1_555 1_555
H30_4 C45_4 1_555 1_555
H31_4 C45_4 1_555 1_555
C46_4 C43_4 1_555 1_555
H32_4 C46_4 1_555 1_555
H33_4 C46_4 1_555 1_555
H34_4 C46_4 1_555 1_555
C47_4 C32_4 1_555 1_555
H35_4 C47_4 1_555 1_555
H36_4 C47_4 1_555 1_555
H37_4 C47_4 1_555 1_555
C48_4 C24_4 1_555 1_555
H38_4 C48_4 1_555 1_555
H39_4 C48_4 1_555 1_555
H40_4 C48_4 1_555 1_555
C49_4 C43_4 1_555 1_555
H41_4 C49_4 1_555 1_555
H42_4 C49_4 1_555 1_555
H43_4 C49_4 1_555 1_555
O2_4 C4_4 1_555 1_555
O3_4 Zn4_2 1_555 1_555
O4_4 C4_4 1_555 1_555
O5_4 Zn4_2 1_555 1_555
O6_4 Zn4_2 1_555 1_555
N3_4 C20_4 1_555 1_555
C51_4 C28_4 1_555 1_555
H45_4 C51_4 1_555 1_555
C55_4 C40_4 1_555 1_555
H46_4 C55_4 1_555 1_555
C57_4 C51_4 1_555 1_555
H50_4 C57_4 1_555 1_555
H51_4 C57_4 1_555 1_555
H52_4 C57_4 1_555 1_555
H53_4 C58_4 1_555 1_555
C61_4 C58_4 1_555 1_555
H61_4 C61_4 1_555 1_555
H62_4 C61_4 1_555 1_555
C62_4 C51_4 1_555 1_555
H63_4 C62_4 1_555 1_555
H64_4 C62_4 1_555 1_555
H65_4 C62_4 1_555 1_555
N4_4 C35_5 1_555 1_555
C64_4 C7_4 1_555 1_555
H66_4 C64_4 1_555 1_555
C70_4 C75_4 1_555 1_555
C71_4 C72_4 1_555 1_555
C73_4 C74_4 1_555 1_555
C74_4 C71_4 1_555 1_555
H71_4 C74_4 1_555 1_555
C75_4 C71_4 1_555 1_555
H72_4 C75_4 1_555 1_555
C76_4 N4_4 1_555 1_555
C77_4 C73_4 1_555 1_555
H73_4 C77_4 1_555 1_555
C78_4 C77_4 1_555 1_555
H74_4 C78_4 1_555 1_555
H75_4 C78_4 1_555 1_555
H76_4 C78_4 1_555 1_555
C79_4 C77_4 1_555 1_555
H77_4 C79_4 1_555 1_555
H78_4 C79_4 1_555 1_555
H79_4 C79_4 1_555 1_555
C80_4 C70_4 1_555 1_555
H80_4 C80_4 1_555 1_555
C81_4 C80_4 1_555 1_555
H81_4 C81_4 1_555 1_555
H82_4 C81_4 1_555 1_555
H83_4 C81_4 1_555 1_555
C82_4 C80_4 1_555 1_555
H84_4 C82_4 1_555 1_555
H85_4 C82_4 1_555 1_555
H86_4 C82_4 1_555 1_555
Zn6_2 O11_4 1_555 1_555
C83_4 C87_4 1_555 1_555
C85_4 H87_4 1_555 1_555
C87_4 C85_4 1_555 1_555
C88_4 H89_4 1_555 1_555
C89_4 C87_4 1_555 1_555
H90_4 C89_4 1_555 1_555
N5_4 C96_4 1_555 1_555
C93_4 H92_4 1_555 1_555
C94_4 C100_4 1_555 1_555
C96_4 H94_4 1_555 1_555
C98_4 H96_4 1_555 1_555
H97_4 C98_4 1_555 1_555
H98_4 C98_4 1_555 1_555
C99_4 H99_4 1_555 1_555
C100_4 C88_4 1_555 1_555
C101_4 N5_4 1_555 1_555
C103_4 C93_4 1_555 1_555
C104_4 C85_4 1_555 1_555
H100_4 C104_4 1_555 1_555
C105_4 C98_4 1_555 1_555
H101_4 C105_4 1_555 1_555
C107_4 N5_4 1_555 1_555
H103_4 C107_4 1_555 1_555
C108_4 C89_4 1_555 1_555
H104_4 C108_4 1_555 1_555
C110_4 C88_4 1_555 1_555
C111_4 C99_4 1_555 1_555
H106_4 C111_4 1_555 1_555
H107_4 C111_4 1_555 1_555
H108_4 C111_4 1_555 1_555
C112_4 C105_4 1_555 1_555
H109_4 C112_4 1_555 1_555
H110_4 C112_4 1_555 1_555
H111_4 C112_4 1_555 1_555
C113_4 C99_4 1_555 1_555
H112_4 C113_4 1_555 1_555
H113_4 C113_4 1_555 1_555
H114_4 C113_4 1_555 1_555
O11_4 Zn7_2 1_555 1_555
O12_4 Zn6_2 1_555 1_555
O13_4 Zn6_2 1_555 1_555
N6_4 C96_4 1_555 1_555
C118_4 C107_4 1_555 1_555
H116_4 C118_4 1_555 1_555
H120_4 C120_4 1_555 1_555
C123_4 C120_4 1_555 1_555
H128_4 C123_4 1_555 1_555
H129_4 C123_4 1_555 1_555
O15_2 Zn6_2 1_555 1_555
O18_2 Zn7_2 1_555 1_555
C1_4 O5_4 1_555 1_555
C1_4 O6_4 1_555 1_555
C15_4 C25_4 1_555 1_555
C16_4 C22_4 1_555 1_555
C16_4 C33_4 1_555 1_555
C18_4 C31_4 1_555 1_555
C18_4 C41_4 1_555 1_555
C24_4 C30_4 1_555 1_555
C26_4 C30_4 1_555 1_555
C26_4 C44_4 1_555 1_555
C28_4 C38_4 1_555 1_555
C32_4 C44_4 1_555 1_555
C34_4 C38_4 1_555 1_555
N3_4 C55_4 1_555 1_555
N4_4 C64_4 1_555 1_555
C70_4 C76_4 1_555 1_555
C73_4 C76_4 1_555 1_555
C83_4 O12_4 1_555 1_555
C83_4 O13_4 1_555 1_555
C93_4 C100_4 1_555 1_555
C94_4 C104_4 1_555 1_555
C94_4 C108_4 1_555 1_555
C99_4 C103_4 1_555 1_555
C101_4 C103_4 1_555 1_555
C101_4 C110_4 1_555 1_555
C105_4 C110_4 1_555 1_555
N6_4 C118_4 1_555 1_555
C2_4 C5_4 1_555 1_555
C5_4 H2_4 1_555 1_555
C12_4 C2_4 1_555 1_555
C13_4 C2_4 1_555 1_555
H7_4 C13_4 1_555 1_555
C14_4 C19_4 1_555 1_555
C19_4 C13_4 1_555 1_555
H11_4 C19_4 1_555 1_555
C21_4 C5_4 1_555 1_555
H13_4 C21_4 1_555 1_555
C27_4 C14_4 1_555 1_555
C39_4 C27_4 1_555 1_555
H24_4 C39_4 1_555 1_555
C42_4 C27_4 1_555 1_555
H27_4 C42_4 1_555 1_555
O15_2 C12_4 1_555 1_555
O18_2 C12_4 1_555 1_555
C50_4 H44_4 1_555 1_555
C53_4 C42_4 1_555 1_555
C54_4 C39_4 1_555 1_555
C56_4 C50_4 1_555 1_555
H47_4 C56_4 1_555 1_555
H48_4 C56_4 1_555 1_555
H49_4 C56_4 1_555 1_555
C59_4 C50_4 1_555 1_555
H54_4 C59_4 1_555 1_555
H57_4 C60_4 1_555 1_555
H58_4 C60_4 1_555 1_555
C14_4 C21_4 1_555 1_555
C50_4 C54_4 1_555 1_555
C52_4 C53_4 1_555 1_555
C52_4 C54_4 1_555 1_555
O20 N7 1_555 1_555
N7 O21 1_555 1_555
O22 N7 1_555 1_555
O20_2 N7_2 1_555 1_555
N7_2 O21_2 1_555 1_555
O22_2 N7_2 1_555 1_555
O20_3 N7_3 1_555 1_555
N7_3 O21_3 1_555 1_555
O22_3 N7_3 1_555 1_555
O20_4 N7_4 1_555 1_555
N7_4 O21_4 1_555 1_555
O22_4 N7_4 1_555 1_555
O20_5 N7_5 1_555 1_555
N7_5 O21_5 1_555 1_555
O22_5 N7_5 1_555 1_555
O20_6 N7_6 1_555 1_555
N7_6 O21_6 1_555 1_555
O22_6 N7_6 1_555 1_555
O20_7 N7_7 1_555 1_555
N7_7 O21_7 1_555 1_555
O22_7 N7_7 1_555 1_555
O20_8 N7_8 1_555 1_555
N7_8 O21_8 1_555 1_555
O22_8 N7_8 1_555 1_555

#END
