
###############################################################################
#
# This file contains modified crystal structure data generated from the
# MOF subset of the Cambridge Structural Database (CSD) v543 
# hosted by the Cambridge Crystallographic Data Centre (CCDC).
#
# This work is licensed under the Creative Commons
# Attribution-NonCommercial-ShareAlike 4.0 International License.
# To view a copy of this license, visit
# http://creativecommons.org/licenses/by-nc-sa/4.0/
# or send a letter to
# Creative Commons, PO Box 1866, Mountain View, CA 94042, USA.
#
# CIF created using the CSD Python API on 29 September 2022
# The structure has been converted into the P1 space group
# The structure has a 3D framework
# The original CSD entry CIYNUU is in the rhombohedral crystal system
# The framework has been calculated to contain at least 10.0% void space
# The void calculation uses a probe of radius 1.32A, grid spacing 0.4
#
###############################################################################

data_CIYNUU
_chemical_formula_moiety         '(C870 H1080 Mn47 N320)n'
_symmetry_cell_setting           triclinic
_symmetry_space_group_name_H-M   'P 1'
_symmetry_Int_Tables_number      1
_space_group_name_Hall           'P 1'
loop_
_symmetry_equiv_pos_site_id
_symmetry_equiv_pos_as_xyz
1 x,y,z
_cell_length_a                   38.46(1)
_cell_length_b                   38.46(1)
_cell_length_c                   20.287(6)
_cell_angle_alpha                90
_cell_angle_beta                 90
_cell_angle_gamma                120
_cell_volume                     25987.7
loop_
_atom_site_label
_atom_site_type_symbol
_atom_site_fract_x
_atom_site_fract_y
_atom_site_fract_z
Mn1 Mn 0.10348(5) 0.49931(5) 0.17604(8)
Mn2 Mn -0.0000 0.5000 0.5000
Mn3 Mn 0.07876(5) 0.60347(5) 0.30893(7)
N1 N 0.0884(3) 0.5427(3) 0.2175(4)
N2 N 0.0346(3) 0.5369(3) 0.4146(4)
N3 N 0.1623(3) 0.6223(3) 0.3695(5)
N5 N 0.1225(3) 0.6712(3) 0.2026(4)
N6 N 0.0773(3) 0.6636(3) 0.4127(5)
N7 N 0.1597(3) 0.5520(3) 0.1326(5)
N8 N 0.2516(3) 0.6497(3) 0.0299(5)
N9 N 0.0743(3) 0.5021(3) 0.0798(4)
N11 N 0.0452(3) 0.4489(3) 0.2190(4)
N13 N 0.1373(3) 0.5023(3) 0.2704(4)
N14 N 0.1980(4) 0.5064(4) 0.4457(6)
C1 C 0.0829(3) 0.5641(3) 0.2501(5)
C2 C 0.0517(3) 0.5615(3) 0.3745(5)
C3 C 0.1320(3) 0.6155(3) 0.3472(5)
C4 C 0.0243(4) 0.5873(3) 0.2755(6)
C5 C 0.1058(3) 0.6463(3) 0.2410(5)
C6 C 0.0770(3) 0.6421(3) 0.3734(5)
C7 C 0.1783(4) 0.5909(4) 0.1547(5)
C8 C 0.2083(4) 0.6225(4) 0.1241(6)
C9 C 0.2221(4) 0.6171(4) 0.0644(6)
C10 C 0.2054(4) 0.5790(4) 0.0393(6)
C11 C 0.1758(4) 0.5483(4) 0.0752(7)
C12 C 0.2709(5) 0.6896(4) 0.0555(7)
C14 C 0.0683(4) 0.4786(3) 0.0276(6)
C17 C 0.0542(3) 0.5396(3) 0.0110(5)
C18 C 0.0668(3) 0.5321(3) 0.0697(5)
C21 C 0.0280(4) 0.4112(4) 0.1964(6)
C25 C 0.0243(3) 0.4556(3) 0.2652(5)
C28 C 0.1391(4) 0.5252(3) 0.3241(6)
C29 C 0.1586(4) 0.5263(4) 0.3826(5)
C30 C 0.1786(4) 0.5050(4) 0.3883(6)
C31 C 0.1770(4) 0.4822(4) 0.3348(6)
C32 C 0.1566(3) 0.4822(4) 0.2785(5)
C33 C 0.1966(6) 0.5273(6) 0.5032(8)
C34 C 0.2184(6) 0.4842(5) 0.4527(8)
C35 C 0.0102(4) 0.5865(4) 0.5260(6)
C36 C 0.0047(4) 0.6157(4) 0.5547(6)
H1 H 0.1699 0.5950 0.1971
H2 H 0.2198 0.6488 0.1439
H4 H 0.1658 0.5216 0.0599
H5 H 0.2522 0.6979 0.0655
H6 H 0.2836 0.6894 0.0986
H7 H 0.2912 0.7074 0.0281
H11 H 0.0728 0.4565 0.0325
H13 H 0.0491 0.5612 0.0079
H14 H 0.0704 0.5495 0.1067
H21 H 0.0421 0.4052 0.1634
H24 H 0.0359 0.4821 0.2813
H31 H 0.1271 0.5412 0.3206
H32 H 0.1583 0.5418 0.4193
H33 H 0.1893 0.4662 0.3367
H34 H 0.1563 0.4664 0.2418
H35 H 0.2007 0.5159 0.5419
H36 H 0.1712 0.5260 0.5062
H37 H 0.2171 0.5550 0.5008
H38 H 0.2136 0.4736 0.4966
H39 H 0.2088 0.4642 0.4218
H40 H 0.2463 0.5025 0.4478
H41 H 0.0335 0.5949 0.4992
H42 H 0.0257 0.6430 0.5516
H45 H 0.0161 0.6755 0.6518
H46 H 0.0028 0.6840 0.5844
N22 N 0.0083(3) 0.4230(3) 0.7400(5)
N30 N 0.0671(3) 0.6416(4) 0.7147(5)
N33 N 0.0156(3) 0.4531(3) 0.4696(5)
N34 N 0.0365(3) 0.3678(3) 0.3771(5)
N35 N 0.0591(3) 0.5301(3) 0.5592(4)
N36 N 0.1671(4) 0.5722(4) 0.6622(5)
C70 C 0.0086(3) 0.6197(3) 0.7827(5)
C71 C 0.0299(4) 0.6118(4) 0.7363(5)
C72 C 0.0121(4) 0.5723(3) 0.7110(5)
C74 C 0.0858(4) 0.6826(4) 0.7407(7)
C75 C 0.0919(4) 0.6325(5) 0.6726(7)
C85 C 0.0306(4) 0.3953(4) 0.4096(6)
C86 C 0.0588(3) 0.4359(3) 0.4069(5)
C87 C 0.0501(3) 0.4624(3) 0.4371(6)
C88 C 0.0052(4) 0.3262(4) 0.3732(7)
C89 C 0.0706(4) 0.3799(4) 0.3333(7)
C90 C 0.0611(4) 0.5128(4) 0.6146(6)
C91 C 0.0953(4) 0.5252(4) 0.6510(6)
C92 C 0.1308(5) 0.5570(4) 0.6299(7)
C93 C 0.1291(4) 0.5766(4) 0.5713(7)
C94 C 0.0936(4) 0.5620(4) 0.5403(6)
C95 C 0.1690(5) 0.5521(5) 0.7203(7)
C96 C 0.2039(5) 0.6058(5) 0.6389(8)
H82 H 0.0193 0.6462 0.7999
H83 H 0.0255 0.5655 0.6783
H85 H 0.0979 0.7012 0.7041
H86 H 0.1056 0.6873 0.7716
H87 H 0.0657 0.6871 0.7592
H88 H 0.0774 0.6192 0.6344
H89 H 0.1155 0.6570 0.6605
H90 H 0.0997 0.6160 0.6958
H103 H 0.0835 0.4449 0.3848
H104 H 0.0696 0.4901 0.4344
H107 H 0.0163 0.3117 0.3509
H108 H 0.0674 0.3922 0.2951
H109 H 0.0947 0.3986 0.3554
H110 H 0.0726 0.3571 0.3207
H111 H 0.0366 0.4898 0.6283
H112 H 0.0929 0.5112 0.6911
H113 H 0.1525 0.5994 0.5545
H114 H 0.0925 0.5750 0.5011
H115 H 0.1604 0.5613 0.7580
H116 H 0.1944 0.5560 0.7276
H117 H 0.1499 0.5235 0.7165
H118 H 0.1988 0.6283 0.6362
H119 H 0.2245 0.6114 0.6665
H120 H 0.2081 0.5999 0.5952
Mn7 Mn 0.16598(5) 0.72916(7) 0.15729(8)
N38 N 0.1180(4) 0.4558(3) 0.1307(4)
Mn2_2 Mn 1.0000 0.5000 0.5000
N4 N 0.9917(3) 0.5770(3) 0.2600(5)
N12 N 0.9329(3) 0.3584(4) 0.2853(5)
N15 N 0.9844(3) 0.5469(3) 0.5304(5)
N16 N 0.9635(3) 0.6322(3) 0.6229(5)
N17 N 0.9409(3) 0.4699(3) 0.4408(4)
N18 N 0.8329(4) 0.4278(4) 0.3378(5)
C22 C 0.9914(3) 0.3803(3) 0.2173(5)
C23 C 0.9701(4) 0.3882(4) 0.2637(5)
C24 C 0.9879(4) 0.4277(3) 0.2890(5)
C26 C 0.9142(4) 0.3174(4) 0.2593(7)
C27 C 0.9081(4) 0.3675(5) 0.3274(7)
C37 C 0.9694(4) 0.6047(4) 0.5904(6)
C38 C 0.9412(3) 0.5641(3) 0.5931(5)
C39 C 0.9499(3) 0.5376(3) 0.5629(6)
C40 C 0.9948(4) 0.6738(4) 0.6268(7)
C41 C 0.9294(4) 0.6201(4) 0.6667(7)
C42 C 0.9389(4) 0.4872(4) 0.3854(6)
C43 C 0.9047(4) 0.4748(4) 0.3490(6)
C44 C 0.8692(5) 0.4430(4) 0.3701(7)
C45 C 0.8709(4) 0.4234(4) 0.4287(7)
C46 C 0.9064(4) 0.4380(4) 0.4597(6)
C47 C 0.8310(5) 0.4479(5) 0.2797(7)
C48 C 0.7961(5) 0.3942(5) 0.3611(8)
H22 H 0.9807 0.3538 0.2001
H23 H 0.9745 0.4345 0.3217
H25 H 0.9021 0.2988 0.2959
H26 H 0.8944 0.3127 0.2284
H27 H 0.9343 0.3129 0.2408
H28 H 0.9226 0.3808 0.3656
H29 H 0.8845 0.3430 0.3395
H30 H 0.9003 0.3840 0.3042
H43 H 0.9165 0.5551 0.6152
H44 H 0.9304 0.5099 0.5656
H47 H 0.9837 0.6883 0.6491
H48 H 0.9326 0.6078 0.7049
H49 H 0.9053 0.6014 0.6446
H50 H 0.9274 0.6429 0.6793
H51 H 0.9634 0.5102 0.3717
H52 H 0.9071 0.4888 0.3089
H53 H 0.8475 0.4006 0.4455
H54 H 0.9075 0.4250 0.4989
H55 H 0.8396 0.4387 0.2420
H56 H 0.8056 0.4440 0.2724
H57 H 0.8501 0.4765 0.2835
H58 H 0.8012 0.3717 0.3638
H59 H 0.7755 0.3886 0.3335
H60 H 0.7919 0.4001 0.4048
Mn4 Mn 0.89652(5) 0.50069(5) 0.82396(8)
Mn5 Mn 0.92124(5) 0.39653(5) 0.69107(7)
N19 N 0.9116(3) 0.4573(3) 0.7825(4)
N20 N 0.9654(3) 0.4631(3) 0.5854(4)
N21 N 0.8377(3) 0.3777(3) 0.6305(5)
N23 N 0.8775(3) 0.3288(3) 0.7974(4)
N24 N 0.9227(3) 0.3364(3) 0.5873(5)
N25 N 0.8403(3) 0.4480(3) 0.8674(5)
N26 N 0.7484(3) 0.3503(3) 0.9701(5)
N27 N 0.9257(3) 0.4979(3) 0.9202(4)
N29 N 0.9548(3) 0.5511(3) 0.7810(4)
N31 N 0.8627(3) 0.4977(3) 0.7296(4)
N32 N 0.8020(4) 0.4936(4) 0.5543(6)
C49 C 0.9171(3) 0.4359(3) 0.7499(5)
C50 C 0.9483(3) 0.4385(3) 0.6255(5)
C51 C 0.8680(3) 0.3845(3) 0.6528(5)
C52 C 0.9757(4) 0.4127(3) 0.7245(6)
C53 C 0.8942(3) 0.3537(3) 0.7590(5)
C54 C 0.9230(3) 0.3579(3) 0.6266(5)
C55 C 0.8217(4) 0.4091(4) 0.8453(5)
C56 C 0.7917(4) 0.3775(4) 0.8759(6)
C57 C 0.7779(4) 0.3829(4) 0.9356(6)
C58 C 0.7946(4) 0.4210(4) 0.9607(6)
C59 C 0.8242(4) 0.4517(4) 0.9248(7)
C60 C 0.7291(5) 0.3104(4) 0.9445(7)
C62 C 0.9317(4) 0.5214(3) 0.9724(6)
C65 C 0.9458(3) 0.4604(3) 0.9890(5)
C66 C 0.9332(3) 0.4679(3) 0.9303(5)
C69 C 0.9720(4) 0.5888(4) 0.8036(6)
C73 C 0.9757(3) 0.5444(3) 0.7348(5)
C76 C 0.8609(4) 0.4748(3) 0.6759(6)
C77 C 0.8414(4) 0.4737(4) 0.6174(5)
C78 C 0.8214(4) 0.4950(4) 0.6117(6)
C79 C 0.8230(4) 0.5178(4) 0.6652(6)
C80 C 0.8434(3) 0.5178(4) 0.7215(5)
C81 C 0.8034(6) 0.4727(6) 0.4968(8)
C82 C 0.7816(6) 0.5158(5) 0.5473(8)
C83 C 0.9898(4) 0.4135(4) 0.4740(6)
C84 C 0.9953(4) 0.3843(4) 0.4453(6)
H61 H 0.8301 0.4050 0.8029
H62 H 0.7802 0.3512 0.8561
H64 H 0.8342 0.4784 0.9401
H65 H 0.7478 0.3021 0.9345
H66 H 0.7164 0.3106 0.9014
H67 H 0.7088 0.2926 0.9719
H71 H 0.9272 0.5435 0.9675
H73 H 0.9509 0.4388 0.9921
H74 H 0.9296 0.4505 0.8933
H81 H 0.9579 0.5948 0.8366
H84 H 0.9641 0.5179 0.7187
H91 H 0.8729 0.4588 0.6794
H92 H 0.8417 0.4582 0.5807
H93 H 0.8107 0.5338 0.6633
H94 H 0.8437 0.5336 0.7582
H95 H 0.7993 0.4841 0.4581
H96 H 0.8288 0.4740 0.4938
H97 H 0.7829 0.4450 0.4992
H98 H 0.7864 0.5264 0.5034
H99 H 0.7912 0.5358 0.5782
H100 H 0.7537 0.4975 0.5522
H101 H 0.9665 0.4051 0.5008
H102 H 0.9743 0.3570 0.4484
H105 H 0.9839 0.3245 0.3482
H106 H 0.9972 0.3160 0.4156
Mn6 Mn 0.83402(5) 0.27084(7) 0.84271(8)
N37 N 0.8820(4) 0.5442(3) 0.8693(4)
Mn1_2 Mn 0.50069(5) 0.60417(7) 0.17604(8)
Mn2_3 Mn 0.5000 0.5000 0.5000
Mn3_2 Mn 0.39653(5) 0.47529(7) 0.30893(7)
N1_2 N 0.4573(3) 0.5457(4) 0.2175(4)
N2_2 N 0.4631(3) 0.4977(4) 0.4146(4)
N3_2 N 0.3777(3) 0.5400(4) 0.3695(5)
N4_2 N 0.4230(3) 0.4147(4) 0.2600(5)
N5_2 N 0.3288(3) 0.4513(4) 0.2026(4)
N6_2 N 0.3364(3) 0.4137(4) 0.4127(5)
N7_2 N 0.4480(3) 0.6077(4) 0.1326(5)
N8_2 N 0.3503(3) 0.6019(4) 0.0299(5)
N9_2 N 0.4979(3) 0.5722(4) 0.0798(4)
N11_2 N 0.5511(3) 0.5963(4) 0.2190(4)
N12_2 N 0.6416(4) 0.5745(5) 0.2853(5)
N13_2 N 0.4977(3) 0.6350(4) 0.2704(4)
N14_2 N 0.4936(4) 0.6916(6) 0.4457(6)
N15_2 N 0.4531(3) 0.4375(4) 0.5304(5)
N16_2 N 0.3678(3) 0.3313(4) 0.6229(5)
N17_2 N 0.5301(3) 0.4710(4) 0.4408(4)
N18_2 N 0.5722(4) 0.4051(6) 0.3378(5)
C1_2 C 0.4359(3) 0.5188(4) 0.2501(5)
C2_2 C 0.4385(3) 0.4902(4) 0.3745(5)
C3_2 C 0.3845(3) 0.5165(4) 0.3472(5)
C4_2 C 0.4127(3) 0.4370(5) 0.2755(6)
C5_2 C 0.3537(3) 0.4595(4) 0.2410(5)
C6_2 C 0.3579(3) 0.4349(4) 0.3734(5)
C7_2 C 0.4091(4) 0.5874(6) 0.1547(5)
C8_2 C 0.3775(4) 0.5858(6) 0.1241(6)
C9_2 C 0.3829(4) 0.6050(6) 0.0644(6)
C10_2 C 0.4210(4) 0.6264(6) 0.0393(6)
C11_2 C 0.4517(4) 0.6275(6) 0.0752(7)
C12_2 C 0.3104(4) 0.5813(6) 0.0555(7)
C14_2 C 0.5214(3) 0.5897(5) 0.0276(6)
C17_2 C 0.4604(3) 0.5146(4) 0.0110(5)
C18_2 C 0.4679(3) 0.5347(4) 0.0697(5)
C21_2 C 0.5888(4) 0.6168(6) 0.1964(6)
C22_2 C 0.6197(3) 0.6111(4) 0.2173(5)
C23_2 C 0.6118(4) 0.5819(6) 0.2637(5)
C24_2 C 0.5723(3) 0.5602(5) 0.2890(5)
C25_2 C 0.5444(3) 0.5687(4) 0.2652(5)
C26_2 C 0.6826(4) 0.5968(6) 0.2593(7)
C27_2 C 0.6325(5) 0.5406(6) 0.3274(7)
C28_2 C 0.4748(3) 0.6139(5) 0.3241(6)
C29_2 C 0.4737(4) 0.6323(6) 0.3826(5)
C30_2 C 0.4950(4) 0.6736(6) 0.3883(6)
C31_2 C 0.5178(4) 0.6948(6) 0.3348(6)
C32_2 C 0.5178(4) 0.6744(5) 0.2785(5)
C33_2 C 0.4727(6) 0.6693(8) 0.5032(8)
C34_2 C 0.5158(5) 0.7342(8) 0.4527(8)
C35_2 C 0.4135(4) 0.4237(6) 0.5260(6)
C36_2 C 0.3843(4) 0.3890(6) 0.5547(6)
C37_2 C 0.3953(4) 0.3647(6) 0.5904(6)
C38_2 C 0.4359(3) 0.3771(4) 0.5931(5)
C39_2 C 0.4624(3) 0.4123(4) 0.5629(6)
C40_2 C 0.3262(4) 0.3210(6) 0.6268(7)
C41_2 C 0.3799(4) 0.3093(6) 0.6667(7)
C42_2 C 0.5128(4) 0.4517(6) 0.3854(6)
C43_2 C 0.5252(4) 0.4299(6) 0.3490(6)
C44_2 C 0.5570(4) 0.4262(6) 0.3701(7)
C45_2 C 0.5766(4) 0.4475(6) 0.4287(7)
C46_2 C 0.5620(4) 0.4684(6) 0.4597(6)
C47_2 C 0.5521(5) 0.3831(7) 0.2797(7)
C48_2 C 0.6058(5) 0.4019(7) 0.3611(8)
H1_2 H 0.4050 0.5749 0.1971
H2_2 H 0.3512 0.5710 0.1439
H4_2 H 0.4784 0.6442 0.0599
H5_2 H 0.3021 0.5543 0.0655
H6_2 H 0.3106 0.5942 0.0986
H7_2 H 0.2926 0.5838 0.0281
H11_2 H 0.5435 0.6163 0.0325
H13_2 H 0.4388 0.4879 0.0079
H14_2 H 0.4505 0.5209 0.1067
H21_2 H 0.5948 0.6369 0.1634
H22_2 H 0.6462 0.6269 0.2001
H23_2 H 0.5655 0.5400 0.3217
H24_2 H 0.5179 0.5538 0.2813
H25_2 H 0.7012 0.6033 0.2959
H26_2 H 0.6873 0.5817 0.2284
H27_2 H 0.6871 0.6214 0.2408
H28_2 H 0.6192 0.5418 0.3656
H29_2 H 0.6570 0.5415 0.3395
H30_2 H 0.6160 0.5163 0.3042
H31_2 H 0.4588 0.5859 0.3206
H32_2 H 0.4582 0.6165 0.4193
H33_2 H 0.5338 0.7231 0.3367
H34_2 H 0.5336 0.6899 0.2418
H35_2 H 0.4841 0.6848 0.5419
H36_2 H 0.4740 0.6452 0.5062
H37_2 H 0.4450 0.6621 0.5008
H38_2 H 0.5264 0.7400 0.4966
H39_2 H 0.5358 0.7446 0.4218
H40_2 H 0.4975 0.7438 0.4478
H41_2 H 0.4051 0.4386 0.4992
H42_2 H 0.3570 0.3827 0.5516
H43_2 H 0.4449 0.3614 0.6152
H44_2 H 0.4901 0.4205 0.5656
H45_2 H 0.3245 0.3406 0.6518
H46_2 H 0.3160 0.3188 0.5844
H47_2 H 0.3117 0.2954 0.6491
H48_2 H 0.3922 0.3248 0.7049
H49_2 H 0.3986 0.3039 0.6446
H50_2 H 0.3571 0.2845 0.6793
H51_2 H 0.4898 0.4532 0.3717
H52_2 H 0.5112 0.4183 0.3089
H53_2 H 0.5994 0.4469 0.4455
H54_2 H 0.5750 0.4825 0.4989
H55_2 H 0.5613 0.4009 0.2420
H56_2 H 0.5560 0.3616 0.2724
H57_2 H 0.5235 0.3736 0.2835
H58_2 H 0.6283 0.4295 0.3638
H59_2 H 0.6114 0.3869 0.3335
H60_2 H 0.5999 0.3918 0.4048
Mn4_2 Mn 0.49931(5) 0.39583(7) 0.82396(8)
Mn5_2 Mn 0.60347(5) 0.52471(7) 0.69107(7)
N19_2 N 0.5427(3) 0.4543(4) 0.7825(4)
N20_2 N 0.5369(3) 0.5023(4) 0.5854(4)
N21_2 N 0.6223(3) 0.4600(4) 0.6305(5)
N22_2 N 0.5770(3) 0.5853(4) 0.7400(5)
N23_2 N 0.6712(3) 0.5487(4) 0.7974(4)
N24_2 N 0.6636(3) 0.5863(4) 0.5873(5)
N25_2 N 0.5520(3) 0.3923(4) 0.8674(5)
N26_2 N 0.6497(3) 0.3981(4) 0.9701(5)
N27_2 N 0.5021(3) 0.4278(4) 0.9202(4)
N29_2 N 0.4489(3) 0.4037(4) 0.7810(4)
N30_2 N 0.3584(4) 0.4255(5) 0.7147(5)
N31_2 N 0.5023(3) 0.3650(4) 0.7296(4)
N32_2 N 0.5064(4) 0.3084(6) 0.5543(6)
N33_2 N 0.5469(3) 0.5625(4) 0.4696(5)
N34_2 N 0.6322(3) 0.6687(4) 0.3771(5)
N35_2 N 0.4699(3) 0.5290(4) 0.5592(4)
N36_2 N 0.4278(4) 0.5949(6) 0.6622(5)
C49_2 C 0.5641(3) 0.4812(4) 0.7499(5)
C50_2 C 0.5615(3) 0.5098(4) 0.6255(5)
C51_2 C 0.6155(3) 0.4835(4) 0.6528(5)
C52_2 C 0.5873(3) 0.5630(5) 0.7245(6)
C53_2 C 0.6463(3) 0.5405(4) 0.7590(5)
C54_2 C 0.6421(3) 0.5651(4) 0.6266(5)
C55_2 C 0.5909(4) 0.4126(6) 0.8453(5)
C56_2 C 0.6225(4) 0.4142(6) 0.8759(6)
C57_2 C 0.6171(4) 0.3950(6) 0.9356(6)
C58_2 C 0.5790(4) 0.3736(6) 0.9607(6)
C59_2 C 0.5483(4) 0.3725(6) 0.9248(7)
C60_2 C 0.6896(4) 0.4187(6) 0.9445(7)
C62_2 C 0.4786(3) 0.4103(5) 0.9724(6)
C65_2 C 0.5396(3) 0.4854(4) 0.9890(5)
C66_2 C 0.5321(3) 0.4653(4) 0.9303(5)
C69_2 C 0.4112(4) 0.3832(6) 0.8036(6)
C70_2 C 0.3803(3) 0.3889(4) 0.7827(5)
C71_2 C 0.3882(4) 0.4181(6) 0.7363(5)
C72_2 C 0.4277(3) 0.4398(5) 0.7110(5)
C73_2 C 0.4556(3) 0.4313(4) 0.7348(5)
C74_2 C 0.3174(4) 0.4032(6) 0.7407(7)
C75_2 C 0.3675(5) 0.4594(6) 0.6726(7)
C76_2 C 0.5252(3) 0.3861(5) 0.6759(6)
C77_2 C 0.5263(4) 0.3677(6) 0.6174(5)
C78_2 C 0.5050(4) 0.3264(6) 0.6117(6)
C79_2 C 0.4822(4) 0.3052(6) 0.6652(6)
C80_2 C 0.4822(4) 0.3256(5) 0.7215(5)
C81_2 C 0.5273(6) 0.3307(8) 0.4968(8)
C82_2 C 0.4842(5) 0.2658(8) 0.5473(8)
C83_2 C 0.5865(4) 0.5763(6) 0.4740(6)
C84_2 C 0.6157(4) 0.6110(6) 0.4453(6)
C85_2 C 0.6047(4) 0.6353(6) 0.4096(6)
C86_2 C 0.5641(3) 0.6229(4) 0.4069(5)
C87_2 C 0.5376(3) 0.5877(4) 0.4371(6)
C88_2 C 0.6738(4) 0.6790(6) 0.3732(7)
C89_2 C 0.6201(4) 0.6907(6) 0.3333(7)
C90_2 C 0.4872(4) 0.5483(6) 0.6146(6)
C91_2 C 0.4748(4) 0.5701(6) 0.6510(6)
C92_2 C 0.4430(4) 0.5738(6) 0.6299(7)
C93_2 C 0.4234(4) 0.5525(6) 0.5713(7)
C94_2 C 0.4380(4) 0.5316(6) 0.5403(6)
C95_2 C 0.4479(5) 0.6169(7) 0.7203(7)
C96_2 C 0.3942(5) 0.5981(7) 0.6389(8)
H61_2 H 0.5950 0.4251 0.8029
H62_2 H 0.6488 0.4290 0.8561
H64_2 H 0.5216 0.3558 0.9401
H65_2 H 0.6979 0.4457 0.9345
H66_2 H 0.6894 0.4058 0.9014
H67_2 H 0.7074 0.4162 0.9719
H71_2 H 0.4565 0.3837 0.9675
H73_2 H 0.5612 0.5121 0.9921
H74_2 H 0.5495 0.4791 0.8933
H81_2 H 0.4052 0.3631 0.8366
H82_2 H 0.3538 0.3731 0.7999
H83_2 H 0.4345 0.4600 0.6783
H84_2 H 0.4821 0.4462 0.7187
H85_2 H 0.2988 0.3967 0.7041
H86_2 H 0.3127 0.4183 0.7716
H87_2 H 0.3129 0.3786 0.7592
H88_2 H 0.3808 0.4582 0.6344
H89_2 H 0.3430 0.4585 0.6605
H90_2 H 0.3840 0.4837 0.6958
H91_2 H 0.5412 0.4141 0.6794
H92_2 H 0.5418 0.3835 0.5807
H93_2 H 0.4662 0.2769 0.6633
H94_2 H 0.4664 0.3101 0.7582
H95_2 H 0.5159 0.3152 0.4581
H96_2 H 0.5260 0.3548 0.4938
H97_2 H 0.5550 0.3379 0.4992
H98_2 H 0.4736 0.2600 0.5034
H99_2 H 0.4642 0.2554 0.5782
H100_2 H 0.5025 0.2562 0.5522
H101_2 H 0.5949 0.5614 0.5008
H102_2 H 0.6430 0.6173 0.4484
H103_2 H 0.5551 0.6386 0.3848
H104_2 H 0.5099 0.5795 0.4344
H105_2 H 0.6755 0.6594 0.3482
H106_2 H 0.6840 0.6812 0.4156
H107_2 H 0.6883 0.7046 0.3509
H108_2 H 0.6078 0.6752 0.2951
H109_2 H 0.6014 0.6961 0.3554
H110_2 H 0.6429 0.7155 0.3207
H111_2 H 0.5102 0.5468 0.6283
H112_2 H 0.4888 0.5817 0.6911
H113_2 H 0.4006 0.5531 0.5545
H114_2 H 0.4250 0.5175 0.5011
H115_2 H 0.4387 0.5991 0.7580
H116_2 H 0.4440 0.6384 0.7276
H117_2 H 0.4765 0.6264 0.7165
H118_2 H 0.3717 0.5705 0.6362
H119_2 H 0.3886 0.6131 0.6665
H120_2 H 0.4001 0.6082 0.5952
Mn6_2 Mn 0.72916(7) 0.56319(9) 0.84271(8)
Mn7_2 Mn 0.27084(7) 0.43681(9) 0.15729(8)
N37_2 N 0.4558(3) 0.3379(5) 0.8693(4)
N38_2 N 0.5442(3) 0.6621(5) 0.1307(4)
Mn2_4 Mn 0.5000 0.0000 0.5000
N4_3 N 0.5853(4) 0.0083(3) 0.2600(5)
N12_3 N 0.4255(5) 0.0671(3) 0.2853(5)
N15_3 N 0.5625(4) 0.0156(3) 0.5304(5)
N16_3 N 0.6687(4) 0.0365(3) 0.6229(5)
N17_3 N 0.5290(4) 0.0591(3) 0.4408(4)
N18_3 N 0.5949(6) 0.1671(4) 0.3378(5)
C22_3 C 0.3889(4) 0.0086(3) 0.2173(5)
C23_3 C 0.4181(6) 0.0299(4) 0.2637(5)
C24_3 C 0.4398(5) 0.0121(4) 0.2890(5)
C26_3 C 0.4032(6) 0.0858(4) 0.2593(7)
C27_3 C 0.4594(6) 0.0919(4) 0.3274(7)
C37_3 C 0.6353(6) 0.0306(4) 0.5904(6)
C38_3 C 0.6229(4) 0.0588(3) 0.5931(5)
C39_3 C 0.5877(4) 0.0501(3) 0.5629(6)
C40_3 C 0.6790(6) 0.0052(4) 0.6268(7)
C41_3 C 0.6907(6) 0.0706(4) 0.6667(7)
C42_3 C 0.5483(6) 0.0611(4) 0.3854(6)
C43_3 C 0.5701(6) 0.0953(4) 0.3490(6)
C44_3 C 0.5738(6) 0.1308(5) 0.3701(7)
C45_3 C 0.5525(6) 0.1291(4) 0.4287(7)
C46_3 C 0.5316(6) 0.0936(4) 0.4597(6)
C47_3 C 0.6169(7) 0.1690(5) 0.2797(7)
C48_3 C 0.5981(7) 0.2039(5) 0.3611(8)
H22_3 H 0.3731 0.0193 0.2001
H23_3 H 0.4600 0.0255 0.3217
H25_3 H 0.3967 0.0979 0.2959
H26_3 H 0.4183 0.1056 0.2284
H27_3 H 0.3786 0.0657 0.2408
H28_3 H 0.4582 0.0774 0.3656
H29_3 H 0.4585 0.1155 0.3395
H30_3 H 0.4837 0.0997 0.3042
H43_3 H 0.6386 0.0835 0.6152
H44_3 H 0.5795 0.0696 0.5656
H47_3 H 0.7046 0.0163 0.6491
H48_3 H 0.6752 0.0674 0.7049
H49_3 H 0.6961 0.0947 0.6446
H50_3 H 0.7155 0.0726 0.6793
H51_3 H 0.5468 0.0366 0.3717
H52_3 H 0.5817 0.0929 0.3089
H53_3 H 0.5531 0.1525 0.4455
H54_3 H 0.5175 0.0925 0.4989
H55_3 H 0.5991 0.1604 0.2420
H56_3 H 0.6384 0.1944 0.2724
H57_3 H 0.6264 0.1499 0.2835
H58_3 H 0.5705 0.1988 0.3638
H59_3 H 0.6131 0.2245 0.3335
H60_3 H 0.6082 0.2081 0.4048
Mn4_3 Mn 0.60417(7) 0.10348(5) 0.82396(8)
Mn5_3 Mn 0.47529(7) 0.07876(5) 0.69107(7)
N19_3 N 0.5457(4) 0.0884(3) 0.7825(4)
N20_3 N 0.4977(4) 0.0346(3) 0.5854(4)
N21_3 N 0.5400(4) 0.1623(3) 0.6305(5)
N23_3 N 0.4513(4) 0.1225(3) 0.7974(4)
N24_3 N 0.4137(4) 0.0773(3) 0.5873(5)
N25_3 N 0.6077(4) 0.1597(3) 0.8674(5)
N26_3 N 0.6019(4) 0.2516(3) 0.9701(5)
N27_3 N 0.5722(4) 0.0743(3) 0.9202(4)
N29_3 N 0.5963(4) 0.0452(3) 0.7810(4)
N31_3 N 0.6350(4) 0.1373(3) 0.7296(4)
N32_3 N 0.6916(6) 0.1980(4) 0.5543(6)
C49_3 C 0.5188(4) 0.0829(3) 0.7499(5)
C50_3 C 0.4902(4) 0.0517(3) 0.6255(5)
C51_3 C 0.5165(4) 0.1320(3) 0.6528(5)
C52_3 C 0.4370(5) 0.0243(4) 0.7245(6)
C53_3 C 0.4595(4) 0.1058(3) 0.7590(5)
C54_3 C 0.4349(4) 0.0770(3) 0.6266(5)
C55_3 C 0.5874(6) 0.1783(4) 0.8453(5)
C56_3 C 0.5858(6) 0.2083(4) 0.8759(6)
C57_3 C 0.6050(6) 0.2221(4) 0.9356(6)
C58_3 C 0.6264(6) 0.2054(4) 0.9607(6)
C59_3 C 0.6275(6) 0.1758(4) 0.9248(7)
C60_3 C 0.5813(6) 0.2709(5) 0.9445(7)
C62_3 C 0.5897(5) 0.0683(4) 0.9724(6)
C65_3 C 0.5146(4) 0.0542(3) 0.9890(5)
C66_3 C 0.5347(4) 0.0668(3) 0.9303(5)
C69_3 C 0.6168(6) 0.0280(4) 0.8036(6)
C73_3 C 0.5687(4) 0.0243(3) 0.7348(5)
C76_3 C 0.6139(5) 0.1391(4) 0.6759(6)
C77_3 C 0.6323(6) 0.1586(4) 0.6174(5)
C78_3 C 0.6736(6) 0.1786(4) 0.6117(6)
C79_3 C 0.6948(6) 0.1770(4) 0.6652(6)
C80_3 C 0.6744(5) 0.1566(3) 0.7215(5)
C81_3 C 0.6693(8) 0.1966(6) 0.4968(8)
C82_3 C 0.7342(8) 0.2184(6) 0.5473(8)
C83_3 C 0.4237(6) 0.0102(4) 0.4740(6)
C84_3 C 0.3890(6) 0.0047(4) 0.4453(6)
H61_3 H 0.5749 0.1699 0.8029
H62_3 H 0.5710 0.2198 0.8561
H64_3 H 0.6442 0.1658 0.9401
H65_3 H 0.5543 0.2522 0.9345
H66_3 H 0.5942 0.2836 0.9014
H67_3 H 0.5838 0.2912 0.9719
H71_3 H 0.6163 0.0728 0.9675
H73_3 H 0.4879 0.0491 0.9921
H74_3 H 0.5209 0.0704 0.8933
H81_3 H 0.6369 0.0421 0.8366
H84_3 H 0.5538 0.0359 0.7187
H91_3 H 0.5859 0.1271 0.6794
H92_3 H 0.6165 0.1583 0.5807
H93_3 H 0.7231 0.1893 0.6633
H94_3 H 0.6899 0.1563 0.7582
H95_3 H 0.6848 0.2007 0.4581
H96_3 H 0.6452 0.1712 0.4938
H97_3 H 0.6621 0.2171 0.4992
H98_3 H 0.7400 0.2136 0.5034
H99_3 H 0.7446 0.2088 0.5782
H100_3 H 0.7438 0.2463 0.5522
H101_3 H 0.4386 0.0335 0.5008
H102_3 H 0.3827 0.0257 0.4484
H105_3 H 0.3406 0.0161 0.3482
H106_3 H 0.3188 0.0028 0.4156
Mn6_3 Mn 0.43681(9) 0.16598(5) 0.84271(8)
N37_3 N 0.6621(5) 0.1180(4) 0.8693(4)
Mn1_3 Mn 0.39583(7) 0.89652(5) 0.17604(8)
Mn2_5 Mn 0.5000 1.0000 0.5000
Mn3_3 Mn 0.52471(7) 0.92124(5) 0.30893(7)
N1_3 N 0.4543(4) 0.9116(3) 0.2175(4)
N2_3 N 0.5023(4) 0.9654(3) 0.4146(4)
N3_3 N 0.4600(4) 0.8377(3) 0.3695(5)
N5_3 N 0.5487(4) 0.8775(3) 0.2026(4)
N6_3 N 0.5863(4) 0.9227(3) 0.4127(5)
N7_3 N 0.3923(4) 0.8403(3) 0.1326(5)
N8_3 N 0.3981(4) 0.7484(3) 0.0299(5)
N9_3 N 0.4278(4) 0.9257(3) 0.0798(4)
N11_3 N 0.4037(4) 0.9548(3) 0.2190(4)
N13_3 N 0.3650(4) 0.8627(3) 0.2704(4)
N14_3 N 0.3084(6) 0.8020(4) 0.4457(6)
C1_3 C 0.4812(4) 0.9171(3) 0.2501(5)
C2_3 C 0.5098(4) 0.9483(3) 0.3745(5)
C3_3 C 0.4835(4) 0.8680(3) 0.3472(5)
C4_3 C 0.5630(5) 0.9757(4) 0.2755(6)
C5_3 C 0.5405(4) 0.8942(3) 0.2410(5)
C6_3 C 0.5651(4) 0.9230(3) 0.3734(5)
C7_3 C 0.4126(6) 0.8217(4) 0.1547(5)
C8_3 C 0.4142(6) 0.7917(4) 0.1241(6)
C9_3 C 0.3950(6) 0.7779(4) 0.0644(6)
C10_3 C 0.3736(6) 0.7946(4) 0.0393(6)
C11_3 C 0.3725(6) 0.8242(4) 0.0752(7)
C12_3 C 0.4187(6) 0.7291(5) 0.0555(7)
C14_3 C 0.4103(5) 0.9317(4) 0.0276(6)
C17_3 C 0.4854(4) 0.9458(3) 0.0110(5)
C18_3 C 0.4653(4) 0.9332(3) 0.0697(5)
C21_3 C 0.3832(6) 0.9720(4) 0.1964(6)
C25_3 C 0.4313(4) 0.9757(3) 0.2652(5)
C28_3 C 0.3861(5) 0.8609(4) 0.3241(6)
C29_3 C 0.3677(6) 0.8414(4) 0.3826(5)
C30_3 C 0.3264(6) 0.8214(4) 0.3883(6)
C31_3 C 0.3052(6) 0.8230(4) 0.3348(6)
C32_3 C 0.3256(5) 0.8434(3) 0.2785(5)
C33_3 C 0.3307(8) 0.8034(6) 0.5032(8)
C34_3 C 0.2658(8) 0.7816(6) 0.4527(8)
C35_3 C 0.5763(6) 0.9898(4) 0.5260(6)
C36_3 C 0.6110(6) 0.9953(4) 0.5547(6)
H1_3 H 0.4251 0.8301 0.1971
H2_3 H 0.4290 0.7802 0.1439
H4_3 H 0.3558 0.8342 0.0599
H5_3 H 0.4457 0.7478 0.0655
H6_3 H 0.4058 0.7164 0.0986
H7_3 H 0.4162 0.7088 0.0281
H11_3 H 0.3837 0.9272 0.0325
H13_3 H 0.5121 0.9509 0.0079
H14_3 H 0.4791 0.9296 0.1067
H21_3 H 0.3631 0.9579 0.1634
H24_3 H 0.4462 0.9641 0.2813
H31_3 H 0.4141 0.8729 0.3206
H32_3 H 0.3835 0.8417 0.4193
H33_3 H 0.2769 0.8107 0.3367
H34_3 H 0.3101 0.8437 0.2418
H35_3 H 0.3152 0.7993 0.5419
H36_3 H 0.3548 0.8288 0.5062
H37_3 H 0.3379 0.7829 0.5008
H38_3 H 0.2600 0.7864 0.4966
H39_3 H 0.2554 0.7912 0.4218
H40_3 H 0.2562 0.7537 0.4478
H41_3 H 0.5614 0.9665 0.4992
H42_3 H 0.6173 0.9743 0.5516
H45_3 H 0.6594 0.9839 0.6518
H46_3 H 0.6812 0.9972 0.5844
N22_3 N 0.4147(4) 0.9917(3) 0.7400(5)
N30_3 N 0.5745(5) 0.9329(3) 0.7147(5)
N33_3 N 0.4375(4) 0.9844(3) 0.4696(5)
N34_3 N 0.3313(4) 0.9635(3) 0.3771(5)
N35_3 N 0.4710(4) 0.9409(3) 0.5592(4)
N36_3 N 0.4051(6) 0.8329(4) 0.6622(5)
C70_3 C 0.6111(4) 0.9914(3) 0.7827(5)
C71_3 C 0.5819(6) 0.9701(4) 0.7363(5)
C72_3 C 0.5602(5) 0.9879(4) 0.7110(5)
C74_3 C 0.5968(6) 0.9142(4) 0.7407(7)
C75_3 C 0.5406(6) 0.9081(4) 0.6726(7)
C85_3 C 0.3647(6) 0.9694(4) 0.4096(6)
C86_3 C 0.3771(4) 0.9412(3) 0.4069(5)
C87_3 C 0.4123(4) 0.9499(3) 0.4371(6)
C88_3 C 0.3210(6) 0.9948(4) 0.3732(7)
C89_3 C 0.3093(6) 0.9294(4) 0.3333(7)
C90_3 C 0.4517(6) 0.9389(4) 0.6146(6)
C91_3 C 0.4299(6) 0.9047(4) 0.6510(6)
C92_3 C 0.4262(6) 0.8692(5) 0.6299(7)
C93_3 C 0.4475(6) 0.8709(4) 0.5713(7)
C94_3 C 0.4684(6) 0.9064(4) 0.5403(6)
C95_3 C 0.3831(7) 0.8310(5) 0.7203(7)
C96_3 C 0.4019(7) 0.7961(5) 0.6389(8)
H82_3 H 0.6269 0.9807 0.7999
H83_3 H 0.5400 0.9745 0.6783
H85_3 H 0.6033 0.9021 0.7041
H86_3 H 0.5817 0.8944 0.7716
H87_3 H 0.6214 0.9343 0.7592
H88_3 H 0.5418 0.9226 0.6344
H89_3 H 0.5415 0.8845 0.6605
H90_3 H 0.5163 0.9003 0.6958
H103_3 H 0.3614 0.9165 0.3848
H104_3 H 0.4205 0.9304 0.4344
H107_3 H 0.2954 0.9837 0.3509
H108_3 H 0.3248 0.9326 0.2951
H109_3 H 0.3039 0.9053 0.3554
H110_3 H 0.2845 0.9274 0.3207
H111_3 H 0.4532 0.9634 0.6283
H112_3 H 0.4183 0.9071 0.6911
H113_3 H 0.4469 0.8475 0.5545
H114_3 H 0.4825 0.9075 0.5011
H115_3 H 0.4009 0.8396 0.7580
H116_3 H 0.3616 0.8056 0.7276
H117_3 H 0.3736 0.8501 0.7165
H118_3 H 0.4295 0.8012 0.6362
H119_3 H 0.3869 0.7755 0.6665
H120_3 H 0.3918 0.7919 0.5952
Mn7_3 Mn 0.56319(9) 0.83402(5) 0.15729(8)
N38_3 N 0.3379(5) 0.8820(4) 0.1307(4)
C41_4 C 0.5961(4) 0.9534(4) 0.0000(7)
H48_4 H 0.5993 0.9411 0.0382
H50_4 H 0.5941 0.9762 0.0126
Mn5_4 Mn 0.58791(5) 0.72986(5) 0.02440(7)
N19_4 N 0.5783(3) 0.7906(3) 0.1158(4)
N22_4 N 0.6750(3) 0.7563(3) 0.0733(5)
N25_4 N 0.5070(3) 0.7813(3) 0.2007(5)
N26_4 N 0.4151(3) 0.6836(3) 0.3034(5)
N27_4 N 0.5924(3) 0.8312(3) 0.2535(4)
N28 N 0.6279(3) 0.8095(3) 0.4377(5)
N29_4 N 0.6215(3) 0.8844(3) 0.1143(4)
N30_4 N 0.7338(3) 0.9749(4) 0.0480(5)
N31_4 N 0.5294(3) 0.8310(3) 0.0629(4)
C49_4 C 0.5838(3) 0.7692(3) 0.0832(5)
C52_4 C 0.6424(4) 0.7460(3) 0.0578(6)
C53_4 C 0.5609(3) 0.6870(3) 0.0923(5)
C55_4 C 0.4884(4) 0.7424(4) 0.1786(5)
C56_4 C 0.4584(4) 0.7108(4) 0.2092(6)
C57_4 C 0.4446(4) 0.7162(4) 0.2689(6)
C58_4 C 0.4613(4) 0.7543(4) 0.2940(6)
C59_4 C 0.4909(4) 0.7850(4) 0.2581(7)
C60_4 C 0.3958(5) 0.6437(4) 0.2778(7)
C61 C 0.4037(4) 0.6887(4) 0.3703(8)
C62_4 C 0.5984(4) 0.8547(3) 0.3057(6)
C63 C 0.6102(4) 0.8492(3) 0.3670(6)
C64 C 0.6177(3) 0.8178(3) 0.3789(5)
C65_4 C 0.6125(3) 0.7937(3) 0.3223(5)
C66_4 C 0.5999(3) 0.8012(3) 0.2636(5)
C67 C 0.6356(5) 0.8363(5) 0.4945(6)
C68 C 0.6342(4) 0.7763(4) 0.4462(6)
C69_4 C 0.6387(4) 0.9221(4) 0.1369(6)
C70_4 C 0.6753(3) 0.9530(3) 0.1160(5)
C71_4 C 0.6966(4) 0.9451(4) 0.0696(5)
C72_4 C 0.6788(4) 0.9056(3) 0.0443(5)
C73_4 C 0.6424(3) 0.8777(3) 0.0681(5)
C75_4 C 0.7586(4) 0.9658(5) 0.0059(7)
C76_4 C 0.5276(4) 0.8081(3) 0.0092(6)
C80_4 C 0.5101(3) 0.8511(4) 0.0548(5)
C95_4 C 0.8357(5) 0.8854(5) 0.0536(7)
H61_4 H 0.4968 0.7383 0.1362
H62_4 H 0.4469 0.6845 0.1894
H63 H 0.4531 0.7591 0.3352
H64_4 H 0.5009 0.8117 0.2734
H65_4 H 0.4145 0.6354 0.2678
H66_4 H 0.3831 0.6439 0.2347
H67_4 H 0.3755 0.6259 0.3052
H68 H 0.3945 0.6641 0.3938
H69 H 0.4273 0.7091 0.3923
H70 H 0.3840 0.6958 0.3686
H71_4 H 0.5939 0.8768 0.3008
H72 H 0.6135 0.8673 0.4017
H73_4 H 0.6176 0.7721 0.3254
H74_4 H 0.5963 0.7838 0.2266
H75 H 0.6210 0.8495 0.4913
H76 H 0.6640 0.8557 0.4963
H77 H 0.6289 0.8209 0.5345
H78 H 0.6093 0.7522 0.4439
H79 H 0.6517 0.7770 0.4131
H80 H 0.6460 0.7785 0.4885
H81_4 H 0.6246 0.9281 0.1699
H82_4 H 0.6860 0.9795 0.1332
H83_4 H 0.6922 0.8988 0.0116
H84_4 H 0.6308 0.8512 0.0520
H90_4 H 0.7664 0.9493 0.0291
H91_4 H 0.5396 0.7921 0.0127
H94_4 H 0.5104 0.8669 0.0915
H112_4 H 0.7596 0.8445 0.0244
H115_4 H 0.8271 0.8946 0.0913
H116_4 H 0.8611 0.8893 0.0609
H117_4 H 0.8166 0.8568 0.0498
C41_5 C 0.0466(4) 0.6426(6) 0.0000(7)
H48_5 H 0.0589 0.6581 0.0382
H50_5 H 0.0238 0.6178 0.0126
Mn5_5 Mn 0.27014(5) 0.85804(7) 0.02440(7)
N19_5 N 0.2094(3) 0.7876(4) 0.1158(4)
N22_5 N 0.2437(3) 0.9186(4) 0.0733(5)
N25_5 N 0.2187(3) 0.7256(4) 0.2007(5)
N26_5 N 0.3164(3) 0.7314(4) 0.3034(5)
N27_5 N 0.1688(3) 0.7611(4) 0.2535(4)
N28_2 N 0.1905(3) 0.8183(4) 0.4377(5)
N29_5 N 0.1156(3) 0.7370(4) 0.1143(4)
N30_5 N 0.0251(4) 0.7588(5) 0.0480(5)
N31_5 N 0.1690(3) 0.6983(4) 0.0629(4)
C49_5 C 0.2308(3) 0.8145(4) 0.0832(5)
C52_5 C 0.2540(3) 0.8963(5) 0.0578(6)
C53_5 C 0.3130(3) 0.8738(4) 0.0923(5)
C55_5 C 0.2576(4) 0.7459(6) 0.1786(5)
C56_5 C 0.2892(4) 0.7475(6) 0.2092(6)
C57_5 C 0.2838(4) 0.7283(6) 0.2689(6)
C58_5 C 0.2457(4) 0.7069(6) 0.2940(6)
C59_5 C 0.2150(4) 0.7058(6) 0.2581(7)
C60_5 C 0.3563(4) 0.7520(6) 0.2778(7)
C61_2 C 0.3113(4) 0.7149(6) 0.3703(8)
C62_5 C 0.1453(3) 0.7436(5) 0.3057(6)
C63_2 C 0.1508(3) 0.7609(5) 0.3670(6)
C64_2 C 0.1822(3) 0.7998(4) 0.3789(5)
C65_5 C 0.2063(3) 0.8187(4) 0.3223(5)
C66_5 C 0.1988(3) 0.7986(4) 0.2636(5)
C67_2 C 0.1637(5) 0.7992(7) 0.4945(6)
C68_2 C 0.2237(4) 0.8578(6) 0.4462(6)
C69_5 C 0.0779(4) 0.7165(6) 0.1369(6)
C70_5 C 0.0470(3) 0.7222(4) 0.1160(5)
C71_5 C 0.0549(4) 0.7514(6) 0.0696(5)
C72_5 C 0.0944(3) 0.7731(5) 0.0443(5)
C73_5 C 0.1223(3) 0.7646(4) 0.0681(5)
C75_5 C 0.0342(5) 0.7927(6) 0.0059(7)
C76_5 C 0.1919(3) 0.7194(5) 0.0092(6)
C80_5 C 0.1489(4) 0.6589(5) 0.0548(5)
C95_5 C 0.1146(5) 0.9502(7) 0.0536(7)
H61_5 H 0.2617 0.7584 0.1362
H62_5 H 0.3155 0.7623 0.1894
H63_2 H 0.2409 0.6939 0.3352
H64_5 H 0.1883 0.6891 0.2734
H65_5 H 0.3646 0.7790 0.2678
H66_5 H 0.3561 0.7391 0.2347
H67_5 H 0.3741 0.7495 0.3052
H68_2 H 0.3359 0.7303 0.3938
H69_2 H 0.2909 0.7181 0.3923
H70_2 H 0.3042 0.6881 0.3686
H71_5 H 0.1232 0.7170 0.3008
H72_2 H 0.1327 0.7461 0.4017
H73_5 H 0.2279 0.8454 0.3254
H74_5 H 0.2162 0.8124 0.2266
H75_2 H 0.1505 0.7714 0.4913
H76_2 H 0.1443 0.8082 0.4963
H77_2 H 0.1791 0.8079 0.5345
H78_2 H 0.2478 0.8570 0.4439
H79_2 H 0.2230 0.8746 0.4131
H80_2 H 0.2215 0.8674 0.4885
H81_5 H 0.0719 0.6964 0.1699
H82_5 H 0.0205 0.7064 0.1332
H83_5 H 0.1012 0.7933 0.0116
H84_5 H 0.1488 0.7795 0.0520
H90_5 H 0.0507 0.8170 0.0291
H91_5 H 0.2079 0.7474 0.0127
H94_5 H 0.1331 0.6434 0.0915
H112_5 H 0.1555 0.9150 0.0244
H115_5 H 0.1054 0.9324 0.0913
H116_5 H 0.1107 0.9717 0.0609
H117_5 H 0.1432 0.9597 0.0498
C41_6 C 0.3574(6) 0.4039(4) 0.0000(7)
H48_6 H 0.3419 0.4007 0.0382
H50_6 H 0.3822 0.4059 0.0126
Mn5_6 Mn 0.14196(7) 0.41209(5) 0.02440(7)
N19_6 N 0.2124(4) 0.4217(3) 0.1158(4)
N22_6 N 0.0814(4) 0.3250(3) 0.0733(5)
N25_6 N 0.2744(4) 0.4930(3) 0.2007(5)
N26_6 N 0.2686(4) 0.5849(3) 0.3034(5)
N27_6 N 0.2389(4) 0.4076(3) 0.2535(4)
N28_3 N 0.1817(4) 0.3721(3) 0.4377(5)
N29_6 N 0.2630(4) 0.3785(3) 0.1143(4)
N30_6 N 0.2412(5) 0.2662(3) 0.0480(5)
N31_6 N 0.3017(4) 0.4706(3) 0.0629(4)
C49_6 C 0.1855(4) 0.4162(3) 0.0832(5)
C52_6 C 0.1037(5) 0.3576(4) 0.0578(6)
C53_6 C 0.1262(4) 0.4391(3) 0.0923(5)
C55_6 C 0.2541(6) 0.5116(4) 0.1786(5)
C56_6 C 0.2525(6) 0.5416(4) 0.2092(6)
C57_6 C 0.2717(6) 0.5554(4) 0.2689(6)
C58_6 C 0.2931(6) 0.5387(4) 0.2940(6)
C59_6 C 0.2942(6) 0.5091(4) 0.2581(7)
C60_6 C 0.2480(6) 0.6042(5) 0.2778(7)
C61_3 C 0.2851(6) 0.5963(4) 0.3703(8)
C62_6 C 0.2564(5) 0.4016(4) 0.3057(6)
C63_3 C 0.2391(5) 0.3898(4) 0.3670(6)
C64_3 C 0.2002(4) 0.3823(3) 0.3789(5)
C65_6 C 0.1813(4) 0.3875(3) 0.3223(5)
C66_6 C 0.2014(4) 0.4001(3) 0.2636(5)
C67_3 C 0.2008(7) 0.3644(5) 0.4945(6)
C68_3 C 0.1422(6) 0.3658(4) 0.4462(6)
C69_6 C 0.2835(6) 0.3613(4) 0.1369(6)
C70_6 C 0.2778(4) 0.3247(3) 0.1160(5)
C71_6 C 0.2486(6) 0.3034(4) 0.0696(5)
C72_6 C 0.2269(5) 0.3212(4) 0.0443(5)
C73_6 C 0.2354(4) 0.3576(3) 0.0681(5)
C74_4 C 0.2635(6) 0.2475(4) 0.0740(7)
C75_6 C 0.2073(6) 0.2414(4) 0.0059(7)
C76_6 C 0.2806(5) 0.4724(4) 0.0092(6)
C80_6 C 0.3411(5) 0.4899(3) 0.0548(5)
C95_6 C 0.0498(7) 0.1643(5) 0.0536(7)
H61_6 H 0.2416 0.5032 0.1362
H62_6 H 0.2377 0.5531 0.1894
H63_3 H 0.3061 0.5469 0.3352
H64_6 H 0.3109 0.4991 0.2734
H65_6 H 0.2210 0.5855 0.2678
H66_6 H 0.2609 0.6169 0.2347
H67_6 H 0.2505 0.6245 0.3052
H68_3 H 0.2697 0.6055 0.3938
H69_3 H 0.2819 0.5727 0.3923
H70_3 H 0.3119 0.6160 0.3686
H71_6 H 0.2830 0.4061 0.3008
H72_3 H 0.2539 0.3865 0.4017
H73_6 H 0.1546 0.3824 0.3254
H74_6 H 0.1876 0.4037 0.2266
H75_3 H 0.2286 0.3790 0.4913
H76_3 H 0.1918 0.3360 0.4963
H77_3 H 0.1921 0.3711 0.5345
H78_3 H 0.1430 0.3907 0.4439
H79_3 H 0.1254 0.3483 0.4131
H80_3 H 0.1326 0.3540 0.4885
H81_6 H 0.3036 0.3754 0.1699
H82_6 H 0.2936 0.3140 0.1332
H83_6 H 0.2067 0.3078 0.0116
H84_6 H 0.2205 0.3692 0.0520
H85_4 H 0.2700 0.2354 0.0374
H86_4 H 0.2484 0.2277 0.1049
H87_4 H 0.2881 0.2676 0.0925
H90_6 H 0.1830 0.2336 0.0291
H91_6 H 0.2526 0.4604 0.0127
H94_6 H 0.3566 0.4896 0.0915
H112_6 H 0.0850 0.2404 0.0244
H115_6 H 0.0676 0.1729 0.0913
H116_6 H 0.0283 0.1389 0.0609
H117_6 H 0.0403 0.1834 0.0498
Mn3_4 Mn 0.41209(5) 0.27014(5) 0.97560(7)
N1_4 N 0.4217(3) 0.2094(3) 0.8842(4)
N4_4 N 0.3250(3) 0.2437(3) 0.9267(5)
N7_4 N 0.4930(3) 0.2187(3) 0.7993(5)
N8_4 N 0.5849(3) 0.3164(3) 0.6966(5)
N9_4 N 0.4076(3) 0.1688(3) 0.7465(4)
N10 N 0.3721(3) 0.1905(3) 0.5623(5)
N11_4 N 0.3785(3) 0.1156(3) 0.8857(4)
N12_4 N 0.2662(3) 0.0251(4) 0.9520(5)
N13_4 N 0.4706(3) 0.1690(3) 0.9371(4)
C1_4 C 0.4162(3) 0.2308(3) 0.9168(5)
C4_4 C 0.3576(4) 0.2540(3) 0.9422(6)
C5_4 C 0.4391(3) 0.3130(3) 0.9077(5)
C7_4 C 0.5116(4) 0.2576(4) 0.8214(5)
C8_4 C 0.5416(4) 0.2892(4) 0.7908(6)
C9_4 C 0.5554(4) 0.2838(4) 0.7311(6)
C10_4 C 0.5387(4) 0.2457(4) 0.7060(6)
C11_4 C 0.5091(4) 0.2150(4) 0.7419(7)
C12_4 C 0.6042(5) 0.3563(4) 0.7222(7)
C13 C 0.5963(4) 0.3113(4) 0.6297(8)
C14_4 C 0.4016(4) 0.1453(3) 0.6943(6)
C15 C 0.3898(4) 0.1508(3) 0.6330(6)
C16 C 0.3823(3) 0.1822(3) 0.6211(5)
C17_4 C 0.3875(3) 0.2063(3) 0.6777(5)
C18_4 C 0.4001(3) 0.1988(3) 0.7364(5)
C19 C 0.3644(5) 0.1637(5) 0.5055(6)
C20 C 0.3658(4) 0.2237(4) 0.5538(6)
C21_4 C 0.3613(4) 0.0779(4) 0.8631(6)
C22_4 C 0.3247(3) 0.0470(3) 0.8840(5)
C23_4 C 0.3034(4) 0.0549(4) 0.9304(5)
C24_4 C 0.3212(4) 0.0944(3) 0.9557(5)
C25_4 C 0.3576(3) 0.1223(3) 0.9319(5)
C27_4 C 0.2414(4) 0.0342(5) 0.9941(7)
C28_4 C 0.4724(4) 0.1919(3) 0.9908(6)
C32_4 C 0.4899(3) 0.1489(4) 0.9452(5)
C47_4 C 0.1643(5) 0.1146(5) 0.9464(7)
H1_4 H 0.5032 0.2617 0.8638
H2_4 H 0.5531 0.3155 0.8106
H3 H 0.5469 0.2409 0.6648
H4_4 H 0.4991 0.1883 0.7266
H5_4 H 0.5855 0.3646 0.7322
H6_4 H 0.6169 0.3561 0.7653
H7_4 H 0.6245 0.3741 0.6948
H8 H 0.6055 0.3359 0.6062
H9 H 0.5727 0.2909 0.6077
H10 H 0.6160 0.3042 0.6314
H11_4 H 0.4061 0.1232 0.6992
H12 H 0.3865 0.1327 0.5983
H13_4 H 0.3824 0.2279 0.6746
H14_4 H 0.4037 0.2162 0.7734
H15 H 0.3790 0.1505 0.5087
H16 H 0.3360 0.1443 0.5037
H17 H 0.3711 0.1791 0.4655
H18 H 0.3907 0.2478 0.5561
H19 H 0.3483 0.2230 0.5869
H20 H 0.3540 0.2215 0.5115
H21_4 H 0.3754 0.0719 0.8301
H22_4 H 0.3140 0.0205 0.8668
H23_4 H 0.3078 0.1012 0.9884
H24_4 H 0.3692 0.1488 0.9480
H30_4 H 0.2336 0.0507 0.9709
H31_4 H 0.4604 0.2079 0.9873
H34_4 H 0.4896 0.1331 0.9085
H52_4 H 0.2404 0.1555 0.9756
H55_4 H 0.1729 0.1054 0.9087
H56_4 H 0.1389 0.1107 0.9391
H57_4 H 0.1834 0.1432 0.9502
C89_4 C 0.4039(4) 0.0466(4) 1.0000(7)
H108_4 H 0.4007 0.0589 0.9618
H110_4 H 0.4059 0.0238 0.9874
Mn3_5 Mn 0.72986(5) 0.14196(7) 0.97560(7)
N1_5 N 0.7906(3) 0.2124(4) 0.8842(4)
N4_5 N 0.7563(3) 0.0814(4) 0.9267(5)
N7_5 N 0.7813(3) 0.2744(4) 0.7993(5)
N8_5 N 0.6836(3) 0.2686(4) 0.6966(5)
N9_5 N 0.8312(3) 0.2389(4) 0.7465(4)
N10_2 N 0.8095(3) 0.1817(4) 0.5623(5)
N11_5 N 0.8844(3) 0.2630(4) 0.8857(4)
N12_5 N 0.9749(4) 0.2412(5) 0.9520(5)
N13_5 N 0.8310(3) 0.3017(4) 0.9371(4)
C1_5 C 0.7692(3) 0.1855(4) 0.9168(5)
C4_5 C 0.7460(3) 0.1037(5) 0.9422(6)
C5_5 C 0.6870(3) 0.1262(4) 0.9077(5)
C7_5 C 0.7424(4) 0.2541(6) 0.8214(5)
C8_5 C 0.7108(4) 0.2525(6) 0.7908(6)
C9_5 C 0.7162(4) 0.2717(6) 0.7311(6)
C10_5 C 0.7543(4) 0.2931(6) 0.7060(6)
C11_5 C 0.7850(4) 0.2942(6) 0.7419(7)
C12_5 C 0.6437(4) 0.2480(6) 0.7222(7)
C13_2 C 0.6887(4) 0.2851(6) 0.6297(8)
C14_5 C 0.8547(3) 0.2564(5) 0.6943(6)
C15_2 C 0.8492(3) 0.2391(5) 0.6330(6)
C16_2 C 0.8178(3) 0.2002(4) 0.6211(5)
C17_5 C 0.7937(3) 0.1813(4) 0.6777(5)
C18_5 C 0.8012(3) 0.2014(4) 0.7364(5)
C19_2 C 0.8363(5) 0.2008(7) 0.5055(6)
C20_2 C 0.7763(4) 0.1422(6) 0.5538(6)
C21_5 C 0.9221(4) 0.2835(6) 0.8631(6)
C22_5 C 0.9530(3) 0.2778(4) 0.8840(5)
C23_5 C 0.9451(4) 0.2486(6) 0.9304(5)
C24_5 C 0.9056(3) 0.2269(5) 0.9557(5)
C25_5 C 0.8777(3) 0.2354(4) 0.9319(5)
C27_5 C 0.9658(5) 0.2073(6) 0.9941(7)
C28_5 C 0.8081(3) 0.2806(5) 0.9908(6)
C32_5 C 0.8511(4) 0.3411(5) 0.9452(5)
C47_5 C 0.8854(5) 0.0498(7) 0.9464(7)
H1_5 H 0.7383 0.2416 0.8638
H2_5 H 0.6845 0.2377 0.8106
H3_2 H 0.7591 0.3061 0.6648
H4_5 H 0.8117 0.3109 0.7266
H5_5 H 0.6354 0.2210 0.7322
H6_5 H 0.6439 0.2609 0.7653
H7_5 H 0.6259 0.2505 0.6948
H8_2 H 0.6641 0.2697 0.6062
H9_2 H 0.7091 0.2819 0.6077
H10_2 H 0.6958 0.3119 0.6314
H11_5 H 0.8768 0.2830 0.6992
H12_2 H 0.8673 0.2539 0.5983
H13_5 H 0.7721 0.1546 0.6746
H14_5 H 0.7838 0.1876 0.7734
H15_2 H 0.8495 0.2286 0.5087
H16_2 H 0.8557 0.1918 0.5037
H17_2 H 0.8209 0.1921 0.4655
H18_2 H 0.7522 0.1430 0.5561
H19_2 H 0.7770 0.1254 0.5869
H20_2 H 0.7785 0.1326 0.5115
H21_5 H 0.9281 0.3036 0.8301
H22_5 H 0.9795 0.2936 0.8668
H23_5 H 0.8988 0.2067 0.9884
H24_5 H 0.8512 0.2205 0.9480
H30_5 H 0.9493 0.1830 0.9709
H31_5 H 0.7921 0.2526 0.9873
H34_5 H 0.8669 0.3566 0.9085
H52_5 H 0.8445 0.0850 0.9756
H55_5 H 0.8946 0.0676 0.9087
H56_5 H 0.8893 0.0283 0.9391
H57_5 H 0.8568 0.0403 0.9502
C89_5 C 0.9534(4) 0.3574(6) 1.0000(7)
H108_5 H 0.9411 0.3419 0.9618
H110_5 H 0.9762 0.3822 0.9874
Mn3_6 Mn 0.85804(7) 0.58791(5) 0.97560(7)
N1_6 N 0.7876(4) 0.5783(3) 0.8842(4)
N4_6 N 0.9186(4) 0.6750(3) 0.9267(5)
N7_6 N 0.7256(4) 0.5070(3) 0.7993(5)
N8_6 N 0.7314(4) 0.4151(3) 0.6966(5)
N9_6 N 0.7611(4) 0.5924(3) 0.7465(4)
N10_3 N 0.8183(4) 0.6279(3) 0.5623(5)
N11_6 N 0.7370(4) 0.6215(3) 0.8857(4)
N12_6 N 0.7588(5) 0.7338(3) 0.9520(5)
N13_6 N 0.6983(4) 0.5294(3) 0.9371(4)
C1_6 C 0.8145(4) 0.5838(3) 0.9168(5)
C4_6 C 0.8963(5) 0.6424(4) 0.9422(6)
C5_6 C 0.8738(4) 0.5609(3) 0.9077(5)
C7_6 C 0.7459(6) 0.4884(4) 0.8214(5)
C8_6 C 0.7475(6) 0.4584(4) 0.7908(6)
C9_6 C 0.7283(6) 0.4446(4) 0.7311(6)
C10_6 C 0.7069(6) 0.4613(4) 0.7060(6)
C11_6 C 0.7058(6) 0.4909(4) 0.7419(7)
C12_6 C 0.7520(6) 0.3958(5) 0.7222(7)
C13_3 C 0.7149(6) 0.4037(4) 0.6297(8)
C14_6 C 0.7436(5) 0.5984(4) 0.6943(6)
C15_3 C 0.7609(5) 0.6102(4) 0.6330(6)
C16_3 C 0.7998(4) 0.6177(3) 0.6211(5)
C17_6 C 0.8187(4) 0.6125(3) 0.6777(5)
C18_6 C 0.7986(4) 0.5999(3) 0.7364(5)
C19_3 C 0.7992(7) 0.6356(5) 0.5055(6)
C20_3 C 0.8578(6) 0.6342(4) 0.5538(6)
C21_6 C 0.7165(6) 0.6387(4) 0.8631(6)
C22_6 C 0.7222(4) 0.6753(3) 0.8840(5)
C23_6 C 0.7514(6) 0.6966(4) 0.9304(5)
C24_6 C 0.7731(5) 0.6788(4) 0.9557(5)
C25_6 C 0.7646(4) 0.6424(3) 0.9319(5)
C26_4 C 0.7365(6) 0.7525(4) 0.9260(7)
C27_6 C 0.7927(6) 0.7586(4) 0.9941(7)
C28_6 C 0.7194(5) 0.5276(4) 0.9908(6)
C32_6 C 0.6589(5) 0.5101(3) 0.9452(5)
C47_6 C 0.9502(7) 0.8357(5) 0.9464(7)
H1_6 H 0.7584 0.4968 0.8638
H2_6 H 0.7623 0.4469 0.8106
H3_3 H 0.6939 0.4531 0.6648
H4_6 H 0.6891 0.5009 0.7266
H5_6 H 0.7790 0.4145 0.7322
H6_6 H 0.7391 0.3831 0.7653
H7_6 H 0.7495 0.3755 0.6948
H8_3 H 0.7303 0.3945 0.6062
H9_3 H 0.7181 0.4273 0.6077
H10_3 H 0.6881 0.3840 0.6314
H11_6 H 0.7170 0.5939 0.6992
H12_3 H 0.7461 0.6135 0.5983
H13_6 H 0.8454 0.6176 0.6746
H14_6 H 0.8124 0.5963 0.7734
H15_3 H 0.7714 0.6210 0.5087
H16_3 H 0.8082 0.6640 0.5037
H17_3 H 0.8079 0.6289 0.4655
H18_3 H 0.8570 0.6093 0.5561
H19_3 H 0.8746 0.6517 0.5869
H20_3 H 0.8674 0.6460 0.5115
H21_6 H 0.6964 0.6246 0.8301
H22_6 H 0.7064 0.6860 0.8668
H23_6 H 0.7933 0.6922 0.9884
H24_6 H 0.7795 0.6308 0.9480
H25_4 H 0.7300 0.7646 0.9626
H26_4 H 0.7516 0.7723 0.8951
H27_4 H 0.7119 0.7324 0.9075
H30_6 H 0.8170 0.7664 0.9709
H31_6 H 0.7474 0.5396 0.9873
H34_6 H 0.6434 0.5104 0.9085
H52_6 H 0.9150 0.7596 0.9756
H55_6 H 0.9324 0.8271 0.9087
H56_6 H 0.9717 0.8611 0.9391
H57_6 H 0.9597 0.8166 0.9502
C89_6 C 0.6426(6) 0.5961(4) 1.0000(7)
H108_6 H 0.6581 0.5993 0.9618
H110_6 H 0.6178 0.5941 0.9874
N10_4 N 0.0388(3) 0.5238(3) 0.8956(5)
C13_4 C 0.2630(4) 0.6446(4) 0.9630(8)
C15_4 C 0.0565(4) 0.4841(3) 0.9663(6)
C16_4 C 0.0490(3) 0.5155(3) 0.9544(5)
C19_4 C 0.0311(5) 0.4970(5) 0.8388(6)
C20_4 C 0.0325(4) 0.5570(4) 0.8871(6)
H3_4 H 0.2136 0.5742 0.9981
H8_4 H 0.2722 0.6692 0.9395
H9_4 H 0.2394 0.6242 0.9410
H10_4 H 0.2827 0.6375 0.9647
H12_4 H 0.0532 0.4660 0.9316
H15_4 H 0.0457 0.4838 0.8420
H16_4 H 0.0027 0.4776 0.8370
H17_4 H 0.0378 0.5124 0.7988
H18_4 H 0.0574 0.5811 0.8894
H19_4 H 0.0150 0.5563 0.9202
H20_4 H 0.0207 0.5548 0.8448
N28_4 N 0.9612(3) 0.4762(3) 0.1044(5)
C61_4 C 0.7370(4) 0.3554(4) 0.0370(8)
C63_4 C 0.9435(4) 0.5159(3) 0.0337(6)
C64_4 C 0.9510(3) 0.4845(3) 0.0456(5)
C67_4 C 0.9689(5) 0.5030(5) 0.1612(6)
C68_4 C 0.9675(4) 0.4430(4) 0.1129(6)
H63_4 H 0.7864 0.4258 0.0019
H68_4 H 0.7278 0.3308 0.0605
H69_4 H 0.7606 0.3758 0.0590
H70_4 H 0.7173 0.3625 0.0353
H72_4 H 0.9468 0.5340 0.0684
H75_4 H 0.9543 0.5162 0.1580
H76_4 H 0.9973 0.5224 0.1630
H77_4 H 0.9622 0.4876 0.2012
H78_4 H 0.9426 0.4189 0.1106
H79_4 H 0.9850 0.4437 0.0798
H80_4 H 0.9793 0.4452 0.1552
N28_5 N 0.5238(3) 0.4850(4) 0.1044(5)
C61_5 C 0.6446(4) 0.3816(6) 0.0370(8)
C63_5 C 0.4841(3) 0.4276(5) 0.0337(6)
C64_5 C 0.5155(3) 0.4665(4) 0.0456(5)
C67_5 C 0.4970(5) 0.4659(7) 0.1612(6)
C68_5 C 0.5570(4) 0.5245(6) 0.1129(6)
H63_5 H 0.5742 0.3606 0.0019
H68_5 H 0.6692 0.3970 0.0605
H69_5 H 0.6242 0.3848 0.0590
H70_5 H 0.6375 0.3548 0.0353
H72_5 H 0.4660 0.4128 0.0684
H75_5 H 0.4838 0.4381 0.1580
H76_5 H 0.4776 0.4749 0.1630
H77_5 H 0.5124 0.4746 0.2012
H78_5 H 0.5811 0.5237 0.1106
H79_5 H 0.5563 0.5413 0.0798
H80_5 H 0.5548 0.5341 0.1552
N10_5 N 0.4762(3) 0.5150(4) 0.8956(5)
C13_5 C 0.3554(4) 0.6184(6) 0.9630(8)
C15_5 C 0.5159(3) 0.5724(5) 0.9663(6)
C16_5 C 0.4845(3) 0.5335(4) 0.9544(5)
C19_5 C 0.5030(5) 0.5341(7) 0.8388(6)
C20_5 C 0.4430(4) 0.4755(6) 0.8871(6)
H3_5 H 0.4258 0.6394 0.9981
H8_5 H 0.3308 0.6030 0.9395
H9_5 H 0.3758 0.6152 0.9410
H10_5 H 0.3625 0.6452 0.9647
H12_5 H 0.5340 0.5872 0.9316
H15_5 H 0.5162 0.5619 0.8420
H16_5 H 0.5224 0.5251 0.8370
H17_5 H 0.4876 0.5254 0.7988
H18_5 H 0.4189 0.4763 0.8894
H19_5 H 0.4437 0.4587 0.9202
H20_5 H 0.4452 0.4659 0.8448
N28_6 N 0.5150(4) 0.0388(3) 0.1044(5)
C61_6 C 0.6184(6) 0.2630(4) 0.0370(8)
C63_6 C 0.5724(5) 0.0565(4) 0.0337(6)
C64_6 C 0.5335(4) 0.0490(3) 0.0456(5)
C67_6 C 0.5341(7) 0.0311(5) 0.1612(6)
C68_6 C 0.4755(6) 0.0325(4) 0.1129(6)
H63_6 H 0.6394 0.2136 0.0019
H68_6 H 0.6030 0.2722 0.0605
H69_6 H 0.6152 0.2394 0.0590
H70_6 H 0.6452 0.2827 0.0353
H72_6 H 0.5872 0.0532 0.0684
H75_6 H 0.5619 0.0457 0.1580
H76_6 H 0.5251 0.0027 0.1630
H77_6 H 0.5254 0.0378 0.2012
H78_6 H 0.4763 0.0574 0.1106
H79_6 H 0.4587 0.0150 0.0798
H80_6 H 0.4659 0.0207 0.1552
N10_6 N 0.4850(4) 0.9612(3) 0.8956(5)
C13_6 C 0.3816(6) 0.7370(4) 0.9630(8)
C15_6 C 0.4276(5) 0.9435(4) 0.9663(6)
C16_6 C 0.4665(4) 0.9510(3) 0.9544(5)
C19_6 C 0.4659(7) 0.9689(5) 0.8388(6)
C20_6 C 0.5245(6) 0.9675(4) 0.8871(6)
H3_6 H 0.3606 0.7864 0.9981
H8_6 H 0.3970 0.7278 0.9395
H9_6 H 0.3848 0.7606 0.9410
H10_6 H 0.3548 0.7173 0.9647
H12_6 H 0.4128 0.9468 0.9316
H15_6 H 0.4381 0.9543 0.8420
H16_6 H 0.4749 0.9973 0.8370
H17_6 H 0.4746 0.9622 0.7988
H18_6 H 0.5237 0.9426 0.8894
H19_6 H 0.5413 0.9850 0.9202
H20_6 H 0.5341 0.9793 0.8448
C74_5 C 0.7525(4) 0.0159(4) 0.0740(7)
H85_5 H 0.7646 0.0345 0.0374
H86_5 H 0.7723 0.0206 0.1049
H87_5 H 0.7324 0.0204 0.0925
N5_4 N 0.7892(3) 0.0045(3) 0.5359(4)
C12_7 C 0.9376(5) 0.0229(4) 0.3888(7)
C40_4 C 0.6615(4) 0.0071(4) 0.9601(7)
H5_7 H 0.9189 0.0312 0.3988
H6_7 H 0.9503 0.0227 0.4319
H7_7 H 0.9579 0.0407 0.3614
H8_7 H 0.9389 0.0025 0.2728
H45_4 H 0.6828 0.0088 0.9851
H46_4 H 0.6695 0.0173 0.9177
H47_4 H 0.6504 0.0216 0.9824
Mn7_4 Mn 0.83264(5) 0.06250(7) 0.49063(8)
Mn2_6 Mn 0.8333 0.1667 0.1667
N2_4 N 0.7964(3) 0.1644(4) 0.0813(4)
N3_4 N 0.7110(3) 0.2067(4) 0.0362(5)
N6_4 N 0.6697(3) 0.0804(4) 0.0794(5)
N14_4 N 0.8269(4) 0.3583(6) 0.1124(6)
N15_4 N 0.7864(3) 0.1042(4) 0.1971(5)
N17_4 N 0.8634(3) 0.1377(4) 0.1075(4)
N18_4 N 0.9055(4) 0.0718(6) 0.0045(5)
C2_4 C 0.7718(3) 0.1569(4) 0.0412(5)
C3_4 C 0.7178(3) 0.1832(4) 0.0139(5)
C6_4 C 0.6912(3) 0.1016(4) 0.0401(5)
C29_4 C 0.8070(4) 0.2990(6) 0.0493(5)
C30_4 C 0.8283(4) 0.3403(6) 0.0550(6)
C31_4 C 0.8511(4) 0.3615(6) 0.0015(6)
C33_4 C 0.8060(6) 0.3360(8) 0.1699(8)
C34_4 C 0.8491(5) 0.4009(8) 0.1194(8)
C35_4 C 0.7468(4) 0.0904(6) 0.1927(6)
C36_4 C 0.7176(4) 0.0557(6) 0.2214(6)
C37_4 C 0.7286(4) 0.0314(6) 0.2571(6)
C38_4 C 0.7692(3) 0.0438(4) 0.2598(5)
C39_4 C 0.7957(3) 0.0790(4) 0.2296(6)
C42_4 C 0.8461(4) 0.1184(6) 0.0521(6)
C43_4 C 0.8585(4) 0.0966(6) 0.0157(6)
C44_4 C 0.8903(4) 0.0929(6) 0.0368(7)
C45_4 C 0.9099(4) 0.1142(6) 0.0954(7)
C46_4 C 0.8953(4) 0.1351(6) 0.1264(6)
C48_4 C 0.9391(5) 0.0686(7) 0.0278(8)
H28_4 H 0.9525 0.2085 0.0323
H29_4 H 0.9903 0.2082 0.0062
H32_4 H 0.7915 0.2832 0.0860
H33_4 H 0.8671 0.3898 0.0034
H35_4 H 0.8174 0.3515 0.2086
H36_4 H 0.8073 0.3119 0.1729
H37_4 H 0.7783 0.3288 0.1675
H38_4 H 0.8597 0.4067 0.1633
H39_4 H 0.8691 0.4113 0.0885
H40_4 H 0.8308 0.4105 0.1145
H41_4 H 0.7384 0.1053 0.1659
H42_4 H 0.6903 0.0494 0.2183
H43_4 H 0.7782 0.0281 0.2819
H44_4 H 0.8234 0.0872 0.2323
H45_5 H 0.6578 0.0073 0.3185
H51_4 H 0.8231 0.1199 0.0384
H53_4 H 0.9327 0.1136 0.1122
H54_4 H 0.9083 0.1492 0.1656
H58_4 H 0.9616 0.0962 0.0305
H59_4 H 0.9447 0.0536 0.0002
H60_4 H 0.9332 0.0585 0.0715
Mn5_7 Mn 0.93680(5) 0.19138(7) 0.35774(7)
N19_7 N 0.8760(3) 0.1210(4) 0.4492(4)
N20_4 N 0.8702(3) 0.1690(4) 0.2521(4)
N21_4 N 0.9556(3) 0.1267(4) 0.2972(5)
N22_7 N 0.9103(3) 0.2520(4) 0.4067(5)
N24_4 N 0.9969(3) 0.2530(4) 0.2540(5)
N25_7 N 0.8853(3) 0.0590(4) 0.5341(5)
N26_7 N 0.9830(3) 0.0648(4) 0.6368(5)
N27_7 N 0.8354(3) 0.0945(4) 0.5869(4)
N28_7 N 0.8571(3) 0.1517(4) 0.7711(5)
N29_7 N 0.7822(3) 0.0704(4) 0.4477(4)
N30_7 N 0.6917(4) 0.0922(5) 0.3814(5)
N31_7 N 0.8356(3) 0.0317(4) 0.3963(4)
N33_4 N 0.8802(3) 0.2292(4) 0.1363(5)
N34_4 N 0.9655(3) 0.3354(4) 0.0438(5)
N35_4 N 0.8032(3) 0.1957(4) 0.2259(4)
N36_4 N 0.7611(4) 0.2616(6) 0.3289(5)
C49_7 C 0.8974(3) 0.1479(4) 0.4166(5)
C50_4 C 0.8948(3) 0.1765(4) 0.2922(5)
C51_4 C 0.9488(3) 0.1502(4) 0.3195(5)
C52_7 C 0.9206(3) 0.2297(5) 0.3912(6)
C53_7 C 0.9796(3) 0.2072(4) 0.4257(5)
C54_4 C 0.9754(3) 0.2318(4) 0.2933(5)
C55_7 C 0.9242(4) 0.0793(6) 0.5120(5)
C56_7 C 0.9558(4) 0.0809(6) 0.5426(6)
C57_7 C 0.9504(4) 0.0617(6) 0.6023(6)
C58_7 C 0.9123(4) 0.0403(6) 0.6274(6)
C59_7 C 0.8816(4) 0.0392(6) 0.5915(7)
C61_7 C 0.9779(4) 0.0483(6) 0.7037(8)
C62_7 C 0.8119(3) 0.0770(5) 0.6391(6)
C63_7 C 0.8174(3) 0.0943(5) 0.7004(6)
C64_7 C 0.8488(3) 0.1332(4) 0.7123(5)
C65_7 C 0.8729(3) 0.1521(4) 0.6557(5)
C66_7 C 0.8654(3) 0.1320(4) 0.5970(5)
C67_7 C 0.8303(5) 0.1326(7) 0.8279(6)
C68_7 C 0.8903(4) 0.1912(6) 0.7796(6)
C69_7 C 0.7445(4) 0.0499(6) 0.4703(6)
C70_7 C 0.7136(3) 0.0556(4) 0.4494(5)
C71_7 C 0.7215(4) 0.0848(6) 0.4030(5)
C72_7 C 0.7610(3) 0.1065(5) 0.3777(5)
C73_7 C 0.7889(3) 0.0980(4) 0.4015(5)
C74_6 C 0.6507(4) 0.0699(6) 0.4074(7)
C75_7 C 0.7008(5) 0.1261(6) 0.3393(7)
C76_7 C 0.8585(3) 0.0528(5) 0.3426(6)
C77_4 C 0.8596(4) 0.0344(6) 0.2841(5)
C83_4 C 0.9198(4) 0.2430(6) 0.1407(6)
C84_4 C 0.9490(4) 0.2777(6) 0.1120(6)
C85_4 C 0.9380(4) 0.3020(6) 0.0763(6)
C86_4 C 0.8974(3) 0.2896(4) 0.0736(5)
C87_4 C 0.8709(3) 0.2544(4) 0.1038(6)
C89_7 C 0.9534(4) 0.3574(6) -0.0000(7)
C90_4 C 0.8205(4) 0.2150(6) 0.2813(6)
C91_4 C 0.8081(4) 0.2368(6) 0.3177(6)
C92_4 C 0.7763(4) 0.2405(6) 0.2966(7)
C93_4 C 0.7567(4) 0.2192(6) 0.2380(7)
C94_4 C 0.7713(4) 0.1983(6) 0.2070(6)
C95_7 C 0.7812(5) 0.2836(7) 0.3870(7)
C96_4 C 0.7275(5) 0.2648(7) 0.3056(8)
H61_7 H 0.9283 0.0918 0.4696
H62_7 H 0.9821 0.0957 0.5228
H63_7 H 0.9075 0.0273 0.6686
H64_7 H 0.8549 0.0225 0.6068
H69_7 H 0.9575 0.0515 0.7257
H70_7 H 0.9708 0.0215 0.7020
H71_7 H 0.7898 0.0504 0.6342
H72_7 H 0.7993 0.0795 0.7351
H73_7 H 0.8945 0.1788 0.6588
H74_7 H 0.8828 0.1458 0.5600
H75_7 H 0.8171 0.1048 0.8247
H76_7 H 0.8109 0.1416 0.8297
H77_7 H 0.8457 0.1413 0.8679
H78_7 H 0.9144 0.1904 0.7773
H79_7 H 0.8896 0.2080 0.7465
H80_7 H 0.8881 0.2008 0.8219
H81_7 H 0.7385 0.0298 0.5033
H82_7 H 0.6871 0.0398 0.4666
H83_7 H 0.7678 0.1267 0.3450
H84_7 H 0.8154 0.1129 0.3854
H85_6 H 0.6321 0.0634 0.3708
H86_6 H 0.6460 0.0850 0.4383
H87_6 H 0.6462 0.0453 0.4259
H88_4 H 0.7141 0.1249 0.3011
H89_4 H 0.6763 0.1252 0.3272
H90_7 H 0.7173 0.1504 0.3625
H91_7 H 0.8745 0.0808 0.3461
H92_4 H 0.8751 0.0502 0.2474
H96_4 H 0.8593 0.0215 0.1605
H97_4 H 0.8883 0.0046 0.1659
H101_4 H 0.9282 0.2281 0.1675
H102_4 H 0.9763 0.2840 0.1151
H103_4 H 0.8884 0.3053 0.0515
H104_4 H 0.8432 0.2462 0.1011
H109_4 H 0.9347 0.3628 0.0221
H111_4 H 0.8435 0.2135 0.2950
H112_7 H 0.8221 0.2484 0.3578
H113_4 H 0.7339 0.2198 0.2212
H114_4 H 0.7583 0.1842 0.1678
H115_7 H 0.7720 0.2658 0.4247
H116_7 H 0.7773 0.3051 0.3943
H117_7 H 0.8098 0.2931 0.3832
H118_4 H 0.7050 0.2372 0.3029
H119_4 H 0.7219 0.2798 0.3332
H120_4 H 0.7334 0.2749 0.2619
Mn1_4 Mn 0.77015(5) 0.83264(5) 0.50937(8)
Mn2_7 Mn 0.6667 0.8333 0.8333
Mn3_7 Mn 0.74543(5) 0.93680(5) 0.64226(7)
N1_7 N 0.7551(3) 0.8760(3) 0.5508(4)
N2_5 N 0.7013(3) 0.8702(3) 0.7479(4)
N3_5 N 0.8290(3) 0.9556(3) 0.7028(5)
N4_7 N 0.6584(3) 0.9103(3) 0.5933(5)
N6_5 N 0.7440(3) 0.9969(3) 0.7460(5)
N7_7 N 0.8264(3) 0.8853(3) 0.4659(5)
N8_7 N 0.9183(3) 0.9830(3) 0.3632(5)
N9_7 N 0.7410(3) 0.8354(3) 0.4131(4)
N10_7 N 0.7055(3) 0.8571(3) 0.2289(5)
N11_7 N 0.7119(3) 0.7822(3) 0.5523(4)
N12_7 N 0.5996(3) 0.6917(4) 0.6186(5)
N13_7 N 0.8040(3) 0.8356(3) 0.6037(4)
N14_5 N 0.8647(4) 0.8397(4) 0.7790(6)
N15_5 N 0.6511(3) 0.8802(3) 0.8637(5)
N16_4 N 0.6302(3) 0.9655(3) 0.9562(5)
N17_5 N 0.6076(3) 0.8032(3) 0.7741(4)
N18_5 N 0.4996(4) 0.7611(4) 0.6711(5)
C1_7 C 0.7496(3) 0.8974(3) 0.5834(5)
C2_5 C 0.7184(3) 0.8948(3) 0.7078(5)
C3_5 C 0.7987(3) 0.9488(3) 0.6805(5)
C4_7 C 0.6910(4) 0.9206(3) 0.6088(6)
C5_7 C 0.7725(3) 0.9796(3) 0.5743(5)
C6_5 C 0.7437(3) 0.9754(3) 0.7067(5)
C7_7 C 0.8450(4) 0.9242(4) 0.4880(5)
C8_7 C 0.8750(4) 0.9558(4) 0.4574(6)
C9_7 C 0.8888(4) 0.9504(4) 0.3977(6)
C10_7 C 0.8721(4) 0.9123(4) 0.3726(6)
C11_7 C 0.8425(4) 0.8816(4) 0.4085(7)
C13_7 C 0.9297(4) 0.9779(4) 0.2963(8)
C14_7 C 0.7350(4) 0.8119(3) 0.3609(6)
C15_7 C 0.7232(4) 0.8174(3) 0.2996(6)
C16_7 C 0.7157(3) 0.8488(3) 0.2877(5)
C17_7 C 0.7209(3) 0.8729(3) 0.3443(5)
C18_7 C 0.7335(3) 0.8654(3) 0.4030(5)
C19_7 C 0.6978(5) 0.8303(5) 0.1721(6)
C20_7 C 0.6992(4) 0.8903(4) 0.2204(6)
C21_7 C 0.6947(4) 0.7445(4) 0.5297(6)
C22_7 C 0.6581(3) 0.7136(3) 0.5506(5)
C23_7 C 0.6368(4) 0.7215(4) 0.5970(5)
C24_7 C 0.6546(4) 0.7610(3) 0.6223(5)
C25_7 C 0.6910(3) 0.7889(3) 0.5985(5)
C26_5 C 0.5809(4) 0.6507(4) 0.5926(7)
C27_7 C 0.5748(4) 0.7008(5) 0.6607(7)
C28_7 C 0.8058(4) 0.8585(3) 0.6574(6)
C29_5 C 0.8253(4) 0.8596(4) 0.7159(5)
C30_5 C 0.8453(4) 0.8383(4) 0.7216(6)
C31_5 C 0.8437(4) 0.8155(4) 0.6681(6)
C32_7 C 0.8233(3) 0.8155(4) 0.6118(5)
C33_5 C 0.8633(6) 0.8606(6) 0.8365(8)
C34_5 C 0.8851(6) 0.8175(5) 0.7860(8)
C35_5 C 0.6769(4) 0.9198(4) 0.8593(6)
C36_5 C 0.6714(4) 0.9490(4) 0.8880(6)
C37_5 C 0.6361(4) 0.9380(4) 0.9237(6)
C38_5 C 0.6079(3) 0.8974(3) 0.9264(5)
C39_5 C 0.6166(3) 0.8709(3) 0.8962(6)
C41_7 C 0.5961(4) 0.9534(4) 1.0000(7)
C42_5 C 0.6056(4) 0.8205(4) 0.7187(6)
C43_5 C 0.5714(4) 0.8081(4) 0.6823(6)
C44_5 C 0.5359(5) 0.7763(4) 0.7034(7)
C45_5 C 0.5376(4) 0.7567(4) 0.7620(7)
C46_5 C 0.5731(4) 0.7713(4) 0.7930(6)
C47_7 C 0.4977(5) 0.7812(5) 0.6130(7)
C48_5 C 0.4628(5) 0.7275(5) 0.6944(8)
H1_7 H 0.8366 0.9283 0.5304
H2_7 H 0.8865 0.9821 0.4772
H3_7 H 0.8803 0.9075 0.3314
H4_7 H 0.8325 0.8549 0.3932
H9_7 H 0.9061 0.9575 0.2743
H10_7 H 0.9494 0.9708 0.2980
H11_7 H 0.7395 0.7898 0.3658
H12_7 H 0.7199 0.7993 0.2649
H13_7 H 0.7158 0.8945 0.3412
H14_7 H 0.7371 0.8828 0.4400
H15_7 H 0.7124 0.8171 0.1753
H16_7 H 0.6694 0.8109 0.1703
H17_7 H 0.7045 0.8457 0.1321
H18_7 H 0.7241 0.9144 0.2227
H19_7 H 0.6817 0.8896 0.2535
H20_7 H 0.6874 0.8881 0.1781
H21_7 H 0.7088 0.7385 0.4967
H22_7 H 0.6474 0.6871 0.5334
H23_7 H 0.6412 0.7678 0.6550
H24_7 H 0.7026 0.8154 0.6146
H25_5 H 0.5688 0.6321 0.6292
H26_5 H 0.5611 0.6460 0.5617
H27_5 H 0.6010 0.6462 0.5741
H28_5 H 0.5893 0.7141 0.6989
H29_5 H 0.5512 0.6763 0.6728
H30_7 H 0.5670 0.7173 0.6375
H31_7 H 0.7938 0.8745 0.6539
H32_5 H 0.8250 0.8751 0.7526
H33_5 H 0.8560 0.7995 0.6700
H34_7 H 0.8230 0.7997 0.5751
H35_5 H 0.8674 0.8492 0.8752
H36_5 H 0.8379 0.8593 0.8395
H37_5 H 0.8838 0.8883 0.8341
H38_5 H 0.8803 0.8069 0.8299
H39_5 H 0.8755 0.7975 0.7551
H40_5 H 0.9130 0.8358 0.7811
H41_5 H 0.7002 0.9282 0.8325
H42_5 H 0.6924 0.9763 0.8849
H43_5 H 0.5832 0.8884 0.9485
H44_5 H 0.5971 0.8432 0.8989
H49_4 H 0.5720 0.9347 0.9779
H51_5 H 0.6301 0.8435 0.7050
H52_7 H 0.5738 0.8221 0.6422
H53_5 H 0.5142 0.7339 0.7788
H54_5 H 0.5742 0.7583 0.8322
H55_7 H 0.5063 0.7720 0.5753
H56_7 H 0.4723 0.7773 0.6057
H57_7 H 0.5168 0.8098 0.6168
H58_5 H 0.4679 0.7050 0.6971
H59_5 H 0.4422 0.7219 0.6668
H60_5 H 0.4586 0.7334 0.7381
N20_5 N 0.6321(3) 0.7964(3) 0.9187(4)
N21_5 N 0.5044(3) 0.7110(3) 0.9638(5)
N24_5 N 0.5894(3) 0.6697(3) 0.9206(5)
N32_4 N 0.4687(4) 0.8269(4) 0.8876(6)
N33_5 N 0.6823(3) 0.7864(3) 0.8029(5)
N34_5 N 0.7032(3) 0.7011(3) 0.7104(5)
N35_5 N 0.7258(3) 0.8634(3) 0.8925(4)
N36_5 N 0.8338(4) 0.9055(4) 0.9955(5)
C50_5 C 0.6150(3) 0.7718(3) 0.9588(5)
C51_5 C 0.5347(3) 0.7178(3) 0.9861(5)
C54_5 C 0.5897(3) 0.6912(3) 0.9599(5)
C77_5 C 0.5081(4) 0.8070(4) 0.9507(5)
C78_4 C 0.4881(4) 0.8283(4) 0.9450(6)
C79_4 C 0.4897(4) 0.8511(4) 0.9985(6)
C81_4 C 0.4701(6) 0.8060(6) 0.8301(8)
C82_4 C 0.4483(6) 0.8491(5) 0.8806(8)
C83_5 C 0.6565(4) 0.7468(4) 0.8073(6)
C84_5 C 0.6620(4) 0.7176(4) 0.7786(6)
C85_5 C 0.6973(4) 0.7286(4) 0.7429(6)
C86_5 C 0.7255(3) 0.7692(3) 0.7402(5)
C87_5 C 0.7168(3) 0.7957(3) 0.7704(6)
C88_4 C 0.6719(4) 0.6595(4) 0.7065(7)
C89_8 C 0.7373(4) 0.7132(4) 0.6666(7)
C90_5 C 0.7278(4) 0.8461(4) 0.9479(6)
C91_5 C 0.7620(4) 0.8585(4) 0.9843(6)
C92_5 C 0.7975(5) 0.8903(4) 0.9632(7)
C93_5 C 0.7958(4) 0.9099(4) 0.9046(7)
C94_5 C 0.7603(4) 0.8953(4) 0.8736(6)
C96_5 C 0.8706(5) 0.9391(5) 0.9722(8)
H88_5 H 0.7441 0.9525 0.9677
H89_5 H 0.7822 0.9903 0.9938
H92_5 H 0.5084 0.7915 0.9140
H93_4 H 0.4774 0.8671 0.9966
H95_4 H 0.4660 0.8174 0.7914
H96_5 H 0.4955 0.8073 0.8271
H97_5 H 0.4496 0.7783 0.8325
H98_4 H 0.4531 0.8597 0.8367
H99_4 H 0.4579 0.8691 0.9115
H100_4 H 0.4204 0.8308 0.8855
H101_5 H 0.6332 0.7384 0.8341
H102_5 H 0.6410 0.6903 0.7817
H103_5 H 0.7502 0.7782 0.7181
H104_5 H 0.7363 0.8234 0.7677
H105_4 H 0.6506 0.6578 0.6815
H106_4 H 0.6639 0.6493 0.7489
H107_4 H 0.6830 0.6450 0.6842
H108_7 H 0.7341 0.7255 0.6284
H109_5 H 0.7614 0.7319 0.6887
H110_7 H 0.7393 0.6904 0.6540
H111_5 H 0.7033 0.8231 0.9616
H113_5 H 0.8192 0.9327 0.8878
H114_5 H 0.7592 0.9083 0.8344
H118_5 H 0.8655 0.9616 0.9695
H119_5 H 0.8912 0.9447 0.9998
H120_5 H 0.8748 0.9332 0.9285
N38_4 N 0.7846(4) 0.7892(3) 0.4641(4)
N5_5 N 0.9955(3) 0.7846(4) 0.5359(4)
C12_8 C 0.9771(4) 0.9146(6) 0.3888(7)
C40_5 C 0.9929(4) 0.6543(6) 0.9601(7)
H5_8 H 0.9688 0.8876 0.3988
H6_8 H 0.9773 0.9275 0.4319
H7_8 H 0.9593 0.9171 0.3614
H8_8 H 0.9975 0.9363 0.2728
H45_6 H 0.9912 0.6739 0.9851
H46_5 H 0.9827 0.6521 0.9177
H47_5 H 0.9784 0.6287 0.9824
Mn7_5 Mn 0.93750(7) 0.77015(9) 0.49063(8)
Mn2_8 Mn 0.8333 0.6667 0.1667
N2_6 N 0.8356(4) 0.6321(3) 0.0813(4)
N3_6 N 0.7933(4) 0.5044(3) 0.0362(5)
N6_6 N 0.9196(4) 0.5894(3) 0.0794(5)
N14_6 N 0.6417(6) 0.4687(4) 0.1124(6)
N15_6 N 0.8958(4) 0.6823(3) 0.1971(5)
N17_6 N 0.8623(4) 0.7258(3) 0.1075(4)
N18_6 N 0.9282(6) 0.8338(4) 0.0045(5)
C2_6 C 0.8431(4) 0.6150(3) 0.0412(5)
C3_6 C 0.8168(4) 0.5347(3) 0.0139(5)
C6_6 C 0.8984(4) 0.5897(3) 0.0401(5)
C29_6 C 0.7010(6) 0.5081(4) 0.0493(5)
C30_6 C 0.6597(6) 0.4881(4) 0.0550(6)
C31_6 C 0.6385(6) 0.4897(4) 0.0015(6)
C33_6 C 0.6640(8) 0.4701(6) 0.1699(8)
C34_6 C 0.5991(8) 0.4483(6) 0.1194(8)
C35_6 C 0.9096(6) 0.6565(4) 0.1927(6)
C36_6 C 0.9443(6) 0.6620(4) 0.2214(6)
C37_6 C 0.9686(6) 0.6973(4) 0.2571(6)
C38_6 C 0.9562(4) 0.7255(3) 0.2598(5)
C39_6 C 0.9210(4) 0.7168(3) 0.2296(6)
C42_6 C 0.8816(6) 0.7278(4) 0.0521(6)
C43_6 C 0.9034(6) 0.7620(4) 0.0157(6)
C44_6 C 0.9071(6) 0.7975(5) 0.0368(7)
C45_6 C 0.8858(6) 0.7958(4) 0.0954(7)
C46_6 C 0.8649(6) 0.7603(4) 0.1264(6)
C48_6 C 0.9314(7) 0.8706(5) 0.0278(8)
H28_6 H 0.7915 0.7441 0.0323
H29_6 H 0.7918 0.7822 0.0062
H32_6 H 0.7168 0.5084 0.0860
H33_6 H 0.6102 0.4774 0.0034
H35_6 H 0.6485 0.4660 0.2086
H36_6 H 0.6881 0.4955 0.1729
H37_6 H 0.6712 0.4496 0.1675
H38_6 H 0.5933 0.4531 0.1633
H39_6 H 0.5887 0.4579 0.0885
H40_6 H 0.5895 0.4204 0.1145
H41_6 H 0.8947 0.6332 0.1659
H42_6 H 0.9506 0.6410 0.2183
H43_6 H 0.9719 0.7502 0.2819
H44_6 H 0.9128 0.7363 0.2323
H45_7 H 0.9927 0.6506 0.3185
H51_6 H 0.8801 0.7033 0.0384
H53_6 H 0.8864 0.8192 0.1122
H54_6 H 0.8508 0.7592 0.1656
H58_6 H 0.9038 0.8655 0.0305
H59_6 H 0.9464 0.8912 0.0002
H60_6 H 0.9415 0.8748 0.0715
Mn5_8 Mn 0.80862(7) 0.74543(5) 0.35774(7)
N19_8 N 0.8790(4) 0.7551(3) 0.4492(4)
N20_6 N 0.8310(4) 0.7013(3) 0.2521(4)
N21_6 N 0.8733(4) 0.8290(3) 0.2972(5)
N22_8 N 0.7480(4) 0.6584(3) 0.4067(5)
N24_6 N 0.7470(4) 0.7440(3) 0.2540(5)
N25_8 N 0.9410(4) 0.8264(3) 0.5341(5)
N26_8 N 0.9352(4) 0.9183(3) 0.6368(5)
N27_8 N 0.9055(4) 0.7410(3) 0.5869(4)
N28_8 N 0.8483(4) 0.7055(3) 0.7711(5)
N29_8 N 0.9296(4) 0.7119(3) 0.4477(4)
N30_8 N 0.9078(5) 0.5996(3) 0.3814(5)
N31_8 N 0.9683(4) 0.8040(3) 0.3963(4)
N33_6 N 0.7708(4) 0.6511(3) 0.1363(5)
N34_6 N 0.6646(4) 0.6302(3) 0.0438(5)
N35_6 N 0.8043(4) 0.6076(3) 0.2259(4)
N36_6 N 0.7384(6) 0.4996(4) 0.3289(5)
C49_8 C 0.8521(4) 0.7496(3) 0.4166(5)
C50_6 C 0.8235(4) 0.7184(3) 0.2922(5)
C51_6 C 0.8498(4) 0.7987(3) 0.3195(5)
C52_8 C 0.7703(5) 0.6910(4) 0.3912(6)
C53_8 C 0.7928(4) 0.7725(3) 0.4257(5)
C54_6 C 0.7682(4) 0.7437(3) 0.2933(5)
C55_8 C 0.9207(6) 0.8450(4) 0.5120(5)
C56_8 C 0.9191(6) 0.8750(4) 0.5426(6)
C57_8 C 0.9383(6) 0.8888(4) 0.6023(6)
C58_8 C 0.9597(6) 0.8721(4) 0.6274(6)
C59_8 C 0.9608(6) 0.8425(4) 0.5915(7)
C60_7 C 0.9146(6) 0.9376(5) 0.6112(7)
C61_8 C 0.9517(6) 0.9297(4) 0.7037(8)
C62_8 C 0.9230(5) 0.7350(4) 0.6391(6)
C63_8 C 0.9057(5) 0.7232(4) 0.7004(6)
C64_8 C 0.8668(4) 0.7157(3) 0.7123(5)
C65_8 C 0.8479(4) 0.7209(3) 0.6557(5)
C66_8 C 0.8680(4) 0.7335(3) 0.5970(5)
C67_8 C 0.8674(7) 0.6978(5) 0.8279(6)
C68_8 C 0.8088(6) 0.6992(4) 0.7796(6)
C69_8 C 0.9501(6) 0.6947(4) 0.4703(6)
C70_8 C 0.9444(4) 0.6581(3) 0.4494(5)
C71_8 C 0.9152(6) 0.6368(4) 0.4030(5)
C72_8 C 0.8935(5) 0.6546(4) 0.3777(5)
C73_8 C 0.9020(4) 0.6910(3) 0.4015(5)
C74_7 C 0.9301(6) 0.5809(4) 0.4074(7)
C75_8 C 0.8739(6) 0.5748(4) 0.3393(7)
C76_8 C 0.9472(5) 0.8058(4) 0.3426(6)
C77_6 C 0.9656(6) 0.8253(4) 0.2841(5)
C83_6 C 0.7570(6) 0.6769(4) 0.1407(6)
C84_6 C 0.7223(6) 0.6714(4) 0.1120(6)
C85_6 C 0.6980(6) 0.6361(4) 0.0763(6)
C86_6 C 0.7104(4) 0.6079(3) 0.0736(5)
C87_6 C 0.7456(4) 0.6166(3) 0.1038(6)
C88_5 C 0.6543(6) 0.6615(4) 0.0399(7)
C89_9 C 0.6426(6) 0.5961(4) -0.0000(7)
C90_6 C 0.7850(6) 0.6056(4) 0.2813(6)
C91_6 C 0.7632(6) 0.5714(4) 0.3177(6)
C92_6 C 0.7595(6) 0.5359(5) 0.2966(7)
C93_6 C 0.7808(6) 0.5376(4) 0.2380(7)
C94_6 C 0.8017(6) 0.5731(4) 0.2070(6)
C95_8 C 0.7164(7) 0.4977(5) 0.3870(7)
C96_6 C 0.7352(7) 0.4628(5) 0.3056(8)
H61_8 H 0.9082 0.8366 0.4696
H62_8 H 0.9043 0.8865 0.5228
H63_8 H 0.9727 0.8803 0.6686
H64_8 H 0.9775 0.8325 0.6068
H65_7 H 0.8876 0.9189 0.6012
H66_7 H 0.9275 0.9503 0.5681
H67_7 H 0.9171 0.9579 0.6386
H68_7 H 0.9363 0.9389 0.7272
H69_8 H 0.9485 0.9061 0.7257
H70_8 H 0.9785 0.9494 0.7020
H71_8 H 0.9496 0.7395 0.6342
H72_8 H 0.9205 0.7199 0.7351
H73_8 H 0.8212 0.7158 0.6588
H74_8 H 0.8542 0.7371 0.5600
H75_8 H 0.8952 0.7124 0.8247
H76_8 H 0.8584 0.6694 0.8297
H77_8 H 0.8587 0.7045 0.8679
H78_8 H 0.8096 0.7241 0.7773
H79_8 H 0.7920 0.6817 0.7465
H80_8 H 0.7992 0.6874 0.8219
H81_8 H 0.9702 0.7088 0.5033
H82_8 H 0.9602 0.6474 0.4666
H83_8 H 0.8733 0.6412 0.3450
H84_8 H 0.8871 0.7026 0.3854
H85_7 H 0.9366 0.5688 0.3708
H86_7 H 0.9150 0.5611 0.4383
H87_7 H 0.9547 0.6010 0.4259
H88_6 H 0.8751 0.5893 0.3011
H89_6 H 0.8748 0.5512 0.3272
H90_8 H 0.8496 0.5670 0.3625
H91_8 H 0.9192 0.7938 0.3461
H92_6 H 0.9498 0.8250 0.2474
H96_6 H 0.9785 0.8379 0.1605
H97_6 H 0.9954 0.8838 0.1659
H101_6 H 0.7719 0.7002 0.1675
H102_6 H 0.7160 0.6924 0.1151
H103_6 H 0.6947 0.5832 0.0515
H104_6 H 0.7538 0.5971 0.1011
H105_5 H 0.6739 0.6828 0.0149
H106_5 H 0.6521 0.6695 0.0823
H107_5 H 0.6287 0.6504 0.0176
H109_6 H 0.6372 0.5720 0.0221
H111_6 H 0.7865 0.6301 0.2950
H112_8 H 0.7516 0.5738 0.3578
H113_6 H 0.7802 0.5142 0.2212
H114_6 H 0.8158 0.5742 0.1678
H115_8 H 0.7342 0.5063 0.4247
H116_8 H 0.6949 0.4723 0.3943
H117_8 H 0.7069 0.5168 0.3832
H118_6 H 0.7628 0.4679 0.3029
H119_6 H 0.7202 0.4422 0.3332
H120_6 H 0.7251 0.4586 0.2619
N14_7 N 0.1603(4) 0.0249(6) 0.7790(6)
C30_7 C 0.1617(4) 0.0069(6) 0.7216(6)
C31_7 C 0.1845(4) 0.0281(6) 0.6681(6)
C32_8 C 0.1845(4) 0.0077(5) 0.6118(5)
C33_7 C 0.1394(6) 0.0026(8) 0.8365(8)
C34_7 C 0.1825(5) 0.0675(8) 0.7860(8)
H33_7 H 0.2005 0.0564 0.6700
H34_8 H 0.2003 0.0232 0.5751
H35_7 H 0.1508 0.0181 0.8752
H38_7 H 0.1931 0.0733 0.8299
H39_7 H 0.2025 0.0779 0.7551
H40_7 H 0.1642 0.0771 0.7811
N34_7 N 0.2989(3) 0.0020(4) 0.7104(5)
C88_6 C 0.3405(4) 0.0123(6) 0.7065(7)
C89_10 C 0.2868(4) 0.0240(6) 0.6666(7)
H106_6 H 0.3507 0.0145 0.7489
H107_6 H 0.3550 0.0379 0.6842
H108_8 H 0.2745 0.0085 0.6284
H109_7 H 0.2681 0.0294 0.6887
H110_8 H 0.3096 0.0488 0.6540
Mn1_5 Mn 0.16736(5) 0.93750(7) 0.50937(8)
Mn2_9 Mn 0.1667 0.8333 0.8333
Mn3_8 Mn 0.06320(5) 0.80862(7) 0.64226(7)
N1_8 N 0.1240(3) 0.8790(4) 0.5508(4)
N2_7 N 0.1298(3) 0.8310(4) 0.7479(4)
N3_7 N 0.0444(3) 0.8733(4) 0.7028(5)
N4_8 N 0.0897(3) 0.7480(4) 0.5933(5)
N6_7 N 0.0031(3) 0.7470(4) 0.7460(5)
N7_8 N 0.1147(3) 0.9410(4) 0.4659(5)
N8_8 N 0.0170(3) 0.9352(4) 0.3632(5)
N9_8 N 0.1646(3) 0.9055(4) 0.4131(4)
N10_8 N 0.1429(3) 0.8483(4) 0.2289(5)
N11_8 N 0.2178(3) 0.9296(4) 0.5523(4)
N12_8 N 0.3083(4) 0.9078(5) 0.6186(5)
N13_8 N 0.1644(3) 0.9683(4) 0.6037(4)
N15_7 N 0.1198(3) 0.7708(4) 0.8637(5)
N16_5 N 0.0345(3) 0.6646(4) 0.9562(5)
N17_7 N 0.1968(3) 0.8043(4) 0.7741(4)
N18_7 N 0.2389(4) 0.7384(6) 0.6711(5)
C1_8 C 0.1026(3) 0.8521(4) 0.5834(5)
C2_7 C 0.1052(3) 0.8235(4) 0.7078(5)
C3_7 C 0.0512(3) 0.8498(4) 0.6805(5)
C4_8 C 0.0794(3) 0.7703(5) 0.6088(6)
C5_8 C 0.0204(3) 0.7928(4) 0.5743(5)
C6_7 C 0.0246(3) 0.7682(4) 0.7067(5)
C7_8 C 0.0758(4) 0.9207(6) 0.4880(5)
C8_8 C 0.0442(4) 0.9191(6) 0.4574(6)
C9_8 C 0.0496(4) 0.9383(6) 0.3977(6)
C10_8 C 0.0877(4) 0.9597(6) 0.3726(6)
C11_8 C 0.1184(4) 0.9608(6) 0.4085(7)
C13_8 C 0.0221(4) 0.9517(6) 0.2963(8)
C14_8 C 0.1881(3) 0.9230(5) 0.3609(6)
C15_8 C 0.1826(3) 0.9057(5) 0.2996(6)
C16_8 C 0.1512(3) 0.8668(4) 0.2877(5)
C17_8 C 0.1271(3) 0.8479(4) 0.3443(5)
C18_8 C 0.1346(3) 0.8680(4) 0.4030(5)
C19_8 C 0.1697(5) 0.8674(7) 0.1721(6)
C20_8 C 0.1097(4) 0.8088(6) 0.2204(6)
C21_8 C 0.2555(4) 0.9501(6) 0.5297(6)
C22_8 C 0.2864(3) 0.9444(4) 0.5506(5)
C23_8 C 0.2785(4) 0.9152(6) 0.5970(5)
C24_8 C 0.2390(3) 0.8935(5) 0.6223(5)
C25_8 C 0.2111(3) 0.9020(4) 0.5985(5)
C26_6 C 0.3493(4) 0.9301(6) 0.5926(7)
C27_8 C 0.2992(5) 0.8739(6) 0.6607(7)
C28_8 C 0.1415(3) 0.9472(5) 0.6574(6)
C29_7 C 0.1404(4) 0.9656(6) 0.7159(5)
C35_7 C 0.0802(4) 0.7570(6) 0.8593(6)
C36_7 C 0.0510(4) 0.7223(6) 0.8880(6)
C37_7 C 0.0620(4) 0.6980(6) 0.9237(6)
C38_7 C 0.1026(3) 0.7104(4) 0.9264(5)
C39_7 C 0.1291(3) 0.7456(4) 0.8962(6)
C41_8 C 0.0466(4) 0.6426(6) 1.0000(7)
C42_7 C 0.1795(4) 0.7850(6) 0.7187(6)
C43_7 C 0.1919(4) 0.7632(6) 0.6823(6)
C44_7 C 0.2237(4) 0.7595(6) 0.7034(7)
C45_7 C 0.2433(4) 0.7808(6) 0.7620(7)
C46_7 C 0.2287(4) 0.8017(6) 0.7930(6)
C47_8 C 0.2188(5) 0.7164(7) 0.6130(7)
C48_7 C 0.2725(5) 0.7352(7) 0.6944(8)
H1_8 H 0.0717 0.9082 0.5304
H2_8 H 0.0179 0.9043 0.4772
H3_8 H 0.0925 0.9727 0.3314
H4_8 H 0.1451 0.9775 0.3932
H9_8 H 0.0425 0.9485 0.2743
H10_8 H 0.0292 0.9785 0.2980
H11_8 H 0.2102 0.9496 0.3658
H12_8 H 0.2007 0.9205 0.2649
H13_8 H 0.1055 0.8212 0.3412
H14_8 H 0.1172 0.8542 0.4400
H15_8 H 0.1829 0.8952 0.1753
H16_8 H 0.1891 0.8584 0.1703
H17_8 H 0.1543 0.8587 0.1321
H18_8 H 0.0856 0.8096 0.2227
H19_8 H 0.1104 0.7920 0.2535
H20_8 H 0.1119 0.7992 0.1781
H21_8 H 0.2615 0.9702 0.4967
H22_8 H 0.3129 0.9602 0.5334
H23_8 H 0.2322 0.8733 0.6550
H24_8 H 0.1846 0.8871 0.6146
H25_6 H 0.3679 0.9366 0.6292
H26_6 H 0.3540 0.9150 0.5617
H27_6 H 0.3538 0.9547 0.5741
H28_7 H 0.2859 0.8751 0.6989
H29_7 H 0.3237 0.8748 0.6728
H30_8 H 0.2827 0.8496 0.6375
H31_8 H 0.1255 0.9192 0.6539
H32_7 H 0.1249 0.9498 0.7526
H36_7 H 0.1407 0.9785 0.8395
H37_7 H 0.1117 0.9954 0.8341
H41_7 H 0.0718 0.7719 0.8325
H42_7 H 0.0237 0.7160 0.8849
H43_7 H 0.1116 0.6947 0.9485
H44_7 H 0.1568 0.7538 0.8989
H49_5 H 0.0653 0.6372 0.9779
H51_7 H 0.1565 0.7865 0.7050
H52_8 H 0.1779 0.7516 0.6422
H53_7 H 0.2661 0.7802 0.7788
H54_7 H 0.2417 0.8158 0.8322
H55_8 H 0.2280 0.7342 0.5753
H56_8 H 0.2227 0.6949 0.6057
H57_8 H 0.1902 0.7069 0.6168
H58_7 H 0.2950 0.7628 0.6971
H59_7 H 0.2781 0.7202 0.6668
H60_7 H 0.2666 0.7251 0.7381
N20_7 N 0.2036(3) 0.8356(4) 0.9187(4)
N21_7 N 0.2890(3) 0.7933(4) 0.9638(5)
N24_7 N 0.3303(3) 0.9196(4) 0.9206(5)
N32_5 N 0.1731(4) 0.6417(6) 0.8876(6)
N33_7 N 0.2136(3) 0.8958(4) 0.8029(5)
N35_7 N 0.1366(3) 0.8623(4) 0.8925(4)
N36_7 N 0.0945(4) 0.9282(6) 0.9955(5)
C50_7 C 0.2282(3) 0.8431(4) 0.9588(5)
C51_7 C 0.2822(3) 0.8168(4) 0.9861(5)
C54_7 C 0.3088(3) 0.8984(4) 0.9599(5)
C77_7 C 0.1930(4) 0.7010(6) 0.9507(5)
C78_5 C 0.1717(4) 0.6597(6) 0.9450(6)
C79_5 C 0.1489(4) 0.6385(6) 0.9985(6)
C81_5 C 0.1940(6) 0.6640(8) 0.8301(8)
C82_5 C 0.1509(5) 0.5991(8) 0.8806(8)
C83_7 C 0.2532(4) 0.9096(6) 0.8073(6)
C84_7 C 0.2824(4) 0.9443(6) 0.7786(6)
C85_7 C 0.2714(4) 0.9686(6) 0.7429(6)
C86_7 C 0.2308(3) 0.9562(4) 0.7402(5)
C87_7 C 0.2043(3) 0.9210(4) 0.7704(6)
C90_7 C 0.1539(4) 0.8816(6) 0.9479(6)
C91_7 C 0.1415(4) 0.9034(6) 0.9843(6)
C92_7 C 0.1097(4) 0.9071(6) 0.9632(7)
C93_7 C 0.0901(4) 0.8858(6) 0.9046(7)
C94_7 C 0.1047(4) 0.8649(6) 0.8736(6)
C96_7 C 0.0609(5) 0.9314(7) 0.9722(8)
H88_7 H 0.0475 0.7915 0.9677
H89_7 H 0.0097 0.7918 0.9938
H92_7 H 0.2085 0.7168 0.9140
H93_5 H 0.1329 0.6102 0.9966
H95_5 H 0.1826 0.6485 0.7914
H96_7 H 0.1927 0.6881 0.8271
H97_7 H 0.2217 0.6712 0.8325
H98_5 H 0.1403 0.5933 0.8367
H99_5 H 0.1309 0.5887 0.9115
H100_5 H 0.1692 0.5895 0.8855
H101_7 H 0.2616 0.8947 0.8341
H102_7 H 0.3097 0.9506 0.7817
H103_7 H 0.2218 0.9719 0.7181
H104_7 H 0.1766 0.9128 0.7677
H105_6 H 0.3422 0.9927 0.6815
H111_7 H 0.1769 0.8801 0.9616
H113_7 H 0.0673 0.8864 0.8878
H114_7 H 0.0917 0.8508 0.8344
H118_7 H 0.0384 0.9038 0.9695
H119_7 H 0.0553 0.9464 0.9998
H120_7 H 0.0668 0.9415 0.9285
N38_5 N 0.2108(3) 0.9955(5) 0.4641(4)
C60_8 C 0.0624(5) 0.9771(4) 0.6112(7)
C88_7 C 0.3385(4) 0.9929(4) 0.0399(7)
H65_8 H 0.0811 0.9688 0.6012
H66_8 H 0.0497 0.9773 0.5681
H67_8 H 0.0421 0.9593 0.6386
H68_8 H 0.0611 0.9975 0.7272
H105_7 H 0.3172 0.9912 0.0149
H106_7 H 0.3305 0.9827 0.0823
H107_7 H 0.3496 0.9784 0.0176
C74_8 C 0.9841(4) 0.7365(6) 0.0740(7)
H85_8 H 0.9655 0.7300 0.0374
H86_8 H 0.9794 0.7516 0.1049
H87_8 H 0.9796 0.7119 0.0925
Mn1_6 Mn 0.06250(7) 0.22985(5) 0.50937(8)
Mn2_10 Mn 0.1667 0.3333 0.8333
Mn3_9 Mn 0.19138(7) 0.25457(5) 0.64226(7)
N1_9 N 0.1210(4) 0.2449(3) 0.5508(4)
N2_8 N 0.1690(4) 0.2987(3) 0.7479(4)
N3_8 N 0.1267(4) 0.1710(3) 0.7028(5)
N4_9 N 0.2520(4) 0.3416(3) 0.5933(5)
N5_6 N 0.2154(4) 0.2108(3) 0.5359(4)
N6_8 N 0.2530(4) 0.2560(3) 0.7460(5)
N7_9 N 0.0590(4) 0.1736(3) 0.4659(5)
N8_9 N 0.0648(4) 0.0817(3) 0.3632(5)
N9_9 N 0.0945(4) 0.2590(3) 0.4131(4)
N10_9 N 0.1517(4) 0.2945(3) 0.2289(5)
N11_9 N 0.0704(4) 0.2881(3) 0.5523(4)
N12_9 N 0.0922(5) 0.4004(3) 0.6186(5)
N13_9 N 0.0317(4) 0.1960(3) 0.6037(4)
N15_8 N 0.2292(4) 0.3489(3) 0.8637(5)
N16_6 N 0.3354(4) 0.3698(3) 0.9562(5)
N17_8 N 0.1957(4) 0.3924(3) 0.7741(4)
N18_8 N 0.2616(6) 0.5004(4) 0.6711(5)
C1_9 C 0.1479(4) 0.2504(3) 0.5834(5)
C2_8 C 0.1765(4) 0.2816(3) 0.7078(5)
C3_8 C 0.1502(4) 0.2013(3) 0.6805(5)
C4_9 C 0.2297(5) 0.3090(4) 0.6088(6)
C5_9 C 0.2072(4) 0.2275(3) 0.5743(5)
C6_8 C 0.2318(4) 0.2563(3) 0.7067(5)
C7_9 C 0.0793(6) 0.1550(4) 0.4880(5)
C8_9 C 0.0809(6) 0.1250(4) 0.4574(6)
C9_9 C 0.0617(6) 0.1112(4) 0.3977(6)
C10_9 C 0.0403(6) 0.1279(4) 0.3726(6)
C11_9 C 0.0392(6) 0.1575(4) 0.4085(7)
C12_9 C 0.0854(6) 0.0624(5) 0.3888(7)
C13_9 C 0.0483(6) 0.0703(4) 0.2963(8)
C14_9 C 0.0770(5) 0.2650(4) 0.3609(6)
C15_9 C 0.0943(5) 0.2768(4) 0.2996(6)
C16_9 C 0.1332(4) 0.2843(3) 0.2877(5)
C17_9 C 0.1521(4) 0.2791(3) 0.3443(5)
C18_9 C 0.1320(4) 0.2665(3) 0.4030(5)
C19_9 C 0.1326(7) 0.3022(5) 0.1721(6)
C20_9 C 0.1912(6) 0.3008(4) 0.2204(6)
C21_9 C 0.0499(6) 0.3053(4) 0.5297(6)
C22_9 C 0.0556(4) 0.3419(3) 0.5506(5)
C23_9 C 0.0848(6) 0.3632(4) 0.5970(5)
C24_9 C 0.1065(5) 0.3454(4) 0.6223(5)
C25_9 C 0.0980(4) 0.3090(3) 0.5985(5)
C26_7 C 0.0699(6) 0.4191(4) 0.5926(7)
C27_9 C 0.1261(6) 0.4252(4) 0.6607(7)
C28_9 C 0.0528(5) 0.1942(4) 0.6574(6)
C29_8 C 0.0344(6) 0.1747(4) 0.7159(5)
C35_8 C 0.2430(6) 0.3231(4) 0.8593(6)
C36_8 C 0.2777(6) 0.3286(4) 0.8880(6)
C37_8 C 0.3020(6) 0.3639(4) 0.9237(6)
C38_8 C 0.2896(4) 0.3921(3) 0.9264(5)
C39_8 C 0.2544(4) 0.3834(3) 0.8962(6)
C40_6 C 0.3457(6) 0.3385(4) 0.9601(7)
C41_9 C 0.3574(6) 0.4039(4) 1.0000(7)
C42_8 C 0.2150(6) 0.3944(4) 0.7187(6)
C43_8 C 0.2368(6) 0.4286(4) 0.6823(6)
C44_8 C 0.2405(6) 0.4641(5) 0.7034(7)
C45_8 C 0.2192(6) 0.4624(4) 0.7620(7)
C46_8 C 0.1983(6) 0.4269(4) 0.7930(6)
C47_9 C 0.2836(7) 0.5023(5) 0.6130(7)
C48_8 C 0.2648(7) 0.5372(5) 0.6944(8)
H1_9 H 0.0918 0.1634 0.5304
H2_9 H 0.0957 0.1135 0.4772
H3_9 H 0.0273 0.1197 0.3314
H4_9 H 0.0225 0.1675 0.3932
H5_9 H 0.1124 0.0811 0.3988
H6_9 H 0.0725 0.0497 0.4319
H7_9 H 0.0829 0.0421 0.3614
H8_9 H 0.0637 0.0611 0.2728
H9_9 H 0.0515 0.0939 0.2743
H10_9 H 0.0215 0.0506 0.2980
H11_9 H 0.0504 0.2605 0.3658
H12_9 H 0.0795 0.2801 0.2649
H13_9 H 0.1788 0.2842 0.3412
H14_9 H 0.1458 0.2629 0.4400
H15_9 H 0.1048 0.2876 0.1753
H16_9 H 0.1416 0.3306 0.1703
H17_9 H 0.1413 0.2955 0.1321
H18_9 H 0.1904 0.2759 0.2227
H19_9 H 0.2080 0.3183 0.2535
H20_9 H 0.2008 0.3126 0.1781
H21_9 H 0.0298 0.2912 0.4967
H22_9 H 0.0398 0.3526 0.5334
H23_9 H 0.1267 0.3588 0.6550
H24_9 H 0.1129 0.2974 0.6146
H25_7 H 0.0634 0.4312 0.6292
H26_7 H 0.0850 0.4389 0.5617
H27_7 H 0.0453 0.3990 0.5741
H28_8 H 0.1249 0.4107 0.6989
H29_8 H 0.1252 0.4488 0.6728
H30_9 H 0.1504 0.4330 0.6375
H31_9 H 0.0808 0.2062 0.6539
H32_8 H 0.0502 0.1750 0.7526
H36_8 H 0.0215 0.1621 0.8395
H37_8 H 0.0046 0.1162 0.8341
H41_8 H 0.2281 0.2998 0.8325
H42_8 H 0.2840 0.3076 0.8849
H43_8 H 0.3053 0.4168 0.9485
H44_8 H 0.2462 0.4029 0.8989
H45_8 H 0.3261 0.3172 0.9851
H46_6 H 0.3479 0.3305 0.9177
H47_6 H 0.3713 0.3496 0.9824
H49_6 H 0.3628 0.4280 0.9779
H51_8 H 0.2135 0.3699 0.7050
H52_9 H 0.2484 0.4262 0.6422
H53_8 H 0.2198 0.4858 0.7788
H54_8 H 0.1842 0.4258 0.8322
H55_9 H 0.2658 0.4937 0.5753
H56_9 H 0.3051 0.5277 0.6057
H57_9 H 0.2931 0.4832 0.6168
H58_8 H 0.2372 0.5321 0.6971
H59_8 H 0.2798 0.5578 0.6668
H60_8 H 0.2749 0.5414 0.7381
N20_8 N 0.1644(4) 0.3679(3) 0.9187(4)
N21_8 N 0.2067(4) 0.4956(3) 0.9638(5)
N24_8 N 0.0804(4) 0.4106(3) 0.9206(5)
N32_6 N 0.3583(6) 0.5313(4) 0.8876(6)
N33_8 N 0.1042(4) 0.3177(3) 0.8029(5)
N35_8 N 0.1377(4) 0.2742(3) 0.8925(4)
N36_8 N 0.0718(6) 0.1662(4) 0.9955(5)
C50_8 C 0.1569(4) 0.3850(3) 0.9588(5)
C51_8 C 0.1832(4) 0.4653(3) 0.9861(5)
C54_8 C 0.1016(4) 0.4103(3) 0.9599(5)
C77_8 C 0.2990(6) 0.4919(4) 0.9507(5)
C78_6 C 0.3403(6) 0.5119(4) 0.9450(6)
C79_6 C 0.3615(6) 0.5103(4) 0.9985(6)
C81_6 C 0.3360(8) 0.5299(6) 0.8301(8)
C82_6 C 0.4009(8) 0.5517(6) 0.8806(8)
C83_8 C 0.0904(6) 0.3435(4) 0.8073(6)
C84_8 C 0.0557(6) 0.3380(4) 0.7786(6)
C85_8 C 0.0314(6) 0.3027(4) 0.7429(6)
C86_8 C 0.0438(4) 0.2745(3) 0.7402(5)
C87_8 C 0.0790(4) 0.2832(3) 0.7704(6)
C90_8 C 0.1184(6) 0.2722(4) 0.9479(6)
C91_8 C 0.0966(6) 0.2380(4) 0.9843(6)
C92_8 C 0.0929(6) 0.2025(5) 0.9632(7)
C93_8 C 0.1142(6) 0.2042(4) 0.9046(7)
C94_8 C 0.1351(6) 0.2397(4) 0.8736(6)
C96_8 C 0.0686(7) 0.1294(5) 0.9722(8)
H88_8 H 0.2085 0.2559 0.9677
H89_8 H 0.2082 0.2178 0.9938
H92_8 H 0.2832 0.4916 0.9140
H93_6 H 0.3898 0.5226 0.9966
H95_6 H 0.3515 0.5340 0.7914
H96_8 H 0.3119 0.5045 0.8271
H97_8 H 0.3288 0.5504 0.8325
H98_6 H 0.4067 0.5469 0.8367
H99_6 H 0.4113 0.5421 0.9115
H100_6 H 0.4105 0.5796 0.8855
H101_8 H 0.1053 0.3668 0.8341
H102_8 H 0.0494 0.3590 0.7817
H103_8 H 0.0281 0.2498 0.7181
H104_8 H 0.0872 0.2637 0.7677
H105_8 H 0.0073 0.3494 0.6815
H111_8 H 0.1199 0.2967 0.9616
H113_8 H 0.1136 0.1808 0.8878
H114_8 H 0.1492 0.2408 0.8344
H118_8 H 0.0962 0.1345 0.9695
H119_8 H 0.0536 0.1088 0.9998
H120_8 H 0.0585 0.1252 0.9285
Mn7_6 Mn 0.22985(9) 0.16736(5) 0.49063(8)
N38_6 N 0.0045(5) 0.2154(4) 0.4641(4)
Mn2_11 Mn 0.3333 0.1667 0.1667
N2_9 N 0.3679(3) 0.2036(3) 0.0813(4)
N3_9 N 0.4956(3) 0.2890(3) 0.0362(5)
N6_9 N 0.4106(3) 0.3303(3) 0.0794(5)
N14_8 N 0.5313(4) 0.1731(4) 0.1124(6)
N15_9 N 0.3177(3) 0.2136(3) 0.1971(5)
N16_7 N 0.2968(3) 0.2989(3) 0.2896(5)
N17_9 N 0.2742(3) 0.1366(3) 0.1075(4)
N18_9 N 0.1662(4) 0.0945(4) 0.0045(5)
C2_9 C 0.3850(3) 0.2282(3) 0.0412(5)
C3_9 C 0.4653(3) 0.2822(3) 0.0139(5)
C6_9 C 0.4103(3) 0.3088(3) 0.0401(5)
C29_9 C 0.4919(4) 0.1930(4) 0.0493(5)
C30_8 C 0.5119(4) 0.1717(4) 0.0550(6)
C31_8 C 0.5103(4) 0.1489(4) 0.0015(6)
C33_8 C 0.5299(6) 0.1940(6) 0.1699(8)
C34_8 C 0.5517(6) 0.1509(5) 0.1194(8)
C35_9 C 0.3435(4) 0.2532(4) 0.1927(6)
C36_9 C 0.3380(4) 0.2824(4) 0.2214(6)
C37_9 C 0.3027(4) 0.2714(4) 0.2571(6)
C38_9 C 0.2745(3) 0.2308(3) 0.2598(5)
C39_9 C 0.2832(3) 0.2043(3) 0.2296(6)
C40_7 C 0.3281(4) 0.3405(4) 0.2935(7)
C41_10 C 0.2627(4) 0.2868(4) 0.3334(7)
C42_9 C 0.2722(4) 0.1539(4) 0.0521(6)
C43_9 C 0.2380(4) 0.1415(4) 0.0157(6)
C44_9 C 0.2025(5) 0.1097(4) 0.0368(7)
C45_9 C 0.2042(4) 0.0901(4) 0.0954(7)
C46_9 C 0.2397(4) 0.1047(4) 0.1264(6)
C48_9 C 0.1294(5) 0.0609(5) 0.0278(8)
H28_9 H 0.2559 0.0475 0.0323
H29_9 H 0.2178 0.0097 0.0062
H32_9 H 0.4916 0.2085 0.0860
H33_8 H 0.5226 0.1329 0.0034
H35_8 H 0.5340 0.1826 0.2086
H36_9 H 0.5045 0.1927 0.1729
H37_9 H 0.5504 0.2217 0.1675
H38_8 H 0.5469 0.1403 0.1633
H39_8 H 0.5421 0.1309 0.0885
H40_8 H 0.5796 0.1692 0.1145
H41_9 H 0.3668 0.2616 0.1659
H42_9 H 0.3590 0.3097 0.2183
H43_9 H 0.2498 0.2218 0.2819
H44_9 H 0.2637 0.1766 0.2323
H45_9 H 0.3494 0.3422 0.3185
H46_7 H 0.3361 0.3507 0.2511
H47_7 H 0.3170 0.3550 0.3158
H48_7 H 0.2659 0.2745 0.3716
H49_7 H 0.2386 0.2681 0.3113
H50_7 H 0.2607 0.3096 0.3460
H51_9 H 0.2967 0.1769 0.0384
H53_9 H 0.1808 0.0673 0.1122
H54_9 H 0.2408 0.0917 0.1656
H58_9 H 0.1345 0.0384 0.0305
H59_9 H 0.1088 0.0553 0.0002
H60_9 H 0.1252 0.0668 0.0715
Mn5_9 Mn 0.25457(5) 0.06320(5) 0.35774(7)
N19_9 N 0.2449(3) 0.1240(3) 0.4492(4)
N20_9 N 0.2987(3) 0.1298(3) 0.2521(4)
N21_9 N 0.1710(3) 0.0444(3) 0.2972(5)
N22_9 N 0.3416(3) 0.0897(3) 0.4067(5)
N24_9 N 0.2560(3) 0.0031(3) 0.2540(5)
N25_9 N 0.1736(3) 0.1147(3) 0.5341(5)
N26_9 N 0.0817(3) 0.0170(3) 0.6368(5)
N27_9 N 0.2590(3) 0.1646(3) 0.5869(4)
N28_9 N 0.2945(3) 0.1429(3) 0.7711(5)
N29_9 N 0.2881(3) 0.2178(3) 0.4477(4)
N30_9 N 0.4004(3) 0.3083(4) 0.3814(5)
N31_9 N 0.1960(3) 0.1644(3) 0.3963(4)
N32_7 N 0.1353(4) 0.1603(4) 0.2210(6)
N33_9 N 0.3489(3) 0.1198(3) 0.1363(5)
N34_8 N 0.3698(3) 0.0345(3) 0.0438(5)
N35_9 N 0.3924(3) 0.1968(3) 0.2259(4)
N36_9 N 0.5004(4) 0.2389(4) 0.3289(5)
C49_9 C 0.2504(3) 0.1026(3) 0.4166(5)
C50_9 C 0.2816(3) 0.1052(3) 0.2922(5)
C51_9 C 0.2013(3) 0.0512(3) 0.3195(5)
C52_9 C 0.3090(4) 0.0794(3) 0.3912(6)
C53_9 C 0.2275(3) 0.0204(3) 0.4257(5)
C54_9 C 0.2563(3) 0.0246(3) 0.2933(5)
C55_9 C 0.1550(4) 0.0758(4) 0.5120(5)
C56_9 C 0.1250(4) 0.0442(4) 0.5426(6)
C57_9 C 0.1112(4) 0.0496(4) 0.6023(6)
C58_9 C 0.1279(4) 0.0877(4) 0.6274(6)
C59_9 C 0.1575(4) 0.1184(4) 0.5915(7)
C61_9 C 0.0703(4) 0.0221(4) 0.7037(8)
C62_9 C 0.2650(4) 0.1881(3) 0.6391(6)
C63_9 C 0.2768(4) 0.1826(3) 0.7004(6)
C64_9 C 0.2843(3) 0.1512(3) 0.7123(5)
C65_9 C 0.2791(3) 0.1271(3) 0.6557(5)
C66_9 C 0.2665(3) 0.1346(3) 0.5970(5)
C67_9 C 0.3022(5) 0.1697(5) 0.8279(6)
C68_9 C 0.3008(4) 0.1097(4) 0.7796(6)
C69_9 C 0.3053(4) 0.2555(4) 0.4703(6)
C70_9 C 0.3419(3) 0.2864(3) 0.4494(5)
C71_9 C 0.3632(4) 0.2785(4) 0.4030(5)
C72_9 C 0.3454(4) 0.2390(3) 0.3777(5)
C73_9 C 0.3090(3) 0.2111(3) 0.4015(5)
C74_9 C 0.4191(4) 0.3493(4) 0.4074(7)
C75_9 C 0.4252(4) 0.2992(5) 0.3393(7)
C76_9 C 0.1942(4) 0.1415(3) 0.3426(6)
C77_9 C 0.1747(4) 0.1404(4) 0.2841(5)
C78_7 C 0.1547(4) 0.1617(4) 0.2784(6)
C79_7 C 0.1563(4) 0.1845(4) 0.3319(6)
C80_7 C 0.1767(3) 0.1845(4) 0.3882(5)
C81_7 C 0.1367(6) 0.1394(6) 0.1635(8)
C82_7 C 0.1149(6) 0.1825(5) 0.2140(8)
C83_9 C 0.3231(4) 0.0802(4) 0.1407(6)
C84_9 C 0.3286(4) 0.0510(4) 0.1120(6)
C85_9 C 0.3639(4) 0.0620(4) 0.0763(6)
C86_9 C 0.3921(3) 0.1026(3) 0.0736(5)
C87_9 C 0.3834(3) 0.1291(3) 0.1038(6)
C89_11 C 0.4039(4) 0.0466(4) -0.0000(7)
C90_9 C 0.3944(4) 0.1795(4) 0.2813(6)
C91_9 C 0.4286(4) 0.1919(4) 0.3177(6)
C92_9 C 0.4641(5) 0.2237(4) 0.2966(7)
C93_9 C 0.4624(4) 0.2433(4) 0.2380(7)
C94_9 C 0.4269(4) 0.2287(4) 0.2070(6)
C95_9 C 0.5023(5) 0.2188(5) 0.3870(7)
C96_9 C 0.5372(5) 0.2725(5) 0.3056(8)
H61_9 H 0.1634 0.0717 0.4696
H62_9 H 0.1135 0.0179 0.5228
H63_9 H 0.1197 0.0925 0.6686
H64_9 H 0.1675 0.1451 0.6068
H69_9 H 0.0939 0.0425 0.7257
H70_9 H 0.0506 0.0292 0.7020
H71_9 H 0.2605 0.2102 0.6342
H72_9 H 0.2801 0.2007 0.7351
H73_9 H 0.2842 0.1055 0.6588
H74_9 H 0.2629 0.1172 0.5600
H75_9 H 0.2876 0.1829 0.8247
H76_9 H 0.3306 0.1891 0.8297
H77_9 H 0.2955 0.1543 0.8679
H78_9 H 0.2759 0.0856 0.7773
H79_9 H 0.3183 0.1104 0.7465
H80_9 H 0.3126 0.1119 0.8219
H81_9 H 0.2912 0.2615 0.5033
H82_9 H 0.3526 0.3129 0.4666
H83_9 H 0.3588 0.2322 0.3450
H84_9 H 0.2974 0.1846 0.3854
H85_9 H 0.4312 0.3679 0.3708
H86_9 H 0.4389 0.3540 0.4383
H87_9 H 0.3990 0.3538 0.4259
H88_9 H 0.4107 0.2859 0.3011
H89_9 H 0.4488 0.3237 0.3272
H90_9 H 0.4330 0.2827 0.3625
H91_9 H 0.2062 0.1255 0.3461
H92_9 H 0.1750 0.1249 0.2474
H93_7 H 0.1440 0.2005 0.3300
H94_7 H 0.1770 0.2003 0.4249
H95_7 H 0.1326 0.1508 0.1248
H96_9 H 0.1621 0.1407 0.1605
H97_9 H 0.1162 0.1117 0.1659
H98_7 H 0.1197 0.1931 0.1701
H99_7 H 0.1245 0.2025 0.2449
H100_7 H 0.0870 0.1642 0.2189
H101_9 H 0.2998 0.0718 0.1675
H102_9 H 0.3076 0.0237 0.1151
H103_9 H 0.4168 0.1116 0.0515
H104_9 H 0.4029 0.1568 0.1011
H109_8 H 0.4280 0.0653 0.0221
H111_9 H 0.3699 0.1565 0.2950
H112_9 H 0.4262 0.1779 0.3578
H113_9 H 0.4858 0.2661 0.2212
H114_9 H 0.4258 0.2417 0.1678
H115_9 H 0.4937 0.2280 0.4247
H116_9 H 0.5277 0.2227 0.3943
H117_9 H 0.4832 0.1902 0.3832
H118_9 H 0.5321 0.2950 0.3029
H119_9 H 0.5578 0.2781 0.3332
H120_9 H 0.5414 0.2666 0.2619
C60_9 C 0.0229(4) 0.0854(6) 0.6112(7)
C88_8 C 0.0071(4) 0.3457(6) 0.0399(7)
H65_9 H 0.0312 0.1124 0.6012
H66_9 H 0.0227 0.0725 0.5681
H67_9 H 0.0407 0.0829 0.6386
H68_9 H 0.0025 0.0637 0.7272
H105_9 H 0.0088 0.3261 0.0149
H106_8 H 0.0173 0.3479 0.0823
H107_8 H 0.0216 0.3713 0.0176
N14_9 N 0.9751(6) 0.1353(4) 0.7790(6)
C30_9 C 0.9931(6) 0.1547(4) 0.7216(6)
C31_9 C 0.9719(6) 0.1563(4) 0.6681(6)
C32_9 C 0.9923(5) 0.1767(3) 0.6118(5)
C33_9 C 0.9974(8) 0.1367(6) 0.8365(8)
C34_9 C 0.9325(8) 0.1149(6) 0.7860(8)
H33_9 H 0.9436 0.1440 0.6700
H34_9 H 0.9768 0.1770 0.5751
H35_9 H 0.9819 0.1326 0.8752
H38_9 H 0.9267 0.1197 0.8299
H39_9 H 0.9221 0.1245 0.7551
H40_9 H 0.9229 0.0870 0.7811
N34_9 N 0.9980(4) 0.2968(3) 0.7104(5)
C88_9 C 0.9877(6) 0.3281(4) 0.7065(7)
C89_12 C 0.9760(6) 0.2627(4) 0.6666(7)
H106_9 H 0.9855 0.3361 0.7489
H107_9 H 0.9621 0.3170 0.6842
H108_9 H 0.9915 0.2659 0.6284
H109_9 H 0.9706 0.2386 0.6887
H110_9 H 0.9512 0.2607 0.6540
C26_8 C 0.2475(4) 0.9841(4) 0.9260(7)
H25_8 H 0.2354 0.9655 0.9626
H26_8 H 0.2277 0.9794 0.8951
H27_8 H 0.2676 0.9796 0.9075
C26_9 C 0.0159(4) 0.2635(6) 0.9260(7)
H25_9 H 0.0345 0.2700 0.9626
H26_9 H 0.0206 0.2484 0.8951
H27_9 H 0.0204 0.2881 0.9075
N16_8 N 0.7011(3) 0.9980(4) 0.2896(5)
C40_8 C 0.6595(4) 0.9877(6) 0.2935(7)
C41_11 C 0.7132(4) 0.9760(6) 0.3334(7)
H46_8 H 0.6493 0.9855 0.2511
H47_8 H 0.6450 0.9621 0.3158
H48_8 H 0.7255 0.9915 0.3716
H49_8 H 0.7319 0.9706 0.3113
H50_8 H 0.6904 0.9512 0.3460
N32_8 N 0.8397(4) 0.9751(6) 0.2210(6)
C78_8 C 0.8383(4) 0.9931(6) 0.2784(6)
C79_8 C 0.8155(4) 0.9719(6) 0.3319(6)
C80_8 C 0.8155(4) 0.9923(5) 0.3882(5)
C81_8 C 0.8606(6) 0.9974(8) 0.1635(8)
C82_8 C 0.8175(5) 0.9325(8) 0.2140(8)
H93_8 H 0.7995 0.9436 0.3300
H94_8 H 0.7997 0.9768 0.4249
H95_8 H 0.8492 0.9819 0.1248
H98_8 H 0.8069 0.9267 0.1701
H99_8 H 0.7975 0.9221 0.2449
H100_8 H 0.8358 0.9229 0.2189
N16_9 N 0.0020(4) 0.7032(3) 0.2896(5)
C40_9 C 0.0123(6) 0.6719(4) 0.2935(7)
C41_12 C 0.0240(6) 0.7373(4) 0.3334(7)
H46_9 H 0.0145 0.6639 0.2511
H47_9 H 0.0379 0.6830 0.3158
H48_9 H 0.0085 0.7341 0.3716
H49_9 H 0.0294 0.7614 0.3113
H50_9 H 0.0488 0.7393 0.3460
N32_9 N 0.0249(6) 0.8647(4) 0.2210(6)
C78_9 C 0.0069(6) 0.8453(4) 0.2784(6)
C79_9 C 0.0281(6) 0.8437(4) 0.3319(6)
C80_9 C 0.0077(5) 0.8233(3) 0.3882(5)
C81_9 C 0.0026(8) 0.8633(6) 0.1635(8)
C82_9 C 0.0675(8) 0.8851(6) 0.2140(8)
H93_9 H 0.0564 0.8560 0.3300
H94_9 H 0.0232 0.8230 0.4249
H95_9 H 0.0181 0.8674 0.1248
H98_9 H 0.0733 0.8803 0.1701
H99_9 H 0.0779 0.8755 0.2449
H100_9 H 0.0771 0.9130 0.2189
loop_
_geom_bond_atom_site_label_1
_geom_bond_atom_site_label_2
_geom_bond_site_symmetry_1
_geom_bond_site_symmetry_2
Mn1 N1 1_555 1_555
Mn2 N2 1_555 1_555
Mn3 C1 1_555 1_555
N1 C1 1_555 1_555
N2 C2 1_555 1_555
N3 C3 1_555 1_555
N5 C5 1_555 1_555
N6 C6 1_555 1_555
N7 Mn1 1_555 1_555
N8 C9 1_555 1_555
N9 Mn1 1_555 1_555
N11 Mn1 1_555 1_555
N13 Mn1 1_555 1_555
N14 C30 1_555 1_555
C2 Mn3 1_555 1_555
C3 Mn3 1_555 1_555
C4 Mn3 1_555 1_555
C5 Mn3 1_555 1_555
C6 Mn3 1_555 1_555
C7 N7 1_555 1_555
C8 C7 1_555 1_555
C9 C8 1_555 1_555
C10 C9 1_555 1_555
C11 N7 1_555 1_555
C12 N8 1_555 1_555
C14 N9 1_555 1_555
C18 N9 1_555 1_555
C21 N11 1_555 1_555
C25 N11 1_555 1_555
C28 N13 1_555 1_555
C29 C28 1_555 1_555
C30 C29 1_555 1_555
C31 C30 1_555 1_555
C32 N13 1_555 1_555
C33 N14 1_555 1_555
C34 N14 1_555 1_555
C36 C35 1_555 1_555
H1 C7 1_555 1_555
H2 C8 1_555 1_555
H4 C11 1_555 1_555
H5 C12 1_555 1_555
H6 C12 1_555 1_555
H7 C12 1_555 1_555
H11 C14 1_555 1_555
H13 C17 1_555 1_555
H14 C18 1_555 1_555
H21 C21 1_555 1_555
H24 C25 1_555 1_555
H31 C28 1_555 1_555
H32 C29 1_555 1_555
H33 C31 1_555 1_555
H34 C32 1_555 1_555
H35 C33 1_555 1_555
H36 C33 1_555 1_555
H37 C33 1_555 1_555
H38 C34 1_555 1_555
H39 C34 1_555 1_555
H40 C34 1_555 1_555
H41 C35 1_555 1_555
H42 C36 1_555 1_555
N30 C71 1_555 1_555
N33 Mn2 1_555 1_555
N34 C85 1_555 1_555
N35 Mn2 1_555 1_555
N36 C92 1_555 1_555
C71 C70 1_555 1_555
C72 C71 1_555 1_555
C74 N30 1_555 1_555
C75 N30 1_555 1_555
C86 C85 1_555 1_555
C87 N33 1_555 1_555
C88 N34 1_555 1_555
C89 N34 1_555 1_555
C90 N35 1_555 1_555
C91 C90 1_555 1_555
C92 C91 1_555 1_555
C93 C92 1_555 1_555
C94 N35 1_555 1_555
C95 N36 1_555 1_555
C96 N36 1_555 1_555
H82 C70 1_555 1_555
H83 C72 1_555 1_555
H85 C74 1_555 1_555
H86 C74 1_555 1_555
H87 C74 1_555 1_555
H88 C75 1_555 1_555
H89 C75 1_555 1_555
H90 C75 1_555 1_555
H103 C86 1_555 1_555
H104 C87 1_555 1_555
H107 C88 1_555 1_555
H108 C89 1_555 1_555
H109 C89 1_555 1_555
H110 C89 1_555 1_555
H111 C90 1_555 1_555
H112 C91 1_555 1_555
H113 C93 1_555 1_555
H114 C94 1_555 1_555
H115 C95 1_555 1_555
H116 C95 1_555 1_555
H117 C95 1_555 1_555
H118 C96 1_555 1_555
H119 C96 1_555 1_555
H120 C96 1_555 1_555
Mn7 N5 1_555 1_555
N38 Mn1 1_555 1_555
C10 C11 1_555 1_555
C17 C18 1_555 1_555
C31 C32 1_555 1_555
C86 C87 1_555 1_555
C93 C94 1_555 1_555
N12 C23 1_555 1_555
N15 Mn2_2 1_555 1_555
N16 C37 1_555 1_555
N17 Mn2_2 1_555 1_555
N18 C44 1_555 1_555
C23 C22 1_555 1_555
C24 C23 1_555 1_555
C26 N12 1_555 1_555
C27 N12 1_555 1_555
C38 C37 1_555 1_555
C39 N15 1_555 1_555
C40 N16 1_555 1_555
C41 N16 1_555 1_555
C42 N17 1_555 1_555
C43 C42 1_555 1_555
C44 C43 1_555 1_555
C45 C44 1_555 1_555
C46 N17 1_555 1_555
C47 N18 1_555 1_555
C48 N18 1_555 1_555
H22 C22 1_555 1_555
H23 C24 1_555 1_555
H25 C26 1_555 1_555
H26 C26 1_555 1_555
H27 C26 1_555 1_555
H28 C27 1_555 1_555
H29 C27 1_555 1_555
H30 C27 1_555 1_555
H43 C38 1_555 1_555
H44 C39 1_555 1_555
H47 C40 1_555 1_555
H48 C41 1_555 1_555
H49 C41 1_555 1_555
H50 C41 1_555 1_555
H51 C42 1_555 1_555
H52 C43 1_555 1_555
H53 C45 1_555 1_555
H54 C46 1_555 1_555
H55 C47 1_555 1_555
H56 C47 1_555 1_555
H57 C47 1_555 1_555
H58 C48 1_555 1_555
H59 C48 1_555 1_555
H60 C48 1_555 1_555
Mn4 N19 1_555 1_555
Mn5 C49 1_555 1_555
N19 C49 1_555 1_555
N20 Mn2_2 1_555 1_555
N21 C51 1_555 1_555
N23 C53 1_555 1_555
N24 C54 1_555 1_555
N25 Mn4 1_555 1_555
N26 C57 1_555 1_555
N27 Mn4 1_555 1_555
N29 Mn4 1_555 1_555
N31 Mn4 1_555 1_555
N32 C78 1_555 1_555
C50 Mn5 1_555 1_555
C51 Mn5 1_555 1_555
C52 Mn5 1_555 1_555
C53 Mn5 1_555 1_555
C54 Mn5 1_555 1_555
C55 N25 1_555 1_555
C56 C55 1_555 1_555
C57 C56 1_555 1_555
C58 C57 1_555 1_555
C59 N25 1_555 1_555
C60 N26 1_555 1_555
C62 N27 1_555 1_555
C66 N27 1_555 1_555
C69 N29 1_555 1_555
C73 N29 1_555 1_555
C76 N31 1_555 1_555
C77 C76 1_555 1_555
C78 C77 1_555 1_555
C79 C78 1_555 1_555
C80 N31 1_555 1_555
C81 N32 1_555 1_555
C82 N32 1_555 1_555
C84 C83 1_555 1_555
H61 C55 1_555 1_555
H62 C56 1_555 1_555
H64 C59 1_555 1_555
H65 C60 1_555 1_555
H66 C60 1_555 1_555
H67 C60 1_555 1_555
H71 C62 1_555 1_555
H73 C65 1_555 1_555
H74 C66 1_555 1_555
H81 C69 1_555 1_555
H84 C73 1_555 1_555
H91 C76 1_555 1_555
H92 C77 1_555 1_555
H93 C79 1_555 1_555
H94 C80 1_555 1_555
H95 C81 1_555 1_555
H96 C81 1_555 1_555
H97 C81 1_555 1_555
H98 C82 1_555 1_555
H99 C82 1_555 1_555
H100 C82 1_555 1_555
H101 C83 1_555 1_555
H102 C84 1_555 1_555
Mn6 N23 1_555 1_555
N37 Mn4 1_555 1_555
C38 C39 1_555 1_555
C45 C46 1_555 1_555
N20 C50 1_555 1_555
C58 C59 1_555 1_555
C65 C66 1_555 1_555
C79 C80 1_555 1_555
Mn1_2 N1_2 1_555 1_555
Mn2_3 N2_2 1_555 1_555
Mn3_2 C1_2 1_555 1_555
N1_2 C1_2 1_555 1_555
N2_2 C2_2 1_555 1_555
N3_2 C3_2 1_555 1_555
N4_2 C4_2 1_555 1_555
N5_2 C5_2 1_555 1_555
N6_2 C6_2 1_555 1_555
N7_2 Mn1_2 1_555 1_555
N8_2 C9_2 1_555 1_555
N9_2 Mn1_2 1_555 1_555
N11_2 Mn1_2 1_555 1_555
N12_2 C23_2 1_555 1_555
N13_2 Mn1_2 1_555 1_555
N14_2 C30_2 1_555 1_555
N15_2 Mn2_3 1_555 1_555
N16_2 C37_2 1_555 1_555
N17_2 Mn2_3 1_555 1_555
N18_2 C44_2 1_555 1_555
C2_2 Mn3_2 1_555 1_555
C3_2 Mn3_2 1_555 1_555
C4_2 Mn3_2 1_555 1_555
C5_2 Mn3_2 1_555 1_555
C6_2 Mn3_2 1_555 1_555
C7_2 N7_2 1_555 1_555
C8_2 C7_2 1_555 1_555
C9_2 C8_2 1_555 1_555
C10_2 C9_2 1_555 1_555
C11_2 N7_2 1_555 1_555
C12_2 N8_2 1_555 1_555
C14_2 N9_2 1_555 1_555
C18_2 N9_2 1_555 1_555
C21_2 N11_2 1_555 1_555
C22_2 C21_2 1_555 1_555
C23_2 C22_2 1_555 1_555
C24_2 C23_2 1_555 1_555
C25_2 N11_2 1_555 1_555
C26_2 N12_2 1_555 1_555
C27_2 N12_2 1_555 1_555
C28_2 N13_2 1_555 1_555
C29_2 C28_2 1_555 1_555
C30_2 C29_2 1_555 1_555
C31_2 C30_2 1_555 1_555
C32_2 N13_2 1_555 1_555
C33_2 N14_2 1_555 1_555
C34_2 N14_2 1_555 1_555
C35_2 N15_2 1_555 1_555
C36_2 C35_2 1_555 1_555
C37_2 C36_2 1_555 1_555
C38_2 C37_2 1_555 1_555
C39_2 N15_2 1_555 1_555
C40_2 N16_2 1_555 1_555
C41_2 N16_2 1_555 1_555
C42_2 N17_2 1_555 1_555
C43_2 C42_2 1_555 1_555
C44_2 C43_2 1_555 1_555
C45_2 C44_2 1_555 1_555
C46_2 N17_2 1_555 1_555
C47_2 N18_2 1_555 1_555
C48_2 N18_2 1_555 1_555
H1_2 C7_2 1_555 1_555
H2_2 C8_2 1_555 1_555
H4_2 C11_2 1_555 1_555
H5_2 C12_2 1_555 1_555
H6_2 C12_2 1_555 1_555
H7_2 C12_2 1_555 1_555
H11_2 C14_2 1_555 1_555
H13_2 C17_2 1_555 1_555
H14_2 C18_2 1_555 1_555
H21_2 C21_2 1_555 1_555
H22_2 C22_2 1_555 1_555
H23_2 C24_2 1_555 1_555
H24_2 C25_2 1_555 1_555
H25_2 C26_2 1_555 1_555
H26_2 C26_2 1_555 1_555
H27_2 C26_2 1_555 1_555
H28_2 C27_2 1_555 1_555
H29_2 C27_2 1_555 1_555
H30_2 C27_2 1_555 1_555
H31_2 C28_2 1_555 1_555
H32_2 C29_2 1_555 1_555
H33_2 C31_2 1_555 1_555
H34_2 C32_2 1_555 1_555
H35_2 C33_2 1_555 1_555
H36_2 C33_2 1_555 1_555
H37_2 C33_2 1_555 1_555
H38_2 C34_2 1_555 1_555
H39_2 C34_2 1_555 1_555
H40_2 C34_2 1_555 1_555
H41_2 C35_2 1_555 1_555
H42_2 C36_2 1_555 1_555
H43_2 C38_2 1_555 1_555
H44_2 C39_2 1_555 1_555
H45_2 C40_2 1_555 1_555
H46_2 C40_2 1_555 1_555
H47_2 C40_2 1_555 1_555
H48_2 C41_2 1_555 1_555
H49_2 C41_2 1_555 1_555
H50_2 C41_2 1_555 1_555
H51_2 C42_2 1_555 1_555
H52_2 C43_2 1_555 1_555
H53_2 C45_2 1_555 1_555
H54_2 C46_2 1_555 1_555
H55_2 C47_2 1_555 1_555
H56_2 C47_2 1_555 1_555
H57_2 C47_2 1_555 1_555
H58_2 C48_2 1_555 1_555
H59_2 C48_2 1_555 1_555
H60_2 C48_2 1_555 1_555
Mn4_2 N19_2 1_555 1_555
Mn5_2 C49_2 1_555 1_555
N19_2 C49_2 1_555 1_555
N20_2 Mn2_3 1_555 1_555
N21_2 C51_2 1_555 1_555
N22_2 C52_2 1_555 1_555
N23_2 C53_2 1_555 1_555
N24_2 C54_2 1_555 1_555
N25_2 Mn4_2 1_555 1_555
N26_2 C57_2 1_555 1_555
N27_2 Mn4_2 1_555 1_555
N29_2 Mn4_2 1_555 1_555
N30_2 C71_2 1_555 1_555
N31_2 Mn4_2 1_555 1_555
N32_2 C78_2 1_555 1_555
N33_2 Mn2_3 1_555 1_555
N34_2 C85_2 1_555 1_555
N35_2 Mn2_3 1_555 1_555
N36_2 C92_2 1_555 1_555
C50_2 Mn5_2 1_555 1_555
C51_2 Mn5_2 1_555 1_555
C52_2 Mn5_2 1_555 1_555
C53_2 Mn5_2 1_555 1_555
C54_2 Mn5_2 1_555 1_555
C55_2 N25_2 1_555 1_555
C56_2 C55_2 1_555 1_555
C57_2 C56_2 1_555 1_555
C58_2 C57_2 1_555 1_555
C59_2 N25_2 1_555 1_555
C60_2 N26_2 1_555 1_555
C62_2 N27_2 1_555 1_555
C66_2 N27_2 1_555 1_555
C69_2 N29_2 1_555 1_555
C70_2 C69_2 1_555 1_555
C71_2 C70_2 1_555 1_555
C72_2 C71_2 1_555 1_555
C73_2 N29_2 1_555 1_555
C74_2 N30_2 1_555 1_555
C75_2 N30_2 1_555 1_555
C76_2 N31_2 1_555 1_555
C77_2 C76_2 1_555 1_555
C78_2 C77_2 1_555 1_555
C79_2 C78_2 1_555 1_555
C80_2 N31_2 1_555 1_555
C81_2 N32_2 1_555 1_555
C82_2 N32_2 1_555 1_555
C83_2 N33_2 1_555 1_555
C84_2 C83_2 1_555 1_555
C85_2 C84_2 1_555 1_555
C86_2 C85_2 1_555 1_555
C87_2 N33_2 1_555 1_555
C88_2 N34_2 1_555 1_555
C89_2 N34_2 1_555 1_555
C90_2 N35_2 1_555 1_555
C91_2 C90_2 1_555 1_555
C92_2 C91_2 1_555 1_555
C93_2 C92_2 1_555 1_555
C94_2 N35_2 1_555 1_555
C95_2 N36_2 1_555 1_555
C96_2 N36_2 1_555 1_555
H61_2 C55_2 1_555 1_555
H62_2 C56_2 1_555 1_555
H64_2 C59_2 1_555 1_555
H65_2 C60_2 1_555 1_555
H66_2 C60_2 1_555 1_555
H67_2 C60_2 1_555 1_555
H71_2 C62_2 1_555 1_555
H73_2 C65_2 1_555 1_555
H74_2 C66_2 1_555 1_555
H81_2 C69_2 1_555 1_555
H82_2 C70_2 1_555 1_555
H83_2 C72_2 1_555 1_555
H84_2 C73_2 1_555 1_555
H85_2 C74_2 1_555 1_555
H86_2 C74_2 1_555 1_555
H87_2 C74_2 1_555 1_555
H88_2 C75_2 1_555 1_555
H89_2 C75_2 1_555 1_555
H90_2 C75_2 1_555 1_555
H91_2 C76_2 1_555 1_555
H92_2 C77_2 1_555 1_555
H93_2 C79_2 1_555 1_555
H94_2 C80_2 1_555 1_555
H95_2 C81_2 1_555 1_555
H96_2 C81_2 1_555 1_555
H97_2 C81_2 1_555 1_555
H98_2 C82_2 1_555 1_555
H99_2 C82_2 1_555 1_555
H100_2 C82_2 1_555 1_555
H101_2 C83_2 1_555 1_555
H102_2 C84_2 1_555 1_555
H103_2 C86_2 1_555 1_555
H104_2 C87_2 1_555 1_555
H105_2 C88_2 1_555 1_555
H106_2 C88_2 1_555 1_555
H107_2 C88_2 1_555 1_555
H108_2 C89_2 1_555 1_555
H109_2 C89_2 1_555 1_555
H110_2 C89_2 1_555 1_555
H111_2 C90_2 1_555 1_555
H112_2 C91_2 1_555 1_555
H113_2 C93_2 1_555 1_555
H114_2 C94_2 1_555 1_555
H115_2 C95_2 1_555 1_555
H116_2 C95_2 1_555 1_555
H117_2 C95_2 1_555 1_555
H118_2 C96_2 1_555 1_555
H119_2 C96_2 1_555 1_555
H120_2 C96_2 1_555 1_555
Mn6_2 N23_2 1_555 1_555
Mn7_2 N5_2 1_555 1_555
N37_2 Mn4_2 1_555 1_555
N38_2 Mn1_2 1_555 1_555
C10_2 C11_2 1_555 1_555
C17_2 C18_2 1_555 1_555
C24_2 C25_2 1_555 1_555
C31_2 C32_2 1_555 1_555
C38_2 C39_2 1_555 1_555
C45_2 C46_2 1_555 1_555
N20_2 C50_2 1_555 1_555
C58_2 C59_2 1_555 1_555
C65_2 C66_2 1_555 1_555
C72_2 C73_2 1_555 1_555
C79_2 C80_2 1_555 1_555
C86_2 C87_2 1_555 1_555
C93_2 C94_2 1_555 1_555
N12_3 C23_3 1_555 1_555
N15_3 Mn2_4 1_555 1_555
N16_3 C37_3 1_555 1_555
N17_3 Mn2_4 1_555 1_555
N18_3 C44_3 1_555 1_555
C23_3 C22_3 1_555 1_555
C24_3 C23_3 1_555 1_555
C26_3 N12_3 1_555 1_555
C27_3 N12_3 1_555 1_555
C38_3 C37_3 1_555 1_555
C39_3 N15_3 1_555 1_555
C40_3 N16_3 1_555 1_555
C41_3 N16_3 1_555 1_555
C42_3 N17_3 1_555 1_555
C43_3 C42_3 1_555 1_555
C44_3 C43_3 1_555 1_555
C45_3 C44_3 1_555 1_555
C46_3 N17_3 1_555 1_555
C47_3 N18_3 1_555 1_555
C48_3 N18_3 1_555 1_555
H22_3 C22_3 1_555 1_555
H23_3 C24_3 1_555 1_555
H25_3 C26_3 1_555 1_555
H26_3 C26_3 1_555 1_555
H27_3 C26_3 1_555 1_555
H28_3 C27_3 1_555 1_555
H29_3 C27_3 1_555 1_555
H30_3 C27_3 1_555 1_555
H43_3 C38_3 1_555 1_555
H44_3 C39_3 1_555 1_555
H47_3 C40_3 1_555 1_555
H48_3 C41_3 1_555 1_555
H49_3 C41_3 1_555 1_555
H50_3 C41_3 1_555 1_555
H51_3 C42_3 1_555 1_555
H52_3 C43_3 1_555 1_555
H53_3 C45_3 1_555 1_555
H54_3 C46_3 1_555 1_555
H55_3 C47_3 1_555 1_555
H56_3 C47_3 1_555 1_555
H57_3 C47_3 1_555 1_555
H58_3 C48_3 1_555 1_555
H59_3 C48_3 1_555 1_555
H60_3 C48_3 1_555 1_555
Mn4_3 N19_3 1_555 1_555
Mn5_3 C49_3 1_555 1_555
N19_3 C49_3 1_555 1_555
N20_3 Mn2_4 1_555 1_555
N21_3 C51_3 1_555 1_555
N23_3 C53_3 1_555 1_555
N24_3 C54_3 1_555 1_555
N25_3 Mn4_3 1_555 1_555
N26_3 C57_3 1_555 1_555
N27_3 Mn4_3 1_555 1_555
N29_3 Mn4_3 1_555 1_555
N31_3 Mn4_3 1_555 1_555
N32_3 C78_3 1_555 1_555
C50_3 Mn5_3 1_555 1_555
C51_3 Mn5_3 1_555 1_555
C52_3 Mn5_3 1_555 1_555
C53_3 Mn5_3 1_555 1_555
C54_3 Mn5_3 1_555 1_555
C55_3 N25_3 1_555 1_555
C56_3 C55_3 1_555 1_555
C57_3 C56_3 1_555 1_555
C58_3 C57_3 1_555 1_555
C59_3 N25_3 1_555 1_555
C60_3 N26_3 1_555 1_555
C62_3 N27_3 1_555 1_555
C66_3 N27_3 1_555 1_555
C69_3 N29_3 1_555 1_555
C73_3 N29_3 1_555 1_555
C76_3 N31_3 1_555 1_555
C77_3 C76_3 1_555 1_555
C78_3 C77_3 1_555 1_555
C79_3 C78_3 1_555 1_555
C80_3 N31_3 1_555 1_555
C81_3 N32_3 1_555 1_555
C82_3 N32_3 1_555 1_555
C84_3 C83_3 1_555 1_555
H61_3 C55_3 1_555 1_555
H62_3 C56_3 1_555 1_555
H64_3 C59_3 1_555 1_555
H65_3 C60_3 1_555 1_555
H66_3 C60_3 1_555 1_555
H67_3 C60_3 1_555 1_555
H71_3 C62_3 1_555 1_555
H73_3 C65_3 1_555 1_555
H74_3 C66_3 1_555 1_555
H81_3 C69_3 1_555 1_555
H84_3 C73_3 1_555 1_555
H91_3 C76_3 1_555 1_555
H92_3 C77_3 1_555 1_555
H93_3 C79_3 1_555 1_555
H94_3 C80_3 1_555 1_555
H95_3 C81_3 1_555 1_555
H96_3 C81_3 1_555 1_555
H97_3 C81_3 1_555 1_555
H98_3 C82_3 1_555 1_555
H99_3 C82_3 1_555 1_555
H100_3 C82_3 1_555 1_555
H101_3 C83_3 1_555 1_555
H102_3 C84_3 1_555 1_555
Mn6_3 N23_3 1_555 1_555
N37_3 Mn4_3 1_555 1_555
C38_3 C39_3 1_555 1_555
C45_3 C46_3 1_555 1_555
N20_3 C50_3 1_555 1_555
C58_3 C59_3 1_555 1_555
C65_3 C66_3 1_555 1_555
C79_3 C80_3 1_555 1_555
Mn1_3 N1_3 1_555 1_555
Mn2_5 N2_3 1_555 1_555
Mn3_3 C1_3 1_555 1_555
N1_3 C1_3 1_555 1_555
N2_3 C2_3 1_555 1_555
N3_3 C3_3 1_555 1_555
N5_3 C5_3 1_555 1_555
N6_3 C6_3 1_555 1_555
N7_3 Mn1_3 1_555 1_555
N8_3 C9_3 1_555 1_555
N9_3 Mn1_3 1_555 1_555
N11_3 Mn1_3 1_555 1_555
N13_3 Mn1_3 1_555 1_555
N14_3 C30_3 1_555 1_555
C2_3 Mn3_3 1_555 1_555
C3_3 Mn3_3 1_555 1_555
C4_3 Mn3_3 1_555 1_555
C5_3 Mn3_3 1_555 1_555
C6_3 Mn3_3 1_555 1_555
C7_3 N7_3 1_555 1_555
C8_3 C7_3 1_555 1_555
C9_3 C8_3 1_555 1_555
C10_3 C9_3 1_555 1_555
C11_3 N7_3 1_555 1_555
C12_3 N8_3 1_555 1_555
C14_3 N9_3 1_555 1_555
C18_3 N9_3 1_555 1_555
C21_3 N11_3 1_555 1_555
C25_3 N11_3 1_555 1_555
C28_3 N13_3 1_555 1_555
C29_3 C28_3 1_555 1_555
C30_3 C29_3 1_555 1_555
C31_3 C30_3 1_555 1_555
C32_3 N13_3 1_555 1_555
C33_3 N14_3 1_555 1_555
C34_3 N14_3 1_555 1_555
C36_3 C35_3 1_555 1_555
H1_3 C7_3 1_555 1_555
H2_3 C8_3 1_555 1_555
H4_3 C11_3 1_555 1_555
H5_3 C12_3 1_555 1_555
H6_3 C12_3 1_555 1_555
H7_3 C12_3 1_555 1_555
H11_3 C14_3 1_555 1_555
H13_3 C17_3 1_555 1_555
H14_3 C18_3 1_555 1_555
H21_3 C21_3 1_555 1_555
H24_3 C25_3 1_555 1_555
H31_3 C28_3 1_555 1_555
H32_3 C29_3 1_555 1_555
H33_3 C31_3 1_555 1_555
H34_3 C32_3 1_555 1_555
H35_3 C33_3 1_555 1_555
H36_3 C33_3 1_555 1_555
H37_3 C33_3 1_555 1_555
H38_3 C34_3 1_555 1_555
H39_3 C34_3 1_555 1_555
H40_3 C34_3 1_555 1_555
H41_3 C35_3 1_555 1_555
H42_3 C36_3 1_555 1_555
N30_3 C71_3 1_555 1_555
N33_3 Mn2_5 1_555 1_555
N34_3 C85_3 1_555 1_555
N35_3 Mn2_5 1_555 1_555
N36_3 C92_3 1_555 1_555
C71_3 C70_3 1_555 1_555
C72_3 C71_3 1_555 1_555
C74_3 N30_3 1_555 1_555
C75_3 N30_3 1_555 1_555
C86_3 C85_3 1_555 1_555
C87_3 N33_3 1_555 1_555
C88_3 N34_3 1_555 1_555
C89_3 N34_3 1_555 1_555
C90_3 N35_3 1_555 1_555
C91_3 C90_3 1_555 1_555
C92_3 C91_3 1_555 1_555
C93_3 C92_3 1_555 1_555
C94_3 N35_3 1_555 1_555
C95_3 N36_3 1_555 1_555
C96_3 N36_3 1_555 1_555
H82_3 C70_3 1_555 1_555
H83_3 C72_3 1_555 1_555
H85_3 C74_3 1_555 1_555
H86_3 C74_3 1_555 1_555
H87_3 C74_3 1_555 1_555
H88_3 C75_3 1_555 1_555
H89_3 C75_3 1_555 1_555
H90_3 C75_3 1_555 1_555
H103_3 C86_3 1_555 1_555
H104_3 C87_3 1_555 1_555
H107_3 C88_3 1_555 1_555
H108_3 C89_3 1_555 1_555
H109_3 C89_3 1_555 1_555
H110_3 C89_3 1_555 1_555
H111_3 C90_3 1_555 1_555
H112_3 C91_3 1_555 1_555
H113_3 C93_3 1_555 1_555
H114_3 C94_3 1_555 1_555
H115_3 C95_3 1_555 1_555
H116_3 C95_3 1_555 1_555
H117_3 C95_3 1_555 1_555
H118_3 C96_3 1_555 1_555
H119_3 C96_3 1_555 1_555
H120_3 C96_3 1_555 1_555
Mn7_3 N5_3 1_555 1_555
N38_3 Mn1_3 1_555 1_555
C10_3 C11_3 1_555 1_555
C17_3 C18_3 1_555 1_555
C31_3 C32_3 1_555 1_555
C86_3 C87_3 1_555 1_555
C93_3 C94_3 1_555 1_555
H48_4 C41_4 1_555 1_555
H50_4 C41_4 1_555 1_555
Mn7_3 N19_4 1_555 1_555
Mn5_4 C49_4 1_555 1_555
N19_4 C49_4 1_555 1_555
N22_4 C52_4 1_555 1_555
N38_2 C53_4 1_555 1_555
N25_4 Mn7_3 1_555 1_555
N26_4 C57_4 1_555 1_555
N27_4 Mn7_3 1_555 1_555
N28 C64 1_555 1_555
N29_4 Mn7_3 1_555 1_555
N30_4 C71_4 1_555 1_555
N31_4 Mn7_3 1_555 1_555
C52_4 Mn5_4 1_555 1_555
C53_4 Mn5_4 1_555 1_555
C55_4 N25_4 1_555 1_555
C56_4 C55_4 1_555 1_555
C57_4 C56_4 1_555 1_555
C58_4 C57_4 1_555 1_555
C59_4 N25_4 1_555 1_555
C60_4 N26_4 1_555 1_555
C61 N26_4 1_555 1_555
C62_4 N27_4 1_555 1_555
C63 C62_4 1_555 1_555
C64 C63 1_555 1_555
C65_4 C64 1_555 1_555
C66_4 N27_4 1_555 1_555
C67 N28 1_555 1_555
C68 N28 1_555 1_555
C69_4 N29_4 1_555 1_555
C70_4 C69_4 1_555 1_555
C71_4 C70_4 1_555 1_555
C72_4 C71_4 1_555 1_555
C73_4 N29_4 1_555 1_555
C75_4 N30_4 1_555 1_555
C76_4 N31_4 1_555 1_555
C80_4 N31_4 1_555 1_555
H61_4 C55_4 1_555 1_555
H62_4 C56_4 1_555 1_555
H63 C58_4 1_555 1_555
H64_4 C59_4 1_555 1_555
H65_4 C60_4 1_555 1_555
H66_4 C60_4 1_555 1_555
H67_4 C60_4 1_555 1_555
H68 C61 1_555 1_555
H69 C61 1_555 1_555
H70 C61 1_555 1_555
H71_4 C62_4 1_555 1_555
H72 C63 1_555 1_555
H73_4 C65_4 1_555 1_555
H74_4 C66_4 1_555 1_555
H75 C67 1_555 1_555
H76 C67 1_555 1_555
H77 C67 1_555 1_555
H78 C68 1_555 1_555
H79 C68 1_555 1_555
H80 C68 1_555 1_555
H81_4 C69_4 1_555 1_555
H82_4 C70_4 1_555 1_555
H83_4 C72_4 1_555 1_555
H84_4 C73_4 1_555 1_555
H90_4 C75_4 1_555 1_555
H91_4 C76_4 1_555 1_555
H94_4 C80_4 1_555 1_555
H115_4 C95_4 1_555 1_555
H116_4 C95_4 1_555 1_555
H117_4 C95_4 1_555 1_555
C58_4 C59_4 1_555 1_555
C65_4 C66_4 1_555 1_555
C72_4 C73_4 1_555 1_555
H48_5 C41_5 1_555 1_555
H50_5 C41_5 1_555 1_555
Mn7 N19_5 1_555 1_555
Mn5_5 C49_5 1_555 1_555
N19_5 C49_5 1_555 1_555
N22_5 C52_5 1_555 1_555
N38_3 C53_5 1_555 1_555
N25_5 Mn7 1_555 1_555
N26_5 C57_5 1_555 1_555
N27_5 Mn7 1_555 1_555
N28_2 C64_2 1_555 1_555
N29_5 Mn7 1_555 1_555
N30_5 C71_5 1_555 1_555
N31_5 Mn7 1_555 1_555
C52_5 Mn5_5 1_555 1_555
C53_5 Mn5_5 1_555 1_555
C55_5 N25_5 1_555 1_555
C56_5 C55_5 1_555 1_555
C57_5 C56_5 1_555 1_555
C58_5 C57_5 1_555 1_555
C59_5 N25_5 1_555 1_555
C60_5 N26_5 1_555 1_555
C61_2 N26_5 1_555 1_555
C62_5 N27_5 1_555 1_555
C63_2 C62_5 1_555 1_555
C64_2 C63_2 1_555 1_555
C65_5 C64_2 1_555 1_555
C66_5 N27_5 1_555 1_555
C67_2 N28_2 1_555 1_555
C68_2 N28_2 1_555 1_555
C69_5 N29_5 1_555 1_555
C70_5 C69_5 1_555 1_555
C71_5 C70_5 1_555 1_555
C72_5 C71_5 1_555 1_555
C73_5 N29_5 1_555 1_555
C75_5 N30_5 1_555 1_555
C76_5 N31_5 1_555 1_555
C80_5 N31_5 1_555 1_555
H61_5 C55_5 1_555 1_555
H62_5 C56_5 1_555 1_555
H63_2 C58_5 1_555 1_555
H64_5 C59_5 1_555 1_555
H65_5 C60_5 1_555 1_555
H66_5 C60_5 1_555 1_555
H67_5 C60_5 1_555 1_555
H68_2 C61_2 1_555 1_555
H69_2 C61_2 1_555 1_555
H70_2 C61_2 1_555 1_555
H71_5 C62_5 1_555 1_555
H72_2 C63_2 1_555 1_555
H73_5 C65_5 1_555 1_555
H74_5 C66_5 1_555 1_555
H75_2 C67_2 1_555 1_555
H76_2 C67_2 1_555 1_555
H77_2 C67_2 1_555 1_555
H78_2 C68_2 1_555 1_555
H79_2 C68_2 1_555 1_555
H80_2 C68_2 1_555 1_555
H81_5 C69_5 1_555 1_555
H82_5 C70_5 1_555 1_555
H83_5 C72_5 1_555 1_555
H84_5 C73_5 1_555 1_555
H90_5 C75_5 1_555 1_555
H91_5 C76_5 1_555 1_555
H94_5 C80_5 1_555 1_555
H115_5 C95_5 1_555 1_555
H116_5 C95_5 1_555 1_555
H117_5 C95_5 1_555 1_555
C58_5 C59_5 1_555 1_555
C65_5 C66_5 1_555 1_555
C72_5 C73_5 1_555 1_555
H48_6 C41_6 1_555 1_555
H50_6 C41_6 1_555 1_555
Mn7_2 N19_6 1_555 1_555
Mn5_6 C49_6 1_555 1_555
N19_6 C49_6 1_555 1_555
N22_6 C52_6 1_555 1_555
N38 C53_6 1_555 1_555
N25_6 Mn7_2 1_555 1_555
N26_6 C57_6 1_555 1_555
N27_6 Mn7_2 1_555 1_555
N28_3 C64_3 1_555 1_555
N29_6 Mn7_2 1_555 1_555
N30_6 C71_6 1_555 1_555
N31_6 Mn7_2 1_555 1_555
C52_6 Mn5_6 1_555 1_555
C53_6 Mn5_6 1_555 1_555
C55_6 N25_6 1_555 1_555
C56_6 C55_6 1_555 1_555
C57_6 C56_6 1_555 1_555
C58_6 C57_6 1_555 1_555
C59_6 N25_6 1_555 1_555
C60_6 N26_6 1_555 1_555
C61_3 N26_6 1_555 1_555
C62_6 N27_6 1_555 1_555
C63_3 C62_6 1_555 1_555
C64_3 C63_3 1_555 1_555
C65_6 C64_3 1_555 1_555
C66_6 N27_6 1_555 1_555
C67_3 N28_3 1_555 1_555
C68_3 N28_3 1_555 1_555
C69_6 N29_6 1_555 1_555
C70_6 C69_6 1_555 1_555
C71_6 C70_6 1_555 1_555
C72_6 C71_6 1_555 1_555
C73_6 N29_6 1_555 1_555
C74_4 N30_6 1_555 1_555
C75_6 N30_6 1_555 1_555
C76_6 N31_6 1_555 1_555
C80_6 N31_6 1_555 1_555
H61_6 C55_6 1_555 1_555
H62_6 C56_6 1_555 1_555
H63_3 C58_6 1_555 1_555
H64_6 C59_6 1_555 1_555
H65_6 C60_6 1_555 1_555
H66_6 C60_6 1_555 1_555
H67_6 C60_6 1_555 1_555
H68_3 C61_3 1_555 1_555
H69_3 C61_3 1_555 1_555
H70_3 C61_3 1_555 1_555
H71_6 C62_6 1_555 1_555
H72_3 C63_3 1_555 1_555
H73_6 C65_6 1_555 1_555
H74_6 C66_6 1_555 1_555
H75_3 C67_3 1_555 1_555
H76_3 C67_3 1_555 1_555
H77_3 C67_3 1_555 1_555
H78_3 C68_3 1_555 1_555
H79_3 C68_3 1_555 1_555
H80_3 C68_3 1_555 1_555
H81_6 C69_6 1_555 1_555
H82_6 C70_6 1_555 1_555
H83_6 C72_6 1_555 1_555
H84_6 C73_6 1_555 1_555
H85_4 C74_4 1_555 1_555
H86_4 C74_4 1_555 1_555
H87_4 C74_4 1_555 1_555
H90_6 C75_6 1_555 1_555
H91_6 C76_6 1_555 1_555
H94_6 C80_6 1_555 1_555
H115_6 C95_6 1_555 1_555
H116_6 C95_6 1_555 1_555
H117_6 C95_6 1_555 1_555
C58_6 C59_6 1_555 1_555
C65_6 C66_6 1_555 1_555
C72_6 C73_6 1_555 1_555
Mn6_3 N1_4 1_555 1_555
Mn3_4 C1_4 1_555 1_555
N1_4 C1_4 1_555 1_555
N4_4 C4_4 1_555 1_555
N37_2 C5_4 1_555 1_555
N7_4 Mn6_3 1_555 1_555
N8_4 C9_4 1_555 1_555
N9_4 Mn6_3 1_555 1_555
N10 C16 1_555 1_555
N11_4 Mn6_3 1_555 1_555
N12_4 C23_4 1_555 1_555
N13_4 Mn6_3 1_555 1_555
C4_4 Mn3_4 1_555 1_555
C5_4 Mn3_4 1_555 1_555
C7_4 N7_4 1_555 1_555
C8_4 C7_4 1_555 1_555
C9_4 C8_4 1_555 1_555
C10_4 C9_4 1_555 1_555
C11_4 N7_4 1_555 1_555
C12_4 N8_4 1_555 1_555
C13 N8_4 1_555 1_555
C14_4 N9_4 1_555 1_555
C15 C14_4 1_555 1_555
C16 C15 1_555 1_555
C17_4 C16 1_555 1_555
C18_4 N9_4 1_555 1_555
C19 N10 1_555 1_555
C20 N10 1_555 1_555
C21_4 N11_4 1_555 1_555
C22_4 C21_4 1_555 1_555
C23_4 C22_4 1_555 1_555
C24_4 C23_4 1_555 1_555
C25_4 N11_4 1_555 1_555
C27_4 N12_4 1_555 1_555
C28_4 N13_4 1_555 1_555
C32_4 N13_4 1_555 1_555
H1_4 C7_4 1_555 1_555
H2_4 C8_4 1_555 1_555
H3 C10_4 1_555 1_555
H4_4 C11_4 1_555 1_555
H5_4 C12_4 1_555 1_555
H6_4 C12_4 1_555 1_555
H7_4 C12_4 1_555 1_555
H8 C13 1_555 1_555
H9 C13 1_555 1_555
H10 C13 1_555 1_555
H11_4 C14_4 1_555 1_555
H12 C15 1_555 1_555
H13_4 C17_4 1_555 1_555
H14_4 C18_4 1_555 1_555
H15 C19 1_555 1_555
H16 C19 1_555 1_555
H17 C19 1_555 1_555
H18 C20 1_555 1_555
H19 C20 1_555 1_555
H20 C20 1_555 1_555
H21_4 C21_4 1_555 1_555
H22_4 C22_4 1_555 1_555
H23_4 C24_4 1_555 1_555
H24_4 C25_4 1_555 1_555
H30_4 C27_4 1_555 1_555
H31_4 C28_4 1_555 1_555
H34_4 C32_4 1_555 1_555
H55_4 C47_4 1_555 1_555
H56_4 C47_4 1_555 1_555
H57_4 C47_4 1_555 1_555
H108_4 C89_4 1_555 1_555
H110_4 C89_4 1_555 1_555
C10_4 C11_4 1_555 1_555
C17_4 C18_4 1_555 1_555
C24_4 C25_4 1_555 1_555
Mn6 N1_5 1_555 1_555
Mn3_5 C1_5 1_555 1_555
N1_5 C1_5 1_555 1_555
N4_5 C4_5 1_555 1_555
N37_3 C5_5 1_555 1_555
N7_5 Mn6 1_555 1_555
N8_5 C9_5 1_555 1_555
N9_5 Mn6 1_555 1_555
N10_2 C16_2 1_555 1_555
N11_5 Mn6 1_555 1_555
N12_5 C23_5 1_555 1_555
N13_5 Mn6 1_555 1_555
C4_5 Mn3_5 1_555 1_555
C5_5 Mn3_5 1_555 1_555
C7_5 N7_5 1_555 1_555
C8_5 C7_5 1_555 1_555
C9_5 C8_5 1_555 1_555
C10_5 C9_5 1_555 1_555
C11_5 N7_5 1_555 1_555
C12_5 N8_5 1_555 1_555
C13_2 N8_5 1_555 1_555
C14_5 N9_5 1_555 1_555
C15_2 C14_5 1_555 1_555
C16_2 C15_2 1_555 1_555
C17_5 C16_2 1_555 1_555
C18_5 N9_5 1_555 1_555
C19_2 N10_2 1_555 1_555
C20_2 N10_2 1_555 1_555
C21_5 N11_5 1_555 1_555
C22_5 C21_5 1_555 1_555
C23_5 C22_5 1_555 1_555
C24_5 C23_5 1_555 1_555
C25_5 N11_5 1_555 1_555
C27_5 N12_5 1_555 1_555
C28_5 N13_5 1_555 1_555
C32_5 N13_5 1_555 1_555
H1_5 C7_5 1_555 1_555
H2_5 C8_5 1_555 1_555
H3_2 C10_5 1_555 1_555
H4_5 C11_5 1_555 1_555
H5_5 C12_5 1_555 1_555
H6_5 C12_5 1_555 1_555
H7_5 C12_5 1_555 1_555
H8_2 C13_2 1_555 1_555
H9_2 C13_2 1_555 1_555
H10_2 C13_2 1_555 1_555
H11_5 C14_5 1_555 1_555
H12_2 C15_2 1_555 1_555
H13_5 C17_5 1_555 1_555
H14_5 C18_5 1_555 1_555
H15_2 C19_2 1_555 1_555
H16_2 C19_2 1_555 1_555
H17_2 C19_2 1_555 1_555
H18_2 C20_2 1_555 1_555
H19_2 C20_2 1_555 1_555
H20_2 C20_2 1_555 1_555
H21_5 C21_5 1_555 1_555
H22_5 C22_5 1_555 1_555
H23_5 C24_5 1_555 1_555
H24_5 C25_5 1_555 1_555
H30_5 C27_5 1_555 1_555
H31_5 C28_5 1_555 1_555
H34_5 C32_5 1_555 1_555
H55_5 C47_5 1_555 1_555
H56_5 C47_5 1_555 1_555
H57_5 C47_5 1_555 1_555
H108_5 C89_5 1_555 1_555
H110_5 C89_5 1_555 1_555
C10_5 C11_5 1_555 1_555
C17_5 C18_5 1_555 1_555
C24_5 C25_5 1_555 1_555
Mn6_2 N1_6 1_555 1_555
Mn3_6 C1_6 1_555 1_555
N1_6 C1_6 1_555 1_555
N4_6 C4_6 1_555 1_555
N37 C5_6 1_555 1_555
N7_6 Mn6_2 1_555 1_555
N8_6 C9_6 1_555 1_555
N9_6 Mn6_2 1_555 1_555
N10_3 C16_3 1_555 1_555
N11_6 Mn6_2 1_555 1_555
N12_6 C23_6 1_555 1_555
N13_6 Mn6_2 1_555 1_555
C4_6 Mn3_6 1_555 1_555
C5_6 Mn3_6 1_555 1_555
C7_6 N7_6 1_555 1_555
C8_6 C7_6 1_555 1_555
C9_6 C8_6 1_555 1_555
C10_6 C9_6 1_555 1_555
C11_6 N7_6 1_555 1_555
C12_6 N8_6 1_555 1_555
C13_3 N8_6 1_555 1_555
C14_6 N9_6 1_555 1_555
C15_3 C14_6 1_555 1_555
C16_3 C15_3 1_555 1_555
C17_6 C16_3 1_555 1_555
C18_6 N9_6 1_555 1_555
C19_3 N10_3 1_555 1_555
C20_3 N10_3 1_555 1_555
C21_6 N11_6 1_555 1_555
C22_6 C21_6 1_555 1_555
C23_6 C22_6 1_555 1_555
C24_6 C23_6 1_555 1_555
C25_6 N11_6 1_555 1_555
C26_4 N12_6 1_555 1_555
C27_6 N12_6 1_555 1_555
C28_6 N13_6 1_555 1_555
C32_6 N13_6 1_555 1_555
H1_6 C7_6 1_555 1_555
H2_6 C8_6 1_555 1_555
H3_3 C10_6 1_555 1_555
H4_6 C11_6 1_555 1_555
H5_6 C12_6 1_555 1_555
H6_6 C12_6 1_555 1_555
H7_6 C12_6 1_555 1_555
H8_3 C13_3 1_555 1_555
H9_3 C13_3 1_555 1_555
H10_3 C13_3 1_555 1_555
H11_6 C14_6 1_555 1_555
H12_3 C15_3 1_555 1_555
H13_6 C17_6 1_555 1_555
H14_6 C18_6 1_555 1_555
H15_3 C19_3 1_555 1_555
H16_3 C19_3 1_555 1_555
H17_3 C19_3 1_555 1_555
H18_3 C20_3 1_555 1_555
H19_3 C20_3 1_555 1_555
H20_3 C20_3 1_555 1_555
H21_6 C21_6 1_555 1_555
H22_6 C22_6 1_555 1_555
H23_6 C24_6 1_555 1_555
H24_6 C25_6 1_555 1_555
H25_4 C26_4 1_555 1_555
H26_4 C26_4 1_555 1_555
H27_4 C26_4 1_555 1_555
H30_6 C27_6 1_555 1_555
H31_6 C28_6 1_555 1_555
H34_6 C32_6 1_555 1_555
H55_6 C47_6 1_555 1_555
H56_6 C47_6 1_555 1_555
H57_6 C47_6 1_555 1_555
H108_6 C89_6 1_555 1_555
H110_6 C89_6 1_555 1_555
C10_6 C11_6 1_555 1_555
C17_6 C18_6 1_555 1_555
C24_6 C25_6 1_555 1_555
N10_4 C16_4 1_555 1_555
C16_4 C15_4 1_555 1_555
C19_4 N10_4 1_555 1_555
C20_4 N10_4 1_555 1_555
H8_4 C13_4 1_555 1_555
H9_4 C13_4 1_555 1_555
H10_4 C13_4 1_555 1_555
H12_4 C15_4 1_555 1_555
H15_4 C19_4 1_555 1_555
H16_4 C19_4 1_555 1_555
H17_4 C19_4 1_555 1_555
H18_4 C20_4 1_555 1_555
H19_4 C20_4 1_555 1_555
H20_4 C20_4 1_555 1_555
N28_4 C64_4 1_555 1_555
C64_4 C63_4 1_555 1_555
C67_4 N28_4 1_555 1_555
C68_4 N28_4 1_555 1_555
H68_4 C61_4 1_555 1_555
H69_4 C61_4 1_555 1_555
H70_4 C61_4 1_555 1_555
H72_4 C63_4 1_555 1_555
H75_4 C67_4 1_555 1_555
H76_4 C67_4 1_555 1_555
H77_4 C67_4 1_555 1_555
H78_4 C68_4 1_555 1_555
H79_4 C68_4 1_555 1_555
H80_4 C68_4 1_555 1_555
N28_5 C64_5 1_555 1_555
C64_5 C63_5 1_555 1_555
C67_5 N28_5 1_555 1_555
C68_5 N28_5 1_555 1_555
H68_5 C61_5 1_555 1_555
H69_5 C61_5 1_555 1_555
H70_5 C61_5 1_555 1_555
H72_5 C63_5 1_555 1_555
H75_5 C67_5 1_555 1_555
H76_5 C67_5 1_555 1_555
H77_5 C67_5 1_555 1_555
H78_5 C68_5 1_555 1_555
H79_5 C68_5 1_555 1_555
H80_5 C68_5 1_555 1_555
N10_5 C16_5 1_555 1_555
C16_5 C15_5 1_555 1_555
C19_5 N10_5 1_555 1_555
C20_5 N10_5 1_555 1_555
H8_5 C13_5 1_555 1_555
H9_5 C13_5 1_555 1_555
H10_5 C13_5 1_555 1_555
H12_5 C15_5 1_555 1_555
H15_5 C19_5 1_555 1_555
H16_5 C19_5 1_555 1_555
H17_5 C19_5 1_555 1_555
H18_5 C20_5 1_555 1_555
H19_5 C20_5 1_555 1_555
H20_5 C20_5 1_555 1_555
N28_6 C64_6 1_555 1_555
C64_6 C63_6 1_555 1_555
C67_6 N28_6 1_555 1_555
C68_6 N28_6 1_555 1_555
H68_6 C61_6 1_555 1_555
H69_6 C61_6 1_555 1_555
H70_6 C61_6 1_555 1_555
H72_6 C63_6 1_555 1_555
H75_6 C67_6 1_555 1_555
H76_6 C67_6 1_555 1_555
H77_6 C67_6 1_555 1_555
H78_6 C68_6 1_555 1_555
H79_6 C68_6 1_555 1_555
H80_6 C68_6 1_555 1_555
N10_6 C16_6 1_555 1_555
C16_6 C15_6 1_555 1_555
C19_6 N10_6 1_555 1_555
C20_6 N10_6 1_555 1_555
H8_6 C13_6 1_555 1_555
H9_6 C13_6 1_555 1_555
H10_6 C13_6 1_555 1_555
H12_6 C15_6 1_555 1_555
H15_6 C19_6 1_555 1_555
H16_6 C19_6 1_555 1_555
H17_6 C19_6 1_555 1_555
H18_6 C20_6 1_555 1_555
H19_6 C20_6 1_555 1_555
H20_6 C20_6 1_555 1_555
H85_5 C74_5 1_555 1_555
H86_5 C74_5 1_555 1_555
H87_5 C74_5 1_555 1_555
H5_7 C12_7 1_555 1_555
H6_7 C12_7 1_555 1_555
H7_7 C12_7 1_555 1_555
H45_4 C40_4 1_555 1_555
H46_4 C40_4 1_555 1_555
H47_4 C40_4 1_555 1_555
Mn7_4 N5_4 1_555 1_555
Mn2_6 N2_4 1_555 1_555
N2_4 C2_4 1_555 1_555
N3_4 C3_4 1_555 1_555
N6_4 C6_4 1_555 1_555
N14_4 C30_4 1_555 1_555
N15_4 Mn2_6 1_555 1_555
N17_4 Mn2_6 1_555 1_555
N18_4 C44_4 1_555 1_555
C30_4 C29_4 1_555 1_555
C31_4 C30_4 1_555 1_555
C33_4 N14_4 1_555 1_555
C34_4 N14_4 1_555 1_555
C35_4 N15_4 1_555 1_555
C36_4 C35_4 1_555 1_555
C37_4 C36_4 1_555 1_555
C38_4 C37_4 1_555 1_555
C39_4 N15_4 1_555 1_555
C42_4 N17_4 1_555 1_555
C43_4 C42_4 1_555 1_555
C44_4 C43_4 1_555 1_555
C45_4 C44_4 1_555 1_555
C46_4 N17_4 1_555 1_555
C48_4 N18_4 1_555 1_555
H32_4 C29_4 1_555 1_555
H33_4 C31_4 1_555 1_555
H35_4 C33_4 1_555 1_555
H36_4 C33_4 1_555 1_555
H37_4 C33_4 1_555 1_555
H38_4 C34_4 1_555 1_555
H39_4 C34_4 1_555 1_555
H40_4 C34_4 1_555 1_555
H41_4 C35_4 1_555 1_555
H42_4 C36_4 1_555 1_555
H43_4 C38_4 1_555 1_555
H44_4 C39_4 1_555 1_555
H51_4 C42_4 1_555 1_555
H53_4 C45_4 1_555 1_555
H54_4 C46_4 1_555 1_555
H58_4 C48_4 1_555 1_555
H59_4 C48_4 1_555 1_555
H60_4 C48_4 1_555 1_555
Mn7_4 N19_7 1_555 1_555
Mn5_7 C49_7 1_555 1_555
N19_7 C49_7 1_555 1_555
N20_4 Mn2_6 1_555 1_555
N21_4 C51_4 1_555 1_555
N22_7 C52_7 1_555 1_555
N24_4 C54_4 1_555 1_555
N25_7 Mn7_4 1_555 1_555
N26_7 C57_7 1_555 1_555
N27_7 Mn7_4 1_555 1_555
N28_7 C64_7 1_555 1_555
N29_7 Mn7_4 1_555 1_555
N30_7 C71_7 1_555 1_555
N31_7 Mn7_4 1_555 1_555
N33_4 Mn2_6 1_555 1_555
N34_4 C85_4 1_555 1_555
N35_4 Mn2_6 1_555 1_555
N36_4 C92_4 1_555 1_555
C50_4 Mn5_7 1_555 1_555
C51_4 Mn5_7 1_555 1_555
C52_7 Mn5_7 1_555 1_555
C53_7 Mn5_7 1_555 1_555
C54_4 Mn5_7 1_555 1_555
C55_7 N25_7 1_555 1_555
C56_7 C55_7 1_555 1_555
C57_7 C56_7 1_555 1_555
C58_7 C57_7 1_555 1_555
C59_7 N25_7 1_555 1_555
C61_7 N26_7 1_555 1_555
C62_7 N27_7 1_555 1_555
C63_7 C62_7 1_555 1_555
C64_7 C63_7 1_555 1_555
C65_7 C64_7 1_555 1_555
C66_7 N27_7 1_555 1_555
C67_7 N28_7 1_555 1_555
C68_7 N28_7 1_555 1_555
C69_7 N29_7 1_555 1_555
C70_7 C69_7 1_555 1_555
C71_7 C70_7 1_555 1_555
C72_7 C71_7 1_555 1_555
C73_7 N29_7 1_555 1_555
C74_6 N30_7 1_555 1_555
C75_7 N30_7 1_555 1_555
C76_7 N31_7 1_555 1_555
C77_4 C76_7 1_555 1_555
C83_4 N33_4 1_555 1_555
C84_4 C83_4 1_555 1_555
C85_4 C84_4 1_555 1_555
C86_4 C85_4 1_555 1_555
C87_4 N33_4 1_555 1_555
C89_7 N34_4 1_555 1_555
C90_4 N35_4 1_555 1_555
C91_4 C90_4 1_555 1_555
C92_4 C91_4 1_555 1_555
C93_4 C92_4 1_555 1_555
C94_4 N35_4 1_555 1_555
C95_7 N36_4 1_555 1_555
C96_4 N36_4 1_555 1_555
H61_7 C55_7 1_555 1_555
H62_7 C56_7 1_555 1_555
H63_7 C58_7 1_555 1_555
H64_7 C59_7 1_555 1_555
H69_7 C61_7 1_555 1_555
H70_7 C61_7 1_555 1_555
H71_7 C62_7 1_555 1_555
H72_7 C63_7 1_555 1_555
H73_7 C65_7 1_555 1_555
H74_7 C66_7 1_555 1_555
H75_7 C67_7 1_555 1_555
H76_7 C67_7 1_555 1_555
H77_7 C67_7 1_555 1_555
H78_7 C68_7 1_555 1_555
H79_7 C68_7 1_555 1_555
H80_7 C68_7 1_555 1_555
H81_7 C69_7 1_555 1_555
H82_7 C70_7 1_555 1_555
H83_7 C72_7 1_555 1_555
H84_7 C73_7 1_555 1_555
H85_6 C74_6 1_555 1_555
H86_6 C74_6 1_555 1_555
H87_6 C74_6 1_555 1_555
H88_4 C75_7 1_555 1_555
H89_4 C75_7 1_555 1_555
H90_7 C75_7 1_555 1_555
H91_7 C76_7 1_555 1_555
H92_4 C77_4 1_555 1_555
H101_4 C83_4 1_555 1_555
H102_4 C84_4 1_555 1_555
H103_4 C86_4 1_555 1_555
H104_4 C87_4 1_555 1_555
H109_4 C89_7 1_555 1_555
H111_4 C90_4 1_555 1_555
H112_7 C91_4 1_555 1_555
H113_4 C93_4 1_555 1_555
H114_4 C94_4 1_555 1_555
H115_7 C95_7 1_555 1_555
H116_7 C95_7 1_555 1_555
H117_7 C95_7 1_555 1_555
H118_4 C96_4 1_555 1_555
H119_4 C96_4 1_555 1_555
H120_4 C96_4 1_555 1_555
C38_4 C39_4 1_555 1_555
C45_4 C46_4 1_555 1_555
N20_4 C50_4 1_555 1_555
C58_7 C59_7 1_555 1_555
C65_7 C66_7 1_555 1_555
C72_7 C73_7 1_555 1_555
C86_4 C87_4 1_555 1_555
C93_4 C94_4 1_555 1_555
Mn1_4 N1_7 1_555 1_555
Mn2_7 N2_5 1_555 1_555
Mn3_7 C1_7 1_555 1_555
N1_7 C1_7 1_555 1_555
N2_5 C2_5 1_555 1_555
N3_5 C3_5 1_555 1_555
N4_7 C4_7 1_555 1_555
N6_5 C6_5 1_555 1_555
N7_7 Mn1_4 1_555 1_555
N8_7 C9_7 1_555 1_555
N9_7 Mn1_4 1_555 1_555
N10_7 C16_7 1_555 1_555
N11_7 Mn1_4 1_555 1_555
N12_7 C23_7 1_555 1_555
N13_7 Mn1_4 1_555 1_555
N14_5 C30_5 1_555 1_555
N15_5 Mn2_7 1_555 1_555
N16_4 C37_5 1_555 1_555
N17_5 Mn2_7 1_555 1_555
N18_5 C44_5 1_555 1_555
C2_5 Mn3_7 1_555 1_555
C3_5 Mn3_7 1_555 1_555
C4_7 Mn3_7 1_555 1_555
C5_7 Mn3_7 1_555 1_555
C6_5 Mn3_7 1_555 1_555
C7_7 N7_7 1_555 1_555
C8_7 C7_7 1_555 1_555
C9_7 C8_7 1_555 1_555
C10_7 C9_7 1_555 1_555
C11_7 N7_7 1_555 1_555
C13_7 N8_7 1_555 1_555
C14_7 N9_7 1_555 1_555
C15_7 C14_7 1_555 1_555
C16_7 C15_7 1_555 1_555
C17_7 C16_7 1_555 1_555
C18_7 N9_7 1_555 1_555
C19_7 N10_7 1_555 1_555
C20_7 N10_7 1_555 1_555
C21_7 N11_7 1_555 1_555
C22_7 C21_7 1_555 1_555
C23_7 C22_7 1_555 1_555
C24_7 C23_7 1_555 1_555
C25_7 N11_7 1_555 1_555
C26_5 N12_7 1_555 1_555
C27_7 N12_7 1_555 1_555
C28_7 N13_7 1_555 1_555
C29_5 C28_7 1_555 1_555
C30_5 C29_5 1_555 1_555
C31_5 C30_5 1_555 1_555
C32_7 N13_7 1_555 1_555
C33_5 N14_5 1_555 1_555
C34_5 N14_5 1_555 1_555
C35_5 N15_5 1_555 1_555
C36_5 C35_5 1_555 1_555
C37_5 C36_5 1_555 1_555
C38_5 C37_5 1_555 1_555
C39_5 N15_5 1_555 1_555
C41_7 N16_4 1_555 1_555
C42_5 N17_5 1_555 1_555
C43_5 C42_5 1_555 1_555
C44_5 C43_5 1_555 1_555
C45_5 C44_5 1_555 1_555
C46_5 N17_5 1_555 1_555
C47_7 N18_5 1_555 1_555
C48_5 N18_5 1_555 1_555
H1_7 C7_7 1_555 1_555
H2_7 C8_7 1_555 1_555
H3_7 C10_7 1_555 1_555
H4_7 C11_7 1_555 1_555
H9_7 C13_7 1_555 1_555
H10_7 C13_7 1_555 1_555
H11_7 C14_7 1_555 1_555
H12_7 C15_7 1_555 1_555
H13_7 C17_7 1_555 1_555
H14_7 C18_7 1_555 1_555
H15_7 C19_7 1_555 1_555
H16_7 C19_7 1_555 1_555
H17_7 C19_7 1_555 1_555
H18_7 C20_7 1_555 1_555
H19_7 C20_7 1_555 1_555
H20_7 C20_7 1_555 1_555
H21_7 C21_7 1_555 1_555
H22_7 C22_7 1_555 1_555
H23_7 C24_7 1_555 1_555
H24_7 C25_7 1_555 1_555
H25_5 C26_5 1_555 1_555
H26_5 C26_5 1_555 1_555
H27_5 C26_5 1_555 1_555
H28_5 C27_7 1_555 1_555
H29_5 C27_7 1_555 1_555
H30_7 C27_7 1_555 1_555
H31_7 C28_7 1_555 1_555
H32_5 C29_5 1_555 1_555
H33_5 C31_5 1_555 1_555
H34_7 C32_7 1_555 1_555
H35_5 C33_5 1_555 1_555
H36_5 C33_5 1_555 1_555
H37_5 C33_5 1_555 1_555
H38_5 C34_5 1_555 1_555
H39_5 C34_5 1_555 1_555
H40_5 C34_5 1_555 1_555
H41_5 C35_5 1_555 1_555
H42_5 C36_5 1_555 1_555
H43_5 C38_5 1_555 1_555
H44_5 C39_5 1_555 1_555
H49_4 C41_7 1_555 1_555
H51_5 C42_5 1_555 1_555
H52_7 C43_5 1_555 1_555
H53_5 C45_5 1_555 1_555
H54_5 C46_5 1_555 1_555
H55_7 C47_7 1_555 1_555
H56_7 C47_7 1_555 1_555
H57_7 C47_7 1_555 1_555
H58_5 C48_5 1_555 1_555
H59_5 C48_5 1_555 1_555
H60_5 C48_5 1_555 1_555
N20_5 Mn2_7 1_555 1_555
N21_5 C51_5 1_555 1_555
N24_5 C54_5 1_555 1_555
N32_4 C78_4 1_555 1_555
N33_5 Mn2_7 1_555 1_555
N34_5 C85_5 1_555 1_555
N35_5 Mn2_7 1_555 1_555
N36_5 C92_5 1_555 1_555
C78_4 C77_5 1_555 1_555
C79_4 C78_4 1_555 1_555
C81_4 N32_4 1_555 1_555
C82_4 N32_4 1_555 1_555
C83_5 N33_5 1_555 1_555
C84_5 C83_5 1_555 1_555
C85_5 C84_5 1_555 1_555
C86_5 C85_5 1_555 1_555
C87_5 N33_5 1_555 1_555
C88_4 N34_5 1_555 1_555
C89_8 N34_5 1_555 1_555
C90_5 N35_5 1_555 1_555
C91_5 C90_5 1_555 1_555
C92_5 C91_5 1_555 1_555
C93_5 C92_5 1_555 1_555
C94_5 N35_5 1_555 1_555
C96_5 N36_5 1_555 1_555
H92_5 C77_5 1_555 1_555
H93_4 C79_4 1_555 1_555
H95_4 C81_4 1_555 1_555
H96_5 C81_4 1_555 1_555
H97_5 C81_4 1_555 1_555
H98_4 C82_4 1_555 1_555
H99_4 C82_4 1_555 1_555
H100_4 C82_4 1_555 1_555
H101_5 C83_5 1_555 1_555
H102_5 C84_5 1_555 1_555
H103_5 C86_5 1_555 1_555
H104_5 C87_5 1_555 1_555
H105_4 C88_4 1_555 1_555
H106_4 C88_4 1_555 1_555
H107_4 C88_4 1_555 1_555
H108_7 C89_8 1_555 1_555
H109_5 C89_8 1_555 1_555
H110_7 C89_8 1_555 1_555
H111_5 C90_5 1_555 1_555
H113_5 C93_5 1_555 1_555
H114_5 C94_5 1_555 1_555
H118_5 C96_5 1_555 1_555
H119_5 C96_5 1_555 1_555
H120_5 C96_5 1_555 1_555
N38_4 Mn1_4 1_555 1_555
C10_7 C11_7 1_555 1_555
C17_7 C18_7 1_555 1_555
C24_7 C25_7 1_555 1_555
C31_5 C32_7 1_555 1_555
C38_5 C39_5 1_555 1_555
C45_5 C46_5 1_555 1_555
N20_5 C50_5 1_555 1_555
C86_5 C87_5 1_555 1_555
C93_5 C94_5 1_555 1_555
H5_8 C12_8 1_555 1_555
H6_8 C12_8 1_555 1_555
H7_8 C12_8 1_555 1_555
H45_6 C40_5 1_555 1_555
H46_5 C40_5 1_555 1_555
H47_5 C40_5 1_555 1_555
Mn7_5 N5_5 1_555 1_555
Mn2_8 N2_6 1_555 1_555
N2_6 C2_6 1_555 1_555
N3_6 C3_6 1_555 1_555
N6_6 C6_6 1_555 1_555
N14_6 C30_6 1_555 1_555
N15_6 Mn2_8 1_555 1_555
N17_6 Mn2_8 1_555 1_555
N18_6 C44_6 1_555 1_555
C30_6 C29_6 1_555 1_555
C31_6 C30_6 1_555 1_555
C33_6 N14_6 1_555 1_555
C34_6 N14_6 1_555 1_555
C35_6 N15_6 1_555 1_555
C36_6 C35_6 1_555 1_555
C37_6 C36_6 1_555 1_555
C38_6 C37_6 1_555 1_555
C39_6 N15_6 1_555 1_555
C42_6 N17_6 1_555 1_555
C43_6 C42_6 1_555 1_555
C44_6 C43_6 1_555 1_555
C45_6 C44_6 1_555 1_555
C46_6 N17_6 1_555 1_555
C48_6 N18_6 1_555 1_555
H32_6 C29_6 1_555 1_555
H33_6 C31_6 1_555 1_555
H35_6 C33_6 1_555 1_555
H36_6 C33_6 1_555 1_555
H37_6 C33_6 1_555 1_555
H38_6 C34_6 1_555 1_555
H39_6 C34_6 1_555 1_555
H40_6 C34_6 1_555 1_555
H41_6 C35_6 1_555 1_555
H42_6 C36_6 1_555 1_555
H43_6 C38_6 1_555 1_555
H44_6 C39_6 1_555 1_555
H51_6 C42_6 1_555 1_555
H53_6 C45_6 1_555 1_555
H54_6 C46_6 1_555 1_555
H58_6 C48_6 1_555 1_555
H59_6 C48_6 1_555 1_555
H60_6 C48_6 1_555 1_555
Mn7_5 N19_8 1_555 1_555
Mn5_8 C49_8 1_555 1_555
N19_8 C49_8 1_555 1_555
N20_6 Mn2_8 1_555 1_555
N21_6 C51_6 1_555 1_555
N22_8 C52_8 1_555 1_555
N38_4 C53_8 1_555 1_555
N24_6 C54_6 1_555 1_555
N25_8 Mn7_5 1_555 1_555
N26_8 C57_8 1_555 1_555
N27_8 Mn7_5 1_555 1_555
N28_8 C64_8 1_555 1_555
N29_8 Mn7_5 1_555 1_555
N30_8 C71_8 1_555 1_555
N31_8 Mn7_5 1_555 1_555
N33_6 Mn2_8 1_555 1_555
N34_6 C85_6 1_555 1_555
N35_6 Mn2_8 1_555 1_555
N36_6 C92_6 1_555 1_555
C50_6 Mn5_8 1_555 1_555
C51_6 Mn5_8 1_555 1_555
C52_8 Mn5_8 1_555 1_555
C53_8 Mn5_8 1_555 1_555
C54_6 Mn5_8 1_555 1_555
C55_8 N25_8 1_555 1_555
C56_8 C55_8 1_555 1_555
C57_8 C56_8 1_555 1_555
C58_8 C57_8 1_555 1_555
C59_8 N25_8 1_555 1_555
C60_7 N26_8 1_555 1_555
C61_8 N26_8 1_555 1_555
C62_8 N27_8 1_555 1_555
C63_8 C62_8 1_555 1_555
C64_8 C63_8 1_555 1_555
C65_8 C64_8 1_555 1_555
C66_8 N27_8 1_555 1_555
C67_8 N28_8 1_555 1_555
C68_8 N28_8 1_555 1_555
C69_8 N29_8 1_555 1_555
C70_8 C69_8 1_555 1_555
C71_8 C70_8 1_555 1_555
C72_8 C71_8 1_555 1_555
C73_8 N29_8 1_555 1_555
C74_7 N30_8 1_555 1_555
C75_8 N30_8 1_555 1_555
C76_8 N31_8 1_555 1_555
C77_6 C76_8 1_555 1_555
C83_6 N33_6 1_555 1_555
C84_6 C83_6 1_555 1_555
C85_6 C84_6 1_555 1_555
C86_6 C85_6 1_555 1_555
C87_6 N33_6 1_555 1_555
C88_5 N34_6 1_555 1_555
C89_9 N34_6 1_555 1_555
C90_6 N35_6 1_555 1_555
C91_6 C90_6 1_555 1_555
C92_6 C91_6 1_555 1_555
C93_6 C92_6 1_555 1_555
C94_6 N35_6 1_555 1_555
C95_8 N36_6 1_555 1_555
C96_6 N36_6 1_555 1_555
H61_8 C55_8 1_555 1_555
H62_8 C56_8 1_555 1_555
H63_8 C58_8 1_555 1_555
H64_8 C59_8 1_555 1_555
H65_7 C60_7 1_555 1_555
H66_7 C60_7 1_555 1_555
H67_7 C60_7 1_555 1_555
H68_7 C61_8 1_555 1_555
H69_8 C61_8 1_555 1_555
H70_8 C61_8 1_555 1_555
H71_8 C62_8 1_555 1_555
H72_8 C63_8 1_555 1_555
H73_8 C65_8 1_555 1_555
H74_8 C66_8 1_555 1_555
H75_8 C67_8 1_555 1_555
H76_8 C67_8 1_555 1_555
H77_8 C67_8 1_555 1_555
H78_8 C68_8 1_555 1_555
H79_8 C68_8 1_555 1_555
H80_8 C68_8 1_555 1_555
H81_8 C69_8 1_555 1_555
H82_8 C70_8 1_555 1_555
H83_8 C72_8 1_555 1_555
H84_8 C73_8 1_555 1_555
H85_7 C74_7 1_555 1_555
H86_7 C74_7 1_555 1_555
H87_7 C74_7 1_555 1_555
H88_6 C75_8 1_555 1_555
H89_6 C75_8 1_555 1_555
H90_8 C75_8 1_555 1_555
H91_8 C76_8 1_555 1_555
H92_6 C77_6 1_555 1_555
H101_6 C83_6 1_555 1_555
H102_6 C84_6 1_555 1_555
H103_6 C86_6 1_555 1_555
H104_6 C87_6 1_555 1_555
H105_5 C88_5 1_555 1_555
H106_5 C88_5 1_555 1_555
H107_5 C88_5 1_555 1_555
H109_6 C89_9 1_555 1_555
H111_6 C90_6 1_555 1_555
H112_8 C91_6 1_555 1_555
H113_6 C93_6 1_555 1_555
H114_6 C94_6 1_555 1_555
H115_8 C95_8 1_555 1_555
H116_8 C95_8 1_555 1_555
H117_8 C95_8 1_555 1_555
H118_6 C96_6 1_555 1_555
H119_6 C96_6 1_555 1_555
H120_6 C96_6 1_555 1_555
C38_6 C39_6 1_555 1_555
C45_6 C46_6 1_555 1_555
N20_6 C50_6 1_555 1_555
C58_8 C59_8 1_555 1_555
C65_8 C66_8 1_555 1_555
C72_8 C73_8 1_555 1_555
C86_6 C87_6 1_555 1_555
C93_6 C94_6 1_555 1_555
N14_7 C30_7 1_555 1_555
C31_7 C30_7 1_555 1_555
C33_7 N14_7 1_555 1_555
C34_7 N14_7 1_555 1_555
H33_7 C31_7 1_555 1_555
H34_8 C32_8 1_555 1_555
H35_7 C33_7 1_555 1_555
H38_7 C34_7 1_555 1_555
H39_7 C34_7 1_555 1_555
H40_7 C34_7 1_555 1_555
C88_6 N34_7 1_555 1_555
C89_10 N34_7 1_555 1_555
H106_6 C88_6 1_555 1_555
H107_6 C88_6 1_555 1_555
H108_8 C89_10 1_555 1_555
H109_7 C89_10 1_555 1_555
H110_8 C89_10 1_555 1_555
C31_7 C32_8 1_555 1_555
Mn1_5 N1_8 1_555 1_555
Mn2_9 N2_7 1_555 1_555
Mn3_8 C1_8 1_555 1_555
N1_8 C1_8 1_555 1_555
N2_7 C2_7 1_555 1_555
N3_7 C3_7 1_555 1_555
N4_8 C4_8 1_555 1_555
N6_7 C6_7 1_555 1_555
N7_8 Mn1_5 1_555 1_555
N8_8 C9_8 1_555 1_555
N9_8 Mn1_5 1_555 1_555
N10_8 C16_8 1_555 1_555
N11_8 Mn1_5 1_555 1_555
N12_8 C23_8 1_555 1_555
N13_8 Mn1_5 1_555 1_555
N15_7 Mn2_9 1_555 1_555
N16_5 C37_7 1_555 1_555
N17_7 Mn2_9 1_555 1_555
N18_7 C44_7 1_555 1_555
C2_7 Mn3_8 1_555 1_555
C3_7 Mn3_8 1_555 1_555
C4_8 Mn3_8 1_555 1_555
C5_8 Mn3_8 1_555 1_555
C6_7 Mn3_8 1_555 1_555
C7_8 N7_8 1_555 1_555
C8_8 C7_8 1_555 1_555
C9_8 C8_8 1_555 1_555
C10_8 C9_8 1_555 1_555
C11_8 N7_8 1_555 1_555
C13_8 N8_8 1_555 1_555
C14_8 N9_8 1_555 1_555
C15_8 C14_8 1_555 1_555
C16_8 C15_8 1_555 1_555
C17_8 C16_8 1_555 1_555
C18_8 N9_8 1_555 1_555
C19_8 N10_8 1_555 1_555
C20_8 N10_8 1_555 1_555
C21_8 N11_8 1_555 1_555
C22_8 C21_8 1_555 1_555
C23_8 C22_8 1_555 1_555
C24_8 C23_8 1_555 1_555
C25_8 N11_8 1_555 1_555
C26_6 N12_8 1_555 1_555
C27_8 N12_8 1_555 1_555
C28_8 N13_8 1_555 1_555
C29_7 C28_8 1_555 1_555
C35_7 N15_7 1_555 1_555
C36_7 C35_7 1_555 1_555
C37_7 C36_7 1_555 1_555
C38_7 C37_7 1_555 1_555
C39_7 N15_7 1_555 1_555
C41_8 N16_5 1_555 1_555
C42_7 N17_7 1_555 1_555
C43_7 C42_7 1_555 1_555
C44_7 C43_7 1_555 1_555
C45_7 C44_7 1_555 1_555
C46_7 N17_7 1_555 1_555
C47_8 N18_7 1_555 1_555
C48_7 N18_7 1_555 1_555
H1_8 C7_8 1_555 1_555
H2_8 C8_8 1_555 1_555
H3_8 C10_8 1_555 1_555
H4_8 C11_8 1_555 1_555
H9_8 C13_8 1_555 1_555
H10_8 C13_8 1_555 1_555
H11_8 C14_8 1_555 1_555
H12_8 C15_8 1_555 1_555
H13_8 C17_8 1_555 1_555
H14_8 C18_8 1_555 1_555
H15_8 C19_8 1_555 1_555
H16_8 C19_8 1_555 1_555
H17_8 C19_8 1_555 1_555
H18_8 C20_8 1_555 1_555
H19_8 C20_8 1_555 1_555
H20_8 C20_8 1_555 1_555
H21_8 C21_8 1_555 1_555
H22_8 C22_8 1_555 1_555
H23_8 C24_8 1_555 1_555
H24_8 C25_8 1_555 1_555
H25_6 C26_6 1_555 1_555
H26_6 C26_6 1_555 1_555
H27_6 C26_6 1_555 1_555
H28_7 C27_8 1_555 1_555
H29_7 C27_8 1_555 1_555
H30_8 C27_8 1_555 1_555
H31_8 C28_8 1_555 1_555
H32_7 C29_7 1_555 1_555
H41_7 C35_7 1_555 1_555
H42_7 C36_7 1_555 1_555
H43_7 C38_7 1_555 1_555
H44_7 C39_7 1_555 1_555
H49_5 C41_8 1_555 1_555
H51_7 C42_7 1_555 1_555
H52_8 C43_7 1_555 1_555
H53_7 C45_7 1_555 1_555
H54_7 C46_7 1_555 1_555
H55_8 C47_8 1_555 1_555
H56_8 C47_8 1_555 1_555
H57_8 C47_8 1_555 1_555
H58_7 C48_7 1_555 1_555
H59_7 C48_7 1_555 1_555
H60_7 C48_7 1_555 1_555
N20_7 Mn2_9 1_555 1_555
N21_7 C51_7 1_555 1_555
N24_7 C54_7 1_555 1_555
N32_5 C78_5 1_555 1_555
N33_7 Mn2_9 1_555 1_555
N35_7 Mn2_9 1_555 1_555
N36_7 C92_7 1_555 1_555
C78_5 C77_7 1_555 1_555
C79_5 C78_5 1_555 1_555
C81_5 N32_5 1_555 1_555
C82_5 N32_5 1_555 1_555
C83_7 N33_7 1_555 1_555
C84_7 C83_7 1_555 1_555
C85_7 C84_7 1_555 1_555
C86_7 C85_7 1_555 1_555
C87_7 N33_7 1_555 1_555
C90_7 N35_7 1_555 1_555
C91_7 C90_7 1_555 1_555
C92_7 C91_7 1_555 1_555
C93_7 C92_7 1_555 1_555
C94_7 N35_7 1_555 1_555
C96_7 N36_7 1_555 1_555
H92_7 C77_7 1_555 1_555
H93_5 C79_5 1_555 1_555
H95_5 C81_5 1_555 1_555
H96_7 C81_5 1_555 1_555
H97_7 C81_5 1_555 1_555
H98_5 C82_5 1_555 1_555
H99_5 C82_5 1_555 1_555
H100_5 C82_5 1_555 1_555
H101_7 C83_7 1_555 1_555
H102_7 C84_7 1_555 1_555
H103_7 C86_7 1_555 1_555
H104_7 C87_7 1_555 1_555
H111_7 C90_7 1_555 1_555
H113_7 C93_7 1_555 1_555
H114_7 C94_7 1_555 1_555
H118_7 C96_7 1_555 1_555
H119_7 C96_7 1_555 1_555
H120_7 C96_7 1_555 1_555
N38_5 Mn1_5 1_555 1_555
C10_8 C11_8 1_555 1_555
C17_8 C18_8 1_555 1_555
C24_8 C25_8 1_555 1_555
C38_7 C39_7 1_555 1_555
C45_7 C46_7 1_555 1_555
N20_7 C50_7 1_555 1_555
C86_7 C87_7 1_555 1_555
C93_7 C94_7 1_555 1_555
H65_8 C60_8 1_555 1_555
H66_8 C60_8 1_555 1_555
H67_8 C60_8 1_555 1_555
H105_7 C88_7 1_555 1_555
H106_7 C88_7 1_555 1_555
H107_7 C88_7 1_555 1_555
H85_8 C74_8 1_555 1_555
H86_8 C74_8 1_555 1_555
H87_8 C74_8 1_555 1_555
Mn1_6 N1_9 1_555 1_555
Mn2_10 N2_8 1_555 1_555
Mn3_9 C1_9 1_555 1_555
N1_9 C1_9 1_555 1_555
N2_8 C2_8 1_555 1_555
N3_8 C3_8 1_555 1_555
N4_9 C4_9 1_555 1_555
N5_6 C5_9 1_555 1_555
N6_8 C6_8 1_555 1_555
N7_9 Mn1_6 1_555 1_555
N8_9 C9_9 1_555 1_555
N9_9 Mn1_6 1_555 1_555
N10_9 C16_9 1_555 1_555
N11_9 Mn1_6 1_555 1_555
N12_9 C23_9 1_555 1_555
N13_9 Mn1_6 1_555 1_555
N15_8 Mn2_10 1_555 1_555
N16_6 C37_8 1_555 1_555
N17_8 Mn2_10 1_555 1_555
N18_8 C44_8 1_555 1_555
C2_8 Mn3_9 1_555 1_555
C3_8 Mn3_9 1_555 1_555
C4_9 Mn3_9 1_555 1_555
C5_9 Mn3_9 1_555 1_555
C6_8 Mn3_9 1_555 1_555
C7_9 N7_9 1_555 1_555
C8_9 C7_9 1_555 1_555
C9_9 C8_9 1_555 1_555
C10_9 C9_9 1_555 1_555
C11_9 N7_9 1_555 1_555
C12_9 N8_9 1_555 1_555
C13_9 N8_9 1_555 1_555
C14_9 N9_9 1_555 1_555
C15_9 C14_9 1_555 1_555
C16_9 C15_9 1_555 1_555
C17_9 C16_9 1_555 1_555
C18_9 N9_9 1_555 1_555
C19_9 N10_9 1_555 1_555
C20_9 N10_9 1_555 1_555
C21_9 N11_9 1_555 1_555
C22_9 C21_9 1_555 1_555
C23_9 C22_9 1_555 1_555
C24_9 C23_9 1_555 1_555
C25_9 N11_9 1_555 1_555
C26_7 N12_9 1_555 1_555
C27_9 N12_9 1_555 1_555
C28_9 N13_9 1_555 1_555
C29_8 C28_9 1_555 1_555
C35_8 N15_8 1_555 1_555
C36_8 C35_8 1_555 1_555
C37_8 C36_8 1_555 1_555
C38_8 C37_8 1_555 1_555
C39_8 N15_8 1_555 1_555
C40_6 N16_6 1_555 1_555
C41_9 N16_6 1_555 1_555
C42_8 N17_8 1_555 1_555
C43_8 C42_8 1_555 1_555
C44_8 C43_8 1_555 1_555
C45_8 C44_8 1_555 1_555
C46_8 N17_8 1_555 1_555
C47_9 N18_8 1_555 1_555
C48_8 N18_8 1_555 1_555
H1_9 C7_9 1_555 1_555
H2_9 C8_9 1_555 1_555
H3_9 C10_9 1_555 1_555
H4_9 C11_9 1_555 1_555
H5_9 C12_9 1_555 1_555
H6_9 C12_9 1_555 1_555
H7_9 C12_9 1_555 1_555
H8_9 C13_9 1_555 1_555
H9_9 C13_9 1_555 1_555
H10_9 C13_9 1_555 1_555
H11_9 C14_9 1_555 1_555
H12_9 C15_9 1_555 1_555
H13_9 C17_9 1_555 1_555
H14_9 C18_9 1_555 1_555
H15_9 C19_9 1_555 1_555
H16_9 C19_9 1_555 1_555
H17_9 C19_9 1_555 1_555
H18_9 C20_9 1_555 1_555
H19_9 C20_9 1_555 1_555
H20_9 C20_9 1_555 1_555
H21_9 C21_9 1_555 1_555
H22_9 C22_9 1_555 1_555
H23_9 C24_9 1_555 1_555
H24_9 C25_9 1_555 1_555
H25_7 C26_7 1_555 1_555
H26_7 C26_7 1_555 1_555
H27_7 C26_7 1_555 1_555
H28_8 C27_9 1_555 1_555
H29_8 C27_9 1_555 1_555
H30_9 C27_9 1_555 1_555
H31_9 C28_9 1_555 1_555
H32_8 C29_8 1_555 1_555
H41_8 C35_8 1_555 1_555
H42_8 C36_8 1_555 1_555
H43_8 C38_8 1_555 1_555
H44_8 C39_8 1_555 1_555
H45_8 C40_6 1_555 1_555
H46_6 C40_6 1_555 1_555
H47_6 C40_6 1_555 1_555
H49_6 C41_9 1_555 1_555
H51_8 C42_8 1_555 1_555
H52_9 C43_8 1_555 1_555
H53_8 C45_8 1_555 1_555
H54_8 C46_8 1_555 1_555
H55_9 C47_9 1_555 1_555
H56_9 C47_9 1_555 1_555
H57_9 C47_9 1_555 1_555
H58_8 C48_8 1_555 1_555
H59_8 C48_8 1_555 1_555
H60_8 C48_8 1_555 1_555
N20_8 Mn2_10 1_555 1_555
N21_8 C51_8 1_555 1_555
N24_8 C54_8 1_555 1_555
N32_6 C78_6 1_555 1_555
N33_8 Mn2_10 1_555 1_555
N35_8 Mn2_10 1_555 1_555
N36_8 C92_8 1_555 1_555
C78_6 C77_8 1_555 1_555
C79_6 C78_6 1_555 1_555
C81_6 N32_6 1_555 1_555
C82_6 N32_6 1_555 1_555
C83_8 N33_8 1_555 1_555
C84_8 C83_8 1_555 1_555
C85_8 C84_8 1_555 1_555
C86_8 C85_8 1_555 1_555
C87_8 N33_8 1_555 1_555
C90_8 N35_8 1_555 1_555
C91_8 C90_8 1_555 1_555
C92_8 C91_8 1_555 1_555
C93_8 C92_8 1_555 1_555
C94_8 N35_8 1_555 1_555
C96_8 N36_8 1_555 1_555
H92_8 C77_8 1_555 1_555
H93_6 C79_6 1_555 1_555
H95_6 C81_6 1_555 1_555
H96_8 C81_6 1_555 1_555
H97_8 C81_6 1_555 1_555
H98_6 C82_6 1_555 1_555
H99_6 C82_6 1_555 1_555
H100_6 C82_6 1_555 1_555
H101_8 C83_8 1_555 1_555
H102_8 C84_8 1_555 1_555
H103_8 C86_8 1_555 1_555
H104_8 C87_8 1_555 1_555
H111_8 C90_8 1_555 1_555
H113_8 C93_8 1_555 1_555
H114_8 C94_8 1_555 1_555
H118_8 C96_8 1_555 1_555
H119_8 C96_8 1_555 1_555
H120_8 C96_8 1_555 1_555
Mn7_6 N5_6 1_555 1_555
N38_6 Mn1_6 1_555 1_555
C10_9 C11_9 1_555 1_555
C17_9 C18_9 1_555 1_555
C24_9 C25_9 1_555 1_555
C38_8 C39_8 1_555 1_555
C45_8 C46_8 1_555 1_555
N20_8 C50_8 1_555 1_555
C86_8 C87_8 1_555 1_555
C93_8 C94_8 1_555 1_555
Mn2_11 N2_9 1_555 1_555
N2_9 C2_9 1_555 1_555
N3_9 C3_9 1_555 1_555
N6_9 C6_9 1_555 1_555
N14_8 C30_8 1_555 1_555
N15_9 Mn2_11 1_555 1_555
N16_7 C37_9 1_555 1_555
N17_9 Mn2_11 1_555 1_555
N18_9 C44_9 1_555 1_555
C30_8 C29_9 1_555 1_555
C31_8 C30_8 1_555 1_555
C33_8 N14_8 1_555 1_555
C34_8 N14_8 1_555 1_555
C35_9 N15_9 1_555 1_555
C36_9 C35_9 1_555 1_555
C37_9 C36_9 1_555 1_555
C38_9 C37_9 1_555 1_555
C39_9 N15_9 1_555 1_555
C40_7 N16_7 1_555 1_555
C41_10 N16_7 1_555 1_555
C42_9 N17_9 1_555 1_555
C43_9 C42_9 1_555 1_555
C44_9 C43_9 1_555 1_555
C45_9 C44_9 1_555 1_555
C46_9 N17_9 1_555 1_555
C48_9 N18_9 1_555 1_555
H32_9 C29_9 1_555 1_555
H33_8 C31_8 1_555 1_555
H35_8 C33_8 1_555 1_555
H36_9 C33_8 1_555 1_555
H37_9 C33_8 1_555 1_555
H38_8 C34_8 1_555 1_555
H39_8 C34_8 1_555 1_555
H40_8 C34_8 1_555 1_555
H41_9 C35_9 1_555 1_555
H42_9 C36_9 1_555 1_555
H43_9 C38_9 1_555 1_555
H44_9 C39_9 1_555 1_555
H45_9 C40_7 1_555 1_555
H46_7 C40_7 1_555 1_555
H47_7 C40_7 1_555 1_555
H48_7 C41_10 1_555 1_555
H49_7 C41_10 1_555 1_555
H50_7 C41_10 1_555 1_555
H51_9 C42_9 1_555 1_555
H53_9 C45_9 1_555 1_555
H54_9 C46_9 1_555 1_555
H58_9 C48_9 1_555 1_555
H59_9 C48_9 1_555 1_555
H60_9 C48_9 1_555 1_555
Mn7_6 N19_9 1_555 1_555
Mn5_9 C49_9 1_555 1_555
N19_9 C49_9 1_555 1_555
N20_9 Mn2_11 1_555 1_555
N21_9 C51_9 1_555 1_555
N22_9 C52_9 1_555 1_555
N24_9 C54_9 1_555 1_555
N25_9 Mn7_6 1_555 1_555
N26_9 C57_9 1_555 1_555
N27_9 Mn7_6 1_555 1_555
N28_9 C64_9 1_555 1_555
N29_9 Mn7_6 1_555 1_555
N30_9 C71_9 1_555 1_555
N31_9 Mn7_6 1_555 1_555
N32_7 C78_7 1_555 1_555
N33_9 Mn2_11 1_555 1_555
N34_8 C85_9 1_555 1_555
N35_9 Mn2_11 1_555 1_555
N36_9 C92_9 1_555 1_555
C50_9 Mn5_9 1_555 1_555
C51_9 Mn5_9 1_555 1_555
C52_9 Mn5_9 1_555 1_555
C53_9 Mn5_9 1_555 1_555
C54_9 Mn5_9 1_555 1_555
C55_9 N25_9 1_555 1_555
C56_9 C55_9 1_555 1_555
C57_9 C56_9 1_555 1_555
C58_9 C57_9 1_555 1_555
C59_9 N25_9 1_555 1_555
C61_9 N26_9 1_555 1_555
C62_9 N27_9 1_555 1_555
C63_9 C62_9 1_555 1_555
C64_9 C63_9 1_555 1_555
C65_9 C64_9 1_555 1_555
C66_9 N27_9 1_555 1_555
C67_9 N28_9 1_555 1_555
C68_9 N28_9 1_555 1_555
C69_9 N29_9 1_555 1_555
C70_9 C69_9 1_555 1_555
C71_9 C70_9 1_555 1_555
C72_9 C71_9 1_555 1_555
C73_9 N29_9 1_555 1_555
C74_9 N30_9 1_555 1_555
C75_9 N30_9 1_555 1_555
C76_9 N31_9 1_555 1_555
C77_9 C76_9 1_555 1_555
C78_7 C77_9 1_555 1_555
C79_7 C78_7 1_555 1_555
C80_7 N31_9 1_555 1_555
C81_7 N32_7 1_555 1_555
C82_7 N32_7 1_555 1_555
C83_9 N33_9 1_555 1_555
C84_9 C83_9 1_555 1_555
C85_9 C84_9 1_555 1_555
C86_9 C85_9 1_555 1_555
C87_9 N33_9 1_555 1_555
C89_11 N34_8 1_555 1_555
C90_9 N35_9 1_555 1_555
C91_9 C90_9 1_555 1_555
C92_9 C91_9 1_555 1_555
C93_9 C92_9 1_555 1_555
C94_9 N35_9 1_555 1_555
C95_9 N36_9 1_555 1_555
C96_9 N36_9 1_555 1_555
H61_9 C55_9 1_555 1_555
H62_9 C56_9 1_555 1_555
H63_9 C58_9 1_555 1_555
H64_9 C59_9 1_555 1_555
H69_9 C61_9 1_555 1_555
H70_9 C61_9 1_555 1_555
H71_9 C62_9 1_555 1_555
H72_9 C63_9 1_555 1_555
H73_9 C65_9 1_555 1_555
H74_9 C66_9 1_555 1_555
H75_9 C67_9 1_555 1_555
H76_9 C67_9 1_555 1_555
H77_9 C67_9 1_555 1_555
H78_9 C68_9 1_555 1_555
H79_9 C68_9 1_555 1_555
H80_9 C68_9 1_555 1_555
H81_9 C69_9 1_555 1_555
H82_9 C70_9 1_555 1_555
H83_9 C72_9 1_555 1_555
H84_9 C73_9 1_555 1_555
H85_9 C74_9 1_555 1_555
H86_9 C74_9 1_555 1_555
H87_9 C74_9 1_555 1_555
H88_9 C75_9 1_555 1_555
H89_9 C75_9 1_555 1_555
H90_9 C75_9 1_555 1_555
H91_9 C76_9 1_555 1_555
H92_9 C77_9 1_555 1_555
H93_7 C79_7 1_555 1_555
H94_7 C80_7 1_555 1_555
H95_7 C81_7 1_555 1_555
H96_9 C81_7 1_555 1_555
H97_9 C81_7 1_555 1_555
H98_7 C82_7 1_555 1_555
H99_7 C82_7 1_555 1_555
H100_7 C82_7 1_555 1_555
H101_9 C83_9 1_555 1_555
H102_9 C84_9 1_555 1_555
H103_9 C86_9 1_555 1_555
H104_9 C87_9 1_555 1_555
H109_8 C89_11 1_555 1_555
H111_9 C90_9 1_555 1_555
H112_9 C91_9 1_555 1_555
H113_9 C93_9 1_555 1_555
H114_9 C94_9 1_555 1_555
H115_9 C95_9 1_555 1_555
H116_9 C95_9 1_555 1_555
H117_9 C95_9 1_555 1_555
H118_9 C96_9 1_555 1_555
H119_9 C96_9 1_555 1_555
H120_9 C96_9 1_555 1_555
C38_9 C39_9 1_555 1_555
C45_9 C46_9 1_555 1_555
N20_9 C50_9 1_555 1_555
C58_9 C59_9 1_555 1_555
C65_9 C66_9 1_555 1_555
C72_9 C73_9 1_555 1_555
C79_7 C80_7 1_555 1_555
C86_9 C87_9 1_555 1_555
C93_9 C94_9 1_555 1_555
H65_9 C60_9 1_555 1_555
H66_9 C60_9 1_555 1_555
H67_9 C60_9 1_555 1_555
H105_9 C88_8 1_555 1_555
H106_8 C88_8 1_555 1_555
H107_8 C88_8 1_555 1_555
N14_9 C30_9 1_555 1_555
C31_9 C30_9 1_555 1_555
C33_9 N14_9 1_555 1_555
C34_9 N14_9 1_555 1_555
H33_9 C31_9 1_555 1_555
H34_9 C32_9 1_555 1_555
H35_9 C33_9 1_555 1_555
H38_9 C34_9 1_555 1_555
H39_9 C34_9 1_555 1_555
H40_9 C34_9 1_555 1_555
C88_9 N34_9 1_555 1_555
C89_12 N34_9 1_555 1_555
H106_9 C88_9 1_555 1_555
H107_9 C88_9 1_555 1_555
H108_9 C89_12 1_555 1_555
H109_9 C89_12 1_555 1_555
H110_9 C89_12 1_555 1_555
C31_9 C32_9 1_555 1_555
H25_8 C26_8 1_555 1_555
H26_8 C26_8 1_555 1_555
H27_8 C26_8 1_555 1_555
H25_9 C26_9 1_555 1_555
H26_9 C26_9 1_555 1_555
H27_9 C26_9 1_555 1_555
C40_8 N16_8 1_555 1_555
C41_11 N16_8 1_555 1_555
H46_8 C40_8 1_555 1_555
H47_8 C40_8 1_555 1_555
H48_8 C41_11 1_555 1_555
H49_8 C41_11 1_555 1_555
H50_8 C41_11 1_555 1_555
N32_8 C78_8 1_555 1_555
C79_8 C78_8 1_555 1_555
C81_8 N32_8 1_555 1_555
C82_8 N32_8 1_555 1_555
H93_8 C79_8 1_555 1_555
H94_8 C80_8 1_555 1_555
H95_8 C81_8 1_555 1_555
H98_8 C82_8 1_555 1_555
H99_8 C82_8 1_555 1_555
H100_8 C82_8 1_555 1_555
C79_8 C80_8 1_555 1_555
C40_9 N16_9 1_555 1_555
C41_12 N16_9 1_555 1_555
H46_9 C40_9 1_555 1_555
H47_9 C40_9 1_555 1_555
H48_9 C41_12 1_555 1_555
H49_9 C41_12 1_555 1_555
H50_9 C41_12 1_555 1_555
N32_9 C78_9 1_555 1_555
C79_9 C78_9 1_555 1_555
C81_9 N32_9 1_555 1_555
C82_9 N32_9 1_555 1_555
H93_9 C79_9 1_555 1_555
H94_9 C80_9 1_555 1_555
H95_9 C81_9 1_555 1_555
H98_9 C82_9 1_555 1_555
H99_9 C82_9 1_555 1_555
H100_9 C82_9 1_555 1_555
C79_9 C80_9 1_555 1_555

#END
