
###############################################################################
#
# This file contains modified crystal structure data generated from the
# MOF subset of the Cambridge Structural Database (CSD) v543 
# hosted by the Cambridge Crystallographic Data Centre (CCDC).
#
# This work is licensed under the Creative Commons
# Attribution-NonCommercial-ShareAlike 4.0 International License.
# To view a copy of this license, visit
# http://creativecommons.org/licenses/by-nc-sa/4.0/
# or send a letter to
# Creative Commons, PO Box 1866, Mountain View, CA 94042, USA.
#
# CIF created using the CSD Python API on 29 September 2022
# The structure has been converted into the P1 space group
# The structure has a 3D framework
# The original CSD entry CIZLUU is in the orthorhombic crystal system
# The framework has been calculated to contain at least 10.0% void space
# The void calculation uses a probe of radius 1.32A, grid spacing 0.4
#
###############################################################################

data_CIZLUU
_chemical_formula_moiety         '(C240 H152 N48 O56 Zn12)n'
_symmetry_cell_setting           triclinic
_symmetry_space_group_name_H-M   'P 1'
_symmetry_Int_Tables_number      1
_space_group_name_Hall           'P 1'
loop_
_symmetry_equiv_pos_site_id
_symmetry_equiv_pos_as_xyz
1 x,y,z
_cell_length_a                   10.1513(15)
_cell_length_b                   32.003(6)
_cell_length_c                   18.417(4)
_cell_angle_alpha                90
_cell_angle_beta                 90
_cell_angle_gamma                90
_cell_volume                     5983.17
loop_
_atom_site_label
_atom_site_type_symbol
_atom_site_fract_x
_atom_site_fract_y
_atom_site_fract_z
C26 C 0.0100(10) 0.1177(3) 0.2668(5)
H15 H 0.0682 0.1334 0.2389
Zn1 Zn 0.14365(10) 0.03703(3) 0.22826(6)
N1 N 0.0212(8) 0.0759(2) 0.2820(4)
O15 O 0.3325(7) 0.0526(3) 0.2210(4)
N13 N 0.0370(8) 0.0325(3) 0.1333(4)
C2 C 0.1014(11) 0.9664(4) 0.3166(6)
C4 C 0.0943(9) 0.9202(3) 0.3311(5)
C5 C 0.2102(9) 0.9001(3) 0.3446(5)
H1 H 0.2878 0.9155 0.3435
C6 C 0.2173(11) 0.8590(4) 0.3594(6)
C7 C 0.1042(14) 0.8370(4) 0.3628(6)
H2 H 0.1081 0.8087 0.3744
C9 C 0.3638(11) 0.8129(4) 0.4236(7)
C10 C 0.3016(13) 0.8163(4) 0.4899(7)
H4 H 0.2329 0.8351 0.4962
C11 C 0.3417(15) 0.7917(4) 0.5459(7)
H5 H 0.2962 0.7928 0.5897
C12 C 0.4422(17) 0.7666(4) 0.5399(8)
H6 H 0.4701 0.7511 0.5798
C13 C 0.5103(15) 0.7627(5) 0.4712(10)
H7 H 0.5825 0.7451 0.4654
C14 C 0.4629(14) 0.7863(4) 0.4155(9)
C15 C 0.5324(16) 0.7762(4) 0.3384(10)
O3 O 0.1431(7) 0.9782(2) 0.2569(5)
O4 O 0.0649(9) 0.9894(2) 0.3668(5)
O5 O 0.3405(9) 0.8402(3) 0.3684(5)
O6 O 0.473(2) 0.7727(4) 0.2810(7)
O7 O 0.6449(15) 0.7709(5) 0.3417(8)
Zn9 Zn 0.7500 0.7500 0.26779(11)
C16 C 0.4635(10) 0.0615(3) 0.5822(5)
H8 H 0.4073 0.0844 0.5803
C17 C 0.5655(10) 0.0046(3) 0.6184(5)
C18 C 0.6230(11) 0.0179(3) 0.5557(6)
H10 H 0.6941 0.0052 0.5327
C19 C 0.5845(11) 0.0771(3) 0.4693(5)
C20 C 0.7048(9) 0.0761(3) 0.4350(5)
H11 H 0.7733 0.0598 0.4530
C21 C 0.7212(9) 0.0997(3) 0.3740(5)
C22 C 0.6196(9) 0.1253(3) 0.3454(5)
H12 H 0.6319 0.1407 0.3030
C23 C 0.5048(9) 0.1265(3) 0.3816(5)
C24 C 0.4807(9) 0.1024(3) 0.4432(5)
H13 H 0.3992 0.1030 0.4662
C25 C 0.9184(9) 0.0670(3) 0.3226(5)
H14 H 0.9012 0.0405 0.3413
C27 C 0.9006(11) 0.1320(3) 0.2990(6)
H16 H 0.8695 0.1593 0.2979
C28 C 0.4129(10) 0.1856(4) 0.3115(6)
H17 H 0.4920 0.1931 0.2895
C29 C 0.2189(11) 0.1838(4) 0.3407(9)
H18 H 0.1296 0.1903 0.3428
C30 C 0.2718(11) 0.1535(4) 0.3765(9)
H19 H 0.2306 0.1353 0.4086
Zn2 Zn 0.2500 0.2500 0.23221(11)
N2 N 0.8434(7) 0.0992(3) 0.3336(4)
N3 N 0.3044(9) 0.2047(3) 0.3007(5)
N4 N 0.4005(8) 0.1541(3) 0.3571(5)
N5 N 0.5591(7) 0.0526(2) 0.5327(4)
N6 N 0.4630(8) 0.0325(3) 0.6333(4)
C46 C 0.0365(10) 0.4385(3) 0.5822(5)
H27 H 0.0927 0.4156 0.5803
C54 C 0.0193(9) 0.3976(3) 0.4432(5)
H32 H 0.1008 0.3970 0.4662
C58 C 0.0871(10) 0.3144(4) 0.3115(6)
H36 H 0.0080 0.3069 0.2895
C59 C 0.2811(11) 0.3162(4) 0.3407(9)
H37 H 0.3704 0.3097 0.3428
C60 C 0.2282(11) 0.3465(4) 0.3765(9)
H38 H 0.2694 0.3647 0.4086
N9 N 0.1956(9) 0.2953(3) 0.3007(5)
N10 N 0.0995(8) 0.3459(3) 0.3571(5)
N12 N 0.0370(8) 0.4675(3) 0.6333(4)
O17 O 0.1449(15) 0.2291(5) 0.1583(8)
O18 O 0.3551(15) 0.2709(5) 0.1583(8)
Zn6 Zn 0.35635(10) 0.03703(3) 0.72826(6)
Zn7 Zn 0.14365(10) 0.46297(3) 0.72826(6)
C1 C 0.8448(11) 0.9141(5) 0.3146(6)
C3 C 0.9784(10) 0.8978(3) 0.3313(5)
C8 C 0.9855(13) 0.8545(4) 0.3499(6)
H3 H 0.9091 0.8386 0.3532
H9 H 0.5897 0.9814 0.6459
O1 O 0.8325(7) 0.9474(3) 0.2790(4)
O2 O 0.7487(8) 0.8953(3) 0.3348(5)
Zn4 Zn 0.64365(10) 0.96297(3) 0.27174(6)
C31 C 0.6552(11) 0.5859(5) 0.3146(6)
C32 C 0.3986(11) 0.5336(4) 0.3166(6)
C33 C 0.5216(10) 0.6022(3) 0.3313(5)
C34 C 0.4057(9) 0.5798(3) 0.3311(5)
C35 C 0.2898(9) 0.5999(3) 0.3446(5)
H20 H 0.2122 0.5845 0.3435
C36 C 0.2827(11) 0.6410(4) 0.3594(6)
C37 C 0.3958(14) 0.6630(4) 0.3628(6)
H21 H 0.3919 0.6913 0.3744
C38 C 0.5145(13) 0.6455(4) 0.3499(6)
H22 H 0.5909 0.6614 0.3532
C39 C 0.1362(11) 0.6871(4) 0.4236(7)
C40 C 0.1984(13) 0.6837(4) 0.4899(7)
H23 H 0.2671 0.6649 0.4962
C41 C 0.1583(15) 0.7083(4) 0.5459(7)
H24 H 0.2038 0.7072 0.5897
C42 C 0.0578(17) 0.7334(4) 0.5399(8)
H25 H 0.0299 0.7489 0.5798
C44 C 0.0371(14) 0.7137(4) 0.4155(9)
C47 C 0.9345(10) 0.4954(3) 0.6184(5)
H28 H 0.9103 0.5186 0.6459
C48 C 0.8770(11) 0.4821(3) 0.5557(6)
H29 H 0.8059 0.4948 0.5327
C49 C 0.9155(11) 0.4229(3) 0.4693(5)
C50 C 0.7952(9) 0.4239(3) 0.4350(5)
H30 H 0.7267 0.4402 0.4530
C51 C 0.7788(9) 0.4003(3) 0.3740(5)
C52 C 0.8804(9) 0.3747(3) 0.3454(5)
H31 H 0.8681 0.3593 0.3030
C53 C 0.9952(9) 0.3735(3) 0.3816(5)
C55 C 0.5816(9) 0.4330(3) 0.3226(5)
H33 H 0.5988 0.4595 0.3413
C56 C 0.4900(10) 0.3823(3) 0.2668(5)
H34 H 0.4318 0.3666 0.2389
C57 C 0.5994(11) 0.3680(3) 0.2990(6)
H35 H 0.6305 0.3407 0.2979
O8 O 0.6675(7) 0.5526(3) 0.2790(4)
O9 O 0.7513(8) 0.6047(3) 0.3348(5)
O10 O 0.3569(7) 0.5218(2) 0.2569(5)
O11 O 0.4351(9) 0.5106(2) 0.3668(5)
O12 O 0.1595(9) 0.6598(3) 0.3684(5)
O13 O 0.027(2) 0.7273(4) 0.2810(7)
Zn3 Zn 0.35635(10) 0.46297(3) 0.22826(6)
N7 N 0.4788(8) 0.4241(2) 0.2820(4)
N8 N 0.6566(7) 0.4008(3) 0.3336(4)
N11 N 0.9409(7) 0.4474(2) 0.5327(4)
O16 O 0.1675(7) 0.4474(3) 0.2210(4)
Zn5 Zn 0.85635(10) 0.53703(3) 0.27174(6)
N14 N 0.4630(8) 0.4675(3) 0.1333(4)
C43 C 0.9897(15) 0.7373(5) 0.4712(10)
H26 H 0.9175 0.7549 0.4654
C45 C 0.9676(16) 0.7238(4) 0.3384(10)
O14 O 0.8551(15) 0.7291(5) 0.3417(8)
C13_2 C 0.0103(15) 0.2373(5) 0.0288(10)
H7_2 H 0.0825 0.2549 0.0346
C15_2 C 0.0324(16) 0.2238(4) 0.1616(10)
C1_2 C 0.3448(11) 0.0859(5) 0.1854(6)
C2_2 C 0.6014(11) 0.0336(4) 0.1834(6)
C3_2 C 0.4784(10) 0.1022(3) 0.1687(5)
C4_2 C 0.5943(9) 0.0798(3) 0.1689(5)
C5_2 C 0.7102(9) 0.0999(3) 0.1554(5)
H1_2 H 0.7878 0.0845 0.1565
C6_2 C 0.7173(11) 0.1410(4) 0.1406(6)
C7_2 C 0.6042(14) 0.1630(4) 0.1372(6)
H2_2 H 0.6081 0.1913 0.1256
C8_2 C 0.4855(13) 0.1455(4) 0.1501(6)
H3_2 H 0.4091 0.1614 0.1468
C9_2 C 0.8638(11) 0.1871(4) 0.0764(7)
C10_2 C 0.8016(13) 0.1837(4) 0.0101(7)
H4_2 H 0.7329 0.1649 0.0038
C14_2 C 0.9629(14) 0.2137(4) 0.0845(9)
O2_2 O 0.2487(8) 0.1047(3) 0.1652(5)
O3_2 O 0.6431(7) 0.0218(2) 0.2431(5)
O4_2 O 0.5649(9) 0.0106(2) 0.1332(5)
O5_2 O 0.8405(9) 0.1598(3) 0.1316(5)
O6_2 O 0.973(2) 0.2273(4) 0.2190(7)
C19_2 C 0.0845(11) 0.9229(3) 0.0307(5)
C20_2 C 0.2048(9) 0.9239(3) 0.0650(5)
H11_2 H 0.2733 0.9402 0.0470
C21_2 C 0.2212(9) 0.9003(3) 0.1260(5)
C22_2 C 0.1196(9) 0.8747(3) 0.1546(5)
H12_2 H 0.1319 0.8593 0.1970
C23_2 C 0.0048(9) 0.8735(3) 0.1184(5)
C25_2 C 0.4184(9) 0.9330(3) 0.1774(5)
H14_2 H 0.4012 0.9595 0.1587
C26_2 C 0.5100(10) 0.8823(3) 0.2332(5)
H15_2 H 0.5682 0.8666 0.2611
C27_2 C 0.4006(11) 0.8680(3) 0.2010(6)
H16_2 H 0.3695 0.8407 0.2021
N1_2 N 0.5212(8) 0.9241(2) 0.2180(4)
N2_2 N 0.3434(7) 0.9008(3) 0.1664(4)
N13_2 N 0.5370(8) 0.9675(3) 0.3667(4)
C24_2 C 0.9807(9) 0.8976(3) 0.0568(5)
H13_2 H 0.8992 0.8970 0.0338
C28_2 C 0.9129(10) 0.8144(4) 0.1885(6)
H17_2 H 0.9920 0.8069 0.2105
C29_2 C 0.7189(11) 0.8162(4) 0.1593(9)
H18_2 H 0.6296 0.8097 0.1572
C30_2 C 0.7718(11) 0.8465(4) 0.1235(9)
H19_2 H 0.7306 0.8647 0.0914
N3_2 N 0.8044(9) 0.7953(3) 0.1993(5)
N4_2 N 0.9005(8) 0.8459(3) 0.1429(5)
C31_2 C 0.1552(11) 0.4141(5) 0.1854(6)
C33_2 C 0.0216(10) 0.3978(3) 0.1687(5)
C38_2 C 0.0145(13) 0.3545(4) 0.1501(6)
H22_2 H 0.0909 0.3386 0.1468
C49_2 C 0.4155(11) 0.5771(3) 0.0307(5)
C50_2 C 0.2952(9) 0.5761(3) 0.0650(5)
H30_2 H 0.2267 0.5598 0.0470
C51_2 C 0.2788(9) 0.5997(3) 0.1260(5)
C52_2 C 0.3804(9) 0.6253(3) 0.1546(5)
H31_2 H 0.3681 0.6407 0.1970
C53_2 C 0.4952(9) 0.6265(3) 0.1184(5)
C54_2 C 0.5193(9) 0.6024(3) 0.0568(5)
H32_2 H 0.6008 0.6030 0.0338
C55_2 C 0.0816(9) 0.5670(3) 0.1774(5)
H33_2 H 0.0988 0.5405 0.1587
C57_2 C 0.0994(11) 0.6320(3) 0.2010(6)
H35_2 H 0.1305 0.6593 0.2021
C58_2 C 0.5871(10) 0.6856(4) 0.1885(6)
H36_2 H 0.5080 0.6931 0.2105
C59_2 C 0.7811(11) 0.6838(4) 0.1593(9)
H37_2 H 0.8704 0.6903 0.1572
C60_2 C 0.7282(11) 0.6535(4) 0.1235(9)
H38_2 H 0.7694 0.6353 0.0914
O9_2 O 0.2513(8) 0.3953(3) 0.1652(5)
N8_2 N 0.1566(7) 0.5992(3) 0.1664(4)
N9_2 N 0.6956(9) 0.7047(3) 0.1993(5)
N10_2 N 0.5995(8) 0.6541(3) 0.1429(5)
C16_2 C 0.9635(10) 0.9385(3) 0.9178(5)
H8_2 H 0.9073 0.9156 0.9197
N6_2 N 0.9630(8) 0.9675(3) 0.8667(4)
C46_2 C 0.5365(10) 0.5615(3) 0.9178(5)
H27_2 H 0.5927 0.5844 0.9197
C47_2 C 0.4345(10) 0.5046(3) 0.8816(5)
H28_2 H 0.4103 0.4814 0.8541
C48_2 C 0.3770(11) 0.5179(3) 0.9443(6)
H29_2 H 0.3059 0.5052 0.9673
N11_2 N 0.4409(7) 0.5526(2) 0.9673(4)
N12_2 N 0.5370(8) 0.5325(3) 0.8667(4)
Zn6_2 Zn 0.85635(10) 0.96297(3) 0.77174(6)
Zn7_2 Zn 0.64365(10) 0.53703(3) 0.77174(6)
C32_2 C 0.8986(11) 0.4664(4) 0.1834(6)
C34_2 C 0.9057(9) 0.4202(3) 0.1689(5)
C35_2 C 0.7898(9) 0.4001(3) 0.1554(5)
H20_2 H 0.7122 0.4155 0.1565
C36_2 C 0.7827(11) 0.3590(4) 0.1406(6)
C37_2 C 0.8958(14) 0.3370(4) 0.1372(6)
H21_2 H 0.8919 0.3087 0.1256
C39_2 C 0.6362(11) 0.3129(4) 0.0764(7)
C40_2 C 0.6984(13) 0.3163(4) 0.0101(7)
H23_2 H 0.7671 0.3351 0.0038
C43_2 C 0.4897(15) 0.2627(5) 0.0288(10)
H26_2 H 0.4175 0.2451 0.0346
C44_2 C 0.5371(14) 0.2863(4) 0.0845(9)
C45_2 C 0.4676(16) 0.2762(4) 0.1616(10)
C56_2 C 0.9900(10) 0.6177(3) 0.2332(5)
H34_2 H 0.9318 0.6334 0.2611
O10_2 O 0.8569(7) 0.4782(2) 0.2431(5)
O11_2 O 0.9351(9) 0.4894(2) 0.1332(5)
O12_2 O 0.6595(9) 0.3402(3) 0.1316(5)
O13_2 O 0.527(2) 0.2727(4) 0.2190(7)
N7_2 N 0.9788(8) 0.5759(2) 0.2180(4)
N14_2 N 0.9630(8) 0.5325(3) 0.3667(4)
C43_3 C 0.0103(15) 0.2627(5) 0.5288(10)
H26_3 H 0.0825 0.2451 0.5346
C45_3 C 0.0324(16) 0.2762(4) 0.6616(10)
O14_2 O 0.1449(15) 0.2709(5) 0.6583(8)
Zn8 Zn 0.2500 0.2500 0.73221(11)
C31_3 C 0.3448(11) 0.4141(5) 0.6854(6)
C32_3 C 0.6014(11) 0.4664(4) 0.6834(6)
C33_3 C 0.4784(10) 0.3978(3) 0.6687(5)
C34_3 C 0.5943(9) 0.4202(3) 0.6689(5)
C35_3 C 0.7102(9) 0.4001(3) 0.6554(5)
H20_3 H 0.7878 0.4155 0.6565
C36_3 C 0.7173(11) 0.3590(4) 0.6406(6)
C37_3 C 0.6042(14) 0.3370(4) 0.6372(6)
H21_3 H 0.6081 0.3087 0.6256
C38_3 C 0.4855(13) 0.3545(4) 0.6501(6)
H22_3 H 0.4091 0.3386 0.6468
C39_3 C 0.8638(11) 0.3129(4) 0.5764(7)
C40_3 C 0.8016(13) 0.3163(4) 0.5101(7)
H23_3 H 0.7329 0.3351 0.5038
C41_2 C 0.8417(15) 0.2917(4) 0.4541(7)
H24_2 H 0.7962 0.2928 0.4103
C42_2 C 0.9422(17) 0.2666(4) 0.4601(8)
H25_2 H 0.9701 0.2511 0.4202
C44_3 C 0.9629(14) 0.2863(4) 0.5845(9)
C47_3 C 0.0655(10) 0.5046(3) 0.3816(5)
H28_3 H 0.0897 0.4814 0.3541
C48_3 C 0.1230(11) 0.5179(3) 0.4443(6)
H29_3 H 0.1941 0.5052 0.4673
C49_3 C 0.0845(11) 0.5771(3) 0.5307(5)
C50_3 C 0.2048(9) 0.5761(3) 0.5650(5)
H30_3 H 0.2733 0.5598 0.5470
C51_3 C 0.2212(9) 0.5997(3) 0.6260(5)
C52_3 C 0.1196(9) 0.6253(3) 0.6546(5)
H31_3 H 0.1319 0.6407 0.6970
C53_3 C 0.0048(9) 0.6265(3) 0.6184(5)
C55_3 C 0.4184(9) 0.5670(3) 0.6774(5)
H33_3 H 0.4012 0.5405 0.6587
C56_3 C 0.5100(10) 0.6177(3) 0.7332(5)
H34_3 H 0.5682 0.6334 0.7611
C57_3 C 0.4006(11) 0.6320(3) 0.7010(6)
H35_3 H 0.3695 0.6593 0.7021
O8_2 O 0.3325(7) 0.4474(3) 0.7210(4)
O9_3 O 0.2487(8) 0.3953(3) 0.6652(5)
O10_3 O 0.6431(7) 0.4782(2) 0.7431(5)
O11_3 O 0.5649(9) 0.4894(2) 0.6332(5)
O12_3 O 0.8405(9) 0.3402(3) 0.6316(5)
O13_3 O 0.973(2) 0.2727(4) 0.7190(7)
N7_3 N 0.5212(8) 0.5759(2) 0.7180(4)
N8_3 N 0.3434(7) 0.5992(3) 0.6664(4)
N11_3 N 0.0591(7) 0.5526(2) 0.4673(4)
O16_2 O 0.8325(7) 0.5526(3) 0.7790(4)
C1_3 C 0.1552(11) 0.0859(5) 0.6854(6)
C3_3 C 0.0216(10) 0.1022(3) 0.6687(5)
C8_3 C 0.0145(13) 0.1455(4) 0.6501(6)
H3_3 H 0.0909 0.1614 0.6468
H9_2 H 0.4103 0.0186 0.3541
O1_2 O 0.1675(7) 0.0526(3) 0.7210(4)
O2_3 O 0.2513(8) 0.1047(3) 0.6652(5)
C16_3 C 0.5365(10) 0.9385(3) 0.4178(5)
H8_3 H 0.5927 0.9156 0.4197
C17_2 C 0.4345(10) 0.9954(3) 0.3816(5)
C18_2 C 0.3770(11) 0.9821(3) 0.4443(6)
H10_2 H 0.3059 0.9948 0.4673
C19_3 C 0.4155(11) 0.9229(3) 0.5307(5)
C20_3 C 0.2952(9) 0.9239(3) 0.5650(5)
H11_3 H 0.2267 0.9402 0.5470
C21_3 C 0.2788(9) 0.9003(3) 0.6260(5)
C22_3 C 0.3804(9) 0.8747(3) 0.6546(5)
H12_3 H 0.3681 0.8593 0.6970
C23_3 C 0.4952(9) 0.8735(3) 0.6184(5)
C24_3 C 0.5193(9) 0.8976(3) 0.5568(5)
H13_3 H 0.6008 0.8970 0.5338
C25_3 C 0.0816(9) 0.9330(3) 0.6774(5)
H14_3 H 0.0988 0.9595 0.6587
C27_3 C 0.0994(11) 0.8680(3) 0.7010(6)
H16_3 H 0.1305 0.8407 0.7021
C28_3 C 0.5871(10) 0.8144(4) 0.6885(6)
H17_3 H 0.5080 0.8069 0.7105
C29_3 C 0.7811(11) 0.8162(4) 0.6593(9)
H18_3 H 0.8704 0.8097 0.6572
C30_3 C 0.7282(11) 0.8465(4) 0.6235(9)
H19_3 H 0.7694 0.8647 0.5914
Zn2_2 Zn 0.7500 0.7500 0.76779(11)
N2_3 N 0.1566(7) 0.9008(3) 0.6664(4)
N3_3 N 0.6956(9) 0.7953(3) 0.6993(5)
N4_3 N 0.5995(8) 0.8459(3) 0.6429(5)
N5_2 N 0.4409(7) 0.9474(2) 0.4673(4)
C46_3 C 0.9635(10) 0.5615(3) 0.4178(5)
H27_3 H 0.9073 0.5844 0.4197
C54_3 C 0.9807(9) 0.6024(3) 0.5568(5)
H32_3 H 0.8992 0.6030 0.5338
C58_3 C 0.9129(10) 0.6856(4) 0.6885(6)
H36_3 H 0.9920 0.6931 0.7105
C59_3 C 0.7189(11) 0.6838(4) 0.6593(9)
H37_3 H 0.6296 0.6903 0.6572
C60_3 C 0.7718(11) 0.6535(4) 0.6235(9)
H38_3 H 0.7306 0.6353 0.5914
N9_3 N 0.8044(9) 0.7047(3) 0.6993(5)
N10_3 N 0.9005(8) 0.6541(3) 0.6429(5)
O17_2 O 0.8551(15) 0.7709(5) 0.8417(8)
O18_2 O 0.6449(15) 0.7291(5) 0.8417(8)
C2_3 C 0.8986(11) 0.0336(4) 0.6834(6)
C4_3 C 0.9057(9) 0.0798(3) 0.6689(5)
C5_3 C 0.7898(9) 0.0999(3) 0.6554(5)
H1_3 H 0.7122 0.0845 0.6565
C6_3 C 0.7827(11) 0.1410(4) 0.6406(6)
C7_3 C 0.8958(14) 0.1630(4) 0.6372(6)
H2_3 H 0.8919 0.1913 0.6256
C9_3 C 0.6362(11) 0.1871(4) 0.5764(7)
C10_3 C 0.6984(13) 0.1837(4) 0.5101(7)
H4_3 H 0.7671 0.1649 0.5038
C11_2 C 0.6583(15) 0.2083(4) 0.4541(7)
H5_2 H 0.7038 0.2072 0.4103
C12_2 C 0.5578(17) 0.2334(4) 0.4601(8)
H6_2 H 0.5299 0.2489 0.4202
C13_3 C 0.4897(15) 0.2373(5) 0.5288(10)
H7_3 H 0.4175 0.2549 0.5346
C14_3 C 0.5371(14) 0.2137(4) 0.5845(9)
C15_3 C 0.4676(16) 0.2238(4) 0.6616(10)
O3_3 O 0.8569(7) 0.0218(2) 0.7431(5)
O4_3 O 0.9351(9) 0.0106(2) 0.6332(5)
O5_3 O 0.6595(9) 0.1598(3) 0.6316(5)
O6_3 O 0.527(2) 0.2273(4) 0.7190(7)
O7_2 O 0.3551(15) 0.2291(5) 0.6583(8)
C26_3 C 0.9900(10) 0.8823(3) 0.7332(5)
H15_3 H 0.9318 0.8666 0.7611
N1_3 N 0.9788(8) 0.9241(2) 0.7180(4)
O15_2 O 0.6675(7) 0.9474(3) 0.7790(4)
C32_4 C 0.1014(11) 0.5336(4) 0.8166(6)
C34_4 C 0.0943(9) 0.5798(3) 0.8311(5)
C35_4 C 0.2102(9) 0.5999(3) 0.8446(5)
H20_4 H 0.2878 0.5845 0.8435
C36_4 C 0.2173(11) 0.6410(4) 0.8594(6)
C37_4 C 0.1042(14) 0.6630(4) 0.8628(6)
H21_4 H 0.1081 0.6913 0.8744
C39_4 C 0.3638(11) 0.6871(4) 0.9236(7)
C40_4 C 0.3016(13) 0.6837(4) 0.9899(7)
H23_4 H 0.2329 0.6649 0.9962
C43_4 C 0.5103(15) 0.7373(5) 0.9712(10)
H26_4 H 0.5825 0.7549 0.9654
C44_4 C 0.4629(14) 0.7137(4) 0.9155(9)
C45_4 C 0.5324(16) 0.7238(4) 0.8384(10)
C56_4 C 0.0100(10) 0.3823(3) 0.7668(5)
H34_4 H 0.0682 0.3666 0.7389
O10_4 O 0.1431(7) 0.5218(2) 0.7569(5)
O11_4 O 0.0649(9) 0.5106(2) 0.8668(5)
O12_4 O 0.3405(9) 0.6598(3) 0.8684(5)
O13_4 O 0.473(2) 0.7273(4) 0.7810(7)
N7_4 N 0.0212(8) 0.4241(2) 0.7820(4)
C16_4 C 0.0365(10) 0.0615(3) 0.0822(5)
H8_4 H 0.0927 0.0844 0.0803
C46_4 C 0.4635(10) 0.4385(3) 0.0822(5)
H27_4 H 0.4073 0.4156 0.0803
C47_4 C 0.5655(10) 0.4954(3) 0.1184(5)
H28_4 H 0.5897 0.5186 0.1459
C48_4 C 0.6230(11) 0.4821(3) 0.0557(6)
H29_4 H 0.6941 0.4948 0.0327
N11_4 N 0.5591(7) 0.4474(2) 0.0327(4)
C24_4 C 0.0193(9) 0.1024(3) 0.9432(5)
H13_4 H 0.1008 0.1030 0.9662
C28_4 C 0.0871(10) 0.1856(4) 0.8115(6)
H17_4 H 0.0080 0.1931 0.7895
C29_4 C 0.2811(11) 0.1838(4) 0.8407(9)
H18_4 H 0.3704 0.1903 0.8428
C30_4 C 0.2282(11) 0.1535(4) 0.8765(9)
H19_4 H 0.2694 0.1353 0.9086
N3_4 N 0.1956(9) 0.2047(3) 0.8007(5)
N4_4 N 0.0995(8) 0.1541(3) 0.8571(5)
C31_4 C 0.8448(11) 0.5859(5) 0.8146(6)
C33_4 C 0.9784(10) 0.6022(3) 0.8313(5)
C38_4 C 0.9855(13) 0.6455(4) 0.8499(6)
H22_4 H 0.9091 0.6614 0.8532
C49_4 C 0.5845(11) 0.4229(3) 0.9693(5)
C50_4 C 0.7048(9) 0.4239(3) 0.9350(5)
H30_4 H 0.7733 0.4402 0.9530
C51_4 C 0.7212(9) 0.4003(3) 0.8740(5)
C52_4 C 0.6196(9) 0.3747(3) 0.8454(5)
H31_4 H 0.6319 0.3593 0.8030
C53_4 C 0.5048(9) 0.3735(3) 0.8816(5)
C54_4 C 0.4807(9) 0.3976(3) 0.9432(5)
H32_4 H 0.3992 0.3970 0.9662
C55_4 C 0.9184(9) 0.4330(3) 0.8226(5)
H33_4 H 0.9012 0.4595 0.8413
C57_4 C 0.9006(11) 0.3680(3) 0.7990(6)
H35_4 H 0.8695 0.3407 0.7979
C58_4 C 0.4129(10) 0.3144(4) 0.8115(6)
H36_4 H 0.4920 0.3069 0.7895
C59_4 C 0.2189(11) 0.3162(4) 0.8407(9)
H37_4 H 0.1296 0.3097 0.8428
C60_4 C 0.2718(11) 0.3465(4) 0.8765(9)
H38_4 H 0.2306 0.3647 0.9086
O9_4 O 0.7487(8) 0.6047(3) 0.8348(5)
N8_4 N 0.8434(7) 0.4008(3) 0.8336(4)
N9_4 N 0.3044(9) 0.2953(3) 0.8007(5)
N10_4 N 0.4005(8) 0.3459(3) 0.8571(5)
C19_4 C 0.9155(11) 0.0771(3) 0.9693(5)
C20_4 C 0.7952(9) 0.0761(3) 0.9350(5)
H11_4 H 0.7267 0.0598 0.9530
C21_4 C 0.7788(9) 0.0997(3) 0.8740(5)
C22_4 C 0.8804(9) 0.1253(3) 0.8454(5)
H12_4 H 0.8681 0.1407 0.8030
C23_4 C 0.9952(9) 0.1265(3) 0.8816(5)
C25_4 C 0.5816(9) 0.0670(3) 0.8226(5)
H14_4 H 0.5988 0.0405 0.8413
C26_4 C 0.4900(10) 0.1177(3) 0.7668(5)
H15_4 H 0.4318 0.1334 0.7389
C27_4 C 0.5994(11) 0.1320(3) 0.7990(6)
H16_4 H 0.6305 0.1593 0.7979
N1_4 N 0.4788(8) 0.0759(2) 0.7820(4)
N2_4 N 0.6566(7) 0.0992(3) 0.8336(4)
C1_4 C 0.6552(11) 0.9141(5) 0.8146(6)
C2_4 C 0.3986(11) 0.9664(4) 0.8166(6)
C3_4 C 0.5216(10) 0.8978(3) 0.8313(5)
C4_4 C 0.4057(9) 0.9202(3) 0.8311(5)
C5_4 C 0.2898(9) 0.9001(3) 0.8446(5)
H1_4 H 0.2122 0.9155 0.8435
C6_4 C 0.2827(11) 0.8590(4) 0.8594(6)
C7_4 C 0.3958(14) 0.8370(4) 0.8628(6)
H2_4 H 0.3919 0.8087 0.8744
C8_4 C 0.5145(13) 0.8545(4) 0.8499(6)
H3_4 H 0.5909 0.8386 0.8532
C9_4 C 0.1362(11) 0.8129(4) 0.9236(7)
C10_4 C 0.1984(13) 0.8163(4) 0.9899(7)
H4_4 H 0.2671 0.8351 0.9962
C14_4 C 0.0371(14) 0.7863(4) 0.9155(9)
O2_4 O 0.7513(8) 0.8953(3) 0.8348(5)
O3_4 O 0.3569(7) 0.9782(2) 0.7569(5)
O4_4 O 0.4351(9) 0.9894(2) 0.8668(5)
O5_4 O 0.1595(9) 0.8402(3) 0.8684(5)
O6_4 O 0.027(2) 0.7727(4) 0.7810(7)
C13_4 C 0.9897(15) 0.7627(5) 0.9712(10)
H7_4 H 0.9175 0.7451 0.9654
C15_4 C 0.9676(16) 0.7762(4) 0.8384(10)
C11_3 C 0.8417(15) 0.2083(4) 0.9541(7)
H5_3 H 0.7962 0.2072 0.9103
C12_3 C 0.9422(17) 0.2334(4) 0.9601(8)
H6_3 H 0.9701 0.2489 0.9202
H9_3 H 0.0897 0.0186 0.8541
C17_3 C 0.0655(10) 0.9954(3) 0.8816(5)
C18_3 C 0.1230(11) 0.9821(3) 0.9443(6)
H10_3 H 0.1941 0.9948 0.9673
N5_3 N 0.0591(7) 0.9474(2) 0.9673(4)
C41_3 C 0.6583(15) 0.2917(4) 0.9541(7)
H24_3 H 0.7038 0.2928 0.9103
C42_3 C 0.5578(17) 0.2666(4) 0.9601(8)
H25_3 H 0.5299 0.2511 0.9202
C41_4 C 0.3417(15) 0.7083(4) 0.0459(7)
H24_4 H 0.2962 0.7072 0.0897
C42_4 C 0.4422(17) 0.7334(4) 0.0399(8)
H25_4 H 0.4701 0.7489 0.0798
C17_4 C 0.9345(10) 0.0046(3) 0.1184(5)
C18_4 C 0.8770(11) 0.0179(3) 0.0557(6)
H10_4 H 0.8059 0.0052 0.0327
N5_4 N 0.9409(7) 0.0526(2) 0.0327(4)
C11_4 C 0.1583(15) 0.7917(4) 0.0459(7)
H5_4 H 0.2038 0.7928 0.0897
C12_4 C 0.0578(17) 0.7666(4) 0.0399(8)
H6_4 H 0.0299 0.7511 0.0798
H9_4 H 0.9103 0.9814 0.1459
loop_
_geom_bond_atom_site_label_1
_geom_bond_atom_site_label_2
_geom_bond_site_symmetry_1
_geom_bond_site_symmetry_2
C26 H15 1_555 1_555
O15 Zn1 1_555 1_555
N13 Zn1 1_555 1_555
C26 N1 1_555 1_555
Zn1 N1 1_555 1_555
C2 C4 1_555 1_555
C4 C5 1_555 1_555
C5 H1 1_555 1_555
C6 C5 1_555 1_555
C7 C6 1_555 1_555
H2 C7 1_555 1_555
C9 C10 1_555 1_555
C10 H4 1_555 1_555
C11 C10 1_555 1_555
H5 C11 1_555 1_555
C12 C11 1_555 1_555
H6 C12 1_555 1_555
C13 C12 1_555 1_555
H7 C13 1_555 1_555
C14 C9 1_555 1_555
C15 C14 1_555 1_555
O3 C2 1_555 1_555
O4 C2 1_555 1_555
O5 C6 1_555 1_555
O6 C15 1_555 1_555
O7 C15 1_555 1_555
Zn9 O7 1_555 1_555
C9 O5 1_555 1_555
C13 C14 1_555 1_555
C16 H8 1_555 1_555
C18 C17 1_555 1_555
H10 C18 1_555 1_555
C19 C20 1_555 1_555
C20 H11 1_555 1_555
C21 C20 1_555 1_555
C22 C21 1_555 1_555
H12 C22 1_555 1_555
C23 C22 1_555 1_555
C24 C19 1_555 1_555
H13 C24 1_555 1_555
C25 H14 1_555 1_555
H16 C27 1_555 1_555
C28 H17 1_555 1_555
C29 H18 1_555 1_555
C30 C29 1_555 1_555
H19 C30 1_555 1_555
Zn2 N3 1_555 1_555
N2 C21 1_555 1_555
N3 C28 1_555 1_555
N4 C23 1_555 1_555
N5 C16 1_555 1_555
N6 C16 1_555 1_555
C46 H27 1_555 1_555
H32 C54 1_555 1_555
C58 H36 1_555 1_555
C59 H37 1_555 1_555
C60 C59 1_555 1_555
H38 C60 1_555 1_555
N9 Zn2 1_555 1_555
N12 C46 1_555 1_555
O17 Zn2 1_555 1_555
O18 Zn2 1_555 1_555
Zn6 N6 1_555 1_555
Zn7 N12 1_555 1_555
C17 N6 1_555 1_555
C18 N5 1_555 1_555
C19 N5 1_555 1_555
C23 C24 1_555 1_555
C25 N2 1_555 1_555
C27 N2 1_555 1_555
C28 N4 1_555 1_555
C29 N3 1_555 1_555
C30 N4 1_555 1_555
C58 N9 1_555 1_555
C58 N10 1_555 1_555
C59 N9 1_555 1_555
C60 N10 1_555 1_555
C1 C3 1_555 1_555
C8 C3 1_555 1_555
H3 C8 1_555 1_555
O1 C1 1_555 1_555
O2 C1 1_555 1_555
Zn4 O1 1_555 1_555
C31 C33 1_555 1_555
C32 C34 1_555 1_555
C33 C34 1_555 1_555
C34 C35 1_555 1_555
C35 H20 1_555 1_555
C36 C35 1_555 1_555
C37 C36 1_555 1_555
H21 C37 1_555 1_555
C38 C33 1_555 1_555
H22 C38 1_555 1_555
C39 C40 1_555 1_555
C40 H23 1_555 1_555
C41 C40 1_555 1_555
H24 C41 1_555 1_555
C42 C41 1_555 1_555
H25 C42 1_555 1_555
C44 C39 1_555 1_555
C47 H28 1_555 1_555
C48 C47 1_555 1_555
H29 C48 1_555 1_555
C49 C50 1_555 1_555
C50 H30 1_555 1_555
C51 C50 1_555 1_555
C52 C51 1_555 1_555
H31 C52 1_555 1_555
C53 C52 1_555 1_555
C55 H33 1_555 1_555
C56 H34 1_555 1_555
C57 C56 1_555 1_555
H35 C57 1_555 1_555
O8 C31 1_555 1_555
O9 C31 1_555 1_555
O10 C32 1_555 1_555
O11 C32 1_555 1_555
O12 C36 1_555 1_555
Zn3 O10 1_555 1_555
N7 C55 1_555 1_555
N8 C51 1_555 1_555
O16 Zn3 1_555 1_555
Zn5 O8 1_555 1_555
N14 Zn3 1_555 1_555
C37 C38 1_555 1_555
C39 O12 1_555 1_555
C48 N11 1_555 1_555
C49 N11 1_555 1_555
C55 N8 1_555 1_555
C56 N7 1_555 1_555
C57 N8 1_555 1_555
Zn3 N7 1_555 1_555
H26 C43 1_555 1_555
O14 C45 1_555 1_555
Zn9 O14 1_555 1_555
H7_2 C13_2 1_555 1_555
O17 C15_2 1_555 1_555
C1_2 C3_2 1_555 1_555
C2_2 C4_2 1_555 1_555
C3_2 C4_2 1_555 1_555
C4_2 C5_2 1_555 1_555
C5_2 H1_2 1_555 1_555
C6_2 C5_2 1_555 1_555
C7_2 C6_2 1_555 1_555
H2_2 C7_2 1_555 1_555
C8_2 C3_2 1_555 1_555
H3_2 C8_2 1_555 1_555
C9_2 C10_2 1_555 1_555
C10_2 H4_2 1_555 1_555
C14_2 C9_2 1_555 1_555
O15 C1_2 1_555 1_555
O2_2 C1_2 1_555 1_555
O3_2 C2_2 1_555 1_555
O4_2 C2_2 1_555 1_555
O5_2 C6_2 1_555 1_555
C7_2 C8_2 1_555 1_555
C9_2 O5_2 1_555 1_555
C19_2 C20_2 1_555 1_555
C20_2 H11_2 1_555 1_555
C21_2 C20_2 1_555 1_555
C22_2 C21_2 1_555 1_555
H12_2 C22_2 1_555 1_555
C23_2 C22_2 1_555 1_555
C25_2 H14_2 1_555 1_555
C26_2 H15_2 1_555 1_555
C27_2 C26_2 1_555 1_555
H16_2 C27_2 1_555 1_555
N1_2 C25_2 1_555 1_555
N2_2 C21_2 1_555 1_555
N13_2 Zn4 1_555 1_555
C25_2 N2_2 1_555 1_555
C26_2 N1_2 1_555 1_555
C27_2 N2_2 1_555 1_555
Zn4 N1_2 1_555 1_555
H13_2 C24_2 1_555 1_555
C28_2 H17_2 1_555 1_555
C29_2 H18_2 1_555 1_555
C30_2 C29_2 1_555 1_555
H19_2 C30_2 1_555 1_555
Zn9 N3_2 1_555 1_555
N3_2 C28_2 1_555 1_555
C31_2 C33_2 1_555 1_555
C38_2 C33_2 1_555 1_555
H22_2 C38_2 1_555 1_555
C49_2 C50_2 1_555 1_555
C50_2 H30_2 1_555 1_555
C51_2 C50_2 1_555 1_555
C52_2 C51_2 1_555 1_555
H31_2 C52_2 1_555 1_555
C53_2 C52_2 1_555 1_555
C54_2 C49_2 1_555 1_555
H32_2 C54_2 1_555 1_555
C55_2 H33_2 1_555 1_555
H35_2 C57_2 1_555 1_555
C58_2 H36_2 1_555 1_555
C59_2 H37_2 1_555 1_555
C60_2 C59_2 1_555 1_555
H38_2 C60_2 1_555 1_555
O16 C31_2 1_555 1_555
O9_2 C31_2 1_555 1_555
N8_2 C51_2 1_555 1_555
N9_2 Zn9 1_555 1_555
N10_2 C53_2 1_555 1_555
C28_2 N4_2 1_555 1_555
C29_2 N3_2 1_555 1_555
C30_2 N4_2 1_555 1_555
C53_2 C54_2 1_555 1_555
C55_2 N8_2 1_555 1_555
C57_2 N8_2 1_555 1_555
C58_2 N9_2 1_555 1_555
C58_2 N10_2 1_555 1_555
C59_2 N9_2 1_555 1_555
C60_2 N10_2 1_555 1_555
C16_2 H8_2 1_555 1_555
N6_2 C16_2 1_555 1_555
C46_2 H27_2 1_555 1_555
C47_2 H28_2 1_555 1_555
C48_2 C47_2 1_555 1_555
H29_2 C48_2 1_555 1_555
N11_2 C46_2 1_555 1_555
N12_2 C46_2 1_555 1_555
Zn6_2 N6_2 1_555 1_555
Zn7_2 N12_2 1_555 1_555
C47_2 N12_2 1_555 1_555
C48_2 N11_2 1_555 1_555
C32_2 C34_2 1_555 1_555
C34_2 C35_2 1_555 1_555
C35_2 H20_2 1_555 1_555
C36_2 C35_2 1_555 1_555
C37_2 C36_2 1_555 1_555
H21_2 C37_2 1_555 1_555
C39_2 C40_2 1_555 1_555
C40_2 H23_2 1_555 1_555
H26_2 C43_2 1_555 1_555
C44_2 C39_2 1_555 1_555
C45_2 C44_2 1_555 1_555
C56_2 H34_2 1_555 1_555
O10_2 C32_2 1_555 1_555
O11_2 C32_2 1_555 1_555
O12_2 C36_2 1_555 1_555
O13_2 C45_2 1_555 1_555
O18 C45_2 1_555 1_555
Zn5 O10_2 1_555 1_555
N14_2 Zn5 1_555 1_555
C39_2 O12_2 1_555 1_555
C43_2 C44_2 1_555 1_555
C56_2 N7_2 1_555 1_555
Zn5 N7_2 1_555 1_555
H26_3 C43_3 1_555 1_555
O14_2 C45_3 1_555 1_555
Zn8 O14_2 1_555 1_555
C31_3 C33_3 1_555 1_555
C32_3 C34_3 1_555 1_555
C33_3 C34_3 1_555 1_555
C34_3 C35_3 1_555 1_555
C35_3 H20_3 1_555 1_555
C36_3 C35_3 1_555 1_555
C37_3 C36_3 1_555 1_555
H21_3 C37_3 1_555 1_555
C38_3 C33_3 1_555 1_555
H22_3 C38_3 1_555 1_555
C39_3 C40_3 1_555 1_555
C40_3 H23_3 1_555 1_555
C41_2 C40_3 1_555 1_555
H24_2 C41_2 1_555 1_555
C42_2 C41_2 1_555 1_555
H25_2 C42_2 1_555 1_555
C44_3 C39_3 1_555 1_555
C47_3 H28_3 1_555 1_555
C48_3 C47_3 1_555 1_555
H29_3 C48_3 1_555 1_555
C49_3 C50_3 1_555 1_555
C50_3 H30_3 1_555 1_555
C51_3 C50_3 1_555 1_555
C52_3 C51_3 1_555 1_555
H31_3 C52_3 1_555 1_555
C53_3 C52_3 1_555 1_555
C55_3 H33_3 1_555 1_555
C56_3 H34_3 1_555 1_555
C57_3 C56_3 1_555 1_555
H35_3 C57_3 1_555 1_555
O8_2 C31_3 1_555 1_555
O9_3 C31_3 1_555 1_555
O10_3 C32_3 1_555 1_555
O11_3 C32_3 1_555 1_555
O12_3 C36_3 1_555 1_555
Zn7_2 O10_3 1_555 1_555
N7_3 C55_3 1_555 1_555
N8_3 C51_3 1_555 1_555
O16_2 Zn7_2 1_555 1_555
Zn7 O8_2 1_555 1_555
C37_3 C38_3 1_555 1_555
C39_3 O12_3 1_555 1_555
C48_3 N11_3 1_555 1_555
C49_3 N11_3 1_555 1_555
C55_3 N8_3 1_555 1_555
C56_3 N7_3 1_555 1_555
C57_3 N8_3 1_555 1_555
Zn7_2 N7_3 1_555 1_555
C1_3 C3_3 1_555 1_555
C8_3 C3_3 1_555 1_555
H3_3 C8_3 1_555 1_555
O1_2 C1_3 1_555 1_555
O2_3 C1_3 1_555 1_555
Zn6 O1_2 1_555 1_555
C16_3 H8_3 1_555 1_555
C18_2 C17_2 1_555 1_555
H10_2 C18_2 1_555 1_555
C19_3 C20_3 1_555 1_555
C20_3 H11_3 1_555 1_555
C21_3 C20_3 1_555 1_555
C22_3 C21_3 1_555 1_555
H12_3 C22_3 1_555 1_555
C23_3 C22_3 1_555 1_555
C24_3 C19_3 1_555 1_555
H13_3 C24_3 1_555 1_555
C25_3 H14_3 1_555 1_555
H16_3 C27_3 1_555 1_555
C28_3 H17_3 1_555 1_555
C29_3 H18_3 1_555 1_555
C30_3 C29_3 1_555 1_555
H19_3 C30_3 1_555 1_555
Zn2_2 N3_3 1_555 1_555
N2_3 C21_3 1_555 1_555
N3_3 C28_3 1_555 1_555
N4_3 C23_3 1_555 1_555
N5_2 C16_3 1_555 1_555
N13_2 C16_3 1_555 1_555
C46_3 H27_3 1_555 1_555
H32_3 C54_3 1_555 1_555
C58_3 H36_3 1_555 1_555
C59_3 H37_3 1_555 1_555
C60_3 C59_3 1_555 1_555
H38_3 C60_3 1_555 1_555
N9_3 Zn2_2 1_555 1_555
N14_2 C46_3 1_555 1_555
O17_2 Zn2_2 1_555 1_555
O18_2 Zn2_2 1_555 1_555
C17_2 N13_2 1_555 1_555
C18_2 N5_2 1_555 1_555
C19_3 N5_2 1_555 1_555
C23_3 C24_3 1_555 1_555
C25_3 N2_3 1_555 1_555
C27_3 N2_3 1_555 1_555
C28_3 N4_3 1_555 1_555
C29_3 N3_3 1_555 1_555
C30_3 N4_3 1_555 1_555
C58_3 N9_3 1_555 1_555
C58_3 N10_3 1_555 1_555
C59_3 N9_3 1_555 1_555
C60_3 N10_3 1_555 1_555
C2_3 C4_3 1_555 1_555
C4_3 C5_3 1_555 1_555
C5_3 H1_3 1_555 1_555
C6_3 C5_3 1_555 1_555
C7_3 C6_3 1_555 1_555
H2_3 C7_3 1_555 1_555
C9_3 C10_3 1_555 1_555
C10_3 H4_3 1_555 1_555
C11_2 C10_3 1_555 1_555
H5_2 C11_2 1_555 1_555
C12_2 C11_2 1_555 1_555
H6_2 C12_2 1_555 1_555
C13_3 C12_2 1_555 1_555
H7_3 C13_3 1_555 1_555
C14_3 C9_3 1_555 1_555
C15_3 C14_3 1_555 1_555
O3_3 C2_3 1_555 1_555
O4_3 C2_3 1_555 1_555
O5_3 C6_3 1_555 1_555
O6_3 C15_3 1_555 1_555
O7_2 C15_3 1_555 1_555
Zn8 O7_2 1_555 1_555
C9_3 O5_3 1_555 1_555
C13_3 C14_3 1_555 1_555
C26_3 H15_3 1_555 1_555
O15_2 Zn6_2 1_555 1_555
C26_3 N1_3 1_555 1_555
Zn6_2 N1_3 1_555 1_555
C32_4 C34_4 1_555 1_555
C34_4 C35_4 1_555 1_555
C35_4 H20_4 1_555 1_555
C36_4 C35_4 1_555 1_555
C37_4 C36_4 1_555 1_555
H21_4 C37_4 1_555 1_555
C39_4 C40_4 1_555 1_555
C40_4 H23_4 1_555 1_555
H26_4 C43_4 1_555 1_555
C44_4 C39_4 1_555 1_555
C45_4 C44_4 1_555 1_555
C56_4 H34_4 1_555 1_555
O10_4 C32_4 1_555 1_555
O11_4 C32_4 1_555 1_555
O12_4 C36_4 1_555 1_555
O13_4 C45_4 1_555 1_555
O18_2 C45_4 1_555 1_555
Zn7 O10_4 1_555 1_555
C39_4 O12_4 1_555 1_555
C43_4 C44_4 1_555 1_555
C56_4 N7_4 1_555 1_555
Zn7 N7_4 1_555 1_555
C16_4 H8_4 1_555 1_555
N13 C16_4 1_555 1_555
C46_4 H27_4 1_555 1_555
C47_4 H28_4 1_555 1_555
C48_4 C47_4 1_555 1_555
H29_4 C48_4 1_555 1_555
N11_4 C46_4 1_555 1_555
N14 C46_4 1_555 1_555
C47_4 N14 1_555 1_555
C48_4 N11_4 1_555 1_555
H13_4 C24_4 1_555 1_555
C28_4 H17_4 1_555 1_555
C29_4 H18_4 1_555 1_555
C30_4 C29_4 1_555 1_555
H19_4 C30_4 1_555 1_555
Zn8 N3_4 1_555 1_555
N3_4 C28_4 1_555 1_555
C31_4 C33_4 1_555 1_555
C38_4 C33_4 1_555 1_555
H22_4 C38_4 1_555 1_555
C49_4 C50_4 1_555 1_555
C50_4 H30_4 1_555 1_555
C51_4 C50_4 1_555 1_555
C52_4 C51_4 1_555 1_555
H31_4 C52_4 1_555 1_555
C53_4 C52_4 1_555 1_555
C54_4 C49_4 1_555 1_555
H32_4 C54_4 1_555 1_555
C55_4 H33_4 1_555 1_555
H35_4 C57_4 1_555 1_555
C58_4 H36_4 1_555 1_555
C59_4 H37_4 1_555 1_555
C60_4 C59_4 1_555 1_555
H38_4 C60_4 1_555 1_555
O16_2 C31_4 1_555 1_555
O9_4 C31_4 1_555 1_555
N8_4 C51_4 1_555 1_555
N9_4 Zn8 1_555 1_555
N10_4 C53_4 1_555 1_555
C28_4 N4_4 1_555 1_555
C29_4 N3_4 1_555 1_555
C30_4 N4_4 1_555 1_555
C53_4 C54_4 1_555 1_555
C55_4 N8_4 1_555 1_555
C57_4 N8_4 1_555 1_555
C58_4 N9_4 1_555 1_555
C58_4 N10_4 1_555 1_555
C59_4 N9_4 1_555 1_555
C60_4 N10_4 1_555 1_555
C19_4 C20_4 1_555 1_555
C20_4 H11_4 1_555 1_555
C21_4 C20_4 1_555 1_555
C22_4 C21_4 1_555 1_555
H12_4 C22_4 1_555 1_555
C23_4 C22_4 1_555 1_555
C25_4 H14_4 1_555 1_555
C26_4 H15_4 1_555 1_555
C27_4 C26_4 1_555 1_555
H16_4 C27_4 1_555 1_555
N1_4 C25_4 1_555 1_555
N2_4 C21_4 1_555 1_555
C25_4 N2_4 1_555 1_555
C26_4 N1_4 1_555 1_555
C27_4 N2_4 1_555 1_555
Zn6 N1_4 1_555 1_555
C1_4 C3_4 1_555 1_555
C2_4 C4_4 1_555 1_555
C3_4 C4_4 1_555 1_555
C4_4 C5_4 1_555 1_555
C5_4 H1_4 1_555 1_555
C6_4 C5_4 1_555 1_555
C7_4 C6_4 1_555 1_555
H2_4 C7_4 1_555 1_555
C8_4 C3_4 1_555 1_555
H3_4 C8_4 1_555 1_555
C9_4 C10_4 1_555 1_555
C10_4 H4_4 1_555 1_555
C14_4 C9_4 1_555 1_555
O15_2 C1_4 1_555 1_555
O2_4 C1_4 1_555 1_555
O3_4 C2_4 1_555 1_555
O4_4 C2_4 1_555 1_555
O5_4 C6_4 1_555 1_555
C7_4 C8_4 1_555 1_555
C9_4 O5_4 1_555 1_555
H7_4 C13_4 1_555 1_555
O17_2 C15_4 1_555 1_555
H5_3 C11_3 1_555 1_555
C12_3 C11_3 1_555 1_555
H6_3 C12_3 1_555 1_555
C18_3 C17_3 1_555 1_555
H10_3 C18_3 1_555 1_555
C18_3 N5_3 1_555 1_555
H24_3 C41_3 1_555 1_555
C42_3 C41_3 1_555 1_555
H25_3 C42_3 1_555 1_555
H24_4 C41_4 1_555 1_555
C42_4 C41_4 1_555 1_555
H25_4 C42_4 1_555 1_555
C18_4 C17_4 1_555 1_555
H10_4 C18_4 1_555 1_555
C18_4 N5_4 1_555 1_555
H5_4 C11_4 1_555 1_555
C12_4 C11_4 1_555 1_555
H6_4 C12_4 1_555 1_555

#END
