
###############################################################################
#
# This file contains modified crystal structure data generated from the
# MOF subset of the Cambridge Structural Database (CSD) v543 
# hosted by the Cambridge Crystallographic Data Centre (CCDC).
#
# This work is licensed under the Creative Commons
# Attribution-NonCommercial-ShareAlike 4.0 International License.
# To view a copy of this license, visit
# http://creativecommons.org/licenses/by-nc-sa/4.0/
# or send a letter to
# Creative Commons, PO Box 1866, Mountain View, CA 94042, USA.
#
# CIF created using the CSD Python API on 29 September 2022
# The structure has been converted into the P1 space group
# The structure has a 3D framework
# The original CSD entry CIZMAB is in the orthorhombic crystal system
# The framework has been calculated to contain at least 10.0% void space
# The void calculation uses a probe of radius 1.32A, grid spacing 0.4
#
###############################################################################

data_CIZMAB
_chemical_formula_moiety         '(C240 H152 Cd12 N48 O56)n'
_symmetry_cell_setting           triclinic
_symmetry_space_group_name_H-M   'P 1'
_symmetry_Int_Tables_number      1
_space_group_name_Hall           'P 1'
loop_
_symmetry_equiv_pos_site_id
_symmetry_equiv_pos_as_xyz
1 x,y,z
_cell_length_a                   32.5833(8)
_cell_length_b                   10.1910(3)
_cell_length_c                   19.1380(5)
_cell_angle_alpha                90
_cell_angle_beta                 90
_cell_angle_gamma                90
_cell_volume                     6354.9
loop_
_atom_site_label
_atom_site_type_symbol
_atom_site_fract_x
_atom_site_fract_y
_atom_site_fract_z
H38 H 0.0181 0.0892 0.6413
O15 O 0.03059(12) 0.6903(4) 0.2336(2)
O17 O 0.01272(12) 0.5784(5) 0.3261(2)
Cd6 Cd 0.037542(11) 0.15372(3) 0.26718(2)
C16 C 0.71417(16) 0.0234(5) 0.0879(3)
C20 C 0.68382(18) 0.1999(6) 0.0234(3)
H15 H 0.6658 0.2706 0.0214
C21 C 0.68777(16) 0.1282(5) 0.0846(3)
C22 C 0.64501(16) 0.2697(5) 0.1550(3)
C23 C 0.66579(17) 0.3869(6) 0.1517(3)
H16 H 0.6934 0.3885 0.1393
C24 C 0.64563(16) 0.5017(6) 0.1668(3)
H17 H 0.6597 0.5810 0.1636
C25 C 0.60423(15) 0.5016(5) 0.1870(3)
C26 C 0.58374(15) 0.3818(5) 0.1913(3)
C27 C 0.60406(16) 0.2655(5) 0.1754(3)
H18 H 0.5904 0.1856 0.1783
C28 C 0.53938(16) 0.3718(5) 0.2119(3)
C29 C 0.58331(16) 0.6280(5) 0.2047(3)
O3 O 0.66387(13) 0.1496(4) 0.1438(2)
O4 O 0.53059(12) 0.3097(4) 0.2664(2)
O5 O 0.51272(12) 0.4216(5) 0.1739(2)
O6 O 0.55777(16) 0.6321(4) 0.2526(3)
O7 O 0.59158(16) 0.7282(4) 0.1710(3)
C31 C 0.92971(16) 0.4285(5) 0.3333(3)
H20 H 0.9563 0.4127 0.3490
C32 C 0.87738(17) 0.5137(6) 0.2815(3)
H21 H 0.8614 0.5700 0.2546
C33 C 0.86362(17) 0.4069(6) 0.3145(3)
H22 H 0.8368 0.3753 0.3149
C34 C 0.89777(16) 0.2296(5) 0.3841(3)
C35 C 0.92235(16) 0.2139(5) 0.4436(3)
H23 H 0.9384 0.2824 0.4606
C36 C 0.92183(16) 0.0927(5) 0.4758(3)
C38 C 0.87302(16) 0.0119(5) 0.3939(3)
C39 C 0.87364(17) 0.1305(5) 0.3586(3)
H25 H 0.8580 0.1426 0.3185
C41 C 0.98273(18) 0.1280(6) 0.5558(3)
H27 H 0.9966 0.1938 0.5318
N8 N 0.91906(13) 0.5281(4) 0.2935(2)
N9 N 0.89715(13) 0.3526(4) 0.3481(2)
N10 N 0.94606(13) 0.0696(4) 0.5370(2)
C60 C 0.99434(18) 0.0695(6) 0.6165(3)
Cd3 Cd 0.962458(11) 0.65372(3) 0.23282(2)
N13 N 0.96578(14) 0.5229(4) 0.1358(2)
O20 O 0.94223(16) 0.8679(4) 0.2526(3)
O22 O 0.90842(16) 0.7718(4) 0.1710(3)
Cd4 Cd 0.537542(11) 0.84628(3) 0.23282(2)
Cd7 Cd 0.462458(11) 0.34628(3) 0.26718(2)
C2 C 0.62262(17) 0.9863(6) 0.2815(3)
H2 H 0.6386 0.9300 0.2546
N2 N 0.58094(13) 0.9719(4) 0.2935(2)
C54 C 0.85437(16) 0.9983(6) 0.1668(3)
H36 H 0.8403 0.9190 0.1636
C55 C 0.89577(15) 0.9984(5) 0.1870(3)
C59 C 0.91669(16) 0.8720(5) 0.2047(3)
N14 N 0.53422(14) 0.9771(4) 0.1358(2)
O16 O 0.46941(12) 0.8097(4) 0.2336(2)
O18 O 0.48728(12) 0.9216(5) 0.3261(2)
C2_2 C 0.12262(17) 0.0137(6) 0.2185(3)
H2_2 H 0.1386 0.0700 0.2454
N2_2 N 0.08094(13) 0.0281(4) 0.2065(2)
C54_2 C 0.35437(16) 0.0017(6) 0.3332(3)
H36_2 H 0.3403 0.0810 0.3364
C55_2 C 0.39577(15) 0.0016(5) 0.3130(3)
C59_2 C 0.41669(16) 0.1280(5) 0.2953(3)
O13 O 0.44223(16) 0.1321(4) 0.2474(3)
O14 O 0.40842(16) 0.2282(4) 0.3290(3)
N14_2 N 0.03422(14) 0.0229(4) 0.3642(2)
O19 O 0.05777(16) 0.3679(4) 0.2474(3)
O21 O 0.09158(16) 0.2718(4) 0.3290(3)
C1 C 0.07029(16) 0.9285(5) 0.1667(3)
H1 H 0.0437 0.9127 0.1510
C3 C 0.13638(17) 0.9069(6) 0.1855(3)
H3 H 0.1632 0.8753 0.1851
C4 C 0.10223(16) 0.7296(5) 0.1159(3)
C5 C 0.07765(16) 0.7139(5) 0.0564(3)
H4 H 0.0616 0.7824 0.0394
C6 C 0.07817(16) 0.5927(5) 0.0242(3)
C7 C 0.10237(16) 0.4904(5) 0.0481(3)
H5 H 0.1021 0.4092 0.0259
C8 C 0.12698(16) 0.5119(5) 0.1061(3)
C9 C 0.12636(17) 0.6305(5) 0.1414(3)
H6 H 0.1420 0.6426 0.1815
C12 C 0.18341(18) 0.4183(6) 0.1774(3)
H9 H 0.1888 0.4934 0.2035
C13 C 0.1870(2) 0.2259(7) 0.1357(4)
H10 H 0.1955 0.1400 0.1277
C14 C 0.1566(3) 0.2854(7) 0.1019(5)
H11 H 0.1405 0.2497 0.0666
C15 C 0.22046(18) 0.0582(6) 0.3481(4)
C17 C 0.2360(2) 0.0093(7) 0.4725(4)
H12 H 0.2534 0.0815 0.4721
N3 N 0.10285(13) 0.8526(4) 0.1519(2)
N5 N 0.15368(14) 0.4093(4) 0.1289(2)
N6 N 0.20381(14) 0.3075(5) 0.1833(2)
O1 O 0.20920(17) 0.1769(5) 0.3507(3)
O2 O 0.23898(17) 0.0159(5) 0.2973(3)
Cd2 Cd 0.2500 0.2500 0.26265(3)
C37 C 0.39763(16) 0.0096(5) 0.0481(3)
H24 H 0.3979 0.0908 0.0259
C42 C 0.31659(18) 0.0817(6) 0.1774(3)
H28 H 0.3112 0.0066 0.2035
C43 C 0.3130(2) 0.2741(7) 0.1357(4)
H29 H 0.3045 0.3600 0.1277
C44 C 0.3434(3) 0.2146(7) 0.1019(5)
H30 H 0.3595 0.2503 0.0666
C45 C 0.27954(18) 0.4418(6) 0.3481(4)
C46 C 0.28583(16) 0.5234(5) 0.4121(3)
C47 C 0.2640(2) 0.4907(7) 0.4725(4)
H31 H 0.2466 0.4185 0.4721
C48 C 0.2679(2) 0.5634(8) 0.5321(4)
H32 H 0.2527 0.5417 0.5716
C49 C 0.2937(2) 0.6667(7) 0.5336(4)
H33 H 0.2961 0.7160 0.5743
C50 C 0.31618(18) 0.6999(6) 0.4766(3)
H34 H 0.3342 0.7706 0.4786
C51 C 0.31223(16) 0.6282(5) 0.4154(3)
C52 C 0.35499(16) 0.7697(5) 0.3450(3)
C53 C 0.33421(17) 0.8869(6) 0.3483(3)
H35 H 0.3066 0.8885 0.3607
C56 C 0.41626(15) 0.8818(5) 0.3087(3)
C57 C 0.39594(16) 0.7655(5) 0.3246(3)
H37 H 0.4096 0.6856 0.3217
C58 C 0.46062(16) 0.8718(5) 0.2881(3)
N11 N 0.34632(14) 0.0907(4) 0.1289(2)
N12 N 0.29619(14) 0.1925(5) 0.1833(2)
O8 O 0.29080(17) 0.3231(5) 0.3507(3)
O9 O 0.26102(17) 0.4841(5) 0.2973(3)
O10 O 0.33613(13) 0.6496(4) 0.3562(2)
C16_2 C 0.21417(16) 0.9766(5) 0.4121(3)
C18 C 0.2321(2) 0.9366(8) 0.5321(4)
H13 H 0.2473 0.9583 0.5716
C19 C 0.2063(2) 0.8333(7) 0.5336(4)
H14 H 0.2039 0.7840 0.5743
C20_2 C 0.18382(18) 0.8001(6) 0.4766(3)
H15_2 H 0.1658 0.7294 0.4786
C21_2 C 0.18777(16) 0.8718(5) 0.4154(3)
C22_2 C 0.14501(16) 0.7303(5) 0.3450(3)
C23_2 C 0.16579(17) 0.6131(6) 0.3483(3)
H16_2 H 0.1934 0.6115 0.3607
C24_2 C 0.14563(16) 0.4983(6) 0.3332(3)
H17_2 H 0.1597 0.4190 0.3364
C25_2 C 0.10423(15) 0.4984(5) 0.3130(3)
C26_2 C 0.08374(15) 0.6182(5) 0.3087(3)
C27_2 C 0.10406(16) 0.7345(5) 0.3246(3)
H18_2 H 0.0904 0.8144 0.3217
C28_2 C 0.03938(16) 0.6282(5) 0.2881(3)
C29_2 C 0.08331(16) 0.3720(5) 0.2953(3)
O3_2 O 0.16387(13) 0.8504(4) 0.3562(2)
C31_2 C 0.42971(16) 0.5715(5) 0.1667(3)
H20_2 H 0.4563 0.5873 0.1510
C32_2 C 0.37738(17) 0.4863(6) 0.2185(3)
H21_2 H 0.3614 0.4300 0.2454
C33_2 C 0.36362(17) 0.5931(6) 0.1855(3)
H22_2 H 0.3368 0.6247 0.1851
C34_2 C 0.39777(16) 0.7704(5) 0.1159(3)
C35_2 C 0.42235(16) 0.7861(5) 0.0564(3)
H23_2 H 0.4384 0.7176 0.0394
C36_2 C 0.42183(16) 0.9073(5) 0.0242(3)
C38_2 C 0.37302(16) 0.9881(5) 0.1061(3)
C39_2 C 0.37364(17) 0.8695(5) 0.1414(3)
H25_2 H 0.3580 0.8574 0.1815
N8_2 N 0.41906(13) 0.4719(4) 0.2065(2)
N9_2 N 0.39715(13) 0.6474(4) 0.1519(2)
N13_2 N 0.46578(14) 0.4771(4) 0.3642(2)
C1_2 C 0.42971(16) 0.9285(5) 0.6667(3)
H1_2 H 0.4563 0.9127 0.6510
C3_2 C 0.36362(17) 0.9069(6) 0.6855(3)
H3_2 H 0.3368 0.8753 0.6851
C4_2 C 0.39777(16) 0.7296(5) 0.6159(3)
C5_2 C 0.42235(16) 0.7139(5) 0.5564(3)
H4_2 H 0.4384 0.7824 0.5394
C6_2 C 0.42183(16) 0.5927(5) 0.5242(3)
C7_2 C 0.39763(16) 0.4904(5) 0.5481(3)
H5_2 H 0.3979 0.4092 0.5259
C8_2 C 0.37302(16) 0.5119(5) 0.6061(3)
C9_2 C 0.37364(17) 0.6305(5) 0.6414(3)
H6_2 H 0.3580 0.6426 0.6815
C10 C 0.43725(17) 0.4806(5) 0.4131(3)
H7 H 0.4139 0.4281 0.4131
C11 C 0.48273(18) 0.6280(6) 0.4442(3)
H8 H 0.4966 0.6938 0.4682
C12_2 C 0.31659(18) 0.4183(6) 0.6774(3)
H9_2 H 0.3112 0.4934 0.7035
C13_2 C 0.3130(2) 0.2259(7) 0.6357(4)
H10_2 H 0.3045 0.1400 0.6277
C14_2 C 0.3434(3) 0.2854(7) 0.6019(5)
H11_2 H 0.3595 0.2497 0.5666
C15_2 C 0.27954(18) 0.0582(6) 0.8481(4)
C17_2 C 0.2640(2) 0.0093(7) 0.9725(4)
H12_2 H 0.2466 0.0815 0.9721
N3_2 N 0.39715(13) 0.8526(4) 0.6519(2)
N4 N 0.44606(13) 0.5696(4) 0.4630(2)
C30 C 0.49434(18) 0.5695(6) 0.3835(3)
H19 H 0.5181 0.5892 0.3587
N5_2 N 0.34632(14) 0.4093(4) 0.6289(2)
N6_2 N 0.29619(14) 0.3075(5) 0.6833(2)
O1_2 O 0.29080(17) 0.1769(5) 0.8507(3)
O2_2 O 0.26102(17) 0.0159(5) 0.7973(3)
Cd2_2 Cd 0.2500 0.2500 0.76265(3)
C37_2 C 0.10237(16) 0.0096(5) 0.5481(3)
H24_2 H 0.1021 0.0908 0.5259
C40 C 0.06275(17) 0.0194(5) 0.4131(3)
H26 H 0.0861 0.0719 0.4131
C42_2 C 0.18341(18) 0.0817(6) 0.6774(3)
H28_2 H 0.1888 0.0066 0.7035
C43_2 C 0.1870(2) 0.2741(7) 0.6357(4)
H29_2 H 0.1955 0.3600 0.6277
C44_2 C 0.1566(3) 0.2146(7) 0.6019(5)
H30_2 H 0.1405 0.2503 0.5666
C45_2 C 0.22046(18) 0.4418(6) 0.8481(4)
C46_2 C 0.21417(16) 0.5234(5) 0.9121(3)
C47_2 C 0.2360(2) 0.4907(7) 0.9725(4)
H31_2 H 0.2534 0.4185 0.9721
C50_2 C 0.18382(18) 0.6999(6) 0.9766(3)
H34_2 H 0.1658 0.7706 0.9786
C51_2 C 0.18777(16) 0.6282(5) 0.9154(3)
C52_2 C 0.14501(16) 0.7697(5) 0.8450(3)
C53_2 C 0.16579(17) 0.8869(6) 0.8483(3)
H35_2 H 0.1934 0.8885 0.8607
C56_2 C 0.08374(15) 0.8818(5) 0.8087(3)
C57_2 C 0.10406(16) 0.7655(5) 0.8246(3)
H37_2 H 0.0904 0.6856 0.8217
C58_2 C 0.03938(16) 0.8718(5) 0.7881(3)
N11_2 N 0.15368(14) 0.0907(4) 0.6289(2)
N12_2 N 0.20381(14) 0.1925(5) 0.6833(2)
O8_2 O 0.20920(17) 0.3231(5) 0.8507(3)
O9_2 O 0.23898(17) 0.4841(5) 0.7973(3)
O10_2 O 0.16387(13) 0.6496(4) 0.8562(2)
O11 O 0.03059(12) 0.8097(4) 0.7336(2)
O12 O 0.01272(12) 0.9216(5) 0.8261(2)
C10_2 C 0.93725(17) 0.5194(5) 0.0869(3)
H7_2 H 0.9139 0.5719 0.0869
C11_2 C 0.98273(18) 0.3720(6) 0.0558(3)
H8_2 H 0.9966 0.3062 0.0318
N4_2 N 0.94606(13) 0.4304(4) 0.0370(2)
C30_2 C 0.99434(18) 0.4305(6) 0.1165(3)
C40_2 C 0.56275(17) 0.9806(5) 0.0869(3)
H26_2 H 0.5861 0.9281 0.0869
C18_2 C 0.7321(2) 0.0634(8) 0.9679(4)
H13_2 H 0.7473 0.0417 0.9284
C19_2 C 0.7063(2) 0.1667(7) 0.9664(4)
H14_2 H 0.7039 0.2160 0.9257
C1_3 C 0.57029(16) 0.0715(5) 0.3333(3)
H1_3 H 0.5437 0.0873 0.3490
C3_3 C 0.63638(17) 0.0931(6) 0.3145(3)
H3_3 H 0.6632 0.1247 0.3149
C4_3 C 0.60223(16) 0.2704(5) 0.3841(3)
C5_3 C 0.57765(16) 0.2861(5) 0.4436(3)
H4_3 H 0.5616 0.2176 0.4606
C6_3 C 0.57817(16) 0.4073(5) 0.4758(3)
C7_3 C 0.60237(16) 0.5096(5) 0.4519(3)
H5_3 H 0.6021 0.5908 0.4741
C8_3 C 0.62698(16) 0.4881(5) 0.3939(3)
C9_3 C 0.62636(17) 0.3695(5) 0.3586(3)
H6_3 H 0.6420 0.3574 0.3185
C10_3 C 0.56275(17) 0.5194(5) 0.5869(3)
H7_3 H 0.5861 0.5719 0.5869
N1 N 0.53422(14) 0.5229(4) 0.6358(2)
C11_3 C 0.51727(18) 0.3720(6) 0.5558(3)
H8_3 H 0.5034 0.3062 0.5318
C12_3 C 0.68341(18) 0.5817(6) 0.3226(3)
H9_3 H 0.6888 0.5066 0.2965
C13_3 C 0.6870(2) 0.7741(7) 0.3643(4)
H10_3 H 0.6955 0.8600 0.3723
C14_3 C 0.6566(3) 0.7146(7) 0.3981(5)
H11_3 H 0.6405 0.7503 0.4334
C15_3 C 0.72046(18) 0.9418(6) 0.1519(4)
C17_3 C 0.7360(2) 0.9907(7) 0.0275(4)
H12_3 H 0.7534 0.9185 0.0279
N3_3 N 0.60285(13) 0.1474(4) 0.3481(2)
N4_3 N 0.55394(13) 0.4304(4) 0.5370(2)
C30_3 C 0.50566(18) 0.4305(6) 0.6165(3)
H19_2 H 0.4819 0.4108 0.6413
N5_3 N 0.65368(14) 0.5907(4) 0.3711(2)
N6_3 N 0.70381(14) 0.6925(5) 0.3167(2)
O1_3 O 0.70920(17) 0.8231(5) 0.1493(3)
O2_3 O 0.73898(17) 0.9841(5) 0.2027(3)
Cd2_3 Cd 0.7500 0.7500 0.23735(3)
C37_3 C 0.89763(16) 0.9904(5) 0.4519(3)
H24_3 H 0.8979 0.9092 0.4741
C40_3 C 0.93725(17) 0.9806(5) 0.5869(3)
H26_3 H 0.9139 0.9281 0.5869
N7 N 0.96578(14) 0.9771(4) 0.6358(2)
C42_3 C 0.81659(18) 0.9183(6) 0.3226(3)
H28_3 H 0.8112 0.9934 0.2965
C43_3 C 0.8130(2) 0.7259(7) 0.3643(4)
H29_3 H 0.8045 0.6400 0.3723
C44_3 C 0.8434(3) 0.7854(7) 0.3981(5)
H30_3 H 0.8595 0.7497 0.4334
C45_3 C 0.77954(18) 0.5582(6) 0.1519(4)
C46_3 C 0.78583(16) 0.4766(5) 0.0879(3)
C47_3 C 0.7640(2) 0.5093(7) 0.0275(4)
H31_3 H 0.7466 0.5815 0.0279
C50_3 C 0.81618(18) 0.3001(6) 0.0234(3)
H34_3 H 0.8342 0.2294 0.0214
C51_3 C 0.81223(16) 0.3718(5) 0.0846(3)
C52_3 C 0.85499(16) 0.2303(5) 0.1550(3)
C53_3 C 0.83421(17) 0.1131(6) 0.1517(3)
H35_3 H 0.8066 0.1115 0.1393
C56_3 C 0.91626(15) 0.1182(5) 0.1913(3)
C57_3 C 0.89594(16) 0.2345(5) 0.1754(3)
H37_3 H 0.9096 0.3144 0.1783
C58_3 C 0.96062(16) 0.1282(5) 0.2119(3)
N11_3 N 0.84632(14) 0.9093(4) 0.3711(2)
N12_3 N 0.79619(14) 0.8075(5) 0.3167(2)
O8_3 O 0.79080(17) 0.6769(5) 0.1493(3)
O9_3 O 0.76102(17) 0.5159(5) 0.2027(3)
O10_3 O 0.83613(13) 0.3504(4) 0.1438(2)
O11_2 O 0.96941(12) 0.1903(4) 0.2664(2)
O12_2 O 0.98728(12) 0.0784(5) 0.1739(2)
Cd8 Cd 0.962458(11) 0.84628(3) 0.73282(2)
Cd9 Cd 0.537542(11) 0.65372(3) 0.73282(2)
C10_4 C 0.06275(17) 0.4806(5) 0.9131(3)
H7_4 H 0.0861 0.4281 0.9131
N1_2 N 0.03422(14) 0.4771(4) 0.8642(2)
C11_4 C 0.01727(18) 0.6280(6) 0.9442(3)
H8_4 H 0.0034 0.6938 0.9682
N4_4 N 0.05394(13) 0.5696(4) 0.9630(2)
C30_4 C 0.00566(18) 0.5695(6) 0.8835(3)
C40_4 C 0.43725(17) 0.0194(5) 0.9131(3)
H26_4 H 0.4139 0.0719 0.9131
N7_2 N 0.46578(14) 0.0229(4) 0.8642(2)
Cd8_2 Cd 0.462458(11) 0.15372(3) 0.76718(2)
Cd9_2 Cd 0.037542(11) 0.34628(3) 0.76718(2)
C2_3 C 0.37738(17) 0.0137(6) 0.7185(3)
H2_3 H 0.3614 0.0700 0.7454
N2_3 N 0.41906(13) 0.0281(4) 0.7065(2)
C54_3 C 0.14563(16) 0.0017(6) 0.8332(3)
H36_3 H 0.1597 0.0810 0.8364
C55_3 C 0.10423(15) 0.0016(5) 0.8130(3)
C59_3 C 0.08331(16) 0.1280(5) 0.7953(3)
O13_2 O 0.05777(16) 0.1321(4) 0.7474(3)
O14_2 O 0.09158(16) 0.2282(4) 0.8290(3)
O16_2 O 0.53059(12) 0.1903(4) 0.7664(2)
O18_2 O 0.51272(12) 0.0784(5) 0.6739(2)
O19_2 O 0.44223(16) 0.3679(4) 0.7474(3)
O21_2 O 0.40842(16) 0.2718(4) 0.8290(3)
C16_3 C 0.28583(16) 0.9766(5) 0.9121(3)
C20_3 C 0.31618(18) 0.8001(6) 0.9766(3)
H15_3 H 0.3342 0.7294 0.9786
C21_3 C 0.31223(16) 0.8718(5) 0.9154(3)
C22_3 C 0.35499(16) 0.7303(5) 0.8450(3)
C23_3 C 0.33421(17) 0.6131(6) 0.8483(3)
H16_3 H 0.3066 0.6115 0.8607
C24_3 C 0.35437(16) 0.4983(6) 0.8332(3)
H17_3 H 0.3403 0.4190 0.8364
C25_3 C 0.39577(15) 0.4984(5) 0.8130(3)
C26_3 C 0.41626(15) 0.6182(5) 0.8087(3)
C27_3 C 0.39594(16) 0.7345(5) 0.8246(3)
H18_3 H 0.4096 0.8144 0.8217
C28_3 C 0.46062(16) 0.6282(5) 0.7881(3)
C29_3 C 0.41669(16) 0.3720(5) 0.7953(3)
O3_3 O 0.33613(13) 0.8504(4) 0.8562(2)
O4_2 O 0.46941(12) 0.6903(4) 0.7336(2)
O5_2 O 0.48728(12) 0.5784(5) 0.8261(2)
C31_3 C 0.07029(16) 0.5715(5) 0.6667(3)
H20_3 H 0.0437 0.5873 0.6510
C32_3 C 0.12262(17) 0.4863(6) 0.7185(3)
H21_3 H 0.1386 0.4300 0.7454
C33_3 C 0.13638(17) 0.5931(6) 0.6855(3)
H22_3 H 0.1632 0.6247 0.6851
C34_3 C 0.10223(16) 0.7704(5) 0.6159(3)
C35_3 C 0.07765(16) 0.7861(5) 0.5564(3)
H23_3 H 0.0616 0.7176 0.5394
C36_3 C 0.07817(16) 0.9073(5) 0.5242(3)
C38_3 C 0.12698(16) 0.9881(5) 0.6061(3)
C39_3 C 0.12636(17) 0.8695(5) 0.6414(3)
H25_3 H 0.1420 0.8574 0.6815
C41_2 C 0.01727(18) 0.8720(6) 0.4442(3)
H27_2 H 0.0034 0.8062 0.4682
N8_3 N 0.08094(13) 0.4719(4) 0.7065(2)
N9_3 N 0.10285(13) 0.6474(4) 0.6519(2)
N10_2 N 0.05394(13) 0.9304(4) 0.4630(2)
C60_2 C 0.00566(18) 0.9305(6) 0.3835(3)
H38_2 H 0.9819 0.9108 0.3587
O15_2 O 0.96941(12) 0.3097(4) 0.7664(2)
O17_2 O 0.98728(12) 0.4216(5) 0.6739(2)
C16_4 C 0.78583(16) 0.0234(5) 0.5879(3)
C18_3 C 0.7679(2) 0.0634(8) 0.4679(4)
H13_3 H 0.7527 0.0417 0.4284
C19_3 C 0.7937(2) 0.1667(7) 0.4664(4)
H14_3 H 0.7961 0.2160 0.4257
C20_4 C 0.81618(18) 0.1999(6) 0.5234(3)
H15_4 H 0.8342 0.2706 0.5214
C21_4 C 0.81223(16) 0.1282(5) 0.5846(3)
C22_4 C 0.85499(16) 0.2697(5) 0.6550(3)
C23_4 C 0.83421(17) 0.3869(6) 0.6517(3)
H16_4 H 0.8066 0.3885 0.6393
C24_4 C 0.85437(16) 0.5017(6) 0.6668(3)
H17_4 H 0.8403 0.5810 0.6636
C25_4 C 0.89577(15) 0.5016(5) 0.6870(3)
C26_4 C 0.91626(15) 0.3818(5) 0.6913(3)
C27_4 C 0.89594(16) 0.2655(5) 0.6754(3)
H18_4 H 0.9096 0.1856 0.6783
C28_4 C 0.96062(16) 0.3718(5) 0.7119(3)
C29_4 C 0.91669(16) 0.6280(5) 0.7047(3)
O3_4 O 0.83613(13) 0.1496(4) 0.6438(2)
O6_2 O 0.94223(16) 0.6321(4) 0.7526(3)
O7_2 O 0.90842(16) 0.7282(4) 0.6710(3)
C31_4 C 0.57029(16) 0.4285(5) 0.8333(3)
H20_4 H 0.5437 0.4127 0.8490
C32_4 C 0.62262(17) 0.5137(6) 0.7815(3)
H21_4 H 0.6386 0.5700 0.7546
C33_4 C 0.63638(17) 0.4069(6) 0.8145(3)
H22_4 H 0.6632 0.3753 0.8149
C34_4 C 0.60223(16) 0.2296(5) 0.8841(3)
C35_4 C 0.57765(16) 0.2139(5) 0.9436(3)
H23_4 H 0.5616 0.2824 0.9606
C36_4 C 0.57817(16) 0.0927(5) 0.9758(3)
C38_4 C 0.62698(16) 0.0119(5) 0.8939(3)
C39_4 C 0.62636(17) 0.1305(5) 0.8586(3)
H25_4 H 0.6420 0.1426 0.8185
N8_4 N 0.58094(13) 0.5281(4) 0.7935(2)
N9_4 N 0.60285(13) 0.3526(4) 0.8481(2)
O20_2 O 0.55777(16) 0.8679(4) 0.7526(3)
O22_2 O 0.59158(16) 0.7718(4) 0.6710(3)
C1_4 C 0.92971(16) 0.0715(5) 0.8333(3)
H1_4 H 0.9563 0.0873 0.8490
C3_4 C 0.86362(17) 0.0931(6) 0.8145(3)
H3_4 H 0.8368 0.1247 0.8149
C4_4 C 0.89777(16) 0.2704(5) 0.8841(3)
C5_4 C 0.92235(16) 0.2861(5) 0.9436(3)
H4_4 H 0.9384 0.2176 0.9606
C6_4 C 0.92183(16) 0.4073(5) 0.9758(3)
C7_4 C 0.89763(16) 0.5096(5) 0.9519(3)
H5_4 H 0.8979 0.5908 0.9741
C8_4 C 0.87302(16) 0.4881(5) 0.8939(3)
C9_4 C 0.87364(17) 0.3695(5) 0.8586(3)
H6_4 H 0.8580 0.3574 0.8185
C12_4 C 0.81659(18) 0.5817(6) 0.8226(3)
H9_4 H 0.8112 0.5066 0.7965
C13_4 C 0.8130(2) 0.7741(7) 0.8643(4)
H10_4 H 0.8045 0.8600 0.8723
C14_4 C 0.8434(3) 0.7146(7) 0.8981(5)
H11_4 H 0.8595 0.7503 0.9334
C15_4 C 0.77954(18) 0.9418(6) 0.6519(4)
C17_4 C 0.7640(2) 0.9907(7) 0.5275(4)
H12_4 H 0.7466 0.9185 0.5279
N3_4 N 0.89715(13) 0.1474(4) 0.8481(2)
N5_4 N 0.84632(14) 0.5907(4) 0.8711(2)
N6_4 N 0.79619(14) 0.6925(5) 0.8167(2)
O1_4 O 0.79080(17) 0.8231(5) 0.6493(3)
O2_4 O 0.76102(17) 0.9841(5) 0.7027(3)
Cd2_4 Cd 0.7500 0.7500 0.73735(3)
C37_4 C 0.60237(16) 0.9904(5) 0.9519(3)
H24_4 H 0.6021 0.9092 0.9741
C42_4 C 0.68341(18) 0.9183(6) 0.8226(3)
H28_4 H 0.6888 0.9934 0.7965
C43_4 C 0.6870(2) 0.7259(7) 0.8643(4)
H29_4 H 0.6955 0.6400 0.8723
C44_4 C 0.6566(3) 0.7854(7) 0.8981(5)
H30_4 H 0.6405 0.7497 0.9334
C45_4 C 0.72046(18) 0.5582(6) 0.6519(4)
C46_4 C 0.71417(16) 0.4766(5) 0.5879(3)
C47_4 C 0.7360(2) 0.5093(7) 0.5275(4)
H31_4 H 0.7534 0.5815 0.5279
C48_2 C 0.7321(2) 0.4366(8) 0.4679(4)
H32_2 H 0.7473 0.4583 0.4284
C49_2 C 0.7063(2) 0.3333(7) 0.4664(4)
H33_2 H 0.7039 0.2840 0.4257
C50_4 C 0.68382(18) 0.3001(6) 0.5234(3)
H34_4 H 0.6658 0.2294 0.5214
C51_4 C 0.68777(16) 0.3718(5) 0.5846(3)
C52_4 C 0.64501(16) 0.2303(5) 0.6550(3)
C53_4 C 0.66579(17) 0.1131(6) 0.6517(3)
H35_4 H 0.6934 0.1115 0.6393
C56_4 C 0.58374(15) 0.1182(5) 0.6913(3)
C57_4 C 0.60406(16) 0.2345(5) 0.6754(3)
H37_4 H 0.5904 0.3144 0.6783
C58_4 C 0.53938(16) 0.1282(5) 0.7119(3)
N11_4 N 0.65368(14) 0.9093(4) 0.8711(2)
N12_4 N 0.70381(14) 0.8075(5) 0.8167(2)
O8_4 O 0.70920(17) 0.6769(5) 0.6493(3)
O9_4 O 0.73898(17) 0.5159(5) 0.7027(3)
O10_4 O 0.66387(13) 0.3504(4) 0.6438(2)
C2_4 C 0.87738(17) 0.9863(6) 0.7815(3)
H2_4 H 0.8614 0.9300 0.7546
N2_4 N 0.91906(13) 0.9719(4) 0.7935(2)
C54_4 C 0.64563(16) 0.9983(6) 0.6668(3)
H36_4 H 0.6597 0.9190 0.6636
C55_4 C 0.60423(15) 0.9984(5) 0.6870(3)
C59_4 C 0.58331(16) 0.8720(5) 0.7047(3)
C48_3 C 0.7679(2) 0.4366(8) 0.9679(4)
H32_3 H 0.7527 0.4583 0.9284
C49_3 C 0.7937(2) 0.3333(7) 0.9664(4)
H33_3 H 0.7961 0.2840 0.9257
C41_3 C 0.48273(18) 0.8720(6) 0.9442(3)
H27_3 H 0.4966 0.8062 0.9682
N10_3 N 0.44606(13) 0.9304(4) 0.9630(2)
C60_3 C 0.49434(18) 0.9305(6) 0.8835(3)
H38_3 H 0.5181 0.9108 0.8587
H19_3 H 0.9819 0.5892 0.8587
C48_4 C 0.2321(2) 0.5634(8) 0.0321(4)
H32_4 H 0.2473 0.5417 0.0716
C49_4 C 0.2063(2) 0.6667(7) 0.0336(4)
H33_4 H 0.2039 0.7160 0.0743
C18_4 C 0.2679(2) 0.9366(8) 0.0321(4)
H13_4 H 0.2527 0.9583 0.0716
C19_4 C 0.2937(2) 0.8333(7) 0.0336(4)
H14_4 H 0.2961 0.7840 0.0743
H19_4 H 0.0181 0.4108 0.1413
C41_4 C 0.51727(18) 0.1280(6) 0.0558(3)
H27_4 H 0.5034 0.1938 0.0318
N10_4 N 0.55394(13) 0.0696(4) 0.0370(2)
C60_4 C 0.50566(18) 0.0695(6) 0.1165(3)
H38_4 H 0.4819 0.0892 0.1413
loop_
_geom_bond_atom_site_label_1
_geom_bond_atom_site_label_2
_geom_bond_site_symmetry_1
_geom_bond_site_symmetry_2
H15 C20 1_555 1_555
C21 C16 1_555 1_555
C22 C23 1_555 1_555
C23 H16 1_555 1_555
C24 C23 1_555 1_555
H17 C24 1_555 1_555
C25 C24 1_555 1_555
C26 C25 1_555 1_555
C27 C22 1_555 1_555
H18 C27 1_555 1_555
C28 C26 1_555 1_555
C29 C25 1_555 1_555
O3 C21 1_555 1_555
O4 C28 1_555 1_555
O5 C28 1_555 1_555
O6 C29 1_555 1_555
O7 C29 1_555 1_555
C31 H20 1_555 1_555
C32 H21 1_555 1_555
C33 C32 1_555 1_555
H22 C33 1_555 1_555
C34 C35 1_555 1_555
C35 H23 1_555 1_555
C36 C35 1_555 1_555
C39 C34 1_555 1_555
H25 C39 1_555 1_555
C41 H27 1_555 1_555
N8 C31 1_555 1_555
N9 C31 1_555 1_555
N10 C36 1_555 1_555
Cd3 N8 1_555 1_555
N13 Cd3 1_555 1_555
O20 Cd3 1_555 1_555
O22 Cd3 1_555 1_555
Cd4 O6 1_555 1_555
Cd7 O4 1_555 1_555
C20 C21 1_555 1_555
C22 O3 1_555 1_555
C26 C27 1_555 1_555
O5 Cd7 1_555 1_555
O7 Cd4 1_555 1_555
C32 N8 1_555 1_555
C33 N9 1_555 1_555
C34 N9 1_555 1_555
C38 C39 1_555 1_555
C41 N10 1_555 1_555
C41 C60 1_555 1_555
C2 H2 1_555 1_555
Cd4 N2 1_555 1_555
H36 C54 1_555 1_555
C55 C54 1_555 1_555
C59 C55 1_555 1_555
O20 C59 1_555 1_555
O22 C59 1_555 1_555
N14 Cd4 1_555 1_555
O16 Cd4 1_555 1_555
O18 Cd4 1_555 1_555
C2 N2 1_555 1_555
C2_2 H2_2 1_555 1_555
Cd6 N2_2 1_555 1_555
H36_2 C54_2 1_555 1_555
C55_2 C54_2 1_555 1_555
C59_2 C55_2 1_555 1_555
O13 C59_2 1_555 1_555
O14 C59_2 1_555 1_555
N14_2 Cd6 1_555 1_555
O19 Cd6 1_555 1_555
O21 Cd6 1_555 1_555
Cd7 O13 1_555 1_555
C2_2 N2_2 1_555 1_555
O14 Cd7 1_555 1_555
C1 H1 1_555 1_555
H3 C3 1_555 1_555
C4 C5 1_555 1_555
C5 H4 1_555 1_555
C6 C5 1_555 1_555
C7 C6 1_555 1_555
H5 C7 1_555 1_555
C8 C7 1_555 1_555
C9 C4 1_555 1_555
H6 C9 1_555 1_555
C12 H9 1_555 1_555
C13 H10 1_555 1_555
C14 C13 1_555 1_555
H11 C14 1_555 1_555
C17 H12 1_555 1_555
N3 C1 1_555 1_555
N5 C8 1_555 1_555
N6 C12 1_555 1_555
O1 C15 1_555 1_555
O2 C15 1_555 1_555
Cd2 N6 1_555 1_555
H24 C37 1_555 1_555
C42 H28 1_555 1_555
C43 H29 1_555 1_555
C44 C43 1_555 1_555
H30 C44 1_555 1_555
C45 C46 1_555 1_555
C46 C47 1_555 1_555
C47 H31 1_555 1_555
C48 C47 1_555 1_555
H32 C48 1_555 1_555
C49 C48 1_555 1_555
H33 C49 1_555 1_555
C50 C49 1_555 1_555
H34 C50 1_555 1_555
C51 C46 1_555 1_555
C52 C53 1_555 1_555
C53 H35 1_555 1_555
C57 C52 1_555 1_555
H37 C57 1_555 1_555
C58 C56 1_555 1_555
N12 Cd2 1_555 1_555
O8 Cd2 1_555 1_555
O9 Cd2 1_555 1_555
O10 C51 1_555 1_555
O16 C58 1_555 1_555
O18 C58 1_555 1_555
C3 N3 1_555 1_555
C4 N3 1_555 1_555
C8 C9 1_555 1_555
C12 N5 1_555 1_555
C13 N6 1_555 1_555
C14 N5 1_555 1_555
O1 Cd2 1_555 1_555
O2 Cd2 1_555 1_555
C42 N11 1_555 1_555
C42 N12 1_555 1_555
C43 N12 1_555 1_555
C44 N11 1_555 1_555
C45 O8 1_555 1_555
C45 O9 1_555 1_555
C50 C51 1_555 1_555
C52 O10 1_555 1_555
C56 C57 1_555 1_555
H13 C18 1_555 1_555
C19 C18 1_555 1_555
H14 C19 1_555 1_555
C20_2 C19 1_555 1_555
H15_2 C20_2 1_555 1_555
C21_2 C16_2 1_555 1_555
C22_2 C23_2 1_555 1_555
C23_2 H16_2 1_555 1_555
C24_2 C23_2 1_555 1_555
H17_2 C24_2 1_555 1_555
C25_2 C24_2 1_555 1_555
C26_2 C25_2 1_555 1_555
C27_2 C22_2 1_555 1_555
H18_2 C27_2 1_555 1_555
C28_2 C26_2 1_555 1_555
C29_2 C25_2 1_555 1_555
O3_2 C21_2 1_555 1_555
O15 C28_2 1_555 1_555
O17 C28_2 1_555 1_555
O19 C29_2 1_555 1_555
O21 C29_2 1_555 1_555
C31_2 H20_2 1_555 1_555
C32_2 H21_2 1_555 1_555
C33_2 C32_2 1_555 1_555
H22_2 C33_2 1_555 1_555
C34_2 C35_2 1_555 1_555
C35_2 H23_2 1_555 1_555
C36_2 C35_2 1_555 1_555
C39_2 C34_2 1_555 1_555
H25_2 C39_2 1_555 1_555
N8_2 C31_2 1_555 1_555
N9_2 C31_2 1_555 1_555
Cd7 N8_2 1_555 1_555
N13_2 Cd7 1_555 1_555
C20_2 C21_2 1_555 1_555
C22_2 O3_2 1_555 1_555
C26_2 C27_2 1_555 1_555
C32_2 N8_2 1_555 1_555
C33_2 N9_2 1_555 1_555
C34_2 N9_2 1_555 1_555
C38_2 C39_2 1_555 1_555
C1_2 H1_2 1_555 1_555
H3_2 C3_2 1_555 1_555
C4_2 C5_2 1_555 1_555
C5_2 H4_2 1_555 1_555
C6_2 C5_2 1_555 1_555
C7_2 C6_2 1_555 1_555
H5_2 C7_2 1_555 1_555
C8_2 C7_2 1_555 1_555
C9_2 C4_2 1_555 1_555
H6_2 C9_2 1_555 1_555
C10 H7 1_555 1_555
N13_2 C10 1_555 1_555
C11 H8 1_555 1_555
C12_2 H9_2 1_555 1_555
C13_2 H10_2 1_555 1_555
C14_2 C13_2 1_555 1_555
H11_2 C14_2 1_555 1_555
C17_2 H12_2 1_555 1_555
N3_2 C1_2 1_555 1_555
N4 C6_2 1_555 1_555
C30 N13_2 1_555 1_555
H19 C30 1_555 1_555
N5_2 C8_2 1_555 1_555
N6_2 C12_2 1_555 1_555
O1_2 C15_2 1_555 1_555
O2_2 C15_2 1_555 1_555
Cd2_2 N6_2 1_555 1_555
H24_2 C37_2 1_555 1_555
C40 H26 1_555 1_555
N14_2 C40 1_555 1_555
C42_2 H28_2 1_555 1_555
C43_2 H29_2 1_555 1_555
C44_2 C43_2 1_555 1_555
H30_2 C44_2 1_555 1_555
C45_2 C46_2 1_555 1_555
C46_2 C47_2 1_555 1_555
C47_2 H31_2 1_555 1_555
H34_2 C50_2 1_555 1_555
C51_2 C46_2 1_555 1_555
C52_2 C53_2 1_555 1_555
C53_2 H35_2 1_555 1_555
C57_2 C52_2 1_555 1_555
H37_2 C57_2 1_555 1_555
C58_2 C56_2 1_555 1_555
N12_2 Cd2_2 1_555 1_555
O8_2 Cd2_2 1_555 1_555
O9_2 Cd2_2 1_555 1_555
O10_2 C51_2 1_555 1_555
O11 C58_2 1_555 1_555
O12 C58_2 1_555 1_555
C3_2 N3_2 1_555 1_555
C4_2 N3_2 1_555 1_555
C8_2 C9_2 1_555 1_555
C10 N4 1_555 1_555
C11 N4 1_555 1_555
C11 C30 1_555 1_555
C12_2 N5_2 1_555 1_555
C13_2 N6_2 1_555 1_555
C14_2 N5_2 1_555 1_555
O1_2 Cd2_2 1_555 1_555
O2_2 Cd2_2 1_555 1_555
C42_2 N11_2 1_555 1_555
C42_2 N12_2 1_555 1_555
C43_2 N12_2 1_555 1_555
C44_2 N11_2 1_555 1_555
C45_2 O8_2 1_555 1_555
C45_2 O9_2 1_555 1_555
C50_2 C51_2 1_555 1_555
C52_2 O10_2 1_555 1_555
C56_2 C57_2 1_555 1_555
C10_2 H7_2 1_555 1_555
N13 C10_2 1_555 1_555
C11_2 H8_2 1_555 1_555
C30_2 N13 1_555 1_555
C40_2 H26_2 1_555 1_555
N14 C40_2 1_555 1_555
C10_2 N4_2 1_555 1_555
C11_2 N4_2 1_555 1_555
C11_2 C30_2 1_555 1_555
H13_2 C18_2 1_555 1_555
C19_2 C18_2 1_555 1_555
H14_2 C19_2 1_555 1_555
C1_3 H1_3 1_555 1_555
H3_3 C3_3 1_555 1_555
C4_3 C5_3 1_555 1_555
C5_3 H4_3 1_555 1_555
C6_3 C5_3 1_555 1_555
C7_3 C6_3 1_555 1_555
H5_3 C7_3 1_555 1_555
C8_3 C7_3 1_555 1_555
C9_3 C4_3 1_555 1_555
H6_3 C9_3 1_555 1_555
C10_3 H7_3 1_555 1_555
N1 C10_3 1_555 1_555
C11_3 H8_3 1_555 1_555
C12_3 H9_3 1_555 1_555
C13_3 H10_3 1_555 1_555
C14_3 C13_3 1_555 1_555
H11_3 C14_3 1_555 1_555
C17_3 H12_3 1_555 1_555
N3_3 C1_3 1_555 1_555
N4_3 C6_3 1_555 1_555
C30_3 N1 1_555 1_555
H19_2 C30_3 1_555 1_555
N5_3 C8_3 1_555 1_555
N6_3 C12_3 1_555 1_555
O1_3 C15_3 1_555 1_555
O2_3 C15_3 1_555 1_555
Cd2_3 N6_3 1_555 1_555
H24_3 C37_3 1_555 1_555
C40_3 H26_3 1_555 1_555
N7 C40_3 1_555 1_555
C42_3 H28_3 1_555 1_555
C43_3 H29_3 1_555 1_555
C44_3 C43_3 1_555 1_555
H30_3 C44_3 1_555 1_555
C45_3 C46_3 1_555 1_555
C46_3 C47_3 1_555 1_555
C47_3 H31_3 1_555 1_555
H34_3 C50_3 1_555 1_555
C51_3 C46_3 1_555 1_555
C52_3 C53_3 1_555 1_555
C53_3 H35_3 1_555 1_555
C57_3 C52_3 1_555 1_555
H37_3 C57_3 1_555 1_555
C58_3 C56_3 1_555 1_555
N12_3 Cd2_3 1_555 1_555
O8_3 Cd2_3 1_555 1_555
O9_3 Cd2_3 1_555 1_555
O10_3 C51_3 1_555 1_555
O11_2 C58_3 1_555 1_555
O12_2 C58_3 1_555 1_555
Cd8 N7 1_555 1_555
Cd9 N1 1_555 1_555
C3_3 N3_3 1_555 1_555
C4_3 N3_3 1_555 1_555
C8_3 C9_3 1_555 1_555
C10_3 N4_3 1_555 1_555
C11_3 N4_3 1_555 1_555
C11_3 C30_3 1_555 1_555
C12_3 N5_3 1_555 1_555
C13_3 N6_3 1_555 1_555
C14_3 N5_3 1_555 1_555
O1_3 Cd2_3 1_555 1_555
O2_3 Cd2_3 1_555 1_555
C42_3 N11_3 1_555 1_555
C42_3 N12_3 1_555 1_555
C43_3 N12_3 1_555 1_555
C44_3 N11_3 1_555 1_555
C45_3 O8_3 1_555 1_555
C45_3 O9_3 1_555 1_555
C50_3 C51_3 1_555 1_555
C52_3 O10_3 1_555 1_555
C56_3 C57_3 1_555 1_555
C10_4 H7_4 1_555 1_555
N1_2 C10_4 1_555 1_555
C11_4 H8_4 1_555 1_555
C30_4 N1_2 1_555 1_555
C40_4 H26_4 1_555 1_555
N7_2 C40_4 1_555 1_555
Cd8_2 N7_2 1_555 1_555
Cd9_2 N1_2 1_555 1_555
C10_4 N4_4 1_555 1_555
C11_4 N4_4 1_555 1_555
C11_4 C30_4 1_555 1_555
C2_3 H2_3 1_555 1_555
Cd8_2 N2_3 1_555 1_555
H36_3 C54_3 1_555 1_555
C55_3 C54_3 1_555 1_555
C59_3 C55_3 1_555 1_555
O13_2 C59_3 1_555 1_555
O14_2 C59_3 1_555 1_555
O16_2 Cd8_2 1_555 1_555
O18_2 Cd8_2 1_555 1_555
O19_2 Cd8_2 1_555 1_555
O21_2 Cd8_2 1_555 1_555
Cd9_2 O13_2 1_555 1_555
C2_3 N2_3 1_555 1_555
O14_2 Cd9_2 1_555 1_555
H15_3 C20_3 1_555 1_555
C21_3 C16_3 1_555 1_555
C22_3 C23_3 1_555 1_555
C23_3 H16_3 1_555 1_555
C24_3 C23_3 1_555 1_555
H17_3 C24_3 1_555 1_555
C25_3 C24_3 1_555 1_555
C26_3 C25_3 1_555 1_555
C27_3 C22_3 1_555 1_555
H18_3 C27_3 1_555 1_555
C28_3 C26_3 1_555 1_555
C29_3 C25_3 1_555 1_555
O3_3 C21_3 1_555 1_555
O4_2 C28_3 1_555 1_555
O5_2 C28_3 1_555 1_555
O19_2 C29_3 1_555 1_555
O21_2 C29_3 1_555 1_555
C31_3 H20_3 1_555 1_555
C32_3 H21_3 1_555 1_555
C33_3 C32_3 1_555 1_555
H22_3 C33_3 1_555 1_555
C34_3 C35_3 1_555 1_555
C35_3 H23_3 1_555 1_555
C36_3 C35_3 1_555 1_555
C39_3 C34_3 1_555 1_555
H25_3 C39_3 1_555 1_555
C41_2 H27_2 1_555 1_555
N8_3 C31_3 1_555 1_555
N9_3 C31_3 1_555 1_555
N10_2 C36_3 1_555 1_555
Cd9_2 N8_3 1_555 1_555
Cd9 O4_2 1_555 1_555
C20_3 C21_3 1_555 1_555
C22_3 O3_3 1_555 1_555
C26_3 C27_3 1_555 1_555
O5_2 Cd9 1_555 1_555
C32_3 N8_3 1_555 1_555
C33_3 N9_3 1_555 1_555
C34_3 N9_3 1_555 1_555
C38_3 C39_3 1_555 1_555
C41_2 N10_2 1_555 1_555
C41_2 C60_2 1_555 1_555
H13_3 C18_3 1_555 1_555
C19_3 C18_3 1_555 1_555
H14_3 C19_3 1_555 1_555
C20_4 C19_3 1_555 1_555
H15_4 C20_4 1_555 1_555
C21_4 C16_4 1_555 1_555
C22_4 C23_4 1_555 1_555
C23_4 H16_4 1_555 1_555
C24_4 C23_4 1_555 1_555
H17_4 C24_4 1_555 1_555
C25_4 C24_4 1_555 1_555
C26_4 C25_4 1_555 1_555
C27_4 C22_4 1_555 1_555
H18_4 C27_4 1_555 1_555
C28_4 C26_4 1_555 1_555
C29_4 C25_4 1_555 1_555
O3_4 C21_4 1_555 1_555
O15_2 C28_4 1_555 1_555
O17_2 C28_4 1_555 1_555
O6_2 C29_4 1_555 1_555
O7_2 C29_4 1_555 1_555
C31_4 H20_4 1_555 1_555
C32_4 H21_4 1_555 1_555
C33_4 C32_4 1_555 1_555
H22_4 C33_4 1_555 1_555
C34_4 C35_4 1_555 1_555
C35_4 H23_4 1_555 1_555
C36_4 C35_4 1_555 1_555
C39_4 C34_4 1_555 1_555
H25_4 C39_4 1_555 1_555
N8_4 C31_4 1_555 1_555
N9_4 C31_4 1_555 1_555
Cd9 N8_4 1_555 1_555
O20_2 Cd9 1_555 1_555
O22_2 Cd9 1_555 1_555
Cd8 O6_2 1_555 1_555
C20_4 C21_4 1_555 1_555
C22_4 O3_4 1_555 1_555
C26_4 C27_4 1_555 1_555
O7_2 Cd8 1_555 1_555
C32_4 N8_4 1_555 1_555
C33_4 N9_4 1_555 1_555
C34_4 N9_4 1_555 1_555
C38_4 C39_4 1_555 1_555
C1_4 H1_4 1_555 1_555
H3_4 C3_4 1_555 1_555
C4_4 C5_4 1_555 1_555
C5_4 H4_4 1_555 1_555
C6_4 C5_4 1_555 1_555
C7_4 C6_4 1_555 1_555
H5_4 C7_4 1_555 1_555
C8_4 C7_4 1_555 1_555
C9_4 C4_4 1_555 1_555
H6_4 C9_4 1_555 1_555
C12_4 H9_4 1_555 1_555
C13_4 H10_4 1_555 1_555
C14_4 C13_4 1_555 1_555
H11_4 C14_4 1_555 1_555
C17_4 H12_4 1_555 1_555
N3_4 C1_4 1_555 1_555
N5_4 C8_4 1_555 1_555
N6_4 C12_4 1_555 1_555
O1_4 C15_4 1_555 1_555
O2_4 C15_4 1_555 1_555
Cd2_4 N6_4 1_555 1_555
H24_4 C37_4 1_555 1_555
C42_4 H28_4 1_555 1_555
C43_4 H29_4 1_555 1_555
C44_4 C43_4 1_555 1_555
H30_4 C44_4 1_555 1_555
C45_4 C46_4 1_555 1_555
C46_4 C47_4 1_555 1_555
C47_4 H31_4 1_555 1_555
C48_2 C47_4 1_555 1_555
H32_2 C48_2 1_555 1_555
C49_2 C48_2 1_555 1_555
H33_2 C49_2 1_555 1_555
C50_4 C49_2 1_555 1_555
H34_4 C50_4 1_555 1_555
C51_4 C46_4 1_555 1_555
C52_4 C53_4 1_555 1_555
C53_4 H35_4 1_555 1_555
C57_4 C52_4 1_555 1_555
H37_4 C57_4 1_555 1_555
C58_4 C56_4 1_555 1_555
N12_4 Cd2_4 1_555 1_555
O8_4 Cd2_4 1_555 1_555
O9_4 Cd2_4 1_555 1_555
O10_4 C51_4 1_555 1_555
O16_2 C58_4 1_555 1_555
O18_2 C58_4 1_555 1_555
C3_4 N3_4 1_555 1_555
C4_4 N3_4 1_555 1_555
C8_4 C9_4 1_555 1_555
C12_4 N5_4 1_555 1_555
C13_4 N6_4 1_555 1_555
C14_4 N5_4 1_555 1_555
O1_4 Cd2_4 1_555 1_555
O2_4 Cd2_4 1_555 1_555
C42_4 N11_4 1_555 1_555
C42_4 N12_4 1_555 1_555
C43_4 N12_4 1_555 1_555
C44_4 N11_4 1_555 1_555
C45_4 O8_4 1_555 1_555
C45_4 O9_4 1_555 1_555
C50_4 C51_4 1_555 1_555
C52_4 O10_4 1_555 1_555
C56_4 C57_4 1_555 1_555
C2_4 H2_4 1_555 1_555
Cd8 N2_4 1_555 1_555
H36_4 C54_4 1_555 1_555
C55_4 C54_4 1_555 1_555
C59_4 C55_4 1_555 1_555
O20_2 C59_4 1_555 1_555
O22_2 C59_4 1_555 1_555
C2_4 N2_4 1_555 1_555
H32_3 C48_3 1_555 1_555
C49_3 C48_3 1_555 1_555
H33_3 C49_3 1_555 1_555
C41_3 H27_3 1_555 1_555
H38_3 C60_3 1_555 1_555
C41_3 N10_3 1_555 1_555
C41_3 C60_3 1_555 1_555
H32_4 C48_4 1_555 1_555
C49_4 C48_4 1_555 1_555
H33_4 C49_4 1_555 1_555
H13_4 C18_4 1_555 1_555
C19_4 C18_4 1_555 1_555
H14_4 C19_4 1_555 1_555
C41_4 H27_4 1_555 1_555
H38_4 C60_4 1_555 1_555
C41_4 N10_4 1_555 1_555
C41_4 C60_4 1_555 1_555

#END
