
###############################################################################
#
# This file contains modified crystal structure data generated from the
# MOF subset of the Cambridge Structural Database (CSD) v543 
# hosted by the Cambridge Crystallographic Data Centre (CCDC).
#
# This work is licensed under the Creative Commons
# Attribution-NonCommercial-ShareAlike 4.0 International License.
# To view a copy of this license, visit
# http://creativecommons.org/licenses/by-nc-sa/4.0/
# or send a letter to
# Creative Commons, PO Box 1866, Mountain View, CA 94042, USA.
#
# CIF created using the CSD Python API on 29 September 2022
# The structure has been converted into the P1 space group
# The structure has a 3D framework
# The original CSD entry COBWEV is in the monoclinic crystal system
# The original CSD entry COBWEV is in a Sohncke space group
# The framework has been calculated to contain at least 10.0% void space
# The void calculation uses a probe of radius 1.32A, grid spacing 0.4
# H atom positions have been added when not included in the experimental data
#
###############################################################################

data_COBWEV
_chemical_formula_moiety         '(C72 H116 Cd10 N24 O64 P8)n'
_symmetry_cell_setting           triclinic
_symmetry_space_group_name_H-M   'P 1'
_symmetry_Int_Tables_number      1
_space_group_name_Hall           'P 1'
loop_
_symmetry_equiv_pos_site_id
_symmetry_equiv_pos_as_xyz
1 x,y,z
_cell_length_a                   30.809(9)
_cell_length_b                   5.369(2)
_cell_length_c                   25.126(8)
_cell_angle_alpha                90
_cell_angle_beta                 127.61(2)
_cell_angle_gamma                90
_cell_volume                     3292.46
loop_
_atom_site_label
_atom_site_type_symbol
_atom_site_fract_x
_atom_site_fract_y
_atom_site_fract_z
O19 O 0.2035(9) 0.080(5) 0.4744(11)
O20 O 0.3261(9) 0.167(5) 0.5874(12)
N7 N 0.2860(12) 0.044(7) 0.6831(15)
O18 O 0.7029(11) 0.282(6) 0.0376(14)
Cd1 Cd 0.2640(1) 0.8850(7) 0.5768(1)
Cd2 Cd 0.6865(1) -0.0000 0.9580(1)
O1 O 0.1874(9) 0.630(5) 0.5295(11)
P2 P 0.3310(4) 0.440(2) 0.5921(5)
O4 O 0.3921(9) 0.492(6) 0.6208(11)
O6 O 0.2965(9) 0.580(5) 0.5256(11)
O8 O 0.3216(9) 0.565(5) 0.6387(11)
N2 N 0.5402(15) 0.348(8) 0.7903(18)
C2 C 0.5908(15) 0.253(8) 0.8464(18)
O12 O 0.6340(10) 0.317(5) 0.8615(11)
N4 N 0.5963(13) 0.049(8) 0.8860(16)
C6 C 0.4899(17) 0.085(9) 0.8096(20)
C8 C 0.4835(18) 0.289(10) 0.7677(22)
C10 C 0.5463(18) 0.571(10) 0.7526(22)
C12 C 0.5481(24) 0.456(16) 0.6945(31)
C14 C 0.4917(22) 0.532(14) 0.6343(27)
C16 C 0.4689(19) 0.739(10) 0.6496(24)
O14 O 0.4982(13) 0.702(7) 0.7218(16)
O16 O 0.4950(22) 0.542(14) 0.5743(27)
C18 C 0.4075(18) 0.718(9) 0.6158(22)
Cd3 Cd 0.2360(1) 0.3850(7) 0.4232(1)
O17 O 0.7597(9) 0.174(5) 0.9710(11)
H1 H 0.199358 0.459187 0.548181
H2 H 0.163523 0.697812 0.540163
H5 H 0.546797 0.111814 0.89945
H8 H 0.505176 0.37518 0.568004
H9 H 0.553243 0.254525 0.698624
H10 H 0.580149 0.540244 0.694289
H13 H 0.397371 0.852276 0.639179
H14 H 0.3848 0.762639 0.56274
H15 H 0.445457 0.380949 0.727967
H22 H 0.581952 0.686642 0.787559
H23 H 0.47873 0.91911 0.63946
H25 H 0.453416 0.00486717 0.800447
H29 H 0.46568 0.372444 0.623618
P1 P 0.7018(5) 0.542(2) 0.0425(5)
O3 O 0.7304(9) 0.586(5) 0.1213(12)
O5 O 0.7403(9) 0.674(5) 0.0290(11)
O7 O 0.6455(11) 0.663(6) 0.0079(14)
N1 N 0.7458(11) 0.353(7) 0.2847(15)
C1 C 0.7536(16) 0.200(8) 0.3422(20)
O11 O 0.7959(10) 0.226(5) 0.4006(12)
N3 N 0.7140(12) 0.044(7) 0.3169(15)
C5 C 0.6604(15) 0.135(9) 0.1969(19)
C7 C 0.6991(15) 0.320(7) 0.2181(18)
C9 C 0.7906(16) 0.507(11) 0.3085(19)
C11 C 0.8416(15) 0.406(10) 0.3225(18)
C13 C 0.8251(16) 0.449(9) 0.2550(20)
C15 C 0.8033(14) 0.724(7) 0.2350(17)
O13 O 0.7651(10) 0.716(5) 0.2549(12)
O15 O 0.8737(11) 0.453(7) 0.2548(13)
C17 C 0.7624(14) 0.796(8) 0.1571(17)
Cd5 Cd 0.8135(1) 0.5000 0.0420(1)
H6 H 0.847929 0.209624 0.336173
H7 H 0.877966 0.511208 0.360907
H11 H 0.802027 0.590784 0.354929
H12 H 0.893075 0.290628 0.271269
H16 H 0.692815 0.448629 0.180446
H17 H 0.736071 0.949196 0.14976
H18 H 0.785758 0.851275 0.139591
H21 H 0.835985 0.860261 0.264225
H24 H 0.794392 0.315018 0.219017
H26 H 0.626283 0.107573 0.144059
Cd2_2 Cd 0.6865(1) 1.0000 0.9580(1)
O2 O 0.6794(9) 0.764(5) 0.8764(11)
C4 C 0.5436(18) 0.982(10) 0.8639(20)
N6 N 0.5441(15) 0.781(8) 0.8996(19)
H3 H 0.662373 0.601012 0.87234
H4 H 0.656298 0.853049 0.832726
H19 H 0.566585 0.826014 0.949019
H20 H 0.50515 0.740566 0.881667
C3 C 0.6686(15) 0.968(9) 0.2533(19)
N5 N 0.6340(12) 0.787(7) 0.2410(15)
Cd7 Cd 0.7360(1) 0.8850(7) 0.4232(1)
H27 H 0.601976 0.744302 0.192932
H28 H 0.639657 0.69177 0.279695
P1_2 P 0.2018(5) 0.042(2) 0.0425(5)
O3_2 O 0.2304(9) 0.086(5) 0.1213(12)
O5_2 O 0.2403(9) 0.174(5) 0.0290(11)
O7_2 O 0.1455(11) 0.163(6) 0.0079(14)
C9_2 C 0.2906(16) 0.007(11) 0.3085(19)
C15_2 C 0.3033(14) 0.224(7) 0.2350(17)
O13_2 O 0.2651(10) 0.216(5) 0.2549(12)
C17_2 C 0.2624(14) 0.296(8) 0.1571(17)
O18_2 O 0.2029(11) 0.782(6) 0.0376(14)
Cd5_2 Cd 0.3135(1) -0.0000 0.0420(1)
H7_2 H 0.377966 0.0112079 0.360907
H11_2 H 0.302027 0.0907842 0.354929
H17_2 H 0.236071 0.449196 0.14976
H18_2 H 0.285758 0.351275 0.139591
H21_2 H 0.335985 0.360261 0.264225
Cd2_3 Cd 0.1865(1) 0.5000 0.9580(1)
O2_2 O 0.1794(9) 0.264(5) 0.8764(11)
N2_2 N 0.0402(15) 0.848(8) 0.7903(18)
C2_2 C 0.0908(15) 0.753(8) 0.8464(18)
O12_2 O 0.1340(10) 0.817(5) 0.8615(11)
N4_2 N 0.0963(13) 0.549(8) 0.8860(16)
C4_2 C 0.0436(18) 0.482(10) 0.8639(20)
N6_2 N 0.0441(15) 0.281(8) 0.8996(19)
C12_2 C 0.0481(24) 0.956(16) 0.6945(31)
O17_2 O 0.2597(9) 0.674(5) 0.9710(11)
H3_2 H 0.162373 0.101012 0.87234
H4_2 H 0.156298 0.353049 0.832726
H5_2 H 0.0467974 0.611814 0.89945
H8_2 H 0.00517583 0.87518 0.568004
H9_2 H 0.0532426 0.754525 0.698624
H19_2 H 0.0665851 0.326014 0.949019
H20_2 H 0.00514975 0.240566 0.881667
N1_2 N 0.2458(11) 0.853(7) 0.2847(15)
C1_2 C 0.2536(16) 0.700(8) 0.3422(20)
O11_2 O 0.2959(10) 0.726(5) 0.4006(12)
N3_2 N 0.2140(12) 0.544(7) 0.3169(15)
C3_2 C 0.1686(15) 0.468(9) 0.2533(19)
N5_2 N 0.1340(12) 0.287(7) 0.2410(15)
C5_2 C 0.1604(15) 0.635(9) 0.1969(19)
C7_2 C 0.1991(15) 0.820(7) 0.2181(18)
C11_2 C 0.3416(15) 0.906(10) 0.3225(18)
C13_2 C 0.3251(16) 0.949(9) 0.2550(20)
O15_2 O 0.3737(11) 0.953(7) 0.2548(13)
Cd5_3 Cd 0.3135(1) 1.0000 0.0420(1)
H6_2 H 0.347929 0.709624 0.336173
H12_2 H 0.393075 0.790628 0.271269
H16_2 H 0.192815 0.948629 0.180446
H24_2 H 0.294392 0.815018 0.219017
H26_2 H 0.126283 0.607573 0.144059
H27_2 H 0.101976 0.244302 0.192932
H28_2 H 0.139657 0.19177 0.279695
Cd1_2 Cd 0.7640(1) 0.3850(7) 0.5768(1)
O1_2 O 0.6874(9) 0.130(5) 0.5295(11)
O6_2 O 0.7965(9) 0.080(5) 0.5256(11)
O8_2 O 0.8216(9) 0.065(5) 0.6387(11)
C14_2 C 0.9917(22) 0.032(14) 0.6343(27)
C16_2 C 0.9689(19) 0.239(10) 0.6496(24)
O14_2 O 0.9982(13) 0.202(7) 0.7218(16)
O16_2 O 0.9950(22) 0.042(14) 0.5743(27)
C18_2 C 0.9075(18) 0.218(9) 0.6158(22)
O19_2 O 0.7035(9) 0.580(5) 0.4744(11)
O20_2 O 0.8261(9) 0.667(5) 0.5874(12)
N7_2 N 0.7860(12) 0.544(7) 0.6831(15)
H2_2 H 0.663523 0.197812 0.540163
H13_2 H 0.897371 0.352276 0.639179
H14_2 H 0.8848 0.262639 0.56274
H23_2 H 0.97873 0.41911 0.63946
P2_2 P 0.8310(4) 0.940(2) 0.5921(5)
O4_2 O 0.8921(9) 0.992(6) 0.6208(11)
C6_2 C 0.9899(17) 0.585(9) 0.8096(20)
C8_2 C 0.9835(18) 0.789(10) 0.7677(22)
H1_2 H 0.699358 0.959187 0.548181
H15_2 H 0.945457 0.880949 0.727967
H25_2 H 0.953416 0.504867 0.800447
H29_2 H 0.96568 0.872444 0.623618
O20_3 O 0.6739(9) 0.167(5) 0.4126(12)
O1_3 O 0.8126(9) 0.630(5) 0.4705(11)
P2_3 P 0.6690(4) 0.440(2) 0.4079(5)
O4_3 O 0.6079(9) 0.492(6) 0.3792(11)
O8_3 O 0.6784(9) 0.565(5) 0.3613(11)
N2_3 N 0.4598(15) 0.348(8) 0.2097(18)
C2_3 C 0.4092(15) 0.253(8) 0.1536(18)
O12_3 O 0.3660(10) 0.317(5) 0.1385(11)
N4_3 N 0.4037(13) 0.049(8) 0.1140(16)
C6_3 C 0.5101(17) 0.085(9) 0.1904(20)
C8_3 C 0.5165(18) 0.289(10) 0.2323(22)
C10_2 C 0.4537(18) 0.571(10) 0.2474(22)
C12_3 C 0.4519(24) 0.456(16) 0.3055(31)
C14_3 C 0.5083(22) 0.532(14) 0.3657(27)
C16_3 C 0.5311(19) 0.739(10) 0.3504(24)
O14_3 O 0.5018(13) 0.702(7) 0.2782(16)
O16_3 O 0.5050(22) 0.542(14) 0.4257(27)
C18_3 C 0.5925(18) 0.718(9) 0.3842(22)
H1_3 H 0.800642 0.459187 0.451819
H2_3 H 0.836477 0.697812 0.459837
H5_3 H 0.453203 0.111814 0.10055
H8_3 H 0.494824 0.37518 0.431996
H9_3 H 0.446757 0.254525 0.301376
H10_2 H 0.419851 0.540244 0.305711
H13_3 H 0.602629 0.852276 0.360821
H14_3 H 0.6152 0.762639 0.43726
H15_3 H 0.554543 0.380949 0.272033
H22_2 H 0.418048 0.686642 0.212441
H23_3 H 0.52127 0.91911 0.36054
H25_3 H 0.546584 0.00486717 0.199553
H29_3 H 0.53432 0.372444 0.376382
O18_3 O 0.2971(11) 0.282(6) 0.9624(14)
O2_3 O 0.3206(9) 0.764(5) 0.1236(11)
C4_3 C 0.4564(18) 0.982(10) 0.1361(20)
N6_3 N 0.4559(15) 0.781(8) 0.1004(19)
H3_3 H 0.337627 0.601012 0.12766
H4_3 H 0.343702 0.853049 0.167274
H19_3 H 0.433415 0.826014 0.0509808
H20_3 H 0.49485 0.740566 0.118333
P1_3 P 0.2982(5) 0.542(2) 0.9575(5)
O3_3 O 0.2696(9) 0.586(5) 0.8787(12)
O7_3 O 0.3545(11) 0.663(6) 0.9921(14)
N1_3 N 0.2542(11) 0.353(7) 0.7153(15)
C1_3 C 0.2464(16) 0.200(8) 0.6578(20)
O11_3 O 0.2041(10) 0.226(5) 0.5994(12)
C5_3 C 0.3396(15) 0.135(9) 0.8031(19)
C7_3 C 0.3009(15) 0.320(7) 0.7819(18)
C9_3 C 0.2094(16) 0.507(11) 0.6915(19)
C11_3 C 0.1584(15) 0.406(10) 0.6775(18)
C13_3 C 0.1749(16) 0.449(9) 0.7450(20)
C15_3 C 0.1967(14) 0.724(7) 0.7650(17)
O13_3 O 0.2349(10) 0.716(5) 0.7451(12)
O15_3 O 0.1263(11) 0.453(7) 0.7452(13)
C17_3 C 0.2376(14) 0.796(8) 0.8429(17)
H6_3 H 0.152071 0.209624 0.663827
H7_3 H 0.122034 0.511208 0.639093
H11_3 H 0.197973 0.590784 0.645071
H12_3 H 0.106925 0.290628 0.728731
H16_3 H 0.307185 0.448629 0.819554
H17_3 H 0.263929 0.949196 0.85024
H18_3 H 0.214242 0.851275 0.860409
H21_3 H 0.164015 0.860261 0.735775
H24_3 H 0.205608 0.315018 0.780983
H26_3 H 0.373717 0.107573 0.855941
C3_3 C 0.3314(15) 0.968(9) 0.7467(19)
N5_3 N 0.3660(12) 0.787(7) 0.7590(15)
H27_3 H 0.398024 0.744302 0.807068
H28_3 H 0.360343 0.69177 0.720305
O1_4 O 0.3126(9) 0.130(5) 0.4705(11)
O8_4 O 0.1784(9) 0.065(5) 0.3613(11)
C14_4 C 0.0083(22) 0.032(14) 0.3657(27)
C16_4 C 0.0311(19) 0.239(10) 0.3504(24)
O14_4 O 0.0018(13) 0.202(7) 0.2782(16)
O16_4 O 0.0050(22) 0.042(14) 0.4257(27)
C18_4 C 0.0925(18) 0.218(9) 0.3842(22)
O20_4 O 0.1739(9) 0.667(5) 0.4126(12)
H2_4 H 0.336477 0.197812 0.459837
H13_4 H 0.102629 0.352276 0.360821
H14_4 H 0.1152 0.262639 0.43726
H23_4 H 0.0212701 0.41911 0.36054
P2_4 P 0.1690(4) 0.940(2) 0.4079(5)
O4_4 O 0.1079(9) 0.992(6) 0.3792(11)
C6_4 C 0.0101(17) 0.585(9) 0.1904(20)
C8_4 C 0.0165(18) 0.789(10) 0.2323(22)
H1_4 H 0.300642 0.959187 0.451819
H15_4 H 0.0545431 0.880949 0.272033
H25_4 H 0.0465838 0.504867 0.199553
H29_4 H 0.03432 0.872444 0.376382
O2_4 O 0.8206(9) 0.264(5) 0.1236(11)
N2_4 N 0.9598(15) 0.848(8) 0.2097(18)
C2_4 C 0.9092(15) 0.753(8) 0.1536(18)
O12_4 O 0.8660(10) 0.817(5) 0.1385(11)
N4_4 N 0.9037(13) 0.549(8) 0.1140(16)
C4_4 C 0.9564(18) 0.482(10) 0.1361(20)
N6_4 N 0.9559(15) 0.281(8) 0.1004(19)
C12_4 C 0.9519(24) 0.956(16) 0.3055(31)
H3_4 H 0.837627 0.101012 0.12766
H4_4 H 0.843702 0.353049 0.167274
H5_4 H 0.953203 0.611814 0.10055
H8_4 H 0.994824 0.87518 0.431996
H9_4 H 0.946757 0.754525 0.301376
H19_4 H 0.933415 0.326014 0.0509808
H20_4 H 0.99485 0.240566 0.118333
P1_4 P 0.7982(5) 0.042(2) 0.9575(5)
O3_4 O 0.7696(9) 0.086(5) 0.8787(12)
O7_4 O 0.8545(11) 0.163(6) 0.9921(14)
C9_4 C 0.7094(16) 0.007(11) 0.6915(19)
C15_4 C 0.6967(14) 0.224(7) 0.7650(17)
O13_4 O 0.7349(10) 0.216(5) 0.7451(12)
C17_4 C 0.7376(14) 0.296(8) 0.8429(17)
O18_4 O 0.7971(11) 0.782(6) 0.9624(14)
H7_4 H 0.622034 0.0112079 0.639093
H11_4 H 0.697973 0.0907842 0.645071
H17_4 H 0.763929 0.449196 0.85024
H18_4 H 0.714242 0.351275 0.860409
H21_4 H 0.664015 0.360261 0.735775
N1_4 N 0.7542(11) 0.853(7) 0.7153(15)
C1_4 C 0.7464(16) 0.700(8) 0.6578(20)
O11_4 O 0.7041(10) 0.726(5) 0.5994(12)
C3_4 C 0.8314(15) 0.468(9) 0.7467(19)
N5_4 N 0.8660(12) 0.287(7) 0.7590(15)
C5_4 C 0.8396(15) 0.635(9) 0.8031(19)
C7_4 C 0.8009(15) 0.820(7) 0.7819(18)
C11_4 C 0.6584(15) 0.906(10) 0.6775(18)
C13_4 C 0.6749(16) 0.949(9) 0.7450(20)
O15_4 O 0.6263(11) 0.953(7) 0.7452(13)
H6_4 H 0.652071 0.709624 0.663827
H12_4 H 0.606925 0.790628 0.728731
H16_4 H 0.807185 0.948629 0.819554
H24_4 H 0.705608 0.815018 0.780983
H26_4 H 0.873717 0.607573 0.855941
H27_4 H 0.898024 0.244302 0.807068
H28_4 H 0.860343 0.19177 0.720305
C10_3 C 0.0463(18) 0.071(10) 0.7526(22)
H10_3 H 0.0801486 0.0402443 0.694289
H22_3 H 0.0819522 0.186642 0.787559
C10_4 C 0.9537(18) 0.071(10) 0.2474(22)
H10_4 H 0.919851 0.0402443 0.305711
H22_4 H 0.918048 0.186642 0.212441
loop_
_geom_bond_atom_site_label_1
_geom_bond_atom_site_label_2
_geom_bond_site_symmetry_1
_geom_bond_site_symmetry_2
Cd1 O1 1_555 1_555
P2 O4 1_555 1_555
O4 C18 1_555 1_555
O6 Cd1 1_555 1_555
O8 Cd1 1_555 1_555
O20 P2 1_555 1_555
N2 C2 1_555 1_555
C2 O12 1_555 1_555
O12 Cd2 1_555 1_555
N4 Cd2 1_555 1_555
C8 N2 1_555 1_555
C10 N2 1_555 1_555
C12 C10 1_555 1_555
C14 C12 1_555 1_555
C16 C14 1_555 1_555
O14 C10 1_555 1_555
O16 C14 1_555 1_555
C18 C16 1_555 1_555
Cd3 O6 1_555 1_555
O17 Cd2 1_555 1_555
P2 O6 1_555 1_555
P2 O8 1_555 1_555
C2 N4 1_555 1_555
C6 C8 1_555 1_555
C16 O14 1_555 1_555
O1 H1 1_555 1_555
O1 H2 1_555 1_555
O16 H8 1_555 1_555
C12 H9 1_555 1_555
C12 H10 1_555 1_555
C18 H13 1_555 1_555
C18 H14 1_555 1_555
C8 H15 1_555 1_555
C10 H22 1_555 1_555
C16 H23 1_555 1_555
C6 H25 1_555 1_555
C14 H29 1_555 1_555
P1 O3 1_555 1_555
O3 C17 1_555 1_555
O7 P1 1_555 1_555
O18 P1 1_555 1_555
N1 C1 1_555 1_555
C1 O11 1_555 1_555
N3 C1 1_555 1_555
C7 N1 1_555 1_555
C9 N1 1_555 1_555
C11 C9 1_555 1_555
C13 C11 1_555 1_555
C15 C13 1_555 1_555
O13 C9 1_555 1_555
O15 C13 1_555 1_555
C17 C15 1_555 1_555
Cd5 O5 1_555 1_555
P1 O5 1_555 1_555
C5 C7 1_555 1_555
C15 O13 1_555 1_555
C11 H6 1_555 1_555
C11 H7 1_555 1_555
C9 H11 1_555 1_555
O15 H12 1_555 1_555
C7 H16 1_555 1_555
C17 H17 1_555 1_555
C17 H18 1_555 1_555
C15 H21 1_555 1_555
C13 H24 1_555 1_555
C5 H26 1_555 1_555
Cd2_2 O2 1_555 1_555
N6 C4 1_555 1_555
O2 H3 1_555 1_555
O2 H4 1_555 1_555
N6 H19 1_555 1_555
N6 H20 1_555 1_555
N5 C3 1_555 1_555
N5 H27 1_555 1_555
N5 H28 1_555 1_555
P1_2 O3_2 1_555 1_555
O3_2 C17_2 1_555 1_555
O7_2 P1_2 1_555 1_555
O13_2 C9_2 1_555 1_555
C17_2 C15_2 1_555 1_555
Cd5_2 O5_2 1_555 1_555
P1_2 O5_2 1_555 1_555
C15_2 O13_2 1_555 1_555
C9_2 H11_2 1_555 1_555
C17_2 H17_2 1_555 1_555
C17_2 H18_2 1_555 1_555
C15_2 H21_2 1_555 1_555
Cd2_3 O2_2 1_555 1_555
N2_2 C2_2 1_555 1_555
C2_2 O12_2 1_555 1_555
O12_2 Cd2_3 1_555 1_555
N4_2 Cd2_3 1_555 1_555
C4_2 N4_2 1_555 1_555
N6_2 C4_2 1_555 1_555
O17_2 Cd2_3 1_555 1_555
C2_2 N4_2 1_555 1_555
O2_2 H3_2 1_555 1_555
O2_2 H4_2 1_555 1_555
C4_2 H5_2 1_555 1_555
C12_2 H9_2 1_555 1_555
N6_2 H19_2 1_555 1_555
N6_2 H20_2 1_555 1_555
N1_2 C1_2 1_555 1_555
C1_2 O11_2 1_555 1_555
N3_2 C1_2 1_555 1_555
C3_2 N3_2 1_555 1_555
N5_2 C3_2 1_555 1_555
C5_2 C3_2 1_555 1_555
C7_2 N1_2 1_555 1_555
C13_2 C11_2 1_555 1_555
O15_2 C13_2 1_555 1_555
Cd3 N3_2 1_555 1_555
C5_2 C7_2 1_555 1_555
C11_2 H6_2 1_555 1_555
O15_2 H12_2 1_555 1_555
C7_2 H16_2 1_555 1_555
C13_2 H24_2 1_555 1_555
C5_2 H26_2 1_555 1_555
N5_2 H27_2 1_555 1_555
N5_2 H28_2 1_555 1_555
Cd1_2 O1_2 1_555 1_555
O6_2 Cd1_2 1_555 1_555
O8_2 Cd1_2 1_555 1_555
C16_2 C14_2 1_555 1_555
O16_2 C14_2 1_555 1_555
C18_2 C16_2 1_555 1_555
O19_2 Cd1_2 1_555 1_555
O20_2 Cd1_2 1_555 1_555
N7_2 Cd1_2 1_555 1_555
C16_2 O14_2 1_555 1_555
O1_2 H2_2 1_555 1_555
C18_2 H13_2 1_555 1_555
C18_2 H14_2 1_555 1_555
C16_2 H23_2 1_555 1_555
P2_2 O4_2 1_555 1_555
O20_2 P2_2 1_555 1_555
C6_2 C8_2 1_555 1_555
C8_2 H15_2 1_555 1_555
C6_2 H25_2 1_555 1_555
Cd7 O1_3 1_555 1_555
P2_3 O4_3 1_555 1_555
O4_3 C18_3 1_555 1_555
O19_2 Cd7 1_555 1_555
O8_3 Cd7 1_555 1_555
O20_3 P2_3 1_555 1_555
N2_3 C2_3 1_555 1_555
C2_3 O12_3 1_555 1_555
O12_3 Cd5_2 1_555 1_555
N4_3 Cd5_2 1_555 1_555
C8_3 N2_3 1_555 1_555
C10_2 N2_3 1_555 1_555
C12_3 C10_2 1_555 1_555
C14_3 C12_3 1_555 1_555
C16_3 C14_3 1_555 1_555
O14_3 C10_2 1_555 1_555
O16_3 C14_3 1_555 1_555
C18_3 C16_3 1_555 1_555
P2_3 O19_2 1_555 1_555
P2_3 O8_3 1_555 1_555
C2_3 N4_3 1_555 1_555
C6_3 C8_3 1_555 1_555
C16_3 O14_3 1_555 1_555
O1_3 H1_3 1_555 1_555
O1_3 H2_3 1_555 1_555
O16_3 H8_3 1_555 1_555
C12_3 H9_3 1_555 1_555
C12_3 H10_2 1_555 1_555
C18_3 H13_3 1_555 1_555
C18_3 H14_3 1_555 1_555
C8_3 H15_3 1_555 1_555
C10_2 H22_2 1_555 1_555
C16_3 H23_3 1_555 1_555
C6_3 H25_3 1_555 1_555
C14_3 H29_3 1_555 1_555
Cd5_3 O2_3 1_555 1_555
N6_3 C4_3 1_555 1_555
O2_3 H3_3 1_555 1_555
O2_3 H4_3 1_555 1_555
N6_3 H19_3 1_555 1_555
N6_3 H20_3 1_555 1_555
P1_3 O3_3 1_555 1_555
O3_3 C17_3 1_555 1_555
O7_3 P1_3 1_555 1_555
O18_3 P1_3 1_555 1_555
N1_3 C1_3 1_555 1_555
C1_3 O11_3 1_555 1_555
N7 C1_3 1_555 1_555
C7_3 N1_3 1_555 1_555
C9_3 N1_3 1_555 1_555
C11_3 C9_3 1_555 1_555
C13_3 C11_3 1_555 1_555
C15_3 C13_3 1_555 1_555
O13_3 C9_3 1_555 1_555
O15_3 C13_3 1_555 1_555
C17_3 C15_3 1_555 1_555
P1_3 O17_2 1_555 1_555
C5_3 C7_3 1_555 1_555
C15_3 O13_3 1_555 1_555
C11_3 H6_3 1_555 1_555
C11_3 H7_3 1_555 1_555
C9_3 H11_3 1_555 1_555
O15_3 H12_3 1_555 1_555
C7_3 H16_3 1_555 1_555
C17_3 H17_3 1_555 1_555
C17_3 H18_3 1_555 1_555
C15_3 H21_3 1_555 1_555
C13_3 H24_3 1_555 1_555
C5_3 H26_3 1_555 1_555
N5_3 C3_3 1_555 1_555
N5_3 H27_3 1_555 1_555
N5_3 H28_3 1_555 1_555
Cd3 O1_4 1_555 1_555
O19 Cd3 1_555 1_555
O8_4 Cd3 1_555 1_555
C16_4 C14_4 1_555 1_555
O16_4 C14_4 1_555 1_555
C18_4 C16_4 1_555 1_555
O20_4 Cd3 1_555 1_555
C16_4 O14_4 1_555 1_555
O1_4 H2_4 1_555 1_555
C18_4 H13_4 1_555 1_555
C18_4 H14_4 1_555 1_555
C16_4 H23_4 1_555 1_555
P2_4 O4_4 1_555 1_555
O20_4 P2_4 1_555 1_555
C6_4 C8_4 1_555 1_555
C8_4 H15_4 1_555 1_555
C6_4 H25_4 1_555 1_555
Cd5 O2_4 1_555 1_555
N2_4 C2_4 1_555 1_555
C2_4 O12_4 1_555 1_555
O12_4 Cd5 1_555 1_555
N4_4 Cd5 1_555 1_555
C4_4 N4_4 1_555 1_555
N6_4 C4_4 1_555 1_555
C2_4 N4_4 1_555 1_555
O2_4 H3_4 1_555 1_555
O2_4 H4_4 1_555 1_555
C4_4 H5_4 1_555 1_555
C12_4 H9_4 1_555 1_555
N6_4 H19_4 1_555 1_555
N6_4 H20_4 1_555 1_555
P1_4 O3_4 1_555 1_555
O3_4 C17_4 1_555 1_555
O7_4 P1_4 1_555 1_555
O13_4 C9_4 1_555 1_555
C17_4 C15_4 1_555 1_555
P1_4 O17 1_555 1_555
C15_4 O13_4 1_555 1_555
C9_4 H11_4 1_555 1_555
C17_4 H17_4 1_555 1_555
C17_4 H18_4 1_555 1_555
C15_4 H21_4 1_555 1_555
N1_4 C1_4 1_555 1_555
C1_4 O11_4 1_555 1_555
N7_2 C1_4 1_555 1_555
C3_4 N7_2 1_555 1_555
N5_4 C3_4 1_555 1_555
C5_4 C3_4 1_555 1_555
C7_4 N1_4 1_555 1_555
C13_4 C11_4 1_555 1_555
O15_4 C13_4 1_555 1_555
C5_4 C7_4 1_555 1_555
C11_4 H6_4 1_555 1_555
O15_4 H12_4 1_555 1_555
C7_4 H16_4 1_555 1_555
C13_4 H24_4 1_555 1_555
C5_4 H26_4 1_555 1_555
N5_4 H27_4 1_555 1_555
N5_4 H28_4 1_555 1_555
C10_3 H22_3 1_555 1_555
C10_4 H22_4 1_555 1_555

#END
