
###############################################################################
#
# This file contains modified crystal structure data generated from the
# MOF subset of the Cambridge Structural Database (CSD) v543 
# hosted by the Cambridge Crystallographic Data Centre (CCDC).
#
# This work is licensed under the Creative Commons
# Attribution-NonCommercial-ShareAlike 4.0 International License.
# To view a copy of this license, visit
# http://creativecommons.org/licenses/by-nc-sa/4.0/
# or send a letter to
# Creative Commons, PO Box 1866, Mountain View, CA 94042, USA.
#
# CIF created using the CSD Python API on 29 September 2022
# The structure has been converted into the P1 space group
# The structure has a 3D framework
# The original CSD entry COCDEG is in the monoclinic crystal system
# The framework has been calculated to contain at least 10.0% void space
# The void calculation uses a probe of radius 1.32A, grid spacing 0.4
# The framework is charged, counterions have been retained in the structure
#
###############################################################################

data_COCDEG
_chemical_formula_moiety         '(C104 H64 Cl4 Mn4 N24 O16 S16)n'
_symmetry_cell_setting           triclinic
_symmetry_space_group_name_H-M   'P 1'
_symmetry_Int_Tables_number      1
_space_group_name_Hall           'P 1'
loop_
_symmetry_equiv_pos_site_id
_symmetry_equiv_pos_as_xyz
1 x,y,z
_cell_length_a                   10.1917(15)
_cell_length_b                   12.5933(19)
_cell_length_c                   31.577(5)
_cell_angle_alpha                90
_cell_angle_beta                 90.619(4)
_cell_angle_gamma                90
_cell_volume                     4052.58
loop_
_atom_site_label
_atom_site_type_symbol
_atom_site_fract_x
_atom_site_fract_y
_atom_site_fract_z
N7 N 0.0086(10) 0.3681(9) 0.7167(3)
N9 N 0.1405(10) 0.7344(8) 0.7139(3)
N10 N 0.1493(10) 0.6684(9) 0.8138(3)
Mn3 Mn 0.01414(16) 0.19946(13) 0.73508(5)
S1 S 0.3470(3) 0.8830(3) 0.46559(9)
S2 S 0.6342(3) 0.8627(3) 0.46787(9)
S3 S 0.3404(3) 0.8505(3) 0.56889(9)
S4 S 0.6285(3) 0.8300(3) 0.56950(10)
N1 N 0.8315(9) 0.8207(8) 0.3157(3)
N2 N 0.8235(10) 0.7261(9) 0.7158(3)
N4 N 0.9881(12) 0.5305(10) 0.7520(3)
C1 C 0.5579(12) 0.8557(10) 0.4167(3)
N5 N 0.9949(10) 0.4499(7) 0.7345(3)
N6 N 0.1493(10) 0.8316(9) 0.3138(3)
C2 C 0.4886(11) 0.8604(10) 0.4970(4)
C3 C 0.4868(11) 0.8505(9) 0.5383(3)
C4 C 0.4284(13) 0.8641(11) 0.4157(4)
C5 C 0.5451(13) 0.7945(11) 0.6173(4)
C6 C 0.6494(11) 0.8443(9) 0.3814(4)
C7 C 0.3360(10) 0.8544(12) 0.3795(3)
C8 C 0.3214(13) 0.7786(10) 0.6505(4)
C9 C 0.1180(12) 0.8193(11) 0.6863(4)
H1 H 0.0436 0.8614 0.6893
C10 C 0.1443(13) 0.9132(12) 0.3395(4)
H2 H 0.0786 0.9635 0.3353
C11 C 0.4128(13) 0.8059(11) 0.6162(4)
C12 C 0.6393(12) 0.7719(11) 0.6522(4)
C13 C 0.2056(11) 0.8407(11) 0.6546(4)
H3 H 0.1891 0.8960 0.6358
C14 C 0.7556(12) 0.7761(12) 0.3865(5)
H4 H 0.7686 0.7371 0.4111
C15 C 0.6345(11) 0.8981(11) 0.3434(4)
H5 H 0.5618 0.9414 0.3390
C16 C 0.6308(13) 0.8204(13) 0.6912(4)
H6 H 0.5636 0.8679 0.6971
C17 C 0.8410(13) 0.7694(12) 0.3527(4)
H7 H 0.9126 0.7244 0.3561
C18 C 0.7267(12) 0.8878(12) 0.3122(4)
H8 H 0.7173 0.9283 0.2877
C19 C 0.8273(14) 0.6774(12) 0.6792(5)
H9 H 0.8945 0.6290 0.6747
C20 C 0.3398(13) 0.7720(14) 0.3518(4)
H10 H 0.4064 0.7219 0.3542
C21 C 0.2418(14) 0.6767(12) 0.7100(5)
H11 H 0.2530 0.6193 0.7282
C22 C 0.2366(15) 0.9285(14) 0.3740(5)
H12 H 0.2296 0.9865 0.3921
C23 C 0.3400(13) 0.6962(13) 0.6785(5)
H13 H 0.4146 0.6539 0.6771
C24 C 0.7252(12) 0.7960(14) 0.7211(5)
H14 H 0.7207 0.8306 0.7471
C25 C 0.7371(13) 0.6942(15) 0.6471(4)
H15 H 0.7408 0.6545 0.6224
C26 C 0.2456(15) 0.761(2) 0.3197(6)
H16 H 0.2501 0.7029 0.3017
Mn1 Mn 0.98586(16) 0.69946(13) 0.76492(5)
N8 N 0.8315(9) 0.6793(8) 0.8157(3)
N11 N 0.9914(10) 0.8681(9) 0.7833(3)
Mn5 Mn 0.98586(16) 0.80054(13) 0.26492(5)
Mn4 Mn 0.01414(16) 0.30054(13) 0.23508(5)
S1_2 S 0.6530(3) 0.3830(3) 0.03441(9)
S2_2 S 0.3658(3) 0.3627(3) 0.03213(9)
N1_2 N 0.1685(9) 0.3207(8) 0.1843(3)
C1_2 C 0.4421(12) 0.3557(10) 0.0833(3)
N6_2 N 0.8507(10) 0.3316(9) 0.1862(3)
C2_2 C 0.5114(11) 0.3604(10) 0.0030(4)
C4_2 C 0.5716(13) 0.3641(11) 0.0843(4)
C6_2 C 0.3506(11) 0.3443(9) 0.1186(4)
C7_2 C 0.6640(10) 0.3544(12) 0.1205(3)
C10_2 C 0.8557(13) 0.4132(12) 0.1605(4)
H2_2 H 0.9214 0.4635 0.1647
C14_2 C 0.2444(12) 0.2761(12) 0.1135(5)
H4_2 H 0.2314 0.2371 0.0889
C15_2 C 0.3655(11) 0.3981(11) 0.1566(4)
H5_2 H 0.4382 0.4414 0.1610
C17_2 C 0.1590(13) 0.2694(12) 0.1473(4)
H7_2 H 0.0874 0.2244 0.1439
C18_2 C 0.2733(12) 0.3878(12) 0.1878(4)
H8_2 H 0.2827 0.4283 0.2123
C20_2 C 0.6602(13) 0.2720(14) 0.1482(4)
H10_2 H 0.5936 0.2219 0.1458
C22_2 C 0.7634(15) 0.4285(14) 0.1260(5)
H12_2 H 0.7704 0.4865 0.1079
C26_2 C 0.7544(15) 0.261(2) 0.1803(6)
H16_2 H 0.7499 0.2029 0.1983
S3_2 S 0.6596(3) 0.3505(3) 0.93111(9)
S4_2 S 0.3715(3) 0.3300(3) 0.93050(10)
N2_2 N 0.1765(10) 0.2261(9) 0.7842(3)
N3 N 0.8595(10) 0.2344(8) 0.7861(3)
N4_2 N 0.0119(12) 0.0305(10) 0.7480(3)
C3_2 C 0.5132(11) 0.3505(9) 0.9617(3)
C5_2 C 0.4549(13) 0.2945(11) 0.8827(4)
C8_2 C 0.6786(13) 0.2786(10) 0.8495(4)
C9_2 C 0.8820(12) 0.3193(11) 0.8137(4)
H1_2 H 0.9564 0.3614 0.8107
C11_2 C 0.5872(13) 0.3059(11) 0.8838(4)
C12_2 C 0.3607(12) 0.2719(11) 0.8478(4)
C13_2 C 0.7944(11) 0.3407(11) 0.8454(4)
H3_2 H 0.8109 0.3960 0.8642
C16_2 C 0.3692(13) 0.3204(13) 0.8088(4)
H6_2 H 0.4364 0.3679 0.8029
C19_2 C 0.1727(14) 0.1774(12) 0.8208(5)
H9_2 H 0.1055 0.1290 0.8253
C21_2 C 0.7582(14) 0.1767(12) 0.7900(5)
H11_2 H 0.7470 0.1193 0.7718
C23_2 C 0.6600(13) 0.1962(13) 0.8215(5)
H13_2 H 0.5854 0.1539 0.8229
C24_2 C 0.2748(12) 0.2960(14) 0.7789(5)
H14_2 H 0.2793 0.3306 0.7529
C25_2 C 0.2629(13) 0.1942(15) 0.8529(4)
H15_2 H 0.2592 0.1545 0.8776
N8_2 N 0.1685(9) 0.1793(8) 0.6843(3)
N10_2 N 0.8507(10) 0.1684(9) 0.6862(3)
S1_3 S 0.6530(3) 0.1170(3) 0.53441(9)
S2_3 S 0.3658(3) 0.1373(3) 0.53213(9)
S3_3 S 0.6596(3) 0.1495(3) 0.43111(9)
S4_3 S 0.3715(3) 0.1700(3) 0.43050(10)
N2_3 N 0.1765(10) 0.2739(9) 0.2842(3)
N3_2 N 0.8595(10) 0.2656(8) 0.2861(3)
N4_3 N 0.0119(12) 0.4695(10) 0.2480(3)
C1_3 C 0.4421(12) 0.1443(10) 0.5833(3)
N5_2 N 0.0051(10) 0.5501(7) 0.2655(3)
C2_3 C 0.5114(11) 0.1396(10) 0.5030(4)
C3_3 C 0.5132(11) 0.1495(9) 0.4617(3)
C4_3 C 0.5716(13) 0.1359(11) 0.5843(4)
C5_3 C 0.4549(13) 0.2055(11) 0.3827(4)
C6_3 C 0.3506(11) 0.1557(9) 0.6186(4)
C7_3 C 0.6640(10) 0.1456(12) 0.6205(3)
C8_3 C 0.6786(13) 0.2214(10) 0.3495(4)
C9_3 C 0.8820(12) 0.1807(11) 0.3137(4)
H1_3 H 0.9564 0.1386 0.3107
C10_3 C 0.8557(13) 0.0868(12) 0.6605(4)
H2_3 H 0.9214 0.0365 0.6647
C11_3 C 0.5872(13) 0.1941(11) 0.3838(4)
C12_3 C 0.3607(12) 0.2281(11) 0.3478(4)
C13_3 C 0.7944(11) 0.1593(11) 0.3454(4)
H3_3 H 0.8109 0.1040 0.3642
C14_3 C 0.2444(12) 0.2239(12) 0.6135(5)
H4_3 H 0.2314 0.2629 0.5889
C15_3 C 0.3655(11) 0.1019(11) 0.6566(4)
H5_3 H 0.4382 0.0586 0.6610
C16_3 C 0.3692(13) 0.1796(13) 0.3088(4)
H6_3 H 0.4364 0.1321 0.3029
C17_3 C 0.1590(13) 0.2306(12) 0.6473(4)
H7_3 H 0.0874 0.2756 0.6439
C18_3 C 0.2733(12) 0.1122(12) 0.6878(4)
H8_3 H 0.2827 0.0717 0.7123
C19_3 C 0.1727(14) 0.3226(12) 0.3208(5)
H9_3 H 0.1055 0.3710 0.3253
C20_3 C 0.6602(13) 0.2280(14) 0.6482(4)
H10_3 H 0.5936 0.2781 0.6458
C21_3 C 0.7582(14) 0.3233(12) 0.2900(5)
H11_3 H 0.7470 0.3807 0.2718
C22_3 C 0.7634(15) 0.0715(14) 0.6260(5)
H12_3 H 0.7704 0.0135 0.6079
C23_3 C 0.6600(13) 0.3038(13) 0.3215(5)
H13_3 H 0.5854 0.3461 0.3229
C24_3 C 0.2748(12) 0.2040(14) 0.2789(5)
H14_3 H 0.2793 0.1694 0.2529
C25_3 C 0.2629(13) 0.3058(15) 0.3529(4)
H15_3 H 0.2592 0.3455 0.3776
C26_3 C 0.7544(15) 0.239(2) 0.6803(6)
H16_3 H 0.7499 0.2971 0.6983
N11_2 N 0.0086(10) 0.1319(9) 0.2167(3)
N7_2 N 0.9914(10) 0.6319(9) 0.2833(3)
N9_2 N 0.1405(10) 0.7656(8) 0.2139(3)
S3_4 S 0.3404(3) 0.6495(3) 0.06889(9)
S4_4 S 0.6285(3) 0.6700(3) 0.06950(10)
N2_4 N 0.8235(10) 0.7739(9) 0.2158(3)
N4_4 N 0.9881(12) 0.9695(10) 0.2520(3)
C3_4 C 0.4868(11) 0.6495(9) 0.0383(3)
C5_4 C 0.5451(13) 0.7055(11) 0.1173(4)
C8_4 C 0.3214(13) 0.7214(10) 0.1505(4)
C9_4 C 0.1180(12) 0.6807(11) 0.1863(4)
H1_4 H 0.0436 0.6386 0.1893
C11_4 C 0.4128(13) 0.6941(11) 0.1162(4)
C12_4 C 0.6393(12) 0.7281(11) 0.1522(4)
C13_4 C 0.2056(11) 0.6593(11) 0.1546(4)
H3_4 H 0.1891 0.6040 0.1358
C16_4 C 0.6308(13) 0.6796(13) 0.1912(4)
H6_4 H 0.5636 0.6321 0.1971
C19_4 C 0.8273(14) 0.8226(12) 0.1792(5)
H9_4 H 0.8945 0.8710 0.1747
C21_4 C 0.2418(14) 0.8233(12) 0.2100(5)
H11_4 H 0.2530 0.8807 0.2282
C23_4 C 0.3400(13) 0.8038(13) 0.1785(5)
H13_4 H 0.4146 0.8461 0.1771
C24_4 C 0.7252(12) 0.7040(14) 0.2211(5)
H14_4 H 0.7207 0.6694 0.2471
C25_4 C 0.7371(13) 0.8058(15) 0.1471(4)
H15_4 H 0.7408 0.8455 0.1224
S1_4 S 0.3470(3) 0.6170(3) 0.96559(9)
S2_4 S 0.6342(3) 0.6373(3) 0.96787(9)
C1_4 C 0.5579(12) 0.6443(10) 0.9167(3)
C2_4 C 0.4886(11) 0.6396(10) 0.9970(4)
C4_4 C 0.4284(13) 0.6359(11) 0.9157(4)
C6_4 C 0.6494(11) 0.6557(9) 0.8814(4)
C7_4 C 0.3360(10) 0.6456(12) 0.8795(3)
C10_4 C 0.1443(13) 0.5868(12) 0.8395(4)
H2_4 H 0.0786 0.5365 0.8353
C14_4 C 0.7556(12) 0.7239(12) 0.8865(5)
H4_4 H 0.7686 0.7629 0.9111
C15_4 C 0.6345(11) 0.6019(11) 0.8434(4)
H5_4 H 0.5618 0.5586 0.8390
C17_4 C 0.8410(13) 0.7306(12) 0.8527(4)
H7_4 H 0.9126 0.7756 0.8561
C18_4 C 0.7267(12) 0.6122(12) 0.8122(4)
H8_4 H 0.7173 0.5717 0.7877
C20_4 C 0.3398(13) 0.7280(14) 0.8518(4)
H10_4 H 0.4064 0.7781 0.8542
C22_4 C 0.2366(15) 0.5715(14) 0.8740(5)
H12_4 H 0.2296 0.5135 0.8921
C26_4 C 0.2456(15) 0.739(2) 0.8197(6)
H16_4 H 0.2501 0.7971 0.8017
N5_3 N 0.0051(10) 0.9499(7) 0.7655(3)
N5_4 N 0.9949(10) 0.0501(7) 0.2345(3)
Cl1 Cl 0.5408(4) 0.4587(3) 0.72045(14)
O1 O 0.4620(15) 0.5225(14) 0.7472(6)
O2 O 0.646(2) 0.414(2) 0.7449(9)
O3 O 0.614(3) 0.504(2) 0.6894(11)
O4 O 0.458(2) 0.398(3) 0.7055(8)
O1_2 O 0.5380(15) 0.0225(14) 0.7528(6)
O3_2 O 0.386(3) 0.004(2) 0.8106(11)
Cl1_2 Cl 0.4592(4) 0.9587(3) 0.77955(14)
O2_2 O 0.354(2) 0.914(2) 0.7551(9)
O4_2 O 0.542(2) 0.898(3) 0.7945(8)
Cl1_3 Cl 0.4592(4) 0.5413(3) 0.27955(14)
O1_3 O 0.5380(15) 0.4775(14) 0.2528(6)
O2_3 O 0.354(2) 0.586(2) 0.2551(9)
O3_3 O 0.386(3) 0.496(2) 0.3106(11)
O4_3 O 0.542(2) 0.602(3) 0.2945(8)
Cl1_4 Cl 0.5408(4) 0.0413(3) 0.22045(14)
O2_4 O 0.646(2) 0.086(2) 0.2449(9)
O4_4 O 0.458(2) 0.102(3) 0.2055(8)
O1_4 O 0.4620(15) 0.9775(14) 0.2472(6)
O3_4 O 0.614(3) 0.996(2) 0.1894(11)
loop_
_geom_bond_atom_site_label_1
_geom_bond_atom_site_label_2
_geom_bond_site_symmetry_1
_geom_bond_site_symmetry_2
N7 Mn3 1_555 1_555
S1 C2 1_555 1_555
S2 C1 1_555 1_555
S3 C3 1_555 1_555
S4 C3 1_555 1_555
N1 C17 1_555 1_555
N2 C19 1_555 1_555
N9 C9 1_555 1_555
N4 N5 1_555 1_555
C1 C4 1_555 1_555
N6 C10 1_555 1_555
C2 S2 1_555 1_555
C3 C2 1_555 1_555
C4 S1 1_555 1_555
C5 S4 1_555 1_555
C6 C1 1_555 1_555
C7 C4 1_555 1_555
C8 C11 1_555 1_555
C9 H1 1_555 1_555
C10 H2 1_555 1_555
C11 S3 1_555 1_555
C12 C5 1_555 1_555
C13 C8 1_555 1_555
H3 C13 1_555 1_555
C14 C6 1_555 1_555
H4 C14 1_555 1_555
C15 C6 1_555 1_555
H5 C15 1_555 1_555
C16 C12 1_555 1_555
H6 C16 1_555 1_555
C17 C14 1_555 1_555
H7 C17 1_555 1_555
C18 N1 1_555 1_555
H8 C18 1_555 1_555
C19 H9 1_555 1_555
C20 C7 1_555 1_555
H10 C20 1_555 1_555
C21 N9 1_555 1_555
H11 C21 1_555 1_555
C22 C7 1_555 1_555
H12 C22 1_555 1_555
C23 C8 1_555 1_555
H13 C23 1_555 1_555
C24 N2 1_555 1_555
H14 C24 1_555 1_555
C25 C12 1_555 1_555
H15 C25 1_555 1_555
C26 N6 1_555 1_555
H16 C26 1_555 1_555
Mn1 N2 1_555 1_555
N8 Mn1 1_555 1_555
N11 Mn1 1_555 1_555
Mn5 N1 1_555 1_555
N4 Mn1 1_555 1_555
C5 C11 1_555 1_555
C9 C13 1_555 1_555
C10 C22 1_555 1_555
C15 C18 1_555 1_555
C16 C24 1_555 1_555
C19 C25 1_555 1_555
C20 C26 1_555 1_555
C21 C23 1_555 1_555
S1_2 C2_2 1_555 1_555
S2_2 C1_2 1_555 1_555
N1_2 C17_2 1_555 1_555
C1_2 C4_2 1_555 1_555
N6_2 C10_2 1_555 1_555
C2_2 S2_2 1_555 1_555
C4_2 S1_2 1_555 1_555
C6_2 C1_2 1_555 1_555
C7_2 C4_2 1_555 1_555
C10_2 H2_2 1_555 1_555
C14_2 C6_2 1_555 1_555
H4_2 C14_2 1_555 1_555
C15_2 C6_2 1_555 1_555
H5_2 C15_2 1_555 1_555
C17_2 C14_2 1_555 1_555
H7_2 C17_2 1_555 1_555
C18_2 N1_2 1_555 1_555
H8_2 C18_2 1_555 1_555
C20_2 C7_2 1_555 1_555
H10_2 C20_2 1_555 1_555
C22_2 C7_2 1_555 1_555
H12_2 C22_2 1_555 1_555
C26_2 N6_2 1_555 1_555
H16_2 C26_2 1_555 1_555
Mn4 N1_2 1_555 1_555
C10_2 C22_2 1_555 1_555
C15_2 C18_2 1_555 1_555
C20_2 C26_2 1_555 1_555
S3_2 C3_2 1_555 1_555
S4_2 C3_2 1_555 1_555
N2_2 C19_2 1_555 1_555
N3 C9_2 1_555 1_555
C5_2 S4_2 1_555 1_555
C8_2 C11_2 1_555 1_555
C9_2 H1_2 1_555 1_555
C11_2 S3_2 1_555 1_555
C12_2 C5_2 1_555 1_555
C13_2 C8_2 1_555 1_555
H3_2 C13_2 1_555 1_555
C16_2 C12_2 1_555 1_555
H6_2 C16_2 1_555 1_555
C19_2 H9_2 1_555 1_555
C21_2 N3 1_555 1_555
H11_2 C21_2 1_555 1_555
C23_2 C8_2 1_555 1_555
H13_2 C23_2 1_555 1_555
C24_2 N2_2 1_555 1_555
H14_2 C24_2 1_555 1_555
C25_2 C12_2 1_555 1_555
H15_2 C25_2 1_555 1_555
Mn3 N2_2 1_555 1_555
N8_2 Mn3 1_555 1_555
N4_2 Mn3 1_555 1_555
C5_2 C11_2 1_555 1_555
C9_2 C13_2 1_555 1_555
C16_2 C24_2 1_555 1_555
C19_2 C25_2 1_555 1_555
C21_2 C23_2 1_555 1_555
S1_3 C2_3 1_555 1_555
S2_3 C1_3 1_555 1_555
S3_3 C3_3 1_555 1_555
S4_3 C3_3 1_555 1_555
N8_2 C17_3 1_555 1_555
N2_3 C19_3 1_555 1_555
N3_2 C9_3 1_555 1_555
N4_3 N5_2 1_555 1_555
C1_3 C4_3 1_555 1_555
N10_2 C10_3 1_555 1_555
C2_3 S2_3 1_555 1_555
C3_3 C2_3 1_555 1_555
C4_3 S1_3 1_555 1_555
C5_3 S4_3 1_555 1_555
C6_3 C1_3 1_555 1_555
C7_3 C4_3 1_555 1_555
C8_3 C11_3 1_555 1_555
C9_3 H1_3 1_555 1_555
C10_3 H2_3 1_555 1_555
C11_3 S3_3 1_555 1_555
C12_3 C5_3 1_555 1_555
C13_3 C8_3 1_555 1_555
H3_3 C13_3 1_555 1_555
C14_3 C6_3 1_555 1_555
H4_3 C14_3 1_555 1_555
C15_3 C6_3 1_555 1_555
H5_3 C15_3 1_555 1_555
C16_3 C12_3 1_555 1_555
H6_3 C16_3 1_555 1_555
C17_3 C14_3 1_555 1_555
H7_3 C17_3 1_555 1_555
C18_3 N8_2 1_555 1_555
H8_3 C18_3 1_555 1_555
C19_3 H9_3 1_555 1_555
C20_3 C7_3 1_555 1_555
H10_3 C20_3 1_555 1_555
C21_3 N3_2 1_555 1_555
H11_3 C21_3 1_555 1_555
C22_3 C7_3 1_555 1_555
H12_3 C22_3 1_555 1_555
C23_3 C8_3 1_555 1_555
H13_3 C23_3 1_555 1_555
C24_3 N2_3 1_555 1_555
H14_3 C24_3 1_555 1_555
C25_3 C12_3 1_555 1_555
H15_3 C25_3 1_555 1_555
C26_3 N10_2 1_555 1_555
H16_3 C26_3 1_555 1_555
Mn4 N2_3 1_555 1_555
N11_2 Mn4 1_555 1_555
N4_3 Mn4 1_555 1_555
C5_3 C11_3 1_555 1_555
C9_3 C13_3 1_555 1_555
C10_3 C22_3 1_555 1_555
C15_3 C18_3 1_555 1_555
C16_3 C24_3 1_555 1_555
C19_3 C25_3 1_555 1_555
C20_3 C26_3 1_555 1_555
C21_3 C23_3 1_555 1_555
N7_2 Mn5 1_555 1_555
S3_4 C3_4 1_555 1_555
S4_4 C3_4 1_555 1_555
N2_4 C19_4 1_555 1_555
N9_2 C9_4 1_555 1_555
C5_4 S4_4 1_555 1_555
C8_4 C11_4 1_555 1_555
C9_4 H1_4 1_555 1_555
C11_4 S3_4 1_555 1_555
C12_4 C5_4 1_555 1_555
C13_4 C8_4 1_555 1_555
H3_4 C13_4 1_555 1_555
C16_4 C12_4 1_555 1_555
H6_4 C16_4 1_555 1_555
C19_4 H9_4 1_555 1_555
C21_4 N9_2 1_555 1_555
H11_4 C21_4 1_555 1_555
C23_4 C8_4 1_555 1_555
H13_4 C23_4 1_555 1_555
C24_4 N2_4 1_555 1_555
H14_4 C24_4 1_555 1_555
C25_4 C12_4 1_555 1_555
H15_4 C25_4 1_555 1_555
Mn5 N2_4 1_555 1_555
N4_4 Mn5 1_555 1_555
C5_4 C11_4 1_555 1_555
C9_4 C13_4 1_555 1_555
C16_4 C24_4 1_555 1_555
C19_4 C25_4 1_555 1_555
C21_4 C23_4 1_555 1_555
S1_4 C2_4 1_555 1_555
S2_4 C1_4 1_555 1_555
N8 C17_4 1_555 1_555
C1_4 C4_4 1_555 1_555
N10 C10_4 1_555 1_555
C2_4 S2_4 1_555 1_555
C4_4 S1_4 1_555 1_555
C6_4 C1_4 1_555 1_555
C7_4 C4_4 1_555 1_555
C10_4 H2_4 1_555 1_555
C14_4 C6_4 1_555 1_555
H4_4 C14_4 1_555 1_555
C15_4 C6_4 1_555 1_555
H5_4 C15_4 1_555 1_555
C17_4 C14_4 1_555 1_555
H7_4 C17_4 1_555 1_555
C18_4 N8 1_555 1_555
H8_4 C18_4 1_555 1_555
C20_4 C7_4 1_555 1_555
H10_4 C20_4 1_555 1_555
C22_4 C7_4 1_555 1_555
H12_4 C22_4 1_555 1_555
C26_4 N10 1_555 1_555
H16_4 C26_4 1_555 1_555
C10_4 C22_4 1_555 1_555
C15_4 C18_4 1_555 1_555
C20_4 C26_4 1_555 1_555
Cl1 O1 1_555 1_555
O2 Cl1 1_555 1_555
O3 Cl1 1_555 1_555
O4 Cl1 1_555 1_555
O2_2 Cl1_2 1_555 1_555
O4_2 Cl1_2 1_555 1_555
Cl1_3 O1_3 1_555 1_555
O2_3 Cl1_3 1_555 1_555
O3_3 Cl1_3 1_555 1_555
O4_3 Cl1_3 1_555 1_555
O2_4 Cl1_4 1_555 1_555
O4_4 Cl1_4 1_555 1_555

#END
