
###############################################################################
#
# This file contains modified crystal structure data generated from the
# MOF subset of the Cambridge Structural Database (CSD) v543 
# hosted by the Cambridge Crystallographic Data Centre (CCDC).
#
# This work is licensed under the Creative Commons
# Attribution-NonCommercial-ShareAlike 4.0 International License.
# To view a copy of this license, visit
# http://creativecommons.org/licenses/by-nc-sa/4.0/
# or send a letter to
# Creative Commons, PO Box 1866, Mountain View, CA 94042, USA.
#
# CIF created using the CSD Python API on 29 September 2022
# The structure has been converted into the P1 space group
# The structure has a 3D framework
# The original CSD entry COCMAJ is in the orthorhombic crystal system
# The original CSD entry COCMAJ is in a Sohncke space group
# The framework has been calculated to contain at least 10.0% void space
# The void calculation uses a probe of radius 1.32A, grid spacing 0.4
# H atom positions have been added when not included in the experimental data
#
###############################################################################

data_COCMAJ
_chemical_formula_moiety         '(C208 H256 Cl16 N16 O100 Pd8 Zn16)n'
_symmetry_cell_setting           triclinic
_symmetry_space_group_name_H-M   'P 1'
_symmetry_Int_Tables_number      1
_space_group_name_Hall           'P 1'
loop_
_symmetry_equiv_pos_site_id
_symmetry_equiv_pos_as_xyz
1 x,y,z
_cell_length_a                   13.5100(1)
_cell_length_b                   27.3700(2)
_cell_length_c                   27.9910(3)
_cell_angle_alpha                90
_cell_angle_beta                 90
_cell_angle_gamma                90
_cell_volume                     10350.2
loop_
_atom_site_label
_atom_site_type_symbol
_atom_site_fract_x
_atom_site_fract_y
_atom_site_fract_z
Pd1 Pd 0.06508(4) 0.36275(2) 0.00432(2)
Zn2 Zn 0.40809(6) 0.53620(3) 0.02705(3)
Cl1 Cl 0.15236(19) 0.36782(14) 0.07548(9)
O12 O 0.3945(5) 0.4643(2) 0.01117(19)
O13 O 0.3268(4) 0.7890(2) 0.1832(2)
O14 O 0.2693(5) 0.7126(3) 0.1775(2)
O15 O 0.5783(5) 0.6206(3) 0.0346(3)
O16 O 0.4184(4) 0.6062(2) 0.0506(2)
O19 O 0.4013(6) 0.5152(3) 0.1016(2)
O20 O 0.2508(4) 0.5423(3) 0.0304(2)
O24 O 0.0805(4) 0.2248(3) 0.1951(2)
N4 N 0.5725(5) 0.7503(3) 0.1056(2)
H7 H 0.2541 0.4153 0.0098
C22 C 0.4931(6) 0.7635(3) 0.1313(3)
H10 H 0.4944 0.7932 0.1489
C23 C 0.4081(6) 0.7340(3) 0.1324(3)
C24 C 0.4076(6) 0.6912(3) 0.1065(3)
H11 H 0.3516 0.6702 0.1073
C25 C 0.4890(6) 0.6791(3) 0.0792(3)
C26 C 0.5712(6) 0.7098(3) 0.0803(3)
H12 H 0.6281 0.7013 0.0622
C27 C 0.3255(6) 0.7467(3) 0.1670(3)
C28 C 0.4952(6) 0.6314(3) 0.0526(3)
C37 C 0.3999(19) 0.5476(7) 0.1414(5)
H29 H 0.3494 0.5733 0.1365
H30 H 0.4652 0.5635 0.1451
C38 C 0.376(2) 0.5191(9) 0.1847(8)
H31 H 0.3048 0.5114 0.1873
H32 H 0.3997 0.5350 0.2143
C39 C 0.437(3) 0.4759(10) 0.1713(8)
H33 H 0.4169 0.4471 0.1905
H34 H 0.5077 0.4825 0.1770
C40 C 0.4181(17) 0.4668(6) 0.1190(6)
H35 H 0.4762 0.4516 0.1034
H36 H 0.3593 0.4457 0.1140
C42 C 0.0869(18) 0.5138(13) 0.0112(9)
H40 H 0.0834 0.4779 0.0147
C43 C 0.0888(17) 0.5386(11) 0.0573(9)
H41 H 0.0418 0.5239 0.0803
H42 H 0.0756 0.5740 0.0543
C44 C 0.1924(19) 0.5284 0.0700(9)
H43 H 0.2117 0.5474 0.0987
H44 H 0.2014 0.4932 0.0769
H58 H 0.0192 0.0991 0.3225
H60 H 0.0662 0.1724 0.3034
Pd3 Pd 0.70022(4) 0.78868(2) 0.11457(2)
Zn8 Zn 0.26001(6) 0.81300(3) 0.24480(3)
O33 O 0.5636(4) 0.52780(19) 0.02443(18)
H61 H 0.119005 0.255008 0.201476
H62 H 0.109156 0.197285 0.21363
O9 O 0.3939(4) 0.3122(2) 0.8379(2)
O10 O 0.2336(5) 0.2918(3) 0.8410(3)
O11 O 0.5021(4) 0.4462(2) 0.9530(2)
N2 N 0.1942(5) 0.3650(3) 0.9679(2)
C15 C 0.2650(6) 0.3964(3) 0.9818(3)
C16 C 0.3527(6) 0.4022(3) 0.9574(3)
C17 C 0.3704(6) 0.3748(3) 0.9170(3)
H8 H 0.4308 0.3779 0.8999
C18 C 0.2972(6) 0.3421(3) 0.9019(3)
C19 C 0.2100(7) 0.3380(3) 0.9269(3)
H9 H 0.1600 0.3164 0.9158
C20 C 0.3093(7) 0.3130(4) 0.8563(3)
C21 C 0.4243(6) 0.4407(3) 0.9754(2)
C41 C 0.1837(15) 0.5299(10) 0.9925(7)
H37 H 0.2129 0.5033 0.9729
H38 H 0.1741 0.5586 0.9715
H39 H 0.0314 0.5253 0.9909
Zn5 Zn 0.61598(6) 0.49630(3) 0.95858(3)
Zn10 Zn 0.43618(6) 0.26478(3) 0.78483(3)
O27 O 0.4031(4) 0.5579(2) 0.95716(19)
Zn3 Zn 0.73999(6) 0.31300(3) 0.25520(3)
Zn4 Zn 0.93618(6) 0.23522(3) 0.21517(3)
O1 O 0.9122(4) 0.2929(2) 0.1690(2)
O2 O 0.7748(4) 0.3352(2) 0.18889(19)
O4 O 0.6457(5) 0.4570(3) 0.0691(2)
O21 O 0.6876(6) 0.3850(3) 0.2711(2)
O22 O 0.5959(5) 0.2974(3) 0.2243(3)
O23 O 0.9465(5) 0.1717(3) 0.2615(3)
O26 O 0.7882(4) 0.2410(2) 0.2396(2)
N1 N 0.9383(5) 0.3655(3) 0.0424(2)
C1 C 0.9274(6) 0.3418(3) 0.0839(3)
H1 H 0.9770 0.3190 0.0930
C2 C 0.8477(6) 0.3488(3) 0.1141(3)
C3 C 0.7740(6) 0.3817(3) 0.1005(3)
H2 H 0.7196 0.3883 0.1210
C4 C 0.7819(6) 0.4045(3) 0.0565(3)
C5 C 0.8640(6) 0.3957(3) 0.0277(3)
C6 C 0.8434(6) 0.3227(3) 0.1615(3)
C7 C 0.7037(6) 0.4406(3) 0.0387(3)
H23 H 0.8684 0.5893 0.0222
C45 C 0.696(2) 0.4060(8) 0.3162(6)
H45 H 0.7665 0.4123 0.3235
H46 H 0.6695 0.3834 0.3406
C46 C 0.640(2) 0.4523(10) 0.3174(8)
H47 H 0.6838 0.4796 0.3274
H48 H 0.5841 0.4500 0.3399
C47 C 0.604(3) 0.4600(12) 0.2682(9)
H49 H 0.6231 0.4929 0.2566
H50 H 0.5315 0.4567 0.2667
C48 C 0.653(2) 0.4214(8) 0.2392(7)
H51 H 0.6056 0.4072 0.2163
H52 H 0.7094 0.4354 0.2211
C49 C 0.8864(11) 0.1282(4) 0.2586(5)
H53 H 0.9192 0.1034 0.2383
H54 H 0.8210 0.1359 0.2446
C50 C 0.8750(15) 0.1100(6) 0.3068(6)
H55 H 0.8180 0.1256 0.3230
H56 H 0.8661 0.0741 0.3071
C51 C 0.968(2) 0.1239(8) 0.3288(8)
H57 H 0.9595 0.1276 0.3638
C52 C 0.9935(19) 0.1699(6) 0.3071(6)
H59 H 0.9706 0.1974 0.3273
O28 O 0.8686(4) 0.3327(2) 0.2889(2)
O29 O 0.9849(4) 0.2769(2) 0.2703(2)
O30 O 0.8939(4) 0.1878(2) 0.1621(2)
O32 O 0.6732(4) 0.2890(2) 0.3168(2)
H63 H 0.603389 0.273135 0.198175
H64 H 0.55149 0.28396 0.249327
Pd2 Pd 0.20022(4) 0.71132(2) 0.88543(2)
Cl2 Cl 0.97827(19) 0.35961(14) 0.93409(9)
Cl3 Cl 0.11693(17) 0.63890(9) 0.89416(12)
Cl4 Cl 0.2819(2) 0.78374(11) 0.87548(14)
O3 O 0.7062(5) 0.4502(2) 0.9957(2)
O5 O 0.5490(4) 0.5491(2) 0.91934(19)
O7 O 0.6314(4) 0.6673(2) 0.7889(2)
O8 O 0.5151(4) 0.7231(2) 0.7703(2)
O17 O 0.6714(5) 0.4667(3) 0.8931(2)
O18 O 0.7424(5) 0.5478(3) 0.9599(3)
N3 N 0.3291(5) 0.6744(3) 0.8740(2)
H3 H 0.8684 0.4110 0.9974
C8 C 0.3533(6) 0.6365(3) 0.9006(3)
H4 H 0.3089 0.6257 0.9246
C9 C 0.4436(5) 0.6120(3) 0.8941(3)
C10 C 0.5056(6) 0.6271(3) 0.8596(3)
H5 H 0.5663 0.6103 0.8545
C11 C 0.4815(5) 0.6671(3) 0.8315(3)
C12 C 0.3908(6) 0.6901(3) 0.8395(3)
H6 H 0.3724 0.7172 0.8204
C13 C 0.4688(6) 0.5694(3) 0.9265(3)
C14 C 0.5477(6) 0.6876(3) 0.7931(3)
C29 C 0.7317(17) 0.4244(8) 0.8911(7)
H13 H 0.7059 0.3990 0.9130
H14 H 0.8003 0.4324 0.9007
C30 C 0.729(2) 0.4054(10) 0.8373(9)
H15 H 0.7852 0.4186 0.8186
H16 H 0.7304 0.3692 0.8359
C31 C 0.6346(19) 0.4246(9) 0.8201(8)
H17 H 0.5826 0.3993 0.8221
H18 H 0.6407 0.4353 0.7864
C32 C 0.6097(11) 0.4664(6) 0.8511(4)
H19 H 0.6192 0.4973 0.8332
H20 H 0.5393 0.4643 0.8606
C33 C 0.847(2) 0.5383(9) 0.9673(11)
H21 H 0.8806 0.5303 0.9369
H22 H 0.8571 0.5112 0.9902
C34 C 0.884(2) 0.5865(10) 0.988(2)
H24 H 0.9556 0.5905 0.9828
C35 C 0.8260(16) 0.6228(6) 0.9591(10)
H25 H 0.8084 0.6515 0.9790
H26 H 0.8651 0.6341 0.9313
C36 C 0.7369(12) 0.5971(6) 0.9433(6)
H27 H 0.6772 0.6133 0.9564
H28 H 0.7325 0.5977 0.9080
Zn7 Zn 0.76001(6) 0.68700(3) 0.75520(3)
Zn9 Zn 0.56382(6) 0.76478(3) 0.71517(3)
N5 N 0.0725(5) 0.7497(3) 0.8944(2)
Pd2_2 Pd 0.29978(4) 0.28868(2) 0.38543(2)
Cl3_2 Cl 0.38307(17) 0.36110(9) 0.39416(12)
Cl4_2 Cl 0.2181(2) 0.21626(11) 0.37548(14)
O6 O 0.0969(4) 0.4421(2) 0.45716(19)
N3_2 N 0.1709(5) 0.3256(3) 0.3740(2)
C8_2 C 0.1467(6) 0.3635(3) 0.4006(3)
H4_2 H 0.1911 0.3743 0.4246
C9_2 C 0.0564(5) 0.3880(3) 0.3941(3)
C11_2 C 0.0185(5) 0.3329(3) 0.3315(3)
C12_2 C 0.1092(6) 0.3099(3) 0.3395(3)
H6_2 H 0.1276 0.2828 0.3204
C13_2 C 0.0312(6) 0.4306(3) 0.4265(3)
Zn6 Zn 0.09191(6) 0.46380(3) 0.52705(3)
N5_2 N 0.4275(5) 0.2503(3) 0.3944(2)
Pd1_2 Pd 0.43492(4) 0.63725(2) 0.50432(2)
Zn1 Zn 0.88402(6) 0.50370(3) 0.45858(3)
Cl1_2 Cl 0.34764(19) 0.63218(14) 0.57548(9)
Cl2_2 Cl 0.52173(19) 0.64039(14) 0.43409(9)
O1_2 O 0.5878(4) 0.7071(2) 0.6690(2)
O2_2 O 0.7252(4) 0.6648(2) 0.68889(19)
O3_2 O 0.7938(5) 0.5498(2) 0.4957(2)
O4_2 O 0.8543(5) 0.5430(3) 0.5691(2)
O5_2 O 0.9510(4) 0.4509(2) 0.41934(19)
O9_2 O 0.1061(4) 0.6878(2) 0.3379(2)
O10_2 O 0.2664(5) 0.7082(3) 0.3410(3)
O12_2 O 0.1055(5) 0.5357(2) 0.51117(19)
O13_2 O 0.1732(4) 0.2110(2) 0.6832(2)
O14_2 O 0.2307(5) 0.2874(3) 0.6775(2)
O16_2 O 0.0816(4) 0.3938(2) 0.5506(2)
O17_2 O 0.8286(5) 0.5333(3) 0.3931(2)
O18_2 O 0.7576(5) 0.4522(3) 0.4599(3)
O19_2 O 0.0987(6) 0.4848(3) 0.6016(2)
O20_2 O 0.2492(4) 0.4577(3) 0.5304(2)
O21_2 O 0.8124(6) 0.6150(3) 0.7711(2)
O22_2 O 0.9041(5) 0.7026(3) 0.7243(3)
O23_2 O 0.5535(5) 0.8283(3) 0.7615(3)
O24_2 O 0.4195(4) 0.7752(3) 0.6951(2)
O25 O 0.9364(4) 0.47220(19) 0.52443(18)
O26_2 O 0.7118(4) 0.7590(2) 0.7396(2)
N1_2 N 0.5617(5) 0.6345(3) 0.5424(2)
N2_2 N 0.3058(5) 0.6350(3) 0.4679(2)
C1_2 C 0.5726(6) 0.6582(3) 0.5839(3)
H1_2 H 0.5230 0.6810 0.5930
C2_2 C 0.6523(6) 0.6512(3) 0.6141(3)
C3_2 C 0.7260(6) 0.6183(3) 0.6005(3)
H2_2 H 0.7804 0.6117 0.6210
C4_2 C 0.7181(6) 0.5955(3) 0.5565(3)
C5_2 C 0.6360(6) 0.6043(3) 0.5277(3)
H3_2 H 0.6316 0.5890 0.4974
C6_2 C 0.6566(6) 0.6773(3) 0.6615(3)
C7_2 C 0.7963(6) 0.5594(3) 0.5387(3)
C10_2 C 0.9944(6) 0.3729(3) 0.3596(3)
H5_2 H 0.9337 0.3897 0.3545
C14_2 C 0.9523(6) 0.3124(3) 0.2931(3)
C15_2 C 0.2350(6) 0.6036(3) 0.4818(3)
H7_2 H 0.2459 0.5847 0.5098
C16_2 C 0.1473(6) 0.5978(3) 0.4574(3)
C17_2 C 0.1296(6) 0.6252(3) 0.4170(3)
H8_2 H 0.0692 0.6221 0.3999
C18_2 C 0.2028(6) 0.6579(3) 0.4019(3)
C19_2 C 0.2900(7) 0.6620(3) 0.4269(3)
H9_2 H 0.3400 0.6836 0.4158
C20_2 C 0.1907(7) 0.6870(4) 0.3563(3)
C21_2 C 0.0757(6) 0.5593(3) 0.4754(2)
C22_2 C 0.0069(6) 0.2365(3) 0.6313(3)
H10_2 H 0.0056 0.2068 0.6489
C23_2 C 0.0919(6) 0.2660(3) 0.6324(3)
C24_2 C 0.0924(6) 0.3088(3) 0.6065(3)
H11_2 H 0.1484 0.3298 0.6073
C25_2 C 0.0110(6) 0.3209(3) 0.5792(3)
C27_2 C 0.1745(6) 0.2533(3) 0.6670(3)
C28_2 C 0.0048(6) 0.3686(3) 0.5526(3)
C29_2 C 0.7683(17) 0.5756(8) 0.3911(7)
H13_2 H 0.7941 0.6010 0.4130
H14_2 H 0.6997 0.5676 0.4007
C30_2 C 0.771(2) 0.5946(10) 0.3373(9)
H15_2 H 0.7148 0.5814 0.3186
H16_2 H 0.7696 0.6308 0.3359
C31_2 C 0.8654(19) 0.5754(9) 0.3201(8)
H17_2 H 0.9174 0.6007 0.3221
H18_2 H 0.8593 0.5647 0.2864
C32_2 C 0.8903(11) 0.5336(6) 0.3511(4)
H19_2 H 0.8808 0.5027 0.3332
H20_2 H 0.9607 0.5357 0.3606
C33_2 C 0.653(2) 0.4617(9) 0.4673(11)
H21_2 H 0.6194 0.4697 0.4369
H22_2 H 0.6429 0.4888 0.4902
C34_2 C 0.616(2) 0.4135(10) 0.488(2)
H23_2 H 0.6316 0.4107 0.5222
H24_2 H 0.5444 0.4095 0.4828
C35_2 C 0.6740(16) 0.3772(6) 0.4591(10)
H25_2 H 0.6916 0.3485 0.4790
H26_2 H 0.6349 0.3659 0.4313
C36_2 C 0.7631(12) 0.4029(6) 0.4433(6)
H27_2 H 0.8228 0.3867 0.4564
H28_2 H 0.7675 0.4023 0.4080
C37_2 C 0.1001(19) 0.4524(7) 0.6414(5)
H29_2 H 0.1506 0.4267 0.6365
H30_2 H 0.0348 0.4365 0.6451
C38_2 C 0.124(2) 0.4809(9) 0.6847(8)
H31_2 H 0.1952 0.4886 0.6873
H32_2 H 0.1003 0.4650 0.7143
C39_2 C 0.063(3) 0.5241(10) 0.6713(8)
H33_2 H 0.0831 0.5529 0.6905
C40_2 C 0.0819(17) 0.5332(6) 0.6190(6)
H35_2 H 0.0238 0.5484 0.6034
H36_2 H 0.1407 0.5543 0.6140
C41_2 C 0.3163(15) 0.4701(10) 0.4925(7)
H37_2 H 0.2871 0.4967 0.4729
H38_2 H 0.3259 0.4414 0.4715
C42_2 C 0.4131(18) 0.4862(13) 0.5112(9)
H39_2 H 0.4686 0.4747 0.4909
H40_2 H 0.4166 0.5221 0.5147
C43_2 C 0.4112(17) 0.4614(11) 0.5573(9)
H41_2 H 0.4582 0.4761 0.5803
H42_2 H 0.4244 0.4260 0.5543
C44_2 C 0.3076(19) 0.4716 0.5700(9)
H43_2 H 0.2883 0.4526 0.5987
H44_2 H 0.2986 0.5068 0.5769
C45_2 C 0.804(2) 0.5940(8) 0.8162(6)
H45_2 H 0.7335 0.5877 0.8235
H46_2 H 0.8305 0.6166 0.8406
C46_2 C 0.860(2) 0.5477(10) 0.8174(8)
H47_2 H 0.8162 0.5204 0.8274
H48_2 H 0.9159 0.5500 0.8399
C47_2 C 0.896(3) 0.5400(12) 0.7682(9)
H49_2 H 0.8769 0.5071 0.7566
H50_2 H 0.9685 0.5433 0.7667
C48_2 C 0.847(2) 0.5786(8) 0.7392(7)
H51_2 H 0.8944 0.5928 0.7163
H52_2 H 0.7906 0.5646 0.7211
C49_2 C 0.6136(11) 0.8718(4) 0.7586(5)
H53_2 H 0.5808 0.8966 0.7383
H54_2 H 0.6790 0.8641 0.7446
C50_2 C 0.6250(15) 0.8900(6) 0.8068(6)
H55_2 H 0.6820 0.8744 0.8230
H56_2 H 0.6339 0.9259 0.8071
C51_2 C 0.532(2) 0.8761(8) 0.8288(8)
H57_2 H 0.5405 0.8724 0.8638
H58_2 H 0.4808 0.9009 0.8225
C52_2 C 0.5065(19) 0.8301(6) 0.8071(6)
H59_2 H 0.5294 0.8026 0.8273
H60_2 H 0.4338 0.8276 0.8034
Zn8_2 Zn 0.23999(6) 0.18700(3) 0.74480(3)
Zn10_2 Zn 0.06382(6) 0.73522(3) 0.28483(3)
O30_2 O 0.6061(4) 0.8122(2) 0.6621(2)
O31 O 0.9979(4) 0.5538(2) 0.4530(2)
O32_2 O 0.8268(4) 0.7110(2) 0.8168(2)
H61_2 H 0.380995 0.744992 0.701476
H62_2 H 0.390844 0.802715 0.71363
H63_2 H 0.896611 0.726865 0.698175
H64_2 H 0.94851 0.71604 0.749327
O15_2 O 0.9217(5) 0.3794(3) 0.5346(3)
N4_2 N 0.9275(5) 0.2497(3) 0.6056(2)
C26_2 C 0.9288(6) 0.2902(3) 0.5803(3)
H12_2 H 0.8719 0.2987 0.5622
H34_2 H 0.9923 0.5175 0.6770
Pd3_2 Pd 0.79978(4) 0.21132(2) 0.61457(2)
O11_2 O 0.0021(4) 0.0538(2) 0.0470(2)
Zn5_2 Zn 0.11598(6) 0.00370(3) 0.04142(3)
O15_3 O 0.0783(5) 0.8794(3) 0.9654(3)
C26_3 C 0.0712(6) 0.7902(3) 0.9197(3)
H12_3 H 0.1281 0.7987 0.9378
O33_2 O 0.0636(4) 0.97220(19) 0.97557(18)
Cl2_3 Cl 0.47827(19) 0.14039(14) 0.06591(9)
O3_3 O 0.2062(5) 0.0498(2) 0.0043(2)
O10_3 O 0.7336(5) 0.2082(3) 0.1590(3)
O17_3 O 0.1714(5) 0.0333(3) 0.1069(2)
N2_3 N 0.6942(5) 0.1350(3) 0.0321(2)
H3_3 H 0.3684 0.0890 0.0026
C15_3 C 0.7650(6) 0.1036(3) 0.0182(3)
C16_3 C 0.8527(6) 0.0978(3) 0.0426(3)
C17_3 C 0.8704(6) 0.1252(3) 0.0830(3)
H8_3 H 0.9308 0.1221 0.1001
C18_3 C 0.7972(6) 0.1579(3) 0.0981(3)
C19_3 C 0.7100(7) 0.1620(3) 0.0731(3)
H9_3 H 0.6600 0.1836 0.0842
C20_3 C 0.8093(7) 0.1870(4) 0.1437(3)
C21_3 C 0.9243(6) 0.0593(3) 0.0246(2)
C29_3 C 0.2317(17) 0.0756(8) 0.1089(7)
H13_3 H 0.2059 0.1010 0.0870
H14_3 H 0.3003 0.0676 0.0993
C30_3 C 0.229(2) 0.0946(10) 0.1627(9)
H15_3 H 0.2852 0.0814 0.1814
H16_3 H 0.2304 0.1308 0.1641
C31_3 C 0.1346(19) 0.0754(9) 0.1799(8)
H17_3 H 0.0826 0.1007 0.1779
H18_3 H 0.1407 0.0647 0.2136
C32_3 C 0.1097(11) 0.0336(6) 0.1489(4)
H19_3 H 0.1192 0.0027 0.1668
H20_3 H 0.0393 0.0357 0.1394
Pd1_3 Pd 0.56508(4) 0.13725(2) 0.99568(2)
Cl1_3 Cl 0.65236(19) 0.13218(14) 0.92452(9)
O1_3 O 0.4122(4) 0.2071(2) 0.8310(2)
O2_3 O 0.2748(4) 0.1648(2) 0.81111(19)
O4_3 O 0.1457(5) 0.0430(3) 0.9309(2)
O12_3 O 0.8945(5) 0.0357(2) 0.98883(19)
O21_3 O 0.1876(6) 0.1150(3) 0.7289(2)
O22_3 O 0.0959(5) 0.2026(3) 0.7757(3)
O23_3 O 0.4465(5) 0.3283(3) 0.7385(3)
O24_3 O 0.5805(4) 0.2752(3) 0.8049(2)
O26_3 O 0.2882(4) 0.2590(2) 0.7604(2)
N1_3 N 0.4383(5) 0.1345(3) 0.9576(2)
C1_3 C 0.4274(6) 0.1582(3) 0.9161(3)
H1_3 H 0.4770 0.1810 0.9070
C2_3 C 0.3477(6) 0.1512(3) 0.8859(3)
C3_3 C 0.2740(6) 0.1183(3) 0.8995(3)
H2_3 H 0.2196 0.1117 0.8790
C4_3 C 0.2819(6) 0.0955(3) 0.9435(3)
C5_3 C 0.3640(6) 0.1043(3) 0.9723(3)
C6_3 C 0.3434(6) 0.1773(3) 0.8385(3)
C7_3 C 0.2037(6) 0.0594(3) 0.9613(3)
H7_3 H 0.7541 0.0847 0.9902
C39_3 C 0.937(3) 0.0241(10) 0.8287(8)
H33_3 H 0.9169 0.0529 0.8095
C40_3 C 0.9181(17) 0.0332(6) 0.8810(6)
H35_3 H 0.9762 0.0484 0.8966
H36_3 H 0.8593 0.0543 0.8860
H40_3 H 0.5834 0.0221 0.9853
H44_3 H 0.7014 0.0068 0.9231
C45_3 C 0.196(2) 0.0940(8) 0.6838(6)
H45_3 H 0.2665 0.0877 0.6765
H46_3 H 0.1695 0.1166 0.6594
C46_3 C 0.140(2) 0.0477(10) 0.6826(8)
H47_3 H 0.1838 0.0204 0.6726
H48_3 H 0.0841 0.0500 0.6601
C47_3 C 0.104(3) 0.0400(12) 0.7318(9)
H49_3 H 0.1231 0.0071 0.7434
H50_3 H 0.0315 0.0433 0.7333
C48_3 C 0.153(2) 0.0786(8) 0.7608(7)
H51_3 H 0.1056 0.0928 0.7837
H52_3 H 0.2094 0.0646 0.7789
C49_3 C 0.3864(11) 0.3718(4) 0.7414(5)
H53_3 H 0.4192 0.3966 0.7617
H54_3 H 0.3210 0.3641 0.7554
C50_3 C 0.3750(15) 0.3900(6) 0.6932(6)
H55_3 H 0.3180 0.3744 0.6770
H56_3 H 0.3661 0.4259 0.6929
C51_3 C 0.468(2) 0.3761(8) 0.6712(8)
H57_3 H 0.4595 0.3724 0.6362
H58_3 H 0.5192 0.4009 0.6775
C52_3 C 0.4935(19) 0.3301(6) 0.6929(6)
H59_3 H 0.4706 0.3026 0.6727
H60_3 H 0.5662 0.3276 0.6966
O28_2 O 0.3686(4) 0.1673(2) 0.7111(2)
O29_2 O 0.4849(4) 0.2231(2) 0.7297(2)
H61_3 H 0.619005 0.244992 0.798524
H62_3 H 0.609156 0.302715 0.78637
H63_3 H 0.103389 0.226865 0.801825
H64_3 H 0.0514899 0.21604 0.750673
O5_3 O 0.0490(4) 0.9509(2) 0.08066(19)
O7_2 O 0.1314(4) 0.8327(2) 0.2111(2)
O8_2 O 0.0151(4) 0.7769(2) 0.2297(2)
O18_3 O 0.2424(5) 0.9522(3) 0.0401(3)
C10_3 C 0.0056(6) 0.8729(3) 0.1404(3)
H5_3 H 0.0663 0.8897 0.1455
C14_3 C 0.0477(6) 0.8124(3) 0.2069(3)
C33_3 C 0.347(2) 0.9617(9) 0.0327(11)
H21_3 H 0.3806 0.9697 0.0631
H22_3 H 0.3571 0.9888 0.0098
C34_3 C 0.384(2) 0.9135(10) 0.012(2)
H24_3 H 0.4556 0.9095 0.0172
C35_3 C 0.3260(16) 0.8772(6) 0.0409(10)
H25_3 H 0.3084 0.8485 0.0210
H26_3 H 0.3651 0.8659 0.0687
C36_3 C 0.2369(12) 0.9029(6) 0.0567(6)
H27_3 H 0.1772 0.8867 0.0436
H28_3 H 0.2325 0.9023 0.0920
C41_3 C 0.6837(15) 0.9701(10) 0.0075(7)
H37_3 H 0.7129 0.9967 0.0271
H38_3 H 0.6741 0.9414 0.0285
H39_3 H 0.5314 0.9747 0.0091
O27_2 O 0.9031(4) 0.9421(2) 0.04284(19)
Zn2_2 Zn 0.90809(6) 0.96380(3) 0.97295(3)
O14_3 O 0.7693(5) 0.7874(3) 0.8225(2)
O16_3 O 0.9184(4) 0.8938(2) 0.9494(2)
O19_3 O 0.9013(6) 0.9848(3) 0.8984(2)
O20_3 O 0.7508(4) 0.9577(3) 0.9696(2)
C22_3 C 0.9931(6) 0.7365(3) 0.8687(3)
H10_3 H 0.9944 0.7068 0.8511
C23_3 C 0.9081(6) 0.7660(3) 0.8676(3)
C24_3 C 0.9076(6) 0.8088(3) 0.8935(3)
H11_3 H 0.8516 0.8298 0.8927
C25_3 C 0.9890(6) 0.8209(3) 0.9208(3)
C27_3 C 0.8255(6) 0.7533(3) 0.8330(3)
C28_3 C 0.9952(6) 0.8686(3) 0.9474(3)
H23_3 H 0.3684 0.9107 0.9778
C37_3 C 0.8999(19) 0.9524(7) 0.8586(5)
H29_3 H 0.8494 0.9267 0.8635
H30_3 H 0.9652 0.9365 0.8549
C38_3 C 0.876(2) 0.9809(9) 0.8153(8)
H31_3 H 0.8048 0.9886 0.8127
H32_3 H 0.8997 0.9650 0.7857
C42_3 C 0.5869(18) 0.9862(13) 0.9888(9)
C43_3 C 0.5888(17) 0.9614(11) 0.9427(9)
H41_3 H 0.5418 0.9761 0.9197
H42_3 H 0.5756 0.9260 0.9457
C44_3 C 0.6924(19) 0.9716 0.9300(9)
H43_3 H 0.7117 0.9526 0.9013
Cl3_3 Cl 0.61693(17) 0.86110(9) 0.10584(12)
Cl4_3 Cl 0.7819(2) 0.71626(11) 0.12452(14)
N3_3 N 0.8291(5) 0.8256(3) 0.1260(2)
C8_3 C 0.8533(6) 0.8635(3) 0.0994(3)
H4_3 H 0.8089 0.8743 0.0754
C9_3 C 0.9436(5) 0.8880(3) 0.1059(3)
C11_3 C 0.9815(5) 0.8329(3) 0.1685(3)
C12_3 C 0.8908(6) 0.8099(3) 0.1605(3)
H6_3 H 0.8724 0.7828 0.1796
C13_3 C 0.9688(6) 0.9306(3) 0.0735(3)
Cl3_4 Cl 0.88307(17) 0.13890(9) 0.60584(12)
Cl4_4 Cl 0.7181(2) 0.28374(11) 0.62452(14)
O5_4 O 0.4510(4) 0.0491(2) 0.58066(19)
O6_2 O 0.5969(4) 0.0579(2) 0.54284(19)
O18_4 O 0.2576(5) 0.0478(3) 0.5401(3)
O25_2 O 0.4364(4) 0.02780(19) 0.47557(18)
N3_4 N 0.6709(5) 0.1744(3) 0.6260(2)
C8_4 C 0.6467(6) 0.1365(3) 0.5994(3)
H4_4 H 0.6911 0.1257 0.5754
C9_4 C 0.5564(5) 0.1120(3) 0.6059(3)
C10_4 C 0.4944(6) 0.1271(3) 0.6404(3)
H5_4 H 0.4337 0.1103 0.6455
C11_4 C 0.5185(5) 0.1671(3) 0.6685(3)
C12_4 C 0.6092(6) 0.1901(3) 0.6605(3)
H6_4 H 0.6276 0.2172 0.6796
C13_4 C 0.5312(6) 0.0694(3) 0.5735(3)
C14_4 C 0.4523(6) 0.1876(3) 0.7069(3)
C33_4 C 0.153(2) 0.0383(9) 0.5327(11)
H21_4 H 0.1194 0.0303 0.5631
H22_4 H 0.1429 0.0112 0.5098
C34_4 C 0.116(2) 0.0865(10) 0.512(2)
H23_4 H 0.1316 0.0893 0.4778
H24_4 H 0.0444 0.0905 0.5172
C35_4 C 0.1740(16) 0.1228(6) 0.5409(10)
H25_4 H 0.1916 0.1515 0.5210
H26_4 H 0.1349 0.1341 0.5687
C36_4 C 0.2631(12) 0.0971(6) 0.5567(6)
H27_4 H 0.3228 0.1133 0.5436
H28_4 H 0.2675 0.0977 0.5920
Zn6_2 Zn 0.59191(6) 0.03620(3) 0.47295(3)
Zn1_2 Zn 0.38402(6) 0.99630(3) 0.54142(3)
Cl2_4 Cl 0.02173(19) 0.85961(14) 0.56591(9)
O1_4 O 0.0878(4) 0.7929(2) 0.3310(2)
O2_4 O 0.2252(4) 0.8352(2) 0.31111(19)
O3_4 O 0.2938(5) 0.9502(2) 0.5043(2)
O4_4 O 0.3543(5) 0.9570(3) 0.4309(2)
O17_4 O 0.3286(5) 0.9667(3) 0.6069(2)
O21_4 O 0.3124(6) 0.8850(3) 0.2289(2)
O22_4 O 0.4041(5) 0.7974(3) 0.2757(3)
O23_4 O 0.0535(5) 0.6717(3) 0.2385(3)
O26_4 O 0.2118(4) 0.7410(2) 0.2604(2)
N1_4 N 0.0617(5) 0.8655(3) 0.4576(2)
C1_4 C 0.0726(6) 0.8418(3) 0.4161(3)
H1_4 H 0.0230 0.8190 0.4070
C2_4 C 0.1523(6) 0.8488(3) 0.3859(3)
C3_4 C 0.2260(6) 0.8817(3) 0.3995(3)
H2_4 H 0.2804 0.8883 0.3790
C4_4 C 0.2181(6) 0.9045(3) 0.4435(3)
C5_4 C 0.1360(6) 0.8957(3) 0.4723(3)
H3_4 H 0.1316 0.9110 0.5026
C6_4 C 0.1566(6) 0.8227(3) 0.3385(3)
C7_4 C 0.2963(6) 0.9406(3) 0.4613(3)
C29_4 C 0.2683(17) 0.9244(8) 0.6089(7)
H13_4 H 0.2941 0.8990 0.5870
H14_4 H 0.1997 0.9324 0.5993
C30_4 C 0.271(2) 0.9054(10) 0.6627(9)
H15_4 H 0.2148 0.9186 0.6814
H16_4 H 0.2696 0.8692 0.6641
C31_4 C 0.3654(19) 0.9246(9) 0.6799(8)
H17_4 H 0.4174 0.8993 0.6779
H18_4 H 0.3593 0.9353 0.7136
C32_4 C 0.3903(11) 0.9664(6) 0.6489(4)
H19_4 H 0.3808 0.9973 0.6668
H20_4 H 0.4607 0.9643 0.6394
C45_4 C 0.304(2) 0.9060(8) 0.1838(6)
H45_4 H 0.2335 0.9123 0.1765
H46_4 H 0.3305 0.8834 0.1594
C46_4 C 0.360(2) 0.9523(10) 0.1826(8)
H47_4 H 0.3162 0.9796 0.1726
H48_4 H 0.4159 0.9500 0.1601
C47_4 C 0.396(3) 0.9600(12) 0.2318(9)
H49_4 H 0.3769 0.9929 0.2434
H50_4 H 0.4685 0.9567 0.2333
C48_4 C 0.347(2) 0.9214(8) 0.2608(7)
H51_4 H 0.3944 0.9072 0.2837
H52_4 H 0.2906 0.9354 0.2789
C49_4 C 0.1136(11) 0.6282(4) 0.2414(5)
H53_4 H 0.0808 0.6034 0.2617
H54_4 H 0.1790 0.6359 0.2554
C50_4 C 0.1250(15) 0.6100(6) 0.1932(6)
H55_4 H 0.1820 0.6256 0.1770
H56_4 H 0.1339 0.5741 0.1929
C51_4 C 0.032(2) 0.6239(8) 0.1712(8)
H57_4 H 0.0405 0.6276 0.1362
C52_4 C 0.0065(19) 0.6699(6) 0.1929(6)
H59_4 H 0.0294 0.6974 0.1727
O31_2 O 0.4979(4) 0.9462(2) 0.5470(2)
H63_4 H 0.396611 0.773135 0.301825
H64_4 H 0.44851 0.78396 0.250673
O14_4 O 0.7307(5) 0.2126(3) 0.3225(2)
O15_4 O 0.4217(5) 0.1206(3) 0.4654(3)
O16_4 O 0.5816(4) 0.1062(2) 0.4494(2)
O19_4 O 0.5987(6) 0.0152(3) 0.3984(2)
O20_4 O 0.7492(4) 0.0423(3) 0.4696(2)
C22_4 C 0.5069(6) 0.2635(3) 0.3687(3)
H10_4 H 0.5056 0.2932 0.3511
C23_4 C 0.5919(6) 0.2340(3) 0.3676(3)
C24_4 C 0.5924(6) 0.1912(3) 0.3935(3)
H11_4 H 0.6484 0.1702 0.3927
C25_4 C 0.5110(6) 0.1791(3) 0.4208(3)
C26_4 C 0.4288(6) 0.2098(3) 0.4197(3)
H12_4 H 0.3719 0.2013 0.4378
C27_4 C 0.6745(6) 0.2467(3) 0.3330(3)
C28_4 C 0.5048(6) 0.1314(3) 0.4474(3)
C37_4 C 0.6001(19) 0.0476(7) 0.3586(5)
H29_4 H 0.6506 0.0733 0.3635
H30_4 H 0.5348 0.0635 0.3549
C38_4 C 0.624(2) 0.0191(9) 0.3153(8)
H31_4 H 0.6952 0.0114 0.3127
H32_4 H 0.6003 0.0350 0.2857
C41_4 C 0.8163(15) 0.0299(10) 0.5075(7)
H37_4 H 0.7871 0.0033 0.5271
H38_4 H 0.8259 0.0586 0.5285
C42_4 C 0.9131(18) 0.0138(13) 0.4888(9)
H39_4 H 0.9686 0.0253 0.5091
C43_4 C 0.9112(17) 0.0386(11) 0.4427(9)
H41_4 H 0.9582 0.0239 0.4197
H42_4 H 0.9244 0.0740 0.4457
C44_4 C 0.8076(19) 0.0284 0.4300(9)
H43_4 H 0.7883 0.0474 0.4013
Pd1_4 Pd 0.93492(4) 0.86275(2) 0.49568(2)
Cl1_4 Cl 0.84764(19) 0.86782(14) 0.42452(9)
O10_4 O 0.7664(5) 0.7918(3) 0.6590(3)
O12_4 O 0.6055(5) 0.9643(2) 0.48883(19)
O24_4 O 0.9195(4) 0.7248(3) 0.3049(2)
N2_4 N 0.8058(5) 0.8650(3) 0.5321(2)
C15_4 C 0.7350(6) 0.8964(3) 0.5182(3)
H7_4 H 0.7459 0.9153 0.4902
C16_4 C 0.6473(6) 0.9022(3) 0.5426(3)
C17_4 C 0.6296(6) 0.8748(3) 0.5830(3)
H8_4 H 0.5692 0.8779 0.6001
C18_4 C 0.7028(6) 0.8421(3) 0.5981(3)
C19_4 C 0.7900(7) 0.8380(3) 0.5731(3)
H9_4 H 0.8400 0.8164 0.5842
C20_4 C 0.6907(7) 0.8130(4) 0.6437(3)
C21_4 C 0.5757(6) 0.9407(3) 0.5246(2)
C39_4 C 0.563(3) 0.9759(10) 0.3287(8)
H33_4 H 0.5831 0.9471 0.3095
H34_3 H 0.4923 0.9825 0.3230
C40_4 C 0.5819(17) 0.9668(6) 0.3810(6)
H35_4 H 0.5238 0.9516 0.3966
H36_4 H 0.6407 0.9457 0.3860
H40_4 H 0.9166 0.9779 0.4853
H44_4 H 0.7986 0.9932 0.4231
H58_4 H 0.9808 0.5991 0.1775
H60_4 H 0.9338 0.6724 0.1966
H61_4 H 0.880995 0.755008 0.298524
H62_4 H 0.890844 0.697285 0.28637
H34_4 H 0.0077 0.0175 0.8230
loop_
_geom_bond_atom_site_label_1
_geom_bond_atom_site_label_2
_geom_bond_site_symmetry_1
_geom_bond_site_symmetry_2
Pd1 Cl1 1_555 1_555
Zn2 O12 1_555 1_555
O13 C27 1_555 1_555
O14 C27 1_555 1_555
O15 C28 1_555 1_555
O16 Zn2 1_555 1_555
O19 Zn2 1_555 1_555
O20 Zn2 1_555 1_555
N4 C22 1_555 1_555
C22 H10 1_555 1_555
C23 C22 1_555 1_555
C24 C23 1_555 1_555
H11 C24 1_555 1_555
C25 C24 1_555 1_555
C26 N4 1_555 1_555
H12 C26 1_555 1_555
C27 C23 1_555 1_555
C28 O16 1_555 1_555
C37 O19 1_555 1_555
H29 C37 1_555 1_555
H30 C37 1_555 1_555
C38 C37 1_555 1_555
H31 C38 1_555 1_555
H32 C38 1_555 1_555
C39 C38 1_555 1_555
H33 C39 1_555 1_555
H34 C39 1_555 1_555
C40 O19 1_555 1_555
H35 C40 1_555 1_555
H36 C40 1_555 1_555
H40 C42 1_555 1_555
C43 C42 1_555 1_555
H41 C43 1_555 1_555
H42 C43 1_555 1_555
C44 O20 1_555 1_555
H43 C44 1_555 1_555
H44 C44 1_555 1_555
Pd3 N4 1_555 1_555
Zn8 O13 1_555 1_555
O33 Zn2 1_555 1_555
C25 C26 1_555 1_555
C25 C28 1_555 1_555
C39 C40 1_555 1_555
C43 C44 1_555 1_555
O24 H61 1_555 1_555
O24 H62 1_555 1_555
O9 C20 1_555 1_555
O10 C20 1_555 1_555
O11 C21 1_555 1_555
C15 N2 1_555 1_555
C16 C15 1_555 1_555
C17 C16 1_555 1_555
H8 C17 1_555 1_555
C18 C17 1_555 1_555
C19 N2 1_555 1_555
H9 C19 1_555 1_555
C20 C18 1_555 1_555
C21 C16 1_555 1_555
H37 C41 1_555 1_555
H38 C41 1_555 1_555
Zn5 O11 1_555 1_555
Zn10 O9 1_555 1_555
C18 C19 1_555 1_555
Zn3 O2 1_555 1_555
Zn4 O1 1_555 1_555
O1 C6 1_555 1_555
O2 C6 1_555 1_555
O4 C7 1_555 1_555
O21 Zn3 1_555 1_555
O22 Zn3 1_555 1_555
O23 Zn4 1_555 1_555
O26 Zn3 1_555 1_555
C1 N1 1_555 1_555
H1 C1 1_555 1_555
C2 C1 1_555 1_555
C3 C2 1_555 1_555
H2 C3 1_555 1_555
C4 C3 1_555 1_555
C5 N1 1_555 1_555
C6 C2 1_555 1_555
C7 C4 1_555 1_555
C45 O21 1_555 1_555
H45 C45 1_555 1_555
H46 C45 1_555 1_555
C46 C45 1_555 1_555
H47 C46 1_555 1_555
H48 C46 1_555 1_555
C47 C46 1_555 1_555
H49 C47 1_555 1_555
H50 C47 1_555 1_555
C48 O21 1_555 1_555
H51 C48 1_555 1_555
H52 C48 1_555 1_555
C49 O23 1_555 1_555
H53 C49 1_555 1_555
H54 C49 1_555 1_555
C50 C49 1_555 1_555
H55 C50 1_555 1_555
H56 C50 1_555 1_555
C51 C50 1_555 1_555
H57 C51 1_555 1_555
C52 O23 1_555 1_555
H59 C52 1_555 1_555
O28 Zn3 1_555 1_555
O29 Zn4 1_555 1_555
O30 Zn4 1_555 1_555
O32 Zn3 1_555 1_555
Zn4 O26 1_555 1_555
C4 C5 1_555 1_555
C47 C48 1_555 1_555
C51 C52 1_555 1_555
O22 H63 1_555 1_555
O22 H64 1_555 1_555
Pd2 Cl3 1_555 1_555
Zn5 O3 1_555 1_555
Cl4 Pd2 1_555 1_555
O5 Zn5 1_555 1_555
O27 C13 1_555 1_555
O7 C14 1_555 1_555
O8 C14 1_555 1_555
O17 Zn5 1_555 1_555
O18 Zn5 1_555 1_555
N3 Pd2 1_555 1_555
C8 N3 1_555 1_555
H4 C8 1_555 1_555
C9 C8 1_555 1_555
C10 C9 1_555 1_555
H5 C10 1_555 1_555
C11 C10 1_555 1_555
C12 N3 1_555 1_555
H6 C12 1_555 1_555
C13 O5 1_555 1_555
C14 C11 1_555 1_555
C29 O17 1_555 1_555
H13 C29 1_555 1_555
H14 C29 1_555 1_555
C30 C29 1_555 1_555
H15 C30 1_555 1_555
H16 C30 1_555 1_555
C31 C30 1_555 1_555
H17 C31 1_555 1_555
H18 C31 1_555 1_555
C32 O17 1_555 1_555
H19 C32 1_555 1_555
H20 C32 1_555 1_555
C33 O18 1_555 1_555
H21 C33 1_555 1_555
H22 C33 1_555 1_555
C34 C33 1_555 1_555
H24 C34 1_555 1_555
C35 C34 1_555 1_555
H25 C35 1_555 1_555
H26 C35 1_555 1_555
C36 O18 1_555 1_555
H27 C36 1_555 1_555
H28 C36 1_555 1_555
Zn7 O7 1_555 1_555
Zn9 O8 1_555 1_555
N5 Pd2 1_555 1_555
C9 C13 1_555 1_555
C11 C12 1_555 1_555
C31 C32 1_555 1_555
C35 C36 1_555 1_555
Pd2_2 Cl3_2 1_555 1_555
Cl4_2 Pd2_2 1_555 1_555
O6 C13_2 1_555 1_555
N3_2 Pd2_2 1_555 1_555
C8_2 N3_2 1_555 1_555
H4_2 C8_2 1_555 1_555
C9_2 C8_2 1_555 1_555
C12_2 N3_2 1_555 1_555
H6_2 C12_2 1_555 1_555
Zn6 O6 1_555 1_555
N5_2 Pd2_2 1_555 1_555
C9_2 C13_2 1_555 1_555
C11_2 C12_2 1_555 1_555
Pd1_2 Cl1_2 1_555 1_555
Zn1 O3_2 1_555 1_555
Zn6 O12_2 1_555 1_555
Zn7 O2_2 1_555 1_555
Zn9 O1_2 1_555 1_555
Cl2_2 Pd1_2 1_555 1_555
O1_2 C6_2 1_555 1_555
O2_2 C6_2 1_555 1_555
O3_2 C7_2 1_555 1_555
O4_2 C7_2 1_555 1_555
O5_2 Zn1 1_555 1_555
O28 C14_2 1_555 1_555
O29 C14_2 1_555 1_555
O9_2 C20_2 1_555 1_555
O10_2 C20_2 1_555 1_555
O12_2 C21_2 1_555 1_555
O13_2 C27_2 1_555 1_555
O14_2 C27_2 1_555 1_555
O16_2 Zn6 1_555 1_555
O17_2 Zn1 1_555 1_555
O18_2 Zn1 1_555 1_555
O19_2 Zn6 1_555 1_555
O20_2 Zn6 1_555 1_555
O21_2 Zn7 1_555 1_555
O22_2 Zn7 1_555 1_555
O23_2 Zn9 1_555 1_555
O24_2 Zn9 1_555 1_555
O25 Zn1 1_555 1_555
O26_2 Zn7 1_555 1_555
N1_2 Pd1_2 1_555 1_555
N2_2 Pd1_2 1_555 1_555
C1_2 N1_2 1_555 1_555
H1_2 C1_2 1_555 1_555
C2_2 C1_2 1_555 1_555
C3_2 C2_2 1_555 1_555
H2_2 C3_2 1_555 1_555
C4_2 C3_2 1_555 1_555
C5_2 N1_2 1_555 1_555
H3_2 C5_2 1_555 1_555
C6_2 C2_2 1_555 1_555
C7_2 C4_2 1_555 1_555
H5_2 C10_2 1_555 1_555
C15_2 N2_2 1_555 1_555
H7_2 C15_2 1_555 1_555
C16_2 C15_2 1_555 1_555
C17_2 C16_2 1_555 1_555
H8_2 C17_2 1_555 1_555
C18_2 C17_2 1_555 1_555
C19_2 N2_2 1_555 1_555
H9_2 C19_2 1_555 1_555
C20_2 C18_2 1_555 1_555
C21_2 C16_2 1_555 1_555
C22_2 H10_2 1_555 1_555
C23_2 C22_2 1_555 1_555
C24_2 C23_2 1_555 1_555
H11_2 C24_2 1_555 1_555
C25_2 C24_2 1_555 1_555
C27_2 C23_2 1_555 1_555
C28_2 O16_2 1_555 1_555
C29_2 O17_2 1_555 1_555
H13_2 C29_2 1_555 1_555
H14_2 C29_2 1_555 1_555
C30_2 C29_2 1_555 1_555
H15_2 C30_2 1_555 1_555
H16_2 C30_2 1_555 1_555
C31_2 C30_2 1_555 1_555
H17_2 C31_2 1_555 1_555
H18_2 C31_2 1_555 1_555
C32_2 O17_2 1_555 1_555
H19_2 C32_2 1_555 1_555
H20_2 C32_2 1_555 1_555
C33_2 O18_2 1_555 1_555
H21_2 C33_2 1_555 1_555
H22_2 C33_2 1_555 1_555
C34_2 C33_2 1_555 1_555
H23_2 C34_2 1_555 1_555
H24_2 C34_2 1_555 1_555
C35_2 C34_2 1_555 1_555
H25_2 C35_2 1_555 1_555
H26_2 C35_2 1_555 1_555
C36_2 O18_2 1_555 1_555
H27_2 C36_2 1_555 1_555
H28_2 C36_2 1_555 1_555
C37_2 O19_2 1_555 1_555
H29_2 C37_2 1_555 1_555
H30_2 C37_2 1_555 1_555
C38_2 C37_2 1_555 1_555
H31_2 C38_2 1_555 1_555
H32_2 C38_2 1_555 1_555
C39_2 C38_2 1_555 1_555
H33_2 C39_2 1_555 1_555
C40_2 O19_2 1_555 1_555
H35_2 C40_2 1_555 1_555
H36_2 C40_2 1_555 1_555
C41_2 O20_2 1_555 1_555
H37_2 C41_2 1_555 1_555
H38_2 C41_2 1_555 1_555
C42_2 C41_2 1_555 1_555
H39_2 C42_2 1_555 1_555
H40_2 C42_2 1_555 1_555
C43_2 C42_2 1_555 1_555
H41_2 C43_2 1_555 1_555
H42_2 C43_2 1_555 1_555
C44_2 O20_2 1_555 1_555
H43_2 C44_2 1_555 1_555
H44_2 C44_2 1_555 1_555
C45_2 O21_2 1_555 1_555
H45_2 C45_2 1_555 1_555
H46_2 C45_2 1_555 1_555
C46_2 C45_2 1_555 1_555
H47_2 C46_2 1_555 1_555
H48_2 C46_2 1_555 1_555
C47_2 C46_2 1_555 1_555
H49_2 C47_2 1_555 1_555
H50_2 C47_2 1_555 1_555
C48_2 O21_2 1_555 1_555
H51_2 C48_2 1_555 1_555
H52_2 C48_2 1_555 1_555
C49_2 O23_2 1_555 1_555
H53_2 C49_2 1_555 1_555
H54_2 C49_2 1_555 1_555
C50_2 C49_2 1_555 1_555
H55_2 C50_2 1_555 1_555
H56_2 C50_2 1_555 1_555
C51_2 C50_2 1_555 1_555
H57_2 C51_2 1_555 1_555
H58_2 C51_2 1_555 1_555
C52_2 O23_2 1_555 1_555
H59_2 C52_2 1_555 1_555
H60_2 C52_2 1_555 1_555
Zn8_2 O13_2 1_555 1_555
Zn10_2 O9_2 1_555 1_555
O30_2 Zn9 1_555 1_555
O31 Zn1 1_555 1_555
O32_2 Zn7 1_555 1_555
Zn9 O26_2 1_555 1_555
C4_2 C5_2 1_555 1_555
C18_2 C19_2 1_555 1_555
C25_2 C28_2 1_555 1_555
C31_2 C32_2 1_555 1_555
C35_2 C36_2 1_555 1_555
C39_2 C40_2 1_555 1_555
C43_2 C44_2 1_555 1_555
C47_2 C48_2 1_555 1_555
C51_2 C52_2 1_555 1_555
O24_2 H61_2 1_555 1_555
O24_2 H62_2 1_555 1_555
O22_2 H63_2 1_555 1_555
O22_2 H64_2 1_555 1_555
C26_2 N4_2 1_555 1_555
H12_2 C26_2 1_555 1_555
Pd3_2 N4_2 1_555 1_555
Zn5_2 O11_2 1_555 1_555
C26_3 N5 1_555 1_555
H12_3 C26_3 1_555 1_555
Zn5_2 O3_3 1_555 1_555
O30 C20_3 1_555 1_555
O10_3 C20_3 1_555 1_555
O17_3 Zn5_2 1_555 1_555
C15_3 N2_3 1_555 1_555
C16_3 C15_3 1_555 1_555
C17_3 C16_3 1_555 1_555
H8_3 C17_3 1_555 1_555
C18_3 C17_3 1_555 1_555
C19_3 N2_3 1_555 1_555
H9_3 C19_3 1_555 1_555
C20_3 C18_3 1_555 1_555
C21_3 C16_3 1_555 1_555
C29_3 O17_3 1_555 1_555
H13_3 C29_3 1_555 1_555
H14_3 C29_3 1_555 1_555
C30_3 C29_3 1_555 1_555
H15_3 C30_3 1_555 1_555
H16_3 C30_3 1_555 1_555
C31_3 C30_3 1_555 1_555
H17_3 C31_3 1_555 1_555
H18_3 C31_3 1_555 1_555
C32_3 O17_3 1_555 1_555
H19_3 C32_3 1_555 1_555
H20_3 C32_3 1_555 1_555
C18_3 C19_3 1_555 1_555
C31_3 C32_3 1_555 1_555
Pd1_3 Cl1_3 1_555 1_555
Zn8_2 O2_3 1_555 1_555
Zn10 O1_3 1_555 1_555
O1_3 C6_3 1_555 1_555
O2_3 C6_3 1_555 1_555
O4_3 C7_3 1_555 1_555
O21_3 Zn8_2 1_555 1_555
O22_3 Zn8_2 1_555 1_555
O23_3 Zn10 1_555 1_555
O24_3 Zn10 1_555 1_555
O26_3 Zn8_2 1_555 1_555
N1_3 Pd1_3 1_555 1_555
C1_3 N1_3 1_555 1_555
H1_3 C1_3 1_555 1_555
C2_3 C1_3 1_555 1_555
C3_3 C2_3 1_555 1_555
H2_3 C3_3 1_555 1_555
C4_3 C3_3 1_555 1_555
C5_3 N1_3 1_555 1_555
C6_3 C2_3 1_555 1_555
C7_3 C4_3 1_555 1_555
H33_3 C39_3 1_555 1_555
H35_3 C40_3 1_555 1_555
H36_3 C40_3 1_555 1_555
C45_3 O21_3 1_555 1_555
H45_3 C45_3 1_555 1_555
H46_3 C45_3 1_555 1_555
C46_3 C45_3 1_555 1_555
H47_3 C46_3 1_555 1_555
H48_3 C46_3 1_555 1_555
C47_3 C46_3 1_555 1_555
H49_3 C47_3 1_555 1_555
H50_3 C47_3 1_555 1_555
C48_3 O21_3 1_555 1_555
H51_3 C48_3 1_555 1_555
H52_3 C48_3 1_555 1_555
C49_3 O23_3 1_555 1_555
H53_3 C49_3 1_555 1_555
H54_3 C49_3 1_555 1_555
C50_3 C49_3 1_555 1_555
H55_3 C50_3 1_555 1_555
H56_3 C50_3 1_555 1_555
C51_3 C50_3 1_555 1_555
H57_3 C51_3 1_555 1_555
H58_3 C51_3 1_555 1_555
C52_3 O23_3 1_555 1_555
H59_3 C52_3 1_555 1_555
H60_3 C52_3 1_555 1_555
O28_2 Zn8_2 1_555 1_555
O29_2 Zn10 1_555 1_555
Zn10 O26_3 1_555 1_555
C4_3 C5_3 1_555 1_555
C39_3 C40_3 1_555 1_555
C47_3 C48_3 1_555 1_555
C51_3 C52_3 1_555 1_555
O24_3 H61_3 1_555 1_555
O24_3 H62_3 1_555 1_555
O22_3 H63_3 1_555 1_555
O22_3 H64_3 1_555 1_555
O7_2 C14_3 1_555 1_555
O8_2 C14_3 1_555 1_555
H5_3 C10_3 1_555 1_555
C33_3 O18_3 1_555 1_555
H21_3 C33_3 1_555 1_555
H22_3 C33_3 1_555 1_555
C34_3 C33_3 1_555 1_555
H24_3 C34_3 1_555 1_555
C35_3 C34_3 1_555 1_555
H25_3 C35_3 1_555 1_555
H26_3 C35_3 1_555 1_555
C36_3 O18_3 1_555 1_555
H27_3 C36_3 1_555 1_555
H28_3 C36_3 1_555 1_555
H37_3 C41_3 1_555 1_555
H38_3 C41_3 1_555 1_555
Zn8 O7_2 1_555 1_555
Zn10_2 O8_2 1_555 1_555
C35_3 C36_3 1_555 1_555
O32_2 C27_3 1_555 1_555
O14_3 C27_3 1_555 1_555
O16_3 Zn2_2 1_555 1_555
O19_3 Zn2_2 1_555 1_555
O20_3 Zn2_2 1_555 1_555
C22_3 H10_3 1_555 1_555
C23_3 C22_3 1_555 1_555
C24_3 C23_3 1_555 1_555
H11_3 C24_3 1_555 1_555
C25_3 C24_3 1_555 1_555
C27_3 C23_3 1_555 1_555
C28_3 O16_3 1_555 1_555
C37_3 O19_3 1_555 1_555
H29_3 C37_3 1_555 1_555
H30_3 C37_3 1_555 1_555
C38_3 C37_3 1_555 1_555
H31_3 C38_3 1_555 1_555
H32_3 C38_3 1_555 1_555
C43_3 C42_3 1_555 1_555
H41_3 C43_3 1_555 1_555
H42_3 C43_3 1_555 1_555
C44_3 O20_3 1_555 1_555
H43_3 C44_3 1_555 1_555
C25_3 C28_3 1_555 1_555
C43_3 C44_3 1_555 1_555
Pd3 Cl3_3 1_555 1_555
Cl4_3 Pd3 1_555 1_555
O27_2 C13_3 1_555 1_555
N3_3 Pd3 1_555 1_555
C8_3 N3_3 1_555 1_555
H4_3 C8_3 1_555 1_555
C9_3 C8_3 1_555 1_555
C12_3 N3_3 1_555 1_555
H6_3 C12_3 1_555 1_555
C9_3 C13_3 1_555 1_555
C11_3 C12_3 1_555 1_555
Pd3_2 Cl3_4 1_555 1_555
Cl4_4 Pd3_2 1_555 1_555
O6_2 C13_4 1_555 1_555
O28_2 C14_4 1_555 1_555
O29_2 C14_4 1_555 1_555
N3_4 Pd3_2 1_555 1_555
C8_4 N3_4 1_555 1_555
H4_4 C8_4 1_555 1_555
C9_4 C8_4 1_555 1_555
C10_4 C9_4 1_555 1_555
H5_4 C10_4 1_555 1_555
C11_4 C10_4 1_555 1_555
C12_4 N3_4 1_555 1_555
H6_4 C12_4 1_555 1_555
C13_4 O5_4 1_555 1_555
C14_4 C11_4 1_555 1_555
C33_4 O18_4 1_555 1_555
H21_4 C33_4 1_555 1_555
H22_4 C33_4 1_555 1_555
C34_4 C33_4 1_555 1_555
H23_4 C34_4 1_555 1_555
H24_4 C34_4 1_555 1_555
C35_4 C34_4 1_555 1_555
H25_4 C35_4 1_555 1_555
H26_4 C35_4 1_555 1_555
C36_4 O18_4 1_555 1_555
H27_4 C36_4 1_555 1_555
H28_4 C36_4 1_555 1_555
Zn6_2 O6_2 1_555 1_555
O25_2 Zn6_2 1_555 1_555
C9_4 C13_4 1_555 1_555
C11_4 C12_4 1_555 1_555
C35_4 C36_4 1_555 1_555
Zn1_2 O3_4 1_555 1_555
Zn8 O2_4 1_555 1_555
Zn10_2 O1_4 1_555 1_555
O1_4 C6_4 1_555 1_555
O2_4 C6_4 1_555 1_555
O3_4 C7_4 1_555 1_555
O4_4 C7_4 1_555 1_555
O17_4 Zn1_2 1_555 1_555
O21_4 Zn8 1_555 1_555
O22_4 Zn8 1_555 1_555
O23_4 Zn10_2 1_555 1_555
O26_4 Zn8 1_555 1_555
C1_4 N1_4 1_555 1_555
H1_4 C1_4 1_555 1_555
C2_4 C1_4 1_555 1_555
C3_4 C2_4 1_555 1_555
H2_4 C3_4 1_555 1_555
C4_4 C3_4 1_555 1_555
C5_4 N1_4 1_555 1_555
H3_4 C5_4 1_555 1_555
C6_4 C2_4 1_555 1_555
C7_4 C4_4 1_555 1_555
C29_4 O17_4 1_555 1_555
H13_4 C29_4 1_555 1_555
H14_4 C29_4 1_555 1_555
C30_4 C29_4 1_555 1_555
H15_4 C30_4 1_555 1_555
H16_4 C30_4 1_555 1_555
C31_4 C30_4 1_555 1_555
H17_4 C31_4 1_555 1_555
H18_4 C31_4 1_555 1_555
C32_4 O17_4 1_555 1_555
H19_4 C32_4 1_555 1_555
H20_4 C32_4 1_555 1_555
C45_4 O21_4 1_555 1_555
H45_4 C45_4 1_555 1_555
H46_4 C45_4 1_555 1_555
C46_4 C45_4 1_555 1_555
H47_4 C46_4 1_555 1_555
H48_4 C46_4 1_555 1_555
C47_4 C46_4 1_555 1_555
H49_4 C47_4 1_555 1_555
H50_4 C47_4 1_555 1_555
C48_4 O21_4 1_555 1_555
H51_4 C48_4 1_555 1_555
H52_4 C48_4 1_555 1_555
C49_4 O23_4 1_555 1_555
H53_4 C49_4 1_555 1_555
H54_4 C49_4 1_555 1_555
C50_4 C49_4 1_555 1_555
H55_4 C50_4 1_555 1_555
H56_4 C50_4 1_555 1_555
C51_4 C50_4 1_555 1_555
H57_4 C51_4 1_555 1_555
C52_4 O23_4 1_555 1_555
H59_4 C52_4 1_555 1_555
O31_2 Zn1_2 1_555 1_555
Zn10_2 O26_4 1_555 1_555
C4_4 C5_4 1_555 1_555
C31_4 C32_4 1_555 1_555
C47_4 C48_4 1_555 1_555
C51_4 C52_4 1_555 1_555
O22_4 H63_4 1_555 1_555
O22_4 H64_4 1_555 1_555
O32 C27_4 1_555 1_555
O14_4 C27_4 1_555 1_555
O15_4 C28_4 1_555 1_555
O16_4 Zn6_2 1_555 1_555
O19_4 Zn6_2 1_555 1_555
O20_4 Zn6_2 1_555 1_555
N5_2 C22_4 1_555 1_555
C22_4 H10_4 1_555 1_555
C23_4 C22_4 1_555 1_555
C24_4 C23_4 1_555 1_555
H11_4 C24_4 1_555 1_555
C25_4 C24_4 1_555 1_555
C26_4 N5_2 1_555 1_555
H12_4 C26_4 1_555 1_555
C27_4 C23_4 1_555 1_555
C28_4 O16_4 1_555 1_555
C37_4 O19_4 1_555 1_555
H29_4 C37_4 1_555 1_555
H30_4 C37_4 1_555 1_555
C38_4 C37_4 1_555 1_555
H31_4 C38_4 1_555 1_555
H32_4 C38_4 1_555 1_555
C41_4 O20_4 1_555 1_555
H37_4 C41_4 1_555 1_555
H38_4 C41_4 1_555 1_555
C42_4 C41_4 1_555 1_555
H39_4 C42_4 1_555 1_555
C43_4 C42_4 1_555 1_555
H41_4 C43_4 1_555 1_555
H42_4 C43_4 1_555 1_555
C44_4 O20_4 1_555 1_555
H43_4 C44_4 1_555 1_555
C25_4 C26_4 1_555 1_555
C25_4 C28_4 1_555 1_555
C43_4 C44_4 1_555 1_555
Pd1_4 Cl1_4 1_555 1_555
O30_2 C20_4 1_555 1_555
O10_4 C20_4 1_555 1_555
O31_2 C21_4 1_555 1_555
O12_4 C21_4 1_555 1_555
N2_4 Pd1_4 1_555 1_555
C15_4 N2_4 1_555 1_555
H7_4 C15_4 1_555 1_555
C16_4 C15_4 1_555 1_555
C17_4 C16_4 1_555 1_555
H8_4 C17_4 1_555 1_555
C18_4 C17_4 1_555 1_555
C19_4 N2_4 1_555 1_555
H9_4 C19_4 1_555 1_555
C20_4 C18_4 1_555 1_555
C21_4 C16_4 1_555 1_555
H33_4 C39_4 1_555 1_555
H34_3 C39_4 1_555 1_555
H35_4 C40_4 1_555 1_555
H36_4 C40_4 1_555 1_555
C18_4 C19_4 1_555 1_555
C39_4 C40_4 1_555 1_555
O24_4 H61_4 1_555 1_555
O24_4 H62_4 1_555 1_555

#END
