
###############################################################################
#
# This file contains modified crystal structure data generated from the
# MOF subset of the Cambridge Structural Database (CSD) v543 
# hosted by the Cambridge Crystallographic Data Centre (CCDC).
#
# This work is licensed under the Creative Commons
# Attribution-NonCommercial-ShareAlike 4.0 International License.
# To view a copy of this license, visit
# http://creativecommons.org/licenses/by-nc-sa/4.0/
# or send a letter to
# Creative Commons, PO Box 1866, Mountain View, CA 94042, USA.
#
# CIF created using the CSD Python API on 29 September 2022
# The structure has been converted into the P1 space group
# The structure has a 3D framework
# The original CSD entry CODGIO is in the monoclinic crystal system
# The framework has been calculated to contain at least 10.0% void space
# The void calculation uses a probe of radius 1.32A, grid spacing 0.4
#
###############################################################################

data_CODGIO
_chemical_formula_moiety         '(C204 H164 N16 Ni8 O26)n'
_symmetry_cell_setting           triclinic
_symmetry_space_group_name_H-M   'P 1'
_symmetry_Int_Tables_number      1
_space_group_name_Hall           'P 1'
loop_
_symmetry_equiv_pos_site_id
_symmetry_equiv_pos_as_xyz
1 x,y,z
_cell_length_a                   8.6003(2)
_cell_length_b                   18.6486(5)
_cell_length_c                   34.7689(9)
_cell_angle_alpha                90
_cell_angle_beta                 96.7110(10)
_cell_angle_gamma                90
_cell_volume                     5538.15
loop_
_atom_site_label
_atom_site_type_symbol
_atom_site_fract_x
_atom_site_fract_y
_atom_site_fract_z
O6 O 0.2064(3) 0.60667(13) 0.22741(7)
C5 C 0.0795(4) 0.63311(17) 0.21205(9)
H34 H 0.0242 0.4671 0.1162
C41 C 0.0576(5) 0.5391(2) 0.16002(10)
H35 H 0.1275 0.5113 0.1761
C42 C 0.0153(4) 0.60579(18) 0.17227(9)
Ni5 Ni 0.04489(5) 0.73276(2) 0.27901(2)
C59 C 0.3553(4) 0.66777(19) 0.72275(11)
H50 H 0.4072 0.6922 0.7047
C60 C 0.2658(5) 0.6099(2) 0.71058(12)
H51 H 0.2577 0.5957 0.6848
C61 C 0.1865(4) 0.57229(19) 0.73675(13)
C62 C 0.0838(5) 0.5087(2) 0.72361(15)
H52 H 0.1439 0.4751 0.7100
H53 H 0.0526 0.4844 0.7462
C63 C 0.2941(4) 0.6556(2) 0.78512(11)
H54 H 0.3033 0.6708 0.8108
C64 C 0.2003(5) 0.5969(2) 0.77448(12)
H55 H 0.1467 0.5740 0.7927
N7 N 0.3723(3) 0.69134(15) 0.76002(8)
Ni6 Ni 0.54489(5) 0.76724(2) 0.77901(2)
Ni2 Ni 0.5000 0.0000 0.0000
O4 O 0.6263(3) 0.08205(13) 0.03132(7)
O7 O 0.9983(3) 0.68031(12) 0.22665(6)
H19 H 0.0205 0.1109 0.1247
H20 H 0.0539 0.0534 0.1569
C21 C 0.0831(8) 0.0246(8) 0.0821(2)
N1 N 0.3246(4) 0.00776(19) 0.03610(9)
C24 C 0.1914(6) 0.0384(3) 0.02455(15)
C25 C 0.0716(7) 0.0485(3) 0.04658(17)
C26 C 0.5556(5) 0.12636(19) 0.00781(11)
C27 C 0.5921(5) 0.20454(18) 0.01174(11)
C28 C 0.6915(6) 0.22910(19) 0.04294(11)
H27 H 0.7317 0.1971 0.0621
C29 C 0.7320(5) 0.3006(2) 0.04605(11)
H28 H 0.8005 0.3160 0.0671
C30 C 0.6721(5) 0.35032(17) 0.01812(10)
C33 C 0.7214(4) 0.42675(18) 0.02142(9)
C34 C 0.7804(5) 0.45584(18) 0.05710(9)
H31 H 0.7864 0.4271 0.0791
C35 C 0.8305(4) 0.52682(18) 0.06065(9)
C36 C 0.8179(5) 0.56994(18) 0.02785(9)
H32 H 0.8488 0.6177 0.0300
C39 C 0.8963(4) 0.55468(18) 0.09912(9)
C40 C 0.9971(5) 0.51276(19) 0.12383(10)
C43 C 0.9138(5) 0.64811(19) 0.14771(10)
H36 H 0.8844 0.6932 0.1557
C44 C 0.8571(5) 0.62286(18) 0.11147(10)
H37 H 0.7915 0.6518 0.0949
Ni2_2 Ni 0.5000 -0.0000 1.0000
O2 O 0.5927(3) 0.71499(12) 0.83111(6)
O3 O 0.4539(3) 0.10486(13) 0.98078(8)
O5 O 0.8377(3) 0.75390(18) 0.84778(8)
H25 H 0.1764 0.0548 0.9991
C31 C 0.5694(5) 0.3251(2) 0.98733(11)
H29 H 0.5262 0.3572 0.9686
C32 C 0.5297(5) 0.2531(2) 0.98375(11)
H30 H 0.4615 0.2373 0.9627
C37 C 0.7132(5) 0.47098(18) 0.98892(9)
H33 H 0.6757 0.4522 0.9648
C38 C 0.7595(4) 0.54236(18) 0.99164(9)
C45 C 0.7487(5) 0.58821(18) 0.95645(9)
C46 C 0.8624(5) 0.63944(19) 0.95137(10)
H38 H 0.9466 0.6454 0.9705
C47 C 0.8524(5) 0.6817(2) 0.91844(10)
H39 H 0.9289 0.7159 0.9157
C48 C 0.7287(4) 0.67305(18) 0.88947(10)
C49 C 0.6132(5) 0.62299(19) 0.89445(10)
H40 H 0.5283 0.6177 0.8755
C50 C 0.6239(5) 0.5811(2) 0.92737(10)
H41 H 0.5462 0.5475 0.9302
C51 C 0.7198(4) 0.71808(19) 0.85327(10)
O8 O 0.7097(3) 0.84472(13) 0.79782(7)
H42 H 0.7367 0.8673 0.7783
H43 H 0.6702 0.8742 0.8128
C52 C 0.9370(5) 0.5308(2) 0.69700(13)
H44 H 0.8699 0.4894 0.6914
H45 H 0.9667 0.5487 0.6727
C53 C 0.8495(4) 0.5879(2) 0.71607(11)
C54 C 0.8538(5) 0.6594(2) 0.70564(12)
H46 H 0.9080 0.6731 0.6852
C55 C 0.7787(5) 0.7104(2) 0.72526(11)
H47 H 0.7821 0.7578 0.7171
C57 C 0.6981(5) 0.62589(19) 0.76578(11)
H48 H 0.6457 0.6138 0.7868
C58 C 0.7677(5) 0.5721(2) 0.74726(11)
H49 H 0.7603 0.5249 0.7555
C65 C 0.4159(6) 0.8539(2) 0.84087(11)
H56 H 0.5174 0.8486 0.8530
C66 C 0.3057(7) 0.8879(3) 0.86022(13)
H57 H 0.3330 0.9042 0.8854
C67 C 0.1510(6) 0.8980(3) 0.84200(13)
C68 C 0.1205(5) 0.8734(2) 0.80471(12)
H58 H 0.0220 0.8802 0.7910
C69 C 0.2360(4) 0.8383(2) 0.78741(11)
H59 H 0.2112 0.8211 0.7623
C70 C 0.0259(9) 0.9290(5) 0.86286(19)
C71 C 0.0488(10) 0.9814(4) 0.8898(2)
H62 H 0.1513 0.9762 0.9044
H67 H 0.0185 0.9274 0.9638
N6 N 0.7011(3) 0.69542(15) 0.75538(9)
N8 N 0.3799(4) 0.82802(15) 0.80465(8)
O18 O 0.4983(3) 0.81969(12) 0.72665(6)
C73 C 0.7863(10) 0.0297(5) 0.9062(2)
H64 H 0.7873 0.0636 0.8867
C74 C 0.6630(9) 0.0206(7) 0.92985(18)
H65 H 0.5642 0.0365 0.9197
H3 H 0.3699 0.0106 0.1914
H11 H 0.6439 0.0249 0.2100
H12 H 0.5526 0.0156 0.2462
O11 O 0.1263(3) 0.41795(13) 0.53132(7)
C77 C 0.0556(5) 0.37364(19) 0.50781(11)
C78 C 0.0921(5) 0.29546(18) 0.51174(11)
C79 C 0.1915(6) 0.27090(19) 0.54294(11)
H68 H 0.2317 0.3029 0.5621
C80 C 0.2320(5) 0.1994(2) 0.54605(11)
H69 H 0.3005 0.1840 0.5671
C81 C 0.1721(5) 0.14968(17) 0.51812(10)
C82 C 0.0694(5) 0.1749(2) 0.48733(11)
H70 H 0.0262 0.1428 0.4686
C83 C 0.0297(5) 0.2469(2) 0.48375(11)
C84 C 0.2214(4) 0.07325(18) 0.52142(9)
C85 C 0.2804(5) 0.04416(18) 0.55710(9)
H72 H 0.2864 0.0729 0.5791
C88 C 0.2132(5) 0.02902(18) 0.48892(9)
H74 H 0.1757 0.0478 0.4648
H75 H 0.5242 0.0329 0.6162
Ni8 Ni -0.0000 0.5000 0.5000
O1 O 0.2097(3) 0.65528(13) 0.29782(7)
H1 H 0.2367 0.6327 0.2783
H2 H 0.1702 0.6258 0.3128
C1 C 0.4370(5) 0.9692(2) 0.19700(13)
H4 H 0.4667 0.9513 0.1727
C2 C 0.3495(4) 0.9121(2) 0.21607(11)
C3 C 0.3538(5) 0.8406(2) 0.20564(12)
H5 H 0.4080 0.8269 0.1852
C4 C 0.2787(5) 0.7896(2) 0.22526(11)
H6 H 0.2821 0.7422 0.2171
C6 C 0.1981(5) 0.87411(19) 0.26578(11)
H7 H 0.1457 0.8862 0.2868
C7 C 0.2677(5) 0.9279(2) 0.24726(11)
H8 H 0.2603 0.9751 0.2555
C8 C 0.8553(4) 0.83223(19) 0.22275(11)
H9 H 0.9072 0.8078 0.2047
C9 C 0.7658(5) 0.8901(2) 0.21058(12)
H10 H 0.7577 0.9043 0.1848
C10 C 0.6865(4) 0.92771(19) 0.23675(13)
C11 C 0.5838(5) 0.9913(2) 0.22361(15)
C12 C 0.7941(4) 0.8444(2) 0.28512(11)
H13 H 0.8033 0.8292 0.3108
C13 C 0.7003(5) 0.9031(2) 0.27448(12)
H14 H 0.6467 0.9260 0.2927
H15 H 0.0174 0.6514 0.3530
N2 N 0.2011(3) 0.80458(15) 0.25538(9)
N3 N 0.8723(3) 0.80866(15) 0.26002(8)
O9 O 0.0927(3) 0.78501(12) 0.33111(6)
O12 O 0.3377(3) 0.74610(18) 0.34778(8)
O13 O 0.7064(3) 0.89333(13) 0.72741(7)
C56 C 0.5795(4) 0.86689(17) 0.71205(9)
C86 C 0.3305(4) 0.97318(18) 0.56065(9)
C87 C 0.3179(5) 0.93006(18) 0.52785(9)
H73 H 0.3488 0.8823 0.5300
C89 C 0.2595(4) 0.95764(18) 0.49164(9)
C90 C 0.3963(4) 0.94532(18) 0.59912(9)
C91 C 0.4971(5) 0.98724(19) 0.62383(10)
C92 C 0.5576(5) 0.9609(2) 0.66002(10)
H76 H 0.6275 0.9887 0.6761
C93 C 0.5153(4) 0.89421(18) 0.67227(9)
C94 C 0.4138(5) 0.85189(19) 0.64771(10)
H77 H 0.3844 0.8068 0.6557
C95 C 0.3571(5) 0.87714(18) 0.61147(10)
H78 H 0.2915 0.8482 0.5949
C96 C 0.2487(5) 0.91179(18) 0.45645(9)
C97 C 0.3624(5) 0.86056(19) 0.45137(10)
H79 H 0.4466 0.8546 0.4705
C98 C 0.3524(5) 0.8183(2) 0.41844(10)
H80 H 0.4289 0.7841 0.4157
C99 C 0.2287(4) 0.82695(18) 0.38947(10)
C100 C 0.1132(5) 0.87701(19) 0.39445(10)
H81 H 0.0283 0.8823 0.3755
C101 C 0.1239(5) 0.9189(2) 0.42737(10)
H82 H 0.0462 0.9525 0.4302
C102 C 0.2198(4) 0.78192(19) 0.35327(10)
O3_2 O 0.0461(3) 0.60486(13) 0.51922(8)
C14 C 0.9159(6) 0.6461(2) 0.34087(11)
C15 C 0.8057(7) 0.6121(3) 0.36022(13)
H16 H 0.8330 0.5958 0.3854
C16 C 0.6510(6) 0.6020(3) 0.34200(13)
C17 C 0.6205(5) 0.6266(2) 0.30471(12)
H17 H 0.5220 0.6198 0.2910
C18 C 0.7360(4) 0.6617(2) 0.28741(11)
H18 H 0.7112 0.6789 0.2623
C19 C 0.5259(9) 0.5710(5) 0.36286(19)
H19_2 H 0.4795 0.6109 0.3753
H20_2 H 0.4461 0.5534 0.3431
C20 C 0.5488(10) 0.5186(4) 0.3898(2)
H21 H 0.6513 0.5238 0.4044
H22 H 0.5438 0.4720 0.3773
C21_2 C 0.4169(8) 0.5246(8) 0.4179(2)
C22 C 0.2863(10) 0.4703(5) 0.4062(2)
H23 H 0.2873 0.4364 0.3867
C23 C 0.1630(9) 0.4794(7) 0.42985(18)
H24 H 0.0642 0.4635 0.4197
N1_2 N 0.1754(4) 0.50776(19) 0.46390(9)
C24_2 C 0.3086(6) 0.5384(3) 0.47545(15)
H25_2 H 0.3236 0.5548 0.5009
C25_2 C 0.4284(7) 0.5485(3) 0.45342(17)
H26 H 0.5185 0.5726 0.4638
H30_2 H 0.0385 0.7373 0.5373
N4 N 0.8799(4) 0.67198(15) 0.30465(8)
H63 H 0.0438 0.0280 0.8773
Ni2_3 Ni 0.5000 1.0000 0.0000
C22_2 C 0.2137(10) 0.9703(5) 0.0938(2)
H23_2 H 0.2127 0.9364 0.1133
C23_2 C 0.3370(9) 0.9794(7) 0.07015(18)
H24_2 H 0.4358 0.9635 0.0803
O15 O 0.5461(3) 0.89514(13) 0.01922(8)
Ni2_4 Ni 0.5000 1.0000 1.0000
O16 O 0.3737(3) 0.91795(13) 0.96868(7)
N9 N 0.6754(4) 0.99224(19) 0.96390(9)
Ni1 Ni 0.45511(5) 0.23276(2) 0.22099(2)
O1_2 O 0.2903(3) 0.15528(13) 0.20218(7)
H1_2 H 0.2633 0.1327 0.2217
H2_2 H 0.3298 0.1258 0.1872
C1_2 C 0.0630(5) 0.4692(2) 0.30300(13)
H3_2 H 0.1301 0.5106 0.3086
H4_2 H 0.0333 0.4513 0.3273
C2_2 C 0.1505(4) 0.4121(2) 0.28393(11)
C3_2 C 0.1462(5) 0.3406(2) 0.29436(12)
H5_2 H 0.0920 0.3269 0.3148
C4_2 C 0.2213(5) 0.2896(2) 0.27474(11)
H6_2 H 0.2179 0.2422 0.2829
C6_2 C 0.3019(5) 0.37411(19) 0.23422(11)
H7_2 H 0.3543 0.3862 0.2132
C7_2 C 0.2323(5) 0.4279(2) 0.25274(11)
H8_2 H 0.2397 0.4751 0.2445
C14_2 C 0.5841(6) 0.1461(2) 0.15913(11)
H15_2 H 0.4826 0.1514 0.1470
C15_2 C 0.6943(7) 0.1121(3) 0.13978(13)
H16_2 H 0.6670 0.0958 0.1146
C16_2 C 0.8490(6) 0.1020(3) 0.15800(13)
C17_2 C 0.8795(5) 0.1266(2) 0.19529(12)
H17_2 H 0.9780 0.1198 0.2090
C18_2 C 0.7640(4) 0.1617(2) 0.21259(11)
H18_2 H 0.7888 0.1789 0.2377
C19_2 C 0.9741(9) 0.0710(5) 0.13714(19)
C20_2 C 0.9512(10) 0.0186(4) 0.1102(2)
H21_2 H 0.8487 0.0238 0.0956
H26_2 H 0.9815 0.0726 0.0362
N2_2 N 0.2989(3) 0.30458(15) 0.24462(9)
N4_2 N 0.6201(4) 0.17198(15) 0.19535(8)
O9_2 O 0.4073(3) 0.28501(12) 0.16889(6)
O12_2 O 0.1623(3) 0.24610(18) 0.15222(8)
H66 H 0.8236 0.9452 0.0009
C82_2 C 0.4306(5) 0.6749(2) 0.01267(11)
H70_2 H 0.4738 0.6428 0.0314
C83_2 C 0.4703(5) 0.7469(2) 0.01625(11)
H71 H 0.5385 0.7627 0.0373
C88_2 C 0.2868(5) 0.52902(18) 0.01108(9)
H74_2 H 0.3243 0.5478 0.0352
C89_2 C 0.2405(4) 0.45764(18) 0.00836(9)
C96_2 C 0.2513(5) 0.41179(18) 0.04355(9)
C97_2 C 0.1376(5) 0.36056(19) 0.04863(10)
H79_2 H 0.0534 0.3546 0.0295
C98_2 C 0.1476(5) 0.3183(2) 0.08156(10)
H80_2 H 0.0711 0.2841 0.0843
C99_2 C 0.2713(4) 0.32695(18) 0.11053(10)
C100_2 C 0.3868(5) 0.37701(19) 0.10555(10)
H81_2 H 0.4717 0.3823 0.1245
C101_2 C 0.3761(5) 0.4189(2) 0.07263(10)
H82_2 H 0.4538 0.4525 0.0698
C102_2 C 0.2802(4) 0.28192(19) 0.14673(10)
O17 O 0.5017(3) 0.18031(12) 0.27335(6)
N10 N 0.6277(3) 0.30866(15) 0.23998(8)
O14 O 0.0017(3) 0.31969(12) 0.77335(6)
H60 H 0.9795 0.8891 0.8753
H61 H 0.9461 0.9466 0.8431
C72 C 0.9169(8) 0.9754(8) 0.9179(2)
C75 C 0.8086(6) 0.9616(3) 0.97545(15)
C76 C 0.9284(7) 0.9515(3) 0.95342(17)
C77_2 C 0.4444(5) 0.87364(19) 0.99219(11)
C78_2 C 0.4079(5) 0.79546(18) 0.98826(11)
C79_2 C 0.3085(6) 0.77090(19) 0.95706(11)
H68_2 H 0.2683 0.8029 0.9379
C80_2 C 0.2680(5) 0.6994(2) 0.95395(11)
H69_2 H 0.1995 0.6840 0.9329
C81_2 C 0.3279(5) 0.64968(17) 0.98188(10)
C84_2 C 0.2786(4) 0.57325(18) 0.97858(9)
C85_2 C 0.2196(5) 0.54416(18) 0.94290(9)
H72_2 H 0.2136 0.5729 0.9209
C86_2 C 0.1695(4) 0.47318(18) 0.93935(9)
C87_2 C 0.1821(5) 0.43006(18) 0.97215(9)
H73_2 H 0.1512 0.3823 0.9700
C90_2 C 0.1037(4) 0.44532(18) 0.90088(9)
C91_2 C 0.0029(5) 0.48724(19) 0.87617(10)
C94_2 C 0.0862(5) 0.35189(19) 0.85229(10)
H77_2 H 0.1156 0.3068 0.8443
C95_2 C 0.1429(5) 0.37714(18) 0.88853(10)
H78_2 H 0.2085 0.3482 0.9051
C8_2 C 0.6447(4) 0.33223(19) 0.27725(11)
H9_2 H 0.5928 0.3078 0.2953
C9_2 C 0.7342(5) 0.3901(2) 0.28942(12)
H10_2 H 0.7423 0.4043 0.3152
C10_2 C 0.8135(4) 0.42771(19) 0.26325(13)
C11_2 C 0.9162(5) 0.4913(2) 0.27639(15)
H11_2 H 0.8561 0.5249 0.2900
H12_2 H 0.9474 0.5156 0.2538
C12_2 C 0.7059(4) 0.3444(2) 0.21488(11)
H13_2 H 0.6967 0.3292 0.1892
C13_2 C 0.7997(5) 0.4031(2) 0.22552(12)
H14_2 H 0.8533 0.4260 0.2073
O13_2 O 0.7936(3) 0.39333(13) 0.77259(7)
C56_2 C 0.9205(4) 0.36689(17) 0.78795(9)
H75_2 H 0.9758 0.5329 0.8838
C92_2 C 0.9424(5) 0.4609(2) 0.83998(10)
H76_2 H 0.8725 0.4887 0.8239
C93_2 C 0.9847(4) 0.39421(18) 0.82773(9)
Ni7 Ni 0.95511(5) 0.26724(2) 0.72099(2)
O10 O 0.9539(3) 0.39514(13) 0.48078(8)
C65_2 C 0.0841(6) 0.3539(2) 0.65913(11)
C66_2 C 0.1943(7) 0.3879(3) 0.63978(13)
H57_2 H 0.1670 0.4042 0.6146
C67_2 C 0.3490(6) 0.3980(3) 0.65800(13)
C68_2 C 0.3795(5) 0.3734(2) 0.69529(12)
H58_2 H 0.4780 0.3802 0.7090
C69_2 C 0.2640(4) 0.3383(2) 0.71259(11)
H59_2 H 0.2888 0.3211 0.7377
C70_2 C 0.4741(9) 0.4290(5) 0.63714(19)
H60_2 H 0.5205 0.3891 0.6247
H61_2 H 0.5539 0.4466 0.6569
C71_2 C 0.4512(10) 0.4814(4) 0.6102(2)
H62_2 H 0.3487 0.4762 0.5956
H63_2 H 0.4562 0.5280 0.6227
C72_2 C 0.5831(8) 0.4754(8) 0.5821(2)
C73_2 C 0.7137(10) 0.5297(5) 0.5938(2)
H64_2 H 0.7127 0.5636 0.6133
C74_2 C 0.8370(9) 0.5206(7) 0.57015(18)
H65_2 H 0.9358 0.5365 0.5803
N5 N 0.8246(4) 0.49224(19) 0.53610(9)
C75_2 C 0.6914(6) 0.4616(3) 0.52455(15)
H66_2 H 0.6764 0.4452 0.4991
C76_2 C 0.5716(7) 0.4515(3) 0.54658(17)
H67_2 H 0.4815 0.4274 0.5362
H71_2 H 0.9615 0.2627 0.4627
N8_2 N 0.1201(4) 0.32802(15) 0.69535(8)
Ni8_2 Ni 1.0000 0.5000 0.5000
N11 N 0.1277(3) 0.19134(15) 0.73998(8)
O2_2 O 0.9073(3) 0.21499(12) 0.66889(6)
O5_2 O 0.6623(3) 0.25390(18) 0.65222(8)
O6_2 O 0.2936(3) 0.10667(13) 0.27259(7)
C5_2 C 0.4205(4) 0.13311(17) 0.28795(9)
C35_2 C 0.6695(4) 0.02682(18) 0.43935(9)
C36_2 C 0.6821(5) 0.06994(18) 0.47215(9)
H32_2 H 0.6512 0.1177 0.4700
C38_2 C 0.7405(4) 0.04236(18) 0.50836(9)
C39_2 C 0.6037(4) 0.05468(18) 0.40088(9)
C40_2 C 0.5029(5) 0.01276(19) 0.37617(10)
C41_2 C 0.4424(5) 0.0391(2) 0.33998(10)
H35_2 H 0.3725 0.0113 0.3239
C42_2 C 0.4847(4) 0.10579(18) 0.32773(9)
C43_2 C 0.5862(5) 0.14811(19) 0.35229(10)
H36_2 H 0.6156 0.1932 0.3443
C44_2 C 0.6429(5) 0.12286(18) 0.38853(10)
H37_2 H 0.7085 0.1518 0.4051
C45_2 C 0.7513(5) 0.08821(18) 0.54355(9)
C46_2 C 0.6376(5) 0.13944(19) 0.54863(10)
H38_2 H 0.5534 0.1454 0.5295
C47_2 C 0.6476(5) 0.1817(2) 0.58156(10)
H39_2 H 0.5711 0.2159 0.5843
C48_2 C 0.7713(4) 0.17305(18) 0.61053(10)
C49_2 C 0.8868(5) 0.12299(19) 0.60555(10)
H40_2 H 0.9717 0.1177 0.6245
C50_2 C 0.8761(5) 0.0811(2) 0.57263(10)
H41_2 H 0.9538 0.0475 0.5698
C51_2 C 0.7802(4) 0.21808(19) 0.64673(10)
O8_2 O 0.7903(3) 0.34472(13) 0.70218(7)
H42_2 H 0.7633 0.3673 0.7217
H43_2 H 0.8298 0.3742 0.6872
C52_2 C 0.5630(5) 0.0308(2) 0.80300(13)
H45_2 H 0.5333 0.0487 0.8273
C53_2 C 0.6505(4) 0.0879(2) 0.78393(11)
C54_2 C 0.6462(5) 0.1594(2) 0.79436(12)
H46_2 H 0.5920 0.1731 0.8148
C55_2 C 0.7213(5) 0.2104(2) 0.77474(11)
H47_2 H 0.7179 0.2578 0.7829
C57_2 C 0.8019(5) 0.12589(19) 0.73422(11)
H48_2 H 0.8543 0.1138 0.7132
C58_2 C 0.7323(5) 0.0721(2) 0.75274(11)
H49_2 H 0.7397 0.0249 0.7445
C59_2 C 0.1447(4) 0.16777(19) 0.77725(11)
H50_2 H 0.0928 0.1922 0.7953
C60_2 C 0.2342(5) 0.1099(2) 0.78942(12)
H51_2 H 0.2423 0.0957 0.8152
C61_2 C 0.3135(4) 0.07229(19) 0.76325(13)
C62_2 C 0.4162(5) 0.0087(2) 0.77639(15)
C63_2 C 0.2059(4) 0.1556(2) 0.71488(11)
H54_2 H 0.1967 0.1708 0.6892
C64_2 C 0.2997(5) 0.0969(2) 0.72552(12)
H55_2 H 0.3533 0.0740 0.7073
H56_2 H 0.9826 0.3486 0.6470
N6_2 N 0.7989(3) 0.19542(15) 0.74462(9)
O4_2 O 0.8737(3) 0.58205(13) 0.46868(7)
C26_2 C 0.9444(5) 0.62636(19) 0.49219(11)
C27_2 C 0.9079(5) 0.70454(18) 0.48826(11)
C28_2 C 0.8085(6) 0.72910(19) 0.45706(11)
H27_2 H 0.7683 0.6971 0.4379
C29_2 C 0.7680(5) 0.8006(2) 0.45395(11)
H28_2 H 0.6995 0.8160 0.4329
C30_2 C 0.8279(5) 0.85032(17) 0.48188(10)
C31_2 C 0.9306(5) 0.8251(2) 0.51267(11)
H29_2 H 0.9738 0.8572 0.5314
C32_2 C 0.9703(5) 0.7531(2) 0.51625(11)
C33_2 C 0.7786(4) 0.92675(18) 0.47858(9)
C34_2 C 0.7196(5) 0.95584(18) 0.44290(9)
H31_2 H 0.7136 0.9271 0.4209
C37_2 C 0.7868(5) 0.97098(18) 0.51108(9)
H33_2 H 0.8243 0.9522 0.5352
H34_2 H 0.4758 0.9671 0.3838
H44_2 H 0.6301 0.9894 0.8086
H52_2 H 0.3561 0.9751 0.7900
H53_2 H 0.4474 0.9844 0.7538
H22_2 H 0.9562 0.9720 0.1227
loop_
_geom_bond_atom_site_label_1
_geom_bond_atom_site_label_2
_geom_bond_site_symmetry_1
_geom_bond_site_symmetry_2
O6 C5 1_555 1_555
C5 C42 1_555 1_555
H35 C41 1_555 1_555
C42 C41 1_555 1_555
C59 H50 1_555 1_555
C60 C59 1_555 1_555
H51 C60 1_555 1_555
C61 C60 1_555 1_555
H52 C62 1_555 1_555
H53 C62 1_555 1_555
C63 H54 1_555 1_555
C64 C61 1_555 1_555
H55 C64 1_555 1_555
N7 C59 1_555 1_555
Ni6 N7 1_555 1_555
C61 C62 1_555 1_555
C63 C64 1_555 1_555
C63 N7 1_555 1_555
O4 Ni2 1_555 1_555
N1 Ni2 1_555 1_555
C24 N1 1_555 1_555
C25 C21 1_555 1_555
C26 O4 1_555 1_555
C27 C26 1_555 1_555
C28 C27 1_555 1_555
H27 C28 1_555 1_555
C29 C28 1_555 1_555
H28 C29 1_555 1_555
C30 C29 1_555 1_555
C33 C30 1_555 1_555
C34 C33 1_555 1_555
H31 C34 1_555 1_555
C35 C34 1_555 1_555
C36 C35 1_555 1_555
H32 C36 1_555 1_555
C39 C35 1_555 1_555
C40 C39 1_555 1_555
H36 C43 1_555 1_555
C44 C39 1_555 1_555
H37 C44 1_555 1_555
C24 C25 1_555 1_555
C43 C44 1_555 1_555
Ni2_2 O3 1_555 1_555
O2 C51 1_555 1_555
O5 C51 1_555 1_555
H29 C31 1_555 1_555
H30 C32 1_555 1_555
H33 C37 1_555 1_555
C45 C38 1_555 1_555
C46 C45 1_555 1_555
H38 C46 1_555 1_555
C47 C46 1_555 1_555
H39 C47 1_555 1_555
C48 C47 1_555 1_555
C49 C48 1_555 1_555
H40 C49 1_555 1_555
C50 C45 1_555 1_555
H41 C50 1_555 1_555
C51 C48 1_555 1_555
Ni6 O2 1_555 1_555
O8 Ni6 1_555 1_555
H42 O8 1_555 1_555
H43 O8 1_555 1_555
C52 H44 1_555 1_555
H45 C52 1_555 1_555
C53 C52 1_555 1_555
C54 C53 1_555 1_555
H46 C54 1_555 1_555
C55 C54 1_555 1_555
H47 C55 1_555 1_555
C57 H48 1_555 1_555
C58 C53 1_555 1_555
H49 C58 1_555 1_555
C65 H56 1_555 1_555
C66 C65 1_555 1_555
H57 C66 1_555 1_555
C67 C66 1_555 1_555
C68 C67 1_555 1_555
H58 C68 1_555 1_555
C69 C68 1_555 1_555
H59 C69 1_555 1_555
C70 C67 1_555 1_555
C71 C70 1_555 1_555
H62 C71 1_555 1_555
N6 Ni6 1_555 1_555
N8 Ni6 1_555 1_555
O18 Ni6 1_555 1_555
C31 C32 1_555 1_555
C37 C38 1_555 1_555
C49 C50 1_555 1_555
C55 N6 1_555 1_555
C57 C58 1_555 1_555
C57 N6 1_555 1_555
C65 N8 1_555 1_555
C69 N8 1_555 1_555
H64 C73 1_555 1_555
C74 C73 1_555 1_555
H65 C74 1_555 1_555
O11 C77 1_555 1_555
C77 C78 1_555 1_555
C78 C79 1_555 1_555
C79 H68 1_555 1_555
C80 C79 1_555 1_555
H69 C80 1_555 1_555
C81 C80 1_555 1_555
C82 C81 1_555 1_555
H70 C82 1_555 1_555
C83 C78 1_555 1_555
C84 C81 1_555 1_555
C85 C84 1_555 1_555
H72 C85 1_555 1_555
C88 C84 1_555 1_555
H74 C88 1_555 1_555
O11 Ni8 1_555 1_555
C82 C83 1_555 1_555
Ni5 O1 1_555 1_555
O1 H1 1_555 1_555
H2 O1 1_555 1_555
H4 C1 1_555 1_555
C2 C1 1_555 1_555
C3 C2 1_555 1_555
H5 C3 1_555 1_555
C4 C3 1_555 1_555
H6 C4 1_555 1_555
C6 H7 1_555 1_555
C7 C2 1_555 1_555
H8 C7 1_555 1_555
C8 H9 1_555 1_555
C9 C8 1_555 1_555
H10 C9 1_555 1_555
C10 C9 1_555 1_555
C11 C1 1_555 1_555
C12 H13 1_555 1_555
C13 C10 1_555 1_555
H14 C13 1_555 1_555
N2 Ni5 1_555 1_555
N3 C8 1_555 1_555
O9 Ni5 1_555 1_555
O12 C102 1_555 1_555
O13 C56 1_555 1_555
O18 C56 1_555 1_555
C56 C93 1_555 1_555
C87 C86 1_555 1_555
H73 C87 1_555 1_555
C89 C87 1_555 1_555
C90 C86 1_555 1_555
C91 C90 1_555 1_555
C92 C91 1_555 1_555
H76 C92 1_555 1_555
C93 C92 1_555 1_555
C94 C93 1_555 1_555
H77 C94 1_555 1_555
C95 C90 1_555 1_555
H78 C95 1_555 1_555
C96 C89 1_555 1_555
C97 C96 1_555 1_555
H79 C97 1_555 1_555
C98 C97 1_555 1_555
H80 C98 1_555 1_555
C99 C98 1_555 1_555
C100 C99 1_555 1_555
H81 C100 1_555 1_555
C101 C96 1_555 1_555
H82 C101 1_555 1_555
C102 O9 1_555 1_555
C4 N2 1_555 1_555
C6 C7 1_555 1_555
C6 N2 1_555 1_555
C10 C11 1_555 1_555
C12 C13 1_555 1_555
C12 N3 1_555 1_555
C94 C95 1_555 1_555
C99 C102 1_555 1_555
C100 C101 1_555 1_555
Ni8 O3_2 1_555 1_555
C15 C14 1_555 1_555
H16 C15 1_555 1_555
C16 C15 1_555 1_555
C17 C16 1_555 1_555
H17 C17 1_555 1_555
C18 C17 1_555 1_555
H18 C18 1_555 1_555
C19 C16 1_555 1_555
H19_2 C19 1_555 1_555
H20_2 C19 1_555 1_555
C20 C19 1_555 1_555
H21 C20 1_555 1_555
H22 C20 1_555 1_555
C21_2 C20 1_555 1_555
C22 C21_2 1_555 1_555
H23 C22 1_555 1_555
C23 C22 1_555 1_555
H24 C23 1_555 1_555
N1_2 Ni8 1_555 1_555
C24_2 N1_2 1_555 1_555
H25_2 C24_2 1_555 1_555
C25_2 C21_2 1_555 1_555
H26 C25_2 1_555 1_555
C14 N4 1_555 1_555
C18 N4 1_555 1_555
C23 N1_2 1_555 1_555
C24_2 C25_2 1_555 1_555
H23_2 C22_2 1_555 1_555
C23_2 C22_2 1_555 1_555
H24_2 C23_2 1_555 1_555
O15 Ni2_3 1_555 1_555
O16 Ni2_4 1_555 1_555
N9 Ni2_4 1_555 1_555
Ni1 O1_2 1_555 1_555
O1_2 H1_2 1_555 1_555
H2_2 O1_2 1_555 1_555
C1_2 H3_2 1_555 1_555
H4_2 C1_2 1_555 1_555
C2_2 C1_2 1_555 1_555
C3_2 C2_2 1_555 1_555
H5_2 C3_2 1_555 1_555
C4_2 C3_2 1_555 1_555
H6_2 C4_2 1_555 1_555
C6_2 H7_2 1_555 1_555
C7_2 C2_2 1_555 1_555
H8_2 C7_2 1_555 1_555
C14_2 H15_2 1_555 1_555
C15_2 C14_2 1_555 1_555
H16_2 C15_2 1_555 1_555
C16_2 C15_2 1_555 1_555
C17_2 C16_2 1_555 1_555
H17_2 C17_2 1_555 1_555
C18_2 C17_2 1_555 1_555
H18_2 C18_2 1_555 1_555
C19_2 C16_2 1_555 1_555
C20_2 C19_2 1_555 1_555
H21_2 C20_2 1_555 1_555
N2_2 Ni1 1_555 1_555
N4_2 Ni1 1_555 1_555
O9_2 Ni1 1_555 1_555
O12_2 C102_2 1_555 1_555
H70_2 C82_2 1_555 1_555
H71 C83_2 1_555 1_555
H74_2 C88_2 1_555 1_555
C96_2 C89_2 1_555 1_555
C97_2 C96_2 1_555 1_555
H79_2 C97_2 1_555 1_555
C98_2 C97_2 1_555 1_555
H80_2 C98_2 1_555 1_555
C99_2 C98_2 1_555 1_555
C100_2 C99_2 1_555 1_555
H81_2 C100_2 1_555 1_555
C101_2 C96_2 1_555 1_555
H82_2 C101_2 1_555 1_555
C102_2 O9_2 1_555 1_555
O17 Ni1 1_555 1_555
N10 Ni1 1_555 1_555
C4_2 N2_2 1_555 1_555
C6_2 C7_2 1_555 1_555
C6_2 N2_2 1_555 1_555
C14_2 N4_2 1_555 1_555
C18_2 N4_2 1_555 1_555
C82_2 C83_2 1_555 1_555
C88_2 C89_2 1_555 1_555
C99_2 C102_2 1_555 1_555
C100_2 C101_2 1_555 1_555
O16 C77_2 1_555 1_555
C75 N9 1_555 1_555
C76 C72 1_555 1_555
C77_2 C78_2 1_555 1_555
C78_2 C79_2 1_555 1_555
C79_2 H68_2 1_555 1_555
C80_2 C79_2 1_555 1_555
H69_2 C80_2 1_555 1_555
C81_2 C80_2 1_555 1_555
C84_2 C81_2 1_555 1_555
C85_2 C84_2 1_555 1_555
H72_2 C85_2 1_555 1_555
C86_2 C85_2 1_555 1_555
C87_2 C86_2 1_555 1_555
H73_2 C87_2 1_555 1_555
C90_2 C86_2 1_555 1_555
C91_2 C90_2 1_555 1_555
H77_2 C94_2 1_555 1_555
C95_2 C90_2 1_555 1_555
H78_2 C95_2 1_555 1_555
C75 C76 1_555 1_555
C94_2 C95_2 1_555 1_555
C8_2 H9_2 1_555 1_555
C9_2 C8_2 1_555 1_555
H10_2 C9_2 1_555 1_555
C10_2 C9_2 1_555 1_555
H11_2 C11_2 1_555 1_555
H12_2 C11_2 1_555 1_555
C12_2 H13_2 1_555 1_555
C13_2 C10_2 1_555 1_555
H14_2 C13_2 1_555 1_555
N10 C8_2 1_555 1_555
C10_2 C11_2 1_555 1_555
C12_2 C13_2 1_555 1_555
C12_2 N10 1_555 1_555
O13_2 C56_2 1_555 1_555
C56_2 C93_2 1_555 1_555
H76_2 C92_2 1_555 1_555
C93_2 C92_2 1_555 1_555
C66_2 C65_2 1_555 1_555
H57_2 C66_2 1_555 1_555
C67_2 C66_2 1_555 1_555
C68_2 C67_2 1_555 1_555
H58_2 C68_2 1_555 1_555
C69_2 C68_2 1_555 1_555
H59_2 C69_2 1_555 1_555
C70_2 C67_2 1_555 1_555
H60_2 C70_2 1_555 1_555
H61_2 C70_2 1_555 1_555
C71_2 C70_2 1_555 1_555
H62_2 C71_2 1_555 1_555
H63_2 C71_2 1_555 1_555
C72_2 C71_2 1_555 1_555
C73_2 C72_2 1_555 1_555
H64_2 C73_2 1_555 1_555
C74_2 C73_2 1_555 1_555
H65_2 C74_2 1_555 1_555
N5 C74_2 1_555 1_555
C75_2 N5 1_555 1_555
H66_2 C75_2 1_555 1_555
C76_2 C72_2 1_555 1_555
H67_2 C76_2 1_555 1_555
Ni8_2 O10 1_555 1_555
C65_2 N8_2 1_555 1_555
C69_2 N8_2 1_555 1_555
N5 Ni8_2 1_555 1_555
C75_2 C76_2 1_555 1_555
O2_2 C51_2 1_555 1_555
O5_2 C51_2 1_555 1_555
O6_2 C5_2 1_555 1_555
O17 C5_2 1_555 1_555
C5_2 C42_2 1_555 1_555
C36_2 C35_2 1_555 1_555
H32_2 C36_2 1_555 1_555
C38_2 C36_2 1_555 1_555
C39_2 C35_2 1_555 1_555
C40_2 C39_2 1_555 1_555
C41_2 C40_2 1_555 1_555
H35_2 C41_2 1_555 1_555
C42_2 C41_2 1_555 1_555
C43_2 C42_2 1_555 1_555
H36_2 C43_2 1_555 1_555
C44_2 C39_2 1_555 1_555
H37_2 C44_2 1_555 1_555
C45_2 C38_2 1_555 1_555
C46_2 C45_2 1_555 1_555
H38_2 C46_2 1_555 1_555
C47_2 C46_2 1_555 1_555
H39_2 C47_2 1_555 1_555
C48_2 C47_2 1_555 1_555
C49_2 C48_2 1_555 1_555
H40_2 C49_2 1_555 1_555
C50_2 C45_2 1_555 1_555
H41_2 C50_2 1_555 1_555
C51_2 C48_2 1_555 1_555
Ni7 O2_2 1_555 1_555
O8_2 Ni7 1_555 1_555
H42_2 O8_2 1_555 1_555
H43_2 O8_2 1_555 1_555
H45_2 C52_2 1_555 1_555
C53_2 C52_2 1_555 1_555
C54_2 C53_2 1_555 1_555
H46_2 C54_2 1_555 1_555
C55_2 C54_2 1_555 1_555
H47_2 C55_2 1_555 1_555
C57_2 H48_2 1_555 1_555
C58_2 C53_2 1_555 1_555
H49_2 C58_2 1_555 1_555
C59_2 H50_2 1_555 1_555
C60_2 C59_2 1_555 1_555
H51_2 C60_2 1_555 1_555
C61_2 C60_2 1_555 1_555
C62_2 C52_2 1_555 1_555
C63_2 H54_2 1_555 1_555
C64_2 C61_2 1_555 1_555
H55_2 C64_2 1_555 1_555
N6_2 Ni7 1_555 1_555
N11 C59_2 1_555 1_555
C43_2 C44_2 1_555 1_555
C49_2 C50_2 1_555 1_555
C55_2 N6_2 1_555 1_555
C57_2 C58_2 1_555 1_555
C57_2 N6_2 1_555 1_555
C61_2 C62_2 1_555 1_555
C63_2 C64_2 1_555 1_555
C63_2 N11 1_555 1_555
O4_2 Ni8_2 1_555 1_555
C26_2 O4_2 1_555 1_555
C27_2 C26_2 1_555 1_555
C28_2 C27_2 1_555 1_555
H27_2 C28_2 1_555 1_555
C29_2 C28_2 1_555 1_555
H28_2 C29_2 1_555 1_555
C30_2 C29_2 1_555 1_555
C31_2 C30_2 1_555 1_555
H29_2 C31_2 1_555 1_555
C32_2 C27_2 1_555 1_555
C33_2 C30_2 1_555 1_555
C34_2 C33_2 1_555 1_555
H31_2 C34_2 1_555 1_555
C37_2 C33_2 1_555 1_555
H33_2 C37_2 1_555 1_555
C31_2 C32_2 1_555 1_555

#END
