
###############################################################################
#
# This file contains modified crystal structure data generated from the
# MOF subset of the Cambridge Structural Database (CSD) v543 
# hosted by the Cambridge Crystallographic Data Centre (CCDC).
#
# This work is licensed under the Creative Commons
# Attribution-NonCommercial-ShareAlike 4.0 International License.
# To view a copy of this license, visit
# http://creativecommons.org/licenses/by-nc-sa/4.0/
# or send a letter to
# Creative Commons, PO Box 1866, Mountain View, CA 94042, USA.
#
# CIF created using the CSD Python API on 29 September 2022
# The structure has been converted into the P1 space group
# The structure has a 3D framework
# The original CSD entry CODRUJ is in the orthorhombic crystal system
# The framework has been calculated to contain at least 10.0% void space
# The void calculation uses a probe of radius 1.32A, grid spacing 0.4
# H atom positions have been added when not included in the experimental data
# Generated hydrogen atom positions removed from atoms on special positions
#
###############################################################################

data_CODRUJ
_chemical_formula_moiety         '(C80 H160 Nd16 O128)n'
_symmetry_cell_setting           triclinic
_symmetry_space_group_name_H-M   'P 1'
_symmetry_Int_Tables_number      1
_space_group_name_Hall           'P 1'
loop_
_symmetry_equiv_pos_site_id
_symmetry_equiv_pos_as_xyz
1 x,y,z
_cell_length_a                   9.739(3)
_cell_length_b                   15.447(5)
_cell_length_c                   27.761(10)
_cell_angle_alpha                90
_cell_angle_beta                 90
_cell_angle_gamma                90
_cell_volume                     4176.32
loop_
_atom_site_label
_atom_site_type_symbol
_atom_site_fract_x
_atom_site_fract_y
_atom_site_fract_z
Nd7 Nd 0.6250 0.1250 0.509400(8)
C7 C 0.3164(3) 0.0935(2) 0.52918(13)
C9 C 0.0864(4) 0.1598(3) 0.53249(19)
C10 C 0.1636(4) 0.0902(3) 0.53249(19)
H3 H 0.120(8) 0.219(6) 0.537(3)
H4 H 0.130(8) 0.031(6) 0.537(3)
O10 O 0.3836(3) 0.16103(16) 0.53801(10)
O18 O 0.3744(3) 0.02498(16) 0.51631(9)
Nd8 Nd 0.3750 0.8750 0.490600(8)
C1 C 0.6250 0.0747(3) 0.6250
O1 O 0.6143(3) 0.03839(15) 0.58502(8)
O3 O 0.7764(3) 0.12230(17) 0.43530(9)
Nd2 Nd 0.6250 0.1250 0.740600(8)
Nd6 Nd 0.8750 0.3750 0.490600(8)
C4 C 0.6250 0.1753(3) 0.6250
C6 C 0.9336(3) 0.1565(2) 0.52918(13)
O5 O 0.6143(3) 0.21161(15) 0.66498(8)
O6 O 0.6357(3) 0.21161(15) 0.58502(8)
O7 O 0.6357(3) 0.03839(15) 0.66498(8)
O9 O 0.8664(3) 0.08897(16) 0.53801(10)
O11 O 0.3836(3) 0.08897(16) 0.71199(10)
O12 O 0.8664(3) 0.16103(16) 0.71199(10)
O13 O 0.4736(3) 0.12770(17) 0.43530(9)
O14 O 0.7764(3) 0.12770(17) 0.81470(9)
O15 O 0.4736(3) 0.12230(17) 0.81470(9)
O17 O 0.8756(3) 0.22502(16) 0.51631(9)
O19 O 0.6244(3) 0.27498(16) 0.48369(9)
O22 O 0.6256(3) 0.27498(16) 0.76631(9)
O20 O 0.6256(3) 0.97502(16) 0.48369(9)
O21 O 0.6244(3) 0.97502(16) 0.76631(9)
Nd7_2 Nd 0.6250 0.6250 0.009400(8)
C7_2 C 0.3164(3) 0.5935(2) 0.02918(13)
C9_2 C 0.0864(4) 0.6598(3) 0.03249(19)
C10_2 C 0.1636(4) 0.5902(3) 0.03249(19)
H3_2 H 0.120(8) 0.719(6) 0.037(3)
H4_2 H 0.130(8) 0.531(6) 0.037(3)
O10_2 O 0.3836(3) 0.66103(16) 0.03801(10)
O18_2 O 0.3744(3) 0.52498(16) 0.01631(9)
Nd8_2 Nd 0.3750 0.3750 0.990600(8)
C1_2 C 0.6250 0.5747(3) 0.1250
O1_2 O 0.6143(3) 0.53839(15) 0.08502(8)
Nd2_2 Nd 0.6250 0.6250 0.240600(8)
C4_2 C 0.6250 0.6753(3) 0.1250
C6_2 C 0.9336(3) 0.6565(2) 0.02918(13)
O5_2 O 0.6143(3) 0.71161(15) 0.16498(8)
O6_2 O 0.6357(3) 0.71161(15) 0.08502(8)
O7_2 O 0.6357(3) 0.53839(15) 0.16498(8)
O9_2 O 0.8664(3) 0.58897(16) 0.03801(10)
O11_2 O 0.3836(3) 0.58897(16) 0.21199(10)
O12_2 O 0.8664(3) 0.66103(16) 0.21199(10)
O14_2 O 0.7764(3) 0.62770(17) 0.31470(9)
O15_2 O 0.4736(3) 0.62230(17) 0.31470(9)
O17_2 O 0.8756(3) 0.72502(16) 0.01631(9)
O21_2 O 0.6244(3) 0.47502(16) 0.26631(9)
O22_2 O 0.6256(3) 0.77498(16) 0.26631(9)
O3_2 O 0.7764(3) 0.62230(17) 0.93530(9)
Nd6_2 Nd 0.8750 0.8750 0.990600(8)
O13_2 O 0.4736(3) 0.62770(17) 0.93530(9)
O19_2 O 0.6244(3) 0.77498(16) 0.98369(9)
O20_2 O 0.6256(3) 0.47502(16) 0.98369(9)
Nd8_3 Nd 0.3750 0.3750 0.759400(8)
C7_3 C 0.3164(3) 0.1565(2) 0.72082(13)
C9_3 C 0.0864(4) 0.0902(3) 0.71751(19)
C10_3 C 0.1636(4) 0.1598(3) 0.71751(19)
H3_3 H 0.120(8) 0.031(6) 0.713(3)
H4_3 H 0.130(8) 0.219(6) 0.713(3)
O18_3 O 0.3744(3) 0.22502(16) 0.73369(9)
C6_3 C 0.9336(3) 0.0935(2) 0.72082(13)
O17_3 O 0.8756(3) 0.02498(16) 0.73369(9)
Nd6_3 Nd 0.8750 0.8750 0.759400(8)
Nd7_3 Nd 0.1250 0.1250 0.009400(8)
C1_3 C 0.1250 0.0747(3) 0.1250
O1_3 O 0.1143(3) 0.03839(15) 0.08502(8)
Nd2_3 Nd 0.1250 0.1250 0.240600(8)
C4_3 C 0.1250 0.1753(3) 0.1250
C6_4 C 0.4336(3) 0.1565(2) 0.02918(13)
C7_4 C 0.8164(3) 0.0935(2) 0.02918(13)
C9_4 C 0.5864(4) 0.1598(3) 0.03249(19)
C10_4 C 0.6636(4) 0.0902(3) 0.03249(19)
H3_4 H 0.620(8) 0.219(6) 0.037(3)
H4_4 H 0.630(8) 0.031(6) 0.037(3)
O5_3 O 0.1143(3) 0.21161(15) 0.16498(8)
O6_3 O 0.1357(3) 0.21161(15) 0.08502(8)
O7_3 O 0.1357(3) 0.03839(15) 0.16498(8)
O9_3 O 0.3664(3) 0.08897(16) 0.03801(10)
O10_3 O 0.8836(3) 0.16103(16) 0.03801(10)
O12_3 O 0.3664(3) 0.16103(16) 0.21199(10)
O14_3 O 0.2764(3) 0.12770(17) 0.31470(9)
O17_4 O 0.3756(3) 0.22502(16) 0.01631(9)
O18_4 O 0.8744(3) 0.02498(16) 0.01631(9)
O22_3 O 0.1256(3) 0.27498(16) 0.26631(9)
H12 H 0.00964261 0.0790496 0.337947
O3_3 O 0.2764(3) 0.12230(17) 0.93530(9)
O19_3 O 0.1244(3) 0.27498(16) 0.98369(9)
H8 H 0.00964261 0.17095 0.912053
O21_3 O 0.1244(3) 0.97502(16) 0.26631(9)
O20_3 O 0.1256(3) 0.97502(16) 0.98369(9)
O11_3 O 0.8836(3) 0.08897(16) 0.21199(10)
O15_3 O 0.9736(3) 0.12230(17) 0.31470(9)
H11 H 0.878549 0.106327 0.30529
O13_3 O 0.9736(3) 0.12770(17) 0.93530(9)
H7 H 0.878549 0.143673 0.94471
Nd7_4 Nd 0.1250 0.6250 0.509400(8)
C1_4 C 0.1250 0.5747(3) 0.6250
O1_4 O 0.1143(3) 0.53839(15) 0.58502(8)
O3_4 O 0.2764(3) 0.62230(17) 0.43530(9)
Nd2_4 Nd 0.1250 0.6250 0.740600(8)
C4_4 C 0.1250 0.6753(3) 0.6250
C6_5 C 0.4336(3) 0.6565(2) 0.52918(13)
C7_5 C 0.8164(3) 0.5935(2) 0.52918(13)
C9_5 C 0.5864(4) 0.6598(3) 0.53249(19)
C10_5 C 0.6636(4) 0.5902(3) 0.53249(19)
H3_5 H 0.620(8) 0.719(6) 0.537(3)
H4_5 H 0.630(8) 0.531(6) 0.537(3)
O5_4 O 0.1143(3) 0.71161(15) 0.66498(8)
O6_4 O 0.1357(3) 0.71161(15) 0.58502(8)
O7_4 O 0.1357(3) 0.53839(15) 0.66498(8)
O9_4 O 0.3664(3) 0.58897(16) 0.53801(10)
O10_4 O 0.8836(3) 0.66103(16) 0.53801(10)
O12_4 O 0.3664(3) 0.66103(16) 0.71199(10)
O14_4 O 0.2764(3) 0.62770(17) 0.81470(9)
O17_5 O 0.3756(3) 0.72502(16) 0.51631(9)
O18_5 O 0.8744(3) 0.52498(16) 0.51631(9)
O19_4 O 0.1244(3) 0.77498(16) 0.48369(9)
O20_4 O 0.1256(3) 0.47502(16) 0.48369(9)
O21_4 O 0.1244(3) 0.47502(16) 0.76631(9)
O22_4 O 0.1256(3) 0.77498(16) 0.76631(9)
H8_2 H 0.00964261 0.67095 0.412053
H12_2 H 0.00964261 0.57905 0.837947
O11_4 O 0.8836(3) 0.58897(16) 0.71199(10)
O13_4 O 0.9736(3) 0.62770(17) 0.43530(9)
O15_4 O 0.9736(3) 0.62230(17) 0.81470(9)
H7_2 H 0.878549 0.643673 0.44471
H11_2 H 0.878549 0.606327 0.80529
H6 H 0.00309431 0.581488 0.41269
H10 H 0.00309431 0.668512 0.83731
H5 H 0.981662 0.684921 0.419247
H9 H 0.981662 0.565079 0.830753
C2 C 0.4336(3) 0.0935(2) 0.22082(13)
C3 C 0.5864(4) 0.0902(3) 0.21751(19)
H1 H 0.620(8) 0.031(6) 0.213(3)
O4 O 0.3756(3) 0.02498(16) 0.23369(9)
Nd5 Nd 0.8750 0.3750 0.259400(8)
C5 C 0.8164(3) 0.1565(2) 0.22082(13)
C8 C 0.6636(4) 0.1598(3) 0.21751(19)
H2 H 0.630(8) 0.219(6) 0.213(3)
O16 O 0.8744(3) 0.22502(16) 0.23369(9)
H6_2 H 0.00309431 0.168512 0.33731
H10_2 H 0.00309431 0.0814876 0.91269
Nd3 Nd 0.3750 0.8750 0.259400(8)
H5_2 H 0.981662 0.0650788 0.330753
H9_2 H 0.981662 0.184921 0.919247
C7_6 C 0.3164(3) 0.6565(2) 0.22082(13)
C9_6 C 0.0864(4) 0.5902(3) 0.21751(19)
C10_6 C 0.1636(4) 0.6598(3) 0.21751(19)
H3_6 H 0.120(8) 0.531(6) 0.213(3)
H4_6 H 0.130(8) 0.719(6) 0.213(3)
O18_6 O 0.3744(3) 0.72502(16) 0.23369(9)
C6_6 C 0.9336(3) 0.5935(2) 0.22082(13)
O17_6 O 0.8756(3) 0.52498(16) 0.23369(9)
C2_2 C 0.4336(3) 0.5935(2) 0.72082(13)
C3_2 C 0.5864(4) 0.5902(3) 0.71751(19)
H1_2 H 0.620(8) 0.531(6) 0.713(3)
O4_2 O 0.3756(3) 0.52498(16) 0.73369(9)
C5_2 C 0.8164(3) 0.6565(2) 0.72082(13)
C8_2 C 0.6636(4) 0.6598(3) 0.71751(19)
H2_2 H 0.630(8) 0.719(6) 0.713(3)
O16_2 O 0.8744(3) 0.72502(16) 0.73369(9)
C5_3 C 0.0664(3) 0.8435(2) 0.47082(13)
O8 O 0.1336(3) 0.91103(16) 0.46199(10)
C1_5 C 0.3750 0.9253(3) 0.3750
C2_3 C 0.6836(3) 0.9065(2) 0.47082(13)
C3_3 C 0.8364(4) 0.9098(3) 0.46751(19)
H1_3 H 0.870(8) 0.969(6) 0.463(3)
O1_5 O 0.3857(3) 0.96161(15) 0.41498(8)
O2 O 0.6164(3) 0.83897(16) 0.46199(10)
O3_5 O 0.2236(3) 0.87770(17) 0.56470(9)
C4_5 C 0.3750 0.8247(3) 0.3750
C8_3 C 0.9136(4) 0.8402(3) 0.46751(19)
H2_3 H 0.880(8) 0.781(6) 0.463(3)
O5_5 O 0.3857(3) 0.78839(15) 0.33502(8)
O6_5 O 0.3643(3) 0.78839(15) 0.41498(8)
O7_5 O 0.3643(3) 0.96161(15) 0.33502(8)
O11_5 O 0.6164(3) 0.91103(16) 0.28801(10)
O12_5 O 0.1336(3) 0.83897(16) 0.28801(10)
O13_5 O 0.5264(3) 0.87230(17) 0.56470(9)
O14_5 O 0.2236(3) 0.87230(17) 0.18530(9)
O15_5 O 0.5264(3) 0.87770(17) 0.18530(9)
C5_4 C 0.0664(3) 0.3435(2) 0.97082(13)
O8_2 O 0.1336(3) 0.41103(16) 0.96199(10)
O3_6 O 0.2236(3) 0.37770(17) 0.06470(9)
O13_6 O 0.5264(3) 0.37230(17) 0.06470(9)
C1_6 C 0.3750 0.4253(3) 0.8750
C2_4 C 0.6836(3) 0.4065(2) 0.97082(13)
C3_4 C 0.8364(4) 0.4098(3) 0.96751(19)
H1_4 H 0.870(8) 0.469(6) 0.963(3)
O1_6 O 0.3857(3) 0.46161(15) 0.91498(8)
O2_2 O 0.6164(3) 0.33897(16) 0.96199(10)
C4_6 C 0.3750 0.3247(3) 0.8750
C8_4 C 0.9136(4) 0.3402(3) 0.96751(19)
H2_4 H 0.880(8) 0.281(6) 0.963(3)
O5_6 O 0.3857(3) 0.28839(15) 0.83502(8)
O6_6 O 0.3643(3) 0.28839(15) 0.91498(8)
O7_6 O 0.3643(3) 0.46161(15) 0.83502(8)
O11_6 O 0.6164(3) 0.41103(16) 0.78801(10)
O12_6 O 0.1336(3) 0.33897(16) 0.78801(10)
O14_6 O 0.2236(3) 0.37230(17) 0.68530(9)
O15_6 O 0.5264(3) 0.37770(17) 0.68530(9)
C5_5 C 0.0664(3) 0.9065(2) 0.27918(13)
C2_5 C 0.6836(3) 0.8435(2) 0.27918(13)
C3_5 C 0.8364(4) 0.8402(3) 0.28249(19)
H1_5 H 0.870(8) 0.781(6) 0.287(3)
C8_5 C 0.9136(4) 0.9098(3) 0.28249(19)
H2_5 H 0.880(8) 0.969(6) 0.287(3)
O13_7 O 0.0264(3) 0.87230(17) 0.06470(9)
H7_3 H 0.121451 0.856327 0.0552901
C2_6 C 0.1836(3) 0.9065(2) 0.97082(13)
C3_6 C 0.3364(4) 0.9098(3) 0.96751(19)
H1_6 H 0.370(8) 0.969(6) 0.963(3)
O2_3 O 0.1164(3) 0.83897(16) 0.96199(10)
C5_6 C 0.5664(3) 0.8435(2) 0.97082(13)
C8_6 C 0.4136(4) 0.8402(3) 0.96751(19)
H2_6 H 0.380(8) 0.781(6) 0.963(3)
O8_3 O 0.6336(3) 0.91103(16) 0.96199(10)
O11_7 O 0.1164(3) 0.91103(16) 0.78801(10)
O15_7 O 0.0264(3) 0.87770(17) 0.68530(9)
H11_3 H 0.121451 0.893673 0.69471
O3_7 O 0.7236(3) 0.87770(17) 0.06470(9)
H8_3 H 0.990357 0.82905 0.0879471
C1_7 C 0.8750 0.9253(3) 0.8750
O1_7 O 0.8857(3) 0.96161(15) 0.91498(8)
C4_7 C 0.8750 0.8247(3) 0.8750
O5_7 O 0.8857(3) 0.78839(15) 0.83502(8)
O6_7 O 0.8643(3) 0.78839(15) 0.91498(8)
O7_7 O 0.8643(3) 0.96161(15) 0.83502(8)
O12_7 O 0.6336(3) 0.83897(16) 0.78801(10)
O14_7 O 0.7236(3) 0.87230(17) 0.68530(9)
H12_3 H 0.990357 0.92095 0.662053
C2_7 C 0.1836(3) 0.4065(2) 0.47082(13)
C3_7 C 0.3364(4) 0.4098(3) 0.46751(19)
H1_7 H 0.370(8) 0.469(6) 0.463(3)
O2_4 O 0.1164(3) 0.33897(16) 0.46199(10)
C5_7 C 0.5664(3) 0.3435(2) 0.47082(13)
C8_7 C 0.4136(4) 0.3402(3) 0.46751(19)
H2_7 H 0.380(8) 0.281(6) 0.463(3)
O8_4 O 0.6336(3) 0.41103(16) 0.46199(10)
O11_8 O 0.1164(3) 0.41103(16) 0.28801(10)
O13_8 O 0.0264(3) 0.37230(17) 0.56470(9)
O15_8 O 0.0264(3) 0.37770(17) 0.18530(9)
H7_4 H 0.121451 0.356327 0.55529
H11_4 H 0.121451 0.393673 0.19471
C1_8 C 0.8750 0.4253(3) 0.3750
O1_8 O 0.8857(3) 0.46161(15) 0.41498(8)
O3_8 O 0.7236(3) 0.37770(17) 0.56470(9)
C4_8 C 0.8750 0.3247(3) 0.3750
O5_8 O 0.8857(3) 0.28839(15) 0.33502(8)
O6_8 O 0.8643(3) 0.28839(15) 0.41498(8)
O7_8 O 0.8643(3) 0.46161(15) 0.33502(8)
O12_8 O 0.6336(3) 0.33897(16) 0.28801(10)
O14_8 O 0.7236(3) 0.37230(17) 0.18530(9)
H8_4 H 0.990357 0.32905 0.587947
H12_4 H 0.990357 0.42095 0.162053
H5_3 H 0.0183381 0.315079 0.580753
H9_3 H 0.0183381 0.434921 0.169247
H6_3 H 0.996906 0.418512 0.58731
H10_3 H 0.996906 0.331488 0.16269
H9_4 H 0.0183381 0.815079 0.0807535
C6_7 C 0.1836(3) 0.8435(2) 0.77918(13)
C7_7 C 0.5664(3) 0.9065(2) 0.77918(13)
C9_7 C 0.3364(4) 0.8402(3) 0.78249(19)
C10_7 C 0.4136(4) 0.9098(3) 0.78249(19)
H3_7 H 0.370(8) 0.781(6) 0.787(3)
H4_7 H 0.380(8) 0.969(6) 0.787(3)
H5_4 H 0.0183381 0.934921 0.669247
H10_4 H 0.996906 0.918512 0.0873097
H6_4 H 0.996906 0.831488 0.66269
C5_8 C 0.0664(3) 0.4065(2) 0.77918(13)
C2_8 C 0.6836(3) 0.3435(2) 0.77918(13)
C3_8 C 0.8364(4) 0.3402(3) 0.78249(19)
H1_8 H 0.870(8) 0.281(6) 0.787(3)
C8_8 C 0.9136(4) 0.4098(3) 0.78249(19)
H2_8 H 0.880(8) 0.469(6) 0.787(3)
C6_8 C 0.1836(3) 0.3435(2) 0.27918(13)
C7_8 C 0.5664(3) 0.4065(2) 0.27918(13)
C9_8 C 0.3364(4) 0.3402(3) 0.28249(19)
C10_8 C 0.4136(4) 0.4098(3) 0.28249(19)
H3_8 H 0.370(8) 0.281(6) 0.287(3)
H4_8 H 0.380(8) 0.469(6) 0.287(3)
loop_
_geom_bond_atom_site_label_1
_geom_bond_atom_site_label_2
_geom_bond_site_symmetry_1
_geom_bond_site_symmetry_2
Nd7 O10 1_555 1_555
C7 C10 1_555 1_555
C9 C10 1_555 1_555
C10 H4 1_555 1_555
H3 C9 1_555 1_555
O10 C7 1_555 1_555
O18 C7 1_555 1_555
Nd7 O1 1_555 1_555
C1 O1 1_555 1_555
O3 Nd7 1_555 1_555
Nd2 O5 1_555 1_555
Nd6 O17 1_555 1_555
C4 C1 1_555 1_555
O5 C4 1_555 1_555
O6 Nd7 1_555 1_555
O7 C1 1_555 1_555
O9 Nd7 1_555 1_555
O11 Nd2 1_555 1_555
O12 Nd2 1_555 1_555
O13 Nd7 1_555 1_555
O14 Nd2 1_555 1_555
O15 Nd2 1_555 1_555
O17 C6 1_555 1_555
O19 Nd7 1_555 1_555
O22 Nd2 1_555 1_555
Nd2 O7 1_555 1_555
C4 O6 1_555 1_555
C6 O9 1_555 1_555
Nd7_2 O10_2 1_555 1_555
C7_2 C10_2 1_555 1_555
C9_2 C10_2 1_555 1_555
C10_2 H4_2 1_555 1_555
H3_2 C9_2 1_555 1_555
O10_2 C7_2 1_555 1_555
O18_2 C7_2 1_555 1_555
Nd7_2 O1_2 1_555 1_555
C1_2 O1_2 1_555 1_555
Nd2_2 O5_2 1_555 1_555
C4_2 C1_2 1_555 1_555
O5_2 C4_2 1_555 1_555
O6_2 Nd7_2 1_555 1_555
O7_2 C1_2 1_555 1_555
O9_2 Nd7_2 1_555 1_555
O11_2 Nd2_2 1_555 1_555
O12_2 Nd2_2 1_555 1_555
O14_2 Nd2_2 1_555 1_555
O15_2 Nd2_2 1_555 1_555
O17_2 C6_2 1_555 1_555
O21_2 Nd2_2 1_555 1_555
O22_2 Nd2_2 1_555 1_555
Nd2_2 O7_2 1_555 1_555
C4_2 O6_2 1_555 1_555
C6_2 O9_2 1_555 1_555
Nd8_3 O18_3 1_555 1_555
C7_3 C10_3 1_555 1_555
C9_3 C10_3 1_555 1_555
C10_3 H4_3 1_555 1_555
H3_3 C9_3 1_555 1_555
O11 C7_3 1_555 1_555
O18_3 C7_3 1_555 1_555
O17_3 C6_3 1_555 1_555
C6_3 O12 1_555 1_555
Nd7_3 O1_3 1_555 1_555
C1_3 O1_3 1_555 1_555
Nd2_3 O5_3 1_555 1_555
C4_3 C1_3 1_555 1_555
C6_4 C9_4 1_555 1_555
C7_4 C10_4 1_555 1_555
C9_4 C10_4 1_555 1_555
C10_4 H4_4 1_555 1_555
H3_4 C9_4 1_555 1_555
O5_3 C4_3 1_555 1_555
O6_3 Nd7_3 1_555 1_555
O7_3 C1_3 1_555 1_555
O9_3 Nd7_3 1_555 1_555
O10_3 C7_4 1_555 1_555
O12_3 Nd2_3 1_555 1_555
O14_3 Nd2_3 1_555 1_555
O17_4 C6_4 1_555 1_555
O18_4 C7_4 1_555 1_555
O22_3 Nd2_3 1_555 1_555
Nd2_3 O7_3 1_555 1_555
C4_3 O6_3 1_555 1_555
C6_4 O9_3 1_555 1_555
O15_3 H11 1_555 1_555
O13_3 H7 1_555 1_555
Nd7_4 O1_4 1_555 1_555
C1_4 O1_4 1_555 1_555
O3_4 Nd7_4 1_555 1_555
Nd2_4 O5_4 1_555 1_555
Nd8 O17_5 1_555 1_555
Nd6 O18_5 1_555 1_555
C4_4 C1_4 1_555 1_555
C6_5 C9_5 1_555 1_555
C7_5 C10_5 1_555 1_555
C9_5 C10_5 1_555 1_555
C10_5 H4_5 1_555 1_555
H3_5 C9_5 1_555 1_555
O5_4 C4_4 1_555 1_555
O6_4 Nd7_4 1_555 1_555
O7_4 C1_4 1_555 1_555
O9_4 Nd7_4 1_555 1_555
O10_4 C7_5 1_555 1_555
O12_4 Nd2_4 1_555 1_555
O14_4 Nd2_4 1_555 1_555
O17_5 C6_5 1_555 1_555
O18_5 C7_5 1_555 1_555
O19_4 Nd7_4 1_555 1_555
O20_4 Nd7_4 1_555 1_555
O21_4 Nd2_4 1_555 1_555
O22_4 Nd2_4 1_555 1_555
Nd2_4 O7_4 1_555 1_555
C4_4 O6_4 1_555 1_555
C6_5 O9_4 1_555 1_555
O13_4 H7_2 1_555 1_555
O15_4 H11_2 1_555 1_555
O13_4 H5 1_555 1_555
O15_4 H9 1_555 1_555
C2 C3 1_555 1_555
C3 H1 1_555 1_555
O4 C2 1_555 1_555
Nd5 O16 1_555 1_555
C5 C8 1_555 1_555
C8 C3 1_555 1_555
H2 C8 1_555 1_555
O11_3 C5 1_555 1_555
O16 C5 1_555 1_555
C2 O12_3 1_555 1_555
O15_3 H5_2 1_555 1_555
O13_3 H9_2 1_555 1_555
Nd3 O18_6 1_555 1_555
C7_6 C10_6 1_555 1_555
C9_6 C10_6 1_555 1_555
C10_6 H4_6 1_555 1_555
H3_6 C9_6 1_555 1_555
O11_2 C7_6 1_555 1_555
O18_6 C7_6 1_555 1_555
Nd5 O17_6 1_555 1_555
O17_6 C6_6 1_555 1_555
C6_6 O12_2 1_555 1_555
C2_2 C3_2 1_555 1_555
C3_2 H1_2 1_555 1_555
O4_2 C2_2 1_555 1_555
Nd8_3 O4_2 1_555 1_555
Nd6_3 O16_2 1_555 1_555
C5_2 C8_2 1_555 1_555
C8_2 C3_2 1_555 1_555
H2_2 C8_2 1_555 1_555
O11_4 C5_2 1_555 1_555
O16_2 C5_2 1_555 1_555
C2_2 O12_4 1_555 1_555
Nd8 O8 1_555 1_555
O8 C5_3 1_555 1_555
O19_4 C5_3 1_555 1_555
Nd8 O1_5 1_555 1_555
C1_5 O1_5 1_555 1_555
C2_3 C3_3 1_555 1_555
C3_3 H1_3 1_555 1_555
O2 Nd8 1_555 1_555
O3_5 Nd8 1_555 1_555
O20 C2_3 1_555 1_555
Nd3 O5_5 1_555 1_555
C4_5 C1_5 1_555 1_555
C8_3 C3_3 1_555 1_555
H2_3 C8_3 1_555 1_555
O5_5 C4_5 1_555 1_555
O6_5 Nd8 1_555 1_555
O7_5 C1_5 1_555 1_555
O11_5 Nd3 1_555 1_555
O12_5 Nd3 1_555 1_555
O13_5 Nd8 1_555 1_555
O14_5 Nd3 1_555 1_555
O15_5 Nd3 1_555 1_555
C2_3 O2 1_555 1_555
Nd3 O7_5 1_555 1_555
C4_5 O6_5 1_555 1_555
Nd8_2 O8_2 1_555 1_555
O8_2 C5_4 1_555 1_555
O19_3 C5_4 1_555 1_555
Nd8_2 O1_6 1_555 1_555
C1_6 O1_6 1_555 1_555
C2_4 C3_4 1_555 1_555
C3_4 H1_4 1_555 1_555
O2_2 Nd8_2 1_555 1_555
O20_2 C2_4 1_555 1_555
Nd8_3 O5_6 1_555 1_555
C4_6 C1_6 1_555 1_555
C8_4 C3_4 1_555 1_555
H2_4 C8_4 1_555 1_555
O5_6 C4_6 1_555 1_555
O6_6 Nd8_2 1_555 1_555
O7_6 C1_6 1_555 1_555
O11_6 Nd8_3 1_555 1_555
O12_6 Nd8_3 1_555 1_555
O14_6 Nd8_3 1_555 1_555
O15_6 Nd8_3 1_555 1_555
C2_4 O2_2 1_555 1_555
Nd8_3 O7_6 1_555 1_555
C4_6 O6_6 1_555 1_555
O12_5 C5_5 1_555 1_555
O21_3 C5_5 1_555 1_555
C2_5 C3_5 1_555 1_555
C3_5 H1_5 1_555 1_555
O22_2 C2_5 1_555 1_555
C8_5 C3_5 1_555 1_555
H2_5 C8_5 1_555 1_555
C2_5 O11_5 1_555 1_555
O13_7 H7_3 1_555 1_555
C2_6 C3_6 1_555 1_555
C3_6 H1_6 1_555 1_555
O20_3 C2_6 1_555 1_555
Nd6_2 O8_3 1_555 1_555
C5_6 C8_6 1_555 1_555
C8_6 C3_6 1_555 1_555
H2_6 C8_6 1_555 1_555
O8_3 C5_6 1_555 1_555
O19_2 C5_6 1_555 1_555
C2_6 O2_3 1_555 1_555
O15_7 H11_3 1_555 1_555
Nd6_2 O1_7 1_555 1_555
C1_7 O1_7 1_555 1_555
Nd6_3 O5_7 1_555 1_555
C4_7 C1_7 1_555 1_555
O5_7 C4_7 1_555 1_555
O6_7 Nd6_2 1_555 1_555
O7_7 C1_7 1_555 1_555
O12_7 Nd6_3 1_555 1_555
O14_7 Nd6_3 1_555 1_555
Nd6_3 O7_7 1_555 1_555
C4_7 O6_7 1_555 1_555
C2_7 C3_7 1_555 1_555
C3_7 H1_7 1_555 1_555
O20_4 C2_7 1_555 1_555
Nd6 O8_4 1_555 1_555
C5_7 C8_7 1_555 1_555
C8_7 C3_7 1_555 1_555
H2_7 C8_7 1_555 1_555
O8_4 C5_7 1_555 1_555
O19 C5_7 1_555 1_555
C2_7 O2_4 1_555 1_555
O13_8 H7_4 1_555 1_555
O15_8 H11_4 1_555 1_555
Nd6 O1_8 1_555 1_555
C1_8 O1_8 1_555 1_555
O3_8 Nd6 1_555 1_555
Nd5 O5_8 1_555 1_555
C4_8 C1_8 1_555 1_555
O5_8 C4_8 1_555 1_555
O6_8 Nd6 1_555 1_555
O7_8 C1_8 1_555 1_555
O12_8 Nd5 1_555 1_555
O14_8 Nd5 1_555 1_555
Nd5 O7_8 1_555 1_555
C4_8 O6_8 1_555 1_555
O13_8 H5_3 1_555 1_555
O15_8 H9_3 1_555 1_555
O13_7 H9_4 1_555 1_555
C6_7 C9_7 1_555 1_555
C7_7 C10_7 1_555 1_555
C9_7 C10_7 1_555 1_555
C10_7 H4_7 1_555 1_555
H3_7 C9_7 1_555 1_555
O12_7 C7_7 1_555 1_555
O22_4 C6_7 1_555 1_555
O21 C7_7 1_555 1_555
C6_7 O11_7 1_555 1_555
O15_7 H5_4 1_555 1_555
O12_6 C5_8 1_555 1_555
O21_4 C5_8 1_555 1_555
C2_8 C3_8 1_555 1_555
C3_8 H1_8 1_555 1_555
O22 C2_8 1_555 1_555
C8_8 C3_8 1_555 1_555
H2_8 C8_8 1_555 1_555
C2_8 O11_6 1_555 1_555
C6_8 C9_8 1_555 1_555
C7_8 C10_8 1_555 1_555
C9_8 C10_8 1_555 1_555
C10_8 H4_8 1_555 1_555
H3_8 C9_8 1_555 1_555
O12_8 C7_8 1_555 1_555
O22_3 C6_8 1_555 1_555
O21_2 C7_8 1_555 1_555
C6_8 O11_8 1_555 1_555

#END
