
###############################################################################
#
# This file contains modified crystal structure data generated from the
# MOF subset of the Cambridge Structural Database (CSD) v543 
# hosted by the Cambridge Crystallographic Data Centre (CCDC).
#
# This work is licensed under the Creative Commons
# Attribution-NonCommercial-ShareAlike 4.0 International License.
# To view a copy of this license, visit
# http://creativecommons.org/licenses/by-nc-sa/4.0/
# or send a letter to
# Creative Commons, PO Box 1866, Mountain View, CA 94042, USA.
#
# CIF created using the CSD Python API on 29 September 2022
# The structure has been converted into the P1 space group
# The structure has a 3D framework
# The original CSD entry CODSUL is in the triclinic crystal system
# The framework has been calculated to contain at least 10.0% void space
# The void calculation uses a probe of radius 1.32A, grid spacing 0.4
# H atom positions have been added when not included in the experimental data
#
###############################################################################

data_CODSUL
_chemical_formula_moiety         '(C152 H136 Cd6 N24 O26)n'
_symmetry_cell_setting           triclinic
_symmetry_space_group_name_H-M   'P 1'
_symmetry_Int_Tables_number      1
_space_group_name_Hall           'P 1'
loop_
_symmetry_equiv_pos_site_id
_symmetry_equiv_pos_as_xyz
1 x,y,z
_cell_length_a                   12.156(2)
_cell_length_b                   18.590(4)
_cell_length_c                   21.024(4)
_cell_angle_alpha                74.05(3)
_cell_angle_beta                 75.94(3)
_cell_angle_gamma                75.58(3)
_cell_volume                     4345.81
loop_
_atom_site_label
_atom_site_type_symbol
_atom_site_fract_x
_atom_site_fract_y
_atom_site_fract_z
H6 H 0.0027 0.1292 0.5204
H7 H 0.0348 0.1755 0.4462
H21 H 0.0117 0.8491 0.8414
H23 H 0.0579 0.7969 0.9056
C24 C 0.8151(7) 0.0961(5) 0.0111(5)
H25 H 0.7931 0.1475 0.0122
C25 C 0.8085(6) 0.0404(5) 0.0715(5)
H26 H 0.7807 0.0553 0.1121
Cd1 Cd 0.33727(4) 0.08374(2) 0.68953(2)
O1 O 0.1746(4) 0.1430(3) 0.7602(3)
O2 O 0.2333(4) 0.2097(3) 0.6584(2)
O5 O 0.0095(6) 0.5463(3) 0.6847(3)
O6 O 0.1910(6) 0.4902(4) 0.6530(3)
N1 N 0.4682(4) 0.1249(3) 0.7242(3)
N2 N 0.6210(4) 0.1722(3) 0.7230(3)
N3 N 0.9258(5) 0.2469(3) 0.5764(3)
N4 N 0.9352(5) 0.3123(3) 0.4697(2)
N9 N 0.4394(5) 0.0749(3) 0.5848(3)
N10 N 0.4901(5) 0.1063(3) 0.4743(3)
N11 N 0.3304(5) 0.2539(3) 0.3113(3)
N12 N 0.1378(5) 0.2745(3) 0.3302(3)
C1 C 0.8697(6) 0.3601(4) 0.6320(3)
H1 H 0.8652 0.3327 0.6765
C2 C 0.8467(8) 0.4378(5) 0.6159(4)
H2 H 0.8263 0.4641 0.6502
C3 C 0.8531(8) 0.4782(5) 0.5502(4)
H3 H 0.8371 0.5312 0.5413
C4 C 0.8821(8) 0.4434(4) 0.4973(4)
H4 H 0.8866 0.4721 0.4532
C5 C 0.9003(5) 0.3234(4) 0.5788(3)
C6 C 0.9461(5) 0.2443(4) 0.5105(3)
C7 C 0.9044(6) 0.3648(4) 0.5111(3)
C8 C 0.9755(7) 0.1713(4) 0.4859(4)
H5 H 0.9077 0.1629 0.4755
C9 C 0.9330(6) 0.1827(4) 0.6343(3)
H8 H 0.9522 0.1985 0.6699
H9 H 0.9951 0.1420 0.6217
C10 C 0.8214(6) 0.1521(4) 0.6612(4)
H10 H 0.8363 0.1044 0.6941
H11 H 0.7981 0.1412 0.6244
C11 C 0.7212(6) 0.2069(4) 0.6942(4)
H12 H 0.7453 0.2207 0.7292
H13 H 0.7011 0.2532 0.6607
C12 C 0.5362(7) 0.2159(4) 0.6191(4)
H14 H 0.5943 0.1914 0.5876
H15 H 0.5500 0.2656 0.6156
H16 H 0.4613 0.2207 0.6092
C13 C 0.5407(5) 0.1695(4) 0.6882(3)
C14 C 0.5044(5) 0.0949(3) 0.7863(3)
C15 C 0.4581(5) 0.0464(4) 0.8435(3)
H17 H 0.3933 0.0276 0.8449
C16 C 0.5115(6) 0.0263(4) 0.8992(3)
C17 C 0.6063(7) 0.0557(5) 0.8971(4)
H19 H 0.6389 0.0427 0.9354
C18 C 0.6537(7) 0.1029(5) 0.8410(4)
H20 H 0.7194 0.1207 0.8398
C19 C 0.6002(5) 0.1238(4) 0.7851(3)
C23 C 0.8537(6) 0.0755(4) 0.9504(4)
H24 H 0.8606 0.1121 0.9101
C39 C 0.2789(6) 0.1350(5) 0.5213(4)
H41 H 0.2308 0.1220 0.5647
H42 H 0.2602 0.1126 0.4902
H43 H 0.2658 0.1895 0.5054
C40 C 0.4006(6) 0.1060(4) 0.5269(3)
C41 C 0.5587(5) 0.0549(3) 0.5681(3)
C42 C 0.5917(6) 0.0742(4) 0.4998(3)
C43 C 0.7088(6) 0.0630(4) 0.4673(4)
H44 H 0.7314 0.0777 0.4208
C44 C 0.7869(6) 0.0286(4) 0.5096(4)
H45 H 0.8652 0.0195 0.4907
C45 C 0.7549(6) 0.0073(4) 0.5776(4)
C46 C 0.6404(6) 0.0202(4) 0.6089(4)
H47 H 0.6188 0.0063 0.6555
C47 C 0.4795(6) 0.1381(4) 0.4032(3)
H48 H 0.4090 0.1286 0.3960
H49 H 0.5442 0.1127 0.3747
C48 C 0.4772(6) 0.2234(4) 0.3833(4)
H50 H 0.5525 0.2322 0.3834
H51 H 0.4211 0.2475 0.4165
C49 C 0.4463(6) 0.2604(4) 0.3138(4)
H52 H 0.4511 0.3139 0.3023
H53 H 0.5021 0.2362 0.2805
C50 C 0.2227(7) 0.3564(4) 0.3728(4)
H54 H 0.1512 0.3923 0.3698
H55 H 0.2862 0.3820 0.3513
H56 H 0.2275 0.3345 0.4193
C51 C 0.2278(5) 0.2956(3) 0.3392(3)
C52 C 0.3005(6) 0.2037(4) 0.2839(3)
C53 C 0.1812(6) 0.2156(4) 0.2954(3)
C54 C 0.1253(7) 0.1715(4) 0.2739(4)
H57 H 0.0451 0.1784 0.2826
C55 C 0.1934(8) 0.1173(5) 0.2396(5)
H58 H 0.1582 0.0874 0.2248
C56 C 0.3121(8) 0.1067(5) 0.2268(4)
H59 H 0.3556 0.0700 0.2034
C57 C 0.3680(7) 0.1498(4) 0.2484(4)
H60 H 0.4482 0.1428 0.2393
C58 C 0.1717(6) 0.2049(4) 0.7167(4)
C59 C 0.0962(5) 0.2762(3) 0.7343(3)
C60 C 0.0000(5) 0.2730(3) 0.7859(3)
C64 C 0.0563(5) 0.4139(3) 0.7171(3)
C65 C 0.1241(6) 0.3463(4) 0.7002(3)
H63 H 0.1884 0.3487 0.6656
C66 C 0.0894(7) 0.4878(4) 0.6824(3)
Cd4 Cd 0.05035(4) 0.66086(2) 0.64253(2)
Cd6 Cd 0.94965(4) 0.33914(2) 0.35747(2)
Cd3 Cd 0.36246(4) 0.66300(3) 0.04426(2)
O11 O 0.4950(4) 0.5523(3) 0.0433(3)
N5 N 0.4793(4) 0.7132(3) 0.0842(3)
N6 N 0.6185(5) 0.7644(3) 0.0940(3)
C26 C 0.8419(6) 0.9652(5) 0.0718(4)
H27 H 0.8415 0.9286 0.1122
C27 C 0.8762(5) 0.9442(4) 0.0117(3)
C28 C 0.9264(6) 0.8027(4) 0.0415(4)
H28 H 0.9318 0.8099 0.0845
H29 H 0.9981 0.7704 0.0254
C29 C 0.8258(6) 0.7616(4) 0.0521(4)
H30 H 0.8243 0.7503 0.0099
H31 H 0.8388 0.7135 0.0848
C30 C 0.7109(6) 0.8080(4) 0.0761(4)
H32 H 0.7152 0.8248 0.1151
H33 H 0.6930 0.8530 0.0409
C32 C 0.5507(6) 0.7592(4) 0.0521(4)
C33 C 0.4980(5) 0.6881(4) 0.1487(3)
C34 C 0.4427(7) 0.6392(4) 0.2049(4)
H37 H 0.3815 0.6191 0.2022
C35 C 0.4843(7) 0.6226(5) 0.2640(4)
H38 H 0.4519 0.5891 0.3014
C36 C 0.5751(8) 0.6551(6) 0.2697(4)
H39 H 0.6002 0.6427 0.3104
C37 C 0.6271(7) 0.7056(5) 0.2141(4)
H40 H 0.6852 0.7284 0.2167
C38 C 0.5867(6) 0.7188(4) 0.1566(3)
O14 O 0.1918(4) 0.7277(3) 0.1067(3)
O15 O 0.2393(4) 0.6038(3) 0.1320(2)
H67 H 0.573612 0.564067 0.0256193
H68 H 0.491461 0.520231 0.0898305
O7 O 0.3599(4) 0.9635(2) 0.7584(2)
O8 O 0.2461(4) 0.9829(3) 0.6867(2)
O9 O 0.3709(6) 0.7336(3) 0.9411(3)
O10 O 0.2885(9) 0.6445(5) 0.9438(4)
O12 O 0.1377(5) 0.6523(3) 0.7343(2)
O13 O 0.1447(5) 0.7536(3) 0.6514(2)
N7 N 0.9142(5) 0.8749(3) 0.9950(3)
N8 N 0.9249(5) 0.9626(4) 0.8974(3)
H18 H 0.4831 0.9929 0.9381
C20 C 0.9906(7) 0.8278(6) 0.8887(5)
H22 H 0.9341 0.7970 0.8958
C21 C 0.9418(6) 0.8897(5) 0.9243(4)
C22 C 0.8820(6) 0.9986(4) 0.9513(4)
C31 C 0.5616(8) 0.8010(5) 0.9796(4)
H34 H 0.6337 0.7797 0.9545
H35 H 0.5591 0.8539 0.9761
H36 H 0.4989 0.7962 0.9617
H46 H 0.8115 0.9835 0.6036
C67 C 0.1650(5) 0.7165(4) 0.7091(3)
C68 C 0.2482(5) 0.7096(4) 0.8097(3)
H64 H 0.2406 0.6589 0.8261
C69 C 0.2923(5) 0.7442(3) 0.8461(3)
C70 C 0.3188(6) 0.7037(4) 0.9145(3)
C71 C 0.3124(5) 0.8172(3) 0.8202(3)
H65 H 0.3491 0.8380 0.8429
C72 C 0.2777(5) 0.8605(3) 0.7595(3)
C73 C 0.2294(5) 0.8264(3) 0.7240(3)
H66 H 0.2067 0.8544 0.6837
C74 C 0.2150(5) 0.7508(3) 0.7484(3)
C75 C 0.2960(5) 0.9408(3) 0.7337(3)
N13 N 0.0648(5) 0.6877(3) 0.5303(2)
O3 O 0.8082(4) 0.2723(3) 0.8933(3)
O4 O 0.7607(4) 0.3962(3) 0.8680(2)
C60_2 C 1.0000(5) 0.2730(3) 0.7859(3)
H61 H 0.9829 0.2258 0.8099
C61 C 0.9290(5) 0.3389(3) 0.8022(3)
C62 C 0.8267(5) 0.3350(4) 0.8581(3)
C63 C 0.9560(5) 0.4087(3) 0.7669(3)
H62 H 0.9069 0.4532 0.7763
Cd7 Cd 0.63754(4) 0.33700(3) 0.95574(2)
N14 N 0.8622(5) 0.7255(3) 0.6698(3)
C60_3 C -0.0000(5) 0.7270(3) 0.2141(3)
H61_2 H 0.0171 0.7742 0.1901
C61_2 C 0.0710(5) 0.6611(3) 0.1978(3)
C62_2 C 0.1733(5) 0.6650(4) 0.1419(3)
C63_2 C 0.0440(5) 0.5913(3) 0.2331(3)
H62_2 H 0.0931 0.5468 0.2237
O7_2 O 0.6401(4) 0.0365(2) 0.2416(2)
O8_2 O 0.7539(4) 0.0171(3) 0.3133(2)
O9_2 O 0.6291(6) 0.2664(3) 0.0589(3)
O10_2 O 0.7115(9) 0.3555(5) 0.0562(4)
O12_2 O 0.8623(5) 0.3477(3) 0.2657(2)
O13_2 O 0.8553(5) 0.2464(3) 0.3486(2)
N7_2 N 0.0858(5) 0.1251(3) 0.0050(3)
N8_2 N 0.0751(5) 0.0374(4) 0.1026(3)
H18_2 H 0.5169 0.0071 0.0619
C20_2 C 0.0094(7) 0.1722(6) 0.1113(5)
H22_2 H 0.0659 0.2030 0.1042
C21_2 C 0.0582(6) 0.1103(5) 0.0757(4)
C22_2 C 0.1180(6) 0.0014(4) 0.0487(4)
C31_2 C 0.4384(8) 0.1990(5) 0.0204(4)
H34_2 H 0.3663 0.2203 0.0455
H35_2 H 0.4409 0.1461 0.0239
H36_2 H 0.5011 0.2038 0.0383
H46_2 H 0.1885 0.0165 0.3964
C67_2 C 0.8350(5) 0.2835(4) 0.2909(3)
C68_2 C 0.7518(5) 0.2904(4) 0.1903(3)
H64_2 H 0.7594 0.3411 0.1739
C69_2 C 0.7077(5) 0.2558(3) 0.1539(3)
C70_2 C 0.6812(6) 0.2963(4) 0.0855(3)
C71_2 C 0.6876(5) 0.1828(3) 0.1798(3)
H65_2 H 0.6509 0.1620 0.1571
C72_2 C 0.7223(5) 0.1395(3) 0.2405(3)
C73_2 C 0.7706(5) 0.1736(3) 0.2760(3)
H66_2 H 0.7933 0.1456 0.3163
C74_2 C 0.7850(5) 0.2492(3) 0.2516(3)
C75_2 C 0.7040(5) 0.0592(3) 0.2663(3)
O16 O 0.9905(6) 0.4537(3) 0.3153(3)
O11_2 O 0.5050(4) 0.4477(3) 0.9567(3)
N5_2 N 0.5207(4) 0.2868(3) 0.9158(3)
N6_2 N 0.3815(5) 0.2356(3) 0.9060(3)
C26_2 C 0.1581(6) 0.0348(5) 0.9282(4)
H27_2 H 0.1585 0.0714 0.8878
C27_2 C 0.1238(5) 0.0558(4) 0.9883(3)
C28_2 C 0.0736(6) 0.1973(4) 0.9585(4)
H28_2 H 0.0682 0.1901 0.9155
H29_2 H 0.0019 0.2296 0.9746
C29_2 C 0.1742(6) 0.2384(4) 0.9479(4)
H30_2 H 0.1757 0.2497 0.9901
H31_2 H 0.1612 0.2865 0.9152
C30_2 C 0.2891(6) 0.1920(4) 0.9239(4)
H32_2 H 0.2848 0.1752 0.8849
H33_2 H 0.3070 0.1470 0.9591
C32_2 C 0.4493(6) 0.2408(4) 0.9479(4)
C33_2 C 0.5020(5) 0.3119(4) 0.8513(3)
C34_2 C 0.5573(7) 0.3608(4) 0.7951(4)
H37_2 H 0.6185 0.3809 0.7978
C35_2 C 0.5157(7) 0.3774(5) 0.7360(4)
H38_2 H 0.5481 0.4109 0.6986
C36_2 C 0.4249(8) 0.3449(6) 0.7303(4)
H39_2 H 0.3998 0.3573 0.6896
C37_2 C 0.3729(7) 0.2944(5) 0.7859(4)
H40_2 H 0.3148 0.2716 0.7833
C38_2 C 0.4133(6) 0.2812(4) 0.8434(3)
H67_2 H 0.426388 0.435933 0.974381
H68_2 H 0.508539 0.479769 0.910169
Cd1_2 Cd 0.66273(4) 0.91626(2) 0.31047(2)
O1_2 O 0.8254(4) 0.8570(3) 0.2398(3)
O2_2 O 0.7667(4) 0.7903(3) 0.3416(2)
O6_2 O 0.8090(6) 0.5098(4) 0.3470(3)
N1_2 N 0.5318(4) 0.8751(3) 0.2758(3)
N2_2 N 0.3790(4) 0.8278(3) 0.2770(3)
N3_2 N 0.0742(5) 0.7531(3) 0.4236(3)
N9_2 N 0.5606(5) 0.9251(3) 0.4152(3)
N10_2 N 0.5099(5) 0.8937(3) 0.5257(3)
N11_2 N 0.6696(5) 0.7461(3) 0.6887(3)
C1_2 C 0.1303(6) 0.6399(4) 0.3680(3)
H1_2 H 0.1348 0.6673 0.3235
C2_2 C 0.1533(8) 0.5622(5) 0.3841(4)
H2_2 H 0.1737 0.5359 0.3498
C3_2 C 0.1469(8) 0.5218(5) 0.4498(4)
H3_2 H 0.1629 0.4688 0.4587
C4_2 C 0.1179(8) 0.5566(4) 0.5027(4)
H4_2 H 0.1134 0.5279 0.5468
C5_2 C 0.0997(5) 0.6766(4) 0.4212(3)
C6_2 C 0.0539(5) 0.7557(4) 0.4895(3)
C7_2 C 0.0956(6) 0.6352(4) 0.4889(3)
C8_2 C 0.0245(7) 0.8287(4) 0.5141(4)
H5_2 H 0.0923 0.8371 0.5245
C9_2 C 0.0670(6) 0.8173(4) 0.3657(3)
H8_2 H 0.0478 0.8015 0.3301
H9_2 H 0.0049 0.8580 0.3783
C10_2 C 0.1786(6) 0.8479(4) 0.3388(4)
H10_2 H 0.1637 0.8956 0.3059
H11_2 H 0.2019 0.8588 0.3756
C11_2 C 0.2788(6) 0.7931(4) 0.3058(4)
H12_2 H 0.2547 0.7793 0.2708
H13_2 H 0.2989 0.7468 0.3393
C12_2 C 0.4638(7) 0.7841(4) 0.3809(4)
H14_2 H 0.4057 0.8086 0.4124
H15_2 H 0.4500 0.7344 0.3844
H16_2 H 0.5387 0.7793 0.3908
C13_2 C 0.4593(5) 0.8305(4) 0.3118(3)
C14_2 C 0.4956(5) 0.9051(3) 0.2137(3)
C15_2 C 0.5419(5) 0.9536(4) 0.1565(3)
H17_2 H 0.6067 0.9724 0.1551
C16_2 C 0.4885(6) 0.9737(4) 0.1008(3)
C17_2 C 0.3937(7) 0.9443(5) 0.1029(4)
H19_2 H 0.3611 0.9573 0.0646
C18_2 C 0.3463(7) 0.8971(5) 0.1590(4)
H20_2 H 0.2806 0.8793 0.1602
C19_2 C 0.3998(5) 0.8762(4) 0.2149(3)
C23_2 C 0.1463(6) 0.9245(4) 0.0496(4)
H24_2 H 0.1394 0.8879 0.0899
C39_2 C 0.7211(6) 0.8650(5) 0.4787(4)
H41_2 H 0.7692 0.8780 0.4353
H42_2 H 0.7398 0.8874 0.5098
H43_2 H 0.7342 0.8105 0.4946
C40_2 C 0.5994(6) 0.8940(4) 0.4731(3)
C41_2 C 0.4413(5) 0.9451(3) 0.4319(3)
C42_2 C 0.4083(6) 0.9258(4) 0.5002(3)
C43_2 C 0.2912(6) 0.9370(4) 0.5327(4)
H44_2 H 0.2686 0.9223 0.5792
C44_2 C 0.2131(6) 0.9714(4) 0.4904(4)
H45_2 H 0.1348 0.9805 0.5093
C45_2 C 0.2451(6) 0.9927(4) 0.4224(4)
C46_2 C 0.3596(6) 0.9798(4) 0.3911(4)
H47_2 H 0.3812 0.9937 0.3445
C47_2 C 0.5205(6) 0.8619(4) 0.5968(3)
H48_2 H 0.5910 0.8714 0.6040
H49_2 H 0.4558 0.8873 0.6253
C48_2 C 0.5228(6) 0.7766(4) 0.6167(4)
H50_2 H 0.4475 0.7678 0.6166
H51_2 H 0.5789 0.7525 0.5835
C49_2 C 0.5537(6) 0.7396(4) 0.6862(4)
H52_2 H 0.5489 0.6861 0.6977
H53_2 H 0.4979 0.7638 0.7195
C50_2 C 0.7773(7) 0.6436(4) 0.6272(4)
H54_2 H 0.8488 0.6077 0.6302
H55_2 H 0.7138 0.6180 0.6487
H56_2 H 0.7725 0.6655 0.5807
C51_2 C 0.7722(5) 0.7044(3) 0.6608(3)
C52_2 C 0.6995(6) 0.7963(4) 0.7161(3)
C53_2 C 0.8188(6) 0.7844(4) 0.7046(3)
C54_2 C 0.8747(7) 0.8285(4) 0.7261(4)
H57_2 H 0.9549 0.8216 0.7174
C55_2 C 0.8066(8) 0.8827(5) 0.7604(5)
H58_2 H 0.8418 0.9126 0.7752
C56_2 C 0.6879(8) 0.8933(5) 0.7732(4)
H59_2 H 0.6444 0.9300 0.7966
C57_2 C 0.6320(7) 0.8502(4) 0.7516(4)
H60_2 H 0.5518 0.8572 0.7607
C58_2 C 0.8283(6) 0.7951(4) 0.2833(4)
C59_2 C 0.9038(5) 0.7238(3) 0.2657(3)
C60_4 C 1.0000(5) 0.7270(3) 0.2141(3)
C64_2 C 0.9437(5) 0.5861(3) 0.2829(3)
C65_2 C 0.8759(6) 0.6537(4) 0.2998(3)
H63_2 H 0.8116 0.6513 0.3344
C66_2 C 0.9106(7) 0.5122(4) 0.3176(3)
C24_2 C 0.1849(7) 0.9039(5) 0.9889(5)
H25_2 H 0.2069 0.8525 0.9878
C25_2 C 0.1915(6) 0.9596(5) 0.9285(5)
H26_2 H 0.2193 0.9447 0.8879
H21_2 H 0.9883 0.1509 0.1586
H23_2 H 0.9421 0.2031 0.0944
H6_2 H 0.9973 0.8708 0.4796
H7_2 H 0.9652 0.8245 0.5538
loop_
_geom_bond_atom_site_label_1
_geom_bond_atom_site_label_2
_geom_bond_site_symmetry_1
_geom_bond_site_symmetry_2
H25 C24 1_555 1_555
C25 C24 1_555 1_555
H26 C25 1_555 1_555
Cd1 O1 1_555 1_555
O1 C58 1_555 1_555
O2 Cd1 1_555 1_555
O5 C66 1_555 1_555
O6 C66 1_555 1_555
N1 Cd1 1_555 1_555
N2 C11 1_555 1_555
N3 C5 1_555 1_555
N4 C6 1_555 1_555
N9 Cd1 1_555 1_555
N10 C40 1_555 1_555
N11 C49 1_555 1_555
N12 C51 1_555 1_555
C1 H1 1_555 1_555
C2 C1 1_555 1_555
H2 C2 1_555 1_555
C3 C2 1_555 1_555
H3 C3 1_555 1_555
C4 C3 1_555 1_555
H4 C4 1_555 1_555
C5 C1 1_555 1_555
C6 N3 1_555 1_555
C7 N4 1_555 1_555
C8 C6 1_555 1_555
H5 C8 1_555 1_555
C9 N3 1_555 1_555
H8 C9 1_555 1_555
H9 C9 1_555 1_555
C10 C9 1_555 1_555
H10 C10 1_555 1_555
H11 C10 1_555 1_555
C11 C10 1_555 1_555
H12 C11 1_555 1_555
H13 C11 1_555 1_555
C12 H14 1_555 1_555
H15 C12 1_555 1_555
H16 C12 1_555 1_555
C13 N1 1_555 1_555
C14 N1 1_555 1_555
C15 C14 1_555 1_555
H17 C15 1_555 1_555
C16 C15 1_555 1_555
C17 C16 1_555 1_555
H19 C17 1_555 1_555
C18 C17 1_555 1_555
H20 C18 1_555 1_555
C19 N2 1_555 1_555
H24 C23 1_555 1_555
C39 H41 1_555 1_555
H42 C39 1_555 1_555
H43 C39 1_555 1_555
C40 N9 1_555 1_555
C41 N9 1_555 1_555
C42 N10 1_555 1_555
C43 C42 1_555 1_555
H44 C43 1_555 1_555
C44 C43 1_555 1_555
H45 C44 1_555 1_555
C45 C44 1_555 1_555
C46 C41 1_555 1_555
H47 C46 1_555 1_555
C47 N10 1_555 1_555
H48 C47 1_555 1_555
H49 C47 1_555 1_555
C48 C47 1_555 1_555
H50 C48 1_555 1_555
H51 C48 1_555 1_555
C49 C48 1_555 1_555
H52 C49 1_555 1_555
H53 C49 1_555 1_555
C50 H54 1_555 1_555
H55 C50 1_555 1_555
H56 C50 1_555 1_555
C51 N11 1_555 1_555
C52 N11 1_555 1_555
C53 N12 1_555 1_555
C54 C53 1_555 1_555
H57 C54 1_555 1_555
C55 C54 1_555 1_555
H58 C55 1_555 1_555
C56 C55 1_555 1_555
H59 C56 1_555 1_555
C57 C52 1_555 1_555
H60 C57 1_555 1_555
C58 O2 1_555 1_555
C59 C58 1_555 1_555
C60 C59 1_555 1_555
C65 C59 1_555 1_555
H63 C65 1_555 1_555
C66 C64 1_555 1_555
Cd4 O5 1_555 1_555
Cd6 N4 1_555 1_555
N2 C13 1_555 1_555
C4 C7 1_555 1_555
C5 C7 1_555 1_555
C12 C13 1_555 1_555
C14 C19 1_555 1_555
C18 C19 1_555 1_555
C39 C40 1_555 1_555
C41 C42 1_555 1_555
C45 C46 1_555 1_555
C50 C51 1_555 1_555
C52 C53 1_555 1_555
C56 C57 1_555 1_555
C64 C65 1_555 1_555
O11 Cd3 1_555 1_555
N5 Cd3 1_555 1_555
N6 C30 1_555 1_555
H27 C26 1_555 1_555
H28 C28 1_555 1_555
H29 C28 1_555 1_555
C29 C28 1_555 1_555
H30 C29 1_555 1_555
H31 C29 1_555 1_555
C30 C29 1_555 1_555
H32 C30 1_555 1_555
H33 C30 1_555 1_555
C32 N5 1_555 1_555
C33 N5 1_555 1_555
C34 C33 1_555 1_555
H37 C34 1_555 1_555
C35 C34 1_555 1_555
H38 C35 1_555 1_555
C36 C35 1_555 1_555
H39 C36 1_555 1_555
C37 C36 1_555 1_555
H40 C37 1_555 1_555
C38 N6 1_555 1_555
O14 Cd3 1_555 1_555
O15 Cd3 1_555 1_555
N6 C32 1_555 1_555
C26 C27 1_555 1_555
C33 C38 1_555 1_555
C37 C38 1_555 1_555
O11 H67 1_555 1_555
O11 H68 1_555 1_555
Cd4 O12 1_555 1_555
O9 C70 1_555 1_555
O12 C67 1_555 1_555
O13 Cd4 1_555 1_555
N7 C21 1_555 1_555
N8 C21 1_555 1_555
H22 C20 1_555 1_555
C21 C20 1_555 1_555
C22 N8 1_555 1_555
C31 H34 1_555 1_555
H35 C31 1_555 1_555
H36 C31 1_555 1_555
C67 O13 1_555 1_555
C68 H64 1_555 1_555
C69 C68 1_555 1_555
C70 O10 1_555 1_555
C71 C69 1_555 1_555
H65 C71 1_555 1_555
C72 C71 1_555 1_555
C73 C72 1_555 1_555
H66 C73 1_555 1_555
C74 C67 1_555 1_555
C75 O7 1_555 1_555
N13 Cd4 1_555 1_555
O8 C75 1_555 1_555
C68 C74 1_555 1_555
C69 C70 1_555 1_555
C72 C75 1_555 1_555
C73 C74 1_555 1_555
O3 C62 1_555 1_555
O4 C62 1_555 1_555
H61 C60_2 1_555 1_555
C61 C60_2 1_555 1_555
C62 C61 1_555 1_555
C63 C61 1_555 1_555
H62 C63 1_555 1_555
Cd7 O3 1_555 1_555
O4 Cd7 1_555 1_555
O14 C62_2 1_555 1_555
O15 C62_2 1_555 1_555
H61_2 C60_3 1_555 1_555
C61_2 C60_3 1_555 1_555
C62_2 C61_2 1_555 1_555
C63_2 C61_2 1_555 1_555
H62_2 C63_2 1_555 1_555
Cd6 O12_2 1_555 1_555
O9_2 C70_2 1_555 1_555
O12_2 C67_2 1_555 1_555
O13_2 Cd6 1_555 1_555
N7_2 C21_2 1_555 1_555
N8_2 C21_2 1_555 1_555
H22_2 C20_2 1_555 1_555
C21_2 C20_2 1_555 1_555
C22_2 N8_2 1_555 1_555
C31_2 H34_2 1_555 1_555
H35_2 C31_2 1_555 1_555
H36_2 C31_2 1_555 1_555
C67_2 O13_2 1_555 1_555
C68_2 H64_2 1_555 1_555
C69_2 C68_2 1_555 1_555
C70_2 O10_2 1_555 1_555
C71_2 C69_2 1_555 1_555
H65_2 C71_2 1_555 1_555
C72_2 C71_2 1_555 1_555
C73_2 C72_2 1_555 1_555
H66_2 C73_2 1_555 1_555
C74_2 C67_2 1_555 1_555
C75_2 O7_2 1_555 1_555
O16 Cd6 1_555 1_555
O8_2 C75_2 1_555 1_555
C68_2 C74_2 1_555 1_555
C69_2 C70_2 1_555 1_555
C72_2 C75_2 1_555 1_555
C73_2 C74_2 1_555 1_555
O11_2 Cd7 1_555 1_555
N5_2 Cd7 1_555 1_555
N6_2 C30_2 1_555 1_555
H27_2 C26_2 1_555 1_555
H28_2 C28_2 1_555 1_555
H29_2 C28_2 1_555 1_555
C29_2 C28_2 1_555 1_555
H30_2 C29_2 1_555 1_555
H31_2 C29_2 1_555 1_555
C30_2 C29_2 1_555 1_555
H32_2 C30_2 1_555 1_555
H33_2 C30_2 1_555 1_555
C32_2 N5_2 1_555 1_555
C33_2 N5_2 1_555 1_555
C34_2 C33_2 1_555 1_555
H37_2 C34_2 1_555 1_555
C35_2 C34_2 1_555 1_555
H38_2 C35_2 1_555 1_555
C36_2 C35_2 1_555 1_555
H39_2 C36_2 1_555 1_555
C37_2 C36_2 1_555 1_555
H40_2 C37_2 1_555 1_555
C38_2 N6_2 1_555 1_555
N6_2 C32_2 1_555 1_555
C26_2 C27_2 1_555 1_555
C33_2 C38_2 1_555 1_555
C37_2 C38_2 1_555 1_555
O11_2 H67_2 1_555 1_555
O11_2 H68_2 1_555 1_555
Cd1_2 O1_2 1_555 1_555
O1_2 C58_2 1_555 1_555
O2_2 Cd1_2 1_555 1_555
O16 C66_2 1_555 1_555
O6_2 C66_2 1_555 1_555
N1_2 Cd1_2 1_555 1_555
N2_2 C11_2 1_555 1_555
N3_2 C5_2 1_555 1_555
N13 C6_2 1_555 1_555
N9_2 Cd1_2 1_555 1_555
N10_2 C40_2 1_555 1_555
N11_2 C49_2 1_555 1_555
N14 C51_2 1_555 1_555
C1_2 H1_2 1_555 1_555
C2_2 C1_2 1_555 1_555
H2_2 C2_2 1_555 1_555
C3_2 C2_2 1_555 1_555
H3_2 C3_2 1_555 1_555
C4_2 C3_2 1_555 1_555
H4_2 C4_2 1_555 1_555
C5_2 C1_2 1_555 1_555
C6_2 N3_2 1_555 1_555
C7_2 N13 1_555 1_555
C8_2 C6_2 1_555 1_555
H5_2 C8_2 1_555 1_555
C9_2 N3_2 1_555 1_555
H8_2 C9_2 1_555 1_555
H9_2 C9_2 1_555 1_555
C10_2 C9_2 1_555 1_555
H10_2 C10_2 1_555 1_555
H11_2 C10_2 1_555 1_555
C11_2 C10_2 1_555 1_555
H12_2 C11_2 1_555 1_555
H13_2 C11_2 1_555 1_555
C12_2 H14_2 1_555 1_555
H15_2 C12_2 1_555 1_555
H16_2 C12_2 1_555 1_555
C13_2 N1_2 1_555 1_555
C14_2 N1_2 1_555 1_555
C15_2 C14_2 1_555 1_555
H17_2 C15_2 1_555 1_555
C16_2 C15_2 1_555 1_555
C17_2 C16_2 1_555 1_555
H19_2 C17_2 1_555 1_555
C18_2 C17_2 1_555 1_555
H20_2 C18_2 1_555 1_555
C19_2 N2_2 1_555 1_555
H24_2 C23_2 1_555 1_555
C39_2 H41_2 1_555 1_555
H42_2 C39_2 1_555 1_555
H43_2 C39_2 1_555 1_555
C40_2 N9_2 1_555 1_555
C41_2 N9_2 1_555 1_555
C42_2 N10_2 1_555 1_555
C43_2 C42_2 1_555 1_555
H44_2 C43_2 1_555 1_555
C44_2 C43_2 1_555 1_555
H45_2 C44_2 1_555 1_555
C45_2 C44_2 1_555 1_555
C46_2 C41_2 1_555 1_555
H47_2 C46_2 1_555 1_555
C47_2 N10_2 1_555 1_555
H48_2 C47_2 1_555 1_555
H49_2 C47_2 1_555 1_555
C48_2 C47_2 1_555 1_555
H50_2 C48_2 1_555 1_555
H51_2 C48_2 1_555 1_555
C49_2 C48_2 1_555 1_555
H52_2 C49_2 1_555 1_555
H53_2 C49_2 1_555 1_555
C50_2 H54_2 1_555 1_555
H55_2 C50_2 1_555 1_555
H56_2 C50_2 1_555 1_555
C51_2 N11_2 1_555 1_555
C52_2 N11_2 1_555 1_555
C53_2 N14 1_555 1_555
C54_2 C53_2 1_555 1_555
H57_2 C54_2 1_555 1_555
C55_2 C54_2 1_555 1_555
H58_2 C55_2 1_555 1_555
C56_2 C55_2 1_555 1_555
H59_2 C56_2 1_555 1_555
C57_2 C52_2 1_555 1_555
H60_2 C57_2 1_555 1_555
C58_2 O2_2 1_555 1_555
C59_2 C58_2 1_555 1_555
C60_4 C59_2 1_555 1_555
C65_2 C59_2 1_555 1_555
H63_2 C65_2 1_555 1_555
C66_2 C64_2 1_555 1_555
N2_2 C13_2 1_555 1_555
C4_2 C7_2 1_555 1_555
C5_2 C7_2 1_555 1_555
C12_2 C13_2 1_555 1_555
C14_2 C19_2 1_555 1_555
C18_2 C19_2 1_555 1_555
C39_2 C40_2 1_555 1_555
C41_2 C42_2 1_555 1_555
C45_2 C46_2 1_555 1_555
C50_2 C51_2 1_555 1_555
C52_2 C53_2 1_555 1_555
C56_2 C57_2 1_555 1_555
C64_2 C65_2 1_555 1_555
H25_2 C24_2 1_555 1_555
C25_2 C24_2 1_555 1_555
H26_2 C25_2 1_555 1_555

#END
