
###############################################################################
#
# This file contains modified crystal structure data generated from the
# MOF subset of the Cambridge Structural Database (CSD) v543 
# hosted by the Cambridge Crystallographic Data Centre (CCDC).
#
# This work is licensed under the Creative Commons
# Attribution-NonCommercial-ShareAlike 4.0 International License.
# To view a copy of this license, visit
# http://creativecommons.org/licenses/by-nc-sa/4.0/
# or send a letter to
# Creative Commons, PO Box 1866, Mountain View, CA 94042, USA.
#
# CIF created using the CSD Python API on 29 September 2022
# The structure has been converted into the P1 space group
# The structure has a 3D framework
# The original CSD entry CODSOF is in the triclinic crystal system
# The framework has been calculated to contain at least 10.0% void space
# The void calculation uses a probe of radius 1.32A, grid spacing 0.4
#
###############################################################################

data_CODSOF
_chemical_formula_moiety         '(C112 H92 N16 O24 Zn6)n'
_symmetry_cell_setting           triclinic
_symmetry_space_group_name_H-M   'P 1'
_symmetry_Int_Tables_number      1
_space_group_name_Hall           'P 1'
loop_
_symmetry_equiv_pos_site_id
_symmetry_equiv_pos_as_xyz
1 x,y,z
_cell_length_a                   9.4806(19)
_cell_length_b                   18.127(4)
_cell_length_c                   18.693(4)
_cell_angle_alpha                61.88(3)
_cell_angle_beta                 83.98(3)
_cell_angle_gamma                86.35(3)
_cell_volume                     2817.29
loop_
_atom_site_label
_atom_site_type_symbol
_atom_site_fract_x
_atom_site_fract_y
_atom_site_fract_z
C54 C 0.1151(8) 0.0744(5) 0.4000(5)
H45 H 0.1748 0.1065 0.4103
C55 C 0.1713(7) 0.0096(4) 0.3887(4)
N6 N 0.0964(5) 0.8961(3) 0.3580(3)
N7 N 0.2490(5) 0.6635(3) 0.5670(3)
N8 N 0.3743(5) 0.5842(3) 0.6713(3)
C38 C 0.4784(6) 0.6059(4) 0.5342(3)
H27 H 0.5312 0.6564 0.5032
H28 H 0.4329 0.5931 0.4980
H29 H 0.5417 0.5608 0.5645
C39 C 0.3686(5) 0.6176(3) 0.5917(3)
C40 C 0.2501(6) 0.6095(3) 0.7015(3)
C41 C 0.1993(7) 0.5914(4) 0.7809(4)
H30 H 0.2509 0.5578 0.8250
C42 C 0.0714(7) 0.6251(4) 0.7906(4)
H31 H 0.0372 0.6161 0.8425
C44 C 0.0374(6) 0.6907(4) 0.6480(4)
C45 C 0.1716(6) 0.6585(3) 0.6362(3)
C46 C 0.2090(6) 0.7138(3) 0.4837(3)
H34 H 0.1070 0.7225 0.4846
H35 H 0.2356 0.6840 0.4526
C47 C 0.2345(6) 0.8549(4) 0.3575(3)
H36 H 0.3054 0.8974 0.3272
H37 H 0.2297 0.8220 0.3293
C48 C 0.2815(6) 0.7979(3) 0.4428(3)
H38 H 0.3834 0.7889 0.4390
H39 H 0.2603 0.8256 0.4763
H41 H 0.0248 0.7708 0.3399
H46 H 0.2677 0.9964 0.3911
C56 C 0.0768(6) 0.9639(4) 0.3730(3)
Zn9 Zn 0.51099(6) 0.50034(3) 0.74484(3)
C52 C 0.8759(7) 0.0486(4) 0.3822(4)
H43 H 0.7792 0.0609 0.3815
C53 C 0.9700(8) 0.0946(4) 0.3968(5)
H44 H 0.9360 0.1398 0.4046
Zn4 Zn 0.64357(6) 0.07187(3) 0.12946(3)
O16 O 0.5861(5) 0.0371(2) 0.3086(2)
C4 C 0.0328(7) 0.0243(4) 0.8870(4)
H4 H 0.1142 0.0446 0.8950
Zn6 Zn 0.34168(6) 0.08069(3) 0.64248(3)
O13 O 0.3714(4) 0.0519(2) 0.8217(2)
Zn2 Zn 0.65832(6) 0.91931(3) 0.35752(3)
Zn3 Zn 0.48901(6) 0.49966(3) 0.25516(3)
O1 O 0.3575(4) 0.5455(2) 0.3104(2)
O2 O 0.2797(7) 0.6102(3) 0.3800(3)
O3 O 0.3384(5) 0.7794(3) 0.0037(2)
O5 O 0.6286(4) 0.9481(2) 0.1783(2)
O6 O 0.5819(4) 0.8584(2) 0.3092(2)
N5 N 0.8682(4) 0.9282(3) 0.3510(3)
C20 C 0.3957(6) 0.8255(3) 0.0233(3)
C21 C 0.4267(5) 0.7948(3) 0.1103(3)
C22 C 0.5014(5) 0.8447(3) 0.1306(3)
H21 H 0.5395 0.8946 0.0898
C23 C 0.5197(5) 0.8204(3) 0.2123(3)
C24 C 0.5833(5) 0.8800(3) 0.2339(3)
C25 C 0.4674(5) 0.7447(3) 0.2724(3)
H22 H 0.4787 0.7285 0.3267
C26 C 0.3976(5) 0.6920(3) 0.2523(3)
C27 C 0.3767(5) 0.7179(3) 0.1714(3)
H23 H 0.3289 0.6836 0.1579
C28 C 0.3409(6) 0.6103(3) 0.3192(3)
C43 C 0.9900(7) 0.6724(4) 0.7262(4)
H32 H 0.9012 0.6921 0.7363
H33 H 0.9832 0.7230 0.6047
C49 C 0.9466(7) 0.8100(4) 0.3246(4)
H40 H 0.8604 0.7817 0.3534
H42 H 0.9395 0.8337 0.2671
C50 C 0.9694(6) 0.8763(3) 0.3450(3)
C51 C 0.9325(5) 0.9839(3) 0.3689(3)
O14 O 0.3595(4) 0.4507(2) 0.2162(2)
O15 O 0.5701(4) 0.8997(2) 0.4649(2)
N9 N 0.6110(5) 0.5881(3) 0.1664(2)
N10 N 0.6257(5) 0.4158(3) 0.3287(3)
Zn1 Zn 0.35643(6) 0.92813(3) 0.87054(3)
O4 O 0.4279(4) 0.9007(2) 0.9732(2)
O7 O 0.6405(4) 0.5493(2) 0.7838(2)
O8 O 0.6633(5) 0.5955(2) 0.8726(2)
O10 O 0.6695(5) 0.7789(3) 0.4908(2)
O11 O 0.4139(5) 0.9629(2) 0.6914(2)
O12 O 0.4861(4) 0.8804(2) 0.8133(2)
N4 N 0.1547(4) 0.9113(3) 0.8607(3)
C1 C 0.1850(7) 0.7848(4) 0.8396(4)
H1 H 0.1910 0.7951 0.7841
H2 H 0.1389 0.7326 0.8741
H3 H 0.2788 0.7824 0.8557
C2 C 0.1023(5) 0.8532(3) 0.8473(3)
C3 C 0.0403(5) 0.9595(3) 0.8673(3)
C29 C 0.6347(6) 0.6058(3) 0.8070(3)
C30 C 0.6114(5) 0.7179(3) 0.6607(3)
H24 H 0.6429 0.6788 0.6435
C31 C 0.5955(5) 0.6946(3) 0.7434(3)
C32 C 0.5514(5) 0.7531(3) 0.7693(3)
H25 H 0.5430 0.7375 0.8246
C33 C 0.5197(5) 0.8348(3) 0.7133(3)
C34 C 0.5325(5) 0.8577(3) 0.6296(3)
H26 H 0.5087 0.9119 0.5919
C35 C 0.5804(5) 0.7999(3) 0.6034(3)
C36 C 0.6096(6) 0.8261(3) 0.5142(3)
C37 C 0.4709(5) 0.8977(3) 0.7408(3)
N2 N 0.6925(5) 0.6928(3) 0.0497(3)
C12 C 0.9158(9) 0.7342(5) 0.1773(5)
H14 H 0.9858 0.7685 0.1763
C13 C 0.8671(8) 0.7477(4) 0.1057(4)
H15 H 0.9020 0.7910 0.0562
C14 C 0.7654(6) 0.6955(4) 0.1089(3)
C15 C 0.7633(7) 0.6158(4) 0.2551(4)
H16 H 0.7311 0.5710 0.3042
C16 C 0.8614(8) 0.6687(5) 0.2534(4)
H17 H 0.8926 0.6620 0.3017
C17 C 0.7117(6) 0.6295(3) 0.1824(3)
C18 C 0.6032(6) 0.6273(3) 0.0855(3)
C19 C 0.5077(7) 0.6051(4) 0.0414(3)
H18 H 0.4397 0.6496 0.0173
H19 H 0.4591 0.5546 0.0787
N1 N 0.3890(5) 0.4119(3) 0.8336(2)
N2_2 N 0.3075(5) 0.3072(3) 0.9503(3)
C12_2 C 0.0842(9) 0.2658(5) 0.8227(5)
H14_2 H 0.0142 0.2315 0.8237
C13_2 C 0.1329(8) 0.2523(4) 0.8943(4)
H15_2 H 0.0980 0.2090 0.9438
C14_2 C 0.2346(6) 0.3045(4) 0.8911(3)
C15_2 C 0.2367(7) 0.3842(4) 0.7449(4)
H16_2 H 0.2689 0.4290 0.6958
C16_2 C 0.1386(8) 0.3313(5) 0.7466(4)
H17_2 H 0.1074 0.3380 0.6983
C17_2 C 0.2883(6) 0.3705(3) 0.8176(3)
C18_2 C 0.3968(6) 0.3727(3) 0.9145(3)
C19_2 C 0.4923(7) 0.3949(4) 0.9586(3)
H18_2 H 0.5603 0.3504 0.9827
H19_2 H 0.5409 0.4454 0.9213
O4_2 O 0.5721(4) 0.0993(2) 0.0268(2)
O8_2 O 0.3367(5) 0.4045(2) 0.1274(2)
O9 O 0.4299(4) 0.1003(2) 0.5351(2)
O10_2 O 0.3305(5) 0.2211(3) 0.5092(2)
O12_2 O 0.5139(4) 0.1196(2) 0.1867(2)
N4_2 N 0.8453(4) 0.0887(3) 0.1393(3)
C1_2 C 0.8150(7) 0.2152(4) 0.1604(4)
H1_2 H 0.8090 0.2049 0.2159
H2_2 H 0.8611 0.2674 0.1259
H3_2 H 0.7212 0.2176 0.1443
C2_2 C 0.8977(5) 0.1468(3) 0.1527(3)
C3_2 C 0.9597(5) 0.0405(3) 0.1327(3)
C29_2 C 0.3653(6) 0.3942(3) 0.1930(3)
C30_2 C 0.3886(5) 0.2821(3) 0.3393(3)
H24_2 H 0.3571 0.3212 0.3565
C31_2 C 0.4045(5) 0.3054(3) 0.2566(3)
C32_2 C 0.4486(5) 0.2469(3) 0.2307(3)
H25_2 H 0.4570 0.2625 0.1754
C33_2 C 0.4803(5) 0.1652(3) 0.2867(3)
C34_2 C 0.4675(5) 0.1423(3) 0.3704(3)
H26_2 H 0.4913 0.0881 0.4081
C35_2 C 0.4196(5) 0.2001(3) 0.3966(3)
C36_2 C 0.3904(6) 0.1739(3) 0.4858(3)
C37_2 C 0.5291(5) 0.1023(3) 0.2592(3)
O1_2 O 0.6425(4) 0.4545(2) 0.6896(2)
O2_2 O 0.7203(7) 0.3898(3) 0.6200(3)
O3_2 O 0.6616(5) 0.2206(3) 0.9963(2)
O6_2 O 0.4181(4) 0.1416(2) 0.6908(2)
N5_2 N 0.1318(4) 0.0718(3) 0.6490(3)
C20_2 C 0.6043(6) 0.1745(3) 0.9767(3)
C21_2 C 0.5733(5) 0.2052(3) 0.8897(3)
C22_2 C 0.4986(5) 0.1553(3) 0.8694(3)
H21_2 H 0.4605 0.1054 0.9102
C23_2 C 0.4803(5) 0.1796(3) 0.7877(3)
C24_2 C 0.4167(5) 0.1200(3) 0.7661(3)
C25_2 C 0.5326(5) 0.2553(3) 0.7276(3)
H22_2 H 0.5213 0.2715 0.6733
C26_2 C 0.6024(5) 0.3080(3) 0.7477(3)
C27_2 C 0.6233(5) 0.2821(3) 0.8286(3)
H23_2 H 0.6711 0.3164 0.8421
C28_2 C 0.6591(6) 0.3897(3) 0.6808(3)
C43_2 C 0.0100(7) 0.3276(4) 0.2738(4)
H32_2 H 0.0988 0.3079 0.2637
H33_2 H 0.0168 0.2770 0.3953
C49_2 C 0.0534(7) 0.1900(4) 0.6754(4)
H40_2 H 0.1396 0.2183 0.6466
H42_2 H 0.0605 0.1663 0.7329
C50_2 C 0.0306(6) 0.1237(3) 0.6550(3)
C51_2 C 0.0675(5) 0.0161(3) 0.6311(3)
C4_2 C 0.9672(7) 0.9757(4) 0.1130(4)
H4_2 H 0.8858 0.9554 0.1050
C52_2 C 0.1241(7) 0.9514(4) 0.6178(4)
H43_2 H 0.2208 0.9391 0.6185
C53_2 C 0.0300(8) 0.9054(4) 0.6032(5)
H44_2 H 0.0640 0.8602 0.5954
N6_2 N 0.9036(5) 0.1039(3) 0.6420(3)
N7_2 N 0.7510(5) 0.3365(3) 0.4330(3)
C38_2 C 0.5216(6) 0.3941(4) 0.4658(3)
H27_2 H 0.4688 0.3436 0.4968
H28_2 H 0.5671 0.4069 0.5020
H29_2 H 0.4583 0.4392 0.4355
C39_2 C 0.6314(5) 0.3824(3) 0.4083(3)
C40_2 C 0.7499(6) 0.3905(3) 0.2985(3)
C41_2 C 0.8007(7) 0.4086(4) 0.2191(4)
H30_2 H 0.7491 0.4422 0.1750
C42_2 C 0.9286(7) 0.3749(4) 0.2094(4)
H31_2 H 0.9628 0.3839 0.1575
C44_2 C 0.9626(6) 0.3093(4) 0.3520(4)
C45_2 C 0.8284(6) 0.3415(3) 0.3638(3)
C46_2 C 0.7910(6) 0.2862(3) 0.5163(3)
H34_2 H 0.8930 0.2775 0.5154
H35_2 H 0.7644 0.3160 0.5474
C47_2 C 0.7655(6) 0.1451(4) 0.6425(3)
H36_2 H 0.6946 0.1026 0.6728
H37_2 H 0.7703 0.1780 0.6707
C48_2 C 0.7185(6) 0.2021(3) 0.5572(3)
H38_2 H 0.6166 0.2111 0.5610
H39_2 H 0.7397 0.1744 0.5237
H41_2 H 0.9752 0.2292 0.6601
H46_2 H 0.7323 0.0036 0.6089
C56_2 C 0.9232(6) 0.0361(4) 0.6270(3)
C5 C 0.9028(8) 0.0573(4) 0.8944(6)
H5 H 0.8945 0.0998 0.9092
C6 C 0.7792(8) 0.0277(5) 0.8796(6)
H6 H 0.6920 0.0528 0.8835
N3 N 0.9627(5) 0.8625(3) 0.8416(3)
C7 C 0.7835(7) 0.9637(4) 0.8599(4)
H7 H 0.7026 0.9443 0.8504
C8 C 0.9189(6) 0.9298(3) 0.8550(3)
C9 C 0.8682(6) 0.8061(4) 0.8329(3)
H8 H 0.9165 0.7860 0.7969
H9 H 0.7840 0.8371 0.8083
C10 C 0.8240(6) 0.7309(4) 0.9154(3)
H10 H 0.7908 0.6867 0.9064
H11 H 0.9059 0.7095 0.9469
C11 C 0.7097(6) 0.7544(4) 0.9625(3)
H12 H 0.7311 0.8083 0.9576
H13 H 0.6207 0.7603 0.9389
H20 H 0.5622 0.5967 0.9995
N3_2 N 0.0373(5) 0.1375(3) 0.1584(3)
C7_2 C 0.2165(7) 0.0363(4) 0.1401(4)
H7_2 H 0.2974 0.0557 0.1496
C8_2 C 0.0811(6) 0.0702(3) 0.1450(3)
C9_2 C 0.1318(6) 0.1939(4) 0.1671(3)
H8_2 H 0.0835 0.2140 0.2031
H9_2 H 0.2160 0.1629 0.1917
C10_2 C 0.1760(6) 0.2691(4) 0.0846(3)
H10_2 H 0.2092 0.3133 0.0936
H11_2 H 0.0941 0.2905 0.0531
C11_2 C 0.2903(6) 0.2456(4) 0.0375(3)
H12_2 H 0.2689 0.1917 0.0424
H13_2 H 0.3793 0.2397 0.0611
H20_2 H 0.4378 0.4033 0.0005
C5_2 C 0.0972(8) 0.9427(4) 0.1056(6)
H5_2 H 0.1055 0.9002 0.0908
C6_2 C 0.2208(8) 0.9723(5) 0.1204(6)
H6_2 H 0.3080 0.9472 0.1165
C54_2 C 0.8849(8) 0.9256(5) 0.6000(5)
H45_2 H 0.8252 0.8935 0.5897
C55_2 C 0.8287(7) 0.9904(4) 0.6113(4)
loop_
_geom_bond_atom_site_label_1
_geom_bond_atom_site_label_2
_geom_bond_site_symmetry_1
_geom_bond_site_symmetry_2
H45 C54 1_555 1_555
C55 C54 1_555 1_555
N6 C47 1_555 1_555
N7 C39 1_555 1_555
N8 C39 1_555 1_555
C38 H27 1_555 1_555
H28 C38 1_555 1_555
H29 C38 1_555 1_555
C39 C38 1_555 1_555
C40 N8 1_555 1_555
C41 C40 1_555 1_555
H30 C41 1_555 1_555
C42 C41 1_555 1_555
H31 C42 1_555 1_555
C45 N7 1_555 1_555
C46 N7 1_555 1_555
H34 C46 1_555 1_555
H35 C46 1_555 1_555
C47 H36 1_555 1_555
H37 C47 1_555 1_555
C48 C46 1_555 1_555
H38 C48 1_555 1_555
H39 C48 1_555 1_555
C56 N6 1_555 1_555
Zn9 N8 1_555 1_555
C40 C45 1_555 1_555
C44 C45 1_555 1_555
C47 C48 1_555 1_555
H43 C52 1_555 1_555
C53 C52 1_555 1_555
H44 C53 1_555 1_555
H4 C4 1_555 1_555
Zn2 O6 1_555 1_555
Zn3 O1 1_555 1_555
O1 C28 1_555 1_555
O2 C28 1_555 1_555
O3 C20 1_555 1_555
O5 C24 1_555 1_555
O6 C24 1_555 1_555
N5 Zn2 1_555 1_555
C20 C21 1_555 1_555
C21 C22 1_555 1_555
C22 H21 1_555 1_555
C23 C22 1_555 1_555
C24 C23 1_555 1_555
C25 C23 1_555 1_555
H22 C25 1_555 1_555
C26 C25 1_555 1_555
C27 C21 1_555 1_555
H23 C27 1_555 1_555
C28 C26 1_555 1_555
H32 C43 1_555 1_555
C49 H40 1_555 1_555
H42 C49 1_555 1_555
C50 N5 1_555 1_555
C51 N5 1_555 1_555
O14 Zn3 1_555 1_555
O15 Zn2 1_555 1_555
N9 Zn3 1_555 1_555
N10 Zn3 1_555 1_555
C26 C27 1_555 1_555
C49 C50 1_555 1_555
Zn1 O4 1_555 1_555
O7 C29 1_555 1_555
O8 C29 1_555 1_555
O15 C36 1_555 1_555
O10 C36 1_555 1_555
O11 C37 1_555 1_555
O12 Zn1 1_555 1_555
N4 Zn1 1_555 1_555
C1 H1 1_555 1_555
H2 C1 1_555 1_555
H3 C1 1_555 1_555
C2 N4 1_555 1_555
C3 N4 1_555 1_555
C29 C31 1_555 1_555
C30 H24 1_555 1_555
C31 C30 1_555 1_555
C32 C31 1_555 1_555
H25 C32 1_555 1_555
C33 C32 1_555 1_555
C34 C33 1_555 1_555
H26 C34 1_555 1_555
C35 C30 1_555 1_555
C36 C35 1_555 1_555
C37 O12 1_555 1_555
Zn9 O7 1_555 1_555
C1 C2 1_555 1_555
C33 C37 1_555 1_555
C34 C35 1_555 1_555
N9 C17 1_555 1_555
C12 H14 1_555 1_555
C13 C12 1_555 1_555
H15 C13 1_555 1_555
C14 N2 1_555 1_555
C15 H16 1_555 1_555
C16 C12 1_555 1_555
H17 C16 1_555 1_555
C17 C14 1_555 1_555
C18 N9 1_555 1_555
C19 C18 1_555 1_555
H18 C19 1_555 1_555
H19 C19 1_555 1_555
N2 C18 1_555 1_555
C13 C14 1_555 1_555
C15 C16 1_555 1_555
C15 C17 1_555 1_555
N1 C17_2 1_555 1_555
C12_2 H14_2 1_555 1_555
C13_2 C12_2 1_555 1_555
H15_2 C13_2 1_555 1_555
C14_2 N2_2 1_555 1_555
C15_2 H16_2 1_555 1_555
C16_2 C12_2 1_555 1_555
H17_2 C16_2 1_555 1_555
C17_2 C14_2 1_555 1_555
C18_2 N1 1_555 1_555
C19_2 C18_2 1_555 1_555
H18_2 C19_2 1_555 1_555
H19_2 C19_2 1_555 1_555
Zn9 N1 1_555 1_555
N2_2 C18_2 1_555 1_555
C13_2 C14_2 1_555 1_555
C15_2 C16_2 1_555 1_555
C15_2 C17_2 1_555 1_555
Zn4 O4_2 1_555 1_555
O14 C29_2 1_555 1_555
O8_2 C29_2 1_555 1_555
O9 C36_2 1_555 1_555
O10_2 C36_2 1_555 1_555
O16 C37_2 1_555 1_555
O12_2 Zn4 1_555 1_555
N4_2 Zn4 1_555 1_555
C1_2 H1_2 1_555 1_555
H2_2 C1_2 1_555 1_555
H3_2 C1_2 1_555 1_555
C2_2 N4_2 1_555 1_555
C3_2 N4_2 1_555 1_555
C29_2 C31_2 1_555 1_555
C30_2 H24_2 1_555 1_555
C31_2 C30_2 1_555 1_555
C32_2 C31_2 1_555 1_555
H25_2 C32_2 1_555 1_555
C33_2 C32_2 1_555 1_555
C34_2 C33_2 1_555 1_555
H26_2 C34_2 1_555 1_555
C35_2 C30_2 1_555 1_555
C36_2 C35_2 1_555 1_555
C37_2 O12_2 1_555 1_555
Zn6 O9 1_555 1_555
C1_2 C2_2 1_555 1_555
C33_2 C37_2 1_555 1_555
C34_2 C35_2 1_555 1_555
Zn6 O6_2 1_555 1_555
Zn9 O1_2 1_555 1_555
O1_2 C28_2 1_555 1_555
O2_2 C28_2 1_555 1_555
O3_2 C20_2 1_555 1_555
O13 C24_2 1_555 1_555
O6_2 C24_2 1_555 1_555
N5_2 Zn6 1_555 1_555
C20_2 C21_2 1_555 1_555
C21_2 C22_2 1_555 1_555
C22_2 H21_2 1_555 1_555
C23_2 C22_2 1_555 1_555
C24_2 C23_2 1_555 1_555
C25_2 C23_2 1_555 1_555
H22_2 C25_2 1_555 1_555
C26_2 C25_2 1_555 1_555
C27_2 C21_2 1_555 1_555
H23_2 C27_2 1_555 1_555
C28_2 C26_2 1_555 1_555
H32_2 C43_2 1_555 1_555
C49_2 H40_2 1_555 1_555
H42_2 C49_2 1_555 1_555
C50_2 N5_2 1_555 1_555
C51_2 N5_2 1_555 1_555
C26_2 C27_2 1_555 1_555
C49_2 C50_2 1_555 1_555
H4_2 C4_2 1_555 1_555
H43_2 C52_2 1_555 1_555
C53_2 C52_2 1_555 1_555
H44_2 C53_2 1_555 1_555
N6_2 C47_2 1_555 1_555
N7_2 C39_2 1_555 1_555
N10 C39_2 1_555 1_555
C38_2 H27_2 1_555 1_555
H28_2 C38_2 1_555 1_555
H29_2 C38_2 1_555 1_555
C39_2 C38_2 1_555 1_555
C40_2 N10 1_555 1_555
C41_2 C40_2 1_555 1_555
H30_2 C41_2 1_555 1_555
C42_2 C41_2 1_555 1_555
H31_2 C42_2 1_555 1_555
C45_2 N7_2 1_555 1_555
C46_2 N7_2 1_555 1_555
H34_2 C46_2 1_555 1_555
H35_2 C46_2 1_555 1_555
C47_2 H36_2 1_555 1_555
H37_2 C47_2 1_555 1_555
C48_2 C46_2 1_555 1_555
H38_2 C48_2 1_555 1_555
H39_2 C48_2 1_555 1_555
C56_2 N6_2 1_555 1_555
C40_2 C45_2 1_555 1_555
C44_2 C45_2 1_555 1_555
C47_2 C48_2 1_555 1_555
H5 C5 1_555 1_555
C6 C5 1_555 1_555
H6 C6 1_555 1_555
H7 C7 1_555 1_555
C8 N3 1_555 1_555
C9 N3 1_555 1_555
H8 C9 1_555 1_555
H9 C9 1_555 1_555
C10 C9 1_555 1_555
H10 C10 1_555 1_555
H11 C10 1_555 1_555
C11 C10 1_555 1_555
H12 C11 1_555 1_555
H13 C11 1_555 1_555
C7 C8 1_555 1_555
H7_2 C7_2 1_555 1_555
C8_2 N3_2 1_555 1_555
C9_2 N3_2 1_555 1_555
H8_2 C9_2 1_555 1_555
H9_2 C9_2 1_555 1_555
C10_2 C9_2 1_555 1_555
H10_2 C10_2 1_555 1_555
H11_2 C10_2 1_555 1_555
C11_2 C10_2 1_555 1_555
H12_2 C11_2 1_555 1_555
H13_2 C11_2 1_555 1_555
C7_2 C8_2 1_555 1_555
H5_2 C5_2 1_555 1_555
C6_2 C5_2 1_555 1_555
H6_2 C6_2 1_555 1_555
H45_2 C54_2 1_555 1_555
C55_2 C54_2 1_555 1_555

#END
