
###############################################################################
#
# This file contains modified crystal structure data generated from the
# MOF subset of the Cambridge Structural Database (CSD) v543 
# hosted by the Cambridge Crystallographic Data Centre (CCDC).
#
# This work is licensed under the Creative Commons
# Attribution-NonCommercial-ShareAlike 4.0 International License.
# To view a copy of this license, visit
# http://creativecommons.org/licenses/by-nc-sa/4.0/
# or send a letter to
# Creative Commons, PO Box 1866, Mountain View, CA 94042, USA.
#
# CIF created using the CSD Python API on 29 September 2022
# The structure has been converted into the P1 space group
# The structure has a 3D framework
# The original CSD entry COGNAO is in the cubic crystal system
# The framework has been calculated to contain at least 10.0% void space
# The void calculation uses a probe of radius 1.32A, grid spacing 0.4
# H atom positions have been added when not included in the experimental data
# Generated hydrogen atom positions removed from atoms on special positions
#
###############################################################################

data_COGNAO
_chemical_formula_moiety         '(C336 H228 O128 P16 Zn24)n'
_symmetry_cell_setting           triclinic
_symmetry_space_group_name_H-M   'P 1'
_symmetry_Int_Tables_number      1
_space_group_name_Hall           'P 1'
loop_
_symmetry_equiv_pos_site_id
_symmetry_equiv_pos_as_xyz
1 x,y,z
_cell_length_a                   22.9079(9)
_cell_length_b                   22.9079(9)
_cell_length_c                   22.9079(9)
_cell_angle_alpha                90
_cell_angle_beta                 90
_cell_angle_gamma                90
_cell_volume                     12021.4
loop_
_atom_site_label
_atom_site_type_symbol
_atom_site_fract_x
_atom_site_fract_y
_atom_site_fract_z
Zn8 Zn 0.21180(6) 0.17500(5) 0.77374(6)
Zn9 Zn 0.32500(5) 0.22626(6) 0.71180(6)
O14 O 0.2471(3) 0.1089(3) 0.7344(4)
O18 O 0.3341(3) 0.1431(3) 0.6979(3)
C34 C 0.3666(5) 0.0278(5) 0.6723(5)
H35 H 0.3953 0.0574 0.6675
C36 C 0.3119(4) 0.0427(4) 0.6891(5)
H37 H 0.2323 0.0088 0.7020
C42 C 0.2961(6) 0.1035(5) 0.7077(5)
Zn1 Zn 0.22626(6) 0.71180(6) 0.32500(5)
P1 P 0.35951(11) 0.35951(11) 0.35951(11)
O1 O 0.3219(4) 0.3219(4) 0.3219(4)
P2 P 0.35183(11) 0.85183(11) 0.64817(11)
O2 O 0.3134(4) 0.8134(4) 0.6866(4)
O3 O 0.2481(4) 0.6304(4) 0.3259(4)
O4 O 0.3398(4) 0.6534(4) 0.3211(5)
O5 O 0.2656(4) 0.7471(3) 0.3911(3)
O6 O 0.3021(3) 0.8341(3) 0.3569(3)
O7 O 0.2486(2) 0.7514(2) 0.2514(2)
O8 O 0.3242(2) 0.7298(2) 0.2872(2)
H2 H 0.322(3) 0.749(3) 0.3212(18)
H3 H 0.351(3) 0.746(3) 0.263(2)
C1 C 0.3452(4) 0.4362(4) 0.3486(4)
C2 C 0.3884(4) 0.4764(4) 0.3401(5)
H4 H 0.4282 0.4646 0.3394
C3 C 0.3730(5) 0.5360(5) 0.3322(5)
H5 H 0.4028 0.5640 0.3257
C4 C 0.3170(5) 0.5536(5) 0.3338(6)
C5 C 0.2740(5) 0.5127(5) 0.3449(6)
H6 H 0.2344 0.5247 0.3484
C6 C 0.2884(5) 0.4538(5) 0.3509(6)
H7 H 0.2584 0.4258 0.3567
C7 C 0.3023(6) 0.6172(6) 0.3241(6)
C8 C 0.3375(4) 0.8379(4) 0.5720(4)
C9 C 0.3378(5) 0.8816(5) 0.5300(4)
H8 H 0.3448 0.9210 0.5407
C10 C 0.3277(5) 0.8666(5) 0.4722(5)
H9 H 0.3325 0.8953 0.4426
C11 C 0.3109(5) 0.8119(4) 0.4573(4)
C12 C 0.3098(7) 0.7709(5) 0.5007(6)
H10 H 0.2980 0.7323 0.4912
C13 C 0.3249(6) 0.7830(5) 0.5567(5)
H11 H 0.3265 0.7527 0.5849
C14 C 0.2923(5) 0.7961(6) 0.3965(5)
Zn3 Zn 0.71180(6) 0.32500(5) 0.22626(6)
Zn4 Zn 0.28820(6) 0.82500(5) 0.27374(6)
Zn5 Zn 0.17500(5) 0.77374(6) 0.21180(6)
Zn6 Zn 0.67500(5) 0.72626(6) 0.78820(6)
Zn7 Zn 0.72626(6) 0.78820(6) 0.67500(5)
Zn10 Zn 0.27374(6) 0.28820(6) 0.82500(5)
O9 O 0.3259(4) 0.2481(4) 0.6304(4)
O10 O 0.6304(4) 0.3259(4) 0.2481(4)
O11 O 0.3211(5) 0.3398(4) 0.6534(4)
O12 O 0.6534(4) 0.3211(5) 0.3398(4)
O13 O 0.6089(3) 0.7656(4) 0.7529(3)
O15 O 0.3911(3) 0.2656(4) 0.7471(3)
O16 O 0.7471(3) 0.3911(3) 0.2656(4)
O17 O 0.6431(3) 0.8021(3) 0.6659(3)
O19 O 0.1431(3) 0.6979(3) 0.3341(3)
O21 O 0.6979(3) 0.3341(3) 0.1431(3)
O22 O 0.2514(2) 0.2486(2) 0.7514(2)
O23 O 0.7514(2) 0.2514(2) 0.2486(2)
O24 O 0.2128(2) 0.6758(2) 0.2298(2)
O25 O 0.2872(2) 0.3242(2) 0.7298(2)
O26 O 0.2298(2) 0.2128(2) 0.6758(2)
O27 O 0.7298(2) 0.2872(2) 0.3242(2)
O28 O 0.6758(2) 0.2298(2) 0.2128(2)
H14 H 0.1788(18) 0.678(3) 0.249(3)
H15 H 0.3212(18) 0.322(3) 0.749(3)
H16 H 0.249(3) 0.1788(18) 0.678(3)
H17 H 0.749(3) 0.3212(18) 0.322(3)
H18 H 0.678(3) 0.249(3) 0.1788(18)
H19 H 0.237(2) 0.649(3) 0.246(3)
H20 H 0.263(2) 0.351(3) 0.746(3)
H21 H 0.246(3) 0.237(2) 0.649(3)
H22 H 0.746(3) 0.263(2) 0.351(3)
H23 H 0.649(3) 0.246(3) 0.237(2)
C15 C 0.3486(4) 0.3452(4) 0.4362(4)
C16 C 0.4362(4) 0.3486(4) 0.3452(4)
C17 C 0.3401(5) 0.3884(4) 0.4764(4)
C18 C 0.4764(4) 0.3401(5) 0.3884(4)
H24 H 0.3394 0.4282 0.4646
H25 H 0.4646 0.3394 0.4282
C19 C 0.3322(5) 0.3730(5) 0.5360(5)
C20 C 0.5360(5) 0.3322(5) 0.3730(5)
H26 H 0.3257 0.4028 0.5640
H27 H 0.5640 0.3257 0.4028
C21 C 0.3338(6) 0.3170(5) 0.5536(5)
C22 C 0.5536(5) 0.3338(6) 0.3170(5)
C23 C 0.3449(6) 0.2740(5) 0.5127(5)
C24 C 0.5127(5) 0.3449(6) 0.2740(5)
H28 H 0.3484 0.2344 0.5247
H29 H 0.5247 0.3484 0.2344
C25 C 0.3509(6) 0.2884(5) 0.4538(5)
C26 C 0.4538(5) 0.3509(6) 0.2884(5)
H30 H 0.3567 0.2584 0.4258
H31 H 0.4258 0.3567 0.2584
C27 C 0.3241(6) 0.3023(6) 0.6172(6)
C28 C 0.6172(6) 0.3241(6) 0.3023(6)
C29 C 0.4280(4) 0.8375(4) 0.6621(4)
C30 C 0.3379(4) 0.9280(4) 0.6625(4)
C31 C 0.4700(4) 0.8378(5) 0.6184(5)
C32 C 0.3816(5) 0.9700(4) 0.6622(5)
H32 H 0.4593 0.8448 0.5790
H33 H 0.4210 0.9593 0.6552
C33 C 0.5278(5) 0.8277(5) 0.6334(5)
H34 H 0.5574 0.8325 0.6047
C35 C 0.5427(4) 0.8109(5) 0.6881(4)
C37 C 0.4993(6) 0.8098(7) 0.7291(5)
C38 C 0.2709(5) 0.9993(6) 0.6902(7)
H36 H 0.5088 0.7980 0.7677
C39 C 0.4433(5) 0.8249(6) 0.7170(5)
C40 C 0.2830(5) 0.9433(5) 0.6751(6)
H38 H 0.4151 0.8265 0.7473
H39 H 0.2527 0.9151 0.6735
C41 C 0.6035(5) 0.7923(5) 0.7039(6)
Zn8_2 Zn 0.77374(6) 0.21180(6) 0.17500(5)
O14_2 O 0.7344(4) 0.2471(3) 0.1089(3)
C34_2 C 0.6723(5) 0.3666(5) 0.0278(5)
H35_2 H 0.6675 0.3953 0.0574
C36_2 C 0.6891(5) 0.3119(4) 0.0427(4)
H37_2 H 0.7020 0.2323 0.0088
C42_2 C 0.7077(5) 0.2961(6) 0.1035(5)
P2_2 P 0.64817(11) 0.35183(11) 0.85183(11)
O2_2 O 0.6866(4) 0.3134(4) 0.8134(4)
O6_2 O 0.3569(3) 0.3021(3) 0.8341(3)
C8_2 C 0.5720(4) 0.3375(4) 0.8379(4)
C9_2 C 0.5300(4) 0.3378(5) 0.8816(5)
H8_2 H 0.5407 0.3448 0.9210
C10_2 C 0.4722(5) 0.3277(5) 0.8666(5)
H9_2 H 0.4426 0.3325 0.8953
C11_2 C 0.4573(4) 0.3109(5) 0.8119(4)
C12_2 C 0.5007(6) 0.3098(7) 0.7709(5)
H10_2 H 0.4912 0.2980 0.7323
C13_2 C 0.5567(5) 0.3249(6) 0.7830(5)
H11_2 H 0.5849 0.3265 0.7527
C14_2 C 0.3965(5) 0.2923(5) 0.7961(6)
Zn6_2 Zn 0.78820(6) 0.67500(5) 0.72626(6)
Zn10_2 Zn 0.82500(5) 0.27374(6) 0.28820(6)
O13_2 O 0.7529(3) 0.6089(3) 0.7656(4)
O17_2 O 0.6659(3) 0.6431(3) 0.8021(3)
C29_2 C 0.6621(4) 0.4280(4) 0.8375(4)
C30_2 C 0.6625(4) 0.3379(4) 0.9280(4)
C31_2 C 0.6184(5) 0.4700(4) 0.8378(5)
C32_2 C 0.6622(5) 0.3816(5) 0.9700(4)
H32_2 H 0.5790 0.4593 0.8448
H33_2 H 0.6552 0.4210 0.9593
C33_2 C 0.6334(5) 0.5278(5) 0.8277(5)
H34_2 H 0.6047 0.5574 0.8325
C35_2 C 0.6881(4) 0.5427(4) 0.8109(5)
C37_2 C 0.7291(5) 0.4993(6) 0.8098(7)
C38_2 C 0.6902(7) 0.2709(5) 0.9993(6)
H36_2 H 0.7677 0.5088 0.7980
C39_2 C 0.7170(5) 0.4433(5) 0.8249(6)
C40_2 C 0.6751(6) 0.2830(5) 0.9433(5)
H38_2 H 0.7473 0.4151 0.8265
H39_2 H 0.6735 0.2527 0.9151
C41_2 C 0.7039(6) 0.6035(5) 0.7923(5)
O14_3 O 0.1089(3) 0.7344(4) 0.2471(3)
C34_3 C 0.0278(5) 0.6723(5) 0.3666(5)
H35_3 H 0.0574 0.6675 0.3953
C36_3 C 0.0427(4) 0.6891(5) 0.3119(4)
H37_3 H 0.0088 0.7020 0.2323
C42_3 C 0.1035(5) 0.7077(5) 0.2961(6)
P2_3 P 0.85183(11) 0.64817(11) 0.35183(11)
O2_3 O 0.8134(4) 0.6866(4) 0.3134(4)
O6_3 O 0.8341(3) 0.3569(3) 0.3021(3)
C8_3 C 0.8379(4) 0.5720(4) 0.3375(4)
C9_3 C 0.8816(5) 0.5300(4) 0.3378(5)
H8_3 H 0.9210 0.5407 0.3448
C10_3 C 0.8666(5) 0.4722(5) 0.3277(5)
H9_3 H 0.8953 0.4426 0.3325
C11_3 C 0.8119(4) 0.4573(4) 0.3109(5)
C12_3 C 0.7709(5) 0.5007(6) 0.3098(7)
H10_3 H 0.7323 0.4912 0.2980
C13_3 C 0.7830(5) 0.5567(5) 0.3249(6)
H11_3 H 0.7527 0.5849 0.3265
C14_3 C 0.7961(6) 0.3965(5) 0.2923(5)
O13_3 O 0.7656(4) 0.7529(3) 0.6089(3)
O17_3 O 0.8021(3) 0.6659(3) 0.6431(3)
C29_3 C 0.8375(4) 0.6621(4) 0.4280(4)
C30_3 C 0.9280(4) 0.6625(4) 0.3379(4)
C31_3 C 0.8378(5) 0.6184(5) 0.4700(4)
C32_3 C 0.9700(4) 0.6622(5) 0.3816(5)
H32_3 H 0.8448 0.5790 0.4593
H33_3 H 0.9593 0.6552 0.4210
C33_3 C 0.8277(5) 0.6334(5) 0.5278(5)
H34_3 H 0.8325 0.6047 0.5574
C35_3 C 0.8109(5) 0.6881(4) 0.5427(4)
C37_3 C 0.8098(7) 0.7291(5) 0.4993(6)
C38_3 C 0.9993(6) 0.6902(7) 0.2709(5)
H36_3 H 0.7980 0.7677 0.5088
C39_3 C 0.8249(6) 0.7170(5) 0.4433(5)
C40_3 C 0.9433(5) 0.6751(6) 0.2830(5)
H38_3 H 0.8265 0.7473 0.4151
H39_3 H 0.9151 0.6735 0.2527
C41_3 C 0.7923(5) 0.7039(6) 0.6035(5)
P2_4 P 0.14817(11) 0.14817(11) 0.14817(11)
O2_4 O 0.1866(4) 0.1866(4) 0.1866(4)
C8_4 C 0.1625(4) 0.1621(4) 0.0720(4)
C9_4 C 0.1622(5) 0.1184(5) 0.0300(4)
H8_4 H 0.1552 0.0790 0.0407
C12_4 C 0.1902(7) 0.2291(5) 0.0007(6)
C13_4 C 0.1751(6) 0.2170(5) 0.0567(5)
H11_4 H 0.1735 0.2473 0.0849
O9_2 O 0.1741(4) 0.7519(4) 0.1304(4)
O11_2 O 0.1789(5) 0.6602(4) 0.1534(4)
O20 O 0.1659(3) 0.8569(3) 0.1979(3)
O26_2 O 0.2702(2) 0.7872(2) 0.1758(2)
H16_2 H 0.251(3) 0.8212(18) 0.178(3)
H21_2 H 0.254(3) 0.763(2) 0.149(3)
C19_2 C 0.1678(5) 0.6270(5) 0.0360(5)
H26_2 H 0.1743 0.5972 0.0640
C21_2 C 0.1662(6) 0.6830(5) 0.0536(5)
C23_2 C 0.1551(6) 0.7260(5) 0.0127(5)
H28_2 H 0.1516 0.7656 0.0247
C27_2 C 0.1759(6) 0.6977(6) 0.1172(6)
C29_4 C 0.0720(4) 0.1625(4) 0.1621(4)
C30_4 C 0.1621(4) 0.0720(4) 0.1625(4)
C31_4 C 0.0300(4) 0.1622(5) 0.1184(5)
C32_4 C 0.1184(5) 0.0300(4) 0.1622(5)
H32_4 H 0.0407 0.1552 0.0790
H33_4 H 0.0790 0.0407 0.1552
C37_4 C 0.0007(6) 0.1902(7) 0.2291(5)
C38_4 C 0.2291(5) 0.0007(6) 0.1902(7)
C39_4 C 0.0567(5) 0.1751(6) 0.2170(5)
C40_4 C 0.2170(5) 0.0567(5) 0.1751(6)
H38_4 H 0.0849 0.1735 0.2473
H39_4 H 0.2473 0.0849 0.1735
P1_2 P 0.14049(11) 0.64049(11) 0.85951(11)
O1_2 O 0.1781(4) 0.6781(4) 0.8219(4)
O3_2 O 0.2519(4) 0.3696(4) 0.8259(4)
O4_2 O 0.1602(4) 0.3466(4) 0.8211(5)
O5_2 O 0.2344(4) 0.2529(3) 0.8911(3)
O6_4 O 0.1979(3) 0.1659(3) 0.8569(3)
O8_2 O 0.1758(2) 0.2702(2) 0.7872(2)
H2_2 H 0.178(3) 0.251(3) 0.8212(18)
H3_2 H 0.149(3) 0.254(3) 0.763(2)
C1_2 C 0.1548(4) 0.5638(4) 0.8486(4)
C2_2 C 0.1116(4) 0.5236(4) 0.8401(5)
H4_2 H 0.0718 0.5354 0.8394
C3_2 C 0.1270(5) 0.4640(5) 0.8322(5)
H5_2 H 0.0972 0.4360 0.8257
C4_2 C 0.1830(5) 0.4464(5) 0.8338(6)
C5_2 C 0.2260(5) 0.4873(5) 0.8449(6)
H6_2 H 0.2656 0.4753 0.8484
C6_2 C 0.2116(5) 0.5462(5) 0.8509(6)
H7_2 H 0.2416 0.5742 0.8567
C7_2 C 0.1977(6) 0.3828(6) 0.8241(6)
C10_4 C 0.1723(5) 0.1334(5) 0.9722(5)
H9_4 H 0.1675 0.1047 0.9426
C11_4 C 0.1891(5) 0.1881(4) 0.9573(4)
H10_4 H 0.2020 0.2677 0.9912
C14_4 C 0.2077(5) 0.2039(6) 0.8965(5)
C15_2 C 0.1514(4) 0.6548(4) 0.9362(4)
C16_2 C 0.0638(4) 0.6514(4) 0.8452(4)
C17_2 C 0.1599(5) 0.6116(4) 0.9764(4)
C18_2 C 0.0236(4) 0.6599(5) 0.8884(4)
H24_2 H 0.1606 0.5718 0.9646
H25_2 H 0.0354 0.6606 0.9282
C25_2 C 0.1491(6) 0.7116(5) 0.9538(5)
C26_2 C 0.0462(5) 0.6491(6) 0.7884(5)
H30_2 H 0.1433 0.7416 0.9258
H31_2 H 0.0742 0.6433 0.7584
O14_4 O 0.2529(3) 0.8911(3) 0.2344(4)
C34_4 C 0.1334(5) 0.9722(5) 0.1723(5)
H35_4 H 0.1047 0.9426 0.1675
C36_4 C 0.1881(4) 0.9573(4) 0.1891(5)
H37_4 H 0.2677 0.9912 0.2020
C42_4 C 0.2039(6) 0.8965(5) 0.2077(5)
O13_4 O 0.8911(3) 0.2344(4) 0.2529(3)
O17_4 O 0.8569(3) 0.1979(3) 0.1659(3)
C33_4 C 0.9722(5) 0.1723(5) 0.1334(5)
H34_4 H 0.9426 0.1675 0.1047
C35_4 C 0.9573(4) 0.1891(5) 0.1881(4)
H36_4 H 0.9912 0.2020 0.2677
C41_4 C 0.8965(5) 0.2077(5) 0.2039(6)
O10_2 O 0.8696(4) 0.6741(4) 0.7481(4)
O12_2 O 0.8466(4) 0.6789(5) 0.8398(4)
O23_2 O 0.7486(2) 0.7486(2) 0.7486(2)
O27_2 O 0.7702(2) 0.7128(2) 0.8242(2)
O28_2 O 0.8242(2) 0.7702(2) 0.7128(2)
H17_2 H 0.751(3) 0.6788(18) 0.822(3)
H18_2 H 0.822(3) 0.751(3) 0.6788(18)
H22_2 H 0.754(3) 0.737(2) 0.851(3)
H23_2 H 0.851(3) 0.754(3) 0.737(2)
C20_2 C 0.9640(5) 0.6678(5) 0.8730(5)
H27_2 H 0.9360 0.6743 0.9028
C22_2 C 0.9464(5) 0.6662(6) 0.8170(5)
C24_2 C 0.9873(5) 0.6551(6) 0.7740(5)
H29_2 H 0.9753 0.6516 0.7344
C28_2 C 0.8828(6) 0.6759(6) 0.8023(6)
O3_3 O 0.7519(4) 0.1304(4) 0.1741(4)
O4_3 O 0.6602(4) 0.1534(4) 0.1789(5)
C3_3 C 0.6270(5) 0.0360(5) 0.1678(5)
H5_3 H 0.5972 0.0640 0.1743
C4_3 C 0.6830(5) 0.0536(5) 0.1662(6)
C5_3 C 0.7260(5) 0.0127(5) 0.1551(6)
H6_3 H 0.7656 0.0247 0.1516
C7_3 C 0.6977(6) 0.1172(6) 0.1759(6)
O24_2 O 0.7872(2) 0.1758(2) 0.2702(2)
H14_2 H 0.8212(18) 0.178(3) 0.251(3)
H19_2 H 0.763(2) 0.149(3) 0.254(3)
P1_3 P 0.64049(11) 0.85951(11) 0.14049(11)
O1_3 O 0.6781(4) 0.8219(4) 0.1781(4)
C1_3 C 0.6548(4) 0.9362(4) 0.1514(4)
C2_3 C 0.6116(4) 0.9764(4) 0.1599(5)
H4_3 H 0.5718 0.9646 0.1606
C6_3 C 0.7116(5) 0.9538(5) 0.1491(6)
H7_3 H 0.7416 0.9258 0.1433
O10_3 O 0.3696(4) 0.8259(4) 0.2519(4)
O12_3 O 0.3466(4) 0.8211(5) 0.1602(4)
C15_3 C 0.6514(4) 0.8452(4) 0.0638(4)
C16_3 C 0.5638(4) 0.8486(4) 0.1548(4)
C17_3 C 0.6599(5) 0.8884(4) 0.0236(4)
C18_3 C 0.5236(4) 0.8401(5) 0.1116(4)
H24_3 H 0.6606 0.9282 0.0354
H25_3 H 0.5354 0.8394 0.0718
C20_3 C 0.4640(5) 0.8322(5) 0.1270(5)
H27_3 H 0.4360 0.8257 0.0972
C22_3 C 0.4464(5) 0.8338(6) 0.1830(5)
C24_3 C 0.4873(5) 0.8449(6) 0.2260(5)
H29_3 H 0.4753 0.8484 0.2656
C25_3 C 0.6491(6) 0.7884(5) 0.0462(5)
C26_3 C 0.5462(5) 0.8509(6) 0.2116(5)
H30_3 H 0.6433 0.7584 0.0742
H31_3 H 0.5742 0.8567 0.2416
C28_3 C 0.3828(6) 0.8241(6) 0.1977(6)
O9_3 O 0.6741(4) 0.7481(4) 0.8696(4)
O11_3 O 0.6789(5) 0.8398(4) 0.8466(4)
O25_2 O 0.7128(2) 0.8242(2) 0.7702(2)
H15_2 H 0.6788(18) 0.822(3) 0.751(3)
H20_2 H 0.737(2) 0.851(3) 0.754(3)
C19_3 C 0.6678(5) 0.8730(5) 0.9640(5)
H26_3 H 0.6743 0.9028 0.9360
C21_3 C 0.6662(6) 0.8170(5) 0.9464(5)
C23_3 C 0.6551(6) 0.7740(5) 0.9873(5)
H28_3 H 0.6516 0.7344 0.9753
C27_3 C 0.6759(6) 0.8023(6) 0.8828(6)
O10_4 O 0.1304(4) 0.1741(4) 0.7519(4)
O12_4 O 0.1534(4) 0.1789(5) 0.6602(4)
C20_4 C 0.0360(5) 0.1678(5) 0.6270(5)
H27_4 H 0.0640 0.1743 0.5972
C22_4 C 0.0536(5) 0.1662(6) 0.6830(5)
C24_4 C 0.0127(5) 0.1551(6) 0.7260(5)
H29_4 H 0.0247 0.1516 0.7656
C28_4 C 0.1172(6) 0.1759(6) 0.6977(6)
P1_4 P 0.85951(11) 0.14049(11) 0.64049(11)
O1_4 O 0.8219(4) 0.1781(4) 0.6781(4)
C1_4 C 0.8452(4) 0.0638(4) 0.6514(4)
C2_4 C 0.8884(4) 0.0236(4) 0.6599(5)
H4_4 H 0.9282 0.0354 0.6606
C6_4 C 0.7884(5) 0.0462(5) 0.6491(6)
H7_4 H 0.7584 0.0742 0.6433
O9_4 O 0.8259(4) 0.2519(4) 0.3696(4)
O11_4 O 0.8211(5) 0.1602(4) 0.3466(4)
C15_4 C 0.8486(4) 0.1548(4) 0.5638(4)
C16_4 C 0.9362(4) 0.1514(4) 0.6548(4)
C17_4 C 0.8401(5) 0.1116(4) 0.5236(4)
C18_4 C 0.9764(4) 0.1599(5) 0.6116(4)
H24_4 H 0.8394 0.0718 0.5354
H25_4 H 0.9646 0.1606 0.5718
C19_4 C 0.8322(5) 0.1270(5) 0.4640(5)
H26_4 H 0.8257 0.0972 0.4360
C21_4 C 0.8338(6) 0.1830(5) 0.4464(5)
C23_4 C 0.8449(6) 0.2260(5) 0.4873(5)
H28_4 H 0.8484 0.2656 0.4753
C25_4 C 0.8509(6) 0.2116(5) 0.5462(5)
C26_4 C 0.9538(5) 0.1491(6) 0.7116(5)
H30_4 H 0.8567 0.2416 0.5742
H31_4 H 0.9258 0.1433 0.7416
C27_4 C 0.8241(6) 0.1977(6) 0.3828(6)
O3_4 O 0.7481(4) 0.8696(4) 0.6741(4)
O4_4 O 0.8398(4) 0.8466(4) 0.6789(5)
C3_4 C 0.8730(5) 0.9640(5) 0.6678(5)
H5_4 H 0.9028 0.9360 0.6743
C4_4 C 0.8170(5) 0.9464(5) 0.6662(6)
C5_4 C 0.7740(5) 0.9873(5) 0.6551(6)
H6_4 H 0.7344 0.9753 0.6516
C7_4 C 0.8023(6) 0.8828(6) 0.6759(6)
Zn1_2 Zn 0.77374(6) 0.28820(6) 0.67500(5)
P1_5 P 0.64049(11) 0.64049(11) 0.64049(11)
O1_5 O 0.6781(4) 0.6781(4) 0.6781(4)
P2_5 P 0.64817(11) 0.14817(11) 0.35183(11)
O2_5 O 0.6866(4) 0.1866(4) 0.3134(4)
O3_5 O 0.7519(4) 0.3696(4) 0.6741(4)
O4_5 O 0.6602(4) 0.3466(4) 0.6789(5)
O5_3 O 0.7344(4) 0.2529(3) 0.6089(3)
O6_5 O 0.6979(3) 0.1659(3) 0.6431(3)
O7_2 O 0.7514(2) 0.2486(2) 0.7486(2)
O8_3 O 0.6758(2) 0.2702(2) 0.7128(2)
H2_3 H 0.678(3) 0.251(3) 0.6788(18)
H3_3 H 0.649(3) 0.254(3) 0.737(2)
C1_5 C 0.6548(4) 0.5638(4) 0.6514(4)
C2_5 C 0.6116(4) 0.5236(4) 0.6599(5)
H4_5 H 0.5718 0.5354 0.6606
C3_5 C 0.6270(5) 0.4640(5) 0.6678(5)
H5_5 H 0.5972 0.4360 0.6743
C4_5 C 0.6830(5) 0.4464(5) 0.6662(6)
C5_5 C 0.7260(5) 0.4873(5) 0.6551(6)
H6_5 H 0.7656 0.4753 0.6516
C6_5 C 0.7116(5) 0.5462(5) 0.6491(6)
H7_5 H 0.7416 0.5742 0.6433
C7_5 C 0.6977(6) 0.3828(6) 0.6759(6)
C8_5 C 0.6625(4) 0.1621(4) 0.4280(4)
C9_5 C 0.6622(5) 0.1184(5) 0.4700(4)
H8_5 H 0.6552 0.0790 0.4593
C10_5 C 0.6723(5) 0.1334(5) 0.5278(5)
H9_5 H 0.6675 0.1047 0.5574
C11_5 C 0.6891(5) 0.1881(4) 0.5427(4)
C12_5 C 0.6902(7) 0.2291(5) 0.4993(6)
H10_5 H 0.7020 0.2677 0.5088
C13_5 C 0.6751(6) 0.2170(5) 0.4433(5)
H11_5 H 0.6735 0.2473 0.4151
C14_5 C 0.7077(5) 0.2039(6) 0.6035(5)
Zn2 Zn 0.67500(5) 0.77374(6) 0.28820(6)
Zn3_2 Zn 0.28820(6) 0.67500(5) 0.77374(6)
Zn4_2 Zn 0.71180(6) 0.17500(5) 0.72626(6)
Zn5_2 Zn 0.82500(5) 0.22626(6) 0.78820(6)
Zn6_3 Zn 0.32500(5) 0.27374(6) 0.21180(6)
Zn7_2 Zn 0.27374(6) 0.21180(6) 0.32500(5)
Zn10_3 Zn 0.72626(6) 0.71180(6) 0.17500(5)
O9_5 O 0.6741(4) 0.7519(4) 0.3696(4)
O10_5 O 0.3696(4) 0.6741(4) 0.7519(4)
O11_5 O 0.6789(5) 0.6602(4) 0.3466(4)
O12_5 O 0.3466(4) 0.6789(5) 0.6602(4)
O13_5 O 0.3911(3) 0.2344(4) 0.2471(3)
O15_2 O 0.6089(3) 0.7344(4) 0.2529(3)
O16_2 O 0.2529(3) 0.6089(3) 0.7344(4)
O17_5 O 0.3569(3) 0.1979(3) 0.3341(3)
O19_2 O 0.8569(3) 0.3021(3) 0.6659(3)
O20_2 O 0.6659(3) 0.8569(3) 0.3021(3)
O21_2 O 0.3021(3) 0.6659(3) 0.8569(3)
O22_2 O 0.7486(2) 0.7514(2) 0.2486(2)
O23_3 O 0.2486(2) 0.7486(2) 0.7514(2)
O24_3 O 0.7872(2) 0.3242(2) 0.7702(2)
O25_3 O 0.7128(2) 0.6758(2) 0.2702(2)
O26_3 O 0.7702(2) 0.7872(2) 0.3242(2)
O27_3 O 0.2702(2) 0.7128(2) 0.6758(2)
O28_3 O 0.3242(2) 0.7702(2) 0.7872(2)
H14_3 H 0.8212(18) 0.322(3) 0.751(3)
H15_3 H 0.6788(18) 0.678(3) 0.251(3)
H16_3 H 0.751(3) 0.8212(18) 0.322(3)
H17_3 H 0.251(3) 0.6788(18) 0.678(3)
H18_3 H 0.322(3) 0.751(3) 0.8212(18)
H19_3 H 0.763(2) 0.351(3) 0.754(3)
H20_3 H 0.737(2) 0.649(3) 0.254(3)
H21_3 H 0.754(3) 0.763(2) 0.351(3)
H22_3 H 0.254(3) 0.737(2) 0.649(3)
H23_3 H 0.351(3) 0.754(3) 0.763(2)
C15_5 C 0.6514(4) 0.6548(4) 0.5638(4)
C16_5 C 0.5638(4) 0.6514(4) 0.6548(4)
C17_5 C 0.6599(5) 0.6116(4) 0.5236(4)
C18_5 C 0.5236(4) 0.6599(5) 0.6116(4)
H24_5 H 0.6606 0.5718 0.5354
H25_5 H 0.5354 0.6606 0.5718
C19_5 C 0.6678(5) 0.6270(5) 0.4640(5)
C20_5 C 0.4640(5) 0.6678(5) 0.6270(5)
H26_5 H 0.6743 0.5972 0.4360
H27_5 H 0.4360 0.6743 0.5972
C21_5 C 0.6662(6) 0.6830(5) 0.4464(5)
C22_5 C 0.4464(5) 0.6662(6) 0.6830(5)
C23_5 C 0.6551(6) 0.7260(5) 0.4873(5)
C24_5 C 0.4873(5) 0.6551(6) 0.7260(5)
H28_5 H 0.6516 0.7656 0.4753
H29_5 H 0.4753 0.6516 0.7656
C25_5 C 0.6491(6) 0.7116(5) 0.5462(5)
C26_5 C 0.5462(5) 0.6491(6) 0.7116(5)
H30_5 H 0.6433 0.7416 0.5742
H31_5 H 0.5742 0.6433 0.7416
C27_5 C 0.6759(6) 0.6977(6) 0.3828(6)
C28_5 C 0.3828(6) 0.6759(6) 0.6977(6)
C29_5 C 0.5720(4) 0.1625(4) 0.3379(4)
C30_5 C 0.6621(4) 0.0720(4) 0.3375(4)
C31_5 C 0.5300(4) 0.1622(5) 0.3816(5)
C32_5 C 0.6184(5) 0.0300(4) 0.3378(5)
H32_5 H 0.5407 0.1552 0.4210
H33_5 H 0.5790 0.0407 0.3448
C33_5 C 0.4722(5) 0.1723(5) 0.3666(5)
H34_5 H 0.4426 0.1675 0.3953
C35_5 C 0.4573(4) 0.1891(5) 0.3119(4)
C37_5 C 0.5007(6) 0.1902(7) 0.2709(5)
C38_5 C 0.7291(5) 0.0007(6) 0.3098(7)
H36_5 H 0.4912 0.2020 0.2323
C39_5 C 0.5567(5) 0.1751(6) 0.2830(5)
C40_5 C 0.7170(5) 0.0567(5) 0.3249(6)
H38_5 H 0.5849 0.1735 0.2527
H39_5 H 0.7473 0.0849 0.3265
C41_5 C 0.3965(5) 0.2077(5) 0.2961(6)
Zn8_3 Zn 0.78820(6) 0.82500(5) 0.22626(6)
O14_5 O 0.7529(3) 0.8911(3) 0.2656(4)
C34_5 C 0.6334(5) 0.9722(5) 0.3277(5)
H35_5 H 0.6047 0.9426 0.3325
C36_5 C 0.6881(4) 0.9573(4) 0.3109(5)
H37_5 H 0.7677 0.9912 0.2980
C42_5 C 0.7039(6) 0.8965(5) 0.2923(5)
P2_6 P 0.35183(11) 0.64817(11) 0.14817(11)
O2_6 O 0.3134(4) 0.6866(4) 0.1866(4)
O6_6 O 0.6431(3) 0.6979(3) 0.1659(3)
C8_6 C 0.4280(4) 0.6625(4) 0.1621(4)
C9_6 C 0.4700(4) 0.6622(5) 0.1184(5)
H8_6 H 0.4593 0.6552 0.0790
C10_6 C 0.5278(5) 0.6723(5) 0.1334(5)
H9_6 H 0.5574 0.6675 0.1047
C11_6 C 0.5427(4) 0.6891(5) 0.1881(4)
C12_6 C 0.4993(6) 0.6902(7) 0.2291(5)
H10_6 H 0.5088 0.7020 0.2677
C13_6 C 0.4433(5) 0.6751(6) 0.2170(5)
H11_6 H 0.4151 0.6735 0.2473
C14_6 C 0.6035(5) 0.7077(5) 0.2039(6)
Zn6_4 Zn 0.21180(6) 0.32500(5) 0.27374(6)
Zn10_4 Zn 0.17500(5) 0.72626(6) 0.71180(6)
O13_6 O 0.2471(3) 0.3911(3) 0.2344(4)
O17_6 O 0.3341(3) 0.3569(3) 0.1979(3)
C29_6 C 0.3379(4) 0.5720(4) 0.1625(4)
C30_6 C 0.3375(4) 0.6621(4) 0.0720(4)
C31_6 C 0.3816(5) 0.5300(4) 0.1622(5)
C32_6 C 0.3378(5) 0.6184(5) 0.0300(4)
H32_6 H 0.4210 0.5407 0.1552
H33_6 H 0.3448 0.5790 0.0407
C33_6 C 0.3666(5) 0.4722(5) 0.1723(5)
H34_6 H 0.3953 0.4426 0.1675
C35_6 C 0.3119(4) 0.4573(4) 0.1891(5)
C37_6 C 0.2709(5) 0.5007(6) 0.1902(7)
C38_6 C 0.3098(7) 0.7291(5) 0.0007(6)
H36_6 H 0.2323 0.4912 0.2020
C39_6 C 0.2830(5) 0.5567(5) 0.1751(6)
C40_6 C 0.3249(6) 0.7170(5) 0.0567(5)
H38_6 H 0.2527 0.5849 0.1735
H39_6 H 0.3265 0.7473 0.0849
C41_6 C 0.2961(6) 0.3965(5) 0.2077(5)
Zn8_4 Zn 0.22626(6) 0.78820(6) 0.82500(5)
O14_6 O 0.2656(4) 0.7529(3) 0.8911(3)
C34_6 C 0.3277(5) 0.6334(5) 0.9722(5)
H35_6 H 0.3325 0.6047 0.9426
C36_6 C 0.3109(5) 0.6881(4) 0.9573(4)
H37_6 H 0.2980 0.7677 0.9912
C42_6 C 0.2923(5) 0.7039(6) 0.8965(5)
P2_7 P 0.14817(11) 0.35183(11) 0.64817(11)
O2_7 O 0.1866(4) 0.3134(4) 0.6866(4)
O6_7 O 0.1659(3) 0.6431(3) 0.6979(3)
C8_7 C 0.1621(4) 0.4280(4) 0.6625(4)
C9_7 C 0.1184(5) 0.4700(4) 0.6622(5)
H8_7 H 0.0790 0.4593 0.6552
C10_7 C 0.1334(5) 0.5278(5) 0.6723(5)
H9_7 H 0.1047 0.5574 0.6675
C11_7 C 0.1881(4) 0.5427(4) 0.6891(5)
C12_7 C 0.2291(5) 0.4993(6) 0.6902(7)
H10_7 H 0.2677 0.5088 0.7020
C13_7 C 0.2170(5) 0.4433(5) 0.6751(6)
H11_7 H 0.2473 0.4151 0.6735
C14_7 C 0.2039(6) 0.6035(5) 0.7077(5)
O13_7 O 0.2344(4) 0.2471(3) 0.3911(3)
O17_7 O 0.1979(3) 0.3341(3) 0.3569(3)
C29_7 C 0.1625(4) 0.3379(4) 0.5720(4)
C30_7 C 0.0720(4) 0.3375(4) 0.6621(4)
C31_7 C 0.1622(5) 0.3816(5) 0.5300(4)
C32_7 C 0.0300(4) 0.3378(5) 0.6184(5)
H32_7 H 0.1552 0.4210 0.5407
H33_7 H 0.0407 0.3448 0.5790
C33_7 C 0.1723(5) 0.3666(5) 0.4722(5)
H34_7 H 0.1675 0.3953 0.4426
C35_7 C 0.1891(5) 0.3119(4) 0.4573(4)
C37_7 C 0.1902(7) 0.2709(5) 0.5007(6)
C38_7 C 0.0007(6) 0.3098(7) 0.7291(5)
H36_7 H 0.2020 0.2323 0.4912
C39_7 C 0.1751(6) 0.2830(5) 0.5567(5)
C40_7 C 0.0567(5) 0.3249(6) 0.7170(5)
H38_7 H 0.1735 0.2527 0.5849
H39_7 H 0.0849 0.3265 0.7473
C41_7 C 0.2077(5) 0.2961(6) 0.3965(5)
O14_7 O 0.8911(3) 0.2656(4) 0.7529(3)
C34_7 C 0.9722(5) 0.3277(5) 0.6334(5)
H35_7 H 0.9426 0.3325 0.6047
C36_7 C 0.9573(4) 0.3109(5) 0.6881(4)
H37_7 H 0.9912 0.2980 0.7677
C42_7 C 0.8965(5) 0.2923(5) 0.7039(6)
O10_6 O 0.1304(4) 0.3259(4) 0.2519(4)
O12_6 O 0.1534(4) 0.3211(5) 0.1602(4)
O23_4 O 0.2514(2) 0.2514(2) 0.2514(2)
O27_4 O 0.2298(2) 0.2872(2) 0.1758(2)
O28_4 O 0.1758(2) 0.2298(2) 0.2872(2)
H17_4 H 0.249(3) 0.3212(18) 0.178(3)
H18_4 H 0.178(3) 0.249(3) 0.3212(18)
H22_4 H 0.246(3) 0.263(2) 0.149(3)
H23_4 H 0.149(3) 0.246(3) 0.263(2)
C20_6 C 0.0360(5) 0.3322(5) 0.1270(5)
H27_6 H 0.0640 0.3257 0.0972
C22_6 C 0.0536(5) 0.3338(6) 0.1830(5)
C24_6 C 0.0127(5) 0.3449(6) 0.2260(5)
H29_6 H 0.0247 0.3484 0.2656
C28_6 C 0.1172(6) 0.3241(6) 0.1977(6)
O13_8 O 0.1089(3) 0.7656(4) 0.7471(3)
O17_8 O 0.1431(3) 0.8021(3) 0.8341(3)
C33_8 C 0.0278(5) 0.8277(5) 0.8666(5)
H34_8 H 0.0574 0.8325 0.8953
C35_8 C 0.0427(4) 0.8109(5) 0.8119(4)
H36_8 H 0.0088 0.7980 0.7323
C41_8 C 0.1035(5) 0.7923(5) 0.7961(6)
O14_8 O 0.7471(3) 0.1089(3) 0.7656(4)
O18_2 O 0.8341(3) 0.1431(3) 0.8021(3)
C34_8 C 0.8666(5) 0.0278(5) 0.8277(5)
H35_8 H 0.8953 0.0574 0.8325
C36_8 C 0.8119(4) 0.0427(4) 0.8109(5)
H37_8 H 0.7323 0.0088 0.7980
C42_8 C 0.7961(6) 0.1035(5) 0.7923(5)
P1_6 P 0.85951(11) 0.35951(11) 0.14049(11)
O1_6 O 0.8219(4) 0.3219(4) 0.1781(4)
O3_6 O 0.7481(4) 0.6304(4) 0.1741(4)
O4_6 O 0.8398(4) 0.6534(4) 0.1789(5)
O5_4 O 0.7656(4) 0.7471(3) 0.1089(3)
O6_8 O 0.8021(3) 0.8341(3) 0.1431(3)
O8_4 O 0.8242(2) 0.7298(2) 0.2128(2)
H2_4 H 0.822(3) 0.749(3) 0.1788(18)
H3_4 H 0.851(3) 0.746(3) 0.237(2)
C1_6 C 0.8452(4) 0.4362(4) 0.1514(4)
C2_6 C 0.8884(4) 0.4764(4) 0.1599(5)
H4_6 H 0.9282 0.4646 0.1606
C3_6 C 0.8730(5) 0.5360(5) 0.1678(5)
H5_6 H 0.9028 0.5640 0.1743
C4_6 C 0.8170(5) 0.5536(5) 0.1662(6)
C5_6 C 0.7740(5) 0.5127(5) 0.1551(6)
H6_6 H 0.7344 0.5247 0.1516
C6_6 C 0.7884(5) 0.4538(5) 0.1491(6)
H7_6 H 0.7584 0.4258 0.1433
C7_6 C 0.8023(6) 0.6172(6) 0.1759(6)
C10_8 C 0.8277(5) 0.8666(5) 0.0278(5)
H9_8 H 0.8325 0.8953 0.0574
C11_8 C 0.8109(5) 0.8119(4) 0.0427(4)
H10_8 H 0.7980 0.7323 0.0088
C14_8 C 0.7923(5) 0.7961(6) 0.1035(5)
C15_6 C 0.8486(4) 0.3452(4) 0.0638(4)
C16_6 C 0.9362(4) 0.3486(4) 0.1548(4)
C17_6 C 0.8401(5) 0.3884(4) 0.0236(4)
C18_6 C 0.9764(4) 0.3401(5) 0.1116(4)
H24_6 H 0.8394 0.4282 0.0354
H25_6 H 0.9646 0.3394 0.0718
C25_6 C 0.8509(6) 0.2884(5) 0.0462(5)
C26_6 C 0.9538(5) 0.3509(6) 0.2116(5)
H30_6 H 0.8567 0.2584 0.0742
H31_6 H 0.9258 0.3567 0.2416
P2_8 P 0.85183(11) 0.85183(11) 0.85183(11)
O2_8 O 0.8134(4) 0.8134(4) 0.8134(4)
C8_8 C 0.8375(4) 0.8379(4) 0.9280(4)
C9_8 C 0.8378(5) 0.8816(5) 0.9700(4)
H8_8 H 0.8448 0.9210 0.9593
C12_8 C 0.8098(7) 0.7709(5) 0.9993(6)
C13_8 C 0.8249(6) 0.7830(5) 0.9433(5)
H11_8 H 0.8265 0.7527 0.9151
O9_6 O 0.8259(4) 0.2481(4) 0.8696(4)
O11_6 O 0.8211(5) 0.3398(4) 0.8466(4)
O26_4 O 0.7298(2) 0.2128(2) 0.8242(2)
H16_4 H 0.749(3) 0.1788(18) 0.822(3)
H21_4 H 0.746(3) 0.237(2) 0.851(3)
C19_6 C 0.8322(5) 0.3730(5) 0.9640(5)
H26_6 H 0.8257 0.4028 0.9360
C21_6 C 0.8338(6) 0.3170(5) 0.9464(5)
C23_6 C 0.8449(6) 0.2740(5) 0.9873(5)
H28_6 H 0.8484 0.2344 0.9753
C27_6 C 0.8241(6) 0.3023(6) 0.8828(6)
C29_8 C 0.9280(4) 0.8375(4) 0.8379(4)
C30_8 C 0.8379(4) 0.9280(4) 0.8375(4)
C31_8 C 0.9700(4) 0.8378(5) 0.8816(5)
C32_8 C 0.8816(5) 0.9700(4) 0.8378(5)
H32_8 H 0.9593 0.8448 0.9210
H33_8 H 0.9210 0.9593 0.8448
C37_8 C 0.9993(6) 0.8098(7) 0.7709(5)
C38_8 C 0.7709(5) 0.9993(6) 0.8098(7)
C39_8 C 0.9433(5) 0.8249(6) 0.7830(5)
C40_8 C 0.7830(5) 0.9433(5) 0.8249(6)
H38_8 H 0.9151 0.8265 0.7527
H39_8 H 0.7527 0.9151 0.8265
O9_7 O 0.3259(4) 0.2519(4) 0.1304(4)
O11_7 O 0.3211(5) 0.1602(4) 0.1534(4)
O25_4 O 0.2872(2) 0.1758(2) 0.2298(2)
H15_4 H 0.3212(18) 0.178(3) 0.249(3)
H20_4 H 0.263(2) 0.149(3) 0.246(3)
C19_7 C 0.3322(5) 0.1270(5) 0.0360(5)
H26_7 H 0.3257 0.0972 0.0640
C21_7 C 0.3338(6) 0.1830(5) 0.0536(5)
C23_7 C 0.3449(6) 0.2260(5) 0.0127(5)
H28_7 H 0.3484 0.2656 0.0247
C27_7 C 0.3241(6) 0.1977(6) 0.1172(6)
P1_7 P 0.35951(11) 0.14049(11) 0.85951(11)
O1_7 O 0.3219(4) 0.1781(4) 0.8219(4)
C1_7 C 0.3452(4) 0.0638(4) 0.8486(4)
C2_7 C 0.3884(4) 0.0236(4) 0.8401(5)
H4_7 H 0.4282 0.0354 0.8394
C6_7 C 0.2884(5) 0.0462(5) 0.8509(6)
H7_7 H 0.2584 0.0742 0.8567
O10_7 O 0.6304(4) 0.1741(4) 0.7481(4)
O12_7 O 0.6534(4) 0.1789(5) 0.8398(4)
C15_7 C 0.3486(4) 0.1548(4) 0.9362(4)
C16_7 C 0.4362(4) 0.1514(4) 0.8452(4)
C17_7 C 0.3401(5) 0.1116(4) 0.9764(4)
C18_7 C 0.4764(4) 0.1599(5) 0.8884(4)
H24_7 H 0.3394 0.0718 0.9646
H25_7 H 0.4646 0.1606 0.9282
C20_7 C 0.5360(5) 0.1678(5) 0.8730(5)
H27_7 H 0.5640 0.1743 0.9028
C22_7 C 0.5536(5) 0.1662(6) 0.8170(5)
C24_7 C 0.5127(5) 0.1551(6) 0.7740(5)
H29_7 H 0.5247 0.1516 0.7344
C25_7 C 0.3509(6) 0.2116(5) 0.9538(5)
C26_7 C 0.4538(5) 0.1491(6) 0.7884(5)
H30_7 H 0.3567 0.2416 0.9258
H31_7 H 0.4258 0.1433 0.7584
C28_7 C 0.6172(6) 0.1759(6) 0.8023(6)
O3_7 O 0.2481(4) 0.8696(4) 0.8259(4)
O4_7 O 0.3398(4) 0.8466(4) 0.8211(5)
C3_7 C 0.3730(5) 0.9640(5) 0.8322(5)
H5_7 H 0.4028 0.9360 0.8257
C4_7 C 0.3170(5) 0.9464(5) 0.8338(6)
C5_7 C 0.2740(5) 0.9873(5) 0.8449(6)
H6_7 H 0.2344 0.9753 0.8484
C7_7 C 0.3023(6) 0.8828(6) 0.8241(6)
O24_4 O 0.2128(2) 0.8242(2) 0.7298(2)
H14_4 H 0.1788(18) 0.822(3) 0.749(3)
H19_4 H 0.237(2) 0.851(3) 0.746(3)
O3_8 O 0.2519(4) 0.1304(4) 0.3259(4)
O4_8 O 0.1602(4) 0.1534(4) 0.3211(5)
C3_8 C 0.1270(5) 0.0360(5) 0.3322(5)
H5_8 H 0.0972 0.0640 0.3257
C4_8 C 0.1830(5) 0.0536(5) 0.3338(6)
C5_8 C 0.2260(5) 0.0127(5) 0.3449(6)
H6_8 H 0.2656 0.0247 0.3484
C7_8 C 0.1977(6) 0.1172(6) 0.3241(6)
P1_8 P 0.14049(11) 0.85951(11) 0.35951(11)
O1_8 O 0.1781(4) 0.8219(4) 0.3219(4)
C1_8 C 0.1548(4) 0.9362(4) 0.3486(4)
C2_8 C 0.1116(4) 0.9764(4) 0.3401(5)
H4_8 H 0.0718 0.9646 0.3394
C6_8 C 0.2116(5) 0.9538(5) 0.3509(6)
H7_8 H 0.2416 0.9258 0.3567
O9_8 O 0.1741(4) 0.7481(4) 0.6304(4)
O11_8 O 0.1789(5) 0.8398(4) 0.6534(4)
C15_8 C 0.1514(4) 0.8452(4) 0.4362(4)
C16_8 C 0.0638(4) 0.8486(4) 0.3452(4)
C17_8 C 0.1599(5) 0.8884(4) 0.4764(4)
C18_8 C 0.0236(4) 0.8401(5) 0.3884(4)
H24_8 H 0.1606 0.9282 0.4646
H25_8 H 0.0354 0.8394 0.4282
C19_8 C 0.1678(5) 0.8730(5) 0.5360(5)
H26_8 H 0.1743 0.9028 0.5640
C21_8 C 0.1662(6) 0.8170(5) 0.5536(5)
C23_8 C 0.1551(6) 0.7740(5) 0.5127(5)
H28_8 H 0.1516 0.7344 0.5247
C25_8 C 0.1491(6) 0.7884(5) 0.4538(5)
C26_8 C 0.0462(5) 0.8509(6) 0.2884(5)
H30_8 H 0.1433 0.7584 0.4258
H31_8 H 0.0742 0.8567 0.2584
C27_8 C 0.1759(6) 0.8023(6) 0.6172(6)
O10_8 O 0.8696(4) 0.8259(4) 0.2481(4)
O12_8 O 0.8466(4) 0.8211(5) 0.3398(4)
C20_8 C 0.9640(5) 0.8322(5) 0.3730(5)
H27_8 H 0.9360 0.8257 0.4028
C22_8 C 0.9464(5) 0.8338(6) 0.3170(5)
C24_8 C 0.9873(5) 0.8449(6) 0.2740(5)
H29_8 H 0.9753 0.8484 0.2344
C28_8 C 0.8828(6) 0.8241(6) 0.3023(6)
loop_
_geom_bond_atom_site_label_1
_geom_bond_atom_site_label_2
_geom_bond_site_symmetry_1
_geom_bond_site_symmetry_2
Zn8 O14 1_555 1_555
Zn9 O18 1_555 1_555
O14 C42 1_555 1_555
O18 C42 1_555 1_555
H35 C34 1_555 1_555
C36 C34 1_555 1_555
C42 C36 1_555 1_555
Zn1 O3 1_555 1_555
P1 O1 1_555 1_555
P2 O2 1_555 1_555
O3 C7 1_555 1_555
O4 C7 1_555 1_555
O5 Zn1 1_555 1_555
O6 C14 1_555 1_555
O7 Zn1 1_555 1_555
O8 Zn1 1_555 1_555
H2 O8 1_555 1_555
H3 O8 1_555 1_555
C1 P1 1_555 1_555
C2 C1 1_555 1_555
H4 C2 1_555 1_555
C3 C2 1_555 1_555
H5 C3 1_555 1_555
C4 C3 1_555 1_555
C5 C4 1_555 1_555
H6 C5 1_555 1_555
C6 C1 1_555 1_555
H7 C6 1_555 1_555
C7 C4 1_555 1_555
C8 P2 1_555 1_555
C9 C8 1_555 1_555
H8 C9 1_555 1_555
C10 C9 1_555 1_555
H9 C10 1_555 1_555
C11 C10 1_555 1_555
C12 C11 1_555 1_555
H10 C12 1_555 1_555
C13 C8 1_555 1_555
H11 C13 1_555 1_555
C14 O5 1_555 1_555
Zn9 O9 1_555 1_555
Zn3 O10 1_555 1_555
Zn4 O6 1_555 1_555
Zn5 O7 1_555 1_555
Zn6 O13 1_555 1_555
Zn7 O17 1_555 1_555
Zn10 O22 1_555 1_555
O9 C27 1_555 1_555
O10 C28 1_555 1_555
O11 C27 1_555 1_555
O12 C28 1_555 1_555
O13 C41 1_555 1_555
O15 Zn9 1_555 1_555
O16 Zn3 1_555 1_555
O17 C41 1_555 1_555
O19 Zn1 1_555 1_555
O21 Zn3 1_555 1_555
O22 Zn9 1_555 1_555
O23 Zn3 1_555 1_555
O24 Zn1 1_555 1_555
O25 Zn9 1_555 1_555
O26 Zn9 1_555 1_555
O27 Zn3 1_555 1_555
O28 Zn3 1_555 1_555
H14 O24 1_555 1_555
H15 O25 1_555 1_555
H16 O26 1_555 1_555
H17 O27 1_555 1_555
H18 O28 1_555 1_555
H19 O24 1_555 1_555
H20 O25 1_555 1_555
H21 O26 1_555 1_555
H22 O27 1_555 1_555
H23 O28 1_555 1_555
C15 P1 1_555 1_555
C16 P1 1_555 1_555
C17 C15 1_555 1_555
C18 C16 1_555 1_555
H24 C17 1_555 1_555
H25 C18 1_555 1_555
C19 C17 1_555 1_555
C20 C18 1_555 1_555
H26 C19 1_555 1_555
H27 C20 1_555 1_555
C21 C19 1_555 1_555
C22 C20 1_555 1_555
C23 C21 1_555 1_555
C24 C22 1_555 1_555
H28 C23 1_555 1_555
H29 C24 1_555 1_555
C25 C15 1_555 1_555
C26 C16 1_555 1_555
H30 C25 1_555 1_555
H31 C26 1_555 1_555
C27 C21 1_555 1_555
C28 C22 1_555 1_555
C29 P2 1_555 1_555
C30 P2 1_555 1_555
C31 C29 1_555 1_555
C32 C30 1_555 1_555
H32 C31 1_555 1_555
H33 C32 1_555 1_555
C33 C31 1_555 1_555
H34 C33 1_555 1_555
C35 C33 1_555 1_555
C37 C35 1_555 1_555
H36 C37 1_555 1_555
C39 C29 1_555 1_555
C40 C30 1_555 1_555
H38 C39 1_555 1_555
H39 C40 1_555 1_555
C41 C35 1_555 1_555
O7 Zn4 1_555 1_555
O8 Zn4 1_555 1_555
C5 C6 1_555 1_555
C11 C14 1_555 1_555
C12 C13 1_555 1_555
Zn5 O24 1_555 1_555
Zn10 O25 1_555 1_555
C23 C25 1_555 1_555
C24 C26 1_555 1_555
C37 C39 1_555 1_555
C38 C40 1_555 1_555
Zn8_2 O14_2 1_555 1_555
O14_2 C42_2 1_555 1_555
O21 C42_2 1_555 1_555
H35_2 C34_2 1_555 1_555
C36_2 C34_2 1_555 1_555
C42_2 C36_2 1_555 1_555
P2_2 O2_2 1_555 1_555
O6_2 C14_2 1_555 1_555
C8_2 P2_2 1_555 1_555
C9_2 C8_2 1_555 1_555
H8_2 C9_2 1_555 1_555
C10_2 C9_2 1_555 1_555
H9_2 C10_2 1_555 1_555
C11_2 C10_2 1_555 1_555
C12_2 C11_2 1_555 1_555
H10_2 C12_2 1_555 1_555
C13_2 C8_2 1_555 1_555
H11_2 C13_2 1_555 1_555
C14_2 O15 1_555 1_555
Zn10 O6_2 1_555 1_555
Zn8 O22 1_555 1_555
Zn6_2 O13_2 1_555 1_555
Zn6 O17_2 1_555 1_555
Zn10_2 O23 1_555 1_555
O13_2 C41_2 1_555 1_555
O17_2 C41_2 1_555 1_555
C29_2 P2_2 1_555 1_555
C30_2 P2_2 1_555 1_555
C31_2 C29_2 1_555 1_555
C32_2 C30_2 1_555 1_555
H32_2 C31_2 1_555 1_555
H33_2 C32_2 1_555 1_555
C33_2 C31_2 1_555 1_555
H34_2 C33_2 1_555 1_555
C35_2 C33_2 1_555 1_555
C37_2 C35_2 1_555 1_555
H36_2 C37_2 1_555 1_555
C39_2 C29_2 1_555 1_555
C40_2 C30_2 1_555 1_555
H38_2 C39_2 1_555 1_555
H39_2 C40_2 1_555 1_555
C41_2 C35_2 1_555 1_555
C11_2 C14_2 1_555 1_555
C12_2 C13_2 1_555 1_555
Zn8 O26 1_555 1_555
Zn10_2 O27 1_555 1_555
C37_2 C39_2 1_555 1_555
C38_2 C40_2 1_555 1_555
Zn5 O14_3 1_555 1_555
O14_3 C42_3 1_555 1_555
O19 C42_3 1_555 1_555
H35_3 C34_3 1_555 1_555
C36_3 C34_3 1_555 1_555
C42_3 C36_3 1_555 1_555
P2_3 O2_3 1_555 1_555
O6_3 C14_3 1_555 1_555
C8_3 P2_3 1_555 1_555
C9_3 C8_3 1_555 1_555
H8_3 C9_3 1_555 1_555
C10_3 C9_3 1_555 1_555
H9_3 C10_3 1_555 1_555
C11_3 C10_3 1_555 1_555
C12_3 C11_3 1_555 1_555
H10_3 C12_3 1_555 1_555
C13_3 C8_3 1_555 1_555
H11_3 C13_3 1_555 1_555
C14_3 O16 1_555 1_555
Zn10_2 O6_3 1_555 1_555
Zn8_2 O23 1_555 1_555
Zn7 O13_3 1_555 1_555
Zn6_2 O17_3 1_555 1_555
O13_3 C41_3 1_555 1_555
O17_3 C41_3 1_555 1_555
C29_3 P2_3 1_555 1_555
C30_3 P2_3 1_555 1_555
C31_3 C29_3 1_555 1_555
C32_3 C30_3 1_555 1_555
H32_3 C31_3 1_555 1_555
H33_3 C32_3 1_555 1_555
C33_3 C31_3 1_555 1_555
H34_3 C33_3 1_555 1_555
C35_3 C33_3 1_555 1_555
C37_3 C35_3 1_555 1_555
H36_3 C37_3 1_555 1_555
C39_3 C29_3 1_555 1_555
C40_3 C30_3 1_555 1_555
H38_3 C39_3 1_555 1_555
H39_3 C40_3 1_555 1_555
C41_3 C35_3 1_555 1_555
C11_3 C14_3 1_555 1_555
C12_3 C13_3 1_555 1_555
Zn8_2 O28 1_555 1_555
C37_3 C39_3 1_555 1_555
C38_3 C40_3 1_555 1_555
P2_4 O2_4 1_555 1_555
C8_4 P2_4 1_555 1_555
C9_4 C8_4 1_555 1_555
H8_4 C9_4 1_555 1_555
C13_4 C8_4 1_555 1_555
H11_4 C13_4 1_555 1_555
Zn5 O9_2 1_555 1_555
O9_2 C27_2 1_555 1_555
O11_2 C27_2 1_555 1_555
O20 Zn5 1_555 1_555
O26_2 Zn5 1_555 1_555
H16_2 O26_2 1_555 1_555
H21_2 O26_2 1_555 1_555
H26_2 C19_2 1_555 1_555
C21_2 C19_2 1_555 1_555
C23_2 C21_2 1_555 1_555
H28_2 C23_2 1_555 1_555
C27_2 C21_2 1_555 1_555
C29_4 P2_4 1_555 1_555
C30_4 P2_4 1_555 1_555
C31_4 C29_4 1_555 1_555
C32_4 C30_4 1_555 1_555
H32_4 C31_4 1_555 1_555
H33_4 C32_4 1_555 1_555
C39_4 C29_4 1_555 1_555
C40_4 C30_4 1_555 1_555
H38_4 C39_4 1_555 1_555
H39_4 C40_4 1_555 1_555
C12_4 C13_4 1_555 1_555
C37_4 C39_4 1_555 1_555
C38_4 C40_4 1_555 1_555
Zn10 O3_2 1_555 1_555
P1_2 O1_2 1_555 1_555
O3_2 C7_2 1_555 1_555
O4_2 C7_2 1_555 1_555
O5_2 Zn10 1_555 1_555
O6_4 C14_4 1_555 1_555
O8_2 Zn10 1_555 1_555
H2_2 O8_2 1_555 1_555
H3_2 O8_2 1_555 1_555
C1_2 P1_2 1_555 1_555
C2_2 C1_2 1_555 1_555
H4_2 C2_2 1_555 1_555
C3_2 C2_2 1_555 1_555
H5_2 C3_2 1_555 1_555
C4_2 C3_2 1_555 1_555
C5_2 C4_2 1_555 1_555
H6_2 C5_2 1_555 1_555
C6_2 C1_2 1_555 1_555
H7_2 C6_2 1_555 1_555
C7_2 C4_2 1_555 1_555
H9_4 C10_4 1_555 1_555
C11_4 C10_4 1_555 1_555
C14_4 O5_2 1_555 1_555
Zn8 O6_4 1_555 1_555
C15_2 P1_2 1_555 1_555
C16_2 P1_2 1_555 1_555
C17_2 C15_2 1_555 1_555
C18_2 C16_2 1_555 1_555
H24_2 C17_2 1_555 1_555
H25_2 C18_2 1_555 1_555
C25_2 C15_2 1_555 1_555
C26_2 C16_2 1_555 1_555
H30_2 C25_2 1_555 1_555
H31_2 C26_2 1_555 1_555
O8_2 Zn8 1_555 1_555
C5_2 C6_2 1_555 1_555
C11_4 C14_4 1_555 1_555
Zn4 O14_4 1_555 1_555
O14_4 C42_4 1_555 1_555
O20 C42_4 1_555 1_555
H35_4 C34_4 1_555 1_555
C36_4 C34_4 1_555 1_555
C42_4 C36_4 1_555 1_555
Zn10_2 O13_4 1_555 1_555
Zn8_2 O17_4 1_555 1_555
O13_4 C41_4 1_555 1_555
O17_4 C41_4 1_555 1_555
H34_4 C33_4 1_555 1_555
C35_4 C33_4 1_555 1_555
C41_4 C35_4 1_555 1_555
Zn6_2 O10_2 1_555 1_555
O10_2 C28_2 1_555 1_555
O12_2 C28_2 1_555 1_555
O23_2 Zn6_2 1_555 1_555
O27_2 Zn6_2 1_555 1_555
O28_2 Zn6_2 1_555 1_555
H17_2 O27_2 1_555 1_555
H18_2 O28_2 1_555 1_555
H22_2 O27_2 1_555 1_555
H23_2 O28_2 1_555 1_555
H27_2 C20_2 1_555 1_555
C22_2 C20_2 1_555 1_555
C24_2 C22_2 1_555 1_555
H29_2 C24_2 1_555 1_555
C28_2 C22_2 1_555 1_555
Zn8_2 O3_3 1_555 1_555
O3_3 C7_3 1_555 1_555
O4_3 C7_3 1_555 1_555
H5_3 C3_3 1_555 1_555
C4_3 C3_3 1_555 1_555
C5_3 C4_3 1_555 1_555
H6_3 C5_3 1_555 1_555
C7_3 C4_3 1_555 1_555
O24_2 Zn8_2 1_555 1_555
H14_2 O24_2 1_555 1_555
H19_2 O24_2 1_555 1_555
Zn10_2 O24_2 1_555 1_555
P1_3 O1_3 1_555 1_555
C1_3 P1_3 1_555 1_555
C2_3 C1_3 1_555 1_555
H4_3 C2_3 1_555 1_555
C6_3 C1_3 1_555 1_555
H7_3 C6_3 1_555 1_555
Zn4 O10_3 1_555 1_555
O10_3 C28_3 1_555 1_555
O12_3 C28_3 1_555 1_555
O26_2 Zn4 1_555 1_555
C15_3 P1_3 1_555 1_555
C16_3 P1_3 1_555 1_555
C17_3 C15_3 1_555 1_555
C18_3 C16_3 1_555 1_555
H24_3 C17_3 1_555 1_555
H25_3 C18_3 1_555 1_555
C20_3 C18_3 1_555 1_555
H27_3 C20_3 1_555 1_555
C22_3 C20_3 1_555 1_555
C24_3 C22_3 1_555 1_555
H29_3 C24_3 1_555 1_555
C25_3 C15_3 1_555 1_555
C26_3 C16_3 1_555 1_555
H30_3 C25_3 1_555 1_555
H31_3 C26_3 1_555 1_555
C28_3 C22_3 1_555 1_555
C24_3 C26_3 1_555 1_555
Zn6 O9_3 1_555 1_555
Zn7 O23_2 1_555 1_555
O9_3 C27_3 1_555 1_555
O11_3 C27_3 1_555 1_555
O23_2 Zn6 1_555 1_555
O25_2 Zn6 1_555 1_555
O27_2 Zn6 1_555 1_555
H15_2 O25_2 1_555 1_555
H20_2 O25_2 1_555 1_555
H26_3 C19_3 1_555 1_555
C21_3 C19_3 1_555 1_555
C23_3 C21_3 1_555 1_555
H28_3 C23_3 1_555 1_555
C27_3 C21_3 1_555 1_555
Zn7 O25_2 1_555 1_555
Zn8 O10_4 1_555 1_555
O10_4 C28_4 1_555 1_555
O12_4 C28_4 1_555 1_555
H27_4 C20_4 1_555 1_555
C22_4 C20_4 1_555 1_555
C24_4 C22_4 1_555 1_555
H29_4 C24_4 1_555 1_555
C28_4 C22_4 1_555 1_555
P1_4 O1_4 1_555 1_555
C1_4 P1_4 1_555 1_555
C2_4 C1_4 1_555 1_555
H4_4 C2_4 1_555 1_555
C6_4 C1_4 1_555 1_555
H7_4 C6_4 1_555 1_555
Zn10_2 O9_4 1_555 1_555
O9_4 C27_4 1_555 1_555
O11_4 C27_4 1_555 1_555
C15_4 P1_4 1_555 1_555
C16_4 P1_4 1_555 1_555
C17_4 C15_4 1_555 1_555
C18_4 C16_4 1_555 1_555
H24_4 C17_4 1_555 1_555
H25_4 C18_4 1_555 1_555
C19_4 C17_4 1_555 1_555
H26_4 C19_4 1_555 1_555
C21_4 C19_4 1_555 1_555
C23_4 C21_4 1_555 1_555
H28_4 C23_4 1_555 1_555
C25_4 C15_4 1_555 1_555
C26_4 C16_4 1_555 1_555
H30_4 C25_4 1_555 1_555
H31_4 C26_4 1_555 1_555
C27_4 C21_4 1_555 1_555
C23_4 C25_4 1_555 1_555
Zn7 O3_4 1_555 1_555
O3_4 C7_4 1_555 1_555
O4_4 C7_4 1_555 1_555
O28_2 Zn7 1_555 1_555
H5_4 C3_4 1_555 1_555
C4_4 C3_4 1_555 1_555
C5_4 C4_4 1_555 1_555
H6_4 C5_4 1_555 1_555
C7_4 C4_4 1_555 1_555
Zn1_2 O3_5 1_555 1_555
P1_5 O1_5 1_555 1_555
P2_5 O2_5 1_555 1_555
O3_5 C7_5 1_555 1_555
O4_5 C7_5 1_555 1_555
O5_3 Zn1_2 1_555 1_555
O6_5 C14_5 1_555 1_555
O7_2 Zn1_2 1_555 1_555
O8_3 Zn1_2 1_555 1_555
H2_3 O8_3 1_555 1_555
H3_3 O8_3 1_555 1_555
C1_5 P1_5 1_555 1_555
C2_5 C1_5 1_555 1_555
H4_5 C2_5 1_555 1_555
C3_5 C2_5 1_555 1_555
H5_5 C3_5 1_555 1_555
C4_5 C3_5 1_555 1_555
C5_5 C4_5 1_555 1_555
H6_5 C5_5 1_555 1_555
C6_5 C1_5 1_555 1_555
H7_5 C6_5 1_555 1_555
C7_5 C4_5 1_555 1_555
C8_5 P2_5 1_555 1_555
C9_5 C8_5 1_555 1_555
H8_5 C9_5 1_555 1_555
C10_5 C9_5 1_555 1_555
H9_5 C10_5 1_555 1_555
C11_5 C10_5 1_555 1_555
C12_5 C11_5 1_555 1_555
H10_5 C12_5 1_555 1_555
C13_5 C8_5 1_555 1_555
H11_5 C13_5 1_555 1_555
C14_5 O5_3 1_555 1_555
Zn2 O9_5 1_555 1_555
Zn3_2 O10_5 1_555 1_555
Zn4_2 O6_5 1_555 1_555
Zn5_2 O7_2 1_555 1_555
Zn6_3 O13_5 1_555 1_555
Zn7_2 O17_5 1_555 1_555
Zn10_3 O22_2 1_555 1_555
O9_5 C27_5 1_555 1_555
O10_5 C28_5 1_555 1_555
O11_5 C27_5 1_555 1_555
O12_5 C28_5 1_555 1_555
O13_5 C41_5 1_555 1_555
O15_2 Zn2 1_555 1_555
O16_2 Zn3_2 1_555 1_555
O17_5 C41_5 1_555 1_555
O19_2 Zn1_2 1_555 1_555
O20_2 Zn2 1_555 1_555
O21_2 Zn3_2 1_555 1_555
O22_2 Zn2 1_555 1_555
O23_3 Zn3_2 1_555 1_555
O24_3 Zn1_2 1_555 1_555
O25_3 Zn2 1_555 1_555
O26_3 Zn2 1_555 1_555
O27_3 Zn3_2 1_555 1_555
O28_3 Zn3_2 1_555 1_555
H14_3 O24_3 1_555 1_555
H15_3 O25_3 1_555 1_555
H16_3 O26_3 1_555 1_555
H17_3 O27_3 1_555 1_555
H18_3 O28_3 1_555 1_555
H19_3 O24_3 1_555 1_555
H20_3 O25_3 1_555 1_555
H21_3 O26_3 1_555 1_555
H22_3 O27_3 1_555 1_555
H23_3 O28_3 1_555 1_555
C15_5 P1_5 1_555 1_555
C16_5 P1_5 1_555 1_555
C17_5 C15_5 1_555 1_555
C18_5 C16_5 1_555 1_555
H24_5 C17_5 1_555 1_555
H25_5 C18_5 1_555 1_555
C19_5 C17_5 1_555 1_555
C20_5 C18_5 1_555 1_555
H26_5 C19_5 1_555 1_555
H27_5 C20_5 1_555 1_555
C21_5 C19_5 1_555 1_555
C22_5 C20_5 1_555 1_555
C23_5 C21_5 1_555 1_555
C24_5 C22_5 1_555 1_555
H28_5 C23_5 1_555 1_555
H29_5 C24_5 1_555 1_555
C25_5 C15_5 1_555 1_555
C26_5 C16_5 1_555 1_555
H30_5 C25_5 1_555 1_555
H31_5 C26_5 1_555 1_555
C27_5 C21_5 1_555 1_555
C28_5 C22_5 1_555 1_555
C29_5 P2_5 1_555 1_555
C30_5 P2_5 1_555 1_555
C31_5 C29_5 1_555 1_555
C32_5 C30_5 1_555 1_555
H32_5 C31_5 1_555 1_555
H33_5 C32_5 1_555 1_555
C33_5 C31_5 1_555 1_555
H34_5 C33_5 1_555 1_555
C35_5 C33_5 1_555 1_555
C37_5 C35_5 1_555 1_555
H36_5 C37_5 1_555 1_555
C39_5 C29_5 1_555 1_555
C40_5 C30_5 1_555 1_555
H38_5 C39_5 1_555 1_555
H39_5 C40_5 1_555 1_555
C41_5 C35_5 1_555 1_555
O7_2 Zn4_2 1_555 1_555
O8_3 Zn4_2 1_555 1_555
C5_5 C6_5 1_555 1_555
C11_5 C14_5 1_555 1_555
C12_5 C13_5 1_555 1_555
Zn5_2 O24_3 1_555 1_555
Zn10_3 O25_3 1_555 1_555
C23_5 C25_5 1_555 1_555
C24_5 C26_5 1_555 1_555
C37_5 C39_5 1_555 1_555
C38_5 C40_5 1_555 1_555
Zn8_3 O14_5 1_555 1_555
O14_5 C42_5 1_555 1_555
O20_2 C42_5 1_555 1_555
H35_5 C34_5 1_555 1_555
C36_5 C34_5 1_555 1_555
C42_5 C36_5 1_555 1_555
P2_6 O2_6 1_555 1_555
O6_6 C14_6 1_555 1_555
C8_6 P2_6 1_555 1_555
C9_6 C8_6 1_555 1_555
H8_6 C9_6 1_555 1_555
C10_6 C9_6 1_555 1_555
H9_6 C10_6 1_555 1_555
C11_6 C10_6 1_555 1_555
C12_6 C11_6 1_555 1_555
H10_6 C12_6 1_555 1_555
C13_6 C8_6 1_555 1_555
H11_6 C13_6 1_555 1_555
C14_6 O15_2 1_555 1_555
Zn10_3 O6_6 1_555 1_555
Zn8_3 O22_2 1_555 1_555
Zn6_4 O13_6 1_555 1_555
Zn6_3 O17_6 1_555 1_555
Zn10_4 O23_3 1_555 1_555
O13_6 C41_6 1_555 1_555
O17_6 C41_6 1_555 1_555
C29_6 P2_6 1_555 1_555
C30_6 P2_6 1_555 1_555
C31_6 C29_6 1_555 1_555
C32_6 C30_6 1_555 1_555
H32_6 C31_6 1_555 1_555
H33_6 C32_6 1_555 1_555
C33_6 C31_6 1_555 1_555
H34_6 C33_6 1_555 1_555
C35_6 C33_6 1_555 1_555
C37_6 C35_6 1_555 1_555
H36_6 C37_6 1_555 1_555
C39_6 C29_6 1_555 1_555
C40_6 C30_6 1_555 1_555
H38_6 C39_6 1_555 1_555
H39_6 C40_6 1_555 1_555
C41_6 C35_6 1_555 1_555
C11_6 C14_6 1_555 1_555
C12_6 C13_6 1_555 1_555
Zn8_3 O26_3 1_555 1_555
Zn10_4 O27_3 1_555 1_555
C37_6 C39_6 1_555 1_555
C38_6 C40_6 1_555 1_555
Zn8_4 O14_6 1_555 1_555
O14_6 C42_6 1_555 1_555
O21_2 C42_6 1_555 1_555
H35_6 C34_6 1_555 1_555
C36_6 C34_6 1_555 1_555
C42_6 C36_6 1_555 1_555
P2_7 O2_7 1_555 1_555
O6_7 C14_7 1_555 1_555
C8_7 P2_7 1_555 1_555
C9_7 C8_7 1_555 1_555
H8_7 C9_7 1_555 1_555
C10_7 C9_7 1_555 1_555
H9_7 C10_7 1_555 1_555
C11_7 C10_7 1_555 1_555
C12_7 C11_7 1_555 1_555
H10_7 C12_7 1_555 1_555
C13_7 C8_7 1_555 1_555
H11_7 C13_7 1_555 1_555
C14_7 O16_2 1_555 1_555
Zn10_4 O6_7 1_555 1_555
Zn8_4 O23_3 1_555 1_555
Zn7_2 O13_7 1_555 1_555
Zn6_4 O17_7 1_555 1_555
O13_7 C41_7 1_555 1_555
O17_7 C41_7 1_555 1_555
C29_7 P2_7 1_555 1_555
C30_7 P2_7 1_555 1_555
C31_7 C29_7 1_555 1_555
C32_7 C30_7 1_555 1_555
H32_7 C31_7 1_555 1_555
H33_7 C32_7 1_555 1_555
C33_7 C31_7 1_555 1_555
H34_7 C33_7 1_555 1_555
C35_7 C33_7 1_555 1_555
C37_7 C35_7 1_555 1_555
H36_7 C37_7 1_555 1_555
C39_7 C29_7 1_555 1_555
C40_7 C30_7 1_555 1_555
H38_7 C39_7 1_555 1_555
H39_7 C40_7 1_555 1_555
C41_7 C35_7 1_555 1_555
C11_7 C14_7 1_555 1_555
C12_7 C13_7 1_555 1_555
Zn8_4 O28_3 1_555 1_555
C37_7 C39_7 1_555 1_555
C38_7 C40_7 1_555 1_555
Zn5_2 O14_7 1_555 1_555
O14_7 C42_7 1_555 1_555
O19_2 C42_7 1_555 1_555
H35_7 C34_7 1_555 1_555
C36_7 C34_7 1_555 1_555
C42_7 C36_7 1_555 1_555
Zn6_4 O10_6 1_555 1_555
O10_6 C28_6 1_555 1_555
O12_6 C28_6 1_555 1_555
O23_4 Zn6_4 1_555 1_555
O27_4 Zn6_4 1_555 1_555
O28_4 Zn6_4 1_555 1_555
H17_4 O27_4 1_555 1_555
H18_4 O28_4 1_555 1_555
H22_4 O27_4 1_555 1_555
H23_4 O28_4 1_555 1_555
H27_6 C20_6 1_555 1_555
C22_6 C20_6 1_555 1_555
C24_6 C22_6 1_555 1_555
H29_6 C24_6 1_555 1_555
C28_6 C22_6 1_555 1_555
Zn10_4 O13_8 1_555 1_555
Zn8_4 O17_8 1_555 1_555
O13_8 C41_8 1_555 1_555
O17_8 C41_8 1_555 1_555
H34_8 C33_8 1_555 1_555
C35_8 C33_8 1_555 1_555
C41_8 C35_8 1_555 1_555
Zn4_2 O14_8 1_555 1_555
Zn5_2 O18_2 1_555 1_555
O14_8 C42_8 1_555 1_555
O18_2 C42_8 1_555 1_555
H35_8 C34_8 1_555 1_555
C36_8 C34_8 1_555 1_555
C42_8 C36_8 1_555 1_555
Zn10_3 O3_6 1_555 1_555
P1_6 O1_6 1_555 1_555
O3_6 C7_6 1_555 1_555
O4_6 C7_6 1_555 1_555
O5_4 Zn10_3 1_555 1_555
O6_8 C14_8 1_555 1_555
O8_4 Zn10_3 1_555 1_555
H2_4 O8_4 1_555 1_555
H3_4 O8_4 1_555 1_555
C1_6 P1_6 1_555 1_555
C2_6 C1_6 1_555 1_555
H4_6 C2_6 1_555 1_555
C3_6 C2_6 1_555 1_555
H5_6 C3_6 1_555 1_555
C4_6 C3_6 1_555 1_555
C5_6 C4_6 1_555 1_555
H6_6 C5_6 1_555 1_555
C6_6 C1_6 1_555 1_555
H7_6 C6_6 1_555 1_555
C7_6 C4_6 1_555 1_555
H9_8 C10_8 1_555 1_555
C11_8 C10_8 1_555 1_555
C14_8 O5_4 1_555 1_555
Zn8_3 O6_8 1_555 1_555
C15_6 P1_6 1_555 1_555
C16_6 P1_6 1_555 1_555
C17_6 C15_6 1_555 1_555
C18_6 C16_6 1_555 1_555
H24_6 C17_6 1_555 1_555
H25_6 C18_6 1_555 1_555
C25_6 C15_6 1_555 1_555
C26_6 C16_6 1_555 1_555
H30_6 C25_6 1_555 1_555
H31_6 C26_6 1_555 1_555
O8_4 Zn8_3 1_555 1_555
C5_6 C6_6 1_555 1_555
C11_8 C14_8 1_555 1_555
P2_8 O2_8 1_555 1_555
C8_8 P2_8 1_555 1_555
C9_8 C8_8 1_555 1_555
H8_8 C9_8 1_555 1_555
C13_8 C8_8 1_555 1_555
H11_8 C13_8 1_555 1_555
Zn5_2 O9_6 1_555 1_555
O9_6 C27_6 1_555 1_555
O11_6 C27_6 1_555 1_555
O26_4 Zn5_2 1_555 1_555
H16_4 O26_4 1_555 1_555
H21_4 O26_4 1_555 1_555
H26_6 C19_6 1_555 1_555
C21_6 C19_6 1_555 1_555
C23_6 C21_6 1_555 1_555
H28_6 C23_6 1_555 1_555
C27_6 C21_6 1_555 1_555
C29_8 P2_8 1_555 1_555
C30_8 P2_8 1_555 1_555
C31_8 C29_8 1_555 1_555
C32_8 C30_8 1_555 1_555
H32_8 C31_8 1_555 1_555
H33_8 C32_8 1_555 1_555
C39_8 C29_8 1_555 1_555
C40_8 C30_8 1_555 1_555
H38_8 C39_8 1_555 1_555
H39_8 C40_8 1_555 1_555
C12_8 C13_8 1_555 1_555
C37_8 C39_8 1_555 1_555
C38_8 C40_8 1_555 1_555
Zn6_3 O9_7 1_555 1_555
Zn7_2 O23_4 1_555 1_555
O9_7 C27_7 1_555 1_555
O11_7 C27_7 1_555 1_555
O23_4 Zn6_3 1_555 1_555
O25_4 Zn6_3 1_555 1_555
O27_4 Zn6_3 1_555 1_555
H15_4 O25_4 1_555 1_555
H20_4 O25_4 1_555 1_555
H26_7 C19_7 1_555 1_555
C21_7 C19_7 1_555 1_555
C23_7 C21_7 1_555 1_555
H28_7 C23_7 1_555 1_555
C27_7 C21_7 1_555 1_555
Zn7_2 O25_4 1_555 1_555
P1_7 O1_7 1_555 1_555
C1_7 P1_7 1_555 1_555
C2_7 C1_7 1_555 1_555
H4_7 C2_7 1_555 1_555
C6_7 C1_7 1_555 1_555
H7_7 C6_7 1_555 1_555
Zn4_2 O10_7 1_555 1_555
O10_7 C28_7 1_555 1_555
O12_7 C28_7 1_555 1_555
O26_4 Zn4_2 1_555 1_555
C15_7 P1_7 1_555 1_555
C16_7 P1_7 1_555 1_555
C17_7 C15_7 1_555 1_555
C18_7 C16_7 1_555 1_555
H24_7 C17_7 1_555 1_555
H25_7 C18_7 1_555 1_555
C20_7 C18_7 1_555 1_555
H27_7 C20_7 1_555 1_555
C22_7 C20_7 1_555 1_555
C24_7 C22_7 1_555 1_555
H29_7 C24_7 1_555 1_555
C25_7 C15_7 1_555 1_555
C26_7 C16_7 1_555 1_555
H30_7 C25_7 1_555 1_555
H31_7 C26_7 1_555 1_555
C28_7 C22_7 1_555 1_555
C24_7 C26_7 1_555 1_555
Zn8_4 O3_7 1_555 1_555
O3_7 C7_7 1_555 1_555
O4_7 C7_7 1_555 1_555
H5_7 C3_7 1_555 1_555
C4_7 C3_7 1_555 1_555
C5_7 C4_7 1_555 1_555
H6_7 C5_7 1_555 1_555
C7_7 C4_7 1_555 1_555
O24_4 Zn8_4 1_555 1_555
H14_4 O24_4 1_555 1_555
H19_4 O24_4 1_555 1_555
Zn10_4 O24_4 1_555 1_555
Zn7_2 O3_8 1_555 1_555
O3_8 C7_8 1_555 1_555
O4_8 C7_8 1_555 1_555
O28_4 Zn7_2 1_555 1_555
H5_8 C3_8 1_555 1_555
C4_8 C3_8 1_555 1_555
C5_8 C4_8 1_555 1_555
H6_8 C5_8 1_555 1_555
C7_8 C4_8 1_555 1_555
P1_8 O1_8 1_555 1_555
C1_8 P1_8 1_555 1_555
C2_8 C1_8 1_555 1_555
H4_8 C2_8 1_555 1_555
C6_8 C1_8 1_555 1_555
H7_8 C6_8 1_555 1_555
Zn10_4 O9_8 1_555 1_555
O9_8 C27_8 1_555 1_555
O11_8 C27_8 1_555 1_555
C15_8 P1_8 1_555 1_555
C16_8 P1_8 1_555 1_555
C17_8 C15_8 1_555 1_555
C18_8 C16_8 1_555 1_555
H24_8 C17_8 1_555 1_555
H25_8 C18_8 1_555 1_555
C19_8 C17_8 1_555 1_555
H26_8 C19_8 1_555 1_555
C21_8 C19_8 1_555 1_555
C23_8 C21_8 1_555 1_555
H28_8 C23_8 1_555 1_555
C25_8 C15_8 1_555 1_555
C26_8 C16_8 1_555 1_555
H30_8 C25_8 1_555 1_555
H31_8 C26_8 1_555 1_555
C27_8 C21_8 1_555 1_555
C23_8 C25_8 1_555 1_555
Zn8_3 O10_8 1_555 1_555
O10_8 C28_8 1_555 1_555
O12_8 C28_8 1_555 1_555
H27_8 C20_8 1_555 1_555
C22_8 C20_8 1_555 1_555
C24_8 C22_8 1_555 1_555
H29_8 C24_8 1_555 1_555
C28_8 C22_8 1_555 1_555

#END
