
###############################################################################
#
# This file contains modified crystal structure data generated from the
# MOF subset of the Cambridge Structural Database (CSD) v543 
# hosted by the Cambridge Crystallographic Data Centre (CCDC).
#
# This work is licensed under the Creative Commons
# Attribution-NonCommercial-ShareAlike 4.0 International License.
# To view a copy of this license, visit
# http://creativecommons.org/licenses/by-nc-sa/4.0/
# or send a letter to
# Creative Commons, PO Box 1866, Mountain View, CA 94042, USA.
#
# CIF created using the CSD Python API on 29 September 2022
# The structure has been converted into the P1 space group
# The structure has a 3D framework
# The original CSD entry COGWEB is in the monoclinic crystal system
# The original CSD entry COGWEB is in a Sohncke space group
# The framework has been calculated to contain at least 10.0% void space
# The void calculation uses a probe of radius 1.32A, grid spacing 0.4
#
###############################################################################

data_COGWEB
_chemical_formula_moiety         '(C112 H56 N8 O24 Zn4)n'
_symmetry_cell_setting           triclinic
_symmetry_space_group_name_H-M   'P 1'
_symmetry_Int_Tables_number      1
_space_group_name_Hall           'P 1'
loop_
_symmetry_equiv_pos_site_id
_symmetry_equiv_pos_as_xyz
1 x,y,z
_cell_length_a                   12.935
_cell_length_b                   23.2420(12)
_cell_length_c                   12.9350(5)
_cell_angle_alpha                90
_cell_angle_beta                 90.00
_cell_angle_gamma                90
_cell_volume                     3888.72
loop_
_atom_site_label
_atom_site_type_symbol
_atom_site_fract_x
_atom_site_fract_y
_atom_site_fract_z
C25 C 0.7597(6) 0.0157(3) 0.7810(6)
H13 H 0.7840 0.0457 0.8246
C29 C 0.6967(6) 0.0025(4) 0.6244(7)
C30 C 0.6301(5) 0.0125(3) 0.5367(6)
H16 H 0.6087 0.0511 0.5254
N1 N 0.7193(5) 0.0315(3) 0.6903(5)
Zn2 Zn 0.72887(6) 0.12329(3) 0.65890(6)
O13 O 0.5796(5) 0.1438(3) 0.6331(5)
O14 O 0.7544(5) 0.1308(3) 0.5055(4)
O15 O 0.7192(6) 0.1423(3) 0.8046(5)
O17 O 0.8806(6) 0.1333(3) 0.6719(6)
C1 C 0.5485(7) 0.1884(5) 0.6312(6)
C2 C 0.4265(4) 0.1977(3) 0.6393(5)
C3 C 0.3752(5) 0.1517(3) 0.6379(5)
H1 H 0.4086 0.1153 0.6354
C4 C 0.2528(5) 0.1567(3) 0.6406(5)
C5 C 0.2133(5) 0.2138(3) 0.6629(5)
C6 C 0.2833(5) 0.2662(3) 0.6565(4)
H2 H 0.2531 0.3034 0.6590
C7 C 0.3884(5) 0.2615(3) 0.6474(5)
H3 H 0.4337 0.2936 0.6461
C8 C 0.1912(6) 0.1090(3) 0.6440(6)
H4 H 0.2176 0.0712 0.6360
C9 C 0.0935(5) 0.1196(4) 0.6592(5)
H5 H 0.0510 0.0868 0.6700
C10 C 0.0403(6) 0.1753(4) 0.6617(6)
C11 C 0.1092(5) 0.2184(3) 0.6609(5)
H6 H 0.0818 0.2563 0.6587
C12 C 0.7614(6) 0.1739(3) 0.4594(6)
C15 C 0.7379(5) 0.1472(3) 0.0235(5)
C16 C 0.7387(5) 0.1551(3) 0.1192(6)
C17 C 0.7444(5) 0.2113(3) 0.1655(5)
C18 C 0.7506(5) 0.2619(2) 0.1073(5)
H8 H 0.7689 0.2985 0.1342
C19 C 0.7282(5) 0.2517(3) 0.0128(5)
C20 C 0.7524(6) 0.1068(3) 0.1901(5)
H10 H 0.7645 0.0705 0.1587
C21 C 0.7500(7) 0.1070(3) 0.2988(6)
H11 H 0.7483 0.0733 0.3404
C22 C 0.7503(4) 0.1682(2) 0.3414(4)
C23 C 0.7580(5) 0.2151(3) 0.2842(4)
H12 H 0.7718 0.2512 0.3159
C26 C 0.7694(7) 0.9619(4) 0.8168(6)
H14 H 0.7894 0.9536 0.8859
C27 C 0.7490(6) 0.9215(3) 0.7492(6)
H15 H 0.7719 0.8834 0.7622
C28 C 0.6907(4) 0.9339(3) 0.6518(5)
C31 C 0.5964(7) 0.9745(4) 0.4720(7)
H17 H 0.5701 0.9875 0.4075
C32 C 0.5965(7) 0.9106(4) 0.4931(6)
H18 H 0.5643 0.8824 0.4507
C33 C 0.6494(7) 0.8991(4) 0.5817(7)
C34 C 0.5822(6) 0.8044(4) 0.6234(6)
C35 C 0.7657(8) 0.8146(3) 0.5830(6)
C36 C 0.7763(6) 0.7533(4) 0.6021(6)
C37 C 0.8723(7) 0.7255(5) 0.5890(8)
H19 H 0.9267 0.7461 0.5563
C38 C 0.8890(7) 0.6756(7) 0.6180(9)
H20 H 0.9585 0.6635 0.6278
C39 C 0.8137(7) 0.6388(4) 0.6358(6)
C40 C 0.7150(6) 0.6608(4) 0.6571(6)
C41 C 0.6973(6) 0.7222(3) 0.6260(5)
C42 C 0.6044(6) 0.7405(4) 0.6384(6)
C43 C 0.5192(5) 0.7063(3) 0.6665(6)
H21 H 0.4516 0.7217 0.6737
C44 C 0.5405(7) 0.6491(4) 0.6828(7)
H22 H 0.4877 0.6249 0.7094
C45 C 0.6208(7) 0.6294(4) 0.6651(7)
C46 C 0.6350(11) 0.5575(5) 0.6661(10)
C47 C 0.8116(11) 0.5721(5) 0.6501(7)
C48 C 0.7640(6) 0.4776(4) 0.7134(6)
C49 C 0.8148(8) 0.4693(5) 0.8220(9)
H23 H 0.8243 0.5026 0.8636
C50 C 0.8527(17) 0.4079(9) 0.8692(16)
H24 H 0.8924 0.4006 0.9296
C51 C 0.8018(9) 0.3591(6) 0.7807(10)
H25 H 0.7882 0.3205 0.8002
C52 C 0.7775(3) 0.38183(18) 0.6612(3)
C53 C 0.7434(5) 0.4349(4) 0.6432(6)
C54 C 0.6965(7) 0.4501(4) 0.5418(7)
H26 H 0.6873 0.4888 0.5204
C55 C 0.6676(6) 0.4048(4) 0.4815(6)
H27 H 0.6280 0.4092 0.4202
C56 C 0.6969(9) 0.3579(6) 0.5132(8)
H28 H 0.6929 0.3295 0.4604
N2 N 0.6740(6) 0.8317(3) 0.5971(5)
N3 N 0.7474(6) 0.5425(4) 0.6762(6)
N4 N 0.7343(4) 0.3345(2) 0.6048(4)
O2 O 0.5851(4) 0.2385(3) 0.6196(5)
O4 O 0.7532(5) 0.2224(2) 0.4935(4)
O9 O 0.8395(5) 0.8429(3) 0.5553(5)
O10 O 0.5035(5) 0.8248(3) 0.6480(5)
O11 O 0.9228(6) 0.5497(3) 0.6589(5)
O12 O 0.5724(6) 0.5284(3) 0.7170(6)
Zn1 Zn 0.74788(6) 0.25128(3) 0.64107(5)
O16 O 0.7382(7) 0.2433(4) 0.7957(5)
O18 O 0.8998(4) 0.2312(2) 0.6508(5)
C13 C 0.7259(6) 0.1965(4) 0.8489(7)
C14 C 0.7339(7) 0.2038(4) 0.9468(7)
H7 H 0.7394 0.1094 0.9956
H9 H 0.7010 0.2846 0.9788
C24 C 0.9300(6) 0.1775(4) 0.6658(5)
C24_2 C 0.0700(6) 0.6775(4) 0.3342(5)
O7 O 0.1194(6) 0.6333(3) 0.3281(6)
O8 O 0.1002(4) 0.7312(2) 0.3492(5)
Zn4 Zn 0.25212(6) 0.75128(3) 0.35893(5)
Zn7 Zn 0.27113(6) 0.62329(3) 0.34110(6)
C25_2 C 0.2403(6) 0.5157(3) 0.2190(6)
H13_2 H 0.2160 0.5457 0.1754
C26_2 C 0.2306(7) 0.4619(4) 0.1832(6)
H14_2 H 0.2106 0.4536 0.1141
C27_2 C 0.2510(6) 0.4215(3) 0.2508(6)
H15_2 H 0.2281 0.3834 0.2378
C28_2 C 0.3093(4) 0.4339(3) 0.3482(5)
C29_2 C 0.3033(6) 0.5025(4) 0.3756(7)
C30_2 C 0.3699(5) 0.5125(3) 0.4633(6)
H16_2 H 0.3913 0.5511 0.4746
C31_2 C 0.4036(7) 0.4745(4) 0.5280(7)
H17_2 H 0.4299 0.4875 0.5925
C32_2 C 0.4035(7) 0.4106(4) 0.5069(6)
H18_2 H 0.4357 0.3824 0.5493
C33_2 C 0.3506(7) 0.3991(4) 0.4183(7)
C34_2 C 0.4178(6) 0.3044(4) 0.3766(6)
C35_2 C 0.2343(8) 0.3146(3) 0.4170(6)
C36_2 C 0.2237(6) 0.2533(4) 0.3979(6)
C37_2 C 0.1277(7) 0.2255(5) 0.4110(8)
H19_2 H 0.0733 0.2461 0.4437
C38_2 C 0.1110(7) 0.1756(7) 0.3820(9)
H20_2 H 0.0415 0.1635 0.3722
C39_2 C 0.1863(7) 0.1388(4) 0.3642(6)
C40_2 C 0.2850(6) 0.1608(4) 0.3429(6)
C41_2 C 0.3027(6) 0.2222(3) 0.3740(5)
C42_2 C 0.3956(6) 0.2405(4) 0.3616(6)
C43_2 C 0.4808(5) 0.2063(3) 0.3335(6)
H21_2 H 0.5484 0.2217 0.3263
C44_2 C 0.4595(7) 0.1491(4) 0.3172(7)
H22_2 H 0.5123 0.1249 0.2906
C45_2 C 0.3792(7) 0.1294(4) 0.3349(7)
C46_2 C 0.3650(11) 0.0575(5) 0.3339(10)
C47_2 C 0.1884(11) 0.0721(5) 0.3499(7)
H23_2 H 0.1757 0.0026 0.1364
N1_2 N 0.2807(5) 0.5315(3) 0.3097(5)
N2_2 N 0.3260(6) 0.3317(3) 0.4029(5)
N3_2 N 0.2526(6) 0.0425(4) 0.3238(6)
O9_2 O 0.1605(5) 0.3429(3) 0.4447(5)
O10_2 O 0.4965(5) 0.3248(3) 0.3520(5)
O11_2 O 0.0772(6) 0.0497(3) 0.3411(5)
O12_2 O 0.4276(6) 0.0284(3) 0.2830(6)
O13_2 O 0.4204(5) 0.6438(3) 0.3669(5)
O14_2 O 0.2456(5) 0.6308(3) 0.4945(4)
O15_2 O 0.2808(6) 0.6423(3) 0.1954(5)
C13_2 C 0.2741(6) 0.6965(4) 0.1511(7)
C14_2 C 0.2661(7) 0.7038(4) 0.0532(7)
H7_2 H 0.2606 0.6094 0.0044
H9_2 H 0.2990 0.7846 0.0212
O6 O 0.2618(7) 0.7433(4) 0.2043(5)
C1_2 C 0.4515(7) 0.6884(5) 0.3688(6)
C2_2 C 0.5735(4) 0.6977(3) 0.3607(5)
C3_2 C 0.6248(5) 0.6517(3) 0.3621(5)
H1_2 H 0.5914 0.6153 0.3646
C4_2 C 0.7472(5) 0.6567(3) 0.3594(5)
C5_2 C 0.7867(5) 0.7138(3) 0.3371(5)
C6_2 C 0.7167(5) 0.7662(3) 0.3435(4)
H2_2 H 0.7469 0.8034 0.3410
C7_2 C 0.6116(5) 0.7615(3) 0.3526(5)
H3_2 H 0.5663 0.7936 0.3539
C8_2 C 0.8088(6) 0.6090(3) 0.3560(6)
H4_2 H 0.7824 0.5712 0.3640
C9_2 C 0.9065(5) 0.6196(4) 0.3408(5)
H5_2 H 0.9490 0.5868 0.3300
C10_2 C 0.9597(6) 0.6753(4) 0.3383(6)
C11_2 C 0.8908(5) 0.7184(3) 0.3391(5)
H6_2 H 0.9182 0.7563 0.3413
C12_2 C 0.2386(6) 0.6739(3) 0.5406(6)
C15_2 C 0.2621(5) 0.6472(3) 0.9765(5)
C16_2 C 0.2613(5) 0.6551(3) 0.8808(6)
C17_2 C 0.2556(5) 0.7113(3) 0.8345(5)
C18_2 C 0.2494(5) 0.7619(2) 0.8927(5)
H8_2 H 0.2311 0.7985 0.8658
C19_2 C 0.2718(5) 0.7517(3) 0.9872(5)
C20_2 C 0.2476(6) 0.6068(3) 0.8099(5)
H10_2 H 0.2355 0.5705 0.8413
C21_2 C 0.2500(7) 0.6070(3) 0.7012(6)
H11_2 H 0.2517 0.5733 0.6596
C22_2 C 0.2497(4) 0.6682(2) 0.6586(4)
C23_2 C 0.2420(5) 0.7151(3) 0.7158(4)
H12_2 H 0.2282 0.7512 0.6841
C48_2 C 0.2360(6) 0.9776(4) 0.2866(6)
C49_2 C 0.1852(8) 0.9693(5) 0.1780(9)
C50_2 C 0.1473(17) 0.9079(9) 0.1308(16)
H24_2 H 0.1076 0.9006 0.0704
C51_2 C 0.1982(9) 0.8591(6) 0.2193(10)
H25_2 H 0.2118 0.8205 0.1998
C52_2 C 0.2225(3) 0.88183(18) 0.3388(3)
C53_2 C 0.2566(5) 0.9349(4) 0.3568(6)
C54_2 C 0.3035(7) 0.9501(4) 0.4582(7)
H26_2 H 0.3127 0.9888 0.4796
C55_2 C 0.3324(6) 0.9048(4) 0.5185(6)
H27_2 H 0.3720 0.9092 0.5798
C56_2 C 0.3031(9) 0.8579(6) 0.4868(8)
H28_2 H 0.3071 0.8295 0.5396
N4_2 N 0.2657(4) 0.8345(2) 0.3952(4)
O2_2 O 0.4149(4) 0.7385(3) 0.3804(5)
O4_2 O 0.2468(5) 0.7224(2) 0.5065(4)
loop_
_geom_bond_atom_site_label_1
_geom_bond_atom_site_label_2
_geom_bond_site_symmetry_1
_geom_bond_site_symmetry_2
C25 H13 1_555 1_555
C30 C29 1_555 1_555
H16 C30 1_555 1_555
N1 C25 1_555 1_555
Zn2 N1 1_555 1_555
O13 Zn2 1_555 1_555
O14 Zn2 1_555 1_555
O15 Zn2 1_555 1_555
O17 Zn2 1_555 1_555
C29 N1 1_555 1_555
C1 C2 1_555 1_555
C2 C3 1_555 1_555
C3 H1 1_555 1_555
C4 C3 1_555 1_555
C5 C4 1_555 1_555
C6 C5 1_555 1_555
H2 C6 1_555 1_555
C7 C2 1_555 1_555
H3 C7 1_555 1_555
C8 C4 1_555 1_555
H4 C8 1_555 1_555
C9 C8 1_555 1_555
H5 C9 1_555 1_555
C10 C9 1_555 1_555
C11 C5 1_555 1_555
H6 C11 1_555 1_555
C12 C22 1_555 1_555
C16 C15 1_555 1_555
C17 C16 1_555 1_555
C18 C17 1_555 1_555
H8 C18 1_555 1_555
C20 C16 1_555 1_555
H10 C20 1_555 1_555
C21 C20 1_555 1_555
H11 C21 1_555 1_555
C22 C21 1_555 1_555
C23 C17 1_555 1_555
H12 C23 1_555 1_555
H14 C26 1_555 1_555
C27 C26 1_555 1_555
H15 C27 1_555 1_555
C28 C27 1_555 1_555
H17 C31 1_555 1_555
C32 C31 1_555 1_555
H18 C32 1_555 1_555
C33 C28 1_555 1_555
C34 C42 1_555 1_555
C35 C36 1_555 1_555
C36 C37 1_555 1_555
C37 H19 1_555 1_555
C38 C37 1_555 1_555
H20 C38 1_555 1_555
C39 C38 1_555 1_555
C40 C39 1_555 1_555
C41 C36 1_555 1_555
C42 C41 1_555 1_555
C43 C42 1_555 1_555
H21 C43 1_555 1_555
C44 C43 1_555 1_555
H22 C44 1_555 1_555
C45 C40 1_555 1_555
C46 C45 1_555 1_555
C47 C39 1_555 1_555
C48 C49 1_555 1_555
C49 H23 1_555 1_555
C50 C49 1_555 1_555
H24 C50 1_555 1_555
C51 C50 1_555 1_555
H25 C51 1_555 1_555
C52 C51 1_555 1_555
C53 C48 1_555 1_555
C54 C53 1_555 1_555
H26 C54 1_555 1_555
C55 C54 1_555 1_555
H27 C55 1_555 1_555
C56 C55 1_555 1_555
H28 C56 1_555 1_555
N2 C33 1_555 1_555
N3 C46 1_555 1_555
N4 C52 1_555 1_555
O13 C1 1_555 1_555
O2 C1 1_555 1_555
O14 C12 1_555 1_555
O4 C12 1_555 1_555
O9 C35 1_555 1_555
O10 C34 1_555 1_555
O11 C47 1_555 1_555
O12 C46 1_555 1_555
Zn1 N4 1_555 1_555
O16 Zn1 1_555 1_555
O18 Zn1 1_555 1_555
C6 C7 1_555 1_555
C10 C11 1_555 1_555
C18 C19 1_555 1_555
C22 C23 1_555 1_555
C32 C33 1_555 1_555
C34 N2 1_555 1_555
C35 N2 1_555 1_555
C40 C41 1_555 1_555
C44 C45 1_555 1_555
C47 N3 1_555 1_555
C48 N3 1_555 1_555
C52 C53 1_555 1_555
C56 N4 1_555 1_555
O2 Zn1 1_555 1_555
O4 Zn1 1_555 1_555
C13 C14 1_555 1_555
O15 C13 1_555 1_555
O16 C13 1_555 1_555
O17 C24 1_555 1_555
O18 C24 1_555 1_555
O7 C24_2 1_555 1_555
O8 C24_2 1_555 1_555
Zn4 O8 1_555 1_555
Zn7 O7 1_555 1_555
C25_2 H13_2 1_555 1_555
C26_2 C25_2 1_555 1_555
H14_2 C26_2 1_555 1_555
C27_2 C26_2 1_555 1_555
H15_2 C27_2 1_555 1_555
C28_2 C27_2 1_555 1_555
C29_2 C28_2 1_555 1_555
C30_2 C29_2 1_555 1_555
H16_2 C30_2 1_555 1_555
C31_2 C30_2 1_555 1_555
H17_2 C31_2 1_555 1_555
C32_2 C31_2 1_555 1_555
H18_2 C32_2 1_555 1_555
C33_2 C28_2 1_555 1_555
C34_2 C42_2 1_555 1_555
C35_2 C36_2 1_555 1_555
C36_2 C37_2 1_555 1_555
C37_2 H19_2 1_555 1_555
C38_2 C37_2 1_555 1_555
H20_2 C38_2 1_555 1_555
C39_2 C38_2 1_555 1_555
C40_2 C39_2 1_555 1_555
C41_2 C36_2 1_555 1_555
C42_2 C41_2 1_555 1_555
C43_2 C42_2 1_555 1_555
H21_2 C43_2 1_555 1_555
C44_2 C43_2 1_555 1_555
H22_2 C44_2 1_555 1_555
C45_2 C40_2 1_555 1_555
C46_2 C45_2 1_555 1_555
C47_2 C39_2 1_555 1_555
N1_2 C25_2 1_555 1_555
N2_2 C33_2 1_555 1_555
N3_2 C46_2 1_555 1_555
O9_2 C35_2 1_555 1_555
O10_2 C34_2 1_555 1_555
O11_2 C47_2 1_555 1_555
O12_2 C46_2 1_555 1_555
Zn7 N1_2 1_555 1_555
O13_2 Zn7 1_555 1_555
O14_2 Zn7 1_555 1_555
O15_2 Zn7 1_555 1_555
C29_2 N1_2 1_555 1_555
C32_2 C33_2 1_555 1_555
C34_2 N2_2 1_555 1_555
C35_2 N2_2 1_555 1_555
C40_2 C41_2 1_555 1_555
C44_2 C45_2 1_555 1_555
C47_2 N3_2 1_555 1_555
C13_2 C14_2 1_555 1_555
O15_2 C13_2 1_555 1_555
O6 C13_2 1_555 1_555
Zn4 O6 1_555 1_555
C1_2 C2_2 1_555 1_555
C2_2 C3_2 1_555 1_555
C3_2 H1_2 1_555 1_555
C4_2 C3_2 1_555 1_555
C5_2 C4_2 1_555 1_555
C6_2 C5_2 1_555 1_555
H2_2 C6_2 1_555 1_555
C7_2 C2_2 1_555 1_555
H3_2 C7_2 1_555 1_555
C8_2 C4_2 1_555 1_555
H4_2 C8_2 1_555 1_555
C9_2 C8_2 1_555 1_555
H5_2 C9_2 1_555 1_555
C10_2 C9_2 1_555 1_555
C11_2 C5_2 1_555 1_555
H6_2 C11_2 1_555 1_555
C12_2 C22_2 1_555 1_555
C16_2 C15_2 1_555 1_555
C17_2 C16_2 1_555 1_555
C18_2 C17_2 1_555 1_555
H8_2 C18_2 1_555 1_555
C20_2 C16_2 1_555 1_555
H10_2 C20_2 1_555 1_555
C21_2 C20_2 1_555 1_555
H11_2 C21_2 1_555 1_555
C22_2 C21_2 1_555 1_555
C23_2 C17_2 1_555 1_555
H12_2 C23_2 1_555 1_555
C48_2 C49_2 1_555 1_555
C50_2 C49_2 1_555 1_555
H24_2 C50_2 1_555 1_555
C51_2 C50_2 1_555 1_555
H25_2 C51_2 1_555 1_555
C52_2 C51_2 1_555 1_555
C53_2 C48_2 1_555 1_555
C54_2 C53_2 1_555 1_555
H26_2 C54_2 1_555 1_555
C55_2 C54_2 1_555 1_555
H27_2 C55_2 1_555 1_555
C56_2 C55_2 1_555 1_555
H28_2 C56_2 1_555 1_555
N4_2 C52_2 1_555 1_555
O13_2 C1_2 1_555 1_555
O2_2 C1_2 1_555 1_555
O14_2 C12_2 1_555 1_555
O4_2 C12_2 1_555 1_555
Zn4 N4_2 1_555 1_555
C6_2 C7_2 1_555 1_555
C10_2 C11_2 1_555 1_555
C18_2 C19_2 1_555 1_555
C22_2 C23_2 1_555 1_555
C52_2 C53_2 1_555 1_555
C56_2 N4_2 1_555 1_555
O2_2 Zn4 1_555 1_555
O4_2 Zn4 1_555 1_555

#END
