
###############################################################################
#
# This file contains modified crystal structure data generated from the
# MOF subset of the Cambridge Structural Database (CSD) v543 
# hosted by the Cambridge Crystallographic Data Centre (CCDC).
#
# This work is licensed under the Creative Commons
# Attribution-NonCommercial-ShareAlike 4.0 International License.
# To view a copy of this license, visit
# http://creativecommons.org/licenses/by-nc-sa/4.0/
# or send a letter to
# Creative Commons, PO Box 1866, Mountain View, CA 94042, USA.
#
# CIF created using the CSD Python API on 29 September 2022
# The structure has been converted into the P1 space group
# The structure has a 3D framework
# The original CSD entry COHFEN is in the triclinic crystal system
# The framework has been calculated to contain at least 10.0% void space
# The void calculation uses a probe of radius 1.32A, grid spacing 0.4
#
###############################################################################

data_COHFEN
_chemical_formula_moiety         '(C56 H48 Cu12 N26 O132 P4 W36)n'
_symmetry_cell_setting           triclinic
_symmetry_space_group_name_H-M   'P 1'
_symmetry_Int_Tables_number      1
_space_group_name_Hall           'P 1'
loop_
_symmetry_equiv_pos_site_id
_symmetry_equiv_pos_as_xyz
1 x,y,z
_cell_length_a                   13.136(4)
_cell_length_b                   17.177(5)
_cell_length_c                   20.598(7)
_cell_angle_alpha                89.288(6)
_cell_angle_beta                 87.601(6)
_cell_angle_gamma                70.447(6)
_cell_volume                     4375.81
loop_
_atom_site_label
_atom_site_type_symbol
_atom_site_fract_x
_atom_site_fract_y
_atom_site_fract_z
_atom_site_U_iso_or_equiv
_atom_site_thermal_displace_type
O133 O 0.260(2) 0.6895(16) 0.0451(14) 0.0280 Uiso
Cu6 Cu 0.3154(4) 0.6777(3) 0.9435(3) 0.0318 Uani
C20 C 0.104(4) 0.699(3) 0.901(3) 0.0510 Uiso
H16 H 0.138938 0.645288 0.886967 0.0610 Uiso
C21 C 0.004(3) 0.851(2) 0.9257(19) 0.0220 Uiso
C22 C 0.120(3) 0.819(2) 0.928(2) 0.0260 Uiso
H18 H 0.162313 0.851984 0.935100 0.0310 Uiso
C23 C 0.356(5) 0.493(4) 0.960(3) 0.0710 Uiso
H19 H 0.293221 0.505870 0.985837 0.0850 Uiso
C24 C 0.419(4) 0.416(3) 0.950(3) 0.0420 Uiso
H20 H 0.412289 0.377818 0.981100 0.0510 Uiso
C25 C 0.461(4) 0.532(3) 0.874(3) 0.0490 Uiso
H21 H 0.472640 0.570741 0.845393 0.0580 Uiso
C26 C 0.513(3) 0.447(2) 0.865(2) 0.0240 Uiso
H22 H 0.567057 0.430591 0.831998 0.0290 Uiso
N10 N 0.162(3) 0.7356(19) 0.9189(16) 0.0230 Uiso
N11 N 0.391(3) 0.557(2) 0.9270(17) 0.0260 Uiso
N12 N 0.491(3) 0.387(2) 0.901(2) 0.0410 Uiso
Cu20 Cu 0.5672(5) 0.2761(3) 0.8880(3) 0.0381 Uani
O145 O 0.4508(18) 0.7233(13) 0.9325(11) 0.0070 Uiso
C15 C 0.698(4) 0.037(3) 0.956(3) 0.0520 Uiso
H11 H 0.707742 0.013880 0.997697 0.0620 Uiso
C16 C 0.649(4) 0.124(3) 0.952(2) 0.0340 Uiso
H12 H 0.628974 0.154848 0.989699 0.0410 Uiso
C17 C 0.728(3) 0.030(2) 0.849(2) 0.0210 Uiso
H13 H 0.763451 0.002218 0.812175 0.0250 Uiso
C18 C 0.673(4) 0.113(3) 0.846(2) 0.0350 Uiso
H14 H 0.664149 0.136575 0.804772 0.0420 Uiso
N8 N 0.632(3) 0.1630(19) 0.8970(17) 0.0220 Uiso
O137 O 0.734(2) 0.8455(17) 0.0067(14) 0.0300 Uiso
W1 W 0.18714(12) 0.68057(9) 0.11294(9) 0.0184 Uani
W3 W 0.25007(12) 0.69350(10) 0.26815(9) 0.0204 Uani
W4 W 0.10360(13) 0.62271(10) 0.39845(9) 0.0221 Uani
W6 W 0.08459(13) 0.40011(9) 0.25468(9) 0.0220 Uani
W11 W 0.29082(13) 0.46905(10) 0.28598(10) 0.0251 Uani
W12 W 0.05190(14) 0.90971(10) 0.28046(9) 0.0240 Uani
W13 W 0.21914(14) 0.45878(9) 0.13152(9) 0.0233 Uani
Cu3 Cu 0.1023(4) 0.6265(3) 0.5682(3) 0.0353 Uani
Cu4 Cu 0.4454(4) 0.7394(3) 0.7425(3) 0.0300 Uani
Cu5 Cu 0.7841(4) 0.8659(3) 0.9111(3) 0.0302 Uani
P1 P 0.0429(7) 0.6135(5) 0.2345(5) 0.0099 Uani
O3 O 0.357(2) 0.7085(16) 0.2988(13) 0.0250 Uiso
O4 O 0.163(2) 0.6154(17) 0.4734(14) 0.0300 Uiso
O6 O 0.074(3) 0.3032(18) 0.2687(15) 0.0390 Uiso
O10 O 0.027(3) 0.9423(19) 0.0600(16) 0.0410 Uiso
O11 O 0.408(2) 0.4193(17) 0.3222(14) 0.0300 Uiso
O12 O 0.133(2) 0.9569(17) 0.3150(14) 0.0300 Uiso
O13 O 0.303(3) 0.3999(19) 0.0703(16) 0.0440 Uiso
O21 O 0.006(2) 0.4595(14) 0.3265(12) 0.0170 Uiso
O22 O 0.0099(18) 0.5675(13) 0.4194(11) 0.0080 Uiso
O23 O 0.239(2) 0.5613(16) 0.1205(13) 0.0250 Uiso
O24 O 0.064(2) 0.6703(15) 0.0777(13) 0.0210 Uiso
O27 O 0.281(2) 0.6957(16) 0.1787(13) 0.0230 Uiso
O29 O 0.170(2) 0.6823(14) 0.3472(12) 0.0160 Uiso
O31 O 0.218(2) 0.3879(16) 0.2946(14) 0.0250 Uiso
O32 O 0.056(2) 0.9395(15) 0.1923(13) 0.0180 Uiso
O37 O 0.010(2) 0.8549(16) 0.3560(13) 0.0240 Uiso
O39 O 0.101(2) 0.7929(17) 0.1259(14) 0.0300 Uiso
O42 O 0.111(2) 0.6687(15) 0.2138(12) 0.0170 Uiso
O45 O 0.169(2) 0.3812(16) 0.1706(13) 0.0240 Uiso
O46 O 0.160(2) 0.8052(17) 0.2607(15) 0.0330 Uiso
O48 O 0.090(2) 0.5120(15) 0.0932(13) 0.0200 Uiso
O49 O 0.202(2) 0.5270(17) 0.3579(14) 0.0290 Uiso
O52 O 0.0055(19) 0.6282(14) 0.3065(12) 0.0140 Uiso
O53 O 0.328(2) 0.4306(17) 0.1956(14) 0.0300 Uiso
O57 O 0.302(2) 0.5721(14) 0.2652(12) 0.0170 Uiso
O62 O 0.126(2) 0.5205(15) 0.2293(13) 0.0210 Uiso
O63 O 0.481(2) 0.7670(17) 0.6536(14) 0.0300 Uiso
O64 O 0.453(2) 0.7480(16) 0.5504(14) 0.0260 Uiso
O65 O 0.408(2) 0.7186(16) 0.8273(14) 0.0280 Uiso
C5 C 0.199(4) 0.641(3) 0.690(3) 0.0450 Uiso
H5 H 0.155279 0.615594 0.711404 0.0540 Uiso
C6 C 0.265(4) 0.671(3) 0.719(3) 0.0460 Uiso
H6 H 0.256860 0.670631 0.763830 0.0550 Uiso
C7 C 0.283(4) 0.687(3) 0.597(2) 0.0360 Uiso
H7 H 0.288532 0.695319 0.552337 0.0440 Uiso
C8 C 0.348(3) 0.708(2) 0.6387(18) 0.0090 Uiso
C9 C 0.433(3) 0.746(2) 0.611(2) 0.0250 Uiso
C10 C 0.546(3) 0.767(2) 0.8522(18) 0.0090 Uiso
C11 C 0.618(3) 0.792(2) 0.890(2) 0.0160 Uiso
H8 H 0.612170 0.791373 0.934813 0.0190 Uiso
C12 C 0.631(3) 0.798(2) 0.755(2) 0.0290 Uiso
H9 H 0.640372 0.797293 0.709555 0.0350 Uiso
C13 C 0.698(5) 0.824(3) 0.795(3) 0.0560 Uiso
H10 H 0.746442 0.846350 0.775966 0.0670 Uiso
C14 C 0.461(3) 0.730(2) 0.875(2) 0.0190 Uiso
C19 C 0.986(4) 0.730(3) 0.899(2) 0.0300 Uiso
H15 H 0.944793 0.696448 0.891199 0.0360 Uiso
H17 H 0.971862 0.906738 0.936135 0.0260 Uiso
N3 N 0.206(3) 0.654(2) 0.624(2) 0.0470 Uiso
N4 N 0.340(3) 0.7006(19) 0.6990(17) 0.0230 Uiso
N5 N 0.551(2) 0.7749(18) 0.7866(16) 0.0170 Uiso
N6 N 0.695(3) 0.817(2) 0.859(2) 0.0360 Uiso
N7 N 0.732(3) 0.987(2) 0.9058(18) 0.0280 Uiso
N9 N 0.943(3) 0.815(2) 0.9117(19) 0.0350 Uiso
Cu13 Cu 0.5722(5) 0.8002(3) 0.5421(4) 0.0471 Uani
Cu17 Cu 0.4328(5) 0.7239(3) 0.1120(3) 0.0381 Uani
O136 O 0.157(2) 0.4912(16) 0.5862(14) 0.0290 Uiso
O73 O 0.037(2) 0.4014(18) 0.0092(15) 0.0370 Uiso
Cu24 Cu 0.2159(4) 0.1341(3) 0.0889(3) 0.0302 Uani
W15 W 0.71024(14) 0.02677(10) 0.16747(9) 0.0254 Uani
W18 W 0.76846(15) 0.03434(10) 0.32527(10) 0.0294 Uani
O15 O 0.664(3) 0.1040(19) 0.1120(16) 0.0400 Uiso
O17 O 0.435(3) 0.0070(19) 0.3062(16) 0.0420 Uiso
O18 O 0.766(2) 0.1164(17) 0.3713(15) 0.0330 Uiso
O34 O 0.725(2) 0.0867(14) 0.2409(12) 0.0160 Uiso
O47 O 0.628(2) 0.0348(16) 0.3331(13) 0.0230 Uiso
O58 O 0.582(3) 0.0341(19) 0.2123(16) 0.0430 Uiso
C29 C 0.583(5) 0.043(3) 0.490(3) 0.0570 Uiso
H25 H 0.633387 0.070300 0.484078 0.0680 Uiso
C30 C 0.390(6) 0.044(4) 0.490(3) 0.0800 Uiso
H26 H 0.317560 0.074487 0.484681 0.0930 Uiso
N14 N 0.465(3) 0.081(2) 0.4795(17) 0.0280 Uiso
W20 W 0.10438(13) 0.43905(9) 0.63750(9) 0.0195 Uani
W23 W 0.23367(13) 0.17627(10) 0.91213(9) 0.0215 Uani
W25 W 0.03552(13) 0.39150(9) 0.92761(9) 0.0203 Uani
W26 W 0.16931(13) 0.45529(10) 0.80817(9) 0.0220 Uani
W27 W 0.30232(13) 0.22291(10) 0.62303(9) 0.0228 Uani
W28 W 0.00815(13) 0.10335(9) 0.87509(9) 0.0208 Uani
W32 W 0.09423(14) 0.16092(10) 0.58792(9) 0.0248 Uani
W34 W 0.36659(13) 0.23944(10) 0.79206(9) 0.0228 Uani
W35 W 0.43561(14) 0.03229(10) 0.71492(10) 0.0294 Uani
Cu7 Cu 0.4278(5) 0.1998(3) 0.4579(4) 0.0471 Uani
P4 P 0.1653(7) 0.1591(5) 0.7512(5) 0.0117 Uani
O71 O 0.266(2) 0.1545(17) 0.9933(14) 0.0300 Uiso
O74 O 0.254(2) 0.5099(15) 0.8099(13) 0.0190 Uiso
O75 O 0.393(3) 0.2429(19) 0.5707(16) 0.0420 Uiso
O80 O 0.060(3) 0.1316(18) 0.5146(15) 0.0390 Uiso
O82 O 0.485(2) 0.2600(18) 0.7931(15) 0.0350 Uiso
O85 O 0.3537(19) 0.2042(14) 0.8797(12) 0.0140 Uiso
O86 O 0.193(2) 0.3325(14) 0.6174(12) 0.0160 Uiso
O91 O 0.132(2) 0.4480(15) 0.8991(13) 0.0190 Uiso
O92 O 0.0512(19) 0.1543(14) 0.7726(12) 0.0140 Uiso
O94 O 0.141(2) 0.0114(15) 0.8530(13) 0.0220 Uiso
O96 O 0.089(2) 0.0049(15) 0.7037(13) 0.0230 Uiso
O99 O 0.040(2) 0.5480(14) 0.7957(12) 0.0160 Uiso
O101 O 0.191(2) 0.0527(14) 0.6150(12) 0.0160 Uiso
O102 O 0.103(2) 0.1549(15) 0.9131(12) 0.0180 Uiso
O104 O 0.045(2) 0.3819(15) 0.8138(13) 0.0200 Uiso
O106 O 0.332(2) 0.2585(15) 0.7029(13) 0.0220 Uiso
O107 O 0.382(2) 0.1158(16) 0.6503(13) 0.0240 Uiso
O109 O 0.222(2) 0.1866(14) 0.5626(12) 0.0160 Uiso
O110 O 0.428(2) 0.1217(15) 0.7649(13) 0.0220 Uiso
O116 O 0.2978(19) 0.0654(14) 0.8763(12) 0.0140 Uiso
O117 O 0.158(2) 0.2003(16) 0.6836(14) 0.0270 Uiso
O120 O 0.2084(19) 0.2017(14) 0.7994(12) 0.0140 Uiso
O121 O 0.172(2) 0.4377(16) 0.7134(13) 0.0240 Uiso
O122 O 0.267(2) 0.3434(16) 0.8135(14) 0.0270 Uiso
O125 O 0.152(2) 0.2863(16) 0.9193(13) 0.0240 Uiso
O126 O 0.015(2) 0.2734(16) 0.5855(14) 0.0260 Uiso
O127 O 0.245(2) 0.0682(16) 0.7478(13) 0.0240 Uiso
C31 C 0.216(3) 0.218(2) 0.407(2) 0.0210 Uiso
H27 H 0.249428 0.166359 0.388215 0.0260 Uiso
C32 C 0.104(4) 0.249(3) 0.408(2) 0.0300 Uiso
H28 H 0.063560 0.217894 0.394393 0.0360 Uiso
C33 C 0.226(3) 0.344(2) 0.4518(19) 0.0180 Uiso
H29 H 0.264729 0.377606 0.463800 0.0210 Uiso
C34 C 0.110(3) 0.375(3) 0.454(2) 0.0290 Uiso
H30 H 0.072650 0.426915 0.471374 0.0350 Uiso
N15 N 0.284(3) 0.260(2) 0.431(2) 0.0400 Uiso
N16 N 0.056(3) 0.3270(19) 0.4312(16) 0.0210 Uiso
O140 O 0.719(2) 0.3043(16) 0.8213(13) 0.0230 Uiso
O142 O 0.519(2) 0.2330(17) 0.3464(14) 0.0300 Uiso
O144 O 0.547(2) 0.2520(16) 0.4496(14) 0.0260 Uiso
W2 W 0.89562(13) 0.56095(9) 0.36250(9) 0.0195 Uani
W5 W 0.76633(13) 0.82373(10) 0.08787(9) 0.0215 Uani
W7 W 0.96448(13) 0.60850(9) 0.07239(9) 0.0203 Uani
W8 W 0.83069(13) 0.54471(10) 0.19183(9) 0.0220 Uani
W9 W 0.69768(13) 0.77709(10) 0.37697(9) 0.0228 Uani
W10 W 0.99185(13) 0.89665(9) 0.12491(9) 0.0208 Uani
W14 W 0.90577(14) 0.83908(10) 0.41208(9) 0.0248 Uani
W16 W 0.63341(13) 0.76056(10) 0.20794(9) 0.0228 Uani
W17 W 0.56439(14) 0.96771(10) 0.28508(10) 0.0294 Uani
P2 P 0.8347(7) 0.8409(5) 0.2488(5) 0.0117 Uani
O2 O 0.843(2) 0.5088(16) 0.4138(14) 0.0290 Uiso
O8 O 0.746(2) 0.4901(15) 0.1901(13) 0.0190 Uiso
O9 O 0.607(3) 0.7571(19) 0.4293(16) 0.0420 Uiso
O14 O 0.940(3) 0.8684(18) 0.4854(15) 0.0390 Uiso
O16 O 0.515(2) 0.7400(18) 0.2069(15) 0.0350 Uiso
O19 O 0.6463(19) 0.7958(14) 0.1203(12) 0.0140 Uiso
O20 O 0.807(2) 0.6675(14) 0.3826(12) 0.0160 Uiso
O25 O 0.868(2) 0.5520(15) 0.1009(13) 0.0190 Uiso
O26 O 0.9488(19) 0.8457(14) 0.2274(12) 0.0140 Uiso
O28 O 0.859(2) 0.9886(15) 0.1470(13) 0.0220 Uiso
O30 O 0.911(2) 0.9951(15) 0.2963(13) 0.0230 Uiso
O33 O 0.960(2) 0.4520(14) 0.2043(12) 0.0160 Uiso
O35 O 0.809(2) 0.9473(14) 0.3850(12) 0.0160 Uiso
O36 O 0.897(2) 0.8451(15) 0.0869(12) 0.0180 Uiso
O38 O 0.955(2) 0.6181(15) 0.1862(13) 0.0200 Uiso
O40 O 0.668(2) 0.7415(15) 0.2971(13) 0.0220 Uiso
O41 O 0.618(2) 0.8842(16) 0.3497(13) 0.0240 Uiso
O43 O 0.778(2) 0.8134(14) 0.4374(12) 0.0160 Uiso
O44 O 0.572(2) 0.8783(15) 0.2351(13) 0.0220 Uiso
O50 O 0.7022(19) 0.9346(14) 0.1237(12) 0.0140 Uiso
O51 O 0.842(2) 0.7997(16) 0.3164(14) 0.0270 Uiso
O54 O 0.7916(19) 0.7983(14) 0.2006(12) 0.0140 Uiso
O55 O 0.828(2) 0.5623(16) 0.2866(13) 0.0240 Uiso
O56 O 0.733(2) 0.6566(16) 0.1865(14) 0.0270 Uiso
O59 O 0.848(2) 0.7137(16) 0.0807(13) 0.0240 Uiso
O60 O 0.985(2) 0.7266(16) 0.4145(14) 0.0260 Uiso
O61 O 0.755(2) 0.9318(16) 0.2522(13) 0.0240 Uiso
C1 C 0.784(3) 0.782(2) 0.593(2) 0.0210 Uiso
H1 H 0.750572 0.833641 0.611785 0.0260 Uiso
C2 C 0.896(4) 0.751(3) 0.592(2) 0.0300 Uiso
H2 H 0.936440 0.782106 0.605607 0.0360 Uiso
C3 C 0.774(3) 0.656(2) 0.5482(19) 0.0180 Uiso
H3 H 0.735271 0.622394 0.536200 0.0210 Uiso
C4 C 0.890(3) 0.625(3) 0.546(2) 0.0290 Uiso
H4 H 0.927350 0.573085 0.528626 0.0350 Uiso
C27 C 0.417(5) 0.957(3) 0.510(3) 0.0570 Uiso
H23 H 0.366613 0.929700 0.515922 0.0680 Uiso
C28 C 0.610(6) 0.956(4) 0.510(3) 0.0800 Uiso
H24 H 0.682440 0.925513 0.515319 0.0930 Uiso
N1 N 0.716(3) 0.740(2) 0.569(2) 0.0400 Uiso
N2 N 0.944(3) 0.6730(19) 0.5688(16) 0.0210 Uiso
N13 N 0.535(3) 0.919(2) 0.5205(17) 0.0280 Uiso
W33 W 0.28976(14) 0.97323(10) 0.83253(9) 0.0254 Uani
W36 W 0.23154(15) 0.96566(10) 0.67473(10) 0.0294 Uani
O81 O 0.336(3) 0.8960(19) 0.8880(16) 0.0400 Uiso
O83 O 0.565(3) 0.9930(19) 0.6938(16) 0.0420 Uiso
O84 O 0.234(2) 0.8836(17) 0.6287(15) 0.0330 Uiso
O100 O 0.275(2) 0.9133(14) 0.7591(12) 0.0160 Uiso
O113 O 0.372(2) 0.9652(16) 0.6669(13) 0.0230 Uiso
O124 O 0.418(3) 0.9659(19) 0.7877(16) 0.0430 Uiso
Cu22 Cu 0.8977(4) 0.3735(3) 0.4318(3) 0.0353 Uani
N28 N 0.368(3) 0.8370(19) 0.1030(17) 0.0220 Uiso
N30 N 0.509(3) 0.613(2) 0.099(2) 0.0410 Uiso
O7 O 0.963(2) 0.5986(18) 0.9908(15) 0.0370 Uiso
Cu28 Cu 0.6846(4) 0.3223(3) 0.0565(3) 0.0318 Uani
W19 W 0.81286(12) 0.31943(9) 0.88706(9) 0.0184 Uani
W21 W 0.74993(12) 0.30650(10) 0.73185(9) 0.0204 Uani
W22 W 0.89640(13) 0.37729(10) 0.60155(9) 0.0221 Uani
W24 W 0.91541(13) 0.59989(9) 0.74532(9) 0.0220 Uani
W29 W 0.70918(13) 0.53095(10) 0.71402(10) 0.0251 Uani
W30 W 0.94810(14) 0.09029(10) 0.71954(9) 0.0240 Uani
W31 W 0.78086(14) 0.54122(9) 0.86848(9) 0.0233 Uani
Cu10 Cu 0.5546(4) 0.2606(3) 0.2575(3) 0.0300 Uani
P3 P 0.9571(7) 0.3865(5) 0.7655(5) 0.0099 Uani
O67 O 0.740(2) 0.3105(16) 0.9549(14) 0.0280 Uiso
O69 O 0.643(2) 0.2915(16) 0.7012(13) 0.0250 Uiso
O70 O 0.837(2) 0.3846(17) 0.5266(14) 0.0300 Uiso
O72 O 0.926(3) 0.6968(18) 0.7313(15) 0.0390 Uiso
O76 O 0.973(3) 0.0577(19) 0.9400(16) 0.0410 Uiso
O77 O 0.592(2) 0.5807(17) 0.6778(14) 0.0300 Uiso
O78 O 0.867(2) 0.0431(17) 0.6850(14) 0.0300 Uiso
O79 O 0.697(3) 0.6001(19) 0.9297(16) 0.0440 Uiso
O87 O 0.994(2) 0.5405(14) 0.6735(12) 0.0170 Uiso
O88 O 0.9901(18) 0.4325(13) 0.5806(11) 0.0080 Uiso
O89 O 0.761(2) 0.4387(16) 0.8795(13) 0.0250 Uiso
O90 O 0.936(2) 0.3297(15) 0.9223(13) 0.0210 Uiso
O95 O 0.830(2) 0.3177(14) 0.6528(12) 0.0160 Uiso
O97 O 0.782(2) 0.6121(16) 0.7054(14) 0.0250 Uiso
O98 O 0.944(2) 0.0605(15) 0.8077(13) 0.0180 Uiso
O103 O 0.990(2) 0.1451(16) 0.6440(13) 0.0240 Uiso
O105 O 0.899(2) 0.2071(17) 0.8741(14) 0.0300 Uiso
O108 O 0.889(2) 0.3313(15) 0.7862(12) 0.0170 Uiso
O111 O 0.831(2) 0.6188(16) 0.8294(13) 0.0240 Uiso
O112 O 0.840(2) 0.1948(17) 0.7393(15) 0.0330 Uiso
O114 O 0.910(2) 0.4880(15) 0.9068(13) 0.0200 Uiso
O115 O 0.798(2) 0.4730(17) 0.6421(14) 0.0290 Uiso
O118 O 0.9945(19) 0.3718(14) 0.6935(12) 0.0140 Uiso
O119 O 0.672(2) 0.5694(17) 0.8044(14) 0.0300 Uiso
O123 O 0.698(2) 0.4279(14) 0.7348(12) 0.0170 Uiso
O128 O 0.874(2) 0.4795(15) 0.7707(13) 0.0210 Uiso
O131 O 0.592(2) 0.2814(16) 0.1727(14) 0.0280 Uiso
O132 O 0.5492(18) 0.2767(13) 0.0675(11) 0.0070 Uiso
C35 C 0.801(4) 0.359(3) 0.310(3) 0.0450 Uiso
H31 H 0.844721 0.384406 0.288596 0.0540 Uiso
C36 C 0.735(4) 0.329(3) 0.281(3) 0.0460 Uiso
H32 H 0.743140 0.329369 0.236170 0.0550 Uiso
C37 C 0.717(4) 0.313(3) 0.403(2) 0.0360 Uiso
H33 H 0.711468 0.304681 0.447663 0.0440 Uiso
C38 C 0.652(3) 0.292(2) 0.3613(18) 0.0090 Uiso
C39 C 0.567(3) 0.254(2) 0.389(2) 0.0250 Uiso
C40 C 0.454(3) 0.233(2) 0.1478(18) 0.0090 Uiso
C41 C 0.382(3) 0.208(2) 0.110(2) 0.0160 Uiso
H34 H 0.387830 0.208627 0.065187 0.0190 Uiso
C42 C 0.369(3) 0.202(2) 0.245(2) 0.0290 Uiso
H35 H 0.359628 0.202707 0.290445 0.0350 Uiso
C43 C 0.302(5) 0.176(3) 0.205(3) 0.0560 Uiso
H36 H 0.253558 0.153650 0.224034 0.0670 Uiso
C44 C 0.539(3) 0.270(2) 0.125(2) 0.0190 Uiso
C49 C 0.014(4) 0.270(3) 0.101(2) 0.0300 Uiso
H41 H 0.055207 0.303552 0.108801 0.0360 Uiso
H43 H 0.028138 0.093262 0.063865 0.0260 Uiso
N17 N 0.794(3) 0.346(2) 0.376(2) 0.0470 Uiso
N18 N 0.660(3) 0.2994(19) 0.3010(17) 0.0230 Uiso
N19 N 0.449(2) 0.2251(18) 0.2134(16) 0.0170 Uiso
N20 N 0.305(3) 0.183(2) 0.141(2) 0.0360 Uiso
N21 N 0.268(3) 0.013(2) 0.0942(18) 0.0280 Uiso
N23 N 0.057(3) 0.185(2) 0.0883(19) 0.0350 Uiso
C45 C 0.302(4) 0.963(3) 0.044(3) 0.0520 Uiso
H37 H 0.292258 0.986120 0.002303 0.0620 Uiso
C46 C 0.351(4) 0.876(3) 0.048(2) 0.0340 Uiso
H38 H 0.371026 0.845152 0.010301 0.0410 Uiso
C47 C 0.272(3) 0.970(2) 0.151(2) 0.0210 Uiso
H39 H 0.236549 0.997782 0.187825 0.0250 Uiso
C48 C 0.327(4) 0.887(3) 0.154(2) 0.0350 Uiso
H40 H 0.335851 0.863425 0.195228 0.0420 Uiso
C50 C 0.896(4) 0.301(3) 0.099(3) 0.0510 Uiso
H42 H 0.861062 0.354712 0.113033 0.0610 Uiso
C51 C 0.996(3) 0.149(2) 0.0743(19) 0.0220 Uiso
C52 C 0.880(3) 0.181(2) 0.072(2) 0.0260 Uiso
H44 H 0.837687 0.148016 0.064900 0.0310 Uiso
C53 C 0.644(5) 0.507(4) 0.040(3) 0.0710 Uiso
H45 H 0.706779 0.494130 0.014163 0.0850 Uiso
C54 C 0.581(4) 0.584(3) 0.050(3) 0.0420 Uiso
H46 H 0.587711 0.622182 0.018900 0.0510 Uiso
C55 C 0.539(4) 0.468(3) 0.126(3) 0.0490 Uiso
H47 H 0.527360 0.429259 0.154607 0.0580 Uiso
C56 C 0.487(3) 0.553(2) 0.135(2) 0.0240 Uiso
H48 H 0.432943 0.569409 0.168002 0.0290 Uiso
N24 N 0.838(3) 0.2644(19) 0.0811(16) 0.0230 Uiso
N25 N 0.609(3) 0.443(2) 0.0730(17) 0.0260 Uiso
loop_
_atom_site_aniso_label
_atom_site_aniso_U_11
_atom_site_aniso_U_22
_atom_site_aniso_U_33
_atom_site_aniso_U_23
_atom_site_aniso_U_13
_atom_site_aniso_U_12
Cu6 0.017 0.021 0.052 0.003 -0.003 0.001
Cu20 0.028 0.01 0.07 0.003 -0.002 0.002
W1 0.0111 0.0145 0.0289 0.0041 -0.0065 -0.0029
W3 0.0101 0.0191 0.0325 0.0021 -0.0083 -0.0046
W4 0.0141 0.0233 0.0274 0.0079 -0.0096 -0.0035
W6 0.0178 0.0099 0.0362 0.0044 -0.0026 -0.0017
W11 0.0098 0.0156 0.0446 0.0057 -0.0088 0.0035
W12 0.0191 0.0162 0.0377 0 -0.0082 -0.0065
W13 0.0196 0.0104 0.035 0.0018 0.0015 0.0013
Cu3 0.019 0.034 0.056 0.01 -0.014 -0.012
Cu4 0.018 0.039 0.042 0.007 -0.014 -0.02
Cu5 0.022 0.018 0.051 0.005 -0.013 -0.006
P1 0.006 0.013 0.014 0.002 -0.005 -0.007
Cu13 0.021 0.023 0.093 0.014 -0.004 -0.002
Cu17 0.028 0.01 0.07 0.003 -0.002 0.002
Cu24 0.022 0.018 0.051 0.005 -0.013 -0.006
W15 0.0192 0.0126 0.0386 0.0065 -0.0086 0.0029
W18 0.0248 0.0116 0.0441 -0.0015 -0.0068 0.005
W20 0.0137 0.0135 0.0299 0.0065 -0.0055 -0.0023
W23 0.016 0.0165 0.0309 0.0064 -0.012 -0.003
W25 0.0175 0.0164 0.028 0.0003 -0.0079 -0.006
W26 0.0146 0.0183 0.0357 0.0061 -0.0114 -0.008
W27 0.0131 0.0187 0.0326 0.003 -0.0036 0
W28 0.0141 0.0133 0.0339 0.007 -0.0062 -0.0028
W32 0.0208 0.0216 0.0295 0.0009 -0.0082 -0.0029
W34 0.0113 0.0208 0.036 0.0082 -0.0108 -0.0041
W35 0.0135 0.0167 0.0496 0.0052 -0.003 0.0062
Cu7 0.021 0.023 0.093 0.014 -0.004 -0.002
P4 0.011 0.005 0.017 -0.002 -0.006 0.001
W2 0.0137 0.0135 0.0299 0.0065 -0.0055 -0.0023
W5 0.016 0.0165 0.0309 0.0064 -0.012 -0.003
W7 0.0175 0.0164 0.028 0.0003 -0.0079 -0.006
W8 0.0146 0.0183 0.0357 0.0061 -0.0114 -0.008
W9 0.0131 0.0187 0.0326 0.003 -0.0036 0
W10 0.0141 0.0133 0.0339 0.007 -0.0062 -0.0028
W14 0.0208 0.0216 0.0295 0.0009 -0.0082 -0.0029
W16 0.0113 0.0208 0.036 0.0082 -0.0108 -0.0041
W17 0.0135 0.0167 0.0496 0.0052 -0.003 0.0062
P2 0.011 0.005 0.017 -0.002 -0.006 0.001
W33 0.0192 0.0126 0.0386 0.0065 -0.0086 0.0029
W36 0.0248 0.0116 0.0441 -0.0015 -0.0068 0.005
Cu22 0.019 0.034 0.056 0.01 -0.014 -0.012
Cu28 0.017 0.021 0.052 0.003 -0.003 0.001
W19 0.0111 0.0145 0.0289 0.0041 -0.0065 -0.0029
W21 0.0101 0.0191 0.0325 0.0021 -0.0083 -0.0046
W22 0.0141 0.0233 0.0274 0.0079 -0.0096 -0.0035
W24 0.0178 0.0099 0.0362 0.0044 -0.0026 -0.0017
W29 0.0098 0.0156 0.0446 0.0057 -0.0088 0.0035
W30 0.0191 0.0162 0.0377 0 -0.0082 -0.0065
W31 0.0196 0.0104 0.035 0.0018 0.0015 0.0013
Cu10 0.018 0.039 0.042 0.007 -0.014 -0.02
P3 0.006 0.013 0.014 0.002 -0.005 -0.007
loop_
_geom_bond_atom_site_label_1
_geom_bond_atom_site_label_2
_geom_bond_site_symmetry_1
_geom_bond_site_symmetry_2
Cu6 N10 1_555 1_555
H16 C20 1_555 1_555
C22 C21 1_555 1_555
H18 C22 1_555 1_555
C23 H19 1_555 1_555
C24 C23 1_555 1_555
H20 C24 1_555 1_555
C25 H21 1_555 1_555
C26 C25 1_555 1_555
H22 C26 1_555 1_555
N10 C20 1_555 1_555
N11 Cu6 1_555 1_555
N12 C24 1_555 1_555
Cu20 N12 1_555 1_555
O145 Cu6 1_555 1_555
C22 N10 1_555 1_555
C23 N11 1_555 1_555
C25 N11 1_555 1_555
C26 N12 1_555 1_555
C15 H11 1_555 1_555
C16 C15 1_555 1_555
H12 C16 1_555 1_555
C17 H13 1_555 1_555
C18 C17 1_555 1_555
H14 C18 1_555 1_555
N8 C16 1_555 1_555
Cu20 N8 1_555 1_555
C18 N8 1_555 1_555
W1 O133 1_555 1_555
W3 O3 1_555 1_555
W4 O4 1_555 1_555
W6 O6 1_555 1_555
W11 O11 1_555 1_555
W12 O12 1_555 1_555
W13 O13 1_555 1_555
Cu3 O4 1_555 1_555
Cu4 O63 1_555 1_555
Cu5 N6 1_555 1_555
O23 W1 1_555 1_555
O24 W1 1_555 1_555
O27 W1 1_555 1_555
O29 W3 1_555 1_555
O31 W6 1_555 1_555
O37 W12 1_555 1_555
O39 W1 1_555 1_555
O42 W1 1_555 1_555
O45 W6 1_555 1_555
O46 W3 1_555 1_555
O49 W4 1_555 1_555
O53 W11 1_555 1_555
O57 W3 1_555 1_555
O62 W6 1_555 1_555
O63 C9 1_555 1_555
O64 C9 1_555 1_555
O65 Cu4 1_555 1_555
O145 C14 1_555 1_555
C5 H5 1_555 1_555
C6 C5 1_555 1_555
H6 C6 1_555 1_555
C7 H7 1_555 1_555
C8 C7 1_555 1_555
C9 C8 1_555 1_555
C10 C11 1_555 1_555
C11 H8 1_555 1_555
C12 H9 1_555 1_555
C13 C12 1_555 1_555
H10 C13 1_555 1_555
C14 O65 1_555 1_555
C19 H15 1_555 1_555
N3 Cu3 1_555 1_555
N4 Cu4 1_555 1_555
N5 Cu4 1_555 1_555
N6 C11 1_555 1_555
N7 Cu5 1_555 1_555
N9 Cu5 1_555 1_555
Cu13 O63 1_555 1_555
Cu17 O27 1_555 1_555
O136 Cu3 1_555 1_555
W3 O27 1_555 1_555
W3 O42 1_555 1_555
W4 O22 1_555 1_555
W4 O29 1_555 1_555
W4 O52 1_555 1_555
W6 O21 1_555 1_555
W11 O31 1_555 1_555
W11 O49 1_555 1_555
W11 O57 1_555 1_555
W11 O62 1_555 1_555
W12 O32 1_555 1_555
W12 O46 1_555 1_555
W13 O23 1_555 1_555
W13 O45 1_555 1_555
W13 O48 1_555 1_555
W13 O53 1_555 1_555
W13 O62 1_555 1_555
P1 O42 1_555 1_555
P1 O52 1_555 1_555
P1 O62 1_555 1_555
O64 Cu13 1_555 1_555
C5 N3 1_555 1_555
C6 N4 1_555 1_555
C7 N3 1_555 1_555
C8 N4 1_555 1_555
C10 C14 1_555 1_555
C10 N5 1_555 1_555
C12 N5 1_555 1_555
C13 N6 1_555 1_555
C19 N9 1_555 1_555
W15 O15 1_555 1_555
W18 O18 1_555 1_555
O34 W15 1_555 1_555
O58 W15 1_555 1_555
H25 C29 1_555 1_555
H26 C30 1_555 1_555
N14 C29 1_555 1_555
W20 O136 1_555 1_555
W23 O71 1_555 1_555
W26 O74 1_555 1_555
W27 O75 1_555 1_555
W32 O80 1_555 1_555
W34 O82 1_555 1_555
Cu7 N14 1_555 1_555
Cu20 O82 1_555 1_555
P4 O92 1_555 1_555
O75 Cu7 1_555 1_555
O85 W23 1_555 1_555
O86 W20 1_555 1_555
O91 W25 1_555 1_555
O92 W28 1_555 1_555
O94 W28 1_555 1_555
O101 W32 1_555 1_555
O102 W23 1_555 1_555
O104 W25 1_555 1_555
O106 W27 1_555 1_555
O107 W27 1_555 1_555
O109 W27 1_555 1_555
O110 W34 1_555 1_555
O116 W23 1_555 1_555
O117 W27 1_555 1_555
O120 W23 1_555 1_555
O121 W20 1_555 1_555
O122 W26 1_555 1_555
O125 W23 1_555 1_555
C31 H27 1_555 1_555
C32 C31 1_555 1_555
H28 C32 1_555 1_555
C33 H29 1_555 1_555
C34 C33 1_555 1_555
H30 C34 1_555 1_555
N15 Cu7 1_555 1_555
O140 Cu20 1_555 1_555
O142 Cu7 1_555 1_555
O144 Cu7 1_555 1_555
W18 O34 1_555 1_555
W18 O47 1_555 1_555
C30 N14 1_555 1_555
W25 O125 1_555 1_555
W26 O91 1_555 1_555
W26 O99 1_555 1_555
W26 O104 1_555 1_555
W26 O121 1_555 1_555
W27 O86 1_555 1_555
W28 O102 1_555 1_555
W32 O109 1_555 1_555
W32 O117 1_555 1_555
W32 O126 1_555 1_555
W34 O85 1_555 1_555
W34 O106 1_555 1_555
W34 O120 1_555 1_555
W34 O122 1_555 1_555
W35 O107 1_555 1_555
W35 O110 1_555 1_555
W35 O127 1_555 1_555
P4 O117 1_555 1_555
P4 O120 1_555 1_555
P4 O127 1_555 1_555
C31 N15 1_555 1_555
C32 N16 1_555 1_555
C33 N15 1_555 1_555
C34 N16 1_555 1_555
W2 O2 1_555 1_555
W5 O137 1_555 1_555
W8 O8 1_555 1_555
W9 O9 1_555 1_555
W14 O14 1_555 1_555
W16 O16 1_555 1_555
Cu13 O9 1_555 1_555
Cu17 O16 1_555 1_555
P2 O26 1_555 1_555
O2 Cu22 1_555 1_555
O19 W5 1_555 1_555
O20 W2 1_555 1_555
O25 W7 1_555 1_555
O26 W10 1_555 1_555
O28 W10 1_555 1_555
O35 W14 1_555 1_555
O36 W5 1_555 1_555
O38 W7 1_555 1_555
O40 W9 1_555 1_555
O41 W9 1_555 1_555
O43 W9 1_555 1_555
O44 W16 1_555 1_555
O50 W5 1_555 1_555
O51 W9 1_555 1_555
O54 W5 1_555 1_555
O55 W2 1_555 1_555
O56 W8 1_555 1_555
O59 W5 1_555 1_555
C1 H1 1_555 1_555
C2 C1 1_555 1_555
H2 C2 1_555 1_555
C3 H3 1_555 1_555
C4 C3 1_555 1_555
H4 C4 1_555 1_555
C27 H23 1_555 1_555
C28 H24 1_555 1_555
N1 Cu13 1_555 1_555
N13 Cu13 1_555 1_555
W33 O81 1_555 1_555
W36 O84 1_555 1_555
O100 W33 1_555 1_555
O124 W33 1_555 1_555
N28 Cu17 1_555 1_555
N30 Cu17 1_555 1_555
W7 O59 1_555 1_555
W8 O25 1_555 1_555
W8 O33 1_555 1_555
W8 O38 1_555 1_555
W8 O55 1_555 1_555
W9 O20 1_555 1_555
W10 O36 1_555 1_555
W14 O43 1_555 1_555
W14 O51 1_555 1_555
W14 O60 1_555 1_555
W16 O19 1_555 1_555
W16 O40 1_555 1_555
W16 O54 1_555 1_555
W16 O56 1_555 1_555
W17 O41 1_555 1_555
W17 O44 1_555 1_555
W17 O61 1_555 1_555
P2 O51 1_555 1_555
P2 O54 1_555 1_555
P2 O61 1_555 1_555
C1 N1 1_555 1_555
C2 N2 1_555 1_555
C3 N1 1_555 1_555
C4 N2 1_555 1_555
C27 N13 1_555 1_555
C28 N13 1_555 1_555
W36 O100 1_555 1_555
W36 O113 1_555 1_555
W19 O67 1_555 1_555
W21 O69 1_555 1_555
W22 O70 1_555 1_555
W24 O72 1_555 1_555
W29 O77 1_555 1_555
W30 O78 1_555 1_555
W31 O79 1_555 1_555
Cu22 O70 1_555 1_555
Cu10 O142 1_555 1_555
Cu24 N20 1_555 1_555
O89 W19 1_555 1_555
O90 W19 1_555 1_555
O140 W19 1_555 1_555
O95 W21 1_555 1_555
O97 W24 1_555 1_555
O103 W30 1_555 1_555
O105 W19 1_555 1_555
O108 W19 1_555 1_555
O111 W24 1_555 1_555
O112 W21 1_555 1_555
O115 W22 1_555 1_555
O119 W29 1_555 1_555
O123 W21 1_555 1_555
O128 W24 1_555 1_555
O142 C39 1_555 1_555
O144 C39 1_555 1_555
O131 Cu10 1_555 1_555
O132 C44 1_555 1_555
C35 H31 1_555 1_555
C36 C35 1_555 1_555
H32 C36 1_555 1_555
C37 H33 1_555 1_555
C38 C37 1_555 1_555
C39 C38 1_555 1_555
C40 C41 1_555 1_555
C41 H34 1_555 1_555
C42 H35 1_555 1_555
C43 C42 1_555 1_555
H36 C43 1_555 1_555
C44 O131 1_555 1_555
C49 H41 1_555 1_555
N17 Cu22 1_555 1_555
N18 Cu10 1_555 1_555
N19 Cu10 1_555 1_555
N20 C41 1_555 1_555
N21 Cu24 1_555 1_555
N23 Cu24 1_555 1_555
Cu28 O132 1_555 1_555
W21 O140 1_555 1_555
W21 O108 1_555 1_555
W22 O88 1_555 1_555
W22 O95 1_555 1_555
W22 O118 1_555 1_555
W24 O87 1_555 1_555
W29 O97 1_555 1_555
W29 O115 1_555 1_555
W29 O123 1_555 1_555
W29 O128 1_555 1_555
W30 O98 1_555 1_555
W30 O112 1_555 1_555
W31 O89 1_555 1_555
W31 O111 1_555 1_555
W31 O114 1_555 1_555
W31 O119 1_555 1_555
W31 O128 1_555 1_555
P3 O108 1_555 1_555
P3 O118 1_555 1_555
P3 O128 1_555 1_555
C35 N17 1_555 1_555
C36 N18 1_555 1_555
C37 N17 1_555 1_555
C38 N18 1_555 1_555
C40 C44 1_555 1_555
C40 N19 1_555 1_555
C42 N19 1_555 1_555
C43 N20 1_555 1_555
C49 N23 1_555 1_555
C45 H37 1_555 1_555
C46 C45 1_555 1_555
H38 C46 1_555 1_555
C47 H39 1_555 1_555
C48 C47 1_555 1_555
H40 C48 1_555 1_555
N28 C46 1_555 1_555
C48 N28 1_555 1_555
Cu28 N24 1_555 1_555
H42 C50 1_555 1_555
C52 C51 1_555 1_555
H44 C52 1_555 1_555
C53 H45 1_555 1_555
C54 C53 1_555 1_555
H46 C54 1_555 1_555
C55 H47 1_555 1_555
C56 C55 1_555 1_555
H48 C56 1_555 1_555
N24 C50 1_555 1_555
N25 Cu28 1_555 1_555
N30 C54 1_555 1_555
C52 N24 1_555 1_555
C53 N25 1_555 1_555
C55 N25 1_555 1_555
C56 N30 1_555 1_555

#END
