
###############################################################################
#
# This file contains modified crystal structure data generated from the
# MOF subset of the Cambridge Structural Database (CSD) v543 
# hosted by the Cambridge Crystallographic Data Centre (CCDC).
#
# This work is licensed under the Creative Commons
# Attribution-NonCommercial-ShareAlike 4.0 International License.
# To view a copy of this license, visit
# http://creativecommons.org/licenses/by-nc-sa/4.0/
# or send a letter to
# Creative Commons, PO Box 1866, Mountain View, CA 94042, USA.
#
# CIF created using the CSD Python API on 29 September 2022
# The structure has been converted into the P1 space group
# The structure has a 3D framework
# The original CSD entry COJMOF01 is in the monoclinic crystal system
# The framework has been calculated to contain at least 10.0% void space
# The void calculation uses a probe of radius 1.32A, grid spacing 0.4
#
###############################################################################

data_COJMOF01
_chemical_formula_moiety         '(C320 H192 N16 O64 Zn16)n'
_symmetry_cell_setting           triclinic
_symmetry_space_group_name_H-M   'P 1'
_symmetry_Int_Tables_number      1
_space_group_name_Hall           'P 1'
loop_
_symmetry_equiv_pos_site_id
_symmetry_equiv_pos_as_xyz
1 x,y,z
_cell_length_a                   33.559(7)
_cell_length_b                   22.171(4)
_cell_length_c                   19.706(4)
_cell_angle_alpha                90
_cell_angle_beta                 124.022(3)
_cell_angle_gamma                90
_cell_volume                     12152.2
loop_
_atom_site_label
_atom_site_type_symbol
_atom_site_fract_x
_atom_site_fract_y
_atom_site_fract_z
Zn4 Zn 0.192746(9) 0.736417(12) 0.081209(16)
Zn1 Zn 0.192746(9) 0.263583(12) 0.581209(16)
Zn2 Zn 0.089929(9) 0.236044(12) 0.481978(16)
N2 N 0.01749(7) 0.22870(10) 0.40931(13)
O1 O 0.18876(6) 0.20336(9) 0.50070(11)
O3 O 0.09861(7) 0.29654(9) 0.56562(12)
O4 O 0.17212(7) 0.67098(8) 0.99542(11)
O5 O 0.17597(7) 0.32012(9) 0.64097(12)
O6 O 0.09420(7) 0.69246(9) 0.92064(12)
O8 O 0.11073(7) 0.18277(8) 0.42414(12)
H1 H 0.0098 0.2729 0.3220
C2 C 0.12969(10) 0.66141(11) 0.93743(16)
C5 C 0.13352(11) 0.32618(12) 0.62008(17)
C7 C 0.16174(9) 0.12613(12) 0.40265(17)
C8 C 0.15314(10) 0.17452(11) 0.44558(16)
C9 C 0.12319(10) 0.37319(14) 0.66164(18)
C10 C 0.12382(10) 0.09577(12) 0.33797(17)
H2 H 0.0924 0.1060 0.3192
C11 C 0.13278(10) 0.05011(13) 0.30124(19)
C12 C 0.12037(10) 0.60949(12) 0.88290(17)
C14 C 0.15027(11) 0.45183(15) 0.7608(2)
C16 C 0.10205(11) 0.51408(15) 0.7793(2)
C17 C 0.16011(11) 0.40687(15) 0.72513(19)
H5 H 0.1918 0.3987 0.7435
C21 C 0.14896(10) 0.53253(15) 0.83712(19)
C22 C 0.15770(10) 0.57926(13) 0.88806(18)
H7 H 0.1892 0.5909 0.9268
C23 C 0.10252(11) 0.46371(16) 0.7327(2)
C24 C 0.18020(10) 0.03532(15) 0.3292(2)
C25 C 0.06600(12) 0.43013(19) 0.6706(3)
H8 H 0.0342 0.4381 0.6519
C26 C 0.20857(11) 0.11285(14) 0.42774(19)
H9 H 0.2339 0.1350 0.4700
C27 C 0.07680(11) 0.38493(17) 0.6366(2)
H10 H 0.0521 0.3615 0.5953
C28 C 0.09804(11) 0.01002(15) 0.2299(2)
H12 H 0.0780 0.0333 0.1802
C31 C 0.06398(11) 0.54521(17) 0.7726(2)
H15 H 0.0324 0.5342 0.7333
C34 C 0.07346(11) 0.59182(15) 0.8241(2)
H17 H 0.0481 0.6124 0.8200
C35 C 0.21803(11) 0.06816(16) 0.3917(2)
H18 H 0.2495 0.0597 0.4089
H20 H 0.0081 0.1785 0.4754
C40 C 0.18334(12) 0.49429(16) 0.8291(2)
H23 H 0.2017 0.5187 0.8151
H24 H 0.2053 0.4725 0.8794
Zn7 Zn 0.089929(9) 0.763956(12) 0.981978(16)
N3 N 0.26520(7) 0.26890(9) 0.65514(13)
O9 O 0.10468(7) 0.16931(9) 0.56174(12)
O10 O 0.17212(7) 0.32902(8) 0.49542(11)
O11 O 0.09420(7) 0.30754(9) 0.42064(12)
O12 O 0.18213(7) 0.19257(9) 0.63440(13)
O2 O 0.10468(7) 0.83069(9) 0.06174(12)
O7 O 0.18213(7) 0.80743(9) 0.13440(13)
C6 C 0.14778(11) 0.83842(12) 0.12014(18)
C18 C 0.13146(11) 0.96920(14) 0.2236(2)
C19 C 0.15823(11) 0.88997(14) 0.17625(19)
C20 C 0.12105(11) 0.92250(14) 0.17110(18)
H6 H 0.0892 0.9124 0.1319
H11 H 0.0777 0.9874 0.2413
C32 C 0.21597(12) 0.95484(19) 0.2839(2)
H16 H 0.2478 0.9664 0.3204
C33 C 0.17953(11) 0.98521(16) 0.2805(2)
C36 C 0.20460(12) 0.90729(18) 0.2327(2)
H19 H 0.2294 0.8856 0.2361
N1 N 0.76520(7) 0.23110(9) 0.15514(13)
C1 C 0.99315(14) 0.2520(3) 0.3395(3)
C3 C 0.86474(9) 0.22751(12) 0.25660(17)
C4 C 0.91784(9) 0.22618(13) 0.30958(17)
C13 C 0.84136(10) 0.26427(14) 0.1904(2)
H3 H 0.8589 0.2888 0.1780
C15 C 0.78782(10) 0.19491(15) 0.21985(18)
H4 H 0.7695 0.1709 0.2312
C29 C 0.83703(10) 0.19137(15) 0.27075(18)
H13 H 0.8514 0.1646 0.3146
C30 C 0.94418(15) 0.2493(3) 0.2869(3)
H14 H 0.9295 0.2644 0.2340
C37 C 0.99234(12) 0.1994(2) 0.4260(3)
C38 C 0.79226(10) 0.26560(14) 0.1417(2)
H21 H 0.7773 0.2918 0.0972
C39 C 0.94284(12) 0.1957(3) 0.3768(3)
H22 H 0.9271 0.1707 0.3924
Zn5 Zn 0.692746(9) 0.236417(12) 0.081209(16)
O4_2 O 0.67212(7) 0.17098(8) 0.99542(11)
O6_2 O 0.59420(7) 0.19246(9) 0.92064(12)
C2_2 C 0.62969(10) 0.16141(11) 0.93743(16)
C12_2 C 0.62037(10) 0.10949(12) 0.88290(17)
C16_2 C 0.60205(11) 0.01408(15) 0.7793(2)
C21_2 C 0.64896(10) 0.03253(15) 0.83712(19)
C22_2 C 0.65770(10) 0.07926(13) 0.88806(18)
H7_2 H 0.6892 0.0909 0.9268
C31_2 C 0.56398(11) 0.04521(17) 0.7726(2)
H15_2 H 0.5324 0.0342 0.7333
C34_2 C 0.57346(11) 0.09182(15) 0.8241(2)
H17_2 H 0.5481 0.1124 0.8200
H23_2 H 0.7017 0.0187 0.8151
Zn7_2 Zn 0.589929(9) 0.263956(12) 0.981978(16)
Zn1_2 Zn 0.692746(9) 0.763583(12) 0.581209(16)
Zn2_2 Zn 0.589929(9) 0.736044(12) 0.481978(16)
N1_2 N 0.26520(7) 0.73110(9) 0.15514(13)
N2_2 N 0.51749(7) 0.72870(10) 0.40931(13)
O1_2 O 0.68876(6) 0.70336(9) 0.50070(11)
O2_2 O 0.60468(7) 0.33069(9) 0.06174(12)
O3_2 O 0.59861(7) 0.79654(9) 0.56562(12)
O5_2 O 0.67597(7) 0.82012(9) 0.64097(12)
O7_2 O 0.68213(7) 0.30743(9) 0.13440(13)
O8_2 O 0.61073(7) 0.68277(8) 0.42414(12)
C1_2 C 0.49315(14) 0.7520(3) 0.3395(3)
H1_2 H 0.5098 0.7729 0.3220
C3_2 C 0.36474(9) 0.72751(12) 0.25660(17)
C4_2 C 0.41784(9) 0.72618(13) 0.30958(17)
C5_2 C 0.63352(11) 0.82618(12) 0.62008(17)
C6_2 C 0.64778(11) 0.33842(12) 0.12014(18)
C7_2 C 0.66174(9) 0.62613(12) 0.40265(17)
C8_2 C 0.65314(10) 0.67452(11) 0.44558(16)
C9_2 C 0.62319(10) 0.87319(14) 0.66164(18)
C10_2 C 0.62382(10) 0.59577(12) 0.33797(17)
H2_2 H 0.5924 0.6060 0.3192
C11_2 C 0.63278(10) 0.55011(13) 0.30124(19)
C13_2 C 0.34136(10) 0.76427(14) 0.1904(2)
H3_2 H 0.3589 0.7888 0.1780
C14_2 C 0.65027(11) 0.95183(15) 0.7608(2)
C15_2 C 0.28782(10) 0.69491(15) 0.21985(18)
H4_2 H 0.2695 0.6709 0.2312
C17_2 C 0.66011(11) 0.90687(15) 0.72513(19)
H5_2 H 0.6918 0.8987 0.7435
C18_2 C 0.63146(11) 0.46920(14) 0.2236(2)
C19_2 C 0.65823(11) 0.38997(14) 0.17625(19)
C20_2 C 0.62105(11) 0.42250(14) 0.17110(18)
H6_2 H 0.5892 0.4124 0.1319
C23_2 C 0.60252(11) 0.96371(16) 0.7327(2)
C24_2 C 0.68020(10) 0.53532(15) 0.3292(2)
C25_2 C 0.56600(12) 0.93013(19) 0.6706(3)
H8_2 H 0.5342 0.9381 0.6519
C26_2 C 0.70857(11) 0.61285(14) 0.42774(19)
H9_2 H 0.7339 0.6350 0.4700
C27_2 C 0.57680(11) 0.88493(17) 0.6366(2)
H10_2 H 0.5521 0.8615 0.5953
C28_2 C 0.59804(11) 0.51002(15) 0.2299(2)
H11_2 H 0.5777 0.4874 0.2413
H12_2 H 0.5780 0.5333 0.1802
C29_2 C 0.33703(10) 0.69137(15) 0.27075(18)
H13_2 H 0.3514 0.6646 0.3146
C30_2 C 0.44418(15) 0.7493(3) 0.2869(3)
H14_2 H 0.4295 0.7644 0.2340
C32_2 C 0.71597(12) 0.45484(19) 0.2839(2)
H16_2 H 0.7478 0.4664 0.3204
C33_2 C 0.67953(11) 0.48521(16) 0.2805(2)
C35_2 C 0.71803(11) 0.56816(16) 0.3917(2)
H18_2 H 0.7495 0.5597 0.4089
C36_2 C 0.70460(12) 0.40729(18) 0.2327(2)
H19_2 H 0.7294 0.3856 0.2361
C37_2 C 0.49234(12) 0.6994(2) 0.4260(3)
H20_2 H 0.5081 0.6785 0.4754
C38_2 C 0.29226(10) 0.76560(14) 0.1417(2)
H21_2 H 0.2773 0.7918 0.0972
C39_2 C 0.44284(12) 0.6957(3) 0.3768(3)
H22_2 H 0.4271 0.6707 0.3924
C40_2 C 0.68334(12) 0.99429(16) 0.8291(2)
H24_2 H 0.7053 0.9725 0.8794
N3_2 N 0.76520(7) 0.76890(9) 0.65514(13)
O9_2 O 0.60468(7) 0.66931(9) 0.56174(12)
O10_2 O 0.67212(7) 0.82902(8) 0.49542(11)
O11_2 O 0.59420(7) 0.80754(9) 0.42064(12)
O12_2 O 0.68213(7) 0.69257(9) 0.63440(13)
C6_3 C 0.14778(11) 0.16158(12) 0.62014(18)
C18_3 C 0.13146(11) 0.03080(14) 0.7236(2)
C19_3 C 0.15823(11) 0.11003(14) 0.67625(19)
C20_3 C 0.12105(11) 0.07750(14) 0.67110(18)
H6_3 H 0.0892 0.0876 0.6319
H11_3 H 0.0777 0.0126 0.7413
C32_3 C 0.21597(12) 0.04516(19) 0.7839(2)
H16_3 H 0.2478 0.0336 0.8204
C33_3 C 0.17953(11) 0.01479(16) 0.7805(2)
C36_3 C 0.20460(12) 0.09271(18) 0.7327(2)
H19_3 H 0.2294 0.1144 0.7361
O1_3 O 0.18876(6) 0.79664(9) 0.00070(11)
O3_3 O 0.09861(7) 0.70346(9) 0.06562(12)
O5_3 O 0.17597(7) 0.67988(9) 0.14097(12)
C2_3 C 0.12969(10) 0.33859(11) 0.43743(16)
C5_3 C 0.13352(11) 0.67382(12) 0.12008(17)
C9_3 C 0.12319(10) 0.62681(14) 0.16164(18)
C12_3 C 0.12037(10) 0.39051(12) 0.38290(17)
C14_3 C 0.15027(11) 0.54817(15) 0.2608(2)
C16_3 C 0.10205(11) 0.48592(15) 0.2793(2)
C17_3 C 0.16011(11) 0.59313(15) 0.22513(19)
H5_3 H 0.1918 0.6013 0.2435
C21_3 C 0.14896(10) 0.46747(15) 0.33712(19)
C22_3 C 0.15770(10) 0.42074(13) 0.38806(18)
H7_3 H 0.1892 0.4091 0.4268
C23_3 C 0.10252(11) 0.53629(16) 0.2327(2)
C25_3 C 0.06600(12) 0.56987(19) 0.1706(3)
H8_3 H 0.0342 0.5619 0.1519
C27_3 C 0.07680(11) 0.61507(17) 0.1366(2)
H10_3 H 0.0521 0.6385 0.0953
C31_3 C 0.06398(11) 0.45479(17) 0.2726(2)
H15_3 H 0.0324 0.4658 0.2333
C34_3 C 0.07346(11) 0.40818(15) 0.3241(2)
H17_3 H 0.0481 0.3876 0.3200
C40_3 C 0.18334(12) 0.50571(16) 0.3291(2)
H23_3 H 0.2017 0.4813 0.3151
H24_3 H 0.2053 0.5275 0.3794
N2_3 N 0.01749(7) 0.77130(10) 0.90931(13)
O8_3 O 0.11073(7) 0.81723(8) 0.92414(12)
H1_3 H 0.0098 0.7271 0.8220
C7_3 C 0.16174(9) 0.87387(12) 0.90265(17)
C8_3 C 0.15314(10) 0.82548(11) 0.94558(16)
C10_3 C 0.12382(10) 0.90423(12) 0.83797(17)
H2_3 H 0.0924 0.8940 0.8192
C11_3 C 0.13278(10) 0.94989(13) 0.80124(19)
C24_3 C 0.18020(10) 0.96468(15) 0.8292(2)
C26_3 C 0.20857(11) 0.88715(14) 0.92774(19)
H9_3 H 0.2339 0.8650 0.9700
C28_3 C 0.09804(11) 0.98998(15) 0.7299(2)
H12_3 H 0.0780 0.9667 0.6802
C35_3 C 0.21803(11) 0.93184(16) 0.8917(2)
H18_3 H 0.2495 0.9403 0.9089
H20_3 H 0.0081 0.8215 0.9754
C1_3 C 0.99315(14) 0.7480(3) 0.8395(3)
C3_3 C 0.86474(9) 0.77249(12) 0.75660(17)
C4_3 C 0.91784(9) 0.77382(13) 0.80958(17)
C13_3 C 0.84136(10) 0.73573(14) 0.6904(2)
H3_3 H 0.8589 0.7112 0.6780
C15_3 C 0.78782(10) 0.80509(15) 0.71985(18)
H4_3 H 0.7695 0.8291 0.7312
C29_3 C 0.83703(10) 0.80863(15) 0.77075(18)
H13_3 H 0.8514 0.8354 0.8146
C30_3 C 0.94418(15) 0.7507(3) 0.7869(3)
H14_3 H 0.9295 0.7356 0.7340
C37_3 C 0.99234(12) 0.8006(2) 0.9260(3)
C38_3 C 0.79226(10) 0.73440(14) 0.6417(2)
H21_3 H 0.7773 0.7082 0.5972
C39_3 C 0.94284(12) 0.8043(3) 0.8768(3)
H22_3 H 0.9271 0.8293 0.8924
O1_4 O 0.68876(6) 0.29664(9) 0.00070(11)
O3_4 O 0.59861(7) 0.20346(9) 0.06562(12)
O5_4 O 0.67597(7) 0.17988(9) 0.14097(12)
C5_4 C 0.63352(11) 0.17382(12) 0.12008(17)
C9_4 C 0.62319(10) 0.12681(14) 0.16164(18)
C14_4 C 0.65027(11) 0.04817(15) 0.2608(2)
C17_4 C 0.66011(11) 0.09313(15) 0.22513(19)
H5_4 H 0.6918 0.1013 0.2435
C23_4 C 0.60252(11) 0.03629(16) 0.2327(2)
C25_4 C 0.56600(12) 0.06987(19) 0.1706(3)
H8_4 H 0.5342 0.0619 0.1519
C27_4 C 0.57680(11) 0.11507(17) 0.1366(2)
H10_4 H 0.5521 0.1385 0.0953
C40_4 C 0.68334(12) 0.00571(16) 0.3291(2)
H24_4 H 0.7053 0.0275 0.3794
N2_4 N 0.51749(7) 0.27130(10) 0.90931(13)
O8_4 O 0.61073(7) 0.31723(8) 0.92414(12)
C1_4 C 0.49315(14) 0.2480(3) 0.8395(3)
H1_4 H 0.5098 0.2271 0.8220
C3_4 C 0.36474(9) 0.27249(12) 0.75660(17)
C4_4 C 0.41784(9) 0.27382(13) 0.80958(17)
C6_4 C 0.64778(11) 0.66158(12) 0.62014(18)
C7_4 C 0.66174(9) 0.37387(12) 0.90265(17)
C8_4 C 0.65314(10) 0.32548(11) 0.94558(16)
C10_4 C 0.62382(10) 0.40423(12) 0.83797(17)
H2_4 H 0.5924 0.3940 0.8192
C11_4 C 0.63278(10) 0.44989(13) 0.80124(19)
C13_4 C 0.34136(10) 0.23573(14) 0.6904(2)
H3_4 H 0.3589 0.2112 0.6780
C15_4 C 0.28782(10) 0.30509(15) 0.71985(18)
H4_4 H 0.2695 0.3291 0.7312
C18_4 C 0.63146(11) 0.53080(14) 0.7236(2)
C19_4 C 0.65823(11) 0.61003(14) 0.67625(19)
C20_4 C 0.62105(11) 0.57750(14) 0.67110(18)
H6_4 H 0.5892 0.5876 0.6319
C24_4 C 0.68020(10) 0.46468(15) 0.8292(2)
C26_4 C 0.70857(11) 0.38715(14) 0.92774(19)
H9_4 H 0.7339 0.3650 0.9700
C28_4 C 0.59804(11) 0.48998(15) 0.7299(2)
H11_4 H 0.5777 0.5126 0.7413
H12_4 H 0.5780 0.4667 0.6802
C29_4 C 0.33703(10) 0.30863(15) 0.77075(18)
H13_4 H 0.3514 0.3354 0.8146
C30_4 C 0.44418(15) 0.2507(3) 0.7869(3)
H14_4 H 0.4295 0.2356 0.7340
C32_4 C 0.71597(12) 0.54516(19) 0.7839(2)
H16_4 H 0.7478 0.5336 0.8204
C33_4 C 0.67953(11) 0.51479(16) 0.7805(2)
C35_4 C 0.71803(11) 0.43184(16) 0.8917(2)
H18_4 H 0.7495 0.4403 0.9089
C36_4 C 0.70460(12) 0.59271(18) 0.7327(2)
H19_4 H 0.7294 0.6144 0.7361
C37_4 C 0.49234(12) 0.3006(2) 0.9260(3)
H20_4 H 0.5081 0.3215 0.9754
C38_4 C 0.29226(10) 0.23440(14) 0.6417(2)
H21_4 H 0.2773 0.2082 0.5972
C39_4 C 0.44284(12) 0.3043(3) 0.8768(3)
H22_4 H 0.4271 0.3293 0.8924
C2_4 C 0.62969(10) 0.83859(11) 0.43743(16)
C12_4 C 0.62037(10) 0.89051(12) 0.38290(17)
C16_4 C 0.60205(11) 0.98592(15) 0.2793(2)
C21_4 C 0.64896(10) 0.96747(15) 0.33712(19)
C22_4 C 0.65770(10) 0.92074(13) 0.38806(18)
H7_4 H 0.6892 0.9091 0.4268
C31_4 C 0.56398(11) 0.95479(17) 0.2726(2)
H15_4 H 0.5324 0.9658 0.2333
C34_4 C 0.57346(11) 0.90818(15) 0.3241(2)
H17_4 H 0.5481 0.8876 0.3200
H23_4 H 0.7017 0.9813 0.3151
N1_3 N 0.23480(7) 0.23110(9) 0.34486(13)
C1_5 C 0.00685(14) 0.2520(3) 0.1605(3)
C3_5 C 0.13526(9) 0.22751(12) 0.24340(17)
C4_5 C 0.08216(9) 0.22618(13) 0.19042(17)
C13_5 C 0.15864(10) 0.26427(14) 0.3096(2)
H3_5 H 0.1411 0.2888 0.3220
C15_5 C 0.21218(10) 0.19491(15) 0.28015(18)
H4_5 H 0.2305 0.1709 0.2688
C29_5 C 0.16297(10) 0.19137(15) 0.22925(18)
H13_5 H 0.1486 0.1646 0.1854
C30_5 C 0.05582(15) 0.2493(3) 0.2131(3)
H14_5 H 0.0705 0.2644 0.2660
C37_5 C 0.00766(12) 0.1994(2) 0.0740(3)
C38_5 C 0.20774(10) 0.26560(14) 0.3583(2)
H21_5 H 0.2227 0.2918 0.4028
C39_5 C 0.05716(12) 0.1957(3) 0.1232(3)
H22_5 H 0.0729 0.1707 0.1076
Zn5_2 Zn 0.307254(9) 0.236417(12) 0.418791(16)
Zn2_3 Zn 0.910071(9) 0.236044(12) 0.018022(16)
N2_5 N 0.98251(7) 0.22870(10) 0.09069(13)
O8_5 O 0.88927(7) 0.18277(8) 0.07586(12)
H1_5 H 0.9902 0.2729 0.1780
C7_5 C 0.83826(9) 0.12613(12) 0.09735(17)
C8_5 C 0.84686(10) 0.17452(11) 0.05442(16)
C10_5 C 0.87618(10) 0.09577(12) 0.16203(17)
H2_5 H 0.9076 0.1060 0.1808
C11_5 C 0.86722(10) 0.05011(13) 0.19876(19)
C24_5 C 0.81980(10) 0.03532(15) 0.1708(2)
C26_5 C 0.79143(11) 0.11285(14) 0.07226(19)
H9_5 H 0.7661 0.1350 0.0300
C28_5 C 0.90196(11) 0.01002(15) 0.2701(2)
H12_5 H 0.9220 0.0333 0.3198
C35_5 C 0.78197(11) 0.06816(16) 0.1083(2)
H18_5 H 0.7505 0.0597 0.0911
H20_5 H 0.9919 0.1785 0.0246
O10_3 O 0.82788(7) 0.32902(8) 0.00458(11)
O11_3 O 0.90580(7) 0.30754(9) 0.07936(12)
Zn1_3 Zn 0.807254(9) 0.263583(12) 0.918791(16)
O1_5 O 0.81124(6) 0.20336(9) 0.99930(11)
O3_5 O 0.90139(7) 0.29654(9) 0.93438(12)
O4_3 O 0.82788(7) 0.67098(8) 0.50458(11)
O5_5 O 0.82403(7) 0.32012(9) 0.85903(12)
O6_3 O 0.90580(7) 0.69246(9) 0.57936(12)
C2_5 C 0.87031(10) 0.66141(11) 0.56257(16)
C5_5 C 0.86648(11) 0.32618(12) 0.87992(17)
C9_5 C 0.87681(10) 0.37319(14) 0.83836(18)
C12_5 C 0.87963(10) 0.60949(12) 0.61710(17)
C14_5 C 0.84973(11) 0.45183(15) 0.7392(2)
C16_5 C 0.89795(11) 0.51408(15) 0.7207(2)
C17_5 C 0.83989(11) 0.40687(15) 0.77487(19)
H5_5 H 0.8082 0.3987 0.7565
C21_5 C 0.85104(10) 0.53253(15) 0.66288(19)
C22_5 C 0.84230(10) 0.57926(13) 0.61194(18)
H7_5 H 0.8108 0.5909 0.5732
C23_5 C 0.89748(11) 0.46371(16) 0.7673(2)
C25_5 C 0.93400(12) 0.43013(19) 0.8294(3)
H8_5 H 0.9658 0.4381 0.8481
C27_5 C 0.92320(11) 0.38493(17) 0.8634(2)
H10_5 H 0.9479 0.3615 0.9047
C31_5 C 0.93602(11) 0.54521(17) 0.7274(2)
H15_5 H 0.9676 0.5342 0.7667
C34_5 C 0.92654(11) 0.59182(15) 0.6759(2)
H17_5 H 0.9519 0.6124 0.6800
C40_5 C 0.81666(12) 0.49429(16) 0.6709(2)
H23_5 H 0.7983 0.5187 0.6849
H24_5 H 0.7947 0.4725 0.6206
Zn4_2 Zn 0.807254(9) 0.736417(12) 0.418791(16)
Zn7_3 Zn 0.910071(9) 0.763956(12) 0.518022(16)
N3_3 N 0.73480(7) 0.26890(9) 0.84486(13)
O9_3 O 0.89532(7) 0.16931(9) 0.93826(12)
O12_3 O 0.81787(7) 0.19257(9) 0.86560(13)
O2_3 O 0.89532(7) 0.83069(9) 0.43826(12)
O7_3 O 0.81787(7) 0.80743(9) 0.36560(13)
C6_5 C 0.85222(11) 0.83842(12) 0.37986(18)
C18_5 C 0.86854(11) 0.96920(14) 0.2764(2)
C19_5 C 0.84177(11) 0.88997(14) 0.32375(19)
C20_5 C 0.87895(11) 0.92250(14) 0.32890(18)
H6_5 H 0.9108 0.9124 0.3681
H11_5 H 0.9223 0.9874 0.2587
C32_5 C 0.78403(12) 0.95484(19) 0.2161(2)
H16_5 H 0.7522 0.9664 0.1796
C33_5 C 0.82047(11) 0.98521(16) 0.2195(2)
C36_5 C 0.79540(12) 0.90729(18) 0.2673(2)
H19_5 H 0.7706 0.8856 0.2639
O4_4 O 0.32788(7) 0.17098(8) 0.50458(11)
O6_4 O 0.40580(7) 0.19246(9) 0.57936(12)
C2_6 C 0.37031(10) 0.16141(11) 0.56257(16)
C12_6 C 0.37963(10) 0.10949(12) 0.61710(17)
C16_6 C 0.39795(11) 0.01408(15) 0.7207(2)
C21_6 C 0.35104(10) 0.03253(15) 0.66288(19)
C22_6 C 0.34230(10) 0.07926(13) 0.61194(18)
H7_6 H 0.3108 0.0909 0.5732
C31_6 C 0.43602(11) 0.04521(17) 0.7274(2)
H15_6 H 0.4676 0.0342 0.7667
C34_6 C 0.42654(11) 0.09182(15) 0.6759(2)
H17_6 H 0.4519 0.1124 0.6800
H23_6 H 0.2983 0.0187 0.6849
Zn7_4 Zn 0.410071(9) 0.263956(12) 0.518022(16)
Zn2_4 Zn 0.410071(9) 0.736044(12) 0.018022(16)
N1_4 N 0.73480(7) 0.73110(9) 0.34486(13)
N2_6 N 0.48251(7) 0.72870(10) 0.09069(13)
O2_4 O 0.39532(7) 0.33069(9) 0.43826(12)
O7_4 O 0.31787(7) 0.30743(9) 0.36560(13)
O8_6 O 0.38927(7) 0.68277(8) 0.07586(12)
C1_6 C 0.50685(14) 0.7520(3) 0.1605(3)
H1_6 H 0.4902 0.7729 0.1780
C3_6 C 0.63526(9) 0.72751(12) 0.24340(17)
C4_6 C 0.58216(9) 0.72618(13) 0.19042(17)
C6_6 C 0.35222(11) 0.33842(12) 0.37986(18)
C7_6 C 0.33826(9) 0.62613(12) 0.09735(17)
C8_6 C 0.34686(10) 0.67452(11) 0.05442(16)
C10_6 C 0.37618(10) 0.59577(12) 0.16203(17)
H2_6 H 0.4076 0.6060 0.1808
C11_6 C 0.36722(10) 0.55011(13) 0.19876(19)
C13_6 C 0.65864(10) 0.76427(14) 0.3096(2)
H3_6 H 0.6411 0.7888 0.3220
C15_6 C 0.71218(10) 0.69491(15) 0.28015(18)
H4_6 H 0.7305 0.6709 0.2688
C18_6 C 0.36854(11) 0.46920(14) 0.2764(2)
C19_6 C 0.34177(11) 0.38997(14) 0.32375(19)
C20_6 C 0.37895(11) 0.42250(14) 0.32890(18)
H6_6 H 0.4108 0.4124 0.3681
C24_6 C 0.31980(10) 0.53532(15) 0.1708(2)
C26_6 C 0.29143(11) 0.61285(14) 0.07226(19)
H9_6 H 0.2661 0.6350 0.0300
C28_6 C 0.40196(11) 0.51002(15) 0.2701(2)
H11_6 H 0.4223 0.4874 0.2587
H12_6 H 0.4220 0.5333 0.3198
C29_6 C 0.66297(10) 0.69137(15) 0.22925(18)
H13_6 H 0.6486 0.6646 0.1854
C30_6 C 0.55582(15) 0.7493(3) 0.2131(3)
H14_6 H 0.5705 0.7644 0.2660
C32_6 C 0.28403(12) 0.45484(19) 0.2161(2)
H16_6 H 0.2522 0.4664 0.1796
C33_6 C 0.32047(11) 0.48521(16) 0.2195(2)
C35_6 C 0.28197(11) 0.56816(16) 0.1083(2)
H18_6 H 0.2505 0.5597 0.0911
C36_6 C 0.29540(12) 0.40729(18) 0.2673(2)
H19_6 H 0.2706 0.3856 0.2639
C37_6 C 0.50766(12) 0.6994(2) 0.0740(3)
H20_6 H 0.4919 0.6785 0.0246
C38_6 C 0.70774(10) 0.76560(14) 0.3583(2)
H21_6 H 0.7227 0.7918 0.4028
C39_6 C 0.55716(12) 0.6957(3) 0.1232(3)
H22_6 H 0.5729 0.6707 0.1076
O10_4 O 0.32788(7) 0.82902(8) 0.00458(11)
O11_4 O 0.40580(7) 0.80754(9) 0.07936(12)
Zn1_4 Zn 0.307254(9) 0.763583(12) 0.918791(16)
O1_6 O 0.31124(6) 0.70336(9) 0.99930(11)
O3_6 O 0.40139(7) 0.79654(9) 0.93438(12)
O5_6 O 0.32403(7) 0.82012(9) 0.85903(12)
C5_6 C 0.36648(11) 0.82618(12) 0.87992(17)
C9_6 C 0.37681(10) 0.87319(14) 0.83836(18)
C14_6 C 0.34973(11) 0.95183(15) 0.7392(2)
C17_6 C 0.33989(11) 0.90687(15) 0.77487(19)
H5_6 H 0.3082 0.8987 0.7565
C23_6 C 0.39748(11) 0.96371(16) 0.7673(2)
C25_6 C 0.43400(12) 0.93013(19) 0.8294(3)
H8_6 H 0.4658 0.9381 0.8481
C27_6 C 0.42320(11) 0.88493(17) 0.8634(2)
H10_6 H 0.4479 0.8615 0.9047
C40_6 C 0.31666(12) 0.99429(16) 0.6709(2)
H24_6 H 0.2947 0.9725 0.6206
N3_4 N 0.23480(7) 0.76890(9) 0.84486(13)
O9_4 O 0.39532(7) 0.66931(9) 0.93826(12)
O12_4 O 0.31787(7) 0.69257(9) 0.86560(13)
C1_7 C 0.00685(14) 0.7480(3) 0.6605(3)
C3_7 C 0.13526(9) 0.77249(12) 0.74340(17)
C4_7 C 0.08216(9) 0.77382(13) 0.69042(17)
C13_7 C 0.15864(10) 0.73573(14) 0.8096(2)
H3_7 H 0.1411 0.7112 0.8220
C15_7 C 0.21218(10) 0.80509(15) 0.78015(18)
H4_7 H 0.2305 0.8291 0.7688
C29_7 C 0.16297(10) 0.80863(15) 0.72925(18)
H13_7 H 0.1486 0.8354 0.6854
C30_7 C 0.05582(15) 0.7507(3) 0.7131(3)
H14_7 H 0.0705 0.7356 0.7660
C37_7 C 0.00766(12) 0.8006(2) 0.5740(3)
C38_7 C 0.20774(10) 0.73440(14) 0.8583(2)
H21_7 H 0.2227 0.7082 0.9028
C39_7 C 0.05716(12) 0.8043(3) 0.6232(3)
H22_7 H 0.0729 0.8293 0.6076
C6_7 C 0.85222(11) 0.16158(12) 0.87986(18)
C18_7 C 0.86854(11) 0.03080(14) 0.7764(2)
C19_7 C 0.84177(11) 0.11003(14) 0.82375(19)
C20_7 C 0.87895(11) 0.07750(14) 0.82890(18)
H6_7 H 0.9108 0.0876 0.8681
H11_7 H 0.9223 0.0126 0.7587
C32_7 C 0.78403(12) 0.04516(19) 0.7161(2)
H16_7 H 0.7522 0.0336 0.6796
C33_7 C 0.82047(11) 0.01479(16) 0.7195(2)
C36_7 C 0.79540(12) 0.09271(18) 0.7673(2)
H19_7 H 0.7706 0.1144 0.7639
N2_7 N 0.98251(7) 0.77130(10) 0.59069(13)
O1_7 O 0.81124(6) 0.79664(9) 0.49930(11)
O3_7 O 0.90139(7) 0.70346(9) 0.43438(12)
O5_7 O 0.82403(7) 0.67988(9) 0.35903(12)
O8_7 O 0.88927(7) 0.81723(8) 0.57586(12)
H1_7 H 0.9902 0.7271 0.6780
C2_7 C 0.87031(10) 0.33859(11) 0.06257(16)
C5_7 C 0.86648(11) 0.67382(12) 0.37992(17)
C7_7 C 0.83826(9) 0.87387(12) 0.59735(17)
C8_7 C 0.84686(10) 0.82548(11) 0.55442(16)
C9_7 C 0.87681(10) 0.62681(14) 0.33836(18)
C10_7 C 0.87618(10) 0.90423(12) 0.66203(17)
H2_7 H 0.9076 0.8940 0.6808
C11_7 C 0.86722(10) 0.94989(13) 0.69876(19)
C12_7 C 0.87963(10) 0.39051(12) 0.11710(17)
C14_7 C 0.84973(11) 0.54817(15) 0.2392(2)
C16_7 C 0.89795(11) 0.48592(15) 0.2207(2)
C17_7 C 0.83989(11) 0.59313(15) 0.27487(19)
H5_7 H 0.8082 0.6013 0.2565
C21_7 C 0.85104(10) 0.46747(15) 0.16288(19)
C22_7 C 0.84230(10) 0.42074(13) 0.11194(18)
H7_7 H 0.8108 0.4091 0.0732
C23_7 C 0.89748(11) 0.53629(16) 0.2673(2)
C24_7 C 0.81980(10) 0.96468(15) 0.6708(2)
C25_7 C 0.93400(12) 0.56987(19) 0.3294(3)
H8_7 H 0.9658 0.5619 0.3481
C26_7 C 0.79143(11) 0.88715(14) 0.57226(19)
H9_7 H 0.7661 0.8650 0.5300
C27_7 C 0.92320(11) 0.61507(17) 0.3634(2)
H10_7 H 0.9479 0.6385 0.4047
C28_7 C 0.90196(11) 0.98998(15) 0.7701(2)
H12_7 H 0.9220 0.9667 0.8198
C31_7 C 0.93602(11) 0.45479(17) 0.2274(2)
H15_7 H 0.9676 0.4658 0.2667
C34_7 C 0.92654(11) 0.40818(15) 0.1759(2)
H17_7 H 0.9519 0.3876 0.1800
C35_7 C 0.78197(11) 0.93184(16) 0.6083(2)
H18_7 H 0.7505 0.9403 0.5911
H20_7 H 0.9919 0.8215 0.5246
C40_7 C 0.81666(12) 0.50571(16) 0.1709(2)
H23_7 H 0.7983 0.4813 0.1849
H24_7 H 0.7947 0.5275 0.1206
N2_8 N 0.48251(7) 0.27130(10) 0.59069(13)
O1_8 O 0.31124(6) 0.29664(9) 0.49930(11)
O3_8 O 0.40139(7) 0.20346(9) 0.43438(12)
O5_8 O 0.32403(7) 0.17988(9) 0.35903(12)
O8_8 O 0.38927(7) 0.31723(8) 0.57586(12)
C1_8 C 0.50685(14) 0.2480(3) 0.6605(3)
H1_8 H 0.4902 0.2271 0.6780
C3_8 C 0.63526(9) 0.27249(12) 0.74340(17)
C4_8 C 0.58216(9) 0.27382(13) 0.69042(17)
C5_8 C 0.36648(11) 0.17382(12) 0.37992(17)
C6_8 C 0.35222(11) 0.66158(12) 0.87986(18)
C7_8 C 0.33826(9) 0.37387(12) 0.59735(17)
C8_8 C 0.34686(10) 0.32548(11) 0.55442(16)
C9_8 C 0.37681(10) 0.12681(14) 0.33836(18)
C10_8 C 0.37618(10) 0.40423(12) 0.66203(17)
H2_8 H 0.4076 0.3940 0.6808
C11_8 C 0.36722(10) 0.44989(13) 0.69876(19)
C13_8 C 0.65864(10) 0.23573(14) 0.8096(2)
H3_8 H 0.6411 0.2112 0.8220
C14_8 C 0.34973(11) 0.04817(15) 0.2392(2)
C15_8 C 0.71218(10) 0.30509(15) 0.78015(18)
H4_8 H 0.7305 0.3291 0.7688
C17_8 C 0.33989(11) 0.09313(15) 0.27487(19)
H5_8 H 0.3082 0.1013 0.2565
C18_8 C 0.36854(11) 0.53080(14) 0.7764(2)
C19_8 C 0.34177(11) 0.61003(14) 0.82375(19)
C20_8 C 0.37895(11) 0.57750(14) 0.82890(18)
H6_8 H 0.4108 0.5876 0.8681
C23_8 C 0.39748(11) 0.03629(16) 0.2673(2)
C24_8 C 0.31980(10) 0.46468(15) 0.6708(2)
C25_8 C 0.43400(12) 0.06987(19) 0.3294(3)
H8_8 H 0.4658 0.0619 0.3481
C26_8 C 0.29143(11) 0.38715(14) 0.57226(19)
H9_8 H 0.2661 0.3650 0.5300
C27_8 C 0.42320(11) 0.11507(17) 0.3634(2)
H10_8 H 0.4479 0.1385 0.4047
C28_8 C 0.40196(11) 0.48998(15) 0.7701(2)
H11_8 H 0.4223 0.5126 0.7587
H12_8 H 0.4220 0.4667 0.8198
C29_8 C 0.66297(10) 0.30863(15) 0.72925(18)
H13_8 H 0.6486 0.3354 0.6854
C30_8 C 0.55582(15) 0.2507(3) 0.7131(3)
H14_8 H 0.5705 0.2356 0.7660
C32_8 C 0.28403(12) 0.54516(19) 0.7161(2)
H16_8 H 0.2522 0.5336 0.6796
C33_8 C 0.32047(11) 0.51479(16) 0.7195(2)
C35_8 C 0.28197(11) 0.43184(16) 0.6083(2)
H18_8 H 0.2505 0.4403 0.5911
C36_8 C 0.29540(12) 0.59271(18) 0.7673(2)
H19_8 H 0.2706 0.6144 0.7639
C37_8 C 0.50766(12) 0.3006(2) 0.5740(3)
H20_8 H 0.4919 0.3215 0.5246
C38_8 C 0.70774(10) 0.23440(14) 0.8583(2)
H21_8 H 0.7227 0.2082 0.9028
C39_8 C 0.55716(12) 0.3043(3) 0.6232(3)
H22_8 H 0.5729 0.3293 0.6076
C40_8 C 0.31666(12) 0.00571(16) 0.1709(2)
H24_8 H 0.2947 0.0275 0.1206
C2_8 C 0.37031(10) 0.83859(11) 0.06257(16)
C12_8 C 0.37963(10) 0.89051(12) 0.11710(17)
C16_8 C 0.39795(11) 0.98592(15) 0.2207(2)
C21_8 C 0.35104(10) 0.96747(15) 0.16288(19)
C22_8 C 0.34230(10) 0.92074(13) 0.11194(18)
H7_8 H 0.3108 0.9091 0.0732
C31_8 C 0.43602(11) 0.95479(17) 0.2274(2)
H15_8 H 0.4676 0.9658 0.2667
C34_8 C 0.42654(11) 0.90818(15) 0.1759(2)
H17_8 H 0.4519 0.8876 0.1800
H23_8 H 0.2983 0.9813 0.1849
loop_
_geom_bond_atom_site_label_1
_geom_bond_atom_site_label_2
_geom_bond_site_symmetry_1
_geom_bond_site_symmetry_2
Zn1 O1 1_555 1_555
Zn2 N2 1_555 1_555
O1 C8 1_555 1_555
O3 Zn2 1_555 1_555
O4 C2 1_555 1_555
O5 Zn1 1_555 1_555
O6 C2 1_555 1_555
O8 Zn2 1_555 1_555
C2 C12 1_555 1_555
C5 O3 1_555 1_555
C7 C8 1_555 1_555
C8 O8 1_555 1_555
C9 C5 1_555 1_555
C10 C7 1_555 1_555
H2 C10 1_555 1_555
C11 C10 1_555 1_555
C12 C22 1_555 1_555
C14 C17 1_555 1_555
C16 C21 1_555 1_555
C17 C9 1_555 1_555
H5 C17 1_555 1_555
C21 C22 1_555 1_555
C22 H7 1_555 1_555
C23 C14 1_555 1_555
C24 C11 1_555 1_555
C25 C23 1_555 1_555
H8 C25 1_555 1_555
C26 C7 1_555 1_555
H9 C26 1_555 1_555
C27 C9 1_555 1_555
H10 C27 1_555 1_555
C28 C11 1_555 1_555
H12 C28 1_555 1_555
C31 C16 1_555 1_555
H15 C31 1_555 1_555
C34 C12 1_555 1_555
H17 C34 1_555 1_555
C35 C24 1_555 1_555
H18 C35 1_555 1_555
C40 C14 1_555 1_555
H23 C40 1_555 1_555
H24 C40 1_555 1_555
Zn7 O6 1_555 1_555
N3 Zn1 1_555 1_555
O9 Zn2 1_555 1_555
O10 Zn1 1_555 1_555
O11 Zn2 1_555 1_555
O12 Zn1 1_555 1_555
O5 C5 1_555 1_555
C16 C23 1_555 1_555
C21 C40 1_555 1_555
C25 C27 1_555 1_555
C26 C35 1_555 1_555
C31 C34 1_555 1_555
O2 C6 1_555 1_555
O7 C6 1_555 1_555
C6 C19 1_555 1_555
C18 C20 1_555 1_555
C19 C20 1_555 1_555
C20 H6 1_555 1_555
C32 H16 1_555 1_555
C33 C18 1_555 1_555
C36 C19 1_555 1_555
H19 C36 1_555 1_555
Zn4 O7 1_555 1_555
C32 C33 1_555 1_555
C32 C36 1_555 1_555
N1 C15 1_555 1_555
C3 C4 1_555 1_555
C4 C30 1_555 1_555
C13 C3 1_555 1_555
H3 C13 1_555 1_555
C15 H4 1_555 1_555
C29 C3 1_555 1_555
H13 C29 1_555 1_555
C30 C1 1_555 1_555
H14 C30 1_555 1_555
C38 N1 1_555 1_555
H21 C38 1_555 1_555
C39 C4 1_555 1_555
H22 C39 1_555 1_555
Zn5 N1 1_555 1_555
C13 C38 1_555 1_555
C15 C29 1_555 1_555
C37 C39 1_555 1_555
O4_2 C2_2 1_555 1_555
O6_2 C2_2 1_555 1_555
C2_2 C12_2 1_555 1_555
C12_2 C22_2 1_555 1_555
C16_2 C21_2 1_555 1_555
C21_2 C22_2 1_555 1_555
C22_2 H7_2 1_555 1_555
C31_2 C16_2 1_555 1_555
H15_2 C31_2 1_555 1_555
C34_2 C12_2 1_555 1_555
H17_2 C34_2 1_555 1_555
Zn7_2 O6_2 1_555 1_555
C31_2 C34_2 1_555 1_555
Zn1_2 O1_2 1_555 1_555
Zn2_2 N2_2 1_555 1_555
N1_2 C15_2 1_555 1_555
N2_2 C1_2 1_555 1_555
O1_2 C8_2 1_555 1_555
O2_2 C6_2 1_555 1_555
O3_2 Zn2_2 1_555 1_555
O5_2 Zn1_2 1_555 1_555
O7_2 C6_2 1_555 1_555
O8_2 Zn2_2 1_555 1_555
C1_2 H1_2 1_555 1_555
C3_2 C4_2 1_555 1_555
C4_2 C30_2 1_555 1_555
C5_2 O3_2 1_555 1_555
C6_2 C19_2 1_555 1_555
C7_2 C8_2 1_555 1_555
C8_2 O8_2 1_555 1_555
C9_2 C5_2 1_555 1_555
C10_2 C7_2 1_555 1_555
H2_2 C10_2 1_555 1_555
C11_2 C10_2 1_555 1_555
C13_2 C3_2 1_555 1_555
H3_2 C13_2 1_555 1_555
C14_2 C17_2 1_555 1_555
C15_2 H4_2 1_555 1_555
C17_2 C9_2 1_555 1_555
H5_2 C17_2 1_555 1_555
C18_2 C20_2 1_555 1_555
C19_2 C20_2 1_555 1_555
C20_2 H6_2 1_555 1_555
C23_2 C14_2 1_555 1_555
C24_2 C11_2 1_555 1_555
C25_2 C23_2 1_555 1_555
H8_2 C25_2 1_555 1_555
C26_2 C7_2 1_555 1_555
H9_2 C26_2 1_555 1_555
C27_2 C9_2 1_555 1_555
H10_2 C27_2 1_555 1_555
C28_2 C11_2 1_555 1_555
H11_2 C28_2 1_555 1_555
H12_2 C28_2 1_555 1_555
C29_2 C3_2 1_555 1_555
H13_2 C29_2 1_555 1_555
C30_2 C1_2 1_555 1_555
H14_2 C30_2 1_555 1_555
C32_2 H16_2 1_555 1_555
C33_2 C18_2 1_555 1_555
C35_2 C24_2 1_555 1_555
H18_2 C35_2 1_555 1_555
C36_2 C19_2 1_555 1_555
H19_2 C36_2 1_555 1_555
C37_2 N2_2 1_555 1_555
H20_2 C37_2 1_555 1_555
C38_2 N1_2 1_555 1_555
H21_2 C38_2 1_555 1_555
C39_2 C4_2 1_555 1_555
H22_2 C39_2 1_555 1_555
C40_2 C14_2 1_555 1_555
H24_2 C40_2 1_555 1_555
Zn5 O7_2 1_555 1_555
Zn4 N1_2 1_555 1_555
N3_2 Zn1_2 1_555 1_555
O9_2 Zn2_2 1_555 1_555
O10_2 Zn1_2 1_555 1_555
O11_2 Zn2_2 1_555 1_555
O12_2 Zn1_2 1_555 1_555
O5_2 C5_2 1_555 1_555
C13_2 C38_2 1_555 1_555
C15_2 C29_2 1_555 1_555
C18_2 C28_2 1_555 1_555
C24_2 C33_2 1_555 1_555
C25_2 C27_2 1_555 1_555
C26_2 C35_2 1_555 1_555
C32_2 C33_2 1_555 1_555
C32_2 C36_2 1_555 1_555
C37_2 C39_2 1_555 1_555
O9 C6_3 1_555 1_555
O12 C6_3 1_555 1_555
C6_3 C19_3 1_555 1_555
C18_3 C20_3 1_555 1_555
C19_3 C20_3 1_555 1_555
C20_3 H6_3 1_555 1_555
C32_3 H16_3 1_555 1_555
C33_3 C18_3 1_555 1_555
C36_3 C19_3 1_555 1_555
H19_3 C36_3 1_555 1_555
C32_3 C33_3 1_555 1_555
C32_3 C36_3 1_555 1_555
Zn4 O1_3 1_555 1_555
O10 C2_3 1_555 1_555
O5_3 Zn4 1_555 1_555
O11 C2_3 1_555 1_555
C2_3 C12_3 1_555 1_555
C5_3 O3_3 1_555 1_555
C9_3 C5_3 1_555 1_555
C12_3 C22_3 1_555 1_555
C14_3 C17_3 1_555 1_555
C16_3 C21_3 1_555 1_555
C17_3 C9_3 1_555 1_555
H5_3 C17_3 1_555 1_555
C21_3 C22_3 1_555 1_555
C22_3 H7_3 1_555 1_555
C23_3 C14_3 1_555 1_555
C25_3 C23_3 1_555 1_555
H8_3 C25_3 1_555 1_555
C27_3 C9_3 1_555 1_555
H10_3 C27_3 1_555 1_555
C31_3 C16_3 1_555 1_555
H15_3 C31_3 1_555 1_555
C34_3 C12_3 1_555 1_555
H17_3 C34_3 1_555 1_555
C40_3 C14_3 1_555 1_555
H23_3 C40_3 1_555 1_555
H24_3 C40_3 1_555 1_555
O5_3 C5_3 1_555 1_555
C16_3 C23_3 1_555 1_555
C21_3 C40_3 1_555 1_555
C25_3 C27_3 1_555 1_555
C31_3 C34_3 1_555 1_555
Zn7 N2_3 1_555 1_555
O8_3 Zn7 1_555 1_555
C7_3 C8_3 1_555 1_555
C8_3 O8_3 1_555 1_555
C10_3 C7_3 1_555 1_555
H2_3 C10_3 1_555 1_555
C11_3 C10_3 1_555 1_555
C24_3 C11_3 1_555 1_555
C26_3 C7_3 1_555 1_555
H9_3 C26_3 1_555 1_555
C28_3 C11_3 1_555 1_555
H12_3 C28_3 1_555 1_555
C35_3 C24_3 1_555 1_555
H18_3 C35_3 1_555 1_555
C26_3 C35_3 1_555 1_555
N3_2 C15_3 1_555 1_555
C3_3 C4_3 1_555 1_555
C4_3 C30_3 1_555 1_555
C13_3 C3_3 1_555 1_555
H3_3 C13_3 1_555 1_555
C15_3 H4_3 1_555 1_555
C29_3 C3_3 1_555 1_555
H13_3 C29_3 1_555 1_555
C30_3 C1_3 1_555 1_555
H14_3 C30_3 1_555 1_555
C38_3 N3_2 1_555 1_555
H21_3 C38_3 1_555 1_555
C39_3 C4_3 1_555 1_555
H22_3 C39_3 1_555 1_555
C13_3 C38_3 1_555 1_555
C15_3 C29_3 1_555 1_555
C37_3 C39_3 1_555 1_555
Zn5 O1_4 1_555 1_555
O5_4 Zn5 1_555 1_555
C5_4 O3_4 1_555 1_555
C9_4 C5_4 1_555 1_555
C14_4 C17_4 1_555 1_555
C17_4 C9_4 1_555 1_555
H5_4 C17_4 1_555 1_555
C23_4 C14_4 1_555 1_555
C25_4 C23_4 1_555 1_555
H8_4 C25_4 1_555 1_555
C27_4 C9_4 1_555 1_555
H10_4 C27_4 1_555 1_555
C40_4 C14_4 1_555 1_555
H24_4 C40_4 1_555 1_555
O5_4 C5_4 1_555 1_555
C25_4 C27_4 1_555 1_555
Zn7_2 N2_4 1_555 1_555
N3 C15_4 1_555 1_555
N2_4 C1_4 1_555 1_555
O9_2 C6_4 1_555 1_555
O12_2 C6_4 1_555 1_555
O8_4 Zn7_2 1_555 1_555
C1_4 H1_4 1_555 1_555
C3_4 C4_4 1_555 1_555
C4_4 C30_4 1_555 1_555
C6_4 C19_4 1_555 1_555
C7_4 C8_4 1_555 1_555
C8_4 O8_4 1_555 1_555
C10_4 C7_4 1_555 1_555
H2_4 C10_4 1_555 1_555
C11_4 C10_4 1_555 1_555
C13_4 C3_4 1_555 1_555
H3_4 C13_4 1_555 1_555
C15_4 H4_4 1_555 1_555
C18_4 C20_4 1_555 1_555
C19_4 C20_4 1_555 1_555
C20_4 H6_4 1_555 1_555
C24_4 C11_4 1_555 1_555
C26_4 C7_4 1_555 1_555
H9_4 C26_4 1_555 1_555
C28_4 C11_4 1_555 1_555
H11_4 C28_4 1_555 1_555
H12_4 C28_4 1_555 1_555
C29_4 C3_4 1_555 1_555
H13_4 C29_4 1_555 1_555
C30_4 C1_4 1_555 1_555
H14_4 C30_4 1_555 1_555
C32_4 H16_4 1_555 1_555
C33_4 C18_4 1_555 1_555
C35_4 C24_4 1_555 1_555
H18_4 C35_4 1_555 1_555
C36_4 C19_4 1_555 1_555
H19_4 C36_4 1_555 1_555
C37_4 N2_4 1_555 1_555
H20_4 C37_4 1_555 1_555
C38_4 N3 1_555 1_555
H21_4 C38_4 1_555 1_555
C39_4 C4_4 1_555 1_555
H22_4 C39_4 1_555 1_555
C13_4 C38_4 1_555 1_555
C15_4 C29_4 1_555 1_555
C18_4 C28_4 1_555 1_555
C24_4 C33_4 1_555 1_555
C26_4 C35_4 1_555 1_555
C32_4 C33_4 1_555 1_555
C32_4 C36_4 1_555 1_555
C37_4 C39_4 1_555 1_555
O10_2 C2_4 1_555 1_555
O11_2 C2_4 1_555 1_555
C2_4 C12_4 1_555 1_555
C12_4 C22_4 1_555 1_555
C16_4 C21_4 1_555 1_555
C21_4 C22_4 1_555 1_555
C22_4 H7_4 1_555 1_555
C31_4 C16_4 1_555 1_555
H15_4 C31_4 1_555 1_555
C34_4 C12_4 1_555 1_555
H17_4 C34_4 1_555 1_555
C31_4 C34_4 1_555 1_555
N1_3 C15_5 1_555 1_555
C3_5 C4_5 1_555 1_555
C4_5 C30_5 1_555 1_555
C13_5 C3_5 1_555 1_555
H3_5 C13_5 1_555 1_555
C15_5 H4_5 1_555 1_555
C29_5 C3_5 1_555 1_555
H13_5 C29_5 1_555 1_555
C30_5 C1_5 1_555 1_555
H14_5 C30_5 1_555 1_555
C38_5 N1_3 1_555 1_555
H21_5 C38_5 1_555 1_555
C39_5 C4_5 1_555 1_555
H22_5 C39_5 1_555 1_555
Zn5_2 N1_3 1_555 1_555
C13_5 C38_5 1_555 1_555
C15_5 C29_5 1_555 1_555
C37_5 C39_5 1_555 1_555
Zn2_3 N2_5 1_555 1_555
O8_5 Zn2_3 1_555 1_555
C7_5 C8_5 1_555 1_555
C8_5 O8_5 1_555 1_555
C10_5 C7_5 1_555 1_555
H2_5 C10_5 1_555 1_555
C11_5 C10_5 1_555 1_555
C24_5 C11_5 1_555 1_555
C26_5 C7_5 1_555 1_555
H9_5 C26_5 1_555 1_555
C28_5 C11_5 1_555 1_555
H12_5 C28_5 1_555 1_555
C35_5 C24_5 1_555 1_555
H18_5 C35_5 1_555 1_555
O11_3 Zn2_3 1_555 1_555
C26_5 C35_5 1_555 1_555
Zn1_3 O1_5 1_555 1_555
O4_3 C2_5 1_555 1_555
O5_5 Zn1_3 1_555 1_555
O6_3 C2_5 1_555 1_555
C2_5 C12_5 1_555 1_555
C5_5 O3_5 1_555 1_555
C9_5 C5_5 1_555 1_555
C12_5 C22_5 1_555 1_555
C14_5 C17_5 1_555 1_555
C16_5 C21_5 1_555 1_555
C17_5 C9_5 1_555 1_555
H5_5 C17_5 1_555 1_555
C21_5 C22_5 1_555 1_555
C22_5 H7_5 1_555 1_555
C23_5 C14_5 1_555 1_555
C25_5 C23_5 1_555 1_555
H8_5 C25_5 1_555 1_555
C27_5 C9_5 1_555 1_555
H10_5 C27_5 1_555 1_555
C31_5 C16_5 1_555 1_555
H15_5 C31_5 1_555 1_555
C34_5 C12_5 1_555 1_555
H17_5 C34_5 1_555 1_555
C40_5 C14_5 1_555 1_555
H23_5 C40_5 1_555 1_555
H24_5 C40_5 1_555 1_555
Zn4_2 O4_3 1_555 1_555
Zn7_3 O6_3 1_555 1_555
N3_3 Zn1_3 1_555 1_555
O12_3 Zn1_3 1_555 1_555
O5_5 C5_5 1_555 1_555
C16_5 C23_5 1_555 1_555
C21_5 C40_5 1_555 1_555
C25_5 C27_5 1_555 1_555
C31_5 C34_5 1_555 1_555
O2_3 C6_5 1_555 1_555
O7_3 C6_5 1_555 1_555
C6_5 C19_5 1_555 1_555
C18_5 C20_5 1_555 1_555
C19_5 C20_5 1_555 1_555
C20_5 H6_5 1_555 1_555
C32_5 H16_5 1_555 1_555
C33_5 C18_5 1_555 1_555
C36_5 C19_5 1_555 1_555
H19_5 C36_5 1_555 1_555
Zn4_2 O7_3 1_555 1_555
Zn7_3 O2_3 1_555 1_555
C32_5 C33_5 1_555 1_555
C32_5 C36_5 1_555 1_555
O4_4 C2_6 1_555 1_555
O6_4 C2_6 1_555 1_555
C2_6 C12_6 1_555 1_555
C12_6 C22_6 1_555 1_555
C16_6 C21_6 1_555 1_555
C21_6 C22_6 1_555 1_555
C22_6 H7_6 1_555 1_555
C31_6 C16_6 1_555 1_555
H15_6 C31_6 1_555 1_555
C34_6 C12_6 1_555 1_555
H17_6 C34_6 1_555 1_555
Zn5_2 O4_4 1_555 1_555
Zn7_4 O6_4 1_555 1_555
C31_6 C34_6 1_555 1_555
Zn2_4 N2_6 1_555 1_555
N1_4 C15_6 1_555 1_555
N2_6 C1_6 1_555 1_555
O2_4 C6_6 1_555 1_555
O7_4 C6_6 1_555 1_555
O8_6 Zn2_4 1_555 1_555
C1_6 H1_6 1_555 1_555
C3_6 C4_6 1_555 1_555
C4_6 C30_6 1_555 1_555
C6_6 C19_6 1_555 1_555
C7_6 C8_6 1_555 1_555
C8_6 O8_6 1_555 1_555
C10_6 C7_6 1_555 1_555
H2_6 C10_6 1_555 1_555
C11_6 C10_6 1_555 1_555
C13_6 C3_6 1_555 1_555
H3_6 C13_6 1_555 1_555
C15_6 H4_6 1_555 1_555
C18_6 C20_6 1_555 1_555
C19_6 C20_6 1_555 1_555
C20_6 H6_6 1_555 1_555
C24_6 C11_6 1_555 1_555
C26_6 C7_6 1_555 1_555
H9_6 C26_6 1_555 1_555
C28_6 C11_6 1_555 1_555
H11_6 C28_6 1_555 1_555
H12_6 C28_6 1_555 1_555
C29_6 C3_6 1_555 1_555
H13_6 C29_6 1_555 1_555
C30_6 C1_6 1_555 1_555
H14_6 C30_6 1_555 1_555
C32_6 H16_6 1_555 1_555
C33_6 C18_6 1_555 1_555
C35_6 C24_6 1_555 1_555
H18_6 C35_6 1_555 1_555
C36_6 C19_6 1_555 1_555
H19_6 C36_6 1_555 1_555
C37_6 N2_6 1_555 1_555
H20_6 C37_6 1_555 1_555
C38_6 N1_4 1_555 1_555
H21_6 C38_6 1_555 1_555
C39_6 C4_6 1_555 1_555
H22_6 C39_6 1_555 1_555
Zn5_2 O7_4 1_555 1_555
Zn4_2 N1_4 1_555 1_555
Zn7_4 O2_4 1_555 1_555
O11_4 Zn2_4 1_555 1_555
C13_6 C38_6 1_555 1_555
C15_6 C29_6 1_555 1_555
C18_6 C28_6 1_555 1_555
C24_6 C33_6 1_555 1_555
C26_6 C35_6 1_555 1_555
C32_6 C33_6 1_555 1_555
C32_6 C36_6 1_555 1_555
C37_6 C39_6 1_555 1_555
Zn1_4 O1_6 1_555 1_555
O5_6 Zn1_4 1_555 1_555
C5_6 O3_6 1_555 1_555
C9_6 C5_6 1_555 1_555
C14_6 C17_6 1_555 1_555
C17_6 C9_6 1_555 1_555
H5_6 C17_6 1_555 1_555
C23_6 C14_6 1_555 1_555
C25_6 C23_6 1_555 1_555
H8_6 C25_6 1_555 1_555
C27_6 C9_6 1_555 1_555
H10_6 C27_6 1_555 1_555
C40_6 C14_6 1_555 1_555
H24_6 C40_6 1_555 1_555
N3_4 Zn1_4 1_555 1_555
O12_4 Zn1_4 1_555 1_555
O5_6 C5_6 1_555 1_555
C25_6 C27_6 1_555 1_555
N3_4 C15_7 1_555 1_555
C3_7 C4_7 1_555 1_555
C4_7 C30_7 1_555 1_555
C13_7 C3_7 1_555 1_555
H3_7 C13_7 1_555 1_555
C15_7 H4_7 1_555 1_555
C29_7 C3_7 1_555 1_555
H13_7 C29_7 1_555 1_555
C30_7 C1_7 1_555 1_555
H14_7 C30_7 1_555 1_555
C38_7 N3_4 1_555 1_555
H21_7 C38_7 1_555 1_555
C39_7 C4_7 1_555 1_555
H22_7 C39_7 1_555 1_555
C13_7 C38_7 1_555 1_555
C15_7 C29_7 1_555 1_555
C37_7 C39_7 1_555 1_555
O9_3 C6_7 1_555 1_555
O12_3 C6_7 1_555 1_555
C6_7 C19_7 1_555 1_555
C18_7 C20_7 1_555 1_555
C19_7 C20_7 1_555 1_555
C20_7 H6_7 1_555 1_555
C32_7 H16_7 1_555 1_555
C33_7 C18_7 1_555 1_555
C36_7 C19_7 1_555 1_555
H19_7 C36_7 1_555 1_555
C32_7 C33_7 1_555 1_555
C32_7 C36_7 1_555 1_555
Zn4_2 O1_7 1_555 1_555
Zn7_3 N2_7 1_555 1_555
O1_7 C8_7 1_555 1_555
O3_7 Zn7_3 1_555 1_555
O10_3 C2_7 1_555 1_555
O5_7 Zn4_2 1_555 1_555
O11_3 C2_7 1_555 1_555
O8_7 Zn7_3 1_555 1_555
C2_7 C12_7 1_555 1_555
C5_7 O3_7 1_555 1_555
C7_7 C8_7 1_555 1_555
C8_7 O8_7 1_555 1_555
C9_7 C5_7 1_555 1_555
C10_7 C7_7 1_555 1_555
H2_7 C10_7 1_555 1_555
C11_7 C10_7 1_555 1_555
C12_7 C22_7 1_555 1_555
C14_7 C17_7 1_555 1_555
C16_7 C21_7 1_555 1_555
C17_7 C9_7 1_555 1_555
H5_7 C17_7 1_555 1_555
C21_7 C22_7 1_555 1_555
C22_7 H7_7 1_555 1_555
C23_7 C14_7 1_555 1_555
C24_7 C11_7 1_555 1_555
C25_7 C23_7 1_555 1_555
H8_7 C25_7 1_555 1_555
C26_7 C7_7 1_555 1_555
H9_7 C26_7 1_555 1_555
C27_7 C9_7 1_555 1_555
H10_7 C27_7 1_555 1_555
C28_7 C11_7 1_555 1_555
H12_7 C28_7 1_555 1_555
C31_7 C16_7 1_555 1_555
H15_7 C31_7 1_555 1_555
C34_7 C12_7 1_555 1_555
H17_7 C34_7 1_555 1_555
C35_7 C24_7 1_555 1_555
H18_7 C35_7 1_555 1_555
C40_7 C14_7 1_555 1_555
H23_7 C40_7 1_555 1_555
H24_7 C40_7 1_555 1_555
O5_7 C5_7 1_555 1_555
C16_7 C23_7 1_555 1_555
C21_7 C40_7 1_555 1_555
C25_7 C27_7 1_555 1_555
C26_7 C35_7 1_555 1_555
C31_7 C34_7 1_555 1_555
Zn5_2 O1_8 1_555 1_555
Zn7_4 N2_8 1_555 1_555
N3_3 C15_8 1_555 1_555
N2_8 C1_8 1_555 1_555
O1_8 C8_8 1_555 1_555
O9_4 C6_8 1_555 1_555
O3_8 Zn7_4 1_555 1_555
O5_8 Zn5_2 1_555 1_555
O12_4 C6_8 1_555 1_555
O8_8 Zn7_4 1_555 1_555
C1_8 H1_8 1_555 1_555
C3_8 C4_8 1_555 1_555
C4_8 C30_8 1_555 1_555
C5_8 O3_8 1_555 1_555
C6_8 C19_8 1_555 1_555
C7_8 C8_8 1_555 1_555
C8_8 O8_8 1_555 1_555
C9_8 C5_8 1_555 1_555
C10_8 C7_8 1_555 1_555
H2_8 C10_8 1_555 1_555
C11_8 C10_8 1_555 1_555
C13_8 C3_8 1_555 1_555
H3_8 C13_8 1_555 1_555
C14_8 C17_8 1_555 1_555
C15_8 H4_8 1_555 1_555
C17_8 C9_8 1_555 1_555
H5_8 C17_8 1_555 1_555
C18_8 C20_8 1_555 1_555
C19_8 C20_8 1_555 1_555
C20_8 H6_8 1_555 1_555
C23_8 C14_8 1_555 1_555
C24_8 C11_8 1_555 1_555
C25_8 C23_8 1_555 1_555
H8_8 C25_8 1_555 1_555
C26_8 C7_8 1_555 1_555
H9_8 C26_8 1_555 1_555
C27_8 C9_8 1_555 1_555
H10_8 C27_8 1_555 1_555
C28_8 C11_8 1_555 1_555
H11_8 C28_8 1_555 1_555
H12_8 C28_8 1_555 1_555
C29_8 C3_8 1_555 1_555
H13_8 C29_8 1_555 1_555
C30_8 C1_8 1_555 1_555
H14_8 C30_8 1_555 1_555
C32_8 H16_8 1_555 1_555
C33_8 C18_8 1_555 1_555
C35_8 C24_8 1_555 1_555
H18_8 C35_8 1_555 1_555
C36_8 C19_8 1_555 1_555
H19_8 C36_8 1_555 1_555
C37_8 N2_8 1_555 1_555
H20_8 C37_8 1_555 1_555
C38_8 N3_3 1_555 1_555
H21_8 C38_8 1_555 1_555
C39_8 C4_8 1_555 1_555
H22_8 C39_8 1_555 1_555
C40_8 C14_8 1_555 1_555
H24_8 C40_8 1_555 1_555
O5_8 C5_8 1_555 1_555
C13_8 C38_8 1_555 1_555
C15_8 C29_8 1_555 1_555
C18_8 C28_8 1_555 1_555
C24_8 C33_8 1_555 1_555
C25_8 C27_8 1_555 1_555
C26_8 C35_8 1_555 1_555
C32_8 C33_8 1_555 1_555
C32_8 C36_8 1_555 1_555
C37_8 C39_8 1_555 1_555
O10_4 C2_8 1_555 1_555
O11_4 C2_8 1_555 1_555
C2_8 C12_8 1_555 1_555
C12_8 C22_8 1_555 1_555
C16_8 C21_8 1_555 1_555
C21_8 C22_8 1_555 1_555
C22_8 H7_8 1_555 1_555
C31_8 C16_8 1_555 1_555
H15_8 C31_8 1_555 1_555
C34_8 C12_8 1_555 1_555
H17_8 C34_8 1_555 1_555
C31_8 C34_8 1_555 1_555

#END
