
###############################################################################
#
# This file contains modified crystal structure data generated from the
# MOF subset of the Cambridge Structural Database (CSD) v543 
# hosted by the Cambridge Crystallographic Data Centre (CCDC).
#
# This work is licensed under the Creative Commons
# Attribution-NonCommercial-ShareAlike 4.0 International License.
# To view a copy of this license, visit
# http://creativecommons.org/licenses/by-nc-sa/4.0/
# or send a letter to
# Creative Commons, PO Box 1866, Mountain View, CA 94042, USA.
#
# CIF created using the CSD Python API on 29 September 2022
# The structure has been converted into the P1 space group
# The structure has a 3D framework
# The original CSD entry COJMOF is in the monoclinic crystal system
# The framework has been calculated to contain at least 10.0% void space
# The void calculation uses a probe of radius 1.32A, grid spacing 0.4
#
###############################################################################

data_COJMOF
_chemical_formula_moiety         '(C320 H192 N16 O64 Zn16)n'
_symmetry_cell_setting           triclinic
_symmetry_space_group_name_H-M   'P 1'
_symmetry_Int_Tables_number      1
_space_group_name_Hall           'P 1'
loop_
_symmetry_equiv_pos_site_id
_symmetry_equiv_pos_as_xyz
1 x,y,z
_cell_length_a                   33.559(7)
_cell_length_b                   22.171(4)
_cell_length_c                   19.706(4)
_cell_angle_alpha                90
_cell_angle_beta                 124.022(3)
_cell_angle_gamma                90
_cell_volume                     12152.2
loop_
_atom_site_label
_atom_site_type_symbol
_atom_site_fract_x
_atom_site_fract_y
_atom_site_fract_z
Zn4 Zn 0.192749(19) 0.73641(3) 0.08119(3)
Zn1 Zn 0.192749(19) 0.26359(3) 0.58119(3)
Zn2 Zn 0.089941(19) 0.23606(3) 0.48199(3)
N2 N 0.01733(16) 0.2288(2) 0.4094(3)
O1 O 0.18869(15) 0.2035(2) 0.5004(3)
O3 O 0.09869(16) 0.2964(2) 0.5659(3)
O4 O 0.17206(15) 0.67097(19) 0.9955(3)
O5 O 0.17608(15) 0.3202(2) 0.6413(3)
O6 O 0.09428(15) 0.6924(2) 0.9207(3)
O8 O 0.11089(15) 0.1828(2) 0.4241(3)
H1 H 0.0095 0.2728 0.3215
C2 C 0.1294(2) 0.6612(3) 0.9371(4)
C5 C 0.1335(2) 0.3259(3) 0.6203(4)
C7 C 0.1619(2) 0.1260(3) 0.4029(4)
C8 C 0.1533(2) 0.1746(3) 0.4454(3)
C9 C 0.1232(2) 0.3735(3) 0.6616(4)
C10 C 0.1238(2) 0.0959(3) 0.3381(4)
H2 H 0.0925 0.1063 0.3195
C11 C 0.1327(2) 0.0500(3) 0.3011(4)
C12 C 0.1205(2) 0.6096(3) 0.8829(4)
C14 C 0.1503(2) 0.4525(4) 0.7605(5)
C16 C 0.1021(2) 0.5145(3) 0.7791(5)
C17 C 0.1603(2) 0.4068(3) 0.7252(5)
H5 H 0.1920 0.3982 0.7441
C21 C 0.1490(2) 0.5327(3) 0.8369(4)
C22 C 0.1579(2) 0.5793(3) 0.8880(4)
H7 H 0.1894 0.5910 0.9267
C23 C 0.1026(2) 0.4644(4) 0.7316(5)
C24 C 0.1803(2) 0.0354(3) 0.3293(5)
C25 C 0.0659(3) 0.4311(5) 0.6692(6)
H8 H 0.0340 0.4397 0.6498
C26 C 0.2083(2) 0.1132(3) 0.4277(4)
H9 H 0.2335 0.1356 0.4698
C27 C 0.0767(3) 0.3852(4) 0.6362(6)
H10 H 0.0520 0.3614 0.5955
C28 C 0.0983(2) 0.0099(4) 0.2296(5)
H12 H 0.0783 0.0332 0.1800
C31 C 0.0641(3) 0.5449(4) 0.7728(6)
H15 H 0.0326 0.5333 0.7344
C34 C 0.0738(2) 0.5924(4) 0.8241(5)
H17 H 0.0484 0.6137 0.8192
C35 C 0.2180(2) 0.0681(4) 0.3916(5)
H18 H 0.2495 0.0597 0.4089
H20 H 0.0083 0.1782 0.4755
C40 C 0.1832(3) 0.4948(4) 0.8281(5)
H23 H 0.2012 0.5194 0.8135
H24 H 0.2055 0.4731 0.8783
Zn7 Zn 0.089941(19) 0.76394(3) 0.98199(3)
N3 N 0.26525(16) 0.2688(2) 0.6551(3)
O9 O 0.10459(17) 0.1694(2) 0.5616(3)
O10 O 0.17206(15) 0.32903(19) 0.4955(3)
O11 O 0.09428(15) 0.3076(2) 0.4207(3)
O12 O 0.18213(16) 0.1925(2) 0.6346(3)
O2 O 0.10459(17) 0.8306(2) 0.0616(3)
O7 O 0.18213(16) 0.8075(2) 0.1346(3)
C6 C 0.1477(3) 0.8383(3) 0.1200(4)
C18 C 0.1315(2) 0.9693(3) 0.2231(4)
C19 C 0.1583(2) 0.8902(3) 0.1769(4)
C20 C 0.1209(2) 0.9224(3) 0.1710(4)
H6 H 0.0891 0.9120 0.1320
H11 H 0.0779 0.9871 0.2408
C32 C 0.2161(3) 0.9551(5) 0.2846(6)
H16 H 0.2478 0.9670 0.3209
C33 C 0.1797(3) 0.9851(4) 0.2805(5)
C36 C 0.2046(3) 0.9064(4) 0.2333(6)
H19 H 0.2292 0.8839 0.2374
N1 N 0.76525(16) 0.2312(2) 0.1551(3)
C1 C 0.9928(3) 0.2522(8) 0.3392(8)
C3 C 0.8648(2) 0.2275(3) 0.2569(4)
C4 C 0.9181(2) 0.2261(3) 0.3102(4)
C13 C 0.8414(2) 0.2646(3) 0.1904(5)
H3 H 0.8589 0.2895 0.1783
C15 C 0.7879(2) 0.1955(4) 0.2201(4)
H4 H 0.7695 0.1719 0.2317
C29 C 0.8371(2) 0.1917(4) 0.2713(4)
H13 H 0.8514 0.1651 0.3152
C30 C 0.9445(3) 0.2502(8) 0.2872(8)
H14 H 0.9298 0.2659 0.2346
C37 C 0.9925(3) 0.1994(6) 0.4264(7)
C38 C 0.7924(2) 0.2653(3) 0.1415(4)
H21 H 0.7773 0.2910 0.0965
C39 C 0.9427(3) 0.1964(6) 0.3767(7)
H22 H 0.9268 0.1718 0.3924
Zn5 Zn 0.692749(19) 0.23641(3) 0.08119(3)
O4_2 O 0.67206(15) 0.17097(19) 0.9955(3)
O6_2 O 0.59428(15) 0.1924(2) 0.9207(3)
C2_2 C 0.6294(2) 0.1612(3) 0.9371(4)
C12_2 C 0.6205(2) 0.1096(3) 0.8829(4)
C16_2 C 0.6021(2) 0.0145(3) 0.7791(5)
C21_2 C 0.6490(2) 0.0327(3) 0.8369(4)
C22_2 C 0.6579(2) 0.0793(3) 0.8880(4)
H7_2 H 0.6894 0.0910 0.9267
C31_2 C 0.5641(3) 0.0449(4) 0.7728(6)
H15_2 H 0.5326 0.0333 0.7344
C34_2 C 0.5738(2) 0.0924(4) 0.8241(5)
H17_2 H 0.5484 0.1137 0.8192
H23_2 H 0.7012 0.0194 0.8135
Zn7_2 Zn 0.589941(19) 0.26394(3) 0.98199(3)
Zn1_2 Zn 0.692749(19) 0.76359(3) 0.58119(3)
Zn2_2 Zn 0.589941(19) 0.73606(3) 0.48199(3)
N1_2 N 0.26525(16) 0.7312(2) 0.1551(3)
N2_2 N 0.51733(16) 0.7288(2) 0.4094(3)
O1_2 O 0.68869(15) 0.7035(2) 0.5004(3)
O2_2 O 0.60459(17) 0.3306(2) 0.0616(3)
O3_2 O 0.59869(16) 0.7964(2) 0.5659(3)
O5_2 O 0.67608(15) 0.8202(2) 0.6413(3)
O7_2 O 0.68213(16) 0.3075(2) 0.1346(3)
O8_2 O 0.61089(15) 0.6828(2) 0.4241(3)
C1_2 C 0.4928(3) 0.7522(8) 0.3392(8)
H1_2 H 0.5095 0.7728 0.3215
C3_2 C 0.3648(2) 0.7275(3) 0.2569(4)
C4_2 C 0.4181(2) 0.7261(3) 0.3102(4)
C5_2 C 0.6335(2) 0.8259(3) 0.6203(4)
C6_2 C 0.6477(3) 0.3383(3) 0.1200(4)
C7_2 C 0.6619(2) 0.6260(3) 0.4029(4)
C8_2 C 0.6533(2) 0.6746(3) 0.4454(3)
C9_2 C 0.6232(2) 0.8735(3) 0.6616(4)
C10_2 C 0.6238(2) 0.5959(3) 0.3381(4)
H2_2 H 0.5925 0.6063 0.3195
C11_2 C 0.6327(2) 0.5500(3) 0.3011(4)
C13_2 C 0.3414(2) 0.7646(3) 0.1904(5)
H3_2 H 0.3589 0.7895 0.1783
C14_2 C 0.6503(2) 0.9525(4) 0.7605(5)
C15_2 C 0.2879(2) 0.6955(4) 0.2201(4)
H4_2 H 0.2695 0.6719 0.2317
C17_2 C 0.6603(2) 0.9068(3) 0.7252(5)
H5_2 H 0.6920 0.8982 0.7441
C18_2 C 0.6315(2) 0.4693(3) 0.2231(4)
C19_2 C 0.6583(2) 0.3902(3) 0.1769(4)
C20_2 C 0.6209(2) 0.4224(3) 0.1710(4)
H6_2 H 0.5891 0.4120 0.1320
C23_2 C 0.6026(2) 0.9644(4) 0.7316(5)
C24_2 C 0.6803(2) 0.5354(3) 0.3293(5)
C25_2 C 0.5659(3) 0.9311(5) 0.6692(6)
H8_2 H 0.5340 0.9397 0.6498
C26_2 C 0.7083(2) 0.6132(3) 0.4277(4)
H9_2 H 0.7335 0.6356 0.4698
C27_2 C 0.5767(3) 0.8852(4) 0.6362(6)
H10_2 H 0.5520 0.8614 0.5955
C28_2 C 0.5983(2) 0.5099(4) 0.2296(5)
H11_2 H 0.5779 0.4871 0.2408
H12_2 H 0.5783 0.5332 0.1800
C29_2 C 0.3371(2) 0.6917(4) 0.2713(4)
H13_2 H 0.3514 0.6651 0.3152
C30_2 C 0.4445(3) 0.7502(8) 0.2872(8)
H14_2 H 0.4298 0.7659 0.2346
C32_2 C 0.7161(3) 0.4551(5) 0.2846(6)
H16_2 H 0.7478 0.4670 0.3209
C33_2 C 0.6797(3) 0.4851(4) 0.2805(5)
C35_2 C 0.7180(2) 0.5681(4) 0.3916(5)
H18_2 H 0.7495 0.5597 0.4089
C36_2 C 0.7046(3) 0.4064(4) 0.2333(6)
H19_2 H 0.7292 0.3839 0.2374
C37_2 C 0.4925(3) 0.6994(6) 0.4264(7)
H20_2 H 0.5083 0.6782 0.4755
C38_2 C 0.2924(2) 0.7653(3) 0.1415(4)
H21_2 H 0.2773 0.7910 0.0965
C39_2 C 0.4427(3) 0.6964(6) 0.3767(7)
H22_2 H 0.4268 0.6718 0.3924
C40_2 C 0.6832(3) 0.9948(4) 0.8281(5)
H24_2 H 0.7055 0.9731 0.8783
N3_2 N 0.76525(16) 0.7688(2) 0.6551(3)
O9_2 O 0.60459(17) 0.6694(2) 0.5616(3)
O10_2 O 0.67206(15) 0.82903(19) 0.4955(3)
O11_2 O 0.59428(15) 0.8076(2) 0.4207(3)
O12_2 O 0.68213(16) 0.6925(2) 0.6346(3)
C6_3 C 0.1477(3) 0.1617(3) 0.6200(4)
C18_3 C 0.1315(2) 0.0307(3) 0.7231(4)
C19_3 C 0.1583(2) 0.1098(3) 0.6769(4)
C20_3 C 0.1209(2) 0.0776(3) 0.6710(4)
H6_3 H 0.0891 0.0880 0.6320
H11_3 H 0.0779 0.0129 0.7408
C32_3 C 0.2161(3) 0.0449(5) 0.7846(6)
H16_3 H 0.2478 0.0330 0.8209
C33_3 C 0.1797(3) 0.0149(4) 0.7805(5)
C36_3 C 0.2046(3) 0.0936(4) 0.7333(6)
H19_3 H 0.2292 0.1161 0.7374
O1_3 O 0.18869(15) 0.7965(2) 0.0004(3)
O3_3 O 0.09869(16) 0.7036(2) 0.0659(3)
O5_3 O 0.17608(15) 0.6798(2) 0.1413(3)
C2_3 C 0.1294(2) 0.3388(3) 0.4371(4)
C5_3 C 0.1335(2) 0.6741(3) 0.1203(4)
C9_3 C 0.1232(2) 0.6265(3) 0.1616(4)
C12_3 C 0.1205(2) 0.3904(3) 0.3829(4)
C14_3 C 0.1503(2) 0.5475(4) 0.2605(5)
C16_3 C 0.1021(2) 0.4855(3) 0.2791(5)
C17_3 C 0.1603(2) 0.5932(3) 0.2252(5)
H5_3 H 0.1920 0.6018 0.2441
C21_3 C 0.1490(2) 0.4673(3) 0.3369(4)
C22_3 C 0.1579(2) 0.4207(3) 0.3880(4)
H7_3 H 0.1894 0.4090 0.4267
C23_3 C 0.1026(2) 0.5356(4) 0.2316(5)
C25_3 C 0.0659(3) 0.5689(5) 0.1692(6)
H8_3 H 0.0340 0.5603 0.1498
C27_3 C 0.0767(3) 0.6148(4) 0.1362(6)
H10_3 H 0.0520 0.6386 0.0955
C31_3 C 0.0641(3) 0.4551(4) 0.2728(6)
H15_3 H 0.0326 0.4667 0.2344
C34_3 C 0.0738(2) 0.4076(4) 0.3241(5)
H17_3 H 0.0484 0.3863 0.3192
C40_3 C 0.1832(3) 0.5052(4) 0.3281(5)
H23_3 H 0.2012 0.4806 0.3135
H24_3 H 0.2055 0.5269 0.3783
N2_3 N 0.01733(16) 0.7712(2) 0.9094(3)
O8_3 O 0.11089(15) 0.8172(2) 0.9241(3)
H1_3 H 0.0095 0.7272 0.8215
C7_3 C 0.1619(2) 0.8740(3) 0.9029(4)
C8_3 C 0.1533(2) 0.8254(3) 0.9454(3)
C10_3 C 0.1238(2) 0.9041(3) 0.8381(4)
H2_3 H 0.0925 0.8937 0.8195
C11_3 C 0.1327(2) 0.9500(3) 0.8011(4)
C24_3 C 0.1803(2) 0.9646(3) 0.8293(5)
C26_3 C 0.2083(2) 0.8868(3) 0.9277(4)
H9_3 H 0.2335 0.8644 0.9698
C28_3 C 0.0983(2) 0.9901(4) 0.7296(5)
H12_3 H 0.0783 0.9668 0.6800
C35_3 C 0.2180(2) 0.9319(4) 0.8916(5)
H18_3 H 0.2495 0.9403 0.9089
H20_3 H 0.0083 0.8218 0.9755
C1_3 C 0.9928(3) 0.7478(8) 0.8392(8)
C3_3 C 0.8648(2) 0.7725(3) 0.7569(4)
C4_3 C 0.9181(2) 0.7739(3) 0.8102(4)
C13_3 C 0.8414(2) 0.7354(3) 0.6904(5)
H3_3 H 0.8589 0.7105 0.6783
C15_3 C 0.7879(2) 0.8045(4) 0.7201(4)
H4_3 H 0.7695 0.8281 0.7317
C29_3 C 0.8371(2) 0.8083(4) 0.7713(4)
H13_3 H 0.8514 0.8349 0.8152
C30_3 C 0.9445(3) 0.7498(8) 0.7872(8)
H14_3 H 0.9298 0.7341 0.7346
C37_3 C 0.9925(3) 0.8006(6) 0.9264(7)
C38_3 C 0.7924(2) 0.7347(3) 0.6415(4)
H21_3 H 0.7773 0.7090 0.5965
C39_3 C 0.9427(3) 0.8036(6) 0.8767(7)
H22_3 H 0.9268 0.8282 0.8924
O1_4 O 0.68869(15) 0.2965(2) 0.0004(3)
O3_4 O 0.59869(16) 0.2036(2) 0.0659(3)
O5_4 O 0.67608(15) 0.1798(2) 0.1413(3)
C5_4 C 0.6335(2) 0.1741(3) 0.1203(4)
C9_4 C 0.6232(2) 0.1265(3) 0.1616(4)
C14_4 C 0.6503(2) 0.0475(4) 0.2605(5)
C17_4 C 0.6603(2) 0.0932(3) 0.2252(5)
H5_4 H 0.6920 0.1018 0.2441
C23_4 C 0.6026(2) 0.0356(4) 0.2316(5)
C25_4 C 0.5659(3) 0.0689(5) 0.1692(6)
H8_4 H 0.5340 0.0603 0.1498
C27_4 C 0.5767(3) 0.1148(4) 0.1362(6)
H10_4 H 0.5520 0.1386 0.0955
C40_4 C 0.6832(3) 0.0052(4) 0.3281(5)
H24_4 H 0.7055 0.0269 0.3783
N2_4 N 0.51733(16) 0.2712(2) 0.9094(3)
O8_4 O 0.61089(15) 0.3172(2) 0.9241(3)
C1_4 C 0.4928(3) 0.2478(8) 0.8392(8)
H1_4 H 0.5095 0.2272 0.8215
C3_4 C 0.3648(2) 0.2725(3) 0.7569(4)
C4_4 C 0.4181(2) 0.2739(3) 0.8102(4)
C6_4 C 0.6477(3) 0.6617(3) 0.6200(4)
C7_4 C 0.6619(2) 0.3740(3) 0.9029(4)
C8_4 C 0.6533(2) 0.3254(3) 0.9454(3)
C10_4 C 0.6238(2) 0.4041(3) 0.8381(4)
H2_4 H 0.5925 0.3937 0.8195
C11_4 C 0.6327(2) 0.4500(3) 0.8011(4)
C13_4 C 0.3414(2) 0.2354(3) 0.6904(5)
H3_4 H 0.3589 0.2105 0.6783
C15_4 C 0.2879(2) 0.3045(4) 0.7201(4)
H4_4 H 0.2695 0.3281 0.7317
C18_4 C 0.6315(2) 0.5307(3) 0.7231(4)
C19_4 C 0.6583(2) 0.6098(3) 0.6769(4)
C20_4 C 0.6209(2) 0.5776(3) 0.6710(4)
H6_4 H 0.5891 0.5880 0.6320
C24_4 C 0.6803(2) 0.4646(3) 0.8293(5)
C26_4 C 0.7083(2) 0.3868(3) 0.9277(4)
H9_4 H 0.7335 0.3644 0.9698
C28_4 C 0.5983(2) 0.4901(4) 0.7296(5)
H11_4 H 0.5779 0.5129 0.7408
H12_4 H 0.5783 0.4668 0.6800
C29_4 C 0.3371(2) 0.3083(4) 0.7713(4)
H13_4 H 0.3514 0.3349 0.8152
C30_4 C 0.4445(3) 0.2498(8) 0.7872(8)
H14_4 H 0.4298 0.2341 0.7346
C32_4 C 0.7161(3) 0.5449(5) 0.7846(6)
H16_4 H 0.7478 0.5330 0.8209
C33_4 C 0.6797(3) 0.5149(4) 0.7805(5)
C35_4 C 0.7180(2) 0.4319(4) 0.8916(5)
H18_4 H 0.7495 0.4403 0.9089
C36_4 C 0.7046(3) 0.5936(4) 0.7333(6)
H19_4 H 0.7292 0.6161 0.7374
C37_4 C 0.4925(3) 0.3006(6) 0.9264(7)
H20_4 H 0.5083 0.3218 0.9755
C38_4 C 0.2924(2) 0.2347(3) 0.6415(4)
H21_4 H 0.2773 0.2090 0.5965
C39_4 C 0.4427(3) 0.3036(6) 0.8767(7)
H22_4 H 0.4268 0.3282 0.8924
C2_4 C 0.6294(2) 0.8388(3) 0.4371(4)
C12_4 C 0.6205(2) 0.8904(3) 0.3829(4)
C16_4 C 0.6021(2) 0.9855(3) 0.2791(5)
C21_4 C 0.6490(2) 0.9673(3) 0.3369(4)
C22_4 C 0.6579(2) 0.9207(3) 0.3880(4)
H7_4 H 0.6894 0.9090 0.4267
C31_4 C 0.5641(3) 0.9551(4) 0.2728(6)
H15_4 H 0.5326 0.9667 0.2344
C34_4 C 0.5738(2) 0.9076(4) 0.3241(5)
H17_4 H 0.5484 0.8863 0.3192
H23_4 H 0.7012 0.9806 0.3135
N1_3 N 0.23475(16) 0.2312(2) 0.3449(3)
C1_5 C 0.0072(3) 0.2522(8) 0.1608(8)
C3_5 C 0.1352(2) 0.2275(3) 0.2431(4)
C4_5 C 0.0819(2) 0.2261(3) 0.1898(4)
C13_5 C 0.1586(2) 0.2646(3) 0.3096(5)
H3_5 H 0.1411 0.2895 0.3217
C15_5 C 0.2121(2) 0.1955(4) 0.2799(4)
H4_5 H 0.2305 0.1719 0.2683
C29_5 C 0.1629(2) 0.1917(4) 0.2287(4)
H13_5 H 0.1486 0.1651 0.1848
C30_5 C 0.0555(3) 0.2502(8) 0.2128(8)
H14_5 H 0.0702 0.2659 0.2654
C37_5 C 0.0075(3) 0.1994(6) 0.0736(7)
C38_5 C 0.2076(2) 0.2653(3) 0.3585(4)
H21_5 H 0.2227 0.2910 0.4035
C39_5 C 0.0573(3) 0.1964(6) 0.1233(7)
H22_5 H 0.0732 0.1718 0.1076
Zn5_2 Zn 0.307251(19) 0.23641(3) 0.41881(3)
Zn2_3 Zn 0.910059(19) 0.23606(3) 0.01801(3)
N2_5 N 0.98267(16) 0.2288(2) 0.0906(3)
O8_5 O 0.88911(15) 0.1828(2) 0.0759(3)
H1_5 H 0.9905 0.2728 0.1785
C7_5 C 0.8381(2) 0.1260(3) 0.0971(4)
C8_5 C 0.8467(2) 0.1746(3) 0.0546(3)
C10_5 C 0.8762(2) 0.0959(3) 0.1619(4)
H2_5 H 0.9075 0.1063 0.1805
C11_5 C 0.8673(2) 0.0500(3) 0.1989(4)
C24_5 C 0.8197(2) 0.0354(3) 0.1707(5)
C26_5 C 0.7917(2) 0.1132(3) 0.0723(4)
H9_5 H 0.7665 0.1356 0.0302
C28_5 C 0.9017(2) 0.0099(4) 0.2704(5)
H12_5 H 0.9217 0.0332 0.3200
C35_5 C 0.7820(2) 0.0681(4) 0.1084(5)
H18_5 H 0.7505 0.0597 0.0911
H20_5 H 0.9917 0.1782 0.0245
O10_3 O 0.82794(15) 0.32903(19) 0.0045(3)
O11_3 O 0.90572(15) 0.3076(2) 0.0793(3)
Zn1_3 Zn 0.807251(19) 0.26359(3) 0.91881(3)
O1_5 O 0.81131(15) 0.2035(2) 0.9996(3)
O3_5 O 0.90131(16) 0.2964(2) 0.9341(3)
O4_3 O 0.82794(15) 0.67097(19) 0.5045(3)
O5_5 O 0.82392(15) 0.3202(2) 0.8587(3)
O6_3 O 0.90572(15) 0.6924(2) 0.5793(3)
C2_5 C 0.8706(2) 0.6612(3) 0.5629(4)
C5_5 C 0.8665(2) 0.3259(3) 0.8797(4)
C9_5 C 0.8768(2) 0.3735(3) 0.8384(4)
C12_5 C 0.8795(2) 0.6096(3) 0.6171(4)
C14_5 C 0.8497(2) 0.4525(4) 0.7395(5)
C16_5 C 0.8979(2) 0.5145(3) 0.7209(5)
C17_5 C 0.8397(2) 0.4068(3) 0.7748(5)
H5_5 H 0.8080 0.3982 0.7559
C21_5 C 0.8510(2) 0.5327(3) 0.6631(4)
C22_5 C 0.8421(2) 0.5793(3) 0.6120(4)
H7_5 H 0.8106 0.5910 0.5733
C23_5 C 0.8974(2) 0.4644(4) 0.7684(5)
C25_5 C 0.9341(3) 0.4311(5) 0.8308(6)
H8_5 H 0.9660 0.4397 0.8502
C27_5 C 0.9233(3) 0.3852(4) 0.8638(6)
H10_5 H 0.9480 0.3614 0.9045
C31_5 C 0.9359(3) 0.5449(4) 0.7272(6)
H15_5 H 0.9674 0.5333 0.7656
C34_5 C 0.9262(2) 0.5924(4) 0.6759(5)
H17_5 H 0.9516 0.6137 0.6808
C40_5 C 0.8168(3) 0.4948(4) 0.6719(5)
H23_5 H 0.7988 0.5194 0.6865
H24_5 H 0.7945 0.4731 0.6217
Zn4_2 Zn 0.807251(19) 0.73641(3) 0.41881(3)
Zn7_3 Zn 0.910059(19) 0.76394(3) 0.51801(3)
N3_3 N 0.73475(16) 0.2688(2) 0.8449(3)
O9_3 O 0.89541(17) 0.1694(2) 0.9384(3)
O12_3 O 0.81787(16) 0.1925(2) 0.8654(3)
O2_3 O 0.89541(17) 0.8306(2) 0.4384(3)
O7_3 O 0.81787(16) 0.8075(2) 0.3654(3)
C6_5 C 0.8523(3) 0.8383(3) 0.3800(4)
C18_5 C 0.8685(2) 0.9693(3) 0.2769(4)
C19_5 C 0.8417(2) 0.8902(3) 0.3231(4)
C20_5 C 0.8791(2) 0.9224(3) 0.3290(4)
H6_5 H 0.9109 0.9120 0.3680
H11_5 H 0.9221 0.9871 0.2592
C32_5 C 0.7839(3) 0.9551(5) 0.2154(6)
H16_5 H 0.7522 0.9670 0.1791
C33_5 C 0.8203(3) 0.9851(4) 0.2195(5)
C36_5 C 0.7954(3) 0.9064(4) 0.2667(6)
H19_5 H 0.7708 0.8839 0.2626
O4_4 O 0.32794(15) 0.17097(19) 0.5045(3)
O6_4 O 0.40572(15) 0.1924(2) 0.5793(3)
C2_6 C 0.3706(2) 0.1612(3) 0.5629(4)
C12_6 C 0.3795(2) 0.1096(3) 0.6171(4)
C16_6 C 0.3979(2) 0.0145(3) 0.7209(5)
C21_6 C 0.3510(2) 0.0327(3) 0.6631(4)
C22_6 C 0.3421(2) 0.0793(3) 0.6120(4)
H7_6 H 0.3106 0.0910 0.5733
C31_6 C 0.4359(3) 0.0449(4) 0.7272(6)
H15_6 H 0.4674 0.0333 0.7656
C34_6 C 0.4262(2) 0.0924(4) 0.6759(5)
H17_6 H 0.4516 0.1137 0.6808
H23_6 H 0.2988 0.0194 0.6865
Zn7_4 Zn 0.410059(19) 0.26394(3) 0.51801(3)
Zn2_4 Zn 0.410059(19) 0.73606(3) 0.01801(3)
N1_4 N 0.73475(16) 0.7312(2) 0.3449(3)
N2_6 N 0.48267(16) 0.7288(2) 0.0906(3)
O2_4 O 0.39541(17) 0.3306(2) 0.4384(3)
O7_4 O 0.31787(16) 0.3075(2) 0.3654(3)
O8_6 O 0.38911(15) 0.6828(2) 0.0759(3)
C1_6 C 0.5072(3) 0.7522(8) 0.1608(8)
H1_6 H 0.4905 0.7728 0.1785
C3_6 C 0.6352(2) 0.7275(3) 0.2431(4)
C4_6 C 0.5819(2) 0.7261(3) 0.1898(4)
C6_6 C 0.3523(3) 0.3383(3) 0.3800(4)
C7_6 C 0.3381(2) 0.6260(3) 0.0971(4)
C8_6 C 0.3467(2) 0.6746(3) 0.0546(3)
C10_6 C 0.3762(2) 0.5959(3) 0.1619(4)
H2_6 H 0.4075 0.6063 0.1805
C11_6 C 0.3673(2) 0.5500(3) 0.1989(4)
C13_6 C 0.6586(2) 0.7646(3) 0.3096(5)
H3_6 H 0.6411 0.7895 0.3217
C15_6 C 0.7121(2) 0.6955(4) 0.2799(4)
H4_6 H 0.7305 0.6719 0.2683
C18_6 C 0.3685(2) 0.4693(3) 0.2769(4)
C19_6 C 0.3417(2) 0.3902(3) 0.3231(4)
C20_6 C 0.3791(2) 0.4224(3) 0.3290(4)
H6_6 H 0.4109 0.4120 0.3680
C24_6 C 0.3197(2) 0.5354(3) 0.1707(5)
C26_6 C 0.2917(2) 0.6132(3) 0.0723(4)
H9_6 H 0.2665 0.6356 0.0302
C28_6 C 0.4017(2) 0.5099(4) 0.2704(5)
H11_6 H 0.4221 0.4871 0.2592
H12_6 H 0.4217 0.5332 0.3200
C29_6 C 0.6629(2) 0.6917(4) 0.2287(4)
H13_6 H 0.6486 0.6651 0.1848
C30_6 C 0.5555(3) 0.7502(8) 0.2128(8)
H14_6 H 0.5702 0.7659 0.2654
C32_6 C 0.2839(3) 0.4551(5) 0.2154(6)
H16_6 H 0.2522 0.4670 0.1791
C33_6 C 0.3203(3) 0.4851(4) 0.2195(5)
C35_6 C 0.2820(2) 0.5681(4) 0.1084(5)
H18_6 H 0.2505 0.5597 0.0911
C36_6 C 0.2954(3) 0.4064(4) 0.2667(6)
H19_6 H 0.2708 0.3839 0.2626
C37_6 C 0.5075(3) 0.6994(6) 0.0736(7)
H20_6 H 0.4917 0.6782 0.0245
C38_6 C 0.7076(2) 0.7653(3) 0.3585(4)
H21_6 H 0.7227 0.7910 0.4035
C39_6 C 0.5573(3) 0.6964(6) 0.1233(7)
H22_6 H 0.5732 0.6718 0.1076
O10_4 O 0.32794(15) 0.82903(19) 0.0045(3)
O11_4 O 0.40572(15) 0.8076(2) 0.0793(3)
Zn1_4 Zn 0.307251(19) 0.76359(3) 0.91881(3)
O1_6 O 0.31131(15) 0.7035(2) 0.9996(3)
O3_6 O 0.40131(16) 0.7964(2) 0.9341(3)
O5_6 O 0.32392(15) 0.8202(2) 0.8587(3)
C5_6 C 0.3665(2) 0.8259(3) 0.8797(4)
C9_6 C 0.3768(2) 0.8735(3) 0.8384(4)
C14_6 C 0.3497(2) 0.9525(4) 0.7395(5)
C17_6 C 0.3397(2) 0.9068(3) 0.7748(5)
H5_6 H 0.3080 0.8982 0.7559
C23_6 C 0.3974(2) 0.9644(4) 0.7684(5)
C25_6 C 0.4341(3) 0.9311(5) 0.8308(6)
H8_6 H 0.4660 0.9397 0.8502
C27_6 C 0.4233(3) 0.8852(4) 0.8638(6)
H10_6 H 0.4480 0.8614 0.9045
C40_6 C 0.3168(3) 0.9948(4) 0.6719(5)
H24_6 H 0.2945 0.9731 0.6217
N3_4 N 0.23475(16) 0.7688(2) 0.8449(3)
O9_4 O 0.39541(17) 0.6694(2) 0.9384(3)
O12_4 O 0.31787(16) 0.6925(2) 0.8654(3)
C1_7 C 0.0072(3) 0.7478(8) 0.6608(8)
C3_7 C 0.1352(2) 0.7725(3) 0.7431(4)
C4_7 C 0.0819(2) 0.7739(3) 0.6898(4)
C13_7 C 0.1586(2) 0.7354(3) 0.8096(5)
H3_7 H 0.1411 0.7105 0.8217
C15_7 C 0.2121(2) 0.8045(4) 0.7799(4)
H4_7 H 0.2305 0.8281 0.7683
C29_7 C 0.1629(2) 0.8083(4) 0.7287(4)
H13_7 H 0.1486 0.8349 0.6848
C30_7 C 0.0555(3) 0.7498(8) 0.7128(8)
H14_7 H 0.0702 0.7341 0.7654
C37_7 C 0.0075(3) 0.8006(6) 0.5736(7)
C38_7 C 0.2076(2) 0.7347(3) 0.8585(4)
H21_7 H 0.2227 0.7090 0.9035
C39_7 C 0.0573(3) 0.8036(6) 0.6233(7)
H22_7 H 0.0732 0.8282 0.6076
C6_7 C 0.8523(3) 0.1617(3) 0.8800(4)
C18_7 C 0.8685(2) 0.0307(3) 0.7769(4)
C19_7 C 0.8417(2) 0.1098(3) 0.8231(4)
C20_7 C 0.8791(2) 0.0776(3) 0.8290(4)
H6_7 H 0.9109 0.0880 0.8680
H11_7 H 0.9221 0.0129 0.7592
C32_7 C 0.7839(3) 0.0449(5) 0.7154(6)
H16_7 H 0.7522 0.0330 0.6791
C33_7 C 0.8203(3) 0.0149(4) 0.7195(5)
C36_7 C 0.7954(3) 0.0936(4) 0.7667(6)
H19_7 H 0.7708 0.1161 0.7626
N2_7 N 0.98267(16) 0.7712(2) 0.5906(3)
O1_7 O 0.81131(15) 0.7965(2) 0.4996(3)
O3_7 O 0.90131(16) 0.7036(2) 0.4341(3)
O5_7 O 0.82392(15) 0.6798(2) 0.3587(3)
O8_7 O 0.88911(15) 0.8172(2) 0.5759(3)
H1_7 H 0.9905 0.7272 0.6785
C2_7 C 0.8706(2) 0.3388(3) 0.0629(4)
C5_7 C 0.8665(2) 0.6741(3) 0.3797(4)
C7_7 C 0.8381(2) 0.8740(3) 0.5971(4)
C8_7 C 0.8467(2) 0.8254(3) 0.5546(3)
C9_7 C 0.8768(2) 0.6265(3) 0.3384(4)
C10_7 C 0.8762(2) 0.9041(3) 0.6619(4)
H2_7 H 0.9075 0.8937 0.6805
C11_7 C 0.8673(2) 0.9500(3) 0.6989(4)
C12_7 C 0.8795(2) 0.3904(3) 0.1171(4)
C14_7 C 0.8497(2) 0.5475(4) 0.2395(5)
C16_7 C 0.8979(2) 0.4855(3) 0.2209(5)
C17_7 C 0.8397(2) 0.5932(3) 0.2748(5)
H5_7 H 0.8080 0.6018 0.2559
C21_7 C 0.8510(2) 0.4673(3) 0.1631(4)
C22_7 C 0.8421(2) 0.4207(3) 0.1120(4)
H7_7 H 0.8106 0.4090 0.0733
C23_7 C 0.8974(2) 0.5356(4) 0.2684(5)
C24_7 C 0.8197(2) 0.9646(3) 0.6707(5)
C25_7 C 0.9341(3) 0.5689(5) 0.3308(6)
H8_7 H 0.9660 0.5603 0.3502
C26_7 C 0.7917(2) 0.8868(3) 0.5723(4)
H9_7 H 0.7665 0.8644 0.5302
C27_7 C 0.9233(3) 0.6148(4) 0.3638(6)
H10_7 H 0.9480 0.6386 0.4045
C28_7 C 0.9017(2) 0.9901(4) 0.7704(5)
H12_7 H 0.9217 0.9668 0.8200
C31_7 C 0.9359(3) 0.4551(4) 0.2272(6)
H15_7 H 0.9674 0.4667 0.2656
C34_7 C 0.9262(2) 0.4076(4) 0.1759(5)
H17_7 H 0.9516 0.3863 0.1808
C35_7 C 0.7820(2) 0.9319(4) 0.6084(5)
H18_7 H 0.7505 0.9403 0.5911
H20_7 H 0.9917 0.8218 0.5245
C40_7 C 0.8168(3) 0.5052(4) 0.1719(5)
H23_7 H 0.7988 0.4806 0.1865
H24_7 H 0.7945 0.5269 0.1217
N2_8 N 0.48267(16) 0.2712(2) 0.5906(3)
O1_8 O 0.31131(15) 0.2965(2) 0.4996(3)
O3_8 O 0.40131(16) 0.2036(2) 0.4341(3)
O5_8 O 0.32392(15) 0.1798(2) 0.3587(3)
O8_8 O 0.38911(15) 0.3172(2) 0.5759(3)
C1_8 C 0.5072(3) 0.2478(8) 0.6608(8)
H1_8 H 0.4905 0.2272 0.6785
C3_8 C 0.6352(2) 0.2725(3) 0.7431(4)
C4_8 C 0.5819(2) 0.2739(3) 0.6898(4)
C5_8 C 0.3665(2) 0.1741(3) 0.3797(4)
C6_8 C 0.3523(3) 0.6617(3) 0.8800(4)
C7_8 C 0.3381(2) 0.3740(3) 0.5971(4)
C8_8 C 0.3467(2) 0.3254(3) 0.5546(3)
C9_8 C 0.3768(2) 0.1265(3) 0.3384(4)
C10_8 C 0.3762(2) 0.4041(3) 0.6619(4)
H2_8 H 0.4075 0.3937 0.6805
C11_8 C 0.3673(2) 0.4500(3) 0.6989(4)
C13_8 C 0.6586(2) 0.2354(3) 0.8096(5)
H3_8 H 0.6411 0.2105 0.8217
C14_8 C 0.3497(2) 0.0475(4) 0.2395(5)
C15_8 C 0.7121(2) 0.3045(4) 0.7799(4)
H4_8 H 0.7305 0.3281 0.7683
C17_8 C 0.3397(2) 0.0932(3) 0.2748(5)
H5_8 H 0.3080 0.1018 0.2559
C18_8 C 0.3685(2) 0.5307(3) 0.7769(4)
C19_8 C 0.3417(2) 0.6098(3) 0.8231(4)
C20_8 C 0.3791(2) 0.5776(3) 0.8290(4)
H6_8 H 0.4109 0.5880 0.8680
C23_8 C 0.3974(2) 0.0356(4) 0.2684(5)
C24_8 C 0.3197(2) 0.4646(3) 0.6707(5)
C25_8 C 0.4341(3) 0.0689(5) 0.3308(6)
H8_8 H 0.4660 0.0603 0.3502
C26_8 C 0.2917(2) 0.3868(3) 0.5723(4)
H9_8 H 0.2665 0.3644 0.5302
C27_8 C 0.4233(3) 0.1148(4) 0.3638(6)
H10_8 H 0.4480 0.1386 0.4045
C28_8 C 0.4017(2) 0.4901(4) 0.7704(5)
H11_8 H 0.4221 0.5129 0.7592
H12_8 H 0.4217 0.4668 0.8200
C29_8 C 0.6629(2) 0.3083(4) 0.7287(4)
H13_8 H 0.6486 0.3349 0.6848
C30_8 C 0.5555(3) 0.2498(8) 0.7128(8)
H14_8 H 0.5702 0.2341 0.7654
C32_8 C 0.2839(3) 0.5449(5) 0.7154(6)
H16_8 H 0.2522 0.5330 0.6791
C33_8 C 0.3203(3) 0.5149(4) 0.7195(5)
C35_8 C 0.2820(2) 0.4319(4) 0.6084(5)
H18_8 H 0.2505 0.4403 0.5911
C36_8 C 0.2954(3) 0.5936(4) 0.7667(6)
H19_8 H 0.2708 0.6161 0.7626
C37_8 C 0.5075(3) 0.3006(6) 0.5736(7)
H20_8 H 0.4917 0.3218 0.5245
C38_8 C 0.7076(2) 0.2347(3) 0.8585(4)
H21_8 H 0.7227 0.2090 0.9035
C39_8 C 0.5573(3) 0.3036(6) 0.6233(7)
H22_8 H 0.5732 0.3282 0.6076
C40_8 C 0.3168(3) 0.0052(4) 0.1719(5)
H24_8 H 0.2945 0.0269 0.1217
C2_8 C 0.3706(2) 0.8388(3) 0.0629(4)
C12_8 C 0.3795(2) 0.8904(3) 0.1171(4)
C16_8 C 0.3979(2) 0.9855(3) 0.2209(5)
C21_8 C 0.3510(2) 0.9673(3) 0.1631(4)
C22_8 C 0.3421(2) 0.9207(3) 0.1120(4)
H7_8 H 0.3106 0.9090 0.0733
C31_8 C 0.4359(3) 0.9551(4) 0.2272(6)
H15_8 H 0.4674 0.9667 0.2656
C34_8 C 0.4262(2) 0.9076(4) 0.1759(5)
H17_8 H 0.4516 0.8863 0.1808
H23_8 H 0.2988 0.9806 0.1865
loop_
_geom_bond_atom_site_label_1
_geom_bond_atom_site_label_2
_geom_bond_site_symmetry_1
_geom_bond_site_symmetry_2
Zn1 O1 1_555 1_555
Zn2 N2 1_555 1_555
O1 C8 1_555 1_555
O3 Zn2 1_555 1_555
O4 C2 1_555 1_555
O5 Zn1 1_555 1_555
O6 C2 1_555 1_555
O8 Zn2 1_555 1_555
C2 C12 1_555 1_555
C5 O3 1_555 1_555
C7 C8 1_555 1_555
C8 O8 1_555 1_555
C9 C5 1_555 1_555
C10 C7 1_555 1_555
H2 C10 1_555 1_555
C11 C10 1_555 1_555
C12 C22 1_555 1_555
C14 C17 1_555 1_555
C16 C21 1_555 1_555
C17 C9 1_555 1_555
H5 C17 1_555 1_555
C21 C22 1_555 1_555
C22 H7 1_555 1_555
C23 C14 1_555 1_555
C24 C11 1_555 1_555
C25 C23 1_555 1_555
H8 C25 1_555 1_555
C26 C7 1_555 1_555
H9 C26 1_555 1_555
C27 C9 1_555 1_555
H10 C27 1_555 1_555
C28 C11 1_555 1_555
H12 C28 1_555 1_555
C31 C16 1_555 1_555
H15 C31 1_555 1_555
C34 C12 1_555 1_555
H17 C34 1_555 1_555
C35 C24 1_555 1_555
H18 C35 1_555 1_555
C40 C14 1_555 1_555
H23 C40 1_555 1_555
H24 C40 1_555 1_555
Zn7 O6 1_555 1_555
N3 Zn1 1_555 1_555
O9 Zn2 1_555 1_555
O10 Zn1 1_555 1_555
O11 Zn2 1_555 1_555
O12 Zn1 1_555 1_555
O5 C5 1_555 1_555
C16 C23 1_555 1_555
C21 C40 1_555 1_555
C25 C27 1_555 1_555
C26 C35 1_555 1_555
C31 C34 1_555 1_555
O2 C6 1_555 1_555
O7 C6 1_555 1_555
C6 C19 1_555 1_555
C18 C20 1_555 1_555
C19 C20 1_555 1_555
C20 H6 1_555 1_555
C32 H16 1_555 1_555
C33 C18 1_555 1_555
C36 C19 1_555 1_555
H19 C36 1_555 1_555
Zn4 O7 1_555 1_555
C32 C33 1_555 1_555
C32 C36 1_555 1_555
N1 C15 1_555 1_555
C3 C4 1_555 1_555
C4 C30 1_555 1_555
C13 C3 1_555 1_555
H3 C13 1_555 1_555
C15 H4 1_555 1_555
C29 C3 1_555 1_555
H13 C29 1_555 1_555
C30 C1 1_555 1_555
H14 C30 1_555 1_555
C38 N1 1_555 1_555
H21 C38 1_555 1_555
C39 C4 1_555 1_555
H22 C39 1_555 1_555
Zn5 N1 1_555 1_555
C13 C38 1_555 1_555
C15 C29 1_555 1_555
C37 C39 1_555 1_555
O4_2 C2_2 1_555 1_555
O6_2 C2_2 1_555 1_555
C2_2 C12_2 1_555 1_555
C12_2 C22_2 1_555 1_555
C16_2 C21_2 1_555 1_555
C21_2 C22_2 1_555 1_555
C22_2 H7_2 1_555 1_555
C31_2 C16_2 1_555 1_555
H15_2 C31_2 1_555 1_555
C34_2 C12_2 1_555 1_555
H17_2 C34_2 1_555 1_555
Zn7_2 O6_2 1_555 1_555
C31_2 C34_2 1_555 1_555
Zn1_2 O1_2 1_555 1_555
Zn2_2 N2_2 1_555 1_555
N1_2 C15_2 1_555 1_555
N2_2 C1_2 1_555 1_555
O1_2 C8_2 1_555 1_555
O2_2 C6_2 1_555 1_555
O3_2 Zn2_2 1_555 1_555
O5_2 Zn1_2 1_555 1_555
O7_2 C6_2 1_555 1_555
O8_2 Zn2_2 1_555 1_555
C1_2 H1_2 1_555 1_555
C3_2 C4_2 1_555 1_555
C4_2 C30_2 1_555 1_555
C5_2 O3_2 1_555 1_555
C6_2 C19_2 1_555 1_555
C7_2 C8_2 1_555 1_555
C8_2 O8_2 1_555 1_555
C9_2 C5_2 1_555 1_555
C10_2 C7_2 1_555 1_555
H2_2 C10_2 1_555 1_555
C11_2 C10_2 1_555 1_555
C13_2 C3_2 1_555 1_555
H3_2 C13_2 1_555 1_555
C14_2 C17_2 1_555 1_555
C15_2 H4_2 1_555 1_555
C17_2 C9_2 1_555 1_555
H5_2 C17_2 1_555 1_555
C18_2 C20_2 1_555 1_555
C19_2 C20_2 1_555 1_555
C20_2 H6_2 1_555 1_555
C23_2 C14_2 1_555 1_555
C24_2 C11_2 1_555 1_555
C25_2 C23_2 1_555 1_555
H8_2 C25_2 1_555 1_555
C26_2 C7_2 1_555 1_555
H9_2 C26_2 1_555 1_555
C27_2 C9_2 1_555 1_555
H10_2 C27_2 1_555 1_555
C28_2 C11_2 1_555 1_555
H11_2 C28_2 1_555 1_555
H12_2 C28_2 1_555 1_555
C29_2 C3_2 1_555 1_555
H13_2 C29_2 1_555 1_555
C30_2 C1_2 1_555 1_555
H14_2 C30_2 1_555 1_555
C32_2 H16_2 1_555 1_555
C33_2 C18_2 1_555 1_555
C35_2 C24_2 1_555 1_555
H18_2 C35_2 1_555 1_555
C36_2 C19_2 1_555 1_555
H19_2 C36_2 1_555 1_555
C37_2 N2_2 1_555 1_555
H20_2 C37_2 1_555 1_555
C38_2 N1_2 1_555 1_555
H21_2 C38_2 1_555 1_555
C39_2 C4_2 1_555 1_555
H22_2 C39_2 1_555 1_555
C40_2 C14_2 1_555 1_555
H24_2 C40_2 1_555 1_555
Zn5 O7_2 1_555 1_555
Zn4 N1_2 1_555 1_555
N3_2 Zn1_2 1_555 1_555
O9_2 Zn2_2 1_555 1_555
O10_2 Zn1_2 1_555 1_555
O11_2 Zn2_2 1_555 1_555
O12_2 Zn1_2 1_555 1_555
O5_2 C5_2 1_555 1_555
C13_2 C38_2 1_555 1_555
C15_2 C29_2 1_555 1_555
C18_2 C28_2 1_555 1_555
C24_2 C33_2 1_555 1_555
C25_2 C27_2 1_555 1_555
C26_2 C35_2 1_555 1_555
C32_2 C33_2 1_555 1_555
C32_2 C36_2 1_555 1_555
C37_2 C39_2 1_555 1_555
O9 C6_3 1_555 1_555
O12 C6_3 1_555 1_555
C6_3 C19_3 1_555 1_555
C18_3 C20_3 1_555 1_555
C19_3 C20_3 1_555 1_555
C20_3 H6_3 1_555 1_555
C32_3 H16_3 1_555 1_555
C33_3 C18_3 1_555 1_555
C36_3 C19_3 1_555 1_555
H19_3 C36_3 1_555 1_555
C32_3 C33_3 1_555 1_555
C32_3 C36_3 1_555 1_555
Zn4 O1_3 1_555 1_555
O10 C2_3 1_555 1_555
O5_3 Zn4 1_555 1_555
O11 C2_3 1_555 1_555
C2_3 C12_3 1_555 1_555
C5_3 O3_3 1_555 1_555
C9_3 C5_3 1_555 1_555
C12_3 C22_3 1_555 1_555
C14_3 C17_3 1_555 1_555
C16_3 C21_3 1_555 1_555
C17_3 C9_3 1_555 1_555
H5_3 C17_3 1_555 1_555
C21_3 C22_3 1_555 1_555
C22_3 H7_3 1_555 1_555
C23_3 C14_3 1_555 1_555
C25_3 C23_3 1_555 1_555
H8_3 C25_3 1_555 1_555
C27_3 C9_3 1_555 1_555
H10_3 C27_3 1_555 1_555
C31_3 C16_3 1_555 1_555
H15_3 C31_3 1_555 1_555
C34_3 C12_3 1_555 1_555
H17_3 C34_3 1_555 1_555
C40_3 C14_3 1_555 1_555
H23_3 C40_3 1_555 1_555
H24_3 C40_3 1_555 1_555
O5_3 C5_3 1_555 1_555
C16_3 C23_3 1_555 1_555
C21_3 C40_3 1_555 1_555
C25_3 C27_3 1_555 1_555
C31_3 C34_3 1_555 1_555
Zn7 N2_3 1_555 1_555
O8_3 Zn7 1_555 1_555
C7_3 C8_3 1_555 1_555
C8_3 O8_3 1_555 1_555
C10_3 C7_3 1_555 1_555
H2_3 C10_3 1_555 1_555
C11_3 C10_3 1_555 1_555
C24_3 C11_3 1_555 1_555
C26_3 C7_3 1_555 1_555
H9_3 C26_3 1_555 1_555
C28_3 C11_3 1_555 1_555
H12_3 C28_3 1_555 1_555
C35_3 C24_3 1_555 1_555
H18_3 C35_3 1_555 1_555
C26_3 C35_3 1_555 1_555
N3_2 C15_3 1_555 1_555
C3_3 C4_3 1_555 1_555
C4_3 C30_3 1_555 1_555
C13_3 C3_3 1_555 1_555
H3_3 C13_3 1_555 1_555
C15_3 H4_3 1_555 1_555
C29_3 C3_3 1_555 1_555
H13_3 C29_3 1_555 1_555
C30_3 C1_3 1_555 1_555
H14_3 C30_3 1_555 1_555
C38_3 N3_2 1_555 1_555
H21_3 C38_3 1_555 1_555
C39_3 C4_3 1_555 1_555
H22_3 C39_3 1_555 1_555
C13_3 C38_3 1_555 1_555
C15_3 C29_3 1_555 1_555
C37_3 C39_3 1_555 1_555
Zn5 O1_4 1_555 1_555
O5_4 Zn5 1_555 1_555
C5_4 O3_4 1_555 1_555
C9_4 C5_4 1_555 1_555
C14_4 C17_4 1_555 1_555
C17_4 C9_4 1_555 1_555
H5_4 C17_4 1_555 1_555
C23_4 C14_4 1_555 1_555
C25_4 C23_4 1_555 1_555
H8_4 C25_4 1_555 1_555
C27_4 C9_4 1_555 1_555
H10_4 C27_4 1_555 1_555
C40_4 C14_4 1_555 1_555
H24_4 C40_4 1_555 1_555
O5_4 C5_4 1_555 1_555
C25_4 C27_4 1_555 1_555
Zn7_2 N2_4 1_555 1_555
N3 C15_4 1_555 1_555
N2_4 C1_4 1_555 1_555
O9_2 C6_4 1_555 1_555
O12_2 C6_4 1_555 1_555
O8_4 Zn7_2 1_555 1_555
C1_4 H1_4 1_555 1_555
C3_4 C4_4 1_555 1_555
C4_4 C30_4 1_555 1_555
C6_4 C19_4 1_555 1_555
C7_4 C8_4 1_555 1_555
C8_4 O8_4 1_555 1_555
C10_4 C7_4 1_555 1_555
H2_4 C10_4 1_555 1_555
C11_4 C10_4 1_555 1_555
C13_4 C3_4 1_555 1_555
H3_4 C13_4 1_555 1_555
C15_4 H4_4 1_555 1_555
C18_4 C20_4 1_555 1_555
C19_4 C20_4 1_555 1_555
C20_4 H6_4 1_555 1_555
C24_4 C11_4 1_555 1_555
C26_4 C7_4 1_555 1_555
H9_4 C26_4 1_555 1_555
C28_4 C11_4 1_555 1_555
H11_4 C28_4 1_555 1_555
H12_4 C28_4 1_555 1_555
C29_4 C3_4 1_555 1_555
H13_4 C29_4 1_555 1_555
C30_4 C1_4 1_555 1_555
H14_4 C30_4 1_555 1_555
C32_4 H16_4 1_555 1_555
C33_4 C18_4 1_555 1_555
C35_4 C24_4 1_555 1_555
H18_4 C35_4 1_555 1_555
C36_4 C19_4 1_555 1_555
H19_4 C36_4 1_555 1_555
C37_4 N2_4 1_555 1_555
H20_4 C37_4 1_555 1_555
C38_4 N3 1_555 1_555
H21_4 C38_4 1_555 1_555
C39_4 C4_4 1_555 1_555
H22_4 C39_4 1_555 1_555
C13_4 C38_4 1_555 1_555
C15_4 C29_4 1_555 1_555
C18_4 C28_4 1_555 1_555
C24_4 C33_4 1_555 1_555
C26_4 C35_4 1_555 1_555
C32_4 C33_4 1_555 1_555
C32_4 C36_4 1_555 1_555
C37_4 C39_4 1_555 1_555
O10_2 C2_4 1_555 1_555
O11_2 C2_4 1_555 1_555
C2_4 C12_4 1_555 1_555
C12_4 C22_4 1_555 1_555
C16_4 C21_4 1_555 1_555
C21_4 C22_4 1_555 1_555
C22_4 H7_4 1_555 1_555
C31_4 C16_4 1_555 1_555
H15_4 C31_4 1_555 1_555
C34_4 C12_4 1_555 1_555
H17_4 C34_4 1_555 1_555
C31_4 C34_4 1_555 1_555
N1_3 C15_5 1_555 1_555
C3_5 C4_5 1_555 1_555
C4_5 C30_5 1_555 1_555
C13_5 C3_5 1_555 1_555
H3_5 C13_5 1_555 1_555
C15_5 H4_5 1_555 1_555
C29_5 C3_5 1_555 1_555
H13_5 C29_5 1_555 1_555
C30_5 C1_5 1_555 1_555
H14_5 C30_5 1_555 1_555
C38_5 N1_3 1_555 1_555
H21_5 C38_5 1_555 1_555
C39_5 C4_5 1_555 1_555
H22_5 C39_5 1_555 1_555
Zn5_2 N1_3 1_555 1_555
C13_5 C38_5 1_555 1_555
C15_5 C29_5 1_555 1_555
C37_5 C39_5 1_555 1_555
Zn2_3 N2_5 1_555 1_555
O8_5 Zn2_3 1_555 1_555
C7_5 C8_5 1_555 1_555
C8_5 O8_5 1_555 1_555
C10_5 C7_5 1_555 1_555
H2_5 C10_5 1_555 1_555
C11_5 C10_5 1_555 1_555
C24_5 C11_5 1_555 1_555
C26_5 C7_5 1_555 1_555
H9_5 C26_5 1_555 1_555
C28_5 C11_5 1_555 1_555
H12_5 C28_5 1_555 1_555
C35_5 C24_5 1_555 1_555
H18_5 C35_5 1_555 1_555
O11_3 Zn2_3 1_555 1_555
C26_5 C35_5 1_555 1_555
Zn1_3 O1_5 1_555 1_555
O4_3 C2_5 1_555 1_555
O5_5 Zn1_3 1_555 1_555
O6_3 C2_5 1_555 1_555
C2_5 C12_5 1_555 1_555
C5_5 O3_5 1_555 1_555
C9_5 C5_5 1_555 1_555
C12_5 C22_5 1_555 1_555
C14_5 C17_5 1_555 1_555
C16_5 C21_5 1_555 1_555
C17_5 C9_5 1_555 1_555
H5_5 C17_5 1_555 1_555
C21_5 C22_5 1_555 1_555
C22_5 H7_5 1_555 1_555
C23_5 C14_5 1_555 1_555
C25_5 C23_5 1_555 1_555
H8_5 C25_5 1_555 1_555
C27_5 C9_5 1_555 1_555
H10_5 C27_5 1_555 1_555
C31_5 C16_5 1_555 1_555
H15_5 C31_5 1_555 1_555
C34_5 C12_5 1_555 1_555
H17_5 C34_5 1_555 1_555
C40_5 C14_5 1_555 1_555
H23_5 C40_5 1_555 1_555
H24_5 C40_5 1_555 1_555
Zn4_2 O4_3 1_555 1_555
Zn7_3 O6_3 1_555 1_555
N3_3 Zn1_3 1_555 1_555
O12_3 Zn1_3 1_555 1_555
O5_5 C5_5 1_555 1_555
C16_5 C23_5 1_555 1_555
C21_5 C40_5 1_555 1_555
C25_5 C27_5 1_555 1_555
C31_5 C34_5 1_555 1_555
O2_3 C6_5 1_555 1_555
O7_3 C6_5 1_555 1_555
C6_5 C19_5 1_555 1_555
C18_5 C20_5 1_555 1_555
C19_5 C20_5 1_555 1_555
C20_5 H6_5 1_555 1_555
C32_5 H16_5 1_555 1_555
C33_5 C18_5 1_555 1_555
C36_5 C19_5 1_555 1_555
H19_5 C36_5 1_555 1_555
Zn4_2 O7_3 1_555 1_555
Zn7_3 O2_3 1_555 1_555
C32_5 C33_5 1_555 1_555
C32_5 C36_5 1_555 1_555
O4_4 C2_6 1_555 1_555
O6_4 C2_6 1_555 1_555
C2_6 C12_6 1_555 1_555
C12_6 C22_6 1_555 1_555
C16_6 C21_6 1_555 1_555
C21_6 C22_6 1_555 1_555
C22_6 H7_6 1_555 1_555
C31_6 C16_6 1_555 1_555
H15_6 C31_6 1_555 1_555
C34_6 C12_6 1_555 1_555
H17_6 C34_6 1_555 1_555
Zn5_2 O4_4 1_555 1_555
Zn7_4 O6_4 1_555 1_555
C31_6 C34_6 1_555 1_555
Zn2_4 N2_6 1_555 1_555
N1_4 C15_6 1_555 1_555
N2_6 C1_6 1_555 1_555
O2_4 C6_6 1_555 1_555
O7_4 C6_6 1_555 1_555
O8_6 Zn2_4 1_555 1_555
C1_6 H1_6 1_555 1_555
C3_6 C4_6 1_555 1_555
C4_6 C30_6 1_555 1_555
C6_6 C19_6 1_555 1_555
C7_6 C8_6 1_555 1_555
C8_6 O8_6 1_555 1_555
C10_6 C7_6 1_555 1_555
H2_6 C10_6 1_555 1_555
C11_6 C10_6 1_555 1_555
C13_6 C3_6 1_555 1_555
H3_6 C13_6 1_555 1_555
C15_6 H4_6 1_555 1_555
C18_6 C20_6 1_555 1_555
C19_6 C20_6 1_555 1_555
C20_6 H6_6 1_555 1_555
C24_6 C11_6 1_555 1_555
C26_6 C7_6 1_555 1_555
H9_6 C26_6 1_555 1_555
C28_6 C11_6 1_555 1_555
H11_6 C28_6 1_555 1_555
H12_6 C28_6 1_555 1_555
C29_6 C3_6 1_555 1_555
H13_6 C29_6 1_555 1_555
C30_6 C1_6 1_555 1_555
H14_6 C30_6 1_555 1_555
C32_6 H16_6 1_555 1_555
C33_6 C18_6 1_555 1_555
C35_6 C24_6 1_555 1_555
H18_6 C35_6 1_555 1_555
C36_6 C19_6 1_555 1_555
H19_6 C36_6 1_555 1_555
C37_6 N2_6 1_555 1_555
H20_6 C37_6 1_555 1_555
C38_6 N1_4 1_555 1_555
H21_6 C38_6 1_555 1_555
C39_6 C4_6 1_555 1_555
H22_6 C39_6 1_555 1_555
Zn5_2 O7_4 1_555 1_555
Zn4_2 N1_4 1_555 1_555
Zn7_4 O2_4 1_555 1_555
O11_4 Zn2_4 1_555 1_555
C13_6 C38_6 1_555 1_555
C15_6 C29_6 1_555 1_555
C18_6 C28_6 1_555 1_555
C24_6 C33_6 1_555 1_555
C26_6 C35_6 1_555 1_555
C32_6 C33_6 1_555 1_555
C32_6 C36_6 1_555 1_555
C37_6 C39_6 1_555 1_555
Zn1_4 O1_6 1_555 1_555
O5_6 Zn1_4 1_555 1_555
C5_6 O3_6 1_555 1_555
C9_6 C5_6 1_555 1_555
C14_6 C17_6 1_555 1_555
C17_6 C9_6 1_555 1_555
H5_6 C17_6 1_555 1_555
C23_6 C14_6 1_555 1_555
C25_6 C23_6 1_555 1_555
H8_6 C25_6 1_555 1_555
C27_6 C9_6 1_555 1_555
H10_6 C27_6 1_555 1_555
C40_6 C14_6 1_555 1_555
H24_6 C40_6 1_555 1_555
N3_4 Zn1_4 1_555 1_555
O12_4 Zn1_4 1_555 1_555
O5_6 C5_6 1_555 1_555
C25_6 C27_6 1_555 1_555
N3_4 C15_7 1_555 1_555
C3_7 C4_7 1_555 1_555
C4_7 C30_7 1_555 1_555
C13_7 C3_7 1_555 1_555
H3_7 C13_7 1_555 1_555
C15_7 H4_7 1_555 1_555
C29_7 C3_7 1_555 1_555
H13_7 C29_7 1_555 1_555
C30_7 C1_7 1_555 1_555
H14_7 C30_7 1_555 1_555
C38_7 N3_4 1_555 1_555
H21_7 C38_7 1_555 1_555
C39_7 C4_7 1_555 1_555
H22_7 C39_7 1_555 1_555
C13_7 C38_7 1_555 1_555
C15_7 C29_7 1_555 1_555
C37_7 C39_7 1_555 1_555
O9_3 C6_7 1_555 1_555
O12_3 C6_7 1_555 1_555
C6_7 C19_7 1_555 1_555
C18_7 C20_7 1_555 1_555
C19_7 C20_7 1_555 1_555
C20_7 H6_7 1_555 1_555
C32_7 H16_7 1_555 1_555
C33_7 C18_7 1_555 1_555
C36_7 C19_7 1_555 1_555
H19_7 C36_7 1_555 1_555
C32_7 C33_7 1_555 1_555
C32_7 C36_7 1_555 1_555
Zn4_2 O1_7 1_555 1_555
Zn7_3 N2_7 1_555 1_555
O1_7 C8_7 1_555 1_555
O3_7 Zn7_3 1_555 1_555
O10_3 C2_7 1_555 1_555
O5_7 Zn4_2 1_555 1_555
O11_3 C2_7 1_555 1_555
O8_7 Zn7_3 1_555 1_555
C2_7 C12_7 1_555 1_555
C5_7 O3_7 1_555 1_555
C7_7 C8_7 1_555 1_555
C8_7 O8_7 1_555 1_555
C9_7 C5_7 1_555 1_555
C10_7 C7_7 1_555 1_555
H2_7 C10_7 1_555 1_555
C11_7 C10_7 1_555 1_555
C12_7 C22_7 1_555 1_555
C14_7 C17_7 1_555 1_555
C16_7 C21_7 1_555 1_555
C17_7 C9_7 1_555 1_555
H5_7 C17_7 1_555 1_555
C21_7 C22_7 1_555 1_555
C22_7 H7_7 1_555 1_555
C23_7 C14_7 1_555 1_555
C24_7 C11_7 1_555 1_555
C25_7 C23_7 1_555 1_555
H8_7 C25_7 1_555 1_555
C26_7 C7_7 1_555 1_555
H9_7 C26_7 1_555 1_555
C27_7 C9_7 1_555 1_555
H10_7 C27_7 1_555 1_555
C28_7 C11_7 1_555 1_555
H12_7 C28_7 1_555 1_555
C31_7 C16_7 1_555 1_555
H15_7 C31_7 1_555 1_555
C34_7 C12_7 1_555 1_555
H17_7 C34_7 1_555 1_555
C35_7 C24_7 1_555 1_555
H18_7 C35_7 1_555 1_555
C40_7 C14_7 1_555 1_555
H23_7 C40_7 1_555 1_555
H24_7 C40_7 1_555 1_555
O5_7 C5_7 1_555 1_555
C16_7 C23_7 1_555 1_555
C21_7 C40_7 1_555 1_555
C25_7 C27_7 1_555 1_555
C26_7 C35_7 1_555 1_555
C31_7 C34_7 1_555 1_555
Zn5_2 O1_8 1_555 1_555
Zn7_4 N2_8 1_555 1_555
N3_3 C15_8 1_555 1_555
N2_8 C1_8 1_555 1_555
O1_8 C8_8 1_555 1_555
O9_4 C6_8 1_555 1_555
O3_8 Zn7_4 1_555 1_555
O5_8 Zn5_2 1_555 1_555
O12_4 C6_8 1_555 1_555
O8_8 Zn7_4 1_555 1_555
C1_8 H1_8 1_555 1_555
C3_8 C4_8 1_555 1_555
C4_8 C30_8 1_555 1_555
C5_8 O3_8 1_555 1_555
C6_8 C19_8 1_555 1_555
C7_8 C8_8 1_555 1_555
C8_8 O8_8 1_555 1_555
C9_8 C5_8 1_555 1_555
C10_8 C7_8 1_555 1_555
H2_8 C10_8 1_555 1_555
C11_8 C10_8 1_555 1_555
C13_8 C3_8 1_555 1_555
H3_8 C13_8 1_555 1_555
C14_8 C17_8 1_555 1_555
C15_8 H4_8 1_555 1_555
C17_8 C9_8 1_555 1_555
H5_8 C17_8 1_555 1_555
C18_8 C20_8 1_555 1_555
C19_8 C20_8 1_555 1_555
C20_8 H6_8 1_555 1_555
C23_8 C14_8 1_555 1_555
C24_8 C11_8 1_555 1_555
C25_8 C23_8 1_555 1_555
H8_8 C25_8 1_555 1_555
C26_8 C7_8 1_555 1_555
H9_8 C26_8 1_555 1_555
C27_8 C9_8 1_555 1_555
H10_8 C27_8 1_555 1_555
C28_8 C11_8 1_555 1_555
H11_8 C28_8 1_555 1_555
H12_8 C28_8 1_555 1_555
C29_8 C3_8 1_555 1_555
H13_8 C29_8 1_555 1_555
C30_8 C1_8 1_555 1_555
H14_8 C30_8 1_555 1_555
C32_8 H16_8 1_555 1_555
C33_8 C18_8 1_555 1_555
C35_8 C24_8 1_555 1_555
H18_8 C35_8 1_555 1_555
C36_8 C19_8 1_555 1_555
H19_8 C36_8 1_555 1_555
C37_8 N2_8 1_555 1_555
H20_8 C37_8 1_555 1_555
C38_8 N3_3 1_555 1_555
H21_8 C38_8 1_555 1_555
C39_8 C4_8 1_555 1_555
H22_8 C39_8 1_555 1_555
C40_8 C14_8 1_555 1_555
H24_8 C40_8 1_555 1_555
O5_8 C5_8 1_555 1_555
C13_8 C38_8 1_555 1_555
C15_8 C29_8 1_555 1_555
C18_8 C28_8 1_555 1_555
C24_8 C33_8 1_555 1_555
C25_8 C27_8 1_555 1_555
C26_8 C35_8 1_555 1_555
C32_8 C33_8 1_555 1_555
C32_8 C36_8 1_555 1_555
C37_8 C39_8 1_555 1_555
O10_4 C2_8 1_555 1_555
O11_4 C2_8 1_555 1_555
C2_8 C12_8 1_555 1_555
C12_8 C22_8 1_555 1_555
C16_8 C21_8 1_555 1_555
C21_8 C22_8 1_555 1_555
C22_8 H7_8 1_555 1_555
C31_8 C16_8 1_555 1_555
H15_8 C31_8 1_555 1_555
C34_8 C12_8 1_555 1_555
H17_8 C34_8 1_555 1_555
C31_8 C34_8 1_555 1_555

#END
