
###############################################################################
#
# This file contains modified crystal structure data generated from the
# MOF subset of the Cambridge Structural Database (CSD) v543 
# hosted by the Cambridge Crystallographic Data Centre (CCDC).
#
# This work is licensed under the Creative Commons
# Attribution-NonCommercial-ShareAlike 4.0 International License.
# To view a copy of this license, visit
# http://creativecommons.org/licenses/by-nc-sa/4.0/
# or send a letter to
# Creative Commons, PO Box 1866, Mountain View, CA 94042, USA.
#
# CIF created using the CSD Python API on 29 September 2022
# The structure has been converted into the P1 space group
# The structure has a 3D framework
# The original CSD entry COKFAK is in the triclinic crystal system
# The framework has been calculated to contain at least 10.0% void space
# The void calculation uses a probe of radius 1.32A, grid spacing 0.4
# The framework is charged, counterions have been retained in the structure
#
###############################################################################

data_COKFAK
_chemical_formula_moiety         '(C100 H94 Co8 N24 O14 12+)n'
_symmetry_cell_setting           triclinic
_symmetry_space_group_name_H-M   'P 1'
_symmetry_Int_Tables_number      1
_space_group_name_Hall           'P 1'
loop_
_symmetry_equiv_pos_site_id
_symmetry_equiv_pos_as_xyz
1 x,y,z
_cell_length_a                   8.7796(19)
_cell_length_b                   14.857(3)
_cell_length_c                   21.621(5)
_cell_angle_alpha                72.212(4)
_cell_angle_beta                 81.686(4)
_cell_angle_gamma                83.572(4)
_cell_volume                     2650.28
loop_
_atom_site_label
_atom_site_type_symbol
_atom_site_fract_x
_atom_site_fract_y
_atom_site_fract_z
Co6 Co 0.0000 -0.0000 0.0000
H36 H 0.3516 0.0518 0.4317
Co3 Co -0.0000 -0.0000 0.5000
Co6_2 Co 1.0000 -0.0000 0.0000
C23 C 0.1847(9) 0.0226(7) 0.6665(3)
H21 H 0.2654 0.0170 0.6912
C24 C 0.0037(10) 0.1363(9) 0.7135(4)
H22 H 0.0448 0.1089 0.7551
C25 C 0.0670(10) 0.2309(8) 0.6796(4)
C26 C 0.0047(9) 0.2942(9) 0.6256(5)
C27 C 0.1977(9) 0.2566(8) 0.6980(4)
H25 H 0.2428 0.2154 0.7335
C28 C 0.0673(9) 0.3770(8) 0.5921(4)
H26 H 0.0222 0.4169 0.5562
C29 C 0.2614(9) 0.3403(8) 0.6656(4)
H27 H 0.3469 0.3552 0.6803
C30 C 0.2017(9) 0.4049(7) 0.6104(4)
C31 C 0.2738(9) 0.4929(7) 0.5738(4)
C32 C 0.2819(10) 0.5269(8) 0.5052(4)
H28 H 0.2381 0.4941 0.4827
C33 C 0.3422(10) 0.5443(7) 0.6060(4)
H29 H 0.3382 0.5235 0.6513
C34 C 0.3534(11) 0.6077(8) 0.4712(5)
H30 H 0.3563 0.6294 0.4259
C35 C 0.4144(10) 0.6241(8) 0.5716(4)
H31 H 0.4595 0.6568 0.5938
C36 C 0.4220(10) 0.6580(8) 0.5033(5)
C37 C 0.5052(11) 0.7458(8) 0.4651(5)
H32 H 0.6017 0.7431 0.4828
H33 H 0.5300 0.7456 0.4200
C38 C 0.2726(9) 0.8490(6) 0.4923(4)
H34 H 0.2094 0.8004 0.5150
C39 C 0.4653(12) 0.9179(10) 0.4369(10)
H35 H 0.5616 0.9303 0.4130
C40 C 0.3473(11) 0.9864(7) 0.4469(8)
N5 N 0.0440(6) 0.0083(4) 0.5935(2)
N6 N 0.0450(7) 0.0725(6) 0.6729(3)
N7 N 0.2290(6) 0.9394(5) 0.4822(3)
N8 N 0.4161(7) 0.8346(5) 0.4668(4)
C51 C 0.0381(8) 0.1996(5) 0.3968(3)
H48 H 0.0031 0.1780 0.3656
C52 C 0.1156(9) 0.2043(6) 0.4848(3)
H49 H 0.1451 0.1864 0.5268
C53 C 0.1122(10) 0.2933(5) 0.4434(3)
H50 H 0.1385 0.3471 0.4517
C54 C 0.0426(8) 0.3697(5) 0.3285(3)
C55 C 0.1939(8) 0.4118(5) 0.2960(3)
C56 C 0.2314(8) 0.4971(5) 0.3001(4)
H53 H 0.1605 0.5312 0.3222
C57 C 0.3015(9) 0.3628(6) 0.2628(4)
H54 H 0.2786 0.3047 0.2600
C58 C 0.3729(8) 0.5336(5) 0.2719(3)
H55 H 0.3950 0.5918 0.2750
C59 C 0.4417(9) 0.3973(5) 0.2340(4)
H56 H 0.5103 0.3633 0.2110
C60 C 0.4821(8) 0.4830(5) 0.2388(3)
C61 C 0.6367(7) 0.5192(4) 0.2102(3)
C62 C 0.6621(8) 0.6148(5) 0.1915(3)
H57 H 0.5795 0.6582 0.1962
C63 C 0.7651(8) 0.4570(5) 0.2017(3)
H58 H 0.7529 0.3923 0.2135
C64 C 0.8066(8) 0.6480(5) 0.1662(3)
H59 H 0.8192 0.7126 0.1545
C65 C 0.9073(8) 0.4890(4) 0.1766(3)
H60 H 0.9896 0.4456 0.1716
C66 C 0.9325(7) 0.5854(5) 0.1581(3)
N11 N 0.0681(7) 0.1442(4) 0.4549(3)
N12 N 0.0636(6) 0.2898(4) 0.3875(3)
Co3_2 Co 0.0000 1.0000 0.5000
Co6_3 Co 1.0000 1.0000 0.0000
H4 H 0.0029 0.6519 0.7023
H5 H 0.0283 0.5816 0.6598
C22 C 0.1848(8) 0.9839(5) 0.6189(3)
H20 H 0.2659 0.9463 0.6048
C71 C 0.0353(8) 0.9397(6) 0.3719(3)
H66 H 0.1357 0.9142 0.3778
H70 H 0.1078 0.8557 0.2778
H71 H 0.0826 0.7210 0.3878
O1 O 0.9456(8) 0.0607(4) 0.0786(2)
H46 H 0.962(9) 0.125(2) 0.071(4)
H47 H 0.866(7) 0.045(5) 0.114(3)
C42 C 0.6944(9) 0.9101(4) 0.0786(3)
H38 H 0.7235 0.9129 0.1176
C43 C 0.5640(8) 0.8762(4) 0.0725(3)
H39 H 0.4868 0.8524 0.1061
C47 C 0.5045(10) 0.6802(5) 0.0395(4)
H43 H 0.5252 0.6994 0.0744
C49 C 0.5166(10) 0.5846(5) 0.0455(4)
H45 H 0.5423 0.5417 0.0846
N9 N 0.7793(7) 0.9404(4) 0.0177(3)
N10 N 0.5655(7) 0.8833(3) 0.0076(3)
C91 C 0.3004(9) 0.0786(4) 0.0223(3)
H84 H 0.2686 0.0671 0.0668
C94 C 0.5496(10) 0.1474(5) 0.0229(4)
H87 H 0.5396 0.1136 0.0693
H88 H 0.6518 0.1302 0.0042
C95 C 0.5358(10) 0.2531(5) 0.0146(3)
C96 C 0.590(3) 0.2849(7) 0.0589(6)
H89 H 0.6375 0.2427 0.0933
C98 C 0.575(3) 0.3820(7) 0.0526(7)
H91 H 0.6125 0.4025 0.0836
C100 C 0.5075(14) 0.4485(5) 0.0030(4)
Co6_4 Co -0.0000 -0.0000 1.0000
Co6_5 Co 0.0000 1.0000 1.0000
Co6_6 Co 1.0000 1.0000 1.0000
Co3_3 Co 1.0000 -0.0000 0.5000
C21 C 0.9647(8) 0.0603(6) 0.6281(3)
H19 H 0.8643 0.0858 0.6222
H23 H 0.8922 0.1443 0.7222
H24 H 0.9174 0.2790 0.6122
H51 H 0.9971 0.3481 0.2977
H52 H 0.9717 0.4184 0.3402
C72 C 0.8152(8) 0.0161(5) 0.3811(3)
H67 H 0.7341 0.0537 0.3952
N20 N 0.7710(6) 0.0606(5) 0.5178(3)
Co3_4 Co 1.0000 1.0000 0.5000
C1 C 0.9619(8) 0.8004(5) 0.6032(3)
H1 H 0.9969 0.8220 0.6344
C2 C 0.8844(9) 0.7957(6) 0.5152(3)
H2 H 0.8549 0.8136 0.4732
C3 C 0.8878(10) 0.7067(5) 0.5566(3)
H3 H 0.8615 0.6529 0.5483
C4 C 0.9574(8) 0.6303(5) 0.6715(3)
C5 C 0.8061(8) 0.5882(5) 0.7040(3)
C6 C 0.7686(8) 0.5029(5) 0.6999(4)
H6 H 0.8395 0.4688 0.6778
C7 C 0.6985(9) 0.6372(6) 0.7372(4)
H7 H 0.7214 0.6953 0.7400
C8 C 0.6271(8) 0.4664(5) 0.7281(3)
H8 H 0.6050 0.4082 0.7250
C9 C 0.5583(9) 0.6027(5) 0.7660(4)
H9 H 0.4897 0.6367 0.7890
C10 C 0.5179(8) 0.5170(5) 0.7612(3)
C11 C 0.3633(7) 0.4808(4) 0.7898(3)
C12 C 0.3379(8) 0.3852(5) 0.8085(3)
H10 H 0.4205 0.3418 0.8038
C13 C 0.2349(8) 0.5430(5) 0.7983(3)
H11 H 0.2471 0.6077 0.7865
C14 C 0.1934(8) 0.3520(5) 0.8338(3)
H12 H 0.1808 0.2874 0.8455
C15 C 0.0927(8) 0.5110(4) 0.8234(3)
H13 H 0.0104 0.5544 0.8284
C16 C 0.0675(7) 0.4146(5) 0.8419(3)
N1 N 0.9319(7) 0.8558(4) 0.5451(3)
N2 N 0.9364(6) 0.7102(4) 0.6125(3)
C73 C 0.8153(9) 0.9774(7) 0.3335(3)
H68 H 0.7346 0.9830 0.3088
C74 C 0.9963(10) 0.8637(9) 0.2865(4)
H69 H 0.9552 0.8911 0.2449
C75 C 0.9330(10) 0.7691(8) 0.3204(4)
C76 C 0.9953(9) 0.7058(9) 0.3744(5)
C77 C 0.8023(9) 0.7434(8) 0.3020(4)
H72 H 0.7572 0.7846 0.2665
C78 C 0.9327(9) 0.6230(8) 0.4079(4)
H73 H 0.9778 0.5831 0.4438
C79 C 0.7386(9) 0.6597(8) 0.3344(4)
H74 H 0.6531 0.6448 0.3197
C80 C 0.7983(9) 0.5951(7) 0.3896(4)
C81 C 0.7262(9) 0.5071(7) 0.4262(4)
C82 C 0.7181(10) 0.4731(8) 0.4948(4)
H75 H 0.7619 0.5059 0.5173
C83 C 0.6578(10) 0.4557(7) 0.3940(4)
H76 H 0.6618 0.4765 0.3487
C84 C 0.6466(11) 0.3923(8) 0.5288(5)
H77 H 0.6437 0.3706 0.5741
C85 C 0.5856(10) 0.3759(8) 0.4284(4)
H78 H 0.5405 0.3432 0.4062
C86 C 0.5780(10) 0.3420(8) 0.4967(5)
C87 C 0.4948(11) 0.2542(8) 0.5349(5)
H79 H 0.3983 0.2569 0.5172
H80 H 0.4700 0.2544 0.5800
C88 C 0.7274(9) 0.1510(6) 0.5077(4)
H81 H 0.7906 0.1996 0.4850
C89 C 0.5347(12) 0.0821(10) 0.5631(10)
H82 H 0.4384 0.0697 0.5870
C90 C 0.6527(11) 0.0136(7) 0.5531(8)
N16 N 0.9560(6) 0.9917(4) 0.4065(2)
N17 N 0.9550(7) 0.9275(6) 0.3271(3)
N21 N 0.5839(7) 0.1654(5) 0.5332(4)
N23 N 0.2207(7) 0.0596(4) 0.9823(3)
H83 H 0.6484 0.9482 0.5683
O2 O 0.0544(8) 0.9393(4) 0.9214(2)
H93 H 0.038(9) 0.875(2) 0.929(4)
H94 H 0.134(7) 0.955(5) 0.886(3)
C41 C 0.6996(9) 0.9214(4) 0.9777(3)
H37 H 0.7314 0.9329 0.9332
C44 C 0.4504(10) 0.8526(5) 0.9771(4)
H40 H 0.4604 0.8864 0.9307
H41 H 0.3482 0.8698 0.9958
C45 C 0.4642(10) 0.7469(5) 0.9854(3)
C46 C 0.410(3) 0.7151(7) 0.9411(6)
H42 H 0.3625 0.7573 0.9067
C48 C 0.425(3) 0.6180(7) 0.9474(7)
H44 H 0.3875 0.5975 0.9164
C50 C 0.4925(14) 0.5515(5) 0.9970(4)
C92 C 0.3056(9) 0.0899(4) 0.9214(3)
H85 H 0.2765 0.0871 0.8824
C93 C 0.4360(8) 0.1238(4) 0.9275(3)
H86 H 0.5132 0.1476 0.8939
C97 C 0.4955(10) 0.3198(5) 0.9605(4)
H90 H 0.4748 0.3006 0.9256
C99 C 0.4834(10) 0.4154(5) 0.9545(4)
H92 H 0.4577 0.4583 0.9154
N24 N 0.4345(7) 0.1167(3) 0.9924(3)
C67 C 0.0935(9) 0.6149(5) 0.1310(4)
H61 H 0.1240 0.5973 0.0910
H62 H 0.1643 0.5805 0.1621
C68 C 0.0619(8) 0.7854(5) 0.0652(3)
H63 H 0.0236 0.7738 0.0307
C69 C 0.1572(8) 0.7621(5) 0.1563(3)
H64 H 0.1956 0.7331 0.1961
C70 C 0.1398(10) 0.8559(5) 0.1262(3)
H65 H 0.1658 0.9034 0.1418
N13 N 0.0774(7) 0.8703(4) 0.0688(3)
N15 N 0.1075(6) 0.7178(4) 0.1168(3)
Co6_7 Co 0.0000 1.0000 0.0000
Co6_8 Co 1.0000 -0.0000 1.0000
C17 C 0.9065(9) 0.3851(5) 0.8690(4)
H14 H 0.8760 0.4027 0.9090
H15 H 0.8357 0.4195 0.8379
C18 C 0.9381(8) 0.2146(5) 0.9348(3)
H16 H 0.9764 0.2262 0.9693
C19 C 0.8428(8) 0.2379(5) 0.8437(3)
H17 H 0.8044 0.2669 0.8039
C20 C 0.8602(10) 0.1441(5) 0.8738(3)
H18 H 0.8342 0.0966 0.8582
N3 N 0.9226(7) 0.1297(4) 0.9312(3)
N4 N 0.8925(6) 0.2822(4) 0.8832(3)
N25 N 0.147(2) 0.7819(7) 0.7553(6)
O4 O 0.2388(12) 0.7685(6) 0.6984(5)
O5 O 0.2472(14) 0.7917(6) 0.7890(6)
O3 O 0.9919(15) 0.7828(11) 0.7720(10)
O3_2 O 0.0081(15) 0.2172(11) 0.2280(10)
N25_2 N 0.853(2) 0.2181(7) 0.2447(6)
O4_2 O 0.7612(12) 0.2315(6) 0.3016(5)
O5_2 O 0.7528(14) 0.2083(6) 0.2110(6)
N26 N 0.5919(11) 0.1907(8) 0.7204(6)
O6 O 0.5611(12) 0.1684(7) 0.7750(4)
O7 O 0.6338(11) 0.2739(8) 0.6934(5)
O8 O 0.6143(13) 0.1438(7) 0.6826(4)
N26_2 N 0.4081(11) 0.8093(8) 0.2796(6)
O6_2 O 0.4389(12) 0.8316(7) 0.2250(4)
O7_2 O 0.3662(11) 0.7261(8) 0.3066(5)
O8_2 O 0.3857(13) 0.8562(7) 0.3174(4)
loop_
_geom_bond_atom_site_label_1
_geom_bond_atom_site_label_2
_geom_bond_site_symmetry_1
_geom_bond_site_symmetry_2
H21 C23 1_555 1_555
C24 H22 1_555 1_555
C25 C24 1_555 1_555
C26 C25 1_555 1_555
C27 C25 1_555 1_555
H25 C27 1_555 1_555
C28 C26 1_555 1_555
H26 C28 1_555 1_555
C29 C27 1_555 1_555
H27 C29 1_555 1_555
C30 C28 1_555 1_555
C31 C30 1_555 1_555
C32 C31 1_555 1_555
H28 C32 1_555 1_555
C33 C31 1_555 1_555
H29 C33 1_555 1_555
C34 C32 1_555 1_555
H30 C34 1_555 1_555
C35 C33 1_555 1_555
H31 C35 1_555 1_555
C36 C34 1_555 1_555
C37 C36 1_555 1_555
H32 C37 1_555 1_555
H33 C37 1_555 1_555
C38 H34 1_555 1_555
C39 H35 1_555 1_555
C40 C39 1_555 1_555
N7 C38 1_555 1_555
N8 C37 1_555 1_555
C51 H48 1_555 1_555
C52 H49 1_555 1_555
C53 C52 1_555 1_555
H50 C53 1_555 1_555
C55 C54 1_555 1_555
C56 C55 1_555 1_555
H53 C56 1_555 1_555
C57 C55 1_555 1_555
H54 C57 1_555 1_555
C58 C56 1_555 1_555
H55 C58 1_555 1_555
C59 C57 1_555 1_555
H56 C59 1_555 1_555
C60 C58 1_555 1_555
C61 C60 1_555 1_555
C62 C61 1_555 1_555
H57 C62 1_555 1_555
C63 C61 1_555 1_555
H58 C63 1_555 1_555
C64 C62 1_555 1_555
H59 C64 1_555 1_555
C65 C63 1_555 1_555
H60 C65 1_555 1_555
C66 C64 1_555 1_555
N11 Co3 1_555 1_555
N12 C51 1_555 1_555
Co3_2 N7 1_555 1_555
C23 N6 1_555 1_555
C24 N6 1_555 1_555
C29 C30 1_555 1_555
C35 C36 1_555 1_555
C38 N8 1_555 1_555
C39 N8 1_555 1_555
C40 N7 1_555 1_555
N5 Co3 1_555 1_555
C51 N11 1_555 1_555
C52 N11 1_555 1_555
C53 N12 1_555 1_555
C54 N12 1_555 1_555
C59 C60 1_555 1_555
C65 C66 1_555 1_555
C22 H20 1_555 1_555
C71 H66 1_555 1_555
O1 Co6_2 1_555 1_555
H46 O1 1_555 1_555
H47 O1 1_555 1_555
C42 H38 1_555 1_555
C43 C42 1_555 1_555
H39 C43 1_555 1_555
H43 C47 1_555 1_555
C49 C47 1_555 1_555
H45 C49 1_555 1_555
C91 H84 1_555 1_555
C94 H87 1_555 1_555
H88 C94 1_555 1_555
C95 C94 1_555 1_555
C96 C95 1_555 1_555
H89 C96 1_555 1_555
C98 C96 1_555 1_555
H91 C98 1_555 1_555
C42 N9 1_555 1_555
C43 N10 1_555 1_555
N9 Co6_3 1_555 1_555
C98 C100 1_555 1_555
C21 H19 1_555 1_555
C72 H67 1_555 1_555
N20 Co3_3 1_555 1_555
C1 H1 1_555 1_555
C2 H2 1_555 1_555
C3 C2 1_555 1_555
H3 C3 1_555 1_555
C5 C4 1_555 1_555
C6 C5 1_555 1_555
H6 C6 1_555 1_555
C7 C5 1_555 1_555
H7 C7 1_555 1_555
C8 C6 1_555 1_555
H8 C8 1_555 1_555
C9 C7 1_555 1_555
H9 C9 1_555 1_555
C10 C8 1_555 1_555
C11 C10 1_555 1_555
C12 C11 1_555 1_555
H10 C12 1_555 1_555
C13 C11 1_555 1_555
H11 C13 1_555 1_555
C14 C12 1_555 1_555
H12 C14 1_555 1_555
C15 C13 1_555 1_555
H13 C15 1_555 1_555
C16 C14 1_555 1_555
N1 C1 1_555 1_555
N2 C1 1_555 1_555
Co3_4 N1 1_555 1_555
H68 C73 1_555 1_555
C74 H69 1_555 1_555
C75 C74 1_555 1_555
C76 C75 1_555 1_555
C77 C75 1_555 1_555
H72 C77 1_555 1_555
C78 C76 1_555 1_555
H73 C78 1_555 1_555
C79 C77 1_555 1_555
H74 C79 1_555 1_555
C80 C78 1_555 1_555
C81 C80 1_555 1_555
C82 C81 1_555 1_555
H75 C82 1_555 1_555
C83 C81 1_555 1_555
H76 C83 1_555 1_555
C84 C82 1_555 1_555
H77 C84 1_555 1_555
C85 C83 1_555 1_555
H78 C85 1_555 1_555
C86 C84 1_555 1_555
C87 C86 1_555 1_555
H79 C87 1_555 1_555
H80 C87 1_555 1_555
C88 H81 1_555 1_555
C89 H82 1_555 1_555
C90 C89 1_555 1_555
N16 Co3_4 1_555 1_555
N20 C88 1_555 1_555
N21 C87 1_555 1_555
N23 Co6_4 1_555 1_555
C2 N1 1_555 1_555
C3 N2 1_555 1_555
C4 N2 1_555 1_555
C9 C10 1_555 1_555
C15 C16 1_555 1_555
C73 N17 1_555 1_555
C74 N17 1_555 1_555
C79 C80 1_555 1_555
C85 C86 1_555 1_555
C88 N21 1_555 1_555
C89 N21 1_555 1_555
C90 N20 1_555 1_555
O2 Co6_5 1_555 1_555
H93 O2 1_555 1_555
H94 O2 1_555 1_555
C41 H37 1_555 1_555
C44 H40 1_555 1_555
H41 C44 1_555 1_555
C45 C44 1_555 1_555
C46 C45 1_555 1_555
H42 C46 1_555 1_555
C48 C46 1_555 1_555
H44 C48 1_555 1_555
C50 C48 1_555 1_555
C92 H85 1_555 1_555
C93 C92 1_555 1_555
H86 C93 1_555 1_555
H90 C97 1_555 1_555
C99 C97 1_555 1_555
H92 C99 1_555 1_555
C92 N23 1_555 1_555
C93 N24 1_555 1_555
H61 C67 1_555 1_555
H62 C67 1_555 1_555
C68 H63 1_555 1_555
C69 H64 1_555 1_555
C70 C69 1_555 1_555
H65 C70 1_555 1_555
N13 C68 1_555 1_555
N15 C67 1_555 1_555
Co6_7 N13 1_555 1_555
C68 N15 1_555 1_555
C69 N15 1_555 1_555
C70 N13 1_555 1_555
H14 C17 1_555 1_555
H15 C17 1_555 1_555
C18 H16 1_555 1_555
C19 H17 1_555 1_555
C20 C19 1_555 1_555
H18 C20 1_555 1_555
N3 C18 1_555 1_555
N4 C17 1_555 1_555
Co6_8 N3 1_555 1_555
C18 N4 1_555 1_555
C19 N4 1_555 1_555
C20 N3 1_555 1_555
O4 N25 1_555 1_555
O5 N25 1_555 1_555
O4_2 N25_2 1_555 1_555
O5_2 N25_2 1_555 1_555
N26 O6 1_555 1_555
O7 N26 1_555 1_555
O8 N26 1_555 1_555
N26_2 O6_2 1_555 1_555
O7_2 N26_2 1_555 1_555
O8_2 N26_2 1_555 1_555

#END
