
###############################################################################
#
# This file contains modified crystal structure data generated from the
# MOF subset of the Cambridge Structural Database (CSD) v543 
# hosted by the Cambridge Crystallographic Data Centre (CCDC).
#
# This work is licensed under the Creative Commons
# Attribution-NonCommercial-ShareAlike 4.0 International License.
# To view a copy of this license, visit
# http://creativecommons.org/licenses/by-nc-sa/4.0/
# or send a letter to
# Creative Commons, PO Box 1866, Mountain View, CA 94042, USA.
#
# CIF created using the CSD Python API on 29 September 2022
# The structure has been converted into the P1 space group
# The structure has a 3D framework
# The original CSD entry COKMUM is in the rhombohedral crystal system
# The framework has been calculated to contain at least 10.0% void space
# The void calculation uses a probe of radius 1.32A, grid spacing 0.4
# The framework is charged, counterions have been retained in the structure
#
###############################################################################

data_COKMUM
_chemical_formula_moiety         '(C72 H18 Mn8 O54 20-)n'
_symmetry_cell_setting           triclinic
_symmetry_space_group_name_H-M   'P 1'
_symmetry_Int_Tables_number      1
_space_group_name_Hall           'P 1'
loop_
_symmetry_equiv_pos_site_id
_symmetry_equiv_pos_as_xyz
1 x,y,z
_cell_length_a                   26.3262(16)
_cell_length_b                   26.3262
_cell_length_c                   7.0440(5)
_cell_angle_alpha                90
_cell_angle_beta                 90
_cell_angle_gamma                120
_cell_volume                     4227.92
loop_
_atom_site_label
_atom_site_type_symbol
_atom_site_fract_x
_atom_site_fract_y
_atom_site_fract_z
_atom_site_U_iso_or_equiv
_atom_site_thermal_displace_type
Mn1 Mn 0.3856(10) 0.3609(11) 0.142(4) 0.0330 Uiso
O1 O 0.3292(6) 0.2945(6) 0.3615(19) 0.0188 Uiso
O2 O 0.3007(7) 0.2278(7) 0.5889(19) 0.0188 Uiso
O3 O 0.3572(6) 0.2768(7) 0.0107(23) 0.0188 Uiso
C1 C 0.3202(5) 0.2457(5) 0.4193(15) 0.0171 Uiso
C2 C 0.3288(6) 0.2053(5) 0.2876(17) 0.0171 Uiso
C3 C 0.3453(6) 0.2235(6) 0.0898(15) 0.0171 Uiso
O6 O 0.3095(6) 0.0565(7) 0.3226(23) 0.0188 Uiso
C6 C 0.3379(6) 0.1280(5) 0.0457(17) 0.0171 Uiso
C7 C 0.3214(6) 0.1098(6) 0.2435(15) 0.0171 Uiso
C8 C 0.3143(6) 0.1501(6) 0.3543(15) 0.0171 Uiso
H2 H 0.3058(10) 0.1414(8) 0.4945(27) 0.0040 Uiso
Mn3 Mn 0.3058(11) 0.3580(15) 0.475(4) 0.0330 Uiso
Mn5 Mn 0.3086(15) 0.2811(10) 0.809(4) 0.0330 Uiso
Mn8 Mn 0.3580(15) 0.0523(10) 0.525(4) 0.0330 Uiso
O7 O 0.2986(8) 0.3375(6) 0.0282(19) 0.0188 Uiso
O11 O 0.3899(7) 0.4137(9) 0.3440(23) 0.0188 Uiso
C4 C 0.3524(6) 0.1832(6) 0.9790(15) 0.0171 Uiso
H1 H 0.3609(10) 0.1919(8) 0.8388(27) 0.0040 Uiso
O4 O 0.3375(6) 0.0388(6) 0.9718(19) 0.0188 Uiso
O5 O 0.3660(7) 0.1055(7) 0.7444(19) 0.0188 Uiso
C5 C 0.3465(5) 0.0876(5) 0.9140(15) 0.0171 Uiso
O9 O 0.4389(7) 0.4062(10) 0.9222(19) 0.0188 Uiso
O13 O 0.4137(9) 0.0239(6) 0.6560(23) 0.0188 Uiso
Mn6 Mn 0.2811(10) 0.9724(11) 0.191(4) 0.0330 Uiso
O10 O 0.4062(10) 0.9674(7) 0.0778(19) 0.0188 Uiso
Mn2 Mn 0.3609(11) 0.9753(15) 0.858(4) 0.0330 Uiso
O8 O 0.2945(6) 0.9653(8) 0.6385(19) 0.0188 Uiso
O12 O 0.2768(7) 0.9196(9) 0.9893(23) 0.0188 Uiso
Mn6_2 Mn 0.0276(11) 0.3086(15) 0.191(4) 0.0330 Uiso
O10_2 O 0.0326(7) 0.4389(12) 0.0778(19) 0.0188 Uiso
Mn2_2 Mn 0.0247(15) 0.3856(19) 0.858(4) 0.0330 Uiso
O8_2 O 0.0347(8) 0.3292(10) 0.6385(19) 0.0188 Uiso
O12_2 O 0.0804(9) 0.3572(11) 0.9893(23) 0.0188 Uiso
Mn1_2 Mn 0.6391(11) 0.0247(15) 0.142(4) 0.0330 Uiso
O1_2 O 0.7055(6) 0.0347(8) 0.3615(19) 0.0188 Uiso
O2_2 O 0.7722(7) 0.0729(10) 0.5889(19) 0.0188 Uiso
O3_2 O 0.7232(7) 0.0804(9) 0.0107(23) 0.0188 Uiso
C1_2 C 0.7543(5) 0.0745(7) 0.4193(15) 0.0171 Uiso
C2_2 C 0.7947(5) 0.1235(8) 0.2876(17) 0.0171 Uiso
C3_2 C 0.7765(6) 0.1218(8) 0.0898(15) 0.0171 Uiso
O6_2 O 0.9435(7) 0.2529(9) 0.3226(23) 0.0188 Uiso
C6_2 C 0.8720(5) 0.2098(8) 0.0457(17) 0.0171 Uiso
C7_2 C 0.8902(6) 0.2115(8) 0.2435(15) 0.0171 Uiso
C8_2 C 0.8499(6) 0.1641(8) 0.3543(15) 0.0171 Uiso
H2_2 H 0.8586(8) 0.1643(13) 0.4945(27) 0.0040 Uiso
Mn5_2 Mn 0.7189(10) 0.0276(18) 0.809(4) 0.0330 Uiso
Mn8_2 Mn 0.9477(10) 0.3058(18) 0.525(4) 0.0330 Uiso
C4_2 C 0.8168(6) 0.1692(8) 0.9790(15) 0.0171 Uiso
H1_2 H 0.8081(8) 0.1690(13) 0.8388(27) 0.0040 Uiso
O4_2 O 0.9612(6) 0.2986(8) 0.9718(19) 0.0188 Uiso
O5_2 O 0.8945(7) 0.2604(10) 0.7444(19) 0.0188 Uiso
C5_2 C 0.9124(5) 0.2588(7) 0.9140(15) 0.0171 Uiso
O9_2 O 0.5938(10) 0.0326(12) 0.9222(19) 0.0188 Uiso
O13_2 O 0.9761(6) 0.3899(11) 0.6560(23) 0.0188 Uiso
Mn3_2 Mn 0.6420(15) 0.9477(19) 0.475(4) 0.0330 Uiso
O7_2 O 0.6625(6) 0.9612(10) 0.0282(19) 0.0188 Uiso
O11_2 O 0.5863(9) 0.9761(11) 0.3440(23) 0.0188 Uiso
Mn3_3 Mn 0.0523(19) 0.6942(11) 0.475(4) 0.0330 Uiso
O7_3 O 0.0388(10) 0.7014(8) 0.0282(19) 0.0188 Uiso
O11_3 O 0.0239(11) 0.6101(7) 0.3440(23) 0.0188 Uiso
Mn1_3 Mn 0.9753(15) 0.6144(10) 0.142(4) 0.0330 Uiso
O1_3 O 0.9653(8) 0.6708(6) 0.3615(19) 0.0188 Uiso
O2_3 O 0.9271(10) 0.6993(7) 0.5889(19) 0.0188 Uiso
O3_3 O 0.9196(9) 0.6428(6) 0.0107(23) 0.0188 Uiso
C1_3 C 0.9255(7) 0.6798(5) 0.4193(15) 0.0171 Uiso
C2_3 C 0.8765(8) 0.6712(6) 0.2876(17) 0.0171 Uiso
C3_3 C 0.8782(8) 0.6547(6) 0.0898(15) 0.0171 Uiso
O6_3 O 0.7471(9) 0.6905(6) 0.3226(23) 0.0188 Uiso
C6_3 C 0.7902(8) 0.6621(6) 0.0457(17) 0.0171 Uiso
C7_3 C 0.7885(8) 0.6786(6) 0.2435(15) 0.0171 Uiso
C8_3 C 0.8359(8) 0.6857(6) 0.3543(15) 0.0171 Uiso
H2_3 H 0.8357(13) 0.6942(10) 0.4945(27) 0.0040 Uiso
Mn5_3 Mn 0.9724(18) 0.6914(15) 0.809(4) 0.0330 Uiso
Mn6_3 Mn 0.6914(15) 0.7189(10) 0.191(4) 0.0330 Uiso
Mn8_3 Mn 0.6942(18) 0.6420(15) 0.525(4) 0.0330 Uiso
O10_3 O 0.5611(12) 0.5938(10) 0.0778(19) 0.0188 Uiso
C4_3 C 0.8308(8) 0.6476(6) 0.9790(15) 0.0171 Uiso
H1_3 H 0.8310(13) 0.6391(10) 0.8388(27) 0.0040 Uiso
O4_3 O 0.7014(8) 0.6625(6) 0.9718(19) 0.0188 Uiso
O5_3 O 0.7396(10) 0.6340(7) 0.7444(19) 0.0188 Uiso
C5_3 C 0.7412(7) 0.6535(5) 0.9140(15) 0.0171 Uiso
Mn2_3 Mn 0.6144(19) 0.6391(11) 0.858(4) 0.0330 Uiso
O8_3 O 0.6708(10) 0.7055(6) 0.6385(19) 0.0188 Uiso
O9_3 O 0.9674(12) 0.5611(7) 0.9222(19) 0.0188 Uiso
O12_3 O 0.6428(11) 0.7232(7) 0.9893(23) 0.0188 Uiso
O13_3 O 0.6101(11) 0.5863(9) 0.6560(23) 0.0188 Uiso
C3_4 C 0.0120(6) 0.5568(6) 0.4231(15) 0.0171 Uiso
C4_4 C 0.0191(6) 0.5165(6) 0.3123(15) 0.0171 Uiso
H1_4 H 0.0276(10) 0.5252(8) 0.1721(27) 0.0040 Uiso
O4_4 O 0.0041(6) 0.3722(6) 0.3052(19) 0.0188 Uiso
C5_4 C 0.0131(5) 0.4210(5) 0.2474(15) 0.0171 Uiso
C6_4 C 0.0045(6) 0.4614(5) 0.3791(17) 0.0171 Uiso
O9_4 O 0.1055(7) 0.7396(10) 0.2556(19) 0.0188 Uiso
O10_4 O 0.0729(10) 0.3007(7) 0.4111(19) 0.0188 Uiso
O11_4 O 0.0565(7) 0.7471(9) 0.6774(23) 0.0188 Uiso
O1_4 O 0.9959(6) 0.6278(6) 0.6948(19) 0.0188 Uiso
C1_4 C 0.9869(5) 0.5790(5) 0.7526(15) 0.0171 Uiso
C2_4 C 0.9955(6) 0.5386(5) 0.6209(17) 0.0171 Uiso
C7_4 C 0.9880(6) 0.4432(6) 0.5769(15) 0.0171 Uiso
C8_4 C 0.9809(6) 0.4835(6) 0.6877(15) 0.0171 Uiso
H2_4 H 0.9724(10) 0.4748(8) 0.8279(27) 0.0040 Uiso
O1_5 O 0.3722(6) 0.3680(8) 0.6948(19) 0.0188 Uiso
C1_5 C 0.4210(5) 0.4078(7) 0.7526(15) 0.0171 Uiso
C2_5 C 0.4614(5) 0.4568(8) 0.6209(17) 0.0171 Uiso
C3_5 C 0.4432(6) 0.4551(8) 0.4231(15) 0.0171 Uiso
C4_5 C 0.4835(6) 0.5025(8) 0.3123(15) 0.0171 Uiso
H1_5 H 0.4748(8) 0.5023(13) 0.1721(27) 0.0040 Uiso
O4_5 O 0.6278(6) 0.6320(8) 0.3052(19) 0.0188 Uiso
C5_5 C 0.5790(5) 0.5922(7) 0.2474(15) 0.0171 Uiso
C6_5 C 0.5386(5) 0.5432(8) 0.3791(17) 0.0171 Uiso
C7_5 C 0.5568(6) 0.5449(8) 0.5769(15) 0.0171 Uiso
C8_5 C 0.5165(6) 0.4975(8) 0.6877(15) 0.0171 Uiso
H2_5 H 0.5252(8) 0.4977(13) 0.8279(27) 0.0040 Uiso
O9_5 O 0.2604(10) 0.3660(12) 0.2556(19) 0.0188 Uiso
O10_5 O 0.6993(7) 0.7722(12) 0.4111(19) 0.0188 Uiso
O11_5 O 0.2529(9) 0.3095(11) 0.6774(23) 0.0188 Uiso
O1_6 O 0.6320(8) 0.0041(6) 0.6948(19) 0.0188 Uiso
C1_6 C 0.5922(7) 0.0131(5) 0.7526(15) 0.0171 Uiso
C2_6 C 0.5432(8) 0.0045(6) 0.6209(17) 0.0171 Uiso
C7_6 C 0.4551(8) 0.0120(6) 0.5769(15) 0.0171 Uiso
C8_6 C 0.5025(8) 0.0191(6) 0.6877(15) 0.0171 Uiso
H2_6 H 0.5023(13) 0.0276(10) 0.8279(27) 0.0040 Uiso
C3_6 C 0.5449(8) 0.9880(6) 0.4231(15) 0.0171 Uiso
C4_6 C 0.4975(8) 0.9809(6) 0.3123(15) 0.0171 Uiso
H1_6 H 0.4977(13) 0.9724(10) 0.1721(27) 0.0040 Uiso
O4_6 O 0.3680(8) 0.9959(6) 0.3052(19) 0.0188 Uiso
C5_6 C 0.4078(7) 0.9869(5) 0.2474(15) 0.0171 Uiso
C6_6 C 0.4568(8) 0.9955(6) 0.3791(17) 0.0171 Uiso
O9_6 O 0.6340(12) 0.8945(7) 0.2556(19) 0.0188 Uiso
O10_6 O 0.2278(12) 0.9271(10) 0.4111(19) 0.0188 Uiso
O11_6 O 0.6905(11) 0.9435(7) 0.6774(23) 0.0188 Uiso
C1_7 C 0.6535(5) 0.9124(5) 0.0860(15) 0.0171 Uiso
C8_7 C 0.6476(6) 0.8168(6) 0.0210(15) 0.0171 Uiso
H2_7 H 0.6391(10) 0.8081(8) 0.1612(27) 0.0040 Uiso
C2_7 C 0.6621(6) 0.8720(5) 0.9543(17) 0.0171 Uiso
C3_7 C 0.6786(6) 0.8902(6) 0.7565(15) 0.0171 Uiso
C4_7 C 0.6857(6) 0.8499(6) 0.6457(15) 0.0171 Uiso
H1_7 H 0.6942(10) 0.8586(8) 0.5055(27) 0.0040 Uiso
C5_7 C 0.6798(5) 0.7543(5) 0.5807(15) 0.0171 Uiso
C6_7 C 0.6712(6) 0.7947(5) 0.7124(17) 0.0171 Uiso
C7_7 C 0.6547(6) 0.7765(6) 0.9102(15) 0.0171 Uiso
C1_8 C 0.0876(5) 0.7412(7) 0.0860(15) 0.0171 Uiso
C8_8 C 0.1832(6) 0.8308(8) 0.0210(15) 0.0171 Uiso
H2_8 H 0.1919(8) 0.8310(13) 0.1612(27) 0.0040 Uiso
C2_8 C 0.1280(5) 0.7902(8) 0.9543(17) 0.0171 Uiso
C3_8 C 0.1098(6) 0.7885(8) 0.7565(15) 0.0171 Uiso
C4_8 C 0.1501(6) 0.8359(8) 0.6457(15) 0.0171 Uiso
H1_8 H 0.1414(8) 0.8357(13) 0.5055(27) 0.0040 Uiso
C5_8 C 0.2457(5) 0.9255(7) 0.5807(15) 0.0171 Uiso
C6_8 C 0.2053(5) 0.8765(8) 0.7124(17) 0.0171 Uiso
C7_8 C 0.2235(6) 0.8782(8) 0.9102(15) 0.0171 Uiso
C1_9 C 0.2588(7) 0.3465(5) 0.0860(15) 0.0171 Uiso
C8_9 C 0.1692(8) 0.3524(6) 0.0210(15) 0.0171 Uiso
H2_9 H 0.1690(13) 0.3609(10) 0.1612(27) 0.0040 Uiso
C2_9 C 0.2098(8) 0.3379(6) 0.9543(17) 0.0171 Uiso
C3_9 C 0.2115(8) 0.3214(6) 0.7565(15) 0.0171 Uiso
C4_9 C 0.1641(8) 0.3143(6) 0.6457(15) 0.0171 Uiso
H1_9 H 0.1643(13) 0.3058(10) 0.5055(27) 0.0040 Uiso
C5_9 C 0.0745(7) 0.3202(5) 0.5807(15) 0.0171 Uiso
C6_9 C 0.1235(8) 0.3288(6) 0.7124(17) 0.0171 Uiso
C7_9 C 0.1218(8) 0.3453(6) 0.9102(15) 0.0171 Uiso
loop_
_geom_bond_atom_site_label_1
_geom_bond_atom_site_label_2
_geom_bond_site_symmetry_1
_geom_bond_site_symmetry_2
Mn1 O1 1_555 1_555
O1 C1 1_555 1_555
O2 C1 1_555 1_555
O3 Mn1 1_555 1_555
C1 C2 1_555 1_555
C2 C3 1_555 1_555
C3 O3 1_555 1_555
O6 C7 1_555 1_555
C7 C6 1_555 1_555
C8 C2 1_555 1_555
H2 C8 1_555 1_555
Mn3 O1 1_555 1_555
Mn5 O2 1_555 1_555
Mn8 O6 1_555 1_555
O7 Mn1 1_555 1_555
O11 Mn1 1_555 1_555
C7 C8 1_555 1_555
Mn3 O11 1_555 1_555
H1 C4 1_555 1_555
O4 C5 1_555 1_555
O5 C5 1_555 1_555
Mn8 O5 1_555 1_555
Mn8 O13 1_555 1_555
O8 Mn2 1_555 1_555
O12 Mn2 1_555 1_555
O8_2 Mn2_2 1_555 1_555
O12_2 Mn2_2 1_555 1_555
Mn1_2 O1_2 1_555 1_555
O1_2 C1_2 1_555 1_555
O2_2 C1_2 1_555 1_555
O3_2 Mn1_2 1_555 1_555
C1_2 C2_2 1_555 1_555
C2_2 C3_2 1_555 1_555
C3_2 O3_2 1_555 1_555
O6_2 C7_2 1_555 1_555
C7_2 C6_2 1_555 1_555
C8_2 C2_2 1_555 1_555
H2_2 C8_2 1_555 1_555
Mn5_2 O2_2 1_555 1_555
Mn8_2 O6_2 1_555 1_555
C7_2 C8_2 1_555 1_555
H1_2 C4_2 1_555 1_555
O4_2 C5_2 1_555 1_555
O5_2 C5_2 1_555 1_555
Mn8_2 O5_2 1_555 1_555
Mn8_2 O13_2 1_555 1_555
Mn3_2 O11_2 1_555 1_555
Mn3_3 O11_3 1_555 1_555
Mn1_3 O1_3 1_555 1_555
O1_3 C1_3 1_555 1_555
O2_3 C1_3 1_555 1_555
O3_3 Mn1_3 1_555 1_555
C1_3 C2_3 1_555 1_555
C2_3 C3_3 1_555 1_555
C3_3 O3_3 1_555 1_555
O6_3 C7_3 1_555 1_555
C7_3 C6_3 1_555 1_555
C8_3 C2_3 1_555 1_555
H2_3 C8_3 1_555 1_555
Mn5_3 O2_3 1_555 1_555
Mn8_3 O6_3 1_555 1_555
O6_3 Mn6_3 1_555 1_555
C7_3 C8_3 1_555 1_555
H1_3 C4_3 1_555 1_555
O4_3 C5_3 1_555 1_555
O5_3 C5_3 1_555 1_555
Mn2_3 O4_3 1_555 1_555
Mn8_3 O5_3 1_555 1_555
O8_3 Mn2_3 1_555 1_555
O12_3 Mn2_3 1_555 1_555
O13_3 Mn2_3 1_555 1_555
Mn8_3 O8_3 1_555 1_555
Mn8_3 O13_3 1_555 1_555
C3_4 O11_3 1_555 1_555
C4_4 C3_4 1_555 1_555
H1_4 C4_4 1_555 1_555
O4_4 C5_4 1_555 1_555
O10_2 C5_4 1_555 1_555
C5_4 C6_4 1_555 1_555
C6_4 C4_4 1_555 1_555
Mn6_2 O4_4 1_555 1_555
O9_4 Mn3_3 1_555 1_555
O10_4 Mn6_2 1_555 1_555
O11_4 Mn3_3 1_555 1_555
O1_4 C1_4 1_555 1_555
O9_3 C1_4 1_555 1_555
C1_4 C2_4 1_555 1_555
O13_2 C7_4 1_555 1_555
C8_4 C2_4 1_555 1_555
H2_4 C8_4 1_555 1_555
Mn5_3 O1_4 1_555 1_555
C7_4 C8_4 1_555 1_555
Mn3 O1_5 1_555 1_555
O1_5 C1_5 1_555 1_555
O9 C1_5 1_555 1_555
C1_5 C2_5 1_555 1_555
C2_5 C3_5 1_555 1_555
C3_5 O11 1_555 1_555
C4_5 C3_5 1_555 1_555
H1_5 C4_5 1_555 1_555
O4_5 C5_5 1_555 1_555
O10_3 C5_5 1_555 1_555
O13_3 C7_5 1_555 1_555
C5_5 C6_5 1_555 1_555
C6_5 C4_5 1_555 1_555
C7_5 C6_5 1_555 1_555
C8_5 C2_5 1_555 1_555
H2_5 C8_5 1_555 1_555
Mn6_3 O4_5 1_555 1_555
Mn5 O1_5 1_555 1_555
Mn8_3 O4_5 1_555 1_555
O9_5 Mn3 1_555 1_555
O10_5 Mn6_3 1_555 1_555
O11_5 Mn3 1_555 1_555
C7_5 C8_5 1_555 1_555
Mn5 O11_5 1_555 1_555
O1_6 C1_6 1_555 1_555
O9_2 C1_6 1_555 1_555
C1_6 C2_6 1_555 1_555
O13 C7_6 1_555 1_555
C8_6 C2_6 1_555 1_555
H2_6 C8_6 1_555 1_555
Mn5_2 O1_6 1_555 1_555
C7_6 C8_6 1_555 1_555
C3_6 O11_2 1_555 1_555
C4_6 C3_6 1_555 1_555
H1_6 C4_6 1_555 1_555
O4_6 C5_6 1_555 1_555
O10 C5_6 1_555 1_555
C5_6 C6_6 1_555 1_555
C6_6 C4_6 1_555 1_555
Mn6 O4_6 1_555 1_555
O9_6 Mn3_2 1_555 1_555
O10_6 Mn6 1_555 1_555
O11_6 Mn3_2 1_555 1_555
O7_2 C1_7 1_555 1_555
O9_6 C1_7 1_555 1_555
H2_7 C8_7 1_555 1_555
C2_7 C3_7 1_555 1_555
C3_7 O11_6 1_555 1_555
C4_7 C3_7 1_555 1_555
H1_7 C4_7 1_555 1_555
O8_3 C5_7 1_555 1_555
O10_5 C5_7 1_555 1_555
O12_3 C7_7 1_555 1_555
C5_7 C6_7 1_555 1_555
C6_7 C4_7 1_555 1_555
C7_7 C6_7 1_555 1_555
O7_3 C1_8 1_555 1_555
O9_4 C1_8 1_555 1_555
H2_8 C8_8 1_555 1_555
C2_8 C3_8 1_555 1_555
C3_8 O11_4 1_555 1_555
C4_8 C3_8 1_555 1_555
H1_8 C4_8 1_555 1_555
O8 C5_8 1_555 1_555
O10_6 C5_8 1_555 1_555
O12 C7_8 1_555 1_555
C5_8 C6_8 1_555 1_555
C6_8 C4_8 1_555 1_555
C7_8 C6_8 1_555 1_555
O7 C1_9 1_555 1_555
O9_5 C1_9 1_555 1_555
H2_9 C8_9 1_555 1_555
C2_9 C3_9 1_555 1_555
C3_9 O11_5 1_555 1_555
C4_9 C3_9 1_555 1_555
H1_9 C4_9 1_555 1_555
O8_2 C5_9 1_555 1_555
O10_4 C5_9 1_555 1_555
O12_2 C7_9 1_555 1_555
C5_9 C6_9 1_555 1_555
C6_9 C4_9 1_555 1_555
C7_9 C6_9 1_555 1_555

#END
