
###############################################################################
#
# This file contains modified crystal structure data generated from the
# MOF subset of the Cambridge Structural Database (CSD) v543 
# hosted by the Cambridge Crystallographic Data Centre (CCDC).
#
# This work is licensed under the Creative Commons
# Attribution-NonCommercial-ShareAlike 4.0 International License.
# To view a copy of this license, visit
# http://creativecommons.org/licenses/by-nc-sa/4.0/
# or send a letter to
# Creative Commons, PO Box 1866, Mountain View, CA 94042, USA.
#
# CIF created using the CSD Python API on 29 September 2022
# The structure has been converted into the P1 space group
# The structure has a 3D framework
# The original CSD entry COKNUN is in the rhombohedral crystal system
# The framework has been calculated to contain at least 10.0% void space
# The void calculation uses a probe of radius 1.32A, grid spacing 0.4
# The framework is charged, counterions have been retained in the structure
#
###############################################################################

data_COKNUN
_chemical_formula_moiety         '(C72 H18 Mn8 O54 20-)n'
_symmetry_cell_setting           triclinic
_symmetry_space_group_name_H-M   'P 1'
_symmetry_Int_Tables_number      1
_space_group_name_Hall           'P 1'
loop_
_symmetry_equiv_pos_site_id
_symmetry_equiv_pos_as_xyz
1 x,y,z
_cell_length_a                   26.3331(17)
_cell_length_b                   26.3331
_cell_length_c                   7.0477(5)
_cell_angle_alpha                90
_cell_angle_beta                 90
_cell_angle_gamma                120
_cell_volume                     4232.35
loop_
_atom_site_label
_atom_site_type_symbol
_atom_site_fract_x
_atom_site_fract_y
_atom_site_fract_z
_atom_site_U_iso_or_equiv
_atom_site_thermal_displace_type
Mn1 Mn 0.3854(7) 0.3606(9) 0.1424(28) 0.0070 Uiso
O1 O 0.3280(6) 0.2935(6) 0.3604(22) 0.0233 Uiso
O2 O 0.2999(7) 0.2282(7) 0.5913(19) 0.0233 Uiso
O3 O 0.3544(7) 0.2745(7) 0.0142(25) 0.0233 Uiso
C1 C 0.3186(5) 0.2441(5) 0.4201(15) 0.0141 Uiso
C2 C 0.3289(5) 0.2055(5) 0.2882(15) 0.0141 Uiso
C3 C 0.3443(6) 0.2219(5) 0.0886(14) 0.0141 Uiso
O6 O 0.3123(7) 0.0588(7) 0.3191(25) 0.0233 Uiso
C6 C 0.3378(5) 0.1278(5) 0.0451(15) 0.0141 Uiso
C7 C 0.3224(6) 0.1114(5) 0.2447(14) 0.0141 Uiso
C8 C 0.3144(5) 0.1492(5) 0.3516(14) 0.0141 Uiso
H2 H 0.3068(9) 0.1412(8) 0.4898(27) 0.0100 Uiso
Mn3 Mn 0.3061(9) 0.3581(11) 0.4757(28) 0.0070 Uiso
Mn5 Mn 0.3085(11) 0.2813(7) 0.8091(28) 0.0070 Uiso
Mn8 Mn 0.3581(11) 0.0521(7) 0.5243(28) 0.0070 Uiso
O7 O 0.2988(8) 0.3387(6) 0.0271(22) 0.0233 Uiso
O11 O 0.3922(7) 0.4132(10) 0.3475(25) 0.0233 Uiso
C4 C 0.3523(5) 0.1841(5) 0.9817(14) 0.0141 Uiso
H1 H 0.3599(9) 0.1921(8) 0.8435(27) 0.0100 Uiso
O4 O 0.3387(6) 0.0398(6) 0.9729(22) 0.0233 Uiso
O5 O 0.3668(7) 0.1051(7) 0.7420(19) 0.0233 Uiso
C5 C 0.3481(5) 0.0892(5) 0.9132(15) 0.0141 Uiso
O9 O 0.4385(7) 0.4050(10) 0.9246(19) 0.0233 Uiso
O13 O 0.4132(10) 0.0211(7) 0.6525(25) 0.0233 Uiso
Mn6 Mn 0.2813(7) 0.9727(9) 0.1909(28) 0.0070 Uiso
O10 O 0.4050(10) 0.9666(7) 0.0754(19) 0.0233 Uiso
Mn2 Mn 0.3606(9) 0.9752(11) 0.8576(28) 0.0070 Uiso
O8 O 0.2935(6) 0.9655(8) 0.6396(22) 0.0233 Uiso
O12 O 0.2745(7) 0.9201(10) 0.9858(25) 0.0233 Uiso
Mn6_2 Mn 0.0273(9) 0.3085(11) 0.1909(28) 0.0070 Uiso
O10_2 O 0.0334(7) 0.4385(12) 0.0754(19) 0.0233 Uiso
Mn2_2 Mn 0.0248(11) 0.3854(14) 0.8576(28) 0.0070 Uiso
O8_2 O 0.0345(8) 0.3280(10) 0.6396(22) 0.0233 Uiso
O12_2 O 0.0799(10) 0.3544(12) 0.9858(25) 0.0233 Uiso
Mn1_2 Mn 0.6394(9) 0.0248(11) 0.1424(28) 0.0070 Uiso
O1_2 O 0.7065(6) 0.0345(8) 0.3604(22) 0.0233 Uiso
O2_2 O 0.7718(7) 0.0717(10) 0.5913(19) 0.0233 Uiso
O3_2 O 0.7255(7) 0.0799(10) 0.0142(25) 0.0233 Uiso
C1_2 C 0.7559(5) 0.0745(7) 0.4201(15) 0.0141 Uiso
C2_2 C 0.7945(5) 0.1234(7) 0.2882(15) 0.0141 Uiso
C3_2 C 0.7781(5) 0.1224(8) 0.0886(14) 0.0141 Uiso
O6_2 O 0.9412(7) 0.2534(10) 0.3191(25) 0.0233 Uiso
C6_2 C 0.8722(5) 0.2099(7) 0.0451(15) 0.0141 Uiso
C7_2 C 0.8886(5) 0.2109(8) 0.2447(14) 0.0141 Uiso
C8_2 C 0.8508(5) 0.1651(7) 0.3516(14) 0.0141 Uiso
H2_2 H 0.8588(8) 0.1655(12) 0.4898(27) 0.0100 Uiso
Mn5_2 Mn 0.7187(7) 0.0273(13) 0.8091(28) 0.0070 Uiso
Mn8_2 Mn 0.9479(7) 0.3061(13) 0.5243(28) 0.0070 Uiso
C4_2 C 0.8159(5) 0.1682(7) 0.9817(14) 0.0141 Uiso
H1_2 H 0.8079(8) 0.1678(12) 0.8435(27) 0.0100 Uiso
O4_2 O 0.9602(6) 0.2988(8) 0.9729(22) 0.0233 Uiso
O5_2 O 0.8949(7) 0.2616(10) 0.7420(19) 0.0233 Uiso
C5_2 C 0.9108(5) 0.2588(7) 0.9132(15) 0.0141 Uiso
O9_2 O 0.5950(10) 0.0334(12) 0.9246(19) 0.0233 Uiso
O13_2 O 0.9789(7) 0.3922(12) 0.6525(25) 0.0233 Uiso
Mn3_2 Mn 0.6419(11) 0.9479(14) 0.4757(28) 0.0070 Uiso
O7_2 O 0.6613(6) 0.9602(10) 0.0271(22) 0.0233 Uiso
O11_2 O 0.5868(10) 0.9789(12) 0.3475(25) 0.0233 Uiso
Mn3_3 Mn 0.0521(14) 0.6939(9) 0.4757(28) 0.0070 Uiso
O7_3 O 0.0398(10) 0.7012(8) 0.0271(22) 0.0233 Uiso
O11_3 O 0.0211(12) 0.6078(7) 0.3475(25) 0.0233 Uiso
Mn1_3 Mn 0.9752(11) 0.6146(7) 0.1424(28) 0.0070 Uiso
O1_3 O 0.9655(8) 0.6720(6) 0.3604(22) 0.0233 Uiso
O2_3 O 0.9283(10) 0.7001(7) 0.5913(19) 0.0233 Uiso
O3_3 O 0.9201(10) 0.6456(7) 0.0142(25) 0.0233 Uiso
C1_3 C 0.9255(7) 0.6814(5) 0.4201(15) 0.0141 Uiso
C2_3 C 0.8766(7) 0.6711(5) 0.2882(15) 0.0141 Uiso
C3_3 C 0.8776(8) 0.6557(6) 0.0886(14) 0.0141 Uiso
O6_3 O 0.7466(10) 0.6877(7) 0.3191(25) 0.0233 Uiso
C6_3 C 0.7901(7) 0.6622(5) 0.0451(15) 0.0141 Uiso
C7_3 C 0.7891(8) 0.6776(6) 0.2447(14) 0.0141 Uiso
C8_3 C 0.8349(7) 0.6856(5) 0.3516(14) 0.0141 Uiso
H2_3 H 0.8345(12) 0.6932(9) 0.4898(27) 0.0100 Uiso
Mn5_3 Mn 0.9727(13) 0.6915(11) 0.8091(28) 0.0070 Uiso
Mn6_3 Mn 0.6915(11) 0.7187(7) 0.1909(28) 0.0070 Uiso
Mn8_3 Mn 0.6939(13) 0.6419(11) 0.5243(28) 0.0070 Uiso
O10_3 O 0.5615(12) 0.5950(10) 0.0754(19) 0.0233 Uiso
C4_3 C 0.8318(7) 0.6477(5) 0.9817(14) 0.0141 Uiso
H1_3 H 0.8322(12) 0.6401(9) 0.8435(27) 0.0100 Uiso
O4_3 O 0.7012(8) 0.6613(6) 0.9729(22) 0.0233 Uiso
O5_3 O 0.7384(10) 0.6332(7) 0.7420(19) 0.0233 Uiso
C5_3 C 0.7412(7) 0.6519(5) 0.9132(15) 0.0141 Uiso
Mn2_3 Mn 0.6146(14) 0.6394(9) 0.8576(28) 0.0070 Uiso
O8_3 O 0.6720(10) 0.7065(6) 0.6396(22) 0.0233 Uiso
O9_3 O 0.9666(12) 0.5615(7) 0.9246(19) 0.0233 Uiso
O12_3 O 0.6456(12) 0.7255(7) 0.9858(25) 0.0233 Uiso
O13_3 O 0.6078(12) 0.5868(10) 0.6525(25) 0.0233 Uiso
C3_4 C 0.0110(6) 0.5552(5) 0.4219(14) 0.0141 Uiso
C4_4 C 0.0190(5) 0.5174(5) 0.3150(14) 0.0141 Uiso
H1_4 H 0.0266(9) 0.5254(8) 0.1768(27) 0.0100 Uiso
O4_4 O 0.0053(6) 0.3732(6) 0.3063(22) 0.0233 Uiso
C5_4 C 0.0147(5) 0.4226(5) 0.2466(15) 0.0141 Uiso
C6_4 C 0.0044(5) 0.4612(5) 0.3785(15) 0.0141 Uiso
O9_4 O 0.1051(7) 0.7384(10) 0.2580(19) 0.0233 Uiso
O10_4 O 0.0717(10) 0.2999(7) 0.4087(19) 0.0233 Uiso
O11_4 O 0.0588(7) 0.7466(10) 0.6809(25) 0.0233 Uiso
O1_4 O 0.9947(6) 0.6268(6) 0.6937(22) 0.0233 Uiso
C1_4 C 0.9853(5) 0.5774(5) 0.7534(15) 0.0141 Uiso
C2_4 C 0.9956(5) 0.5388(5) 0.6215(15) 0.0141 Uiso
C7_4 C 0.9890(6) 0.4448(5) 0.5781(14) 0.0141 Uiso
C8_4 C 0.9810(5) 0.4826(5) 0.6850(14) 0.0141 Uiso
H2_4 H 0.9734(9) 0.4746(8) 0.8232(27) 0.0100 Uiso
O1_5 O 0.3732(6) 0.3678(8) 0.6937(22) 0.0233 Uiso
C1_5 C 0.4226(5) 0.4078(7) 0.7534(15) 0.0141 Uiso
C2_5 C 0.4612(5) 0.4567(7) 0.6215(15) 0.0141 Uiso
C3_5 C 0.4448(5) 0.4557(8) 0.4219(14) 0.0141 Uiso
C4_5 C 0.4826(5) 0.5015(7) 0.3150(14) 0.0141 Uiso
H1_5 H 0.4746(8) 0.5011(12) 0.1768(27) 0.0100 Uiso
O4_5 O 0.6268(6) 0.6322(8) 0.3063(22) 0.0233 Uiso
C5_5 C 0.5774(5) 0.5922(7) 0.2466(15) 0.0141 Uiso
C6_5 C 0.5388(5) 0.5433(7) 0.3785(15) 0.0141 Uiso
C7_5 C 0.5552(5) 0.5443(8) 0.5781(14) 0.0141 Uiso
C8_5 C 0.5174(5) 0.4985(7) 0.6850(14) 0.0141 Uiso
H2_5 H 0.5254(8) 0.4989(12) 0.8232(27) 0.0100 Uiso
O9_5 O 0.2616(10) 0.3668(12) 0.2580(19) 0.0233 Uiso
O10_5 O 0.7001(7) 0.7718(12) 0.4087(19) 0.0233 Uiso
O11_5 O 0.2534(10) 0.3123(12) 0.6809(25) 0.0233 Uiso
O1_6 O 0.6322(8) 0.0053(6) 0.6937(22) 0.0233 Uiso
C1_6 C 0.5922(7) 0.0147(5) 0.7534(15) 0.0141 Uiso
C2_6 C 0.5433(7) 0.0044(5) 0.6215(15) 0.0141 Uiso
C7_6 C 0.4557(8) 0.0110(6) 0.5781(14) 0.0141 Uiso
C8_6 C 0.5015(7) 0.0190(5) 0.6850(14) 0.0141 Uiso
H2_6 H 0.5011(12) 0.0266(9) 0.8232(27) 0.0100 Uiso
C3_6 C 0.5443(8) 0.9890(6) 0.4219(14) 0.0141 Uiso
C4_6 C 0.4985(7) 0.9810(5) 0.3150(14) 0.0141 Uiso
H1_6 H 0.4989(12) 0.9734(9) 0.1768(27) 0.0100 Uiso
O4_6 O 0.3678(8) 0.9947(6) 0.3063(22) 0.0233 Uiso
C5_6 C 0.4078(7) 0.9853(5) 0.2466(15) 0.0141 Uiso
C6_6 C 0.4567(7) 0.9956(5) 0.3785(15) 0.0141 Uiso
O9_6 O 0.6332(12) 0.8949(7) 0.2580(19) 0.0233 Uiso
O10_6 O 0.2282(12) 0.9283(10) 0.4087(19) 0.0233 Uiso
O11_6 O 0.6877(12) 0.9412(7) 0.6809(25) 0.0233 Uiso
C1_7 C 0.6519(5) 0.9108(5) 0.0868(15) 0.0141 Uiso
C8_7 C 0.6477(5) 0.8159(5) 0.0183(14) 0.0141 Uiso
H2_7 H 0.6401(9) 0.8079(8) 0.1565(27) 0.0100 Uiso
C2_7 C 0.6622(5) 0.8722(5) 0.9549(15) 0.0141 Uiso
C3_7 C 0.6776(6) 0.8886(5) 0.7553(14) 0.0141 Uiso
C4_7 C 0.6856(5) 0.8508(5) 0.6484(14) 0.0141 Uiso
H1_7 H 0.6932(9) 0.8588(8) 0.5102(27) 0.0100 Uiso
C5_7 C 0.6814(5) 0.7559(5) 0.5799(15) 0.0141 Uiso
C6_7 C 0.6711(5) 0.7945(5) 0.7118(15) 0.0141 Uiso
C7_7 C 0.6557(6) 0.7781(5) 0.9114(14) 0.0141 Uiso
C1_8 C 0.0892(5) 0.7412(7) 0.0868(15) 0.0141 Uiso
C8_8 C 0.1841(5) 0.8318(7) 0.0183(14) 0.0141 Uiso
H2_8 H 0.1921(8) 0.8322(12) 0.1565(27) 0.0100 Uiso
C2_8 C 0.1278(5) 0.7901(7) 0.9549(15) 0.0141 Uiso
C3_8 C 0.1114(5) 0.7891(8) 0.7553(14) 0.0141 Uiso
C4_8 C 0.1492(5) 0.8349(7) 0.6484(14) 0.0141 Uiso
H1_8 H 0.1412(8) 0.8345(12) 0.5102(27) 0.0100 Uiso
C5_8 C 0.2441(5) 0.9255(7) 0.5799(15) 0.0141 Uiso
C6_8 C 0.2055(5) 0.8766(7) 0.7118(15) 0.0141 Uiso
C7_8 C 0.2219(5) 0.8776(8) 0.9114(14) 0.0141 Uiso
C1_9 C 0.2588(7) 0.3481(5) 0.0868(15) 0.0141 Uiso
C8_9 C 0.1682(7) 0.3523(5) 0.0183(14) 0.0141 Uiso
H2_9 H 0.1678(12) 0.3599(9) 0.1565(27) 0.0100 Uiso
C2_9 C 0.2099(7) 0.3378(5) 0.9549(15) 0.0141 Uiso
C3_9 C 0.2109(8) 0.3224(6) 0.7553(14) 0.0141 Uiso
C4_9 C 0.1651(7) 0.3144(5) 0.6484(14) 0.0141 Uiso
H1_9 H 0.1655(12) 0.3068(9) 0.5102(27) 0.0100 Uiso
C5_9 C 0.0745(7) 0.3186(5) 0.5799(15) 0.0141 Uiso
C6_9 C 0.1234(7) 0.3289(5) 0.7118(15) 0.0141 Uiso
C7_9 C 0.1224(8) 0.3443(6) 0.9114(14) 0.0141 Uiso
loop_
_geom_bond_atom_site_label_1
_geom_bond_atom_site_label_2
_geom_bond_site_symmetry_1
_geom_bond_site_symmetry_2
Mn1 O1 1_555 1_555
O1 C1 1_555 1_555
O2 C1 1_555 1_555
O3 Mn1 1_555 1_555
C1 C2 1_555 1_555
C2 C3 1_555 1_555
C3 O3 1_555 1_555
O6 C7 1_555 1_555
C7 C6 1_555 1_555
C8 C2 1_555 1_555
H2 C8 1_555 1_555
Mn3 O1 1_555 1_555
Mn5 O2 1_555 1_555
Mn8 O6 1_555 1_555
O7 Mn1 1_555 1_555
O11 Mn1 1_555 1_555
C7 C8 1_555 1_555
Mn3 O11 1_555 1_555
H1 C4 1_555 1_555
O4 C5 1_555 1_555
O5 C5 1_555 1_555
Mn8 O5 1_555 1_555
Mn8 O13 1_555 1_555
O8 Mn2 1_555 1_555
O12 Mn2 1_555 1_555
O8_2 Mn2_2 1_555 1_555
O12_2 Mn2_2 1_555 1_555
Mn1_2 O1_2 1_555 1_555
O1_2 C1_2 1_555 1_555
O2_2 C1_2 1_555 1_555
O3_2 Mn1_2 1_555 1_555
C1_2 C2_2 1_555 1_555
C2_2 C3_2 1_555 1_555
C3_2 O3_2 1_555 1_555
O6_2 C7_2 1_555 1_555
C7_2 C6_2 1_555 1_555
C8_2 C2_2 1_555 1_555
H2_2 C8_2 1_555 1_555
Mn5_2 O2_2 1_555 1_555
Mn8_2 O6_2 1_555 1_555
C7_2 C8_2 1_555 1_555
H1_2 C4_2 1_555 1_555
O4_2 C5_2 1_555 1_555
O5_2 C5_2 1_555 1_555
Mn8_2 O5_2 1_555 1_555
Mn8_2 O13_2 1_555 1_555
Mn3_2 O11_2 1_555 1_555
Mn3_3 O11_3 1_555 1_555
Mn1_3 O1_3 1_555 1_555
O1_3 C1_3 1_555 1_555
O2_3 C1_3 1_555 1_555
O3_3 Mn1_3 1_555 1_555
C1_3 C2_3 1_555 1_555
C2_3 C3_3 1_555 1_555
C3_3 O3_3 1_555 1_555
O6_3 C7_3 1_555 1_555
C7_3 C6_3 1_555 1_555
C8_3 C2_3 1_555 1_555
H2_3 C8_3 1_555 1_555
Mn5_3 O2_3 1_555 1_555
Mn8_3 O6_3 1_555 1_555
O6_3 Mn6_3 1_555 1_555
C7_3 C8_3 1_555 1_555
H1_3 C4_3 1_555 1_555
O4_3 C5_3 1_555 1_555
O5_3 C5_3 1_555 1_555
Mn2_3 O4_3 1_555 1_555
Mn8_3 O5_3 1_555 1_555
O8_3 Mn2_3 1_555 1_555
O12_3 Mn2_3 1_555 1_555
O13_3 Mn2_3 1_555 1_555
Mn8_3 O8_3 1_555 1_555
Mn8_3 O13_3 1_555 1_555
C3_4 O11_3 1_555 1_555
C4_4 C3_4 1_555 1_555
H1_4 C4_4 1_555 1_555
O4_4 C5_4 1_555 1_555
O10_2 C5_4 1_555 1_555
C5_4 C6_4 1_555 1_555
C6_4 C4_4 1_555 1_555
Mn6_2 O4_4 1_555 1_555
O9_4 Mn3_3 1_555 1_555
O10_4 Mn6_2 1_555 1_555
O11_4 Mn3_3 1_555 1_555
O1_4 C1_4 1_555 1_555
O9_3 C1_4 1_555 1_555
C1_4 C2_4 1_555 1_555
O13_2 C7_4 1_555 1_555
C8_4 C2_4 1_555 1_555
H2_4 C8_4 1_555 1_555
Mn5_3 O1_4 1_555 1_555
C7_4 C8_4 1_555 1_555
Mn3 O1_5 1_555 1_555
O1_5 C1_5 1_555 1_555
O9 C1_5 1_555 1_555
C1_5 C2_5 1_555 1_555
C2_5 C3_5 1_555 1_555
C3_5 O11 1_555 1_555
C4_5 C3_5 1_555 1_555
H1_5 C4_5 1_555 1_555
O4_5 C5_5 1_555 1_555
O10_3 C5_5 1_555 1_555
O13_3 C7_5 1_555 1_555
C5_5 C6_5 1_555 1_555
C6_5 C4_5 1_555 1_555
C7_5 C6_5 1_555 1_555
C8_5 C2_5 1_555 1_555
H2_5 C8_5 1_555 1_555
Mn6_3 O4_5 1_555 1_555
Mn5 O1_5 1_555 1_555
Mn8_3 O4_5 1_555 1_555
O9_5 Mn3 1_555 1_555
O10_5 Mn6_3 1_555 1_555
O11_5 Mn3 1_555 1_555
C7_5 C8_5 1_555 1_555
Mn5 O11_5 1_555 1_555
O1_6 C1_6 1_555 1_555
O9_2 C1_6 1_555 1_555
C1_6 C2_6 1_555 1_555
O13 C7_6 1_555 1_555
C8_6 C2_6 1_555 1_555
H2_6 C8_6 1_555 1_555
Mn5_2 O1_6 1_555 1_555
C7_6 C8_6 1_555 1_555
C3_6 O11_2 1_555 1_555
C4_6 C3_6 1_555 1_555
H1_6 C4_6 1_555 1_555
O4_6 C5_6 1_555 1_555
O10 C5_6 1_555 1_555
C5_6 C6_6 1_555 1_555
C6_6 C4_6 1_555 1_555
Mn6 O4_6 1_555 1_555
O9_6 Mn3_2 1_555 1_555
O10_6 Mn6 1_555 1_555
O11_6 Mn3_2 1_555 1_555
O7_2 C1_7 1_555 1_555
O9_6 C1_7 1_555 1_555
H2_7 C8_7 1_555 1_555
C2_7 C3_7 1_555 1_555
C3_7 O11_6 1_555 1_555
C4_7 C3_7 1_555 1_555
H1_7 C4_7 1_555 1_555
O8_3 C5_7 1_555 1_555
O10_5 C5_7 1_555 1_555
O12_3 C7_7 1_555 1_555
C5_7 C6_7 1_555 1_555
C6_7 C4_7 1_555 1_555
C7_7 C6_7 1_555 1_555
O7_3 C1_8 1_555 1_555
O9_4 C1_8 1_555 1_555
H2_8 C8_8 1_555 1_555
C2_8 C3_8 1_555 1_555
C3_8 O11_4 1_555 1_555
C4_8 C3_8 1_555 1_555
H1_8 C4_8 1_555 1_555
O8 C5_8 1_555 1_555
O10_6 C5_8 1_555 1_555
O12 C7_8 1_555 1_555
C5_8 C6_8 1_555 1_555
C6_8 C4_8 1_555 1_555
C7_8 C6_8 1_555 1_555
O7 C1_9 1_555 1_555
O9_5 C1_9 1_555 1_555
H2_9 C8_9 1_555 1_555
C2_9 C3_9 1_555 1_555
C3_9 O11_5 1_555 1_555
C4_9 C3_9 1_555 1_555
H1_9 C4_9 1_555 1_555
O8_2 C5_9 1_555 1_555
O10_4 C5_9 1_555 1_555
O12_2 C7_9 1_555 1_555
C5_9 C6_9 1_555 1_555
C6_9 C4_9 1_555 1_555
C7_9 C6_9 1_555 1_555

#END
