
###############################################################################
#
# This file contains modified crystal structure data generated from the
# MOF subset of the Cambridge Structural Database (CSD) v543 
# hosted by the Cambridge Crystallographic Data Centre (CCDC).
#
# This work is licensed under the Creative Commons
# Attribution-NonCommercial-ShareAlike 4.0 International License.
# To view a copy of this license, visit
# http://creativecommons.org/licenses/by-nc-sa/4.0/
# or send a letter to
# Creative Commons, PO Box 1866, Mountain View, CA 94042, USA.
#
# CIF created using the CSD Python API on 29 September 2022
# The structure has been converted into the P1 space group
# The structure has a 3D framework
# The original CSD entry COKNIB02 is in the rhombohedral crystal system
# The framework has been calculated to contain at least 10.0% void space
# The void calculation uses a probe of radius 1.32A, grid spacing 0.4
#
###############################################################################

data_COKNIB02
_chemical_formula_moiety         '(C72 H18 Cu10 O48)n'
_symmetry_cell_setting           triclinic
_symmetry_space_group_name_H-M   'P 1'
_symmetry_Int_Tables_number      1
_space_group_name_Hall           'P 1'
loop_
_symmetry_equiv_pos_site_id
_symmetry_equiv_pos_as_xyz
1 x,y,z
_cell_length_a                   25.8810(16)
_cell_length_b                   25.8810(16)
_cell_length_c                   6.2626(4)
_cell_angle_alpha                90
_cell_angle_beta                 90
_cell_angle_gamma                120
_cell_volume                     3632.85
loop_
_atom_site_label
_atom_site_type_symbol
_atom_site_fract_x
_atom_site_fract_y
_atom_site_fract_z
O6 O 0.0214(9) 0.3861(10) 0.278(3)
Cu2 Cu 0.0527(6) 0.3685(10) 0.0202(19)
Cu4 Cu 0.0352(10) 0.6491(12) 0.3131(19)
O9 O 0.0528(10) 0.6980(13) 0.055(3)
O11 O 0.0515(13) 0.3042(9) 0.185(6)
C1 C 0.0082(6) 0.5870(9) 0.713(3)
C2 C 0.0228(9) 0.5054(22) 0.791(2)
C3 C 0.0028(12) 0.5423(10) 0.877(6)
H1 H 0.0379(10) 0.510(2) 0.639(3)
O1 O 0.0408(6) 0.6007(10) 0.544(3)
C6 C 0.0163(9) 0.4564(14) 0.914(8)
O4 O 0.0291(9) 0.4139(9) 0.852(6)
Cu6 Cu 0.0175(12) 0.7194(6) 0.6465(19)
O7 O 0.1068(12) 0.3741(6) 0.789(3)
C4 C 0.9837(9) 0.5436(14) 0.086(8)
O3 O 0.9709(9) 0.5861(9) 0.148(6)
C5 C 0.9972(12) 0.4577(10) 0.123(6)
C7 C 0.9918(6) 0.4130(9) 0.287(3)
O5 O 0.9592(6) 0.3993(10) 0.456(3)
C8 C 0.9772(9) 0.4946(22) 0.209(2)
H2 H 0.9621(10) 0.490(2) 0.361(3)
Cu5 Cu 0.9825(12) 0.2806(6) 0.3535(19)
Cu8 Cu 0.9648(10) 0.3509(12) 0.6869(19)
O8 O 0.8932(12) 0.6259(6) 0.211(3)
Cu1 Cu 0.9473(6) 0.6315(10) 0.9798(19)
O2 O 0.9786(9) 0.6139(10) 0.722(3)
O10 O 0.9472(10) 0.3020(13) 0.945(3)
O12 O 0.9485(13) 0.6958(9) 0.815(6)
C4_2 C 0.4564(14) 0.4401(17) 0.086(8)
O3_2 O 0.4139(9) 0.3848(13) 0.148(6)
C5_2 C 0.5423(10) 0.5395(16) 0.123(6)
C7_2 C 0.5870(9) 0.5788(11) 0.287(3)
O5_2 O 0.6007(10) 0.5599(12) 0.456(3)
C8_2 C 0.5054(22) 0.4826(24) 0.209(2)
O6_2 O 0.6139(10) 0.6353(13) 0.278(3)
H2_2 H 0.510(2) 0.4721(22) 0.361(3)
Cu2_2 Cu 0.6315(10) 0.6842(12) 0.0202(19)
Cu4_2 Cu 0.3509(12) 0.3860(16) 0.3131(19)
Cu5_2 Cu 0.7194(6) 0.7018(13) 0.3535(19)
Cu8_2 Cu 0.6491(12) 0.6140(16) 0.6869(19)
O8_2 O 0.3741(6) 0.2674(13) 0.211(3)
O9_2 O 0.3020(13) 0.3547(16) 0.055(3)
O11_2 O 0.6958(9) 0.7472(16) 0.185(6)
Cu1_2 Cu 0.3685(10) 0.3158(12) 0.9798(19)
C1_2 C 0.4130(9) 0.4212(11) 0.713(3)
C2_2 C 0.4946(22) 0.5174(24) 0.791(2)
C3_2 C 0.4577(10) 0.4605(16) 0.877(6)
H1_2 H 0.490(2) 0.5279(22) 0.639(3)
O1_2 O 0.3993(10) 0.4401(12) 0.544(3)
O2_2 O 0.3861(10) 0.3647(13) 0.722(3)
C6_2 C 0.5436(14) 0.5599(17) 0.914(8)
O4_2 O 0.5861(9) 0.6152(13) 0.852(6)
Cu6_2 Cu 0.2806(6) 0.2982(13) 0.6465(19)
O7_2 O 0.6259(6) 0.7326(13) 0.789(3)
O10_2 O 0.6980(13) 0.6453(16) 0.945(3)
O12_2 O 0.3042(9) 0.2528(16) 0.815(6)
C4_3 C 0.5599(17) 0.0163(9) 0.086(8)
O3_3 O 0.6152(13) 0.0291(9) 0.148(6)
C5_3 C 0.4605(16) 0.0028(12) 0.123(6)
C7_3 C 0.4212(11) 0.0082(6) 0.287(3)
O5_3 O 0.4401(12) 0.0408(6) 0.456(3)
C8_3 C 0.5174(24) 0.0228(9) 0.209(2)
H2_3 H 0.5279(22) 0.0379(10) 0.361(3)
Cu5_3 Cu 0.2982(13) 0.0175(12) 0.3535(19)
Cu8_3 Cu 0.3860(16) 0.0352(10) 0.6869(19)
O8_3 O 0.7326(13) 0.1068(12) 0.211(3)
Cu1_3 Cu 0.6842(12) 0.0527(6) 0.9798(19)
O2_3 O 0.6353(13) 0.0214(9) 0.722(3)
O10_3 O 0.3547(16) 0.0528(10) 0.945(3)
O12_3 O 0.7472(16) 0.0515(13) 0.815(6)
O6_3 O 0.3647(13) 0.9786(9) 0.278(3)
Cu2_3 Cu 0.3158(12) 0.9473(6) 0.0202(19)
Cu4_3 Cu 0.6140(16) 0.9648(10) 0.3131(19)
O9_3 O 0.6453(16) 0.9472(10) 0.055(3)
O11_3 O 0.2528(16) 0.9485(13) 0.185(6)
C1_3 C 0.5788(11) 0.9918(6) 0.713(3)
C2_3 C 0.4826(24) 0.9772(9) 0.791(2)
C3_3 C 0.5395(16) 0.9972(12) 0.877(6)
H1_3 H 0.4721(22) 0.9621(10) 0.639(3)
O1_3 O 0.5599(12) 0.9592(6) 0.544(3)
C6_3 C 0.4401(17) 0.9837(9) 0.914(8)
O4_3 O 0.3848(13) 0.9709(9) 0.852(6)
Cu6_3 Cu 0.7018(13) 0.9825(12) 0.6465(19)
O7_3 O 0.2674(13) 0.8932(12) 0.789(3)
O9_4 O 0.7194(10) 0.0314(13) 0.389(3)
C1_4 C 0.6749(6) 0.9203(9) 0.046(3)
C2_4 C 0.6895(9) 0.8387(22) 0.124(2)
C3_4 C 0.6695(12) 0.8756(10) 0.210(6)
C4_4 C 0.6504(9) 0.8769(14) 0.419(8)
O3_4 O 0.6376(9) 0.9194(9) 0.481(6)
C5_4 C 0.6639(12) 0.7910(10) 0.456(6)
C6_4 C 0.6830(9) 0.7897(14) 0.247(8)
C7_4 C 0.6585(6) 0.7463(9) 0.620(3)
C8_4 C 0.6439(9) 0.8279(22) 0.542(2)
O6_4 O 0.6881(9) 0.7194(10) 0.611(3)
H2_4 H 0.6288(10) 0.823(2) 0.694(3)
O7_4 O 0.7734(12) 0.7075(6) 0.123(3)
O11_4 O 0.7181(13) 0.6376(9) 0.519(6)
H1_4 H 0.7046(10) 0.843(2) 0.972(3)
O1_4 O 0.7075(6) 0.9340(10) 0.877(3)
O7_5 O 0.2925(6) 0.0660(13) 0.123(3)
O11_5 O 0.3624(9) 0.0806(16) 0.519(6)
C1_5 C 0.0797(9) 0.7545(11) 0.046(3)
C2_5 C 0.1613(22) 0.8507(24) 0.124(2)
C3_5 C 0.1244(10) 0.7938(16) 0.210(6)
C4_5 C 0.1231(14) 0.7734(17) 0.419(8)
O3_5 O 0.0806(9) 0.7181(13) 0.481(6)
C5_5 C 0.2090(10) 0.8728(16) 0.456(6)
C6_5 C 0.2103(14) 0.8932(17) 0.247(8)
C7_5 C 0.2537(9) 0.9121(11) 0.620(3)
C8_5 C 0.1721(22) 0.8159(24) 0.542(2)
O6_5 O 0.2806(10) 0.9686(13) 0.611(3)
H2_5 H 0.177(2) 0.8054(22) 0.694(3)
H1_5 H 0.157(2) 0.8612(22) 0.972(3)
O1_5 O 0.0660(10) 0.7734(12) 0.877(3)
O9_5 O 0.9686(13) 0.6881(16) 0.389(3)
C1_6 C 0.2455(11) 0.3251(6) 0.046(3)
C2_6 C 0.1493(24) 0.3105(9) 0.124(2)
C3_6 C 0.2062(16) 0.3305(12) 0.210(6)
C4_6 C 0.2266(17) 0.3496(9) 0.419(8)
O3_6 O 0.2819(13) 0.3624(9) 0.481(6)
C5_6 C 0.1272(16) 0.3361(12) 0.456(6)
C6_6 C 0.1068(17) 0.3170(9) 0.247(8)
C7_6 C 0.0879(11) 0.3415(6) 0.620(3)
C8_6 C 0.1841(24) 0.3561(9) 0.542(2)
O6_6 O 0.0314(13) 0.3119(9) 0.611(3)
H2_6 H 0.1946(22) 0.3712(10) 0.694(3)
O9_6 O 0.3119(16) 0.2806(10) 0.389(3)
H1_6 H 0.1388(22) 0.2954(10) 0.972(3)
O1_6 O 0.2266(12) 0.2925(6) 0.877(3)
O7_6 O 0.9340(13) 0.2266(12) 0.123(3)
O11_6 O 0.9194(16) 0.2819(13) 0.519(6)
H2_7 H 0.2954(10) 0.157(2) 0.028(3)
C1_7 C 0.3415(6) 0.2537(9) 0.380(3)
C2_7 C 0.3561(9) 0.1721(22) 0.458(2)
C3_7 C 0.3361(12) 0.2090(10) 0.544(6)
C4_7 C 0.3170(9) 0.2103(14) 0.753(8)
H1_7 H 0.3712(10) 0.177(2) 0.306(3)
C5_7 C 0.3305(12) 0.1244(10) 0.790(6)
C6_7 C 0.3496(9) 0.1231(14) 0.581(8)
C7_7 C 0.3251(6) 0.0797(9) 0.954(3)
C8_7 C 0.3105(9) 0.1613(22) 0.876(2)
H2_8 H 0.843(2) 0.1388(22) 0.028(3)
C1_8 C 0.7463(9) 0.0879(11) 0.380(3)
C2_8 C 0.8279(22) 0.1841(24) 0.458(2)
C3_8 C 0.7910(10) 0.1272(16) 0.544(6)
C4_8 C 0.7897(14) 0.1068(17) 0.753(8)
H1_8 H 0.823(2) 0.1946(22) 0.306(3)
C5_8 C 0.8756(10) 0.2062(16) 0.790(6)
C6_8 C 0.8769(14) 0.2266(17) 0.581(8)
C7_8 C 0.9203(9) 0.2455(11) 0.954(3)
C8_8 C 0.8387(22) 0.1493(24) 0.876(2)
H2_9 H 0.8612(22) 0.7046(10) 0.028(3)
C1_9 C 0.9121(11) 0.6585(6) 0.380(3)
C2_9 C 0.8159(24) 0.6439(9) 0.458(2)
C3_9 C 0.8728(16) 0.6639(12) 0.544(6)
C4_9 C 0.8932(17) 0.6830(9) 0.753(8)
H1_9 H 0.8054(22) 0.6288(10) 0.306(3)
C5_9 C 0.7938(16) 0.6695(12) 0.790(6)
C6_9 C 0.7734(17) 0.6504(9) 0.581(8)
C7_9 C 0.7545(11) 0.6749(6) 0.954(3)
C8_9 C 0.8507(24) 0.6895(9) 0.876(2)
loop_
_geom_bond_atom_site_label_1
_geom_bond_atom_site_label_2
_geom_bond_site_symmetry_1
_geom_bond_site_symmetry_2
O11 Cu2 1_555 1_555
O6 Cu2 1_555 1_555
Cu4 O9 1_555 1_555
C1 C3 1_555 1_555
C2 C3 1_555 1_555
H1 C2 1_555 1_555
O1 C1 1_555 1_555
C6 C2 1_555 1_555
O4 C6 1_555 1_555
Cu4 O1 1_555 1_555
C4 O3 1_555 1_555
C7 C5 1_555 1_555
O5 C7 1_555 1_555
C8 C4 1_555 1_555
H2 C8 1_555 1_555
Cu8 O5 1_555 1_555
C5 C8 1_555 1_555
Cu1 O2 1_555 1_555
O12 Cu1 1_555 1_555
Cu8 O10 1_555 1_555
C4_2 O3_2 1_555 1_555
C7_2 C5_2 1_555 1_555
O5_2 C7_2 1_555 1_555
C8_2 C4_2 1_555 1_555
O6_2 C7_2 1_555 1_555
H2_2 C8_2 1_555 1_555
Cu4_2 O3_2 1_555 1_555
Cu5_2 O6_2 1_555 1_555
Cu8_2 O5_2 1_555 1_555
O11_2 Cu2_2 1_555 1_555
C5_2 C8_2 1_555 1_555
O6_2 Cu2_2 1_555 1_555
Cu4_2 O9_2 1_555 1_555
Cu5_2 O11_2 1_555 1_555
Cu1_2 O2_2 1_555 1_555
C1_2 C3_2 1_555 1_555
C2_2 C3_2 1_555 1_555
H1_2 C2_2 1_555 1_555
O1_2 C1_2 1_555 1_555
O2_2 C1_2 1_555 1_555
C6_2 C2_2 1_555 1_555
O4_2 C6_2 1_555 1_555
Cu4_2 O1_2 1_555 1_555
Cu6_2 O2_2 1_555 1_555
Cu8_2 O4_2 1_555 1_555
O12_2 Cu1_2 1_555 1_555
Cu6_2 O12_2 1_555 1_555
Cu8_2 O10_2 1_555 1_555
C4_3 O3_3 1_555 1_555
C7_3 C5_3 1_555 1_555
O5_3 C7_3 1_555 1_555
C8_3 C4_3 1_555 1_555
H2_3 C8_3 1_555 1_555
Cu8_3 O5_3 1_555 1_555
C5_3 C8_3 1_555 1_555
Cu1_3 O2_3 1_555 1_555
O12_3 Cu1_3 1_555 1_555
Cu8_3 O10_3 1_555 1_555
O11_3 Cu2_3 1_555 1_555
O6_3 Cu2_3 1_555 1_555
Cu4_3 O9_3 1_555 1_555
C1_3 C3_3 1_555 1_555
C2_3 C3_3 1_555 1_555
H1_3 C2_3 1_555 1_555
O1_3 C1_3 1_555 1_555
C6_3 C2_3 1_555 1_555
O4_3 C6_3 1_555 1_555
Cu4_3 O1_3 1_555 1_555
C1_4 C3_4 1_555 1_555
C2_4 C3_4 1_555 1_555
C3_4 C4_4 1_555 1_555
C4_4 O3_4 1_555 1_555
O9_3 C1_4 1_555 1_555
O3_4 Cu4_3 1_555 1_555
C5_4 C6_4 1_555 1_555
C6_4 C2_4 1_555 1_555
O11_2 C6_4 1_555 1_555
C7_4 C5_4 1_555 1_555
O7_2 C7_4 1_555 1_555
C8_4 C4_4 1_555 1_555
O6_4 C7_4 1_555 1_555
H2_4 C8_4 1_555 1_555
Cu6_3 O3_4 1_555 1_555
Cu8_2 O6_4 1_555 1_555
O7_4 Cu5_2 1_555 1_555
O11_4 Cu5_2 1_555 1_555
C5_4 C8_4 1_555 1_555
O6_4 Cu5_2 1_555 1_555
Cu8_2 O11_4 1_555 1_555
Cu6_3 O1_4 1_555 1_555
O7_5 Cu5_3 1_555 1_555
O11_5 Cu5_3 1_555 1_555
Cu8_3 O11_5 1_555 1_555
C1_5 C3_5 1_555 1_555
C2_5 C3_5 1_555 1_555
C3_5 C4_5 1_555 1_555
C4_5 O3_5 1_555 1_555
O9 C1_5 1_555 1_555
O3_5 Cu4 1_555 1_555
C5_5 C6_5 1_555 1_555
C6_5 C2_5 1_555 1_555
O11_3 C6_5 1_555 1_555
C7_5 C5_5 1_555 1_555
O7_3 C7_5 1_555 1_555
C8_5 C4_5 1_555 1_555
O6_5 C7_5 1_555 1_555
H2_5 C8_5 1_555 1_555
Cu6 O3_5 1_555 1_555
C5_5 C8_5 1_555 1_555
Cu6 O1_5 1_555 1_555
C1_6 C3_6 1_555 1_555
C2_6 C3_6 1_555 1_555
C3_6 C4_6 1_555 1_555
C4_6 O3_6 1_555 1_555
O9_2 C1_6 1_555 1_555
O3_6 Cu4_2 1_555 1_555
C5_6 C6_6 1_555 1_555
C6_6 C2_6 1_555 1_555
O11 C6_6 1_555 1_555
C7_6 C5_6 1_555 1_555
O7 C7_6 1_555 1_555
C8_6 C4_6 1_555 1_555
O6_6 C7_6 1_555 1_555
H2_6 C8_6 1_555 1_555
Cu6_2 O3_6 1_555 1_555
O9_6 Cu4_2 1_555 1_555
C5_6 C8_6 1_555 1_555
Cu6_2 O9_6 1_555 1_555
Cu6_2 O1_6 1_555 1_555
O7_6 Cu5 1_555 1_555
O11_6 Cu5 1_555 1_555
Cu8 O11_6 1_555 1_555
C1_7 C3_7 1_555 1_555
C2_7 C3_7 1_555 1_555
C3_7 C4_7 1_555 1_555
C4_7 O12_2 1_555 1_555
H1_7 C2_7 1_555 1_555
O8_2 C1_7 1_555 1_555
O9_6 C1_7 1_555 1_555
C5_7 C6_7 1_555 1_555
C6_7 C2_7 1_555 1_555
O11_5 C6_7 1_555 1_555
C7_7 C5_7 1_555 1_555
C8_7 C4_7 1_555 1_555
O10_3 C7_7 1_555 1_555
C5_7 C8_7 1_555 1_555
C1_8 C3_8 1_555 1_555
C2_8 C3_8 1_555 1_555
C3_8 C4_8 1_555 1_555
C4_8 O12_3 1_555 1_555
H1_8 C2_8 1_555 1_555
O8_3 C1_8 1_555 1_555
O9_4 C1_8 1_555 1_555
C5_8 C6_8 1_555 1_555
C6_8 C2_8 1_555 1_555
O11_6 C6_8 1_555 1_555
C7_8 C5_8 1_555 1_555
C8_8 C4_8 1_555 1_555
O10 C7_8 1_555 1_555
C5_8 C8_8 1_555 1_555
C1_9 C3_9 1_555 1_555
C2_9 C3_9 1_555 1_555
C3_9 C4_9 1_555 1_555
C4_9 O12 1_555 1_555
H1_9 C2_9 1_555 1_555
O8 C1_9 1_555 1_555
O9_5 C1_9 1_555 1_555
C5_9 C6_9 1_555 1_555
C6_9 C2_9 1_555 1_555
O11_4 C6_9 1_555 1_555
C7_9 C5_9 1_555 1_555
C8_9 C4_9 1_555 1_555
O10_2 C7_9 1_555 1_555
C5_9 C8_9 1_555 1_555

#END
