
###############################################################################
#
# This file contains modified crystal structure data generated from the
# MOF subset of the Cambridge Structural Database (CSD) v543 
# hosted by the Cambridge Crystallographic Data Centre (CCDC).
#
# This work is licensed under the Creative Commons
# Attribution-NonCommercial-ShareAlike 4.0 International License.
# To view a copy of this license, visit
# http://creativecommons.org/licenses/by-nc-sa/4.0/
# or send a letter to
# Creative Commons, PO Box 1866, Mountain View, CA 94042, USA.
#
# CIF created using the CSD Python API on 29 September 2022
# The structure has been converted into the P1 space group
# The structure has a 3D framework
# The original CSD entry COKNOH01 is in the rhombohedral crystal system
# The framework has been calculated to contain at least 10.0% void space
# The void calculation uses a probe of radius 1.32A, grid spacing 0.4
#
###############################################################################

data_COKNOH01
_chemical_formula_moiety         '(C72 H18 Fe5 O54)n'
_symmetry_cell_setting           triclinic
_symmetry_space_group_name_H-M   'P 1'
_symmetry_Int_Tables_number      1
_space_group_name_Hall           'P 1'
loop_
_symmetry_equiv_pos_site_id
_symmetry_equiv_pos_as_xyz
1 x,y,z
_cell_length_a                   26.1627(21)
_cell_length_b                   26.1627
_cell_length_c                   6.8422(7)
_cell_angle_alpha                90
_cell_angle_beta                 90
_cell_angle_gamma                120
_cell_volume                     4055.94
loop_
_atom_site_label
_atom_site_type_symbol
_atom_site_fract_x
_atom_site_fract_y
_atom_site_fract_z
_atom_site_U_iso_or_equiv
_atom_site_thermal_displace_type
Fe1 Fe 0.3823(5) 0.3510(6) 0.1396(14) 0.0312 Uiso
O1 O 0.3275(7) 0.2949(7) 0.3639(29) 0.0223 Uiso
O2 O 0.2977(10) 0.2198(9) 0.5981(30) 0.0479 Uiso
O3 O 0.3567(8) 0.2747(7) 0.0041(24) 0.0149 Uiso
C1 C 0.3176(8) 0.2450(8) 0.4271(26) 0.0325 Uiso
C2 C 0.3303(10) 0.2057(8) 0.2938(28) 0.0488 Uiso
C3 C 0.3432(7) 0.2224(7) 0.0895(21) 0.0018 Uiso
O6 O 0.3100(8) 0.0586(7) 0.3292(24) 0.0149 Uiso
C6 C 0.3364(10) 0.1276(8) 0.0395(28) 0.0488 Uiso
C7 C 0.3235(7) 0.1109(7) 0.2438(21) 0.0018 Uiso
C8 C 0.3141(8) 0.1527(8) 0.3675(21) 0.0132 Uiso
H2 H 0.3050(11) 0.1426(12) 0.499(4) 0.0066 Uiso
Fe4 Fe 0.3020(8) 0.2844(5) 0.8063(14) 0.0312 Uiso
Fe6 Fe 0.3157(6) 0.3646(8) 0.4729(14) 0.0312 Uiso
Fe8 Fe 0.3646(8) 0.0490(5) 0.5271(14) 0.0312 Uiso
O8 O 0.3007(10) 0.3392(7) 0.0306(29) 0.0223 Uiso
O12 O 0.3920(7) 0.4153(11) 0.3374(24) 0.0149 Uiso
C4 C 0.3526(8) 0.1806(8) 0.9658(21) 0.0132 Uiso
H1 H 0.3617(11) 0.1907(12) 0.834(4) 0.0066 Uiso
O4 O 0.3392(7) 0.0384(7) 0.9694(29) 0.0223 Uiso
O5 O 0.3690(10) 0.1135(9) 0.7352(30) 0.0479 Uiso
C5 C 0.3491(8) 0.0883(8) 0.9062(26) 0.0325 Uiso
O9 O 0.4469(9) 0.4112(13) 0.9314(30) 0.0479 Uiso
O13 O 0.4153(11) 0.0234(8) 0.6626(24) 0.0149 Uiso
Fe5 Fe 0.2844(5) 0.9823(6) 0.1937(14) 0.0312 Uiso
O10 O 0.4112(13) 0.9644(10) 0.0686(30) 0.0479 Uiso
Fe2 Fe 0.3510(6) 0.9687(8) 0.8604(14) 0.0312 Uiso
O7 O 0.2949(7) 0.9674(10) 0.6361(29) 0.0223 Uiso
O11 O 0.2747(7) 0.9180(11) 0.9959(24) 0.0149 Uiso
Fe5_2 Fe 0.0177(6) 0.3020(8) 0.1937(14) 0.0312 Uiso
O10_2 O 0.0356(10) 0.4469(16) 0.0686(30) 0.0479 Uiso
Fe2_2 Fe 0.0313(8) 0.3823(10) 0.8604(14) 0.0312 Uiso
O7_2 O 0.0326(10) 0.3275(12) 0.6361(29) 0.0223 Uiso
O11_2 O 0.0820(11) 0.3567(13) 0.9959(24) 0.0149 Uiso
Fe1_2 Fe 0.6490(6) 0.0313(8) 0.1396(14) 0.0312 Uiso
O1_2 O 0.7051(7) 0.0326(10) 0.3639(29) 0.0223 Uiso
O2_2 O 0.7802(9) 0.0779(13) 0.5981(30) 0.0479 Uiso
O3_2 O 0.7253(7) 0.0820(11) 0.0041(24) 0.0149 Uiso
C1_2 C 0.7550(8) 0.0726(11) 0.4271(26) 0.0325 Uiso
C2_2 C 0.7943(8) 0.1246(13) 0.2938(28) 0.0488 Uiso
C3_2 C 0.7776(7) 0.1208(10) 0.0895(21) 0.0018 Uiso
O6_2 O 0.9414(7) 0.2513(11) 0.3292(24) 0.0149 Uiso
C6_2 C 0.8724(8) 0.2087(13) 0.0395(28) 0.0488 Uiso
C7_2 C 0.8891(7) 0.2125(10) 0.2438(21) 0.0018 Uiso
C8_2 C 0.8473(8) 0.1613(11) 0.3675(21) 0.0132 Uiso
H2_2 H 0.8574(12) 0.1623(16) 0.499(4) 0.0066 Uiso
Fe4_2 Fe 0.7156(5) 0.0177(9) 0.8063(14) 0.0312 Uiso
Fe8_2 Fe 0.9510(5) 0.3157(9) 0.5271(14) 0.0312 Uiso
C4_2 C 0.8194(8) 0.1720(11) 0.9658(21) 0.0132 Uiso
H1_2 H 0.8093(12) 0.1710(16) 0.834(4) 0.0066 Uiso
O4_2 O 0.9616(7) 0.3007(10) 0.9694(29) 0.0223 Uiso
O5_2 O 0.8865(9) 0.2554(13) 0.7352(30) 0.0479 Uiso
C5_2 C 0.9117(8) 0.2607(11) 0.9062(26) 0.0325 Uiso
O9_2 O 0.5888(13) 0.0356(16) 0.9314(30) 0.0479 Uiso
O13_2 O 0.9766(8) 0.3920(14) 0.6626(24) 0.0149 Uiso
Fe6_2 Fe 0.6354(8) 0.9510(10) 0.4729(14) 0.0312 Uiso
O8_2 O 0.6608(7) 0.9616(12) 0.0306(29) 0.0223 Uiso
O12_2 O 0.5847(11) 0.9766(13) 0.3374(24) 0.0149 Uiso
Fe6_3 Fe 0.0490(10) 0.6843(6) 0.4729(14) 0.0312 Uiso
O8_3 O 0.0384(12) 0.6993(10) 0.0306(29) 0.0223 Uiso
O12_3 O 0.0234(13) 0.6080(7) 0.3374(24) 0.0149 Uiso
Fe1_3 Fe 0.9687(8) 0.6177(5) 0.1396(14) 0.0312 Uiso
O1_3 O 0.9674(10) 0.6725(7) 0.3639(29) 0.0223 Uiso
O2_3 O 0.9221(13) 0.7023(10) 0.5981(30) 0.0479 Uiso
O3_3 O 0.9180(11) 0.6433(8) 0.0041(24) 0.0149 Uiso
C1_3 C 0.9274(11) 0.6824(8) 0.4271(26) 0.0325 Uiso
C2_3 C 0.8754(13) 0.6697(10) 0.2938(28) 0.0488 Uiso
C3_3 C 0.8792(10) 0.6568(7) 0.0895(21) 0.0018 Uiso
O6_3 O 0.7487(11) 0.6900(8) 0.3292(24) 0.0149 Uiso
C6_3 C 0.7913(13) 0.6636(10) 0.0395(28) 0.0488 Uiso
C7_3 C 0.7875(10) 0.6765(7) 0.2438(21) 0.0018 Uiso
C8_3 C 0.8387(11) 0.6859(8) 0.3675(21) 0.0132 Uiso
H2_3 H 0.8377(16) 0.6950(11) 0.499(4) 0.0066 Uiso
Fe4_3 Fe 0.9823(9) 0.6980(8) 0.8063(14) 0.0312 Uiso
Fe5_3 Fe 0.6980(8) 0.7156(5) 0.1937(14) 0.0312 Uiso
Fe8_3 Fe 0.6843(9) 0.6354(8) 0.5271(14) 0.0312 Uiso
O10_3 O 0.5531(16) 0.5888(13) 0.0686(30) 0.0479 Uiso
C4_3 C 0.8280(11) 0.6474(8) 0.9658(21) 0.0132 Uiso
H1_3 H 0.8290(16) 0.6383(11) 0.834(4) 0.0066 Uiso
O4_3 O 0.6993(10) 0.6608(7) 0.9694(29) 0.0223 Uiso
O5_3 O 0.7446(13) 0.6310(10) 0.7352(30) 0.0479 Uiso
C5_3 C 0.7393(11) 0.6509(8) 0.9062(26) 0.0325 Uiso
Fe2_3 Fe 0.6177(10) 0.6490(6) 0.8604(14) 0.0312 Uiso
O7_3 O 0.6725(12) 0.7051(7) 0.6361(29) 0.0223 Uiso
O9_3 O 0.9644(16) 0.5531(9) 0.9314(30) 0.0479 Uiso
O11_3 O 0.6433(13) 0.7253(7) 0.9959(24) 0.0149 Uiso
O13_3 O 0.6080(14) 0.5847(11) 0.6626(24) 0.0149 Uiso
O8_4 O 0.6341(10) 0.0058(7) 0.6972(29) 0.0223 Uiso
O2_4 O 0.6310(10) 0.8865(9) 0.2648(30) 0.0479 Uiso
C1_4 C 0.6509(8) 0.9117(8) 0.0938(26) 0.0325 Uiso
C8_4 C 0.6474(8) 0.8194(8) 0.0342(21) 0.0132 Uiso
H2_4 H 0.6383(11) 0.8093(12) 0.166(4) 0.0066 Uiso
O3_4 O 0.6900(8) 0.9414(7) 0.6708(24) 0.0149 Uiso
C2_4 C 0.6636(10) 0.8724(8) 0.9605(28) 0.0488 Uiso
C3_4 C 0.6765(7) 0.8891(7) 0.7562(21) 0.0018 Uiso
C4_4 C 0.6859(8) 0.8473(8) 0.6325(21) 0.0132 Uiso
H1_4 H 0.6950(11) 0.8574(12) 0.501(4) 0.0066 Uiso
O5_4 O 0.7023(10) 0.7802(9) 0.4019(30) 0.0479 Uiso
C5_4 C 0.6824(8) 0.7550(8) 0.5729(26) 0.0325 Uiso
C6_4 C 0.6697(10) 0.7943(8) 0.7062(28) 0.0488 Uiso
C7_4 C 0.6568(7) 0.7776(7) 0.9105(21) 0.0018 Uiso
O7_4 O 0.6282(7) 0.6341(10) 0.3028(29) 0.0223 Uiso
O2_5 O 0.1135(9) 0.7446(13) 0.2648(30) 0.0479 Uiso
C1_5 C 0.0883(8) 0.7393(11) 0.0938(26) 0.0325 Uiso
C8_5 C 0.1806(8) 0.8280(11) 0.0342(21) 0.0132 Uiso
H2_5 H 0.1907(12) 0.8290(16) 0.166(4) 0.0066 Uiso
O3_5 O 0.0586(7) 0.7487(11) 0.6708(24) 0.0149 Uiso
C2_5 C 0.1276(8) 0.7913(13) 0.9605(28) 0.0488 Uiso
C3_5 C 0.1109(7) 0.7875(10) 0.7562(21) 0.0018 Uiso
C4_5 C 0.1527(8) 0.8387(11) 0.6325(21) 0.0132 Uiso
H1_5 H 0.1426(12) 0.8377(16) 0.501(4) 0.0066 Uiso
O5_5 O 0.2198(9) 0.9221(13) 0.4019(30) 0.0479 Uiso
C5_5 C 0.2450(8) 0.9274(11) 0.5729(26) 0.0325 Uiso
C6_5 C 0.2057(8) 0.8754(13) 0.7062(28) 0.0488 Uiso
C7_5 C 0.2224(7) 0.8792(10) 0.9105(21) 0.0018 Uiso
O7_5 O 0.3659(10) 0.9942(12) 0.3028(29) 0.0223 Uiso
O8_5 O 0.9942(7) 0.6282(12) 0.6972(29) 0.0223 Uiso
O2_6 O 0.2554(13) 0.3690(10) 0.2648(30) 0.0479 Uiso
C1_6 C 0.2607(11) 0.3491(8) 0.0938(26) 0.0325 Uiso
C8_6 C 0.1720(11) 0.3526(8) 0.0342(21) 0.0132 Uiso
H2_6 H 0.1710(16) 0.3617(11) 0.166(4) 0.0066 Uiso
O3_6 O 0.2513(11) 0.3100(8) 0.6708(24) 0.0149 Uiso
C2_6 C 0.2087(13) 0.3364(10) 0.9605(28) 0.0488 Uiso
C3_6 C 0.2125(10) 0.3235(7) 0.7562(21) 0.0018 Uiso
C4_6 C 0.1613(11) 0.3141(8) 0.6325(21) 0.0132 Uiso
H1_6 H 0.1623(16) 0.3050(11) 0.501(4) 0.0066 Uiso
O5_6 O 0.0779(13) 0.2977(10) 0.4019(30) 0.0479 Uiso
C5_6 C 0.0726(11) 0.3176(8) 0.5729(26) 0.0325 Uiso
C6_6 C 0.1246(13) 0.3303(10) 0.7062(28) 0.0488 Uiso
C7_6 C 0.1208(10) 0.3432(7) 0.9105(21) 0.0018 Uiso
O7_6 O 0.0058(12) 0.3718(7) 0.3028(29) 0.0223 Uiso
O8_6 O 0.3718(12) 0.3659(10) 0.6972(29) 0.0223 Uiso
C3_7 C 0.0099(7) 0.5557(7) 0.4228(21) 0.0018 Uiso
C4_7 C 0.0193(8) 0.5139(8) 0.2991(21) 0.0132 Uiso
H1_7 H 0.0284(11) 0.5240(12) 0.167(4) 0.0066 Uiso
C5_7 C 0.0157(8) 0.4217(8) 0.2396(26) 0.0325 Uiso
C6_7 C 0.0030(10) 0.4610(8) 0.3729(28) 0.0488 Uiso
C1_7 C 0.9843(8) 0.5783(8) 0.7604(26) 0.0325 Uiso
C2_7 C 0.9970(10) 0.5390(8) 0.6271(28) 0.0488 Uiso
C7_7 C 0.9901(7) 0.4443(7) 0.5772(21) 0.0018 Uiso
C8_7 C 0.9807(8) 0.4861(8) 0.7009(21) 0.0132 Uiso
H2_7 H 0.9716(11) 0.4760(12) 0.833(4) 0.0066 Uiso
C1_8 C 0.4217(8) 0.4059(11) 0.7604(26) 0.0325 Uiso
C2_8 C 0.4610(8) 0.4579(13) 0.6271(28) 0.0488 Uiso
C3_8 C 0.4443(7) 0.4541(10) 0.4228(21) 0.0018 Uiso
C4_8 C 0.4861(8) 0.5053(11) 0.2991(21) 0.0132 Uiso
H1_8 H 0.4760(12) 0.5043(16) 0.167(4) 0.0066 Uiso
C5_8 C 0.5783(8) 0.5941(11) 0.2396(26) 0.0325 Uiso
C6_8 C 0.5390(8) 0.5421(13) 0.3729(28) 0.0488 Uiso
C7_8 C 0.5557(7) 0.5459(10) 0.5772(21) 0.0018 Uiso
C8_8 C 0.5139(8) 0.4947(11) 0.7009(21) 0.0132 Uiso
H2_8 H 0.5240(12) 0.4957(16) 0.833(4) 0.0066 Uiso
C1_9 C 0.5941(11) 0.0157(8) 0.7604(26) 0.0325 Uiso
C2_9 C 0.5421(13) 0.0030(10) 0.6271(28) 0.0488 Uiso
C7_9 C 0.4541(10) 0.0099(7) 0.5772(21) 0.0018 Uiso
C8_9 C 0.5053(11) 0.0193(8) 0.7009(21) 0.0132 Uiso
H2_9 H 0.5043(16) 0.0284(11) 0.833(4) 0.0066 Uiso
C3_9 C 0.5459(10) 0.9901(7) 0.4228(21) 0.0018 Uiso
C4_9 C 0.4947(11) 0.9807(8) 0.2991(21) 0.0132 Uiso
H1_9 H 0.4957(16) 0.9716(11) 0.167(4) 0.0066 Uiso
C5_9 C 0.4059(11) 0.9843(8) 0.2396(26) 0.0325 Uiso
C6_9 C 0.4579(13) 0.9970(10) 0.3729(28) 0.0488 Uiso
loop_
_geom_bond_atom_site_label_1
_geom_bond_atom_site_label_2
_geom_bond_site_symmetry_1
_geom_bond_site_symmetry_2
Fe1 O1 1_555 1_555
O1 C1 1_555 1_555
O2 C1 1_555 1_555
O3 Fe1 1_555 1_555
C1 C2 1_555 1_555
C2 C3 1_555 1_555
C3 O3 1_555 1_555
O6 C7 1_555 1_555
C7 C6 1_555 1_555
C8 C2 1_555 1_555
H2 C8 1_555 1_555
Fe4 O2 1_555 1_555
Fe6 O1 1_555 1_555
Fe8 O6 1_555 1_555
O8 Fe1 1_555 1_555
O12 Fe1 1_555 1_555
C7 C8 1_555 1_555
Fe6 O12 1_555 1_555
H1 C4 1_555 1_555
O4 C5 1_555 1_555
O5 C5 1_555 1_555
Fe8 O5 1_555 1_555
Fe8 O13 1_555 1_555
O7 Fe2 1_555 1_555
O11 Fe2 1_555 1_555
O7_2 Fe2_2 1_555 1_555
O11_2 Fe2_2 1_555 1_555
Fe1_2 O1_2 1_555 1_555
O1_2 C1_2 1_555 1_555
O2_2 C1_2 1_555 1_555
O3_2 Fe1_2 1_555 1_555
C1_2 C2_2 1_555 1_555
C2_2 C3_2 1_555 1_555
C3_2 O3_2 1_555 1_555
O6_2 C7_2 1_555 1_555
C7_2 C6_2 1_555 1_555
C8_2 C2_2 1_555 1_555
H2_2 C8_2 1_555 1_555
Fe4_2 O2_2 1_555 1_555
Fe8_2 O6_2 1_555 1_555
C7_2 C8_2 1_555 1_555
H1_2 C4_2 1_555 1_555
O4_2 C5_2 1_555 1_555
O5_2 C5_2 1_555 1_555
Fe8_2 O5_2 1_555 1_555
Fe8_2 O13_2 1_555 1_555
Fe6_2 O12_2 1_555 1_555
Fe6_3 O12_3 1_555 1_555
Fe1_3 O1_3 1_555 1_555
O1_3 C1_3 1_555 1_555
O2_3 C1_3 1_555 1_555
O3_3 Fe1_3 1_555 1_555
C1_3 C2_3 1_555 1_555
C2_3 C3_3 1_555 1_555
C3_3 O3_3 1_555 1_555
O6_3 C7_3 1_555 1_555
C7_3 C6_3 1_555 1_555
C8_3 C2_3 1_555 1_555
H2_3 C8_3 1_555 1_555
Fe4_3 O2_3 1_555 1_555
Fe8_3 O6_3 1_555 1_555
O6_3 Fe5_3 1_555 1_555
C7_3 C8_3 1_555 1_555
H1_3 C4_3 1_555 1_555
O4_3 C5_3 1_555 1_555
O5_3 C5_3 1_555 1_555
Fe2_3 O4_3 1_555 1_555
Fe8_3 O5_3 1_555 1_555
O7_3 Fe2_3 1_555 1_555
O11_3 Fe2_3 1_555 1_555
O13_3 Fe2_3 1_555 1_555
Fe8_3 O7_3 1_555 1_555
Fe8_3 O13_3 1_555 1_555
O8_4 Fe4_2 1_555 1_555
O8_2 C1_4 1_555 1_555
O2_4 C1_4 1_555 1_555
H2_4 C8_4 1_555 1_555
Fe6_2 O2_4 1_555 1_555
C2_4 C3_4 1_555 1_555
C3_4 O3_4 1_555 1_555
C4_4 C3_4 1_555 1_555
H1_4 C4_4 1_555 1_555
O7_3 C5_4 1_555 1_555
O5_4 C5_4 1_555 1_555
O11_3 C7_4 1_555 1_555
C5_4 C6_4 1_555 1_555
C6_4 C4_4 1_555 1_555
C7_4 C6_4 1_555 1_555
Fe6_2 O3_4 1_555 1_555
Fe5_3 O5_4 1_555 1_555
O7_4 Fe8_3 1_555 1_555
Fe5_3 O7_4 1_555 1_555
O8_3 C1_5 1_555 1_555
O2_5 C1_5 1_555 1_555
H2_5 C8_5 1_555 1_555
Fe6_3 O2_5 1_555 1_555
C2_5 C3_5 1_555 1_555
C3_5 O3_5 1_555 1_555
C4_5 C3_5 1_555 1_555
H1_5 C4_5 1_555 1_555
O7 C5_5 1_555 1_555
O5_5 C5_5 1_555 1_555
O11 C7_5 1_555 1_555
C5_5 C6_5 1_555 1_555
C6_5 C4_5 1_555 1_555
C7_5 C6_5 1_555 1_555
Fe6_3 O3_5 1_555 1_555
Fe5 O5_5 1_555 1_555
Fe5 O7_5 1_555 1_555
O8_5 Fe4_3 1_555 1_555
O8 C1_6 1_555 1_555
O2_6 C1_6 1_555 1_555
H2_6 C8_6 1_555 1_555
Fe6 O2_6 1_555 1_555
O3_6 Fe4 1_555 1_555
C2_6 C3_6 1_555 1_555
C3_6 O3_6 1_555 1_555
C4_6 C3_6 1_555 1_555
H1_6 C4_6 1_555 1_555
O7_2 C5_6 1_555 1_555
O5_6 C5_6 1_555 1_555
O11_2 C7_6 1_555 1_555
C5_6 C6_6 1_555 1_555
C6_6 C4_6 1_555 1_555
C7_6 C6_6 1_555 1_555
Fe6 O3_6 1_555 1_555
Fe5_2 O5_6 1_555 1_555
O8_6 Fe4 1_555 1_555
Fe6 O8_6 1_555 1_555
Fe5_2 O7_6 1_555 1_555
C3_7 O12_3 1_555 1_555
C4_7 C3_7 1_555 1_555
H1_7 C4_7 1_555 1_555
O7_6 C5_7 1_555 1_555
O10_2 C5_7 1_555 1_555
C5_7 C6_7 1_555 1_555
C6_7 C4_7 1_555 1_555
O8_5 C1_7 1_555 1_555
O9_3 C1_7 1_555 1_555
C1_7 C2_7 1_555 1_555
O13_2 C7_7 1_555 1_555
C8_7 C2_7 1_555 1_555
H2_7 C8_7 1_555 1_555
C7_7 C8_7 1_555 1_555
O8_6 C1_8 1_555 1_555
O9 C1_8 1_555 1_555
C1_8 C2_8 1_555 1_555
C2_8 C3_8 1_555 1_555
C3_8 O12 1_555 1_555
C4_8 C3_8 1_555 1_555
H1_8 C4_8 1_555 1_555
O7_4 C5_8 1_555 1_555
O10_3 C5_8 1_555 1_555
O13_3 C7_8 1_555 1_555
C5_8 C6_8 1_555 1_555
C6_8 C4_8 1_555 1_555
C7_8 C6_8 1_555 1_555
C8_8 C2_8 1_555 1_555
H2_8 C8_8 1_555 1_555
C7_8 C8_8 1_555 1_555
O8_4 C1_9 1_555 1_555
O9_2 C1_9 1_555 1_555
C1_9 C2_9 1_555 1_555
O13 C7_9 1_555 1_555
C8_9 C2_9 1_555 1_555
H2_9 C8_9 1_555 1_555
C7_9 C8_9 1_555 1_555
C3_9 O12_2 1_555 1_555
C4_9 C3_9 1_555 1_555
H1_9 C4_9 1_555 1_555
O7_5 C5_9 1_555 1_555
O10 C5_9 1_555 1_555
C5_9 C6_9 1_555 1_555
C6_9 C4_9 1_555 1_555

#END
