
###############################################################################
#
# This file contains modified crystal structure data generated from the
# MOF subset of the Cambridge Structural Database (CSD) v543 
# hosted by the Cambridge Crystallographic Data Centre (CCDC).
#
# This work is licensed under the Creative Commons
# Attribution-NonCommercial-ShareAlike 4.0 International License.
# To view a copy of this license, visit
# http://creativecommons.org/licenses/by-nc-sa/4.0/
# or send a letter to
# Creative Commons, PO Box 1866, Mountain View, CA 94042, USA.
#
# CIF created using the CSD Python API on 29 September 2022
# The structure has been converted into the P1 space group
# The structure has a 3D framework
# The original CSD entry COKNUN01 is in the rhombohedral crystal system
# The framework has been calculated to contain at least 10.0% void space
# The void calculation uses a probe of radius 1.32A, grid spacing 0.4
#
###############################################################################

data_COKNUN01
_chemical_formula_moiety         '(C72 H18 Mn10 O48)n'
_symmetry_cell_setting           triclinic
_symmetry_space_group_name_H-M   'P 1'
_symmetry_Int_Tables_number      1
_space_group_name_Hall           'P 1'
loop_
_symmetry_equiv_pos_site_id
_symmetry_equiv_pos_as_xyz
1 x,y,z
_cell_length_a                   26.2958(6)
_cell_length_b                   26.2958(6)
_cell_length_c                   7.05164(19)
_cell_angle_alpha                90
_cell_angle_beta                 90
_cell_angle_gamma                120
_cell_volume                     4222.73
loop_
_atom_site_label
_atom_site_type_symbol
_atom_site_fract_x
_atom_site_fract_y
_atom_site_fract_z
Mn4 Mn 0.0278(4) 0.6441(6) 0.3613(14)
O9 O 0.0342(2) 0.7059(3) 0.1395(8)
O11 O 0.0593(3) 0.3109(2) 0.1779(9)
C1 C 0.0134(2) 0.5921(3) 0.7458(7)
C2 C 0.0057(2) 0.5458(3) 0.8791(7)
O1 O 0.0319(3) 0.5925(4) 0.5782(8)
O2 O 0.0051(2) 0.6325(2) 0.8062(8)
C7 C 0.0096(2) 0.4545(2) 0.9249(6)
C8 C 0.0164(2) 0.5018(2) 0.8132(6)
H2 H 0.0273(5) 0.5024(4) 0.6624(15)
O6 O 0.0224(2) 0.4150(2) 0.8446(9)
Mn2 Mn 0.0503(4) 0.3611(4) 0.9720(14)
Mn6 Mn 0.0225(6) 0.7170(4) 0.6947(14)
O7 O 0.1061(5) 0.3652(3) 0.7551(8)
Mn1 Mn 0.9497(4) 0.6389(4) 0.0280(14)
C3 C 0.9904(2) 0.5455(2) 0.0751(6)
C4 C 0.9836(2) 0.4982(2) 0.1868(6)
H1 H 0.9727(5) 0.4976(4) 0.3376(15)
O3 O 0.9776(2) 0.5850(2) 0.1554(9)
C5 C 0.9866(2) 0.4079(3) 0.2542(7)
C6 C 0.9943(2) 0.4542(3) 0.1209(7)
O4 O 0.9681(3) 0.4075(4) 0.4218(8)
O5 O 0.9949(2) 0.3675(2) 0.1938(8)
Mn5 Mn 0.9775(6) 0.2830(4) 0.3053(14)
Mn8 Mn 0.9722(4) 0.3559(6) 0.6387(14)
O8 O 0.8939(5) 0.6348(3) 0.2449(8)
O10 O 0.9658(2) 0.2941(3) 0.8605(8)
O12 O 0.9407(3) 0.6891(2) 0.8221(9)
Mn1_2 Mn 0.3611(4) 0.3108(6) 0.0280(14)
C3_2 C 0.4545(2) 0.4449(3) 0.0751(6)
C4_2 C 0.5018(2) 0.4854(3) 0.1868(6)
H1_2 H 0.5024(4) 0.4751(6) 0.3376(15)
O3_2 O 0.4150(2) 0.3926(3) 0.1554(9)
C5_2 C 0.5921(3) 0.5787(4) 0.2542(7)
C6_2 C 0.5458(3) 0.5401(4) 0.1209(7)
O4_2 O 0.5925(4) 0.5606(5) 0.4218(8)
O5_2 O 0.6325(2) 0.6274(3) 0.1938(8)
Mn4_2 Mn 0.3559(6) 0.3836(7) 0.3613(14)
Mn5_2 Mn 0.7170(4) 0.6944(7) 0.3053(14)
Mn8_2 Mn 0.6441(6) 0.6164(7) 0.6387(14)
O8_2 O 0.3652(3) 0.2592(6) 0.2449(8)
O9_2 O 0.2941(3) 0.3282(4) 0.1395(8)
O11_2 O 0.6891(2) 0.7483(4) 0.1779(9)
C1_2 C 0.4079(3) 0.4213(4) 0.7458(7)
C2_2 C 0.4542(3) 0.4599(4) 0.8791(7)
O1_2 O 0.4075(4) 0.4394(5) 0.5782(8)
O2_2 O 0.3675(2) 0.3726(3) 0.8062(8)
C7_2 C 0.5455(2) 0.5551(3) 0.9249(6)
C8_2 C 0.4982(2) 0.5146(3) 0.8132(6)
H2_2 H 0.4976(4) 0.5249(6) 0.6624(15)
O6_2 O 0.5850(2) 0.6074(3) 0.8446(9)
Mn2_2 Mn 0.6389(4) 0.6892(6) 0.9720(14)
Mn6_2 Mn 0.2830(4) 0.3056(7) 0.6947(14)
O7_2 O 0.6348(3) 0.7408(6) 0.7551(8)
O10_2 O 0.7059(3) 0.6718(4) 0.8605(8)
O12_2 O 0.3109(2) 0.2517(4) 0.8221(9)
Mn1_3 Mn 0.6892(6) 0.0503(4) 0.0280(14)
C3_3 C 0.5551(3) 0.0096(2) 0.0751(6)
C4_3 C 0.5146(3) 0.0164(2) 0.1868(6)
H1_3 H 0.5249(6) 0.0273(5) 0.3376(15)
O3_3 O 0.6074(3) 0.0224(2) 0.1554(9)
C5_3 C 0.4213(4) 0.0134(2) 0.2542(7)
C6_3 C 0.4599(4) 0.0057(2) 0.1209(7)
O4_3 O 0.4394(5) 0.0319(3) 0.4218(8)
O5_3 O 0.3726(3) 0.0051(2) 0.1938(8)
Mn5_3 Mn 0.3056(7) 0.0225(6) 0.3053(14)
Mn8_3 Mn 0.3836(7) 0.0278(4) 0.6387(14)
O8_3 O 0.7408(6) 0.1061(5) 0.2449(8)
O10_3 O 0.3282(4) 0.0342(2) 0.8605(8)
O12_3 O 0.7483(4) 0.0593(3) 0.8221(9)
Mn4_3 Mn 0.6164(7) 0.9722(4) 0.3613(14)
O9_3 O 0.6718(4) 0.9658(2) 0.1395(8)
O11_3 O 0.2517(4) 0.9407(3) 0.1779(9)
C1_3 C 0.5787(4) 0.9866(2) 0.7458(7)
C2_3 C 0.5401(4) 0.9943(2) 0.8791(7)
O1_3 O 0.5606(5) 0.9681(3) 0.5782(8)
O2_3 O 0.6274(3) 0.9949(2) 0.8062(8)
C7_3 C 0.4449(3) 0.9904(2) 0.9249(6)
C8_3 C 0.4854(3) 0.9836(2) 0.8132(6)
H2_3 H 0.4751(6) 0.9727(5) 0.6624(15)
O6_3 O 0.3926(3) 0.9776(2) 0.8446(9)
Mn2_3 Mn 0.3108(6) 0.9497(4) 0.9720(14)
Mn6_3 Mn 0.6944(7) 0.9775(6) 0.6947(14)
O7_3 O 0.2592(6) 0.8939(5) 0.7551(8)
O9_4 O 0.7008(2) 0.0393(3) 0.4729(8)
C1_4 C 0.6801(2) 0.9254(3) 0.0791(7)
C2_4 C 0.6724(2) 0.8791(3) 0.2124(7)
C3_4 C 0.6571(2) 0.8788(2) 0.4084(6)
C4_4 C 0.6503(2) 0.8315(2) 0.5201(6)
H1_4 H 0.6394(5) 0.8309(4) 0.6709(15)
O3_4 O 0.6443(2) 0.9183(2) 0.4887(9)
C5_4 C 0.6533(2) 0.7412(3) 0.5875(7)
C6_4 C 0.6610(2) 0.7875(3) 0.4542(7)
C7_4 C 0.6763(2) 0.7878(2) 0.2582(6)
C8_4 C 0.6831(2) 0.8351(2) 0.1465(6)
O5_4 O 0.6616(2) 0.7008(2) 0.5271(8)
O7_4 O 0.7727(5) 0.6986(3) 0.0885(8)
O11_4 O 0.7259(3) 0.6443(2) 0.5113(9)
O1_4 O 0.6986(3) 0.9258(4) 0.9115(8)
H2_4 H 0.6940(5) 0.8357(4) 0.9957(15)
O7_5 O 0.3014(3) 0.0742(6) 0.0885(8)
O11_5 O 0.3557(2) 0.0817(4) 0.5113(9)
C1_5 C 0.0746(3) 0.7546(4) 0.0791(7)
C2_5 C 0.1209(3) 0.7932(4) 0.2124(7)
C3_5 C 0.1212(2) 0.7782(3) 0.4084(6)
C4_5 C 0.1685(2) 0.8187(3) 0.5201(6)
H1_5 H 0.1691(4) 0.8084(6) 0.6709(15)
O3_5 O 0.0817(2) 0.7259(3) 0.4887(9)
C5_5 C 0.2588(3) 0.9120(4) 0.5875(7)
C6_5 C 0.2125(3) 0.8734(4) 0.4542(7)
C7_5 C 0.2122(2) 0.8884(3) 0.2582(6)
C8_5 C 0.1649(2) 0.8479(3) 0.1465(6)
O5_5 O 0.2992(2) 0.9607(3) 0.5271(8)
O1_5 O 0.0742(4) 0.7727(5) 0.9115(8)
H2_5 H 0.1643(4) 0.8582(6) 0.9957(15)
O9_5 O 0.9607(3) 0.6616(4) 0.4729(8)
C1_6 C 0.2454(4) 0.3199(2) 0.0791(7)
C2_6 C 0.2068(4) 0.3276(2) 0.2124(7)
C3_6 C 0.2218(3) 0.3429(2) 0.4084(6)
C4_6 C 0.1813(3) 0.3497(2) 0.5201(6)
H1_6 H 0.1916(6) 0.3606(5) 0.6709(15)
O3_6 O 0.2741(3) 0.3557(2) 0.4887(9)
C5_6 C 0.0880(4) 0.3467(2) 0.5875(7)
C6_6 C 0.1266(4) 0.3390(2) 0.4542(7)
C7_6 C 0.1116(3) 0.3237(2) 0.2582(6)
C8_6 C 0.1521(3) 0.3169(2) 0.1465(6)
O5_6 O 0.0393(3) 0.3384(2) 0.5271(8)
O9_6 O 0.3384(4) 0.2992(2) 0.4729(8)
O1_6 O 0.2273(5) 0.3014(3) 0.9115(8)
H2_6 H 0.1418(6) 0.3060(5) 0.9957(15)
O7_6 O 0.9258(6) 0.2273(5) 0.0885(8)
O11_6 O 0.9183(4) 0.2741(3) 0.5113(9)
H1_7 H 0.3060(5) 0.1643(4) 0.0043(15)
C1_7 C 0.3467(2) 0.2588(3) 0.4125(7)
C2_7 C 0.3390(2) 0.2125(3) 0.5458(7)
C3_7 C 0.3237(2) 0.2122(2) 0.7418(6)
C4_7 C 0.3169(2) 0.1649(2) 0.8535(6)
C5_7 C 0.3199(2) 0.0746(3) 0.9209(7)
C6_7 C 0.3276(2) 0.1209(3) 0.7876(7)
C7_7 C 0.3429(2) 0.1212(2) 0.5916(6)
C8_7 C 0.3497(2) 0.1685(2) 0.4799(6)
H2_7 H 0.3606(5) 0.1691(4) 0.3291(15)
H1_8 H 0.8357(4) 0.1418(6) 0.0043(15)
C1_8 C 0.7412(3) 0.0880(4) 0.4125(7)
C2_8 C 0.7875(3) 0.1266(4) 0.5458(7)
C3_8 C 0.7878(2) 0.1116(3) 0.7418(6)
C4_8 C 0.8351(2) 0.1521(3) 0.8535(6)
C5_8 C 0.9254(3) 0.2454(4) 0.9209(7)
C6_8 C 0.8791(3) 0.2068(4) 0.7876(7)
C7_8 C 0.8788(2) 0.2218(3) 0.5916(6)
C8_8 C 0.8315(2) 0.1813(3) 0.4799(6)
H2_8 H 0.8309(4) 0.1916(6) 0.3291(15)
H1_9 H 0.8582(6) 0.6940(5) 0.0043(15)
C1_9 C 0.9120(4) 0.6533(2) 0.4125(7)
C2_9 C 0.8734(4) 0.6610(2) 0.5458(7)
C3_9 C 0.8884(3) 0.6763(2) 0.7418(6)
C4_9 C 0.8479(3) 0.6831(2) 0.8535(6)
C5_9 C 0.7546(4) 0.6801(2) 0.9209(7)
C6_9 C 0.7932(4) 0.6724(2) 0.7876(7)
C7_9 C 0.7782(3) 0.6571(2) 0.5916(6)
C8_9 C 0.8187(3) 0.6503(2) 0.4799(6)
H2_9 H 0.8084(6) 0.6394(5) 0.3291(15)
loop_
_geom_bond_atom_site_label_1
_geom_bond_atom_site_label_2
_geom_bond_site_symmetry_1
_geom_bond_site_symmetry_2
Mn4 O9 1_555 1_555
C1 C2 1_555 1_555
O1 C1 1_555 1_555
O2 C1 1_555 1_555
C8 C2 1_555 1_555
H2 C8 1_555 1_555
O6 C7 1_555 1_555
Mn4 O1 1_555 1_555
Mn6 O2 1_555 1_555
O7 Mn2 1_555 1_555
C7 C8 1_555 1_555
O6 Mn2 1_555 1_555
C3 C4 1_555 1_555
C4 H1 1_555 1_555
O3 Mn1 1_555 1_555
C5 C6 1_555 1_555
C6 C4 1_555 1_555
O4 C5 1_555 1_555
O5 C5 1_555 1_555
Mn5 O5 1_555 1_555
Mn8 O4 1_555 1_555
O8 Mn1 1_555 1_555
C3 O3 1_555 1_555
Mn8 O10 1_555 1_555
C3_2 C4_2 1_555 1_555
C4_2 H1_2 1_555 1_555
O3_2 Mn1_2 1_555 1_555
C5_2 C6_2 1_555 1_555
C6_2 C4_2 1_555 1_555
O4_2 C5_2 1_555 1_555
O5_2 C5_2 1_555 1_555
Mn4_2 O3_2 1_555 1_555
Mn5_2 O5_2 1_555 1_555
Mn8_2 O4_2 1_555 1_555
O8_2 Mn1_2 1_555 1_555
O9_2 Mn1_2 1_555 1_555
C3_2 O3_2 1_555 1_555
Mn4_2 O9_2 1_555 1_555
Mn5_2 O11_2 1_555 1_555
C1_2 C2_2 1_555 1_555
O1_2 C1_2 1_555 1_555
O2_2 C1_2 1_555 1_555
C8_2 C2_2 1_555 1_555
H2_2 C8_2 1_555 1_555
O6_2 C7_2 1_555 1_555
Mn4_2 O1_2 1_555 1_555
Mn6_2 O2_2 1_555 1_555
Mn8_2 O6_2 1_555 1_555
O7_2 Mn2_2 1_555 1_555
O10_2 Mn2_2 1_555 1_555
C7_2 C8_2 1_555 1_555
O6_2 Mn2_2 1_555 1_555
Mn6_2 O12_2 1_555 1_555
Mn8_2 O10_2 1_555 1_555
C3_3 C4_3 1_555 1_555
C4_3 H1_3 1_555 1_555
O3_3 Mn1_3 1_555 1_555
C5_3 C6_3 1_555 1_555
C6_3 C4_3 1_555 1_555
O4_3 C5_3 1_555 1_555
O5_3 C5_3 1_555 1_555
Mn5_3 O5_3 1_555 1_555
Mn8_3 O4_3 1_555 1_555
O8_3 Mn1_3 1_555 1_555
C3_3 O3_3 1_555 1_555
Mn8_3 O10_3 1_555 1_555
Mn4_3 O9_3 1_555 1_555
C1_3 C2_3 1_555 1_555
O1_3 C1_3 1_555 1_555
O2_3 C1_3 1_555 1_555
C8_3 C2_3 1_555 1_555
H2_3 C8_3 1_555 1_555
O6_3 C7_3 1_555 1_555
Mn4_3 O1_3 1_555 1_555
Mn6_3 O2_3 1_555 1_555
O7_3 Mn2_3 1_555 1_555
C7_3 C8_3 1_555 1_555
O6_3 Mn2_3 1_555 1_555
C1_4 C2_4 1_555 1_555
C2_4 C3_4 1_555 1_555
C3_4 C4_4 1_555 1_555
C4_4 H1_4 1_555 1_555
O9_3 C1_4 1_555 1_555
O3_4 Mn4_3 1_555 1_555
C5_4 C6_4 1_555 1_555
C6_4 C4_4 1_555 1_555
C7_4 C6_4 1_555 1_555
C8_4 C2_4 1_555 1_555
O7_2 C5_4 1_555 1_555
O5_4 C5_4 1_555 1_555
O11_2 C7_4 1_555 1_555
Mn5_2 O5_4 1_555 1_555
Mn6_3 O3_4 1_555 1_555
Mn8_2 O5_4 1_555 1_555
O7_4 Mn5_2 1_555 1_555
O11_4 Mn5_2 1_555 1_555
C3_4 O3_4 1_555 1_555
C7_4 C8_4 1_555 1_555
Mn8_2 O11_4 1_555 1_555
Mn6_3 O1_4 1_555 1_555
O7_5 Mn5_3 1_555 1_555
O11_5 Mn5_3 1_555 1_555
Mn8_3 O11_5 1_555 1_555
C1_5 C2_5 1_555 1_555
C2_5 C3_5 1_555 1_555
C3_5 C4_5 1_555 1_555
C4_5 H1_5 1_555 1_555
O9 C1_5 1_555 1_555
O3_5 Mn4 1_555 1_555
C5_5 C6_5 1_555 1_555
C6_5 C4_5 1_555 1_555
C7_5 C6_5 1_555 1_555
C8_5 C2_5 1_555 1_555
O7_3 C5_5 1_555 1_555
O5_5 C5_5 1_555 1_555
O11_3 C7_5 1_555 1_555
Mn6 O3_5 1_555 1_555
C3_5 O3_5 1_555 1_555
C7_5 C8_5 1_555 1_555
Mn6 O1_5 1_555 1_555
C1_6 C2_6 1_555 1_555
C2_6 C3_6 1_555 1_555
C3_6 C4_6 1_555 1_555
C4_6 H1_6 1_555 1_555
O9_2 C1_6 1_555 1_555
O3_6 Mn4_2 1_555 1_555
C5_6 C6_6 1_555 1_555
C6_6 C4_6 1_555 1_555
C7_6 C6_6 1_555 1_555
C8_6 C2_6 1_555 1_555
O7 C5_6 1_555 1_555
O5_6 C5_6 1_555 1_555
O11 C7_6 1_555 1_555
Mn6_2 O3_6 1_555 1_555
O9_6 Mn4_2 1_555 1_555
C3_6 O3_6 1_555 1_555
C7_6 C8_6 1_555 1_555
Mn6_2 O9_6 1_555 1_555
Mn6_2 O1_6 1_555 1_555
O7_6 Mn5 1_555 1_555
O11_6 Mn5 1_555 1_555
Mn8 O11_6 1_555 1_555
C1_7 C2_7 1_555 1_555
C2_7 C3_7 1_555 1_555
C3_7 C4_7 1_555 1_555
O8_2 C1_7 1_555 1_555
O9_6 C1_7 1_555 1_555
C5_7 C6_7 1_555 1_555
C6_7 C4_7 1_555 1_555
C7_7 C6_7 1_555 1_555
C8_7 C2_7 1_555 1_555
H2_7 C8_7 1_555 1_555
O10_3 C5_7 1_555 1_555
O11_5 C7_7 1_555 1_555
C3_7 O12_2 1_555 1_555
C7_7 C8_7 1_555 1_555
C1_8 C2_8 1_555 1_555
C2_8 C3_8 1_555 1_555
C3_8 C4_8 1_555 1_555
O8_3 C1_8 1_555 1_555
O9_4 C1_8 1_555 1_555
C5_8 C6_8 1_555 1_555
C6_8 C4_8 1_555 1_555
C7_8 C6_8 1_555 1_555
C8_8 C2_8 1_555 1_555
H2_8 C8_8 1_555 1_555
O10 C5_8 1_555 1_555
O11_6 C7_8 1_555 1_555
C3_8 O12_3 1_555 1_555
C7_8 C8_8 1_555 1_555
C1_9 C2_9 1_555 1_555
C2_9 C3_9 1_555 1_555
C3_9 C4_9 1_555 1_555
O8 C1_9 1_555 1_555
O9_5 C1_9 1_555 1_555
C5_9 C6_9 1_555 1_555
C6_9 C4_9 1_555 1_555
C7_9 C6_9 1_555 1_555
C8_9 C2_9 1_555 1_555
H2_9 C8_9 1_555 1_555
O10_2 C5_9 1_555 1_555
O11_4 C7_9 1_555 1_555
C3_9 O12 1_555 1_555
C7_9 C8_9 1_555 1_555

#END
