
###############################################################################
#
# This file contains modified crystal structure data generated from the
# MOF subset of the Cambridge Structural Database (CSD) v543 
# hosted by the Cambridge Crystallographic Data Centre (CCDC).
#
# This work is licensed under the Creative Commons
# Attribution-NonCommercial-ShareAlike 4.0 International License.
# To view a copy of this license, visit
# http://creativecommons.org/licenses/by-nc-sa/4.0/
# or send a letter to
# Creative Commons, PO Box 1866, Mountain View, CA 94042, USA.
#
# CIF created using the CSD Python API on 29 September 2022
# The structure has been converted into the P1 space group
# The structure has a 3D framework
# The original CSD entry COKNIB01 is in the rhombohedral crystal system
# The framework has been calculated to contain at least 10.0% void space
# The void calculation uses a probe of radius 1.32A, grid spacing 0.4
#
###############################################################################

data_COKNIB01
_chemical_formula_moiety         '(C72 H18 Cu10 O48)n'
_symmetry_cell_setting           triclinic
_symmetry_space_group_name_H-M   'P 1'
_symmetry_Int_Tables_number      1
_space_group_name_Hall           'P 1'
loop_
_symmetry_equiv_pos_site_id
_symmetry_equiv_pos_as_xyz
1 x,y,z
_cell_length_a                   25.8868(3)
_cell_length_b                   25.8868(3)
_cell_length_c                   6.26433(11)
_cell_angle_alpha                90
_cell_angle_beta                 90
_cell_angle_gamma                120
_cell_volume                     3635.48
loop_
_atom_site_label
_atom_site_type_symbol
_atom_site_fract_x
_atom_site_fract_y
_atom_site_fract_z
O6 O 0.0219(3) 0.3853(3) 0.2712(9)
Cu2 Cu 0.05369(18) 0.37115(19) 0.0115(7)
Cu4 Cu 0.03782(19) 0.65079(26) 0.3218(7)
O9 O 0.0520(3) 0.6967(4) 0.0621(9)
O11 O 0.0563(4) 0.3067(3) 0.1745(9)
C1 C 0.0104(2) 0.5906(3) 0.7071(9)
C2 C 0.0059(2) 0.5449(3) 0.8626(9)
O1 O 0.0430(3) 0.5996(4) 0.5439(9)
C5 C 0.0131(3) 0.4551(3) 0.9259(8)
C6 C 0.0204(2) 0.5031(2) 0.7979(9)
H2 H 0.0360(5) 0.5046(5) 0.6234(19)
O4 O 0.0266(3) 0.4162(2) 0.8412(9)
Cu6 Cu 0.01587(26) 0.72036(18) 0.6552(7)
O7 O 0.1101(5) 0.3763(3) 0.7894(9)
C3 C 0.9869(3) 0.5449(3) 0.0741(8)
C4 C 0.9796(2) 0.4969(2) 0.2021(9)
H1 H 0.9640(5) 0.4954(5) 0.3766(19)
O3 O 0.9734(3) 0.5838(2) 0.1588(9)
C7 C 0.9896(2) 0.4094(3) 0.2929(9)
C8 C 0.9941(2) 0.4551(3) 0.1374(9)
O5 O 0.9570(3) 0.4004(4) 0.4561(9)
Cu5 Cu 0.98413(26) 0.27964(18) 0.3448(7)
Cu8 Cu 0.96218(19) 0.34921(26) 0.6782(7)
O8 O 0.8899(5) 0.6237(3) 0.2106(9)
Cu1 Cu 0.94631(18) 0.62885(19) 0.9885(7)
O2 O 0.9781(3) 0.6147(3) 0.7288(9)
O10 O 0.9480(3) 0.3033(4) 0.9379(9)
O12 O 0.9437(4) 0.6933(3) 0.8255(9)
C3_2 C 0.4551(3) 0.4420(4) 0.0741(8)
C4_2 C 0.5031(2) 0.4827(3) 0.2021(9)
H1_2 H 0.5046(5) 0.4686(7) 0.3766(19)
O3_2 O 0.4162(2) 0.3896(4) 0.1588(9)
C7_2 C 0.5906(3) 0.5802(4) 0.2929(9)
C8_2 C 0.5449(3) 0.5390(4) 0.1374(9)
O5_2 O 0.5996(4) 0.5566(5) 0.4561(9)
O6_2 O 0.6147(3) 0.6366(4) 0.2712(9)
Cu2_2 Cu 0.62885(19) 0.68254(26) 0.0115(7)
Cu4_2 Cu 0.34921(26) 0.38702(32) 0.3218(7)
Cu5_2 Cu 0.72036(18) 0.70448(32) 0.3448(7)
Cu8_2 Cu 0.65079(26) 0.61298(32) 0.6782(7)
O8_2 O 0.3763(3) 0.2663(6) 0.2106(9)
O9_2 O 0.3033(4) 0.3552(5) 0.0621(9)
O11_2 O 0.6933(3) 0.7495(5) 0.1745(9)
Cu1_2 Cu 0.37115(19) 0.31746(26) 0.9885(7)
C1_2 C 0.4094(3) 0.4198(4) 0.7071(9)
C2_2 C 0.4551(3) 0.4610(4) 0.8626(9)
O1_2 O 0.4004(4) 0.4434(5) 0.5439(9)
O2_2 O 0.3853(3) 0.3634(4) 0.7288(9)
C5_2 C 0.5449(3) 0.5580(4) 0.9259(8)
C6_2 C 0.4969(2) 0.5173(3) 0.7979(9)
H2_2 H 0.4954(5) 0.5314(7) 0.6234(19)
O4_2 O 0.5838(2) 0.6104(4) 0.8412(9)
Cu6_2 Cu 0.27964(18) 0.29552(32) 0.6552(7)
O7_2 O 0.6237(3) 0.7337(6) 0.7894(9)
O10_2 O 0.6967(4) 0.6448(5) 0.9379(9)
O12_2 O 0.3067(3) 0.2505(5) 0.8255(9)
C3_3 C 0.5580(4) 0.0131(3) 0.0741(8)
C4_3 C 0.5173(3) 0.0204(2) 0.2021(9)
H1_3 H 0.5314(7) 0.0360(5) 0.3766(19)
O3_3 O 0.6104(4) 0.0266(3) 0.1588(9)
C7_3 C 0.4198(4) 0.0104(2) 0.2929(9)
C8_3 C 0.4610(4) 0.0059(2) 0.1374(9)
O5_3 O 0.4434(5) 0.0430(3) 0.4561(9)
Cu5_3 Cu 0.29552(32) 0.01587(26) 0.3448(7)
Cu8_3 Cu 0.38702(32) 0.03782(19) 0.6782(7)
O8_3 O 0.7337(6) 0.1101(5) 0.2106(9)
Cu1_3 Cu 0.68254(26) 0.05369(18) 0.9885(7)
O2_3 O 0.6366(4) 0.0219(3) 0.7288(9)
O10_3 O 0.3552(5) 0.0520(3) 0.9379(9)
O12_3 O 0.7495(5) 0.0563(4) 0.8255(9)
O6_3 O 0.3634(4) 0.9781(3) 0.2712(9)
Cu2_3 Cu 0.31746(26) 0.94631(18) 0.0115(7)
Cu4_3 Cu 0.61298(32) 0.96218(19) 0.3218(7)
O9_3 O 0.6448(5) 0.9480(3) 0.0621(9)
O11_3 O 0.2505(5) 0.9437(4) 0.1745(9)
C1_3 C 0.5802(4) 0.9896(2) 0.7071(9)
C2_3 C 0.5390(4) 0.9941(2) 0.8626(9)
O1_3 O 0.5566(5) 0.9570(3) 0.5439(9)
C5_3 C 0.4420(4) 0.9869(3) 0.9259(8)
C6_3 C 0.4827(3) 0.9796(2) 0.7979(9)
H2_3 H 0.4686(7) 0.9640(5) 0.6234(19)
O4_3 O 0.3896(4) 0.9734(3) 0.8412(9)
Cu6_3 Cu 0.70448(32) 0.98413(26) 0.6552(7)
O7_3 O 0.2663(6) 0.8899(5) 0.7894(9)
O9_4 O 0.7186(3) 0.0301(4) 0.3955(9)
C1_4 C 0.6771(2) 0.9239(3) 0.0404(9)
C2_4 C 0.6726(2) 0.8782(3) 0.1959(9)
C3_4 C 0.6536(3) 0.8782(3) 0.4074(8)
C4_4 C 0.6463(2) 0.8302(2) 0.5354(9)
H1_4 H 0.6307(5) 0.8287(5) 0.7099(19)
O3_4 O 0.6401(3) 0.9171(2) 0.4921(9)
C5_4 C 0.6798(3) 0.7884(3) 0.2592(8)
C6_4 C 0.6871(2) 0.8364(2) 0.1312(9)
C7_4 C 0.6563(2) 0.7427(3) 0.6262(9)
C8_4 C 0.6608(2) 0.7884(3) 0.4707(9)
O6_4 O 0.6886(3) 0.7186(3) 0.6045(9)
O7_4 O 0.7767(5) 0.7097(3) 0.1228(9)
O11_4 O 0.7229(4) 0.6401(3) 0.5079(9)
O1_4 O 0.7097(3) 0.9329(4) 0.8772(9)
H2_4 H 0.7027(5) 0.8379(5) 0.9567(19)
O7_5 O 0.2903(3) 0.0671(6) 0.1228(9)
O11_5 O 0.3599(3) 0.0829(5) 0.5079(9)
C1_5 C 0.0761(3) 0.7531(4) 0.0404(9)
C2_5 C 0.1218(3) 0.7943(4) 0.1959(9)
C3_5 C 0.1218(3) 0.7753(4) 0.4074(8)
C4_5 C 0.1698(2) 0.8160(3) 0.5354(9)
H1_5 H 0.1713(5) 0.8019(7) 0.7099(19)
O3_5 O 0.0829(2) 0.7229(4) 0.4921(9)
C5_5 C 0.2116(3) 0.8913(4) 0.2592(8)
C6_5 C 0.1636(2) 0.8506(3) 0.1312(9)
C7_5 C 0.2573(3) 0.9135(4) 0.6262(9)
C8_5 C 0.2116(3) 0.8723(4) 0.4707(9)
O6_5 O 0.2814(3) 0.9699(4) 0.6045(9)
O1_5 O 0.0671(4) 0.7767(5) 0.8772(9)
H2_5 H 0.1621(5) 0.8647(7) 0.9567(19)
O9_5 O 0.9699(4) 0.6886(5) 0.3955(9)
C1_6 C 0.2469(4) 0.3229(2) 0.0404(9)
C2_6 C 0.2057(4) 0.3274(2) 0.1959(9)
C3_6 C 0.2247(4) 0.3464(3) 0.4074(8)
C4_6 C 0.1840(3) 0.3537(2) 0.5354(9)
H1_6 H 0.1981(7) 0.3693(5) 0.7099(19)
O3_6 O 0.2771(4) 0.3599(3) 0.4921(9)
C5_6 C 0.1087(4) 0.3202(3) 0.2592(8)
C6_6 C 0.1494(3) 0.3129(2) 0.1312(9)
C7_6 C 0.0865(4) 0.3437(2) 0.6262(9)
C8_6 C 0.1277(4) 0.3392(2) 0.4707(9)
O6_6 O 0.0301(4) 0.3114(3) 0.6045(9)
O9_6 O 0.3114(5) 0.2814(3) 0.3955(9)
O1_6 O 0.2233(5) 0.2903(3) 0.8772(9)
H2_6 H 0.1353(7) 0.2973(5) 0.9567(19)
O7_6 O 0.9329(6) 0.2233(5) 0.1228(9)
O11_6 O 0.9171(5) 0.2771(4) 0.5079(9)
H1_7 H 0.2973(5) 0.1621(5) 0.0433(19)
C1_7 C 0.3437(2) 0.2573(3) 0.3738(9)
C2_7 C 0.3392(2) 0.2116(3) 0.5293(9)
C3_7 C 0.3202(3) 0.2116(3) 0.7408(8)
C4_7 C 0.3129(2) 0.1636(2) 0.8688(9)
C5_7 C 0.3464(3) 0.1218(3) 0.5926(8)
C6_7 C 0.3537(2) 0.1698(2) 0.4646(9)
H2_7 H 0.3693(5) 0.1713(5) 0.2901(19)
C7_7 C 0.3229(2) 0.0761(3) 0.9596(9)
C8_7 C 0.3274(2) 0.1218(3) 0.8041(9)
H1_8 H 0.8379(5) 0.1353(7) 0.0433(19)
C1_8 C 0.7427(3) 0.0865(4) 0.3738(9)
C2_8 C 0.7884(3) 0.1277(4) 0.5293(9)
C3_8 C 0.7884(3) 0.1087(4) 0.7408(8)
C4_8 C 0.8364(2) 0.1494(3) 0.8688(9)
C5_8 C 0.8782(3) 0.2247(4) 0.5926(8)
C6_8 C 0.8302(2) 0.1840(3) 0.4646(9)
H2_8 H 0.8287(5) 0.1981(7) 0.2901(19)
C7_8 C 0.9239(3) 0.2469(4) 0.9596(9)
C8_8 C 0.8782(3) 0.2057(4) 0.8041(9)
H1_9 H 0.8647(7) 0.7027(5) 0.0433(19)
C1_9 C 0.9135(4) 0.6563(2) 0.3738(9)
C2_9 C 0.8723(4) 0.6608(2) 0.5293(9)
C3_9 C 0.8913(4) 0.6798(3) 0.7408(8)
C4_9 C 0.8506(3) 0.6871(2) 0.8688(9)
C5_9 C 0.7753(4) 0.6536(3) 0.5926(8)
C6_9 C 0.8160(3) 0.6463(2) 0.4646(9)
H2_9 H 0.8019(7) 0.6307(5) 0.2901(19)
C7_9 C 0.7531(4) 0.6771(2) 0.9596(9)
C8_9 C 0.7943(4) 0.6726(2) 0.8041(9)
loop_
_geom_bond_atom_site_label_1
_geom_bond_atom_site_label_2
_geom_bond_site_symmetry_1
_geom_bond_site_symmetry_2
O11 Cu2 1_555 1_555
O6 Cu2 1_555 1_555
Cu4 O9 1_555 1_555
C1 C2 1_555 1_555
O1 C1 1_555 1_555
C5 C6 1_555 1_555
C6 C2 1_555 1_555
H2 C6 1_555 1_555
O4 C5 1_555 1_555
Cu4 O1 1_555 1_555
C3 C4 1_555 1_555
C4 H1 1_555 1_555
C7 C8 1_555 1_555
C8 C4 1_555 1_555
O5 C7 1_555 1_555
Cu8 O5 1_555 1_555
C3 O3 1_555 1_555
Cu1 O2 1_555 1_555
O12 Cu1 1_555 1_555
Cu8 O10 1_555 1_555
C3_2 C4_2 1_555 1_555
C4_2 H1_2 1_555 1_555
C7_2 C8_2 1_555 1_555
C8_2 C4_2 1_555 1_555
O5_2 C7_2 1_555 1_555
O6_2 C7_2 1_555 1_555
Cu4_2 O3_2 1_555 1_555
Cu5_2 O6_2 1_555 1_555
Cu8_2 O5_2 1_555 1_555
O11_2 Cu2_2 1_555 1_555
C3_2 O3_2 1_555 1_555
O6_2 Cu2_2 1_555 1_555
Cu4_2 O9_2 1_555 1_555
Cu5_2 O11_2 1_555 1_555
Cu1_2 O2_2 1_555 1_555
C1_2 C2_2 1_555 1_555
O1_2 C1_2 1_555 1_555
O2_2 C1_2 1_555 1_555
C5_2 C6_2 1_555 1_555
C6_2 C2_2 1_555 1_555
H2_2 C6_2 1_555 1_555
O4_2 C5_2 1_555 1_555
Cu4_2 O1_2 1_555 1_555
Cu6_2 O2_2 1_555 1_555
Cu8_2 O4_2 1_555 1_555
O12_2 Cu1_2 1_555 1_555
Cu6_2 O12_2 1_555 1_555
Cu8_2 O10_2 1_555 1_555
C3_3 C4_3 1_555 1_555
C4_3 H1_3 1_555 1_555
C7_3 C8_3 1_555 1_555
C8_3 C4_3 1_555 1_555
O5_3 C7_3 1_555 1_555
Cu8_3 O5_3 1_555 1_555
C3_3 O3_3 1_555 1_555
Cu1_3 O2_3 1_555 1_555
O12_3 Cu1_3 1_555 1_555
Cu8_3 O10_3 1_555 1_555
O11_3 Cu2_3 1_555 1_555
O6_3 Cu2_3 1_555 1_555
Cu4_3 O9_3 1_555 1_555
C1_3 C2_3 1_555 1_555
O1_3 C1_3 1_555 1_555
C5_3 C6_3 1_555 1_555
C6_3 C2_3 1_555 1_555
H2_3 C6_3 1_555 1_555
O4_3 C5_3 1_555 1_555
Cu4_3 O1_3 1_555 1_555
C1_4 C2_4 1_555 1_555
C2_4 C3_4 1_555 1_555
C3_4 C4_4 1_555 1_555
C4_4 H1_4 1_555 1_555
O9_3 C1_4 1_555 1_555
O3_4 Cu4_3 1_555 1_555
C5_4 C6_4 1_555 1_555
C6_4 C2_4 1_555 1_555
O11_2 C5_4 1_555 1_555
C7_4 C8_4 1_555 1_555
C8_4 C4_4 1_555 1_555
O7_2 C7_4 1_555 1_555
O6_4 C7_4 1_555 1_555
Cu6_3 O3_4 1_555 1_555
Cu8_2 O6_4 1_555 1_555
O7_4 Cu5_2 1_555 1_555
O11_4 Cu5_2 1_555 1_555
C3_4 O3_4 1_555 1_555
C5_4 C8_4 1_555 1_555
O6_4 Cu5_2 1_555 1_555
Cu8_2 O11_4 1_555 1_555
Cu6_3 O1_4 1_555 1_555
O7_5 Cu5_3 1_555 1_555
O11_5 Cu5_3 1_555 1_555
Cu8_3 O11_5 1_555 1_555
C1_5 C2_5 1_555 1_555
C2_5 C3_5 1_555 1_555
C3_5 C4_5 1_555 1_555
C4_5 H1_5 1_555 1_555
O9 C1_5 1_555 1_555
O3_5 Cu4 1_555 1_555
C5_5 C6_5 1_555 1_555
C6_5 C2_5 1_555 1_555
O11_3 C5_5 1_555 1_555
C7_5 C8_5 1_555 1_555
C8_5 C4_5 1_555 1_555
O7_3 C7_5 1_555 1_555
O6_5 C7_5 1_555 1_555
Cu6 O3_5 1_555 1_555
C3_5 O3_5 1_555 1_555
C5_5 C8_5 1_555 1_555
Cu6 O1_5 1_555 1_555
C1_6 C2_6 1_555 1_555
C2_6 C3_6 1_555 1_555
C3_6 C4_6 1_555 1_555
C4_6 H1_6 1_555 1_555
O9_2 C1_6 1_555 1_555
O3_6 Cu4_2 1_555 1_555
C5_6 C6_6 1_555 1_555
C6_6 C2_6 1_555 1_555
O11 C5_6 1_555 1_555
C7_6 C8_6 1_555 1_555
C8_6 C4_6 1_555 1_555
O7 C7_6 1_555 1_555
O6_6 C7_6 1_555 1_555
Cu6_2 O3_6 1_555 1_555
O9_6 Cu4_2 1_555 1_555
C3_6 O3_6 1_555 1_555
C5_6 C8_6 1_555 1_555
Cu6_2 O9_6 1_555 1_555
Cu6_2 O1_6 1_555 1_555
O7_6 Cu5 1_555 1_555
O11_6 Cu5 1_555 1_555
Cu8 O11_6 1_555 1_555
C1_7 C2_7 1_555 1_555
C2_7 C3_7 1_555 1_555
C3_7 C4_7 1_555 1_555
O8_2 C1_7 1_555 1_555
O9_6 C1_7 1_555 1_555
C5_7 C6_7 1_555 1_555
C6_7 C2_7 1_555 1_555
H2_7 C6_7 1_555 1_555
O11_5 C5_7 1_555 1_555
C7_7 C8_7 1_555 1_555
C8_7 C4_7 1_555 1_555
O10_3 C7_7 1_555 1_555
C3_7 O12_2 1_555 1_555
C5_7 C8_7 1_555 1_555
C1_8 C2_8 1_555 1_555
C2_8 C3_8 1_555 1_555
C3_8 C4_8 1_555 1_555
O8_3 C1_8 1_555 1_555
O9_4 C1_8 1_555 1_555
C5_8 C6_8 1_555 1_555
C6_8 C2_8 1_555 1_555
H2_8 C6_8 1_555 1_555
O11_6 C5_8 1_555 1_555
C7_8 C8_8 1_555 1_555
C8_8 C4_8 1_555 1_555
O10 C7_8 1_555 1_555
C3_8 O12_3 1_555 1_555
C5_8 C8_8 1_555 1_555
C1_9 C2_9 1_555 1_555
C2_9 C3_9 1_555 1_555
C3_9 C4_9 1_555 1_555
O8 C1_9 1_555 1_555
O9_5 C1_9 1_555 1_555
C5_9 C6_9 1_555 1_555
C6_9 C2_9 1_555 1_555
H2_9 C6_9 1_555 1_555
O11_4 C5_9 1_555 1_555
C7_9 C8_9 1_555 1_555
C8_9 C4_9 1_555 1_555
O10_2 C7_9 1_555 1_555
C3_9 O12 1_555 1_555
C5_9 C8_9 1_555 1_555

#END
