
###############################################################################
#
# This file contains modified crystal structure data generated from the
# MOF subset of the Cambridge Structural Database (CSD) v543 
# hosted by the Cambridge Crystallographic Data Centre (CCDC).
#
# This work is licensed under the Creative Commons
# Attribution-NonCommercial-ShareAlike 4.0 International License.
# To view a copy of this license, visit
# http://creativecommons.org/licenses/by-nc-sa/4.0/
# or send a letter to
# Creative Commons, PO Box 1866, Mountain View, CA 94042, USA.
#
# CIF created using the CSD Python API on 29 September 2022
# The structure has been converted into the P1 space group
# The structure has a 3D framework
# The original CSD entry COKNOH is in the rhombohedral crystal system
# The framework has been calculated to contain at least 10.0% void space
# The void calculation uses a probe of radius 1.32A, grid spacing 0.4
# The framework is charged, counterions have been retained in the structure
#
###############################################################################

data_COKNOH
_chemical_formula_moiety         '(C72 H18 Fe8 O54 20-)n'
_symmetry_cell_setting           triclinic
_symmetry_space_group_name_H-M   'P 1'
_symmetry_Int_Tables_number      1
_space_group_name_Hall           'P 1'
loop_
_symmetry_equiv_pos_site_id
_symmetry_equiv_pos_as_xyz
1 x,y,z
_cell_length_a                   26.0983(4)
_cell_length_b                   26.0983
_cell_length_c                   6.85119(14)
_cell_angle_alpha                90
_cell_angle_beta                 90
_cell_angle_gamma                120
_cell_volume                     4041.3
loop_
_atom_site_label
_atom_site_type_symbol
_atom_site_fract_x
_atom_site_fract_y
_atom_site_fract_z
_atom_site_U_iso_or_equiv
_atom_site_thermal_displace_type
Fe1 Fe 0.38239(22) 0.35214(23) 0.1430(6) 0.0123 Uiso
O1 O 0.32715(30) 0.29377(35) 0.3630(11) 0.0027 Uiso
O2 O 0.3010(4) 0.2272(4) 0.5994(14) 0.0236 Uiso
O3 O 0.35508(35) 0.27319(34) 0.0074(12) 0.0086 Uiso
C1 C 0.3161(4) 0.2440(4) 0.4207(11) 0.0223 Uiso
C2 C 0.32591(34) 0.20380(31) 0.2865(10) 0.0017 Uiso
C3 C 0.34304(32) 0.2226(4) 0.0954(10) 0.0115 Uiso
O6 O 0.31159(35) 0.06014(34) 0.3259(12) 0.0086 Uiso
C6 C 0.34076(34) 0.12953(31) 0.0468(10) 0.0017 Uiso
C7 C 0.32363(32) 0.1107(4) 0.2379(10) 0.0115 Uiso
C8 C 0.31798(33) 0.1514(4) 0.3672(10) 0.0033 Uiso
H2 H 0.3054(6) 0.1414(6) 0.5016(22) 0.0134 Uiso
Fe3 Fe 0.31453(23) 0.36358(32) 0.4763(6) 0.0123 Uiso
Fe5 Fe 0.30308(32) 0.28428(22) 0.8097(6) 0.0123 Uiso
Fe8 Fe 0.36358(32) 0.04906(22) 0.5237(6) 0.0123 Uiso
O7 O 0.29995(46) 0.33952(30) 0.0297(11) 0.0027 Uiso
O11 O 0.39348(34) 0.41522(49) 0.3407(12) 0.0086 Uiso
C4 C 0.34869(33) 0.1819(4) 0.9661(10) 0.0033 Uiso
H1 H 0.3613(6) 0.1919(6) 0.8317(22) 0.0134 Uiso
O4 O 0.33952(30) 0.03956(35) 0.9703(11) 0.0027 Uiso
O5 O 0.3657(4) 0.1061(4) 0.7339(14) 0.0236 Uiso
C5 C 0.3506(4) 0.0893(4) 0.9126(11) 0.0223 Uiso
O9 O 0.4395(4) 0.4071(6) 0.9327(14) 0.0236 Uiso
O13 O 0.41522(49) 0.02175(35) 0.6593(12) 0.0086 Uiso
Fe6 Fe 0.28428(22) 0.98119(23) 0.1903(6) 0.0123 Uiso
O10 O 0.4071(6) 0.9677(4) 0.0673(14) 0.0236 Uiso
Fe2 Fe 0.35214(23) 0.96975(32) 0.8570(6) 0.0123 Uiso
O8 O 0.29377(35) 0.96662(46) 0.6370(11) 0.0027 Uiso
O12 O 0.27319(34) 0.91811(49) 0.9926(12) 0.0086 Uiso
Fe6_2 Fe 0.01881(23) 0.30308(32) 0.1903(6) 0.0123 Uiso
O10_2 O 0.0323(4) 0.4395(7) 0.0673(14) 0.0236 Uiso
Fe2_2 Fe 0.03025(32) 0.38239(39) 0.8570(6) 0.0123 Uiso
O8_2 O 0.03338(46) 0.32715(58) 0.6370(11) 0.0027 Uiso
O12_2 O 0.08189(49) 0.35508(60) 0.9926(12) 0.0086 Uiso
Fe1_2 Fe 0.64786(23) 0.03025(32) 0.1430(6) 0.0123 Uiso
O1_2 O 0.70623(35) 0.03338(46) 0.3630(11) 0.0027 Uiso
O2_2 O 0.7728(4) 0.0738(6) 0.5994(14) 0.0236 Uiso
O3_2 O 0.72681(34) 0.08189(49) 0.0074(12) 0.0086 Uiso
C1_2 C 0.7560(4) 0.0721(6) 0.4207(11) 0.0223 Uiso
C2_2 C 0.79620(31) 0.12211(46) 0.2865(10) 0.0017 Uiso
C3_2 C 0.7774(4) 0.12044(51) 0.0954(10) 0.0115 Uiso
O6_2 O 0.93986(34) 0.25144(49) 0.3259(12) 0.0086 Uiso
C6_2 C 0.87047(31) 0.21122(46) 0.0468(10) 0.0017 Uiso
C7_2 C 0.8893(4) 0.21289(51) 0.2379(10) 0.0115 Uiso
C8_2 C 0.8486(4) 0.16654(52) 0.3672(10) 0.0033 Uiso
H2_2 H 0.8586(6) 0.1639(8) 0.5016(22) 0.0134 Uiso
Fe5_2 Fe 0.71572(22) 0.01881(39) 0.8097(6) 0.0123 Uiso
Fe8_2 Fe 0.95094(22) 0.31453(39) 0.5237(6) 0.0123 Uiso
C4_2 C 0.8181(4) 0.16679(52) 0.9661(10) 0.0033 Uiso
H1_2 H 0.8081(6) 0.1694(8) 0.8317(22) 0.0134 Uiso
O4_2 O 0.96044(35) 0.29995(46) 0.9703(11) 0.0027 Uiso
O5_2 O 0.8939(4) 0.2595(6) 0.7339(14) 0.0236 Uiso
C5_2 C 0.9107(4) 0.2612(6) 0.9126(11) 0.0223 Uiso
O9_2 O 0.5929(6) 0.0323(7) 0.9327(14) 0.0236 Uiso
O13_2 O 0.97825(35) 0.39348(60) 0.6593(12) 0.0086 Uiso
Fe3_2 Fe 0.63642(32) 0.95094(39) 0.4763(6) 0.0123 Uiso
O7_2 O 0.66048(30) 0.96044(55) 0.0297(11) 0.0027 Uiso
O11_2 O 0.58478(49) 0.97825(60) 0.3407(12) 0.0086 Uiso
Fe3_3 Fe 0.04906(39) 0.68547(23) 0.4763(6) 0.0123 Uiso
O7_3 O 0.03956(55) 0.70005(46) 0.0297(11) 0.0027 Uiso
O11_3 O 0.02175(60) 0.60652(34) 0.3407(12) 0.0086 Uiso
Fe1_3 Fe 0.96975(32) 0.61761(22) 0.1430(6) 0.0123 Uiso
O1_3 O 0.96662(46) 0.67285(30) 0.3630(11) 0.0027 Uiso
O2_3 O 0.9262(6) 0.6990(4) 0.5994(14) 0.0236 Uiso
O3_3 O 0.91811(49) 0.64492(35) 0.0074(12) 0.0086 Uiso
C1_3 C 0.9279(6) 0.6839(4) 0.4207(11) 0.0223 Uiso
C2_3 C 0.87789(46) 0.67409(34) 0.2865(10) 0.0017 Uiso
C3_3 C 0.87956(51) 0.65696(32) 0.0954(10) 0.0115 Uiso
O6_3 O 0.74856(49) 0.68841(35) 0.3259(12) 0.0086 Uiso
C6_3 C 0.78878(46) 0.65924(34) 0.0468(10) 0.0017 Uiso
C7_3 C 0.78711(51) 0.67637(32) 0.2379(10) 0.0115 Uiso
C8_3 C 0.83346(52) 0.68202(33) 0.3672(10) 0.0033 Uiso
H2_3 H 0.8361(8) 0.6946(6) 0.5016(22) 0.0134 Uiso
Fe5_3 Fe 0.98119(39) 0.69692(32) 0.8097(6) 0.0123 Uiso
Fe6_3 Fe 0.69692(32) 0.71572(22) 0.1903(6) 0.0123 Uiso
Fe8_3 Fe 0.68547(39) 0.63642(32) 0.5237(6) 0.0123 Uiso
O10_3 O 0.5605(7) 0.5929(6) 0.0673(14) 0.0236 Uiso
C4_3 C 0.83321(52) 0.65131(33) 0.9661(10) 0.0033 Uiso
H1_3 H 0.8306(8) 0.6387(6) 0.8317(22) 0.0134 Uiso
O4_3 O 0.70005(46) 0.66048(30) 0.9703(11) 0.0027 Uiso
O5_3 O 0.7405(6) 0.6343(4) 0.7339(14) 0.0236 Uiso
C5_3 C 0.7388(6) 0.6494(4) 0.9126(11) 0.0223 Uiso
Fe2_3 Fe 0.61761(39) 0.64786(23) 0.8570(6) 0.0123 Uiso
O8_3 O 0.67285(58) 0.70623(35) 0.6370(11) 0.0027 Uiso
O9_3 O 0.9677(7) 0.5605(4) 0.9327(14) 0.0236 Uiso
O12_3 O 0.64492(60) 0.72681(34) 0.9926(12) 0.0086 Uiso
O13_3 O 0.60652(60) 0.58478(49) 0.6593(12) 0.0086 Uiso
C3_4 C 0.00971(32) 0.5559(4) 0.4287(10) 0.0115 Uiso
C4_4 C 0.01536(33) 0.5152(4) 0.2994(10) 0.0033 Uiso
H1_4 H 0.0280(6) 0.5252(6) 0.1650(22) 0.0134 Uiso
O4_4 O 0.00618(30) 0.37290(35) 0.3037(11) 0.0027 Uiso
C5_4 C 0.0172(4) 0.4227(4) 0.2460(11) 0.0223 Uiso
C6_4 C 0.00742(34) 0.46287(31) 0.3802(10) 0.0017 Uiso
O9_4 O 0.1061(4) 0.7405(6) 0.2661(14) 0.0236 Uiso
O10_4 O 0.0738(6) 0.3010(4) 0.4006(14) 0.0236 Uiso
O11_4 O 0.06014(34) 0.74856(49) 0.6741(12) 0.0086 Uiso
O1_4 O 0.99382(30) 0.62710(35) 0.6963(11) 0.0027 Uiso
C1_4 C 0.9828(4) 0.5773(4) 0.7540(11) 0.0223 Uiso
C2_4 C 0.99258(34) 0.53713(31) 0.6198(10) 0.0017 Uiso
C7_4 C 0.99029(32) 0.4441(4) 0.5713(10) 0.0115 Uiso
C8_4 C 0.98464(33) 0.4848(4) 0.7006(10) 0.0033 Uiso
H2_4 H 0.9720(6) 0.4748(6) 0.8350(22) 0.0134 Uiso
O1_5 O 0.37290(35) 0.36671(46) 0.6963(11) 0.0027 Uiso
C1_5 C 0.4227(4) 0.4054(6) 0.7540(11) 0.0223 Uiso
C2_5 C 0.46287(31) 0.45544(46) 0.6198(10) 0.0017 Uiso
C3_5 C 0.4441(4) 0.45377(51) 0.4287(10) 0.0115 Uiso
C4_5 C 0.4848(4) 0.50012(52) 0.2994(10) 0.0033 Uiso
H1_5 H 0.4748(6) 0.5027(8) 0.1650(22) 0.0134 Uiso
O4_5 O 0.62710(35) 0.63329(46) 0.3037(11) 0.0027 Uiso
C5_5 C 0.5773(4) 0.5946(6) 0.2460(11) 0.0223 Uiso
C6_5 C 0.53713(31) 0.54456(46) 0.3802(10) 0.0017 Uiso
C7_5 C 0.5559(4) 0.54623(51) 0.5713(10) 0.0115 Uiso
C8_5 C 0.5152(4) 0.49988(52) 0.7006(10) 0.0033 Uiso
H2_5 H 0.5252(6) 0.4973(8) 0.8350(22) 0.0134 Uiso
O9_5 O 0.2595(6) 0.3657(7) 0.2661(14) 0.0236 Uiso
O10_5 O 0.6990(4) 0.7728(7) 0.4006(14) 0.0236 Uiso
O11_5 O 0.25144(49) 0.31159(60) 0.6741(12) 0.0086 Uiso
O1_6 O 0.63329(46) 0.00618(30) 0.6963(11) 0.0027 Uiso
C1_6 C 0.5946(6) 0.0172(4) 0.7540(11) 0.0223 Uiso
C2_6 C 0.54456(46) 0.00742(34) 0.6198(10) 0.0017 Uiso
C7_6 C 0.45377(51) 0.00971(32) 0.5713(10) 0.0115 Uiso
C8_6 C 0.50012(52) 0.01536(33) 0.7006(10) 0.0033 Uiso
H2_6 H 0.5027(8) 0.0280(6) 0.8350(22) 0.0134 Uiso
C3_6 C 0.54623(51) 0.99029(32) 0.4287(10) 0.0115 Uiso
C4_6 C 0.49988(52) 0.98464(33) 0.2994(10) 0.0033 Uiso
H1_6 H 0.4973(8) 0.9720(6) 0.1650(22) 0.0134 Uiso
O4_6 O 0.36671(46) 0.99382(30) 0.3037(11) 0.0027 Uiso
C5_6 C 0.4054(6) 0.9828(4) 0.2460(11) 0.0223 Uiso
C6_6 C 0.45544(46) 0.99258(34) 0.3802(10) 0.0017 Uiso
O9_6 O 0.6343(7) 0.8939(4) 0.2661(14) 0.0236 Uiso
O10_6 O 0.2272(7) 0.9262(6) 0.4006(14) 0.0236 Uiso
O11_6 O 0.68841(60) 0.93986(34) 0.6741(12) 0.0086 Uiso
C1_7 C 0.6494(4) 0.9107(4) 0.0874(11) 0.0223 Uiso
C8_7 C 0.65131(33) 0.8181(4) 0.0339(10) 0.0033 Uiso
H2_7 H 0.6387(6) 0.8081(6) 0.1683(22) 0.0134 Uiso
C2_7 C 0.65924(34) 0.87047(31) 0.9532(10) 0.0017 Uiso
C3_7 C 0.67637(32) 0.8893(4) 0.7621(10) 0.0115 Uiso
C4_7 C 0.68202(33) 0.8486(4) 0.6328(10) 0.0033 Uiso
H1_7 H 0.6946(6) 0.8586(6) 0.4984(22) 0.0134 Uiso
C5_7 C 0.6839(4) 0.7560(4) 0.5793(11) 0.0223 Uiso
C6_7 C 0.67409(34) 0.79620(31) 0.7135(10) 0.0017 Uiso
C7_7 C 0.65696(32) 0.7774(4) 0.9046(10) 0.0115 Uiso
C1_8 C 0.0893(4) 0.7388(6) 0.0874(11) 0.0223 Uiso
C8_8 C 0.1819(4) 0.83321(52) 0.0339(10) 0.0033 Uiso
H2_8 H 0.1919(6) 0.8306(8) 0.1683(22) 0.0134 Uiso
C2_8 C 0.12953(31) 0.78878(46) 0.9532(10) 0.0017 Uiso
C3_8 C 0.1107(4) 0.78711(51) 0.7621(10) 0.0115 Uiso
C4_8 C 0.1514(4) 0.83346(52) 0.6328(10) 0.0033 Uiso
H1_8 H 0.1414(6) 0.8361(8) 0.4984(22) 0.0134 Uiso
C5_8 C 0.2440(4) 0.9279(6) 0.5793(11) 0.0223 Uiso
C6_8 C 0.20380(31) 0.87789(46) 0.7135(10) 0.0017 Uiso
C7_8 C 0.2226(4) 0.87956(51) 0.9046(10) 0.0115 Uiso
C1_9 C 0.2612(6) 0.3506(4) 0.0874(11) 0.0223 Uiso
C8_9 C 0.16679(52) 0.34869(33) 0.0339(10) 0.0033 Uiso
H2_9 H 0.1694(8) 0.3613(6) 0.1683(22) 0.0134 Uiso
C2_9 C 0.21122(46) 0.34076(34) 0.9532(10) 0.0017 Uiso
C3_9 C 0.21289(51) 0.32363(32) 0.7621(10) 0.0115 Uiso
C4_9 C 0.16654(52) 0.31798(33) 0.6328(10) 0.0033 Uiso
H1_9 H 0.1639(8) 0.3054(6) 0.4984(22) 0.0134 Uiso
C5_9 C 0.0721(6) 0.3161(4) 0.5793(11) 0.0223 Uiso
C6_9 C 0.12211(46) 0.32591(34) 0.7135(10) 0.0017 Uiso
C7_9 C 0.12044(51) 0.34304(32) 0.9046(10) 0.0115 Uiso
loop_
_geom_bond_atom_site_label_1
_geom_bond_atom_site_label_2
_geom_bond_site_symmetry_1
_geom_bond_site_symmetry_2
Fe1 O1 1_555 1_555
O1 C1 1_555 1_555
O2 C1 1_555 1_555
O3 Fe1 1_555 1_555
C1 C2 1_555 1_555
C2 C3 1_555 1_555
C3 O3 1_555 1_555
O6 C7 1_555 1_555
C7 C6 1_555 1_555
C8 C2 1_555 1_555
H2 C8 1_555 1_555
Fe3 O1 1_555 1_555
Fe5 O2 1_555 1_555
Fe8 O6 1_555 1_555
O7 Fe1 1_555 1_555
O11 Fe1 1_555 1_555
C7 C8 1_555 1_555
Fe3 O11 1_555 1_555
H1 C4 1_555 1_555
O4 C5 1_555 1_555
O5 C5 1_555 1_555
Fe8 O5 1_555 1_555
Fe8 O13 1_555 1_555
O8 Fe2 1_555 1_555
O12 Fe2 1_555 1_555
O8_2 Fe2_2 1_555 1_555
O12_2 Fe2_2 1_555 1_555
Fe1_2 O1_2 1_555 1_555
O1_2 C1_2 1_555 1_555
O2_2 C1_2 1_555 1_555
O3_2 Fe1_2 1_555 1_555
C1_2 C2_2 1_555 1_555
C2_2 C3_2 1_555 1_555
C3_2 O3_2 1_555 1_555
O6_2 C7_2 1_555 1_555
C7_2 C6_2 1_555 1_555
C8_2 C2_2 1_555 1_555
H2_2 C8_2 1_555 1_555
Fe5_2 O2_2 1_555 1_555
Fe8_2 O6_2 1_555 1_555
C7_2 C8_2 1_555 1_555
H1_2 C4_2 1_555 1_555
O4_2 C5_2 1_555 1_555
O5_2 C5_2 1_555 1_555
Fe8_2 O5_2 1_555 1_555
Fe8_2 O13_2 1_555 1_555
Fe3_2 O11_2 1_555 1_555
Fe3_3 O11_3 1_555 1_555
Fe1_3 O1_3 1_555 1_555
O1_3 C1_3 1_555 1_555
O2_3 C1_3 1_555 1_555
O3_3 Fe1_3 1_555 1_555
C1_3 C2_3 1_555 1_555
C2_3 C3_3 1_555 1_555
C3_3 O3_3 1_555 1_555
O6_3 C7_3 1_555 1_555
C7_3 C6_3 1_555 1_555
C8_3 C2_3 1_555 1_555
H2_3 C8_3 1_555 1_555
Fe5_3 O2_3 1_555 1_555
Fe8_3 O6_3 1_555 1_555
O6_3 Fe6_3 1_555 1_555
C7_3 C8_3 1_555 1_555
H1_3 C4_3 1_555 1_555
O4_3 C5_3 1_555 1_555
O5_3 C5_3 1_555 1_555
Fe2_3 O4_3 1_555 1_555
Fe8_3 O5_3 1_555 1_555
O8_3 Fe2_3 1_555 1_555
O12_3 Fe2_3 1_555 1_555
O13_3 Fe2_3 1_555 1_555
Fe8_3 O8_3 1_555 1_555
Fe8_3 O13_3 1_555 1_555
C3_4 O11_3 1_555 1_555
C4_4 C3_4 1_555 1_555
H1_4 C4_4 1_555 1_555
O4_4 C5_4 1_555 1_555
O10_2 C5_4 1_555 1_555
C5_4 C6_4 1_555 1_555
C6_4 C4_4 1_555 1_555
Fe6_2 O4_4 1_555 1_555
O9_4 Fe3_3 1_555 1_555
O10_4 Fe6_2 1_555 1_555
O11_4 Fe3_3 1_555 1_555
O1_4 C1_4 1_555 1_555
O9_3 C1_4 1_555 1_555
C1_4 C2_4 1_555 1_555
O13_2 C7_4 1_555 1_555
C8_4 C2_4 1_555 1_555
H2_4 C8_4 1_555 1_555
Fe5_3 O1_4 1_555 1_555
C7_4 C8_4 1_555 1_555
Fe3 O1_5 1_555 1_555
O1_5 C1_5 1_555 1_555
O9 C1_5 1_555 1_555
C1_5 C2_5 1_555 1_555
C2_5 C3_5 1_555 1_555
C3_5 O11 1_555 1_555
C4_5 C3_5 1_555 1_555
H1_5 C4_5 1_555 1_555
O4_5 C5_5 1_555 1_555
O10_3 C5_5 1_555 1_555
O13_3 C7_5 1_555 1_555
C5_5 C6_5 1_555 1_555
C6_5 C4_5 1_555 1_555
C7_5 C6_5 1_555 1_555
C8_5 C2_5 1_555 1_555
H2_5 C8_5 1_555 1_555
Fe6_3 O4_5 1_555 1_555
Fe5 O1_5 1_555 1_555
Fe8_3 O4_5 1_555 1_555
O9_5 Fe3 1_555 1_555
O10_5 Fe6_3 1_555 1_555
O11_5 Fe3 1_555 1_555
C7_5 C8_5 1_555 1_555
Fe5 O11_5 1_555 1_555
O1_6 C1_6 1_555 1_555
O9_2 C1_6 1_555 1_555
C1_6 C2_6 1_555 1_555
O13 C7_6 1_555 1_555
C8_6 C2_6 1_555 1_555
H2_6 C8_6 1_555 1_555
Fe5_2 O1_6 1_555 1_555
C7_6 C8_6 1_555 1_555
C3_6 O11_2 1_555 1_555
C4_6 C3_6 1_555 1_555
H1_6 C4_6 1_555 1_555
O4_6 C5_6 1_555 1_555
O10 C5_6 1_555 1_555
C5_6 C6_6 1_555 1_555
C6_6 C4_6 1_555 1_555
Fe6 O4_6 1_555 1_555
O9_6 Fe3_2 1_555 1_555
O10_6 Fe6 1_555 1_555
O11_6 Fe3_2 1_555 1_555
O7_2 C1_7 1_555 1_555
O9_6 C1_7 1_555 1_555
H2_7 C8_7 1_555 1_555
C2_7 C3_7 1_555 1_555
C3_7 O11_6 1_555 1_555
C4_7 C3_7 1_555 1_555
H1_7 C4_7 1_555 1_555
O8_3 C5_7 1_555 1_555
O10_5 C5_7 1_555 1_555
O12_3 C7_7 1_555 1_555
C5_7 C6_7 1_555 1_555
C6_7 C4_7 1_555 1_555
C7_7 C6_7 1_555 1_555
O7_3 C1_8 1_555 1_555
O9_4 C1_8 1_555 1_555
H2_8 C8_8 1_555 1_555
C2_8 C3_8 1_555 1_555
C3_8 O11_4 1_555 1_555
C4_8 C3_8 1_555 1_555
H1_8 C4_8 1_555 1_555
O8 C5_8 1_555 1_555
O10_6 C5_8 1_555 1_555
O12 C7_8 1_555 1_555
C5_8 C6_8 1_555 1_555
C6_8 C4_8 1_555 1_555
C7_8 C6_8 1_555 1_555
O7 C1_9 1_555 1_555
O9_5 C1_9 1_555 1_555
H2_9 C8_9 1_555 1_555
C2_9 C3_9 1_555 1_555
C3_9 O11_5 1_555 1_555
C4_9 C3_9 1_555 1_555
H1_9 C4_9 1_555 1_555
O8_2 C5_9 1_555 1_555
O10_4 C5_9 1_555 1_555
O12_2 C7_9 1_555 1_555
C5_9 C6_9 1_555 1_555
C6_9 C4_9 1_555 1_555
C7_9 C6_9 1_555 1_555

#END
