
###############################################################################
#
# This file contains modified crystal structure data generated from the
# MOF subset of the Cambridge Structural Database (CSD) v543 
# hosted by the Cambridge Crystallographic Data Centre (CCDC).
#
# This work is licensed under the Creative Commons
# Attribution-NonCommercial-ShareAlike 4.0 International License.
# To view a copy of this license, visit
# http://creativecommons.org/licenses/by-nc-sa/4.0/
# or send a letter to
# Creative Commons, PO Box 1866, Mountain View, CA 94042, USA.
#
# CIF created using the CSD Python API on 29 September 2022
# The structure has been converted into the P1 space group
# The structure has a 3D framework
# The original CSD entry COKPUP is in the rhombohedral crystal system
# The framework has been calculated to contain at least 10.0% void space
# The void calculation uses a probe of radius 1.32A, grid spacing 0.4
# The framework is charged, counterions have been retained in the structure
#
###############################################################################

data_COKPUP
_chemical_formula_moiety         '(C90 H18 O90 Zn18)n'
_symmetry_cell_setting           triclinic
_symmetry_space_group_name_H-M   'P 1'
_symmetry_Int_Tables_number      1
_space_group_name_Hall           'P 1'
loop_
_symmetry_equiv_pos_site_id
_symmetry_equiv_pos_as_xyz
1 x,y,z
_cell_length_a                   25.8504(20)
_cell_length_b                   25.8504
_cell_length_c                   6.8072(8)
_cell_angle_alpha                90
_cell_angle_beta                 90
_cell_angle_gamma                120
_cell_volume                     3939.43
loop_
_atom_site_label
_atom_site_type_symbol
_atom_site_fract_x
_atom_site_fract_y
_atom_site_fract_z
Zn1 Zn 0.3819(10) 0.3509(10) 0.1454(24)
O1 O 0.3325(8) 0.2955(9) 0.3719(32)
O2 O 0.3558(10) 0.2742(9) 0.0095(32)
O3 O 0.4670(17) 0.3472(14) 0.282(4)
C1 C 0.3165(10) 0.2452(10) 0.4291(24)
C2 C 0.3456(8) 0.2212(9) 0.0966(27)
C3 C 0.5161(18) 0.3778(16) 0.285(5)
C4 C 0.3269(10) 0.2081(8) 0.2879(24)
O5 O 0.5667(34) 0.4134(32) 0.293(8)
O6 O 0.2963(12) 0.3342(8) 0.0386(32)
O7 O 0.3925(9) 0.4149(13) 0.3428(32)
Zn2 Zn 0.3158(10) 0.3643(14) 0.4787(24)
O8 O 0.3039(15) 0.2280(9) 0.5995(27)
Zn4 Zn 0.3023(14) 0.2848(10) 0.8121(24)
C6 C 0.3164(9) 0.1517(11) 0.3638(28)
C7 C 0.3398(10) 0.1252(8) 0.0454(24)
C8 C 0.3211(8) 0.1121(9) 0.2367(27)
H2 H 0.3034(17) 0.1428(14) 0.488(6)
O9 O 0.3109(10) 0.0591(9) 0.3238(32)
Zn6 Zn 0.3643(14) 0.0486(10) 0.5213(24)
O4 O 0.4387(9) 0.4093(12) 0.9328(27)
C5 C 0.3503(9) 0.1816(11) 0.9695(28)
H1 H 0.3633(17) 0.1905(14) 0.845(6)
C9 C 0.3502(10) 0.0881(10) 0.9042(24)
O10 O 0.3342(8) 0.0378(9) 0.9614(32)
O11 O 0.3627(15) 0.1054(9) 0.7339(27)
O16 O 0.4149(13) 0.0225(10) 0.6572(32)
Zn5 Zn 0.2848(10) 0.9824(10) 0.1879(24)
O15 O 0.4093(12) 0.9706(15) 0.0672(27)
Zn7 Zn 0.3509(10) 0.9690(14) 0.8546(24)
O12 O 0.2742(9) 0.9184(13) 0.9905(32)
O13 O 0.3472(14) 0.8802(22) 0.718(4)
O14 O 0.2955(9) 0.9630(12) 0.6281(32)
C10 C 0.3778(16) 0.8617(24) 0.715(5)
O17 O 0.4134(32) 0.8467(47) 0.707(8)
Zn5_2 Zn 0.0176(10) 0.3023(14) 0.1879(24)
O15_2 O 0.0294(15) 0.4387(19) 0.0672(27)
Zn7_2 Zn 0.0310(14) 0.3819(17) 0.8546(24)
O12_2 O 0.0816(13) 0.3558(16) 0.9905(32)
O13_2 O 0.1198(22) 0.4670(26) 0.718(4)
O14_2 O 0.0370(12) 0.3325(15) 0.6281(32)
C10_2 C 0.1383(24) 0.5161(29) 0.715(5)
O17_2 O 0.1533(47) 0.5667(57) 0.707(8)
Zn1_2 Zn 0.6491(10) 0.0310(14) 0.1454(24)
O1_2 O 0.7045(9) 0.0370(12) 0.3719(32)
O2_2 O 0.7258(9) 0.0816(13) 0.0095(32)
O3_2 O 0.6528(14) 0.1198(22) 0.282(4)
C1_2 C 0.7548(10) 0.0713(14) 0.4291(24)
C2_2 C 0.7788(9) 0.1244(12) 0.0966(27)
C3_2 C 0.6222(16) 0.1383(24) 0.285(5)
C4_2 C 0.7919(8) 0.1188(13) 0.2879(24)
O5_2 O 0.5866(32) 0.1533(47) 0.293(8)
O8_2 O 0.7720(9) 0.0760(17) 0.5995(27)
Zn4_2 Zn 0.7152(10) 0.0176(17) 0.8121(24)
C6_2 C 0.8483(11) 0.1646(14) 0.3638(28)
C7_2 C 0.8748(8) 0.2145(13) 0.0454(24)
C8_2 C 0.8879(9) 0.2089(12) 0.2367(27)
H2_2 H 0.8572(14) 0.1605(22) 0.488(6)
O9_2 O 0.9409(9) 0.2517(13) 0.3238(32)
Zn6_2 Zn 0.9514(10) 0.3158(17) 0.5213(24)
O4_2 O 0.5907(12) 0.0294(15) 0.9328(27)
C5_2 C 0.8184(11) 0.1687(14) 0.9695(28)
H1_2 H 0.8095(14) 0.1728(22) 0.845(6)
C9_2 C 0.9119(10) 0.2620(14) 0.9042(24)
O10_2 O 0.9622(9) 0.2963(12) 0.9614(32)
O11_2 O 0.8946(9) 0.2574(17) 0.7339(27)
O16_2 O 0.9775(10) 0.3925(16) 0.6572(32)
O6_2 O 0.6658(8) 0.9622(14) 0.0386(32)
O7_2 O 0.5851(13) 0.9775(16) 0.3428(32)
Zn2_2 Zn 0.6357(14) 0.9514(17) 0.4787(24)
O6_3 O 0.0378(14) 0.7037(12) 0.0386(32)
O7_3 O 0.0225(16) 0.6075(9) 0.3428(32)
Zn2_3 Zn 0.0486(17) 0.6842(10) 0.4787(24)
Zn1_3 Zn 0.9690(14) 0.6181(10) 0.1454(24)
O1_3 O 0.9630(12) 0.6675(8) 0.3719(32)
O2_3 O 0.9184(13) 0.6442(10) 0.0095(32)
O3_3 O 0.8802(22) 0.5330(17) 0.282(4)
C1_3 C 0.9287(14) 0.6835(10) 0.4291(24)
C2_3 C 0.8756(12) 0.6544(8) 0.0966(27)
C3_3 C 0.8617(24) 0.4839(18) 0.285(5)
C4_3 C 0.8812(13) 0.6731(10) 0.2879(24)
O5_3 O 0.8467(47) 0.4333(34) 0.293(8)
O8_3 O 0.9240(17) 0.6961(15) 0.5995(27)
Zn4_3 Zn 0.9824(17) 0.6977(14) 0.8121(24)
C6_3 C 0.8354(14) 0.6836(9) 0.3638(28)
C7_3 C 0.7855(13) 0.6602(10) 0.0454(24)
C8_3 C 0.7911(12) 0.6789(8) 0.2367(27)
H2_3 H 0.8395(22) 0.6966(17) 0.488(6)
O9_3 O 0.7483(13) 0.6891(10) 0.3238(32)
Zn5_3 Zn 0.6977(14) 0.7152(10) 0.1879(24)
Zn6_3 Zn 0.6842(17) 0.6357(14) 0.5213(24)
O15_3 O 0.5613(19) 0.5907(12) 0.0672(27)
O4_3 O 0.9706(15) 0.5613(9) 0.9328(27)
C5_3 C 0.8313(14) 0.6497(9) 0.9695(28)
H1_3 H 0.8272(22) 0.6367(17) 0.845(6)
C9_3 C 0.7380(14) 0.6498(10) 0.9042(24)
O10_3 O 0.7037(12) 0.6658(8) 0.9614(32)
O11_3 O 0.7426(17) 0.6373(15) 0.7339(27)
Zn7_3 Zn 0.6181(17) 0.6491(10) 0.8546(24)
O12_3 O 0.6442(16) 0.7258(9) 0.9905(32)
O13_3 O 0.5330(26) 0.6528(14) 0.718(4)
O14_3 O 0.6675(15) 0.7045(9) 0.6281(32)
O16_3 O 0.6075(16) 0.5851(13) 0.6572(32)
C10_3 C 0.4839(29) 0.6222(16) 0.715(5)
O17_3 O 0.4333(57) 0.5866(32) 0.707(8)
O3_4 O 0.1337(17) 0.6805(14) 0.615(4)
O4_4 O 0.1054(9) 0.7426(12) 0.2661(27)
C2_4 C 0.0123(8) 0.5545(9) 0.4299(27)
C3_4 C 0.1828(18) 0.7111(16) 0.618(5)
C5_4 C 0.0170(9) 0.5149(11) 0.3028(28)
O5_4 O 0.2334(34) 0.7467(32) 0.626(8)
H1_4 H 0.0300(17) 0.5238(14) 0.178(6)
O7_4 O 0.0591(9) 0.7483(13) 0.6762(32)
C7_4 C 0.0064(10) 0.4586(8) 0.3788(24)
C9_4 C 0.0168(10) 0.4215(10) 0.2376(24)
O10_4 O 0.0008(8) 0.3712(9) 0.2948(32)
O13_4 O 0.0139(14) 0.2135(22) 0.051(4)
O15_4 O 0.0760(12) 0.3039(15) 0.4005(27)
C10_4 C 0.0445(16) 0.1950(24) 0.048(5)
O17_4 O 0.0801(32) 0.1800(47) 0.040(8)
O1_4 O 0.9992(8) 0.6288(9) 0.7052(32)
C1_4 C 0.9832(10) 0.5785(10) 0.7624(24)
C4_4 C 0.9936(10) 0.5414(8) 0.6212(24)
C6_4 C 0.9830(9) 0.4851(11) 0.6972(28)
C8_4 C 0.9877(8) 0.4455(9) 0.5701(27)
H2_4 H 0.9700(17) 0.4762(14) 0.822(6)
O1_5 O 0.3712(9) 0.3703(12) 0.7052(32)
O3_5 O 0.3195(14) 0.4531(22) 0.615(4)
O4_5 O 0.2574(12) 0.3627(15) 0.2661(27)
C1_5 C 0.4215(10) 0.4046(14) 0.7624(24)
C2_5 C 0.4455(9) 0.4577(12) 0.4299(27)
C3_5 C 0.2889(16) 0.4716(24) 0.618(5)
C4_5 C 0.4586(8) 0.4521(13) 0.6212(24)
C5_5 C 0.4851(11) 0.5020(14) 0.3028(28)
O5_5 O 0.2533(32) 0.4866(47) 0.626(8)
H1_5 H 0.4762(14) 0.5061(22) 0.178(6)
O7_5 O 0.2517(13) 0.3109(16) 0.6762(32)
C6_5 C 0.5149(11) 0.4980(14) 0.6972(28)
C7_5 C 0.5414(8) 0.5479(13) 0.3788(24)
C8_5 C 0.5545(9) 0.5423(12) 0.5701(27)
H2_5 H 0.5238(14) 0.4939(22) 0.822(6)
C9_5 C 0.5785(10) 0.5954(14) 0.2376(24)
O10_5 O 0.6288(9) 0.6297(12) 0.2948(32)
O13_5 O 0.7865(22) 0.8003(26) 0.051(4)
O15_5 O 0.6961(15) 0.7720(19) 0.4005(27)
C10_5 C 0.8050(24) 0.8494(29) 0.048(5)
O17_5 O 0.8200(47) 0.9000(57) 0.040(8)
O1_6 O 0.6297(12) 0.0008(8) 0.7052(32)
C1_6 C 0.5954(14) 0.0168(10) 0.7624(24)
C4_6 C 0.5479(13) 0.0064(10) 0.6212(24)
C6_6 C 0.5020(14) 0.0170(9) 0.6972(28)
C8_6 C 0.4577(12) 0.0123(8) 0.5701(27)
H2_6 H 0.5061(22) 0.0300(17) 0.822(6)
O3_6 O 0.5469(22) 0.8663(17) 0.615(4)
O4_6 O 0.6373(15) 0.8946(9) 0.2661(27)
C2_6 C 0.5423(12) 0.9877(8) 0.4299(27)
C3_6 C 0.5284(24) 0.8172(18) 0.618(5)
C5_6 C 0.4980(14) 0.9830(9) 0.3028(28)
O5_6 O 0.5134(47) 0.7666(34) 0.626(8)
H1_6 H 0.4939(22) 0.9700(17) 0.178(6)
O7_6 O 0.6891(16) 0.9409(9) 0.6762(32)
C7_6 C 0.4521(13) 0.9936(10) 0.3788(24)
C9_6 C 0.4046(14) 0.9832(10) 0.2376(24)
O10_6 O 0.3703(12) 0.9992(8) 0.2948(32)
O13_6 O 0.1997(26) 0.9861(14) 0.051(4)
O15_6 O 0.2280(19) 0.9240(12) 0.4005(27)
C10_6 C 0.1506(29) 0.9555(16) 0.048(5)
O17_6 O 0.1000(57) 0.9199(32) 0.040(8)
O3_7 O 0.8003(17) 0.0139(14) 0.949(4)
C3_7 C 0.8494(18) 0.0445(16) 0.952(5)
O5_7 O 0.9000(34) 0.0801(32) 0.960(8)
C1_7 C 0.6498(10) 0.9119(10) 0.0958(24)
C6_7 C 0.6497(9) 0.8184(11) 0.0305(28)
H2_7 H 0.6367(17) 0.8095(14) 0.155(6)
C2_7 C 0.6789(8) 0.8879(9) 0.7633(27)
C4_7 C 0.6602(10) 0.8748(8) 0.9546(24)
C5_7 C 0.6836(9) 0.8483(11) 0.6362(28)
H1_7 H 0.6966(17) 0.8572(14) 0.512(6)
C7_7 C 0.6731(10) 0.7919(8) 0.7121(24)
C8_7 C 0.6544(8) 0.7788(9) 0.9034(27)
C9_7 C 0.6835(10) 0.7548(10) 0.5709(24)
O13_7 O 0.6805(14) 0.5469(22) 0.385(4)
C10_7 C 0.7111(16) 0.5284(24) 0.382(5)
O17_7 O 0.7467(32) 0.5134(47) 0.374(8)
O13_8 O 0.4531(22) 0.1337(26) 0.385(4)
C10_8 C 0.4716(24) 0.1828(29) 0.382(5)
O17_8 O 0.4866(47) 0.2334(57) 0.374(8)
C1_8 C 0.0881(10) 0.7380(14) 0.0958(24)
C6_8 C 0.1816(11) 0.8313(14) 0.0305(28)
H2_8 H 0.1905(14) 0.8272(22) 0.155(6)
C2_8 C 0.1121(9) 0.7911(12) 0.7633(27)
C4_8 C 0.1252(8) 0.7855(13) 0.9546(24)
C5_8 C 0.1517(11) 0.8354(14) 0.6362(28)
H1_8 H 0.1428(14) 0.8395(22) 0.512(6)
C7_8 C 0.2081(8) 0.8812(13) 0.7121(24)
C8_8 C 0.2212(9) 0.8756(12) 0.9034(27)
C9_8 C 0.2452(10) 0.9287(14) 0.5709(24)
O3_8 O 0.9861(14) 0.7865(22) 0.949(4)
C3_8 C 0.9555(16) 0.8050(24) 0.952(5)
O5_8 O 0.9199(32) 0.8200(47) 0.960(8)
C1_9 C 0.2620(14) 0.3502(10) 0.0958(24)
C6_9 C 0.1687(14) 0.3503(9) 0.0305(28)
H2_9 H 0.1728(22) 0.3633(17) 0.155(6)
O3_9 O 0.2135(22) 0.1997(17) 0.949(4)
C2_9 C 0.2089(12) 0.3211(8) 0.7633(27)
C3_9 C 0.1950(24) 0.1506(18) 0.952(5)
C4_9 C 0.2145(13) 0.3398(10) 0.9546(24)
C5_9 C 0.1646(14) 0.3164(9) 0.6362(28)
O5_9 O 0.1800(47) 0.1000(34) 0.960(8)
H1_9 H 0.1605(22) 0.3034(17) 0.512(6)
C7_9 C 0.1188(13) 0.3269(10) 0.7121(24)
C8_9 C 0.1244(12) 0.3456(8) 0.9034(27)
C9_9 C 0.0713(14) 0.3165(10) 0.5709(24)
O13_9 O 0.8663(26) 0.3195(14) 0.385(4)
C10_9 C 0.8172(29) 0.2889(16) 0.382(5)
O17_9 O 0.7666(57) 0.2533(32) 0.374(8)
loop_
_geom_bond_atom_site_label_1
_geom_bond_atom_site_label_2
_geom_bond_site_symmetry_1
_geom_bond_site_symmetry_2
Zn1 O1 1_555 1_555
O1 C1 1_555 1_555
O2 Zn1 1_555 1_555
O3 Zn1 1_555 1_555
C1 C4 1_555 1_555
C2 O2 1_555 1_555
C3 O3 1_555 1_555
C4 C2 1_555 1_555
O5 C3 1_555 1_555
O6 Zn1 1_555 1_555
O7 Zn1 1_555 1_555
Zn2 O1 1_555 1_555
O8 C1 1_555 1_555
Zn4 O8 1_555 1_555
C6 C4 1_555 1_555
C8 C6 1_555 1_555
H2 C6 1_555 1_555
O9 C8 1_555 1_555
Zn6 O9 1_555 1_555
O7 Zn2 1_555 1_555
C7 C8 1_555 1_555
H1 C5 1_555 1_555
O10 C9 1_555 1_555
O11 C9 1_555 1_555
Zn6 O11 1_555 1_555
Zn6 O16 1_555 1_555
O13 Zn7 1_555 1_555
O14 Zn7 1_555 1_555
C10 O13 1_555 1_555
O17 C10 1_555 1_555
Zn7 O12 1_555 1_555
O13_2 Zn7_2 1_555 1_555
O14_2 Zn7_2 1_555 1_555
C10_2 O13_2 1_555 1_555
O17_2 C10_2 1_555 1_555
Zn7_2 O12_2 1_555 1_555
Zn1_2 O1_2 1_555 1_555
O1_2 C1_2 1_555 1_555
O2_2 Zn1_2 1_555 1_555
O3_2 Zn1_2 1_555 1_555
C1_2 C4_2 1_555 1_555
C2_2 O2_2 1_555 1_555
C3_2 O3_2 1_555 1_555
C4_2 C2_2 1_555 1_555
O5_2 C3_2 1_555 1_555
O8_2 C1_2 1_555 1_555
Zn4_2 O8_2 1_555 1_555
C6_2 C4_2 1_555 1_555
C8_2 C6_2 1_555 1_555
H2_2 C6_2 1_555 1_555
O9_2 C8_2 1_555 1_555
Zn6_2 O9_2 1_555 1_555
C7_2 C8_2 1_555 1_555
H1_2 C5_2 1_555 1_555
O10_2 C9_2 1_555 1_555
O11_2 C9_2 1_555 1_555
Zn6_2 O11_2 1_555 1_555
Zn6_2 O16_2 1_555 1_555
O7_2 Zn2_2 1_555 1_555
O7_3 Zn2_3 1_555 1_555
Zn1_3 O1_3 1_555 1_555
O1_3 C1_3 1_555 1_555
O2_3 Zn1_3 1_555 1_555
O3_3 Zn1_3 1_555 1_555
C1_3 C4_3 1_555 1_555
C2_3 O2_3 1_555 1_555
C3_3 O3_3 1_555 1_555
C4_3 C2_3 1_555 1_555
O5_3 C3_3 1_555 1_555
O8_3 C1_3 1_555 1_555
Zn4_3 O8_3 1_555 1_555
C6_3 C4_3 1_555 1_555
C8_3 C6_3 1_555 1_555
H2_3 C6_3 1_555 1_555
O9_3 C8_3 1_555 1_555
Zn5_3 O9_3 1_555 1_555
Zn6_3 O9_3 1_555 1_555
C7_3 C8_3 1_555 1_555
H1_3 C5_3 1_555 1_555
O10_3 C9_3 1_555 1_555
O11_3 C9_3 1_555 1_555
Zn7_3 O10_3 1_555 1_555
Zn6_3 O11_3 1_555 1_555
O13_3 Zn7_3 1_555 1_555
O14_3 Zn7_3 1_555 1_555
O16_3 Zn7_3 1_555 1_555
C10_3 O13_3 1_555 1_555
O17_3 C10_3 1_555 1_555
Zn7_3 O12_3 1_555 1_555
Zn6_3 O14_3 1_555 1_555
Zn6_3 O16_3 1_555 1_555
O3_4 Zn2_3 1_555 1_555
O4_4 Zn2_3 1_555 1_555
C2_4 O7_3 1_555 1_555
C3_4 O3_4 1_555 1_555
C5_4 C2_4 1_555 1_555
O5_4 C3_4 1_555 1_555
H1_4 C5_4 1_555 1_555
O7_4 Zn2_3 1_555 1_555
C7_4 C5_4 1_555 1_555
C9_4 C7_4 1_555 1_555
O10_4 C9_4 1_555 1_555
O15_2 C9_4 1_555 1_555
Zn5_2 O10_4 1_555 1_555
O13_4 Zn5_2 1_555 1_555
O15_4 Zn5_2 1_555 1_555
C10_4 O13_4 1_555 1_555
O17_4 C10_4 1_555 1_555
O1_4 C1_4 1_555 1_555
C1_4 C4_4 1_555 1_555
Zn4_3 O1_4 1_555 1_555
O4_3 C1_4 1_555 1_555
C6_4 C4_4 1_555 1_555
C8_4 C6_4 1_555 1_555
H2_4 C6_4 1_555 1_555
O16_2 C8_4 1_555 1_555
Zn2 O1_5 1_555 1_555
O1_5 C1_5 1_555 1_555
O3_5 Zn2 1_555 1_555
O4_5 Zn2 1_555 1_555
C1_5 C4_5 1_555 1_555
C2_5 O7 1_555 1_555
C3_5 O3_5 1_555 1_555
C4_5 C2_5 1_555 1_555
C5_5 C2_5 1_555 1_555
O5_5 C3_5 1_555 1_555
H1_5 C5_5 1_555 1_555
O7_5 Zn2 1_555 1_555
Zn4 O1_5 1_555 1_555
O4 C1_5 1_555 1_555
C6_5 C4_5 1_555 1_555
C7_5 C5_5 1_555 1_555
C8_5 C6_5 1_555 1_555
H2_5 C6_5 1_555 1_555
C9_5 C7_5 1_555 1_555
O16_3 C8_5 1_555 1_555
O10_5 C9_5 1_555 1_555
O15_3 C9_5 1_555 1_555
Zn5_3 O10_5 1_555 1_555
O13_5 Zn5_3 1_555 1_555
O15_5 Zn5_3 1_555 1_555
C10_5 O13_5 1_555 1_555
O17_5 C10_5 1_555 1_555
O7_5 Zn4 1_555 1_555
C7_5 C8_5 1_555 1_555
O10_5 Zn6_3 1_555 1_555
O1_6 C1_6 1_555 1_555
C1_6 C4_6 1_555 1_555
Zn4_2 O1_6 1_555 1_555
O4_2 C1_6 1_555 1_555
C6_6 C4_6 1_555 1_555
C8_6 C6_6 1_555 1_555
H2_6 C6_6 1_555 1_555
O16 C8_6 1_555 1_555
O3_6 Zn2_2 1_555 1_555
O4_6 Zn2_2 1_555 1_555
C2_6 O7_2 1_555 1_555
C3_6 O3_6 1_555 1_555
C5_6 C2_6 1_555 1_555
O5_6 C3_6 1_555 1_555
H1_6 C5_6 1_555 1_555
O7_6 Zn2_2 1_555 1_555
C7_6 C5_6 1_555 1_555
C9_6 C7_6 1_555 1_555
O10_6 C9_6 1_555 1_555
O15 C9_6 1_555 1_555
Zn5 O10_6 1_555 1_555
O13_6 Zn5 1_555 1_555
O15_6 Zn5 1_555 1_555
C10_6 O13_6 1_555 1_555
O17_6 C10_6 1_555 1_555
O3_7 Zn4_2 1_555 1_555
C3_7 O3_7 1_555 1_555
O5_7 C3_7 1_555 1_555
O6_2 C1_7 1_555 1_555
O4_6 C1_7 1_555 1_555
H2_7 C6_7 1_555 1_555
C2_7 O7_6 1_555 1_555
C4_7 C2_7 1_555 1_555
C5_7 C2_7 1_555 1_555
H1_7 C5_7 1_555 1_555
C7_7 C5_7 1_555 1_555
C9_7 C7_7 1_555 1_555
O12_3 C8_7 1_555 1_555
O14_3 C9_7 1_555 1_555
O15_5 C9_7 1_555 1_555
O13_7 Zn6_3 1_555 1_555
C10_7 O13_7 1_555 1_555
O17_7 C10_7 1_555 1_555
C7_7 C8_7 1_555 1_555
O13_8 Zn6 1_555 1_555
C10_8 O13_8 1_555 1_555
O17_8 C10_8 1_555 1_555
O6_3 C1_8 1_555 1_555
O4_4 C1_8 1_555 1_555
H2_8 C6_8 1_555 1_555
C2_8 O7_4 1_555 1_555
C4_8 C2_8 1_555 1_555
C5_8 C2_8 1_555 1_555
H1_8 C5_8 1_555 1_555
C7_8 C5_8 1_555 1_555
C9_8 C7_8 1_555 1_555
O12 C8_8 1_555 1_555
O14 C9_8 1_555 1_555
O15_6 C9_8 1_555 1_555
C7_8 C8_8 1_555 1_555
O3_8 Zn4_3 1_555 1_555
C3_8 O3_8 1_555 1_555
O5_8 C3_8 1_555 1_555
O6 C1_9 1_555 1_555
O4_5 C1_9 1_555 1_555
H2_9 C6_9 1_555 1_555
O3_9 Zn4 1_555 1_555
C2_9 O7_5 1_555 1_555
C3_9 O3_9 1_555 1_555
C4_9 C2_9 1_555 1_555
C5_9 C2_9 1_555 1_555
O5_9 C3_9 1_555 1_555
H1_9 C5_9 1_555 1_555
C7_9 C5_9 1_555 1_555
C9_9 C7_9 1_555 1_555
O12_2 C8_9 1_555 1_555
O14_2 C9_9 1_555 1_555
O15_4 C9_9 1_555 1_555
C7_9 C8_9 1_555 1_555
O13_9 Zn6_2 1_555 1_555
C10_9 O13_9 1_555 1_555
O17_9 C10_9 1_555 1_555

#END
