
###############################################################################
#
# This file contains modified crystal structure data generated from the
# MOF subset of the Cambridge Structural Database (CSD) v543 
# hosted by the Cambridge Crystallographic Data Centre (CCDC).
#
# This work is licensed under the Creative Commons
# Attribution-NonCommercial-ShareAlike 4.0 International License.
# To view a copy of this license, visit
# http://creativecommons.org/licenses/by-nc-sa/4.0/
# or send a letter to
# Creative Commons, PO Box 1866, Mountain View, CA 94042, USA.
#
# CIF created using the CSD Python API on 29 September 2022
# The structure has been converted into the P1 space group
# The structure has a 3D framework
# The original CSD entry COKPOJ is in the rhombohedral crystal system
# The framework has been calculated to contain at least 10.0% void space
# The void calculation uses a probe of radius 1.32A, grid spacing 0.4
# The framework is charged, counterions have been retained in the structure
#
###############################################################################

data_COKPOJ
_chemical_formula_moiety         '(C90 H18 Co18 O90)n'
_symmetry_cell_setting           triclinic
_symmetry_space_group_name_H-M   'P 1'
_symmetry_Int_Tables_number      1
_space_group_name_Hall           'P 1'
loop_
_symmetry_equiv_pos_site_id
_symmetry_equiv_pos_as_xyz
1 x,y,z
_cell_length_a                   25.8735(12)
_cell_length_b                   25.8735
_cell_length_c                   6.8486(4)
_cell_angle_alpha                90
_cell_angle_beta                 90
_cell_angle_gamma                120
_cell_volume                     3970.48
loop_
_atom_site_label
_atom_site_type_symbol
_atom_site_fract_x
_atom_site_fract_y
_atom_site_fract_z
Co1 Co 0.3786(13) 0.3490(14) 0.151(4)
O1 O 0.3287(6) 0.2959(7) 0.3637(20)
O2 O 0.3026(7) 0.2291(7) 0.5987(20)
O3 O 0.3577(7) 0.2758(7) 0.0022(24)
C1 C 0.3191(6) 0.2476(6) 0.4286(17)
C2 C 0.3282(7) 0.2069(6) 0.2898(17)
C3 C 0.3465(6) 0.2239(7) 0.0908(17)
O4 O 0.5648(23) 0.4138(21) 0.318(6)
C5 C 0.5121(10) 0.3814(11) 0.2921(29)
O5 O 0.4628(10) 0.3506(9) 0.2716(28)
O8 O 0.3090(7) 0.0575(7) 0.3311(24)
C7 C 0.3385(7) 0.1264(6) 0.0435(17)
C8 C 0.3202(6) 0.1094(7) 0.2425(17)
C9 C 0.3161(6) 0.1517(7) 0.3577(19)
H2 H 0.3090(12) 0.1420(10) 0.501(4)
Co3 Co 0.3177(14) 0.3629(19) 0.484(4)
Co5 Co 0.3037(19) 0.2881(13) 0.818(4)
Co8 Co 0.3629(19) 0.0453(13) 0.516(4)
O11 O 0.3005(9) 0.3380(6) 0.0304(20)
O15 O 0.3909(7) 0.4152(10) 0.3355(24)
C4 C 0.3506(6) 0.1816(7) 0.9756(19)
H1 H 0.3577(12) 0.1913(10) 0.832(4)
O6 O 0.3380(6) 0.0374(7) 0.9696(20)
O7 O 0.3641(7) 0.1042(7) 0.7346(20)
C6 C 0.3476(6) 0.0857(6) 0.9047(17)
O13 O 0.4376(7) 0.4068(10) 0.9320(20)
O17 O 0.4152(10) 0.0244(7) 0.6645(24)
Co6 Co 0.2881(13) 0.9843(14) 0.182(4)
O14 O 0.4068(10) 0.9693(7) 0.0680(20)
Co2 Co 0.3490(14) 0.9704(19) 0.849(4)
O9 O 0.4138(21) 0.8490(31) 0.682(6)
C10 C 0.3814(11) 0.8693(15) 0.7079(29)
O10 O 0.3506(9) 0.8878(13) 0.7284(28)
O12 O 0.2959(7) 0.9672(9) 0.6363(20)
O16 O 0.2758(7) 0.9181(10) 0.9978(24)
Co6_2 Co 0.0157(14) 0.3037(19) 0.182(4)
O14_2 O 0.0307(7) 0.4376(12) 0.0680(20)
Co2_2 Co 0.0296(19) 0.3786(24) 0.849(4)
O9_2 O 0.1510(31) 0.5648(37) 0.682(6)
C10_2 C 0.1307(15) 0.5121(19) 0.7079(29)
O10_2 O 0.1122(13) 0.4628(16) 0.7284(28)
O12_2 O 0.0328(9) 0.3287(11) 0.6363(20)
O16_2 O 0.0819(10) 0.3577(12) 0.9978(24)
Co1_2 Co 0.6510(14) 0.0296(19) 0.151(4)
O1_2 O 0.7041(7) 0.0328(9) 0.3637(20)
O2_2 O 0.7709(7) 0.0735(10) 0.5987(20)
O3_2 O 0.7242(7) 0.0819(10) 0.0022(24)
C1_2 C 0.7524(6) 0.0715(8) 0.4286(17)
C2_2 C 0.7931(6) 0.1213(9) 0.2898(17)
C3_2 C 0.7761(7) 0.1226(9) 0.0908(17)
O4_2 O 0.5862(21) 0.1510(31) 0.318(6)
C5_2 C 0.6186(11) 0.1307(15) 0.2921(29)
O5_2 O 0.6494(9) 0.1122(13) 0.2716(28)
O8_2 O 0.9425(7) 0.2514(10) 0.3311(24)
C7_2 C 0.8736(6) 0.2120(9) 0.0435(17)
C8_2 C 0.8906(7) 0.2107(9) 0.2425(17)
C9_2 C 0.8483(7) 0.1643(9) 0.3577(19)
H2_2 H 0.8580(10) 0.1669(16) 0.501(4)
Co5_2 Co 0.7119(13) 0.0157(23) 0.818(4)
Co8_2 Co 0.9547(13) 0.3177(23) 0.516(4)
C4_2 C 0.8184(7) 0.1690(9) 0.9756(19)
H1_2 H 0.8087(10) 0.1664(16) 0.832(4)
O6_2 O 0.9626(7) 0.3005(9) 0.9696(20)
O7_2 O 0.8958(7) 0.2598(10) 0.7346(20)
C6_2 C 0.9143(6) 0.2618(8) 0.9047(17)
O13_2 O 0.5932(10) 0.0307(12) 0.9320(20)
O17_2 O 0.9756(7) 0.3909(12) 0.6645(24)
Co3_2 Co 0.6371(19) 0.9547(24) 0.484(4)
O11_2 O 0.6620(6) 0.9626(11) 0.0304(20)
O15_2 O 0.5848(10) 0.9756(12) 0.3355(24)
Co3_3 Co 0.0453(24) 0.6823(14) 0.484(4)
O11_3 O 0.0374(11) 0.6995(9) 0.0304(20)
O15_3 O 0.0244(12) 0.6091(7) 0.3355(24)
Co1_3 Co 0.9704(19) 0.6214(13) 0.151(4)
O1_3 O 0.9672(9) 0.6713(6) 0.3637(20)
O2_3 O 0.9265(10) 0.6974(7) 0.5987(20)
O3_3 O 0.9181(10) 0.6423(7) 0.0022(24)
C1_3 C 0.9285(8) 0.6809(6) 0.4286(17)
C2_3 C 0.8787(9) 0.6718(7) 0.2898(17)
C3_3 C 0.8774(9) 0.6535(6) 0.0908(17)
O4_3 O 0.8490(31) 0.4352(23) 0.318(6)
C5_3 C 0.8693(15) 0.4879(10) 0.2921(29)
O5_3 O 0.8878(13) 0.5372(10) 0.2716(28)
O8_3 O 0.7486(10) 0.6910(7) 0.3311(24)
C7_3 C 0.7880(9) 0.6615(7) 0.0435(17)
C8_3 C 0.7893(9) 0.6798(6) 0.2425(17)
C9_3 C 0.8357(9) 0.6839(6) 0.3577(19)
H2_3 H 0.8331(16) 0.6910(12) 0.501(4)
Co5_3 Co 0.9843(23) 0.6963(19) 0.818(4)
Co6_3 Co 0.6963(19) 0.7119(13) 0.182(4)
Co8_3 Co 0.6823(23) 0.6371(19) 0.516(4)
O14_3 O 0.5624(12) 0.5932(10) 0.0680(20)
C4_3 C 0.8310(9) 0.6494(6) 0.9756(19)
H1_3 H 0.8336(16) 0.6423(12) 0.832(4)
O6_3 O 0.6995(9) 0.6620(6) 0.9696(20)
O7_3 O 0.7402(10) 0.6359(7) 0.7346(20)
C6_3 C 0.7382(8) 0.6524(6) 0.9047(17)
Co2_3 Co 0.6214(24) 0.6510(14) 0.849(4)
O9_3 O 0.4352(37) 0.5862(21) 0.682(6)
C10_3 C 0.4879(19) 0.6186(11) 0.7079(29)
O10_3 O 0.5372(16) 0.6494(9) 0.7284(28)
O12_3 O 0.6713(11) 0.7041(7) 0.6363(20)
O13_3 O 0.9693(12) 0.5624(7) 0.9320(20)
O16_3 O 0.6423(12) 0.7242(7) 0.9978(24)
O17_3 O 0.6091(12) 0.5848(10) 0.6645(24)
C3_4 C 0.0132(6) 0.5572(7) 0.4241(17)
C4_4 C 0.0173(6) 0.5149(7) 0.3089(19)
H1_4 H 0.0244(12) 0.5246(10) 0.165(4)
O4_4 O 0.2315(23) 0.7471(21) 0.651(6)
C5_4 C 0.1788(10) 0.7147(11) 0.6254(29)
O5_4 O 0.1295(10) 0.6839(9) 0.6049(28)
O6_4 O 0.0046(6) 0.3708(7) 0.3030(20)
C6_4 C 0.0142(6) 0.4191(6) 0.2381(17)
C7_4 C 0.0051(7) 0.4598(6) 0.3769(17)
O9_4 O 0.0805(21) 0.1823(31) 0.015(6)
C10_4 C 0.0481(11) 0.2026(15) 0.0412(29)
O10_4 O 0.0173(9) 0.2211(13) 0.0617(28)
O13_4 O 0.1042(7) 0.7402(10) 0.2654(20)
O14_4 O 0.0735(10) 0.3026(7) 0.4013(20)
O15_4 O 0.0575(7) 0.7486(10) 0.6689(24)
O1_4 O 0.9954(6) 0.6292(7) 0.6970(20)
C1_4 C 0.9858(6) 0.5809(6) 0.7619(17)
C2_4 C 0.9949(7) 0.5402(6) 0.6231(17)
C8_4 C 0.9868(6) 0.4428(7) 0.5759(17)
C9_4 C 0.9827(6) 0.4851(7) 0.6911(19)
H2_4 H 0.9756(12) 0.4754(10) 0.835(4)
O1_5 O 0.3708(7) 0.3661(9) 0.6970(20)
C1_5 C 0.4191(6) 0.4048(8) 0.7619(17)
C2_5 C 0.4598(6) 0.4546(9) 0.6231(17)
C3_5 C 0.4428(7) 0.4559(9) 0.4241(17)
C4_5 C 0.4851(7) 0.5023(9) 0.3089(19)
H1_5 H 0.4754(10) 0.4997(16) 0.165(4)
O4_5 O 0.2529(21) 0.4843(31) 0.651(6)
C5_5 C 0.2853(11) 0.4640(15) 0.6254(29)
O5_5 O 0.3161(9) 0.4455(13) 0.6049(28)
O6_5 O 0.6292(7) 0.6339(9) 0.3030(20)
C6_5 C 0.5809(6) 0.5952(8) 0.2381(17)
C7_5 C 0.5402(6) 0.5454(9) 0.3769(17)
C8_5 C 0.5572(7) 0.5441(9) 0.5759(17)
C9_5 C 0.5149(7) 0.4977(9) 0.6911(19)
H2_5 H 0.5246(10) 0.5003(16) 0.835(4)
O9_5 O 0.8177(31) 0.8981(37) 0.015(6)
C10_5 C 0.7974(15) 0.8454(19) 0.0412(29)
O10_5 O 0.7789(13) 0.7961(16) 0.0617(28)
O13_5 O 0.2598(10) 0.3641(12) 0.2654(20)
O14_5 O 0.6974(7) 0.7709(12) 0.4013(20)
O15_5 O 0.2514(10) 0.3090(12) 0.6689(24)
O1_6 O 0.6339(9) 0.0046(6) 0.6970(20)
C1_6 C 0.5952(8) 0.0142(6) 0.7619(17)
C2_6 C 0.5454(9) 0.0051(7) 0.6231(17)
C8_6 C 0.4559(9) 0.0132(6) 0.5759(17)
C9_6 C 0.5023(9) 0.0173(6) 0.6911(19)
H2_6 H 0.4997(16) 0.0244(12) 0.835(4)
C3_6 C 0.5441(9) 0.9868(6) 0.4241(17)
C4_6 C 0.4977(9) 0.9827(6) 0.3089(19)
H1_6 H 0.5003(16) 0.9756(12) 0.165(4)
O4_6 O 0.5157(31) 0.7685(23) 0.651(6)
C5_6 C 0.5360(15) 0.8212(10) 0.6254(29)
O5_6 O 0.5545(13) 0.8705(10) 0.6049(28)
O6_6 O 0.3661(9) 0.9954(6) 0.3030(20)
C6_6 C 0.4048(8) 0.9858(6) 0.2381(17)
C7_6 C 0.4546(9) 0.9949(7) 0.3769(17)
O9_6 O 0.1019(37) 0.9195(21) 0.015(6)
C10_6 C 0.1546(19) 0.9519(11) 0.0412(29)
O10_6 O 0.2039(16) 0.9827(9) 0.0617(28)
O13_6 O 0.6359(12) 0.8958(7) 0.2654(20)
O14_6 O 0.2291(12) 0.9265(10) 0.4013(20)
O15_6 O 0.6910(12) 0.9425(7) 0.6689(24)
O4_7 O 0.8981(23) 0.0805(21) 0.985(6)
C5_7 C 0.8454(10) 0.0481(11) 0.9588(29)
O5_7 O 0.7961(10) 0.0173(9) 0.9383(28)
C1_7 C 0.6524(6) 0.9143(6) 0.0953(17)
C9_7 C 0.6494(6) 0.8184(7) 0.0244(19)
H2_7 H 0.6423(12) 0.8087(10) 0.168(4)
C2_7 C 0.6615(7) 0.8736(6) 0.9565(17)
C3_7 C 0.6798(6) 0.8906(7) 0.7575(17)
C4_7 C 0.6839(6) 0.8483(7) 0.6423(19)
H1_7 H 0.6910(12) 0.8580(10) 0.499(4)
C6_7 C 0.6809(6) 0.7524(6) 0.5714(17)
C7_7 C 0.6718(7) 0.7931(6) 0.7102(17)
C8_7 C 0.6535(6) 0.7761(7) 0.9092(17)
O9_7 O 0.7471(21) 0.5157(31) 0.349(6)
C10_7 C 0.7147(11) 0.5360(15) 0.3746(29)
O10_7 O 0.6839(9) 0.5545(13) 0.3951(28)
O9_8 O 0.4843(31) 0.2315(37) 0.349(6)
C10_8 C 0.4640(15) 0.1788(19) 0.3746(29)
O10_8 O 0.4455(13) 0.1295(16) 0.3951(28)
C1_8 C 0.0857(6) 0.7382(8) 0.0953(17)
C9_8 C 0.1816(7) 0.8310(9) 0.0244(19)
H2_8 H 0.1913(10) 0.8336(16) 0.168(4)
C2_8 C 0.1264(6) 0.7880(9) 0.9565(17)
C3_8 C 0.1094(7) 0.7893(9) 0.7575(17)
C4_8 C 0.1517(7) 0.8357(9) 0.6423(19)
H1_8 H 0.1420(10) 0.8331(16) 0.499(4)
C6_8 C 0.2476(6) 0.9285(8) 0.5714(17)
C7_8 C 0.2069(6) 0.8787(9) 0.7102(17)
C8_8 C 0.2239(7) 0.8774(9) 0.9092(17)
O4_8 O 0.9195(21) 0.8177(31) 0.985(6)
C5_8 C 0.9519(11) 0.7974(15) 0.9588(29)
O5_8 O 0.9827(9) 0.7789(13) 0.9383(28)
C1_9 C 0.2618(8) 0.3476(6) 0.0953(17)
C9_9 C 0.1690(9) 0.3506(6) 0.0244(19)
H2_9 H 0.1664(16) 0.3577(12) 0.168(4)
C2_9 C 0.2120(9) 0.3385(7) 0.9565(17)
C3_9 C 0.2107(9) 0.3202(6) 0.7575(17)
C4_9 C 0.1643(9) 0.3161(6) 0.6423(19)
H1_9 H 0.1669(16) 0.3090(12) 0.499(4)
O4_9 O 0.1823(31) 0.1019(23) 0.985(6)
C5_9 C 0.2026(15) 0.1546(10) 0.9588(29)
O5_9 O 0.2211(13) 0.2039(10) 0.9383(28)
C6_9 C 0.0715(8) 0.3191(6) 0.5714(17)
C7_9 C 0.1213(9) 0.3282(7) 0.7102(17)
C8_9 C 0.1226(9) 0.3465(6) 0.9092(17)
O9_9 O 0.7685(37) 0.2529(21) 0.349(6)
C10_9 C 0.8212(19) 0.2853(11) 0.3746(29)
O10_9 O 0.8705(16) 0.3161(9) 0.3951(28)
loop_
_geom_bond_atom_site_label_1
_geom_bond_atom_site_label_2
_geom_bond_site_symmetry_1
_geom_bond_site_symmetry_2
Co1 O1 1_555 1_555
O1 C1 1_555 1_555
O2 C1 1_555 1_555
O3 Co1 1_555 1_555
C1 C2 1_555 1_555
C2 C3 1_555 1_555
C3 O3 1_555 1_555
O4 C5 1_555 1_555
C5 O5 1_555 1_555
O5 Co1 1_555 1_555
O8 C8 1_555 1_555
C8 C7 1_555 1_555
C9 C2 1_555 1_555
H2 C9 1_555 1_555
Co3 O1 1_555 1_555
Co5 O2 1_555 1_555
Co8 O8 1_555 1_555
O11 Co1 1_555 1_555
O15 Co1 1_555 1_555
C8 C9 1_555 1_555
Co3 O15 1_555 1_555
H1 C4 1_555 1_555
O6 C6 1_555 1_555
O7 C6 1_555 1_555
Co8 O7 1_555 1_555
Co8 O17 1_555 1_555
O9 C10 1_555 1_555
C10 O10 1_555 1_555
O10 Co2 1_555 1_555
O12 Co2 1_555 1_555
O16 Co2 1_555 1_555
O9_2 C10_2 1_555 1_555
C10_2 O10_2 1_555 1_555
O10_2 Co2_2 1_555 1_555
O12_2 Co2_2 1_555 1_555
O16_2 Co2_2 1_555 1_555
Co1_2 O1_2 1_555 1_555
O1_2 C1_2 1_555 1_555
O2_2 C1_2 1_555 1_555
O3_2 Co1_2 1_555 1_555
C1_2 C2_2 1_555 1_555
C2_2 C3_2 1_555 1_555
C3_2 O3_2 1_555 1_555
O4_2 C5_2 1_555 1_555
C5_2 O5_2 1_555 1_555
O5_2 Co1_2 1_555 1_555
O8_2 C8_2 1_555 1_555
C8_2 C7_2 1_555 1_555
C9_2 C2_2 1_555 1_555
H2_2 C9_2 1_555 1_555
Co5_2 O2_2 1_555 1_555
Co8_2 O8_2 1_555 1_555
C8_2 C9_2 1_555 1_555
H1_2 C4_2 1_555 1_555
O6_2 C6_2 1_555 1_555
O7_2 C6_2 1_555 1_555
Co8_2 O7_2 1_555 1_555
Co8_2 O17_2 1_555 1_555
Co3_2 O15_2 1_555 1_555
Co3_3 O15_3 1_555 1_555
Co1_3 O1_3 1_555 1_555
O1_3 C1_3 1_555 1_555
O2_3 C1_3 1_555 1_555
O3_3 Co1_3 1_555 1_555
C1_3 C2_3 1_555 1_555
C2_3 C3_3 1_555 1_555
C3_3 O3_3 1_555 1_555
O4_3 C5_3 1_555 1_555
C5_3 O5_3 1_555 1_555
O5_3 Co1_3 1_555 1_555
O8_3 C8_3 1_555 1_555
C8_3 C7_3 1_555 1_555
C9_3 C2_3 1_555 1_555
H2_3 C9_3 1_555 1_555
Co5_3 O2_3 1_555 1_555
Co8_3 O8_3 1_555 1_555
O8_3 Co6_3 1_555 1_555
C8_3 C9_3 1_555 1_555
H1_3 C4_3 1_555 1_555
O6_3 C6_3 1_555 1_555
O7_3 C6_3 1_555 1_555
Co2_3 O6_3 1_555 1_555
O9_3 C10_3 1_555 1_555
C10_3 O10_3 1_555 1_555
O10_3 Co2_3 1_555 1_555
Co8_3 O7_3 1_555 1_555
O12_3 Co2_3 1_555 1_555
O16_3 Co2_3 1_555 1_555
O17_3 Co2_3 1_555 1_555
Co8_3 O12_3 1_555 1_555
Co8_3 O17_3 1_555 1_555
C3_4 O15_3 1_555 1_555
C4_4 C3_4 1_555 1_555
H1_4 C4_4 1_555 1_555
O4_4 C5_4 1_555 1_555
C5_4 O5_4 1_555 1_555
O5_4 Co3_3 1_555 1_555
O6_4 C6_4 1_555 1_555
O14_2 C6_4 1_555 1_555
C6_4 C7_4 1_555 1_555
C7_4 C4_4 1_555 1_555
Co6_2 O6_4 1_555 1_555
O9_4 C10_4 1_555 1_555
C10_4 O10_4 1_555 1_555
O10_4 Co6_2 1_555 1_555
O13_4 Co3_3 1_555 1_555
O14_4 Co6_2 1_555 1_555
O15_4 Co3_3 1_555 1_555
O1_4 C1_4 1_555 1_555
O13_3 C1_4 1_555 1_555
C1_4 C2_4 1_555 1_555
O17_2 C8_4 1_555 1_555
C9_4 C2_4 1_555 1_555
H2_4 C9_4 1_555 1_555
Co5_3 O1_4 1_555 1_555
C8_4 C9_4 1_555 1_555
Co3 O1_5 1_555 1_555
O1_5 C1_5 1_555 1_555
O13 C1_5 1_555 1_555
C1_5 C2_5 1_555 1_555
C2_5 C3_5 1_555 1_555
C3_5 O15 1_555 1_555
C4_5 C3_5 1_555 1_555
H1_5 C4_5 1_555 1_555
O4_5 C5_5 1_555 1_555
C5_5 O5_5 1_555 1_555
O5_5 Co3 1_555 1_555
O6_5 C6_5 1_555 1_555
O14_3 C6_5 1_555 1_555
O17_3 C8_5 1_555 1_555
C6_5 C7_5 1_555 1_555
C7_5 C4_5 1_555 1_555
C8_5 C7_5 1_555 1_555
C9_5 C2_5 1_555 1_555
H2_5 C9_5 1_555 1_555
Co6_3 O6_5 1_555 1_555
O9_5 C10_5 1_555 1_555
C10_5 O10_5 1_555 1_555
O10_5 Co6_3 1_555 1_555
Co5 O1_5 1_555 1_555
Co8_3 O6_5 1_555 1_555
O13_5 Co3 1_555 1_555
O14_5 Co6_3 1_555 1_555
O15_5 Co3 1_555 1_555
C8_5 C9_5 1_555 1_555
Co5 O15_5 1_555 1_555
O1_6 C1_6 1_555 1_555
O13_2 C1_6 1_555 1_555
C1_6 C2_6 1_555 1_555
O17 C8_6 1_555 1_555
C9_6 C2_6 1_555 1_555
H2_6 C9_6 1_555 1_555
Co5_2 O1_6 1_555 1_555
C8_6 C9_6 1_555 1_555
C3_6 O15_2 1_555 1_555
C4_6 C3_6 1_555 1_555
H1_6 C4_6 1_555 1_555
O4_6 C5_6 1_555 1_555
C5_6 O5_6 1_555 1_555
O5_6 Co3_2 1_555 1_555
O6_6 C6_6 1_555 1_555
O14 C6_6 1_555 1_555
C6_6 C7_6 1_555 1_555
C7_6 C4_6 1_555 1_555
Co6 O6_6 1_555 1_555
O9_6 C10_6 1_555 1_555
C10_6 O10_6 1_555 1_555
O10_6 Co6 1_555 1_555
O13_6 Co3_2 1_555 1_555
O14_6 Co6 1_555 1_555
O15_6 Co3_2 1_555 1_555
O4_7 C5_7 1_555 1_555
C5_7 O5_7 1_555 1_555
O5_7 Co5_2 1_555 1_555
O11_2 C1_7 1_555 1_555
O13_6 C1_7 1_555 1_555
H2_7 C9_7 1_555 1_555
C2_7 C3_7 1_555 1_555
C3_7 O15_6 1_555 1_555
C4_7 C3_7 1_555 1_555
H1_7 C4_7 1_555 1_555
O12_3 C6_7 1_555 1_555
O14_5 C6_7 1_555 1_555
O16_3 C8_7 1_555 1_555
C6_7 C7_7 1_555 1_555
C7_7 C4_7 1_555 1_555
C8_7 C7_7 1_555 1_555
O9_7 C10_7 1_555 1_555
C10_7 O10_7 1_555 1_555
O10_7 Co8_3 1_555 1_555
O9_8 C10_8 1_555 1_555
C10_8 O10_8 1_555 1_555
O10_8 Co8 1_555 1_555
O11_3 C1_8 1_555 1_555
O13_4 C1_8 1_555 1_555
H2_8 C9_8 1_555 1_555
C2_8 C3_8 1_555 1_555
C3_8 O15_4 1_555 1_555
C4_8 C3_8 1_555 1_555
H1_8 C4_8 1_555 1_555
O12 C6_8 1_555 1_555
O14_6 C6_8 1_555 1_555
O16 C8_8 1_555 1_555
C6_8 C7_8 1_555 1_555
C7_8 C4_8 1_555 1_555
C8_8 C7_8 1_555 1_555
O4_8 C5_8 1_555 1_555
C5_8 O5_8 1_555 1_555
O5_8 Co5_3 1_555 1_555
O11 C1_9 1_555 1_555
O13_5 C1_9 1_555 1_555
H2_9 C9_9 1_555 1_555
C2_9 C3_9 1_555 1_555
C3_9 O15_5 1_555 1_555
C4_9 C3_9 1_555 1_555
H1_9 C4_9 1_555 1_555
O4_9 C5_9 1_555 1_555
C5_9 O5_9 1_555 1_555
O5_9 Co5 1_555 1_555
O12_2 C6_9 1_555 1_555
O14_4 C6_9 1_555 1_555
O16_2 C8_9 1_555 1_555
C6_9 C7_9 1_555 1_555
C7_9 C4_9 1_555 1_555
C8_9 C7_9 1_555 1_555
O9_9 C10_9 1_555 1_555
C10_9 O10_9 1_555 1_555
O10_9 Co8_2 1_555 1_555

#END
