
###############################################################################
#
# This file contains modified crystal structure data generated from the
# MOF subset of the Cambridge Structural Database (CSD) v543 
# hosted by the Cambridge Crystallographic Data Centre (CCDC).
#
# This work is licensed under the Creative Commons
# Attribution-NonCommercial-ShareAlike 4.0 International License.
# To view a copy of this license, visit
# http://creativecommons.org/licenses/by-nc-sa/4.0/
# or send a letter to
# Creative Commons, PO Box 1866, Mountain View, CA 94042, USA.
#
# CIF created using the CSD Python API on 29 September 2022
# The structure has been converted into the P1 space group
# The structure has a 3D framework
# The original CSD entry COKPID is in the rhombohedral crystal system
# The framework has been calculated to contain at least 10.0% void space
# The void calculation uses a probe of radius 1.32A, grid spacing 0.4
# The framework is charged, counterions have been retained in the structure
#
###############################################################################

data_COKPID
_chemical_formula_moiety         '(C90 H18 Fe18 O90)n'
_symmetry_cell_setting           triclinic
_symmetry_space_group_name_H-M   'P 1'
_symmetry_Int_Tables_number      1
_space_group_name_Hall           'P 1'
loop_
_symmetry_equiv_pos_site_id
_symmetry_equiv_pos_as_xyz
1 x,y,z
_cell_length_a                   26.0010(5)
_cell_length_b                   26.001
_cell_length_c                   6.86071(20)
_cell_angle_alpha                90
_cell_angle_beta                 90
_cell_angle_gamma                120
_cell_volume                     4016.8
loop_
_atom_site_label
_atom_site_type_symbol
_atom_site_fract_x
_atom_site_fract_y
_atom_site_fract_z
Fe1 Fe 0.38556(19) 0.35294(20) 0.1427(6)
O1 O 0.32553(31) 0.29320(32) 0.3521(11)
O2 O 0.30331(33) 0.22615(35) 0.6000(11)
O3 O 0.3534(4) 0.27077(31) 0.0078(11)
C1 C 0.31607(29) 0.24472(28) 0.4228(9)
C2 C 0.32541(31) 0.20360(29) 0.2909(9)
C3 C 0.34290(26) 0.22086(27) 0.0961(9)
O4 O 0.5546(4) 0.4233(5) 0.2187(24)
C5 C 0.50791(27) 0.3827(4) 0.2473(16)
O5 O 0.46135(28) 0.3463(4) 0.2815(13)
O8 O 0.3133(4) 0.06256(31) 0.3255(11)
C7 C 0.34126(31) 0.12973(29) 0.0424(9)
C8 C 0.32377(26) 0.11247(27) 0.2372(9)
C9 C 0.31525(30) 0.15049(30) 0.3581(9)
H2 H 0.3061(5) 0.1379(5) 0.5046(19)
Fe3 Fe 0.31373(20) 0.36595(28) 0.4760(6)
Fe5 Fe 0.30071(28) 0.28111(19) 0.8094(6)
Fe8 Fe 0.36595(28) 0.05223(19) 0.5240(6)
O11 O 0.30100(45) 0.34114(31) 0.0188(11)
O15 O 0.39590(31) 0.41596(51) 0.3411(11)
C4 C 0.35142(30) 0.18284(30) 0.9752(9)
H1 H 0.3606(5) 0.1954(5) 0.8287(19)
O6 O 0.34114(31) 0.04013(32) 0.9812(11)
O7 O 0.36336(33) 0.10718(35) 0.7333(11)
C6 C 0.35060(29) 0.08861(28) 0.9105(9)
O13 O 0.44052(35) 0.41049(48) 0.9333(11)
O17 O 0.41596(51) 0.0201(4) 0.6589(11)
Fe6 Fe 0.28111(19) 0.98039(20) 0.1906(6)
O14 O 0.41049(48) 0.96998(33) 0.0667(11)
Fe2 Fe 0.35294(20) 0.96738(28) 0.8573(6)
O9 O 0.4233(5) 0.8687(6) 0.7813(24)
C10 C 0.3827(4) 0.87479(48) 0.7527(16)
O10 O 0.3463(4) 0.88495(49) 0.7185(13)
O12 O 0.29320(32) 0.96767(45) 0.6479(11)
O16 O 0.27077(31) 0.91737(51) 0.9922(11)
Fe6_2 Fe 0.01961(20) 0.30071(28) 0.1906(6)
O14_2 O 0.03002(33) 0.44052(58) 0.0667(11)
Fe2_2 Fe 0.03262(28) 0.38556(34) 0.8573(6)
O9_2 O 0.1313(6) 0.5546(8) 0.7813(24)
C10_2 C 0.12521(48) 0.50791(62) 0.7527(16)
O10_2 O 0.11505(49) 0.46135(63) 0.7185(13)
O12_2 O 0.03233(45) 0.32553(55) 0.6479(11)
O16_2 O 0.08263(51) 0.35340(60) 0.9922(11)
Fe1_2 Fe 0.64706(20) 0.03262(28) 0.1427(6)
O1_2 O 0.70680(32) 0.03233(45) 0.3521(11)
O2_2 O 0.77385(35) 0.07716(48) 0.6000(11)
O3_2 O 0.72923(31) 0.08263(51) 0.0078(11)
C1_2 C 0.75528(28) 0.07135(40) 0.4228(9)
C2_2 C 0.79640(29) 0.12181(42) 0.2909(9)
C3_2 C 0.77914(27) 0.12204(37) 0.0961(9)
O4_2 O 0.5767(5) 0.1313(6) 0.2187(24)
C5_2 C 0.6173(4) 0.12521(48) 0.2473(16)
O5_2 O 0.6537(4) 0.11505(49) 0.2815(13)
O8_2 O 0.93744(31) 0.25070(51) 0.3255(11)
C7_2 C 0.87027(29) 0.21152(42) 0.0424(9)
C8_2 C 0.88753(27) 0.21129(37) 0.2372(9)
C9_2 C 0.84951(30) 0.16475(42) 0.3581(9)
H2_2 H 0.8621(5) 0.1681(7) 0.5046(19)
Fe5_2 Fe 0.71889(19) 0.01961(34) 0.8094(6)
Fe8_2 Fe 0.94777(19) 0.31373(34) 0.5240(6)
C4_2 C 0.81716(30) 0.16858(42) 0.9752(9)
H1_2 H 0.8046(5) 0.1652(7) 0.8287(19)
O6_2 O 0.95987(32) 0.30100(45) 0.9812(11)
O7_2 O 0.89282(35) 0.25617(48) 0.7333(11)
C6_2 C 0.91139(28) 0.26198(40) 0.9105(9)
O13_2 O 0.58951(48) 0.03002(59) 0.9333(11)
O17_2 O 0.9799(4) 0.39590(65) 0.6589(11)
Fe3_2 Fe 0.63405(28) 0.94777(34) 0.4760(6)
O11_2 O 0.65886(31) 0.95987(55) 0.0188(11)
O15_2 O 0.58404(51) 0.97993(60) 0.3411(11)
Fe3_3 Fe 0.05223(34) 0.68627(20) 0.4760(6)
O11_3 O 0.04013(55) 0.69900(45) 0.0188(11)
O15_3 O 0.02007(60) 0.60410(31) 0.3411(11)
Fe1_3 Fe 0.96738(28) 0.61444(19) 0.1427(6)
O1_3 O 0.96767(45) 0.67447(31) 0.3521(11)
O2_3 O 0.92284(48) 0.69669(33) 0.6000(11)
O3_3 O 0.91737(51) 0.6466(4) 0.0078(11)
C1_3 C 0.92865(40) 0.68393(29) 0.4228(9)
C2_3 C 0.87819(42) 0.67459(31) 0.2909(9)
C3_3 C 0.87796(37) 0.65710(26) 0.0961(9)
O4_3 O 0.8687(6) 0.4454(4) 0.2187(24)
C5_3 C 0.87479(48) 0.49209(27) 0.2473(16)
O5_3 O 0.88495(49) 0.53865(28) 0.2815(13)
O8_3 O 0.74930(51) 0.6867(4) 0.3255(11)
C7_3 C 0.78848(42) 0.65874(31) 0.0424(9)
C8_3 C 0.78871(37) 0.67623(26) 0.2372(9)
C9_3 C 0.83525(42) 0.68475(30) 0.3581(9)
H2_3 H 0.8319(7) 0.6939(5) 0.5046(19)
Fe5_3 Fe 0.98039(34) 0.69929(28) 0.8094(6)
Fe6_3 Fe 0.69929(28) 0.71889(19) 0.1906(6)
Fe8_3 Fe 0.68627(34) 0.63405(28) 0.5240(6)
O14_3 O 0.55948(58) 0.58951(48) 0.0667(11)
C4_3 C 0.83142(42) 0.64858(30) 0.9752(9)
H1_3 H 0.8348(7) 0.6394(5) 0.8287(19)
O6_3 O 0.69900(45) 0.65886(31) 0.9812(11)
O7_3 O 0.74383(48) 0.63664(33) 0.7333(11)
C6_3 C 0.73802(40) 0.64940(29) 0.9105(9)
Fe2_3 Fe 0.61444(34) 0.64706(20) 0.8573(6)
O9_3 O 0.4454(8) 0.5767(5) 0.7813(24)
C10_3 C 0.49209(62) 0.6173(4) 0.7527(16)
O10_3 O 0.53865(63) 0.6537(4) 0.7185(13)
O12_3 O 0.67447(55) 0.70680(32) 0.6479(11)
O13_3 O 0.96998(59) 0.55948(35) 0.9333(11)
O16_3 O 0.64660(60) 0.72923(31) 0.9922(11)
O17_3 O 0.60410(65) 0.58404(51) 0.6589(11)
C3_4 C 0.00957(26) 0.55419(27) 0.4294(9)
C4_4 C 0.01809(30) 0.51617(30) 0.3085(9)
H1_4 H 0.0273(5) 0.5287(5) 0.1620(19)
O4_4 O 0.2213(4) 0.7566(5) 0.5520(24)
C5_4 C 0.17458(27) 0.7160(4) 0.5806(16)
O5_4 O 0.12802(28) 0.6796(4) 0.6148(13)
O6_4 O 0.00780(31) 0.37347(32) 0.3146(11)
C6_4 C 0.01726(29) 0.42195(28) 0.2439(9)
C7_4 C 0.00792(31) 0.46307(29) 0.3758(9)
O9_4 O 0.0900(5) 0.2020(6) 0.1146(24)
C10_4 C 0.0494(4) 0.20812(48) 0.0860(16)
O10_4 O 0.0130(4) 0.21828(49) 0.0518(13)
O13_4 O 0.10718(35) 0.74383(48) 0.2667(11)
O14_4 O 0.07716(48) 0.30331(33) 0.4000(11)
O15_4 O 0.06256(31) 0.74930(51) 0.6745(11)
O1_4 O 0.99220(31) 0.62653(32) 0.6854(11)
C1_4 C 0.98274(29) 0.57805(28) 0.7561(9)
C2_4 C 0.99208(31) 0.53693(29) 0.6242(9)
C8_4 C 0.99043(26) 0.44581(27) 0.5706(9)
C9_4 C 0.98191(30) 0.48383(30) 0.6915(9)
H2_4 H 0.9727(5) 0.4713(5) 0.8380(19)
O1_5 O 0.37347(32) 0.36566(45) 0.6854(11)
C1_5 C 0.42195(28) 0.40468(40) 0.7561(9)
C2_5 C 0.46307(29) 0.45514(42) 0.6242(9)
C3_5 C 0.44581(27) 0.45537(37) 0.4294(9)
C4_5 C 0.48383(30) 0.50191(42) 0.3085(9)
H1_5 H 0.4713(5) 0.4985(7) 0.1620(19)
O4_5 O 0.2434(5) 0.4646(6) 0.5520(24)
C5_5 C 0.2840(4) 0.45854(48) 0.5806(16)
O5_5 O 0.3204(4) 0.44838(49) 0.6148(13)
O6_5 O 0.62653(32) 0.63434(45) 0.3146(11)
C6_5 C 0.57805(28) 0.59532(40) 0.2439(9)
C7_5 C 0.53693(29) 0.54486(42) 0.3758(9)
C8_5 C 0.55419(27) 0.54463(37) 0.5706(9)
C9_5 C 0.51617(30) 0.49809(42) 0.6915(9)
H2_5 H 0.5287(5) 0.5015(7) 0.8380(19)
O9_5 O 0.7980(6) 0.8879(8) 0.1146(24)
C10_5 C 0.79188(48) 0.84124(62) 0.0860(16)
O10_5 O 0.78172(49) 0.79468(63) 0.0518(13)
O13_5 O 0.25617(48) 0.36336(59) 0.2667(11)
O14_5 O 0.69669(33) 0.77385(58) 0.4000(11)
O15_5 O 0.25070(51) 0.31327(60) 0.6745(11)
O1_6 O 0.63434(45) 0.00780(31) 0.6854(11)
C1_6 C 0.59532(40) 0.01726(29) 0.7561(9)
C2_6 C 0.54486(42) 0.00792(31) 0.6242(9)
C8_6 C 0.45537(37) 0.00957(26) 0.5706(9)
C9_6 C 0.50191(42) 0.01809(30) 0.6915(9)
H2_6 H 0.4985(7) 0.0273(5) 0.8380(19)
C3_6 C 0.54463(37) 0.99043(26) 0.4294(9)
C4_6 C 0.49809(42) 0.98191(30) 0.3085(9)
H1_6 H 0.5015(7) 0.9727(5) 0.1620(19)
O4_6 O 0.5354(6) 0.7787(4) 0.5520(24)
C5_6 C 0.54146(48) 0.82542(27) 0.5806(16)
O5_6 O 0.55162(49) 0.87198(28) 0.6148(13)
O6_6 O 0.36566(45) 0.99220(31) 0.3146(11)
C6_6 C 0.40468(40) 0.98274(29) 0.2439(9)
C7_6 C 0.45514(42) 0.99208(31) 0.3758(9)
O9_6 O 0.1121(8) 0.9100(5) 0.1146(24)
C10_6 C 0.15876(62) 0.9506(4) 0.0860(16)
O10_6 O 0.20532(63) 0.9870(4) 0.0518(13)
O13_6 O 0.63664(59) 0.89282(35) 0.2667(11)
O14_6 O 0.22615(58) 0.92284(48) 0.4000(11)
O15_6 O 0.68673(60) 0.93744(31) 0.6745(11)
O4_7 O 0.8879(4) 0.0900(5) 0.8854(24)
C5_7 C 0.84124(27) 0.0494(4) 0.9140(16)
O5_7 O 0.79468(28) 0.0130(4) 0.9482(13)
C1_7 C 0.64940(29) 0.91139(28) 0.0895(9)
C9_7 C 0.64858(30) 0.81716(30) 0.0248(9)
H2_7 H 0.6394(5) 0.8046(5) 0.1713(19)
C2_7 C 0.65874(31) 0.87027(29) 0.9576(9)
C3_7 C 0.67623(26) 0.88753(27) 0.7628(9)
C4_7 C 0.68475(30) 0.84951(30) 0.6419(9)
H1_7 H 0.6939(5) 0.8621(5) 0.4954(19)
C6_7 C 0.68393(29) 0.75528(28) 0.5772(9)
C7_7 C 0.67459(31) 0.79640(29) 0.7091(9)
C8_7 C 0.65710(26) 0.77914(27) 0.9039(9)
O9_7 O 0.7566(5) 0.5354(6) 0.4480(24)
C10_7 C 0.7160(4) 0.54146(48) 0.4194(16)
O10_7 O 0.6796(4) 0.55162(49) 0.3852(13)
O9_8 O 0.4646(6) 0.2213(8) 0.4480(24)
C10_8 C 0.45854(48) 0.17458(62) 0.4194(16)
O10_8 O 0.44838(49) 0.12802(63) 0.3852(13)
C1_8 C 0.08861(28) 0.73802(40) 0.0895(9)
C9_8 C 0.18284(30) 0.83142(42) 0.0248(9)
H2_8 H 0.1954(5) 0.8348(7) 0.1713(19)
C2_8 C 0.12973(29) 0.78848(42) 0.9576(9)
C3_8 C 0.11247(27) 0.78871(37) 0.7628(9)
C4_8 C 0.15049(30) 0.83525(42) 0.6419(9)
H1_8 H 0.1379(5) 0.8319(7) 0.4954(19)
C6_8 C 0.24472(28) 0.92865(40) 0.5772(9)
C7_8 C 0.20360(29) 0.87819(42) 0.7091(9)
C8_8 C 0.22086(27) 0.87796(37) 0.9039(9)
O4_8 O 0.9100(5) 0.7980(6) 0.8854(24)
C5_8 C 0.9506(4) 0.79188(48) 0.9140(16)
O5_8 O 0.9870(4) 0.78172(49) 0.9482(13)
C1_9 C 0.26198(40) 0.35060(29) 0.0895(9)
C9_9 C 0.16858(42) 0.35142(30) 0.0248(9)
H2_9 H 0.1652(7) 0.3606(5) 0.1713(19)
C2_9 C 0.21152(42) 0.34126(31) 0.9576(9)
C3_9 C 0.21129(37) 0.32377(26) 0.7628(9)
C4_9 C 0.16475(42) 0.31525(30) 0.6419(9)
H1_9 H 0.1681(7) 0.3061(5) 0.4954(19)
O4_9 O 0.2020(6) 0.1121(4) 0.8854(24)
C5_9 C 0.20812(48) 0.15876(27) 0.9140(16)
O5_9 O 0.21828(49) 0.20532(28) 0.9482(13)
C6_9 C 0.07135(40) 0.31607(29) 0.5772(9)
C7_9 C 0.12181(42) 0.32541(31) 0.7091(9)
C8_9 C 0.12204(37) 0.34290(26) 0.9039(9)
O9_9 O 0.7787(8) 0.2434(5) 0.4480(24)
C10_9 C 0.82542(62) 0.2840(4) 0.4194(16)
O10_9 O 0.87198(63) 0.3204(4) 0.3852(13)
loop_
_geom_bond_atom_site_label_1
_geom_bond_atom_site_label_2
_geom_bond_site_symmetry_1
_geom_bond_site_symmetry_2
Fe1 O1 1_555 1_555
O1 C1 1_555 1_555
O2 C1 1_555 1_555
O3 Fe1 1_555 1_555
C1 C2 1_555 1_555
C2 C3 1_555 1_555
C3 O3 1_555 1_555
O4 C5 1_555 1_555
C5 O5 1_555 1_555
O5 Fe1 1_555 1_555
O8 C8 1_555 1_555
C8 C7 1_555 1_555
C9 C2 1_555 1_555
H2 C9 1_555 1_555
Fe3 O1 1_555 1_555
Fe5 O2 1_555 1_555
Fe8 O8 1_555 1_555
O11 Fe1 1_555 1_555
O15 Fe1 1_555 1_555
C8 C9 1_555 1_555
Fe3 O15 1_555 1_555
H1 C4 1_555 1_555
O6 C6 1_555 1_555
O7 C6 1_555 1_555
Fe8 O7 1_555 1_555
Fe8 O17 1_555 1_555
O9 C10 1_555 1_555
C10 O10 1_555 1_555
O10 Fe2 1_555 1_555
O12 Fe2 1_555 1_555
O16 Fe2 1_555 1_555
O9_2 C10_2 1_555 1_555
C10_2 O10_2 1_555 1_555
O10_2 Fe2_2 1_555 1_555
O12_2 Fe2_2 1_555 1_555
O16_2 Fe2_2 1_555 1_555
Fe1_2 O1_2 1_555 1_555
O1_2 C1_2 1_555 1_555
O2_2 C1_2 1_555 1_555
O3_2 Fe1_2 1_555 1_555
C1_2 C2_2 1_555 1_555
C2_2 C3_2 1_555 1_555
C3_2 O3_2 1_555 1_555
O4_2 C5_2 1_555 1_555
C5_2 O5_2 1_555 1_555
O5_2 Fe1_2 1_555 1_555
O8_2 C8_2 1_555 1_555
C8_2 C7_2 1_555 1_555
C9_2 C2_2 1_555 1_555
H2_2 C9_2 1_555 1_555
Fe5_2 O2_2 1_555 1_555
Fe8_2 O8_2 1_555 1_555
C8_2 C9_2 1_555 1_555
H1_2 C4_2 1_555 1_555
O6_2 C6_2 1_555 1_555
O7_2 C6_2 1_555 1_555
Fe8_2 O7_2 1_555 1_555
Fe8_2 O17_2 1_555 1_555
Fe3_2 O15_2 1_555 1_555
Fe3_3 O15_3 1_555 1_555
Fe1_3 O1_3 1_555 1_555
O1_3 C1_3 1_555 1_555
O2_3 C1_3 1_555 1_555
O3_3 Fe1_3 1_555 1_555
C1_3 C2_3 1_555 1_555
C2_3 C3_3 1_555 1_555
C3_3 O3_3 1_555 1_555
O4_3 C5_3 1_555 1_555
C5_3 O5_3 1_555 1_555
O5_3 Fe1_3 1_555 1_555
O8_3 C8_3 1_555 1_555
C8_3 C7_3 1_555 1_555
C9_3 C2_3 1_555 1_555
H2_3 C9_3 1_555 1_555
Fe5_3 O2_3 1_555 1_555
Fe8_3 O8_3 1_555 1_555
O8_3 Fe6_3 1_555 1_555
C8_3 C9_3 1_555 1_555
H1_3 C4_3 1_555 1_555
O6_3 C6_3 1_555 1_555
O7_3 C6_3 1_555 1_555
Fe2_3 O6_3 1_555 1_555
O9_3 C10_3 1_555 1_555
C10_3 O10_3 1_555 1_555
O10_3 Fe2_3 1_555 1_555
Fe8_3 O7_3 1_555 1_555
O12_3 Fe2_3 1_555 1_555
O16_3 Fe2_3 1_555 1_555
O17_3 Fe2_3 1_555 1_555
Fe8_3 O12_3 1_555 1_555
Fe8_3 O17_3 1_555 1_555
C3_4 O15_3 1_555 1_555
C4_4 C3_4 1_555 1_555
H1_4 C4_4 1_555 1_555
O4_4 C5_4 1_555 1_555
C5_4 O5_4 1_555 1_555
O5_4 Fe3_3 1_555 1_555
O6_4 C6_4 1_555 1_555
O14_2 C6_4 1_555 1_555
C6_4 C7_4 1_555 1_555
C7_4 C4_4 1_555 1_555
Fe6_2 O6_4 1_555 1_555
O9_4 C10_4 1_555 1_555
C10_4 O10_4 1_555 1_555
O10_4 Fe6_2 1_555 1_555
O13_4 Fe3_3 1_555 1_555
O14_4 Fe6_2 1_555 1_555
O15_4 Fe3_3 1_555 1_555
O1_4 C1_4 1_555 1_555
O13_3 C1_4 1_555 1_555
C1_4 C2_4 1_555 1_555
O17_2 C8_4 1_555 1_555
C9_4 C2_4 1_555 1_555
H2_4 C9_4 1_555 1_555
Fe5_3 O1_4 1_555 1_555
C8_4 C9_4 1_555 1_555
Fe3 O1_5 1_555 1_555
O1_5 C1_5 1_555 1_555
O13 C1_5 1_555 1_555
C1_5 C2_5 1_555 1_555
C2_5 C3_5 1_555 1_555
C3_5 O15 1_555 1_555
C4_5 C3_5 1_555 1_555
H1_5 C4_5 1_555 1_555
O4_5 C5_5 1_555 1_555
C5_5 O5_5 1_555 1_555
O5_5 Fe3 1_555 1_555
O6_5 C6_5 1_555 1_555
O14_3 C6_5 1_555 1_555
O17_3 C8_5 1_555 1_555
C6_5 C7_5 1_555 1_555
C7_5 C4_5 1_555 1_555
C8_5 C7_5 1_555 1_555
C9_5 C2_5 1_555 1_555
H2_5 C9_5 1_555 1_555
Fe6_3 O6_5 1_555 1_555
O9_5 C10_5 1_555 1_555
C10_5 O10_5 1_555 1_555
O10_5 Fe6_3 1_555 1_555
Fe5 O1_5 1_555 1_555
Fe8_3 O6_5 1_555 1_555
O13_5 Fe3 1_555 1_555
O14_5 Fe6_3 1_555 1_555
O15_5 Fe3 1_555 1_555
C8_5 C9_5 1_555 1_555
Fe5 O15_5 1_555 1_555
O1_6 C1_6 1_555 1_555
O13_2 C1_6 1_555 1_555
C1_6 C2_6 1_555 1_555
O17 C8_6 1_555 1_555
C9_6 C2_6 1_555 1_555
H2_6 C9_6 1_555 1_555
Fe5_2 O1_6 1_555 1_555
C8_6 C9_6 1_555 1_555
C3_6 O15_2 1_555 1_555
C4_6 C3_6 1_555 1_555
H1_6 C4_6 1_555 1_555
O4_6 C5_6 1_555 1_555
C5_6 O5_6 1_555 1_555
O5_6 Fe3_2 1_555 1_555
O6_6 C6_6 1_555 1_555
O14 C6_6 1_555 1_555
C6_6 C7_6 1_555 1_555
C7_6 C4_6 1_555 1_555
Fe6 O6_6 1_555 1_555
O9_6 C10_6 1_555 1_555
C10_6 O10_6 1_555 1_555
O10_6 Fe6 1_555 1_555
O13_6 Fe3_2 1_555 1_555
O14_6 Fe6 1_555 1_555
O15_6 Fe3_2 1_555 1_555
O4_7 C5_7 1_555 1_555
C5_7 O5_7 1_555 1_555
O5_7 Fe5_2 1_555 1_555
O11_2 C1_7 1_555 1_555
O13_6 C1_7 1_555 1_555
H2_7 C9_7 1_555 1_555
C2_7 C3_7 1_555 1_555
C3_7 O15_6 1_555 1_555
C4_7 C3_7 1_555 1_555
H1_7 C4_7 1_555 1_555
O12_3 C6_7 1_555 1_555
O14_5 C6_7 1_555 1_555
O16_3 C8_7 1_555 1_555
C6_7 C7_7 1_555 1_555
C7_7 C4_7 1_555 1_555
C8_7 C7_7 1_555 1_555
O9_7 C10_7 1_555 1_555
C10_7 O10_7 1_555 1_555
O10_7 Fe8_3 1_555 1_555
O9_8 C10_8 1_555 1_555
C10_8 O10_8 1_555 1_555
O10_8 Fe8 1_555 1_555
O11_3 C1_8 1_555 1_555
O13_4 C1_8 1_555 1_555
H2_8 C9_8 1_555 1_555
C2_8 C3_8 1_555 1_555
C3_8 O15_4 1_555 1_555
C4_8 C3_8 1_555 1_555
H1_8 C4_8 1_555 1_555
O12 C6_8 1_555 1_555
O14_6 C6_8 1_555 1_555
O16 C8_8 1_555 1_555
C6_8 C7_8 1_555 1_555
C7_8 C4_8 1_555 1_555
C8_8 C7_8 1_555 1_555
O4_8 C5_8 1_555 1_555
C5_8 O5_8 1_555 1_555
O5_8 Fe5_3 1_555 1_555
O11 C1_9 1_555 1_555
O13_5 C1_9 1_555 1_555
H2_9 C9_9 1_555 1_555
C2_9 C3_9 1_555 1_555
C3_9 O15_5 1_555 1_555
C4_9 C3_9 1_555 1_555
H1_9 C4_9 1_555 1_555
O4_9 C5_9 1_555 1_555
C5_9 O5_9 1_555 1_555
O5_9 Fe5 1_555 1_555
O12_2 C6_9 1_555 1_555
O14_4 C6_9 1_555 1_555
O16_2 C8_9 1_555 1_555
C6_9 C7_9 1_555 1_555
C7_9 C4_9 1_555 1_555
C8_9 C7_9 1_555 1_555
O9_9 C10_9 1_555 1_555
C10_9 O10_9 1_555 1_555
O10_9 Fe8_2 1_555 1_555

#END
