
###############################################################################
#
# This file contains modified crystal structure data generated from the
# MOF subset of the Cambridge Structural Database (CSD) v543 
# hosted by the Cambridge Crystallographic Data Centre (CCDC).
#
# This work is licensed under the Creative Commons
# Attribution-NonCommercial-ShareAlike 4.0 International License.
# To view a copy of this license, visit
# http://creativecommons.org/licenses/by-nc-sa/4.0/
# or send a letter to
# Creative Commons, PO Box 1866, Mountain View, CA 94042, USA.
#
# CIF created using the CSD Python API on 29 September 2022
# The structure has been converted into the P1 space group
# The structure has a 3D framework
# The original CSD entry COKQEA is in the rhombohedral crystal system
# The framework has been calculated to contain at least 10.0% void space
# The void calculation uses a probe of radius 1.32A, grid spacing 0.4
# The framework is charged, counterions have been retained in the structure
#
###############################################################################

data_COKQEA
_chemical_formula_moiety         '(C90 H18 Co15 O84 3+)n'
_symmetry_cell_setting           triclinic
_symmetry_space_group_name_H-M   'P 1'
_symmetry_Int_Tables_number      1
_space_group_name_Hall           'P 1'
loop_
_symmetry_equiv_pos_site_id
_symmetry_equiv_pos_as_xyz
1 x,y,z
_cell_length_a                   25.994(7)
_cell_length_b                   25.994(7)
_cell_length_c                   6.8127(18)
_cell_angle_alpha                90
_cell_angle_beta                 90
_cell_angle_gamma                120
_cell_volume                     3986.54
loop_
_atom_site_label
_atom_site_type_symbol
_atom_site_fract_x
_atom_site_fract_y
_atom_site_fract_z
O7 O 0.0300(4) 0.7039(5) 0.1363(9)
Co3 Co 0.03200(5) 0.64813(7) 0.35199(17)
O12 O 0.0593(2) 0.3098(3) 0.1691(8)
O15 O 0.0373(5) 0.3406(3) 0.5303(9)
O4 O 0.0073(3) 0.6367(4) 0.8030(9)
C3 C 0.0157(4) 0.5954(4) 0.7412(13)
C5 C 0.0057(4) 0.5465(4) 0.8806(13)
Co2 Co 0.01853(7) 0.71720(5) 0.68533(17)
O8 O 0.0332(3) 0.5951(4) 0.5683(9)
C7 C 0.0165(4) 0.5022(4) 0.8084(13)
C8 C 0.0110(4) 0.4555(4) 0.9240(12)
H2 H 0.0280 0.5041 0.6750
O9 O 0.0235(3) 0.4162(4) 0.8358(8)
Co5 Co 0.05053(5) 0.36533(5) 0.98134(17)
Co1 Co 0.94947(5) 0.63467(5) 0.01866(17)
O1 O 0.8953(3) 0.6335(3) 0.2350(9)
C2 C 0.9890(4) 0.5445(4) 0.0760(12)
C4 C 0.9835(4) 0.4978(4) 0.1916(13)
H1 H 0.9720 0.4959 0.3250
O6 O 0.9765(3) 0.5838(4) 0.1642(8)
C6 C 0.9943(4) 0.4535(4) 0.1194(13)
C9 C 0.9843(4) 0.4046(4) 0.2588(13)
O10 O 0.9927(3) 0.3633(4) 0.1970(9)
O11 O 0.9668(3) 0.4049(4) 0.4317(9)
Co7 Co 0.98147(7) 0.28280(5) 0.31467(17)
Co8 Co 0.96800(5) 0.35187(7) 0.64801(17)
O13 O 0.9840(6) 0.2043(5) 0.4470(17)
O14 O 0.9172(4) 0.2740(2) 0.5024(8)
O16 O 0.9285(4) 0.2286(3) 0.0983(9)
C10 C 0.9518(28) 0.1531(19) 0.439(8)
O17 O 0.9157(45) 0.103(3) 0.410(10)
O2 O 0.8710(5) 0.5537(4) 0.8863(17)
O3 O 0.9407(2) 0.6902(3) 0.8309(8)
C1 C 0.8198(19) 0.5347(21) 0.894(8)
O5 O 0.770(3) 0.5210(34) 0.923(10)
Co1_2 Co 0.36533(5) 0.31480(7) 0.01866(17)
O1_2 O 0.3665(3) 0.2618(4) 0.2350(9)
C2_2 C 0.4555(4) 0.4445(6) 0.0760(12)
C4_2 C 0.5022(4) 0.4857(6) 0.1916(13)
H1_2 H 0.5041 0.4761 0.3250
O6_2 O 0.4162(4) 0.3926(5) 0.1642(8)
O7_2 O 0.2961(5) 0.3260(6) 0.1363(9)
Co3_2 Co 0.35187(7) 0.38386(9) 0.35199(17)
C6_2 C 0.5465(4) 0.5408(6) 0.1194(13)
C9_2 C 0.5954(4) 0.5797(6) 0.2588(13)
O10_2 O 0.6367(4) 0.6294(5) 0.1970(9)
O11_2 O 0.5951(4) 0.5620(5) 0.4317(9)
Co7_2 Co 0.71720(5) 0.69866(9) 0.31467(17)
Co8_2 Co 0.64813(7) 0.61614(9) 0.64801(17)
O12_2 O 0.6902(3) 0.7495(4) 0.1691(8)
O13_2 O 0.7957(5) 0.7796(8) 0.4470(17)
O14_2 O 0.7260(2) 0.6431(4) 0.5024(8)
O15_2 O 0.6594(3) 0.6966(6) 0.5303(9)
O16_2 O 0.7714(3) 0.6998(5) 0.0983(9)
C10_2 C 0.8469(19) 0.7986(34) 0.439(8)
O17_2 O 0.897(3) 0.8123(54) 0.410(10)
O2_2 O 0.4463(4) 0.3173(6) 0.8863(17)
O3_2 O 0.3098(3) 0.2505(4) 0.8309(8)
O4_2 O 0.3633(4) 0.3706(5) 0.8030(9)
C1_2 C 0.4653(21) 0.2851(28) 0.894(8)
C3_2 C 0.4046(4) 0.4203(6) 0.7412(13)
O5_2 O 0.4790(34) 0.2490(45) 0.923(10)
C5_2 C 0.4535(4) 0.4592(6) 0.8806(13)
Co2_2 Co 0.28280(5) 0.30134(9) 0.68533(17)
O8_2 O 0.4049(4) 0.4380(5) 0.5683(9)
C7_2 C 0.4978(4) 0.5143(6) 0.8084(13)
C8_2 C 0.5445(4) 0.5555(6) 0.9240(12)
H2_2 H 0.4959 0.5239 0.6750
O9_2 O 0.5838(4) 0.6074(5) 0.8358(8)
Co5_2 Co 0.63467(5) 0.68520(7) 0.98134(17)
Co1_3 Co 0.68520(7) 0.05053(5) 0.01866(17)
O1_3 O 0.7382(4) 0.1047(3) 0.2350(9)
C2_3 C 0.5555(6) 0.0110(4) 0.0760(12)
C4_3 C 0.5143(6) 0.0165(4) 0.1916(13)
H1_3 H 0.5239 0.0280 0.3250
O6_3 O 0.6074(5) 0.0235(3) 0.1642(8)
C6_3 C 0.4592(6) 0.0057(4) 0.1194(13)
C9_3 C 0.4203(6) 0.0157(4) 0.2588(13)
O10_3 O 0.3706(5) 0.0073(3) 0.1970(9)
O11_3 O 0.4380(5) 0.0332(3) 0.4317(9)
Co7_3 Co 0.30134(9) 0.01853(7) 0.31467(17)
Co8_3 Co 0.38386(9) 0.03200(5) 0.64801(17)
O13_3 O 0.2204(8) 0.0160(6) 0.4470(17)
O14_3 O 0.3569(4) 0.0828(4) 0.5024(8)
O16_3 O 0.3002(5) 0.0715(4) 0.0983(9)
C10_3 C 0.2014(34) 0.0482(28) 0.439(8)
O17_3 O 0.1877(54) 0.0843(45) 0.410(10)
O2_3 O 0.6827(6) 0.1290(5) 0.8863(17)
O3_3 O 0.7495(4) 0.0593(2) 0.8309(8)
C1_3 C 0.7149(28) 0.1802(19) 0.894(8)
O5_3 O 0.7510(45) 0.230(3) 0.923(10)
O7_3 O 0.6740(6) 0.9700(4) 0.1363(9)
Co3_3 Co 0.61614(9) 0.96800(5) 0.35199(17)
O12_3 O 0.2505(4) 0.9407(2) 0.1691(8)
O15_3 O 0.3034(6) 0.9627(5) 0.5303(9)
O4_3 O 0.6294(5) 0.9927(3) 0.8030(9)
C3_3 C 0.5797(6) 0.9843(4) 0.7412(13)
C5_3 C 0.5408(6) 0.9943(4) 0.8806(13)
Co2_3 Co 0.69866(9) 0.98147(7) 0.68533(17)
O8_3 O 0.5620(5) 0.9668(3) 0.5683(9)
C7_3 C 0.4857(6) 0.9835(4) 0.8084(13)
C8_3 C 0.4445(6) 0.9890(4) 0.9240(12)
H2_3 H 0.4761 0.9720 0.6750
O9_3 O 0.3926(5) 0.9765(3) 0.8358(8)
Co5_3 Co 0.31480(7) 0.94947(5) 0.98134(17)
O7_4 O 0.6966(4) 0.0373(5) 0.4697(9)
O2_4 O 0.5377(5) 0.8870(4) 0.2196(17)
C1_4 C 0.4865(19) 0.8680(21) 0.227(8)
C2_4 C 0.6557(4) 0.8778(4) 0.4093(12)
C3_4 C 0.6824(4) 0.9287(4) 0.0745(13)
O5_4 O 0.437(3) 0.8543(34) 0.256(10)
C4_4 C 0.6502(4) 0.8311(4) 0.5249(13)
C5_4 C 0.6724(4) 0.8798(4) 0.2139(13)
H1_4 H 0.6387 0.8292 0.6583
O6_4 O 0.6431(3) 0.9172(4) 0.4976(8)
C6_4 C 0.6610(4) 0.7868(4) 0.4527(13)
C7_4 C 0.6832(4) 0.8355(4) 0.1417(13)
C8_4 C 0.6777(4) 0.7888(4) 0.2573(12)
C9_4 C 0.6510(4) 0.7379(4) 0.5921(13)
H2_4 H 0.6947 0.8374 0.0083
O11_4 O 0.6335(3) 0.7382(4) 0.7650(9)
O13_4 O 0.6506(6) 0.5377(5) 0.7804(17)
O15_4 O 0.7039(5) 0.6740(3) 0.8637(9)
C10_4 C 0.6184(28) 0.4865(19) 0.773(8)
O17_4 O 0.5823(45) 0.437(3) 0.744(10)
O8_4 O 0.6998(3) 0.9285(4) 0.9017(9)
O13_5 O 0.4623(5) 0.1130(8) 0.7804(17)
O15_5 O 0.3260(3) 0.0300(6) 0.8637(9)
C10_5 C 0.5135(19) 0.1320(34) 0.773(8)
O17_5 O 0.563(3) 0.1457(54) 0.744(10)
O2_5 O 0.1130(4) 0.6506(6) 0.2196(17)
C1_5 C 0.1320(21) 0.6184(28) 0.227(8)
C2_5 C 0.1222(4) 0.7778(6) 0.4093(12)
C3_5 C 0.0713(4) 0.7536(6) 0.0745(13)
O5_5 O 0.1457(34) 0.5823(45) 0.256(10)
C4_5 C 0.1689(4) 0.8190(6) 0.5249(13)
C5_5 C 0.1202(4) 0.7925(6) 0.2139(13)
H1_5 H 0.1708 0.8094 0.6583
O6_5 O 0.0828(4) 0.7260(5) 0.4976(8)
C6_5 C 0.2132(4) 0.8741(6) 0.4527(13)
C7_5 C 0.1645(4) 0.8476(6) 0.1417(13)
C8_5 C 0.2112(4) 0.8888(6) 0.2573(12)
C9_5 C 0.2621(4) 0.9130(6) 0.5921(13)
H2_5 H 0.1626 0.8572 0.0083
O11_5 O 0.2618(4) 0.8953(5) 0.7650(9)
O8_5 O 0.0715(4) 0.7714(5) 0.9017(9)
O7_5 O 0.9627(5) 0.6594(6) 0.4697(9)
O2_6 O 0.3494(6) 0.4623(5) 0.2196(17)
C1_6 C 0.3816(28) 0.5135(19) 0.227(8)
C2_6 C 0.2222(6) 0.3443(4) 0.4093(12)
C3_6 C 0.2464(6) 0.3176(4) 0.0745(13)
O5_6 O 0.4177(45) 0.563(3) 0.256(10)
C4_6 C 0.1810(6) 0.3498(4) 0.5249(13)
C5_6 C 0.2075(6) 0.3276(4) 0.2139(13)
H1_6 H 0.1906 0.3613 0.6583
O6_6 O 0.2740(5) 0.3569(3) 0.4976(8)
O7_6 O 0.3406(6) 0.3034(4) 0.4697(9)
C6_6 C 0.1259(6) 0.3390(4) 0.4527(13)
C7_6 C 0.1524(6) 0.3168(4) 0.1417(13)
C8_6 C 0.1112(6) 0.3223(4) 0.2573(12)
C9_6 C 0.0870(6) 0.3490(4) 0.5921(13)
H2_6 H 0.1428 0.3053 0.0083
O11_6 O 0.1047(5) 0.3665(3) 0.7650(9)
O8_6 O 0.2286(5) 0.3002(3) 0.9017(9)
O13_6 O 0.8870(8) 0.3494(6) 0.7804(17)
O15_6 O 0.9700(6) 0.2961(5) 0.8637(9)
C10_6 C 0.8680(34) 0.3816(28) 0.773(8)
O17_6 O 0.8543(54) 0.4177(45) 0.744(10)
O2_7 O 0.2043(5) 0.2204(4) 0.5530(17)
C1_7 C 0.1531(19) 0.2014(21) 0.561(8)
C2_7 C 0.3223(4) 0.2112(4) 0.7427(12)
C3_7 C 0.3490(4) 0.2621(4) 0.4079(13)
O5_7 O 0.103(3) 0.1877(34) 0.590(10)
C4_7 C 0.3168(4) 0.1645(4) 0.8583(13)
C5_7 C 0.3390(4) 0.2132(4) 0.5473(13)
H1_7 H 0.3053 0.1626 0.9917
C6_7 C 0.3276(4) 0.1202(4) 0.7861(13)
C7_7 C 0.3498(4) 0.1689(4) 0.4751(13)
C8_7 C 0.3443(4) 0.1222(4) 0.5907(12)
C9_7 C 0.3176(4) 0.0713(4) 0.9255(13)
H2_7 H 0.3613 0.1708 0.3417
O13_7 O 0.3173(6) 0.8710(5) 0.1137(17)
C10_7 C 0.2851(28) 0.8198(19) 0.106(8)
O17_7 O 0.2490(45) 0.770(3) 0.077(10)
O13_8 O 0.1290(5) 0.4463(8) 0.1137(17)
C10_8 C 0.1802(19) 0.4653(34) 0.106(8)
O17_8 O 0.230(3) 0.4790(54) 0.077(10)
C2_8 C 0.7888(4) 0.1112(6) 0.7427(12)
C3_8 C 0.7379(4) 0.0870(6) 0.4079(13)
C4_8 C 0.8355(4) 0.1524(6) 0.8583(13)
C5_8 C 0.7868(4) 0.1259(6) 0.5473(13)
H1_8 H 0.8374 0.1428 0.9917
C6_8 C 0.8798(4) 0.2075(6) 0.7861(13)
C7_8 C 0.8311(4) 0.1810(6) 0.4751(13)
C8_8 C 0.8778(4) 0.2222(6) 0.5907(12)
C9_8 C 0.9287(4) 0.2464(6) 0.9255(13)
H2_8 H 0.8292 0.1906 0.3417
O2_8 O 0.7796(4) 0.9840(6) 0.5530(17)
C1_8 C 0.7986(21) 0.9518(28) 0.561(8)
O5_8 O 0.8123(34) 0.9157(45) 0.590(10)
O2_9 O 0.0160(6) 0.7957(5) 0.5530(17)
C1_9 C 0.0482(28) 0.8469(19) 0.561(8)
O5_9 O 0.0843(45) 0.897(3) 0.590(10)
O13_9 O 0.5537(8) 0.6827(6) 0.1137(17)
C10_9 C 0.5347(34) 0.7149(28) 0.106(8)
O17_9 O 0.5210(54) 0.7510(45) 0.077(10)
C2_9 C 0.8888(6) 0.6777(4) 0.7427(12)
C3_9 C 0.9130(6) 0.6510(4) 0.4079(13)
C4_9 C 0.8476(6) 0.6832(4) 0.8583(13)
C5_9 C 0.8741(6) 0.6610(4) 0.5473(13)
H1_9 H 0.8572 0.6947 0.9917
C6_9 C 0.7925(6) 0.6724(4) 0.7861(13)
C7_9 C 0.8190(6) 0.6502(4) 0.4751(13)
C8_9 C 0.7778(6) 0.6557(4) 0.5907(12)
C9_9 C 0.7536(6) 0.6824(4) 0.9255(13)
H2_9 H 0.8094 0.6387 0.3417
loop_
_geom_bond_atom_site_label_1
_geom_bond_atom_site_label_2
_geom_bond_site_symmetry_1
_geom_bond_site_symmetry_2
O7 Co3 1_555 1_555
C3 O4 1_555 1_555
O8 C3 1_555 1_555
C7 C5 1_555 1_555
Co3 O8 1_555 1_555
H2 C7 1_555 1_555
O9 C8 1_555 1_555
Co5 O9 1_555 1_555
O4 Co2 1_555 1_555
C3 C5 1_555 1_555
C7 C8 1_555 1_555
Co1 O1 1_555 1_555
C2 C4 1_555 1_555
C4 H1 1_555 1_555
O6 Co1 1_555 1_555
C6 C4 1_555 1_555
C9 C6 1_555 1_555
O10 C9 1_555 1_555
O11 C9 1_555 1_555
Co7 O10 1_555 1_555
Co8 O11 1_555 1_555
O13 Co7 1_555 1_555
O14 Co7 1_555 1_555
O16 Co7 1_555 1_555
C10 O13 1_555 1_555
O17 C10 1_555 1_555
C2 O6 1_555 1_555
Co8 O14 1_555 1_555
C1 O2 1_555 1_555
O5 C1 1_555 1_555
Co1_2 O1_2 1_555 1_555
C2_2 C4_2 1_555 1_555
C4_2 H1_2 1_555 1_555
O6_2 Co1_2 1_555 1_555
O7_2 Co1_2 1_555 1_555
Co3_2 O6_2 1_555 1_555
C6_2 C4_2 1_555 1_555
C9_2 C6_2 1_555 1_555
O10_2 C9_2 1_555 1_555
O11_2 C9_2 1_555 1_555
Co7_2 O10_2 1_555 1_555
Co8_2 O11_2 1_555 1_555
O13_2 Co7_2 1_555 1_555
O14_2 Co7_2 1_555 1_555
O15_2 Co7_2 1_555 1_555
O16_2 Co7_2 1_555 1_555
C10_2 O13_2 1_555 1_555
O17_2 C10_2 1_555 1_555
C2_2 O6_2 1_555 1_555
O7_2 Co3_2 1_555 1_555
Co7_2 O12_2 1_555 1_555
Co8_2 O14_2 1_555 1_555
Co8_2 O15_2 1_555 1_555
C1_2 O2_2 1_555 1_555
C3_2 O4_2 1_555 1_555
O5_2 C1_2 1_555 1_555
Co2_2 O3_2 1_555 1_555
O8_2 C3_2 1_555 1_555
C7_2 C5_2 1_555 1_555
Co3_2 O8_2 1_555 1_555
H2_2 C7_2 1_555 1_555
O9_2 C8_2 1_555 1_555
Co5_2 O9_2 1_555 1_555
Co8_2 O9_2 1_555 1_555
O4_2 Co2_2 1_555 1_555
C3_2 C5_2 1_555 1_555
C7_2 C8_2 1_555 1_555
Co1_3 O1_3 1_555 1_555
C2_3 C4_3 1_555 1_555
C4_3 H1_3 1_555 1_555
O6_3 Co1_3 1_555 1_555
C6_3 C4_3 1_555 1_555
C9_3 C6_3 1_555 1_555
O10_3 C9_3 1_555 1_555
O11_3 C9_3 1_555 1_555
Co7_3 O10_3 1_555 1_555
Co8_3 O11_3 1_555 1_555
O13_3 Co7_3 1_555 1_555
O14_3 Co7_3 1_555 1_555
O16_3 Co7_3 1_555 1_555
C10_3 O13_3 1_555 1_555
O17_3 C10_3 1_555 1_555
C2_3 O6_3 1_555 1_555
Co8_3 O14_3 1_555 1_555
C1_3 O2_3 1_555 1_555
O5_3 C1_3 1_555 1_555
O7_3 Co3_3 1_555 1_555
C3_3 O4_3 1_555 1_555
O8_3 C3_3 1_555 1_555
C7_3 C5_3 1_555 1_555
Co3_3 O8_3 1_555 1_555
H2_3 C7_3 1_555 1_555
O9_3 C8_3 1_555 1_555
Co5_3 O9_3 1_555 1_555
O4_3 Co2_3 1_555 1_555
C3_3 C5_3 1_555 1_555
C7_3 C8_3 1_555 1_555
O2_4 Co3_3 1_555 1_555
C1_4 O2_4 1_555 1_555
C2_4 C4_4 1_555 1_555
C3_4 O7_3 1_555 1_555
O5_4 C1_4 1_555 1_555
C4_4 H1_4 1_555 1_555
C5_4 C2_4 1_555 1_555
O6_4 Co3_3 1_555 1_555
Co2_3 O6_4 1_555 1_555
C6_4 C4_4 1_555 1_555
C7_4 C5_4 1_555 1_555
C8_4 C6_4 1_555 1_555
C9_4 C6_4 1_555 1_555
H2_4 C7_4 1_555 1_555
O12_2 C8_4 1_555 1_555
O15_2 C9_4 1_555 1_555
O11_4 C9_4 1_555 1_555
Co5_2 O11_4 1_555 1_555
O13_4 Co8_2 1_555 1_555
O15_4 Co8_2 1_555 1_555
C10_4 O13_4 1_555 1_555
O17_4 C10_4 1_555 1_555
C2_4 O6_4 1_555 1_555
C3_4 C5_4 1_555 1_555
C7_4 C8_4 1_555 1_555
Co5_2 O15_4 1_555 1_555
Co2_3 O8_4 1_555 1_555
O13_5 Co8_3 1_555 1_555
O15_5 Co8_3 1_555 1_555
C10_5 O13_5 1_555 1_555
O17_5 C10_5 1_555 1_555
O2_5 Co3 1_555 1_555
C1_5 O2_5 1_555 1_555
C2_5 C4_5 1_555 1_555
C3_5 O7 1_555 1_555
O5_5 C1_5 1_555 1_555
C4_5 H1_5 1_555 1_555
C5_5 C2_5 1_555 1_555
O6_5 Co3 1_555 1_555
Co2 O6_5 1_555 1_555
C6_5 C4_5 1_555 1_555
C7_5 C5_5 1_555 1_555
C8_5 C6_5 1_555 1_555
C9_5 C6_5 1_555 1_555
H2_5 C7_5 1_555 1_555
O12_3 C8_5 1_555 1_555
O15_3 C9_5 1_555 1_555
O11_5 C9_5 1_555 1_555
Co5_3 O11_5 1_555 1_555
C2_5 O6_5 1_555 1_555
C3_5 C5_5 1_555 1_555
C7_5 C8_5 1_555 1_555
Co2 O8_5 1_555 1_555
O2_6 Co3_2 1_555 1_555
C1_6 O2_6 1_555 1_555
C2_6 C4_6 1_555 1_555
C3_6 O7_2 1_555 1_555
O5_6 C1_6 1_555 1_555
C4_6 H1_6 1_555 1_555
C5_6 C2_6 1_555 1_555
O6_6 Co3_2 1_555 1_555
O7_6 Co3_2 1_555 1_555
Co2_2 O6_6 1_555 1_555
C6_6 C4_6 1_555 1_555
C7_6 C5_6 1_555 1_555
C8_6 C6_6 1_555 1_555
C9_6 C6_6 1_555 1_555
H2_6 C7_6 1_555 1_555
O12 C8_6 1_555 1_555
O15 C9_6 1_555 1_555
O11_6 C9_6 1_555 1_555
Co5 O11_6 1_555 1_555
C2_6 O6_6 1_555 1_555
C3_6 C5_6 1_555 1_555
O7_6 Co2_2 1_555 1_555
C7_6 C8_6 1_555 1_555
Co2_2 O8_6 1_555 1_555
O13_6 Co8 1_555 1_555
O15_6 Co8 1_555 1_555
C10_6 O13_6 1_555 1_555
O17_6 C10_6 1_555 1_555
O2_7 Co2_2 1_555 1_555
C1_7 O2_7 1_555 1_555
C2_7 C4_7 1_555 1_555
C3_7 O7_6 1_555 1_555
O5_7 C1_7 1_555 1_555
C4_7 H1_7 1_555 1_555
C5_7 C2_7 1_555 1_555
O1_2 C3_7 1_555 1_555
C6_7 C4_7 1_555 1_555
C7_7 C5_7 1_555 1_555
C8_7 C6_7 1_555 1_555
C9_7 C6_7 1_555 1_555
H2_7 C7_7 1_555 1_555
O14_3 C8_7 1_555 1_555
O15_5 C9_7 1_555 1_555
C2_7 O3_2 1_555 1_555
C3_7 C5_7 1_555 1_555
C7_7 C8_7 1_555 1_555
C10_7 O13_7 1_555 1_555
O17_7 C10_7 1_555 1_555
C10_8 O13_8 1_555 1_555
O17_8 C10_8 1_555 1_555
C2_8 C4_8 1_555 1_555
C3_8 O7_4 1_555 1_555
C4_8 H1_8 1_555 1_555
C5_8 C2_8 1_555 1_555
O1_3 C3_8 1_555 1_555
C6_8 C4_8 1_555 1_555
C7_8 C5_8 1_555 1_555
C8_8 C6_8 1_555 1_555
C9_8 C6_8 1_555 1_555
H2_8 C7_8 1_555 1_555
O14 C8_8 1_555 1_555
O15_6 C9_8 1_555 1_555
C2_8 O3_3 1_555 1_555
C3_8 C5_8 1_555 1_555
C7_8 C8_8 1_555 1_555
O2_8 Co2_3 1_555 1_555
C1_8 O2_8 1_555 1_555
O5_8 C1_8 1_555 1_555
O2_9 Co2 1_555 1_555
C1_9 O2_9 1_555 1_555
O5_9 C1_9 1_555 1_555
C10_9 O13_9 1_555 1_555
O17_9 C10_9 1_555 1_555
C2_9 C4_9 1_555 1_555
C3_9 O7_5 1_555 1_555
C4_9 H1_9 1_555 1_555
C5_9 C2_9 1_555 1_555
O1 C3_9 1_555 1_555
C6_9 C4_9 1_555 1_555
C7_9 C5_9 1_555 1_555
C8_9 C6_9 1_555 1_555
C9_9 C6_9 1_555 1_555
H2_9 C7_9 1_555 1_555
O14_2 C8_9 1_555 1_555
O15_4 C9_9 1_555 1_555
C2_9 O3 1_555 1_555
C3_9 C5_9 1_555 1_555
C7_9 C8_9 1_555 1_555

#END
