
###############################################################################
#
# This file contains modified crystal structure data generated from the
# MOF subset of the Cambridge Structural Database (CSD) v543 
# hosted by the Cambridge Crystallographic Data Centre (CCDC).
#
# This work is licensed under the Creative Commons
# Attribution-NonCommercial-ShareAlike 4.0 International License.
# To view a copy of this license, visit
# http://creativecommons.org/licenses/by-nc-sa/4.0/
# or send a letter to
# Creative Commons, PO Box 1866, Mountain View, CA 94042, USA.
#
# CIF created using the CSD Python API on 29 September 2022
# The structure has been converted into the P1 space group
# The structure has a 3D framework
# The original CSD entry COKRUR is in the monoclinic crystal system
# The framework has been calculated to contain at least 10.0% void space
# The void calculation uses a probe of radius 1.32A, grid spacing 0.4
# H atom positions have been added when not included in the experimental data
#
###############################################################################

data_COKRUR
_chemical_formula_moiety         '(C1152 H704 In30 N64 O150)n'
_symmetry_cell_setting           triclinic
_symmetry_space_group_name_H-M   'P 1'
_symmetry_Int_Tables_number      1
_space_group_name_Hall           'P 1'
loop_
_symmetry_equiv_pos_site_id
_symmetry_equiv_pos_as_xyz
1 x,y,z
_cell_length_a                   41.982(2)
_cell_length_b                   21.5588(12)
_cell_length_c                   43.755(2)
_cell_angle_alpha                90
_cell_angle_beta                 92.6350(10)
_cell_angle_gamma                90
_cell_volume                     39560
loop_
_atom_site_label
_atom_site_type_symbol
_atom_site_fract_x
_atom_site_fract_y
_atom_site_fract_z
In1 In 0.70749(3) 0.05183(5) 0.50499(2)
O3 O 0.6679(2) 0.0656(5) 0.4661(2)
C11 C 0.6235(2) 0.0108(3) 0.4218(2)
H4 H 0.6233 0.0548 0.4233
H5 H 0.5880 0.0045 0.3886
C29 C 0.6667(3) 0.0112(6) 0.4638(3)
O11 O 0.7470(3) 0.0656(5) 0.5442(3)
O12 O 0.6713(3) 0.0465(6) 0.5397(2)
O13 O 0.7461(3) 0.0448(6) 0.4733(3)
O14 O 0.6810(3) 0.1422(5) 0.5260(3)
O15 O 0.7311(3) 0.1333(6) 0.4796(3)
In2 In 0.46020(3) 0.74095(8) 0.25595(3)
O1 O 0.2470(3) 0.4344(5) 0.0442(3)
O2 O 0.6713(3) 0.9535(6) 0.0397(2)
N1 N 0.4625(3) 0.7304(5) 0.2095(2)
N2 N 0.4600(3) 0.7539(5) 0.3031(3)
C1 C 0.6657(4) 0.8947(8) 0.0396(3)
N3 N 0.4144(2) 0.7064(4) 0.2558(2)
O4 O 0.2461(3) 0.5448(6) 0.4733(3)
O5 O 0.6810(3) 0.8578(5) 0.0260(3)
C2 C 0.5238(4) 0.7854(7) 0.2290(3)
C3 C 0.2490(4) 0.5992(9) 0.4693(3)
C4 C 0.5504(4) 0.8227(9) 0.2395(3)
H1 H 0.5651 0.8416 0.2265
C5 C 0.3968(3) 0.6842(6) 0.2314(3)
C6 C 0.4857(3) 0.7445(6) 0.1903(3)
C7 C 0.4044(3) 0.6853(6) 0.2006(3)
C8 C 0.6241(2) 0.8822(3) 0.4173(2)
H2 H 0.6243 0.8383 0.4158
C9 C 0.64508(19) 0.9121(4) 0.43798(18)
H3 H 0.6596 0.8886 0.4506
C10 C 0.64477(19) 0.9764(4) 0.44021(17)
C12 C 0.6025(2) 0.9810(5) 0.40115(18)
C13 C 0.6028(2) 0.9167(5) 0.39892(18)
C14 C 0.4351(3) 0.7059(8) 0.1906(3)
C15 C 0.3820(2) 0.6588(4) 0.17723(18)
C16 C 0.3526(2) 0.6866(3) 0.1706(2)
H6 H 0.3470 0.7238 0.1807
C17 C 0.33130(18) 0.6600(4) 0.1491(2)
H7 H 0.3112 0.6790 0.1446
C18 C 0.3394(2) 0.6057(4) 0.13428(19)
C19 C 0.3688(2) 0.5778(4) 0.1409(2)
H8 H 0.3743 0.5407 0.1308
C20 C 0.39005(18) 0.6044(5) 0.1624(2)
H9 H 0.4101 0.5854 0.1669
C21 C 0.3158(2) 0.5761(5) 0.1112(2)
C22 C 0.2950(2) 0.6138(4) 0.0939(2)
H10 H 0.2959 0.6576 0.0963
C23 C 0.2729(2) 0.5875(5) 0.0732(2)
H11 H 0.2587 0.6132 0.0613
C24 C 0.2716(2) 0.5234(5) 0.0697(2)
C25 C 0.2923(3) 0.4857(4) 0.0869(2)
H12 H 0.2914 0.4419 0.0846
C26 C 0.3145(2) 0.5120(5) 0.1077(2)
H13 H 0.3287 0.4863 0.1195
O6 O 0.6845(2) 0.9756(4) 0.4811(2)
O7 O 0.2311(3) 0.6333(6) 0.4796(3)
N4 N 0.5059(3) 0.7725(6) 0.2566(3)
C27 C 0.3667(3) 0.6677(6) 0.2720(3)
H14 H 0.3502 0.6560 0.2850
C28 C 0.4837(4) 0.7838(7) 0.3196(3)
C30 C 0.3664(3) 0.6605(6) 0.2411(3)
H15 H 0.3497 0.6433 0.2284
C31 C 0.4746(3) 0.7772(7) 0.3517(3)
H16 H 0.4871 0.7906 0.3691
C32 C 0.5132(3) 0.7717(7) 0.2002(3)
C33 C 0.4363(3) 0.7367(6) 0.3221(3)
C34 C 0.3819(3) 0.6977(6) 0.3342(2)
C35 C 0.3557(3) 0.7347(5) 0.3400(3)
H17 H 0.3516 0.7710 0.3282
C36 C 0.3356(2) 0.7185(6) 0.3631(3)
H18 H 0.3177 0.7438 0.3670
C37 C 0.3416(2) 0.6654(6) 0.3804(2)
C38 C 0.3678(3) 0.6284(5) 0.3746(3)
H19 H 0.3719 0.5921 0.3864
C39 C 0.3879(2) 0.6445(6) 0.3515(3)
H20 H 0.4058 0.6192 0.3475
C40 C 0.4076(3) 0.7114(6) 0.3111(3)
C41 C 0.5216(4) 0.7972(8) 0.2788(3)
C42 C 0.5763(3) 0.8238(6) 0.1305(2)
C43 C 0.5506(3) 0.8619(5) 0.1367(3)
H21 H 0.5472 0.8993 0.1256
C44 C 0.5300(2) 0.8452(5) 0.1592(3)
H22 H 0.5124 0.8712 0.1634
C45 C 0.5349(2) 0.7904(5) 0.1755(2)
C46 C 0.5605(3) 0.7523(4) 0.1693(2)
H23 H 0.5639 0.7149 0.1804
C47 C 0.5812(2) 0.7691(5) 0.1468(3)
H24 H 0.5987 0.7430 0.1425
C48 C 0.5517(4) 0.8272(8) 0.2713(3)
H25 H 0.5677 0.8450 0.2846
C49 C 0.3973(3) 0.6972(5) 0.2818(3)
C50 C 0.4454(3) 0.7093(7) 0.1593(3)
H26 H 0.4334 0.6959 0.1416
C51 C 0.4453(3) 0.7490(7) 0.3527(3)
H27 H 0.4337 0.7398 0.3703
C52 C 0.5793(2) 0.8831(5) 0.37647(19)
C53 C 0.5494(2) 0.9090(4) 0.3704(2)
H28 H 0.5435 0.9460 0.3805
C54 C 0.52809(17) 0.8810(4) 0.3494(2)
H29 H 0.5076 0.8987 0.3453
C55 C 0.5367(2) 0.8269(4) 0.33456(18)
C56 C 0.5666(2) 0.8010(4) 0.3407(2)
H30 H 0.5725 0.7641 0.3305
C57 C 0.58795(17) 0.8291(5) 0.3616(2)
H31 H 0.6084 0.8113 0.3658
C58 C 0.5147(3) 0.7975(6) 0.3105(3)
C59 C 0.6272(3) 0.9199(4) 0.0806(2)
H32 H 0.6307 0.9628 0.0770
C60 C 0.6438(2) 0.8756(6) 0.0648(2)
C61 C 0.6387(3) 0.8129(5) 0.0701(2)
H33 H 0.6501 0.7826 0.0592
C62 C 0.6169(3) 0.7945(4) 0.0912(3)
H34 H 0.6134 0.7517 0.0948
C63 C 0.6002(3) 0.8389(6) 0.1071(3)
C64 C 0.6053(3) 0.9016(5) 0.1018(2)
H35 H 0.5939 0.9319 0.1126
C65 C 0.2975(3) 0.6970(4) 0.4165(2)
H36 H 0.2985 0.7385 0.4095
C66 C 0.3175(2) 0.6522(5) 0.4050(2)
C67 C 0.3160(2) 0.5913(5) 0.4153(2)
H37 H 0.3297 0.5607 0.4075
C68 C 0.2944(2) 0.5752(4) 0.4371(2)
H38 H 0.2934 0.5336 0.4442
C69 C 0.2744(2) 0.6200(5) 0.4486(2)
C70 C 0.2759(2) 0.6809(4) 0.4383(2)
H39 H 0.2622 0.7115 0.4462
C71 C 0.4741(3) 0.7340(6) 0.1597(3)
H40 H 0.4854 0.7434 0.1420
C72 C 0.2476(3) 0.4946(7) 0.0477(3)
O8 O 0.2297(2) 0.5306(5) 0.0323(2)
O9 O 0.4424(3) 0.8574(5) 0.2462(3)
O10 O 0.4792(3) 0.6300(5) 0.2689(2)
In3 In 0.70749(3) 0.94817(5) 0.00499(2)
In4 In 0.20749(3) 0.55183(5) 0.50499(2)
In5 In 0.20749(3) 0.44817(5) 0.00499(2)
O16 O 0.7297(2) 0.9694(5) 0.5323(2)
H169 H 0.422272 0.858166 0.233365
H170 H 0.438945 0.877952 0.266086
H171 H 0.500798 0.62353 0.261114
H172 H 0.479986 0.624088 0.291429
O16_2 O 0.7297(2) 0.0306(5) 0.0323(2)
In2_2 In 0.46020(3) 0.25905(8) 0.75595(3)
O1_2 O 0.2470(3) 0.5656(5) 0.5442(3)
N1_2 N 0.4625(3) 0.2696(5) 0.7095(2)
N2_2 N 0.4600(3) 0.2461(5) 0.8031(3)
C1_2 C 0.6657(4) 0.1053(8) 0.5396(3)
N3_2 N 0.4144(2) 0.2936(4) 0.7558(2)
O4_2 O 0.2461(3) 0.4552(6) 0.9733(3)
C2_2 C 0.5238(4) 0.2146(7) 0.7290(3)
C3_2 C 0.2490(4) 0.4008(9) 0.9693(3)
C4_2 C 0.5504(4) 0.1773(9) 0.7395(3)
H1_2 H 0.5651 0.1584 0.7265
C5_2 C 0.3968(3) 0.3158(6) 0.7314(3)
C6_2 C 0.4857(3) 0.2555(6) 0.6903(3)
C7_2 C 0.4044(3) 0.3147(6) 0.7006(3)
C8_2 C 0.6241(2) 0.1178(3) 0.9173(2)
H2_2 H 0.6243 0.1617 0.9158
C9_2 C 0.64508(19) 0.0879(4) 0.93798(18)
H3_2 H 0.6596 0.1114 0.9506
C10_2 C 0.64477(19) 0.0236(4) 0.94021(17)
C12_2 C 0.6025(2) 0.0190(5) 0.90115(18)
C13_2 C 0.6028(2) 0.0833(5) 0.89892(18)
C14_2 C 0.4351(3) 0.2941(8) 0.6906(3)
C15_2 C 0.3820(2) 0.3412(4) 0.67723(18)
C16_2 C 0.3526(2) 0.3134(3) 0.6706(2)
H6_2 H 0.3470 0.2762 0.6807
C17_2 C 0.33130(18) 0.3400(4) 0.6491(2)
H7_2 H 0.3112 0.3210 0.6446
C18_2 C 0.3394(2) 0.3943(4) 0.63428(19)
C19_2 C 0.3688(2) 0.4222(4) 0.6409(2)
H8_2 H 0.3743 0.4593 0.6308
C20_2 C 0.39005(18) 0.3956(5) 0.6624(2)
H9_2 H 0.4101 0.4146 0.6669
C21_2 C 0.3158(2) 0.4239(5) 0.6112(2)
C22_2 C 0.2950(2) 0.3862(4) 0.5939(2)
H10_2 H 0.2959 0.3424 0.5963
C23_2 C 0.2729(2) 0.4125(5) 0.5732(2)
H11_2 H 0.2587 0.3868 0.5613
C24_2 C 0.2716(2) 0.4766(5) 0.5697(2)
C25_2 C 0.2923(3) 0.5143(4) 0.5869(2)
H12_2 H 0.2914 0.5581 0.5846
C26_2 C 0.3145(2) 0.4880(5) 0.6077(2)
H13_2 H 0.3287 0.5137 0.6195
O6_2 O 0.6845(2) 0.0244(4) 0.9811(2)
O7_2 O 0.2311(3) 0.3667(6) 0.9796(3)
N4_2 N 0.5059(3) 0.2275(6) 0.7566(3)
C27_2 C 0.3667(3) 0.3323(6) 0.7720(3)
H14_2 H 0.3502 0.3440 0.7850
C28_2 C 0.4837(4) 0.2162(7) 0.8196(3)
C30_2 C 0.3664(3) 0.3395(6) 0.7411(3)
H15_2 H 0.3497 0.3567 0.7284
C31_2 C 0.4746(3) 0.2228(7) 0.8517(3)
H16_2 H 0.4871 0.2094 0.8691
C32_2 C 0.5132(3) 0.2283(7) 0.7002(3)
C33_2 C 0.4363(3) 0.2633(6) 0.8221(3)
C34_2 C 0.3819(3) 0.3023(6) 0.8342(2)
C35_2 C 0.3557(3) 0.2653(5) 0.8400(3)
H17_2 H 0.3516 0.2290 0.8282
C36_2 C 0.3356(2) 0.2815(6) 0.8631(3)
H18_2 H 0.3177 0.2562 0.8670
C37_2 C 0.3416(2) 0.3346(6) 0.8804(2)
C38_2 C 0.3678(3) 0.3716(5) 0.8746(3)
H19_2 H 0.3719 0.4079 0.8864
C39_2 C 0.3879(2) 0.3555(6) 0.8515(3)
H20_2 H 0.4058 0.3808 0.8475
C40_2 C 0.4076(3) 0.2886(6) 0.8111(3)
C41_2 C 0.5216(4) 0.2028(8) 0.7788(3)
C42_2 C 0.5763(3) 0.1762(6) 0.6305(2)
C43_2 C 0.5506(3) 0.1381(5) 0.6367(3)
H21_2 H 0.5472 0.1007 0.6256
C44_2 C 0.5300(2) 0.1548(5) 0.6592(3)
H22_2 H 0.5124 0.1288 0.6634
C45_2 C 0.5349(2) 0.2096(5) 0.6755(2)
C46_2 C 0.5605(3) 0.2477(4) 0.6693(2)
H23_2 H 0.5639 0.2851 0.6804
C47_2 C 0.5812(2) 0.2309(5) 0.6468(3)
H24_2 H 0.5987 0.2570 0.6425
C48_2 C 0.5517(4) 0.1728(8) 0.7713(3)
H25_2 H 0.5677 0.1550 0.7846
C49_2 C 0.3973(3) 0.3028(5) 0.7818(3)
C50_2 C 0.4454(3) 0.2907(7) 0.6593(3)
H26_2 H 0.4334 0.3041 0.6416
C51_2 C 0.4453(3) 0.2510(7) 0.8527(3)
H27_2 H 0.4337 0.2602 0.8703
C52_2 C 0.5793(2) 0.1169(5) 0.87647(19)
C53_2 C 0.5494(2) 0.0910(4) 0.8704(2)
H28_2 H 0.5435 0.0540 0.8805
C54_2 C 0.52809(17) 0.1190(4) 0.8494(2)
H29_2 H 0.5076 0.1013 0.8453
C55_2 C 0.5367(2) 0.1731(4) 0.83456(18)
C56_2 C 0.5666(2) 0.1990(4) 0.8407(2)
H30_2 H 0.5725 0.2359 0.8305
C57_2 C 0.58795(17) 0.1709(5) 0.8616(2)
H31_2 H 0.6084 0.1887 0.8658
C58_2 C 0.5147(3) 0.2025(6) 0.8105(3)
C59_2 C 0.6272(3) 0.0801(4) 0.5806(2)
H32_2 H 0.6307 0.0372 0.5770
C60_2 C 0.6438(2) 0.1244(6) 0.5648(2)
C61_2 C 0.6387(3) 0.1871(5) 0.5701(2)
H33_2 H 0.6501 0.2174 0.5592
C62_2 C 0.6169(3) 0.2055(4) 0.5912(3)
H34_2 H 0.6134 0.2483 0.5948
C63_2 C 0.6002(3) 0.1611(6) 0.6071(3)
C64_2 C 0.6053(3) 0.0984(5) 0.6018(2)
H35_2 H 0.5939 0.0681 0.6126
C65_2 C 0.2975(3) 0.3030(4) 0.9165(2)
H36_2 H 0.2985 0.2615 0.9095
C66_2 C 0.3175(2) 0.3478(5) 0.9050(2)
C67_2 C 0.3160(2) 0.4087(5) 0.9153(2)
H37_2 H 0.3297 0.4393 0.9075
C68_2 C 0.2944(2) 0.4248(4) 0.9371(2)
H38_2 H 0.2934 0.4664 0.9442
C69_2 C 0.2744(2) 0.3800(5) 0.9486(2)
C70_2 C 0.2759(2) 0.3191(4) 0.9383(2)
H39_2 H 0.2622 0.2885 0.9462
C71_2 C 0.4741(3) 0.2660(6) 0.6597(3)
H40_2 H 0.4854 0.2566 0.6420
C72_2 C 0.2476(3) 0.5054(7) 0.5477(3)
O8_2 O 0.2297(2) 0.4694(5) 0.5323(2)
O9_2 O 0.4424(3) 0.1426(5) 0.7462(3)
O10_2 O 0.4792(3) 0.3700(5) 0.7689(2)
H169_2 H 0.422272 0.141834 0.733365
H170_2 H 0.438945 0.122048 0.766086
H171_2 H 0.500798 0.37647 0.761114
H172_2 H 0.479986 0.375912 0.791429
O11_2 O 0.7470(3) 0.9344(5) 0.0442(3)
O3_2 O 0.6679(2) 0.9344(5) 0.9661(2)
C11_2 C 0.6235(2) 0.9892(3) 0.9218(2)
H4_2 H 0.6233 0.9452 0.9233
H5_2 H 0.5880 0.9955 0.8886
C29_2 C 0.6667(3) 0.9888(6) 0.9638(3)
O13_2 O 0.7461(3) 0.9552(6) 0.9733(3)
O15_2 O 0.7311(3) 0.8667(6) 0.9796(3)
O2_2 O 0.1713(3) 0.4535(6) 0.0397(2)
O3_3 O 0.1679(2) 0.5656(5) 0.4661(2)
C1_3 C 0.1657(4) 0.3947(8) 0.0396(3)
O5_2 O 0.1810(3) 0.3578(5) 0.0260(3)
C2_3 C 0.0238(4) 0.2854(7) 0.2290(3)
C4_3 C 0.0504(4) 0.3227(9) 0.2395(3)
H1_3 H 0.0651 0.3416 0.2265
C8_3 C 0.1241(2) 0.3822(3) 0.4173(2)
H2_3 H 0.1243 0.3383 0.4158
C9_3 C 0.14508(19) 0.4121(4) 0.43798(18)
H3_3 H 0.1596 0.3886 0.4506
C10_3 C 0.14477(19) 0.4764(4) 0.44021(17)
C11_3 C 0.1235(2) 0.5108(3) 0.4218(2)
H4_3 H 0.1233 0.5548 0.4233
C12_3 C 0.1025(2) 0.4810(5) 0.40115(18)
H5_3 H 0.0880 0.5045 0.3886
C13_3 C 0.1028(2) 0.4167(5) 0.39892(18)
O6_3 O 0.1845(2) 0.4756(4) 0.4811(2)
N4_3 N 0.0059(3) 0.2725(6) 0.2566(3)
C29_3 C 0.1667(3) 0.5112(6) 0.4638(3)
C32_3 C 0.0132(3) 0.2717(7) 0.2002(3)
C41_3 C 0.0216(4) 0.2972(8) 0.2788(3)
C42_3 C 0.0763(3) 0.3238(6) 0.1305(2)
C43_3 C 0.0506(3) 0.3619(5) 0.1367(3)
H21_3 H 0.0472 0.3993 0.1256
C44_3 C 0.0300(2) 0.3452(5) 0.1592(3)
H22_3 H 0.0124 0.3712 0.1634
C45_3 C 0.0349(2) 0.2904(5) 0.1755(2)
C46_3 C 0.0605(3) 0.2523(4) 0.1693(2)
H23_3 H 0.0639 0.2149 0.1804
C47_3 C 0.0812(2) 0.2691(5) 0.1468(3)
H24_3 H 0.0987 0.2430 0.1425
C48_3 C 0.0517(4) 0.3272(8) 0.2713(3)
H25_3 H 0.0677 0.3450 0.2846
C52_3 C 0.0793(2) 0.3831(5) 0.37647(19)
C53_3 C 0.0494(2) 0.4090(4) 0.3704(2)
H28_3 H 0.0435 0.4460 0.3805
C54_3 C 0.02809(17) 0.3810(4) 0.3494(2)
H29_3 H 0.0076 0.3987 0.3453
C55_3 C 0.0367(2) 0.3269(4) 0.33456(18)
C56_3 C 0.0666(2) 0.3010(4) 0.3407(2)
H30_3 H 0.0725 0.2641 0.3305
C57_3 C 0.08795(17) 0.3291(5) 0.3616(2)
H31_3 H 0.1084 0.3113 0.3658
C58_3 C 0.0147(3) 0.2975(6) 0.3105(3)
C59_3 C 0.1272(3) 0.4199(4) 0.0806(2)
H32_3 H 0.1307 0.4628 0.0770
C60_3 C 0.1438(2) 0.3756(6) 0.0648(2)
C61_3 C 0.1387(3) 0.3129(5) 0.0701(2)
H33_3 H 0.1501 0.2826 0.0592
C62_3 C 0.1169(3) 0.2945(4) 0.0912(3)
H34_3 H 0.1134 0.2517 0.0948
C63_3 C 0.1002(3) 0.3389(6) 0.1071(3)
C64_3 C 0.1053(3) 0.4016(5) 0.1018(2)
H35_3 H 0.0939 0.4319 0.1126
O12_2 O 0.1713(3) 0.5465(6) 0.5397(2)
O14_2 O 0.1810(3) 0.6422(5) 0.5260(3)
H171_3 H 0.000797616 0.12353 0.261114
In2_3 In 0.96020(3) 0.24095(8) 0.25595(3)
N1_3 N 0.9625(3) 0.2304(5) 0.2095(2)
N2_3 N 0.9600(3) 0.2539(5) 0.3031(3)
N3_3 N 0.9144(2) 0.2064(4) 0.2558(2)
C3_3 C 0.7490(4) 0.0992(9) 0.4693(3)
C5_3 C 0.8968(3) 0.1842(6) 0.2314(3)
C6_3 C 0.9857(3) 0.2445(6) 0.1903(3)
C7_3 C 0.9044(3) 0.1853(6) 0.2006(3)
C14_3 C 0.9351(3) 0.2059(8) 0.1906(3)
C15_3 C 0.8820(2) 0.1588(4) 0.17723(18)
C16_3 C 0.8526(2) 0.1866(3) 0.1706(2)
H6_3 H 0.8470 0.2238 0.1807
C17_3 C 0.83130(18) 0.1600(4) 0.1491(2)
H7_3 H 0.8112 0.1790 0.1446
C18_3 C 0.8394(2) 0.1057(4) 0.13428(19)
C19_3 C 0.8688(2) 0.0778(4) 0.1409(2)
H8_3 H 0.8743 0.0407 0.1308
C20_3 C 0.89005(18) 0.1044(5) 0.1624(2)
H9_3 H 0.9101 0.0854 0.1669
C21_3 C 0.8158(2) 0.0761(5) 0.1112(2)
C22_3 C 0.7950(2) 0.1138(4) 0.0939(2)
H10_3 H 0.7959 0.1576 0.0963
C23_3 C 0.7729(2) 0.0875(5) 0.0732(2)
H11_3 H 0.7587 0.1132 0.0613
C24_3 C 0.7716(2) 0.0234(5) 0.0697(2)
C26_3 C 0.8145(2) 0.0120(5) 0.1077(2)
C27_3 C 0.8667(3) 0.1677(6) 0.2720(3)
H14_3 H 0.8502 0.1560 0.2850
C28_3 C 0.9837(4) 0.2838(7) 0.3196(3)
C30_3 C 0.8664(3) 0.1605(6) 0.2411(3)
H15_3 H 0.8497 0.1433 0.2284
C31_3 C 0.9746(3) 0.2772(7) 0.3517(3)
H16_3 H 0.9871 0.2906 0.3691
C33_3 C 0.9363(3) 0.2367(6) 0.3221(3)
C34_3 C 0.8819(3) 0.1977(6) 0.3342(2)
C35_3 C 0.8557(3) 0.2347(5) 0.3400(3)
H17_3 H 0.8516 0.2710 0.3282
C36_3 C 0.8356(2) 0.2185(6) 0.3631(3)
H18_3 H 0.8177 0.2438 0.3670
C37_3 C 0.8416(2) 0.1654(6) 0.3804(2)
C38_3 C 0.8678(3) 0.1284(5) 0.3746(3)
H19_3 H 0.8719 0.0921 0.3864
C39_3 C 0.8879(2) 0.1445(6) 0.3515(3)
H20_3 H 0.9058 0.1192 0.3475
C40_3 C 0.9076(3) 0.2114(6) 0.3111(3)
C49_3 C 0.8973(3) 0.1972(5) 0.2818(3)
C50_3 C 0.9454(3) 0.2093(7) 0.1593(3)
H26_3 H 0.9334 0.1959 0.1416
C51_3 C 0.9453(3) 0.2490(7) 0.3527(3)
H27_3 H 0.9337 0.2398 0.3703
C65_3 C 0.7975(3) 0.1970(4) 0.4165(2)
H36_3 H 0.7985 0.2385 0.4095
C66_3 C 0.8175(2) 0.1522(5) 0.4050(2)
C67_3 C 0.8160(2) 0.0913(5) 0.4153(2)
H37_3 H 0.8297 0.0607 0.4075
C68_3 C 0.7944(2) 0.0752(4) 0.4371(2)
H38_3 H 0.7934 0.0336 0.4442
C69_3 C 0.7744(2) 0.1200(5) 0.4486(2)
C70_3 C 0.7759(2) 0.1809(4) 0.4383(2)
H39_3 H 0.7622 0.2115 0.4462
C71_3 C 0.9741(3) 0.2340(6) 0.1597(3)
H40_3 H 0.9854 0.2434 0.1420
O9_3 O 0.9424(3) 0.3574(5) 0.2462(3)
O10_3 O 0.9792(3) 0.1300(5) 0.2689(2)
H169_3 H 0.922272 0.358166 0.233365
H170_3 H 0.938945 0.377952 0.266086
H172_3 H 0.979986 0.124088 0.291429
C25_3 C 0.7923(3) 0.9857(4) 0.0869(2)
H12_3 H 0.7914 0.9419 0.0846
H13_3 H 0.8287 0.9863 0.1195
C72_3 C 0.7476(3) 0.9946(7) 0.0477(3)
O3_4 O 0.1679(2) 0.4344(5) 0.9661(2)
C1_4 C 0.1657(4) 0.6053(8) 0.5396(3)
C2_4 C 0.0238(4) 0.7146(7) 0.7290(3)
C4_4 C 0.0504(4) 0.6773(9) 0.7395(3)
H1_4 H 0.0651 0.6584 0.7265
C8_4 C 0.1241(2) 0.6178(3) 0.9173(2)
H2_4 H 0.1243 0.6617 0.9158
C9_4 C 0.14508(19) 0.5879(4) 0.93798(18)
H3_4 H 0.1596 0.6114 0.9506
C10_4 C 0.14477(19) 0.5236(4) 0.94021(17)
C11_4 C 0.1235(2) 0.4892(3) 0.9218(2)
H4_4 H 0.1233 0.4452 0.9233
C12_4 C 0.1025(2) 0.5190(5) 0.90115(18)
H5_4 H 0.0880 0.4955 0.8886
C13_4 C 0.1028(2) 0.5833(5) 0.89892(18)
O6_4 O 0.1845(2) 0.5244(4) 0.9811(2)
N4_4 N 0.0059(3) 0.7275(6) 0.7566(3)
C29_4 C 0.1667(3) 0.4888(6) 0.9638(3)
C32_4 C 0.0132(3) 0.7283(7) 0.7002(3)
C41_4 C 0.0216(4) 0.7028(8) 0.7788(3)
C42_4 C 0.0763(3) 0.6762(6) 0.6305(2)
C43_4 C 0.0506(3) 0.6381(5) 0.6367(3)
H21_4 H 0.0472 0.6007 0.6256
C44_4 C 0.0300(2) 0.6548(5) 0.6592(3)
H22_4 H 0.0124 0.6288 0.6634
C45_4 C 0.0349(2) 0.7096(5) 0.6755(2)
C46_4 C 0.0605(3) 0.7477(4) 0.6693(2)
H23_4 H 0.0639 0.7851 0.6804
C47_4 C 0.0812(2) 0.7309(5) 0.6468(3)
H24_4 H 0.0987 0.7570 0.6425
C48_4 C 0.0517(4) 0.6728(8) 0.7713(3)
H25_4 H 0.0677 0.6550 0.7846
C52_4 C 0.0793(2) 0.6169(5) 0.87647(19)
C53_4 C 0.0494(2) 0.5910(4) 0.8704(2)
H28_4 H 0.0435 0.5540 0.8805
C54_4 C 0.02809(17) 0.6190(4) 0.8494(2)
H29_4 H 0.0076 0.6013 0.8453
C55_4 C 0.0367(2) 0.6731(4) 0.83456(18)
C56_4 C 0.0666(2) 0.6990(4) 0.8407(2)
H30_4 H 0.0725 0.7359 0.8305
C57_4 C 0.08795(17) 0.6709(5) 0.8616(2)
H31_4 H 0.1084 0.6887 0.8658
C58_4 C 0.0147(3) 0.7025(6) 0.8105(3)
C59_4 C 0.1272(3) 0.5801(4) 0.5806(2)
H32_4 H 0.1307 0.5372 0.5770
C60_4 C 0.1438(2) 0.6244(6) 0.5648(2)
C61_4 C 0.1387(3) 0.6871(5) 0.5701(2)
H33_4 H 0.1501 0.7174 0.5592
C62_4 C 0.1169(3) 0.7055(4) 0.5912(3)
H34_4 H 0.1134 0.7483 0.5948
C63_4 C 0.1002(3) 0.6611(6) 0.6071(3)
C64_4 C 0.1053(3) 0.5984(5) 0.6018(2)
H35_4 H 0.0939 0.5681 0.6126
H171_4 H 0.000797616 0.87647 0.761114
C25_4 C 0.7923(3) 0.0143(4) 0.5869(2)
H12_4 H 0.7914 0.0581 0.5846
H13_4 H 0.8287 0.0137 0.6195
C72_4 C 0.7476(3) 0.0054(7) 0.5477(3)
In2_4 In 0.96020(3) 0.75905(8) 0.75595(3)
N1_4 N 0.9625(3) 0.7696(5) 0.7095(2)
N2_4 N 0.9600(3) 0.7461(5) 0.8031(3)
N3_4 N 0.9144(2) 0.7936(4) 0.7558(2)
C3_4 C 0.7490(4) 0.9008(9) 0.9693(3)
C5_4 C 0.8968(3) 0.8158(6) 0.7314(3)
C6_4 C 0.9857(3) 0.7555(6) 0.6903(3)
C7_4 C 0.9044(3) 0.8147(6) 0.7006(3)
C14_4 C 0.9351(3) 0.7941(8) 0.6906(3)
C15_4 C 0.8820(2) 0.8412(4) 0.67723(18)
C16_4 C 0.8526(2) 0.8134(3) 0.6706(2)
H6_4 H 0.8470 0.7762 0.6807
C17_4 C 0.83130(18) 0.8400(4) 0.6491(2)
H7_4 H 0.8112 0.8210 0.6446
C18_4 C 0.8394(2) 0.8943(4) 0.63428(19)
C19_4 C 0.8688(2) 0.9222(4) 0.6409(2)
H8_4 H 0.8743 0.9593 0.6308
C20_4 C 0.89005(18) 0.8956(5) 0.6624(2)
H9_4 H 0.9101 0.9146 0.6669
C21_4 C 0.8158(2) 0.9239(5) 0.6112(2)
C22_4 C 0.7950(2) 0.8862(4) 0.5939(2)
H10_4 H 0.7959 0.8424 0.5963
C23_4 C 0.7729(2) 0.9125(5) 0.5732(2)
H11_4 H 0.7587 0.8868 0.5613
C24_4 C 0.7716(2) 0.9766(5) 0.5697(2)
C26_4 C 0.8145(2) 0.9880(5) 0.6077(2)
C27_4 C 0.8667(3) 0.8323(6) 0.7720(3)
H14_4 H 0.8502 0.8440 0.7850
C28_4 C 0.9837(4) 0.7162(7) 0.8196(3)
C30_4 C 0.8664(3) 0.8395(6) 0.7411(3)
H15_4 H 0.8497 0.8567 0.7284
C31_4 C 0.9746(3) 0.7228(7) 0.8517(3)
H16_4 H 0.9871 0.7094 0.8691
C33_4 C 0.9363(3) 0.7633(6) 0.8221(3)
C34_4 C 0.8819(3) 0.8023(6) 0.8342(2)
C35_4 C 0.8557(3) 0.7653(5) 0.8400(3)
H17_4 H 0.8516 0.7290 0.8282
C36_4 C 0.8356(2) 0.7815(6) 0.8631(3)
H18_4 H 0.8177 0.7562 0.8670
C37_4 C 0.8416(2) 0.8346(6) 0.8804(2)
C38_4 C 0.8678(3) 0.8716(5) 0.8746(3)
H19_4 H 0.8719 0.9079 0.8864
C39_4 C 0.8879(2) 0.8555(6) 0.8515(3)
H20_4 H 0.9058 0.8808 0.8475
C40_4 C 0.9076(3) 0.7886(6) 0.8111(3)
C49_4 C 0.8973(3) 0.8028(5) 0.7818(3)
C50_4 C 0.9454(3) 0.7907(7) 0.6593(3)
H26_4 H 0.9334 0.8041 0.6416
C51_4 C 0.9453(3) 0.7510(7) 0.8527(3)
H27_4 H 0.9337 0.7602 0.8703
C65_4 C 0.7975(3) 0.8030(4) 0.9165(2)
H36_4 H 0.7985 0.7615 0.9095
C66_4 C 0.8175(2) 0.8478(5) 0.9050(2)
C67_4 C 0.8160(2) 0.9087(5) 0.9153(2)
H37_4 H 0.8297 0.9393 0.9075
C68_4 C 0.7944(2) 0.9248(4) 0.9371(2)
H38_4 H 0.7934 0.9664 0.9442
C69_4 C 0.7744(2) 0.8800(5) 0.9486(2)
C70_4 C 0.7759(2) 0.8191(4) 0.9383(2)
H39_4 H 0.7622 0.7885 0.9462
C71_4 C 0.9741(3) 0.7660(6) 0.6597(3)
H40_4 H 0.9854 0.7566 0.6420
O9_4 O 0.9424(3) 0.6426(5) 0.7462(3)
O10_4 O 0.9792(3) 0.8700(5) 0.7689(2)
H169_4 H 0.922272 0.641834 0.733365
H170_4 H 0.938945 0.622048 0.766086
H172_4 H 0.979986 0.875912 0.791429
In6 In 0.45741(2) 0.54375(5) 0.63047(2)
In7 In 0.20736(3) 0.24726(7) 0.38160(3)
O17 O 0.4181(2) 0.5596(5) 0.5913(2)
N5 N 0.1610(3) 0.2160(5) 0.3827(2)
O19 O 0.4186(2) 0.4704(5) 0.1623(2)
C73 C 0.2269(3) 0.3051(5) 0.4457(2)
O21 O 0.4338(2) 0.4689(4) 0.6038(2)
C74 C 0.2300(3) 0.2607(7) 0.3152(3)
C75 C 0.12875(19) 0.2103(4) 0.46121(17)
C76 C 0.13888(17) 0.1769(4) 0.4871(2)
H41 H 0.1605 0.1643 0.4897
C77 C 0.1173(2) 0.1620(4) 0.50909(16)
H42 H 0.1243 0.1392 0.5268
C78 C 0.0857(2) 0.1803(4) 0.50528(19)
C79 C 0.07554(16) 0.2137(4) 0.4794(2)
H43 H 0.0539 0.2263 0.4768
C80 C 0.0971(2) 0.2286(4) 0.45740(18)
H44 H 0.0902 0.2514 0.4397
N6 N 0.2055(2) 0.2740(5) 0.4291(2)
C81 C 0.1802(3) 0.2576(5) 0.4469(3)
N7 N 0.2482(3) 0.2990(5) 0.3806(2)
N8 N 0.2054(3) 0.2457(5) 0.3340(2)
O24 O 0.4342(2) 0.3706(5) 0.1590(2)
C83 C 0.1512(3) 0.2267(7) 0.4369(3)
C84 C 0.2669(3) 0.3250(7) 0.4051(3)
C85 C 0.2939(3) 0.3503(6) 0.3638(3)
H45 H 0.3097 0.3645 0.3506
C86 C 0.2936(3) 0.3590(6) 0.3945(3)
H46 H 0.3082 0.3832 0.4066
C87 C 0.1424(3) 0.2022(6) 0.4071(3)
C88 C 0.2659(3) 0.3155(7) 0.3549(3)
C89 C 0.3735(2) 0.5172(3) 0.5478(2)
H47 H 0.3763 0.5608 0.5496
C90 C 0.3509(2) 0.4933(4) 0.5268(2)
H48 H 0.3383 0.5205 0.5142
C91 C 0.3468(2) 0.4295(5) 0.52413(18)
C92 C 0.3653(2) 0.3896(3) 0.5426(2)
H49 H 0.3625 0.3460 0.5408
C93 C 0.3878(2) 0.4135(4) 0.56363(18)
H50 H 0.4004 0.3863 0.5762
C94 C 0.39193(19) 0.4773(5) 0.56627(18)
C95 C 0.1152(3) 0.1604(6) 0.3682(3)
H51 H 0.0993 0.1400 0.3557
C96 C 0.2562(3) 0.3240(5) 0.4353(3)
C97 C 0.1438(3) 0.1882(6) 0.3571(3)
C98 C 0.2157(3) 0.3124(5) 0.4767(2)
H52 H 0.2268 0.3307 0.4938
C99 C 0.1861(3) 0.2873(6) 0.4756(3)
H53 H 0.1716 0.2893 0.4916
C100 C 0.0645(2) 0.0190(5) 0.2301(3)
C101 C 0.0634(2) 0.0818(5) 0.2372(2)
C102 C 0.0397(2) 0.1192(4) 0.2237(2)
H55 H 0.0390 0.1621 0.2286
C103 C 0.0172(2) 0.0940(4) 0.2031(2)
H56 H 0.0011 0.1196 0.1938
C104 C 0.0183(2) 0.0312(5) 0.1959(2)
C106 C 0.0655(2) 0.1564(5) 0.52981(18)
C107 C 0.0423(2) 0.1961(3) 0.5404(2)
H58 H 0.0412 0.2378 0.5335
C108 C 0.02084(19) 0.1747(4) 0.5613(2)
H59 H 0.0050 0.2018 0.5685
C109 C 0.0225(2) 0.1137(4) 0.57144(19)
C110 C 0.0456(2) 0.0740(4) 0.5608(2)
H60 H 0.0467 0.0323 0.5678
C111 C 0.0671(2) 0.0954(4) 0.5400(2)
H61 H 0.0829 0.0683 0.5327
C112 C 0.1815(3) 0.2184(7) 0.3153(3)
C113 C 0.2584(3) 0.2902(7) 0.3238(3)
C114 C 0.32388(17) 0.4029(4) 0.50116(16)
C115 C 0.2955(2) 0.4344(3) 0.49434(17)
H62 H 0.2915 0.4728 0.5041
C116 C 0.27320(15) 0.4097(4) 0.47329(18)
H63 H 0.2538 0.4312 0.4686
C117 C 0.27919(18) 0.3535(4) 0.45907(16)
C118 C 0.3075(2) 0.3220(3) 0.46589(19)
H64 H 0.3116 0.2836 0.4562
C119 C 0.32987(16) 0.3467(4) 0.4869(2)
H65 H 0.3492 0.3252 0.4916
C120 C 0.33245(17) 0.2995(4) 0.2787(2)
H66 H 0.3531 0.2816 0.2794
C121 C 0.3108(2) 0.2834(4) 0.30042(18)
H67 H 0.3167 0.2545 0.3160
C122 C 0.2805(2) 0.3096(4) 0.29933(17)
C123 C 0.27190(17) 0.3520(4) 0.2765(2)
H68 H 0.2512 0.3699 0.2757
C124 C 0.2935(2) 0.3681(4) 0.25472(17)
H69 H 0.2876 0.3971 0.2391
C125 C 0.3238(2) 0.3419(4) 0.25580(18)
C126 C 0.1142(3) 0.1675(6) 0.3985(3)
H70 H 0.0983 0.1529 0.4115
C127 C 0.1540(3) 0.1857(7) 0.3256(3)
C128 C 0.1906(4) 0.2187(8) 0.2845(3)
H71 H 0.1785 0.2040 0.2671
C129 C 0.3485(2) 0.3628(5) 0.23507(19)
C130 C 0.3733(2) 0.3230(4) 0.2285(2)
H72 H 0.3750 0.2836 0.2382
C131 C 0.39570(19) 0.3407(4) 0.2078(2)
H73 H 0.4127 0.3135 0.2033
C132 C 0.3933(2) 0.3983(4) 0.19359(19)
C133 C 0.3684(2) 0.4381(4) 0.2001(2)
H74 H 0.3668 0.4775 0.1904
C134 C 0.3461(2) 0.4204(4) 0.2209(2)
H75 H 0.3291 0.4476 0.2253
C135 C 0.1306(2) 0.1549(5) 0.3040(2)
C136 C 0.1243(2) 0.0917(5) 0.3031(2)
H76 H 0.1344 0.0647 0.3177
C137 C 0.1031(3) 0.0678(4) 0.2808(3)
H77 H 0.0987 0.0245 0.2801
C138 C 0.0882(2) 0.1071(5) 0.25938(19)
C139 C 0.0946(2) 0.1704(5) 0.2603(2)
H78 H 0.0844 0.1973 0.2457
C140 C 0.1158(2) 0.1943(4) 0.2826(2)
H79 H 0.1201 0.2375 0.2833
C141 C 0.2204(4) 0.2443(7) 0.2851(3)
H80 H 0.2328 0.2502 0.2677
O25 O 0.22917(17) 0.1410(3) 0.38916(15)
O26 O 0.1838(3) 0.3540(5) 0.3685(2)
C142 C 0.4170(3) 0.4176(9) 0.1693(3)
C143 C 0.4165(3) 0.5031(7) 0.5872(3)
C144 C 0.0001(3) 0.0848(7) 0.5943(3)
In8 In 0.45741(2) 0.45625(5) 0.13047(2)
O27 O 0.4976(2) 0.5304(5) 0.5979(2)
O28 O 0.4186(2) 0.5296(5) 0.6623(2)
O29 O 0.4783(2) 0.4560(4) 0.6569(2)
O30 O 0.4823(2) 0.6237(4) 0.6076(2)
O31 O 0.4943(2) 0.5483(5) 0.6689(2)
O32 O 0.4342(2) 0.6294(5) 0.6590(2)
H173 H 0.170314 0.367888 0.385258
H174 H 0.201346 0.384223 0.366035
H175 H 0.221247 0.113926 0.372094
H176 H 0.252825 0.142563 0.389559
O18 O 0.9976(2) 0.0304(5) 0.5979(2)
O20 O 0.9783(2) 0.0440(4) 0.1569(2)
O22 O 0.9823(2) 0.1237(4) 0.6076(2)
C82 C 0.9953(3) 0.0101(8) 0.1721(3)
In9 In 0.95741(2) 0.04375(5) 0.63047(2)
O23 O 0.9943(2) 0.9517(5) 0.1689(2)
In10 In 0.95741(2) 0.95625(5) 0.13047(2)
O17_2 O 0.4181(2) 0.4404(5) 0.0913(2)
O21_2 O 0.4338(2) 0.5311(4) 0.1038(2)
C77_2 C 0.1173(2) 0.8380(4) 0.00909(16)
H42_2 H 0.1243 0.8608 0.0268
C78_2 C 0.0857(2) 0.8197(4) 0.00528(19)
C89_2 C 0.3735(2) 0.4828(3) 0.0478(2)
H47_2 H 0.3763 0.4392 0.0496
C90_2 C 0.3509(2) 0.5067(4) 0.0268(2)
H48_2 H 0.3383 0.4795 0.0142
C91_2 C 0.3468(2) 0.5705(5) 0.02413(18)
C92_2 C 0.3653(2) 0.6104(3) 0.0426(2)
H49_2 H 0.3625 0.6540 0.0408
C93_2 C 0.3878(2) 0.5865(4) 0.06363(18)
H50_2 H 0.4004 0.6137 0.0762
C94_2 C 0.39193(19) 0.5227(5) 0.06627(18)
C106_2 C 0.0655(2) 0.8436(5) 0.02981(18)
C107_2 C 0.0423(2) 0.8039(3) 0.0404(2)
H58_2 H 0.0412 0.7622 0.0335
C108_2 C 0.02084(19) 0.8253(4) 0.0613(2)
H59_2 H 0.0050 0.7982 0.0685
C109_2 C 0.0225(2) 0.8863(4) 0.07144(19)
C110_2 C 0.0456(2) 0.9260(4) 0.0608(2)
H60_2 H 0.0467 0.9677 0.0678
C111_2 C 0.0671(2) 0.9046(4) 0.0400(2)
H61_2 H 0.0829 0.9317 0.0327
C114_2 C 0.32388(17) 0.5971(4) 0.00116(16)
H62_2 H 0.2915 0.5272 0.0041
C143_2 C 0.4165(3) 0.4969(7) 0.0872(3)
C144_2 C 0.0001(3) 0.9152(7) 0.0943(3)
O27_2 O 0.4976(2) 0.4696(5) 0.0979(2)
O29_2 O 0.4783(2) 0.5440(4) 0.1569(2)
O30_2 O 0.4823(2) 0.3763(4) 0.1076(2)
O31_2 O 0.4943(2) 0.4517(5) 0.1689(2)
In7_2 In 0.20736(3) 0.75274(7) 0.88160(3)
N5_2 N 0.1610(3) 0.7840(5) 0.8827(2)
C73_2 C 0.2269(3) 0.6949(5) 0.9457(2)
C74_2 C 0.2300(3) 0.7393(7) 0.8152(3)
C75_2 C 0.12875(19) 0.7897(4) 0.96121(17)
C76_2 C 0.13888(17) 0.8231(4) 0.9871(2)
H41_2 H 0.1605 0.8357 0.9897
C79_2 C 0.07554(16) 0.7863(4) 0.9794(2)
H43_2 H 0.0539 0.7737 0.9768
C80_2 C 0.0971(2) 0.7714(4) 0.95740(18)
H44_2 H 0.0902 0.7486 0.9397
N6_2 N 0.2055(2) 0.7260(5) 0.9291(2)
C81_2 C 0.1802(3) 0.7424(5) 0.9469(3)
N7_2 N 0.2482(3) 0.7010(5) 0.8806(2)
N8_2 N 0.2054(3) 0.7543(5) 0.8340(2)
C83_2 C 0.1512(3) 0.7733(7) 0.9369(3)
C84_2 C 0.2669(3) 0.6750(7) 0.9051(3)
C85_2 C 0.2939(3) 0.6497(6) 0.8638(3)
H45_2 H 0.3097 0.6355 0.8506
C86_2 C 0.2936(3) 0.6410(6) 0.8945(3)
H46_2 H 0.3082 0.6168 0.9066
C87_2 C 0.1424(3) 0.7978(6) 0.9071(3)
C88_2 C 0.2659(3) 0.6845(7) 0.8549(3)
C95_2 C 0.1152(3) 0.8396(6) 0.8682(3)
H51_2 H 0.0993 0.8600 0.8557
C96_2 C 0.2562(3) 0.6760(5) 0.9353(3)
C97_2 C 0.1438(3) 0.8118(6) 0.8571(3)
C98_2 C 0.2157(3) 0.6876(5) 0.9767(2)
H52_2 H 0.2268 0.6693 0.9938
C99_2 C 0.1861(3) 0.7127(6) 0.9756(3)
H53_2 H 0.1716 0.7107 0.9916
C100_2 C 0.0645(2) 0.9810(5) 0.7301(3)
C101_2 C 0.0634(2) 0.9182(5) 0.7372(2)
C102_2 C 0.0397(2) 0.8808(4) 0.7237(2)
H55_2 H 0.0390 0.8379 0.7286
C103_2 C 0.0172(2) 0.9060(4) 0.7031(2)
H56_2 H 0.0011 0.8804 0.6938
C104_2 C 0.0183(2) 0.9688(5) 0.6959(2)
C112_2 C 0.1815(3) 0.7816(7) 0.8153(3)
C113_2 C 0.2584(3) 0.7098(7) 0.8238(3)
C115_2 C 0.2955(2) 0.5656(3) 0.99434(17)
C116_2 C 0.27320(15) 0.5903(4) 0.97329(18)
H63_2 H 0.2538 0.5688 0.9686
C117_2 C 0.27919(18) 0.6465(4) 0.95907(16)
C118_2 C 0.3075(2) 0.6780(3) 0.96589(19)
H64_2 H 0.3116 0.7164 0.9562
C119_2 C 0.32987(16) 0.6533(4) 0.9869(2)
H65_2 H 0.3492 0.6748 0.9916
C120_2 C 0.33245(17) 0.7005(4) 0.7787(2)
H66_2 H 0.3531 0.7184 0.7794
C121_2 C 0.3108(2) 0.7166(4) 0.80042(18)
H67_2 H 0.3167 0.7455 0.8160
C122_2 C 0.2805(2) 0.6904(4) 0.79933(17)
C123_2 C 0.27190(17) 0.6480(4) 0.7765(2)
H68_2 H 0.2512 0.6301 0.7757
C124_2 C 0.2935(2) 0.6319(4) 0.75472(17)
H69_2 H 0.2876 0.6029 0.7391
C125_2 C 0.3238(2) 0.6581(4) 0.75580(18)
C126_2 C 0.1142(3) 0.8325(6) 0.8985(3)
H70_2 H 0.0983 0.8471 0.9115
C127_2 C 0.1540(3) 0.8143(7) 0.8256(3)
C128_2 C 0.1906(4) 0.7813(8) 0.7845(3)
H71_2 H 0.1785 0.7960 0.7671
C129_2 C 0.3485(2) 0.6372(5) 0.73507(19)
C130_2 C 0.3733(2) 0.6770(4) 0.7285(2)
H72_2 H 0.3750 0.7164 0.7382
C131_2 C 0.39570(19) 0.6593(4) 0.7078(2)
H73_2 H 0.4127 0.6865 0.7033
C132_2 C 0.3933(2) 0.6017(4) 0.69359(19)
C133_2 C 0.3684(2) 0.5619(4) 0.7001(2)
H74_2 H 0.3668 0.5225 0.6904
C134_2 C 0.3461(2) 0.5796(4) 0.7209(2)
H75_2 H 0.3291 0.5524 0.7253
C135_2 C 0.1306(2) 0.8451(5) 0.8040(2)
C136_2 C 0.1243(2) 0.9083(5) 0.8031(2)
H76_2 H 0.1344 0.9353 0.8177
C137_2 C 0.1031(3) 0.9322(4) 0.7808(3)
H77_2 H 0.0987 0.9755 0.7801
C138_2 C 0.0882(2) 0.8929(5) 0.75938(19)
C139_2 C 0.0946(2) 0.8296(5) 0.7603(2)
H78_2 H 0.0844 0.8027 0.7457
C140_2 C 0.1158(2) 0.8057(4) 0.7826(2)
H79_2 H 0.1201 0.7625 0.7833
C141_2 C 0.2204(4) 0.7557(7) 0.7851(3)
H80_2 H 0.2328 0.7498 0.7677
O25_2 O 0.22917(17) 0.8590(3) 0.88916(15)
O26_2 O 0.1838(3) 0.6460(5) 0.8685(2)
C142_2 C 0.4170(3) 0.5824(9) 0.6693(3)
H173_2 H 0.170314 0.632112 0.885258
H174_2 H 0.201346 0.615777 0.866035
H175_2 H 0.221247 0.886074 0.872094
H176_2 H 0.252825 0.857437 0.889559
O23_2 O 0.9943(2) 0.0483(5) 0.6689(2)
O18_2 O 0.9976(2) 0.9696(5) 0.0979(2)
O22_2 O 0.9823(2) 0.8763(4) 0.1076(2)
O20_2 O 0.9783(2) 0.9560(4) 0.6569(2)
C82_2 C 0.9953(3) 0.9899(8) 0.6721(3)
O17_3 O 0.9181(2) 0.0596(5) 0.5913(2)
C89_3 C 0.8735(2) 0.0172(3) 0.5478(2)
H47_3 H 0.8763 0.0608 0.5496
H48_3 H 0.8383 0.0205 0.5142
C143_3 C 0.9165(3) 0.0031(7) 0.5872(3)
O28_2 O 0.9186(2) 0.0296(5) 0.6623(2)
O32_2 O 0.9342(2) 0.1294(5) 0.6590(2)
In7_3 In 0.70736(3) 0.74726(7) 0.38160(3)
N5_3 N 0.6610(3) 0.7160(5) 0.3827(2)
O19_2 O 0.9186(2) 0.9704(5) 0.1623(2)
C73_3 C 0.7269(3) 0.8051(5) 0.4457(2)
O21_3 O 0.9338(2) 0.9689(4) 0.6038(2)
C74_3 C 0.7300(3) 0.7607(7) 0.3152(3)
C75_3 C 0.62875(19) 0.7103(4) 0.46121(17)
C76_3 C 0.63888(17) 0.6769(4) 0.4871(2)
H41_3 H 0.6605 0.6643 0.4897
C77_3 C 0.6173(2) 0.6620(4) 0.50909(16)
H42_3 H 0.6243 0.6392 0.5268
C78_3 C 0.5857(2) 0.6803(4) 0.50528(19)
C79_3 C 0.57554(16) 0.7137(4) 0.4794(2)
H43_3 H 0.5539 0.7263 0.4768
C80_3 C 0.5971(2) 0.7286(4) 0.45740(18)
H44_3 H 0.5902 0.7514 0.4397
N6_3 N 0.7055(2) 0.7740(5) 0.4291(2)
C81_3 C 0.6802(3) 0.7576(5) 0.4469(3)
N7_3 N 0.7482(3) 0.7990(5) 0.3806(2)
N8_3 N 0.7054(3) 0.7457(5) 0.3340(2)
O24_2 O 0.9342(2) 0.8706(5) 0.1590(2)
C82_3 C 0.4953(3) 0.5101(8) 0.1721(3)
C83_3 C 0.6512(3) 0.7267(7) 0.4369(3)
C84_3 C 0.7669(3) 0.8250(7) 0.4051(3)
C85_3 C 0.7939(3) 0.8503(6) 0.3638(3)
H45_3 H 0.8097 0.8645 0.3506
C86_3 C 0.7936(3) 0.8590(6) 0.3945(3)
H46_3 H 0.8082 0.8832 0.4066
C87_3 C 0.6424(3) 0.7022(6) 0.4071(3)
C88_3 C 0.7659(3) 0.8155(7) 0.3549(3)
C90_3 C 0.8509(2) 0.9933(4) 0.5268(2)
C91_3 C 0.8468(2) 0.9295(5) 0.52413(18)
C92_3 C 0.8653(2) 0.8896(3) 0.5426(2)
H49_3 H 0.8625 0.8460 0.5408
C93_3 C 0.8878(2) 0.9135(4) 0.56363(18)
H50_3 H 0.9004 0.8863 0.5762
C94_3 C 0.89193(19) 0.9773(5) 0.56627(18)
C95_3 C 0.6152(3) 0.6604(6) 0.3682(3)
H51_3 H 0.5993 0.6400 0.3557
C96_3 C 0.7562(3) 0.8240(5) 0.4353(3)
C97_3 C 0.6438(3) 0.6882(6) 0.3571(3)
C98_3 C 0.7157(3) 0.8124(5) 0.4767(2)
H52_3 H 0.7268 0.8307 0.4938
C99_3 C 0.6861(3) 0.7873(6) 0.4756(3)
H53_3 H 0.6716 0.7893 0.4916
C100_3 C 0.5645(2) 0.5190(5) 0.2301(3)
H54 H 0.5806 0.4934 0.2393
C101_3 C 0.5634(2) 0.5818(5) 0.2372(2)
C102_3 C 0.5397(2) 0.6192(4) 0.2237(2)
H55_3 H 0.5390 0.6621 0.2286
C103_3 C 0.5172(2) 0.5940(4) 0.2031(2)
H56_3 H 0.5011 0.6196 0.1938
C104_3 C 0.5183(2) 0.5312(5) 0.1959(2)
C105 C 0.5419(3) 0.4937(4) 0.2094(3)
H57 H 0.5427 0.4509 0.2045
C106_3 C 0.5655(2) 0.6564(5) 0.52981(18)
C107_3 C 0.5423(2) 0.6961(3) 0.5404(2)
H58_3 H 0.5412 0.7378 0.5335
C108_3 C 0.52084(19) 0.6747(4) 0.5613(2)
H59_3 H 0.5050 0.7018 0.5685
C109_3 C 0.5225(2) 0.6137(4) 0.57144(19)
C110_3 C 0.5456(2) 0.5740(4) 0.5608(2)
H60_3 H 0.5467 0.5323 0.5678
C111_3 C 0.5671(2) 0.5954(4) 0.5400(2)
H61_3 H 0.5829 0.5683 0.5327
C112_3 C 0.6815(3) 0.7184(7) 0.3153(3)
C113_3 C 0.7584(3) 0.7902(7) 0.3238(3)
C114_3 C 0.82388(17) 0.9029(4) 0.50116(16)
C115_3 C 0.7955(2) 0.9344(3) 0.49434(17)
H62_3 H 0.7915 0.9728 0.5041
C116_3 C 0.77320(15) 0.9097(4) 0.47329(18)
H63_3 H 0.7538 0.9312 0.4686
C117_3 C 0.77919(18) 0.8535(4) 0.45907(16)
C118_3 C 0.8075(2) 0.8220(3) 0.46589(19)
H64_3 H 0.8116 0.7836 0.4562
C119_3 C 0.82987(16) 0.8467(4) 0.4869(2)
H65_3 H 0.8492 0.8252 0.4916
C120_3 C 0.83245(17) 0.7995(4) 0.2787(2)
H66_3 H 0.8531 0.7816 0.2794
C121_3 C 0.8108(2) 0.7834(4) 0.30042(18)
H67_3 H 0.8167 0.7545 0.3160
C122_3 C 0.7805(2) 0.8096(4) 0.29933(17)
C123_3 C 0.77190(17) 0.8520(4) 0.2765(2)
H68_3 H 0.7512 0.8699 0.2757
C124_3 C 0.7935(2) 0.8681(4) 0.25472(17)
H69_3 H 0.7876 0.8971 0.2391
C125_3 C 0.8238(2) 0.8419(4) 0.25580(18)
C126_3 C 0.6142(3) 0.6675(6) 0.3985(3)
H70_3 H 0.5983 0.6529 0.4115
C127_3 C 0.6540(3) 0.6857(7) 0.3256(3)
C128_3 C 0.6906(4) 0.7187(8) 0.2845(3)
H71_3 H 0.6785 0.7040 0.2671
C129_3 C 0.8485(2) 0.8628(5) 0.23507(19)
C130_3 C 0.8733(2) 0.8230(4) 0.2285(2)
H72_3 H 0.8750 0.7836 0.2382
C131_3 C 0.89570(19) 0.8407(4) 0.2078(2)
H73_3 H 0.9127 0.8135 0.2033
C132_3 C 0.8933(2) 0.8983(4) 0.19359(19)
C133_3 C 0.8684(2) 0.9381(4) 0.2001(2)
H74_3 H 0.8668 0.9775 0.1904
C134_3 C 0.8461(2) 0.9204(4) 0.2209(2)
H75_3 H 0.8291 0.9476 0.2253
C135_3 C 0.6306(2) 0.6549(5) 0.3040(2)
C136_3 C 0.6243(2) 0.5917(5) 0.3031(2)
H76_3 H 0.6344 0.5647 0.3177
C137_3 C 0.6031(3) 0.5678(4) 0.2808(3)
H77_3 H 0.5987 0.5245 0.2801
C138_3 C 0.5882(2) 0.6071(5) 0.25938(19)
C139_3 C 0.5946(2) 0.6704(5) 0.2603(2)
H78_3 H 0.5844 0.6973 0.2457
C140_3 C 0.6158(2) 0.6943(4) 0.2826(2)
H79_3 H 0.6201 0.7375 0.2833
C141_3 C 0.7204(4) 0.7443(7) 0.2851(3)
H80_3 H 0.7328 0.7502 0.2677
O25_3 O 0.72917(17) 0.6410(3) 0.38916(15)
O26_3 O 0.6838(3) 0.8540(5) 0.3685(2)
C142_3 C 0.9170(3) 0.9176(9) 0.1693(3)
C144_3 C 0.5001(3) 0.5848(7) 0.5943(3)
H173_3 H 0.670314 0.867888 0.385258
H174_3 H 0.701346 0.884223 0.366035
H175_3 H 0.721247 0.613926 0.372094
H176_3 H 0.752825 0.642563 0.389559
O21_4 O 0.9338(2) 0.0311(4) 0.1038(2)
C77_4 C 0.6173(2) 0.3380(4) 0.00909(16)
H42_4 H 0.6243 0.3608 0.0268
C78_4 C 0.5857(2) 0.3197(4) 0.00528(19)
C90_4 C 0.8509(2) 0.0067(4) 0.0268(2)
C91_4 C 0.8468(2) 0.0705(5) 0.02413(18)
C92_4 C 0.8653(2) 0.1104(3) 0.0426(2)
H49_4 H 0.8625 0.1540 0.0408
C93_4 C 0.8878(2) 0.0865(4) 0.06363(18)
H50_4 H 0.9004 0.1137 0.0762
C94_4 C 0.89193(19) 0.0227(5) 0.06627(18)
C106_4 C 0.5655(2) 0.3436(5) 0.02981(18)
C107_4 C 0.5423(2) 0.3039(3) 0.0404(2)
H58_4 H 0.5412 0.2622 0.0335
C108_4 C 0.52084(19) 0.3253(4) 0.0613(2)
H59_4 H 0.5050 0.2982 0.0685
C109_4 C 0.5225(2) 0.3863(4) 0.07144(19)
C110_4 C 0.5456(2) 0.4260(4) 0.0608(2)
H60_4 H 0.5467 0.4677 0.0678
C111_4 C 0.5671(2) 0.4046(4) 0.0400(2)
H61_4 H 0.5829 0.4317 0.0327
C114_4 C 0.82388(17) 0.0971(4) 0.00116(16)
H62_4 H 0.7915 0.0272 0.0041
C144_4 C 0.5001(3) 0.4152(7) 0.0943(3)
In7_4 In 0.70736(3) 0.25274(7) 0.88160(3)
N5_4 N 0.6610(3) 0.2840(5) 0.8827(2)
C73_4 C 0.7269(3) 0.1949(5) 0.9457(2)
C74_4 C 0.7300(3) 0.2393(7) 0.8152(3)
C75_4 C 0.62875(19) 0.2897(4) 0.96121(17)
C76_4 C 0.63888(17) 0.3231(4) 0.9871(2)
H41_4 H 0.6605 0.3357 0.9897
C79_4 C 0.57554(16) 0.2863(4) 0.9794(2)
H43_4 H 0.5539 0.2737 0.9768
C80_4 C 0.5971(2) 0.2714(4) 0.95740(18)
H44_4 H 0.5902 0.2486 0.9397
N6_4 N 0.7055(2) 0.2260(5) 0.9291(2)
C81_4 C 0.6802(3) 0.2424(5) 0.9469(3)
N7_4 N 0.7482(3) 0.2010(5) 0.8806(2)
N8_4 N 0.7054(3) 0.2543(5) 0.8340(2)
C82_4 C 0.4953(3) 0.4899(8) 0.6721(3)
C83_4 C 0.6512(3) 0.2733(7) 0.9369(3)
C84_4 C 0.7669(3) 0.1750(7) 0.9051(3)
C85_4 C 0.7939(3) 0.1497(6) 0.8638(3)
H45_4 H 0.8097 0.1355 0.8506
C86_4 C 0.7936(3) 0.1410(6) 0.8945(3)
H46_4 H 0.8082 0.1168 0.9066
C87_4 C 0.6424(3) 0.2978(6) 0.9071(3)
C88_4 C 0.7659(3) 0.1845(7) 0.8549(3)
C95_4 C 0.6152(3) 0.3396(6) 0.8682(3)
H51_4 H 0.5993 0.3600 0.8557
C96_4 C 0.7562(3) 0.1760(5) 0.9353(3)
C97_4 C 0.6438(3) 0.3118(6) 0.8571(3)
C98_4 C 0.7157(3) 0.1876(5) 0.9767(2)
H52_4 H 0.7268 0.1693 0.9938
C99_4 C 0.6861(3) 0.2127(6) 0.9756(3)
H53_4 H 0.6716 0.2107 0.9916
C100_4 C 0.5645(2) 0.4810(5) 0.7301(3)
H54_2 H 0.5806 0.5066 0.7393
C101_4 C 0.5634(2) 0.4182(5) 0.7372(2)
C102_4 C 0.5397(2) 0.3808(4) 0.7237(2)
H55_4 H 0.5390 0.3379 0.7286
C103_4 C 0.5172(2) 0.4060(4) 0.7031(2)
H56_4 H 0.5011 0.3804 0.6938
C104_4 C 0.5183(2) 0.4688(5) 0.6959(2)
C105_2 C 0.5419(3) 0.5063(4) 0.7094(3)
H57_2 H 0.5427 0.5491 0.7045
C112_4 C 0.6815(3) 0.2816(7) 0.8153(3)
C113_4 C 0.7584(3) 0.2098(7) 0.8238(3)
C115_4 C 0.7955(2) 0.0656(3) 0.99434(17)
C116_4 C 0.77320(15) 0.0903(4) 0.97329(18)
H63_4 H 0.7538 0.0688 0.9686
C117_4 C 0.77919(18) 0.1465(4) 0.95907(16)
C118_4 C 0.8075(2) 0.1780(3) 0.96589(19)
H64_4 H 0.8116 0.2164 0.9562
C119_4 C 0.82987(16) 0.1533(4) 0.9869(2)
H65_4 H 0.8492 0.1748 0.9916
C120_4 C 0.83245(17) 0.2005(4) 0.7787(2)
H66_4 H 0.8531 0.2184 0.7794
C121_4 C 0.8108(2) 0.2166(4) 0.80042(18)
H67_4 H 0.8167 0.2455 0.8160
C122_4 C 0.7805(2) 0.1904(4) 0.79933(17)
C123_4 C 0.77190(17) 0.1480(4) 0.7765(2)
H68_4 H 0.7512 0.1301 0.7757
C124_4 C 0.7935(2) 0.1319(4) 0.75472(17)
H69_4 H 0.7876 0.1029 0.7391
C125_4 C 0.8238(2) 0.1581(4) 0.75580(18)
C126_4 C 0.6142(3) 0.3325(6) 0.8985(3)
H70_4 H 0.5983 0.3471 0.9115
C127_4 C 0.6540(3) 0.3143(7) 0.8256(3)
C128_4 C 0.6906(4) 0.2813(8) 0.7845(3)
H71_4 H 0.6785 0.2960 0.7671
C129_4 C 0.8485(2) 0.1372(5) 0.73507(19)
C130_4 C 0.8733(2) 0.1770(4) 0.7285(2)
H72_4 H 0.8750 0.2164 0.7382
C131_4 C 0.89570(19) 0.1593(4) 0.7078(2)
H73_4 H 0.9127 0.1865 0.7033
C132_4 C 0.8933(2) 0.1017(4) 0.69359(19)
C133_4 C 0.8684(2) 0.0619(4) 0.7001(2)
H74_4 H 0.8668 0.0225 0.6904
C134_4 C 0.8461(2) 0.0796(4) 0.7209(2)
H75_4 H 0.8291 0.0524 0.7253
C135_4 C 0.6306(2) 0.3451(5) 0.8040(2)
C136_4 C 0.6243(2) 0.4083(5) 0.8031(2)
H76_4 H 0.6344 0.4353 0.8177
C137_4 C 0.6031(3) 0.4322(4) 0.7808(3)
H77_4 H 0.5987 0.4755 0.7801
C138_4 C 0.5882(2) 0.3929(5) 0.75938(19)
C139_4 C 0.5946(2) 0.3296(5) 0.7603(2)
H78_4 H 0.5844 0.3027 0.7457
C140_4 C 0.6158(2) 0.3057(4) 0.7826(2)
H79_4 H 0.6201 0.2625 0.7833
C141_4 C 0.7204(4) 0.2557(7) 0.7851(3)
H80_4 H 0.7328 0.2498 0.7677
O25_4 O 0.72917(17) 0.3590(3) 0.88916(15)
O26_4 O 0.6838(3) 0.1460(5) 0.8685(2)
C142_4 C 0.9170(3) 0.0824(9) 0.6693(3)
H173_4 H 0.670314 0.132112 0.885258
H174_4 H 0.701346 0.115777 0.866035
H175_4 H 0.721247 0.386074 0.872094
H176_4 H 0.752825 0.357437 0.889559
O17_4 O 0.9181(2) 0.9404(5) 0.0913(2)
C89_4 C 0.8735(2) 0.9828(3) 0.0478(2)
H47_4 H 0.8763 0.9392 0.0496
H48_4 H 0.8383 0.9795 0.0142
C143_4 C 0.9165(3) 0.9969(7) 0.0872(3)
H54_3 H 0.0806 0.9934 0.2393
C105_3 C 0.0419(3) 0.9937(4) 0.2094(3)
H57_3 H 0.0427 0.9509 0.2045
H54_4 H 0.0806 0.0066 0.7393
C105_4 C 0.0419(3) 0.0063(4) 0.7094(3)
H57_4 H 0.0427 0.0491 0.7045
O43 O 0.0375(3) 0.4438(6) 0.9472(3)
O45 O 0.0181(3) 0.3622(5) 0.8885(2)
O46 O 0.0193(3) 0.5374(6) 0.9326(3)
O48 O 0.0303(3) 0.4535(6) 0.8753(3)
In11 In 0.73933(3) 0.27178(6) 0.15932(2)
O34 O 0.9706(3) 0.4697(5) 0.3853(2)
O35 O 0.5181(3) 0.1378(5) 0.3885(2)
N9 N 0.7413(3) 0.2591(5) 0.1125(2)
N10 N 0.7863(3) 0.3103(5) 0.1600(3)
N11 N 0.6947(3) 0.2338(6) 0.1597(3)
C145 C 0.7135(3) 0.2774(7) 0.2246(3)
C146 C 0.92761(19) 0.4836(4) 0.34832(18)
C147 C 0.92752(19) 0.4202(4) 0.34239(19)
H81 H 0.9429 0.3941 0.3524
C148 C 0.9049(2) 0.3951(3) 0.3217(2)
H82 H 0.9049 0.3518 0.3177
C149 C 0.88238(19) 0.4333(4) 0.30702(19)
C150 C 0.8825(2) 0.4967(4) 0.3130(2)
H83 H 0.8671 0.5228 0.3029
C151 C 0.9051(2) 0.5218(3) 0.3336(2)
H84 H 0.9051 0.5651 0.3377
N12 N 0.7387(3) 0.2907(5) 0.2083(2)
C153 C 0.7188(3) 0.2351(5) 0.0948(2)
C154 C 0.8309(3) 0.3587(6) 0.1767(3)
H85 H 0.8458 0.3812 0.1894
C155 C 0.7652(3) 0.2731(6) 0.0941(3)
C156 C 0.7618(3) 0.3114(6) 0.2256(3)
C157 C 0.6500(4) 0.1839(8) 0.1746(3)
H86 H 0.6349 0.1668 0.1878
C158 C 0.6022(2) 0.0927(4) 0.01394(18)
C163 C 0.6026(2) 0.0285(4) 0.01117(19)
H90 H 0.6171 0.0047 0.0237
C165 C 0.85882(19) 0.4070(4) 0.28244(17)
C166 C 0.86541(17) 0.3521(4) 0.26728(19)
H91 H 0.8851 0.3313 0.2715
C167 C 0.8432(2) 0.3277(3) 0.24597(19)
H92 H 0.8478 0.2902 0.2356
C168 C 0.81449(18) 0.3582(4) 0.23981(17)
C169 C 0.80789(16) 0.4131(4) 0.2550(2)
H93 H 0.7882 0.4339 0.2508
C170 C 0.8301(2) 0.4374(3) 0.27628(19)
H94 H 0.8256 0.4749 0.2866
C173 C 0.8907(2) 0.4222(4) 0.0082(2)
H96 H 0.8768 0.4521 0.0163
C174 C 0.88911(19) 0.3606(5) 0.01749(17)
C175 C 0.9095(2) 0.3169(4) 0.0056(2)
H97 H 0.9084 0.2748 0.0119
C177 C 0.86369(19) 0.3388(4) 0.03818(18)
C178 C 0.87048(16) 0.2946(4) 0.06064(19)
H99 H 0.8904 0.2738 0.0614
C179 C 0.8481(2) 0.2808(4) 0.08204(16)
H100 H 0.8527 0.2505 0.0974
C180 C 0.81885(18) 0.3112(4) 0.08097(17)
C181 C 0.81206(17) 0.3555(4) 0.0585(2)
H101 H 0.7921 0.3763 0.0578
C182 C 0.8345(2) 0.3693(4) 0.03711(17)
H102 H 0.8298 0.3995 0.0218
C183 C 0.8023(3) 0.3313(6) 0.1844(3)
C184 C 0.6778(3) 0.2183(7) 0.1843(3)
C185 C 0.7574(3) 0.2550(6) 0.0625(3)
H103 H 0.7712 0.2553 0.0458
C186 C 0.8320(3) 0.3452(6) 0.1464(3)
H104 H 0.8496 0.3544 0.1343
C187 C 0.7908(3) 0.3315(6) 0.2155(2)
C188 C 0.7260(3) 0.2373(7) 0.0620(3)
H105 H 0.7121 0.2286 0.0447
C189 C 0.6872(3) 0.2168(8) 0.1026(3)
C190 C 0.8040(3) 0.3163(7) 0.1354(3)
C191 C 0.6777(4) 0.2087(8) 0.1346(3)
C192 C 0.7955(3) 0.2978(7) 0.1047(3)
C193 C 0.7232(3) 0.2875(7) 0.2569(3)
H106 H 0.7111 0.2786 0.2742
C194 C 0.5988(2) 0.1646(5) 0.3068(2)
C195 C 0.5981(2) 0.1023(5) 0.3149(2)
H107 H 0.6116 0.0734 0.3054
C196 C 0.5775(3) 0.0822(5) 0.33688(19)
H108 H 0.5770 0.0396 0.3424
C197 C 0.5577(3) 0.1244(5) 0.3507(2)
C198 C 0.5585(3) 0.1867(5) 0.3426(2)
H109 H 0.5450 0.2156 0.3521
C199 C 0.5791(2) 0.2068(4) 0.3207(2)
H110 H 0.5796 0.2494 0.3151
C200 C 0.7523(4) 0.3116(8) 0.2570(3)
H111 H 0.7646 0.3261 0.2743
C201 C 0.6847(3) 0.2453(8) 0.2129(3)
O39 O 0.9535(2) 0.5653(4) 0.37567(18)
C202 C 0.9509(3) 0.5111(7) 0.3702(3)
C203 C 0.6485(4) 0.1795(8) 0.1431(3)
H112 H 0.6322 0.1616 0.1302
O40 O 0.7167(3) 0.3670(5) 0.1487(2)
O41 O 0.7562(2) 0.1739(5) 0.1705(2)
O42 O 0.5303(3) 0.0465(6) 0.3753(3)
C204 C 0.5341(4) 0.1030(9) 0.3743(3)
C205 C 0.66045(19) 0.2265(5) 0.23635(17)
C206 C 0.6458(2) 0.2697(4) 0.2546(2)
H113 H 0.6490 0.3128 0.2514
C207 C 0.6263(2) 0.2500(4) 0.27753(18)
H114 H 0.6163 0.2796 0.2900
C208 C 0.6215(2) 0.1870(5) 0.28225(17)
C209 C 0.6362(2) 0.1437(4) 0.2640(2)
H115 H 0.6329 0.1007 0.2672
C210 C 0.6557(2) 0.1635(4) 0.24107(19)
H116 H 0.6657 0.1339 0.2286
C211 C 0.6665(2) 0.1820(5) 0.07795(19)
C212 C 0.67578(18) 0.1272(5) 0.0642(2)
H117 H 0.6959 0.1092 0.0697
C213 C 0.6557(2) 0.0988(4) 0.0422(2)
H118 H 0.6620 0.0614 0.0328
C214 C 0.6263(2) 0.1252(4) 0.03408(17)
C215 C 0.61702(18) 0.1800(5) 0.0479(2)
H119 H 0.5969 0.1981 0.0423
C216 C 0.6371(2) 0.2084(4) 0.0698(2)
H120 H 0.6308 0.2458 0.0792
In13 In 0.99522(2) 0.55161(6) 0.41132(2)
In15 In 0.49522(2) 0.05161(6) 0.41132(2)
H161 H 0.696533 0.361261 0.13626
H162 H 0.712119 0.388263 0.168145
H163 H 0.777662 0.167399 0.162412
H164 H 0.757319 0.167972 0.19303
In12 In 0.99522(2) 0.44839(6) 0.91132(2)
O36 O 0.9731(2) 0.3732(5) 0.9403(2)
O37 O 0.9564(2) 0.4702(5) 0.9445(2)
O38 O 0.5193(3) 0.0374(6) 0.9326(3)
C152 C 0.5373(4) 0.0012(8) 0.9489(3)
C159 C 0.5810(2) 0.1276(4) 0.9956(2)
H87 H 0.5807 0.1715 0.9975
C160 C 0.5603(2) 0.0983(5) 0.9745(2)
H88 H 0.5459 0.1221 0.9620
C161 C 0.5608(2) 0.0341(5) 0.9717(2)
C164 C 0.9571(3) 0.4136(8) 0.9520(3)
C171 C 0.93306(19) 0.3962(5) 0.97520(18)
C172 C 0.9127(2) 0.4399(4) 0.9871(2)
H95 H 0.9138 0.4820 0.9807
C176 C 0.9314(2) 0.3346(4) 0.9845(2)
H98 H 0.9453 0.3047 0.9763
O44 O 0.9706(3) 0.5303(5) 0.8853(2)
O47 O 0.9535(2) 0.4347(4) 0.87567(18)
O33 O 0.5375(3) 0.9438(6) 0.9472(3)
C162 C 0.5820(2) 0.9992(4) 0.9901(2)
H89 H 0.5823 0.9553 0.9882
In14 In 0.49522(2) 0.94839(6) 0.91132(2)
O43_2 O 0.0375(3) 0.5562(6) 0.4472(3)
O45_2 O 0.0181(3) 0.6378(5) 0.3885(2)
O46_2 O 0.0193(3) 0.4626(6) 0.4326(3)
O48_2 O 0.0303(3) 0.5465(6) 0.3753(3)
O33_2 O 0.5375(3) 0.0562(6) 0.4472(3)
C162_2 C 0.5820(2) 0.0008(4) 0.4901(2)
H89_2 H 0.5823 0.0447 0.4882
In11_2 In 0.73933(3) 0.72822(6) 0.65932(2)
O35_2 O 0.5181(3) 0.8622(5) 0.8885(2)
N9_2 N 0.7413(3) 0.7409(5) 0.6125(2)
O36_2 O 0.9731(2) 0.6268(5) 0.4403(2)
N10_2 N 0.7863(3) 0.6897(5) 0.6600(3)
O37_2 O 0.9564(2) 0.5298(5) 0.4445(2)
N11_2 N 0.6947(3) 0.7662(6) 0.6597(3)
O38_2 O 0.5193(3) 0.9626(6) 0.4326(3)
C145_2 C 0.7135(3) 0.7226(7) 0.7246(3)
C146_2 C 0.92761(19) 0.5164(4) 0.84832(18)
C147_2 C 0.92752(19) 0.5798(4) 0.84239(19)
H81_2 H 0.9429 0.6059 0.8524
C148_2 C 0.9049(2) 0.6049(3) 0.8217(2)
H82_2 H 0.9049 0.6482 0.8177
C149_2 C 0.88238(19) 0.5667(4) 0.80702(19)
C150_2 C 0.8825(2) 0.5033(4) 0.8130(2)
H83_2 H 0.8671 0.4772 0.8029
C151_2 C 0.9051(2) 0.4782(3) 0.8336(2)
H84_2 H 0.9051 0.4349 0.8377
N12_2 N 0.7387(3) 0.7093(5) 0.7083(2)
C152_2 C 0.5373(4) 0.9988(8) 0.4489(3)
C153_2 C 0.7188(3) 0.7649(5) 0.5948(2)
C154_2 C 0.8309(3) 0.6413(6) 0.6767(3)
H85_2 H 0.8458 0.6188 0.6894
C155_2 C 0.7652(3) 0.7269(6) 0.5941(3)
C156_2 C 0.7618(3) 0.6886(6) 0.7256(3)
C157_2 C 0.6500(4) 0.8161(8) 0.6746(3)
H86_2 H 0.6349 0.8332 0.6878
C158_2 C 0.6022(2) 0.9073(4) 0.51394(18)
C159_2 C 0.5810(2) 0.8724(4) 0.4956(2)
H87_2 H 0.5807 0.8285 0.4975
C160_2 C 0.5603(2) 0.9017(5) 0.4745(2)
H88_2 H 0.5459 0.8779 0.4620
C161_2 C 0.5608(2) 0.9659(5) 0.4717(2)
C163_2 C 0.6026(2) 0.9715(4) 0.51117(19)
H90_2 H 0.6171 0.9953 0.5237
C164_2 C 0.9571(3) 0.5864(8) 0.4520(3)
C165_2 C 0.85882(19) 0.5930(4) 0.78244(17)
C166_2 C 0.86541(17) 0.6479(4) 0.76728(19)
H91_2 H 0.8851 0.6687 0.7715
C167_2 C 0.8432(2) 0.6723(3) 0.74597(19)
H92_2 H 0.8478 0.7098 0.7356
C168_2 C 0.81449(18) 0.6418(4) 0.73981(17)
C169_2 C 0.80789(16) 0.5869(4) 0.7550(2)
H93_2 H 0.7882 0.5661 0.7508
C170_2 C 0.8301(2) 0.5626(3) 0.77628(19)
H94_2 H 0.8256 0.5251 0.7866
C171_2 C 0.93306(19) 0.6038(5) 0.47520(18)
C172_2 C 0.9127(2) 0.5601(4) 0.4871(2)
H95_2 H 0.9138 0.5180 0.4807
C173_2 C 0.8907(2) 0.5778(4) 0.5082(2)
H96_2 H 0.8768 0.5479 0.5163
C174_2 C 0.88911(19) 0.6394(5) 0.51749(17)
C175_2 C 0.9095(2) 0.6831(4) 0.5056(2)
H97_2 H 0.9084 0.7252 0.5119
C176_2 C 0.9314(2) 0.6654(4) 0.4845(2)
H98_2 H 0.9453 0.6953 0.4763
C177_2 C 0.86369(19) 0.6612(4) 0.53818(18)
C178_2 C 0.87048(16) 0.7054(4) 0.56064(19)
H99_2 H 0.8904 0.7262 0.5614
C179_2 C 0.8481(2) 0.7192(4) 0.58204(16)
H100_2 H 0.8527 0.7495 0.5974
C180_2 C 0.81885(18) 0.6888(4) 0.58097(17)
C181_2 C 0.81206(17) 0.6445(4) 0.5585(2)
H101_2 H 0.7921 0.6237 0.5578
C182_2 C 0.8345(2) 0.6307(4) 0.53711(17)
H102_2 H 0.8298 0.6005 0.5218
C183_2 C 0.8023(3) 0.6687(6) 0.6844(3)
C184_2 C 0.6778(3) 0.7817(7) 0.6843(3)
C185_2 C 0.7574(3) 0.7450(6) 0.5625(3)
H103_2 H 0.7712 0.7447 0.5458
C186_2 C 0.8320(3) 0.6548(6) 0.6464(3)
H104_2 H 0.8496 0.6456 0.6343
C187_2 C 0.7908(3) 0.6685(6) 0.7155(2)
C188_2 C 0.7260(3) 0.7627(7) 0.5620(3)
H105_2 H 0.7121 0.7714 0.5447
C189_2 C 0.6872(3) 0.7832(8) 0.6026(3)
C190_2 C 0.8040(3) 0.6837(7) 0.6354(3)
C191_2 C 0.6777(4) 0.7913(8) 0.6346(3)
C192_2 C 0.7955(3) 0.7022(7) 0.6047(3)
C193_2 C 0.7232(3) 0.7125(7) 0.7569(3)
H106_2 H 0.7111 0.7214 0.7742
C194_2 C 0.5988(2) 0.8354(5) 0.8068(2)
C195_2 C 0.5981(2) 0.8977(5) 0.8149(2)
H107_2 H 0.6116 0.9266 0.8054
C196_2 C 0.5775(3) 0.9178(5) 0.83688(19)
H108_2 H 0.5770 0.9604 0.8424
C197_2 C 0.5577(3) 0.8756(5) 0.8507(2)
C198_2 C 0.5585(3) 0.8133(5) 0.8426(2)
H109_2 H 0.5450 0.7844 0.8521
C199_2 C 0.5791(2) 0.7932(4) 0.8207(2)
H110_2 H 0.5796 0.7506 0.8151
C200_2 C 0.7523(4) 0.6884(8) 0.7570(3)
H111_2 H 0.7646 0.6739 0.7743
C201_2 C 0.6847(3) 0.7547(8) 0.7129(3)
C202_2 C 0.9509(3) 0.4889(7) 0.8702(3)
C203_2 C 0.6485(4) 0.8205(8) 0.6431(3)
H112_2 H 0.6322 0.8384 0.6302
O40_2 O 0.7167(3) 0.6330(5) 0.6487(2)
O41_2 O 0.7562(2) 0.8261(5) 0.6705(2)
O42_2 O 0.5303(3) 0.9535(6) 0.8753(3)
C204_2 C 0.5341(4) 0.8970(9) 0.8743(3)
C205_2 C 0.66045(19) 0.7735(5) 0.73635(17)
C206_2 C 0.6458(2) 0.7303(4) 0.7546(2)
H113_2 H 0.6490 0.6872 0.7514
C207_2 C 0.6263(2) 0.7500(4) 0.77753(18)
H114_2 H 0.6163 0.7204 0.7900
C208_2 C 0.6215(2) 0.8130(5) 0.78225(17)
C209_2 C 0.6362(2) 0.8563(4) 0.7640(2)
H115_2 H 0.6329 0.8993 0.7672
C210_2 C 0.6557(2) 0.8365(4) 0.74107(19)
H116_2 H 0.6657 0.8661 0.7286
C211_2 C 0.6665(2) 0.8180(5) 0.57795(19)
C212_2 C 0.67578(18) 0.8728(5) 0.5642(2)
H117_2 H 0.6959 0.8908 0.5697
C213_2 C 0.6557(2) 0.9012(4) 0.5422(2)
H118_2 H 0.6620 0.9386 0.5328
C214_2 C 0.6263(2) 0.8748(4) 0.53408(17)
C215_2 C 0.61702(18) 0.8200(5) 0.5479(2)
H119_2 H 0.5969 0.8019 0.5423
C216_2 C 0.6371(2) 0.7916(4) 0.5698(2)
H120_2 H 0.6308 0.7542 0.5792
H161_2 H 0.696533 0.638739 0.63626
H162_2 H 0.712119 0.611737 0.668145
H163_2 H 0.777662 0.832601 0.662412
H164_2 H 0.757319 0.832028 0.69303
H83_3 H 0.3671 0.0228 0.3029
C151_3 C 0.4051(2) 0.0218(3) 0.3336(2)
H84_3 H 0.4051 0.0651 0.3377
O39_2 O 0.4535(2) 0.0653(4) 0.37567(18)
C202_3 C 0.4509(3) 0.0111(7) 0.3702(3)
O44_2 O 0.4706(3) 0.0303(5) 0.8853(2)
In11_3 In 0.23933(3) 0.77178(6) 0.15932(2)
O34_2 O 0.4706(3) 0.9697(5) 0.3853(2)
N9_3 N 0.2413(3) 0.7591(5) 0.1125(2)
N10_3 N 0.2863(3) 0.8103(5) 0.1600(3)
N11_3 N 0.1947(3) 0.7338(6) 0.1597(3)
C145_3 C 0.2135(3) 0.7774(7) 0.2246(3)
C146_3 C 0.42761(19) 0.9836(4) 0.34832(18)
C147_3 C 0.42752(19) 0.9202(4) 0.34239(19)
H81_3 H 0.4429 0.8941 0.3524
C148_3 C 0.4049(2) 0.8951(3) 0.3217(2)
H82_3 H 0.4049 0.8518 0.3177
C149_3 C 0.38238(19) 0.9333(4) 0.30702(19)
C150_3 C 0.3825(2) 0.9967(4) 0.3130(2)
N12_3 N 0.2387(3) 0.7907(5) 0.2083(2)
C153_3 C 0.2188(3) 0.7351(5) 0.0948(2)
C154_3 C 0.3309(3) 0.8587(6) 0.1767(3)
H85_3 H 0.3458 0.8812 0.1894
C155_3 C 0.2652(3) 0.7731(6) 0.0941(3)
C156_3 C 0.2618(3) 0.8114(6) 0.2256(3)
C157_3 C 0.1500(4) 0.6839(8) 0.1746(3)
H86_3 H 0.1349 0.6668 0.1878
C158_3 C 0.1022(2) 0.5927(4) 0.01394(18)
C163_3 C 0.1026(2) 0.5285(4) 0.01117(19)
H90_3 H 0.1171 0.5047 0.0237
C165_3 C 0.35882(19) 0.9070(4) 0.28244(17)
C166_3 C 0.36541(17) 0.8521(4) 0.26728(19)
H91_3 H 0.3851 0.8313 0.2715
C167_3 C 0.3432(2) 0.8277(3) 0.24597(19)
H92_3 H 0.3478 0.7902 0.2356
C168_3 C 0.31449(18) 0.8582(4) 0.23981(17)
C169_3 C 0.30789(16) 0.9131(4) 0.2550(2)
H93_3 H 0.2882 0.9339 0.2508
C170_3 C 0.3301(2) 0.9374(3) 0.27628(19)
H94_3 H 0.3256 0.9749 0.2866
C173_3 C 0.3907(2) 0.9222(4) 0.0082(2)
H96_3 H 0.3768 0.9521 0.0163
C174_3 C 0.38911(19) 0.8606(5) 0.01749(17)
C175_3 C 0.4095(2) 0.8169(4) 0.0056(2)
H97_3 H 0.4084 0.7748 0.0119
C177_3 C 0.36369(19) 0.8388(4) 0.03818(18)
C178_3 C 0.37048(16) 0.7946(4) 0.06064(19)
H99_3 H 0.3904 0.7738 0.0614
C179_3 C 0.3481(2) 0.7808(4) 0.08204(16)
H100_3 H 0.3527 0.7505 0.0974
C180_3 C 0.31885(18) 0.8112(4) 0.08097(17)
C181_3 C 0.31206(17) 0.8555(4) 0.0585(2)
H101_3 H 0.2921 0.8763 0.0578
C182_3 C 0.3345(2) 0.8693(4) 0.03711(17)
H102_3 H 0.3298 0.8995 0.0218
C183_3 C 0.3023(3) 0.8313(6) 0.1844(3)
C184_3 C 0.1778(3) 0.7183(7) 0.1843(3)
C185_3 C 0.2574(3) 0.7550(6) 0.0625(3)
H103_3 H 0.2712 0.7553 0.0458
C186_3 C 0.3320(3) 0.8452(6) 0.1464(3)
H104_3 H 0.3496 0.8544 0.1343
C187_3 C 0.2908(3) 0.8315(6) 0.2155(2)
C188_3 C 0.2260(3) 0.7373(7) 0.0620(3)
H105_3 H 0.2121 0.7286 0.0447
C189_3 C 0.1872(3) 0.7168(8) 0.1026(3)
C190_3 C 0.3040(3) 0.8163(7) 0.1354(3)
C191_3 C 0.1777(4) 0.7087(8) 0.1346(3)
C192_3 C 0.2955(3) 0.7978(7) 0.1047(3)
C193_3 C 0.2232(3) 0.7875(7) 0.2569(3)
H106_3 H 0.2111 0.7786 0.2742
C194_3 C 0.0988(2) 0.6646(5) 0.3068(2)
C195_3 C 0.0981(2) 0.6023(5) 0.3149(2)
H107_3 H 0.1116 0.5734 0.3054
C196_3 C 0.0775(3) 0.5822(5) 0.33688(19)
H108_3 H 0.0770 0.5396 0.3424
C197_3 C 0.0577(3) 0.6244(5) 0.3507(2)
C198_3 C 0.0585(3) 0.6867(5) 0.3426(2)
H109_3 H 0.0450 0.7156 0.3521
C199_3 C 0.0791(2) 0.7068(4) 0.3207(2)
H110_3 H 0.0796 0.7494 0.3151
C200_3 C 0.2523(4) 0.8116(8) 0.2570(3)
H111_3 H 0.2646 0.8261 0.2743
C201_3 C 0.1847(3) 0.7453(8) 0.2129(3)
C203_3 C 0.1485(4) 0.6795(8) 0.1431(3)
H112_3 H 0.1322 0.6616 0.1302
O40_3 O 0.2167(3) 0.8670(5) 0.1487(2)
O41_3 O 0.2562(2) 0.6739(5) 0.1705(2)
C204_3 C 0.0341(4) 0.6030(9) 0.3743(3)
C205_3 C 0.16045(19) 0.7265(5) 0.23635(17)
C206_3 C 0.1458(2) 0.7697(4) 0.2546(2)
H113_3 H 0.1490 0.8128 0.2514
C207_3 C 0.1263(2) 0.7500(4) 0.27753(18)
H114_3 H 0.1163 0.7796 0.2900
C208_3 C 0.1215(2) 0.6870(5) 0.28225(17)
C209_3 C 0.1362(2) 0.6437(4) 0.2640(2)
H115_3 H 0.1329 0.6007 0.2672
C210_3 C 0.1557(2) 0.6635(4) 0.24107(19)
H116_3 H 0.1657 0.6339 0.2286
C211_3 C 0.1665(2) 0.6820(5) 0.07795(19)
C212_3 C 0.17578(18) 0.6272(5) 0.0642(2)
H117_3 H 0.1959 0.6092 0.0697
C213_3 C 0.1557(2) 0.5988(4) 0.0422(2)
H118_3 H 0.1620 0.5614 0.0328
C214_3 C 0.1263(2) 0.6252(4) 0.03408(17)
C215_3 C 0.11702(18) 0.6800(5) 0.0479(2)
H119_3 H 0.0969 0.6981 0.0423
C216_3 C 0.1371(2) 0.7084(4) 0.0698(2)
H120_3 H 0.1308 0.7458 0.0792
H161_3 H 0.196533 0.861261 0.13626
H162_3 H 0.212119 0.888263 0.168145
H163_3 H 0.277662 0.667399 0.162412
H164_3 H 0.257319 0.667972 0.19303
O36_3 O 0.4731(2) 0.8732(5) 0.9403(2)
O37_3 O 0.4564(2) 0.9702(5) 0.9445(2)
C152_3 C 0.0373(4) 0.5012(8) 0.9489(3)
C159_3 C 0.0810(2) 0.6276(4) 0.9956(2)
H87_3 H 0.0807 0.6715 0.9975
C160_3 C 0.0603(2) 0.5983(5) 0.9745(2)
H88_3 H 0.0459 0.6221 0.9620
C161_3 C 0.0608(2) 0.5341(5) 0.9717(2)
C162_3 C 0.0820(2) 0.4992(4) 0.9901(2)
H89_3 H 0.0823 0.4553 0.9882
C164_3 C 0.4571(3) 0.9136(8) 0.9520(3)
C171_3 C 0.43306(19) 0.8962(5) 0.97520(18)
C172_3 C 0.4127(2) 0.9399(4) 0.9871(2)
H95_3 H 0.4138 0.9820 0.9807
C176_3 C 0.4314(2) 0.8346(4) 0.9845(2)
H98_3 H 0.4453 0.8047 0.9763
O47_2 O 0.4535(2) 0.9347(4) 0.87567(18)
In11_4 In 0.23933(3) 0.22822(6) 0.65932(2)
N9_4 N 0.2413(3) 0.2409(5) 0.6125(2)
O36_4 O 0.4731(2) 0.1268(5) 0.4403(2)
N10_4 N 0.2863(3) 0.1897(5) 0.6600(3)
O37_4 O 0.4564(2) 0.0298(5) 0.4445(2)
N11_4 N 0.1947(3) 0.2662(6) 0.6597(3)
C145_4 C 0.2135(3) 0.2226(7) 0.7246(3)
C146_4 C 0.42761(19) 0.0164(4) 0.84832(18)
C147_4 C 0.42752(19) 0.0798(4) 0.84239(19)
H81_4 H 0.4429 0.1059 0.8524
C148_4 C 0.4049(2) 0.1049(3) 0.8217(2)
H82_4 H 0.4049 0.1482 0.8177
C149_4 C 0.38238(19) 0.0667(4) 0.80702(19)
C150_4 C 0.3825(2) 0.0033(4) 0.8130(2)
N12_4 N 0.2387(3) 0.2093(5) 0.7083(2)
C152_4 C 0.0373(4) 0.4988(8) 0.4489(3)
C153_4 C 0.2188(3) 0.2649(5) 0.5948(2)
C154_4 C 0.3309(3) 0.1413(6) 0.6767(3)
H85_4 H 0.3458 0.1188 0.6894
C155_4 C 0.2652(3) 0.2269(6) 0.5941(3)
C156_4 C 0.2618(3) 0.1886(6) 0.7256(3)
C157_4 C 0.1500(4) 0.3161(8) 0.6746(3)
H86_4 H 0.1349 0.3332 0.6878
C158_4 C 0.1022(2) 0.4073(4) 0.51394(18)
C159_4 C 0.0810(2) 0.3724(4) 0.4956(2)
H87_4 H 0.0807 0.3285 0.4975
C160_4 C 0.0603(2) 0.4017(5) 0.4745(2)
H88_4 H 0.0459 0.3779 0.4620
C161_4 C 0.0608(2) 0.4659(5) 0.4717(2)
C162_4 C 0.0820(2) 0.5008(4) 0.4901(2)
H89_4 H 0.0823 0.5447 0.4882
C163_4 C 0.1026(2) 0.4715(4) 0.51117(19)
H90_4 H 0.1171 0.4953 0.5237
C164_4 C 0.4571(3) 0.0864(8) 0.4520(3)
C165_4 C 0.35882(19) 0.0930(4) 0.78244(17)
C166_4 C 0.36541(17) 0.1479(4) 0.76728(19)
H91_4 H 0.3851 0.1687 0.7715
C167_4 C 0.3432(2) 0.1723(3) 0.74597(19)
H92_4 H 0.3478 0.2098 0.7356
C168_4 C 0.31449(18) 0.1418(4) 0.73981(17)
C169_4 C 0.30789(16) 0.0869(4) 0.7550(2)
H93_4 H 0.2882 0.0661 0.7508
C170_4 C 0.3301(2) 0.0626(3) 0.77628(19)
H94_4 H 0.3256 0.0251 0.7866
C171_4 C 0.43306(19) 0.1038(5) 0.47520(18)
C172_4 C 0.4127(2) 0.0601(4) 0.4871(2)
H95_4 H 0.4138 0.0180 0.4807
C173_4 C 0.3907(2) 0.0778(4) 0.5082(2)
H96_4 H 0.3768 0.0479 0.5163
C174_4 C 0.38911(19) 0.1394(5) 0.51749(17)
C175_4 C 0.4095(2) 0.1831(4) 0.5056(2)
H97_4 H 0.4084 0.2252 0.5119
C176_4 C 0.4314(2) 0.1654(4) 0.4845(2)
H98_4 H 0.4453 0.1953 0.4763
C177_4 C 0.36369(19) 0.1612(4) 0.53818(18)
C178_4 C 0.37048(16) 0.2054(4) 0.56064(19)
H99_4 H 0.3904 0.2262 0.5614
C179_4 C 0.3481(2) 0.2192(4) 0.58204(16)
H100_4 H 0.3527 0.2495 0.5974
C180_4 C 0.31885(18) 0.1888(4) 0.58097(17)
C181_4 C 0.31206(17) 0.1445(4) 0.5585(2)
H101_4 H 0.2921 0.1237 0.5578
C182_4 C 0.3345(2) 0.1307(4) 0.53711(17)
H102_4 H 0.3298 0.1005 0.5218
C183_4 C 0.3023(3) 0.1687(6) 0.6844(3)
C184_4 C 0.1778(3) 0.2817(7) 0.6843(3)
C185_4 C 0.2574(3) 0.2450(6) 0.5625(3)
H103_4 H 0.2712 0.2447 0.5458
C186_4 C 0.3320(3) 0.1548(6) 0.6464(3)
H104_4 H 0.3496 0.1456 0.6343
C187_4 C 0.2908(3) 0.1685(6) 0.7155(2)
C188_4 C 0.2260(3) 0.2627(7) 0.5620(3)
H105_4 H 0.2121 0.2714 0.5447
C189_4 C 0.1872(3) 0.2832(8) 0.6026(3)
C190_4 C 0.3040(3) 0.1837(7) 0.6354(3)
C191_4 C 0.1777(4) 0.2913(8) 0.6346(3)
C192_4 C 0.2955(3) 0.2022(7) 0.6047(3)
C193_4 C 0.2232(3) 0.2125(7) 0.7569(3)
H106_4 H 0.2111 0.2214 0.7742
C194_4 C 0.0988(2) 0.3354(5) 0.8068(2)
C195_4 C 0.0981(2) 0.3977(5) 0.8149(2)
H107_4 H 0.1116 0.4266 0.8054
C196_4 C 0.0775(3) 0.4178(5) 0.83688(19)
H108_4 H 0.0770 0.4604 0.8424
C197_4 C 0.0577(3) 0.3756(5) 0.8507(2)
C198_4 C 0.0585(3) 0.3133(5) 0.8426(2)
H109_4 H 0.0450 0.2844 0.8521
C199_4 C 0.0791(2) 0.2932(4) 0.8207(2)
H110_4 H 0.0796 0.2506 0.8151
C200_4 C 0.2523(4) 0.1884(8) 0.7570(3)
H111_4 H 0.2646 0.1739 0.7743
C201_4 C 0.1847(3) 0.2547(8) 0.7129(3)
C203_4 C 0.1485(4) 0.3205(8) 0.6431(3)
H112_4 H 0.1322 0.3384 0.6302
O40_4 O 0.2167(3) 0.1330(5) 0.6487(2)
O41_4 O 0.2562(2) 0.3261(5) 0.6705(2)
C204_4 C 0.0341(4) 0.3970(9) 0.8743(3)
C205_4 C 0.16045(19) 0.2735(5) 0.73635(17)
C206_4 C 0.1458(2) 0.2303(4) 0.7546(2)
H113_4 H 0.1490 0.1872 0.7514
C207_4 C 0.1263(2) 0.2500(4) 0.77753(18)
H114_4 H 0.1163 0.2204 0.7900
C208_4 C 0.1215(2) 0.3130(5) 0.78225(17)
C209_4 C 0.1362(2) 0.3563(4) 0.7640(2)
H115_4 H 0.1329 0.3993 0.7672
C210_4 C 0.1557(2) 0.3365(4) 0.74107(19)
H116_4 H 0.1657 0.3661 0.7286
C211_4 C 0.1665(2) 0.3180(5) 0.57795(19)
C212_4 C 0.17578(18) 0.3728(5) 0.5642(2)
H117_4 H 0.1959 0.3908 0.5697
C213_4 C 0.1557(2) 0.4012(4) 0.5422(2)
H118_4 H 0.1620 0.4386 0.5328
C214_4 C 0.1263(2) 0.3748(4) 0.53408(17)
C215_4 C 0.11702(18) 0.3200(5) 0.5479(2)
H119_4 H 0.0969 0.3019 0.5423
C216_4 C 0.1371(2) 0.2916(4) 0.5698(2)
H120_4 H 0.1308 0.2542 0.5792
H161_4 H 0.196533 0.138739 0.63626
H162_4 H 0.212119 0.111737 0.668145
H163_4 H 0.277662 0.332601 0.662412
H164_4 H 0.257319 0.332028 0.69303
H83_4 H 0.3671 0.9772 0.8029
C151_4 C 0.4051(2) 0.9782(3) 0.8336(2)
H84_4 H 0.4051 0.9349 0.8377
C202_4 C 0.4509(3) 0.9889(7) 0.8702(3)
O54 O 0.1447(4) 0.0418(8) 0.5233(3)
H157 H 0.1098 0.0389 0.4744
In18 In 0.18052(3) 0.04412(7) 0.56147(3)
O59 O 0.2040(3) 0.0327(6) 0.0881(3)
O63 O 0.1508(4) 0.0370(8) 0.0419(4)
In16 In 0.18052(3) 0.95588(7) 0.06147(3)
O50 O 0.1415(4) 0.9640(7) 0.0956(4)
C220 C 0.1392(5) 0.9062(11) 0.1004(5)
O51 O 0.1548(3) 0.8799(6) 0.0816(3)
C226 C 0.0249(4) 0.8153(9) 0.2938(4)
H123 H 0.0429 0.8246 0.2822
C227 C 0.0713(3) 0.8393(8) 0.1615(3)
C228 C 0.0671(3) 0.8975(7) 0.1483(3)
H124 H 0.0492 0.9220 0.1530
C229 C 0.0892(4) 0.9200(5) 0.1283(3)
H125 H 0.0863 0.9598 0.1193
C230 C 0.1154(3) 0.8842(7) 0.1215(3)
C231 C 0.1197(3) 0.8259(7) 0.1347(3)
H126 H 0.1376 0.8015 0.1300
C232 C 0.0976(4) 0.8035(6) 0.1547(3)
H127 H 0.1005 0.7637 0.1637
C247 C 0.0628(2) 0.7795(5) 0.2101(3)
H135 H 0.0848 0.7691 0.2122
C248 C 0.0513(3) 0.8126(5) 0.1847(2)
C249 C 0.0191(3) 0.8278(5) 0.1816(2)
H136 H 0.0112 0.8505 0.1643
C251 C 0.0101(2) 0.7767(5) 0.2294(2)
C252 C 0.0422(3) 0.7615(5) 0.2324(2)
H138 H 0.0501 0.7389 0.2498
C268 C 0.0513(3) 0.8768(7) 0.4331(3)
C269 C 0.0305(4) 0.9131(5) 0.4151(3)
H148 H 0.0308 0.9570 0.4173
C270 C 0.0093(3) 0.8853(7) 0.3939(3)
C271 C 0.0089(3) 0.8212(7) 0.3908(3)
C272 C 0.0297(4) 0.7848(5) 0.4088(3)
H150 H 0.0295 0.7410 0.4066
C273 C 0.0509(3) 0.8127(7) 0.4299(3)
H151 H 0.0651 0.7878 0.4422
C280 C 0.1377(6) 0.9878(10) 0.5216(5)
O56 O 0.1508(4) 0.9630(8) 0.5419(4)
C282 C 0.1038(4) 0.8997(8) 0.5030(3)
H156 H 0.1114 0.8749 0.5197
C283 C 0.1139(3) 0.9609(9) 0.5006(3)
C284 C 0.1029(4) 0.9972(6) 0.4761(4)
C285 C 0.0818(4) 0.9723(8) 0.4540(3)
H158 H 0.0742 0.9971 0.4372
C286 C 0.0717(3) 0.9112(8) 0.4564(3)
C287 C 0.0827(4) 0.8749(6) 0.4809(4)
H159 H 0.0758 0.8331 0.4825
C288 C 0.0193(4) 0.8327(9) 0.3223(4)
H160 H 0.0311 0.8652 0.3321
O60 O 0.2214(3) 0.9364(6) 0.0958(2)
O61 O 0.1447(4) 0.9582(8) 0.0233(3)
O62 O 0.2223(3) 0.9863(6) 0.0306(3)
O64 O 0.2034(3) 0.8897(6) 0.0322(3)
In17 In 0.93470(3) 0.73104(8) 0.31204(3)
C217 C 0.9871(4) 0.7660(7) 0.2541(4)
C218 C 0.9131(4) 0.7163(8) 0.3792(4)
N13 N 0.9385(3) 0.7141(6) 0.2644(3)
O49 O 0.7040(3) 0.5327(6) 0.0881(3)
C219 C 0.9610(4) 0.7319(8) 0.2461(4)
N14 N 0.9371(3) 0.7358(6) 0.3595(3)
N15 N 0.9804(3) 0.7690(6) 0.3109(3)
C221 C 0.9981(4) 0.7801(9) 0.2851(4)
C222 C 0.9163(4) 0.6757(9) 0.2482(4)
C223 C 0.8446(4) 0.6429(7) 0.3284(4)
H121 H 0.8283 0.6277 0.3407
C224 C 0.8464(4) 0.6388(8) 0.2980(4)
H122 H 0.8291 0.6226 0.2858
C225 C 0.7240(4) 0.4953(10) 0.0998(4)
C233 C 0.9947(4) 0.8001(8) 0.3373(4)
C234 C 0.8837(3) 0.6887(6) 0.3680(3)
C235 C 0.9598(4) 0.7609(8) 0.3780(4)
C236 C 0.8665(3) 0.6285(6) 0.2294(3)
C237 C 0.8535(4) 0.6678(5) 0.2069(3)
H128 H 0.8599 0.7100 0.2064
C238 C 0.8312(3) 0.6452(7) 0.1853(3)
H129 H 0.8223 0.6720 0.1699
C239 C 0.8219(3) 0.5833(7) 0.1861(2)
C240 C 0.8349(3) 0.5441(5) 0.2086(3)
H130 H 0.8286 0.5018 0.2091
C241 C 0.8572(3) 0.5667(6) 0.2302(3)
H131 H 0.8661 0.5399 0.2456
C242 C 0.9301(4) 0.6760(8) 0.2187(4)
H132 H 0.9201 0.6563 0.2014
O52 O 0.7214(3) 0.4364(6) 0.0958(2)
C243 C 0.8739(4) 0.6586(7) 0.2848(3)
N16 N 0.8890(3) 0.6833(7) 0.3114(3)
C244 C 0.9575(4) 0.7054(8) 0.2173(4)
H133 H 0.9713 0.7078 0.2008
C245 C 0.9470(4) 0.7662(9) 0.4073(4)
H134 H 0.9560 0.7918 0.4231
C246 C 0.8853(4) 0.6554(7) 0.2557(4)
C250 C 0.9985(2) 0.8099(5) 0.2040(3)
H137 H 0.9765 0.8203 0.2019
C253 C 0.9216(4) 0.7322(8) 0.4102(4)
H139 H 0.9114 0.7210 0.4283
C254 C 0.9845(4) 0.7941(8) 0.3669(3)
C255 C 0.8609(3) 0.6700(5) 0.3921(2)
C256 C 0.8310(3) 0.6976(4) 0.3921(2)
H140 H 0.8251 0.7280 0.3772
C257 C 0.8096(2) 0.6806(5) 0.4139(3)
H141 H 0.7892 0.6995 0.4140
C258 C 0.8182(2) 0.6361(5) 0.4358(2)
C259 C 0.8481(3) 0.6085(4) 0.4358(2)
H142 H 0.8539 0.5781 0.4507
C260 C 0.8694(2) 0.6254(5) 0.4139(3)
H143 H 0.8899 0.6066 0.4139
C261 C 0.7469(3) 0.5777(6) 0.1350(3)
H144 H 0.7296 0.6037 0.1284
C262 C 0.7701(3) 0.5998(5) 0.1559(3)
H145 H 0.7687 0.6408 0.1636
C263 C 0.7954(3) 0.5617(6) 0.1655(2)
C264 C 0.7973(2) 0.5016(6) 0.1542(3)
H146 H 0.8146 0.4756 0.1608
C265 C 0.7741(3) 0.4796(5) 0.1333(3)
H147 H 0.7755 0.4385 0.1256
C266 C 0.7489(3) 0.5176(7) 0.1237(3)
C267 C 0.8728(4) 0.6753(8) 0.3379(4)
O53 O 0.9600(3) 0.6350(5) 0.3209(2)
H149 H 0.9951 0.9101 0.3816
C274 C 0.7956(2) 0.6196(6) 0.4596(2)
C275 C 0.7739(3) 0.6647(4) 0.4676(3)
H152 H 0.7750 0.7052 0.4591
C276 C 0.7507(3) 0.6507(5) 0.4882(3)
H153 H 0.7359 0.6816 0.4937
C277 C 0.7492(3) 0.5916(6) 0.5007(2)
C278 C 0.7709(3) 0.5464(5) 0.4926(3)
H154 H 0.7698 0.5060 0.5011
C279 C 0.7941(3) 0.5604(5) 0.4720(3)
H155 H 0.8089 0.5296 0.4665
O55 O 0.7223(3) 0.5137(6) 0.5306(3)
O57 O 0.7034(3) 0.6103(6) 0.5322(3)
C281 C 0.7249(5) 0.5717(9) 0.5230(5)
O58 O 0.9096(2) 0.8368(5) 0.3061(2)
In19 In 0.68052(3) 0.45588(7) 0.06147(3)
In20 In 0.68052(3) 0.54412(7) 0.56147(3)
H165 H 0.981399 0.635673 0.312135
H166 H 0.962326 0.627279 0.343265
H167 H 0.889101 0.833248 0.293974
H168 H 0.905599 0.854071 0.32661
C280_2 C 0.1377(6) 0.0122(10) 0.0216(5)
C282_2 C 0.1038(4) 0.1003(8) 0.0030(3)
H156_2 H 0.1114 0.1251 0.0197
C283_2 C 0.1139(3) 0.0391(9) 0.0006(3)
O50_2 O 0.1415(4) 0.0360(7) 0.5956(4)
C220_2 C 0.1392(5) 0.0938(11) 0.6004(5)
O51_2 O 0.1548(3) 0.1201(6) 0.5816(3)
C226_2 C 0.0249(4) 0.1847(9) 0.7938(4)
H123_2 H 0.0429 0.1754 0.7822
C227_2 C 0.0713(3) 0.1607(8) 0.6615(3)
C228_2 C 0.0671(3) 0.1025(7) 0.6483(3)
H124_2 H 0.0492 0.0780 0.6530
C229_2 C 0.0892(4) 0.0800(5) 0.6283(3)
H125_2 H 0.0863 0.0402 0.6193
C230_2 C 0.1154(3) 0.1158(7) 0.6215(3)
C231_2 C 0.1197(3) 0.1741(7) 0.6347(3)
H126_2 H 0.1376 0.1985 0.6300
C232_2 C 0.0976(4) 0.1965(6) 0.6547(3)
H127_2 H 0.1005 0.2363 0.6637
C247_2 C 0.0628(2) 0.2205(5) 0.7101(3)
H135_2 H 0.0848 0.2309 0.7122
C248_2 C 0.0513(3) 0.1874(5) 0.6847(2)
C249_2 C 0.0191(3) 0.1722(5) 0.6816(2)
H136_2 H 0.0112 0.1495 0.6643
C251_2 C 0.0101(2) 0.2233(5) 0.7294(2)
C252_2 C 0.0422(3) 0.2385(5) 0.7324(2)
H138_2 H 0.0501 0.2611 0.7498
C268_2 C 0.0513(3) 0.1232(7) 0.9331(3)
C269_2 C 0.0305(4) 0.0869(5) 0.9151(3)
H148_2 H 0.0308 0.0430 0.9173
C270_2 C 0.0093(3) 0.1147(7) 0.8939(3)
C271_2 C 0.0089(3) 0.1788(7) 0.8908(3)
C272_2 C 0.0297(4) 0.2152(5) 0.9088(3)
H150_2 H 0.0295 0.2590 0.9066
C273_2 C 0.0509(3) 0.1873(7) 0.9299(3)
H151_2 H 0.0651 0.2122 0.9422
C284_2 C 0.1029(4) 0.0028(6) 0.9761(4)
C285_2 C 0.0818(4) 0.0277(8) 0.9540(3)
H158_2 H 0.0742 0.0029 0.9372
C286_2 C 0.0717(3) 0.0888(8) 0.9564(3)
C287_2 C 0.0827(4) 0.1251(6) 0.9809(4)
H159_2 H 0.0758 0.1669 0.9825
C288_2 C 0.0193(4) 0.1673(9) 0.8223(4)
H160_2 H 0.0311 0.1348 0.8321
O60_2 O 0.2214(3) 0.0636(6) 0.5958(2)
O62_2 O 0.2223(3) 0.0137(6) 0.5306(3)
O64_2 O 0.2034(3) 0.1103(6) 0.5322(3)
H157_2 H 0.1098 0.9611 0.9744
O59_2 O 0.2040(3) 0.9673(6) 0.5881(3)
C277_2 C 0.7492(3) 0.4084(6) 0.0007(2)
H154_2 H 0.7698 0.4940 0.0011
O55_2 O 0.7223(3) 0.4863(6) 0.0306(3)
O57_2 O 0.7034(3) 0.3897(6) 0.0322(3)
C281_2 C 0.7249(5) 0.4283(9) 0.0230(5)
In17_2 In 0.93470(3) 0.26896(8) 0.81204(3)
C217_2 C 0.9871(4) 0.2340(7) 0.7541(4)
C218_2 C 0.9131(4) 0.2837(8) 0.8792(4)
N13_2 N 0.9385(3) 0.2859(6) 0.7644(3)
O49_2 O 0.7040(3) 0.4673(6) 0.5881(3)
C219_2 C 0.9610(4) 0.2681(8) 0.7461(4)
N14_2 N 0.9371(3) 0.2642(6) 0.8595(3)
N15_2 N 0.9804(3) 0.2310(6) 0.8109(3)
C221_2 C 0.9981(4) 0.2199(9) 0.7851(4)
C222_2 C 0.9163(4) 0.3243(9) 0.7482(4)
C223_2 C 0.8446(4) 0.3571(7) 0.8284(4)
H121_2 H 0.8283 0.3723 0.8407
C224_2 C 0.8464(4) 0.3612(8) 0.7980(4)
H122_2 H 0.8291 0.3774 0.7858
C225_2 C 0.7240(4) 0.5047(10) 0.5998(4)
C233_2 C 0.9947(4) 0.1999(8) 0.8373(4)
C234_2 C 0.8837(3) 0.3113(6) 0.8680(3)
C235_2 C 0.9598(4) 0.2391(8) 0.8780(4)
C236_2 C 0.8665(3) 0.3715(6) 0.7294(3)
C237_2 C 0.8535(4) 0.3322(5) 0.7069(3)
H128_2 H 0.8599 0.2900 0.7064
C238_2 C 0.8312(3) 0.3548(7) 0.6853(3)
H129_2 H 0.8223 0.3280 0.6699
C239_2 C 0.8219(3) 0.4167(7) 0.6861(2)
C240_2 C 0.8349(3) 0.4559(5) 0.7086(3)
H130_2 H 0.8286 0.4982 0.7091
C241_2 C 0.8572(3) 0.4333(6) 0.7302(3)
H131_2 H 0.8661 0.4601 0.7456
C242_2 C 0.9301(4) 0.3240(8) 0.7187(4)
H132_2 H 0.9201 0.3437 0.7014
O52_2 O 0.7214(3) 0.5636(6) 0.5958(2)
C243_2 C 0.8739(4) 0.3414(7) 0.7848(3)
N16_2 N 0.8890(3) 0.3167(7) 0.8114(3)
C244_2 C 0.9575(4) 0.2946(8) 0.7173(4)
H133_2 H 0.9713 0.2922 0.7008
C245_2 C 0.9470(4) 0.2338(9) 0.9073(4)
H134_2 H 0.9560 0.2082 0.9231
C246_2 C 0.8853(4) 0.3446(7) 0.7557(4)
C250_2 C 0.9985(2) 0.1901(5) 0.7040(3)
H137_2 H 0.9765 0.1797 0.7019
C253_2 C 0.9216(4) 0.2678(8) 0.9102(4)
H139_2 H 0.9114 0.2790 0.9283
C254_2 C 0.9845(4) 0.2059(8) 0.8669(3)
C255_2 C 0.8609(3) 0.3300(5) 0.8921(2)
C256_2 C 0.8310(3) 0.3024(4) 0.8921(2)
H140_2 H 0.8251 0.2720 0.8772
C257_2 C 0.8096(2) 0.3194(5) 0.9139(3)
H141_2 H 0.7892 0.3005 0.9140
C258_2 C 0.8182(2) 0.3639(5) 0.9358(2)
C259_2 C 0.8481(3) 0.3915(4) 0.9358(2)
H142_2 H 0.8539 0.4219 0.9507
C260_2 C 0.8694(2) 0.3746(5) 0.9139(3)
H143_2 H 0.8899 0.3934 0.9139
C261_2 C 0.7469(3) 0.4223(6) 0.6350(3)
H144_2 H 0.7296 0.3963 0.6284
C262_2 C 0.7701(3) 0.4002(5) 0.6559(3)
H145_2 H 0.7687 0.3592 0.6636
C263_2 C 0.7954(3) 0.4383(6) 0.6655(2)
C264_2 C 0.7973(2) 0.4984(6) 0.6542(3)
H146_2 H 0.8146 0.5244 0.6608
C265_2 C 0.7741(3) 0.5204(5) 0.6333(3)
H147_2 H 0.7755 0.5615 0.6256
C266_2 C 0.7489(3) 0.4824(7) 0.6237(3)
C267_2 C 0.8728(4) 0.3247(8) 0.8379(4)
O53_2 O 0.9600(3) 0.3650(5) 0.8209(2)
H149_2 H 0.9951 0.0899 0.8816
C274_2 C 0.7956(2) 0.3804(6) 0.9596(2)
C275_2 C 0.7739(3) 0.3353(4) 0.9676(3)
H152_2 H 0.7750 0.2948 0.9591
C276_2 C 0.7507(3) 0.3493(5) 0.9882(3)
H153_2 H 0.7359 0.3184 0.9937
C278_2 C 0.7709(3) 0.4536(5) 0.9926(3)
C279_2 C 0.7941(3) 0.4396(5) 0.9720(3)
H155_2 H 0.8089 0.4704 0.9665
O58_2 O 0.9096(2) 0.1632(5) 0.8061(2)
H165_2 H 0.981399 0.364327 0.812135
H166_2 H 0.962326 0.372721 0.843265
H167_2 H 0.889101 0.166752 0.793974
H168_2 H 0.905599 0.145929 0.82661
In17_3 In 0.43470(3) 0.23104(8) 0.31204(3)
C217_3 C 0.4871(4) 0.2660(7) 0.2541(4)
C218_3 C 0.4131(4) 0.2163(8) 0.3792(4)
N13_3 N 0.4385(3) 0.2141(6) 0.2644(3)
C219_3 C 0.4610(4) 0.2319(8) 0.2461(4)
N14_3 N 0.4371(3) 0.2358(6) 0.3595(3)
O50_3 O 0.6415(4) 0.4640(7) 0.0956(4)
N15_3 N 0.4804(3) 0.2690(6) 0.3109(3)
C220_3 C 0.6392(5) 0.4062(11) 0.1004(5)
O51_3 O 0.6548(3) 0.3799(6) 0.0816(3)
C221_3 C 0.4981(4) 0.2801(9) 0.2851(4)
C222_3 C 0.4163(4) 0.1757(9) 0.2482(4)
C223_3 C 0.3446(4) 0.1429(7) 0.3284(4)
H121_3 H 0.3283 0.1277 0.3407
C224_3 C 0.3464(4) 0.1388(8) 0.2980(4)
H122_3 H 0.3291 0.1226 0.2858
C226_3 C 0.5249(4) 0.3153(9) 0.2938(4)
H123_3 H 0.5429 0.3246 0.2822
C227_3 C 0.5713(3) 0.3393(8) 0.1615(3)
C228_3 C 0.5671(3) 0.3975(7) 0.1483(3)
H124_3 H 0.5492 0.4220 0.1530
C229_3 C 0.5892(4) 0.4200(5) 0.1283(3)
H125_3 H 0.5863 0.4598 0.1193
C230_3 C 0.6154(3) 0.3842(7) 0.1215(3)
C231_3 C 0.6197(3) 0.3259(7) 0.1347(3)
H126_3 H 0.6376 0.3015 0.1300
C232_3 C 0.5976(4) 0.3035(6) 0.1547(3)
H127_3 H 0.6005 0.2637 0.1637
C233_3 C 0.4947(4) 0.3001(8) 0.3373(4)
C234_3 C 0.3837(3) 0.1887(6) 0.3680(3)
C235_3 C 0.4598(4) 0.2609(8) 0.3780(4)
C236_3 C 0.3665(3) 0.1285(6) 0.2294(3)
C237_3 C 0.3535(4) 0.1678(5) 0.2069(3)
H128_3 H 0.3599 0.2100 0.2064
C238_3 C 0.3312(3) 0.1452(7) 0.1853(3)
H129_3 H 0.3223 0.1720 0.1699
C239_3 C 0.3219(3) 0.0833(7) 0.1861(2)
C240_3 C 0.3349(3) 0.0441(5) 0.2086(3)
H130_3 H 0.3286 0.0018 0.2091
C241_3 C 0.3572(3) 0.0667(6) 0.2302(3)
H131_3 H 0.3661 0.0399 0.2456
C242_3 C 0.4301(4) 0.1760(8) 0.2187(4)
H132_3 H 0.4201 0.1563 0.2014
C243_3 C 0.3739(4) 0.1586(7) 0.2848(3)
N16_3 N 0.3890(3) 0.1833(7) 0.3114(3)
C244_3 C 0.4575(4) 0.2054(8) 0.2173(4)
H133_3 H 0.4713 0.2078 0.2008
C245_3 C 0.4470(4) 0.2662(9) 0.4073(4)
H134_3 H 0.4560 0.2918 0.4231
C246_3 C 0.3853(4) 0.1554(7) 0.2557(4)
C247_3 C 0.5628(2) 0.2795(5) 0.2101(3)
H135_3 H 0.5848 0.2691 0.2122
C248_3 C 0.5513(3) 0.3126(5) 0.1847(2)
C249_3 C 0.5191(3) 0.3278(5) 0.1816(2)
H136_3 H 0.5112 0.3505 0.1643
C250_3 C 0.4985(2) 0.3099(5) 0.2040(3)
H137_3 H 0.4765 0.3203 0.2019
C251_3 C 0.5101(2) 0.2767(5) 0.2294(2)
C252_3 C 0.5422(3) 0.2615(5) 0.2324(2)
H138_3 H 0.5501 0.2389 0.2498
C253_3 C 0.4216(4) 0.2322(8) 0.4102(4)
H139_3 H 0.4114 0.2210 0.4283
C254_3 C 0.4845(4) 0.2941(8) 0.3669(3)
C255_3 C 0.3609(3) 0.1700(5) 0.3921(2)
C256_3 C 0.3310(3) 0.1976(4) 0.3921(2)
H140_3 H 0.3251 0.2280 0.3772
C257_3 C 0.3096(2) 0.1806(5) 0.4139(3)
H141_3 H 0.2892 0.1995 0.4140
C258_3 C 0.3182(2) 0.1361(5) 0.4358(2)
C259_3 C 0.3481(3) 0.1085(4) 0.4358(2)
H142_3 H 0.3539 0.0781 0.4507
C260_3 C 0.3694(2) 0.1254(5) 0.4139(3)
H143_3 H 0.3899 0.1066 0.4139
C261_3 C 0.2469(3) 0.0777(6) 0.1350(3)
H144_3 H 0.2296 0.1037 0.1284
C262_3 C 0.2701(3) 0.0998(5) 0.1559(3)
H145_3 H 0.2687 0.1408 0.1636
C263_3 C 0.2954(3) 0.0617(6) 0.1655(2)
C264_3 C 0.2973(2) 0.0016(6) 0.1542(3)
C266_3 C 0.2489(3) 0.0176(7) 0.1237(3)
C267_3 C 0.3728(4) 0.1753(8) 0.3379(4)
O53_3 O 0.4600(3) 0.1350(5) 0.3209(2)
C268_3 C 0.5513(3) 0.3768(7) 0.4331(3)
C269_3 C 0.5305(4) 0.4131(5) 0.4151(3)
H148_3 H 0.5308 0.4570 0.4173
C270_3 C 0.5093(3) 0.3853(7) 0.3939(3)
H149_3 H 0.4951 0.4101 0.3816
C271_3 C 0.5089(3) 0.3212(7) 0.3908(3)
C272_3 C 0.5297(4) 0.2848(5) 0.4088(3)
H150_3 H 0.5295 0.2410 0.4066
C273_3 C 0.5509(3) 0.3127(7) 0.4299(3)
H151_3 H 0.5651 0.2878 0.4422
C274_3 C 0.2956(2) 0.1196(6) 0.4596(2)
C275_3 C 0.2739(3) 0.1647(4) 0.4676(3)
H152_3 H 0.2750 0.2052 0.4591
C276_3 C 0.2507(3) 0.1507(5) 0.4882(3)
H153_3 H 0.2359 0.1816 0.4937
C277_3 C 0.2492(3) 0.0916(6) 0.5007(2)
C278_3 C 0.2709(3) 0.0464(5) 0.4926(3)
H154_3 H 0.2698 0.0060 0.5011
C279_3 C 0.2941(3) 0.0604(5) 0.4720(3)
H155_3 H 0.3089 0.0296 0.4665
O54_2 O 0.6447(4) 0.5418(8) 0.5233(3)
C280_3 C 0.6377(6) 0.4878(10) 0.5216(5)
O56_2 O 0.6508(4) 0.4630(8) 0.5419(4)
C281_3 C 0.2249(5) 0.0717(9) 0.5230(5)
C282_3 C 0.6038(4) 0.3997(8) 0.5030(3)
H156_3 H 0.6114 0.3749 0.5197
C283_3 C 0.6139(3) 0.4609(9) 0.5006(3)
C284_3 C 0.6029(4) 0.4972(6) 0.4761(4)
H157_3 H 0.6098 0.5389 0.4744
C285_3 C 0.5818(4) 0.4723(8) 0.4540(3)
H158_3 H 0.5742 0.4971 0.4372
C286_3 C 0.5717(3) 0.4112(8) 0.4564(3)
C287_3 C 0.5827(4) 0.3749(6) 0.4809(4)
H159_3 H 0.5758 0.3331 0.4825
C288_3 C 0.5193(4) 0.3327(9) 0.3223(4)
H160_3 H 0.5311 0.3652 0.3321
O58_3 O 0.4096(2) 0.3368(5) 0.3061(2)
O61_2 O 0.6447(4) 0.4582(8) 0.0233(3)
O63_2 O 0.6508(4) 0.5370(8) 0.0419(4)
H165_3 H 0.481399 0.135673 0.312135
H166_3 H 0.462326 0.127279 0.343265
H167_3 H 0.389101 0.333248 0.293974
H168_3 H 0.405599 0.354071 0.32661
C225_3 C 0.2240(4) 0.9953(10) 0.0998(4)
H146_3 H 0.3146 0.9756 0.1608
C265_3 C 0.2741(3) 0.9796(5) 0.1333(3)
H147_3 H 0.2755 0.9385 0.1256
C225_4 C 0.2240(4) 0.0047(10) 0.5998(4)
H146_4 H 0.3146 0.0244 0.6608
C265_4 C 0.2741(3) 0.0204(5) 0.6333(3)
H147_4 H 0.2755 0.0615 0.6256
C277_4 C 0.2492(3) 0.9084(6) 0.0007(2)
H154_4 H 0.2698 0.9940 0.0011
C280_4 C 0.6377(6) 0.5122(10) 0.0216(5)
C281_4 C 0.2249(5) 0.9283(9) 0.0230(5)
C282_4 C 0.6038(4) 0.6003(8) 0.0030(3)
H156_4 H 0.6114 0.6251 0.0197
C283_4 C 0.6139(3) 0.5391(9) 0.0006(3)
In17_4 In 0.43470(3) 0.76896(8) 0.81204(3)
C217_4 C 0.4871(4) 0.7340(7) 0.7541(4)
C218_4 C 0.4131(4) 0.7837(8) 0.8792(4)
N13_4 N 0.4385(3) 0.7859(6) 0.7644(3)
C219_4 C 0.4610(4) 0.7681(8) 0.7461(4)
N14_4 N 0.4371(3) 0.7642(6) 0.8595(3)
O50_4 O 0.6415(4) 0.5360(7) 0.5956(4)
N15_4 N 0.4804(3) 0.7310(6) 0.8109(3)
C220_4 C 0.6392(5) 0.5938(11) 0.6004(5)
O51_4 O 0.6548(3) 0.6201(6) 0.5816(3)
C221_4 C 0.4981(4) 0.7199(9) 0.7851(4)
C222_4 C 0.4163(4) 0.8243(9) 0.7482(4)
C223_4 C 0.3446(4) 0.8571(7) 0.8284(4)
H121_4 H 0.3283 0.8723 0.8407
C224_4 C 0.3464(4) 0.8612(8) 0.7980(4)
H122_4 H 0.3291 0.8774 0.7858
C226_4 C 0.5249(4) 0.6847(9) 0.7938(4)
H123_4 H 0.5429 0.6754 0.7822
C227_4 C 0.5713(3) 0.6607(8) 0.6615(3)
C228_4 C 0.5671(3) 0.6025(7) 0.6483(3)
H124_4 H 0.5492 0.5780 0.6530
C229_4 C 0.5892(4) 0.5800(5) 0.6283(3)
H125_4 H 0.5863 0.5402 0.6193
C230_4 C 0.6154(3) 0.6158(7) 0.6215(3)
C231_4 C 0.6197(3) 0.6741(7) 0.6347(3)
H126_4 H 0.6376 0.6985 0.6300
C232_4 C 0.5976(4) 0.6965(6) 0.6547(3)
H127_4 H 0.6005 0.7363 0.6637
C233_4 C 0.4947(4) 0.6999(8) 0.8373(4)
C234_4 C 0.3837(3) 0.8113(6) 0.8680(3)
C235_4 C 0.4598(4) 0.7391(8) 0.8780(4)
C236_4 C 0.3665(3) 0.8715(6) 0.7294(3)
C237_4 C 0.3535(4) 0.8322(5) 0.7069(3)
H128_4 H 0.3599 0.7900 0.7064
C238_4 C 0.3312(3) 0.8548(7) 0.6853(3)
H129_4 H 0.3223 0.8280 0.6699
C239_4 C 0.3219(3) 0.9167(7) 0.6861(2)
C240_4 C 0.3349(3) 0.9559(5) 0.7086(3)
H130_4 H 0.3286 0.9982 0.7091
C241_4 C 0.3572(3) 0.9333(6) 0.7302(3)
H131_4 H 0.3661 0.9601 0.7456
C242_4 C 0.4301(4) 0.8240(8) 0.7187(4)
H132_4 H 0.4201 0.8437 0.7014
C243_4 C 0.3739(4) 0.8414(7) 0.7848(3)
N16_4 N 0.3890(3) 0.8167(7) 0.8114(3)
C244_4 C 0.4575(4) 0.7946(8) 0.7173(4)
H133_4 H 0.4713 0.7922 0.7008
C245_4 C 0.4470(4) 0.7338(9) 0.9073(4)
H134_4 H 0.4560 0.7082 0.9231
C246_4 C 0.3853(4) 0.8446(7) 0.7557(4)
C247_4 C 0.5628(2) 0.7205(5) 0.7101(3)
H135_4 H 0.5848 0.7309 0.7122
C248_4 C 0.5513(3) 0.6874(5) 0.6847(2)
C249_4 C 0.5191(3) 0.6722(5) 0.6816(2)
H136_4 H 0.5112 0.6495 0.6643
C250_4 C 0.4985(2) 0.6901(5) 0.7040(3)
H137_4 H 0.4765 0.6797 0.7019
C251_4 C 0.5101(2) 0.7233(5) 0.7294(2)
C252_4 C 0.5422(3) 0.7385(5) 0.7324(2)
H138_4 H 0.5501 0.7611 0.7498
C253_4 C 0.4216(4) 0.7678(8) 0.9102(4)
H139_4 H 0.4114 0.7790 0.9283
C254_4 C 0.4845(4) 0.7059(8) 0.8669(3)
C255_4 C 0.3609(3) 0.8300(5) 0.8921(2)
C256_4 C 0.3310(3) 0.8024(4) 0.8921(2)
H140_4 H 0.3251 0.7720 0.8772
C257_4 C 0.3096(2) 0.8194(5) 0.9139(3)
H141_4 H 0.2892 0.8005 0.9140
C258_4 C 0.3182(2) 0.8639(5) 0.9358(2)
C259_4 C 0.3481(3) 0.8915(4) 0.9358(2)
H142_4 H 0.3539 0.9219 0.9507
C260_4 C 0.3694(2) 0.8746(5) 0.9139(3)
H143_4 H 0.3899 0.8934 0.9139
C261_4 C 0.2469(3) 0.9223(6) 0.6350(3)
H144_4 H 0.2296 0.8963 0.6284
C262_4 C 0.2701(3) 0.9002(5) 0.6559(3)
H145_4 H 0.2687 0.8592 0.6636
C263_4 C 0.2954(3) 0.9383(6) 0.6655(2)
C264_4 C 0.2973(2) 0.9984(6) 0.6542(3)
C266_4 C 0.2489(3) 0.9824(7) 0.6237(3)
C267_4 C 0.3728(4) 0.8247(8) 0.8379(4)
O53_4 O 0.4600(3) 0.8650(5) 0.8209(2)
C268_4 C 0.5513(3) 0.6232(7) 0.9331(3)
C269_4 C 0.5305(4) 0.5869(5) 0.9151(3)
H148_4 H 0.5308 0.5430 0.9173
C270_4 C 0.5093(3) 0.6147(7) 0.8939(3)
H149_4 H 0.4951 0.5899 0.8816
C271_4 C 0.5089(3) 0.6788(7) 0.8908(3)
C272_4 C 0.5297(4) 0.7152(5) 0.9088(3)
H150_4 H 0.5295 0.7590 0.9066
C273_4 C 0.5509(3) 0.6873(7) 0.9299(3)
H151_4 H 0.5651 0.7122 0.9422
C274_4 C 0.2956(2) 0.8804(6) 0.9596(2)
C275_4 C 0.2739(3) 0.8353(4) 0.9676(3)
H152_4 H 0.2750 0.7948 0.9591
C276_4 C 0.2507(3) 0.8493(5) 0.9882(3)
H153_4 H 0.2359 0.8184 0.9937
C278_4 C 0.2709(3) 0.9536(5) 0.9926(3)
C279_4 C 0.2941(3) 0.9396(5) 0.9720(3)
H155_4 H 0.3089 0.9704 0.9665
C284_4 C 0.6029(4) 0.5028(6) 0.9761(4)
H157_4 H 0.6098 0.4611 0.9744
C285_4 C 0.5818(4) 0.5277(8) 0.9540(3)
H158_4 H 0.5742 0.5029 0.9372
C286_4 C 0.5717(3) 0.5888(8) 0.9564(3)
C287_4 C 0.5827(4) 0.6251(6) 0.9809(4)
H159_4 H 0.5758 0.6669 0.9825
C288_4 C 0.5193(4) 0.6673(9) 0.8223(4)
H160_4 H 0.5311 0.6348 0.8321
O58_4 O 0.4096(2) 0.6632(5) 0.8061(2)
H165_4 H 0.481399 0.864327 0.812135
H166_4 H 0.462326 0.872721 0.843265
H167_4 H 0.389101 0.666752 0.793974
H168_4 H 0.405599 0.645929 0.82661
loop_
_geom_bond_atom_site_label_1
_geom_bond_atom_site_label_2
_geom_bond_site_symmetry_1
_geom_bond_site_symmetry_2
In1 O3 1_555 1_555
O3 C29 1_555 1_555
H4 C11 1_555 1_555
O11 In1 1_555 1_555
O12 In1 1_555 1_555
O13 In1 1_555 1_555
O14 In1 1_555 1_555
O15 In1 1_555 1_555
In2 N1 1_555 1_555
O1 C72 1_555 1_555
O2 C1 1_555 1_555
N1 C6 1_555 1_555
N2 In2 1_555 1_555
C1 O5 1_555 1_555
N3 In2 1_555 1_555
O4 C3 1_555 1_555
O5 In3 1_555 1_555
C2 C4 1_555 1_555
C3 O7 1_555 1_555
C4 H1 1_555 1_555
C5 N3 1_555 1_555
C6 C32 1_555 1_555
C7 C5 1_555 1_555
C8 H2 1_555 1_555
C9 C8 1_555 1_555
H3 C9 1_555 1_555
C10 C9 1_555 1_555
C13 C8 1_555 1_555
C14 N1 1_555 1_555
C15 C7 1_555 1_555
C16 C15 1_555 1_555
H6 C16 1_555 1_555
C17 C16 1_555 1_555
H7 C17 1_555 1_555
C18 C17 1_555 1_555
C19 C18 1_555 1_555
H8 C19 1_555 1_555
C20 C15 1_555 1_555
H9 C20 1_555 1_555
C21 C18 1_555 1_555
C22 C21 1_555 1_555
H10 C22 1_555 1_555
C23 C22 1_555 1_555
H11 C23 1_555 1_555
C24 C23 1_555 1_555
C25 C24 1_555 1_555
H12 C25 1_555 1_555
C26 C21 1_555 1_555
H13 C26 1_555 1_555
O7 In4 1_555 1_555
N4 In2 1_555 1_555
C27 H14 1_555 1_555
C28 N2 1_555 1_555
C30 C5 1_555 1_555
H15 C30 1_555 1_555
C31 C28 1_555 1_555
H16 C31 1_555 1_555
C32 C2 1_555 1_555
C33 N2 1_555 1_555
C34 C35 1_555 1_555
C35 H17 1_555 1_555
C36 C35 1_555 1_555
H18 C36 1_555 1_555
C37 C36 1_555 1_555
C38 C37 1_555 1_555
H19 C38 1_555 1_555
C39 C34 1_555 1_555
H20 C39 1_555 1_555
C40 C33 1_555 1_555
C41 N4 1_555 1_555
C42 C43 1_555 1_555
C43 H21 1_555 1_555
C44 C43 1_555 1_555
H22 C44 1_555 1_555
C45 C32 1_555 1_555
C46 C45 1_555 1_555
H23 C46 1_555 1_555
C47 C42 1_555 1_555
H24 C47 1_555 1_555
C48 C4 1_555 1_555
H25 C48 1_555 1_555
C49 N3 1_555 1_555
C50 C14 1_555 1_555
H26 C50 1_555 1_555
C51 C31 1_555 1_555
H27 C51 1_555 1_555
C52 C13 1_555 1_555
C53 C52 1_555 1_555
H28 C53 1_555 1_555
C54 C53 1_555 1_555
H29 C54 1_555 1_555
C55 C54 1_555 1_555
C56 C55 1_555 1_555
H30 C56 1_555 1_555
C57 C52 1_555 1_555
H31 C57 1_555 1_555
C58 C28 1_555 1_555
C59 H32 1_555 1_555
C60 C1 1_555 1_555
C61 C60 1_555 1_555
H33 C61 1_555 1_555
C62 C61 1_555 1_555
H34 C62 1_555 1_555
C63 C42 1_555 1_555
C64 C59 1_555 1_555
H35 C64 1_555 1_555
C65 H36 1_555 1_555
C66 C37 1_555 1_555
C67 C66 1_555 1_555
H37 C67 1_555 1_555
C68 C67 1_555 1_555
H38 C68 1_555 1_555
C69 C3 1_555 1_555
C70 C65 1_555 1_555
H39 C70 1_555 1_555
C71 C6 1_555 1_555
H40 C71 1_555 1_555
C72 C24 1_555 1_555
O8 C72 1_555 1_555
O9 In2 1_555 1_555
O10 In2 1_555 1_555
In3 O2 1_555 1_555
In4 O4 1_555 1_555
In5 O1 1_555 1_555
C2 N4 1_555 1_555
C7 C14 1_555 1_555
C12 C13 1_555 1_555
C19 C20 1_555 1_555
C25 C26 1_555 1_555
C27 C30 1_555 1_555
C27 C49 1_555 1_555
C33 C51 1_555 1_555
C34 C40 1_555 1_555
C38 C39 1_555 1_555
C40 C49 1_555 1_555
C41 C48 1_555 1_555
C41 C58 1_555 1_555
C44 C45 1_555 1_555
C46 C47 1_555 1_555
C50 C71 1_555 1_555
C55 C58 1_555 1_555
C56 C57 1_555 1_555
C59 C60 1_555 1_555
C62 C63 1_555 1_555
C63 C64 1_555 1_555
C65 C66 1_555 1_555
C68 C69 1_555 1_555
C69 C70 1_555 1_555
O8 In5 1_555 1_555
O9 H169 1_555 1_555
O9 H170 1_555 1_555
O10 H171 1_555 1_555
O10 H172 1_555 1_555
In2_2 N1_2 1_555 1_555
O1_2 C72_2 1_555 1_555
O12 C1_2 1_555 1_555
N1_2 C6_2 1_555 1_555
N2_2 In2_2 1_555 1_555
C1_2 O14 1_555 1_555
N3_2 In2_2 1_555 1_555
O4_2 C3_2 1_555 1_555
C2_2 C4_2 1_555 1_555
C3_2 O7_2 1_555 1_555
C4_2 H1_2 1_555 1_555
C5_2 N3_2 1_555 1_555
C6_2 C32_2 1_555 1_555
C7_2 C5_2 1_555 1_555
C8_2 H2_2 1_555 1_555
C9_2 C8_2 1_555 1_555
H3_2 C9_2 1_555 1_555
C10_2 C9_2 1_555 1_555
C13_2 C8_2 1_555 1_555
C14_2 N1_2 1_555 1_555
C15_2 C7_2 1_555 1_555
C16_2 C15_2 1_555 1_555
H6_2 C16_2 1_555 1_555
C17_2 C16_2 1_555 1_555
H7_2 C17_2 1_555 1_555
C18_2 C17_2 1_555 1_555
C19_2 C18_2 1_555 1_555
H8_2 C19_2 1_555 1_555
C20_2 C15_2 1_555 1_555
H9_2 C20_2 1_555 1_555
C21_2 C18_2 1_555 1_555
C22_2 C21_2 1_555 1_555
H10_2 C22_2 1_555 1_555
C23_2 C22_2 1_555 1_555
H11_2 C23_2 1_555 1_555
C24_2 C23_2 1_555 1_555
C25_2 C24_2 1_555 1_555
H12_2 C25_2 1_555 1_555
C26_2 C21_2 1_555 1_555
H13_2 C26_2 1_555 1_555
N4_2 In2_2 1_555 1_555
C27_2 H14_2 1_555 1_555
C28_2 N2_2 1_555 1_555
C30_2 C5_2 1_555 1_555
H15_2 C30_2 1_555 1_555
C31_2 C28_2 1_555 1_555
H16_2 C31_2 1_555 1_555
C32_2 C2_2 1_555 1_555
C33_2 N2_2 1_555 1_555
C34_2 C35_2 1_555 1_555
C35_2 H17_2 1_555 1_555
C36_2 C35_2 1_555 1_555
H18_2 C36_2 1_555 1_555
C37_2 C36_2 1_555 1_555
C38_2 C37_2 1_555 1_555
H19_2 C38_2 1_555 1_555
C39_2 C34_2 1_555 1_555
H20_2 C39_2 1_555 1_555
C40_2 C33_2 1_555 1_555
C41_2 N4_2 1_555 1_555
C42_2 C43_2 1_555 1_555
C43_2 H21_2 1_555 1_555
C44_2 C43_2 1_555 1_555
H22_2 C44_2 1_555 1_555
C45_2 C32_2 1_555 1_555
C46_2 C45_2 1_555 1_555
H23_2 C46_2 1_555 1_555
C47_2 C42_2 1_555 1_555
H24_2 C47_2 1_555 1_555
C48_2 C4_2 1_555 1_555
H25_2 C48_2 1_555 1_555
C49_2 N3_2 1_555 1_555
C50_2 C14_2 1_555 1_555
H26_2 C50_2 1_555 1_555
C51_2 C31_2 1_555 1_555
H27_2 C51_2 1_555 1_555
C52_2 C13_2 1_555 1_555
C53_2 C52_2 1_555 1_555
H28_2 C53_2 1_555 1_555
C54_2 C53_2 1_555 1_555
H29_2 C54_2 1_555 1_555
C55_2 C54_2 1_555 1_555
C56_2 C55_2 1_555 1_555
H30_2 C56_2 1_555 1_555
C57_2 C52_2 1_555 1_555
H31_2 C57_2 1_555 1_555
C58_2 C28_2 1_555 1_555
C59_2 H32_2 1_555 1_555
C60_2 C1_2 1_555 1_555
C61_2 C60_2 1_555 1_555
H33_2 C61_2 1_555 1_555
C62_2 C61_2 1_555 1_555
H34_2 C62_2 1_555 1_555
C63_2 C42_2 1_555 1_555
C64_2 C59_2 1_555 1_555
H35_2 C64_2 1_555 1_555
C65_2 H36_2 1_555 1_555
C66_2 C37_2 1_555 1_555
C67_2 C66_2 1_555 1_555
H37_2 C67_2 1_555 1_555
C68_2 C67_2 1_555 1_555
H38_2 C68_2 1_555 1_555
C69_2 C3_2 1_555 1_555
C70_2 C65_2 1_555 1_555
H39_2 C70_2 1_555 1_555
C71_2 C6_2 1_555 1_555
H40_2 C71_2 1_555 1_555
C72_2 C24_2 1_555 1_555
O8_2 C72_2 1_555 1_555
O9_2 In2_2 1_555 1_555
O10_2 In2_2 1_555 1_555
In4 O1_2 1_555 1_555
C2_2 N4_2 1_555 1_555
C7_2 C14_2 1_555 1_555
C12_2 C13_2 1_555 1_555
C19_2 C20_2 1_555 1_555
C25_2 C26_2 1_555 1_555
C27_2 C30_2 1_555 1_555
C27_2 C49_2 1_555 1_555
C33_2 C51_2 1_555 1_555
C34_2 C40_2 1_555 1_555
C38_2 C39_2 1_555 1_555
C40_2 C49_2 1_555 1_555
C41_2 C48_2 1_555 1_555
C41_2 C58_2 1_555 1_555
C44_2 C45_2 1_555 1_555
C46_2 C47_2 1_555 1_555
C50_2 C71_2 1_555 1_555
C55_2 C58_2 1_555 1_555
C56_2 C57_2 1_555 1_555
C59_2 C60_2 1_555 1_555
C62_2 C63_2 1_555 1_555
C63_2 C64_2 1_555 1_555
C65_2 C66_2 1_555 1_555
C68_2 C69_2 1_555 1_555
C69_2 C70_2 1_555 1_555
O8_2 In4 1_555 1_555
O9_2 H169_2 1_555 1_555
O9_2 H170_2 1_555 1_555
O10_2 H171_2 1_555 1_555
O10_2 H172_2 1_555 1_555
O11_2 In3 1_555 1_555
O3_2 C29_2 1_555 1_555
H4_2 C11_2 1_555 1_555
In4 O3_3 1_555 1_555
O2_2 C1_3 1_555 1_555
O3_3 C29_3 1_555 1_555
C1_3 O5_2 1_555 1_555
O5_2 In5 1_555 1_555
C2_3 C4_3 1_555 1_555
C4_3 H1_3 1_555 1_555
C8_3 H2_3 1_555 1_555
C9_3 C8_3 1_555 1_555
H3_3 C9_3 1_555 1_555
C10_3 C9_3 1_555 1_555
C11_3 C10_3 1_555 1_555
H4_3 C11_3 1_555 1_555
C12_3 C11_3 1_555 1_555
H5_3 C12_3 1_555 1_555
C13_3 C8_3 1_555 1_555
O6_3 In4 1_555 1_555
C29_3 C10_3 1_555 1_555
C32_3 C2_3 1_555 1_555
C41_3 N4_3 1_555 1_555
C42_3 C43_3 1_555 1_555
C43_3 H21_3 1_555 1_555
C44_3 C43_3 1_555 1_555
H22_3 C44_3 1_555 1_555
C45_3 C32_3 1_555 1_555
C46_3 C45_3 1_555 1_555
H23_3 C46_3 1_555 1_555
C47_3 C42_3 1_555 1_555
H24_3 C47_3 1_555 1_555
C48_3 C4_3 1_555 1_555
H25_3 C48_3 1_555 1_555
C52_3 C13_3 1_555 1_555
C53_3 C52_3 1_555 1_555
H28_3 C53_3 1_555 1_555
C54_3 C53_3 1_555 1_555
H29_3 C54_3 1_555 1_555
C55_3 C54_3 1_555 1_555
C56_3 C55_3 1_555 1_555
H30_3 C56_3 1_555 1_555
C57_3 C52_3 1_555 1_555
H31_3 C57_3 1_555 1_555
C59_3 H32_3 1_555 1_555
C60_3 C1_3 1_555 1_555
C61_3 C60_3 1_555 1_555
H33_3 C61_3 1_555 1_555
C62_3 C61_3 1_555 1_555
H34_3 C62_3 1_555 1_555
C63_3 C42_3 1_555 1_555
C64_3 C59_3 1_555 1_555
H35_3 C64_3 1_555 1_555
In5 O2_2 1_555 1_555
O12_2 In4 1_555 1_555
O14_2 In4 1_555 1_555
C2_3 N4_3 1_555 1_555
C12_3 C13_3 1_555 1_555
O6_3 C29_3 1_555 1_555
C41_3 C48_3 1_555 1_555
C41_3 C58_3 1_555 1_555
C44_3 C45_3 1_555 1_555
C46_3 C47_3 1_555 1_555
C55_3 C58_3 1_555 1_555
C56_3 C57_3 1_555 1_555
C59_3 C60_3 1_555 1_555
C62_3 C63_3 1_555 1_555
C63_3 C64_3 1_555 1_555
In2_3 N1_3 1_555 1_555
N1_3 C6_3 1_555 1_555
N2_3 In2_3 1_555 1_555
N3_3 In2_3 1_555 1_555
O13 C3_3 1_555 1_555
C3_3 O15 1_555 1_555
C5_3 N3_3 1_555 1_555
C7_3 C5_3 1_555 1_555
C14_3 N1_3 1_555 1_555
C15_3 C7_3 1_555 1_555
C16_3 C15_3 1_555 1_555
H6_3 C16_3 1_555 1_555
C17_3 C16_3 1_555 1_555
H7_3 C17_3 1_555 1_555
C18_3 C17_3 1_555 1_555
C19_3 C18_3 1_555 1_555
H8_3 C19_3 1_555 1_555
C20_3 C15_3 1_555 1_555
H9_3 C20_3 1_555 1_555
C21_3 C18_3 1_555 1_555
C22_3 C21_3 1_555 1_555
H10_3 C22_3 1_555 1_555
C23_3 C22_3 1_555 1_555
H11_3 C23_3 1_555 1_555
C24_3 C23_3 1_555 1_555
C26_3 C21_3 1_555 1_555
C27_3 H14_3 1_555 1_555
C28_3 N2_3 1_555 1_555
C30_3 C5_3 1_555 1_555
H15_3 C30_3 1_555 1_555
C31_3 C28_3 1_555 1_555
H16_3 C31_3 1_555 1_555
C33_3 N2_3 1_555 1_555
C34_3 C35_3 1_555 1_555
C35_3 H17_3 1_555 1_555
C36_3 C35_3 1_555 1_555
H18_3 C36_3 1_555 1_555
C37_3 C36_3 1_555 1_555
C38_3 C37_3 1_555 1_555
H19_3 C38_3 1_555 1_555
C39_3 C34_3 1_555 1_555
H20_3 C39_3 1_555 1_555
C40_3 C33_3 1_555 1_555
C49_3 N3_3 1_555 1_555
C50_3 C14_3 1_555 1_555
H26_3 C50_3 1_555 1_555
C51_3 C31_3 1_555 1_555
H27_3 C51_3 1_555 1_555
C65_3 H36_3 1_555 1_555
C66_3 C37_3 1_555 1_555
C67_3 C66_3 1_555 1_555
H37_3 C67_3 1_555 1_555
C68_3 C67_3 1_555 1_555
H38_3 C68_3 1_555 1_555
C69_3 C3_3 1_555 1_555
C70_3 C65_3 1_555 1_555
H39_3 C70_3 1_555 1_555
C71_3 C6_3 1_555 1_555
H40_3 C71_3 1_555 1_555
O9_3 In2_3 1_555 1_555
O10_3 In2_3 1_555 1_555
C7_3 C14_3 1_555 1_555
C19_3 C20_3 1_555 1_555
C27_3 C30_3 1_555 1_555
C27_3 C49_3 1_555 1_555
C33_3 C51_3 1_555 1_555
C34_3 C40_3 1_555 1_555
C38_3 C39_3 1_555 1_555
C40_3 C49_3 1_555 1_555
C50_3 C71_3 1_555 1_555
C65_3 C66_3 1_555 1_555
C68_3 C69_3 1_555 1_555
C69_3 C70_3 1_555 1_555
O9_3 H169_3 1_555 1_555
O9_3 H170_3 1_555 1_555
O10_3 H172_3 1_555 1_555
O11_2 C72_3 1_555 1_555
H12_3 C25_3 1_555 1_555
O12_2 C1_4 1_555 1_555
O3_4 C29_4 1_555 1_555
C1_4 O14_2 1_555 1_555
C2_4 C4_4 1_555 1_555
C4_4 H1_4 1_555 1_555
C8_4 H2_4 1_555 1_555
C9_4 C8_4 1_555 1_555
H3_4 C9_4 1_555 1_555
C10_4 C9_4 1_555 1_555
C11_4 C10_4 1_555 1_555
H4_4 C11_4 1_555 1_555
C12_4 C11_4 1_555 1_555
H5_4 C12_4 1_555 1_555
C13_4 C8_4 1_555 1_555
C29_4 C10_4 1_555 1_555
C32_4 C2_4 1_555 1_555
C41_4 N4_4 1_555 1_555
C42_4 C43_4 1_555 1_555
C43_4 H21_4 1_555 1_555
C44_4 C43_4 1_555 1_555
H22_4 C44_4 1_555 1_555
C45_4 C32_4 1_555 1_555
C46_4 C45_4 1_555 1_555
H23_4 C46_4 1_555 1_555
C47_4 C42_4 1_555 1_555
H24_4 C47_4 1_555 1_555
C48_4 C4_4 1_555 1_555
H25_4 C48_4 1_555 1_555
C52_4 C13_4 1_555 1_555
C53_4 C52_4 1_555 1_555
H28_4 C53_4 1_555 1_555
C54_4 C53_4 1_555 1_555
H29_4 C54_4 1_555 1_555
C55_4 C54_4 1_555 1_555
C56_4 C55_4 1_555 1_555
H30_4 C56_4 1_555 1_555
C57_4 C52_4 1_555 1_555
H31_4 C57_4 1_555 1_555
C59_4 H32_4 1_555 1_555
C60_4 C1_4 1_555 1_555
C61_4 C60_4 1_555 1_555
H33_4 C61_4 1_555 1_555
C62_4 C61_4 1_555 1_555
H34_4 C62_4 1_555 1_555
C63_4 C42_4 1_555 1_555
C64_4 C59_4 1_555 1_555
H35_4 C64_4 1_555 1_555
C2_4 N4_4 1_555 1_555
C12_4 C13_4 1_555 1_555
O6_4 C29_4 1_555 1_555
C41_4 C48_4 1_555 1_555
C41_4 C58_4 1_555 1_555
C44_4 C45_4 1_555 1_555
C46_4 C47_4 1_555 1_555
C55_4 C58_4 1_555 1_555
C56_4 C57_4 1_555 1_555
C59_4 C60_4 1_555 1_555
C62_4 C63_4 1_555 1_555
C63_4 C64_4 1_555 1_555
O11 C72_4 1_555 1_555
H12_4 C25_4 1_555 1_555
In2_4 N1_4 1_555 1_555
N1_4 C6_4 1_555 1_555
N2_4 In2_4 1_555 1_555
N3_4 In2_4 1_555 1_555
O13_2 C3_4 1_555 1_555
C3_4 O15_2 1_555 1_555
C5_4 N3_4 1_555 1_555
C7_4 C5_4 1_555 1_555
C14_4 N1_4 1_555 1_555
C15_4 C7_4 1_555 1_555
C16_4 C15_4 1_555 1_555
H6_4 C16_4 1_555 1_555
C17_4 C16_4 1_555 1_555
H7_4 C17_4 1_555 1_555
C18_4 C17_4 1_555 1_555
C19_4 C18_4 1_555 1_555
H8_4 C19_4 1_555 1_555
C20_4 C15_4 1_555 1_555
H9_4 C20_4 1_555 1_555
C21_4 C18_4 1_555 1_555
C22_4 C21_4 1_555 1_555
H10_4 C22_4 1_555 1_555
C23_4 C22_4 1_555 1_555
H11_4 C23_4 1_555 1_555
C24_4 C23_4 1_555 1_555
C26_4 C21_4 1_555 1_555
C27_4 H14_4 1_555 1_555
C28_4 N2_4 1_555 1_555
C30_4 C5_4 1_555 1_555
H15_4 C30_4 1_555 1_555
C31_4 C28_4 1_555 1_555
H16_4 C31_4 1_555 1_555
C33_4 N2_4 1_555 1_555
C34_4 C35_4 1_555 1_555
C35_4 H17_4 1_555 1_555
C36_4 C35_4 1_555 1_555
H18_4 C36_4 1_555 1_555
C37_4 C36_4 1_555 1_555
C38_4 C37_4 1_555 1_555
H19_4 C38_4 1_555 1_555
C39_4 C34_4 1_555 1_555
H20_4 C39_4 1_555 1_555
C40_4 C33_4 1_555 1_555
C49_4 N3_4 1_555 1_555
C50_4 C14_4 1_555 1_555
H26_4 C50_4 1_555 1_555
C51_4 C31_4 1_555 1_555
H27_4 C51_4 1_555 1_555
C65_4 H36_4 1_555 1_555
C66_4 C37_4 1_555 1_555
C67_4 C66_4 1_555 1_555
H37_4 C67_4 1_555 1_555
C68_4 C67_4 1_555 1_555
H38_4 C68_4 1_555 1_555
C69_4 C3_4 1_555 1_555
C70_4 C65_4 1_555 1_555
H39_4 C70_4 1_555 1_555
C71_4 C6_4 1_555 1_555
H40_4 C71_4 1_555 1_555
O9_4 In2_4 1_555 1_555
O10_4 In2_4 1_555 1_555
C7_4 C14_4 1_555 1_555
C19_4 C20_4 1_555 1_555
C27_4 C30_4 1_555 1_555
C27_4 C49_4 1_555 1_555
C33_4 C51_4 1_555 1_555
C34_4 C40_4 1_555 1_555
C38_4 C39_4 1_555 1_555
C40_4 C49_4 1_555 1_555
C50_4 C71_4 1_555 1_555
C65_4 C66_4 1_555 1_555
C68_4 C69_4 1_555 1_555
C69_4 C70_4 1_555 1_555
O9_4 H169_4 1_555 1_555
O9_4 H170_4 1_555 1_555
O10_4 H172_4 1_555 1_555
In6 O17 1_555 1_555
In7 N5 1_555 1_555
O17 C143 1_555 1_555
N5 C87 1_555 1_555
O19 C142 1_555 1_555
C73 N6 1_555 1_555
O21 In6 1_555 1_555
C74 N8 1_555 1_555
C75 C76 1_555 1_555
C76 H41 1_555 1_555
C77 C76 1_555 1_555
H42 C77 1_555 1_555
C78 C77 1_555 1_555
C79 C78 1_555 1_555
H43 C79 1_555 1_555
C80 C75 1_555 1_555
H44 C80 1_555 1_555
N6 In7 1_555 1_555
C81 N6 1_555 1_555
N7 In7 1_555 1_555
N8 In7 1_555 1_555
O24 C142 1_555 1_555
C83 C75 1_555 1_555
C84 N7 1_555 1_555
C85 H45 1_555 1_555
C86 C84 1_555 1_555
H46 C86 1_555 1_555
C87 C83 1_555 1_555
C88 N7 1_555 1_555
C89 H47 1_555 1_555
C90 C89 1_555 1_555
H48 C90 1_555 1_555
C91 C90 1_555 1_555
C92 C91 1_555 1_555
H49 C92 1_555 1_555
C93 C92 1_555 1_555
H50 C93 1_555 1_555
C94 C89 1_555 1_555
C95 H51 1_555 1_555
C96 C73 1_555 1_555
C97 N5 1_555 1_555
C98 C73 1_555 1_555
H52 C98 1_555 1_555
C99 C81 1_555 1_555
H53 C99 1_555 1_555
C101 C100 1_555 1_555
C102 C101 1_555 1_555
H55 C102 1_555 1_555
C103 C102 1_555 1_555
H56 C103 1_555 1_555
C104 C103 1_555 1_555
C106 C78 1_555 1_555
C107 C106 1_555 1_555
H58 C107 1_555 1_555
C108 C107 1_555 1_555
H59 C108 1_555 1_555
C109 C108 1_555 1_555
C110 C109 1_555 1_555
H60 C110 1_555 1_555
C111 C106 1_555 1_555
H61 C111 1_555 1_555
C112 N8 1_555 1_555
C113 C74 1_555 1_555
C114 C91 1_555 1_555
C115 C114 1_555 1_555
H62 C115 1_555 1_555
C116 C115 1_555 1_555
H63 C116 1_555 1_555
C117 C96 1_555 1_555
C118 C117 1_555 1_555
H64 C118 1_555 1_555
C119 C114 1_555 1_555
H65 C119 1_555 1_555
C120 H66 1_555 1_555
C121 C120 1_555 1_555
H67 C121 1_555 1_555
C122 C113 1_555 1_555
C123 C122 1_555 1_555
H68 C123 1_555 1_555
C124 C123 1_555 1_555
H69 C124 1_555 1_555
C125 C120 1_555 1_555
C126 C87 1_555 1_555
H70 C126 1_555 1_555
C127 C97 1_555 1_555
C128 C112 1_555 1_555
H71 C128 1_555 1_555
C129 C125 1_555 1_555
C130 C129 1_555 1_555
H72 C130 1_555 1_555
C131 C130 1_555 1_555
H73 C131 1_555 1_555
C132 C131 1_555 1_555
C133 C132 1_555 1_555
H74 C133 1_555 1_555
C134 C129 1_555 1_555
H75 C134 1_555 1_555
C135 C127 1_555 1_555
C136 C135 1_555 1_555
H76 C136 1_555 1_555
C137 C136 1_555 1_555
H77 C137 1_555 1_555
C138 C101 1_555 1_555
C139 C138 1_555 1_555
H78 C139 1_555 1_555
C140 C135 1_555 1_555
H79 C140 1_555 1_555
C141 C74 1_555 1_555
H80 C141 1_555 1_555
O25 In7 1_555 1_555
O26 In7 1_555 1_555
C142 C132 1_555 1_555
C143 O21 1_555 1_555
C144 C109 1_555 1_555
In8 O19 1_555 1_555
O27 In6 1_555 1_555
O28 In6 1_555 1_555
O29 In6 1_555 1_555
O30 In6 1_555 1_555
O31 In6 1_555 1_555
O32 In6 1_555 1_555
C79 C80 1_555 1_555
C81 C83 1_555 1_555
O24 In8 1_555 1_555
C84 C96 1_555 1_555
C85 C86 1_555 1_555
C85 C88 1_555 1_555
C88 C113 1_555 1_555
C93 C94 1_555 1_555
C94 C143 1_555 1_555
C95 C97 1_555 1_555
C95 C126 1_555 1_555
C98 C99 1_555 1_555
C110 C111 1_555 1_555
C112 C127 1_555 1_555
C116 C117 1_555 1_555
C118 C119 1_555 1_555
C121 C122 1_555 1_555
C124 C125 1_555 1_555
C128 C141 1_555 1_555
C133 C134 1_555 1_555
C137 C138 1_555 1_555
C139 C140 1_555 1_555
O26 H173 1_555 1_555
O26 H174 1_555 1_555
O25 H175 1_555 1_555
O25 H176 1_555 1_555
O20 C82 1_555 1_555
In9 O18 1_555 1_555
O22 In9 1_555 1_555
O23 In10 1_555 1_555
In8 O17_2 1_555 1_555
O17_2 C143_2 1_555 1_555
O21_2 In8 1_555 1_555
H42_2 C77_2 1_555 1_555
C78_2 C77_2 1_555 1_555
C89_2 H47_2 1_555 1_555
C90_2 C89_2 1_555 1_555
H48_2 C90_2 1_555 1_555
C91_2 C90_2 1_555 1_555
C92_2 C91_2 1_555 1_555
H49_2 C92_2 1_555 1_555
C93_2 C92_2 1_555 1_555
H50_2 C93_2 1_555 1_555
C94_2 C89_2 1_555 1_555
C106_2 C78_2 1_555 1_555
C107_2 C106_2 1_555 1_555
H58_2 C107_2 1_555 1_555
C108_2 C107_2 1_555 1_555
H59_2 C108_2 1_555 1_555
C109_2 C108_2 1_555 1_555
C110_2 C109_2 1_555 1_555
H60_2 C110_2 1_555 1_555
C111_2 C106_2 1_555 1_555
H61_2 C111_2 1_555 1_555
C114_2 C91_2 1_555 1_555
C143_2 O21_2 1_555 1_555
C144_2 C109_2 1_555 1_555
O27_2 In8 1_555 1_555
O29_2 In8 1_555 1_555
O30_2 In8 1_555 1_555
O31_2 In8 1_555 1_555
C93_2 C94_2 1_555 1_555
C94_2 C143_2 1_555 1_555
C110_2 C111_2 1_555 1_555
In7_2 N5_2 1_555 1_555
N5_2 C87_2 1_555 1_555
O28 C142_2 1_555 1_555
C73_2 N6_2 1_555 1_555
C74_2 N8_2 1_555 1_555
C75_2 C76_2 1_555 1_555
C76_2 H41_2 1_555 1_555
H43_2 C79_2 1_555 1_555
C80_2 C75_2 1_555 1_555
H44_2 C80_2 1_555 1_555
N6_2 In7_2 1_555 1_555
C81_2 N6_2 1_555 1_555
N7_2 In7_2 1_555 1_555
N8_2 In7_2 1_555 1_555
O32 C142_2 1_555 1_555
C83_2 C75_2 1_555 1_555
C84_2 N7_2 1_555 1_555
C85_2 H45_2 1_555 1_555
C86_2 C84_2 1_555 1_555
H46_2 C86_2 1_555 1_555
C87_2 C83_2 1_555 1_555
C88_2 N7_2 1_555 1_555
C95_2 H51_2 1_555 1_555
C96_2 C73_2 1_555 1_555
C97_2 N5_2 1_555 1_555
C98_2 C73_2 1_555 1_555
H52_2 C98_2 1_555 1_555
C99_2 C81_2 1_555 1_555
H53_2 C99_2 1_555 1_555
C101_2 C100_2 1_555 1_555
C102_2 C101_2 1_555 1_555
H55_2 C102_2 1_555 1_555
C103_2 C102_2 1_555 1_555
H56_2 C103_2 1_555 1_555
C104_2 C103_2 1_555 1_555
C112_2 N8_2 1_555 1_555
C113_2 C74_2 1_555 1_555
C116_2 C115_2 1_555 1_555
H63_2 C116_2 1_555 1_555
C117_2 C96_2 1_555 1_555
C118_2 C117_2 1_555 1_555
H64_2 C118_2 1_555 1_555
H65_2 C119_2 1_555 1_555
C120_2 H66_2 1_555 1_555
C121_2 C120_2 1_555 1_555
H67_2 C121_2 1_555 1_555
C122_2 C113_2 1_555 1_555
C123_2 C122_2 1_555 1_555
H68_2 C123_2 1_555 1_555
C124_2 C123_2 1_555 1_555
H69_2 C124_2 1_555 1_555
C125_2 C120_2 1_555 1_555
C126_2 C87_2 1_555 1_555
H70_2 C126_2 1_555 1_555
C127_2 C97_2 1_555 1_555
C128_2 C112_2 1_555 1_555
H71_2 C128_2 1_555 1_555
C129_2 C125_2 1_555 1_555
C130_2 C129_2 1_555 1_555
H72_2 C130_2 1_555 1_555
C131_2 C130_2 1_555 1_555
H73_2 C131_2 1_555 1_555
C132_2 C131_2 1_555 1_555
C133_2 C132_2 1_555 1_555
H74_2 C133_2 1_555 1_555
C134_2 C129_2 1_555 1_555
H75_2 C134_2 1_555 1_555
C135_2 C127_2 1_555 1_555
C136_2 C135_2 1_555 1_555
H76_2 C136_2 1_555 1_555
C137_2 C136_2 1_555 1_555
H77_2 C137_2 1_555 1_555
C138_2 C101_2 1_555 1_555
C139_2 C138_2 1_555 1_555
H78_2 C139_2 1_555 1_555
C140_2 C135_2 1_555 1_555
H79_2 C140_2 1_555 1_555
C141_2 C74_2 1_555 1_555
H80_2 C141_2 1_555 1_555
O25_2 In7_2 1_555 1_555
O26_2 In7_2 1_555 1_555
C142_2 C132_2 1_555 1_555
C79_2 C80_2 1_555 1_555
C81_2 C83_2 1_555 1_555
C84_2 C96_2 1_555 1_555
C85_2 C86_2 1_555 1_555
C85_2 C88_2 1_555 1_555
C88_2 C113_2 1_555 1_555
C95_2 C97_2 1_555 1_555
C95_2 C126_2 1_555 1_555
C98_2 C99_2 1_555 1_555
C112_2 C127_2 1_555 1_555
C116_2 C117_2 1_555 1_555
C118_2 C119_2 1_555 1_555
C121_2 C122_2 1_555 1_555
C124_2 C125_2 1_555 1_555
C128_2 C141_2 1_555 1_555
C133_2 C134_2 1_555 1_555
C137_2 C138_2 1_555 1_555
C139_2 C140_2 1_555 1_555
O26_2 H173_2 1_555 1_555
O26_2 H174_2 1_555 1_555
O25_2 H175_2 1_555 1_555
O25_2 H176_2 1_555 1_555
O23_2 In9 1_555 1_555
In10 O18_2 1_555 1_555
O22_2 In10 1_555 1_555
O20_2 C82_2 1_555 1_555
In9 O17_3 1_555 1_555
O17_3 C143_3 1_555 1_555
C89_3 H47_3 1_555 1_555
O28_2 In9 1_555 1_555
O32_2 In9 1_555 1_555
In7_3 N5_3 1_555 1_555
N5_3 C87_3 1_555 1_555
O27 C144_3 1_555 1_555
O19_2 C142_3 1_555 1_555
C73_3 N6_3 1_555 1_555
O29_2 C82_3 1_555 1_555
C74_3 N8_3 1_555 1_555
O30 C144_3 1_555 1_555
C75_3 C76_3 1_555 1_555
C76_3 H41_3 1_555 1_555
C77_3 C76_3 1_555 1_555
H42_3 C77_3 1_555 1_555
C78_3 C77_3 1_555 1_555
C79_3 C78_3 1_555 1_555
H43_3 C79_3 1_555 1_555
C80_3 C75_3 1_555 1_555
H44_3 C80_3 1_555 1_555
N6_3 In7_3 1_555 1_555
C81_3 N6_3 1_555 1_555
N7_3 In7_3 1_555 1_555
N8_3 In7_3 1_555 1_555
O31_2 C82_3 1_555 1_555
O24_2 C142_3 1_555 1_555
C82_3 C104_3 1_555 1_555
C83_3 C75_3 1_555 1_555
C84_3 N7_3 1_555 1_555
C85_3 H45_3 1_555 1_555
C86_3 C84_3 1_555 1_555
H46_3 C86_3 1_555 1_555
C87_3 C83_3 1_555 1_555
C88_3 N7_3 1_555 1_555
C91_3 C90_3 1_555 1_555
C92_3 C91_3 1_555 1_555
H49_3 C92_3 1_555 1_555
C93_3 C92_3 1_555 1_555
H50_3 C93_3 1_555 1_555
C95_3 H51_3 1_555 1_555
C96_3 C73_3 1_555 1_555
C97_3 N5_3 1_555 1_555
C98_3 C73_3 1_555 1_555
H52_3 C98_3 1_555 1_555
C99_3 C81_3 1_555 1_555
H53_3 C99_3 1_555 1_555
C100_3 H54 1_555 1_555
C101_3 C100_3 1_555 1_555
C102_3 C101_3 1_555 1_555
H55_3 C102_3 1_555 1_555
C103_3 C102_3 1_555 1_555
H56_3 C103_3 1_555 1_555
C104_3 C103_3 1_555 1_555
C105 C100_3 1_555 1_555
H57 C105 1_555 1_555
C106_3 C78_3 1_555 1_555
C107_3 C106_3 1_555 1_555
H58_3 C107_3 1_555 1_555
C108_3 C107_3 1_555 1_555
H59_3 C108_3 1_555 1_555
C109_3 C108_3 1_555 1_555
C110_3 C109_3 1_555 1_555
H60_3 C110_3 1_555 1_555
C111_3 C106_3 1_555 1_555
H61_3 C111_3 1_555 1_555
C112_3 N8_3 1_555 1_555
C113_3 C74_3 1_555 1_555
C114_3 C91_3 1_555 1_555
C115_3 C114_3 1_555 1_555
H62_3 C115_3 1_555 1_555
C116_3 C115_3 1_555 1_555
H63_3 C116_3 1_555 1_555
C117_3 C96_3 1_555 1_555
C118_3 C117_3 1_555 1_555
H64_3 C118_3 1_555 1_555
C119_3 C114_3 1_555 1_555
H65_3 C119_3 1_555 1_555
C120_3 H66_3 1_555 1_555
C121_3 C120_3 1_555 1_555
H67_3 C121_3 1_555 1_555
C122_3 C113_3 1_555 1_555
C123_3 C122_3 1_555 1_555
H68_3 C123_3 1_555 1_555
C124_3 C123_3 1_555 1_555
H69_3 C124_3 1_555 1_555
C125_3 C120_3 1_555 1_555
C126_3 C87_3 1_555 1_555
H70_3 C126_3 1_555 1_555
C127_3 C97_3 1_555 1_555
C128_3 C112_3 1_555 1_555
H71_3 C128_3 1_555 1_555
C129_3 C125_3 1_555 1_555
C130_3 C129_3 1_555 1_555
H72_3 C130_3 1_555 1_555
C131_3 C130_3 1_555 1_555
H73_3 C131_3 1_555 1_555
C132_3 C131_3 1_555 1_555
C133_3 C132_3 1_555 1_555
H74_3 C133_3 1_555 1_555
C134_3 C129_3 1_555 1_555
H75_3 C134_3 1_555 1_555
C135_3 C127_3 1_555 1_555
C136_3 C135_3 1_555 1_555
H76_3 C136_3 1_555 1_555
C137_3 C136_3 1_555 1_555
H77_3 C137_3 1_555 1_555
C138_3 C101_3 1_555 1_555
C139_3 C138_3 1_555 1_555
H78_3 C139_3 1_555 1_555
C140_3 C135_3 1_555 1_555
H79_3 C140_3 1_555 1_555
C141_3 C74_3 1_555 1_555
H80_3 C141_3 1_555 1_555
O25_3 In7_3 1_555 1_555
O26_3 In7_3 1_555 1_555
C142_3 C132_3 1_555 1_555
C144_3 C109_3 1_555 1_555
In10 O19_2 1_555 1_555
C79_3 C80_3 1_555 1_555
C81_3 C83_3 1_555 1_555
O24_2 In10 1_555 1_555
C84_3 C96_3 1_555 1_555
C85_3 C86_3 1_555 1_555
C85_3 C88_3 1_555 1_555
C88_3 C113_3 1_555 1_555
C93_3 C94_3 1_555 1_555
C95_3 C97_3 1_555 1_555
C95_3 C126_3 1_555 1_555
C98_3 C99_3 1_555 1_555
C104_3 C105 1_555 1_555
C110_3 C111_3 1_555 1_555
C112_3 C127_3 1_555 1_555
C116_3 C117_3 1_555 1_555
C118_3 C119_3 1_555 1_555
C121_3 C122_3 1_555 1_555
C124_3 C125_3 1_555 1_555
C128_3 C141_3 1_555 1_555
C133_3 C134_3 1_555 1_555
C137_3 C138_3 1_555 1_555
C139_3 C140_3 1_555 1_555
O26_3 H173_3 1_555 1_555
O26_3 H174_3 1_555 1_555
O25_3 H175_3 1_555 1_555
O25_3 H176_3 1_555 1_555
O27_2 C144_4 1_555 1_555
O30_2 C144_4 1_555 1_555
H42_4 C77_4 1_555 1_555
C78_4 C77_4 1_555 1_555
C91_4 C90_4 1_555 1_555
C92_4 C91_4 1_555 1_555
H49_4 C92_4 1_555 1_555
C93_4 C92_4 1_555 1_555
H50_4 C93_4 1_555 1_555
C106_4 C78_4 1_555 1_555
C107_4 C106_4 1_555 1_555
H58_4 C107_4 1_555 1_555
C108_4 C107_4 1_555 1_555
H59_4 C108_4 1_555 1_555
C109_4 C108_4 1_555 1_555
C110_4 C109_4 1_555 1_555
H60_4 C110_4 1_555 1_555
C111_4 C106_4 1_555 1_555
H61_4 C111_4 1_555 1_555
C114_4 C91_4 1_555 1_555
C144_4 C109_4 1_555 1_555
C93_4 C94_4 1_555 1_555
C110_4 C111_4 1_555 1_555
In7_4 N5_4 1_555 1_555
N5_4 C87_4 1_555 1_555
O28_2 C142_4 1_555 1_555
C73_4 N6_4 1_555 1_555
O29 C82_4 1_555 1_555
C74_4 N8_4 1_555 1_555
C75_4 C76_4 1_555 1_555
C76_4 H41_4 1_555 1_555
H43_4 C79_4 1_555 1_555
C80_4 C75_4 1_555 1_555
H44_4 C80_4 1_555 1_555
N6_4 In7_4 1_555 1_555
C81_4 N6_4 1_555 1_555
N7_4 In7_4 1_555 1_555
N8_4 In7_4 1_555 1_555
O31 C82_4 1_555 1_555
O32_2 C142_4 1_555 1_555
C82_4 C104_4 1_555 1_555
C83_4 C75_4 1_555 1_555
C84_4 N7_4 1_555 1_555
C85_4 H45_4 1_555 1_555
C86_4 C84_4 1_555 1_555
H46_4 C86_4 1_555 1_555
C87_4 C83_4 1_555 1_555
C88_4 N7_4 1_555 1_555
C95_4 H51_4 1_555 1_555
C96_4 C73_4 1_555 1_555
C97_4 N5_4 1_555 1_555
C98_4 C73_4 1_555 1_555
H52_4 C98_4 1_555 1_555
C99_4 C81_4 1_555 1_555
H53_4 C99_4 1_555 1_555
C100_4 H54_2 1_555 1_555
C101_4 C100_4 1_555 1_555
C102_4 C101_4 1_555 1_555
H55_4 C102_4 1_555 1_555
C103_4 C102_4 1_555 1_555
H56_4 C103_4 1_555 1_555
C104_4 C103_4 1_555 1_555
C105_2 C100_4 1_555 1_555
H57_2 C105_2 1_555 1_555
C112_4 N8_4 1_555 1_555
C113_4 C74_4 1_555 1_555
C116_4 C115_4 1_555 1_555
H63_4 C116_4 1_555 1_555
C117_4 C96_4 1_555 1_555
C118_4 C117_4 1_555 1_555
H64_4 C118_4 1_555 1_555
H65_4 C119_4 1_555 1_555
C120_4 H66_4 1_555 1_555
C121_4 C120_4 1_555 1_555
H67_4 C121_4 1_555 1_555
C122_4 C113_4 1_555 1_555
C123_4 C122_4 1_555 1_555
H68_4 C123_4 1_555 1_555
C124_4 C123_4 1_555 1_555
H69_4 C124_4 1_555 1_555
C125_4 C120_4 1_555 1_555
C126_4 C87_4 1_555 1_555
H70_4 C126_4 1_555 1_555
C127_4 C97_4 1_555 1_555
C128_4 C112_4 1_555 1_555
H71_4 C128_4 1_555 1_555
C129_4 C125_4 1_555 1_555
C130_4 C129_4 1_555 1_555
H72_4 C130_4 1_555 1_555
C131_4 C130_4 1_555 1_555
H73_4 C131_4 1_555 1_555
C132_4 C131_4 1_555 1_555
C133_4 C132_4 1_555 1_555
H74_4 C133_4 1_555 1_555
C134_4 C129_4 1_555 1_555
H75_4 C134_4 1_555 1_555
C135_4 C127_4 1_555 1_555
C136_4 C135_4 1_555 1_555
H76_4 C136_4 1_555 1_555
C137_4 C136_4 1_555 1_555
H77_4 C137_4 1_555 1_555
C138_4 C101_4 1_555 1_555
C139_4 C138_4 1_555 1_555
H78_4 C139_4 1_555 1_555
C140_4 C135_4 1_555 1_555
H79_4 C140_4 1_555 1_555
C141_4 C74_4 1_555 1_555
H80_4 C141_4 1_555 1_555
O25_4 In7_4 1_555 1_555
O26_4 In7_4 1_555 1_555
C142_4 C132_4 1_555 1_555
C79_4 C80_4 1_555 1_555
C81_4 C83_4 1_555 1_555
C84_4 C96_4 1_555 1_555
C85_4 C86_4 1_555 1_555
C85_4 C88_4 1_555 1_555
C88_4 C113_4 1_555 1_555
C95_4 C97_4 1_555 1_555
C95_4 C126_4 1_555 1_555
C98_4 C99_4 1_555 1_555
C104_4 C105_2 1_555 1_555
C112_4 C127_4 1_555 1_555
C116_4 C117_4 1_555 1_555
C118_4 C119_4 1_555 1_555
C121_4 C122_4 1_555 1_555
C124_4 C125_4 1_555 1_555
C128_4 C141_4 1_555 1_555
C133_4 C134_4 1_555 1_555
C137_4 C138_4 1_555 1_555
C139_4 C140_4 1_555 1_555
O26_4 H173_4 1_555 1_555
O26_4 H174_4 1_555 1_555
O25_4 H175_4 1_555 1_555
O25_4 H176_4 1_555 1_555
In10 O17_4 1_555 1_555
O17_4 C143_4 1_555 1_555
C89_4 H47_4 1_555 1_555
H57_3 C105_3 1_555 1_555
H57_4 C105_4 1_555 1_555
In11 N9 1_555 1_555
O34 C202 1_555 1_555
O35 C204 1_555 1_555
N9 C153 1_555 1_555
N10 In11 1_555 1_555
N11 In11 1_555 1_555
C145 N12 1_555 1_555
C146 C147 1_555 1_555
C147 H81 1_555 1_555
C148 C147 1_555 1_555
H82 C148 1_555 1_555
C149 C148 1_555 1_555
C150 C149 1_555 1_555
H83 C150 1_555 1_555
C151 C146 1_555 1_555
H84 C151 1_555 1_555
N12 In11 1_555 1_555
C153 C188 1_555 1_555
C154 H85 1_555 1_555
C155 N9 1_555 1_555
C156 N12 1_555 1_555
C157 H86 1_555 1_555
C163 C158 1_555 1_555
H90 C163 1_555 1_555
C165 C149 1_555 1_555
C166 C165 1_555 1_555
H91 C166 1_555 1_555
C167 C166 1_555 1_555
H92 C167 1_555 1_555
C168 C167 1_555 1_555
C169 C168 1_555 1_555
H93 C169 1_555 1_555
C170 C165 1_555 1_555
H94 C170 1_555 1_555
H96 C173 1_555 1_555
C174 C173 1_555 1_555
C175 C174 1_555 1_555
H97 C175 1_555 1_555
C177 C174 1_555 1_555
C178 C177 1_555 1_555
H99 C178 1_555 1_555
C179 C178 1_555 1_555
H100 C179 1_555 1_555
C180 C179 1_555 1_555
C181 C180 1_555 1_555
H101 C181 1_555 1_555
C182 C177 1_555 1_555
H102 C182 1_555 1_555
C183 N10 1_555 1_555
C184 N11 1_555 1_555
C185 C155 1_555 1_555
H103 C185 1_555 1_555
C186 C154 1_555 1_555
H104 C186 1_555 1_555
C187 C156 1_555 1_555
C188 C185 1_555 1_555
H105 C188 1_555 1_555
C189 C153 1_555 1_555
C190 N10 1_555 1_555
C191 N11 1_555 1_555
C192 C155 1_555 1_555
C193 C145 1_555 1_555
H106 C193 1_555 1_555
C194 C195 1_555 1_555
C195 H107 1_555 1_555
C196 C195 1_555 1_555
H108 C196 1_555 1_555
C197 C196 1_555 1_555
C198 C197 1_555 1_555
H109 C198 1_555 1_555
C199 C194 1_555 1_555
H110 C199 1_555 1_555
C200 C156 1_555 1_555
H111 C200 1_555 1_555
C201 C145 1_555 1_555
O39 C202 1_555 1_555
C202 C146 1_555 1_555
C203 C157 1_555 1_555
H112 C203 1_555 1_555
O40 In11 1_555 1_555
O41 In11 1_555 1_555
O42 C204 1_555 1_555
C204 C197 1_555 1_555
C205 C201 1_555 1_555
C206 C205 1_555 1_555
H113 C206 1_555 1_555
C207 C206 1_555 1_555
H114 C207 1_555 1_555
C208 C194 1_555 1_555
C209 C208 1_555 1_555
H115 C209 1_555 1_555
C210 C205 1_555 1_555
H116 C210 1_555 1_555
C211 C189 1_555 1_555
C212 C211 1_555 1_555
H117 C212 1_555 1_555
C213 C212 1_555 1_555
H118 C213 1_555 1_555
C214 C158 1_555 1_555
C215 C214 1_555 1_555
H119 C215 1_555 1_555
C216 C211 1_555 1_555
H120 C216 1_555 1_555
In13 O34 1_555 1_555
In15 O35 1_555 1_555
C150 C151 1_555 1_555
C154 C183 1_555 1_555
C157 C184 1_555 1_555
C168 C187 1_555 1_555
C169 C170 1_555 1_555
C180 C192 1_555 1_555
C181 C182 1_555 1_555
C183 C187 1_555 1_555
C184 C201 1_555 1_555
C186 C190 1_555 1_555
C189 C191 1_555 1_555
C190 C192 1_555 1_555
C191 C203 1_555 1_555
C193 C200 1_555 1_555
C198 C199 1_555 1_555
O39 In13 1_555 1_555
O42 In15 1_555 1_555
C207 C208 1_555 1_555
C209 C210 1_555 1_555
C213 C214 1_555 1_555
C215 C216 1_555 1_555
O40 H161 1_555 1_555
O40 H162 1_555 1_555
O41 H163 1_555 1_555
O41 H164 1_555 1_555
In12 O36 1_555 1_555
O36 C164 1_555 1_555
O37 In12 1_555 1_555
O38 C152 1_555 1_555
C152 C161 1_555 1_555
C159 H87 1_555 1_555
C160 C159 1_555 1_555
H88 C160 1_555 1_555
C161 C160 1_555 1_555
C164 O37 1_555 1_555
C171 C164 1_555 1_555
C172 C171 1_555 1_555
H95 C172 1_555 1_555
C176 C171 1_555 1_555
H98 C176 1_555 1_555
O44 In12 1_555 1_555
O47 In12 1_555 1_555
H89 C162 1_555 1_555
In14 O33 1_555 1_555
H89_2 C162_2 1_555 1_555
In15 O33_2 1_555 1_555
In11_2 N9_2 1_555 1_555
In13 O36_2 1_555 1_555
O44 C202_2 1_555 1_555
O35_2 C204_2 1_555 1_555
N9_2 C153_2 1_555 1_555
O36_2 C164_2 1_555 1_555
N10_2 In11_2 1_555 1_555
O37_2 In13 1_555 1_555
N11_2 In11_2 1_555 1_555
O38_2 C152_2 1_555 1_555
C145_2 N12_2 1_555 1_555
C146_2 C147_2 1_555 1_555
C147_2 H81_2 1_555 1_555
C148_2 C147_2 1_555 1_555
H82_2 C148_2 1_555 1_555
C149_2 C148_2 1_555 1_555
C150_2 C149_2 1_555 1_555
H83_2 C150_2 1_555 1_555
C151_2 C146_2 1_555 1_555
H84_2 C151_2 1_555 1_555
N12_2 In11_2 1_555 1_555
C152_2 C161_2 1_555 1_555
C153_2 C188_2 1_555 1_555
C154_2 H85_2 1_555 1_555
C155_2 N9_2 1_555 1_555
C156_2 N12_2 1_555 1_555
C157_2 H86_2 1_555 1_555
C158_2 C159_2 1_555 1_555
C159_2 H87_2 1_555 1_555
C160_2 C159_2 1_555 1_555
H88_2 C160_2 1_555 1_555
C161_2 C160_2 1_555 1_555
C163_2 C158_2 1_555 1_555
H90_2 C163_2 1_555 1_555
C164_2 O37_2 1_555 1_555
C165_2 C149_2 1_555 1_555
C166_2 C165_2 1_555 1_555
H91_2 C166_2 1_555 1_555
C167_2 C166_2 1_555 1_555
H92_2 C167_2 1_555 1_555
C168_2 C167_2 1_555 1_555
C169_2 C168_2 1_555 1_555
H93_2 C169_2 1_555 1_555
C170_2 C165_2 1_555 1_555
H94_2 C170_2 1_555 1_555
C171_2 C164_2 1_555 1_555
C172_2 C171_2 1_555 1_555
H95_2 C172_2 1_555 1_555
C173_2 C172_2 1_555 1_555
H96_2 C173_2 1_555 1_555
C174_2 C173_2 1_555 1_555
C175_2 C174_2 1_555 1_555
H97_2 C175_2 1_555 1_555
C176_2 C171_2 1_555 1_555
H98_2 C176_2 1_555 1_555
C177_2 C174_2 1_555 1_555
C178_2 C177_2 1_555 1_555
H99_2 C178_2 1_555 1_555
C179_2 C178_2 1_555 1_555
H100_2 C179_2 1_555 1_555
C180_2 C179_2 1_555 1_555
C181_2 C180_2 1_555 1_555
H101_2 C181_2 1_555 1_555
C182_2 C177_2 1_555 1_555
H102_2 C182_2 1_555 1_555
C183_2 N10_2 1_555 1_555
C184_2 N11_2 1_555 1_555
C185_2 C155_2 1_555 1_555
H103_2 C185_2 1_555 1_555
C186_2 C154_2 1_555 1_555
H104_2 C186_2 1_555 1_555
C187_2 C156_2 1_555 1_555
C188_2 C185_2 1_555 1_555
H105_2 C188_2 1_555 1_555
C189_2 C153_2 1_555 1_555
C190_2 N10_2 1_555 1_555
C191_2 N11_2 1_555 1_555
C192_2 C155_2 1_555 1_555
C193_2 C145_2 1_555 1_555
H106_2 C193_2 1_555 1_555
C194_2 C195_2 1_555 1_555
C195_2 H107_2 1_555 1_555
C196_2 C195_2 1_555 1_555
H108_2 C196_2 1_555 1_555
C197_2 C196_2 1_555 1_555
C198_2 C197_2 1_555 1_555
H109_2 C198_2 1_555 1_555
C199_2 C194_2 1_555 1_555
H110_2 C199_2 1_555 1_555
C200_2 C156_2 1_555 1_555
H111_2 C200_2 1_555 1_555
C201_2 C145_2 1_555 1_555
O47 C202_2 1_555 1_555
C202_2 C146_2 1_555 1_555
C203_2 C157_2 1_555 1_555
H112_2 C203_2 1_555 1_555
O40_2 In11_2 1_555 1_555
O41_2 In11_2 1_555 1_555
O42_2 C204_2 1_555 1_555
C204_2 C197_2 1_555 1_555
C205_2 C201_2 1_555 1_555
C206_2 C205_2 1_555 1_555
H113_2 C206_2 1_555 1_555
C207_2 C206_2 1_555 1_555
H114_2 C207_2 1_555 1_555
C208_2 C194_2 1_555 1_555
C209_2 C208_2 1_555 1_555
H115_2 C209_2 1_555 1_555
C210_2 C205_2 1_555 1_555
H116_2 C210_2 1_555 1_555
C211_2 C189_2 1_555 1_555
C212_2 C211_2 1_555 1_555
H117_2 C212_2 1_555 1_555
C213_2 C212_2 1_555 1_555
H118_2 C213_2 1_555 1_555
C214_2 C158_2 1_555 1_555
C215_2 C214_2 1_555 1_555
H119_2 C215_2 1_555 1_555
C216_2 C211_2 1_555 1_555
H120_2 C216_2 1_555 1_555
In14 O35_2 1_555 1_555
C150_2 C151_2 1_555 1_555
C154_2 C183_2 1_555 1_555
C157_2 C184_2 1_555 1_555
C168_2 C187_2 1_555 1_555
C169_2 C170_2 1_555 1_555
C175_2 C176_2 1_555 1_555
C180_2 C192_2 1_555 1_555
C181_2 C182_2 1_555 1_555
C183_2 C187_2 1_555 1_555
C184_2 C201_2 1_555 1_555
C186_2 C190_2 1_555 1_555
C189_2 C191_2 1_555 1_555
C190_2 C192_2 1_555 1_555
C191_2 C203_2 1_555 1_555
C193_2 C200_2 1_555 1_555
C198_2 C199_2 1_555 1_555
O42_2 In14 1_555 1_555
C207_2 C208_2 1_555 1_555
C209_2 C210_2 1_555 1_555
C213_2 C214_2 1_555 1_555
C215_2 C216_2 1_555 1_555
O40_2 H161_2 1_555 1_555
O40_2 H162_2 1_555 1_555
O41_2 H163_2 1_555 1_555
O41_2 H164_2 1_555 1_555
H84_3 C151_3 1_555 1_555
O39_2 C202_3 1_555 1_555
O39_2 In15 1_555 1_555
In11_3 N9_3 1_555 1_555
O45_2 C204_3 1_555 1_555
N9_3 C153_3 1_555 1_555
N10_3 In11_3 1_555 1_555
N11_3 In11_3 1_555 1_555
C145_3 N12_3 1_555 1_555
C146_3 C147_3 1_555 1_555
C147_3 H81_3 1_555 1_555
C148_3 C147_3 1_555 1_555
H82_3 C148_3 1_555 1_555
C149_3 C148_3 1_555 1_555
C150_3 C149_3 1_555 1_555
N12_3 In11_3 1_555 1_555
C153_3 C188_3 1_555 1_555
C154_3 H85_3 1_555 1_555
C155_3 N9_3 1_555 1_555
C156_3 N12_3 1_555 1_555
C157_3 H86_3 1_555 1_555
C163_3 C158_3 1_555 1_555
H90_3 C163_3 1_555 1_555
C165_3 C149_3 1_555 1_555
C166_3 C165_3 1_555 1_555
H91_3 C166_3 1_555 1_555
C167_3 C166_3 1_555 1_555
H92_3 C167_3 1_555 1_555
C168_3 C167_3 1_555 1_555
C169_3 C168_3 1_555 1_555
H93_3 C169_3 1_555 1_555
C170_3 C165_3 1_555 1_555
H94_3 C170_3 1_555 1_555
H96_3 C173_3 1_555 1_555
C174_3 C173_3 1_555 1_555
C175_3 C174_3 1_555 1_555
H97_3 C175_3 1_555 1_555
C177_3 C174_3 1_555 1_555
C178_3 C177_3 1_555 1_555
H99_3 C178_3 1_555 1_555
C179_3 C178_3 1_555 1_555
H100_3 C179_3 1_555 1_555
C180_3 C179_3 1_555 1_555
C181_3 C180_3 1_555 1_555
H101_3 C181_3 1_555 1_555
C182_3 C177_3 1_555 1_555
H102_3 C182_3 1_555 1_555
C183_3 N10_3 1_555 1_555
C184_3 N11_3 1_555 1_555
C185_3 C155_3 1_555 1_555
H103_3 C185_3 1_555 1_555
C186_3 C154_3 1_555 1_555
H104_3 C186_3 1_555 1_555
C187_3 C156_3 1_555 1_555
C188_3 C185_3 1_555 1_555
H105_3 C188_3 1_555 1_555
C189_3 C153_3 1_555 1_555
C190_3 N10_3 1_555 1_555
C191_3 N11_3 1_555 1_555
C192_3 C155_3 1_555 1_555
C193_3 C145_3 1_555 1_555
H106_3 C193_3 1_555 1_555
C194_3 C195_3 1_555 1_555
C195_3 H107_3 1_555 1_555
C196_3 C195_3 1_555 1_555
H108_3 C196_3 1_555 1_555
C197_3 C196_3 1_555 1_555
C198_3 C197_3 1_555 1_555
H109_3 C198_3 1_555 1_555
C199_3 C194_3 1_555 1_555
H110_3 C199_3 1_555 1_555
C200_3 C156_3 1_555 1_555
H111_3 C200_3 1_555 1_555
C201_3 C145_3 1_555 1_555
C203_3 C157_3 1_555 1_555
H112_3 C203_3 1_555 1_555
O40_3 In11_3 1_555 1_555
O41_3 In11_3 1_555 1_555
O48_2 C204_3 1_555 1_555
C204_3 C197_3 1_555 1_555
C205_3 C201_3 1_555 1_555
C206_3 C205_3 1_555 1_555
H113_3 C206_3 1_555 1_555
C207_3 C206_3 1_555 1_555
H114_3 C207_3 1_555 1_555
C208_3 C194_3 1_555 1_555
C209_3 C208_3 1_555 1_555
H115_3 C209_3 1_555 1_555
C210_3 C205_3 1_555 1_555
H116_3 C210_3 1_555 1_555
C211_3 C189_3 1_555 1_555
C212_3 C211_3 1_555 1_555
H117_3 C212_3 1_555 1_555
C213_3 C212_3 1_555 1_555
H118_3 C213_3 1_555 1_555
C214_3 C158_3 1_555 1_555
C215_3 C214_3 1_555 1_555
H119_3 C215_3 1_555 1_555
C216_3 C211_3 1_555 1_555
H120_3 C216_3 1_555 1_555
C154_3 C183_3 1_555 1_555
C157_3 C184_3 1_555 1_555
C168_3 C187_3 1_555 1_555
C169_3 C170_3 1_555 1_555
C180_3 C192_3 1_555 1_555
C181_3 C182_3 1_555 1_555
C183_3 C187_3 1_555 1_555
C184_3 C201_3 1_555 1_555
C186_3 C190_3 1_555 1_555
C189_3 C191_3 1_555 1_555
C190_3 C192_3 1_555 1_555
C191_3 C203_3 1_555 1_555
C193_3 C200_3 1_555 1_555
C198_3 C199_3 1_555 1_555
C207_3 C208_3 1_555 1_555
C209_3 C210_3 1_555 1_555
C213_3 C214_3 1_555 1_555
C215_3 C216_3 1_555 1_555
O40_3 H161_3 1_555 1_555
O40_3 H162_3 1_555 1_555
O41_3 H163_3 1_555 1_555
O41_3 H164_3 1_555 1_555
In14 O36_3 1_555 1_555
O43 C152_3 1_555 1_555
O36_3 C164_3 1_555 1_555
O37_3 In14 1_555 1_555
O46 C152_3 1_555 1_555
C152_3 C161_3 1_555 1_555
C159_3 H87_3 1_555 1_555
C160_3 C159_3 1_555 1_555
H88_3 C160_3 1_555 1_555
C161_3 C160_3 1_555 1_555
C162_3 C161_3 1_555 1_555
H89_3 C162_3 1_555 1_555
C164_3 O37_3 1_555 1_555
C171_3 C164_3 1_555 1_555
C172_3 C171_3 1_555 1_555
H95_3 C172_3 1_555 1_555
C176_3 C171_3 1_555 1_555
H98_3 C176_3 1_555 1_555
O47_2 In14 1_555 1_555
In11_4 N9_4 1_555 1_555
In15 O36_4 1_555 1_555
O43_2 C152_4 1_555 1_555
O45 C204_4 1_555 1_555
N9_4 C153_4 1_555 1_555
O36_4 C164_4 1_555 1_555
N10_4 In11_4 1_555 1_555
O37_4 In15 1_555 1_555
N11_4 In11_4 1_555 1_555
O46_2 C152_4 1_555 1_555
C145_4 N12_4 1_555 1_555
C146_4 C147_4 1_555 1_555
C147_4 H81_4 1_555 1_555
C148_4 C147_4 1_555 1_555
H82_4 C148_4 1_555 1_555
C149_4 C148_4 1_555 1_555
C150_4 C149_4 1_555 1_555
N12_4 In11_4 1_555 1_555
C152_4 C161_4 1_555 1_555
C153_4 C188_4 1_555 1_555
C154_4 H85_4 1_555 1_555
C155_4 N9_4 1_555 1_555
C156_4 N12_4 1_555 1_555
C157_4 H86_4 1_555 1_555
C158_4 C159_4 1_555 1_555
C159_4 H87_4 1_555 1_555
C160_4 C159_4 1_555 1_555
H88_4 C160_4 1_555 1_555
C161_4 C160_4 1_555 1_555
C162_4 C161_4 1_555 1_555
H89_4 C162_4 1_555 1_555
C163_4 C158_4 1_555 1_555
H90_4 C163_4 1_555 1_555
C164_4 O37_4 1_555 1_555
C165_4 C149_4 1_555 1_555
C166_4 C165_4 1_555 1_555
H91_4 C166_4 1_555 1_555
C167_4 C166_4 1_555 1_555
H92_4 C167_4 1_555 1_555
C168_4 C167_4 1_555 1_555
C169_4 C168_4 1_555 1_555
H93_4 C169_4 1_555 1_555
C170_4 C165_4 1_555 1_555
H94_4 C170_4 1_555 1_555
C171_4 C164_4 1_555 1_555
C172_4 C171_4 1_555 1_555
H95_4 C172_4 1_555 1_555
C173_4 C172_4 1_555 1_555
H96_4 C173_4 1_555 1_555
C174_4 C173_4 1_555 1_555
C175_4 C174_4 1_555 1_555
H97_4 C175_4 1_555 1_555
C176_4 C171_4 1_555 1_555
H98_4 C176_4 1_555 1_555
C177_4 C174_4 1_555 1_555
C178_4 C177_4 1_555 1_555
H99_4 C178_4 1_555 1_555
C179_4 C178_4 1_555 1_555
H100_4 C179_4 1_555 1_555
C180_4 C179_4 1_555 1_555
C181_4 C180_4 1_555 1_555
H101_4 C181_4 1_555 1_555
C182_4 C177_4 1_555 1_555
H102_4 C182_4 1_555 1_555
C183_4 N10_4 1_555 1_555
C184_4 N11_4 1_555 1_555
C185_4 C155_4 1_555 1_555
H103_4 C185_4 1_555 1_555
C186_4 C154_4 1_555 1_555
H104_4 C186_4 1_555 1_555
C187_4 C156_4 1_555 1_555
C188_4 C185_4 1_555 1_555
H105_4 C188_4 1_555 1_555
C189_4 C153_4 1_555 1_555
C190_4 N10_4 1_555 1_555
C191_4 N11_4 1_555 1_555
C192_4 C155_4 1_555 1_555
C193_4 C145_4 1_555 1_555
H106_4 C193_4 1_555 1_555
C194_4 C195_4 1_555 1_555
C195_4 H107_4 1_555 1_555
C196_4 C195_4 1_555 1_555
H108_4 C196_4 1_555 1_555
C197_4 C196_4 1_555 1_555
C198_4 C197_4 1_555 1_555
H109_4 C198_4 1_555 1_555
C199_4 C194_4 1_555 1_555
H110_4 C199_4 1_555 1_555
C200_4 C156_4 1_555 1_555
H111_4 C200_4 1_555 1_555
C201_4 C145_4 1_555 1_555
C203_4 C157_4 1_555 1_555
H112_4 C203_4 1_555 1_555
O40_4 In11_4 1_555 1_555
O41_4 In11_4 1_555 1_555
O48 C204_4 1_555 1_555
C204_4 C197_4 1_555 1_555
C205_4 C201_4 1_555 1_555
C206_4 C205_4 1_555 1_555
H113_4 C206_4 1_555 1_555
C207_4 C206_4 1_555 1_555
H114_4 C207_4 1_555 1_555
C208_4 C194_4 1_555 1_555
C209_4 C208_4 1_555 1_555
H115_4 C209_4 1_555 1_555
C210_4 C205_4 1_555 1_555
H116_4 C210_4 1_555 1_555
C211_4 C189_4 1_555 1_555
C212_4 C211_4 1_555 1_555
H117_4 C212_4 1_555 1_555
C213_4 C212_4 1_555 1_555
H118_4 C213_4 1_555 1_555
C214_4 C158_4 1_555 1_555
C215_4 C214_4 1_555 1_555
H119_4 C215_4 1_555 1_555
C216_4 C211_4 1_555 1_555
H120_4 C216_4 1_555 1_555
C154_4 C183_4 1_555 1_555
C157_4 C184_4 1_555 1_555
C162_4 C163_4 1_555 1_555
C168_4 C187_4 1_555 1_555
C169_4 C170_4 1_555 1_555
C175_4 C176_4 1_555 1_555
C180_4 C192_4 1_555 1_555
C181_4 C182_4 1_555 1_555
C183_4 C187_4 1_555 1_555
C184_4 C201_4 1_555 1_555
C186_4 C190_4 1_555 1_555
C189_4 C191_4 1_555 1_555
C190_4 C192_4 1_555 1_555
C191_4 C203_4 1_555 1_555
C193_4 C200_4 1_555 1_555
C198_4 C199_4 1_555 1_555
C207_4 C208_4 1_555 1_555
C209_4 C210_4 1_555 1_555
C213_4 C214_4 1_555 1_555
C215_4 C216_4 1_555 1_555
O40_4 H161_4 1_555 1_555
O40_4 H162_4 1_555 1_555
O41_4 H163_4 1_555 1_555
O41_4 H164_4 1_555 1_555
H84_4 C151_4 1_555 1_555
O47_2 C202_4 1_555 1_555
In18 O54 1_555 1_555
In16 O50 1_555 1_555
O50 C220 1_555 1_555
C220 O51 1_555 1_555
O51 In16 1_555 1_555
H123 C226 1_555 1_555
C227 C228 1_555 1_555
C228 H124 1_555 1_555
C229 C228 1_555 1_555
H125 C229 1_555 1_555
C230 C220 1_555 1_555
C231 C230 1_555 1_555
H126 C231 1_555 1_555
C232 C227 1_555 1_555
H127 C232 1_555 1_555
C247 H135 1_555 1_555
C248 C227 1_555 1_555
C249 C248 1_555 1_555
H136 C249 1_555 1_555
C252 C247 1_555 1_555
H138 C252 1_555 1_555
C268 C269 1_555 1_555
C269 H148 1_555 1_555
C270 C269 1_555 1_555
C272 C271 1_555 1_555
H150 C272 1_555 1_555
C273 C268 1_555 1_555
H151 C273 1_555 1_555
C280 O56 1_555 1_555
C282 H156 1_555 1_555
C283 C280 1_555 1_555
C284 C283 1_555 1_555
C285 C284 1_555 1_555
H158 C285 1_555 1_555
C286 C268 1_555 1_555
C287 C282 1_555 1_555
H159 C287 1_555 1_555
C288 C226 1_555 1_555
H160 C288 1_555 1_555
O60 In16 1_555 1_555
O61 In16 1_555 1_555
O62 In16 1_555 1_555
O64 In16 1_555 1_555
C229 C230 1_555 1_555
C231 C232 1_555 1_555
C247 C248 1_555 1_555
C251 C252 1_555 1_555
C270 C271 1_555 1_555
C272 C273 1_555 1_555
C282 C283 1_555 1_555
C285 C286 1_555 1_555
C286 C287 1_555 1_555
In17 N13 1_555 1_555
C217 C219 1_555 1_555
C218 N14 1_555 1_555
N13 C219 1_555 1_555
O49 C225 1_555 1_555
C219 C244 1_555 1_555
N14 In17 1_555 1_555
N15 In17 1_555 1_555
C221 C217 1_555 1_555
C222 N13 1_555 1_555
C223 H121 1_555 1_555
C224 C223 1_555 1_555
H122 C224 1_555 1_555
C225 O52 1_555 1_555
C233 N15 1_555 1_555
C234 C218 1_555 1_555
C235 N14 1_555 1_555
C236 C237 1_555 1_555
C237 H128 1_555 1_555
C238 C237 1_555 1_555
H129 C238 1_555 1_555
C239 C238 1_555 1_555
C240 C239 1_555 1_555
H130 C240 1_555 1_555
C241 C236 1_555 1_555
H131 C241 1_555 1_555
C242 C222 1_555 1_555
H132 C242 1_555 1_555
O52 In19 1_555 1_555
C243 C224 1_555 1_555
N16 In17 1_555 1_555
C244 C242 1_555 1_555
H133 C244 1_555 1_555
C245 C235 1_555 1_555
H134 C245 1_555 1_555
C246 C222 1_555 1_555
H137 C250 1_555 1_555
C253 C218 1_555 1_555
H139 C253 1_555 1_555
C254 C233 1_555 1_555
C255 C234 1_555 1_555
C256 C255 1_555 1_555
H140 C256 1_555 1_555
C257 C256 1_555 1_555
H141 C257 1_555 1_555
C258 C257 1_555 1_555
C259 C258 1_555 1_555
H142 C259 1_555 1_555
C260 C255 1_555 1_555
H143 C260 1_555 1_555
C261 H144 1_555 1_555
C262 C261 1_555 1_555
H145 C262 1_555 1_555
C263 C239 1_555 1_555
C264 C263 1_555 1_555
H146 C264 1_555 1_555
C265 C264 1_555 1_555
H147 C265 1_555 1_555
C266 C225 1_555 1_555
C267 C223 1_555 1_555
O53 In17 1_555 1_555
C274 C258 1_555 1_555
C275 C274 1_555 1_555
H152 C275 1_555 1_555
C276 C275 1_555 1_555
H153 C276 1_555 1_555
C277 C276 1_555 1_555
C278 C277 1_555 1_555
H154 C278 1_555 1_555
C279 C274 1_555 1_555
H155 C279 1_555 1_555
O55 C281 1_555 1_555
O57 C281 1_555 1_555
C281 C277 1_555 1_555
O58 In17 1_555 1_555
In19 O49 1_555 1_555
In20 O55 1_555 1_555
N15 C221 1_555 1_555
C234 C267 1_555 1_555
C235 C254 1_555 1_555
C236 C246 1_555 1_555
C240 C241 1_555 1_555
C243 N16 1_555 1_555
C243 C246 1_555 1_555
N16 C267 1_555 1_555
C245 C253 1_555 1_555
C259 C260 1_555 1_555
C261 C266 1_555 1_555
C262 C263 1_555 1_555
C265 C266 1_555 1_555
C278 C279 1_555 1_555
O57 In20 1_555 1_555
O53 H165 1_555 1_555
O53 H166 1_555 1_555
O58 H167 1_555 1_555
O58 H168 1_555 1_555
C280_2 O63 1_555 1_555
C282_2 H156_2 1_555 1_555
C283_2 C280_2 1_555 1_555
C282_2 C283_2 1_555 1_555
In18 O50_2 1_555 1_555
O50_2 C220_2 1_555 1_555
C220_2 O51_2 1_555 1_555
O51_2 In18 1_555 1_555
H123_2 C226_2 1_555 1_555
C227_2 C228_2 1_555 1_555
C228_2 H124_2 1_555 1_555
C229_2 C228_2 1_555 1_555
H125_2 C229_2 1_555 1_555
C230_2 C220_2 1_555 1_555
C231_2 C230_2 1_555 1_555
H126_2 C231_2 1_555 1_555
C232_2 C227_2 1_555 1_555
H127_2 C232_2 1_555 1_555
C247_2 H135_2 1_555 1_555
C248_2 C227_2 1_555 1_555
C249_2 C248_2 1_555 1_555
H136_2 C249_2 1_555 1_555
C252_2 C247_2 1_555 1_555
H138_2 C252_2 1_555 1_555
C268_2 C269_2 1_555 1_555
C269_2 H148_2 1_555 1_555
C270_2 C269_2 1_555 1_555
C272_2 C271_2 1_555 1_555
H150_2 C272_2 1_555 1_555
C273_2 C268_2 1_555 1_555
H151_2 C273_2 1_555 1_555
C285_2 C284_2 1_555 1_555
H158_2 C285_2 1_555 1_555
C286_2 C268_2 1_555 1_555
H159_2 C287_2 1_555 1_555
C288_2 C226_2 1_555 1_555
H160_2 C288_2 1_555 1_555
O60_2 In18 1_555 1_555
O62_2 In18 1_555 1_555
O64_2 In18 1_555 1_555
C229_2 C230_2 1_555 1_555
C231_2 C232_2 1_555 1_555
C247_2 C248_2 1_555 1_555
C251_2 C252_2 1_555 1_555
C270_2 C271_2 1_555 1_555
C272_2 C273_2 1_555 1_555
C285_2 C286_2 1_555 1_555
C286_2 C287_2 1_555 1_555
O55_2 C281_2 1_555 1_555
O57_2 C281_2 1_555 1_555
C281_2 C277_2 1_555 1_555
In19 O55_2 1_555 1_555
O57_2 In19 1_555 1_555
In17_2 N13_2 1_555 1_555
C217_2 C219_2 1_555 1_555
C218_2 N14_2 1_555 1_555
N13_2 C219_2 1_555 1_555
O49_2 C225_2 1_555 1_555
C219_2 C244_2 1_555 1_555
N14_2 In17_2 1_555 1_555
N15_2 In17_2 1_555 1_555
C221_2 C217_2 1_555 1_555
C222_2 N13_2 1_555 1_555
C223_2 H121_2 1_555 1_555
C224_2 C223_2 1_555 1_555
H122_2 C224_2 1_555 1_555
C225_2 O52_2 1_555 1_555
C233_2 N15_2 1_555 1_555
C234_2 C218_2 1_555 1_555
C235_2 N14_2 1_555 1_555
C236_2 C237_2 1_555 1_555
C237_2 H128_2 1_555 1_555
C238_2 C237_2 1_555 1_555
H129_2 C238_2 1_555 1_555
C239_2 C238_2 1_555 1_555
C240_2 C239_2 1_555 1_555
H130_2 C240_2 1_555 1_555
C241_2 C236_2 1_555 1_555
H131_2 C241_2 1_555 1_555
C242_2 C222_2 1_555 1_555
H132_2 C242_2 1_555 1_555
O52_2 In20 1_555 1_555
C243_2 C224_2 1_555 1_555
N16_2 In17_2 1_555 1_555
C244_2 C242_2 1_555 1_555
H133_2 C244_2 1_555 1_555
C245_2 C235_2 1_555 1_555
H134_2 C245_2 1_555 1_555
C246_2 C222_2 1_555 1_555
H137_2 C250_2 1_555 1_555
C253_2 C218_2 1_555 1_555
H139_2 C253_2 1_555 1_555
C254_2 C233_2 1_555 1_555
C255_2 C234_2 1_555 1_555
C256_2 C255_2 1_555 1_555
H140_2 C256_2 1_555 1_555
C257_2 C256_2 1_555 1_555
H141_2 C257_2 1_555 1_555
C258_2 C257_2 1_555 1_555
C259_2 C258_2 1_555 1_555
H142_2 C259_2 1_555 1_555
C260_2 C255_2 1_555 1_555
H143_2 C260_2 1_555 1_555
C261_2 H144_2 1_555 1_555
C262_2 C261_2 1_555 1_555
H145_2 C262_2 1_555 1_555
C263_2 C239_2 1_555 1_555
C264_2 C263_2 1_555 1_555
H146_2 C264_2 1_555 1_555
C265_2 C264_2 1_555 1_555
H147_2 C265_2 1_555 1_555
C266_2 C225_2 1_555 1_555
C267_2 C223_2 1_555 1_555
O53_2 In17_2 1_555 1_555
C274_2 C258_2 1_555 1_555
C275_2 C274_2 1_555 1_555
H152_2 C275_2 1_555 1_555
C276_2 C275_2 1_555 1_555
H153_2 C276_2 1_555 1_555
C279_2 C274_2 1_555 1_555
H155_2 C279_2 1_555 1_555
O58_2 In17_2 1_555 1_555
In20 O49_2 1_555 1_555
N15_2 C221_2 1_555 1_555
C234_2 C267_2 1_555 1_555
C235_2 C254_2 1_555 1_555
C236_2 C246_2 1_555 1_555
C240_2 C241_2 1_555 1_555
C243_2 N16_2 1_555 1_555
C243_2 C246_2 1_555 1_555
N16_2 C267_2 1_555 1_555
C245_2 C253_2 1_555 1_555
C259_2 C260_2 1_555 1_555
C261_2 C266_2 1_555 1_555
C262_2 C263_2 1_555 1_555
C265_2 C266_2 1_555 1_555
C278_2 C279_2 1_555 1_555
O53_2 H165_2 1_555 1_555
O53_2 H166_2 1_555 1_555
O58_2 H167_2 1_555 1_555
O58_2 H168_2 1_555 1_555
In19 O50_3 1_555 1_555
In17_3 N13_3 1_555 1_555
C217_3 C219_3 1_555 1_555
C218_3 N14_3 1_555 1_555
N13_3 C219_3 1_555 1_555
C219_3 C244_3 1_555 1_555
N14_3 In17_3 1_555 1_555
O50_3 C220_3 1_555 1_555
N15_3 In17_3 1_555 1_555
C220_3 O51_3 1_555 1_555
O51_3 In19 1_555 1_555
C221_3 C217_3 1_555 1_555
C222_3 N13_3 1_555 1_555
C223_3 H121_3 1_555 1_555
C224_3 C223_3 1_555 1_555
H122_3 C224_3 1_555 1_555
C226_3 C221_3 1_555 1_555
H123_3 C226_3 1_555 1_555
C227_3 C228_3 1_555 1_555
C228_3 H124_3 1_555 1_555
C229_3 C228_3 1_555 1_555
H125_3 C229_3 1_555 1_555
C230_3 C220_3 1_555 1_555
C231_3 C230_3 1_555 1_555
H126_3 C231_3 1_555 1_555
C232_3 C227_3 1_555 1_555
H127_3 C232_3 1_555 1_555
C233_3 N15_3 1_555 1_555
C234_3 C218_3 1_555 1_555
C235_3 N14_3 1_555 1_555
C236_3 C237_3 1_555 1_555
C237_3 H128_3 1_555 1_555
C238_3 C237_3 1_555 1_555
H129_3 C238_3 1_555 1_555
C239_3 C238_3 1_555 1_555
C240_3 C239_3 1_555 1_555
H130_3 C240_3 1_555 1_555
C241_3 C236_3 1_555 1_555
H131_3 C241_3 1_555 1_555
C242_3 C222_3 1_555 1_555
H132_3 C242_3 1_555 1_555
C243_3 C224_3 1_555 1_555
N16_3 In17_3 1_555 1_555
C244_3 C242_3 1_555 1_555
H133_3 C244_3 1_555 1_555
C245_3 C235_3 1_555 1_555
H134_3 C245_3 1_555 1_555
C246_3 C222_3 1_555 1_555
C247_3 H135_3 1_555 1_555
C248_3 C227_3 1_555 1_555
C249_3 C248_3 1_555 1_555
H136_3 C249_3 1_555 1_555
C250_3 C249_3 1_555 1_555
H137_3 C250_3 1_555 1_555
C251_3 C217_3 1_555 1_555
C252_3 C247_3 1_555 1_555
H138_3 C252_3 1_555 1_555
C253_3 C218_3 1_555 1_555
H139_3 C253_3 1_555 1_555
C254_3 C233_3 1_555 1_555
C255_3 C234_3 1_555 1_555
C256_3 C255_3 1_555 1_555
H140_3 C256_3 1_555 1_555
C257_3 C256_3 1_555 1_555
H141_3 C257_3 1_555 1_555
C258_3 C257_3 1_555 1_555
C259_3 C258_3 1_555 1_555
H142_3 C259_3 1_555 1_555
C260_3 C255_3 1_555 1_555
H143_3 C260_3 1_555 1_555
C261_3 H144_3 1_555 1_555
C262_3 C261_3 1_555 1_555
H145_3 C262_3 1_555 1_555
C263_3 C239_3 1_555 1_555
C264_3 C263_3 1_555 1_555
C267_3 C223_3 1_555 1_555
O53_3 In17_3 1_555 1_555
C268_3 C269_3 1_555 1_555
C269_3 H148_3 1_555 1_555
C270_3 C269_3 1_555 1_555
H149_3 C270_3 1_555 1_555
C271_3 C254_3 1_555 1_555
C272_3 C271_3 1_555 1_555
H150_3 C272_3 1_555 1_555
C273_3 C268_3 1_555 1_555
H151_3 C273_3 1_555 1_555
C274_3 C258_3 1_555 1_555
C275_3 C274_3 1_555 1_555
H152_3 C275_3 1_555 1_555
C276_3 C275_3 1_555 1_555
H153_3 C276_3 1_555 1_555
C277_3 C276_3 1_555 1_555
C278_3 C277_3 1_555 1_555
H154_3 C278_3 1_555 1_555
C279_3 C274_3 1_555 1_555
H155_3 C279_3 1_555 1_555
O54_2 C280_3 1_555 1_555
C280_3 O56_2 1_555 1_555
O62_2 C281_3 1_555 1_555
O56_2 In20 1_555 1_555
O64_2 C281_3 1_555 1_555
C281_3 C277_3 1_555 1_555
C282_3 H156_3 1_555 1_555
C283_3 C280_3 1_555 1_555
C284_3 C283_3 1_555 1_555
H157_3 C284_3 1_555 1_555
C285_3 C284_3 1_555 1_555
H158_3 C285_3 1_555 1_555
C286_3 C268_3 1_555 1_555
C287_3 C282_3 1_555 1_555
H159_3 C287_3 1_555 1_555
C288_3 C226_3 1_555 1_555
H160_3 C288_3 1_555 1_555
O58_3 In17_3 1_555 1_555
In20 O54_2 1_555 1_555
O61_2 In19 1_555 1_555
O63_2 In19 1_555 1_555
N15_3 C221_3 1_555 1_555
C229_3 C230_3 1_555 1_555
C231_3 C232_3 1_555 1_555
C233_3 C288_3 1_555 1_555
C234_3 C267_3 1_555 1_555
C235_3 C254_3 1_555 1_555
C236_3 C246_3 1_555 1_555
C240_3 C241_3 1_555 1_555
C243_3 N16_3 1_555 1_555
C243_3 C246_3 1_555 1_555
N16_3 C267_3 1_555 1_555
C245_3 C253_3 1_555 1_555
C247_3 C248_3 1_555 1_555
C250_3 C251_3 1_555 1_555
C251_3 C252_3 1_555 1_555
C259_3 C260_3 1_555 1_555
C261_3 C266_3 1_555 1_555
C262_3 C263_3 1_555 1_555
C270_3 C271_3 1_555 1_555
C272_3 C273_3 1_555 1_555
C278_3 C279_3 1_555 1_555
C282_3 C283_3 1_555 1_555
C285_3 C286_3 1_555 1_555
C286_3 C287_3 1_555 1_555
O53_3 H165_3 1_555 1_555
O53_3 H166_3 1_555 1_555
O58_3 H167_3 1_555 1_555
O58_3 H168_3 1_555 1_555
C225_3 O60 1_555 1_555
H147_3 C265_3 1_555 1_555
C225_4 O60_2 1_555 1_555
H147_4 C265_4 1_555 1_555
O61_2 C280_4 1_555 1_555
C280_4 O63_2 1_555 1_555
O62 C281_4 1_555 1_555
O64 C281_4 1_555 1_555
C281_4 C277_4 1_555 1_555
C282_4 H156_4 1_555 1_555
C283_4 C280_4 1_555 1_555
C282_4 C283_4 1_555 1_555
In20 O50_4 1_555 1_555
In17_4 N13_4 1_555 1_555
C217_4 C219_4 1_555 1_555
C218_4 N14_4 1_555 1_555
N13_4 C219_4 1_555 1_555
C219_4 C244_4 1_555 1_555
N14_4 In17_4 1_555 1_555
O50_4 C220_4 1_555 1_555
N15_4 In17_4 1_555 1_555
C220_4 O51_4 1_555 1_555
O51_4 In20 1_555 1_555
C221_4 C217_4 1_555 1_555
C222_4 N13_4 1_555 1_555
C223_4 H121_4 1_555 1_555
C224_4 C223_4 1_555 1_555
H122_4 C224_4 1_555 1_555
C226_4 C221_4 1_555 1_555
H123_4 C226_4 1_555 1_555
C227_4 C228_4 1_555 1_555
C228_4 H124_4 1_555 1_555
C229_4 C228_4 1_555 1_555
H125_4 C229_4 1_555 1_555
C230_4 C220_4 1_555 1_555
C231_4 C230_4 1_555 1_555
H126_4 C231_4 1_555 1_555
C232_4 C227_4 1_555 1_555
H127_4 C232_4 1_555 1_555
C233_4 N15_4 1_555 1_555
C234_4 C218_4 1_555 1_555
C235_4 N14_4 1_555 1_555
C236_4 C237_4 1_555 1_555
C237_4 H128_4 1_555 1_555
C238_4 C237_4 1_555 1_555
H129_4 C238_4 1_555 1_555
C239_4 C238_4 1_555 1_555
C240_4 C239_4 1_555 1_555
H130_4 C240_4 1_555 1_555
C241_4 C236_4 1_555 1_555
H131_4 C241_4 1_555 1_555
C242_4 C222_4 1_555 1_555
H132_4 C242_4 1_555 1_555
C243_4 C224_4 1_555 1_555
N16_4 In17_4 1_555 1_555
C244_4 C242_4 1_555 1_555
H133_4 C244_4 1_555 1_555
C245_4 C235_4 1_555 1_555
H134_4 C245_4 1_555 1_555
C246_4 C222_4 1_555 1_555
C247_4 H135_4 1_555 1_555
C248_4 C227_4 1_555 1_555
C249_4 C248_4 1_555 1_555
H136_4 C249_4 1_555 1_555
C250_4 C249_4 1_555 1_555
H137_4 C250_4 1_555 1_555
C251_4 C217_4 1_555 1_555
C252_4 C247_4 1_555 1_555
H138_4 C252_4 1_555 1_555
C253_4 C218_4 1_555 1_555
H139_4 C253_4 1_555 1_555
C254_4 C233_4 1_555 1_555
C255_4 C234_4 1_555 1_555
C256_4 C255_4 1_555 1_555
H140_4 C256_4 1_555 1_555
C257_4 C256_4 1_555 1_555
H141_4 C257_4 1_555 1_555
C258_4 C257_4 1_555 1_555
C259_4 C258_4 1_555 1_555
H142_4 C259_4 1_555 1_555
C260_4 C255_4 1_555 1_555
H143_4 C260_4 1_555 1_555
C261_4 H144_4 1_555 1_555
C262_4 C261_4 1_555 1_555
H145_4 C262_4 1_555 1_555
C263_4 C239_4 1_555 1_555
C264_4 C263_4 1_555 1_555
C267_4 C223_4 1_555 1_555
O53_4 In17_4 1_555 1_555
C268_4 C269_4 1_555 1_555
C269_4 H148_4 1_555 1_555
C270_4 C269_4 1_555 1_555
H149_4 C270_4 1_555 1_555
C271_4 C254_4 1_555 1_555
C272_4 C271_4 1_555 1_555
H150_4 C272_4 1_555 1_555
C273_4 C268_4 1_555 1_555
H151_4 C273_4 1_555 1_555
C274_4 C258_4 1_555 1_555
C275_4 C274_4 1_555 1_555
H152_4 C275_4 1_555 1_555
C276_4 C275_4 1_555 1_555
H153_4 C276_4 1_555 1_555
C279_4 C274_4 1_555 1_555
H155_4 C279_4 1_555 1_555
H157_4 C284_4 1_555 1_555
C285_4 C284_4 1_555 1_555
H158_4 C285_4 1_555 1_555
C286_4 C268_4 1_555 1_555
H159_4 C287_4 1_555 1_555
C288_4 C226_4 1_555 1_555
H160_4 C288_4 1_555 1_555
O58_4 In17_4 1_555 1_555
N15_4 C221_4 1_555 1_555
C229_4 C230_4 1_555 1_555
C231_4 C232_4 1_555 1_555
C233_4 C288_4 1_555 1_555
C234_4 C267_4 1_555 1_555
C235_4 C254_4 1_555 1_555
C236_4 C246_4 1_555 1_555
C240_4 C241_4 1_555 1_555
C243_4 N16_4 1_555 1_555
C243_4 C246_4 1_555 1_555
N16_4 C267_4 1_555 1_555
C245_4 C253_4 1_555 1_555
C247_4 C248_4 1_555 1_555
C250_4 C251_4 1_555 1_555
C251_4 C252_4 1_555 1_555
C259_4 C260_4 1_555 1_555
C261_4 C266_4 1_555 1_555
C262_4 C263_4 1_555 1_555
C270_4 C271_4 1_555 1_555
C272_4 C273_4 1_555 1_555
C278_4 C279_4 1_555 1_555
C285_4 C286_4 1_555 1_555
C286_4 C287_4 1_555 1_555
O53_4 H165_4 1_555 1_555
O53_4 H166_4 1_555 1_555
O58_4 H167_4 1_555 1_555
O58_4 H168_4 1_555 1_555

#END
