
###############################################################################
#
# This file contains modified crystal structure data generated from the
# MOF subset of the Cambridge Structural Database (CSD) v543 
# hosted by the Cambridge Crystallographic Data Centre (CCDC).
#
# This work is licensed under the Creative Commons
# Attribution-NonCommercial-ShareAlike 4.0 International License.
# To view a copy of this license, visit
# http://creativecommons.org/licenses/by-nc-sa/4.0/
# or send a letter to
# Creative Commons, PO Box 1866, Mountain View, CA 94042, USA.
#
# CIF created using the CSD Python API on 29 September 2022
# The structure has been converted into the P1 space group
# The structure has a 3D framework
# The original CSD entry COKROL is in the monoclinic crystal system
# The framework has been calculated to contain at least 10.0% void space
# The void calculation uses a probe of radius 1.32A, grid spacing 0.4
# H atom positions have been added when not included in the experimental data
# Generated hydrogen atom positions removed from atoms on special positions
#
###############################################################################

data_COKROL
_chemical_formula_moiety         '(C192 H128 In14 N16 O36)n'
_symmetry_cell_setting           triclinic
_symmetry_space_group_name_H-M   'P 1'
_symmetry_Int_Tables_number      1
_space_group_name_Hall           'P 1'
loop_
_symmetry_equiv_pos_site_id
_symmetry_equiv_pos_as_xyz
1 x,y,z
_cell_length_a                   7.6333(3)
_cell_length_b                   24.1332(11)
_cell_length_c                   30.5291(14)
_cell_angle_alpha                90
_cell_angle_beta                 93.505(3)
_cell_angle_gamma                90
_cell_volume                     5613.43
loop_
_atom_site_label
_atom_site_type_symbol
_atom_site_fract_x
_atom_site_fract_y
_atom_site_fract_z
O3 O 0.0902(9) 0.2708(3) 0.2045(2)
H1 H 0.1003 0.1794 0.1604
In3 In 0.0000 0.34883(2) 0.2500
In2 In 0.5000 0.0000 0.5000
O4 O 0.1647(9) 0.3085(2) 0.30223(16)
N2 N 0.5550(5) 0.03346(18) 0.43976(13)
C1 C 0.0592(14) 0.2723(4) 0.3125(3)
C2 C 0.2405(7) 0.1464(3) 0.40350(19)
C3 C 0.0119(10) 0.1831(3) 0.3538(2)
C4 C 0.1146(11) 0.2301(3) 0.3459(2)
C5 C 0.6898(7) 0.0160(2) 0.41439(17)
C6 C 0.2743(12) 0.2345(3) 0.3679(2)
H2 H 0.3434 0.2659 0.3632
C7 C 0.0760(9) 0.1422(3) 0.3823(2)
H3 H 0.0063 0.1110 0.3873
C8 C 0.4629(7) 0.0741(2) 0.41787(18)
C15 C 0.3134(7) 0.1017(2) 0.43229(18)
C16 C 0.3388(10) 0.1942(3) 0.3968(2)
H7 H 0.4487 0.1990 0.4119
C17 C 0.5393(7) 0.0831(3) 0.37645(19)
H8 H 0.5014 0.1087 0.3547
C20 C 0.6762(7) 0.0475(3) 0.37493(18)
H9 H 0.7504 0.0443 0.3516
O5 O 0.624(2) 0.0885(8) 0.5296(6)
N3 N 0.2811(5) 0.05044(19) 0.50132(14)
C34 C 0.0616(7) 0.0389(2) 0.60877(18)
C35 C 0.1733(7) 0.0555(2) 0.53609(18)
C37 C 0.0032(7) 0.0831(3) 0.67663(17)
H17 H 0.0442 0.1024 0.7020
C42 C 0.1881(6) 0.0247(2) 0.57453(17)
C43 C 0.2327(7) 0.0908(3) 0.47168(18)
C45 C 0.0847(8) 0.1209(3) 0.4867(2)
H22 H 0.0241 0.1501 0.4720
C46 C 0.0506(8) 0.0992(3) 0.5257(2)
C47 C 0.1192(7) 0.0665(3) 0.64602(18)
H24 H 0.2394 0.0743 0.6509
In2_2 In 1.0000 0.5000 0.0000
O1 O 0.0389(5) 0.41441(19) 0.19453(13)
O2 O 0.2564(4) 0.37886(19) 0.23327(12)
N1 N 0.7811(5) 0.44956(19) 0.00132(14)
N2_2 N 0.9450(5) 0.53346(18) 0.06024(13)
C5_2 C 0.8102(7) 0.5160(2) 0.08561(17)
C9 C 0.3247(6) 0.4290(2) 0.16951(17)
C10 C 0.5616(7) 0.4611(2) 0.10877(18)
C11 C 0.6733(7) 0.4445(2) 0.03609(18)
C12 C 0.3851(7) 0.4739(3) 0.10216(19)
H4 H 0.3448 0.4931 0.0767
C13 C 0.5032(7) 0.4169(3) 0.17663(17)
H5 H 0.5442 0.3976 0.2020
C14 C 0.2672(7) 0.4584(3) 0.13293(18)
H6 H 0.1481 0.4680 0.1286
C17_2 C 0.9607(7) 0.5831(3) 0.12355(19)
H8_2 H 0.9986 0.6087 0.1453
C18 C 0.6881(6) 0.4753(2) 0.07453(17)
C20_2 C 0.8238(7) 0.5475(3) 0.12507(18)
H9_2 H 0.7496 0.5443 0.1484
C22 C 0.5506(8) 0.4008(3) 0.0257(2)
H11 H 0.4608 0.3892 0.0434
C23 C 0.6192(7) 0.4335(3) 0.14602(18)
H12 H 0.7394 0.4257 0.1509
C24 C 0.1973(7) 0.4074(3) 0.20137(17)
O6 O 0.4611(5) 0.08559(19) 0.80547(13)
O7 O 0.2436(4) 0.12114(19) 0.76673(12)
C33 C 0.1753(6) 0.0710(2) 0.83049(17)
C36 C 0.1149(7) 0.0261(3) 0.89784(19)
H16 H 0.1552 0.0069 0.9233
C38 C 0.2328(7) 0.0416(3) 0.86707(18)
H18 H 0.3519 0.0320 0.8714
H23 H 0.0392 0.1108 0.9566
C48 C 0.3027(7) 0.0926(3) 0.79863(17)
In4 In 0.5000 0.15117(2) 0.7500
In2_3 In 0.5000 0.0000 0.0000
O4_2 O 0.8353(9) 0.3085(2) 0.19777(16)
N2_3 N 0.4450(5) 0.03346(18) 0.06024(13)
C1_2 C 0.9408(14) 0.2723(4) 0.1875(3)
C2_2 C 0.7595(7) 0.1464(3) 0.09650(19)
C3_2 C 0.9881(10) 0.1831(3) 0.1462(2)
C4_2 C 0.8854(11) 0.2301(3) 0.1541(2)
C5_3 C 0.3102(7) 0.0160(2) 0.08561(17)
C6_2 C 0.7257(12) 0.2345(3) 0.1321(2)
H2_2 H 0.6566 0.2659 0.1368
C7_2 C 0.9240(9) 0.1422(3) 0.1177(2)
H3_2 H 0.9937 0.1110 0.1127
C8_2 C 0.5371(7) 0.0741(2) 0.08213(18)
C15_2 C 0.6866(7) 0.1017(2) 0.06771(18)
C16_2 C 0.6612(10) 0.1942(3) 0.1032(2)
H7_2 H 0.5513 0.1990 0.0881
C17_3 C 0.4607(7) 0.0831(3) 0.12355(19)
H8_3 H 0.4986 0.1087 0.1453
C20_3 C 0.3238(7) 0.0475(3) 0.12507(18)
H9_3 H 0.2496 0.0443 0.1484
C43_2 C 0.7673(7) 0.0908(3) 0.02832(18)
C45_2 C 0.9153(8) 0.1209(3) 0.0133(2)
H22_2 H 0.9759 0.1501 0.0280
In3_2 In 1.0000 0.34883(2) 0.2500
O3_2 O 0.9098(9) 0.2708(3) 0.2955(2)
H1_2 H 0.8997 0.1794 0.3396
O6_2 O 0.5389(5) 0.08559(19) 0.69453(13)
O7_2 O 0.7564(4) 0.12114(19) 0.73327(12)
C33_2 C 0.8247(6) 0.0710(2) 0.66951(17)
C36_2 C 0.8851(7) 0.0261(3) 0.60216(19)
H16_2 H 0.8448 0.0069 0.5767
C38_2 C 0.7672(7) 0.0416(3) 0.63293(18)
H18_2 H 0.6481 0.0320 0.6286
H23_2 H 0.9608 0.1108 0.5434
C48_2 C 0.6973(7) 0.0926(3) 0.70137(17)
In2_4 In 1.0000 0.5000 1.0000
C19 C 0.7327(7) 0.4092(3) 0.97168(18)
C21 C 0.5847(8) 0.3791(3) 0.9867(2)
H10 H 0.5241 0.3499 0.9720
O5_2 O 0.876(2) 0.5885(8) 0.9704(6)
O8 O 0.4098(9) 0.2292(3) 0.7955(2)
O9 O 0.6647(9) 0.1915(2) 0.80223(16)
C25 C 0.5592(14) 0.2277(4) 0.8125(3)
C26 C 0.7405(7) 0.3536(3) 0.90350(19)
C27 C 0.5119(10) 0.3169(3) 0.8538(2)
H13 H 0.3997 0.3206 0.8396
C28 C 0.6146(11) 0.2699(3) 0.8459(2)
C30 C 0.7743(12) 0.2655(3) 0.8679(2)
H14 H 0.8434 0.2341 0.8632
C31 C 0.5760(9) 0.3578(3) 0.8823(2)
H15 H 0.5063 0.3890 0.8873
C32 C 0.9629(7) 0.4259(2) 0.91787(18)
C39 C 0.8134(7) 0.3983(2) 0.93229(18)
C40 C 0.8388(10) 0.3058(3) 0.8968(2)
H19 H 0.9487 0.3010 0.9119
O11 O 0.9611(5) 0.41441(19) 0.30547(13)
O12 O 0.7436(4) 0.37886(19) 0.26673(12)
In2_5 In 0.0000 0.5000 0.5000
N1_2 N 0.2189(5) 0.44956(19) 0.49868(14)
N2_4 N 0.0550(5) 0.53346(18) 0.43976(13)
C5_4 C 0.1898(7) 0.5160(2) 0.41439(17)
C9_2 C 0.6753(6) 0.4290(2) 0.33049(17)
C10_2 C 0.4384(7) 0.4611(2) 0.39123(18)
C11_2 C 0.3267(7) 0.4445(2) 0.46391(18)
C12_2 C 0.6149(7) 0.4739(3) 0.39784(19)
H4_2 H 0.6552 0.4931 0.4233
C13_2 C 0.4968(7) 0.4169(3) 0.32337(17)
H5_2 H 0.4558 0.3976 0.2980
C14_2 C 0.7328(7) 0.4584(3) 0.36707(18)
H6_2 H 0.8519 0.4680 0.3714
C17_4 C 0.0393(7) 0.5831(3) 0.37645(19)
H8_4 H 0.0014 0.6087 0.3547
C18_2 C 0.3119(6) 0.4753(2) 0.42547(17)
C19_2 C 0.2673(7) 0.4092(3) 0.52832(18)
C20_4 C 0.1762(7) 0.5475(3) 0.37493(18)
H9_4 H 0.2504 0.5443 0.3516
C21_2 C 0.4153(8) 0.3791(3) 0.5133(2)
H10_2 H 0.4759 0.3499 0.5280
C22_2 C 0.4494(8) 0.4008(3) 0.4743(2)
H11_2 H 0.5392 0.3892 0.4566
C23_2 C 0.3808(7) 0.4335(3) 0.35398(18)
H12_2 H 0.2606 0.4257 0.3491
C24_2 C 0.8027(7) 0.4074(3) 0.29863(17)
O5_3 O 0.124(2) 0.5885(8) 0.5296(6)
O8_2 O 0.5902(9) 0.2292(3) 0.7045(2)
O9_2 O 0.3353(9) 0.1915(2) 0.69777(16)
C25_2 C 0.4408(14) 0.2277(4) 0.6875(3)
C26_2 C 0.2595(7) 0.3536(3) 0.59650(19)
C27_2 C 0.4881(10) 0.3169(3) 0.6462(2)
H13_2 H 0.6003 0.3206 0.6604
C28_2 C 0.3854(11) 0.2699(3) 0.6541(2)
C30_2 C 0.2257(12) 0.2655(3) 0.6321(2)
H14_2 H 0.1566 0.2341 0.6368
C31_2 C 0.4240(9) 0.3578(3) 0.6177(2)
H15_2 H 0.4937 0.3890 0.6127
C32_2 C 0.0371(7) 0.4259(2) 0.58213(18)
C39_2 C 0.1866(7) 0.3983(2) 0.56771(18)
C40_2 C 0.1612(10) 0.3058(3) 0.6032(2)
H19_2 H 0.0513 0.3010 0.5881
In2_6 In 0.5000 0.0000 1.0000
O5_4 O 0.376(2) 0.0885(8) 0.9704(6)
N3_2 N 0.7189(5) 0.05044(19) 0.99868(14)
C34_2 C 0.9384(7) 0.0389(2) 0.89123(18)
C35_2 C 0.8267(7) 0.0555(2) 0.96391(18)
C37_2 C 0.9968(7) 0.0831(3) 0.82337(17)
H17_2 H 0.9558 0.1024 0.7980
C42_2 C 0.8119(6) 0.0247(2) 0.92547(17)
C46_2 C 0.9494(8) 0.0992(3) 0.9743(2)
C47_2 C 0.8808(7) 0.0665(3) 0.85398(18)
H24_2 H 0.7606 0.0743 0.8491
In2_7 In 0.5000 1.0000 0.0000
N1_3 N 0.2811(5) 0.94956(19) 0.00132(14)
C10_3 C 0.0616(7) 0.9611(2) 0.10877(18)
C11_3 C 0.1733(7) 0.9445(2) 0.03609(18)
C13_3 C 0.0032(7) 0.9169(3) 0.17663(17)
H5_3 H 0.0442 0.8976 0.2020
C18_3 C 0.1881(6) 0.9753(2) 0.07453(17)
C22_3 C 0.0506(8) 0.9008(3) 0.0257(2)
C23_3 C 0.1192(7) 0.9335(3) 0.14602(18)
H12_3 H 0.2394 0.9257 0.1509
O10 O 0.624(2) 0.9115(8) 0.0296(6)
In2_8 In 0.5000 1.0000 1.0000
C19_3 C 0.2327(7) 0.9092(3) 0.97168(18)
C21_3 C 0.0847(8) 0.8791(3) 0.9867(2)
H10_3 H 0.0241 0.8499 0.9720
O9_3 O 0.1647(9) 0.6915(2) 0.80223(16)
N4 N 0.5550(5) 0.96654(18) 0.93976(13)
C25_3 C 0.0592(14) 0.7277(4) 0.8125(3)
C26_3 C 0.2405(7) 0.8536(3) 0.90350(19)
C27_3 C 0.0119(10) 0.8169(3) 0.8538(2)
C28_3 C 0.1146(11) 0.7699(3) 0.8459(2)
C29 C 0.6898(7) 0.9840(2) 0.91439(17)
C30_3 C 0.2743(12) 0.7655(3) 0.8679(2)
H14_3 H 0.3434 0.7341 0.8632
C31_3 C 0.0760(9) 0.8578(3) 0.8823(2)
H15_3 H 0.0063 0.8890 0.8873
C32_3 C 0.4629(7) 0.9259(2) 0.91787(18)
C39_3 C 0.3134(7) 0.8983(2) 0.93229(18)
C40_3 C 0.3388(10) 0.8058(3) 0.8968(2)
H19_3 H 0.4487 0.8010 0.9119
C41 C 0.5393(7) 0.9169(3) 0.87645(19)
H20 H 0.5014 0.8913 0.8547
C44 C 0.6762(7) 0.9525(3) 0.87493(18)
H21 H 0.7504 0.9557 0.8516
In5 In -0.0000 0.65117(2) 0.7500
In1 In 0.5000 0.84883(2) 0.2500
O1_2 O 0.5389(5) 0.91441(19) 0.19453(13)
O2_2 O 0.7564(4) 0.87886(19) 0.23327(12)
C9_3 C 0.8247(6) 0.9290(2) 0.16951(17)
C12_3 C 0.8851(7) 0.9739(3) 0.10216(19)
H4_3 H 0.8448 0.9931 0.0767
C14_3 C 0.7672(7) 0.9584(3) 0.13293(18)
H6_3 H 0.6481 0.9680 0.1286
H11_3 H 0.9608 0.8892 0.0434
C24_3 C 0.6973(7) 0.9074(3) 0.20137(17)
O11_2 O 0.4611(5) 0.91441(19) 0.30547(13)
O12_2 O 0.2436(4) 0.87886(19) 0.26673(12)
O13 O 0.5902(9) 0.7708(3) 0.2045(2)
O14 O 0.4098(9) 0.7708(3) 0.2955(2)
O15 O 0.3353(9) 0.8085(2) 0.19777(16)
O16 O 0.6647(9) 0.8085(2) 0.30223(16)
C9_4 C 0.1753(6) 0.9290(2) 0.33049(17)
C12_4 C 0.1149(7) 0.9739(3) 0.39784(19)
H4_4 H 0.1552 0.9931 0.4233
C14_4 C 0.2328(7) 0.9584(3) 0.36707(18)
H6_4 H 0.3519 0.9680 0.3714
H11_4 H 0.0392 0.8892 0.4566
C24_4 C 0.3027(7) 0.9074(3) 0.29863(17)
O8_3 O 0.0902(9) 0.7292(3) 0.7045(2)
H13_3 H 0.1003 0.8206 0.6604
In2_9 In -0.0000 0.5000 0.0000
C1_3 C 0.4408(14) 0.7723(4) 0.1875(3)
C2_3 C 0.2595(7) 0.6464(3) 0.09650(19)
C3_3 C 0.4881(10) 0.6831(3) 0.1462(2)
H1_3 H 0.6003 0.6794 0.1604
C4_3 C 0.3854(11) 0.7301(3) 0.1541(2)
C6_3 C 0.2257(12) 0.7345(3) 0.1321(2)
H2_3 H 0.1566 0.7659 0.1368
C7_3 C 0.4240(9) 0.6422(3) 0.1177(2)
H3_3 H 0.4937 0.6110 0.1127
C8_3 C 0.0371(7) 0.5741(2) 0.08213(18)
C15_3 C 0.1866(7) 0.6017(2) 0.06771(18)
C16_3 C 0.1612(10) 0.6942(3) 0.1032(2)
H7_3 H 0.0513 0.6990 0.0881
C43_3 C 0.2673(7) 0.5908(3) 0.02832(18)
C45_3 C 0.4153(8) 0.6209(3) 0.0133(2)
H22_3 H 0.4759 0.6501 0.0280
O10_2 O 0.124(2) 0.4115(8) 0.0296(6)
In2_10 In 1.0000 0.5000 0.5000
C1_4 C 0.5592(14) 0.7723(4) 0.3125(3)
C2_4 C 0.7405(7) 0.6464(3) 0.40350(19)
C3_4 C 0.5119(10) 0.6831(3) 0.3538(2)
H1_4 H 0.3997 0.6794 0.3396
C4_4 C 0.6146(11) 0.7301(3) 0.3459(2)
C6_4 C 0.7743(12) 0.7345(3) 0.3679(2)
H2_4 H 0.8434 0.7659 0.3632
C7_4 C 0.5760(9) 0.6422(3) 0.3823(2)
H3_4 H 0.5063 0.6110 0.3873
C8_4 C 0.9629(7) 0.5741(2) 0.41787(18)
C15_4 C 0.8134(7) 0.6017(2) 0.43229(18)
C16_4 C 0.8388(10) 0.6942(3) 0.3968(2)
H7_4 H 0.9487 0.6990 0.4119
O6_3 O 0.0389(5) 0.58559(19) 0.69453(13)
O7_3 O 0.2564(4) 0.62114(19) 0.73327(12)
N3_3 N 0.7811(5) 0.55044(19) 0.50132(14)
N4_2 N 0.9450(5) 0.46654(18) 0.56024(13)
C29_2 C 0.8102(7) 0.4840(2) 0.58561(17)
C33_3 C 0.3247(6) 0.5710(2) 0.66951(17)
C34_3 C 0.5616(7) 0.5389(2) 0.60877(18)
C35_3 C 0.6733(7) 0.5555(2) 0.53609(18)
C36_3 C 0.3851(7) 0.5261(3) 0.60216(19)
H16_3 H 0.3448 0.5069 0.5767
C37_3 C 0.5032(7) 0.5831(3) 0.67663(17)
H17_3 H 0.5442 0.6024 0.7020
C38_3 C 0.2672(7) 0.5416(3) 0.63293(18)
H18_3 H 0.1481 0.5320 0.6286
C41_2 C 0.9607(7) 0.4169(3) 0.62355(19)
H20_2 H 0.9986 0.3913 0.6453
C42_3 C 0.6881(6) 0.5247(2) 0.57453(17)
C43_4 C 0.7327(7) 0.5908(3) 0.47168(18)
C44_2 C 0.8238(7) 0.4525(3) 0.62507(18)
H21_2 H 0.7496 0.4557 0.6484
C45_4 C 0.5847(8) 0.6209(3) 0.4867(2)
H22_4 H 0.5241 0.6501 0.4720
C46_3 C 0.5506(8) 0.5992(3) 0.5257(2)
H23_3 H 0.4608 0.6108 0.5434
C47_3 C 0.6192(7) 0.5665(3) 0.64602(18)
H24_3 H 0.7394 0.5743 0.6509
C48_3 C 0.1973(7) 0.5926(3) 0.70137(17)
O10_3 O 0.876(2) 0.4115(8) 0.4704(6)
O8_4 O 0.9098(9) 0.7292(3) 0.7955(2)
H13_4 H 0.8997 0.8206 0.8396
In5_2 In 1.0000 0.65117(2) 0.7500
In2_11 In 0.5000 1.0000 0.5000
N1_4 N 0.7189(5) 0.94956(19) 0.49868(14)
C10_4 C 0.9384(7) 0.9611(2) 0.39123(18)
C11_4 C 0.8267(7) 0.9445(2) 0.46391(18)
C13_4 C 0.9968(7) 0.9169(3) 0.32337(17)
H5_4 H 0.9558 0.8976 0.2980
C18_4 C 0.8119(6) 0.9753(2) 0.42547(17)
C19_4 C 0.7673(7) 0.9092(3) 0.52832(18)
C21_4 C 0.9153(8) 0.8791(3) 0.5133(2)
H10_4 H 0.9759 0.8499 0.5280
C22_4 C 0.9494(8) 0.9008(3) 0.4743(2)
C23_4 C 0.8808(7) 0.9335(3) 0.35398(18)
H12_4 H 0.7606 0.9257 0.3491
O9_4 O 0.8353(9) 0.6915(2) 0.69777(16)
N4_3 N 0.4450(5) 0.96654(18) 0.56024(13)
C25_4 C 0.9408(14) 0.7277(4) 0.6875(3)
C26_4 C 0.7595(7) 0.8536(3) 0.59650(19)
C27_4 C 0.9881(10) 0.8169(3) 0.6462(2)
C28_4 C 0.8854(11) 0.7699(3) 0.6541(2)
C29_3 C 0.3102(7) 0.9840(2) 0.58561(17)
C30_4 C 0.7257(12) 0.7655(3) 0.6321(2)
H14_4 H 0.6566 0.7341 0.6368
C31_4 C 0.9240(9) 0.8578(3) 0.6177(2)
H15_4 H 0.9937 0.8890 0.6127
C32_4 C 0.5371(7) 0.9259(2) 0.58213(18)
C39_4 C 0.6866(7) 0.8983(2) 0.56771(18)
C40_4 C 0.6612(10) 0.8058(3) 0.6032(2)
H19_4 H 0.5513 0.8010 0.5881
C41_3 C 0.4607(7) 0.9169(3) 0.62355(19)
H20_3 H 0.4986 0.8913 0.6453
C44_3 C 0.3238(7) 0.9525(3) 0.62507(18)
H21_3 H 0.2496 0.9557 0.6484
O10_4 O 0.376(2) 0.9115(8) 0.4704(6)
In2_12 In -0.0000 0.5000 1.0000
O6_4 O 0.9611(5) 0.58559(19) 0.80547(13)
O7_4 O 0.7436(4) 0.62114(19) 0.76673(12)
N3_4 N 0.2189(5) 0.55044(19) 0.99868(14)
N4_4 N 0.0550(5) 0.46654(18) 0.93976(13)
C29_4 C 0.1898(7) 0.4840(2) 0.91439(17)
C33_4 C 0.6753(6) 0.5710(2) 0.83049(17)
C34_4 C 0.4384(7) 0.5389(2) 0.89123(18)
C35_4 C 0.3267(7) 0.5555(2) 0.96391(18)
C36_4 C 0.6149(7) 0.5261(3) 0.89784(19)
H16_4 H 0.6552 0.5069 0.9233
C37_4 C 0.4968(7) 0.5831(3) 0.82337(17)
H17_4 H 0.4558 0.6024 0.7980
C38_4 C 0.7328(7) 0.5416(3) 0.86707(18)
H18_4 H 0.8519 0.5320 0.8714
C41_4 C 0.0393(7) 0.4169(3) 0.87645(19)
H20_4 H 0.0014 0.3913 0.8547
C42_4 C 0.3119(6) 0.5247(2) 0.92547(17)
C44_4 C 0.1762(7) 0.4525(3) 0.87493(18)
H21_4 H 0.2504 0.4557 0.8516
C46_4 C 0.4494(8) 0.5992(3) 0.9743(2)
H23_4 H 0.5392 0.6108 0.9566
C47_4 C 0.3808(7) 0.5665(3) 0.85398(18)
H24_4 H 0.2606 0.5743 0.8491
C48_4 C 0.8027(7) 0.5926(3) 0.79863(17)
loop_
_geom_bond_atom_site_label_1
_geom_bond_atom_site_label_2
_geom_bond_site_symmetry_1
_geom_bond_site_symmetry_2
In3 O3 1_555 1_555
O4 C1 1_555 1_555
N2 In2 1_555 1_555
C1 C4 1_555 1_555
C2 C7 1_555 1_555
C4 C3 1_555 1_555
C5 N2 1_555 1_555
C6 C4 1_555 1_555
H2 C6 1_555 1_555
C7 C3 1_555 1_555
H3 C7 1_555 1_555
C8 N2 1_555 1_555
C15 C2 1_555 1_555
C16 C2 1_555 1_555
H7 C16 1_555 1_555
C17 C8 1_555 1_555
H8 C17 1_555 1_555
C20 C5 1_555 1_555
H9 C20 1_555 1_555
O5 In2 1_555 1_555
N3 In2 1_555 1_555
C35 N3 1_555 1_555
C37 H17 1_555 1_555
C43 C15 1_555 1_555
C45 C43 1_555 1_555
H22 C45 1_555 1_555
C46 C35 1_555 1_555
C47 C34 1_555 1_555
H24 C47 1_555 1_555
O4 In3 1_555 1_555
C6 C16 1_555 1_555
C8 C15 1_555 1_555
C17 C20 1_555 1_555
N3 C43 1_555 1_555
C34 C42 1_555 1_555
C35 C42 1_555 1_555
C37 C47 1_555 1_555
C45 C46 1_555 1_555
In3 O1 1_555 1_555
In2_2 N1 1_555 1_555
O1 C24 1_555 1_555
O2 In3 1_555 1_555
N1 C11 1_555 1_555
N2_2 In2_2 1_555 1_555
C5_2 N2_2 1_555 1_555
C9 C13 1_555 1_555
C10 C12 1_555 1_555
C11 C18 1_555 1_555
C12 H4 1_555 1_555
C13 H5 1_555 1_555
C14 C9 1_555 1_555
H6 C14 1_555 1_555
H8_2 C17_2 1_555 1_555
C18 C5_2 1_555 1_555
C20_2 C5_2 1_555 1_555
H9_2 C20_2 1_555 1_555
C22 C11 1_555 1_555
H11 C22 1_555 1_555
C23 C10 1_555 1_555
H12 C23 1_555 1_555
C24 O2 1_555 1_555
C9 C24 1_555 1_555
C10 C18 1_555 1_555
C12 C14 1_555 1_555
C13 C23 1_555 1_555
C17_2 C20_2 1_555 1_555
O6 C48 1_555 1_555
O7 C48 1_555 1_555
C36 H16 1_555 1_555
C38 C33 1_555 1_555
H18 C38 1_555 1_555
C48 C33 1_555 1_555
In4 O6 1_555 1_555
O7 In4 1_555 1_555
C36 C38 1_555 1_555
O4_2 C1_2 1_555 1_555
N2_3 In2_3 1_555 1_555
C1_2 C4_2 1_555 1_555
C2_2 C7_2 1_555 1_555
C4_2 C3_2 1_555 1_555
C5_3 N2_3 1_555 1_555
C6_2 C4_2 1_555 1_555
H2_2 C6_2 1_555 1_555
C7_2 C3_2 1_555 1_555
H3_2 C7_2 1_555 1_555
C8_2 N2_3 1_555 1_555
C15_2 C2_2 1_555 1_555
C16_2 C2_2 1_555 1_555
H7_2 C16_2 1_555 1_555
C17_3 C8_2 1_555 1_555
H8_3 C17_3 1_555 1_555
C20_3 C5_3 1_555 1_555
H9_3 C20_3 1_555 1_555
C43_2 C15_2 1_555 1_555
C45_2 C43_2 1_555 1_555
H22_2 C45_2 1_555 1_555
O4_2 In3_2 1_555 1_555
C6_2 C16_2 1_555 1_555
C8_2 C15_2 1_555 1_555
C17_3 C20_3 1_555 1_555
O6_2 C48_2 1_555 1_555
O7_2 C48_2 1_555 1_555
C36_2 H16_2 1_555 1_555
C38_2 C33_2 1_555 1_555
H18_2 C38_2 1_555 1_555
C48_2 C33_2 1_555 1_555
In3_2 O3_2 1_555 1_555
In4 O6_2 1_555 1_555
O7_2 In4 1_555 1_555
C36_2 C38_2 1_555 1_555
C21 C19 1_555 1_555
H10 C21 1_555 1_555
O5_2 In2_4 1_555 1_555
O8 C25 1_555 1_555
O9 C25 1_555 1_555
C25 C28 1_555 1_555
C26 C31 1_555 1_555
C27 H13 1_555 1_555
C28 C27 1_555 1_555
C30 C28 1_555 1_555
H14 C30 1_555 1_555
C31 C27 1_555 1_555
H15 C31 1_555 1_555
C39 C19 1_555 1_555
C40 C26 1_555 1_555
H19 C40 1_555 1_555
In4 O8 1_555 1_555
O9 In4 1_555 1_555
C26 C39 1_555 1_555
C30 C40 1_555 1_555
C32 C39 1_555 1_555
O11 In3_2 1_555 1_555
O12 In3_2 1_555 1_555
In2_5 N1_2 1_555 1_555
O11 C24_2 1_555 1_555
N1_2 C11_2 1_555 1_555
N2_4 In2_5 1_555 1_555
C5_4 N2_4 1_555 1_555
C9_2 C13_2 1_555 1_555
C10_2 C12_2 1_555 1_555
C11_2 C18_2 1_555 1_555
C12_2 H4_2 1_555 1_555
C13_2 H5_2 1_555 1_555
C14_2 C9_2 1_555 1_555
H6_2 C14_2 1_555 1_555
H8_4 C17_4 1_555 1_555
C18_2 C5_4 1_555 1_555
C19_2 N1_2 1_555 1_555
C20_4 C5_4 1_555 1_555
H9_4 C20_4 1_555 1_555
C21_2 C19_2 1_555 1_555
H10_2 C21_2 1_555 1_555
C22_2 C11_2 1_555 1_555
H11_2 C22_2 1_555 1_555
C23_2 C10_2 1_555 1_555
H12_2 C23_2 1_555 1_555
C24_2 O12 1_555 1_555
O5_3 In2_5 1_555 1_555
O8_2 C25_2 1_555 1_555
O9_2 C25_2 1_555 1_555
C25_2 C28_2 1_555 1_555
C26_2 C31_2 1_555 1_555
C27_2 H13_2 1_555 1_555
C28_2 C27_2 1_555 1_555
C30_2 C28_2 1_555 1_555
H14_2 C30_2 1_555 1_555
C31_2 C27_2 1_555 1_555
H15_2 C31_2 1_555 1_555
C39_2 C19_2 1_555 1_555
C40_2 C26_2 1_555 1_555
H19_2 C40_2 1_555 1_555
In4 O8_2 1_555 1_555
C9_2 C24_2 1_555 1_555
C10_2 C18_2 1_555 1_555
C12_2 C14_2 1_555 1_555
C13_2 C23_2 1_555 1_555
C17_4 C20_4 1_555 1_555
C21_2 C22_2 1_555 1_555
O9_2 In4 1_555 1_555
C26_2 C39_2 1_555 1_555
C30_2 C40_2 1_555 1_555
C32_2 C39_2 1_555 1_555
O5_4 In2_6 1_555 1_555
N3_2 In2_6 1_555 1_555
C35_2 N3_2 1_555 1_555
C37_2 H17_2 1_555 1_555
C46_2 C35_2 1_555 1_555
C47_2 C34_2 1_555 1_555
H24_2 C47_2 1_555 1_555
C34_2 C42_2 1_555 1_555
C35_2 C42_2 1_555 1_555
C37_2 C47_2 1_555 1_555
In2_7 N1_3 1_555 1_555
N1_3 C11_3 1_555 1_555
C11_3 C18_3 1_555 1_555
C13_3 H5_3 1_555 1_555
C22_3 C11_3 1_555 1_555
C23_3 C10_3 1_555 1_555
H12_3 C23_3 1_555 1_555
O10 In2_7 1_555 1_555
C10_3 C18_3 1_555 1_555
C13_3 C23_3 1_555 1_555
C21_3 C19_3 1_555 1_555
H10_3 C21_3 1_555 1_555
O9_3 C25_3 1_555 1_555
N4 In2_8 1_555 1_555
C25_3 C28_3 1_555 1_555
C26_3 C31_3 1_555 1_555
C28_3 C27_3 1_555 1_555
C29 N4 1_555 1_555
C30_3 C28_3 1_555 1_555
H14_3 C30_3 1_555 1_555
C31_3 C27_3 1_555 1_555
H15_3 C31_3 1_555 1_555
C32_3 N4 1_555 1_555
C39_3 C19_3 1_555 1_555
C40_3 C26_3 1_555 1_555
H19_3 C40_3 1_555 1_555
C41 C32_3 1_555 1_555
H20 C41 1_555 1_555
C44 C29 1_555 1_555
H21 C44 1_555 1_555
O9_3 In5 1_555 1_555
C26_3 C39_3 1_555 1_555
C30_3 C40_3 1_555 1_555
C32_3 C39_3 1_555 1_555
C41 C44 1_555 1_555
In1 O1_2 1_555 1_555
O1_2 C24_3 1_555 1_555
O2_2 In1 1_555 1_555
C12_3 H4_3 1_555 1_555
C14_3 C9_3 1_555 1_555
H6_3 C14_3 1_555 1_555
C24_3 O2_2 1_555 1_555
O11_2 In1 1_555 1_555
O12_2 In1 1_555 1_555
O13 In1 1_555 1_555
O14 In1 1_555 1_555
O15 In1 1_555 1_555
O16 In1 1_555 1_555
C9_3 C24_3 1_555 1_555
C12_3 C14_3 1_555 1_555
O11_2 C24_4 1_555 1_555
C12_4 H4_4 1_555 1_555
C14_4 C9_4 1_555 1_555
H6_4 C14_4 1_555 1_555
C24_4 O12_2 1_555 1_555
In5 O8_3 1_555 1_555
C9_4 C24_4 1_555 1_555
C12_4 C14_4 1_555 1_555
O13 C1_3 1_555 1_555
O15 C1_3 1_555 1_555
C1_3 C4_3 1_555 1_555
C2_3 C7_3 1_555 1_555
C3_3 H1_3 1_555 1_555
C4_3 C3_3 1_555 1_555
C6_3 C4_3 1_555 1_555
H2_3 C6_3 1_555 1_555
C7_3 C3_3 1_555 1_555
H3_3 C7_3 1_555 1_555
C15_3 C2_3 1_555 1_555
C16_3 C2_3 1_555 1_555
H7_3 C16_3 1_555 1_555
C43_3 C15_3 1_555 1_555
C45_3 C43_3 1_555 1_555
H22_3 C45_3 1_555 1_555
O10_2 In2_9 1_555 1_555
C6_3 C16_3 1_555 1_555
C8_3 C15_3 1_555 1_555
O14 C1_4 1_555 1_555
O16 C1_4 1_555 1_555
C1_4 C4_4 1_555 1_555
C2_4 C7_4 1_555 1_555
C3_4 H1_4 1_555 1_555
C4_4 C3_4 1_555 1_555
C6_4 C4_4 1_555 1_555
H2_4 C6_4 1_555 1_555
C7_4 C3_4 1_555 1_555
H3_4 C7_4 1_555 1_555
C15_4 C2_4 1_555 1_555
C16_4 C2_4 1_555 1_555
H7_4 C16_4 1_555 1_555
O6_3 C48_3 1_555 1_555
O7_3 C48_3 1_555 1_555
N3_3 In2_10 1_555 1_555
N4_2 In2_10 1_555 1_555
C29_2 N4_2 1_555 1_555
C33_3 C37_3 1_555 1_555
C34_3 C36_3 1_555 1_555
C35_3 N3_3 1_555 1_555
C36_3 H16_3 1_555 1_555
C37_3 H17_3 1_555 1_555
C38_3 C33_3 1_555 1_555
H18_3 C38_3 1_555 1_555
H20_2 C41_2 1_555 1_555
C42_3 C29_2 1_555 1_555
C43_4 C15_4 1_555 1_555
C44_2 C29_2 1_555 1_555
H21_2 C44_2 1_555 1_555
C45_4 C43_4 1_555 1_555
H22_4 C45_4 1_555 1_555
C46_3 C35_3 1_555 1_555
H23_3 C46_3 1_555 1_555
C47_3 C34_3 1_555 1_555
H24_3 C47_3 1_555 1_555
C48_3 C33_3 1_555 1_555
O10_3 In2_10 1_555 1_555
In5 O6_3 1_555 1_555
C6_4 C16_4 1_555 1_555
C8_4 C15_4 1_555 1_555
O7_3 In5 1_555 1_555
N3_3 C43_4 1_555 1_555
C34_3 C42_3 1_555 1_555
C35_3 C42_3 1_555 1_555
C36_3 C38_3 1_555 1_555
C37_3 C47_3 1_555 1_555
C41_2 C44_2 1_555 1_555
C45_4 C46_3 1_555 1_555
In5_2 O8_4 1_555 1_555
In2_11 N1_4 1_555 1_555
N1_4 C11_4 1_555 1_555
C11_4 C18_4 1_555 1_555
C13_4 H5_4 1_555 1_555
C19_4 N1_4 1_555 1_555
C21_4 C19_4 1_555 1_555
H10_4 C21_4 1_555 1_555
C22_4 C11_4 1_555 1_555
C23_4 C10_4 1_555 1_555
H12_4 C23_4 1_555 1_555
O9_4 C25_4 1_555 1_555
N4_3 In2_11 1_555 1_555
C25_4 C28_4 1_555 1_555
C26_4 C31_4 1_555 1_555
C28_4 C27_4 1_555 1_555
C29_3 N4_3 1_555 1_555
C30_4 C28_4 1_555 1_555
H14_4 C30_4 1_555 1_555
C31_4 C27_4 1_555 1_555
H15_4 C31_4 1_555 1_555
C32_4 N4_3 1_555 1_555
C39_4 C19_4 1_555 1_555
C40_4 C26_4 1_555 1_555
H19_4 C40_4 1_555 1_555
C41_3 C32_4 1_555 1_555
H20_3 C41_3 1_555 1_555
C44_3 C29_3 1_555 1_555
H21_3 C44_3 1_555 1_555
O10_4 In2_11 1_555 1_555
C10_4 C18_4 1_555 1_555
C13_4 C23_4 1_555 1_555
C21_4 C22_4 1_555 1_555
O9_4 In5_2 1_555 1_555
C26_4 C39_4 1_555 1_555
C30_4 C40_4 1_555 1_555
C32_4 C39_4 1_555 1_555
C41_3 C44_3 1_555 1_555
O6_4 C48_4 1_555 1_555
O7_4 C48_4 1_555 1_555
N3_4 In2_12 1_555 1_555
N4_4 In2_12 1_555 1_555
C29_4 N4_4 1_555 1_555
C33_4 C37_4 1_555 1_555
C34_4 C36_4 1_555 1_555
C35_4 N3_4 1_555 1_555
C36_4 H16_4 1_555 1_555
C37_4 H17_4 1_555 1_555
C38_4 C33_4 1_555 1_555
H18_4 C38_4 1_555 1_555
H20_4 C41_4 1_555 1_555
C42_4 C29_4 1_555 1_555
C44_4 C29_4 1_555 1_555
H21_4 C44_4 1_555 1_555
C46_4 C35_4 1_555 1_555
H23_4 C46_4 1_555 1_555
C47_4 C34_4 1_555 1_555
H24_4 C47_4 1_555 1_555
C48_4 C33_4 1_555 1_555
In5_2 O6_4 1_555 1_555
O7_4 In5_2 1_555 1_555
C34_4 C42_4 1_555 1_555
C35_4 C42_4 1_555 1_555
C36_4 C38_4 1_555 1_555
C37_4 C47_4 1_555 1_555
C41_4 C44_4 1_555 1_555

#END
