
###############################################################################
#
# This file contains modified crystal structure data generated from the
# MOF subset of the Cambridge Structural Database (CSD) v543 
# hosted by the Cambridge Crystallographic Data Centre (CCDC).
#
# This work is licensed under the Creative Commons
# Attribution-NonCommercial-ShareAlike 4.0 International License.
# To view a copy of this license, visit
# http://creativecommons.org/licenses/by-nc-sa/4.0/
# or send a letter to
# Creative Commons, PO Box 1866, Mountain View, CA 94042, USA.
#
# CIF created using the CSD Python API on 29 September 2022
# The structure has been converted into the P1 space group
# The structure has a 3D framework
# The original CSD entry COKXIL is in the orthorhombic crystal system
# The framework has been calculated to contain at least 10.0% void space
# The void calculation uses a probe of radius 1.32A, grid spacing 0.4
#
###############################################################################

data_COKXIL
_chemical_formula_moiety         '(C160 H168 Br8 Cd10 N32 O32)n'
_symmetry_cell_setting           triclinic
_symmetry_space_group_name_H-M   'P 1'
_symmetry_Int_Tables_number      1
_space_group_name_Hall           'P 1'
loop_
_symmetry_equiv_pos_site_id
_symmetry_equiv_pos_as_xyz
1 x,y,z
_cell_length_a                   21.2969(15)
_cell_length_b                   26.3582(19)
_cell_length_c                   8.7744(6)
_cell_angle_alpha                90
_cell_angle_beta                 90
_cell_angle_gamma                90
_cell_volume                     4925.49
loop_
_atom_site_label
_atom_site_type_symbol
_atom_site_fract_x
_atom_site_fract_y
_atom_site_fract_z
Cd4 Cd 0.2500 0.0000 0.86081(6)
H18 H 0.3881 0.0510 0.9876
O1 O 0.1725(2) 0.06053(18) 0.8107(6)
Br1 Br 0.01210(4) 0.03429(3) 0.19650(9)
C1 C 0.0810(3) 0.0386(2) 0.4738(7)
H1 H 0.1013 0.0098 0.4370
C2 C 0.0336(3) 0.0609(2) 0.3904(6)
C3 C 0.0024(3) 0.1034(2) 0.4453(7)
C4 C 0.0183(2) 0.1237(2) 0.5825(7)
C5 C 0.0669(3) 0.1017(2) 0.6665(6)
H3 H 0.0784 0.1157 0.7596
C6 C 0.0981(2) 0.0592(2) 0.6129(6)
C7 C 0.1503(3) 0.0367(3) 0.7035(7)
O6 O 0.3293(2) 0.00598(19) 0.6697(5)
N7 N 0.1910(4) 0.5872(3) 0.2422(7)
N8 N 0.2062(2) 0.55247(17) 0.4660(5)
C35 C 0.2179(5) 0.6479(4) 0.0558(11)
H34 H 0.2551 0.6547 0.1161
H35 H 0.1842 0.6698 0.0906
C36 C 0.1997(6) 0.5943(4) 0.0668(10)
H36 H 0.2323 0.5723 0.0275
H37 H 0.1609 0.5878 0.0123
C37 C 0.1342(4) 0.5820(3) 0.3116(10)
H38 H 0.0956 0.5923 0.2722
C38 C 0.1433(3) 0.5600(2) 0.4440(8)
H39 H 0.1119 0.5510 0.5124
C39 C 0.2342(3) 0.5700(3) 0.3425(8)
C40 C 0.3027(4) 0.5722(5) 0.3205(11)
H40 H 0.3233 0.5583 0.4084
H41 H 0.3154 0.6068 0.3070
H42 H 0.3139 0.5529 0.2319
Cd5 Cd 0.2500 0.5000 0.63919(6)
H18_2 H 0.1119 0.9490 0.9876
Cd4_2 Cd 0.2500 1.0000 0.86081(6)
N7_2 N 0.3090(4) 0.4128(3) 0.2422(7)
N8_2 N 0.2938(2) 0.44753(17) 0.4660(5)
C35_2 C 0.2821(5) 0.3521(4) 0.0558(11)
H34_2 H 0.2449 0.3453 0.1161
H35_2 H 0.3158 0.3302 0.0906
C36_2 C 0.3003(6) 0.4057(4) 0.0668(10)
H36_2 H 0.2677 0.4277 0.0275
H37_2 H 0.3391 0.4122 0.0123
C37_2 C 0.3658(4) 0.4180(3) 0.3116(10)
H38_2 H 0.4044 0.4077 0.2722
C38_2 C 0.3567(3) 0.4400(2) 0.4440(8)
H39_2 H 0.3881 0.4490 0.5124
C39_2 C 0.2658(3) 0.4300(3) 0.3425(8)
C40_2 C 0.1973(4) 0.4278(5) 0.3205(11)
H40_2 H 0.1767 0.4417 0.4084
H41_2 H 0.1846 0.3932 0.3070
H42_2 H 0.1861 0.4471 0.2319
O2 O 0.1707(2) 0.99402(19) 0.6697(5)
O5 O 0.3275(2) 0.93947(18) 0.8107(6)
O7 O 0.5014(2) 0.81229(16) 0.7678(6)
O8 O 0.5597(2) 0.81219(16) 0.5648(5)
Br2 Br 0.48790(4) 0.96571(3) 0.19650(9)
C21 C 0.4190(3) 0.9614(2) 0.4738(7)
H22 H 0.3987 0.9902 0.4370
C22 C 0.4664(3) 0.9391(2) 0.3904(6)
C23 C 0.4976(3) 0.8966(2) 0.4453(7)
H23 H 0.5296 0.8819 0.3880
C24 C 0.4817(2) 0.8763(2) 0.5825(7)
C25 C 0.4331(3) 0.8983(2) 0.6665(6)
H24 H 0.4216 0.8843 0.7596
C26 C 0.4019(2) 0.9408(2) 0.6129(6)
C27 C 0.3497(3) 0.9633(3) 0.7035(7)
C28 C 0.5159(3) 0.8303(2) 0.6409(8)
Cd3 Cd 0.58430(3) 0.7500 0.7500
N1 N 0.6493(2) 0.78496(16) 0.9252(5)
C9 C 0.7130(3) 0.7898(2) 0.9249(7)
H4 H 0.7395 0.7793 0.8466
N5 N 0.6493(2) 0.71504(16) 0.5748(5)
N6 N 0.6789(3) 0.6785(2) 0.3620(5)
C29 C 0.7130(3) 0.7102(2) 0.5751(7)
H25 H 0.7395 0.7207 0.6534
C30 C 0.7319(4) 0.6880(3) 0.4451(8)
H26 H 0.7729 0.6805 0.4171
C31 C 0.6298(3) 0.6951(2) 0.4442(6)
C32 C 0.5651(3) 0.6904(3) 0.3924(8)
H27 H 0.5384 0.7110 0.4550
H28 H 0.5621 0.7013 0.2884
H29 H 0.5521 0.6556 0.3998
C33 C 0.6746(4) 0.6520(4) 0.2145(8)
H30 H 0.6394 0.6657 0.1576
H31 H 0.6662 0.6164 0.2330
C34 C 0.7315(5) 0.6565(5) 0.1216(9)
H32 H 0.7496 0.6899 0.1361
H33 H 0.7620 0.6316 0.1558
O9 O 0.5014(2) 0.68771(16) 0.7322(6)
O10 O 0.5597(2) 0.68781(16) 0.9352(5)
O1_2 O 0.3275(2) 0.56053(18) 0.6893(6)
O2_2 O 0.3293(2) 0.49402(19) 0.8303(5)
C4_2 C 0.4817(2) 0.6237(2) 0.9175(7)
C5_2 C 0.4331(3) 0.6017(2) 0.8335(6)
H3_2 H 0.4216 0.6157 0.7404
C6_2 C 0.4019(2) 0.5592(2) 0.8871(6)
C7_2 C 0.3497(3) 0.5367(3) 0.7965(7)
C8 C 0.5159(3) 0.6697(2) 0.8591(8)
O5_2 O 0.1725(2) 0.43947(18) 0.6893(6)
O6_2 O 0.1707(2) 0.50598(19) 0.8303(5)
C24_2 C 0.0183(2) 0.3763(2) 0.9175(7)
C25_2 C 0.0669(3) 0.3983(2) 0.8335(6)
H24_2 H 0.0784 0.3843 0.7404
C26_2 C 0.0981(2) 0.4408(2) 0.8871(6)
C27_2 C 0.1503(3) 0.4633(3) 0.7965(7)
Cd1 Cd 0.08430(3) 0.7500 0.2500
N1_2 N 0.1493(2) 0.78496(16) 0.0748(5)
O3 O 0.0014(2) 0.81229(16) 0.2322(6)
O4 O 0.0597(2) 0.81219(16) 0.4352(5)
H2 H 0.0296 0.8819 0.6120
C8_2 C 0.0159(3) 0.8303(2) 0.3591(8)
C9_2 C 0.2130(3) 0.7898(2) 0.0751(7)
H4_2 H 0.2395 0.7793 0.1534
N5_2 N 0.1493(2) 0.71504(16) 0.4252(5)
N6_2 N 0.1789(3) 0.6785(2) 0.6380(5)
C29_2 C 0.2130(3) 0.7102(2) 0.4249(7)
H25_2 H 0.2395 0.7207 0.3466
C30_2 C 0.2319(4) 0.6880(3) 0.5549(8)
H26_2 H 0.2729 0.6805 0.5829
C31_2 C 0.1298(3) 0.6951(2) 0.5558(6)
C32_2 C 0.0651(3) 0.6904(3) 0.6076(8)
H27_2 H 0.0384 0.7110 0.5450
H28_2 H 0.0621 0.7013 0.7116
H29_2 H 0.0521 0.6556 0.6002
C33_2 C 0.1746(4) 0.6520(4) 0.7855(8)
H30_2 H 0.1394 0.6657 0.8424
H31_2 H 0.1662 0.6164 0.7670
C34_2 C 0.2315(5) 0.6565(5) 0.8784(9)
H32_2 H 0.2496 0.6899 0.8639
H33_2 H 0.2620 0.6316 0.8442
O9_2 O 0.0014(2) 0.68771(16) 0.2678(6)
O10_2 O 0.0597(2) 0.68781(16) 0.0648(5)
C28_2 C 0.0159(3) 0.6697(2) 0.1409(8)
N2 N 0.1789(3) 0.8215(2) 0.8620(5)
N3 N 0.1910(4) 0.9128(3) 0.2578(7)
N4 N 0.2062(2) 0.94753(17) 0.0340(5)
C10 C 0.2319(4) 0.8120(3) 0.9451(8)
H5 H 0.2729 0.8195 0.9171
C11 C 0.1298(3) 0.8049(2) 0.9442(6)
C12 C 0.0651(3) 0.8096(3) 0.8924(8)
H6 H 0.0384 0.7890 0.9550
H7 H 0.0621 0.7987 0.7884
H8 H 0.0521 0.8444 0.8998
C13 C 0.1746(4) 0.8480(4) 0.7145(8)
H9 H 0.1394 0.8343 0.6576
H10 H 0.1662 0.8836 0.7330
C14 C 0.2315(5) 0.8435(5) 0.6216(9)
H11 H 0.2496 0.8101 0.6361
H12 H 0.2620 0.8684 0.6558
C15 C 0.2179(5) 0.8521(4) 0.4442(11)
H13 H 0.2551 0.8453 0.3839
H14 H 0.1842 0.8302 0.4094
C16 C 0.1997(6) 0.9057(4) 0.4332(10)
H15 H 0.2323 0.9277 0.4725
H16 H 0.1609 0.9122 0.4877
C17 C 0.1342(4) 0.9180(3) 0.1884(10)
H17 H 0.0956 0.9077 0.2278
C18 C 0.1433(3) 0.9400(2) 0.0560(8)
C19 C 0.2342(3) 0.9300(3) 0.1575(8)
C20 C 0.3027(4) 0.9278(5) 0.1795(11)
H19 H 0.3233 0.9417 0.0916
H20 H 0.3154 0.8932 0.1930
H21 H 0.3139 0.9471 0.2681
N10 N 0.7062(2) 0.94753(17) 0.9660(5)
H23_2 H 0.0296 0.6181 0.8880
N2_2 N 0.6789(3) 0.8215(2) 0.1380(5)
N3_2 N 0.6910(4) 0.9128(3) 0.7422(7)
C10_2 C 0.7319(4) 0.8120(3) 0.0549(8)
H5_2 H 0.7729 0.8195 0.0829
C11_2 C 0.6298(3) 0.8049(2) 0.0558(6)
C12_2 C 0.5651(3) 0.8096(3) 0.1076(8)
H6_2 H 0.5384 0.7890 0.0450
H7_2 H 0.5621 0.7987 0.2116
H8_2 H 0.5521 0.8444 0.1002
C13_2 C 0.6746(4) 0.8480(4) 0.2855(8)
H9_2 H 0.6394 0.8343 0.3424
H10_2 H 0.6662 0.8836 0.2670
C14_2 C 0.7315(5) 0.8435(5) 0.3784(9)
H11_2 H 0.7496 0.8101 0.3639
H12_2 H 0.7620 0.8684 0.3442
C15_2 C 0.7179(5) 0.8521(4) 0.5558(11)
H13_2 H 0.7551 0.8453 0.6161
H14_2 H 0.6842 0.8302 0.5906
C16_2 C 0.6997(6) 0.9057(4) 0.5668(10)
H15_2 H 0.7323 0.9277 0.5275
H16_2 H 0.6609 0.9122 0.5123
C17_2 C 0.6342(4) 0.9180(3) 0.8116(10)
H17_2 H 0.5956 0.9077 0.7722
C18_2 C 0.6433(3) 0.9400(2) 0.9440(8)
C19_2 C 0.7342(3) 0.9300(3) 0.8425(8)
C20_2 C 0.8027(4) 0.9278(5) 0.8205(11)
H19_2 H 0.8233 0.9417 0.9084
H20_2 H 0.8154 0.8932 0.8070
H21_2 H 0.8139 0.9471 0.7319
Br1_2 Br 0.48790(4) 0.53429(3) 0.30350(9)
C1_2 C 0.4190(3) 0.5386(2) 0.0262(7)
H1_2 H 0.3987 0.5098 0.0630
C2_2 C 0.4664(3) 0.5609(2) 0.1096(6)
C3_2 C 0.4976(3) 0.6034(2) 0.0547(7)
H2_2 H 0.5296 0.6181 0.1120
Br2_2 Br 0.01210(4) 0.46571(3) 0.30350(9)
C21_2 C 0.0810(3) 0.4614(2) 0.0262(7)
H22_2 H 0.1013 0.4902 0.0630
C22_2 C 0.0336(3) 0.4391(2) 0.1096(6)
C23_2 C 0.0024(3) 0.3966(2) 0.0547(7)
Cd2 Cd 0.7500 0.0000 0.13919(6)
O2_3 O 0.8293(2) 0.00598(19) 0.3303(5)
O5_3 O 0.6725(2) 0.06053(18) 0.1893(6)
O7_2 O 0.4986(2) 0.18771(16) 0.2322(6)
O8_2 O 0.4403(2) 0.18781(16) 0.4352(5)
Br2_3 Br 0.51210(4) 0.03429(3) 0.80350(9)
C21_3 C 0.5810(3) 0.0386(2) 0.5262(7)
H22_3 H 0.6013 0.0098 0.5630
C22_3 C 0.5336(3) 0.0609(2) 0.6096(6)
C23_3 C 0.5024(3) 0.1034(2) 0.5547(7)
H23_3 H 0.4704 0.1181 0.6120
C24_3 C 0.5183(2) 0.1237(2) 0.4175(7)
C25_3 C 0.5669(3) 0.1017(2) 0.3335(6)
H24_3 H 0.5784 0.1157 0.2404
C26_3 C 0.5981(2) 0.0592(2) 0.3871(6)
C27_3 C 0.6503(3) 0.0367(3) 0.2965(7)
C28_3 C 0.4841(3) 0.1697(2) 0.3591(8)
Cd3_2 Cd 0.41570(3) 0.2500 0.2500
N1_3 N 0.3507(2) 0.21504(16) 0.0748(5)
C9_3 C 0.2870(3) 0.2102(2) 0.0751(7)
H4_3 H 0.2605 0.2207 0.1534
N5_3 N 0.3507(2) 0.28496(16) 0.4252(5)
N6_3 N 0.3211(3) 0.3215(2) 0.6380(5)
C29_3 C 0.2870(3) 0.2898(2) 0.4249(7)
H25_3 H 0.2605 0.2793 0.3466
C30_3 C 0.2681(4) 0.3120(3) 0.5549(8)
H26_3 H 0.2271 0.3195 0.5829
C31_3 C 0.3702(3) 0.3049(2) 0.5558(6)
C32_3 C 0.4349(3) 0.3096(3) 0.6076(8)
H27_3 H 0.4616 0.2890 0.5450
H28_3 H 0.4379 0.2987 0.7116
H29_3 H 0.4479 0.3444 0.6002
C33_3 C 0.3254(4) 0.3480(4) 0.7855(8)
H30_3 H 0.3606 0.3343 0.8424
H31_3 H 0.3338 0.3836 0.7670
C34_3 C 0.2685(5) 0.3435(5) 0.8784(9)
H32_3 H 0.2504 0.3101 0.8639
H33_3 H 0.2380 0.3684 0.8442
O9_3 O 0.4986(2) 0.31229(16) 0.2678(6)
O10_3 O 0.4403(2) 0.31219(16) 0.0648(5)
Cd2_2 Cd 0.7500 0.5000 0.36081(6)
O1_3 O 0.6725(2) 0.43947(18) 0.3107(6)
O2_4 O 0.6707(2) 0.50598(19) 0.1697(5)
C4_3 C 0.5183(2) 0.3763(2) 0.0825(7)
C5_3 C 0.5669(3) 0.3983(2) 0.1665(6)
H3_3 H 0.5784 0.3843 0.2596
C6_3 C 0.5981(2) 0.4408(2) 0.1129(6)
C7_3 C 0.6503(3) 0.4633(3) 0.2035(7)
C8_3 C 0.4841(3) 0.3303(2) 0.1409(8)
O5_4 O 0.8275(2) 0.56053(18) 0.3107(6)
O6_3 O 0.8293(2) 0.49402(19) 0.1697(5)
C24_4 C 0.9817(2) 0.6237(2) 0.0825(7)
C25_4 C 0.9331(3) 0.6017(2) 0.1665(6)
H24_4 H 0.9216 0.6157 0.2596
C26_4 C 0.9019(2) 0.5592(2) 0.1129(6)
C27_4 C 0.8497(3) 0.5367(3) 0.2035(7)
N9 N 0.7062(2) 0.55247(17) 0.5340(5)
N10_2 N 0.7938(2) 0.44753(17) 0.5340(5)
H18_3 H 0.8881 0.0510 0.0124
N7_3 N 0.8090(4) 0.4128(3) 0.7578(7)
C35_3 C 0.7821(5) 0.3521(4) 0.9442(11)
H34_3 H 0.7449 0.3453 0.8839
H35_3 H 0.8158 0.3302 0.9094
C36_3 C 0.8003(6) 0.4057(4) 0.9332(10)
H36_3 H 0.7677 0.4277 0.9725
H37_3 H 0.8391 0.4122 0.9877
C37_3 C 0.8658(4) 0.4180(3) 0.6884(10)
H38_3 H 0.9044 0.4077 0.7278
C38_3 C 0.8567(3) 0.4400(2) 0.5560(8)
H39_3 H 0.8881 0.4490 0.4876
C39_3 C 0.7658(3) 0.4300(3) 0.6575(8)
C40_3 C 0.6973(4) 0.4278(5) 0.6795(11)
H40_3 H 0.6767 0.4417 0.5916
H41_3 H 0.6846 0.3932 0.6930
H42_3 H 0.6861 0.4471 0.7681
N7_4 N 0.6910(4) 0.5872(3) 0.7578(7)
C35_4 C 0.7179(5) 0.6479(4) 0.9442(11)
H34_4 H 0.7551 0.6547 0.8839
H35_4 H 0.6842 0.6698 0.9094
C36_4 C 0.6997(6) 0.5943(4) 0.9332(10)
H36_4 H 0.7323 0.5723 0.9725
H37_4 H 0.6609 0.5878 0.9877
C37_4 C 0.6342(4) 0.5820(3) 0.6884(10)
H38_4 H 0.5956 0.5923 0.7278
C38_4 C 0.6433(3) 0.5600(2) 0.5560(8)
H39_4 H 0.6119 0.5510 0.4876
C39_4 C 0.7342(3) 0.5700(3) 0.6575(8)
C40_4 C 0.8027(4) 0.5722(5) 0.6795(11)
H40_4 H 0.8233 0.5583 0.5916
H41_4 H 0.8154 0.6068 0.6930
H42_4 H 0.8139 0.5529 0.7681
N9_2 N 0.7938(2) 0.05247(17) 0.9660(5)
N2_3 N 0.3211(3) 0.1785(2) 0.8620(5)
N3_3 N 0.3090(4) 0.0872(3) 0.2578(7)
N4_2 N 0.2938(2) 0.05247(17) 0.0340(5)
C10_3 C 0.2681(4) 0.1880(3) 0.9451(8)
H5_3 H 0.2271 0.1805 0.9171
C11_3 C 0.3702(3) 0.1951(2) 0.9442(6)
C12_3 C 0.4349(3) 0.1904(3) 0.8924(8)
H6_3 H 0.4616 0.2110 0.9550
H7_3 H 0.4379 0.2013 0.7884
H8_3 H 0.4479 0.1556 0.8998
C13_3 C 0.3254(4) 0.1520(4) 0.7145(8)
H9_3 H 0.3606 0.1657 0.6576
H10_3 H 0.3338 0.1164 0.7330
C14_3 C 0.2685(5) 0.1565(5) 0.6216(9)
H11_3 H 0.2504 0.1899 0.6361
H12_3 H 0.2380 0.1316 0.6558
C15_3 C 0.2821(5) 0.1479(4) 0.4442(11)
H13_3 H 0.2449 0.1547 0.3839
H14_3 H 0.3158 0.1698 0.4094
C16_3 C 0.3003(6) 0.0943(4) 0.4332(10)
H15_3 H 0.2677 0.0723 0.4725
H16_3 H 0.3391 0.0878 0.4877
C17_3 C 0.3658(4) 0.0820(3) 0.1884(10)
H17_3 H 0.4044 0.0923 0.2278
C18_3 C 0.3567(3) 0.0600(2) 0.0560(8)
C19_3 C 0.2658(3) 0.0700(3) 0.1575(8)
C20_3 C 0.1973(4) 0.0722(5) 0.1795(11)
H19_3 H 0.1767 0.0583 0.0916
H20_3 H 0.1846 0.1068 0.1930
H21_3 H 0.1861 0.0529 0.2681
Br1_3 Br 0.51210(4) 0.46571(3) 0.69650(9)
C1_3 C 0.5810(3) 0.4614(2) 0.9738(7)
H1_3 H 0.6013 0.4902 0.9370
C2_3 C 0.5336(3) 0.4391(2) 0.8904(6)
C3_3 C 0.5024(3) 0.3966(2) 0.9453(7)
H2_3 H 0.4704 0.3819 0.8880
Br2_4 Br 0.98790(4) 0.53429(3) 0.69650(9)
C21_4 C 0.9190(3) 0.5386(2) 0.9738(7)
H22_4 H 0.8987 0.5098 0.9370
C22_4 C 0.9664(3) 0.5609(2) 0.8904(6)
C23_4 C 0.9976(3) 0.6034(2) 0.9453(7)
N2_4 N 0.8211(3) 0.1785(2) 0.1380(5)
N3_4 N 0.8090(4) 0.0872(3) 0.7422(7)
C10_4 C 0.7681(4) 0.1880(3) 0.0549(8)
H5_4 H 0.7271 0.1805 0.0829
C11_4 C 0.8702(3) 0.1951(2) 0.0558(6)
C12_4 C 0.9349(3) 0.1904(3) 0.1076(8)
H6_4 H 0.9616 0.2110 0.0450
H7_4 H 0.9379 0.2013 0.2116
H8_4 H 0.9479 0.1556 0.1002
C13_4 C 0.8254(4) 0.1520(4) 0.2855(8)
H9_4 H 0.8606 0.1657 0.3424
H10_4 H 0.8338 0.1164 0.2670
C14_4 C 0.7685(5) 0.1565(5) 0.3784(9)
H11_4 H 0.7504 0.1899 0.3639
H12_4 H 0.7380 0.1316 0.3442
C15_4 C 0.7821(5) 0.1479(4) 0.5558(11)
H13_4 H 0.7449 0.1547 0.6161
H14_4 H 0.8158 0.1698 0.5906
C16_4 C 0.8003(6) 0.0943(4) 0.5668(10)
H15_4 H 0.7677 0.0723 0.5275
H16_4 H 0.8391 0.0878 0.5123
C17_4 C 0.8658(4) 0.0820(3) 0.8116(10)
H17_4 H 0.9044 0.0923 0.7722
C18_4 C 0.8567(3) 0.0600(2) 0.9440(8)
C19_4 C 0.7658(3) 0.0700(3) 0.8425(8)
C20_4 C 0.6973(4) 0.0722(5) 0.8205(11)
H19_4 H 0.6767 0.0583 0.9084
H20_4 H 0.6846 0.1068 0.8070
H21_4 H 0.6861 0.0529 0.7319
H23_4 H 0.9704 0.3819 0.1120
Cd2_3 Cd 0.7500 1.0000 0.13919(6)
O1_4 O 0.8275(2) 0.93947(18) 0.1893(6)
Br1_4 Br 0.98790(4) 0.96571(3) 0.80350(9)
C1_4 C 0.9190(3) 0.9614(2) 0.5262(7)
H1_4 H 0.8987 0.9902 0.5630
C2_4 C 0.9664(3) 0.9391(2) 0.6096(6)
C3_4 C 0.9976(3) 0.8966(2) 0.5547(7)
C4_4 C 0.9817(2) 0.8763(2) 0.4175(7)
C5_4 C 0.9331(3) 0.8983(2) 0.3335(6)
H3_4 H 0.9216 0.8843 0.2404
C6_4 C 0.9019(2) 0.9408(2) 0.3871(6)
C7_4 C 0.8497(3) 0.9633(3) 0.2965(7)
O6_4 O 0.6707(2) 0.99402(19) 0.3303(5)
H18_4 H 0.6119 0.9490 0.0124
Cd1_2 Cd 0.91570(3) 0.2500 0.7500
N1_4 N 0.8507(2) 0.21504(16) 0.9252(5)
O3_2 O 0.9986(2) 0.18771(16) 0.7678(6)
O4_2 O 0.9403(2) 0.18781(16) 0.5648(5)
H2_4 H 0.9704 0.1181 0.3880
C8_4 C 0.9841(3) 0.1697(2) 0.6409(8)
C9_4 C 0.7870(3) 0.2102(2) 0.9249(7)
H4_4 H 0.7605 0.2207 0.8466
N5_4 N 0.8507(2) 0.28496(16) 0.5748(5)
N6_4 N 0.8211(3) 0.3215(2) 0.3620(5)
C29_4 C 0.7870(3) 0.2898(2) 0.5751(7)
H25_4 H 0.7605 0.2793 0.6534
C30_4 C 0.7681(4) 0.3120(3) 0.4451(8)
H26_4 H 0.7271 0.3195 0.4171
C31_4 C 0.8702(3) 0.3049(2) 0.4442(6)
C32_4 C 0.9349(3) 0.3096(3) 0.3924(8)
H27_4 H 0.9616 0.2890 0.4550
H28_4 H 0.9379 0.2987 0.2884
H29_4 H 0.9479 0.3444 0.3998
C33_4 C 0.8254(4) 0.3480(4) 0.2145(8)
H30_4 H 0.8606 0.3343 0.1576
H31_4 H 0.8338 0.3836 0.2330
C34_4 C 0.7685(5) 0.3435(5) 0.1216(9)
H32_4 H 0.7504 0.3101 0.1361
H33_4 H 0.7380 0.3684 0.1558
O9_4 O 0.9986(2) 0.31229(16) 0.7322(6)
O10_4 O 0.9403(2) 0.31219(16) 0.9352(5)
C28_4 C 0.9841(3) 0.3303(2) 0.8591(8)
loop_
_geom_bond_atom_site_label_1
_geom_bond_atom_site_label_2
_geom_bond_site_symmetry_1
_geom_bond_site_symmetry_2
Cd4 O1 1_555 1_555
O1 C7 1_555 1_555
Br1 C2 1_555 1_555
C1 H1 1_555 1_555
C2 C1 1_555 1_555
C3 C2 1_555 1_555
C4 C3 1_555 1_555
C5 C4 1_555 1_555
H3 C5 1_555 1_555
C6 C1 1_555 1_555
O6 Cd4 1_555 1_555
C5 C6 1_555 1_555
C6 C7 1_555 1_555
N7 C36 1_555 1_555
N8 C38 1_555 1_555
H34 C35 1_555 1_555
H35 C35 1_555 1_555
C36 C35 1_555 1_555
H36 C36 1_555 1_555
H37 C36 1_555 1_555
C37 N7 1_555 1_555
H38 C37 1_555 1_555
C38 C37 1_555 1_555
H39 C38 1_555 1_555
C39 N7 1_555 1_555
C40 C39 1_555 1_555
H40 C40 1_555 1_555
H41 C40 1_555 1_555
H42 C40 1_555 1_555
Cd5 N8 1_555 1_555
N8 C39 1_555 1_555
N7_2 C36_2 1_555 1_555
N8_2 C38_2 1_555 1_555
H34_2 C35_2 1_555 1_555
H35_2 C35_2 1_555 1_555
C36_2 C35_2 1_555 1_555
H36_2 C36_2 1_555 1_555
H37_2 C36_2 1_555 1_555
C37_2 N7_2 1_555 1_555
H38_2 C37_2 1_555 1_555
C38_2 C37_2 1_555 1_555
H39_2 C38_2 1_555 1_555
C39_2 N7_2 1_555 1_555
C40_2 C39_2 1_555 1_555
H40_2 C40_2 1_555 1_555
H41_2 C40_2 1_555 1_555
H42_2 C40_2 1_555 1_555
Cd5 N8_2 1_555 1_555
N8_2 C39_2 1_555 1_555
O2 Cd4_2 1_555 1_555
O5 Cd4_2 1_555 1_555
O7 C28 1_555 1_555
O8 C28 1_555 1_555
Br2 C22 1_555 1_555
C21 H22 1_555 1_555
C22 C21 1_555 1_555
C23 C22 1_555 1_555
H23 C23 1_555 1_555
C24 C23 1_555 1_555
C25 C24 1_555 1_555
H24 C25 1_555 1_555
C26 C21 1_555 1_555
C27 O5 1_555 1_555
C28 C24 1_555 1_555
Cd3 O7 1_555 1_555
O8 Cd3 1_555 1_555
C25 C26 1_555 1_555
C26 C27 1_555 1_555
Cd3 N1 1_555 1_555
N1 C9 1_555 1_555
C9 H4 1_555 1_555
N5 Cd3 1_555 1_555
N6 C30 1_555 1_555
C29 N5 1_555 1_555
H25 C29 1_555 1_555
C30 C29 1_555 1_555
H26 C30 1_555 1_555
C31 N5 1_555 1_555
C32 C31 1_555 1_555
H27 C32 1_555 1_555
H28 C32 1_555 1_555
H29 C32 1_555 1_555
C33 N6 1_555 1_555
H30 C33 1_555 1_555
H31 C33 1_555 1_555
C34 C33 1_555 1_555
H32 C34 1_555 1_555
H33 C34 1_555 1_555
O9 Cd3 1_555 1_555
O10 Cd3 1_555 1_555
N6 C31 1_555 1_555
Cd5 O1_2 1_555 1_555
O1_2 C7_2 1_555 1_555
O2_2 Cd5 1_555 1_555
C5_2 C4_2 1_555 1_555
H3_2 C5_2 1_555 1_555
C7_2 O2_2 1_555 1_555
C8 O9 1_555 1_555
O5_2 Cd5 1_555 1_555
O6_2 Cd5 1_555 1_555
C25_2 C24_2 1_555 1_555
H24_2 C25_2 1_555 1_555
C27_2 O5_2 1_555 1_555
O10 C8 1_555 1_555
C4_2 C8 1_555 1_555
C5_2 C6_2 1_555 1_555
C6_2 C7_2 1_555 1_555
O6_2 C27_2 1_555 1_555
C25_2 C26_2 1_555 1_555
C26_2 C27_2 1_555 1_555
Cd1 N1_2 1_555 1_555
N1_2 C9_2 1_555 1_555
O3 Cd1 1_555 1_555
O4 Cd1 1_555 1_555
C8_2 O3 1_555 1_555
C9_2 H4_2 1_555 1_555
N5_2 Cd1 1_555 1_555
N6_2 C30_2 1_555 1_555
C29_2 N5_2 1_555 1_555
H25_2 C29_2 1_555 1_555
C30_2 C29_2 1_555 1_555
H26_2 C30_2 1_555 1_555
C31_2 N5_2 1_555 1_555
C32_2 C31_2 1_555 1_555
H27_2 C32_2 1_555 1_555
H28_2 C32_2 1_555 1_555
H29_2 C32_2 1_555 1_555
C33_2 N6_2 1_555 1_555
H30_2 C33_2 1_555 1_555
H31_2 C33_2 1_555 1_555
C34_2 C33_2 1_555 1_555
H32_2 C34_2 1_555 1_555
H33_2 C34_2 1_555 1_555
O9_2 Cd1 1_555 1_555
O10_2 Cd1 1_555 1_555
O4 C8_2 1_555 1_555
N6_2 C31_2 1_555 1_555
O9_2 C28_2 1_555 1_555
O10_2 C28_2 1_555 1_555
N2 C10 1_555 1_555
N3 C16 1_555 1_555
N4 C18 1_555 1_555
H5 C10 1_555 1_555
C12 C11 1_555 1_555
H6 C12 1_555 1_555
H7 C12 1_555 1_555
H8 C12 1_555 1_555
C13 N2 1_555 1_555
H9 C13 1_555 1_555
H10 C13 1_555 1_555
C14 C13 1_555 1_555
H11 C14 1_555 1_555
H12 C14 1_555 1_555
C15 C14 1_555 1_555
H13 C15 1_555 1_555
H14 C15 1_555 1_555
C16 C15 1_555 1_555
H15 C16 1_555 1_555
H16 C16 1_555 1_555
C17 N3 1_555 1_555
H17 C17 1_555 1_555
C18 C17 1_555 1_555
C19 N3 1_555 1_555
C20 C19 1_555 1_555
H19 C20 1_555 1_555
H20 C20 1_555 1_555
H21 C20 1_555 1_555
N2 C11 1_555 1_555
N4 C19 1_555 1_555
N2_2 C10_2 1_555 1_555
N3_2 C16_2 1_555 1_555
N10 C18_2 1_555 1_555
H5_2 C10_2 1_555 1_555
C12_2 C11_2 1_555 1_555
H6_2 C12_2 1_555 1_555
H7_2 C12_2 1_555 1_555
H8_2 C12_2 1_555 1_555
C13_2 N2_2 1_555 1_555
H9_2 C13_2 1_555 1_555
H10_2 C13_2 1_555 1_555
C14_2 C13_2 1_555 1_555
H11_2 C14_2 1_555 1_555
H12_2 C14_2 1_555 1_555
C15_2 C14_2 1_555 1_555
H13_2 C15_2 1_555 1_555
H14_2 C15_2 1_555 1_555
C16_2 C15_2 1_555 1_555
H15_2 C16_2 1_555 1_555
H16_2 C16_2 1_555 1_555
C17_2 N3_2 1_555 1_555
H17_2 C17_2 1_555 1_555
C18_2 C17_2 1_555 1_555
C19_2 N3_2 1_555 1_555
C20_2 C19_2 1_555 1_555
H19_2 C20_2 1_555 1_555
H20_2 C20_2 1_555 1_555
H21_2 C20_2 1_555 1_555
N2_2 C11_2 1_555 1_555
N10 C19_2 1_555 1_555
Br1_2 C2_2 1_555 1_555
C1_2 H1_2 1_555 1_555
C2_2 C1_2 1_555 1_555
C3_2 C2_2 1_555 1_555
H2_2 C3_2 1_555 1_555
Br2_2 C22_2 1_555 1_555
C21_2 H22_2 1_555 1_555
C22_2 C21_2 1_555 1_555
C23_2 C22_2 1_555 1_555
O2_3 Cd2 1_555 1_555
O5_3 Cd2 1_555 1_555
O7_2 C28_3 1_555 1_555
O8_2 C28_3 1_555 1_555
Br2_3 C22_3 1_555 1_555
C21_3 H22_3 1_555 1_555
C22_3 C21_3 1_555 1_555
C23_3 C22_3 1_555 1_555
H23_3 C23_3 1_555 1_555
C24_3 C23_3 1_555 1_555
C25_3 C24_3 1_555 1_555
H24_3 C25_3 1_555 1_555
C26_3 C21_3 1_555 1_555
C27_3 O5_3 1_555 1_555
C28_3 C24_3 1_555 1_555
Cd3_2 O7_2 1_555 1_555
O8_2 Cd3_2 1_555 1_555
C25_3 C26_3 1_555 1_555
C26_3 C27_3 1_555 1_555
Cd3_2 N1_3 1_555 1_555
N1_3 C9_3 1_555 1_555
C9_3 H4_3 1_555 1_555
N5_3 Cd3_2 1_555 1_555
N6_3 C30_3 1_555 1_555
C29_3 N5_3 1_555 1_555
H25_3 C29_3 1_555 1_555
C30_3 C29_3 1_555 1_555
H26_3 C30_3 1_555 1_555
C31_3 N5_3 1_555 1_555
C32_3 C31_3 1_555 1_555
H27_3 C32_3 1_555 1_555
H28_3 C32_3 1_555 1_555
H29_3 C32_3 1_555 1_555
C33_3 N6_3 1_555 1_555
H30_3 C33_3 1_555 1_555
H31_3 C33_3 1_555 1_555
C34_3 C33_3 1_555 1_555
H32_3 C34_3 1_555 1_555
H33_3 C34_3 1_555 1_555
O9_3 Cd3_2 1_555 1_555
O10_3 Cd3_2 1_555 1_555
N6_3 C31_3 1_555 1_555
Cd2_2 O1_3 1_555 1_555
O1_3 C7_3 1_555 1_555
O2_4 Cd2_2 1_555 1_555
C5_3 C4_3 1_555 1_555
H3_3 C5_3 1_555 1_555
C7_3 O2_4 1_555 1_555
C8_3 O9_3 1_555 1_555
O5_4 Cd2_2 1_555 1_555
O6_3 Cd2_2 1_555 1_555
C25_4 C24_4 1_555 1_555
H24_4 C25_4 1_555 1_555
C27_4 O5_4 1_555 1_555
N9 Cd2_2 1_555 1_555
N10_2 Cd2_2 1_555 1_555
O10_3 C8_3 1_555 1_555
C4_3 C8_3 1_555 1_555
C5_3 C6_3 1_555 1_555
C6_3 C7_3 1_555 1_555
O6_3 C27_4 1_555 1_555
C25_4 C26_4 1_555 1_555
C26_4 C27_4 1_555 1_555
N7_3 C36_3 1_555 1_555
N10_2 C38_3 1_555 1_555
H34_3 C35_3 1_555 1_555
H35_3 C35_3 1_555 1_555
C36_3 C35_3 1_555 1_555
H36_3 C36_3 1_555 1_555
H37_3 C36_3 1_555 1_555
C37_3 N7_3 1_555 1_555
H38_3 C37_3 1_555 1_555
C38_3 C37_3 1_555 1_555
H39_3 C38_3 1_555 1_555
C39_3 N7_3 1_555 1_555
C40_3 C39_3 1_555 1_555
H40_3 C40_3 1_555 1_555
H41_3 C40_3 1_555 1_555
H42_3 C40_3 1_555 1_555
N10_2 C39_3 1_555 1_555
N7_4 C36_4 1_555 1_555
N9 C38_4 1_555 1_555
H34_4 C35_4 1_555 1_555
H35_4 C35_4 1_555 1_555
C36_4 C35_4 1_555 1_555
H36_4 C36_4 1_555 1_555
H37_4 C36_4 1_555 1_555
C37_4 N7_4 1_555 1_555
H38_4 C37_4 1_555 1_555
C38_4 C37_4 1_555 1_555
H39_4 C38_4 1_555 1_555
C39_4 N7_4 1_555 1_555
C40_4 C39_4 1_555 1_555
H40_4 C40_4 1_555 1_555
H41_4 C40_4 1_555 1_555
H42_4 C40_4 1_555 1_555
N9 C39_4 1_555 1_555
N2_3 C10_3 1_555 1_555
N3_3 C16_3 1_555 1_555
N4_2 C18_3 1_555 1_555
H5_3 C10_3 1_555 1_555
C12_3 C11_3 1_555 1_555
H6_3 C12_3 1_555 1_555
H7_3 C12_3 1_555 1_555
H8_3 C12_3 1_555 1_555
C13_3 N2_3 1_555 1_555
H9_3 C13_3 1_555 1_555
H10_3 C13_3 1_555 1_555
C14_3 C13_3 1_555 1_555
H11_3 C14_3 1_555 1_555
H12_3 C14_3 1_555 1_555
C15_3 C14_3 1_555 1_555
H13_3 C15_3 1_555 1_555
H14_3 C15_3 1_555 1_555
C16_3 C15_3 1_555 1_555
H15_3 C16_3 1_555 1_555
H16_3 C16_3 1_555 1_555
C17_3 N3_3 1_555 1_555
H17_3 C17_3 1_555 1_555
C18_3 C17_3 1_555 1_555
C19_3 N3_3 1_555 1_555
C20_3 C19_3 1_555 1_555
H19_3 C20_3 1_555 1_555
H20_3 C20_3 1_555 1_555
H21_3 C20_3 1_555 1_555
N2_3 C11_3 1_555 1_555
N4_2 C19_3 1_555 1_555
Br1_3 C2_3 1_555 1_555
C1_3 H1_3 1_555 1_555
C2_3 C1_3 1_555 1_555
C3_3 C2_3 1_555 1_555
H2_3 C3_3 1_555 1_555
Br2_4 C22_4 1_555 1_555
C21_4 H22_4 1_555 1_555
C22_4 C21_4 1_555 1_555
C23_4 C22_4 1_555 1_555
N2_4 C10_4 1_555 1_555
N3_4 C16_4 1_555 1_555
N9_2 C18_4 1_555 1_555
H5_4 C10_4 1_555 1_555
C12_4 C11_4 1_555 1_555
H6_4 C12_4 1_555 1_555
H7_4 C12_4 1_555 1_555
H8_4 C12_4 1_555 1_555
C13_4 N2_4 1_555 1_555
H9_4 C13_4 1_555 1_555
H10_4 C13_4 1_555 1_555
C14_4 C13_4 1_555 1_555
H11_4 C14_4 1_555 1_555
H12_4 C14_4 1_555 1_555
C15_4 C14_4 1_555 1_555
H13_4 C15_4 1_555 1_555
H14_4 C15_4 1_555 1_555
C16_4 C15_4 1_555 1_555
H15_4 C16_4 1_555 1_555
H16_4 C16_4 1_555 1_555
C17_4 N3_4 1_555 1_555
H17_4 C17_4 1_555 1_555
C18_4 C17_4 1_555 1_555
C19_4 N3_4 1_555 1_555
C20_4 C19_4 1_555 1_555
H19_4 C20_4 1_555 1_555
H20_4 C20_4 1_555 1_555
H21_4 C20_4 1_555 1_555
N2_4 C11_4 1_555 1_555
N9_2 C19_4 1_555 1_555
Cd2_3 O1_4 1_555 1_555
O1_4 C7_4 1_555 1_555
Br1_4 C2_4 1_555 1_555
C1_4 H1_4 1_555 1_555
C2_4 C1_4 1_555 1_555
C3_4 C2_4 1_555 1_555
C4_4 C3_4 1_555 1_555
C5_4 C4_4 1_555 1_555
H3_4 C5_4 1_555 1_555
C6_4 C1_4 1_555 1_555
O6_4 Cd2_3 1_555 1_555
C5_4 C6_4 1_555 1_555
C6_4 C7_4 1_555 1_555
Cd1_2 N1_4 1_555 1_555
N1_4 C9_4 1_555 1_555
O3_2 Cd1_2 1_555 1_555
O4_2 Cd1_2 1_555 1_555
C8_4 O3_2 1_555 1_555
C9_4 H4_4 1_555 1_555
N5_4 Cd1_2 1_555 1_555
N6_4 C30_4 1_555 1_555
C29_4 N5_4 1_555 1_555
H25_4 C29_4 1_555 1_555
C30_4 C29_4 1_555 1_555
H26_4 C30_4 1_555 1_555
C31_4 N5_4 1_555 1_555
C32_4 C31_4 1_555 1_555
H27_4 C32_4 1_555 1_555
H28_4 C32_4 1_555 1_555
H29_4 C32_4 1_555 1_555
C33_4 N6_4 1_555 1_555
H30_4 C33_4 1_555 1_555
H31_4 C33_4 1_555 1_555
C34_4 C33_4 1_555 1_555
H32_4 C34_4 1_555 1_555
H33_4 C34_4 1_555 1_555
O9_4 Cd1_2 1_555 1_555
O10_4 Cd1_2 1_555 1_555
O4_2 C8_4 1_555 1_555
N6_4 C31_4 1_555 1_555
O9_4 C28_4 1_555 1_555
O10_4 C28_4 1_555 1_555

#END
