
###############################################################################
#
# This file contains modified crystal structure data generated from the
# MOF subset of the Cambridge Structural Database (CSD) v543 
# hosted by the Cambridge Crystallographic Data Centre (CCDC).
#
# This work is licensed under the Creative Commons
# Attribution-NonCommercial-ShareAlike 4.0 International License.
# To view a copy of this license, visit
# http://creativecommons.org/licenses/by-nc-sa/4.0/
# or send a letter to
# Creative Commons, PO Box 1866, Mountain View, CA 94042, USA.
#
# CIF created using the CSD Python API on 29 September 2022
# The structure has been converted into the P1 space group
# The structure has a 3D framework
# The original CSD entry COMZAH is in the orthorhombic crystal system
# The framework has been calculated to contain at least 10.0% void space
# The void calculation uses a probe of radius 1.32A, grid spacing 0.4
#
###############################################################################

data_COMZAH
_chemical_formula_moiety         '(C216 H168 N20 O40 Zn6)n'
_symmetry_cell_setting           triclinic
_symmetry_space_group_name_H-M   'P 1'
_symmetry_Int_Tables_number      1
_space_group_name_Hall           'P 1'
loop_
_symmetry_equiv_pos_site_id
_symmetry_equiv_pos_as_xyz
1 x,y,z
_cell_length_a                   23.2667(14)
_cell_length_b                   15.2352(9)
_cell_length_c                   16.8347(10)
_cell_angle_alpha                90
_cell_angle_beta                 90
_cell_angle_gamma                90
_cell_volume                     5967.44
loop_
_atom_site_label
_atom_site_type_symbol
_atom_site_fract_x
_atom_site_fract_y
_atom_site_fract_z
Zn1 Zn 0.01173(5) 0.58342(6) 0.24360(7)
N3 N 0.0076(4) 0.4921(5) 0.1540(5)
C16 C 0.0462(5) 0.4864(6) 0.0990(7)
H10 H 0.0757 0.5277 0.0976
C17 C 0.0451(5) 0.4202(6) 0.0416(7)
H11 H 0.0733 0.4188 0.0024
C18 C 0.0032(5) 0.3578(6) 0.0425(7)
C22 C 0.0003(7) 0.1943(7) 0.0222(8)
H16 H 0.0331 0.1882 0.0575
O6 O 0.0753(4) 0.6560(5) 0.1988(6)
N4 N 0.0079(4) 0.5017(5) 0.3394(5)
O3 O 0.0981(4) 0.6506(6) 0.3240(7)
O5 O 0.2881(6) 0.9743(8) 0.1398(5)
C1 C 0.1461(4) 0.7543(6) 0.2422(7)
C2 C 0.1743(5) 0.7910(7) 0.3046(7)
H2 H 0.1681 0.7696 0.3556
C3 C 0.2120(5) 0.8599(6) 0.2929(7)
H3 H 0.2313 0.8839 0.3361
C4 C 0.2211(4) 0.8923(6) 0.2205(6)
C5 C 0.1952(6) 0.8542(9) 0.1565(7)
H4 H 0.2031 0.8742 0.1055
C6 C 0.1572(6) 0.7858(9) 0.1677(8)
H5 H 0.1389 0.7608 0.1240
C13 C 0.1038(4) 0.6804(7) 0.2591(8)
C15 C 0.2624(5) 0.9685(7) 0.2046(7)
N3_2 N 0.0076(4) 0.0079(5) 0.6540(5)
C16_2 C 0.0462(5) 0.0136(6) 0.5990(7)
C17_2 C 0.0451(5) 0.0798(6) 0.5416(7)
H11_2 H 0.0733 0.0812 0.5024
C18_2 C 0.0032(5) 0.1422(6) 0.5425(7)
C21 C 0.0018(6) 0.2159(6) 0.4823(8)
H14 H 0.0355 0.2121 0.4486
C22_2 C 0.0003(7) 0.3057(7) 0.5222(8)
H16_2 H 0.0331 0.3118 0.5575
C23 C 0.0020(7) 0.3774(7) 0.4591(8)
C24 C 0.0542(6) 0.4035(7) 0.4278(8)
H18 H 0.0882 0.3794 0.4469
C25 C 0.0557(5) 0.4654(7) 0.3681(8)
H19 H 0.0910 0.4822 0.3472
C21_2 C 0.0018(6) 0.2841(6) 0.9823(8)
H14_2 H 0.0355 0.2879 0.9486
C23_2 C 0.0020(7) 0.1226(7) 0.9591(8)
C24_2 C 0.0542(6) 0.0965(7) 0.9278(8)
H18_2 H 0.0882 0.1206 0.9469
C25_2 C 0.0557(5) 0.0346(7) 0.8681(8)
H19_2 H 0.0910 0.0178 0.8472
N2 N 0.0079(4) 0.9983(5) 0.8394(5)
Zn3 Zn 0.01173(5) 0.91658(6) 0.74360(7)
N2_2 N 0.5079(4) 0.0017(5) 0.6606(5)
H20 H 0.4260 0.0089 0.6430
Zn3_2 Zn 0.51173(5) 0.08342(6) 0.75640(7)
O1 O 0.4528(4) 0.1689(5) 0.7343(6)
O2 O 0.4039(4) 0.1235(8) 0.8372(10)
O3_2 O 0.0981(4) 0.8494(6) 0.8240(7)
O4 O 0.0753(4) 0.8440(5) 0.6988(6)
O5_2 O 0.2881(6) 0.5257(8) 0.6398(5)
N1 N 0.2680(4) 0.4766(5) 0.7620(6)
H1 H 0.2482 0.4860 0.8043
C1_2 C 0.1461(4) 0.7457(6) 0.7422(7)
C2_2 C 0.1743(5) 0.7090(7) 0.8046(7)
H2_2 H 0.1681 0.7304 0.8556
C3_2 C 0.2120(5) 0.6401(6) 0.7929(7)
H3_2 H 0.2313 0.6161 0.8361
C4_2 C 0.2211(4) 0.6077(6) 0.7205(6)
C5_2 C 0.1952(6) 0.6458(9) 0.6565(7)
H4_2 H 0.2031 0.6258 0.6055
C6_2 C 0.1572(6) 0.7142(9) 0.6677(8)
H5_2 H 0.1389 0.7392 0.6240
C7 C 0.3044(5) 0.4019(7) 0.7612(9)
C8 C 0.2967(7) 0.3445(11) 0.8226(12)
H6 H 0.2683 0.3545 0.8604
C9 C 0.3323(7) 0.2699(10) 0.8281(13)
H7 H 0.3261 0.2301 0.8691
C10 C 0.3747(5) 0.2546(8) 0.7758(9)
C11 C 0.3854(5) 0.3163(7) 0.7209(7)
H8 H 0.4164 0.3097 0.6865
C12 C 0.3499(5) 0.3910(7) 0.7149(7)
H9 H 0.3586 0.4339 0.6775
C13_2 C 0.1038(4) 0.8196(7) 0.7591(8)
C14 C 0.4126(5) 0.1736(7) 0.7788(8)
C15_2 C 0.2624(5) 0.5315(7) 0.7046(7)
H10_2 H 0.5757 0.0277 0.9024
O6_2 O 0.5753(4) 0.1560(5) 0.8012(6)
H10_3 H 0.0757 0.9723 0.5976
O1_2 O 0.9528(4) 0.8311(5) 0.7657(6)
O2_2 O 0.9039(4) 0.8765(8) 0.6628(10)
O3_3 O 0.5981(4) 0.1506(6) 0.6760(7)
O5_3 O 0.7881(6) 0.4743(8) 0.8602(5)
N1_2 N 0.7680(4) 0.5234(5) 0.7380(6)
H1_2 H 0.7482 0.5140 0.6957
C1_3 C 0.6461(4) 0.2543(6) 0.7578(7)
C2_3 C 0.6743(5) 0.2910(7) 0.6954(7)
H2_3 H 0.6681 0.2696 0.6444
C3_3 C 0.7120(5) 0.3599(6) 0.7071(7)
H3_3 H 0.7313 0.3839 0.6639
C4_3 C 0.7211(4) 0.3923(6) 0.7795(6)
C5_3 C 0.6952(6) 0.3542(9) 0.8435(7)
H4_3 H 0.7031 0.3742 0.8945
C6_3 C 0.6572(6) 0.2858(9) 0.8323(8)
H5_3 H 0.6389 0.2608 0.8760
C7_2 C 0.8044(5) 0.5981(7) 0.7388(9)
C8_2 C 0.7967(7) 0.6555(11) 0.6774(12)
H6_2 H 0.7683 0.6455 0.6396
C9_2 C 0.8323(7) 0.7301(10) 0.6719(13)
H7_2 H 0.8261 0.7699 0.6309
C10_2 C 0.8747(5) 0.7454(8) 0.7242(9)
C11_2 C 0.8854(5) 0.6837(7) 0.7791(7)
H8_2 H 0.9164 0.6903 0.8135
C12_2 C 0.8499(5) 0.6090(7) 0.7851(7)
H9_2 H 0.8586 0.5661 0.8225
C13_3 C 0.6038(4) 0.1804(7) 0.7409(8)
C14_2 C 0.9126(5) 0.8264(7) 0.7212(8)
C15_3 C 0.7624(5) 0.4685(7) 0.7954(7)
O3_4 O 0.5981(4) 0.3494(6) 0.1760(7)
O4_2 O 0.5753(4) 0.3440(5) 0.3012(6)
O5_4 O 0.7881(6) 0.0257(8) 0.3602(5)
C1_4 C 0.6461(4) 0.2457(6) 0.2578(7)
C2_4 C 0.6743(5) 0.2090(7) 0.1954(7)
H2_4 H 0.6681 0.2304 0.1444
C3_4 C 0.7120(5) 0.1401(6) 0.2071(7)
H3_4 H 0.7313 0.1161 0.1639
C4_4 C 0.7211(4) 0.1077(6) 0.2795(6)
C5_4 C 0.6952(6) 0.1458(9) 0.3435(7)
H4_4 H 0.7031 0.1258 0.3945
C6_4 C 0.6572(6) 0.2142(9) 0.3323(8)
H5_4 H 0.6389 0.2392 0.3760
C13_4 C 0.6038(4) 0.3196(7) 0.2409(8)
C15_4 C 0.7624(5) 0.0315(7) 0.2954(7)
Zn2 Zn 0.51173(5) 0.41658(6) 0.25640(7)
O1_3 O 0.4528(4) 0.3311(5) 0.2343(6)
O2_3 O 0.4039(4) 0.3765(8) 0.3372(10)
N1_3 N 0.2680(4) 0.0234(5) 0.2620(6)
H1_3 H 0.2482 0.0140 0.3043
N3_3 N 0.5076(4) 0.5079(5) 0.3460(5)
C7_3 C 0.3044(5) 0.0981(7) 0.2612(9)
C8_3 C 0.2967(7) 0.1555(11) 0.3226(12)
H6_3 H 0.2683 0.1455 0.3604
C9_3 C 0.3323(7) 0.2301(10) 0.3281(13)
H7_3 H 0.3261 0.2699 0.3691
C10_3 C 0.3747(5) 0.2454(8) 0.2758(9)
C11_3 C 0.3854(5) 0.1837(7) 0.2209(7)
H8_3 H 0.4164 0.1903 0.1865
C12_3 C 0.3499(5) 0.1090(7) 0.2149(7)
H9_3 H 0.3586 0.0661 0.1775
C14_3 C 0.4126(5) 0.3264(7) 0.2788(8)
C16_3 C 0.5462(5) 0.5136(6) 0.4010(7)
H10_4 H 0.5757 0.4723 0.4024
C17_3 C 0.5451(5) 0.5798(6) 0.4584(7)
H11_3 H 0.5733 0.5812 0.4976
C18_3 C 0.5032(5) 0.6422(6) 0.4575(7)
C19 C 0.4628(6) 0.6358(7) 0.3991(9)
H12 H 0.4331 0.6766 0.3967
C20 C 0.4656(5) 0.5689(7) 0.3432(9)
H13 H 0.4381 0.5661 0.3032
C21_3 C 0.5018(6) 0.7159(6) 0.5177(8)
H14_3 H 0.5355 0.7121 0.5514
H15 H 0.4681 0.7094 0.5511
C22_3 C 0.5003(7) 0.8057(7) 0.4778(8)
H16_3 H 0.5331 0.8118 0.4425
H17 H 0.4656 0.8113 0.4464
C23_3 C 0.5020(7) 0.8774(7) 0.5409(8)
C24_3 C 0.5542(6) 0.9035(7) 0.5722(8)
H18_3 H 0.5882 0.8794 0.5531
C25_3 C 0.5557(5) 0.9654(7) 0.6319(8)
H19_3 H 0.5910 0.9822 0.6528
C26 C 0.4592(5) 0.9802(7) 0.6262(8)
C27 C 0.4536(6) 0.9185(8) 0.5673(10)
H21 H 0.4178 0.9051 0.5459
N4_2 N 0.5079(4) 0.4983(5) 0.1606(5)
C21_4 C 0.5018(6) 0.7841(6) 0.0177(8)
H14_4 H 0.5355 0.7879 0.0514
H15_2 H 0.4681 0.7906 0.0511
C23_4 C 0.5020(7) 0.6226(7) 0.0409(8)
C24_4 C 0.5542(6) 0.5965(7) 0.0722(8)
H18_4 H 0.5882 0.6206 0.0531
C25_4 C 0.5557(5) 0.5346(7) 0.1319(8)
H19_4 H 0.5910 0.5178 0.1528
C26_2 C 0.4592(5) 0.5198(7) 0.1262(8)
H20_2 H 0.4260 0.4911 0.1430
C27_2 C 0.4536(6) 0.5815(8) 0.0673(10)
H21_2 H 0.4178 0.5949 0.0459
O1_4 O 0.9528(4) 0.6689(5) 0.2657(6)
O2_4 O 0.9039(4) 0.6235(8) 0.1628(10)
N1_4 N 0.7680(4) 0.9766(5) 0.2380(6)
H1_4 H 0.7482 0.9860 0.1957
C7_4 C 0.8044(5) 0.9019(7) 0.2388(9)
C8_4 C 0.7967(7) 0.8445(11) 0.1774(12)
H6_4 H 0.7683 0.8545 0.1396
C9_4 C 0.8323(7) 0.7699(10) 0.1719(13)
H7_4 H 0.8261 0.7301 0.1309
C10_4 C 0.8747(5) 0.7546(8) 0.2242(9)
C11_4 C 0.8854(5) 0.8163(7) 0.2791(7)
H8_4 H 0.9164 0.8097 0.3135
C12_4 C 0.8499(5) 0.8910(7) 0.2851(7)
H9_4 H 0.8586 0.9339 0.3225
C14_4 C 0.9126(5) 0.6736(7) 0.2212(8)
C19_2 C 0.9628(6) 0.3642(7) 0.1009(9)
H12_2 H 0.9331 0.3234 0.1033
C20_2 C 0.9656(5) 0.4311(7) 0.1568(9)
H13_2 H 0.9381 0.4339 0.1968
H17_2 H 0.9656 0.1887 0.0536
H15_3 H 0.9681 0.2906 0.9489
C26_3 C 0.9592(5) 0.0198(7) 0.8738(8)
C27_3 C 0.9536(6) 0.0815(8) 0.9327(10)
H21_3 H 0.9178 0.0949 0.9541
H20_3 H 0.9260 0.9911 0.8570
N3_4 N 0.4924(4) 0.0079(5) 0.1540(5)
C16_4 C 0.4538(5) 0.0136(6) 0.0990(7)
C17_4 C 0.4549(5) 0.0798(6) 0.0416(7)
H11_4 H 0.4267 0.0812 0.0024
C18_4 C 0.4968(5) 0.1422(6) 0.0425(7)
C19_3 C 0.5372(6) 0.1358(7) 0.1009(9)
H12_3 H 0.5669 0.1766 0.1033
C20_3 C 0.5344(5) 0.0689(7) 0.1568(9)
H13_3 H 0.5619 0.0661 0.1968
C22_4 C 0.4997(7) 0.3057(7) 0.0222(8)
H16_4 H 0.4669 0.3118 0.0575
H17_3 H 0.5344 0.3113 0.0536
N2_3 N 0.4921(4) 0.5017(5) 0.8394(5)
C21_5 C 0.4982(6) 0.2159(6) 0.9823(8)
H14_5 H 0.4645 0.2121 0.9486
H15_4 H 0.5319 0.2094 0.9489
C23_5 C 0.4980(7) 0.3774(7) 0.9591(8)
C24_5 C 0.4458(6) 0.4035(7) 0.9278(8)
H18_5 H 0.4118 0.3794 0.9469
C25_5 C 0.4443(5) 0.4654(7) 0.8681(8)
H19_5 H 0.4090 0.4822 0.8472
C26_4 C 0.5408(5) 0.4802(7) 0.8738(8)
H20_4 H 0.5740 0.5089 0.8570
C27_4 C 0.5464(6) 0.4185(8) 0.9327(10)
H21_4 H 0.5822 0.4051 0.9541
Zn3_3 Zn 0.48827(5) 0.58342(6) 0.74360(7)
O3_5 O 0.4019(4) 0.6506(6) 0.8240(7)
O4_3 O 0.4247(4) 0.6560(5) 0.6988(6)
O5_5 O 0.2119(6) 0.9743(8) 0.6398(5)
C1_5 C 0.3539(4) 0.7543(6) 0.7422(7)
C2_5 C 0.3257(5) 0.7910(7) 0.8046(7)
H2_5 H 0.3319 0.7696 0.8556
C3_5 C 0.2880(5) 0.8599(6) 0.7929(7)
H3_5 H 0.2687 0.8839 0.8361
C4_5 C 0.2789(4) 0.8923(6) 0.7205(6)
C5_5 C 0.3048(6) 0.8542(9) 0.6565(7)
H4_5 H 0.2969 0.8742 0.6055
C6_5 C 0.3428(6) 0.7858(9) 0.6677(8)
H5_5 H 0.3611 0.7608 0.6240
C13_5 C 0.3962(4) 0.6804(7) 0.7591(8)
C15_5 C 0.2376(5) 0.9685(7) 0.7046(7)
O1_5 O 0.5472(4) 0.6689(5) 0.7657(6)
O2_5 O 0.5961(4) 0.6235(8) 0.6628(10)
N1_5 N 0.7320(4) 0.9766(5) 0.7380(6)
H1_5 H 0.7518 0.9860 0.6957
N3_5 N 0.4924(4) 0.4921(5) 0.6540(5)
C7_5 C 0.6956(5) 0.9019(7) 0.7388(9)
C8_5 C 0.7033(7) 0.8445(11) 0.6774(12)
H6_5 H 0.7317 0.8545 0.6396
C9_5 C 0.6677(7) 0.7699(10) 0.6719(13)
H7_5 H 0.6739 0.7301 0.6309
C10_5 C 0.6253(5) 0.7546(8) 0.7242(9)
C11_5 C 0.6146(5) 0.8163(7) 0.7791(7)
H8_5 H 0.5836 0.8097 0.8135
C12_5 C 0.6501(5) 0.8910(7) 0.7851(7)
H9_5 H 0.6414 0.9339 0.8225
C14_5 C 0.5874(5) 0.6736(7) 0.7212(8)
C16_5 C 0.4538(5) 0.4864(6) 0.5990(7)
H10_5 H 0.4243 0.5277 0.5976
C17_5 C 0.4549(5) 0.4202(6) 0.5416(7)
H11_5 H 0.4267 0.4188 0.5024
C18_5 C 0.4968(5) 0.3578(6) 0.5425(7)
C19_4 C 0.5372(6) 0.3642(7) 0.6009(9)
H12_4 H 0.5669 0.3234 0.6033
C20_4 C 0.5344(5) 0.4311(7) 0.6568(9)
H13_4 H 0.5619 0.4339 0.6968
C21_6 C 0.4982(6) 0.2841(6) 0.4823(8)
H14_6 H 0.4645 0.2879 0.4486
H15_5 H 0.5319 0.2906 0.4489
C22_5 C 0.4997(7) 0.1943(7) 0.5222(8)
H16_5 H 0.4669 0.1882 0.5575
H17_4 H 0.5344 0.1887 0.5536
C23_6 C 0.4980(7) 0.1226(7) 0.4591(8)
C24_6 C 0.4458(6) 0.0965(7) 0.4278(8)
H18_6 H 0.4118 0.1206 0.4469
C25_6 C 0.4443(5) 0.0346(7) 0.3681(8)
H19_6 H 0.4090 0.0178 0.3472
C26_5 C 0.5408(5) 0.0198(7) 0.3738(8)
C27_5 C 0.5464(6) 0.0815(8) 0.4327(10)
H21_5 H 0.5822 0.0949 0.4541
Zn1_2 Zn 0.48827(5) 0.91658(6) 0.24360(7)
O1_6 O 0.5472(4) 0.8311(5) 0.2657(6)
O2_6 O 0.5961(4) 0.8765(8) 0.1628(10)
O3_6 O 0.9019(4) 0.1506(6) 0.1760(7)
O4_4 O 0.9247(4) 0.1560(5) 0.3012(6)
O5_6 O 0.7119(6) 0.4743(8) 0.3602(5)
N1_6 N 0.7320(4) 0.5234(5) 0.2380(6)
H1_6 H 0.7518 0.5140 0.1957
C1_6 C 0.8539(4) 0.2543(6) 0.2578(7)
C2_6 C 0.8257(5) 0.2910(7) 0.1954(7)
H2_6 H 0.8319 0.2696 0.1444
C3_6 C 0.7880(5) 0.3599(6) 0.2071(7)
H3_6 H 0.7687 0.3839 0.1639
C4_6 C 0.7789(4) 0.3923(6) 0.2795(6)
C5_6 C 0.8048(6) 0.3542(9) 0.3435(7)
H4_6 H 0.7969 0.3742 0.3945
C6_6 C 0.8428(6) 0.2858(9) 0.3323(8)
H5_6 H 0.8611 0.2608 0.3760
C7_6 C 0.6956(5) 0.5981(7) 0.2388(9)
C8_6 C 0.7033(7) 0.6555(11) 0.1774(12)
H6_6 H 0.7317 0.6455 0.1396
C9_6 C 0.6677(7) 0.7301(10) 0.1719(13)
H7_6 H 0.6739 0.7699 0.1309
C10_6 C 0.6253(5) 0.7454(8) 0.2242(9)
C11_6 C 0.6146(5) 0.6837(7) 0.2791(7)
H8_6 H 0.5836 0.6903 0.3135
C12_6 C 0.6501(5) 0.6090(7) 0.2851(7)
H9_6 H 0.6414 0.5661 0.3225
C13_6 C 0.8962(4) 0.1804(7) 0.2409(8)
C14_6 C 0.5874(5) 0.8264(7) 0.2212(8)
C15_6 C 0.7376(5) 0.4685(7) 0.2954(7)
H10_6 H 0.4243 0.9723 0.0976
Zn2_2 Zn 0.98827(5) 0.08342(6) 0.25640(7)
O6_3 O 0.4247(4) 0.8440(5) 0.1988(6)
N4_3 N 0.4921(4) 0.9983(5) 0.3394(5)
O1_7 O 0.0472(4) 0.1689(5) 0.2343(6)
O2_7 O 0.0961(4) 0.1235(8) 0.3372(10)
O3_7 O 0.4019(4) 0.8494(6) 0.3240(7)
O5_7 O 0.2119(6) 0.5257(8) 0.1398(5)
N1_7 N 0.2320(4) 0.4766(5) 0.2620(6)
H1_7 H 0.2518 0.4860 0.3043
C1_7 C 0.3539(4) 0.7457(6) 0.2422(7)
C2_7 C 0.3257(5) 0.7090(7) 0.3046(7)
H2_7 H 0.3319 0.7304 0.3556
C3_7 C 0.2880(5) 0.6401(6) 0.2929(7)
H3_7 H 0.2687 0.6161 0.3361
C4_7 C 0.2789(4) 0.6077(6) 0.2205(6)
C5_7 C 0.3048(6) 0.6458(9) 0.1565(7)
H4_7 H 0.2969 0.6258 0.1055
C6_7 C 0.3428(6) 0.7142(9) 0.1677(8)
H5_7 H 0.3611 0.7392 0.1240
C7_7 C 0.1956(5) 0.4019(7) 0.2612(9)
C8_7 C 0.2033(7) 0.3445(11) 0.3226(12)
H6_7 H 0.2317 0.3545 0.3604
C9_7 C 0.1677(7) 0.2699(10) 0.3281(13)
H7_7 H 0.1739 0.2301 0.3691
C10_7 C 0.1253(5) 0.2546(8) 0.2758(9)
C11_7 C 0.1146(5) 0.3163(7) 0.2209(7)
H8_7 H 0.0836 0.3097 0.1865
C12_7 C 0.1501(5) 0.3910(7) 0.2149(7)
H9_7 H 0.1414 0.4339 0.1775
C13_7 C 0.3962(4) 0.8196(7) 0.2591(8)
C14_7 C 0.0874(5) 0.1736(7) 0.2788(8)
C15_7 C 0.2376(5) 0.5315(7) 0.2046(7)
H10_7 H 0.9243 0.0277 0.4024
N4_4 N 0.9921(4) 0.0017(5) 0.1606(5)
H20_5 H 0.5740 0.9911 0.3570
C19_5 C 0.0372(6) 0.8642(7) 0.3991(9)
H12_5 H 0.0669 0.8234 0.3967
C20_5 C 0.0344(5) 0.9311(7) 0.3432(9)
H13_5 H 0.0619 0.9339 0.3032
H15_6 H 0.0319 0.7906 0.5511
H17_5 H 0.0344 0.6887 0.4464
C26_6 C 0.0408(5) 0.5198(7) 0.6262(8)
H20_6 H 0.0740 0.4911 0.6430
C27_6 C 0.0464(6) 0.5815(8) 0.5673(10)
H21_6 H 0.0822 0.5949 0.5459
N2_4 N 0.9921(4) 0.4983(5) 0.6606(5)
N3_6 N 0.9924(4) 0.9921(5) 0.3460(5)
C16_6 C 0.9538(5) 0.9864(6) 0.4010(7)
C17_6 C 0.9549(5) 0.9202(6) 0.4584(7)
H11_6 H 0.9267 0.9188 0.4976
C18_6 C 0.9968(5) 0.8578(6) 0.4575(7)
C21_7 C 0.9982(6) 0.7841(6) 0.5177(8)
H14_7 H 0.9645 0.7879 0.5514
C22_6 C 0.9997(7) 0.6943(7) 0.4778(8)
H16_6 H 0.9669 0.6882 0.4425
C23_7 C 0.9980(7) 0.6226(7) 0.5409(8)
C24_7 C 0.9458(6) 0.5965(7) 0.5722(8)
H18_7 H 0.9118 0.6206 0.5531
C25_7 C 0.9443(5) 0.5346(7) 0.6319(8)
H19_7 H 0.9090 0.5178 0.6528
Zn3_4 Zn 0.98827(5) 0.41658(6) 0.75640(7)
N3_7 N 0.9924(4) 0.5079(5) 0.8460(5)
C16_7 C 0.9538(5) 0.5136(6) 0.9010(7)
H10_8 H 0.9243 0.4723 0.9024
C17_7 C 0.9549(5) 0.5798(6) 0.9584(7)
H11_7 H 0.9267 0.5812 0.9976
C18_7 C 0.9968(5) 0.6422(6) 0.9575(7)
C22_7 C 0.9997(7) 0.8057(7) 0.9778(8)
H16_7 H 0.9669 0.8118 0.9425
O6_4 O 0.9247(4) 0.3440(5) 0.8012(6)
O3_8 O 0.9019(4) 0.3494(6) 0.6760(7)
O5_8 O 0.7119(6) 0.0257(8) 0.8602(5)
C1_8 C 0.8539(4) 0.2457(6) 0.7578(7)
C2_8 C 0.8257(5) 0.2090(7) 0.6954(7)
H2_8 H 0.8319 0.2304 0.6444
C3_8 C 0.7880(5) 0.1401(6) 0.7071(7)
H3_8 H 0.7687 0.1161 0.6639
C4_8 C 0.7789(4) 0.1077(6) 0.7795(6)
C5_8 C 0.8048(6) 0.1458(9) 0.8435(7)
H4_8 H 0.7969 0.1258 0.8945
C6_8 C 0.8428(6) 0.2142(9) 0.8323(8)
H5_8 H 0.8611 0.2392 0.8760
C13_8 C 0.8962(4) 0.3196(7) 0.7409(8)
C15_8 C 0.7376(5) 0.0315(7) 0.7954(7)
H20_7 H 0.0740 0.0089 0.1430
H15_7 H 0.0319 0.7094 0.0511
C26_7 C 0.0408(5) 0.9802(7) 0.1262(8)
C27_7 C 0.0464(6) 0.9185(8) 0.0673(10)
H21_7 H 0.0822 0.9051 0.0459
O1_8 O 0.0472(4) 0.3311(5) 0.7343(6)
O2_8 O 0.0961(4) 0.3765(8) 0.8372(10)
N1_8 N 0.2320(4) 0.0234(5) 0.7620(6)
H1_8 H 0.2518 0.0140 0.8043
C7_8 C 0.1956(5) 0.0981(7) 0.7612(9)
C8_8 C 0.2033(7) 0.1555(11) 0.8226(12)
H6_8 H 0.2317 0.1455 0.8604
C9_8 C 0.1677(7) 0.2301(10) 0.8281(13)
H7_8 H 0.1739 0.2699 0.8691
C10_8 C 0.1253(5) 0.2454(8) 0.7758(9)
C11_8 C 0.1146(5) 0.1837(7) 0.7209(7)
H8_8 H 0.0836 0.1903 0.6865
C12_8 C 0.1501(5) 0.1090(7) 0.7149(7)
H9_8 H 0.1414 0.0661 0.6775
C14_8 C 0.0874(5) 0.3264(7) 0.7788(8)
C19_6 C 0.0372(6) 0.6358(7) 0.8991(9)
H12_6 H 0.0669 0.6766 0.8967
C20_6 C 0.0344(5) 0.5689(7) 0.8432(9)
H13_6 H 0.0619 0.5661 0.8032
H17_6 H 0.0344 0.8113 0.9464
C21_8 C 0.9982(6) 0.7159(6) 0.0177(8)
H14_8 H 0.9645 0.7121 0.0514
C23_8 C 0.9980(7) 0.8774(7) 0.0409(8)
C24_8 C 0.9458(6) 0.9035(7) 0.0722(8)
H18_8 H 0.9118 0.8794 0.0531
C25_8 C 0.9443(5) 0.9654(7) 0.1319(8)
H19_8 H 0.9090 0.9822 0.1528
N3_8 N 0.5076(4) 0.9921(5) 0.8460(5)
C16_8 C 0.5462(5) 0.9864(6) 0.9010(7)
C17_8 C 0.5451(5) 0.9202(6) 0.9584(7)
H11_8 H 0.5733 0.9188 0.9976
C18_8 C 0.5032(5) 0.8578(6) 0.9575(7)
C19_7 C 0.4628(6) 0.8642(7) 0.8991(9)
H12_7 H 0.4331 0.8234 0.8967
C20_7 C 0.4656(5) 0.9311(7) 0.8432(9)
H13_7 H 0.4381 0.9339 0.8032
C22_8 C 0.5003(7) 0.6943(7) 0.9778(8)
H16_8 H 0.5331 0.6882 0.9425
H17_7 H 0.4656 0.6887 0.9464
C19_8 C 0.9628(6) 0.1358(7) 0.6009(9)
H12_8 H 0.9331 0.1766 0.6033
C20_8 C 0.9656(5) 0.0689(7) 0.6568(9)
H13_8 H 0.9381 0.0661 0.6968
H15_8 H 0.9681 0.2094 0.4489
H17_8 H 0.9656 0.3113 0.5536
C26_8 C 0.9592(5) 0.4802(7) 0.3738(8)
H20_8 H 0.9260 0.5089 0.3570
C27_8 C 0.9536(6) 0.4185(8) 0.4327(10)
H21_8 H 0.9178 0.4051 0.4541
loop_
_geom_bond_atom_site_label_1
_geom_bond_atom_site_label_2
_geom_bond_site_symmetry_1
_geom_bond_site_symmetry_2
N3 Zn1 1_555 1_555
C16 N3 1_555 1_555
H10 C16 1_555 1_555
C17 C16 1_555 1_555
H11 C17 1_555 1_555
C18 C17 1_555 1_555
H16 C22 1_555 1_555
O6 Zn1 1_555 1_555
N4 Zn1 1_555 1_555
O3 C13 1_555 1_555
O6 C13 1_555 1_555
O5 C15 1_555 1_555
C1 C2 1_555 1_555
C2 H2 1_555 1_555
C3 C2 1_555 1_555
H3 C3 1_555 1_555
C4 C3 1_555 1_555
C5 C4 1_555 1_555
H4 C5 1_555 1_555
C6 C1 1_555 1_555
H5 C6 1_555 1_555
C13 C1 1_555 1_555
C4 C15 1_555 1_555
C5 C6 1_555 1_555
N4 C25 1_555 1_555
C16_2 N3_2 1_555 1_555
C17_2 C16_2 1_555 1_555
H11_2 C17_2 1_555 1_555
C18_2 C17_2 1_555 1_555
C21 C18_2 1_555 1_555
H14 C21 1_555 1_555
C22_2 C21 1_555 1_555
H16_2 C22_2 1_555 1_555
C23 C22_2 1_555 1_555
C24 C23 1_555 1_555
H18 C24 1_555 1_555
C25 C24 1_555 1_555
H19 C25 1_555 1_555
H14_2 C21_2 1_555 1_555
C24_2 C23_2 1_555 1_555
H18_2 C24_2 1_555 1_555
C25_2 C24_2 1_555 1_555
H19_2 C25_2 1_555 1_555
Zn3 N2 1_555 1_555
Zn3_2 N2_2 1_555 1_555
Zn3_2 O1 1_555 1_555
O1 C14 1_555 1_555
O2 C14 1_555 1_555
O3_2 C13_2 1_555 1_555
O4 C13_2 1_555 1_555
O5_2 C15_2 1_555 1_555
N1 H1 1_555 1_555
C1_2 C2_2 1_555 1_555
C2_2 H2_2 1_555 1_555
C3_2 C2_2 1_555 1_555
H3_2 C3_2 1_555 1_555
C4_2 C3_2 1_555 1_555
C5_2 C4_2 1_555 1_555
H4_2 C5_2 1_555 1_555
C6_2 C1_2 1_555 1_555
H5_2 C6_2 1_555 1_555
C7 N1 1_555 1_555
C8 C7 1_555 1_555
H6 C8 1_555 1_555
C9 C8 1_555 1_555
H7 C9 1_555 1_555
C10 C9 1_555 1_555
C11 C10 1_555 1_555
H8 C11 1_555 1_555
C12 C7 1_555 1_555
H9 C12 1_555 1_555
C13_2 C1_2 1_555 1_555
C14 C10 1_555 1_555
C15_2 N1 1_555 1_555
Zn3 O4 1_555 1_555
O6_2 Zn3_2 1_555 1_555
C4_2 C15_2 1_555 1_555
C5_2 C6_2 1_555 1_555
C11 C12 1_555 1_555
O1_2 C14_2 1_555 1_555
O2_2 C14_2 1_555 1_555
O3_3 C13_3 1_555 1_555
O6_2 C13_3 1_555 1_555
O5_3 C15_3 1_555 1_555
N1_2 H1_2 1_555 1_555
C1_3 C2_3 1_555 1_555
C2_3 H2_3 1_555 1_555
C3_3 C2_3 1_555 1_555
H3_3 C3_3 1_555 1_555
C4_3 C3_3 1_555 1_555
C5_3 C4_3 1_555 1_555
H4_3 C5_3 1_555 1_555
C6_3 C1_3 1_555 1_555
H5_3 C6_3 1_555 1_555
C7_2 N1_2 1_555 1_555
C8_2 C7_2 1_555 1_555
H6_2 C8_2 1_555 1_555
C9_2 C8_2 1_555 1_555
H7_2 C9_2 1_555 1_555
C10_2 C9_2 1_555 1_555
C11_2 C10_2 1_555 1_555
H8_2 C11_2 1_555 1_555
C12_2 C7_2 1_555 1_555
H9_2 C12_2 1_555 1_555
C13_3 C1_3 1_555 1_555
C14_2 C10_2 1_555 1_555
C15_3 N1_2 1_555 1_555
C4_3 C15_3 1_555 1_555
C5_3 C6_3 1_555 1_555
C11_2 C12_2 1_555 1_555
O3_4 C13_4 1_555 1_555
O4_2 C13_4 1_555 1_555
O5_4 C15_4 1_555 1_555
C1_4 C2_4 1_555 1_555
C2_4 H2_4 1_555 1_555
C3_4 C2_4 1_555 1_555
H3_4 C3_4 1_555 1_555
C4_4 C3_4 1_555 1_555
C5_4 C4_4 1_555 1_555
H4_4 C5_4 1_555 1_555
C6_4 C1_4 1_555 1_555
H5_4 C6_4 1_555 1_555
C13_4 C1_4 1_555 1_555
Zn2 O4_2 1_555 1_555
C4_4 C15_4 1_555 1_555
C5_4 C6_4 1_555 1_555
Zn2 O1_3 1_555 1_555
O1_3 C14_3 1_555 1_555
O2_3 C14_3 1_555 1_555
N1_3 H1_3 1_555 1_555
N3_3 Zn2 1_555 1_555
C7_3 N1_3 1_555 1_555
C8_3 C7_3 1_555 1_555
H6_3 C8_3 1_555 1_555
C9_3 C8_3 1_555 1_555
H7_3 C9_3 1_555 1_555
C10_3 C9_3 1_555 1_555
C11_3 C10_3 1_555 1_555
H8_3 C11_3 1_555 1_555
C12_3 C7_3 1_555 1_555
H9_3 C12_3 1_555 1_555
C14_3 C10_3 1_555 1_555
C16_3 N3_3 1_555 1_555
H10_4 C16_3 1_555 1_555
C17_3 C16_3 1_555 1_555
H11_3 C17_3 1_555 1_555
C18_3 C17_3 1_555 1_555
C19 C18_3 1_555 1_555
H12 C19 1_555 1_555
C20 N3_3 1_555 1_555
H13 C20 1_555 1_555
C21_3 C18_3 1_555 1_555
H14_3 C21_3 1_555 1_555
H15 C21_3 1_555 1_555
C22_3 C21_3 1_555 1_555
H16_3 C22_3 1_555 1_555
H17 C22_3 1_555 1_555
C23_3 C22_3 1_555 1_555
C24_3 C23_3 1_555 1_555
H18_3 C24_3 1_555 1_555
C25_3 C24_3 1_555 1_555
H19_3 C25_3 1_555 1_555
C27 C23_3 1_555 1_555
H21 C27 1_555 1_555
N4_2 Zn2 1_555 1_555
C11_3 C12_3 1_555 1_555
C19 C20 1_555 1_555
C26 C27 1_555 1_555
N4_2 C25_4 1_555 1_555
H14_4 C21_4 1_555 1_555
H15_2 C21_4 1_555 1_555
C24_4 C23_4 1_555 1_555
H18_4 C24_4 1_555 1_555
C25_4 C24_4 1_555 1_555
H19_4 C25_4 1_555 1_555
C26_2 N4_2 1_555 1_555
H20_2 C26_2 1_555 1_555
C27_2 C23_4 1_555 1_555
H21_2 C27_2 1_555 1_555
C26_2 C27_2 1_555 1_555
O1_4 C14_4 1_555 1_555
O2_4 C14_4 1_555 1_555
N1_4 H1_4 1_555 1_555
C7_4 N1_4 1_555 1_555
C8_4 C7_4 1_555 1_555
H6_4 C8_4 1_555 1_555
C9_4 C8_4 1_555 1_555
H7_4 C9_4 1_555 1_555
C10_4 C9_4 1_555 1_555
C11_4 C10_4 1_555 1_555
H8_4 C11_4 1_555 1_555
C12_4 C7_4 1_555 1_555
H9_4 C12_4 1_555 1_555
C14_4 C10_4 1_555 1_555
H12_2 C19_2 1_555 1_555
H13_2 C20_2 1_555 1_555
C11_4 C12_4 1_555 1_555
C19_2 C20_2 1_555 1_555
H21_3 C27_3 1_555 1_555
C26_3 C27_3 1_555 1_555
C16_4 N3_4 1_555 1_555
C17_4 C16_4 1_555 1_555
H11_4 C17_4 1_555 1_555
C18_4 C17_4 1_555 1_555
C19_3 C18_4 1_555 1_555
H12_3 C19_3 1_555 1_555
C20_3 N3_4 1_555 1_555
H13_3 C20_3 1_555 1_555
H16_4 C22_4 1_555 1_555
H17_3 C22_4 1_555 1_555
C19_3 C20_3 1_555 1_555
N2_3 C25_5 1_555 1_555
H14_5 C21_5 1_555 1_555
H15_4 C21_5 1_555 1_555
C24_5 C23_5 1_555 1_555
H18_5 C24_5 1_555 1_555
C25_5 C24_5 1_555 1_555
H19_5 C25_5 1_555 1_555
C26_4 N2_3 1_555 1_555
H20_4 C26_4 1_555 1_555
C27_4 C23_5 1_555 1_555
H21_4 C27_4 1_555 1_555
Zn3_3 N2_3 1_555 1_555
C26_4 C27_4 1_555 1_555
O3_5 C13_5 1_555 1_555
O4_3 C13_5 1_555 1_555
O5_5 C15_5 1_555 1_555
C1_5 C2_5 1_555 1_555
C2_5 H2_5 1_555 1_555
C3_5 C2_5 1_555 1_555
H3_5 C3_5 1_555 1_555
C4_5 C3_5 1_555 1_555
C5_5 C4_5 1_555 1_555
H4_5 C5_5 1_555 1_555
C6_5 C1_5 1_555 1_555
H5_5 C6_5 1_555 1_555
C13_5 C1_5 1_555 1_555
Zn3_3 O4_3 1_555 1_555
C4_5 C15_5 1_555 1_555
C5_5 C6_5 1_555 1_555
Zn3_3 O1_5 1_555 1_555
O1_5 C14_5 1_555 1_555
O2_5 C14_5 1_555 1_555
N1_5 H1_5 1_555 1_555
N3_5 Zn3_3 1_555 1_555
C7_5 N1_5 1_555 1_555
C8_5 C7_5 1_555 1_555
H6_5 C8_5 1_555 1_555
C9_5 C8_5 1_555 1_555
H7_5 C9_5 1_555 1_555
C10_5 C9_5 1_555 1_555
C11_5 C10_5 1_555 1_555
H8_5 C11_5 1_555 1_555
C12_5 C7_5 1_555 1_555
H9_5 C12_5 1_555 1_555
C14_5 C10_5 1_555 1_555
C16_5 N3_5 1_555 1_555
H10_5 C16_5 1_555 1_555
C17_5 C16_5 1_555 1_555
H11_5 C17_5 1_555 1_555
C18_5 C17_5 1_555 1_555
C19_4 C18_5 1_555 1_555
H12_4 C19_4 1_555 1_555
C20_4 N3_5 1_555 1_555
H13_4 C20_4 1_555 1_555
C21_6 C18_5 1_555 1_555
H14_6 C21_6 1_555 1_555
H15_5 C21_6 1_555 1_555
C22_5 C21_6 1_555 1_555
H16_5 C22_5 1_555 1_555
H17_4 C22_5 1_555 1_555
C23_6 C22_5 1_555 1_555
C24_6 C23_6 1_555 1_555
H18_6 C24_6 1_555 1_555
C25_6 C24_6 1_555 1_555
H19_6 C25_6 1_555 1_555
C27_5 C23_6 1_555 1_555
H21_5 C27_5 1_555 1_555
C11_5 C12_5 1_555 1_555
C19_4 C20_4 1_555 1_555
C26_5 C27_5 1_555 1_555
Zn1_2 O1_6 1_555 1_555
O1_6 C14_6 1_555 1_555
O2_6 C14_6 1_555 1_555
O3_6 C13_6 1_555 1_555
O4_4 C13_6 1_555 1_555
O5_6 C15_6 1_555 1_555
N1_6 H1_6 1_555 1_555
C1_6 C2_6 1_555 1_555
C2_6 H2_6 1_555 1_555
C3_6 C2_6 1_555 1_555
H3_6 C3_6 1_555 1_555
C4_6 C3_6 1_555 1_555
C5_6 C4_6 1_555 1_555
H4_6 C5_6 1_555 1_555
C6_6 C1_6 1_555 1_555
H5_6 C6_6 1_555 1_555
C7_6 N1_6 1_555 1_555
C8_6 C7_6 1_555 1_555
H6_6 C8_6 1_555 1_555
C9_6 C8_6 1_555 1_555
H7_6 C9_6 1_555 1_555
C10_6 C9_6 1_555 1_555
C11_6 C10_6 1_555 1_555
H8_6 C11_6 1_555 1_555
C12_6 C7_6 1_555 1_555
H9_6 C12_6 1_555 1_555
C13_6 C1_6 1_555 1_555
C14_6 C10_6 1_555 1_555
C15_6 N1_6 1_555 1_555
Zn2_2 O4_4 1_555 1_555
O6_3 Zn1_2 1_555 1_555
N4_3 Zn1_2 1_555 1_555
C4_6 C15_6 1_555 1_555
C5_6 C6_6 1_555 1_555
C11_6 C12_6 1_555 1_555
O1_7 C14_7 1_555 1_555
O2_7 C14_7 1_555 1_555
O3_7 C13_7 1_555 1_555
O6_3 C13_7 1_555 1_555
O5_7 C15_7 1_555 1_555
N1_7 H1_7 1_555 1_555
C1_7 C2_7 1_555 1_555
C2_7 H2_7 1_555 1_555
C3_7 C2_7 1_555 1_555
H3_7 C3_7 1_555 1_555
C4_7 C3_7 1_555 1_555
C5_7 C4_7 1_555 1_555
H4_7 C5_7 1_555 1_555
C6_7 C1_7 1_555 1_555
H5_7 C6_7 1_555 1_555
C7_7 N1_7 1_555 1_555
C8_7 C7_7 1_555 1_555
H6_7 C8_7 1_555 1_555
C9_7 C8_7 1_555 1_555
H7_7 C9_7 1_555 1_555
C10_7 C9_7 1_555 1_555
C11_7 C10_7 1_555 1_555
H8_7 C11_7 1_555 1_555
C12_7 C7_7 1_555 1_555
H9_7 C12_7 1_555 1_555
C13_7 C1_7 1_555 1_555
C14_7 C10_7 1_555 1_555
C15_7 N1_7 1_555 1_555
C4_7 C15_7 1_555 1_555
C5_7 C6_7 1_555 1_555
C11_7 C12_7 1_555 1_555
N4_4 Zn2_2 1_555 1_555
H12_5 C19_5 1_555 1_555
H13_5 C20_5 1_555 1_555
H20_6 C26_6 1_555 1_555
H21_6 C27_6 1_555 1_555
C19_5 C20_5 1_555 1_555
C26_6 C27_6 1_555 1_555
N2_4 C25_7 1_555 1_555
C16_6 N3_6 1_555 1_555
C17_6 C16_6 1_555 1_555
H11_6 C17_6 1_555 1_555
C18_6 C17_6 1_555 1_555
C21_7 C18_6 1_555 1_555
H14_7 C21_7 1_555 1_555
C22_6 C21_7 1_555 1_555
H16_6 C22_6 1_555 1_555
C23_7 C22_6 1_555 1_555
C24_7 C23_7 1_555 1_555
H18_7 C24_7 1_555 1_555
C25_7 C24_7 1_555 1_555
H19_7 C25_7 1_555 1_555
Zn3_4 N2_4 1_555 1_555
N3_7 Zn3_4 1_555 1_555
C16_7 N3_7 1_555 1_555
H10_8 C16_7 1_555 1_555
C17_7 C16_7 1_555 1_555
H11_7 C17_7 1_555 1_555
C18_7 C17_7 1_555 1_555
H16_7 C22_7 1_555 1_555
O6_4 Zn3_4 1_555 1_555
O3_8 C13_8 1_555 1_555
O6_4 C13_8 1_555 1_555
O5_8 C15_8 1_555 1_555
C1_8 C2_8 1_555 1_555
C2_8 H2_8 1_555 1_555
C3_8 C2_8 1_555 1_555
H3_8 C3_8 1_555 1_555
C4_8 C3_8 1_555 1_555
C5_8 C4_8 1_555 1_555
H4_8 C5_8 1_555 1_555
C6_8 C1_8 1_555 1_555
H5_8 C6_8 1_555 1_555
C13_8 C1_8 1_555 1_555
C4_8 C15_8 1_555 1_555
C5_8 C6_8 1_555 1_555
H21_7 C27_7 1_555 1_555
C26_7 C27_7 1_555 1_555
O1_8 C14_8 1_555 1_555
O2_8 C14_8 1_555 1_555
N1_8 H1_8 1_555 1_555
C7_8 N1_8 1_555 1_555
C8_8 C7_8 1_555 1_555
H6_8 C8_8 1_555 1_555
C9_8 C8_8 1_555 1_555
H7_8 C9_8 1_555 1_555
C10_8 C9_8 1_555 1_555
C11_8 C10_8 1_555 1_555
H8_8 C11_8 1_555 1_555
C12_8 C7_8 1_555 1_555
H9_8 C12_8 1_555 1_555
C14_8 C10_8 1_555 1_555
H12_6 C19_6 1_555 1_555
H13_6 C20_6 1_555 1_555
C11_8 C12_8 1_555 1_555
C19_6 C20_6 1_555 1_555
H14_8 C21_8 1_555 1_555
C24_8 C23_8 1_555 1_555
H18_8 C24_8 1_555 1_555
C25_8 C24_8 1_555 1_555
H19_8 C25_8 1_555 1_555
C16_8 N3_8 1_555 1_555
C17_8 C16_8 1_555 1_555
H11_8 C17_8 1_555 1_555
C18_8 C17_8 1_555 1_555
C19_7 C18_8 1_555 1_555
H12_7 C19_7 1_555 1_555
C20_7 N3_8 1_555 1_555
H13_7 C20_7 1_555 1_555
H16_8 C22_8 1_555 1_555
H17_7 C22_8 1_555 1_555
C19_7 C20_7 1_555 1_555
H12_8 C19_8 1_555 1_555
H13_8 C20_8 1_555 1_555
H20_8 C26_8 1_555 1_555
H21_8 C27_8 1_555 1_555
C19_8 C20_8 1_555 1_555
C26_8 C27_8 1_555 1_555

#END
