
###############################################################################
#
# This file contains modified crystal structure data generated from the
# MOF subset of the Cambridge Structural Database (CSD) v543 
# hosted by the Cambridge Crystallographic Data Centre (CCDC).
#
# This work is licensed under the Creative Commons
# Attribution-NonCommercial-ShareAlike 4.0 International License.
# To view a copy of this license, visit
# http://creativecommons.org/licenses/by-nc-sa/4.0/
# or send a letter to
# Creative Commons, PO Box 1866, Mountain View, CA 94042, USA.
#
# CIF created using the CSD Python API on 29 September 2022
# The structure has been converted into the P1 space group
# The structure has a 3D framework
# The original CSD entry CONBIT is in the rhombohedral crystal system
# The framework has been calculated to contain at least 10.0% void space
# The void calculation uses a probe of radius 1.32A, grid spacing 0.4
#
###############################################################################

data_CONBIT
_chemical_formula_moiety         '(C828 H588 Co36 N102 O150)n'
_symmetry_cell_setting           triclinic
_symmetry_space_group_name_H-M   'P 1'
_symmetry_Int_Tables_number      1
_space_group_name_Hall           'P 1'
loop_
_symmetry_equiv_pos_site_id
_symmetry_equiv_pos_as_xyz
1 x,y,z
_cell_length_a                   33.409(5)
_cell_length_b                   33.409(5)
_cell_length_c                   37.524(6)
_cell_angle_alpha                90
_cell_angle_beta                 90
_cell_angle_gamma                120
_cell_volume                     36271.6
loop_
_atom_site_label
_atom_site_type_symbol
_atom_site_fract_x
_atom_site_fract_y
_atom_site_fract_z
O8 O 0.45795(13) 0.19606(9) 0.02773(8)
O9 O 0.49701(15) 0.23776(11) 0.07469(9)
N6 N 0.64316(12) 0.49226(17) 0.00253(10)
H24 H 0.491702 0.414563 0.002517
H26 H 0.577200 0.477471 0.002858
C39 C 0.5457(2) 0.35909(16) 0.01432(15)
H29 H 0.568014 0.387493 0.023428
C40 C 0.5308(3) 0.31952(17) 0.03454(15)
H30 H 0.543854 0.321522 0.056830
C41 C 0.49653(16) 0.27673(14) 0.02201(12)
C42 C 0.48249(16) 0.23381(15) 0.04372(12)
Co7 Co 0.68168(2) 0.55072(3) 0.03771(2)
Co8 Co 0.44928(3) 0.13097(2) 0.03771(2)
Co1 Co 0.46430(2) 0.34835(2) 0.62896(2)
O1 O 0.49208(11) 0.333333 0.583333
H1 H 0.495554 0.310300 0.588060
O2 O 0.44511(11) 0.38920(10) 0.60005(8)
O3 O 0.44746(13) 0.37873(10) 0.54115(8)
O4 O 0.19606(9) 0.45795(13) 0.47227(8)
O5 O 0.23776(11) 0.49701(15) 0.42531(9)
N1 N 0.43724(11) 0.58921(11) 0.52970(10)
N2 N 0.49226(17) 0.64316(12) 0.49747(10)
C1 C 0.44322(13) 0.39890(14) 0.56841(12)
C2 C 0.43432(13) 0.43862(13) 0.56108(11)
C3 C 0.42955(16) 0.45032(15) 0.52716(12)
H2 H 0.433745 0.435093 0.508030
C4 C 0.41850(17) 0.48471(16) 0.52075(13)
H3 H 0.414563 0.491702 0.497483
C5 C 0.41342(13) 0.50819(14) 0.54851(11)
C6 C 0.39912(13) 0.54461(14) 0.54286(11)
H4 H 0.390381 0.550722 0.566304
C7 C 0.47040(14) 0.59880(14) 0.50628(12)
H5 H 0.477471 0.577200 0.497142
C8 C 0.4694(2) 0.65876(17) 0.51719(16)
H6 H 0.476552 0.689482 0.516622
C9 C 0.43616(17) 0.62784(14) 0.53732(14)
H7 H 0.416764 0.631748 0.552932
C10 C 0.35678(14) 0.52806(15) 0.51886(12)
C11 C 0.35909(16) 0.5457(2) 0.48568(15)
H8 H 0.387493 0.568014 0.476572
C12 C 0.31952(17) 0.5308(3) 0.46546(15)
H9 H 0.321522 0.543854 0.443170
C13 C 0.27673(14) 0.49653(16) 0.47799(12)
C14 C 0.23381(15) 0.48249(16) 0.45628(12)
C15 C 0.27478(15) 0.47983(17) 0.51153(14)
H10 H 0.246426 0.457940 0.520979
C16 C 0.31449(16) 0.49511(18) 0.53162(15)
H11 H 0.312498 0.482813 0.554216
C17 C 0.41919(16) 0.49744(16) 0.58278(12)
H12 H 0.416199 0.513554 0.601829
C18 C 0.42942(17) 0.46277(16) 0.58902(12)
H13 H 0.433045 0.455608 0.612317
N3 N 0.44018(12) 0.36833(12) 0.67395(10)
C19 C 0.4055(2) 0.3396(3) 0.6936(2)
H14 H 0.389619 0.308667 0.686876
C20 C 0.3906(2) 0.3521(2) 0.72411(19)
H15 H 0.366246 0.329703 0.737511
C21 C 0.41179(17) 0.39696(17) 0.73408(12)
C22 C 0.4464(2) 0.4282(2) 0.71250(19)
H16 H 0.461103 0.459638 0.717739
C23 C 0.4590(2) 0.4131(2) 0.68351(18)
H17 H 0.482334 0.435146 0.669153
H18 H 0.518587 0.356367 0.578607
N4 N 0.36833(12) 0.44018(12) 0.82605(10)
C24 C 0.3396(3) 0.4055(2) 0.8064(2)
H19 H 0.308667 0.389619 0.813124
C25 C 0.3521(2) 0.3906(2) 0.77589(19)
H20 H 0.329703 0.366246 0.762489
C26 C 0.39696(17) 0.41179(17) 0.76592(12)
C27 C 0.4282(2) 0.4464(2) 0.78750(19)
H21 H 0.459638 0.461103 0.782261
C28 C 0.4131(2) 0.4590(2) 0.81649(18)
H22 H 0.435146 0.482334 0.830847
Co2 Co 0.34835(2) 0.46430(2) 0.87104(2)
O6 O 0.38920(10) 0.44511(11) 0.89995(8)
O7 O 0.37873(10) 0.44746(13) 0.95885(8)
N5 N 0.58921(11) 0.43724(11) 0.97030(10)
C29 C 0.39890(14) 0.44322(13) 0.93159(12)
C30 C 0.43862(13) 0.43432(13) 0.93892(11)
C31 C 0.45032(15) 0.42955(16) 0.97284(12)
H23 H 0.435093 0.433745 0.991970
C32 C 0.48471(16) 0.41850(17) 0.97925(13)
C33 C 0.50819(14) 0.41342(13) 0.95149(11)
C34 C 0.54461(14) 0.39912(13) 0.95714(11)
H25 H 0.550722 0.390381 0.933696
C35 C 0.59880(14) 0.47040(14) 0.99372(12)
C36 C 0.65876(17) 0.4694(2) 0.98281(16)
H27 H 0.689482 0.476552 0.983378
C37 C 0.62784(14) 0.43616(17) 0.96268(14)
H28 H 0.631748 0.416764 0.947068
C38 C 0.52806(15) 0.35678(14) 0.98114(12)
C43 C 0.47983(17) 0.27478(15) 0.98847(14)
H31 H 0.457940 0.246426 0.979021
C44 C 0.49511(18) 0.31449(16) 0.96838(15)
H32 H 0.482813 0.312498 0.945784
C45 C 0.49744(16) 0.41919(16) 0.91722(12)
H33 H 0.513554 0.416199 0.898171
C46 C 0.46277(16) 0.42942(17) 0.91098(12)
H34 H 0.455608 0.433045 0.887683
Co3 Co 0.31832(2) 0.44928(3) 0.96229(2)
Co4 Co 0.44928(3) 0.31832(2) 0.53771(2)
Co5 Co 0.13097(2) 0.44928(3) 0.46229(2)
Co6 Co 0.55072(3) 0.68168(2) 0.46229(2)
O10 O 0.333333 0.49208(11) 0.916667
O11 O 0.28794(10) 0.40206(16) 0.87448(8)
O12 O 0.40206(16) 0.28794(10) 0.62552(8)
O13 O 0.40478(16) 0.52939(9) 0.86106(8)
O14 O 0.52939(9) 0.40478(16) 0.63894(8)
N7 N 0.30983(12) 0.48423(21) 0.83586(10)
N8 N 0.48423(21) 0.30983(12) 0.66414(10)
O8_2 O 0.80394(9) 0.26189(16) 0.02773(8)
O9_2 O 0.76224(11) 0.25925(19) 0.07469(9)
N6_2 N 0.50774(17) 0.15090(21) 0.00253(10)
H24_2 H 0.585437 0.077139 0.002517
H26_2 H 0.522529 0.099729 0.002858
C39_2 C 0.64091(16) 0.18661(26) 0.01432(15)
H29_2 H 0.612507 0.180521 0.023428
C40_2 C 0.68048(17) 0.21128(34) 0.03454(15)
H30_2 H 0.678478 0.222332 0.056830
C41_2 C 0.72327(14) 0.21980(21) 0.02201(12)
C42_2 C 0.76619(15) 0.24868(22) 0.04372(12)
Co8_2 Co 0.86903(2) 0.31832(4) 0.03771(2)
Co1_2 Co 0.65165(2) 0.11595(3) 0.62896(2)
O1_2 O 0.666667 0.15875(11) 0.583333
H1_2 H 0.689700 0.185254 0.588060
O2_2 O 0.61080(10) 0.05591(15) 0.60005(8)
O3_2 O 0.62127(10) 0.06873(16) 0.54115(8)
C1_2 C 0.60110(14) 0.04432(19) 0.56841(12)
N3_2 N 0.63167(12) 0.07185(17) 0.67395(10)
C19_2 C 0.6604(3) 0.0659(4) 0.6936(2)
H14_2 H 0.691333 0.080952 0.686876
C20_2 C 0.6479(2) 0.0385(3) 0.72411(19)
H15_2 H 0.670297 0.036543 0.737511
C21_2 C 0.60304(17) 0.01483(24) 0.73408(12)
C22_2 C 0.5718(2) 0.0182(3) 0.71250(19)
H16_2 H 0.540362 0.001465 0.717739
C23_2 C 0.5869(2) 0.0459(3) 0.68351(18)
H17_2 H 0.564854 0.047188 0.669153
H18_2 H 0.643633 0.162221 0.578607
N5_2 N 0.56276(11) 0.15197(16) 0.97030(10)
C30_2 C 0.56568(13) 0.00430(18) 0.93892(11)
C31_2 C 0.57045(16) 0.02077(22) 0.97284(12)
H23_2 H 0.566255 0.001348 0.991970
C32_2 C 0.58150(17) 0.06621(23) 0.97925(13)
C33_2 C 0.58658(13) 0.09477(19) 0.95149(11)
C34_2 C 0.60088(13) 0.14549(19) 0.95714(11)
H25_2 H 0.609619 0.160341 0.933696
C35_2 C 0.52960(14) 0.12840(20) 0.99372(12)
C36_2 C 0.5306(2) 0.18936(26) 0.98281(16)
H27_2 H 0.523448 0.212930 0.983378
C37_2 C 0.56384(17) 0.19168(22) 0.96268(14)
H28_2 H 0.583236 0.214984 0.947068
C38_2 C 0.64322(14) 0.17128(21) 0.98114(12)
C43_2 C 0.72522(15) 0.20505(23) 0.98847(14)
H31_2 H 0.753574 0.211514 0.979021
C44_2 C 0.68551(16) 0.18062(24) 0.96838(15)
H32_2 H 0.687502 0.170315 0.945784
C45_2 C 0.58081(16) 0.07825(23) 0.91722(12)
H33_2 H 0.583801 0.097355 0.898171
C46_2 C 0.57058(17) 0.03335(23) 0.91098(12)
H34_2 H 0.566955 0.022563 0.887683
Co4_2 Co 0.68168(2) 0.13097(4) 0.53771(2)
O12_2 O 0.71206(10) 0.11413(19) 0.62552(8)
O14_2 O 0.59522(16) 0.12462(18) 0.63894(8)
N8_2 N 0.69017(12) 0.17441(24) 0.66414(10)
O4_2 O 0.54205(13) 0.73811(16) 0.47227(8)
O5_2 O 0.50299(15) 0.74075(19) 0.42531(9)
N1_2 N 0.41079(11) 0.84803(16) 0.52970(10)
N2_2 N 0.35684(12) 0.84910(21) 0.49747(10)
C2_2 C 0.56138(13) 0.99570(18) 0.56108(11)
C3_2 C 0.54968(15) 0.97923(22) 0.52716(12)
H2_2 H 0.564907 0.998652 0.508030
C4_2 C 0.51529(16) 0.93379(23) 0.52075(13)
H3_2 H 0.508298 0.922861 0.497483
C5_2 C 0.49181(14) 0.90523(19) 0.54851(11)
C6_2 C 0.45539(14) 0.85451(19) 0.54286(11)
H4_2 H 0.449278 0.839659 0.566304
C7_2 C 0.40120(14) 0.87160(20) 0.50628(12)
H5_2 H 0.422800 0.900271 0.497142
C8_2 C 0.34124(17) 0.81064(26) 0.51719(16)
H6_2 H 0.310518 0.787070 0.516622
C9_2 C 0.37216(14) 0.80832(22) 0.53732(14)
H7_2 H 0.368252 0.785016 0.552932
C10_2 C 0.47194(15) 0.82872(21) 0.51886(12)
C11_2 C 0.4543(2) 0.81339(26) 0.48568(15)
H8_2 H 0.431986 0.819479 0.476572
C12_2 C 0.4692(3) 0.78872(34) 0.46546(15)
H9_2 H 0.456146 0.777668 0.443170
C13_2 C 0.50347(16) 0.78020(21) 0.47799(12)
C14_2 C 0.51751(16) 0.75132(22) 0.45628(12)
C15_2 C 0.52017(17) 0.79495(23) 0.51153(14)
H10_2 H 0.542060 0.788486 0.520979
C16_2 C 0.50489(18) 0.81938(24) 0.53162(15)
H11_2 H 0.517187 0.829685 0.554216
C17_2 C 0.50256(16) 0.92175(23) 0.58278(12)
H12_2 H 0.486446 0.902645 0.601829
C18_2 C 0.53723(16) 0.96665(23) 0.58902(12)
H13_2 H 0.544392 0.977437 0.612317
N4_2 N 0.55982(12) 0.92815(17) 0.82605(10)
C24_2 C 0.5945(2) 0.9341(4) 0.8064(2)
H19_2 H 0.610381 0.919048 0.813124
C25_2 C 0.6094(2) 0.9615(3) 0.77589(19)
H20_2 H 0.633754 0.963457 0.762489
C26_2 C 0.58821(17) 0.98517(24) 0.76592(12)
C27_2 C 0.5536(2) 0.9818(3) 0.78750(19)
H21_2 H 0.538897 0.998535 0.782261
C28_2 C 0.5410(2) 0.9541(3) 0.81649(18)
H22_2 H 0.517666 0.952812 0.830847
Co2_2 Co 0.53570(2) 0.88405(3) 0.87104(2)
O6_2 O 0.55489(11) 0.94409(15) 0.89995(8)
O7_2 O 0.55254(13) 0.93127(16) 0.95885(8)
C29_2 C 0.55678(13) 0.95568(19) 0.93159(12)
Co3_2 Co 0.55072(3) 0.86903(4) 0.96229(2)
Co6_2 Co 0.31832(2) 0.86903(4) 0.46229(2)
O10_2 O 0.50792(11) 0.84125(11) 0.916667
O11_2 O 0.59794(16) 0.88587(19) 0.87448(8)
O13_2 O 0.47061(9) 0.87538(18) 0.86106(8)
N7_2 N 0.51577(21) 0.82559(24) 0.83586(10)
O4_3 O 0.26189(16) 0.80394(9) 0.47227(8)
O5_3 O 0.25925(19) 0.76224(11) 0.42531(9)
N1_3 N 0.15197(16) 0.56276(11) 0.52970(10)
N2_3 N 0.15090(21) 0.50774(17) 0.49747(10)
C2_3 C 0.00430(18) 0.56568(13) 0.56108(11)
C3_3 C 0.02077(22) 0.57045(16) 0.52716(12)
H2_3 H 0.001348 0.566255 0.508030
C4_3 C 0.06621(23) 0.58150(17) 0.52075(13)
H3_3 H 0.077139 0.585437 0.497483
C5_3 C 0.09477(19) 0.58658(13) 0.54851(11)
C6_3 C 0.14549(19) 0.60088(13) 0.54286(11)
H4_3 H 0.160341 0.609619 0.566304
C7_3 C 0.12840(20) 0.52960(14) 0.50628(12)
H5_3 H 0.099729 0.522529 0.497142
C8_3 C 0.18936(26) 0.5306(2) 0.51719(16)
H6_3 H 0.212930 0.523448 0.516622
C9_3 C 0.19168(22) 0.56384(17) 0.53732(14)
H7_3 H 0.214984 0.583236 0.552932
C10_3 C 0.17128(21) 0.64322(14) 0.51886(12)
C11_3 C 0.18661(26) 0.64091(16) 0.48568(15)
H8_3 H 0.180521 0.612507 0.476572
C12_3 C 0.21128(34) 0.68048(17) 0.46546(15)
H9_3 H 0.222332 0.678478 0.443170
C13_3 C 0.21980(21) 0.72327(14) 0.47799(12)
C14_3 C 0.24868(22) 0.76619(15) 0.45628(12)
C15_3 C 0.20505(23) 0.72522(15) 0.51153(14)
H10_3 H 0.211514 0.753574 0.520979
C16_3 C 0.18062(24) 0.68551(16) 0.53162(15)
H11_3 H 0.170315 0.687502 0.554216
C17_3 C 0.07825(23) 0.58081(16) 0.58278(12)
H12_3 H 0.097355 0.583801 0.601829
C18_3 C 0.03335(23) 0.57058(17) 0.58902(12)
H13_3 H 0.022563 0.566955 0.612317
N4_3 N 0.07185(17) 0.63167(12) 0.82605(10)
C24_3 C 0.0659(4) 0.6604(3) 0.8064(2)
H19_3 H 0.080952 0.691333 0.813124
C25_3 C 0.0385(3) 0.6479(2) 0.77589(19)
H20_3 H 0.036543 0.670297 0.762489
C26_3 C 0.01483(24) 0.60304(17) 0.76592(12)
C27_3 C 0.0182(3) 0.5718(2) 0.78750(19)
H21_3 H 0.001465 0.540362 0.782261
C28_3 C 0.0459(3) 0.5869(2) 0.81649(18)
H22_3 H 0.047188 0.564854 0.830847
Co2_3 Co 0.11595(3) 0.65165(2) 0.87104(2)
O6_3 O 0.05591(15) 0.61080(10) 0.89995(8)
O7_3 O 0.06873(16) 0.62127(10) 0.95885(8)
C29_3 C 0.04432(19) 0.60110(14) 0.93159(12)
Co3_3 Co 0.13097(4) 0.68168(2) 0.96229(2)
O10_3 O 0.15875(11) 0.666667 0.916667
O11_3 O 0.11413(19) 0.71206(10) 0.87448(8)
O13_3 O 0.12462(18) 0.59522(16) 0.86106(8)
N7_3 N 0.17441(24) 0.69017(12) 0.83586(10)
O8_3 O 0.73811(16) 0.54205(13) 0.02773(8)
O9_3 O 0.74075(19) 0.50299(15) 0.07469(9)
N6_3 N 0.84910(21) 0.35684(12) 0.00253(10)
H24_3 H 0.922861 0.508298 0.002517
H26_3 H 0.900271 0.422800 0.002858
C39_3 C 0.81339(26) 0.4543(2) 0.01432(15)
H29_3 H 0.819479 0.431986 0.023428
C40_3 C 0.78872(34) 0.4692(3) 0.03454(15)
H30_3 H 0.777668 0.456146 0.056830
C41_3 C 0.78020(21) 0.50347(16) 0.02201(12)
C42_3 C 0.75132(22) 0.51751(16) 0.04372(12)
Co1_3 Co 0.88405(3) 0.53570(2) 0.62896(2)
O1_3 O 0.84125(11) 0.50792(11) 0.583333
H1_3 H 0.814746 0.504446 0.588060
O2_3 O 0.94409(15) 0.55489(11) 0.60005(8)
O3_3 O 0.93127(16) 0.55254(13) 0.54115(8)
C1_3 C 0.95568(19) 0.55678(13) 0.56841(12)
N3_3 N 0.92815(17) 0.55982(12) 0.67395(10)
C19_3 C 0.9341(4) 0.5945(2) 0.6936(2)
H14_3 H 0.919048 0.610381 0.686876
C20_3 C 0.9615(3) 0.6094(2) 0.72411(19)
H15_3 H 0.963457 0.633754 0.737511
C21_3 C 0.98517(24) 0.58821(17) 0.73408(12)
C22_3 C 0.9818(3) 0.5536(2) 0.71250(19)
H16_3 H 0.998535 0.538897 0.717739
C23_3 C 0.9541(3) 0.5410(2) 0.68351(18)
H17_3 H 0.952812 0.517666 0.669153
H18_3 H 0.837779 0.481413 0.578607
N5_3 N 0.84803(16) 0.41079(11) 0.97030(10)
C30_3 C 0.99570(18) 0.56138(13) 0.93892(11)
C31_3 C 0.97923(22) 0.54968(15) 0.97284(12)
H23_3 H 0.998652 0.564907 0.991970
C32_3 C 0.93379(23) 0.51529(16) 0.97925(13)
C33_3 C 0.90523(19) 0.49181(14) 0.95149(11)
C34_3 C 0.85451(19) 0.45539(14) 0.95714(11)
H25_3 H 0.839659 0.449278 0.933696
C35_3 C 0.87160(20) 0.40120(14) 0.99372(12)
C36_3 C 0.81064(26) 0.34124(17) 0.98281(16)
H27_3 H 0.787070 0.310518 0.983378
C37_3 C 0.80832(22) 0.37216(14) 0.96268(14)
H28_3 H 0.785016 0.368252 0.947068
C38_3 C 0.82872(21) 0.47194(15) 0.98114(12)
C43_3 C 0.79495(23) 0.52017(17) 0.98847(14)
H31_3 H 0.788486 0.542060 0.979021
C44_3 C 0.81938(24) 0.50489(18) 0.96838(15)
H32_3 H 0.829685 0.517187 0.945784
C45_3 C 0.92175(23) 0.50256(16) 0.91722(12)
H33_3 H 0.902645 0.486446 0.898171
C46_3 C 0.96665(23) 0.53723(16) 0.91098(12)
H34_3 H 0.977437 0.544392 0.887683
Co4_3 Co 0.86903(4) 0.55072(3) 0.53771(2)
O12_3 O 0.88587(19) 0.59794(16) 0.62552(8)
O14_3 O 0.87538(18) 0.47061(9) 0.63894(8)
N8_3 N 0.82559(24) 0.51577(21) 0.66414(10)
H1_4 H 0.310300 0.495554 0.911940
H18_4 H 0.356367 0.518587 0.921393
H1_5 H 0.504446 0.814746 0.911940
H18_5 H 0.481413 0.837779 0.921393
H1_6 H 0.185254 0.689700 0.911940
H18_6 H 0.162221 0.643633 0.921393
H6_4 H 0.143219 0.022815 0.849955
Co6_3 Co 0.21738(3) 0.01502(2) 0.79563(2)
N3_4 N 0.10685(12) 0.70166(12) 0.00728(10)
C19_4 C 0.0722(2) 0.6729(3) 0.0269(2)
H14_4 H 0.056286 0.642000 0.020209
C20_4 C 0.0573(2) 0.6854(2) 0.05744(19)
H15_4 H 0.032913 0.663036 0.070844
C21_4 C 0.07846(17) 0.73029(17) 0.06741(12)
C22_4 C 0.1131(2) 0.7615(2) 0.04583(19)
H16_4 H 0.127770 0.792971 0.051072
C23_4 C 0.1257(2) 0.7464(2) 0.01684(18)
H17_4 H 0.149001 0.768479 0.002486
N4_4 N 0.03500(12) 0.77351(12) 0.15938(10)
C24_4 C 0.0063(3) 0.7388(2) 0.1397(2)
C25_4 C 0.0188(2) 0.7239(2) 0.10922(19)
C26_4 C 0.06363(17) 0.74512(17) 0.09925(12)
C27_4 C 0.0949(2) 0.7797(2) 0.12083(19)
H21_4 H 0.126305 0.794436 0.115594
C28_4 C 0.0798(2) 0.7923(2) 0.14982(18)
H22_4 H 0.101813 0.815667 0.164180
Co2_4 Co 0.01502(2) 0.79763(2) 0.20437(2)
O6_4 O 0.05587(10) 0.77844(11) 0.23328(8)
O7_4 O 0.04540(10) 0.78079(13) 0.29218(8)
O8_4 O 0.12462(13) 0.52939(9) 0.36106(8)
O9_4 O 0.16368(15) 0.57109(11) 0.40802(9)
N5_4 N 0.25588(11) 0.77057(11) 0.30363(10)
N6_4 N 0.30983(12) 0.82559(17) 0.33586(10)
C29_4 C 0.06557(14) 0.77655(13) 0.26492(12)
C30_4 C 0.10529(13) 0.76765(13) 0.27225(11)
C31_4 C 0.11699(15) 0.76288(16) 0.30617(12)
H23_4 H 0.101760 0.767078 0.325303
C32_4 C 0.15138(16) 0.75183(17) 0.31258(13)
H24_4 H 0.158369 0.747896 0.335850
C33_4 C 0.17486(14) 0.74675(13) 0.28482(11)
C34_4 C 0.21128(14) 0.73245(13) 0.29047(11)
H25_4 H 0.217389 0.723714 0.267029
C35_4 C 0.26547(14) 0.80373(14) 0.32705(12)
H26_4 H 0.243867 0.810804 0.336191
C36_4 C 0.32543(17) 0.8027(2) 0.31614(16)
H27_4 H 0.356149 0.809885 0.316711
C37_4 C 0.29451(14) 0.76949(17) 0.29601(14)
H28_4 H 0.298415 0.750097 0.280401
C38_4 C 0.19473(15) 0.69011(14) 0.31447(12)
C39_4 C 0.2124(2) 0.69242(16) 0.34765(15)
H29_4 H 0.234681 0.720826 0.356761
C40_4 C 0.1975(3) 0.65285(17) 0.36787(15)
H30_4 H 0.210521 0.654855 0.390163
C41_4 C 0.16320(16) 0.61006(14) 0.35534(12)
C42_4 C 0.14916(16) 0.56714(15) 0.37705(12)
C43_4 C 0.14650(17) 0.60811(15) 0.32180(14)
H31_4 H 0.124607 0.579759 0.312354
C44_4 C 0.16178(18) 0.64782(16) 0.30171(15)
H32_4 H 0.149480 0.645831 0.279117
C45_4 C 0.16411(16) 0.75252(16) 0.25055(12)
H33_4 H 0.180221 0.749532 0.231504
C46_4 C 0.12944(16) 0.76275(17) 0.24431(12)
H34_4 H 0.122275 0.766378 0.221016
Co7_2 Co 0.34835(2) 0.88405(3) 0.37104(2)
Co8_3 Co 0.11595(3) 0.46430(2) 0.37104(2)
O10_4 O -0.000000 0.82541(11) 0.250000
O13_4 O 0.07144(16) 0.86273(9) 0.19440(8)
O2_4 O 0.11178(11) 0.72253(10) 0.93338(8)
N1_4 N 0.10391(11) 0.92254(11) 0.86303(10)
N2_4 N 0.15893(17) 0.97649(12) 0.83080(10)
C1_4 C 0.10989(13) 0.73223(14) 0.90174(12)
C2_4 C 0.10099(13) 0.77195(13) 0.89441(11)
C3_4 C 0.09622(16) 0.78365(15) 0.86049(12)
H2_4 H 0.100412 0.768426 0.841363
C4_4 C 0.08517(17) 0.81804(16) 0.85408(13)
H3_4 H 0.081230 0.825035 0.830816
C5_4 C 0.08009(13) 0.84152(14) 0.88184(11)
C6_4 C 0.06579(13) 0.87794(14) 0.87619(11)
H4_4 H 0.057048 0.884055 0.899637
C7_4 C 0.13707(14) 0.93213(14) 0.83961(12)
H5_4 H 0.144138 0.910533 0.830475
C8_4 C 0.1361(2) 0.99209(17) 0.85052(16)
C9_4 C 0.10283(17) 0.96117(14) 0.87065(14)
H7_4 H 0.083431 0.965081 0.886265
C10_4 C 0.02345(14) 0.86139(15) 0.85219(12)
C11_4 C 0.02576(16) 0.8790(2) 0.81901(15)
H8_4 H 0.054160 0.901347 0.809905
C17_4 C 0.08586(16) 0.83077(16) 0.91611(12)
H12_4 H 0.082866 0.846887 0.935162
C18_4 C 0.09609(17) 0.79610(16) 0.92235(12)
H13_4 H 0.099712 0.788941 0.945650
O14_4 O 0.19606(9) 0.73811(16) 0.97227(8)
N8_4 N 0.15090(21) 0.64316(12) 0.99747(10)
H19_4 H 0.975334 0.722952 0.146457
H20_4 H 0.996370 0.699579 0.095822
Co3_4 Co 0.98498(2) 0.78262(3) 0.29563(2)
O10_5 O 1.000000 0.82541(11) 0.250000
O11_4 O 0.95460(10) 0.73540(16) 0.20782(8)
N7_4 N 0.97649(12) 0.81757(21) 0.16920(10)
O4_4 O 0.86273(9) 0.79128(13) 0.80560(8)
O5_4 O 0.90443(11) 0.83034(15) 0.75864(9)
C12_4 C 0.98619(17) 0.8641(3) 0.79879(15)
H9_4 H 0.988189 0.877187 0.776503
C13_4 C 0.94340(14) 0.82986(16) 0.81132(12)
C14_4 C 0.90048(15) 0.81582(16) 0.78961(12)
C15_4 C 0.94145(15) 0.81316(17) 0.84486(14)
H10_4 H 0.913093 0.791273 0.854312
C16_4 C 0.98116(16) 0.82844(18) 0.86495(15)
H11_4 H 0.979165 0.816146 0.887549
Co5_2 Co 0.79763(2) 0.78262(3) 0.79563(2)
N3_5 N 0.29834(12) 0.40518(17) 0.00728(10)
C19_5 C 0.3271(3) 0.3992(4) 0.0269(2)
H14_5 H 0.358000 0.414285 0.020209
C20_5 C 0.3146(2) 0.3718(3) 0.05744(19)
H15_5 H 0.336964 0.369876 0.070844
C21_5 C 0.26971(17) 0.34816(24) 0.06741(12)
C22_5 C 0.2385(2) 0.3515(3) 0.04583(19)
H16_5 H 0.207029 0.334798 0.051072
C23_5 C 0.2536(2) 0.3792(3) 0.01684(18)
H17_5 H 0.231521 0.380521 0.002486
N4_5 N 0.22649(12) 0.26148(17) 0.15938(10)
C24_5 C 0.2612(2) 0.2674(4) 0.1397(2)
H19_5 H 0.277048 0.252381 0.146457
C25_5 C 0.2761(2) 0.2948(3) 0.10922(19)
H20_5 H 0.300421 0.296790 0.095822
C26_5 C 0.25488(17) 0.31850(24) 0.09925(12)
C27_5 C 0.2203(2) 0.3151(3) 0.12083(19)
H21_5 H 0.205564 0.331868 0.115594
C28_5 C 0.2077(2) 0.2874(3) 0.14982(18)
H22_5 H 0.184333 0.286145 0.164180
Co2_5 Co 0.20237(2) 0.21738(3) 0.20437(2)
O6_5 O 0.22156(11) 0.27742(15) 0.23328(8)
O7_5 O 0.21921(13) 0.26460(16) 0.29218(8)
O8_5 O 0.47061(9) 0.59522(16) 0.36106(8)
O9_5 O 0.42891(11) 0.59258(19) 0.40802(9)
N5_5 N 0.22943(11) 0.48530(16) 0.30363(10)
N6_5 N 0.17441(17) 0.48423(21) 0.33586(10)
C29_5 C 0.22345(13) 0.28901(19) 0.26492(12)
C30_5 C 0.23235(13) 0.33763(18) 0.27225(11)
C31_5 C 0.23712(16) 0.35410(22) 0.30617(12)
H23_5 H 0.232922 0.334681 0.325303
C32_5 C 0.24817(17) 0.39954(23) 0.31258(13)
H24_5 H 0.252104 0.410472 0.335850
C33_5 C 0.25325(13) 0.42810(19) 0.28482(11)
C34_5 C 0.26755(13) 0.47882(19) 0.29047(11)
H25_5 H 0.276286 0.493674 0.267029
C35_5 C 0.19627(14) 0.46173(20) 0.32705(12)
H26_5 H 0.189196 0.433062 0.336191
C36_5 C 0.1973(2) 0.52269(26) 0.31614(16)
H27_5 H 0.190115 0.546263 0.316711
C37_5 C 0.23051(17) 0.52501(22) 0.29601(14)
H28_5 H 0.249903 0.548317 0.280401
C38_5 C 0.30989(14) 0.50461(21) 0.31447(12)
C39_5 C 0.30758(16) 0.51994(26) 0.34765(15)
H29_5 H 0.279174 0.513854 0.356761
C40_5 C 0.34715(17) 0.54461(34) 0.36787(15)
H30_5 H 0.345145 0.555665 0.390163
C41_5 C 0.38994(14) 0.55313(21) 0.35534(12)
C42_5 C 0.43286(15) 0.58201(22) 0.37705(12)
C43_5 C 0.39189(15) 0.53838(23) 0.32180(14)
H31_5 H 0.420241 0.544847 0.312354
C44_5 C 0.35218(16) 0.51395(24) 0.30171(15)
H32_5 H 0.354169 0.503648 0.279117
C45_5 C 0.24748(16) 0.41158(23) 0.25055(12)
H33_5 H 0.250468 0.430688 0.231504
C46_5 C 0.23725(17) 0.36668(23) 0.24431(12)
H34_5 H 0.233622 0.355896 0.221016
Co3_5 Co 0.21738(3) 0.20237(4) 0.29563(2)
Co8_4 Co 0.53570(2) 0.65165(4) 0.37104(2)
O10_6 O 0.17459(11) 0.17459(11) 0.250000
O11_5 O 0.26460(16) 0.21921(19) 0.20782(8)
O13_5 O 0.13727(9) 0.20872(18) 0.19440(8)
N7_5 N 0.18243(21) 0.15893(24) 0.16920(10)
O2_5 O 0.27747(10) 0.38924(15) 0.93338(8)
O4_5 O 0.20872(13) 0.07144(16) 0.80560(8)
O5_5 O 0.16966(15) 0.07408(19) 0.75864(9)
N1_5 N 0.07746(11) 0.18136(16) 0.86303(10)
N2_5 N 0.02351(12) 0.18243(21) 0.83080(10)
C1_5 C 0.26777(14) 0.37765(19) 0.90174(12)
C2_5 C 0.22805(13) 0.32903(18) 0.89441(11)
C3_5 C 0.21635(15) 0.31256(22) 0.86049(12)
H2_5 H 0.231574 0.331985 0.841363
C4_5 C 0.18196(16) 0.26712(23) 0.85408(13)
H3_5 H 0.174965 0.256194 0.830816
C5_5 C 0.15848(14) 0.23856(19) 0.88184(11)
C6_5 C 0.12206(14) 0.18784(19) 0.87619(11)
H4_5 H 0.115945 0.172992 0.899637
C7_5 C 0.06787(14) 0.20493(20) 0.83961(12)
H5_5 H 0.089467 0.233604 0.830475
C8_5 C 0.00791(17) 0.14397(26) 0.85052(16)
C9_5 C 0.03883(14) 0.14165(22) 0.87065(14)
H7_5 H 0.034919 0.118349 0.886265
C10_5 C 0.13861(15) 0.16205(21) 0.85219(12)
C11_5 C 0.1210(2) 0.14672(26) 0.81901(15)
H8_5 H 0.098653 0.152812 0.809905
C12_5 C 0.1359(3) 0.12205(34) 0.79879(15)
H9_5 H 0.122813 0.111001 0.776503
C13_5 C 0.17014(16) 0.11353(21) 0.81132(12)
C14_5 C 0.18418(16) 0.08465(22) 0.78961(12)
C15_5 C 0.18684(17) 0.12828(23) 0.84486(14)
H10_5 H 0.208727 0.121819 0.854312
C16_5 C 0.17156(18) 0.15271(24) 0.86495(15)
H11_5 H 0.183854 0.163018 0.887549
C17_5 C 0.16923(16) 0.25508(23) 0.91611(12)
H12_5 H 0.153113 0.235978 0.935162
C18_5 C 0.20390(16) 0.29998(23) 0.92235(12)
H13_5 H 0.211059 0.310770 0.945650
O14_5 O 0.26189(16) 0.45795(18) 0.97227(8)
N8_5 N 0.35684(12) 0.50774(24) 0.99747(10)
H6_5 H 0.977185 0.120403 0.849955
Co6_4 Co 0.98498(2) 0.20237(4) 0.79563(2)
H19_6 H 0.747619 0.024666 0.146457
H20_6 H 0.703210 0.003630 0.095822
Co3_6 Co 0.79763(4) 0.01502(2) 0.29563(2)
O10_7 O 0.82541(11) 0.000000 0.250000
O11_6 O 0.78079(19) 0.04540(10) 0.20782(8)
N7_6 N 0.84107(24) 0.02351(12) 0.16920(10)
O4_6 O 0.92856(16) 0.13727(9) 0.80560(8)
O5_6 O 0.92592(19) 0.09557(11) 0.75864(9)
C12_6 C 0.87795(34) 0.01381(17) 0.79879(15)
H9_6 H 0.888999 0.011811 0.776503
C13_6 C 0.88647(21) 0.05660(14) 0.81132(12)
C14_6 C 0.91535(22) 0.09952(15) 0.78961(12)
C15_6 C 0.87172(23) 0.05855(15) 0.84486(14)
H10_6 H 0.878181 0.086907 0.854312
C16_6 C 0.84729(24) 0.01884(16) 0.86495(15)
H11_6 H 0.836982 0.020835 0.887549
N3_6 N 0.59482(17) 0.89315(12) 0.00728(10)
C19_6 C 0.6008(4) 0.9278(2) 0.0269(2)
H14_6 H 0.585715 0.943714 0.020209
C20_6 C 0.6282(3) 0.9427(2) 0.05744(19)
H15_6 H 0.630124 0.967087 0.070844
C21_6 C 0.65184(24) 0.92154(17) 0.06741(12)
C22_6 C 0.6485(3) 0.8869(2) 0.04583(19)
H16_6 H 0.665202 0.872230 0.051072
C23_6 C 0.6208(3) 0.8743(2) 0.01684(18)
H17_6 H 0.619479 0.850999 0.002486
N4_6 N 0.73852(17) 0.96500(12) 0.15938(10)
C24_6 C 0.7326(4) 0.9937(3) 0.1397(2)
C25_6 C 0.7052(3) 0.9812(2) 0.10922(19)
C26_6 C 0.68150(24) 0.93637(17) 0.09925(12)
C27_6 C 0.6849(3) 0.9051(2) 0.12083(19)
H21_6 H 0.668132 0.873695 0.115594
C28_6 C 0.7126(3) 0.9202(2) 0.14982(18)
H22_6 H 0.713855 0.898187 0.164180
Co2_6 Co 0.78262(3) 0.98498(2) 0.20437(2)
O6_6 O 0.72258(15) 0.94413(10) 0.23328(8)
O7_6 O 0.73540(16) 0.95460(10) 0.29218(8)
O8_6 O 0.40478(16) 0.87538(13) 0.36106(8)
O9_6 O 0.40742(19) 0.83632(15) 0.40802(9)
N5_6 N 0.51470(16) 0.74412(11) 0.30363(10)
N6_6 N 0.51577(21) 0.69017(12) 0.33586(10)
C29_6 C 0.71099(19) 0.93443(14) 0.26492(12)
C30_6 C 0.66237(18) 0.89471(13) 0.27225(11)
C31_6 C 0.64590(22) 0.88301(15) 0.30617(12)
H23_6 H 0.665319 0.898240 0.325303
C32_6 C 0.60046(23) 0.84862(16) 0.31258(13)
H24_6 H 0.589528 0.841631 0.335850
C33_6 C 0.57190(19) 0.82514(14) 0.28482(11)
C34_6 C 0.52118(19) 0.78872(14) 0.29047(11)
H25_6 H 0.506326 0.782611 0.267029
C35_6 C 0.53827(20) 0.73453(14) 0.32705(12)
H26_6 H 0.566938 0.756133 0.336191
C36_6 C 0.47731(26) 0.67457(17) 0.31614(16)
H27_6 H 0.453737 0.643851 0.316711
C37_6 C 0.47499(22) 0.70549(14) 0.29601(14)
H28_6 H 0.451683 0.701585 0.280401
C38_6 C 0.49539(21) 0.80527(15) 0.31447(12)
C39_6 C 0.48006(26) 0.7876(2) 0.34765(15)
H29_6 H 0.486146 0.765319 0.356761
C40_6 C 0.45539(34) 0.8025(3) 0.36787(15)
H30_6 H 0.444335 0.789479 0.390163
C41_6 C 0.44687(21) 0.83680(16) 0.35534(12)
C42_6 C 0.41799(22) 0.85084(16) 0.37705(12)
C43_6 C 0.46162(23) 0.85350(17) 0.32180(14)
H31_6 H 0.455153 0.875393 0.312354
C44_6 C 0.48605(24) 0.83822(18) 0.30171(15)
H32_6 H 0.496352 0.850520 0.279117
C45_6 C 0.58842(23) 0.83589(16) 0.25055(12)
H33_6 H 0.569312 0.819779 0.231504
C46_6 C 0.63332(23) 0.87056(16) 0.24431(12)
H34_6 H 0.644104 0.877725 0.221016
O10_8 O 0.82541(11) 1.000000 0.250000
O13_6 O 0.79128(18) 0.92856(16) 0.19440(8)
O2_6 O 0.61076(15) 0.88822(11) 0.93338(8)
N1_6 N 0.81864(16) 0.89609(11) 0.86303(10)
N2_6 N 0.81757(21) 0.84107(17) 0.83080(10)
C1_6 C 0.62235(19) 0.89011(13) 0.90174(12)
C2_6 C 0.67097(18) 0.89901(13) 0.89441(11)
C3_6 C 0.68744(22) 0.90378(16) 0.86049(12)
H2_6 H 0.668015 0.899588 0.841363
C4_6 C 0.73288(23) 0.91483(17) 0.85408(13)
H3_6 H 0.743806 0.918770 0.830816
C5_6 C 0.76144(19) 0.91991(13) 0.88184(11)
C6_6 C 0.81216(19) 0.93421(13) 0.87619(11)
H4_6 H 0.827008 0.942952 0.899637
C7_6 C 0.79507(20) 0.86293(14) 0.83961(12)
H5_6 H 0.766396 0.855862 0.830475
C8_6 C 0.85603(26) 0.8639(2) 0.85052(16)
H6_6 H 0.879597 0.856781 0.849955
C9_6 C 0.85835(22) 0.89717(17) 0.87065(14)
H7_6 H 0.881651 0.916569 0.886265
C10_6 C 0.83795(21) 0.97655(14) 0.85219(12)
C11_6 C 0.85328(26) 0.97424(16) 0.81901(15)
H8_6 H 0.847188 0.945840 0.809905
C17_6 C 0.74492(23) 0.91414(16) 0.91611(12)
H12_6 H 0.764022 0.917134 0.935162
C18_6 C 0.70002(23) 0.90391(17) 0.92235(12)
H13_6 H 0.689230 0.900288 0.945650
O14_6 O 0.54205(18) 0.80394(9) 0.97227(8)
N8_6 N 0.49226(24) 0.84910(21) 0.99747(10)
H18_7 H 0.023033 0.851921 0.254727
H1_7 H 0.976967 0.828887 0.245273
H1_8 H 0.171113 0.148079 0.245273
H18_8 H 0.148079 0.171113 0.254727
H1_9 H 0.851921 0.023033 0.245273
H18_9 H 0.828887 0.976967 0.254727
H27_7 H 0.022815 0.143219 0.650045
Co7_3 Co 0.01502(2) 0.21738(3) 0.70437(2)
O2_7 O 0.77844(11) 0.05587(10) 0.26672(8)
O4_7 O 0.52939(9) 0.12462(13) 0.13894(8)
O5_7 O 0.57109(11) 0.16368(15) 0.09198(9)
N1_7 N 0.77057(11) 0.25588(11) 0.19637(10)
N2_7 N 0.82559(17) 0.30983(12) 0.16414(10)
C1_7 C 0.77655(13) 0.06557(14) 0.23508(12)
C2_7 C 0.76765(13) 0.10529(13) 0.22775(11)
C3_7 C 0.76288(16) 0.11699(15) 0.19383(12)
H2_7 H 0.767078 0.101760 0.174697
C4_7 C 0.75183(17) 0.15138(16) 0.18742(13)
H3_7 H 0.747896 0.158369 0.164150
C5_7 C 0.74675(13) 0.17486(14) 0.21518(11)
C6_7 C 0.73245(13) 0.21128(14) 0.20953(11)
H4_7 H 0.723714 0.217389 0.232971
C7_7 C 0.80373(14) 0.26547(14) 0.17295(12)
H5_7 H 0.810804 0.243867 0.163809
C8_7 C 0.8027(2) 0.32543(17) 0.18386(16)
H6_7 H 0.809885 0.356149 0.183289
C9_7 C 0.76949(17) 0.29451(14) 0.20399(14)
H7_7 H 0.750097 0.298415 0.219599
C10_7 C 0.69011(14) 0.19473(15) 0.18553(12)
C11_7 C 0.69242(16) 0.2124(2) 0.15235(15)
H8_7 H 0.720826 0.234681 0.143239
C12_7 C 0.65285(17) 0.1975(3) 0.13213(15)
H9_7 H 0.654855 0.210521 0.109837
C13_7 C 0.61006(14) 0.16320(16) 0.14466(12)
C14_7 C 0.56714(15) 0.14916(16) 0.12295(12)
C15_7 C 0.60811(15) 0.14650(17) 0.17820(14)
H10_7 H 0.579759 0.124607 0.187646
C16_7 C 0.64782(16) 0.16178(18) 0.19829(15)
H11_7 H 0.645831 0.149480 0.220883
C17_7 C 0.75252(16) 0.16411(16) 0.24945(12)
H12_7 H 0.749532 0.180221 0.268496
C18_7 C 0.76275(17) 0.12944(16) 0.25569(12)
H13_7 H 0.766378 0.122275 0.278984
N3_7 N 0.77351(12) 0.03500(12) 0.34062(10)
C19_7 C 0.7388(2) 0.0063(3) 0.3603(2)
C20_7 C 0.7239(2) 0.0188(2) 0.39078(19)
C21_7 C 0.74512(17) 0.06363(17) 0.40075(12)
C22_7 C 0.7797(2) 0.0949(2) 0.37917(19)
H16_7 H 0.794436 0.126305 0.384406
C23_7 C 0.7923(2) 0.0798(2) 0.35018(18)
H17_7 H 0.815667 0.101813 0.335820
N4_7 N 0.70166(12) 0.10685(12) 0.49272(10)
C24_7 C 0.6729(3) 0.0722(2) 0.4731(2)
H19_7 H 0.642000 0.056286 0.479791
C25_7 C 0.6854(2) 0.0573(2) 0.44256(19)
H20_7 H 0.663036 0.032913 0.429156
C26_7 C 0.73029(17) 0.07846(17) 0.43259(12)
C27_7 C 0.7615(2) 0.1131(2) 0.45417(19)
H21_7 H 0.792971 0.127770 0.448928
C28_7 C 0.7464(2) 0.1257(2) 0.48316(18)
H22_7 H 0.768479 0.149001 0.497514
O6_7 O 0.72253(10) 0.11178(11) 0.56662(8)
N5_7 N 0.92254(11) 0.10391(11) 0.63697(10)
N6_7 N 0.97649(12) 0.15893(17) 0.66920(10)
C29_7 C 0.73223(14) 0.10989(13) 0.59826(12)
C30_7 C 0.77195(13) 0.10099(13) 0.60559(11)
C31_7 C 0.78365(15) 0.09622(16) 0.63951(12)
H23_7 H 0.768426 0.100412 0.658637
C32_7 C 0.81804(16) 0.08517(17) 0.64592(13)
H24_7 H 0.825035 0.081230 0.669184
C33_7 C 0.84152(14) 0.08009(13) 0.61816(11)
C34_7 C 0.87794(14) 0.06579(13) 0.62381(11)
H25_7 H 0.884055 0.057048 0.600363
C35_7 C 0.93213(14) 0.13707(14) 0.66039(12)
H26_7 H 0.910533 0.144138 0.669525
C36_7 C 0.99209(17) 0.1361(2) 0.64948(16)
C37_7 C 0.96117(14) 0.10283(17) 0.62935(14)
H28_7 H 0.965081 0.083431 0.613735
C38_7 C 0.86139(15) 0.02345(14) 0.64781(12)
C39_7 C 0.8790(2) 0.02576(16) 0.68099(15)
H29_7 H 0.901347 0.054160 0.690095
C45_7 C 0.83077(16) 0.08586(16) 0.58389(12)
H33_7 H 0.846887 0.082866 0.564838
C46_7 C 0.79610(16) 0.09609(17) 0.57765(12)
H34_7 H 0.788941 0.099712 0.554350
Co5_3 Co 0.46430(2) 0.11595(3) 0.12896(2)
Co6_5 Co 0.88405(3) 0.34835(2) 0.12896(2)
O13_7 O 0.73811(16) 0.19606(9) 0.52773(8)
O14_7 O 0.86273(9) 0.07144(16) 0.30560(8)
N7_7 N 0.64316(12) 0.15090(21) 0.50253(10)
H14_7 H 0.722952 0.975334 0.353543
H15_7 H 0.699579 0.996370 0.404178
O8_7 O 0.79128(13) 0.86273(9) 0.69440(8)
O9_7 O 0.83034(15) 0.90443(11) 0.74136(9)
C40_7 C 0.8641(3) 0.98619(17) 0.70121(15)
H30_7 H 0.877187 0.988189 0.723497
C41_7 C 0.82986(16) 0.94340(14) 0.68868(12)
C42_7 C 0.81582(16) 0.90048(15) 0.71039(12)
C43_7 C 0.81316(17) 0.94145(15) 0.65514(14)
H31_7 H 0.791273 0.913093 0.645688
C44_7 C 0.82844(18) 0.98116(16) 0.63505(15)
H32_7 H 0.816146 0.979165 0.612451
Co8_5 Co 0.78262(3) 0.79763(2) 0.70437(2)
N8_7 N 0.81757(21) 0.97649(12) 0.33080(10)
H14_8 H 0.024666 0.747619 0.353543
H15_8 H 0.003630 0.703210 0.404178
O8_8 O 0.13727(9) 0.92856(16) 0.69440(8)
O9_8 O 0.09557(11) 0.92592(19) 0.74136(9)
C40_8 C 0.01381(17) 0.87795(34) 0.70121(15)
H30_8 H 0.011811 0.888999 0.723497
C41_8 C 0.05660(14) 0.88647(21) 0.68868(12)
C42_8 C 0.09952(15) 0.91535(22) 0.71039(12)
C43_8 C 0.05855(15) 0.87172(23) 0.65514(14)
H31_8 H 0.086907 0.878181 0.645688
C44_8 C 0.01884(16) 0.84729(24) 0.63505(15)
H32_8 H 0.020835 0.836982 0.612451
Co8_6 Co 0.20237(2) 0.98498(4) 0.70437(2)
N8_8 N 0.02351(12) 0.84107(24) 0.33080(10)
O2_8 O 0.94413(10) 0.72258(15) 0.26672(8)
O4_8 O 0.87538(13) 0.40478(16) 0.13894(8)
O5_8 O 0.83632(15) 0.40742(19) 0.09198(9)
N1_8 N 0.74412(11) 0.51470(16) 0.19637(10)
N2_8 N 0.69017(12) 0.51577(21) 0.16414(10)
C1_8 C 0.93443(14) 0.71099(19) 0.23508(12)
C2_8 C 0.89471(13) 0.66237(18) 0.22775(11)
C3_8 C 0.88301(15) 0.64590(22) 0.19383(12)
H2_8 H 0.898240 0.665319 0.174697
C4_8 C 0.84862(16) 0.60046(23) 0.18742(13)
H3_8 H 0.841631 0.589528 0.164150
C5_8 C 0.82514(14) 0.57190(19) 0.21518(11)
C6_8 C 0.78872(14) 0.52118(19) 0.20953(11)
H4_8 H 0.782611 0.506326 0.232971
C7_8 C 0.73453(14) 0.53827(20) 0.17295(12)
H5_8 H 0.756133 0.566938 0.163809
C8_8 C 0.67457(17) 0.47731(26) 0.18386(16)
H6_8 H 0.643851 0.453737 0.183289
C9_8 C 0.70549(14) 0.47499(22) 0.20399(14)
H7_8 H 0.701585 0.451683 0.219599
C10_8 C 0.80527(15) 0.49539(21) 0.18553(12)
C11_8 C 0.7876(2) 0.48006(26) 0.15235(15)
H8_8 H 0.765319 0.486146 0.143239
C12_8 C 0.8025(3) 0.45539(34) 0.13213(15)
H9_8 H 0.789479 0.444335 0.109837
C13_8 C 0.83680(16) 0.44687(21) 0.14466(12)
C14_8 C 0.85084(16) 0.41799(22) 0.12295(12)
C15_8 C 0.85350(17) 0.46162(23) 0.17820(14)
H10_8 H 0.875393 0.455153 0.187646
C16_8 C 0.83822(18) 0.48605(24) 0.19829(15)
H11_8 H 0.850520 0.496352 0.220883
C17_8 C 0.83589(16) 0.58842(23) 0.24945(12)
H12_8 H 0.819779 0.569312 0.268496
C18_8 C 0.87056(16) 0.63332(23) 0.25569(12)
H13_8 H 0.877725 0.644104 0.278984
N3_8 N 0.96500(12) 0.73852(17) 0.34062(10)
C19_8 C 0.9937(3) 0.7326(4) 0.3603(2)
C20_8 C 0.9812(2) 0.7052(3) 0.39078(19)
C21_8 C 0.93637(17) 0.68150(24) 0.40075(12)
C22_8 C 0.9051(2) 0.6849(3) 0.37917(19)
H16_8 H 0.873695 0.668132 0.384406
C23_8 C 0.9202(2) 0.7126(3) 0.35018(18)
H17_8 H 0.898187 0.713855 0.335820
N4_8 N 0.89315(12) 0.59482(17) 0.49272(10)
C24_8 C 0.9278(2) 0.6008(4) 0.4731(2)
H19_8 H 0.943714 0.585715 0.479791
C25_8 C 0.9427(2) 0.6282(3) 0.44256(19)
H20_8 H 0.967087 0.630124 0.429156
C26_8 C 0.92154(17) 0.65184(24) 0.43259(12)
C27_8 C 0.8869(2) 0.6485(3) 0.45417(19)
H21_8 H 0.872230 0.665202 0.448928
C28_8 C 0.8743(2) 0.6208(3) 0.48316(18)
H22_8 H 0.850999 0.619479 0.497514
O6_8 O 0.88822(11) 0.61076(15) 0.56662(8)
N5_8 N 0.89609(11) 0.81864(16) 0.63697(10)
N6_8 N 0.84107(17) 0.81757(21) 0.66920(10)
C29_8 C 0.89011(13) 0.62235(19) 0.59826(12)
C30_8 C 0.89901(13) 0.67097(18) 0.60559(11)
C31_8 C 0.90378(16) 0.68744(22) 0.63951(12)
H23_8 H 0.899588 0.668015 0.658637
C32_8 C 0.91483(17) 0.73288(23) 0.64592(13)
H24_8 H 0.918770 0.743806 0.669184
C33_8 C 0.91991(13) 0.76144(19) 0.61816(11)
C34_8 C 0.93421(13) 0.81216(19) 0.62381(11)
H25_8 H 0.942952 0.827008 0.600363
C35_8 C 0.86293(14) 0.79507(20) 0.66039(12)
H26_8 H 0.855862 0.766396 0.669525
C36_8 C 0.8639(2) 0.85603(26) 0.64948(16)
H27_8 H 0.856781 0.879597 0.650045
C37_8 C 0.89717(17) 0.85835(22) 0.62935(14)
H28_8 H 0.916569 0.881651 0.613735
C38_8 C 0.97655(14) 0.83795(21) 0.64781(12)
C39_8 C 0.97424(16) 0.85328(26) 0.68099(15)
H29_8 H 0.945840 0.847188 0.690095
C45_8 C 0.91414(16) 0.74492(23) 0.58389(12)
H33_8 H 0.917134 0.764022 0.564838
C46_8 C 0.90391(17) 0.70002(23) 0.57765(12)
H34_8 H 0.900288 0.689230 0.554350
Co6_6 Co 0.65165(2) 0.53570(4) 0.12896(2)
O13_8 O 0.80394(9) 0.54205(18) 0.52773(8)
O14_8 O 0.92856(16) 0.79128(18) 0.30560(8)
N7_8 N 0.84910(21) 0.49226(24) 0.50253(10)
O2_9 O 0.27742(15) 0.22156(11) 0.26672(8)
O4_9 O 0.59522(16) 0.47061(9) 0.13894(8)
O5_9 O 0.59258(19) 0.42891(11) 0.09198(9)
N1_9 N 0.48530(16) 0.22943(11) 0.19637(10)
N2_9 N 0.48423(21) 0.17441(17) 0.16414(10)
C1_9 C 0.28901(19) 0.22345(13) 0.23508(12)
C2_9 C 0.33763(18) 0.23235(13) 0.22775(11)
C3_9 C 0.35410(22) 0.23712(16) 0.19383(12)
H2_9 H 0.334681 0.232922 0.174697
C4_9 C 0.39954(23) 0.24817(17) 0.18742(13)
H3_9 H 0.410472 0.252104 0.164150
C5_9 C 0.42810(19) 0.25325(13) 0.21518(11)
C6_9 C 0.47882(19) 0.26755(13) 0.20953(11)
H4_9 H 0.493674 0.276286 0.232971
C7_9 C 0.46173(20) 0.19627(14) 0.17295(12)
H5_9 H 0.433062 0.189196 0.163809
C8_9 C 0.52269(26) 0.1973(2) 0.18386(16)
H6_9 H 0.546263 0.190115 0.183289
C9_9 C 0.52501(22) 0.23051(17) 0.20399(14)
H7_9 H 0.548317 0.249903 0.219599
C10_9 C 0.50461(21) 0.30989(14) 0.18553(12)
C11_9 C 0.51994(26) 0.30758(16) 0.15235(15)
H8_9 H 0.513854 0.279174 0.143239
C12_9 C 0.54461(34) 0.34715(17) 0.13213(15)
H9_9 H 0.555665 0.345145 0.109837
C13_9 C 0.55313(21) 0.38994(14) 0.14466(12)
C14_9 C 0.58201(22) 0.43286(15) 0.12295(12)
C15_9 C 0.53838(23) 0.39189(15) 0.17820(14)
H10_9 H 0.544847 0.420241 0.187646
C16_9 C 0.51395(24) 0.35218(16) 0.19829(15)
H11_9 H 0.503648 0.354169 0.220883
C17_9 C 0.41158(23) 0.24748(16) 0.24945(12)
H12_9 H 0.430688 0.250468 0.268496
C18_9 C 0.36668(23) 0.23725(17) 0.25569(12)
H13_9 H 0.355896 0.233622 0.278984
N3_9 N 0.26148(17) 0.22649(12) 0.34062(10)
C19_9 C 0.2674(4) 0.2612(2) 0.3603(2)
H14_9 H 0.252381 0.277048 0.353543
C20_9 C 0.2948(3) 0.2761(2) 0.39078(19)
H15_9 H 0.296790 0.300421 0.404178
C21_9 C 0.31850(24) 0.25488(17) 0.40075(12)
C22_9 C 0.3151(3) 0.2203(2) 0.37917(19)
H16_9 H 0.331868 0.205564 0.384406
C23_9 C 0.2874(3) 0.2077(2) 0.35018(18)
H17_9 H 0.286145 0.184333 0.335820
N4_9 N 0.40518(17) 0.29834(12) 0.49272(10)
C24_9 C 0.3992(4) 0.3271(3) 0.4731(2)
H19_9 H 0.414285 0.358000 0.479791
C25_9 C 0.3718(3) 0.3146(2) 0.44256(19)
H20_9 H 0.369876 0.336964 0.429156
C26_9 C 0.34816(24) 0.26971(17) 0.43259(12)
C27_9 C 0.3515(3) 0.2385(2) 0.45417(19)
H21_9 H 0.334798 0.207029 0.448928
C28_9 C 0.3792(3) 0.2536(2) 0.48316(18)
H22_9 H 0.380521 0.231521 0.497514
O6_9 O 0.38924(15) 0.27747(10) 0.56662(8)
O8_9 O 0.07144(16) 0.20872(13) 0.69440(8)
O9_9 O 0.07408(19) 0.16966(15) 0.74136(9)
N5_9 N 0.18136(16) 0.07746(11) 0.63697(10)
N6_9 N 0.18243(21) 0.02351(12) 0.66920(10)
C29_9 C 0.37765(19) 0.26777(14) 0.59826(12)
C30_9 C 0.32903(18) 0.22805(13) 0.60559(11)
C31_9 C 0.31256(22) 0.21635(15) 0.63951(12)
H23_9 H 0.331985 0.231574 0.658637
C32_9 C 0.26712(23) 0.18196(16) 0.64592(13)
H24_9 H 0.256194 0.174965 0.669184
C33_9 C 0.23856(19) 0.15848(14) 0.61816(11)
C34_9 C 0.18784(19) 0.12206(14) 0.62381(11)
H25_9 H 0.172992 0.115945 0.600363
C35_9 C 0.20493(20) 0.06787(14) 0.66039(12)
H26_9 H 0.233604 0.089467 0.669525
C36_9 C 0.14397(26) 0.00791(17) 0.64948(16)
C37_9 C 0.14165(22) 0.03883(14) 0.62935(14)
H28_9 H 0.118349 0.034919 0.613735
C38_9 C 0.16205(21) 0.13861(15) 0.64781(12)
C39_9 C 0.14672(26) 0.1210(2) 0.68099(15)
H29_9 H 0.152812 0.098653 0.690095
C40_9 C 0.12205(34) 0.1359(3) 0.70121(15)
H30_9 H 0.111001 0.122813 0.723497
C41_9 C 0.11353(21) 0.17014(16) 0.68868(12)
C42_9 C 0.08465(22) 0.18418(16) 0.71039(12)
C43_9 C 0.12828(23) 0.18684(17) 0.65514(14)
H31_9 H 0.121819 0.208727 0.645688
C44_9 C 0.15271(24) 0.17156(18) 0.63505(15)
H32_9 H 0.163018 0.183854 0.612451
C45_9 C 0.25508(23) 0.16923(16) 0.58389(12)
H33_9 H 0.235978 0.153113 0.564838
C46_9 C 0.29998(23) 0.20390(16) 0.57765(12)
H34_9 H 0.310770 0.211059 0.554350
O13_9 O 0.45795(18) 0.26189(16) 0.52773(8)
O14_9 O 0.20872(18) 0.13727(9) 0.30560(8)
N7_9 N 0.50774(24) 0.35684(12) 0.50253(10)
N8_9 N 0.15893(24) 0.18243(21) 0.33080(10)
H27_9 H 0.120403 0.977185 0.650045
O1_4 O 0.50792(11) 0.666667 0.416667
H1_10 H 0.504446 0.689700 0.411940
O2_10 O 0.55489(11) 0.61080(10) 0.39995(8)
O3_4 O 0.55254(13) 0.62127(10) 0.45885(8)
O5_10 O 0.76224(11) 0.50299(15) 0.57469(9)
N1_10 N 0.56276(11) 0.41079(11) 0.47030(10)
C1_10 C 0.55678(13) 0.60110(14) 0.43159(12)
C2_10 C 0.56568(13) 0.56138(13) 0.43892(11)
C3_10 C 0.57045(16) 0.54968(15) 0.47284(12)
H2_10 H 0.566255 0.564907 0.491970
C4_10 C 0.58150(17) 0.51529(16) 0.47925(13)
H3_10 H 0.585437 0.508298 0.502517
C5_10 C 0.58658(13) 0.49181(14) 0.45149(11)
C6_10 C 0.60088(13) 0.45539(14) 0.45714(11)
H4_10 H 0.609619 0.449278 0.433696
C7_10 C 0.52960(14) 0.40120(14) 0.49372(12)
H5_10 H 0.522529 0.422800 0.502858
C8_10 C 0.5306(2) 0.34124(17) 0.48281(16)
H6_10 H 0.523448 0.310518 0.483378
C9_10 C 0.56384(17) 0.37216(14) 0.46268(14)
H7_10 H 0.583236 0.368252 0.447068
C10_10 C 0.64322(14) 0.47194(15) 0.48114(12)
C11_10 C 0.64091(16) 0.4543(2) 0.51432(15)
H8_10 H 0.612507 0.431986 0.523428
C12_10 C 0.68048(17) 0.4692(3) 0.53454(15)
H9_10 H 0.678478 0.456146 0.556830
C13_10 C 0.72327(14) 0.50347(16) 0.52201(12)
C14_10 C 0.76619(15) 0.51751(16) 0.54372(12)
C15_10 C 0.72522(15) 0.52017(17) 0.48847(14)
H10_10 H 0.753574 0.542060 0.479021
C16_10 C 0.68551(16) 0.50489(18) 0.46838(15)
H11_10 H 0.687502 0.517187 0.445784
C17_10 C 0.58081(16) 0.50256(16) 0.41722(12)
H12_10 H 0.583801 0.486446 0.398171
C18_10 C 0.57058(17) 0.53723(16) 0.41098(12)
H13_10 H 0.566955 0.544392 0.387683
N3_10 N 0.55982(12) 0.63167(12) 0.32605(10)
C19_10 C 0.5945(2) 0.6604(3) 0.3064(2)
H14_10 H 0.610381 0.691333 0.313124
C20_10 C 0.6094(2) 0.6479(2) 0.27589(19)
H15_10 H 0.633754 0.670297 0.262489
C21_10 C 0.58821(17) 0.60304(17) 0.26592(12)
C22_10 C 0.5536(2) 0.5718(2) 0.28750(19)
H16_10 H 0.538897 0.540362 0.282261
C23_10 C 0.5410(2) 0.5869(2) 0.31649(18)
H17_10 H 0.517666 0.564854 0.330847
H18_10 H 0.481413 0.643633 0.421393
N4_10 N 0.63167(12) 0.55982(12) 0.17395(10)
C24_10 C 0.6604(3) 0.5945(2) 0.1936(2)
H19_10 H 0.691333 0.610381 0.186876
C25_10 C 0.6479(2) 0.6094(2) 0.22411(19)
H20_10 H 0.670297 0.633754 0.237511
C26_10 C 0.60304(17) 0.58821(17) 0.23408(12)
C27_10 C 0.5718(2) 0.5536(2) 0.21250(19)
H21_10 H 0.540362 0.538897 0.217739
C28_10 C 0.5869(2) 0.5410(2) 0.18351(18)
H22_10 H 0.564854 0.517666 0.169153
O6_10 O 0.61080(10) 0.55489(11) 0.10005(8)
O7_7 O 0.62127(10) 0.55254(13) 0.04115(8)
N5_10 N 0.41079(11) 0.56276(11) 0.02970(10)
C29_10 C 0.60110(14) 0.55678(13) 0.06841(12)
C30_10 C 0.56138(13) 0.56568(13) 0.06108(11)
C31_10 C 0.54968(15) 0.57045(16) 0.02716(12)
H23_10 H 0.564907 0.566255 0.008030
C32_10 C 0.51529(16) 0.58150(17) 0.02075(13)
C33_10 C 0.49181(14) 0.58658(13) 0.04851(11)
C34_10 C 0.45539(14) 0.60088(13) 0.04286(11)
H25_10 H 0.449278 0.609619 0.066304
C35_10 C 0.40120(14) 0.52960(14) 0.00628(12)
C36_10 C 0.34124(17) 0.5306(2) 0.01719(16)
H27_10 H 0.310518 0.523448 0.016622
C37_10 C 0.37216(14) 0.56384(17) 0.03732(14)
H28_10 H 0.368252 0.583236 0.052932
C38_10 C 0.47194(15) 0.64322(14) 0.01886(12)
C43_10 C 0.52017(17) 0.72522(15) 0.01153(14)
H31_10 H 0.542060 0.753574 0.020979
C44_10 C 0.50489(18) 0.68551(16) 0.03162(15)
H32_10 H 0.517187 0.687502 0.054216
C45_10 C 0.50256(16) 0.58081(16) 0.08278(12)
H33_10 H 0.486446 0.583801 0.101829
C46_10 C 0.53723(16) 0.57058(17) 0.08902(12)
H34_10 H 0.544392 0.566955 0.112317
O10_9 O 0.666667 0.50792(11) 0.083333
O11_7 O 0.71206(10) 0.59794(16) 0.12552(8)
O12_4 O 0.59794(16) 0.71206(10) 0.37448(8)
O9_10 O 0.50299(15) 0.76224(11) 0.92531(9)
H24_10 H 0.508298 0.585437 0.997483
H26_10 H 0.422800 0.522529 0.997142
C39_10 C 0.4543(2) 0.64091(16) 0.98568(15)
H29_10 H 0.431986 0.612507 0.976572
C40_10 C 0.4692(3) 0.68048(17) 0.96546(15)
H30_10 H 0.456146 0.678478 0.943170
C41_10 C 0.50347(16) 0.72327(14) 0.97799(12)
C42_10 C 0.51751(16) 0.76619(15) 0.95628(12)
O5_11 O 0.49701(15) 0.25925(19) 0.57469(9)
N1_11 N 0.58921(11) 0.15197(16) 0.47030(10)
C2_11 C 0.43862(13) 0.00430(18) 0.43892(11)
C3_11 C 0.45032(15) 0.02077(22) 0.47284(12)
H2_11 H 0.435093 0.001348 0.491970
C4_11 C 0.48471(16) 0.06621(23) 0.47925(13)
H3_11 H 0.491702 0.077139 0.502517
C5_11 C 0.50819(14) 0.09477(19) 0.45149(11)
C6_11 C 0.54461(14) 0.14549(19) 0.45714(11)
H4_11 H 0.550722 0.160341 0.433696
C7_11 C 0.59880(14) 0.12840(20) 0.49372(12)
H5_11 H 0.577200 0.099729 0.502858
C8_11 C 0.65876(17) 0.18936(26) 0.48281(16)
H6_11 H 0.689482 0.212930 0.483378
C9_11 C 0.62784(14) 0.19168(22) 0.46268(14)
H7_11 H 0.631748 0.214984 0.447068
C10_11 C 0.52806(15) 0.17128(21) 0.48114(12)
C11_11 C 0.5457(2) 0.18661(26) 0.51432(15)
H8_11 H 0.568014 0.180521 0.523428
C12_11 C 0.5308(3) 0.21128(34) 0.53454(15)
H9_11 H 0.543854 0.222332 0.556830
C13_11 C 0.49653(16) 0.21980(21) 0.52201(12)
C14_11 C 0.48249(16) 0.24868(22) 0.54372(12)
C15_11 C 0.47983(17) 0.20505(23) 0.48847(14)
H10_11 H 0.457940 0.211514 0.479021
C16_11 C 0.49511(18) 0.18062(24) 0.46838(15)
H11_11 H 0.482813 0.170315 0.445784
C17_11 C 0.49744(16) 0.07825(23) 0.41722(12)
H12_11 H 0.513554 0.097355 0.398171
C18_11 C 0.46277(16) 0.03335(23) 0.41098(12)
H13_11 H 0.455608 0.022563 0.387683
N4_11 N 0.44018(12) 0.07185(17) 0.17395(10)
C24_11 C 0.4055(2) 0.0659(4) 0.1936(2)
H19_11 H 0.389619 0.080952 0.186876
C25_11 C 0.3906(2) 0.0385(3) 0.22411(19)
H20_11 H 0.366246 0.036543 0.237511
C26_11 C 0.41179(17) 0.01483(24) 0.23408(12)
C27_11 C 0.4464(2) 0.0182(3) 0.21250(19)
H21_11 H 0.461103 0.001465 0.217739
C28_11 C 0.4590(2) 0.0459(3) 0.18351(18)
H22_11 H 0.482334 0.047188 0.169153
O6_11 O 0.44511(11) 0.05591(15) 0.10005(8)
O7_8 O 0.44746(13) 0.06873(16) 0.04115(8)
C29_11 C 0.44322(13) 0.04432(19) 0.06841(12)
O10_10 O 0.49208(11) 0.15875(11) 0.083333
O11_8 O 0.40206(16) 0.11413(19) 0.12552(8)
O1_5 O 0.333333 0.84125(11) 0.416667
H1_11 H 0.310300 0.814746 0.411940
O2_11 O 0.38920(10) 0.94409(15) 0.39995(8)
O3_5 O 0.37873(10) 0.93127(16) 0.45885(8)
C1_11 C 0.39890(14) 0.95568(19) 0.43159(12)
N3_11 N 0.36833(12) 0.92815(17) 0.32605(10)
C19_11 C 0.3396(3) 0.9341(4) 0.3064(2)
H14_11 H 0.308667 0.919048 0.313124
C20_11 C 0.3521(2) 0.9615(3) 0.27589(19)
H15_11 H 0.329703 0.963457 0.262489
C21_11 C 0.39696(17) 0.98517(24) 0.26592(12)
C22_11 C 0.4282(2) 0.9818(3) 0.28750(19)
H16_11 H 0.459638 0.998535 0.282261
C23_11 C 0.4131(2) 0.9541(3) 0.31649(18)
H17_11 H 0.435146 0.952812 0.330847
H18_11 H 0.356367 0.837779 0.421393
N5_11 N 0.43724(11) 0.84803(16) 0.02970(10)
C30_11 C 0.43432(13) 0.99570(18) 0.06108(11)
C31_11 C 0.42955(16) 0.97923(22) 0.02716(12)
H23_11 H 0.433745 0.998652 0.008030
C32_11 C 0.41850(17) 0.93379(23) 0.02075(13)
C33_11 C 0.41342(13) 0.90523(19) 0.04851(11)
C34_11 C 0.39912(13) 0.85451(19) 0.04286(11)
H25_11 H 0.390381 0.839659 0.066304
C35_11 C 0.47040(14) 0.87160(20) 0.00628(12)
C36_11 C 0.4694(2) 0.81064(26) 0.01719(16)
H27_11 H 0.476552 0.787070 0.016622
C37_11 C 0.43616(17) 0.80832(22) 0.03732(14)
H28_11 H 0.416764 0.785016 0.052932
C38_11 C 0.35678(14) 0.82872(21) 0.01886(12)
C43_11 C 0.27478(15) 0.79495(23) 0.01153(14)
H31_11 H 0.246426 0.788486 0.020979
C44_11 C 0.31449(16) 0.81938(24) 0.03162(15)
H32_11 H 0.312498 0.829685 0.054216
C45_11 C 0.41919(16) 0.92175(23) 0.08278(12)
H33_11 H 0.416199 0.902645 0.101829
C46_11 C 0.42942(17) 0.96665(23) 0.08902(12)
H34_11 H 0.433045 0.977437 0.112317
O12_5 O 0.28794(10) 0.88587(19) 0.37448(8)
O9_11 O 0.23776(11) 0.74075(19) 0.92531(9)
H24_11 H 0.414563 0.922861 0.997483
H26_11 H 0.477471 0.900271 0.997142
C39_11 C 0.35909(16) 0.81339(26) 0.98568(15)
H29_11 H 0.387493 0.819479 0.976572
C40_11 C 0.31952(17) 0.78872(34) 0.96546(15)
H30_11 H 0.321522 0.777668 0.943170
C41_11 C 0.27673(14) 0.78020(21) 0.97799(12)
C42_11 C 0.23381(15) 0.75132(22) 0.95628(12)
O1_6 O 0.15875(11) 0.49208(11) 0.416667
H1_12 H 0.185254 0.495554 0.411940
O2_12 O 0.05591(15) 0.44511(11) 0.39995(8)
O3_6 O 0.06873(16) 0.44746(13) 0.45885(8)
C1_12 C 0.04432(19) 0.44322(13) 0.43159(12)
N3_12 N 0.07185(17) 0.44018(12) 0.32605(10)
C19_12 C 0.0659(4) 0.4055(2) 0.3064(2)
H14_12 H 0.080952 0.389619 0.313124
C20_12 C 0.0385(3) 0.3906(2) 0.27589(19)
H15_12 H 0.036543 0.366246 0.262489
C21_12 C 0.01483(24) 0.41179(17) 0.26592(12)
C22_12 C 0.0182(3) 0.4464(2) 0.28750(19)
H16_12 H 0.001465 0.461103 0.282261
C23_12 C 0.0459(3) 0.4590(2) 0.31649(18)
H17_12 H 0.047188 0.482334 0.330847
H18_12 H 0.162221 0.518587 0.421393
N5_12 N 0.15197(16) 0.58921(11) 0.02970(10)
C30_12 C 0.00430(18) 0.43862(13) 0.06108(11)
C31_12 C 0.02077(22) 0.45032(15) 0.02716(12)
H23_12 H 0.001348 0.435093 0.008030
C32_12 C 0.06621(23) 0.48471(16) 0.02075(13)
C33_12 C 0.09477(19) 0.50819(14) 0.04851(11)
C34_12 C 0.14549(19) 0.54461(14) 0.04286(11)
H25_12 H 0.160341 0.550722 0.066304
C35_12 C 0.12840(20) 0.59880(14) 0.00628(12)
C36_12 C 0.18936(26) 0.65876(17) 0.01719(16)
H27_12 H 0.212930 0.689482 0.016622
C37_12 C 0.19168(22) 0.62784(14) 0.03732(14)
H28_12 H 0.214984 0.631748 0.052932
C38_12 C 0.17128(21) 0.52806(15) 0.01886(12)
C43_12 C 0.20505(23) 0.47983(17) 0.01153(14)
H31_12 H 0.211514 0.457940 0.020979
C44_12 C 0.18062(24) 0.49511(18) 0.03162(15)
H32_12 H 0.170315 0.482813 0.054216
C45_12 C 0.07825(23) 0.49744(16) 0.08278(12)
H33_12 H 0.097355 0.513554 0.101829
C46_12 C 0.03335(23) 0.46277(16) 0.08902(12)
H34_12 H 0.022563 0.455608 0.112317
O12_6 O 0.11413(19) 0.40206(16) 0.37448(8)
O9_12 O 0.25925(19) 0.49701(15) 0.92531(9)
H24_12 H 0.077139 0.491702 0.997483
H26_12 H 0.099729 0.577200 0.997142
C39_12 C 0.18661(26) 0.5457(2) 0.98568(15)
H29_12 H 0.180521 0.568014 0.976572
C40_12 C 0.21128(34) 0.5308(3) 0.96546(15)
H30_12 H 0.222332 0.543854 0.943170
C41_12 C 0.21980(21) 0.49653(16) 0.97799(12)
C42_12 C 0.24868(22) 0.48249(16) 0.95628(12)
O5_12 O 0.74075(19) 0.23776(11) 0.57469(9)
N1_12 N 0.84803(16) 0.43724(11) 0.47030(10)
C2_12 C 0.99570(18) 0.43432(13) 0.43892(11)
C3_12 C 0.97923(22) 0.42955(16) 0.47284(12)
H2_12 H 0.998652 0.433745 0.491970
C4_12 C 0.93379(23) 0.41850(17) 0.47925(13)
H3_12 H 0.922861 0.414563 0.502517
C5_12 C 0.90523(19) 0.41342(13) 0.45149(11)
C6_12 C 0.85451(19) 0.39912(13) 0.45714(11)
H4_12 H 0.839659 0.390381 0.433696
C7_12 C 0.87160(20) 0.47040(14) 0.49372(12)
H5_12 H 0.900271 0.477471 0.502858
C8_12 C 0.81064(26) 0.4694(2) 0.48281(16)
H6_12 H 0.787070 0.476552 0.483378
C9_12 C 0.80832(22) 0.43616(17) 0.46268(14)
H7_12 H 0.785016 0.416764 0.447068
C10_12 C 0.82872(21) 0.35678(14) 0.48114(12)
C11_12 C 0.81339(26) 0.35909(16) 0.51432(15)
H8_12 H 0.819479 0.387493 0.523428
C12_12 C 0.78872(34) 0.31952(17) 0.53454(15)
H9_12 H 0.777668 0.321522 0.556830
C13_12 C 0.78020(21) 0.27673(14) 0.52201(12)
C14_12 C 0.75132(22) 0.23381(15) 0.54372(12)
C15_12 C 0.79495(23) 0.27478(15) 0.48847(14)
H10_12 H 0.788486 0.246426 0.479021
C16_12 C 0.81938(24) 0.31449(16) 0.46838(15)
H11_12 H 0.829685 0.312498 0.445784
C17_12 C 0.92175(23) 0.41919(16) 0.41722(12)
H12_12 H 0.902645 0.416199 0.398171
C18_12 C 0.96665(23) 0.42942(17) 0.41098(12)
H13_12 H 0.977437 0.433045 0.387683
N4_12 N 0.92815(17) 0.36833(12) 0.17395(10)
C24_12 C 0.9341(4) 0.3396(3) 0.1936(2)
H19_12 H 0.919048 0.308667 0.186876
C25_12 C 0.9615(3) 0.3521(2) 0.22411(19)
H20_12 H 0.963457 0.329703 0.237511
C26_12 C 0.98517(24) 0.39696(17) 0.23408(12)
C27_12 C 0.9818(3) 0.4282(2) 0.21250(19)
H21_12 H 0.998535 0.459638 0.217739
C28_12 C 0.9541(3) 0.4131(2) 0.18351(18)
H22_12 H 0.952812 0.435146 0.169153
O6_12 O 0.94409(15) 0.38920(10) 0.10005(8)
O7_9 O 0.93127(16) 0.37873(10) 0.04115(8)
C29_12 C 0.95568(19) 0.39890(14) 0.06841(12)
O10_11 O 0.84125(11) 0.333333 0.083333
O11_9 O 0.88587(19) 0.28794(10) 0.12552(8)
H1_13 H 0.689700 0.504446 0.088060
H18_13 H 0.643633 0.481413 0.078607
H1_14 H 0.495554 0.185254 0.088060
H18_14 H 0.518587 0.162221 0.078607
H1_15 H 0.814746 0.310300 0.088060
H18_15 H 0.837779 0.356367 0.078607
O5_13 O 0.09557(11) 0.16966(15) 0.24136(9)
C12_13 C 0.01381(17) 0.1359(3) 0.20121(15)
H9_13 H 0.011811 0.122813 0.223497
C13_13 C 0.05660(14) 0.17014(16) 0.18868(12)
C14_13 C 0.09952(15) 0.18418(16) 0.21039(12)
C15_13 C 0.05855(15) 0.18684(17) 0.15514(14)
H10_13 H 0.086907 0.208727 0.145688
C16_13 C 0.01884(16) 0.17156(18) 0.13505(15)
H11_13 H 0.020835 0.183854 0.112451
H19_13 H 0.024666 0.277048 0.853543
H20_13 H 0.003630 0.300421 0.904178
O10_12 O 0.000000 0.17459(11) 0.750000
O11_10 O 0.04540(10) 0.26460(16) 0.79218(8)
O2_13 O 0.88822(11) 0.27747(10) 0.06662(8)
N1_13 N 0.89609(11) 0.07746(11) 0.13697(10)
C1_13 C 0.89011(13) 0.26777(14) 0.09826(12)
C2_13 C 0.89901(13) 0.22805(13) 0.10559(11)
C3_13 C 0.90378(16) 0.21635(15) 0.13951(12)
H2_13 H 0.899588 0.231574 0.158637
C4_13 C 0.91483(17) 0.18196(16) 0.14592(13)
H3_13 H 0.918770 0.174965 0.169184
C5_13 C 0.91991(13) 0.15848(14) 0.11816(11)
C6_13 C 0.93421(13) 0.12206(14) 0.12381(11)
H4_13 H 0.942952 0.115945 0.100363
C7_13 C 0.86293(14) 0.06787(14) 0.16039(12)
H5_13 H 0.855862 0.089467 0.169525
C8_13 C 0.8639(2) 0.00791(17) 0.14948(16)
C9_13 C 0.89717(17) 0.03883(14) 0.12935(14)
H7_13 H 0.916569 0.034919 0.113735
C10_13 C 0.97655(14) 0.13861(15) 0.14781(12)
C11_13 C 0.97424(16) 0.1210(2) 0.18099(15)
H8_13 H 0.945840 0.098653 0.190095
C17_13 C 0.91414(16) 0.16923(16) 0.08389(12)
H12_13 H 0.917134 0.153113 0.064838
C18_13 C 0.90391(17) 0.20390(16) 0.07765(12)
H13_13 H 0.900288 0.211059 0.054350
N3_13 N 0.89315(12) 0.29834(12) 0.99272(10)
C19_13 C 0.9278(2) 0.3271(3) 0.9731(2)
H14_13 H 0.943714 0.358000 0.979791
C20_13 C 0.9427(2) 0.3146(2) 0.94256(19)
H15_13 H 0.967087 0.336964 0.929156
C21_13 C 0.92154(17) 0.26971(17) 0.93259(12)
C22_13 C 0.8869(2) 0.2385(2) 0.95417(19)
H16_13 H 0.872230 0.207029 0.948928
C23_13 C 0.8743(2) 0.2536(2) 0.98316(18)
H17_13 H 0.850999 0.231521 0.997514
N4_13 N 0.96500(12) 0.22649(12) 0.84062(10)
C24_13 C 0.9937(3) 0.2612(2) 0.8603(2)
C25_13 C 0.9812(2) 0.2761(2) 0.89078(19)
C26_13 C 0.93637(17) 0.25488(17) 0.90075(12)
C27_13 C 0.9051(2) 0.2203(2) 0.87917(19)
H21_13 H 0.873695 0.205564 0.884406
C28_13 C 0.9202(2) 0.2077(2) 0.85018(18)
H22_13 H 0.898187 0.184333 0.835820
O6_13 O 0.94413(10) 0.22156(11) 0.76672(8)
O7_10 O 0.95460(10) 0.21921(13) 0.70782(8)
O9_13 O 0.83632(15) 0.42891(11) 0.59198(9)
N5_13 N 0.74412(11) 0.22943(11) 0.69637(10)
C29_13 C 0.93443(14) 0.22345(13) 0.73508(12)
C30_13 C 0.89471(13) 0.23235(13) 0.72775(11)
C31_13 C 0.88301(15) 0.23712(16) 0.69383(12)
H23_13 H 0.898240 0.232922 0.674697
C32_13 C 0.84862(16) 0.24817(17) 0.68742(13)
H24_13 H 0.841631 0.252104 0.664150
C33_13 C 0.82514(14) 0.25325(13) 0.71518(11)
C34_13 C 0.78872(14) 0.26755(13) 0.70953(11)
H25_13 H 0.782611 0.276286 0.732971
C35_13 C 0.73453(14) 0.19627(14) 0.67295(12)
H26_13 H 0.756133 0.189196 0.663809
C36_13 C 0.67457(17) 0.1973(2) 0.68386(16)
H27_13 H 0.643851 0.190115 0.683289
C37_13 C 0.70549(14) 0.23051(17) 0.70399(14)
H28_13 H 0.701585 0.249903 0.719599
C38_13 C 0.80527(15) 0.30989(14) 0.68553(12)
C39_13 C 0.7876(2) 0.30758(16) 0.65235(15)
H29_13 H 0.765319 0.279174 0.643239
C40_13 C 0.8025(3) 0.34715(17) 0.63213(15)
H30_13 H 0.789479 0.345145 0.609837
C41_13 C 0.83680(16) 0.38994(14) 0.64466(12)
C42_13 C 0.85084(16) 0.43286(15) 0.62295(12)
C43_13 C 0.85350(17) 0.39189(15) 0.67820(14)
H31_13 H 0.875393 0.420241 0.687646
C44_13 C 0.83822(18) 0.35218(16) 0.69829(15)
H32_13 H 0.850520 0.354169 0.720883
C45_13 C 0.83589(16) 0.24748(16) 0.74945(12)
H33_13 H 0.819779 0.250468 0.768496
C46_13 C 0.87056(16) 0.23725(17) 0.75569(12)
H34_13 H 0.877725 0.233622 0.778984
O10_13 O 1.000000 0.17459(11) 0.750000
H6_13 H 0.856781 0.977185 0.150045
H6_14 H 0.022815 0.879597 0.150045
O2_14 O 0.72253(10) 0.61076(15) 0.06662(8)
O5_14 O 0.83034(15) 0.92592(19) 0.24136(9)
N1_14 N 0.92254(11) 0.81864(16) 0.13697(10)
C1_14 C 0.73223(14) 0.62235(19) 0.09826(12)
C2_14 C 0.77195(13) 0.67097(18) 0.10559(11)
C3_14 C 0.78365(15) 0.68744(22) 0.13951(12)
H2_14 H 0.768426 0.668015 0.158637
C4_14 C 0.81804(16) 0.73288(23) 0.14592(13)
H3_14 H 0.825035 0.743806 0.169184
C5_14 C 0.84152(14) 0.76144(19) 0.11816(11)
C6_14 C 0.87794(14) 0.81216(19) 0.12381(11)
H4_14 H 0.884055 0.827008 0.100363
C7_14 C 0.93213(14) 0.79507(20) 0.16039(12)
H5_14 H 0.910533 0.766396 0.169525
C8_14 C 0.99209(17) 0.85603(26) 0.14948(16)
C9_14 C 0.96117(14) 0.85835(22) 0.12935(14)
H7_14 H 0.965081 0.881651 0.113735
C10_14 C 0.86139(15) 0.83795(21) 0.14781(12)
C11_14 C 0.8790(2) 0.85328(26) 0.18099(15)
H8_14 H 0.901347 0.847188 0.190095
C12_14 C 0.8641(3) 0.87795(34) 0.20121(15)
H9_14 H 0.877187 0.888999 0.223497
C13_14 C 0.82986(16) 0.88647(21) 0.18868(12)
C14_14 C 0.81582(16) 0.91535(22) 0.21039(12)
C15_14 C 0.81316(17) 0.87172(23) 0.15514(14)
H10_14 H 0.791273 0.878181 0.145688
C16_14 C 0.82844(18) 0.84729(24) 0.13505(15)
H11_14 H 0.816146 0.836982 0.112451
C17_14 C 0.83077(16) 0.74492(23) 0.08389(12)
H12_14 H 0.846887 0.764022 0.064838
C18_14 C 0.79610(16) 0.70002(23) 0.07765(12)
H13_14 H 0.788941 0.689230 0.054350
N3_14 N 0.70166(12) 0.59482(17) 0.99272(10)
C19_14 C 0.6729(3) 0.6008(4) 0.9731(2)
H14_14 H 0.642000 0.585715 0.979791
C20_14 C 0.6854(2) 0.6282(3) 0.94256(19)
H15_14 H 0.663036 0.630124 0.929156
C21_14 C 0.73029(17) 0.65184(24) 0.93259(12)
C22_14 C 0.7615(2) 0.6485(3) 0.95417(19)
H16_14 H 0.792971 0.665202 0.948928
C23_14 C 0.7464(2) 0.6208(3) 0.98316(18)
H17_14 H 0.768479 0.619479 0.997514
N4_14 N 0.77351(12) 0.73852(17) 0.84062(10)
C24_14 C 0.7388(2) 0.7326(4) 0.8603(2)
H19_14 H 0.722952 0.747619 0.853543
C25_14 C 0.7239(2) 0.7052(3) 0.89078(19)
H20_14 H 0.699579 0.703210 0.904178
C26_14 C 0.74512(17) 0.68150(24) 0.90075(12)
C27_14 C 0.7797(2) 0.6849(3) 0.87917(19)
H21_14 H 0.794436 0.668132 0.884406
C28_14 C 0.7923(2) 0.7126(3) 0.85018(18)
H22_14 H 0.815667 0.713855 0.835820
O6_14 O 0.77844(11) 0.72258(15) 0.76672(8)
O7_11 O 0.78079(13) 0.73540(16) 0.70782(8)
O9_14 O 0.57109(11) 0.40742(19) 0.59198(9)
N5_14 N 0.77057(11) 0.51470(16) 0.69637(10)
C29_14 C 0.77655(13) 0.71099(19) 0.73508(12)
C30_14 C 0.76765(13) 0.66237(18) 0.72775(11)
C31_14 C 0.76288(16) 0.64590(22) 0.69383(12)
H23_14 H 0.767078 0.665319 0.674697
C32_14 C 0.75183(17) 0.60046(23) 0.68742(13)
H24_14 H 0.747896 0.589528 0.664150
C33_14 C 0.74675(13) 0.57190(19) 0.71518(11)
C34_14 C 0.73245(13) 0.52118(19) 0.70953(11)
H25_14 H 0.723714 0.506326 0.732971
C35_14 C 0.80373(14) 0.53827(20) 0.67295(12)
H26_14 H 0.810804 0.566938 0.663809
C36_14 C 0.8027(2) 0.47731(26) 0.68386(16)
H27_14 H 0.809885 0.453737 0.683289
C37_14 C 0.76949(17) 0.47499(22) 0.70399(14)
H28_14 H 0.750097 0.451683 0.719599
C38_14 C 0.69011(14) 0.49539(21) 0.68553(12)
C39_14 C 0.69242(16) 0.48006(26) 0.65235(15)
H29_14 H 0.720826 0.486146 0.643239
C40_14 C 0.65285(17) 0.45539(34) 0.63213(15)
H30_14 H 0.654855 0.444335 0.609837
C41_14 C 0.61006(14) 0.44687(21) 0.64466(12)
C42_14 C 0.56714(15) 0.41799(22) 0.62295(12)
C43_14 C 0.60811(15) 0.46162(23) 0.67820(14)
H31_14 H 0.579759 0.455153 0.687646
C44_14 C 0.64782(16) 0.48605(24) 0.69829(15)
H32_14 H 0.645831 0.496352 0.720883
C45_14 C 0.75252(16) 0.58842(23) 0.74945(12)
H33_14 H 0.749532 0.569312 0.768496
C46_14 C 0.76275(17) 0.63332(23) 0.75569(12)
H34_14 H 0.766378 0.644104 0.778984
O10_14 O 0.82541(11) 0.82541(11) 0.750000
O11_11 O 0.73540(16) 0.78079(19) 0.79218(8)
O2_15 O 0.38924(15) 0.11178(11) 0.06662(8)
N1_15 N 0.18136(16) 0.10391(11) 0.13697(10)
C1_15 C 0.37765(19) 0.10989(13) 0.09826(12)
C2_15 C 0.32903(18) 0.10099(13) 0.10559(11)
C3_15 C 0.31256(22) 0.09622(16) 0.13951(12)
H2_15 H 0.331985 0.100412 0.158637
C4_15 C 0.26712(23) 0.08517(17) 0.14592(13)
H3_15 H 0.256194 0.081230 0.169184
C5_15 C 0.23856(19) 0.08009(13) 0.11816(11)
C6_15 C 0.18784(19) 0.06579(13) 0.12381(11)
H4_15 H 0.172992 0.057048 0.100363
C7_15 C 0.20493(20) 0.13707(14) 0.16039(12)
H5_15 H 0.233604 0.144138 0.169525
C8_15 C 0.14397(26) 0.1361(2) 0.14948(16)
H6_15 H 0.120403 0.143219 0.150045
C9_15 C 0.14165(22) 0.10283(17) 0.12935(14)
H7_15 H 0.118349 0.083431 0.113735
C10_15 C 0.16205(21) 0.02345(14) 0.14781(12)
C11_15 C 0.14672(26) 0.02576(16) 0.18099(15)
H8_15 H 0.152812 0.054160 0.190095
C17_15 C 0.25508(23) 0.08586(16) 0.08389(12)
H12_15 H 0.235978 0.082866 0.064838
C18_15 C 0.29998(23) 0.09609(17) 0.07765(12)
H13_15 H 0.310770 0.099712 0.054350
N3_15 N 0.40518(17) 0.10685(12) 0.99272(10)
C19_15 C 0.3992(4) 0.0722(2) 0.9731(2)
H14_15 H 0.414285 0.056286 0.979791
C20_15 C 0.3718(3) 0.0573(2) 0.94256(19)
H15_15 H 0.369876 0.032913 0.929156
C21_15 C 0.34816(24) 0.07846(17) 0.93259(12)
C22_15 C 0.3515(3) 0.1131(2) 0.95417(19)
H16_15 H 0.334798 0.127770 0.948928
C23_15 C 0.3792(3) 0.1257(2) 0.98316(18)
H17_15 H 0.380521 0.149001 0.997514
N4_15 N 0.26148(17) 0.03500(12) 0.84062(10)
C24_15 C 0.2674(4) 0.0063(3) 0.8603(2)
C25_15 C 0.2948(3) 0.0188(2) 0.89078(19)
C26_15 C 0.31850(24) 0.06363(17) 0.90075(12)
C27_15 C 0.3151(3) 0.0949(2) 0.87917(19)
H21_15 H 0.331868 0.126305 0.884406
C28_15 C 0.2874(3) 0.0798(2) 0.85018(18)
H22_15 H 0.286145 0.101813 0.835820
O6_15 O 0.27742(15) 0.05587(10) 0.76672(8)
O7_12 O 0.26460(16) 0.04540(10) 0.70782(8)
O9_15 O 0.59258(19) 0.16368(15) 0.59198(9)
N5_15 N 0.48530(16) 0.25588(11) 0.69637(10)
C29_15 C 0.28901(19) 0.06557(14) 0.73508(12)
C30_15 C 0.33763(18) 0.10529(13) 0.72775(11)
C31_15 C 0.35410(22) 0.11699(15) 0.69383(12)
H23_15 H 0.334681 0.101760 0.674697
C32_15 C 0.39954(23) 0.15138(16) 0.68742(13)
H24_15 H 0.410472 0.158369 0.664150
C33_15 C 0.42810(19) 0.17486(14) 0.71518(11)
C34_15 C 0.47882(19) 0.21128(14) 0.70953(11)
H25_15 H 0.493674 0.217389 0.732971
C35_15 C 0.46173(20) 0.26547(14) 0.67295(12)
H26_15 H 0.433062 0.243867 0.663809
C36_15 C 0.52269(26) 0.32543(17) 0.68386(16)
H27_15 H 0.546263 0.356149 0.683289
C37_15 C 0.52501(22) 0.29451(14) 0.70399(14)
H28_15 H 0.548317 0.298415 0.719599
C38_15 C 0.50461(21) 0.19473(15) 0.68553(12)
C39_15 C 0.51994(26) 0.2124(2) 0.65235(15)
H29_15 H 0.513854 0.234681 0.643239
C40_15 C 0.54461(34) 0.1975(3) 0.63213(15)
H30_15 H 0.555665 0.210521 0.609837
C41_15 C 0.55313(21) 0.16320(16) 0.64466(12)
C42_15 C 0.58201(22) 0.14916(16) 0.62295(12)
C43_15 C 0.53838(23) 0.14650(17) 0.67820(14)
H31_15 H 0.544847 0.124607 0.687646
C44_15 C 0.51395(24) 0.16178(18) 0.69829(15)
H32_15 H 0.503648 0.149480 0.720883
C45_15 C 0.41158(23) 0.16411(16) 0.74945(12)
H33_15 H 0.430688 0.180221 0.768496
C46_15 C 0.36668(23) 0.12944(16) 0.75569(12)
H34_15 H 0.355896 0.122275 0.778984
O10_15 O 0.17459(11) -0.000000 0.750000
O5_15 O 0.07408(19) 0.90443(11) 0.24136(9)
C12_15 C 0.12205(34) 0.98619(17) 0.20121(15)
H9_15 H 0.111001 0.988189 0.223497
C13_15 C 0.11353(21) 0.94340(14) 0.18868(12)
C14_15 C 0.08465(22) 0.90048(15) 0.21039(12)
C15_15 C 0.12828(23) 0.94145(15) 0.15514(14)
H10_15 H 0.121819 0.913093 0.145688
C16_15 C 0.15271(24) 0.98116(16) 0.13505(15)
H11_15 H 0.163018 0.979165 0.112451
H19_15 H 0.252381 0.975334 0.853543
H20_15 H 0.296790 0.996370 0.904178
O10_16 O 0.17459(11) 1.000000 0.750000
O11_12 O 0.21921(19) 0.95460(10) 0.79218(8)
H1_16 H 0.023033 0.171113 0.754727
H18_16 H 0.976967 0.148079 0.745273
H1_17 H 0.828887 0.851921 0.754727
H18_17 H 0.851921 0.828887 0.745273
H18_18 H 0.171113 0.023033 0.745273
H1_18 H 0.148079 0.976967 0.754727
H14_16 H 0.277048 0.024666 0.646457
H15_16 H 0.300421 0.003630 0.595822
O9_16 O 0.16966(15) 0.09557(11) 0.25864(9)
C40_16 C 0.1359(3) 0.01381(17) 0.29879(15)
H30_16 H 0.122813 0.011811 0.276503
C41_16 C 0.17014(16) 0.05660(14) 0.31132(12)
C42_16 C 0.18418(16) 0.09952(15) 0.28961(12)
C43_16 C 0.18684(17) 0.05855(15) 0.34486(14)
H31_16 H 0.208727 0.086907 0.354312
C44_16 C 0.17156(18) 0.01884(16) 0.36495(15)
H32_16 H 0.183854 0.020835 0.387549
O2_16 O 0.22156(11) 0.94413(10) 0.73328(8)
O5_16 O 0.42891(11) 0.83632(15) 0.90802(9)
N1_16 N 0.22943(11) 0.74412(11) 0.80363(10)
C1_16 C 0.22345(13) 0.93443(14) 0.76492(12)
C2_16 C 0.23235(13) 0.89471(13) 0.77225(11)
C3_16 C 0.23712(16) 0.88301(15) 0.80617(12)
H2_16 H 0.232922 0.898240 0.825303
C4_16 C 0.24817(17) 0.84862(16) 0.81258(13)
H3_16 H 0.252104 0.841631 0.835850
C5_16 C 0.25325(13) 0.82514(14) 0.78482(11)
C6_16 C 0.26755(13) 0.78872(14) 0.79047(11)
H4_16 H 0.276286 0.782611 0.767029
C7_16 C 0.19627(14) 0.73453(14) 0.82705(12)
H5_16 H 0.189196 0.756133 0.836191
C8_16 C 0.1973(2) 0.67457(17) 0.81614(16)
H6_16 H 0.190115 0.643851 0.816711
C9_16 C 0.23051(17) 0.70549(14) 0.79601(14)
H7_16 H 0.249903 0.701585 0.780401
C10_16 C 0.30989(14) 0.80527(15) 0.81447(12)
C11_16 C 0.30758(16) 0.7876(2) 0.84765(15)
H8_16 H 0.279174 0.765319 0.856761
C12_16 C 0.34715(17) 0.8025(3) 0.86787(15)
H9_16 H 0.345145 0.789479 0.890163
C13_16 C 0.38994(14) 0.83680(16) 0.85534(12)
C14_16 C 0.43286(15) 0.85084(16) 0.87705(12)
C15_16 C 0.39189(15) 0.85350(17) 0.82180(14)
H10_16 H 0.420241 0.875393 0.812354
C16_16 C 0.35218(16) 0.83822(18) 0.80171(15)
H11_16 H 0.354169 0.850520 0.779117
C17_16 C 0.24748(16) 0.83589(16) 0.75055(12)
H12_16 H 0.250468 0.819779 0.731504
C18_16 C 0.23725(17) 0.87056(16) 0.74431(12)
H13_16 H 0.233622 0.877725 0.721016
N3_16 N 0.22649(12) 0.96500(12) 0.65938(10)
C19_16 C 0.2612(2) 0.9937(3) 0.6397(2)
C20_16 C 0.2761(2) 0.9812(2) 0.60922(19)
C21_16 C 0.25488(17) 0.93637(17) 0.59925(12)
C22_16 C 0.2203(2) 0.9051(2) 0.62083(19)
H16_16 H 0.205564 0.873695 0.615594
C23_16 C 0.2077(2) 0.9202(2) 0.64982(18)
H17_16 H 0.184333 0.898187 0.664180
N4_16 N 0.29834(12) 0.89315(12) 0.50728(10)
C24_16 C 0.3271(3) 0.9278(2) 0.5269(2)
H19_16 H 0.358000 0.943714 0.520209
C25_16 C 0.3146(2) 0.9427(2) 0.55744(19)
H20_16 H 0.336964 0.967087 0.570844
C26_16 C 0.26971(17) 0.92154(17) 0.56741(12)
C27_16 C 0.2385(2) 0.8869(2) 0.54583(19)
H21_16 H 0.207029 0.872230 0.551072
C28_16 C 0.2536(2) 0.8743(2) 0.51684(18)
H22_16 H 0.231521 0.850999 0.502486
O6_16 O 0.27747(10) 0.88822(11) 0.43338(8)
N5_16 N 0.07746(11) 0.89609(11) 0.36303(10)
C29_16 C 0.26777(14) 0.89011(13) 0.40174(12)
C30_16 C 0.22805(13) 0.89901(13) 0.39441(11)
C31_16 C 0.21635(15) 0.90378(16) 0.36049(12)
H23_16 H 0.231574 0.899588 0.341363
C32_16 C 0.18196(16) 0.91483(17) 0.35408(13)
H24_16 H 0.174965 0.918770 0.330816
C33_16 C 0.15848(14) 0.91991(13) 0.38184(11)
C34_16 C 0.12206(14) 0.93421(13) 0.37619(11)
H25_16 H 0.115945 0.942952 0.399637
C35_16 C 0.06787(14) 0.86293(14) 0.33961(12)
H26_16 H 0.089467 0.855862 0.330475
C36_16 C 0.00791(17) 0.8639(2) 0.35052(16)
C37_16 C 0.03883(14) 0.89717(17) 0.37065(14)
H28_16 H 0.034919 0.916569 0.386265
C38_16 C 0.13861(15) 0.97655(14) 0.35219(12)
C39_16 C 0.1210(2) 0.97424(16) 0.31901(15)
H29_16 H 0.098653 0.945840 0.309905
C45_16 C 0.16923(16) 0.91414(16) 0.41611(12)
H33_16 H 0.153113 0.917134 0.435162
C46_16 C 0.20390(16) 0.90391(17) 0.42235(12)
H34_16 H 0.211059 0.900288 0.445650
H27_16 H 0.977185 0.856781 0.349955
O2_17 O 0.05587(10) 0.27742(15) 0.73328(8)
O5_17 O 0.16368(15) 0.59258(19) 0.90802(9)
N1_17 N 0.25588(11) 0.48530(16) 0.80363(10)
C1_17 C 0.06557(14) 0.28901(19) 0.76492(12)
C2_17 C 0.10529(13) 0.33763(18) 0.77225(11)
C3_17 C 0.11699(15) 0.35410(22) 0.80617(12)
H2_17 H 0.101760 0.334681 0.825303
C4_17 C 0.15138(16) 0.39954(23) 0.81258(13)
H3_17 H 0.158369 0.410472 0.835850
C5_17 C 0.17486(14) 0.42810(19) 0.78482(11)
C6_17 C 0.21128(14) 0.47882(19) 0.79047(11)
H4_17 H 0.217389 0.493674 0.767029
C7_17 C 0.26547(14) 0.46173(20) 0.82705(12)
H5_17 H 0.243867 0.433062 0.836191
C8_17 C 0.32543(17) 0.52269(26) 0.81614(16)
H6_17 H 0.356149 0.546263 0.816711
C9_17 C 0.29451(14) 0.52501(22) 0.79601(14)
H7_17 H 0.298415 0.548317 0.780401
C10_17 C 0.19473(15) 0.50461(21) 0.81447(12)
C11_17 C 0.2124(2) 0.51994(26) 0.84765(15)
H8_17 H 0.234681 0.513854 0.856761
C12_17 C 0.1975(3) 0.54461(34) 0.86787(15)
H9_17 H 0.210521 0.555665 0.890163
C13_17 C 0.16320(16) 0.55313(21) 0.85534(12)
C14_17 C 0.14916(16) 0.58201(22) 0.87705(12)
C15_17 C 0.14650(17) 0.53838(23) 0.82180(14)
H10_17 H 0.124607 0.544847 0.812354
C16_17 C 0.16178(18) 0.51395(24) 0.80171(15)
H11_17 H 0.149480 0.503648 0.779117
C17_17 C 0.16411(16) 0.41158(23) 0.75055(12)
H12_17 H 0.180221 0.430688 0.731504
C18_17 C 0.12944(16) 0.36668(23) 0.74431(12)
H13_17 H 0.122275 0.355896 0.721016
N3_17 N 0.03500(12) 0.26148(17) 0.65938(10)
C19_17 C 0.0063(3) 0.2674(4) 0.6397(2)
C20_17 C 0.0188(2) 0.2948(3) 0.60922(19)
C21_17 C 0.06363(17) 0.31850(24) 0.59925(12)
C22_17 C 0.0949(2) 0.3151(3) 0.62083(19)
H16_17 H 0.126305 0.331868 0.615594
C23_17 C 0.0798(2) 0.2874(3) 0.64982(18)
H17_17 H 0.101813 0.286145 0.664180
N4_17 N 0.10685(12) 0.40518(17) 0.50728(10)
C24_17 C 0.0722(2) 0.3992(4) 0.5269(2)
H19_17 H 0.056286 0.414285 0.520209
C25_17 C 0.0573(2) 0.3718(3) 0.55744(19)
H20_17 H 0.032913 0.369876 0.570844
C26_17 C 0.07846(17) 0.34816(24) 0.56741(12)
C27_17 C 0.1131(2) 0.3515(3) 0.54583(19)
H21_17 H 0.127770 0.334798 0.551072
C28_17 C 0.1257(2) 0.3792(3) 0.51684(18)
H22_17 H 0.149001 0.380521 0.502486
O6_17 O 0.11178(11) 0.38924(15) 0.43338(8)
N5_17 N 0.10391(11) 0.18136(16) 0.36303(10)
C29_17 C 0.10989(13) 0.37765(19) 0.40174(12)
C30_17 C 0.10099(13) 0.32903(18) 0.39441(11)
C31_17 C 0.09622(16) 0.31256(22) 0.36049(12)
H23_17 H 0.100412 0.331985 0.341363
C32_17 C 0.08517(17) 0.26712(23) 0.35408(13)
H24_17 H 0.081230 0.256194 0.330816
C33_17 C 0.08009(13) 0.23856(19) 0.38184(11)
C34_17 C 0.06579(13) 0.18784(19) 0.37619(11)
H25_17 H 0.057048 0.172992 0.399637
C35_17 C 0.13707(14) 0.20493(20) 0.33961(12)
H26_17 H 0.144138 0.233604 0.330475
C36_17 C 0.1361(2) 0.14397(26) 0.35052(16)
H27_17 H 0.143219 0.120403 0.349955
C37_17 C 0.10283(17) 0.14165(22) 0.37065(14)
H28_17 H 0.083431 0.118349 0.386265
C38_17 C 0.02345(14) 0.16205(21) 0.35219(12)
C39_17 C 0.02576(16) 0.14672(26) 0.31901(15)
H29_17 H 0.054160 0.152812 0.309905
C45_17 C 0.08586(16) 0.25508(23) 0.41611(12)
H33_17 H 0.082866 0.235978 0.435162
C46_17 C 0.09609(17) 0.29998(23) 0.42235(12)
H34_17 H 0.099712 0.310770 0.445650
H14_17 H 0.975334 0.252381 0.646457
H15_17 H 0.996370 0.296790 0.595822
O9_17 O 0.90443(11) 0.07408(19) 0.25864(9)
C40_17 C 0.98619(17) 0.12205(34) 0.29879(15)
H30_17 H 0.988189 0.111001 0.276503
C41_17 C 0.94340(14) 0.11353(21) 0.31132(12)
C42_17 C 0.90048(15) 0.08465(22) 0.28961(12)
C43_17 C 0.94145(15) 0.12828(23) 0.34486(14)
H31_17 H 0.913093 0.121819 0.354312
C44_17 C 0.98116(16) 0.15271(24) 0.36495(15)
H32_17 H 0.979165 0.163018 0.387549
H27_18 H 0.879597 0.022815 0.349955
O2_18 O 0.72258(15) 0.77844(11) 0.73328(8)
O5_18 O 0.40742(19) 0.57109(11) 0.90802(9)
N1_18 N 0.51470(16) 0.77057(11) 0.80363(10)
C1_18 C 0.71099(19) 0.77655(13) 0.76492(12)
C2_18 C 0.66237(18) 0.76765(13) 0.77225(11)
C3_18 C 0.64590(22) 0.76288(16) 0.80617(12)
H2_18 H 0.665319 0.767078 0.825303
C4_18 C 0.60046(23) 0.75183(17) 0.81258(13)
H3_18 H 0.589528 0.747896 0.835850
C5_18 C 0.57190(19) 0.74675(13) 0.78482(11)
C6_18 C 0.52118(19) 0.73245(13) 0.79047(11)
H4_18 H 0.506326 0.723714 0.767029
C7_18 C 0.53827(20) 0.80373(14) 0.82705(12)
H5_18 H 0.566938 0.810804 0.836191
C8_18 C 0.47731(26) 0.8027(2) 0.81614(16)
H6_18 H 0.453737 0.809885 0.816711
C9_18 C 0.47499(22) 0.76949(17) 0.79601(14)
H7_18 H 0.451683 0.750097 0.780401
C10_18 C 0.49539(21) 0.69011(14) 0.81447(12)
C11_18 C 0.48006(26) 0.69242(16) 0.84765(15)
H8_18 H 0.486146 0.720826 0.856761
C12_18 C 0.45539(34) 0.65285(17) 0.86787(15)
H9_18 H 0.444335 0.654855 0.890163
C13_18 C 0.44687(21) 0.61006(14) 0.85534(12)
C14_18 C 0.41799(22) 0.56714(15) 0.87705(12)
C15_18 C 0.46162(23) 0.60811(15) 0.82180(14)
H10_18 H 0.455153 0.579759 0.812354
C16_18 C 0.48605(24) 0.64782(16) 0.80171(15)
H11_18 H 0.496352 0.645831 0.779117
C17_18 C 0.58842(23) 0.75252(16) 0.75055(12)
H12_18 H 0.569312 0.749532 0.731504
C18_18 C 0.63332(23) 0.76275(17) 0.74431(12)
H13_18 H 0.644104 0.766378 0.721016
N3_18 N 0.73852(17) 0.77351(12) 0.65938(10)
C19_18 C 0.7326(4) 0.7388(2) 0.6397(2)
H14_18 H 0.747619 0.722952 0.646457
C20_18 C 0.7052(3) 0.7239(2) 0.60922(19)
H15_18 H 0.703210 0.699579 0.595822
C21_18 C 0.68150(24) 0.74512(17) 0.59925(12)
C22_18 C 0.6849(3) 0.7797(2) 0.62083(19)
H16_18 H 0.668132 0.794436 0.615594
C23_18 C 0.7126(3) 0.7923(2) 0.64982(18)
H17_18 H 0.713855 0.815667 0.664180
N4_18 N 0.59482(17) 0.70166(12) 0.50728(10)
C24_18 C 0.6008(4) 0.6729(3) 0.5269(2)
H19_18 H 0.585715 0.642000 0.520209
C25_18 C 0.6282(3) 0.6854(2) 0.55744(19)
H20_18 H 0.630124 0.663036 0.570844
C26_18 C 0.65184(24) 0.73029(17) 0.56741(12)
C27_18 C 0.6485(3) 0.7615(2) 0.54583(19)
H21_18 H 0.665202 0.792971 0.551072
C28_18 C 0.6208(3) 0.7464(2) 0.51684(18)
H22_18 H 0.619479 0.768479 0.502486
O6_18 O 0.61076(15) 0.72253(10) 0.43338(8)
O9_18 O 0.92592(19) 0.83034(15) 0.25864(9)
N5_18 N 0.81864(16) 0.92254(11) 0.36303(10)
C29_18 C 0.62235(19) 0.73223(14) 0.40174(12)
C30_18 C 0.67097(18) 0.77195(13) 0.39441(11)
C31_18 C 0.68744(22) 0.78365(15) 0.36049(12)
H23_18 H 0.668015 0.768426 0.341363
C32_18 C 0.73288(23) 0.81804(16) 0.35408(13)
H24_18 H 0.743806 0.825035 0.330816
C33_18 C 0.76144(19) 0.84152(14) 0.38184(11)
C34_18 C 0.81216(19) 0.87794(14) 0.37619(11)
H25_18 H 0.827008 0.884055 0.399637
C35_18 C 0.79507(20) 0.93213(14) 0.33961(12)
H26_18 H 0.766396 0.910533 0.330475
C36_18 C 0.85603(26) 0.99209(17) 0.35052(16)
C37_18 C 0.85835(22) 0.96117(14) 0.37065(14)
H28_18 H 0.881651 0.965081 0.386265
C38_18 C 0.83795(21) 0.86139(15) 0.35219(12)
C39_18 C 0.85328(26) 0.8790(2) 0.31901(15)
H29_18 H 0.847188 0.901347 0.309905
C40_18 C 0.87795(34) 0.8641(3) 0.29879(15)
H30_18 H 0.888999 0.877187 0.276503
C41_18 C 0.88647(21) 0.82986(16) 0.31132(12)
C42_18 C 0.91535(22) 0.81582(16) 0.28961(12)
C43_18 C 0.87172(23) 0.81316(17) 0.34486(14)
H31_18 H 0.878181 0.791273 0.354312
C44_18 C 0.84729(24) 0.82844(18) 0.36495(15)
H32_18 H 0.836982 0.816146 0.387549
C45_18 C 0.74492(23) 0.83077(16) 0.41611(12)
H33_18 H 0.764022 0.846887 0.435162
C46_18 C 0.70002(23) 0.79610(16) 0.42235(12)
H34_18 H 0.689230 0.788941 0.445650
loop_
_geom_bond_atom_site_label_1
_geom_bond_atom_site_label_2
_geom_bond_site_symmetry_1
_geom_bond_site_symmetry_2
O8 C42 1_555 1_555
O9 C42 1_555 1_555
H29 C39 1_555 1_555
C40 C39 1_555 1_555
H30 C40 1_555 1_555
C41 C40 1_555 1_555
C42 C41 1_555 1_555
Co7 N6 1_555 1_555
Co8 O8 1_555 1_555
Co1 O1 1_555 1_555
O1 H1 1_555 1_555
O2 Co1 1_555 1_555
O3 C1 1_555 1_555
O4 C14 1_555 1_555
O5 C14 1_555 1_555
N1 C6 1_555 1_555
N2 C7 1_555 1_555
C1 O2 1_555 1_555
C2 C1 1_555 1_555
C3 C2 1_555 1_555
H2 C3 1_555 1_555
C4 C3 1_555 1_555
H3 C4 1_555 1_555
C5 C4 1_555 1_555
C6 C5 1_555 1_555
H4 C6 1_555 1_555
C7 N1 1_555 1_555
H5 C7 1_555 1_555
C8 N2 1_555 1_555
H6 C8 1_555 1_555
C9 N1 1_555 1_555
H7 C9 1_555 1_555
C10 C6 1_555 1_555
C11 C10 1_555 1_555
H8 C11 1_555 1_555
C12 C11 1_555 1_555
H9 C12 1_555 1_555
C13 C12 1_555 1_555
C14 C13 1_555 1_555
C15 C13 1_555 1_555
H10 C15 1_555 1_555
C16 C10 1_555 1_555
H11 C16 1_555 1_555
C17 C5 1_555 1_555
H12 C17 1_555 1_555
C18 C2 1_555 1_555
H13 C18 1_555 1_555
N3 Co1 1_555 1_555
C19 N3 1_555 1_555
H14 C19 1_555 1_555
C20 C19 1_555 1_555
H15 C20 1_555 1_555
C21 C20 1_555 1_555
C22 C21 1_555 1_555
H16 C22 1_555 1_555
C23 N3 1_555 1_555
H17 C23 1_555 1_555
H18 O1 1_555 1_555
N4 C24 1_555 1_555
C24 H19 1_555 1_555
C25 C24 1_555 1_555
H20 C25 1_555 1_555
C26 C21 1_555 1_555
C27 C26 1_555 1_555
H21 C27 1_555 1_555
C28 N4 1_555 1_555
H22 C28 1_555 1_555
Co2 N4 1_555 1_555
O6 Co2 1_555 1_555
O7 C29 1_555 1_555
N5 C34 1_555 1_555
C29 O6 1_555 1_555
C30 C29 1_555 1_555
C31 C30 1_555 1_555
H23 C31 1_555 1_555
C32 C31 1_555 1_555
C33 C32 1_555 1_555
C34 C33 1_555 1_555
H25 C34 1_555 1_555
C35 N5 1_555 1_555
H27 C36 1_555 1_555
C37 N5 1_555 1_555
H28 C37 1_555 1_555
C38 C34 1_555 1_555
H31 C43 1_555 1_555
C44 C38 1_555 1_555
H32 C44 1_555 1_555
C45 C33 1_555 1_555
H33 C45 1_555 1_555
C46 C30 1_555 1_555
H34 C46 1_555 1_555
Co3 O7 1_555 1_555
Co4 O1 1_555 1_555
Co5 O4 1_555 1_555
Co6 N2 1_555 1_555
O10 Co2 1_555 1_555
O11 Co2 1_555 1_555
O12 Co1 1_555 1_555
O13 Co2 1_555 1_555
O14 Co1 1_555 1_555
N7 Co2 1_555 1_555
N8 Co1 1_555 1_555
O3 Co4 1_555 1_555
C8 C9 1_555 1_555
C15 C16 1_555 1_555
C17 C18 1_555 1_555
C22 C23 1_555 1_555
C25 C26 1_555 1_555
C27 C28 1_555 1_555
C36 C37 1_555 1_555
C43 C44 1_555 1_555
C45 C46 1_555 1_555
Co3 O10 1_555 1_555
O8_2 C42_2 1_555 1_555
O9_2 C42_2 1_555 1_555
H29_2 C39_2 1_555 1_555
C40_2 C39_2 1_555 1_555
H30_2 C40_2 1_555 1_555
C41_2 C40_2 1_555 1_555
C42_2 C41_2 1_555 1_555
Co8 N6_2 1_555 1_555
Co8_2 O8_2 1_555 1_555
Co1_2 O1_2 1_555 1_555
O1_2 H1_2 1_555 1_555
O2_2 Co1_2 1_555 1_555
O3_2 C1_2 1_555 1_555
C1_2 O2_2 1_555 1_555
N3_2 Co1_2 1_555 1_555
C19_2 N3_2 1_555 1_555
H14_2 C19_2 1_555 1_555
C20_2 C19_2 1_555 1_555
H15_2 C20_2 1_555 1_555
C21_2 C20_2 1_555 1_555
C22_2 C21_2 1_555 1_555
H16_2 C22_2 1_555 1_555
C23_2 N3_2 1_555 1_555
H17_2 C23_2 1_555 1_555
H18_2 O1_2 1_555 1_555
N5_2 C34_2 1_555 1_555
C31_2 C30_2 1_555 1_555
H23_2 C31_2 1_555 1_555
C32_2 C31_2 1_555 1_555
C33_2 C32_2 1_555 1_555
C34_2 C33_2 1_555 1_555
H25_2 C34_2 1_555 1_555
C35_2 N5_2 1_555 1_555
H27_2 C36_2 1_555 1_555
C37_2 N5_2 1_555 1_555
H28_2 C37_2 1_555 1_555
C38_2 C34_2 1_555 1_555
H31_2 C43_2 1_555 1_555
C44_2 C38_2 1_555 1_555
H32_2 C44_2 1_555 1_555
C45_2 C33_2 1_555 1_555
H33_2 C45_2 1_555 1_555
C46_2 C30_2 1_555 1_555
H34_2 C46_2 1_555 1_555
Co4_2 O1_2 1_555 1_555
O12_2 Co1_2 1_555 1_555
O14_2 Co1_2 1_555 1_555
N8_2 Co1_2 1_555 1_555
O3_2 Co4_2 1_555 1_555
C22_2 C23_2 1_555 1_555
C36_2 C37_2 1_555 1_555
C43_2 C44_2 1_555 1_555
C45_2 C46_2 1_555 1_555
O4_2 C14_2 1_555 1_555
O5_2 C14_2 1_555 1_555
N1_2 C6_2 1_555 1_555
N2_2 C7_2 1_555 1_555
C3_2 C2_2 1_555 1_555
H2_2 C3_2 1_555 1_555
C4_2 C3_2 1_555 1_555
H3_2 C4_2 1_555 1_555
C5_2 C4_2 1_555 1_555
C6_2 C5_2 1_555 1_555
H4_2 C6_2 1_555 1_555
C7_2 N1_2 1_555 1_555
H5_2 C7_2 1_555 1_555
C8_2 N2_2 1_555 1_555
H6_2 C8_2 1_555 1_555
C9_2 N1_2 1_555 1_555
H7_2 C9_2 1_555 1_555
C10_2 C6_2 1_555 1_555
C11_2 C10_2 1_555 1_555
H8_2 C11_2 1_555 1_555
C12_2 C11_2 1_555 1_555
H9_2 C12_2 1_555 1_555
C13_2 C12_2 1_555 1_555
C14_2 C13_2 1_555 1_555
C15_2 C13_2 1_555 1_555
H10_2 C15_2 1_555 1_555
C16_2 C10_2 1_555 1_555
H11_2 C16_2 1_555 1_555
C17_2 C5_2 1_555 1_555
H12_2 C17_2 1_555 1_555
C18_2 C2_2 1_555 1_555
H13_2 C18_2 1_555 1_555
N4_2 C24_2 1_555 1_555
C24_2 H19_2 1_555 1_555
C25_2 C24_2 1_555 1_555
H20_2 C25_2 1_555 1_555
C27_2 C26_2 1_555 1_555
H21_2 C27_2 1_555 1_555
C28_2 N4_2 1_555 1_555
H22_2 C28_2 1_555 1_555
Co2_2 N4_2 1_555 1_555
O6_2 Co2_2 1_555 1_555
O7_2 C29_2 1_555 1_555
C29_2 O6_2 1_555 1_555
Co3_2 O7_2 1_555 1_555
Co6 O4_2 1_555 1_555
Co6_2 N2_2 1_555 1_555
O10_2 Co2_2 1_555 1_555
O11_2 Co2_2 1_555 1_555
O13_2 Co2_2 1_555 1_555
N7_2 Co2_2 1_555 1_555
C8_2 C9_2 1_555 1_555
C15_2 C16_2 1_555 1_555
C17_2 C18_2 1_555 1_555
C25_2 C26_2 1_555 1_555
C27_2 C28_2 1_555 1_555
Co3_2 O10_2 1_555 1_555
O4_3 C14_3 1_555 1_555
O5_3 C14_3 1_555 1_555
N1_3 C6_3 1_555 1_555
N2_3 C7_3 1_555 1_555
C3_3 C2_3 1_555 1_555
H2_3 C3_3 1_555 1_555
C4_3 C3_3 1_555 1_555
H3_3 C4_3 1_555 1_555
C5_3 C4_3 1_555 1_555
C6_3 C5_3 1_555 1_555
H4_3 C6_3 1_555 1_555
C7_3 N1_3 1_555 1_555
H5_3 C7_3 1_555 1_555
C8_3 N2_3 1_555 1_555
H6_3 C8_3 1_555 1_555
C9_3 N1_3 1_555 1_555
H7_3 C9_3 1_555 1_555
C10_3 C6_3 1_555 1_555
C11_3 C10_3 1_555 1_555
H8_3 C11_3 1_555 1_555
C12_3 C11_3 1_555 1_555
H9_3 C12_3 1_555 1_555
C13_3 C12_3 1_555 1_555
C14_3 C13_3 1_555 1_555
C15_3 C13_3 1_555 1_555
H10_3 C15_3 1_555 1_555
C16_3 C10_3 1_555 1_555
H11_3 C16_3 1_555 1_555
C17_3 C5_3 1_555 1_555
H12_3 C17_3 1_555 1_555
C18_3 C2_3 1_555 1_555
H13_3 C18_3 1_555 1_555
N4_3 C24_3 1_555 1_555
C24_3 H19_3 1_555 1_555
C25_3 C24_3 1_555 1_555
H20_3 C25_3 1_555 1_555
C27_3 C26_3 1_555 1_555
H21_3 C27_3 1_555 1_555
C28_3 N4_3 1_555 1_555
H22_3 C28_3 1_555 1_555
Co2_3 N4_3 1_555 1_555
O6_3 Co2_3 1_555 1_555
O7_3 C29_3 1_555 1_555
C29_3 O6_3 1_555 1_555
Co3_3 O7_3 1_555 1_555
Co6_2 O4_3 1_555 1_555
Co5 N2_3 1_555 1_555
O10_3 Co2_3 1_555 1_555
O11_3 Co2_3 1_555 1_555
O13_3 Co2_3 1_555 1_555
N7_3 Co2_3 1_555 1_555
C8_3 C9_3 1_555 1_555
C15_3 C16_3 1_555 1_555
C17_3 C18_3 1_555 1_555
C25_3 C26_3 1_555 1_555
C27_3 C28_3 1_555 1_555
Co3_3 O10_3 1_555 1_555
O8_3 C42_3 1_555 1_555
O9_3 C42_3 1_555 1_555
H29_3 C39_3 1_555 1_555
C40_3 C39_3 1_555 1_555
H30_3 C40_3 1_555 1_555
C41_3 C40_3 1_555 1_555
C42_3 C41_3 1_555 1_555
Co8_2 N6_3 1_555 1_555
Co7 O8_3 1_555 1_555
Co1_3 O1_3 1_555 1_555
O1_3 H1_3 1_555 1_555
O2_3 Co1_3 1_555 1_555
O3_3 C1_3 1_555 1_555
C1_3 O2_3 1_555 1_555
N3_3 Co1_3 1_555 1_555
C19_3 N3_3 1_555 1_555
H14_3 C19_3 1_555 1_555
C20_3 C19_3 1_555 1_555
H15_3 C20_3 1_555 1_555
C21_3 C20_3 1_555 1_555
C22_3 C21_3 1_555 1_555
H16_3 C22_3 1_555 1_555
C23_3 N3_3 1_555 1_555
H17_3 C23_3 1_555 1_555
H18_3 O1_3 1_555 1_555
N5_3 C34_3 1_555 1_555
C31_3 C30_3 1_555 1_555
H23_3 C31_3 1_555 1_555
C32_3 C31_3 1_555 1_555
C33_3 C32_3 1_555 1_555
C34_3 C33_3 1_555 1_555
H25_3 C34_3 1_555 1_555
C35_3 N5_3 1_555 1_555
H27_3 C36_3 1_555 1_555
C37_3 N5_3 1_555 1_555
H28_3 C37_3 1_555 1_555
C38_3 C34_3 1_555 1_555
H31_3 C43_3 1_555 1_555
C44_3 C38_3 1_555 1_555
H32_3 C44_3 1_555 1_555
C45_3 C33_3 1_555 1_555
H33_3 C45_3 1_555 1_555
C46_3 C30_3 1_555 1_555
H34_3 C46_3 1_555 1_555
Co4_3 O1_3 1_555 1_555
O12_3 Co1_3 1_555 1_555
O14_3 Co1_3 1_555 1_555
N8_3 Co1_3 1_555 1_555
O3_3 Co4_3 1_555 1_555
C22_3 C23_3 1_555 1_555
C36_3 C37_3 1_555 1_555
C43_3 C44_3 1_555 1_555
C45_3 C46_3 1_555 1_555
O10 H1_4 1_555 1_555
H18_4 O10 1_555 1_555
O10_2 H1_5 1_555 1_555
H18_5 O10_2 1_555 1_555
O10_3 H1_6 1_555 1_555
H18_6 O10_3 1_555 1_555
C19_4 N3_4 1_555 1_555
H14_4 C19_4 1_555 1_555
C20_4 C19_4 1_555 1_555
H15_4 C20_4 1_555 1_555
C21_4 C20_4 1_555 1_555
C22_4 C21_4 1_555 1_555
H16_4 C22_4 1_555 1_555
C23_4 N3_4 1_555 1_555
H17_4 C23_4 1_555 1_555
N4_4 C24_4 1_555 1_555
C25_4 C24_4 1_555 1_555
C26_4 C21_4 1_555 1_555
C27_4 C26_4 1_555 1_555
H21_4 C27_4 1_555 1_555
C28_4 N4_4 1_555 1_555
H22_4 C28_4 1_555 1_555
Co2_4 N4_4 1_555 1_555
O6_4 Co2_4 1_555 1_555
O7_4 C29_4 1_555 1_555
O8_4 C42_4 1_555 1_555
O9_4 C42_4 1_555 1_555
N5_4 C34_4 1_555 1_555
N6_4 C35_4 1_555 1_555
C29_4 O6_4 1_555 1_555
C30_4 C29_4 1_555 1_555
C31_4 C30_4 1_555 1_555
H23_4 C31_4 1_555 1_555
C32_4 C31_4 1_555 1_555
H24_4 C32_4 1_555 1_555
C33_4 C32_4 1_555 1_555
C34_4 C33_4 1_555 1_555
H25_4 C34_4 1_555 1_555
C35_4 N5_4 1_555 1_555
H26_4 C35_4 1_555 1_555
C36_4 N6_4 1_555 1_555
H27_4 C36_4 1_555 1_555
C37_4 N5_4 1_555 1_555
H28_4 C37_4 1_555 1_555
C38_4 C34_4 1_555 1_555
C39_4 C38_4 1_555 1_555
H29_4 C39_4 1_555 1_555
C40_4 C39_4 1_555 1_555
H30_4 C40_4 1_555 1_555
C41_4 C40_4 1_555 1_555
C42_4 C41_4 1_555 1_555
C43_4 C41_4 1_555 1_555
H31_4 C43_4 1_555 1_555
C44_4 C38_4 1_555 1_555
H32_4 C44_4 1_555 1_555
C45_4 C33_4 1_555 1_555
H33_4 C45_4 1_555 1_555
C46_4 C30_4 1_555 1_555
H34_4 C46_4 1_555 1_555
Co7_2 N6_4 1_555 1_555
Co8_3 O8_4 1_555 1_555
O10_4 Co2_4 1_555 1_555
O13_4 Co2_4 1_555 1_555
C22_4 C23_4 1_555 1_555
C25_4 C26_4 1_555 1_555
C27_4 C28_4 1_555 1_555
C36_4 C37_4 1_555 1_555
C43_4 C44_4 1_555 1_555
C45_4 C46_4 1_555 1_555
O2_4 Co3_3 1_555 1_555
O11_3 C1_4 1_555 1_555
N1_4 C6_4 1_555 1_555
N2_4 C7_4 1_555 1_555
C1_4 O2_4 1_555 1_555
C2_4 C1_4 1_555 1_555
C3_4 C2_4 1_555 1_555
H2_4 C3_4 1_555 1_555
C4_4 C3_4 1_555 1_555
H3_4 C4_4 1_555 1_555
C5_4 C4_4 1_555 1_555
C6_4 C5_4 1_555 1_555
H4_4 C6_4 1_555 1_555
C7_4 N1_4 1_555 1_555
H5_4 C7_4 1_555 1_555
C8_4 N2_4 1_555 1_555
C9_4 N1_4 1_555 1_555
H7_4 C9_4 1_555 1_555
C10_4 C6_4 1_555 1_555
C11_4 C10_4 1_555 1_555
H8_4 C11_4 1_555 1_555
C17_4 C5_4 1_555 1_555
H12_4 C17_4 1_555 1_555
C18_4 C2_4 1_555 1_555
H13_4 C18_4 1_555 1_555
O14_4 Co3_3 1_555 1_555
N8_4 Co3_3 1_555 1_555
C8_4 C9_4 1_555 1_555
C17_4 C18_4 1_555 1_555
Co3_4 O10_5 1_555 1_555
O4_4 C14_4 1_555 1_555
O5_4 C14_4 1_555 1_555
H9_4 C12_4 1_555 1_555
C13_4 C12_4 1_555 1_555
C14_4 C13_4 1_555 1_555
C15_4 C13_4 1_555 1_555
H10_4 C15_4 1_555 1_555
H11_4 C16_4 1_555 1_555
Co5_2 O4_4 1_555 1_555
C15_4 C16_4 1_555 1_555
C19_5 N3_5 1_555 1_555
H14_5 C19_5 1_555 1_555
C20_5 C19_5 1_555 1_555
H15_5 C20_5 1_555 1_555
C21_5 C20_5 1_555 1_555
C22_5 C21_5 1_555 1_555
H16_5 C22_5 1_555 1_555
C23_5 N3_5 1_555 1_555
H17_5 C23_5 1_555 1_555
N4_5 C24_5 1_555 1_555
C24_5 H19_5 1_555 1_555
C25_5 C24_5 1_555 1_555
H20_5 C25_5 1_555 1_555
C26_5 C21_5 1_555 1_555
C27_5 C26_5 1_555 1_555
H21_5 C27_5 1_555 1_555
C28_5 N4_5 1_555 1_555
H22_5 C28_5 1_555 1_555
Co2_5 N4_5 1_555 1_555
O6_5 Co2_5 1_555 1_555
O7_5 C29_5 1_555 1_555
O8_5 C42_5 1_555 1_555
O9_5 C42_5 1_555 1_555
N5_5 C34_5 1_555 1_555
N6_5 C35_5 1_555 1_555
C29_5 O6_5 1_555 1_555
C30_5 C29_5 1_555 1_555
C31_5 C30_5 1_555 1_555
H23_5 C31_5 1_555 1_555
C32_5 C31_5 1_555 1_555
H24_5 C32_5 1_555 1_555
C33_5 C32_5 1_555 1_555
C34_5 C33_5 1_555 1_555
H25_5 C34_5 1_555 1_555
C35_5 N5_5 1_555 1_555
H26_5 C35_5 1_555 1_555
C36_5 N6_5 1_555 1_555
H27_5 C36_5 1_555 1_555
C37_5 N5_5 1_555 1_555
H28_5 C37_5 1_555 1_555
C38_5 C34_5 1_555 1_555
C39_5 C38_5 1_555 1_555
H29_5 C39_5 1_555 1_555
C40_5 C39_5 1_555 1_555
H30_5 C40_5 1_555 1_555
C41_5 C40_5 1_555 1_555
C42_5 C41_5 1_555 1_555
C43_5 C41_5 1_555 1_555
H31_5 C43_5 1_555 1_555
C44_5 C38_5 1_555 1_555
H32_5 C44_5 1_555 1_555
C45_5 C33_5 1_555 1_555
H33_5 C45_5 1_555 1_555
C46_5 C30_5 1_555 1_555
H34_5 C46_5 1_555 1_555
Co3_5 O7_5 1_555 1_555
Co8_3 N6_5 1_555 1_555
Co8_4 O8_5 1_555 1_555
O10_6 Co2_5 1_555 1_555
O11_5 Co2_5 1_555 1_555
O13_5 Co2_5 1_555 1_555
N7_5 Co2_5 1_555 1_555
C22_5 C23_5 1_555 1_555
C25_5 C26_5 1_555 1_555
C27_5 C28_5 1_555 1_555
C36_5 C37_5 1_555 1_555
C43_5 C44_5 1_555 1_555
C45_5 C46_5 1_555 1_555
Co3_5 O10_6 1_555 1_555
O2_5 Co3 1_555 1_555
O11 C1_5 1_555 1_555
O4_5 C14_5 1_555 1_555
O5_5 C14_5 1_555 1_555
N1_5 C6_5 1_555 1_555
N2_5 C7_5 1_555 1_555
C1_5 O2_5 1_555 1_555
C2_5 C1_5 1_555 1_555
C3_5 C2_5 1_555 1_555
H2_5 C3_5 1_555 1_555
C4_5 C3_5 1_555 1_555
H3_5 C4_5 1_555 1_555
C5_5 C4_5 1_555 1_555
C6_5 C5_5 1_555 1_555
H4_5 C6_5 1_555 1_555
C7_5 N1_5 1_555 1_555
H5_5 C7_5 1_555 1_555
C8_5 N2_5 1_555 1_555
C9_5 N1_5 1_555 1_555
H7_5 C9_5 1_555 1_555
C10_5 C6_5 1_555 1_555
C11_5 C10_5 1_555 1_555
H8_5 C11_5 1_555 1_555
C12_5 C11_5 1_555 1_555
H9_5 C12_5 1_555 1_555
C13_5 C12_5 1_555 1_555
C14_5 C13_5 1_555 1_555
C15_5 C13_5 1_555 1_555
H10_5 C15_5 1_555 1_555
C16_5 C10_5 1_555 1_555
H11_5 C16_5 1_555 1_555
C17_5 C5_5 1_555 1_555
H12_5 C17_5 1_555 1_555
C18_5 C2_5 1_555 1_555
H13_5 C18_5 1_555 1_555
Co6_3 O4_5 1_555 1_555
O14_5 Co3 1_555 1_555
N8_5 Co3 1_555 1_555
C8_5 C9_5 1_555 1_555
C15_5 C16_5 1_555 1_555
C17_5 C18_5 1_555 1_555
Co3_6 O10_7 1_555 1_555
O4_6 C14_6 1_555 1_555
O5_6 C14_6 1_555 1_555
H9_6 C12_6 1_555 1_555
C13_6 C12_6 1_555 1_555
C14_6 C13_6 1_555 1_555
C15_6 C13_6 1_555 1_555
H10_6 C15_6 1_555 1_555
H11_6 C16_6 1_555 1_555
Co6_4 O4_6 1_555 1_555
C15_6 C16_6 1_555 1_555
C19_6 N3_6 1_555 1_555
H14_6 C19_6 1_555 1_555
C20_6 C19_6 1_555 1_555
H15_6 C20_6 1_555 1_555
C21_6 C20_6 1_555 1_555
C22_6 C21_6 1_555 1_555
H16_6 C22_6 1_555 1_555
C23_6 N3_6 1_555 1_555
H17_6 C23_6 1_555 1_555
N4_6 C24_6 1_555 1_555
C25_6 C24_6 1_555 1_555
C26_6 C21_6 1_555 1_555
C27_6 C26_6 1_555 1_555
H21_6 C27_6 1_555 1_555
C28_6 N4_6 1_555 1_555
H22_6 C28_6 1_555 1_555
Co2_6 N4_6 1_555 1_555
O6_6 Co2_6 1_555 1_555
O7_6 C29_6 1_555 1_555
O8_6 C42_6 1_555 1_555
O9_6 C42_6 1_555 1_555
N5_6 C34_6 1_555 1_555
N6_6 C35_6 1_555 1_555
C29_6 O6_6 1_555 1_555
C30_6 C29_6 1_555 1_555
C31_6 C30_6 1_555 1_555
H23_6 C31_6 1_555 1_555
C32_6 C31_6 1_555 1_555
H24_6 C32_6 1_555 1_555
C33_6 C32_6 1_555 1_555
C34_6 C33_6 1_555 1_555
H25_6 C34_6 1_555 1_555
C35_6 N5_6 1_555 1_555
H26_6 C35_6 1_555 1_555
C36_6 N6_6 1_555 1_555
H27_6 C36_6 1_555 1_555
C37_6 N5_6 1_555 1_555
H28_6 C37_6 1_555 1_555
C38_6 C34_6 1_555 1_555
C39_6 C38_6 1_555 1_555
H29_6 C39_6 1_555 1_555
C40_6 C39_6 1_555 1_555
H30_6 C40_6 1_555 1_555
C41_6 C40_6 1_555 1_555
C42_6 C41_6 1_555 1_555
C43_6 C41_6 1_555 1_555
H31_6 C43_6 1_555 1_555
C44_6 C38_6 1_555 1_555
H32_6 C44_6 1_555 1_555
C45_6 C33_6 1_555 1_555
H33_6 C45_6 1_555 1_555
C46_6 C30_6 1_555 1_555
H34_6 C46_6 1_555 1_555
Co8_4 N6_6 1_555 1_555
Co7_2 O8_6 1_555 1_555
O10_8 Co2_6 1_555 1_555
O13_6 Co2_6 1_555 1_555
C22_6 C23_6 1_555 1_555
C25_6 C26_6 1_555 1_555
C27_6 C28_6 1_555 1_555
C36_6 C37_6 1_555 1_555
C43_6 C44_6 1_555 1_555
C45_6 C46_6 1_555 1_555
O2_6 Co3_2 1_555 1_555
O11_2 C1_6 1_555 1_555
N1_6 C6_6 1_555 1_555
N2_6 C7_6 1_555 1_555
C1_6 O2_6 1_555 1_555
C2_6 C1_6 1_555 1_555
C3_6 C2_6 1_555 1_555
H2_6 C3_6 1_555 1_555
C4_6 C3_6 1_555 1_555
H3_6 C4_6 1_555 1_555
C5_6 C4_6 1_555 1_555
C6_6 C5_6 1_555 1_555
H4_6 C6_6 1_555 1_555
C7_6 N1_6 1_555 1_555
H5_6 C7_6 1_555 1_555
C8_6 N2_6 1_555 1_555
H6_6 C8_6 1_555 1_555
C9_6 N1_6 1_555 1_555
H7_6 C9_6 1_555 1_555
C10_6 C6_6 1_555 1_555
C11_6 C10_6 1_555 1_555
H8_6 C11_6 1_555 1_555
C17_6 C5_6 1_555 1_555
H12_6 C17_6 1_555 1_555
C18_6 C2_6 1_555 1_555
H13_6 C18_6 1_555 1_555
Co5_2 N2_6 1_555 1_555
O14_6 Co3_2 1_555 1_555
N8_6 Co3_2 1_555 1_555
C8_6 C9_6 1_555 1_555
C17_6 C18_6 1_555 1_555
H18_7 O10_4 1_555 1_555
O10_5 H1_7 1_555 1_555
O10_6 H1_8 1_555 1_555
H18_8 O10_6 1_555 1_555
O10_7 H1_9 1_555 1_555
H18_9 O10_8 1_555 1_555
O2_7 Co3_6 1_555 1_555
O11_6 C1_7 1_555 1_555
O4_7 C14_7 1_555 1_555
O5_7 C14_7 1_555 1_555
N1_7 C6_7 1_555 1_555
N2_7 C7_7 1_555 1_555
C1_7 O2_7 1_555 1_555
C2_7 C1_7 1_555 1_555
C3_7 C2_7 1_555 1_555
H2_7 C3_7 1_555 1_555
C4_7 C3_7 1_555 1_555
H3_7 C4_7 1_555 1_555
C5_7 C4_7 1_555 1_555
C6_7 C5_7 1_555 1_555
H4_7 C6_7 1_555 1_555
C7_7 N1_7 1_555 1_555
H5_7 C7_7 1_555 1_555
C8_7 N2_7 1_555 1_555
H6_7 C8_7 1_555 1_555
C9_7 N1_7 1_555 1_555
H7_7 C9_7 1_555 1_555
C10_7 C6_7 1_555 1_555
C11_7 C10_7 1_555 1_555
H8_7 C11_7 1_555 1_555
C12_7 C11_7 1_555 1_555
H9_7 C12_7 1_555 1_555
C13_7 C12_7 1_555 1_555
C14_7 C13_7 1_555 1_555
C15_7 C13_7 1_555 1_555
H10_7 C15_7 1_555 1_555
C16_7 C10_7 1_555 1_555
H11_7 C16_7 1_555 1_555
C17_7 C5_7 1_555 1_555
H12_7 C17_7 1_555 1_555
C18_7 C2_7 1_555 1_555
H13_7 C18_7 1_555 1_555
N3_7 Co3_6 1_555 1_555
C19_7 N3_7 1_555 1_555
C20_7 C19_7 1_555 1_555
C21_7 C20_7 1_555 1_555
C22_7 C21_7 1_555 1_555
H16_7 C22_7 1_555 1_555
C23_7 N3_7 1_555 1_555
H17_7 C23_7 1_555 1_555
N4_7 C24_7 1_555 1_555
C24_7 H19_7 1_555 1_555
C25_7 C24_7 1_555 1_555
H20_7 C25_7 1_555 1_555
C26_7 C21_7 1_555 1_555
C27_7 C26_7 1_555 1_555
H21_7 C27_7 1_555 1_555
C28_7 N4_7 1_555 1_555
H22_7 C28_7 1_555 1_555
Co4_2 N4_7 1_555 1_555
O6_7 Co4_2 1_555 1_555
O12_2 C29_7 1_555 1_555
N5_7 C34_7 1_555 1_555
N6_7 C35_7 1_555 1_555
C29_7 O6_7 1_555 1_555
C30_7 C29_7 1_555 1_555
C31_7 C30_7 1_555 1_555
H23_7 C31_7 1_555 1_555
C32_7 C31_7 1_555 1_555
H24_7 C32_7 1_555 1_555
C33_7 C32_7 1_555 1_555
C34_7 C33_7 1_555 1_555
H25_7 C34_7 1_555 1_555
C35_7 N5_7 1_555 1_555
H26_7 C35_7 1_555 1_555
C36_7 N6_7 1_555 1_555
C37_7 N5_7 1_555 1_555
H28_7 C37_7 1_555 1_555
C38_7 C34_7 1_555 1_555
C39_7 C38_7 1_555 1_555
H29_7 C39_7 1_555 1_555
C45_7 C33_7 1_555 1_555
H33_7 C45_7 1_555 1_555
C46_7 C30_7 1_555 1_555
H34_7 C46_7 1_555 1_555
Co5_3 O4_7 1_555 1_555
Co6_5 N2_7 1_555 1_555
O13_7 Co4_2 1_555 1_555
O14_7 Co3_6 1_555 1_555
N7_7 Co4_2 1_555 1_555
C8_7 C9_7 1_555 1_555
C15_7 C16_7 1_555 1_555
C17_7 C18_7 1_555 1_555
C22_7 C23_7 1_555 1_555
C25_7 C26_7 1_555 1_555
C27_7 C28_7 1_555 1_555
C36_7 C37_7 1_555 1_555
C45_7 C46_7 1_555 1_555
O8_7 C42_7 1_555 1_555
O9_7 C42_7 1_555 1_555
H30_7 C40_7 1_555 1_555
C41_7 C40_7 1_555 1_555
C42_7 C41_7 1_555 1_555
C43_7 C41_7 1_555 1_555
H31_7 C43_7 1_555 1_555
H32_7 C44_7 1_555 1_555
Co8_5 O8_7 1_555 1_555
C43_7 C44_7 1_555 1_555
O8_8 C42_8 1_555 1_555
O9_8 C42_8 1_555 1_555
H30_8 C40_8 1_555 1_555
C41_8 C40_8 1_555 1_555
C42_8 C41_8 1_555 1_555
C43_8 C41_8 1_555 1_555
H31_8 C43_8 1_555 1_555
H32_8 C44_8 1_555 1_555
Co8_6 O8_8 1_555 1_555
C43_8 C44_8 1_555 1_555
O2_8 Co3_4 1_555 1_555
O11_4 C1_8 1_555 1_555
O4_8 C14_8 1_555 1_555
O5_8 C14_8 1_555 1_555
N1_8 C6_8 1_555 1_555
N2_8 C7_8 1_555 1_555
C1_8 O2_8 1_555 1_555
C2_8 C1_8 1_555 1_555
C3_8 C2_8 1_555 1_555
H2_8 C3_8 1_555 1_555
C4_8 C3_8 1_555 1_555
H3_8 C4_8 1_555 1_555
C5_8 C4_8 1_555 1_555
C6_8 C5_8 1_555 1_555
H4_8 C6_8 1_555 1_555
C7_8 N1_8 1_555 1_555
H5_8 C7_8 1_555 1_555
C8_8 N2_8 1_555 1_555
H6_8 C8_8 1_555 1_555
C9_8 N1_8 1_555 1_555
H7_8 C9_8 1_555 1_555
C10_8 C6_8 1_555 1_555
C11_8 C10_8 1_555 1_555
H8_8 C11_8 1_555 1_555
C12_8 C11_8 1_555 1_555
H9_8 C12_8 1_555 1_555
C13_8 C12_8 1_555 1_555
C14_8 C13_8 1_555 1_555
C15_8 C13_8 1_555 1_555
H10_8 C15_8 1_555 1_555
C16_8 C10_8 1_555 1_555
H11_8 C16_8 1_555 1_555
C17_8 C5_8 1_555 1_555
H12_8 C17_8 1_555 1_555
C18_8 C2_8 1_555 1_555
H13_8 C18_8 1_555 1_555
N3_8 Co3_4 1_555 1_555
C19_8 N3_8 1_555 1_555
C20_8 C19_8 1_555 1_555
C21_8 C20_8 1_555 1_555
C22_8 C21_8 1_555 1_555
H16_8 C22_8 1_555 1_555
C23_8 N3_8 1_555 1_555
H17_8 C23_8 1_555 1_555
N4_8 C24_8 1_555 1_555
C24_8 H19_8 1_555 1_555
C25_8 C24_8 1_555 1_555
H20_8 C25_8 1_555 1_555
C26_8 C21_8 1_555 1_555
C27_8 C26_8 1_555 1_555
H21_8 C27_8 1_555 1_555
C28_8 N4_8 1_555 1_555
H22_8 C28_8 1_555 1_555
Co4_3 N4_8 1_555 1_555
O6_8 Co4_3 1_555 1_555
O12_3 C29_8 1_555 1_555
N5_8 C34_8 1_555 1_555
N6_8 C35_8 1_555 1_555
C29_8 O6_8 1_555 1_555
C30_8 C29_8 1_555 1_555
C31_8 C30_8 1_555 1_555
H23_8 C31_8 1_555 1_555
C32_8 C31_8 1_555 1_555
H24_8 C32_8 1_555 1_555
C33_8 C32_8 1_555 1_555
C34_8 C33_8 1_555 1_555
H25_8 C34_8 1_555 1_555
C35_8 N5_8 1_555 1_555
H26_8 C35_8 1_555 1_555
C36_8 N6_8 1_555 1_555
H27_8 C36_8 1_555 1_555
C37_8 N5_8 1_555 1_555
H28_8 C37_8 1_555 1_555
C38_8 C34_8 1_555 1_555
C39_8 C38_8 1_555 1_555
H29_8 C39_8 1_555 1_555
C45_8 C33_8 1_555 1_555
H33_8 C45_8 1_555 1_555
C46_8 C30_8 1_555 1_555
H34_8 C46_8 1_555 1_555
Co6_5 O4_8 1_555 1_555
Co6_6 N2_8 1_555 1_555
Co8_5 N6_8 1_555 1_555
O13_8 Co4_3 1_555 1_555
O14_8 Co3_4 1_555 1_555
N7_8 Co4_3 1_555 1_555
C8_8 C9_8 1_555 1_555
C15_8 C16_8 1_555 1_555
C17_8 C18_8 1_555 1_555
C22_8 C23_8 1_555 1_555
C25_8 C26_8 1_555 1_555
C27_8 C28_8 1_555 1_555
C36_8 C37_8 1_555 1_555
C45_8 C46_8 1_555 1_555
O2_9 Co3_5 1_555 1_555
O11_5 C1_9 1_555 1_555
O4_9 C14_9 1_555 1_555
O5_9 C14_9 1_555 1_555
N1_9 C6_9 1_555 1_555
N2_9 C7_9 1_555 1_555
C1_9 O2_9 1_555 1_555
C2_9 C1_9 1_555 1_555
C3_9 C2_9 1_555 1_555
H2_9 C3_9 1_555 1_555
C4_9 C3_9 1_555 1_555
H3_9 C4_9 1_555 1_555
C5_9 C4_9 1_555 1_555
C6_9 C5_9 1_555 1_555
H4_9 C6_9 1_555 1_555
C7_9 N1_9 1_555 1_555
H5_9 C7_9 1_555 1_555
C8_9 N2_9 1_555 1_555
H6_9 C8_9 1_555 1_555
C9_9 N1_9 1_555 1_555
H7_9 C9_9 1_555 1_555
C10_9 C6_9 1_555 1_555
C11_9 C10_9 1_555 1_555
H8_9 C11_9 1_555 1_555
C12_9 C11_9 1_555 1_555
H9_9 C12_9 1_555 1_555
C13_9 C12_9 1_555 1_555
C14_9 C13_9 1_555 1_555
C15_9 C13_9 1_555 1_555
H10_9 C15_9 1_555 1_555
C16_9 C10_9 1_555 1_555
H11_9 C16_9 1_555 1_555
C17_9 C5_9 1_555 1_555
H12_9 C17_9 1_555 1_555
C18_9 C2_9 1_555 1_555
H13_9 C18_9 1_555 1_555
N3_9 Co3_5 1_555 1_555
C19_9 N3_9 1_555 1_555
H14_9 C19_9 1_555 1_555
C20_9 C19_9 1_555 1_555
H15_9 C20_9 1_555 1_555
C21_9 C20_9 1_555 1_555
C22_9 C21_9 1_555 1_555
H16_9 C22_9 1_555 1_555
C23_9 N3_9 1_555 1_555
H17_9 C23_9 1_555 1_555
N4_9 C24_9 1_555 1_555
C24_9 H19_9 1_555 1_555
C25_9 C24_9 1_555 1_555
H20_9 C25_9 1_555 1_555
C26_9 C21_9 1_555 1_555
C27_9 C26_9 1_555 1_555
H21_9 C27_9 1_555 1_555
C28_9 N4_9 1_555 1_555
H22_9 C28_9 1_555 1_555
Co4 N4_9 1_555 1_555
O6_9 Co4 1_555 1_555
O12 C29_9 1_555 1_555
O8_9 C42_9 1_555 1_555
O9_9 C42_9 1_555 1_555
N5_9 C34_9 1_555 1_555
N6_9 C35_9 1_555 1_555
C29_9 O6_9 1_555 1_555
C30_9 C29_9 1_555 1_555
C31_9 C30_9 1_555 1_555
H23_9 C31_9 1_555 1_555
C32_9 C31_9 1_555 1_555
H24_9 C32_9 1_555 1_555
C33_9 C32_9 1_555 1_555
C34_9 C33_9 1_555 1_555
H25_9 C34_9 1_555 1_555
C35_9 N5_9 1_555 1_555
H26_9 C35_9 1_555 1_555
C36_9 N6_9 1_555 1_555
C37_9 N5_9 1_555 1_555
H28_9 C37_9 1_555 1_555
C38_9 C34_9 1_555 1_555
C39_9 C38_9 1_555 1_555
H29_9 C39_9 1_555 1_555
C40_9 C39_9 1_555 1_555
H30_9 C40_9 1_555 1_555
C41_9 C40_9 1_555 1_555
C42_9 C41_9 1_555 1_555
C43_9 C41_9 1_555 1_555
H31_9 C43_9 1_555 1_555
C44_9 C38_9 1_555 1_555
H32_9 C44_9 1_555 1_555
C45_9 C33_9 1_555 1_555
H33_9 C45_9 1_555 1_555
C46_9 C30_9 1_555 1_555
H34_9 C46_9 1_555 1_555
Co6_6 O4_9 1_555 1_555
Co5_3 N2_9 1_555 1_555
Co7_3 O8_9 1_555 1_555
O13_9 Co4 1_555 1_555
O14_9 Co3_5 1_555 1_555
N7_9 Co4 1_555 1_555
N8_9 Co3_5 1_555 1_555
C8_9 C9_9 1_555 1_555
C15_9 C16_9 1_555 1_555
C17_9 C18_9 1_555 1_555
C22_9 C23_9 1_555 1_555
C25_9 C26_9 1_555 1_555
C27_9 C28_9 1_555 1_555
C36_9 C37_9 1_555 1_555
C43_9 C44_9 1_555 1_555
C45_9 C46_9 1_555 1_555
Co8_4 O1_4 1_555 1_555
O1_4 H1_10 1_555 1_555
O2_10 Co8_4 1_555 1_555
O3_4 C1_10 1_555 1_555
O13_8 C14_10 1_555 1_555
O5_10 C14_10 1_555 1_555
N1_10 C6_10 1_555 1_555
N7_9 C7_10 1_555 1_555
C1_10 O2_10 1_555 1_555
C2_10 C1_10 1_555 1_555
C3_10 C2_10 1_555 1_555
H2_10 C3_10 1_555 1_555
C4_10 C3_10 1_555 1_555
H3_10 C4_10 1_555 1_555
C5_10 C4_10 1_555 1_555
C6_10 C5_10 1_555 1_555
H4_10 C6_10 1_555 1_555
C7_10 N1_10 1_555 1_555
H5_10 C7_10 1_555 1_555
C8_10 N7_9 1_555 1_555
H6_10 C8_10 1_555 1_555
C9_10 N1_10 1_555 1_555
H7_10 C9_10 1_555 1_555
C10_10 C6_10 1_555 1_555
C11_10 C10_10 1_555 1_555
H8_10 C11_10 1_555 1_555
C12_10 C11_10 1_555 1_555
H9_10 C12_10 1_555 1_555
C13_10 C12_10 1_555 1_555
C14_10 C13_10 1_555 1_555
C15_10 C13_10 1_555 1_555
H10_10 C15_10 1_555 1_555
C16_10 C10_10 1_555 1_555
H11_10 C16_10 1_555 1_555
C17_10 C5_10 1_555 1_555
H12_10 C17_10 1_555 1_555
C18_10 C2_10 1_555 1_555
H13_10 C18_10 1_555 1_555
N3_10 Co8_4 1_555 1_555
C19_10 N3_10 1_555 1_555
H14_10 C19_10 1_555 1_555
C20_10 C19_10 1_555 1_555
H15_10 C20_10 1_555 1_555
C21_10 C20_10 1_555 1_555
C22_10 C21_10 1_555 1_555
H16_10 C22_10 1_555 1_555
C23_10 N3_10 1_555 1_555
H17_10 C23_10 1_555 1_555
H18_10 O1_4 1_555 1_555
N4_10 C24_10 1_555 1_555
C24_10 H19_10 1_555 1_555
C25_10 C24_10 1_555 1_555
H20_10 C25_10 1_555 1_555
C26_10 C21_10 1_555 1_555
C27_10 C26_10 1_555 1_555
H21_10 C27_10 1_555 1_555
C28_10 N4_10 1_555 1_555
H22_10 C28_10 1_555 1_555
Co6_6 N4_10 1_555 1_555
O6_10 Co6_6 1_555 1_555
O7_7 C29_10 1_555 1_555
N5_10 C34_10 1_555 1_555
C29_10 O6_10 1_555 1_555
C30_10 C29_10 1_555 1_555
C31_10 C30_10 1_555 1_555
H23_10 C31_10 1_555 1_555
C32_10 C31_10 1_555 1_555
C33_10 C32_10 1_555 1_555
C34_10 C33_10 1_555 1_555
H25_10 C34_10 1_555 1_555
C35_10 N5_10 1_555 1_555
H27_10 C36_10 1_555 1_555
C37_10 N5_10 1_555 1_555
H28_10 C37_10 1_555 1_555
C38_10 C34_10 1_555 1_555
H31_10 C43_10 1_555 1_555
C44_10 C38_10 1_555 1_555
H32_10 C44_10 1_555 1_555
C45_10 C33_10 1_555 1_555
H33_10 C45_10 1_555 1_555
C46_10 C30_10 1_555 1_555
H34_10 C46_10 1_555 1_555
Co7 O7_7 1_555 1_555
Co6 O1_4 1_555 1_555
O10_9 Co6_6 1_555 1_555
O11_7 Co6_6 1_555 1_555
O12_4 Co8_4 1_555 1_555
O3_4 Co6 1_555 1_555
C8_10 C9_10 1_555 1_555
C15_10 C16_10 1_555 1_555
C17_10 C18_10 1_555 1_555
C22_10 C23_10 1_555 1_555
C25_10 C26_10 1_555 1_555
C27_10 C28_10 1_555 1_555
C36_10 C37_10 1_555 1_555
C43_10 C44_10 1_555 1_555
C45_10 C46_10 1_555 1_555
Co7 O10_9 1_555 1_555
O14_6 C42_10 1_555 1_555
O9_10 C42_10 1_555 1_555
H29_10 C39_10 1_555 1_555
C40_10 C39_10 1_555 1_555
H30_10 C40_10 1_555 1_555
C41_10 C40_10 1_555 1_555
C42_10 C41_10 1_555 1_555
O13_9 C14_11 1_555 1_555
O5_11 C14_11 1_555 1_555
N1_11 C6_11 1_555 1_555
N7_7 C7_11 1_555 1_555
C3_11 C2_11 1_555 1_555
H2_11 C3_11 1_555 1_555
C4_11 C3_11 1_555 1_555
H3_11 C4_11 1_555 1_555
C5_11 C4_11 1_555 1_555
C6_11 C5_11 1_555 1_555
H4_11 C6_11 1_555 1_555
C7_11 N1_11 1_555 1_555
H5_11 C7_11 1_555 1_555
C8_11 N7_7 1_555 1_555
H6_11 C8_11 1_555 1_555
C9_11 N1_11 1_555 1_555
H7_11 C9_11 1_555 1_555
C10_11 C6_11 1_555 1_555
C11_11 C10_11 1_555 1_555
H8_11 C11_11 1_555 1_555
C12_11 C11_11 1_555 1_555
H9_11 C12_11 1_555 1_555
C13_11 C12_11 1_555 1_555
C14_11 C13_11 1_555 1_555
C15_11 C13_11 1_555 1_555
H10_11 C15_11 1_555 1_555
C16_11 C10_11 1_555 1_555
H11_11 C16_11 1_555 1_555
C17_11 C5_11 1_555 1_555
H12_11 C17_11 1_555 1_555
C18_11 C2_11 1_555 1_555
H13_11 C18_11 1_555 1_555
N4_11 C24_11 1_555 1_555
C24_11 H19_11 1_555 1_555
C25_11 C24_11 1_555 1_555
H20_11 C25_11 1_555 1_555
C27_11 C26_11 1_555 1_555
H21_11 C27_11 1_555 1_555
C28_11 N4_11 1_555 1_555
H22_11 C28_11 1_555 1_555
Co5_3 N4_11 1_555 1_555
O6_11 Co5_3 1_555 1_555
O7_8 C29_11 1_555 1_555
C29_11 O6_11 1_555 1_555
Co8 O7_8 1_555 1_555
O10_10 Co5_3 1_555 1_555
O11_8 Co5_3 1_555 1_555
C8_11 C9_11 1_555 1_555
C15_11 C16_11 1_555 1_555
C17_11 C18_11 1_555 1_555
C25_11 C26_11 1_555 1_555
C27_11 C28_11 1_555 1_555
Co8 O10_10 1_555 1_555
Co7_2 O1_5 1_555 1_555
O1_5 H1_11 1_555 1_555
O2_11 Co7_2 1_555 1_555
O3_5 C1_11 1_555 1_555
C1_11 O2_11 1_555 1_555
N3_11 Co7_2 1_555 1_555
C19_11 N3_11 1_555 1_555
H14_11 C19_11 1_555 1_555
C20_11 C19_11 1_555 1_555
H15_11 C20_11 1_555 1_555
C21_11 C20_11 1_555 1_555
C22_11 C21_11 1_555 1_555
H16_11 C22_11 1_555 1_555
C23_11 N3_11 1_555 1_555
H17_11 C23_11 1_555 1_555
H18_11 O1_5 1_555 1_555
N5_11 C34_11 1_555 1_555
C31_11 C30_11 1_555 1_555
H23_11 C31_11 1_555 1_555
C32_11 C31_11 1_555 1_555
C33_11 C32_11 1_555 1_555
C34_11 C33_11 1_555 1_555
H25_11 C34_11 1_555 1_555
C35_11 N5_11 1_555 1_555
H27_11 C36_11 1_555 1_555
C37_11 N5_11 1_555 1_555
H28_11 C37_11 1_555 1_555
C38_11 C34_11 1_555 1_555
H31_11 C43_11 1_555 1_555
C44_11 C38_11 1_555 1_555
H32_11 C44_11 1_555 1_555
C45_11 C33_11 1_555 1_555
H33_11 C45_11 1_555 1_555
C46_11 C30_11 1_555 1_555
H34_11 C46_11 1_555 1_555
Co6_2 O1_5 1_555 1_555
O12_5 Co7_2 1_555 1_555
O3_5 Co6_2 1_555 1_555
C22_11 C23_11 1_555 1_555
C36_11 C37_11 1_555 1_555
C43_11 C44_11 1_555 1_555
C45_11 C46_11 1_555 1_555
O14_4 C42_11 1_555 1_555
O9_11 C42_11 1_555 1_555
H29_11 C39_11 1_555 1_555
C40_11 C39_11 1_555 1_555
H30_11 C40_11 1_555 1_555
C41_11 C40_11 1_555 1_555
C42_11 C41_11 1_555 1_555
Co8_3 O1_6 1_555 1_555
O1_6 H1_12 1_555 1_555
O2_12 Co8_3 1_555 1_555
O3_6 C1_12 1_555 1_555
C1_12 O2_12 1_555 1_555
N3_12 Co8_3 1_555 1_555
C19_12 N3_12 1_555 1_555
H14_12 C19_12 1_555 1_555
C20_12 C19_12 1_555 1_555
H15_12 C20_12 1_555 1_555
C21_12 C20_12 1_555 1_555
C22_12 C21_12 1_555 1_555
H16_12 C22_12 1_555 1_555
C23_12 N3_12 1_555 1_555
H17_12 C23_12 1_555 1_555
H18_12 O1_6 1_555 1_555
N5_12 C34_12 1_555 1_555
C31_12 C30_12 1_555 1_555
H23_12 C31_12 1_555 1_555
C32_12 C31_12 1_555 1_555
C33_12 C32_12 1_555 1_555
C34_12 C33_12 1_555 1_555
H25_12 C34_12 1_555 1_555
C35_12 N5_12 1_555 1_555
H27_12 C36_12 1_555 1_555
C37_12 N5_12 1_555 1_555
H28_12 C37_12 1_555 1_555
C38_12 C34_12 1_555 1_555
H31_12 C43_12 1_555 1_555
C44_12 C38_12 1_555 1_555
H32_12 C44_12 1_555 1_555
C45_12 C33_12 1_555 1_555
H33_12 C45_12 1_555 1_555
C46_12 C30_12 1_555 1_555
H34_12 C46_12 1_555 1_555
Co5 O1_6 1_555 1_555
O12_6 Co8_3 1_555 1_555
O3_6 Co5 1_555 1_555
C22_12 C23_12 1_555 1_555
C36_12 C37_12 1_555 1_555
C43_12 C44_12 1_555 1_555
C45_12 C46_12 1_555 1_555
O14_5 C42_12 1_555 1_555
O9_12 C42_12 1_555 1_555
H29_12 C39_12 1_555 1_555
C40_12 C39_12 1_555 1_555
H30_12 C40_12 1_555 1_555
C41_12 C40_12 1_555 1_555
C42_12 C41_12 1_555 1_555
O13_7 C14_12 1_555 1_555
O5_12 C14_12 1_555 1_555
N1_12 C6_12 1_555 1_555
N7_8 C7_12 1_555 1_555
C3_12 C2_12 1_555 1_555
H2_12 C3_12 1_555 1_555
C4_12 C3_12 1_555 1_555
H3_12 C4_12 1_555 1_555
C5_12 C4_12 1_555 1_555
C6_12 C5_12 1_555 1_555
H4_12 C6_12 1_555 1_555
C7_12 N1_12 1_555 1_555
H5_12 C7_12 1_555 1_555
C8_12 N7_8 1_555 1_555
H6_12 C8_12 1_555 1_555
C9_12 N1_12 1_555 1_555
H7_12 C9_12 1_555 1_555
C10_12 C6_12 1_555 1_555
C11_12 C10_12 1_555 1_555
H8_12 C11_12 1_555 1_555
C12_12 C11_12 1_555 1_555
H9_12 C12_12 1_555 1_555
C13_12 C12_12 1_555 1_555
C14_12 C13_12 1_555 1_555
C15_12 C13_12 1_555 1_555
H10_12 C15_12 1_555 1_555
C16_12 C10_12 1_555 1_555
H11_12 C16_12 1_555 1_555
C17_12 C5_12 1_555 1_555
H12_12 C17_12 1_555 1_555
C18_12 C2_12 1_555 1_555
H13_12 C18_12 1_555 1_555
N4_12 C24_12 1_555 1_555
C24_12 H19_12 1_555 1_555
C25_12 C24_12 1_555 1_555
H20_12 C25_12 1_555 1_555
C27_12 C26_12 1_555 1_555
H21_12 C27_12 1_555 1_555
C28_12 N4_12 1_555 1_555
H22_12 C28_12 1_555 1_555
Co6_5 N4_12 1_555 1_555
O6_12 Co6_5 1_555 1_555
O7_9 C29_12 1_555 1_555
C29_12 O6_12 1_555 1_555
Co8_2 O7_9 1_555 1_555
O10_11 Co6_5 1_555 1_555
O11_9 Co6_5 1_555 1_555
C8_12 C9_12 1_555 1_555
C15_12 C16_12 1_555 1_555
C17_12 C18_12 1_555 1_555
C25_12 C26_12 1_555 1_555
C27_12 C28_12 1_555 1_555
Co8_2 O10_11 1_555 1_555
O10_9 H1_13 1_555 1_555
H18_13 O10_9 1_555 1_555
O10_10 H1_14 1_555 1_555
H18_14 O10_10 1_555 1_555
O10_11 H1_15 1_555 1_555
H18_15 O10_11 1_555 1_555
O13_5 C14_13 1_555 1_555
O5_13 C14_13 1_555 1_555
H9_13 C12_13 1_555 1_555
C13_13 C12_13 1_555 1_555
C14_13 C13_13 1_555 1_555
C15_13 C13_13 1_555 1_555
H10_13 C15_13 1_555 1_555
H11_13 C16_13 1_555 1_555
C15_13 C16_13 1_555 1_555
Co7_3 O10_12 1_555 1_555
O2_13 Co8_2 1_555 1_555
O11_9 C1_13 1_555 1_555
N1_13 C6_13 1_555 1_555
N7_6 C7_13 1_555 1_555
C1_13 O2_13 1_555 1_555
C2_13 C1_13 1_555 1_555
C3_13 C2_13 1_555 1_555
H2_13 C3_13 1_555 1_555
C4_13 C3_13 1_555 1_555
H3_13 C4_13 1_555 1_555
C5_13 C4_13 1_555 1_555
C6_13 C5_13 1_555 1_555
H4_13 C6_13 1_555 1_555
C7_13 N1_13 1_555 1_555
H5_13 C7_13 1_555 1_555
C8_13 N7_6 1_555 1_555
C9_13 N1_13 1_555 1_555
H7_13 C9_13 1_555 1_555
C10_13 C6_13 1_555 1_555
C11_13 C10_13 1_555 1_555
H8_13 C11_13 1_555 1_555
C17_13 C5_13 1_555 1_555
H12_13 C17_13 1_555 1_555
C18_13 C2_13 1_555 1_555
H13_13 C18_13 1_555 1_555
C8_13 C9_13 1_555 1_555
C17_13 C18_13 1_555 1_555
C19_13 N3_13 1_555 1_555
H14_13 C19_13 1_555 1_555
C20_13 C19_13 1_555 1_555
H15_13 C20_13 1_555 1_555
C21_13 C20_13 1_555 1_555
C22_13 C21_13 1_555 1_555
H16_13 C22_13 1_555 1_555
C23_13 N3_13 1_555 1_555
H17_13 C23_13 1_555 1_555
N4_13 C24_13 1_555 1_555
C25_13 C24_13 1_555 1_555
C26_13 C21_13 1_555 1_555
C27_13 C26_13 1_555 1_555
H21_13 C27_13 1_555 1_555
C28_13 N4_13 1_555 1_555
H22_13 C28_13 1_555 1_555
Co6_4 N4_13 1_555 1_555
O6_13 Co6_4 1_555 1_555
O7_10 C29_13 1_555 1_555
O14_3 C42_13 1_555 1_555
O9_13 C42_13 1_555 1_555
N5_13 C34_13 1_555 1_555
N8_2 C35_13 1_555 1_555
C29_13 O6_13 1_555 1_555
C30_13 C29_13 1_555 1_555
C31_13 C30_13 1_555 1_555
H23_13 C31_13 1_555 1_555
C32_13 C31_13 1_555 1_555
H24_13 C32_13 1_555 1_555
C33_13 C32_13 1_555 1_555
C34_13 C33_13 1_555 1_555
H25_13 C34_13 1_555 1_555
C35_13 N5_13 1_555 1_555
H26_13 C35_13 1_555 1_555
C36_13 N8_2 1_555 1_555
H27_13 C36_13 1_555 1_555
C37_13 N5_13 1_555 1_555
H28_13 C37_13 1_555 1_555
C38_13 C34_13 1_555 1_555
C39_13 C38_13 1_555 1_555
H29_13 C39_13 1_555 1_555
C40_13 C39_13 1_555 1_555
H30_13 C40_13 1_555 1_555
C41_13 C40_13 1_555 1_555
C42_13 C41_13 1_555 1_555
C43_13 C41_13 1_555 1_555
H31_13 C43_13 1_555 1_555
C44_13 C38_13 1_555 1_555
H32_13 C44_13 1_555 1_555
C45_13 C33_13 1_555 1_555
H33_13 C45_13 1_555 1_555
C46_13 C30_13 1_555 1_555
H34_13 C46_13 1_555 1_555
O10_13 Co6_4 1_555 1_555
C22_13 C23_13 1_555 1_555
C25_13 C26_13 1_555 1_555
C27_13 C28_13 1_555 1_555
C36_13 C37_13 1_555 1_555
C43_13 C44_13 1_555 1_555
C45_13 C46_13 1_555 1_555
O2_14 Co7 1_555 1_555
O11_7 C1_14 1_555 1_555
O13_6 C14_14 1_555 1_555
O5_14 C14_14 1_555 1_555
N1_14 C6_14 1_555 1_555
N7_4 C7_14 1_555 1_555
C1_14 O2_14 1_555 1_555
C2_14 C1_14 1_555 1_555
C3_14 C2_14 1_555 1_555
H2_14 C3_14 1_555 1_555
C4_14 C3_14 1_555 1_555
H3_14 C4_14 1_555 1_555
C5_14 C4_14 1_555 1_555
C6_14 C5_14 1_555 1_555
H4_14 C6_14 1_555 1_555
C7_14 N1_14 1_555 1_555
H5_14 C7_14 1_555 1_555
C8_14 N7_4 1_555 1_555
C9_14 N1_14 1_555 1_555
H7_14 C9_14 1_555 1_555
C10_14 C6_14 1_555 1_555
C11_14 C10_14 1_555 1_555
H8_14 C11_14 1_555 1_555
C12_14 C11_14 1_555 1_555
H9_14 C12_14 1_555 1_555
C13_14 C12_14 1_555 1_555
C14_14 C13_14 1_555 1_555
C15_14 C13_14 1_555 1_555
H10_14 C15_14 1_555 1_555
C16_14 C10_14 1_555 1_555
H11_14 C16_14 1_555 1_555
C17_14 C5_14 1_555 1_555
H12_14 C17_14 1_555 1_555
C18_14 C2_14 1_555 1_555
H13_14 C18_14 1_555 1_555
C8_14 C9_14 1_555 1_555
C15_14 C16_14 1_555 1_555
C17_14 C18_14 1_555 1_555
C19_14 N3_14 1_555 1_555
H14_14 C19_14 1_555 1_555
C20_14 C19_14 1_555 1_555
H15_14 C20_14 1_555 1_555
C21_14 C20_14 1_555 1_555
C22_14 C21_14 1_555 1_555
H16_14 C22_14 1_555 1_555
C23_14 N3_14 1_555 1_555
H17_14 C23_14 1_555 1_555
N4_14 C24_14 1_555 1_555
C24_14 H19_14 1_555 1_555
C25_14 C24_14 1_555 1_555
H20_14 C25_14 1_555 1_555
C26_14 C21_14 1_555 1_555
C27_14 C26_14 1_555 1_555
H21_14 C27_14 1_555 1_555
C28_14 N4_14 1_555 1_555
H22_14 C28_14 1_555 1_555
Co5_2 N4_14 1_555 1_555
O6_14 Co5_2 1_555 1_555
O7_11 C29_14 1_555 1_555
O14 C42_14 1_555 1_555
O9_14 C42_14 1_555 1_555
N5_14 C34_14 1_555 1_555
N8_3 C35_14 1_555 1_555
C29_14 O6_14 1_555 1_555
C30_14 C29_14 1_555 1_555
C31_14 C30_14 1_555 1_555
H23_14 C31_14 1_555 1_555
C32_14 C31_14 1_555 1_555
H24_14 C32_14 1_555 1_555
C33_14 C32_14 1_555 1_555
C34_14 C33_14 1_555 1_555
H25_14 C34_14 1_555 1_555
C35_14 N5_14 1_555 1_555
H26_14 C35_14 1_555 1_555
C36_14 N8_3 1_555 1_555
H27_14 C36_14 1_555 1_555
C37_14 N5_14 1_555 1_555
H28_14 C37_14 1_555 1_555
C38_14 C34_14 1_555 1_555
C39_14 C38_14 1_555 1_555
H29_14 C39_14 1_555 1_555
C40_14 C39_14 1_555 1_555
H30_14 C40_14 1_555 1_555
C41_14 C40_14 1_555 1_555
C42_14 C41_14 1_555 1_555
C43_14 C41_14 1_555 1_555
H31_14 C43_14 1_555 1_555
C44_14 C38_14 1_555 1_555
H32_14 C44_14 1_555 1_555
C45_14 C33_14 1_555 1_555
H33_14 C45_14 1_555 1_555
C46_14 C30_14 1_555 1_555
H34_14 C46_14 1_555 1_555
Co8_5 O7_11 1_555 1_555
O10_14 Co5_2 1_555 1_555
O11_11 Co5_2 1_555 1_555
C22_14 C23_14 1_555 1_555
C25_14 C26_14 1_555 1_555
C27_14 C28_14 1_555 1_555
C36_14 C37_14 1_555 1_555
C43_14 C44_14 1_555 1_555
C45_14 C46_14 1_555 1_555
Co8_5 O10_14 1_555 1_555
O2_15 Co8 1_555 1_555
O11_8 C1_15 1_555 1_555
N1_15 C6_15 1_555 1_555
N7_5 C7_15 1_555 1_555
C1_15 O2_15 1_555 1_555
C2_15 C1_15 1_555 1_555
C3_15 C2_15 1_555 1_555
H2_15 C3_15 1_555 1_555
C4_15 C3_15 1_555 1_555
H3_15 C4_15 1_555 1_555
C5_15 C4_15 1_555 1_555
C6_15 C5_15 1_555 1_555
H4_15 C6_15 1_555 1_555
C7_15 N1_15 1_555 1_555
H5_15 C7_15 1_555 1_555
C8_15 N7_5 1_555 1_555
H6_15 C8_15 1_555 1_555
C9_15 N1_15 1_555 1_555
H7_15 C9_15 1_555 1_555
C10_15 C6_15 1_555 1_555
C11_15 C10_15 1_555 1_555
H8_15 C11_15 1_555 1_555
C17_15 C5_15 1_555 1_555
H12_15 C17_15 1_555 1_555
C18_15 C2_15 1_555 1_555
H13_15 C18_15 1_555 1_555
C8_15 C9_15 1_555 1_555
C17_15 C18_15 1_555 1_555
C19_15 N3_15 1_555 1_555
H14_15 C19_15 1_555 1_555
C20_15 C19_15 1_555 1_555
H15_15 C20_15 1_555 1_555
C21_15 C20_15 1_555 1_555
C22_15 C21_15 1_555 1_555
H16_15 C22_15 1_555 1_555
C23_15 N3_15 1_555 1_555
H17_15 C23_15 1_555 1_555
N4_15 C24_15 1_555 1_555
C25_15 C24_15 1_555 1_555
C26_15 C21_15 1_555 1_555
C27_15 C26_15 1_555 1_555
H21_15 C27_15 1_555 1_555
C28_15 N4_15 1_555 1_555
H22_15 C28_15 1_555 1_555
Co6_3 N4_15 1_555 1_555
O6_15 Co6_3 1_555 1_555
O7_12 C29_15 1_555 1_555
O14_2 C42_15 1_555 1_555
O9_15 C42_15 1_555 1_555
N5_15 C34_15 1_555 1_555
N8 C35_15 1_555 1_555
C29_15 O6_15 1_555 1_555
C30_15 C29_15 1_555 1_555
C31_15 C30_15 1_555 1_555
H23_15 C31_15 1_555 1_555
C32_15 C31_15 1_555 1_555
H24_15 C32_15 1_555 1_555
C33_15 C32_15 1_555 1_555
C34_15 C33_15 1_555 1_555
H25_15 C34_15 1_555 1_555
C35_15 N5_15 1_555 1_555
H26_15 C35_15 1_555 1_555
C36_15 N8 1_555 1_555
H27_15 C36_15 1_555 1_555
C37_15 N5_15 1_555 1_555
H28_15 C37_15 1_555 1_555
C38_15 C34_15 1_555 1_555
C39_15 C38_15 1_555 1_555
H29_15 C39_15 1_555 1_555
C40_15 C39_15 1_555 1_555
H30_15 C40_15 1_555 1_555
C41_15 C40_15 1_555 1_555
C42_15 C41_15 1_555 1_555
C43_15 C41_15 1_555 1_555
H31_15 C43_15 1_555 1_555
C44_15 C38_15 1_555 1_555
H32_15 C44_15 1_555 1_555
C45_15 C33_15 1_555 1_555
H33_15 C45_15 1_555 1_555
C46_15 C30_15 1_555 1_555
H34_15 C46_15 1_555 1_555
O10_15 Co6_3 1_555 1_555
C22_15 C23_15 1_555 1_555
C25_15 C26_15 1_555 1_555
C27_15 C28_15 1_555 1_555
C36_15 C37_15 1_555 1_555
C43_15 C44_15 1_555 1_555
C45_15 C46_15 1_555 1_555
O13_4 C14_15 1_555 1_555
O5_15 C14_15 1_555 1_555
H9_15 C12_15 1_555 1_555
C13_15 C12_15 1_555 1_555
C14_15 C13_15 1_555 1_555
C15_15 C13_15 1_555 1_555
H10_15 C15_15 1_555 1_555
H11_15 C16_15 1_555 1_555
C15_15 C16_15 1_555 1_555
Co8_6 O10_16 1_555 1_555
O10_12 H1_16 1_555 1_555
H18_16 O10_13 1_555 1_555
O10_14 H1_17 1_555 1_555
H18_17 O10_14 1_555 1_555
H18_18 O10_15 1_555 1_555
O10_16 H1_18 1_555 1_555
O14_9 C42_16 1_555 1_555
O9_16 C42_16 1_555 1_555
H30_16 C40_16 1_555 1_555
C41_16 C40_16 1_555 1_555
C42_16 C41_16 1_555 1_555
C43_16 C41_16 1_555 1_555
H31_16 C43_16 1_555 1_555
H32_16 C44_16 1_555 1_555
C43_16 C44_16 1_555 1_555
O2_16 Co8_6 1_555 1_555
O11_12 C1_16 1_555 1_555
O13_2 C14_16 1_555 1_555
O5_16 C14_16 1_555 1_555
N1_16 C6_16 1_555 1_555
N7_3 C7_16 1_555 1_555
C1_16 O2_16 1_555 1_555
C2_16 C1_16 1_555 1_555
C3_16 C2_16 1_555 1_555
H2_16 C3_16 1_555 1_555
C4_16 C3_16 1_555 1_555
H3_16 C4_16 1_555 1_555
C5_16 C4_16 1_555 1_555
C6_16 C5_16 1_555 1_555
H4_16 C6_16 1_555 1_555
C7_16 N1_16 1_555 1_555
H5_16 C7_16 1_555 1_555
C8_16 N7_3 1_555 1_555
H6_16 C8_16 1_555 1_555
C9_16 N1_16 1_555 1_555
H7_16 C9_16 1_555 1_555
C10_16 C6_16 1_555 1_555
C11_16 C10_16 1_555 1_555
H8_16 C11_16 1_555 1_555
C12_16 C11_16 1_555 1_555
H9_16 C12_16 1_555 1_555
C13_16 C12_16 1_555 1_555
C14_16 C13_16 1_555 1_555
C15_16 C13_16 1_555 1_555
H10_16 C15_16 1_555 1_555
C16_16 C10_16 1_555 1_555
H11_16 C16_16 1_555 1_555
C17_16 C5_16 1_555 1_555
H12_16 C17_16 1_555 1_555
C18_16 C2_16 1_555 1_555
H13_16 C18_16 1_555 1_555
N3_16 Co8_6 1_555 1_555
C19_16 N3_16 1_555 1_555
C20_16 C19_16 1_555 1_555
C21_16 C20_16 1_555 1_555
C22_16 C21_16 1_555 1_555
H16_16 C22_16 1_555 1_555
C23_16 N3_16 1_555 1_555
H17_16 C23_16 1_555 1_555
N4_16 C24_16 1_555 1_555
C24_16 H19_16 1_555 1_555
C25_16 C24_16 1_555 1_555
H20_16 C25_16 1_555 1_555
C26_16 C21_16 1_555 1_555
C27_16 C26_16 1_555 1_555
H21_16 C27_16 1_555 1_555
C28_16 N4_16 1_555 1_555
H22_16 C28_16 1_555 1_555
Co6_2 N4_16 1_555 1_555
O6_16 Co6_2 1_555 1_555
O12_5 C29_16 1_555 1_555
N5_16 C34_16 1_555 1_555
N8_8 C35_16 1_555 1_555
C29_16 O6_16 1_555 1_555
C30_16 C29_16 1_555 1_555
C31_16 C30_16 1_555 1_555
H23_16 C31_16 1_555 1_555
C32_16 C31_16 1_555 1_555
H24_16 C32_16 1_555 1_555
C33_16 C32_16 1_555 1_555
C34_16 C33_16 1_555 1_555
H25_16 C34_16 1_555 1_555
C35_16 N5_16 1_555 1_555
H26_16 C35_16 1_555 1_555
C36_16 N8_8 1_555 1_555
C37_16 N5_16 1_555 1_555
H28_16 C37_16 1_555 1_555
C38_16 C34_16 1_555 1_555
C39_16 C38_16 1_555 1_555
H29_16 C39_16 1_555 1_555
C45_16 C33_16 1_555 1_555
H33_16 C45_16 1_555 1_555
C46_16 C30_16 1_555 1_555
H34_16 C46_16 1_555 1_555
C8_16 C9_16 1_555 1_555
C15_16 C16_16 1_555 1_555
C17_16 C18_16 1_555 1_555
C22_16 C23_16 1_555 1_555
C25_16 C26_16 1_555 1_555
C27_16 C28_16 1_555 1_555
C36_16 C37_16 1_555 1_555
C45_16 C46_16 1_555 1_555
O2_17 Co7_3 1_555 1_555
O11_10 C1_17 1_555 1_555
O13_3 C14_17 1_555 1_555
O5_17 C14_17 1_555 1_555
N1_17 C6_17 1_555 1_555
N7 C7_17 1_555 1_555
C1_17 O2_17 1_555 1_555
C2_17 C1_17 1_555 1_555
C3_17 C2_17 1_555 1_555
H2_17 C3_17 1_555 1_555
C4_17 C3_17 1_555 1_555
H3_17 C4_17 1_555 1_555
C5_17 C4_17 1_555 1_555
C6_17 C5_17 1_555 1_555
H4_17 C6_17 1_555 1_555
C7_17 N1_17 1_555 1_555
H5_17 C7_17 1_555 1_555
C8_17 N7 1_555 1_555
H6_17 C8_17 1_555 1_555
C9_17 N1_17 1_555 1_555
H7_17 C9_17 1_555 1_555
C10_17 C6_17 1_555 1_555
C11_17 C10_17 1_555 1_555
H8_17 C11_17 1_555 1_555
C12_17 C11_17 1_555 1_555
H9_17 C12_17 1_555 1_555
C13_17 C12_17 1_555 1_555
C14_17 C13_17 1_555 1_555
C15_17 C13_17 1_555 1_555
H10_17 C15_17 1_555 1_555
C16_17 C10_17 1_555 1_555
H11_17 C16_17 1_555 1_555
C17_17 C5_17 1_555 1_555
H12_17 C17_17 1_555 1_555
C18_17 C2_17 1_555 1_555
H13_17 C18_17 1_555 1_555
N3_17 Co7_3 1_555 1_555
C19_17 N3_17 1_555 1_555
C20_17 C19_17 1_555 1_555
C21_17 C20_17 1_555 1_555
C22_17 C21_17 1_555 1_555
H16_17 C22_17 1_555 1_555
C23_17 N3_17 1_555 1_555
H17_17 C23_17 1_555 1_555
N4_17 C24_17 1_555 1_555
C24_17 H19_17 1_555 1_555
C25_17 C24_17 1_555 1_555
H20_17 C25_17 1_555 1_555
C26_17 C21_17 1_555 1_555
C27_17 C26_17 1_555 1_555
H21_17 C27_17 1_555 1_555
C28_17 N4_17 1_555 1_555
H22_17 C28_17 1_555 1_555
Co5 N4_17 1_555 1_555
O6_17 Co5 1_555 1_555
O12_6 C29_17 1_555 1_555
N5_17 C34_17 1_555 1_555
N8_9 C35_17 1_555 1_555
C29_17 O6_17 1_555 1_555
C30_17 C29_17 1_555 1_555
C31_17 C30_17 1_555 1_555
H23_17 C31_17 1_555 1_555
C32_17 C31_17 1_555 1_555
H24_17 C32_17 1_555 1_555
C33_17 C32_17 1_555 1_555
C34_17 C33_17 1_555 1_555
H25_17 C34_17 1_555 1_555
C35_17 N5_17 1_555 1_555
H26_17 C35_17 1_555 1_555
C36_17 N8_9 1_555 1_555
H27_17 C36_17 1_555 1_555
C37_17 N5_17 1_555 1_555
H28_17 C37_17 1_555 1_555
C38_17 C34_17 1_555 1_555
C39_17 C38_17 1_555 1_555
H29_17 C39_17 1_555 1_555
C45_17 C33_17 1_555 1_555
H33_17 C45_17 1_555 1_555
C46_17 C30_17 1_555 1_555
H34_17 C46_17 1_555 1_555
C8_17 C9_17 1_555 1_555
C15_17 C16_17 1_555 1_555
C17_17 C18_17 1_555 1_555
C22_17 C23_17 1_555 1_555
C25_17 C26_17 1_555 1_555
C27_17 C28_17 1_555 1_555
C36_17 C37_17 1_555 1_555
C45_17 C46_17 1_555 1_555
O14_7 C42_17 1_555 1_555
O9_17 C42_17 1_555 1_555
H30_17 C40_17 1_555 1_555
C41_17 C40_17 1_555 1_555
C42_17 C41_17 1_555 1_555
C43_17 C41_17 1_555 1_555
H31_17 C43_17 1_555 1_555
H32_17 C44_17 1_555 1_555
C43_17 C44_17 1_555 1_555
O2_18 Co8_5 1_555 1_555
O11_11 C1_18 1_555 1_555
O13 C14_18 1_555 1_555
O5_18 C14_18 1_555 1_555
N1_18 C6_18 1_555 1_555
N7_2 C7_18 1_555 1_555
C1_18 O2_18 1_555 1_555
C2_18 C1_18 1_555 1_555
C3_18 C2_18 1_555 1_555
H2_18 C3_18 1_555 1_555
C4_18 C3_18 1_555 1_555
H3_18 C4_18 1_555 1_555
C5_18 C4_18 1_555 1_555
C6_18 C5_18 1_555 1_555
H4_18 C6_18 1_555 1_555
C7_18 N1_18 1_555 1_555
H5_18 C7_18 1_555 1_555
C8_18 N7_2 1_555 1_555
H6_18 C8_18 1_555 1_555
C9_18 N1_18 1_555 1_555
H7_18 C9_18 1_555 1_555
C10_18 C6_18 1_555 1_555
C11_18 C10_18 1_555 1_555
H8_18 C11_18 1_555 1_555
C12_18 C11_18 1_555 1_555
H9_18 C12_18 1_555 1_555
C13_18 C12_18 1_555 1_555
C14_18 C13_18 1_555 1_555
C15_18 C13_18 1_555 1_555
H10_18 C15_18 1_555 1_555
C16_18 C10_18 1_555 1_555
H11_18 C16_18 1_555 1_555
C17_18 C5_18 1_555 1_555
H12_18 C17_18 1_555 1_555
C18_18 C2_18 1_555 1_555
H13_18 C18_18 1_555 1_555
N3_18 Co8_5 1_555 1_555
C19_18 N3_18 1_555 1_555
H14_18 C19_18 1_555 1_555
C20_18 C19_18 1_555 1_555
H15_18 C20_18 1_555 1_555
C21_18 C20_18 1_555 1_555
C22_18 C21_18 1_555 1_555
H16_18 C22_18 1_555 1_555
C23_18 N3_18 1_555 1_555
H17_18 C23_18 1_555 1_555
N4_18 C24_18 1_555 1_555
C24_18 H19_18 1_555 1_555
C25_18 C24_18 1_555 1_555
H20_18 C25_18 1_555 1_555
C26_18 C21_18 1_555 1_555
C27_18 C26_18 1_555 1_555
H21_18 C27_18 1_555 1_555
C28_18 N4_18 1_555 1_555
H22_18 C28_18 1_555 1_555
Co6 N4_18 1_555 1_555
O6_18 Co6 1_555 1_555
O12_4 C29_18 1_555 1_555
O14_8 C42_18 1_555 1_555
O9_18 C42_18 1_555 1_555
N5_18 C34_18 1_555 1_555
N8_7 C35_18 1_555 1_555
C29_18 O6_18 1_555 1_555
C30_18 C29_18 1_555 1_555
C31_18 C30_18 1_555 1_555
H23_18 C31_18 1_555 1_555
C32_18 C31_18 1_555 1_555
H24_18 C32_18 1_555 1_555
C33_18 C32_18 1_555 1_555
C34_18 C33_18 1_555 1_555
H25_18 C34_18 1_555 1_555
C35_18 N5_18 1_555 1_555
H26_18 C35_18 1_555 1_555
C36_18 N8_7 1_555 1_555
C37_18 N5_18 1_555 1_555
H28_18 C37_18 1_555 1_555
C38_18 C34_18 1_555 1_555
C39_18 C38_18 1_555 1_555
H29_18 C39_18 1_555 1_555
C40_18 C39_18 1_555 1_555
H30_18 C40_18 1_555 1_555
C41_18 C40_18 1_555 1_555
C42_18 C41_18 1_555 1_555
C43_18 C41_18 1_555 1_555
H31_18 C43_18 1_555 1_555
C44_18 C38_18 1_555 1_555
H32_18 C44_18 1_555 1_555
C45_18 C33_18 1_555 1_555
H33_18 C45_18 1_555 1_555
C46_18 C30_18 1_555 1_555
H34_18 C46_18 1_555 1_555
C8_18 C9_18 1_555 1_555
C15_18 C16_18 1_555 1_555
C17_18 C18_18 1_555 1_555
C22_18 C23_18 1_555 1_555
C25_18 C26_18 1_555 1_555
C27_18 C28_18 1_555 1_555
C36_18 C37_18 1_555 1_555
C43_18 C44_18 1_555 1_555
C45_18 C46_18 1_555 1_555

#END
