
###############################################################################
#
# This file contains modified crystal structure data generated from the
# MOF subset of the Cambridge Structural Database (CSD) v543 
# hosted by the Cambridge Crystallographic Data Centre (CCDC).
#
# This work is licensed under the Creative Commons
# Attribution-NonCommercial-ShareAlike 4.0 International License.
# To view a copy of this license, visit
# http://creativecommons.org/licenses/by-nc-sa/4.0/
# or send a letter to
# Creative Commons, PO Box 1866, Mountain View, CA 94042, USA.
#
# CIF created using the CSD Python API on 29 September 2022
# The structure has been converted into the P1 space group
# The structure has a 3D framework
# The original CSD entry CONWOU is in the rhombohedral crystal system
# The framework has been calculated to contain at least 10.0% void space
# The void calculation uses a probe of radius 1.32A, grid spacing 0.4
# The framework is charged, counterions have been retained in the structure
#
###############################################################################

data_CONWOU
_chemical_formula_moiety         '(C378 H252 N18 O102 Zn24 6+)n'
_symmetry_cell_setting           triclinic
_symmetry_space_group_name_H-M   'P 1'
_symmetry_Int_Tables_number      1
_space_group_name_Hall           'P 1'
loop_
_symmetry_equiv_pos_site_id
_symmetry_equiv_pos_as_xyz
1 x,y,z
_cell_length_a                   19.8583(4)
_cell_length_b                   19.8583(4)
_cell_length_c                   30.3819(8)
_cell_angle_alpha                90
_cell_angle_beta                 90
_cell_angle_gamma                120
_cell_volume                     10376
loop_
_atom_site_label
_atom_site_type_symbol
_atom_site_fract_x
_atom_site_fract_y
_atom_site_fract_z
O7 O 0.37372(18) 0.00375(18) 0.78297(13)
O8 O 0.2986(2) 0.05051(19) 0.79473(14)
Zn8 Zn 0.45445(2) 0.10988(2) 0.79870(2)
O23 O 0.63004(25) 0.62628(18) 0.78297(13)
O24 O 0.75195(28) 0.7014(2) 0.79473(14)
C90 C 0.6874(4) 0.6914(3) 0.78551(13)
C91 C 0.6768(3) 0.7612(2) 0.77747(12)
C92 C 0.7342(3) 0.8336(2) 0.78820(13)
H63 H 0.7815 0.8417 0.7991
C93 C 0.7213(4) 0.8955(2) 0.78263(14)
H64 H 0.7605 0.9451 0.7904
C94 C 0.6529(3) 0.8864(2) 0.76595(12)
C95 C 0.5963(4) 0.8143(3) 0.75403(18)
H65 H 0.5503 0.8069 0.7416
C96 C 0.6084(4) 0.7496(3) 0.76078(18)
H66 H 0.5692 0.6996 0.7537
C97 C 0.6392(3) 0.9542(2) 0.76191(15)
H67 H 0.6403 0.9749 0.7909
H68 H 0.5879 0.9362 0.7495
H72 H 0.6427 0.9714 0.6778
Zn10 Zn 0.65544(3) 0.54555(2) 0.79870(2)
O15 O 0.99625(18) 0.36996(25) 0.78297(13)
O16 O 0.94949(19) 0.24805(28) 0.79473(14)
Zn9 Zn 0.89012(2) 0.34456(3) 0.79870(2)
Zn1 Zn 0.87889(2) 0.55678(2) 0.86796(2)
Zn2 Zn 0.6667 0.3333 0.8333
O1 O 0.95962(18) 0.66291(18) 0.88369(13)
O3 O 0.79223(12) 0.57973(12) 0.86437(8)
O4 O 0.66717(12) 0.54408(12) 0.86254(7)
O5 O 0.60315(12) 0.37144(13) 0.87331(7)
O6 O 0.51723(13) 0.38390(13) 0.91322(7)
C14 C 0.72616(17) 0.54830(16) 0.88154(10)
C15 C 0.71312(18) 0.51751(18) 0.92751(10)
C16 C 0.7670(2) 0.5612(2) 0.96037(12)
H11 H 0.8130 0.6059 0.9527
C19 C 0.6331(2) 0.4276(2) 0.98290(11)
H14 H 0.5880 0.3824 0.9909
C20 C 0.64542(18) 0.44920(18) 0.93920(10)
C21 C 0.58604(17) 0.39826(17) 0.90565(9)
Zn3 Zn 0.44322(2) 0.32210(3) 0.86796(2)
O9 O 0.33709(18) 0.29670(25) 0.88369(13)
O10 O 0.38385(19) 0.41861(28) 0.87193(14)
O11 O 0.42027(12) 0.21249(17) 0.86437(8)
O12 O 0.45592(12) 0.12308(17) 0.86254(7)
O13 O 0.62856(13) 0.23170(18) 0.87331(7)
O14 O 0.61610(13) 0.13332(18) 0.91322(7)
N3 N 0.01460(17) 0.36508(24) 0.93314(11)
C35 C 0.3293(2) 0.3540(4) 0.88115(13)
C36 C 0.2489(2) 0.3434(3) 0.88919(12)
C37 C 0.2339(2) 0.4008(3) 0.87846(13)
H25 H 0.2731 0.4481 0.8675
C38 C 0.1591(3) 0.3879(4) 0.88403(14)
H26 H 0.1487 0.4271 0.8762
C39 C 0.0998(2) 0.3195(3) 0.90071(12)
C40 C 0.1153(3) 0.2629(4) 0.91263(18)
H27 H 0.0767 0.2169 0.9250
C41 C 0.1921(3) 0.2750(4) 0.90588(18)
H28 H 0.2029 0.2358 0.9129
C42 C 0.0183(2) 0.3058(3) 0.90475(15)
C43 C 0.0202(2) 0.4281(3) 0.91549(13)
H31 H 0.0273 0.4359 0.8852
C44 C 0.0158(2) 0.4828(3) 0.94117(12)
H32 H 0.0206 0.5275 0.9282
C45 C 0.0044(2) 0.47196(28) 0.98591(11)
C47 C 0.0062(3) 0.3530(4) 0.97666(16)
H34 H 0.0046 0.3093 0.9888
C48 C 0.45170(16) 0.17785(23) 0.88154(10)
C49 C 0.48249(18) 0.19560(25) 0.92751(10)
C50 C 0.4388(2) 0.2057(3) 0.96037(12)
H35 H 0.3941 0.2070 0.9527
C53 C 0.5724(2) 0.2054(3) 0.98290(11)
H38 H 0.6176 0.2055 0.9909
C54 C 0.55080(18) 0.19621(25) 0.93920(10)
C55 C 0.60174(17) 0.18777(24) 0.90565(9)
C67 C 0.0001(3) 0.5938(4) 0.99663(14)
H47 H 0.0075 0.6029 0.9665
Zn4 Zn 0.67790(3) 0.12111(2) 0.86796(2)
O17 O 0.70330(25) 0.04038(18) 0.88369(13)
O19 O 0.78751(17) 0.20777(12) 0.86437(8)
O20 O 0.87692(17) 0.33283(12) 0.86254(7)
O21 O 0.76830(18) 0.39685(12) 0.87331(7)
O22 O 0.86668(18) 0.48277(13) 0.91322(7)
C82 C 0.82215(23) 0.27384(17) 0.88154(10)
C83 C 0.80440(25) 0.28688(18) 0.92751(10)
C84 C 0.7943(3) 0.2330(2) 0.96037(12)
H59 H 0.7930 0.1870 0.9527
C87 C 0.7946(3) 0.3669(2) 0.98290(11)
H62 H 0.7945 0.4120 0.9909
C88 C 0.80379(25) 0.35458(18) 0.93920(10)
C89 C 0.81223(24) 0.41396(17) 0.90565(9)
O25 O 0.54111(12) 0.08693(12) 0.80229(8)
O26 O 0.66617(12) 0.12258(12) 0.80412(7)
O27 O 0.73019(12) 0.29522(13) 0.79335(7)
O28 O 0.81611(13) 0.28276(13) 0.75344(7)
C103 C 0.60718(17) 0.11836(16) 0.78512(10)
C104 C 0.62022(18) 0.14915(18) 0.73915(10)
C105 C 0.5664(2) 0.1054(2) 0.70629(12)
H73 H 0.5204 0.0607 0.7139
C106 C 0.5806(3) 0.1276(3) 0.66334(13)
H74 H 0.5452 0.0970 0.6417
C107 C 0.6469(3) 0.1948(3) 0.65169(12)
H75 H 0.6558 0.2106 0.6224
C108 C 0.7003(2) 0.2390(2) 0.68376(11)
H76 H 0.7454 0.2842 0.6757
C109 C 0.68792(18) 0.21746(18) 0.72746(10)
C110 C 0.74730(17) 0.26840(17) 0.76101(9)
O29 O 0.91307(12) 0.45417(17) 0.80229(8)
O30 O 0.87742(12) 0.54358(17) 0.80412(7)
O31 O 0.70478(13) 0.43496(18) 0.79335(7)
O32 O 0.71724(13) 0.53334(18) 0.75344(7)
C111 C 0.88164(16) 0.48881(23) 0.78512(10)
C112 C 0.85085(18) 0.47106(25) 0.73915(10)
C113 C 0.8946(2) 0.4609(3) 0.70629(12)
H77 H 0.9393 0.4596 0.7139
C114 C 0.8724(3) 0.4529(4) 0.66334(13)
H78 H 0.9030 0.4481 0.6417
C115 C 0.8052(3) 0.4520(4) 0.65169(12)
H79 H 0.7894 0.4451 0.6224
C116 C 0.7610(2) 0.4612(3) 0.68376(11)
H80 H 0.7158 0.4611 0.6757
C117 C 0.78254(18) 0.47045(25) 0.72746(10)
C118 C 0.73160(17) 0.47889(24) 0.76101(9)
O33 O 0.54583(17) 0.45889(12) 0.80229(8)
O34 O 0.45642(17) 0.33383(12) 0.80412(7)
O35 O 0.56504(18) 0.26981(12) 0.79335(7)
O36 O 0.46666(18) 0.18389(13) 0.75344(7)
C119 C 0.51119(23) 0.39282(17) 0.78512(10)
C120 C 0.52894(25) 0.37978(18) 0.73915(10)
C121 C 0.5391(3) 0.4336(2) 0.70629(12)
H81 H 0.5404 0.4796 0.7139
C122 C 0.5471(4) 0.4194(3) 0.66334(13)
H82 H 0.5519 0.4548 0.6417
C123 C 0.5480(4) 0.3531(3) 0.65169(12)
H83 H 0.5549 0.3442 0.6224
C124 C 0.5388(3) 0.2997(2) 0.68376(11)
H84 H 0.5389 0.2546 0.6757
C125 C 0.52955(25) 0.31208(18) 0.72746(10)
C126 C 0.52111(24) 0.25270(17) 0.76101(9)
C22 C 0.3086(3) 0.9959(2) 0.78551(13)
C23 C 0.2388(2) 0.9155(2) 0.77747(12)
C24 C 0.1664(2) 0.9005(2) 0.78820(13)
H15 H 0.1583 0.9397 0.7991
C25 C 0.1045(2) 0.8257(3) 0.78263(14)
H16 H 0.0549 0.8153 0.7904
C26 C 0.1136(2) 0.7664(2) 0.76595(12)
C27 C 0.1857(3) 0.7819(3) 0.75403(18)
H17 H 0.1931 0.7433 0.7416
C28 C 0.2504(3) 0.8587(3) 0.76078(18)
H18 H 0.3004 0.8695 0.7537
C29 C 0.0458(2) 0.6849(2) 0.76191(15)
H19 H 0.0251 0.6653 0.7909
H20 H 0.0638 0.6516 0.7495
H24 H 0.0286 0.6712 0.6778
Zn1_2 Zn 0.21222(2) 0.22345(2) 0.53463(2)
Zn2_2 Zn 0.0000 0.0000 0.5000
O1_2 O 0.29295(18) 0.32958(18) 0.55036(13)
O2 O 0.3681(2) 0.28282(19) 0.53860(14)
O3_2 O 0.12556(12) 0.24640(12) 0.53104(8)
O4_2 O 0.00050(12) 0.21075(12) 0.52921(7)
N1 N 0.68382(17) 0.65207(17) 0.59981(11)
C1 C 0.3581(3) 0.3374(2) 0.54782(13)
C2 C 0.4279(2) 0.4178(2) 0.55586(12)
C3 C 0.5003(2) 0.4328(2) 0.54513(13)
H1 H 0.5084 0.3936 0.5342
C4 C 0.5622(2) 0.5076(3) 0.55070(14)
H2 H 0.6118 0.5180 0.5429
C5 C 0.5531(2) 0.5669(2) 0.56738(12)
C6 C 0.4810(3) 0.5514(3) 0.57930(18)
H3 H 0.4736 0.5900 0.5917
C7 C 0.4163(3) 0.4746(3) 0.57255(18)
H4 H 0.3663 0.4638 0.5796
C8 C 0.6209(2) 0.6484(2) 0.57142(15)
H5 H 0.6416 0.6680 0.5424
H6 H 0.6029 0.6817 0.5838
C9 C 0.7413(2) 0.6465(2) 0.58216(13)
H7 H 0.7420 0.6394 0.5519
C10 C 0.8004(2) 0.6509(2) 0.60784(12)
H8 H 0.8403 0.6461 0.5949
C11 C 0.80093(19) 0.6623(2) 0.65258(11)
C12 C 0.7397(3) 0.6668(3) 0.67004(14)
H9 H 0.7380 0.6742 0.7002
C13 C 0.6802(3) 0.6605(3) 0.64333(16)
H10 H 0.6381 0.6621 0.6555
C14_2 C 0.05949(17) 0.21497(16) 0.54821(10)
C15_2 C 0.04645(18) 0.18418(18) 0.59418(10)
C16_2 C 0.1003(2) 0.2279(2) 0.62704(12)
H11_2 H 0.1463 0.2726 0.6194
C17 C 0.0861(3) 0.2057(3) 0.66999(13)
H12 H 0.1215 0.2363 0.6916
C18 C 0.0198(3) 0.1385(3) 0.68164(12)
H13 H 0.0109 0.1227 0.7109
N2 N 0.98285(17) 0.68126(17) 0.73352(11)
C30 C 0.9254(2) 0.6868(2) 0.75117(13)
H21 H 0.9247 0.6939 0.7814
C31 C 0.8663(2) 0.6824(2) 0.72549(12)
H22 H 0.8264 0.6872 0.7384
C32 C 0.86574(19) 0.6710(2) 0.68075(11)
C33 C 0.9270(3) 0.6665(3) 0.66329(14)
H23 H 0.9287 0.6591 0.6331
C34 C 0.9865(3) 0.6728(3) 0.69000(16)
O21_2 O 0.10163(18) 0.06352(12) 0.53998(7)
O22_2 O 0.20001(18) 0.14944(13) 0.57989(7)
C87_2 C 0.1279(3) 0.0336(2) 0.64957(11)
H62_2 H 0.1278 0.0787 0.6576
C88_2 C 0.13712(25) 0.02125(18) 0.60587(10)
C89_2 C 0.14556(24) 0.08063(17) 0.57232(9)
Zn6 Zn 0.22345(2) 0.01123(3) 0.46537(2)
O29_2 O 0.24640(12) 0.12084(17) 0.46896(8)
O30_2 O 0.21075(12) 0.21025(17) 0.47079(7)
O31_2 O 0.03811(13) 0.10163(18) 0.46002(7)
O32_2 O 0.05057(13) 0.20001(18) 0.42011(7)
C111_2 C 0.21497(16) 0.15548(23) 0.45179(10)
C112_2 C 0.18418(18) 0.13773(25) 0.40582(10)
C113_2 C 0.2279(2) 0.1276(3) 0.37296(12)
H77_2 H 0.2726 0.1263 0.3806
C114_2 C 0.2057(3) 0.1196(4) 0.33001(13)
H78_2 H 0.2363 0.1148 0.3084
C115_2 C 0.1385(3) 0.1187(4) 0.31836(12)
H79_2 H 0.1227 0.1118 0.2891
C116_2 C 0.0943(2) 0.1279(3) 0.35043(11)
H80_2 H 0.0491 0.1278 0.3424
C117_2 C 0.11587(18) 0.13712(25) 0.39413(10)
C118_2 C 0.06493(17) 0.14556(24) 0.42768(9)
O38 O 0.32958(18) 0.03663(25) 0.44964(13)
N5 N 0.30158(24) 0.98285(17) 0.26648(11)
C77 C 0.2385(3) 0.9254(2) 0.24883(13)
H55 H 0.2307 0.9247 0.2186
C78 C 0.1838(3) 0.8663(2) 0.27451(12)
H56 H 0.1391 0.8264 0.2616
C79 C 0.19470(28) 0.86574(19) 0.31925(11)
C80 C 0.2604(4) 0.9270(3) 0.33671(14)
H57 H 0.2695 0.9287 0.3669
C81 C 0.3136(4) 0.9865(3) 0.31000(16)
O24_2 O 0.08528(28) 0.3681(2) 0.46140(14)
N6 N 0.03175(24) 0.68382(17) 0.40019(11)
C90_2 C 0.0207(4) 0.3581(3) 0.45218(13)
C91_2 C 0.0101(3) 0.4279(2) 0.44414(12)
C92_2 C 0.0675(3) 0.5003(2) 0.45487(13)
H63_2 H 0.1148 0.5084 0.4658
C93_2 C 0.0546(4) 0.5622(2) 0.44930(14)
H64_2 H 0.0938 0.6118 0.4571
C98 C 0.0948(3) 0.7413(2) 0.41784(13)
H69 H 0.1026 0.7420 0.4481
C99 C 0.1495(3) 0.8004(2) 0.39216(12)
H70 H 0.1942 0.8403 0.4051
C100 C 0.13863(28) 0.80093(19) 0.34742(11)
C101 C 0.0729(4) 0.7397(3) 0.32996(14)
H71 H 0.0638 0.7380 0.2998
C102 C 0.0197(4) 0.6802(3) 0.35667(16)
C60 C 0.5669(2) 0.0138(3) 0.43262(12)
C61 C 0.5514(3) 0.0704(4) 0.42070(18)
H41 H 0.5900 0.1164 0.4083
C62 C 0.4746(3) 0.0583(4) 0.42745(18)
H42 H 0.4638 0.0975 0.4204
C63 C 0.6484(2) 0.0275(3) 0.42858(15)
H43 H 0.6680 0.0264 0.4576
H44 H 0.6817 0.0788 0.4162
H48 H 0.6621 0.0240 0.3445
Zn2_3 Zn -0.0000 1.0000 0.5000
Zn4_2 Zn 0.01123(3) 0.78778(2) 0.53463(2)
O17_2 O 0.03663(25) 0.70705(18) 0.55036(13)
O19_2 O 0.12084(17) 0.87444(12) 0.53104(8)
O20_2 O 0.21025(17) 0.99950(12) 0.52921(7)
C73 C 0.0138(3) 0.4469(2) 0.56738(12)
C74 C 0.0704(4) 0.5190(3) 0.57930(18)
H51 H 0.1164 0.5264 0.5917
C75 C 0.0583(4) 0.5837(3) 0.57255(18)
H52 H 0.0975 0.6337 0.5796
C76 C 0.0275(3) 0.3791(2) 0.57142(15)
H53 H 0.0264 0.3584 0.5424
H54 H 0.0788 0.3971 0.5838
H58 H 0.0240 0.3619 0.6555
C82_2 C 0.15548(23) 0.94051(17) 0.54821(10)
C83_2 C 0.13773(25) 0.95355(18) 0.59418(10)
C84_2 C 0.1276(3) 0.8997(2) 0.62704(12)
H59_2 H 0.1263 0.8537 0.6194
C85 C 0.1196(4) 0.9139(3) 0.66999(13)
H60 H 0.1148 0.8785 0.6916
C86 C 0.1187(4) 0.9802(3) 0.68164(12)
H61 H 0.1118 0.9891 0.7109
O27_2 O 0.06352(12) 0.96189(13) 0.46002(7)
O28_2 O 0.14944(13) 0.94943(13) 0.42011(7)
C108_2 C 0.0336(2) 0.9057(2) 0.35043(11)
H76_2 H 0.0787 0.9509 0.3424
C109_2 C 0.02125(18) 0.88413(18) 0.39413(10)
C110_2 C 0.08063(17) 0.93507(17) 0.42768(9)
N3_2 N 0.68126(17) 0.69842(24) 0.26648(11)
C35_2 C 0.9959(2) 0.6874(4) 0.21449(13)
C36_2 C 0.9155(2) 0.6768(3) 0.22253(12)
C37_2 C 0.9005(2) 0.7342(3) 0.21180(13)
H25_2 H 0.9397 0.7815 0.2009
C38_2 C 0.8257(3) 0.7213(4) 0.21737(14)
H26_2 H 0.8153 0.7605 0.2096
C39_2 C 0.7664(2) 0.6529(3) 0.23405(12)
C40_2 C 0.7819(3) 0.5963(4) 0.24597(18)
H27_2 H 0.7433 0.5503 0.2584
C41_2 C 0.8587(3) 0.6084(4) 0.23922(18)
H28_2 H 0.8695 0.5692 0.2463
C42_2 C 0.6849(2) 0.6392(3) 0.23809(15)
H29 H 0.6653 0.6403 0.2091
H30 H 0.6516 0.5879 0.2505
C43_2 C 0.6868(2) 0.7615(3) 0.24883(13)
H31_2 H 0.6939 0.7693 0.2186
C44_2 C 0.6824(2) 0.8162(3) 0.27451(12)
H32_2 H 0.6872 0.8609 0.2616
C45_2 C 0.6710(2) 0.80530(28) 0.31925(11)
C46 C 0.6665(3) 0.7396(4) 0.33671(14)
H33 H 0.6591 0.7305 0.3669
C47_2 C 0.6728(3) 0.6864(4) 0.31000(16)
H34_2 H 0.6712 0.6427 0.3222
O16_2 O 0.28282(19) 0.91472(28) 0.46140(14)
N4 N 0.65207(17) 0.96825(24) 0.40019(11)
C56 C 0.3374(2) 0.9793(4) 0.45218(13)
C57 C 0.4178(2) 0.9899(3) 0.44414(12)
C58 C 0.4328(2) 0.9325(3) 0.45487(13)
H39 H 0.3936 0.8852 0.4658
C59 C 0.5076(3) 0.9454(4) 0.44930(14)
H40 H 0.5180 0.9062 0.4571
C64 C 0.6465(2) 0.9052(3) 0.41784(13)
H45 H 0.6394 0.8974 0.4481
C65 C 0.6509(2) 0.8505(3) 0.39216(12)
H46 H 0.6461 0.8058 0.4051
C66 C 0.6623(2) 0.86137(28) 0.34742(11)
C67_2 C 0.6668(3) 0.9271(4) 0.32996(14)
H47_2 H 0.6742 0.9362 0.2998
C68 C 0.6605(3) 0.9803(4) 0.35667(16)
Zn2_4 Zn 1.0000 0.0000 0.5000
O5_2 O 0.93648(12) 0.03811(13) 0.53998(7)
O6_2 O 0.85056(13) 0.05057(13) 0.57989(7)
C19_2 C 0.9664(2) 0.0943(2) 0.64957(11)
H14_2 H 0.9213 0.0491 0.6576
C20_2 C 0.97875(18) 0.11587(18) 0.60587(10)
C21_2 C 0.91937(17) 0.06493(17) 0.57232(9)
O10_2 O 0.71718(19) 0.08528(28) 0.53860(14)
N3_3 N 0.34793(17) 0.03175(24) 0.59981(11)
C35_3 C 0.6626(2) 0.0207(4) 0.54782(13)
C36_3 C 0.5822(2) 0.0101(3) 0.55586(12)
C37_3 C 0.5672(2) 0.0675(3) 0.54513(13)
H25_3 H 0.6064 0.1148 0.5342
C38_3 C 0.4924(3) 0.0546(4) 0.55070(14)
H26_3 H 0.4820 0.0938 0.5429
C43_3 C 0.3535(2) 0.0948(3) 0.58216(13)
H31_3 H 0.3606 0.1026 0.5519
C44_3 C 0.3491(2) 0.1495(3) 0.60784(12)
H32_3 H 0.3539 0.1942 0.5949
C45_3 C 0.3377(2) 0.13863(28) 0.65258(11)
C46_2 C 0.3332(3) 0.0729(4) 0.67004(14)
H33_2 H 0.3258 0.0638 0.7002
C47_3 C 0.3395(3) 0.0197(4) 0.64333(16)
N4_2 N 0.31874(17) 0.30158(24) 0.73352(11)
C56_2 C 0.0041(2) 0.3126(4) 0.78551(13)
C57_2 C 0.0845(2) 0.3232(3) 0.77747(12)
C58_2 C 0.0995(2) 0.2658(3) 0.78820(13)
H39_2 H 0.0603 0.2185 0.7991
C59_2 C 0.1743(3) 0.2787(4) 0.78263(14)
H40_2 H 0.1847 0.2395 0.7904
C60_2 C 0.2336(2) 0.3471(3) 0.76595(12)
C61_2 C 0.2181(3) 0.4037(4) 0.75403(18)
H41_2 H 0.2567 0.4497 0.7416
C62_2 C 0.1413(3) 0.3916(4) 0.76078(18)
H42_2 H 0.1305 0.4308 0.7537
C63_2 C 0.3151(2) 0.3608(3) 0.76191(15)
H43_2 H 0.3347 0.3597 0.7909
H44_2 H 0.3484 0.4121 0.7495
C64_2 C 0.3132(2) 0.2385(3) 0.75117(13)
H45_2 H 0.3061 0.2307 0.7814
C65_2 C 0.3176(2) 0.1838(3) 0.72549(12)
H46_2 H 0.3128 0.1391 0.7384
C66_2 C 0.3290(2) 0.19470(28) 0.68075(11)
C67_3 C 0.3335(3) 0.2604(4) 0.66329(14)
H47_3 H 0.3409 0.2695 0.6331
C68_2 C 0.3272(3) 0.3136(4) 0.69000(16)
H48_2 H 0.3288 0.3573 0.6778
Zn7 Zn 0.98877(3) 0.21222(2) 0.46537(2)
O33_2 O 0.87916(17) 0.12556(12) 0.46896(8)
O34_2 O 0.78975(17) 0.00050(12) 0.47079(7)
C119_2 C 0.84452(23) 0.05949(17) 0.45179(10)
C120_2 C 0.86227(25) 0.04645(18) 0.40582(10)
C121_2 C 0.8724(3) 0.1003(2) 0.37296(12)
H81_2 H 0.8737 0.1463 0.3806
C122_2 C 0.8804(4) 0.0861(3) 0.33001(13)
H82_2 H 0.8852 0.1215 0.3084
C123_2 C 0.8813(4) 0.0198(3) 0.31836(12)
H83_2 H 0.8882 0.0109 0.2891
O39 O 0.96337(25) 0.29295(18) 0.44964(13)
C94_2 C 0.9862(3) 0.5531(2) 0.43262(12)
C95_2 C 0.9296(4) 0.4810(3) 0.42070(18)
H65_2 H 0.8836 0.4736 0.4083
C96_2 C 0.9417(4) 0.4163(3) 0.42745(18)
H66_2 H 0.9025 0.3663 0.4204
C97_2 C 0.9725(3) 0.6209(2) 0.42858(15)
H67_2 H 0.9736 0.6416 0.4576
H68_2 H 0.9212 0.6029 0.4162
H72_2 H 0.9760 0.6381 0.3445
Zn2_5 Zn 1.0000 1.0000 0.5000
Zn3_2 Zn 0.77655(2) 0.98877(3) 0.53463(2)
O9_2 O 0.67042(18) 0.96337(25) 0.55036(13)
O11_2 O 0.75360(12) 0.87916(17) 0.53104(8)
O12_2 O 0.78925(12) 0.78975(17) 0.52921(7)
O13_2 O 0.96189(13) 0.89837(18) 0.53998(7)
O14_2 O 0.94943(13) 0.79999(18) 0.57989(7)
C39_3 C 0.4331(2) 0.9862(3) 0.56738(12)
C40_3 C 0.4486(3) 0.9296(4) 0.57930(18)
H27_3 H 0.4100 0.8836 0.5917
C41_3 C 0.5254(3) 0.9417(4) 0.57255(18)
H28_3 H 0.5362 0.9025 0.5796
C42_3 C 0.3516(2) 0.9725(3) 0.57142(15)
H29_2 H 0.3320 0.9736 0.5424
H30_2 H 0.3183 0.9212 0.5838
H34_3 H 0.3379 0.9760 0.6555
C48_2 C 0.78503(16) 0.84452(23) 0.54821(10)
C49_2 C 0.81582(18) 0.86227(25) 0.59418(10)
C50_2 C 0.7721(2) 0.8724(3) 0.62704(12)
H35_2 H 0.7274 0.8737 0.6194
C51 C 0.7943(3) 0.8804(4) 0.66999(13)
H36 H 0.7637 0.8852 0.6916
C52 C 0.8615(3) 0.8813(4) 0.68164(12)
H37 H 0.8773 0.8882 0.7109
C53_2 C 0.9057(2) 0.8721(3) 0.64957(11)
H38_2 H 0.9509 0.8722 0.6576
C54_2 C 0.88413(18) 0.86288(25) 0.60587(10)
C55_2 C 0.93507(17) 0.85444(24) 0.57232(9)
O18 O 0.91472(28) 0.6319(2) 0.53860(14)
N5_2 N 0.96825(24) 0.31618(17) 0.59981(11)
C69 C 0.9793(4) 0.6419(3) 0.54782(13)
C70 C 0.9899(3) 0.5721(2) 0.55586(12)
C71 C 0.9325(3) 0.4997(2) 0.54513(13)
H49 H 0.8852 0.4916 0.5342
C72 C 0.9454(4) 0.4378(2) 0.55070(14)
H50 H 0.9062 0.3882 0.5429
C77_2 C 0.9052(3) 0.2587(2) 0.58216(13)
H55_2 H 0.8974 0.2580 0.5519
C78_2 C 0.8505(3) 0.1996(2) 0.60784(12)
H56_2 H 0.8058 0.1597 0.5949
C79_2 C 0.86137(28) 0.19907(19) 0.65258(11)
C80_2 C 0.9271(4) 0.2603(3) 0.67004(14)
H57_2 H 0.9362 0.2620 0.7002
C81_2 C 0.9803(4) 0.3198(3) 0.64333(16)
N6_2 N 0.69842(24) 0.01715(17) 0.73352(11)
C98_2 C 0.7615(3) 0.0746(2) 0.75117(13)
H69_2 H 0.7693 0.0753 0.7814
C99_2 C 0.8162(3) 0.1337(2) 0.72549(12)
H70_2 H 0.8609 0.1736 0.7384
C100_2 C 0.80530(28) 0.13426(19) 0.68075(11)
C101_2 C 0.7396(4) 0.0730(3) 0.66329(14)
H71_2 H 0.7305 0.0713 0.6331
C102_2 C 0.6864(4) 0.0135(3) 0.69000(16)
Zn5 Zn 0.78778(2) 0.77655(2) 0.46537(2)
O25_2 O 0.87444(12) 0.75360(12) 0.46896(8)
O26_2 O 0.99950(12) 0.78925(12) 0.47079(7)
C103_2 C 0.94051(17) 0.78503(16) 0.45179(10)
C104_2 C 0.95355(18) 0.81582(18) 0.40582(10)
C105_2 C 0.8997(2) 0.7721(2) 0.37296(12)
H73_2 H 0.8537 0.7274 0.3806
C106_2 C 0.9139(3) 0.7943(3) 0.33001(13)
H74_2 H 0.8785 0.7637 0.3084
C107_2 C 0.9802(3) 0.8615(3) 0.31836(12)
H75_2 H 0.9891 0.8773 0.2891
O35_2 O 0.89837(18) 0.93648(12) 0.46002(7)
O36_2 O 0.79999(18) 0.85056(13) 0.42011(7)
C124_2 C 0.8721(3) 0.9664(2) 0.35043(11)
H84_2 H 0.8722 0.9213 0.3424
C125_2 C 0.86288(25) 0.97875(18) 0.39413(10)
C126_2 C 0.85444(24) 0.91937(17) 0.42768(9)
O37 O 0.70705(18) 0.67042(18) 0.44964(13)
N1_2 N 0.01715(17) 0.31874(17) 0.26648(11)
C9_2 C 0.0746(2) 0.3132(2) 0.24883(13)
H7_2 H 0.0753 0.3061 0.2186
C10_2 C 0.1337(2) 0.3176(2) 0.27451(12)
H8_2 H 0.1736 0.3128 0.2616
C11_2 C 0.13426(19) 0.3290(2) 0.31925(11)
C12_2 C 0.0730(3) 0.3335(3) 0.33671(14)
H9_2 H 0.0713 0.3409 0.3669
C13_2 C 0.0135(3) 0.3272(3) 0.31000(16)
O8_2 O 0.6319(2) 0.71718(19) 0.46140(14)
N2_2 N 0.31618(17) 0.34793(17) 0.40019(11)
C22_2 C 0.6419(3) 0.6626(2) 0.45218(13)
C23_2 C 0.5721(2) 0.5822(2) 0.44414(12)
C24_2 C 0.4997(2) 0.5672(2) 0.45487(13)
H15_2 H 0.4916 0.6064 0.4658
C25_2 C 0.4378(2) 0.4924(3) 0.44930(14)
H16_2 H 0.3882 0.4820 0.4571
C26_2 C 0.4469(2) 0.4331(2) 0.43262(12)
C27_2 C 0.5190(3) 0.4486(3) 0.42070(18)
H17_2 H 0.5264 0.4100 0.4083
C28_2 C 0.5837(3) 0.5254(3) 0.42745(18)
H18_2 H 0.6337 0.5362 0.4204
C29_2 C 0.3791(2) 0.3516(2) 0.42858(15)
H19_2 H 0.3584 0.3320 0.4576
H20_2 H 0.3971 0.3183 0.4162
C30_2 C 0.2587(2) 0.3535(2) 0.41784(13)
H21_2 H 0.2580 0.3606 0.4481
C31_2 C 0.1996(2) 0.3491(2) 0.39216(12)
H22_2 H 0.1597 0.3539 0.4051
C32_2 C 0.19907(19) 0.3377(2) 0.34742(11)
C33_2 C 0.2603(3) 0.3332(3) 0.32996(14)
H23_2 H 0.2620 0.3258 0.2998
C34_2 C 0.3198(3) 0.3395(3) 0.35667(16)
H24_2 H 0.3619 0.3379 0.3445
O7_2 O 0.04038(18) 0.33709(18) 0.11631(13)
Zn8_2 Zn 0.12111(2) 0.44322(2) 0.13204(2)
O23_2 O 0.29670(25) 0.95962(18) 0.11631(13)
Zn10_2 Zn 0.32210(3) 0.87889(2) 0.13204(2)
C46_3 C 0.9999(3) 0.4062(4) 0.00337(14)
H33_3 H 0.9925 0.3971 0.0335
O15_2 O 0.66291(18) 0.70330(25) 0.11631(13)
O16_3 O 0.61615(19) 0.58139(28) 0.12807(14)
N4_3 N 0.98540(17) 0.63492(24) 0.06686(11)
C56_3 C 0.6707(2) 0.6460(4) 0.11885(13)
C57_3 C 0.7511(2) 0.6566(3) 0.11081(12)
C58_3 C 0.7661(2) 0.5992(3) 0.12154(13)
H39_3 H 0.7269 0.5519 0.1325
C59_3 C 0.8409(3) 0.6121(4) 0.11597(14)
H40_3 H 0.8513 0.5729 0.1238
C60_3 C 0.9002(2) 0.6805(3) 0.09929(12)
C61_3 C 0.8847(3) 0.7371(4) 0.08737(18)
H41_3 H 0.9233 0.7831 0.0750
C62_3 C 0.8079(3) 0.7250(4) 0.09412(18)
H42_3 H 0.7971 0.7642 0.0871
C63_3 C 0.9817(2) 0.6942(3) 0.09525(15)
C64_3 C 0.9798(2) 0.5719(3) 0.08451(13)
H45_3 H 0.9727 0.5641 0.1148
C65_3 C 0.9842(2) 0.5172(3) 0.05883(12)
H46_3 H 0.9794 0.4725 0.0718
C66_3 C 0.9956(2) 0.52804(28) 0.01409(11)
C68_3 C 0.9938(3) 0.6470(4) 0.02334(16)
H48_3 H 0.9954 0.6907 0.0112
Zn9_2 Zn 0.55678(2) 0.67790(3) 0.13204(2)
Zn1_3 Zn 0.54555(2) 0.89012(2) 0.20130(2)
Zn2_6 Zn 0.3333 0.6667 0.1667
O1_3 O 0.62628(18) 0.99625(18) 0.21703(13)
O2_2 O 0.7014(2) 0.94949(19) 0.20527(14)
O3_3 O 0.45889(12) 0.91307(12) 0.19771(8)
O4_3 O 0.33383(12) 0.87742(12) 0.19588(7)
O5_3 O 0.26981(12) 0.70478(13) 0.20665(7)
O6_3 O 0.18389(13) 0.71724(13) 0.24656(7)
C14_3 C 0.39282(17) 0.88164(16) 0.21488(10)
C15_3 C 0.37978(18) 0.85085(18) 0.26085(10)
C16_3 C 0.4336(2) 0.8946(2) 0.29371(12)
H11_3 H 0.4796 0.9393 0.2861
C17_2 C 0.4194(3) 0.8724(3) 0.33666(13)
H12_2 H 0.4548 0.9030 0.3583
C18_2 C 0.3531(3) 0.8052(3) 0.34831(12)
H13_2 H 0.3442 0.7894 0.3776
C19_3 C 0.2997(2) 0.7610(2) 0.31624(11)
H14_3 H 0.2546 0.7158 0.3243
C20_3 C 0.31208(18) 0.78254(18) 0.27254(10)
C21_3 C 0.25270(17) 0.73160(17) 0.23899(9)
Zn3_3 Zn 0.10988(2) 0.65544(3) 0.20130(2)
O9_3 O 0.00375(18) 0.63004(25) 0.21703(13)
O10_3 O 0.05051(19) 0.75195(28) 0.20527(14)
O11_3 O 0.08693(12) 0.54583(17) 0.19771(8)
O12_3 O 0.12258(12) 0.45642(17) 0.19588(7)
O13_3 O 0.29522(13) 0.56504(18) 0.20665(7)
O14_3 O 0.28276(13) 0.46666(18) 0.24656(7)
C48_3 C 0.11836(16) 0.51119(23) 0.21488(10)
C49_3 C 0.14915(18) 0.52894(25) 0.26085(10)
C50_3 C 0.1054(2) 0.5391(3) 0.29371(12)
H35_3 H 0.0607 0.5404 0.2861
C51_2 C 0.1276(3) 0.5471(4) 0.33666(13)
H36_2 H 0.0970 0.5519 0.3583
C52_2 C 0.1948(3) 0.5480(4) 0.34831(12)
H37_2 H 0.2106 0.5549 0.3776
C53_3 C 0.2390(2) 0.5388(3) 0.31624(11)
H38_3 H 0.2842 0.5389 0.3243
C54_3 C 0.21746(18) 0.52955(25) 0.27254(10)
C55_3 C 0.26840(17) 0.52111(24) 0.23899(9)
Zn4_3 Zn 0.34456(3) 0.45445(2) 0.20130(2)
O17_3 O 0.36996(25) 0.37372(18) 0.21703(13)
O18_2 O 0.24805(28) 0.2986(2) 0.20527(14)
O19_3 O 0.45417(17) 0.54111(12) 0.19771(8)
O20_3 O 0.54358(17) 0.66617(12) 0.19588(7)
O21_3 O 0.43496(18) 0.73019(12) 0.20665(7)
O22_3 O 0.53334(18) 0.81611(13) 0.24656(7)
C69_2 C 0.3126(4) 0.3086(3) 0.21449(13)
C70_2 C 0.3232(3) 0.2388(2) 0.22253(12)
C71_2 C 0.2658(3) 0.1664(2) 0.21180(13)
H49_2 H 0.2185 0.1583 0.2009
C72_2 C 0.2787(4) 0.1045(2) 0.21737(14)
H50_2 H 0.2395 0.0549 0.2096
C73_2 C 0.3471(3) 0.1136(2) 0.23405(12)
C74_2 C 0.4037(4) 0.1857(3) 0.24597(18)
H51_2 H 0.4497 0.1931 0.2584
C75_2 C 0.3916(4) 0.2504(3) 0.23922(18)
H52_2 H 0.4308 0.3004 0.2463
C76_2 C 0.3608(3) 0.0458(2) 0.23809(15)
H53_2 H 0.3597 0.0251 0.2091
H54_2 H 0.4121 0.0638 0.2505
H58_2 H 0.3573 0.0286 0.3222
C82_3 C 0.48881(23) 0.60718(17) 0.21488(10)
C83_3 C 0.47106(25) 0.62022(18) 0.26085(10)
C84_3 C 0.4609(3) 0.5664(2) 0.29371(12)
H59_3 H 0.4596 0.5204 0.2861
C85_2 C 0.4529(4) 0.5806(3) 0.33666(13)
H60_2 H 0.4481 0.5452 0.3583
C86_2 C 0.4520(4) 0.6469(3) 0.34831(12)
H61_2 H 0.4451 0.6558 0.3776
C87_3 C 0.4612(3) 0.7003(2) 0.31624(11)
H62_3 H 0.4611 0.7454 0.3243
C88_3 C 0.47045(25) 0.68792(18) 0.27254(10)
C89_3 C 0.47889(24) 0.74730(17) 0.23899(9)
O25_3 O 0.20777(12) 0.42027(12) 0.13563(8)
O26_3 O 0.33283(12) 0.45592(12) 0.13746(7)
O27_3 O 0.39685(12) 0.62856(13) 0.12669(7)
O28_3 O 0.48277(13) 0.61610(13) 0.08678(7)
C103_3 C 0.27384(17) 0.45170(16) 0.11846(10)
C104_3 C 0.28688(18) 0.48249(18) 0.07249(10)
C105_3 C 0.2330(2) 0.4388(2) 0.03963(12)
H73_3 H 0.1870 0.3941 0.0473
C108_3 C 0.3669(2) 0.5724(2) 0.01710(11)
H76_3 H 0.4120 0.6176 0.0091
C109_3 C 0.35458(18) 0.55080(18) 0.06080(10)
C110_3 C 0.41396(17) 0.60174(17) 0.09435(9)
O29_3 O 0.57973(12) 0.78751(17) 0.13563(8)
O30_3 O 0.54408(12) 0.87692(17) 0.13746(7)
O31_3 O 0.37144(13) 0.76830(18) 0.12669(7)
O32_3 O 0.38390(13) 0.86668(18) 0.08678(7)
C111_3 C 0.54830(16) 0.82215(23) 0.11846(10)
C112_3 C 0.51751(18) 0.80440(25) 0.07249(10)
C113_3 C 0.5612(2) 0.7943(3) 0.03963(12)
H77_3 H 0.6059 0.7930 0.0473
C116_3 C 0.4276(2) 0.7946(3) 0.01710(11)
H80_3 H 0.3824 0.7945 0.0091
C117_3 C 0.44920(18) 0.80379(25) 0.06080(10)
C118_3 C 0.39826(17) 0.81223(24) 0.09435(9)
O33_3 O 0.21249(17) 0.79223(12) 0.13563(8)
O34_3 O 0.12308(17) 0.66717(12) 0.13746(7)
O35_3 O 0.23170(18) 0.60315(12) 0.12669(7)
O36_3 O 0.13332(18) 0.51723(13) 0.08678(7)
C119_3 C 0.17785(23) 0.72616(17) 0.11846(10)
C120_3 C 0.19560(25) 0.71312(18) 0.07249(10)
C121_3 C 0.2057(3) 0.7670(2) 0.03963(12)
H81_3 H 0.2070 0.8130 0.0473
C124_3 C 0.2054(3) 0.6331(2) 0.01710(11)
H84_3 H 0.2055 0.5880 0.0091
C125_3 C 0.19621(25) 0.64542(18) 0.06080(10)
C126_3 C 0.18777(24) 0.58604(17) 0.09435(9)
C12_3 C 0.4064(3) 0.0001(3) 0.00337(14)
H9_3 H 0.4047 0.0075 0.0335
O8_3 O 0.9652(2) 0.38385(19) 0.12807(14)
N2_3 N 0.64951(17) 0.01460(17) 0.06686(11)
C22_3 C 0.9752(3) 0.3293(2) 0.11885(13)
C23_3 C 0.9054(2) 0.2489(2) 0.11081(12)
C24_3 C 0.8330(2) 0.2339(2) 0.12154(13)
H15_3 H 0.8249 0.2731 0.1325
C25_3 C 0.7711(2) 0.1591(3) 0.11597(14)
H16_3 H 0.7215 0.1487 0.1238
C26_3 C 0.7802(2) 0.0998(2) 0.09929(12)
C27_3 C 0.8523(3) 0.1153(3) 0.08737(18)
H17_3 H 0.8597 0.0767 0.0750
C28_3 C 0.9170(3) 0.1921(3) 0.09412(18)
H18_3 H 0.9670 0.2029 0.0871
C29_3 C 0.7124(2) 0.0183(2) 0.09525(15)
C30_3 C 0.5920(2) 0.0202(2) 0.08451(13)
H21_3 H 0.5913 0.0273 0.1148
C31_3 C 0.5329(2) 0.0158(2) 0.05883(12)
H22_3 H 0.4930 0.0206 0.0718
C32_3 C 0.53240(19) 0.0044(2) 0.01409(11)
C34_3 C 0.6531(3) 0.0062(3) 0.02334(16)
H24_3 H 0.6952 0.0046 0.0112
H5_2 H 0.3083 0.0013 0.8757
H6_2 H 0.2696 0.0150 0.9171
H19_3 H 0.6917 0.9987 0.1243
H20_3 H 0.7304 0.9850 0.0829
O2_3 O 0.0348(2) 0.61615(19) 0.87193(14)
N1_3 N 0.35049(17) 0.98540(17) 0.93314(11)
C1_2 C 0.0248(3) 0.6707(2) 0.88115(13)
C2_2 C 0.0946(2) 0.7511(2) 0.88919(12)
C3_2 C 0.1670(2) 0.7661(2) 0.87846(13)
H1_2 H 0.1751 0.7269 0.8675
C4_2 C 0.2289(2) 0.8409(3) 0.88403(14)
H2_2 H 0.2785 0.8513 0.8762
C5_2 C 0.2198(2) 0.9002(2) 0.90071(12)
C6_2 C 0.1477(3) 0.8847(3) 0.91263(18)
H3_2 H 0.1403 0.9233 0.9250
C7_2 C 0.0830(3) 0.8079(3) 0.90588(18)
H4_2 H 0.0330 0.7971 0.9129
C8_2 C 0.2876(2) 0.9817(2) 0.90475(15)
C9_3 C 0.4080(2) 0.9798(2) 0.91549(13)
H7_3 H 0.4087 0.9727 0.8852
C10_3 C 0.4671(2) 0.9842(2) 0.94117(12)
H8_3 H 0.5070 0.9794 0.9282
C11_3 C 0.46760(19) 0.9956(2) 0.98591(11)
C13_3 C 0.3469(3) 0.9938(3) 0.97666(16)
H10_2 H 0.3048 0.9954 0.9888
C33_3 C 0.5936(3) 0.9999(3) 0.99663(14)
H23_3 H 0.5953 0.9925 0.9665
C17_3 C 0.7528(3) 0.5390(3) 0.00332(13)
H12_3 H 0.7882 0.5696 0.0249
C18_3 C 0.6865(3) 0.4718(3) 0.01497(12)
H13_3 H 0.6776 0.4560 0.0442
C51_3 C 0.4610(3) 0.2137(4) 0.00332(13)
H36_3 H 0.4304 0.2185 0.0249
C52_3 C 0.5282(3) 0.2146(4) 0.01497(12)
H37_3 H 0.5440 0.2215 0.0442
H43_3 H 0.0013 0.6931 0.1243
H44_3 H 0.0150 0.7455 0.0829
C85_3 C 0.7863(4) 0.2472(3) 0.00332(13)
H60_3 H 0.7815 0.2118 0.0249
C86_3 C 0.7854(4) 0.3135(3) 0.01497(12)
H61_3 H 0.7785 0.3224 0.0442
C80_3 C 0.5938(4) 0.5936(3) 0.00337(14)
H57_3 H 0.6029 0.5953 0.0335
O24_3 O 0.41861(28) 0.0348(2) 0.12807(14)
N6_3 N 0.36508(24) 0.35049(17) 0.06686(11)
C90_3 C 0.3540(4) 0.0248(3) 0.11885(13)
C91_3 C 0.3434(3) 0.0946(2) 0.11081(12)
C92_3 C 0.4008(3) 0.1670(2) 0.12154(13)
H63_3 H 0.4481 0.1751 0.1325
C93_3 C 0.3879(4) 0.2289(2) 0.11597(14)
H64_3 H 0.4271 0.2785 0.1238
C94_3 C 0.3195(3) 0.2198(2) 0.09929(12)
C95_3 C 0.2629(4) 0.1477(3) 0.08737(18)
H65_3 H 0.2169 0.1403 0.0750
C96_3 C 0.2750(4) 0.0830(3) 0.09412(18)
H66_3 H 0.2358 0.0330 0.0871
C97_3 C 0.3058(3) 0.2876(2) 0.09525(15)
H67_3 H 0.3069 0.3083 0.1243
H68_3 H 0.2545 0.2696 0.0829
C98_3 C 0.4281(3) 0.4080(2) 0.08451(13)
H69_3 H 0.4359 0.4087 0.1148
C99_3 C 0.4828(3) 0.4671(2) 0.05883(12)
H70_3 H 0.5275 0.5070 0.0718
C100_3 C 0.47196(28) 0.46760(19) 0.01409(11)
C102_3 C 0.3530(4) 0.3469(3) 0.02334(16)
H72_3 H 0.3093 0.3048 0.0112
O18_3 O 0.58139(28) 0.9652(2) 0.87193(14)
N5_3 N 0.63492(24) 0.64951(17) 0.93314(11)
C69_3 C 0.6460(4) 0.9752(3) 0.88115(13)
C70_3 C 0.6566(3) 0.9054(2) 0.88919(12)
C71_3 C 0.5992(3) 0.8330(2) 0.87846(13)
H49_3 H 0.5519 0.8249 0.8675
C72_3 C 0.6121(4) 0.7711(2) 0.88403(14)
H50_3 H 0.5729 0.7215 0.8762
C73_3 C 0.6805(3) 0.7802(2) 0.90071(12)
C74_3 C 0.7371(4) 0.8523(3) 0.91263(18)
H51_3 H 0.7831 0.8597 0.9250
C75_3 C 0.7250(4) 0.9170(3) 0.90588(18)
H52_3 H 0.7642 0.9670 0.9129
C76_3 C 0.6942(3) 0.7124(2) 0.90475(15)
H53_3 H 0.6931 0.6917 0.8757
H54_3 H 0.7455 0.7304 0.9171
C77_3 C 0.5719(3) 0.5920(2) 0.91549(13)
H55_3 H 0.5641 0.5913 0.8852
C78_3 C 0.5172(3) 0.5329(2) 0.94117(12)
H56_3 H 0.4725 0.4930 0.9282
C79_3 C 0.52804(28) 0.53240(19) 0.98591(11)
C81_3 C 0.6470(4) 0.6531(3) 0.97666(16)
H58_3 H 0.6907 0.6952 0.9888
C101_3 C 0.4062(4) 0.4064(3) 0.99663(14)
H71_3 H 0.3971 0.4047 0.9665
H29_3 H 0.9987 0.3069 0.8757
H30_3 H 0.9850 0.2545 0.9171
C106_3 C 0.2472(3) 0.4610(3) 0.99668(13)
H74_3 H 0.2118 0.4304 0.9751
C107_3 C 0.3135(3) 0.5282(3) 0.98503(12)
H75_3 H 0.3224 0.5440 0.9558
C114_3 C 0.5390(3) 0.7863(4) 0.99668(13)
H78_3 H 0.5696 0.7815 0.9751
C115_3 C 0.4718(3) 0.7854(4) 0.98503(12)
H79_3 H 0.4560 0.7785 0.9558
C122_3 C 0.2137(4) 0.7528(3) 0.99668(13)
H82_3 H 0.2185 0.7882 0.9751
C123_3 C 0.2146(4) 0.6865(3) 0.98503(12)
H83_3 H 0.2215 0.6776 0.9558
C1_3 C 0.6914(3) 0.0041(2) 0.21449(13)
C2_3 C 0.7612(2) 0.0845(2) 0.22253(12)
C3_3 C 0.8336(2) 0.0995(2) 0.21180(13)
H1_3 H 0.8417 0.0603 0.2009
C4_3 C 0.8955(2) 0.1743(3) 0.21737(14)
H2_3 H 0.9451 0.1847 0.2096
C5_3 C 0.8864(2) 0.2336(2) 0.23405(12)
C6_3 C 0.8143(3) 0.2181(3) 0.24597(18)
H3_3 H 0.8069 0.2567 0.2584
C7_3 C 0.7496(3) 0.1413(3) 0.23922(18)
H4_3 H 0.6996 0.1305 0.2463
C8_3 C 0.9542(2) 0.3151(2) 0.23809(15)
H5_3 H 0.9749 0.3347 0.2091
H6_3 H 0.9362 0.3484 0.2505
H10_3 H 0.9714 0.3288 0.3222
loop_
_geom_bond_atom_site_label_1
_geom_bond_atom_site_label_2
_geom_bond_site_symmetry_1
_geom_bond_site_symmetry_2
Zn8 O7 1_555 1_555
O23 C90 1_555 1_555
O24 C90 1_555 1_555
C90 C91 1_555 1_555
C91 C92 1_555 1_555
C92 H63 1_555 1_555
C93 C92 1_555 1_555
H64 C93 1_555 1_555
C94 C93 1_555 1_555
C95 C94 1_555 1_555
H65 C95 1_555 1_555
C96 C91 1_555 1_555
H66 C96 1_555 1_555
C97 C94 1_555 1_555
H67 C97 1_555 1_555
H68 C97 1_555 1_555
Zn10 O23 1_555 1_555
C95 C96 1_555 1_555
Zn9 O15 1_555 1_555
Zn1 O1 1_555 1_555
Zn2 O5 1_555 1_555
O3 Zn1 1_555 1_555
O4 C14 1_555 1_555
O5 C21 1_555 1_555
O6 C21 1_555 1_555
C14 O3 1_555 1_555
C15 C14 1_555 1_555
C16 C15 1_555 1_555
H11 C16 1_555 1_555
H14 C19 1_555 1_555
C20 C15 1_555 1_555
C21 C20 1_555 1_555
Zn3 O6 1_555 1_555
O9 Zn3 1_555 1_555
O10 C35 1_555 1_555
O11 Zn3 1_555 1_555
O12 C48 1_555 1_555
O13 Zn2 1_555 1_555
O14 C55 1_555 1_555
N3 C42 1_555 1_555
C35 O9 1_555 1_555
C36 C35 1_555 1_555
C37 C36 1_555 1_555
H25 C37 1_555 1_555
C38 C37 1_555 1_555
H26 C38 1_555 1_555
C39 C38 1_555 1_555
C40 C39 1_555 1_555
H27 C40 1_555 1_555
C41 C36 1_555 1_555
H28 C41 1_555 1_555
C42 C39 1_555 1_555
C43 N3 1_555 1_555
H31 C43 1_555 1_555
C44 C43 1_555 1_555
H32 C44 1_555 1_555
C45 C44 1_555 1_555
C47 N3 1_555 1_555
H34 C47 1_555 1_555
C48 O11 1_555 1_555
C49 C48 1_555 1_555
C50 C49 1_555 1_555
H35 C50 1_555 1_555
H38 C53 1_555 1_555
C54 C49 1_555 1_555
C55 O13 1_555 1_555
H47 C67 1_555 1_555
Zn4 O14 1_555 1_555
O17 Zn4 1_555 1_555
O19 Zn4 1_555 1_555
O20 C82 1_555 1_555
O21 Zn2 1_555 1_555
O22 Zn1 1_555 1_555
C82 O19 1_555 1_555
C83 C82 1_555 1_555
C84 C83 1_555 1_555
H59 C84 1_555 1_555
H62 C87 1_555 1_555
C88 C83 1_555 1_555
C89 O21 1_555 1_555
Zn8 O12 1_555 1_555
O25 Zn8 1_555 1_555
O26 Zn4 1_555 1_555
O27 Zn2 1_555 1_555
O28 C110 1_555 1_555
C103 O25 1_555 1_555
C104 C103 1_555 1_555
C105 C104 1_555 1_555
H73 C105 1_555 1_555
C106 C105 1_555 1_555
H74 C106 1_555 1_555
C107 C106 1_555 1_555
H75 C107 1_555 1_555
C108 C107 1_555 1_555
H76 C108 1_555 1_555
C109 C104 1_555 1_555
C110 O27 1_555 1_555
Zn9 O20 1_555 1_555
O29 Zn9 1_555 1_555
O30 Zn1 1_555 1_555
O31 Zn2 1_555 1_555
O32 C118 1_555 1_555
C111 O29 1_555 1_555
C112 C111 1_555 1_555
C113 C112 1_555 1_555
H77 C113 1_555 1_555
C114 C113 1_555 1_555
H78 C114 1_555 1_555
C115 C114 1_555 1_555
H79 C115 1_555 1_555
C116 C115 1_555 1_555
H80 C116 1_555 1_555
C117 C112 1_555 1_555
C118 O31 1_555 1_555
Zn10 O4 1_555 1_555
O33 Zn10 1_555 1_555
O34 Zn3 1_555 1_555
O35 Zn2 1_555 1_555
O36 Zn8 1_555 1_555
C119 O33 1_555 1_555
C120 C119 1_555 1_555
C121 C120 1_555 1_555
H81 C121 1_555 1_555
C122 C121 1_555 1_555
H82 C122 1_555 1_555
C123 C122 1_555 1_555
H83 C123 1_555 1_555
C124 C123 1_555 1_555
H84 C124 1_555 1_555
C125 C120 1_555 1_555
C126 O35 1_555 1_555
C19 C20 1_555 1_555
C40 C41 1_555 1_555
C53 C54 1_555 1_555
C54 C55 1_555 1_555
O22 C89 1_555 1_555
C87 C88 1_555 1_555
C88 C89 1_555 1_555
O26 C103 1_555 1_555
O28 Zn9 1_555 1_555
C108 C109 1_555 1_555
C109 C110 1_555 1_555
O30 C111 1_555 1_555
O32 Zn10 1_555 1_555
C116 C117 1_555 1_555
C117 C118 1_555 1_555
O34 C119 1_555 1_555
O36 C126 1_555 1_555
C124 C125 1_555 1_555
C125 C126 1_555 1_555
C22 C23 1_555 1_555
C23 C24 1_555 1_555
C24 H15 1_555 1_555
C25 C24 1_555 1_555
H16 C25 1_555 1_555
C26 C25 1_555 1_555
C27 C26 1_555 1_555
H17 C27 1_555 1_555
C28 C23 1_555 1_555
H18 C28 1_555 1_555
C29 C26 1_555 1_555
H19 C29 1_555 1_555
H20 C29 1_555 1_555
C27 C28 1_555 1_555
Zn1_2 O1_2 1_555 1_555
O1_2 C1 1_555 1_555
O2 C1 1_555 1_555
O3_2 Zn1_2 1_555 1_555
O4_2 C14_2 1_555 1_555
N1 C8 1_555 1_555
C1 C2 1_555 1_555
C2 C3 1_555 1_555
C3 H1 1_555 1_555
C4 C3 1_555 1_555
H2 C4 1_555 1_555
C5 C4 1_555 1_555
C6 C5 1_555 1_555
H3 C6 1_555 1_555
C7 C2 1_555 1_555
H4 C7 1_555 1_555
C8 C5 1_555 1_555
H5 C8 1_555 1_555
H6 C8 1_555 1_555
C9 N1 1_555 1_555
H7 C9 1_555 1_555
C10 C9 1_555 1_555
H8 C10 1_555 1_555
C11 C10 1_555 1_555
C12 C11 1_555 1_555
H9 C12 1_555 1_555
C13 N1 1_555 1_555
H10 C13 1_555 1_555
C14_2 O3_2 1_555 1_555
C15_2 C14_2 1_555 1_555
C16_2 C15_2 1_555 1_555
H11_2 C16_2 1_555 1_555
C17 C16_2 1_555 1_555
H12 C17 1_555 1_555
C18 C17 1_555 1_555
H13 C18 1_555 1_555
C30 N2 1_555 1_555
H21 C30 1_555 1_555
C31 C30 1_555 1_555
H22 C31 1_555 1_555
C32 C11 1_555 1_555
C33 C32 1_555 1_555
H23 C33 1_555 1_555
C34 N2 1_555 1_555
O21_2 Zn2_2 1_555 1_555
O22_2 Zn1_2 1_555 1_555
H62_2 C87_2 1_555 1_555
C89_2 O21_2 1_555 1_555
O29_2 Zn6 1_555 1_555
O30_2 Zn1_2 1_555 1_555
O31_2 Zn2_2 1_555 1_555
O32_2 C118_2 1_555 1_555
C111_2 O29_2 1_555 1_555
C112_2 C111_2 1_555 1_555
C113_2 C112_2 1_555 1_555
H77_2 C113_2 1_555 1_555
C114_2 C113_2 1_555 1_555
H78_2 C114_2 1_555 1_555
C115_2 C114_2 1_555 1_555
H79_2 C115_2 1_555 1_555
C116_2 C115_2 1_555 1_555
H80_2 C116_2 1_555 1_555
C117_2 C112_2 1_555 1_555
C118_2 O31_2 1_555 1_555
O38 Zn6 1_555 1_555
C6 C7 1_555 1_555
C12 C13 1_555 1_555
C31 C32 1_555 1_555
C33 C34 1_555 1_555
O22_2 C89_2 1_555 1_555
C87_2 C88_2 1_555 1_555
C88_2 C89_2 1_555 1_555
O30_2 C111_2 1_555 1_555
C116_2 C117_2 1_555 1_555
C117_2 C118_2 1_555 1_555
C77 N5 1_555 1_555
H55 C77 1_555 1_555
C78 C77 1_555 1_555
H56 C78 1_555 1_555
C79 C78 1_555 1_555
C80 C79 1_555 1_555
H57 C80 1_555 1_555
C81 N5 1_555 1_555
O24_2 C90_2 1_555 1_555
C90_2 C91_2 1_555 1_555
C91_2 C92_2 1_555 1_555
C92_2 H63_2 1_555 1_555
C93_2 C92_2 1_555 1_555
H64_2 C93_2 1_555 1_555
C98 N6 1_555 1_555
H69 C98 1_555 1_555
C99 C98 1_555 1_555
H70 C99 1_555 1_555
C100 C79 1_555 1_555
C101 C100 1_555 1_555
H71 C101 1_555 1_555
C102 N6 1_555 1_555
C80 C81 1_555 1_555
C99 C100 1_555 1_555
C101 C102 1_555 1_555
C61 C60 1_555 1_555
H41 C61 1_555 1_555
H42 C62 1_555 1_555
C63 C60 1_555 1_555
H43 C63 1_555 1_555
H44 C63 1_555 1_555
C61 C62 1_555 1_555
O17_2 Zn4_2 1_555 1_555
O19_2 Zn4_2 1_555 1_555
O20_2 C82_2 1_555 1_555
C74 C73 1_555 1_555
H51 C74 1_555 1_555
H52 C75 1_555 1_555
C76 C73 1_555 1_555
H53 C76 1_555 1_555
H54 C76 1_555 1_555
C82_2 O19_2 1_555 1_555
C83_2 C82_2 1_555 1_555
C84_2 C83_2 1_555 1_555
H59_2 C84_2 1_555 1_555
C85 C84_2 1_555 1_555
H60 C85 1_555 1_555
C86 C85 1_555 1_555
H61 C86 1_555 1_555
O27_2 Zn2_3 1_555 1_555
O28_2 C110_2 1_555 1_555
H76_2 C108_2 1_555 1_555
C110_2 O27_2 1_555 1_555
C74 C75 1_555 1_555
C108_2 C109_2 1_555 1_555
C109_2 C110_2 1_555 1_555
N3_2 C42_2 1_555 1_555
C36_2 C35_2 1_555 1_555
C37_2 C36_2 1_555 1_555
H25_2 C37_2 1_555 1_555
C38_2 C37_2 1_555 1_555
H26_2 C38_2 1_555 1_555
C39_2 C38_2 1_555 1_555
C40_2 C39_2 1_555 1_555
H27_2 C40_2 1_555 1_555
C41_2 C36_2 1_555 1_555
H28_2 C41_2 1_555 1_555
C42_2 C39_2 1_555 1_555
H29 C42_2 1_555 1_555
H30 C42_2 1_555 1_555
C43_2 N3_2 1_555 1_555
H31_2 C43_2 1_555 1_555
C44_2 C43_2 1_555 1_555
H32_2 C44_2 1_555 1_555
C45_2 C44_2 1_555 1_555
C46 C45_2 1_555 1_555
H33 C46 1_555 1_555
C47_2 N3_2 1_555 1_555
H34_2 C47_2 1_555 1_555
O16_2 C56 1_555 1_555
C56 C57 1_555 1_555
C57 C58 1_555 1_555
C58 H39 1_555 1_555
C59 C58 1_555 1_555
H40 C59 1_555 1_555
C64 N4 1_555 1_555
H45 C64 1_555 1_555
C65 C64 1_555 1_555
H46 C65 1_555 1_555
C66 C45_2 1_555 1_555
C67_2 C66 1_555 1_555
H47_2 C67_2 1_555 1_555
C68 N4 1_555 1_555
C40_2 C41_2 1_555 1_555
C46 C47_2 1_555 1_555
C65 C66 1_555 1_555
C67_2 C68 1_555 1_555
Zn2_4 O5_2 1_555 1_555
O5_2 C21_2 1_555 1_555
O6_2 C21_2 1_555 1_555
H14_2 C19_2 1_555 1_555
C21_2 C20_2 1_555 1_555
O10_2 C35_3 1_555 1_555
C36_3 C35_3 1_555 1_555
C37_3 C36_3 1_555 1_555
H25_3 C37_3 1_555 1_555
C38_3 C37_3 1_555 1_555
H26_3 C38_3 1_555 1_555
C43_3 N3_3 1_555 1_555
H31_3 C43_3 1_555 1_555
C44_3 C43_3 1_555 1_555
H32_3 C44_3 1_555 1_555
C45_3 C44_3 1_555 1_555
C46_2 C45_3 1_555 1_555
H33_2 C46_2 1_555 1_555
C47_3 N3_3 1_555 1_555
N4_2 C63_2 1_555 1_555
C56_2 C57_2 1_555 1_555
C57_2 C58_2 1_555 1_555
C58_2 H39_2 1_555 1_555
C59_2 C58_2 1_555 1_555
H40_2 C59_2 1_555 1_555
C60_2 C59_2 1_555 1_555
C61_2 C60_2 1_555 1_555
H41_2 C61_2 1_555 1_555
C62_2 C57_2 1_555 1_555
H42_2 C62_2 1_555 1_555
C63_2 C60_2 1_555 1_555
H43_2 C63_2 1_555 1_555
H44_2 C63_2 1_555 1_555
C64_2 N4_2 1_555 1_555
H45_2 C64_2 1_555 1_555
C65_2 C64_2 1_555 1_555
H46_2 C65_2 1_555 1_555
C66_2 C45_3 1_555 1_555
C67_3 C66_2 1_555 1_555
H47_3 C67_3 1_555 1_555
C68_2 N4_2 1_555 1_555
H48_2 C68_2 1_555 1_555
O33_2 Zn7 1_555 1_555
C119_2 O33_2 1_555 1_555
C120_2 C119_2 1_555 1_555
C121_2 C120_2 1_555 1_555
H81_2 C121_2 1_555 1_555
C122_2 C121_2 1_555 1_555
H82_2 C122_2 1_555 1_555
C123_2 C122_2 1_555 1_555
H83_2 C123_2 1_555 1_555
O39 Zn7 1_555 1_555
C19_2 C20_2 1_555 1_555
C46_2 C47_3 1_555 1_555
C61_2 C62_2 1_555 1_555
C65_2 C66_2 1_555 1_555
C67_3 C68_2 1_555 1_555
O34_2 C119_2 1_555 1_555
C95_2 C94_2 1_555 1_555
H65_2 C95_2 1_555 1_555
H66_2 C96_2 1_555 1_555
C97_2 C94_2 1_555 1_555
H67_2 C97_2 1_555 1_555
H68_2 C97_2 1_555 1_555
C95_2 C96_2 1_555 1_555
O9_2 Zn3_2 1_555 1_555
O11_2 Zn3_2 1_555 1_555
O12_2 C48_2 1_555 1_555
O13_2 Zn2_5 1_555 1_555
O14_2 C55_2 1_555 1_555
C40_3 C39_3 1_555 1_555
H27_3 C40_3 1_555 1_555
H28_3 C41_3 1_555 1_555
C42_3 C39_3 1_555 1_555
H29_2 C42_3 1_555 1_555
H30_2 C42_3 1_555 1_555
C48_2 O11_2 1_555 1_555
C49_2 C48_2 1_555 1_555
C50_2 C49_2 1_555 1_555
H35_2 C50_2 1_555 1_555
C51 C50_2 1_555 1_555
H36 C51 1_555 1_555
C52 C51 1_555 1_555
H37 C52 1_555 1_555
C53_2 C52 1_555 1_555
H38_2 C53_2 1_555 1_555
C54_2 C49_2 1_555 1_555
C55_2 O13_2 1_555 1_555
O18 C69 1_555 1_555
C70 C69 1_555 1_555
C71 C70 1_555 1_555
H49 C71 1_555 1_555
C72 C71 1_555 1_555
H50 C72 1_555 1_555
C77_2 N5_2 1_555 1_555
H55_2 C77_2 1_555 1_555
C78_2 C77_2 1_555 1_555
H56_2 C78_2 1_555 1_555
C79_2 C78_2 1_555 1_555
C80_2 C79_2 1_555 1_555
H57_2 C80_2 1_555 1_555
C81_2 N5_2 1_555 1_555
C98_2 N6_2 1_555 1_555
H69_2 C98_2 1_555 1_555
C99_2 C98_2 1_555 1_555
H70_2 C99_2 1_555 1_555
C100_2 C79_2 1_555 1_555
C101_2 C100_2 1_555 1_555
H71_2 C101_2 1_555 1_555
C102_2 N6_2 1_555 1_555
Zn5 O12_2 1_555 1_555
O25_2 Zn5 1_555 1_555
C103_2 O25_2 1_555 1_555
C104_2 C103_2 1_555 1_555
C105_2 C104_2 1_555 1_555
H73_2 C105_2 1_555 1_555
C106_2 C105_2 1_555 1_555
H74_2 C106_2 1_555 1_555
C107_2 C106_2 1_555 1_555
H75_2 C107_2 1_555 1_555
O35_2 Zn2_5 1_555 1_555
O36_2 Zn5 1_555 1_555
H84_2 C124_2 1_555 1_555
C126_2 O35_2 1_555 1_555
O37 Zn5 1_555 1_555
C40_3 C41_3 1_555 1_555
C53_2 C54_2 1_555 1_555
C54_2 C55_2 1_555 1_555
C80_2 C81_2 1_555 1_555
C99_2 C100_2 1_555 1_555
C101_2 C102_2 1_555 1_555
O26_2 C103_2 1_555 1_555
O36_2 C126_2 1_555 1_555
C124_2 C125_2 1_555 1_555
C125_2 C126_2 1_555 1_555
C9_2 N1_2 1_555 1_555
H7_2 C9_2 1_555 1_555
C10_2 C9_2 1_555 1_555
H8_2 C10_2 1_555 1_555
C11_2 C10_2 1_555 1_555
C12_2 C11_2 1_555 1_555
H9_2 C12_2 1_555 1_555
C13_2 N1_2 1_555 1_555
O37 C22_2 1_555 1_555
O8_2 C22_2 1_555 1_555
N2_2 C29_2 1_555 1_555
C22_2 C23_2 1_555 1_555
C23_2 C24_2 1_555 1_555
C24_2 H15_2 1_555 1_555
C25_2 C24_2 1_555 1_555
H16_2 C25_2 1_555 1_555
C26_2 C25_2 1_555 1_555
C27_2 C26_2 1_555 1_555
H17_2 C27_2 1_555 1_555
C28_2 C23_2 1_555 1_555
H18_2 C28_2 1_555 1_555
C29_2 C26_2 1_555 1_555
H19_2 C29_2 1_555 1_555
H20_2 C29_2 1_555 1_555
C30_2 N2_2 1_555 1_555
H21_2 C30_2 1_555 1_555
C31_2 C30_2 1_555 1_555
H22_2 C31_2 1_555 1_555
C32_2 C11_2 1_555 1_555
C33_2 C32_2 1_555 1_555
H23_2 C33_2 1_555 1_555
C34_2 N2_2 1_555 1_555
H24_2 C34_2 1_555 1_555
C12_2 C13_2 1_555 1_555
C27_2 C28_2 1_555 1_555
C31_2 C32_2 1_555 1_555
C33_2 C34_2 1_555 1_555
Zn8_2 O7_2 1_555 1_555
Zn10_2 O23_2 1_555 1_555
H33_3 C46_3 1_555 1_555
O15_2 C56_3 1_555 1_555
O16_3 C56_3 1_555 1_555
N4_3 C63_3 1_555 1_555
C56_3 C57_3 1_555 1_555
C57_3 C58_3 1_555 1_555
C58_3 H39_3 1_555 1_555
C59_3 C58_3 1_555 1_555
H40_3 C59_3 1_555 1_555
C60_3 C59_3 1_555 1_555
C61_3 C60_3 1_555 1_555
H41_3 C61_3 1_555 1_555
C62_3 C57_3 1_555 1_555
H42_3 C62_3 1_555 1_555
C63_3 C60_3 1_555 1_555
C64_3 N4_3 1_555 1_555
H45_3 C64_3 1_555 1_555
C65_3 C64_3 1_555 1_555
H46_3 C65_3 1_555 1_555
C68_3 N4_3 1_555 1_555
H48_3 C68_3 1_555 1_555
Zn9_2 O15_2 1_555 1_555
C61_3 C62_3 1_555 1_555
C65_3 C66_3 1_555 1_555
Zn1_3 O1_3 1_555 1_555
Zn2_6 O5_3 1_555 1_555
O3_3 Zn1_3 1_555 1_555
O4_3 C14_3 1_555 1_555
O5_3 C21_3 1_555 1_555
O6_3 C21_3 1_555 1_555
C14_3 O3_3 1_555 1_555
C15_3 C14_3 1_555 1_555
C16_3 C15_3 1_555 1_555
H11_3 C16_3 1_555 1_555
C17_2 C16_3 1_555 1_555
H12_2 C17_2 1_555 1_555
C18_2 C17_2 1_555 1_555
H13_2 C18_2 1_555 1_555
C19_3 C18_2 1_555 1_555
H14_3 C19_3 1_555 1_555
C20_3 C15_3 1_555 1_555
C21_3 C20_3 1_555 1_555
Zn3_3 O6_3 1_555 1_555
O9_3 Zn3_3 1_555 1_555
O11_3 Zn3_3 1_555 1_555
O12_3 C48_3 1_555 1_555
O13_3 Zn2_6 1_555 1_555
O14_3 C55_3 1_555 1_555
C48_3 O11_3 1_555 1_555
C49_3 C48_3 1_555 1_555
C50_3 C49_3 1_555 1_555
H35_3 C50_3 1_555 1_555
C51_2 C50_3 1_555 1_555
H36_2 C51_2 1_555 1_555
C52_2 C51_2 1_555 1_555
H37_2 C52_2 1_555 1_555
C53_3 C52_2 1_555 1_555
H38_3 C53_3 1_555 1_555
C54_3 C49_3 1_555 1_555
C55_3 O13_3 1_555 1_555
Zn4_3 O14_3 1_555 1_555
O17_3 Zn4_3 1_555 1_555
O18_2 C69_2 1_555 1_555
O19_3 Zn4_3 1_555 1_555
O20_3 C82_3 1_555 1_555
O21_3 Zn2_6 1_555 1_555
O22_3 Zn1_3 1_555 1_555
C69_2 O17_3 1_555 1_555
C70_2 C69_2 1_555 1_555
C71_2 C70_2 1_555 1_555
H49_2 C71_2 1_555 1_555
C72_2 C71_2 1_555 1_555
H50_2 C72_2 1_555 1_555
C73_2 C72_2 1_555 1_555
C74_2 C73_2 1_555 1_555
H51_2 C74_2 1_555 1_555
C75_2 C70_2 1_555 1_555
H52_2 C75_2 1_555 1_555
C76_2 C73_2 1_555 1_555
H53_2 C76_2 1_555 1_555
H54_2 C76_2 1_555 1_555
C82_3 O19_3 1_555 1_555
C83_3 C82_3 1_555 1_555
C84_3 C83_3 1_555 1_555
H59_3 C84_3 1_555 1_555
C85_2 C84_3 1_555 1_555
H60_2 C85_2 1_555 1_555
C86_2 C85_2 1_555 1_555
H61_2 C86_2 1_555 1_555
C87_3 C86_2 1_555 1_555
H62_3 C87_3 1_555 1_555
C88_3 C83_3 1_555 1_555
C89_3 O21_3 1_555 1_555
Zn8_2 O12_3 1_555 1_555
O25_3 Zn8_2 1_555 1_555
O26_3 Zn4_3 1_555 1_555
O27_3 Zn2_6 1_555 1_555
O28_3 C110_3 1_555 1_555
C103_3 O25_3 1_555 1_555
C104_3 C103_3 1_555 1_555
C105_3 C104_3 1_555 1_555
H73_3 C105_3 1_555 1_555
H76_3 C108_3 1_555 1_555
C109_3 C104_3 1_555 1_555
C110_3 O27_3 1_555 1_555
Zn9_2 O20_3 1_555 1_555
O29_3 Zn9_2 1_555 1_555
O30_3 Zn1_3 1_555 1_555
O31_3 Zn2_6 1_555 1_555
O32_3 C118_3 1_555 1_555
C111_3 O29_3 1_555 1_555
C112_3 C111_3 1_555 1_555
C113_3 C112_3 1_555 1_555
H77_3 C113_3 1_555 1_555
H80_3 C116_3 1_555 1_555
C117_3 C112_3 1_555 1_555
C118_3 O31_3 1_555 1_555
Zn10_2 O4_3 1_555 1_555
O33_3 Zn10_2 1_555 1_555
O34_3 Zn3_3 1_555 1_555
O35_3 Zn2_6 1_555 1_555
O36_3 Zn8_2 1_555 1_555
C119_3 O33_3 1_555 1_555
C120_3 C119_3 1_555 1_555
C121_3 C120_3 1_555 1_555
H81_3 C121_3 1_555 1_555
H84_3 C124_3 1_555 1_555
C125_3 C120_3 1_555 1_555
C126_3 O35_3 1_555 1_555
C19_3 C20_3 1_555 1_555
C53_3 C54_3 1_555 1_555
C54_3 C55_3 1_555 1_555
O22_3 C89_3 1_555 1_555
C74_2 C75_2 1_555 1_555
C87_3 C88_3 1_555 1_555
C88_3 C89_3 1_555 1_555
O26_3 C103_3 1_555 1_555
O28_3 Zn9_2 1_555 1_555
C108_3 C109_3 1_555 1_555
C109_3 C110_3 1_555 1_555
O30_3 C111_3 1_555 1_555
O32_3 Zn10_2 1_555 1_555
C116_3 C117_3 1_555 1_555
C117_3 C118_3 1_555 1_555
O34_3 C119_3 1_555 1_555
O36_3 C126_3 1_555 1_555
C124_3 C125_3 1_555 1_555
C125_3 C126_3 1_555 1_555
H9_3 C12_3 1_555 1_555
O8_3 C22_3 1_555 1_555
N2_3 C29_3 1_555 1_555
C22_3 C23_3 1_555 1_555
C23_3 C24_3 1_555 1_555
C24_3 H15_3 1_555 1_555
C25_3 C24_3 1_555 1_555
H16_3 C25_3 1_555 1_555
C26_3 C25_3 1_555 1_555
C27_3 C26_3 1_555 1_555
H17_3 C27_3 1_555 1_555
C28_3 C23_3 1_555 1_555
H18_3 C28_3 1_555 1_555
C29_3 C26_3 1_555 1_555
C30_3 N2_3 1_555 1_555
H21_3 C30_3 1_555 1_555
C31_3 C30_3 1_555 1_555
H22_3 C31_3 1_555 1_555
C34_3 N2_3 1_555 1_555
H24_3 C34_3 1_555 1_555
C27_3 C28_3 1_555 1_555
C31_3 C32_3 1_555 1_555
O2_3 C1_2 1_555 1_555
N1_3 C8_2 1_555 1_555
C1_2 C2_2 1_555 1_555
C2_2 C3_2 1_555 1_555
C3_2 H1_2 1_555 1_555
C4_2 C3_2 1_555 1_555
H2_2 C4_2 1_555 1_555
C5_2 C4_2 1_555 1_555
C6_2 C5_2 1_555 1_555
H3_2 C6_2 1_555 1_555
C7_2 C2_2 1_555 1_555
H4_2 C7_2 1_555 1_555
C8_2 C5_2 1_555 1_555
C9_3 N1_3 1_555 1_555
H7_3 C9_3 1_555 1_555
C10_3 C9_3 1_555 1_555
H8_3 C10_3 1_555 1_555
C11_3 C10_3 1_555 1_555
C13_3 N1_3 1_555 1_555
H10_2 C13_3 1_555 1_555
H23_3 C33_3 1_555 1_555
C6_2 C7_2 1_555 1_555
H12_3 C17_3 1_555 1_555
C18_3 C17_3 1_555 1_555
H13_3 C18_3 1_555 1_555
H36_3 C51_3 1_555 1_555
C52_3 C51_3 1_555 1_555
H37_3 C52_3 1_555 1_555
H60_3 C85_3 1_555 1_555
C86_3 C85_3 1_555 1_555
H61_3 C86_3 1_555 1_555
H57_3 C80_3 1_555 1_555
O24_3 C90_3 1_555 1_555
N6_3 C97_3 1_555 1_555
C90_3 C91_3 1_555 1_555
C91_3 C92_3 1_555 1_555
C92_3 H63_3 1_555 1_555
C93_3 C92_3 1_555 1_555
H64_3 C93_3 1_555 1_555
C94_3 C93_3 1_555 1_555
C95_3 C94_3 1_555 1_555
H65_3 C95_3 1_555 1_555
C96_3 C91_3 1_555 1_555
H66_3 C96_3 1_555 1_555
C97_3 C94_3 1_555 1_555
H67_3 C97_3 1_555 1_555
H68_3 C97_3 1_555 1_555
C98_3 N6_3 1_555 1_555
H69_3 C98_3 1_555 1_555
C99_3 C98_3 1_555 1_555
H70_3 C99_3 1_555 1_555
C102_3 N6_3 1_555 1_555
H72_3 C102_3 1_555 1_555
C95_3 C96_3 1_555 1_555
C99_3 C100_3 1_555 1_555
O18_3 C69_3 1_555 1_555
N5_3 C76_3 1_555 1_555
C70_3 C69_3 1_555 1_555
C71_3 C70_3 1_555 1_555
H49_3 C71_3 1_555 1_555
C72_3 C71_3 1_555 1_555
H50_3 C72_3 1_555 1_555
C73_3 C72_3 1_555 1_555
C74_3 C73_3 1_555 1_555
H51_3 C74_3 1_555 1_555
C75_3 C70_3 1_555 1_555
H52_3 C75_3 1_555 1_555
C76_3 C73_3 1_555 1_555
H53_3 C76_3 1_555 1_555
H54_3 C76_3 1_555 1_555
C77_3 N5_3 1_555 1_555
H55_3 C77_3 1_555 1_555
C78_3 C77_3 1_555 1_555
H56_3 C78_3 1_555 1_555
C79_3 C78_3 1_555 1_555
C81_3 N5_3 1_555 1_555
H58_3 C81_3 1_555 1_555
H71_3 C101_3 1_555 1_555
C74_3 C75_3 1_555 1_555
H74_3 C106_3 1_555 1_555
C107_3 C106_3 1_555 1_555
H75_3 C107_3 1_555 1_555
H78_3 C114_3 1_555 1_555
C115_3 C114_3 1_555 1_555
H79_3 C115_3 1_555 1_555
H82_3 C122_3 1_555 1_555
C123_3 C122_3 1_555 1_555
H83_3 C123_3 1_555 1_555
C1_3 C2_3 1_555 1_555
C2_3 C3_3 1_555 1_555
C3_3 H1_3 1_555 1_555
C4_3 C3_3 1_555 1_555
H2_3 C4_3 1_555 1_555
C5_3 C4_3 1_555 1_555
C6_3 C5_3 1_555 1_555
H3_3 C6_3 1_555 1_555
C7_3 C2_3 1_555 1_555
H4_3 C7_3 1_555 1_555
C8_3 C5_3 1_555 1_555
H5_3 C8_3 1_555 1_555
H6_3 C8_3 1_555 1_555
C6_3 C7_3 1_555 1_555

#END
