
###############################################################################
#
# This file contains modified crystal structure data generated from the
# MOF subset of the Cambridge Structural Database (CSD) v543 
# hosted by the Cambridge Crystallographic Data Centre (CCDC).
#
# This work is licensed under the Creative Commons
# Attribution-NonCommercial-ShareAlike 4.0 International License.
# To view a copy of this license, visit
# http://creativecommons.org/licenses/by-nc-sa/4.0/
# or send a letter to
# Creative Commons, PO Box 1866, Mountain View, CA 94042, USA.
#
# CIF created using the CSD Python API on 29 September 2022
# The structure has been converted into the P1 space group
# The structure has a 3D framework
# The original CSD entry CONWUA is in the rhombohedral crystal system
# The framework has been calculated to contain at least 10.0% void space
# The void calculation uses a probe of radius 1.32A, grid spacing 0.4
# The framework is charged, counterions have been retained in the structure
#
###############################################################################

data_CONWUA
_chemical_formula_moiety         '(C378 H252 N18 O102 Zn24 18+)n'
_symmetry_cell_setting           triclinic
_symmetry_space_group_name_H-M   'P 1'
_symmetry_Int_Tables_number      1
_space_group_name_Hall           'P 1'
loop_
_symmetry_equiv_pos_site_id
_symmetry_equiv_pos_as_xyz
1 x,y,z
_cell_length_a                   19.8621(4)
_cell_length_b                   19.8621(4)
_cell_length_c                   30.3966(7)
_cell_angle_alpha                90
_cell_angle_beta                 90
_cell_angle_gamma                120
_cell_volume                     10385
loop_
_atom_site_label
_atom_site_type_symbol
_atom_site_fract_x
_atom_site_fract_y
_atom_site_fract_z
O7 O 0.37348(15) 0.00363(15) 0.78299(11)
O8 O 0.29826(17) 0.04999(16) 0.79482(11)
Zn8 Zn 0.45448(2) 0.10986(2) 0.79872(2)
O23 O 0.63016(21) 0.62652(15) 0.78299(11)
O24 O 0.75174(23) 0.70174(17) 0.79482(11)
C90 C 0.6872(3) 0.6914(2) 0.78565(11)
C91 C 0.67675(27) 0.76136(19) 0.77742(10)
C92 C 0.7346(3) 0.8333(2) 0.78798(11)
H63 H 0.7819 0.8410 0.7985
C93 C 0.72166(28) 0.89582(19) 0.78273(12)
H64 H 0.7607 0.9453 0.7908
C94 C 0.65359(25) 0.88678(17) 0.76607(11)
C95 C 0.5963(3) 0.8141(2) 0.75423(15)
H65 H 0.5499 0.8063 0.7422
C96 C 0.6093(4) 0.7505(2) 0.76078(15)
H66 H 0.5704 0.7005 0.7534
C97 C 0.63909(28) 0.95405(19) 0.76204(13)
H67 H 0.6407 0.9751 0.7910
H68 H 0.5877 0.9357 0.7498
H72 H 0.6426 0.9718 0.6779
Zn10 Zn 0.65539(3) 0.54552(2) 0.79872(2)
O15 O 0.99637(15) 0.36984(21) 0.78299(11)
O16 O 0.95001(16) 0.24826(23) 0.79482(11)
Zn9 Zn 0.89014(2) 0.34461(3) 0.79872(2)
Zn1 Zn 0.87886(2) 0.55680(2) 0.86794(2)
Zn2 Zn 0.6667 0.3333 0.8333
O1 O 0.95986(15) 0.66303(15) 0.88367(11)
O3 O 0.79195(10) 0.57965(10) 0.86442(6)
O4 O 0.66706(10) 0.54385(10) 0.86264(6)
O5 O 0.60337(10) 0.37174(10) 0.87327(6)
O6 O 0.51727(10) 0.38401(11) 0.91313(6)
C14 C 0.72613(14) 0.54835(13) 0.88148(9)
C15 C 0.71333(14) 0.51775(14) 0.92741(8)
C16 C 0.76727(19) 0.56172(19) 0.96005(10)
H11 H 0.8132 0.6065 0.9524
C19 C 0.63265(19) 0.42745(19) 0.98301(10)
H14 H 0.5873 0.3825 0.9911
C20 C 0.64536(15) 0.44914(15) 0.93902(8)
C21 C 0.58605(14) 0.39825(13) 0.90551(8)
Zn3 Zn 0.44320(2) 0.32205(3) 0.86794(2)
O9 O 0.33697(15) 0.29682(21) 0.88367(11)
O10 O 0.38333(16) 0.41840(23) 0.87184(11)
O11 O 0.42035(10) 0.21229(14) 0.86442(6)
O12 O 0.45615(10) 0.12320(14) 0.86264(6)
O13 O 0.62826(10) 0.23162(14) 0.87327(6)
O14 O 0.61599(11) 0.13325(15) 0.91313(6)
N3 N 0.01473(14) 0.36512(20) 0.93348(9)
C35 C 0.3291(2) 0.3538(3) 0.88101(11)
C36 C 0.24872(19) 0.34341(27) 0.88924(10)
C37 C 0.2346(2) 0.4012(3) 0.87868(11)
H25 H 0.2742 0.4485 0.8681
C38 C 0.1592(2) 0.38832(28) 0.88393(12)
H26 H 0.1487 0.4273 0.8758
C39 C 0.10014(19) 0.32025(25) 0.90059(11)
C40 C 0.1155(2) 0.2629(3) 0.91243(15)
H27 H 0.0769 0.2165 0.9244
C41 C 0.1921(3) 0.2759(4) 0.90588(15)
H28 H 0.2032 0.2370 0.9132
C42 C 0.0184(2) 0.30575(28) 0.90462(13)
C43 C 0.02060(18) 0.42850(26) 0.91556(11)
H31 H 0.0281 0.4362 0.8853
C44 C 0.01576(18) 0.48292(25) 0.94110(10)
H32 H 0.0201 0.5273 0.9282
C45 C 0.00456(17) 0.47178(23) 0.98580(10)
C47 C 0.0062(3) 0.3532(4) 0.97655(13)
H34 H 0.0041 0.3092 0.9887
C48 C 0.45165(13) 0.17777(19) 0.88148(9)
C49 C 0.48225(14) 0.19557(20) 0.92741(8)
C50 C 0.43828(19) 0.20554(27) 0.96005(10)
H35 H 0.3935 0.2066 0.9524
C53 C 0.57255(19) 0.20519(27) 0.98301(10)
H38 H 0.6175 0.2047 0.9911
C54 C 0.55086(15) 0.19621(21) 0.93902(8)
C55 C 0.60175(13) 0.18779(19) 0.90551(8)
H47 H 0.0067 0.6026 0.9665
Zn4 Zn 0.67795(3) 0.12114(2) 0.86794(2)
O17 O 0.70318(21) 0.04014(15) 0.88367(11)
O19 O 0.78771(14) 0.20805(10) 0.86442(6)
O20 O 0.87680(14) 0.33294(10) 0.86264(6)
O21 O 0.76838(14) 0.39663(10) 0.87327(6)
O22 O 0.86675(15) 0.48273(10) 0.91313(6)
C82 C 0.82223(19) 0.27387(14) 0.88148(9)
C83 C 0.80443(20) 0.28667(14) 0.92741(8)
C84 C 0.79446(27) 0.23273(19) 0.96005(10)
H59 H 0.7934 0.1868 0.9524
C87 C 0.79481(27) 0.36735(19) 0.98301(10)
H62 H 0.7953 0.4127 0.9911
C88 C 0.80379(21) 0.35464(15) 0.93902(8)
C89 C 0.81221(19) 0.41395(14) 0.90551(8)
O25 O 0.54139(10) 0.08701(10) 0.80224(6)
O26 O 0.66628(10) 0.12281(10) 0.80402(6)
O27 O 0.72997(10) 0.29492(10) 0.79339(6)
O28 O 0.81607(10) 0.28265(11) 0.75353(6)
C103 C 0.60721(14) 0.11831(13) 0.78518(9)
C104 C 0.62001(14) 0.14891(14) 0.73925(8)
C105 C 0.56607(19) 0.10494(19) 0.70661(10)
H73 H 0.5202 0.0601 0.7142
C106 C 0.5809(2) 0.1279(2) 0.66335(11)
H74 H 0.5456 0.0974 0.6417
C107 C 0.6471(2) 0.1951(2) 0.65167(10)
H75 H 0.6559 0.2110 0.6224
C108 C 0.70069(19) 0.23921(19) 0.68365(10)
H76 H 0.7461 0.2841 0.6755
C109 C 0.68798(15) 0.21752(15) 0.72764(8)
C110 C 0.74729(14) 0.26841(13) 0.76115(8)
O29 O 0.91299(10) 0.45437(14) 0.80224(6)
O30 O 0.87719(10) 0.54346(14) 0.80402(6)
O31 O 0.70508(10) 0.43504(14) 0.79339(6)
O32 O 0.71735(11) 0.53341(15) 0.75353(6)
C111 C 0.88169(13) 0.48889(19) 0.78518(9)
C112 C 0.85109(14) 0.47109(20) 0.73925(8)
C113 C 0.89506(19) 0.46112(27) 0.70661(10)
H77 H 0.9399 0.4600 0.7142
C114 C 0.8721(2) 0.4529(3) 0.66335(11)
H78 H 0.9026 0.4481 0.6417
C115 C 0.8049(2) 0.4519(3) 0.65167(10)
H79 H 0.7890 0.4448 0.6224
C116 C 0.76079(19) 0.46147(27) 0.68365(10)
H80 H 0.7159 0.4619 0.6755
C117 C 0.78248(15) 0.47045(21) 0.72764(8)
C118 C 0.73159(13) 0.47887(19) 0.76115(8)
O33 O 0.54563(14) 0.45861(10) 0.80224(6)
O34 O 0.45654(14) 0.33372(10) 0.80402(6)
O35 O 0.56496(14) 0.27003(10) 0.79339(6)
O36 O 0.46659(15) 0.18393(10) 0.75353(6)
C119 C 0.51111(19) 0.39279(14) 0.78518(9)
C120 C 0.52891(20) 0.37999(14) 0.73925(8)
C121 C 0.53888(27) 0.43393(19) 0.70661(10)
H81 H 0.5400 0.4798 0.7142
C122 C 0.5471(3) 0.4191(2) 0.66335(11)
H82 H 0.5519 0.4544 0.6417
C123 C 0.5481(3) 0.3529(2) 0.65167(10)
H83 H 0.5552 0.3441 0.6224
C124 C 0.53853(27) 0.29931(19) 0.68365(10)
H84 H 0.5381 0.2539 0.6755
C125 C 0.52955(21) 0.31202(15) 0.72764(8)
C126 C 0.52113(19) 0.25271(14) 0.76115(8)
C22 C 0.3086(2) 0.9957(2) 0.78565(11)
C23 C 0.23864(19) 0.91538(19) 0.77742(10)
C24 C 0.1667(2) 0.9012(2) 0.78798(11)
H15 H 0.1590 0.9408 0.7985
C25 C 0.10418(19) 0.8258(2) 0.78273(12)
H16 H 0.0547 0.8153 0.7908
C26 C 0.11322(17) 0.76680(19) 0.76607(11)
C27 C 0.1859(2) 0.7821(2) 0.75423(15)
H17 H 0.1937 0.7435 0.7422
C28 C 0.2495(2) 0.8587(3) 0.76078(15)
H18 H 0.2995 0.8698 0.7534
C29 C 0.04595(19) 0.6850(2) 0.76204(13)
H19 H 0.0249 0.6655 0.7910
H20 H 0.0643 0.6519 0.7498
H24 H 0.0282 0.6707 0.6779
Zn1_2 Zn 0.21219(2) 0.22347(2) 0.53461(2)
Zn2_2 Zn 0.0000 -0.0000 0.5000
O1_2 O 0.29319(15) 0.32970(15) 0.55034(11)
O2 O 0.36841(17) 0.28334(16) 0.53851(11)
O3_2 O 0.12528(10) 0.24632(10) 0.53109(6)
O4_2 O 0.00039(10) 0.21052(10) 0.52931(6)
N1 N 0.68373(14) 0.65194(14) 0.60015(9)
C1 C 0.3581(2) 0.3376(2) 0.54768(11)
C2 C 0.42803(19) 0.41795(19) 0.55591(10)
C3 C 0.5000(2) 0.4321(2) 0.54535(11)
H1 H 0.5077 0.3925 0.5348
C4 C 0.56249(19) 0.5075(2) 0.55060(12)
H2 H 0.6120 0.5180 0.5425
C5 C 0.55345(17) 0.56653(19) 0.56726(11)
C6 C 0.4808(2) 0.5512(2) 0.57910(15)
H3 H 0.4730 0.5898 0.5911
C7 C 0.4172(2) 0.4746(3) 0.57255(15)
H4 H 0.3672 0.4635 0.5799
C8 C 0.62072(19) 0.6483(2) 0.57129(13)
H5 H 0.6418 0.6678 0.5423
H6 H 0.6024 0.6814 0.5835
C9 C 0.74124(19) 0.64607(18) 0.58223(11)
H7 H 0.7415 0.6386 0.5520
C10 C 0.80050(18) 0.65091(18) 0.60777(10)
H8 H 0.8406 0.6466 0.5949
C11 C 0.80056(16) 0.66211(17) 0.65247(10)
C12 C 0.7394(2) 0.6665(3) 0.67008(12)
H9 H 0.7375 0.6734 0.7002
C13 C 0.6804(2) 0.6605(3) 0.64322(13)
H10 H 0.6385 0.6626 0.6554
C14_2 C 0.05946(14) 0.21502(13) 0.54815(9)
C15_2 C 0.04666(14) 0.18442(14) 0.59408(8)
C16_2 C 0.10060(19) 0.22839(19) 0.62672(10)
H11_2 H 0.1465 0.2732 0.6191
C17 C 0.0858(2) 0.2054(2) 0.66998(11)
H12 H 0.1211 0.2359 0.6916
C18 C 0.0196(2) 0.1382(2) 0.68166(10)
H13 H 0.0108 0.1223 0.7109
N2 N 0.98294(14) 0.68139(14) 0.73318(9)
C30 C 0.92543(19) 0.68726(18) 0.75110(11)
H21 H 0.9252 0.6947 0.7813
C31 C 0.86617(18) 0.68242(18) 0.72556(10)
H22 H 0.8261 0.6867 0.7384
C32 C 0.86611(16) 0.67122(17) 0.68086(10)
C33 C 0.9273(2) 0.6668(3) 0.66325(12)
H23 H 0.9292 0.6599 0.6331
C34 C 0.9863(2) 0.6728(3) 0.69011(13)
O21_2 O 0.10171(14) 0.06330(10) 0.53994(6)
O22_2 O 0.20008(15) 0.14940(10) 0.57980(6)
C87_2 C 0.12814(27) 0.03402(19) 0.64968(10)
H62_2 H 0.1286 0.0794 0.6578
C88_2 C 0.13712(21) 0.02131(15) 0.60569(8)
C89_2 C 0.14554(19) 0.08062(14) 0.57218(8)
Zn6 Zn 0.22347(2) 0.01128(3) 0.46539(2)
O29_2 O 0.24632(10) 0.12104(14) 0.46891(6)
O30_2 O 0.21052(10) 0.21013(14) 0.47069(6)
O31_2 O 0.03841(10) 0.10171(14) 0.46006(6)
O32_2 O 0.05068(11) 0.20008(15) 0.42020(6)
C111_2 C 0.21502(13) 0.15556(19) 0.45185(9)
C112_2 C 0.18442(14) 0.13776(20) 0.40592(8)
C113_2 C 0.22839(19) 0.12779(27) 0.37328(10)
H77_2 H 0.2732 0.1267 0.3809
C114_2 C 0.2054(2) 0.1196(3) 0.33002(11)
H78_2 H 0.2359 0.1148 0.3084
C115_2 C 0.1382(2) 0.1186(3) 0.31834(10)
H79_2 H 0.1223 0.1115 0.2891
C116_2 C 0.09412(19) 0.12814(27) 0.35032(10)
H80_2 H 0.0492 0.1286 0.3422
C117_2 C 0.11581(15) 0.13712(21) 0.39431(8)
C118_2 C 0.06492(13) 0.14554(19) 0.42782(8)
O38 O 0.32970(15) 0.03651(21) 0.44966(11)
N5 N 0.30154(20) 0.98294(14) 0.26682(9)
C77 C 0.23816(26) 0.92543(19) 0.24890(11)
H55 H 0.2304 0.9252 0.2187
C78 C 0.18374(25) 0.86617(18) 0.27444(10)
H56 H 0.1393 0.8261 0.2616
C79 C 0.19488(23) 0.86611(16) 0.31914(10)
C80 C 0.2604(4) 0.9273(2) 0.33675(12)
H57 H 0.2692 0.9292 0.3669
C81 C 0.3134(4) 0.9863(2) 0.30989(13)
O24_2 O 0.08507(23) 0.36841(17) 0.46149(11)
N6 N 0.03179(20) 0.68373(14) 0.39985(9)
C90_2 C 0.0205(3) 0.3581(2) 0.45232(11)
C91_2 C 0.01008(27) 0.42803(19) 0.44409(10)
C92_2 C 0.0679(3) 0.5000(2) 0.45465(11)
H63_2 H 0.1152 0.5077 0.4652
C93_2 C 0.05499(28) 0.56249(19) 0.44940(12)
H64_2 H 0.0940 0.6120 0.4575
C98 C 0.09517(26) 0.74124(19) 0.41777(11)
H69 H 0.1029 0.7415 0.4480
C99 C 0.14959(25) 0.80050(18) 0.39223(10)
H70 H 0.1940 0.8406 0.4051
C100 C 0.13845(23) 0.80056(16) 0.34753(10)
C101 C 0.0729(4) 0.7394(2) 0.32992(12)
H71 H 0.0641 0.7375 0.2998
C102 C 0.0199(4) 0.6804(2) 0.35678(13)
C60 C 0.56653(19) 0.01308(25) 0.43274(11)
C61 C 0.5512(2) 0.0704(3) 0.42090(15)
H41 H 0.5898 0.1168 0.4089
C62 C 0.4746(3) 0.0574(4) 0.42745(15)
H42 H 0.4635 0.0963 0.4201
C63 C 0.6483(2) 0.02758(28) 0.42871(13)
H43 H 0.6678 0.0260 0.4577
H44 H 0.6814 0.0790 0.4165
H48 H 0.6626 0.0241 0.3446
Zn2_3 Zn -0.0000 1.0000 0.5000
Zn4_2 Zn 0.01128(3) 0.78781(2) 0.53461(2)
O17_2 O 0.03651(21) 0.70681(15) 0.55034(11)
O19_2 O 0.12104(14) 0.87472(10) 0.53109(6)
O20_2 O 0.21013(14) 0.99961(10) 0.52931(6)
C73 C 0.01308(25) 0.44655(17) 0.56726(11)
C74 C 0.0704(3) 0.5192(2) 0.57910(15)
H51 H 0.1168 0.5270 0.5911
C75 C 0.0574(4) 0.5828(2) 0.57255(15)
H52 H 0.0963 0.6328 0.5799
C76 C 0.02758(28) 0.37928(19) 0.57129(13)
H53 H 0.0260 0.3582 0.5423
H54 H 0.0790 0.3976 0.5835
H58 H 0.0241 0.3615 0.6554
C82_2 C 0.15556(19) 0.94054(14) 0.54815(9)
C83_2 C 0.13776(20) 0.95334(14) 0.59408(8)
C84_2 C 0.12779(27) 0.89940(19) 0.62672(10)
H59_2 H 0.1267 0.8535 0.6191
C85 C 0.1196(3) 0.9142(2) 0.66998(11)
H60 H 0.1148 0.8789 0.6916
C86 C 0.1186(3) 0.9804(2) 0.68166(10)
H61 H 0.1115 0.9892 0.7109
O27_2 O 0.06330(10) 0.96159(10) 0.46006(6)
O28_2 O 0.14940(10) 0.94932(11) 0.42020(6)
C108_2 C 0.03402(19) 0.90588(19) 0.35032(10)
H76_2 H 0.0794 0.9508 0.3422
C109_2 C 0.02131(15) 0.88419(15) 0.39431(8)
C110_2 C 0.08062(14) 0.93508(13) 0.42782(8)
N3_2 N 0.68139(14) 0.69846(20) 0.26682(9)
C35_2 C 0.9957(2) 0.6872(3) 0.21435(11)
C36_2 C 0.91538(19) 0.67675(27) 0.22258(10)
C37_2 C 0.9012(2) 0.7346(3) 0.21202(11)
H25_2 H 0.9408 0.7819 0.2015
C38_2 C 0.8258(2) 0.72166(28) 0.21727(12)
H26_2 H 0.8153 0.7607 0.2092
C39_2 C 0.76680(19) 0.65359(25) 0.23393(11)
C40_2 C 0.7821(2) 0.5963(3) 0.24577(15)
H27_2 H 0.7435 0.5499 0.2578
C41_2 C 0.8587(3) 0.6093(4) 0.23922(15)
H28_2 H 0.8698 0.5704 0.2466
C42_2 C 0.6850(2) 0.63909(28) 0.23796(13)
H29 H 0.6655 0.6407 0.2090
H30 H 0.6519 0.5877 0.2502
C43_2 C 0.68726(18) 0.76184(26) 0.24890(11)
H31_2 H 0.6947 0.7696 0.2187
C44_2 C 0.68242(18) 0.81626(25) 0.27444(10)
H32_2 H 0.6867 0.8607 0.2616
C45_2 C 0.67122(17) 0.80512(23) 0.31914(10)
C46 C 0.6668(3) 0.7396(4) 0.33675(12)
H33 H 0.6599 0.7308 0.3669
C47_2 C 0.6728(3) 0.6866(4) 0.30989(13)
H34_2 H 0.6707 0.6426 0.3221
O16_2 O 0.28334(16) 0.91493(23) 0.46149(11)
N4 N 0.65194(14) 0.96821(20) 0.39985(9)
C56 C 0.3376(2) 0.9795(3) 0.45232(11)
C57 C 0.41795(19) 0.98992(27) 0.44409(10)
C58 C 0.4321(2) 0.9321(3) 0.45465(11)
H39 H 0.3925 0.8848 0.4652
C59 C 0.5075(2) 0.94501(28) 0.44940(12)
H40 H 0.5180 0.9060 0.4575
C64 C 0.64607(18) 0.90483(26) 0.41777(11)
H45 H 0.6386 0.8971 0.4480
C65 C 0.65091(18) 0.85041(25) 0.39223(10)
H46 H 0.6466 0.8060 0.4051
C66 C 0.66211(17) 0.86155(23) 0.34753(10)
C67 C 0.6665(3) 0.9271(4) 0.32992(12)
H47_2 H 0.6734 0.9359 0.2998
C68 C 0.6605(3) 0.9801(4) 0.35678(13)
Zn2_4 Zn 1.0000 -0.0000 0.5000
O5_2 O 0.93670(10) 0.03841(10) 0.53994(6)
O6_2 O 0.85060(10) 0.05068(11) 0.57980(6)
C19_2 C 0.96598(19) 0.09412(19) 0.64968(10)
H14_2 H 0.9206 0.0492 0.6578
C20_2 C 0.97869(15) 0.11581(15) 0.60569(8)
C21_2 C 0.91938(14) 0.06492(13) 0.57218(8)
O10_2 O 0.71666(16) 0.08507(23) 0.53851(11)
N3_3 N 0.34806(14) 0.03179(20) 0.60015(9)
C35_3 C 0.6624(2) 0.0205(3) 0.54768(11)
C36_3 C 0.58205(19) 0.01008(27) 0.55591(10)
C37_3 C 0.5679(2) 0.0679(3) 0.54535(11)
H25_3 H 0.6075 0.1152 0.5348
C38_3 C 0.4925(2) 0.05499(28) 0.55060(12)
H26_3 H 0.4820 0.0940 0.5425
C43_3 C 0.35393(18) 0.09517(26) 0.58223(11)
H31_3 H 0.3614 0.1029 0.5520
C44_3 C 0.34909(18) 0.14959(25) 0.60777(10)
H32_3 H 0.3534 0.1940 0.5949
C45_3 C 0.33789(17) 0.13845(23) 0.65247(10)
C46_2 C 0.3335(3) 0.0729(4) 0.67008(12)
H33_2 H 0.3266 0.0641 0.7002
C47_3 C 0.3395(3) 0.0199(4) 0.64322(13)
N4_2 N 0.31861(14) 0.30154(20) 0.73318(9)
C56_2 C 0.0043(2) 0.3128(3) 0.78565(11)
C57_2 C 0.08462(19) 0.32325(27) 0.77742(10)
C58_2 C 0.0988(2) 0.2654(3) 0.78798(11)
H39_2 H 0.0592 0.2181 0.7985
C59_2 C 0.1742(2) 0.27834(28) 0.78273(12)
H40_2 H 0.1847 0.2393 0.7908
C60_2 C 0.23320(19) 0.34641(25) 0.76607(11)
C61_2 C 0.2179(2) 0.4037(3) 0.75423(15)
H41_2 H 0.2565 0.4501 0.7422
C62_2 C 0.1413(3) 0.3907(4) 0.76078(15)
H42_2 H 0.1302 0.4296 0.7534
C63_2 C 0.3150(2) 0.36091(28) 0.76204(13)
H43_2 H 0.3345 0.3593 0.7910
H44_2 H 0.3481 0.4123 0.7498
C64_2 C 0.31274(18) 0.23816(26) 0.75110(11)
H45_2 H 0.3053 0.2304 0.7813
C65_2 C 0.31758(18) 0.18374(25) 0.72556(10)
H46_2 H 0.3133 0.1393 0.7384
C66_2 C 0.32878(17) 0.19488(23) 0.68086(10)
C67_2 C 0.3332(3) 0.2604(4) 0.66325(12)
H47_3 H 0.3401 0.2692 0.6331
C68_2 C 0.3272(3) 0.3134(4) 0.69011(13)
H48_2 H 0.3293 0.3574 0.6779
Zn7 Zn 0.98872(3) 0.21219(2) 0.46539(2)
O33_2 O 0.87896(14) 0.12528(10) 0.46891(6)
O34_2 O 0.78987(14) 0.00039(10) 0.47069(6)
C119_2 C 0.84444(19) 0.05946(14) 0.45185(9)
C120_2 C 0.86224(20) 0.04666(14) 0.40592(8)
C121_2 C 0.87221(27) 0.10060(19) 0.37328(10)
H81_2 H 0.8733 0.1465 0.3809
C122_2 C 0.8804(3) 0.0858(2) 0.33002(11)
H82_2 H 0.8852 0.1211 0.3084
C123_2 C 0.8814(3) 0.0196(2) 0.31834(10)
H83_2 H 0.8885 0.0108 0.2891
O39 O 0.96349(21) 0.29319(15) 0.44966(11)
C94_2 C 0.98692(25) 0.55345(17) 0.43274(11)
C95_2 C 0.9296(3) 0.4808(2) 0.42090(15)
H65_2 H 0.8832 0.4730 0.4089
C96_2 C 0.9426(4) 0.4172(2) 0.42745(15)
H66_2 H 0.9037 0.3672 0.4201
C97_2 C 0.97242(28) 0.62072(19) 0.42871(13)
H67_2 H 0.9740 0.6418 0.4577
H68_2 H 0.9210 0.6024 0.4165
H72_2 H 0.9759 0.6385 0.3446
Zn2_5 Zn 1.0000 1.0000 0.5000
Zn3_2 Zn 0.77653(2) 0.98872(3) 0.53461(2)
O9_2 O 0.67030(15) 0.96349(21) 0.55034(11)
O11_2 O 0.75368(10) 0.87896(14) 0.53109(6)
O12_2 O 0.78948(10) 0.78987(14) 0.52931(6)
O13_2 O 0.96159(10) 0.89829(14) 0.53994(6)
O14_2 O 0.94932(11) 0.79992(15) 0.57980(6)
C39_3 C 0.43347(19) 0.98692(25) 0.56726(11)
C40_3 C 0.4488(2) 0.9296(3) 0.57910(15)
H27_3 H 0.4102 0.8832 0.5911
C41_3 C 0.5254(3) 0.9426(4) 0.57255(15)
H28_3 H 0.5365 0.9037 0.5799
C42_3 C 0.3517(2) 0.97242(28) 0.57129(13)
H29_2 H 0.3322 0.9740 0.5423
H30_2 H 0.3186 0.9210 0.5835
H34_3 H 0.3374 0.9759 0.6554
C48_2 C 0.78498(13) 0.84444(19) 0.54815(9)
C49_2 C 0.81558(14) 0.86224(20) 0.59408(8)
C50_2 C 0.77161(19) 0.87221(27) 0.62672(10)
H35_2 H 0.7268 0.8733 0.6191
C51 C 0.7946(2) 0.8804(3) 0.66998(11)
H36 H 0.7641 0.8852 0.6916
C52 C 0.8618(2) 0.8814(3) 0.68166(10)
H37 H 0.8777 0.8885 0.7109
C53_2 C 0.90588(19) 0.87186(27) 0.64968(10)
H38_2 H 0.9508 0.8714 0.6578
C54_2 C 0.88419(15) 0.86288(21) 0.60569(8)
C55_2 C 0.93508(13) 0.85446(19) 0.57218(8)
O18 O 0.91493(23) 0.63159(17) 0.53851(11)
N5_2 N 0.96821(20) 0.31627(14) 0.60015(9)
C69 C 0.9795(3) 0.6419(2) 0.54768(11)
C70 C 0.98992(27) 0.57197(19) 0.55591(10)
C71 C 0.9321(3) 0.5000(2) 0.54535(11)
H49 H 0.8848 0.4923 0.5348
C72 C 0.94501(28) 0.43751(19) 0.55060(12)
H50 H 0.9060 0.3880 0.5425
C77_2 C 0.90483(26) 0.25876(19) 0.58223(11)
H55_2 H 0.8971 0.2585 0.5520
C78_2 C 0.85041(25) 0.19950(18) 0.60777(10)
H56_2 H 0.8060 0.1594 0.5949
C79_2 C 0.86155(23) 0.19944(16) 0.65247(10)
C80_2 C 0.9271(4) 0.2606(2) 0.67008(12)
H57_2 H 0.9359 0.2625 0.7002
C81_2 C 0.9801(4) 0.3196(2) 0.64322(13)
N6_2 N 0.69846(20) 0.01706(14) 0.73318(9)
C98_2 C 0.76184(26) 0.07457(19) 0.75110(11)
H69_2 H 0.7696 0.0748 0.7813
C99_2 C 0.81626(25) 0.13383(18) 0.72556(10)
H70_2 H 0.8607 0.1739 0.7384
C100_2 C 0.80512(23) 0.13389(16) 0.68086(10)
C101_2 C 0.7396(4) 0.0727(2) 0.66325(12)
H71_2 H 0.7308 0.0708 0.6331
C102_2 C 0.6866(4) 0.0137(2) 0.69011(13)
Zn5 Zn 0.78781(2) 0.77653(2) 0.46539(2)
O25_2 O 0.87472(10) 0.75368(10) 0.46891(6)
O26_2 O 0.99961(10) 0.78948(10) 0.47069(6)
C103_2 C 0.94054(14) 0.78498(13) 0.45185(9)
C104_2 C 0.95334(14) 0.81558(14) 0.40592(8)
C105_2 C 0.89940(19) 0.77161(19) 0.37328(10)
H73_2 H 0.8535 0.7268 0.3809
C106_2 C 0.9142(2) 0.7946(2) 0.33002(11)
H74_2 H 0.8789 0.7641 0.3084
C107_2 C 0.9804(2) 0.8618(2) 0.31834(10)
H75_2 H 0.9892 0.8777 0.2891
O35_2 O 0.89829(14) 0.93670(10) 0.46006(6)
O36_2 O 0.79992(15) 0.85060(10) 0.42020(6)
C124_2 C 0.87186(27) 0.96598(19) 0.35032(10)
H84_2 H 0.8714 0.9206 0.3422
C125_2 C 0.86288(21) 0.97869(15) 0.39431(8)
C126_2 C 0.85446(19) 0.91938(14) 0.42782(8)
O37 O 0.70681(15) 0.67030(15) 0.44966(11)
N1_2 N 0.01706(14) 0.31861(14) 0.26682(9)
C9_2 C 0.07457(19) 0.31274(18) 0.24890(11)
H7_2 H 0.0748 0.3053 0.2187
C10_2 C 0.13383(18) 0.31758(18) 0.27444(10)
H8_2 H 0.1739 0.3133 0.2616
C11_2 C 0.13389(16) 0.32878(17) 0.31914(10)
C12_2 C 0.0727(2) 0.3332(3) 0.33675(12)
H9_2 H 0.0708 0.3401 0.3669
C13_2 C 0.0137(2) 0.3272(3) 0.30989(13)
O8_2 O 0.63159(17) 0.71666(16) 0.46149(11)
N2_2 N 0.31627(14) 0.34806(14) 0.39985(9)
C22_2 C 0.6419(2) 0.6624(2) 0.45232(11)
C23_2 C 0.57197(19) 0.58205(19) 0.44409(10)
C24_2 C 0.5000(2) 0.5679(2) 0.45465(11)
H15_2 H 0.4923 0.6075 0.4652
C25_2 C 0.43751(19) 0.4925(2) 0.44940(12)
H16_2 H 0.3880 0.4820 0.4575
C26_2 C 0.44655(17) 0.43347(19) 0.43274(11)
C27_2 C 0.5192(2) 0.4488(2) 0.42090(15)
H17_2 H 0.5270 0.4102 0.4089
C28_2 C 0.5828(2) 0.5254(3) 0.42745(15)
H18_2 H 0.6328 0.5365 0.4201
C29_2 C 0.37928(19) 0.3517(2) 0.42871(13)
H19_2 H 0.3582 0.3322 0.4577
H20_2 H 0.3976 0.3186 0.4165
C30_2 C 0.25876(19) 0.35393(18) 0.41777(11)
H21_2 H 0.2585 0.3614 0.4480
C31_2 C 0.19950(18) 0.34909(18) 0.39223(10)
H22_2 H 0.1594 0.3534 0.4051
C32_2 C 0.19944(16) 0.33789(17) 0.34753(10)
C33_2 C 0.2606(2) 0.3335(3) 0.32992(12)
H23_2 H 0.2625 0.3266 0.2998
C34_2 C 0.3196(2) 0.3395(3) 0.35678(13)
H24_2 H 0.3615 0.3374 0.3446
O7_2 O 0.04014(15) 0.33697(15) 0.11633(11)
Zn8_2 Zn 0.12114(2) 0.44320(2) 0.13206(2)
O23_2 O 0.29682(21) 0.95986(15) 0.11633(11)
Zn10_2 Zn 0.32205(3) 0.87886(2) 0.13206(2)
H33_3 H 0.9933 0.3974 0.0335
O15_2 O 0.66303(15) 0.70318(21) 0.11633(11)
O16_3 O 0.61667(16) 0.58160(23) 0.12816(11)
N4_3 N 0.98527(14) 0.63488(20) 0.06652(9)
C56_3 C 0.6709(2) 0.6462(3) 0.11899(11)
C57_3 C 0.75128(19) 0.65659(27) 0.11076(10)
C58_3 C 0.7654(2) 0.5988(3) 0.12132(11)
H39_3 H 0.7258 0.5515 0.1319
C59_3 C 0.8408(2) 0.61168(28) 0.11607(12)
H40_3 H 0.8513 0.5727 0.1242
C60_3 C 0.89986(19) 0.67975(25) 0.09941(11)
C61_3 C 0.8845(2) 0.7371(3) 0.08757(15)
H41_3 H 0.9231 0.7835 0.0756
C62_3 C 0.8079(3) 0.7241(4) 0.09412(15)
H42_3 H 0.7968 0.7630 0.0868
C63_3 C 0.9816(2) 0.69425(28) 0.09538(13)
C64_3 C 0.97940(18) 0.57150(26) 0.08444(11)
H45_3 H 0.9719 0.5638 0.1147
C65_3 C 0.98424(18) 0.51708(25) 0.05890(10)
H46_3 H 0.9799 0.4727 0.0718
C66_3 C 0.99544(17) 0.52822(23) 0.01420(10)
C68_3 C 0.9938(3) 0.6468(4) 0.02345(13)
H48_3 H 0.9959 0.6908 0.0113
Zn9_2 Zn 0.55680(2) 0.67795(3) 0.13206(2)
Zn1_3 Zn 0.54552(2) 0.89014(2) 0.20128(2)
Zn2_6 Zn 0.3333 0.6667 0.1667
O1_3 O 0.62652(15) 0.99637(15) 0.21701(11)
O2_2 O 0.70174(17) 0.95001(16) 0.20518(11)
O3_3 O 0.45861(10) 0.91299(10) 0.19776(6)
O4_3 O 0.33372(10) 0.87719(10) 0.19598(6)
O5_3 O 0.27003(10) 0.70508(10) 0.20661(6)
O6_3 O 0.18393(10) 0.71735(11) 0.24647(6)
C14_3 C 0.39279(14) 0.88169(13) 0.21482(9)
C15_3 C 0.37999(14) 0.85109(14) 0.26075(8)
C16_3 C 0.43393(19) 0.89506(19) 0.29339(10)
H11_3 H 0.4798 0.9399 0.2858
C17_2 C 0.4191(2) 0.8721(2) 0.33665(11)
H12_2 H 0.4544 0.9026 0.3583
C18_2 C 0.3529(2) 0.8049(2) 0.34833(10)
H13_2 H 0.3441 0.7890 0.3776
C19_3 C 0.29931(19) 0.76079(19) 0.31635(10)
H14_3 H 0.2539 0.7159 0.3245
C20_3 C 0.31202(15) 0.78248(15) 0.27236(8)
C21_3 C 0.25271(14) 0.73159(13) 0.23885(8)
Zn3_3 Zn 0.10986(2) 0.65539(3) 0.20128(2)
O9_3 O 0.00363(15) 0.63016(21) 0.21701(11)
O10_3 O 0.04999(16) 0.75174(23) 0.20518(11)
O11_3 O 0.08701(10) 0.54563(14) 0.19776(6)
O12_3 O 0.12281(10) 0.45654(14) 0.19598(6)
O13_3 O 0.29492(10) 0.56496(14) 0.20661(6)
O14_3 O 0.28265(11) 0.46659(15) 0.24647(6)
C48_3 C 0.11831(13) 0.51111(19) 0.21482(9)
C49_3 C 0.14891(14) 0.52891(20) 0.26075(8)
C50_3 C 0.10494(19) 0.53888(27) 0.29339(10)
H35_3 H 0.0601 0.5400 0.2858
C51_2 C 0.1279(2) 0.5471(3) 0.33665(11)
H36_2 H 0.0974 0.5519 0.3583
C52_2 C 0.1951(2) 0.5481(3) 0.34833(10)
H37_2 H 0.2110 0.5552 0.3776
C53_3 C 0.23921(19) 0.53853(27) 0.31635(10)
H38_3 H 0.2841 0.5381 0.3245
C54_3 C 0.21752(15) 0.52955(21) 0.27236(8)
C55_3 C 0.26841(13) 0.52113(19) 0.23885(8)
Zn4_3 Zn 0.34461(3) 0.45448(2) 0.20128(2)
O17_3 O 0.36984(21) 0.37348(15) 0.21701(11)
O18_2 O 0.24826(23) 0.29826(17) 0.20518(11)
O19_3 O 0.45437(14) 0.54139(10) 0.19776(6)
O20_3 O 0.54346(14) 0.66628(10) 0.19598(6)
O21_3 O 0.43504(14) 0.72997(10) 0.20661(6)
O22_3 O 0.53341(15) 0.81607(10) 0.24647(6)
C69_2 C 0.3128(3) 0.3086(2) 0.21435(11)
C70_2 C 0.32325(27) 0.23864(19) 0.22258(10)
C71_2 C 0.2654(3) 0.1667(2) 0.21202(11)
H49_2 H 0.2181 0.1590 0.2015
C72_2 C 0.27834(28) 0.10418(19) 0.21727(12)
H50_2 H 0.2393 0.0547 0.2092
C73_2 C 0.34641(25) 0.11322(17) 0.23393(11)
C74_2 C 0.4037(3) 0.1859(2) 0.24577(15)
H51_2 H 0.4501 0.1937 0.2578
C75_2 C 0.3907(4) 0.2495(2) 0.23922(15)
H52_2 H 0.4296 0.2995 0.2466
C76_2 C 0.36091(28) 0.04595(19) 0.23796(13)
H53_2 H 0.3593 0.0249 0.2090
H54_2 H 0.4123 0.0643 0.2502
H58_2 H 0.3574 0.0282 0.3221
C82_3 C 0.48889(19) 0.60721(14) 0.21482(9)
C83_3 C 0.47109(20) 0.62001(14) 0.26075(8)
C84_3 C 0.46112(27) 0.56607(19) 0.29339(10)
H59_3 H 0.4600 0.5202 0.2858
C85_2 C 0.4529(3) 0.5809(2) 0.33665(11)
H60_2 H 0.4481 0.5456 0.3583
C86_2 C 0.4519(3) 0.6471(2) 0.34833(10)
H61_2 H 0.4448 0.6559 0.3776
C87_3 C 0.46147(27) 0.70069(19) 0.31635(10)
H62_3 H 0.4619 0.7461 0.3245
C88_3 C 0.47045(21) 0.68798(15) 0.27236(8)
C89_3 C 0.47887(19) 0.74729(14) 0.23885(8)
O25_3 O 0.20805(10) 0.42035(10) 0.13558(6)
O26_3 O 0.33294(10) 0.45615(10) 0.13736(6)
O27_3 O 0.39663(10) 0.62826(10) 0.12673(6)
O28_3 O 0.48273(10) 0.61599(11) 0.08687(6)
C103_3 C 0.27387(14) 0.45165(13) 0.11852(9)
C104_3 C 0.28667(14) 0.48225(14) 0.07259(8)
C105_3 C 0.23273(19) 0.43828(19) 0.03995(10)
H73_3 H 0.1868 0.3935 0.0476
C108_3 C 0.36735(19) 0.57255(19) 0.01699(10)
H76_3 H 0.4127 0.6175 0.0089
C109_3 C 0.35464(15) 0.55086(15) 0.06098(8)
C110_3 C 0.41395(14) 0.60175(13) 0.09449(8)
O29_3 O 0.57965(10) 0.78771(14) 0.13558(6)
O30_3 O 0.54385(10) 0.87680(14) 0.13736(6)
O31_3 O 0.37174(10) 0.76838(14) 0.12673(6)
O32_3 O 0.38401(11) 0.86675(15) 0.08687(6)
C111_3 C 0.54835(13) 0.82223(19) 0.11852(9)
C112_3 C 0.51775(14) 0.80443(20) 0.07259(8)
C113_3 C 0.56172(19) 0.79446(27) 0.03995(10)
H77_3 H 0.6065 0.7934 0.0476
C116_3 C 0.42745(19) 0.79481(27) 0.01699(10)
H80_3 H 0.3825 0.7953 0.0089
C117_3 C 0.44914(15) 0.80379(21) 0.06098(8)
C118_3 C 0.39825(13) 0.81221(19) 0.09449(8)
O33_3 O 0.21229(14) 0.79195(10) 0.13558(6)
O34_3 O 0.12320(14) 0.66706(10) 0.13736(6)
O35_3 O 0.23162(14) 0.60337(10) 0.12673(6)
O36_3 O 0.13325(15) 0.51727(10) 0.08687(6)
C119_3 C 0.17777(19) 0.72613(14) 0.11852(9)
C120_3 C 0.19557(20) 0.71333(14) 0.07259(8)
C121_3 C 0.20554(27) 0.76727(19) 0.03995(10)
H81_3 H 0.2066 0.8132 0.0476
C124_3 C 0.20519(27) 0.63265(19) 0.01699(10)
H84_3 H 0.2047 0.5873 0.0089
C125_3 C 0.19621(21) 0.64536(15) 0.06098(8)
C126_3 C 0.18779(19) 0.58605(14) 0.09449(8)
H9_3 H 0.4042 0.0067 0.0335
O8_3 O 0.96492(17) 0.38333(16) 0.12816(11)
N2_3 N 0.64960(14) 0.01473(14) 0.06652(9)
C22_3 C 0.9752(2) 0.3291(2) 0.11899(11)
C23_3 C 0.90530(19) 0.24872(19) 0.11076(10)
C24_3 C 0.8333(2) 0.2346(2) 0.12132(11)
H15_3 H 0.8256 0.2742 0.1319
C25_3 C 0.77084(19) 0.1592(2) 0.11607(12)
H16_3 H 0.7213 0.1487 0.1242
C26_3 C 0.77988(17) 0.10014(19) 0.09941(11)
C27_3 C 0.8525(2) 0.1155(2) 0.08757(15)
H17_3 H 0.8603 0.0769 0.0756
C28_3 C 0.9161(2) 0.1921(3) 0.09412(15)
H18_3 H 0.9661 0.2032 0.0868
C29_3 C 0.71261(19) 0.0184(2) 0.09538(13)
C30_3 C 0.59209(19) 0.02060(18) 0.08444(11)
H21_3 H 0.5918 0.0281 0.1147
C31_3 C 0.53283(18) 0.01576(18) 0.05890(10)
H22_3 H 0.4927 0.0201 0.0718
C32_3 C 0.53277(16) 0.00456(17) 0.01420(10)
C34_3 C 0.6529(2) 0.0062(3) 0.02345(13)
H24_3 H 0.6948 0.0041 0.0113
H5_2 H 0.3085 0.0011 0.8756
H6_2 H 0.2691 0.0147 0.9168
C33_3 C 0.5939(2) 0.0002(3) 0.99659(12)
C12_3 C 0.4061(2) 0.9998(3) 0.00341(12)
H19_3 H 0.6915 0.9989 0.1244
H20_3 H 0.7309 0.9853 0.0832
O2_3 O 0.03508(17) 0.61667(16) 0.87184(11)
N1_3 N 0.35040(14) 0.98527(14) 0.93348(9)
C1_2 C 0.0248(2) 0.6709(2) 0.88101(11)
C2_2 C 0.09470(19) 0.75128(19) 0.88924(10)
C3_2 C 0.1667(2) 0.7654(2) 0.87868(11)
H1_2 H 0.1744 0.7258 0.8681
C4_2 C 0.22916(19) 0.8408(2) 0.88393(12)
H2_2 H 0.2787 0.8513 0.8758
C5_2 C 0.22012(17) 0.89986(19) 0.90059(11)
C6_2 C 0.1475(2) 0.8845(2) 0.91243(15)
H3_2 H 0.1397 0.9231 0.9244
C7_2 C 0.0839(2) 0.8079(3) 0.90588(15)
H4_2 H 0.0339 0.7968 0.9132
C8_2 C 0.28739(19) 0.9816(2) 0.90462(13)
C9_3 C 0.40791(19) 0.97940(18) 0.91556(11)
H7_3 H 0.4082 0.9719 0.8853
C10_3 C 0.46717(18) 0.98424(18) 0.94110(10)
H8_3 H 0.5073 0.9799 0.9282
C11_3 C 0.46723(16) 0.99544(17) 0.98580(10)
C13_3 C 0.3471(2) 0.9938(3) 0.97655(13)
H10_2 H 0.3052 0.9959 0.9887
H23_3 H 0.5958 0.9933 0.9665
C17_3 C 0.7525(2) 0.5387(2) 0.00331(11)
H12_3 H 0.7878 0.5692 0.0249
C18_3 C 0.6863(2) 0.4715(2) 0.01499(10)
H13_3 H 0.6775 0.4556 0.0442
C46_3 C 0.0002(3) 0.4062(4) 0.00341(12)
C51_3 C 0.4613(2) 0.2137(3) 0.00331(11)
H36_3 H 0.4308 0.2185 0.0249
C52_3 C 0.5285(2) 0.2147(3) 0.01499(10)
H37_3 H 0.5444 0.2218 0.0442
H43_3 H 0.0011 0.6927 0.1244
H44_3 H 0.0147 0.7457 0.0832
C85_3 C 0.7863(3) 0.2475(2) 0.00331(11)
H60_3 H 0.7815 0.2122 0.0249
C86_3 C 0.7853(3) 0.3137(2) 0.01499(10)
H61_3 H 0.7782 0.3225 0.0442
C80_3 C 0.5938(4) 0.5939(2) 0.00341(12)
H57_3 H 0.6026 0.5958 0.0335
O24_3 O 0.41840(23) 0.03508(17) 0.12816(11)
N6_3 N 0.36512(20) 0.35040(14) 0.06652(9)
C90_3 C 0.3538(3) 0.0248(2) 0.11899(11)
C91_3 C 0.34341(27) 0.09470(19) 0.11076(10)
C92_3 C 0.4012(3) 0.1667(2) 0.12132(11)
H63_3 H 0.4485 0.1744 0.1319
C93_3 C 0.38832(28) 0.22916(19) 0.11607(12)
H64_3 H 0.4273 0.2787 0.1242
C94_3 C 0.32025(25) 0.22012(17) 0.09941(11)
C95_3 C 0.2629(3) 0.1475(2) 0.08757(15)
H65_3 H 0.2165 0.1397 0.0756
C96_3 C 0.2759(4) 0.0839(2) 0.09412(15)
H66_3 H 0.2370 0.0339 0.0868
C97_3 C 0.30575(28) 0.28739(19) 0.09538(13)
H67_3 H 0.3073 0.3085 0.1244
H68_3 H 0.2543 0.2691 0.0832
C98_3 C 0.42850(26) 0.40791(19) 0.08444(11)
H69_3 H 0.4362 0.4082 0.1147
C99_3 C 0.48292(25) 0.46717(18) 0.05890(10)
H70_3 H 0.5273 0.5073 0.0718
C100_3 C 0.47178(23) 0.46723(16) 0.01420(10)
C102_3 C 0.3532(4) 0.3471(2) 0.02345(13)
H72_3 H 0.3092 0.3052 0.0113
O18_3 O 0.58160(23) 0.96492(17) 0.87184(11)
N5_3 N 0.63488(20) 0.64960(14) 0.93348(9)
C69_3 C 0.6462(3) 0.9752(2) 0.88101(11)
C70_3 C 0.65659(27) 0.90530(19) 0.88924(10)
C71_3 C 0.5988(3) 0.8333(2) 0.87868(11)
H49_3 H 0.5515 0.8256 0.8681
C72_3 C 0.61168(28) 0.77084(19) 0.88393(12)
H50_3 H 0.5727 0.7213 0.8758
C73_3 C 0.67975(25) 0.77988(17) 0.90059(11)
C74_3 C 0.7371(3) 0.8525(2) 0.91243(15)
H51_3 H 0.7835 0.8603 0.9244
C75_3 C 0.7241(4) 0.9161(2) 0.90588(15)
H52_3 H 0.7630 0.9661 0.9132
C76_3 C 0.69425(28) 0.71261(19) 0.90462(13)
H53_3 H 0.6927 0.6915 0.8756
H54_3 H 0.7457 0.7309 0.9168
C77_3 C 0.57150(26) 0.59209(19) 0.91556(11)
H55_3 H 0.5638 0.5918 0.8853
C78_3 C 0.51708(25) 0.53283(18) 0.94110(10)
H56_3 H 0.4727 0.4927 0.9282
C79_3 C 0.52822(23) 0.53277(16) 0.98580(10)
C81_3 C 0.6468(4) 0.6529(2) 0.97655(13)
H58_3 H 0.6908 0.6948 0.9887
C101_3 C 0.4062(4) 0.4061(2) 0.99659(12)
H71_3 H 0.3974 0.4042 0.9665
H29_3 H 0.9989 0.3073 0.8756
H30_3 H 0.9853 0.2543 0.9168
C67_3 C 0.9998(3) 0.5938(4) 0.99659(12)
C106_3 C 0.2475(2) 0.4613(2) 0.99669(11)
H74_3 H 0.2122 0.4308 0.9751
C107_3 C 0.3137(2) 0.5285(2) 0.98501(10)
H75_3 H 0.3225 0.5444 0.9558
C114_3 C 0.5387(2) 0.7863(3) 0.99669(11)
H78_3 H 0.5692 0.7815 0.9751
C115_3 C 0.4715(2) 0.7853(3) 0.98501(10)
H79_3 H 0.4556 0.7782 0.9558
C122_3 C 0.2137(3) 0.7525(2) 0.99669(11)
H82_3 H 0.2185 0.7878 0.9751
C123_3 C 0.2147(3) 0.6863(2) 0.98501(10)
H83_3 H 0.2218 0.6775 0.9558
C1_3 C 0.6914(2) 0.0043(2) 0.21435(11)
C2_3 C 0.76136(19) 0.08462(19) 0.22258(10)
C3_3 C 0.8333(2) 0.0988(2) 0.21202(11)
H1_3 H 0.8410 0.0592 0.2015
C4_3 C 0.89582(19) 0.1742(2) 0.21727(12)
H2_3 H 0.9453 0.1847 0.2092
C5_3 C 0.88678(17) 0.23320(19) 0.23393(11)
C6_3 C 0.8141(2) 0.2179(2) 0.24577(15)
H3_3 H 0.8063 0.2565 0.2578
C7_3 C 0.7505(2) 0.1413(3) 0.23922(15)
H4_3 H 0.7005 0.1302 0.2466
C8_3 C 0.95405(19) 0.3150(2) 0.23796(13)
H5_3 H 0.9751 0.3345 0.2090
H6_3 H 0.9357 0.3481 0.2502
H10_3 H 0.9718 0.3293 0.3221
loop_
_geom_bond_atom_site_label_1
_geom_bond_atom_site_label_2
_geom_bond_site_symmetry_1
_geom_bond_site_symmetry_2
Zn8 O7 1_555 1_555
O23 C90 1_555 1_555
O24 C90 1_555 1_555
C90 C91 1_555 1_555
C91 C92 1_555 1_555
C92 H63 1_555 1_555
C93 C92 1_555 1_555
H64 C93 1_555 1_555
C94 C93 1_555 1_555
C95 C94 1_555 1_555
H65 C95 1_555 1_555
C96 C91 1_555 1_555
H66 C96 1_555 1_555
C97 C94 1_555 1_555
H67 C97 1_555 1_555
H68 C97 1_555 1_555
Zn10 O23 1_555 1_555
C95 C96 1_555 1_555
Zn9 O15 1_555 1_555
Zn1 O1 1_555 1_555
Zn2 O5 1_555 1_555
O3 Zn1 1_555 1_555
O4 C14 1_555 1_555
O5 C21 1_555 1_555
O6 C21 1_555 1_555
C14 O3 1_555 1_555
C15 C14 1_555 1_555
C16 C15 1_555 1_555
H11 C16 1_555 1_555
H14 C19 1_555 1_555
C20 C15 1_555 1_555
C21 C20 1_555 1_555
Zn3 O6 1_555 1_555
O9 Zn3 1_555 1_555
O10 C35 1_555 1_555
O11 Zn3 1_555 1_555
O12 C48 1_555 1_555
O13 Zn2 1_555 1_555
O14 C55 1_555 1_555
N3 C42 1_555 1_555
C35 O9 1_555 1_555
C36 C35 1_555 1_555
C37 C36 1_555 1_555
H25 C37 1_555 1_555
C38 C37 1_555 1_555
H26 C38 1_555 1_555
C39 C38 1_555 1_555
C40 C39 1_555 1_555
H27 C40 1_555 1_555
C41 C36 1_555 1_555
H28 C41 1_555 1_555
C42 C39 1_555 1_555
C43 N3 1_555 1_555
H31 C43 1_555 1_555
C44 C43 1_555 1_555
H32 C44 1_555 1_555
C45 C44 1_555 1_555
C47 N3 1_555 1_555
H34 C47 1_555 1_555
C48 O11 1_555 1_555
C49 C48 1_555 1_555
C50 C49 1_555 1_555
H35 C50 1_555 1_555
H38 C53 1_555 1_555
C54 C49 1_555 1_555
C55 O13 1_555 1_555
Zn4 O14 1_555 1_555
O17 Zn4 1_555 1_555
O19 Zn4 1_555 1_555
O20 C82 1_555 1_555
O21 Zn2 1_555 1_555
O22 Zn1 1_555 1_555
C82 O19 1_555 1_555
C83 C82 1_555 1_555
C84 C83 1_555 1_555
H59 C84 1_555 1_555
H62 C87 1_555 1_555
C88 C83 1_555 1_555
C89 O21 1_555 1_555
Zn8 O12 1_555 1_555
O25 Zn8 1_555 1_555
O26 Zn4 1_555 1_555
O27 Zn2 1_555 1_555
O28 C110 1_555 1_555
C103 O25 1_555 1_555
C104 C103 1_555 1_555
C105 C104 1_555 1_555
H73 C105 1_555 1_555
C106 C105 1_555 1_555
H74 C106 1_555 1_555
C107 C106 1_555 1_555
H75 C107 1_555 1_555
C108 C107 1_555 1_555
H76 C108 1_555 1_555
C109 C104 1_555 1_555
C110 O27 1_555 1_555
Zn9 O20 1_555 1_555
O29 Zn9 1_555 1_555
O30 Zn1 1_555 1_555
O31 Zn2 1_555 1_555
O32 C118 1_555 1_555
C111 O29 1_555 1_555
C112 C111 1_555 1_555
C113 C112 1_555 1_555
H77 C113 1_555 1_555
C114 C113 1_555 1_555
H78 C114 1_555 1_555
C115 C114 1_555 1_555
H79 C115 1_555 1_555
C116 C115 1_555 1_555
H80 C116 1_555 1_555
C117 C112 1_555 1_555
C118 O31 1_555 1_555
Zn10 O4 1_555 1_555
O33 Zn10 1_555 1_555
O34 Zn3 1_555 1_555
O35 Zn2 1_555 1_555
O36 Zn8 1_555 1_555
C119 O33 1_555 1_555
C120 C119 1_555 1_555
C121 C120 1_555 1_555
H81 C121 1_555 1_555
C122 C121 1_555 1_555
H82 C122 1_555 1_555
C123 C122 1_555 1_555
H83 C123 1_555 1_555
C124 C123 1_555 1_555
H84 C124 1_555 1_555
C125 C120 1_555 1_555
C126 O35 1_555 1_555
C19 C20 1_555 1_555
C40 C41 1_555 1_555
C53 C54 1_555 1_555
C54 C55 1_555 1_555
O22 C89 1_555 1_555
C87 C88 1_555 1_555
C88 C89 1_555 1_555
O26 C103 1_555 1_555
O28 Zn9 1_555 1_555
C108 C109 1_555 1_555
C109 C110 1_555 1_555
O30 C111 1_555 1_555
O32 Zn10 1_555 1_555
C116 C117 1_555 1_555
C117 C118 1_555 1_555
O34 C119 1_555 1_555
O36 C126 1_555 1_555
C124 C125 1_555 1_555
C125 C126 1_555 1_555
C22 C23 1_555 1_555
C23 C24 1_555 1_555
C24 H15 1_555 1_555
C25 C24 1_555 1_555
H16 C25 1_555 1_555
C26 C25 1_555 1_555
C27 C26 1_555 1_555
H17 C27 1_555 1_555
C28 C23 1_555 1_555
H18 C28 1_555 1_555
C29 C26 1_555 1_555
H19 C29 1_555 1_555
H20 C29 1_555 1_555
C27 C28 1_555 1_555
Zn1_2 O1_2 1_555 1_555
O1_2 C1 1_555 1_555
O2 C1 1_555 1_555
O3_2 Zn1_2 1_555 1_555
O4_2 C14_2 1_555 1_555
N1 C8 1_555 1_555
C1 C2 1_555 1_555
C2 C3 1_555 1_555
C3 H1 1_555 1_555
C4 C3 1_555 1_555
H2 C4 1_555 1_555
C5 C4 1_555 1_555
C6 C5 1_555 1_555
H3 C6 1_555 1_555
C7 C2 1_555 1_555
H4 C7 1_555 1_555
C8 C5 1_555 1_555
H5 C8 1_555 1_555
H6 C8 1_555 1_555
C9 N1 1_555 1_555
H7 C9 1_555 1_555
C10 C9 1_555 1_555
H8 C10 1_555 1_555
C11 C10 1_555 1_555
C12 C11 1_555 1_555
H9 C12 1_555 1_555
C13 N1 1_555 1_555
H10 C13 1_555 1_555
C14_2 O3_2 1_555 1_555
C15_2 C14_2 1_555 1_555
C16_2 C15_2 1_555 1_555
H11_2 C16_2 1_555 1_555
C17 C16_2 1_555 1_555
H12 C17 1_555 1_555
C18 C17 1_555 1_555
H13 C18 1_555 1_555
C30 N2 1_555 1_555
H21 C30 1_555 1_555
C31 C30 1_555 1_555
H22 C31 1_555 1_555
C32 C11 1_555 1_555
C33 C32 1_555 1_555
H23 C33 1_555 1_555
C34 N2 1_555 1_555
O21_2 Zn2_2 1_555 1_555
O22_2 Zn1_2 1_555 1_555
H62_2 C87_2 1_555 1_555
C89_2 O21_2 1_555 1_555
O29_2 Zn6 1_555 1_555
O30_2 Zn1_2 1_555 1_555
O31_2 Zn2_2 1_555 1_555
O32_2 C118_2 1_555 1_555
C111_2 O29_2 1_555 1_555
C112_2 C111_2 1_555 1_555
C113_2 C112_2 1_555 1_555
H77_2 C113_2 1_555 1_555
C114_2 C113_2 1_555 1_555
H78_2 C114_2 1_555 1_555
C115_2 C114_2 1_555 1_555
H79_2 C115_2 1_555 1_555
C116_2 C115_2 1_555 1_555
H80_2 C116_2 1_555 1_555
C117_2 C112_2 1_555 1_555
C118_2 O31_2 1_555 1_555
O38 Zn6 1_555 1_555
C6 C7 1_555 1_555
C12 C13 1_555 1_555
C31 C32 1_555 1_555
C33 C34 1_555 1_555
O22_2 C89_2 1_555 1_555
C87_2 C88_2 1_555 1_555
C88_2 C89_2 1_555 1_555
O30_2 C111_2 1_555 1_555
C116_2 C117_2 1_555 1_555
C117_2 C118_2 1_555 1_555
C77 N5 1_555 1_555
H55 C77 1_555 1_555
C78 C77 1_555 1_555
H56 C78 1_555 1_555
C79 C78 1_555 1_555
C80 C79 1_555 1_555
H57 C80 1_555 1_555
C81 N5 1_555 1_555
O24_2 C90_2 1_555 1_555
C90_2 C91_2 1_555 1_555
C91_2 C92_2 1_555 1_555
C92_2 H63_2 1_555 1_555
C93_2 C92_2 1_555 1_555
H64_2 C93_2 1_555 1_555
C98 N6 1_555 1_555
H69 C98 1_555 1_555
C99 C98 1_555 1_555
H70 C99 1_555 1_555
C100 C79 1_555 1_555
C101 C100 1_555 1_555
H71 C101 1_555 1_555
C102 N6 1_555 1_555
C80 C81 1_555 1_555
C99 C100 1_555 1_555
C101 C102 1_555 1_555
C61 C60 1_555 1_555
H41 C61 1_555 1_555
H42 C62 1_555 1_555
C63 C60 1_555 1_555
H43 C63 1_555 1_555
H44 C63 1_555 1_555
C61 C62 1_555 1_555
O17_2 Zn4_2 1_555 1_555
O19_2 Zn4_2 1_555 1_555
O20_2 C82_2 1_555 1_555
C74 C73 1_555 1_555
H51 C74 1_555 1_555
H52 C75 1_555 1_555
C76 C73 1_555 1_555
H53 C76 1_555 1_555
H54 C76 1_555 1_555
C82_2 O19_2 1_555 1_555
C83_2 C82_2 1_555 1_555
C84_2 C83_2 1_555 1_555
H59_2 C84_2 1_555 1_555
C85 C84_2 1_555 1_555
H60 C85 1_555 1_555
C86 C85 1_555 1_555
H61 C86 1_555 1_555
O27_2 Zn2_3 1_555 1_555
O28_2 C110_2 1_555 1_555
H76_2 C108_2 1_555 1_555
C110_2 O27_2 1_555 1_555
C74 C75 1_555 1_555
C108_2 C109_2 1_555 1_555
C109_2 C110_2 1_555 1_555
N3_2 C42_2 1_555 1_555
C36_2 C35_2 1_555 1_555
C37_2 C36_2 1_555 1_555
H25_2 C37_2 1_555 1_555
C38_2 C37_2 1_555 1_555
H26_2 C38_2 1_555 1_555
C39_2 C38_2 1_555 1_555
C40_2 C39_2 1_555 1_555
H27_2 C40_2 1_555 1_555
C41_2 C36_2 1_555 1_555
H28_2 C41_2 1_555 1_555
C42_2 C39_2 1_555 1_555
H29 C42_2 1_555 1_555
H30 C42_2 1_555 1_555
C43_2 N3_2 1_555 1_555
H31_2 C43_2 1_555 1_555
C44_2 C43_2 1_555 1_555
H32_2 C44_2 1_555 1_555
C45_2 C44_2 1_555 1_555
C46 C45_2 1_555 1_555
H33 C46 1_555 1_555
C47_2 N3_2 1_555 1_555
H34_2 C47_2 1_555 1_555
O16_2 C56 1_555 1_555
C56 C57 1_555 1_555
C57 C58 1_555 1_555
C58 H39 1_555 1_555
C59 C58 1_555 1_555
H40 C59 1_555 1_555
C64 N4 1_555 1_555
H45 C64 1_555 1_555
C65 C64 1_555 1_555
H46 C65 1_555 1_555
C66 C45_2 1_555 1_555
C67 C66 1_555 1_555
H47_2 C67 1_555 1_555
C68 N4 1_555 1_555
C40_2 C41_2 1_555 1_555
C46 C47_2 1_555 1_555
C65 C66 1_555 1_555
C67 C68 1_555 1_555
Zn2_4 O5_2 1_555 1_555
O5_2 C21_2 1_555 1_555
O6_2 C21_2 1_555 1_555
H14_2 C19_2 1_555 1_555
C21_2 C20_2 1_555 1_555
O10_2 C35_3 1_555 1_555
C36_3 C35_3 1_555 1_555
C37_3 C36_3 1_555 1_555
H25_3 C37_3 1_555 1_555
C38_3 C37_3 1_555 1_555
H26_3 C38_3 1_555 1_555
C43_3 N3_3 1_555 1_555
H31_3 C43_3 1_555 1_555
C44_3 C43_3 1_555 1_555
H32_3 C44_3 1_555 1_555
C45_3 C44_3 1_555 1_555
C46_2 C45_3 1_555 1_555
H33_2 C46_2 1_555 1_555
C47_3 N3_3 1_555 1_555
N4_2 C63_2 1_555 1_555
C56_2 C57_2 1_555 1_555
C57_2 C58_2 1_555 1_555
C58_2 H39_2 1_555 1_555
C59_2 C58_2 1_555 1_555
H40_2 C59_2 1_555 1_555
C60_2 C59_2 1_555 1_555
C61_2 C60_2 1_555 1_555
H41_2 C61_2 1_555 1_555
C62_2 C57_2 1_555 1_555
H42_2 C62_2 1_555 1_555
C63_2 C60_2 1_555 1_555
H43_2 C63_2 1_555 1_555
H44_2 C63_2 1_555 1_555
C64_2 N4_2 1_555 1_555
H45_2 C64_2 1_555 1_555
C65_2 C64_2 1_555 1_555
H46_2 C65_2 1_555 1_555
C66_2 C45_3 1_555 1_555
C67_2 C66_2 1_555 1_555
H47_3 C67_2 1_555 1_555
C68_2 N4_2 1_555 1_555
H48_2 C68_2 1_555 1_555
O33_2 Zn7 1_555 1_555
C119_2 O33_2 1_555 1_555
C120_2 C119_2 1_555 1_555
C121_2 C120_2 1_555 1_555
H81_2 C121_2 1_555 1_555
C122_2 C121_2 1_555 1_555
H82_2 C122_2 1_555 1_555
C123_2 C122_2 1_555 1_555
H83_2 C123_2 1_555 1_555
O39 Zn7 1_555 1_555
C19_2 C20_2 1_555 1_555
C46_2 C47_3 1_555 1_555
C61_2 C62_2 1_555 1_555
C65_2 C66_2 1_555 1_555
C67_2 C68_2 1_555 1_555
O34_2 C119_2 1_555 1_555
C95_2 C94_2 1_555 1_555
H65_2 C95_2 1_555 1_555
H66_2 C96_2 1_555 1_555
C97_2 C94_2 1_555 1_555
H67_2 C97_2 1_555 1_555
H68_2 C97_2 1_555 1_555
C95_2 C96_2 1_555 1_555
O9_2 Zn3_2 1_555 1_555
O11_2 Zn3_2 1_555 1_555
O12_2 C48_2 1_555 1_555
O13_2 Zn2_5 1_555 1_555
O14_2 C55_2 1_555 1_555
C40_3 C39_3 1_555 1_555
H27_3 C40_3 1_555 1_555
H28_3 C41_3 1_555 1_555
C42_3 C39_3 1_555 1_555
H29_2 C42_3 1_555 1_555
H30_2 C42_3 1_555 1_555
C48_2 O11_2 1_555 1_555
C49_2 C48_2 1_555 1_555
C50_2 C49_2 1_555 1_555
H35_2 C50_2 1_555 1_555
C51 C50_2 1_555 1_555
H36 C51 1_555 1_555
C52 C51 1_555 1_555
H37 C52 1_555 1_555
C53_2 C52 1_555 1_555
H38_2 C53_2 1_555 1_555
C54_2 C49_2 1_555 1_555
C55_2 O13_2 1_555 1_555
O18 C69 1_555 1_555
C70 C69 1_555 1_555
C71 C70 1_555 1_555
H49 C71 1_555 1_555
C72 C71 1_555 1_555
H50 C72 1_555 1_555
C77_2 N5_2 1_555 1_555
H55_2 C77_2 1_555 1_555
C78_2 C77_2 1_555 1_555
H56_2 C78_2 1_555 1_555
C79_2 C78_2 1_555 1_555
C80_2 C79_2 1_555 1_555
H57_2 C80_2 1_555 1_555
C81_2 N5_2 1_555 1_555
C98_2 N6_2 1_555 1_555
H69_2 C98_2 1_555 1_555
C99_2 C98_2 1_555 1_555
H70_2 C99_2 1_555 1_555
C100_2 C79_2 1_555 1_555
C101_2 C100_2 1_555 1_555
H71_2 C101_2 1_555 1_555
C102_2 N6_2 1_555 1_555
Zn5 O12_2 1_555 1_555
O25_2 Zn5 1_555 1_555
C103_2 O25_2 1_555 1_555
C104_2 C103_2 1_555 1_555
C105_2 C104_2 1_555 1_555
H73_2 C105_2 1_555 1_555
C106_2 C105_2 1_555 1_555
H74_2 C106_2 1_555 1_555
C107_2 C106_2 1_555 1_555
H75_2 C107_2 1_555 1_555
O35_2 Zn2_5 1_555 1_555
O36_2 Zn5 1_555 1_555
H84_2 C124_2 1_555 1_555
C126_2 O35_2 1_555 1_555
O37 Zn5 1_555 1_555
C40_3 C41_3 1_555 1_555
C53_2 C54_2 1_555 1_555
C54_2 C55_2 1_555 1_555
C80_2 C81_2 1_555 1_555
C99_2 C100_2 1_555 1_555
C101_2 C102_2 1_555 1_555
O26_2 C103_2 1_555 1_555
O36_2 C126_2 1_555 1_555
C124_2 C125_2 1_555 1_555
C125_2 C126_2 1_555 1_555
C9_2 N1_2 1_555 1_555
H7_2 C9_2 1_555 1_555
C10_2 C9_2 1_555 1_555
H8_2 C10_2 1_555 1_555
C11_2 C10_2 1_555 1_555
C12_2 C11_2 1_555 1_555
H9_2 C12_2 1_555 1_555
C13_2 N1_2 1_555 1_555
O37 C22_2 1_555 1_555
O8_2 C22_2 1_555 1_555
N2_2 C29_2 1_555 1_555
C22_2 C23_2 1_555 1_555
C23_2 C24_2 1_555 1_555
C24_2 H15_2 1_555 1_555
C25_2 C24_2 1_555 1_555
H16_2 C25_2 1_555 1_555
C26_2 C25_2 1_555 1_555
C27_2 C26_2 1_555 1_555
H17_2 C27_2 1_555 1_555
C28_2 C23_2 1_555 1_555
H18_2 C28_2 1_555 1_555
C29_2 C26_2 1_555 1_555
H19_2 C29_2 1_555 1_555
H20_2 C29_2 1_555 1_555
C30_2 N2_2 1_555 1_555
H21_2 C30_2 1_555 1_555
C31_2 C30_2 1_555 1_555
H22_2 C31_2 1_555 1_555
C32_2 C11_2 1_555 1_555
C33_2 C32_2 1_555 1_555
H23_2 C33_2 1_555 1_555
C34_2 N2_2 1_555 1_555
H24_2 C34_2 1_555 1_555
C12_2 C13_2 1_555 1_555
C27_2 C28_2 1_555 1_555
C31_2 C32_2 1_555 1_555
C33_2 C34_2 1_555 1_555
Zn8_2 O7_2 1_555 1_555
Zn10_2 O23_2 1_555 1_555
O15_2 C56_3 1_555 1_555
O16_3 C56_3 1_555 1_555
N4_3 C63_3 1_555 1_555
C56_3 C57_3 1_555 1_555
C57_3 C58_3 1_555 1_555
C58_3 H39_3 1_555 1_555
C59_3 C58_3 1_555 1_555
H40_3 C59_3 1_555 1_555
C60_3 C59_3 1_555 1_555
C61_3 C60_3 1_555 1_555
H41_3 C61_3 1_555 1_555
C62_3 C57_3 1_555 1_555
H42_3 C62_3 1_555 1_555
C63_3 C60_3 1_555 1_555
C64_3 N4_3 1_555 1_555
H45_3 C64_3 1_555 1_555
C65_3 C64_3 1_555 1_555
H46_3 C65_3 1_555 1_555
C68_3 N4_3 1_555 1_555
H48_3 C68_3 1_555 1_555
Zn9_2 O15_2 1_555 1_555
C61_3 C62_3 1_555 1_555
C65_3 C66_3 1_555 1_555
Zn1_3 O1_3 1_555 1_555
Zn2_6 O5_3 1_555 1_555
O3_3 Zn1_3 1_555 1_555
O4_3 C14_3 1_555 1_555
O5_3 C21_3 1_555 1_555
O6_3 C21_3 1_555 1_555
C14_3 O3_3 1_555 1_555
C15_3 C14_3 1_555 1_555
C16_3 C15_3 1_555 1_555
H11_3 C16_3 1_555 1_555
C17_2 C16_3 1_555 1_555
H12_2 C17_2 1_555 1_555
C18_2 C17_2 1_555 1_555
H13_2 C18_2 1_555 1_555
C19_3 C18_2 1_555 1_555
H14_3 C19_3 1_555 1_555
C20_3 C15_3 1_555 1_555
C21_3 C20_3 1_555 1_555
Zn3_3 O6_3 1_555 1_555
O9_3 Zn3_3 1_555 1_555
O11_3 Zn3_3 1_555 1_555
O12_3 C48_3 1_555 1_555
O13_3 Zn2_6 1_555 1_555
O14_3 C55_3 1_555 1_555
C48_3 O11_3 1_555 1_555
C49_3 C48_3 1_555 1_555
C50_3 C49_3 1_555 1_555
H35_3 C50_3 1_555 1_555
C51_2 C50_3 1_555 1_555
H36_2 C51_2 1_555 1_555
C52_2 C51_2 1_555 1_555
H37_2 C52_2 1_555 1_555
C53_3 C52_2 1_555 1_555
H38_3 C53_3 1_555 1_555
C54_3 C49_3 1_555 1_555
C55_3 O13_3 1_555 1_555
Zn4_3 O14_3 1_555 1_555
O17_3 Zn4_3 1_555 1_555
O18_2 C69_2 1_555 1_555
O19_3 Zn4_3 1_555 1_555
O20_3 C82_3 1_555 1_555
O21_3 Zn2_6 1_555 1_555
O22_3 Zn1_3 1_555 1_555
C69_2 O17_3 1_555 1_555
C70_2 C69_2 1_555 1_555
C71_2 C70_2 1_555 1_555
H49_2 C71_2 1_555 1_555
C72_2 C71_2 1_555 1_555
H50_2 C72_2 1_555 1_555
C73_2 C72_2 1_555 1_555
C74_2 C73_2 1_555 1_555
H51_2 C74_2 1_555 1_555
C75_2 C70_2 1_555 1_555
H52_2 C75_2 1_555 1_555
C76_2 C73_2 1_555 1_555
H53_2 C76_2 1_555 1_555
H54_2 C76_2 1_555 1_555
C82_3 O19_3 1_555 1_555
C83_3 C82_3 1_555 1_555
C84_3 C83_3 1_555 1_555
H59_3 C84_3 1_555 1_555
C85_2 C84_3 1_555 1_555
H60_2 C85_2 1_555 1_555
C86_2 C85_2 1_555 1_555
H61_2 C86_2 1_555 1_555
C87_3 C86_2 1_555 1_555
H62_3 C87_3 1_555 1_555
C88_3 C83_3 1_555 1_555
C89_3 O21_3 1_555 1_555
Zn8_2 O12_3 1_555 1_555
O25_3 Zn8_2 1_555 1_555
O26_3 Zn4_3 1_555 1_555
O27_3 Zn2_6 1_555 1_555
O28_3 C110_3 1_555 1_555
C103_3 O25_3 1_555 1_555
C104_3 C103_3 1_555 1_555
C105_3 C104_3 1_555 1_555
H73_3 C105_3 1_555 1_555
H76_3 C108_3 1_555 1_555
C109_3 C104_3 1_555 1_555
C110_3 O27_3 1_555 1_555
Zn9_2 O20_3 1_555 1_555
O29_3 Zn9_2 1_555 1_555
O30_3 Zn1_3 1_555 1_555
O31_3 Zn2_6 1_555 1_555
O32_3 C118_3 1_555 1_555
C111_3 O29_3 1_555 1_555
C112_3 C111_3 1_555 1_555
C113_3 C112_3 1_555 1_555
H77_3 C113_3 1_555 1_555
H80_3 C116_3 1_555 1_555
C117_3 C112_3 1_555 1_555
C118_3 O31_3 1_555 1_555
Zn10_2 O4_3 1_555 1_555
O33_3 Zn10_2 1_555 1_555
O34_3 Zn3_3 1_555 1_555
O35_3 Zn2_6 1_555 1_555
O36_3 Zn8_2 1_555 1_555
C119_3 O33_3 1_555 1_555
C120_3 C119_3 1_555 1_555
C121_3 C120_3 1_555 1_555
H81_3 C121_3 1_555 1_555
H84_3 C124_3 1_555 1_555
C125_3 C120_3 1_555 1_555
C126_3 O35_3 1_555 1_555
C19_3 C20_3 1_555 1_555
C53_3 C54_3 1_555 1_555
C54_3 C55_3 1_555 1_555
O22_3 C89_3 1_555 1_555
C74_2 C75_2 1_555 1_555
C87_3 C88_3 1_555 1_555
C88_3 C89_3 1_555 1_555
O26_3 C103_3 1_555 1_555
O28_3 Zn9_2 1_555 1_555
C108_3 C109_3 1_555 1_555
C109_3 C110_3 1_555 1_555
O30_3 C111_3 1_555 1_555
O32_3 Zn10_2 1_555 1_555
C116_3 C117_3 1_555 1_555
C117_3 C118_3 1_555 1_555
O34_3 C119_3 1_555 1_555
O36_3 C126_3 1_555 1_555
C124_3 C125_3 1_555 1_555
C125_3 C126_3 1_555 1_555
O8_3 C22_3 1_555 1_555
N2_3 C29_3 1_555 1_555
C22_3 C23_3 1_555 1_555
C23_3 C24_3 1_555 1_555
C24_3 H15_3 1_555 1_555
C25_3 C24_3 1_555 1_555
H16_3 C25_3 1_555 1_555
C26_3 C25_3 1_555 1_555
C27_3 C26_3 1_555 1_555
H17_3 C27_3 1_555 1_555
C28_3 C23_3 1_555 1_555
H18_3 C28_3 1_555 1_555
C29_3 C26_3 1_555 1_555
C30_3 N2_3 1_555 1_555
H21_3 C30_3 1_555 1_555
C31_3 C30_3 1_555 1_555
H22_3 C31_3 1_555 1_555
C34_3 N2_3 1_555 1_555
H24_3 C34_3 1_555 1_555
C27_3 C28_3 1_555 1_555
C31_3 C32_3 1_555 1_555
O2_3 C1_2 1_555 1_555
N1_3 C8_2 1_555 1_555
C1_2 C2_2 1_555 1_555
C2_2 C3_2 1_555 1_555
C3_2 H1_2 1_555 1_555
C4_2 C3_2 1_555 1_555
H2_2 C4_2 1_555 1_555
C5_2 C4_2 1_555 1_555
C6_2 C5_2 1_555 1_555
H3_2 C6_2 1_555 1_555
C7_2 C2_2 1_555 1_555
H4_2 C7_2 1_555 1_555
C8_2 C5_2 1_555 1_555
C9_3 N1_3 1_555 1_555
H7_3 C9_3 1_555 1_555
C10_3 C9_3 1_555 1_555
H8_3 C10_3 1_555 1_555
C11_3 C10_3 1_555 1_555
C13_3 N1_3 1_555 1_555
H10_2 C13_3 1_555 1_555
C6_2 C7_2 1_555 1_555
H12_3 C17_3 1_555 1_555
C18_3 C17_3 1_555 1_555
H13_3 C18_3 1_555 1_555
H36_3 C51_3 1_555 1_555
C52_3 C51_3 1_555 1_555
H37_3 C52_3 1_555 1_555
H60_3 C85_3 1_555 1_555
C86_3 C85_3 1_555 1_555
H61_3 C86_3 1_555 1_555
H57_3 C80_3 1_555 1_555
O24_3 C90_3 1_555 1_555
N6_3 C97_3 1_555 1_555
C90_3 C91_3 1_555 1_555
C91_3 C92_3 1_555 1_555
C92_3 H63_3 1_555 1_555
C93_3 C92_3 1_555 1_555
H64_3 C93_3 1_555 1_555
C94_3 C93_3 1_555 1_555
C95_3 C94_3 1_555 1_555
H65_3 C95_3 1_555 1_555
C96_3 C91_3 1_555 1_555
H66_3 C96_3 1_555 1_555
C97_3 C94_3 1_555 1_555
H67_3 C97_3 1_555 1_555
H68_3 C97_3 1_555 1_555
C98_3 N6_3 1_555 1_555
H69_3 C98_3 1_555 1_555
C99_3 C98_3 1_555 1_555
H70_3 C99_3 1_555 1_555
C102_3 N6_3 1_555 1_555
H72_3 C102_3 1_555 1_555
C95_3 C96_3 1_555 1_555
C99_3 C100_3 1_555 1_555
O18_3 C69_3 1_555 1_555
N5_3 C76_3 1_555 1_555
C70_3 C69_3 1_555 1_555
C71_3 C70_3 1_555 1_555
H49_3 C71_3 1_555 1_555
C72_3 C71_3 1_555 1_555
H50_3 C72_3 1_555 1_555
C73_3 C72_3 1_555 1_555
C74_3 C73_3 1_555 1_555
H51_3 C74_3 1_555 1_555
C75_3 C70_3 1_555 1_555
H52_3 C75_3 1_555 1_555
C76_3 C73_3 1_555 1_555
H53_3 C76_3 1_555 1_555
H54_3 C76_3 1_555 1_555
C77_3 N5_3 1_555 1_555
H55_3 C77_3 1_555 1_555
C78_3 C77_3 1_555 1_555
H56_3 C78_3 1_555 1_555
C79_3 C78_3 1_555 1_555
C81_3 N5_3 1_555 1_555
H58_3 C81_3 1_555 1_555
H71_3 C101_3 1_555 1_555
C74_3 C75_3 1_555 1_555
H74_3 C106_3 1_555 1_555
C107_3 C106_3 1_555 1_555
H75_3 C107_3 1_555 1_555
H78_3 C114_3 1_555 1_555
C115_3 C114_3 1_555 1_555
H79_3 C115_3 1_555 1_555
H82_3 C122_3 1_555 1_555
C123_3 C122_3 1_555 1_555
H83_3 C123_3 1_555 1_555
C1_3 C2_3 1_555 1_555
C2_3 C3_3 1_555 1_555
C3_3 H1_3 1_555 1_555
C4_3 C3_3 1_555 1_555
H2_3 C4_3 1_555 1_555
C5_3 C4_3 1_555 1_555
C6_3 C5_3 1_555 1_555
H3_3 C6_3 1_555 1_555
C7_3 C2_3 1_555 1_555
H4_3 C7_3 1_555 1_555
C8_3 C5_3 1_555 1_555
H5_3 C8_3 1_555 1_555
H6_3 C8_3 1_555 1_555
C6_3 C7_3 1_555 1_555

#END
