
###############################################################################
#
# This file contains modified crystal structure data generated from the
# MOF subset of the Cambridge Structural Database (CSD) v543 
# hosted by the Cambridge Crystallographic Data Centre (CCDC).
#
# This work is licensed under the Creative Commons
# Attribution-NonCommercial-ShareAlike 4.0 International License.
# To view a copy of this license, visit
# http://creativecommons.org/licenses/by-nc-sa/4.0/
# or send a letter to
# Creative Commons, PO Box 1866, Mountain View, CA 94042, USA.
#
# CIF created using the CSD Python API on 29 September 2022
# The structure has been converted into the P1 space group
# The structure has a 3D framework
# The original CSD entry COPBOB is in the monoclinic crystal system
# The framework has been calculated to contain at least 10.0% void space
# The void calculation uses a probe of radius 1.32A, grid spacing 0.4
# The framework is charged, counterions have been retained in the structure
# H atom positions have been added when not included in the experimental data
# Generated hydrogen atom positions removed from atoms on special positions
#
###############################################################################

data_COPBOB
_chemical_formula_moiety         '(C112 H88 Cu8 N16 Na3 O48 7-)n'
_symmetry_cell_setting           triclinic
_symmetry_space_group_name_H-M   'P 1'
_symmetry_Int_Tables_number      1
_space_group_name_Hall           'P 1'
loop_
_symmetry_equiv_pos_site_id
_symmetry_equiv_pos_as_xyz
1 x,y,z
_cell_length_a                   15.7471(10)
_cell_length_b                   17.8249(10)
_cell_length_c                   11.4482(6)
_cell_angle_alpha                90
_cell_angle_beta                 95.314(5)
_cell_angle_gamma                90
_cell_volume                     3199.59
loop_
_atom_site_label
_atom_site_type_symbol
_atom_site_fract_x
_atom_site_fract_y
_atom_site_fract_z
C35 C 0.2133(3) 0.0317(2) 0.1615(4)
O13 O 0.1751(2) 0.0685(2) 0.2301(3)
O14 O 0.2782(2) 0.05598(18) 0.1110(3)
Cu6 Cu 0.32086(4) 0.15404(3) 0.15462(5)
C29 C 0.0979(3) 0.9371(3) 0.1188(4)
H19 H 0.0594 0.9725 0.1414
C30 C 0.0686(3) 0.8679(3) 0.0777(4)
H20 H 0.0106 0.8572 0.0731
C31 C 0.1256(3) 0.8144(2) 0.0434(4)
C32 C 0.2124(3) 0.8301(3) 0.0543(5)
H21 H 0.2511 0.7941 0.0336
C33 C 0.2412(3) 0.8994(3) 0.0961(4)
H22 H 0.2994 0.9094 0.1038
C34 C 0.1845(3) 0.9542(2) 0.1266(4)
C38 C 0.1395(3) 0.6783(2) 0.0253(4)
C39 C 0.1717(3) 0.6656(3) 0.1419(4)
H25 H 0.1663 0.7026 0.1980
C40 C 0.2110(3) 0.5988(2) 0.1744(4)
H26 H 0.2305 0.5907 0.2526
C41 C 0.2220(3) 0.5431(2) 0.0912(4)
C42 C 0.2614(3) 0.4697(2) 0.1284(4)
O15 O 0.2575(2) 0.44704(18) 0.2310(3)
O16 O 0.2970(2) 0.43295(18) 0.0510(3)
Cu10 Cu 0.35160(4) 0.34016(3) 0.11011(5)
Na1 Na 0.5000 0.0000 0.0000
O32 O 0.4774(2) 0.11448(19) 0.1255(3)
H39 H 0.661652 0.0512861 0.0955038
Cu1 Cu 0.32086(4) 0.34596(3) 0.65462(5)
Cu2 Cu 0.35160(4) 0.15984(3) 0.61011(5)
C15 C 0.0469(3) 0.1966(3) 0.2653(4)
H9 H 0.0525 0.1573 0.3189
C18 C 0.0316(3) 0.3141(3) 0.1065(4)
H11 H 0.0266 0.3535 0.0532
C19 C 0.0964(3) 0.3145(3) 0.1960(4)
H12 H 0.1357 0.3536 0.2023
C20 C 0.1026(3) 0.2564(3) 0.2759(4)
C21 C 0.2116(3) 0.1974(3) 0.4187(4)
H13 H 0.2057 0.1485 0.3906
C22 C 0.1960(3) 0.3171(3) 0.4389(4)
H14 H 0.1770 0.3662 0.4277
C23 C 0.4169(3) 0.3261(3) 0.8592(4)
C24 C 0.4423(3) 0.2602(2) 0.7820(3)
C25 C 0.4487(3) 0.1894(3) 0.8577(4)
H15 H 0.4880 0.1990 0.9264
H16 H 0.3932 0.1794 0.8846
C26 C 0.4778(3) 0.1205(2) 0.7976(4)
C27 C 0.5290(3) 0.2756(3) 0.7348(4)
H17 H 0.5720 0.2781 0.8011
H18 H 0.5429 0.2330 0.6873
C28 C 0.5361(3) 0.3454(3) 0.6630(4)
N2 N 0.1680(2) 0.2574(2) 0.3732(3)
N3 N 0.2540(2) 0.2947(2) 0.5210(3)
N4 N 0.2639(2) 0.2186(2) 0.5089(3)
O5 O 0.4494(3) 0.3316(2) 0.9615(3)
O6 O 0.3610(2) 0.37095(18) 0.8136(3)
O7 O 0.5346(2) 0.0805(2) 0.8474(3)
O8 O 0.4418(2) 0.10449(18) 0.6955(3)
O9 O 0.4774(2) 0.38552(19) 0.6255(3)
O10 O 0.6156(3) 0.3571(3) 0.6408(4)
O11 O 0.37736(19) 0.25288(15) 0.6880(2)
Na1_2 Na 0.5000 0.0000 1.0000
O12 O 0.3568(2) 0.0007(2) 0.9251(3)
O25 O 0.2782(2) 0.44402(18) 0.6110(3)
O27 O 0.2970(2) 0.06705(18) 0.5510(3)
O30 O 0.4494(3) 0.1684(2) 0.4615(3)
Na3 Na 0.5000 0.5000 0.5000
Na1_3 Na 0.5000 1.0000 0.0000
Cu3 Cu 0.67914(4) 0.65404(3) 0.34538(5)
Cu4 Cu 0.64840(4) 0.84016(3) 0.38989(5)
C43 C 0.9531(3) 0.8034(3) 0.7347(4)
H27 H 0.9475 0.8427 0.6811
C46 C 0.9684(3) 0.6859(3) 0.8935(4)
H29 H 0.9734 0.6465 0.9468
C47 C 0.9036(3) 0.6855(3) 0.8040(4)
H30 H 0.8643 0.6464 0.7977
C48 C 0.8974(3) 0.7436(3) 0.7241(4)
C49 C 0.7884(3) 0.8026(3) 0.5813(4)
H31 H 0.7943 0.8515 0.6094
C50 C 0.8040(3) 0.6829(3) 0.5611(4)
H32 H 0.8230 0.6338 0.5723
C51 C 0.5831(3) 0.6739(3) 0.1408(4)
C52 C 0.5577(3) 0.7398(2) 0.2180(3)
C53 C 0.5513(3) 0.8106(3) 0.1423(4)
H33 H 0.5120 0.8010 0.0736
H34 H 0.6068 0.8206 0.1154
C54 C 0.5222(3) 0.8795(2) 0.2024(4)
C55 C 0.4710(3) 0.7244(3) 0.2652(4)
H35 H 0.4280 0.7219 0.1989
H36 H 0.4571 0.7670 0.3127
C56 C 0.4639(3) 0.6546(3) 0.3370(4)
N6 N 0.8320(2) 0.7426(2) 0.6268(3)
N7 N 0.7460(2) 0.7053(2) 0.4790(3)
N8 N 0.7361(2) 0.7814(2) 0.4911(3)
O17 O 0.5506(3) 0.6684(2) 0.0385(3)
O18 O 0.6390(2) 0.62905(18) 0.1864(3)
O19 O 0.4654(2) 0.9195(2) 0.1526(3)
O20 O 0.5582(2) 0.89551(18) 0.3045(3)
O21 O 0.5226(2) 0.61448(19) 0.3745(3)
O22 O 0.3844(3) 0.6429(3) 0.3592(4)
O23 O 0.62264(19) 0.74712(15) 0.3120(2)
O24 O 0.6432(2) 0.9993(2) 0.0749(3)
O26 O 0.7218(2) 0.55598(18) 0.3890(3)
O28 O 0.7030(2) 0.93295(18) 0.4490(3)
O29 O 0.5506(3) 0.8316(2) 0.5385(3)
H40 H 0.650129 0.967306 0.146153
Na1_4 Na 0.5000 1.0000 1.0000
Cu8 Cu 0.64840(4) 0.65984(3) 0.88989(5)
O31 O 0.5226(2) 0.88552(19) 0.8745(3)
H37 H 0.351699 0.980609 0.843851
H38 H 0.323167 0.968904 0.975137
C1 C 0.9021(3) 0.0629(3) 0.8812(4)
H1 H 0.9406 0.0275 0.8586
C2 C 0.9314(3) 0.1321(3) 0.9223(4)
H2 H 0.9894 0.1428 0.9269
C3 C 0.8744(3) 0.1856(2) 0.9566(4)
C4 C 0.7876(3) 0.1699(3) 0.9457(5)
H3 H 0.7489 0.2059 0.9664
C5 C 0.7588(3) 0.1006(3) 0.9039(4)
H4 H 0.7006 0.0906 0.8962
C6 C 0.8155(3) 0.0458(2) 0.8734(4)
C10 C 0.8605(3) 0.3217(2) 0.9747(4)
C11 C 0.8283(3) 0.3344(3) 0.8581(4)
H7 H 0.8337 0.2974 0.8020
C12 C 0.7890(3) 0.4012(2) 0.8256(4)
H8 H 0.7695 0.4093 0.7474
C13 C 0.7780(3) 0.4569(2) 0.9088(4)
C14 C 0.7386(3) 0.5303(2) 0.8716(4)
O3 O 0.7425(2) 0.55296(18) 0.7690(3)
O4 O 0.7030(2) 0.56705(18) 0.9490(3)
C7 C 0.7867(3) 0.9683(2) 0.8385(4)
O1 O 0.8249(2) 0.9315(2) 0.7699(3)
O2 O 0.7218(2) 0.94402(18) 0.8890(3)
Cu5 Cu 0.67914(4) 0.84596(3) 0.84538(5)
C14_2 C 0.2614(3) 0.0303(2) 0.6284(4)
O3_2 O 0.2575(2) 0.05296(18) 0.7310(3)
C1_2 C 0.0979(3) 0.5629(3) 0.6188(4)
H1_2 H 0.0594 0.5275 0.6414
C2_2 C 0.0686(3) 0.6321(3) 0.5777(4)
H2_2 H 0.0106 0.6428 0.5731
C3_2 C 0.1256(3) 0.6856(2) 0.5434(4)
C4_2 C 0.2124(3) 0.6699(3) 0.5543(5)
H3_2 H 0.2511 0.7059 0.5336
C5_2 C 0.2412(3) 0.6006(3) 0.5961(4)
H4_2 H 0.2994 0.5906 0.6038
C6_2 C 0.1845(3) 0.5458(2) 0.6266(4)
C7_2 C 0.2133(3) 0.4683(2) 0.6615(4)
C8 C 0.1947(3) 0.9428(3) 0.4745(4)
H5 H 0.2043 0.9784 0.4177
C9 C 0.1534(3) 0.8762(3) 0.4414(4)
H6 H 0.1348 0.8679 0.3630
C10_2 C 0.1395(3) 0.8217(2) 0.5253(4)
C11_2 C 0.1717(3) 0.8344(3) 0.6419(4)
H7_2 H 0.1663 0.7974 0.6980
C12_2 C 0.2110(3) 0.9012(2) 0.6744(4)
H8_2 H 0.2305 0.9093 0.7526
C13_2 C 0.2220(3) 0.9569(2) 0.5912(4)
C16 C 0.0175(3) 0.6954(3) 0.3257(4)
H10 H 0.0545 0.6547 0.3342
C17 C 0.0268(3) 0.7549(2) 0.4046(4)
N1 N 0.0952(2) 0.7553(2) 0.4951(4)
O1_2 O 0.1751(2) 0.4315(2) 0.7301(3)
C15_2 C 0.9531(3) 0.6966(3) 0.2347(4)
H9_2 H 0.9475 0.6573 0.1811
C18_2 C 0.9684(3) 0.8141(3) 0.3935(4)
H11_2 H 0.9734 0.8535 0.4468
C19_2 C 0.9036(3) 0.8145(3) 0.3040(4)
H12_2 H 0.8643 0.8536 0.2977
C20_2 C 0.8974(3) 0.7564(3) 0.2241(4)
C21_2 C 0.7884(3) 0.6974(3) 0.0813(4)
H13_2 H 0.7943 0.6485 0.1094
C22_2 C 0.8040(3) 0.8171(3) 0.0611(4)
H14_2 H 0.8230 0.8662 0.0723
N2_2 N 0.8320(2) 0.7574(2) 0.1268(3)
C23_2 C 0.5831(3) 0.8261(3) 0.6408(4)
C24_2 C 0.5577(3) 0.7602(2) 0.7180(3)
C25_2 C 0.5513(3) 0.6894(3) 0.6423(4)
H15_2 H 0.5120 0.6990 0.5736
H16_2 H 0.6068 0.6794 0.6154
C26_2 C 0.5222(3) 0.6205(2) 0.7024(4)
C27_2 C 0.4710(3) 0.7756(3) 0.7652(4)
H17_2 H 0.4280 0.7781 0.6989
H18_2 H 0.4571 0.7330 0.8127
C28_2 C 0.4639(3) 0.8454(3) 0.8370(4)
N3_2 N 0.7460(2) 0.7947(2) 0.9790(3)
N4_2 N 0.7361(2) 0.7186(2) 0.9911(3)
O6_2 O 0.6390(2) 0.87095(18) 0.6864(3)
O7_2 O 0.4654(2) 0.5805(2) 0.6526(3)
O8_2 O 0.5582(2) 0.60449(18) 0.8045(3)
O10_2 O 0.3844(3) 0.8571(3) 0.8592(4)
O11_2 O 0.62264(19) 0.75288(15) 0.8120(2)
O12_2 O 0.6432(2) 0.5007(2) 0.5749(3)
C51_2 C 0.4169(3) 0.1739(3) 0.3592(4)
C52_2 C 0.4423(3) 0.2398(2) 0.2820(3)
C53_2 C 0.4487(3) 0.3106(3) 0.3577(4)
H33_2 H 0.4880 0.3010 0.4264
H34_2 H 0.3932 0.3206 0.3846
C54_2 C 0.4778(3) 0.3795(2) 0.2976(4)
C55_2 C 0.5290(3) 0.2244(3) 0.2348(4)
H35_2 H 0.5720 0.2219 0.3011
H36_2 H 0.5429 0.2670 0.1873
C56_2 C 0.5361(3) 0.1546(3) 0.1630(4)
N7_2 N 0.2540(2) 0.2053(2) 0.0210(3)
N8_2 N 0.2639(2) 0.2814(2) 0.0089(3)
O18_2 O 0.3610(2) 0.12905(18) 0.3136(3)
O19_2 O 0.5346(2) 0.4195(2) 0.3474(3)
O20_2 O 0.4418(2) 0.39551(18) 0.1955(3)
O22_2 O 0.6156(3) 0.1429(3) 0.1408(4)
O23_2 O 0.37736(19) 0.24712(15) 0.1880(2)
O24_2 O 0.3568(2) 0.4993(2) 0.4251(3)
C43_2 C 0.0469(3) 0.3034(3) 0.7653(4)
H27_2 H 0.0525 0.3427 0.8189
C46_2 C 0.0316(3) 0.1859(3) 0.6065(4)
H29_2 H 0.0266 0.1465 0.5532
C47_2 C 0.0964(3) 0.1855(3) 0.6960(4)
H30_2 H 0.1357 0.1464 0.7023
C48_2 C 0.1026(3) 0.2436(3) 0.7759(4)
C49_2 C 0.2116(3) 0.3026(3) 0.9187(4)
H31_2 H 0.2057 0.3515 0.8906
C50_2 C 0.1960(3) 0.1829(3) 0.9389(4)
H32_2 H 0.1770 0.1338 0.9277
N6_2 N 0.1680(2) 0.2426(2) 0.8732(3)
C29_2 C 0.9021(3) 0.4371(3) 0.3812(4)
H19_2 H 0.9406 0.4725 0.3586
C30_2 C 0.9314(3) 0.3679(3) 0.4223(4)
H20_2 H 0.9894 0.3572 0.4269
C31_2 C 0.8744(3) 0.3144(2) 0.4566(4)
C32_2 C 0.7876(3) 0.3301(3) 0.4457(5)
H21_2 H 0.7489 0.2941 0.4664
C33_2 C 0.7588(3) 0.3994(3) 0.4039(4)
H22_2 H 0.7006 0.4094 0.3962
C34_2 C 0.8155(3) 0.4542(2) 0.3734(4)
C35_2 C 0.7867(3) 0.5317(2) 0.3385(4)
C36 C 0.8053(3) 0.0572(3) 0.5255(4)
H23 H 0.7957 0.0216 0.5823
C37 C 0.8466(3) 0.1238(3) 0.5586(4)
H24 H 0.8652 0.1321 0.6370
C38_2 C 0.8605(3) 0.1783(2) 0.4747(4)
C39_2 C 0.8283(3) 0.1656(3) 0.3581(4)
H25_2 H 0.8337 0.2026 0.3020
C40_2 C 0.7890(3) 0.0988(2) 0.3256(4)
H26_2 H 0.7695 0.0907 0.2474
C41_2 C 0.7780(3) 0.0431(2) 0.4088(4)
C44 C 0.9825(3) 0.3046(3) 0.6743(4)
H28 H 0.9455 0.3453 0.6658
C45 C 0.9732(3) 0.2451(2) 0.5954(4)
N5 N 0.9048(2) 0.2447(2) 0.5049(4)
O13_2 O 0.8249(2) 0.5685(2) 0.2699(3)
C42_2 C 0.7386(3) 0.9697(2) 0.3716(4)
O15_2 O 0.7425(2) 0.94704(18) 0.2690(3)
H37_2 H 0.648301 0.019391 0.156149
H38_2 H 0.676833 0.031096 0.0248627
H40_2 H 0.349871 0.0326942 0.853847
H39_2 H 0.338348 0.948714 0.904496
C36_2 C 0.1947(3) 0.5572(3) 0.9745(4)
H23_2 H 0.2043 0.5216 0.9177
C37_2 C 0.1534(3) 0.6238(3) 0.9414(4)
H24_2 H 0.1348 0.6321 0.8630
C44_2 C 0.0175(3) 0.8046(3) 0.8257(4)
H28_2 H 0.0545 0.8453 0.8342
C45_2 C 0.0268(3) 0.7451(2) 0.9046(4)
N5_2 N 0.0952(2) 0.7447(2) 0.9951(4)
C8_2 C 0.8053(3) 0.4428(3) 0.0255(4)
H5_2 H 0.7957 0.4784 0.0823
C9_2 C 0.8466(3) 0.3762(3) 0.0586(4)
H6_2 H 0.8652 0.3679 0.1370
C16_2 C 0.9825(3) 0.1954(3) 0.1743(4)
H10_2 H 0.9455 0.1547 0.1658
C17_2 C 0.9732(3) 0.2549(2) 0.0954(4)
N1_2 N 0.9048(2) 0.2553(2) 0.0049(4)
loop_
_geom_bond_atom_site_label_1
_geom_bond_atom_site_label_2
_geom_bond_site_symmetry_1
_geom_bond_site_symmetry_2
O13 C35 1_555 1_555
O14 C35 1_555 1_555
Cu6 O14 1_555 1_555
C29 H19 1_555 1_555
C30 C29 1_555 1_555
H20 C30 1_555 1_555
C31 C30 1_555 1_555
C32 C31 1_555 1_555
H21 C32 1_555 1_555
C33 C32 1_555 1_555
H22 C33 1_555 1_555
C34 C29 1_555 1_555
C39 C38 1_555 1_555
H25 C39 1_555 1_555
C40 C39 1_555 1_555
H26 C40 1_555 1_555
C42 C41 1_555 1_555
O15 C42 1_555 1_555
O16 C42 1_555 1_555
Cu10 O16 1_555 1_555
C33 C34 1_555 1_555
C40 C41 1_555 1_555
O32 Na1 1_555 1_555
Cu1 N3 1_555 1_555
Cu2 N4 1_555 1_555
C15 H9 1_555 1_555
H11 C18 1_555 1_555
C19 C18 1_555 1_555
H12 C19 1_555 1_555
C20 C15 1_555 1_555
C21 H13 1_555 1_555
C22 H14 1_555 1_555
C23 C24 1_555 1_555
C24 C25 1_555 1_555
C25 H15 1_555 1_555
H16 C25 1_555 1_555
C26 C25 1_555 1_555
C27 C24 1_555 1_555
H17 C27 1_555 1_555
H18 C27 1_555 1_555
C28 C27 1_555 1_555
N2 C20 1_555 1_555
N3 C22 1_555 1_555
N4 C21 1_555 1_555
O5 C23 1_555 1_555
O6 Cu1 1_555 1_555
O7 C26 1_555 1_555
O8 Cu2 1_555 1_555
O9 Cu1 1_555 1_555
O10 C28 1_555 1_555
O11 Cu1 1_555 1_555
Na1_2 O7 1_555 1_555
O12 Na1_2 1_555 1_555
O25 Cu1 1_555 1_555
O27 Cu2 1_555 1_555
O30 Cu2 1_555 1_555
Na3 O9 1_555 1_555
Cu2 O11 1_555 1_555
C19 C20 1_555 1_555
C21 N2 1_555 1_555
C22 N2 1_555 1_555
C23 O6 1_555 1_555
C24 O11 1_555 1_555
C26 O8 1_555 1_555
C28 O9 1_555 1_555
N3 N4 1_555 1_555
Cu3 N7 1_555 1_555
Cu4 N8 1_555 1_555
C43 H27 1_555 1_555
H29 C46 1_555 1_555
C47 C46 1_555 1_555
H30 C47 1_555 1_555
C48 C43 1_555 1_555
C49 H31 1_555 1_555
C50 H32 1_555 1_555
C51 C52 1_555 1_555
C52 C53 1_555 1_555
C53 H33 1_555 1_555
H34 C53 1_555 1_555
C54 C53 1_555 1_555
C55 C52 1_555 1_555
H35 C55 1_555 1_555
H36 C55 1_555 1_555
C56 C55 1_555 1_555
N6 C48 1_555 1_555
N7 C50 1_555 1_555
N8 C49 1_555 1_555
O17 C51 1_555 1_555
O18 Cu3 1_555 1_555
O19 Na1_3 1_555 1_555
O20 Cu4 1_555 1_555
O21 Cu3 1_555 1_555
O22 C56 1_555 1_555
O23 Cu3 1_555 1_555
O24 Na1_3 1_555 1_555
O26 Cu3 1_555 1_555
O28 Cu4 1_555 1_555
O29 Cu4 1_555 1_555
Na3 O21 1_555 1_555
Cu4 O23 1_555 1_555
C47 C48 1_555 1_555
C49 N6 1_555 1_555
C50 N6 1_555 1_555
C51 O18 1_555 1_555
C52 O23 1_555 1_555
C54 O19 1_555 1_555
C54 O20 1_555 1_555
C56 O21 1_555 1_555
N7 N8 1_555 1_555
O24 H40 1_555 1_555
O31 Na1_4 1_555 1_555
C1 H1 1_555 1_555
C2 C1 1_555 1_555
H2 C2 1_555 1_555
C3 C2 1_555 1_555
C4 C3 1_555 1_555
H3 C4 1_555 1_555
C5 C4 1_555 1_555
H4 C5 1_555 1_555
C6 C1 1_555 1_555
C11 C10 1_555 1_555
H7 C11 1_555 1_555
C12 C11 1_555 1_555
H8 C12 1_555 1_555
C14 C13 1_555 1_555
O3 C14 1_555 1_555
O4 C14 1_555 1_555
Cu8 O4 1_555 1_555
C5 C6 1_555 1_555
C12 C13 1_555 1_555
O1 C7 1_555 1_555
O2 C7 1_555 1_555
Cu5 O2 1_555 1_555
O3_2 C14_2 1_555 1_555
O27 C14_2 1_555 1_555
C1_2 H1_2 1_555 1_555
C2_2 C1_2 1_555 1_555
H2_2 C2_2 1_555 1_555
C3_2 C2_2 1_555 1_555
C4_2 C3_2 1_555 1_555
H3_2 C4_2 1_555 1_555
C5_2 C4_2 1_555 1_555
H4_2 C5_2 1_555 1_555
C6_2 C1_2 1_555 1_555
C7_2 C6_2 1_555 1_555
C8 H5 1_555 1_555
C9 C8 1_555 1_555
H6 C9 1_555 1_555
C10_2 C9 1_555 1_555
C11_2 C10_2 1_555 1_555
H7_2 C11_2 1_555 1_555
C12_2 C11_2 1_555 1_555
H8_2 C12_2 1_555 1_555
C13_2 C8 1_555 1_555
H10 C16 1_555 1_555
C17 C16 1_555 1_555
N1 C3_2 1_555 1_555
O1_2 C7_2 1_555 1_555
O25 C7_2 1_555 1_555
C5_2 C6_2 1_555 1_555
C10_2 N1 1_555 1_555
C12_2 C13_2 1_555 1_555
C17 N1 1_555 1_555
C15_2 H9_2 1_555 1_555
H11_2 C18_2 1_555 1_555
C19_2 C18_2 1_555 1_555
H12_2 C19_2 1_555 1_555
C20_2 C15_2 1_555 1_555
C21_2 H13_2 1_555 1_555
C22_2 H14_2 1_555 1_555
N2_2 C20_2 1_555 1_555
C19_2 C20_2 1_555 1_555
C21_2 N2_2 1_555 1_555
C22_2 N2_2 1_555 1_555
Cu5 N3_2 1_555 1_555
Cu8 N4_2 1_555 1_555
C23_2 C24_2 1_555 1_555
C24_2 C25_2 1_555 1_555
C25_2 H15_2 1_555 1_555
H16_2 C25_2 1_555 1_555
C26_2 C25_2 1_555 1_555
C27_2 C24_2 1_555 1_555
H17_2 C27_2 1_555 1_555
H18_2 C27_2 1_555 1_555
C28_2 C27_2 1_555 1_555
O29 C23_2 1_555 1_555
O6_2 Cu5 1_555 1_555
O7_2 C26_2 1_555 1_555
O8_2 Cu8 1_555 1_555
O31 Cu5 1_555 1_555
O10_2 C28_2 1_555 1_555
O11_2 Cu5 1_555 1_555
Na3 O7_2 1_555 1_555
O12_2 Na3 1_555 1_555
Cu6 N7_2 1_555 1_555
Cu10 N8_2 1_555 1_555
C51_2 C52_2 1_555 1_555
C52_2 C53_2 1_555 1_555
C53_2 H33_2 1_555 1_555
H34_2 C53_2 1_555 1_555
C54_2 C53_2 1_555 1_555
C55_2 C52_2 1_555 1_555
H35_2 C55_2 1_555 1_555
H36_2 C55_2 1_555 1_555
C56_2 C55_2 1_555 1_555
O30 C51_2 1_555 1_555
O18_2 Cu6 1_555 1_555
O19_2 Na3 1_555 1_555
O20_2 Cu10 1_555 1_555
O32 Cu6 1_555 1_555
O22_2 C56_2 1_555 1_555
O23_2 Cu6 1_555 1_555
O24_2 Na3 1_555 1_555
Cu8 O11_2 1_555 1_555
C23_2 O6_2 1_555 1_555
C24_2 O11_2 1_555 1_555
C26_2 O8_2 1_555 1_555
C28_2 O31 1_555 1_555
N3_2 N4_2 1_555 1_555
Cu10 O23_2 1_555 1_555
C51_2 O18_2 1_555 1_555
C52_2 O23_2 1_555 1_555
C54_2 O19_2 1_555 1_555
C54_2 O20_2 1_555 1_555
C56_2 O32 1_555 1_555
N7_2 N8_2 1_555 1_555
C43_2 H27_2 1_555 1_555
H29_2 C46_2 1_555 1_555
C47_2 C46_2 1_555 1_555
H30_2 C47_2 1_555 1_555
C48_2 C43_2 1_555 1_555
C49_2 H31_2 1_555 1_555
C50_2 H32_2 1_555 1_555
N6_2 C48_2 1_555 1_555
C47_2 C48_2 1_555 1_555
C49_2 N6_2 1_555 1_555
C50_2 N6_2 1_555 1_555
C29_2 H19_2 1_555 1_555
C30_2 C29_2 1_555 1_555
H20_2 C30_2 1_555 1_555
C31_2 C30_2 1_555 1_555
C32_2 C31_2 1_555 1_555
H21_2 C32_2 1_555 1_555
C33_2 C32_2 1_555 1_555
H22_2 C33_2 1_555 1_555
C34_2 C29_2 1_555 1_555
C35_2 C34_2 1_555 1_555
C36 H23 1_555 1_555
C37 C36 1_555 1_555
H24 C37 1_555 1_555
C38_2 C37 1_555 1_555
C39_2 C38_2 1_555 1_555
H25_2 C39_2 1_555 1_555
C40_2 C39_2 1_555 1_555
H26_2 C40_2 1_555 1_555
C41_2 C36 1_555 1_555
H28 C44 1_555 1_555
C45 C44 1_555 1_555
N5 C31_2 1_555 1_555
O13_2 C35_2 1_555 1_555
O26 C35_2 1_555 1_555
C33_2 C34_2 1_555 1_555
C38_2 N5 1_555 1_555
C40_2 C41_2 1_555 1_555
C45 N5 1_555 1_555
O15_2 C42_2 1_555 1_555
O28 C42_2 1_555 1_555
O12 H40_2 1_555 1_555
C36_2 H23_2 1_555 1_555
C37_2 C36_2 1_555 1_555
H24_2 C37_2 1_555 1_555
H28_2 C44_2 1_555 1_555
C45_2 C44_2 1_555 1_555
C45_2 N5_2 1_555 1_555
C8_2 H5_2 1_555 1_555
C9_2 C8_2 1_555 1_555
H6_2 C9_2 1_555 1_555
H10_2 C16_2 1_555 1_555
C17_2 C16_2 1_555 1_555
C17_2 N1_2 1_555 1_555

#END
